ATP-HTVS-0009DAEDE04F
     RDKit          3D

 54 57  0  0  0  0  0  0  0  0999 V2000
  194.5791  186.9970  161.7369 S   0  0  0  0  0  0  0  0  0  0  0  0
  195.1145  185.7647  160.5347 C   0  0  0  0  0  0  0  0  0  0  0  0
  194.1828  184.8303  160.0537 C   0  0  0  0  0  0  0  0  0  0  0  0
  194.5931  183.8270  159.1590 C   0  0  0  0  0  0  0  0  0  0  0  0
  195.9408  183.7506  158.7496 C   0  0  0  0  0  0  0  0  0  0  0  0
  196.8709  184.7015  159.2261 C   0  0  0  0  0  0  0  0  0  0  0  0
  196.4590  185.7122  160.1185 C   0  0  0  0  0  0  0  0  0  0  0  0
  196.3860  182.6320  157.8250 C   0  0  1  0  0  0  0  0  0  0  0  0
  196.8425  183.1379  156.4442 C   0  0  1  0  0  0  0  0  0  0  0  0
  197.1375  182.0009  155.4614 C   0  0  0  0  0  0  0  0  0  0  0  0
  197.7493  181.0032  155.8429 O   0  0  0  0  0  0  0  0  0  0  0  0
  196.7372  182.2121  154.1958 N   0  0  0  0  0  0  0  0  0  0  0  0
  196.9779  181.4027  153.0532 C   0  0  0  0  0  0  0  0  0  0  0  0
  196.9483  180.0538  153.1284 N   0  0  0  0  0  0  0  0  0  0  0  0
  197.1280  179.3219  152.0121 C   0  0  0  0  0  0  0  0  0  0  0  0
  197.3959  179.8609  150.7370 C   0  0  0  0  0  0  0  0  0  0  0  0
  197.5680  178.9925  149.6276 N   0  0  0  0  0  0  0  0  0  0  0  0
  198.3455  177.8006  149.6382 C   0  0  0  0  0  0  0  0  0  0  0  0
  198.2193  176.7898  148.6237 C   0  0  0  0  0  0  0  0  0  0  0  0
  199.0874  175.6714  148.6508 C   0  0  0  0  0  0  0  0  0  0  0  0
  200.0342  175.4728  149.6866 C   0  0  0  0  0  0  0  0  0  0  0  0
  200.1342  176.4382  150.7100 C   0  0  0  0  0  0  0  0  0  0  0  0
  199.3251  177.5994  150.6711 C   0  0  0  0  0  0  0  0  0  0  0  0
  196.5152  179.1587  148.6199 C   0  0  1  0  0  0  0  0  0  0  0  0
  196.8990  178.7721  147.2620 C   0  0  0  0  0  0  0  0  0  0  0  0
  197.1921  178.4323  146.1902 N   0  0  0  0  0  0  0  0  0  0  0  0
  197.4492  181.2782  150.6496 C   0  0  0  0  0  0  0  0  0  0  0  0
  197.2210  182.0669  151.8191 C   0  0  0  0  0  0  0  0  0  0  0  0
  197.2573  183.4828  151.7194 C   0  0  0  0  0  0  0  0  0  0  0  0
  197.5009  184.1122  150.4840 C   0  0  0  0  0  0  0  0  0  0  0  0
  197.7405  183.3367  149.3366 C   0  0  0  0  0  0  0  0  0  0  0  0
  197.7429  181.9347  149.4297 C   0  0  0  0  0  0  0  0  0  0  0  0
  193.2901  187.0144  161.3824 H   0  0  0  0  0  0  0  0  0  0  0  0
  193.1550  184.8817  160.3720 H   0  0  0  0  0  0  0  0  0  0  0  0
  193.8690  183.1135  158.7943 H   0  0  0  0  0  0  0  0  0  0  0  0
  197.9028  184.6518  158.9156 H   0  0  0  0  0  0  0  0  0  0  0  0
  197.1741  186.4290  160.4949 H   0  0  0  0  0  0  0  0  0  0  0  0
  197.2013  182.1005  158.3110 H   0  0  0  0  0  0  0  0  0  0  0  0
  195.5758  181.9114  157.7030 H   0  0  0  0  0  0  0  0  0  0  0  0
  196.0807  183.7902  156.0216 H   0  0  0  0  0  0  0  0  0  0  0  0
  197.7434  183.7457  156.5459 H   0  0  0  0  0  0  0  0  0  0  0  0
  196.2187  183.0581  154.0194 H   0  0  0  0  0  0  0  0  0  0  0  0
  197.0799  178.2576  152.1596 H   0  0  0  0  0  0  0  0  0  0  0  0
  197.5054  176.8473  147.8141 H   0  0  0  0  0  0  0  0  0  0  0  0
  199.0109  174.9437  147.8558 H   0  0  0  0  0  0  0  0  0  0  0  0
  200.6497  174.5857  149.6994 H   0  0  0  0  0  0  0  0  0  0  0  0
  200.8241  176.2934  151.5293 H   0  0  0  0  0  0  0  0  0  0  0  0
  199.4636  178.3242  151.4592 H   0  0  0  0  0  0  0  0  0  0  0  0
  195.6158  178.6548  148.9048 H   0  0  0  0  0  0  0  0  0  0  0  0
  196.1589  180.2041  148.5506 H   0  0  0  0  0  0  0  0  0  0  0  0
  197.1058  184.1131  152.5825 H   0  0  0  0  0  0  0  0  0  0  0  0
  197.5293  185.1898  150.4146 H   0  0  0  0  0  0  0  0  0  0  0  0
  197.9307  183.8122  148.3829 H   0  0  0  0  0  0  0  0  0  0  0  0
  197.9720  181.3659  148.5414 H   0  0  0  0  0  0  0  0  0  0  0  0
  1  2  1  0
  1 33  1  0
  2  3  1  0
  2  7  2  0
  3  4  2  0
  3 34  1  0
  4  5  1  0
  4 35  1  0
  5  6  2  0
  5  8  1  0
  6  7  1  0
  6 36  1  0
  7 37  1  0
  8  9  1  0
  8 38  1  1
  8 39  1  0
  9 10  1  0
  9 40  1  6
  9 41  1  0
 10 11  2  0
 10 12  1  0
 12 13  1  0
 12 42  1  0
 13 14  1  0
 13 28  2  0
 14 15  2  0
 15 16  1  0
 15 43  1  0
 16 17  1  0
 16 27  2  0
 17 18  1  0
 17 24  1  0
 18 19  2  0
 18 23  1  0
 19 20  1  0
 19 44  1  0
 20 21  2  0
 20 45  1  0
 21 22  1  0
 21 46  1  0
 22 23  2  0
 22 47  1  0
 23 48  1  0
 24 25  1  0
 24 49  1  1
 24 50  1  0
 25 26  3  0
 27 28  1  0
 27 32  1  0
 28 29  1  0
 29 30  2  0
 29 51  1  0
 30 31  1  0
 30 52  1  0
 31 32  2  0
 31 53  1  0
 32 54  1  0
M  END
>  <s_epik_cmdline>  (1) 
J2VwaWtfcHl0aG9uJywgJy1waCcsICc3LjAwMDAwMCcsICctcGh0JywgJzIuMDAwMDAwJywgJy1tcycsICcxNicsICctdG4nLCAnOCcsICctbWEnLCAnMjAwJywgJy1pbWFlJywgJzxpbmZpbGUubWFlPicsICctb21hZScsICc8b3V0ZmlsZS5tYWU+Jw==

>  <s_epik_input>  (1) 
W1NIXWMxW2NIXVtjSF1jKFtjSF1bY0hdMSlbQ0gyXVtDSDJdQyg9TylbTkhdYyhjKGMyMylbY0hdW2NIXVtjSF1bY0hdMyluW2NIXWMyTihbQ0gyXUMjTiljNFtjSF1bY0hdW2NIXVtjSF1bY0hdNA==

>  <s_i_glide_gridfile>  (1) 
ATP-Grid

>  <s_lp_Force_Field>  (1) 
OPLS_2005

>  <s_lp_Variant>  (1) 
rxn502b____EMOL6884260____EMOL7515103____EMOL712348-2

>  <s_lp_label>  (1) 
2500_sdstereoexpander_1_neutralizer_1_epik_2_stereoizer_1

>  <s_m_source_file>  (1) 
ATP-VSW-LIGPREP-003-in.maegz

>  <s_sd_BIOSOLVEIT.INFINISEE\_QUERY\_NAME>  (1) 
Ref-Lig

>  <s_sd_BIOSOLVEIT.INFINISEE\_QUERY\_SMILES>  (1) 
S(c1nc2c(cc1C[NH2+]Cc3ccc(cc3)C[NH+](C)C)cccc2)Cc4ccccc4

>  <s_sd_BIOSOLVEIT.INFINISEE\_REACTION\_NAME>  (1) 
rxn502b

>  <s_sd_BIOSOLVEIT.INFINISEE\_REAGENT1\_NAME>  (1) 
EMOL6884260

>  <s_sd_BIOSOLVEIT.INFINISEE\_REAGENT1\_SMILES>  (1) 
Sc1ccc(cc1)CCC(=O)O

>  <s_sd_BIOSOLVEIT.INFINISEE\_REAGENT2\_NAME>  (1) 
EMOL7515103

>  <s_sd_BIOSOLVEIT.INFINISEE\_REAGENT2\_SMILES>  (1) 
Brc1c2c(c(nc1)N)cccc2

>  <s_sd_BIOSOLVEIT.INFINISEE\_REAGENT3\_NAME>  (1) 
EMOL712348

>  <s_sd_BIOSOLVEIT.INFINISEE\_REAGENT3\_SMILES>  (1) 
N#CCNc1ccccc1

>  <s_sd_BIOSOLVEIT.INFINISEE\_SPACE>  (1) 
eXplore_7tr_2022-12

>  <s_vsw_compound_code>  (1) 
79971

>  <s_vsw_variant>  (1) 
79971-2

>  <r_epik_Charging_Adjusted_Penalty>  (1) 
1.0221477730086499

>  <r_epik_Ionization_Penalty>  (1) 
1.0238

>  <r_epik_Ionization_Penalty_Charging>  (1) 
0

>  <r_epik_Ionization_Penalty_Neutral>  (1) 
1.0238

>  <r_epik_State_Penalty>  (1) 
1.0221

>  <r_i_docking_score>  (1) 
-3.58525470579908

>  <r_i_glide_ecoul>  (1) 
-1.02595198154449

>  <r_i_glide_eff_state_penalty>  (1) 
1.0221

>  <r_i_glide_einternal>  (1) 
4.3569827079772896

>  <r_i_glide_emodel>  (1) 
-50.604698427222601

>  <r_i_glide_energy>  (1) 
-40.9973608255386

>  <r_i_glide_erotb>  (1) 
0.72615246953733703

>  <r_i_glide_esite>  (1) 
-0.090862678475190806

>  <r_i_glide_evdw>  (1) 
-39.971408843994098

>  <r_i_glide_gscore>  (1) 
-4.6073547057990796

>  <r_i_glide_hbond>  (1) 
-0.029441385306880601

>  <r_i_glide_ligand_efficiency>  (1) 
-0.112039209556221

>  <r_i_glide_ligand_efficiency_ln>  (1) 
-0.80283625898059896

>  <r_i_glide_ligand_efficiency_sa>  (1) 
-0.35570231781153899

>  <r_i_glide_lipo>  (1) 
-2.2849555893296198

>  <r_i_glide_metal>  (1) 
-0

>  <r_i_glide_rewards>  (1) 
-0.77578428279335199

>  <r_lp_Energy>  (1) 
30.509195999999999

>  <r_qp_ACxDN^.5/SA>  (1) 
0.0113954

>  <r_qp_CIQPlogS>  (1) 
-8.0009999999999994

>  <r_qp_EA(eV)>  (1) 
1.337

>  <r_qp_FISA>  (1) 
118.26600000000001

>  <r_qp_FOSA>  (1) 
115.488

>  <r_qp_IP(eV)>  (1) 
8.3780000000000001

>  <r_qp_Jm>  (1) 
0.0037268212624770002

>  <r_qp_PISA>  (1) 
410.80399999999997

>  <r_qp_PSA>  (1) 
70.971000000000004

>  <r_qp_PercentHumanOralAbsorption>  (1) 
100

>  <r_qp_QPPCaco>  (1) 
748.83799999999997

>  <r_qp_QPPMDCK>  (1) 
789.63300000000004

>  <r_qp_QPlogBB>  (1) 
-0.97799999999999998

>  <r_qp_QPlogHERG>  (1) 
-6.2789999999999999

>  <r_qp_QPlogKhsa>  (1) 
0.65200000000000002

>  <r_qp_QPlogKp>  (1) 
-1.3879999999999999

>  <r_qp_QPlogPC16>  (1) 
15.124000000000001

>  <r_qp_QPlogPo/w>  (1) 
4.9109999999999996

>  <r_qp_QPlogPoct>  (1) 
22.416

>  <r_qp_QPlogPw>  (1) 
11.601000000000001

>  <r_qp_QPlogS>  (1) 
-6.6829999999999998

>  <r_qp_QPpolrz>  (1) 
45.195

>  <r_qp_SASA>  (1) 
706.41399999999999

>  <r_qp_SAamideO>  (1) 
0

>  <r_qp_SAfluorine>  (1) 
0

>  <r_qp_WPSA>  (1) 
61.856000000000002

>  <r_qp_accptHB>  (1) 
6

>  <r_qp_dip^2/V>  (1) 
0.082264799999999999

>  <r_qp_dipole>  (1) 
10.458

>  <r_qp_donorHB>  (1) 
1.8

>  <r_qp_glob>  (1) 
0.82772979999999996

>  <r_qp_mol_MW>  (1) 
438.54599999999999

>  <r_qp_volume>  (1) 
1329.4559999999999

>  <r_sd_BIOSOLVEIT.INFINISEE\_FTREES\_SIMILARITY>  (1) 
0.91400000000000003

>  <r_sd_BIOSOLVEIT.LOGP>  (1) 
6.1366800000000001

>  <r_sd_BIOSOLVEIT.MOLECULAR\_WEIGHT>  (1) 
438.55200000000002

>  <r_sd_BIOSOLVEIT.TPSA>  (1) 
69.019999999999996

>  <i_epik_Tot_Q>  (1) 
0

>  <i_epik_Tot_abs_Q>  (1) 
0

>  <i_f3d_flags>  (1) 
0

>  <i_i_glide_confnum>  (1) 
5

>  <i_i_glide_lignum>  (1) 
1085

>  <i_i_glide_posenum>  (1) 
13

>  <i_i_glide_rotatable_bonds>  (1) 
9

>  <i_lp_mmshare_version>  (1) 
65135

>  <i_m_ct_format>  (1) 
2

>  <i_m_source_file_index>  (1) 
2500

>  <i_qp_#NandO>  (1) 
5

>  <i_qp_#acid>  (1) 
0

>  <i_qp_#amide>  (1) 
0

>  <i_qp_#amidine>  (1) 
0

>  <i_qp_#amine>  (1) 
0

>  <i_qp_#in34>  (1) 
0

>  <i_qp_#in56>  (1) 
22

>  <i_qp_#metab>  (1) 
7

>  <i_qp_#nonHatm>  (1) 
32

>  <i_qp_#noncon>  (1) 
0

>  <i_qp_#ringatoms>  (1) 
22

>  <i_qp_#rotor>  (1) 
9

>  <i_qp_#rtvFG>  (1) 
1

>  <i_qp_#stars>  (1) 
1

>  <i_qp_CNS>  (1) 
-1

>  <i_qp_HumanOralAbsorption>  (1) 
1

>  <i_qp_RuleOfFive>  (1) 
0

>  <i_qp_RuleOfThree>  (1) 
2

>  <i_sd_BIOSOLVEIT.INFINISEE\_RESULT\_RANK>  (1) 
30598

>  <i_sd_version>  (1) 
0

>  <b_lp_Chiralities_Consistent>  (1) 
1

>  <b_sd_chiral_flag>  (1) 
0

>  <canonical_id>  (1) 
ATP-HTVS-0009DAEDE04F

>  <compound_code>  (1) 
79971

>  <title>  (1) 
rxn502b____EMOL6884260____EMOL7515103____EMOL712348

>  <variant>  (1) 
79971-2

>  <source_file>  (1) 
运行/运行/ATP-VSW/ATP-VSW-DOCK_HTVS_1-003_lib/ATP-VSW-DOCK_HTVS_1-003_lib.mae

>  <canonical_smiles>  (1) 
N#CCN(c1ccccc1)c1cnc(NC(=O)CCc2ccc(S)cc2)c2ccccc12

>  <scaffold>  (1) 
O=C(CCc1ccccc1)Nc1ncc(Nc2ccccc2)c2ccccc12

>  <molecular_formula>  (1) 
C26H22N4OS

$$$$
ATP-HTVS-0015C54A99C8
     RDKit          3D

 59 62  0  0  0  0  0  0  0  0999 V2000
  199.1751  181.8562  149.0738 F   0  0  0  0  0  0  0  0  0  0  0  0
  198.4539  181.1978  150.0173 C   0  0  0  0  0  0  0  0  0  0  0  0
  197.7776  181.9256  151.0198 C   0  0  0  0  0  0  0  0  0  0  0  0
  196.9777  181.2299  151.9677 C   0  0  0  0  0  0  0  0  0  0  0  0
  196.3447  181.9031  152.9502 F   0  0  0  0  0  0  0  0  0  0  0  0
  196.8531  179.8271  151.9031 C   0  0  0  0  0  0  0  0  0  0  0  0
  197.5720  179.1133  150.9356 C   0  0  0  0  0  0  0  0  0  0  0  0
  198.3647  179.7885  149.9796 C   0  0  0  0  0  0  0  0  0  0  0  0
  197.9184  183.4537  151.0289 C   0  0  2  0  0  0  0  0  0  0  0  0
  197.9754  184.0627  152.3542 N   0  0  0  0  0  0  0  0  0  0  0  0
  198.5801  185.3151  152.5615 C   0  0  0  0  0  0  0  0  0  0  0  0
  198.5185  185.9505  153.8321 C   0  0  0  0  0  0  0  0  0  0  0  0
  197.8639  185.3584  154.9611 N   0  0  0  0  0  0  0  0  0  0  0  0
  198.0806  184.1445  155.5085 C   0  0  0  0  0  0  0  0  0  0  0  0
  198.7177  183.2330  154.9821 O   0  0  0  0  0  0  0  0  0  0  0  0
  197.4810  183.9553  156.8704 C   0  0  0  0  0  0  0  0  0  0  0  0
  196.6949  182.8130  157.2152 C   0  0  0  0  0  0  0  0  0  0  0  0
  196.2231  182.6648  158.5348 C   0  0  0  0  0  0  0  0  0  0  0  0
  196.5475  183.6153  159.5233 C   0  0  0  0  0  0  0  0  0  0  0  0
  197.3453  184.7261  159.1914 C   0  0  0  0  0  0  0  0  0  0  0  0
  197.8067  184.8924  157.8776 C   0  0  0  0  0  0  0  0  0  0  0  0
  196.3725  181.6999  156.2232 C   0  0  1  0  0  0  0  0  0  0  0  0
  197.5268  180.8430  155.8598 N   0  0  1  0  0  0  0  0  0  0  0  0
  198.4783  180.5399  156.9621 C   0  0  2  0  0  0  0  0  0  0  0  0
  197.0985  179.6348  155.1362 C   0  0  2  0  0  0  0  0  0  0  0  0
  199.0748  187.2584  153.9645 C   0  0  0  0  0  0  0  0  0  0  0  0
  199.7008  187.8499  152.8308 C   0  0  0  0  0  0  0  0  0  0  0  0
  199.8161  187.2116  151.6556 N   0  0  0  0  0  0  0  0  0  0  0  0
  199.2687  185.9987  151.5203 C   0  0  0  0  0  0  0  0  0  0  0  0
  200.2264  189.1497  152.9221 C   0  0  0  0  0  0  0  0  0  0  0  0
  200.1551  189.8721  154.1212 C   0  0  0  0  0  0  0  0  0  0  0  0
  199.5491  189.2912  155.2455 C   0  0  0  0  0  0  0  0  0  0  0  0
  199.0083  187.9904  155.1742 C   0  0  0  0  0  0  0  0  0  0  0  0
  196.8320  184.0993  150.2723 C   0  0  0  0  0  0  0  0  0  0  0  0
  195.9715  184.6186  149.6901 N   0  0  0  0  0  0  0  0  0  0  0  0
  196.2226  179.3026  152.6200 H   0  0  0  0  0  0  0  0  0  0  0  0
  197.5344  178.0355  150.9157 H   0  0  0  0  0  0  0  0  0  0  0  0
  198.8853  179.2381  149.2025 H   0  0  0  0  0  0  0  0  0  0  0  0
  198.8631  183.6319  150.5116 H   0  0  0  0  0  0  0  0  0  0  0  0
  197.2497  183.7814  153.0068 H   0  0  0  0  0  0  0  0  0  0  0  0
  197.3622  185.9958  155.5566 H   0  0  0  0  0  0  0  0  0  0  0  0
  195.6336  181.7966  158.8020 H   0  0  0  0  0  0  0  0  0  0  0  0
  196.2012  183.4791  160.5336 H   0  0  0  0  0  0  0  0  0  0  0  0
  197.6298  185.4406  159.9496 H   0  0  0  0  0  0  0  0  0  0  0  0
  198.4618  185.7236  157.6469 H   0  0  0  0  0  0  0  0  0  0  0  0
  195.5847  181.0637  156.6267 H   0  0  0  0  0  0  0  0  0  0  0  0
  195.9654  182.1470  155.3158 H   0  0  0  0  0  0  0  0  0  0  0  0
  197.9667  179.9408  157.7170 H   0  0  0  0  0  0  0  0  0  0  0  0
  198.8805  181.4498  157.4251 H   0  0  0  0  0  0  0  0  0  0  0  0
  199.3380  179.9775  156.5848 H   0  0  0  0  0  0  0  0  0  0  0  0
  196.5955  178.8956  155.7524 H   0  0  0  0  0  0  0  0  0  0  0  0
  197.9552  179.1163  154.7175 H   0  0  0  0  0  0  0  0  0  0  0  0
  196.4058  179.9245  154.3735 H   0  0  0  0  0  0  0  0  0  0  0  0
  199.3822  185.5853  150.5311 H   0  0  0  0  0  0  0  0  0  0  0  0
  200.6879  189.5794  152.0448 H   0  0  0  0  0  0  0  0  0  0  0  0
  200.5645  190.8711  154.1632 H   0  0  0  0  0  0  0  0  0  0  0  0
  199.4840  189.8535  156.1632 H   0  0  0  0  0  0  0  0  0  0  0  0
  198.5353  187.5888  156.0567 H   0  0  0  0  0  0  0  0  0  0  0  0
  198.0696  181.4152  155.2288 H   0  0  0  0  0  0  0  0  0  0  0  0
  1  2  1  0
  2  3  1  0
  2  8  2  0
  3  4  2  0
  3  9  1  0
  4  5  1  0
  4  6  1  0
  6  7  2  0
  6 36  1  0
  7  8  1  0
  7 37  1  0
  8 38  1  0
  9 10  1  0
  9 34  1  0
  9 39  1  6
 10 11  1  0
 10 40  1  0
 11 12  2  0
 11 29  1  0
 12 13  1  0
 12 26  1  0
 13 14  1  0
 13 41  1  0
 14 15  2  0
 14 16  1  0
 16 17  1  0
 16 21  2  0
 17 18  2  0
 17 22  1  0
 18 19  1  0
 18 42  1  0
 19 20  2  0
 19 43  1  0
 20 21  1  0
 20 44  1  0
 21 45  1  0
 22 23  1  0
 22 46  1  1
 22 47  1  0
 23 24  1  0
 23 25  1  0
 23 59  1  6
 24 48  1  1
 24 49  1  0
 24 50  1  0
 25 51  1  1
 25 52  1  0
 25 53  1  0
 26 27  1  0
 26 33  2  0
 27 28  1  0
 27 30  2  0
 28 29  2  0
 29 54  1  0
 30 31  1  0
 30 55  1  0
 31 32  2  0
 31 56  1  0
 32 33  1  0
 32 57  1  0
 33 58  1  0
 34 35  3  0
M  CHG  1  23   1
M  END
>  <s_epik_cmdline>  (2) 
J2VwaWtfcHl0aG9uJywgJy1waCcsICc3LjAwMDAwMCcsICctcGh0JywgJzIuMDAwMDAwJywgJy1tcycsICcxNicsICctdG4nLCAnOCcsICctbWEnLCAnMjAwJywgJy1pbWFlJywgJzxpbmZpbGUubWFlPicsICctb21hZScsICc8b3V0ZmlsZS5tYWU+Jw==

>  <s_epik_input>  (2) 
W2NIXTFbY0hdW2NIXWMoRiljKGMxRilbQ0BASF0oQyNOKVtOSF1jKFtjSF1uYyhjMjMpW2NIXVtjSF1bY0hdW2NIXTMpYzJbTkhdQyg9TyljNGMoW0NIMl1OKFtDSDNdKVtDSDNdKVtjSF1bY0hdW2NIXVtjSF00

>  <s_i_glide_gridfile>  (2) 
ATP-Grid

>  <s_lp_Force_Field>  (2) 
OPLS_2005

>  <s_lp_Variant>  (2) 
rxn502b____EMOL5415347____EMOL13728749____EMOL331212734-2

>  <s_lp_label>  (2) 
2583_sdstereoexpander_2_neutralizer_1_epik_1_stereoizer_1

>  <s_m_source_file>  (2) 
ATP-VSW-LIGPREP-001-in.maegz

>  <s_sd_BIOSOLVEIT.INFINISEE\_QUERY\_NAME>  (2) 
Ref-Lig

>  <s_sd_BIOSOLVEIT.INFINISEE\_QUERY\_SMILES>  (2) 
S(c1nc2c(cc1C[NH2+]Cc3ccc(cc3)C[NH+](C)C)cccc2)Cc4ccccc4

>  <s_sd_BIOSOLVEIT.INFINISEE\_REACTION\_NAME>  (2) 
rxn502b

>  <s_sd_BIOSOLVEIT.INFINISEE\_REAGENT1\_NAME>  (2) 
EMOL5415347

>  <s_sd_BIOSOLVEIT.INFINISEE\_REAGENT1\_SMILES>  (2) 
O=C(O)c1c(cccc1)CN(C)C

>  <s_sd_BIOSOLVEIT.INFINISEE\_REAGENT2\_NAME>  (2) 
EMOL13728749

>  <s_sd_BIOSOLVEIT.INFINISEE\_REAGENT2\_SMILES>  (2) 
Brc1c(N)c2c(nc1)cccc2

>  <s_sd_BIOSOLVEIT.INFINISEE\_REAGENT3\_NAME>  (2) 
EMOL331212734

>  <s_sd_BIOSOLVEIT.INFINISEE\_REAGENT3\_SMILES>  (2) 
Fc1c(c(F)ccc1)C(N)C#N

>  <s_sd_BIOSOLVEIT.INFINISEE\_SPACE>  (2) 
eXplore_7tr_2022-12

>  <s_vsw_compound_code>  (2) 
82625

>  <s_vsw_variant>  (2) 
82625-2

>  <r_epik_Charging_Adjusted_Penalty>  (2) 
0.1357585829713

>  <r_epik_Ionization_Penalty>  (2) 
0.074700000000000003

>  <r_epik_Ionization_Penalty_Charging>  (2) 
0.060600000000000001

>  <r_epik_Ionization_Penalty_Neutral>  (2) 
0.0141

>  <r_epik_State_Penalty>  (2) 
0.0751

>  <r_i_docking_score>  (2) 
-3.8406671072447498

>  <r_i_glide_ecoul>  (2) 
-7.4210081100463903

>  <r_i_glide_eff_state_penalty>  (2) 
0.0751

>  <r_i_glide_einternal>  (2) 
3.6317124366760298

>  <r_i_glide_emodel>  (2) 
-54.654182992386403

>  <r_i_glide_energy>  (2) 
-41.409499168396003

>  <r_i_glide_erotb>  (2) 
0.63397399300705004

>  <r_i_glide_esite>  (2) 
-0.131001042677486

>  <r_i_glide_evdw>  (2) 
-33.988491058349602

>  <r_i_glide_gscore>  (2) 
-3.9157671072447502

>  <r_i_glide_hbond>  (2) 
0

>  <r_i_glide_ligand_efficiency>  (2) 
-0.10973334592127899

>  <r_i_glide_ligand_efficiency_ln>  (2) 
-0.84311166905411095

>  <r_i_glide_ligand_efficiency_sa>  (2) 
-0.35894505052197301

>  <r_i_glide_lipo>  (2) 
-0.98649478535776403

>  <r_i_glide_metal>  (2) 
-0

>  <r_i_glide_rewards>  (2) 
-0.61966950279211097

>  <r_lp_Energy>  (2) 
37.887850999999998

>  <r_qp_ACxDN^.5/SA>  (2) 
0.01542

>  <r_qp_CIQPlogS>  (2) 
-6.8230000000000004

>  <r_qp_EA(eV)>  (2) 
1.153

>  <r_qp_FISA>  (2) 
96.358999999999995

>  <r_qp_FOSA>  (2) 
114.158

>  <r_qp_IP(eV)>  (2) 
8.6010000000000009

>  <r_qp_Jm>  (2) 
0.00276061914002945

>  <r_qp_PISA>  (2) 
480.39800000000002

>  <r_qp_PSA>  (2) 
78.170000000000002

>  <r_qp_PercentHumanOralAbsorption>  (2) 
95.201999999999998

>  <r_qp_QPPCaco>  (2) 
301.32100000000003

>  <r_qp_QPPMDCK>  (2) 
256.755

>  <r_qp_QPlogBB>  (2) 
-0.36899999999999999

>  <r_qp_QPlogHERG>  (2) 
-7.4500000000000002

>  <r_qp_QPlogKhsa>  (2) 
0.47099999999999997

>  <r_qp_QPlogKp>  (2) 
-2.8980000000000001

>  <r_qp_QPlogPC16>  (2) 
15.345000000000001

>  <r_qp_QPlogPo/w>  (2) 
4.0800000000000001

>  <r_qp_QPlogPoct>  (2) 
24.128

>  <r_qp_QPlogPw>  (2) 
14.467000000000001

>  <r_qp_QPlogS>  (2) 
-5.335

>  <r_qp_QPpolrz>  (2) 
48.899999999999999

>  <r_qp_SASA>  (2) 
733.70299999999997

>  <r_qp_SAamideO>  (2) 
0

>  <r_qp_SAfluorine>  (2) 
42.789000000000001

>  <r_qp_WPSA>  (2) 
42.789000000000001

>  <r_qp_accptHB>  (2) 
8

>  <r_qp_dip^2/V>  (2) 
0.017178499999999999

>  <r_qp_dipole>  (2) 
4.8849999999999998

>  <r_qp_donorHB>  (2) 
2

>  <r_qp_glob>  (2) 
0.82071780000000005

>  <r_qp_mol_MW>  (2) 
471.50799999999998

>  <r_qp_volume>  (2) 
1389.3879999999999

>  <r_sd_BIOSOLVEIT.INFINISEE\_FTREES\_SIMILARITY>  (2) 
0.91100000000000003

>  <r_sd_BIOSOLVEIT.LOGP>  (2) 
4.0865799999999997

>  <r_sd_BIOSOLVEIT.MOLECULAR\_WEIGHT>  (2) 
472.517

>  <r_sd_BIOSOLVEIT.TPSA>  (2) 
82.25

>  <i_epik_Tot_Q>  (2) 
1

>  <i_epik_Tot_abs_Q>  (2) 
1

>  <i_f3d_flags>  (2) 
0

>  <i_i_glide_confnum>  (2) 
10

>  <i_i_glide_lignum>  (2) 
1061

>  <i_i_glide_posenum>  (2) 
14

>  <i_i_glide_rotatable_bonds>  (2) 
8

>  <i_lp_mmshare_version>  (2) 
65135

>  <i_m_ct_format>  (2) 
2

>  <i_m_source_file_index>  (2) 
2583

>  <i_qp_#NandO>  (2) 
6

>  <i_qp_#acid>  (2) 
0

>  <i_qp_#amide>  (2) 
0

>  <i_qp_#amidine>  (2) 
0

>  <i_qp_#amine>  (2) 
1

>  <i_qp_#in34>  (2) 
0

>  <i_qp_#in56>  (2) 
22

>  <i_qp_#metab>  (2) 
7

>  <i_qp_#nonHatm>  (2) 
35

>  <i_qp_#noncon>  (2) 
0

>  <i_qp_#ringatoms>  (2) 
22

>  <i_qp_#rotor>  (2) 
8

>  <i_qp_#rtvFG>  (2) 
0

>  <i_qp_#stars>  (2) 
1

>  <i_qp_CNS>  (2) 
1

>  <i_qp_HumanOralAbsorption>  (2) 
3

>  <i_qp_RuleOfFive>  (2) 
0

>  <i_qp_RuleOfThree>  (2) 
1

>  <i_sd_BIOSOLVEIT.INFINISEE\_RESULT\_RANK>  (2) 
39538

>  <i_sd_version>  (2) 
0

>  <b_lp_Chiralities_Consistent>  (2) 
1

>  <b_sd_chiral_flag>  (2) 
0

>  <canonical_id>  (2) 
ATP-HTVS-0015C54A99C8

>  <compound_code>  (2) 
82625

>  <title>  (2) 
rxn502b____EMOL5415347____EMOL13728749____EMOL331212734

>  <variant>  (2) 
82625-2

>  <source_file>  (2) 
运行/运行/ATP-VSW/ATP-VSW-DOCK_HTVS_1-001_lib/ATP-VSW-DOCK_HTVS_1-001_lib

>  <canonical_smiles>  (2) 
C[NH+](C)Cc1ccccc1C(=O)Nc1c(N[C@H](C#N)c2c(F)cccc2F)cnc2ccccc12

>  <scaffold>  (2) 
O=C(Nc1c(NCc2ccccc2)cnc2ccccc12)c1ccccc1

>  <molecular_formula>  (2) 
C27H24F2N5O+

$$$$
ATP-HTVS-003E4D952AAC
     RDKit          3D

 63 66  0  0  0  0  0  0  0  0999 V2000
  198.5091  183.8726  154.7251 O   0  0  0  0  0  0  0  0  0  0  0  0
  197.9029  182.8676  155.0905 C   0  0  0  0  0  0  0  0  0  0  0  0
  197.5597  182.5784  156.3546 N   0  0  0  0  0  0  0  0  0  0  0  0
  197.6698  183.4385  157.4845 C   0  0  0  0  0  0  0  0  0  0  0  0
  198.9039  183.9902  157.9154 C   0  0  0  0  0  0  0  0  0  0  0  0
  200.1022  183.6977  157.2302 N   0  0  0  0  0  0  0  0  0  0  0  0
  201.3950  184.3049  157.5805 C   0  0  1  0  0  0  0  0  0  0  0  0
  201.9093  183.9190  158.9259 C   0  0  0  0  0  0  0  0  0  0  0  0
  202.4407  184.9001  159.7950 C   0  0  0  0  0  0  0  0  0  0  0  0
  202.9308  184.5670  161.0750 C   0  0  0  0  0  0  0  0  0  0  0  0
  202.8981  183.2259  161.5079 C   0  0  0  0  0  0  0  0  0  0  0  0
  202.3643  182.2315  160.6677 C   0  0  0  0  0  0  0  0  0  0  0  0
  201.8698  182.5832  159.3972 C   0  0  0  0  0  0  0  0  0  0  0  0
  202.5225  183.9234  156.5803 C   0  0  0  0  0  0  0  0  0  0  0  0
  203.3553  183.0333  156.7520 O   0  0  0  0  0  0  0  0  0  0  0  0
  202.5723  184.7124  155.2797 C   0  0  2  0  0  0  0  0  0  0  0  0
  198.8704  184.8143  159.0639 C   0  0  0  0  0  0  0  0  0  0  0  0
  197.7463  185.1079  159.7424 N   0  0  0  0  0  0  0  0  0  0  0  0
  196.5893  184.5141  159.3903 C   0  0  0  0  0  0  0  0  0  0  0  0
  196.5099  183.6442  158.2709 C   0  0  0  0  0  0  0  0  0  0  0  0
  195.2739  183.0361  157.9471 C   0  0  0  0  0  0  0  0  0  0  0  0
  194.1093  183.3443  158.6598 C   0  0  0  0  0  0  0  0  0  0  0  0
  194.1798  184.2344  159.7387 C   0  0  0  0  0  0  0  0  0  0  0  0
  195.4153  184.7947  160.1222 C   0  0  0  0  0  0  0  0  0  0  0  0
  197.3714  181.9287  154.0643 C   0  0  0  0  0  0  0  0  0  0  0  0
  197.2886  180.5147  154.2571 C   0  0  0  0  0  0  0  0  0  0  0  0
  196.8049  179.7775  153.1551 C   0  0  0  0  0  0  0  0  0  0  0  0
  196.4032  180.3380  151.9370 C   0  0  0  0  0  0  0  0  0  0  0  0
  196.5079  181.7154  151.7552 C   0  0  0  0  0  0  0  0  0  0  0  0
  196.9824  182.5022  152.8154 C   0  0  0  0  0  0  0  0  0  0  0  0
  197.7753  179.7395  155.5155 C   0  0  1  0  0  0  0  0  0  0  0  0
  199.2636  179.4610  155.5255 N   0  0  2  0  0  0  0  0  0  0  0  0
  199.6387  178.5522  156.6281 C   0  0  2  0  0  0  0  0  0  0  0  0
  200.1591  180.6476  155.5597 C   0  0  2  0  0  0  0  0  0  0  0  0
  196.9009  181.8169  156.4978 H   0  0  0  0  0  0  0  0  0  0  0  0
  200.0341  183.3489  156.2838 H   0  0  0  0  0  0  0  0  0  0  0  0
  201.2508  185.3822  157.5434 H   0  0  0  0  0  0  0  0  0  0  0  0
  202.4702  185.9323  159.4749 H   0  0  0  0  0  0  0  0  0  0  0  0
  203.3315  185.3401  161.7166 H   0  0  0  0  0  0  0  0  0  0  0  0
  203.2792  182.9632  162.4856 H   0  0  0  0  0  0  0  0  0  0  0  0
  202.3471  181.1959  160.9856 H   0  0  0  0  0  0  0  0  0  0  0  0
  201.4621  181.8140  158.7606 H   0  0  0  0  0  0  0  0  0  0  0  0
  201.5684  184.9771  154.9433 H   0  0  0  0  0  0  0  0  0  0  0  0
  203.0509  184.0953  154.5197 H   0  0  0  0  0  0  0  0  0  0  0  0
  203.1687  185.6156  155.4147 H   0  0  0  0  0  0  0  0  0  0  0  0
  199.7462  185.3211  159.4548 H   0  0  0  0  0  0  0  0  0  0  0  0
  195.1604  182.3751  157.0985 H   0  0  0  0  0  0  0  0  0  0  0  0
  193.1717  182.9167  158.3360 H   0  0  0  0  0  0  0  0  0  0  0  0
  193.2767  184.4826  160.2812 H   0  0  0  0  0  0  0  0  0  0  0  0
  195.4751  185.4666  160.9569 H   0  0  0  0  0  0  0  0  0  0  0  0
  196.7550  178.7395  153.2378 H   0  0  0  0  0  0  0  0  0  0  0  0
  195.9877  179.6972  151.1542 H   0  0  0  0  0  0  0  0  0  0  0  0
  196.2289  182.1681  150.8124 H   0  0  0  0  0  0  0  0  0  0  0  0
  197.1094  183.5509  152.6477 H   0  0  0  0  0  0  0  0  0  0  0  0
  197.4231  180.1269  156.4666 H   0  0  0  0  0  0  0  0  0  0  0  0
  197.2858  178.7455  155.4357 H   0  0  0  0  0  0  0  0  0  0  0  0
  199.4046  179.0075  157.5971 H   0  0  0  0  0  0  0  0  0  0  0  0
  200.7167  178.3692  156.6086 H   0  0  0  0  0  0  0  0  0  0  0  0
  199.1316  177.5880  156.5462 H   0  0  0  0  0  0  0  0  0  0  0  0
  199.8792  181.2187  156.4597 H   0  0  0  0  0  0  0  0  0  0  0  0
  200.0285  181.2671  154.6678 H   0  0  0  0  0  0  0  0  0  0  0  0
  201.2187  180.4044  155.6795 H   0  0  0  0  0  0  0  0  0  0  0  0
  199.4857  178.9745  154.6623 H   0  0  0  0  0  0  0  0  0  0  0  0
  1  2  2  0
  2  3  1  0
  2 25  1  0
  3  4  1  0
  3 35  1  0
  4  5  2  0
  4 20  1  0
  5  6  1  0
  5 17  1  0
  6  7  1  0
  6 36  1  0
  7  8  1  0
  7 14  1  0
  7 37  1  1
  8  9  2  0
  8 13  1  0
  9 10  1  0
  9 38  1  0
 10 11  2  0
 10 39  1  0
 11 12  1  0
 11 40  1  0
 12 13  2  0
 12 41  1  0
 13 42  1  0
 14 15  2  0
 14 16  1  0
 16 43  1  6
 16 44  1  0
 16 45  1  0
 17 18  2  0
 17 46  1  0
 18 19  1  0
 19 20  1  0
 19 24  2  0
 20 21  2  0
 21 22  1  0
 21 47  1  0
 22 23  2  0
 22 48  1  0
 23 24  1  0
 23 49  1  0
 24 50  1  0
 25 26  1  0
 25 30  2  0
 26 27  2  0
 26 31  1  0
 27 28  1  0
 27 51  1  0
 28 29  2  0
 28 52  1  0
 29 30  1  0
 29 53  1  0
 30 54  1  0
 31 32  1  0
 31 55  1  1
 31 56  1  0
 32 33  1  0
 32 34  1  0
 32 63  1  6
 33 57  1  1
 33 58  1  0
 33 59  1  0
 34 60  1  1
 34 61  1  0
 34 62  1  0
M  CHG  1  32   1
M  END
>  <s_epik_cmdline>  (3) 
J2VwaWtfcHl0aG9uJywgJy1waCcsICc3LjAwMDAwMCcsICctcGh0JywgJzIuMDAwMDAwJywgJy1tcycsICcxNicsICctdG4nLCAnOCcsICctbWEnLCAnMjAwJywgJy1pbWFlJywgJzxpbmZpbGUubWFlPicsICctb21hZScsICc8b3V0ZmlsZS5tYWU+Jw==

>  <s_epik_input>  (3) 
W2NIXTFbY0hdW2NIXVtjSF1jKFtDSDJdTihbQ0gzXSlbQ0gzXSljMUMoPU8pW05IXWMoYyhjMjMpW2NIXVtjSF1bY0hdW2NIXTMpYyhbY0hdbjIpW05IXVtDQEhdKEMoPU8pW0NIM10pYzRbY0hdW2NIXVtjSF1bY0hdW2NIXTQ=

>  <s_i_glide_gridfile>  (3) 
ATP-Grid

>  <s_lp_Force_Field>  (3) 
OPLS_2005

>  <s_lp_Variant>  (3) 
rxn502b____EMOL5415347____EMOL13728749____EMOL725587-2

>  <s_lp_label>  (3) 
2404_sdstereoexpander_2_neutralizer_1_epik_1_stereoizer_1

>  <s_m_source_file>  (3) 
ATP-VSW-LIGPREP-003-in.maegz

>  <s_sd_BIOSOLVEIT.INFINISEE\_QUERY\_NAME>  (3) 
Ref-Lig

>  <s_sd_BIOSOLVEIT.INFINISEE\_QUERY\_SMILES>  (3) 
S(c1nc2c(cc1C[NH2+]Cc3ccc(cc3)C[NH+](C)C)cccc2)Cc4ccccc4

>  <s_sd_BIOSOLVEIT.INFINISEE\_REACTION\_NAME>  (3) 
rxn502b

>  <s_sd_BIOSOLVEIT.INFINISEE\_REAGENT1\_NAME>  (3) 
EMOL5415347

>  <s_sd_BIOSOLVEIT.INFINISEE\_REAGENT1\_SMILES>  (3) 
O=C(O)c1c(cccc1)CN(C)C

>  <s_sd_BIOSOLVEIT.INFINISEE\_REAGENT2\_NAME>  (3) 
EMOL13728749

>  <s_sd_BIOSOLVEIT.INFINISEE\_REAGENT2\_SMILES>  (3) 
Brc1c(N)c2c(nc1)cccc2

>  <s_sd_BIOSOLVEIT.INFINISEE\_REAGENT3\_NAME>  (3) 
EMOL725587

>  <s_sd_BIOSOLVEIT.INFINISEE\_REAGENT3\_SMILES>  (3) 
O=C(C(N)c1ccccc1)C

>  <s_sd_BIOSOLVEIT.INFINISEE\_SPACE>  (3) 
eXplore_7tr_2022-12

>  <s_vsw_compound_code>  (3) 
76899

>  <s_vsw_variant>  (3) 
76899-2

>  <r_epik_Charging_Adjusted_Penalty>  (3) 
0.15828274300143799

>  <r_epik_Ionization_Penalty>  (3) 
0.0974

>  <r_epik_Ionization_Penalty_Charging>  (3) 
0.060600000000000001

>  <r_epik_Ionization_Penalty_Neutral>  (3) 
0.036700000000000003

>  <r_epik_State_Penalty>  (3) 
0.097600000000000006

>  <r_i_docking_score>  (3) 
-4.1361538703750202

>  <r_i_glide_ecoul>  (3) 
-7.3654327392578098

>  <r_i_glide_eff_state_penalty>  (3) 
0.097600000000000006

>  <r_i_glide_einternal>  (3) 
2.8103437423706099

>  <r_i_glide_emodel>  (3) 
-54.9996939825513

>  <r_i_glide_energy>  (3) 
-41.914703369140597

>  <r_i_glide_erotb>  (3) 
0.68308159863740103

>  <r_i_glide_esite>  (3) 
-0.079728061207421499

>  <r_i_glide_evdw>  (3) 
-34.549270629882798

>  <r_i_glide_gscore>  (3) 
-4.2337538703750202

>  <r_i_glide_hbond>  (3) 
0

>  <r_i_glide_ligand_efficiency>  (3) 
-0.121651584422795

>  <r_i_glide_ligand_efficiency_ln>  (3) 
-0.91379240515220905

>  <r_i_glide_ligand_efficiency_sa>  (3) 
-0.39410390807693901

>  <r_i_glide_lipo>  (3) 
-1.4631616472403699

>  <r_i_glide_metal>  (3) 
-0

>  <r_i_glide_rewards>  (3) 
-0.54166731818181701

>  <r_lp_Energy>  (3) 
40.798892000000002

>  <r_lp_tautomer_probability>  (3) 
0.99999996999999996

>  <r_qp_ACxDN^.5/SA>  (3) 
0.0152812

>  <r_qp_CIQPlogS>  (3) 
-5.2510000000000003

>  <r_qp_EA(eV)>  (3) 
0.94799999999999995

>  <r_qp_FISA>  (3) 
58.014000000000003

>  <r_qp_FOSA>  (3) 
236.42400000000001

>  <r_qp_IP(eV)>  (3) 
8.2309999999999999

>  <r_qp_Jm>  (3) 
0.042707702416422903

>  <r_qp_PISA>  (3) 
492.202

>  <r_qp_PSA>  (3) 
78.378

>  <r_qp_PercentHumanOralAbsorption>  (3) 
100

>  <r_qp_QPPCaco>  (3) 
696.07500000000005

>  <r_qp_QPPMDCK>  (3) 
369.964

>  <r_qp_QPlogBB>  (3) 
-0.14099999999999999

>  <r_qp_QPlogHERG>  (3) 
-8.016

>  <r_qp_QPlogKhsa>  (3) 
0.52000000000000002

>  <r_qp_QPlogKp>  (3) 
-2.149

>  <r_qp_QPlogPC16>  (3) 
16.148

>  <r_qp_QPlogPo/w>  (3) 
4.3710000000000004

>  <r_qp_QPlogPoct>  (3) 
24.992999999999999

>  <r_qp_QPlogPw>  (3) 
14.891999999999999

>  <r_qp_QPlogS>  (3) 
-4.8760000000000003

>  <r_qp_QPpolrz>  (3) 
51.621000000000002

>  <r_qp_SASA>  (3) 
786.63999999999999

>  <r_qp_SAamideO>  (3) 
0

>  <r_qp_SAfluorine>  (3) 
0

>  <r_qp_WPSA>  (3) 
0

>  <r_qp_accptHB>  (3) 
8.5

>  <r_qp_dip^2/V>  (3) 
0.0280136

>  <r_qp_dipole>  (3) 
6.383

>  <r_qp_donorHB>  (3) 
2

>  <r_qp_glob>  (3) 
0.78924019999999995

>  <r_qp_mol_MW>  (3) 
452.55500000000001

>  <r_qp_volume>  (3) 
1454.5540000000001

>  <r_sd_BIOSOLVEIT.INFINISEE\_FTREES\_SIMILARITY>  (3) 
0.91800000000000004

>  <r_sd_BIOSOLVEIT.LOGP>  (3) 
3.8738000000000001

>  <r_sd_BIOSOLVEIT.MOLECULAR\_WEIGHT>  (3) 
453.56299999999999

>  <r_sd_BIOSOLVEIT.TPSA>  (3) 
75.530000000000001

>  <i_epik_Tot_Q>  (3) 
1

>  <i_epik_Tot_abs_Q>  (3) 
1

>  <i_f3d_flags>  (3) 
0

>  <i_i_glide_confnum>  (3) 
5

>  <i_i_glide_lignum>  (3) 
1016

>  <i_i_glide_posenum>  (3) 
7

>  <i_i_glide_rotatable_bonds>  (3) 
9

>  <i_lp_mmshare_version>  (3) 
65135

>  <i_m_ct_format>  (3) 
2

>  <i_m_source_file_index>  (3) 
2404

>  <i_qp_#NandO>  (3) 
6

>  <i_qp_#acid>  (3) 
0

>  <i_qp_#amide>  (3) 
0

>  <i_qp_#amidine>  (3) 
0

>  <i_qp_#amine>  (3) 
1

>  <i_qp_#in34>  (3) 
0

>  <i_qp_#in56>  (3) 
22

>  <i_qp_#metab>  (3) 
7

>  <i_qp_#nonHatm>  (3) 
34

>  <i_qp_#noncon>  (3) 
0

>  <i_qp_#ringatoms>  (3) 
22

>  <i_qp_#rotor>  (3) 
8

>  <i_qp_#rtvFG>  (3) 
1

>  <i_qp_#stars>  (3) 
1

>  <i_qp_CNS>  (3) 
1

>  <i_qp_HumanOralAbsorption>  (3) 
3

>  <i_qp_RuleOfFive>  (3) 
0

>  <i_qp_RuleOfThree>  (3) 
1

>  <i_sd_BIOSOLVEIT.INFINISEE\_RESULT\_RANK>  (3) 
20951

>  <i_sd_version>  (3) 
0

>  <b_lp_Chiralities_Consistent>  (3) 
1

>  <b_sd_chiral_flag>  (3) 
0

>  <canonical_id>  (3) 
ATP-HTVS-003E4D952AAC

>  <compound_code>  (3) 
76899

>  <title>  (3) 
rxn502b____EMOL5415347____EMOL13728749____EMOL725587

>  <variant>  (3) 
76899-2

>  <source_file>  (3) 
运行/运行/ATP-VSW/ATP-VSW-DOCK_HTVS_1-003_lib/ATP-VSW-DOCK_HTVS_1-003_lib.mae

>  <canonical_smiles>  (3) 
CC(=O)[C@@H](Nc1cnc2ccccc2c1NC(=O)c1ccccc1C[NH+](C)C)c1ccccc1

>  <scaffold>  (3) 
O=C(Nc1c(NCc2ccccc2)cnc2ccccc12)c1ccccc1

>  <molecular_formula>  (3) 
C28H29N4O2+

$$$$
ATP-HTVS-005EEA24BFEA
     RDKit          3D

 62 65  0  0  0  0  0  0  0  0999 V2000
  197.6439  180.5541  154.9593 O   0  0  0  0  0  0  0  0  0  0  0  0
  197.6208  181.7199  154.5617 C   0  0  0  0  0  0  0  0  0  0  0  0
  197.5614  182.0919  153.2714 N   0  0  0  0  0  0  0  0  0  0  0  0
  197.7128  181.2884  152.1221 C   0  0  0  0  0  0  0  0  0  0  0  0
  198.0000  179.9677  152.1913 N   0  0  0  0  0  0  0  0  0  0  0  0
  198.1043  179.2250  151.0740 C   0  0  0  0  0  0  0  0  0  0  0  0
  197.9326  179.7988  149.7917 C   0  0  0  0  0  0  0  0  0  0  0  0
  197.6731  181.1793  149.7033 C   0  0  0  0  0  0  0  0  0  0  0  0
  197.5696  181.9509  150.8777 C   0  0  0  0  0  0  0  0  0  0  0  0
  197.3476  183.3378  150.7953 N   0  0  0  0  0  0  0  0  0  0  0  0
  198.4336  184.1369  150.2190 C   0  0  2  0  0  0  0  0  0  0  0  0
  198.4379  185.4877  150.8039 C   0  0  0  0  0  0  0  0  0  0  0  0
  198.4375  186.5468  151.2673 N   0  0  0  0  0  0  0  0  0  0  0  0
  198.4977  184.1841  148.6921 C   0  0  0  0  0  0  0  0  0  0  0  0
  197.5284  184.8896  147.9451 C   0  0  0  0  0  0  0  0  0  0  0  0
  197.5707  184.9010  146.5393 C   0  0  0  0  0  0  0  0  0  0  0  0
  198.6035  184.2247  145.8647 C   0  0  0  0  0  0  0  0  0  0  0  0
  199.5889  183.5366  146.5984 C   0  0  0  0  0  0  0  0  0  0  0  0
  199.5388  183.5186  148.0063 C   0  0  0  0  0  0  0  0  0  0  0  0
  195.9599  183.7405  150.6052 C   0  0  2  0  0  0  0  0  0  0  0  0
  198.0258  179.0081  148.6279 C   0  0  0  0  0  0  0  0  0  0  0  0
  198.2955  177.6320  148.7350 C   0  0  0  0  0  0  0  0  0  0  0  0
  198.4745  177.0501  150.0025 C   0  0  0  0  0  0  0  0  0  0  0  0
  198.3812  177.8469  151.1596 C   0  0  0  0  0  0  0  0  0  0  0  0
  197.6681  182.8799  155.5358 C   0  0  0  0  0  0  0  0  0  0  0  0
  197.0787  182.8396  156.8401 C   0  0  0  0  0  0  0  0  0  0  0  0
  197.3212  183.9310  157.7019 C   0  0  0  0  0  0  0  0  0  0  0  0
  197.9932  185.0712  157.3082 C   0  0  0  0  0  0  0  0  0  0  0  0
  198.5597  185.1314  156.0217 C   0  0  0  0  0  0  0  0  0  0  0  0
  198.4373  184.0191  155.1644 C   0  0  0  0  0  0  0  0  0  0  0  0
  196.1247  181.7220  157.3221 C   0  0  1  0  0  0  0  0  0  0  0  0
  194.7628  182.1858  157.7361 N   0  0  2  0  0  0  0  0  0  0  0  0
  194.7397  183.3504  158.6642 C   0  0  2  0  0  0  0  0  0  0  0  0
  193.9293  181.0790  158.2940 C   0  0  2  0  0  0  0  0  0  0  0  0
  197.4289  183.0791  153.1148 H   0  0  0  0  0  0  0  0  0  0  0  0
  197.5636  181.6407  148.7333 H   0  0  0  0  0  0  0  0  0  0  0  0
  199.3682  183.6933  150.5602 H   0  0  0  0  0  0  0  0  0  0  0  0
  196.7320  185.4182  148.4432 H   0  0  0  0  0  0  0  0  0  0  0  0
  196.8069  185.4285  145.9862 H   0  0  0  0  0  0  0  0  0  0  0  0
  198.6410  184.2360  144.7861 H   0  0  0  0  0  0  0  0  0  0  0  0
  200.3800  183.0162  146.0805 H   0  0  0  0  0  0  0  0  0  0  0  0
  200.2944  182.9796  148.5592 H   0  0  0  0  0  0  0  0  0  0  0  0
  195.2615  182.9655  150.9155 H   0  0  0  0  0  0  0  0  0  0  0  0
  195.7225  183.9742  149.5698 H   0  0  0  0  0  0  0  0  0  0  0  0
  195.7579  184.6306  151.1940 H   0  0  0  0  0  0  0  0  0  0  0  0
  197.8962  179.4545  147.6536 H   0  0  0  0  0  0  0  0  0  0  0  0
  198.3709  177.0259  147.8452 H   0  0  0  0  0  0  0  0  0  0  0  0
  198.6848  175.9939  150.0881 H   0  0  0  0  0  0  0  0  0  0  0  0
  198.5262  177.4017  152.1307 H   0  0  0  0  0  0  0  0  0  0  0  0
  196.9469  183.9280  158.7426 H   0  0  0  0  0  0  0  0  0  0  0  0
  198.0351  185.9307  157.9815 H   0  0  0  0  0  0  0  0  0  0  0  0
  199.1380  186.0173  155.7328 H   0  0  0  0  0  0  0  0  0  0  0  0
  198.9557  184.0606  154.2277 H   0  0  0  0  0  0  0  0  0  0  0  0
  195.9490  180.9701  156.5533 H   0  0  0  0  0  0  0  0  0  0  0  0
  196.6365  181.2032  158.1442 H   0  0  0  0  0  0  0  0  0  0  0  0
  195.3337  183.0891  159.5589 H   0  0  0  0  0  0  0  0  0  0  0  0
  193.7161  183.6266  158.9931 H   0  0  0  0  0  0  0  0  0  0  0  0
  195.1857  184.1875  158.1750 H   0  0  0  0  0  0  0  0  0  0  0  0
  194.4198  180.6393  159.1624 H   0  0  0  0  0  0  0  0  0  0  0  0
  193.7317  180.3045  157.5480 H   0  0  0  0  0  0  0  0  0  0  0  0
  192.9741  181.4801  158.6137 H   0  0  0  0  0  0  0  0  0  0  0  0
  194.3018  182.4824  156.8618 H   0  0  0  0  0  0  0  0  0  0  0  0
  1  2  2  0
  2  3  1  0
  2 25  1  0
  3  4  1  0
  3 35  1  0
  4  5  2  0
  4  9  1  0
  5  6  1  0
  6  7  1  0
  6 24  2  0
  7  8  1  0
  7 21  2  0
  8  9  2  0
  8 36  1  0
  9 10  1  0
 10 11  1  0
 10 20  1  0
 11 12  1  0
 11 14  1  0
 11 37  1  1
 12 13  3  0
 14 15  2  0
 14 19  1  0
 15 16  1  0
 15 38  1  0
 16 17  2  0
 16 39  1  0
 17 18  1  0
 17 40  1  0
 18 19  2  0
 18 41  1  0
 19 42  1  0
 20 43  1  1
 20 44  1  0
 20 45  1  0
 21 22  1  0
 21 46  1  0
 22 23  2  0
 22 47  1  0
 23 24  1  0
 23 48  1  0
 24 49  1  0
 25 26  1  0
 25 30  2  0
 26 27  2  0
 26 31  1  0
 27 28  1  0
 27 50  1  0
 28 29  2  0
 28 51  1  0
 29 30  1  0
 29 52  1  0
 30 53  1  0
 31 32  1  0
 31 54  1  6
 31 55  1  0
 32 33  1  0
 32 34  1  0
 32 62  1  6
 33 56  1  1
 33 57  1  0
 33 58  1  0
 34 59  1  1
 34 60  1  0
 34 61  1  0
M  CHG  1  32   1
M  END
>  <s_epik_cmdline>  (4) 
J2VwaWtfcHl0aG9uJywgJy1waCcsICc3LjAwMDAwMCcsICctcGh0JywgJzIuMDAwMDAwJywgJy1tcycsICcxNicsICctdG4nLCAnOCcsICctbWEnLCAnMjAwJywgJy1pbWFlJywgJzxpbmZpbGUubWFlPicsICctb21hZScsICc8b3V0ZmlsZS5tYWU+Jw==

>  <s_epik_input>  (4) 
W2NIXTFbY0hdW2NIXVtjSF1jKFtDSDJdTihbQ0gzXSlbQ0gzXSljMUMoPU8pW05IXWMobjIpYyhbY0hdYyhjMjMpW2NIXVtjSF1bY0hdW2NIXTMpTihbQ0gzXSlbQ0BIXShDI04pYzRbY0hdW2NIXVtjSF1bY0hdW2NIXTQ=

>  <s_i_glide_gridfile>  (4) 
ATP-Grid

>  <s_lp_Force_Field>  (4) 
OPLS_2005

>  <s_lp_Variant>  (4) 
rxn502b____EMOL5415347____EMOL44466703____EMOL24630243-2

>  <s_lp_label>  (4) 
2188_sdstereoexpander_2_neutralizer_1_epik_1_stereoizer_1

>  <s_m_source_file>  (4) 
ATP-VSW-LIGPREP-003-in.maegz

>  <s_sd_BIOSOLVEIT.INFINISEE\_QUERY\_NAME>  (4) 
Ref-Lig

>  <s_sd_BIOSOLVEIT.INFINISEE\_QUERY\_SMILES>  (4) 
S(c1nc2c(cc1C[NH2+]Cc3ccc(cc3)C[NH+](C)C)cccc2)Cc4ccccc4

>  <s_sd_BIOSOLVEIT.INFINISEE\_REACTION\_NAME>  (4) 
rxn502b

>  <s_sd_BIOSOLVEIT.INFINISEE\_REAGENT1\_NAME>  (4) 
EMOL5415347

>  <s_sd_BIOSOLVEIT.INFINISEE\_REAGENT1\_SMILES>  (4) 
O=C(O)c1c(cccc1)CN(C)C

>  <s_sd_BIOSOLVEIT.INFINISEE\_REAGENT2\_NAME>  (4) 
EMOL44466703

>  <s_sd_BIOSOLVEIT.INFINISEE\_REAGENT2\_SMILES>  (4) 
Brc1c(nc2c(c1)cccc2)N

>  <s_sd_BIOSOLVEIT.INFINISEE\_REAGENT3\_NAME>  (4) 
EMOL24630243

>  <s_sd_BIOSOLVEIT.INFINISEE\_REAGENT3\_SMILES>  (4) 
N#CC(NC)c1ccccc1

>  <s_sd_BIOSOLVEIT.INFINISEE\_SPACE>  (4) 
eXplore_7tr_2022-12

>  <s_vsw_compound_code>  (4) 
69987

>  <s_vsw_variant>  (4) 
69987-2

>  <r_epik_Charging_Adjusted_Penalty>  (4) 
0.120106230221407

>  <r_epik_Ionization_Penalty>  (4) 
0.060100000000000001

>  <r_epik_Ionization_Penalty_Charging>  (4) 
0.060100000000000001

>  <r_epik_Ionization_Penalty_Neutral>  (4) 
0.0001

>  <r_epik_State_Penalty>  (4) 
0.060100000000000001

>  <r_i_docking_score>  (4) 
-4.3564029466994301

>  <r_i_glide_ecoul>  (4) 
-8.8143367767334002

>  <r_i_glide_eff_state_penalty>  (4) 
0.060100000000000001

>  <r_i_glide_einternal>  (4) 
6.2203001976013201

>  <r_i_glide_emodel>  (4) 
-56.613427869984399

>  <r_i_glide_energy>  (4) 
-43.139703750610401

>  <r_i_glide_erotb>  (4) 
0.69137857178598805

>  <r_i_glide_esite>  (4) 
-0.130888628414083

>  <r_i_glide_evdw>  (4) 
-34.325366973877003

>  <r_i_glide_gscore>  (4) 
-4.4165029466994303

>  <r_i_glide_hbond>  (4) 
-0.17306536595646499

>  <r_i_glide_ligand_efficiency>  (4) 
-0.12812949843233601

>  <r_i_glide_ligand_efficiency_ln>  (4) 
-0.96245160388960704

>  <r_i_glide_ligand_efficiency_sa>  (4) 
-0.41508983472524202

>  <r_i_glide_lipo>  (4) 
-1.2044016165426901

>  <r_i_glide_metal>  (4) 
-0

>  <r_i_glide_rewards>  (4) 
-0.56110704236831799

>  <r_lp_Energy>  (4) 
37.273980999999999

>  <r_qp_ACxDN^.5/SA>  (4) 
0.0111985

>  <r_qp_CIQPlogS>  (4) 
-6.4109999999999996

>  <r_qp_EA(eV)>  (4) 
1.083

>  <r_qp_FISA>  (4) 
90.483000000000004

>  <r_qp_FOSA>  (4) 
181.161

>  <r_qp_IP(eV)>  (4) 
8.8219999999999992

>  <r_qp_Jm>  (4) 
0.0093106598966779305

>  <r_qp_PISA>  (4) 
442.73500000000001

>  <r_qp_PSA>  (4) 
70.319000000000003

>  <r_qp_PercentHumanOralAbsorption>  (4) 
95.980999999999995

>  <r_qp_QPPCaco>  (4) 
342.56999999999999

>  <r_qp_QPPMDCK>  (4) 
171.929

>  <r_qp_QPlogBB>  (4) 
-0.36699999999999999

>  <r_qp_QPlogHERG>  (4) 
-6.8949999999999996

>  <r_qp_QPlogKhsa>  (4) 
0.47999999999999998

>  <r_qp_QPlogKp>  (4) 
-2.9220000000000002

>  <r_qp_QPlogPC16>  (4) 
15.064

>  <r_qp_QPlogPo/w>  (4) 
4.0419999999999998

>  <r_qp_QPlogPoct>  (4) 
22.169

>  <r_qp_QPlogPw>  (4) 
12.645

>  <r_qp_QPlogS>  (4) 
-4.7619999999999996

>  <r_qp_QPpolrz>  (4) 
48.643000000000001

>  <r_qp_SASA>  (4) 
714.38

>  <r_qp_SAamideO>  (4) 
0

>  <r_qp_SAfluorine>  (4) 
0

>  <r_qp_WPSA>  (4) 
0

>  <r_qp_accptHB>  (4) 
8

>  <r_qp_dip^2/V>  (4) 
0.0015474

>  <r_qp_dipole>  (4) 
1.468

>  <r_qp_donorHB>  (4) 
1

>  <r_qp_glob>  (4) 
0.84395549999999997

>  <r_qp_mol_MW>  (4) 
449.55399999999997

>  <r_qp_volume>  (4) 
1391.9559999999999

>  <r_sd_BIOSOLVEIT.INFINISEE\_FTREES\_SIMILARITY>  (4) 
0.93500000000000005

>  <r_sd_BIOSOLVEIT.LOGP>  (4) 
3.8326799999999999

>  <r_sd_BIOSOLVEIT.MOLECULAR\_WEIGHT>  (4) 
450.56299999999999

>  <r_sd_BIOSOLVEIT.TPSA>  (4) 
73.459999999999994

>  <i_epik_Tot_Q>  (4) 
1

>  <i_epik_Tot_abs_Q>  (4) 
1

>  <i_f3d_flags>  (4) 
0

>  <i_i_glide_confnum>  (4) 
7

>  <i_i_glide_lignum>  (4) 
835

>  <i_i_glide_posenum>  (4) 
12

>  <i_i_glide_rotatable_bonds>  (4) 
8

>  <i_lp_mmshare_version>  (4) 
65135

>  <i_m_ct_format>  (4) 
2

>  <i_m_source_file_index>  (4) 
2188

>  <i_qp_#NandO>  (4) 
6

>  <i_qp_#acid>  (4) 
0

>  <i_qp_#amide>  (4) 
0

>  <i_qp_#amidine>  (4) 
0

>  <i_qp_#amine>  (4) 
1

>  <i_qp_#in34>  (4) 
0

>  <i_qp_#in56>  (4) 
22

>  <i_qp_#metab>  (4) 
5

>  <i_qp_#nonHatm>  (4) 
34

>  <i_qp_#noncon>  (4) 
0

>  <i_qp_#ringatoms>  (4) 
22

>  <i_qp_#rotor>  (4) 
8

>  <i_qp_#rtvFG>  (4) 
0

>  <i_qp_#stars>  (4) 
0

>  <i_qp_CNS>  (4) 
1

>  <i_qp_HumanOralAbsorption>  (4) 
3

>  <i_qp_RuleOfFive>  (4) 
0

>  <i_qp_RuleOfThree>  (4) 
0

>  <i_sd_BIOSOLVEIT.INFINISEE\_RESULT\_RANK>  (4) 
2599

>  <i_sd_version>  (4) 
0

>  <b_lp_Chiralities_Consistent>  (4) 
1

>  <b_sd_chiral_flag>  (4) 
0

>  <canonical_id>  (4) 
ATP-HTVS-005EEA24BFEA

>  <compound_code>  (4) 
69987

>  <title>  (4) 
rxn502b____EMOL5415347____EMOL44466703____EMOL24630243

>  <variant>  (4) 
69987-2

>  <source_file>  (4) 
运行/运行/ATP-VSW/ATP-VSW-DOCK_HTVS_1-003_lib/ATP-VSW-DOCK_HTVS_1-003_lib.mae

>  <canonical_smiles>  (4) 
CN(c1cc2ccccc2nc1NC(=O)c1ccccc1C[NH+](C)C)[C@H](C#N)c1ccccc1

>  <scaffold>  (4) 
O=C(Nc1nc2ccccc2cc1NCc1ccccc1)c1ccccc1

>  <molecular_formula>  (4) 
C28H28N5O+

$$$$
ATP-HTVS-0063E4174F09
     RDKit          3D

 45 48  0  0  0  0  0  0  0  0999 V2000
  196.5712  190.3288  161.3348 I   0  0  0  0  0  0  0  0  0  0  0  0
  197.5098  190.4629  159.4639 C   0  0  0  0  0  0  0  0  0  0  0  0
  198.1376  189.3590  158.8426 C   0  0  0  0  0  0  0  0  0  0  0  0
  198.7554  189.5263  157.5812 C   0  0  0  0  0  0  0  0  0  0  0  0
  198.7466  190.7740  156.9363 C   0  0  0  0  0  0  0  0  0  0  0  0
  198.1162  191.8690  157.5531 C   0  0  0  0  0  0  0  0  0  0  0  0
  198.0679  193.4015  156.7643 Cl  0  0  0  0  0  0  0  0  0  0  0  0
  197.5123  191.7128  158.8158 C   0  0  0  0  0  0  0  0  0  0  0  0
  198.2052  187.9947  159.5083 C   0  0  1  0  0  0  0  0  0  0  0  0
  197.4361  186.9618  158.7981 N   0  0  0  0  0  0  0  0  0  0  0  0
  197.9589  185.6143  159.0958 C   0  0  1  0  0  0  0  0  0  0  0  0
  197.0783  184.4599  158.5789 C   0  0  0  0  0  0  0  0  0  0  0  0
  195.8113  184.2100  159.1664 C   0  0  0  0  0  0  0  0  0  0  0  0
  195.2816  185.0493  160.1931 N   0  0  0  0  0  0  0  0  0  0  0  0
  195.3775  186.3757  160.2638 C   0  0  0  0  0  0  0  0  0  0  0  0
  194.9443  186.9870  161.2346 O   0  0  0  0  0  0  0  0  0  0  0  0
  195.9723  187.1375  159.0637 C   0  0  1  0  0  0  0  0  0  0  0  0
  195.0508  183.0873  158.7825 C   0  0  0  0  0  0  0  0  0  0  0  0
  195.5288  182.2185  157.7843 C   0  0  0  0  0  0  0  0  0  0  0  0
  196.7712  182.4611  157.1769 C   0  0  0  0  0  0  0  0  0  0  0  0
  197.5422  183.5669  157.5689 C   0  0  0  0  0  0  0  0  0  0  0  0
  199.4030  185.4567  158.6052 C   0  0  0  0  0  0  0  0  0  0  0  0
  200.3450  184.7046  159.3471 C   0  0  0  0  0  0  0  0  0  0  0  0
  201.6660  184.5572  158.8717 C   0  0  0  0  0  0  0  0  0  0  0  0
  202.0502  185.1528  157.6564 C   0  0  0  0  0  0  0  0  0  0  0  0
  201.1126  185.8873  156.9077 C   0  0  0  0  0  0  0  0  0  0  0  0
  199.7919  186.0141  157.3659 C   0  0  0  0  0  0  0  0  0  0  0  0
  199.2590  188.7011  157.0977 H   0  0  0  0  0  0  0  0  0  0  0  0
  199.2189  190.8878  155.9702 H   0  0  0  0  0  0  0  0  0  0  0  0
  197.0381  192.5557  159.2935 H   0  0  0  0  0  0  0  0  0  0  0  0
  199.2792  187.7955  159.5381 H   0  0  0  0  0  0  0  0  0  0  0  0
  197.9090  188.0142  160.5528 H   0  0  0  0  0  0  0  0  0  0  0  0
  197.9815  185.5146  160.1744 H   0  0  0  0  0  0  0  0  0  0  0  0
  194.7281  184.5915  160.8975 H   0  0  0  0  0  0  0  0  0  0  0  0
  195.7224  188.2014  159.1472 H   0  0  0  0  0  0  0  0  0  0  0  0
  195.4403  186.8082  158.1761 H   0  0  0  0  0  0  0  0  0  0  0  0
  194.0889  182.8925  159.2280 H   0  0  0  0  0  0  0  0  0  0  0  0
  194.9393  181.3795  157.4635 H   0  0  0  0  0  0  0  0  0  0  0  0
  197.1361  181.7967  156.4083 H   0  0  0  0  0  0  0  0  0  0  0  0
  198.4935  183.6763  157.0744 H   0  0  0  0  0  0  0  0  0  0  0  0
  200.0511  184.2332  160.2785 H   0  0  0  0  0  0  0  0  0  0  0  0
  202.3679  183.9743  159.4345 H   0  0  0  0  0  0  0  0  0  0  0  0
  203.0528  185.0351  157.2842 H   0  0  0  0  0  0  0  0  0  0  0  0
  201.3879  186.3405  155.9650 H   0  0  0  0  0  0  0  0  0  0  0  0
  199.0617  186.5389  156.7689 H   0  0  0  0  0  0  0  0  0  0  0  0
  1  2  1  0
  2  3  2  0
  2  8  1  0
  3  4  1  0
  3  9  1  0
  4  5  2  0
  4 28  1  0
  5  6  1  0
  5 29  1  0
  6  7  1  0
  6  8  2  0
  8 30  1  0
  9 10  1  0
  9 31  1  1
  9 32  1  0
 10 11  1  0
 10 17  1  0
 11 12  1  0
 11 22  1  0
 11 33  1  1
 12 13  1  0
 12 21  2  0
 13 14  1  0
 13 18  2  0
 14 15  1  0
 14 34  1  0
 15 16  2  0
 15 17  1  0
 17 35  1  1
 17 36  1  0
 18 19  1  0
 18 37  1  0
 19 20  2  0
 19 38  1  0
 20 21  1  0
 20 39  1  0
 21 40  1  0
 22 23  2  0
 22 27  1  0
 23 24  1  0
 23 41  1  0
 24 25  2  0
 24 42  1  0
 25 26  1  0
 25 43  1  0
 26 27  2  0
 26 44  1  0
 27 45  1  0
M  END
>  <s_epik_cmdline>  (5) 
J2VwaWtfcHl0aG9uJywgJy1waCcsICc3LjAwMDAwMCcsICctcGh0JywgJzIuMDAwMDAwJywgJy1tcycsICcxNicsICctdG4nLCAnOCcsICctbWEnLCAnMjAwJywgJy1pbWFlJywgJzxpbmZpbGUubWFlPicsICctb21hZScsICc8b3V0ZmlsZS5tYWU+Jw==

>  <s_epik_input>  (5) 
W2NIXTFbY0hdW2NIXVtjSF1bY0hdYzFbQ0BIXTJOKFtDSDJdYyhjM0kpW2NIXVtjSF1jKENsKVtjSF0zKVtDSDJdQyg9TylbTkhdYyhjMjQpW2NIXVtjSF1bY0hdW2NIXTQ=

>  <s_i_glide_gridfile>  (5) 
ATP-Grid

>  <s_lp_Force_Field>  (5) 
OPLS_2005

>  <s_lp_Variant>  (5) 
m_270004bda____24170338____19565760-1

>  <s_lp_label>  (5) 
1066_sdstereoexpander_1_neutralizer_1_epik_1_stereoizer_1

>  <s_m_source_file>  (5) 
ATP-VSW-LIGPREP-001-in.maegz

>  <s_sd_BIOSOLVEIT.INFINISEE\_QUERY\_NAME>  (5) 
Ref-Lig

>  <s_sd_BIOSOLVEIT.INFINISEE\_QUERY\_SMILES>  (5) 
S(c1nc2c(cc1C[NH2+]Cc3ccc(cc3)C[NH+](C)C)cccc2)Cc4ccccc4

>  <s_sd_BIOSOLVEIT.INFINISEE\_REACTION\_NAME>  (5) 
m_270004bda

>  <s_sd_BIOSOLVEIT.INFINISEE\_REAGENT1\_SMILES>  (5) 
[R1*]N1C(c2c(NC(=O)C1)cccc2)c3ccccc3

>  <s_sd_BIOSOLVEIT.INFINISEE\_REAGENT2\_SMILES>  (5) 
[R1*]Cc1c(I)cc(Cl)cc1

>  <s_sd_BIOSOLVEIT.INFINISEE\_SPACE>  (5) 
REALSpace_44bn_2023-08

>  <s_vsw_compound_code>  (5) 
34081

>  <s_vsw_variant>  (5) 
34081-1

>  <r_epik_Charging_Adjusted_Penalty>  (5) 
0.0087634984339075902

>  <r_epik_Ionization_Penalty>  (5) 
0.0088000000000000005

>  <r_epik_Ionization_Penalty_Charging>  (5) 
0

>  <r_epik_Ionization_Penalty_Neutral>  (5) 
0.0088000000000000005

>  <r_epik_State_Penalty>  (5) 
0.0088000000000000005

>  <r_i_docking_score>  (5) 
-1.0346829330706899

>  <r_i_glide_ecoul>  (5) 
-0.20758563280105599

>  <r_i_glide_eff_state_penalty>  (5) 
0.0088000000000000005

>  <r_i_glide_einternal>  (5) 
0.75095224380493197

>  <r_i_glide_emodel>  (5) 
-36.986961118989498

>  <r_i_glide_energy>  (5) 
-35.0014126896858

>  <r_i_glide_erotb>  (5) 
0.25543030938705602

>  <r_i_glide_esite>  (5) 
0

>  <r_i_glide_evdw>  (5) 
-34.793827056884801

>  <r_i_glide_gscore>  (5) 
-1.0434829330706901

>  <r_i_glide_hbond>  (5) 
0

>  <r_i_glide_ligand_efficiency>  (5) 
-0.038321590113729397

>  <r_i_glide_ligand_efficiency_ln>  (5) 
-0.240857128737544

>  <r_i_glide_ligand_efficiency_sa>  (5) 
-0.11496477021488601

>  <r_i_glide_lipo>  (5) 
-1.0324619915475099

>  <r_i_glide_metal>  (5) 
-0

>  <r_i_glide_rewards>  (5) 
1.50437794685416

>  <r_lp_Energy>  (5) 
37.746018999999997

>  <r_qp_ACxDN^.5/SA>  (5) 
0.0069443999999999999

>  <r_qp_CIQPlogS>  (5) 
-7.2859999999999996

>  <r_qp_EA(eV)>  (5) 
0.995

>  <r_qp_FISA>  (5) 
52.493000000000002

>  <r_qp_FOSA>  (5) 
43.795000000000002

>  <r_qp_IP(eV)>  (5) 
8.9480000000000004

>  <r_qp_Jm>  (5) 
0.0023529077990592701

>  <r_qp_PISA>  (5) 
422.89999999999998

>  <r_qp_PSA>  (5) 
40.298000000000002

>  <r_qp_PercentHumanOralAbsorption>  (5) 
100

>  <r_qp_QPPCaco>  (5) 
785.25900000000001

>  <r_qp_QPPMDCK>  (5) 
2140.0619999999999

>  <r_qp_QPlogBB>  (5) 
0.65000000000000002

>  <r_qp_QPlogHERG>  (5) 
-7.0149999999999997

>  <r_qp_QPlogKhsa>  (5) 
0.85499999999999998

>  <r_qp_QPlogKp>  (5) 
-2.8679999999999999

>  <r_qp_QPlogPC16>  (5) 
13.612

>  <r_qp_QPlogPo/w>  (5) 
4.8689999999999998

>  <r_qp_QPlogPoct>  (5) 
19.405999999999999

>  <r_qp_QPlogPw>  (5) 
10.013

>  <r_qp_QPlogS>  (5) 
-5.4500000000000002

>  <r_qp_QPpolrz>  (5) 
43.595999999999997

>  <r_qp_SASA>  (5) 
648.00699999999995

>  <r_qp_SAamideO>  (5) 
0

>  <r_qp_SAfluorine>  (5) 
0

>  <r_qp_WPSA>  (5) 
128.81999999999999

>  <r_qp_accptHB>  (5) 
4.5

>  <r_qp_dip^2/V>  (5) 
0.031777899999999998

>  <r_qp_dipole>  (5) 
6.109

>  <r_qp_donorHB>  (5) 
1

>  <r_qp_glob>  (5) 
0.83069150000000003

>  <r_qp_mol_MW>  (5) 
488.75400000000002

>  <r_qp_volume>  (5) 
1174.307

>  <r_sd_BIOSOLVEIT.INFINISEE\_FTREES\_SIMILARITY>  (5) 
0.91400000000000003

>  <r_sd_BIOSOLVEIT.LOGP>  (5) 
4.0712000000000002

>  <r_sd_BIOSOLVEIT.MOLECULAR\_WEIGHT>  (5) 
489.75799999999998

>  <r_sd_BIOSOLVEIT.TPSA>  (5) 
33.539999999999999

>  <i_epik_Tot_Q>  (5) 
0

>  <i_epik_Tot_abs_Q>  (5) 
0

>  <i_f3d_flags>  (5) 
0

>  <i_i_glide_confnum>  (5) 
2

>  <i_i_glide_lignum>  (5) 
235

>  <i_i_glide_posenum>  (5) 
3

>  <i_i_glide_rotatable_bonds>  (5) 
3

>  <i_lp_mmshare_version>  (5) 
65135

>  <i_m_ct_format>  (5) 
2

>  <i_m_source_file_index>  (5) 
1066

>  <i_qp_#NandO>  (5) 
3

>  <i_qp_#acid>  (5) 
0

>  <i_qp_#amide>  (5) 
0

>  <i_qp_#amidine>  (5) 
0

>  <i_qp_#amine>  (5) 
1

>  <i_qp_#in34>  (5) 
0

>  <i_qp_#in56>  (5) 
18

>  <i_qp_#metab>  (5) 
7

>  <i_qp_#nonHatm>  (5) 
27

>  <i_qp_#noncon>  (5) 
2

>  <i_qp_#ringatoms>  (5) 
23

>  <i_qp_#rotor>  (5) 
2

>  <i_qp_#rtvFG>  (5) 
0

>  <i_qp_#stars>  (5) 
0

>  <i_qp_CNS>  (5) 
2

>  <i_qp_HumanOralAbsorption>  (5) 
3

>  <i_qp_RuleOfFive>  (5) 
0

>  <i_qp_RuleOfThree>  (5) 
1

>  <i_sd_BIOSOLVEIT.INFINISEE\_REAGENT1\_NAME>  (5) 
24170338

>  <i_sd_BIOSOLVEIT.INFINISEE\_REAGENT2\_NAME>  (5) 
19565760

>  <i_sd_BIOSOLVEIT.INFINISEE\_RESULT\_RANK>  (5) 
30877

>  <i_sd_version>  (5) 
0

>  <b_lp_Chiralities_Consistent>  (5) 
1

>  <b_sd_chiral_flag>  (5) 
0

>  <canonical_id>  (5) 
ATP-HTVS-0063E4174F09

>  <compound_code>  (5) 
34081

>  <title>  (5) 
m_270004bda____24170338____19565760

>  <variant>  (5) 
34081-1

>  <source_file>  (5) 
运行/运行/ATP-VSW/ATP-VSW-DOCK_HTVS_1-001_lib/ATP-VSW-DOCK_HTVS_1-001_lib

>  <canonical_smiles>  (5) 
O=C1CN(Cc2ccc(Cl)cc2I)[C@H](c2ccccc2)c2ccccc2N1

>  <scaffold>  (5) 
O=C1CN(Cc2ccccc2)C(c2ccccc2)c2ccccc2N1

>  <molecular_formula>  (5) 
C22H18ClIN2O

$$$$
ATP-HTVS-0079D40D2121
     RDKit          3D

 55 58  0  0  0  0  0  0  0  0999 V2000
  200.1904  186.2116  158.1815 Cl  0  0  0  0  0  0  0  0  0  0  0  0
  198.5918  185.5857  158.4206 C   0  0  0  0  0  0  0  0  0  0  0  0
  197.5117  186.4662  158.6361 C   0  0  0  0  0  0  0  0  0  0  0  0
  196.2435  186.0476  158.8037 N   0  0  0  0  0  0  0  0  0  0  0  0
  195.9809  184.7348  158.7837 C   0  0  0  0  0  0  0  0  0  0  0  0
  197.0013  183.7587  158.5704 C   0  0  0  0  0  0  0  0  0  0  0  0
  198.3416  184.1971  158.3856 C   0  0  0  0  0  0  0  0  0  0  0  0
  199.4513  183.2488  158.1574 C   0  0  0  0  0  0  0  0  0  0  0  0
  200.5067  183.1401  159.0894 C   0  0  0  0  0  0  0  0  0  0  0  0
  201.5633  182.2321  158.8709 C   0  0  0  0  0  0  0  0  0  0  0  0
  201.5625  181.4176  157.7252 C   0  0  0  0  0  0  0  0  0  0  0  0
  200.5135  181.5173  156.7920 C   0  0  0  0  0  0  0  0  0  0  0  0
  199.4687  182.4367  157.0065 C   0  0  0  0  0  0  0  0  0  0  0  0
  196.6496  182.3939  158.5502 C   0  0  0  0  0  0  0  0  0  0  0  0
  195.3114  182.0050  158.7247 C   0  0  0  0  0  0  0  0  0  0  0  0
  194.3085  182.9592  158.9172 C   0  0  0  0  0  0  0  0  0  0  0  0
  194.6544  184.3080  158.9737 C   0  0  0  0  0  0  0  0  0  0  0  0
  197.6917  187.9646  158.6180 C   0  0  1  0  0  0  0  0  0  0  0  0
  196.8792  188.6402  159.6320 N   0  0  0  0  0  0  0  0  0  0  0  0
  197.3168  189.9834  159.9686 C   0  0  2  0  0  0  0  0  0  0  0  0
  196.3531  190.5347  161.0524 C   0  0  1  0  0  0  0  0  0  0  0  0
  197.0906  191.0076  162.1584 O   0  0  0  0  0  0  0  0  0  0  0  0
  197.4115  190.8998  158.7127 C   0  0  1  0  0  0  0  0  0  0  0  0
  198.1906  192.2063  158.9130 C   0  0  0  0  0  0  0  0  0  0  0  0
  198.4078  193.1155  157.8499 C   0  0  0  0  0  0  0  0  0  0  0  0
  199.1327  194.3245  158.0539 C   0  0  0  0  0  0  0  0  0  0  0  0
  199.6278  194.6106  159.3415 C   0  0  0  0  0  0  0  0  0  0  0  0
  199.4462  193.6957  160.3833 C   0  0  0  0  0  0  0  0  0  0  0  0
  198.7572  192.4851  160.1888 C   0  0  0  0  0  0  0  0  0  0  0  0
  197.8973  192.8215  156.4275 C   0  0  2  0  0  0  0  0  0  0  0  0
  196.8833  188.0701  160.4752 H   0  0  0  0  0  0  0  0  0  0  0  0
  200.5092  183.7540  159.9785 H   0  0  0  0  0  0  0  0  0  0  0  0
  202.3664  182.1593  159.5901 H   0  0  0  0  0  0  0  0  0  0  0  0
  202.3621  180.7088  157.5620 H   0  0  0  0  0  0  0  0  0  0  0  0
  200.4978  180.8835  155.9181 H   0  0  0  0  0  0  0  0  0  0  0  0
  198.6612  182.5030  156.2905 H   0  0  0  0  0  0  0  0  0  0  0  0
  197.3783  181.6116  158.3898 H   0  0  0  0  0  0  0  0  0  0  0  0
  195.0345  180.9695  158.6940 H   0  0  0  0  0  0  0  0  0  0  0  0
  193.2808  182.6336  158.9898 H   0  0  0  0  0  0  0  0  0  0  0  0
  193.8771  185.0343  159.1340 H   0  0  0  0  0  0  0  0  0  0  0  0
  198.7369  188.2242  158.7588 H   0  0  0  0  0  0  0  0  0  0  0  0
  197.3961  188.3017  157.6284 H   0  0  0  0  0  0  0  0  0  0  0  0
  198.3189  189.8732  160.3863 H   0  0  0  0  0  0  0  0  0  0  0  0
  195.7852  191.3830  160.6821 H   0  0  0  0  0  0  0  0  0  0  0  0
  195.5974  189.8056  161.3551 H   0  0  0  0  0  0  0  0  0  0  0  0
  197.7576  190.3421  162.3769 H   0  0  0  0  0  0  0  0  0  0  0  0
  197.9279  190.4123  157.8835 H   0  0  0  0  0  0  0  0  0  0  0  0
  196.4136  191.1105  158.3248 H   0  0  0  0  0  0  0  0  0  0  0  0
  199.3135  195.0036  157.2395 H   0  0  0  0  0  0  0  0  0  0  0  0
  200.1765  195.5294  159.5273 H   0  0  0  0  0  0  0  0  0  0  0  0
  199.8214  193.8906  161.3772 H   0  0  0  0  0  0  0  0  0  0  0  0
  198.6971  191.8166  161.0362 H   0  0  0  0  0  0  0  0  0  0  0  0
  198.2130  193.5880  155.7216 H   0  0  0  0  0  0  0  0  0  0  0  0
  196.8070  192.7771  156.4064 H   0  0  0  0  0  0  0  0  0  0  0  0
  198.2827  191.8691  156.0569 H   0  0  0  0  0  0  0  0  0  0  0  0
  1  2  1  0
  2  3  1  0
  2  7  2  0
  3  4  2  0
  3 18  1  0
  4  5  1  0
  5  6  1  0
  5 17  2  0
  6  7  1  0
  6 14  2  0
  7  8  1  0
  8  9  2  0
  8 13  1  0
  9 10  1  0
  9 32  1  0
 10 11  2  0
 10 33  1  0
 11 12  1  0
 11 34  1  0
 12 13  2  0
 12 35  1  0
 13 36  1  0
 14 15  1  0
 14 37  1  0
 15 16  2  0
 15 38  1  0
 16 17  1  0
 16 39  1  0
 17 40  1  0
 18 19  1  0
 18 41  1  1
 18 42  1  0
 19 20  1  0
 19 31  1  0
 20 21  1  0
 20 23  1  0
 20 43  1  1
 21 22  1  0
 21 44  1  6
 21 45  1  0
 22 46  1  0
 23 24  1  0
 23 47  1  6
 23 48  1  0
 24 25  1  0
 24 29  2  0
 25 26  2  0
 25 30  1  0
 26 27  1  0
 26 49  1  0
 27 28  2  0
 27 50  1  0
 28 29  1  0
 28 51  1  0
 29 52  1  0
 30 53  1  6
 30 54  1  0
 30 55  1  0
M  END
>  <s_epik_cmdline>  (6) 
J2VwaWtfcHl0aG9uJywgJy1waCcsICc3LjAwMDAwMCcsICctcGh0JywgJzIuMDAwMDAwJywgJy1tcycsICcxNicsICctdG4nLCAnOCcsICctbWEnLCAnMjAwJywgJy1pbWFlJywgJzxpbmZpbGUubWFlPicsICctb21hZScsICc8b3V0ZmlsZS5tYWU+Jw==

>  <s_epik_input>  (6) 
W2NIXTFbY0hdW2NIXVtjSF1bY0hdYzEtYyhjKGMyMylbY0hdW2NIXVtjSF1bY0hdMyljKENsKWMobjIpW0NIMl1bTkhdW0NASF0oW0NIMl1bT0hdKVtDSDJdYzRjKFtDSDNdKVtjSF1bY0hdW2NIXVtjSF00

>  <s_i_glide_gridfile>  (6) 
ATP-Grid

>  <s_lp_Force_Field>  (6) 
OPLS_2005

>  <s_lp_Variant>  (6) 
m_2230bbb____22404310____7471132-4

>  <s_lp_label>  (6) 
936_sdstereoexpander_2_neutralizer_1_epik_2_stereoizer_1

>  <s_m_source_file>  (6) 
ATP-VSW-LIGPREP-001-in.maegz

>  <s_sd_BIOSOLVEIT.INFINISEE\_QUERY\_NAME>  (6) 
Ref-Lig

>  <s_sd_BIOSOLVEIT.INFINISEE\_QUERY\_SMILES>  (6) 
S(c1nc2c(cc1C[NH2+]Cc3ccc(cc3)C[NH+](C)C)cccc2)Cc4ccccc4

>  <s_sd_BIOSOLVEIT.INFINISEE\_REACTION\_NAME>  (6) 
m_2230bbb

>  <s_sd_BIOSOLVEIT.INFINISEE\_REAGENT1\_SMILES>  (6) 
[R1*]NC(CO)Cc1c(cccc1)C

>  <s_sd_BIOSOLVEIT.INFINISEE\_REAGENT2\_SMILES>  (6) 
[R1*]Cc1nc2c(c(c1Cl)c3ccccc3)cccc2

>  <s_sd_BIOSOLVEIT.INFINISEE\_SPACE>  (6) 
REALSpace_44bn_2023-08

>  <s_vsw_compound_code>  (6) 
29921

>  <s_vsw_variant>  (6) 
29921-4

>  <r_epik_Charging_Adjusted_Penalty>  (6) 
0.98978642956388596

>  <r_epik_Ionization_Penalty>  (6) 
0.99050000000000005

>  <r_epik_Ionization_Penalty_Charging>  (6) 
0

>  <r_epik_Ionization_Penalty_Neutral>  (6) 
0.99050000000000005

>  <r_epik_State_Penalty>  (6) 
0.98980000000000001

>  <r_i_docking_score>  (6) 
-3.34092399123274

>  <r_i_glide_ecoul>  (6) 
-7.8366441726684597

>  <r_i_glide_eff_state_penalty>  (6) 
0.98980000000000001

>  <r_i_glide_einternal>  (6) 
14.151297569274901

>  <r_i_glide_emodel>  (6) 
-42.531361790977101

>  <r_i_glide_energy>  (6) 
-38.506619453430197

>  <r_i_glide_erotb>  (6) 
0.55698605746539998

>  <r_i_glide_esite>  (6) 
0

>  <r_i_glide_evdw>  (6) 
-30.669975280761701

>  <r_i_glide_gscore>  (6) 
-4.3307239912327402

>  <r_i_glide_hbond>  (6) 
-0.32000000000000001

>  <r_i_glide_ligand_efficiency>  (6) 
-0.111364133041091

>  <r_i_glide_ligand_efficiency_ln>  (6) 
-0.75909433309055596

>  <r_i_glide_ligand_efficiency_sa>  (6) 
-0.34603425379033897

>  <r_i_glide_lipo>  (6) 
-1.2924114769416

>  <r_i_glide_metal>  (6) 
-0

>  <r_i_glide_rewards>  (6) 
-0.56630318181817996

>  <r_lp_Energy>  (6) 
30.137931999999999

>  <r_qp_ACxDN^.5/SA>  (6) 
0.0095093

>  <r_qp_CIQPlogS>  (6) 
-6.1870000000000003

>  <r_qp_EA(eV)>  (6) 
0.90400000000000003

>  <r_qp_FISA>  (6) 
59.133000000000003

>  <r_qp_FOSA>  (6) 
159.273

>  <r_qp_IP(eV)>  (6) 
8.782

>  <r_qp_Jm>  (6) 
0.24428252258288399

>  <r_qp_PISA>  (6) 
370.79000000000002

>  <r_qp_PSA>  (6) 
43.204000000000001

>  <r_qp_PercentHumanOralAbsorption>  (6) 
100

>  <r_qp_QPPCaco>  (6) 
679.26599999999996

>  <r_qp_QPPMDCK>  (6) 
563.30399999999997

>  <r_qp_QPlogBB>  (6) 
0.069000000000000006

>  <r_qp_QPlogHERG>  (6) 
-5.8140000000000001

>  <r_qp_QPlogKhsa>  (6) 
0.77300000000000002

>  <r_qp_QPlogKp>  (6) 
-2.5979999999999999

>  <r_qp_QPlogPC16>  (6) 
13.446999999999999

>  <r_qp_QPlogPo/w>  (6) 
4.7389999999999999

>  <r_qp_QPlogPoct>  (6) 
19.097999999999999

>  <r_qp_QPlogPw>  (6) 
9.4610000000000003

>  <r_qp_QPlogS>  (6) 
-3.6349999999999998

>  <r_qp_QPpolrz>  (6) 
41.533000000000001

>  <r_qp_SASA>  (6) 
624.62199999999996

>  <r_qp_SAamideO>  (6) 
0

>  <r_qp_SAfluorine>  (6) 
0

>  <r_qp_WPSA>  (6) 
35.424999999999997

>  <r_qp_accptHB>  (6) 
4.2000000000000002

>  <r_qp_dip^2/V>  (6) 
0.0025552000000000001

>  <r_qp_dipole>  (6) 
1.774

>  <r_qp_donorHB>  (6) 
2

>  <r_qp_glob>  (6) 
0.88952350000000002

>  <r_qp_mol_MW>  (6) 
416.94900000000001

>  <r_qp_volume>  (6) 
1231.443

>  <r_sd_BIOSOLVEIT.INFINISEE\_FTREES\_SIMILARITY>  (6) 
0.91800000000000004

>  <r_sd_BIOSOLVEIT.LOGP>  (6) 
4.5306199999999999

>  <r_sd_BIOSOLVEIT.MOLECULAR\_WEIGHT>  (6) 
417.95699999999999

>  <r_sd_BIOSOLVEIT.TPSA>  (6) 
49.729999999999997

>  <i_epik_Tot_Q>  (6) 
0

>  <i_epik_Tot_abs_Q>  (6) 
0

>  <i_f3d_flags>  (6) 
0

>  <i_i_glide_confnum>  (6) 
5

>  <i_i_glide_lignum>  (6) 
180

>  <i_i_glide_posenum>  (6) 
1

>  <i_i_glide_rotatable_bonds>  (6) 
8

>  <i_lp_mmshare_version>  (6) 
65135

>  <i_m_ct_format>  (6) 
2

>  <i_m_source_file_index>  (6) 
936

>  <i_qp_#NandO>  (6) 
3

>  <i_qp_#acid>  (6) 
0

>  <i_qp_#amide>  (6) 
0

>  <i_qp_#amidine>  (6) 
0

>  <i_qp_#amine>  (6) 
1

>  <i_qp_#in34>  (6) 
0

>  <i_qp_#in56>  (6) 
22

>  <i_qp_#metab>  (6) 
5

>  <i_qp_#nonHatm>  (6) 
30

>  <i_qp_#noncon>  (6) 
0

>  <i_qp_#ringatoms>  (6) 
22

>  <i_qp_#rotor>  (6) 
8

>  <i_qp_#rtvFG>  (6) 
0

>  <i_qp_#stars>  (6) 
0

>  <i_qp_CNS>  (6) 
1

>  <i_qp_HumanOralAbsorption>  (6) 
3

>  <i_qp_RuleOfFive>  (6) 
0

>  <i_qp_RuleOfThree>  (6) 
0

>  <i_sd_BIOSOLVEIT.INFINISEE\_REAGENT1\_NAME>  (6) 
22404310

>  <i_sd_BIOSOLVEIT.INFINISEE\_REAGENT2\_NAME>  (6) 
7471132

>  <i_sd_BIOSOLVEIT.INFINISEE\_RESULT\_RANK>  (6) 
21438

>  <i_sd_version>  (6) 
0

>  <b_lp_Chiralities_Consistent>  (6) 
1

>  <b_sd_chiral_flag>  (6) 
0

>  <canonical_id>  (6) 
ATP-HTVS-0079D40D2121

>  <compound_code>  (6) 
29921

>  <title>  (6) 
m_2230bbb____22404310____7471132

>  <variant>  (6) 
29921-4

>  <source_file>  (6) 
运行/运行/ATP-VSW/ATP-VSW-DOCK_HTVS_1-001_lib/ATP-VSW-DOCK_HTVS_1-001_lib

>  <canonical_smiles>  (6) 
Cc1ccccc1C[C@@H](CO)NCc1nc2ccccc2c(-c2ccccc2)c1Cl

>  <scaffold>  (6) 
c1ccc(CCNCc2cc(-c3ccccc3)c3ccccc3n2)cc1

>  <molecular_formula>  (6) 
C26H25ClN2O

$$$$
ATP-HTVS-007D6F34F923
     RDKit          3D

 65 68  0  0  0  0  0  0  0  0999 V2000
  199.9351  186.6063  156.6512 O   0  0  0  0  0  0  0  0  0  0  0  0
  198.5330  186.7226  156.7361 C   0  0  1  0  0  0  0  0  0  0  0  0
  197.8011  185.5686  156.0106 C   0  0  1  0  0  0  0  0  0  0  0  0
  197.9647  185.5623  154.4694 C   0  0  2  0  0  0  0  0  0  0  0  0
  197.1759  184.5010  153.8423 N   0  0  0  0  0  0  0  0  0  0  0  0
  197.3281  184.2045  152.4659 C   0  0  0  0  0  0  0  0  0  0  0  0
  197.9220  185.1340  151.6826 N   0  0  0  0  0  0  0  0  0  0  0  0
  198.1852  184.8204  150.4086 C   0  0  0  0  0  0  0  0  0  0  0  0
  197.7911  183.5682  149.8582 C   0  0  0  0  0  0  0  0  0  0  0  0
  197.1641  182.6423  150.6174 N   0  0  0  0  0  0  0  0  0  0  0  0
  196.9472  182.9381  151.9259 C   0  0  0  0  0  0  0  0  0  0  0  0
  196.3357  181.9628  152.6623 N   0  0  0  0  0  0  0  0  0  0  0  0
  196.5940  180.5478  152.4999 C   0  0  1  0  0  0  0  0  0  0  0  0
  198.0005  180.0883  152.8895 C   0  0  0  0  0  0  0  0  0  0  0  0
  198.3251  179.5871  154.1856 C   0  0  0  0  0  0  0  0  0  0  0  0
  199.6551  179.1880  154.4489 C   0  0  0  0  0  0  0  0  0  0  0  0
  200.6583  179.3110  153.4710 C   0  0  0  0  0  0  0  0  0  0  0  0
  200.3371  179.8242  152.2043 C   0  0  0  0  0  0  0  0  0  0  0  0
  199.0198  180.2139  151.9205 C   0  0  0  0  0  0  0  0  0  0  0  0
  197.2938  179.4382  155.3061 C   0  0  1  0  0  0  0  0  0  0  0  0
  197.1644  180.6427  156.1647 N   0  0  2  0  0  0  0  0  0  0  0  0
  196.4991  181.7767  155.5313 C   0  0  2  0  0  0  0  0  0  0  0  0
  198.4362  181.0687  156.7769 C   0  0  2  0  0  0  0  0  0  0  0  0
  198.0536  183.2753  148.5207 C   0  0  0  0  0  0  0  0  0  0  0  0
  198.7016  184.2110  147.6963 C   0  0  0  0  0  0  0  0  0  0  0  0
  199.1219  185.4369  148.2418 C   0  0  0  0  0  0  0  0  0  0  0  0
  198.8704  185.7388  149.5887 C   0  0  0  0  0  0  0  0  0  0  0  0
  199.4384  185.4990  154.0985 C   0  0  0  0  0  0  0  0  0  0  0  0
  200.0847  186.6445  153.5847 C   0  0  0  0  0  0  0  0  0  0  0  0
  201.4469  186.5845  153.2361 C   0  0  0  0  0  0  0  0  0  0  0  0
  202.1623  185.3821  153.4033 C   0  0  0  0  0  0  0  0  0  0  0  0
  201.5203  184.2390  153.9192 C   0  0  0  0  0  0  0  0  0  0  0  0
  200.1604  184.3001  154.2708 C   0  0  0  0  0  0  0  0  0  0  0  0
  200.1583  186.4986  155.7351 H   0  0  0  0  0  0  0  0  0  0  0  0
  198.2856  186.7337  157.8005 H   0  0  0  0  0  0  0  0  0  0  0  0
  198.2375  187.6885  156.3177 H   0  0  0  0  0  0  0  0  0  0  0  0
  198.1206  184.6156  156.4317 H   0  0  0  0  0  0  0  0  0  0  0  0
  196.7500  185.6585  156.2536 H   0  0  0  0  0  0  0  0  0  0  0  0
  197.5613  186.5060  154.1007 H   0  0  0  0  0  0  0  0  0  0  0  0
  196.8573  183.7773  154.4661 H   0  0  0  0  0  0  0  0  0  0  0  0
  196.0691  182.2760  153.6502 H   0  0  0  0  0  0  0  0  0  0  0  0
  195.8451  180.0012  153.0709 H   0  0  0  0  0  0  0  0  0  0  0  0
  196.3961  180.2564  151.4475 H   0  0  0  0  0  0  0  0  0  0  0  0
  199.9270  178.7916  155.4143 H   0  0  0  0  0  0  0  0  0  0  0  0
  201.6794  179.0227  153.6913 H   0  0  0  0  0  0  0  0  0  0  0  0
  201.0936  179.9117  151.4438 H   0  0  0  0  0  0  0  0  0  0  0  0
  198.7769  180.5903  150.9404 H   0  0  0  0  0  0  0  0  0  0  0  0
  196.3223  179.1384  154.9125 H   0  0  0  0  0  0  0  0  0  0  0  0
  197.5900  178.5952  155.9303 H   0  0  0  0  0  0  0  0  0  0  0  0
  197.1614  182.1069  154.7433 H   0  0  0  0  0  0  0  0  0  0  0  0
  196.2815  182.5996  156.2280 H   0  0  0  0  0  0  0  0  0  0  0  0
  195.5615  181.4481  155.0938 H   0  0  0  0  0  0  0  0  0  0  0  0
  199.1523  181.3763  156.0171 H   0  0  0  0  0  0  0  0  0  0  0  0
  198.8766  180.2679  157.3738 H   0  0  0  0  0  0  0  0  0  0  0  0
  198.2818  181.9311  157.4213 H   0  0  0  0  0  0  0  0  0  0  0  0
  197.7373  182.3240  148.1287 H   0  0  0  0  0  0  0  0  0  0  0  0
  198.8723  183.9749  146.6543 H   0  0  0  0  0  0  0  0  0  0  0  0
  199.6256  186.1590  147.6089 H   0  0  0  0  0  0  0  0  0  0  0  0
  199.1963  186.6804  150.0108 H   0  0  0  0  0  0  0  0  0  0  0  0
  199.5340  187.5654  153.4549 H   0  0  0  0  0  0  0  0  0  0  0  0
  201.9409  187.4630  152.8480 H   0  0  0  0  0  0  0  0  0  0  0  0
  203.2075  185.3363  153.1366 H   0  0  0  0  0  0  0  0  0  0  0  0
  202.0666  183.3172  154.0502 H   0  0  0  0  0  0  0  0  0  0  0  0
  199.6671  183.4254  154.6669 H   0  0  0  0  0  0  0  0  0  0  0  0
  196.5626  180.3062  156.9197 H   0  0  0  0  0  0  0  0  0  0  0  0
  1  2  1  0
  1 34  1  0
  2  3  1  0
  2 35  1  1
  2 36  1  0
  3  4  1  0
  3 37  1  1
  3 38  1  0
  4  5  1  0
  4 28  1  0
  4 39  1  6
  5  6  1  0
  5 40  1  0
  6  7  2  0
  6 11  1  0
  7  8  1  0
  8  9  1  0
  8 27  2  0
  9 10  1  0
  9 24  2  0
 10 11  2  0
 11 12  1  0
 12 13  1  0
 12 41  1  0
 13 14  1  0
 13 42  1  1
 13 43  1  0
 14 15  1  0
 14 19  2  0
 15 16  2  0
 15 20  1  0
 16 17  1  0
 16 44  1  0
 17 18  2  0
 17 45  1  0
 18 19  1  0
 18 46  1  0
 19 47  1  0
 20 21  1  0
 20 48  1  6
 20 49  1  0
 21 22  1  0
 21 23  1  0
 21 65  1  1
 22 50  1  6
 22 51  1  0
 22 52  1  0
 23 53  1  6
 23 54  1  0
 23 55  1  0
 24 25  1  0
 24 56  1  0
 25 26  2  0
 25 57  1  0
 26 27  1  0
 26 58  1  0
 27 59  1  0
 28 29  2  0
 28 33  1  0
 29 30  1  0
 29 60  1  0
 30 31  2  0
 30 61  1  0
 31 32  1  0
 31 62  1  0
 32 33  2  0
 32 63  1  0
 33 64  1  0
M  CHG  1  21   1
M  END
>  <s_epik_cmdline>  (7) 
J2VwaWtfcHl0aG9uJywgJy1waCcsICc3LjAwMDAwMCcsICctcGh0JywgJzIuMDAwMDAwJywgJy1tcycsICcxNicsICctdG4nLCAnOCcsICctbWEnLCAnMjAwJywgJy1pbWFlJywgJzxpbmZpbGUubWFlPicsICctb21hZScsICc8b3V0ZmlsZS5tYWU+Jw==

>  <s_epik_input>  (7) 
W2NIXTFbY0hdW2NIXVtjSF1bY0hdYzFbQ0BIXShbQ0gyXVtDSDJdW09IXSlbTkhdYyhuMiljKG5jKGMyMylbY0hdW2NIXVtjSF1bY0hdMylbTkhdW0NIMl1jNGMoW0NIMl1OKFtDSDNdKVtDSDNdKVtjSF1bY0hdW2NIXVtjSF00

>  <s_i_glide_gridfile>  (7) 
ATP-Grid

>  <s_lp_Force_Field>  (7) 
OPLS_2005

>  <s_lp_Variant>  (7) 
m_282030aaa____21928560____23157418____21973156-2

>  <s_lp_label>  (7) 
964_sdstereoexpander_2_neutralizer_1_epik_1_stereoizer_1

>  <s_m_source_file>  (7) 
ATP-VSW-LIGPREP-001-in.maegz

>  <s_sd_BIOSOLVEIT.INFINISEE\_QUERY\_NAME>  (7) 
Ref-Lig

>  <s_sd_BIOSOLVEIT.INFINISEE\_QUERY\_SMILES>  (7) 
S(c1nc2c(cc1C[NH2+]Cc3ccc(cc3)C[NH+](C)C)cccc2)Cc4ccccc4

>  <s_sd_BIOSOLVEIT.INFINISEE\_REACTION\_NAME>  (7) 
m_282030aaa

>  <s_sd_BIOSOLVEIT.INFINISEE\_REAGENT1\_SMILES>  (7) 
[R1*]NC(c1ccccc1)CCO

>  <s_sd_BIOSOLVEIT.INFINISEE\_REAGENT2\_SMILES>  (7) 
[R1*]c1nc2c(nc1[R2*])cccc2

>  <s_sd_BIOSOLVEIT.INFINISEE\_REAGENT3\_SMILES>  (7) 
[R2*]NCc1c(cccc1)CN(C)C

>  <s_sd_BIOSOLVEIT.INFINISEE\_SPACE>  (7) 
REALSpace_44bn_2023-08

>  <s_vsw_compound_code>  (7) 
30817

>  <s_vsw_variant>  (7) 
30817-2

>  <r_epik_Charging_Adjusted_Penalty>  (7) 
0.076612674508475406

>  <r_epik_Ionization_Penalty>  (7) 
0.038600000000000002

>  <r_epik_Ionization_Penalty_Charging>  (7) 
0.038300000000000001

>  <r_epik_Ionization_Penalty_Neutral>  (7) 
0.00029999999999999997

>  <r_epik_State_Penalty>  (7) 
0.038300000000000001

>  <r_i_docking_score>  (7) 
-3.4850388695677998

>  <r_i_glide_ecoul>  (7) 
-8.9830865859985405

>  <r_i_glide_eff_state_penalty>  (7) 
0.038300000000000001

>  <r_i_glide_einternal>  (7) 
3.32747554779053

>  <r_i_glide_emodel>  (7) 
-45.010495636189198

>  <r_i_glide_energy>  (7) 
-34.608296394348102

>  <r_i_glide_erotb>  (7) 
0.91824879854150698

>  <r_i_glide_esite>  (7) 
-0.16989998558983399

>  <r_i_glide_evdw>  (7) 
-25.625209808349599

>  <r_i_glide_gscore>  (7) 
-3.5233388695677998

>  <r_i_glide_hbond>  (7) 
-0.20000000000000001

>  <r_i_glide_ligand_efficiency>  (7) 
-0.105607238471752

>  <r_i_glide_ligand_efficiency_ln>  (7) 
-0.77505460002633697

>  <r_i_glide_ligand_efficiency_sa>  (7) 
-0.33873884249939801

>  <r_i_glide_lipo>  (7) 
-0.82643611329312405

>  <r_i_glide_metal>  (7) 
-0

>  <r_i_glide_rewards>  (7) 
-0.61652809090909

>  <r_lp_Energy>  (7) 
28.510359000000001

>  <r_qp_ACxDN^.5/SA>  (7) 
0.015868199999999999

>  <r_qp_CIQPlogS>  (7) 
-5.6399999999999997

>  <r_qp_EA(eV)>  (7) 
0.85799999999999998

>  <r_qp_FISA>  (7) 
85.221999999999994

>  <r_qp_FOSA>  (7) 
253.375

>  <r_qp_IP(eV)>  (7) 
8.3070000000000004

>  <r_qp_Jm>  (7) 
0.098428495696484597

>  <r_qp_PISA>  (7) 
392.72500000000002

>  <r_qp_PSA>  (7) 
66.611999999999995

>  <r_qp_PercentHumanOralAbsorption>  (7) 
100

>  <r_qp_QPPCaco>  (7) 
384.27600000000001

>  <r_qp_QPPMDCK>  (7) 
194.661

>  <r_qp_QPlogBB>  (7) 
-0.52200000000000002

>  <r_qp_QPlogHERG>  (7) 
-6.8479999999999999

>  <r_qp_QPlogKhsa>  (7) 
0.58999999999999997

>  <r_qp_QPlogKp>  (7) 
-2.7130000000000001

>  <r_qp_QPlogPC16>  (7) 
15.32

>  <r_qp_QPlogPo/w>  (7) 
4.3879999999999999

>  <r_qp_QPlogPoct>  (7) 
23.677

>  <r_qp_QPlogPw>  (7) 
13.297000000000001

>  <r_qp_QPlogS>  (7) 
-3.9390000000000001

>  <r_qp_QPpolrz>  (7) 
47.020000000000003

>  <r_qp_SASA>  (7) 
731.322

>  <r_qp_SAamideO>  (7) 
0

>  <r_qp_SAfluorine>  (7) 
0

>  <r_qp_WPSA>  (7) 
0

>  <r_qp_accptHB>  (7) 
6.7000000000000002

>  <r_qp_dip^2/V>  (7) 
0.010349499999999999

>  <r_qp_dipole>  (7) 
3.8220000000000001

>  <r_qp_donorHB>  (7) 
3

>  <r_qp_glob>  (7) 
0.83208409999999999

>  <r_qp_mol_MW>  (7) 
441.57499999999999

>  <r_qp_volume>  (7) 
1411.452

>  <r_sd_BIOSOLVEIT.INFINISEE\_FTREES\_SIMILARITY>  (7) 
0.91700000000000004

>  <r_sd_BIOSOLVEIT.LOGP>  (7) 
3.4220000000000002

>  <r_sd_BIOSOLVEIT.MOLECULAR\_WEIGHT>  (7) 
442.584

>  <r_sd_BIOSOLVEIT.TPSA>  (7) 
74.510000000000005

>  <i_epik_Tot_Q>  (7) 
1

>  <i_epik_Tot_abs_Q>  (7) 
1

>  <i_f3d_flags>  (7) 
0

>  <i_i_glide_confnum>  (7) 
11

>  <i_i_glide_lignum>  (7) 
197

>  <i_i_glide_posenum>  (7) 
17

>  <i_i_glide_rotatable_bonds>  (7) 
11

>  <i_lp_mmshare_version>  (7) 
65135

>  <i_m_ct_format>  (7) 
2

>  <i_m_source_file_index>  (7) 
964

>  <i_qp_#NandO>  (7) 
6

>  <i_qp_#acid>  (7) 
0

>  <i_qp_#amide>  (7) 
0

>  <i_qp_#amidine>  (7) 
0

>  <i_qp_#amine>  (7) 
1

>  <i_qp_#in34>  (7) 
0

>  <i_qp_#in56>  (7) 
22

>  <i_qp_#metab>  (7) 
6

>  <i_qp_#nonHatm>  (7) 
33

>  <i_qp_#noncon>  (7) 
0

>  <i_qp_#ringatoms>  (7) 
22

>  <i_qp_#rotor>  (7) 
11

>  <i_qp_#rtvFG>  (7) 
0

>  <i_qp_#stars>  (7) 
0

>  <i_qp_CNS>  (7) 
0

>  <i_qp_HumanOralAbsorption>  (7) 
3

>  <i_qp_RuleOfFive>  (7) 
0

>  <i_qp_RuleOfThree>  (7) 
0

>  <i_sd_BIOSOLVEIT.INFINISEE\_REAGENT1\_NAME>  (7) 
21928560

>  <i_sd_BIOSOLVEIT.INFINISEE\_REAGENT2\_NAME>  (7) 
23157418

>  <i_sd_BIOSOLVEIT.INFINISEE\_REAGENT3\_NAME>  (7) 
21973156

>  <i_sd_BIOSOLVEIT.INFINISEE\_RESULT\_RANK>  (7) 
23511

>  <i_sd_version>  (7) 
0

>  <b_lp_Chiralities_Consistent>  (7) 
1

>  <b_sd_chiral_flag>  (7) 
0

>  <canonical_id>  (7) 
ATP-HTVS-007D6F34F923

>  <compound_code>  (7) 
30817

>  <title>  (7) 
m_282030aaa____21928560____23157418____21973156

>  <variant>  (7) 
30817-2

>  <source_file>  (7) 
运行/运行/ATP-VSW/ATP-VSW-DOCK_HTVS_1-001_lib/ATP-VSW-DOCK_HTVS_1-001_lib

>  <canonical_smiles>  (7) 
C[NH+](C)Cc1ccccc1CNc1nc2ccccc2nc1N[C@@H](CCO)c1ccccc1

>  <scaffold>  (7) 
c1ccc(CNc2nc3ccccc3nc2NCc2ccccc2)cc1

>  <molecular_formula>  (7) 
C27H32N5O+

$$$$
ATP-HTVS-00C8034698A8
     RDKit          3D

 56 59  0  0  0  0  0  0  0  0999 V2000
  200.6799  183.2363  158.9515 O   0  0  0  0  0  0  0  0  0  0  0  0
  199.6379  184.1260  158.9796 C   0  0  0  0  0  0  0  0  0  0  0  0
  198.3611  183.6380  158.4534 C   0  0  0  0  0  0  0  0  0  0  0  0
  198.2502  182.7759  157.4435 N   0  0  0  0  0  0  0  0  0  0  0  0
  196.9012  182.5295  157.2197 C   0  0  0  0  0  0  0  0  0  0  0  0
  196.1698  183.2383  158.1262 C   0  0  0  0  0  0  0  0  0  0  0  0
  197.0930  183.9531  158.9188 N   0  0  0  0  0  0  0  0  0  0  0  0
  196.6927  184.7717  159.9249 C   0  0  0  0  0  0  0  0  0  0  0  0
  195.3425  184.9301  160.1680 C   0  0  0  0  0  0  0  0  0  0  0  0
  194.3856  184.2365  159.3893 C   0  0  0  0  0  0  0  0  0  0  0  0
  194.7845  183.4056  158.3810 C   0  0  0  0  0  0  0  0  0  0  0  0
  196.4486  181.6608  156.0997 C   0  0  1  0  0  0  0  0  0  0  0  0
  197.1717  180.3769  156.1327 N   0  0  1  0  0  0  0  0  0  0  0  0
  197.1766  179.6406  154.8641 C   0  0  1  0  0  0  0  0  0  0  0  0
  198.0172  180.3378  153.7639 C   0  0  1  0  0  0  0  0  0  0  0  0
  197.7663  179.7356  152.4018 C   0  0  0  0  0  0  0  0  0  0  0  0
  196.7093  180.2058  151.5927 C   0  0  0  0  0  0  0  0  0  0  0  0
  196.5151  179.6776  150.3041 C   0  0  0  0  0  0  0  0  0  0  0  0
  197.3521  178.6373  149.8213 C   0  0  0  0  0  0  0  0  0  0  0  0
  198.3575  178.1205  150.6824 C   0  0  0  0  0  0  0  0  0  0  0  0
  198.5982  178.6942  151.9233 C   0  0  0  0  0  0  0  0  0  0  0  0
  197.1697  178.0602  148.4238 C   0  0  1  0  0  0  0  0  0  0  0  0
  198.2513  178.4421  147.4647 N   0  0  2  0  0  0  0  0  0  0  0  0
  197.8829  178.1388  146.0573 C   0  0  2  0  0  0  0  0  0  0  0  0
  199.5955  177.8922  147.8005 C   0  0  2  0  0  0  0  0  0  0  0  0
  200.0429  185.3010  159.5249 C   0  0  0  0  0  0  0  0  0  0  0  0
  201.4220  185.1568  159.8430 C   0  0  0  0  0  0  0  0  0  0  0  0
  201.7562  183.8878  159.4691 C   0  0  0  0  0  0  0  0  0  0  0  0
  198.1160  180.5204  156.4583 H   0  0  0  0  0  0  0  0  0  0  0  0
  197.4567  185.2675  160.5195 H   0  0  0  0  0  0  0  0  0  0  0  0
  195.0151  185.5837  160.9658 H   0  0  0  0  0  0  0  0  0  0  0  0
  193.3251  184.3794  159.5786 H   0  0  0  0  0  0  0  0  0  0  0  0
  194.0580  182.8929  157.7396 H   0  0  0  0  0  0  0  0  0  0  0  0
  195.3843  181.4343  156.1655 H   0  0  0  0  0  0  0  0  0  0  0  0
  196.5960  182.2128  155.1685 H   0  0  0  0  0  0  0  0  0  0  0  0
  197.5677  178.6349  155.0445 H   0  0  0  0  0  0  0  0  0  0  0  0
  196.1477  179.5018  154.5333 H   0  0  0  0  0  0  0  0  0  0  0  0
  197.7980  181.4000  153.6555 H   0  0  0  0  0  0  0  0  0  0  0  0
  199.0791  180.2598  154.0163 H   0  0  0  0  0  0  0  0  0  0  0  0
  196.0469  180.9817  151.9649 H   0  0  0  0  0  0  0  0  0  0  0  0
  195.7039  180.0644  149.6944 H   0  0  0  0  0  0  0  0  0  0  0  0
  198.9839  177.2939  150.3523 H   0  0  0  0  0  0  0  0  0  0  0  0
  199.4267  178.3544  152.5345 H   0  0  0  0  0  0  0  0  0  0  0  0
  197.0738  176.9743  148.4910 H   0  0  0  0  0  0  0  0  0  0  0  0
  196.2117  178.4131  148.0358 H   0  0  0  0  0  0  0  0  0  0  0  0
  197.6868  177.0934  145.9523 H   0  0  0  0  0  0  0  0  0  0  0  0
  198.7001  178.3917  145.3783 H   0  0  0  0  0  0  0  0  0  0  0  0
  196.9837  178.6615  145.7262 H   0  0  0  0  0  0  0  0  0  0  0  0
  199.5396  176.7995  147.8628 H   0  0  0  0  0  0  0  0  0  0  0  0
  199.9684  178.2721  148.7390 H   0  0  0  0  0  0  0  0  0  0  0  0
  200.3206  178.1268  146.9967 H   0  0  0  0  0  0  0  0  0  0  0  0
  199.4326  186.1869  159.6765 H   0  0  0  0  0  0  0  0  0  0  0  0
  202.0889  185.8853  160.2767 H   0  0  0  0  0  0  0  0  0  0  0  0
  202.6734  183.3167  159.4914 H   0  0  0  0  0  0  0  0  0  0  0  0
  196.6786  179.7992  156.8392 H   0  0  0  0  0  0  0  0  0  0  0  0
  198.3322  179.4480  147.5090 H   0  0  0  0  0  0  0  0  0  0  0  0
  1  2  1  0
  1 28  1  0
  2  3  1  0
  2 26  2  0
  3  4  2  0
  3  7  1  0
  4  5  1  0
  5  6  2  0
  5 12  1  0
  6  7  1  0
  6 11  1  0
  7  8  1  0
  8  9  2  0
  8 30  1  0
  9 10  1  0
  9 31  1  0
 10 11  2  0
 10 32  1  0
 11 33  1  0
 12 13  1  0
 12 34  1  1
 12 35  1  0
 13 14  1  0
 13 29  1  1
 13 55  1  0
 14 15  1  0
 14 36  1  1
 14 37  1  0
 15 16  1  0
 15 38  1  6
 15 39  1  0
 16 17  1  0
 16 21  2  0
 17 18  2  0
 17 40  1  0
 18 19  1  0
 18 41  1  0
 19 20  2  0
 19 22  1  0
 20 21  1  0
 20 42  1  0
 21 43  1  0
 22 23  1  0
 22 44  1  1
 22 45  1  0
 23 24  1  0
 23 25  1  0
 23 56  1  6
 24 46  1  1
 24 47  1  0
 24 48  1  0
 25 49  1  1
 25 50  1  0
 25 51  1  0
 26 27  1  0
 26 52  1  0
 27 28  2  0
 27 53  1  0
 28 54  1  0
M  CHG  2  13   1  23   1
M  END
>  <s_epik_cmdline>  (8) 
J2VwaWtfcHl0aG9uJywgJy1waCcsICc3LjAwMDAwMCcsICctcGh0JywgJzIuMDAwMDAwJywgJy1tcycsICcxNicsICctdG4nLCAnOCcsICctbWEnLCAnMjAwJywgJy1pbWFlJywgJzxpbmZpbGUubWFlPicsICctb21hZScsICc8b3V0ZmlsZS5tYWU+Jw==

>  <s_epik_input>  (8) 
W2NIXTFbY0hdW2NIXVtjSF1uKGMxMiljKC1jM29bY0hdW2NIXVtjSF0zKW5jMltDSDJdW05IXVtDSDJdW0NIMl1jNFtjSF1bY0hdYyhbY0hdW2NIXTQpW0NIMl1OKFtDSDNdKVtDSDNd

>  <s_i_glide_gridfile>  (8) 
ATP-Grid

>  <s_lp_Force_Field>  (8) 
OPLS_2005

>  <s_lp_Variant>  (8) 
m_270004bbb____15775648____24720718-1

>  <s_lp_label>  (8) 
1076_sdstereoexpander_1_neutralizer_1_epik_1_stereoizer_1

>  <s_m_source_file>  (8) 
ATP-VSW-LIGPREP-003-in.maegz

>  <s_sd_BIOSOLVEIT.INFINISEE\_QUERY\_NAME>  (8) 
Ref-Lig

>  <s_sd_BIOSOLVEIT.INFINISEE\_QUERY\_SMILES>  (8) 
S(c1nc2c(cc1C[NH2+]Cc3ccc(cc3)C[NH+](C)C)cccc2)Cc4ccccc4

>  <s_sd_BIOSOLVEIT.INFINISEE\_REACTION\_NAME>  (8) 
m_270004bbb

>  <s_sd_BIOSOLVEIT.INFINISEE\_REAGENT1\_SMILES>  (8) 
[R1*]NCCc1ccc(cc1)CN(C)C

>  <s_sd_BIOSOLVEIT.INFINISEE\_REAGENT2\_SMILES>  (8) 
[R1*]CC=1N=C(N2C1C=CC=C2)C=3OC=CC3

>  <s_sd_BIOSOLVEIT.INFINISEE\_SPACE>  (8) 
REALSpace_44bn_2023-08

>  <s_vsw_compound_code>  (8) 
34403

>  <s_vsw_variant>  (8) 
34403-1

>  <r_epik_Charging_Adjusted_Penalty>  (8) 
0.0980711441515245

>  <r_epik_Ionization_Penalty>  (8) 
0.0579

>  <r_epik_Ionization_Penalty_Charging>  (8) 
0.049299999999999997

>  <r_epik_Ionization_Penalty_Neutral>  (8) 
0.0086

>  <r_epik_State_Penalty>  (8) 
0.048800000000000003

>  <r_i_docking_score>  (8) 
-5.8116396328102704

>  <r_i_glide_ecoul>  (8) 
-12.815575599670399

>  <r_i_glide_eff_state_penalty>  (8) 
0.048800000000000003

>  <r_i_glide_einternal>  (8) 
5.0102782249450701

>  <r_i_glide_emodel>  (8) 
-67.437050810191906

>  <r_i_glide_energy>  (8) 
-44.608736991882303

>  <r_i_glide_erotb>  (8) 
0.95597679005506297

>  <r_i_glide_esite>  (8) 
-0.10000000000000001

>  <r_i_glide_evdw>  (8) 
-31.7931613922119

>  <r_i_glide_gscore>  (8) 
-5.8604396328102704

>  <r_i_glide_hbond>  (8) 
-0.20000000000000001

>  <r_i_glide_ligand_efficiency>  (8) 
-0.207558558314652

>  <r_i_glide_ligand_efficiency_ln>  (8) 
-1.34149706440688

>  <r_i_glide_ligand_efficiency_sa>  (8) 
-0.63027002849662195

>  <r_i_glide_lipo>  (8) 
-1.7645985488312299

>  <r_i_glide_metal>  (8) 
-0

>  <r_i_glide_rewards>  (8) 
-1.23982346447294

>  <r_lp_Energy>  (8) 
19.493068999999998

>  <r_qp_ACxDN^.5/SA>  (8) 
0.0074650000000000003

>  <r_qp_CIQPlogS>  (8) 
-3.7320000000000002

>  <r_qp_EA(eV)>  (8) 
0.63

>  <r_qp_FISA>  (8) 
24.707000000000001

>  <r_qp_FOSA>  (8) 
285.76100000000002

>  <r_qp_IP(eV)>  (8) 
8.2110000000000003

>  <r_qp_Jm>  (8) 
0.0038193300790659202

>  <r_qp_PISA>  (8) 
426.303

>  <r_qp_PSA>  (8) 
40.131

>  <r_qp_PercentHumanOralAbsorption>  (8) 
100

>  <r_qp_QPPCaco>  (8) 
359.25599999999997

>  <r_qp_QPPMDCK>  (8) 
200.24199999999999

>  <r_qp_QPlogBB>  (8) 
0.67000000000000004

>  <r_qp_QPlogHERG>  (8) 
-8.5310000000000006

>  <r_qp_QPlogKhsa>  (8) 
0.77000000000000002

>  <r_qp_QPlogKp>  (8) 
-3.9260000000000002

>  <r_qp_QPlogPC16>  (8) 
13.826000000000001

>  <r_qp_QPlogPo/w>  (8) 
4.4189999999999996

>  <r_qp_QPlogPoct>  (8) 
19.173999999999999

>  <r_qp_QPlogPw>  (8) 
9.8979999999999997

>  <r_qp_QPlogS>  (8) 
-4.0650000000000004

>  <r_qp_QPpolrz>  (8) 
45.548000000000002

>  <r_qp_SASA>  (8) 
736.77099999999996

>  <r_qp_SAamideO>  (8) 
0

>  <r_qp_SAfluorine>  (8) 
0

>  <r_qp_WPSA>  (8) 
0

>  <r_qp_accptHB>  (8) 
5.5

>  <r_qp_dip^2/V>  (8) 
0.0061349999999999998

>  <r_qp_dipole>  (8) 
2.827

>  <r_qp_donorHB>  (8) 
1

>  <r_qp_glob>  (8) 
0.78285490000000002

>  <r_qp_mol_MW>  (8) 
374.48500000000001

>  <r_qp_volume>  (8) 
1302.4849999999999

>  <r_sd_BIOSOLVEIT.INFINISEE\_FTREES\_SIMILARITY>  (8) 
0.91400000000000003

>  <r_sd_BIOSOLVEIT.LOGP>  (8) 
1.5448999999999999

>  <r_sd_BIOSOLVEIT.MOLECULAR\_WEIGHT>  (8) 
376.50099999999998

>  <r_sd_BIOSOLVEIT.TPSA>  (8) 
52.009999999999998

>  <i_epik_Tot_Q>  (8) 
2

>  <i_epik_Tot_abs_Q>  (8) 
2

>  <i_f3d_flags>  (8) 
0

>  <i_i_glide_confnum>  (8) 
6

>  <i_i_glide_lignum>  (8) 
400

>  <i_i_glide_posenum>  (8) 
10

>  <i_i_glide_rotatable_bonds>  (8) 
8

>  <i_lp_mmshare_version>  (8) 
65135

>  <i_m_ct_format>  (8) 
2

>  <i_m_source_file_index>  (8) 
1076

>  <i_qp_#NandO>  (8) 
5

>  <i_qp_#acid>  (8) 
0

>  <i_qp_#amide>  (8) 
0

>  <i_qp_#amidine>  (8) 
0

>  <i_qp_#amine>  (8) 
2

>  <i_qp_#in34>  (8) 
0

>  <i_qp_#in56>  (8) 
20

>  <i_qp_#metab>  (8) 
6

>  <i_qp_#nonHatm>  (8) 
28

>  <i_qp_#noncon>  (8) 
0

>  <i_qp_#ringatoms>  (8) 
20

>  <i_qp_#rotor>  (8) 
7

>  <i_qp_#rtvFG>  (8) 
0

>  <i_qp_#stars>  (8) 
0

>  <i_qp_CNS>  (8) 
2

>  <i_qp_HumanOralAbsorption>  (8) 
3

>  <i_qp_RuleOfFive>  (8) 
0

>  <i_qp_RuleOfThree>  (8) 
0

>  <i_sd_BIOSOLVEIT.INFINISEE\_REAGENT1\_NAME>  (8) 
15775648

>  <i_sd_BIOSOLVEIT.INFINISEE\_REAGENT2\_NAME>  (8) 
24720718

>  <i_sd_BIOSOLVEIT.INFINISEE\_RESULT\_RANK>  (8) 
31630

>  <i_sd_version>  (8) 
0

>  <b_lp_Chiralities_Consistent>  (8) 
1

>  <b_sd_chiral_flag>  (8) 
0

>  <canonical_id>  (8) 
ATP-HTVS-00C8034698A8

>  <compound_code>  (8) 
34403

>  <title>  (8) 
m_270004bbb____15775648____24720718

>  <variant>  (8) 
34403-1

>  <source_file>  (8) 
运行/运行/ATP-VSW/ATP-VSW-DOCK_HTVS_1-003_lib/ATP-VSW-DOCK_HTVS_1-003_lib.mae

>  <canonical_smiles>  (8) 
C[NH+](C)Cc1ccc(CC[NH2+]Cc2nc(-c3ccco3)n3ccccc23)cc1

>  <scaffold>  (8) 
c1ccc(CC[NH2+]Cc2nc(-c3ccco3)n3ccccc23)cc1

>  <molecular_formula>  (8) 
C23H28N4O+2

$$$$
ATP-HTVS-00F86A54285D
     RDKit          3D

 63 66  0  0  0  0  0  0  0  0999 V2000
  196.3647  182.3427  152.8934 O   0  0  0  0  0  0  0  0  0  0  0  0
  197.1694  181.7628  153.9111 C   0  0  1  0  0  0  0  0  0  0  0  0
  197.9704  180.5266  153.4980 C   0  0  0  0  0  0  0  0  0  0  0  0
  198.8589  179.8553  154.3965 C   0  0  0  0  0  0  0  0  0  0  0  0
  199.6088  178.7506  153.9314 C   0  0  0  0  0  0  0  0  0  0  0  0
  199.4821  178.2877  152.6108 C   0  0  0  0  0  0  0  0  0  0  0  0
  198.5889  178.9255  151.7366 C   0  0  0  0  0  0  0  0  0  0  0  0
  197.8460  180.0328  152.1778 C   0  0  0  0  0  0  0  0  0  0  0  0
  199.0958  180.2881  155.8485 C   0  0  1  0  0  0  0  0  0  0  0  0
  197.9058  180.5061  156.6603 N   0  0  0  0  0  0  0  0  0  0  0  0
  197.5288  181.6914  157.2341 C   0  0  0  0  0  0  0  0  0  0  0  0
  198.3969  182.7162  157.1880 N   0  0  0  0  0  0  0  0  0  0  0  0
  198.0681  183.8860  157.7404 C   0  0  0  0  0  0  0  0  0  0  0  0
  198.9972  184.9137  157.6175 N   0  0  0  0  0  0  0  0  0  0  0  0
  200.4183  184.6506  157.4159 C   0  0  1  0  0  0  0  0  0  0  0  0
  201.2249  184.4464  158.7075 C   0  0  0  0  0  0  0  0  0  0  0  0
  202.0399  185.4647  159.2988 C   0  0  0  0  0  0  0  0  0  0  0  0
  202.7457  185.1706  160.4898 C   0  0  0  0  0  0  0  0  0  0  0  0
  202.6457  183.9128  161.1115 C   0  0  0  0  0  0  0  0  0  0  0  0
  201.8355  182.9189  160.5371 C   0  0  0  0  0  0  0  0  0  0  0  0
  201.1318  183.1905  159.3524 C   0  0  0  0  0  0  0  0  0  0  0  0
  202.1765  186.8724  158.7094 C   0  0  1  0  0  0  0  0  0  0  0  0
  201.1970  187.8535  159.2616 N   0  0  2  0  0  0  0  0  0  0  0  0
  201.4849  188.2709  160.6447 C   0  0  2  0  0  0  0  0  0  0  0  0
  199.7802  187.4747  159.1124 C   0  0  2  0  0  0  0  0  0  0  0  0
  196.8358  184.0802  158.3934 C   0  0  0  0  0  0  0  0  0  0  0  0
  195.9461  182.9662  158.3710 C   0  0  0  0  0  0  0  0  0  0  0  0
  196.3290  181.8362  157.7800 N   0  0  0  0  0  0  0  0  0  0  0  0
  194.6882  183.0618  158.9791 C   0  0  0  0  0  0  0  0  0  0  0  0
  194.3061  184.2388  159.6397 C   0  0  0  0  0  0  0  0  0  0  0  0
  195.1861  185.3461  159.6929 C   0  0  0  0  0  0  0  0  0  0  0  0
  196.4436  185.2676  159.0582 C   0  0  0  0  0  0  0  0  0  0  0  0
  195.6828  182.8528  153.3096 H   0  0  0  0  0  0  0  0  0  0  0  0
  197.8470  182.5349  154.2763 H   0  0  0  0  0  0  0  0  0  0  0  0
  196.4708  181.4988  154.6987 H   0  0  0  0  0  0  0  0  0  0  0  0
  200.3046  178.2493  154.5891 H   0  0  0  0  0  0  0  0  0  0  0  0
  200.0541  177.4386  152.2732 H   0  0  0  0  0  0  0  0  0  0  0  0
  198.4686  178.5643  150.7233 H   0  0  0  0  0  0  0  0  0  0  0  0
  197.1827  180.4988  151.4688 H   0  0  0  0  0  0  0  0  0  0  0  0
  199.6692  179.5067  156.3642 H   0  0  0  0  0  0  0  0  0  0  0  0
  199.7575  181.1609  155.8369 H   0  0  0  0  0  0  0  0  0  0  0  0
  197.2489  179.7379  156.7799 H   0  0  0  0  0  0  0  0  0  0  0  0
  198.7239  185.7917  158.0099 H   0  0  0  0  0  0  0  0  0  0  0  0
  200.6020  183.7677  156.7775 H   0  0  0  0  0  0  0  0  0  0  0  0
  200.7947  185.4836  156.8250 H   0  0  0  0  0  0  0  0  0  0  0  0
  203.3684  185.9210  160.9568 H   0  0  0  0  0  0  0  0  0  0  0  0
  203.1694  183.7143  162.0371 H   0  0  0  0  0  0  0  0  0  0  0  0
  201.7485  181.9533  161.0147 H   0  0  0  0  0  0  0  0  0  0  0  0
  200.5146  182.4137  158.9227 H   0  0  0  0  0  0  0  0  0  0  0  0
  203.1825  187.2253  158.9232 H   0  0  0  0  0  0  0  0  0  0  0  0
  202.1293  186.8684  157.6150 H   0  0  0  0  0  0  0  0  0  0  0  0
  201.3913  187.4363  161.3403 H   0  0  0  0  0  0  0  0  0  0  0  0
  200.7666  189.0356  160.9325 H   0  0  0  0  0  0  0  0  0  0  0  0
  202.4884  188.6909  160.7222 H   0  0  0  0  0  0  0  0  0  0  0  0
  199.5716  186.5518  159.6485 H   0  0  0  0  0  0  0  0  0  0  0  0
  199.5825  187.3700  158.0508 H   0  0  0  0  0  0  0  0  0  0  0  0
  199.0876  188.2285  159.4999 H   0  0  0  0  0  0  0  0  0  0  0  0
  194.0129  182.2180  158.9434 H   0  0  0  0  0  0  0  0  0  0  0  0
  193.3300  184.3118  160.1137 H   0  0  0  0  0  0  0  0  0  0  0  0
  194.8746  186.2521  160.1916 H   0  0  0  0  0  0  0  0  0  0  0  0
  197.0899  186.1291  159.1080 H   0  0  0  0  0  0  0  0  0  0  0  0
  195.6681  181.0249  157.7646 H   0  0  0  0  0  0  0  0  0  0  0  0
  201.3005  188.6840  158.6935 H   0  0  0  0  0  0  0  0  0  0  0  0
  1  2  1  0
  1 33  1  0
  2  3  1  0
  2 34  1  1
  2 35  1  0
  3  4  1  0
  3  8  2  0
  4  5  2  0
  4  9  1  0
  5  6  1  0
  5 36  1  0
  6  7  2  0
  6 37  1  0
  7  8  1  0
  7 38  1  0
  8 39  1  0
  9 10  1  0
  9 40  1  1
  9 41  1  0
 10 11  1  0
 10 42  1  0
 11 12  1  0
 11 28  2  0
 12 13  2  0
 13 14  1  0
 13 26  1  0
 14 15  1  0
 14 43  1  0
 15 16  1  0
 15 44  1  6
 15 45  1  0
 16 17  1  0
 16 21  2  0
 17 18  2  0
 17 22  1  0
 18 19  1  0
 18 46  1  0
 19 20  2  0
 19 47  1  0
 20 21  1  0
 20 48  1  0
 21 49  1  0
 22 23  1  0
 22 50  1  6
 22 51  1  0
 23 24  1  0
 23 25  1  0
 23 63  1  6
 24 52  1  1
 24 53  1  0
 24 54  1  0
 25 55  1  1
 25 56  1  0
 25 57  1  0
 26 27  1  0
 26 32  2  0
 27 28  1  0
 27 29  2  0
 28 62  1  0
 29 30  1  0
 29 58  1  0
 30 31  2  0
 30 59  1  0
 31 32  1  0
 31 60  1  0
 32 61  1  0
M  CHG  2  23   1  28   1
M  END
>  <s_epik_cmdline>  (9) 
J2VwaWtfcHl0aG9uJywgJy1waCcsICc3LjAwMDAwMCcsICctcGh0JywgJzIuMDAwMDAwJywgJy1tcycsICcxNicsICctdG4nLCAnOCcsICctbWEnLCAnMjAwJywgJy1pbWFlJywgJzxpbmZpbGUubWFlPicsICctb21hZScsICc8b3V0ZmlsZS5tYWU+Jw==

>  <s_epik_input>  (9) 
W2NIXTFbY0hdW2NIXVtjSF1jKGMxW0NIMl1bT0hdKVtDSDJdW05IXWMobmMoYzIzKVtjSF1bY0hdW2NIXVtjSF0zKW5jMltOSF1bQ0gyXWM0YyhbQ0gyXU4oW0NIM10pW0NIM10pW2NIXVtjSF1bY0hdW2NIXTQ=

>  <s_i_glide_gridfile>  (9) 
ATP-Grid

>  <s_lp_Force_Field>  (9) 
OPLS_2005

>  <s_lp_Variant>  (9) 
m_282030aaa____21930538____22360182____21973156-1

>  <s_lp_label>  (9) 
1200_sdstereoexpander_1_neutralizer_1_epik_1_stereoizer_1

>  <s_m_source_file>  (9) 
ATP-VSW-LIGPREP-001-in.maegz

>  <s_sd_BIOSOLVEIT.INFINISEE\_QUERY\_NAME>  (9) 
Ref-Lig

>  <s_sd_BIOSOLVEIT.INFINISEE\_QUERY\_SMILES>  (9) 
S(c1nc2c(cc1C[NH2+]Cc3ccc(cc3)C[NH+](C)C)cccc2)Cc4ccccc4

>  <s_sd_BIOSOLVEIT.INFINISEE\_REACTION\_NAME>  (9) 
m_282030aaa

>  <s_sd_BIOSOLVEIT.INFINISEE\_REAGENT1\_SMILES>  (9) 
[R1*]NCc1c(cccc1)CO

>  <s_sd_BIOSOLVEIT.INFINISEE\_REAGENT2\_SMILES>  (9) 
[R2*]c1nc([R1*])c2c(n1)cccc2

>  <s_sd_BIOSOLVEIT.INFINISEE\_REAGENT3\_SMILES>  (9) 
[R2*]NCc1c(cccc1)CN(C)C

>  <s_sd_BIOSOLVEIT.INFINISEE\_SPACE>  (9) 
REALSpace_44bn_2023-08

>  <s_vsw_compound_code>  (9) 
38369

>  <s_vsw_variant>  (9) 
38369-1

>  <r_epik_Charging_Adjusted_Penalty>  (9) 
0.11685025125267499

>  <r_epik_Ionization_Penalty>  (9) 
0.055

>  <r_epik_Ionization_Penalty_Charging>  (9) 
0.055

>  <r_epik_Ionization_Penalty_Neutral>  (9) 
0

>  <r_epik_State_Penalty>  (9) 
0.061800000000000001

>  <r_i_docking_score>  (9) 
-3.9072420810437101

>  <r_i_glide_ecoul>  (9) 
-6.6666741371154803

>  <r_i_glide_eff_state_penalty>  (9) 
0.061800000000000001

>  <r_i_glide_einternal>  (9) 
5.9246640205383301

>  <r_i_glide_emodel>  (9) 
-49.043597691514201

>  <r_i_glide_energy>  (9) 
-35.006624698638902

>  <r_i_glide_erotb>  (9) 
0.86163259182595797

>  <r_i_glide_esite>  (9) 
-0.26873473182830099

>  <r_i_glide_evdw>  (9) 
-28.339950561523398

>  <r_i_glide_gscore>  (9) 
-3.9690420810437099

>  <r_i_glide_hbond>  (9) 
-0.52442296480268202

>  <r_i_glide_ligand_efficiency>  (9) 
-0.122101315032616

>  <r_i_glide_ligand_efficiency_ln>  (9) 
-0.87493800934222699

>  <r_i_glide_ligand_efficiency_sa>  (9) 
-0.38764751141112203

>  <r_i_glide_lipo>  (9) 
-1.14022678214064

>  <r_i_glide_metal>  (9) 
-0

>  <r_i_glide_rewards>  (9) 
-0.480291545454544

>  <r_lp_Energy>  (9) 
22.181280999999998

>  <r_qp_ACxDN^.5/SA>  (9) 
0.0157261

>  <r_qp_CIQPlogS>  (9) 
-5.3630000000000004

>  <r_qp_EA(eV)>  (9) 
0.68000000000000005

>  <r_qp_FISA>  (9) 
51.795000000000002

>  <r_qp_FOSA>  (9) 
189.74700000000001

>  <r_qp_IP(eV)>  (9) 
8.1150000000000002

>  <r_qp_Jm>  (9) 
0.38947881383365501

>  <r_qp_PISA>  (9) 
496.38799999999998

>  <r_qp_PSA>  (9) 
67.656999999999996

>  <r_qp_PercentHumanOralAbsorption>  (9) 
100

>  <r_qp_QPPCaco>  (9) 
797.30499999999995

>  <r_qp_QPPMDCK>  (9) 
428.44799999999998

>  <r_qp_QPlogBB>  (9) 
-0.16300000000000001

>  <r_qp_QPlogHERG>  (9) 
-7.6449999999999996

>  <r_qp_QPlogKhsa>  (9) 
0.54300000000000004

>  <r_qp_QPlogKp>  (9) 
-1.8280000000000001

>  <r_qp_QPlogPC16>  (9) 
15.609

>  <r_qp_QPlogPo/w>  (9) 
4.5469999999999997

>  <r_qp_QPlogPoct>  (9) 
23.721

>  <r_qp_QPlogPw>  (9) 
14.010999999999999

>  <r_qp_QPlogS>  (9) 
-4.2130000000000001

>  <r_qp_QPpolrz>  (9) 
47.503

>  <r_qp_SASA>  (9) 
737.92999999999995

>  <r_qp_SAamideO>  (9) 
0

>  <r_qp_SAfluorine>  (9) 
0

>  <r_qp_WPSA>  (9) 
0

>  <r_qp_accptHB>  (9) 
6.7000000000000002

>  <r_qp_dip^2/V>  (9) 
0.0055136999999999999

>  <r_qp_dipole>  (9) 
2.7610000000000001

>  <r_qp_donorHB>  (9) 
3

>  <r_qp_glob>  (9) 
0.81341229999999998

>  <r_qp_mol_MW>  (9) 
427.548

>  <r_qp_volume>  (9) 
1382.7429999999999

>  <r_sd_BIOSOLVEIT.INFINISEE\_FTREES\_SIMILARITY>  (9) 
0.91100000000000003

>  <r_sd_BIOSOLVEIT.LOGP>  (9) 
2.9908000000000001

>  <r_sd_BIOSOLVEIT.MOLECULAR\_WEIGHT>  (9) 
428.55700000000002

>  <r_sd_BIOSOLVEIT.TPSA>  (9) 
74.510000000000005

>  <i_epik_Tot_Q>  (9) 
2

>  <i_epik_Tot_abs_Q>  (9) 
2

>  <i_f3d_flags>  (9) 
0

>  <i_i_glide_confnum>  (9) 
10

>  <i_i_glide_lignum>  (9) 
307

>  <i_i_glide_posenum>  (9) 
15

>  <i_i_glide_rotatable_bonds>  (9) 
10

>  <i_lp_mmshare_version>  (9) 
65135

>  <i_m_ct_format>  (9) 
2

>  <i_m_source_file_index>  (9) 
1200

>  <i_qp_#NandO>  (9) 
6

>  <i_qp_#acid>  (9) 
0

>  <i_qp_#amide>  (9) 
0

>  <i_qp_#amidine>  (9) 
0

>  <i_qp_#amine>  (9) 
1

>  <i_qp_#in34>  (9) 
0

>  <i_qp_#in56>  (9) 
22

>  <i_qp_#metab>  (9) 
5

>  <i_qp_#nonHatm>  (9) 
32

>  <i_qp_#noncon>  (9) 
0

>  <i_qp_#ringatoms>  (9) 
22

>  <i_qp_#rotor>  (9) 
10

>  <i_qp_#rtvFG>  (9) 
0

>  <i_qp_#stars>  (9) 
1

>  <i_qp_CNS>  (9) 
0

>  <i_qp_HumanOralAbsorption>  (9) 
3

>  <i_qp_RuleOfFive>  (9) 
0

>  <i_qp_RuleOfThree>  (9) 
0

>  <i_sd_BIOSOLVEIT.INFINISEE\_REAGENT1\_NAME>  (9) 
21930538

>  <i_sd_BIOSOLVEIT.INFINISEE\_REAGENT2\_NAME>  (9) 
22360182

>  <i_sd_BIOSOLVEIT.INFINISEE\_REAGENT3\_NAME>  (9) 
21973156

>  <i_sd_BIOSOLVEIT.INFINISEE\_RESULT\_RANK>  (9) 
40153

>  <i_sd_version>  (9) 
0

>  <b_lp_Chiralities_Consistent>  (9) 
1

>  <b_sd_chiral_flag>  (9) 
0

>  <canonical_id>  (9) 
ATP-HTVS-00F86A54285D

>  <compound_code>  (9) 
38369

>  <title>  (9) 
m_282030aaa____21930538____22360182____21973156

>  <variant>  (9) 
38369-1

>  <source_file>  (9) 
运行/运行/ATP-VSW/ATP-VSW-DOCK_HTVS_1-001_lib/ATP-VSW-DOCK_HTVS_1-001_lib

>  <canonical_smiles>  (9) 
C[NH+](C)Cc1ccccc1CNc1nc(NCc2ccccc2CO)[nH+]c2ccccc12

>  <scaffold>  (9) 
c1ccc(CNc2nc(NCc3ccccc3)c3ccccc3[nH+]2)cc1

>  <molecular_formula>  (9) 
C26H31N5O+2

$$$$
ATP-HTVS-011A966B3F21
     RDKit          3D

 56 59  0  0  0  0  0  0  0  0999 V2000
  195.9791  187.1641  159.5188 O   0  0  0  0  0  0  0  0  0  0  0  0
  196.7478  188.2563  159.2708 C   0  0  0  0  0  0  0  0  0  0  0  0
  196.5823  189.2246  160.2888 C   0  0  0  0  0  0  0  0  0  0  0  0
  197.2540  190.4657  160.1305 C   0  0  0  0  0  0  0  0  0  0  0  0
  198.0686  190.7094  158.9847 C   0  0  0  0  0  0  0  0  0  0  0  0
  198.2256  189.6958  158.0179 C   0  0  0  0  0  0  0  0  0  0  0  0
  197.5576  188.4654  158.1440 C   0  0  0  0  0  0  0  0  0  0  0  0
  195.6710  188.6164  161.2071 C   0  0  0  0  0  0  0  0  0  0  0  0
  195.3670  187.3600  160.7241 C   0  0  0  0  0  0  0  0  0  0  0  0
  194.5069  186.2587  161.2479 C   0  0  2  0  0  0  0  0  0  0  0  0
  194.1247  185.2652  160.1956 N   0  0  1  0  0  0  0  0  0  0  0  0
  195.1870  184.3328  159.7271 C   0  0  1  0  0  0  0  0  0  0  0  0
  194.7563  183.5153  158.4694 C   0  0  2  0  0  0  0  0  0  0  0  0
  193.6928  182.4814  158.8721 C   0  0  1  0  0  0  0  0  0  0  0  0
  193.1716  181.6835  157.8318 O   0  0  0  0  0  0  0  0  0  0  0  0
  195.9383  182.8121  157.7438 C   0  0  1  0  0  0  0  0  0  0  0  0
  197.2097  183.6526  157.6178 C   0  0  0  0  0  0  0  0  0  0  0  0
  198.2211  183.5696  158.6013 C   0  0  0  0  0  0  0  0  0  0  0  0
  199.3767  184.3772  158.5145 C   0  0  0  0  0  0  0  0  0  0  0  0
  199.5280  185.2778  157.4399 C   0  0  0  0  0  0  0  0  0  0  0  0
  198.5311  185.3569  156.4498 C   0  0  0  0  0  0  0  0  0  0  0  0
  197.3818  184.5457  156.5376 C   0  0  0  0  0  0  0  0  0  0  0  0
  200.4503  184.2921  159.5809 C   0  0  2  0  0  0  0  0  0  0  0  0
  193.2419  186.8061  161.9440 C   0  0  0  0  0  0  0  0  0  0  0  0
  193.1492  186.6647  163.2825 N   0  0  0  0  0  0  0  0  0  0  0  0
  192.0675  187.1766  163.9223 C   0  0  0  0  0  0  0  0  0  0  0  0
  191.0474  187.8662  163.2566 C   0  0  0  0  0  0  0  0  0  0  0  0
  191.1097  187.9643  161.8582 C   0  0  0  0  0  0  0  0  0  0  0  0
  192.2110  187.4038  161.1960 C   0  0  0  0  0  0  0  0  0  0  0  0
  193.3655  184.7514  160.6028 H   0  0  0  0  0  0  0  0  0  0  0  0
  197.1359  191.2632  160.8548 H   0  0  0  0  0  0  0  0  0  0  0  0
  198.5681  191.6618  158.8269 H   0  0  0  0  0  0  0  0  0  0  0  0
  198.8389  189.8250  157.1413 H   0  0  0  0  0  0  0  0  0  0  0  0
  197.6131  187.6633  157.4281 H   0  0  0  0  0  0  0  0  0  0  0  0
  195.3118  189.1472  162.0630 H   0  0  0  0  0  0  0  0  0  0  0  0
  195.1532  185.7719  161.9772 H   0  0  0  0  0  0  0  0  0  0  0  0
  196.0193  184.9760  159.4610 H   0  0  0  0  0  0  0  0  0  0  0  0
  195.4737  183.6152  160.5145 H   0  0  0  0  0  0  0  0  0  0  0  0
  194.2824  184.2160  157.7892 H   0  0  0  0  0  0  0  0  0  0  0  0
  194.1274  181.8264  159.6208 H   0  0  0  0  0  0  0  0  0  0  0  0
  192.8617  183.0559  159.2725 H   0  0  0  0  0  0  0  0  0  0  0  0
  193.3185  182.1589  157.0104 H   0  0  0  0  0  0  0  0  0  0  0  0
  196.2094  181.9027  158.2930 H   0  0  0  0  0  0  0  0  0  0  0  0
  195.6172  182.4846  156.7444 H   0  0  0  0  0  0  0  0  0  0  0  0
  198.0937  182.9109  159.4485 H   0  0  0  0  0  0  0  0  0  0  0  0
  200.4047  185.9077  157.3712 H   0  0  0  0  0  0  0  0  0  0  0  0
  198.6307  186.0609  155.6359 H   0  0  0  0  0  0  0  0  0  0  0  0
  196.6083  184.6576  155.7940 H   0  0  0  0  0  0  0  0  0  0  0  0
  200.9468  185.2544  159.7447 H   0  0  0  0  0  0  0  0  0  0  0  0
  201.1995  183.5712  159.2551 H   0  0  0  0  0  0  0  0  0  0  0  0
  200.0490  183.9466  160.5305 H   0  0  0  0  0  0  0  0  0  0  0  0
  192.0136  187.0158  164.9885 H   0  0  0  0  0  0  0  0  0  0  0  0
  190.2238  188.2971  163.8118 H   0  0  0  0  0  0  0  0  0  0  0  0
  190.3205  188.4493  161.3069 H   0  0  0  0  0  0  0  0  0  0  0  0
  192.2449  187.4487  160.1328 H   0  0  0  0  0  0  0  0  0  0  0  0
  193.7301  185.7735  159.4122 H   0  0  0  0  0  0  0  0  0  0  0  0
  1  2  1  0
  1  9  1  0
  2  3  1  0
  2  7  2  0
  3  4  2  0
  3  8  1  0
  4  5  1  0
  4 31  1  0
  5  6  2  0
  5 32  1  0
  6  7  1  0
  6 33  1  0
  7 34  1  0
  8  9  2  0
  8 35  1  0
  9 10  1  0
 10 11  1  0
 10 24  1  0
 10 36  1  1
 11 12  1  0
 11 30  1  1
 11 56  1  0
 12 13  1  0
 12 37  1  6
 12 38  1  0
 13 14  1  0
 13 16  1  0
 13 39  1  6
 14 15  1  0
 14 40  1  1
 14 41  1  0
 15 42  1  0
 16 17  1  0
 16 43  1  1
 16 44  1  0
 17 18  1  0
 17 22  2  0
 18 19  2  0
 18 45  1  0
 19 20  1  0
 19 23  1  0
 20 21  2  0
 20 46  1  0
 21 22  1  0
 21 47  1  0
 22 48  1  0
 23 49  1  1
 23 50  1  0
 23 51  1  0
 24 25  1  0
 24 29  2  0
 25 26  2  0
 26 27  1  0
 26 52  1  0
 27 28  2  0
 27 53  1  0
 28 29  1  0
 28 54  1  0
 29 55  1  0
M  CHG  1  11   1
M  END
>  <s_epik_cmdline>  (10) 
J2VwaWtfcHl0aG9uJywgJy1waCcsICc3LjAwMDAwMCcsICctcGh0JywgJzIuMDAwMDAwJywgJy1tcycsICcxNicsICctdG4nLCAnOCcsICctbWEnLCAnMjAwJywgJy1pbWFlJywgJzxpbmZpbGUubWFlPicsICctb21hZScsICc8b3V0ZmlsZS5tYWU+Jw==

>  <s_epik_input>  (10) 
W2NIXTFbY0hdW2NIXVtjSF1jKGMxMilbY0hdYyhvMilbQ0BASF0oYzNuW2NIXVtjSF1bY0hdW2NIXTMpW05IXVtDSDJdW0NASF0oW0NIMl1bT0hdKVtDSDJdYzRbY0hdYyhbQ0gzXSlbY0hdW2NIXVtjSF00

>  <s_i_glide_gridfile>  (10) 
ATP-Grid

>  <s_lp_Force_Field>  (10) 
OPLS_2005

>  <s_lp_Variant>  (10) 
m_269862bba____21537480____13192834-1

>  <s_lp_label>  (10) 
1851_sdstereoexpander_1_neutralizer_1_epik_1_stereoizer_1

>  <s_m_source_file>  (10) 
ATP-VSW-LIGPREP-003-in.maegz

>  <s_sd_BIOSOLVEIT.INFINISEE\_QUERY\_NAME>  (10) 
Ref-Lig

>  <s_sd_BIOSOLVEIT.INFINISEE\_QUERY\_SMILES>  (10) 
S(c1nc2c(cc1C[NH2+]Cc3ccc(cc3)C[NH+](C)C)cccc2)Cc4ccccc4

>  <s_sd_BIOSOLVEIT.INFINISEE\_REACTION\_NAME>  (10) 
m_269862bba

>  <s_sd_BIOSOLVEIT.INFINISEE\_REAGENT1\_SMILES>  (10) 
[R1*]NCC(CO)Cc1cc(ccc1)C

>  <s_sd_BIOSOLVEIT.INFINISEE\_REAGENT2\_SMILES>  (10) 
[R1*]C(c1ncccc1)C=2Oc3c(cccc3)C2

>  <s_sd_BIOSOLVEIT.INFINISEE\_SPACE>  (10) 
REALSpace_44bn_2023-08

>  <s_vsw_compound_code>  (10) 
59203

>  <s_vsw_variant>  (10) 
59203-1

>  <r_epik_Charging_Adjusted_Penalty>  (10) 
0.131748936153229

>  <r_epik_Ionization_Penalty>  (10) 
0.0659

>  <r_epik_Ionization_Penalty_Charging>  (10) 
0.0659

>  <r_epik_Ionization_Penalty_Neutral>  (10) 
0

>  <r_epik_State_Penalty>  (10) 
0.0659

>  <r_i_docking_score>  (10) 
-5.6931452886289602

>  <r_i_glide_ecoul>  (10) 
-11.1307640075684

>  <r_i_glide_eff_state_penalty>  (10) 
0.0659

>  <r_i_glide_einternal>  (10) 
4.7346038818359402

>  <r_i_glide_emodel>  (10) 
-56.459517369037002

>  <r_i_glide_energy>  (10) 
-37.8285942077637

>  <r_i_glide_erotb>  (10) 
1.0375801469183601

>  <r_i_glide_esite>  (10) 
-0.018472869623397399

>  <r_i_glide_evdw>  (10) 
-26.697830200195298

>  <r_i_glide_gscore>  (10) 
-5.7590452886289603

>  <r_i_glide_hbond>  (10) 
-0.45600000000000002

>  <r_i_glide_ligand_efficiency>  (10) 
-0.19631535478030901

>  <r_i_glide_ligand_efficiency_ln>  (10) 
-1.3035859053877299

>  <r_i_glide_ligand_efficiency_sa>  (10) 
-0.60314296695504299

>  <r_i_glide_lipo>  (10) 
-2.5505606365970901

>  <r_i_glide_metal>  (10) 
-0

>  <r_i_glide_rewards>  (10) 
-0.76708581818181698

>  <r_lp_Energy>  (10) 
15.137845

>  <r_qp_ACxDN^.5/SA>  (10) 
0.0104242

>  <r_qp_CIQPlogS>  (10) 
-5.3209999999999997

>  <r_qp_EA(eV)>  (10) 
0.27400000000000002

>  <r_qp_FISA>  (10) 
49.122999999999998

>  <r_qp_FOSA>  (10) 
175.613

>  <r_qp_IP(eV)>  (10) 
8.8040000000000003

>  <r_qp_Jm>  (10) 
1.05877263122954

>  <r_qp_PISA>  (10) 
412.89499999999998

>  <r_qp_PSA>  (10) 
51.259

>  <r_qp_PercentHumanOralAbsorption>  (10) 
100

>  <r_qp_QPPCaco>  (10) 
845.21500000000003

>  <r_qp_QPPMDCK>  (10) 
456.34100000000001

>  <r_qp_QPlogBB>  (10) 
-0.012999999999999999

>  <r_qp_QPlogHERG>  (10) 
-6.3289999999999997

>  <r_qp_QPlogKhsa>  (10) 
0.628

>  <r_qp_QPlogKp>  (10) 
-2.169

>  <r_qp_QPlogPC16>  (10) 
13.364000000000001

>  <r_qp_QPlogPo/w>  (10) 
4.5019999999999998

>  <r_qp_QPlogPoct>  (10) 
19.055

>  <r_qp_QPlogPw>  (10) 
9.9700000000000006

>  <r_qp_QPlogS>  (10) 
-3.3929999999999998

>  <r_qp_QPpolrz>  (10) 
41.185000000000002

>  <r_qp_SASA>  (10) 
637.63099999999997

>  <r_qp_SAamideO>  (10) 
0

>  <r_qp_SAfluorine>  (10) 
0

>  <r_qp_WPSA>  (10) 
0

>  <r_qp_accptHB>  (10) 
4.7000000000000002

>  <r_qp_dip^2/V>  (10) 
0.0076401999999999998

>  <r_qp_dipole>  (10) 
3.0640000000000001

>  <r_qp_donorHB>  (10) 
2

>  <r_qp_glob>  (10) 
0.87010690000000002

>  <r_qp_mol_MW>  (10) 
386.49299999999999

>  <r_qp_volume>  (10) 
1228.7570000000001

>  <r_sd_BIOSOLVEIT.INFINISEE\_FTREES\_SIMILARITY>  (10) 
0.90300000000000002

>  <r_sd_BIOSOLVEIT.LOGP>  (10) 
3.6402199999999998

>  <r_sd_BIOSOLVEIT.MOLECULAR\_WEIGHT>  (10) 
387.5

>  <r_sd_BIOSOLVEIT.TPSA>  (10) 
62.869999999999997

>  <i_epik_Tot_Q>  (10) 
1

>  <i_epik_Tot_abs_Q>  (10) 
1

>  <i_f3d_flags>  (10) 
0

>  <i_i_glide_confnum>  (10) 
7

>  <i_i_glide_lignum>  (10) 
701

>  <i_i_glide_posenum>  (10) 
12

>  <i_i_glide_rotatable_bonds>  (10) 
9

>  <i_lp_mmshare_version>  (10) 
65135

>  <i_m_ct_format>  (10) 
2

>  <i_m_source_file_index>  (10) 
1851

>  <i_qp_#NandO>  (10) 
4

>  <i_qp_#acid>  (10) 
0

>  <i_qp_#amide>  (10) 
0

>  <i_qp_#amidine>  (10) 
0

>  <i_qp_#amine>  (10) 
1

>  <i_qp_#in34>  (10) 
0

>  <i_qp_#in56>  (10) 
21

>  <i_qp_#metab>  (10) 
8

>  <i_qp_#nonHatm>  (10) 
29

>  <i_qp_#noncon>  (10) 
0

>  <i_qp_#ringatoms>  (10) 
21

>  <i_qp_#rotor>  (10) 
9

>  <i_qp_#rtvFG>  (10) 
0

>  <i_qp_#stars>  (10) 
0

>  <i_qp_CNS>  (10) 
1

>  <i_qp_HumanOralAbsorption>  (10) 
3

>  <i_qp_RuleOfFive>  (10) 
0

>  <i_qp_RuleOfThree>  (10) 
1

>  <i_sd_BIOSOLVEIT.INFINISEE\_REAGENT1\_NAME>  (10) 
21537480

>  <i_sd_BIOSOLVEIT.INFINISEE\_REAGENT2\_NAME>  (10) 
13192834

>  <i_sd_BIOSOLVEIT.INFINISEE\_RESULT\_RANK>  (10) 
81276

>  <i_sd_version>  (10) 
0

>  <b_lp_Chiralities_Consistent>  (10) 
1

>  <b_sd_chiral_flag>  (10) 
0

>  <canonical_id>  (10) 
ATP-HTVS-011A966B3F21

>  <compound_code>  (10) 
59203

>  <title>  (10) 
m_269862bba____21537480____13192834

>  <variant>  (10) 
59203-1

>  <source_file>  (10) 
运行/运行/ATP-VSW/ATP-VSW-DOCK_HTVS_1-003_lib/ATP-VSW-DOCK_HTVS_1-003_lib.mae

>  <canonical_smiles>  (10) 
Cc1cccc(C[C@@H](CO)C[NH2+][C@H](c2ccccn2)c2cc3ccccc3o2)c1

>  <scaffold>  (10) 
c1ccc(CCC[NH2+]C(c2ccccn2)c2cc3ccccc3o2)cc1

>  <molecular_formula>  (10) 
C25H27N2O2+

$$$$
ATP-HTVS-0125A5267C6C
     RDKit          3D

 59 62  0  0  0  0  0  0  0  0999 V2000
  198.3911  176.8395  150.3077 O   0  0  0  0  0  0  0  0  0  0  0  0
  198.6186  177.7312  149.4916 C   0  0  0  0  0  0  0  0  0  0  0  0
  198.3758  179.0444  149.6771 N   0  0  0  0  0  0  0  0  0  0  0  0
  197.8582  179.7221  150.8190 C   0  0  0  0  0  0  0  0  0  0  0  0
  197.7253  179.1005  152.0100 N   0  0  0  0  0  0  0  0  0  0  0  0
  197.2574  179.7820  153.0708 C   0  0  0  0  0  0  0  0  0  0  0  0
  196.8677  181.1334  153.0242 C   0  0  0  0  0  0  0  0  0  0  0  0
  196.3509  181.7836  154.1609 N   0  0  0  0  0  0  0  0  0  0  0  0
  196.6323  181.3185  155.5142 C   0  0  1  0  0  0  0  0  0  0  0  0
  198.1088  181.3154  155.8847 C   0  0  0  0  0  0  0  0  0  0  0  0
  198.6772  180.1565  156.4366 C   0  0  0  0  0  0  0  0  0  0  0  0
  200.0549  180.0972  156.7363 C   0  0  0  0  0  0  0  0  0  0  0  0
  200.8584  181.2377  156.5166 C   0  0  0  0  0  0  0  0  0  0  0  0
  200.2868  182.4130  155.9892 C   0  0  0  0  0  0  0  0  0  0  0  0
  198.9150  182.4515  155.6714 C   0  0  0  0  0  0  0  0  0  0  0  0
  200.6723  178.8050  157.2598 C   0  0  1  0  0  0  0  0  0  0  0  0
  200.2592  177.5847  156.5147 N   0  0  1  0  0  0  0  0  0  0  0  0
  200.2701  177.7148  155.0318 C   0  0  2  0  0  0  0  0  0  0  0  0
  201.0409  176.4041  156.9452 C   0  0  2  0  0  0  0  0  0  0  0  0
  196.9960  181.8040  151.7845 C   0  0  0  0  0  0  0  0  0  0  0  0
  197.5146  181.0954  150.6628 C   0  0  0  0  0  0  0  0  0  0  0  0
  197.6708  181.7824  149.4322 C   0  0  0  0  0  0  0  0  0  0  0  0
  197.3080  183.1374  149.3134 C   0  0  0  0  0  0  0  0  0  0  0  0
  196.7857  183.8302  150.4175 C   0  0  0  0  0  0  0  0  0  0  0  0
  196.6330  183.1658  151.6466 C   0  0  0  0  0  0  0  0  0  0  0  0
  199.2833  177.4196  148.1787 C   0  0  0  0  0  0  0  0  0  0  0  0
  198.9245  178.1089  146.9963 C   0  0  0  0  0  0  0  0  0  0  0  0
  199.5598  177.8038  145.7756 C   0  0  0  0  0  0  0  0  0  0  0  0
  200.5506  176.8026  145.7224 C   0  0  0  0  0  0  0  0  0  0  0  0
  201.1448  176.4879  144.5361 O   0  0  0  0  0  0  0  0  0  0  0  0
  200.9023  176.1066  146.8962 C   0  0  0  0  0  0  0  0  0  0  0  0
  200.2642  176.4070  148.1158 C   0  0  0  0  0  0  0  0  0  0  0  0
  198.6104  179.6335  148.8967 H   0  0  0  0  0  0  0  0  0  0  0  0
  197.1729  179.2019  153.9756 H   0  0  0  0  0  0  0  0  0  0  0  0
  195.7747  182.6180  154.0629 H   0  0  0  0  0  0  0  0  0  0  0  0
  196.1151  181.9756  156.2108 H   0  0  0  0  0  0  0  0  0  0  0  0
  196.1904  180.3297  155.6631 H   0  0  0  0  0  0  0  0  0  0  0  0
  198.0443  179.2907  156.5679 H   0  0  0  0  0  0  0  0  0  0  0  0
  201.9172  181.2117  156.7378 H   0  0  0  0  0  0  0  0  0  0  0  0
  200.9034  183.2829  155.8210 H   0  0  0  0  0  0  0  0  0  0  0  0
  198.4803  183.3448  155.2465 H   0  0  0  0  0  0  0  0  0  0  0  0
  201.7605  178.8975  157.2252 H   0  0  0  0  0  0  0  0  0  0  0  0
  200.4047  178.6744  158.3116 H   0  0  0  0  0  0  0  0  0  0  0  0
  201.2703  177.9709  154.6769 H   0  0  0  0  0  0  0  0  0  0  0  0
  199.5842  178.4729  154.6564 H   0  0  0  0  0  0  0  0  0  0  0  0
  199.9597  176.7807  154.5606 H   0  0  0  0  0  0  0  0  0  0  0  0
  202.0961  176.5132  156.6922 H   0  0  0  0  0  0  0  0  0  0  0  0
  200.6917  175.4980  156.4542 H   0  0  0  0  0  0  0  0  0  0  0  0
  200.9677  176.2588  158.0219 H   0  0  0  0  0  0  0  0  0  0  0  0
  198.0626  181.2988  148.5507 H   0  0  0  0  0  0  0  0  0  0  0  0
  197.4192  183.6445  148.3643 H   0  0  0  0  0  0  0  0  0  0  0  0
  196.5078  184.8694  150.3190 H   0  0  0  0  0  0  0  0  0  0  0  0
  196.2352  183.7164  152.4872 H   0  0  0  0  0  0  0  0  0  0  0  0
  198.1525  178.8611  147.0017 H   0  0  0  0  0  0  0  0  0  0  0  0
  199.2700  178.3232  144.8747 H   0  0  0  0  0  0  0  0  0  0  0  0
  200.5356  176.6355  143.8039 H   0  0  0  0  0  0  0  0  0  0  0  0
  201.6493  175.3276  146.8521 H   0  0  0  0  0  0  0  0  0  0  0  0
  200.5311  175.8537  149.0058 H   0  0  0  0  0  0  0  0  0  0  0  0
  199.2956  177.4362  156.8048 H   0  0  0  0  0  0  0  0  0  0  0  0
  1  2  2  0
  2  3  1  0
  2 26  1  0
  3  4  1  0
  3 33  1  0
  4  5  1  0
  4 21  2  0
  5  6  2  0
  6  7  1  0
  6 34  1  0
  7  8  1  0
  7 20  2  0
  8  9  1  0
  8 35  1  0
  9 10  1  0
  9 36  1  1
  9 37  1  0
 10 11  2  0
 10 15  1  0
 11 12  1  0
 11 38  1  0
 12 13  2  0
 12 16  1  0
 13 14  1  0
 13 39  1  0
 14 15  2  0
 14 40  1  0
 15 41  1  0
 16 17  1  0
 16 42  1  1
 16 43  1  0
 17 18  1  0
 17 19  1  0
 17 59  1  1
 18 44  1  6
 18 45  1  0
 18 46  1  0
 19 47  1  1
 19 48  1  0
 19 49  1  0
 20 21  1  0
 20 25  1  0
 21 22  1  0
 22 23  2  0
 22 50  1  0
 23 24  1  0
 23 51  1  0
 24 25  2  0
 24 52  1  0
 25 53  1  0
 26 27  1  0
 26 32  2  0
 27 28  2  0
 27 54  1  0
 28 29  1  0
 28 55  1  0
 29 30  1  0
 29 31  2  0
 30 56  1  0
 31 32  1  0
 31 57  1  0
 32 58  1  0
M  CHG  1  17   1
M  END
>  <s_epik_cmdline>  (11) 
J2VwaWtfcHl0aG9uJywgJy1waCcsICc3LjAwMDAwMCcsICctcGh0JywgJzIuMDAwMDAwJywgJy1tcycsICcxNicsICctdG4nLCAnOCcsICctbWEnLCAnMjAwJywgJy1pbWFlJywgJzxpbmZpbGUubWFlPicsICctb21hZScsICc8b3V0ZmlsZS5tYWU+Jw==

>  <s_epik_input>  (11) 
W2NIXTFbY0hdYyhbT0hdKVtjSF1bY0hdYzFDKD1PKVtOSF1jKGMoYzIzKVtjSF1bY0hdW2NIXVtjSF0zKW5bY0hdYzJbTkhdW0NIMl1jNFtjSF1jKFtjSF1bY0hdW2NIXTQpW0NIMl1OKFtDSDNdKVtDSDNd

>  <s_i_glide_gridfile>  (11) 
ATP-Grid

>  <s_lp_Force_Field>  (11) 
OPLS_2005

>  <s_lp_Variant>  (11) 
rxn502b____EMOL490868____EMOL7515103____EMOL2873214-1

>  <s_lp_label>  (11) 
2205_sdstereoexpander_1_neutralizer_1_epik_1_stereoizer_1

>  <s_m_source_file>  (11) 
ATP-VSW-LIGPREP-002-in.maegz

>  <s_sd_BIOSOLVEIT.INFINISEE\_QUERY\_NAME>  (11) 
Ref-Lig

>  <s_sd_BIOSOLVEIT.INFINISEE\_QUERY\_SMILES>  (11) 
S(c1nc2c(cc1C[NH2+]Cc3ccc(cc3)C[NH+](C)C)cccc2)Cc4ccccc4

>  <s_sd_BIOSOLVEIT.INFINISEE\_REACTION\_NAME>  (11) 
rxn502b

>  <s_sd_BIOSOLVEIT.INFINISEE\_REAGENT1\_NAME>  (11) 
EMOL490868

>  <s_sd_BIOSOLVEIT.INFINISEE\_REAGENT1\_SMILES>  (11) 
O=C(O)c1ccc(O)cc1

>  <s_sd_BIOSOLVEIT.INFINISEE\_REAGENT2\_NAME>  (11) 
EMOL7515103

>  <s_sd_BIOSOLVEIT.INFINISEE\_REAGENT2\_SMILES>  (11) 
Brc1c2c(c(nc1)N)cccc2

>  <s_sd_BIOSOLVEIT.INFINISEE\_REAGENT3\_NAME>  (11) 
EMOL2873214

>  <s_sd_BIOSOLVEIT.INFINISEE\_REAGENT3\_SMILES>  (11) 
N(Cc1cc(ccc1)CN)(C)C

>  <s_sd_BIOSOLVEIT.INFINISEE\_SPACE>  (11) 
eXplore_7tr_2022-12

>  <s_vsw_compound_code>  (11) 
70530

>  <s_vsw_variant>  (11) 
70530-1

>  <r_epik_Charging_Adjusted_Penalty>  (11) 
0.10719627352135

>  <r_epik_Ionization_Penalty>  (11) 
0.063200000000000006

>  <r_epik_Ionization_Penalty_Charging>  (11) 
0.0441

>  <r_epik_Ionization_Penalty_Neutral>  (11) 
0.019099999999999999

>  <r_epik_State_Penalty>  (11) 
0.063100000000000003

>  <r_i_docking_score>  (11) 
-4.5141814510099998

>  <r_i_glide_ecoul>  (11) 
-13.057600021362299

>  <r_i_glide_eff_state_penalty>  (11) 
0.063100000000000003

>  <r_i_glide_einternal>  (11) 
5.0052533149719203

>  <r_i_glide_emodel>  (11) 
-58.521068991754099

>  <r_i_glide_energy>  (11) 
-43.096227645874002

>  <r_i_glide_erotb>  (11) 
0.76045252336906599

>  <r_i_glide_esite>  (11) 
-0.10992849623319099

>  <r_i_glide_evdw>  (11) 
-30.038627624511701

>  <r_i_glide_gscore>  (11) 
-4.5772814510100002

>  <r_i_glide_hbond>  (11) 
-0.34231979563488002

>  <r_i_glide_ligand_efficiency>  (11) 
-0.14106817034406199

>  <r_i_glide_ligand_efficiency_ln>  (11) 
-1.0108482788200499

>  <r_i_glide_ligand_efficiency_sa>  (11) 
-0.44786352348939601

>  <r_i_glide_lipo>  (11) 
-0.81603482148991702

>  <r_i_glide_metal>  (11) 
-0

>  <r_i_glide_rewards>  (11) 
-0.60887947659114705

>  <r_lp_Energy>  (11) 
31.853007000000002

>  <r_lp_tautomer_probability>  (11) 
0.999999999997365

>  <r_qp_ACxDN^.5/SA>  (11) 
0.0157009

>  <r_qp_CIQPlogS>  (11) 
-5.1429999999999998

>  <r_qp_EA(eV)>  (11) 
0.86599999999999999

>  <r_qp_FISA>  (11) 
124.714

>  <r_qp_FOSA>  (11) 
209.08099999999999

>  <r_qp_IP(eV)>  (11) 
7.665

>  <r_qp_Jm>  (11) 
0.000548488768225782

>  <r_qp_PISA>  (11) 
465.99099999999999

>  <r_qp_PSA>  (11) 
82.834999999999994

>  <r_qp_PercentHumanOralAbsorption>  (11) 
89.719999999999999

>  <r_qp_QPPCaco>  (11) 
162.232

>  <r_qp_QPPMDCK>  (11) 
76.644999999999996

>  <r_qp_QPlogBB>  (11) 
-0.94799999999999995

>  <r_qp_QPlogHERG>  (11) 
-8.3140000000000001

>  <r_qp_QPlogKhsa>  (11) 
0.58099999999999996

>  <r_qp_QPlogKp>  (11) 
-3.4710000000000001

>  <r_qp_QPlogPC16>  (11) 
16.469000000000001

>  <r_qp_QPlogPo/w>  (11) 
3.9649999999999999

>  <r_qp_QPlogPoct>  (11) 
25.742999999999999

>  <r_qp_QPlogPw>  (11) 
15.432

>  <r_qp_QPlogS>  (11) 
-5.4199999999999999

>  <r_qp_QPpolrz>  (11) 
49.893000000000001

>  <r_qp_SASA>  (11) 
799.78599999999994

>  <r_qp_SAamideO>  (11) 
0

>  <r_qp_SAfluorine>  (11) 
0

>  <r_qp_WPSA>  (11) 
0

>  <r_qp_accptHB>  (11) 
7.25

>  <r_qp_dip^2/V>  (11) 
0.0594844

>  <r_qp_dipole>  (11) 
9.1829999999999998

>  <r_qp_donorHB>  (11) 
3

>  <r_qp_glob>  (11) 
0.7630709

>  <r_qp_mol_MW>  (11) 
426.517

>  <r_qp_volume>  (11) 
1417.623

>  <r_sd_BIOSOLVEIT.INFINISEE\_FTREES\_SIMILARITY>  (11) 
0.93100000000000005

>  <r_sd_BIOSOLVEIT.LOGP>  (11) 
3.4493

>  <r_sd_BIOSOLVEIT.MOLECULAR\_WEIGHT>  (11) 
427.52499999999998

>  <r_sd_BIOSOLVEIT.TPSA>  (11) 
78.689999999999998

>  <i_epik_Tot_Q>  (11) 
1

>  <i_epik_Tot_abs_Q>  (11) 
1

>  <i_f3d_flags>  (11) 
0

>  <i_i_glide_confnum>  (11) 
7

>  <i_i_glide_lignum>  (11) 
845

>  <i_i_glide_posenum>  (11) 
6

>  <i_i_glide_rotatable_bonds>  (11) 
9

>  <i_lp_mmshare_version>  (11) 
65135

>  <i_m_ct_format>  (11) 
2

>  <i_m_source_file_index>  (11) 
2205

>  <i_qp_#NandO>  (11) 
6

>  <i_qp_#acid>  (11) 
0

>  <i_qp_#amide>  (11) 
0

>  <i_qp_#amidine>  (11) 
0

>  <i_qp_#amine>  (11) 
1

>  <i_qp_#in34>  (11) 
0

>  <i_qp_#in56>  (11) 
22

>  <i_qp_#metab>  (11) 
8

>  <i_qp_#nonHatm>  (11) 
32

>  <i_qp_#noncon>  (11) 
0

>  <i_qp_#ringatoms>  (11) 
22

>  <i_qp_#rotor>  (11) 
8

>  <i_qp_#rtvFG>  (11) 
0

>  <i_qp_#stars>  (11) 
2

>  <i_qp_CNS>  (11) 
-1

>  <i_qp_HumanOralAbsorption>  (11) 
3

>  <i_qp_RuleOfFive>  (11) 
0

>  <i_qp_RuleOfThree>  (11) 
1

>  <i_sd_BIOSOLVEIT.INFINISEE\_RESULT\_RANK>  (11) 
4131

>  <i_sd_version>  (11) 
0

>  <b_lp_Chiralities_Consistent>  (11) 
1

>  <b_sd_chiral_flag>  (11) 
0

>  <canonical_id>  (11) 
ATP-HTVS-0125A5267C6C

>  <compound_code>  (11) 
70530

>  <title>  (11) 
rxn502b____EMOL490868____EMOL7515103____EMOL2873214

>  <variant>  (11) 
70530-1

>  <source_file>  (11) 
运行/运行/ATP-VSW/ATP-VSW-DOCK_HTVS_1-002_lib.maegz

>  <canonical_smiles>  (11) 
C[NH+](C)Cc1cccc(CNc2cnc(NC(=O)c3ccc(O)cc3)c3ccccc23)c1

>  <scaffold>  (11) 
O=C(Nc1ncc(NCc2ccccc2)c2ccccc12)c1ccccc1

>  <molecular_formula>  (11) 
C26H27N4O2+

$$$$
ATP-HTVS-0161AEC2E23E
     RDKit          3D

 55 57  0  0  0  0  0  0  0  0999 V2000
  198.6503  178.7666  155.2841 S   0  0  0  0  0  0  0  0  0  0  0  0
  200.1160  178.2911  154.4702 C   0  0  0  0  0  0  0  0  0  0  0  0
  200.7654  177.0289  154.8151 C   0  0  0  0  0  0  0  0  0  0  0  0
  201.1910  176.6899  156.1329 C   0  0  0  0  0  0  0  0  0  0  0  0
  201.0021  177.5790  157.3025 N   0  0  0  0  0  0  0  0  0  0  0  0
  201.1566  178.7882  157.1600 O   0  0  0  0  0  0  0  0  0  0  0  0
  200.7339  177.0568  158.3759 O   0  0  0  0  0  0  0  0  0  0  0  0
  201.8345  175.4512  156.3449 C   0  0  0  0  0  0  0  0  0  0  0  0
  202.0597  174.5510  155.2864 C   0  0  0  0  0  0  0  0  0  0  0  0
  201.6350  174.8797  153.9915 C   0  0  0  0  0  0  0  0  0  0  0  0
  200.9985  176.1106  153.7594 C   0  0  0  0  0  0  0  0  0  0  0  0
  200.4867  179.2214  153.5317 C   0  0  0  0  0  0  0  0  0  0  0  0
  199.6490  180.3723  153.5262 C   0  0  0  0  0  0  0  0  0  0  0  0
  198.6329  180.3087  154.4451 C   0  0  0  0  0  0  0  0  0  0  0  0
  197.5896  181.3372  154.7299 C   0  0  2  0  0  0  0  0  0  0  0  0
  197.1565  181.3161  156.1491 N   0  0  1  0  0  0  0  0  0  0  0  0
  197.7343  182.3387  157.0519 C   0  0  1  0  0  0  0  0  0  0  0  0
  196.6688  183.0362  157.9057 C   0  0  0  0  0  0  0  0  0  0  0  0
  196.8181  184.3595  158.3988 C   0  0  0  0  0  0  0  0  0  0  0  0
  195.7773  184.9431  159.1780 C   0  0  0  0  0  0  0  0  0  0  0  0
  194.5891  184.2305  159.4409 C   0  0  0  0  0  0  0  0  0  0  0  0
  194.4342  182.9345  158.9344 C   0  0  0  0  0  0  0  0  0  0  0  0
  195.4686  182.3361  158.1902 C   0  0  0  0  0  0  0  0  0  0  0  0
  198.0597  185.2033  158.1341 C   0  0  1  0  0  0  0  0  0  0  0  0
  197.9074  186.1235  156.9664 N   0  0  1  0  0  0  0  0  0  0  0  0
  199.0381  187.0625  156.8374 C   0  0  2  0  0  0  0  0  0  0  0  0
  197.6480  185.4361  155.6776 C   0  0  2  0  0  0  0  0  0  0  0  0
  196.3805  181.1486  153.8228 C   0  0  2  0  0  0  0  0  0  0  0  0
  196.1594  181.4553  156.1542 H   0  0  0  0  0  0  0  0  0  0  0  0
  202.1762  175.1821  157.3333 H   0  0  0  0  0  0  0  0  0  0  0  0
  202.5633  173.6160  155.4703 H   0  0  0  0  0  0  0  0  0  0  0  0
  201.8052  174.1896  153.1785 H   0  0  0  0  0  0  0  0  0  0  0  0
  200.6827  176.3512  152.7547 H   0  0  0  0  0  0  0  0  0  0  0  0
  201.3349  179.1207  152.8671 H   0  0  0  0  0  0  0  0  0  0  0  0
  199.8215  181.1993  152.8535 H   0  0  0  0  0  0  0  0  0  0  0  0
  197.9896  182.3204  154.4680 H   0  0  0  0  0  0  0  0  0  0  0  0
  198.5013  181.8908  157.6986 H   0  0  0  0  0  0  0  0  0  0  0  0
  198.2546  183.1060  156.4390 H   0  0  0  0  0  0  0  0  0  0  0  0
  195.8739  185.9421  159.5724 H   0  0  0  0  0  0  0  0  0  0  0  0
  193.7955  184.6802  160.0296 H   0  0  0  0  0  0  0  0  0  0  0  0
  193.5304  182.3729  159.1102 H   0  0  0  0  0  0  0  0  0  0  0  0
  195.2746  181.3393  157.8394 H   0  0  0  0  0  0  0  0  0  0  0  0
  198.2523  185.7932  159.0254 H   0  0  0  0  0  0  0  0  0  0  0  0
  198.9460  184.5711  158.0160 H   0  0  0  0  0  0  0  0  0  0  0  0
  199.9736  186.5260  156.6636 H   0  0  0  0  0  0  0  0  0  0  0  0
  199.1591  187.6783  157.7298 H   0  0  0  0  0  0  0  0  0  0  0  0
  198.8801  187.7317  155.9902 H   0  0  0  0  0  0  0  0  0  0  0  0
  198.5103  184.8288  155.4042 H   0  0  0  0  0  0  0  0  0  0  0  0
  197.4422  186.1546  154.8717 H   0  0  0  0  0  0  0  0  0  0  0  0
  196.7881  184.7796  155.7337 H   0  0  0  0  0  0  0  0  0  0  0  0
  196.6447  181.2251  152.7681 H   0  0  0  0  0  0  0  0  0  0  0  0
  195.6213  181.9015  154.0291 H   0  0  0  0  0  0  0  0  0  0  0  0
  195.9551  180.1588  153.9820 H   0  0  0  0  0  0  0  0  0  0  0  0
  197.0877  186.6837  157.1685 H   0  0  0  0  0  0  0  0  0  0  0  0
  197.2971  180.3937  156.5360 H   0  0  0  0  0  0  0  0  0  0  0  0
  1  2  1  0
  1 14  1  0
  2  3  1  0
  2 12  2  0
  3  4  1  0
  3 11  2  0
  4  5  1  0
  4  8  2  0
  5  6  1  0
  5  7  2  0
  8  9  1  0
  8 30  1  0
  9 10  2  0
  9 31  1  0
 10 11  1  0
 10 32  1  0
 11 33  1  0
 12 13  1  0
 12 34  1  0
 13 14  2  0
 13 35  1  0
 14 15  1  0
 15 16  1  0
 15 28  1  0
 15 36  1  6
 16 17  1  0
 16 29  1  6
 16 55  1  0
 17 18  1  0
 17 37  1  1
 17 38  1  0
 18 19  1  0
 18 23  2  0
 19 20  2  0
 19 24  1  0
 20 21  1  0
 20 39  1  0
 21 22  2  0
 21 40  1  0
 22 23  1  0
 22 41  1  0
 23 42  1  0
 24 25  1  0
 24 43  1  1
 24 44  1  0
 25 26  1  0
 25 27  1  0
 25 54  1  1
 26 45  1  6
 26 46  1  0
 26 47  1  0
 27 48  1  6
 27 49  1  0
 27 50  1  0
 28 51  1  6
 28 52  1  0
 28 53  1  0
M  CHG  4   5   1   6  -1  16   1  25   1
M  END
>  <s_epik_cmdline>  (12) 
J2VwaWtfcHl0aG9uJywgJy1waCcsICc3LjAwMDAwMCcsICctcGh0JywgJzIuMDAwMDAwJywgJy1tcycsICcxNicsICctdG4nLCAnOCcsICctbWEnLCAnMjAwJywgJy1pbWFlJywgJzxpbmZpbGUubWFlPicsICctb21hZScsICc8b3V0ZmlsZS5tYWU+Jw==

>  <s_epik_input>  (12) 
W2NIXTFbY0hdW2NIXVtjSF1jKFtOK10oW08tXSk9TyljMS1jMnNjKFtjSF1bY0hdMilbQ0BASF0oW0NIM10pW05IXVtDSDJdYzNjKFtDSDJdTihbQ0gzXSlbQ0gzXSlbY0hdW2NIXVtjSF1bY0hdMw==

>  <s_i_glide_gridfile>  (12) 
ATP-Grid

>  <s_lp_Force_Field>  (12) 
OPLS_2005

>  <s_lp_Variant>  (12) 
m_269862bba____24386160____7200598-1

>  <s_lp_label>  (12) 
1528_sdstereoexpander_1_neutralizer_1_epik_1_stereoizer_1

>  <s_m_source_file>  (12) 
ATP-VSW-LIGPREP-003-in.maegz

>  <s_sd_BIOSOLVEIT.INFINISEE\_QUERY\_NAME>  (12) 
Ref-Lig

>  <s_sd_BIOSOLVEIT.INFINISEE\_QUERY\_SMILES>  (12) 
S(c1nc2c(cc1C[NH2+]Cc3ccc(cc3)C[NH+](C)C)cccc2)Cc4ccccc4

>  <s_sd_BIOSOLVEIT.INFINISEE\_REACTION\_NAME>  (12) 
m_269862bba

>  <s_sd_BIOSOLVEIT.INFINISEE\_REAGENT1\_SMILES>  (12) 
[R1*]NCc1c(cccc1)CN(C)C

>  <s_sd_BIOSOLVEIT.INFINISEE\_REAGENT2\_SMILES>  (12) 
[R1*]C(C=1SC(c2c([N+]([O-])=O)cccc2)=CC1)C

>  <s_sd_BIOSOLVEIT.INFINISEE\_SPACE>  (12) 
REALSpace_44bn_2023-08

>  <s_vsw_compound_code>  (12) 
48867

>  <s_vsw_variant>  (12) 
48867-1

>  <r_epik_Charging_Adjusted_Penalty>  (12) 
0.33025393620938698

>  <r_epik_Ionization_Penalty>  (12) 
0.16650000000000001

>  <r_epik_Ionization_Penalty_Charging>  (12) 
0.16650000000000001

>  <r_epik_Ionization_Penalty_Neutral>  (12) 
0

>  <r_epik_State_Penalty>  (12) 
0.1638

>  <r_i_docking_score>  (12) 
-4.8348386986503096

>  <r_i_glide_ecoul>  (12) 
-8.9683141708374006

>  <r_i_glide_eff_state_penalty>  (12) 
0.1638

>  <r_i_glide_einternal>  (12) 
10.196438789367701

>  <r_i_glide_emodel>  (12) 
-58.579291575503099

>  <r_i_glide_energy>  (12) 
-43.107443809509299

>  <r_i_glide_erotb>  (12) 
0.74322268203703001

>  <r_i_glide_esite>  (12) 
-0.080192634697401802

>  <r_i_glide_evdw>  (12) 
-34.139129638671903

>  <r_i_glide_gscore>  (12) 
-4.9986386986503097

>  <r_i_glide_hbond>  (12) 
-0.00238086901160563

>  <r_i_glide_ligand_efficiency>  (12) 
-0.17267281066608201

>  <r_i_glide_ligand_efficiency_ln>  (12) 
-1.1160227286811

>  <r_i_glide_ligand_efficiency_sa>  (12) 
-0.52433635202900097

>  <r_i_glide_lipo>  (12) 
-1.4098980400687

>  <r_i_glide_metal>  (12) 
-0

>  <r_i_glide_rewards>  (12) 
-1.1971862293504201

>  <r_lp_Energy>  (12) 
24.397524000000001

>  <r_qp_ACxDN^.5/SA>  (12) 
0.0067261999999999999

>  <r_qp_CIQPlogS>  (12) 
-4.3810000000000002

>  <r_qp_EA(eV)>  (12) 
1.2809999999999999

>  <r_qp_FISA>  (12) 
68.501000000000005

>  <r_qp_FOSA>  (12) 
280.52199999999999

>  <r_qp_IP(eV)>  (12) 
8.9350000000000005

>  <r_qp_Jm>  (12) 
0.0012011790587909701

>  <r_qp_PISA>  (12) 
297.34899999999999

>  <r_qp_PSA>  (12) 
56.808999999999997

>  <r_qp_PercentHumanOralAbsorption>  (12) 
89.379000000000005

>  <r_qp_QPPCaco>  (12) 
138.071

>  <r_qp_QPPMDCK>  (12) 
94.789000000000001

>  <r_qp_QPlogBB>  (12) 
0.34100000000000003

>  <r_qp_QPlogHERG>  (12) 
-7.0579999999999998

>  <r_qp_QPlogKhsa>  (12) 
0.83399999999999996

>  <r_qp_QPlogKp>  (12) 
-5.1879999999999997

>  <r_qp_QPlogPC16>  (12) 
12.728999999999999

>  <r_qp_QPlogPo/w>  (12) 
4.1210000000000004

>  <r_qp_QPlogPoct>  (12) 
18.166

>  <r_qp_QPlogPw>  (12) 
8.1790000000000003

>  <r_qp_QPlogS>  (12) 
-3.3300000000000001

>  <r_qp_QPpolrz>  (12) 
41.954999999999998

>  <r_qp_SASA>  (12) 
669.02499999999998

>  <r_qp_SAamideO>  (12) 
0

>  <r_qp_SAfluorine>  (12) 
0

>  <r_qp_WPSA>  (12) 
22.652999999999999

>  <r_qp_accptHB>  (12) 
4.5

>  <r_qp_dip^2/V>  (12) 
0.0396754

>  <r_qp_dipole>  (12) 
7.024

>  <r_qp_donorHB>  (12) 
1

>  <r_qp_glob>  (12) 
0.83589329999999995

>  <r_qp_mol_MW>  (12) 
395.51799999999997

>  <r_qp_volume>  (12) 
1243.49

>  <r_sd_BIOSOLVEIT.INFINISEE\_FTREES\_SIMILARITY>  (12) 
0.90700000000000003

>  <r_sd_BIOSOLVEIT.LOGP>  (12) 
2.7924000000000002

>  <r_sd_BIOSOLVEIT.MOLECULAR\_WEIGHT>  (12) 
397.53899999999999

>  <r_sd_BIOSOLVEIT.TPSA>  (12) 
66.870000000000005

>  <i_epik_Tot_Q>  (12) 
2

>  <i_epik_Tot_abs_Q>  (12) 
4

>  <i_f3d_flags>  (12) 
0

>  <i_i_glide_confnum>  (12) 
1

>  <i_i_glide_lignum>  (12) 
579

>  <i_i_glide_posenum>  (12) 
16

>  <i_i_glide_rotatable_bonds>  (12) 
8

>  <i_lp_mmshare_version>  (12) 
65135

>  <i_m_ct_format>  (12) 
2

>  <i_m_source_file_index>  (12) 
1528

>  <i_qp_#NandO>  (12) 
5

>  <i_qp_#acid>  (12) 
0

>  <i_qp_#amide>  (12) 
0

>  <i_qp_#amidine>  (12) 
0

>  <i_qp_#amine>  (12) 
2

>  <i_qp_#in34>  (12) 
0

>  <i_qp_#in56>  (12) 
17

>  <i_qp_#metab>  (12) 
7

>  <i_qp_#nonHatm>  (12) 
28

>  <i_qp_#noncon>  (12) 
0

>  <i_qp_#ringatoms>  (12) 
17

>  <i_qp_#rotor>  (12) 
7

>  <i_qp_#rtvFG>  (12) 
0

>  <i_qp_#stars>  (12) 
0

>  <i_qp_CNS>  (12) 
1

>  <i_qp_HumanOralAbsorption>  (12) 
3

>  <i_qp_RuleOfFive>  (12) 
0

>  <i_qp_RuleOfThree>  (12) 
1

>  <i_sd_BIOSOLVEIT.INFINISEE\_REAGENT1\_NAME>  (12) 
24386160

>  <i_sd_BIOSOLVEIT.INFINISEE\_REAGENT2\_NAME>  (12) 
7200598

>  <i_sd_BIOSOLVEIT.INFINISEE\_RESULT\_RANK>  (12) 
61089

>  <i_sd_version>  (12) 
0

>  <b_lp_Chiralities_Consistent>  (12) 
1

>  <b_sd_chiral_flag>  (12) 
0

>  <canonical_id>  (12) 
ATP-HTVS-0161AEC2E23E

>  <compound_code>  (12) 
48867

>  <title>  (12) 
m_269862bba____24386160____7200598

>  <variant>  (12) 
48867-1

>  <source_file>  (12) 
运行/运行/ATP-VSW/ATP-VSW-DOCK_HTVS_1-003_lib/ATP-VSW-DOCK_HTVS_1-003_lib.mae

>  <canonical_smiles>  (12) 
C[C@@H]([NH2+]Cc1ccccc1C[NH+](C)C)c1ccc(-c2ccccc2[N+](=O)[O-])s1

>  <scaffold>  (12) 
c1ccc(C[NH2+]Cc2ccc(-c3ccccc3)s2)cc1

>  <molecular_formula>  (12) 
C22H27N3O2S+2

$$$$
ATP-HTVS-017DA1C05B1D
     RDKit          3D

 59 62  0  0  0  0  0  0  0  0999 V2000
  197.9580  176.6621  149.4682 O   0  0  0  0  0  0  0  0  0  0  0  0
  198.1064  177.5764  148.6596 C   0  0  0  0  0  0  0  0  0  0  0  0
  198.0462  178.8887  148.9539 N   0  0  0  0  0  0  0  0  0  0  0  0
  197.8661  179.5140  150.2156 C   0  0  0  0  0  0  0  0  0  0  0  0
  197.5959  178.7966  151.3281 N   0  0  0  0  0  0  0  0  0  0  0  0
  197.4362  179.4329  152.5021 C   0  0  0  0  0  0  0  0  0  0  0  0
  197.5161  180.8260  152.6395 C   0  0  0  0  0  0  0  0  0  0  0  0
  197.2447  181.3978  153.9412 C   0  0  0  0  0  0  0  0  0  0  0  0
  196.9827  181.8786  155.0269 C   0  0  0  0  0  0  0  0  0  0  0  0
  196.8047  182.4489  156.3577 C   0  0  1  0  0  0  0  0  0  0  0  0
  195.5941  181.8139  156.9543 N   0  0  1  0  0  0  0  0  0  0  0  0
  195.0347  182.4023  158.1929 C   0  0  2  0  0  0  0  0  0  0  0  0
  195.8504  183.5526  158.7860 C   0  0  0  0  0  0  0  0  0  0  0  0
  197.2313  183.3870  159.0328 C   0  0  0  0  0  0  0  0  0  0  0  0
  198.0110  184.4762  159.4310 C   0  0  0  0  0  0  0  0  0  0  0  0
  197.4127  185.7257  159.7028 C   0  0  0  0  0  0  0  0  0  0  0  0
  196.0170  185.8783  159.5407 C   0  0  0  0  0  0  0  0  0  0  0  0
  195.2395  184.7974  159.0682 C   0  0  0  0  0  0  0  0  0  0  0  0
  194.8053  181.3098  159.2273 C   0  0  2  0  0  0  0  0  0  0  0  0
  197.7988  181.6053  151.4981 C   0  0  0  0  0  0  0  0  0  0  0  0
  197.9787  180.9376  150.2523 C   0  0  0  0  0  0  0  0  0  0  0  0
  198.2639  181.7098  149.1010 C   0  0  0  0  0  0  0  0  0  0  0  0
  198.3507  183.1118  149.1740 C   0  0  0  0  0  0  0  0  0  0  0  0
  198.1685  183.7699  150.4009 C   0  0  0  0  0  0  0  0  0  0  0  0
  197.8929  183.0217  151.5570 C   0  0  0  0  0  0  0  0  0  0  0  0
  198.3808  177.2405  147.1916 C   0  0  1  0  0  0  0  0  0  0  0  0
  199.6901  176.4630  147.0367 C   0  0  0  0  0  0  0  0  0  0  0  0
  200.8946  177.0719  146.5914 C   0  0  0  0  0  0  0  0  0  0  0  0
  200.9671  178.4890  146.2621 C   0  0  0  0  0  0  0  0  0  0  0  0
  201.0187  179.6163  146.0048 N   0  0  0  0  0  0  0  0  0  0  0  0
  202.0673  176.2964  146.4622 C   0  0  0  0  0  0  0  0  0  0  0  0
  202.0541  174.9228  146.7679 C   0  0  0  0  0  0  0  0  0  0  0  0
  200.8642  174.3141  147.2032 C   0  0  0  0  0  0  0  0  0  0  0  0
  199.6907  175.0803  147.3305 C   0  0  0  0  0  0  0  0  0  0  0  0
  194.8405  181.9141  156.2650 H   0  0  0  0  0  0  0  0  0  0  0  0
  198.1763  179.5175  148.1818 H   0  0  0  0  0  0  0  0  0  0  0  0
  197.2198  178.8105  153.3607 H   0  0  0  0  0  0  0  0  0  0  0  0
  197.6847  182.2301  156.9362 H   0  0  0  0  0  0  0  0  0  0  0  0
  196.6861  183.5304  156.2343 H   0  0  0  0  0  0  0  0  0  0  0  0
  194.0555  182.7970  157.9172 H   0  0  0  0  0  0  0  0  0  0  0  0
  197.6974  182.4259  158.8262 H   0  0  0  0  0  0  0  0  0  0  0  0
  199.0846  184.3659  159.5167 H   0  0  0  0  0  0  0  0  0  0  0  0
  198.0138  186.5568  160.0488 H   0  0  0  0  0  0  0  0  0  0  0  0
  195.5461  186.8254  159.7804 H   0  0  0  0  0  0  0  0  0  0  0  0
  194.1779  184.9406  158.9099 H   0  0  0  0  0  0  0  0  0  0  0  0
  194.3480  181.7129  160.1193 H   0  0  0  0  0  0  0  0  0  0  0  0
  195.7483  180.8405  159.5062 H   0  0  0  0  0  0  0  0  0  0  0  0
  194.1239  180.5522  158.8431 H   0  0  0  0  0  0  0  0  0  0  0  0
  198.4117  181.2513  148.1379 H   0  0  0  0  0  0  0  0  0  0  0  0
  198.5607  183.6803  148.2823 H   0  0  0  0  0  0  0  0  0  0  0  0
  198.2449  184.8460  150.4538 H   0  0  0  0  0  0  0  0  0  0  0  0
  197.7618  183.5535  152.4904 H   0  0  0  0  0  0  0  0  0  0  0  0
  197.5597  176.6333  146.8184 H   0  0  0  0  0  0  0  0  0  0  0  0
  198.3643  178.1420  146.5791 H   0  0  0  0  0  0  0  0  0  0  0  0
  202.9874  176.7539  146.1270 H   0  0  0  0  0  0  0  0  0  0  0  0
  202.9569  174.3385  146.6685 H   0  0  0  0  0  0  0  0  0  0  0  0
  200.8473  173.2587  147.4358 H   0  0  0  0  0  0  0  0  0  0  0  0
  198.7829  174.6019  147.6700 H   0  0  0  0  0  0  0  0  0  0  0  0
  195.7584  180.8276  157.1041 H   0  0  0  0  0  0  0  0  0  0  0  0
  1  2  2  0
  2  3  1  0
  2 26  1  0
  3  4  1  0
  3 36  1  0
  4  5  1  0
  4 21  2  0
  5  6  2  0
  6  7  1  0
  6 37  1  0
  7  8  1  0
  7 20  2  0
  8  9  3  0
  9 10  1  0
 10 11  1  0
 10 38  1  1
 10 39  1  0
 11 12  1  0
 11 35  1  6
 11 59  1  0
 12 13  1  0
 12 19  1  0
 12 40  1  6
 13 14  2  0
 13 18  1  0
 14 15  1  0
 14 41  1  0
 15 16  2  0
 15 42  1  0
 16 17  1  0
 16 43  1  0
 17 18  2  0
 17 44  1  0
 18 45  1  0
 19 46  1  1
 19 47  1  0
 19 48  1  0
 20 21  1  0
 20 25  1  0
 21 22  1  0
 22 23  2  0
 22 49  1  0
 23 24  1  0
 23 50  1  0
 24 25  2  0
 24 51  1  0
 25 52  1  0
 26 27  1  0
 26 53  1  6
 26 54  1  0
 27 28  1  0
 27 34  2  0
 28 29  1  0
 28 31  2  0
 29 30  3  0
 31 32  1  0
 31 55  1  0
 32 33  2  0
 32 56  1  0
 33 34  1  0
 33 57  1  0
 34 58  1  0
M  CHG  1  11   1
M  END
>  <s_epik_cmdline>  (13) 
J2VwaWtfcHl0aG9uJywgJy1waCcsICc3LjAwMDAwMCcsICctcGh0JywgJzIuMDAwMDAwJywgJy1tcycsICcxNicsICctdG4nLCAnOCcsICctbWEnLCAnMjAwJywgJy1pbWFlJywgJzxpbmZpbGUubWFlPicsICctb21hZScsICc8b3V0ZmlsZS5tYWU+Jw==

>  <s_epik_input>  (13) 
W2NIXTFbY0hdW2NIXVtjSF1jKEMjTiljMVtDSDJdQyg9TylbTkhdYyhjKGMyMylbY0hdW2NIXVtjSF1bY0hdMyluW2NIXWMyQyNDW0NIMl1bTkhdW0NAQEhdKFtDSDNdKWM0W2NIXVtjSF1bY0hdW2NIXVtjSF00

>  <s_i_glide_gridfile>  (13) 
ATP-Grid

>  <s_lp_Force_Field>  (13) 
OPLS_2005

>  <s_lp_Variant>  (13) 
rxn503b____EMOL3801098____EMOL7515103____EMOL1468452-4

>  <s_lp_label>  (13) 
3081_sdstereoexpander_2_neutralizer_1_epik_2_stereoizer_1

>  <s_m_source_file>  (13) 
ATP-VSW-LIGPREP-002-in.maegz

>  <s_sd_BIOSOLVEIT.INFINISEE\_QUERY\_NAME>  (13) 
Ref-Lig

>  <s_sd_BIOSOLVEIT.INFINISEE\_QUERY\_SMILES>  (13) 
S(c1nc2c(cc1C[NH2+]Cc3ccc(cc3)C[NH+](C)C)cccc2)Cc4ccccc4

>  <s_sd_BIOSOLVEIT.INFINISEE\_REACTION\_NAME>  (13) 
rxn503b

>  <s_sd_BIOSOLVEIT.INFINISEE\_REAGENT1\_NAME>  (13) 
EMOL3801098

>  <s_sd_BIOSOLVEIT.INFINISEE\_REAGENT1\_SMILES>  (13) 
O=C(O)Cc1c(C#N)cccc1

>  <s_sd_BIOSOLVEIT.INFINISEE\_REAGENT2\_NAME>  (13) 
EMOL7515103

>  <s_sd_BIOSOLVEIT.INFINISEE\_REAGENT2\_SMILES>  (13) 
Brc1c2c(c(nc1)N)cccc2

>  <s_sd_BIOSOLVEIT.INFINISEE\_REAGENT3\_NAME>  (13) 
EMOL1468452

>  <s_sd_BIOSOLVEIT.INFINISEE\_REAGENT3\_SMILES>  (13) 
N(C(c1ccccc1)C)CC#C

>  <s_sd_BIOSOLVEIT.INFINISEE\_SPACE>  (13) 
eXplore_7tr_2022-12

>  <s_vsw_compound_code>  (13) 
98562

>  <s_vsw_variant>  (13) 
98562-4

>  <r_epik_Charging_Adjusted_Penalty>  (13) 
1.1372904760564899

>  <r_epik_Ionization_Penalty>  (13) 
0.56920000000000004

>  <r_epik_Ionization_Penalty_Charging>  (13) 
0.56859999999999999

>  <r_epik_Ionization_Penalty_Neutral>  (13) 
0.00050000000000000001

>  <r_epik_State_Penalty>  (13) 
0.56859999999999999

>  <r_i_docking_score>  (13) 
-4.4762781752278897

>  <r_i_glide_ecoul>  (13) 
-11.5678157806396

>  <r_i_glide_eff_state_penalty>  (13) 
0.56859999999999999

>  <r_i_glide_einternal>  (13) 
6.94728755950928

>  <r_i_glide_emodel>  (13) 
-59.901091113115498

>  <r_i_glide_energy>  (13) 
-43.3309326171875

>  <r_i_glide_erotb>  (13) 
0.80640205479537896

>  <r_i_glide_esite>  (13) 
-0.10713189995498899

>  <r_i_glide_evdw>  (13) 
-31.763116836547901

>  <r_i_glide_gscore>  (13) 
-5.0448781752278897

>  <r_i_glide_hbond>  (13) 
-0.40000000000000002

>  <r_i_glide_ligand_efficiency>  (13) 
-0.13165524044787899

>  <r_i_glide_ligand_efficiency_ln>  (13) 
-0.98893540425781301

>  <r_i_glide_ligand_efficiency_sa>  (13) 
-0.42651187015362901

>  <r_i_glide_lipo>  (13) 
-1.47957206123951

>  <r_i_glide_metal>  (13) 
-0

>  <r_i_glide_rewards>  (13) 
-0.54124805990542801

>  <r_lp_Energy>  (13) 
25.103024000000001

>  <r_qp_ACxDN^.5/SA>  (13) 
0.011262400000000001

>  <r_qp_CIQPlogS>  (13) 
-6.8639999999999999

>  <r_qp_EA(eV)>  (13) 
1.2110000000000001

>  <r_qp_FISA>  (13) 
128.16399999999999

>  <r_qp_FOSA>  (13) 
166.56700000000001

>  <r_qp_IP(eV)>  (13) 
8.4299999999999997

>  <r_qp_Jm>  (13) 
3.0625406389481602e-05

>  <r_qp_PISA>  (13) 
521.47299999999996

>  <r_qp_PSA>  (13) 
83.405000000000001

>  <r_qp_PercentHumanOralAbsorption>  (13) 
94.465000000000003

>  <r_qp_QPPCaco>  (13) 
150.46100000000001

>  <r_qp_QPPMDCK>  (13) 
70.652000000000001

>  <r_qp_QPlogBB>  (13) 
-1.0249999999999999

>  <r_qp_QPlogHERG>  (13) 
-8.4800000000000004

>  <r_qp_QPlogKhsa>  (13) 
0.91000000000000003

>  <r_qp_QPlogKp>  (13) 
-3.2429999999999999

>  <r_qp_QPlogPC16>  (13) 
17.196999999999999

>  <r_qp_QPlogPo/w>  (13) 
4.8760000000000003

>  <r_qp_QPlogPoct>  (13) 
25.350999999999999

>  <r_qp_QPlogPw>  (13) 
13.449

>  <r_qp_QPlogS>  (13) 
-6.9189999999999996

>  <r_qp_QPpolrz>  (13) 
52.241

>  <r_qp_SASA>  (13) 
816.20399999999995

>  <r_qp_SAamideO>  (13) 
0

>  <r_qp_SAfluorine>  (13) 
0

>  <r_qp_WPSA>  (13) 
0

>  <r_qp_accptHB>  (13) 
6.5

>  <r_qp_dip^2/V>  (13) 
0.097443100000000005

>  <r_qp_dipole>  (13) 
12.005000000000001

>  <r_qp_donorHB>  (13) 
2

>  <r_qp_glob>  (13) 
0.76918569999999997

>  <r_qp_mol_MW>  (13) 
444.53500000000003

>  <r_qp_volume>  (13) 
1479.0989999999999

>  <r_sd_BIOSOLVEIT.INFINISEE\_FTREES\_SIMILARITY>  (13) 
0.90100000000000002

>  <r_sd_BIOSOLVEIT.LOGP>  (13) 
3.9637799999999999

>  <r_sd_BIOSOLVEIT.MOLECULAR\_WEIGHT>  (13) 
445.54399999999998

>  <r_sd_BIOSOLVEIT.TPSA>  (13) 
82.390000000000001

>  <i_epik_Tot_Q>  (13) 
1

>  <i_epik_Tot_abs_Q>  (13) 
1

>  <i_f3d_flags>  (13) 
0

>  <i_i_glide_confnum>  (13) 
5

>  <i_i_glide_lignum>  (13) 
130

>  <i_i_glide_posenum>  (13) 
19

>  <i_i_glide_rotatable_bonds>  (13) 
9

>  <i_lp_mmshare_version>  (13) 
65135

>  <i_m_ct_format>  (13) 
2

>  <i_m_source_file_index>  (13) 
3081

>  <i_qp_#NandO>  (13) 
5

>  <i_qp_#acid>  (13) 
0

>  <i_qp_#amide>  (13) 
0

>  <i_qp_#amidine>  (13) 
0

>  <i_qp_#amine>  (13) 
1

>  <i_qp_#in34>  (13) 
0

>  <i_qp_#in56>  (13) 
22

>  <i_qp_#metab>  (13) 
6

>  <i_qp_#nonHatm>  (13) 
34

>  <i_qp_#noncon>  (13) 
0

>  <i_qp_#ringatoms>  (13) 
22

>  <i_qp_#rotor>  (13) 
9

>  <i_qp_#rtvFG>  (13) 
0

>  <i_qp_#stars>  (13) 
2

>  <i_qp_CNS>  (13) 
-2

>  <i_qp_HumanOralAbsorption>  (13) 
1

>  <i_qp_RuleOfFive>  (13) 
0

>  <i_qp_RuleOfThree>  (13) 
1

>  <i_sd_BIOSOLVEIT.INFINISEE\_RESULT\_RANK>  (13) 
94615

>  <i_sd_version>  (13) 
0

>  <b_lp_Chiralities_Consistent>  (13) 
1

>  <b_sd_chiral_flag>  (13) 
0

>  <canonical_id>  (13) 
ATP-HTVS-017DA1C05B1D

>  <compound_code>  (13) 
98562

>  <title>  (13) 
rxn503b____EMOL3801098____EMOL7515103____EMOL1468452

>  <variant>  (13) 
98562-4

>  <source_file>  (13) 
运行/运行/ATP-VSW/ATP-VSW-DOCK_HTVS_1-003_lib/ATP-VSW-DOCK_HTVS_1-003_lib.mae

>  <canonical_smiles>  (13) 
C[C@H]([NH2+]CC#Cc1cnc(NC(=O)Cc2ccccc2C#N)c2ccccc12)c1ccccc1

>  <scaffold>  (13) 
O=C(Cc1ccccc1)Nc1ncc(C#CC[NH2+]Cc2ccccc2)c2ccccc12

>  <molecular_formula>  (13) 
C29H25N4O+

$$$$
ATP-HTVS-01DF3EF44742
     RDKit          3D

 56 58  0  0  0  0  0  0  0  0999 V2000
  196.1688  183.9906  150.4090 O   0  0  0  0  0  0  0  0  0  0  0  0
  197.0737  183.1721  150.5350 C   0  0  0  0  0  0  0  0  0  0  0  0
  198.2662  183.2458  149.8473 N   0  0  0  0  0  0  0  0  0  0  0  0
  198.4136  184.1524  148.7342 C   0  0  0  0  0  0  0  0  0  0  0  0
  197.4480  184.1864  147.7020 C   0  0  0  0  0  0  0  0  0  0  0  0
  197.6100  185.0216  146.5770 C   0  0  0  0  0  0  0  0  0  0  0  0
  198.7495  185.8308  146.4628 C   0  0  0  0  0  0  0  0  0  0  0  0
  199.7213  185.8165  147.4786 C   0  0  0  0  0  0  0  0  0  0  0  0
  199.5584  184.9849  148.6078 C   0  0  0  0  0  0  0  0  0  0  0  0
  199.4487  182.4412  150.2341 C   0  0  1  0  0  0  0  0  0  0  0  0
  199.4711  181.0521  149.5640 C   0  0  1  0  0  0  0  0  0  0  0  0
  200.5250  180.2874  150.0979 O   0  0  0  0  0  0  0  0  0  0  0  0
  196.8694  181.9806  151.4472 C   0  0  0  0  0  0  0  0  0  0  0  0
  197.1341  182.0264  152.8583 C   0  0  0  0  0  0  0  0  0  0  0  0
  197.5492  183.2235  153.4924 N   0  0  0  0  0  0  0  0  0  0  0  0
  197.4504  183.5896  154.8460 C   0  0  0  0  0  0  0  0  0  0  0  0
  196.7353  182.8142  155.8027 C   0  0  0  0  0  0  0  0  0  0  0  0
  196.7099  183.1845  157.1626 C   0  0  0  0  0  0  0  0  0  0  0  0
  197.3430  184.3793  157.5947 C   0  0  0  0  0  0  0  0  0  0  0  0
  198.0004  185.1812  156.6380 C   0  0  0  0  0  0  0  0  0  0  0  0
  198.0705  184.7919  155.2820 C   0  0  0  0  0  0  0  0  0  0  0  0
  195.9923  182.2687  158.1382 C   0  0  1  0  0  0  0  0  0  0  0  0
  194.5316  182.5183  158.1164 N   0  0  1  0  0  0  0  0  0  0  0  0
  193.7635  181.3300  158.5690 C   0  0  2  0  0  0  0  0  0  0  0  0
  194.1664  183.7342  158.9134 C   0  0  2  0  0  0  0  0  0  0  0  0
  197.0373  180.7933  153.5699 C   0  0  0  0  0  0  0  0  0  0  0  0
  196.6181  179.6352  153.0137 N   0  0  0  0  0  0  0  0  0  0  0  0
  196.3159  179.6232  151.6936 C   0  0  0  0  0  0  0  0  0  0  0  0
  196.4287  180.7547  150.8858 C   0  0  0  0  0  0  0  0  0  0  0  0
  196.5723  183.5565  147.7503 H   0  0  0  0  0  0  0  0  0  0  0  0
  196.8521  185.0372  145.8078 H   0  0  0  0  0  0  0  0  0  0  0  0
  198.8697  186.4818  145.6087 H   0  0  0  0  0  0  0  0  0  0  0  0
  200.5920  186.4495  147.3962 H   0  0  0  0  0  0  0  0  0  0  0  0
  200.3264  185.0068  149.3648 H   0  0  0  0  0  0  0  0  0  0  0  0
  200.3812  182.9389  149.9599 H   0  0  0  0  0  0  0  0  0  0  0  0
  199.5104  182.3778  151.3229 H   0  0  0  0  0  0  0  0  0  0  0  0
  198.5784  180.4691  149.7642 H   0  0  0  0  0  0  0  0  0  0  0  0
  199.5253  181.1455  148.4778 H   0  0  0  0  0  0  0  0  0  0  0  0
  200.3367  180.1232  151.0116 H   0  0  0  0  0  0  0  0  0  0  0  0
  197.8656  183.9576  152.8955 H   0  0  0  0  0  0  0  0  0  0  0  0
  196.1333  181.9731  155.5199 H   0  0  0  0  0  0  0  0  0  0  0  0
  197.2920  184.6706  158.6267 H   0  0  0  0  0  0  0  0  0  0  0  0
  198.4470  186.1181  156.9489 H   0  0  0  0  0  0  0  0  0  0  0  0
  198.5816  185.4183  154.5719 H   0  0  0  0  0  0  0  0  0  0  0  0
  196.1882  181.2464  157.8048 H   0  0  0  0  0  0  0  0  0  0  0  0
  196.4156  182.3317  159.1376 H   0  0  0  0  0  0  0  0  0  0  0  0
  194.0091  181.0373  159.5871 H   0  0  0  0  0  0  0  0  0  0  0  0
  193.9426  180.4926  157.9050 H   0  0  0  0  0  0  0  0  0  0  0  0
  192.7020  181.5298  158.5005 H   0  0  0  0  0  0  0  0  0  0  0  0
  194.4864  183.6432  159.9496 H   0  0  0  0  0  0  0  0  0  0  0  0
  193.0919  183.8946  158.9001 H   0  0  0  0  0  0  0  0  0  0  0  0
  194.6368  184.6187  158.4895 H   0  0  0  0  0  0  0  0  0  0  0  0
  197.3070  180.6995  154.6042 H   0  0  0  0  0  0  0  0  0  0  0  0
  196.0682  178.6521  151.3024 H   0  0  0  0  0  0  0  0  0  0  0  0
  196.2700  180.6534  149.8190 H   0  0  0  0  0  0  0  0  0  0  0  0
  194.2463  182.6565  157.1785 H   0  0  0  0  0  0  0  0  0  0  0  0
  1  2  2  0
  2  3  1  0
  2 13  1  0
  3  4  1  0
  3 10  1  0
  4  5  2  0
  4  9  1  0
  5  6  1  0
  5 30  1  0
  6  7  2  0
  6 31  1  0
  7  8  1  0
  7 32  1  0
  8  9  2  0
  8 33  1  0
  9 34  1  0
 10 11  1  0
 10 35  1  6
 10 36  1  0
 11 12  1  0
 11 37  1  6
 11 38  1  0
 12 39  1  0
 13 14  1  0
 13 29  2  0
 14 15  1  0
 14 26  2  0
 15 16  1  0
 15 40  1  0
 16 17  2  0
 16 21  1  0
 17 18  1  0
 17 41  1  0
 18 19  2  0
 18 22  1  0
 19 20  1  0
 19 42  1  0
 20 21  2  0
 20 43  1  0
 21 44  1  0
 22 23  1  0
 22 45  1  6
 22 46  1  0
 23 24  1  0
 23 25  1  0
 23 56  1  6
 24 47  1  1
 24 48  1  0
 24 49  1  0
 25 50  1  1
 25 51  1  0
 25 52  1  0
 26 27  1  0
 26 53  1  0
 27 28  2  0
 28 29  1  0
 28 54  1  0
 29 55  1  0
M  CHG  1  23   1
M  END
>  <s_epik_cmdline>  (14) 
J2VwaWtfcHl0aG9uJywgJy1waCcsICc3LjAwMDAwMCcsICctcGh0JywgJzIuMDAwMDAwJywgJy1tcycsICcxNicsICctdG4nLCAnOCcsICctbWEnLCAnMjAwJywgJy1pbWFlJywgJzxpbmZpbGUubWFlPicsICctb21hZScsICc8b3V0ZmlsZS5tYWU+Jw==

>  <s_epik_input>  (14) 
W2NIXTFbY0hdW2NIXVtjSF1bY0hdYzFOKFtDSDJdW0NIMl1bT0hdKUMoPU8pYzJjKFtjSF1uW2NIXVtjSF0yKVtOSF1jM1tjSF1jKFtjSF1bY0hdW2NIXTMpW0NIMl1OKFtDSDNdKVtDSDNd

>  <s_i_glide_gridfile>  (14) 
ATP-Grid

>  <s_lp_Force_Field>  (14) 
OPLS_2005

>  <s_lp_Variant>  (14) 
rxn514b____EMOL483896____EMOL17240199____EMOL4279023-1

>  <s_lp_label>  (14) 
3099_sdstereoexpander_1_neutralizer_1_epik_1_stereoizer_1

>  <s_m_source_file>  (14) 
ATP-VSW-LIGPREP-001-in.maegz

>  <s_sd_BIOSOLVEIT.INFINISEE\_QUERY\_NAME>  (14) 
Ref-Lig

>  <s_sd_BIOSOLVEIT.INFINISEE\_QUERY\_SMILES>  (14) 
S(c1nc2c(cc1C[NH2+]Cc3ccc(cc3)C[NH+](C)C)cccc2)Cc4ccccc4

>  <s_sd_BIOSOLVEIT.INFINISEE\_REACTION\_NAME>  (14) 
rxn514b

>  <s_sd_BIOSOLVEIT.INFINISEE\_REAGENT1\_NAME>  (14) 
EMOL483896

>  <s_sd_BIOSOLVEIT.INFINISEE\_REAGENT1\_SMILES>  (14) 
OCCNc1ccccc1

>  <s_sd_BIOSOLVEIT.INFINISEE\_REAGENT2\_NAME>  (14) 
EMOL17240199

>  <s_sd_BIOSOLVEIT.INFINISEE\_REAGENT2\_SMILES>  (14) 
O=C(OC(C)(C)C)Nc1c(ccnc1)C(=O)O

>  <s_sd_BIOSOLVEIT.INFINISEE\_REAGENT3\_NAME>  (14) 
EMOL4279023

>  <s_sd_BIOSOLVEIT.INFINISEE\_REAGENT3\_SMILES>  (14) 
Brc1cc(ccc1)CN(C)C

>  <s_sd_BIOSOLVEIT.INFINISEE\_SPACE>  (14) 
eXplore_7tr_2022-12

>  <s_vsw_compound_code>  (14) 
99137

>  <s_vsw_variant>  (14) 
99137-1

>  <r_epik_Charging_Adjusted_Penalty>  (14) 
0.0905741757774641

>  <r_epik_Ionization_Penalty>  (14) 
0.0458

>  <r_epik_Ionization_Penalty_Charging>  (14) 
0.0453

>  <r_epik_Ionization_Penalty_Neutral>  (14) 
0.00050000000000000001

>  <r_epik_State_Penalty>  (14) 
0.0453

>  <r_i_docking_score>  (14) 
-4.4787881470222102

>  <r_i_glide_ecoul>  (14) 
-8.7253494262695295

>  <r_i_glide_eff_state_penalty>  (14) 
0.0453

>  <r_i_glide_einternal>  (14) 
5.44252252578735

>  <r_i_glide_emodel>  (14) 
-55.464960883670699

>  <r_i_glide_energy>  (14) 
-41.689476013183601

>  <r_i_glide_erotb>  (14) 
1.01865829184723

>  <r_i_glide_esite>  (14) 
-0.122242175636558

>  <r_i_glide_evdw>  (14) 
-32.964126586914098

>  <r_i_glide_gscore>  (14) 
-4.5240881470222103

>  <r_i_glide_hbond>  (14) 
-0.20000000000000001

>  <r_i_glide_ligand_efficiency>  (14) 
-0.15444097058697301

>  <r_i_glide_ligand_efficiency_ln>  (14) 
-1.0255289133999601

>  <r_i_glide_ligand_efficiency_sa>  (14) 
-0.47449159197702501

>  <r_i_glide_lipo>  (14) 
-1.35685461713921

>  <r_i_glide_metal>  (14) 
-0

>  <r_i_glide_rewards>  (14) 
-0.90664090280753895

>  <r_lp_Energy>  (14) 
42.656958000000003

>  <r_lp_tautomer_probability>  (14) 
0.999999999999999

>  <r_qp_ACxDN^.5/SA>  (14) 
0.0118558

>  <r_qp_CIQPlogS>  (14) 
-4.1029999999999998

>  <r_qp_EA(eV)>  (14) 
0.52100000000000002

>  <r_qp_FISA>  (14) 
119.97799999999999

>  <r_qp_FOSA>  (14) 
220.06800000000001

>  <r_qp_IP(eV)>  (14) 
8.2720000000000002

>  <r_qp_Jm>  (14) 
0.14475555129040299

>  <r_qp_PISA>  (14) 
309.42500000000001

>  <r_qp_PSA>  (14) 
76.197000000000003

>  <r_qp_PercentHumanOralAbsorption>  (14) 
84.180000000000007

>  <r_qp_QPPCaco>  (14) 
179.905

>  <r_qp_QPPMDCK>  (14) 
85.707999999999998

>  <r_qp_QPlogBB>  (14) 
-0.66000000000000003

>  <r_qp_QPlogHERG>  (14) 
-5.9900000000000002

>  <r_qp_QPlogKhsa>  (14) 
0.112

>  <r_qp_QPlogKp>  (14) 
-3.839

>  <r_qp_QPlogPC16>  (14) 
13.016

>  <r_qp_QPlogPo/w>  (14) 
2.8820000000000001

>  <r_qp_QPlogPoct>  (14) 
19.407

>  <r_qp_QPlogPw>  (14) 
11.266999999999999

>  <r_qp_QPlogS>  (14) 
-2.5920000000000001

>  <r_qp_QPpolrz>  (14) 
40.744

>  <r_qp_SASA>  (14) 
649.471

>  <r_qp_SAamideO>  (14) 
0

>  <r_qp_SAfluorine>  (14) 
0

>  <r_qp_WPSA>  (14) 
0

>  <r_qp_accptHB>  (14) 
7.7000000000000002

>  <r_qp_dip^2/V>  (14) 
0.021255300000000001

>  <r_qp_dipole>  (14) 
5.1390000000000002

>  <r_qp_donorHB>  (14) 
1

>  <r_qp_glob>  (14) 
0.86056589999999999

>  <r_qp_mol_MW>  (14) 
390.48399999999998

>  <r_qp_volume>  (14) 
1242.421

>  <r_sd_BIOSOLVEIT.INFINISEE\_FTREES\_SIMILARITY>  (14) 
0.90100000000000002

>  <r_sd_BIOSOLVEIT.LOGP>  (14) 
2.1088

>  <r_sd_BIOSOLVEIT.MOLECULAR\_WEIGHT>  (14) 
391.49200000000002

>  <r_sd_BIOSOLVEIT.TPSA>  (14) 
69.900000000000006

>  <i_epik_Tot_Q>  (14) 
1

>  <i_epik_Tot_abs_Q>  (14) 
1

>  <i_f3d_flags>  (14) 
0

>  <i_i_glide_confnum>  (14) 
11

>  <i_i_glide_lignum>  (14) 
55

>  <i_i_glide_posenum>  (14) 
1

>  <i_i_glide_rotatable_bonds>  (14) 
10

>  <i_lp_mmshare_version>  (14) 
65135

>  <i_m_ct_format>  (14) 
2

>  <i_m_source_file_index>  (14) 
3099

>  <i_qp_#NandO>  (14) 
6

>  <i_qp_#acid>  (14) 
0

>  <i_qp_#amide>  (14) 
0

>  <i_qp_#amidine>  (14) 
0

>  <i_qp_#amine>  (14) 
1

>  <i_qp_#in34>  (14) 
0

>  <i_qp_#in56>  (14) 
18

>  <i_qp_#metab>  (14) 
9

>  <i_qp_#nonHatm>  (14) 
29

>  <i_qp_#noncon>  (14) 
0

>  <i_qp_#ringatoms>  (14) 
18

>  <i_qp_#rotor>  (14) 
9

>  <i_qp_#rtvFG>  (14) 
0

>  <i_qp_#stars>  (14) 
1

>  <i_qp_CNS>  (14) 
1

>  <i_qp_HumanOralAbsorption>  (14) 
2

>  <i_qp_RuleOfFive>  (14) 
0

>  <i_qp_RuleOfThree>  (14) 
1

>  <i_sd_BIOSOLVEIT.INFINISEE\_RESULT\_RANK>  (14) 
96791

>  <i_sd_version>  (14) 
0

>  <b_lp_Chiralities_Consistent>  (14) 
1

>  <b_sd_chiral_flag>  (14) 
0

>  <canonical_id>  (14) 
ATP-HTVS-01DF3EF44742

>  <compound_code>  (14) 
99137

>  <title>  (14) 
rxn514b____EMOL483896____EMOL17240199____EMOL4279023

>  <variant>  (14) 
99137-1

>  <source_file>  (14) 
运行/运行/ATP-VSW/ATP-VSW-DOCK_HTVS_1-002_lib.maegz

>  <canonical_smiles>  (14) 
C[NH+](C)Cc1cccc(Nc2cnccc2C(=O)N(CCO)c2ccccc2)c1

>  <scaffold>  (14) 
O=C(Nc1ccccc1)c1ccncc1Nc1ccccc1

>  <molecular_formula>  (14) 
C23H27N4O2+

$$$$
ATP-HTVS-01E9987F6BBC
     RDKit          3D

 45 48  0  0  0  0  0  0  0  0999 V2000
  199.6365  186.2637  159.4344 F   0  0  0  0  0  0  0  0  0  0  0  0
  200.6613  185.4372  159.7290 C   0  0  0  0  0  0  0  0  0  0  0  0
  201.8901  185.9672  160.1676 C   0  0  0  0  0  0  0  0  0  0  0  0
  202.0515  187.3097  160.2554 F   0  0  0  0  0  0  0  0  0  0  0  0
  202.9433  185.0932  160.4914 C   0  0  0  0  0  0  0  0  0  0  0  0
  202.7775  183.6948  160.3988 C   0  0  0  0  0  0  0  0  0  0  0  0
  201.5453  183.1826  159.9574 C   0  0  0  0  0  0  0  0  0  0  0  0
  201.3748  181.8387  159.8814 F   0  0  0  0  0  0  0  0  0  0  0  0
  200.5006  184.0392  159.6122 C   0  0  0  0  0  0  0  0  0  0  0  0
  199.2017  183.4519  159.2085 C   0  0  1  0  0  0  0  0  0  0  0  0
  199.0316  183.1354  157.7839 N   0  0  0  0  0  0  0  0  0  0  0  0
  197.8265  182.3225  157.5442 C   0  0  2  0  0  0  0  0  0  0  0  0
  197.6304  181.9222  156.0716 C   0  0  0  0  0  0  0  0  0  0  0  0
  197.2823  182.9096  155.1118 C   0  0  0  0  0  0  0  0  0  0  0  0
  197.1794  184.2647  155.4194 N   0  0  0  0  0  0  0  0  0  0  0  0
  198.0176  184.9558  156.2081 C   0  0  0  0  0  0  0  0  0  0  0  0
  197.8109  186.1387  156.4863 O   0  0  0  0  0  0  0  0  0  0  0  0
  199.2672  184.2443  156.8245 C   0  0  1  0  0  0  0  0  0  0  0  0
  196.9483  182.5264  153.8063 C   0  0  0  0  0  0  0  0  0  0  0  0
  197.0737  181.1922  153.3977 C   0  0  0  0  0  0  0  0  0  0  0  0
  197.5066  180.2122  154.3125 C   0  0  0  0  0  0  0  0  0  0  0  0
  197.7762  180.5727  155.6547 C   0  0  0  0  0  0  0  0  0  0  0  0
  196.5431  182.9534  158.1113 C   0  0  0  0  0  0  0  0  0  0  0  0
  196.5299  184.2948  158.6042 C   0  0  0  0  0  0  0  0  0  0  0  0
  195.3906  184.9255  159.0727 C   0  0  0  0  0  0  0  0  0  0  0  0
  194.1920  184.2161  159.0601 C   0  0  0  0  0  0  0  0  0  0  0  0
  194.1577  182.8806  158.5683 C   0  0  0  0  0  0  0  0  0  0  0  0
  195.3393  182.2354  158.1071 C   0  0  0  0  0  0  0  0  0  0  0  0
  203.8832  185.4912  160.8090 H   0  0  0  0  0  0  0  0  0  0  0  0
  203.5797  183.0055  160.6448 H   0  0  0  0  0  0  0  0  0  0  0  0
  198.9637  182.6087  159.8340 H   0  0  0  0  0  0  0  0  0  0  0  0
  198.5418  184.1591  159.6711 H   0  0  0  0  0  0  0  0  0  0  0  0
  197.9330  181.3800  158.0821 H   0  0  0  0  0  0  0  0  0  0  0  0
  196.3658  184.7576  155.1136 H   0  0  0  0  0  0  0  0  0  0  0  0
  199.8704  185.0244  157.2927 H   0  0  0  0  0  0  0  0  0  0  0  0
  199.8712  183.9020  155.9640 H   0  0  0  0  0  0  0  0  0  0  0  0
  196.6183  183.2887  153.1167 H   0  0  0  0  0  0  0  0  0  0  0  0
  196.8478  180.9357  152.3685 H   0  0  0  0  0  0  0  0  0  0  0  0
  197.6003  179.1896  153.9809 H   0  0  0  0  0  0  0  0  0  0  0  0
  198.0730  179.7856  156.3413 H   0  0  0  0  0  0  0  0  0  0  0  0
  197.3701  184.9793  158.5559 H   0  0  0  0  0  0  0  0  0  0  0  0
  195.4931  185.9446  159.3842 H   0  0  0  0  0  0  0  0  0  0  0  0
  193.2896  184.7201  159.4088 H   0  0  0  0  0  0  0  0  0  0  0  0
  193.2067  182.3500  158.5107 H   0  0  0  0  0  0  0  0  0  0  0  0
  195.2941  181.2417  157.6920 H   0  0  0  0  0  0  0  0  0  0  0  0
  1  2  1  0
  2  3  2  0
  2  9  1  0
  3  4  1  0
  3  5  1  0
  5  6  2  0
  5 29  1  0
  6  7  1  0
  6 30  1  0
  7  8  1  0
  7  9  2  0
  9 10  1  0
 10 11  1  0
 10 31  1  1
 10 32  1  0
 11 12  1  0
 11 18  1  0
 12 13  1  0
 12 23  1  0
 12 33  1  1
 13 14  1  0
 13 22  2  0
 14 15  1  0
 14 19  2  0
 15 16  1  0
 15 34  1  0
 16 17  2  0
 16 18  1  0
 18 35  1  1
 18 36  1  0
 19 20  1  0
 19 37  1  0
 20 21  2  0
 20 38  1  0
 21 22  1  0
 21 39  1  0
 22 40  1  0
 23 24  2  0
 23 28  1  0
 24 25  1  0
 24 41  1  0
 25 26  2  0
 25 42  1  0
 26 27  1  0
 26 43  1  0
 27 28  2  0
 27 44  1  0
 28 45  1  0
M  END
>  <s_epik_cmdline>  (15) 
J2VwaWtfcHl0aG9uJywgJy1waCcsICc3LjAwMDAwMCcsICctcGh0JywgJzIuMDAwMDAwJywgJy1tcycsICcxNicsICctdG4nLCAnOCcsICctbWEnLCAnMjAwJywgJy1pbWFlJywgJzxpbmZpbGUubWFlPicsICctb21hZScsICc8b3V0ZmlsZS5tYWU+Jw==

>  <s_epik_input>  (15) 
RmMxYyhGKVtjSF1bY0hdYyhGKWMxW0NIMl1OKFtDQEhdMmMzW2NIXVtjSF1bY0hdW2NIXVtjSF0zKVtDSDJdQyg9TylbTkhdYyhjMjQpW2NIXVtjSF1bY0hdW2NIXTQ=

>  <s_i_glide_gridfile>  (15) 
ATP-Grid

>  <s_lp_Force_Field>  (15) 
OPLS_2005

>  <s_lp_Variant>  (15) 
m_270004bda____24170338____18240806-2

>  <s_lp_label>  (15) 
1276_sdstereoexpander_3_neutralizer_1_epik_1_stereoizer_1

>  <s_m_source_file>  (15) 
ATP-VSW-LIGPREP-001-in.maegz

>  <s_sd_BIOSOLVEIT.INFINISEE\_QUERY\_NAME>  (15) 
Ref-Lig

>  <s_sd_BIOSOLVEIT.INFINISEE\_QUERY\_SMILES>  (15) 
S(c1nc2c(cc1C[NH2+]Cc3ccc(cc3)C[NH+](C)C)cccc2)Cc4ccccc4

>  <s_sd_BIOSOLVEIT.INFINISEE\_REACTION\_NAME>  (15) 
m_270004bda

>  <s_sd_BIOSOLVEIT.INFINISEE\_REAGENT1\_SMILES>  (15) 
[R1*]N1C(c2c(NC(=O)C1)cccc2)c3ccccc3

>  <s_sd_BIOSOLVEIT.INFINISEE\_REAGENT2\_SMILES>  (15) 
[R1*]Cc1c(F)c(F)ccc1F

>  <s_sd_BIOSOLVEIT.INFINISEE\_SPACE>  (15) 
REALSpace_44bn_2023-08

>  <s_vsw_compound_code>  (15) 
40801

>  <s_vsw_variant>  (15) 
40801-2

>  <r_epik_Charging_Adjusted_Penalty>  (15) 
0.0087634984339075902

>  <r_epik_Ionization_Penalty>  (15) 
0.0088000000000000005

>  <r_epik_Ionization_Penalty_Charging>  (15) 
0

>  <r_epik_Ionization_Penalty_Neutral>  (15) 
0.0088000000000000005

>  <r_epik_State_Penalty>  (15) 
0.0088000000000000005

>  <r_i_docking_score>  (15) 
-1.40856773004933

>  <r_i_glide_ecoul>  (15) 
-1.4834581613540601

>  <r_i_glide_eff_state_penalty>  (15) 
0.0088000000000000005

>  <r_i_glide_einternal>  (15) 
0.093150973320007296

>  <r_i_glide_emodel>  (15) 
-30.910872252208801

>  <r_i_glide_energy>  (15) 
-28.395075440406799

>  <r_i_glide_erotb>  (15) 
0.398479659089227

>  <r_i_glide_esite>  (15) 
-0.00277747418403164

>  <r_i_glide_evdw>  (15) 
-26.911617279052699

>  <r_i_glide_gscore>  (15) 
-1.4173677300493299

>  <r_i_glide_hbond>  (15) 
0

>  <r_i_glide_ligand_efficiency>  (15) 
-0.050305990358904498

>  <r_i_glide_ligand_efficiency_ln>  (15) 
-0.32513878944102798

>  <r_i_glide_ligand_efficiency_sa>  (15) 
-0.152758615373459

>  <r_i_glide_lipo>  (15) 
-1.1248819592342101

>  <r_i_glide_metal>  (15) 
-0

>  <r_i_glide_rewards>  (15) 
0.87991163243543902

>  <r_lp_Energy>  (15) 
52.668636999999997

>  <r_qp_ACxDN^.5/SA>  (15) 
0.0074063000000000002

>  <r_qp_CIQPlogS>  (15) 
-5.0899999999999999

>  <r_qp_EA(eV)>  (15) 
0.89400000000000002

>  <r_qp_FISA>  (15) 
61.347000000000001

>  <r_qp_FOSA>  (15) 
35.621000000000002

>  <r_qp_IP(eV)>  (15) 
9.4949999999999992

>  <r_qp_Jm>  (15) 
0.0074406519543542002

>  <r_qp_PISA>  (15) 
406.53399999999999

>  <r_qp_PSA>  (15) 
40.640999999999998

>  <r_qp_PercentHumanOralAbsorption>  (15) 
100

>  <r_qp_QPPCaco>  (15) 
647.20699999999999

>  <r_qp_QPPMDCK>  (15) 
1271.164

>  <r_qp_QPlogBB>  (15) 
0.53300000000000003

>  <r_qp_QPlogHERG>  (15) 
-6.6020000000000003

>  <r_qp_QPlogKhsa>  (15) 
0.67700000000000005

>  <r_qp_QPlogKp>  (15) 
-3.089

>  <r_qp_QPlogPC16>  (15) 
11.364000000000001

>  <r_qp_QPlogPo/w>  (15) 
4.2709999999999999

>  <r_qp_QPlogPoct>  (15) 
18.318999999999999

>  <r_qp_QPlogPw>  (15) 
9.8559999999999999

>  <r_qp_QPlogS>  (15) 
-4.6219999999999999

>  <r_qp_QPpolrz>  (15) 
40.716000000000001

>  <r_qp_SASA>  (15) 
607.59400000000005

>  <r_qp_SAamideO>  (15) 
0

>  <r_qp_SAfluorine>  (15) 
104.09099999999999

>  <r_qp_WPSA>  (15) 
104.09099999999999

>  <r_qp_accptHB>  (15) 
4.5

>  <r_qp_dip^2/V>  (15) 
0.029798600000000001

>  <r_qp_dipole>  (15) 
5.7409999999999997

>  <r_qp_donorHB>  (15) 
1

>  <r_qp_glob>  (15) 
0.85137320000000005

>  <r_qp_mol_MW>  (15) 
382.38400000000001

>  <r_qp_volume>  (15) 
1106.249

>  <r_sd_BIOSOLVEIT.INFINISEE\_FTREES\_SIMILARITY>  (15) 
0.91000000000000003

>  <r_sd_BIOSOLVEIT.LOGP>  (15) 
3.2305000000000001

>  <r_sd_BIOSOLVEIT.MOLECULAR\_WEIGHT>  (15) 
383.39100000000002

>  <r_sd_BIOSOLVEIT.TPSA>  (15) 
33.539999999999999

>  <i_epik_Tot_Q>  (15) 
0

>  <i_epik_Tot_abs_Q>  (15) 
0

>  <i_f3d_flags>  (15) 
0

>  <i_i_glide_confnum>  (15) 
4

>  <i_i_glide_lignum>  (15) 
350

>  <i_i_glide_posenum>  (15) 
9

>  <i_i_glide_rotatable_bonds>  (15) 
3

>  <i_lp_mmshare_version>  (15) 
65135

>  <i_m_ct_format>  (15) 
2

>  <i_m_source_file_index>  (15) 
1276

>  <i_qp_#NandO>  (15) 
3

>  <i_qp_#acid>  (15) 
0

>  <i_qp_#amide>  (15) 
0

>  <i_qp_#amidine>  (15) 
0

>  <i_qp_#amine>  (15) 
1

>  <i_qp_#in34>  (15) 
0

>  <i_qp_#in56>  (15) 
18

>  <i_qp_#metab>  (15) 
7

>  <i_qp_#nonHatm>  (15) 
28

>  <i_qp_#noncon>  (15) 
2

>  <i_qp_#ringatoms>  (15) 
23

>  <i_qp_#rotor>  (15) 
2

>  <i_qp_#rtvFG>  (15) 
0

>  <i_qp_#stars>  (15) 
0

>  <i_qp_CNS>  (15) 
2

>  <i_qp_HumanOralAbsorption>  (15) 
3

>  <i_qp_RuleOfFive>  (15) 
0

>  <i_qp_RuleOfThree>  (15) 
1

>  <i_sd_BIOSOLVEIT.INFINISEE\_REAGENT1\_NAME>  (15) 
24170338

>  <i_sd_BIOSOLVEIT.INFINISEE\_REAGENT2\_NAME>  (15) 
18240806

>  <i_sd_BIOSOLVEIT.INFINISEE\_RESULT\_RANK>  (15) 
45210

>  <i_sd_version>  (15) 
0

>  <b_lp_Chiralities_Consistent>  (15) 
1

>  <b_sd_chiral_flag>  (15) 
0

>  <canonical_id>  (15) 
ATP-HTVS-01E9987F6BBC

>  <compound_code>  (15) 
40801

>  <title>  (15) 
m_270004bda____24170338____18240806

>  <variant>  (15) 
40801-2

>  <source_file>  (15) 
运行/运行/ATP-VSW/ATP-VSW-DOCK_HTVS_1-001_lib/ATP-VSW-DOCK_HTVS_1-001_lib

>  <canonical_smiles>  (15) 
O=C1CN(Cc2c(F)ccc(F)c2F)[C@@H](c2ccccc2)c2ccccc2N1

>  <scaffold>  (15) 
O=C1CN(Cc2ccccc2)C(c2ccccc2)c2ccccc2N1

>  <molecular_formula>  (15) 
C22H17F3N2O

$$$$
ATP-HTVS-02393E0D1A46
     RDKit          3D

 54 57  0  0  0  0  0  0  0  0999 V2000
  198.5494  183.9489  156.3944 O   0  0  0  0  0  0  0  0  0  0  0  0
  197.4214  183.5291  156.6812 C   0  0  0  0  0  0  0  0  0  0  0  0
  196.7547  182.6476  155.9193 N   0  0  0  0  0  0  0  0  0  0  0  0
  197.0601  182.3388  154.5649 C   0  0  0  0  0  0  0  0  0  0  0  0
  196.9956  181.0014  154.0862 C   0  0  0  0  0  0  0  0  0  0  0  0
  196.8226  179.9558  155.0198 N   0  0  0  0  0  0  0  0  0  0  0  0
  197.8375  178.9144  155.1269 C   0  0  1  0  0  0  0  0  0  0  0  0
  199.2164  179.4071  155.5898 C   0  0  1  0  0  0  0  0  0  0  0  0
  199.1513  179.5757  156.9871 O   0  0  0  0  0  0  0  0  0  0  0  0
  200.3282  178.4474  155.2056 C   0  0  0  0  0  0  0  0  0  0  0  0
  200.4907  177.2031  155.8614 C   0  0  0  0  0  0  0  0  0  0  0  0
  201.5729  176.3576  155.5308 C   0  0  0  0  0  0  0  0  0  0  0  0
  202.4949  176.7520  154.5401 C   0  0  0  0  0  0  0  0  0  0  0  0
  202.3285  177.9770  153.8705 C   0  0  0  0  0  0  0  0  0  0  0  0
  201.2456  178.8158  154.1955 C   0  0  0  0  0  0  0  0  0  0  0  0
  201.7622  175.0378  156.2540 C   0  0  2  0  0  0  0  0  0  0  0  0
  197.1327  180.7860  152.6855 C   0  0  0  0  0  0  0  0  0  0  0  0
  197.4155  181.8933  151.8342 C   0  0  0  0  0  0  0  0  0  0  0  0
  197.4783  183.1391  152.3562 N   0  0  0  0  0  0  0  0  0  0  0  0
  197.2869  183.3944  153.6600 C   0  0  0  0  0  0  0  0  0  0  0  0
  197.6106  181.7173  150.4465 C   0  0  0  0  0  0  0  0  0  0  0  0
  197.5437  180.4247  149.8915 C   0  0  0  0  0  0  0  0  0  0  0  0
  197.2218  179.3282  150.7103 C   0  0  0  0  0  0  0  0  0  0  0  0
  196.9805  179.5092  152.0868 C   0  0  0  0  0  0  0  0  0  0  0  0
  196.7000  184.0265  157.9099 C   0  0  0  0  0  0  0  0  0  0  0  0
  195.4920  183.4167  158.3444 C   0  0  0  0  0  0  0  0  0  0  0  0
  194.7882  183.9421  159.4460 C   0  0  0  0  0  0  0  0  0  0  0  0
  195.2833  185.0582  160.1386 C   0  0  0  0  0  0  0  0  0  0  0  0
  196.4892  185.6579  159.7302 C   0  0  0  0  0  0  0  0  0  0  0  0
  197.1906  185.1437  158.6182 C   0  0  0  0  0  0  0  0  0  0  0  0
  195.8805  182.2852  156.2759 H   0  0  0  0  0  0  0  0  0  0  0  0
  196.5253  180.2490  155.9372 H   0  0  0  0  0  0  0  0  0  0  0  0
  197.4538  178.1220  155.7778 H   0  0  0  0  0  0  0  0  0  0  0  0
  198.0015  178.4408  154.1549 H   0  0  0  0  0  0  0  0  0  0  0  0
  199.4415  180.3692  155.1332 H   0  0  0  0  0  0  0  0  0  0  0  0
  198.5873  178.9161  157.3450 H   0  0  0  0  0  0  0  0  0  0  0  0
  199.7927  176.9113  156.6342 H   0  0  0  0  0  0  0  0  0  0  0  0
  203.3436  176.1276  154.2991 H   0  0  0  0  0  0  0  0  0  0  0  0
  203.0461  178.2857  153.1255 H   0  0  0  0  0  0  0  0  0  0  0  0
  201.1391  179.7581  153.6788 H   0  0  0  0  0  0  0  0  0  0  0  0
  202.7030  174.5556  155.9806 H   0  0  0  0  0  0  0  0  0  0  0  0
  200.9491  174.3609  155.9981 H   0  0  0  0  0  0  0  0  0  0  0  0
  201.7665  175.1934  157.3339 H   0  0  0  0  0  0  0  0  0  0  0  0
  197.2954  184.4463  153.9435 H   0  0  0  0  0  0  0  0  0  0  0  0
  197.8284  182.5601  149.8042 H   0  0  0  0  0  0  0  0  0  0  0  0
  197.7090  180.2795  148.8329 H   0  0  0  0  0  0  0  0  0  0  0  0
  197.1693  178.3402  150.2813 H   0  0  0  0  0  0  0  0  0  0  0  0
  196.6801  178.6481  152.6683 H   0  0  0  0  0  0  0  0  0  0  0  0
  195.0554  182.5722  157.8416 H   0  0  0  0  0  0  0  0  0  0  0  0
  193.8592  183.4817  159.7345 H   0  0  0  0  0  0  0  0  0  0  0  0
  194.7359  185.4576  160.9755 H   0  0  0  0  0  0  0  0  0  0  0  0
  196.8660  186.5202  160.2625 H   0  0  0  0  0  0  0  0  0  0  0  0
  198.1042  185.6369  158.3111 H   0  0  0  0  0  0  0  0  0  0  0  0
  197.6461  183.9265  151.7293 H   0  0  0  0  0  0  0  0  0  0  0  0
  1  2  2  0
  2  3  1  0
  2 25  1  0
  3  4  1  0
  3 31  1  0
  4  5  2  0
  4 20  1  0
  5  6  1  0
  5 17  1  0
  6  7  1  0
  6 32  1  0
  7  8  1  0
  7 33  1  1
  7 34  1  0
  8  9  1  0
  8 10  1  0
  8 35  1  6
  9 36  1  0
 10 11  1  0
 10 15  2  0
 11 12  2  0
 11 37  1  0
 12 13  1  0
 12 16  1  0
 13 14  2  0
 13 38  1  0
 14 15  1  0
 14 39  1  0
 15 40  1  0
 16 41  1  6
 16 42  1  0
 16 43  1  0
 17 18  1  0
 17 24  2  0
 18 19  1  0
 18 21  2  0
 19 20  2  0
 19 54  1  0
 20 44  1  0
 21 22  1  0
 21 45  1  0
 22 23  2  0
 22 46  1  0
 23 24  1  0
 23 47  1  0
 24 48  1  0
 25 26  2  0
 25 30  1  0
 26 27  1  0
 26 49  1  0
 27 28  2  0
 27 50  1  0
 28 29  1  0
 28 51  1  0
 29 30  2  0
 29 52  1  0
 30 53  1  0
M  CHG  1  19   1
M  END
>  <s_epik_cmdline>  (16) 
J2VwaWtfcHl0aG9uJywgJy1waCcsICc3LjAwMDAwMCcsICctcGh0JywgJzIuMDAwMDAwJywgJy1tcycsICcxNicsICctdG4nLCAnOCcsICctbWEnLCAnMjAwJywgJy1pbWFlJywgJzxpbmZpbGUubWFlPicsICctb21hZScsICc8b3V0ZmlsZS5tYWU+Jw==

>  <s_epik_input>  (16) 
W2NIXTFbY0hdW2NIXVtjSF1bY0hdYzFDKD1PKVtOSF1jKFtjSF1uYyhjMjMpW2NIXVtjSF1bY0hdW2NIXTMpYzJbTkhdW0NIMl1bQ0BASF0oW09IXSljNFtjSF1jKFtDSDNdKVtjSF1bY0hdW2NIXTQ=

>  <s_i_glide_gridfile>  (16) 
ATP-Grid

>  <s_lp_Force_Field>  (16) 
OPLS_2005

>  <s_lp_Variant>  (16) 
rxn502c____EMOL478180____EMOL44472687____EMOL44834539-2

>  <s_lp_label>  (16) 
2267_sdstereoexpander_2_neutralizer_1_epik_1_stereoizer_1

>  <s_m_source_file>  (16) 
ATP-VSW-LIGPREP-001-in.maegz

>  <s_sd_BIOSOLVEIT.INFINISEE\_QUERY\_NAME>  (16) 
Ref-Lig

>  <s_sd_BIOSOLVEIT.INFINISEE\_QUERY\_SMILES>  (16) 
S(c1nc2c(cc1C[NH2+]Cc3ccc(cc3)C[NH+](C)C)cccc2)Cc4ccccc4

>  <s_sd_BIOSOLVEIT.INFINISEE\_REACTION\_NAME>  (16) 
rxn502c

>  <s_sd_BIOSOLVEIT.INFINISEE\_REAGENT1\_NAME>  (16) 
EMOL478180

>  <s_sd_BIOSOLVEIT.INFINISEE\_REAGENT1\_SMILES>  (16) 
[O-]C(=O)c1ccccc1

>  <s_sd_BIOSOLVEIT.INFINISEE\_REAGENT2\_NAME>  (16) 
EMOL44472687

>  <s_sd_BIOSOLVEIT.INFINISEE\_REAGENT2\_SMILES>  (16) 
Clc1c(N)cnc2c1cccc2

>  <s_sd_BIOSOLVEIT.INFINISEE\_REAGENT3\_NAME>  (16) 
EMOL44834539

>  <s_sd_BIOSOLVEIT.INFINISEE\_REAGENT3\_SMILES>  (16) 
OC(c1cc(ccc1)C)CN

>  <s_sd_BIOSOLVEIT.INFINISEE\_SPACE>  (16) 
eXplore_7tr_2022-12

>  <s_vsw_compound_code>  (16) 
72513

>  <s_vsw_variant>  (16) 
72513-2

>  <r_epik_Charging_Adjusted_Penalty>  (16) 
0.074776102049977006

>  <r_epik_Ionization_Penalty>  (16) 
0.037400000000000003

>  <r_epik_Ionization_Penalty_Charging>  (16) 
0.037400000000000003

>  <r_epik_Ionization_Penalty_Neutral>  (16) 
0

>  <r_epik_State_Penalty>  (16) 
0.037400000000000003

>  <r_i_docking_score>  (16) 
-4.6886069874950902

>  <r_i_glide_ecoul>  (16) 
-8.8193159103393608

>  <r_i_glide_eff_state_penalty>  (16) 
0.037400000000000003

>  <r_i_glide_einternal>  (16) 
9.1262350082397496

>  <r_i_glide_emodel>  (16) 
-55.092002197439001

>  <r_i_glide_energy>  (16) 
-43.129599571227999

>  <r_i_glide_erotb>  (16) 
0.86340750472727401

>  <r_i_glide_esite>  (16) 
-0.17077511144573401

>  <r_i_glide_evdw>  (16) 
-34.3102836608887

>  <r_i_glide_gscore>  (16) 
-4.7260069874950901

>  <r_i_glide_hbond>  (16) 
-0.18509191655978699

>  <r_i_glide_ligand_efficiency>  (16) 
-0.15628689958316999

>  <r_i_glide_ligand_efficiency_ln>  (16) 
-1.06530259402372

>  <r_i_glide_ligand_efficiency_sa>  (16) 
-0.48561973408900899

>  <r_i_glide_lipo>  (16) 
-1.5029333491669601

>  <r_i_glide_metal>  (16) 
-0

>  <r_i_glide_rewards>  (16) 
-0.69220254545454396

>  <r_lp_Energy>  (16) 
36.455584999999999

>  <r_qp_ACxDN^.5/SA>  (16) 
0.0152081

>  <r_qp_CIQPlogS>  (16) 
-6.0019999999999998

>  <r_qp_EA(eV)>  (16) 
0.92000000000000004

>  <r_qp_FISA>  (16) 
115.61499999999999

>  <r_qp_FOSA>  (16) 
107.42400000000001

>  <r_qp_IP(eV)>  (16) 
8.3699999999999992

>  <r_qp_Jm>  (16) 
0.062406125864634697

>  <r_qp_PISA>  (16) 
483.07799999999997

>  <r_qp_PSA>  (16) 
79.724000000000004

>  <r_qp_PercentHumanOralAbsorption>  (16) 
100

>  <r_qp_QPPCaco>  (16) 
793.45000000000005

>  <r_qp_QPPMDCK>  (16) 
385.25

>  <r_qp_QPlogBB>  (16) 
-1.03

>  <r_qp_QPlogHERG>  (16) 
-6.891

>  <r_qp_QPlogKhsa>  (16) 
0.50900000000000001

>  <r_qp_QPlogKp>  (16) 
-1.276

>  <r_qp_QPlogPC16>  (16) 
15.111000000000001

>  <r_qp_QPlogPo/w>  (16) 
4.2249999999999996

>  <r_qp_QPlogPoct>  (16) 
23.731999999999999

>  <r_qp_QPlogPw>  (16) 
14.448

>  <r_qp_QPlogS>  (16) 
-5.5279999999999996

>  <r_qp_QPpolrz>  (16) 
45.548000000000002

>  <r_qp_SASA>  (16) 
706.11699999999996

>  <r_qp_SAamideO>  (16) 
0

>  <r_qp_SAfluorine>  (16) 
0

>  <r_qp_WPSA>  (16) 
0

>  <r_qp_accptHB>  (16) 
6.2000000000000002

>  <r_qp_dip^2/V>  (16) 
0.050275199999999999

>  <r_qp_dipole>  (16) 
8.0500000000000007

>  <r_qp_donorHB>  (16) 
3

>  <r_qp_glob>  (16) 
0.81116869999999996

>  <r_qp_mol_MW>  (16) 
397.476

>  <r_qp_volume>  (16) 
1288.944

>  <r_sd_BIOSOLVEIT.INFINISEE\_FTREES\_SIMILARITY>  (16) 
0.92500000000000004

>  <r_sd_BIOSOLVEIT.LOGP>  (16) 
4.94102

>  <r_sd_BIOSOLVEIT.MOLECULAR\_WEIGHT>  (16) 
397.476

>  <r_sd_BIOSOLVEIT.TPSA>  (16) 
74.25

>  <i_epik_Tot_Q>  (16) 
1

>  <i_epik_Tot_abs_Q>  (16) 
1

>  <i_f3d_flags>  (16) 
0

>  <i_i_glide_confnum>  (16) 
9

>  <i_i_glide_lignum>  (16) 
793

>  <i_i_glide_posenum>  (16) 
12

>  <i_i_glide_rotatable_bonds>  (16) 
8

>  <i_lp_mmshare_version>  (16) 
65135

>  <i_m_ct_format>  (16) 
2

>  <i_m_source_file_index>  (16) 
2267

>  <i_qp_#NandO>  (16) 
5

>  <i_qp_#acid>  (16) 
0

>  <i_qp_#amide>  (16) 
0

>  <i_qp_#amidine>  (16) 
0

>  <i_qp_#amine>  (16) 
0

>  <i_qp_#in34>  (16) 
0

>  <i_qp_#in56>  (16) 
22

>  <i_qp_#metab>  (16) 
6

>  <i_qp_#nonHatm>  (16) 
30

>  <i_qp_#noncon>  (16) 
0

>  <i_qp_#ringatoms>  (16) 
22

>  <i_qp_#rotor>  (16) 
7

>  <i_qp_#rtvFG>  (16) 
0

>  <i_qp_#stars>  (16) 
1

>  <i_qp_CNS>  (16) 
-2

>  <i_qp_HumanOralAbsorption>  (16) 
3

>  <i_qp_RuleOfFive>  (16) 
0

>  <i_qp_RuleOfThree>  (16) 
0

>  <i_sd_BIOSOLVEIT.INFINISEE\_RESULT\_RANK>  (16) 
8916

>  <i_sd_version>  (16) 
0

>  <b_lp_Chiralities_Consistent>  (16) 
1

>  <b_sd_chiral_flag>  (16) 
0

>  <canonical_id>  (16) 
ATP-HTVS-02393E0D1A46

>  <compound_code>  (16) 
72513

>  <title>  (16) 
rxn502c____EMOL478180____EMOL44472687____EMOL44834539

>  <variant>  (16) 
72513-2

>  <source_file>  (16) 
运行/运行/ATP-VSW/ATP-VSW-DOCK_HTVS_1-001_lib/ATP-VSW-DOCK_HTVS_1-001_lib

>  <canonical_smiles>  (16) 
Cc1cccc([C@H](O)CNc2c(NC(=O)c3ccccc3)c[nH+]c3ccccc23)c1

>  <scaffold>  (16) 
O=C(Nc1c[nH+]c2ccccc2c1NCCc1ccccc1)c1ccccc1

>  <molecular_formula>  (16) 
C25H24N3O2+

$$$$
ATP-HTVS-02527EDCA73D
     RDKit          3D

 51 54  0  0  0  0  0  0  0  0999 V2000
  197.4709  187.2817  156.4634 Cl  0  0  0  0  0  0  0  0  0  0  0  0
  197.2040  186.0563  157.6501 C   0  0  0  0  0  0  0  0  0  0  0  0
  197.1546  184.7045  157.2705 C   0  0  0  0  0  0  0  0  0  0  0  0
  196.9601  183.6712  158.2401 C   0  0  0  0  0  0  0  0  0  0  0  0
  196.7818  184.0510  159.5840 C   0  0  0  0  0  0  0  0  0  0  0  0
  196.8101  185.4079  159.9535 C   0  0  0  0  0  0  0  0  0  0  0  0
  197.0296  186.4137  158.9957 C   0  0  0  0  0  0  0  0  0  0  0  0
  196.8644  182.1831  157.8979 C   0  0  1  0  0  0  0  0  0  0  0  0
  195.5502  181.8307  157.5441 O   0  0  0  0  0  0  0  0  0  0  0  0
  197.7447  181.8227  156.6951 C   0  0  1  0  0  0  0  0  0  0  0  0
  197.5482  180.4554  156.1422 N   0  0  1  0  0  0  0  0  0  0  0  0
  198.3612  180.0896  154.9497 C   0  0  1  0  0  0  0  0  0  0  0  0
  198.0905  181.1273  153.8721 C   0  0  0  0  0  0  0  0  0  0  0  0
  198.6984  182.3233  153.9171 N   0  0  0  0  0  0  0  0  0  0  0  0
  198.0787  183.0211  152.9037 C   0  0  0  0  0  0  0  0  0  0  0  0
  197.1998  182.1785  152.1600 C   0  0  0  0  0  0  0  0  0  0  0  0
  197.2376  180.9497  152.8287 N   0  0  0  0  0  0  0  0  0  0  0  0
  196.5084  179.7472  152.4442 C   0  0  1  0  0  0  0  0  0  0  0  0
  197.1414  179.1183  151.2147 C   0  0  0  0  0  0  0  0  0  0  0  0
  196.6183  179.4076  149.9398 C   0  0  0  0  0  0  0  0  0  0  0  0
  197.1822  178.8325  148.7868 C   0  0  0  0  0  0  0  0  0  0  0  0
  198.2587  177.9344  148.9059 C   0  0  0  0  0  0  0  0  0  0  0  0
  198.9197  177.2050  147.4901 Cl  0  0  0  0  0  0  0  0  0  0  0  0
  198.7829  177.6303  150.1760 C   0  0  0  0  0  0  0  0  0  0  0  0
  198.2376  178.2330  151.3336 C   0  0  0  0  0  0  0  0  0  0  0  0
  196.5380  182.6658  151.0065 C   0  0  0  0  0  0  0  0  0  0  0  0
  196.7497  183.9960  150.5898 C   0  0  0  0  0  0  0  0  0  0  0  0
  197.5421  184.8616  151.3569 C   0  0  0  0  0  0  0  0  0  0  0  0
  198.1881  184.3836  152.5295 C   0  0  0  0  0  0  0  0  0  0  0  0
  197.7077  179.7651  156.8703 H   0  0  0  0  0  0  0  0  0  0  0  0
  197.2635  184.5278  156.2122 H   0  0  0  0  0  0  0  0  0  0  0  0
  196.6080  183.2860  160.3298 H   0  0  0  0  0  0  0  0  0  0  0  0
  196.6651  185.6890  160.9821 H   0  0  0  0  0  0  0  0  0  0  0  0
  197.0595  187.4512  159.2888 H   0  0  0  0  0  0  0  0  0  0  0  0
  197.1360  181.5797  158.7713 H   0  0  0  0  0  0  0  0  0  0  0  0
  195.4440  180.9020  157.5838 H   0  0  0  0  0  0  0  0  0  0  0  0
  197.4094  182.4960  155.9230 H   0  0  0  0  0  0  0  0  0  0  0  0
  198.8075  181.9986  156.9229 H   0  0  0  0  0  0  0  0  0  0  0  0
  199.4237  180.0981  155.1938 H   0  0  0  0  0  0  0  0  0  0  0  0
  198.1030  179.0825  154.6353 H   0  0  0  0  0  0  0  0  0  0  0  0
  196.4652  179.0247  153.2536 H   0  0  0  0  0  0  0  0  0  0  0  0
  195.4686  180.0074  152.2456 H   0  0  0  0  0  0  0  0  0  0  0  0
  195.7555  180.0410  149.8299 H   0  0  0  0  0  0  0  0  0  0  0  0
  196.7706  179.0630  147.8167 H   0  0  0  0  0  0  0  0  0  0  0  0
  199.6003  176.9285  150.2647 H   0  0  0  0  0  0  0  0  0  0  0  0
  198.6477  177.9851  152.2987 H   0  0  0  0  0  0  0  0  0  0  0  0
  195.9198  182.0254  150.4196 H   0  0  0  0  0  0  0  0  0  0  0  0
  196.3001  184.3429  149.6679 H   0  0  0  0  0  0  0  0  0  0  0  0
  197.6848  185.8878  151.0555 H   0  0  0  0  0  0  0  0  0  0  0  0
  198.7792  185.0581  153.1333 H   0  0  0  0  0  0  0  0  0  0  0  0
  196.5619  180.3843  155.9265 H   0  0  0  0  0  0  0  0  0  0  0  0
  1  2  1  0
  2  3  2  0
  2  7  1  0
  3  4  1  0
  3 31  1  0
  4  5  2  0
  4  8  1  0
  5  6  1  0
  5 32  1  0
  6  7  2  0
  6 33  1  0
  7 34  1  0
  8  9  1  0
  8 10  1  0
  8 35  1  1
  9 36  1  0
 10 11  1  0
 10 37  1  6
 10 38  1  0
 11 12  1  0
 11 30  1  1
 11 51  1  0
 12 13  1  0
 12 39  1  1
 12 40  1  0
 13 14  2  0
 13 17  1  0
 14 15  1  0
 15 16  1  0
 15 29  2  0
 16 17  1  0
 16 26  2  0
 17 18  1  0
 18 19  1  0
 18 41  1  1
 18 42  1  0
 19 20  1  0
 19 25  2  0
 20 21  2  0
 20 43  1  0
 21 22  1  0
 21 44  1  0
 22 23  1  0
 22 24  2  0
 24 25  1  0
 24 45  1  0
 25 46  1  0
 26 27  1  0
 26 47  1  0
 27 28  2  0
 27 48  1  0
 28 29  1  0
 28 49  1  0
 29 50  1  0
M  CHG  1  11   1
M  END
>  <s_epik_cmdline>  (17) 
J2VwaWtfcHl0aG9uJywgJy1waCcsICc3LjAwMDAwMCcsICctcGh0JywgJzIuMDAwMDAwJywgJy1tcycsICcxNicsICctdG4nLCAnOCcsICctbWEnLCAnMjAwJywgJy1pbWFlJywgJzxpbmZpbGUubWFlPicsICctb21hZScsICc8b3V0ZmlsZS5tYWU+Jw==

>  <s_epik_input>  (17) 
Q2xjMVtjSF1jKFtjSF1bY0hdW2NIXTEpW0NAQEhdKFtPSF0pW0NIMl1bTkhdW0NIMl1jKG4yKW4oYyhjMjMpW2NIXVtjSF1bY0hdW2NIXTMpW0NIMl1jNFtjSF1bY0hdYyhDbClbY0hdW2NIXTQ=

>  <s_i_glide_gridfile>  (17) 
ATP-Grid

>  <s_lp_Force_Field>  (17) 
OPLS_2005

>  <s_lp_Variant>  (17) 
m_270004bbb____8293672____7549102-3

>  <s_lp_label>  (17) 
1957_sdstereoexpander_1_neutralizer_1_epik_2_stereoizer_1

>  <s_m_source_file>  (17) 
ATP-VSW-LIGPREP-001-in.maegz

>  <s_sd_BIOSOLVEIT.INFINISEE\_QUERY\_NAME>  (17) 
Ref-Lig

>  <s_sd_BIOSOLVEIT.INFINISEE\_QUERY\_SMILES>  (17) 
S(c1nc2c(cc1C[NH2+]Cc3ccc(cc3)C[NH+](C)C)cccc2)Cc4ccccc4

>  <s_sd_BIOSOLVEIT.INFINISEE\_REACTION\_NAME>  (17) 
m_270004bbb

>  <s_sd_BIOSOLVEIT.INFINISEE\_REAGENT1\_SMILES>  (17) 
[R1*]NCC(O)c1cc(Cl)ccc1

>  <s_sd_BIOSOLVEIT.INFINISEE\_REAGENT2\_SMILES>  (17) 
[R1*]CC1=Nc2c(N1Cc3ccc(Cl)cc3)cccc2

>  <s_sd_BIOSOLVEIT.INFINISEE\_SPACE>  (17) 
REALSpace_44bn_2023-08

>  <s_vsw_compound_code>  (17) 
62593

>  <s_vsw_variant>  (17) 
62593-3

>  <r_epik_Charging_Adjusted_Penalty>  (17) 
1.1177579909211699

>  <r_epik_Ionization_Penalty>  (17) 
0.52639999999999998

>  <r_epik_Ionization_Penalty_Charging>  (17) 
0.52549999999999997

>  <r_epik_Ionization_Penalty_Neutral>  (17) 
0.00089999999999999998

>  <r_epik_State_Penalty>  (17) 
0.59230000000000005

>  <r_i_docking_score>  (17) 
-5.1571639025547196

>  <r_i_glide_ecoul>  (17) 
-11.3032131195068

>  <r_i_glide_eff_state_penalty>  (17) 
0.59230000000000005

>  <r_i_glide_einternal>  (17) 
5.6969757080078098

>  <r_i_glide_emodel>  (17) 
-66.194680369327401

>  <r_i_glide_energy>  (17) 
-44.888734817504897

>  <r_i_glide_erotb>  (17) 
0.65229285892220301

>  <r_i_glide_esite>  (17) 
-0.105002287338382

>  <r_i_glide_evdw>  (17) 
-33.585521697997997

>  <r_i_glide_gscore>  (17) 
-5.7494639025547203

>  <r_i_glide_hbond>  (17) 
-0.205111787208587

>  <r_i_glide_ligand_efficiency>  (17) 
-0.17783323801912801

>  <r_i_glide_ligand_efficiency_ln>  (17) 
-1.1808597592919801

>  <r_i_glide_ligand_efficiency_sa>  (17) 
-0.54636004871911104

>  <r_i_glide_lipo>  (17) 
-1.97686714456769

>  <r_i_glide_metal>  (17) 
-0

>  <r_i_glide_rewards>  (17) 
-0.74001748953632795

>  <r_lp_Energy>  (17) 
15.185629

>  <r_qp_ACxDN^.5/SA>  (17) 
0.010745899999999999

>  <r_qp_CIQPlogS>  (17) 
-6.1280000000000001

>  <r_qp_EA(eV)>  (17) 
0.29199999999999998

>  <r_qp_FISA>  (17) 
74.984999999999999

>  <r_qp_FOSA>  (17) 
103.55500000000001

>  <r_qp_IP(eV)>  (17) 
8.6699999999999999

>  <r_qp_Jm>  (17) 
0.072528144571969197

>  <r_qp_PISA>  (17) 
326.25299999999999

>  <r_qp_PSA>  (17) 
48.600000000000001

>  <r_qp_PercentHumanOralAbsorption>  (17) 
100

>  <r_qp_QPPCaco>  (17) 
480.52699999999999

>  <r_qp_QPPMDCK>  (17) 
1040.6949999999999

>  <r_qp_QPlogBB>  (17) 
0.11899999999999999

>  <r_qp_QPlogHERG>  (17) 
-5.6970000000000001

>  <r_qp_QPlogKhsa>  (17) 
0.60499999999999998

>  <r_qp_QPlogKp>  (17) 
-3.0470000000000002

>  <r_qp_QPlogPC16>  (17) 
13.523999999999999

>  <r_qp_QPlogPo/w>  (17) 
4.4909999999999997

>  <r_qp_QPlogPoct>  (17) 
19.16

>  <r_qp_QPlogPw>  (17) 
9.7710000000000008

>  <r_qp_QPlogS>  (17) 
-3.7229999999999999

>  <r_qp_QPpolrz>  (17) 
39.905999999999999

>  <r_qp_SASA>  (17) 
618.54200000000003

>  <r_qp_SAamideO>  (17) 
0

>  <r_qp_SAfluorine>  (17) 
0

>  <r_qp_WPSA>  (17) 
113.749

>  <r_qp_accptHB>  (17) 
4.7000000000000002

>  <r_qp_dip^2/V>  (17) 
0.0025596999999999998

>  <r_qp_dipole>  (17) 
1.754

>  <r_qp_donorHB>  (17) 
2

>  <r_qp_glob>  (17) 
0.88360910000000004

>  <r_qp_mol_MW>  (17) 
426.34399999999999

>  <r_qp_volume>  (17) 
1201.4259999999999

>  <r_sd_BIOSOLVEIT.INFINISEE\_FTREES\_SIMILARITY>  (17) 
0.90200000000000002

>  <r_sd_BIOSOLVEIT.LOGP>  (17) 
4.1883999999999997

>  <r_sd_BIOSOLVEIT.MOLECULAR\_WEIGHT>  (17) 
427.35300000000001

>  <r_sd_BIOSOLVEIT.TPSA>  (17) 
54.659999999999997

>  <i_epik_Tot_Q>  (17) 
1

>  <i_epik_Tot_abs_Q>  (17) 
1

>  <i_f3d_flags>  (17) 
0

>  <i_i_glide_confnum>  (17) 
6

>  <i_i_glide_lignum>  (17) 
599

>  <i_i_glide_posenum>  (17) 
5

>  <i_i_glide_rotatable_bonds>  (17) 
8

>  <i_lp_mmshare_version>  (17) 
65135

>  <i_m_ct_format>  (17) 
2

>  <i_m_source_file_index>  (17) 
1957

>  <i_qp_#NandO>  (17) 
4

>  <i_qp_#acid>  (17) 
0

>  <i_qp_#amide>  (17) 
0

>  <i_qp_#amidine>  (17) 
0

>  <i_qp_#amine>  (17) 
1

>  <i_qp_#in34>  (17) 
0

>  <i_qp_#in56>  (17) 
21

>  <i_qp_#metab>  (17) 
5

>  <i_qp_#nonHatm>  (17) 
29

>  <i_qp_#noncon>  (17) 
0

>  <i_qp_#ringatoms>  (17) 
21

>  <i_qp_#rotor>  (17) 
8

>  <i_qp_#rtvFG>  (17) 
0

>  <i_qp_#stars>  (17) 
0

>  <i_qp_CNS>  (17) 
1

>  <i_qp_HumanOralAbsorption>  (17) 
3

>  <i_qp_RuleOfFive>  (17) 
0

>  <i_qp_RuleOfThree>  (17) 
0

>  <i_sd_BIOSOLVEIT.INFINISEE\_REAGENT1\_NAME>  (17) 
8293672

>  <i_sd_BIOSOLVEIT.INFINISEE\_REAGENT2\_NAME>  (17) 
7549102

>  <i_sd_BIOSOLVEIT.INFINISEE\_RESULT\_RANK>  (17) 
87999

>  <i_sd_version>  (17) 
0

>  <b_lp_Chiralities_Consistent>  (17) 
1

>  <b_sd_chiral_flag>  (17) 
0

>  <canonical_id>  (17) 
ATP-HTVS-02527EDCA73D

>  <compound_code>  (17) 
62593

>  <title>  (17) 
m_270004bbb____8293672____7549102

>  <variant>  (17) 
62593-3

>  <source_file>  (17) 
运行/运行/ATP-VSW/ATP-VSW-DOCK_HTVS_1-001_lib/ATP-VSW-DOCK_HTVS_1-001_lib

>  <canonical_smiles>  (17) 
O[C@@H](C[NH2+]Cc1nc2ccccc2n1Cc1ccc(Cl)cc1)c1cccc(Cl)c1

>  <scaffold>  (17) 
c1ccc(CC[NH2+]Cc2nc3ccccc3n2Cc2ccccc2)cc1

>  <molecular_formula>  (17) 
C23H22Cl2N3O+

$$$$
ATP-HTVS-0258CCAE4910
     RDKit          3D

 62 65  0  0  0  0  0  0  0  0999 V2000
  199.3360  183.4459  159.3356 O   0  0  0  0  0  0  0  0  0  0  0  0
  199.1288  183.2545  158.1352 C   0  0  0  0  0  0  0  0  0  0  0  0
  197.9087  183.4070  157.5596 N   0  0  0  0  0  0  0  0  0  0  0  0
  196.7485  183.7846  158.3060 C   0  0  0  0  0  0  0  0  0  0  0  0
  196.7728  184.8987  159.1795 C   0  0  0  0  0  0  0  0  0  0  0  0
  195.6182  185.2721  159.8943 C   0  0  0  0  0  0  0  0  0  0  0  0
  194.4258  184.5418  159.7332 C   0  0  0  0  0  0  0  0  0  0  0  0
  194.3864  183.4383  158.8646 C   0  0  0  0  0  0  0  0  0  0  0  0
  195.5426  183.0596  158.1555 C   0  0  0  0  0  0  0  0  0  0  0  0
  197.7132  183.1753  156.1917 C   0  0  0  0  0  0  0  0  0  0  0  0
  198.6863  182.7671  155.3440 C   0  0  0  0  0  0  0  0  0  0  0  0
  200.0495  182.5154  155.8750 C   0  0  0  0  0  0  0  0  0  0  0  0
  200.2651  182.7824  157.2542 C   0  0  0  0  0  0  0  0  0  0  0  0
  201.5399  182.5779  157.8286 C   0  0  0  0  0  0  0  0  0  0  0  0
  202.6031  182.0888  157.0524 C   0  0  0  0  0  0  0  0  0  0  0  0
  202.3948  181.7938  155.6959 C   0  0  0  0  0  0  0  0  0  0  0  0
  201.1293  181.9971  155.1134 C   0  0  0  0  0  0  0  0  0  0  0  0
  198.4062  182.6740  153.9062 C   0  0  0  0  0  0  0  0  0  0  0  0
  199.2052  182.9147  153.0017 O   0  0  0  0  0  0  0  0  0  0  0  0
  197.1362  182.3135  153.6619 N   0  0  0  0  0  0  0  0  0  0  0  0
  196.5121  182.2731  152.3526 C   0  0  1  0  0  0  0  0  0  0  0  0
  196.9285  181.0650  151.5345 C   0  0  0  0  0  0  0  0  0  0  0  0
  197.1992  179.8304  152.1637 C   0  0  0  0  0  0  0  0  0  0  0  0
  197.6394  178.7345  151.4035 C   0  0  0  0  0  0  0  0  0  0  0  0
  197.7843  178.8395  150.0073 C   0  0  0  0  0  0  0  0  0  0  0  0
  198.2366  177.7079  149.3109 N   0  0  0  0  0  0  0  0  0  0  0  0
  198.0284  177.6110  147.8744 C   0  0  1  0  0  0  0  0  0  0  0  0
  199.1689  178.2833  147.0698 C   0  0  1  0  0  0  0  0  0  0  0  0
  198.9794  178.1891  145.5997 N   0  0  2  0  0  0  0  0  0  0  0  0
  200.1349  178.7435  144.8593 C   0  0  2  0  0  0  0  0  0  0  0  0
  197.7026  178.7700  145.1205 C   0  0  2  0  0  0  0  0  0  0  0  0
  197.4789  180.0718  149.3766 C   0  0  0  0  0  0  0  0  0  0  0  0
  197.0661  181.1799  150.1384 C   0  0  0  0  0  0  0  0  0  0  0  0
  197.6713  185.4849  159.2976 H   0  0  0  0  0  0  0  0  0  0  0  0
  195.6492  186.1219  160.5602 H   0  0  0  0  0  0  0  0  0  0  0  0
  193.5349  184.8329  160.2760 H   0  0  0  0  0  0  0  0  0  0  0  0
  193.4699  182.8793  158.7293 H   0  0  0  0  0  0  0  0  0  0  0  0
  195.4809  182.2115  157.4862 H   0  0  0  0  0  0  0  0  0  0  0  0
  196.7199  183.4418  155.8547 H   0  0  0  0  0  0  0  0  0  0  0  0
  201.7102  182.7763  158.8781 H   0  0  0  0  0  0  0  0  0  0  0  0
  203.5701  181.9208  157.5019 H   0  0  0  0  0  0  0  0  0  0  0  0
  203.2051  181.3965  155.1011 H   0  0  0  0  0  0  0  0  0  0  0  0
  201.0169  181.7453  154.0703 H   0  0  0  0  0  0  0  0  0  0  0  0
  196.5449  182.0981  154.4542 H   0  0  0  0  0  0  0  0  0  0  0  0
  195.4355  182.2372  152.4978 H   0  0  0  0  0  0  0  0  0  0  0  0
  196.7172  183.2039  151.8148 H   0  0  0  0  0  0  0  0  0  0  0  0
  197.0950  179.7151  153.2325 H   0  0  0  0  0  0  0  0  0  0  0  0
  197.8770  177.8108  151.9060 H   0  0  0  0  0  0  0  0  0  0  0  0
  198.3586  176.8441  149.8272 H   0  0  0  0  0  0  0  0  0  0  0  0
  197.9605  176.5570  147.6074 H   0  0  0  0  0  0  0  0  0  0  0  0
  197.0522  178.0422  147.6531 H   0  0  0  0  0  0  0  0  0  0  0  0
  199.2932  179.3353  147.3377 H   0  0  0  0  0  0  0  0  0  0  0  0
  200.1163  177.8109  147.3407 H   0  0  0  0  0  0  0  0  0  0  0  0
  200.2697  179.8058  145.0739 H   0  0  0  0  0  0  0  0  0  0  0  0
  199.9862  178.6394  143.7829 H   0  0  0  0  0  0  0  0  0  0  0  0
  201.0561  178.2184  145.1225 H   0  0  0  0  0  0  0  0  0  0  0  0
  197.6566  179.8328  145.3601 H   0  0  0  0  0  0  0  0  0  0  0  0
  196.8284  178.2815  145.5532 H   0  0  0  0  0  0  0  0  0  0  0  0
  197.6165  178.6638  144.0385 H   0  0  0  0  0  0  0  0  0  0  0  0
  197.5697  180.2093  148.3128 H   0  0  0  0  0  0  0  0  0  0  0  0
  196.8653  182.1258  149.6530 H   0  0  0  0  0  0  0  0  0  0  0  0
  198.9572  177.2081  145.3619 H   0  0  0  0  0  0  0  0  0  0  0  0
  1  2  2  0
  2  3  1  0
  2 13  1  0
  3  4  1  0
  3 10  1  0
  4  5  2  0
  4  9  1  0
  5  6  1  0
  5 34  1  0
  6  7  2  0
  6 35  1  0
  7  8  1  0
  7 36  1  0
  8  9  2  0
  8 37  1  0
  9 38  1  0
 10 11  2  0
 10 39  1  0
 11 12  1  0
 11 18  1  0
 12 13  1  0
 12 17  2  0
 13 14  2  0
 14 15  1  0
 14 40  1  0
 15 16  2  0
 15 41  1  0
 16 17  1  0
 16 42  1  0
 17 43  1  0
 18 19  2  0
 18 20  1  0
 20 21  1  0
 20 44  1  0
 21 22  1  0
 21 45  1  1
 21 46  1  0
 22 23  1  0
 22 33  2  0
 23 24  2  0
 23 47  1  0
 24 25  1  0
 24 48  1  0
 25 26  1  0
 25 32  2  0
 26 27  1  0
 26 49  1  0
 27 28  1  0
 27 50  1  6
 27 51  1  0
 28 29  1  0
 28 52  1  1
 28 53  1  0
 29 30  1  0
 29 31  1  0
 29 62  1  1
 30 54  1  6
 30 55  1  0
 30 56  1  0
 31 57  1  6
 31 58  1  0
 31 59  1  0
 32 33  1  0
 32 60  1  0
 33 61  1  0
M  CHG  1  29   1
M  END
>  <s_epik_cmdline>  (18) 
J2VwaWtfcHl0aG9uJywgJy1waCcsICc3LjAwMDAwMCcsICctcGh0JywgJzIuMDAwMDAwJywgJy1tcycsICcxNicsICctdG4nLCAnOCcsICctbWEnLCAnMjAwJywgJy1pbWFlJywgJzxpbmZpbGUubWFlPicsICctb21hZScsICc8b3V0ZmlsZS5tYWU+Jw==

>  <s_epik_input>  (18) 
W2NIXTFbY0hdW2NIXVtjSF1bY0hdYzEtbihjKD1PKWMoYzIzKVtjSF1bY0hdW2NIXVtjSF0zKVtjSF1jMkMoPU8pW05IXVtDSDJdYzRbY0hdW2NIXWMoW2NIXVtjSF00KVtOSF1bQ0gyXVtDSDJdTihbQ0gzXSlbQ0gzXQ==

>  <s_i_glide_gridfile>  (18) 
ATP-Grid

>  <s_lp_Force_Field>  (18) 
OPLS_2005

>  <s_lp_Variant>  (18) 
YAS_R001____OTV6666760____OTV7020701068-1

>  <s_lp_label>  (18) 
123_sdstereoexpander_1_neutralizer_1_epik_1_stereoizer_1

>  <s_m_source_file>  (18) 
ATP-VSW-LIGPREP-001-in.maegz

>  <s_sd_BIOSOLVEIT.INFINISEE\_QUERY\_NAME>  (18) 
Ref-Lig

>  <s_sd_BIOSOLVEIT.INFINISEE\_QUERY\_SMILES>  (18) 
S(c1nc2c(cc1C[NH2+]Cc3ccc(cc3)C[NH+](C)C)cccc2)Cc4ccccc4

>  <s_sd_BIOSOLVEIT.INFINISEE\_REACTION\_NAME>  (18) 
YAS_R001

>  <s_sd_BIOSOLVEIT.INFINISEE\_REAGENT1\_NAME>  (18) 
OTV6666760

>  <s_sd_BIOSOLVEIT.INFINISEE\_REAGENT1\_SMILES>  (18) 
O=C1N(c2ccccc2)C=C(c3c1cccc3)C(=O)O

>  <s_sd_BIOSOLVEIT.INFINISEE\_REAGENT2\_NAME>  (18) 
OTV7020701068

>  <s_sd_BIOSOLVEIT.INFINISEE\_REAGENT2\_SMILES>  (18) 
N(CCNc1ccc(cc1)CN)(C)C

>  <s_sd_BIOSOLVEIT.INFINISEE\_SPACE>  (18) 
CHEMriya_12bn_2022-01

>  <s_vsw_compound_code>  (18) 
3905

>  <s_vsw_variant>  (18) 
3905-1

>  <r_epik_Charging_Adjusted_Penalty>  (18) 
0.0012951147846722399

>  <r_epik_Ionization_Penalty>  (18) 
0.0012999999999999999

>  <r_epik_Ionization_Penalty_Charging>  (18) 
0.0012999999999999999

>  <r_epik_Ionization_Penalty_Neutral>  (18) 
0

>  <r_epik_State_Penalty>  (18) 
-0

>  <r_i_docking_score>  (18) 
-3.7727825025308501

>  <r_i_glide_ecoul>  (18) 
-5.0988574028015101

>  <r_i_glide_eff_state_penalty>  (18) 
-0

>  <r_i_glide_einternal>  (18) 
1.23016321659088

>  <r_i_glide_emodel>  (18) 
-50.5591658454155

>  <r_i_glide_energy>  (18) 
-38.860106945037799

>  <r_i_glide_erotb>  (18) 
0.81968498214532004

>  <r_i_glide_esite>  (18) 
-0.100292775914433

>  <r_i_glide_evdw>  (18) 
-33.7612495422363

>  <r_i_glide_gscore>  (18) 
-3.7727825025308501

>  <r_i_glide_hbond>  (18) 
0

>  <r_i_glide_ligand_efficiency>  (18) 
-0.114326742500935

>  <r_i_glide_ligand_efficiency_ln>  (18) 
-0.83904729414052304

>  <r_i_glide_ligand_efficiency_sa>  (18) 
-0.36670695098094402

>  <r_i_glide_lipo>  (18) 
-1.4157251666842401

>  <r_i_glide_metal>  (18) 
-0

>  <r_i_glide_rewards>  (18) 
-0.623558454545453

>  <r_lp_Energy>  (18) 
57.743647000000003

>  <r_lp_tautomer_probability>  (18) 
1

>  <r_qp_ACxDN^.5/SA>  (18) 
0.0145068

>  <r_qp_CIQPlogS>  (18) 
-5.0140000000000002

>  <r_qp_EA(eV)>  (18) 
0.63200000000000001

>  <r_qp_FISA>  (18) 
83.887

>  <r_qp_FOSA>  (18) 
257.14600000000002

>  <r_qp_IP(eV)>  (18) 
8.0250000000000004

>  <r_qp_Jm>  (18) 
0.0014080260369994

>  <r_qp_PISA>  (18) 
487.59899999999999

>  <r_qp_PSA>  (18) 
78.695999999999998

>  <r_qp_PercentHumanOralAbsorption>  (18) 
100

>  <r_qp_QPPCaco>  (18) 
395.63799999999998

>  <r_qp_QPPMDCK>  (18) 
200.88900000000001

>  <r_qp_QPlogBB>  (18) 
-0.442

>  <r_qp_QPlogHERG>  (18) 
-8.5540000000000003

>  <r_qp_QPlogKhsa>  (18) 
0.57499999999999996

>  <r_qp_QPlogKp>  (18) 
-2.738

>  <r_qp_QPlogPC16>  (18) 
16.669

>  <r_qp_QPlogPo/w>  (18) 
4.2539999999999996

>  <r_qp_QPlogPoct>  (18) 
25.416

>  <r_qp_QPlogPw>  (18) 
15.358000000000001

>  <r_qp_QPlogS>  (18) 
-5.7569999999999997

>  <r_qp_QPpolrz>  (18) 
52.844999999999999

>  <r_qp_SASA>  (18) 
828.63199999999995

>  <r_qp_SAamideO>  (18) 
0

>  <r_qp_SAfluorine>  (18) 
0

>  <r_qp_WPSA>  (18) 
0

>  <r_qp_accptHB>  (18) 
8.5

>  <r_qp_dip^2/V>  (18) 
0.0290388

>  <r_qp_dipole>  (18) 
6.5339999999999998

>  <r_qp_donorHB>  (18) 
2

>  <r_qp_glob>  (18) 
0.75460289999999997

>  <r_qp_mol_MW>  (18) 
440.54399999999998

>  <r_qp_volume>  (18) 
1470.1859999999999

>  <r_sd_BIOSOLVEIT.INFINISEE\_FTREES\_SIMILARITY>  (18) 
0.90500000000000003

>  <r_sd_BIOSOLVEIT.LOGP>  (18) 
2.4771000000000001

>  <r_sd_BIOSOLVEIT.MOLECULAR\_WEIGHT>  (18) 
441.55200000000002

>  <r_sd_BIOSOLVEIT.TPSA>  (18) 
67.569999999999993

>  <i_epik_Tot_Q>  (18) 
1

>  <i_epik_Tot_abs_Q>  (18) 
1

>  <i_f3d_flags>  (18) 
0

>  <i_i_glide_confnum>  (18) 
10

>  <i_i_glide_lignum>  (18) 
20

>  <i_i_glide_posenum>  (18) 
7

>  <i_i_glide_rotatable_bonds>  (18) 
9

>  <i_lp_mmshare_version>  (18) 
65135

>  <i_m_ct_format>  (18) 
2

>  <i_m_source_file_index>  (18) 
123

>  <i_qp_#NandO>  (18) 
6

>  <i_qp_#acid>  (18) 
0

>  <i_qp_#amide>  (18) 
0

>  <i_qp_#amidine>  (18) 
0

>  <i_qp_#amine>  (18) 
1

>  <i_qp_#in34>  (18) 
0

>  <i_qp_#in56>  (18) 
22

>  <i_qp_#metab>  (18) 
4

>  <i_qp_#nonHatm>  (18) 
33

>  <i_qp_#noncon>  (18) 
0

>  <i_qp_#ringatoms>  (18) 
22

>  <i_qp_#rotor>  (18) 
7

>  <i_qp_#rtvFG>  (18) 
0

>  <i_qp_#stars>  (18) 
1

>  <i_qp_CNS>  (18) 
1

>  <i_qp_HumanOralAbsorption>  (18) 
3

>  <i_qp_RuleOfFive>  (18) 
0

>  <i_qp_RuleOfThree>  (18) 
1

>  <i_sd_BIOSOLVEIT.INFINISEE\_RESULT\_RANK>  (18) 
68120

>  <i_sd_version>  (18) 
0

>  <b_lp_Chiralities_Consistent>  (18) 
1

>  <b_sd_chiral_flag>  (18) 
0

>  <canonical_id>  (18) 
ATP-HTVS-0258CCAE4910

>  <compound_code>  (18) 
3905

>  <title>  (18) 
YAS_R001____OTV6666760____OTV7020701068

>  <variant>  (18) 
3905-1

>  <source_file>  (18) 
运行/运行/ATP-VSW/ATP-VSW-DOCK_HTVS_1-001_lib/ATP-VSW-DOCK_HTVS_1-001_lib

>  <canonical_smiles>  (18) 
C[NH+](C)CCNc1ccc(CNC(=O)c2cn(-c3ccccc3)c(=O)c3ccccc23)cc1

>  <scaffold>  (18) 
O=C(NCc1ccccc1)c1cn(-c2ccccc2)c(=O)c2ccccc12

>  <molecular_formula>  (18) 
C27H29N4O2+

$$$$
ATP-HTVS-027CB3113620
     RDKit          3D

 69 72  0  0  0  0  0  0  0  0999 V2000
  196.4285  187.0186  156.9907 O   0  0  0  0  0  0  0  0  0  0  0  0
  197.6399  186.7943  156.9697 C   0  0  0  0  0  0  0  0  0  0  0  0
  198.2377  185.7406  157.6118 N   0  0  0  0  0  0  0  0  0  0  0  0
  197.5034  184.8127  158.5239 C   0  0  1  0  0  0  0  0  0  0  0  0
  196.5051  185.5269  159.4520 C   0  0  0  0  0  0  0  0  0  0  0  0
  196.9190  186.7497  160.0856 C   0  0  0  0  0  0  0  0  0  0  0  0
  196.0169  187.4736  160.8886 C   0  0  0  0  0  0  0  0  0  0  0  0
  194.7293  186.9687  161.1619 C   0  0  0  0  0  0  0  0  0  0  0  0
  194.3269  185.7671  160.5066 C   0  0  0  0  0  0  0  0  0  0  0  0
  195.1674  185.0809  159.6288 C   0  0  0  0  0  0  0  0  0  0  0  0
  196.9271  183.5834  157.7390 C   0  0  1  0  0  0  0  0  0  0  0  0
  196.3899  182.3913  158.6133 C   0  0  2  0  0  0  0  0  0  0  0  0
  199.6989  185.4827  157.5518 C   0  0  2  0  0  0  0  0  0  0  0  0
  198.5159  187.7039  156.1927 C   0  0  0  0  0  0  0  0  0  0  0  0
  198.7918  188.9411  156.5517 N   0  0  0  0  0  0  0  0  0  0  0  0
  199.6018  189.4171  155.5562 N   0  0  0  0  0  0  0  0  0  0  0  0
  199.8007  188.4624  154.5386 C   0  0  0  0  0  0  0  0  0  0  0  0
  199.1086  187.3465  154.9463 C   0  0  0  0  0  0  0  0  0  0  0  0
  199.0745  186.0726  154.1910 C   0  0  0  0  0  0  0  0  0  0  0  0
  200.0585  185.6805  153.5615 O   0  0  0  0  0  0  0  0  0  0  0  0
  197.9147  185.3824  154.2689 N   0  0  0  0  0  0  0  0  0  0  0  0
  197.5728  184.1962  153.4970 C   0  0  1  0  0  0  0  0  0  0  0  0
  197.5336  184.3689  151.9754 C   0  0  0  0  0  0  0  0  0  0  0  0
  197.0626  183.3039  151.1756 C   0  0  0  0  0  0  0  0  0  0  0  0
  197.0221  183.4430  149.7716 C   0  0  0  0  0  0  0  0  0  0  0  0
  197.4349  184.6374  149.1492 C   0  0  0  0  0  0  0  0  0  0  0  0
  197.9066  185.6974  149.9415 C   0  0  0  0  0  0  0  0  0  0  0  0
  197.9538  185.5661  151.3275 C   0  0  0  0  0  0  0  0  0  0  0  0
  197.3996  184.8020  147.6490 C   0  0  1  0  0  0  0  0  0  0  0  0
  198.2830  183.8804  146.9446 N   0  0  0  0  0  0  0  0  0  0  0  0
  199.6820  184.1403  147.2686 C   0  0  2  0  0  0  0  0  0  0  0  0
  198.0933  184.0626  145.5146 C   0  0  2  0  0  0  0  0  0  0  0  0
  200.6060  188.8494  153.4283 C   0  0  0  0  0  0  0  0  0  0  0  0
  201.1710  190.1083  153.4079 C   0  0  0  0  0  0  0  0  0  0  0  0
  200.9498  191.0183  154.4727 C   0  0  0  0  0  0  0  0  0  0  0  0
  200.1646  190.6545  155.5403 C   0  0  0  0  0  0  0  0  0  0  0  0
  198.2604  184.3946  159.1996 H   0  0  0  0  0  0  0  0  0  0  0  0
  197.8914  187.1812  159.8644 H   0  0  0  0  0  0  0  0  0  0  0  0
  196.3130  188.4459  161.2911 H   0  0  0  0  0  0  0  0  0  0  0  0
  194.0199  187.5099  161.7843 H   0  0  0  0  0  0  0  0  0  0  0  0
  193.3491  185.3578  160.7028 H   0  0  0  0  0  0  0  0  0  0  0  0
  194.7217  184.2704  159.0956 H   0  0  0  0  0  0  0  0  0  0  0  0
  196.1818  183.9429  157.0182 H   0  0  0  0  0  0  0  0  0  0  0  0
  197.7347  183.2012  157.0999 H   0  0  0  0  0  0  0  0  0  0  0  0
  195.9926  181.6206  157.9283 H   0  0  0  0  0  0  0  0  0  0  0  0
  195.6060  182.6332  159.3102 H   0  0  0  0  0  0  0  0  0  0  0  0
  197.2237  181.9778  159.2043 H   0  0  0  0  0  0  0  0  0  0  0  0
  200.1833  185.7490  156.6173 H   0  0  0  0  0  0  0  0  0  0  0  0
  199.9274  184.4202  157.6617 H   0  0  0  0  0  0  0  0  0  0  0  0
  200.2306  186.0405  158.3232 H   0  0  0  0  0  0  0  0  0  0  0  0
  197.1702  185.7645  154.8405 H   0  0  0  0  0  0  0  0  0  0  0  0
  198.2764  183.4073  153.7560 H   0  0  0  0  0  0  0  0  0  0  0  0
  196.5931  183.8483  153.8316 H   0  0  0  0  0  0  0  0  0  0  0  0
  196.7375  182.3772  151.6335 H   0  0  0  0  0  0  0  0  0  0  0  0
  196.6808  182.6258  149.1572 H   0  0  0  0  0  0  0  0  0  0  0  0
  198.2389  186.6339  149.5157 H   0  0  0  0  0  0  0  0  0  0  0  0
  198.2587  186.4518  151.8537 H   0  0  0  0  0  0  0  0  0  0  0  0
  196.3681  184.6293  147.3443 H   0  0  0  0  0  0  0  0  0  0  0  0
  197.6432  185.8379  147.3916 H   0  0  0  0  0  0  0  0  0  0  0  0
  200.3304  183.4598  146.7163 H   0  0  0  0  0  0  0  0  0  0  0  0
  199.8764  183.9788  148.3295 H   0  0  0  0  0  0  0  0  0  0  0  0
  199.9686  185.1638  147.0218 H   0  0  0  0  0  0  0  0  0  0  0  0
  198.7288  183.3757  144.9571 H   0  0  0  0  0  0  0  0  0  0  0  0
  198.3373  185.0803  145.2076 H   0  0  0  0  0  0  0  0  0  0  0  0
  197.0596  183.8593  145.2334 H   0  0  0  0  0  0  0  0  0  0  0  0
  200.7855  188.1501  152.6162 H   0  0  0  0  0  0  0  0  0  0  0  0
  201.7994  190.4087  152.5738 H   0  0  0  0  0  0  0  0  0  0  0  0
  201.3983  192.0068  154.4545 H   0  0  0  0  0  0  0  0  0  0  0  0
  199.9583  191.2949  156.3918 H   0  0  0  0  0  0  0  0  0  0  0  0
  1  2  2  0
  2  3  1  0
  2 14  1  0
  3  4  1  0
  3 13  1  0
  4  5  1  0
  4 11  1  0
  4 37  1  1
  5  6  2  0
  5 10  1  0
  6  7  1  0
  6 38  1  0
  7  8  2  0
  7 39  1  0
  8  9  1  0
  8 40  1  0
  9 10  2  0
  9 41  1  0
 10 42  1  0
 11 12  1  0
 11 43  1  6
 11 44  1  0
 12 45  1  6
 12 46  1  0
 12 47  1  0
 13 48  1  6
 13 49  1  0
 13 50  1  0
 14 15  2  0
 14 18  1  0
 15 16  1  0
 16 17  1  0
 16 36  1  0
 17 18  2  0
 17 33  1  0
 18 19  1  0
 19 20  2  0
 19 21  1  0
 21 22  1  0
 21 51  1  0
 22 23  1  0
 22 52  1  6
 22 53  1  0
 23 24  1  0
 23 28  2  0
 24 25  2  0
 24 54  1  0
 25 26  1  0
 25 55  1  0
 26 27  2  0
 26 29  1  0
 27 28  1  0
 27 56  1  0
 28 57  1  0
 29 30  1  0
 29 58  1  6
 29 59  1  0
 30 31  1  0
 30 32  1  0
 31 60  1  6
 31 61  1  0
 31 62  1  0
 32 63  1  6
 32 64  1  0
 32 65  1  0
 33 34  2  0
 33 66  1  0
 34 35  1  0
 34 67  1  0
 35 36  2  0
 35 68  1  0
 36 69  1  0
M  END
>  <s_epik_cmdline>  (19) 
J2VwaWtfcHl0aG9uJywgJy1waCcsICc3LjAwMDAwMCcsICctcGh0JywgJzIuMDAwMDAwJywgJy1tcycsICcxNicsICctdG4nLCAnOCcsICctbWEnLCAnMjAwJywgJy1pbWFlJywgJzxpbmZpbGUubWFlPicsICctb21hZScsICc8b3V0ZmlsZS5tYWU+Jw==

>  <s_epik_input>  (19) 
W2NIXTFbY0hdW2NIXVtjSF1bY0hdYzFbQ0BASF0oW0NIMl1bQ0gzXSlOKFtDSDNdKUMoPU8pYyhuMiljKGMobjIzKVtjSF1bY0hdW2NIXVtjSF0zKUMoPU8pW05IXVtDSDJdYzRbY0hdW2NIXWMoW2NIXVtjSF00KVtDSDJdTihbQ0gzXSlbQ0gzXQ==

>  <s_i_glide_gridfile>  (19) 
ATP-Grid

>  <s_lp_Force_Field>  (19) 
OPLS_2005

>  <s_lp_Variant>  (19) 
WXCD003____AN3784____LN05333710____AK00809-3

>  <s_lp_label>  (19) 
632_sdstereoexpander_1_neutralizer_1_epik_2_stereoizer_1

>  <s_m_source_file>  (19) 
ATP-VSW-LIGPREP-002-in.maegz

>  <s_sd_BIOSOLVEIT.INFINISEE\_QUERY\_NAME>  (19) 
Ref-Lig

>  <s_sd_BIOSOLVEIT.INFINISEE\_QUERY\_SMILES>  (19) 
S(c1nc2c(cc1C[NH2+]Cc3ccc(cc3)C[NH+](C)C)cccc2)Cc4ccccc4

>  <s_sd_BIOSOLVEIT.INFINISEE\_REACTION\_NAME>  (19) 
WXCD003

>  <s_sd_BIOSOLVEIT.INFINISEE\_REAGENT1\_NAME>  (19) 
AN3784

>  <s_sd_BIOSOLVEIT.INFINISEE\_REAGENT1\_SMILES>  (19) 
N(C(c1ccccc1)CC)C

>  <s_sd_BIOSOLVEIT.INFINISEE\_REAGENT2\_NAME>  (19) 
LN05333710

>  <s_sd_BIOSOLVEIT.INFINISEE\_REAGENT2\_SMILES>  (19) 
O=C(OC)C=1C(=NN2C1C=CC=C2)C(=O)O

>  <s_sd_BIOSOLVEIT.INFINISEE\_REAGENT3\_NAME>  (19) 
AK00809

>  <s_sd_BIOSOLVEIT.INFINISEE\_REAGENT3\_SMILES>  (19) 
N(Cc1ccc(cc1)CN)(C)C

>  <s_sd_BIOSOLVEIT.INFINISEE\_SPACE>  (19) 
GalaXi_12bn_2023-03

>  <s_vsw_compound_code>  (19) 
20194

>  <s_vsw_variant>  (19) 
20194-3

>  <r_epik_Charging_Adjusted_Penalty>  (19) 
1.5474585922489701

>  <r_epik_Ionization_Penalty>  (19) 
1.5475000000000001

>  <r_epik_Ionization_Penalty_Charging>  (19) 
0

>  <r_epik_Ionization_Penalty_Neutral>  (19) 
1.5475000000000001

>  <r_epik_State_Penalty>  (19) 
1.5475000000000001

>  <r_i_docking_score>  (19) 
-2.4922629116258199

>  <r_i_glide_ecoul>  (19) 
-1.8457772731780999

>  <r_i_glide_eff_state_penalty>  (19) 
1.5475000000000001

>  <r_i_glide_einternal>  (19) 
4.2231492996215803

>  <r_i_glide_emodel>  (19) 
-48.881942727401501

>  <r_i_glide_energy>  (19) 
-40.260869741439798

>  <r_i_glide_erotb>  (19) 
0.694459477077497

>  <r_i_glide_esite>  (19) 
-0.00089355191728394305

>  <r_i_glide_evdw>  (19) 
-38.415092468261697

>  <r_i_glide_gscore>  (19) 
-4.0397629116258296

>  <r_i_glide_hbond>  (19) 
0

>  <r_i_glide_ligand_efficiency>  (19) 
-0.069229525322939606

>  <r_i_glide_ligand_efficiency_ln>  (19) 
-0.54374443415418905

>  <r_i_glide_ligand_efficiency_sa>  (19) 
-0.22859085581880201

>  <r_i_glide_lipo>  (19) 
-2.2491053682114002

>  <r_i_glide_metal>  (19) 
-0

>  <r_i_glide_rewards>  (19) 
-0.28660225418483498

>  <r_lp_Energy>  (19) 
40.678308999999999

>  <r_qp_ACxDN^.5/SA>  (19) 
0.0104879

>  <r_qp_CIQPlogS>  (19) 
-5.8369999999999997

>  <r_qp_EA(eV)>  (19) 
0.94099999999999995

>  <r_qp_FISA>  (19) 
61.173000000000002

>  <r_qp_FOSA>  (19) 
360.75299999999999

>  <r_qp_IP(eV)>  (19) 
9.0169999999999995

>  <r_qp_Jm>  (19) 
0.0132109340680096

>  <r_qp_PISA>  (19) 
388.52999999999997

>  <r_qp_PSA>  (19) 
75.466999999999999

>  <r_qp_PercentHumanOralAbsorption>  (19) 
100

>  <r_qp_QPPCaco>  (19) 
649.67499999999995

>  <r_qp_QPPMDCK>  (19) 
343.38099999999997

>  <r_qp_QPlogBB>  (19) 
-0.217

>  <r_qp_QPlogHERG>  (19) 
-7.3380000000000001

>  <r_qp_QPlogKhsa>  (19) 
0.74299999999999999

>  <r_qp_QPlogKp>  (19) 
-2.4769999999999999

>  <r_qp_QPlogPC16>  (19) 
16.044

>  <r_qp_QPlogPo/w>  (19) 
4.9630000000000001

>  <r_qp_QPlogPoct>  (19) 
24.812999999999999

>  <r_qp_QPlogPw>  (19) 
12.58

>  <r_qp_QPlogS>  (19) 
-5.0869999999999997

>  <r_qp_QPpolrz>  (19) 
53.966000000000001

>  <r_qp_SASA>  (19) 
810.45600000000002

>  <r_qp_SAamideO>  (19) 
0

>  <r_qp_SAfluorine>  (19) 
0

>  <r_qp_WPSA>  (19) 
0

>  <r_qp_accptHB>  (19) 
8.5

>  <r_qp_dip^2/V>  (19) 
0.0675452

>  <r_qp_dipole>  (19) 
10.244999999999999

>  <r_qp_donorHB>  (19) 
1

>  <r_qp_glob>  (19) 
0.80055449999999995

>  <r_qp_mol_MW>  (19) 
483.61200000000002

>  <r_qp_volume>  (19) 
1553.9349999999999

>  <r_sd_BIOSOLVEIT.INFINISEE\_FTREES\_SIMILARITY>  (19) 
0.90900000000000003

>  <r_sd_BIOSOLVEIT.LOGP>  (19) 
3.1320999999999999

>  <r_sd_BIOSOLVEIT.MOLECULAR\_WEIGHT>  (19) 
484.62099999999998

>  <r_sd_BIOSOLVEIT.TPSA>  (19) 
71.670000000000002

>  <i_epik_Tot_Q>  (19) 
0

>  <i_epik_Tot_abs_Q>  (19) 
0

>  <i_f3d_flags>  (19) 
0

>  <i_i_glide_confnum>  (19) 
13

>  <i_i_glide_lignum>  (19) 
182

>  <i_i_glide_posenum>  (19) 
2

>  <i_i_glide_rotatable_bonds>  (19) 
11

>  <i_lp_mmshare_version>  (19) 
65135

>  <i_m_ct_format>  (19) 
2

>  <i_m_source_file_index>  (19) 
632

>  <i_qp_#NandO>  (19) 
7

>  <i_qp_#acid>  (19) 
0

>  <i_qp_#amide>  (19) 
0

>  <i_qp_#amidine>  (19) 
0

>  <i_qp_#amine>  (19) 
1

>  <i_qp_#in34>  (19) 
0

>  <i_qp_#in56>  (19) 
21

>  <i_qp_#metab>  (19) 
5

>  <i_qp_#nonHatm>  (19) 
36

>  <i_qp_#noncon>  (19) 
0

>  <i_qp_#ringatoms>  (19) 
21

>  <i_qp_#rotor>  (19) 
9

>  <i_qp_#rtvFG>  (19) 
0

>  <i_qp_#stars>  (19) 
0

>  <i_qp_CNS>  (19) 
1

>  <i_qp_HumanOralAbsorption>  (19) 
3

>  <i_qp_RuleOfFive>  (19) 
0

>  <i_qp_RuleOfThree>  (19) 
0

>  <i_sd_BIOSOLVEIT.INFINISEE\_RESULT\_RANK>  (19) 
48570

>  <i_sd_version>  (19) 
0

>  <b_lp_Chiralities_Consistent>  (19) 
1

>  <b_sd_chiral_flag>  (19) 
0

>  <canonical_id>  (19) 
ATP-HTVS-027CB3113620

>  <compound_code>  (19) 
20194

>  <title>  (19) 
WXCD003____AN3784____LN05333710____AK00809

>  <variant>  (19) 
20194-3

>  <source_file>  (19) 
运行/运行/ATP-VSW/ATP-VSW-DOCK_HTVS_1-002_lib.maegz

>  <canonical_smiles>  (19) 
CC[C@H](c1ccccc1)N(C)C(=O)c1nn2ccccc2c1C(=O)NCc1ccc(CN(C)C)cc1

>  <scaffold>  (19) 
O=C(NCc1ccccc1)c1nn2ccccc2c1C(=O)NCc1ccccc1

>  <molecular_formula>  (19) 
C29H33N5O2

$$$$
ATP-HTVS-0282D10141FD
     RDKit          3D

 51 54  0  0  0  0  0  0  0  0999 V2000
  195.4770  181.4579  159.0978 O   0  0  0  0  0  0  0  0  0  0  0  0
  196.1730  182.5926  158.7403 C   0  0  0  0  0  0  0  0  0  0  0  0
  196.5186  182.8633  157.3950 C   0  0  0  0  0  0  0  0  0  0  0  0
  197.2457  184.0453  157.0825 C   0  0  0  0  0  0  0  0  0  0  0  0
  197.6084  184.9470  158.1095 C   0  0  0  0  0  0  0  0  0  0  0  0
  197.2545  184.6710  159.4413 C   0  0  0  0  0  0  0  0  0  0  0  0
  196.5462  183.4998  159.7496 C   0  0  0  0  0  0  0  0  0  0  0  0
  197.6477  184.3816  155.6548 C   0  0  2  0  0  0  0  0  0  0  0  0
  196.1046  181.8846  156.3063 C   0  0  1  0  0  0  0  0  0  0  0  0
  197.1347  180.8484  156.1383 N   0  0  1  0  0  0  0  0  0  0  0  0
  196.7596  179.7491  155.2201 C   0  0  1  0  0  0  0  0  0  0  0  0
  198.0174  179.1511  154.6768 C   0  0  0  0  0  0  0  0  0  0  0  0
  198.6227  179.3564  153.3981 C   0  0  0  0  0  0  0  0  0  0  0  0
  199.7167  178.6142  153.2762 N   0  0  0  0  0  0  0  0  0  0  0  0
  199.8687  177.9447  154.4455 N   0  0  0  0  0  0  0  0  0  0  0  0
  200.9636  177.0576  154.6496 C   0  0  0  0  0  0  0  0  0  0  0  0
  202.0011  176.9557  153.6904 C   0  0  0  0  0  0  0  0  0  0  0  0
  203.0891  176.0870  153.9029 C   0  0  0  0  0  0  0  0  0  0  0  0
  203.1477  175.3054  155.0717 C   0  0  0  0  0  0  0  0  0  0  0  0
  202.1261  175.4039  156.0329 C   0  0  0  0  0  0  0  0  0  0  0  0
  201.0381  176.2711  155.8235 C   0  0  0  0  0  0  0  0  0  0  0  0
  198.8425  178.2630  155.3114 C   0  0  0  0  0  0  0  0  0  0  0  0
  198.1925  180.2168  152.2760 C   0  0  0  0  0  0  0  0  0  0  0  0
  197.4036  181.3731  152.4859 C   0  0  0  0  0  0  0  0  0  0  0  0
  196.9624  182.1133  151.3774 C   0  0  0  0  0  0  0  0  0  0  0  0
  197.2924  181.8103  150.1072 N   0  0  0  0  0  0  0  0  0  0  0  0
  198.0916  180.7432  149.8990 C   0  0  0  0  0  0  0  0  0  0  0  0
  198.5489  179.9085  150.9415 C   0  0  0  0  0  0  0  0  0  0  0  0
  197.9846  181.2945  155.8019 H   0  0  0  0  0  0  0  0  0  0  0  0
  195.5202  180.7008  158.5265 H   0  0  0  0  0  0  0  0  0  0  0  0
  198.1607  185.8481  157.8851 H   0  0  0  0  0  0  0  0  0  0  0  0
  197.5414  185.3561  160.2287 H   0  0  0  0  0  0  0  0  0  0  0  0
  196.3065  183.2930  160.7815 H   0  0  0  0  0  0  0  0  0  0  0  0
  198.2962  185.2588  155.6199 H   0  0  0  0  0  0  0  0  0  0  0  0
  196.7644  184.5964  155.0514 H   0  0  0  0  0  0  0  0  0  0  0  0
  198.1905  183.5513  155.2023 H   0  0  0  0  0  0  0  0  0  0  0  0
  195.1481  181.4309  156.5772 H   0  0  0  0  0  0  0  0  0  0  0  0
  195.9357  182.4011  155.3625 H   0  0  0  0  0  0  0  0  0  0  0  0
  196.1812  178.9802  155.7301 H   0  0  0  0  0  0  0  0  0  0  0  0
  196.0880  180.1009  154.4372 H   0  0  0  0  0  0  0  0  0  0  0  0
  201.9798  177.5459  152.7855 H   0  0  0  0  0  0  0  0  0  0  0  0
  203.8819  176.0236  153.1711 H   0  0  0  0  0  0  0  0  0  0  0  0
  203.9794  174.6376  155.2381 H   0  0  0  0  0  0  0  0  0  0  0  0
  202.1819  174.8153  156.9359 H   0  0  0  0  0  0  0  0  0  0  0  0
  200.2731  176.3176  156.5832 H   0  0  0  0  0  0  0  0  0  0  0  0
  198.7593  177.8262  156.2988 H   0  0  0  0  0  0  0  0  0  0  0  0
  197.1243  181.7117  153.4718 H   0  0  0  0  0  0  0  0  0  0  0  0
  196.3374  182.9767  151.5356 H   0  0  0  0  0  0  0  0  0  0  0  0
  198.3758  180.5515  148.8721 H   0  0  0  0  0  0  0  0  0  0  0  0
  199.1723  179.0591  150.7087 H   0  0  0  0  0  0  0  0  0  0  0  0
  197.3217  180.4258  157.0256 H   0  0  0  0  0  0  0  0  0  0  0  0
  1  2  1  0
  1 30  1  0
  2  3  2  0
  2  7  1  0
  3  4  1  0
  3  9  1  0
  4  5  2  0
  4  8  1  0
  5  6  1  0
  5 31  1  0
  6  7  2  0
  6 32  1  0
  7 33  1  0
  8 34  1  1
  8 35  1  0
  8 36  1  0
  9 10  1  0
  9 37  1  1
  9 38  1  0
 10 11  1  0
 10 29  1  6
 10 51  1  0
 11 12  1  0
 11 39  1  1
 11 40  1  0
 12 13  1  0
 12 22  2  0
 13 14  2  0
 13 23  1  0
 14 15  1  0
 15 16  1  0
 15 22  1  0
 16 17  2  0
 16 21  1  0
 17 18  1  0
 17 41  1  0
 18 19  2  0
 18 42  1  0
 19 20  1  0
 19 43  1  0
 20 21  2  0
 20 44  1  0
 21 45  1  0
 22 46  1  0
 23 24  2  0
 23 28  1  0
 24 25  1  0
 24 47  1  0
 25 26  2  0
 25 48  1  0
 26 27  1  0
 27 28  2  0
 27 49  1  0
 28 50  1  0
M  CHG  1  10   1
M  END
>  <s_epik_cmdline>  (20) 
J2VwaWtfcHl0aG9uJywgJy1waCcsICc3LjAwMDAwMCcsICctcGh0JywgJzIuMDAwMDAwJywgJy1tcycsICcxNicsICctdG4nLCAnOCcsICctbWEnLCAnMjAwJywgJy1pbWFlJywgJzxpbmZpbGUubWFlPicsICctb21hZScsICc8b3V0ZmlsZS5tYWU+Jw==

>  <s_epik_input>  (20) 
W2NIXTFbY0hdW2NIXWMoW0NIM10pYyhjMVtPSF0pW0NIMl1bTkhdW0NIMl1jMmMoLWMzW2NIXVtjSF1uW2NIXVtjSF0zKW5uKFtjSF0yKS1jNFtjSF1bY0hdW2NIXVtjSF1bY0hdNA==

>  <s_i_glide_gridfile>  (20) 
ATP-Grid

>  <s_lp_Force_Field>  (20) 
OPLS_2005

>  <s_lp_Variant>  (20) 
m_270004bbb____8292364____10709854-1

>  <s_lp_label>  (20) 
1808_sdstereoexpander_1_neutralizer_1_epik_1_stereoizer_1

>  <s_m_source_file>  (20) 
ATP-VSW-LIGPREP-001-in.maegz

>  <s_sd_BIOSOLVEIT.INFINISEE\_QUERY\_NAME>  (20) 
Ref-Lig

>  <s_sd_BIOSOLVEIT.INFINISEE\_QUERY\_SMILES>  (20) 
S(c1nc2c(cc1C[NH2+]Cc3ccc(cc3)C[NH+](C)C)cccc2)Cc4ccccc4

>  <s_sd_BIOSOLVEIT.INFINISEE\_REACTION\_NAME>  (20) 
m_270004bbb

>  <s_sd_BIOSOLVEIT.INFINISEE\_REAGENT1\_SMILES>  (20) 
[R1*]NCC=1C(=NN(c2ccccc2)C1)c3ccncc3

>  <s_sd_BIOSOLVEIT.INFINISEE\_REAGENT2\_SMILES>  (20) 
[R1*]Cc1c(O)cccc1C

>  <s_sd_BIOSOLVEIT.INFINISEE\_SPACE>  (20) 
REALSpace_44bn_2023-08

>  <s_vsw_compound_code>  (20) 
57825

>  <s_vsw_variant>  (20) 
57825-1

>  <r_epik_Charging_Adjusted_Penalty>  (20) 
0.15086110395218999

>  <r_epik_Ionization_Penalty>  (20) 
0.085900000000000004

>  <r_epik_Ionization_Penalty_Charging>  (20) 
0.070800000000000002

>  <r_epik_Ionization_Penalty_Neutral>  (20) 
0.0152

>  <r_epik_State_Penalty>  (20) 
0.080100000000000005

>  <r_i_docking_score>  (20) 
-4.7455117172324996

>  <r_i_glide_ecoul>  (20) 
-11.7757472991943

>  <r_i_glide_eff_state_penalty>  (20) 
0.080100000000000005

>  <r_i_glide_einternal>  (20) 
1.6054060459137001

>  <r_i_glide_emodel>  (20) 
-59.8543821490941

>  <r_i_glide_energy>  (20) 
-41.387910842895501

>  <r_i_glide_erotb>  (20) 
0.8394040250982

>  <r_i_glide_esite>  (20) 
-0.107226912232415

>  <r_i_glide_evdw>  (20) 
-29.6121635437012

>  <r_i_glide_gscore>  (20) 
-4.8256117172325004

>  <r_i_glide_hbond>  (20) 
-0.18784730594937801

>  <r_i_glide_ligand_efficiency>  (20) 
-0.169482561329732

>  <r_i_glide_ligand_efficiency_ln>  (20) 
-1.0954034386157301

>  <r_i_glide_ligand_efficiency_sa>  (20) 
-0.51464887608746701

>  <r_i_glide_lipo>  (20) 
-1.02152752481197

>  <r_i_glide_metal>  (20) 
-0

>  <r_i_glide_rewards>  (20) 
-1.10144372727273

>  <r_lp_Energy>  (20) 
12.913086

>  <r_lp_tautomer_probability>  (20) 
0.999999999997365

>  <r_qp_ACxDN^.5/SA>  (20) 
0.010012399999999999

>  <r_qp_CIQPlogS>  (20) 
-5.0999999999999996

>  <r_qp_EA(eV)>  (20) 
0.624

>  <r_qp_FISA>  (20) 
79.751999999999995

>  <r_qp_FOSA>  (20) 
91.756

>  <r_qp_IP(eV)>  (20) 
8.8970000000000002

>  <r_qp_Jm>  (20) 
0.0140581847394858

>  <r_qp_PISA>  (20) 
499.41399999999999

>  <r_qp_PSA>  (20) 
60.250999999999998

>  <r_qp_PercentHumanOralAbsorption>  (20) 
100

>  <r_qp_QPPCaco>  (20) 
433.02300000000002

>  <r_qp_QPPMDCK>  (20) 
221.483

>  <r_qp_QPlogBB>  (20) 
-0.13400000000000001

>  <r_qp_QPlogHERG>  (20) 
-7.5830000000000002

>  <r_qp_QPlogKhsa>  (20) 
0.70999999999999996

>  <r_qp_QPlogKp>  (20) 
-2.8130000000000002

>  <r_qp_QPlogPC16>  (20) 
13.992000000000001

>  <r_qp_QPlogPo/w>  (20) 
4.2199999999999998

>  <r_qp_QPlogPoct>  (20) 
20.459

>  <r_qp_QPlogPw>  (20) 
11.778

>  <r_qp_QPlogS>  (20) 
-4.6079999999999997

>  <r_qp_QPpolrz>  (20) 
43.793999999999997

>  <r_qp_SASA>  (20) 
670.92200000000003

>  <r_qp_SAamideO>  (20) 
0

>  <r_qp_SAfluorine>  (20) 
0

>  <r_qp_WPSA>  (20) 
0

>  <r_qp_accptHB>  (20) 
4.75

>  <r_qp_dip^2/V>  (20) 
0.025457899999999999

>  <r_qp_dipole>  (20) 
5.548

>  <r_qp_donorHB>  (20) 
2

>  <r_qp_glob>  (20) 
0.81810419999999995

>  <r_qp_mol_MW>  (20) 
370.45299999999997

>  <r_qp_volume>  (20) 
1209.1310000000001

>  <r_sd_BIOSOLVEIT.INFINISEE\_FTREES\_SIMILARITY>  (20) 
0.90400000000000003

>  <r_sd_BIOSOLVEIT.LOGP>  (20) 
3.2119200000000001

>  <r_sd_BIOSOLVEIT.MOLECULAR\_WEIGHT>  (20) 
371.46199999999999

>  <r_sd_BIOSOLVEIT.TPSA>  (20) 
67.549999999999997

>  <i_epik_Tot_Q>  (20) 
1

>  <i_epik_Tot_abs_Q>  (20) 
1

>  <i_f3d_flags>  (20) 
0

>  <i_i_glide_confnum>  (20) 
6

>  <i_i_glide_lignum>  (20) 
524

>  <i_i_glide_posenum>  (20) 
11

>  <i_i_glide_rotatable_bonds>  (20) 
7

>  <i_lp_mmshare_version>  (20) 
65135

>  <i_m_ct_format>  (20) 
2

>  <i_m_source_file_index>  (20) 
1808

>  <i_qp_#NandO>  (20) 
5

>  <i_qp_#acid>  (20) 
0

>  <i_qp_#amide>  (20) 
0

>  <i_qp_#amidine>  (20) 
0

>  <i_qp_#amine>  (20) 
1

>  <i_qp_#in34>  (20) 
0

>  <i_qp_#in56>  (20) 
23

>  <i_qp_#metab>  (20) 
7

>  <i_qp_#nonHatm>  (20) 
28

>  <i_qp_#noncon>  (20) 
0

>  <i_qp_#ringatoms>  (20) 
23

>  <i_qp_#rotor>  (20) 
5

>  <i_qp_#rtvFG>  (20) 
0

>  <i_qp_#stars>  (20) 
1

>  <i_qp_CNS>  (20) 
1

>  <i_qp_HumanOralAbsorption>  (20) 
3

>  <i_qp_RuleOfFive>  (20) 
0

>  <i_qp_RuleOfThree>  (20) 
1

>  <i_sd_BIOSOLVEIT.INFINISEE\_REAGENT1\_NAME>  (20) 
8292364

>  <i_sd_BIOSOLVEIT.INFINISEE\_REAGENT2\_NAME>  (20) 
10709854

>  <i_sd_BIOSOLVEIT.INFINISEE\_RESULT\_RANK>  (20) 
78353

>  <i_sd_version>  (20) 
0

>  <b_lp_Chiralities_Consistent>  (20) 
1

>  <b_sd_chiral_flag>  (20) 
0

>  <canonical_id>  (20) 
ATP-HTVS-0282D10141FD

>  <compound_code>  (20) 
57825

>  <title>  (20) 
m_270004bbb____8292364____10709854

>  <variant>  (20) 
57825-1

>  <source_file>  (20) 
运行/运行/ATP-VSW/ATP-VSW-DOCK_HTVS_1-001_lib/ATP-VSW-DOCK_HTVS_1-001_lib

>  <canonical_smiles>  (20) 
Cc1cccc(O)c1C[NH2+]Cc1cn(-c2ccccc2)nc1-c1ccncc1

>  <scaffold>  (20) 
c1ccc(C[NH2+]Cc2cn(-c3ccccc3)nc2-c2ccncc2)cc1

>  <molecular_formula>  (20) 
C23H23N4O+

$$$$
ATP-HTVS-028F2DC4E032
     RDKit          3D

 52 55  0  0  0  0  0  0  0  0999 V2000
  196.5251  178.3528  147.5892 Br  0  0  0  0  0  0  0  0  0  0  0  0
  198.0383  177.6994  148.5725 C   0  0  0  0  0  0  0  0  0  0  0  0
  198.7803  178.6196  149.3541 C   0  0  0  0  0  0  0  0  0  0  0  0
  199.9722  178.1974  149.9598 C   0  0  0  0  0  0  0  0  0  0  0  0
  200.3414  176.8495  149.9840 C   0  0  0  0  0  0  0  0  0  0  0  0
  199.5930  175.9122  149.2377 C   0  0  0  0  0  0  0  0  0  0  0  0
  198.4664  176.3505  148.5020 C   0  0  0  0  0  0  0  0  0  0  0  0
  198.3146  180.0264  149.5363 C   0  0  0  0  0  0  0  0  0  0  0  0
  198.8041  180.8648  148.6672 N   0  0  0  0  0  0  0  0  0  0  0  0
  198.4493  182.2104  148.6914 C   0  0  0  0  0  0  0  0  0  0  0  0
  197.5558  182.7231  149.6547 C   0  0  0  0  0  0  0  0  0  0  0  0
  197.2051  184.0958  149.6174 C   0  0  0  0  0  0  0  0  0  0  0  0
  196.3437  184.6318  150.5112 F   0  0  0  0  0  0  0  0  0  0  0  0
  197.7557  184.9362  148.6326 C   0  0  0  0  0  0  0  0  0  0  0  0
  198.6498  184.4221  147.6769 C   0  0  0  0  0  0  0  0  0  0  0  0
  198.9919  183.0587  147.7066 C   0  0  0  0  0  0  0  0  0  0  0  0
  197.0067  181.7654  150.6749 C   0  0  0  0  0  0  0  0  0  0  0  0
  196.2215  182.1645  151.5367 O   0  0  0  0  0  0  0  0  0  0  0  0
  197.4108  180.4678  150.5663 N   0  0  0  0  0  0  0  0  0  0  0  0
  196.8642  179.4958  151.5559 C   0  0  1  0  0  0  0  0  0  0  0  0
  197.6429  179.4512  152.8815 C   0  0  0  0  0  0  0  0  0  0  0  0
  197.0419  179.8979  154.1024 C   0  0  0  0  0  0  0  0  0  0  0  0
  197.7759  179.7810  155.3191 C   0  0  0  0  0  0  0  0  0  0  0  0
  199.1153  179.2922  155.3153 C   0  0  0  0  0  0  0  0  0  0  0  0
  199.6837  178.9067  154.0824 C   0  0  0  0  0  0  0  0  0  0  0  0
  198.9608  178.9064  152.8791 C   0  0  0  0  0  0  0  0  0  0  0  0
  199.9324  179.1213  156.5890 C   0  0  1  0  0  0  0  0  0  0  0  0
  199.9937  177.7192  157.0885 N   0  0  2  0  0  0  0  0  0  0  0  0
  200.7782  177.6034  158.3350 C   0  0  2  0  0  0  0  0  0  0  0  0
  200.4073  176.6896  156.0995 C   0  0  2  0  0  0  0  0  0  0  0  0
  200.5667  178.9256  150.5378 H   0  0  0  0  0  0  0  0  0  0  0  0
  201.1462  176.5155  150.6222 H   0  0  0  0  0  0  0  0  0  0  0  0
  199.9072  174.8709  149.2199 H   0  0  0  0  0  0  0  0  0  0  0  0
  197.9524  175.6455  147.8584 H   0  0  0  0  0  0  0  0  0  0  0  0
  197.4847  185.9800  148.6202 H   0  0  0  0  0  0  0  0  0  0  0  0
  199.0730  185.0697  146.9235 H   0  0  0  0  0  0  0  0  0  0  0  0
  199.6724  182.6604  146.9680 H   0  0  0  0  0  0  0  0  0  0  0  0
  195.8126  179.7269  151.7717 H   0  0  0  0  0  0  0  0  0  0  0  0
  196.8055  178.5033  151.1079 H   0  0  0  0  0  0  0  0  0  0  0  0
  196.0041  180.2655  154.1003 H   0  0  0  0  0  0  0  0  0  0  0  0
  197.2940  180.0469  156.2482 H   0  0  0  0  0  0  0  0  0  0  0  0
  200.6673  178.4727  154.0285 H   0  0  0  0  0  0  0  0  0  0  0  0
  199.3762  178.3607  152.0724 H   0  0  0  0  0  0  0  0  0  0  0  0
  200.9409  179.4780  156.3806 H   0  0  0  0  0  0  0  0  0  0  0  0
  199.4773  179.7790  157.3316 H   0  0  0  0  0  0  0  0  0  0  0  0
  201.8062  177.9124  158.1651 H   0  0  0  0  0  0  0  0  0  0  0  0
  200.7497  176.5857  158.7082 H   0  0  0  0  0  0  0  0  0  0  0  0
  200.3534  178.2138  159.1208 H   0  0  0  0  0  0  0  0  0  0  0  0
  201.4131  176.9232  155.7430 H   0  0  0  0  0  0  0  0  0  0  0  0
  199.7157  176.6172  155.2570 H   0  0  0  0  0  0  0  0  0  0  0  0
  200.3984  175.6884  156.5334 H   0  0  0  0  0  0  0  0  0  0  0  0
  199.0361  177.5281  157.3450 H   0  0  0  0  0  0  0  0  0  0  0  0
  1  2  1  0
  2  3  1  0
  2  7  2  0
  3  4  2  0
  3  8  1  0
  4  5  1  0
  4 31  1  0
  5  6  2  0
  5 32  1  0
  6  7  1  0
  6 33  1  0
  7 34  1  0
  8  9  2  0
  8 19  1  0
  9 10  1  0
 10 11  1  0
 10 16  2  0
 11 12  2  0
 11 17  1  0
 12 13  1  0
 12 14  1  0
 14 15  2  0
 14 35  1  0
 15 16  1  0
 15 36  1  0
 16 37  1  0
 17 18  2  0
 17 19  1  0
 19 20  1  0
 20 21  1  0
 20 38  1  1
 20 39  1  0
 21 22  1  0
 21 26  2  0
 22 23  2  0
 22 40  1  0
 23 24  1  0
 23 41  1  0
 24 25  2  0
 24 27  1  0
 25 26  1  0
 25 42  1  0
 26 43  1  0
 27 28  1  0
 27 44  1  6
 27 45  1  0
 28 29  1  0
 28 30  1  0
 28 52  1  1
 29 46  1  6
 29 47  1  0
 29 48  1  0
 30 49  1  6
 30 50  1  0
 30 51  1  0
M  CHG  1  28   1
M  END
>  <s_epik_cmdline>  (21) 
J2VwaWtfcHl0aG9uJywgJy1waCcsICc3LjAwMDAwMCcsICctcGh0JywgJzIuMDAwMDAwJywgJy1tcycsICcxNicsICctdG4nLCAnOCcsICctbWEnLCAnMjAwJywgJy1pbWFlJywgJzxpbmZpbGUubWFlPicsICctb21hZScsICc8b3V0ZmlsZS5tYWU+Jw==

>  <s_epik_input>  (21) 
W2NIXTFbY0hdW2NIXVtjSF1jKGMxQnIpLWMobjIpbihjKD1PKWMoYzIzKWMoRilbY0hdW2NIXVtjSF0zKVtDSDJdYzRbY0hdW2NIXWMoW2NIXVtjSF00KVtDSDJdTihbQ0gzXSlbQ0gzXQ==

>  <s_i_glide_gridfile>  (21) 
ATP-Grid

>  <s_lp_Force_Field>  (21) 
OPLS_2005

>  <s_lp_Variant>  (21) 
rxn318____EMOL50155899____EMOL481226____EMOL476827-1

>  <s_lp_label>  (21) 
3032_sdstereoexpander_1_neutralizer_1_epik_1_stereoizer_1

>  <s_m_source_file>  (21) 
ATP-VSW-LIGPREP-002-in.maegz

>  <s_sd_BIOSOLVEIT.INFINISEE\_QUERY\_NAME>  (21) 
Ref-Lig

>  <s_sd_BIOSOLVEIT.INFINISEE\_QUERY\_SMILES>  (21) 
S(c1nc2c(cc1C[NH2+]Cc3ccc(cc3)C[NH+](C)C)cccc2)Cc4ccccc4

>  <s_sd_BIOSOLVEIT.INFINISEE\_REACTION\_NAME>  (21) 
rxn318

>  <s_sd_BIOSOLVEIT.INFINISEE\_REAGENT1\_NAME>  (21) 
EMOL50155899

>  <s_sd_BIOSOLVEIT.INFINISEE\_REAGENT1\_SMILES>  (21) 
N(Cc1ccc(cc1)CN)(C)C

>  <s_sd_BIOSOLVEIT.INFINISEE\_REAGENT2\_NAME>  (21) 
EMOL481226

>  <s_sd_BIOSOLVEIT.INFINISEE\_REAGENT2\_SMILES>  (21) 
Brc1c(cccc1)C(=O)O

>  <s_sd_BIOSOLVEIT.INFINISEE\_REAGENT3\_NAME>  (21) 
EMOL476827

>  <s_sd_BIOSOLVEIT.INFINISEE\_REAGENT3\_SMILES>  (21) 
Fc1c(c(N)ccc1)C(=O)O

>  <s_sd_BIOSOLVEIT.INFINISEE\_SPACE>  (21) 
eXplore_7tr_2022-12

>  <s_vsw_compound_code>  (21) 
96994

>  <s_vsw_variant>  (21) 
96994-1

>  <r_epik_Charging_Adjusted_Penalty>  (21) 
0.084962150219703103

>  <r_epik_Ionization_Penalty>  (21) 
0.042500000000000003

>  <r_epik_Ionization_Penalty_Charging>  (21) 
0.042500000000000003

>  <r_epik_Ionization_Penalty_Neutral>  (21) 
0

>  <r_epik_State_Penalty>  (21) 
0.042500000000000003

>  <r_i_docking_score>  (21) 
-4.6986375795522504

>  <r_i_glide_ecoul>  (21) 
-7.6751823425293004

>  <r_i_glide_eff_state_penalty>  (21) 
0.042500000000000003

>  <r_i_glide_einternal>  (21) 
1.4582220315933201

>  <r_i_glide_emodel>  (21) 
-55.606222885420202

>  <r_i_glide_energy>  (21) 
-39.982490539550803

>  <r_i_glide_erotb>  (21) 
0.369595807484636

>  <r_i_glide_esite>  (21) 
-0.095654274509791096

>  <r_i_glide_evdw>  (21) 
-32.307308197021499

>  <r_i_glide_gscore>  (21) 
-4.7411375795522499

>  <r_i_glide_hbond>  (21) 
-0.20000000000000001

>  <r_i_glide_ligand_efficiency>  (21) 
-0.15662125265174201

>  <r_i_glide_ligand_efficiency_ln>  (21) 
-1.06758165383116

>  <r_i_glide_ligand_efficiency_sa>  (21) 
-0.48665864681096299

>  <r_i_glide_lipo>  (21) 
-1.61022930382334

>  <r_i_glide_metal>  (21) 
-0

>  <r_i_glide_rewards>  (21) 
-0.43820704747328398

>  <r_lp_Energy>  (21) 
37.254953999999998

>  <r_lp_tautomer_probability>  (21) 
1

>  <r_qp_ACxDN^.5/SA>  (21) 
0

>  <r_qp_CIQPlogS>  (21) 
-6.4640000000000004

>  <r_qp_EA(eV)>  (21) 
0.85999999999999999

>  <r_qp_FISA>  (21) 
35.883000000000003

>  <r_qp_FOSA>  (21) 
197.38300000000001

>  <r_qp_IP(eV)>  (21) 
9.0210000000000008

>  <r_qp_Jm>  (21) 
0.022026855366047

>  <r_qp_PISA>  (21) 
381.23899999999998

>  <r_qp_PSA>  (21) 
43.256

>  <r_qp_PercentHumanOralAbsorption>  (21) 
100

>  <r_qp_QPPCaco>  (21) 
1128.549

>  <r_qp_QPPMDCK>  (21) 
2071.8699999999999

>  <r_qp_QPlogBB>  (21) 
0.53100000000000003

>  <r_qp_QPlogHERG>  (21) 
-7.133

>  <r_qp_QPlogKhsa>  (21) 
0.56999999999999995

>  <r_qp_QPlogKp>  (21) 
-2.4199999999999999

>  <r_qp_QPlogPC16>  (21) 
13.419

>  <r_qp_QPlogPo/w>  (21) 
4.8789999999999996

>  <r_qp_QPlogPoct>  (21) 
19.213000000000001

>  <r_qp_QPlogPw>  (21) 
9.1050000000000004

>  <r_qp_QPlogS>  (21) 
-4.9050000000000002

>  <r_qp_QPpolrz>  (21) 
46.241999999999997

>  <r_qp_SASA>  (21) 
709.67899999999997

>  <r_qp_SAamideO>  (21) 
0

>  <r_qp_SAfluorine>  (21) 
36.271000000000001

>  <r_qp_WPSA>  (21) 
95.174000000000007

>  <r_qp_accptHB>  (21) 
6

>  <r_qp_dip^2/V>  (21) 
0.030364800000000001

>  <r_qp_dipole>  (21) 
6.2789999999999999

>  <r_qp_donorHB>  (21) 
0

>  <r_qp_glob>  (21) 
0.81108179999999996

>  <r_qp_mol_MW>  (21) 
466.35199999999998

>  <r_qp_volume>  (21) 
1298.5

>  <r_sd_BIOSOLVEIT.INFINISEE\_FTREES\_SIMILARITY>  (21) 
0.90200000000000002

>  <r_sd_BIOSOLVEIT.LOGP>  (21) 
3.6579000000000002

>  <r_sd_BIOSOLVEIT.MOLECULAR\_WEIGHT>  (21) 
467.36000000000001

>  <r_sd_BIOSOLVEIT.TPSA>  (21) 
39.329999999999998

>  <i_epik_Tot_Q>  (21) 
1

>  <i_epik_Tot_abs_Q>  (21) 
1

>  <i_f3d_flags>  (21) 
0

>  <i_i_glide_confnum>  (21) 
4

>  <i_i_glide_lignum>  (21) 
96

>  <i_i_glide_posenum>  (21) 
1

>  <i_i_glide_rotatable_bonds>  (21) 
5

>  <i_lp_mmshare_version>  (21) 
65135

>  <i_m_ct_format>  (21) 
2

>  <i_m_source_file_index>  (21) 
3032

>  <i_qp_#NandO>  (21) 
4

>  <i_qp_#acid>  (21) 
0

>  <i_qp_#amide>  (21) 
0

>  <i_qp_#amidine>  (21) 
0

>  <i_qp_#amine>  (21) 
1

>  <i_qp_#in34>  (21) 
0

>  <i_qp_#in56>  (21) 
22

>  <i_qp_#metab>  (21) 
3

>  <i_qp_#nonHatm>  (21) 
30

>  <i_qp_#noncon>  (21) 
0

>  <i_qp_#ringatoms>  (21) 
22

>  <i_qp_#rotor>  (21) 
5

>  <i_qp_#rtvFG>  (21) 
0

>  <i_qp_#stars>  (21) 
0

>  <i_qp_CNS>  (21) 
2

>  <i_qp_HumanOralAbsorption>  (21) 
3

>  <i_qp_RuleOfFive>  (21) 
0

>  <i_qp_RuleOfThree>  (21) 
0

>  <i_sd_BIOSOLVEIT.INFINISEE\_RESULT\_RANK>  (21) 
89534

>  <i_sd_version>  (21) 
0

>  <b_lp_Chiralities_Consistent>  (21) 
1

>  <b_sd_chiral_flag>  (21) 
0

>  <canonical_id>  (21) 
ATP-HTVS-028F2DC4E032

>  <compound_code>  (21) 
96994

>  <title>  (21) 
rxn318____EMOL50155899____EMOL481226____EMOL476827

>  <variant>  (21) 
96994-1

>  <source_file>  (21) 
运行/运行/ATP-VSW/ATP-VSW-DOCK_HTVS_1-003_lib/ATP-VSW-DOCK_HTVS_1-003_lib.mae

>  <canonical_smiles>  (21) 
C[NH+](C)Cc1ccc(Cn2c(-c3ccccc3Br)nc3cccc(F)c3c2=O)cc1

>  <scaffold>  (21) 
O=c1c2ccccc2nc(-c2ccccc2)n1Cc1ccccc1

>  <molecular_formula>  (21) 
C24H22BrFN3O+

$$$$
ATP-HTVS-02AC8E798E60
     RDKit          3D

 51 54  0  0  0  0  0  0  0  0999 V2000
  200.1384  182.9375  154.8195 Cl  0  0  0  0  0  0  0  0  0  0  0  0
  200.2928  183.2143  156.5186 C   0  0  0  0  0  0  0  0  0  0  0  0
  199.1841  183.1451  157.3967 C   0  0  0  0  0  0  0  0  0  0  0  0
  199.3800  183.3936  158.7785 C   0  0  0  0  0  0  0  0  0  0  0  0
  200.6652  183.6620  159.2848 C   0  0  0  0  0  0  0  0  0  0  0  0
  201.7635  183.7049  158.4086 C   0  0  0  0  0  0  0  0  0  0  0  0
  201.5757  183.4882  157.0285 C   0  0  0  0  0  0  0  0  0  0  0  0
  197.7750  182.8006  156.9093 C   0  0  2  0  0  0  0  0  0  0  0  0
  197.7155  181.5082  156.1478 N   0  0  2  0  0  0  0  0  0  0  0  0
  196.3469  181.1462  155.6934 C   0  0  2  0  0  0  0  0  0  0  0  0
  198.3108  180.3792  156.9071 C   0  0  2  0  0  0  0  0  0  0  0  0
  197.1364  184.0058  156.1579 C   0  0  1  0  0  0  0  0  0  0  0  0
  197.1557  185.3158  156.9404 C   0  0  0  0  0  0  0  0  0  0  0  0
  196.4212  185.4988  158.1398 C   0  0  0  0  0  0  0  0  0  0  0  0
  196.5410  186.7437  158.8221 C   0  0  0  0  0  0  0  0  0  0  0  0
  197.2919  187.7553  158.3359 N   0  0  0  0  0  0  0  0  0  0  0  0
  197.9747  187.6035  157.1797 C   0  0  0  0  0  0  0  0  0  0  0  0
  198.7778  188.7678  156.7349 C   0  0  0  0  0  0  0  0  0  0  0  0
  199.1664  188.9294  155.3843 C   0  0  0  0  0  0  0  0  0  0  0  0
  199.9487  190.0413  155.0153 C   0  0  0  0  0  0  0  0  0  0  0  0
  200.3533  190.9846  155.8857 N   0  0  0  0  0  0  0  0  0  0  0  0
  199.9879  190.8429  157.1730 C   0  0  0  0  0  0  0  0  0  0  0  0
  199.2132  189.7641  157.6429 C   0  0  0  0  0  0  0  0  0  0  0  0
  197.9289  186.3920  156.4577 C   0  0  0  0  0  0  0  0  0  0  0  0
  195.8536  186.9255  160.0405 C   0  0  0  0  0  0  0  0  0  0  0  0
  195.0563  185.9014  160.5812 C   0  0  0  0  0  0  0  0  0  0  0  0
  194.9227  184.6817  159.8928 C   0  0  0  0  0  0  0  0  0  0  0  0
  195.5804  184.4885  158.6638 C   0  0  0  0  0  0  0  0  0  0  0  0
  198.5451  183.3501  159.4634 H   0  0  0  0  0  0  0  0  0  0  0  0
  200.8034  183.8182  160.3457 H   0  0  0  0  0  0  0  0  0  0  0  0
  202.7549  183.8982  158.7965 H   0  0  0  0  0  0  0  0  0  0  0  0
  202.4271  183.5142  156.3595 H   0  0  0  0  0  0  0  0  0  0  0  0
  197.1904  182.6069  157.8103 H   0  0  0  0  0  0  0  0  0  0  0  0
  195.6421  181.1292  156.5223 H   0  0  0  0  0  0  0  0  0  0  0  0
  196.3426  180.1565  155.2386 H   0  0  0  0  0  0  0  0  0  0  0  0
  195.9700  181.8320  154.9381 H   0  0  0  0  0  0  0  0  0  0  0  0
  197.7515  180.2393  157.8279 H   0  0  0  0  0  0  0  0  0  0  0  0
  199.3599  180.5496  157.1593 H   0  0  0  0  0  0  0  0  0  0  0  0
  198.2666  179.4471  156.3468 H   0  0  0  0  0  0  0  0  0  0  0  0
  197.6517  184.1709  155.2113 H   0  0  0  0  0  0  0  0  0  0  0  0
  196.1047  183.8099  155.8804 H   0  0  0  0  0  0  0  0  0  0  0  0
  198.8678  188.2256  154.6220 H   0  0  0  0  0  0  0  0  0  0  0  0
  200.2502  190.1739  153.9863 H   0  0  0  0  0  0  0  0  0  0  0  0
  200.3262  191.6097  157.8558 H   0  0  0  0  0  0  0  0  0  0  0  0
  198.9638  189.7076  158.6920 H   0  0  0  0  0  0  0  0  0  0  0  0
  198.4885  186.2834  155.5438 H   0  0  0  0  0  0  0  0  0  0  0  0
  195.9348  187.8762  160.5523 H   0  0  0  0  0  0  0  0  0  0  0  0
  194.5312  186.0632  161.5094 H   0  0  0  0  0  0  0  0  0  0  0  0
  194.3063  183.8935  160.2962 H   0  0  0  0  0  0  0  0  0  0  0  0
  195.4097  183.5578  158.1375 H   0  0  0  0  0  0  0  0  0  0  0  0
  198.2814  181.6221  155.3164 H   0  0  0  0  0  0  0  0  0  0  0  0
  1  2  1  0
  2  3  1  0
  2  7  2  0
  3  4  2  0
  3  8  1  0
  4  5  1  0
  4 29  1  0
  5  6  2  0
  5 30  1  0
  6  7  1  0
  6 31  1  0
  7 32  1  0
  8  9  1  0
  8 12  1  0
  8 33  1  1
  9 10  1  0
  9 11  1  0
  9 51  1  6
 10 34  1  1
 10 35  1  0
 10 36  1  0
 11 37  1  1
 11 38  1  0
 11 39  1  0
 12 13  1  0
 12 40  1  6
 12 41  1  0
 13 14  1  0
 13 24  2  0
 14 15  1  0
 14 28  2  0
 15 16  1  0
 15 25  2  0
 16 17  2  0
 17 18  1  0
 17 24  1  0
 18 19  2  0
 18 23  1  0
 19 20  1  0
 19 42  1  0
 20 21  2  0
 20 43  1  0
 21 22  1  0
 22 23  2  0
 22 44  1  0
 23 45  1  0
 24 46  1  0
 25 26  1  0
 25 47  1  0
 26 27  2  0
 26 48  1  0
 27 28  1  0
 27 49  1  0
 28 50  1  0
M  CHG  1   9   1
M  END
>  <s_epik_cmdline>  (22) 
J2VwaWtfcHl0aG9uJywgJy1waCcsICc3LjAwMDAwMCcsICctcGh0JywgJzIuMDAwMDAwJywgJy1tcycsICcxNicsICctdG4nLCAnOCcsICctbWEnLCAnMjAwJywgJy1pbWFlJywgJzxpbmZpbGUubWFlPicsICctb21hZScsICc8b3V0ZmlsZS5tYWU+Jw==

>  <s_epik_input>  (22) 
W2NIXTFbY0hdW2NIXVtjSF1jKGMxQ2wpW0NASF0oTihbQ0gzXSlbQ0gzXSlbQ0gyXWMyW2NIXWMobmMoYzIzKVtjSF1bY0hdW2NIXVtjSF0zKS1jNFtjSF1bY0hdbltjSF1bY0hdNA==

>  <s_i_glide_gridfile>  (22) 
ATP-Grid

>  <s_lp_Force_Field>  (22) 
OPLS_2005

>  <s_lp_Variant>  (22) 
rxn112____EMOL628199____EMOL932560-1

>  <s_lp_label>  (22) 
2808_sdstereoexpander_1_neutralizer_1_epik_1_stereoizer_1

>  <s_m_source_file>  (22) 
ATP-VSW-LIGPREP-002-in.maegz

>  <s_sd_BIOSOLVEIT.INFINISEE\_QUERY\_NAME>  (22) 
Ref-Lig

>  <s_sd_BIOSOLVEIT.INFINISEE\_QUERY\_SMILES>  (22) 
S(c1nc2c(cc1C[NH2+]Cc3ccc(cc3)C[NH+](C)C)cccc2)Cc4ccccc4

>  <s_sd_BIOSOLVEIT.INFINISEE\_REACTION\_NAME>  (22) 
rxn112

>  <s_sd_BIOSOLVEIT.INFINISEE\_REAGENT1\_NAME>  (22) 
EMOL628199

>  <s_sd_BIOSOLVEIT.INFINISEE\_REAGENT1\_SMILES>  (22) 
O=C(O)c1c2c(nc(c3ccncc3)c1)cccc2

>  <s_sd_BIOSOLVEIT.INFINISEE\_REAGENT2\_NAME>  (22) 
EMOL932560

>  <s_sd_BIOSOLVEIT.INFINISEE\_REAGENT2\_SMILES>  (22) 
Clc1c(cccc1)C(N(C)C)CN

>  <s_sd_BIOSOLVEIT.INFINISEE\_SPACE>  (22) 
eXplore_7tr_2022-12

>  <s_vsw_compound_code>  (22) 
89826

>  <s_vsw_variant>  (22) 
89826-1

>  <r_epik_Charging_Adjusted_Penalty>  (22) 
0.22649181564472001

>  <r_epik_Ionization_Penalty>  (22) 
0.11799999999999999

>  <r_epik_Ionization_Penalty_Charging>  (22) 
0.1132

>  <r_epik_Ionization_Penalty_Neutral>  (22) 
0.0047999999999999996

>  <r_epik_State_Penalty>  (22) 
0.1133

>  <r_i_docking_score>  (22) 
-4.2758163753696596

>  <r_i_glide_ecoul>  (22) 
-5.9093046188354501

>  <r_i_glide_eff_state_penalty>  (22) 
0.1133

>  <r_i_glide_einternal>  (22) 
1.1094548702239999

>  <r_i_glide_emodel>  (22) 
-45.196695334305701

>  <r_i_glide_energy>  (22) 
-31.881838798522899

>  <r_i_glide_erotb>  (22) 
0.51539902673525395

>  <r_i_glide_esite>  (22) 
-0.044697413052178503

>  <r_i_glide_evdw>  (22) 
-25.9725341796875

>  <r_i_glide_gscore>  (22) 
-4.3891163753696603

>  <r_i_glide_hbond>  (22) 
0

>  <r_i_glide_ligand_efficiency>  (22) 
-0.15270772769177399

>  <r_i_glide_ligand_efficiency_ln>  (22) 
-0.98698396285930101

>  <r_i_glide_ligand_efficiency_sa>  (22) 
-0.46371060131397202

>  <r_i_glide_lipo>  (22) 
-1.6923789054248599

>  <r_i_glide_metal>  (22) 
-0

>  <r_i_glide_rewards>  (22) 
-0.98241668181818098

>  <r_lp_Energy>  (22) 
22.229125

>  <r_qp_ACxDN^.5/SA>  (22) 
0

>  <r_qp_CIQPlogS>  (22) 
-5.4939999999999998

>  <r_qp_EA(eV)>  (22) 
1.1240000000000001

>  <r_qp_FISA>  (22) 
37.280999999999999

>  <r_qp_FOSA>  (22) 
150.60599999999999

>  <r_qp_IP(eV)>  (22) 
8.9329999999999998

>  <r_qp_Jm>  (22) 
0.116447644559008

>  <r_qp_PISA>  (22) 
419.26900000000001

>  <r_qp_PSA>  (22) 
27.765000000000001

>  <r_qp_PercentHumanOralAbsorption>  (22) 
100

>  <r_qp_QPPCaco>  (22) 
1094.614

>  <r_qp_QPPMDCK>  (22) 
970.16399999999999

>  <r_qp_QPlogBB>  (22) 
0.41199999999999998

>  <r_qp_QPlogHERG>  (22) 
-6.6219999999999999

>  <r_qp_QPlogKhsa>  (22) 
0.72799999999999998

>  <r_qp_QPlogKp>  (22) 
-2.3119999999999998

>  <r_qp_QPlogPC16>  (22) 
12.992000000000001

>  <r_qp_QPlogPo/w>  (22) 
4.8780000000000001

>  <r_qp_QPlogPoct>  (22) 
17.036999999999999

>  <r_qp_QPlogPw>  (22) 
7.7190000000000003

>  <r_qp_QPlogS>  (22) 
-4.21

>  <r_qp_QPpolrz>  (22) 
43.250999999999998

>  <r_qp_SASA>  (22) 
644.79399999999998

>  <r_qp_SAamideO>  (22) 
0

>  <r_qp_SAfluorine>  (22) 
0

>  <r_qp_WPSA>  (22) 
37.637999999999998

>  <r_qp_accptHB>  (22) 
4.5

>  <r_qp_dip^2/V>  (22) 
0.012614

>  <r_qp_dipole>  (22) 
3.9140000000000001

>  <r_qp_donorHB>  (22) 
0

>  <r_qp_glob>  (22) 
0.8538538

>  <r_qp_mol_MW>  (22) 
387.911

>  <r_qp_volume>  (22) 
1214.673

>  <r_sd_BIOSOLVEIT.INFINISEE\_FTREES\_SIMILARITY>  (22) 
0.90600000000000003

>  <r_sd_BIOSOLVEIT.LOGP>  (22) 
4.3784999999999998

>  <r_sd_BIOSOLVEIT.MOLECULAR\_WEIGHT>  (22) 
388.92000000000002

>  <r_sd_BIOSOLVEIT.TPSA>  (22) 
30.219999999999999

>  <i_epik_Tot_Q>  (22) 
1

>  <i_epik_Tot_abs_Q>  (22) 
1

>  <i_f3d_flags>  (22) 
0

>  <i_i_glide_confnum>  (22) 
2

>  <i_i_glide_lignum>  (22) 
1361

>  <i_i_glide_posenum>  (22) 
5

>  <i_i_glide_rotatable_bonds>  (22) 
5

>  <i_lp_mmshare_version>  (22) 
65135

>  <i_m_ct_format>  (22) 
2

>  <i_m_source_file_index>  (22) 
2808

>  <i_qp_#NandO>  (22) 
3

>  <i_qp_#acid>  (22) 
0

>  <i_qp_#amide>  (22) 
0

>  <i_qp_#amidine>  (22) 
0

>  <i_qp_#amine>  (22) 
1

>  <i_qp_#in34>  (22) 
0

>  <i_qp_#in56>  (22) 
22

>  <i_qp_#metab>  (22) 
6

>  <i_qp_#nonHatm>  (22) 
28

>  <i_qp_#noncon>  (22) 
0

>  <i_qp_#ringatoms>  (22) 
22

>  <i_qp_#rotor>  (22) 
5

>  <i_qp_#rtvFG>  (22) 
0

>  <i_qp_#stars>  (22) 
0

>  <i_qp_CNS>  (22) 
1

>  <i_qp_HumanOralAbsorption>  (22) 
3

>  <i_qp_RuleOfFive>  (22) 
0

>  <i_qp_RuleOfThree>  (22) 
0

>  <i_sd_BIOSOLVEIT.INFINISEE\_RESULT\_RANK>  (22) 
64249

>  <i_sd_version>  (22) 
0

>  <b_lp_Chiralities_Consistent>  (22) 
1

>  <b_sd_chiral_flag>  (22) 
0

>  <canonical_id>  (22) 
ATP-HTVS-02AC8E798E60

>  <compound_code>  (22) 
89826

>  <title>  (22) 
rxn112____EMOL628199____EMOL932560

>  <variant>  (22) 
89826-1

>  <source_file>  (22) 
运行/运行/ATP-VSW/ATP-VSW-DOCK_HTVS_1-002_lib.maegz

>  <canonical_smiles>  (22) 
C[NH+](C)[C@H](Cc1cc(-c2ccncc2)nc2ccccc12)c1ccccc1Cl

>  <scaffold>  (22) 
c1ccc(CCc2cc(-c3ccncc3)nc3ccccc23)cc1

>  <molecular_formula>  (22) 
C24H23ClN3+

$$$$
ATP-HTVS-02BB8772E392
     RDKit          3D

 51 54  0  0  0  0  0  0  0  0999 V2000
  203.3743  182.5944  162.1665 F   0  0  0  0  0  0  0  0  0  0  0  0
  204.0880  182.5879  161.0427 C   0  0  1  0  0  0  0  0  0  0  0  0
  204.7403  183.7454  160.9496 F   0  0  0  0  0  0  0  0  0  0  0  0
  204.9611  181.6012  161.1709 F   0  0  0  0  0  0  0  0  0  0  0  0
  203.2530  182.3682  159.7822 C   0  0  0  0  0  0  0  0  0  0  0  0
  201.9522  182.8739  159.6896 C   0  0  0  0  0  0  0  0  0  0  0  0
  201.2093  182.6747  158.5114 C   0  0  0  0  0  0  0  0  0  0  0  0
  201.7486  181.9200  157.4318 C   0  0  0  0  0  0  0  0  0  0  0  0
  203.0497  181.4169  157.5291 C   0  0  0  0  0  0  0  0  0  0  0  0
  203.7975  181.6509  158.6936 C   0  0  0  0  0  0  0  0  0  0  0  0
  199.8067  183.1882  158.4001 C   0  0  1  0  0  0  0  0  0  0  0  0
  199.5986  184.5000  157.7677 N   0  0  0  0  0  0  0  0  0  0  0  0
  198.2283  184.7018  157.2543 C   0  0  2  0  0  0  0  0  0  0  0  0
  197.1815  185.0138  158.3415 C   0  0  0  0  0  0  0  0  0  0  0  0
  197.2241  186.2220  159.0837 C   0  0  0  0  0  0  0  0  0  0  0  0
  198.2466  187.1907  158.8887 N   0  0  0  0  0  0  0  0  0  0  0  0
  199.5457  186.9531  158.6471 C   0  0  0  0  0  0  0  0  0  0  0  0
  200.3593  187.8408  158.4497 O   0  0  0  0  0  0  0  0  0  0  0  0
  200.0293  185.5186  158.7381 C   0  0  1  0  0  0  0  0  0  0  0  0
  196.2027  186.4968  160.0186 C   0  0  0  0  0  0  0  0  0  0  0  0
  195.1642  185.5727  160.2405 C   0  0  0  0  0  0  0  0  0  0  0  0
  195.1269  184.3729  159.5316 C   0  0  0  0  0  0  0  0  0  0  0  0
  196.1163  184.1242  158.5926 C   0  0  0  0  0  0  0  0  0  0  0  0
  197.7820  183.5689  156.3412 C   0  0  0  0  0  0  0  0  0  0  0  0
  197.5523  183.7918  154.9577 C   0  0  0  0  0  0  0  0  0  0  0  0
  197.1502  182.7158  154.1671 C   0  0  0  0  0  0  0  0  0  0  0  0
  196.9911  181.4147  154.6840 C   0  0  0  0  0  0  0  0  0  0  0  0
  197.2234  181.1811  156.0582 C   0  0  0  0  0  0  0  0  0  0  0  0
  197.5533  182.2536  156.8336 C   0  0  0  0  0  0  0  0  0  0  0  0
  201.3713  183.6016  160.8874 C   0  0  2  0  0  0  0  0  0  0  0  0
  201.1738  181.7157  156.5332 H   0  0  0  0  0  0  0  0  0  0  0  0
  203.4770  180.8585  156.7134 H   0  0  0  0  0  0  0  0  0  0  0  0
  204.7954  181.2643  158.7582 H   0  0  0  0  0  0  0  0  0  0  0  0
  199.5860  182.4049  157.7103 H   0  0  0  0  0  0  0  0  0  0  0  0
  199.1883  183.0267  159.2865 H   0  0  0  0  0  0  0  0  0  0  0  0
  198.2848  185.5976  156.6243 H   0  0  0  0  0  0  0  0  0  0  0  0
  197.9860  188.1592  158.9763 H   0  0  0  0  0  0  0  0  0  0  0  0
  199.4975  185.3124  159.6669 H   0  0  0  0  0  0  0  0  0  0  0  0
  201.1171  185.4795  158.8619 H   0  0  0  0  0  0  0  0  0  0  0  0
  196.2109  187.4133  160.5828 H   0  0  0  0  0  0  0  0  0  0  0  0
  194.3840  185.7730  160.9502 H   0  0  0  0  0  0  0  0  0  0  0  0
  194.3473  183.6379  159.6639 H   0  0  0  0  0  0  0  0  0  0  0  0
  195.9501  183.2129  158.0727 H   0  0  0  0  0  0  0  0  0  0  0  0
  197.6730  184.7790  154.5483 H   0  0  0  0  0  0  0  0  0  0  0  0
  196.9472  182.8815  153.1172 H   0  0  0  0  0  0  0  0  0  0  0  0
  196.6841  180.5922  154.0898 H   0  0  0  0  0  0  0  0  0  0  0  0
  197.1360  180.2131  156.5211 H   0  0  0  0  0  0  0  0  0  0  0  0
  197.6468  182.0570  157.8988 H   0  0  0  0  0  0  0  0  0  0  0  0
  200.7138  184.3632  160.6450 H   0  0  0  0  0  0  0  0  0  0  0  0
  202.0764  184.2391  161.4085 H   0  0  0  0  0  0  0  0  0  0  0  0
  200.7594  182.9892  161.5214 H   0  0  0  0  0  0  0  0  0  0  0  0
  2  1  1  1
  2  3  1  0
  2  4  1  0
  2  5  1  0
  5  6  2  0
  5 10  1  0
  6  7  1  0
  6 30  1  0
  7  8  2  0
  7 11  1  0
  8  9  1  0
  8 31  1  0
  9 10  2  0
  9 32  1  0
 10 33  1  0
 11 12  1  0
 11 34  1  6
 11 35  1  0
 12 13  1  0
 12 19  1  0
 13 14  1  0
 13 24  1  0
 13 36  1  6
 14 15  1  0
 14 23  2  0
 15 16  1  0
 15 20  2  0
 16 17  1  0
 16 37  1  0
 17 18  2  0
 17 19  1  0
 19 38  1  1
 19 39  1  0
 20 21  1  0
 20 40  1  0
 21 22  2  0
 21 41  1  0
 22 23  1  0
 22 42  1  0
 23 43  1  0
 24 25  2  0
 24 29  1  0
 25 26  1  0
 25 44  1  0
 26 27  2  0
 26 45  1  0
 27 28  1  0
 27 46  1  0
 28 29  2  0
 28 47  1  0
 29 48  1  0
 30 49  1  6
 30 50  1  0
 30 51  1  0
M  END
>  <s_epik_cmdline>  (23) 
J2VwaWtfcHl0aG9uJywgJy1waCcsICc3LjAwMDAwMCcsICctcGh0JywgJzIuMDAwMDAwJywgJy1tcycsICcxNicsICctdG4nLCAnOCcsICctbWEnLCAnMjAwJywgJy1pbWFlJywgJzxpbmZpbGUubWFlPicsICctb21hZScsICc8b3V0ZmlsZS5tYWU+Jw==

>  <s_epik_input>  (23) 
W2NIXTFbY0hdW2NIXVtjSF1bY0hdYzFbQ0BASF0yTihbQ0gyXWMoYyhbQ0gzXSljM0MoRikoRilGKVtjSF1bY0hdW2NIXTMpW0NIMl1DKD1PKVtOSF1jKGMyNClbY0hdW2NIXVtjSF1bY0hdNA==

>  <s_i_glide_gridfile>  (23) 
ATP-Grid

>  <s_lp_Force_Field>  (23) 
OPLS_2005

>  <s_lp_Variant>  (23) 
m_270004bda____24170338____21415512-2

>  <s_lp_label>  (23) 
1703_sdstereoexpander_3_neutralizer_1_epik_1_stereoizer_1

>  <s_m_source_file>  (23) 
ATP-VSW-LIGPREP-002-in.maegz

>  <s_sd_BIOSOLVEIT.INFINISEE\_QUERY\_NAME>  (23) 
Ref-Lig

>  <s_sd_BIOSOLVEIT.INFINISEE\_QUERY\_SMILES>  (23) 
S(c1nc2c(cc1C[NH2+]Cc3ccc(cc3)C[NH+](C)C)cccc2)Cc4ccccc4

>  <s_sd_BIOSOLVEIT.INFINISEE\_REACTION\_NAME>  (23) 
m_270004bda

>  <s_sd_BIOSOLVEIT.INFINISEE\_REAGENT1\_SMILES>  (23) 
[R1*]N1C(c2c(NC(=O)C1)cccc2)c3ccccc3

>  <s_sd_BIOSOLVEIT.INFINISEE\_REAGENT2\_SMILES>  (23) 
[R1*]Cc1c(c(ccc1)C(F)(F)F)C

>  <s_sd_BIOSOLVEIT.INFINISEE\_SPACE>  (23) 
REALSpace_44bn_2023-08

>  <s_vsw_compound_code>  (23) 
54466

>  <s_vsw_variant>  (23) 
54466-2

>  <r_epik_Charging_Adjusted_Penalty>  (23) 
0.0087634984339075902

>  <r_epik_Ionization_Penalty>  (23) 
0.0088000000000000005

>  <r_epik_Ionization_Penalty_Charging>  (23) 
0

>  <r_epik_Ionization_Penalty_Neutral>  (23) 
0.0088000000000000005

>  <r_epik_State_Penalty>  (23) 
0.0088000000000000005

>  <r_i_docking_score>  (23) 
-1.6820507667212199

>  <r_i_glide_ecoul>  (23) 
-1.36896812915802

>  <r_i_glide_eff_state_penalty>  (23) 
0.0088000000000000005

>  <r_i_glide_einternal>  (23) 
4.5001306533813503

>  <r_i_glide_emodel>  (23) 
-31.516858061995201

>  <r_i_glide_energy>  (23) 
-30.512908101081798

>  <r_i_glide_erotb>  (23) 
0.35083999227868901

>  <r_i_glide_esite>  (23) 
0

>  <r_i_glide_evdw>  (23) 
-29.1439399719238

>  <r_i_glide_gscore>  (23) 
-1.69085076672122

>  <r_i_glide_hbond>  (23) 
0

>  <r_i_glide_ligand_efficiency>  (23) 
-0.056068358890707201

>  <r_i_glide_ligand_efficiency_ln>  (23) 
-0.38218026161007401

>  <r_i_glide_ligand_efficiency_sa>  (23) 
-0.174217427103177

>  <r_i_glide_lipo>  (23) 
-1.5369753050613899

>  <r_i_glide_metal>  (23) 
-0

>  <r_i_glide_rewards>  (23) 
1.15782676403138

>  <r_lp_Energy>  (23) 
56.655389999999997

>  <r_qp_ACxDN^.5/SA>  (23) 
0.0069698

>  <r_qp_CIQPlogS>  (23) 
-5.6660000000000004

>  <r_qp_EA(eV)>  (23) 
0.54000000000000004

>  <r_qp_FISA>  (23) 
58.351999999999997

>  <r_qp_FOSA>  (23) 
75.191999999999993

>  <r_qp_IP(eV)>  (23) 
9.5370000000000008

>  <r_qp_Jm>  (23) 
0.00189248122293243

>  <r_qp_PISA>  (23) 
406.94099999999997

>  <r_qp_PSA>  (23) 
39.387

>  <r_qp_PercentHumanOralAbsorption>  (23) 
100

>  <r_qp_QPPCaco>  (23) 
690.95600000000002

>  <r_qp_QPPMDCK>  (23) 
1382.7180000000001

>  <r_qp_QPlogBB>  (23) 
0.55200000000000005

>  <r_qp_QPlogHERG>  (23) 
-6.742

>  <r_qp_QPlogKhsa>  (23) 
0.91200000000000003

>  <r_qp_QPlogKp>  (23) 
-3.032

>  <r_qp_QPlogPC16>  (23) 
12.134

>  <r_qp_QPlogPo/w>  (23) 
4.8460000000000001

>  <r_qp_QPlogPoct>  (23) 
19.315999999999999

>  <r_qp_QPlogPw>  (23) 
9.9309999999999992

>  <r_qp_QPlogS>  (23) 
-5.3040000000000003

>  <r_qp_QPpolrz>  (23) 
44.213999999999999

>  <r_qp_SASA>  (23) 
645.63999999999999

>  <r_qp_SAamideO>  (23) 
0

>  <r_qp_SAfluorine>  (23) 
105.155

>  <r_qp_WPSA>  (23) 
105.155

>  <r_qp_accptHB>  (23) 
4.5

>  <r_qp_dip^2/V>  (23) 
0.013897100000000001

>  <r_qp_dipole>  (23) 
4.0730000000000004

>  <r_qp_donorHB>  (23) 
1

>  <r_qp_glob>  (23) 
0.84282000000000001

>  <r_qp_mol_MW>  (23) 
410.43799999999999

>  <r_qp_volume>  (23) 
1193.548

>  <r_sd_BIOSOLVEIT.INFINISEE\_FTREES\_SIMILARITY>  (23) 
0.90500000000000003

>  <r_sd_BIOSOLVEIT.LOGP>  (23) 
4.1404199999999998

>  <r_sd_BIOSOLVEIT.MOLECULAR\_WEIGHT>  (23) 
411.44499999999999

>  <r_sd_BIOSOLVEIT.TPSA>  (23) 
33.539999999999999

>  <i_epik_Tot_Q>  (23) 
0

>  <i_epik_Tot_abs_Q>  (23) 
0

>  <i_f3d_flags>  (23) 
0

>  <i_i_glide_confnum>  (23) 
2

>  <i_i_glide_lignum>  (23) 
591

>  <i_i_glide_posenum>  (23) 
7

>  <i_i_glide_rotatable_bonds>  (23) 
4

>  <i_lp_mmshare_version>  (23) 
65135

>  <i_m_ct_format>  (23) 
2

>  <i_m_source_file_index>  (23) 
1703

>  <i_qp_#NandO>  (23) 
3

>  <i_qp_#acid>  (23) 
0

>  <i_qp_#amide>  (23) 
0

>  <i_qp_#amidine>  (23) 
0

>  <i_qp_#amine>  (23) 
1

>  <i_qp_#in34>  (23) 
0

>  <i_qp_#in56>  (23) 
18

>  <i_qp_#metab>  (23) 
9

>  <i_qp_#nonHatm>  (23) 
30

>  <i_qp_#noncon>  (23) 
2

>  <i_qp_#ringatoms>  (23) 
23

>  <i_qp_#rotor>  (23) 
2

>  <i_qp_#rtvFG>  (23) 
0

>  <i_qp_#stars>  (23) 
1

>  <i_qp_CNS>  (23) 
2

>  <i_qp_HumanOralAbsorption>  (23) 
3

>  <i_qp_RuleOfFive>  (23) 
0

>  <i_qp_RuleOfThree>  (23) 
1

>  <i_sd_BIOSOLVEIT.INFINISEE\_REAGENT1\_NAME>  (23) 
24170338

>  <i_sd_BIOSOLVEIT.INFINISEE\_REAGENT2\_NAME>  (23) 
21415512

>  <i_sd_BIOSOLVEIT.INFINISEE\_RESULT\_RANK>  (23) 
71851

>  <i_sd_version>  (23) 
0

>  <b_lp_Chiralities_Consistent>  (23) 
1

>  <b_sd_chiral_flag>  (23) 
0

>  <canonical_id>  (23) 
ATP-HTVS-02BB8772E392

>  <compound_code>  (23) 
54466

>  <title>  (23) 
m_270004bda____24170338____21415512

>  <variant>  (23) 
54466-2

>  <source_file>  (23) 
运行/运行/ATP-VSW/ATP-VSW-DOCK_HTVS_1-002_lib.maegz

>  <canonical_smiles>  (23) 
Cc1c(CN2CC(=O)Nc3ccccc3[C@@H]2c2ccccc2)cccc1C(F)(F)F

>  <scaffold>  (23) 
O=C1CN(Cc2ccccc2)C(c2ccccc2)c2ccccc2N1

>  <molecular_formula>  (23) 
C24H21F3N2O

$$$$
ATP-HTVS-02DF9A19852D
     RDKit          3D

 66 70  0  0  0  0  0  0  0  0999 V2000
  198.2521  183.0848  159.3213 N   0  0  0  0  0  0  0  0  0  0  0  0
  198.9566  184.2705  159.1897 C   0  0  0  0  0  0  0  0  0  0  0  0
  198.0985  185.3353  158.8299 C   0  0  0  0  0  0  0  0  0  0  0  0
  196.8148  184.7616  158.7828 N   0  0  0  0  0  0  0  0  0  0  0  0
  197.0133  183.4234  158.9924 C   0  0  0  0  0  0  0  0  0  0  0  0
  195.9291  182.3680  158.8410 C   0  0  1  0  0  0  0  0  0  0  0  0
  196.0466  181.8462  157.4502 N   0  0  1  0  0  0  0  0  0  0  0  0
  197.3840  181.3672  157.0111 C   0  0  1  0  0  0  0  0  0  0  0  0
  197.3503  180.7765  155.6036 C   0  0  1  0  0  0  0  0  0  0  0  0
  196.9707  181.8332  154.5293 C   0  0  2  0  0  0  0  0  0  0  0  0
  196.7735  181.2063  153.1935 N   0  0  1  0  0  0  0  0  0  0  0  0
  196.4906  182.1403  152.0837 C   0  0  1  0  0  0  0  0  0  0  0  0
  196.6689  181.2804  150.8358 C   0  0  1  0  0  0  0  0  0  0  0  0
  197.5557  180.0918  151.2623 C   0  0  1  0  0  0  0  0  0  0  0  0
  197.8547  180.3113  152.7350 C   0  0  1  0  0  0  0  0  0  0  0  0
  197.9325  183.0273  154.4701 C   0  0  0  0  0  0  0  0  0  0  0  0
  197.4287  184.3508  154.4506 C   0  0  0  0  0  0  0  0  0  0  0  0
  198.3035  185.4517  154.2964 C   0  0  0  0  0  0  0  0  0  0  0  0
  199.6920  185.2330  154.1591 C   0  0  0  0  0  0  0  0  0  0  0  0
  200.2036  183.9231  154.2055 C   0  0  0  0  0  0  0  0  0  0  0  0
  199.3337  182.8296  154.4043 C   0  0  0  0  0  0  0  0  0  0  0  0
  195.5671  185.4729  158.5754 C   0  0  1  0  0  0  0  0  0  0  0  0
  195.1344  186.2389  159.8281 C   0  0  0  0  0  0  0  0  0  0  0  0
  194.0136  185.8231  160.5389 C   0  0  0  0  0  0  0  0  0  0  0  0
  193.5661  186.5726  161.6825 C   0  0  0  0  0  0  0  0  0  0  0  0
  194.2961  187.7148  162.0767 C   0  0  0  0  0  0  0  0  0  0  0  0
  195.4385  188.0969  161.3702 C   0  0  0  0  0  0  0  0  0  0  0  0
  195.8526  187.4077  160.2351 C   0  0  0  0  0  0  0  0  0  0  0  0
  198.6078  186.6467  158.6220 C   0  0  0  0  0  0  0  0  0  0  0  0
  199.9819  186.8923  158.8813 C   0  0  0  0  0  0  0  0  0  0  0  0
  200.8561  185.8301  159.1669 C   0  0  0  0  0  0  0  0  0  0  0  0
  200.3525  184.5098  159.2875 C   0  0  0  0  0  0  0  0  0  0  0  0
  195.4732  181.0046  157.4030 H   0  0  0  0  0  0  0  0  0  0  0  0
  196.0791  181.5585  159.5578 H   0  0  0  0  0  0  0  0  0  0  0  0
  194.9270  182.7650  159.0001 H   0  0  0  0  0  0  0  0  0  0  0  0
  198.1165  182.1741  156.9562 H   0  0  0  0  0  0  0  0  0  0  0  0
  197.7504  180.6114  157.7087 H   0  0  0  0  0  0  0  0  0  0  0  0
  198.3680  180.4165  155.4348 H   0  0  0  0  0  0  0  0  0  0  0  0
  196.7000  179.8949  155.5730 H   0  0  0  0  0  0  0  0  0  0  0  0
  195.9965  182.2375  154.8225 H   0  0  0  0  0  0  0  0  0  0  0  0
  195.5070  182.6145  152.1549 H   0  0  0  0  0  0  0  0  0  0  0  0
  197.2374  182.9344  152.0196 H   0  0  0  0  0  0  0  0  0  0  0  0
  195.7056  180.9154  150.4794 H   0  0  0  0  0  0  0  0  0  0  0  0
  197.1292  181.8837  150.0497 H   0  0  0  0  0  0  0  0  0  0  0  0
  197.0443  179.1405  151.0975 H   0  0  0  0  0  0  0  0  0  0  0  0
  198.5022  180.0781  150.7195 H   0  0  0  0  0  0  0  0  0  0  0  0
  198.8165  180.8323  152.7584 H   0  0  0  0  0  0  0  0  0  0  0  0
  197.9282  179.3765  153.3047 H   0  0  0  0  0  0  0  0  0  0  0  0
  196.3607  184.5340  154.4759 H   0  0  0  0  0  0  0  0  0  0  0  0
  197.9046  186.4594  154.2353 H   0  0  0  0  0  0  0  0  0  0  0  0
  200.3734  186.0691  154.0389 H   0  0  0  0  0  0  0  0  0  0  0  0
  201.2583  183.7320  154.0509 H   0  0  0  0  0  0  0  0  0  0  0  0
  199.7818  181.8487  154.4242 H   0  0  0  0  0  0  0  0  0  0  0  0
  195.6833  186.1860  157.7675 H   0  0  0  0  0  0  0  0  0  0  0  0
  194.7673  184.7892  158.2648 H   0  0  0  0  0  0  0  0  0  0  0  0
  193.4160  184.9581  160.2447 H   0  0  0  0  0  0  0  0  0  0  0  0
  192.6815  186.2811  162.2324 H   0  0  0  0  0  0  0  0  0  0  0  0
  193.9565  188.2937  162.9327 H   0  0  0  0  0  0  0  0  0  0  0  0
  195.9958  188.9821  161.6421 H   0  0  0  0  0  0  0  0  0  0  0  0
  196.6819  187.8233  159.6817 H   0  0  0  0  0  0  0  0  0  0  0  0
  198.0035  187.4768  158.2916 H   0  0  0  0  0  0  0  0  0  0  0  0
  200.3508  187.9100  158.8444 H   0  0  0  0  0  0  0  0  0  0  0  0
  201.9223  186.0229  159.2865 H   0  0  0  0  0  0  0  0  0  0  0  0
  201.0358  183.6781  159.4364 H   0  0  0  0  0  0  0  0  0  0  0  0
  195.9535  180.6337  153.3117 H   0  0  0  0  0  0  0  0  0  0  0  0
  195.6703  182.5183  156.7996 H   0  0  0  0  0  0  0  0  0  0  0  0
  1  2  1  0
  1  5  2  0
  2  3  1  0
  2 32  2  0
  3  4  1  0
  3 29  2  0
  4  5  1  0
  4 22  1  0
  5  6  1  0
  6  7  1  0
  6 34  1  1
  6 35  1  0
  7  8  1  0
  7 33  1  1
  7 66  1  0
  8  9  1  0
  8 36  1  6
  8 37  1  0
  9 10  1  0
  9 38  1  6
  9 39  1  0
 10 11  1  0
 10 16  1  0
 10 40  1  1
 11 12  1  0
 11 15  1  0
 11 65  1  1
 12 13  1  0
 12 41  1  1
 12 42  1  0
 13 14  1  0
 13 43  1  6
 13 44  1  0
 14 15  1  0
 14 45  1  1
 14 46  1  0
 15 47  1  6
 15 48  1  0
 16 17  2  0
 16 21  1  0
 17 18  1  0
 17 49  1  0
 18 19  2  0
 18 50  1  0
 19 20  1  0
 19 51  1  0
 20 21  2  0
 20 52  1  0
 21 53  1  0
 22 23  1  0
 22 54  1  6
 22 55  1  0
 23 24  2  0
 23 28  1  0
 24 25  1  0
 24 56  1  0
 25 26  2  0
 25 57  1  0
 26 27  1  0
 26 58  1  0
 27 28  2  0
 27 59  1  0
 28 60  1  0
 29 30  1  0
 29 61  1  0
 30 31  2  0
 30 62  1  0
 31 32  1  0
 31 63  1  0
 32 64  1  0
M  CHG  2   7   1  11   1
M  END
>  <s_epik_cmdline>  (24) 
J2VwaWtfcHl0aG9uJywgJy1waCcsICc3LjAwMDAwMCcsICctcGh0JywgJzIuMDAwMDAwJywgJy1tcycsICcxNicsICctdG4nLCAnOCcsICctbWEnLCAnMjAwJywgJy1pbWFlJywgJzxpbmZpbGUubWFlPicsICctb21hZScsICc8b3V0ZmlsZS5tYWU+Jw==

>  <s_epik_input>  (24) 
W2NIXTFbY0hdW2NIXVtjSF1bY0hdYzFbQ0gyXW4oYyhjMjMpW2NIXVtjSF1bY0hdW2NIXTMpYyhuMilbQ0gyXVtOSF1bQ0gyXVtDSDJdW0NASF0oTjRbQ0gyXVtDSDJdW0NIMl1bQ0gyXTQpYzVbY0hdW2NIXVtjSF1bY0hdW2NIXTU=

>  <s_i_glide_gridfile>  (24) 
ATP-Grid

>  <s_lp_Force_Field>  (24) 
OPLS_2005

>  <s_lp_Variant>  (24) 
m_270004bbb____23845970____24720860-2

>  <s_lp_label>  (24) 
1435_sdstereoexpander_2_neutralizer_1_epik_1_stereoizer_1

>  <s_m_source_file>  (24) 
ATP-VSW-LIGPREP-001-in.maegz

>  <s_sd_BIOSOLVEIT.INFINISEE\_QUERY\_NAME>  (24) 
Ref-Lig

>  <s_sd_BIOSOLVEIT.INFINISEE\_QUERY\_SMILES>  (24) 
S(c1nc2c(cc1C[NH2+]Cc3ccc(cc3)C[NH+](C)C)cccc2)Cc4ccccc4

>  <s_sd_BIOSOLVEIT.INFINISEE\_REACTION\_NAME>  (24) 
m_270004bbb

>  <s_sd_BIOSOLVEIT.INFINISEE\_REAGENT1\_SMILES>  (24) 
[R1*]NCCC(N1CCCC1)c2ccccc2

>  <s_sd_BIOSOLVEIT.INFINISEE\_REAGENT2\_SMILES>  (24) 
[R1*]CC1=Nc2c(N1Cc3ccccc3)cccc2

>  <s_sd_BIOSOLVEIT.INFINISEE\_SPACE>  (24) 
REALSpace_44bn_2023-08

>  <s_vsw_compound_code>  (24) 
45889

>  <s_vsw_variant>  (24) 
45889-2

>  <r_epik_Charging_Adjusted_Penalty>  (24) 
0.39918241673611099

>  <r_epik_Ionization_Penalty>  (24) 
0.19259999999999999

>  <r_epik_Ionization_Penalty_Charging>  (24) 
0.19189999999999999

>  <r_epik_Ionization_Penalty_Neutral>  (24) 
0.00069999999999999999

>  <r_epik_State_Penalty>  (24) 
0.20730000000000001

>  <r_i_docking_score>  (24) 
-4.9765778298694396

>  <r_i_glide_ecoul>  (24) 
-12.683834075927701

>  <r_i_glide_eff_state_penalty>  (24) 
0.20730000000000001

>  <r_i_glide_einternal>  (24) 
12.617139816284199

>  <r_i_glide_emodel>  (24) 
-56.343456349072703

>  <r_i_glide_energy>  (24) 
-40.298368453979499

>  <r_i_glide_erotb>  (24) 
0.98155264018513899

>  <r_i_glide_esite>  (24) 
-0.114984673221111

>  <r_i_glide_evdw>  (24) 
-27.6145343780518

>  <r_i_glide_gscore>  (24) 
-5.1838778298694397

>  <r_i_glide_hbond>  (24) 
-0.169821706027597

>  <r_i_glide_ligand_efficiency>  (24) 
-0.15551805718341999

>  <r_i_glide_ligand_efficiency_ln>  (24) 
-1.1143914324959201

>  <r_i_glide_ligand_efficiency_sa>  (24) 
-0.493739054575634

>  <r_i_glide_lipo>  (24) 
-1.3969909688770501

>  <r_i_glide_metal>  (24) 
-0

>  <r_i_glide_rewards>  (24) 
-1.2003312916370801

>  <r_lp_Energy>  (24) 
42.872503999999999

>  <r_qp_ACxDN^.5/SA>  (24) 
0.0077924999999999999

>  <r_qp_CIQPlogS>  (24) 
-5.0570000000000004

>  <r_qp_EA(eV)>  (24) 
0.26500000000000001

>  <r_qp_FISA>  (24) 
34.334000000000003

>  <r_qp_FOSA>  (24) 
262.03399999999999

>  <r_qp_IP(eV)>  (24) 
8.5440000000000005

>  <r_qp_Jm>  (24) 
0.15825760168466799

>  <r_qp_PISA>  (24) 
345.27800000000002

>  <r_qp_PSA>  (24) 
33.198

>  <r_qp_PercentHumanOralAbsorption>  (24) 
100

>  <r_qp_QPPCaco>  (24) 
291.14499999999998

>  <r_qp_QPPMDCK>  (24) 
159.542

>  <r_qp_QPlogBB>  (24) 
0.53400000000000003

>  <r_qp_QPlogHERG>  (24) 
-6.2759999999999998

>  <r_qp_QPlogKhsa>  (24) 
0.82899999999999996

>  <r_qp_QPlogKp>  (24) 
-4.1970000000000001

>  <r_qp_QPlogPC16>  (24) 
13.224

>  <r_qp_QPlogPo/w>  (24) 
4.5069999999999997

>  <r_qp_QPlogPoct>  (24) 
18.655000000000001

>  <r_qp_QPlogPw>  (24) 
8.25

>  <r_qp_QPlogS>  (24) 
-2.2320000000000002

>  <r_qp_QPpolrz>  (24) 
43.436999999999998

>  <r_qp_SASA>  (24) 
641.64599999999996

>  <r_qp_SAamideO>  (24) 
0

>  <r_qp_SAfluorine>  (24) 
0

>  <r_qp_WPSA>  (24) 
0

>  <r_qp_accptHB>  (24) 
5

>  <r_qp_dip^2/V>  (24) 
0.0185589

>  <r_qp_dipole>  (24) 
4.9139999999999997

>  <r_qp_donorHB>  (24) 
1

>  <r_qp_glob>  (24) 
0.89830699999999997

>  <r_qp_mol_MW>  (24) 
424.58800000000002

>  <r_qp_volume>  (24) 
1301.1659999999999

>  <r_sd_BIOSOLVEIT.INFINISEE\_FTREES\_SIMILARITY>  (24) 
0.90800000000000003

>  <r_sd_BIOSOLVEIT.LOGP>  (24) 
2.9581

>  <r_sd_BIOSOLVEIT.MOLECULAR\_WEIGHT>  (24) 
426.60500000000002

>  <r_sd_BIOSOLVEIT.TPSA>  (24) 
38.869999999999997

>  <i_epik_Tot_Q>  (24) 
2

>  <i_epik_Tot_abs_Q>  (24) 
2

>  <i_f3d_flags>  (24) 
0

>  <i_i_glide_confnum>  (24) 
13

>  <i_i_glide_lignum>  (24) 
376

>  <i_i_glide_posenum>  (24) 
19

>  <i_i_glide_rotatable_bonds>  (24) 
9

>  <i_lp_mmshare_version>  (24) 
65135

>  <i_m_ct_format>  (24) 
2

>  <i_m_source_file_index>  (24) 
1435

>  <i_qp_#NandO>  (24) 
4

>  <i_qp_#acid>  (24) 
0

>  <i_qp_#amide>  (24) 
0

>  <i_qp_#amidine>  (24) 
0

>  <i_qp_#amine>  (24) 
2

>  <i_qp_#in34>  (24) 
0

>  <i_qp_#in56>  (24) 
26

>  <i_qp_#metab>  (24) 
6

>  <i_qp_#nonHatm>  (24) 
32

>  <i_qp_#noncon>  (24) 
4

>  <i_qp_#ringatoms>  (24) 
26

>  <i_qp_#rotor>  (24) 
9

>  <i_qp_#rtvFG>  (24) 
0

>  <i_qp_#stars>  (24) 
0

>  <i_qp_CNS>  (24) 
2

>  <i_qp_HumanOralAbsorption>  (24) 
3

>  <i_qp_RuleOfFive>  (24) 
0

>  <i_qp_RuleOfThree>  (24) 
0

>  <i_sd_BIOSOLVEIT.INFINISEE\_REAGENT1\_NAME>  (24) 
23845970

>  <i_sd_BIOSOLVEIT.INFINISEE\_REAGENT2\_NAME>  (24) 
24720860

>  <i_sd_BIOSOLVEIT.INFINISEE\_RESULT\_RANK>  (24) 
55068

>  <i_sd_version>  (24) 
0

>  <b_lp_Chiralities_Consistent>  (24) 
1

>  <b_sd_chiral_flag>  (24) 
0

>  <canonical_id>  (24) 
ATP-HTVS-02DF9A19852D

>  <compound_code>  (24) 
45889

>  <title>  (24) 
m_270004bbb____23845970____24720860

>  <variant>  (24) 
45889-2

>  <source_file>  (24) 
运行/运行/ATP-VSW/ATP-VSW-DOCK_HTVS_1-001_lib/ATP-VSW-DOCK_HTVS_1-001_lib

>  <canonical_smiles>  (24) 
c1ccc(Cn2c(C[NH2+]CC[C@@H](c3ccccc3)[NH+]3CCCC3)nc3ccccc32)cc1

>  <scaffold>  (24) 
c1ccc(Cn2c(C[NH2+]CCC(c3ccccc3)[NH+]3CCCC3)nc3ccccc32)cc1

>  <molecular_formula>  (24) 
C28H34N4+2

$$$$
ATP-HTVS-0362648F57EF
     RDKit          3D

 56 58  0  0  0  0  0  0  0  0999 V2000
  198.8253  186.3073  156.2394 Cl  0  0  0  0  0  0  0  0  0  0  0  0
  197.7967  186.2743  157.6228 C   0  0  0  0  0  0  0  0  0  0  0  0
  197.9728  187.1719  158.7006 C   0  0  0  0  0  0  0  0  0  0  0  0
  197.1455  187.0633  159.8370 C   0  0  0  0  0  0  0  0  0  0  0  0
  196.1601  186.0609  159.9011 C   0  0  0  0  0  0  0  0  0  0  0  0
  195.9999  185.1469  158.8321 C   0  0  0  0  0  0  0  0  0  0  0  0
  195.0243  184.0984  158.9134 N   0  0  0  0  0  0  0  0  0  0  0  0
  195.2001  182.7942  158.5533 C   0  0  0  0  0  0  0  0  0  0  0  0
  194.4096  181.9089  158.8962 O   0  0  0  0  0  0  0  0  0  0  0  0
  196.3345  182.3985  157.6900 C   0  0  0  0  0  0  0  0  0  0  0  0
  197.9476  182.8075  158.2399 S   0  0  0  0  0  0  0  0  0  0  0  0
  198.6405  182.2243  156.7634 C   0  0  0  0  0  0  0  0  0  0  0  0
  200.3124  182.4576  156.4607 Cl  0  0  0  0  0  0  0  0  0  0  0  0
  197.7132  181.6400  155.9442 C   0  0  0  0  0  0  0  0  0  0  0  0
  198.0068  181.0275  154.7041 N   0  0  0  0  0  0  0  0  0  0  0  0
  197.0194  180.2776  153.9325 C   0  0  1  0  0  0  0  0  0  0  0  0
  197.5429  179.6744  152.6341 C   0  0  0  0  0  0  0  0  0  0  0  0
  198.8124  179.0570  152.5759 C   0  0  0  0  0  0  0  0  0  0  0  0
  199.2783  178.5111  151.3644 C   0  0  0  0  0  0  0  0  0  0  0  0
  198.4777  178.5667  150.2036 C   0  0  0  0  0  0  0  0  0  0  0  0
  197.2100  179.1796  150.2629 C   0  0  0  0  0  0  0  0  0  0  0  0
  196.7441  179.7283  151.4724 C   0  0  0  0  0  0  0  0  0  0  0  0
  198.9767  177.9723  148.8960 C   0  0  1  0  0  0  0  0  0  0  0  0
  198.5175  176.5750  148.6915 N   0  0  1  0  0  0  0  0  0  0  0  0
  198.8425  176.0781  147.3356 C   0  0  2  0  0  0  0  0  0  0  0  0
  198.9896  175.6550  149.7444 C   0  0  2  0  0  0  0  0  0  0  0  0
  196.3913  181.7464  156.4858 C   0  0  0  0  0  0  0  0  0  0  0  0
  193.7362  184.4559  159.5159 C   0  0  2  0  0  0  0  0  0  0  0  0
  196.7706  185.3275  157.6586 C   0  0  0  0  0  0  0  0  0  0  0  0
  199.0746  188.2083  158.6554 C   0  0  2  0  0  0  0  0  0  0  0  0
  197.2807  187.7371  160.6718 H   0  0  0  0  0  0  0  0  0  0  0  0
  195.5816  185.9696  160.8105 H   0  0  0  0  0  0  0  0  0  0  0  0
  198.9764  180.7900  154.5384 H   0  0  0  0  0  0  0  0  0  0  0  0
  196.6010  179.4762  154.5457 H   0  0  0  0  0  0  0  0  0  0  0  0
  196.2022  180.9606  153.6978 H   0  0  0  0  0  0  0  0  0  0  0  0
  199.4319  178.9905  153.4593 H   0  0  0  0  0  0  0  0  0  0  0  0
  200.2487  178.0378  151.3345 H   0  0  0  0  0  0  0  0  0  0  0  0
  196.5880  179.2310  149.3833 H   0  0  0  0  0  0  0  0  0  0  0  0
  195.7701  180.1936  151.5105 H   0  0  0  0  0  0  0  0  0  0  0  0
  198.6143  178.5958  148.0763 H   0  0  0  0  0  0  0  0  0  0  0  0
  200.0667  178.0178  148.8564 H   0  0  0  0  0  0  0  0  0  0  0  0
  199.9217  176.0325  147.1812 H   0  0  0  0  0  0  0  0  0  0  0  0
  198.4166  176.7285  146.5706 H   0  0  0  0  0  0  0  0  0  0  0  0
  198.4364  175.0770  147.1846 H   0  0  0  0  0  0  0  0  0  0  0  0
  200.0744  175.5953  149.7738 H   0  0  0  0  0  0  0  0  0  0  0  0
  198.6084  174.6590  149.5509 H   0  0  0  0  0  0  0  0  0  0  0  0
  198.6215  175.9273  150.7285 H   0  0  0  0  0  0  0  0  0  0  0  0
  195.5210  181.3818  155.9803 H   0  0  0  0  0  0  0  0  0  0  0  0
  193.6138  183.9060  160.4497 H   0  0  0  0  0  0  0  0  0  0  0  0
  192.8796  184.1749  158.8978 H   0  0  0  0  0  0  0  0  0  0  0  0
  193.6439  185.5157  159.7606 H   0  0  0  0  0  0  0  0  0  0  0  0
  196.6388  184.6569  156.8089 H   0  0  0  0  0  0  0  0  0  0  0  0
  199.0709  188.8268  159.5535 H   0  0  0  0  0  0  0  0  0  0  0  0
  198.9137  188.8506  157.7907 H   0  0  0  0  0  0  0  0  0  0  0  0
  200.0585  187.7385  158.5606 H   0  0  0  0  0  0  0  0  0  0  0  0
  197.5086  176.5940  148.7463 H   0  0  0  0  0  0  0  0  0  0  0  0
  1  2  1  0
  2  3  2  0
  2 29  1  0
  3  4  1  0
  3 30  1  0
  4  5  2  0
  4 31  1  0
  5  6  1  0
  5 32  1  0
  6  7  1  0
  6 29  2  0
  7  8  1  0
  7 28  1  0
  8  9  2  0
  8 10  1  0
 10 11  1  0
 10 27  2  0
 11 12  1  0
 12 13  1  0
 12 14  2  0
 14 15  1  0
 14 27  1  0
 15 16  1  0
 15 33  1  0
 16 17  1  0
 16 34  1  1
 16 35  1  0
 17 18  1  0
 17 22  2  0
 18 19  2  0
 18 36  1  0
 19 20  1  0
 19 37  1  0
 20 21  2  0
 20 23  1  0
 21 22  1  0
 21 38  1  0
 22 39  1  0
 23 24  1  0
 23 40  1  6
 23 41  1  0
 24 25  1  0
 24 26  1  0
 24 56  1  6
 25 42  1  6
 25 43  1  0
 25 44  1  0
 26 45  1  1
 26 46  1  0
 26 47  1  0
 27 48  1  0
 28 49  1  1
 28 50  1  0
 28 51  1  0
 29 52  1  0
 30 53  1  1
 30 54  1  0
 30 55  1  0
M  CHG  1  24   1
M  END
>  <s_epik_cmdline>  (25) 
J2VwaWtfcHl0aG9uJywgJy1waCcsICc3LjAwMDAwMCcsICctcGh0JywgJzIuMDAwMDAwJywgJy1tcycsICcxNicsICctdG4nLCAnOCcsICctbWEnLCAnMjAwJywgJy1pbWFlJywgJzxpbmZpbGUubWFlPicsICctb21hZScsICc8b3V0ZmlsZS5tYWU+Jw==

>  <s_epik_input>  (25) 
Q2xjMWMoW0NIM10pW2NIXVtjSF1jKFtjSF0xKU4oW0NIM10pQyg9TyljMnNjKENsKWMoW2NIXTIpW05IXVtDSDJdYzNbY0hdW2NIXWMoW2NIXVtjSF0zKVtDSDJdTihbQ0gzXSlbQ0gzXQ==

>  <s_i_glide_gridfile>  (25) 
ATP-Grid

>  <s_lp_Force_Field>  (25) 
OPLS_2005

>  <s_lp_Variant>  (25) 
rxn512b____EMOL31531197____EMOL44846536____EMOL50155899-1

>  <s_lp_label>  (25) 
2462_sdstereoexpander_1_neutralizer_1_epik_1_stereoizer_1

>  <s_m_source_file>  (25) 
ATP-VSW-LIGPREP-003-in.maegz

>  <s_sd_BIOSOLVEIT.INFINISEE\_QUERY\_NAME>  (25) 
Ref-Lig

>  <s_sd_BIOSOLVEIT.INFINISEE\_QUERY\_SMILES>  (25) 
S(c1nc2c(cc1C[NH2+]Cc3ccc(cc3)C[NH+](C)C)cccc2)Cc4ccccc4

>  <s_sd_BIOSOLVEIT.INFINISEE\_REACTION\_NAME>  (25) 
rxn512b

>  <s_sd_BIOSOLVEIT.INFINISEE\_REAGENT1\_NAME>  (25) 
EMOL31531197

>  <s_sd_BIOSOLVEIT.INFINISEE\_REAGENT1\_SMILES>  (25) 
Clc1c(ccc(NC)c1)C

>  <s_sd_BIOSOLVEIT.INFINISEE\_REAGENT2\_NAME>  (25) 
EMOL44846536

>  <s_sd_BIOSOLVEIT.INFINISEE\_REAGENT2\_SMILES>  (25) 
BrC1=C(Cl)SC(C(=O)O)=C1

>  <s_sd_BIOSOLVEIT.INFINISEE\_REAGENT3\_NAME>  (25) 
EMOL50155899

>  <s_sd_BIOSOLVEIT.INFINISEE\_REAGENT3\_SMILES>  (25) 
N(Cc1ccc(cc1)CN)(C)C

>  <s_sd_BIOSOLVEIT.INFINISEE\_SPACE>  (25) 
eXplore_7tr_2022-12

>  <s_vsw_compound_code>  (25) 
78755

>  <s_vsw_variant>  (25) 
78755-1

>  <r_epik_Charging_Adjusted_Penalty>  (25) 
0.080189274810459593

>  <r_epik_Ionization_Penalty>  (25) 
0.0402

>  <r_epik_Ionization_Penalty_Charging>  (25) 
0.040099999999999997

>  <r_epik_Ionization_Penalty_Neutral>  (25) 
0.0001

>  <r_epik_State_Penalty>  (25) 
0.040099999999999997

>  <r_i_docking_score>  (25) 
-3.9432546805688702

>  <r_i_glide_ecoul>  (25) 
-4.2658510208129901

>  <r_i_glide_eff_state_penalty>  (25) 
0.040099999999999997

>  <r_i_glide_einternal>  (25) 
5.5339555740356401

>  <r_i_glide_emodel>  (25) 
-48.7928910151211

>  <r_i_glide_energy>  (25) 
-39.549927711486802

>  <r_i_glide_erotb>  (25) 
0.65677567333271103

>  <r_i_glide_esite>  (25) 
-0.062703385506832895

>  <r_i_glide_evdw>  (25) 
-35.2840766906738

>  <r_i_glide_gscore>  (25) 
-3.98335468056887

>  <r_i_glide_hbond>  (25) 
0

>  <r_i_glide_ligand_efficiency>  (25) 
-0.13144182268562901

>  <r_i_glide_ligand_efficiency_ln>  (25) 
-0.89595042862623397

>  <r_i_glide_ligand_efficiency_sa>  (25) 
-0.40842030362756998

>  <r_i_glide_lipo>  (25) 
-1.67281521490628

>  <r_i_glide_metal>  (25) 
-0

>  <r_i_glide_rewards>  (25) 
-0.500530265832829

>  <r_lp_Energy>  (25) 
33.809325000000001

>  <r_lp_tautomer_probability>  (25) 
0.99999274205267796

>  <r_qp_ACxDN^.5/SA>  (25) 
0.0084434000000000002

>  <r_qp_CIQPlogS>  (25) 
-5.1459999999999999

>  <r_qp_EA(eV)>  (25) 
0.70899999999999996

>  <r_qp_FISA>  (25) 
54.310000000000002

>  <r_qp_FOSA>  (25) 
353.16500000000002

>  <r_qp_IP(eV)>  (25) 
8.2759999999999998

>  <r_qp_Jm>  (25) 
0.000116321320214954

>  <r_qp_PISA>  (25) 
139.69999999999999

>  <r_qp_PSA>  (25) 
46.003

>  <r_qp_PercentHumanOralAbsorption>  (25) 
94.557000000000002

>  <r_qp_QPPCaco>  (25) 
188.22499999999999

>  <r_qp_QPPMDCK>  (25) 
782.41899999999998

>  <r_qp_QPlogBB>  (25) 
0.81399999999999995

>  <r_qp_QPlogHERG>  (25) 
-6.399

>  <r_qp_QPlogKhsa>  (25) 
0.80800000000000005

>  <r_qp_QPlogKp>  (25) 
-5.4809999999999999

>  <r_qp_QPlogPC16>  (25) 
13.451000000000001

>  <r_qp_QPlogPo/w>  (25) 
4.5940000000000003

>  <r_qp_QPlogPoct>  (25) 
20.361000000000001

>  <r_qp_QPlogPw>  (25) 
8.6370000000000005

>  <r_qp_QPlogS>  (25) 
-4.1180000000000003

>  <r_qp_QPpolrz>  (25) 
44.600000000000001

>  <r_qp_SASA>  (25) 
710.61300000000006

>  <r_qp_SAamideO>  (25) 
0

>  <r_qp_SAfluorine>  (25) 
0

>  <r_qp_WPSA>  (25) 
163.43899999999999

>  <r_qp_accptHB>  (25) 
6

>  <r_qp_dip^2/V>  (25) 
0.044728200000000003

>  <r_qp_dipole>  (25) 
7.7629999999999999

>  <r_qp_donorHB>  (25) 
1

>  <r_qp_glob>  (25) 
0.83013820000000005

>  <r_qp_mol_MW>  (25) 
462.43599999999998

>  <r_qp_volume>  (25) 
1347.1869999999999

>  <r_sd_BIOSOLVEIT.INFINISEE\_FTREES\_SIMILARITY>  (25) 
0.91600000000000004

>  <r_sd_BIOSOLVEIT.LOGP>  (25) 
4.8965199999999998

>  <r_sd_BIOSOLVEIT.MOLECULAR\_WEIGHT>  (25) 
463.44900000000001

>  <r_sd_BIOSOLVEIT.TPSA>  (25) 
36.780000000000001

>  <i_epik_Tot_Q>  (25) 
1

>  <i_epik_Tot_abs_Q>  (25) 
1

>  <i_f3d_flags>  (25) 
0

>  <i_i_glide_confnum>  (25) 
3

>  <i_i_glide_lignum>  (25) 
1057

>  <i_i_glide_posenum>  (25) 
2

>  <i_i_glide_rotatable_bonds>  (25) 
8

>  <i_lp_mmshare_version>  (25) 
65135

>  <i_m_ct_format>  (25) 
2

>  <i_m_source_file_index>  (25) 
2462

>  <i_qp_#NandO>  (25) 
4

>  <i_qp_#acid>  (25) 
0

>  <i_qp_#amide>  (25) 
0

>  <i_qp_#amidine>  (25) 
0

>  <i_qp_#amine>  (25) 
2

>  <i_qp_#in34>  (25) 
0

>  <i_qp_#in56>  (25) 
17

>  <i_qp_#metab>  (25) 
6

>  <i_qp_#nonHatm>  (25) 
30

>  <i_qp_#noncon>  (25) 
0

>  <i_qp_#ringatoms>  (25) 
17

>  <i_qp_#rotor>  (25) 
7

>  <i_qp_#rtvFG>  (25) 
0

>  <i_qp_#stars>  (25) 
0

>  <i_qp_CNS>  (25) 
2

>  <i_qp_HumanOralAbsorption>  (25) 
3

>  <i_qp_RuleOfFive>  (25) 
0

>  <i_qp_RuleOfThree>  (25) 
0

>  <i_sd_BIOSOLVEIT.INFINISEE\_RESULT\_RANK>  (25) 
26983

>  <i_sd_version>  (25) 
0

>  <b_lp_Chiralities_Consistent>  (25) 
1

>  <b_sd_chiral_flag>  (25) 
0

>  <canonical_id>  (25) 
ATP-HTVS-0362648F57EF

>  <compound_code>  (25) 
78755

>  <title>  (25) 
rxn512b____EMOL31531197____EMOL44846536____EMOL50155899

>  <variant>  (25) 
78755-1

>  <source_file>  (25) 
运行/运行/ATP-VSW/ATP-VSW-DOCK_HTVS_1-003_lib/ATP-VSW-DOCK_HTVS_1-003_lib.mae

>  <canonical_smiles>  (25) 
Cc1ccc(N(C)C(=O)c2cc(NCc3ccc(C[NH+](C)C)cc3)c(Cl)s2)cc1Cl

>  <scaffold>  (25) 
O=C(Nc1ccccc1)c1cc(NCc2ccccc2)cs1

>  <molecular_formula>  (25) 
C23H26Cl2N3OS+

$$$$
ATP-HTVS-03C3664644A2
     RDKit          3D

 58 61  0  0  0  0  0  0  0  0999 V2000
  201.2197  182.2067  156.5079 S   0  0  0  0  0  0  0  0  0  0  0  0
  201.7411  182.2285  158.1811 C   0  0  0  0  0  0  0  0  0  0  0  0
  200.8492  183.0141  158.9812 C   0  0  0  0  0  0  0  0  0  0  0  0
  201.1450  183.0629  160.3664 C   0  0  0  0  0  0  0  0  0  0  0  0
  202.2631  182.4382  160.9290 C   0  0  0  0  0  0  0  0  0  0  0  0
  203.1176  181.6790  160.1175 C   0  0  0  0  0  0  0  0  0  0  0  0
  202.8512  181.5696  158.7423 C   0  0  0  0  0  0  0  0  0  0  0  0
  199.7839  183.6169  158.1883 C   0  0  0  0  0  0  0  0  0  0  0  0
  198.8406  184.4854  158.8123 N   0  0  0  0  0  0  0  0  0  0  0  0
  197.4819  184.2069  159.0379 C   0  0  0  0  0  0  0  0  0  0  0  0
  197.0165  182.8227  159.0246 C   0  0  0  0  0  0  0  0  0  0  0  0
  195.6317  182.5368  159.0425 C   0  0  0  0  0  0  0  0  0  0  0  0
  194.6998  183.5411  159.2438 C   0  0  0  0  0  0  0  0  0  0  0  0
  195.1476  184.8609  159.3597 C   0  0  0  0  0  0  0  0  0  0  0  0
  196.5142  185.1827  159.2344 C   0  0  0  0  0  0  0  0  0  0  0  0
  199.2535  185.8693  159.1141 C   0  0  2  0  0  0  0  0  0  0  0  0
  199.1346  186.7736  157.9533 C   0  0  0  0  0  0  0  0  0  0  0  0
  199.0434  187.4822  157.0462 N   0  0  0  0  0  0  0  0  0  0  0  0
  200.6553  186.0255  159.7423 C   0  0  2  0  0  0  0  0  0  0  0  0
  199.8184  183.1875  156.8747 C   0  0  0  0  0  0  0  0  0  0  0  0
  198.8488  183.4744  155.7544 C   0  0  1  0  0  0  0  0  0  0  0  0
  197.9917  182.3037  155.3812 N   0  0  0  0  0  0  0  0  0  0  0  0
  198.2971  181.4387  154.3722 C   0  0  0  0  0  0  0  0  0  0  0  0
  199.3295  181.5647  153.6823 O   0  0  0  0  0  0  0  0  0  0  0  0
  197.2985  180.2873  154.1096 C   0  0  1  0  0  0  0  0  0  0  0  0
  197.3173  179.8463  152.6739 C   0  0  0  0  0  0  0  0  0  0  0  0
  196.3289  180.3043  151.7820 C   0  0  0  0  0  0  0  0  0  0  0  0
  196.3441  179.8877  150.4396 C   0  0  0  0  0  0  0  0  0  0  0  0
  197.3578  179.0163  149.9903 C   0  0  0  0  0  0  0  0  0  0  0  0
  197.3792  178.6081  148.6888 O   0  0  0  0  0  0  0  0  0  0  0  0
  198.3438  178.5551  150.8855 C   0  0  0  0  0  0  0  0  0  0  0  0
  198.3217  178.9703  152.2270 C   0  0  0  0  0  0  0  0  0  0  0  0
  196.7885  182.1073  156.1275 C   0  0  2  0  0  0  0  0  0  0  0  0
  200.4780  183.5942  161.0308 H   0  0  0  0  0  0  0  0  0  0  0  0
  202.4465  182.5309  161.9951 H   0  0  0  0  0  0  0  0  0  0  0  0
  203.9630  181.1706  160.5567 H   0  0  0  0  0  0  0  0  0  0  0  0
  203.4921  180.9746  158.1148 H   0  0  0  0  0  0  0  0  0  0  0  0
  197.6906  182.0349  158.7553 H   0  0  0  0  0  0  0  0  0  0  0  0
  195.3086  181.5217  158.8162 H   0  0  0  0  0  0  0  0  0  0  0  0
  193.6559  183.3197  159.2818 H   0  0  0  0  0  0  0  0  0  0  0  0
  194.4343  185.6723  159.5742 H   0  0  0  0  0  0  0  0  0  0  0  0
  196.7641  186.2233  159.2733 H   0  0  0  0  0  0  0  0  0  0  0  0
  198.6182  186.2757  159.9001 H   0  0  0  0  0  0  0  0  0  0  0  0
  200.8624  187.0686  159.9866 H   0  0  0  0  0  0  0  0  0  0  0  0
  201.4416  185.6671  159.0667 H   0  0  0  0  0  0  0  0  0  0  0  0
  200.7215  185.5216  160.6933 H   0  0  0  0  0  0  0  0  0  0  0  0
  198.2218  184.3271  156.0540 H   0  0  0  0  0  0  0  0  0  0  0  0
  199.3825  183.8257  154.8874 H   0  0  0  0  0  0  0  0  0  0  0  0
  197.5284  179.4596  154.7806 H   0  0  0  0  0  0  0  0  0  0  0  0
  196.2635  180.5698  154.3190 H   0  0  0  0  0  0  0  0  0  0  0  0
  195.5501  180.9740  152.1226 H   0  0  0  0  0  0  0  0  0  0  0  0
  195.5877  180.2369  149.7602 H   0  0  0  0  0  0  0  0  0  0  0  0
  196.7057  179.0048  148.1596 H   0  0  0  0  0  0  0  0  0  0  0  0
  199.1175  177.8844  150.5466 H   0  0  0  0  0  0  0  0  0  0  0  0
  199.0769  178.6190  152.9154 H   0  0  0  0  0  0  0  0  0  0  0  0
  196.5698  181.0809  156.4408 H   0  0  0  0  0  0  0  0  0  0  0  0
  195.9000  182.6048  155.6545 H   0  0  0  0  0  0  0  0  0  0  0  0
  196.9397  182.7062  156.9137 H   0  0  0  0  0  0  0  0  0  0  0  0
  1  2  1  0
  1 20  1  0
  2  3  1  0
  2  7  2  0
  3  4  2  0
  3  8  1  0
  4  5  1  0
  4 34  1  0
  5  6  2  0
  5 35  1  0
  6  7  1  0
  6 36  1  0
  7 37  1  0
  8  9  1  0
  8 20  2  0
  9 10  1  0
  9 16  1  0
 10 11  2  0
 10 15  1  0
 11 12  1  0
 11 38  1  0
 12 13  2  0
 12 39  1  0
 13 14  1  0
 13 40  1  0
 14 15  2  0
 14 41  1  0
 15 42  1  0
 16 17  1  0
 16 19  1  0
 16 43  1  1
 17 18  3  0
 19 44  1  1
 19 45  1  0
 19 46  1  0
 20 21  1  0
 21 22  1  0
 21 47  1  1
 21 48  1  0
 22 23  1  0
 22 33  1  0
 23 24  2  0
 23 25  1  0
 25 26  1  0
 25 49  1  1
 25 50  1  0
 26 27  1  0
 26 32  2  0
 27 28  2  0
 27 51  1  0
 28 29  1  0
 28 52  1  0
 29 30  1  0
 29 31  2  0
 30 53  1  0
 31 32  1  0
 31 54  1  0
 32 55  1  0
 33 56  1  1
 33 57  1  0
 33 58  1  0
M  END
>  <s_epik_cmdline>  (26) 
J2VwaWtfcHl0aG9uJywgJy1waCcsICc3LjAwMDAwMCcsICctcGh0JywgJzIuMDAwMDAwJywgJy1tcycsICcxNicsICctdG4nLCAnOCcsICctbWEnLCAnMjAwJywgJy1pbWFlJywgJzxpbmZpbGUubWFlPicsICctb21hZScsICc8b3V0ZmlsZS5tYWU+Jw==

>  <s_epik_input>  (26) 
W2NIXTFbY0hdW2NIXVtjSF1bY0hdYzFOKFtDQEhdKEMjTilbQ0gzXSljKGMoYzIzKVtjSF1bY0hdW2NIXVtjSF0zKWMoczIpW0NIMl1OKFtDSDNdKUMoPU8pW0NIMl1jNFtjSF1bY0hdYyhbT0hdKVtjSF1bY0hdNA==

>  <s_i_glide_gridfile>  (26) 
ATP-Grid

>  <s_lp_Force_Field>  (26) 
OPLS_2005

>  <s_lp_Variant>  (26) 
rxn502c____EMOL521529____EMOL49259969____EMOL36790511-2

>  <s_lp_label>  (26) 
3079_sdstereoexpander_2_neutralizer_1_epik_1_stereoizer_1

>  <s_m_source_file>  (26) 
ATP-VSW-LIGPREP-001-in.maegz

>  <s_sd_BIOSOLVEIT.INFINISEE\_QUERY\_NAME>  (26) 
Ref-Lig

>  <s_sd_BIOSOLVEIT.INFINISEE\_QUERY\_SMILES>  (26) 
S(c1nc2c(cc1C[NH2+]Cc3ccc(cc3)C[NH+](C)C)cccc2)Cc4ccccc4

>  <s_sd_BIOSOLVEIT.INFINISEE\_REACTION\_NAME>  (26) 
rxn502c

>  <s_sd_BIOSOLVEIT.INFINISEE\_REAGENT1\_NAME>  (26) 
EMOL521529

>  <s_sd_BIOSOLVEIT.INFINISEE\_REAGENT1\_SMILES>  (26) 
O=C(O)Cc1ccc(O)cc1

>  <s_sd_BIOSOLVEIT.INFINISEE\_REAGENT2\_NAME>  (26) 
EMOL49259969

>  <s_sd_BIOSOLVEIT.INFINISEE\_REAGENT2\_SMILES>  (26) 
ClC=1c2c(SC1CNC)cccc2

>  <s_sd_BIOSOLVEIT.INFINISEE\_REAGENT3\_NAME>  (26) 
EMOL36790511

>  <s_sd_BIOSOLVEIT.INFINISEE\_REAGENT3\_SMILES>  (26) 
N#CC(Nc1ccccc1)C

>  <s_sd_BIOSOLVEIT.INFINISEE\_SPACE>  (26) 
eXplore_7tr_2022-12

>  <s_vsw_compound_code>  (26) 
98497

>  <s_vsw_variant>  (26) 
98497-2

>  <r_epik_Charging_Adjusted_Penalty>  (26) 
0.00109295718357387

>  <r_epik_Ionization_Penalty>  (26) 
0.0011000000000000001

>  <r_epik_Ionization_Penalty_Charging>  (26) 
0

>  <r_epik_Ionization_Penalty_Neutral>  (26) 
0.0011000000000000001

>  <r_epik_State_Penalty>  (26) 
0.0011000000000000001

>  <r_i_docking_score>  (26) 
-4.15070282757494

>  <r_i_glide_ecoul>  (26) 
-2.8738963603973402

>  <r_i_glide_eff_state_penalty>  (26) 
0.0011000000000000001

>  <r_i_glide_einternal>  (26) 
3.6478443145752002

>  <r_i_glide_emodel>  (26) 
-48.038259212932999

>  <r_i_glide_energy>  (26) 
-39.196207761764498

>  <r_i_glide_erotb>  (26) 
0.67758881754316602

>  <r_i_glide_esite>  (26) 
-0.0205251311703048

>  <r_i_glide_evdw>  (26) 
-36.322311401367202

>  <r_i_glide_gscore>  (26) 
-4.1518028275749401

>  <r_i_glide_hbond>  (26) 
0

>  <r_i_glide_ligand_efficiency>  (26) 
-0.12577887356287701

>  <r_i_glide_ligand_efficiency_ln>  (26) 
-0.92309481766360901

>  <r_i_glide_ligand_efficiency_sa>  (26) 
-0.40344005447092202

>  <r_i_glide_lipo>  (26) 
-2.2465130800645201

>  <r_i_glide_metal>  (26) 
-0

>  <r_i_glide_rewards>  (26) 
-0.31515340975531703

>  <r_lp_Energy>  (26) 
31.039857999999999

>  <r_lp_tautomer_probability>  (26) 
0.999999999997365

>  <r_qp_ACxDN^.5/SA>  (26) 
0.0084343000000000005

>  <r_qp_CIQPlogS>  (26) 
-7.8019999999999996

>  <r_qp_EA(eV)>  (26) 
1.1439999999999999

>  <r_qp_FISA>  (26) 
113.85299999999999

>  <r_qp_FOSA>  (26) 
150.96600000000001

>  <r_qp_IP(eV)>  (26) 
8.6210000000000004

>  <r_qp_Jm>  (26) 
0.030128953724953

>  <r_qp_PISA>  (26) 
386.55799999999999

>  <r_qp_PSA>  (26) 
71.113

>  <r_qp_PercentHumanOralAbsorption>  (26) 
100

>  <r_qp_QPPCaco>  (26) 
643.94899999999996

>  <r_qp_QPPMDCK>  (26) 
589.01599999999996

>  <r_qp_QPlogBB>  (26) 
-0.93100000000000005

>  <r_qp_QPlogHERG>  (26) 
-4.266

>  <r_qp_QPlogKhsa>  (26) 
0.432

>  <r_qp_QPlogKp>  (26) 
-1.3919999999999999

>  <r_qp_QPlogPC16>  (26) 
14.539999999999999

>  <r_qp_QPlogPo/w>  (26) 
4.4329999999999998

>  <r_qp_QPlogPoct>  (26) 
20.707999999999998

>  <r_qp_QPlogPw>  (26) 
10.914999999999999

>  <r_qp_QPlogS>  (26) 
-5.7880000000000003

>  <r_qp_QPpolrz>  (26) 
45.183

>  <r_qp_SASA>  (26) 
681.73800000000006

>  <r_qp_SAamideO>  (26) 
13.49

>  <r_qp_SAfluorine>  (26) 
0

>  <r_qp_WPSA>  (26) 
30.361000000000001

>  <r_qp_accptHB>  (26) 
5.75

>  <r_qp_dip^2/V>  (26) 
0.058729099999999999

>  <r_qp_dipole>  (26) 
8.8539999999999992

>  <r_qp_donorHB>  (26) 
1

>  <r_qp_glob>  (26) 
0.86004639999999999

>  <r_qp_mol_MW>  (26) 
455.57299999999998

>  <r_qp_volume>  (26) 
1334.9390000000001

>  <r_sd_BIOSOLVEIT.INFINISEE\_FTREES\_SIMILARITY>  (26) 
0.90100000000000002

>  <r_sd_BIOSOLVEIT.LOGP>  (26) 
5.8581799999999999

>  <r_sd_BIOSOLVEIT.MOLECULAR\_WEIGHT>  (26) 
455.57900000000001

>  <r_sd_BIOSOLVEIT.TPSA>  (26) 
67.569999999999993

>  <i_epik_Tot_Q>  (26) 
0

>  <i_epik_Tot_abs_Q>  (26) 
0

>  <i_f3d_flags>  (26) 
0

>  <i_i_glide_confnum>  (26) 
7

>  <i_i_glide_lignum>  (26) 
51

>  <i_i_glide_posenum>  (26) 
14

>  <i_i_glide_rotatable_bonds>  (26) 
9

>  <i_lp_mmshare_version>  (26) 
65135

>  <i_m_ct_format>  (26) 
2

>  <i_m_source_file_index>  (26) 
3079

>  <i_qp_#NandO>  (26) 
5

>  <i_qp_#acid>  (26) 
0

>  <i_qp_#amide>  (26) 
1

>  <i_qp_#amidine>  (26) 
0

>  <i_qp_#amine>  (26) 
0

>  <i_qp_#in34>  (26) 
0

>  <i_qp_#in56>  (26) 
21

>  <i_qp_#metab>  (26) 
7

>  <i_qp_#nonHatm>  (26) 
33

>  <i_qp_#noncon>  (26) 
0

>  <i_qp_#ringatoms>  (26) 
21

>  <i_qp_#rotor>  (26) 
9

>  <i_qp_#rtvFG>  (26) 
0

>  <i_qp_#stars>  (26) 
0

>  <i_qp_CNS>  (26) 
-1

>  <i_qp_HumanOralAbsorption>  (26) 
3

>  <i_qp_RuleOfFive>  (26) 
0

>  <i_qp_RuleOfThree>  (26) 
2

>  <i_sd_BIOSOLVEIT.INFINISEE\_RESULT\_RANK>  (26) 
94206

>  <i_sd_version>  (26) 
0

>  <b_lp_Chiralities_Consistent>  (26) 
1

>  <b_sd_chiral_flag>  (26) 
0

>  <canonical_id>  (26) 
ATP-HTVS-03C3664644A2

>  <compound_code>  (26) 
98497

>  <title>  (26) 
rxn502c____EMOL521529____EMOL49259969____EMOL36790511

>  <variant>  (26) 
98497-2

>  <source_file>  (26) 
运行/运行/ATP-VSW/ATP-VSW-DOCK_HTVS_1-002_lib.maegz

>  <canonical_smiles>  (26) 
C[C@@H](C#N)N(c1ccccc1)c1c(CN(C)C(=O)Cc2ccc(O)cc2)sc2ccccc12

>  <scaffold>  (26) 
O=C(Cc1ccccc1)NCc1sc2ccccc2c1Nc1ccccc1

>  <molecular_formula>  (26) 
C27H25N3O2S

$$$$
ATP-HTVS-03F3A1A9B60E
     RDKit          3D

 55 57  0  0  0  0  0  0  0  0999 V2000
  198.7163  181.1410  148.6467 S   0  0  0  0  0  0  0  0  0  0  0  0
  198.2454  182.0574  150.0659 C   0  0  0  0  0  0  0  0  0  0  0  0
  197.2843  183.1941  149.9086 C   0  0  0  0  0  0  0  0  0  0  0  0
  196.2472  183.1669  150.5765 O   0  0  0  0  0  0  0  0  0  0  0  0
  197.5856  184.2532  149.1044 N   0  0  0  0  0  0  0  0  0  0  0  0
  198.6944  184.2980  148.2006 C   0  0  0  0  0  0  0  0  0  0  0  0
  198.4861  184.4910  146.8056 C   0  0  0  0  0  0  0  0  0  0  0  0
  197.2075  184.6421  146.2633 N   0  0  0  0  0  0  0  0  0  0  0  0
  199.5922  184.4952  145.9332 C   0  0  0  0  0  0  0  0  0  0  0  0
  200.8934  184.2977  146.4276 C   0  0  0  0  0  0  0  0  0  0  0  0
  201.1041  184.1172  147.8048 C   0  0  0  0  0  0  0  0  0  0  0  0
  200.0029  184.1429  148.6970 C   0  0  0  0  0  0  0  0  0  0  0  0
  196.7409  185.4361  149.1954 C   0  0  2  0  0  0  0  0  0  0  0  0
  198.8293  181.5322  151.1993 C   0  0  0  0  0  0  0  0  0  0  0  0
  198.6136  181.9962  152.5163 N   0  0  0  0  0  0  0  0  0  0  0  0
  199.0286  181.2535  153.6985 C   0  0  1  0  0  0  0  0  0  0  0  0
  198.4606  181.7898  155.0006 C   0  0  0  0  0  0  0  0  0  0  0  0
  198.0638  180.8914  156.0097 C   0  0  0  0  0  0  0  0  0  0  0  0
  197.5496  181.3731  157.2303 C   0  0  0  0  0  0  0  0  0  0  0  0
  197.4202  182.7618  157.4495 C   0  0  0  0  0  0  0  0  0  0  0  0
  197.8200  183.6624  156.4440 C   0  0  0  0  0  0  0  0  0  0  0  0
  198.3437  183.1792  155.2279 C   0  0  0  0  0  0  0  0  0  0  0  0
  196.8683  183.2646  158.7697 C   0  0  1  0  0  0  0  0  0  0  0  0
  195.3862  183.3530  158.7596 N   0  0  1  0  0  0  0  0  0  0  0  0
  194.7133  182.0334  158.7911 C   0  0  2  0  0  0  0  0  0  0  0  0
  194.8899  184.2498  159.8286 C   0  0  2  0  0  0  0  0  0  0  0  0
  199.7494  180.4762  150.9149 C   0  0  0  0  0  0  0  0  0  0  0  0
  199.8424  180.1861  149.5828 C   0  0  0  0  0  0  0  0  0  0  0  0
  197.0596  184.6500  145.2621 H   0  0  0  0  0  0  0  0  0  0  0  0
  196.3788  184.5666  146.8330 H   0  0  0  0  0  0  0  0  0  0  0  0
  199.4431  184.6019  144.8703 H   0  0  0  0  0  0  0  0  0  0  0  0
  201.7309  184.2486  145.7455 H   0  0  0  0  0  0  0  0  0  0  0  0
  202.0945  183.9301  148.1880 H   0  0  0  0  0  0  0  0  0  0  0  0
  200.1940  184.0172  149.7524 H   0  0  0  0  0  0  0  0  0  0  0  0
  197.0731  186.2348  148.5234 H   0  0  0  0  0  0  0  0  0  0  0  0
  196.7761  185.8541  150.1953 H   0  0  0  0  0  0  0  0  0  0  0  0
  195.7081  185.2121  148.9311 H   0  0  0  0  0  0  0  0  0  0  0  0
  197.9666  182.7593  152.6651 H   0  0  0  0  0  0  0  0  0  0  0  0
  198.7422  180.2066  153.5877 H   0  0  0  0  0  0  0  0  0  0  0  0
  200.1156  181.2808  153.7646 H   0  0  0  0  0  0  0  0  0  0  0  0
  198.1458  179.8204  155.8736 H   0  0  0  0  0  0  0  0  0  0  0  0
  197.2595  180.6682  157.9876 H   0  0  0  0  0  0  0  0  0  0  0  0
  197.7368  184.7291  156.5985 H   0  0  0  0  0  0  0  0  0  0  0  0
  198.6562  183.8818  154.4715 H   0  0  0  0  0  0  0  0  0  0  0  0
  197.2100  182.6339  159.5929 H   0  0  0  0  0  0  0  0  0  0  0  0
  197.2961  184.2523  158.9511 H   0  0  0  0  0  0  0  0  0  0  0  0
  194.9899  181.4677  159.6833 H   0  0  0  0  0  0  0  0  0  0  0  0
  194.9656  181.4375  157.9155 H   0  0  0  0  0  0  0  0  0  0  0  0
  193.6286  182.1518  158.7820 H   0  0  0  0  0  0  0  0  0  0  0  0
  195.1659  183.8548  160.8060 H   0  0  0  0  0  0  0  0  0  0  0  0
  193.8048  184.3500  159.7880 H   0  0  0  0  0  0  0  0  0  0  0  0
  195.3163  185.2495  159.7414 H   0  0  0  0  0  0  0  0  0  0  0  0
  200.3340  179.9910  151.6794 H   0  0  0  0  0  0  0  0  0  0  0  0
  200.4978  179.4843  149.0898 H   0  0  0  0  0  0  0  0  0  0  0  0
  195.1289  183.7727  157.8767 H   0  0  0  0  0  0  0  0  0  0  0  0
  1  2  1  0
  1 28  1  0
  2  3  1  0
  2 14  2  0
  3  4  2  0
  3  5  1  0
  5  6  1  0
  5 13  1  0
  6  7  1  0
  6 12  2  0
  7  8  1  0
  7  9  2  0
  8 29  1  0
  8 30  1  0
  9 10  1  0
  9 31  1  0
 10 11  2  0
 10 32  1  0
 11 12  1  0
 11 33  1  0
 12 34  1  0
 13 35  1  6
 13 36  1  0
 13 37  1  0
 14 15  1  0
 14 27  1  0
 15 16  1  0
 15 38  1  0
 16 17  1  0
 16 39  1  6
 16 40  1  0
 17 18  1  0
 17 22  2  0
 18 19  2  0
 18 41  1  0
 19 20  1  0
 19 42  1  0
 20 21  2  0
 20 23  1  0
 21 22  1  0
 21 43  1  0
 22 44  1  0
 23 24  1  0
 23 45  1  1
 23 46  1  0
 24 25  1  0
 24 26  1  0
 24 55  1  6
 25 47  1  1
 25 48  1  0
 25 49  1  0
 26 50  1  1
 26 51  1  0
 26 52  1  0
 27 28  2  0
 27 53  1  0
 28 54  1  0
M  CHG  1  24   1
M  END
>  <s_epik_cmdline>  (27) 
J2VwaWtfcHl0aG9uJywgJy1waCcsICc3LjAwMDAwMCcsICctcGh0JywgJzIuMDAwMDAwJywgJy1tcycsICcxNicsICctdG4nLCAnOCcsICctbWEnLCAnMjAwJywgJy1pbWFlJywgJzxpbmZpbGUubWFlPicsICctb21hZScsICc8b3V0ZmlsZS5tYWU+Jw==

>  <s_epik_input>  (27) 
W2NIXTFbY0hdW2NIXVtjSF1jKFtOSDJdKWMxTihbQ0gzXSlDKD1PKWMyc1tjSF1bY0hdYzJbTkhdW0NIMl1jM1tjSF1bY0hdYyhbY0hdW2NIXTMpW0NIMl1OKFtDSDNdKVtDSDNd

>  <s_i_glide_gridfile>  (27) 
ATP-Grid

>  <s_lp_Force_Field>  (27) 
OPLS_2005

>  <s_lp_Variant>  (27) 
rxn512b____EMOL2735375____EMOL525138____EMOL50155899-1

>  <s_lp_label>  (27) 
2419_sdstereoexpander_1_neutralizer_1_epik_1_stereoizer_1

>  <s_m_source_file>  (27) 
ATP-VSW-LIGPREP-002-in.maegz

>  <s_sd_BIOSOLVEIT.INFINISEE\_QUERY\_NAME>  (27) 
Ref-Lig

>  <s_sd_BIOSOLVEIT.INFINISEE\_QUERY\_SMILES>  (27) 
S(c1nc2c(cc1C[NH2+]Cc3ccc(cc3)C[NH+](C)C)cccc2)Cc4ccccc4

>  <s_sd_BIOSOLVEIT.INFINISEE\_REACTION\_NAME>  (27) 
rxn512b

>  <s_sd_BIOSOLVEIT.INFINISEE\_REAGENT1\_NAME>  (27) 
EMOL2735375

>  <s_sd_BIOSOLVEIT.INFINISEE\_REAGENT1\_SMILES>  (27) 
N(c1c(N)cccc1)C

>  <s_sd_BIOSOLVEIT.INFINISEE\_REAGENT2\_NAME>  (27) 
EMOL525138

>  <s_sd_BIOSOLVEIT.INFINISEE\_REAGENT2\_SMILES>  (27) 
BrC1=C(SC=C1)C(=O)O

>  <s_sd_BIOSOLVEIT.INFINISEE\_REAGENT3\_NAME>  (27) 
EMOL50155899

>  <s_sd_BIOSOLVEIT.INFINISEE\_REAGENT3\_SMILES>  (27) 
N(Cc1ccc(cc1)CN)(C)C

>  <s_sd_BIOSOLVEIT.INFINISEE\_SPACE>  (27) 
eXplore_7tr_2022-12

>  <s_vsw_compound_code>  (27) 
77378

>  <s_vsw_variant>  (27) 
77378-1

>  <r_epik_Charging_Adjusted_Penalty>  (27) 
0.080189274810459593

>  <r_epik_Ionization_Penalty>  (27) 
0.040599999999999997

>  <r_epik_Ionization_Penalty_Charging>  (27) 
0.040099999999999997

>  <r_epik_Ionization_Penalty_Neutral>  (27) 
0.00050000000000000001

>  <r_epik_State_Penalty>  (27) 
0.040099999999999997

>  <r_i_docking_score>  (27) 
-2.87454592440143

>  <r_i_glide_ecoul>  (27) 
-4.2120037078857404

>  <r_i_glide_eff_state_penalty>  (27) 
0.040099999999999997

>  <r_i_glide_einternal>  (27) 
2.4864592552185099

>  <r_i_glide_emodel>  (27) 
-37.972199769057802

>  <r_i_glide_energy>  (27) 
-31.0163459777832

>  <r_i_glide_erotb>  (27) 
0.87496582302105297

>  <r_i_glide_esite>  (27) 
0

>  <r_i_glide_evdw>  (27) 
-26.8043422698975

>  <r_i_glide_gscore>  (27) 
-2.91464592440142

>  <r_i_glide_hbond>  (27) 
-0.035166189946862901

>  <r_i_glide_ligand_efficiency>  (27) 
-0.102662354442908

>  <r_i_glide_ligand_efficiency_ln>  (27) 
-0.66352959968761305

>  <r_i_glide_ligand_efficiency_sa>  (27) 
-0.311743372981861

>  <r_i_glide_lipo>  (27) 
-0.67386579079876696

>  <r_i_glide_metal>  (27) 
-0

>  <r_i_glide_rewards>  (27) 
-1.1085620969991099

>  <r_lp_Energy>  (27) 
41.299455000000002

>  <r_lp_tautomer_probability>  (27) 
0.99999274205267796

>  <r_qp_ACxDN^.5/SA>  (27) 
0.0099903000000000006

>  <r_qp_CIQPlogS>  (27) 
-3.7389999999999999

>  <r_qp_EA(eV)>  (27) 
0.20699999999999999

>  <r_qp_FISA>  (27) 
83.25

>  <r_qp_FOSA>  (27) 
281.959

>  <r_qp_IP(eV)>  (27) 
8.0440000000000005

>  <r_qp_Jm>  (27) 
0.00038980592555105898

>  <r_qp_PISA>  (27) 
341.21899999999999

>  <r_qp_PSA>  (27) 
68.358000000000004

>  <r_qp_PercentHumanOralAbsorption>  (27) 
85.034000000000006

>  <r_qp_QPPCaco>  (27) 
100.054

>  <r_qp_QPPMDCK>  (27) 
72.623999999999995

>  <r_qp_QPlogBB>  (27) 
0.056000000000000001

>  <r_qp_QPlogHERG>  (27) 
-8.0429999999999993

>  <r_qp_QPlogKhsa>  (27) 
0.63800000000000001

>  <r_qp_QPlogKp>  (27) 
-5.2089999999999996

>  <r_qp_QPlogPC16>  (27) 
14.029999999999999

>  <r_qp_QPlogPo/w>  (27) 
3.8069999999999999

>  <r_qp_QPlogPoct>  (27) 
20.106999999999999

>  <r_qp_QPlogPw>  (27) 
10.728999999999999

>  <r_qp_QPlogS>  (27) 
-3.7959999999999998

>  <r_qp_QPpolrz>  (27) 
44.473999999999997

>  <r_qp_SASA>  (27) 
735.56200000000001

>  <r_qp_SAamideO>  (27) 
0

>  <r_qp_SAfluorine>  (27) 
0

>  <r_qp_WPSA>  (27) 
29.134

>  <r_qp_accptHB>  (27) 
6

>  <r_qp_dip^2/V>  (27) 
0.0076940999999999997

>  <r_qp_dipole>  (27) 
3.177

>  <r_qp_donorHB>  (27) 
1.5

>  <r_qp_glob>  (27) 
0.78795970000000004

>  <r_qp_mol_MW>  (27) 
394.53399999999999

>  <r_qp_volume>  (27) 
1312.01

>  <r_sd_BIOSOLVEIT.INFINISEE\_FTREES\_SIMILARITY>  (27) 
0.91700000000000004

>  <r_sd_BIOSOLVEIT.LOGP>  (27) 
2.8635000000000002

>  <r_sd_BIOSOLVEIT.MOLECULAR\_WEIGHT>  (27) 
395.54700000000003

>  <r_sd_BIOSOLVEIT.TPSA>  (27) 
62.799999999999997

>  <i_epik_Tot_Q>  (27) 
1

>  <i_epik_Tot_abs_Q>  (27) 
1

>  <i_f3d_flags>  (27) 
0

>  <i_i_glide_confnum>  (27) 
9

>  <i_i_glide_lignum>  (27) 
1029

>  <i_i_glide_posenum>  (27) 
3

>  <i_i_glide_rotatable_bonds>  (27) 
8

>  <i_lp_mmshare_version>  (27) 
65135

>  <i_m_ct_format>  (27) 
2

>  <i_m_source_file_index>  (27) 
2419

>  <i_qp_#NandO>  (27) 
5

>  <i_qp_#acid>  (27) 
0

>  <i_qp_#amide>  (27) 
0

>  <i_qp_#amidine>  (27) 
0

>  <i_qp_#amine>  (27) 
2

>  <i_qp_#in34>  (27) 
0

>  <i_qp_#in56>  (27) 
17

>  <i_qp_#metab>  (27) 
8

>  <i_qp_#nonHatm>  (27) 
28

>  <i_qp_#noncon>  (27) 
0

>  <i_qp_#ringatoms>  (27) 
17

>  <i_qp_#rotor>  (27) 
8

>  <i_qp_#rtvFG>  (27) 
0

>  <i_qp_#stars>  (27) 
0

>  <i_qp_CNS>  (27) 
1

>  <i_qp_HumanOralAbsorption>  (27) 
3

>  <i_qp_RuleOfFive>  (27) 
0

>  <i_qp_RuleOfThree>  (27) 
1

>  <i_sd_BIOSOLVEIT.INFINISEE\_RESULT\_RANK>  (27) 
22318

>  <i_sd_version>  (27) 
0

>  <b_lp_Chiralities_Consistent>  (27) 
1

>  <b_sd_chiral_flag>  (27) 
0

>  <canonical_id>  (27) 
ATP-HTVS-03F3A1A9B60E

>  <compound_code>  (27) 
77378

>  <title>  (27) 
rxn512b____EMOL2735375____EMOL525138____EMOL50155899

>  <variant>  (27) 
77378-1

>  <source_file>  (27) 
运行/运行/ATP-VSW/ATP-VSW-DOCK_HTVS_1-002_lib.maegz

>  <canonical_smiles>  (27) 
CN(C(=O)c1sccc1NCc1ccc(C[NH+](C)C)cc1)c1ccccc1N

>  <scaffold>  (27) 
O=C(Nc1ccccc1)c1sccc1NCc1ccccc1

>  <molecular_formula>  (27) 
C22H27N4OS+

$$$$
ATP-HTVS-0438281B0112
     RDKit          3D

 50 53  0  0  0  0  0  0  0  0999 V2000
  196.8447  182.6480  157.7191 N   0  0  0  0  0  0  0  0  0  0  0  0
  198.1864  182.7978  157.6920 C   0  0  0  0  0  0  0  0  0  0  0  0
  198.9335  181.9986  156.8112 N   0  0  0  0  0  0  0  0  0  0  0  0
  198.4953  181.2574  155.7012 C   0  0  0  0  0  0  0  0  0  0  0  0
  199.1773  180.0667  155.3191 C   0  0  0  0  0  0  0  0  0  0  0  0
  198.7730  179.3977  154.1402 C   0  0  0  0  0  0  0  0  0  0  0  0
  197.6770  179.8517  153.3833 C   0  0  0  0  0  0  0  0  0  0  0  0
  196.9983  181.0191  153.7711 C   0  0  0  0  0  0  0  0  0  0  0  0
  197.4182  181.7235  154.9088 C   0  0  0  0  0  0  0  0  0  0  0  0
  200.3366  179.4808  156.1396 C   0  0  1  0  0  0  0  0  0  0  0  0
  199.9510  178.3190  156.9896 N   0  0  1  0  0  0  0  0  0  0  0  0
  199.4459  177.1496  156.2406 C   0  0  2  0  0  0  0  0  0  0  0  0
  201.0305  177.9256  157.9215 C   0  0  2  0  0  0  0  0  0  0  0  0
  198.8352  183.7393  158.5281 C   0  0  0  0  0  0  0  0  0  0  0  0
  198.1196  184.5539  159.3369 N   0  0  0  0  0  0  0  0  0  0  0  0
  196.7727  184.4268  159.3437 C   0  0  0  0  0  0  0  0  0  0  0  0
  196.1231  183.4572  158.5274 C   0  0  0  0  0  0  0  0  0  0  0  0
  194.7184  183.3682  158.5346 C   0  0  0  0  0  0  0  0  0  0  0  0
  193.9498  184.2303  159.3362 C   0  0  0  0  0  0  0  0  0  0  0  0
  194.5902  185.1965  160.1325 C   0  0  0  0  0  0  0  0  0  0  0  0
  195.9931  185.2876  160.1394 C   0  0  0  0  0  0  0  0  0  0  0  0
  200.2990  183.9285  158.5785 C   0  0  0  0  0  0  0  0  0  0  0  0
  201.1757  182.8350  158.7683 C   0  0  0  0  0  0  0  0  0  0  0  0
  202.5718  183.0194  158.7822 C   0  0  0  0  0  0  0  0  0  0  0  0
  203.1125  184.3083  158.6217 C   0  0  0  0  0  0  0  0  0  0  0  0
  202.2519  185.4085  158.4471 C   0  0  0  0  0  0  0  0  0  0  0  0
  200.8568  185.2179  158.4262 C   0  0  0  0  0  0  0  0  0  0  0  0
  199.9333  182.0835  156.9198 H   0  0  0  0  0  0  0  0  0  0  0  0
  199.2924  178.5123  153.8033 H   0  0  0  0  0  0  0  0  0  0  0  0
  197.3515  179.2988  152.5138 H   0  0  0  0  0  0  0  0  0  0  0  0
  196.1682  181.3974  153.1871 H   0  0  0  0  0  0  0  0  0  0  0  0
  196.9084  182.6432  155.1585 H   0  0  0  0  0  0  0  0  0  0  0  0
  201.1323  179.1855  155.4531 H   0  0  0  0  0  0  0  0  0  0  0  0
  200.7851  180.2410  156.7841 H   0  0  0  0  0  0  0  0  0  0  0  0
  200.1792  176.7879  155.5171 H   0  0  0  0  0  0  0  0  0  0  0  0
  198.5201  177.4149  155.7311 H   0  0  0  0  0  0  0  0  0  0  0  0
  199.2018  176.3388  156.9262 H   0  0  0  0  0  0  0  0  0  0  0  0
  201.9013  177.5649  157.3720 H   0  0  0  0  0  0  0  0  0  0  0  0
  200.6949  177.1272  158.5852 H   0  0  0  0  0  0  0  0  0  0  0  0
  201.3487  178.7638  158.5413 H   0  0  0  0  0  0  0  0  0  0  0  0
  194.2291  182.6485  157.8933 H   0  0  0  0  0  0  0  0  0  0  0  0
  192.8719  184.1676  159.3241 H   0  0  0  0  0  0  0  0  0  0  0  0
  194.0002  185.8610  160.7487 H   0  0  0  0  0  0  0  0  0  0  0  0
  196.4840  186.0292  160.7557 H   0  0  0  0  0  0  0  0  0  0  0  0
  200.7790  181.8387  158.9009 H   0  0  0  0  0  0  0  0  0  0  0  0
  203.2287  182.1722  158.9152 H   0  0  0  0  0  0  0  0  0  0  0  0
  204.1826  184.4554  158.6359 H   0  0  0  0  0  0  0  0  0  0  0  0
  202.6595  186.4019  158.3237 H   0  0  0  0  0  0  0  0  0  0  0  0
  200.2057  186.0687  158.2812 H   0  0  0  0  0  0  0  0  0  0  0  0
  199.1550  178.5976  157.5573 H   0  0  0  0  0  0  0  0  0  0  0  0
  1  2  2  0
  1 17  1  0
  2  3  1  0
  2 14  1  0
  3  4  1  0
  3 28  1  0
  4  5  1  0
  4  9  2  0
  5  6  2  0
  5 10  1  0
  6  7  1  0
  6 29  1  0
  7  8  2  0
  7 30  1  0
  8  9  1  0
  8 31  1  0
  9 32  1  0
 10 11  1  0
 10 33  1  6
 10 34  1  0
 11 12  1  0
 11 13  1  0
 11 50  1  1
 12 35  1  6
 12 36  1  0
 12 37  1  0
 13 38  1  6
 13 39  1  0
 13 40  1  0
 14 15  2  0
 14 22  1  0
 15 16  1  0
 16 17  1  0
 16 21  2  0
 17 18  2  0
 18 19  1  0
 18 41  1  0
 19 20  2  0
 19 42  1  0
 20 21  1  0
 20 43  1  0
 21 44  1  0
 22 23  2  0
 22 27  1  0
 23 24  1  0
 23 45  1  0
 24 25  2  0
 24 46  1  0
 25 26  1  0
 25 47  1  0
 26 27  2  0
 26 48  1  0
 27 49  1  0
M  CHG  1  11   1
M  END
>  <s_epik_cmdline>  (28) 
J2VwaWtfcHl0aG9uJywgJy1waCcsICc3LjAwMDAwMCcsICctcGh0JywgJzIuMDAwMDAwJywgJy1tcycsICcxNicsICctdG4nLCAnOCcsICctbWEnLCAnMjAwJywgJy1pbWFlJywgJzxpbmZpbGUubWFlPicsICctb21hZScsICc8b3V0ZmlsZS5tYWU+Jw==

>  <s_epik_input>  (28) 
W2NIXTFbY0hdW2NIXVtjSF1bY0hdYzEtYyhuMiljKG5jKGMyMylbY0hdW2NIXVtjSF1bY0hdMylbTkhdYzRjKFtDSDJdTihbQ0gzXSlbQ0gzXSlbY0hdW2NIXVtjSF1bY0hdNA==

>  <s_i_glide_gridfile>  (28) 
ATP-Grid

>  <s_lp_Force_Field>  (28) 
OPLS_2005

>  <s_lp_Variant>  (28) 
rxn102c____EMOL1087657____EMOL44691345-1

>  <s_lp_label>  (28) 
2354_sdstereoexpander_1_neutralizer_1_epik_1_stereoizer_1

>  <s_m_source_file>  (28) 
ATP-VSW-LIGPREP-001-in.maegz

>  <s_sd_BIOSOLVEIT.INFINISEE\_QUERY\_NAME>  (28) 
Ref-Lig

>  <s_sd_BIOSOLVEIT.INFINISEE\_QUERY\_SMILES>  (28) 
S(c1nc2c(cc1C[NH2+]Cc3ccc(cc3)C[NH+](C)C)cccc2)Cc4ccccc4

>  <s_sd_BIOSOLVEIT.INFINISEE\_REACTION\_NAME>  (28) 
rxn102c

>  <s_sd_BIOSOLVEIT.INFINISEE\_REAGENT1\_NAME>  (28) 
EMOL1087657

>  <s_sd_BIOSOLVEIT.INFINISEE\_REAGENT1\_SMILES>  (28) 
Clc1nc2c(nc1c3ccccc3)cccc2

>  <s_sd_BIOSOLVEIT.INFINISEE\_REAGENT2\_NAME>  (28) 
EMOL44691345

>  <s_sd_BIOSOLVEIT.INFINISEE\_REAGENT2\_SMILES>  (28) 
N(Cc1c(N)cccc1)(C)C

>  <s_sd_BIOSOLVEIT.INFINISEE\_SPACE>  (28) 
eXplore_7tr_2022-12

>  <s_vsw_compound_code>  (28) 
75297

>  <s_vsw_variant>  (28) 
75297-1

>  <r_epik_Charging_Adjusted_Penalty>  (28) 
0.074139713783215794

>  <r_epik_Ionization_Penalty>  (28) 
0.037100000000000001

>  <r_epik_Ionization_Penalty_Charging>  (28) 
0.037100000000000001

>  <r_epik_Ionization_Penalty_Neutral>  (28) 
0

>  <r_epik_State_Penalty>  (28) 
0.037100000000000001

>  <r_i_docking_score>  (28) 
-4.1498328279268897

>  <r_i_glide_ecoul>  (28) 
-5.8949899673461896

>  <r_i_glide_eff_state_penalty>  (28) 
0.037100000000000001

>  <r_i_glide_einternal>  (28) 
2.6053915023803702

>  <r_i_glide_emodel>  (28) 
-49.463000197740001

>  <r_i_glide_energy>  (28) 
-36.877615928649902

>  <r_i_glide_erotb>  (28) 
0.60533368641083696

>  <r_i_glide_esite>  (28) 
-0.1087902340054

>  <r_i_glide_evdw>  (28) 
-30.9826259613037

>  <r_i_glide_gscore>  (28) 
-4.1869328279268903

>  <r_i_glide_hbond>  (28) 
-0.145475470267107

>  <r_i_glide_ligand_efficiency>  (28) 
-0.15369751214544

>  <r_i_glide_ligand_efficiency_ln>  (28) 
-0.966012667000263

>  <r_i_glide_ligand_efficiency_sa>  (28) 
-0.46109253592976002

>  <r_i_glide_lipo>  (28) 
-1.1190904714435601

>  <r_i_glide_metal>  (28) 
-0

>  <r_i_glide_rewards>  (28) 
-0.98553054545454399

>  <r_lp_Energy>  (28) 
34.678784

>  <r_qp_ACxDN^.5/SA>  (28) 
0.0069623000000000003

>  <r_qp_CIQPlogS>  (28) 
-4.8890000000000002

>  <r_qp_EA(eV)>  (28) 
1.0820000000000001

>  <r_qp_FISA>  (28) 
14.827999999999999

>  <r_qp_FOSA>  (28) 
132.21799999999999

>  <r_qp_IP(eV)>  (28) 
8.2279999999999998

>  <r_qp_Jm>  (28) 
0.365733075356794

>  <r_qp_PISA>  (28) 
499.29000000000002

>  <r_qp_PSA>  (28) 
31.565000000000001

>  <r_qp_PercentHumanOralAbsorption>  (28) 
100

>  <r_qp_QPPCaco>  (28) 
1787.2550000000001

>  <r_qp_QPPMDCK>  (28) 
1025.212

>  <r_qp_QPlogBB>  (28) 
0.51800000000000002

>  <r_qp_QPlogHERG>  (28) 
-7.3360000000000003

>  <r_qp_QPlogKhsa>  (28) 
0.73099999999999998

>  <r_qp_QPlogKp>  (28) 
-1.6160000000000001

>  <r_qp_QPlogPC16>  (28) 
12.987

>  <r_qp_QPlogPo/w>  (28) 
4.7350000000000003

>  <r_qp_QPlogPoct>  (28) 
17.844999999999999

>  <r_qp_QPlogPw>  (28) 
9.5660000000000007

>  <r_qp_QPlogS>  (28) 
-4.3700000000000001

>  <r_qp_QPpolrz>  (28) 
42.439999999999998

>  <r_qp_SASA>  (28) 
646.33600000000001

>  <r_qp_SAamideO>  (28) 
0

>  <r_qp_SAfluorine>  (28) 
0

>  <r_qp_WPSA>  (28) 
0

>  <r_qp_accptHB>  (28) 
4.5

>  <r_qp_dip^2/V>  (28) 
0.0052386999999999998

>  <r_qp_dipole>  (28) 
2.4809999999999999

>  <r_qp_donorHB>  (28) 
1

>  <r_qp_glob>  (28) 
0.83332200000000001

>  <r_qp_mol_MW>  (28) 
354.45400000000001

>  <r_qp_volume>  (28) 
1175.327

>  <r_sd_BIOSOLVEIT.INFINISEE\_FTREES\_SIMILARITY>  (28) 
0.92000000000000004

>  <r_sd_BIOSOLVEIT.LOGP>  (28) 
3.6848999999999998

>  <r_sd_BIOSOLVEIT.MOLECULAR\_WEIGHT>  (28) 
355.46300000000002

>  <r_sd_BIOSOLVEIT.TPSA>  (28) 
42.25

>  <i_epik_Tot_Q>  (28) 
1

>  <i_epik_Tot_abs_Q>  (28) 
1

>  <i_f3d_flags>  (28) 
0

>  <i_i_glide_confnum>  (28) 
2

>  <i_i_glide_lignum>  (28) 
853

>  <i_i_glide_posenum>  (28) 
1

>  <i_i_glide_rotatable_bonds>  (28) 
5

>  <i_lp_mmshare_version>  (28) 
65135

>  <i_m_ct_format>  (28) 
2

>  <i_m_source_file_index>  (28) 
2354

>  <i_qp_#NandO>  (28) 
4

>  <i_qp_#acid>  (28) 
0

>  <i_qp_#amide>  (28) 
0

>  <i_qp_#amidine>  (28) 
0

>  <i_qp_#amine>  (28) 
1

>  <i_qp_#in34>  (28) 
0

>  <i_qp_#in56>  (28) 
22

>  <i_qp_#metab>  (28) 
3

>  <i_qp_#nonHatm>  (28) 
27

>  <i_qp_#noncon>  (28) 
0

>  <i_qp_#ringatoms>  (28) 
22

>  <i_qp_#rotor>  (28) 
5

>  <i_qp_#rtvFG>  (28) 
0

>  <i_qp_#stars>  (28) 
1

>  <i_qp_CNS>  (28) 
2

>  <i_qp_HumanOralAbsorption>  (28) 
3

>  <i_qp_RuleOfFive>  (28) 
0

>  <i_qp_RuleOfThree>  (28) 
0

>  <i_sd_BIOSOLVEIT.INFINISEE\_RESULT\_RANK>  (28) 
16257

>  <i_sd_version>  (28) 
0

>  <b_lp_Chiralities_Consistent>  (28) 
1

>  <b_sd_chiral_flag>  (28) 
0

>  <canonical_id>  (28) 
ATP-HTVS-0438281B0112

>  <compound_code>  (28) 
75297

>  <title>  (28) 
rxn102c____EMOL1087657____EMOL44691345

>  <variant>  (28) 
75297-1

>  <source_file>  (28) 
运行/运行/ATP-VSW/ATP-VSW-DOCK_HTVS_1-001_lib/ATP-VSW-DOCK_HTVS_1-001_lib

>  <canonical_smiles>  (28) 
C[NH+](C)Cc1ccccc1Nc1nc2ccccc2nc1-c1ccccc1

>  <scaffold>  (28) 
c1ccc(Nc2nc3ccccc3nc2-c2ccccc2)cc1

>  <molecular_formula>  (28) 
C23H23N4+

$$$$
ATP-HTVS-0460857F35D6
     RDKit          3D

 58 61  0  0  0  0  0  0  0  0999 V2000
  196.6322  186.5912  160.5816 O   0  0  0  0  0  0  0  0  0  0  0  0
  196.7308  185.7483  159.4924 C   0  0  0  0  0  0  0  0  0  0  0  0
  196.8105  184.3435  159.7378 C   0  0  0  0  0  0  0  0  0  0  0  0
  197.0085  183.4435  158.6852 C   0  0  0  0  0  0  0  0  0  0  0  0
  197.1553  183.9650  157.3719 C   0  0  0  0  0  0  0  0  0  0  0  0
  197.1145  185.3535  157.1336 C   0  0  0  0  0  0  0  0  0  0  0  0
  196.8145  186.2333  158.1723 C   0  0  0  0  0  0  0  0  0  0  0  0
  197.3156  183.0771  156.1582 C   0  0  1  0  0  0  0  0  0  0  0  0
  196.5731  181.8460  156.3113 N   0  0  0  0  0  0  0  0  0  0  0  0
  196.6900  181.0103  155.1231 C   0  0  1  0  0  0  0  0  0  0  0  0
  198.0669  180.4335  154.9235 C   0  0  0  0  0  0  0  0  0  0  0  0
  198.6711  180.0082  153.7006 C   0  0  0  0  0  0  0  0  0  0  0  0
  199.9165  179.5958  153.8908 N   0  0  0  0  0  0  0  0  0  0  0  0
  200.1281  179.6883  155.2188 N   0  0  0  0  0  0  0  0  0  0  0  0
  199.0276  180.1974  155.8679 C   0  0  0  0  0  0  0  0  0  0  0  0
  201.4100  179.2979  155.7729 C   0  0  1  0  0  0  0  0  0  0  0  0
  201.7343  177.8509  155.4489 C   0  0  0  0  0  0  0  0  0  0  0  0
  202.5209  177.5349  154.3207 C   0  0  0  0  0  0  0  0  0  0  0  0
  202.8126  176.1914  154.0147 C   0  0  0  0  0  0  0  0  0  0  0  0
  202.3244  175.1603  154.8394 C   0  0  0  0  0  0  0  0  0  0  0  0
  201.5445  175.4738  155.9697 C   0  0  0  0  0  0  0  0  0  0  0  0
  201.2468  176.8161  156.2743 C   0  0  0  0  0  0  0  0  0  0  0  0
  198.1040  179.9856  152.3447 C   0  0  0  0  0  0  0  0  0  0  0  0
  198.9432  180.1193  151.2146 C   0  0  0  0  0  0  0  0  0  0  0  0
  198.4047  180.0975  149.9117 C   0  0  0  0  0  0  0  0  0  0  0  0
  197.0189  179.9440  149.7267 C   0  0  0  0  0  0  0  0  0  0  0  0
  196.1745  179.8230  150.8446 C   0  0  0  0  0  0  0  0  0  0  0  0
  196.7133  179.8300  152.1418 C   0  0  0  0  0  0  0  0  0  0  0  0
  196.7840  187.9996  160.3629 C   0  0  1  0  0  0  0  0  0  0  0  0
  198.1631  188.3965  159.7486 C   0  0  1  0  0  0  0  0  0  0  0  0
  198.5828  189.6905  160.1241 O   0  0  0  0  0  0  0  0  0  0  0  0
  195.5922  182.0467  156.4655 H   0  0  0  0  0  0  0  0  0  0  0  0
  196.7288  183.9565  160.7557 H   0  0  0  0  0  0  0  0  0  0  0  0
  197.0047  182.3660  158.8642 H   0  0  0  0  0  0  0  0  0  0  0  0
  197.2459  185.7301  156.1442 H   0  0  0  0  0  0  0  0  0  0  0  0
  196.7302  187.2858  157.9194 H   0  0  0  0  0  0  0  0  0  0  0  0
  196.9470  183.6153  155.2797 H   0  0  0  0  0  0  0  0  0  0  0  0
  198.3757  182.8857  155.9993 H   0  0  0  0  0  0  0  0  0  0  0  0
  195.9672  180.2031  155.2581 H   0  0  0  0  0  0  0  0  0  0  0  0
  196.3601  181.6014  154.2637 H   0  0  0  0  0  0  0  0  0  0  0  0
  199.0146  180.3673  156.9362 H   0  0  0  0  0  0  0  0  0  0  0  0
  202.1807  179.9584  155.3743 H   0  0  0  0  0  0  0  0  0  0  0  0
  201.3932  179.4443  156.8531 H   0  0  0  0  0  0  0  0  0  0  0  0
  202.8916  178.3242  153.6827 H   0  0  0  0  0  0  0  0  0  0  0  0
  203.4054  175.9534  153.1427 H   0  0  0  0  0  0  0  0  0  0  0  0
  202.5370  174.1288  154.6008 H   0  0  0  0  0  0  0  0  0  0  0  0
  201.1661  174.6824  156.5974 H   0  0  0  0  0  0  0  0  0  0  0  0
  200.6412  177.0535  157.1376 H   0  0  0  0  0  0  0  0  0  0  0  0
  200.0105  180.2363  151.3404 H   0  0  0  0  0  0  0  0  0  0  0  0
  199.0581  180.1932  149.0562 H   0  0  0  0  0  0  0  0  0  0  0  0
  196.6024  179.9061  148.7327 H   0  0  0  0  0  0  0  0  0  0  0  0
  195.1137  179.7052  150.7104 H   0  0  0  0  0  0  0  0  0  0  0  0
  196.0370  179.6967  152.9703 H   0  0  0  0  0  0  0  0  0  0  0  0
  195.9639  188.3474  159.7381 H   0  0  0  0  0  0  0  0  0  0  0  0
  196.5974  188.4825  161.3237 H   0  0  0  0  0  0  0  0  0  0  0  0
  198.9426  187.7071  160.0802 H   0  0  0  0  0  0  0  0  0  0  0  0
  198.1147  188.3868  158.6695 H   0  0  0  0  0  0  0  0  0  0  0  0
  198.8312  189.6963  161.0780 H   0  0  0  0  0  0  0  0  0  0  0  0
  1  2  1  0
  1 29  1  0
  2  3  1  0
  2  7  2  0
  3  4  2  0
  3 33  1  0
  4  5  1  0
  4 34  1  0
  5  6  2  0
  5  8  1  0
  6  7  1  0
  6 35  1  0
  7 36  1  0
  8  9  1  0
  8 37  1  6
  8 38  1  0
  9 10  1  0
  9 32  1  0
 10 11  1  0
 10 39  1  1
 10 40  1  0
 11 12  1  0
 11 15  2  0
 12 13  2  0
 12 23  1  0
 13 14  1  0
 14 15  1  0
 14 16  1  0
 15 41  1  0
 16 17  1  0
 16 42  1  6
 16 43  1  0
 17 18  2  0
 17 22  1  0
 18 19  1  0
 18 44  1  0
 19 20  2  0
 19 45  1  0
 20 21  1  0
 20 46  1  0
 21 22  2  0
 21 47  1  0
 22 48  1  0
 23 24  2  0
 23 28  1  0
 24 25  1  0
 24 49  1  0
 25 26  2  0
 25 50  1  0
 26 27  1  0
 26 51  1  0
 27 28  2  0
 27 52  1  0
 28 53  1  0
 29 30  1  0
 29 54  1  6
 29 55  1  0
 30 31  1  0
 30 56  1  6
 30 57  1  0
 31 58  1  0
M  END
>  <s_epik_cmdline>  (29) 
J2VwaWtfcHl0aG9uJywgJy1waCcsICc3LjAwMDAwMCcsICctcGh0JywgJzIuMDAwMDAwJywgJy1tcycsICcxNicsICctdG4nLCAnOCcsICctbWEnLCAnMjAwJywgJy1pbWFlJywgJzxpbmZpbGUubWFlPicsICctb21hZScsICc8b3V0ZmlsZS5tYWU+Jw==

>  <s_epik_input>  (29) 
W09IXVtDSDJdW0NIMl1PYzFbY0hdW2NIXWMoW2NIXVtjSF0xKVtDSDJdW05IXVtDSDJdYzJjKC1jM1tjSF1bY0hdW2NIXVtjSF1bY0hdMylubihbY0hdMilbQ0gyXWM0W2NIXVtjSF1bY0hdW2NIXVtjSF00

>  <s_i_glide_gridfile>  (29) 
ATP-Grid

>  <s_lp_Force_Field>  (29) 
OPLS_2005

>  <s_lp_Variant>  (29) 
m_270004bbb____8295050____7548060-2

>  <s_lp_label>  (29) 
1631_sdstereoexpander_1_neutralizer_1_epik_2_stereoizer_1

>  <s_m_source_file>  (29) 
ATP-VSW-LIGPREP-002-in.maegz

>  <s_sd_BIOSOLVEIT.INFINISEE\_QUERY\_NAME>  (29) 
Ref-Lig

>  <s_sd_BIOSOLVEIT.INFINISEE\_QUERY\_SMILES>  (29) 
S(c1nc2c(cc1C[NH2+]Cc3ccc(cc3)C[NH+](C)C)cccc2)Cc4ccccc4

>  <s_sd_BIOSOLVEIT.INFINISEE\_REACTION\_NAME>  (29) 
m_270004bbb

>  <s_sd_BIOSOLVEIT.INFINISEE\_REAGENT1\_SMILES>  (29) 
[R1*]NCc1ccc(OCCO)cc1

>  <s_sd_BIOSOLVEIT.INFINISEE\_REAGENT2\_SMILES>  (29) 
[R1*]CC=1C(=NN(C1)Cc2ccccc2)c3ccccc3

>  <s_sd_BIOSOLVEIT.INFINISEE\_SPACE>  (29) 
REALSpace_44bn_2023-08

>  <s_vsw_compound_code>  (29) 
52162

>  <s_vsw_variant>  (29) 
52162-2

>  <r_epik_Charging_Adjusted_Penalty>  (29) 
1.23620260688697

>  <r_epik_Ionization_Penalty>  (29) 
1.2362

>  <r_epik_Ionization_Penalty_Charging>  (29) 
0

>  <r_epik_Ionization_Penalty_Neutral>  (29) 
1.2362

>  <r_epik_State_Penalty>  (29) 
1.2362

>  <r_i_docking_score>  (29) 
-3.0674597961509402

>  <r_i_glide_ecoul>  (29) 
-7.1075019836425799

>  <r_i_glide_eff_state_penalty>  (29) 
1.2362

>  <r_i_glide_einternal>  (29) 
6.7855596542358398

>  <r_i_glide_emodel>  (29) 
-48.962320510330002

>  <r_i_glide_energy>  (29) 
-40.438140869140597

>  <r_i_glide_erotb>  (29) 
1.1537942126835701

>  <r_i_glide_esite>  (29) 
-0.0080297719341628996

>  <r_i_glide_evdw>  (29) 
-33.330638885497997

>  <r_i_glide_gscore>  (29) 
-4.3036597961509404

>  <r_i_glide_hbond>  (29) 
-0.21511628540556901

>  <r_i_glide_ligand_efficiency>  (29) 
-0.098950316004868893

>  <r_i_glide_ligand_efficiency_ln>  (29) 
-0.69180619038505198

>  <r_i_glide_ligand_efficiency_sa>  (29) 
-0.31084060788990198

>  <r_i_glide_lipo>  (29) 
-1.91195625512803

>  <r_i_glide_metal>  (29) 
-0

>  <r_i_glide_rewards>  (29) 
-0.589694454545453

>  <r_lp_Energy>  (29) 
26.044967

>  <r_lp_tautomer_probability>  (29) 
1

>  <r_qp_ACxDN^.5/SA>  (29) 
0.011109900000000001

>  <r_qp_CIQPlogS>  (29) 
-5.702

>  <r_qp_EA(eV)>  (29) 
0.16900000000000001

>  <r_qp_FISA>  (29) 
78.106999999999999

>  <r_qp_FOSA>  (29) 
180.53700000000001

>  <r_qp_IP(eV)>  (29) 
8.8840000000000003

>  <r_qp_Jm>  (29) 
0.13116406854929499

>  <r_qp_PISA>  (29) 
435.101

>  <r_qp_PSA>  (29) 
58.399999999999999

>  <r_qp_PercentHumanOralAbsorption>  (29) 
100

>  <r_qp_QPPCaco>  (29) 
448.86000000000001

>  <r_qp_QPPMDCK>  (29) 
230.25200000000001

>  <r_qp_QPlogBB>  (29) 
-0.38400000000000001

>  <r_qp_QPlogHERG>  (29) 
-6.9669999999999996

>  <r_qp_QPlogKhsa>  (29) 
0.66900000000000004

>  <r_qp_QPlogKp>  (29) 
-2.5289999999999999

>  <r_qp_QPlogPC16>  (29) 
14.49

>  <r_qp_QPlogPo/w>  (29) 
4.5620000000000003

>  <r_qp_QPlogPoct>  (29) 
20.530000000000001

>  <r_qp_QPlogPw>  (29) 
10.971

>  <r_qp_QPlogS>  (29) 
-3.9700000000000002

>  <r_qp_QPpolrz>  (29) 
44.252000000000002

>  <r_qp_SASA>  (29) 
693.745

>  <r_qp_SAamideO>  (29) 
0

>  <r_qp_SAfluorine>  (29) 
0

>  <r_qp_WPSA>  (29) 
0

>  <r_qp_accptHB>  (29) 
5.4500000000000002

>  <r_qp_dip^2/V>  (29) 
0.0032374000000000001

>  <r_qp_dipole>  (29) 
2.0640000000000001

>  <r_qp_donorHB>  (29) 
2

>  <r_qp_glob>  (29) 
0.83721109999999999

>  <r_qp_mol_MW>  (29) 
413.51799999999997

>  <r_qp_volume>  (29) 
1316.1479999999999

>  <r_sd_BIOSOLVEIT.INFINISEE\_FTREES\_SIMILARITY>  (29) 
0.90600000000000003

>  <r_sd_BIOSOLVEIT.LOGP>  (29) 
3.2330999999999999

>  <r_sd_BIOSOLVEIT.MOLECULAR\_WEIGHT>  (29) 
414.52600000000001

>  <r_sd_BIOSOLVEIT.TPSA>  (29) 
63.890000000000001

>  <i_epik_Tot_Q>  (29) 
0

>  <i_epik_Tot_abs_Q>  (29) 
0

>  <i_f3d_flags>  (29) 
0

>  <i_i_glide_confnum>  (29) 
8

>  <i_i_glide_lignum>  (29) 
570

>  <i_i_glide_posenum>  (29) 
10

>  <i_i_glide_rotatable_bonds>  (29) 
11

>  <i_lp_mmshare_version>  (29) 
65135

>  <i_m_ct_format>  (29) 
2

>  <i_m_source_file_index>  (29) 
1631

>  <i_qp_#NandO>  (29) 
5

>  <i_qp_#acid>  (29) 
0

>  <i_qp_#amide>  (29) 
0

>  <i_qp_#amidine>  (29) 
0

>  <i_qp_#amine>  (29) 
1

>  <i_qp_#in34>  (29) 
0

>  <i_qp_#in56>  (29) 
23

>  <i_qp_#metab>  (29) 
6

>  <i_qp_#nonHatm>  (29) 
31

>  <i_qp_#noncon>  (29) 
0

>  <i_qp_#ringatoms>  (29) 
23

>  <i_qp_#rotor>  (29) 
10

>  <i_qp_#rtvFG>  (29) 
0

>  <i_qp_#stars>  (29) 
0

>  <i_qp_CNS>  (29) 
1

>  <i_qp_HumanOralAbsorption>  (29) 
3

>  <i_qp_RuleOfFive>  (29) 
0

>  <i_qp_RuleOfThree>  (29) 
0

>  <i_sd_BIOSOLVEIT.INFINISEE\_REAGENT1\_NAME>  (29) 
8295050

>  <i_sd_BIOSOLVEIT.INFINISEE\_REAGENT2\_NAME>  (29) 
7548060

>  <i_sd_BIOSOLVEIT.INFINISEE\_RESULT\_RANK>  (29) 
67707

>  <i_sd_version>  (29) 
0

>  <b_lp_Chiralities_Consistent>  (29) 
1

>  <b_sd_chiral_flag>  (29) 
0

>  <canonical_id>  (29) 
ATP-HTVS-0460857F35D6

>  <compound_code>  (29) 
52162

>  <title>  (29) 
m_270004bbb____8295050____7548060

>  <variant>  (29) 
52162-2

>  <source_file>  (29) 
运行/运行/ATP-VSW/ATP-VSW-DOCK_HTVS_1-002_lib.maegz

>  <canonical_smiles>  (29) 
OCCOc1ccc(CNCc2cn(Cc3ccccc3)nc2-c2ccccc2)cc1

>  <scaffold>  (29) 
c1ccc(CNCc2cn(Cc3ccccc3)nc2-c2ccccc2)cc1

>  <molecular_formula>  (29) 
C26H27N3O2

$$$$
ATP-HTVS-04621B482D9F
     RDKit          3D

 51 53  0  0  0  0  0  0  0  0999 V2000
  196.9114  183.8306  159.7509 S   0  0  0  0  0  0  0  0  0  0  0  0
  197.2288  184.9600  158.4358 C   0  0  0  0  0  0  0  0  0  0  0  0
  197.6067  186.3190  158.8217 C   0  0  0  0  0  0  0  0  0  0  0  0
  198.7487  186.7015  158.5618 O   0  0  0  0  0  0  0  0  0  0  0  0
  196.6888  187.0795  159.4791 N   0  0  0  0  0  0  0  0  0  0  0  0
  195.5981  186.4975  160.0258 C   0  0  0  0  0  0  0  0  0  0  0  0
  194.6801  186.0062  160.5344 N   0  0  0  0  0  0  0  0  0  0  0  0
  196.9071  188.4738  159.7133 C   0  0  0  0  0  0  0  0  0  0  0  0
  197.5331  189.2766  158.7305 C   0  0  0  0  0  0  0  0  0  0  0  0
  197.7724  190.6408  158.9603 C   0  0  0  0  0  0  0  0  0  0  0  0
  197.3752  191.2297  160.1729 C   0  0  0  0  0  0  0  0  0  0  0  0
  196.7407  190.4502  161.1580 C   0  0  0  0  0  0  0  0  0  0  0  0
  196.5026  189.0788  160.9295 C   0  0  0  0  0  0  0  0  0  0  0  0
  197.1655  184.3525  157.2280 C   0  0  0  0  0  0  0  0  0  0  0  0
  197.4263  184.8932  155.9525 N   0  0  0  0  0  0  0  0  0  0  0  0
  197.3726  184.1592  154.6871 C   0  0  1  0  0  0  0  0  0  0  0  0
  197.8344  182.7047  154.7156 C   0  0  0  0  0  0  0  0  0  0  0  0
  199.1747  182.3802  154.4552 C   0  0  0  0  0  0  0  0  0  0  0  0
  199.5950  181.0408  154.5560 C   0  0  0  0  0  0  0  0  0  0  0  0
  198.7094  180.0417  155.0155 C   0  0  0  0  0  0  0  0  0  0  0  0
  197.3784  180.3765  155.3077 C   0  0  0  0  0  0  0  0  0  0  0  0
  196.9192  181.6430  154.9336 C   0  0  0  0  0  0  0  0  0  0  0  0
  199.1621  178.6051  155.1500 C   0  0  1  0  0  0  0  0  0  0  0  0
  199.5461  178.2569  156.5306 N   0  0  1  0  0  0  0  0  0  0  0  0
  200.1219  176.8972  156.6215 C   0  0  2  0  0  0  0  0  0  0  0  0
  200.4277  179.2617  157.1762 C   0  0  2  0  0  0  0  0  0  0  0  0
  196.7686  183.0370  157.4772 C   0  0  0  0  0  0  0  0  0  0  0  0
  196.5822  182.5634  158.7026 C   0  0  0  0  0  0  0  0  0  0  0  0
  197.8489  188.8408  157.7941 H   0  0  0  0  0  0  0  0  0  0  0  0
  198.2619  191.2321  158.2028 H   0  0  0  0  0  0  0  0  0  0  0  0
  197.5571  192.2797  160.3451 H   0  0  0  0  0  0  0  0  0  0  0  0
  196.4444  190.9028  162.0930 H   0  0  0  0  0  0  0  0  0  0  0  0
  196.0365  188.5003  161.7142 H   0  0  0  0  0  0  0  0  0  0  0  0
  197.5744  185.8919  155.9071 H   0  0  0  0  0  0  0  0  0  0  0  0
  196.3505  184.1805  154.3196 H   0  0  0  0  0  0  0  0  0  0  0  0
  197.9789  184.6994  153.9556 H   0  0  0  0  0  0  0  0  0  0  0  0
  199.8568  183.1433  154.1143 H   0  0  0  0  0  0  0  0  0  0  0  0
  200.6055  180.7877  154.2975 H   0  0  0  0  0  0  0  0  0  0  0  0
  196.6873  179.6446  155.7176 H   0  0  0  0  0  0  0  0  0  0  0  0
  195.8988  181.9029  155.2632 H   0  0  0  0  0  0  0  0  0  0  0  0
  198.3428  177.9646  154.8281 H   0  0  0  0  0  0  0  0  0  0  0  0
  199.9883  178.4167  154.4648 H   0  0  0  0  0  0  0  0  0  0  0  0
  201.0518  176.8260  156.0548 H   0  0  0  0  0  0  0  0  0  0  0  0
  199.4256  176.1611  156.2250 H   0  0  0  0  0  0  0  0  0  0  0  0
  200.3338  176.6344  157.6583 H   0  0  0  0  0  0  0  0  0  0  0  0
  201.3586  179.3779  156.6197 H   0  0  0  0  0  0  0  0  0  0  0  0
  200.6718  178.9657  158.1933 H   0  0  0  0  0  0  0  0  0  0  0  0
  199.9402  180.2358  157.2355 H   0  0  0  0  0  0  0  0  0  0  0  0
  196.6208  182.3382  156.8566 H   0  0  0  0  0  0  0  0  0  0  0  0
  196.2977  181.5569  158.9885 H   0  0  0  0  0  0  0  0  0  0  0  0
  198.6819  178.2337  157.0816 H   0  0  0  0  0  0  0  0  0  0  0  0
  1  2  1  0
  1 28  1  0
  2  3  1  0
  2 14  2  0
  3  4  2  0
  3  5  1  0
  5  6  1  0
  5  8  1  0
  6  7  3  0
  8  9  2  0
  8 13  1  0
  9 10  1  0
  9 29  1  0
 10 11  2  0
 10 30  1  0
 11 12  1  0
 11 31  1  0
 12 13  2  0
 12 32  1  0
 13 33  1  0
 14 15  1  0
 14 27  1  0
 15 16  1  0
 15 34  1  0
 16 17  1  0
 16 35  1  6
 16 36  1  0
 17 18  1  0
 17 22  2  0
 18 19  2  0
 18 37  1  0
 19 20  1  0
 19 38  1  0
 20 21  2  0
 20 23  1  0
 21 22  1  0
 21 39  1  0
 22 40  1  0
 23 24  1  0
 23 41  1  6
 23 42  1  0
 24 25  1  0
 24 26  1  0
 24 51  1  1
 25 43  1  6
 25 44  1  0
 25 45  1  0
 26 46  1  6
 26 47  1  0
 26 48  1  0
 27 28  2  0
 27 49  1  0
 28 50  1  0
M  CHG  1  24   1
M  END
>  <s_epik_cmdline>  (30) 
J2VwaWtfcHl0aG9uJywgJy1waCcsICc3LjAwMDAwMCcsICctcGh0JywgJzIuMDAwMDAwJywgJy1tcycsICcxNicsICctdG4nLCAnOCcsICctbWEnLCAnMjAwJywgJy1pbWFlJywgJzxpbmZpbGUubWFlPicsICctb21hZScsICc8b3V0ZmlsZS5tYWU+Jw==

>  <s_epik_input>  (30) 
W2NIXTFbY0hdW2NIXVtjSF1bY0hdYzFOKEMjTilDKD1PKWMyc1tjSF1bY0hdYzJbTkhdW0NIMl1jM1tjSF1bY0hdYyhbY0hdW2NIXTMpW0NIMl1OKFtDSDNdKVtDSDNd

>  <s_i_glide_gridfile>  (30) 
ATP-Grid

>  <s_lp_Force_Field>  (30) 
OPLS_2005

>  <s_lp_Variant>  (30) 
rxn512b____EMOL36822768____EMOL525138____EMOL50155899-1

>  <s_lp_label>  (30) 
2733_sdstereoexpander_1_neutralizer_1_epik_1_stereoizer_1

>  <s_m_source_file>  (30) 
ATP-VSW-LIGPREP-003-in.maegz

>  <s_sd_BIOSOLVEIT.INFINISEE\_QUERY\_NAME>  (30) 
Ref-Lig

>  <s_sd_BIOSOLVEIT.INFINISEE\_QUERY\_SMILES>  (30) 
S(c1nc2c(cc1C[NH2+]Cc3ccc(cc3)C[NH+](C)C)cccc2)Cc4ccccc4

>  <s_sd_BIOSOLVEIT.INFINISEE\_REACTION\_NAME>  (30) 
rxn512b

>  <s_sd_BIOSOLVEIT.INFINISEE\_REAGENT1\_NAME>  (30) 
EMOL36822768

>  <s_sd_BIOSOLVEIT.INFINISEE\_REAGENT1\_SMILES>  (30) 
N#CNc1ccccc1

>  <s_sd_BIOSOLVEIT.INFINISEE\_REAGENT2\_NAME>  (30) 
EMOL525138

>  <s_sd_BIOSOLVEIT.INFINISEE\_REAGENT2\_SMILES>  (30) 
BrC1=C(SC=C1)C(=O)O

>  <s_sd_BIOSOLVEIT.INFINISEE\_REAGENT3\_NAME>  (30) 
EMOL50155899

>  <s_sd_BIOSOLVEIT.INFINISEE\_REAGENT3\_SMILES>  (30) 
N(Cc1ccc(cc1)CN)(C)C

>  <s_sd_BIOSOLVEIT.INFINISEE\_SPACE>  (30) 
eXplore_7tr_2022-12

>  <s_vsw_compound_code>  (30) 
87427

>  <s_vsw_variant>  (30) 
87427-1

>  <r_epik_Charging_Adjusted_Penalty>  (30) 
0.080189274810459593

>  <r_epik_Ionization_Penalty>  (30) 
0.040500000000000001

>  <r_epik_Ionization_Penalty_Charging>  (30) 
0.040099999999999997

>  <r_epik_Ionization_Penalty_Neutral>  (30) 
0.00040000000000000002

>  <r_epik_State_Penalty>  (30) 
0.040099999999999997

>  <r_i_docking_score>  (30) 
-4.5485599741982101

>  <r_i_glide_ecoul>  (30) 
-8.3951473236084002

>  <r_i_glide_eff_state_penalty>  (30) 
0.040099999999999997

>  <r_i_glide_einternal>  (30) 
5.9228014945983896

>  <r_i_glide_emodel>  (30) 
-59.201491373176403

>  <r_i_glide_energy>  (30) 
-44.568826675415004

>  <r_i_glide_erotb>  (30) 
0.89122727356257803

>  <r_i_glide_esite>  (30) 
-0.10000000000000001

>  <r_i_glide_evdw>  (30) 
-36.173679351806598

>  <r_i_glide_gscore>  (30) 
-4.5886599741982099

>  <r_i_glide_hbond>  (30) 
-0.20000000000000001

>  <r_i_glide_ligand_efficiency>  (30) 
-0.162448570507079

>  <r_i_glide_ligand_efficiency_ln>  (30) 
-1.04994119356897

>  <r_i_glide_ligand_efficiency_sa>  (30) 
-0.493289537150848

>  <r_i_glide_lipo>  (30) 
-0.56254738557206596

>  <r_i_glide_metal>  (30) 
-0

>  <r_i_glide_rewards>  (30) 
-1.5493837960571299

>  <r_lp_Energy>  (30) 
36.281357

>  <r_lp_tautomer_probability>  (30) 
0.99999274205267796

>  <r_qp_ACxDN^.5/SA>  (30) 
0

>  <r_qp_CIQPlogS>  (30) 
-3.274

>  <r_qp_EA(eV)>  (30) 
0.66900000000000004

>  <r_qp_FISA>  (30) 
81.650000000000006

>  <r_qp_FOSA>  (30) 
208.33000000000001

>  <r_qp_IP(eV)>  (30) 
8.3919999999999995

>  <r_qp_Jm>  (30) 
0.00377859057218447

>  <r_qp_PISA>  (30) 
390.15800000000002

>  <r_qp_PSA>  (30) 
67.805999999999997

>  <r_qp_PercentHumanOralAbsorption>  (30) 
83.781000000000006

>  <r_qp_QPPCaco>  (30) 
103.61199999999999

>  <r_qp_QPPMDCK>  (30) 
91.995999999999995

>  <r_qp_QPlogBB>  (30) 
0.11600000000000001

>  <r_qp_QPlogHERG>  (30) 
-8.2439999999999998

>  <r_qp_QPlogKhsa>  (30) 
0.28100000000000003

>  <r_qp_QPlogKp>  (30) 
-5.0069999999999997

>  <r_qp_QPlogPC16>  (30) 
13.906000000000001

>  <r_qp_QPlogPo/w>  (30) 
3.5459999999999998

>  <r_qp_QPlogPoct>  (30) 
18.356000000000002

>  <r_qp_QPlogPw>  (30) 
9.327

>  <r_qp_QPlogS>  (30) 
-3.056

>  <r_qp_QPpolrz>  (30) 
44.009999999999998

>  <r_qp_SASA>  (30) 
725.024

>  <r_qp_SAamideO>  (30) 
0

>  <r_qp_SAfluorine>  (30) 
0

>  <r_qp_WPSA>  (30) 
44.886000000000003

>  <r_qp_accptHB>  (30) 
6.5

>  <r_qp_dip^2/V>  (30) 
0.020153799999999999

>  <r_qp_dipole>  (30) 
5.0960000000000001

>  <r_qp_donorHB>  (30) 
0

>  <r_qp_glob>  (30) 
0.78992519999999999

>  <r_qp_mol_MW>  (30) 
390.50200000000001

>  <r_qp_volume>  (30) 
1288.7239999999999

>  <r_sd_BIOSOLVEIT.INFINISEE\_FTREES\_SIMILARITY>  (30) 
0.90800000000000003

>  <r_sd_BIOSOLVEIT.LOGP>  (30) 
3.1325799999999999

>  <r_sd_BIOSOLVEIT.MOLECULAR\_WEIGHT>  (30) 
391.51600000000002

>  <r_sd_BIOSOLVEIT.TPSA>  (30) 
60.57

>  <i_epik_Tot_Q>  (30) 
1

>  <i_epik_Tot_abs_Q>  (30) 
1

>  <i_f3d_flags>  (30) 
0

>  <i_i_glide_confnum>  (30) 
7

>  <i_i_glide_lignum>  (30) 
1294

>  <i_i_glide_posenum>  (30) 
11

>  <i_i_glide_rotatable_bonds>  (30) 
8

>  <i_lp_mmshare_version>  (30) 
65135

>  <i_m_ct_format>  (30) 
2

>  <i_m_source_file_index>  (30) 
2733

>  <i_qp_#NandO>  (30) 
5

>  <i_qp_#acid>  (30) 
0

>  <i_qp_#amide>  (30) 
0

>  <i_qp_#amidine>  (30) 
0

>  <i_qp_#amine>  (30) 
2

>  <i_qp_#in34>  (30) 
0

>  <i_qp_#in56>  (30) 
17

>  <i_qp_#metab>  (30) 
6

>  <i_qp_#nonHatm>  (30) 
28

>  <i_qp_#noncon>  (30) 
0

>  <i_qp_#ringatoms>  (30) 
17

>  <i_qp_#rotor>  (30) 
8

>  <i_qp_#rtvFG>  (30) 
0

>  <i_qp_#stars>  (30) 
0

>  <i_qp_CNS>  (30) 
1

>  <i_qp_HumanOralAbsorption>  (30) 
3

>  <i_qp_RuleOfFive>  (30) 
0

>  <i_qp_RuleOfThree>  (30) 
0

>  <i_sd_BIOSOLVEIT.INFINISEE\_RESULT\_RANK>  (30) 
56213

>  <i_sd_version>  (30) 
0

>  <b_lp_Chiralities_Consistent>  (30) 
1

>  <b_sd_chiral_flag>  (30) 
0

>  <canonical_id>  (30) 
ATP-HTVS-04621B482D9F

>  <compound_code>  (30) 
87427

>  <title>  (30) 
rxn512b____EMOL36822768____EMOL525138____EMOL50155899

>  <variant>  (30) 
87427-1

>  <source_file>  (30) 
运行/运行/ATP-VSW/ATP-VSW-DOCK_HTVS_1-003_lib/ATP-VSW-DOCK_HTVS_1-003_lib.mae

>  <canonical_smiles>  (30) 
C[NH+](C)Cc1ccc(CNc2ccsc2C(=O)N(C#N)c2ccccc2)cc1

>  <scaffold>  (30) 
O=C(Nc1ccccc1)c1sccc1NCc1ccccc1

>  <molecular_formula>  (30) 
C22H23N4OS+

$$$$
ATP-HTVS-04BA495CA0A4
     RDKit          3D

 60 63  0  0  0  0  0  0  0  0999 V2000
  198.8241  186.3589  154.8709 Cl  0  0  0  0  0  0  0  0  0  0  0  0
  197.9439  185.2089  155.8182 C   0  0  0  0  0  0  0  0  0  0  0  0
  197.6137  183.9513  155.2842 C   0  0  0  0  0  0  0  0  0  0  0  0
  196.9186  183.0208  155.9709 N   0  0  0  0  0  0  0  0  0  0  0  0
  196.5310  183.2946  157.2328 C   0  0  0  0  0  0  0  0  0  0  0  0
  196.8370  184.5290  157.8676 C   0  0  0  0  0  0  0  0  0  0  0  0
  197.5626  185.5121  157.1488 C   0  0  0  0  0  0  0  0  0  0  0  0
  197.9259  186.8064  157.7523 C   0  0  0  0  0  0  0  0  0  0  0  0
  198.9957  186.8980  158.6706 C   0  0  0  0  0  0  0  0  0  0  0  0
  199.3411  188.1357  159.2496 C   0  0  0  0  0  0  0  0  0  0  0  0
  198.6197  189.2945  158.9141 C   0  0  0  0  0  0  0  0  0  0  0  0
  197.5509  189.2141  158.0021 C   0  0  0  0  0  0  0  0  0  0  0  0
  197.2067  187.9745  157.4266 C   0  0  0  0  0  0  0  0  0  0  0  0
  196.4144  184.7653  159.2011 C   0  0  0  0  0  0  0  0  0  0  0  0
  195.6904  183.7871  159.9052 C   0  0  0  0  0  0  0  0  0  0  0  0
  195.3787  182.5702  159.2662 C   0  0  0  0  0  0  0  0  0  0  0  0
  195.7972  182.3315  157.9485 C   0  0  0  0  0  0  0  0  0  0  0  0
  198.0186  183.5226  153.8902 C   0  0  1  0  0  0  0  0  0  0  0  0
  196.9287  183.7675  152.9212 N   0  0  1  0  0  0  0  0  0  0  0  0
  197.2352  183.3412  151.5368 C   0  0  1  0  0  0  0  0  0  0  0  0
  197.3952  181.8263  151.4005 C   0  0  0  0  0  0  0  0  0  0  0  0
  198.6055  181.2793  150.9220 C   0  0  0  0  0  0  0  0  0  0  0  0
  198.7768  179.8853  150.8248 C   0  0  0  0  0  0  0  0  0  0  0  0
  197.7221  179.0258  151.2047 C   0  0  0  0  0  0  0  0  0  0  0  0
  196.5041  179.5636  151.6646 C   0  0  0  0  0  0  0  0  0  0  0  0
  196.3388  180.9577  151.7574 C   0  0  0  0  0  0  0  0  0  0  0  0
  200.0956  179.3204  150.3340 C   0  0  2  0  0  0  0  0  0  0  0  0
  196.1942  183.9390  150.5496 C   0  0  1  0  0  0  0  0  0  0  0  0
  196.7773  184.6834  149.4350 N   0  0  0  0  0  0  0  0  0  0  0  0
  197.4525  183.7914  148.4966 C   0  0  2  0  0  0  0  0  0  0  0  0
  197.6706  185.7568  149.8422 C   0  0  2  0  0  0  0  0  0  0  0  0
  196.0677  183.3491  153.2596 H   0  0  0  0  0  0  0  0  0  0  0  0
  199.5530  186.0126  158.9379 H   0  0  0  0  0  0  0  0  0  0  0  0
  200.1563  188.1998  159.9554 H   0  0  0  0  0  0  0  0  0  0  0  0
  198.8864  190.2422  159.3604 H   0  0  0  0  0  0  0  0  0  0  0  0
  196.9984  190.1042  157.7425 H   0  0  0  0  0  0  0  0  0  0  0  0
  196.3867  187.9162  156.7263 H   0  0  0  0  0  0  0  0  0  0  0  0
  196.6420  185.6928  159.7071 H   0  0  0  0  0  0  0  0  0  0  0  0
  195.3924  183.9669  160.9287 H   0  0  0  0  0  0  0  0  0  0  0  0
  194.8235  181.7915  159.7625 H   0  0  0  0  0  0  0  0  0  0  0  0
  195.5409  181.3940  157.4829 H   0  0  0  0  0  0  0  0  0  0  0  0
  198.9278  184.0345  153.5538 H   0  0  0  0  0  0  0  0  0  0  0  0
  198.2652  182.4655  153.9155 H   0  0  0  0  0  0  0  0  0  0  0  0
  198.2230  183.7918  151.3074 H   0  0  0  0  0  0  0  0  0  0  0  0
  199.4182  181.9285  150.6299 H   0  0  0  0  0  0  0  0  0  0  0  0
  197.8571  177.9530  151.1506 H   0  0  0  0  0  0  0  0  0  0  0  0
  195.7016  178.9026  151.9656 H   0  0  0  0  0  0  0  0  0  0  0  0
  195.4119  181.3584  152.1199 H   0  0  0  0  0  0  0  0  0  0  0  0
  200.0724  178.2307  150.2978 H   0  0  0  0  0  0  0  0  0  0  0  0
  200.9079  179.6181  150.9989 H   0  0  0  0  0  0  0  0  0  0  0  0
  200.3213  179.6873  149.3319 H   0  0  0  0  0  0  0  0  0  0  0  0
  195.5239  183.1707  150.1718 H   0  0  0  0  0  0  0  0  0  0  0  0
  195.5418  184.6286  151.0718 H   0  0  0  0  0  0  0  0  0  0  0  0
  197.8309  184.3475  147.6385 H   0  0  0  0  0  0  0  0  0  0  0  0
  196.7504  183.0401  148.1278 H   0  0  0  0  0  0  0  0  0  0  0  0
  198.2910  183.2755  148.9569 H   0  0  0  0  0  0  0  0  0  0  0  0
  198.0636  186.2541  148.9530 H   0  0  0  0  0  0  0  0  0  0  0  0
  198.5011  185.3575  150.4386 H   0  0  0  0  0  0  0  0  0  0  0  0
  197.1475  186.5147  150.4296 H   0  0  0  0  0  0  0  0  0  0  0  0
  196.7679  184.7646  152.9029 H   0  0  0  0  0  0  0  0  0  0  0  0
  1  2  1  0
  2  3  1  0
  2  7  2  0
  3  4  2  0
  3 18  1  0
  4  5  1  0
  5  6  1  0
  5 17  2  0
  6  7  1  0
  6 14  2  0
  7  8  1  0
  8  9  2  0
  8 13  1  0
  9 10  1  0
  9 33  1  0
 10 11  2  0
 10 34  1  0
 11 12  1  0
 11 35  1  0
 12 13  2  0
 12 36  1  0
 13 37  1  0
 14 15  1  0
 14 38  1  0
 15 16  2  0
 15 39  1  0
 16 17  1  0
 16 40  1  0
 17 41  1  0
 18 19  1  0
 18 42  1  6
 18 43  1  0
 19 20  1  0
 19 32  1  1
 19 60  1  0
 20 21  1  0
 20 28  1  0
 20 44  1  6
 21 22  1  0
 21 26  2  0
 22 23  2  0
 22 45  1  0
 23 24  1  0
 23 27  1  0
 24 25  2  0
 24 46  1  0
 25 26  1  0
 25 47  1  0
 26 48  1  0
 27 49  1  6
 27 50  1  0
 27 51  1  0
 28 29  1  0
 28 52  1  6
 28 53  1  0
 29 30  1  0
 29 31  1  0
 30 54  1  6
 30 55  1  0
 30 56  1  0
 31 57  1  6
 31 58  1  0
 31 59  1  0
M  CHG  1  19   1
M  END
>  <s_epik_cmdline>  (31) 
J2VwaWtfcHl0aG9uJywgJy1waCcsICc3LjAwMDAwMCcsICctcGh0JywgJzIuMDAwMDAwJywgJy1tcycsICcxNicsICctdG4nLCAnOCcsICctbWEnLCAnMjAwJywgJy1pbWFlJywgJzxpbmZpbGUubWFlPicsICctb21hZScsICc8b3V0ZmlsZS5tYWU+Jw==

>  <s_epik_input>  (31) 
W2NIXTFbY0hdW2NIXVtjSF1bY0hdYzEtYyhjKGMyMylbY0hdW2NIXVtjSF1bY0hdMyljKENsKWMobjIpW0NIMl1bTkhdW0NASF0oW0NIMl1OKFtDSDNdKVtDSDNdKWM0W2NIXWMoW0NIM10pW2NIXVtjSF1bY0hdNA==

>  <s_i_glide_gridfile>  (31) 
ATP-Grid

>  <s_lp_Force_Field>  (31) 
OPLS_2005

>  <s_lp_Variant>  (31) 
m_2230bbb____22403556____7471132-4

>  <s_lp_label>  (31) 
705_sdstereoexpander_2_neutralizer_1_epik_2_stereoizer_1

>  <s_m_source_file>  (31) 
ATP-VSW-LIGPREP-003-in.maegz

>  <s_sd_BIOSOLVEIT.INFINISEE\_QUERY\_NAME>  (31) 
Ref-Lig

>  <s_sd_BIOSOLVEIT.INFINISEE\_QUERY\_SMILES>  (31) 
S(c1nc2c(cc1C[NH2+]Cc3ccc(cc3)C[NH+](C)C)cccc2)Cc4ccccc4

>  <s_sd_BIOSOLVEIT.INFINISEE\_REACTION\_NAME>  (31) 
m_2230bbb

>  <s_sd_BIOSOLVEIT.INFINISEE\_REAGENT1\_SMILES>  (31) 
[R1*]NC(c1cc(ccc1)C)CN(C)C

>  <s_sd_BIOSOLVEIT.INFINISEE\_REAGENT2\_SMILES>  (31) 
[R1*]Cc1nc2c(c(c1Cl)c3ccccc3)cccc2

>  <s_sd_BIOSOLVEIT.INFINISEE\_SPACE>  (31) 
REALSpace_44bn_2023-08

>  <s_vsw_compound_code>  (31) 
22531

>  <s_vsw_variant>  (31) 
22531-4

>  <r_epik_Charging_Adjusted_Penalty>  (31) 
1.2556468813688599

>  <r_epik_Ionization_Penalty>  (31) 
0.2261

>  <r_epik_Ionization_Penalty_Charging>  (31) 
0.20730000000000001

>  <r_epik_Ionization_Penalty_Neutral>  (31) 
0.018800000000000001

>  <r_epik_State_Penalty>  (31) 
1.0484

>  <r_i_docking_score>  (31) 
-3.00531349655571

>  <r_i_glide_ecoul>  (31) 
-3.2988033294677699

>  <r_i_glide_eff_state_penalty>  (31) 
1.0484

>  <r_i_glide_einternal>  (31) 
6.3653373718261701

>  <r_i_glide_emodel>  (31) 
-45.369379879576897

>  <r_i_glide_energy>  (31) 
-36.9924221038818

>  <r_i_glide_erotb>  (31) 
0.64233297971285397

>  <r_i_glide_esite>  (31) 
-0.060102137821315002

>  <r_i_glide_evdw>  (31) 
-33.693618774414098

>  <r_i_glide_gscore>  (31) 
-4.0537134965557096

>  <r_i_glide_hbond>  (31) 
-0.14803520513054699

>  <r_i_glide_ligand_efficiency>  (31) 
-0.096945596663087399

>  <r_i_glide_ligand_efficiency_ln>  (31) 
-0.67779029527097501

>  <r_i_glide_ligand_efficiency_sa>  (31) 
-0.30454302134336297

>  <r_i_glide_lipo>  (31) 
-1.8378983315394699

>  <r_i_glide_metal>  (31) 
-0

>  <r_i_glide_rewards>  (31) 
-0.47050936363636198

>  <r_lp_Energy>  (31) 
24.134311

>  <r_qp_ACxDN^.5/SA>  (31) 
0.0069078999999999998

>  <r_qp_CIQPlogS>  (31) 
-5.3899999999999997

>  <r_qp_EA(eV)>  (31) 
0.91700000000000004

>  <r_qp_FISA>  (31) 
27.576000000000001

>  <r_qp_FOSA>  (31) 
245.941

>  <r_qp_IP(eV)>  (31) 
8.7669999999999995

>  <r_qp_Jm>  (31) 
0.020788144014302699

>  <r_qp_PISA>  (31) 
346.161

>  <r_qp_PSA>  (31) 
27.524999999999999

>  <r_qp_PercentHumanOralAbsorption>  (31) 
100

>  <r_qp_QPPCaco>  (31) 
337.44

>  <r_qp_QPPMDCK>  (31) 
279.29000000000002

>  <r_qp_QPlogBB>  (31) 
0.78200000000000003

>  <r_qp_QPlogHERG>  (31) 
-6.5019999999999998

>  <r_qp_QPlogKhsa>  (31) 
1.008

>  <r_qp_QPlogKp>  (31) 
-4.2610000000000001

>  <r_qp_QPlogPC16>  (31) 
13.380000000000001

>  <r_qp_QPlogPo/w>  (31) 
4.8780000000000001

>  <r_qp_QPlogPoct>  (31) 
18.73

>  <r_qp_QPlogPw>  (31) 
8.1929999999999996

>  <r_qp_QPlogS>  (31) 
-3.0539999999999998

>  <r_qp_QPpolrz>  (31) 
44.713000000000001

>  <r_qp_SASA>  (31) 
651.42499999999995

>  <r_qp_SAamideO>  (31) 
0

>  <r_qp_SAfluorine>  (31) 
0

>  <r_qp_WPSA>  (31) 
31.747

>  <r_qp_accptHB>  (31) 
4.5

>  <r_qp_dip^2/V>  (31) 
0.00075679999999999996

>  <r_qp_dipole>  (31) 
0.99199999999999999

>  <r_qp_donorHB>  (31) 
1

>  <r_qp_glob>  (31) 
0.88463530000000001

>  <r_qp_mol_MW>  (31) 
429.99099999999999

>  <r_qp_volume>  (31) 
1300.7550000000001

>  <r_sd_BIOSOLVEIT.INFINISEE\_FTREES\_SIMILARITY>  (31) 
0.93000000000000005

>  <r_sd_BIOSOLVEIT.LOGP>  (31) 
3.8128199999999999

>  <r_sd_BIOSOLVEIT.MOLECULAR\_WEIGHT>  (31) 
432.00799999999998

>  <r_sd_BIOSOLVEIT.TPSA>  (31) 
33.939999999999998

>  <i_epik_Tot_Q>  (31) 
1

>  <i_epik_Tot_abs_Q>  (31) 
1

>  <i_f3d_flags>  (31) 
0

>  <i_i_glide_confnum>  (31) 
5

>  <i_i_glide_lignum>  (31) 
298

>  <i_i_glide_posenum>  (31) 
17

>  <i_i_glide_rotatable_bonds>  (31) 
7

>  <i_lp_mmshare_version>  (31) 
65135

>  <i_m_ct_format>  (31) 
2

>  <i_m_source_file_index>  (31) 
705

>  <i_qp_#NandO>  (31) 
3

>  <i_qp_#acid>  (31) 
0

>  <i_qp_#amide>  (31) 
0

>  <i_qp_#amidine>  (31) 
0

>  <i_qp_#amine>  (31) 
2

>  <i_qp_#in34>  (31) 
0

>  <i_qp_#in56>  (31) 
22

>  <i_qp_#metab>  (31) 
6

>  <i_qp_#nonHatm>  (31) 
31

>  <i_qp_#noncon>  (31) 
0

>  <i_qp_#ringatoms>  (31) 
22

>  <i_qp_#rotor>  (31) 
7

>  <i_qp_#rtvFG>  (31) 
0

>  <i_qp_#stars>  (31) 
1

>  <i_qp_CNS>  (31) 
2

>  <i_qp_HumanOralAbsorption>  (31) 
3

>  <i_qp_RuleOfFive>  (31) 
0

>  <i_qp_RuleOfThree>  (31) 
0

>  <i_sd_BIOSOLVEIT.INFINISEE\_REAGENT1\_NAME>  (31) 
22403556

>  <i_sd_BIOSOLVEIT.INFINISEE\_REAGENT2\_NAME>  (31) 
7471132

>  <i_sd_BIOSOLVEIT.INFINISEE\_RESULT\_RANK>  (31) 
4634

>  <i_sd_version>  (31) 
0

>  <b_lp_Chiralities_Consistent>  (31) 
1

>  <b_sd_chiral_flag>  (31) 
0

>  <canonical_id>  (31) 
ATP-HTVS-04BA495CA0A4

>  <compound_code>  (31) 
22531

>  <title>  (31) 
m_2230bbb____22403556____7471132

>  <variant>  (31) 
22531-4

>  <source_file>  (31) 
运行/运行/ATP-VSW/ATP-VSW-DOCK_HTVS_1-003_lib/ATP-VSW-DOCK_HTVS_1-003_lib.mae

>  <canonical_smiles>  (31) 
Cc1cccc([C@@H](CN(C)C)[NH2+]Cc2nc3ccccc3c(-c3ccccc3)c2Cl)c1

>  <scaffold>  (31) 
c1ccc(C[NH2+]Cc2cc(-c3ccccc3)c3ccccc3n2)cc1

>  <molecular_formula>  (31) 
C27H29ClN3+

$$$$
ATP-HTVS-052AF9B11E6A
     RDKit          3D

 60 62  0  0  0  0  0  0  0  0999 V2000
  193.1518  180.9353  158.4090 Cl  0  0  0  0  0  0  0  0  0  0  0  0
  194.2855  182.2004  158.7099 C   0  0  0  0  0  0  0  0  0  0  0  0
  195.5890  181.9317  159.1708 C   0  0  0  0  0  0  0  0  0  0  0  0
  196.4706  182.9975  159.4640 C   0  0  0  0  0  0  0  0  0  0  0  0
  196.0834  184.3404  159.2689 C   0  0  0  0  0  0  0  0  0  0  0  0
  194.7852  184.5806  158.7620 C   0  0  0  0  0  0  0  0  0  0  0  0
  193.8822  183.5310  158.5337 C   0  0  0  0  0  0  0  0  0  0  0  0
  197.0479  185.5076  159.5655 C   0  0  2  0  0  0  0  0  0  0  0  0
  196.3297  186.7982  159.7773 N   0  0  0  0  0  0  0  0  0  0  0  0
  197.2110  187.9647  159.9662 C   0  0  1  0  0  0  0  0  0  0  0  0
  196.5016  189.3280  159.8814 C   0  0  1  0  0  0  0  0  0  0  0  0
  197.4851  190.4960  159.9511 C   0  0  2  0  0  0  0  0  0  0  0  0
  195.3938  186.7197  160.9167 C   0  0  2  0  0  0  0  0  0  0  0  0
  198.1531  185.5179  158.4603 C   0  0  1  0  0  0  0  0  0  0  0  0
  199.0129  184.3328  158.5384 N   0  0  0  0  0  0  0  0  0  0  0  0
  199.8499  184.0889  157.3671 C   0  0  1  0  0  0  0  0  0  0  0  0
  199.0958  183.3899  156.2511 C   0  0  0  0  0  0  0  0  0  0  0  0
  199.0775  184.0159  155.0567 N   0  0  0  0  0  0  0  0  0  0  0  0
  198.4580  183.3955  154.0293 C   0  0  0  0  0  0  0  0  0  0  0  0
  197.8547  182.1225  154.1217 C   0  0  0  0  0  0  0  0  0  0  0  0
  197.3599  181.5611  152.9643 O   0  0  0  0  0  0  0  0  0  0  0  0
  197.0136  180.1811  152.9738 C   0  0  1  0  0  0  0  0  0  0  0  0
  197.1465  179.5845  151.5899 C   0  0  0  0  0  0  0  0  0  0  0  0
  196.2924  179.9991  150.5523 C   0  0  0  0  0  0  0  0  0  0  0  0
  196.4247  179.4357  149.2647 C   0  0  0  0  0  0  0  0  0  0  0  0
  197.4151  178.4707  149.0116 C   0  0  0  0  0  0  0  0  0  0  0  0
  198.2782  178.0599  150.0470 C   0  0  0  0  0  0  0  0  0  0  0  0
  198.1436  178.6173  151.3317 C   0  0  0  0  0  0  0  0  0  0  0  0
  197.8330  181.5031  155.3958 C   0  0  0  0  0  0  0  0  0  0  0  0
  198.4759  182.1430  156.4709 C   0  0  0  0  0  0  0  0  0  0  0  0
  199.5748  184.3450  159.3817 H   0  0  0  0  0  0  0  0  0  0  0  0
  195.9080  180.9129  159.3295 H   0  0  0  0  0  0  0  0  0  0  0  0
  197.4524  182.7504  159.8396 H   0  0  0  0  0  0  0  0  0  0  0  0
  194.4645  185.5768  158.5384 H   0  0  0  0  0  0  0  0  0  0  0  0
  192.8790  183.7445  158.1984 H   0  0  0  0  0  0  0  0  0  0  0  0
  197.5458  185.2662  160.5036 H   0  0  0  0  0  0  0  0  0  0  0  0
  197.7270  187.8782  160.9242 H   0  0  0  0  0  0  0  0  0  0  0  0
  197.9936  188.0136  159.2105 H   0  0  0  0  0  0  0  0  0  0  0  0
  195.9588  189.3727  158.9417 H   0  0  0  0  0  0  0  0  0  0  0  0
  195.7736  189.4568  160.6805 H   0  0  0  0  0  0  0  0  0  0  0  0
  196.9553  191.4449  159.8686 H   0  0  0  0  0  0  0  0  0  0  0  0
  198.2255  190.4507  159.1486 H   0  0  0  0  0  0  0  0  0  0  0  0
  198.0164  190.4880  160.9040 H   0  0  0  0  0  0  0  0  0  0  0  0
  194.8088  187.6346  161.0275 H   0  0  0  0  0  0  0  0  0  0  0  0
  195.9359  186.5575  161.8489 H   0  0  0  0  0  0  0  0  0  0  0  0
  194.6586  185.9207  160.8136 H   0  0  0  0  0  0  0  0  0  0  0  0
  197.6822  185.5711  157.4795 H   0  0  0  0  0  0  0  0  0  0  0  0
  198.8066  186.3880  158.5218 H   0  0  0  0  0  0  0  0  0  0  0  0
  200.2975  185.0168  157.0094 H   0  0  0  0  0  0  0  0  0  0  0  0
  200.6739  183.4315  157.6451 H   0  0  0  0  0  0  0  0  0  0  0  0
  198.4852  183.9188  153.0839 H   0  0  0  0  0  0  0  0  0  0  0  0
  197.6547  179.5898  153.6265 H   0  0  0  0  0  0  0  0  0  0  0  0
  195.9885  180.0751  153.3319 H   0  0  0  0  0  0  0  0  0  0  0  0
  195.5390  180.7484  150.7461 H   0  0  0  0  0  0  0  0  0  0  0  0
  195.7552  179.7455  148.4762 H   0  0  0  0  0  0  0  0  0  0  0  0
  197.5143  178.0360  148.0279 H   0  0  0  0  0  0  0  0  0  0  0  0
  199.0370  177.3130  149.8618 H   0  0  0  0  0  0  0  0  0  0  0  0
  198.8076  178.2990  152.1221 H   0  0  0  0  0  0  0  0  0  0  0  0
  197.3599  180.5472  155.5698 H   0  0  0  0  0  0  0  0  0  0  0  0
  198.4946  181.6745  157.4434 H   0  0  0  0  0  0  0  0  0  0  0  0
  1  2  1  0
  2  3  1  0
  2  7  2  0
  3  4  2  0
  3 32  1  0
  4  5  1  0
  4 33  1  0
  5  6  2  0
  5  8  1  0
  6  7  1  0
  6 34  1  0
  7 35  1  0
  8  9  1  0
  8 14  1  0
  8 36  1  1
  9 10  1  0
  9 13  1  0
 10 11  1  0
 10 37  1  1
 10 38  1  0
 11 12  1  0
 11 39  1  6
 11 40  1  0
 12 41  1  6
 12 42  1  0
 12 43  1  0
 13 44  1  1
 13 45  1  0
 13 46  1  0
 14 15  1  0
 14 47  1  6
 14 48  1  0
 15 16  1  0
 15 31  1  0
 16 17  1  0
 16 49  1  6
 16 50  1  0
 17 18  1  0
 17 30  2  0
 18 19  2  0
 19 20  1  0
 19 51  1  0
 20 21  1  0
 20 29  2  0
 21 22  1  0
 22 23  1  0
 22 52  1  1
 22 53  1  0
 23 24  2  0
 23 28  1  0
 24 25  1  0
 24 54  1  0
 25 26  2  0
 25 55  1  0
 26 27  1  0
 26 56  1  0
 27 28  2  0
 27 57  1  0
 28 58  1  0
 29 30  1  0
 29 59  1  0
 30 60  1  0
M  END
>  <s_epik_cmdline>  (32) 
J2VwaWtfcHl0aG9uJywgJy1waCcsICc3LjAwMDAwMCcsICctcGh0JywgJzIuMDAwMDAwJywgJy1tcycsICcxNicsICctdG4nLCAnOCcsICctbWEnLCAnMjAwJywgJy1pbWFlJywgJzxpbmZpbGUubWFlPicsICctb21hZScsICc8b3V0ZmlsZS5tYWU+Jw==

>  <s_epik_input>  (32) 
Q2xjMVtjSF1bY0hdYyhbY0hdW2NIXTEpW0NASF0oTihbQ0gzXSlbQ0gyXVtDSDJdW0NIM10pW0NIMl1bTkhdW0NIMl1jMm5bY0hdYyhbY0hdW2NIXTIpT1tDSDJdYzNbY0hdW2NIXVtjSF1bY0hdW2NIXTM=

>  <s_i_glide_gridfile>  (32) 
ATP-Grid

>  <s_lp_Force_Field>  (32) 
OPLS_2005

>  <s_lp_Variant>  (32) 
m_270004bbb____10118640____24721296-8

>  <s_lp_label>  (32) 
1080_sdstereoexpander_2_neutralizer_1_epik_3_stereoizer_1

>  <s_m_source_file>  (32) 
ATP-VSW-LIGPREP-003-in.maegz

>  <s_sd_BIOSOLVEIT.INFINISEE\_QUERY\_NAME>  (32) 
Ref-Lig

>  <s_sd_BIOSOLVEIT.INFINISEE\_QUERY\_SMILES>  (32) 
S(c1nc2c(cc1C[NH2+]Cc3ccc(cc3)C[NH+](C)C)cccc2)Cc4ccccc4

>  <s_sd_BIOSOLVEIT.INFINISEE\_REACTION\_NAME>  (32) 
m_270004bbb

>  <s_sd_BIOSOLVEIT.INFINISEE\_REAGENT1\_SMILES>  (32) 
[R1*]NCC(N(CCC)C)c1ccc(Cl)cc1

>  <s_sd_BIOSOLVEIT.INFINISEE\_REAGENT2\_SMILES>  (32) 
[R1*]Cc1ncc(OCc2ccccc2)cc1

>  <s_sd_BIOSOLVEIT.INFINISEE\_SPACE>  (32) 
REALSpace_44bn_2023-08

>  <s_vsw_compound_code>  (32) 
34531

>  <s_vsw_variant>  (32) 
34531-8

>  <r_epik_Charging_Adjusted_Penalty>  (32) 
1.99808180168406

>  <r_epik_Ionization_Penalty>  (32) 
3.1103999999999998

>  <r_epik_Ionization_Penalty_Charging>  (32) 
0

>  <r_epik_Ionization_Penalty_Neutral>  (32) 
3.1103999999999998

>  <r_epik_State_Penalty>  (32) 
1.9981

>  <r_i_docking_score>  (32) 
-1.36010897797717

>  <r_i_glide_ecoul>  (32) 
-1.4184373617172199

>  <r_i_glide_eff_state_penalty>  (32) 
1.9981

>  <r_i_glide_einternal>  (32) 
5.8897223472595197

>  <r_i_glide_emodel>  (32) 
-39.453715558178402

>  <r_i_glide_energy>  (32) 
-34.9430269002914

>  <r_i_glide_erotb>  (32) 
0.99255002445034901

>  <r_i_glide_esite>  (32) 
0

>  <r_i_glide_evdw>  (32) 
-33.524589538574197

>  <r_i_glide_gscore>  (32) 
-3.3582089779771702

>  <r_i_glide_hbond>  (32) 
0

>  <r_i_glide_ligand_efficiency>  (32) 
-0.045336965932572401

>  <r_i_glide_ligand_efficiency_ln>  (32) 
-0.30903157937068298

>  <r_i_glide_ligand_efficiency_sa>  (32) 
-0.14087249410729999

>  <r_i_glide_lipo>  (32) 
-1.94343142124123

>  <r_i_glide_metal>  (32) 
-0

>  <r_i_glide_rewards>  (32) 
-0.51833249999999897

>  <r_lp_Energy>  (32) 
39.384296999999997

>  <r_lp_tautomer_probability>  (32) 
1

>  <r_qp_ACxDN^.5/SA>  (32) 
0.0075779000000000003

>  <r_qp_CIQPlogS>  (32) 
-4.7220000000000004

>  <r_qp_EA(eV)>  (32) 
-0.072999999999999995

>  <r_qp_FISA>  (32) 
23.084

>  <r_qp_FOSA>  (32) 
285.35000000000002

>  <r_qp_IP(eV)>  (32) 
8.9860000000000007

>  <r_qp_Jm>  (32) 
0.085924019644359806

>  <r_qp_PISA>  (32) 
345.024

>  <r_qp_PSA>  (32) 
34.917999999999999

>  <r_qp_PercentHumanOralAbsorption>  (32) 
100

>  <r_qp_QPPCaco>  (32) 
372.21499999999997

>  <r_qp_QPPMDCK>  (32) 
341.77999999999997

>  <r_qp_QPlogBB>  (32) 
0.57999999999999996

>  <r_qp_QPlogHERG>  (32) 
-7.1020000000000003

>  <r_qp_QPlogKhsa>  (32) 
0.77200000000000002

>  <r_qp_QPlogKp>  (32) 
-3.7989999999999999

>  <r_qp_QPlogPC16>  (32) 
13.694000000000001

>  <r_qp_QPlogPo/w>  (32) 
4.8380000000000001

>  <r_qp_QPlogPoct>  (32) 
18.641999999999999

>  <r_qp_QPlogPw>  (32) 
8.1129999999999995

>  <r_qp_QPlogS>  (32) 
-2.895

>  <r_qp_QPpolrz>  (32) 
43.587000000000003

>  <r_qp_SASA>  (32) 
692.80799999999999

>  <r_qp_SAamideO>  (32) 
0

>  <r_qp_SAfluorine>  (32) 
0

>  <r_qp_WPSA>  (32) 
39.350000000000001

>  <r_qp_accptHB>  (32) 
5.25

>  <r_qp_dip^2/V>  (32) 
0.011569100000000001

>  <r_qp_dipole>  (32) 
3.9329999999999998

>  <r_qp_donorHB>  (32) 
1

>  <r_qp_glob>  (32) 
0.84719489999999997

>  <r_qp_mol_MW>  (32) 
423.98399999999998

>  <r_qp_volume>  (32) 
1337.048

>  <r_sd_BIOSOLVEIT.INFINISEE\_FTREES\_SIMILARITY>  (32) 
0.91400000000000003

>  <r_sd_BIOSOLVEIT.LOGP>  (32) 
3.0434000000000001

>  <r_sd_BIOSOLVEIT.MOLECULAR\_WEIGHT>  (32) 
426.00099999999998

>  <r_sd_BIOSOLVEIT.TPSA>  (32) 
43.170000000000002

>  <i_epik_Tot_Q>  (32) 
0

>  <i_epik_Tot_abs_Q>  (32) 
0

>  <i_f3d_flags>  (32) 
0

>  <i_i_glide_confnum>  (32) 
12

>  <i_i_glide_lignum>  (32) 
410

>  <i_i_glide_posenum>  (32) 
20

>  <i_i_glide_rotatable_bonds>  (32) 
11

>  <i_lp_mmshare_version>  (32) 
65135

>  <i_m_ct_format>  (32) 
2

>  <i_m_source_file_index>  (32) 
1080

>  <i_qp_#NandO>  (32) 
4

>  <i_qp_#acid>  (32) 
0

>  <i_qp_#amide>  (32) 
0

>  <i_qp_#amidine>  (32) 
0

>  <i_qp_#amine>  (32) 
2

>  <i_qp_#in34>  (32) 
0

>  <i_qp_#in56>  (32) 
18

>  <i_qp_#metab>  (32) 
7

>  <i_qp_#nonHatm>  (32) 
30

>  <i_qp_#noncon>  (32) 
0

>  <i_qp_#ringatoms>  (32) 
18

>  <i_qp_#rotor>  (32) 
11

>  <i_qp_#rtvFG>  (32) 
0

>  <i_qp_#stars>  (32) 
0

>  <i_qp_CNS>  (32) 
2

>  <i_qp_HumanOralAbsorption>  (32) 
3

>  <i_qp_RuleOfFive>  (32) 
0

>  <i_qp_RuleOfThree>  (32) 
1

>  <i_sd_BIOSOLVEIT.INFINISEE\_REAGENT1\_NAME>  (32) 
10118640

>  <i_sd_BIOSOLVEIT.INFINISEE\_REAGENT2\_NAME>  (32) 
24721296

>  <i_sd_BIOSOLVEIT.INFINISEE\_RESULT\_RANK>  (32) 
31985

>  <i_sd_version>  (32) 
0

>  <b_lp_Chiralities_Consistent>  (32) 
1

>  <b_sd_chiral_flag>  (32) 
0

>  <canonical_id>  (32) 
ATP-HTVS-052AF9B11E6A

>  <compound_code>  (32) 
34531

>  <title>  (32) 
m_270004bbb____10118640____24721296

>  <variant>  (32) 
34531-8

>  <source_file>  (32) 
运行/运行/ATP-VSW/ATP-VSW-DOCK_HTVS_1-003_lib/ATP-VSW-DOCK_HTVS_1-003_lib.mae

>  <canonical_smiles>  (32) 
CCCN(C)[C@H](CNCc1ccc(OCc2ccccc2)cn1)c1ccc(Cl)cc1

>  <scaffold>  (32) 
c1ccc(CCNCc2ccc(OCc3ccccc3)cn2)cc1

>  <molecular_formula>  (32) 
C25H30ClN3O

$$$$
ATP-HTVS-053279755E30
     RDKit          3D

 68 70  0  0  0  0  0  0  0  0999 V2000
  198.0469  188.5239  156.8468 O   0  0  0  0  0  0  0  0  0  0  0  0
  197.9278  187.4223  156.3070 C   0  0  0  0  0  0  0  0  0  0  0  0
  198.6272  187.0993  155.1783 N   0  0  0  0  0  0  0  0  0  0  0  0
  198.5834  185.8256  154.5154 C   0  0  0  0  0  0  0  0  0  0  0  0
  197.4175  185.4462  153.9207 N   0  0  0  0  0  0  0  0  0  0  0  0
  197.2371  184.2347  153.3288 C   0  0  0  0  0  0  0  0  0  0  0  0
  198.3059  183.3308  153.2879 C   0  0  0  0  0  0  0  0  0  0  0  0
  199.5455  183.7096  153.8174 C   0  0  0  0  0  0  0  0  0  0  0  0
  199.6990  184.9631  154.4894 C   0  0  0  0  0  0  0  0  0  0  0  0
  200.8780  185.2684  155.2260 N   0  0  0  0  0  0  0  0  0  0  0  0
  201.8832  184.2887  155.6355 C   0  0  1  0  0  0  0  0  0  0  0  0
  201.3856  182.9142  156.0868 C   0  0  0  0  0  0  0  0  0  0  0  0
  202.2494  181.7814  155.9200 C   0  0  0  0  0  0  0  0  0  0  0  0
  201.7769  180.4787  156.2619 C   0  0  0  0  0  0  0  0  0  0  0  0
  200.4801  180.3292  156.8115 C   0  0  0  0  0  0  0  0  0  0  0  0
  199.6505  181.4647  156.9395 C   0  0  0  0  0  0  0  0  0  0  0  0
  200.0851  182.7070  156.5800 C   0  0  0  0  0  0  0  0  0  0  0  0
  199.9063  178.9767  157.2125 C   0  0  1  0  0  0  0  0  0  0  0  0
  199.1553  178.3253  156.1162 N   0  0  2  0  0  0  0  0  0  0  0  0
  200.0564  177.6421  155.1716 C   0  0  2  0  0  0  0  0  0  0  0  0
  198.1548  179.1849  155.4297 C   0  0  2  0  0  0  0  0  0  0  0  0
  199.5385  188.0820  154.5873 C   0  0  2  0  0  0  0  0  0  0  0  0
  196.9600  186.4007  156.9671 C   0  0  1  0  0  0  0  0  0  0  0  0
  197.4297  185.7660  158.3233 C   0  0  1  0  0  0  0  0  0  0  0  0
  196.5084  184.5321  158.5557 C   0  0  0  0  0  0  0  0  0  0  0  0
  197.0148  183.2200  158.3964 C   0  0  0  0  0  0  0  0  0  0  0  0
  196.1899  182.0806  158.5686 C   0  0  0  0  0  0  0  0  0  0  0  0
  194.8422  182.2398  158.9346 C   0  0  0  0  0  0  0  0  0  0  0  0
  194.3197  183.5385  159.0639 C   0  0  0  0  0  0  0  0  0  0  0  0
  195.1366  184.6693  158.8703 C   0  0  0  0  0  0  0  0  0  0  0  0
  198.9494  185.4429  158.2682 C   0  0  2  0  0  0  0  0  0  0  0  0
  197.2675  186.7330  159.5139 C   0  0  2  0  0  0  0  0  0  0  0  0
  196.2478  184.0441  152.9234 H   0  0  0  0  0  0  0  0  0  0  0  0
  198.1710  182.3274  152.8865 H   0  0  0  0  0  0  0  0  0  0  0  0
  200.3285  182.9733  153.7950 H   0  0  0  0  0  0  0  0  0  0  0  0
  200.9147  186.1534  155.7070 H   0  0  0  0  0  0  0  0  0  0  0  0
  202.6168  184.2100  154.8209 H   0  0  0  0  0  0  0  0  0  0  0  0
  202.4281  184.7467  156.4744 H   0  0  0  0  0  0  0  0  0  0  0  0
  203.2321  181.8790  155.4099 H   0  0  0  0  0  0  0  0  0  0  0  0
  202.3815  179.5916  156.0868 H   0  0  0  0  0  0  0  0  0  0  0  0
  198.6208  181.2940  157.2327 H   0  0  0  0  0  0  0  0  0  0  0  0
  199.3208  183.4058  156.4704 H   0  0  0  0  0  0  0  0  0  0  0  0
  200.7407  178.3787  157.5825 H   0  0  0  0  0  0  0  0  0  0  0  0
  199.2202  179.1204  158.0499 H   0  0  0  0  0  0  0  0  0  0  0  0
  200.7065  178.3619  154.6692 H   0  0  0  0  0  0  0  0  0  0  0  0
  199.4880  177.1170  154.4103 H   0  0  0  0  0  0  0  0  0  0  0  0
  200.6812  176.9196  155.6965 H   0  0  0  0  0  0  0  0  0  0  0  0
  198.6274  179.9977  154.8776 H   0  0  0  0  0  0  0  0  0  0  0  0
  197.4458  179.6170  156.1367 H   0  0  0  0  0  0  0  0  0  0  0  0
  197.5746  178.6379  154.6902 H   0  0  0  0  0  0  0  0  0  0  0  0
  200.0225  187.6846  153.6928 H   0  0  0  0  0  0  0  0  0  0  0  0
  200.3274  188.3617  155.2873 H   0  0  0  0  0  0  0  0  0  0  0  0
  198.9958  188.9788  154.2879 H   0  0  0  0  0  0  0  0  0  0  0  0
  196.0002  186.9068  157.0835 H   0  0  0  0  0  0  0  0  0  0  0  0
  196.7261  185.5781  156.2968 H   0  0  0  0  0  0  0  0  0  0  0  0
  198.0567  183.0897  158.1689 H   0  0  0  0  0  0  0  0  0  0  0  0
  196.5850  181.0722  158.4692 H   0  0  0  0  0  0  0  0  0  0  0  0
  194.2108  181.3720  159.0937 H   0  0  0  0  0  0  0  0  0  0  0  0
  193.2920  183.6910  159.3224 H   0  0  0  0  0  0  0  0  0  0  0  0
  194.7288  185.6608  158.9508 H   0  0  0  0  0  0  0  0  0  0  0  0
  199.5683  186.3486  158.3405 H   0  0  0  0  0  0  0  0  0  0  0  0
  199.0983  185.0972  157.3060 H   0  0  0  0  0  0  0  0  0  0  0  0
  199.2416  184.7604  159.0639 H   0  0  0  0  0  0  0  0  0  0  0  0
  197.9575  187.5657  159.3918 H   0  0  0  0  0  0  0  0  0  0  0  0
  197.5393  186.1895  160.4219 H   0  0  0  0  0  0  0  0  0  0  0  0
  196.2450  187.1216  159.6057 H   0  0  0  0  0  0  0  0  0  0  0  0
  198.5986  177.6523  156.6310 H   0  0  0  0  0  0  0  0  0  0  0  0
  196.6411  186.0987  153.9155 H   0  0  0  0  0  0  0  0  0  0  0  0
  1  2  2  0
  2  3  1  0
  2 23  1  0
  3  4  1  0
  3 22  1  0
  4  5  1  0
  4  9  2  0
  5  6  2  0
  5 68  1  0
  6  7  1  0
  6 33  1  0
  7  8  2  0
  7 34  1  0
  8  9  1  0
  8 35  1  0
  9 10  1  0
 10 11  1  0
 10 36  1  0
 11 12  1  0
 11 37  1  6
 11 38  1  0
 12 13  1  0
 12 17  2  0
 13 14  2  0
 13 39  1  0
 14 15  1  0
 14 40  1  0
 15 16  2  0
 15 18  1  0
 16 17  1  0
 16 41  1  0
 17 42  1  0
 18 19  1  0
 18 43  1  1
 18 44  1  0
 19 20  1  0
 19 21  1  0
 19 67  1  1
 20 45  1  6
 20 46  1  0
 20 47  1  0
 21 48  1  6
 21 49  1  0
 21 50  1  0
 22 51  1  6
 22 52  1  0
 22 53  1  0
 23 24  1  0
 23 54  1  1
 23 55  1  0
 24 25  1  1
 24 31  1  0
 24 32  1  0
 25 26  2  0
 25 30  1  0
 26 27  1  0
 26 56  1  0
 27 28  2  0
 27 57  1  0
 28 29  1  0
 28 58  1  0
 29 30  2  0
 29 59  1  0
 30 60  1  0
 31 61  1  1
 31 62  1  0
 31 63  1  0
 32 64  1  6
 32 65  1  0
 32 66  1  0
M  CHG  2   5   1  19   1
M  END
>  <s_epik_cmdline>  (33) 
J2VwaWtfcHl0aG9uJywgJy1waCcsICc3LjAwMDAwMCcsICctcGh0JywgJzIuMDAwMDAwJywgJy1tcycsICcxNicsICctdG4nLCAnOCcsICctbWEnLCAnMjAwJywgJy1pbWFlJywgJzxpbmZpbGUubWFlPicsICctb21hZScsICc8b3V0ZmlsZS5tYWU+Jw==

>  <s_epik_input>  (33) 
W2NIXTFbY0hdW2NIXVtjSF1bY0hdYzFDKFtDSDNdKShbQ0gzXSlbQ0gyXUMoPU8pTihbQ0gzXSljMm5bY0hdW2NIXVtjSF1jMltOSF1bQ0gyXWMzW2NIXVtjSF1jKFtjSF1bY0hdMylbQ0gyXU4oW0NIM10pW0NIM10=

>  <s_i_glide_gridfile>  (33) 
ATP-Grid

>  <s_lp_Force_Field>  (33) 
OPLS_2005

>  <s_lp_Variant>  (33) 
rxn502a____EMOL1018066____EMOL45980405____EMOL50155899-3

>  <s_lp_label>  (33) 
3021_sdstereoexpander_1_neutralizer_1_epik_3_stereoizer_1

>  <s_m_source_file>  (33) 
ATP-VSW-LIGPREP-001-in.maegz

>  <s_sd_BIOSOLVEIT.INFINISEE\_QUERY\_NAME>  (33) 
Ref-Lig

>  <s_sd_BIOSOLVEIT.INFINISEE\_QUERY\_SMILES>  (33) 
S(c1nc2c(cc1C[NH2+]Cc3ccc(cc3)C[NH+](C)C)cccc2)Cc4ccccc4

>  <s_sd_BIOSOLVEIT.INFINISEE\_REACTION\_NAME>  (33) 
rxn502a

>  <s_sd_BIOSOLVEIT.INFINISEE\_REAGENT1\_NAME>  (33) 
EMOL1018066

>  <s_sd_BIOSOLVEIT.INFINISEE\_REAGENT1\_SMILES>  (33) 
O=C(O)CC(c1ccccc1)(C)C

>  <s_sd_BIOSOLVEIT.INFINISEE\_REAGENT2\_NAME>  (33) 
EMOL45980405

>  <s_sd_BIOSOLVEIT.INFINISEE\_REAGENT2\_SMILES>  (33) 
Ic1c(nccc1)NC

>  <s_sd_BIOSOLVEIT.INFINISEE\_REAGENT3\_NAME>  (33) 
EMOL50155899

>  <s_sd_BIOSOLVEIT.INFINISEE\_REAGENT3\_SMILES>  (33) 
N(Cc1ccc(cc1)CN)(C)C

>  <s_sd_BIOSOLVEIT.INFINISEE\_SPACE>  (33) 
eXplore_7tr_2022-12

>  <s_vsw_compound_code>  (33) 
96641

>  <s_vsw_variant>  (33) 
96641-3

>  <r_epik_Charging_Adjusted_Penalty>  (33) 
4.3916987909416996

>  <r_epik_Ionization_Penalty>  (33) 
2.1958000000000002

>  <r_epik_Ionization_Penalty_Charging>  (33) 
2.1958000000000002

>  <r_epik_Ionization_Penalty_Neutral>  (33) 
0

>  <r_epik_State_Penalty>  (33) 
2.1958000000000002

>  <r_i_docking_score>  (33) 
-2.0124035438572601

>  <r_i_glide_ecoul>  (33) 
-11.703501701355

>  <r_i_glide_eff_state_penalty>  (33) 
2.1958000000000002

>  <r_i_glide_einternal>  (33) 
4.2717566490173304

>  <r_i_glide_emodel>  (33) 
-54.4504209319484

>  <r_i_glide_energy>  (33) 
-39.895897865295403

>  <r_i_glide_erotb>  (33) 
0.85068090411187802

>  <r_i_glide_esite>  (33) 
-0.10642818080346

>  <r_i_glide_evdw>  (33) 
-28.192396163940401

>  <r_i_glide_gscore>  (33) 
-4.2082035438572598

>  <r_i_glide_hbond>  (33) 
-0.14077491492011299

>  <r_i_glide_ligand_efficiency>  (33) 
-0.062887610745539294

>  <r_i_glide_ligand_efficiency_ln>  (33) 
-0.45063200951843402

>  <r_i_glide_ligand_efficiency_sa>  (33) 
-0.19965571867581999

>  <r_i_glide_lipo>  (33) 
-0.86719010011264797

>  <r_i_glide_metal>  (33) 
-0

>  <r_i_glide_rewards>  (33) 
-0.77934618873264705

>  <r_lp_Energy>  (33) 
41.754860999999998

>  <r_lp_tautomer_probability>  (33) 
0.99984579293731701

>  <r_qp_ACxDN^.5/SA>  (33) 
0.0101913

>  <r_qp_CIQPlogS>  (33) 
-5.194

>  <r_qp_EA(eV)>  (33) 
0.36399999999999999

>  <r_qp_FISA>  (33) 
35.93

>  <r_qp_FOSA>  (33) 
346.51900000000001

>  <r_qp_IP(eV)>  (33) 
8.7569999999999997

>  <r_qp_Jm>  (33) 
0.66953985948746997

>  <r_qp_PISA>  (33) 
304.41300000000001

>  <r_qp_PSA>  (33) 
49.512

>  <r_qp_PercentHumanOralAbsorption>  (33) 
100

>  <r_qp_QPPCaco>  (33) 
1127.4000000000001

>  <r_qp_QPPMDCK>  (33) 
623.04600000000005

>  <r_qp_QPlogBB>  (33) 
0.107

>  <r_qp_QPlogHERG>  (33) 
-5.7350000000000003

>  <r_qp_QPlogKhsa>  (33) 
0.64100000000000001

>  <r_qp_QPlogKp>  (33) 
-2.3079999999999998

>  <r_qp_QPlogPC16>  (33) 
13.625

>  <r_qp_QPlogPo/w>  (33) 
4.6550000000000002

>  <r_qp_QPlogPoct>  (33) 
20.690999999999999

>  <r_qp_QPlogPw>  (33) 
10.061

>  <r_qp_QPlogS>  (33) 
-3.5

>  <r_qp_QPpolrz>  (33) 
46.402999999999999

>  <r_qp_SASA>  (33) 
686.86199999999997

>  <r_qp_SAamideO>  (33) 
0

>  <r_qp_SAfluorine>  (33) 
0

>  <r_qp_WPSA>  (33) 
0

>  <r_qp_accptHB>  (33) 
7

>  <r_qp_dip^2/V>  (33) 
0.0200731

>  <r_qp_dipole>  (33) 
5.2729999999999997

>  <r_qp_donorHB>  (33) 
1

>  <r_qp_glob>  (33) 
0.8748515

>  <r_qp_mol_MW>  (33) 
430.59199999999998

>  <r_qp_volume>  (33) 
1385.0260000000001

>  <r_sd_BIOSOLVEIT.INFINISEE\_FTREES\_SIMILARITY>  (33) 
0.90200000000000002

>  <r_sd_BIOSOLVEIT.LOGP>  (33) 
3.6688999999999998

>  <r_sd_BIOSOLVEIT.MOLECULAR\_WEIGHT>  (33) 
431.601

>  <r_sd_BIOSOLVEIT.TPSA>  (33) 
49.670000000000002

>  <i_epik_Tot_Q>  (33) 
2

>  <i_epik_Tot_abs_Q>  (33) 
2

>  <i_f3d_flags>  (33) 
0

>  <i_i_glide_confnum>  (33) 
5

>  <i_i_glide_lignum>  (33) 
4

>  <i_i_glide_posenum>  (33) 
4

>  <i_i_glide_rotatable_bonds>  (33) 
10

>  <i_lp_mmshare_version>  (33) 
65135

>  <i_m_ct_format>  (33) 
2

>  <i_m_source_file_index>  (33) 
3021

>  <i_qp_#NandO>  (33) 
5

>  <i_qp_#acid>  (33) 
0

>  <i_qp_#amide>  (33) 
0

>  <i_qp_#amidine>  (33) 
0

>  <i_qp_#amine>  (33) 
1

>  <i_qp_#in34>  (33) 
0

>  <i_qp_#in56>  (33) 
18

>  <i_qp_#metab>  (33) 
10

>  <i_qp_#nonHatm>  (33) 
32

>  <i_qp_#noncon>  (33) 
0

>  <i_qp_#ringatoms>  (33) 
18

>  <i_qp_#rotor>  (33) 
9

>  <i_qp_#rtvFG>  (33) 
0

>  <i_qp_#stars>  (33) 
1

>  <i_qp_CNS>  (33) 
1

>  <i_qp_HumanOralAbsorption>  (33) 
1

>  <i_qp_RuleOfFive>  (33) 
0

>  <i_qp_RuleOfThree>  (33) 
1

>  <i_sd_BIOSOLVEIT.INFINISEE\_RESULT\_RANK>  (33) 
88321

>  <i_sd_version>  (33) 
0

>  <b_lp_Chiralities_Consistent>  (33) 
1

>  <b_sd_chiral_flag>  (33) 
0

>  <canonical_id>  (33) 
ATP-HTVS-053279755E30

>  <compound_code>  (33) 
96641

>  <title>  (33) 
rxn502a____EMOL1018066____EMOL45980405____EMOL50155899

>  <variant>  (33) 
96641-3

>  <source_file>  (33) 
运行/运行/ATP-VSW/ATP-VSW-DOCK_HTVS_1-002_lib.maegz

>  <canonical_smiles>  (33) 
CN(C(=O)CC(C)(C)c1ccccc1)c1[nH+]cccc1NCc1ccc(C[NH+](C)C)cc1

>  <scaffold>  (33) 
O=C(CCc1ccccc1)Nc1[nH+]cccc1NCc1ccccc1

>  <molecular_formula>  (33) 
C27H36N4O+2

$$$$
ATP-HTVS-0587EECAF94B
     RDKit          3D

 56 58  0  0  0  0  0  0  0  0999 V2000
  202.2559  173.4444  153.1008 S   0  0  0  0  0  0  0  0  0  0  0  0
  201.5937  175.0000  152.6586 C   0  0  0  0  0  0  0  0  0  0  0  0
  201.3011  175.1884  151.2198 C   0  0  0  0  0  0  0  0  0  0  0  0
  202.2499  175.2243  150.4350 O   0  0  0  0  0  0  0  0  0  0  0  0
  199.9988  175.3101  150.8387 N   0  0  0  0  0  0  0  0  0  0  0  0
  199.6419  175.5443  149.4219 C   0  0  1  0  0  0  0  0  0  0  0  0
  198.8135  176.7991  149.1726 C   0  0  0  0  0  0  0  0  0  0  0  0
  198.4165  177.6732  150.2245 C   0  0  0  0  0  0  0  0  0  0  0  0
  197.5708  178.7166  150.0303 C   0  0  0  0  0  0  0  0  0  0  0  0
  197.1329  179.0426  148.7156 C   0  0  0  0  0  0  0  0  0  0  0  0
  197.5661  178.2501  147.6334 C   0  0  0  0  0  0  0  0  0  0  0  0
  198.3866  177.1124  147.8582 C   0  0  0  0  0  0  0  0  0  0  0  0
  198.8480  175.1624  151.7635 C   0  0  2  0  0  0  0  0  0  0  0  0
  201.4336  175.8094  153.7599 C   0  0  0  0  0  0  0  0  0  0  0  0
  200.8959  177.1153  153.7229 N   0  0  0  0  0  0  0  0  0  0  0  0
  200.8971  178.0249  154.8525 C   0  0  1  0  0  0  0  0  0  0  0  0
  199.7541  179.0124  154.8072 C   0  0  0  0  0  0  0  0  0  0  0  0
  198.4908  178.6450  155.3134 C   0  0  0  0  0  0  0  0  0  0  0  0
  197.4318  179.5706  155.3042 C   0  0  0  0  0  0  0  0  0  0  0  0
  197.6315  180.8717  154.8035 C   0  0  0  0  0  0  0  0  0  0  0  0
  198.8914  181.2281  154.2750 C   0  0  0  0  0  0  0  0  0  0  0  0
  199.9496  180.3026  154.2799 C   0  0  0  0  0  0  0  0  0  0  0  0
  196.5226  181.9091  154.8813 C   0  0  1  0  0  0  0  0  0  0  0  0
  196.5294  182.6602  156.1649 N   0  0  2  0  0  0  0  0  0  0  0  0
  197.7848  183.4097  156.4129 C   0  0  2  0  0  0  0  0  0  0  0  0
  196.1295  181.8378  157.3242 C   0  0  2  0  0  0  0  0  0  0  0  0
  201.8333  175.1702  154.9770 C   0  0  0  0  0  0  0  0  0  0  0  0
  202.2978  173.8977  154.7815 C   0  0  0  0  0  0  0  0  0  0  0  0
  200.5181  175.6066  148.7741 H   0  0  0  0  0  0  0  0  0  0  0  0
  199.1115  174.6644  149.0585 H   0  0  0  0  0  0  0  0  0  0  0  0
  198.7582  177.4765  151.2616 H   0  0  0  0  0  0  0  0  0  0  0  0
  197.2228  179.3064  150.8760 H   0  0  0  0  0  0  0  0  0  0  0  0
  196.5019  179.9029  148.5621 H   0  0  0  0  0  0  0  0  0  0  0  0
  197.2850  178.5189  146.6249 H   0  0  0  0  0  0  0  0  0  0  0  0
  198.6913  176.5034  147.0166 H   0  0  0  0  0  0  0  0  0  0  0  0
  199.0959  175.5556  152.7447 H   0  0  0  0  0  0  0  0  0  0  0  0
  198.5226  174.1350  151.8508 H   0  0  0  0  0  0  0  0  0  0  0  0
  197.9861  175.7658  151.4634 H   0  0  0  0  0  0  0  0  0  0  0  0
  200.6615  177.5103  152.8232 H   0  0  0  0  0  0  0  0  0  0  0  0
  200.8334  177.4928  155.8013 H   0  0  0  0  0  0  0  0  0  0  0  0
  201.8456  178.5639  154.8464 H   0  0  0  0  0  0  0  0  0  0  0  0
  198.3342  177.6565  155.7207 H   0  0  0  0  0  0  0  0  0  0  0  0
  196.4786  179.2843  155.7297 H   0  0  0  0  0  0  0  0  0  0  0  0
  199.0617  182.2279  153.9062 H   0  0  0  0  0  0  0  0  0  0  0  0
  200.9166  180.5903  153.8927 H   0  0  0  0  0  0  0  0  0  0  0  0
  196.6284  182.6064  154.0495 H   0  0  0  0  0  0  0  0  0  0  0  0
  195.5526  181.4300  154.7471 H   0  0  0  0  0  0  0  0  0  0  0  0
  198.6385  182.7347  156.4805 H   0  0  0  0  0  0  0  0  0  0  0  0
  197.7363  183.9532  157.3564 H   0  0  0  0  0  0  0  0  0  0  0  0
  197.9767  184.1280  155.6143 H   0  0  0  0  0  0  0  0  0  0  0  0
  196.8554  181.0448  157.5082 H   0  0  0  0  0  0  0  0  0  0  0  0
  195.1525  181.3854  157.1476 H   0  0  0  0  0  0  0  0  0  0  0  0
  196.0598  182.4394  158.2299 H   0  0  0  0  0  0  0  0  0  0  0  0
  201.7687  175.6356  155.9498 H   0  0  0  0  0  0  0  0  0  0  0  0
  202.6628  173.1954  155.5169 H   0  0  0  0  0  0  0  0  0  0  0  0
  195.7878  183.3439  156.0673 H   0  0  0  0  0  0  0  0  0  0  0  0
  1  2  1  0
  1 28  1  0
  2  3  1  0
  2 14  2  0
  3  4  2  0
  3  5  1  0
  5  6  1  0
  5 13  1  0
  6  7  1  0
  6 29  1  6
  6 30  1  0
  7  8  2  0
  7 12  1  0
  8  9  1  0
  8 31  1  0
  9 10  2  0
  9 32  1  0
 10 11  1  0
 10 33  1  0
 11 12  2  0
 11 34  1  0
 12 35  1  0
 13 36  1  1
 13 37  1  0
 13 38  1  0
 14 15  1  0
 14 27  1  0
 15 16  1  0
 15 39  1  0
 16 17  1  0
 16 40  1  1
 16 41  1  0
 17 18  1  0
 17 22  2  0
 18 19  2  0
 18 42  1  0
 19 20  1  0
 19 43  1  0
 20 21  2  0
 20 23  1  0
 21 22  1  0
 21 44  1  0
 22 45  1  0
 23 24  1  0
 23 46  1  6
 23 47  1  0
 24 25  1  0
 24 26  1  0
 24 56  1  6
 25 48  1  1
 25 49  1  0
 25 50  1  0
 26 51  1  1
 26 52  1  0
 26 53  1  0
 27 28  2  0
 27 54  1  0
 28 55  1  0
M  CHG  1  24   1
M  END
>  <s_epik_cmdline>  (34) 
J2VwaWtfcHl0aG9uJywgJy1waCcsICc3LjAwMDAwMCcsICctcGh0JywgJzIuMDAwMDAwJywgJy1tcycsICcxNicsICctdG4nLCAnOCcsICctbWEnLCAnMjAwJywgJy1pbWFlJywgJzxpbmZpbGUubWFlPicsICctb21hZScsICc8b3V0ZmlsZS5tYWU+Jw==

>  <s_epik_input>  (34) 
W2NIXTFbY0hdW2NIXVtjSF1bY0hdYzFbQ0gyXU4oW0NIM10pQyg9TyljMnNbY0hdW2NIXWMyW05IXVtDSDJdYzNbY0hdW2NIXWMoW2NIXVtjSF0zKVtDSDJdTihbQ0gzXSlbQ0gzXQ==

>  <s_i_glide_gridfile>  (34) 
ATP-Grid

>  <s_lp_Force_Field>  (34) 
OPLS_2005

>  <s_lp_Variant>  (34) 
rxn512b____EMOL480996____EMOL525138____EMOL50155899-1

>  <s_lp_label>  (34) 
2231_sdstereoexpander_1_neutralizer_1_epik_1_stereoizer_1

>  <s_m_source_file>  (34) 
ATP-VSW-LIGPREP-003-in.maegz

>  <s_sd_BIOSOLVEIT.INFINISEE\_QUERY\_NAME>  (34) 
Ref-Lig

>  <s_sd_BIOSOLVEIT.INFINISEE\_QUERY\_SMILES>  (34) 
S(c1nc2c(cc1C[NH2+]Cc3ccc(cc3)C[NH+](C)C)cccc2)Cc4ccccc4

>  <s_sd_BIOSOLVEIT.INFINISEE\_REACTION\_NAME>  (34) 
rxn512b

>  <s_sd_BIOSOLVEIT.INFINISEE\_REAGENT1\_NAME>  (34) 
EMOL480996

>  <s_sd_BIOSOLVEIT.INFINISEE\_REAGENT1\_SMILES>  (34) 
N(Cc1ccccc1)C

>  <s_sd_BIOSOLVEIT.INFINISEE\_REAGENT2\_NAME>  (34) 
EMOL525138

>  <s_sd_BIOSOLVEIT.INFINISEE\_REAGENT2\_SMILES>  (34) 
BrC1=C(SC=C1)C(=O)O

>  <s_sd_BIOSOLVEIT.INFINISEE\_REAGENT3\_NAME>  (34) 
EMOL50155899

>  <s_sd_BIOSOLVEIT.INFINISEE\_REAGENT3\_SMILES>  (34) 
N(Cc1ccc(cc1)CN)(C)C

>  <s_sd_BIOSOLVEIT.INFINISEE\_SPACE>  (34) 
eXplore_7tr_2022-12

>  <s_vsw_compound_code>  (34) 
71363

>  <s_vsw_variant>  (34) 
71363-1

>  <r_epik_Charging_Adjusted_Penalty>  (34) 
0.080189274810459593

>  <r_epik_Ionization_Penalty>  (34) 
0.0402

>  <r_epik_Ionization_Penalty_Charging>  (34) 
0.040099999999999997

>  <r_epik_Ionization_Penalty_Neutral>  (34) 
0.0001

>  <r_epik_State_Penalty>  (34) 
0.040099999999999997

>  <r_i_docking_score>  (34) 
-3.9614413779135602

>  <r_i_glide_ecoul>  (34) 
-6.5609602928161603

>  <r_i_glide_eff_state_penalty>  (34) 
0.040099999999999997

>  <r_i_glide_einternal>  (34) 
5.3166313171386701

>  <r_i_glide_emodel>  (34) 
-46.9757584802366

>  <r_i_glide_energy>  (34) 
-36.334825038909898

>  <r_i_glide_erotb>  (34) 
0.87890940793692796

>  <r_i_glide_esite>  (34) 
-0.071470159994810795

>  <r_i_glide_evdw>  (34) 
-29.7738647460938

>  <r_i_glide_gscore>  (34) 
-4.0015413779135596

>  <r_i_glide_hbond>  (34) 
-0.0470741017389463

>  <r_i_glide_ligand_efficiency>  (34) 
-0.141480049211199

>  <r_i_glide_ligand_efficiency_ln>  (34) 
-0.91441698299541996

>  <r_i_glide_ligand_efficiency_sa>  (34) 
-0.42961675669796201

>  <r_i_glide_lipo>  (34) 
-1.3157861584844599

>  <r_i_glide_metal>  (34) 
-0

>  <r_i_glide_rewards>  (34) 
-0.97328308440516598

>  <r_lp_Energy>  (34) 
25.943124999999998

>  <r_lp_tautomer_probability>  (34) 
0.99999274205267796

>  <r_qp_ACxDN^.5/SA>  (34) 
0

>  <r_qp_CIQPlogS>  (34) 
-4.0339999999999998

>  <r_qp_EA(eV)>  (34) 
0.38600000000000001

>  <r_qp_FISA>  (34) 
38.634

>  <r_qp_FOSA>  (34) 
253.02199999999999

>  <r_qp_IP(eV)>  (34) 
8.2639999999999993

>  <r_qp_Jm>  (34) 
0.139263970450272

>  <r_qp_PISA>  (34) 
288.23000000000002

>  <r_qp_PSA>  (34) 
39.570999999999998

>  <r_qp_PercentHumanOralAbsorption>  (34) 
93.858000000000004

>  <r_qp_QPPCaco>  (34) 
265.05399999999997

>  <r_qp_QPPMDCK>  (34) 
251.858

>  <r_qp_QPlogBB>  (34) 
0.65900000000000003

>  <r_qp_QPlogHERG>  (34) 
-6.2050000000000001

>  <r_qp_QPlogKhsa>  (34) 
0.48999999999999999

>  <r_qp_QPlogKp>  (34) 
-4.5730000000000004

>  <r_qp_QPlogPC16>  (34) 
12.243

>  <r_qp_QPlogPo/w>  (34) 
4.0199999999999996

>  <r_qp_QPlogPoct>  (34) 
16.646000000000001

>  <r_qp_QPlogPw>  (34) 
6.6200000000000001

>  <r_qp_QPlogS>  (34) 
-1.8779999999999999

>  <r_qp_QPpolrz>  (34) 
40.384

>  <r_qp_SASA>  (34) 
624.12699999999995

>  <r_qp_SAamideO>  (34) 
0

>  <r_qp_SAfluorine>  (34) 
0

>  <r_qp_WPSA>  (34) 
44.241

>  <r_qp_accptHB>  (34) 
5

>  <r_qp_dip^2/V>  (34) 
0.048805599999999998

>  <r_qp_dipole>  (34) 
7.7240000000000002

>  <r_qp_donorHB>  (34) 
0

>  <r_qp_glob>  (34) 
0.88588979999999995

>  <r_qp_mol_MW>  (34) 
393.54599999999999

>  <r_qp_volume>  (34) 
1222.452

>  <r_sd_BIOSOLVEIT.INFINISEE\_FTREES\_SIMILARITY>  (34) 
0.92800000000000005

>  <r_sd_BIOSOLVEIT.LOGP>  (34) 
3.2768999999999999

>  <r_sd_BIOSOLVEIT.MOLECULAR\_WEIGHT>  (34) 
394.55900000000003

>  <r_sd_BIOSOLVEIT.TPSA>  (34) 
36.780000000000001

>  <i_epik_Tot_Q>  (34) 
1

>  <i_epik_Tot_abs_Q>  (34) 
1

>  <i_f3d_flags>  (34) 
0

>  <i_i_glide_confnum>  (34) 
8

>  <i_i_glide_lignum>  (34) 
899

>  <i_i_glide_posenum>  (34) 
18

>  <i_i_glide_rotatable_bonds>  (34) 
9

>  <i_lp_mmshare_version>  (34) 
65135

>  <i_m_ct_format>  (34) 
2

>  <i_m_source_file_index>  (34) 
2231

>  <i_qp_#NandO>  (34) 
4

>  <i_qp_#acid>  (34) 
0

>  <i_qp_#amide>  (34) 
0

>  <i_qp_#amidine>  (34) 
0

>  <i_qp_#amine>  (34) 
2

>  <i_qp_#in34>  (34) 
0

>  <i_qp_#in56>  (34) 
17

>  <i_qp_#metab>  (34) 
6

>  <i_qp_#nonHatm>  (34) 
28

>  <i_qp_#noncon>  (34) 
0

>  <i_qp_#ringatoms>  (34) 
17

>  <i_qp_#rotor>  (34) 
8

>  <i_qp_#rtvFG>  (34) 
0

>  <i_qp_#stars>  (34) 
0

>  <i_qp_CNS>  (34) 
2

>  <i_qp_HumanOralAbsorption>  (34) 
3

>  <i_qp_RuleOfFive>  (34) 
0

>  <i_qp_RuleOfThree>  (34) 
0

>  <i_sd_BIOSOLVEIT.INFINISEE\_RESULT\_RANK>  (34) 
6081

>  <i_sd_version>  (34) 
0

>  <b_lp_Chiralities_Consistent>  (34) 
1

>  <b_sd_chiral_flag>  (34) 
0

>  <canonical_id>  (34) 
ATP-HTVS-0587EECAF94B

>  <compound_code>  (34) 
71363

>  <title>  (34) 
rxn512b____EMOL480996____EMOL525138____EMOL50155899

>  <variant>  (34) 
71363-1

>  <source_file>  (34) 
运行/运行/ATP-VSW/ATP-VSW-DOCK_HTVS_1-003_lib/ATP-VSW-DOCK_HTVS_1-003_lib.mae

>  <canonical_smiles>  (34) 
CN(Cc1ccccc1)C(=O)c1sccc1NCc1ccc(C[NH+](C)C)cc1

>  <scaffold>  (34) 
O=C(NCc1ccccc1)c1sccc1NCc1ccccc1

>  <molecular_formula>  (34) 
C23H28N3OS+

$$$$
ATP-HTVS-05A72EDFB57A
     RDKit          3D

 50 53  0  0  0  0  0  0  0  0999 V2000
  193.6610  183.8358  158.9308 Cl  0  0  0  0  0  0  0  0  0  0  0  0
  195.3264  184.1933  159.2301 C   0  0  0  0  0  0  0  0  0  0  0  0
  195.6974  185.4723  159.6926 C   0  0  0  0  0  0  0  0  0  0  0  0
  194.7523  186.4170  159.9586 O   0  0  0  0  0  0  0  0  0  0  0  0
  197.0556  185.7996  159.8627 C   0  0  0  0  0  0  0  0  0  0  0  0
  198.0455  184.8355  159.6038 C   0  0  0  0  0  0  0  0  0  0  0  0
  197.6817  183.5472  159.1852 C   0  0  0  0  0  0  0  0  0  0  0  0
  196.3219  183.2236  158.9719 C   0  0  0  0  0  0  0  0  0  0  0  0
  195.9767  181.8468  158.4055 C   0  0  1  0  0  0  0  0  0  0  0  0
  195.9419  181.8391  156.9252 N   0  0  1  0  0  0  0  0  0  0  0  0
  196.9614  182.6542  156.2295 C   0  0  1  0  0  0  0  0  0  0  0  0
  197.2106  182.2168  154.7833 C   0  0  1  0  0  0  0  0  0  0  0  0
  198.1152  183.1682  154.0993 N   0  0  0  0  0  0  0  0  0  0  0  0
  199.3005  182.6284  153.7365 C   0  0  0  0  0  0  0  0  0  0  0  0
  200.2373  183.1623  153.1414 O   0  0  0  0  0  0  0  0  0  0  0  0
  199.2462  181.2096  154.1485 C   0  0  0  0  0  0  0  0  0  0  0  0
  198.0288  180.9422  154.7499 C   0  0  0  0  0  0  0  0  0  0  0  0
  197.7339  179.6622  155.2513 C   0  0  0  0  0  0  0  0  0  0  0  0
  198.7151  178.6556  155.1110 C   0  0  0  0  0  0  0  0  0  0  0  0
  199.9452  178.9238  154.4623 C   0  0  0  0  0  0  0  0  0  0  0  0
  200.2285  180.2189  153.9724 C   0  0  0  0  0  0  0  0  0  0  0  0
  197.6544  184.5016  153.7125 C   0  0  1  0  0  0  0  0  0  0  0  0
  197.5503  184.6745  152.2074 C   0  0  0  0  0  0  0  0  0  0  0  0
  198.2982  185.6806  151.5551 C   0  0  0  0  0  0  0  0  0  0  0  0
  198.1997  185.8382  150.1593 C   0  0  0  0  0  0  0  0  0  0  0  0
  197.3611  184.9921  149.4104 C   0  0  0  0  0  0  0  0  0  0  0  0
  196.6195  183.9866  150.0591 C   0  0  0  0  0  0  0  0  0  0  0  0
  196.7138  183.8274  151.4539 C   0  0  0  0  0  0  0  0  0  0  0  0
  196.0249  180.8561  156.6836 H   0  0  0  0  0  0  0  0  0  0  0  0
  193.9125  186.2224  159.5425 H   0  0  0  0  0  0  0  0  0  0  0  0
  197.3427  186.7886  160.2012 H   0  0  0  0  0  0  0  0  0  0  0  0
  199.0951  185.0879  159.7142 H   0  0  0  0  0  0  0  0  0  0  0  0
  198.4554  182.8160  158.9938 H   0  0  0  0  0  0  0  0  0  0  0  0
  196.7294  181.1267  158.7419 H   0  0  0  0  0  0  0  0  0  0  0  0
  195.0224  181.4718  158.7850 H   0  0  0  0  0  0  0  0  0  0  0  0
  196.6307  183.6944  156.2674 H   0  0  0  0  0  0  0  0  0  0  0  0
  197.9266  182.5977  156.7375 H   0  0  0  0  0  0  0  0  0  0  0  0
  196.2832  182.1096  154.2164 H   0  0  0  0  0  0  0  0  0  0  0  0
  196.7985  179.4347  155.7376 H   0  0  0  0  0  0  0  0  0  0  0  0
  198.5111  177.6664  155.4973 H   0  0  0  0  0  0  0  0  0  0  0  0
  200.6710  178.1315  154.3424 H   0  0  0  0  0  0  0  0  0  0  0  0
  201.1637  180.4375  153.4736 H   0  0  0  0  0  0  0  0  0  0  0  0
  196.6662  184.6956  154.1310 H   0  0  0  0  0  0  0  0  0  0  0  0
  198.3228  185.2530  154.1389 H   0  0  0  0  0  0  0  0  0  0  0  0
  198.9449  186.3324  152.1228 H   0  0  0  0  0  0  0  0  0  0  0  0
  198.7751  186.6079  149.6644 H   0  0  0  0  0  0  0  0  0  0  0  0
  197.2859  185.1100  148.3397 H   0  0  0  0  0  0  0  0  0  0  0  0
  195.9814  183.3365  149.4857 H   0  0  0  0  0  0  0  0  0  0  0  0
  196.1347  183.0580  151.9469 H   0  0  0  0  0  0  0  0  0  0  0  0
  195.0262  182.1551  156.5960 H   0  0  0  0  0  0  0  0  0  0  0  0
  1  2  1  0
  2  3  2  0
  2  8  1  0
  3  4  1  0
  3  5  1  0
  4 30  1  0
  5  6  2  0
  5 31  1  0
  6  7  1  0
  6 32  1  0
  7  8  2  0
  7 33  1  0
  8  9  1  0
  9 10  1  0
  9 34  1  6
  9 35  1  0
 10 11  1  0
 10 29  1  6
 10 50  1  0
 11 12  1  0
 11 36  1  6
 11 37  1  0
 12 13  1  0
 12 17  1  0
 12 38  1  6
 13 14  1  0
 13 22  1  0
 14 15  2  0
 14 16  1  0
 16 17  1  0
 16 21  2  0
 17 18  2  0
 18 19  1  0
 18 39  1  0
 19 20  2  0
 19 40  1  0
 20 21  1  0
 20 41  1  0
 21 42  1  0
 22 23  1  0
 22 43  1  1
 22 44  1  0
 23 24  2  0
 23 28  1  0
 24 25  1  0
 24 45  1  0
 25 26  2  0
 25 46  1  0
 26 27  1  0
 26 47  1  0
 27 28  2  0
 27 48  1  0
 28 49  1  0
M  CHG  1  10   1
M  END
>  <s_epik_cmdline>  (35) 
J2VwaWtfcHl0aG9uJywgJy1waCcsICc3LjAwMDAwMCcsICctcGh0JywgJzIuMDAwMDAwJywgJy1tcycsICcxNicsICctdG4nLCAnOCcsICctbWEnLCAnMjAwJywgJy1pbWFlJywgJzxpbmZpbGUubWFlPicsICctb21hZScsICc8b3V0ZmlsZS5tYWU+Jw==

>  <s_epik_input>  (35) 
Q2xjMWMoW09IXSlbY0hdW2NIXVtjSF1jMVtDSDJdW05IXVtDSDJdW0NASF0oYyhjMjMpW2NIXVtjSF1bY0hdW2NIXTMpTihDMj1PKVtDSDJdYzRbY0hdW2NIXVtjSF1bY0hdW2NIXTQ=

>  <s_i_glide_gridfile>  (35) 
ATP-Grid

>  <s_lp_Force_Field>  (35) 
OPLS_2005

>  <s_lp_Variant>  (35) 
m_270004cbb____12219716____10544606-2

>  <s_lp_label>  (35) 
1216_sdstereoexpander_2_neutralizer_1_epik_1_stereoizer_1

>  <s_m_source_file>  (35) 
ATP-VSW-LIGPREP-003-in.maegz

>  <s_sd_BIOSOLVEIT.INFINISEE\_QUERY\_NAME>  (35) 
Ref-Lig

>  <s_sd_BIOSOLVEIT.INFINISEE\_QUERY\_SMILES>  (35) 
S(c1nc2c(cc1C[NH2+]Cc3ccc(cc3)C[NH+](C)C)cccc2)Cc4ccccc4

>  <s_sd_BIOSOLVEIT.INFINISEE\_REACTION\_NAME>  (35) 
m_270004cbb

>  <s_sd_BIOSOLVEIT.INFINISEE\_REAGENT1\_SMILES>  (35) 
[R1*]NCC1N(C(=O)c2c1cccc2)Cc3ccccc3

>  <s_sd_BIOSOLVEIT.INFINISEE\_REAGENT2\_SMILES>  (35) 
[R1*]Cc1c(Cl)c(O)ccc1

>  <s_sd_BIOSOLVEIT.INFINISEE\_SPACE>  (35) 
REALSpace_44bn_2023-08

>  <s_vsw_compound_code>  (35) 
38883

>  <s_vsw_variant>  (35) 
38883-2

>  <r_epik_Charging_Adjusted_Penalty>  (35) 
0.27458601802278099

>  <r_epik_Ionization_Penalty>  (35) 
0.20960000000000001

>  <r_epik_Ionization_Penalty_Charging>  (35) 
0.079100000000000004

>  <r_epik_Ionization_Penalty_Neutral>  (35) 
0.1305

>  <r_epik_State_Penalty>  (35) 
0.19550000000000001

>  <r_i_docking_score>  (35) 
-5.9731481152986499

>  <r_i_glide_ecoul>  (35) 
-13.9361028671265

>  <r_i_glide_eff_state_penalty>  (35) 
0.19550000000000001

>  <r_i_glide_einternal>  (35) 
5.0240945816040004

>  <r_i_glide_emodel>  (35) 
-70.866279628102603

>  <r_i_glide_energy>  (35) 
-46.9344320297241

>  <r_i_glide_erotb>  (35) 
0.75565003809435805

>  <r_i_glide_esite>  (35) 
-0.103067610286045

>  <r_i_glide_evdw>  (35) 
-32.998329162597699

>  <r_i_glide_gscore>  (35) 
-6.1686481152986499

>  <r_i_glide_hbond>  (35) 
-0.643918602231355

>  <r_i_glide_ligand_efficiency>  (35) 
-0.21332671840352299

>  <r_i_glide_ligand_efficiency_ln>  (35) 
-1.3787779642603

>  <r_i_glide_ligand_efficiency_sa>  (35) 
-0.64778555979104502

>  <r_i_glide_lipo>  (35) 
-1.71347332540403

>  <r_i_glide_metal>  (35) 
-0

>  <r_i_glide_rewards>  (35) 
-0.72350672727272602

>  <r_lp_Energy>  (35) 
45.8506

>  <r_lp_tautomer_probability>  (35) 
0.999999999997365

>  <r_qp_ACxDN^.5/SA>  (35) 
0.0107832

>  <r_qp_CIQPlogS>  (35) 
-5.1790000000000003

>  <r_qp_EA(eV)>  (35) 
0.26700000000000002

>  <r_qp_FISA>  (35) 
77.233999999999995

>  <r_qp_FOSA>  (35) 
88.019999999999996

>  <r_qp_IP(eV)>  (35) 
8.9649999999999999

>  <r_qp_Jm>  (35) 
0.0251698604648153

>  <r_qp_PISA>  (35) 
488.81799999999998

>  <r_qp_PSA>  (35) 
61.314999999999998

>  <r_qp_PercentHumanOralAbsorption>  (35) 
100

>  <r_qp_QPPCaco>  (35) 
457.5

>  <r_qp_QPPMDCK>  (35) 
363.03699999999998

>  <r_qp_QPlogBB>  (35) 
-0.161

>  <r_qp_QPlogHERG>  (35) 
-7.6699999999999999

>  <r_qp_QPlogKhsa>  (35) 
0.60699999999999998

>  <r_qp_QPlogKp>  (35) 
-2.6110000000000002

>  <r_qp_QPlogPC16>  (35) 
14.42

>  <r_qp_QPlogPo/w>  (35) 
4.3330000000000002

>  <r_qp_QPlogPoct>  (35) 
20.82

>  <r_qp_QPlogPw>  (35) 
11.795

>  <r_qp_QPlogS>  (35) 
-4.5819999999999999

>  <r_qp_QPpolrz>  (35) 
43.546999999999997

>  <r_qp_SASA>  (35) 
688.53700000000003

>  <r_qp_SAamideO>  (35) 
0

>  <r_qp_SAfluorine>  (35) 
0

>  <r_qp_WPSA>  (35) 
34.465000000000003

>  <r_qp_accptHB>  (35) 
5.25

>  <r_qp_dip^2/V>  (35) 
0.034917999999999998

>  <r_qp_dipole>  (35) 
6.5739999999999998

>  <r_qp_donorHB>  (35) 
2

>  <r_qp_glob>  (35) 
0.80962049999999997

>  <r_qp_mol_MW>  (35) 
392.88400000000001

>  <r_qp_volume>  (35) 
1237.557

>  <r_sd_BIOSOLVEIT.INFINISEE\_FTREES\_SIMILARITY>  (35) 
0.91100000000000003

>  <r_sd_BIOSOLVEIT.LOGP>  (35) 
3.5063

>  <r_sd_BIOSOLVEIT.MOLECULAR\_WEIGHT>  (35) 
393.892

>  <r_sd_BIOSOLVEIT.TPSA>  (35) 
57.149999999999999

>  <i_epik_Tot_Q>  (35) 
1

>  <i_epik_Tot_abs_Q>  (35) 
1

>  <i_f3d_flags>  (35) 
0

>  <i_i_glide_confnum>  (35) 
4

>  <i_i_glide_lignum>  (35) 
503

>  <i_i_glide_posenum>  (35) 
2

>  <i_i_glide_rotatable_bonds>  (35) 
7

>  <i_lp_mmshare_version>  (35) 
65135

>  <i_m_ct_format>  (35) 
2

>  <i_m_source_file_index>  (35) 
1216

>  <i_qp_#NandO>  (35) 
4

>  <i_qp_#acid>  (35) 
0

>  <i_qp_#amide>  (35) 
0

>  <i_qp_#amidine>  (35) 
0

>  <i_qp_#amine>  (35) 
1

>  <i_qp_#in34>  (35) 
0

>  <i_qp_#in56>  (35) 
21

>  <i_qp_#metab>  (35) 
5

>  <i_qp_#nonHatm>  (35) 
28

>  <i_qp_#noncon>  (35) 
1

>  <i_qp_#ringatoms>  (35) 
21

>  <i_qp_#rotor>  (35) 
7

>  <i_qp_#rtvFG>  (35) 
0

>  <i_qp_#stars>  (35) 
1

>  <i_qp_CNS>  (35) 
1

>  <i_qp_HumanOralAbsorption>  (35) 
3

>  <i_qp_RuleOfFive>  (35) 
0

>  <i_qp_RuleOfThree>  (35) 
0

>  <i_sd_BIOSOLVEIT.INFINISEE\_REAGENT1\_NAME>  (35) 
12219716

>  <i_sd_BIOSOLVEIT.INFINISEE\_REAGENT2\_NAME>  (35) 
10544606

>  <i_sd_BIOSOLVEIT.INFINISEE\_RESULT\_RANK>  (35) 
41270

>  <i_sd_version>  (35) 
0

>  <b_lp_Chiralities_Consistent>  (35) 
1

>  <b_sd_chiral_flag>  (35) 
0

>  <canonical_id>  (35) 
ATP-HTVS-05A72EDFB57A

>  <compound_code>  (35) 
38883

>  <title>  (35) 
m_270004cbb____12219716____10544606

>  <variant>  (35) 
38883-2

>  <source_file>  (35) 
运行/运行/ATP-VSW/ATP-VSW-DOCK_HTVS_1-003_lib/ATP-VSW-DOCK_HTVS_1-003_lib.mae

>  <canonical_smiles>  (35) 
O=C1c2ccccc2[C@@H](C[NH2+]Cc2cccc(O)c2Cl)N1Cc1ccccc1

>  <scaffold>  (35) 
O=C1c2ccccc2C(C[NH2+]Cc2ccccc2)N1Cc1ccccc1

>  <molecular_formula>  (35) 
C23H22ClN2O2+

$$$$
ATP-HTVS-05E9E2FC066B
     RDKit          3D

 66 69  0  0  0  0  0  0  0  0999 V2000
  199.3723  180.7279  155.1906 O   0  0  0  0  0  0  0  0  0  0  0  0
  200.1141  181.4028  155.9091 C   0  0  0  0  0  0  0  0  0  0  0  0
  199.6908  182.2403  156.8870 N   0  0  0  0  0  0  0  0  0  0  0  0
  198.3672  182.5138  157.3810 C   0  0  0  0  0  0  0  0  0  0  0  0
  198.2426  183.4746  158.4433 C   0  0  0  0  0  0  0  0  0  0  0  0
  199.3965  184.1254  158.9727 N   0  0  0  0  0  0  0  0  0  0  0  0
  199.5486  185.5880  158.7176 C   0  0  1  0  0  0  0  0  0  0  0  0
  200.7404  186.1888  159.3457 C   0  0  0  0  0  0  0  0  0  0  0  0
  201.6411  186.6940  159.8450 N   0  0  0  0  0  0  0  0  0  0  0  0
  199.3938  185.9710  157.2551 C   0  0  0  0  0  0  0  0  0  0  0  0
  198.1049  186.0971  156.6898 C   0  0  0  0  0  0  0  0  0  0  0  0
  197.9524  186.4490  155.3392 C   0  0  0  0  0  0  0  0  0  0  0  0
  199.0845  186.7136  154.5475 C   0  0  0  0  0  0  0  0  0  0  0  0
  200.3759  186.5987  155.1045 C   0  0  0  0  0  0  0  0  0  0  0  0
  200.5307  186.2143  156.4532 C   0  0  0  0  0  0  0  0  0  0  0  0
  200.3284  183.3263  159.7700 C   0  0  1  0  0  0  0  0  0  0  0  0
  201.7662  183.2635  159.2230 C   0  0  2  0  0  0  0  0  0  0  0  0
  196.9187  183.7674  158.9014 C   0  0  0  0  0  0  0  0  0  0  0  0
  195.7972  183.1292  158.3069 C   0  0  0  0  0  0  0  0  0  0  0  0
  195.9858  182.2142  157.3241 N   0  0  0  0  0  0  0  0  0  0  0  0
  197.2053  181.8840  156.8610 C   0  0  0  0  0  0  0  0  0  0  0  0
  194.4799  183.4223  158.7101 C   0  0  0  0  0  0  0  0  0  0  0  0
  194.2550  184.3876  159.7132 C   0  0  0  0  0  0  0  0  0  0  0  0
  195.3461  185.0417  160.3072 C   0  0  0  0  0  0  0  0  0  0  0  0
  196.6630  184.7136  159.9341 C   0  0  0  0  0  0  0  0  0  0  0  0
  201.6132  181.3584  155.7451 C   0  0  0  0  0  0  0  0  0  0  0  0
  202.3369  180.1402  155.5733 C   0  0  0  0  0  0  0  0  0  0  0  0
  203.7655  180.1943  155.4774 C   0  0  0  0  0  0  0  0  0  0  0  0
  204.4655  181.4105  155.6033 C   0  0  0  0  0  0  0  0  0  0  0  0
  203.7467  182.6027  155.7865 C   0  0  0  0  0  0  0  0  0  0  0  0
  202.3293  182.5819  155.8421 C   0  0  0  0  0  0  0  0  0  0  0  0
  201.7150  178.7416  155.4581 C   0  0  1  0  0  0  0  0  0  0  0  0
  201.5093  178.0515  156.7774 N   0  0  1  0  0  0  0  0  0  0  0  0
  200.4808  178.6926  157.6420 C   0  0  2  0  0  0  0  0  0  0  0  0
  201.2031  176.6227  156.6129 C   0  0  2  0  0  0  0  0  0  0  0  0
  200.3967  182.7211  157.3924 H   0  0  0  0  0  0  0  0  0  0  0  0
  198.7514  186.1520  159.2287 H   0  0  0  0  0  0  0  0  0  0  0  0
  197.2154  185.9221  157.2753 H   0  0  0  0  0  0  0  0  0  0  0  0
  196.9568  186.5252  154.9333 H   0  0  0  0  0  0  0  0  0  0  0  0
  198.9617  187.0135  153.5200 H   0  0  0  0  0  0  0  0  0  0  0  0
  201.2492  186.8090  154.5088 H   0  0  0  0  0  0  0  0  0  0  0  0
  201.5254  186.1243  156.8622 H   0  0  0  0  0  0  0  0  0  0  0  0
  200.3243  183.6590  160.7975 H   0  0  0  0  0  0  0  0  0  0  0  0
  199.9784  182.3054  159.7708 H   0  0  0  0  0  0  0  0  0  0  0  0
  202.3988  182.5560  159.7704 H   0  0  0  0  0  0  0  0  0  0  0  0
  202.2932  184.2443  159.1828 H   0  0  0  0  0  0  0  0  0  0  0  0
  201.7546  182.8888  158.1552 H   0  0  0  0  0  0  0  0  0  0  0  0
  197.1826  181.1352  156.0837 H   0  0  0  0  0  0  0  0  0  0  0  0
  193.6408  182.9310  158.2432 H   0  0  0  0  0  0  0  0  0  0  0  0
  193.2508  184.6198  160.0293 H   0  0  0  0  0  0  0  0  0  0  0  0
  195.1829  185.7878  161.0715 H   0  0  0  0  0  0  0  0  0  0  0  0
  197.4650  185.2157  160.4648 H   0  0  0  0  0  0  0  0  0  0  0  0
  204.3447  179.2940  155.3449 H   0  0  0  0  0  0  0  0  0  0  0  0
  205.5471  181.4364  155.5504 H   0  0  0  0  0  0  0  0  0  0  0  0
  204.2700  183.5387  155.9137 H   0  0  0  0  0  0  0  0  0  0  0  0
  201.8348  183.5087  155.9463 H   0  0  0  0  0  0  0  0  0  0  0  0
  200.7627  178.7532  154.8726 H   0  0  0  0  0  0  0  0  0  0  0  0
  202.3933  178.1483  154.8758 H   0  0  0  0  0  0  0  0  0  0  0  0
  199.5203  178.7195  157.1368 H   0  0  0  0  0  0  0  0  0  0  0  0
  200.7766  179.7021  157.9138 H   0  0  0  0  0  0  0  0  0  0  0  0
  200.3283  178.1390  158.5907 H   0  0  0  0  0  0  0  0  0  0  0  0
  200.2996  176.4751  156.0153 H   0  0  0  0  0  0  0  0  0  0  0  0
  201.0320  176.1611  157.5836 H   0  0  0  0  0  0  0  0  0  0  0  0
  202.0278  176.0960  156.1334 H   0  0  0  0  0  0  0  0  0  0  0  0
  202.4031  178.1040  157.2456 H   0  0  0  0  0  0  0  0  0  0  0  0
  195.1725  181.7845  156.9012 H   0  0  0  0  0  0  0  0  0  0  0  0
  1  2  2  0
  2  3  1  0
  2 26  1  0
  3  4  1  0
  3 36  1  0
  4  5  2  0
  4 21  1  0
  5  6  1  0
  5 18  1  0
  6  7  1  0
  6 16  1  0
  7  8  1  0
  7 10  1  0
  7 37  1  1
  8  9  3  0
 10 11  2  0
 10 15  1  0
 11 12  1  0
 11 38  1  0
 12 13  2  0
 12 39  1  0
 13 14  1  0
 13 40  1  0
 14 15  2  0
 14 41  1  0
 15 42  1  0
 16 17  1  0
 16 43  1  1
 16 44  1  0
 17 45  1  1
 17 46  1  0
 17 47  1  0
 18 19  1  0
 18 25  2  0
 19 20  1  0
 19 22  2  0
 20 21  2  0
 20 66  1  0
 21 48  1  0
 22 23  1  0
 22 49  1  0
 23 24  2  0
 23 50  1  0
 24 25  1  0
 24 51  1  0
 25 52  1  0
 26 27  1  0
 26 31  2  0
 27 28  2  0
 27 32  1  0
 28 29  1  0
 28 53  1  0
 29 30  2  0
 29 54  1  0
 30 31  1  0
 30 55  1  0
 31 56  1  0
 32 33  1  0
 32 57  1  6
 32 58  1  0
 33 34  1  0
 33 35  1  0
 33 65  1  1
 34 59  1  6
 34 60  1  0
 34 61  1  0
 35 62  1  6
 35 63  1  0
 35 64  1  0
M  CHG  2  20   1  33   1
M  END
>  <s_epik_cmdline>  (36) 
J2VwaWtfcHl0aG9uJywgJy1waCcsICc3LjAwMDAwMCcsICctcGh0JywgJzIuMDAwMDAwJywgJy1tcycsICcxNicsICctdG4nLCAnOCcsICctbWEnLCAnMjAwJywgJy1pbWFlJywgJzxpbmZpbGUubWFlPicsICctb21hZScsICc8b3V0ZmlsZS5tYWU+Jw==

>  <s_epik_input>  (36) 
W2NIXTFbY0hdW2NIXVtjSF1jKFtDSDJdTihbQ0gzXSlbQ0gzXSljMUMoPU8pW05IXWMoW2NIXW5jKGMyMylbY0hdW2NIXVtjSF1bY0hdMyljMk4oW0NIMl1bQ0gzXSlbQ0BASF0oQyNOKWM0W2NIXVtjSF1bY0hdW2NIXVtjSF00

>  <s_i_glide_gridfile>  (36) 
ATP-Grid

>  <s_lp_Force_Field>  (36) 
OPLS_2005

>  <s_lp_Variant>  (36) 
rxn502b____EMOL5415347____EMOL30488121____EMOL49839592-1

>  <s_lp_label>  (36) 
2209_sdstereoexpander_1_neutralizer_1_epik_1_stereoizer_1

>  <s_m_source_file>  (36) 
ATP-VSW-LIGPREP-001-in.maegz

>  <s_sd_BIOSOLVEIT.INFINISEE\_QUERY\_NAME>  (36) 
Ref-Lig

>  <s_sd_BIOSOLVEIT.INFINISEE\_QUERY\_SMILES>  (36) 
S(c1nc2c(cc1C[NH2+]Cc3ccc(cc3)C[NH+](C)C)cccc2)Cc4ccccc4

>  <s_sd_BIOSOLVEIT.INFINISEE\_REACTION\_NAME>  (36) 
rxn502b

>  <s_sd_BIOSOLVEIT.INFINISEE\_REAGENT1\_NAME>  (36) 
EMOL5415347

>  <s_sd_BIOSOLVEIT.INFINISEE\_REAGENT1\_SMILES>  (36) 
O=C(O)c1c(cccc1)CN(C)C

>  <s_sd_BIOSOLVEIT.INFINISEE\_REAGENT2\_NAME>  (36) 
EMOL30488121

>  <s_sd_BIOSOLVEIT.INFINISEE\_REAGENT2\_SMILES>  (36) 
Brc1c(N)cnc2c1cccc2

>  <s_sd_BIOSOLVEIT.INFINISEE\_REAGENT3\_NAME>  (36) 
EMOL49839592

>  <s_sd_BIOSOLVEIT.INFINISEE\_REAGENT3\_SMILES>  (36) 
N#CC(NCC)c1ccccc1

>  <s_sd_BIOSOLVEIT.INFINISEE\_SPACE>  (36) 
eXplore_7tr_2022-12

>  <s_vsw_compound_code>  (36) 
70657

>  <s_vsw_variant>  (36) 
70657-1

>  <r_epik_Charging_Adjusted_Penalty>  (36) 
0.363355039951334

>  <r_epik_Ionization_Penalty>  (36) 
0.18190000000000001

>  <r_epik_Ionization_Penalty_Charging>  (36) 
0.18149999999999999

>  <r_epik_Ionization_Penalty_Neutral>  (36) 
0.00040000000000000002

>  <r_epik_State_Penalty>  (36) 
0.18179999999999999

>  <r_i_docking_score>  (36) 
-4.7262251287446402

>  <r_i_glide_ecoul>  (36) 
-10.1595678329468

>  <r_i_glide_eff_state_penalty>  (36) 
0.18179999999999999

>  <r_i_glide_einternal>  (36) 
2.65188765525818

>  <r_i_glide_emodel>  (36) 
-59.4569042870394

>  <r_i_glide_energy>  (36) 
-40.361948966980002

>  <r_i_glide_erotb>  (36) 
0.65126821140173496

>  <r_i_glide_esite>  (36) 
-0.092943860044712903

>  <r_i_glide_evdw>  (36) 
-30.2023811340332

>  <r_i_glide_gscore>  (36) 
-4.9080251287446401

>  <r_i_glide_hbond>  (36) 
-0.0397270821867894

>  <r_i_glide_ligand_efficiency>  (36) 
-0.135035003678418

>  <r_i_glide_ligand_efficiency_ln>  (36) 
-1.0375113086747001

>  <r_i_glide_ligand_efficiency_sa>  (36) 
-0.44170845070519099

>  <r_i_glide_lipo>  (36) 
-1.5475929859010999

>  <r_i_glide_metal>  (36) 
-0

>  <r_i_glide_rewards>  (36) 
-0.844975180370098

>  <r_lp_Energy>  (36) 
49.539053000000003

>  <r_qp_ACxDN^.5/SA>  (36) 
0.0110764

>  <r_qp_CIQPlogS>  (36) 
-6.6950000000000003

>  <r_qp_EA(eV)>  (36) 
1.171

>  <r_qp_FISA>  (36) 
89.994

>  <r_qp_FOSA>  (36) 
199.40299999999999

>  <r_qp_IP(eV)>  (36) 
8.7539999999999996

>  <r_qp_Jm>  (36) 
0.0119749805510937

>  <r_qp_PISA>  (36) 
432.86200000000002

>  <r_qp_PSA>  (36) 
70.004000000000005

>  <r_qp_PercentHumanOralAbsorption>  (36) 
100

>  <r_qp_QPPCaco>  (36) 
346.24900000000002

>  <r_qp_QPPMDCK>  (36) 
173.92500000000001

>  <r_qp_QPlogBB>  (36) 
-0.40500000000000003

>  <r_qp_QPlogHERG>  (36) 
-6.6989999999999998

>  <r_qp_QPlogKhsa>  (36) 
0.56699999999999995

>  <r_qp_QPlogKp>  (36) 
-2.8519999999999999

>  <r_qp_QPlogPC16>  (36) 
15.375

>  <r_qp_QPlogPo/w>  (36) 
4.3300000000000001

>  <r_qp_QPlogPoct>  (36) 
22.734000000000002

>  <r_qp_QPlogPw>  (36) 
12.372999999999999

>  <r_qp_QPlogS>  (36) 
-4.7359999999999998

>  <r_qp_QPpolrz>  (36) 
49.758000000000003

>  <r_qp_SASA>  (36) 
722.25900000000001

>  <r_qp_SAamideO>  (36) 
0

>  <r_qp_SAfluorine>  (36) 
0

>  <r_qp_WPSA>  (36) 
0

>  <r_qp_accptHB>  (36) 
8

>  <r_qp_dip^2/V>  (36) 
0.013665399999999999

>  <r_qp_dipole>  (36) 
4.4329999999999998

>  <r_qp_donorHB>  (36) 
1

>  <r_qp_glob>  (36) 
0.85313879999999997

>  <r_qp_mol_MW>  (36) 
463.58100000000002

>  <r_qp_volume>  (36) 
1438.2059999999999

>  <r_sd_BIOSOLVEIT.INFINISEE\_FTREES\_SIMILARITY>  (36) 
0.93100000000000005

>  <r_sd_BIOSOLVEIT.LOGP>  (36) 
4.2227800000000002

>  <r_sd_BIOSOLVEIT.MOLECULAR\_WEIGHT>  (36) 
464.58999999999997

>  <r_sd_BIOSOLVEIT.TPSA>  (36) 
73.459999999999994

>  <i_epik_Tot_Q>  (36) 
2

>  <i_epik_Tot_abs_Q>  (36) 
2

>  <i_f3d_flags>  (36) 
0

>  <i_i_glide_confnum>  (36) 
7

>  <i_i_glide_lignum>  (36) 
735

>  <i_i_glide_posenum>  (36) 
1

>  <i_i_glide_rotatable_bonds>  (36) 
9

>  <i_lp_mmshare_version>  (36) 
65135

>  <i_m_ct_format>  (36) 
2

>  <i_m_source_file_index>  (36) 
2209

>  <i_qp_#NandO>  (36) 
6

>  <i_qp_#acid>  (36) 
0

>  <i_qp_#amide>  (36) 
0

>  <i_qp_#amidine>  (36) 
0

>  <i_qp_#amine>  (36) 
1

>  <i_qp_#in34>  (36) 
0

>  <i_qp_#in56>  (36) 
22

>  <i_qp_#metab>  (36) 
6

>  <i_qp_#nonHatm>  (36) 
35

>  <i_qp_#noncon>  (36) 
0

>  <i_qp_#ringatoms>  (36) 
22

>  <i_qp_#rotor>  (36) 
9

>  <i_qp_#rtvFG>  (36) 
0

>  <i_qp_#stars>  (36) 
0

>  <i_qp_CNS>  (36) 
1

>  <i_qp_HumanOralAbsorption>  (36) 
3

>  <i_qp_RuleOfFive>  (36) 
0

>  <i_qp_RuleOfThree>  (36) 
0

>  <i_sd_BIOSOLVEIT.INFINISEE\_RESULT\_RANK>  (36) 
4380

>  <i_sd_version>  (36) 
0

>  <b_lp_Chiralities_Consistent>  (36) 
1

>  <b_sd_chiral_flag>  (36) 
0

>  <canonical_id>  (36) 
ATP-HTVS-05E9E2FC066B

>  <compound_code>  (36) 
70657

>  <title>  (36) 
rxn502b____EMOL5415347____EMOL30488121____EMOL49839592

>  <variant>  (36) 
70657-1

>  <source_file>  (36) 
运行/运行/ATP-VSW/ATP-VSW-DOCK_HTVS_1-001_lib/ATP-VSW-DOCK_HTVS_1-001_lib

>  <canonical_smiles>  (36) 
CCN(c1c(NC(=O)c2ccccc2C[NH+](C)C)c[nH+]c2ccccc12)[C@@H](C#N)c1ccccc1

>  <scaffold>  (36) 
O=C(Nc1c[nH+]c2ccccc2c1NCc1ccccc1)c1ccccc1

>  <molecular_formula>  (36) 
C29H31N5O+2

$$$$
ATP-HTVS-0659C124A83C
     RDKit          3D

 56 58  0  0  0  0  0  0  0  0999 V2000
  198.4632  176.2670  148.0077 Cl  0  0  0  0  0  0  0  0  0  0  0  0
  199.0778  176.4082  149.6107 C   0  0  0  0  0  0  0  0  0  0  0  0
  199.8962  175.4370  150.0510 N   0  0  0  0  0  0  0  0  0  0  0  0
  200.4091  175.5318  151.2947 C   0  0  0  0  0  0  0  0  0  0  0  0
  200.1295  176.6149  152.1499 C   0  0  0  0  0  0  0  0  0  0  0  0
  199.2849  177.6437  151.6954 C   0  0  0  0  0  0  0  0  0  0  0  0
  198.9425  178.7413  152.4982 N   0  0  0  0  0  0  0  0  0  0  0  0
  199.4880  178.9631  153.8267 C   0  0  1  0  0  0  0  0  0  0  0  0
  198.7091  179.9904  154.6483 C   0  0  0  0  0  0  0  0  0  0  0  0
  199.3138  180.5404  155.8106 C   0  0  0  0  0  0  0  0  0  0  0  0
  198.6205  181.5064  156.5851 C   0  0  0  0  0  0  0  0  0  0  0  0
  197.3329  181.9273  156.1690 C   0  0  0  0  0  0  0  0  0  0  0  0
  196.7358  181.3632  155.0213 C   0  0  0  0  0  0  0  0  0  0  0  0
  197.3887  180.3628  154.2636 C   0  0  0  0  0  0  0  0  0  0  0  0
  196.5480  182.9505  156.9728 C   0  0  1  0  0  0  0  0  0  0  0  0
  195.6203  182.2980  157.9341 N   0  0  1  0  0  0  0  0  0  0  0  0
  196.3370  181.5578  158.9937 C   0  0  2  0  0  0  0  0  0  0  0  0
  194.6551  183.2652  158.5150 C   0  0  2  0  0  0  0  0  0  0  0  0
  198.7525  177.5514  150.3802 C   0  0  0  0  0  0  0  0  0  0  0  0
  197.9380  178.5226  149.8532 O   0  0  0  0  0  0  0  0  0  0  0  0
  198.5916  179.7340  149.4710 C   0  0  1  0  0  0  0  0  0  0  0  0
  197.8349  180.9690  149.9658 C   0  0  0  0  0  0  0  0  0  0  0  0
  197.0298  180.8741  151.1276 C   0  0  0  0  0  0  0  0  0  0  0  0
  196.4290  182.0349  151.6483 C   0  0  0  0  0  0  0  0  0  0  0  0
  196.5595  183.2781  151.0061 C   0  0  0  0  0  0  0  0  0  0  0  0
  197.2993  183.3685  149.8046 C   0  0  0  0  0  0  0  0  0  0  0  0
  197.9581  182.2193  149.2949 C   0  0  0  0  0  0  0  0  0  0  0  0
  201.3173  174.4160  151.7556 C   0  0  1  0  0  0  0  0  0  0  0  0
  200.6329  173.4315  152.5064 O   0  0  0  0  0  0  0  0  0  0  0  0
  200.5613  176.6318  153.1409 H   0  0  0  0  0  0  0  0  0  0  0  0
  198.3472  179.4422  152.0915 H   0  0  0  0  0  0  0  0  0  0  0  0
  199.4898  178.0350  154.4036 H   0  0  0  0  0  0  0  0  0  0  0  0
  200.5217  179.2902  153.7040 H   0  0  0  0  0  0  0  0  0  0  0  0
  200.2831  180.1974  156.1421 H   0  0  0  0  0  0  0  0  0  0  0  0
  199.0506  181.8841  157.5047 H   0  0  0  0  0  0  0  0  0  0  0  0
  195.7500  181.7038  154.7446 H   0  0  0  0  0  0  0  0  0  0  0  0
  196.8853  179.9019  153.4380 H   0  0  0  0  0  0  0  0  0  0  0  0
  197.2285  183.6363  157.4847 H   0  0  0  0  0  0  0  0  0  0  0  0
  195.9714  183.5473  156.2578 H   0  0  0  0  0  0  0  0  0  0  0  0
  196.9821  182.2415  159.5436 H   0  0  0  0  0  0  0  0  0  0  0  0
  196.9665  180.7656  158.5890 H   0  0  0  0  0  0  0  0  0  0  0  0
  195.6397  181.0896  159.6886 H   0  0  0  0  0  0  0  0  0  0  0  0
  195.1797  184.0423  159.0751 H   0  0  0  0  0  0  0  0  0  0  0  0
  193.9606  182.7654  159.1934 H   0  0  0  0  0  0  0  0  0  0  0  0
  194.0677  183.7460  157.7381 H   0  0  0  0  0  0  0  0  0  0  0  0
  199.6102  179.7814  149.8645 H   0  0  0  0  0  0  0  0  0  0  0  0
  198.6689  179.7616  148.3840 H   0  0  0  0  0  0  0  0  0  0  0  0
  196.8603  179.9490  151.6513 H   0  0  0  0  0  0  0  0  0  0  0  0
  195.8537  181.9725  152.5553 H   0  0  0  0  0  0  0  0  0  0  0  0
  196.0548  184.1379  151.4390 H   0  0  0  0  0  0  0  0  0  0  0  0
  197.3378  184.3131  149.2825 H   0  0  0  0  0  0  0  0  0  0  0  0
  198.5346  182.2941  148.3782 H   0  0  0  0  0  0  0  0  0  0  0  0
  201.8033  173.9566  150.8934 H   0  0  0  0  0  0  0  0  0  0  0  0
  202.1071  174.8413  152.3764 H   0  0  0  0  0  0  0  0  0  0  0  0
  201.2626  172.7912  152.8059 H   0  0  0  0  0  0  0  0  0  0  0  0
  195.0793  181.6109  157.4174 H   0  0  0  0  0  0  0  0  0  0  0  0
  1  2  1  0
  2  3  2  0
  2 19  1  0
  3  4  1  0
  4  5  2  0
  4 28  1  0
  5  6  1  0
  5 30  1  0
  6  7  1  0
  6 19  2  0
  7  8  1  0
  7 31  1  0
  8  9  1  0
  8 32  1  1
  8 33  1  0
  9 10  1  0
  9 14  2  0
 10 11  2  0
 10 34  1  0
 11 12  1  0
 11 35  1  0
 12 13  2  0
 12 15  1  0
 13 14  1  0
 13 36  1  0
 14 37  1  0
 15 16  1  0
 15 38  1  1
 15 39  1  0
 16 17  1  0
 16 18  1  0
 16 56  1  6
 17 40  1  1
 17 41  1  0
 17 42  1  0
 18 43  1  1
 18 44  1  0
 18 45  1  0
 19 20  1  0
 20 21  1  0
 21 22  1  0
 21 46  1  1
 21 47  1  0
 22 23  2  0
 22 27  1  0
 23 24  1  0
 23 48  1  0
 24 25  2  0
 24 49  1  0
 25 26  1  0
 25 50  1  0
 26 27  2  0
 26 51  1  0
 27 52  1  0
 28 29  1  0
 28 53  1  6
 28 54  1  0
 29 55  1  0
M  CHG  1  16   1
M  END
>  <s_epik_cmdline>  (37) 
J2VwaWtfcHl0aG9uJywgJy1waCcsICc3LjAwMDAwMCcsICctcGh0JywgJzIuMDAwMDAwJywgJy1tcycsICcxNicsICctdG4nLCAnOCcsICctbWEnLCAnMjAwJywgJy1pbWFlJywgJzxpbmZpbGUubWFlPicsICctb21hZScsICc8b3V0ZmlsZS5tYWU+Jw==

>  <s_epik_input>  (37) 
W2NIXTFbY0hdW2NIXVtjSF1bY0hdYzFbQ0gyXU9jMmMoW2NIXWMobmMyQ2wpW0NIMl1bT0hdKVtOSF1bQ0gyXWMzW2NIXVtjSF1jKFtjSF1bY0hdMylbQ0gyXU4oW0NIM10pW0NIM10=

>  <s_i_glide_gridfile>  (37) 
ATP-Grid

>  <s_lp_Force_Field>  (37) 
OPLS_2005

>  <s_lp_Variant>  (37) 
rxn102a____EMOL29932549____EMOL50155899-1

>  <s_lp_label>  (37) 
2196_sdstereoexpander_1_neutralizer_1_epik_1_stereoizer_1

>  <s_m_source_file>  (37) 
ATP-VSW-LIGPREP-001-in.maegz

>  <s_sd_BIOSOLVEIT.INFINISEE\_QUERY\_NAME>  (37) 
Ref-Lig

>  <s_sd_BIOSOLVEIT.INFINISEE\_QUERY\_SMILES>  (37) 
S(c1nc2c(cc1C[NH2+]Cc3ccc(cc3)C[NH+](C)C)cccc2)Cc4ccccc4

>  <s_sd_BIOSOLVEIT.INFINISEE\_REACTION\_NAME>  (37) 
rxn102a

>  <s_sd_BIOSOLVEIT.INFINISEE\_REAGENT1\_NAME>  (37) 
EMOL29932549

>  <s_sd_BIOSOLVEIT.INFINISEE\_REAGENT1\_SMILES>  (37) 
Ic1c(OCc2ccccc2)c(Cl)nc(c1)CO

>  <s_sd_BIOSOLVEIT.INFINISEE\_REAGENT2\_NAME>  (37) 
EMOL50155899

>  <s_sd_BIOSOLVEIT.INFINISEE\_REAGENT2\_SMILES>  (37) 
N(Cc1ccc(cc1)CN)(C)C

>  <s_sd_BIOSOLVEIT.INFINISEE\_SPACE>  (37) 
eXplore_7tr_2022-12

>  <s_vsw_compound_code>  (37) 
70241

>  <s_vsw_variant>  (37) 
70241-1

>  <r_epik_Charging_Adjusted_Penalty>  (37) 
0.096071257325541295

>  <r_epik_Ionization_Penalty>  (37) 
0.056899999999999999

>  <r_epik_Ionization_Penalty_Charging>  (37) 
0.039199999999999999

>  <r_epik_Ionization_Penalty_Neutral>  (37) 
0.0177

>  <r_epik_State_Penalty>  (37) 
0.056899999999999999

>  <r_i_docking_score>  (37) 
-3.4540457144008401

>  <r_i_glide_ecoul>  (37) 
-6.0456247329711896

>  <r_i_glide_eff_state_penalty>  (37) 
0.056899999999999999

>  <r_i_glide_einternal>  (37) 
3.5047419071197501

>  <r_i_glide_emodel>  (37) 
-47.529841060372

>  <r_i_glide_energy>  (37) 
-37.098765373230002

>  <r_i_glide_erotb>  (37) 
0.92537462379436697

>  <r_i_glide_esite>  (37) 
-0.085222397975626404

>  <r_i_glide_evdw>  (37) 
-31.0531406402588

>  <r_i_glide_gscore>  (37) 
-3.5109457144008398

>  <r_i_glide_hbond>  (37) 
0

>  <r_i_glide_ligand_efficiency>  (37) 
-0.119105024634512

>  <r_i_glide_ligand_efficiency_ln>  (37) 
-0.79088888155569204

>  <r_i_glide_ligand_efficiency_sa>  (37) 
-0.36592837079760798

>  <r_i_glide_lipo>  (37) 
-1.07295228917006

>  <r_i_glide_metal>  (37) 
-0

>  <r_i_glide_rewards>  (37) 
-0.81864490909090804

>  <r_lp_Energy>  (37) 
25.026952999999999

>  <r_lp_tautomer_probability>  (37) 
0.99999956421338798

>  <r_qp_ACxDN^.5/SA>  (37) 
0.0116513

>  <r_qp_CIQPlogS>  (37) 
-4.9909999999999997

>  <r_qp_EA(eV)>  (37) 
0.252

>  <r_qp_FISA>  (37) 
75.864000000000004

>  <r_qp_FOSA>  (37) 
284.63299999999998

>  <r_qp_IP(eV)>  (37) 
8.5429999999999993

>  <r_qp_Jm>  (37) 
0.0025758243378287901

>  <r_qp_PISA>  (37) 
361.24099999999999

>  <r_qp_PSA>  (37) 
57.448999999999998

>  <r_qp_PercentHumanOralAbsorption>  (37) 
100

>  <r_qp_QPPCaco>  (37) 
471.38900000000001

>  <r_qp_QPPMDCK>  (37) 
525.02599999999995

>  <r_qp_QPlogBB>  (37) 
-0.35699999999999998

>  <r_qp_QPlogHERG>  (37) 
-7.7960000000000003

>  <r_qp_QPlogKhsa>  (37) 
0.59799999999999998

>  <r_qp_QPlogKp>  (37) 
-2.7480000000000002

>  <r_qp_QPlogPC16>  (37) 
15.183999999999999

>  <r_qp_QPlogPo/w>  (37) 
4.6529999999999996

>  <r_qp_QPlogPoct>  (37) 
21.841000000000001

>  <r_qp_QPlogPw>  (37) 
11.673999999999999

>  <r_qp_QPlogS>  (37) 
-5.4560000000000004

>  <r_qp_QPpolrz>  (37) 
45.944000000000003

>  <r_qp_SASA>  (37) 
782.88999999999999

>  <r_qp_SAamideO>  (37) 
0

>  <r_qp_SAfluorine>  (37) 
0

>  <r_qp_WPSA>  (37) 
61.152000000000001

>  <r_qp_accptHB>  (37) 
6.4500000000000002

>  <r_qp_dip^2/V>  (37) 
0.026529299999999999

>  <r_qp_dipole>  (37) 
6.0419999999999998

>  <r_qp_donorHB>  (37) 
2

>  <r_qp_glob>  (37) 
0.76421810000000001

>  <r_qp_mol_MW>  (37) 
411.93000000000001

>  <r_qp_volume>  (37) 
1376.0360000000001

>  <r_sd_BIOSOLVEIT.INFINISEE\_FTREES\_SIMILARITY>  (37) 
0.93300000000000005

>  <r_sd_BIOSOLVEIT.LOGP>  (37) 
3.0629

>  <r_sd_BIOSOLVEIT.MOLECULAR\_WEIGHT>  (37) 
412.93799999999999

>  <r_sd_BIOSOLVEIT.TPSA>  (37) 
58.82

>  <i_epik_Tot_Q>  (37) 
1

>  <i_epik_Tot_abs_Q>  (37) 
1

>  <i_f3d_flags>  (37) 
0

>  <i_i_glide_confnum>  (37) 
3

>  <i_i_glide_lignum>  (37) 
714

>  <i_i_glide_posenum>  (37) 
4

>  <i_i_glide_rotatable_bonds>  (37) 
10

>  <i_lp_mmshare_version>  (37) 
65135

>  <i_m_ct_format>  (37) 
2

>  <i_m_source_file_index>  (37) 
2196

>  <i_qp_#NandO>  (37) 
5

>  <i_qp_#acid>  (37) 
0

>  <i_qp_#amide>  (37) 
0

>  <i_qp_#amidine>  (37) 
0

>  <i_qp_#amine>  (37) 
1

>  <i_qp_#in34>  (37) 
0

>  <i_qp_#in56>  (37) 
18

>  <i_qp_#metab>  (37) 
8

>  <i_qp_#nonHatm>  (37) 
29

>  <i_qp_#noncon>  (37) 
0

>  <i_qp_#ringatoms>  (37) 
18

>  <i_qp_#rotor>  (37) 
10

>  <i_qp_#rtvFG>  (37) 
0

>  <i_qp_#stars>  (37) 
0

>  <i_qp_CNS>  (37) 
1

>  <i_qp_HumanOralAbsorption>  (37) 
3

>  <i_qp_RuleOfFive>  (37) 
0

>  <i_qp_RuleOfThree>  (37) 
1

>  <i_sd_BIOSOLVEIT.INFINISEE\_RESULT\_RANK>  (37) 
3222

>  <i_sd_version>  (37) 
0

>  <b_lp_Chiralities_Consistent>  (37) 
1

>  <b_sd_chiral_flag>  (37) 
0

>  <canonical_id>  (37) 
ATP-HTVS-0659C124A83C

>  <compound_code>  (37) 
70241

>  <title>  (37) 
rxn102a____EMOL29932549____EMOL50155899

>  <variant>  (37) 
70241-1

>  <source_file>  (37) 
运行/运行/ATP-VSW/ATP-VSW-DOCK_HTVS_1-001_lib/ATP-VSW-DOCK_HTVS_1-001_lib

>  <canonical_smiles>  (37) 
C[NH+](C)Cc1ccc(CNc2cc(CO)nc(Cl)c2OCc2ccccc2)cc1

>  <scaffold>  (37) 
c1ccc(CNc2ccncc2OCc2ccccc2)cc1

>  <molecular_formula>  (37) 
C23H27ClN3O2+

$$$$
ATP-HTVS-069ABDEDA86E
     RDKit          3D

 64 67  0  0  0  0  0  0  0  0999 V2000
  198.3000  178.5251  151.6108 O   0  0  0  0  0  0  0  0  0  0  0  0
  197.7819  179.6382  152.2402 C   0  0  0  0  0  0  0  0  0  0  0  0
  197.9366  179.7165  153.6374 C   0  0  0  0  0  0  0  0  0  0  0  0
  197.4156  180.8199  154.3502 C   0  0  0  0  0  0  0  0  0  0  0  0
  196.7684  181.8568  153.6756 C   0  0  0  0  0  0  0  0  0  0  0  0
  196.6033  181.7905  152.2885 C   0  0  0  0  0  0  0  0  0  0  0  0
  197.1062  180.6949  151.5787 C   0  0  0  0  0  0  0  0  0  0  0  0
  197.4242  180.8621  155.8322 C   0  0  1  0  0  0  0  0  0  0  0  0
  196.6967  181.8486  156.5222 N   0  0  0  0  0  0  0  0  0  0  0  0
  197.1412  182.8066  157.4565 C   0  0  0  0  0  0  0  0  0  0  0  0
  198.3736  183.2039  157.5775 N   0  0  0  0  0  0  0  0  0  0  0  0
  199.0192  184.0098  158.3310 C   0  0  0  0  0  0  0  0  0  0  0  0
  198.2709  184.6472  159.1623 N   0  0  0  0  0  0  0  0  0  0  0  0
  196.9283  184.4155  159.1848 C   0  0  0  0  0  0  0  0  0  0  0  0
  196.3221  183.4682  158.3137 C   0  0  0  0  0  0  0  0  0  0  0  0
  194.9468  183.2387  158.3554 C   0  0  0  0  0  0  0  0  0  0  0  0
  194.1609  183.9601  159.2688 C   0  0  0  0  0  0  0  0  0  0  0  0
  194.7546  184.9013  160.1319 C   0  0  0  0  0  0  0  0  0  0  0  0
  196.1416  185.1267  160.0890 C   0  0  0  0  0  0  0  0  0  0  0  0
  200.3955  184.2071  158.2600 N   0  0  0  0  0  0  0  0  0  0  0  0
  201.3134  183.8312  157.1863 C   0  0  1  0  0  0  0  0  0  0  0  0
  201.3496  182.3655  156.8361 C   0  0  0  0  0  0  0  0  0  0  0  0
  202.5083  181.6165  156.7932 C   0  0  0  0  0  0  0  0  0  0  0  0
  202.4903  180.2493  156.4374 C   0  0  0  0  0  0  0  0  0  0  0  0
  201.3065  179.5887  156.1271 C   0  0  0  0  0  0  0  0  0  0  0  0
  200.1754  180.3034  156.1828 C   0  0  0  0  0  0  0  0  0  0  0  0
  200.2532  181.6607  156.5000 C   0  0  0  0  0  0  0  0  0  0  0  0
  201.2466  178.1383  155.7465 C   0  0  1  0  0  0  0  0  0  0  0  0
  201.5418  177.2595  156.9014 N   0  0  2  0  0  0  0  0  0  0  0  0
  201.7894  175.8643  156.4810 C   0  0  2  0  0  0  0  0  0  0  0  0
  200.5317  177.3389  157.9821 C   0  0  2  0  0  0  0  0  0  0  0  0
  198.5685  178.6174  150.2160 C   0  0  1  0  0  0  0  0  0  0  0  0
  197.3314  178.8921  149.4733 C   0  0  0  0  0  0  0  0  0  0  0  0
  196.3477  179.1507  148.9193 N   0  0  0  0  0  0  0  0  0  0  0  0
  198.4498  178.9200  154.1552 H   0  0  0  0  0  0  0  0  0  0  0  0
  196.3814  182.7041  154.2250 H   0  0  0  0  0  0  0  0  0  0  0  0
  196.0908  182.5847  151.7685 H   0  0  0  0  0  0  0  0  0  0  0  0
  196.9551  180.7142  150.5224 H   0  0  0  0  0  0  0  0  0  0  0  0
  197.4432  179.8918  156.2950 H   0  0  0  0  0  0  0  0  0  0  0  0
  198.2774  181.1530  155.9754 H   0  0  0  0  0  0  0  0  0  0  0  0
  195.7233  181.6516  156.4529 H   0  0  0  0  0  0  0  0  0  0  0  0
  194.4746  182.5238  157.6994 H   0  0  0  0  0  0  0  0  0  0  0  0
  193.0938  183.7924  159.3058 H   0  0  0  0  0  0  0  0  0  0  0  0
  194.1427  185.4505  160.8318 H   0  0  0  0  0  0  0  0  0  0  0  0
  196.5909  185.8470  160.7523 H   0  0  0  0  0  0  0  0  0  0  0  0
  200.7931  184.6406  159.0768 H   0  0  0  0  0  0  0  0  0  0  0  0
  201.0922  184.4294  156.3032 H   0  0  0  0  0  0  0  0  0  0  0  0
  202.3257  184.0956  157.4936 H   0  0  0  0  0  0  0  0  0  0  0  0
  203.4351  182.0934  157.0234 H   0  0  0  0  0  0  0  0  0  0  0  0
  203.4049  179.6976  156.4076 H   0  0  0  0  0  0  0  0  0  0  0  0
  199.2980  179.7183  155.9228 H   0  0  0  0  0  0  0  0  0  0  0  0
  199.4865  182.2501  156.2855 H   0  0  0  0  0  0  0  0  0  0  0  0
  200.2801  177.8729  155.3106 H   0  0  0  0  0  0  0  0  0  0  0  0
  201.9903  177.9922  154.9662 H   0  0  0  0  0  0  0  0  0  0  0  0
  200.8969  175.4277  156.0307 H   0  0  0  0  0  0  0  0  0  0  0  0
  202.0786  175.2492  157.3331 H   0  0  0  0  0  0  0  0  0  0  0  0
  202.5996  175.8172  155.7525 H   0  0  0  0  0  0  0  0  0  0  0  0
  199.5500  177.0423  157.6189 H   0  0  0  0  0  0  0  0  0  0  0  0
  200.4597  178.3487  158.3846 H   0  0  0  0  0  0  0  0  0  0  0  0
  200.7984  176.6809  158.8084 H   0  0  0  0  0  0  0  0  0  0  0  0
  199.2914  179.4113  150.0155 H   0  0  0  0  0  0  0  0  0  0  0  0
  198.9669  177.6765  149.8381 H   0  0  0  0  0  0  0  0  0  0  0  0
  198.6913  185.3135  159.7685 H   0  0  0  0  0  0  0  0  0  0  0  0
  202.4167  177.5932  157.2951 H   0  0  0  0  0  0  0  0  0  0  0  0
  1  2  1  0
  1 32  1  0
  2  3  2  0
  2  7  1  0
  3  4  1  0
  3 35  1  0
  4  5  2  0
  4  8  1  0
  5  6  1  0
  5 36  1  0
  6  7  2  0
  6 37  1  0
  7 38  1  0
  8  9  1  0
  8 39  1  1
  8 40  1  0
  9 10  1  0
  9 41  1  0
 10 11  2  0
 10 15  1  0
 11 12  1  0
 12 13  2  0
 12 20  1  0
 13 14  1  0
 13 63  1  0
 14 15  1  0
 14 19  2  0
 15 16  2  0
 16 17  1  0
 16 42  1  0
 17 18  2  0
 17 43  1  0
 18 19  1  0
 18 44  1  0
 19 45  1  0
 20 21  1  0
 20 46  1  0
 21 22  1  0
 21 47  1  6
 21 48  1  0
 22 23  1  0
 22 27  2  0
 23 24  2  0
 23 49  1  0
 24 25  1  0
 24 50  1  0
 25 26  2  0
 25 28  1  0
 26 27  1  0
 26 51  1  0
 27 52  1  0
 28 29  1  0
 28 53  1  6
 28 54  1  0
 29 30  1  0
 29 31  1  0
 29 64  1  1
 30 55  1  6
 30 56  1  0
 30 57  1  0
 31 58  1  6
 31 59  1  0
 31 60  1  0
 32 33  1  0
 32 61  1  1
 32 62  1  0
 33 34  3  0
M  CHG  2  13   1  29   1
M  END
>  <s_epik_cmdline>  (38) 
J2VwaWtfcHl0aG9uJywgJy1waCcsICc3LjAwMDAwMCcsICctcGh0JywgJzIuMDAwMDAwJywgJy1tcycsICcxNicsICctdG4nLCAnOCcsICctbWEnLCAnMjAwJywgJy1pbWFlJywgJzxpbmZpbGUubWFlPicsICctb21hZScsICc8b3V0ZmlsZS5tYWU+Jw==

>  <s_epik_input>  (38) 
TiNDW0NIMl1PYzFbY0hdYyhbY0hdW2NIXVtjSF0xKVtDSDJdW05IXWMoYyhjMjMpW2NIXVtjSF1bY0hdW2NIXTMpbmMobjIpW05IXVtDSDJdYzRbY0hdW2NIXWMoW2NIXVtjSF00KVtDSDJdTihbQ0gzXSlbQ0gzXQ==

>  <s_i_glide_gridfile>  (38) 
ATP-Grid

>  <s_lp_Force_Field>  (38) 
OPLS_2005

>  <s_lp_Variant>  (38) 
m_282030aaa____21929760____22360182____21965376-1

>  <s_lp_label>  (38) 
1882_sdstereoexpander_1_neutralizer_1_epik_1_stereoizer_1

>  <s_m_source_file>  (38) 
ATP-VSW-LIGPREP-001-in.maegz

>  <s_sd_BIOSOLVEIT.INFINISEE\_QUERY\_NAME>  (38) 
Ref-Lig

>  <s_sd_BIOSOLVEIT.INFINISEE\_QUERY\_SMILES>  (38) 
S(c1nc2c(cc1C[NH2+]Cc3ccc(cc3)C[NH+](C)C)cccc2)Cc4ccccc4

>  <s_sd_BIOSOLVEIT.INFINISEE\_REACTION\_NAME>  (38) 
m_282030aaa

>  <s_sd_BIOSOLVEIT.INFINISEE\_REAGENT1\_SMILES>  (38) 
[R1*]NCc1ccc(cc1)CN(C)C

>  <s_sd_BIOSOLVEIT.INFINISEE\_REAGENT2\_SMILES>  (38) 
[R2*]c1nc([R1*])c2c(n1)cccc2

>  <s_sd_BIOSOLVEIT.INFINISEE\_REAGENT3\_SMILES>  (38) 
[R2*]NCc1cc(OCC#N)ccc1

>  <s_sd_BIOSOLVEIT.INFINISEE\_SPACE>  (38) 
REALSpace_44bn_2023-08

>  <s_vsw_compound_code>  (38) 
60193

>  <s_vsw_variant>  (38) 
60193-1

>  <r_epik_Charging_Adjusted_Penalty>  (38) 
0.117773142353865

>  <r_epik_Ionization_Penalty>  (38) 
0.055899999999999998

>  <r_epik_Ionization_Penalty_Charging>  (38) 
0.055899999999999998

>  <r_epik_Ionization_Penalty_Neutral>  (38) 
0

>  <r_epik_State_Penalty>  (38) 
0.061899999999999997

>  <r_i_docking_score>  (38) 
-4.26179409221933

>  <r_i_glide_ecoul>  (38) 
-9.3844861984252894

>  <r_i_glide_eff_state_penalty>  (38) 
0.061899999999999997

>  <r_i_glide_einternal>  (38) 
5.6115365028381303

>  <r_i_glide_emodel>  (38) 
-61.834058526510503

>  <r_i_glide_energy>  (38) 
-45.314875602722203

>  <r_i_glide_erotb>  (38) 
0.77750764092753299

>  <r_i_glide_esite>  (38) 
-0.076860600628678305

>  <r_i_glide_evdw>  (38) 
-35.930389404296903

>  <r_i_glide_gscore>  (38) 
-4.3236940922193297

>  <r_i_glide_hbond>  (38) 
0

>  <r_i_glide_ligand_efficiency>  (38) 
-0.125346885065274

>  <r_i_glide_ligand_efficiency_ln>  (38) 
-0.94154985424647097

>  <r_i_glide_ligand_efficiency_sa>  (38) 
-0.40607524763351299

>  <r_i_glide_lipo>  (38) 
-1.0981344258566199

>  <r_i_glide_metal>  (38) 
-0

>  <r_i_glide_rewards>  (38) 
-0.72201430668292899

>  <r_lp_Energy>  (38) 
21.009684

>  <r_lp_tautomer_probability>  (38) 
1

>  <r_qp_ACxDN^.5/SA>  (38) 
0.0124522

>  <r_qp_CIQPlogS>  (38) 
-6.7350000000000003

>  <r_qp_EA(eV)>  (38) 
0.58099999999999996

>  <r_qp_FISA>  (38) 
116.923

>  <r_qp_FOSA>  (38) 
272.73200000000003

>  <r_qp_IP(eV)>  (38) 
8.0139999999999993

>  <r_qp_Jm>  (38) 
0.00011145990965794

>  <r_qp_PISA>  (38) 
433.738

>  <r_qp_PSA>  (38) 
80.600999999999999

>  <r_qp_PercentHumanOralAbsorption>  (38) 
94.924999999999997

>  <r_qp_QPPCaco>  (38) 
192.31899999999999

>  <r_qp_QPPMDCK>  (38) 
92.117999999999995

>  <r_qp_QPlogBB>  (38) 
-1.0249999999999999

>  <r_qp_QPlogHERG>  (38) 
-8.093

>  <r_qp_QPlogKhsa>  (38) 
0.71599999999999997

>  <r_qp_QPlogKp>  (38) 
-3.153

>  <r_qp_QPlogPC16>  (38) 
16.641999999999999

>  <r_qp_QPlogPo/w>  (38) 
4.6280000000000001

>  <r_qp_QPlogPoct>  (38) 
24.016999999999999

>  <r_qp_QPlogPw>  (38) 
13.09

>  <r_qp_QPlogS>  (38) 
-6.4560000000000004

>  <r_qp_QPpolrz>  (38) 
50.670999999999999

>  <r_qp_SASA>  (38) 
823.39200000000005

>  <r_qp_SAamideO>  (38) 
0

>  <r_qp_SAfluorine>  (38) 
0

>  <r_qp_WPSA>  (38) 
0

>  <r_qp_accptHB>  (38) 
7.25

>  <r_qp_dip^2/V>  (38) 
0.0304561

>  <r_qp_dipole>  (38) 
6.7430000000000003

>  <r_qp_donorHB>  (38) 
2

>  <r_qp_glob>  (38) 
0.76720650000000001

>  <r_qp_mol_MW>  (38) 
452.55799999999999

>  <r_qp_volume>  (38) 
1492.902

>  <r_sd_BIOSOLVEIT.INFINISEE\_FTREES\_SIMILARITY>  (38) 
0.90300000000000002

>  <r_sd_BIOSOLVEIT.LOGP>  (38) 
3.4008799999999999

>  <r_sd_BIOSOLVEIT.MOLECULAR\_WEIGHT>  (38) 
453.56700000000001

>  <r_sd_BIOSOLVEIT.TPSA>  (38) 
87.299999999999997

>  <i_epik_Tot_Q>  (38) 
2

>  <i_epik_Tot_abs_Q>  (38) 
2

>  <i_f3d_flags>  (38) 
0

>  <i_i_glide_confnum>  (38) 
1

>  <i_i_glide_lignum>  (38) 
555

>  <i_i_glide_posenum>  (38) 
11

>  <i_i_glide_rotatable_bonds>  (38) 
10

>  <i_lp_mmshare_version>  (38) 
65135

>  <i_m_ct_format>  (38) 
2

>  <i_m_source_file_index>  (38) 
1882

>  <i_qp_#NandO>  (38) 
7

>  <i_qp_#acid>  (38) 
0

>  <i_qp_#amide>  (38) 
0

>  <i_qp_#amidine>  (38) 
0

>  <i_qp_#amine>  (38) 
1

>  <i_qp_#in34>  (38) 
0

>  <i_qp_#in56>  (38) 
22

>  <i_qp_#metab>  (38) 
6

>  <i_qp_#nonHatm>  (38) 
34

>  <i_qp_#noncon>  (38) 
0

>  <i_qp_#ringatoms>  (38) 
22

>  <i_qp_#rotor>  (38) 
11

>  <i_qp_#rtvFG>  (38) 
0

>  <i_qp_#stars>  (38) 
0

>  <i_qp_CNS>  (38) 
-2

>  <i_qp_HumanOralAbsorption>  (38) 
1

>  <i_qp_RuleOfFive>  (38) 
0

>  <i_qp_RuleOfThree>  (38) 
1

>  <i_sd_BIOSOLVEIT.INFINISEE\_REAGENT1\_NAME>  (38) 
21929760

>  <i_sd_BIOSOLVEIT.INFINISEE\_REAGENT2\_NAME>  (38) 
22360182

>  <i_sd_BIOSOLVEIT.INFINISEE\_REAGENT3\_NAME>  (38) 
21965376

>  <i_sd_BIOSOLVEIT.INFINISEE\_RESULT\_RANK>  (38) 
83169

>  <i_sd_version>  (38) 
0

>  <b_lp_Chiralities_Consistent>  (38) 
1

>  <b_sd_chiral_flag>  (38) 
0

>  <canonical_id>  (38) 
ATP-HTVS-069ABDEDA86E

>  <compound_code>  (38) 
60193

>  <title>  (38) 
m_282030aaa____21929760____22360182____21965376

>  <variant>  (38) 
60193-1

>  <source_file>  (38) 
运行/运行/ATP-VSW/ATP-VSW-DOCK_HTVS_1-001_lib/ATP-VSW-DOCK_HTVS_1-001_lib

>  <canonical_smiles>  (38) 
C[NH+](C)Cc1ccc(CNc2nc(NCc3cccc(OCC#N)c3)c3ccccc3[nH+]2)cc1

>  <scaffold>  (38) 
c1ccc(CNc2nc(NCc3ccccc3)c3ccccc3[nH+]2)cc1

>  <molecular_formula>  (38) 
C27H30N6O+2

$$$$
ATP-HTVS-06CA19E03C57
     RDKit          3D

 63 66  0  0  0  0  0  0  0  0999 V2000
  198.7109  184.1306  153.8027 O   0  0  0  0  0  0  0  0  0  0  0  0
  197.8628  183.4442  154.3769 C   0  0  0  0  0  0  0  0  0  0  0  0
  197.2422  183.7952  155.5201 N   0  0  0  0  0  0  0  0  0  0  0  0
  197.3261  185.0599  156.1653 C   0  0  0  0  0  0  0  0  0  0  0  0
  197.2488  185.1620  157.5791 C   0  0  0  0  0  0  0  0  0  0  0  0
  197.1092  183.9873  158.3410 N   0  0  0  0  0  0  0  0  0  0  0  0
  198.2755  183.5828  159.1184 C   0  0  1  0  0  0  0  0  0  0  0  0
  199.5506  183.4343  158.2603 C   0  0  1  0  0  0  0  0  0  0  0  0
  200.7728  183.0273  159.0602 C   0  0  0  0  0  0  0  0  0  0  0  0
  201.1548  183.7499  160.2076 C   0  0  0  0  0  0  0  0  0  0  0  0
  202.3038  183.3783  160.9331 C   0  0  0  0  0  0  0  0  0  0  0  0
  203.1090  182.2874  160.5201 C   0  0  0  0  0  0  0  0  0  0  0  0
  204.2744  181.9270  161.2361 N   0  0  0  0  0  0  0  0  0  0  0  0
  204.7071  182.7234  162.3787 C   0  0  2  0  0  0  0  0  0  0  0  0
  204.9579  180.6735  160.9349 C   0  0  2  0  0  0  0  0  0  0  0  0
  202.7087  181.5691  159.3633 C   0  0  0  0  0  0  0  0  0  0  0  0
  201.5559  181.9354  158.6435 C   0  0  0  0  0  0  0  0  0  0  0  0
  197.3312  186.4549  158.1792 C   0  0  0  0  0  0  0  0  0  0  0  0
  197.5022  187.5969  157.3452 C   0  0  0  0  0  0  0  0  0  0  0  0
  197.5703  187.4359  156.0109 N   0  0  0  0  0  0  0  0  0  0  0  0
  197.4765  186.2394  155.4008 C   0  0  0  0  0  0  0  0  0  0  0  0
  197.5795  188.8966  157.8861 C   0  0  0  0  0  0  0  0  0  0  0  0
  197.5131  189.0787  159.2776 C   0  0  0  0  0  0  0  0  0  0  0  0
  197.3255  187.9665  160.1189 C   0  0  0  0  0  0  0  0  0  0  0  0
  197.2263  186.6648  159.5776 C   0  0  0  0  0  0  0  0  0  0  0  0
  197.4655  182.1029  153.8303 C   0  0  0  0  0  0  0  0  0  0  0  0
  197.2275  181.8564  152.4412 C   0  0  0  0  0  0  0  0  0  0  0  0
  197.0233  180.5234  152.0161 C   0  0  0  0  0  0  0  0  0  0  0  0
  196.9907  179.4608  152.9331 C   0  0  0  0  0  0  0  0  0  0  0  0
  197.1708  179.7126  154.3046 C   0  0  0  0  0  0  0  0  0  0  0  0
  197.4129  181.0231  154.7438 C   0  0  0  0  0  0  0  0  0  0  0  0
  197.2056  182.8895  151.3591 C   0  0  0  0  0  0  0  0  0  0  0  0
  197.5951  182.6786  150.2136 O   0  0  0  0  0  0  0  0  0  0  0  0
  196.5602  184.2388  151.6599 C   0  0  2  0  0  0  0  0  0  0  0  0
  196.6569  183.0939  155.9575 H   0  0  0  0  0  0  0  0  0  0  0  0
  196.6981  183.2058  157.8513 H   0  0  0  0  0  0  0  0  0  0  0  0
  198.4503  184.2862  159.9312 H   0  0  0  0  0  0  0  0  0  0  0  0
  198.0375  182.6310  159.5915 H   0  0  0  0  0  0  0  0  0  0  0  0
  199.3746  182.7057  157.4668 H   0  0  0  0  0  0  0  0  0  0  0  0
  199.8011  184.3733  157.7661 H   0  0  0  0  0  0  0  0  0  0  0  0
  200.5771  184.5960  160.5466 H   0  0  0  0  0  0  0  0  0  0  0  0
  202.5454  183.9534  161.8119 H   0  0  0  0  0  0  0  0  0  0  0  0
  203.9867  182.6406  163.1921 H   0  0  0  0  0  0  0  0  0  0  0  0
  204.8076  183.7740  162.1053 H   0  0  0  0  0  0  0  0  0  0  0  0
  205.6749  182.3905  162.7510 H   0  0  0  0  0  0  0  0  0  0  0  0
  204.2614  179.8361  160.9777 H   0  0  0  0  0  0  0  0  0  0  0  0
  205.7539  180.4753  161.6517 H   0  0  0  0  0  0  0  0  0  0  0  0
  205.4068  180.7054  159.9418 H   0  0  0  0  0  0  0  0  0  0  0  0
  203.2801  180.7281  159.0004 H   0  0  0  0  0  0  0  0  0  0  0  0
  201.2821  181.3754  157.7608 H   0  0  0  0  0  0  0  0  0  0  0  0
  197.5219  186.2736  154.3218 H   0  0  0  0  0  0  0  0  0  0  0  0
  197.7065  189.7621  157.2472 H   0  0  0  0  0  0  0  0  0  0  0  0
  197.5896  190.0688  159.7066 H   0  0  0  0  0  0  0  0  0  0  0  0
  197.2727  188.1275  161.1864 H   0  0  0  0  0  0  0  0  0  0  0  0
  197.0739  185.8352  160.2504 H   0  0  0  0  0  0  0  0  0  0  0  0
  196.8743  180.2957  150.9682 H   0  0  0  0  0  0  0  0  0  0  0  0
  196.8221  178.4561  152.5715 H   0  0  0  0  0  0  0  0  0  0  0  0
  197.1463  178.9106  155.0279 H   0  0  0  0  0  0  0  0  0  0  0  0
  197.5879  181.1742  155.8013 H   0  0  0  0  0  0  0  0  0  0  0  0
  195.9447  184.1712  152.5544 H   0  0  0  0  0  0  0  0  0  0  0  0
  195.9348  184.5677  150.8286 H   0  0  0  0  0  0  0  0  0  0  0  0
  197.3269  184.9883  151.8380 H   0  0  0  0  0  0  0  0  0  0  0  0
  197.6803  188.2627  155.4238 H   0  0  0  0  0  0  0  0  0  0  0  0
  1  2  2  0
  2  3  1  0
  2 26  1  0
  3  4  1  0
  3 35  1  0
  4  5  2  0
  4 21  1  0
  5  6  1  0
  5 18  1  0
  6  7  1  0
  6 36  1  0
  7  8  1  0
  7 37  1  1
  7 38  1  0
  8  9  1  0
  8 39  1  6
  8 40  1  0
  9 10  1  0
  9 17  2  0
 10 11  2  0
 10 41  1  0
 11 12  1  0
 11 42  1  0
 12 13  1  0
 12 16  2  0
 13 14  1  0
 13 15  1  0
 14 43  1  1
 14 44  1  0
 14 45  1  0
 15 46  1  6
 15 47  1  0
 15 48  1  0
 16 17  1  0
 16 49  1  0
 17 50  1  0
 18 19  1  0
 18 25  2  0
 19 20  1  0
 19 22  2  0
 20 21  2  0
 20 63  1  0
 21 51  1  0
 22 23  1  0
 22 52  1  0
 23 24  2  0
 23 53  1  0
 24 25  1  0
 24 54  1  0
 25 55  1  0
 26 27  1  0
 26 31  2  0
 27 28  2  0
 27 32  1  0
 28 29  1  0
 28 56  1  0
 29 30  2  0
 29 57  1  0
 30 31  1  0
 30 58  1  0
 31 59  1  0
 32 33  2  0
 32 34  1  0
 34 60  1  1
 34 61  1  0
 34 62  1  0
M  CHG  1  20   1
M  END
>  <s_epik_cmdline>  (39) 
J2VwaWtfcHl0aG9uJywgJy1waCcsICc3LjAwMDAwMCcsICctcGh0JywgJzIuMDAwMDAwJywgJy1tcycsICcxNicsICctdG4nLCAnOCcsICctbWEnLCAnMjAwJywgJy1pbWFlJywgJzxpbmZpbGUubWFlPicsICctb21hZScsICc8b3V0ZmlsZS5tYWU+Jw==

>  <s_epik_input>  (39) 
W2NIXTFbY0hdW2NIXVtjSF1jKEMoPU8pW0NIM10pYzFDKD1PKVtOSF1jKFtjSF1uYyhjMjMpW2NIXVtjSF1bY0hdW2NIXTMpYzJbTkhdW0NIMl1bQ0gyXWM0W2NIXVtjSF1jKE4oW0NIM10pW0NIM10pW2NIXVtjSF00

>  <s_i_glide_gridfile>  (39) 
ATP-Grid

>  <s_lp_Force_Field>  (39) 
OPLS_2005

>  <s_lp_Variant>  (39) 
rxn502b____EMOL711278____EMOL30488121____EMOL109645890-1

>  <s_lp_label>  (39) 
2933_sdstereoexpander_1_neutralizer_1_epik_1_stereoizer_1

>  <s_m_source_file>  (39) 
ATP-VSW-LIGPREP-001-in.maegz

>  <s_sd_BIOSOLVEIT.INFINISEE\_QUERY\_NAME>  (39) 
Ref-Lig

>  <s_sd_BIOSOLVEIT.INFINISEE\_QUERY\_SMILES>  (39) 
S(c1nc2c(cc1C[NH2+]Cc3ccc(cc3)C[NH+](C)C)cccc2)Cc4ccccc4

>  <s_sd_BIOSOLVEIT.INFINISEE\_REACTION\_NAME>  (39) 
rxn502b

>  <s_sd_BIOSOLVEIT.INFINISEE\_REAGENT1\_NAME>  (39) 
EMOL711278

>  <s_sd_BIOSOLVEIT.INFINISEE\_REAGENT1\_SMILES>  (39) 
O=C(O)c1c(cccc1)C(=O)C

>  <s_sd_BIOSOLVEIT.INFINISEE\_REAGENT2\_NAME>  (39) 
EMOL30488121

>  <s_sd_BIOSOLVEIT.INFINISEE\_REAGENT2\_SMILES>  (39) 
Brc1c(N)cnc2c1cccc2

>  <s_sd_BIOSOLVEIT.INFINISEE\_REAGENT3\_NAME>  (39) 
EMOL109645890

>  <s_sd_BIOSOLVEIT.INFINISEE\_REAGENT3\_SMILES>  (39) 
N(c1ccc(cc1)CCN)(C)C

>  <s_sd_BIOSOLVEIT.INFINISEE\_SPACE>  (39) 
eXplore_7tr_2022-12

>  <s_vsw_compound_code>  (39) 
93825

>  <s_vsw_variant>  (39) 
93825-1

>  <r_epik_Charging_Adjusted_Penalty>  (39) 
0.166392907084779

>  <r_epik_Ionization_Penalty>  (39) 
0.097600000000000006

>  <r_epik_Ionization_Penalty_Charging>  (39) 
0.069000000000000006

>  <r_epik_Ionization_Penalty_Neutral>  (39) 
0.0286

>  <r_epik_State_Penalty>  (39) 
0.0974

>  <r_i_docking_score>  (39) 
-4.2587937861896004

>  <r_i_glide_ecoul>  (39) 
-5.8470501899719203

>  <r_i_glide_eff_state_penalty>  (39) 
0.0974

>  <r_i_glide_einternal>  (39) 
3.0200781822204599

>  <r_i_glide_emodel>  (39) 
-52.762434773222203

>  <r_i_glide_energy>  (39) 
-40.510059833526597

>  <r_i_glide_erotb>  (39) 
0.68308159863740003

>  <r_i_glide_esite>  (39) 
-0.0269576345034305

>  <r_i_glide_evdw>  (39) 
-34.663009643554702

>  <r_i_glide_gscore>  (39) 
-4.3561937861895998

>  <r_i_glide_hbond>  (39) 
0

>  <r_i_glide_ligand_efficiency>  (39) 
-0.12525864077028201

>  <r_i_glide_ligand_efficiency_ln>  (39) 
-0.94088700248877

>  <r_i_glide_ligand_efficiency_sa>  (39) 
-0.405789370374397

>  <r_i_glide_lipo>  (39) 
-1.9542577419581899

>  <r_i_glide_metal>  (39) 
-0

>  <r_i_glide_rewards>  (39) 
-0.44785199769185902

>  <r_lp_Energy>  (39) 
49.749039000000003

>  <r_lp_tautomer_probability>  (39) 
0.99995000000000001

>  <r_qp_ACxDN^.5/SA>  (39) 
0.0154147

>  <r_qp_CIQPlogS>  (39) 
-6.6870000000000003

>  <r_qp_EA(eV)>  (39) 
0.97999999999999998

>  <r_qp_FISA>  (39) 
91.507000000000005

>  <r_qp_FOSA>  (39) 
224.55600000000001

>  <r_qp_IP(eV)>  (39) 
8.3300000000000001

>  <r_qp_Jm>  (39) 
0.58032500494850103

>  <r_qp_PISA>  (39) 
372.01999999999998

>  <r_qp_PSA>  (39) 
80.012

>  <r_qp_PercentHumanOralAbsorption>  (39) 
100

>  <r_qp_QPPCaco>  (39) 
1343.202

>  <r_qp_QPPMDCK>  (39) 
680.54300000000001

>  <r_qp_QPlogBB>  (39) 
-0.73699999999999999

>  <r_qp_QPlogHERG>  (39) 
-5.5149999999999997

>  <r_qp_QPlogKhsa>  (39) 
0.52400000000000002

>  <r_qp_QPlogKp>  (39) 
-1.127

>  <r_qp_QPlogPC16>  (39) 
14.523999999999999

>  <r_qp_QPlogPo/w>  (39) 
4.4130000000000003

>  <r_qp_QPlogPoct>  (39) 
23.716999999999999

>  <r_qp_QPlogPw>  (39) 
13.08

>  <r_qp_QPlogS>  (39) 
-4.7649999999999997

>  <r_qp_QPpolrz>  (39) 
46.762

>  <r_qp_SASA>  (39) 
688.08299999999997

>  <r_qp_SAamideO>  (39) 
0

>  <r_qp_SAfluorine>  (39) 
0

>  <r_qp_WPSA>  (39) 
0

>  <r_qp_accptHB>  (39) 
7.5

>  <r_qp_dip^2/V>  (39) 
0.079364599999999993

>  <r_qp_dipole>  (39) 
10.396000000000001

>  <r_qp_donorHB>  (39) 
2

>  <r_qp_glob>  (39) 
0.86351840000000002

>  <r_qp_mol_MW>  (39) 
452.55500000000001

>  <r_qp_volume>  (39) 
1361.8240000000001

>  <r_sd_BIOSOLVEIT.INFINISEE\_FTREES\_SIMILARITY>  (39) 
0.90400000000000003

>  <r_sd_BIOSOLVEIT.LOGP>  (39) 
5.4103000000000003

>  <r_sd_BIOSOLVEIT.MOLECULAR\_WEIGHT>  (39) 
452.55500000000001

>  <r_sd_BIOSOLVEIT.TPSA>  (39) 
74.329999999999998

>  <i_epik_Tot_Q>  (39) 
1

>  <i_epik_Tot_abs_Q>  (39) 
1

>  <i_f3d_flags>  (39) 
0

>  <i_i_glide_confnum>  (39) 
2

>  <i_i_glide_lignum>  (39) 
1378

>  <i_i_glide_posenum>  (39) 
11

>  <i_i_glide_rotatable_bonds>  (39) 
9

>  <i_lp_mmshare_version>  (39) 
65135

>  <i_m_ct_format>  (39) 
2

>  <i_m_source_file_index>  (39) 
2933

>  <i_qp_#NandO>  (39) 
6

>  <i_qp_#acid>  (39) 
0

>  <i_qp_#amide>  (39) 
0

>  <i_qp_#amidine>  (39) 
0

>  <i_qp_#amine>  (39) 
0

>  <i_qp_#in34>  (39) 
0

>  <i_qp_#in56>  (39) 
22

>  <i_qp_#metab>  (39) 
5

>  <i_qp_#nonHatm>  (39) 
34

>  <i_qp_#noncon>  (39) 
0

>  <i_qp_#ringatoms>  (39) 
22

>  <i_qp_#rotor>  (39) 
8

>  <i_qp_#rtvFG>  (39) 
0

>  <i_qp_#stars>  (39) 
0

>  <i_qp_CNS>  (39) 
-1

>  <i_qp_HumanOralAbsorption>  (39) 
3

>  <i_qp_RuleOfFive>  (39) 
0

>  <i_qp_RuleOfThree>  (39) 
0

>  <i_sd_BIOSOLVEIT.INFINISEE\_RESULT\_RANK>  (39) 
78367

>  <i_sd_version>  (39) 
0

>  <b_lp_Chiralities_Consistent>  (39) 
1

>  <b_sd_chiral_flag>  (39) 
0

>  <canonical_id>  (39) 
ATP-HTVS-06CA19E03C57

>  <compound_code>  (39) 
93825

>  <title>  (39) 
rxn502b____EMOL711278____EMOL30488121____EMOL109645890

>  <variant>  (39) 
93825-1

>  <source_file>  (39) 
运行/运行/ATP-VSW/ATP-VSW-DOCK_HTVS_1-001_lib/ATP-VSW-DOCK_HTVS_1-001_lib

>  <canonical_smiles>  (39) 
CC(=O)c1ccccc1C(=O)Nc1c[nH+]c2ccccc2c1NCCc1ccc(N(C)C)cc1

>  <scaffold>  (39) 
O=C(Nc1c[nH+]c2ccccc2c1NCCc1ccccc1)c1ccccc1

>  <molecular_formula>  (39) 
C28H29N4O2+

$$$$
ATP-HTVS-06E5BAB39855
     RDKit          3D

 54 57  0  0  0  0  0  0  0  0999 V2000
  199.0739  184.1703  158.9039 Cl  0  0  0  0  0  0  0  0  0  0  0  0
  197.3814  184.3373  159.2119 C   0  0  0  0  0  0  0  0  0  0  0  0
  196.4561  183.3280  158.8495 C   0  0  0  0  0  0  0  0  0  0  0  0
  195.0849  183.5188  159.1269 C   0  0  0  0  0  0  0  0  0  0  0  0
  194.6378  184.7005  159.7501 C   0  0  0  0  0  0  0  0  0  0  0  0
  195.5604  185.7020  160.1048 C   0  0  0  0  0  0  0  0  0  0  0  0
  196.9286  185.5209  159.8289 C   0  0  0  0  0  0  0  0  0  0  0  0
  196.8904  182.0376  158.1735 C   0  0  1  0  0  0  0  0  0  0  0  0
  196.6241  182.0279  156.6570 C   0  0  2  0  0  0  0  0  0  0  0  0
  196.8048  180.6550  156.1352 N   0  0  1  0  0  0  0  0  0  0  0  0
  198.1783  180.1403  155.9430 C   0  0  1  0  0  0  0  0  0  0  0  0
  198.1872  179.7572  154.4838 C   0  0  0  0  0  0  0  0  0  0  0  0
  197.0911  179.8395  153.7144 N   0  0  0  0  0  0  0  0  0  0  0  0
  197.5505  179.4456  152.4788 C   0  0  0  0  0  0  0  0  0  0  0  0
  198.9385  179.1320  152.5284 C   0  0  0  0  0  0  0  0  0  0  0  0
  199.3116  179.3334  153.8545 N   0  0  0  0  0  0  0  0  0  0  0  0
  200.6397  179.1326  154.4285 C   0  0  1  0  0  0  0  0  0  0  0  0
  200.9288  177.6638  154.7046 C   0  0  0  0  0  0  0  0  0  0  0  0
  200.8897  177.1723  156.0298 C   0  0  0  0  0  0  0  0  0  0  0  0
  201.1752  175.8139  156.2854 C   0  0  0  0  0  0  0  0  0  0  0  0
  201.4790  174.9347  155.2234 C   0  0  0  0  0  0  0  0  0  0  0  0
  201.5164  175.4250  153.9054 C   0  0  0  0  0  0  0  0  0  0  0  0
  201.2631  176.7833  153.6506 C   0  0  0  0  0  0  0  0  0  0  0  0
  199.6254  178.7162  151.3665 C   0  0  0  0  0  0  0  0  0  0  0  0
  198.9103  178.5423  150.1687 C   0  0  0  0  0  0  0  0  0  0  0  0
  197.5349  178.8541  150.1073 C   0  0  0  0  0  0  0  0  0  0  0  0
  196.8597  179.3232  151.2556 C   0  0  0  0  0  0  0  0  0  0  0  0
  197.4624  183.0834  155.8834 C   0  0  1  0  0  0  0  0  0  0  0  0
  197.0896  183.0813  154.5180 O   0  0  0  0  0  0  0  0  0  0  0  0
  196.3032  180.0022  156.7449 H   0  0  0  0  0  0  0  0  0  0  0  0
  194.3613  182.7632  158.8561 H   0  0  0  0  0  0  0  0  0  0  0  0
  193.5849  184.8428  159.9565 H   0  0  0  0  0  0  0  0  0  0  0  0
  195.2242  186.6090  160.5858 H   0  0  0  0  0  0  0  0  0  0  0  0
  197.6388  186.2927  160.0973 H   0  0  0  0  0  0  0  0  0  0  0  0
  197.9474  181.8568  158.3345 H   0  0  0  0  0  0  0  0  0  0  0  0
  196.3732  181.2194  158.6743 H   0  0  0  0  0  0  0  0  0  0  0  0
  195.5656  182.2473  156.5365 H   0  0  0  0  0  0  0  0  0  0  0  0
  198.9444  180.8852  156.1416 H   0  0  0  0  0  0  0  0  0  0  0  0
  198.3492  179.2463  156.5648 H   0  0  0  0  0  0  0  0  0  0  0  0
  201.3830  179.5284  153.7389 H   0  0  0  0  0  0  0  0  0  0  0  0
  200.7505  179.7194  155.3405 H   0  0  0  0  0  0  0  0  0  0  0  0
  200.6554  177.8297  156.8588 H   0  0  0  0  0  0  0  0  0  0  0  0
  201.1561  175.4391  157.3003 H   0  0  0  0  0  0  0  0  0  0  0  0
  201.6863  173.8878  155.4137 H   0  0  0  0  0  0  0  0  0  0  0  0
  201.7495  174.7645  153.0840 H   0  0  0  0  0  0  0  0  0  0  0  0
  201.3417  177.1188  152.6322 H   0  0  0  0  0  0  0  0  0  0  0  0
  200.6886  178.5248  151.3830 H   0  0  0  0  0  0  0  0  0  0  0  0
  199.4261  178.1800  149.2892 H   0  0  0  0  0  0  0  0  0  0  0  0
  197.0010  178.7410  149.1712 H   0  0  0  0  0  0  0  0  0  0  0  0
  195.8094  179.5750  151.2157 H   0  0  0  0  0  0  0  0  0  0  0  0
  197.2809  184.0846  156.2829 H   0  0  0  0  0  0  0  0  0  0  0  0
  198.5327  182.8988  155.9542 H   0  0  0  0  0  0  0  0  0  0  0  0
  196.1503  183.2178  154.4300 H   0  0  0  0  0  0  0  0  0  0  0  0
  196.3844  180.5839  155.2036 H   0  0  0  0  0  0  0  0  0  0  0  0
  1  2  1  0
  2  3  1  0
  2  7  2  0
  3  4  2  0
  3  8  1  0
  4  5  1  0
  4 31  1  0
  5  6  2  0
  5 32  1  0
  6  7  1  0
  6 33  1  0
  7 34  1  0
  8  9  1  0
  8 35  1  6
  8 36  1  0
  9 10  1  0
  9 28  1  0
  9 37  1  1
 10 11  1  0
 10 30  1  1
 10 54  1  0
 11 12  1  0
 11 38  1  6
 11 39  1  0
 12 13  2  0
 12 16  1  0
 13 14  1  0
 14 15  1  0
 14 27  2  0
 15 16  1  0
 15 24  2  0
 16 17  1  0
 17 18  1  0
 17 40  1  6
 17 41  1  0
 18 19  2  0
 18 23  1  0
 19 20  1  0
 19 42  1  0
 20 21  2  0
 20 43  1  0
 21 22  1  0
 21 44  1  0
 22 23  2  0
 22 45  1  0
 23 46  1  0
 24 25  1  0
 24 47  1  0
 25 26  2  0
 25 48  1  0
 26 27  1  0
 26 49  1  0
 27 50  1  0
 28 29  1  0
 28 51  1  1
 28 52  1  0
 29 53  1  0
M  CHG  1  10   1
M  END
>  <s_epik_cmdline>  (40) 
J2VwaWtfcHl0aG9uJywgJy1waCcsICc3LjAwMDAwMCcsICctcGh0JywgJzIuMDAwMDAwJywgJy1tcycsICcxNicsICctdG4nLCAnOCcsICctbWEnLCAnMjAwJywgJy1pbWFlJywgJzxpbmZpbGUubWFlPicsICctb21hZScsICc8b3V0ZmlsZS5tYWU+Jw==

>  <s_epik_input>  (40) 
W2NIXTFbY0hdW2NIXVtjSF1jKGMxQ2wpW0NIMl1bQ0BASF0oW0NIMl1bT0hdKVtOSF1bQ0gyXWMobjIpbihjKGMyMylbY0hdW2NIXVtjSF1bY0hdMylbQ0gyXWM0W2NIXVtjSF1bY0hdW2NIXVtjSF00

>  <s_i_glide_gridfile>  (40) 
ATP-Grid

>  <s_lp_Force_Field>  (40) 
OPLS_2005

>  <s_lp_Variant>  (40) 
m_270004bbb____24790256____24720860-4

>  <s_lp_label>  (40) 
1553_sdstereoexpander_2_neutralizer_1_epik_2_stereoizer_1

>  <s_m_source_file>  (40) 
ATP-VSW-LIGPREP-003-in.maegz

>  <s_sd_BIOSOLVEIT.INFINISEE\_QUERY\_NAME>  (40) 
Ref-Lig

>  <s_sd_BIOSOLVEIT.INFINISEE\_QUERY\_SMILES>  (40) 
S(c1nc2c(cc1C[NH2+]Cc3ccc(cc3)C[NH+](C)C)cccc2)Cc4ccccc4

>  <s_sd_BIOSOLVEIT.INFINISEE\_REACTION\_NAME>  (40) 
m_270004bbb

>  <s_sd_BIOSOLVEIT.INFINISEE\_REAGENT1\_SMILES>  (40) 
[R1*]NC(CO)Cc1c(Cl)cccc1

>  <s_sd_BIOSOLVEIT.INFINISEE\_REAGENT2\_SMILES>  (40) 
[R1*]CC1=Nc2c(N1Cc3ccccc3)cccc2

>  <s_sd_BIOSOLVEIT.INFINISEE\_SPACE>  (40) 
REALSpace_44bn_2023-08

>  <s_vsw_compound_code>  (40) 
49667

>  <s_vsw_variant>  (40) 
49667-4

>  <r_epik_Charging_Adjusted_Penalty>  (40) 
1.14533359616196

>  <r_epik_Ionization_Penalty>  (40) 
0.53859999999999997

>  <r_epik_Ionization_Penalty_Charging>  (40) 
0.53779999999999994

>  <r_epik_Ionization_Penalty_Neutral>  (40) 
0.00080000000000000004

>  <r_epik_State_Penalty>  (40) 
0.60760000000000003

>  <r_i_docking_score>  (40) 
-5.3905577957752602

>  <r_i_glide_ecoul>  (40) 
-12.105140686035201

>  <r_i_glide_eff_state_penalty>  (40) 
0.60760000000000003

>  <r_i_glide_einternal>  (40) 
11.645826339721699

>  <r_i_glide_emodel>  (40) 
-64.812208830070603

>  <r_i_glide_energy>  (40) 
-45.599075317382798

>  <r_i_glide_erotb>  (40) 
0.83138317722053701

>  <r_i_glide_esite>  (40) 
-0.13446417037063099

>  <r_i_glide_evdw>  (40) 
-33.493934631347699

>  <r_i_glide_gscore>  (40) 
-5.9981577957752599

>  <r_i_glide_hbond>  (40) 
-0.22353287678541101

>  <r_i_glide_ligand_efficiency>  (40) 
-0.185881303302595

>  <r_i_glide_ligand_efficiency_ln>  (40) 
-1.2343010424810099

>  <r_i_glide_ligand_efficiency_sa>  (40) 
-0.57108625507597099

>  <r_i_glide_lipo>  (40) 
-2.1214908640943699

>  <r_i_glide_metal>  (40) 
-0

>  <r_i_glide_rewards>  (40) 
-0.85958522727272602

>  <r_lp_Energy>  (40) 
19.591138000000001

>  <r_qp_ACxDN^.5/SA>  (40) 
0.0100883

>  <r_qp_CIQPlogS>  (40) 
-5.7140000000000004

>  <r_qp_EA(eV)>  (40) 
0.064000000000000001

>  <r_qp_FISA>  (40) 
65.489000000000004

>  <r_qp_FOSA>  (40) 
112.437

>  <r_qp_IP(eV)>  (40) 
8.5310000000000006

>  <r_qp_Jm>  (40) 
0.25401309269269601

>  <r_qp_PISA>  (40) 
454.21300000000002

>  <r_qp_PSA>  (40) 
43.756

>  <r_qp_PercentHumanOralAbsorption>  (40) 
100

>  <r_qp_QPPCaco>  (40) 
591.24300000000005

>  <r_qp_QPPMDCK>  (40) 
434.41899999999998

>  <r_qp_QPlogBB>  (40) 
-0.115

>  <r_qp_QPlogHERG>  (40) 
-6.8029999999999999

>  <r_qp_QPlogKhsa>  (40) 
0.68300000000000005

>  <r_qp_QPlogKp>  (40) 
-2.3250000000000002

>  <r_qp_QPlogPC16>  (40) 
14.154

>  <r_qp_QPlogPo/w>  (40) 
4.6799999999999997

>  <r_qp_QPlogPoct>  (40) 
19.783000000000001

>  <r_qp_QPlogPw>  (40) 
10.422000000000001

>  <r_qp_QPlogS>  (40) 
-3.879

>  <r_qp_QPpolrz>  (40) 
42.536999999999999

>  <r_qp_SASA>  (40) 
658.85900000000004

>  <r_qp_SAamideO>  (40) 
0

>  <r_qp_SAfluorine>  (40) 
0

>  <r_qp_WPSA>  (40) 
26.719999999999999

>  <r_qp_accptHB>  (40) 
4.7000000000000002

>  <r_qp_dip^2/V>  (40) 
0.0096492999999999995

>  <r_qp_dipole>  (40) 
3.4769999999999999

>  <r_qp_donorHB>  (40) 
2

>  <r_qp_glob>  (40) 
0.85296959999999999

>  <r_qp_mol_MW>  (40) 
405.92599999999999

>  <r_qp_volume>  (40) 
1252.6849999999999

>  <r_sd_BIOSOLVEIT.INFINISEE\_FTREES\_SIMILARITY>  (40) 
0.90600000000000003

>  <r_sd_BIOSOLVEIT.LOGP>  (40) 
3.4049999999999998

>  <r_sd_BIOSOLVEIT.MOLECULAR\_WEIGHT>  (40) 
406.935

>  <r_sd_BIOSOLVEIT.TPSA>  (40) 
54.659999999999997

>  <i_epik_Tot_Q>  (40) 
1

>  <i_epik_Tot_abs_Q>  (40) 
1

>  <i_f3d_flags>  (40) 
0

>  <i_i_glide_confnum>  (40) 
7

>  <i_i_glide_lignum>  (40) 
593

>  <i_i_glide_posenum>  (40) 
11

>  <i_i_glide_rotatable_bonds>  (40) 
9

>  <i_lp_mmshare_version>  (40) 
65135

>  <i_m_ct_format>  (40) 
2

>  <i_m_source_file_index>  (40) 
1553

>  <i_qp_#NandO>  (40) 
4

>  <i_qp_#acid>  (40) 
0

>  <i_qp_#amide>  (40) 
0

>  <i_qp_#amidine>  (40) 
0

>  <i_qp_#amine>  (40) 
1

>  <i_qp_#in34>  (40) 
0

>  <i_qp_#in56>  (40) 
21

>  <i_qp_#metab>  (40) 
5

>  <i_qp_#nonHatm>  (40) 
29

>  <i_qp_#noncon>  (40) 
0

>  <i_qp_#ringatoms>  (40) 
21

>  <i_qp_#rotor>  (40) 
9

>  <i_qp_#rtvFG>  (40) 
0

>  <i_qp_#stars>  (40) 
1

>  <i_qp_CNS>  (40) 
1

>  <i_qp_HumanOralAbsorption>  (40) 
3

>  <i_qp_RuleOfFive>  (40) 
0

>  <i_qp_RuleOfThree>  (40) 
0

>  <i_sd_BIOSOLVEIT.INFINISEE\_REAGENT1\_NAME>  (40) 
24790256

>  <i_sd_BIOSOLVEIT.INFINISEE\_REAGENT2\_NAME>  (40) 
24720860

>  <i_sd_BIOSOLVEIT.INFINISEE\_RESULT\_RANK>  (40) 
62597

>  <i_sd_version>  (40) 
0

>  <b_lp_Chiralities_Consistent>  (40) 
1

>  <b_sd_chiral_flag>  (40) 
0

>  <canonical_id>  (40) 
ATP-HTVS-06E5BAB39855

>  <compound_code>  (40) 
49667

>  <title>  (40) 
m_270004bbb____24790256____24720860

>  <variant>  (40) 
49667-4

>  <source_file>  (40) 
运行/运行/ATP-VSW/ATP-VSW-DOCK_HTVS_1-003_lib/ATP-VSW-DOCK_HTVS_1-003_lib.mae

>  <canonical_smiles>  (40) 
OC[C@H](Cc1ccccc1Cl)[NH2+]Cc1nc2ccccc2n1Cc1ccccc1

>  <scaffold>  (40) 
c1ccc(CC[NH2+]Cc2nc3ccccc3n2Cc2ccccc2)cc1

>  <molecular_formula>  (40) 
C24H25ClN3O+

$$$$
ATP-HTVS-071084F9408F
     RDKit          3D

 68 70  0  0  0  0  0  0  0  0999 V2000
  197.4228  188.6530  157.7112 O   0  0  0  0  0  0  0  0  0  0  0  0
  197.0880  187.4662  157.7014 C   0  0  0  0  0  0  0  0  0  0  0  0
  196.7276  186.8453  158.8606 N   0  0  0  0  0  0  0  0  0  0  0  0
  196.2567  185.4908  158.9078 C   0  0  0  0  0  0  0  0  0  0  0  0
  195.1482  185.1951  159.6273 N   0  0  0  0  0  0  0  0  0  0  0  0
  194.6289  183.9555  159.6853 C   0  0  0  0  0  0  0  0  0  0  0  0
  195.2349  182.8839  158.9831 C   0  0  0  0  0  0  0  0  0  0  0  0
  196.3904  183.1270  158.2317 C   0  0  0  0  0  0  0  0  0  0  0  0
  196.9794  182.0831  157.4959 N   0  0  0  0  0  0  0  0  0  0  0  0
  198.0166  182.3048  156.4990 C   0  0  1  0  0  0  0  0  0  0  0  0
  198.3430  181.0956  155.6542 C   0  0  0  0  0  0  0  0  0  0  0  0
  197.5213  180.7368  154.5498 C   0  0  0  0  0  0  0  0  0  0  0  0
  197.8467  179.6370  153.7215 C   0  0  0  0  0  0  0  0  0  0  0  0
  198.9824  178.8675  154.0290 C   0  0  0  0  0  0  0  0  0  0  0  0
  199.7895  179.1974  155.1325 C   0  0  0  0  0  0  0  0  0  0  0  0
  199.4769  180.3200  155.9295 C   0  0  0  0  0  0  0  0  0  0  0  0
  196.9699  179.2707  152.5143 C   0  0  1  0  0  0  0  0  0  0  0  0
  197.0559  180.2148  151.3842 N   0  0  2  0  0  0  0  0  0  0  0  0
  196.5843  181.5448  151.7754 C   0  0  2  0  0  0  0  0  0  0  0  0
  196.3427  179.8309  150.1730 C   0  0  2  0  0  0  0  0  0  0  0  0
  196.9157  184.4347  158.2555 C   0  0  0  0  0  0  0  0  0  0  0  0
  196.8310  187.5745  160.1324 C   0  0  2  0  0  0  0  0  0  0  0  0
  197.0476  186.7155  156.3365 C   0  0  1  0  0  0  0  0  0  0  0  0
  198.4012  186.5869  155.5583 C   0  0  1  0  0  0  0  0  0  0  0  0
  198.1710  185.8427  154.2157 C   0  0  0  0  0  0  0  0  0  0  0  0
  197.3331  184.7369  154.1501 C   0  0  0  0  0  0  0  0  0  0  0  0
  197.1138  184.0979  152.9502 C   0  0  0  0  0  0  0  0  0  0  0  0
  197.7534  184.4806  151.7710 C   0  0  0  0  0  0  0  0  0  0  0  0
  198.5626  185.6147  151.7967 C   0  0  0  0  0  0  0  0  0  0  0  0
  198.7662  186.3018  153.0112 C   0  0  0  0  0  0  0  0  0  0  0  0
  199.0145  187.9981  155.3198 C   0  0  2  0  0  0  0  0  0  0  0  0
  199.4580  185.7891  156.3545 C   0  0  2  0  0  0  0  0  0  0  0  0
  193.7466  183.8449  160.2950 H   0  0  0  0  0  0  0  0  0  0  0  0
  194.8261  181.8841  159.0212 H   0  0  0  0  0  0  0  0  0  0  0  0
  196.5328  181.1610  157.5034 H   0  0  0  0  0  0  0  0  0  0  0  0
  197.7047  183.0693  155.8383 H   0  0  0  0  0  0  0  0  0  0  0  0
  198.9395  182.6822  156.9618 H   0  0  0  0  0  0  0  0  0  0  0  0
  196.6515  181.3533  154.3520 H   0  0  0  0  0  0  0  0  0  0  0  0
  199.2296  178.0002  153.4403 H   0  0  0  0  0  0  0  0  0  0  0  0
  200.6431  178.5895  155.3930 H   0  0  0  0  0  0  0  0  0  0  0  0
  200.0993  180.5835  156.7783 H   0  0  0  0  0  0  0  0  0  0  0  0
  197.2701  178.2809  152.1336 H   0  0  0  0  0  0  0  0  0  0  0  0
  195.9481  179.1824  152.8625 H   0  0  0  0  0  0  0  0  0  0  0  0
  195.5517  181.5574  152.1679 H   0  0  0  0  0  0  0  0  0  0  0  0
  196.6734  182.2661  150.9773 H   0  0  0  0  0  0  0  0  0  0  0  0
  197.3245  181.7931  152.5058 H   0  0  0  0  0  0  0  0  0  0  0  0
  195.2824  179.6395  150.3845 H   0  0  0  0  0  0  0  0  0  0  0  0
  196.8017  178.9337  149.7324 H   0  0  0  0  0  0  0  0  0  0  0  0
  196.3899  180.6307  149.4215 H   0  0  0  0  0  0  0  0  0  0  0  0
  197.7888  184.6537  157.7214 H   0  0  0  0  0  0  0  0  0  0  0  0
  196.3867  187.0148  160.9528 H   0  0  0  0  0  0  0  0  0  0  0  0
  196.3438  188.5446  160.1061 H   0  0  0  0  0  0  0  0  0  0  0  0
  197.8799  187.7225  160.3830 H   0  0  0  0  0  0  0  0  0  0  0  0
  196.6521  185.7389  156.4520 H   0  0  0  0  0  0  0  0  0  0  0  0
  196.2713  187.1596  155.7300 H   0  0  0  0  0  0  0  0  0  0  0  0
  196.7675  184.3593  154.9776 H   0  0  0  0  0  0  0  0  0  0  0  0
  196.3583  183.3522  153.0252 H   0  0  0  0  0  0  0  0  0  0  0  0
  197.6172  183.9841  150.8122 H   0  0  0  0  0  0  0  0  0  0  0  0
  199.0041  185.9942  150.8736 H   0  0  0  0  0  0  0  0  0  0  0  0
  199.3603  187.2021  152.9818 H   0  0  0  0  0  0  0  0  0  0  0  0
  199.2171  188.4848  156.2579 H   0  0  0  0  0  0  0  0  0  0  0  0
  198.3457  188.6206  154.7297 H   0  0  0  0  0  0  0  0  0  0  0  0
  199.9794  187.9201  154.8275 H   0  0  0  0  0  0  0  0  0  0  0  0
  199.6578  186.2643  157.3165 H   0  0  0  0  0  0  0  0  0  0  0  0
  200.3905  185.6917  155.8113 H   0  0  0  0  0  0  0  0  0  0  0  0
  199.1772  184.7599  156.5213 H   0  0  0  0  0  0  0  0  0  0  0  0
  194.6588  185.9535  160.1225 H   0  0  0  0  0  0  0  0  0  0  0  0
  198.0235  180.3577  151.1659 H   0  0  0  0  0  0  0  0  0  0  0  0
  1  2  2  0
  2  3  1  0
  2 23  1  0
  3  4  1  0
  3 22  1  0
  4  5  1  0
  4 21  2  0
  5  6  2  0
  5 67  1  0
  6  7  1  0
  6 33  1  0
  7  8  2  0
  7 34  1  0
  8  9  1  0
  8 21  1  0
  9 10  1  0
  9 35  1  0
 10 11  1  0
 10 36  1  6
 10 37  1  0
 11 12  2  0
 11 16  1  0
 12 13  1  0
 12 38  1  0
 13 14  2  0
 13 17  1  0
 14 15  1  0
 14 39  1  0
 15 16  2  0
 15 40  1  0
 16 41  1  0
 17 18  1  0
 17 42  1  6
 17 43  1  0
 18 19  1  0
 18 20  1  0
 18 68  1  6
 19 44  1  1
 19 45  1  0
 19 46  1  0
 20 47  1  1
 20 48  1  0
 20 49  1  0
 21 50  1  0
 22 51  1  1
 22 52  1  0
 22 53  1  0
 23 24  1  0
 23 54  1  1
 23 55  1  0
 24 25  1  6
 24 31  1  0
 24 32  1  0
 25 26  2  0
 25 30  1  0
 26 27  1  0
 26 56  1  0
 27 28  2  0
 27 57  1  0
 28 29  1  0
 28 58  1  0
 29 30  2  0
 29 59  1  0
 30 60  1  0
 31 61  1  1
 31 62  1  0
 31 63  1  0
 32 64  1  1
 32 65  1  0
 32 66  1  0
M  CHG  2   5   1  18   1
M  END
>  <s_epik_cmdline>  (41) 
J2VwaWtfcHl0aG9uJywgJy1waCcsICc3LjAwMDAwMCcsICctcGh0JywgJzIuMDAwMDAwJywgJy1tcycsICcxNicsICctdG4nLCAnOCcsICctbWEnLCAnMjAwJywgJy1pbWFlJywgJzxpbmZpbGUubWFlPicsICctb21hZScsICc8b3V0ZmlsZS5tYWU+Jw==

>  <s_epik_input>  (41) 
W2NIXTFbY0hdW2NIXVtjSF1bY0hdYzFDKFtDSDNdKShbQ0gzXSlbQ0gyXUMoPU8pTihbQ0gzXSljMm5bY0hdW2NIXWMoW2NIXTIpW05IXVtDSDJdYzNbY0hdYyhbY0hdW2NIXVtjSF0zKVtDSDJdTihbQ0gzXSlbQ0gzXQ==

>  <s_i_glide_gridfile>  (41) 
ATP-Grid

>  <s_lp_Force_Field>  (41) 
OPLS_2005

>  <s_lp_Variant>  (41) 
rxn502a____EMOL1018066____EMOL45981693____EMOL2873214-1

>  <s_lp_label>  (41) 
3021_sdstereoexpander_1_neutralizer_1_epik_1_stereoizer_1

>  <s_m_source_file>  (41) 
ATP-VSW-LIGPREP-002-in.maegz

>  <s_sd_BIOSOLVEIT.INFINISEE\_QUERY\_NAME>  (41) 
Ref-Lig

>  <s_sd_BIOSOLVEIT.INFINISEE\_QUERY\_SMILES>  (41) 
S(c1nc2c(cc1C[NH2+]Cc3ccc(cc3)C[NH+](C)C)cccc2)Cc4ccccc4

>  <s_sd_BIOSOLVEIT.INFINISEE\_REACTION\_NAME>  (41) 
rxn502a

>  <s_sd_BIOSOLVEIT.INFINISEE\_REAGENT1\_NAME>  (41) 
EMOL1018066

>  <s_sd_BIOSOLVEIT.INFINISEE\_REAGENT1\_SMILES>  (41) 
O=C(O)CC(c1ccccc1)(C)C

>  <s_sd_BIOSOLVEIT.INFINISEE\_REAGENT2\_NAME>  (41) 
EMOL45981693

>  <s_sd_BIOSOLVEIT.INFINISEE\_REAGENT2\_SMILES>  (41) 
Ic1cc(ncc1)NC

>  <s_sd_BIOSOLVEIT.INFINISEE\_REAGENT3\_NAME>  (41) 
EMOL2873214

>  <s_sd_BIOSOLVEIT.INFINISEE\_REAGENT3\_SMILES>  (41) 
N(Cc1cc(ccc1)CN)(C)C

>  <s_sd_BIOSOLVEIT.INFINISEE\_SPACE>  (41) 
eXplore_7tr_2022-12

>  <s_vsw_compound_code>  (41) 
96642

>  <s_vsw_variant>  (41) 
96642-1

>  <r_epik_Charging_Adjusted_Penalty>  (41) 
0.13870021881623101

>  <r_epik_Ionization_Penalty>  (41) 
0.069400000000000003

>  <r_epik_Ionization_Penalty_Charging>  (41) 
0.069400000000000003

>  <r_epik_Ionization_Penalty_Neutral>  (41) 
0

>  <r_epik_State_Penalty>  (41) 
0.069400000000000003

>  <r_i_docking_score>  (41) 
-4.3503506355684802

>  <r_i_glide_ecoul>  (41) 
-7.4328536987304696

>  <r_i_glide_eff_state_penalty>  (41) 
0.069400000000000003

>  <r_i_glide_einternal>  (41) 
3.3543345928192099

>  <r_i_glide_emodel>  (41) 
-61.597310110269703

>  <r_i_glide_energy>  (41) 
-44.466873168945298

>  <r_i_glide_erotb>  (41) 
0.85068090411187802

>  <r_i_glide_esite>  (41) 
-0.068811363457347993

>  <r_i_glide_evdw>  (41) 
-37.034019470214801

>  <r_i_glide_gscore>  (41) 
-4.4197506355684801

>  <r_i_glide_hbond>  (41) 
-0.074724615077905607

>  <r_i_glide_ligand_efficiency>  (41) 
-0.13594845736151501

>  <r_i_glide_ligand_efficiency_ln>  (41) 
-0.97416209338333104

>  <r_i_glide_ligand_efficiency_sa>  (41) 
-0.43160944795963102

>  <r_i_glide_lipo>  (41) 
-1.2206658697655799

>  <r_i_glide_metal>  (41) 
-0

>  <r_i_glide_rewards>  (41) 
-0.93960066305921097

>  <r_lp_Energy>  (41) 
44.556072

>  <r_lp_tautomer_probability>  (41) 
0.9999999999368

>  <r_qp_ACxDN^.5/SA>  (41) 
0.0094788000000000008

>  <r_qp_CIQPlogS>  (41) 
-5.194

>  <r_qp_EA(eV)>  (41) 
-0.045999999999999999

>  <r_qp_FISA>  (41) 
44.442

>  <r_qp_FOSA>  (41) 
318.56299999999999

>  <r_qp_IP(eV)>  (41) 
8.5359999999999996

>  <r_qp_Jm>  (41) 
0.102830746556414

>  <r_qp_PISA>  (41) 
375.48500000000001

>  <r_qp_PSA>  (41) 
51.225000000000001

>  <r_qp_PercentHumanOralAbsorption>  (41) 
100

>  <r_qp_QPPCaco>  (41) 
936.17499999999995

>  <r_qp_QPPMDCK>  (41) 
509.64800000000002

>  <r_qp_QPlogBB>  (41) 
-0.010999999999999999

>  <r_qp_QPlogHERG>  (41) 
-6.8099999999999996

>  <r_qp_QPlogKhsa>  (41) 
0.72699999999999998

>  <r_qp_QPlogKp>  (41) 
-2.214

>  <r_qp_QPlogPC16>  (41) 
14.584

>  <r_qp_QPlogPo/w>  (41) 
4.9100000000000001

>  <r_qp_QPlogPoct>  (41) 
21.363

>  <r_qp_QPlogPw>  (41) 
10.727

>  <r_qp_QPlogS>  (41) 
-4.4080000000000004

>  <r_qp_QPpolrz>  (41) 
48.689999999999998

>  <r_qp_SASA>  (41) 
738.49000000000001

>  <r_qp_SAamideO>  (41) 
0

>  <r_qp_SAfluorine>  (41) 
0

>  <r_qp_WPSA>  (41) 
0

>  <r_qp_accptHB>  (41) 
7

>  <r_qp_dip^2/V>  (41) 
0.011542800000000001

>  <r_qp_dipole>  (41) 
4.056

>  <r_qp_donorHB>  (41) 
1

>  <r_qp_glob>  (41) 
0.82935749999999997

>  <r_qp_mol_MW>  (41) 
430.59199999999998

>  <r_qp_volume>  (41) 
1425.221

>  <r_sd_BIOSOLVEIT.INFINISEE\_FTREES\_SIMILARITY>  (41) 
0.90200000000000002

>  <r_sd_BIOSOLVEIT.LOGP>  (41) 
3.6688999999999998

>  <r_sd_BIOSOLVEIT.MOLECULAR\_WEIGHT>  (41) 
431.601

>  <r_sd_BIOSOLVEIT.TPSA>  (41) 
49.670000000000002

>  <i_epik_Tot_Q>  (41) 
2

>  <i_epik_Tot_abs_Q>  (41) 
2

>  <i_f3d_flags>  (41) 
0

>  <i_i_glide_confnum>  (41) 
4

>  <i_i_glide_lignum>  (41) 
87

>  <i_i_glide_posenum>  (41) 
18

>  <i_i_glide_rotatable_bonds>  (41) 
10

>  <i_lp_mmshare_version>  (41) 
65135

>  <i_m_ct_format>  (41) 
2

>  <i_m_source_file_index>  (41) 
3021

>  <i_qp_#NandO>  (41) 
5

>  <i_qp_#acid>  (41) 
0

>  <i_qp_#amide>  (41) 
0

>  <i_qp_#amidine>  (41) 
0

>  <i_qp_#amine>  (41) 
1

>  <i_qp_#in34>  (41) 
0

>  <i_qp_#in56>  (41) 
18

>  <i_qp_#metab>  (41) 
9

>  <i_qp_#nonHatm>  (41) 
32

>  <i_qp_#noncon>  (41) 
0

>  <i_qp_#ringatoms>  (41) 
18

>  <i_qp_#rotor>  (41) 
9

>  <i_qp_#rtvFG>  (41) 
0

>  <i_qp_#stars>  (41) 
1

>  <i_qp_CNS>  (41) 
1

>  <i_qp_HumanOralAbsorption>  (41) 
3

>  <i_qp_RuleOfFive>  (41) 
0

>  <i_qp_RuleOfThree>  (41) 
1

>  <i_sd_BIOSOLVEIT.INFINISEE\_RESULT\_RANK>  (41) 
88322

>  <i_sd_version>  (41) 
0

>  <b_lp_Chiralities_Consistent>  (41) 
1

>  <b_sd_chiral_flag>  (41) 
0

>  <canonical_id>  (41) 
ATP-HTVS-071084F9408F

>  <compound_code>  (41) 
96642

>  <title>  (41) 
rxn502a____EMOL1018066____EMOL45981693____EMOL2873214

>  <variant>  (41) 
96642-1

>  <source_file>  (41) 
运行/运行/ATP-VSW/ATP-VSW-DOCK_HTVS_1-003_lib/ATP-VSW-DOCK_HTVS_1-003_lib.mae

>  <canonical_smiles>  (41) 
CN(C(=O)CC(C)(C)c1ccccc1)c1cc(NCc2cccc(C[NH+](C)C)c2)cc[nH+]1

>  <scaffold>  (41) 
O=C(CCc1ccccc1)Nc1cc(NCc2ccccc2)cc[nH+]1

>  <molecular_formula>  (41) 
C27H36N4O+2

$$$$
ATP-HTVS-0715C99C3A28
     RDKit          3D

 52 54  0  0  0  0  0  0  0  0999 V2000
  204.7521  182.0876  161.0113 Cl  0  0  0  0  0  0  0  0  0  0  0  0
  203.4078  182.0209  159.9464 C   0  0  0  0  0  0  0  0  0  0  0  0
  203.4893  181.0103  158.5402 S   0  0  0  0  0  0  0  0  0  0  0  0
  201.8744  181.5132  158.0609 C   0  0  0  0  0  0  0  0  0  0  0  0
  201.4018  180.9503  156.7598 C   0  0  0  0  0  0  0  0  0  0  0  0
  202.2184  180.5895  155.9243 O   0  0  0  0  0  0  0  0  0  0  0  0
  200.0642  180.8900  156.5866 N   0  0  0  0  0  0  0  0  0  0  0  0
  199.3165  180.5087  155.4460 C   0  0  0  0  0  0  0  0  0  0  0  0
  197.9517  180.8848  155.4667 C   0  0  0  0  0  0  0  0  0  0  0  0
  197.0659  180.4843  154.4462 C   0  0  0  0  0  0  0  0  0  0  0  0
  197.5564  179.7813  153.3405 C   0  0  0  0  0  0  0  0  0  0  0  0
  196.7010  179.4312  152.2905 N   0  0  0  0  0  0  0  0  0  0  0  0
  198.9339  179.4587  153.2729 C   0  0  0  0  0  0  0  0  0  0  0  0
  199.8207  179.7894  154.3334 C   0  0  0  0  0  0  0  0  0  0  0  0
  201.3549  182.4388  158.9392 C   0  0  0  0  0  0  0  0  0  0  0  0
  200.1077  183.1000  158.8110 N   0  0  0  0  0  0  0  0  0  0  0  0
  199.9193  184.4341  159.3550 C   0  0  1  0  0  0  0  0  0  0  0  0
  198.5075  184.9660  159.2108 C   0  0  0  0  0  0  0  0  0  0  0  0
  197.4163  184.1059  159.4198 C   0  0  0  0  0  0  0  0  0  0  0  0
  196.0892  184.5284  159.1449 C   0  0  0  0  0  0  0  0  0  0  0  0
  195.8806  185.8719  158.7571 C   0  0  0  0  0  0  0  0  0  0  0  0
  196.9705  186.7571  158.6142 C   0  0  0  0  0  0  0  0  0  0  0  0
  198.2890  186.3051  158.8310 C   0  0  0  0  0  0  0  0  0  0  0  0
  194.9196  183.5332  159.2012 C   0  0  1  0  0  0  0  0  0  0  0  0
  194.9476  182.4950  158.1296 N   0  0  1  0  0  0  0  0  0  0  0  0
  196.1948  181.7379  158.0467 C   0  0  2  0  0  0  0  0  0  0  0  0
  193.8324  181.5389  158.1997 C   0  0  2  0  0  0  0  0  0  0  0  0
  202.2309  182.7080  160.0392 C   0  0  0  0  0  0  0  0  0  0  0  0
  199.5221  181.1843  157.3773 H   0  0  0  0  0  0  0  0  0  0  0  0
  197.6016  181.5021  156.2415 H   0  0  0  0  0  0  0  0  0  0  0  0
  196.0304  180.7491  154.5238 H   0  0  0  0  0  0  0  0  0  0  0  0
  197.0728  179.0227  151.4297 H   0  0  0  0  0  0  0  0  0  0  0  0
  195.7216  179.7166  152.2795 H   0  0  0  0  0  0  0  0  0  0  0  0
  199.3465  178.9463  152.3886 H   0  0  0  0  0  0  0  0  0  0  0  0
  200.8688  179.5204  154.2479 H   0  0  0  0  0  0  0  0  0  0  0  0
  199.6158  182.9364  157.9405 H   0  0  0  0  0  0  0  0  0  0  0  0
  200.1659  184.4449  160.4165 H   0  0  0  0  0  0  0  0  0  0  0  0
  200.6225  185.0834  158.8236 H   0  0  0  0  0  0  0  0  0  0  0  0
  197.6183  183.1031  159.8067 H   0  0  0  0  0  0  0  0  0  0  0  0
  194.8825  186.2077  158.5340 H   0  0  0  0  0  0  0  0  0  0  0  0
  196.7905  187.7877  158.3364 H   0  0  0  0  0  0  0  0  0  0  0  0
  199.1247  186.9751  158.6877 H   0  0  0  0  0  0  0  0  0  0  0  0
  194.9722  183.0141  160.1491 H   0  0  0  0  0  0  0  0  0  0  0  0
  193.9680  184.0809  159.1633 H   0  0  0  0  0  0  0  0  0  0  0  0
  196.4948  181.3043  158.9940 H   0  0  0  0  0  0  0  0  0  0  0  0
  196.9443  182.4639  157.7614 H   0  0  0  0  0  0  0  0  0  0  0  0
  196.1411  181.0304  157.2334 H   0  0  0  0  0  0  0  0  0  0  0  0
  193.9045  180.9456  159.1149 H   0  0  0  0  0  0  0  0  0  0  0  0
  193.9084  180.8353  157.3679 H   0  0  0  0  0  0  0  0  0  0  0  0
  192.8546  182.0240  158.1171 H   0  0  0  0  0  0  0  0  0  0  0  0
  202.0064  183.3984  160.8386 H   0  0  0  0  0  0  0  0  0  0  0  0
  194.8165  182.9707  157.2405 H   0  0  0  0  0  0  0  0  0  0  0  0
  1  2  1  0
  2  3  1  0
  2 28  2  0
  3  4  1  0
  4  5  1  0
  4 15  2  0
  5  6  2  0
  5  7  1  0
  7  8  1  0
  7 29  1  0
  8  9  1  0
  8 14  2  0
  9 10  2  0
  9 30  1  0
 10 11  1  0
 10 31  1  0
 11 12  1  0
 11 13  2  0
 12 32  1  0
 12 33  1  0
 13 14  1  0
 13 34  1  0
 14 35  1  0
 15 16  1  0
 15 28  1  0
 16 17  1  0
 16 36  1  0
 17 18  1  0
 17 37  1  1
 17 38  1  0
 18 19  2  0
 18 23  1  0
 19 20  1  0
 19 39  1  0
 20 21  2  0
 20 24  1  0
 21 22  1  0
 21 40  1  0
 22 23  2  0
 22 41  1  0
 23 42  1  0
 24 25  1  0
 24 43  1  1
 24 44  1  0
 25 26  1  0
 25 27  1  0
 25 52  1  6
 26 45  1  1
 26 46  1  0
 26 47  1  0
 27 48  1  1
 27 49  1  0
 27 50  1  0
 28 51  1  0
M  CHG  1  25   1
M  END
>  <s_epik_cmdline>  (42) 
J2VwaWtfcHl0aG9uJywgJy1waCcsICc3LjAwMDAwMCcsICctcGh0JywgJzIuMDAwMDAwJywgJy1tcycsICcxNicsICctdG4nLCAnOCcsICctbWEnLCAnMjAwJywgJy1pbWFlJywgJzxpbmZpbGUubWFlPicsICctb21hZScsICc8b3V0ZmlsZS5tYWU+Jw==

>  <s_epik_input>  (42) 
W2NIXTFbY0hdYyhbTkgyXSlbY0hdW2NIXWMxW05IXUMoPU8pYyhzYzJDbCljKFtjSF0yKVtOSF1bQ0gyXWMzW2NIXWMoW2NIXVtjSF1bY0hdMylbQ0gyXU4oW0NIM10pW0NIM10=

>  <s_i_glide_gridfile>  (42) 
ATP-Grid

>  <s_lp_Force_Field>  (42) 
OPLS_2005

>  <s_lp_Variant>  (42) 
rxn512b____EMOL493827____EMOL49851977____EMOL2873214-1

>  <s_lp_label>  (42) 
3106_sdstereoexpander_1_neutralizer_1_epik_1_stereoizer_1

>  <s_m_source_file>  (42) 
ATP-VSW-LIGPREP-002-in.maegz

>  <s_sd_BIOSOLVEIT.INFINISEE\_QUERY\_NAME>  (42) 
Ref-Lig

>  <s_sd_BIOSOLVEIT.INFINISEE\_QUERY\_SMILES>  (42) 
S(c1nc2c(cc1C[NH2+]Cc3ccc(cc3)C[NH+](C)C)cccc2)Cc4ccccc4

>  <s_sd_BIOSOLVEIT.INFINISEE\_REACTION\_NAME>  (42) 
rxn512b

>  <s_sd_BIOSOLVEIT.INFINISEE\_REAGENT1\_NAME>  (42) 
EMOL493827

>  <s_sd_BIOSOLVEIT.INFINISEE\_REAGENT1\_SMILES>  (42) 
Nc1ccc(N)cc1

>  <s_sd_BIOSOLVEIT.INFINISEE\_REAGENT2\_NAME>  (42) 
EMOL49851977

>  <s_sd_BIOSOLVEIT.INFINISEE\_REAGENT2\_SMILES>  (42) 
BrC1=C(SC(Cl)=C1)C(=O)O

>  <s_sd_BIOSOLVEIT.INFINISEE\_REAGENT3\_NAME>  (42) 
EMOL2873214

>  <s_sd_BIOSOLVEIT.INFINISEE\_REAGENT3\_SMILES>  (42) 
N(Cc1cc(ccc1)CN)(C)C

>  <s_sd_BIOSOLVEIT.INFINISEE\_SPACE>  (42) 
eXplore_7tr_2022-12

>  <s_vsw_compound_code>  (42) 
99362

>  <s_vsw_variant>  (42) 
99362-1

>  <r_epik_Charging_Adjusted_Penalty>  (42) 
0.086140609825027303

>  <r_epik_Ionization_Penalty>  (42) 
0.0453

>  <r_epik_Ionization_Penalty_Charging>  (42) 
0.043099999999999999

>  <r_epik_Ionization_Penalty_Neutral>  (42) 
0.0022000000000000001

>  <r_epik_State_Penalty>  (42) 
0.043099999999999999

>  <r_i_docking_score>  (42) 
-4.3102081590377903

>  <r_i_glide_ecoul>  (42) 
-8.0831146240234393

>  <r_i_glide_eff_state_penalty>  (42) 
0.043099999999999999

>  <r_i_glide_einternal>  (42) 
1.60792720317841

>  <r_i_glide_emodel>  (42) 
-55.389764255435097

>  <r_i_glide_energy>  (42) 
-40.33447265625

>  <r_i_glide_erotb>  (42) 
0.79909096266727297

>  <r_i_glide_esite>  (42) 
-0.099908135963290595

>  <r_i_glide_evdw>  (42) 
-32.251358032226598

>  <r_i_glide_gscore>  (42) 
-4.3533081590377902

>  <r_i_glide_hbond>  (42) 
-0.15712940785149801

>  <r_i_glide_ligand_efficiency>  (42) 
-0.153936005679921

>  <r_i_glide_ligand_efficiency_ln>  (42) 
-0.994922596316552

>  <r_i_glide_ligand_efficiency_sa>  (42) 
-0.46744037670303501

>  <r_i_glide_lipo>  (42) 
-1.49732757358452

>  <r_i_glide_metal>  (42) 
-0

>  <r_i_glide_rewards>  (42) 
-0.572998909090908

>  <r_lp_Energy>  (42) 
22.135173999999999

>  <r_lp_tautomer_probability>  (42) 
0.99999274205267796

>  <r_qp_ACxDN^.5/SA>  (42) 
0.013424

>  <r_qp_CIQPlogS>  (42) 
-4.2560000000000002

>  <r_qp_EA(eV)>  (42) 
0.76100000000000001

>  <r_qp_FISA>  (42) 
99.554000000000002

>  <r_qp_FOSA>  (42) 
172.13300000000001

>  <r_qp_IP(eV)>  (42) 
7.7809999999999997

>  <r_qp_Jm>  (42) 
0.0015738140434555399

>  <r_qp_PISA>  (42) 
271.49200000000002

>  <r_qp_PSA>  (42) 
75.846999999999994

>  <r_qp_PercentHumanOralAbsorption>  (42) 
79.882000000000005

>  <r_qp_QPPCaco>  (42) 
70.085999999999999

>  <r_qp_QPPMDCK>  (42) 
128.10400000000001

>  <r_qp_QPlogBB>  (42) 
0.222

>  <r_qp_QPlogHERG>  (42) 
-6.6639999999999997

>  <r_qp_QPlogKhsa>  (42) 
0.47099999999999997

>  <r_qp_QPlogKp>  (42) 
-5.7549999999999999

>  <r_qp_QPlogPC16>  (42) 
13.481999999999999

>  <r_qp_QPlogPo/w>  (42) 
3.399

>  <r_qp_QPlogPoct>  (42) 
20.393000000000001

>  <r_qp_QPlogPw>  (42) 
11.153

>  <r_qp_QPlogS>  (42) 
-2.6659999999999999

>  <r_qp_QPpolrz>  (42) 
40.149000000000001

>  <r_qp_SASA>  (42) 
647.81399999999996

>  <r_qp_SAamideO>  (42) 
0

>  <r_qp_SAfluorine>  (42) 
0

>  <r_qp_WPSA>  (42) 
104.63500000000001

>  <r_qp_accptHB>  (42) 
5.5

>  <r_qp_dip^2/V>  (42) 
0.0102659

>  <r_qp_dipole>  (42) 
3.54

>  <r_qp_donorHB>  (42) 
2.5

>  <r_qp_glob>  (42) 
0.85261600000000004

>  <r_qp_mol_MW>  (42) 
414.952

>  <r_qp_volume>  (42) 
1220.556

>  <r_sd_BIOSOLVEIT.INFINISEE\_FTREES\_SIMILARITY>  (42) 
0.90100000000000002

>  <r_sd_BIOSOLVEIT.LOGP>  (42) 
3.4925999999999999

>  <r_sd_BIOSOLVEIT.MOLECULAR\_WEIGHT>  (42) 
415.96600000000001

>  <r_sd_BIOSOLVEIT.TPSA>  (42) 
71.590000000000003

>  <i_epik_Tot_Q>  (42) 
1

>  <i_epik_Tot_abs_Q>  (42) 
1

>  <i_f3d_flags>  (42) 
0

>  <i_i_glide_confnum>  (42) 
10

>  <i_i_glide_lignum>  (42) 
149

>  <i_i_glide_posenum>  (42) 
14

>  <i_i_glide_rotatable_bonds>  (42) 
8

>  <i_lp_mmshare_version>  (42) 
65135

>  <i_m_ct_format>  (42) 
2

>  <i_m_source_file_index>  (42) 
3106

>  <i_qp_#NandO>  (42) 
5

>  <i_qp_#acid>  (42) 
0

>  <i_qp_#amide>  (42) 
0

>  <i_qp_#amidine>  (42) 
0

>  <i_qp_#amine>  (42) 
2

>  <i_qp_#in34>  (42) 
0

>  <i_qp_#in56>  (42) 
17

>  <i_qp_#metab>  (42) 
7

>  <i_qp_#nonHatm>  (42) 
28

>  <i_qp_#noncon>  (42) 
0

>  <i_qp_#ringatoms>  (42) 
17

>  <i_qp_#rotor>  (42) 
8

>  <i_qp_#rtvFG>  (42) 
0

>  <i_qp_#stars>  (42) 
1

>  <i_qp_CNS>  (42) 
1

>  <i_qp_HumanOralAbsorption>  (42) 
2

>  <i_qp_RuleOfFive>  (42) 
0

>  <i_qp_RuleOfThree>  (42) 
1

>  <i_sd_BIOSOLVEIT.INFINISEE\_RESULT\_RANK>  (42) 
97734

>  <i_sd_version>  (42) 
0

>  <b_lp_Chiralities_Consistent>  (42) 
1

>  <b_sd_chiral_flag>  (42) 
0

>  <canonical_id>  (42) 
ATP-HTVS-0715C99C3A28

>  <compound_code>  (42) 
99362

>  <title>  (42) 
rxn512b____EMOL493827____EMOL49851977____EMOL2873214

>  <variant>  (42) 
99362-1

>  <source_file>  (42) 
运行/运行/ATP-VSW/ATP-VSW-DOCK_HTVS_1-003_lib/ATP-VSW-DOCK_HTVS_1-003_lib.mae

>  <canonical_smiles>  (42) 
C[NH+](C)Cc1cccc(CNc2cc(Cl)sc2C(=O)Nc2ccc(N)cc2)c1

>  <scaffold>  (42) 
O=C(Nc1ccccc1)c1sccc1NCc1ccccc1

>  <molecular_formula>  (42) 
C21H24ClN4OS+

$$$$
ATP-HTVS-0743B9964B99
     RDKit          3D

 58 61  0  0  0  0  0  0  0  0999 V2000
  202.7787  175.5799  152.2271 F   0  0  0  0  0  0  0  0  0  0  0  0
  201.9141  175.8368  153.2467 C   0  0  0  0  0  0  0  0  0  0  0  0
  201.9206  175.1237  154.4644 C   0  0  0  0  0  0  0  0  0  0  0  0
  201.1337  175.6418  155.5256 C   0  0  0  0  0  0  0  0  0  0  0  0
  200.3561  176.8086  155.3264 C   0  0  0  0  0  0  0  0  0  0  0  0
  200.3020  177.4358  154.0578 C   0  0  0  0  0  0  0  0  0  0  0  0
  199.5171  178.6600  153.7987 C   0  0  0  0  0  0  0  0  0  0  0  0
  198.9550  178.7373  152.5739 N   0  0  0  0  0  0  0  0  0  0  0  0
  198.2063  179.8140  152.2641 C   0  0  0  0  0  0  0  0  0  0  0  0
  198.0099  180.8878  153.1768 C   0  0  0  0  0  0  0  0  0  0  0  0
  198.6400  180.8075  154.4486 C   0  0  0  0  0  0  0  0  0  0  0  0
  199.3936  179.6643  154.7584 C   0  0  0  0  0  0  0  0  0  0  0  0
  198.5517  181.9019  155.4791 C   0  0  0  0  0  0  0  0  0  0  0  0
  199.4598  182.7327  155.5144 O   0  0  0  0  0  0  0  0  0  0  0  0
  197.4761  181.9032  156.3101 N   0  0  0  0  0  0  0  0  0  0  0  0
  197.3825  182.7792  157.4452 C   0  0  0  0  0  0  0  0  0  0  0  0
  196.1446  183.3646  157.8104 C   0  0  0  0  0  0  0  0  0  0  0  0
  196.0423  184.1860  158.9487 C   0  0  0  0  0  0  0  0  0  0  0  0
  194.8177  184.7441  159.3059 N   0  0  0  0  0  0  0  0  0  0  0  0
  197.1809  184.4424  159.7240 C   0  0  0  0  0  0  0  0  0  0  0  0
  198.4160  183.8712  159.3814 C   0  0  0  0  0  0  0  0  0  0  0  0
  198.5127  183.0440  158.2537 C   0  0  0  0  0  0  0  0  0  0  0  0
  196.3324  181.0454  156.0091 C   0  0  2  0  0  0  0  0  0  0  0  0
  197.2019  181.9892  152.7989 C   0  0  0  0  0  0  0  0  0  0  0  0
  196.5995  182.0314  151.5297 C   0  0  0  0  0  0  0  0  0  0  0  0
  196.8018  180.9787  150.6227 C   0  0  0  0  0  0  0  0  0  0  0  0
  197.5980  179.8805  150.9934 C   0  0  0  0  0  0  0  0  0  0  0  0
  201.0798  176.8889  153.0210 C   0  0  0  0  0  0  0  0  0  0  0  0
  202.7425  173.8489  154.7117 C   0  0  1  0  0  0  0  0  0  0  0  0
  202.4127  172.7335  153.7664 N   0  0  1  0  0  0  0  0  0  0  0  0
  200.9586  172.4753  153.6714 C   0  0  2  0  0  0  0  0  0  0  0  0
  203.0504  172.8465  152.4295 C   0  0  2  0  0  0  0  0  0  0  0  0
  201.1378  175.1771  156.5149 H   0  0  0  0  0  0  0  0  0  0  0  0
  199.7843  177.2080  156.1300 H   0  0  0  0  0  0  0  0  0  0  0  0
  199.8686  179.5595  155.7230 H   0  0  0  0  0  0  0  0  0  0  0  0
  195.2600  183.1888  157.2148 H   0  0  0  0  0  0  0  0  0  0  0  0
  194.7037  185.2854  160.1478 H   0  0  0  0  0  0  0  0  0  0  0  0
  193.9711  184.5288  158.7923 H   0  0  0  0  0  0  0  0  0  0  0  0
  197.1137  185.0788  160.6049 H   0  0  0  0  0  0  0  0  0  0  0  0
  199.2937  184.0628  159.9841 H   0  0  0  0  0  0  0  0  0  0  0  0
  199.4703  182.5998  158.0180 H   0  0  0  0  0  0  0  0  0  0  0  0
  195.5955  181.0599  156.8119 H   0  0  0  0  0  0  0  0  0  0  0  0
  196.6397  180.0063  155.8586 H   0  0  0  0  0  0  0  0  0  0  0  0
  195.8232  181.3953  155.1096 H   0  0  0  0  0  0  0  0  0  0  0  0
  197.0124  182.8096  153.4757 H   0  0  0  0  0  0  0  0  0  0  0  0
  195.9810  182.8743  151.2561 H   0  0  0  0  0  0  0  0  0  0  0  0
  196.3491  181.0125  149.6438 H   0  0  0  0  0  0  0  0  0  0  0  0
  197.7494  179.0764  150.2889 H   0  0  0  0  0  0  0  0  0  0  0  0
  201.1180  177.3394  152.0310 H   0  0  0  0  0  0  0  0  0  0  0  0
  203.8054  174.0965  154.6563 H   0  0  0  0  0  0  0  0  0  0  0  0
  202.5799  173.4785  155.7314 H   0  0  0  0  0  0  0  0  0  0  0  0
  200.4217  173.3416  153.2708 H   0  0  0  0  0  0  0  0  0  0  0  0
  200.5504  172.2437  154.6513 H   0  0  0  0  0  0  0  0  0  0  0  0
  200.7696  171.6356  153.0014 H   0  0  0  0  0  0  0  0  0  0  0  0
  202.5896  173.5656  151.8204 H   0  0  0  0  0  0  0  0  0  0  0  0
  202.8293  171.9854  151.7860 H   0  0  0  0  0  0  0  0  0  0  0  0
  204.1396  173.0160  152.5019 H   0  0  0  0  0  0  0  0  0  0  0  0
  202.8324  171.8645  154.1527 H   0  0  0  0  0  0  0  0  0  0  0  0
  1  2  1  0
  2  3  2  0
  2 28  1  0
  3  4  1  0
  3 29  1  0
  4  5  2  0
  4 33  1  0
  5  6  1  0
  5 34  1  0
  6  7  1  0
  6 28  2  0
  7  8  2  0
  7 12  1  0
  8  9  1  0
  9 10  1  0
  9 27  2  0
 10 11  1  0
 10 24  2  0
 11 12  2  0
 11 13  1  0
 12 35  1  0
 13 14  2  0
 13 15  1  0
 15 16  1  0
 15 23  1  0
 16 17  1  0
 16 22  2  0
 17 18  2  0
 17 36  1  0
 18 19  1  0
 18 20  1  0
 19 37  1  0
 19 38  1  0
 20 21  2  0
 20 39  1  0
 21 22  1  0
 21 40  1  0
 22 41  1  0
 23 42  1  1
 23 43  1  0
 23 44  1  0
 24 25  1  0
 24 45  1  0
 25 26  2  0
 25 46  1  0
 26 27  1  0
 26 47  1  0
 27 48  1  0
 28 49  1  0
 29 30  1  0
 29 50  1  1
 29 51  1  0
 30 31  1  0
 30 32  1  0
 30 58  1  1
 31 52  1  6
 31 53  1  0
 31 54  1  0
 32 55  1  6
 32 56  1  0
 32 57  1  0
M  CHG  1  30   1
M  END
>  <s_epik_cmdline>  (43) 
J2VwaWtfcHl0aG9uJywgJy1waCcsICc3LjAwMDAwMCcsICctcGh0JywgJzIuMDAwMDAwJywgJy1tcycsICcxNicsICctdG4nLCAnOCcsICctbWEnLCAnMjAwJywgJy1pbWFlJywgJzxpbmZpbGUubWFlPicsICctb21hZScsICc8b3V0ZmlsZS5tYWU+Jw==

>  <s_epik_input>  (43) 
W0NIM11OKFtDSDNdKVtDSDJdYyhjMUYpW2NIXVtjSF1jKFtjSF0xKS1jKG4yKVtjSF1jKGMoYzIzKVtjSF1bY0hdW2NIXVtjSF0zKUMoPU8pTihbQ0gzXSljNFtjSF1jKFtOSDJdKVtjSF1bY0hdW2NIXTQ=

>  <s_i_glide_gridfile>  (43) 
ATP-Grid

>  <s_lp_Force_Field>  (43) 
OPLS_2005

>  <s_lp_Variant>  (43) 
WXDL_14____AG3393____LN00173385____BT9925-1

>  <s_lp_label>  (43) 
639_sdstereoexpander_1_neutralizer_1_epik_1_stereoizer_1

>  <s_m_source_file>  (43) 
ATP-VSW-LIGPREP-001-in.maegz

>  <s_sd_BIOSOLVEIT.INFINISEE\_QUERY\_NAME>  (43) 
Ref-Lig

>  <s_sd_BIOSOLVEIT.INFINISEE\_QUERY\_SMILES>  (43) 
S(c1nc2c(cc1C[NH2+]Cc3ccc(cc3)C[NH+](C)C)cccc2)Cc4ccccc4

>  <s_sd_BIOSOLVEIT.INFINISEE\_REACTION\_NAME>  (43) 
WXDL_14

>  <s_sd_BIOSOLVEIT.INFINISEE\_REAGENT1\_NAME>  (43) 
AG3393

>  <s_sd_BIOSOLVEIT.INFINISEE\_REAGENT1\_SMILES>  (43) 
N(c1cc(N)ccc1)C

>  <s_sd_BIOSOLVEIT.INFINISEE\_REAGENT2\_NAME>  (43) 
LN00173385

>  <s_sd_BIOSOLVEIT.INFINISEE\_REAGENT2\_SMILES>  (43) 
Brc1nc2c(c(c1)C(=O)O)cccc2

>  <s_sd_BIOSOLVEIT.INFINISEE\_REAGENT3\_NAME>  (43) 
BT9925

>  <s_sd_BIOSOLVEIT.INFINISEE\_REAGENT3\_SMILES>  (43) 
Fc1c(ccc(c1)B(O)O)CN(C)C

>  <s_sd_BIOSOLVEIT.INFINISEE\_SPACE>  (43) 
GalaXi_12bn_2023-03

>  <s_vsw_compound_code>  (43) 
20417

>  <s_vsw_variant>  (43) 
20417-1

>  <r_epik_Charging_Adjusted_Penalty>  (43) 
0.10781771903029801

>  <r_epik_Ionization_Penalty>  (43) 
0.0545

>  <r_epik_Ionization_Penalty_Charging>  (43) 
0.053900000000000003

>  <r_epik_Ionization_Penalty_Neutral>  (43) 
0.00059999999999999995

>  <r_epik_State_Penalty>  (43) 
0.053900000000000003

>  <r_i_docking_score>  (43) 
-4.3239543576619202

>  <r_i_glide_ecoul>  (43) 
-7.60866355895996

>  <r_i_glide_eff_state_penalty>  (43) 
0.053900000000000003

>  <r_i_glide_einternal>  (43) 
6.9820961952209499

>  <r_i_glide_emodel>  (43) 
-51.913267006416298

>  <r_i_glide_energy>  (43) 
-40.4021892547607

>  <r_i_glide_erotb>  (43) 
0.538629367979923

>  <r_i_glide_esite>  (43) 
-0.155903087604993

>  <r_i_glide_evdw>  (43) 
-32.793525695800803

>  <r_i_glide_gscore>  (43) 
-4.3778543576619198

>  <r_i_glide_hbond>  (43) 
-0.20000000000000001

>  <r_i_glide_ligand_efficiency>  (43) 
-0.135123573676935

>  <r_i_glide_ligand_efficiency_ln>  (43) 
-0.96825124722469302

>  <r_i_glide_ligand_efficiency_sa>  (43) 
-0.42899060550534901

>  <r_i_glide_lipo>  (43) 
-1.0739860216755499

>  <r_i_glide_metal>  (43) 
-0

>  <r_i_glide_rewards>  (43) 
-0.70561879772727099

>  <r_lp_Energy>  (43) 
46.718369000000003

>  <r_qp_ACxDN^.5/SA>  (43) 
0.0116332

>  <r_qp_CIQPlogS>  (43) 
-5.3789999999999996

>  <r_qp_EA(eV)>  (43) 
1.1910000000000001

>  <r_qp_FISA>  (43) 
98.236999999999995

>  <r_qp_FOSA>  (43) 
249.62100000000001

>  <r_qp_IP(eV)>  (43) 
8.4169999999999998

>  <r_qp_Jm>  (43) 
0.00114787141831208

>  <r_qp_PISA>  (43) 
358.05799999999999

>  <r_qp_PSA>  (43) 
67.900999999999996

>  <r_qp_PercentHumanOralAbsorption>  (43) 
95.173000000000002

>  <r_qp_QPPCaco>  (43) 
289.21499999999997

>  <r_qp_QPPMDCK>  (43) 
211.80099999999999

>  <r_qp_QPlogBB>  (43) 
-0.33700000000000002

>  <r_qp_QPlogHERG>  (43) 
-7.1390000000000002

>  <r_qp_QPlogKhsa>  (43) 
0.65400000000000003

>  <r_qp_QPlogKp>  (43) 
-3.5550000000000002

>  <r_qp_QPlogPC16>  (43) 
14.202999999999999

>  <r_qp_QPlogPo/w>  (43) 
4.1289999999999996

>  <r_qp_QPlogPoct>  (43) 
22.292999999999999

>  <r_qp_QPlogPw>  (43) 
12.375999999999999

>  <r_qp_QPlogS>  (43) 
-5.0170000000000003

>  <r_qp_QPpolrz>  (43) 
47.676000000000002

>  <r_qp_SASA>  (43) 
736.95899999999995

>  <r_qp_SAamideO>  (43) 
0

>  <r_qp_SAfluorine>  (43) 
31.042999999999999

>  <r_qp_WPSA>  (43) 
31.042999999999999

>  <r_qp_accptHB>  (43) 
7

>  <r_qp_dip^2/V>  (43) 
0.026554299999999999

>  <r_qp_dipole>  (43) 
6

>  <r_qp_donorHB>  (43) 
1.5

>  <r_qp_glob>  (43) 
0.80391270000000004

>  <r_qp_mol_MW>  (43) 
428.50799999999998

>  <r_qp_volume>  (43) 
1355.9100000000001

>  <r_sd_BIOSOLVEIT.INFINISEE\_FTREES\_SIMILARITY>  (43) 
0.90300000000000002

>  <r_sd_BIOSOLVEIT.LOGP>  (43) 
3.5442

>  <r_sd_BIOSOLVEIT.MOLECULAR\_WEIGHT>  (43) 
429.51600000000002

>  <r_sd_BIOSOLVEIT.TPSA>  (43) 
63.659999999999997

>  <i_epik_Tot_Q>  (43) 
1

>  <i_epik_Tot_abs_Q>  (43) 
1

>  <i_f3d_flags>  (43) 
0

>  <i_i_glide_confnum>  (43) 
4

>  <i_i_glide_lignum>  (43) 
80

>  <i_i_glide_posenum>  (43) 
8

>  <i_i_glide_rotatable_bonds>  (43) 
6

>  <i_lp_mmshare_version>  (43) 
65135

>  <i_m_ct_format>  (43) 
2

>  <i_m_source_file_index>  (43) 
639

>  <i_qp_#NandO>  (43) 
5

>  <i_qp_#acid>  (43) 
0

>  <i_qp_#amide>  (43) 
0

>  <i_qp_#amidine>  (43) 
0

>  <i_qp_#amine>  (43) 
1

>  <i_qp_#in34>  (43) 
0

>  <i_qp_#in56>  (43) 
22

>  <i_qp_#metab>  (43) 
5

>  <i_qp_#nonHatm>  (43) 
32

>  <i_qp_#noncon>  (43) 
0

>  <i_qp_#ringatoms>  (43) 
22

>  <i_qp_#rotor>  (43) 
6

>  <i_qp_#rtvFG>  (43) 
0

>  <i_qp_#stars>  (43) 
0

>  <i_qp_CNS>  (43) 
1

>  <i_qp_HumanOralAbsorption>  (43) 
3

>  <i_qp_RuleOfFive>  (43) 
0

>  <i_qp_RuleOfThree>  (43) 
0

>  <i_sd_BIOSOLVEIT.INFINISEE\_RESULT\_RANK>  (43) 
83416

>  <i_sd_version>  (43) 
0

>  <b_lp_Chiralities_Consistent>  (43) 
1

>  <b_sd_chiral_flag>  (43) 
0

>  <canonical_id>  (43) 
ATP-HTVS-0743B9964B99

>  <compound_code>  (43) 
20417

>  <title>  (43) 
WXDL_14____AG3393____LN00173385____BT9925

>  <variant>  (43) 
20417-1

>  <source_file>  (43) 
运行/运行/ATP-VSW/ATP-VSW-DOCK_HTVS_1-001_lib/ATP-VSW-DOCK_HTVS_1-001_lib

>  <canonical_smiles>  (43) 
CN(C(=O)c1cc(-c2ccc(C[NH+](C)C)c(F)c2)nc2ccccc12)c1cccc(N)c1

>  <scaffold>  (43) 
O=C(Nc1ccccc1)c1cc(-c2ccccc2)nc2ccccc12

>  <molecular_formula>  (43) 
C26H26FN4O+

$$$$
ATP-HTVS-07D9286D8737
     RDKit          3D

 63 66  0  0  0  0  0  0  0  0999 V2000
  201.0905  179.5042  153.5653 O   0  0  0  0  0  0  0  0  0  0  0  0
  200.1330  179.0765  154.2134 C   0  0  0  0  0  0  0  0  0  0  0  0
  199.8010  177.7821  154.3325 N   0  0  0  0  0  0  0  0  0  0  0  0
  200.3541  176.6893  153.5928 C   0  0  0  0  0  0  0  0  0  0  0  0
  199.9749  176.4662  152.2239 C   0  0  0  0  0  0  0  0  0  0  0  0
  199.1531  177.3937  151.5484 N   0  0  0  0  0  0  0  0  0  0  0  0
  198.6196  177.2379  150.1845 C   0  0  2  0  0  0  0  0  0  0  0  0
  199.5666  176.7242  149.1621 C   0  0  0  0  0  0  0  0  0  0  0  0
  200.9410  177.0527  149.2235 C   0  0  0  0  0  0  0  0  0  0  0  0
  201.8680  176.5272  148.3175 C   0  0  0  0  0  0  0  0  0  0  0  0
  201.4430  175.6267  147.3229 C   0  0  0  0  0  0  0  0  0  0  0  0
  200.0805  175.2712  147.2484 C   0  0  0  0  0  0  0  0  0  0  0  0
  199.1548  175.8035  148.1719 C   0  0  0  0  0  0  0  0  0  0  0  0
  198.0816  178.5624  149.5667 C   0  0  0  0  0  0  0  0  0  0  0  0
  196.8987  178.7021  149.2462 O   0  0  0  0  0  0  0  0  0  0  0  0
  199.0459  179.7472  149.3687 C   0  0  2  0  0  0  0  0  0  0  0  0
  200.4637  175.2798  151.6057 C   0  0  0  0  0  0  0  0  0  0  0  0
  201.3130  174.4374  152.1945 N   0  0  0  0  0  0  0  0  0  0  0  0
  201.6924  174.6569  153.4687 C   0  0  0  0  0  0  0  0  0  0  0  0
  201.1994  175.7566  154.2296 C   0  0  0  0  0  0  0  0  0  0  0  0
  201.5460  175.8544  155.6037 C   0  0  0  0  0  0  0  0  0  0  0  0
  202.3767  174.8711  156.1787 C   0  0  0  0  0  0  0  0  0  0  0  0
  202.8926  173.7950  155.4186 C   0  0  0  0  0  0  0  0  0  0  0  0
  202.5473  173.7139  154.0562 C   0  0  0  0  0  0  0  0  0  0  0  0
  199.2198  180.0276  154.9287 C   0  0  0  0  0  0  0  0  0  0  0  0
  197.8379  180.0425  154.6258 C   0  0  0  0  0  0  0  0  0  0  0  0
  196.9842  180.9771  155.2456 C   0  0  0  0  0  0  0  0  0  0  0  0
  197.5007  181.8961  156.1848 C   0  0  0  0  0  0  0  0  0  0  0  0
  198.8793  181.8785  156.4887 C   0  0  0  0  0  0  0  0  0  0  0  0
  199.7359  180.9583  155.8534 C   0  0  0  0  0  0  0  0  0  0  0  0
  196.5709  182.8872  156.8755 C   0  0  1  0  0  0  0  0  0  0  0  0
  195.7062  182.2275  157.8916 N   0  0  2  0  0  0  0  0  0  0  0  0
  194.7164  183.1551  158.4811 C   0  0  2  0  0  0  0  0  0  0  0  0
  196.4680  181.5246  158.9364 C   0  0  2  0  0  0  0  0  0  0  0  0
  199.1169  177.5630  155.0449 H   0  0  0  0  0  0  0  0  0  0  0  0
  198.8711  178.2460  152.0163 H   0  0  0  0  0  0  0  0  0  0  0  0
  197.7808  176.5508  150.2483 H   0  0  0  0  0  0  0  0  0  0  0  0
  201.2877  177.7935  149.9329 H   0  0  0  0  0  0  0  0  0  0  0  0
  202.9061  176.7848  148.4428 H   0  0  0  0  0  0  0  0  0  0  0  0
  202.1835  175.1272  146.7140 H   0  0  0  0  0  0  0  0  0  0  0  0
  199.7682  174.4930  146.5713 H   0  0  0  0  0  0  0  0  0  0  0  0
  198.1169  175.5124  148.1147 H   0  0  0  0  0  0  0  0  0  0  0  0
  200.0785  179.4308  149.2218 H   0  0  0  0  0  0  0  0  0  0  0  0
  199.0446  180.4012  150.2491 H   0  0  0  0  0  0  0  0  0  0  0  0
  198.7800  180.3071  148.4634 H   0  0  0  0  0  0  0  0  0  0  0  0
  200.1984  174.9805  150.5969 H   0  0  0  0  0  0  0  0  0  0  0  0
  201.1534  176.6586  156.2241 H   0  0  0  0  0  0  0  0  0  0  0  0
  202.6314  174.9409  157.2296 H   0  0  0  0  0  0  0  0  0  0  0  0
  203.5296  173.0262  155.8585 H   0  0  0  0  0  0  0  0  0  0  0  0
  202.9017  172.8757  153.4612 H   0  0  0  0  0  0  0  0  0  0  0  0
  197.4240  179.3410  153.9130 H   0  0  0  0  0  0  0  0  0  0  0  0
  195.9335  180.9920  154.9912 H   0  0  0  0  0  0  0  0  0  0  0  0
  199.2848  182.5668  157.2126 H   0  0  0  0  0  0  0  0  0  0  0  0
  200.7882  180.9446  156.0886 H   0  0  0  0  0  0  0  0  0  0  0  0
  197.1416  183.6852  157.3624 H   0  0  0  0  0  0  0  0  0  0  0  0
  195.9636  183.3681  156.1041 H   0  0  0  0  0  0  0  0  0  0  0  0
  195.2013  183.9807  158.9992 H   0  0  0  0  0  0  0  0  0  0  0  0
  194.0832  182.6403  159.2003 H   0  0  0  0  0  0  0  0  0  0  0  0
  194.0551  183.5814  157.7304 H   0  0  0  0  0  0  0  0  0  0  0  0
  197.0719  182.2348  159.4931 H   0  0  0  0  0  0  0  0  0  0  0  0
  197.1381  180.7637  158.5383 H   0  0  0  0  0  0  0  0  0  0  0  0
  195.7996  181.0220  159.6301 H   0  0  0  0  0  0  0  0  0  0  0  0
  195.1803  181.5153  157.3983 H   0  0  0  0  0  0  0  0  0  0  0  0
  1  2  2  0
  2  3  1  0
  2 25  1  0
  3  4  1  0
  3 35  1  0
  4  5  2  0
  4 20  1  0
  5  6  1  0
  5 17  1  0
  6  7  1  0
  6 36  1  0
  7  8  1  0
  7 14  1  0
  7 37  1  1
  8  9  2  0
  8 13  1  0
  9 10  1  0
  9 38  1  0
 10 11  2  0
 10 39  1  0
 11 12  1  0
 11 40  1  0
 12 13  2  0
 12 41  1  0
 13 42  1  0
 14 15  2  0
 14 16  1  0
 16 43  1  6
 16 44  1  0
 16 45  1  0
 17 18  2  0
 17 46  1  0
 18 19  1  0
 19 20  1  0
 19 24  2  0
 20 21  2  0
 21 22  1  0
 21 47  1  0
 22 23  2  0
 22 48  1  0
 23 24  1  0
 23 49  1  0
 24 50  1  0
 25 26  1  0
 25 30  2  0
 26 27  2  0
 26 51  1  0
 27 28  1  0
 27 52  1  0
 28 29  2  0
 28 31  1  0
 29 30  1  0
 29 53  1  0
 30 54  1  0
 31 32  1  0
 31 55  1  1
 31 56  1  0
 32 33  1  0
 32 34  1  0
 32 63  1  6
 33 57  1  1
 33 58  1  0
 33 59  1  0
 34 60  1  1
 34 61  1  0
 34 62  1  0
M  CHG  1  32   1
M  END
>  <s_epik_cmdline>  (44) 
J2VwaWtfcHl0aG9uJywgJy1waCcsICc3LjAwMDAwMCcsICctcGh0JywgJzIuMDAwMDAwJywgJy1tcycsICcxNicsICctdG4nLCAnOCcsICctbWEnLCAnMjAwJywgJy1pbWFlJywgJzxpbmZpbGUubWFlPicsICctb21hZScsICc8b3V0ZmlsZS5tYWU+Jw==

>  <s_epik_input>  (44) 
W0NIM11OKFtDSDNdKVtDSDJdYyhbY0hdW2NIXTEpW2NIXVtjSF1jMUMoPU8pW05IXWMoYyhjMjMpW2NIXVtjSF1bY0hdW2NIXTMpYyhbY0hdbjIpW05IXVtDQEBIXShDKD1PKVtDSDNdKWM0W2NIXVtjSF1bY0hdW2NIXVtjSF00

>  <s_i_glide_gridfile>  (44) 
ATP-Grid

>  <s_lp_Force_Field>  (44) 
OPLS_2005

>  <s_lp_Variant>  (44) 
rxn502b____EMOL18624763____EMOL13728749____EMOL725587-1

>  <s_lp_label>  (44) 
2404_sdstereoexpander_1_neutralizer_1_epik_1_stereoizer_1

>  <s_m_source_file>  (44) 
ATP-VSW-LIGPREP-002-in.maegz

>  <s_sd_BIOSOLVEIT.INFINISEE\_QUERY\_NAME>  (44) 
Ref-Lig

>  <s_sd_BIOSOLVEIT.INFINISEE\_QUERY\_SMILES>  (44) 
S(c1nc2c(cc1C[NH2+]Cc3ccc(cc3)C[NH+](C)C)cccc2)Cc4ccccc4

>  <s_sd_BIOSOLVEIT.INFINISEE\_REACTION\_NAME>  (44) 
rxn502b

>  <s_sd_BIOSOLVEIT.INFINISEE\_REAGENT1\_NAME>  (44) 
EMOL18624763

>  <s_sd_BIOSOLVEIT.INFINISEE\_REAGENT1\_SMILES>  (44) 
O=C(O)c1ccc(cc1)CN(C)C

>  <s_sd_BIOSOLVEIT.INFINISEE\_REAGENT2\_NAME>  (44) 
EMOL13728749

>  <s_sd_BIOSOLVEIT.INFINISEE\_REAGENT2\_SMILES>  (44) 
Brc1c(N)c2c(nc1)cccc2

>  <s_sd_BIOSOLVEIT.INFINISEE\_REAGENT3\_NAME>  (44) 
EMOL725587

>  <s_sd_BIOSOLVEIT.INFINISEE\_REAGENT3\_SMILES>  (44) 
O=C(C(N)c1ccccc1)C

>  <s_sd_BIOSOLVEIT.INFINISEE\_SPACE>  (44) 
eXplore_7tr_2022-12

>  <s_vsw_compound_code>  (44) 
76898

>  <s_vsw_variant>  (44) 
76898-1

>  <r_epik_Charging_Adjusted_Penalty>  (44) 
0.142117611887595

>  <r_epik_Ionization_Penalty>  (44) 
0.089300000000000004

>  <r_epik_Ionization_Penalty_Charging>  (44) 
0.052699999999999997

>  <r_epik_Ionization_Penalty_Neutral>  (44) 
0.036600000000000001

>  <r_epik_State_Penalty>  (44) 
0.089399999999999993

>  <r_i_docking_score>  (44) 
-4.2395768988234499

>  <r_i_glide_ecoul>  (44) 
-7.2741856575012198

>  <r_i_glide_eff_state_penalty>  (44) 
0.089399999999999993

>  <r_i_glide_einternal>  (44) 
6.3040690422058097

>  <r_i_glide_emodel>  (44) 
-55.560122263704301

>  <r_i_glide_energy>  (44) 
-42.033215045928998

>  <r_i_glide_erotb>  (44) 
0.68308159863740103

>  <r_i_glide_esite>  (44) 
-0.099847291365823002

>  <r_i_glide_evdw>  (44) 
-34.759029388427699

>  <r_i_glide_gscore>  (44) 
-4.3289768988234503

>  <r_i_glide_hbond>  (44) 
0

>  <r_i_glide_ligand_efficiency>  (44) 
-0.12469343820069

>  <r_i_glide_ligand_efficiency_ln>  (44) 
-0.93664145305415603

>  <r_i_glide_ligand_efficiency_sa>  (44) 
-0.40395833346198501

>  <r_i_glide_lipo>  (44) 
-1.4447924241430901

>  <r_i_glide_metal>  (44) 
-0

>  <r_i_glide_rewards>  (44) 
-0.638339463905369

>  <r_lp_Energy>  (44) 
39.595605999999997

>  <r_lp_tautomer_probability>  (44) 
0.99999996999999996

>  <r_qp_ACxDN^.5/SA>  (44) 
0.0149342

>  <r_qp_CIQPlogS>  (44) 
-5.2510000000000003

>  <r_qp_EA(eV)>  (44) 
0.86699999999999999

>  <r_qp_FISA>  (44) 
94.593999999999994

>  <r_qp_FOSA>  (44) 
258.584

>  <r_qp_IP(eV)>  (44) 
8.0709999999999997

>  <r_qp_Jm>  (44) 
0.0031776136218696601

>  <r_qp_PISA>  (44) 
451.74200000000002

>  <r_qp_PSA>  (44) 
82.712999999999994

>  <r_qp_PercentHumanOralAbsorption>  (44) 
96.350999999999999

>  <r_qp_QPPCaco>  (44) 
313.16199999999998

>  <r_qp_QPPMDCK>  (44) 
156.03299999999999

>  <r_qp_QPlogBB>  (44) 
-0.55500000000000005

>  <r_qp_QPlogHERG>  (44) 
-7.9649999999999999

>  <r_qp_QPlogKhsa>  (44) 
0.58099999999999996

>  <r_qp_QPlogKp>  (44) 
-2.9660000000000002

>  <r_qp_QPlogPC16>  (44) 
16.408999999999999

>  <r_qp_QPlogPo/w>  (44) 
4.2249999999999996

>  <r_qp_QPlogPoct>  (44) 
25.161999999999999

>  <r_qp_QPlogPw>  (44) 
14.909000000000001

>  <r_qp_QPlogS>  (44) 
-5.1879999999999997

>  <r_qp_QPpolrz>  (44) 
52.274000000000001

>  <r_qp_SASA>  (44) 
804.91899999999998

>  <r_qp_SAamideO>  (44) 
0

>  <r_qp_SAfluorine>  (44) 
0

>  <r_qp_WPSA>  (44) 
0

>  <r_qp_accptHB>  (44) 
8.5

>  <r_qp_dip^2/V>  (44) 
0.017706900000000001

>  <r_qp_dipole>  (44) 
5.1200000000000001

>  <r_qp_donorHB>  (44) 
2

>  <r_qp_glob>  (44) 
0.78047520000000004

>  <r_qp_mol_MW>  (44) 
452.55500000000001

>  <r_qp_volume>  (44) 
1480.538

>  <r_sd_BIOSOLVEIT.INFINISEE\_FTREES\_SIMILARITY>  (44) 
0.91800000000000004

>  <r_sd_BIOSOLVEIT.LOGP>  (44) 
3.8738000000000001

>  <r_sd_BIOSOLVEIT.MOLECULAR\_WEIGHT>  (44) 
453.56299999999999

>  <r_sd_BIOSOLVEIT.TPSA>  (44) 
75.530000000000001

>  <i_epik_Tot_Q>  (44) 
1

>  <i_epik_Tot_abs_Q>  (44) 
1

>  <i_f3d_flags>  (44) 
0

>  <i_i_glide_confnum>  (44) 
8

>  <i_i_glide_lignum>  (44) 
1003

>  <i_i_glide_posenum>  (44) 
12

>  <i_i_glide_rotatable_bonds>  (44) 
9

>  <i_lp_mmshare_version>  (44) 
65135

>  <i_m_ct_format>  (44) 
2

>  <i_m_source_file_index>  (44) 
2404

>  <i_qp_#NandO>  (44) 
6

>  <i_qp_#acid>  (44) 
0

>  <i_qp_#amide>  (44) 
0

>  <i_qp_#amidine>  (44) 
0

>  <i_qp_#amine>  (44) 
1

>  <i_qp_#in34>  (44) 
0

>  <i_qp_#in56>  (44) 
22

>  <i_qp_#metab>  (44) 
7

>  <i_qp_#nonHatm>  (44) 
34

>  <i_qp_#noncon>  (44) 
0

>  <i_qp_#ringatoms>  (44) 
22

>  <i_qp_#rotor>  (44) 
8

>  <i_qp_#rtvFG>  (44) 
1

>  <i_qp_#stars>  (44) 
1

>  <i_qp_CNS>  (44) 
1

>  <i_qp_HumanOralAbsorption>  (44) 
3

>  <i_qp_RuleOfFive>  (44) 
0

>  <i_qp_RuleOfThree>  (44) 
1

>  <i_sd_BIOSOLVEIT.INFINISEE\_RESULT\_RANK>  (44) 
20950

>  <i_sd_version>  (44) 
0

>  <b_lp_Chiralities_Consistent>  (44) 
1

>  <b_sd_chiral_flag>  (44) 
0

>  <canonical_id>  (44) 
ATP-HTVS-07D9286D8737

>  <compound_code>  (44) 
76898

>  <title>  (44) 
rxn502b____EMOL18624763____EMOL13728749____EMOL725587

>  <variant>  (44) 
76898-1

>  <source_file>  (44) 
运行/运行/ATP-VSW/ATP-VSW-DOCK_HTVS_1-002_lib.maegz

>  <canonical_smiles>  (44) 
CC(=O)[C@H](Nc1cnc2ccccc2c1NC(=O)c1ccc(C[NH+](C)C)cc1)c1ccccc1

>  <scaffold>  (44) 
O=C(Nc1c(NCc2ccccc2)cnc2ccccc12)c1ccccc1

>  <molecular_formula>  (44) 
C28H29N4O2+

$$$$
ATP-HTVS-07F3737128F1
     RDKit          3D

 56 59  0  0  0  0  0  0  0  0999 V2000
  199.9572  177.4749  154.3254 O   0  0  0  0  0  0  0  0  0  0  0  0
  199.9073  178.6822  154.5848 C   0  0  0  0  0  0  0  0  0  0  0  0
  199.1744  179.5921  153.9182 N   0  0  0  0  0  0  0  0  0  0  0  0
  198.4732  179.4650  152.6925 C   0  0  0  0  0  0  0  0  0  0  0  0
  198.7397  178.4586  151.8196 N   0  0  0  0  0  0  0  0  0  0  0  0
  198.1030  178.4006  150.6387 C   0  0  0  0  0  0  0  0  0  0  0  0
  197.1285  179.3609  150.2748 C   0  0  0  0  0  0  0  0  0  0  0  0
  196.8045  180.3859  151.1813 C   0  0  0  0  0  0  0  0  0  0  0  0
  197.5049  180.4688  152.4050 C   0  0  0  0  0  0  0  0  0  0  0  0
  197.1966  181.5247  153.2984 N   0  0  0  0  0  0  0  0  0  0  0  0
  197.3883  182.9332  152.9024 C   0  0  2  0  0  0  0  0  0  0  0  0
  196.5813  183.3377  151.7392 C   0  0  0  0  0  0  0  0  0  0  0  0
  195.9545  183.6785  150.8226 N   0  0  0  0  0  0  0  0  0  0  0  0
  198.8527  183.3135  152.7318 C   0  0  0  0  0  0  0  0  0  0  0  0
  199.5433  183.0421  151.5295 C   0  0  0  0  0  0  0  0  0  0  0  0
  200.9051  183.3853  151.3989 C   0  0  0  0  0  0  0  0  0  0  0  0
  201.5807  184.0036  152.4691 C   0  0  0  0  0  0  0  0  0  0  0  0
  200.8952  184.2796  153.6671 C   0  0  0  0  0  0  0  0  0  0  0  0
  199.5357  183.9371  153.7971 C   0  0  0  0  0  0  0  0  0  0  0  0
  196.4284  181.1892  154.4934 C   0  0  1  0  0  0  0  0  0  0  0  0
  197.2000  181.3501  155.8181 C   0  0  2  0  0  0  0  0  0  0  0  0
  196.4779  179.3057  149.0302 C   0  0  0  0  0  0  0  0  0  0  0  0
  196.7762  178.2742  148.1272 C   0  0  0  0  0  0  0  0  0  0  0  0
  197.7297  177.3001  148.4789 C   0  0  0  0  0  0  0  0  0  0  0  0
  198.3842  177.3641  149.7265 C   0  0  0  0  0  0  0  0  0  0  0  0
  200.6491  179.2377  155.7651 C   0  0  0  0  0  0  0  0  0  0  0  0
  200.7879  178.4713  156.9409 C   0  0  0  0  0  0  0  0  0  0  0  0
  201.5245  178.9733  158.0347 C   0  0  0  0  0  0  0  0  0  0  0  0
  202.1397  180.2390  157.9557 C   0  0  0  0  0  0  0  0  0  0  0  0
  201.9942  181.0130  156.7864 C   0  0  0  0  0  0  0  0  0  0  0  0
  201.2563  180.5157  155.6961 C   0  0  0  0  0  0  0  0  0  0  0  0
  202.9622  180.7583  159.1219 C   0  0  2  0  0  0  0  0  0  0  0  0
  199.0810  180.4952  154.3557 H   0  0  0  0  0  0  0  0  0  0  0  0
  196.0206  181.0944  150.9234 H   0  0  0  0  0  0  0  0  0  0  0  0
  196.9902  183.5560  153.7093 H   0  0  0  0  0  0  0  0  0  0  0  0
  199.0391  182.5628  150.7023 H   0  0  0  0  0  0  0  0  0  0  0  0
  201.4322  183.1764  150.4800 H   0  0  0  0  0  0  0  0  0  0  0  0
  202.6244  184.2686  152.3696 H   0  0  0  0  0  0  0  0  0  0  0  0
  201.4118  184.7558  154.4873 H   0  0  0  0  0  0  0  0  0  0  0  0
  199.0181  184.1486  154.7192 H   0  0  0  0  0  0  0  0  0  0  0  0
  195.5501  181.8327  154.5248 H   0  0  0  0  0  0  0  0  0  0  0  0
  196.0502  180.1662  154.4140 H   0  0  0  0  0  0  0  0  0  0  0  0
  196.5587  181.0784  156.6558 H   0  0  0  0  0  0  0  0  0  0  0  0
  197.5334  182.3769  155.9662 H   0  0  0  0  0  0  0  0  0  0  0  0
  198.0719  180.6994  155.8894 H   0  0  0  0  0  0  0  0  0  0  0  0
  195.7379  180.0487  148.7745 H   0  0  0  0  0  0  0  0  0  0  0  0
  196.2666  178.2208  147.1746 H   0  0  0  0  0  0  0  0  0  0  0  0
  197.9450  176.4949  147.7919 H   0  0  0  0  0  0  0  0  0  0  0  0
  199.1065  176.6081  149.9975 H   0  0  0  0  0  0  0  0  0  0  0  0
  200.3300  177.4927  157.0138 H   0  0  0  0  0  0  0  0  0  0  0  0
  201.6167  178.3701  158.9243 H   0  0  0  0  0  0  0  0  0  0  0  0
  202.4675  181.9814  156.7095 H   0  0  0  0  0  0  0  0  0  0  0  0
  201.1730  181.1186  154.8057 H   0  0  0  0  0  0  0  0  0  0  0  0
  203.3530  181.7549  158.9191 H   0  0  0  0  0  0  0  0  0  0  0  0
  203.8095  180.1003  159.3165 H   0  0  0  0  0  0  0  0  0  0  0  0
  202.3524  180.8121  160.0239 H   0  0  0  0  0  0  0  0  0  0  0  0
  1  2  2  0
  2  3  1  0
  2 26  1  0
  3  4  1  0
  3 33  1  0
  4  5  2  0
  4  9  1  0
  5  6  1  0
  6  7  1  0
  6 25  2  0
  7  8  1  0
  7 22  2  0
  8  9  2  0
  8 34  1  0
  9 10  1  0
 10 11  1  0
 10 20  1  0
 11 12  1  0
 11 14  1  0
 11 35  1  1
 12 13  3  0
 14 15  2  0
 14 19  1  0
 15 16  1  0
 15 36  1  0
 16 17  2  0
 16 37  1  0
 17 18  1  0
 17 38  1  0
 18 19  2  0
 18 39  1  0
 19 40  1  0
 20 21  1  0
 20 41  1  1
 20 42  1  0
 21 43  1  1
 21 44  1  0
 21 45  1  0
 22 23  1  0
 22 46  1  0
 23 24  2  0
 23 47  1  0
 24 25  1  0
 24 48  1  0
 25 49  1  0
 26 27  1  0
 26 31  2  0
 27 28  2  0
 27 50  1  0
 28 29  1  0
 28 51  1  0
 29 30  2  0
 29 32  1  0
 30 31  1  0
 30 52  1  0
 31 53  1  0
 32 54  1  6
 32 55  1  0
 32 56  1  0
M  END
>  <s_epik_cmdline>  (45) 
J2VwaWtfcHl0aG9uJywgJy1waCcsICc3LjAwMDAwMCcsICctcGh0JywgJzIuMDAwMDAwJywgJy1tcycsICcxNicsICctdG4nLCAnOCcsICctbWEnLCAnMjAwJywgJy1pbWFlJywgJzxpbmZpbGUubWFlPicsICctb21hZScsICc8b3V0ZmlsZS5tYWU+Jw==

>  <s_epik_input>  (45) 
W2NIXTFbY0hdYyhbQ0gzXSlbY0hdW2NIXWMxQyg9TylbTkhdYyhuMiljKFtjSF1jKGMyMylbY0hdW2NIXVtjSF1bY0hdMylOKFtDSDJdW0NIM10pW0NASF0oQyNOKWM0W2NIXVtjSF1bY0hdW2NIXVtjSF00

>  <s_i_glide_gridfile>  (45) 
ATP-Grid

>  <s_lp_Force_Field>  (45) 
OPLS_2005

>  <s_lp_Variant>  (45) 
rxn502b____EMOL532087____EMOL44466703____EMOL49839592-2

>  <s_lp_label>  (45) 
2718_sdstereoexpander_2_neutralizer_1_epik_1_stereoizer_1

>  <s_m_source_file>  (45) 
ATP-VSW-LIGPREP-001-in.maegz

>  <s_sd_BIOSOLVEIT.INFINISEE\_QUERY\_NAME>  (45) 
Ref-Lig

>  <s_sd_BIOSOLVEIT.INFINISEE\_QUERY\_SMILES>  (45) 
S(c1nc2c(cc1C[NH2+]Cc3ccc(cc3)C[NH+](C)C)cccc2)Cc4ccccc4

>  <s_sd_BIOSOLVEIT.INFINISEE\_REACTION\_NAME>  (45) 
rxn502b

>  <s_sd_BIOSOLVEIT.INFINISEE\_REAGENT1\_NAME>  (45) 
EMOL532087

>  <s_sd_BIOSOLVEIT.INFINISEE\_REAGENT1\_SMILES>  (45) 
O=C(O)c1ccc(cc1)C

>  <s_sd_BIOSOLVEIT.INFINISEE\_REAGENT2\_NAME>  (45) 
EMOL44466703

>  <s_sd_BIOSOLVEIT.INFINISEE\_REAGENT2\_SMILES>  (45) 
Brc1c(nc2c(c1)cccc2)N

>  <s_sd_BIOSOLVEIT.INFINISEE\_REAGENT3\_NAME>  (45) 
EMOL49839592

>  <s_sd_BIOSOLVEIT.INFINISEE\_REAGENT3\_SMILES>  (45) 
N#CC(NCC)c1ccccc1

>  <s_sd_BIOSOLVEIT.INFINISEE\_SPACE>  (45) 
eXplore_7tr_2022-12

>  <s_vsw_compound_code>  (45) 
86945

>  <s_vsw_variant>  (45) 
86945-2

>  <r_epik_Charging_Adjusted_Penalty>  (45) 
0

>  <r_epik_Ionization_Penalty>  (45) 
0

>  <r_epik_Ionization_Penalty_Charging>  (45) 
0

>  <r_epik_Ionization_Penalty_Neutral>  (45) 
0

>  <r_epik_State_Penalty>  (45) 
-0

>  <r_i_docking_score>  (45) 
-2.9161440000407501

>  <r_i_glide_ecoul>  (45) 
-2.7803907394409202

>  <r_i_glide_eff_state_penalty>  (45) 
-0

>  <r_i_glide_einternal>  (45) 
2.5946011543273899

>  <r_i_glide_emodel>  (45) 
-37.657441368320001

>  <r_i_glide_energy>  (45) 
-32.378069877624498

>  <r_i_glide_erotb>  (45) 
0.671614451574019

>  <r_i_glide_esite>  (45) 
-0.066303962910698899

>  <r_i_glide_evdw>  (45) 
-29.597679138183601

>  <r_i_glide_gscore>  (45) 
-2.9161440000407501

>  <r_i_glide_hbond>  (45) 
0

>  <r_i_glide_ligand_efficiency>  (45) 
-0.091129500001273303

>  <r_i_glide_ligand_efficiency_ln>  (45) 
-0.65300413269233204

>  <r_i_glide_ligand_efficiency_sa>  (45) 
-0.28931812800048101

>  <r_i_glide_lipo>  (45) 
-1.08250505724239

>  <r_i_glide_metal>  (45) 
-0

>  <r_i_glide_rewards>  (45) 
-0.54200686363636297

>  <r_lp_Energy>  (45) 
31.124198

>  <r_lp_tautomer_probability>  (45) 
1

>  <r_qp_ACxDN^.5/SA>  (45) 
0.0086675999999999993

>  <r_qp_CIQPlogS>  (45) 
-7.6829999999999998

>  <r_qp_EA(eV)>  (45) 
0.96299999999999997

>  <r_qp_FISA>  (45) 
95.102000000000004

>  <r_qp_FOSA>  (45) 
187.333

>  <r_qp_IP(eV)>  (45) 
8.6489999999999991

>  <r_qp_Jm>  (45) 
0.0088839728104213207

>  <r_qp_PISA>  (45) 
409.79500000000002

>  <r_qp_PSA>  (45) 
69.049000000000007

>  <r_qp_PercentHumanOralAbsorption>  (45) 
100

>  <r_qp_QPPCaco>  (45) 
1241.7760000000001

>  <r_qp_QPPMDCK>  (45) 
625.17200000000003

>  <r_qp_QPlogBB>  (45) 
-0.75600000000000001

>  <r_qp_QPlogHERG>  (45) 
-6.0670000000000002

>  <r_qp_QPlogKhsa>  (45) 
0.73799999999999999

>  <r_qp_QPlogKp>  (45) 
-1.157

>  <r_qp_QPlogPC16>  (45) 
14.233000000000001

>  <r_qp_QPlogPo/w>  (45) 
4.8890000000000002

>  <r_qp_QPlogPoct>  (45) 
20.611999999999998

>  <r_qp_QPlogPw>  (45) 
10.65

>  <r_qp_QPlogS>  (45) 
-6.5190000000000001

>  <r_qp_QPpolrz>  (45) 
46.078000000000003

>  <r_qp_SASA>  (45) 
692.23099999999999

>  <r_qp_SAamideO>  (45) 
0

>  <r_qp_SAfluorine>  (45) 
0

>  <r_qp_WPSA>  (45) 
0

>  <r_qp_accptHB>  (45) 
6

>  <r_qp_dip^2/V>  (45) 
0.035368200000000002

>  <r_qp_dipole>  (45) 
6.8319999999999999

>  <r_qp_donorHB>  (45) 
1

>  <r_qp_glob>  (45) 
0.84053900000000004

>  <r_qp_mol_MW>  (45) 
420.51299999999998

>  <r_qp_volume>  (45) 
1319.671

>  <r_sd_BIOSOLVEIT.INFINISEE\_FTREES\_SIMILARITY>  (45) 
0.90800000000000003

>  <r_sd_BIOSOLVEIT.LOGP>  (45) 
5.8867000000000003

>  <r_sd_BIOSOLVEIT.MOLECULAR\_WEIGHT>  (45) 
420.51400000000001

>  <r_sd_BIOSOLVEIT.TPSA>  (45) 
69.019999999999996

>  <i_epik_Tot_Q>  (45) 
0

>  <i_epik_Tot_abs_Q>  (45) 
0

>  <i_f3d_flags>  (45) 
0

>  <i_i_glide_confnum>  (45) 
7

>  <i_i_glide_lignum>  (45) 
1211

>  <i_i_glide_posenum>  (45) 
4

>  <i_i_glide_rotatable_bonds>  (45) 
7

>  <i_lp_mmshare_version>  (45) 
65135

>  <i_m_ct_format>  (45) 
2

>  <i_m_source_file_index>  (45) 
2718

>  <i_qp_#NandO>  (45) 
5

>  <i_qp_#acid>  (45) 
0

>  <i_qp_#amide>  (45) 
0

>  <i_qp_#amidine>  (45) 
0

>  <i_qp_#amine>  (45) 
0

>  <i_qp_#in34>  (45) 
0

>  <i_qp_#in56>  (45) 
22

>  <i_qp_#metab>  (45) 
4

>  <i_qp_#nonHatm>  (45) 
32

>  <i_qp_#noncon>  (45) 
0

>  <i_qp_#ringatoms>  (45) 
22

>  <i_qp_#rotor>  (45) 
7

>  <i_qp_#rtvFG>  (45) 
0

>  <i_qp_#stars>  (45) 
1

>  <i_qp_CNS>  (45) 
-1

>  <i_qp_HumanOralAbsorption>  (45) 
1

>  <i_qp_RuleOfFive>  (45) 
0

>  <i_qp_RuleOfThree>  (45) 
1

>  <i_sd_BIOSOLVEIT.INFINISEE\_RESULT\_RANK>  (45) 
54587

>  <i_sd_version>  (45) 
0

>  <b_lp_Chiralities_Consistent>  (45) 
1

>  <b_sd_chiral_flag>  (45) 
0

>  <canonical_id>  (45) 
ATP-HTVS-07F3737128F1

>  <compound_code>  (45) 
86945

>  <title>  (45) 
rxn502b____EMOL532087____EMOL44466703____EMOL49839592

>  <variant>  (45) 
86945-2

>  <source_file>  (45) 
运行/运行/ATP-VSW/ATP-VSW-DOCK_HTVS_1-001_lib/ATP-VSW-DOCK_HTVS_1-001_lib

>  <canonical_smiles>  (45) 
CCN(c1cc2ccccc2nc1NC(=O)c1ccc(C)cc1)[C@H](C#N)c1ccccc1

>  <scaffold>  (45) 
O=C(Nc1nc2ccccc2cc1NCc1ccccc1)c1ccccc1

>  <molecular_formula>  (45) 
C27H24N4O

$$$$
ATP-HTVS-08126335CB19
     RDKit          3D

 66 69  0  0  0  0  0  0  0  0999 V2000
  198.8385  183.2937  159.5114 O   0  0  0  0  0  0  0  0  0  0  0  0
  198.6340  183.3351  158.2709 C   0  0  0  0  0  0  0  0  0  0  0  0
  199.5110  183.6094  157.3948 O   0  0  0  0  0  0  0  0  0  0  0  0
  197.2040  183.1685  157.7881 C   0  0  1  0  0  0  0  0  0  0  0  0
  196.9957  181.8109  157.2091 N   0  0  0  0  0  0  0  0  0  0  0  0
  198.0045  181.3692  156.2391 C   0  0  1  0  0  0  0  0  0  0  0  0
  197.7248  181.8915  154.8296 C   0  0  0  0  0  0  0  0  0  0  0  0
  197.5286  180.9797  153.7754 C   0  0  0  0  0  0  0  0  0  0  0  0
  197.3196  181.4418  152.4480 C   0  0  0  0  0  0  0  0  0  0  0  0
  197.1788  180.5929  151.3719 O   0  0  0  0  0  0  0  0  0  0  0  0
  197.3218  179.1946  151.5849 C   0  0  1  0  0  0  0  0  0  0  0  0
  197.6346  178.4783  150.2916 C   0  0  0  0  0  0  0  0  0  0  0  0
  197.1461  178.9728  149.0654 C   0  0  0  0  0  0  0  0  0  0  0  0
  197.4425  178.2967  147.8670 C   0  0  0  0  0  0  0  0  0  0  0  0
  198.2341  177.1321  147.8911 C   0  0  0  0  0  0  0  0  0  0  0  0
  198.7209  176.6347  149.1147 C   0  0  0  0  0  0  0  0  0  0  0  0
  198.4252  177.3100  150.3135 C   0  0  0  0  0  0  0  0  0  0  0  0
  197.2599  182.8355  152.1893 C   0  0  0  0  0  0  0  0  0  0  0  0
  197.0648  183.2283  150.8816 O   0  0  0  0  0  0  0  0  0  0  0  0
  197.0471  184.6185  150.5663 C   0  0  1  0  0  0  0  0  0  0  0  0
  197.7843  184.8881  149.2706 C   0  0  0  0  0  0  0  0  0  0  0  0
  197.1632  184.6324  148.0337 C   0  0  0  0  0  0  0  0  0  0  0  0
  197.8419  184.9209  146.8356 C   0  0  0  0  0  0  0  0  0  0  0  0
  199.1444  185.4556  146.8757 C   0  0  0  0  0  0  0  0  0  0  0  0
  199.7684  185.7099  148.1123 C   0  0  0  0  0  0  0  0  0  0  0  0
  199.0883  185.4249  149.3102 C   0  0  0  0  0  0  0  0  0  0  0  0
  197.4406  183.7506  153.2599 C   0  0  0  0  0  0  0  0  0  0  0  0
  197.7120  183.2810  154.5566 C   0  0  0  0  0  0  0  0  0  0  0  0
  196.1303  183.5038  158.8560 C   0  0  1  0  0  0  0  0  0  0  0  0
  196.1863  184.9422  159.3747 C   0  0  0  0  0  0  0  0  0  0  0  0
  197.3611  185.7443  159.1818 C   0  0  0  0  0  0  0  0  0  0  0  0
  197.3815  187.0443  159.6979 C   0  0  0  0  0  0  0  0  0  0  0  0
  196.2788  187.5818  160.4146 C   0  0  0  0  0  0  0  0  0  0  0  0
  195.1208  186.7904  160.5857 C   0  0  0  0  0  0  0  0  0  0  0  0
  195.0551  185.4739  160.0653 C   0  0  0  0  0  0  0  0  0  0  0  0
  196.3823  188.9884  160.9414 C   0  0  2  0  0  0  0  0  0  0  0  0
  196.8499  181.0877  157.8974 H   0  0  0  0  0  0  0  0  0  0  0  0
  197.0135  183.8825  157.0021 H   0  0  0  0  0  0  0  0  0  0  0  0
  199.0253  181.6922  156.5122 H   0  0  0  0  0  0  0  0  0  0  0  0
  197.9676  180.2618  156.2249 H   0  0  0  0  0  0  0  0  0  0  0  0
  197.5894  179.9305  154.0387 H   0  0  0  0  0  0  0  0  0  0  0  0
  198.1389  178.9546  152.2700 H   0  0  0  0  0  0  0  0  0  0  0  0
  196.3976  178.7975  152.0092 H   0  0  0  0  0  0  0  0  0  0  0  0
  196.5305  179.8611  149.0429 H   0  0  0  0  0  0  0  0  0  0  0  0
  197.0661  178.6735  146.9280 H   0  0  0  0  0  0  0  0  0  0  0  0
  198.4653  176.6209  146.9690 H   0  0  0  0  0  0  0  0  0  0  0  0
  199.3246  175.7392  149.1339 H   0  0  0  0  0  0  0  0  0  0  0  0
  198.7955  176.9208  151.2509 H   0  0  0  0  0  0  0  0  0  0  0  0
  196.0033  184.9201  150.4545 H   0  0  0  0  0  0  0  0  0  0  0  0
  197.5089  185.2731  151.3231 H   0  0  0  0  0  0  0  0  0  0  0  0
  196.1570  184.2352  148.0079 H   0  0  0  0  0  0  0  0  0  0  0  0
  197.3525  184.7347  145.8921 H   0  0  0  0  0  0  0  0  0  0  0  0
  199.6638  185.6725  145.9570 H   0  0  0  0  0  0  0  0  0  0  0  0
  200.7653  186.1219  148.1440 H   0  0  0  0  0  0  0  0  0  0  0  0
  199.5645  185.6281  150.2588 H   0  0  0  0  0  0  0  0  0  0  0  0
  197.3945  184.8261  153.1365 H   0  0  0  0  0  0  0  0  0  0  0  0
  197.9021  184.0153  155.3321 H   0  0  0  0  0  0  0  0  0  0  0  0
  195.1475  183.3225  158.4171 H   0  0  0  0  0  0  0  0  0  0  0  0
  196.2086  182.7899  159.6734 H   0  0  0  0  0  0  0  0  0  0  0  0
  198.2352  185.4220  158.7025 H   0  0  0  0  0  0  0  0  0  0  0  0
  198.3042  187.6039  159.6222 H   0  0  0  0  0  0  0  0  0  0  0  0
  194.2429  187.2140  161.0757 H   0  0  0  0  0  0  0  0  0  0  0  0
  194.1485  184.8813  160.1758 H   0  0  0  0  0  0  0  0  0  0  0  0
  195.3845  189.4286  161.0040 H   0  0  0  0  0  0  0  0  0  0  0  0
  196.9995  189.5771  160.2519 H   0  0  0  0  0  0  0  0  0  0  0  0
  196.8752  188.9777  161.9199 H   0  0  0  0  0  0  0  0  0  0  0  0
  1  2  1  0
  2  3  2  0
  2  4  1  0
  4  5  1  0
  4 29  1  0
  4 38  1  6
  5  6  1  0
  5 37  1  0
  6  7  1  0
  6 39  1  1
  6 40  1  0
  7  8  2  0
  7 28  1  0
  8  9  1  0
  8 41  1  0
  9 10  1  0
  9 18  2  0
 10 11  1  0
 11 12  1  0
 11 42  1  1
 11 43  1  0
 12 13  2  0
 12 17  1  0
 13 14  1  0
 13 44  1  0
 14 15  2  0
 14 45  1  0
 15 16  1  0
 15 46  1  0
 16 17  2  0
 16 47  1  0
 17 48  1  0
 18 19  1  0
 18 27  1  0
 19 20  1  0
 20 21  1  0
 20 49  1  6
 20 50  1  0
 21 22  2  0
 21 26  1  0
 22 23  1  0
 22 51  1  0
 23 24  2  0
 23 52  1  0
 24 25  1  0
 24 53  1  0
 25 26  2  0
 25 54  1  0
 26 55  1  0
 27 28  2  0
 27 56  1  0
 28 57  1  0
 29 30  1  0
 29 58  1  6
 29 59  1  0
 30 31  1  0
 30 35  2  0
 31 32  2  0
 31 60  1  0
 32 33  1  0
 32 61  1  0
 33 34  2  0
 33 36  1  0
 34 35  1  0
 34 62  1  0
 35 63  1  0
 36 64  1  1
 36 65  1  0
 36 66  1  0
M  CHG  1   1  -1
M  END
>  <s_epik_cmdline>  (46) 
J2VwaWtfcHl0aG9uJywgJy1waCcsICc3LjAwMDAwMCcsICctcGh0JywgJzIuMDAwMDAwJywgJy1tcycsICcxNicsICctdG4nLCAnOCcsICctbWEnLCAnMjAwJywgJy1pbWFlJywgJzxpbmZpbGUubWFlPicsICctb21hZScsICc8b3V0ZmlsZS5tYWU+Jw==

>  <s_epik_input>  (46) 
W2NIXTFbY0hdYyhbQ0gzXSlbY0hdW2NIXWMxW0NIMl1bQ0BASF0oQyg9TylbT0hdKVtOSF1bQ0gyXWMyW2NIXWMoT1tDSDJdYzNbY0hdW2NIXVtjSF1bY0hdW2NIXTMpYyhbY0hdW2NIXTIpT1tDSDJdYzRbY0hdW2NIXVtjSF1bY0hdW2NIXTQ=

>  <s_i_glide_gridfile>  (46) 
ATP-Grid

>  <s_lp_Force_Field>  (46) 
OPLS_2005

>  <s_lp_Variant>  (46) 
m_271304bca____21474272____9304626-4

>  <s_lp_label>  (46) 
2121_sdstereoexpander_2_neutralizer_1_epik_2_stereoizer_1

>  <s_m_source_file>  (46) 
ATP-VSW-LIGPREP-001-in.maegz

>  <s_sd_BIOSOLVEIT.INFINISEE\_QUERY\_NAME>  (46) 
Ref-Lig

>  <s_sd_BIOSOLVEIT.INFINISEE\_QUERY\_SMILES>  (46) 
S(c1nc2c(cc1C[NH2+]Cc3ccc(cc3)C[NH+](C)C)cccc2)Cc4ccccc4

>  <s_sd_BIOSOLVEIT.INFINISEE\_REACTION\_NAME>  (46) 
m_271304bca

>  <s_sd_BIOSOLVEIT.INFINISEE\_REAGENT1\_SMILES>  (46) 
[R1*]NC(C(=O)O)Cc1ccc(cc1)C

>  <s_sd_BIOSOLVEIT.INFINISEE\_REAGENT2\_SMILES>  (46) 
[R1*]Cc1cc(OCc2ccccc2)c(OCc3ccccc3)cc1

>  <s_sd_BIOSOLVEIT.INFINISEE\_SPACE>  (46) 
REALSpace_44bn_2023-08

>  <s_vsw_compound_code>  (46) 
67841

>  <s_vsw_variant>  (46) 
67841-4

>  <r_epik_Charging_Adjusted_Penalty>  (46) 
1.9675055175848299

>  <r_epik_Ionization_Penalty>  (46) 
1.9675

>  <r_epik_Ionization_Penalty_Charging>  (46) 
0.00080000000000000004

>  <r_epik_Ionization_Penalty_Neutral>  (46) 
1.9666999999999999

>  <r_epik_State_Penalty>  (46) 
1.9666999999999999

>  <r_i_docking_score>  (46) 
-2.40929881919301

>  <r_i_glide_ecoul>  (46) 
0.242345690727234

>  <r_i_glide_eff_state_penalty>  (46) 
1.9666999999999999

>  <r_i_glide_einternal>  (46) 
7.4318432807922399

>  <r_i_glide_emodel>  (46) 
-49.276024365172098

>  <r_i_glide_energy>  (46) 
-41.578745007515003

>  <r_i_glide_erotb>  (46) 
0.96591872545640001

>  <r_i_glide_esite>  (46) 
0

>  <r_i_glide_evdw>  (46) 
-41.821090698242202

>  <r_i_glide_gscore>  (46) 
-4.3759988191930104

>  <r_i_glide_hbond>  (46) 
-0.033384562423281999

>  <r_i_glide_ligand_efficiency>  (46) 
-0.066924967199805799

>  <r_i_glide_ligand_efficiency_ln>  (46) 
-0.52564391061609606

>  <r_i_glide_ligand_efficiency_sa>  (46) 
-0.22098137256445399

>  <r_i_glide_lipo>  (46) 
-3.09115224128257

>  <r_i_glide_metal>  (46) 
-0

>  <r_i_glide_rewards>  (46) 
-0.162678059640531

>  <r_lp_Energy>  (46) 
32.914324999999998

>  <r_lp_tautomer_probability>  (46) 
1

>  <r_qp_ACxDN^.5/SA>  (46) 
0.0087180000000000001

>  <r_qp_CIQPlogS>  (46) 
-7.3200000000000003

>  <r_qp_EA(eV)>  (46) 
-0.037999999999999999

>  <r_qp_FISA>  (46) 
96.340000000000003

>  <r_qp_FOSA>  (46) 
171.755

>  <r_qp_IP(eV)>  (46) 
8.8019999999999996

>  <r_qp_Jm>  (46) 
0.00072592302152107199

>  <r_qp_PISA>  (46) 
542.99300000000005

>  <r_qp_PSA>  (46) 
69.620000000000005

>  <r_qp_PercentHumanOralAbsorption>  (46) 
88.882999999999996

>  <r_qp_QPPCaco>  (46) 
76.349999999999994

>  <r_qp_QPPMDCK>  (46) 
43.162999999999997

>  <r_qp_QPlogBB>  (46) 
-0.77100000000000002

>  <r_qp_QPlogHERG>  (46) 
-6.3170000000000002

>  <r_qp_QPlogKhsa>  (46) 
1.109

>  <r_qp_QPlogKp>  (46) 
-2.2930000000000001

>  <r_qp_QPlogPC16>  (46) 
17.562999999999999

>  <r_qp_QPlogPo/w>  (46) 
4.8230000000000004

>  <r_qp_QPlogPoct>  (46) 
23.710999999999999

>  <r_qp_QPlogPw>  (46) 
11.227

>  <r_qp_QPlogS>  (46) 
-6.5289999999999999

>  <r_qp_QPpolrz>  (46) 
53.234000000000002

>  <r_qp_SASA>  (46) 
811.08799999999997

>  <r_qp_SAamideO>  (46) 
0

>  <r_qp_SAfluorine>  (46) 
0

>  <r_qp_WPSA>  (46) 
0

>  <r_qp_accptHB>  (46) 
5

>  <r_qp_dip^2/V>  (46) 
0.0153463

>  <r_qp_dipole>  (46) 
4.8719999999999999

>  <r_qp_donorHB>  (46) 
2

>  <r_qp_glob>  (46) 
0.79751649999999996

>  <r_qp_mol_MW>  (46) 
481.58999999999997

>  <r_qp_volume>  (46) 
1546.905

>  <r_sd_BIOSOLVEIT.INFINISEE\_FTREES\_SIMILARITY>  (46) 
0.90100000000000002

>  <r_sd_BIOSOLVEIT.LOGP>  (46) 
3.57762

>  <r_sd_BIOSOLVEIT.MOLECULAR\_WEIGHT>  (46) 
481.589

>  <r_sd_BIOSOLVEIT.TPSA>  (46) 
75.200000000000003

>  <i_epik_Tot_Q>  (46) 
-1

>  <i_epik_Tot_abs_Q>  (46) 
1

>  <i_f3d_flags>  (46) 
0

>  <i_i_glide_confnum>  (46) 
6

>  <i_i_glide_lignum>  (46) 
666

>  <i_i_glide_posenum>  (46) 
10

>  <i_i_glide_rotatable_bonds>  (46) 
12

>  <i_lp_mmshare_version>  (46) 
65135

>  <i_m_ct_format>  (46) 
2

>  <i_m_source_file_index>  (46) 
2121

>  <i_qp_#NandO>  (46) 
5

>  <i_qp_#acid>  (46) 
1

>  <i_qp_#amide>  (46) 
0

>  <i_qp_#amidine>  (46) 
0

>  <i_qp_#amine>  (46) 
1

>  <i_qp_#in34>  (46) 
0

>  <i_qp_#in56>  (46) 
24

>  <i_qp_#metab>  (46) 
9

>  <i_qp_#nonHatm>  (46) 
36

>  <i_qp_#noncon>  (46) 
0

>  <i_qp_#ringatoms>  (46) 
24

>  <i_qp_#rotor>  (46) 
12

>  <i_qp_#rtvFG>  (46) 
0

>  <i_qp_#stars>  (46) 
3

>  <i_qp_CNS>  (46) 
-1

>  <i_qp_HumanOralAbsorption>  (46) 
1

>  <i_qp_RuleOfFive>  (46) 
0

>  <i_qp_RuleOfThree>  (46) 
2

>  <i_sd_BIOSOLVEIT.INFINISEE\_REAGENT1\_NAME>  (46) 
21474272

>  <i_sd_BIOSOLVEIT.INFINISEE\_REAGENT2\_NAME>  (46) 
9304626

>  <i_sd_BIOSOLVEIT.INFINISEE\_RESULT\_RANK>  (46) 
98530

>  <i_sd_version>  (46) 
0

>  <b_lp_Chiralities_Consistent>  (46) 
1

>  <b_sd_chiral_flag>  (46) 
0

>  <canonical_id>  (46) 
ATP-HTVS-08126335CB19

>  <compound_code>  (46) 
67841

>  <title>  (46) 
m_271304bca____21474272____9304626

>  <variant>  (46) 
67841-4

>  <source_file>  (46) 
运行/运行/ATP-VSW/ATP-VSW-DOCK_HTVS_1-001_lib/ATP-VSW-DOCK_HTVS_1-001_lib

>  <canonical_smiles>  (46) 
Cc1ccc(C[C@H](NCc2ccc(OCc3ccccc3)c(OCc3ccccc3)c2)C(=O)[O-])cc1

>  <scaffold>  (46) 
c1ccc(CCNCc2ccc(OCc3ccccc3)c(OCc3ccccc3)c2)cc1

>  <molecular_formula>  (46) 
C31H30NO4-

$$$$
ATP-HTVS-081D95190B15
     RDKit          3D

 54 57  0  0  0  0  0  0  0  0999 V2000
  193.9669  184.2848  160.0015 F   0  0  0  0  0  0  0  0  0  0  0  0
  195.1954  184.4467  159.4662 C   0  0  0  0  0  0  0  0  0  0  0  0
  195.4704  183.9202  158.1983 C   0  0  0  0  0  0  0  0  0  0  0  0
  196.7549  184.0409  157.6100 C   0  0  0  0  0  0  0  0  0  0  0  0
  197.7591  184.7505  158.3094 C   0  0  0  0  0  0  0  0  0  0  0  0
  197.4695  185.3066  159.5722 C   0  0  0  0  0  0  0  0  0  0  0  0
  196.1912  185.1493  160.1492 C   0  0  0  0  0  0  0  0  0  0  0  0
  197.0495  183.4583  156.2236 C   0  0  1  0  0  0  0  0  0  0  0  0
  196.9978  181.9203  156.1796 C   0  0  1  0  0  0  0  0  0  0  0  0
  195.7086  181.4372  156.6971 N   0  0  2  0  0  0  0  0  0  0  0  0
  197.0937  181.3487  154.8276 C   0  0  0  0  0  0  0  0  0  0  0  0
  197.1185  180.8460  153.7199 C   0  0  0  0  0  0  0  0  0  0  0  0
  197.1290  180.2484  152.3881 C   0  0  0  0  0  0  0  0  0  0  0  0
  198.0174  179.2082  152.0205 C   0  0  0  0  0  0  0  0  0  0  0  0
  198.9154  178.6647  152.9774 N   0  0  0  0  0  0  0  0  0  0  0  0
  200.2479  178.7442  152.8839 C   0  0  0  0  0  0  0  0  0  0  0  0
  200.8562  179.6321  152.2854 O   0  0  0  0  0  0  0  0  0  0  0  0
  200.9274  177.6353  153.5049 C   0  0  0  0  0  0  0  0  0  0  0  0
  201.4628  176.6042  153.8779 C   0  0  0  0  0  0  0  0  0  0  0  0
  202.0947  175.3828  154.3483 C   0  0  0  0  0  0  0  0  0  0  0  0
  202.5159  175.3148  155.6899 C   0  0  0  0  0  0  0  0  0  0  0  0
  203.1488  174.1516  156.1722 C   0  0  0  0  0  0  0  0  0  0  0  0
  203.3412  173.0515  155.3195 C   0  0  0  0  0  0  0  0  0  0  0  0
  202.9200  173.1117  153.9798 C   0  0  0  0  0  0  0  0  0  0  0  0
  202.2950  174.2786  153.4885 C   0  0  0  0  0  0  0  0  0  0  0  0
  197.9196  178.6639  150.7056 C   0  0  0  0  0  0  0  0  0  0  0  0
  196.9716  179.2264  149.8052 C   0  0  0  0  0  0  0  0  0  0  0  0
  196.1504  180.2311  150.1695 N   0  0  0  0  0  0  0  0  0  0  0  0
  196.2360  180.7270  151.4166 C   0  0  0  0  0  0  0  0  0  0  0  0
  196.8654  178.6938  148.5034 C   0  0  0  0  0  0  0  0  0  0  0  0
  197.6805  177.6290  148.0767 C   0  0  0  0  0  0  0  0  0  0  0  0
  198.6061  177.0683  148.9684 C   0  0  0  0  0  0  0  0  0  0  0  0
  198.7190  177.5765  150.2742 C   0  0  0  0  0  0  0  0  0  0  0  0
  195.6812  180.4084  156.7900 H   0  0  0  0  0  0  0  0  0  0  0  0
  194.9223  181.8079  156.1492 H   0  0  0  0  0  0  0  0  0  0  0  0
  194.6273  183.4671  157.6995 H   0  0  0  0  0  0  0  0  0  0  0  0
  198.7377  184.8985  157.8738 H   0  0  0  0  0  0  0  0  0  0  0  0
  198.2269  185.8612  160.1078 H   0  0  0  0  0  0  0  0  0  0  0  0
  195.9631  185.5620  161.1201 H   0  0  0  0  0  0  0  0  0  0  0  0
  196.3473  183.8919  155.5103 H   0  0  0  0  0  0  0  0  0  0  0  0
  198.0366  183.7840  155.8939 H   0  0  0  0  0  0  0  0  0  0  0  0
  197.7938  181.4919  156.7850 H   0  0  0  0  0  0  0  0  0  0  0  0
  198.5284  177.9823  153.6165 H   0  0  0  0  0  0  0  0  0  0  0  0
  202.3736  176.1564  156.3542 H   0  0  0  0  0  0  0  0  0  0  0  0
  203.4713  174.1001  157.2005 H   0  0  0  0  0  0  0  0  0  0  0  0
  203.8152  172.1602  155.6922 H   0  0  0  0  0  0  0  0  0  0  0  0
  203.0773  172.2518  153.3399 H   0  0  0  0  0  0  0  0  0  0  0  0
  201.9825  174.3066  152.4552 H   0  0  0  0  0  0  0  0  0  0  0  0
  195.5684  181.5470  151.6418 H   0  0  0  0  0  0  0  0  0  0  0  0
  196.1445  179.1008  147.8108 H   0  0  0  0  0  0  0  0  0  0  0  0
  197.5934  177.2326  147.0708 H   0  0  0  0  0  0  0  0  0  0  0  0
  199.2379  176.2494  148.6589 H   0  0  0  0  0  0  0  0  0  0  0  0
  199.4289  177.0884  150.9215 H   0  0  0  0  0  0  0  0  0  0  0  0
  195.6247  181.7610  157.6479 H   0  0  0  0  0  0  0  0  0  0  0  0
  1  2  1  0
  2  3  2  0
  2  7  1  0
  3  4  1  0
  3 36  1  0
  4  5  2  0
  4  8  1  0
  5  6  1  0
  5 37  1  0
  6  7  2  0
  6 38  1  0
  7 39  1  0
  8  9  1  0
  8 40  1  6
  8 41  1  0
  9 10  1  0
  9 11  1  0
  9 42  1  1
 10 34  1  1
 10 35  1  0
 10 54  1  0
 11 12  3  0
 12 13  1  0
 13 14  2  0
 13 29  1  0
 14 15  1  0
 14 26  1  0
 15 16  1  0
 15 43  1  0
 16 17  2  0
 16 18  1  0
 18 19  3  0
 19 20  1  0
 20 21  2  0
 20 25  1  0
 21 22  1  0
 21 44  1  0
 22 23  2  0
 22 45  1  0
 23 24  1  0
 23 46  1  0
 24 25  2  0
 24 47  1  0
 25 48  1  0
 26 27  1  0
 26 33  2  0
 27 28  1  0
 27 30  2  0
 28 29  2  0
 29 49  1  0
 30 31  1  0
 30 50  1  0
 31 32  2  0
 31 51  1  0
 32 33  1  0
 32 52  1  0
 33 53  1  0
M  CHG  1  10   1
M  END
>  <s_epik_cmdline>  (47) 
J2VwaWtfcHl0aG9uJywgJy1waCcsICc3LjAwMDAwMCcsICctcGh0JywgJzIuMDAwMDAwJywgJy1tcycsICcxNicsICctdG4nLCAnOCcsICctbWEnLCAnMjAwJywgJy1pbWFlJywgJzxpbmZpbGUubWFlPicsICctb21hZScsICc8b3V0ZmlsZS5tYWU+Jw==

>  <s_epik_input>  (47) 
RmMxW2NIXWMoW2NIXVtjSF1bY0hdMSlbQ0gyXVtDQEBIXShbTkgyXSlDI0NjKFtjSF1uYyhjMjMpW2NIXVtjSF1bY0hdW2NIXTMpYzJbTkhdQyg9TylDI0NjNFtjSF1bY0hdW2NIXVtjSF1bY0hdNA==

>  <s_i_glide_gridfile>  (47) 
ATP-Grid

>  <s_lp_Force_Field>  (47) 
OPLS_2005

>  <s_lp_Variant>  (47) 
rxn503b____EMOL530803____EMOL13728749____EMOL313110234-3

>  <s_lp_label>  (47) 
2451_sdstereoexpander_1_neutralizer_1_epik_2_stereoizer_1

>  <s_m_source_file>  (47) 
ATP-VSW-LIGPREP-002-in.maegz

>  <s_sd_BIOSOLVEIT.INFINISEE\_QUERY\_NAME>  (47) 
Ref-Lig

>  <s_sd_BIOSOLVEIT.INFINISEE\_QUERY\_SMILES>  (47) 
S(c1nc2c(cc1C[NH2+]Cc3ccc(cc3)C[NH+](C)C)cccc2)Cc4ccccc4

>  <s_sd_BIOSOLVEIT.INFINISEE\_REACTION\_NAME>  (47) 
rxn503b

>  <s_sd_BIOSOLVEIT.INFINISEE\_REAGENT1\_NAME>  (47) 
EMOL530803

>  <s_sd_BIOSOLVEIT.INFINISEE\_REAGENT1\_SMILES>  (47) 
O=C(O)C#Cc1ccccc1

>  <s_sd_BIOSOLVEIT.INFINISEE\_REAGENT2\_NAME>  (47) 
EMOL13728749

>  <s_sd_BIOSOLVEIT.INFINISEE\_REAGENT2\_SMILES>  (47) 
Brc1c(N)c2c(nc1)cccc2

>  <s_sd_BIOSOLVEIT.INFINISEE\_REAGENT3\_NAME>  (47) 
EMOL313110234

>  <s_sd_BIOSOLVEIT.INFINISEE\_REAGENT3\_SMILES>  (47) 
Fc1cc(ccc1)CC(N)C#C

>  <s_sd_BIOSOLVEIT.INFINISEE\_SPACE>  (47) 
eXplore_7tr_2022-12

>  <s_vsw_compound_code>  (47) 
78402

>  <s_vsw_variant>  (47) 
78402-3

>  <r_epik_Charging_Adjusted_Penalty>  (47) 
1.22591159016581

>  <r_epik_Ionization_Penalty>  (47) 
0.61350000000000005

>  <r_epik_Ionization_Penalty_Charging>  (47) 
0.61299999999999999

>  <r_epik_Ionization_Penalty_Neutral>  (47) 
0.00059999999999999995

>  <r_epik_State_Penalty>  (47) 
0.61299999999999999

>  <r_i_docking_score>  (47) 
-6.0744949406014701

>  <r_i_glide_ecoul>  (47) 
-13.7921752929688

>  <r_i_glide_eff_state_penalty>  (47) 
0.61299999999999999

>  <r_i_glide_einternal>  (47) 
8.1472320556640607

>  <r_i_glide_emodel>  (47) 
-72.969835786151805

>  <r_i_glide_energy>  (47) 
-47.747077941894503

>  <r_i_glide_erotb>  (47) 
0.633006832056629

>  <r_i_glide_esite>  (47) 
-0.093304353710427404

>  <r_i_glide_evdw>  (47) 
-33.954902648925803

>  <r_i_glide_gscore>  (47) 
-6.6874949406014697

>  <r_i_glide_hbond>  (47) 
-0.39143073427955899

>  <r_i_glide_ligand_efficiency>  (47) 
-0.184075604260651

>  <r_i_glide_ligand_efficiency_ln>  (47) 
-1.35093622273824

>  <r_i_glide_ligand_efficiency_sa>  (47) 
-0.59042881929261604

>  <r_i_glide_lipo>  (47) 
-2.1290266746183901

>  <r_i_glide_metal>  (47) 
-0

>  <r_i_glide_rewards>  (47) 
-0.94016858365812495

>  <r_lp_Energy>  (47) 
25.923356999999999

>  <r_qp_ACxDN^.5/SA>  (47) 
0.010794399999999999

>  <r_qp_CIQPlogS>  (47) 
-6.2850000000000001

>  <r_qp_EA(eV)>  (47) 
1.2250000000000001

>  <r_qp_FISA>  (47) 
108.238

>  <r_qp_FOSA>  (47) 
54.103999999999999

>  <r_qp_IP(eV)>  (47) 
8.923

>  <r_qp_Jm>  (47) 
0.0041128101627859901

>  <r_qp_PISA>  (47) 
523.01700000000005

>  <r_qp_PSA>  (47) 
73.537999999999997

>  <r_qp_PercentHumanOralAbsorption>  (47) 
100

>  <r_qp_QPPCaco>  (47) 
232.47900000000001

>  <r_qp_QPPMDCK>  (47) 
179.655

>  <r_qp_QPlogBB>  (47) 
-0.52500000000000002

>  <r_qp_QPlogHERG>  (47) 
-7.7949999999999999

>  <r_qp_QPlogKhsa>  (47) 
0.86299999999999999

>  <r_qp_QPlogKp>  (47) 
-2.9660000000000002

>  <r_qp_QPlogPC16>  (47) 
15.523999999999999

>  <r_qp_QPlogPo/w>  (47) 
4.867

>  <r_qp_QPlogPoct>  (47) 
23.332000000000001

>  <r_qp_QPlogPw>  (47) 
12.824999999999999

>  <r_qp_QPlogS>  (47) 
-5.056

>  <r_qp_QPpolrz>  (47) 
47.122

>  <r_qp_SASA>  (47) 
722.06399999999996

>  <r_qp_SAamideO>  (47) 
0

>  <r_qp_SAfluorine>  (47) 
36.706000000000003

>  <r_qp_WPSA>  (47) 
36.706000000000003

>  <r_qp_accptHB>  (47) 
4.5

>  <r_qp_dip^2/V>  (47) 
0.033537200000000003

>  <r_qp_dipole>  (47) 
6.6909999999999998

>  <r_qp_donorHB>  (47) 
3

>  <r_qp_glob>  (47) 
0.8119461

>  <r_qp_mol_MW>  (47) 
433.48399999999998

>  <r_qp_volume>  (47) 
1334.7719999999999

>  <r_sd_BIOSOLVEIT.INFINISEE\_FTREES\_SIMILARITY>  (47) 
0.91600000000000004

>  <r_sd_BIOSOLVEIT.LOGP>  (47) 
3.5688

>  <r_sd_BIOSOLVEIT.MOLECULAR\_WEIGHT>  (47) 
434.49200000000002

>  <r_sd_BIOSOLVEIT.TPSA>  (47) 
69.629999999999995

>  <i_epik_Tot_Q>  (47) 
1

>  <i_epik_Tot_abs_Q>  (47) 
1

>  <i_f3d_flags>  (47) 
0

>  <i_i_glide_confnum>  (47) 
3

>  <i_i_glide_lignum>  (47) 
1059

>  <i_i_glide_posenum>  (47) 
10

>  <i_i_glide_rotatable_bonds>  (47) 
8

>  <i_lp_mmshare_version>  (47) 
65135

>  <i_m_ct_format>  (47) 
2

>  <i_m_source_file_index>  (47) 
2451

>  <i_qp_#NandO>  (47) 
4

>  <i_qp_#acid>  (47) 
0

>  <i_qp_#amide>  (47) 
0

>  <i_qp_#amidine>  (47) 
0

>  <i_qp_#amine>  (47) 
1

>  <i_qp_#in34>  (47) 
0

>  <i_qp_#in56>  (47) 
22

>  <i_qp_#metab>  (47) 
5

>  <i_qp_#nonHatm>  (47) 
33

>  <i_qp_#noncon>  (47) 
0

>  <i_qp_#ringatoms>  (47) 
22

>  <i_qp_#rotor>  (47) 
8

>  <i_qp_#rtvFG>  (47) 
0

>  <i_qp_#stars>  (47) 
1

>  <i_qp_CNS>  (47) 
0

>  <i_qp_HumanOralAbsorption>  (47) 
3

>  <i_qp_RuleOfFive>  (47) 
0

>  <i_qp_RuleOfThree>  (47) 
0

>  <i_sd_BIOSOLVEIT.INFINISEE\_RESULT\_RANK>  (47) 
25634

>  <i_sd_version>  (47) 
0

>  <b_lp_Chiralities_Consistent>  (47) 
1

>  <b_sd_chiral_flag>  (47) 
0

>  <canonical_id>  (47) 
ATP-HTVS-081D95190B15

>  <compound_code>  (47) 
78402

>  <title>  (47) 
rxn503b____EMOL530803____EMOL13728749____EMOL313110234

>  <variant>  (47) 
78402-3

>  <source_file>  (47) 
运行/运行/ATP-VSW/ATP-VSW-DOCK_HTVS_1-002_lib.maegz

>  <canonical_smiles>  (47) 
[NH3+][C@@H](C#Cc1cnc2ccccc2c1NC(=O)C#Cc1ccccc1)Cc1cccc(F)c1

>  <scaffold>  (47) 
O=C(C#Cc1ccccc1)Nc1c(C#CCCc2ccccc2)cnc2ccccc12

>  <molecular_formula>  (47) 
C28H21FN3O+

$$$$
ATP-HTVS-08266C4344A3
     RDKit          3D

 52 55  0  0  0  0  0  0  0  0999 V2000
  196.2868  187.2625  157.3617 F   0  0  0  0  0  0  0  0  0  0  0  0
  197.2566  187.1589  156.4243 C   0  0  0  0  0  0  0  0  0  0  0  0
  198.1215  188.2389  156.1713 C   0  0  0  0  0  0  0  0  0  0  0  0
  199.0593  188.1683  155.1223 C   0  0  0  0  0  0  0  0  0  0  0  0
  199.8545  189.2303  154.8441 F   0  0  0  0  0  0  0  0  0  0  0  0
  199.1520  186.9962  154.3462 C   0  0  0  0  0  0  0  0  0  0  0  0
  198.3132  185.8898  154.6252 C   0  0  0  0  0  0  0  0  0  0  0  0
  197.3838  185.9715  155.6840 C   0  0  0  0  0  0  0  0  0  0  0  0
  198.4597  184.6187  153.8472 C   0  0  0  0  0  0  0  0  0  0  0  0
  199.5634  184.2886  153.4185 O   0  0  0  0  0  0  0  0  0  0  0  0
  197.3194  183.9358  153.6098 N   0  0  0  0  0  0  0  0  0  0  0  0
  197.2747  182.5876  153.1681 C   0  0  0  0  0  0  0  0  0  0  0  0
  196.8054  181.5802  154.0548 C   0  0  0  0  0  0  0  0  0  0  0  0
  196.3812  181.8564  155.4260 C   0  0  0  0  0  0  0  0  0  0  0  0
  195.9733  182.0968  156.5525 C   0  0  0  0  0  0  0  0  0  0  0  0
  195.4263  182.4129  157.8864 C   0  0  1  0  0  0  0  0  0  0  0  0
  194.3557  181.4337  158.1042 N   0  0  2  0  0  0  0  0  0  0  0  0
  196.4551  182.3846  159.0300 C   0  0  1  0  0  0  0  0  0  0  0  0
  197.3254  183.6271  159.0990 C   0  0  0  0  0  0  0  0  0  0  0  0
  196.7636  184.8508  159.5241 C   0  0  0  0  0  0  0  0  0  0  0  0
  197.5650  186.0040  159.6208 C   0  0  0  0  0  0  0  0  0  0  0  0
  197.0214  187.1722  160.0435 F   0  0  0  0  0  0  0  0  0  0  0  0
  198.9274  185.9451  159.2701 C   0  0  0  0  0  0  0  0  0  0  0  0
  199.4934  184.7259  158.8488 C   0  0  0  0  0  0  0  0  0  0  0  0
  198.6940  183.5693  158.7677 C   0  0  0  0  0  0  0  0  0  0  0  0
  196.7724  180.2554  153.5833 C   0  0  0  0  0  0  0  0  0  0  0  0
  197.1303  179.8957  152.3365 N   0  0  0  0  0  0  0  0  0  0  0  0
  197.5848  180.8424  151.4839 C   0  0  0  0  0  0  0  0  0  0  0  0
  197.6519  182.2146  151.8534 C   0  0  0  0  0  0  0  0  0  0  0  0
  198.1183  183.1659  150.9063 C   0  0  0  0  0  0  0  0  0  0  0  0
  198.5439  182.7612  149.6326 C   0  0  0  0  0  0  0  0  0  0  0  0
  198.4892  181.4044  149.2690 C   0  0  0  0  0  0  0  0  0  0  0  0
  197.9954  180.4577  150.1918 C   0  0  0  0  0  0  0  0  0  0  0  0
  193.7189  181.5272  157.3211 H   0  0  0  0  0  0  0  0  0  0  0  0
  193.8817  181.6173  158.9714 H   0  0  0  0  0  0  0  0  0  0  0  0
  198.0408  189.1379  156.7627 H   0  0  0  0  0  0  0  0  0  0  0  0
  199.8664  186.9492  153.5354 H   0  0  0  0  0  0  0  0  0  0  0  0
  196.7493  185.1311  155.9263 H   0  0  0  0  0  0  0  0  0  0  0  0
  196.4584  184.2944  153.9928 H   0  0  0  0  0  0  0  0  0  0  0  0
  194.9518  183.3903  157.8151 H   0  0  0  0  0  0  0  0  0  0  0  0
  195.9440  182.3101  159.9875 H   0  0  0  0  0  0  0  0  0  0  0  0
  197.0763  181.4937  158.9417 H   0  0  0  0  0  0  0  0  0  0  0  0
  195.7153  184.9194  159.7748 H   0  0  0  0  0  0  0  0  0  0  0  0
  199.5294  186.8404  159.3140 H   0  0  0  0  0  0  0  0  0  0  0  0
  200.5407  184.6827  158.5846 H   0  0  0  0  0  0  0  0  0  0  0  0
  199.1414  182.6367  158.4530 H   0  0  0  0  0  0  0  0  0  0  0  0
  196.4174  179.4573  154.2235 H   0  0  0  0  0  0  0  0  0  0  0  0
  198.1716  184.2190  151.1366 H   0  0  0  0  0  0  0  0  0  0  0  0
  198.9388  183.4949  148.9415 H   0  0  0  0  0  0  0  0  0  0  0  0
  198.8308  181.0914  148.2901 H   0  0  0  0  0  0  0  0  0  0  0  0
  197.9580  179.4134  149.9111 H   0  0  0  0  0  0  0  0  0  0  0  0
  194.7579  180.4708  158.1164 H   0  0  0  0  0  0  0  0  0  0  0  0
  1  2  1  0
  2  3  1  0
  2  8  2  0
  3  4  2  0
  3 36  1  0
  4  5  1  0
  4  6  1  0
  6  7  2  0
  6 37  1  0
  7  8  1  0
  7  9  1  0
  8 38  1  0
  9 10  2  0
  9 11  1  0
 11 12  1  0
 11 39  1  0
 12 13  2  0
 12 29  1  0
 13 14  1  0
 13 26  1  0
 14 15  3  0
 15 16  1  0
 16 17  1  0
 16 18  1  0
 16 40  1  6
 17 34  1  6
 17 35  1  0
 17 52  1  0
 18 19  1  0
 18 41  1  1
 18 42  1  0
 19 20  1  0
 19 25  2  0
 20 21  2  0
 20 43  1  0
 21 22  1  0
 21 23  1  0
 23 24  2  0
 23 44  1  0
 24 25  1  0
 24 45  1  0
 25 46  1  0
 26 27  2  0
 26 47  1  0
 27 28  1  0
 28 29  1  0
 28 33  2  0
 29 30  2  0
 30 31  1  0
 30 48  1  0
 31 32  2  0
 31 49  1  0
 32 33  1  0
 32 50  1  0
 33 51  1  0
M  CHG  1  17   1
M  END
>  <s_epik_cmdline>  (48) 
J2VwaWtfcHl0aG9uJywgJy1waCcsICc3LjAwMDAwMCcsICctcGh0JywgJzIuMDAwMDAwJywgJy1tcycsICcxNicsICctdG4nLCAnOCcsICctbWEnLCAnMjAwJywgJy1pbWFlJywgJzxpbmZpbGUubWFlPicsICctb21hZScsICc8b3V0ZmlsZS5tYWU+Jw==

>  <s_epik_input>  (48) 
RmMxW2NIXWMoRilbY0hdYyhbY0hdMSlDKD1PKVtOSF1jKGMoYzIzKVtjSF1bY0hdW2NIXVtjSF0zKWMoW2NIXW4yKUMjQ1tDQEBIXShbTkgyXSlbQ0gyXWM0W2NIXWMoRilbY0hdW2NIXVtjSF00

>  <s_i_glide_gridfile>  (48) 
ATP-Grid

>  <s_lp_Force_Field>  (48) 
OPLS_2005

>  <s_lp_Variant>  (48) 
rxn503b____EMOL495084____EMOL13728749____EMOL313110234-4

>  <s_lp_label>  (48) 
2772_sdstereoexpander_2_neutralizer_1_epik_2_stereoizer_1

>  <s_m_source_file>  (48) 
ATP-VSW-LIGPREP-003-in.maegz

>  <s_sd_BIOSOLVEIT.INFINISEE\_QUERY\_NAME>  (48) 
Ref-Lig

>  <s_sd_BIOSOLVEIT.INFINISEE\_QUERY\_SMILES>  (48) 
S(c1nc2c(cc1C[NH2+]Cc3ccc(cc3)C[NH+](C)C)cccc2)Cc4ccccc4

>  <s_sd_BIOSOLVEIT.INFINISEE\_REACTION\_NAME>  (48) 
rxn503b

>  <s_sd_BIOSOLVEIT.INFINISEE\_REAGENT1\_NAME>  (48) 
EMOL495084

>  <s_sd_BIOSOLVEIT.INFINISEE\_REAGENT1\_SMILES>  (48) 
Fc1cc(F)cc(c1)C(=O)O

>  <s_sd_BIOSOLVEIT.INFINISEE\_REAGENT2\_NAME>  (48) 
EMOL13728749

>  <s_sd_BIOSOLVEIT.INFINISEE\_REAGENT2\_SMILES>  (48) 
Brc1c(N)c2c(nc1)cccc2

>  <s_sd_BIOSOLVEIT.INFINISEE\_REAGENT3\_NAME>  (48) 
EMOL313110234

>  <s_sd_BIOSOLVEIT.INFINISEE\_REAGENT3\_SMILES>  (48) 
Fc1cc(ccc1)CC(N)C#C

>  <s_sd_BIOSOLVEIT.INFINISEE\_SPACE>  (48) 
eXplore_7tr_2022-12

>  <s_vsw_compound_code>  (48) 
88675

>  <s_vsw_variant>  (48) 
88675-4

>  <r_epik_Charging_Adjusted_Penalty>  (48) 
1.2404761048081201

>  <r_epik_Ionization_Penalty>  (48) 
0.6139

>  <r_epik_Ionization_Penalty_Charging>  (48) 
0.61299999999999999

>  <r_epik_Ionization_Penalty_Neutral>  (48) 
0.001

>  <r_epik_State_Penalty>  (48) 
0.62749999999999995

>  <r_i_docking_score>  (48) 
-5.3379991027116303

>  <r_i_glide_ecoul>  (48) 
-11.8240804672241

>  <r_i_glide_eff_state_penalty>  (48) 
0.62749999999999995

>  <r_i_glide_einternal>  (48) 
3.5711648464202899

>  <r_i_glide_emodel>  (48) 
-66.200039314239405

>  <r_i_glide_energy>  (48) 
-43.374371528625502

>  <r_i_glide_erotb>  (48) 
0.42179665442063402

>  <r_i_glide_esite>  (48) 
-0.129543204739167

>  <r_i_glide_evdw>  (48) 
-31.550291061401399

>  <r_i_glide_gscore>  (48) 
-5.9654991027116298

>  <r_i_glide_hbond>  (48) 
-0.29660524412744699

>  <r_i_glide_ligand_efficiency>  (48) 
-0.16175754856701899

>  <r_i_glide_ligand_efficiency_ln>  (48) 
-1.1871433617628999

>  <r_i_glide_ligand_efficiency_sa>  (48) 
-0.51884288955996805

>  <r_i_glide_lipo>  (48) 
-1.1020823350931499

>  <r_i_glide_metal>  (48) 
-0

>  <r_i_glide_rewards>  (48) 
-1.5079383500188199

>  <r_lp_Energy>  (48) 
26.871319

>  <r_qp_ACxDN^.5/SA>  (48) 
0.0120505

>  <r_qp_CIQPlogS>  (48) 
-6.5270000000000001

>  <r_qp_EA(eV)>  (48) 
1.319

>  <r_qp_FISA>  (48) 
107.23999999999999

>  <r_qp_FOSA>  (48) 
51.457000000000001

>  <r_qp_IP(eV)>  (48) 
8.9890000000000008

>  <r_qp_Jm>  (48) 
0.0071263258725238199

>  <r_qp_PISA>  (48) 
377.66199999999998

>  <r_qp_PSA>  (48) 
72.016000000000005

>  <r_qp_PercentHumanOralAbsorption>  (48) 
95.771000000000001

>  <r_qp_QPPCaco>  (48) 
237.596

>  <r_qp_QPPMDCK>  (48) 
466.18700000000001

>  <r_qp_QPlogBB>  (48) 
-0.13800000000000001

>  <r_qp_QPlogHERG>  (48) 
-6.1959999999999997

>  <r_qp_QPlogKhsa>  (48) 
0.71599999999999997

>  <r_qp_QPlogKp>  (48) 
-3.556

>  <r_qp_QPlogPC16>  (48) 
13.226000000000001

>  <r_qp_QPlogPo/w>  (48) 
4.492

>  <r_qp_QPlogPoct>  (48) 
22.07

>  <r_qp_QPlogPw>  (48) 
11.895

>  <r_qp_QPlogS>  (48) 
-4.2400000000000002

>  <r_qp_QPpolrz>  (48) 
43.009999999999998

>  <r_qp_SASA>  (48) 
646.79600000000005

>  <r_qp_SAamideO>  (48) 
0

>  <r_qp_SAfluorine>  (48) 
110.437

>  <r_qp_WPSA>  (48) 
110.437

>  <r_qp_accptHB>  (48) 
4.5

>  <r_qp_dip^2/V>  (48) 
0.020893100000000001

>  <r_qp_dipole>  (48) 
5.1120000000000001

>  <r_qp_donorHB>  (48) 
3

>  <r_qp_glob>  (48) 
0.86794360000000004

>  <r_qp_mol_MW>  (48) 
445.44299999999998

>  <r_qp_volume>  (48) 
1250.664

>  <r_sd_BIOSOLVEIT.INFINISEE\_FTREES\_SIMILARITY>  (48) 
0.90700000000000003

>  <r_sd_BIOSOLVEIT.LOGP>  (48) 
4.1090999999999998

>  <r_sd_BIOSOLVEIT.MOLECULAR\_WEIGHT>  (48) 
446.44999999999999

>  <r_sd_BIOSOLVEIT.TPSA>  (48) 
69.629999999999995

>  <i_epik_Tot_Q>  (48) 
1

>  <i_epik_Tot_abs_Q>  (48) 
1

>  <i_f3d_flags>  (48) 
0

>  <i_i_glide_confnum>  (48) 
2

>  <i_i_glide_lignum>  (48) 
1323

>  <i_i_glide_posenum>  (48) 
19

>  <i_i_glide_rotatable_bonds>  (48) 
7

>  <i_lp_mmshare_version>  (48) 
65135

>  <i_m_ct_format>  (48) 
2

>  <i_m_source_file_index>  (48) 
2772

>  <i_qp_#NandO>  (48) 
4

>  <i_qp_#acid>  (48) 
0

>  <i_qp_#amide>  (48) 
0

>  <i_qp_#amidine>  (48) 
0

>  <i_qp_#amine>  (48) 
1

>  <i_qp_#in34>  (48) 
0

>  <i_qp_#in56>  (48) 
22

>  <i_qp_#metab>  (48) 
5

>  <i_qp_#nonHatm>  (48) 
33

>  <i_qp_#noncon>  (48) 
0

>  <i_qp_#ringatoms>  (48) 
22

>  <i_qp_#rotor>  (48) 
7

>  <i_qp_#rtvFG>  (48) 
0

>  <i_qp_#stars>  (48) 
0

>  <i_qp_CNS>  (48) 
0

>  <i_qp_HumanOralAbsorption>  (48) 
3

>  <i_qp_RuleOfFive>  (48) 
0

>  <i_qp_RuleOfThree>  (48) 
0

>  <i_sd_BIOSOLVEIT.INFINISEE\_RESULT\_RANK>  (48) 
60499

>  <i_sd_version>  (48) 
0

>  <b_lp_Chiralities_Consistent>  (48) 
1

>  <b_sd_chiral_flag>  (48) 
0

>  <canonical_id>  (48) 
ATP-HTVS-08266C4344A3

>  <compound_code>  (48) 
88675

>  <title>  (48) 
rxn503b____EMOL495084____EMOL13728749____EMOL313110234

>  <variant>  (48) 
88675-4

>  <source_file>  (48) 
运行/运行/ATP-VSW/ATP-VSW-DOCK_HTVS_1-003_lib/ATP-VSW-DOCK_HTVS_1-003_lib.mae

>  <canonical_smiles>  (48) 
[NH3+][C@H](C#Cc1cnc2ccccc2c1NC(=O)c1cc(F)cc(F)c1)Cc1cccc(F)c1

>  <scaffold>  (48) 
O=C(Nc1c(C#CCCc2ccccc2)cnc2ccccc12)c1ccccc1

>  <molecular_formula>  (48) 
C26H19F3N3O+

$$$$
ATP-HTVS-0852D38F8C28
     RDKit          3D

 62 65  0  0  0  0  0  0  0  0999 V2000
  198.7433  175.8549  149.8349 Cl  0  0  0  0  0  0  0  0  0  0  0  0
  198.3508  177.4751  150.2870 C   0  0  0  0  0  0  0  0  0  0  0  0
  198.7896  177.9869  151.5252 C   0  0  0  0  0  0  0  0  0  0  0  0
  198.4530  179.3040  151.9183 C   0  0  0  0  0  0  0  0  0  0  0  0
  197.6714  180.0936  151.0508 C   0  0  0  0  0  0  0  0  0  0  0  0
  197.3270  181.4048  151.4389 N   0  0  0  0  0  0  0  0  0  0  0  0
  197.6892  182.0002  152.5930 C   0  0  0  0  0  0  0  0  0  0  0  0
  197.2932  183.1362  152.8308 O   0  0  0  0  0  0  0  0  0  0  0  0
  198.5356  181.1901  153.4947 C   0  0  0  0  0  0  0  0  0  0  0  0
  198.9473  181.7593  154.7111 N   0  0  0  0  0  0  0  0  0  0  0  0
  199.7474  182.8302  154.8540 C   0  0  0  0  0  0  0  0  0  0  0  0
  200.2122  183.4437  153.8971 O   0  0  0  0  0  0  0  0  0  0  0  0
  200.1064  183.0916  156.1356 N   0  0  0  0  0  0  0  0  0  0  0  0
  199.3889  182.5906  157.3323 C   0  0  1  0  0  0  0  0  0  0  0  0
  198.3071  183.5255  157.8710 C   0  0  0  0  0  0  0  0  0  0  0  0
  198.1483  184.8509  157.3881 C   0  0  0  0  0  0  0  0  0  0  0  0
  197.1631  185.6876  157.9267 C   0  0  0  0  0  0  0  0  0  0  0  0
  196.3017  185.2106  158.9311 C   0  0  0  0  0  0  0  0  0  0  0  0
  196.4296  183.8862  159.4046 C   0  0  0  0  0  0  0  0  0  0  0  0
  197.4364  183.0556  158.8806 C   0  0  0  0  0  0  0  0  0  0  0  0
  195.2020  186.1020  159.4494 C   0  0  1  0  0  0  0  0  0  0  0  0
  195.5818  186.7337  160.7325 N   0  0  2  0  0  0  0  0  0  0  0  0
  194.3992  187.0656  161.5564 C   0  0  2  0  0  0  0  0  0  0  0  0
  196.4915  187.8949  160.5662 C   0  0  2  0  0  0  0  0  0  0  0  0
  201.1887  184.0594  156.4059 C   0  0  2  0  0  0  0  0  0  0  0  0
  198.8951  179.9096  153.1957 C   0  0  0  0  0  0  0  0  0  0  0  0
  199.7217  179.1132  154.1295 C   0  0  0  0  0  0  0  0  0  0  0  0
  199.1660  178.5492  155.2975 C   0  0  0  0  0  0  0  0  0  0  0  0
  199.9684  177.7582  156.1477 C   0  0  0  0  0  0  0  0  0  0  0  0
  201.3197  177.5286  155.8295 C   0  0  0  0  0  0  0  0  0  0  0  0
  201.8745  178.0894  154.6637 C   0  0  0  0  0  0  0  0  0  0  0  0
  201.0786  178.8804  153.8138 C   0  0  0  0  0  0  0  0  0  0  0  0
  197.2355  179.5888  149.8082 C   0  0  0  0  0  0  0  0  0  0  0  0
  197.5782  178.2794  149.4250 C   0  0  0  0  0  0  0  0  0  0  0  0
  199.3706  177.3445  152.1750 H   0  0  0  0  0  0  0  0  0  0  0  0
  196.7665  181.9560  150.8051 H   0  0  0  0  0  0  0  0  0  0  0  0
  198.7184  181.2257  155.5378 H   0  0  0  0  0  0  0  0  0  0  0  0
  198.9380  181.6087  157.1849 H   0  0  0  0  0  0  0  0  0  0  0  0
  200.1148  182.4031  158.1217 H   0  0  0  0  0  0  0  0  0  0  0  0
  198.7479  185.2606  156.5894 H   0  0  0  0  0  0  0  0  0  0  0  0
  197.0610  186.6928  157.5455 H   0  0  0  0  0  0  0  0  0  0  0  0
  195.7480  183.4920  160.1498 H   0  0  0  0  0  0  0  0  0  0  0  0
  197.5136  182.0393  159.2411 H   0  0  0  0  0  0  0  0  0  0  0  0
  194.9669  186.8698  158.7112 H   0  0  0  0  0  0  0  0  0  0  0  0
  194.3183  185.4730  159.5638 H   0  0  0  0  0  0  0  0  0  0  0  0
  193.7819  187.8205  161.0689 H   0  0  0  0  0  0  0  0  0  0  0  0
  194.7018  187.4449  162.5314 H   0  0  0  0  0  0  0  0  0  0  0  0
  193.7800  186.1834  161.7235 H   0  0  0  0  0  0  0  0  0  0  0  0
  196.0274  188.6803  159.9665 H   0  0  0  0  0  0  0  0  0  0  0  0
  197.4232  187.6024  160.0807 H   0  0  0  0  0  0  0  0  0  0  0  0
  196.7484  188.3308  161.5321 H   0  0  0  0  0  0  0  0  0  0  0  0
  200.8627  185.0831  156.2169 H   0  0  0  0  0  0  0  0  0  0  0  0
  202.0615  183.8809  155.7758 H   0  0  0  0  0  0  0  0  0  0  0  0
  201.5209  184.0127  157.4418 H   0  0  0  0  0  0  0  0  0  0  0  0
  198.1255  178.7097  155.5532 H   0  0  0  0  0  0  0  0  0  0  0  0
  199.5432  177.3330  157.0440 H   0  0  0  0  0  0  0  0  0  0  0  0
  201.9340  176.9276  156.4860 H   0  0  0  0  0  0  0  0  0  0  0  0
  202.9154  177.9099  154.4273 H   0  0  0  0  0  0  0  0  0  0  0  0
  201.5100  179.3014  152.9200 H   0  0  0  0  0  0  0  0  0  0  0  0
  196.6381  180.2023  149.1499 H   0  0  0  0  0  0  0  0  0  0  0  0
  197.2473  177.8862  148.4762 H   0  0  0  0  0  0  0  0  0  0  0  0
  196.1046  186.0275  161.2299 H   0  0  0  0  0  0  0  0  0  0  0  0
  1  2  1  0
  2  3  1  0
  2 34  2  0
  3  4  2  0
  3 35  1  0
  4  5  1  0
  4 26  1  0
  5  6  1  0
  5 33  2  0
  6  7  1  0
  6 36  1  0
  7  8  2  0
  7  9  1  0
  9 10  1  0
  9 26  2  0
 10 11  1  0
 10 37  1  0
 11 12  2  0
 11 13  1  0
 13 14  1  0
 13 25  1  0
 14 15  1  0
 14 38  1  6
 14 39  1  0
 15 16  1  0
 15 20  2  0
 16 17  2  0
 16 40  1  0
 17 18  1  0
 17 41  1  0
 18 19  2  0
 18 21  1  0
 19 20  1  0
 19 42  1  0
 20 43  1  0
 21 22  1  0
 21 44  1  6
 21 45  1  0
 22 23  1  0
 22 24  1  0
 22 62  1  1
 23 46  1  6
 23 47  1  0
 23 48  1  0
 24 49  1  6
 24 50  1  0
 24 51  1  0
 25 52  1  6
 25 53  1  0
 25 54  1  0
 26 27  1  0
 27 28  2  0
 27 32  1  0
 28 29  1  0
 28 55  1  0
 29 30  2  0
 29 56  1  0
 30 31  1  0
 30 57  1  0
 31 32  2  0
 31 58  1  0
 32 59  1  0
 33 34  1  0
 33 60  1  0
 34 61  1  0
M  CHG  1  22   1
M  END
>  <s_epik_cmdline>  (49) 
J2VwaWtfcHl0aG9uJywgJy1waCcsICc3LjAwMDAwMCcsICctcGh0JywgJzIuMDAwMDAwJywgJy1tcycsICcxNicsICctdG4nLCAnOCcsICctbWEnLCAnMjAwJywgJy1pbWFlJywgJzxpbmZpbGUubWFlPicsICctb21hZScsICc8b3V0ZmlsZS5tYWU+Jw==

>  <s_epik_input>  (49) 
Q2xjKFtjSF0xKVtjSF1bY0hdYyhjMTIpW25IXWMoPU8pYyhjMi1jM1tjSF1bY0hdW2NIXVtjSF1bY0hdMylbTkhdQyg9TylOKFtDSDNdKVtDSDJdYzRbY0hdW2NIXWMoW2NIXVtjSF00KVtDSDJdTihbQ0gzXSlbQ0gzXQ==

>  <s_i_glide_gridfile>  (49) 
ATP-Grid

>  <s_lp_Force_Field>  (49) 
OPLS_2005

>  <s_lp_Variant>  (49) 
m_2430bbb____22528438____13420474-1

>  <s_lp_label>  (49) 
1465_sdstereoexpander_1_neutralizer_1_epik_1_stereoizer_1

>  <s_m_source_file>  (49) 
ATP-VSW-LIGPREP-003-in.maegz

>  <s_sd_BIOSOLVEIT.INFINISEE\_QUERY\_NAME>  (49) 
Ref-Lig

>  <s_sd_BIOSOLVEIT.INFINISEE\_QUERY\_SMILES>  (49) 
S(c1nc2c(cc1C[NH2+]Cc3ccc(cc3)C[NH+](C)C)cccc2)Cc4ccccc4

>  <s_sd_BIOSOLVEIT.INFINISEE\_REACTION\_NAME>  (49) 
m_2430bbb

>  <s_sd_BIOSOLVEIT.INFINISEE\_REAGENT1\_SMILES>  (49) 
[R1*]C(=O)Nc1c(O)nc2c(c1c3ccccc3)cc(Cl)cc2

>  <s_sd_BIOSOLVEIT.INFINISEE\_REAGENT2\_SMILES>  (49) 
[R1*]N(Cc1ccc(cc1)CN(C)C)C

>  <s_sd_BIOSOLVEIT.INFINISEE\_SPACE>  (49) 
REALSpace_44bn_2023-08

>  <s_vsw_compound_code>  (49) 
46851

>  <s_vsw_variant>  (49) 
46851-1

>  <r_epik_Charging_Adjusted_Penalty>  (49) 
0.088632624462486598

>  <r_epik_Ionization_Penalty>  (49) 
0.044499999999999998

>  <r_epik_Ionization_Penalty_Charging>  (49) 
0.044499999999999998

>  <r_epik_Ionization_Penalty_Neutral>  (49) 
0

>  <r_epik_State_Penalty>  (49) 
0.044200000000000003

>  <r_i_docking_score>  (49) 
-1.52630325310868

>  <r_i_glide_ecoul>  (49) 
-3.50906586647034

>  <r_i_glide_eff_state_penalty>  (49) 
0.044200000000000003

>  <r_i_glide_einternal>  (49) 
2.4223294258117698

>  <r_i_glide_emodel>  (49) 
-40.966890161708903

>  <r_i_glide_energy>  (49) 
-37.531458139419598

>  <r_i_glide_erotb>  (49) 
0.62553577424058504

>  <r_i_glide_esite>  (49) 
-0.00232639438148608

>  <r_i_glide_evdw>  (49) 
-34.022392272949197

>  <r_i_glide_gscore>  (49) 
-1.57050325310868

>  <r_i_glide_hbond>  (49) 
0

>  <r_i_glide_ligand_efficiency>  (49) 
-0.044891272150255401

>  <r_i_glide_ligand_efficiency_ln>  (49) 
-0.33720319996784098

>  <r_i_glide_ligand_efficiency_sa>  (49) 
-0.14543029486138001

>  <r_i_glide_lipo>  (49) 
-1.5731361378928199

>  <r_i_glide_metal>  (49) 
-0

>  <r_i_glide_rewards>  (49) 
1.6069029985430501

>  <r_lp_Energy>  (49) 
44.498846999999998

>  <r_qp_ACxDN^.5/SA>  (49) 
0.0090275000000000008

>  <r_qp_CIQPlogS>  (49) 
-6.1970000000000001

>  <r_qp_EA(eV)>  (49) 
0.92900000000000005

>  <r_qp_FISA>  (49) 
96.177999999999997

>  <r_qp_FOSA>  (49) 
265.19900000000001

>  <r_qp_IP(eV)>  (49) 
8.6899999999999995

>  <r_qp_Jm>  (49) 
0.0027386516507344901

>  <r_qp_PISA>  (49) 
279.23099999999999

>  <r_qp_PSA>  (49) 
78.373000000000005

>  <r_qp_PercentHumanOralAbsorption>  (49) 
93.998000000000005

>  <r_qp_QPPCaco>  (49) 
197.185

>  <r_qp_QPPMDCK>  (49) 
370.45800000000003

>  <r_qp_QPlogBB>  (49) 
-0.112

>  <r_qp_QPlogHERG>  (49) 
-4.6429999999999998

>  <r_qp_QPlogKhsa>  (49) 
0.72899999999999998

>  <r_qp_QPlogKp>  (49) 
-3.7949999999999999

>  <r_qp_QPlogPC16>  (49) 
14.574999999999999

>  <r_qp_QPlogPo/w>  (49) 
4.4370000000000003

>  <r_qp_QPlogPoct>  (49) 
22.013000000000002

>  <r_qp_QPlogPw>  (49) 
11.91

>  <r_qp_QPlogS>  (49) 
-4.444

>  <r_qp_QPpolrz>  (49) 
48.695999999999998

>  <r_qp_SASA>  (49) 
712.12400000000002

>  <r_qp_SAamideO>  (49) 
23.350999999999999

>  <r_qp_SAfluorine>  (49) 
0

>  <r_qp_WPSA>  (49) 
71.515000000000001

>  <r_qp_accptHB>  (49) 
5.75

>  <r_qp_dip^2/V>  (49) 
0.0353008

>  <r_qp_dipole>  (49) 
7.0300000000000002

>  <r_qp_donorHB>  (49) 
1.25

>  <r_qp_glob>  (49) 
0.84996450000000001

>  <r_qp_mol_MW>  (49) 
474.98899999999998

>  <r_qp_volume>  (49) 
1400.1890000000001

>  <r_sd_BIOSOLVEIT.INFINISEE\_FTREES\_SIMILARITY>  (49) 
0.90800000000000003

>  <r_sd_BIOSOLVEIT.LOGP>  (49) 
4.1569000000000003

>  <r_sd_BIOSOLVEIT.MOLECULAR\_WEIGHT>  (49) 
475.99700000000001

>  <r_sd_BIOSOLVEIT.TPSA>  (49) 
69.640000000000001

>  <i_epik_Tot_Q>  (49) 
1

>  <i_epik_Tot_abs_Q>  (49) 
1

>  <i_f3d_flags>  (49) 
0

>  <i_i_glide_confnum>  (49) 
3

>  <i_i_glide_lignum>  (49) 
559

>  <i_i_glide_posenum>  (49) 
19

>  <i_i_glide_rotatable_bonds>  (49) 
8

>  <i_lp_mmshare_version>  (49) 
65135

>  <i_m_ct_format>  (49) 
2

>  <i_m_source_file_index>  (49) 
1465

>  <i_qp_#NandO>  (49) 
6

>  <i_qp_#acid>  (49) 
0

>  <i_qp_#amide>  (49) 
1

>  <i_qp_#amidine>  (49) 
0

>  <i_qp_#amine>  (49) 
1

>  <i_qp_#in34>  (49) 
0

>  <i_qp_#in56>  (49) 
22

>  <i_qp_#metab>  (49) 
3

>  <i_qp_#nonHatm>  (49) 
34

>  <i_qp_#noncon>  (49) 
0

>  <i_qp_#ringatoms>  (49) 
22

>  <i_qp_#rotor>  (49) 
6

>  <i_qp_#rtvFG>  (49) 
0

>  <i_qp_#stars>  (49) 
0

>  <i_qp_CNS>  (49) 
1

>  <i_qp_HumanOralAbsorption>  (49) 
3

>  <i_qp_RuleOfFive>  (49) 
0

>  <i_qp_RuleOfThree>  (49) 
0

>  <i_sd_BIOSOLVEIT.INFINISEE\_REAGENT1\_NAME>  (49) 
22528438

>  <i_sd_BIOSOLVEIT.INFINISEE\_REAGENT2\_NAME>  (49) 
13420474

>  <i_sd_BIOSOLVEIT.INFINISEE\_RESULT\_RANK>  (49) 
57052

>  <i_sd_version>  (49) 
0

>  <b_lp_Chiralities_Consistent>  (49) 
1

>  <b_sd_chiral_flag>  (49) 
0

>  <canonical_id>  (49) 
ATP-HTVS-0852D38F8C28

>  <compound_code>  (49) 
46851

>  <title>  (49) 
m_2430bbb____22528438____13420474

>  <variant>  (49) 
46851-1

>  <source_file>  (49) 
运行/运行/ATP-VSW/ATP-VSW-DOCK_HTVS_1-003_lib/ATP-VSW-DOCK_HTVS_1-003_lib.mae

>  <canonical_smiles>  (49) 
CN(Cc1ccc(C[NH+](C)C)cc1)C(=O)Nc1c(-c2ccccc2)c2cc(Cl)ccc2[nH]c1=O

>  <scaffold>  (49) 
O=C(NCc1ccccc1)Nc1c(-c2ccccc2)c2ccccc2[nH]c1=O

>  <molecular_formula>  (49) 
C27H28ClN4O2+

$$$$
ATP-HTVS-08590B5C6743
     RDKit          3D

 59 62  0  0  0  0  0  0  0  0999 V2000
  199.0995  183.0559  158.2480 O   0  0  0  0  0  0  0  0  0  0  0  0
  198.5848  183.4717  157.2120 C   0  0  0  0  0  0  0  0  0  0  0  0
  198.5177  182.8152  156.0459 N   0  0  0  0  0  0  0  0  0  0  0  0
  199.0101  181.5259  155.7030 C   0  0  0  0  0  0  0  0  0  0  0  0
  199.6744  180.7340  156.5813 N   0  0  0  0  0  0  0  0  0  0  0  0
  200.0661  179.5097  156.1614 C   0  0  0  0  0  0  0  0  0  0  0  0
  199.8066  179.0585  154.8517 C   0  0  0  0  0  0  0  0  0  0  0  0
  199.1573  179.8404  153.9630 N   0  0  0  0  0  0  0  0  0  0  0  0
  198.7608  181.0717  154.3753 C   0  0  0  0  0  0  0  0  0  0  0  0
  198.0692  181.8706  153.3366 C   0  0  0  0  0  0  0  0  0  0  0  0
  198.4519  183.2068  153.0619 C   0  0  0  0  0  0  0  0  0  0  0  0
  197.7815  183.9726  152.0905 C   0  0  0  0  0  0  0  0  0  0  0  0
  196.7335  183.4008  151.3479 C   0  0  0  0  0  0  0  0  0  0  0  0
  196.3534  182.0666  151.5889 C   0  0  0  0  0  0  0  0  0  0  0  0
  197.0105  181.3128  152.5818 C   0  0  0  0  0  0  0  0  0  0  0  0
  200.2557  177.7453  154.4211 C   0  0  0  0  0  0  0  0  0  0  0  0
  200.6523  176.6530  154.0457 C   0  0  0  0  0  0  0  0  0  0  0  0
  201.1357  175.3578  153.5982 C   0  0  0  0  0  0  0  0  0  0  0  0
  202.0266  174.6201  154.4019 C   0  0  0  0  0  0  0  0  0  0  0  0
  202.4739  173.3555  153.9769 C   0  0  0  0  0  0  0  0  0  0  0  0
  203.3354  172.6542  154.7669 O   0  0  0  0  0  0  0  0  0  0  0  0
  202.0306  172.8253  152.7482 C   0  0  0  0  0  0  0  0  0  0  0  0
  201.1428  173.5629  151.9413 C   0  0  0  0  0  0  0  0  0  0  0  0
  200.6915  174.8279  152.3676 C   0  0  0  0  0  0  0  0  0  0  0  0
  197.9295  184.8202  157.1822 C   0  0  0  0  0  0  0  0  0  0  0  0
  196.8427  185.1476  158.0408 C   0  0  0  0  0  0  0  0  0  0  0  0
  196.2886  186.4473  157.9877 C   0  0  0  0  0  0  0  0  0  0  0  0
  196.7933  187.4084  157.0936 C   0  0  0  0  0  0  0  0  0  0  0  0
  197.8630  187.0842  156.2429 C   0  0  0  0  0  0  0  0  0  0  0  0
  198.4240  185.7942  156.2832 C   0  0  0  0  0  0  0  0  0  0  0  0
  196.2450  184.1462  159.0275 C   0  0  1  0  0  0  0  0  0  0  0  0
  195.2738  183.2327  158.3649 N   0  0  2  0  0  0  0  0  0  0  0  0
  193.8653  183.6036  158.6266 C   0  0  2  0  0  0  0  0  0  0  0  0
  195.5310  181.8091  158.6666 C   0  0  2  0  0  0  0  0  0  0  0  0
  198.0482  183.3026  155.2966 H   0  0  0  0  0  0  0  0  0  0  0  0
  200.5909  178.8936  156.8771 H   0  0  0  0  0  0  0  0  0  0  0  0
  199.2751  183.6592  153.5984 H   0  0  0  0  0  0  0  0  0  0  0  0
  198.0823  184.9951  151.9130 H   0  0  0  0  0  0  0  0  0  0  0  0
  196.2291  183.9837  150.5934 H   0  0  0  0  0  0  0  0  0  0  0  0
  195.5584  181.6155  151.0169 H   0  0  0  0  0  0  0  0  0  0  0  0
  196.7016  180.2928  152.7642 H   0  0  0  0  0  0  0  0  0  0  0  0
  202.3612  175.0135  155.3506 H   0  0  0  0  0  0  0  0  0  0  0  0
  203.3858  171.7108  154.5190 H   0  0  0  0  0  0  0  0  0  0  0  0
  202.3759  171.8515  152.4241 H   0  0  0  0  0  0  0  0  0  0  0  0
  200.8019  173.1613  150.9995 H   0  0  0  0  0  0  0  0  0  0  0  0
  200.0001  175.3819  151.7508 H   0  0  0  0  0  0  0  0  0  0  0  0
  195.4547  186.7101  158.6258 H   0  0  0  0  0  0  0  0  0  0  0  0
  196.3613  188.3950  157.0615 H   0  0  0  0  0  0  0  0  0  0  0  0
  198.2556  187.8252  155.5602 H   0  0  0  0  0  0  0  0  0  0  0  0
  199.2698  185.5685  155.6478 H   0  0  0  0  0  0  0  0  0  0  0  0
  197.0341  183.5899  159.5331 H   0  0  0  0  0  0  0  0  0  0  0  0
  195.7685  184.6923  159.8436 H   0  0  0  0  0  0  0  0  0  0  0  0
  193.6434  183.5645  159.6926 H   0  0  0  0  0  0  0  0  0  0  0  0
  193.1750  182.9322  158.1104 H   0  0  0  0  0  0  0  0  0  0  0  0
  193.6725  184.6193  158.2845 H   0  0  0  0  0  0  0  0  0  0  0  0
  195.4134  181.6037  159.7325 H   0  0  0  0  0  0  0  0  0  0  0  0
  196.5425  181.5205  158.3746 H   0  0  0  0  0  0  0  0  0  0  0  0
  194.8309  181.1805  158.1133 H   0  0  0  0  0  0  0  0  0  0  0  0
  195.3896  183.3245  157.3628 H   0  0  0  0  0  0  0  0  0  0  0  0
  1  2  2  0
  2  3  1  0
  2 25  1  0
  3  4  1  0
  3 35  1  0
  4  5  1  0
  4  9  2  0
  5  6  2  0
  6  7  1  0
  6 36  1  0
  7  8  2  0
  7 16  1  0
  8  9  1  0
  9 10  1  0
 10 11  2  0
 10 15  1  0
 11 12  1  0
 11 37  1  0
 12 13  2  0
 12 38  1  0
 13 14  1  0
 13 39  1  0
 14 15  2  0
 14 40  1  0
 15 41  1  0
 16 17  3  0
 17 18  1  0
 18 19  2  0
 18 24  1  0
 19 20  1  0
 19 42  1  0
 20 21  1  0
 20 22  2  0
 21 43  1  0
 22 23  1  0
 22 44  1  0
 23 24  2  0
 23 45  1  0
 24 46  1  0
 25 26  1  0
 25 30  2  0
 26 27  2  0
 26 31  1  0
 27 28  1  0
 27 47  1  0
 28 29  2  0
 28 48  1  0
 29 30  1  0
 29 49  1  0
 30 50  1  0
 31 32  1  0
 31 51  1  1
 31 52  1  0
 32 33  1  0
 32 34  1  0
 32 59  1  6
 33 53  1  1
 33 54  1  0
 33 55  1  0
 34 56  1  1
 34 57  1  0
 34 58  1  0
M  CHG  1  32   1
M  END
>  <s_epik_cmdline>  (50) 
J2VwaWtfcHl0aG9uJywgJy1waCcsICc3LjAwMDAwMCcsICctcGh0JywgJzIuMDAwMDAwJywgJy1tcycsICcxNicsICctdG4nLCAnOCcsICctbWEnLCAnMjAwJywgJy1pbWFlJywgJzxpbmZpbGUubWFlPicsICctb21hZScsICc8b3V0ZmlsZS5tYWU+Jw==

>  <s_epik_input>  (50) 
W2NIXTFbY0hdW2NIXVtjSF1jKFtDSDJdTihbQ0gzXSlbQ0gzXSljMUMoPU8pW05IXWMybltjSF1jKG5jMi1jM1tjSF1bY0hdW2NIXVtjSF1bY0hdMylDI0NjNFtjSF1jKFtPSF0pW2NIXVtjSF1bY0hdNA==

>  <s_i_glide_gridfile>  (50) 
ATP-Grid

>  <s_lp_Force_Field>  (50) 
OPLS_2005

>  <s_lp_Variant>  (50) 
rxn505a____EMOL5415347____EMOL313123100____EMOL539496-1

>  <s_lp_label>  (50) 
2747_sdstereoexpander_1_neutralizer_1_epik_1_stereoizer_1

>  <s_m_source_file>  (50) 
ATP-VSW-LIGPREP-001-in.maegz

>  <s_sd_BIOSOLVEIT.INFINISEE\_QUERY\_NAME>  (50) 
Ref-Lig

>  <s_sd_BIOSOLVEIT.INFINISEE\_QUERY\_SMILES>  (50) 
S(c1nc2c(cc1C[NH2+]Cc3ccc(cc3)C[NH+](C)C)cccc2)Cc4ccccc4

>  <s_sd_BIOSOLVEIT.INFINISEE\_REACTION\_NAME>  (50) 
rxn505a

>  <s_sd_BIOSOLVEIT.INFINISEE\_REAGENT1\_NAME>  (50) 
EMOL5415347

>  <s_sd_BIOSOLVEIT.INFINISEE\_REAGENT1\_SMILES>  (50) 
O=C(O)c1c(cccc1)CN(C)C

>  <s_sd_BIOSOLVEIT.INFINISEE\_REAGENT2\_NAME>  (50) 
EMOL313123100

>  <s_sd_BIOSOLVEIT.INFINISEE\_REAGENT2\_SMILES>  (50) 
n1c(C#C)cnc(N)c1c2ccccc2

>  <s_sd_BIOSOLVEIT.INFINISEE\_REAGENT3\_NAME>  (50) 
EMOL539496

>  <s_sd_BIOSOLVEIT.INFINISEE\_REAGENT3\_SMILES>  (50) 
Ic1cc(O)ccc1

>  <s_sd_BIOSOLVEIT.INFINISEE\_SPACE>  (50) 
eXplore_7tr_2022-12

>  <s_vsw_compound_code>  (50) 
87873

>  <s_vsw_variant>  (50) 
87873-1

>  <r_epik_Charging_Adjusted_Penalty>  (50) 
0.12133168554462501

>  <r_epik_Ionization_Penalty>  (50) 
0.065600000000000006

>  <r_epik_Ionization_Penalty_Charging>  (50) 
0.060699999999999997

>  <r_epik_Ionization_Penalty_Neutral>  (50) 
0.0050000000000000001

>  <r_epik_State_Penalty>  (50) 
0.060699999999999997

>  <r_i_docking_score>  (50) 
-4.8898559172562504

>  <r_i_glide_ecoul>  (50) 
-12.8602304458618

>  <r_i_glide_eff_state_penalty>  (50) 
0.060699999999999997

>  <r_i_glide_einternal>  (50) 
3.3029947280883798

>  <r_i_glide_emodel>  (50) 
-65.504648924044602

>  <r_i_glide_energy>  (50) 
-47.656361579894998

>  <r_i_glide_erotb>  (50) 
0.69426473046080095

>  <r_i_glide_esite>  (50) 
-0.0415317555559052

>  <r_i_glide_evdw>  (50) 
-34.796131134033203

>  <r_i_glide_gscore>  (50) 
-4.9505559172562501

>  <r_i_glide_hbond>  (50) 
-0.16

>  <r_i_glide_ligand_efficiency>  (50) 
-0.14381929168400701

>  <r_i_glide_ligand_efficiency_ln>  (50) 
-1.0803063279346099

>  <r_i_glide_ligand_efficiency_sa>  (50) 
-0.46591867404321302

>  <r_i_glide_lipo>  (50) 
-1.2052911776711199

>  <r_i_glide_metal>  (50) 
-0

>  <r_i_glide_rewards>  (50) 
-0.56915659090908999

>  <r_lp_Energy>  (50) 
35.665478999999998

>  <r_qp_ACxDN^.5/SA>  (50) 
0.012390999999999999

>  <r_qp_CIQPlogS>  (50) 
-5.7750000000000004

>  <r_qp_EA(eV)>  (50) 
0.90100000000000002

>  <r_qp_FISA>  (50) 
100.88200000000001

>  <r_qp_FOSA>  (50) 
163.47900000000001

>  <r_qp_IP(eV)>  (50) 
8.8019999999999996

>  <r_qp_Jm>  (50) 
0.00088550055959826595

>  <r_qp_PISA>  (50) 
563.09699999999998

>  <r_qp_PSA>  (50) 
78.659999999999997

>  <r_qp_PercentHumanOralAbsorption>  (50) 
100

>  <r_qp_QPPCaco>  (50) 
272.98200000000003

>  <r_qp_QPPMDCK>  (50) 
134.511

>  <r_qp_QPlogBB>  (50) 
-0.68500000000000005

>  <r_qp_QPlogHERG>  (50) 
-8.8279999999999994

>  <r_qp_QPlogKhsa>  (50) 
0.81100000000000005

>  <r_qp_QPlogKp>  (50) 
-2.6899999999999999

>  <r_qp_QPlogPC16>  (50) 
17.399000000000001

>  <r_qp_QPlogPo/w>  (50) 
4.8209999999999997

>  <r_qp_QPlogPoct>  (50) 
25.058

>  <r_qp_QPlogPw>  (50) 
14.532999999999999

>  <r_qp_QPlogS>  (50) 
-6.0149999999999997

>  <r_qp_QPpolrz>  (50) 
53.423999999999999

>  <r_qp_SASA>  (50) 
827.45799999999997

>  <r_qp_SAamideO>  (50) 
0

>  <r_qp_SAfluorine>  (50) 
0

>  <r_qp_WPSA>  (50) 
0

>  <r_qp_accptHB>  (50) 
7.25

>  <r_qp_dip^2/V>  (50) 
0.022398299999999999

>  <r_qp_dipole>  (50) 
5.7629999999999999

>  <r_qp_donorHB>  (50) 
2

>  <r_qp_glob>  (50) 
0.75994709999999999

>  <r_qp_mol_MW>  (50) 
448.52300000000002

>  <r_qp_volume>  (50) 
1482.6769999999999

>  <r_sd_BIOSOLVEIT.INFINISEE\_FTREES\_SIMILARITY>  (50) 
0.90700000000000003

>  <r_sd_BIOSOLVEIT.LOGP>  (50) 
3.1457999999999999

>  <r_sd_BIOSOLVEIT.MOLECULAR\_WEIGHT>  (50) 
449.53199999999998

>  <r_sd_BIOSOLVEIT.TPSA>  (50) 
79.549999999999997

>  <i_epik_Tot_Q>  (50) 
1

>  <i_epik_Tot_abs_Q>  (50) 
1

>  <i_f3d_flags>  (50) 
0

>  <i_i_glide_confnum>  (50) 
6

>  <i_i_glide_lignum>  (50) 
1227

>  <i_i_glide_posenum>  (50) 
20

>  <i_i_glide_rotatable_bonds>  (50) 
9

>  <i_lp_mmshare_version>  (50) 
65135

>  <i_m_ct_format>  (50) 
2

>  <i_m_source_file_index>  (50) 
2747

>  <i_qp_#NandO>  (50) 
6

>  <i_qp_#acid>  (50) 
0

>  <i_qp_#amide>  (50) 
0

>  <i_qp_#amidine>  (50) 
0

>  <i_qp_#amine>  (50) 
1

>  <i_qp_#in34>  (50) 
0

>  <i_qp_#in56>  (50) 
24

>  <i_qp_#metab>  (50) 
4

>  <i_qp_#nonHatm>  (50) 
34

>  <i_qp_#noncon>  (50) 
0

>  <i_qp_#ringatoms>  (50) 
24

>  <i_qp_#rotor>  (50) 
8

>  <i_qp_#rtvFG>  (50) 
0

>  <i_qp_#stars>  (50) 
1

>  <i_qp_CNS>  (50) 
1

>  <i_qp_HumanOralAbsorption>  (50) 
3

>  <i_qp_RuleOfFive>  (50) 
0

>  <i_qp_RuleOfThree>  (50) 
1

>  <i_sd_BIOSOLVEIT.INFINISEE\_RESULT\_RANK>  (50) 
57815

>  <i_sd_version>  (50) 
0

>  <b_lp_Chiralities_Consistent>  (50) 
1

>  <b_sd_chiral_flag>  (50) 
0

>  <canonical_id>  (50) 
ATP-HTVS-08590B5C6743

>  <compound_code>  (50) 
87873

>  <title>  (50) 
rxn505a____EMOL5415347____EMOL313123100____EMOL539496

>  <variant>  (50) 
87873-1

>  <source_file>  (50) 
运行/运行/ATP-VSW/ATP-VSW-DOCK_HTVS_1-001_lib/ATP-VSW-DOCK_HTVS_1-001_lib

>  <canonical_smiles>  (50) 
C[NH+](C)Cc1ccccc1C(=O)Nc1ncc(C#Cc2cccc(O)c2)nc1-c1ccccc1

>  <scaffold>  (50) 
O=C(Nc1ncc(C#Cc2ccccc2)nc1-c1ccccc1)c1ccccc1

>  <molecular_formula>  (50) 
C28H25N4O2+

$$$$
ATP-HTVS-086F5E4227DC
     RDKit          3D

 47 49  0  0  0  0  0  0  0  0999 V2000
  197.3428  183.8818  158.7895 S   0  0  0  0  0  0  0  0  0  0  0  0
  196.4157  182.5217  158.1689 C   0  0  0  0  0  0  0  0  0  0  0  0
  197.0254  181.4393  157.5669 N   0  0  0  0  0  0  0  0  0  0  0  0
  198.3376  181.5525  156.9436 C   0  0  1  0  0  0  0  0  0  0  0  0
  198.4690  182.6673  155.9233 C   0  0  0  0  0  0  0  0  0  0  0  0
  197.4149  182.9835  155.0433 C   0  0  0  0  0  0  0  0  0  0  0  0
  197.5363  184.0590  154.1426 C   0  0  0  0  0  0  0  0  0  0  0  0
  198.7242  184.8348  154.1079 C   0  0  0  0  0  0  0  0  0  0  0  0
  199.7996  184.4892  154.9605 C   0  0  0  0  0  0  0  0  0  0  0  0
  199.6607  183.4330  155.8714 C   0  0  0  0  0  0  0  0  0  0  0  0
  198.8548  186.0356  153.1894 C   0  0  1  0  0  0  0  0  0  0  0  0
  198.7923  187.3587  153.8858 N   0  0  1  0  0  0  0  0  0  0  0  0
  199.5735  187.4432  155.1466 C   0  0  2  0  0  0  0  0  0  0  0  0
  199.1615  188.4689  152.9901 C   0  0  2  0  0  0  0  0  0  0  0  0
  195.0697  182.7425  158.3744 C   0  0  0  0  0  0  0  0  0  0  0  0
  194.7664  183.9918  158.9774 C   0  0  0  0  0  0  0  0  0  0  0  0
  195.8875  184.7404  159.2467 C   0  0  0  0  0  0  0  0  0  0  0  0
  196.0007  186.0754  159.8301 C   0  0  0  0  0  0  0  0  0  0  0  0
  197.0704  186.9342  159.4869 C   0  0  0  0  0  0  0  0  0  0  0  0
  197.1854  188.2197  160.0542 C   0  0  0  0  0  0  0  0  0  0  0  0
  196.2153  188.6676  160.9729 C   0  0  0  0  0  0  0  0  0  0  0  0
  196.3276  189.9876  161.5665 C   0  0  0  0  0  0  0  0  0  0  0  0
  196.4137  191.0382  162.0479 N   0  0  0  0  0  0  0  0  0  0  0  0
  195.1466  187.8161  161.3316 C   0  0  0  0  0  0  0  0  0  0  0  0
  195.0385  186.5329  160.7573 C   0  0  0  0  0  0  0  0  0  0  0  0
  196.5460  180.5332  157.4993 H   0  0  0  0  0  0  0  0  0  0  0  0
  199.0895  181.7045  157.7343 H   0  0  0  0  0  0  0  0  0  0  0  0
  198.5871  180.6229  156.4416 H   0  0  0  0  0  0  0  0  0  0  0  0
  196.4930  182.4251  155.0913 H   0  0  0  0  0  0  0  0  0  0  0  0
  196.6818  184.3110  153.5122 H   0  0  0  0  0  0  0  0  0  0  0  0
  200.7450  184.9870  154.9109 H   0  0  0  0  0  0  0  0  0  0  0  0
  200.4596  183.2382  156.5834 H   0  0  0  0  0  0  0  0  0  0  0  0
  199.7871  185.9342  152.6165 H   0  0  0  0  0  0  0  0  0  0  0  0
  198.0523  186.0052  152.4424 H   0  0  0  0  0  0  0  0  0  0  0  0
  200.6239  187.2613  154.9427 H   0  0  0  0  0  0  0  0  0  0  0  0
  199.2268  186.7222  155.8858 H   0  0  0  0  0  0  0  0  0  0  0  0
  199.5141  188.4625  155.5993 H   0  0  0  0  0  0  0  0  0  0  0  0
  200.1643  188.3490  152.5917 H   0  0  0  0  0  0  0  0  0  0  0  0
  199.1290  189.4165  153.5132 H   0  0  0  0  0  0  0  0  0  0  0  0
  198.4679  188.5211  152.1344 H   0  0  0  0  0  0  0  0  0  0  0  0
  194.3174  182.0370  158.0610 H   0  0  0  0  0  0  0  0  0  0  0  0
  193.7463  184.3000  159.1629 H   0  0  0  0  0  0  0  0  0  0  0  0
  197.8238  186.6150  158.7829 H   0  0  0  0  0  0  0  0  0  0  0  0
  198.0207  188.8502  159.7912 H   0  0  0  0  0  0  0  0  0  0  0  0
  194.3992  188.1443  162.0378 H   0  0  0  0  0  0  0  0  0  0  0  0
  194.2144  185.8891  161.0310 H   0  0  0  0  0  0  0  0  0  0  0  0
  197.8185  187.4902  154.1260 H   0  0  0  0  0  0  0  0  0  0  0  0
  1  2  1  0
  1 17  1  0
  2  3  1  0
  2 15  2  0
  3  4  1  0
  3 26  1  0
  4  5  1  0
  4 27  1  1
  4 28  1  0
  5  6  1  0
  5 10  2  0
  6  7  2  0
  6 29  1  0
  7  8  1  0
  7 30  1  0
  8  9  2  0
  8 11  1  0
  9 10  1  0
  9 31  1  0
 10 32  1  0
 11 12  1  0
 11 33  1  6
 11 34  1  0
 12 13  1  0
 12 14  1  0
 12 47  1  1
 13 35  1  6
 13 36  1  0
 13 37  1  0
 14 38  1  6
 14 39  1  0
 14 40  1  0
 15 16  1  0
 15 41  1  0
 16 17  2  0
 16 42  1  0
 17 18  1  0
 18 19  1  0
 18 25  2  0
 19 20  2  0
 19 43  1  0
 20 21  1  0
 20 44  1  0
 21 22  1  0
 21 24  2  0
 22 23  3  0
 24 25  1  0
 24 45  1  0
 25 46  1  0
M  CHG  1  12   1
M  END
>  <s_epik_cmdline>  (51) 
J2VwaWtfcHl0aG9uJywgJy1waCcsICc3LjAwMDAwMCcsICctcGh0JywgJzIuMDAwMDAwJywgJy1tcycsICcxNicsICctdG4nLCAnOCcsICctbWEnLCAnMjAwJywgJy1pbWFlJywgJzxpbmZpbGUubWFlPicsICctb21hZScsICc8b3V0ZmlsZS5tYWU+Jw==

>  <s_epik_input>  (51) 
TiNDYyhbY0hdW2NIXTEpW2NIXVtjSF1jMS1jKFtjSF1bY0hdMilzYzJbTkhdW0NIMl1jM1tjSF1bY0hdYyhbY0hdW2NIXTMpW0NIMl1OKFtDSDNdKVtDSDNd

>  <s_i_glide_gridfile>  (51) 
ATP-Grid

>  <s_lp_Force_Field>  (51) 
OPLS_2005

>  <s_lp_Variant>  (51) 
WXDL_15E____QS5063____LN00213588____BT4994-1

>  <s_lp_label>  (51) 
631_sdstereoexpander_1_neutralizer_1_epik_1_stereoizer_1

>  <s_m_source_file>  (51) 
ATP-VSW-LIGPREP-002-in.maegz

>  <s_sd_BIOSOLVEIT.INFINISEE\_QUERY\_NAME>  (51) 
Ref-Lig

>  <s_sd_BIOSOLVEIT.INFINISEE\_QUERY\_SMILES>  (51) 
S(c1nc2c(cc1C[NH2+]Cc3ccc(cc3)C[NH+](C)C)cccc2)Cc4ccccc4

>  <s_sd_BIOSOLVEIT.INFINISEE\_REACTION\_NAME>  (51) 
WXDL_15E

>  <s_sd_BIOSOLVEIT.INFINISEE\_REAGENT1\_NAME>  (51) 
QS5063

>  <s_sd_BIOSOLVEIT.INFINISEE\_REAGENT1\_SMILES>  (51) 
O=Cc1ccc(cc1)CN(C)C

>  <s_sd_BIOSOLVEIT.INFINISEE\_REAGENT2\_NAME>  (51) 
LN00213588

>  <s_sd_BIOSOLVEIT.INFINISEE\_REAGENT2\_SMILES>  (51) 
BrC=1SC(NC(=O)OC(C)(C)C)=CC1

>  <s_sd_BIOSOLVEIT.INFINISEE\_REAGENT3\_NAME>  (51) 
BT4994

>  <s_sd_BIOSOLVEIT.INFINISEE\_REAGENT3\_SMILES>  (51) 
O1CC(COB1c2ccc(C#N)cc2)(C)C

>  <s_sd_BIOSOLVEIT.INFINISEE\_SPACE>  (51) 
GalaXi_12bn_2023-03

>  <s_vsw_compound_code>  (51) 
20162

>  <s_vsw_variant>  (51) 
20162-1

>  <r_epik_Charging_Adjusted_Penalty>  (51) 
0.080548725256081297

>  <r_epik_Ionization_Penalty>  (51) 
0.040300000000000002

>  <r_epik_Ionization_Penalty_Charging>  (51) 
0.040300000000000002

>  <r_epik_Ionization_Penalty_Neutral>  (51) 
0.0001

>  <r_epik_State_Penalty>  (51) 
0.040300000000000002

>  <r_i_docking_score>  (51) 
-4.9162973397705603

>  <r_i_glide_ecoul>  (51) 
-8.6942434310913104

>  <r_i_glide_eff_state_penalty>  (51) 
0.040300000000000002

>  <r_i_glide_einternal>  (51) 
2.26065874099731

>  <r_i_glide_emodel>  (51) 
-54.257643553392199

>  <r_i_glide_energy>  (51) 
-38.264906883239703

>  <r_i_glide_erotb>  (51) 
0.78379594833942701

>  <r_i_glide_esite>  (51) 
-0.15119238012651001

>  <r_i_glide_evdw>  (51) 
-29.570663452148398

>  <r_i_glide_gscore>  (51) 
-4.9565973397705596

>  <r_i_glide_hbond>  (51) 
-0.16923178155865101

>  <r_i_glide_ligand_efficiency>  (51) 
-0.196651893590822

>  <r_i_glide_ligand_efficiency_ln>  (51) 
-1.16530979906813

>  <r_i_glide_ligand_efficiency_sa>  (51) 
-0.575013624495748

>  <r_i_glide_lipo>  (51) 
-1.6042458936991699

>  <r_i_glide_metal>  (51) 
-0

>  <r_i_glide_rewards>  (51) 
-1.03305354545454

>  <r_lp_Energy>  (51) 
15.352625

>  <r_qp_ACxDN^.5/SA>  (51) 
0.0065719000000000003

>  <r_qp_CIQPlogS>  (51) 
-5.4480000000000004

>  <r_qp_EA(eV)>  (51) 
0.92300000000000004

>  <r_qp_FISA>  (51) 
94.001000000000005

>  <r_qp_FOSA>  (51) 
226.05099999999999

>  <r_qp_IP(eV)>  (51) 
8.2260000000000009

>  <r_qp_Jm>  (51) 
8.2718620214954606e-05

>  <r_qp_PISA>  (51) 
329.95600000000002

>  <r_qp_PSA>  (51) 
44.082999999999998

>  <r_qp_PercentHumanOralAbsorption>  (51) 
96.278999999999996

>  <r_qp_QPPCaco>  (51) 
317.23899999999998

>  <r_qp_QPPMDCK>  (51) 
245.20599999999999

>  <r_qp_QPlogBB>  (51) 
-0.311

>  <r_qp_QPlogHERG>  (51) 
-7.1849999999999996

>  <r_qp_QPlogKhsa>  (51) 
0.71199999999999997

>  <r_qp_QPlogKp>  (51) 
-3.5760000000000001

>  <r_qp_QPlogPC16>  (51) 
12.757999999999999

>  <r_qp_QPlogPo/w>  (51) 
4.1950000000000003

>  <r_qp_QPlogPoct>  (51) 
18.196000000000002

>  <r_qp_QPlogPw>  (51) 
8.8369999999999997

>  <r_qp_QPlogS>  (51) 
-6.0469999999999997

>  <r_qp_QPpolrz>  (51) 
40.738

>  <r_qp_SASA>  (51) 
684.73699999999997

>  <r_qp_SAamideO>  (51) 
0

>  <r_qp_SAfluorine>  (51) 
0

>  <r_qp_WPSA>  (51) 
34.728999999999999

>  <r_qp_accptHB>  (51) 
4.5

>  <r_qp_dip^2/V>  (51) 
0.067273200000000005

>  <r_qp_dipole>  (51) 
8.9440000000000008

>  <r_qp_donorHB>  (51) 
1

>  <r_qp_glob>  (51) 
0.79278219999999999

>  <r_qp_mol_MW>  (51) 
347.47699999999998

>  <r_qp_volume>  (51) 
1189.239

>  <r_sd_BIOSOLVEIT.INFINISEE\_FTREES\_SIMILARITY>  (51) 
0.91100000000000003

>  <r_sd_BIOSOLVEIT.LOGP>  (51) 
3.54338

>  <r_sd_BIOSOLVEIT.MOLECULAR\_WEIGHT>  (51) 
348.49099999999999

>  <r_sd_BIOSOLVEIT.TPSA>  (51) 
40.259999999999998

>  <i_epik_Tot_Q>  (51) 
1

>  <i_epik_Tot_abs_Q>  (51) 
1

>  <i_f3d_flags>  (51) 
0

>  <i_i_glide_confnum>  (51) 
2

>  <i_i_glide_lignum>  (51) 
180

>  <i_i_glide_posenum>  (51) 
3

>  <i_i_glide_rotatable_bonds>  (51) 
6

>  <i_lp_mmshare_version>  (51) 
65135

>  <i_m_ct_format>  (51) 
2

>  <i_m_source_file_index>  (51) 
631

>  <i_qp_#NandO>  (51) 
3

>  <i_qp_#acid>  (51) 
0

>  <i_qp_#amide>  (51) 
0

>  <i_qp_#amidine>  (51) 
0

>  <i_qp_#amine>  (51) 
1

>  <i_qp_#in34>  (51) 
0

>  <i_qp_#in56>  (51) 
17

>  <i_qp_#metab>  (51) 
5

>  <i_qp_#nonHatm>  (51) 
25

>  <i_qp_#noncon>  (51) 
0

>  <i_qp_#ringatoms>  (51) 
17

>  <i_qp_#rotor>  (51) 
6

>  <i_qp_#rtvFG>  (51) 
0

>  <i_qp_#stars>  (51) 
0

>  <i_qp_CNS>  (51) 
1

>  <i_qp_HumanOralAbsorption>  (51) 
3

>  <i_qp_RuleOfFive>  (51) 
0

>  <i_qp_RuleOfThree>  (51) 
1

>  <i_sd_BIOSOLVEIT.INFINISEE\_RESULT\_RANK>  (51) 
43125

>  <i_sd_version>  (51) 
0

>  <b_lp_Chiralities_Consistent>  (51) 
1

>  <b_sd_chiral_flag>  (51) 
0

>  <canonical_id>  (51) 
ATP-HTVS-086F5E4227DC

>  <compound_code>  (51) 
20162

>  <title>  (51) 
WXDL_15E____QS5063____LN00213588____BT4994

>  <variant>  (51) 
20162-1

>  <source_file>  (51) 
运行/运行/ATP-VSW/ATP-VSW-DOCK_HTVS_1-002_lib.maegz

>  <canonical_smiles>  (51) 
C[NH+](C)Cc1ccc(CNc2ccc(-c3ccc(C#N)cc3)s2)cc1

>  <scaffold>  (51) 
c1ccc(CNc2ccc(-c3ccccc3)s2)cc1

>  <molecular_formula>  (51) 
C21H22N3S+

$$$$
ATP-HTVS-08A6E1F87809
     RDKit          3D

 64 67  0  0  0  0  0  0  0  0999 V2000
  196.8530  182.3207  152.7011 N   0  0  0  0  0  0  0  0  0  0  0  0
  197.1768  183.5020  153.2565 C   0  0  0  0  0  0  0  0  0  0  0  0
  197.6846  184.5088  152.5459 N   0  0  0  0  0  0  0  0  0  0  0  0
  197.8237  184.3972  151.2033 C   0  0  0  0  0  0  0  0  0  0  0  0
  197.4919  183.1802  150.5578 C   0  0  0  0  0  0  0  0  0  0  0  0
  197.0269  182.1255  151.3786 C   0  0  0  0  0  0  0  0  0  0  0  0
  196.7653  180.8461  150.8429 N   0  0  0  0  0  0  0  0  0  0  0  0
  196.4373  179.6883  151.6786 C   0  0  1  0  0  0  0  0  0  0  0  0
  197.3492  179.4537  152.8666 C   0  0  0  0  0  0  0  0  0  0  0  0
  196.9179  179.8149  154.1575 C   0  0  0  0  0  0  0  0  0  0  0  0
  197.7726  179.6972  155.2639 C   0  0  0  0  0  0  0  0  0  0  0  0
  199.0975  179.2970  155.0813 C   0  0  0  0  0  0  0  0  0  0  0  0
  199.5432  178.9495  153.7962 C   0  0  0  0  0  0  0  0  0  0  0  0
  198.6884  179.0182  152.6777 C   0  0  0  0  0  0  0  0  0  0  0  0
  200.0209  179.2190  156.2843 C   0  0  1  0  0  0  0  0  0  0  0  0
  199.9836  177.8987  156.9376 N   0  0  1  0  0  0  0  0  0  0  0  0
  200.0946  176.7737  155.9958 C   0  0  2  0  0  0  0  0  0  0  0  0
  200.9205  177.7910  158.0684 C   0  0  2  0  0  0  0  0  0  0  0  0
  197.6486  183.0861  149.1511 C   0  0  0  0  0  0  0  0  0  0  0  0
  198.1053  184.2005  148.4170 C   0  0  0  0  0  0  0  0  0  0  0  0
  198.4293  185.4008  149.0751 C   0  0  0  0  0  0  0  0  0  0  0  0
  198.2888  185.5025  150.4704 C   0  0  0  0  0  0  0  0  0  0  0  0
  197.0411  183.6961  154.6249 N   0  0  0  0  0  0  0  0  0  0  0  0
  196.8374  182.5466  155.5165 C   0  0  1  0  0  0  0  0  0  0  0  0
  196.9722  182.9305  156.9896 C   0  0  0  0  0  0  0  0  0  0  0  0
  198.2451  183.2191  157.5578 C   0  0  0  0  0  0  0  0  0  0  0  0
  198.3416  183.5227  158.9458 C   0  0  0  0  0  0  0  0  0  0  0  0
  199.5677  183.8255  159.5466 N   0  0  0  0  0  0  0  0  0  0  0  0
  197.1797  183.5571  159.7447 C   0  0  0  0  0  0  0  0  0  0  0  0
  195.9285  183.2281  159.1964 C   0  0  0  0  0  0  0  0  0  0  0  0
  195.8334  182.9091  157.8276 C   0  0  0  0  0  0  0  0  0  0  0  0
  199.5171  183.1523  156.6990 C   0  0  2  0  0  0  0  0  0  0  0  0
  197.0692  180.6537  149.8992 H   0  0  0  0  0  0  0  0  0  0  0  0
  195.4038  179.7808  152.0135 H   0  0  0  0  0  0  0  0  0  0  0  0
  196.4827  178.8048  151.0515 H   0  0  0  0  0  0  0  0  0  0  0  0
  195.9135  180.1880  154.3023 H   0  0  0  0  0  0  0  0  0  0  0  0
  197.3805  179.9609  156.2712 H   0  0  0  0  0  0  0  0  0  0  0  0
  200.5795  178.6323  153.6374 H   0  0  0  0  0  0  0  0  0  0  0  0
  199.0373  178.7845  151.6867 H   0  0  0  0  0  0  0  0  0  0  0  0
  201.0357  179.4625  155.9738 H   0  0  0  0  0  0  0  0  0  0  0  0
  199.7336  179.9731  157.0133 H   0  0  0  0  0  0  0  0  0  0  0  0
  201.0447  176.8122  155.4686 H   0  0  0  0  0  0  0  0  0  0  0  0
  199.2839  176.7511  155.2711 H   0  0  0  0  0  0  0  0  0  0  0  0
  200.0320  175.8270  156.5297 H   0  0  0  0  0  0  0  0  0  0  0  0
  201.9489  177.8761  157.7115 H   0  0  0  0  0  0  0  0  0  0  0  0
  200.7874  176.8292  158.5745 H   0  0  0  0  0  0  0  0  0  0  0  0
  200.7507  178.5836  158.7991 H   0  0  0  0  0  0  0  0  0  0  0  0
  197.4124  182.1783  148.6169 H   0  0  0  0  0  0  0  0  0  0  0  0
  198.2143  184.1307  147.3429 H   0  0  0  0  0  0  0  0  0  0  0  0
  198.7937  186.2432  148.5199 H   0  0  0  0  0  0  0  0  0  0  0  0
  198.5338  186.4201  150.9877 H   0  0  0  0  0  0  0  0  0  0  0  0
  197.2625  184.6233  155.0025 H   0  0  0  0  0  0  0  0  0  0  0  0
  195.8158  182.1432  155.3509 H   0  0  0  0  0  0  0  0  0  0  0  0
  197.6108  181.8204  155.3155 H   0  0  0  0  0  0  0  0  0  0  0  0
  199.6277  184.0582  160.5273 H   0  0  0  0  0  0  0  0  0  0  0  0
  200.4347  183.8035  159.0274 H   0  0  0  0  0  0  0  0  0  0  0  0
  197.2375  183.8216  160.7870 H   0  0  0  0  0  0  0  0  0  0  0  0
  195.0280  183.2442  159.8059 H   0  0  0  0  0  0  0  0  0  0  0  0
  194.8729  182.6291  157.4137 H   0  0  0  0  0  0  0  0  0  0  0  0
  200.3621  183.6843  157.1393 H   0  0  0  0  0  0  0  0  0  0  0  0
  199.3723  183.6098  155.7227 H   0  0  0  0  0  0  0  0  0  0  0  0
  199.8337  182.1214  156.5248 H   0  0  0  0  0  0  0  0  0  0  0  0
  197.9444  185.3899  153.0030 H   0  0  0  0  0  0  0  0  0  0  0  0
  199.0440  177.8326  157.3366 H   0  0  0  0  0  0  0  0  0  0  0  0
  1  2  1  0
  1  6  2  0
  2  3  2  0
  2 23  1  0
  3  4  1  0
  3 63  1  0
  4  5  1  0
  4 22  2  0
  5  6  1  0
  5 19  2  0
  6  7  1  0
  7  8  1  0
  7 33  1  0
  8  9  1  0
  8 34  1  1
  8 35  1  0
  9 10  1  0
  9 14  2  0
 10 11  2  0
 10 36  1  0
 11 12  1  0
 11 37  1  0
 12 13  2  0
 12 15  1  0
 13 14  1  0
 13 38  1  0
 14 39  1  0
 15 16  1  0
 15 40  1  6
 15 41  1  0
 16 17  1  0
 16 18  1  0
 16 64  1  1
 17 42  1  6
 17 43  1  0
 17 44  1  0
 18 45  1  6
 18 46  1  0
 18 47  1  0
 19 20  1  0
 19 48  1  0
 20 21  2  0
 20 49  1  0
 21 22  1  0
 21 50  1  0
 22 51  1  0
 23 24  1  0
 23 52  1  0
 24 25  1  0
 24 53  1  1
 24 54  1  0
 25 26  1  0
 25 31  2  0
 26 27  2  0
 26 32  1  0
 27 28  1  0
 27 29  1  0
 28 55  1  0
 28 56  1  0
 29 30  2  0
 29 57  1  0
 30 31  1  0
 30 58  1  0
 31 59  1  0
 32 60  1  1
 32 61  1  0
 32 62  1  0
M  CHG  2   3   1  16   1
M  END
>  <s_epik_cmdline>  (52) 
J2VwaWtfcHl0aG9uJywgJy1waCcsICc3LjAwMDAwMCcsICctcGh0JywgJzIuMDAwMDAwJywgJy1tcycsICcxNicsICctdG4nLCAnOCcsICctbWEnLCAnMjAwJywgJy1pbWFlJywgJzxpbmZpbGUubWFlPicsICctb21hZScsICc8b3V0ZmlsZS5tYWU+Jw==

>  <s_epik_input>  (52) 
W2NIXTFbY0hdW2NIXWMoW05IMl0pYyhbQ0gzXSljMVtDSDJdW05IXWMobjIpbmMoYyhjMjMpW2NIXVtjSF1bY0hdW2NIXTMpW05IXVtDSDJdYzRbY0hdW2NIXWMoW2NIXVtjSF00KVtDSDJdTihbQ0gzXSlbQ0gzXQ==

>  <s_i_glide_gridfile>  (52) 
ATP-Grid

>  <s_lp_Force_Field>  (52) 
OPLS_2005

>  <s_lp_Variant>  (52) 
m_282030aaa____21929760____22360182____21961622-1

>  <s_lp_label>  (52) 
1924_sdstereoexpander_1_neutralizer_1_epik_1_stereoizer_1

>  <s_m_source_file>  (52) 
ATP-VSW-LIGPREP-002-in.maegz

>  <s_sd_BIOSOLVEIT.INFINISEE\_QUERY\_NAME>  (52) 
Ref-Lig

>  <s_sd_BIOSOLVEIT.INFINISEE\_QUERY\_SMILES>  (52) 
S(c1nc2c(cc1C[NH2+]Cc3ccc(cc3)C[NH+](C)C)cccc2)Cc4ccccc4

>  <s_sd_BIOSOLVEIT.INFINISEE\_REACTION\_NAME>  (52) 
m_282030aaa

>  <s_sd_BIOSOLVEIT.INFINISEE\_REAGENT1\_SMILES>  (52) 
[R1*]NCc1ccc(cc1)CN(C)C

>  <s_sd_BIOSOLVEIT.INFINISEE\_REAGENT2\_SMILES>  (52) 
[R2*]c1nc([R1*])c2c(n1)cccc2

>  <s_sd_BIOSOLVEIT.INFINISEE\_REAGENT3\_SMILES>  (52) 
[R2*]NCc1c(c(N)ccc1)C

>  <s_sd_BIOSOLVEIT.INFINISEE\_SPACE>  (52) 
REALSpace_44bn_2023-08

>  <s_vsw_compound_code>  (52) 
61538

>  <s_vsw_variant>  (52) 
61538-1

>  <r_epik_Charging_Adjusted_Penalty>  (52) 
0.110782188572458

>  <r_epik_Ionization_Penalty>  (52) 
0.057599999999999998

>  <r_epik_Ionization_Penalty_Charging>  (52) 
0.055899999999999998

>  <r_epik_Ionization_Penalty_Neutral>  (52) 
0.0016999999999999999

>  <r_epik_State_Penalty>  (52) 
0.054899999999999997

>  <r_i_docking_score>  (52) 
-4.1800336977435402

>  <r_i_glide_ecoul>  (52) 
-6.1861138343811

>  <r_i_glide_eff_state_penalty>  (52) 
0.054899999999999997

>  <r_i_glide_einternal>  (52) 
2.0230486392974898

>  <r_i_glide_emodel>  (52) 
-56.382920881429001

>  <r_i_glide_energy>  (52) 
-38.899923801422098

>  <r_i_glide_erotb>  (52) 
0.75706870877358701

>  <r_i_glide_esite>  (52) 
-0.158807693389313

>  <r_i_glide_evdw>  (52) 
-32.713809967041001

>  <r_i_glide_gscore>  (52) 
-4.2349336977435401

>  <r_i_glide_hbond>  (52) 
-0.20000000000000001

>  <r_i_glide_ligand_efficiency>  (52) 
-0.13062605305448599

>  <r_i_glide_ligand_efficiency_ln>  (52) 
-0.93602348833994697

>  <r_i_glide_ligand_efficiency_sa>  (52) 
-0.41471186758719503

>  <r_i_glide_lipo>  (52) 
-1.5825813214367801

>  <r_i_glide_metal>  (52) 
-0

>  <r_i_glide_rewards>  (52) 
-0.48700581818181699

>  <r_lp_Energy>  (52) 
14.982715000000001

>  <r_qp_ACxDN^.5/SA>  (52) 
0.0151483

>  <r_qp_CIQPlogS>  (52) 
-5.5439999999999996

>  <r_qp_EA(eV)>  (52) 
0.57199999999999995

>  <r_qp_FISA>  (52) 
92.781000000000006

>  <r_qp_FOSA>  (52) 
265.12400000000002

>  <r_qp_IP(eV)>  (52) 
7.9219999999999997

>  <r_qp_Jm>  (52) 
0.010232808079180301

>  <r_qp_PISA>  (52) 
383.09899999999999

>  <r_qp_PSA>  (52) 
71.254999999999995

>  <r_qp_PercentHumanOralAbsorption>  (52) 
100

>  <r_qp_QPPCaco>  (52) 
325.803

>  <r_qp_QPPMDCK>  (52) 
162.851

>  <r_qp_QPlogBB>  (52) 
-0.51400000000000001

>  <r_qp_QPlogHERG>  (52) 
-7.0990000000000002

>  <r_qp_QPlogKhsa>  (52) 
0.68300000000000005

>  <r_qp_QPlogKp>  (52) 
-3.0779999999999998

>  <r_qp_QPlogPC16>  (52) 
15.297000000000001

>  <r_qp_QPlogPo/w>  (52) 
4.3579999999999997

>  <r_qp_QPlogPoct>  (52) 
24.202999999999999

>  <r_qp_QPlogPw>  (52) 
13.789999999999999

>  <r_qp_QPlogS>  (52) 
-4.5419999999999998

>  <r_qp_QPpolrz>  (52) 
47.445

>  <r_qp_SASA>  (52) 
741.00400000000002

>  <r_qp_SAamideO>  (52) 
0

>  <r_qp_SAfluorine>  (52) 
0

>  <r_qp_WPSA>  (52) 
0

>  <r_qp_accptHB>  (52) 
6

>  <r_qp_dip^2/V>  (52) 
0.0123759

>  <r_qp_dipole>  (52) 
4.1509999999999998

>  <r_qp_donorHB>  (52) 
3.5

>  <r_qp_glob>  (52) 
0.81375960000000003

>  <r_qp_mol_MW>  (52) 
426.56299999999999

>  <r_qp_volume>  (52) 
1392.2840000000001

>  <r_sd_BIOSOLVEIT.INFINISEE\_FTREES\_SIMILARITY>  (52) 
0.90300000000000002

>  <r_sd_BIOSOLVEIT.LOGP>  (52) 
3.3891200000000001

>  <r_sd_BIOSOLVEIT.MOLECULAR\_WEIGHT>  (52) 
427.57299999999998

>  <r_sd_BIOSOLVEIT.TPSA>  (52) 
80.299999999999997

>  <i_epik_Tot_Q>  (52) 
2

>  <i_epik_Tot_abs_Q>  (52) 
2

>  <i_f3d_flags>  (52) 
0

>  <i_i_glide_confnum>  (52) 
4

>  <i_i_glide_lignum>  (52) 
692

>  <i_i_glide_posenum>  (52) 
18

>  <i_i_glide_rotatable_bonds>  (52) 
8

>  <i_lp_mmshare_version>  (52) 
65135

>  <i_m_ct_format>  (52) 
2

>  <i_m_source_file_index>  (52) 
1924

>  <i_qp_#NandO>  (52) 
6

>  <i_qp_#acid>  (52) 
0

>  <i_qp_#amide>  (52) 
0

>  <i_qp_#amidine>  (52) 
0

>  <i_qp_#amine>  (52) 
1

>  <i_qp_#in34>  (52) 
0

>  <i_qp_#in56>  (52) 
22

>  <i_qp_#metab>  (52) 
8

>  <i_qp_#nonHatm>  (52) 
32

>  <i_qp_#noncon>  (52) 
0

>  <i_qp_#ringatoms>  (52) 
22

>  <i_qp_#rotor>  (52) 
9

>  <i_qp_#rtvFG>  (52) 
0

>  <i_qp_#stars>  (52) 
0

>  <i_qp_CNS>  (52) 
0

>  <i_qp_HumanOralAbsorption>  (52) 
3

>  <i_qp_RuleOfFive>  (52) 
0

>  <i_qp_RuleOfThree>  (52) 
1

>  <i_sd_BIOSOLVEIT.INFINISEE\_REAGENT1\_NAME>  (52) 
21929760

>  <i_sd_BIOSOLVEIT.INFINISEE\_REAGENT2\_NAME>  (52) 
22360182

>  <i_sd_BIOSOLVEIT.INFINISEE\_REAGENT3\_NAME>  (52) 
21961622

>  <i_sd_BIOSOLVEIT.INFINISEE\_RESULT\_RANK>  (52) 
86012

>  <i_sd_version>  (52) 
0

>  <b_lp_Chiralities_Consistent>  (52) 
1

>  <b_sd_chiral_flag>  (52) 
0

>  <canonical_id>  (52) 
ATP-HTVS-08A6E1F87809

>  <compound_code>  (52) 
61538

>  <title>  (52) 
m_282030aaa____21929760____22360182____21961622

>  <variant>  (52) 
61538-1

>  <source_file>  (52) 
运行/运行/ATP-VSW/ATP-VSW-DOCK_HTVS_1-002_lib.maegz

>  <canonical_smiles>  (52) 
Cc1c(N)cccc1CNc1nc(NCc2ccc(C[NH+](C)C)cc2)c2ccccc2[nH+]1

>  <scaffold>  (52) 
c1ccc(CNc2nc(NCc3ccccc3)c3ccccc3[nH+]2)cc1

>  <molecular_formula>  (52) 
C26H32N6+2

$$$$
ATP-HTVS-093491EAEBEC
     RDKit          3D

 61 64  0  0  0  0  0  0  0  0999 V2000
  202.3925  184.7012  156.3487 Cl  0  0  0  0  0  0  0  0  0  0  0  0
  200.8740  185.4836  156.1072 C   0  0  0  0  0  0  0  0  0  0  0  0
  199.8800  185.4911  157.1174 C   0  0  0  0  0  0  0  0  0  0  0  0
  198.6686  186.1840  156.8818 C   0  0  0  0  0  0  0  0  0  0  0  0
  198.4242  186.8007  155.6464 C   0  0  0  0  0  0  0  0  0  0  0  0
  199.4048  186.7744  154.6407 C   0  0  0  0  0  0  0  0  0  0  0  0
  199.1491  187.4019  153.4221 N   0  0  0  0  0  0  0  0  0  0  0  0
  200.6315  186.1225  154.8736 C   0  0  0  0  0  0  0  0  0  0  0  0
  200.1243  184.7697  158.4461 C   0  0  1  0  0  0  0  0  0  0  0  0
  198.9440  184.3960  159.2264 N   0  0  0  0  0  0  0  0  0  0  0  0
  197.9152  183.6555  158.6182 C   0  0  0  0  0  0  0  0  0  0  0  0
  198.2496  182.7292  157.6982 N   0  0  0  0  0  0  0  0  0  0  0  0
  197.2876  182.0259  157.0910 C   0  0  0  0  0  0  0  0  0  0  0  0
  195.9948  182.2027  157.3625 N   0  0  0  0  0  0  0  0  0  0  0  0
  195.6055  183.1086  158.2760 C   0  0  0  0  0  0  0  0  0  0  0  0
  196.5655  183.9023  158.9455 C   0  0  0  0  0  0  0  0  0  0  0  0
  196.1334  184.8848  159.8675 C   0  0  0  0  0  0  0  0  0  0  0  0
  194.7580  185.0432  160.1256 C   0  0  0  0  0  0  0  0  0  0  0  0
  193.8109  184.2321  159.4608 C   0  0  0  0  0  0  0  0  0  0  0  0
  194.2370  183.2754  158.5327 C   0  0  0  0  0  0  0  0  0  0  0  0
  197.6290  181.0762  156.1429 N   0  0  0  0  0  0  0  0  0  0  0  0
  199.0153  180.7321  155.8398 C   0  0  1  0  0  0  0  0  0  0  0  0
  199.2250  179.8623  154.5999 C   0  0  0  0  0  0  0  0  0  0  0  0
  200.1963  178.8245  154.5661 C   0  0  0  0  0  0  0  0  0  0  0  0
  200.3663  178.0608  153.3869 C   0  0  0  0  0  0  0  0  0  0  0  0
  199.6028  178.3314  152.2394 C   0  0  0  0  0  0  0  0  0  0  0  0
  199.7786  177.5970  151.1187 F   0  0  0  0  0  0  0  0  0  0  0  0
  198.6560  179.3683  152.2615 C   0  0  0  0  0  0  0  0  0  0  0  0
  198.4719  180.1306  153.4323 C   0  0  0  0  0  0  0  0  0  0  0  0
  201.0656  178.4866  155.7764 C   0  0  1  0  0  0  0  0  0  0  0  0
  200.3134  177.8196  156.8731 N   0  0  1  0  0  0  0  0  0  0  0  0
  199.5322  176.6501  156.4252 C   0  0  2  0  0  0  0  0  0  0  0  0
  201.1739  177.5049  158.0288 C   0  0  2  0  0  0  0  0  0  0  0  0
  197.8967  186.2461  157.6335 H   0  0  0  0  0  0  0  0  0  0  0  0
  197.4774  187.2881  155.4755 H   0  0  0  0  0  0  0  0  0  0  0  0
  199.8066  187.3726  152.6565 H   0  0  0  0  0  0  0  0  0  0  0  0
  198.2376  187.8093  153.2371 H   0  0  0  0  0  0  0  0  0  0  0  0
  201.3900  186.1073  154.1051 H   0  0  0  0  0  0  0  0  0  0  0  0
  200.7072  183.8609  158.2865 H   0  0  0  0  0  0  0  0  0  0  0  0
  200.7341  185.4266  159.0712 H   0  0  0  0  0  0  0  0  0  0  0  0
  198.6578  185.0786  159.9083 H   0  0  0  0  0  0  0  0  0  0  0  0
  196.8297  185.5299  160.3763 H   0  0  0  0  0  0  0  0  0  0  0  0
  194.4177  185.7912  160.8306 H   0  0  0  0  0  0  0  0  0  0  0  0
  192.7552  184.3644  159.6684 H   0  0  0  0  0  0  0  0  0  0  0  0
  193.5095  182.6687  158.0077 H   0  0  0  0  0  0  0  0  0  0  0  0
  196.9030  180.4280  155.8731 H   0  0  0  0  0  0  0  0  0  0  0  0
  199.6006  181.6417  155.7049 H   0  0  0  0  0  0  0  0  0  0  0  0
  199.4067  180.2556  156.7326 H   0  0  0  0  0  0  0  0  0  0  0  0
  201.0920  177.2608  153.3467 H   0  0  0  0  0  0  0  0  0  0  0  0
  198.0857  179.5870  151.3694 H   0  0  0  0  0  0  0  0  0  0  0  0
  197.7499  180.9344  153.4224 H   0  0  0  0  0  0  0  0  0  0  0  0
  201.8848  177.8356  155.4593 H   0  0  0  0  0  0  0  0  0  0  0  0
  201.5379  179.3992  156.1416 H   0  0  0  0  0  0  0  0  0  0  0  0
  200.1678  175.8696  155.9985 H   0  0  0  0  0  0  0  0  0  0  0  0
  198.7928  176.9594  155.6862 H   0  0  0  0  0  0  0  0  0  0  0  0
  198.9737  176.2410  157.2621 H   0  0  0  0  0  0  0  0  0  0  0  0
  201.9391  176.7887  157.7304 H   0  0  0  0  0  0  0  0  0  0  0  0
  200.5896  177.0789  158.8436 H   0  0  0  0  0  0  0  0  0  0  0  0
  201.6683  178.4011  158.4005 H   0  0  0  0  0  0  0  0  0  0  0  0
  195.2665  181.6514  156.8955 H   0  0  0  0  0  0  0  0  0  0  0  0
  199.6126  178.4651  157.2112 H   0  0  0  0  0  0  0  0  0  0  0  0
  1  2  1  0
  2  3  2  0
  2  8  1  0
  3  4  1  0
  3  9  1  0
  4  5  2  0
  4 34  1  0
  5  6  1  0
  5 35  1  0
  6  7  1  0
  6  8  2  0
  7 36  1  0
  7 37  1  0
  8 38  1  0
  9 10  1  0
  9 39  1  6
  9 40  1  0
 10 11  1  0
 10 41  1  0
 11 12  2  0
 11 16  1  0
 12 13  1  0
 13 14  2  0
 13 21  1  0
 14 15  1  0
 14 60  1  0
 15 16  1  0
 15 20  2  0
 16 17  2  0
 17 18  1  0
 17 42  1  0
 18 19  2  0
 18 43  1  0
 19 20  1  0
 19 44  1  0
 20 45  1  0
 21 22  1  0
 21 46  1  0
 22 23  1  0
 22 47  1  6
 22 48  1  0
 23 24  2  0
 23 29  1  0
 24 25  1  0
 24 30  1  0
 25 26  2  0
 25 49  1  0
 26 27  1  0
 26 28  1  0
 28 29  2  0
 28 50  1  0
 29 51  1  0
 30 31  1  0
 30 52  1  6
 30 53  1  0
 31 32  1  0
 31 33  1  0
 31 61  1  1
 32 54  1  6
 32 55  1  0
 32 56  1  0
 33 57  1  6
 33 58  1  0
 33 59  1  0
M  CHG  2  14   1  31   1
M  END
>  <s_epik_cmdline>  (53) 
J2VwaWtfcHl0aG9uJywgJy1waCcsICc3LjAwMDAwMCcsICctcGh0JywgJzIuMDAwMDAwJywgJy1tcycsICcxNicsICctdG4nLCAnOCcsICctbWEnLCAnMjAwJywgJy1pbWFlJywgJzxpbmZpbGUubWFlPicsICctb21hZScsICc8b3V0ZmlsZS5tYWU+Jw==

>  <s_epik_input>  (53) 
W05IMl1jKFtjSF0xKVtjSF1bY0hdYyhjMUNsKVtDSDJdW05IXWMoYyhjMjMpW2NIXVtjSF1bY0hdW2NIXTMpbmMobjIpW05IXVtDSDJdYzRjKFtDSDJdTihbQ0gzXSlbQ0gzXSlbY0hdYyhGKVtjSF1bY0hdNA==

>  <s_i_glide_gridfile>  (53) 
ATP-Grid

>  <s_lp_Force_Field>  (53) 
OPLS_2005

>  <s_lp_Variant>  (53) 
m_282030aaa____21896940____22360182____21941646-1

>  <s_lp_label>  (53) 
1665_sdstereoexpander_1_neutralizer_1_epik_1_stereoizer_1

>  <s_m_source_file>  (53) 
ATP-VSW-LIGPREP-002-in.maegz

>  <s_sd_BIOSOLVEIT.INFINISEE\_QUERY\_NAME>  (53) 
Ref-Lig

>  <s_sd_BIOSOLVEIT.INFINISEE\_QUERY\_SMILES>  (53) 
S(c1nc2c(cc1C[NH2+]Cc3ccc(cc3)C[NH+](C)C)cccc2)Cc4ccccc4

>  <s_sd_BIOSOLVEIT.INFINISEE\_REACTION\_NAME>  (53) 
m_282030aaa

>  <s_sd_BIOSOLVEIT.INFINISEE\_REAGENT1\_SMILES>  (53) 
[R1*]NCc1c(cc(F)cc1)CN(C)C

>  <s_sd_BIOSOLVEIT.INFINISEE\_REAGENT2\_SMILES>  (53) 
[R2*]c1nc([R1*])c2c(n1)cccc2

>  <s_sd_BIOSOLVEIT.INFINISEE\_REAGENT3\_SMILES>  (53) 
[R2*]NCc1c(Cl)cc(N)cc1

>  <s_sd_BIOSOLVEIT.INFINISEE\_SPACE>  (53) 
REALSpace_44bn_2023-08

>  <s_vsw_compound_code>  (53) 
53250

>  <s_vsw_variant>  (53) 
53250-1

>  <r_epik_Charging_Adjusted_Penalty>  (53) 
0.12738307559180001

>  <r_epik_Ionization_Penalty>  (53) 
0.062899999999999998

>  <r_epik_Ionization_Penalty_Charging>  (53) 
0.0613

>  <r_epik_Ionization_Penalty_Neutral>  (53) 
0.0016999999999999999

>  <r_epik_State_Penalty>  (53) 
0.066100000000000006

>  <r_i_docking_score>  (53) 
-3.7803039824093498

>  <r_i_glide_ecoul>  (53) 
-6.1091547012329102

>  <r_i_glide_eff_state_penalty>  (53) 
0.066100000000000006

>  <r_i_glide_einternal>  (53) 
2.2512466907501198

>  <r_i_glide_emodel>  (53) 
-50.494534834797697

>  <r_i_glide_energy>  (53) 
-35.128050804138198

>  <r_i_glide_erotb>  (53) 
0.64773326217041804

>  <r_i_glide_esite>  (53) 
-0.26487432035303299

>  <r_i_glide_evdw>  (53) 
-29.018896102905298

>  <r_i_glide_gscore>  (53) 
-3.8464039824093499

>  <r_i_glide_hbond>  (53) 
-0.23398005511543099

>  <r_i_glide_ligand_efficiency>  (53) 
-0.11455466613361701

>  <r_i_glide_ligand_efficiency_ln>  (53) 
-0.84072003232136105

>  <r_i_glide_ligand_efficiency_sa>  (53) 
-0.36743802385653501

>  <r_i_glide_lipo>  (53) 
-1.1407871007025501

>  <r_i_glide_metal>  (53) 
-0

>  <r_i_glide_rewards>  (53) 
-0.48717775807855201

>  <r_lp_Energy>  (53) 
23.333652000000001

>  <r_qp_ACxDN^.5/SA>  (53) 
0.015642900000000001

>  <r_qp_CIQPlogS>  (53) 
-6.306

>  <r_qp_EA(eV)>  (53) 
0.53600000000000003

>  <r_qp_FISA>  (53) 
104.31399999999999

>  <r_qp_FOSA>  (53) 
168.60900000000001

>  <r_qp_IP(eV)>  (53) 
8.0009999999999994

>  <r_qp_Jm>  (53) 
0.0045995961901612098

>  <r_qp_PISA>  (53) 
345.24200000000002

>  <r_qp_PSA>  (53) 
71.745000000000005

>  <r_qp_PercentHumanOralAbsorption>  (53) 
96.888999999999996

>  <r_qp_QPPCaco>  (53) 
253.27199999999999

>  <r_qp_QPPMDCK>  (53) 
434.65899999999999

>  <r_qp_QPlogBB>  (53) 
-0.32700000000000001

>  <r_qp_QPlogHERG>  (53) 
-6.5250000000000004

>  <r_qp_QPlogKhsa>  (53) 
0.68799999999999994

>  <r_qp_QPlogKp>  (53) 
-3.4239999999999999

>  <r_qp_QPlogPC16>  (53) 
15.069000000000001

>  <r_qp_QPlogPo/w>  (53) 
4.5979999999999999

>  <r_qp_QPlogPoct>  (53) 
24.789999999999999

>  <r_qp_QPlogPw>  (53) 
13.59

>  <r_qp_QPlogS>  (53) 
-4.5800000000000001

>  <r_qp_QPpolrz>  (53) 
46.856999999999999

>  <r_qp_SASA>  (53) 
717.57600000000002

>  <r_qp_SAamideO>  (53) 
0

>  <r_qp_SAfluorine>  (53) 
46.979999999999997

>  <r_qp_WPSA>  (53) 
99.411000000000001

>  <r_qp_accptHB>  (53) 
6

>  <r_qp_dip^2/V>  (53) 
0.026935799999999999

>  <r_qp_dipole>  (53) 
6.1109999999999998

>  <r_qp_donorHB>  (53) 
3.5

>  <r_qp_glob>  (53) 
0.83805160000000001

>  <r_qp_mol_MW>  (53) 
464.97199999999998

>  <r_qp_volume>  (53) 
1386.6310000000001

>  <r_sd_BIOSOLVEIT.INFINISEE\_FTREES\_SIMILARITY>  (53) 
0.90500000000000003

>  <r_sd_BIOSOLVEIT.LOGP>  (53) 
3.8732000000000002

>  <r_sd_BIOSOLVEIT.MOLECULAR\_WEIGHT>  (53) 
465.98099999999999

>  <r_sd_BIOSOLVEIT.TPSA>  (53) 
80.299999999999997

>  <i_epik_Tot_Q>  (53) 
2

>  <i_epik_Tot_abs_Q>  (53) 
2

>  <i_f3d_flags>  (53) 
0

>  <i_i_glide_confnum>  (53) 
2

>  <i_i_glide_lignum>  (53) 
583

>  <i_i_glide_posenum>  (53) 
10

>  <i_i_glide_rotatable_bonds>  (53) 
8

>  <i_lp_mmshare_version>  (53) 
65135

>  <i_m_ct_format>  (53) 
2

>  <i_m_source_file_index>  (53) 
1665

>  <i_qp_#NandO>  (53) 
6

>  <i_qp_#acid>  (53) 
0

>  <i_qp_#amide>  (53) 
0

>  <i_qp_#amidine>  (53) 
0

>  <i_qp_#amine>  (53) 
1

>  <i_qp_#in34>  (53) 
0

>  <i_qp_#in56>  (53) 
22

>  <i_qp_#metab>  (53) 
5

>  <i_qp_#nonHatm>  (53) 
33

>  <i_qp_#noncon>  (53) 
0

>  <i_qp_#ringatoms>  (53) 
22

>  <i_qp_#rotor>  (53) 
9

>  <i_qp_#rtvFG>  (53) 
0

>  <i_qp_#stars>  (53) 
0

>  <i_qp_CNS>  (53) 
0

>  <i_qp_HumanOralAbsorption>  (53) 
3

>  <i_qp_RuleOfFive>  (53) 
0

>  <i_qp_RuleOfThree>  (53) 
0

>  <i_sd_BIOSOLVEIT.INFINISEE\_REAGENT1\_NAME>  (53) 
21896940

>  <i_sd_BIOSOLVEIT.INFINISEE\_REAGENT2\_NAME>  (53) 
22360182

>  <i_sd_BIOSOLVEIT.INFINISEE\_REAGENT3\_NAME>  (53) 
21941646

>  <i_sd_BIOSOLVEIT.INFINISEE\_RESULT\_RANK>  (53) 
69669

>  <i_sd_version>  (53) 
0

>  <b_lp_Chiralities_Consistent>  (53) 
1

>  <b_sd_chiral_flag>  (53) 
0

>  <canonical_id>  (53) 
ATP-HTVS-093491EAEBEC

>  <compound_code>  (53) 
53250

>  <title>  (53) 
m_282030aaa____21896940____22360182____21941646

>  <variant>  (53) 
53250-1

>  <source_file>  (53) 
运行/运行/ATP-VSW/ATP-VSW-DOCK_HTVS_1-002_lib.maegz

>  <canonical_smiles>  (53) 
C[NH+](C)Cc1cc(F)ccc1CNc1nc(NCc2ccc(N)cc2Cl)c2ccccc2[nH+]1

>  <scaffold>  (53) 
c1ccc(CNc2nc(NCc3ccccc3)c3ccccc3[nH+]2)cc1

>  <molecular_formula>  (53) 
C25H28ClFN6+2

$$$$
ATP-HTVS-09A5DA8CBD66
     RDKit          3D

 74 77  0  0  0  0  0  0  0  0999 V2000
  198.0588  182.7716  154.8783 N   0  0  0  0  0  0  0  0  0  0  0  0
  197.4916  183.7502  154.1754 C   0  0  0  0  0  0  0  0  0  0  0  0
  197.1695  184.9376  154.7065 N   0  0  0  0  0  0  0  0  0  0  0  0
  197.3948  185.1629  156.0189 C   0  0  0  0  0  0  0  0  0  0  0  0
  197.9590  184.1568  156.8313 C   0  0  0  0  0  0  0  0  0  0  0  0
  198.2821  182.9368  156.1980 C   0  0  0  0  0  0  0  0  0  0  0  0
  198.8495  181.8641  156.9176 N   0  0  0  0  0  0  0  0  0  0  0  0
  198.6459  180.4845  156.4583 C   0  0  1  0  0  0  0  0  0  0  0  0
  199.8488  179.5616  156.7804 C   0  0  1  0  0  0  0  0  0  0  0  0
  199.5335  178.1100  156.5290 N   0  0  1  0  0  0  0  0  0  0  0  0
  199.2719  177.7458  155.1282 C   0  0  2  0  0  0  0  0  0  0  0  0
  200.5576  177.1925  157.1156 C   0  0  2  0  0  0  0  0  0  0  0  0
  201.1272  180.0398  156.0908 C   0  0  0  0  0  0  0  0  0  0  0  0
  201.1668  180.2510  154.6866 C   0  0  0  0  0  0  0  0  0  0  0  0
  202.3534  180.5907  154.0407 C   0  0  0  0  0  0  0  0  0  0  0  0
  203.5325  180.7994  154.7902 C   0  0  0  0  0  0  0  0  0  0  0  0
  203.4975  180.6488  156.1909 C   0  0  0  0  0  0  0  0  0  0  0  0
  202.3081  180.2656  156.8399 C   0  0  0  0  0  0  0  0  0  0  0  0
  198.1564  184.4094  158.2133 C   0  0  0  0  0  0  0  0  0  0  0  0
  197.7890  185.6553  158.7619 C   0  0  0  0  0  0  0  0  0  0  0  0
  197.2273  186.6534  157.9431 C   0  0  0  0  0  0  0  0  0  0  0  0
  197.0373  186.4128  156.5691 C   0  0  0  0  0  0  0  0  0  0  0  0
  197.2092  183.5521  152.8330 N   0  0  0  0  0  0  0  0  0  0  0  0
  197.6727  182.4093  152.0529 C   0  0  1  0  0  0  0  0  0  0  0  0
  196.7349  181.1999  152.1794 C   0  0  1  0  0  0  0  0  0  0  0  0
  197.1890  180.0259  151.3341 C   0  0  0  0  0  0  0  0  0  0  0  0
  196.7035  179.8776  150.0081 C   0  0  0  0  0  0  0  0  0  0  0  0
  197.0251  178.7509  149.2526 C   0  0  0  0  0  0  0  0  0  0  0  0
  197.9370  177.7829  149.7470 C   0  0  0  0  0  0  0  0  0  0  0  0
  198.4237  177.9284  151.0775 C   0  0  0  0  0  0  0  0  0  0  0  0
  198.0452  179.0398  151.8585 C   0  0  0  0  0  0  0  0  0  0  0  0
  198.3491  176.5917  148.8824 C   0  0  1  0  0  0  0  0  0  0  0  0
  199.1746  176.9704  147.6950 N   0  0  2  0  0  0  0  0  0  0  0  0
  198.4327  177.7021  146.6221 C   0  0  2  0  0  0  0  0  0  0  0  0
  199.9274  175.8143  147.1415 C   0  0  2  0  0  0  0  0  0  0  0  0
  198.9082  181.9983  157.9109 H   0  0  0  0  0  0  0  0  0  0  0  0
  197.7343  180.1136  156.9253 H   0  0  0  0  0  0  0  0  0  0  0  0
  198.4774  180.4377  155.3843 H   0  0  0  0  0  0  0  0  0  0  0  0
  200.0193  179.6252  157.8500 H   0  0  0  0  0  0  0  0  0  0  0  0
  200.1435  177.8899  154.4715 H   0  0  0  0  0  0  0  0  0  0  0  0
  198.4280  178.3449  154.7823 H   0  0  0  0  0  0  0  0  0  0  0  0
  199.0026  176.6902  155.0151 H   0  0  0  0  0  0  0  0  0  0  0  0
  201.5543  177.3801  156.7165 H   0  0  0  0  0  0  0  0  0  0  0  0
  200.3070  176.1646  156.8647 H   0  0  0  0  0  0  0  0  0  0  0  0
  200.5849  177.2790  158.1964 H   0  0  0  0  0  0  0  0  0  0  0  0
  200.2767  180.1242  154.0828 H   0  0  0  0  0  0  0  0  0  0  0  0
  202.3734  180.6746  152.9602 H   0  0  0  0  0  0  0  0  0  0  0  0
  204.4489  181.0696  154.2863 H   0  0  0  0  0  0  0  0  0  0  0  0
  204.3972  180.8151  156.7695 H   0  0  0  0  0  0  0  0  0  0  0  0
  202.3109  180.1261  157.9147 H   0  0  0  0  0  0  0  0  0  0  0  0
  198.5878  183.6666  158.8652 H   0  0  0  0  0  0  0  0  0  0  0  0
  197.9368  185.8483  159.8162 H   0  0  0  0  0  0  0  0  0  0  0  0
  196.9328  187.6018  158.3728 H   0  0  0  0  0  0  0  0  0  0  0  0
  196.5892  187.1696  155.9457 H   0  0  0  0  0  0  0  0  0  0  0  0
  196.6467  184.2452  152.3674 H   0  0  0  0  0  0  0  0  0  0  0  0
  197.7407  182.7135  151.0079 H   0  0  0  0  0  0  0  0  0  0  0  0
  198.6845  182.1302  152.3477 H   0  0  0  0  0  0  0  0  0  0  0  0
  196.6502  180.8798  153.2197 H   0  0  0  0  0  0  0  0  0  0  0  0
  195.7298  181.4867  151.8669 H   0  0  0  0  0  0  0  0  0  0  0  0
  196.0617  180.6436  149.5993 H   0  0  0  0  0  0  0  0  0  0  0  0
  196.5677  178.6251  148.2759 H   0  0  0  0  0  0  0  0  0  0  0  0
  199.0583  177.1685  151.5153 H   0  0  0  0  0  0  0  0  0  0  0  0
  198.3813  179.1370  152.8804 H   0  0  0  0  0  0  0  0  0  0  0  0
  198.9184  175.9066  149.5082 H   0  0  0  0  0  0  0  0  0  0  0  0
  197.4684  176.0260  148.5749 H   0  0  0  0  0  0  0  0  0  0  0  0
  197.5823  177.0868  146.2910 H   0  0  0  0  0  0  0  0  0  0  0  0
  199.0822  177.8232  145.7331 H   0  0  0  0  0  0  0  0  0  0  0  0
  198.0669  178.6561  146.9456 H   0  0  0  0  0  0  0  0  0  0  0  0
  199.2437  175.0368  146.8029 H   0  0  0  0  0  0  0  0  0  0  0  0
  200.6145  175.3752  147.8653 H   0  0  0  0  0  0  0  0  0  0  0  0
  200.5157  176.1372  146.2811 H   0  0  0  0  0  0  0  0  0  0  0  0
  196.7399  185.6759  154.1493 H   0  0  0  0  0  0  0  0  0  0  0  0
  199.8774  177.6049  148.0390 H   0  0  0  0  0  0  0  0  0  0  0  0
  198.6914  177.9311  157.0645 H   0  0  0  0  0  0  0  0  0  0  0  0
  1  2  1  0
  1  6  2  0
  2  3  2  0
  2 23  1  0
  3  4  1  0
  3 72  1  0
  4  5  1  0
  4 22  2  0
  5  6  1  0
  5 19  2  0
  6  7  1  0
  7  8  1  0
  7 36  1  0
  8  9  1  0
  8 37  1  1
  8 38  1  0
  9 10  1  0
  9 13  1  0
  9 39  1  1
 10 11  1  0
 10 12  1  0
 10 74  1  1
 11 40  1  6
 11 41  1  0
 11 42  1  0
 12 43  1  6
 12 44  1  0
 12 45  1  0
 13 14  2  0
 13 18  1  0
 14 15  1  0
 14 46  1  0
 15 16  2  0
 15 47  1  0
 16 17  1  0
 16 48  1  0
 17 18  2  0
 17 49  1  0
 18 50  1  0
 19 20  1  0
 19 51  1  0
 20 21  2  0
 20 52  1  0
 21 22  1  0
 21 53  1  0
 22 54  1  0
 23 24  1  0
 23 55  1  0
 24 25  1  0
 24 56  1  6
 24 57  1  0
 25 26  1  0
 25 58  1  1
 25 59  1  0
 26 27  1  0
 26 31  2  0
 27 28  2  0
 27 60  1  0
 28 29  1  0
 28 61  1  0
 29 30  2  0
 29 32  1  0
 30 31  1  0
 30 62  1  0
 31 63  1  0
 32 33  1  0
 32 64  1  1
 32 65  1  0
 33 34  1  0
 33 35  1  0
 33 73  1  1
 34 66  1  6
 34 67  1  0
 34 68  1  0
 35 69  1  6
 35 70  1  0
 35 71  1  0
M  CHG  3   3   1  10   1  33   1
M  END
>  <s_epik_cmdline>  (54) 
J2VwaWtfcHl0aG9uJywgJy1waCcsICc3LjAwMDAwMCcsICctcGh0JywgJzIuMDAwMDAwJywgJy1tcycsICcxNicsICctdG4nLCAnOCcsICctbWEnLCAnMjAwJywgJy1pbWFlJywgJzxpbmZpbGUubWFlPicsICctb21hZScsICc8b3V0ZmlsZS5tYWU+Jw==

>  <s_epik_input>  (54) 
W2NIXTFbY0hdW2NIXVtjSF1bY0hdYzFbQ0BIXShOKFtDSDNdKVtDSDNdKVtDSDJdW05IXWMoYyhjMjMpW2NIXVtjSF1bY0hdW2NIXTMpbmMobjIpW05IXVtDSDJdW0NIMl1jNFtjSF1bY0hdYyhbY0hdW2NIXTQpW0NIMl1OKFtDSDNdKVtDSDNd

>  <s_i_glide_gridfile>  (54) 
ATP-Grid

>  <s_lp_Force_Field>  (54) 
OPLS_2005

>  <s_lp_Variant>  (54) 
m_282030aaa____21930822____22360182____21967972-2

>  <s_lp_label>  (54) 
960_sdstereoexpander_2_neutralizer_1_epik_1_stereoizer_1

>  <s_m_source_file>  (54) 
ATP-VSW-LIGPREP-002-in.maegz

>  <s_sd_BIOSOLVEIT.INFINISEE\_QUERY\_NAME>  (54) 
Ref-Lig

>  <s_sd_BIOSOLVEIT.INFINISEE\_QUERY\_SMILES>  (54) 
S(c1nc2c(cc1C[NH2+]Cc3ccc(cc3)C[NH+](C)C)cccc2)Cc4ccccc4

>  <s_sd_BIOSOLVEIT.INFINISEE\_REACTION\_NAME>  (54) 
m_282030aaa

>  <s_sd_BIOSOLVEIT.INFINISEE\_REAGENT1\_SMILES>  (54) 
[R1*]NCC(N(C)C)c1ccccc1

>  <s_sd_BIOSOLVEIT.INFINISEE\_REAGENT2\_SMILES>  (54) 
[R2*]c1nc([R1*])c2c(n1)cccc2

>  <s_sd_BIOSOLVEIT.INFINISEE\_REAGENT3\_SMILES>  (54) 
[R2*]NCCc1ccc(cc1)CN(C)C

>  <s_sd_BIOSOLVEIT.INFINISEE\_SPACE>  (54) 
REALSpace_44bn_2023-08

>  <s_vsw_compound_code>  (54) 
30690

>  <s_vsw_variant>  (54) 
30690-2

>  <r_epik_Charging_Adjusted_Penalty>  (54) 
0.20302916717193101

>  <r_epik_Ionization_Penalty>  (54) 
0.12189999999999999

>  <r_epik_Ionization_Penalty_Charging>  (54) 
0.12180000000000001

>  <r_epik_Ionization_Penalty_Neutral>  (54) 
0.0001

>  <r_epik_State_Penalty>  (54) 
0.081199999999999994

>  <r_i_docking_score>  (54) 
-4.3206435478789604

>  <r_i_glide_ecoul>  (54) 
-11.264509201049799

>  <r_i_glide_eff_state_penalty>  (54) 
0.081199999999999994

>  <r_i_glide_einternal>  (54) 
2.4505417346954301

>  <r_i_glide_emodel>  (54) 
-60.644457117564102

>  <r_i_glide_energy>  (54) 
-40.250003814697301

>  <r_i_glide_erotb>  (54) 
0.72692390486313396

>  <r_i_glide_esite>  (54) 
-0.17526234774143101

>  <r_i_glide_evdw>  (54) 
-28.9854946136475

>  <r_i_glide_gscore>  (54) 
-4.4018435478789604

>  <r_i_glide_hbond>  (54) 
-0.20000000000000001

>  <r_i_glide_ligand_efficiency>  (54) 
-0.123446958510827

>  <r_i_glide_ligand_efficiency_ln>  (54) 
-0.94847715027647805

>  <r_i_glide_ligand_efficiency_sa>  (54) 
-0.40380318660146203

>  <r_i_glide_lipo>  (54) 
-1.4213278123426401

>  <r_i_glide_metal>  (54) 
-0

>  <r_i_glide_rewards>  (54) 
-0.19322618181817999

>  <r_lp_Energy>  (54) 
27.775124999999999

>  <r_qp_ACxDN^.5/SA>  (54) 
0.0126698

>  <r_qp_CIQPlogS>  (54) 
-5.1070000000000002

>  <r_qp_EA(eV)>  (54) 
0.623

>  <r_qp_FISA>  (54) 
45.615000000000002

>  <r_qp_FOSA>  (54) 
378.815

>  <r_qp_IP(eV)>  (54) 
8.0210000000000008

>  <r_qp_Jm>  (54) 
0.0080713516207544592

>  <r_qp_PISA>  (54) 
356.91399999999999

>  <r_qp_PSA>  (54) 
50.247

>  <r_qp_PercentHumanOralAbsorption>  (54) 
100

>  <r_qp_QPPCaco>  (54) 
227.58099999999999

>  <r_qp_QPPMDCK>  (54) 
122.25

>  <r_qp_QPlogBB>  (54) 
0.249

>  <r_qp_QPlogHERG>  (54) 
-7.5430000000000001

>  <r_qp_QPlogKhsa>  (54) 
0.91300000000000003

>  <r_qp_QPlogKp>  (54) 
-4.1719999999999997

>  <r_qp_QPlogPC16>  (54) 
15.659000000000001

>  <r_qp_QPlogPo/w>  (54) 
4.9080000000000004

>  <r_qp_QPlogPoct>  (54) 
23.640999999999998

>  <r_qp_QPlogPw>  (54) 
11.734999999999999

>  <r_qp_QPlogS>  (54) 
-3.5920000000000001

>  <r_qp_QPpolrz>  (54) 
51.606000000000002

>  <r_qp_SASA>  (54) 
781.34299999999996

>  <r_qp_SAamideO>  (54) 
0

>  <r_qp_SAfluorine>  (54) 
0

>  <r_qp_WPSA>  (54) 
0

>  <r_qp_accptHB>  (54) 
7

>  <r_qp_dip^2/V>  (54) 
0.0021258000000000002

>  <r_qp_dipole>  (54) 
1.806

>  <r_qp_donorHB>  (54) 
2

>  <r_qp_glob>  (54) 
0.8234766

>  <r_qp_mol_MW>  (54) 
468.64400000000001

>  <r_qp_volume>  (54) 
1534.5889999999999

>  <r_sd_BIOSOLVEIT.INFINISEE\_FTREES\_SIMILARITY>  (54) 
0.91700000000000004

>  <r_sd_BIOSOLVEIT.LOGP>  (54) 
2.2265999999999999

>  <r_sd_BIOSOLVEIT.MOLECULAR\_WEIGHT>  (54) 
470.661

>  <r_sd_BIOSOLVEIT.TPSA>  (54) 
58.719999999999999

>  <i_epik_Tot_Q>  (54) 
3

>  <i_epik_Tot_abs_Q>  (54) 
3

>  <i_f3d_flags>  (54) 
0

>  <i_i_glide_confnum>  (54) 
4

>  <i_i_glide_lignum>  (54) 
299

>  <i_i_glide_posenum>  (54) 
1

>  <i_i_glide_rotatable_bonds>  (54) 
11

>  <i_lp_mmshare_version>  (54) 
65135

>  <i_m_ct_format>  (54) 
2

>  <i_m_source_file_index>  (54) 
960

>  <i_qp_#NandO>  (54) 
6

>  <i_qp_#acid>  (54) 
0

>  <i_qp_#amide>  (54) 
0

>  <i_qp_#amidine>  (54) 
0

>  <i_qp_#amine>  (54) 
2

>  <i_qp_#in34>  (54) 
0

>  <i_qp_#in56>  (54) 
22

>  <i_qp_#metab>  (54) 
6

>  <i_qp_#nonHatm>  (54) 
35

>  <i_qp_#noncon>  (54) 
0

>  <i_qp_#ringatoms>  (54) 
22

>  <i_qp_#rotor>  (54) 
11

>  <i_qp_#rtvFG>  (54) 
0

>  <i_qp_#stars>  (54) 
0

>  <i_qp_CNS>  (54) 
1

>  <i_qp_HumanOralAbsorption>  (54) 
3

>  <i_qp_RuleOfFive>  (54) 
0

>  <i_qp_RuleOfThree>  (54) 
0

>  <i_sd_BIOSOLVEIT.INFINISEE\_REAGENT1\_NAME>  (54) 
21930822

>  <i_sd_BIOSOLVEIT.INFINISEE\_REAGENT2\_NAME>  (54) 
22360182

>  <i_sd_BIOSOLVEIT.INFINISEE\_REAGENT3\_NAME>  (54) 
21967972

>  <i_sd_BIOSOLVEIT.INFINISEE\_RESULT\_RANK>  (54) 
23258

>  <i_sd_version>  (54) 
0

>  <b_lp_Chiralities_Consistent>  (54) 
1

>  <b_sd_chiral_flag>  (54) 
0

>  <canonical_id>  (54) 
ATP-HTVS-09A5DA8CBD66

>  <compound_code>  (54) 
30690

>  <title>  (54) 
m_282030aaa____21930822____22360182____21967972

>  <variant>  (54) 
30690-2

>  <source_file>  (54) 
运行/运行/ATP-VSW/ATP-VSW-DOCK_HTVS_1-002_lib.maegz

>  <canonical_smiles>  (54) 
C[NH+](C)Cc1ccc(CCNc2nc(NC[C@H](c3ccccc3)[NH+](C)C)c3ccccc3[nH+]2)cc1

>  <scaffold>  (54) 
c1ccc(CCNc2nc(NCCc3ccccc3)c3ccccc3[nH+]2)cc1

>  <molecular_formula>  (54) 
C29H39N6+3

$$$$
ATP-HTVS-09A833AE3D1D
     RDKit          3D

 52 55  0  0  0  0  0  0  0  0999 V2000
  195.8357  191.0365  162.3846 Cl  0  0  0  0  0  0  0  0  0  0  0  0
  196.5836  190.2806  161.0236 C   0  0  0  0  0  0  0  0  0  0  0  0
  197.2604  191.0738  160.1725 N   0  0  0  0  0  0  0  0  0  0  0  0
  197.8374  190.5025  159.1003 C   0  0  0  0  0  0  0  0  0  0  0  0
  197.7555  189.1272  158.8226 C   0  0  0  0  0  0  0  0  0  0  0  0
  197.0576  188.2841  159.7115 C   0  0  0  0  0  0  0  0  0  0  0  0
  196.9465  186.8281  159.4671 C   0  0  0  0  0  0  0  0  0  0  0  0
  198.0686  185.9788  159.2449 C   0  0  0  0  0  0  0  0  0  0  0  0
  197.9360  184.6540  159.0316 N   0  0  0  0  0  0  0  0  0  0  0  0
  196.7226  184.0836  159.0125 C   0  0  0  0  0  0  0  0  0  0  0  0
  195.5467  184.8416  159.2351 C   0  0  0  0  0  0  0  0  0  0  0  0
  195.6702  186.2257  159.4685 C   0  0  0  0  0  0  0  0  0  0  0  0
  194.2787  184.2385  159.1995 C   0  0  0  0  0  0  0  0  0  0  0  0
  194.1710  182.8658  158.9104 C   0  0  0  0  0  0  0  0  0  0  0  0
  195.3286  182.0979  158.7144 C   0  0  0  0  0  0  0  0  0  0  0  0
  196.5955  182.7039  158.7650 C   0  0  0  0  0  0  0  0  0  0  0  0
  199.3404  186.6016  159.2831 N   0  0  0  0  0  0  0  0  0  0  0  0
  200.5564  186.0518  159.4218 C   0  0  0  0  0  0  0  0  0  0  0  0
  200.7374  184.8405  159.4944 O   0  0  0  0  0  0  0  0  0  0  0  0
  201.6870  187.0538  159.6126 C   0  0  0  0  0  0  0  0  0  0  0  0
  202.9727  186.6906  160.1216 C   0  0  0  0  0  0  0  0  0  0  0  0
  203.9543  187.7014  160.3008 C   0  0  0  0  0  0  0  0  0  0  0  0
  203.6997  189.0414  159.9725 C   0  0  0  0  0  0  0  0  0  0  0  0
  202.4513  189.3989  159.4590 C   0  0  0  0  0  0  0  0  0  0  0  0
  201.4622  188.4179  159.2760 C   0  0  0  0  0  0  0  0  0  0  0  0
  203.3809  185.2715  160.5288 C   0  0  1  0  0  0  0  0  0  0  0  0
  202.8855  184.8798  161.8803 N   0  0  1  0  0  0  0  0  0  0  0  0
  203.1618  183.4558  162.1741 C   0  0  2  0  0  0  0  0  0  0  0  0
  203.3671  185.7654  162.9706 C   0  0  2  0  0  0  0  0  0  0  0  0
  196.4543  188.8887  160.8367 C   0  0  0  0  0  0  0  0  0  0  0  0
  198.3777  191.1629  158.4380 H   0  0  0  0  0  0  0  0  0  0  0  0
  198.2242  188.7414  157.9307 H   0  0  0  0  0  0  0  0  0  0  0  0
  194.7899  186.8328  159.6238 H   0  0  0  0  0  0  0  0  0  0  0  0
  193.3854  184.8162  159.3553 H   0  0  0  0  0  0  0  0  0  0  0  0
  193.2010  182.3974  158.8608 H   0  0  0  0  0  0  0  0  0  0  0  0
  195.2383  181.0468  158.5191 H   0  0  0  0  0  0  0  0  0  0  0  0
  197.4743  182.1038  158.5987 H   0  0  0  0  0  0  0  0  0  0  0  0
  199.2967  187.6036  159.3278 H   0  0  0  0  0  0  0  0  0  0  0  0
  204.9210  187.4516  160.6969 H   0  0  0  0  0  0  0  0  0  0  0  0
  204.4625  189.7956  160.1028 H   0  0  0  0  0  0  0  0  0  0  0  0
  202.2407  190.4219  159.1947 H   0  0  0  0  0  0  0  0  0  0  0  0
  200.5289  188.7816  158.8742 H   0  0  0  0  0  0  0  0  0  0  0  0
  203.0982  184.5344  159.7765 H   0  0  0  0  0  0  0  0  0  0  0  0
  204.4666  185.2202  160.5248 H   0  0  0  0  0  0  0  0  0  0  0  0
  204.2356  183.2662  162.1964 H   0  0  0  0  0  0  0  0  0  0  0  0
  202.7147  182.8135  161.4147 H   0  0  0  0  0  0  0  0  0  0  0  0
  202.7488  183.1610  163.1387 H   0  0  0  0  0  0  0  0  0  0  0  0
  204.4560  185.7796  163.0097 H   0  0  0  0  0  0  0  0  0  0  0  0
  202.9992  185.4296  163.9405 H   0  0  0  0  0  0  0  0  0  0  0  0
  203.0223  186.7911  162.8423 H   0  0  0  0  0  0  0  0  0  0  0  0
  195.9090  188.2956  161.5580 H   0  0  0  0  0  0  0  0  0  0  0  0
  201.8780  184.9637  161.8702 H   0  0  0  0  0  0  0  0  0  0  0  0
  1  2  1  0
  2  3  1  0
  2 30  2  0
  3  4  2  0
  4  5  1  0
  4 31  1  0
  5  6  2  0
  5 32  1  0
  6  7  1  0
  6 30  1  0
  7  8  1  0
  7 12  2  0
  8  9  2  0
  8 17  1  0
  9 10  1  0
 10 11  1  0
 10 16  2  0
 11 12  1  0
 11 13  2  0
 12 33  1  0
 13 14  1  0
 13 34  1  0
 14 15  2  0
 14 35  1  0
 15 16  1  0
 15 36  1  0
 16 37  1  0
 17 18  1  0
 17 38  1  0
 18 19  2  0
 18 20  1  0
 20 21  1  0
 20 25  2  0
 21 22  2  0
 21 26  1  0
 22 23  1  0
 22 39  1  0
 23 24  2  0
 23 40  1  0
 24 25  1  0
 24 41  1  0
 25 42  1  0
 26 27  1  0
 26 43  1  6
 26 44  1  0
 27 28  1  0
 27 29  1  0
 27 52  1  6
 28 45  1  1
 28 46  1  0
 28 47  1  0
 29 48  1  1
 29 49  1  0
 29 50  1  0
 30 51  1  0
M  CHG  1  27   1
M  END
>  <s_epik_cmdline>  (55) 
J2VwaWtfcHl0aG9uJywgJy1waCcsICc3LjAwMDAwMCcsICctcGh0JywgJzIuMDAwMDAwJywgJy1tcycsICcxNicsICctdG4nLCAnOCcsICctbWEnLCAnMjAwJywgJy1pbWFlJywgJzxpbmZpbGUubWFlPicsICctb21hZScsICc8b3V0ZmlsZS5tYWU+Jw==

>  <s_epik_input>  (55) 
Q2xjMW5bY0hdW2NIXWMoW2NIXTEpLWMoW2NIXWMoYzIzKVtjSF1bY0hdW2NIXVtjSF0zKWMobjIpW05IXUMoPU8pYzRjKFtDSDJdTihbQ0gzXSlbQ0gzXSlbY0hdW2NIXVtjSF1bY0hdNA==

>  <s_i_glide_gridfile>  (55) 
ATP-Grid

>  <s_lp_Force_Field>  (55) 
OPLS_2005

>  <s_lp_Variant>  (55) 
rxn501b____EMOL5415347____EMOL44466703____EMOL728493-1

>  <s_lp_label>  (55) 
2824_sdstereoexpander_1_neutralizer_1_epik_1_stereoizer_1

>  <s_m_source_file>  (55) 
ATP-VSW-LIGPREP-003-in.maegz

>  <s_sd_BIOSOLVEIT.INFINISEE\_QUERY\_NAME>  (55) 
Ref-Lig

>  <s_sd_BIOSOLVEIT.INFINISEE\_QUERY\_SMILES>  (55) 
S(c1nc2c(cc1C[NH2+]Cc3ccc(cc3)C[NH+](C)C)cccc2)Cc4ccccc4

>  <s_sd_BIOSOLVEIT.INFINISEE\_REACTION\_NAME>  (55) 
rxn501b

>  <s_sd_BIOSOLVEIT.INFINISEE\_REAGENT1\_NAME>  (55) 
EMOL5415347

>  <s_sd_BIOSOLVEIT.INFINISEE\_REAGENT1\_SMILES>  (55) 
O=C(O)c1c(cccc1)CN(C)C

>  <s_sd_BIOSOLVEIT.INFINISEE\_REAGENT2\_NAME>  (55) 
EMOL44466703

>  <s_sd_BIOSOLVEIT.INFINISEE\_REAGENT2\_SMILES>  (55) 
Brc1c(nc2c(c1)cccc2)N

>  <s_sd_BIOSOLVEIT.INFINISEE\_REAGENT3\_NAME>  (55) 
EMOL728493

>  <s_sd_BIOSOLVEIT.INFINISEE\_REAGENT3\_SMILES>  (55) 
Clc1nccc(c1)B(O)O

>  <s_sd_BIOSOLVEIT.INFINISEE\_SPACE>  (55) 
eXplore_7tr_2022-12

>  <s_vsw_compound_code>  (55) 
90339

>  <s_vsw_variant>  (55) 
90339-1

>  <r_epik_Charging_Adjusted_Penalty>  (55) 
0.120106230221407

>  <r_epik_Ionization_Penalty>  (55) 
0.060199999999999997

>  <r_epik_Ionization_Penalty_Charging>  (55) 
0.060100000000000001

>  <r_epik_Ionization_Penalty_Neutral>  (55) 
0.00020000000000000001

>  <r_epik_State_Penalty>  (55) 
0.060100000000000001

>  <r_i_docking_score>  (55) 
-3.6811156047142899

>  <r_i_glide_ecoul>  (55) 
-4.75460004806519

>  <r_i_glide_eff_state_penalty>  (55) 
0.060100000000000001

>  <r_i_glide_einternal>  (55) 
1.989661693573

>  <r_i_glide_emodel>  (55) 
-49.812082104114197

>  <r_i_glide_energy>  (55) 
-38.2392191886902

>  <r_i_glide_erotb>  (55) 
0.56597639060281502

>  <r_i_glide_esite>  (55) 
-0.0137101064263913

>  <r_i_glide_evdw>  (55) 
-33.484619140625

>  <r_i_glide_gscore>  (55) 
-3.7412156047142902

>  <r_i_glide_hbond>  (55) 
0

>  <r_i_glide_ligand_efficiency>  (55) 
-0.12270385349047599

>  <r_i_glide_ligand_efficiency_ln>  (55) 
-0.83638957435807604

>  <r_i_glide_ligand_efficiency_sa>  (55) 
-0.38126940173915003

>  <r_i_glide_lipo>  (55) 
-1.28612945063346

>  <r_i_glide_metal>  (55) 
-0

>  <r_i_glide_rewards>  (55) 
-0.61993147401621995

>  <r_lp_Energy>  (55) 
28.561194

>  <r_qp_ACxDN^.5/SA>  (55) 
0.0095516000000000004

>  <r_qp_CIQPlogS>  (55) 
-5.359

>  <r_qp_EA(eV)>  (55) 
1.2110000000000001

>  <r_qp_FISA>  (55) 
62.700000000000003

>  <r_qp_FOSA>  (55) 
130.07900000000001

>  <r_qp_IP(eV)>  (55) 
8.859

>  <r_qp_Jm>  (55) 
0.024772329262329001

>  <r_qp_PISA>  (55) 
429.70100000000002

>  <r_qp_PSA>  (55) 
57.444000000000003

>  <r_qp_PercentHumanOralAbsorption>  (55) 
100

>  <r_qp_QPPCaco>  (55) 
628.36599999999999

>  <r_qp_QPPMDCK>  (55) 
688.69200000000001

>  <r_qp_QPlogBB>  (55) 
0.20599999999999999

>  <r_qp_QPlogHERG>  (55) 
-6.9539999999999997

>  <r_qp_QPlogKhsa>  (55) 
0.60299999999999998

>  <r_qp_QPlogKp>  (55) 
-2.7440000000000002

>  <r_qp_QPlogPC16>  (55) 
14.173999999999999

>  <r_qp_QPlogPo/w>  (55) 
4.3479999999999999

>  <r_qp_QPlogPoct>  (55) 
20.698

>  <r_qp_QPlogPw>  (55) 
11.491

>  <r_qp_QPlogS>  (55) 
-4.4820000000000002

>  <r_qp_QPpolrz>  (55) 
45.841999999999999

>  <r_qp_SASA>  (55) 
680.51300000000003

>  <r_qp_SAamideO>  (55) 
0

>  <r_qp_SAfluorine>  (55) 
0

>  <r_qp_WPSA>  (55) 
58.033000000000001

>  <r_qp_accptHB>  (55) 
6.5

>  <r_qp_dip^2/V>  (55) 
0.0139989

>  <r_qp_dipole>  (55) 
4.2279999999999998

>  <r_qp_donorHB>  (55) 
1

>  <r_qp_glob>  (55) 
0.83645159999999996

>  <r_qp_mol_MW>  (55) 
416.90899999999999

>  <r_qp_volume>  (55) 
1276.933

>  <r_sd_BIOSOLVEIT.INFINISEE\_FTREES\_SIMILARITY>  (55) 
0.90600000000000003

>  <r_sd_BIOSOLVEIT.LOGP>  (55) 
3.847

>  <r_sd_BIOSOLVEIT.MOLECULAR\_WEIGHT>  (55) 
417.91800000000001

>  <r_sd_BIOSOLVEIT.TPSA>  (55) 
59.32

>  <i_epik_Tot_Q>  (55) 
1

>  <i_epik_Tot_abs_Q>  (55) 
1

>  <i_f3d_flags>  (55) 
0

>  <i_i_glide_confnum>  (55) 
3

>  <i_i_glide_lignum>  (55) 
1348

>  <i_i_glide_posenum>  (55) 
13

>  <i_i_glide_rotatable_bonds>  (55) 
6

>  <i_lp_mmshare_version>  (55) 
65135

>  <i_m_ct_format>  (55) 
2

>  <i_m_source_file_index>  (55) 
2824

>  <i_qp_#NandO>  (55) 
5

>  <i_qp_#acid>  (55) 
0

>  <i_qp_#amide>  (55) 
0

>  <i_qp_#amidine>  (55) 
0

>  <i_qp_#amine>  (55) 
1

>  <i_qp_#in34>  (55) 
0

>  <i_qp_#in56>  (55) 
22

>  <i_qp_#metab>  (55) 
3

>  <i_qp_#nonHatm>  (55) 
30

>  <i_qp_#noncon>  (55) 
0

>  <i_qp_#ringatoms>  (55) 
22

>  <i_qp_#rotor>  (55) 
5

>  <i_qp_#rtvFG>  (55) 
0

>  <i_qp_#stars>  (55) 
0

>  <i_qp_CNS>  (55) 
1

>  <i_qp_HumanOralAbsorption>  (55) 
3

>  <i_qp_RuleOfFive>  (55) 
0

>  <i_qp_RuleOfThree>  (55) 
0

>  <i_sd_BIOSOLVEIT.INFINISEE\_RESULT\_RANK>  (55) 
65880

>  <i_sd_version>  (55) 
0

>  <b_lp_Chiralities_Consistent>  (55) 
1

>  <b_sd_chiral_flag>  (55) 
0

>  <canonical_id>  (55) 
ATP-HTVS-09A833AE3D1D

>  <compound_code>  (55) 
90339

>  <title>  (55) 
rxn501b____EMOL5415347____EMOL44466703____EMOL728493

>  <variant>  (55) 
90339-1

>  <source_file>  (55) 
运行/运行/ATP-VSW/ATP-VSW-DOCK_HTVS_1-003_lib/ATP-VSW-DOCK_HTVS_1-003_lib.mae

>  <canonical_smiles>  (55) 
C[NH+](C)Cc1ccccc1C(=O)Nc1nc2ccccc2cc1-c1ccnc(Cl)c1

>  <scaffold>  (55) 
O=C(Nc1nc2ccccc2cc1-c1ccncc1)c1ccccc1

>  <molecular_formula>  (55) 
C24H22ClN4O+

$$$$
ATP-HTVS-09F9B4EC4E97
     RDKit          3D

 51 53  0  0  0  0  0  0  0  0999 V2000
  197.1382  182.9249  154.9828 N   0  0  0  0  0  0  0  0  0  0  0  0
  197.1338  181.5926  154.8262 C   0  0  0  0  0  0  0  0  0  0  0  0
  197.2123  180.9114  153.6760 N   0  0  0  0  0  0  0  0  0  0  0  0
  197.3350  181.6698  152.5689 C   0  0  0  0  0  0  0  0  0  0  0  0
  197.3246  183.0982  152.5719 C   0  0  0  0  0  0  0  0  0  0  0  0
  197.4394  183.8808  151.3171 C   0  0  0  0  0  0  0  0  0  0  0  0
  198.1668  185.1026  151.2203 C   0  0  0  0  0  0  0  0  0  0  0  0
  198.1979  185.8036  150.0063 C   0  0  0  0  0  0  0  0  0  0  0  0
  197.5455  185.3106  148.8601 C   0  0  0  0  0  0  0  0  0  0  0  0
  196.8587  184.0821  148.9361 C   0  0  0  0  0  0  0  0  0  0  0  0
  196.8078  183.3831  150.1483 C   0  0  0  0  0  0  0  0  0  0  0  0
  198.9397  185.6921  152.3904 C   0  0  2  0  0  0  0  0  0  0  0  0
  197.1663  183.6740  153.8614 C   0  0  0  0  0  0  0  0  0  0  0  0
  197.0872  180.7650  156.0910 C   0  0  1  0  0  0  0  0  0  0  0  0
  198.2250  179.8322  156.1566 N   0  0  1  0  0  0  0  0  0  0  0  0
  198.0952  178.6071  155.3243 C   0  0  1  0  0  0  0  0  0  0  0  0
  199.4626  177.9790  155.1466 C   0  0  0  0  0  0  0  0  0  0  0  0
  199.9809  177.1441  156.1594 C   0  0  0  0  0  0  0  0  0  0  0  0
  201.2447  176.5432  156.0015 C   0  0  0  0  0  0  0  0  0  0  0  0
  201.9567  176.7382  154.7973 C   0  0  0  0  0  0  0  0  0  0  0  0
  201.4390  177.5899  153.7895 C   0  0  0  0  0  0  0  0  0  0  0  0
  200.1984  178.2284  153.9705 C   0  0  0  0  0  0  0  0  0  0  0  0
  203.2776  176.0138  154.5803 C   0  0  1  0  0  0  0  0  0  0  0  0
  203.1606  174.4790  154.4828 C   0  0  1  0  0  0  0  0  0  0  0  0
  202.7130  173.7713  155.7824 C   0  0  2  0  0  0  0  0  0  0  0  0
  199.0742  180.3302  155.9304 H   0  0  0  0  0  0  0  0  0  0  0  0
  197.4599  181.1237  151.6390 H   0  0  0  0  0  0  0  0  0  0  0  0
  198.7330  186.7414  149.9397 H   0  0  0  0  0  0  0  0  0  0  0  0
  197.5737  185.8782  147.9374 H   0  0  0  0  0  0  0  0  0  0  0  0
  196.3636  183.6898  148.0577 H   0  0  0  0  0  0  0  0  0  0  0  0
  196.2655  182.4499  150.1712 H   0  0  0  0  0  0  0  0  0  0  0  0
  199.6921  186.4152  152.0598 H   0  0  0  0  0  0  0  0  0  0  0  0
  199.4649  184.9135  152.9447 H   0  0  0  0  0  0  0  0  0  0  0  0
  198.2612  186.2209  153.0617 H   0  0  0  0  0  0  0  0  0  0  0  0
  197.0698  184.7389  154.0209 H   0  0  0  0  0  0  0  0  0  0  0  0
  197.1159  181.4135  156.9649 H   0  0  0  0  0  0  0  0  0  0  0  0
  196.1448  180.2340  156.1207 H   0  0  0  0  0  0  0  0  0  0  0  0
  197.3981  177.9125  155.8089 H   0  0  0  0  0  0  0  0  0  0  0  0
  197.7131  178.7699  154.3147 H   0  0  0  0  0  0  0  0  0  0  0  0
  199.3729  176.9357  157.0295 H   0  0  0  0  0  0  0  0  0  0  0  0
  201.6359  175.8660  156.7576 H   0  0  0  0  0  0  0  0  0  0  0  0
  201.9948  177.7568  152.8718 H   0  0  0  0  0  0  0  0  0  0  0  0
  199.8184  178.8843  153.1997 H   0  0  0  0  0  0  0  0  0  0  0  0
  203.7481  176.3914  153.6750 H   0  0  0  0  0  0  0  0  0  0  0  0
  203.9482  176.2995  155.3878 H   0  0  0  0  0  0  0  0  0  0  0  0
  202.4777  174.2169  153.6773 H   0  0  0  0  0  0  0  0  0  0  0  0
  204.1353  174.0828  154.1807 H   0  0  0  0  0  0  0  0  0  0  0  0
  202.7716  172.6702  155.6605 H   0  0  0  0  0  0  0  0  0  0  0  0
  201.7160  174.1216  156.0898 H   0  0  0  0  0  0  0  0  0  0  0  0
  203.3886  174.0229  156.6081 H   0  0  0  0  0  0  0  0  0  0  0  0
  198.2802  179.5088  157.1169 H   0  0  0  0  0  0  0  0  0  0  0  0
  1  2  1  0
  1 13  2  0
  2  3  2  0
  2 14  1  0
  3  4  1  0
  4  5  2  0
  4 27  1  0
  5  6  1  0
  5 13  1  0
  6  7  1  0
  6 11  2  0
  7  8  2  0
  7 12  1  0
  8  9  1  0
  8 28  1  0
  9 10  2  0
  9 29  1  0
 10 11  1  0
 10 30  1  0
 11 31  1  0
 12 32  1  6
 12 33  1  0
 12 34  1  0
 13 35  1  0
 14 15  1  0
 14 36  1  1
 14 37  1  0
 15 16  1  0
 15 26  1  6
 15 51  1  0
 16 17  1  0
 16 38  1  1
 16 39  1  0
 17 18  1  0
 17 22  2  0
 18 19  2  0
 18 40  1  0
 19 20  1  0
 19 41  1  0
 20 21  2  0
 20 23  1  0
 21 22  1  0
 21 42  1  0
 22 43  1  0
 23 24  1  0
 23 44  1  6
 23 45  1  0
 24 25  1  0
 24 46  1  6
 24 47  1  0
 25 48  1  6
 25 49  1  0
 25 50  1  0
M  CHG  1  15   1
M  END
>  <s_epik_cmdline>  (56) 
J2VwaWtfcHl0aG9uJywgJy1waCcsICc3LjAwMDAwMCcsICctcGh0JywgJzIuMDAwMDAwJywgJy1tcycsICcxNicsICctdG4nLCAnOCcsICctbWEnLCAnMjAwJywgJy1pbWFlJywgJzxpbmZpbGUubWFlPicsICctb21hZScsICc8b3V0ZmlsZS5tYWU+Jw==

>  <s_epik_input>  (56) 
W2NIXTFbY0hdW2NIXVtjSF1jKFtDSDNdKWMxLWMoW2NIXW4yKVtjSF1uYzJbQ0gyXVtOSF1bQ0gyXWMzW2NIXVtjSF1jKFtjSF1bY0hdMylbQ0gyXVtDSDJdW0NIM10=

>  <s_i_glide_gridfile>  (56) 
ATP-Grid

>  <s_lp_Force_Field>  (56) 
OPLS_2005

>  <s_lp_Variant>  (56) 
WXDL_15E____QS1365____LN00190257____BT4142-1

>  <s_lp_label>  (56) 
642_sdstereoexpander_1_neutralizer_1_epik_1_stereoizer_1

>  <s_m_source_file>  (56) 
ATP-VSW-LIGPREP-002-in.maegz

>  <s_sd_BIOSOLVEIT.INFINISEE\_QUERY\_NAME>  (56) 
Ref-Lig

>  <s_sd_BIOSOLVEIT.INFINISEE\_QUERY\_SMILES>  (56) 
S(c1nc2c(cc1C[NH2+]Cc3ccc(cc3)C[NH+](C)C)cccc2)Cc4ccccc4

>  <s_sd_BIOSOLVEIT.INFINISEE\_REACTION\_NAME>  (56) 
WXDL_15E

>  <s_sd_BIOSOLVEIT.INFINISEE\_REAGENT1\_NAME>  (56) 
QS1365

>  <s_sd_BIOSOLVEIT.INFINISEE\_REAGENT1\_SMILES>  (56) 
O=Cc1ccc(cc1)CCC

>  <s_sd_BIOSOLVEIT.INFINISEE\_REAGENT2\_NAME>  (56) 
LN00190257

>  <s_sd_BIOSOLVEIT.INFINISEE\_REAGENT2\_SMILES>  (56) 
Brc1cnc(nc1)CNC(=O)OC(C)(C)C

>  <s_sd_BIOSOLVEIT.INFINISEE\_REAGENT3\_NAME>  (56) 
BT4142

>  <s_sd_BIOSOLVEIT.INFINISEE\_REAGENT3\_SMILES>  (56) 
O1CCCOB1c2c(cccc2)C

>  <s_sd_BIOSOLVEIT.INFINISEE\_SPACE>  (56) 
GalaXi_12bn_2023-03

>  <s_vsw_compound_code>  (56) 
20514

>  <s_vsw_variant>  (56) 
20514-1

>  <r_epik_Charging_Adjusted_Penalty>  (56) 
0.452121415508559

>  <r_epik_Ionization_Penalty>  (56) 
0.2261

>  <r_epik_Ionization_Penalty_Charging>  (56) 
0.2261

>  <r_epik_Ionization_Penalty_Neutral>  (56) 
0

>  <r_epik_State_Penalty>  (56) 
0.2261

>  <r_i_docking_score>  (56) 
-4.0071540234108003

>  <r_i_glide_ecoul>  (56) 
-8.2461757659912092

>  <r_i_glide_eff_state_penalty>  (56) 
0.2261

>  <r_i_glide_einternal>  (56) 
3.4945125579834002

>  <r_i_glide_emodel>  (56) 
-48.405726844247198

>  <r_i_glide_energy>  (56) 
-35.883302688598597

>  <r_i_glide_erotb>  (56) 
1.02241569522956

>  <r_i_glide_esite>  (56) 
-0.129776922830523

>  <r_i_glide_evdw>  (56) 
-27.637126922607401

>  <r_i_glide_gscore>  (56) 
-4.2332540234108

>  <r_i_glide_hbond>  (56) 
-0.081816861408661498

>  <r_i_glide_ligand_efficiency>  (56) 
-0.160286160936432

>  <r_i_glide_ligand_efficiency_ln>  (56) 
-0.94981558826419799

>  <r_i_glide_ligand_efficiency_sa>  (56) 
-0.46867957726529502

>  <r_i_glide_lipo>  (56) 
-1.2829882688266701

>  <r_i_glide_metal>  (56) 
-0

>  <r_i_glide_rewards>  (56) 
-1.14230495454545

>  <r_lp_Energy>  (56) 
7.3219209999999997

>  <r_lp_tautomer_probability>  (56) 
1

>  <r_qp_ACxDN^.5/SA>  (56) 
0.0049808999999999999

>  <r_qp_CIQPlogS>  (56) 
-4.5720000000000001

>  <r_qp_EA(eV)>  (56) 
0.622

>  <r_qp_FISA>  (56) 
53.091999999999999

>  <r_qp_FOSA>  (56) 
303.202

>  <r_qp_IP(eV)>  (56) 
9.1609999999999996

>  <r_qp_Jm>  (56) 
0.0025970154457124299

>  <r_qp_PISA>  (56) 
346.39100000000002

>  <r_qp_PSA>  (56) 
38.122

>  <r_qp_PercentHumanOralAbsorption>  (56) 
100

>  <r_qp_QPPCaco>  (56) 
775.04999999999995

>  <r_qp_QPPMDCK>  (56) 
415.53500000000003

>  <r_qp_QPlogBB>  (56) 
-0.035000000000000003

>  <r_qp_QPlogHERG>  (56) 
-7.3929999999999998

>  <r_qp_QPlogKhsa>  (56) 
0.94999999999999996

>  <r_qp_QPlogKp>  (56) 
-2.6680000000000001

>  <r_qp_QPlogPC16>  (56) 
12.635

>  <r_qp_QPlogPo/w>  (56) 
4.9660000000000002

>  <r_qp_QPlogPoct>  (56) 
16.640000000000001

>  <r_qp_QPlogPw>  (56) 
7.4960000000000004

>  <r_qp_QPlogS>  (56) 
-5.4379999999999997

>  <r_qp_QPpolrz>  (56) 
41.384

>  <r_qp_SASA>  (56) 
702.68499999999995

>  <r_qp_SAamideO>  (56) 
0

>  <r_qp_SAfluorine>  (56) 
0

>  <r_qp_WPSA>  (56) 
0

>  <r_qp_accptHB>  (56) 
3.5

>  <r_qp_dip^2/V>  (56) 
0.0065303999999999996

>  <r_qp_dipole>  (56) 
2.8199999999999998

>  <r_qp_donorHB>  (56) 
1

>  <r_qp_glob>  (56) 
0.7847307

>  <r_qp_mol_MW>  (56) 
331.45999999999998

>  <r_qp_volume>  (56) 
1217.5160000000001

>  <r_sd_BIOSOLVEIT.INFINISEE\_FTREES\_SIMILARITY>  (56) 
0.90100000000000002

>  <r_sd_BIOSOLVEIT.LOGP>  (56) 
3.66812

>  <r_sd_BIOSOLVEIT.MOLECULAR\_WEIGHT>  (56) 
332.46800000000002

>  <r_sd_BIOSOLVEIT.TPSA>  (56) 
42.390000000000001

>  <i_epik_Tot_Q>  (56) 
1

>  <i_epik_Tot_abs_Q>  (56) 
1

>  <i_f3d_flags>  (56) 
0

>  <i_i_glide_confnum>  (56) 
6

>  <i_i_glide_lignum>  (56) 
194

>  <i_i_glide_posenum>  (56) 
10

>  <i_i_glide_rotatable_bonds>  (56) 
7

>  <i_lp_mmshare_version>  (56) 
65135

>  <i_m_ct_format>  (56) 
2

>  <i_m_source_file_index>  (56) 
642

>  <i_qp_#NandO>  (56) 
3

>  <i_qp_#acid>  (56) 
0

>  <i_qp_#amide>  (56) 
0

>  <i_qp_#amidine>  (56) 
0

>  <i_qp_#amine>  (56) 
1

>  <i_qp_#in34>  (56) 
0

>  <i_qp_#in56>  (56) 
18

>  <i_qp_#metab>  (56) 
7

>  <i_qp_#nonHatm>  (56) 
25

>  <i_qp_#noncon>  (56) 
0

>  <i_qp_#ringatoms>  (56) 
18

>  <i_qp_#rotor>  (56) 
7

>  <i_qp_#rtvFG>  (56) 
0

>  <i_qp_#stars>  (56) 
0

>  <i_qp_CNS>  (56) 
1

>  <i_qp_HumanOralAbsorption>  (56) 
3

>  <i_qp_RuleOfFive>  (56) 
0

>  <i_qp_RuleOfThree>  (56) 
1

>  <i_sd_BIOSOLVEIT.INFINISEE\_RESULT\_RANK>  (56) 
95057

>  <i_sd_version>  (56) 
0

>  <b_lp_Chiralities_Consistent>  (56) 
1

>  <b_sd_chiral_flag>  (56) 
0

>  <canonical_id>  (56) 
ATP-HTVS-09F9B4EC4E97

>  <compound_code>  (56) 
20514

>  <title>  (56) 
WXDL_15E____QS1365____LN00190257____BT4142

>  <variant>  (56) 
20514-1

>  <source_file>  (56) 
运行/运行/ATP-VSW/ATP-VSW-DOCK_HTVS_1-002_lib.maegz

>  <canonical_smiles>  (56) 
CCCc1ccc(C[NH2+]Cc2ncc(-c3ccccc3C)cn2)cc1

>  <scaffold>  (56) 
c1ccc(C[NH2+]Cc2ncc(-c3ccccc3)cn2)cc1

>  <molecular_formula>  (56) 
C22H26N3+

$$$$
ATP-HTVS-0A1AFDA96BE3
     RDKit          3D

 48 51  0  0  0  0  0  0  0  0999 V2000
  197.2225  188.2828  158.2412 O   0  0  0  0  0  0  0  0  0  0  0  0
  196.9950  187.0808  158.3900 C   0  0  0  0  0  0  0  0  0  0  0  0
  197.8763  186.0911  158.1694 N   0  0  0  0  0  0  0  0  0  0  0  0
  197.2284  184.8585  158.3274 C   0  0  0  0  0  0  0  0  0  0  0  0
  195.9167  185.0831  158.7426 C   0  0  0  0  0  0  0  0  0  0  0  0
  195.0536  183.9636  158.8925 C   0  0  0  0  0  0  0  0  0  0  0  0
  195.5534  182.6586  158.7120 C   0  0  0  0  0  0  0  0  0  0  0  0
  196.8902  182.4606  158.3154 C   0  0  0  0  0  0  0  0  0  0  0  0
  197.7353  183.5650  158.0743 C   0  0  0  0  0  0  0  0  0  0  0  0
  195.6085  186.5443  158.8674 C   0  0  1  0  0  0  0  0  0  0  0  0
  195.1557  187.0386  160.2088 N   0  0  0  0  0  0  0  0  0  0  0  0
  194.0443  186.2662  160.7799 C   0  0  1  0  0  0  0  0  0  0  0  0
  193.0513  187.0506  161.6205 C   0  0  0  0  0  0  0  0  0  0  0  0
  193.3479  187.3745  162.9511 C   0  0  0  0  0  0  0  0  0  0  0  0
  192.4548  188.1400  163.7240 C   0  0  0  0  0  0  0  0  0  0  0  0
  191.2236  188.5533  163.1765 C   0  0  0  0  0  0  0  0  0  0  0  0
  190.8942  188.1971  161.8524 C   0  0  0  0  0  0  0  0  0  0  0  0
  191.8032  187.4336  161.0889 C   0  0  0  0  0  0  0  0  0  0  0  0
  196.2383  187.2442  161.1698 C   0  0  2  0  0  0  0  0  0  0  0  0
  199.2762  186.2607  157.7711 C   0  0  1  0  0  0  0  0  0  0  0  0
  200.2800  186.0760  158.9089 C   0  0  0  0  0  0  0  0  0  0  0  0
  200.5196  184.7919  159.4585 C   0  0  0  0  0  0  0  0  0  0  0  0
  201.4587  184.6203  160.4949 C   0  0  0  0  0  0  0  0  0  0  0  0
  202.1772  185.7238  160.9893 C   0  0  0  0  0  0  0  0  0  0  0  0
  201.9538  187.0078  160.4479 C   0  0  0  0  0  0  0  0  0  0  0  0
  201.0069  187.1789  159.4125 C   0  0  0  0  0  0  0  0  0  0  0  0
  193.9980  184.0682  159.0939 H   0  0  0  0  0  0  0  0  0  0  0  0
  194.8945  181.8088  158.8328 H   0  0  0  0  0  0  0  0  0  0  0  0
  197.2486  181.4515  158.1738 H   0  0  0  0  0  0  0  0  0  0  0  0
  198.7434  183.4139  157.7061 H   0  0  0  0  0  0  0  0  0  0  0  0
  194.8862  186.8496  158.1149 H   0  0  0  0  0  0  0  0  0  0  0  0
  193.4359  185.7996  160.0219 H   0  0  0  0  0  0  0  0  0  0  0  0
  194.4684  185.4454  161.3420 H   0  0  0  0  0  0  0  0  0  0  0  0
  194.2690  187.0287  163.3768 H   0  0  0  0  0  0  0  0  0  0  0  0
  192.7229  188.4123  164.7346 H   0  0  0  0  0  0  0  0  0  0  0  0
  190.5309  189.1418  163.7670 H   0  0  0  0  0  0  0  0  0  0  0  0
  189.9499  188.5017  161.4169 H   0  0  0  0  0  0  0  0  0  0  0  0
  191.5338  187.1863  160.0768 H   0  0  0  0  0  0  0  0  0  0  0  0
  195.8676  187.6001  162.1226 H   0  0  0  0  0  0  0  0  0  0  0  0
  196.9541  188.0068  160.8607 H   0  0  0  0  0  0  0  0  0  0  0  0
  196.7597  186.3035  161.3290 H   0  0  0  0  0  0  0  0  0  0  0  0
  199.5076  185.5510  156.9818 H   0  0  0  0  0  0  0  0  0  0  0  0
  199.4117  187.2409  157.3105 H   0  0  0  0  0  0  0  0  0  0  0  0
  199.9957  183.9050  159.0919 H   0  0  0  0  0  0  0  0  0  0  0  0
  201.6260  183.6364  160.9046 H   0  0  0  0  0  0  0  0  0  0  0  0
  202.9003  185.5834  161.7859 H   0  0  0  0  0  0  0  0  0  0  0  0
  202.5109  187.8593  160.8254 H   0  0  0  0  0  0  0  0  0  0  0  0
  200.8438  188.1695  159.0012 H   0  0  0  0  0  0  0  0  0  0  0  0
  1  2  2  0
  2  3  1  0
  2 10  1  0
  3  4  1  0
  3 20  1  0
  4  5  1  0
  4  9  2  0
  5  6  2  0
  5 10  1  0
  6  7  1  0
  6 27  1  0
  7  8  2  0
  7 28  1  0
  8  9  1  0
  8 29  1  0
  9 30  1  0
 10 11  1  0
 10 31  1  6
 11 12  1  0
 11 19  1  0
 12 13  1  0
 12 32  1  6
 12 33  1  0
 13 14  2  0
 13 18  1  0
 14 15  1  0
 14 34  1  0
 15 16  2  0
 15 35  1  0
 16 17  1  0
 16 36  1  0
 17 18  2  0
 17 37  1  0
 18 38  1  0
 19 39  1  1
 19 40  1  0
 19 41  1  0
 20 21  1  0
 20 42  1  6
 20 43  1  0
 21 22  2  0
 21 26  1  0
 22 23  1  0
 22 44  1  0
 23 24  2  0
 23 45  1  0
 24 25  1  0
 24 46  1  0
 25 26  2  0
 25 47  1  0
 26 48  1  0
M  END
>  <s_epik_cmdline>  (57) 
J2VwaWtfcHl0aG9uJywgJy1waCcsICc3LjAwMDAwMCcsICctcGh0JywgJzIuMDAwMDAwJywgJy1tcycsICcxNicsICctdG4nLCAnOCcsICctbWEnLCAnMjAwJywgJy1pbWFlJywgJzxpbmZpbGUubWFlPicsICctb21hZScsICc8b3V0ZmlsZS5tYWU+Jw==

>  <s_epik_input>  (57) 
W2NIXTFbY0hdW2NIXVtjSF1bY0hdYzFbQ0gyXU4yQyg9TylbQ0BASF0oYyhjMjMpW2NIXVtjSF1bY0hdW2NIXTMpTihbQ0gzXSlbQ0gyXWM0W2NIXVtjSF1bY0hdW2NIXVtjSF00

>  <s_i_glide_gridfile>  (57) 
ATP-Grid

>  <s_lp_Force_Field>  (57) 
OPLS_2005

>  <s_lp_Variant>  (57) 
rxn207____EMOL952557____EMOL480996-1

>  <s_lp_label>  (57) 
2837_sdstereoexpander_1_neutralizer_1_epik_1_stereoizer_1

>  <s_m_source_file>  (57) 
ATP-VSW-LIGPREP-002-in.maegz

>  <s_sd_BIOSOLVEIT.INFINISEE\_QUERY\_NAME>  (57) 
Ref-Lig

>  <s_sd_BIOSOLVEIT.INFINISEE\_QUERY\_SMILES>  (57) 
S(c1nc2c(cc1C[NH2+]Cc3ccc(cc3)C[NH+](C)C)cccc2)Cc4ccccc4

>  <s_sd_BIOSOLVEIT.INFINISEE\_REACTION\_NAME>  (57) 
rxn207

>  <s_sd_BIOSOLVEIT.INFINISEE\_REAGENT1\_NAME>  (57) 
EMOL952557

>  <s_sd_BIOSOLVEIT.INFINISEE\_REAGENT1\_SMILES>  (57) 
O=C1N(c2c(cccc2)C1=O)Cc3ccccc3

>  <s_sd_BIOSOLVEIT.INFINISEE\_REAGENT2\_NAME>  (57) 
EMOL480996

>  <s_sd_BIOSOLVEIT.INFINISEE\_REAGENT2\_SMILES>  (57) 
N(Cc1ccccc1)C

>  <s_sd_BIOSOLVEIT.INFINISEE\_SPACE>  (57) 
eXplore_7tr_2022-12

>  <s_vsw_compound_code>  (57) 
90754

>  <s_vsw_variant>  (57) 
90754-1

>  <r_epik_Charging_Adjusted_Penalty>  (57) 
0.074854744297062598

>  <r_epik_Ionization_Penalty>  (57) 
0.074899999999999994

>  <r_epik_Ionization_Penalty_Charging>  (57) 
0

>  <r_epik_Ionization_Penalty_Neutral>  (57) 
0.074899999999999994

>  <r_epik_State_Penalty>  (57) 
0.074899999999999994

>  <r_i_docking_score>  (57) 
-4.2011810870485498

>  <r_i_glide_ecoul>  (57) 
-0.41661036014556901

>  <r_i_glide_eff_state_penalty>  (57) 
0.074899999999999994

>  <r_i_glide_einternal>  (57) 
5.5683045387268102

>  <r_i_glide_emodel>  (57) 
-34.9248241088317

>  <r_i_glide_energy>  (57) 
-30.227655053138701

>  <r_i_glide_erotb>  (57) 
0.80855889777762802

>  <r_i_glide_esite>  (57) 
0

>  <r_i_glide_evdw>  (57) 
-29.8110446929932

>  <r_i_glide_gscore>  (57) 
-4.2760810870485502

>  <r_i_glide_hbond>  (57) 
-0.028247810866989801

>  <r_i_glide_ligand_efficiency>  (57) 
-0.161583887963406

>  <r_i_glide_ligand_efficiency_ln>  (57) 
-0.98663359309383503

>  <r_i_glide_ligand_efficiency_sa>  (57) 
-0.47869163228969203

>  <r_i_glide_lipo>  (57) 
-2.1191578936278002

>  <r_i_glide_metal>  (57) 
-0

>  <r_i_glide_rewards>  (57) 
-1.3841904916598999

>  <r_lp_Energy>  (57) 
41.617204999999998

>  <r_qp_ACxDN^.5/SA>  (57) 
0

>  <r_qp_CIQPlogS>  (57) 
-4.1719999999999997

>  <r_qp_EA(eV)>  (57) 
0.22900000000000001

>  <r_qp_FISA>  (57) 
40.494999999999997

>  <r_qp_FOSA>  (57) 
105.053

>  <r_qp_IP(eV)>  (57) 
8.8689999999999998

>  <r_qp_Jm>  (57) 
0.062409325912124197

>  <r_qp_PISA>  (57) 
555.32299999999998

>  <r_qp_PSA>  (57) 
30.721

>  <r_qp_PercentHumanOralAbsorption>  (57) 
100

>  <r_qp_QPPCaco>  (57) 
1020.439

>  <r_qp_QPPMDCK>  (57) 
559.40599999999995

>  <r_qp_QPlogBB>  (57) 
0.223

>  <r_qp_QPlogHERG>  (57) 
-8.3859999999999992

>  <r_qp_QPlogKhsa>  (57) 
0.58999999999999997

>  <r_qp_QPlogKp>  (57) 
-1.8919999999999999

>  <r_qp_QPlogPC16>  (57) 
13.75

>  <r_qp_QPlogPo/w>  (57) 
4.6189999999999998

>  <r_qp_QPlogPoct>  (57) 
17.577000000000002

>  <r_qp_QPlogPw>  (57) 
9.2810000000000006

>  <r_qp_QPlogS>  (57) 
-4.8470000000000004

>  <r_qp_QPpolrz>  (57) 
44.496000000000002

>  <r_qp_SASA>  (57) 
700.87099999999998

>  <r_qp_SAamideO>  (57) 
0

>  <r_qp_SAfluorine>  (57) 
0

>  <r_qp_WPSA>  (57) 
0

>  <r_qp_accptHB>  (57) 
5

>  <r_qp_dip^2/V>  (57) 
0.017382499999999999

>  <r_qp_dipole>  (57) 
4.5919999999999996

>  <r_qp_donorHB>  (57) 
0

>  <r_qp_glob>  (57) 
0.78495179999999998

>  <r_qp_mol_MW>  (57) 
342.44

>  <r_qp_volume>  (57) 
1213.3150000000001

>  <r_sd_BIOSOLVEIT.INFINISEE\_FTREES\_SIMILARITY>  (57) 
0.90600000000000003

>  <r_sd_BIOSOLVEIT.LOGP>  (57) 
2.9893999999999998

>  <r_sd_BIOSOLVEIT.MOLECULAR\_WEIGHT>  (57) 
343.44799999999998

>  <r_sd_BIOSOLVEIT.TPSA>  (57) 
24.75

>  <i_epik_Tot_Q>  (57) 
0

>  <i_epik_Tot_abs_Q>  (57) 
0

>  <i_f3d_flags>  (57) 
0

>  <i_i_glide_confnum>  (57) 
4

>  <i_i_glide_lignum>  (57) 
1392

>  <i_i_glide_posenum>  (57) 
10

>  <i_i_glide_rotatable_bonds>  (57) 
5

>  <i_lp_mmshare_version>  (57) 
65135

>  <i_m_ct_format>  (57) 
2

>  <i_m_source_file_index>  (57) 
2837

>  <i_qp_#NandO>  (57) 
3

>  <i_qp_#acid>  (57) 
0

>  <i_qp_#amide>  (57) 
0

>  <i_qp_#amidine>  (57) 
0

>  <i_qp_#amine>  (57) 
1

>  <i_qp_#in34>  (57) 
0

>  <i_qp_#in56>  (57) 
21

>  <i_qp_#metab>  (57) 
4

>  <i_qp_#nonHatm>  (57) 
26

>  <i_qp_#noncon>  (57) 
1

>  <i_qp_#ringatoms>  (57) 
21

>  <i_qp_#rotor>  (57) 
5

>  <i_qp_#rtvFG>  (57) 
0

>  <i_qp_#stars>  (57) 
1

>  <i_qp_CNS>  (57) 
1

>  <i_qp_HumanOralAbsorption>  (57) 
3

>  <i_qp_RuleOfFive>  (57) 
0

>  <i_qp_RuleOfThree>  (57) 
0

>  <i_sd_BIOSOLVEIT.INFINISEE\_RESULT\_RANK>  (57) 
67180

>  <i_sd_version>  (57) 
0

>  <b_lp_Chiralities_Consistent>  (57) 
1

>  <b_sd_chiral_flag>  (57) 
0

>  <canonical_id>  (57) 
ATP-HTVS-0A1AFDA96BE3

>  <compound_code>  (57) 
90754

>  <title>  (57) 
rxn207____EMOL952557____EMOL480996

>  <variant>  (57) 
90754-1

>  <source_file>  (57) 
运行/运行/ATP-VSW/ATP-VSW-DOCK_HTVS_1-002_lib.maegz

>  <canonical_smiles>  (57) 
CN(Cc1ccccc1)[C@H]1C(=O)N(Cc2ccccc2)c2ccccc21

>  <scaffold>  (57) 
O=C1C(NCc2ccccc2)c2ccccc2N1Cc1ccccc1

>  <molecular_formula>  (57) 
C23H22N2O

$$$$
ATP-HTVS-0A1D74055304
     RDKit          3D

 58 61  0  0  0  0  0  0  0  0999 V2000
  200.2953  180.8011  155.9404 O   0  0  0  0  0  0  0  0  0  0  0  0
  199.7880  180.2096  154.8001 C   0  0  0  0  0  0  0  0  0  0  0  0
  198.6726  180.8281  154.1704 C   0  0  0  0  0  0  0  0  0  0  0  0
  198.1037  180.2518  152.9986 C   0  0  0  0  0  0  0  0  0  0  0  0
  198.6578  179.0479  152.4816 C   0  0  0  0  0  0  0  0  0  0  0  0
  199.7491  178.4312  153.1202 C   0  0  0  0  0  0  0  0  0  0  0  0
  200.3212  179.0133  154.2602 C   0  0  0  0  0  0  0  0  0  0  0  0
  198.1242  178.4469  151.3236 C   0  0  0  0  0  0  0  0  0  0  0  0
  197.0502  179.0500  150.6476 C   0  0  0  0  0  0  0  0  0  0  0  0
  196.4870  180.2373  151.1495 C   0  0  0  0  0  0  0  0  0  0  0  0
  197.0017  180.8324  152.3165 C   0  0  0  0  0  0  0  0  0  0  0  0
  198.0972  182.0933  154.8065 C   0  0  1  0  0  0  0  0  0  0  0  0
  197.1552  181.7376  155.8914 N   0  0  1  0  0  0  0  0  0  0  0  0
  196.6957  182.8924  156.6818 C   0  0  1  0  0  0  0  0  0  0  0  0
  196.0678  182.4524  158.0131 C   0  0  1  0  0  0  0  0  0  0  0  0
  195.7429  183.6373  158.9105 C   0  0  0  0  0  0  0  0  0  0  0  0
  196.7774  184.4946  159.3430 C   0  0  0  0  0  0  0  0  0  0  0  0
  196.4841  185.6235  160.1297 C   0  0  0  0  0  0  0  0  0  0  0  0
  195.1567  185.8899  160.5201 C   0  0  0  0  0  0  0  0  0  0  0  0
  194.1303  185.0075  160.1302 C   0  0  0  0  0  0  0  0  0  0  0  0
  194.4182  183.8889  159.3235 C   0  0  0  0  0  0  0  0  0  0  0  0
  194.8388  187.1127  161.3546 C   0  0  1  0  0  0  0  0  0  0  0  0
  195.5515  188.2640  160.9498 O   0  0  0  0  0  0  0  0  0  0  0  0
  201.5092  180.3097  156.5092 C   0  0  1  0  0  0  0  0  0  0  0  0
  201.8578  181.0253  157.8011 C   0  0  0  0  0  0  0  0  0  0  0  0
  201.2923  182.2811  158.1090 C   0  0  0  0  0  0  0  0  0  0  0  0
  201.5886  182.9087  159.3332 C   0  0  0  0  0  0  0  0  0  0  0  0
  202.4620  182.2923  160.2498 C   0  0  0  0  0  0  0  0  0  0  0  0
  203.0442  181.0478  159.9388 C   0  0  0  0  0  0  0  0  0  0  0  0
  202.7467  180.4188  158.7150 C   0  0  0  0  0  0  0  0  0  0  0  0
  196.3462  181.2576  155.5252 H   0  0  0  0  0  0  0  0  0  0  0  0
  200.1508  177.5006  152.7445 H   0  0  0  0  0  0  0  0  0  0  0  0
  201.1559  178.4986  154.7138 H   0  0  0  0  0  0  0  0  0  0  0  0
  198.5448  177.5241  150.9467 H   0  0  0  0  0  0  0  0  0  0  0  0
  196.6594  178.5987  149.7463 H   0  0  0  0  0  0  0  0  0  0  0  0
  195.6585  180.6958  150.6323 H   0  0  0  0  0  0  0  0  0  0  0  0
  196.5178  181.7367  152.6530 H   0  0  0  0  0  0  0  0  0  0  0  0
  198.9241  182.6724  155.2184 H   0  0  0  0  0  0  0  0  0  0  0  0
  197.6184  182.7696  154.0958 H   0  0  0  0  0  0  0  0  0  0  0  0
  197.5452  183.5481  156.8690 H   0  0  0  0  0  0  0  0  0  0  0  0
  195.9781  183.4627  156.0919 H   0  0  0  0  0  0  0  0  0  0  0  0
  195.1649  181.8739  157.8101 H   0  0  0  0  0  0  0  0  0  0  0  0
  196.7419  181.7913  158.5623 H   0  0  0  0  0  0  0  0  0  0  0  0
  197.8006  184.3060  159.0584 H   0  0  0  0  0  0  0  0  0  0  0  0
  197.2826  186.2850  160.4346 H   0  0  0  0  0  0  0  0  0  0  0  0
  193.1093  185.1974  160.4263 H   0  0  0  0  0  0  0  0  0  0  0  0
  193.6160  183.2388  159.0003 H   0  0  0  0  0  0  0  0  0  0  0  0
  193.7741  187.3382  161.3195 H   0  0  0  0  0  0  0  0  0  0  0  0
  195.0839  186.8883  162.3920 H   0  0  0  0  0  0  0  0  0  0  0  0
  195.0681  188.6870  160.2413 H   0  0  0  0  0  0  0  0  0  0  0  0
  201.4267  179.2475  156.7471 H   0  0  0  0  0  0  0  0  0  0  0  0
  202.3303  180.4346  155.8005 H   0  0  0  0  0  0  0  0  0  0  0  0
  200.6140  182.7622  157.4205 H   0  0  0  0  0  0  0  0  0  0  0  0
  201.1422  183.8616  159.5687 H   0  0  0  0  0  0  0  0  0  0  0  0
  202.6829  182.7729  161.1917 H   0  0  0  0  0  0  0  0  0  0  0  0
  203.7101  180.5676  160.6418 H   0  0  0  0  0  0  0  0  0  0  0  0
  203.1755  179.4519  158.4897 H   0  0  0  0  0  0  0  0  0  0  0  0
  197.6316  181.1011  156.5165 H   0  0  0  0  0  0  0  0  0  0  0  0
  1  2  1  0
  1 24  1  0
  2  3  2  0
  2  7  1  0
  3  4  1  0
  3 12  1  0
  4  5  1  0
  4 11  2  0
  5  6  1  0
  5  8  2  0
  6  7  2  0
  6 32  1  0
  7 33  1  0
  8  9  1  0
  8 34  1  0
  9 10  2  0
  9 35  1  0
 10 11  1  0
 10 36  1  0
 11 37  1  0
 12 13  1  0
 12 38  1  1
 12 39  1  0
 13 14  1  0
 13 31  1  6
 13 58  1  0
 14 15  1  0
 14 40  1  1
 14 41  1  0
 15 16  1  0
 15 42  1  6
 15 43  1  0
 16 17  1  0
 16 21  2  0
 17 18  2  0
 17 44  1  0
 18 19  1  0
 18 45  1  0
 19 20  2  0
 19 22  1  0
 20 21  1  0
 20 46  1  0
 21 47  1  0
 22 23  1  0
 22 48  1  1
 22 49  1  0
 23 50  1  0
 24 25  1  0
 24 51  1  1
 24 52  1  0
 25 26  2  0
 25 30  1  0
 26 27  1  0
 26 53  1  0
 27 28  2  0
 27 54  1  0
 28 29  1  0
 28 55  1  0
 29 30  2  0
 29 56  1  0
 30 57  1  0
M  CHG  1  13   1
M  END
>  <s_epik_cmdline>  (58) 
J2VwaWtfcHl0aG9uJywgJy1waCcsICc3LjAwMDAwMCcsICctcGh0JywgJzIuMDAwMDAwJywgJy1tcycsICcxNicsICctdG4nLCAnOCcsICctbWEnLCAnMjAwJywgJy1pbWFlJywgJzxpbmZpbGUubWFlPicsICctb21hZScsICc8b3V0ZmlsZS5tYWU+Jw==

>  <s_epik_input>  (58) 
W2NIXTFbY0hdW2NIXVtjSF1bY0hdYzFbQ0gyXU9jKFtjSF1bY0hdYyhjMjMpW2NIXVtjSF1bY0hdW2NIXTMpYzJbQ0gyXVtOSF1bQ0gyXVtDSDJdYzRbY0hdW2NIXWMoW2NIXVtjSF00KVtDSDJdW09IXQ==

>  <s_i_glide_gridfile>  (58) 
ATP-Grid

>  <s_lp_Force_Field>  (58) 
OPLS_2005

>  <s_lp_Variant>  (58) 
m_270004bbb____15507316____21002124-1

>  <s_lp_label>  (58) 
910_sdstereoexpander_1_neutralizer_1_epik_1_stereoizer_1

>  <s_m_source_file>  (58) 
ATP-VSW-LIGPREP-001-in.maegz

>  <s_sd_BIOSOLVEIT.INFINISEE\_QUERY\_NAME>  (58) 
Ref-Lig

>  <s_sd_BIOSOLVEIT.INFINISEE\_QUERY\_SMILES>  (58) 
S(c1nc2c(cc1C[NH2+]Cc3ccc(cc3)C[NH+](C)C)cccc2)Cc4ccccc4

>  <s_sd_BIOSOLVEIT.INFINISEE\_REACTION\_NAME>  (58) 
m_270004bbb

>  <s_sd_BIOSOLVEIT.INFINISEE\_REAGENT1\_SMILES>  (58) 
[R1*]NCCc1ccc(cc1)CO

>  <s_sd_BIOSOLVEIT.INFINISEE\_REAGENT2\_SMILES>  (58) 
[R1*]Cc1c(OCc2ccccc2)ccc3c1cccc3

>  <s_sd_BIOSOLVEIT.INFINISEE\_SPACE>  (58) 
REALSpace_44bn_2023-08

>  <s_vsw_compound_code>  (58) 
29089

>  <s_vsw_variant>  (58) 
29089-1

>  <r_epik_Charging_Adjusted_Penalty>  (58) 
0.0364061500921396

>  <r_epik_Ionization_Penalty>  (58) 
0.018200000000000001

>  <r_epik_Ionization_Penalty_Charging>  (58) 
0.018200000000000001

>  <r_epik_Ionization_Penalty_Neutral>  (58) 
0

>  <r_epik_State_Penalty>  (58) 
0.018200000000000001

>  <r_i_docking_score>  (58) 
-5.1611502410322201

>  <r_i_glide_ecoul>  (58) 
-8.1693391799926793

>  <r_i_glide_eff_state_penalty>  (58) 
0.018200000000000001

>  <r_i_glide_einternal>  (58) 
3.5060410499572798

>  <r_i_glide_emodel>  (58) 
-57.242043070055999

>  <r_i_glide_energy>  (58) 
-40.731205940246603

>  <r_i_glide_erotb>  (58) 
1.1098960804415201

>  <r_i_glide_esite>  (58) 
-0.046644939479311302

>  <r_i_glide_evdw>  (58) 
-32.561866760253899

>  <r_i_glide_gscore>  (58) 
-5.1793502410322203

>  <r_i_glide_hbond>  (58) 
-0.32000000000000001

>  <r_i_glide_ligand_efficiency>  (58) 
-0.17203834136774099

>  <r_i_glide_ligand_efficiency_ln>  (58) 
-1.1726695699984799

>  <r_i_glide_ligand_efficiency_sa>  (58) 
-0.53456312596217803

>  <r_i_glide_lipo>  (58) 
-2.1521757124373702

>  <r_i_glide_metal>  (58) 
-0

>  <r_i_glide_rewards>  (58) 
-0.916931454545453

>  <r_lp_Energy>  (58) 
25.531047000000001

>  <r_qp_ACxDN^.5/SA>  (58) 
0.0089495000000000009

>  <r_qp_CIQPlogS>  (58) 
-5.8860000000000001

>  <r_qp_EA(eV)>  (58) 
0.442

>  <r_qp_FISA>  (58) 
39.814

>  <r_qp_FOSA>  (58) 
166.21000000000001

>  <r_qp_IP(eV)>  (58) 
8.1300000000000008

>  <r_qp_Jm>  (58) 
3.12906688986005

>  <r_qp_PISA>  (58) 
418.16300000000001

>  <r_qp_PSA>  (58) 
38.049999999999997

>  <r_qp_PercentHumanOralAbsorption>  (58) 
100

>  <r_qp_QPPCaco>  (58) 
1035.72

>  <r_qp_QPPMDCK>  (58) 
568.46699999999998

>  <r_qp_QPlogBB>  (58) 
0.025000000000000001

>  <r_qp_QPlogHERG>  (58) 
-6.0190000000000001

>  <r_qp_QPlogKhsa>  (58) 
0.73399999999999999

>  <r_qp_QPlogKp>  (58) 
-1.883

>  <r_qp_QPlogPC16>  (58) 
13.41

>  <r_qp_QPlogPo/w>  (58) 
4.899

>  <r_qp_QPlogPoct>  (58) 
18.423999999999999

>  <r_qp_QPlogPw>  (58) 
8.9499999999999993

>  <r_qp_QPlogS>  (58) 
-3.2210000000000001

>  <r_qp_QPpolrz>  (58) 
40.756

>  <r_qp_SASA>  (58) 
624.18799999999999

>  <r_qp_SAamideO>  (58) 
0

>  <r_qp_SAfluorine>  (58) 
0

>  <r_qp_WPSA>  (58) 
0

>  <r_qp_accptHB>  (58) 
3.9500000000000002

>  <r_qp_dip^2/V>  (58) 
0.0017451000000000001

>  <r_qp_dipole>  (58) 
1.4670000000000001

>  <r_qp_donorHB>  (58) 
2

>  <r_qp_glob>  (58) 
0.89080950000000003

>  <r_qp_mol_MW>  (58) 
397.51600000000002

>  <r_qp_volume>  (58) 
1232.829

>  <r_sd_BIOSOLVEIT.INFINISEE\_FTREES\_SIMILARITY>  (58) 
0.91900000000000004

>  <r_sd_BIOSOLVEIT.LOGP>  (58) 
4.2172000000000001

>  <r_sd_BIOSOLVEIT.MOLECULAR\_WEIGHT>  (58) 
398.52300000000002

>  <r_sd_BIOSOLVEIT.TPSA>  (58) 
46.07

>  <i_epik_Tot_Q>  (58) 
1

>  <i_epik_Tot_abs_Q>  (58) 
1

>  <i_f3d_flags>  (58) 
0

>  <i_i_glide_confnum>  (58) 
7

>  <i_i_glide_lignum>  (58) 
177

>  <i_i_glide_posenum>  (58) 
6

>  <i_i_glide_rotatable_bonds>  (58) 
10

>  <i_lp_mmshare_version>  (58) 
65135

>  <i_m_ct_format>  (58) 
2

>  <i_m_source_file_index>  (58) 
910

>  <i_qp_#NandO>  (58) 
3

>  <i_qp_#acid>  (58) 
0

>  <i_qp_#amide>  (58) 
0

>  <i_qp_#amidine>  (58) 
0

>  <i_qp_#amine>  (58) 
1

>  <i_qp_#in34>  (58) 
0

>  <i_qp_#in56>  (58) 
22

>  <i_qp_#metab>  (58) 
6

>  <i_qp_#nonHatm>  (58) 
30

>  <i_qp_#noncon>  (58) 
0

>  <i_qp_#ringatoms>  (58) 
22

>  <i_qp_#rotor>  (58) 
10

>  <i_qp_#rtvFG>  (58) 
0

>  <i_qp_#stars>  (58) 
0

>  <i_qp_CNS>  (58) 
1

>  <i_qp_HumanOralAbsorption>  (58) 
3

>  <i_qp_RuleOfFive>  (58) 
0

>  <i_qp_RuleOfThree>  (58) 
0

>  <i_sd_BIOSOLVEIT.INFINISEE\_REAGENT1\_NAME>  (58) 
15507316

>  <i_sd_BIOSOLVEIT.INFINISEE\_REAGENT2\_NAME>  (58) 
21002124

>  <i_sd_BIOSOLVEIT.INFINISEE\_RESULT\_RANK>  (58) 
19503

>  <i_sd_version>  (58) 
0

>  <b_lp_Chiralities_Consistent>  (58) 
1

>  <b_sd_chiral_flag>  (58) 
0

>  <canonical_id>  (58) 
ATP-HTVS-0A1D74055304

>  <compound_code>  (58) 
29089

>  <title>  (58) 
m_270004bbb____15507316____21002124

>  <variant>  (58) 
29089-1

>  <source_file>  (58) 
运行/运行/ATP-VSW/ATP-VSW-DOCK_HTVS_1-001_lib/ATP-VSW-DOCK_HTVS_1-001_lib

>  <canonical_smiles>  (58) 
OCc1ccc(CC[NH2+]Cc2c(OCc3ccccc3)ccc3ccccc23)cc1

>  <scaffold>  (58) 
c1ccc(CC[NH2+]Cc2c(OCc3ccccc3)ccc3ccccc23)cc1

>  <molecular_formula>  (58) 
C27H28NO2+

$$$$
ATP-HTVS-0A30D9D79A37
     RDKit          3D

 65 69  0  0  0  0  0  0  0  0999 V2000
  199.1755  187.3442  154.1884 O   0  0  0  0  0  0  0  0  0  0  0  0
  199.4198  186.1582  153.9866 C   0  0  0  0  0  0  0  0  0  0  0  0
  199.0095  185.1427  154.7687 N   0  0  0  0  0  0  0  0  0  0  0  0
  198.1300  185.1974  155.8991 C   0  0  0  0  0  0  0  0  0  0  0  0
  197.5418  183.9873  156.3399 C   0  0  0  0  0  0  0  0  0  0  0  0
  197.9038  182.8037  155.6562 N   0  0  0  0  0  0  0  0  0  0  0  0
  196.8124  182.1309  154.9104 C   0  0  1  0  0  0  0  0  0  0  0  0
  197.3031  181.1563  153.8392 C   0  0  0  0  0  0  0  0  0  0  0  0
  197.8666  179.8824  154.1590 C   0  0  0  0  0  0  0  0  0  0  0  0
  198.3066  179.0624  153.0819 C   0  0  0  0  0  0  0  0  0  0  0  0
  198.1381  179.4401  151.7384 C   0  0  0  0  0  0  0  0  0  0  0  0
  197.5500  180.6798  151.4441 C   0  0  0  0  0  0  0  0  0  0  0  0
  197.1481  181.5327  152.4872 C   0  0  0  0  0  0  0  0  0  0  0  0
  198.0177  179.3360  155.5960 C   0  0  1  0  0  0  0  0  0  0  0  0
  199.4582  179.0580  155.8884 N   0  0  1  0  0  0  0  0  0  0  0  0
  199.9242  179.3819  157.2536 C   0  0  1  0  0  0  0  0  0  0  0  0
  201.2332  178.6144  157.4345 C   0  0  1  0  0  0  0  0  0  0  0  0
  201.1549  177.4570  156.4395 C   0  0  1  0  0  0  0  0  0  0  0  0
  199.8033  177.6315  155.7513 C   0  0  1  0  0  0  0  0  0  0  0  0
  198.9423  182.0735  156.3200 C   0  0  2  0  0  0  0  0  0  0  0  0
  196.6824  184.0192  157.4889 C   0  0  0  0  0  0  0  0  0  0  0  0
  196.4324  185.2701  158.1006 C   0  0  0  0  0  0  0  0  0  0  0  0
  196.9856  186.4166  157.6556 N   0  0  0  0  0  0  0  0  0  0  0  0
  197.8215  186.3693  156.5975 C   0  0  0  0  0  0  0  0  0  0  0  0
  195.5444  185.3395  159.2012 C   0  0  0  0  0  0  0  0  0  0  0  0
  194.9255  184.1822  159.6939 C   0  0  0  0  0  0  0  0  0  0  0  0
  195.1831  182.9389  159.1022 C   0  0  0  0  0  0  0  0  0  0  0  0
  196.0681  182.8498  158.0085 C   0  0  0  0  0  0  0  0  0  0  0  0
  200.1643  185.7496  152.7493 C   0  0  0  0  0  0  0  0  0  0  0  0
  200.0774  186.5595  151.5947 C   0  0  0  0  0  0  0  0  0  0  0  0
  200.7645  186.2006  150.4216 C   0  0  0  0  0  0  0  0  0  0  0  0
  201.5549  185.0366  150.3980 C   0  0  0  0  0  0  0  0  0  0  0  0
  201.6651  184.2368  151.5510 C   0  0  0  0  0  0  0  0  0  0  0  0
  200.9796  184.5940  152.7275 C   0  0  0  0  0  0  0  0  0  0  0  0
  199.2550  184.2121  154.4629 H   0  0  0  0  0  0  0  0  0  0  0  0
  196.1219  181.5858  155.5622 H   0  0  0  0  0  0  0  0  0  0  0  0
  196.2055  182.9001  154.4322 H   0  0  0  0  0  0  0  0  0  0  0  0
  198.7524  178.1018  153.2663 H   0  0  0  0  0  0  0  0  0  0  0  0
  198.4532  178.7541  150.9635 H   0  0  0  0  0  0  0  0  0  0  0  0
  197.4179  180.9590  150.4147 H   0  0  0  0  0  0  0  0  0  0  0  0
  196.6915  182.4824  152.2381 H   0  0  0  0  0  0  0  0  0  0  0  0
  197.5340  179.9699  156.3024 H   0  0  0  0  0  0  0  0  0  0  0  0
  197.4488  178.3931  155.6551 H   0  0  0  0  0  0  0  0  0  0  0  0
  200.1178  180.4353  157.4623 H   0  0  0  0  0  0  0  0  0  0  0  0
  199.1703  178.9979  157.9492 H   0  0  0  0  0  0  0  0  0  0  0  0
  202.0722  179.2705  157.1810 H   0  0  0  0  0  0  0  0  0  0  0  0
  201.3588  178.2908  158.4727 H   0  0  0  0  0  0  0  0  0  0  0  0
  201.9569  177.5437  155.7020 H   0  0  0  0  0  0  0  0  0  0  0  0
  201.2205  176.4871  156.9350 H   0  0  0  0  0  0  0  0  0  0  0  0
  199.0510  177.0614  156.2958 H   0  0  0  0  0  0  0  0  0  0  0  0
  199.8373  177.2574  154.7288 H   0  0  0  0  0  0  0  0  0  0  0  0
  199.5502  182.6682  157.0338 H   0  0  0  0  0  0  0  0  0  0  0  0
  199.6225  181.6567  155.5448 H   0  0  0  0  0  0  0  0  0  0  0  0
  198.4888  181.3345  156.8981 H   0  0  0  0  0  0  0  0  0  0  0  0
  198.2378  187.3237  156.3237 H   0  0  0  0  0  0  0  0  0  0  0  0
  195.3429  186.2972  159.6479 H   0  0  0  0  0  0  0  0  0  0  0  0
  194.2477  184.2558  160.5306 H   0  0  0  0  0  0  0  0  0  0  0  0
  194.7073  182.0441  159.4729 H   0  0  0  0  0  0  0  0  0  0  0  0
  196.2339  181.8739  157.5865 H   0  0  0  0  0  0  0  0  0  0  0  0
  199.4704  187.4545  151.6021 H   0  0  0  0  0  0  0  0  0  0  0  0
  200.6824  186.8173  149.5396 H   0  0  0  0  0  0  0  0  0  0  0  0
  202.0797  184.7606  149.4964 H   0  0  0  0  0  0  0  0  0  0  0  0
  202.2759  183.3468  151.5337 H   0  0  0  0  0  0  0  0  0  0  0  0
  201.0844  183.9696  153.6035 H   0  0  0  0  0  0  0  0  0  0  0  0
  200.0453  179.5784  155.2440 H   0  0  0  0  0  0  0  0  0  0  0  0
  1  2  2  0
  2  3  1  0
  2 29  1  0
  3  4  1  0
  3 35  1  0
  4  5  2  0
  4 24  1  0
  5  6  1  0
  5 21  1  0
  6  7  1  0
  6 20  1  0
  7  8  1  0
  7 36  1  1
  7 37  1  0
  8  9  1  0
  8 13  2  0
  9 10  2  0
  9 14  1  0
 10 11  1  0
 10 38  1  0
 11 12  2  0
 11 39  1  0
 12 13  1  0
 12 40  1  0
 13 41  1  0
 14 15  1  0
 14 42  1  1
 14 43  1  0
 15 16  1  0
 15 19  1  0
 15 65  1  6
 16 17  1  0
 16 44  1  6
 16 45  1  0
 17 18  1  0
 17 46  1  6
 17 47  1  0
 18 19  1  0
 18 48  1  6
 18 49  1  0
 19 50  1  1
 19 51  1  0
 20 52  1  1
 20 53  1  0
 20 54  1  0
 21 22  1  0
 21 28  2  0
 22 23  1  0
 22 25  2  0
 23 24  2  0
 24 55  1  0
 25 26  1  0
 25 56  1  0
 26 27  2  0
 26 57  1  0
 27 28  1  0
 27 58  1  0
 28 59  1  0
 29 30  2  0
 29 34  1  0
 30 31  1  0
 30 60  1  0
 31 32  2  0
 31 61  1  0
 32 33  1  0
 32 62  1  0
 33 34  2  0
 33 63  1  0
 34 64  1  0
M  CHG  1  15   1
M  END
>  <s_epik_cmdline>  (59) 
J2VwaWtfcHl0aG9uJywgJy1waCcsICc3LjAwMDAwMCcsICctcGh0JywgJzIuMDAwMDAwJywgJy1tcycsICcxNicsICctdG4nLCAnOCcsICctbWEnLCAnMjAwJywgJy1pbWFlJywgJzxpbmZpbGUubWFlPicsICctb21hZScsICc8b3V0ZmlsZS5tYWU+Jw==

>  <s_epik_input>  (59) 
W2NIXTFbY0hdW2NIXVtjSF1bY0hdYzFDKD1PKVtOSF1jKFtjSF1uYyhjMjMpW2NIXVtjSF1bY0hdW2NIXTMpYzJOKFtDSDNdKVtDSDJdYzRjKFtjSF1bY0hdW2NIXVtjSF00KVtDSDJdTjVbQ0gyXVtDSDJdW0NIMl1bQ0gyXTU=

>  <s_i_glide_gridfile>  (59) 
ATP-Grid

>  <s_lp_Force_Field>  (59) 
OPLS_2005

>  <s_lp_Variant>  (59) 
rxn502c____EMOL478180____EMOL44472687____EMOL5415369-2

>  <s_lp_label>  (59) 
2786_sdstereoexpander_1_neutralizer_1_epik_2_stereoizer_1

>  <s_m_source_file>  (59) 
ATP-VSW-LIGPREP-003-in.maegz

>  <s_sd_BIOSOLVEIT.INFINISEE\_QUERY\_NAME>  (59) 
Ref-Lig

>  <s_sd_BIOSOLVEIT.INFINISEE\_QUERY\_SMILES>  (59) 
S(c1nc2c(cc1C[NH2+]Cc3ccc(cc3)C[NH+](C)C)cccc2)Cc4ccccc4

>  <s_sd_BIOSOLVEIT.INFINISEE\_REACTION\_NAME>  (59) 
rxn502c

>  <s_sd_BIOSOLVEIT.INFINISEE\_REAGENT1\_NAME>  (59) 
EMOL478180

>  <s_sd_BIOSOLVEIT.INFINISEE\_REAGENT1\_SMILES>  (59) 
[O-]C(=O)c1ccccc1

>  <s_sd_BIOSOLVEIT.INFINISEE\_REAGENT2\_NAME>  (59) 
EMOL44472687

>  <s_sd_BIOSOLVEIT.INFINISEE\_REAGENT2\_SMILES>  (59) 
Clc1c(N)cnc2c1cccc2

>  <s_sd_BIOSOLVEIT.INFINISEE\_REAGENT3\_NAME>  (59) 
EMOL5415369

>  <s_sd_BIOSOLVEIT.INFINISEE\_REAGENT3\_SMILES>  (59) 
N1(Cc2c(cccc2)CNC)CCCC1

>  <s_sd_BIOSOLVEIT.INFINISEE\_SPACE>  (59) 
eXplore_7tr_2022-12

>  <s_vsw_compound_code>  (59) 
89123

>  <s_vsw_variant>  (59) 
89123-2

>  <r_epik_Charging_Adjusted_Penalty>  (59) 
1.5844686980486899

>  <r_epik_Ionization_Penalty>  (59) 
1.5811999999999999

>  <r_epik_Ionization_Penalty_Charging>  (59) 
0.0074999999999999997

>  <r_epik_Ionization_Penalty_Neutral>  (59) 
1.5737000000000001

>  <r_epik_State_Penalty>  (59) 
1.577

>  <r_i_docking_score>  (59) 
-1.8144976552467

>  <r_i_glide_ecoul>  (59) 
-6.01888179779053

>  <r_i_glide_eff_state_penalty>  (59) 
1.577

>  <r_i_glide_einternal>  (59) 
4.0536322593689

>  <r_i_glide_emodel>  (59) 
-47.565959390520497

>  <r_i_glide_energy>  (59) 
-38.274073600769

>  <r_i_glide_erotb>  (59) 
0.78687952345458301

>  <r_i_glide_esite>  (59) 
-0.071773891579373403

>  <r_i_glide_evdw>  (59) 
-32.255191802978501

>  <r_i_glide_gscore>  (59) 
-3.3914976552467002

>  <r_i_glide_hbond>  (59) 
0

>  <r_i_glide_ligand_efficiency>  (59) 
-0.0533675780954911

>  <r_i_glide_ligand_efficiency_ln>  (59) 
-0.40087342697929901

>  <r_i_glide_ligand_efficiency_sa>  (59) 
-0.17289023560052599

>  <r_i_glide_lipo>  (59) 
-1.0358930636680399

>  <r_i_glide_metal>  (59) 
-0

>  <r_i_glide_rewards>  (59) 
-0.55511836363636202

>  <r_lp_Energy>  (59) 
54.068053999999997

>  <r_qp_ACxDN^.5/SA>  (59) 
0.0092044999999999991

>  <r_qp_CIQPlogS>  (59) 
-6.0860000000000003

>  <r_qp_EA(eV)>  (59) 
1.0760000000000001

>  <r_qp_FISA>  (59) 
50.886000000000003

>  <r_qp_FOSA>  (59) 
248.33799999999999

>  <r_qp_IP(eV)>  (59) 
8.6809999999999992

>  <r_qp_Jm>  (59) 
0.076613260959264295

>  <r_qp_PISA>  (59) 
406.94999999999999

>  <r_qp_PSA>  (59) 
49.706000000000003

>  <r_qp_PercentHumanOralAbsorption>  (59) 
100

>  <r_qp_QPPCaco>  (59) 
813.29499999999996

>  <r_qp_QPPMDCK>  (59) 
437.74200000000002

>  <r_qp_QPlogBB>  (59) 
0.075999999999999998

>  <r_qp_QPlogHERG>  (59) 
-6.5510000000000002

>  <r_qp_QPlogKhsa>  (59) 
0.84299999999999997

>  <r_qp_QPlogKp>  (59) 
-2.4140000000000001

>  <r_qp_QPlogPC16>  (59) 
14.538

>  <r_qp_QPlogPo/w>  (59) 
4.9299999999999997

>  <r_qp_QPlogPoct>  (59) 
21.719999999999999

>  <r_qp_QPlogPw>  (59) 
10.856

>  <r_qp_QPlogS>  (59) 
-4.3550000000000004

>  <r_qp_QPpolrz>  (59) 
49.027000000000001

>  <r_qp_SASA>  (59) 
706.173

>  <r_qp_SAamideO>  (59) 
0

>  <r_qp_SAfluorine>  (59) 
0

>  <r_qp_WPSA>  (59) 
0

>  <r_qp_accptHB>  (59) 
6.5

>  <r_qp_dip^2/V>  (59) 
0.030947700000000002

>  <r_qp_dipole>  (59) 
6.5679999999999996

>  <r_qp_donorHB>  (59) 
1

>  <r_qp_glob>  (59) 
0.85461259999999994

>  <r_qp_mol_MW>  (59) 
450.58199999999999

>  <r_qp_volume>  (59) 
1394.0340000000001

>  <r_sd_BIOSOLVEIT.INFINISEE\_FTREES\_SIMILARITY>  (59) 
0.90700000000000003

>  <r_sd_BIOSOLVEIT.LOGP>  (59) 
4.3022

>  <r_sd_BIOSOLVEIT.MOLECULAR\_WEIGHT>  (59) 
451.59100000000001

>  <r_sd_BIOSOLVEIT.TPSA>  (59) 
49.670000000000002

>  <i_epik_Tot_Q>  (59) 
1

>  <i_epik_Tot_abs_Q>  (59) 
1

>  <i_f3d_flags>  (59) 
0

>  <i_i_glide_confnum>  (59) 
4

>  <i_i_glide_lignum>  (59) 
1326

>  <i_i_glide_posenum>  (59) 
8

>  <i_i_glide_rotatable_bonds>  (59) 
8

>  <i_lp_mmshare_version>  (59) 
65135

>  <i_m_ct_format>  (59) 
2

>  <i_m_source_file_index>  (59) 
2786

>  <i_qp_#NandO>  (59) 
5

>  <i_qp_#acid>  (59) 
0

>  <i_qp_#amide>  (59) 
0

>  <i_qp_#amidine>  (59) 
0

>  <i_qp_#amine>  (59) 
1

>  <i_qp_#in34>  (59) 
0

>  <i_qp_#in56>  (59) 
27

>  <i_qp_#metab>  (59) 
5

>  <i_qp_#nonHatm>  (59) 
34

>  <i_qp_#noncon>  (59) 
4

>  <i_qp_#ringatoms>  (59) 
27

>  <i_qp_#rotor>  (59) 
7

>  <i_qp_#rtvFG>  (59) 
0

>  <i_qp_#stars>  (59) 
0

>  <i_qp_CNS>  (59) 
1

>  <i_qp_HumanOralAbsorption>  (59) 
3

>  <i_qp_RuleOfFive>  (59) 
0

>  <i_qp_RuleOfThree>  (59) 
0

>  <i_sd_BIOSOLVEIT.INFINISEE\_RESULT\_RANK>  (59) 
62281

>  <i_sd_version>  (59) 
0

>  <b_lp_Chiralities_Consistent>  (59) 
1

>  <b_sd_chiral_flag>  (59) 
0

>  <canonical_id>  (59) 
ATP-HTVS-0A30D9D79A37

>  <compound_code>  (59) 
89123

>  <title>  (59) 
rxn502c____EMOL478180____EMOL44472687____EMOL5415369

>  <variant>  (59) 
89123-2

>  <source_file>  (59) 
运行/运行/ATP-VSW/ATP-VSW-DOCK_HTVS_1-003_lib/ATP-VSW-DOCK_HTVS_1-003_lib.mae

>  <canonical_smiles>  (59) 
CN(Cc1ccccc1C[NH+]1CCCC1)c1c(NC(=O)c2ccccc2)cnc2ccccc12

>  <scaffold>  (59) 
O=C(Nc1cnc2ccccc2c1NCc1ccccc1C[NH+]1CCCC1)c1ccccc1

>  <molecular_formula>  (59) 
C29H31N4O+

$$$$
ATP-HTVS-0A53D5277C22
     RDKit          3D

 60 63  0  0  0  0  0  0  0  0999 V2000
  199.9408  182.1681  156.8835 Cl  0  0  0  0  0  0  0  0  0  0  0  0
  198.3758  182.5589  157.5150 C   0  0  0  0  0  0  0  0  0  0  0  0
  197.2095  181.8578  157.0455 C   0  0  0  0  0  0  0  0  0  0  0  0
  195.9905  182.1919  157.4833 N   0  0  0  0  0  0  0  0  0  0  0  0
  195.8420  183.1809  158.3599 C   0  0  0  0  0  0  0  0  0  0  0  0
  196.9333  183.9285  158.9075 C   0  0  0  0  0  0  0  0  0  0  0  0
  198.2509  183.5738  158.4823 C   0  0  0  0  0  0  0  0  0  0  0  0
  199.4287  184.3416  158.9440 C   0  0  0  0  0  0  0  0  0  0  0  0
  199.6284  185.7182  158.6442 C   0  0  0  0  0  0  0  0  0  0  0  0
  200.7630  186.4122  159.1339 C   0  0  0  0  0  0  0  0  0  0  0  0
  201.7219  185.7305  159.9101 C   0  0  0  0  0  0  0  0  0  0  0  0
  201.5469  184.3651  160.1911 C   0  0  0  0  0  0  0  0  0  0  0  0
  200.4151  183.6867  159.7082 C   0  0  0  0  0  0  0  0  0  0  0  0
  196.7111  184.9897  159.8108 C   0  0  0  0  0  0  0  0  0  0  0  0
  195.4071  185.3013  160.2372 C   0  0  0  0  0  0  0  0  0  0  0  0
  194.3184  184.5938  159.6942 C   0  0  0  0  0  0  0  0  0  0  0  0
  194.5332  183.5655  158.7725 C   0  0  0  0  0  0  0  0  0  0  0  0
  197.2845  180.8534  155.8569 C   0  0  1  0  0  0  0  0  0  0  0  0
  196.7535  181.3621  154.5777 N   0  0  0  0  0  0  0  0  0  0  0  0
  197.6914  181.7402  153.5028 C   0  0  1  0  0  0  0  0  0  0  0  0
  197.5121  180.7763  152.3241 C   0  0  0  0  0  0  0  0  0  0  0  0
  196.3707  180.8299  151.4983 C   0  0  0  0  0  0  0  0  0  0  0  0
  196.2440  179.9731  150.3790 C   0  0  0  0  0  0  0  0  0  0  0  0
  197.2626  179.0345  150.0719 C   0  0  0  0  0  0  0  0  0  0  0  0
  197.1101  178.2267  148.9622 O   0  0  0  0  0  0  0  0  0  0  0  0
  198.0620  177.1828  148.7693 C   0  0  2  0  0  0  0  0  0  0  0  0
  198.3887  178.9783  150.9248 C   0  0  0  0  0  0  0  0  0  0  0  0
  198.5164  179.8333  152.0258 C   0  0  0  0  0  0  0  0  0  0  0  0
  197.5415  183.2354  153.0389 C   0  0  1  0  0  0  0  0  0  0  0  0
  198.0682  184.2868  153.9337 N   0  0  0  0  0  0  0  0  0  0  0  0
  197.4314  184.2330  155.2082 C   0  0  2  0  0  0  0  0  0  0  0  0
  197.9797  185.6234  153.3931 C   0  0  2  0  0  0  0  0  0  0  0  0
  196.1254  182.1476  154.7760 H   0  0  0  0  0  0  0  0  0  0  0  0
  198.9093  186.2776  158.0568 H   0  0  0  0  0  0  0  0  0  0  0  0
  200.9061  187.4671  158.9298 H   0  0  0  0  0  0  0  0  0  0  0  0
  202.5977  186.2459  160.2903 H   0  0  0  0  0  0  0  0  0  0  0  0
  202.2719  183.8227  160.7780 H   0  0  0  0  0  0  0  0  0  0  0  0
  200.2816  182.6439  159.9167 H   0  0  0  0  0  0  0  0  0  0  0  0
  197.5249  185.5396  160.2606 H   0  0  0  0  0  0  0  0  0  0  0  0
  195.2510  186.0652  160.9933 H   0  0  0  0  0  0  0  0  0  0  0  0
  193.3177  184.8168  160.0453 H   0  0  0  0  0  0  0  0  0  0  0  0
  193.6943  183.0255  158.3586 H   0  0  0  0  0  0  0  0  0  0  0  0
  198.3105  180.5132  155.7178 H   0  0  0  0  0  0  0  0  0  0  0  0
  196.7523  179.9425  156.1437 H   0  0  0  0  0  0  0  0  0  0  0  0
  198.7060  181.5710  153.8532 H   0  0  0  0  0  0  0  0  0  0  0  0
  195.5756  181.5244  151.7223 H   0  0  0  0  0  0  0  0  0  0  0  0
  195.3660  180.0220  149.7507 H   0  0  0  0  0  0  0  0  0  0  0  0
  197.8571  176.5686  147.8892 H   0  0  0  0  0  0  0  0  0  0  0  0
  198.0638  176.5211  149.6301 H   0  0  0  0  0  0  0  0  0  0  0  0
  199.0649  177.5789  148.6406 H   0  0  0  0  0  0  0  0  0  0  0  0
  199.2071  178.2870  150.7724 H   0  0  0  0  0  0  0  0  0  0  0  0
  199.4004  179.7402  152.6380 H   0  0  0  0  0  0  0  0  0  0  0  0
  198.0752  183.3042  152.0907 H   0  0  0  0  0  0  0  0  0  0  0  0
  196.4890  183.4301  152.8109 H   0  0  0  0  0  0  0  0  0  0  0  0
  197.8398  184.9728  155.9185 H   0  0  0  0  0  0  0  0  0  0  0  0
  197.7295  183.3216  155.5273 H   0  0  0  0  0  0  0  0  0  0  0  0
  196.3413  184.3695  155.0735 H   0  0  0  0  0  0  0  0  0  0  0  0
  198.2711  186.3225  154.1964 H   0  0  0  0  0  0  0  0  0  0  0  0
  196.9249  185.8195  153.1561 H   0  0  0  0  0  0  0  0  0  0  0  0
  198.6460  185.7690  152.5244 H   0  0  0  0  0  0  0  0  0  0  0  0
  1  2  1  0
  2  3  1  0
  2  7  2  0
  3  4  2  0
  3 18  1  0
  4  5  1  0
  5  6  1  0
  5 17  2  0
  6  7  1  0
  6 14  2  0
  7  8  1  0
  8  9  2  0
  8 13  1  0
  9 10  1  0
  9 34  1  0
 10 11  2  0
 10 35  1  0
 11 12  1  0
 11 36  1  0
 12 13  2  0
 12 37  1  0
 13 38  1  0
 14 15  1  0
 14 39  1  0
 15 16  2  0
 15 40  1  0
 16 17  1  0
 16 41  1  0
 17 42  1  0
 18 19  1  0
 18 43  1  6
 18 44  1  0
 19 20  1  0
 19 33  1  0
 20 21  1  0
 20 29  1  0
 20 45  1  1
 21 22  1  0
 21 28  2  0
 22 23  2  0
 22 46  1  0
 23 24  1  0
 23 47  1  0
 24 25  1  0
 24 27  2  0
 25 26  1  0
 26 48  1  6
 26 49  1  0
 26 50  1  0
 27 28  1  0
 27 51  1  0
 28 52  1  0
 29 30  1  0
 29 53  1  6
 29 54  1  0
 30 31  1  0
 30 32  1  0
 31 55  1  1
 31 56  1  0
 31 57  1  0
 32 58  1  1
 32 59  1  0
 32 60  1  0
M  END
>  <s_epik_cmdline>  (60) 
J2VwaWtfcHl0aG9uJywgJy1waCcsICc3LjAwMDAwMCcsICctcGh0JywgJzIuMDAwMDAwJywgJy1tcycsICcxNicsICctdG4nLCAnOCcsICctbWEnLCAnMjAwJywgJy1pbWFlJywgJzxpbmZpbGUubWFlPicsICctb21hZScsICc8b3V0ZmlsZS5tYWU+Jw==

>  <s_epik_input>  (60) 
W2NIXTFbY0hdW2NIXVtjSF1bY0hdYzEtYyhjKGMyMylbY0hdW2NIXVtjSF1bY0hdMyljKENsKWMobjIpW0NIMl1bTkhdW0NASF0oW0NIMl1OKFtDSDNdKVtDSDNdKWM0W2NIXVtjSF1jKE9bQ0gzXSlbY0hdW2NIXTQ=

>  <s_i_glide_gridfile>  (60) 
ATP-Grid

>  <s_lp_Force_Field>  (60) 
OPLS_2005

>  <s_lp_Variant>  (60) 
m_2230bbb____22403994____7471132-6

>  <s_lp_label>  (60) 
764_sdstereoexpander_2_neutralizer_1_epik_3_stereoizer_1

>  <s_m_source_file>  (60) 
ATP-VSW-LIGPREP-002-in.maegz

>  <s_sd_BIOSOLVEIT.INFINISEE\_QUERY\_NAME>  (60) 
Ref-Lig

>  <s_sd_BIOSOLVEIT.INFINISEE\_QUERY\_SMILES>  (60) 
S(c1nc2c(cc1C[NH2+]Cc3ccc(cc3)C[NH+](C)C)cccc2)Cc4ccccc4

>  <s_sd_BIOSOLVEIT.INFINISEE\_REACTION\_NAME>  (60) 
m_2230bbb

>  <s_sd_BIOSOLVEIT.INFINISEE\_REAGENT1\_SMILES>  (60) 
[R1*]NC(c1ccc(OC)cc1)CN(C)C

>  <s_sd_BIOSOLVEIT.INFINISEE\_REAGENT2\_SMILES>  (60) 
[R1*]Cc1nc2c(c(c1Cl)c3ccccc3)cccc2

>  <s_sd_BIOSOLVEIT.INFINISEE\_SPACE>  (60) 
REALSpace_44bn_2023-08

>  <s_vsw_compound_code>  (60) 
24418

>  <s_vsw_variant>  (60) 
24418-6

>  <r_epik_Charging_Adjusted_Penalty>  (60) 
1.93785118646239

>  <r_epik_Ionization_Penalty>  (60) 
2.9236

>  <r_epik_Ionization_Penalty_Charging>  (60) 
0

>  <r_epik_Ionization_Penalty_Neutral>  (60) 
2.9236

>  <r_epik_State_Penalty>  (60) 
1.9379

>  <r_i_docking_score>  (60) 
-2.02757734796739

>  <r_i_glide_ecoul>  (60) 
-1.14941477775574

>  <r_i_glide_eff_state_penalty>  (60) 
1.9379

>  <r_i_glide_einternal>  (60) 
13.0523357391357

>  <r_i_glide_emodel>  (60) 
-42.331677991953804

>  <r_i_glide_energy>  (60) 
-39.068035840988202

>  <r_i_glide_erotb>  (60) 
0.60369720699806295

>  <r_i_glide_esite>  (60) 
0

>  <r_i_glide_evdw>  (60) 
-37.918621063232401

>  <r_i_glide_gscore>  (60) 
-3.9654773479673899

>  <r_i_glide_hbond>  (60) 
0

>  <r_i_glide_ligand_efficiency>  (60) 
-0.063361792123981006

>  <r_i_glide_ligand_efficiency_ln>  (60) 
-0.45402983788097101

>  <r_i_glide_ligand_efficiency_sa>  (60) 
-0.20116115071200499

>  <r_i_glide_lipo>  (60) 
-2.1325364215041098

>  <r_i_glide_metal>  (60) 
-0

>  <r_i_glide_rewards>  (60) 
-0.36829486363636199

>  <r_lp_Energy>  (60) 
35.982256

>  <r_lp_tautomer_probability>  (60) 
1

>  <r_qp_ACxDN^.5/SA>  (60) 
0.0078490999999999995

>  <r_qp_CIQPlogS>  (60) 
-5.4139999999999997

>  <r_qp_EA(eV)>  (60) 
0.95199999999999996

>  <r_qp_FISA>  (60) 
19.821999999999999

>  <r_qp_FOSA>  (60) 
271.71499999999997

>  <r_qp_IP(eV)>  (60) 
8.7859999999999996

>  <r_qp_Jm>  (60) 
0.046242463922669001

>  <r_qp_PISA>  (60) 
340.96199999999999

>  <r_qp_PSA>  (60) 
34.259

>  <r_qp_PercentHumanOralAbsorption>  (60) 
100

>  <r_qp_QPPCaco>  (60) 
399.69400000000002

>  <r_qp_QPPMDCK>  (60) 
355.505

>  <r_qp_QPlogBB>  (60) 
0.79800000000000004

>  <r_qp_QPlogHERG>  (60) 
-6.5099999999999998

>  <r_qp_QPlogKhsa>  (60) 
0.94499999999999995

>  <r_qp_QPlogKp>  (60) 
-4.0410000000000004

>  <r_qp_QPlogPC16>  (60) 
13.724

>  <r_qp_QPlogPo/w>  (60) 
4.9329999999999998

>  <r_qp_QPlogPoct>  (60) 
19.521000000000001

>  <r_qp_QPlogPw>  (60) 
8.6669999999999998

>  <r_qp_QPlogS>  (60) 
-2.9430000000000001

>  <r_qp_QPpolrz>  (60) 
45.941000000000003

>  <r_qp_SASA>  (60) 
668.86699999999996

>  <r_qp_SAamideO>  (60) 
0

>  <r_qp_SAfluorine>  (60) 
0

>  <r_qp_WPSA>  (60) 
36.368000000000002

>  <r_qp_accptHB>  (60) 
5.25

>  <r_qp_dip^2/V>  (60) 
0.00050670000000000001

>  <r_qp_dipole>  (60) 
0.82699999999999996

>  <r_qp_donorHB>  (60) 
1

>  <r_qp_glob>  (60) 
0.8826195

>  <r_qp_mol_MW>  (60) 
445.99099999999999

>  <r_qp_volume>  (60) 
1348.722

>  <r_sd_BIOSOLVEIT.INFINISEE\_FTREES\_SIMILARITY>  (60) 
0.92500000000000004

>  <r_sd_BIOSOLVEIT.LOGP>  (60) 
3.5129999999999999

>  <r_sd_BIOSOLVEIT.MOLECULAR\_WEIGHT>  (60) 
448.00700000000001

>  <r_sd_BIOSOLVEIT.TPSA>  (60) 
43.170000000000002

>  <i_epik_Tot_Q>  (60) 
0

>  <i_epik_Tot_abs_Q>  (60) 
0

>  <i_f3d_flags>  (60) 
0

>  <i_i_glide_confnum>  (60) 
9

>  <i_i_glide_lignum>  (60) 
237

>  <i_i_glide_posenum>  (60) 
2

>  <i_i_glide_rotatable_bonds>  (60) 
8

>  <i_lp_mmshare_version>  (60) 
65135

>  <i_m_ct_format>  (60) 
2

>  <i_m_source_file_index>  (60) 
764

>  <i_qp_#NandO>  (60) 
4

>  <i_qp_#acid>  (60) 
0

>  <i_qp_#amide>  (60) 
0

>  <i_qp_#amidine>  (60) 
0

>  <i_qp_#amine>  (60) 
2

>  <i_qp_#in34>  (60) 
0

>  <i_qp_#in56>  (60) 
22

>  <i_qp_#metab>  (60) 
5

>  <i_qp_#nonHatm>  (60) 
32

>  <i_qp_#noncon>  (60) 
0

>  <i_qp_#ringatoms>  (60) 
22

>  <i_qp_#rotor>  (60) 
8

>  <i_qp_#rtvFG>  (60) 
0

>  <i_qp_#stars>  (60) 
1

>  <i_qp_CNS>  (60) 
2

>  <i_qp_HumanOralAbsorption>  (60) 
3

>  <i_qp_RuleOfFive>  (60) 
0

>  <i_qp_RuleOfThree>  (60) 
0

>  <i_sd_BIOSOLVEIT.INFINISEE\_REAGENT1\_NAME>  (60) 
22403994

>  <i_sd_BIOSOLVEIT.INFINISEE\_REAGENT2\_NAME>  (60) 
7471132

>  <i_sd_BIOSOLVEIT.INFINISEE\_RESULT\_RANK>  (60) 
8821

>  <i_sd_version>  (60) 
0

>  <b_lp_Chiralities_Consistent>  (60) 
1

>  <b_sd_chiral_flag>  (60) 
0

>  <canonical_id>  (60) 
ATP-HTVS-0A53D5277C22

>  <compound_code>  (60) 
24418

>  <title>  (60) 
m_2230bbb____22403994____7471132

>  <variant>  (60) 
24418-6

>  <source_file>  (60) 
运行/运行/ATP-VSW/ATP-VSW-DOCK_HTVS_1-002_lib.maegz

>  <canonical_smiles>  (60) 
COc1ccc([C@@H](CN(C)C)NCc2nc3ccccc3c(-c3ccccc3)c2Cl)cc1

>  <scaffold>  (60) 
c1ccc(CNCc2cc(-c3ccccc3)c3ccccc3n2)cc1

>  <molecular_formula>  (60) 
C27H28ClN3O

$$$$
ATP-HTVS-0A81E0DFACE9
     RDKit          3D

 55 57  0  0  0  0  0  0  0  0999 V2000
  198.2633  177.3896  149.7714 O   0  0  0  0  0  0  0  0  0  0  0  0
  198.5592  178.6035  149.1847 C   0  0  0  0  0  0  0  0  0  0  0  0
  198.5651  179.7485  150.0205 C   0  0  0  0  0  0  0  0  0  0  0  0
  198.2819  179.6456  151.4576 C   0  0  0  0  0  0  0  0  0  0  0  0
  199.2684  179.2603  152.3898 C   0  0  0  0  0  0  0  0  0  0  0  0
  199.0093  179.1793  153.7132 N   0  0  0  0  0  0  0  0  0  0  0  0
  197.7705  179.4683  154.1031 C   0  0  0  0  0  0  0  0  0  0  0  0
  196.7525  179.8410  153.3185 N   0  0  0  0  0  0  0  0  0  0  0  0
  197.0099  179.9260  151.9959 C   0  0  0  0  0  0  0  0  0  0  0  0
  197.4688  179.3478  155.5843 C   0  0  1  0  0  0  0  0  0  0  0  0
  197.0069  180.6377  156.1269 N   0  0  1  0  0  0  0  0  0  0  0  0
  198.0869  181.5248  156.5809 C   0  0  1  0  0  0  0  0  0  0  0  0
  197.5155  182.7469  157.2587 C   0  0  0  0  0  0  0  0  0  0  0  0
  196.8598  182.6352  158.5011 C   0  0  0  0  0  0  0  0  0  0  0  0
  196.3331  183.7809  159.1321 C   0  0  0  0  0  0  0  0  0  0  0  0
  196.4660  185.0508  158.5240 C   0  0  0  0  0  0  0  0  0  0  0  0
  197.1182  185.1532  157.2768 C   0  0  0  0  0  0  0  0  0  0  0  0
  197.6455  184.0127  156.6513 C   0  0  0  0  0  0  0  0  0  0  0  0
  195.9134  186.3003  159.1944 C   0  0  1  0  0  0  0  0  0  0  0  0
  196.9441  187.0437  159.9717 N   0  0  2  0  0  0  0  0  0  0  0  0
  196.3571  188.1385  160.7778 C   0  0  2  0  0  0  0  0  0  0  0  0
  198.0864  187.5384  159.1617 C   0  0  2  0  0  0  0  0  0  0  0  0
  198.8570  181.0127  149.4652 C   0  0  0  0  0  0  0  0  0  0  0  0
  199.1469  181.1499  148.0965 C   0  0  0  0  0  0  0  0  0  0  0  0
  199.1444  180.0170  147.2658 C   0  0  0  0  0  0  0  0  0  0  0  0
  198.8503  178.7514  147.8051 C   0  0  0  0  0  0  0  0  0  0  0  0
  198.2740  176.2271  148.9563 C   0  0  2  0  0  0  0  0  0  0  0  0
  196.4198  181.0847  155.4407 H   0  0  0  0  0  0  0  0  0  0  0  0
  200.2765  179.0354  152.0751 H   0  0  0  0  0  0  0  0  0  0  0  0
  196.1896  180.2310  151.3607 H   0  0  0  0  0  0  0  0  0  0  0  0
  196.6683  178.6276  155.7263 H   0  0  0  0  0  0  0  0  0  0  0  0
  198.3286  178.9645  156.1391 H   0  0  0  0  0  0  0  0  0  0  0  0
  198.7414  181.0014  157.2798 H   0  0  0  0  0  0  0  0  0  0  0  0
  198.6978  181.8080  155.7213 H   0  0  0  0  0  0  0  0  0  0  0  0
  196.7533  181.6686  158.9730 H   0  0  0  0  0  0  0  0  0  0  0  0
  195.8339  183.6694  160.0882 H   0  0  0  0  0  0  0  0  0  0  0  0
  197.2046  186.1054  156.7766 H   0  0  0  0  0  0  0  0  0  0  0  0
  198.1584  184.1189  155.7041 H   0  0  0  0  0  0  0  0  0  0  0  0
  195.4595  186.9562  158.4446 H   0  0  0  0  0  0  0  0  0  0  0  0
  195.0951  186.0012  159.8545 H   0  0  0  0  0  0  0  0  0  0  0  0
  195.8726  188.8772  160.1368 H   0  0  0  0  0  0  0  0  0  0  0  0
  197.1359  188.6522  161.3416 H   0  0  0  0  0  0  0  0  0  0  0  0
  195.6221  187.7611  161.4919 H   0  0  0  0  0  0  0  0  0  0  0  0
  197.7327  188.2191  158.3885 H   0  0  0  0  0  0  0  0  0  0  0  0
  198.6423  186.7285  158.6882 H   0  0  0  0  0  0  0  0  0  0  0  0
  198.8044  188.0819  159.7836 H   0  0  0  0  0  0  0  0  0  0  0  0
  198.8705  181.8886  150.0974 H   0  0  0  0  0  0  0  0  0  0  0  0
  199.3703  182.1221  147.6807 H   0  0  0  0  0  0  0  0  0  0  0  0
  199.3649  180.1146  146.2137 H   0  0  0  0  0  0  0  0  0  0  0  0
  198.8577  177.9068  147.1315 H   0  0  0  0  0  0  0  0  0  0  0  0
  198.0068  175.3597  149.5609 H   0  0  0  0  0  0  0  0  0  0  0  0
  199.2632  176.0467  148.5341 H   0  0  0  0  0  0  0  0  0  0  0  0
  197.5481  176.3016  148.1458 H   0  0  0  0  0  0  0  0  0  0  0  0
  197.3245  186.3798  160.6292 H   0  0  0  0  0  0  0  0  0  0  0  0
  196.4270  180.3522  156.9150 H   0  0  0  0  0  0  0  0  0  0  0  0
  1  2  1  0
  1 27  1  0
  2  3  1  0
  2 26  2  0
  3  4  1  0
  3 23  2  0
  4  5  2  0
  4  9  1  0
  5  6  1  0
  5 29  1  0
  6  7  2  0
  7  8  1  0
  7 10  1  0
  8  9  2  0
  9 30  1  0
 10 11  1  0
 10 31  1  6
 10 32  1  0
 11 12  1  0
 11 28  1  6
 11 55  1  0
 12 13  1  0
 12 33  1  1
 12 34  1  0
 13 14  1  0
 13 18  2  0
 14 15  2  0
 14 35  1  0
 15 16  1  0
 15 36  1  0
 16 17  2  0
 16 19  1  0
 17 18  1  0
 17 37  1  0
 18 38  1  0
 19 20  1  0
 19 39  1  6
 19 40  1  0
 20 21  1  0
 20 22  1  0
 20 54  1  1
 21 41  1  6
 21 42  1  0
 21 43  1  0
 22 44  1  6
 22 45  1  0
 22 46  1  0
 23 24  1  0
 23 47  1  0
 24 25  2  0
 24 48  1  0
 25 26  1  0
 25 49  1  0
 26 50  1  0
 27 51  1  1
 27 52  1  0
 27 53  1  0
M  CHG  2  11   1  20   1
M  END
>  <s_epik_cmdline>  (61) 
J2VwaWtfcHl0aG9uJywgJy1waCcsICc3LjAwMDAwMCcsICctcGh0JywgJzIuMDAwMDAwJywgJy1tcycsICcxNicsICctdG4nLCAnOCcsICctbWEnLCAnMjAwJywgJy1pbWFlJywgJzxpbmZpbGUubWFlPicsICctb21hZScsICc8b3V0ZmlsZS5tYWU+Jw==

>  <s_epik_input>  (61) 
W2NIXTFbY0hdW2NIXVtjSF1jKGMxT1tDSDNdKS1jMltjSF1uYyhuW2NIXTIpW0NIMl1bTkhdW0NIMl1jM1tjSF1bY0hdYyhbY0hdW2NIXTMpW0NIMl1OKFtDSDNdKVtDSDNd

>  <s_i_glide_gridfile>  (61) 
ATP-Grid

>  <s_lp_Force_Field>  (61) 
OPLS_2005

>  <s_lp_Variant>  (61) 
WXDL_15E____QS5063____LN00190257____BT4141-1

>  <s_lp_label>  (61) 
624_sdstereoexpander_1_neutralizer_1_epik_1_stereoizer_1

>  <s_m_source_file>  (61) 
ATP-VSW-LIGPREP-002-in.maegz

>  <s_sd_BIOSOLVEIT.INFINISEE\_QUERY\_NAME>  (61) 
Ref-Lig

>  <s_sd_BIOSOLVEIT.INFINISEE\_QUERY\_SMILES>  (61) 
S(c1nc2c(cc1C[NH2+]Cc3ccc(cc3)C[NH+](C)C)cccc2)Cc4ccccc4

>  <s_sd_BIOSOLVEIT.INFINISEE\_REACTION\_NAME>  (61) 
WXDL_15E

>  <s_sd_BIOSOLVEIT.INFINISEE\_REAGENT1\_NAME>  (61) 
QS5063

>  <s_sd_BIOSOLVEIT.INFINISEE\_REAGENT1\_SMILES>  (61) 
O=Cc1ccc(cc1)CN(C)C

>  <s_sd_BIOSOLVEIT.INFINISEE\_REAGENT2\_NAME>  (61) 
LN00190257

>  <s_sd_BIOSOLVEIT.INFINISEE\_REAGENT2\_SMILES>  (61) 
Brc1cnc(nc1)CNC(=O)OC(C)(C)C

>  <s_sd_BIOSOLVEIT.INFINISEE\_REAGENT3\_NAME>  (61) 
BT4141

>  <s_sd_BIOSOLVEIT.INFINISEE\_REAGENT3\_SMILES>  (61) 
O(c1c(cccc1)B2OCCCO2)C

>  <s_sd_BIOSOLVEIT.INFINISEE\_SPACE>  (61) 
GalaXi_12bn_2023-03

>  <s_vsw_compound_code>  (61) 
19938

>  <s_vsw_variant>  (61) 
19938-1

>  <r_epik_Charging_Adjusted_Penalty>  (61) 
0.56790821443324901

>  <r_epik_Ionization_Penalty>  (61) 
0.28070000000000001

>  <r_epik_Ionization_Penalty_Charging>  (61) 
0.28070000000000001

>  <r_epik_Ionization_Penalty_Neutral>  (61) 
0

>  <r_epik_State_Penalty>  (61) 
0.2873

>  <r_i_docking_score>  (61) 
-4.7467795765272998

>  <r_i_glide_ecoul>  (61) 
-12.450879096984901

>  <r_i_glide_eff_state_penalty>  (61) 
0.2873

>  <r_i_glide_einternal>  (61) 
3.66682004928589

>  <r_i_glide_emodel>  (61) 
-60.124807641113499

>  <r_i_glide_energy>  (61) 
-40.871891975402797

>  <r_i_glide_erotb>  (61) 
0.86829695456563805

>  <r_i_glide_esite>  (61) 
-0.13022188043896099

>  <r_i_glide_evdw>  (61) 
-28.421012878418001

>  <r_i_glide_gscore>  (61) 
-5.0340795765272999

>  <r_i_glide_hbond>  (61) 
-0.19510046053522601

>  <r_i_glide_ligand_efficiency>  (61) 
-0.17580665098249201

>  <r_i_glide_ligand_efficiency_ln>  (61) 
-1.1049720286381399

>  <r_i_glide_ligand_efficiency_sa>  (61) 
-0.52741995236804695

>  <r_i_glide_lipo>  (61) 
-1.1393984089228499

>  <r_i_glide_metal>  (61) 
-0

>  <r_i_glide_rewards>  (61) 
-1.1489732727272699

>  <r_lp_Energy>  (61) 
15.815996999999999

>  <r_lp_tautomer_probability>  (61) 
1

>  <r_qp_ACxDN^.5/SA>  (61) 
0.0083576999999999992

>  <r_qp_CIQPlogS>  (61) 
-3.0710000000000002

>  <r_qp_EA(eV)>  (61) 
0.57799999999999996

>  <r_qp_FISA>  (61) 
51.234999999999999

>  <r_qp_FOSA>  (61) 
345.762

>  <r_qp_IP(eV)>  (61) 
8.9480000000000004

>  <r_qp_Jm>  (61) 
0.0014653689785132

>  <r_qp_PISA>  (61) 
350.81999999999999

>  <r_qp_PSA>  (61) 
48.774000000000001

>  <r_qp_PercentHumanOralAbsorption>  (61) 
90.283000000000001

>  <r_qp_QPPCaco>  (61) 
201.29499999999999

>  <r_qp_QPPMDCK>  (61) 
107.062

>  <r_qp_QPlogBB>  (61) 
0.29999999999999999

>  <r_qp_QPlogHERG>  (61) 
-8.4039999999999999

>  <r_qp_QPlogKhsa>  (61) 
0.54400000000000004

>  <r_qp_QPlogKp>  (61) 
-4.585

>  <r_qp_QPlogPC16>  (61) 
13.473000000000001

>  <r_qp_QPlogPo/w>  (61) 
3.7749999999999999

>  <r_qp_QPlogPoct>  (61) 
18.997

>  <r_qp_QPlogPw>  (61) 
10.109999999999999

>  <r_qp_QPlogS>  (61) 
-3.8079999999999998

>  <r_qp_QPpolrz>  (61) 
43.896999999999998

>  <r_qp_SASA>  (61) 
747.81700000000001

>  <r_qp_SAamideO>  (61) 
0

>  <r_qp_SAfluorine>  (61) 
0

>  <r_qp_WPSA>  (61) 
0

>  <r_qp_accptHB>  (61) 
6.25

>  <r_qp_dip^2/V>  (61) 
0.012733700000000001

>  <r_qp_dipole>  (61) 
4.0609999999999999

>  <r_qp_donorHB>  (61) 
1

>  <r_qp_glob>  (61) 
0.76845050000000004

>  <r_qp_mol_MW>  (61) 
362.47399999999999

>  <r_qp_volume>  (61) 
1295.298

>  <r_sd_BIOSOLVEIT.INFINISEE\_FTREES\_SIMILARITY>  (61) 
0.92700000000000005

>  <r_sd_BIOSOLVEIT.LOGP>  (61) 
1.0603

>  <r_sd_BIOSOLVEIT.MOLECULAR\_WEIGHT>  (61) 
364.49000000000001

>  <r_sd_BIOSOLVEIT.TPSA>  (61) 
56.060000000000002

>  <i_epik_Tot_Q>  (61) 
2

>  <i_epik_Tot_abs_Q>  (61) 
2

>  <i_f3d_flags>  (61) 
0

>  <i_i_glide_confnum>  (61) 
1

>  <i_i_glide_lignum>  (61) 
170

>  <i_i_glide_posenum>  (61) 
17

>  <i_i_glide_rotatable_bonds>  (61) 
8

>  <i_lp_mmshare_version>  (61) 
65135

>  <i_m_ct_format>  (61) 
2

>  <i_m_source_file_index>  (61) 
624

>  <i_qp_#NandO>  (61) 
5

>  <i_qp_#acid>  (61) 
0

>  <i_qp_#amide>  (61) 
0

>  <i_qp_#amidine>  (61) 
0

>  <i_qp_#amine>  (61) 
2

>  <i_qp_#in34>  (61) 
0

>  <i_qp_#in56>  (61) 
18

>  <i_qp_#metab>  (61) 
8

>  <i_qp_#nonHatm>  (61) 
27

>  <i_qp_#noncon>  (61) 
0

>  <i_qp_#ringatoms>  (61) 
18

>  <i_qp_#rotor>  (61) 
8

>  <i_qp_#rtvFG>  (61) 
0

>  <i_qp_#stars>  (61) 
0

>  <i_qp_CNS>  (61) 
1

>  <i_qp_HumanOralAbsorption>  (61) 
3

>  <i_qp_RuleOfFive>  (61) 
0

>  <i_qp_RuleOfThree>  (61) 
1

>  <i_sd_BIOSOLVEIT.INFINISEE\_RESULT\_RANK>  (61) 
7183

>  <i_sd_version>  (61) 
0

>  <b_lp_Chiralities_Consistent>  (61) 
1

>  <b_sd_chiral_flag>  (61) 
0

>  <canonical_id>  (61) 
ATP-HTVS-0A81E0DFACE9

>  <compound_code>  (61) 
19938

>  <title>  (61) 
WXDL_15E____QS5063____LN00190257____BT4141

>  <variant>  (61) 
19938-1

>  <source_file>  (61) 
运行/运行/ATP-VSW/ATP-VSW-DOCK_HTVS_1-002_lib.maegz

>  <canonical_smiles>  (61) 
COc1ccccc1-c1cnc(C[NH2+]Cc2ccc(C[NH+](C)C)cc2)nc1

>  <scaffold>  (61) 
c1ccc(C[NH2+]Cc2ncc(-c3ccccc3)cn2)cc1

>  <molecular_formula>  (61) 
C22H28N4O+2

$$$$
ATP-HTVS-0A8B3D0EFFB7
     RDKit          3D

 49 52  0  0  0  0  0  0  0  0999 V2000
  200.2792  178.9185  151.6402 F   0  0  0  0  0  0  0  0  0  0  0  0
  199.7834  178.9008  152.9030 C   0  0  0  0  0  0  0  0  0  0  0  0
  198.9757  179.9636  153.3592 C   0  0  0  0  0  0  0  0  0  0  0  0
  198.7106  180.9969  152.5314 N   0  0  0  0  0  0  0  0  0  0  0  0
  197.9655  182.0664  152.8855 C   0  0  0  0  0  0  0  0  0  0  0  0
  197.7773  183.1173  151.8699 C   0  0  0  0  0  0  0  0  0  0  0  0
  197.2665  182.8113  150.5906 C   0  0  0  0  0  0  0  0  0  0  0  0
  197.1078  183.8508  149.6515 C   0  0  0  0  0  0  0  0  0  0  0  0
  197.4346  185.1335  149.9063 N   0  0  0  0  0  0  0  0  0  0  0  0
  197.9369  185.4254  151.1235 C   0  0  0  0  0  0  0  0  0  0  0  0
  198.1090  184.4613  152.1374 C   0  0  0  0  0  0  0  0  0  0  0  0
  197.4263  182.1197  154.1872 C   0  0  0  0  0  0  0  0  0  0  0  0
  197.6529  181.0578  155.1049 C   0  0  0  0  0  0  0  0  0  0  0  0
  197.1242  181.0734  156.4080 N   0  0  0  0  0  0  0  0  0  0  0  0
  196.4748  182.2732  156.9198 C   0  0  1  0  0  0  0  0  0  0  0  0
  196.1645  182.1824  158.4240 C   0  0  2  0  0  0  0  0  0  0  0  0
  194.9741  181.4408  158.5531 O   0  0  0  0  0  0  0  0  0  0  0  0
  196.0464  183.5667  159.0540 C   0  0  0  0  0  0  0  0  0  0  0  0
  197.1948  184.3798  159.1704 C   0  0  0  0  0  0  0  0  0  0  0  0
  197.1020  185.6665  159.7349 C   0  0  0  0  0  0  0  0  0  0  0  0
  195.8635  186.1452  160.2054 C   0  0  0  0  0  0  0  0  0  0  0  0
  194.7207  185.3303  160.1088 C   0  0  0  0  0  0  0  0  0  0  0  0
  194.8073  184.0560  159.5264 C   0  0  0  0  0  0  0  0  0  0  0  0
  195.7571  187.5295  160.8005 C   0  0  2  0  0  0  0  0  0  0  0  0
  198.4462  179.9613  154.6745 C   0  0  0  0  0  0  0  0  0  0  0  0
  198.7448  178.8687  155.5238 C   0  0  0  0  0  0  0  0  0  0  0  0
  199.5571  177.8112  155.0728 C   0  0  0  0  0  0  0  0  0  0  0  0
  200.0772  177.8247  153.7639 C   0  0  0  0  0  0  0  0  0  0  0  0
  196.9910  181.7999  150.3284 H   0  0  0  0  0  0  0  0  0  0  0  0
  196.7085  183.6455  148.6683 H   0  0  0  0  0  0  0  0  0  0  0  0
  198.1636  186.4656  151.3055 H   0  0  0  0  0  0  0  0  0  0  0  0
  198.4922  184.7570  153.1033 H   0  0  0  0  0  0  0  0  0  0  0  0
  196.8159  182.9742  154.4487 H   0  0  0  0  0  0  0  0  0  0  0  0
  196.8603  180.1954  156.8606 H   0  0  0  0  0  0  0  0  0  0  0  0
  197.1602  183.1029  156.7480 H   0  0  0  0  0  0  0  0  0  0  0  0
  195.5624  182.4928  156.3654 H   0  0  0  0  0  0  0  0  0  0  0  0
  196.9652  181.6562  158.9466 H   0  0  0  0  0  0  0  0  0  0  0  0
  195.1537  180.5329  158.2526 H   0  0  0  0  0  0  0  0  0  0  0  0
  198.1483  184.0186  158.8116 H   0  0  0  0  0  0  0  0  0  0  0  0
  197.9821  186.2881  159.8004 H   0  0  0  0  0  0  0  0  0  0  0  0
  193.7578  185.6817  160.4491 H   0  0  0  0  0  0  0  0  0  0  0  0
  193.9040  183.4704  159.4418 H   0  0  0  0  0  0  0  0  0  0  0  0
  194.7212  187.7914  161.0130 H   0  0  0  0  0  0  0  0  0  0  0  0
  196.1644  188.2723  160.1162 H   0  0  0  0  0  0  0  0  0  0  0  0
  196.3169  187.5747  161.7329 H   0  0  0  0  0  0  0  0  0  0  0  0
  198.3581  178.8278  156.5313 H   0  0  0  0  0  0  0  0  0  0  0  0
  199.7696  176.9859  155.7371 H   0  0  0  0  0  0  0  0  0  0  0  0
  200.6917  177.0025  153.4154 H   0  0  0  0  0  0  0  0  0  0  0  0
  199.1122  180.9689  151.5919 H   0  0  0  0  0  0  0  0  0  0  0  0
  1  2  1  0
  2  3  2  0
  2 28  1  0
  3  4  1  0
  3 25  1  0
  4  5  2  0
  4 49  1  0
  5  6  1  0
  5 12  1  0
  6  7  2  0
  6 11  1  0
  7  8  1  0
  7 29  1  0
  8  9  2  0
  8 30  1  0
  9 10  1  0
 10 11  2  0
 10 31  1  0
 11 32  1  0
 12 13  2  0
 12 33  1  0
 13 14  1  0
 13 25  1  0
 14 15  1  0
 14 34  1  0
 15 16  1  0
 15 35  1  1
 15 36  1  0
 16 17  1  0
 16 18  1  0
 16 37  1  1
 17 38  1  0
 18 19  1  0
 18 23  2  0
 19 20  2  0
 19 39  1  0
 20 21  1  0
 20 40  1  0
 21 22  2  0
 21 24  1  0
 22 23  1  0
 22 41  1  0
 23 42  1  0
 24 43  1  1
 24 44  1  0
 24 45  1  0
 25 26  2  0
 26 27  1  0
 26 46  1  0
 27 28  2  0
 27 47  1  0
 28 48  1  0
M  CHG  1   4   1
M  END
>  <s_epik_cmdline>  (62) 
J2VwaWtfcHl0aG9uJywgJy1waCcsICc3LjAwMDAwMCcsICctcGh0JywgJzIuMDAwMDAwJywgJy1tcycsICcxNicsICctdG4nLCAnOCcsICctbWEnLCAnMjAwJywgJy1pbWFlJywgJzxpbmZpbGUubWFlPicsICctb21hZScsICc8b3V0ZmlsZS5tYWU+Jw==

>  <s_epik_input>  (62) 
W2NIXTFbY0hdbltjSF1bY0hdYzEtYyhuMilbY0hdYyhjKGMyMylbY0hdW2NIXVtjSF1jM0YpW05IXVtDSDJdW0NASF0oW09IXSljNFtjSF1bY0hdYyhbQ0gzXSlbY0hdW2NIXTQ=

>  <s_i_glide_gridfile>  (62) 
ATP-Grid

>  <s_lp_Force_Field>  (62) 
OPLS_2005

>  <s_lp_Variant>  (62) 
YAS_R004____OTV2825775____OTV999855____OTV1055862-3

>  <s_lp_label>  (62) 
62_sdstereoexpander_1_neutralizer_1_epik_2_stereoizer_1

>  <s_m_source_file>  (62) 
ATP-VSW-LIGPREP-002-in.maegz

>  <s_sd_BIOSOLVEIT.INFINISEE\_QUERY\_NAME>  (62) 
Ref-Lig

>  <s_sd_BIOSOLVEIT.INFINISEE\_QUERY\_SMILES>  (62) 
S(c1nc2c(cc1C[NH2+]Cc3ccc(cc3)C[NH+](C)C)cccc2)Cc4ccccc4

>  <s_sd_BIOSOLVEIT.INFINISEE\_REACTION\_NAME>  (62) 
YAS_R004

>  <s_sd_BIOSOLVEIT.INFINISEE\_REAGENT1\_NAME>  (62) 
OTV2825775

>  <s_sd_BIOSOLVEIT.INFINISEE\_REAGENT1\_SMILES>  (62) 
Fc1c(N)cccc1

>  <s_sd_BIOSOLVEIT.INFINISEE\_REAGENT2\_NAME>  (62) 
OTV999855

>  <s_sd_BIOSOLVEIT.INFINISEE\_REAGENT2\_SMILES>  (62) 
O=C(O)c1ccncc1

>  <s_sd_BIOSOLVEIT.INFINISEE\_REAGENT3\_NAME>  (62) 
OTV1055862

>  <s_sd_BIOSOLVEIT.INFINISEE\_REAGENT3\_SMILES>  (62) 
OC(c1ccc(cc1)C)CN

>  <s_sd_BIOSOLVEIT.INFINISEE\_SPACE>  (62) 
CHEMriya_12bn_2022-01

>  <s_vsw_compound_code>  (62) 
1954

>  <s_vsw_variant>  (62) 
1954-3

>  <r_epik_Charging_Adjusted_Penalty>  (62) 
1.8291611705781099

>  <r_epik_Ionization_Penalty>  (62) 
0.91569999999999996

>  <r_epik_Ionization_Penalty_Charging>  (62) 
0.91459999999999997

>  <r_epik_Ionization_Penalty_Neutral>  (62) 
0.0011999999999999999

>  <r_epik_State_Penalty>  (62) 
0.91459999999999997

>  <r_i_docking_score>  (62) 
-5.0509452234819898

>  <r_i_glide_ecoul>  (62) 
-14.8893175125122

>  <r_i_glide_eff_state_penalty>  (62) 
0.91459999999999997

>  <r_i_glide_einternal>  (62) 
7.1724085807800302

>  <r_i_glide_emodel>  (62) 
-63.745517927154502

>  <r_i_glide_energy>  (62) 
-45.551730155944803

>  <r_i_glide_erotb>  (62) 
0.68959128703268902

>  <r_i_glide_esite>  (62) 
-0.094506877316217902

>  <r_i_glide_evdw>  (62) 
-30.662412643432599

>  <r_i_glide_gscore>  (62) 
-5.9655452234819899

>  <r_i_glide_hbond>  (62) 
-0.30399999999999999

>  <r_i_glide_ligand_efficiency>  (62) 
-0.18039090083864301

>  <r_i_glide_ligand_efficiency_ln>  (62) 
-1.16590645977554

>  <r_i_glide_ligand_efficiency_sa>  (62) 
-0.54777301950490798

>  <r_i_glide_lipo>  (62) 
-1.6339573491499999

>  <r_i_glide_metal>  (62) 
-0

>  <r_i_glide_rewards>  (62) 
-0.85615402499999904

>  <r_lp_Energy>  (62) 
26.055223999999999

>  <r_qp_ACxDN^.5/SA>  (62) 
0.010531199999999999

>  <r_qp_CIQPlogS>  (62) 
-5.9809999999999999

>  <r_qp_EA(eV)>  (62) 
1.014

>  <r_qp_FISA>  (62) 
80.995999999999995

>  <r_qp_FOSA>  (62) 
122.249

>  <r_qp_IP(eV)>  (62) 
8.3130000000000006

>  <r_qp_Jm>  (62) 
0.036689331537123102

>  <r_qp_PISA>  (62) 
455.02199999999999

>  <r_qp_PSA>  (62) 
54.383000000000003

>  <r_qp_PercentHumanOralAbsorption>  (62) 
100

>  <r_qp_QPPCaco>  (62) 
1689.721

>  <r_qp_QPPMDCK>  (62) 
1445.009

>  <r_qp_QPlogBB>  (62) 
-0.56599999999999995

>  <r_qp_QPlogHERG>  (62) 
-7.1059999999999999

>  <r_qp_QPlogKhsa>  (62) 
0.59399999999999997

>  <r_qp_QPlogKp>  (62) 
-0.83299999999999996

>  <r_qp_QPlogPC16>  (62) 
13.552

>  <r_qp_QPlogPo/w>  (62) 
4.6970000000000001

>  <r_qp_QPlogPoct>  (62) 
21.126000000000001

>  <r_qp_QPlogPw>  (62) 
11.787000000000001

>  <r_qp_QPlogS>  (62) 
-6.1740000000000004

>  <r_qp_QPpolrz>  (62) 
43.060000000000002

>  <r_qp_SASA>  (62) 
698.29600000000005

>  <r_qp_SAamideO>  (62) 
0

>  <r_qp_SAfluorine>  (62) 
40.029000000000003

>  <r_qp_WPSA>  (62) 
40.029000000000003

>  <r_qp_accptHB>  (62) 
5.2000000000000002

>  <r_qp_dip^2/V>  (62) 
0.076548599999999994

>  <r_qp_dipole>  (62) 
9.6539999999999999

>  <r_qp_donorHB>  (62) 
2

>  <r_qp_glob>  (62) 
0.78962120000000002

>  <r_qp_mol_MW>  (62) 
373.42899999999997

>  <r_qp_volume>  (62) 
1217.4190000000001

>  <r_sd_BIOSOLVEIT.INFINISEE\_FTREES\_SIMILARITY>  (62) 
0.91500000000000004

>  <r_sd_BIOSOLVEIT.LOGP>  (62) 
4.8898200000000003

>  <r_sd_BIOSOLVEIT.MOLECULAR\_WEIGHT>  (62) 
373.42899999999997

>  <r_sd_BIOSOLVEIT.TPSA>  (62) 
58.039999999999999

>  <i_epik_Tot_Q>  (62) 
1

>  <i_epik_Tot_abs_Q>  (62) 
1

>  <i_f3d_flags>  (62) 
0

>  <i_i_glide_confnum>  (62) 
5

>  <i_i_glide_lignum>  (62) 
83

>  <i_i_glide_posenum>  (62) 
7

>  <i_i_glide_rotatable_bonds>  (62) 
6

>  <i_lp_mmshare_version>  (62) 
65135

>  <i_m_ct_format>  (62) 
2

>  <i_m_source_file_index>  (62) 
62

>  <i_qp_#NandO>  (62) 
4

>  <i_qp_#acid>  (62) 
0

>  <i_qp_#amide>  (62) 
0

>  <i_qp_#amidine>  (62) 
0

>  <i_qp_#amine>  (62) 
0

>  <i_qp_#in34>  (62) 
0

>  <i_qp_#in56>  (62) 
22

>  <i_qp_#metab>  (62) 
6

>  <i_qp_#nonHatm>  (62) 
28

>  <i_qp_#noncon>  (62) 
0

>  <i_qp_#ringatoms>  (62) 
22

>  <i_qp_#rotor>  (62) 
6

>  <i_qp_#rtvFG>  (62) 
0

>  <i_qp_#stars>  (62) 
1

>  <i_qp_CNS>  (62) 
0

>  <i_qp_HumanOralAbsorption>  (62) 
3

>  <i_qp_RuleOfFive>  (62) 
0

>  <i_qp_RuleOfThree>  (62) 
1

>  <i_sd_BIOSOLVEIT.INFINISEE\_RESULT\_RANK>  (62) 
29397

>  <i_sd_version>  (62) 
0

>  <b_lp_Chiralities_Consistent>  (62) 
1

>  <b_sd_chiral_flag>  (62) 
0

>  <canonical_id>  (62) 
ATP-HTVS-0A8B3D0EFFB7

>  <compound_code>  (62) 
1954

>  <title>  (62) 
YAS_R004____OTV2825775____OTV999855____OTV1055862

>  <variant>  (62) 
1954-3

>  <source_file>  (62) 
运行/运行/ATP-VSW/ATP-VSW-DOCK_HTVS_1-002_lib.maegz

>  <canonical_smiles>  (62) 
Cc1ccc([C@@H](O)CNc2cc(-c3ccncc3)[nH+]c3c(F)cccc23)cc1

>  <scaffold>  (62) 
c1ccc(CCNc2cc(-c3ccncc3)[nH+]c3ccccc23)cc1

>  <molecular_formula>  (62) 
C23H21FN3O+

$$$$
ATP-HTVS-0A8D2667A5C6
     RDKit          3D

 61 64  0  0  0  0  0  0  0  0999 V2000
  203.5465  185.0562  162.5661 Cl  0  0  0  0  0  0  0  0  0  0  0  0
  202.6908  185.7853  161.2539 C   0  0  0  0  0  0  0  0  0  0  0  0
  202.3543  185.0240  160.1167 C   0  0  0  0  0  0  0  0  0  0  0  0
  201.6707  185.6272  159.0369 C   0  0  0  0  0  0  0  0  0  0  0  0
  201.3138  186.9899  159.1111 C   0  0  0  0  0  0  0  0  0  0  0  0
  201.6477  187.7485  160.2483 C   0  0  0  0  0  0  0  0  0  0  0  0
  202.3459  187.1491  161.3134 C   0  0  0  0  0  0  0  0  0  0  0  0
  201.3331  184.8229  157.7914 C   0  0  1  0  0  0  0  0  0  0  0  0
  200.0771  183.9764  158.0122 C   0  0  0  0  0  0  0  0  0  0  0  0
  200.2037  182.8234  158.4274 O   0  0  0  0  0  0  0  0  0  0  0  0
  198.8872  184.5477  157.7284 N   0  0  0  0  0  0  0  0  0  0  0  0
  197.6111  183.9798  158.0010 C   0  0  0  0  0  0  0  0  0  0  0  0
  197.1701  182.7745  157.3770 C   0  0  0  0  0  0  0  0  0  0  0  0
  197.9696  182.0661  156.4568 N   0  0  0  0  0  0  0  0  0  0  0  0
  197.7731  180.6251  156.3260 C   0  0  1  0  0  0  0  0  0  0  0  0
  198.5564  179.9439  155.2234 C   0  0  0  0  0  0  0  0  0  0  0  0
  199.3376  178.8078  155.5125 C   0  0  0  0  0  0  0  0  0  0  0  0
  200.0365  178.1508  154.4799 C   0  0  0  0  0  0  0  0  0  0  0  0
  199.9448  178.6130  153.1473 C   0  0  0  0  0  0  0  0  0  0  0  0
  199.1376  179.7366  152.8638 C   0  0  0  0  0  0  0  0  0  0  0  0
  198.4360  180.3911  153.8945 C   0  0  0  0  0  0  0  0  0  0  0  0
  200.6940  177.9066  152.0233 C   0  0  1  0  0  0  0  0  0  0  0  0
  199.8941  176.8609  151.3280 N   0  0  2  0  0  0  0  0  0  0  0  0
  198.6026  177.3464  150.7836 C   0  0  2  0  0  0  0  0  0  0  0  0
  199.7367  175.6243  152.1211 C   0  0  2  0  0  0  0  0  0  0  0  0
  195.8731  182.3107  157.7057 C   0  0  0  0  0  0  0  0  0  0  0  0
  195.0465  182.9501  158.5473 N   0  0  0  0  0  0  0  0  0  0  0  0
  195.4459  184.0885  159.1199 C   0  0  0  0  0  0  0  0  0  0  0  0
  196.7291  184.6602  158.8873 C   0  0  0  0  0  0  0  0  0  0  0  0
  197.0790  185.8589  159.5634 C   0  0  0  0  0  0  0  0  0  0  0  0
  196.1694  186.4816  160.4477 C   0  0  0  0  0  0  0  0  0  0  0  0
  194.8964  185.9206  160.6570 C   0  0  0  0  0  0  0  0  0  0  0  0
  194.5520  184.7333  159.9917 C   0  0  0  0  0  0  0  0  0  0  0  0
  202.6270  183.9792  160.0746 H   0  0  0  0  0  0  0  0  0  0  0  0
  200.7885  187.4593  158.2906 H   0  0  0  0  0  0  0  0  0  0  0  0
  201.3763  188.7926  160.3001 H   0  0  0  0  0  0  0  0  0  0  0  0
  202.6059  187.7383  162.1787 H   0  0  0  0  0  0  0  0  0  0  0  0
  201.2148  185.4775  156.9243 H   0  0  0  0  0  0  0  0  0  0  0  0
  202.1614  184.1486  157.5661 H   0  0  0  0  0  0  0  0  0  0  0  0
  198.8883  185.5279  157.4810 H   0  0  0  0  0  0  0  0  0  0  0  0
  198.9334  182.3590  156.4115 H   0  0  0  0  0  0  0  0  0  0  0  0
  198.0253  180.1726  157.2796 H   0  0  0  0  0  0  0  0  0  0  0  0
  196.7298  180.3841  156.1216 H   0  0  0  0  0  0  0  0  0  0  0  0
  199.3815  178.4206  156.5227 H   0  0  0  0  0  0  0  0  0  0  0  0
  200.6300  177.2752  154.7172 H   0  0  0  0  0  0  0  0  0  0  0  0
  199.0325  180.0928  151.8493 H   0  0  0  0  0  0  0  0  0  0  0  0
  197.7790  181.2198  153.6644 H   0  0  0  0  0  0  0  0  0  0  0  0
  201.0241  178.6503  151.2958 H   0  0  0  0  0  0  0  0  0  0  0  0
  201.6078  177.4695  152.4242 H   0  0  0  0  0  0  0  0  0  0  0  0
  197.9296  177.6806  151.5738 H   0  0  0  0  0  0  0  0  0  0  0  0
  198.0829  176.5599  150.2324 H   0  0  0  0  0  0  0  0  0  0  0  0
  198.7690  178.1804  150.1001 H   0  0  0  0  0  0  0  0  0  0  0  0
  199.1666  175.8347  153.0202 H   0  0  0  0  0  0  0  0  0  0  0  0
  200.7057  175.2148  152.4121 H   0  0  0  0  0  0  0  0  0  0  0  0
  199.2082  174.8558  151.5539 H   0  0  0  0  0  0  0  0  0  0  0  0
  195.4262  181.4305  157.2778 H   0  0  0  0  0  0  0  0  0  0  0  0
  198.0523  186.3140  159.4270 H   0  0  0  0  0  0  0  0  0  0  0  0
  196.4501  187.3791  160.9822 H   0  0  0  0  0  0  0  0  0  0  0  0
  194.2000  186.3820  161.3417 H   0  0  0  0  0  0  0  0  0  0  0  0
  193.5733  184.2999  160.1480 H   0  0  0  0  0  0  0  0  0  0  0  0
  200.4480  176.5930  150.5267 H   0  0  0  0  0  0  0  0  0  0  0  0
  1  2  1  0
  2  3  2  0
  2  7  1  0
  3  4  1  0
  3 34  1  0
  4  5  2  0
  4  8  1  0
  5  6  1  0
  5 35  1  0
  6  7  2  0
  6 36  1  0
  7 37  1  0
  8  9  1  0
  8 38  1  6
  8 39  1  0
  9 10  2  0
  9 11  1  0
 11 12  1  0
 11 40  1  0
 12 13  2  0
 12 29  1  0
 13 14  1  0
 13 26  1  0
 14 15  1  0
 14 41  1  0
 15 16  1  0
 15 42  1  1
 15 43  1  0
 16 17  1  0
 16 21  2  0
 17 18  2  0
 17 44  1  0
 18 19  1  0
 18 45  1  0
 19 20  2  0
 19 22  1  0
 20 21  1  0
 20 46  1  0
 21 47  1  0
 22 23  1  0
 22 48  1  6
 22 49  1  0
 23 24  1  0
 23 25  1  0
 23 61  1  6
 24 50  1  1
 24 51  1  0
 24 52  1  0
 25 53  1  1
 25 54  1  0
 25 55  1  0
 26 27  2  0
 26 56  1  0
 27 28  1  0
 28 29  1  0
 28 33  2  0
 29 30  2  0
 30 31  1  0
 30 57  1  0
 31 32  2  0
 31 58  1  0
 32 33  1  0
 32 59  1  0
 33 60  1  0
M  CHG  1  23   1
M  END
>  <s_epik_cmdline>  (63) 
J2VwaWtfcHl0aG9uJywgJy1waCcsICc3LjAwMDAwMCcsICctcGh0JywgJzIuMDAwMDAwJywgJy1tcycsICcxNicsICctdG4nLCAnOCcsICctbWEnLCAnMjAwJywgJy1pbWFlJywgJzxpbmZpbGUubWFlPicsICctb21hZScsICc8b3V0ZmlsZS5tYWU+Jw==

>  <s_epik_input>  (63) 
Q2xjMVtjSF1jKFtjSF1bY0hdW2NIXTEpW0NIMl1DKD1PKVtOSF1jKGMoYzIzKVtjSF1bY0hdW2NIXVtjSF0zKWMoW2NIXW4yKVtOSF1bQ0gyXWM0W2NIXVtjSF1jKFtjSF1bY0hdNClbQ0gyXU4oW0NIM10pW0NIM10=

>  <s_i_glide_gridfile>  (63) 
ATP-Grid

>  <s_lp_Force_Field>  (63) 
OPLS_2005

>  <s_lp_Variant>  (63) 
rxn502b____EMOL492715____EMOL13728749____EMOL50155899-1

>  <s_lp_label>  (63) 
2182_sdstereoexpander_1_neutralizer_1_epik_1_stereoizer_1

>  <s_m_source_file>  (63) 
ATP-VSW-LIGPREP-002-in.maegz

>  <s_sd_BIOSOLVEIT.INFINISEE\_QUERY\_NAME>  (63) 
Ref-Lig

>  <s_sd_BIOSOLVEIT.INFINISEE\_QUERY\_SMILES>  (63) 
S(c1nc2c(cc1C[NH2+]Cc3ccc(cc3)C[NH+](C)C)cccc2)Cc4ccccc4

>  <s_sd_BIOSOLVEIT.INFINISEE\_REACTION\_NAME>  (63) 
rxn502b

>  <s_sd_BIOSOLVEIT.INFINISEE\_REAGENT1\_NAME>  (63) 
EMOL492715

>  <s_sd_BIOSOLVEIT.INFINISEE\_REAGENT1\_SMILES>  (63) 
Clc1cc(ccc1)CC(=O)O

>  <s_sd_BIOSOLVEIT.INFINISEE\_REAGENT2\_NAME>  (63) 
EMOL13728749

>  <s_sd_BIOSOLVEIT.INFINISEE\_REAGENT2\_SMILES>  (63) 
Brc1c(N)c2c(nc1)cccc2

>  <s_sd_BIOSOLVEIT.INFINISEE\_REAGENT3\_NAME>  (63) 
EMOL50155899

>  <s_sd_BIOSOLVEIT.INFINISEE\_REAGENT3\_SMILES>  (63) 
N(Cc1ccc(cc1)CN)(C)C

>  <s_sd_BIOSOLVEIT.INFINISEE\_SPACE>  (63) 
eXplore_7tr_2022-12

>  <s_vsw_compound_code>  (63) 
69794

>  <s_vsw_variant>  (63) 
69794-1

>  <r_epik_Charging_Adjusted_Penalty>  (63) 
0.097205273329747502

>  <r_epik_Ionization_Penalty>  (63) 
0.058000000000000003

>  <r_epik_Ionization_Penalty_Charging>  (63) 
0.039199999999999999

>  <r_epik_Ionization_Penalty_Neutral>  (63) 
0.018800000000000001

>  <r_epik_State_Penalty>  (63) 
0.058000000000000003

>  <r_i_docking_score>  (63) 
-3.4390827702964502

>  <r_i_glide_ecoul>  (63) 
-3.99447393417358

>  <r_i_glide_eff_state_penalty>  (63) 
0.058000000000000003

>  <r_i_glide_einternal>  (63) 
1.67340099811554

>  <r_i_glide_emodel>  (63) 
-48.411545477652901

>  <r_i_glide_energy>  (63) 
-38.082540035247803

>  <r_i_glide_erotb>  (63) 
0.665786915641423

>  <r_i_glide_esite>  (63) 
-0.029854100063873099

>  <r_i_glide_evdw>  (63) 
-34.088066101074197

>  <r_i_glide_gscore>  (63) 
-3.49708277029645

>  <r_i_glide_hbond>  (63) 
0

>  <r_i_glide_ligand_efficiency>  (63) 
-0.104214629402923

>  <r_i_glide_ligand_efficiency_ln>  (63) 
-0.76483420149633496

>  <r_i_glide_ligand_efficiency_sa>  (63) 
-0.33427200110807198

>  <r_i_glide_lipo>  (63) 
-1.5478905229719599

>  <r_i_glide_metal>  (63) 
-0

>  <r_i_glide_rewards>  (63) 
-0.28155066772228998

>  <r_lp_Energy>  (63) 
33.557029

>  <r_qp_ACxDN^.5/SA>  (63) 
0.012589400000000001

>  <r_qp_CIQPlogS>  (63) 
-6.1550000000000002

>  <r_qp_EA(eV)>  (63) 
0.91800000000000004

>  <r_qp_FISA>  (63) 
58.633000000000003

>  <r_qp_FOSA>  (63) 
237.37299999999999

>  <r_qp_IP(eV)>  (63) 
8.4199999999999999

>  <r_qp_Jm>  (63) 
0.018557792626134301

>  <r_qp_PISA>  (63) 
377.79700000000003

>  <r_qp_PSA>  (63) 
56.899999999999999

>  <r_qp_PercentHumanOralAbsorption>  (63) 
100

>  <r_qp_QPPCaco>  (63) 
686.72799999999995

>  <r_qp_QPPMDCK>  (63) 
742.30899999999997

>  <r_qp_QPlogBB>  (63) 
0.048000000000000001

>  <r_qp_QPlogHERG>  (63) 
-6.8470000000000004

>  <r_qp_QPlogKhsa>  (63) 
0.77200000000000002

>  <r_qp_QPlogKp>  (63) 
-2.5640000000000001

>  <r_qp_QPlogPC16>  (63) 
15.081

>  <r_qp_QPlogPo/w>  (63) 
4.9269999999999996

>  <r_qp_QPlogPoct>  (63) 
22.917000000000002

>  <r_qp_QPlogPw>  (63) 
12.032

>  <r_qp_QPlogS>  (63) 
-4.8300000000000001

>  <r_qp_QPpolrz>  (63) 
48.228000000000002

>  <r_qp_SASA>  (63) 
730.16800000000001

>  <r_qp_SAamideO>  (63) 
0

>  <r_qp_SAfluorine>  (63) 
0

>  <r_qp_WPSA>  (63) 
56.366

>  <r_qp_accptHB>  (63) 
6.5

>  <r_qp_dip^2/V>  (63) 
0.023428399999999999

>  <r_qp_dipole>  (63) 
5.7210000000000001

>  <r_qp_donorHB>  (63) 
2

>  <r_qp_glob>  (63) 
0.8277331

>  <r_qp_mol_MW>  (63) 
458.98899999999998

>  <r_qp_volume>  (63) 
1397.0820000000001

>  <r_sd_BIOSOLVEIT.INFINISEE\_FTREES\_SIMILARITY>  (63) 
0.93600000000000005

>  <r_sd_BIOSOLVEIT.LOGP>  (63) 
4.3259999999999996

>  <r_sd_BIOSOLVEIT.MOLECULAR\_WEIGHT>  (63) 
459.99799999999999

>  <r_sd_BIOSOLVEIT.TPSA>  (63) 
58.460000000000001

>  <i_epik_Tot_Q>  (63) 
1

>  <i_epik_Tot_abs_Q>  (63) 
1

>  <i_f3d_flags>  (63) 
0

>  <i_i_glide_confnum>  (63) 
4

>  <i_i_glide_lignum>  (63) 
811

>  <i_i_glide_posenum>  (63) 
13

>  <i_i_glide_rotatable_bonds>  (63) 
9

>  <i_lp_mmshare_version>  (63) 
65135

>  <i_m_ct_format>  (63) 
2

>  <i_m_source_file_index>  (63) 
2182

>  <i_qp_#NandO>  (63) 
5

>  <i_qp_#acid>  (63) 
0

>  <i_qp_#amide>  (63) 
0

>  <i_qp_#amidine>  (63) 
0

>  <i_qp_#amine>  (63) 
1

>  <i_qp_#in34>  (63) 
0

>  <i_qp_#in56>  (63) 
22

>  <i_qp_#metab>  (63) 
7

>  <i_qp_#nonHatm>  (63) 
33

>  <i_qp_#noncon>  (63) 
0

>  <i_qp_#ringatoms>  (63) 
22

>  <i_qp_#rotor>  (63) 
8

>  <i_qp_#rtvFG>  (63) 
0

>  <i_qp_#stars>  (63) 
0

>  <i_qp_CNS>  (63) 
1

>  <i_qp_HumanOralAbsorption>  (63) 
3

>  <i_qp_RuleOfFive>  (63) 
0

>  <i_qp_RuleOfThree>  (63) 
1

>  <i_sd_BIOSOLVEIT.INFINISEE\_RESULT\_RANK>  (63) 
2229

>  <i_sd_version>  (63) 
0

>  <b_lp_Chiralities_Consistent>  (63) 
1

>  <b_sd_chiral_flag>  (63) 
0

>  <canonical_id>  (63) 
ATP-HTVS-0A8D2667A5C6

>  <compound_code>  (63) 
69794

>  <title>  (63) 
rxn502b____EMOL492715____EMOL13728749____EMOL50155899

>  <variant>  (63) 
69794-1

>  <source_file>  (63) 
运行/运行/ATP-VSW/ATP-VSW-DOCK_HTVS_1-002_lib.maegz

>  <canonical_smiles>  (63) 
C[NH+](C)Cc1ccc(CNc2cnc3ccccc3c2NC(=O)Cc2cccc(Cl)c2)cc1

>  <scaffold>  (63) 
O=C(Cc1ccccc1)Nc1c(NCc2ccccc2)cnc2ccccc12

>  <molecular_formula>  (63) 
C27H28ClN4O+

$$$$
ATP-HTVS-0AAFA8CB92ED
     RDKit          3D

 64 67  0  0  0  0  0  0  0  0999 V2000
  198.4356  180.8558  156.1189 N   0  0  0  0  0  0  0  0  0  0  0  0
  197.8527  181.9508  155.6158 C   0  0  0  0  0  0  0  0  0  0  0  0
  197.5216  182.0648  154.3293 N   0  0  0  0  0  0  0  0  0  0  0  0
  197.8130  181.0713  153.4678 C   0  0  0  0  0  0  0  0  0  0  0  0
  198.4458  179.8794  153.9283 C   0  0  0  0  0  0  0  0  0  0  0  0
  198.7436  179.8196  155.3089 C   0  0  0  0  0  0  0  0  0  0  0  0
  199.3446  178.7139  155.9364 N   0  0  0  0  0  0  0  0  0  0  0  0
  200.5952  178.1302  155.4116 C   0  0  1  0  0  0  0  0  0  0  0  0
  201.1868  177.0446  156.3465 C   0  0  1  0  0  0  0  0  0  0  0  0
  201.9115  175.9783  155.5230 C   0  0  0  0  0  0  0  0  0  0  0  0
  201.3127  174.7139  155.3120 C   0  0  0  0  0  0  0  0  0  0  0  0
  201.9630  173.7319  154.5394 C   0  0  0  0  0  0  0  0  0  0  0  0
  203.2148  174.0018  153.9564 C   0  0  0  0  0  0  0  0  0  0  0  0
  203.8484  173.0401  153.1746 N   0  0  0  0  0  0  0  0  0  0  0  0
  203.8185  175.2635  154.1587 C   0  0  0  0  0  0  0  0  0  0  0  0
  203.1630  176.2455  154.9336 C   0  0  0  0  0  0  0  0  0  0  0  0
  198.6928  178.8305  153.0019 C   0  0  0  0  0  0  0  0  0  0  0  0
  198.3549  179.0135  151.6427 C   0  0  0  0  0  0  0  0  0  0  0  0
  197.7427  180.2058  151.1757 C   0  0  0  0  0  0  0  0  0  0  0  0
  197.4613  181.2322  152.1027 C   0  0  0  0  0  0  0  0  0  0  0  0
  197.5910  183.0420  156.4203 N   0  0  0  0  0  0  0  0  0  0  0  0
  197.9134  183.0884  157.8479 C   0  0  1  0  0  0  0  0  0  0  0  0
  197.1445  184.2042  158.5923 C   0  0  0  0  0  0  0  0  0  0  0  0
  195.7115  184.2875  158.6756 C   0  0  0  0  0  0  0  0  0  0  0  0
  195.1310  185.3401  159.4136 C   0  0  0  0  0  0  0  0  0  0  0  0
  195.9112  186.3338  160.0360 C   0  0  0  0  0  0  0  0  0  0  0  0
  197.3097  186.2453  159.9486 C   0  0  0  0  0  0  0  0  0  0  0  0
  197.9114  185.1903  159.2438 C   0  0  0  0  0  0  0  0  0  0  0  0
  194.7474  183.2727  158.0431 C   0  0  1  0  0  0  0  0  0  0  0  0
  194.4327  182.1258  158.9238 N   0  0  1  0  0  0  0  0  0  0  0  0
  193.5138  181.1552  158.2750 C   0  0  2  0  0  0  0  0  0  0  0  0
  195.6474  181.4286  159.3470 C   0  0  2  0  0  0  0  0  0  0  0  0
  199.1097  178.5852  156.9101 H   0  0  0  0  0  0  0  0  0  0  0  0
  200.4308  177.6465  154.4736 H   0  0  0  0  0  0  0  0  0  0  0  0
  201.3302  178.9322  155.2459 H   0  0  0  0  0  0  0  0  0  0  0  0
  201.8614  177.4782  157.0802 H   0  0  0  0  0  0  0  0  0  0  0  0
  200.3873  176.5620  156.8979 H   0  0  0  0  0  0  0  0  0  0  0  0
  200.3508  174.4905  155.7382 H   0  0  0  0  0  0  0  0  0  0  0  0
  201.5064  172.7644  154.3992 H   0  0  0  0  0  0  0  0  0  0  0  0
  204.8179  173.1547  152.9263 H   0  0  0  0  0  0  0  0  0  0  0  0
  203.5589  172.0620  153.2817 H   0  0  0  0  0  0  0  0  0  0  0  0
  204.7824  175.4753  153.7253 H   0  0  0  0  0  0  0  0  0  0  0  0
  203.6318  177.2089  155.0711 H   0  0  0  0  0  0  0  0  0  0  0  0
  199.0697  177.8822  153.3082 H   0  0  0  0  0  0  0  0  0  0  0  0
  198.5524  178.2151  150.9474 H   0  0  0  0  0  0  0  0  0  0  0  0
  197.4736  180.3136  150.1385 H   0  0  0  0  0  0  0  0  0  0  0  0
  196.9617  182.1446  151.7728 H   0  0  0  0  0  0  0  0  0  0  0  0
  196.9880  183.7517  156.0191 H   0  0  0  0  0  0  0  0  0  0  0  0
  197.7727  182.1290  158.3016 H   0  0  0  0  0  0  0  0  0  0  0  0
  198.9965  183.3191  157.9318 H   0  0  0  0  0  0  0  0  0  0  0  0
  194.0471  185.4031  159.5079 H   0  0  0  0  0  0  0  0  0  0  0  0
  195.4502  187.1629  160.5753 H   0  0  0  0  0  0  0  0  0  0  0  0
  197.9244  186.9952  160.4411 H   0  0  0  0  0  0  0  0  0  0  0  0
  198.9845  185.1196  159.2370 H   0  0  0  0  0  0  0  0  0  0  0  0
  193.8074  183.7823  157.8129 H   0  0  0  0  0  0  0  0  0  0  0  0
  195.1516  182.9185  157.1032 H   0  0  0  0  0  0  0  0  0  0  0  0
  193.9482  180.7642  157.3573 H   0  0  0  0  0  0  0  0  0  0  0  0
  192.5519  181.6190  158.0290 H   0  0  0  0  0  0  0  0  0  0  0  0
  193.3338  180.2922  158.9117 H   0  0  0  0  0  0  0  0  0  0  0  0
  196.1837  181.0799  158.4684 H   0  0  0  0  0  0  0  0  0  0  0  0
  195.4695  180.6460  160.0689 H   0  0  0  0  0  0  0  0  0  0  0  0
  196.2989  182.1298  159.9074 H   0  0  0  0  0  0  0  0  0  0  0  0
  197.0500  182.8958  153.9917 H   0  0  0  0  0  0  0  0  0  0  0  0
  193.9616  182.4778  159.7582 H   0  0  0  0  0  0  0  0  0  0  0  0
  1  2  1  0
  1  6  2  0
  2  3  2  0
  2 21  1  0
  3  4  1  0
  3 63  1  0
  4  5  1  0
  4 20  2  0
  5  6  1  0
  5 17  2  0
  6  7  1  0
  7  8  1  0
  7 33  1  0
  8  9  1  0
  8 34  1  6
  8 35  1  0
  9 10  1  0
  9 36  1  1
  9 37  1  0
 10 11  1  0
 10 16  2  0
 11 12  2  0
 11 38  1  0
 12 13  1  0
 12 39  1  0
 13 14  1  0
 13 15  2  0
 14 40  1  0
 14 41  1  0
 15 16  1  0
 15 42  1  0
 16 43  1  0
 17 18  1  0
 17 44  1  0
 18 19  2  0
 18 45  1  0
 19 20  1  0
 19 46  1  0
 20 47  1  0
 21 22  1  0
 21 48  1  0
 22 23  1  0
 22 49  1  1
 22 50  1  0
 23 24  1  0
 23 28  2  0
 24 25  2  0
 24 29  1  0
 25 26  1  0
 25 51  1  0
 26 27  2  0
 26 52  1  0
 27 28  1  0
 27 53  1  0
 28 54  1  0
 29 30  1  0
 29 55  1  6
 29 56  1  0
 30 31  1  0
 30 32  1  0
 30 64  1  1
 31 57  1  6
 31 58  1  0
 31 59  1  0
 32 60  1  6
 32 61  1  0
 32 62  1  0
M  CHG  2   3   1  30   1
M  END
>  <s_epik_cmdline>  (64) 
J2VwaWtfcHl0aG9uJywgJy1waCcsICc3LjAwMDAwMCcsICctcGh0JywgJzIuMDAwMDAwJywgJy1tcycsICcxNicsICctdG4nLCAnOCcsICctbWEnLCAnMjAwJywgJy1pbWFlJywgJzxpbmZpbGUubWFlPicsICctb21hZScsICc8b3V0ZmlsZS5tYWU+Jw==

>  <s_epik_input>  (64) 
W2NIXTFbY0hdW2NIXVtjSF1jKFtDSDJdTihbQ0gzXSlbQ0gzXSljMVtDSDJdW05IXWMobjIpbmMoYyhjMjMpW2NIXVtjSF1bY0hdW2NIXTMpW05IXVtDSDJdW0NIMl1jNFtjSF1bY0hdYyhbTkgyXSlbY0hdW2NIXTQ=

>  <s_i_glide_gridfile>  (64) 
ATP-Grid

>  <s_lp_Force_Field>  (64) 
OPLS_2005

>  <s_lp_Variant>  (64) 
m_282030aaa____21928756____22360182____21973156-1

>  <s_lp_label>  (64) 
1350_sdstereoexpander_1_neutralizer_1_epik_1_stereoizer_1

>  <s_m_source_file>  (64) 
ATP-VSW-LIGPREP-001-in.maegz

>  <s_sd_BIOSOLVEIT.INFINISEE\_QUERY\_NAME>  (64) 
Ref-Lig

>  <s_sd_BIOSOLVEIT.INFINISEE\_QUERY\_SMILES>  (64) 
S(c1nc2c(cc1C[NH2+]Cc3ccc(cc3)C[NH+](C)C)cccc2)Cc4ccccc4

>  <s_sd_BIOSOLVEIT.INFINISEE\_REACTION\_NAME>  (64) 
m_282030aaa

>  <s_sd_BIOSOLVEIT.INFINISEE\_REAGENT1\_SMILES>  (64) 
[R1*]NCCc1ccc(N)cc1

>  <s_sd_BIOSOLVEIT.INFINISEE\_REAGENT2\_SMILES>  (64) 
[R2*]c1nc([R1*])c2c(n1)cccc2

>  <s_sd_BIOSOLVEIT.INFINISEE\_REAGENT3\_SMILES>  (64) 
[R2*]NCc1c(cccc1)CN(C)C

>  <s_sd_BIOSOLVEIT.INFINISEE\_SPACE>  (64) 
REALSpace_44bn_2023-08

>  <s_vsw_compound_code>  (64) 
43169

>  <s_vsw_variant>  (64) 
43169-1

>  <r_epik_Charging_Adjusted_Penalty>  (64) 
0.112107334397039

>  <r_epik_Ionization_Penalty>  (64) 
0.061899999999999997

>  <r_epik_Ionization_Penalty_Charging>  (64) 
0.051900000000000002

>  <r_epik_Ionization_Penalty_Neutral>  (64) 
0.01

>  <r_epik_State_Penalty>  (64) 
0.060199999999999997

>  <r_i_docking_score>  (64) 
-4.8459381413273697

>  <r_i_glide_ecoul>  (64) 
-9.3036584854125994

>  <r_i_glide_eff_state_penalty>  (64) 
0.060199999999999997

>  <r_i_glide_einternal>  (64) 
8.4350519180297905

>  <r_i_glide_emodel>  (64) 
-57.967730336768497

>  <r_i_glide_energy>  (64) 
-39.5597276687622

>  <r_i_glide_erotb>  (64) 
0.86522138145552796

>  <r_i_glide_esite>  (64) 
-0.289891840577018

>  <r_i_glide_evdw>  (64) 
-30.256069183349599

>  <r_i_glide_gscore>  (64) 
-4.9061381413273697

>  <r_i_glide_hbond>  (64) 
-0.22310889572093601

>  <r_i_glide_ligand_efficiency>  (64) 
-0.15143556691648

>  <r_i_glide_ligand_efficiency_ln>  (64) 
-1.08513764512793

>  <r_i_glide_ligand_efficiency_sa>  (64) 
-0.48077795590182598

>  <r_i_glide_lipo>  (64) 
-1.6380007363237501

>  <r_i_glide_metal>  (64) 
-0

>  <r_i_glide_rewards>  (64) 
-0.71200581818181696

>  <r_lp_Energy>  (64) 
21.207723000000001

>  <r_qp_ACxDN^.5/SA>  (64) 
0.016015100000000001

>  <r_qp_CIQPlogS>  (64) 
-5.5439999999999996

>  <r_qp_EA(eV)>  (64) 
0.40000000000000002

>  <r_qp_FISA>  (64) 
73.259

>  <r_qp_FOSA>  (64) 
247.39500000000001

>  <r_qp_IP(eV)>  (64) 
7.71

>  <r_qp_Jm>  (64) 
0.19583238364050801

>  <r_qp_PISA>  (64) 
380.24799999999999

>  <r_qp_PSA>  (64) 
70.418999999999997

>  <r_qp_PercentHumanOralAbsorption>  (64) 
100

>  <r_qp_QPPCaco>  (64) 
498.98599999999999

>  <r_qp_QPPMDCK>  (64) 
258.166

>  <r_qp_QPlogBB>  (64) 
-0.32500000000000001

>  <r_qp_QPlogHERG>  (64) 
-6.5789999999999997

>  <r_qp_QPlogKhsa>  (64) 
0.57099999999999995

>  <r_qp_QPlogKp>  (64) 
-2.633

>  <r_qp_QPlogPC16>  (64) 
14.749000000000001

>  <r_qp_QPlogPo/w>  (64) 
4.2880000000000003

>  <r_qp_QPlogPoct>  (64) 
23.306000000000001

>  <r_qp_QPlogPw>  (64) 
13.321

>  <r_qp_QPlogS>  (64) 
-3.7050000000000001

>  <r_qp_QPpolrz>  (64) 
45.298000000000002

>  <r_qp_SASA>  (64) 
700.90099999999995

>  <r_qp_SAamideO>  (64) 
0

>  <r_qp_SAfluorine>  (64) 
0

>  <r_qp_WPSA>  (64) 
0

>  <r_qp_accptHB>  (64) 
6

>  <r_qp_dip^2/V>  (64) 
0.0029443

>  <r_qp_dipole>  (64) 
1.998

>  <r_qp_donorHB>  (64) 
3.5

>  <r_qp_glob>  (64) 
0.84504670000000004

>  <r_qp_mol_MW>  (64) 
426.56299999999999

>  <r_qp_volume>  (64) 
1355.3720000000001

>  <r_sd_BIOSOLVEIT.INFINISEE\_FTREES\_SIMILARITY>  (64) 
0.90900000000000003

>  <r_sd_BIOSOLVEIT.LOGP>  (64) 
3.1232000000000002

>  <r_sd_BIOSOLVEIT.MOLECULAR\_WEIGHT>  (64) 
427.57299999999998

>  <r_sd_BIOSOLVEIT.TPSA>  (64) 
80.299999999999997

>  <i_epik_Tot_Q>  (64) 
2

>  <i_epik_Tot_abs_Q>  (64) 
2

>  <i_f3d_flags>  (64) 
0

>  <i_i_glide_confnum>  (64) 
3

>  <i_i_glide_lignum>  (64) 
358

>  <i_i_glide_posenum>  (64) 
12

>  <i_i_glide_rotatable_bonds>  (64) 
9

>  <i_lp_mmshare_version>  (64) 
65135

>  <i_m_ct_format>  (64) 
2

>  <i_m_source_file_index>  (64) 
1350

>  <i_qp_#NandO>  (64) 
6

>  <i_qp_#acid>  (64) 
0

>  <i_qp_#amide>  (64) 
0

>  <i_qp_#amidine>  (64) 
0

>  <i_qp_#amine>  (64) 
1

>  <i_qp_#in34>  (64) 
0

>  <i_qp_#in56>  (64) 
22

>  <i_qp_#metab>  (64) 
6

>  <i_qp_#nonHatm>  (64) 
32

>  <i_qp_#noncon>  (64) 
0

>  <i_qp_#ringatoms>  (64) 
22

>  <i_qp_#rotor>  (64) 
10

>  <i_qp_#rtvFG>  (64) 
0

>  <i_qp_#stars>  (64) 
1

>  <i_qp_CNS>  (64) 
0

>  <i_qp_HumanOralAbsorption>  (64) 
3

>  <i_qp_RuleOfFive>  (64) 
0

>  <i_qp_RuleOfThree>  (64) 
0

>  <i_sd_BIOSOLVEIT.INFINISEE\_REAGENT1\_NAME>  (64) 
21928756

>  <i_sd_BIOSOLVEIT.INFINISEE\_REAGENT2\_NAME>  (64) 
22360182

>  <i_sd_BIOSOLVEIT.INFINISEE\_REAGENT3\_NAME>  (64) 
21973156

>  <i_sd_BIOSOLVEIT.INFINISEE\_RESULT\_RANK>  (64) 
49579

>  <i_sd_version>  (64) 
0

>  <b_lp_Chiralities_Consistent>  (64) 
1

>  <b_sd_chiral_flag>  (64) 
0

>  <canonical_id>  (64) 
ATP-HTVS-0AAFA8CB92ED

>  <compound_code>  (64) 
43169

>  <title>  (64) 
m_282030aaa____21928756____22360182____21973156

>  <variant>  (64) 
43169-1

>  <source_file>  (64) 
运行/运行/ATP-VSW/ATP-VSW-DOCK_HTVS_1-001_lib/ATP-VSW-DOCK_HTVS_1-001_lib

>  <canonical_smiles>  (64) 
C[NH+](C)Cc1ccccc1CNc1nc(NCCc2ccc(N)cc2)c2ccccc2[nH+]1

>  <scaffold>  (64) 
c1ccc(CCNc2nc(NCc3ccccc3)[nH+]c3ccccc23)cc1

>  <molecular_formula>  (64) 
C26H32N6+2

$$$$
ATP-HTVS-0AE85D2EF5B8
     RDKit          3D

 64 67  0  0  0  0  0  0  0  0999 V2000
  199.9757  179.6536  150.4823 O   0  0  0  0  0  0  0  0  0  0  0  0
  200.2943  178.7015  151.1890 C   0  0  0  0  0  0  0  0  0  0  0  0
  200.0588  178.6133  152.5116 N   0  0  0  0  0  0  0  0  0  0  0  0
  199.4102  179.5299  153.3688 C   0  0  0  0  0  0  0  0  0  0  0  0
  198.7488  180.6161  152.8941 N   0  0  0  0  0  0  0  0  0  0  0  0
  198.1621  181.4447  153.7862 C   0  0  0  0  0  0  0  0  0  0  0  0
  198.2482  181.1932  155.1672 C   0  0  0  0  0  0  0  0  0  0  0  0
  198.9088  180.1232  155.6604 N   0  0  0  0  0  0  0  0  0  0  0  0
  199.4782  179.2691  154.7745 C   0  0  0  0  0  0  0  0  0  0  0  0
  200.1523  178.0847  155.3762 C   0  0  0  0  0  0  0  0  0  0  0  0
  200.8819  178.2200  156.5773 C   0  0  0  0  0  0  0  0  0  0  0  0
  201.5072  177.1052  157.1717 C   0  0  0  0  0  0  0  0  0  0  0  0
  201.4852  175.8474  156.5443 C   0  0  0  0  0  0  0  0  0  0  0  0
  200.7820  175.6902  155.3477 C   0  0  0  0  0  0  0  0  0  0  0  0
  200.0916  176.7885  154.8007 C   0  0  0  0  0  0  0  0  0  0  0  0
  197.6171  182.0905  156.0957 C   0  0  0  0  0  0  0  0  0  0  0  0
  197.0710  182.8570  156.8813 C   0  0  0  0  0  0  0  0  0  0  0  0
  196.4261  183.7350  157.8316 C   0  0  0  0  0  0  0  0  0  0  0  0
  195.4699  183.2516  158.7573 C   0  0  0  0  0  0  0  0  0  0  0  0
  194.8620  184.1604  159.6525 C   0  0  0  0  0  0  0  0  0  0  0  0
  195.2090  185.5227  159.6357 C   0  0  0  0  0  0  0  0  0  0  0  0
  196.1547  185.9980  158.7115 C   0  0  0  0  0  0  0  0  0  0  0  0
  196.7627  185.1040  157.8113 C   0  0  0  0  0  0  0  0  0  0  0  0
  195.0831  181.7805  158.7995 C   0  0  1  0  0  0  0  0  0  0  0  0
  194.1232  181.4371  157.7356 N   0  0  2  0  0  0  0  0  0  0  0  0
  200.9672  177.4700  150.6080 C   0  0  0  0  0  0  0  0  0  0  0  0
  200.8027  177.0832  149.2422 C   0  0  0  0  0  0  0  0  0  0  0  0
  201.4671  175.9268  148.7655 C   0  0  0  0  0  0  0  0  0  0  0  0
  202.2879  175.1446  149.6012 C   0  0  0  0  0  0  0  0  0  0  0  0
  202.4551  175.5201  150.9394 C   0  0  0  0  0  0  0  0  0  0  0  0
  201.8126  176.6699  151.4314 C   0  0  0  0  0  0  0  0  0  0  0  0
  199.8884  177.8030  148.2410 C   0  0  1  0  0  0  0  0  0  0  0  0
  198.4600  177.4462  148.4539 N   0  0  1  0  0  0  0  0  0  0  0  0
  197.5659  178.1954  147.5425 C   0  0  2  0  0  0  0  0  0  0  0  0
  198.2026  175.9874  148.3895 C   0  0  2  0  0  0  0  0  0  0  0  0
  193.9506  180.4518  157.7792 H   0  0  0  0  0  0  0  0  0  0  0  0
  194.5089  181.6695  156.8208 H   0  0  0  0  0  0  0  0  0  0  0  0
  200.4356  177.7987  152.9808 H   0  0  0  0  0  0  0  0  0  0  0  0
  197.6367  182.2928  153.3737 H   0  0  0  0  0  0  0  0  0  0  0  0
  200.9693  179.1791  157.0711 H   0  0  0  0  0  0  0  0  0  0  0  0
  202.0181  177.2479  158.1057 H   0  0  0  0  0  0  0  0  0  0  0  0
  201.9747  174.9932  156.9984 H   0  0  0  0  0  0  0  0  0  0  0  0
  200.7308  174.7305  154.8521 H   0  0  0  0  0  0  0  0  0  0  0  0
  199.5178  176.5729  153.9194 H   0  0  0  0  0  0  0  0  0  0  0  0
  194.1206  183.8328  160.3632 H   0  0  0  0  0  0  0  0  0  0  0  0
  194.7351  186.2102  160.3219 H   0  0  0  0  0  0  0  0  0  0  0  0
  196.4060  187.0467  158.6810 H   0  0  0  0  0  0  0  0  0  0  0  0
  197.4800  185.4748  157.0931 H   0  0  0  0  0  0  0  0  0  0  0  0
  195.9720  181.1405  158.7593 H   0  0  0  0  0  0  0  0  0  0  0  0
  194.5999  181.5447  159.7417 H   0  0  0  0  0  0  0  0  0  0  0  0
  201.3416  175.6105  147.7420 H   0  0  0  0  0  0  0  0  0  0  0  0
  202.7805  174.2555  149.2159 H   0  0  0  0  0  0  0  0  0  0  0  0
  203.0851  174.9224  151.5903 H   0  0  0  0  0  0  0  0  0  0  0  0
  202.0113  176.9025  152.4685 H   0  0  0  0  0  0  0  0  0  0  0  0
  200.0193  178.8858  148.2504 H   0  0  0  0  0  0  0  0  0  0  0  0
  200.1876  177.5251  147.2238 H   0  0  0  0  0  0  0  0  0  0  0  0
  197.7860  177.9526  146.5033 H   0  0  0  0  0  0  0  0  0  0  0  0
  197.6941  179.2698  147.6768 H   0  0  0  0  0  0  0  0  0  0  0  0
  196.5165  177.9599  147.7286 H   0  0  0  0  0  0  0  0  0  0  0  0
  198.5005  175.5820  147.4212 H   0  0  0  0  0  0  0  0  0  0  0  0
  197.1421  175.7880  148.5377 H   0  0  0  0  0  0  0  0  0  0  0  0
  198.7229  175.4324  149.1720 H   0  0  0  0  0  0  0  0  0  0  0  0
  193.2735  181.9857  157.8109 H   0  0  0  0  0  0  0  0  0  0  0  0
  198.2184  177.7346  149.3917 H   0  0  0  0  0  0  0  0  0  0  0  0
  1  2  2  0
  2  3  1  0
  2 26  1  0
  3  4  1  0
  3 38  1  0
  4  5  1  0
  4  9  2  0
  5  6  2  0
  6  7  1  0
  6 39  1  0
  7  8  2  0
  7 16  1  0
  8  9  1  0
  9 10  1  0
 10 11  2  0
 10 15  1  0
 11 12  1  0
 11 40  1  0
 12 13  2  0
 12 41  1  0
 13 14  1  0
 13 42  1  0
 14 15  2  0
 14 43  1  0
 15 44  1  0
 16 17  3  0
 17 18  1  0
 18 19  1  0
 18 23  2  0
 19 20  2  0
 19 24  1  0
 20 21  1  0
 20 45  1  0
 21 22  2  0
 21 46  1  0
 22 23  1  0
 22 47  1  0
 23 48  1  0
 24 25  1  0
 24 49  1  6
 24 50  1  0
 25 36  1  6
 25 37  1  0
 25 63  1  0
 26 27  1  0
 26 31  2  0
 27 28  2  0
 27 32  1  0
 28 29  1  0
 28 51  1  0
 29 30  2  0
 29 52  1  0
 30 31  1  0
 30 53  1  0
 31 54  1  0
 32 33  1  0
 32 55  1  6
 32 56  1  0
 33 34  1  0
 33 35  1  0
 33 64  1  1
 34 57  1  6
 34 58  1  0
 34 59  1  0
 35 60  1  6
 35 61  1  0
 35 62  1  0
M  CHG  2  25   1  33   1
M  END
>  <s_epik_cmdline>  (65) 
J2VwaWtfcHl0aG9uJywgJy1waCcsICc3LjAwMDAwMCcsICctcGh0JywgJzIuMDAwMDAwJywgJy1tcycsICcxNicsICctdG4nLCAnOCcsICctbWEnLCAnMjAwJywgJy1pbWFlJywgJzxpbmZpbGUubWFlPicsICctb21hZScsICc8b3V0ZmlsZS5tYWU+Jw==

>  <s_epik_input>  (65) 
W2NIXTFbY0hdW2NIXVtjSF1jKFtDSDJdTihbQ0gzXSlbQ0gzXSljMUMoPU8pW05IXWMybltjSF1jKG5jMi1jM1tjSF1bY0hdW2NIXVtjSF1bY0hdMylDI0NjNGMoW0NIMl1bTkgyXSlbY0hdW2NIXVtjSF1bY0hdNA==

>  <s_i_glide_gridfile>  (65) 
ATP-Grid

>  <s_lp_Force_Field>  (65) 
OPLS_2005

>  <s_lp_Variant>  (65) 
rxn505a____EMOL5415347____EMOL313123100____EMOL29480358-1

>  <s_lp_label>  (65) 
2949_sdstereoexpander_1_neutralizer_1_epik_1_stereoizer_1

>  <s_m_source_file>  (65) 
ATP-VSW-LIGPREP-002-in.maegz

>  <s_sd_BIOSOLVEIT.INFINISEE\_QUERY\_NAME>  (65) 
Ref-Lig

>  <s_sd_BIOSOLVEIT.INFINISEE\_QUERY\_SMILES>  (65) 
S(c1nc2c(cc1C[NH2+]Cc3ccc(cc3)C[NH+](C)C)cccc2)Cc4ccccc4

>  <s_sd_BIOSOLVEIT.INFINISEE\_REACTION\_NAME>  (65) 
rxn505a

>  <s_sd_BIOSOLVEIT.INFINISEE\_REAGENT1\_NAME>  (65) 
EMOL5415347

>  <s_sd_BIOSOLVEIT.INFINISEE\_REAGENT1\_SMILES>  (65) 
O=C(O)c1c(cccc1)CN(C)C

>  <s_sd_BIOSOLVEIT.INFINISEE\_REAGENT2\_NAME>  (65) 
EMOL313123100

>  <s_sd_BIOSOLVEIT.INFINISEE\_REAGENT2\_SMILES>  (65) 
n1c(C#C)cnc(N)c1c2ccccc2

>  <s_sd_BIOSOLVEIT.INFINISEE\_REAGENT3\_NAME>  (65) 
EMOL29480358

>  <s_sd_BIOSOLVEIT.INFINISEE\_REAGENT3\_SMILES>  (65) 
Ic1c(cccc1)CN

>  <s_sd_BIOSOLVEIT.INFINISEE\_SPACE>  (65) 
eXplore_7tr_2022-12

>  <s_vsw_compound_code>  (65) 
94338

>  <s_vsw_variant>  (65) 
94338-1

>  <r_epik_Charging_Adjusted_Penalty>  (65) 
0.184871051884998

>  <r_epik_Ionization_Penalty>  (65) 
0.096500000000000002

>  <r_epik_Ionization_Penalty_Charging>  (65) 
0.094

>  <r_epik_Ionization_Penalty_Neutral>  (65) 
0.0025000000000000001

>  <r_epik_State_Penalty>  (65) 
0.090899999999999995

>  <r_i_docking_score>  (65) 
-5.1987640198156404

>  <r_i_glide_ecoul>  (65) 
-10.853096961975099

>  <r_i_glide_eff_state_penalty>  (65) 
0.090899999999999995

>  <r_i_glide_einternal>  (65) 
3.2995138168335001

>  <r_i_glide_emodel>  (65) 
-63.711779130819103

>  <r_i_glide_energy>  (65) 
-42.048258781433098

>  <r_i_glide_erotb>  (65) 
0.45950798978895802

>  <r_i_glide_esite>  (65) 
-0.0889611003479929

>  <r_i_glide_evdw>  (65) 
-31.195161819458001

>  <r_i_glide_gscore>  (65) 
-5.2896640198156497

>  <r_i_glide_hbond>  (65) 
-0.150949244653453

>  <r_i_glide_ligand_efficiency>  (65) 
-0.14853611485187601

>  <r_i_glide_ligand_efficiency_ln>  (65) 
-1.14124408270043

>  <r_i_glide_ligand_efficiency_sa>  (65) 
-0.48587148056245899

>  <r_i_glide_lipo>  (65) 
-1.54317625660672

>  <r_i_glide_metal>  (65) 
-0

>  <r_i_glide_rewards>  (65) 
-0.77836277272727195

>  <r_lp_Energy>  (65) 
36.827367000000002

>  <r_qp_ACxDN^.5/SA>  (65) 
0.0158814

>  <r_qp_CIQPlogS>  (65) 
-4.8109999999999999

>  <r_qp_EA(eV)>  (65) 
0.93600000000000005

>  <r_qp_FISA>  (65) 
103.349

>  <r_qp_FOSA>  (65) 
174.404

>  <r_qp_IP(eV)>  (65) 
8.8889999999999993

>  <r_qp_Jm>  (65) 
0.00041000256450084101

>  <r_qp_PISA>  (65) 
540.20899999999995

>  <r_qp_PSA>  (65) 
84.436000000000007

>  <r_qp_PercentHumanOralAbsorption>  (65) 
83.960999999999999

>  <r_qp_QPPCaco>  (65) 
64.512

>  <r_qp_QPPMDCK>  (65) 
31.295000000000002

>  <r_qp_QPlogBB>  (65) 
-0.313

>  <r_qp_QPlogHERG>  (65) 
-9.1120000000000001

>  <r_qp_QPlogKhsa>  (65) 
0.76700000000000002

>  <r_qp_QPlogKp>  (65) 
-4.782

>  <r_qp_QPlogPC16>  (65) 
17.652999999999999

>  <r_qp_QPlogPo/w>  (65) 
4.2060000000000004

>  <r_qp_QPlogPoct>  (65) 
26.846

>  <r_qp_QPlogPw>  (65) 
15.861000000000001

>  <r_qp_QPlogS>  (65) 
-4.2690000000000001

>  <r_qp_QPpolrz>  (65) 
53.926000000000002

>  <r_qp_SASA>  (65) 
817.96299999999997

>  <r_qp_SAamideO>  (65) 
0

>  <r_qp_SAfluorine>  (65) 
0

>  <r_qp_WPSA>  (65) 
0

>  <r_qp_accptHB>  (65) 
7.5

>  <r_qp_dip^2/V>  (65) 
0.019515500000000002

>  <r_qp_dipole>  (65) 
5.4409999999999998

>  <r_qp_donorHB>  (65) 
3

>  <r_qp_glob>  (65) 
0.78050160000000002

>  <r_qp_mol_MW>  (65) 
461.565

>  <r_qp_volume>  (65) 
1516.749

>  <r_sd_BIOSOLVEIT.INFINISEE\_FTREES\_SIMILARITY>  (65) 
0.90300000000000002

>  <r_sd_BIOSOLVEIT.LOGP>  (65) 
2.1821000000000002

>  <r_sd_BIOSOLVEIT.MOLECULAR\_WEIGHT>  (65) 
463.58199999999999

>  <r_sd_BIOSOLVEIT.TPSA>  (65) 
86.959999999999994

>  <i_epik_Tot_Q>  (65) 
2

>  <i_epik_Tot_abs_Q>  (65) 
2

>  <i_f3d_flags>  (65) 
0

>  <i_i_glide_confnum>  (65) 
1

>  <i_i_glide_lignum>  (65) 
14

>  <i_i_glide_posenum>  (65) 
10

>  <i_i_glide_rotatable_bonds>  (65) 
9

>  <i_lp_mmshare_version>  (65) 
65135

>  <i_m_ct_format>  (65) 
2

>  <i_m_source_file_index>  (65) 
2949

>  <i_qp_#NandO>  (65) 
6

>  <i_qp_#acid>  (65) 
0

>  <i_qp_#amide>  (65) 
0

>  <i_qp_#amidine>  (65) 
0

>  <i_qp_#amine>  (65) 
2

>  <i_qp_#in34>  (65) 
0

>  <i_qp_#in56>  (65) 
24

>  <i_qp_#metab>  (65) 
6

>  <i_qp_#nonHatm>  (65) 
35

>  <i_qp_#noncon>  (65) 
0

>  <i_qp_#ringatoms>  (65) 
24

>  <i_qp_#rotor>  (65) 
9

>  <i_qp_#rtvFG>  (65) 
0

>  <i_qp_#stars>  (65) 
1

>  <i_qp_CNS>  (65) 
0

>  <i_qp_HumanOralAbsorption>  (65) 
3

>  <i_qp_RuleOfFive>  (65) 
0

>  <i_qp_RuleOfThree>  (65) 
0

>  <i_sd_BIOSOLVEIT.INFINISEE\_RESULT\_RANK>  (65) 
79983

>  <i_sd_version>  (65) 
0

>  <b_lp_Chiralities_Consistent>  (65) 
1

>  <b_sd_chiral_flag>  (65) 
0

>  <canonical_id>  (65) 
ATP-HTVS-0AE85D2EF5B8

>  <compound_code>  (65) 
94338

>  <title>  (65) 
rxn505a____EMOL5415347____EMOL313123100____EMOL29480358

>  <variant>  (65) 
94338-1

>  <source_file>  (65) 
运行/运行/ATP-VSW/ATP-VSW-DOCK_HTVS_1-003_lib/ATP-VSW-DOCK_HTVS_1-003_lib.mae

>  <canonical_smiles>  (65) 
C[NH+](C)Cc1ccccc1C(=O)Nc1ncc(C#Cc2ccccc2C[NH3+])nc1-c1ccccc1

>  <scaffold>  (65) 
O=C(Nc1ncc(C#Cc2ccccc2)nc1-c1ccccc1)c1ccccc1

>  <molecular_formula>  (65) 
C29H29N5O+2

$$$$
ATP-HTVS-0B0619B736F3
     RDKit          3D

 47 50  0  0  0  0  0  0  0  0999 V2000
  194.3640  182.1844  158.3367 F   0  0  0  0  0  0  0  0  0  0  0  0
  195.0027  183.2477  158.8715 C   0  0  0  0  0  0  0  0  0  0  0  0
  194.2710  184.2439  159.5390 C   0  0  0  0  0  0  0  0  0  0  0  0
  194.9392  185.3289  160.1350 C   0  0  0  0  0  0  0  0  0  0  0  0
  194.2333  186.2719  160.8034 F   0  0  0  0  0  0  0  0  0  0  0  0
  196.3386  185.4274  160.0500 C   0  0  0  0  0  0  0  0  0  0  0  0
  197.0912  184.4399  159.3692 C   0  0  0  0  0  0  0  0  0  0  0  0
  196.4042  183.3472  158.7814 C   0  0  0  0  0  0  0  0  0  0  0  0
  198.5934  184.5299  159.3418 C   0  0  0  0  0  0  0  0  0  0  0  0
  199.1678  185.5772  159.6407 O   0  0  0  0  0  0  0  0  0  0  0  0
  199.2294  183.4055  159.0040 N   0  0  0  0  0  0  0  0  0  0  0  0
  200.6127  183.1108  159.0903 C   0  0  0  0  0  0  0  0  0  0  0  0
  201.3495  183.5665  160.1307 N   0  0  0  0  0  0  0  0  0  0  0  0
  202.6369  183.1889  160.2669 C   0  0  0  0  0  0  0  0  0  0  0  0
  203.2588  182.3321  159.3227 C   0  0  0  0  0  0  0  0  0  0  0  0
  202.5062  181.8772  158.2290 C   0  0  0  0  0  0  0  0  0  0  0  0
  201.1368  182.2146  158.1203 C   0  0  0  0  0  0  0  0  0  0  0  0
  200.3477  181.7038  157.0590 N   0  0  0  0  0  0  0  0  0  0  0  0
  200.2193  180.3292  156.6879 C   0  0  0  0  0  0  0  0  0  0  0  0
  199.3025  179.9015  155.6871 C   0  0  0  0  0  0  0  0  0  0  0  0
  199.1626  178.5414  155.3420 C   0  0  0  0  0  0  0  0  0  0  0  0
  199.9382  177.5577  155.9814 C   0  0  0  0  0  0  0  0  0  0  0  0
  200.8452  177.9473  156.9805 C   0  0  0  0  0  0  0  0  0  0  0  0
  200.9656  179.3048  157.3368 C   0  0  0  0  0  0  0  0  0  0  0  0
  199.8692  182.7427  156.1215 C   0  0  1  0  0  0  0  0  0  0  0  0
  200.8931  183.0831  155.1211 C   0  0  0  0  0  0  0  0  0  0  0  0
  201.7002  183.3579  154.3396 N   0  0  0  0  0  0  0  0  0  0  0  0
  204.6031  181.9368  159.4731 C   0  0  0  0  0  0  0  0  0  0  0  0
  205.3558  182.4238  160.5585 C   0  0  0  0  0  0  0  0  0  0  0  0
  204.7590  183.2803  161.5019 C   0  0  0  0  0  0  0  0  0  0  0  0
  203.4082  183.6498  161.3558 C   0  0  0  0  0  0  0  0  0  0  0  0
  193.1939  184.1660  159.5991 H   0  0  0  0  0  0  0  0  0  0  0  0
  196.8315  186.2642  160.5260 H   0  0  0  0  0  0  0  0  0  0  0  0
  196.9222  182.5526  158.2613 H   0  0  0  0  0  0  0  0  0  0  0  0
  198.6747  182.6758  158.5707 H   0  0  0  0  0  0  0  0  0  0  0  0
  202.9718  181.2309  157.4937 H   0  0  0  0  0  0  0  0  0  0  0  0
  198.6503  180.5763  155.1634 H   0  0  0  0  0  0  0  0  0  0  0  0
  198.4334  178.2530  154.6009 H   0  0  0  0  0  0  0  0  0  0  0  0
  199.8140  176.5129  155.7303 H   0  0  0  0  0  0  0  0  0  0  0  0
  201.4412  177.2026  157.4923 H   0  0  0  0  0  0  0  0  0  0  0  0
  201.6472  179.4974  158.1468 H   0  0  0  0  0  0  0  0  0  0  0  0
  198.9375  182.5062  155.6193 H   0  0  0  0  0  0  0  0  0  0  0  0
  199.6687  183.6885  156.6177 H   0  0  0  0  0  0  0  0  0  0  0  0
  205.0636  181.2756  158.7531 H   0  0  0  0  0  0  0  0  0  0  0  0
  206.3964  182.1430  160.6603 H   0  0  0  0  0  0  0  0  0  0  0  0
  205.3390  183.6668  162.3234 H   0  0  0  0  0  0  0  0  0  0  0  0
  202.9407  184.3035  162.0825 H   0  0  0  0  0  0  0  0  0  0  0  0
  1  2  1  0
  2  3  1  0
  2  8  2  0
  3  4  2  0
  3 32  1  0
  4  5  1  0
  4  6  1  0
  6  7  2  0
  6 33  1  0
  7  8  1  0
  7  9  1  0
  8 34  1  0
  9 10  2  0
  9 11  1  0
 11 12  1  0
 11 35  1  0
 12 13  2  0
 12 17  1  0
 13 14  1  0
 14 15  1  0
 14 31  2  0
 15 16  1  0
 15 28  2  0
 16 17  2  0
 16 36  1  0
 17 18  1  0
 18 19  1  0
 18 25  1  0
 19 20  2  0
 19 24  1  0
 20 21  1  0
 20 37  1  0
 21 22  2  0
 21 38  1  0
 22 23  1  0
 22 39  1  0
 23 24  2  0
 23 40  1  0
 24 41  1  0
 25 26  1  0
 25 42  1  6
 25 43  1  0
 26 27  3  0
 28 29  1  0
 28 44  1  0
 29 30  2  0
 29 45  1  0
 30 31  1  0
 30 46  1  0
 31 47  1  0
M  END
>  <s_epik_cmdline>  (66) 
J2VwaWtfcHl0aG9uJywgJy1waCcsICc3LjAwMDAwMCcsICctcGh0JywgJzIuMDAwMDAwJywgJy1tcycsICcxNicsICctdG4nLCAnOCcsICctbWEnLCAnMjAwJywgJy1pbWFlJywgJzxpbmZpbGUubWFlPicsICctb21hZScsICc8b3V0ZmlsZS5tYWU+Jw==

>  <s_epik_input>  (66) 
RmMxW2NIXWMoRilbY0hdYyhbY0hdMSlDKD1PKVtOSF1jKG4yKWMoW2NIXWMoYzIzKVtjSF1bY0hdW2NIXVtjSF0zKU4oW0NIMl1DI04pYzRbY0hdW2NIXVtjSF1bY0hdW2NIXTQ=

>  <s_i_glide_gridfile>  (66) 
ATP-Grid

>  <s_lp_Force_Field>  (66) 
OPLS_2005

>  <s_lp_Variant>  (66) 
rxn502b____EMOL495084____EMOL44466703____EMOL712348-1

>  <s_lp_label>  (66) 
2749_sdstereoexpander_1_neutralizer_1_epik_1_stereoizer_1

>  <s_m_source_file>  (66) 
ATP-VSW-LIGPREP-001-in.maegz

>  <s_sd_BIOSOLVEIT.INFINISEE\_QUERY\_NAME>  (66) 
Ref-Lig

>  <s_sd_BIOSOLVEIT.INFINISEE\_QUERY\_SMILES>  (66) 
S(c1nc2c(cc1C[NH2+]Cc3ccc(cc3)C[NH+](C)C)cccc2)Cc4ccccc4

>  <s_sd_BIOSOLVEIT.INFINISEE\_REACTION\_NAME>  (66) 
rxn502b

>  <s_sd_BIOSOLVEIT.INFINISEE\_REAGENT1\_NAME>  (66) 
EMOL495084

>  <s_sd_BIOSOLVEIT.INFINISEE\_REAGENT1\_SMILES>  (66) 
Fc1cc(F)cc(c1)C(=O)O

>  <s_sd_BIOSOLVEIT.INFINISEE\_REAGENT2\_NAME>  (66) 
EMOL44466703

>  <s_sd_BIOSOLVEIT.INFINISEE\_REAGENT2\_SMILES>  (66) 
Brc1c(nc2c(c1)cccc2)N

>  <s_sd_BIOSOLVEIT.INFINISEE\_REAGENT3\_NAME>  (66) 
EMOL712348

>  <s_sd_BIOSOLVEIT.INFINISEE\_REAGENT3\_SMILES>  (66) 
N#CCNc1ccccc1

>  <s_sd_BIOSOLVEIT.INFINISEE\_SPACE>  (66) 
eXplore_7tr_2022-12

>  <s_vsw_compound_code>  (66) 
87937

>  <s_vsw_variant>  (66) 
87937-1

>  <r_epik_Charging_Adjusted_Penalty>  (66) 
0

>  <r_epik_Ionization_Penalty>  (66) 
0.0001

>  <r_epik_Ionization_Penalty_Charging>  (66) 
0

>  <r_epik_Ionization_Penalty_Neutral>  (66) 
0.0001

>  <r_epik_State_Penalty>  (66) 
-0

>  <r_i_docking_score>  (66) 
-3.55560968432524

>  <r_i_glide_ecoul>  (66) 
-0.89662897586822499

>  <r_i_glide_eff_state_penalty>  (66) 
-0

>  <r_i_glide_einternal>  (66) 
4.9234094619751003

>  <r_i_glide_emodel>  (66) 
-38.828534008715202

>  <r_i_glide_energy>  (66) 
-33.917029976844802

>  <r_i_glide_erotb>  (66) 
0.57464869871297097

>  <r_i_glide_esite>  (66) 
-0.101940123362448

>  <r_i_glide_evdw>  (66) 
-33.020401000976598

>  <r_i_glide_gscore>  (66) 
-3.55560968432524

>  <r_i_glide_hbond>  (66) 
0

>  <r_i_glide_ligand_efficiency>  (66) 
-0.114697086591137

>  <r_i_glide_ligand_efficiency_ln>  (66) 
-0.80189895016580304

>  <r_i_glide_ligand_efficiency_sa>  (66) 
-0.36030720829062801

>  <r_i_glide_lipo>  (66) 
-1.3193614627732999

>  <r_i_glide_metal>  (66) 
-0

>  <r_i_glide_rewards>  (66) 
-0.92344240047339998

>  <r_lp_Energy>  (66) 
29.046119000000001

>  <r_lp_tautomer_probability>  (66) 
1

>  <r_qp_ACxDN^.5/SA>  (66) 
0.0081075000000000001

>  <r_qp_CIQPlogS>  (66) 
-7.7610000000000001

>  <r_qp_EA(eV)>  (66) 
1.2729999999999999

>  <r_qp_FISA>  (66) 
110.69499999999999

>  <r_qp_FOSA>  (66) 
36.384

>  <r_qp_IP(eV)>  (66) 
8.7620000000000005

>  <r_qp_Jm>  (66) 
0.00152936935652725

>  <r_qp_PISA>  (66) 
442.983

>  <r_qp_PSA>  (66) 
70.986000000000004

>  <r_qp_PercentHumanOralAbsorption>  (66) 
100

>  <r_qp_QPPCaco>  (66) 
883.44100000000003

>  <r_qp_QPPMDCK>  (66) 
1318.3119999999999

>  <r_qp_QPlogBB>  (66) 
-0.67000000000000004

>  <r_qp_QPlogHERG>  (66) 
-6.5049999999999999

>  <r_qp_QPlogKhsa>  (66) 
0.66100000000000003

>  <r_qp_QPlogKp>  (66) 
-1.423

>  <r_qp_QPlogPC16>  (66) 
13.304

>  <r_qp_QPlogPo/w>  (66) 
4.8609999999999998

>  <r_qp_QPlogPoct>  (66) 
19.640999999999998

>  <r_qp_QPlogPw>  (66) 
10.707000000000001

>  <r_qp_QPlogS>  (66) 
-7.0099999999999998

>  <r_qp_QPpolrz>  (66) 
43.884

>  <r_qp_SASA>  (66) 
678.38699999999994

>  <r_qp_SAamideO>  (66) 
0

>  <r_qp_SAfluorine>  (66) 
88.325000000000003

>  <r_qp_WPSA>  (66) 
88.325000000000003

>  <r_qp_accptHB>  (66) 
5.5

>  <r_qp_dip^2/V>  (66) 
0.0036843000000000002

>  <r_qp_dipole>  (66) 
2.1379999999999999

>  <r_qp_donorHB>  (66) 
1

>  <r_qp_glob>  (66) 
0.82320470000000001

>  <r_qp_mol_MW>  (66) 
414.41300000000001

>  <r_qp_volume>  (66) 
1240.8820000000001

>  <r_sd_BIOSOLVEIT.INFINISEE\_FTREES\_SIMILARITY>  (66) 
0.90700000000000003

>  <r_sd_BIOSOLVEIT.LOGP>  (66) 
5.4269800000000004

>  <r_sd_BIOSOLVEIT.MOLECULAR\_WEIGHT>  (66) 
414.41300000000001

>  <r_sd_BIOSOLVEIT.TPSA>  (66) 
69.019999999999996

>  <i_epik_Tot_Q>  (66) 
0

>  <i_epik_Tot_abs_Q>  (66) 
0

>  <i_f3d_flags>  (66) 
0

>  <i_i_glide_confnum>  (66) 
5

>  <i_i_glide_lignum>  (66) 
1231

>  <i_i_glide_posenum>  (66) 
19

>  <i_i_glide_rotatable_bonds>  (66) 
6

>  <i_lp_mmshare_version>  (66) 
65135

>  <i_m_ct_format>  (66) 
2

>  <i_m_source_file_index>  (66) 
2749

>  <i_qp_#NandO>  (66) 
5

>  <i_qp_#acid>  (66) 
0

>  <i_qp_#amide>  (66) 
0

>  <i_qp_#amidine>  (66) 
0

>  <i_qp_#amine>  (66) 
0

>  <i_qp_#in34>  (66) 
0

>  <i_qp_#in56>  (66) 
22

>  <i_qp_#metab>  (66) 
3

>  <i_qp_#nonHatm>  (66) 
31

>  <i_qp_#noncon>  (66) 
0

>  <i_qp_#ringatoms>  (66) 
22

>  <i_qp_#rotor>  (66) 
6

>  <i_qp_#rtvFG>  (66) 
0

>  <i_qp_#stars>  (66) 
1

>  <i_qp_CNS>  (66) 
0

>  <i_qp_HumanOralAbsorption>  (66) 
1

>  <i_qp_RuleOfFive>  (66) 
0

>  <i_qp_RuleOfThree>  (66) 
1

>  <i_sd_BIOSOLVEIT.INFINISEE\_RESULT\_RANK>  (66) 
58070

>  <i_sd_version>  (66) 
0

>  <b_lp_Chiralities_Consistent>  (66) 
1

>  <b_sd_chiral_flag>  (66) 
0

>  <canonical_id>  (66) 
ATP-HTVS-0B0619B736F3

>  <compound_code>  (66) 
87937

>  <title>  (66) 
rxn502b____EMOL495084____EMOL44466703____EMOL712348

>  <variant>  (66) 
87937-1

>  <source_file>  (66) 
运行/运行/ATP-VSW/ATP-VSW-DOCK_HTVS_1-001_lib/ATP-VSW-DOCK_HTVS_1-001_lib

>  <canonical_smiles>  (66) 
N#CCN(c1ccccc1)c1cc2ccccc2nc1NC(=O)c1cc(F)cc(F)c1

>  <scaffold>  (66) 
O=C(Nc1nc2ccccc2cc1Nc1ccccc1)c1ccccc1

>  <molecular_formula>  (66) 
C24H16F2N4O

$$$$
ATP-HTVS-0B15CB8240E3
     RDKit          3D

 59 62  0  0  0  0  0  0  0  0999 V2000
  198.3661  185.8637  156.9879 F   0  0  0  0  0  0  0  0  0  0  0  0
  197.4641  185.7233  157.9886 C   0  0  0  0  0  0  0  0  0  0  0  0
  197.1723  184.4526  158.5435 C   0  0  0  0  0  0  0  0  0  0  0  0
  196.2573  184.3556  159.6157 C   0  0  0  0  0  0  0  0  0  0  0  0
  195.6345  185.5130  160.1232 C   0  0  0  0  0  0  0  0  0  0  0  0
  195.9305  186.7710  159.5654 C   0  0  0  0  0  0  0  0  0  0  0  0
  196.8373  186.8731  158.4973 C   0  0  0  0  0  0  0  0  0  0  0  0
  197.8691  183.1891  158.0591 C   0  0  1  0  0  0  0  0  0  0  0  0
  197.8607  183.0044  156.6140 N   0  0  0  0  0  0  0  0  0  0  0  0
  196.5481  182.6364  156.1077 C   0  0  1  0  0  0  0  0  0  0  0  0
  196.6862  181.8398  154.8791 C   0  0  0  0  0  0  0  0  0  0  0  0
  196.8903  181.1438  153.8983 C   0  0  0  0  0  0  0  0  0  0  0  0
  197.2724  180.2835  152.7786 C   0  0  0  0  0  0  0  0  0  0  0  0
  198.4711  179.5196  152.7996 C   0  0  0  0  0  0  0  0  0  0  0  0
  198.8415  178.7722  151.7337 N   0  0  0  0  0  0  0  0  0  0  0  0
  198.0877  178.7462  150.6150 C   0  0  0  0  0  0  0  0  0  0  0  0
  196.8768  179.4782  150.5226 C   0  0  0  0  0  0  0  0  0  0  0  0
  196.4644  180.2526  151.6239 C   0  0  0  0  0  0  0  0  0  0  0  0
  196.1065  179.4350  149.3434 C   0  0  0  0  0  0  0  0  0  0  0  0
  196.5169  178.6511  148.2470 C   0  0  0  0  0  0  0  0  0  0  0  0
  197.7109  177.9155  148.3277 C   0  0  0  0  0  0  0  0  0  0  0  0
  198.4850  177.9675  149.5061 C   0  0  0  0  0  0  0  0  0  0  0  0
  199.2524  179.5992  153.9809 N   0  0  0  0  0  0  0  0  0  0  0  0
  200.5299  179.2433  154.1881 C   0  0  0  0  0  0  0  0  0  0  0  0
  201.2775  178.6845  153.3877 O   0  0  0  0  0  0  0  0  0  0  0  0
  201.0075  179.5745  155.5678 C   0  0  0  0  0  0  0  0  0  0  0  0
  201.1104  178.6035  156.6063 C   0  0  0  0  0  0  0  0  0  0  0  0
  201.5965  179.0034  157.8693 C   0  0  0  0  0  0  0  0  0  0  0  0
  201.9896  180.3306  158.1091 C   0  0  0  0  0  0  0  0  0  0  0  0
  201.8920  181.2819  157.0814 C   0  0  0  0  0  0  0  0  0  0  0  0
  201.3842  180.9097  155.8261 C   0  0  0  0  0  0  0  0  0  0  0  0
  200.8083  177.1498  156.4447 C   0  0  0  0  0  0  0  0  0  0  0  0
  201.4973  176.2574  156.9348 O   0  0  0  0  0  0  0  0  0  0  0  0
  199.5426  176.7814  155.6866 C   0  0  2  0  0  0  0  0  0  0  0  0
  199.3277  183.1718  158.5177 C   0  0  2  0  0  0  0  0  0  0  0  0
  198.5535  182.3295  156.3362 H   0  0  0  0  0  0  0  0  0  0  0  0
  196.0406  183.3926  160.0598 H   0  0  0  0  0  0  0  0  0  0  0  0
  194.9292  185.4334  160.9345 H   0  0  0  0  0  0  0  0  0  0  0  0
  195.4578  187.6607  159.9510 H   0  0  0  0  0  0  0  0  0  0  0  0
  197.0664  187.8344  158.0670 H   0  0  0  0  0  0  0  0  0  0  0  0
  197.3783  182.3194  158.4985 H   0  0  0  0  0  0  0  0  0  0  0  0
  195.9612  182.0493  156.8151 H   0  0  0  0  0  0  0  0  0  0  0  0
  195.9902  183.5389  155.8845 H   0  0  0  0  0  0  0  0  0  0  0  0
  195.5533  180.8319  151.5788 H   0  0  0  0  0  0  0  0  0  0  0  0
  195.1688  179.9657  149.2989 H   0  0  0  0  0  0  0  0  0  0  0  0
  195.9163  178.6020  147.3461 H   0  0  0  0  0  0  0  0  0  0  0  0
  198.0262  177.3068  147.4864 H   0  0  0  0  0  0  0  0  0  0  0  0
  199.4037  177.4018  149.5623 H   0  0  0  0  0  0  0  0  0  0  0  0
  198.7877  180.0223  154.7703 H   0  0  0  0  0  0  0  0  0  0  0  0
  201.6911  178.2680  158.6555 H   0  0  0  0  0  0  0  0  0  0  0  0
  202.3659  180.6159  159.0780 H   0  0  0  0  0  0  0  0  0  0  0  0
  202.1751  182.3063  157.2653 H   0  0  0  0  0  0  0  0  0  0  0  0
  201.2903  181.6510  155.0480 H   0  0  0  0  0  0  0  0  0  0  0  0
  198.7683  177.5298  155.8724 H   0  0  0  0  0  0  0  0  0  0  0  0
  199.1573  175.8356  156.0446 H   0  0  0  0  0  0  0  0  0  0  0  0
  199.7329  176.6911  154.6181 H   0  0  0  0  0  0  0  0  0  0  0  0
  199.4012  183.2215  159.6047 H   0  0  0  0  0  0  0  0  0  0  0  0
  199.9021  183.9997  158.0987 H   0  0  0  0  0  0  0  0  0  0  0  0
  199.7854  182.2391  158.2042 H   0  0  0  0  0  0  0  0  0  0  0  0
  1  2  1  0
  2  3  1  0
  2  7  2  0
  3  4  2  0
  3  8  1  0
  4  5  1  0
  4 37  1  0
  5  6  2  0
  5 38  1  0
  6  7  1  0
  6 39  1  0
  7 40  1  0
  8  9  1  0
  8 35  1  0
  8 41  1  1
  9 10  1  0
  9 36  1  0
 10 11  1  0
 10 42  1  1
 10 43  1  0
 11 12  3  0
 12 13  1  0
 13 14  1  0
 13 18  2  0
 14 15  2  0
 14 23  1  0
 15 16  1  0
 16 17  1  0
 16 22  2  0
 17 18  1  0
 17 19  2  0
 18 44  1  0
 19 20  1  0
 19 45  1  0
 20 21  2  0
 20 46  1  0
 21 22  1  0
 21 47  1  0
 22 48  1  0
 23 24  1  0
 23 49  1  0
 24 25  2  0
 24 26  1  0
 26 27  1  0
 26 31  2  0
 27 28  2  0
 27 32  1  0
 28 29  1  0
 28 50  1  0
 29 30  2  0
 29 51  1  0
 30 31  1  0
 30 52  1  0
 31 53  1  0
 32 33  2  0
 32 34  1  0
 34 54  1  6
 34 55  1  0
 34 56  1  0
 35 57  1  1
 35 58  1  0
 35 59  1  0
M  END
>  <s_epik_cmdline>  (67) 
J2VwaWtfcHl0aG9uJywgJy1waCcsICc3LjAwMDAwMCcsICctcGh0JywgJzIuMDAwMDAwJywgJy1tcycsICcxNicsICctdG4nLCAnOCcsICctbWEnLCAnMjAwJywgJy1pbWFlJywgJzxpbmZpbGUubWFlPicsICctb21hZScsICc8b3V0ZmlsZS5tYWU+Jw==

>  <s_epik_input>  (67) 
W2NIXTFbY0hdW2NIXVtjSF1jKGMxRilbQ0BIXShbQ0gzXSlbTkhdW0NIMl1DI0NjKFtjSF1jKGMyMylbY0hdW2NIXVtjSF1bY0hdMyljKG4yKVtOSF1DKD1PKWM0YyhDKD1PKVtDSDNdKVtjSF1bY0hdW2NIXVtjSF00

>  <s_i_glide_gridfile>  (67) 
ATP-Grid

>  <s_lp_Force_Field>  (67) 
OPLS_2005

>  <s_lp_Variant>  (67) 
rxn503b____EMOL711278____EMOL44466703____EMOL317509298-2

>  <s_lp_label>  (67) 
3120_sdstereoexpander_2_neutralizer_1_epik_1_stereoizer_1

>  <s_m_source_file>  (67) 
ATP-VSW-LIGPREP-001-in.maegz

>  <s_sd_BIOSOLVEIT.INFINISEE\_QUERY\_NAME>  (67) 
Ref-Lig

>  <s_sd_BIOSOLVEIT.INFINISEE\_QUERY\_SMILES>  (67) 
S(c1nc2c(cc1C[NH2+]Cc3ccc(cc3)C[NH+](C)C)cccc2)Cc4ccccc4

>  <s_sd_BIOSOLVEIT.INFINISEE\_REACTION\_NAME>  (67) 
rxn503b

>  <s_sd_BIOSOLVEIT.INFINISEE\_REAGENT1\_NAME>  (67) 
EMOL711278

>  <s_sd_BIOSOLVEIT.INFINISEE\_REAGENT1\_SMILES>  (67) 
O=C(O)c1c(cccc1)C(=O)C

>  <s_sd_BIOSOLVEIT.INFINISEE\_REAGENT2\_NAME>  (67) 
EMOL44466703

>  <s_sd_BIOSOLVEIT.INFINISEE\_REAGENT2\_SMILES>  (67) 
Brc1c(nc2c(c1)cccc2)N

>  <s_sd_BIOSOLVEIT.INFINISEE\_REAGENT3\_NAME>  (67) 
EMOL317509298

>  <s_sd_BIOSOLVEIT.INFINISEE\_REAGENT3\_SMILES>  (67) 
Fc1c(cccc1)C(NCC#C)C

>  <s_sd_BIOSOLVEIT.INFINISEE\_SPACE>  (67) 
eXplore_7tr_2022-12

>  <s_vsw_compound_code>  (67) 
99809

>  <s_vsw_variant>  (67) 
99809-2

>  <r_epik_Charging_Adjusted_Penalty>  (67) 
0.25088885360206298

>  <r_epik_Ionization_Penalty>  (67) 
0.251

>  <r_epik_Ionization_Penalty_Charging>  (67) 
0

>  <r_epik_Ionization_Penalty_Neutral>  (67) 
0.251

>  <r_epik_State_Penalty>  (67) 
0.25090000000000001

>  <r_i_docking_score>  (67) 
-3.92893107291661

>  <r_i_glide_ecoul>  (67) 
-2.48606252670288

>  <r_i_glide_eff_state_penalty>  (67) 
0.25090000000000001

>  <r_i_glide_einternal>  (67) 
7.8985705375671396

>  <r_i_glide_emodel>  (67) 
-47.4690797661857

>  <r_i_glide_energy>  (67) 
-40.555665493011503

>  <r_i_glide_erotb>  (67) 
0.65144977146216398

>  <r_i_glide_esite>  (67) 
-0.0052170097278699404

>  <r_i_glide_evdw>  (67) 
-38.069602966308601

>  <r_i_glide_gscore>  (67) 
-4.1798310729166204

>  <r_i_glide_hbond>  (67) 
0

>  <r_i_glide_ligand_efficiency>  (67) 
-0.11225517351190301

>  <r_i_glide_ligand_efficiency_ln>  (67) 
-0.86248756843226004

>  <r_i_glide_ligand_efficiency_sa>  (67) 
-0.36719411578399402

>  <r_i_glide_lipo>  (67) 
-2.1834567228574202

>  <r_i_glide_metal>  (67) 
-0

>  <r_i_glide_rewards>  (67) 
-0.36621758447262198

>  <r_lp_Energy>  (67) 
38.842844999999997

>  <r_lp_tautomer_probability>  (67) 
0.99995000000000001

>  <r_qp_ACxDN^.5/SA>  (67) 
0.0136709

>  <r_qp_CIQPlogS>  (67) 
-6.093

>  <r_qp_EA(eV)>  (67) 
0.95199999999999996

>  <r_qp_FISA>  (67) 
74.870999999999995

>  <r_qp_FOSA>  (67) 
194.06200000000001

>  <r_qp_IP(eV)>  (67) 
8.6270000000000007

>  <r_qp_Jm>  (67) 
0.031077401606786199

>  <r_qp_PISA>  (67) 
421.00799999999998

>  <r_qp_PSA>  (67) 
76.418000000000006

>  <r_qp_PercentHumanOralAbsorption>  (67) 
100

>  <r_qp_QPPCaco>  (67) 
481.72500000000002

>  <r_qp_QPPMDCK>  (67) 
382.51799999999997

>  <r_qp_QPlogBB>  (67) 
-0.153

>  <r_qp_QPlogHERG>  (67) 
-6.9409999999999998

>  <r_qp_QPlogKhsa>  (67) 
0.68500000000000005

>  <r_qp_QPlogKp>  (67) 
-2.7109999999999999

>  <r_qp_QPlogPC16>  (67) 
14.868

>  <r_qp_QPlogPo/w>  (67) 
4.5869999999999997

>  <r_qp_QPlogPoct>  (67) 
23.959

>  <r_qp_QPlogPw>  (67) 
12.906000000000001

>  <r_qp_QPlogS>  (67) 
-4.4649999999999999

>  <r_qp_QPpolrz>  (67) 
48.648000000000003

>  <r_qp_SASA>  (67) 
724.12800000000004

>  <r_qp_SAamideO>  (67) 
0

>  <r_qp_SAfluorine>  (67) 
34.186999999999998

>  <r_qp_WPSA>  (67) 
34.186999999999998

>  <r_qp_accptHB>  (67) 
7

>  <r_qp_dip^2/V>  (67) 
0.063855599999999998

>  <r_qp_dipole>  (67) 
9.4459999999999997

>  <r_qp_donorHB>  (67) 
2

>  <r_qp_glob>  (67) 
0.83470949999999999

>  <r_qp_mol_MW>  (67) 
465.52600000000001

>  <r_qp_volume>  (67) 
1397.2639999999999

>  <r_sd_BIOSOLVEIT.INFINISEE\_FTREES\_SIMILARITY>  (67) 
0.90100000000000002

>  <r_sd_BIOSOLVEIT.LOGP>  (67) 
4.5049000000000001

>  <r_sd_BIOSOLVEIT.MOLECULAR\_WEIGHT>  (67) 
466.53399999999999

>  <r_sd_BIOSOLVEIT.TPSA>  (67) 
75.670000000000002

>  <i_epik_Tot_Q>  (67) 
0

>  <i_epik_Tot_abs_Q>  (67) 
0

>  <i_f3d_flags>  (67) 
0

>  <i_i_glide_confnum>  (67) 
1

>  <i_i_glide_lignum>  (67) 
70

>  <i_i_glide_posenum>  (67) 
1

>  <i_i_glide_rotatable_bonds>  (67) 
9

>  <i_lp_mmshare_version>  (67) 
65135

>  <i_m_ct_format>  (67) 
2

>  <i_m_source_file_index>  (67) 
3120

>  <i_qp_#NandO>  (67) 
5

>  <i_qp_#acid>  (67) 
0

>  <i_qp_#amide>  (67) 
0

>  <i_qp_#amidine>  (67) 
0

>  <i_qp_#amine>  (67) 
1

>  <i_qp_#in34>  (67) 
0

>  <i_qp_#in56>  (67) 
22

>  <i_qp_#metab>  (67) 
4

>  <i_qp_#nonHatm>  (67) 
35

>  <i_qp_#noncon>  (67) 
0

>  <i_qp_#ringatoms>  (67) 
22

>  <i_qp_#rotor>  (67) 
8

>  <i_qp_#rtvFG>  (67) 
0

>  <i_qp_#stars>  (67) 
0

>  <i_qp_CNS>  (67) 
1

>  <i_qp_HumanOralAbsorption>  (67) 
3

>  <i_qp_RuleOfFive>  (67) 
0

>  <i_qp_RuleOfThree>  (67) 
0

>  <i_sd_BIOSOLVEIT.INFINISEE\_RESULT\_RANK>  (67) 
99368

>  <i_sd_version>  (67) 
0

>  <b_lp_Chiralities_Consistent>  (67) 
1

>  <b_sd_chiral_flag>  (67) 
0

>  <canonical_id>  (67) 
ATP-HTVS-0B15CB8240E3

>  <compound_code>  (67) 
99809

>  <title>  (67) 
rxn503b____EMOL711278____EMOL44466703____EMOL317509298

>  <variant>  (67) 
99809-2

>  <source_file>  (67) 
运行/运行/ATP-VSW/ATP-VSW-DOCK_HTVS_1-002_lib.maegz

>  <canonical_smiles>  (67) 
CC(=O)c1ccccc1C(=O)Nc1nc2ccccc2cc1C#CCN[C@@H](C)c1ccccc1F

>  <scaffold>  (67) 
O=C(Nc1nc2ccccc2cc1C#CCNCc1ccccc1)c1ccccc1

>  <molecular_formula>  (67) 
C29H24FN3O2

$$$$
ATP-HTVS-0B527D484045
     RDKit          3D

 63 66  0  0  0  0  0  0  0  0999 V2000
  194.7995  186.6297  160.9930 Cl  0  0  0  0  0  0  0  0  0  0  0  0
  195.1113  185.3325  159.8880 C   0  0  0  0  0  0  0  0  0  0  0  0
  196.3182  185.1831  159.1389 C   0  0  0  0  0  0  0  0  0  0  0  0
  196.4335  184.0721  158.2786 C   0  0  0  0  0  0  0  0  0  0  0  0
  195.3920  183.1319  158.1458 C   0  0  0  0  0  0  0  0  0  0  0  0
  194.2142  183.2889  158.8743 C   0  0  0  0  0  0  0  0  0  0  0  0
  194.0811  184.3863  159.7609 C   0  0  0  0  0  0  0  0  0  0  0  0
  197.6537  183.9280  157.4946 C   0  0  0  0  0  0  0  0  0  0  0  0
  198.6737  184.8012  157.5789 C   0  0  0  0  0  0  0  0  0  0  0  0
  198.5814  185.9176  158.4570 N   0  0  0  0  0  0  0  0  0  0  0  0
  199.6713  186.8319  158.5621 C   0  0  0  0  0  0  0  0  0  0  0  0
  200.8601  186.4674  159.2345 C   0  0  0  0  0  0  0  0  0  0  0  0
  201.9463  187.3620  159.2789 C   0  0  0  0  0  0  0  0  0  0  0  0
  201.8429  188.6285  158.6686 C   0  0  0  0  0  0  0  0  0  0  0  0
  200.6511  189.0043  158.0190 C   0  0  0  0  0  0  0  0  0  0  0  0
  199.5666  188.1120  157.9710 C   0  0  0  0  0  0  0  0  0  0  0  0
  197.4711  186.1660  159.2254 C   0  0  0  0  0  0  0  0  0  0  0  0
  197.4029  187.1440  159.9596 O   0  0  0  0  0  0  0  0  0  0  0  0
  199.9701  184.6179  156.7532 C   0  0  1  0  0  0  0  0  0  0  0  0
  200.1716  183.2708  156.2125 N   0  0  0  0  0  0  0  0  0  0  0  0
  200.8954  182.2665  156.8875 C   0  0  0  0  0  0  0  0  0  0  0  0
  200.6723  180.8867  156.5686 C   0  0  0  0  0  0  0  0  0  0  0  0
  201.3698  179.8916  157.3120 C   0  0  0  0  0  0  0  0  0  0  0  0
  202.3769  180.2424  158.2116 C   0  0  0  0  0  0  0  0  0  0  0  0
  202.5985  181.5971  158.5473 C   0  0  0  0  0  0  0  0  0  0  0  0
  203.7376  182.0010  159.7908 Cl  0  0  0  0  0  0  0  0  0  0  0  0
  201.8288  182.5873  157.9161 C   0  0  0  0  0  0  0  0  0  0  0  0
  199.6646  180.4328  155.4835 C   0  0  1  0  0  0  0  0  0  0  0  0
  200.2525  179.6350  154.3714 N   0  0  0  0  0  0  0  0  0  0  0  0
  199.3256  179.4111  153.2564 C   0  0  2  0  0  0  0  0  0  0  0  0
  200.7942  178.3213  154.7734 C   0  0  2  0  0  0  0  0  0  0  0  0
  198.4584  179.7247  156.1620 C   0  0  1  0  0  0  0  0  0  0  0  0
  197.5576  180.7025  156.8140 N   0  0  2  0  0  0  0  0  0  0  0  0
  200.1276  185.6132  155.6082 C   0  0  2  0  0  0  0  0  0  0  0  0
  196.8211  180.0861  157.2454 H   0  0  0  0  0  0  0  0  0  0  0  0
  197.1225  181.2825  156.1187 H   0  0  0  0  0  0  0  0  0  0  0  0
  195.4710  182.2944  157.4619 H   0  0  0  0  0  0  0  0  0  0  0  0
  193.4078  182.5847  158.7589 H   0  0  0  0  0  0  0  0  0  0  0  0
  193.1585  184.5199  160.2853 H   0  0  0  0  0  0  0  0  0  0  0  0
  197.7098  183.1028  156.8205 H   0  0  0  0  0  0  0  0  0  0  0  0
  200.9548  185.4897  159.6866 H   0  0  0  0  0  0  0  0  0  0  0  0
  202.8623  187.0747  159.7749 H   0  0  0  0  0  0  0  0  0  0  0  0
  202.6740  189.3162  158.7067 H   0  0  0  0  0  0  0  0  0  0  0  0
  200.5697  189.9748  157.5511 H   0  0  0  0  0  0  0  0  0  0  0  0
  198.6631  188.3936  157.4510 H   0  0  0  0  0  0  0  0  0  0  0  0
  200.7945  184.8205  157.4139 H   0  0  0  0  0  0  0  0  0  0  0  0
  199.9657  183.1472  155.2261 H   0  0  0  0  0  0  0  0  0  0  0  0
  201.1826  178.8446  157.1681 H   0  0  0  0  0  0  0  0  0  0  0  0
  202.9471  179.4459  158.6770 H   0  0  0  0  0  0  0  0  0  0  0  0
  202.0421  183.5967  158.2366 H   0  0  0  0  0  0  0  0  0  0  0  0
  199.2573  181.3163  154.9845 H   0  0  0  0  0  0  0  0  0  0  0  0
  198.8937  180.3457  152.8643 H   0  0  0  0  0  0  0  0  0  0  0  0
  198.5191  178.7313  153.5414 H   0  0  0  0  0  0  0  0  0  0  0  0
  199.8614  178.9000  152.4523 H   0  0  0  0  0  0  0  0  0  0  0  0
  201.6348  178.4471  155.4459 H   0  0  0  0  0  0  0  0  0  0  0  0
  201.1423  177.7490  153.8900 H   0  0  0  0  0  0  0  0  0  0  0  0
  199.9913  177.7478  155.2635 H   0  0  0  0  0  0  0  0  0  0  0  0
  197.8450  179.1529  155.4755 H   0  0  0  0  0  0  0  0  0  0  0  0
  198.8269  179.0095  156.8908 H   0  0  0  0  0  0  0  0  0  0  0  0
  200.0472  186.6389  155.9319 H   0  0  0  0  0  0  0  0  0  0  0  0
  199.3805  185.4525  154.8367 H   0  0  0  0  0  0  0  0  0  0  0  0
  201.1212  185.5155  155.1741 H   0  0  0  0  0  0  0  0  0  0  0  0
  198.0439  181.1825  157.5341 H   0  0  0  0  0  0  0  0  0  0  0  0
  1  2  1  0
  2  3  2  0
  2  7  1  0
  3  4  1  0
  3 17  1  0
  4  5  2  0
  4  8  1  0
  5  6  1  0
  5 37  1  0
  6  7  2  0
  6 38  1  0
  7 39  1  0
  8  9  2  0
  8 40  1  0
  9 10  1  0
  9 19  1  0
 10 11  1  0
 10 17  1  0
 11 12  2  0
 11 16  1  0
 12 13  1  0
 12 41  1  0
 13 14  2  0
 13 42  1  0
 14 15  1  0
 14 43  1  0
 15 16  2  0
 15 44  1  0
 16 45  1  0
 17 18  2  0
 19 20  1  0
 19 34  1  0
 19 46  1  1
 20 21  1  0
 20 47  1  0
 21 22  2  0
 21 27  1  0
 22 23  1  0
 22 28  1  0
 23 24  2  0
 23 48  1  0
 24 25  1  0
 24 49  1  0
 25 26  1  0
 25 27  2  0
 27 50  1  0
 28 29  1  0
 28 32  1  0
 28 51  1  6
 29 30  1  0
 29 31  1  0
 30 52  1  6
 30 53  1  0
 30 54  1  0
 31 55  1  1
 31 56  1  0
 31 57  1  0
 32 33  1  0
 32 58  1  6
 32 59  1  0
 33 35  1  1
 33 36  1  0
 33 63  1  0
 34 60  1  1
 34 61  1  0
 34 62  1  0
M  CHG  1  33   1
M  END
>  <s_epik_cmdline>  (68) 
J2VwaWtfcHl0aG9uJywgJy1waCcsICc3LjAwMDAwMCcsICctcGh0JywgJzIuMDAwMDAwJywgJy1tcycsICcxNicsICctdG4nLCAnOCcsICctbWEnLCAnMjAwJywgJy1pbWFlJywgJzxpbmZpbGUubWFlPicsICctb21hZScsICc8b3V0ZmlsZS5tYWU+Jw==

>  <s_epik_input>  (68) 
Q2xjMVtjSF1bY0hdW2NIXWMoYzEyKVtjSF1jKG4oYzI9TyktYzNbY0hdW2NIXVtjSF1bY0hdW2NIXTMpW0NASF0oW0NIM10pW05IXWM0YyhbQ0BASF0oTihbQ0gzXSlbQ0gzXSlbQ0gyXVtOSDJdKVtjSF1bY0hdYyhDbClbY0hdNA==

>  <s_i_glide_gridfile>  (68) 
ATP-Grid

>  <s_lp_Force_Field>  (68) 
OPLS_2005

>  <s_lp_Variant>  (68) 
rxn102c____EMOL331057570____EMOL76738571-2

>  <s_lp_label>  (68) 
2405_sdstereoexpander_2_neutralizer_1_epik_1_stereoizer_1

>  <s_m_source_file>  (68) 
ATP-VSW-LIGPREP-001-in.maegz

>  <s_sd_BIOSOLVEIT.INFINISEE\_QUERY\_NAME>  (68) 
Ref-Lig

>  <s_sd_BIOSOLVEIT.INFINISEE\_QUERY\_SMILES>  (68) 
S(c1nc2c(cc1C[NH2+]Cc3ccc(cc3)C[NH+](C)C)cccc2)Cc4ccccc4

>  <s_sd_BIOSOLVEIT.INFINISEE\_REACTION\_NAME>  (68) 
rxn102c

>  <s_sd_BIOSOLVEIT.INFINISEE\_REAGENT1\_NAME>  (68) 
EMOL331057570

>  <s_sd_BIOSOLVEIT.INFINISEE\_REAGENT1\_SMILES>  (68) 
Clc1c(ccc(Cl)c1)C(N(C)C)CN

>  <s_sd_BIOSOLVEIT.INFINISEE\_REAGENT2\_NAME>  (68) 
EMOL76738571

>  <s_sd_BIOSOLVEIT.INFINISEE\_REAGENT2\_SMILES>  (68) 
Clc1c2c(ccc1)C=C(N(c3ccccc3)C2=O)C(N)C

>  <s_sd_BIOSOLVEIT.INFINISEE\_SPACE>  (68) 
eXplore_7tr_2022-12

>  <s_vsw_compound_code>  (68) 
76929

>  <s_vsw_variant>  (68) 
76929-2

>  <r_epik_Charging_Adjusted_Penalty>  (68) 
0.045336896463444597

>  <r_epik_Ionization_Penalty>  (68) 
0.014

>  <r_epik_Ionization_Penalty_Charging>  (68) 
0.0064000000000000003

>  <r_epik_Ionization_Penalty_Neutral>  (68) 
0.0076

>  <r_epik_State_Penalty>  (68) 
0.038899999999999997

>  <r_i_docking_score>  (68) 
-4.70705017394486

>  <r_i_glide_ecoul>  (68) 
-10.665229797363301

>  <r_i_glide_eff_state_penalty>  (68) 
0.038899999999999997

>  <r_i_glide_einternal>  (68) 
7.8216037750244096

>  <r_i_glide_emodel>  (68) 
-55.5841397223898

>  <r_i_glide_energy>  (68) 
-41.652206420898402

>  <r_i_glide_erotb>  (68) 
0.41369980150729502

>  <r_i_glide_esite>  (68) 
-0.10000000000000001

>  <r_i_glide_evdw>  (68) 
-30.986976623535199

>  <r_i_glide_gscore>  (68) 
-4.74595017394486

>  <r_i_glide_hbond>  (68) 
-0.20000000000000001

>  <r_i_glide_ligand_efficiency>  (68) 
-0.138442652174849

>  <r_i_glide_ligand_efficiency_ln>  (68) 
-1.0399194117096999

>  <r_i_glide_ligand_efficiency_sa>  (68) 
-0.448500449258602

>  <r_i_glide_lipo>  (68) 
-1.3810783429558899

>  <r_i_glide_metal>  (68) 
-0

>  <r_i_glide_rewards>  (68) 
-0.32943833171501502

>  <r_lp_Energy>  (68) 
58.585726999999999

>  <r_qp_ACxDN^.5/SA>  (68) 
0.016498800000000001

>  <r_qp_CIQPlogS>  (68) 
-5.5529999999999999

>  <r_qp_EA(eV)>  (68) 
0.72399999999999998

>  <r_qp_FISA>  (68) 
60.091999999999999

>  <r_qp_FOSA>  (68) 
212.88999999999999

>  <r_qp_IP(eV)>  (68) 
8.6630000000000003

>  <r_qp_Jm>  (68) 
0.00088831400772871596

>  <r_qp_PISA>  (68) 
341.35700000000003

>  <r_qp_PSA>  (68) 
63.795999999999999

>  <r_qp_PercentHumanOralAbsorption>  (68) 
92.263000000000005

>  <r_qp_QPPCaco>  (68) 
165.90100000000001

>  <r_qp_QPPMDCK>  (68) 
397.26999999999998

>  <r_qp_QPlogBB>  (68) 
0.65500000000000003

>  <r_qp_QPlogHERG>  (68) 
-7.3419999999999996

>  <r_qp_QPlogKhsa>  (68) 
0.73099999999999998

>  <r_qp_QPlogKp>  (68) 
-4.8780000000000001

>  <r_qp_QPlogPC16>  (68) 
15.705

>  <r_qp_QPlogPo/w>  (68) 
4.3700000000000001

>  <r_qp_QPlogPoct>  (68) 
25.553000000000001

>  <r_qp_QPlogPw>  (68) 
14.005000000000001

>  <r_qp_QPlogS>  (68) 
-3.8690000000000002

>  <r_qp_QPpolrz>  (68) 
49.427

>  <r_qp_SASA>  (68) 
734.86099999999999

>  <r_qp_SAamideO>  (68) 
0

>  <r_qp_SAfluorine>  (68) 
0

>  <r_qp_WPSA>  (68) 
120.523

>  <r_qp_accptHB>  (68) 
7

>  <r_qp_dip^2/V>  (68) 
0.035590299999999998

>  <r_qp_dipole>  (68) 
7.1079999999999997

>  <r_qp_donorHB>  (68) 
3

>  <r_qp_glob>  (68) 
0.83128860000000004

>  <r_qp_mol_MW>  (68) 
495.44999999999999

>  <r_qp_volume>  (68) 
1419.673

>  <r_sd_BIOSOLVEIT.INFINISEE\_FTREES\_SIMILARITY>  (68) 
0.91800000000000004

>  <r_sd_BIOSOLVEIT.LOGP>  (68) 
3.8980999999999999

>  <r_sd_BIOSOLVEIT.MOLECULAR\_WEIGHT>  (68) 
497.46699999999998

>  <r_sd_BIOSOLVEIT.TPSA>  (68) 
66.109999999999999

>  <i_epik_Tot_Q>  (68) 
1

>  <i_epik_Tot_abs_Q>  (68) 
1

>  <i_f3d_flags>  (68) 
0

>  <i_i_glide_confnum>  (68) 
4

>  <i_i_glide_lignum>  (68) 
896

>  <i_i_glide_posenum>  (68) 
19

>  <i_i_glide_rotatable_bonds>  (68) 
7

>  <i_lp_mmshare_version>  (68) 
65135

>  <i_m_ct_format>  (68) 
2

>  <i_m_source_file_index>  (68) 
2405

>  <i_qp_#NandO>  (68) 
5

>  <i_qp_#acid>  (68) 
0

>  <i_qp_#amide>  (68) 
0

>  <i_qp_#amidine>  (68) 
0

>  <i_qp_#amine>  (68) 
2

>  <i_qp_#in34>  (68) 
0

>  <i_qp_#in56>  (68) 
22

>  <i_qp_#metab>  (68) 
8

>  <i_qp_#nonHatm>  (68) 
34

>  <i_qp_#noncon>  (68) 
0

>  <i_qp_#ringatoms>  (68) 
22

>  <i_qp_#rotor>  (68) 
7

>  <i_qp_#rtvFG>  (68) 
0

>  <i_qp_#stars>  (68) 
0

>  <i_qp_CNS>  (68) 
2

>  <i_qp_HumanOralAbsorption>  (68) 
3

>  <i_qp_RuleOfFive>  (68) 
0

>  <i_qp_RuleOfThree>  (68) 
1

>  <i_sd_BIOSOLVEIT.INFINISEE\_RESULT\_RANK>  (68) 
20985

>  <i_sd_version>  (68) 
0

>  <b_lp_Chiralities_Consistent>  (68) 
1

>  <b_sd_chiral_flag>  (68) 
0

>  <canonical_id>  (68) 
ATP-HTVS-0B527D484045

>  <compound_code>  (68) 
76929

>  <title>  (68) 
rxn102c____EMOL331057570____EMOL76738571

>  <variant>  (68) 
76929-2

>  <source_file>  (68) 
运行/运行/ATP-VSW/ATP-VSW-DOCK_HTVS_1-001_lib/ATP-VSW-DOCK_HTVS_1-001_lib

>  <canonical_smiles>  (68) 
C[C@H](Nc1cc(Cl)ccc1[C@H](C[NH3+])N(C)C)c1cc2cccc(Cl)c2c(=O)n1-c1ccccc1

>  <scaffold>  (68) 
O=c1c2ccccc2cc(CNc2ccccc2)n1-c1ccccc1

>  <molecular_formula>  (68) 
C27H29Cl2N4O+

$$$$
ATP-HTVS-0B76E6A2B6F2
     RDKit          3D

 58 61  0  0  0  0  0  0  0  0999 V2000
  200.6221  182.2997  155.7061 O   0  0  0  0  0  0  0  0  0  0  0  0
  200.5296  181.1105  155.3996 C   0  0  0  0  0  0  0  0  0  0  0  0
  201.2132  180.1413  156.0807 N   0  0  0  0  0  0  0  0  0  0  0  0
  201.1849  178.7646  155.6985 C   0  0  0  0  0  0  0  0  0  0  0  0
  200.0614  177.9664  156.0032 C   0  0  0  0  0  0  0  0  0  0  0  0
  200.0245  176.6346  155.5554 C   0  0  0  0  0  0  0  0  0  0  0  0
  201.0946  176.0791  154.8337 C   0  0  0  0  0  0  0  0  0  0  0  0
  202.2153  176.8703  154.5361 C   0  0  0  0  0  0  0  0  0  0  0  0
  202.2538  178.2140  154.9468 C   0  0  0  0  0  0  0  0  0  0  0  0
  202.1179  180.4754  157.2157 C   0  0  2  0  0  0  0  0  0  0  0  0
  201.6543  181.5617  158.1129 C   0  0  0  0  0  0  0  0  0  0  0  0
  201.3048  182.4130  158.8204 N   0  0  0  0  0  0  0  0  0  0  0  0
  203.5678  180.7406  156.7501 C   0  0  2  0  0  0  0  0  0  0  0  0
  199.6446  180.7591  154.2460 C   0  0  0  0  0  0  0  0  0  0  0  0
  200.0693  179.7881  153.3513 N   0  0  0  0  0  0  0  0  0  0  0  0
  199.1474  179.5956  152.3532 C   0  0  0  0  0  0  0  0  0  0  0  0
  198.1066  180.5424  152.5874 C   0  0  0  0  0  0  0  0  0  0  0  0
  197.0291  180.5451  151.6691 C   0  0  0  0  0  0  0  0  0  0  0  0
  196.9977  179.6383  150.5849 C   0  0  0  0  0  0  0  0  0  0  0  0
  198.0334  178.7016  150.4001 C   0  0  0  0  0  0  0  0  0  0  0  0
  199.1196  178.6837  151.2889 C   0  0  0  0  0  0  0  0  0  0  0  0
  198.4445  181.2663  153.7816 C   0  0  0  0  0  0  0  0  0  0  0  0
  197.6177  182.2828  154.3165 N   0  0  0  0  0  0  0  0  0  0  0  0
  197.4110  182.5733  155.6695 C   0  0  0  0  0  0  0  0  0  0  0  0
  197.4217  181.5513  156.6363 C   0  0  0  0  0  0  0  0  0  0  0  0
  197.1375  181.8438  157.9812 C   0  0  0  0  0  0  0  0  0  0  0  0
  196.8451  183.1608  158.3841 C   0  0  0  0  0  0  0  0  0  0  0  0
  196.5632  183.3857  159.7362 N   0  0  0  0  0  0  0  0  0  0  0  0
  195.9788  184.6306  160.2282 C   0  0  1  0  0  0  0  0  0  0  0  0
  194.4992  184.7803  159.8576 C   0  0  1  0  0  0  0  0  0  0  0  0
  193.9558  185.8951  160.5353 O   0  0  0  0  0  0  0  0  0  0  0  0
  196.8460  184.1919  157.4171 C   0  0  0  0  0  0  0  0  0  0  0  0
  197.1365  183.8987  156.0686 C   0  0  0  0  0  0  0  0  0  0  0  0
  199.2065  178.3705  156.5305 H   0  0  0  0  0  0  0  0  0  0  0  0
  199.1504  176.0313  155.7422 H   0  0  0  0  0  0  0  0  0  0  0  0
  201.0586  175.0576  154.4808 H   0  0  0  0  0  0  0  0  0  0  0  0
  203.0340  176.4755  153.9519 H   0  0  0  0  0  0  0  0  0  0  0  0
  203.0964  178.8196  154.6414 H   0  0  0  0  0  0  0  0  0  0  0  0
  202.1328  179.6046  157.8723 H   0  0  0  0  0  0  0  0  0  0  0  0
  204.2279  180.9196  157.6031 H   0  0  0  0  0  0  0  0  0  0  0  0
  203.6114  181.6109  156.0916 H   0  0  0  0  0  0  0  0  0  0  0  0
  203.9936  179.8923  156.2116 H   0  0  0  0  0  0  0  0  0  0  0  0
  200.8961  179.2281  153.5022 H   0  0  0  0  0  0  0  0  0  0  0  0
  196.2260  181.2544  151.8195 H   0  0  0  0  0  0  0  0  0  0  0  0
  196.1685  179.6600  149.8906 H   0  0  0  0  0  0  0  0  0  0  0  0
  198.0132  178.0064  149.5740 H   0  0  0  0  0  0  0  0  0  0  0  0
  199.9211  177.9699  151.1763 H   0  0  0  0  0  0  0  0  0  0  0  0
  197.1153  182.8612  153.6578 H   0  0  0  0  0  0  0  0  0  0  0  0
  197.6185  180.5271  156.3593 H   0  0  0  0  0  0  0  0  0  0  0  0
  197.1267  181.0354  158.6978 H   0  0  0  0  0  0  0  0  0  0  0  0
  196.6767  182.6061  160.3738 H   0  0  0  0  0  0  0  0  0  0  0  0
  196.0489  184.6304  161.3110 H   0  0  0  0  0  0  0  0  0  0  0  0
  196.5580  185.4912  159.8830 H   0  0  0  0  0  0  0  0  0  0  0  0
  194.3824  184.9262  158.7912 H   0  0  0  0  0  0  0  0  0  0  0  0
  193.9327  183.8918  160.1340 H   0  0  0  0  0  0  0  0  0  0  0  0
  193.2443  186.2247  159.9905 H   0  0  0  0  0  0  0  0  0  0  0  0
  196.6086  185.2066  157.6945 H   0  0  0  0  0  0  0  0  0  0  0  0
  197.1208  184.7003  155.3467 H   0  0  0  0  0  0  0  0  0  0  0  0
  1  2  2  0
  2  3  1  0
  2 14  1  0
  3  4  1  0
  3 10  1  0
  4  5  2  0
  4  9  1  0
  5  6  1  0
  5 34  1  0
  6  7  2  0
  6 35  1  0
  7  8  1  0
  7 36  1  0
  8  9  2  0
  8 37  1  0
  9 38  1  0
 10 11  1  0
 10 13  1  0
 10 39  1  1
 11 12  3  0
 13 40  1  1
 13 41  1  0
 13 42  1  0
 14 15  1  0
 14 22  2  0
 15 16  1  0
 15 43  1  0
 16 17  1  0
 16 21  2  0
 17 18  2  0
 17 22  1  0
 18 19  1  0
 18 44  1  0
 19 20  2  0
 19 45  1  0
 20 21  1  0
 20 46  1  0
 21 47  1  0
 22 23  1  0
 23 24  1  0
 23 48  1  0
 24 25  1  0
 24 33  2  0
 25 26  2  0
 25 49  1  0
 26 27  1  0
 26 50  1  0
 27 28  1  0
 27 32  2  0
 28 29  1  0
 28 51  1  0
 29 30  1  0
 29 52  1  1
 29 53  1  0
 30 31  1  0
 30 54  1  6
 30 55  1  0
 31 56  1  0
 32 33  1  0
 32 57  1  0
 33 58  1  0
M  END
>  <s_epik_cmdline>  (69) 
J2VwaWtfcHl0aG9uJywgJy1waCcsICc3LjAwMDAwMCcsICctcGh0JywgJzIuMDAwMDAwJywgJy1tcycsICcxNicsICctdG4nLCAnOCcsICctbWEnLCAnMjAwJywgJy1pbWFlJywgJzxpbmZpbGUubWFlPicsICctb21hZScsICc8b3V0ZmlsZS5tYWU+Jw==

>  <s_epik_input>  (69) 
W2NIXTFbY0hdW2NIXVtjSF1bY0hdYzFOKFtDQEhdKEMjTilbQ0gzXSlDKD1PKWMoW25IXTIpYyhjKGMyMylbY0hdW2NIXVtjSF1bY0hdMylbTkhdYzRbY0hdW2NIXWMoW2NIXVtjSF00KVtOSF1bQ0gyXVtDSDJdW09IXQ==

>  <s_i_glide_gridfile>  (69) 
ATP-Grid

>  <s_lp_Force_Field>  (69) 
OPLS_2005

>  <s_lp_Variant>  (69) 
rxn512b____EMOL36790511____EMOL719673____EMOL8314610-2

>  <s_lp_label>  (69) 
2818_sdstereoexpander_2_neutralizer_1_epik_1_stereoizer_1

>  <s_m_source_file>  (69) 
ATP-VSW-LIGPREP-002-in.maegz

>  <s_sd_BIOSOLVEIT.INFINISEE\_QUERY\_NAME>  (69) 
Ref-Lig

>  <s_sd_BIOSOLVEIT.INFINISEE\_QUERY\_SMILES>  (69) 
S(c1nc2c(cc1C[NH2+]Cc3ccc(cc3)C[NH+](C)C)cccc2)Cc4ccccc4

>  <s_sd_BIOSOLVEIT.INFINISEE\_REACTION\_NAME>  (69) 
rxn512b

>  <s_sd_BIOSOLVEIT.INFINISEE\_REAGENT1\_NAME>  (69) 
EMOL36790511

>  <s_sd_BIOSOLVEIT.INFINISEE\_REAGENT1\_SMILES>  (69) 
N#CC(Nc1ccccc1)C

>  <s_sd_BIOSOLVEIT.INFINISEE\_REAGENT2\_NAME>  (69) 
EMOL719673

>  <s_sd_BIOSOLVEIT.INFINISEE\_REAGENT2\_SMILES>  (69) 
BrC=1c2c(NC1C(=O)O)cccc2

>  <s_sd_BIOSOLVEIT.INFINISEE\_REAGENT3\_NAME>  (69) 
EMOL8314610

>  <s_sd_BIOSOLVEIT.INFINISEE\_REAGENT3\_SMILES>  (69) 
OCCNc1ccc(N)cc1

>  <s_sd_BIOSOLVEIT.INFINISEE\_SPACE>  (69) 
eXplore_7tr_2022-12

>  <s_vsw_compound_code>  (69) 
90146

>  <s_vsw_variant>  (69) 
90146-2

>  <r_epik_Charging_Adjusted_Penalty>  (69) 
0.0103516821792359

>  <r_epik_Ionization_Penalty>  (69) 
0.0104

>  <r_epik_Ionization_Penalty_Charging>  (69) 
0

>  <r_epik_Ionization_Penalty_Neutral>  (69) 
0.0104

>  <r_epik_State_Penalty>  (69) 
0.0104

>  <r_i_docking_score>  (69) 
-3.6122112044202601

>  <r_i_glide_ecoul>  (69) 
-6.51456642150879

>  <r_i_glide_eff_state_penalty>  (69) 
0.0104

>  <r_i_glide_einternal>  (69) 
8.9478101730346697

>  <r_i_glide_emodel>  (69) 
-42.434904555750798

>  <r_i_glide_energy>  (69) 
-38.275112152099602

>  <r_i_glide_erotb>  (69) 
0.82658896803343096

>  <r_i_glide_esite>  (69) 
-0.018207501554948099

>  <r_i_glide_evdw>  (69) 
-31.760545730590799

>  <r_i_glide_gscore>  (69) 
-3.6226112044202599

>  <r_i_glide_hbond>  (69) 
-0.52996950030946699

>  <r_i_glide_ligand_efficiency>  (69) 
-0.10946094558849299

>  <r_i_glide_ligand_efficiency_ln>  (69) 
-0.80333706883441403

>  <r_i_glide_ligand_efficiency_sa>  (69) 
-0.351099740359688

>  <r_i_glide_lipo>  (69) 
-0.883327878525762

>  <r_i_glide_metal>  (69) 
-0

>  <r_i_glide_rewards>  (69) 
-0.45248304230765501

>  <r_lp_Energy>  (69) 
48.540970999999999

>  <r_qp_ACxDN^.5/SA>  (69) 
0.0152374

>  <r_qp_CIQPlogS>  (69) 
-7.5869999999999997

>  <r_qp_EA(eV)>  (69) 
0.60899999999999999

>  <r_qp_FISA>  (69) 
173.881

>  <r_qp_FOSA>  (69) 
175.02799999999999

>  <r_qp_IP(eV)>  (69) 
7.3319999999999999

>  <r_qp_Jm>  (69) 
0.00031699104062371303

>  <r_qp_PISA>  (69) 
412.69

>  <r_qp_PSA>  (69) 
109.642

>  <r_qp_PercentHumanOralAbsorption>  (69) 
93.477999999999994

>  <r_qp_QPPCaco>  (69) 
222.32599999999999

>  <r_qp_QPPMDCK>  (69) 
97.391999999999996

>  <r_qp_QPlogBB>  (69) 
-1.8839999999999999

>  <r_qp_QPlogHERG>  (69) 
-6.8540000000000001

>  <r_qp_QPlogKhsa>  (69) 
0.55700000000000005

>  <r_qp_QPlogKp>  (69) 
-2.3100000000000001

>  <r_qp_QPlogPC16>  (69) 
16.065999999999999

>  <r_qp_QPlogPo/w>  (69) 
4.1890000000000001

>  <r_qp_QPlogPoct>  (69) 
24.841000000000001

>  <r_qp_QPlogPw>  (69) 
14.329000000000001

>  <r_qp_QPlogS>  (69) 
-6.8319999999999999

>  <r_qp_QPpolrz>  (69) 
47.191000000000003

>  <r_qp_SASA>  (69) 
761.59799999999996

>  <r_qp_SAamideO>  (69) 
0

>  <r_qp_SAfluorine>  (69) 
0

>  <r_qp_WPSA>  (69) 
0

>  <r_qp_accptHB>  (69) 
6.7000000000000002

>  <r_qp_dip^2/V>  (69) 
0.067535100000000001

>  <r_qp_dipole>  (69) 
9.7059999999999995

>  <r_qp_donorHB>  (69) 
3

>  <r_qp_glob>  (69) 
0.79275180000000001

>  <r_qp_mol_MW>  (69) 
439.51600000000002

>  <r_qp_volume>  (69) 
1394.912

>  <r_sd_BIOSOLVEIT.INFINISEE\_FTREES\_SIMILARITY>  (69) 
0.90600000000000003

>  <r_sd_BIOSOLVEIT.LOGP>  (69) 
4.8745799999999999

>  <r_sd_BIOSOLVEIT.MOLECULAR\_WEIGHT>  (69) 
439.517

>  <r_sd_BIOSOLVEIT.TPSA>  (69) 
104.18000000000001

>  <i_epik_Tot_Q>  (69) 
0

>  <i_epik_Tot_abs_Q>  (69) 
0

>  <i_f3d_flags>  (69) 
0

>  <i_i_glide_confnum>  (69) 
7

>  <i_i_glide_lignum>  (69) 
1371

>  <i_i_glide_posenum>  (69) 
20

>  <i_i_glide_rotatable_bonds>  (69) 
10

>  <i_lp_mmshare_version>  (69) 
65135

>  <i_m_ct_format>  (69) 
2

>  <i_m_source_file_index>  (69) 
2818

>  <i_qp_#NandO>  (69) 
7

>  <i_qp_#acid>  (69) 
0

>  <i_qp_#amide>  (69) 
0

>  <i_qp_#amidine>  (69) 
0

>  <i_qp_#amine>  (69) 
0

>  <i_qp_#in34>  (69) 
0

>  <i_qp_#in56>  (69) 
21

>  <i_qp_#metab>  (69) 
7

>  <i_qp_#nonHatm>  (69) 
33

>  <i_qp_#noncon>  (69) 
0

>  <i_qp_#ringatoms>  (69) 
21

>  <i_qp_#rotor>  (69) 
10

>  <i_qp_#rtvFG>  (69) 
0

>  <i_qp_#stars>  (69) 
2

>  <i_qp_CNS>  (69) 
-2

>  <i_qp_HumanOralAbsorption>  (69) 
1

>  <i_qp_RuleOfFive>  (69) 
0

>  <i_qp_RuleOfThree>  (69) 
2

>  <i_sd_BIOSOLVEIT.INFINISEE\_RESULT\_RANK>  (69) 
65411

>  <i_sd_version>  (69) 
0

>  <b_lp_Chiralities_Consistent>  (69) 
1

>  <b_sd_chiral_flag>  (69) 
0

>  <canonical_id>  (69) 
ATP-HTVS-0B76E6A2B6F2

>  <compound_code>  (69) 
90146

>  <title>  (69) 
rxn512b____EMOL36790511____EMOL719673____EMOL8314610

>  <variant>  (69) 
90146-2

>  <source_file>  (69) 
运行/运行/ATP-VSW/ATP-VSW-DOCK_HTVS_1-002_lib.maegz

>  <canonical_smiles>  (69) 
C[C@@H](C#N)N(C(=O)c1[nH]c2ccccc2c1Nc1ccc(NCCO)cc1)c1ccccc1

>  <scaffold>  (69) 
O=C(Nc1ccccc1)c1[nH]c2ccccc2c1Nc1ccccc1

>  <molecular_formula>  (69) 
C26H25N5O2

$$$$
ATP-HTVS-0BEF59EEEAC9
     RDKit          3D

 56 59  0  0  0  0  0  0  0  0999 V2000
  196.7523  183.5232  156.1828 O   0  0  0  0  0  0  0  0  0  0  0  0
  196.6475  182.3256  156.4400 C   0  0  0  0  0  0  0  0  0  0  0  0
  196.0793  181.8373  157.5531 N   0  0  0  0  0  0  0  0  0  0  0  0
  195.4227  182.6530  158.5611 C   0  0  1  0  0  0  0  0  0  0  0  0
  196.4182  183.5286  159.3406 C   0  0  1  0  0  0  0  0  0  0  0  0
  195.7041  184.4224  160.1652 O   0  0  0  0  0  0  0  0  0  0  0  0
  197.1076  181.3049  155.4535 C   0  0  0  0  0  0  0  0  0  0  0  0
  196.7596  181.4496  154.0989 C   0  0  0  0  0  0  0  0  0  0  0  0
  197.2151  180.5243  153.1461 C   0  0  0  0  0  0  0  0  0  0  0  0
  198.0338  179.4455  153.5615 C   0  0  0  0  0  0  0  0  0  0  0  0
  198.3819  179.2961  154.9162 C   0  0  0  0  0  0  0  0  0  0  0  0
  197.9247  180.2268  155.8632 C   0  0  0  0  0  0  0  0  0  0  0  0
  196.8387  180.6770  151.6860 C   0  0  1  0  0  0  0  0  0  0  0  0
  197.8790  181.3863  150.9128 N   0  0  0  0  0  0  0  0  0  0  0  0
  197.8690  180.9524  149.5020 C   0  0  1  0  0  0  0  0  0  0  0  0
  198.7602  181.7973  148.5674 C   0  0  0  0  0  0  0  0  0  0  0  0
  198.4145  183.1478  148.2715 C   0  0  0  0  0  0  0  0  0  0  0  0
  197.2909  183.7827  148.8685 N   0  0  0  0  0  0  0  0  0  0  0  0
  196.8859  183.6474  150.1375 C   0  0  0  0  0  0  0  0  0  0  0  0
  195.8370  184.1576  150.5217 O   0  0  0  0  0  0  0  0  0  0  0  0
  197.7771  182.8604  151.1190 C   0  0  1  0  0  0  0  0  0  0  0  0
  199.1678  183.8803  147.3265 C   0  0  0  0  0  0  0  0  0  0  0  0
  200.2860  183.3001  146.6958 C   0  0  0  0  0  0  0  0  0  0  0  0
  200.6466  181.9780  146.9967 C   0  0  0  0  0  0  0  0  0  0  0  0
  199.8937  181.2319  147.9204 C   0  0  0  0  0  0  0  0  0  0  0  0
  198.2011  179.4624  149.3648 C   0  0  0  0  0  0  0  0  0  0  0  0
  197.6401  178.6883  148.3235 C   0  0  0  0  0  0  0  0  0  0  0  0
  197.9699  177.3244  148.1917 C   0  0  0  0  0  0  0  0  0  0  0  0
  198.8617  176.7210  149.1022 C   0  0  0  0  0  0  0  0  0  0  0  0
  199.4294  177.4848  150.1383 C   0  0  0  0  0  0  0  0  0  0  0  0
  199.1193  178.8523  150.2502 C   0  0  0  0  0  0  0  0  0  0  0  0
  195.9513  180.8263  157.6288 H   0  0  0  0  0  0  0  0  0  0  0  0
  194.6559  183.2613  158.0751 H   0  0  0  0  0  0  0  0  0  0  0  0
  194.8963  181.9856  159.2435 H   0  0  0  0  0  0  0  0  0  0  0  0
  197.0869  182.9054  159.9339 H   0  0  0  0  0  0  0  0  0  0  0  0
  197.0410  184.1216  158.6712 H   0  0  0  0  0  0  0  0  0  0  0  0
  195.1663  184.9654  159.6080 H   0  0  0  0  0  0  0  0  0  0  0  0
  196.1203  182.2724  153.7980 H   0  0  0  0  0  0  0  0  0  0  0  0
  198.3855  178.7128  152.8505 H   0  0  0  0  0  0  0  0  0  0  0  0
  198.9921  178.4598  155.2331 H   0  0  0  0  0  0  0  0  0  0  0  0
  198.1847  180.0956  156.9048 H   0  0  0  0  0  0  0  0  0  0  0  0
  196.6697  179.6545  151.3512 H   0  0  0  0  0  0  0  0  0  0  0  0
  195.8724  181.1730  151.5650 H   0  0  0  0  0  0  0  0  0  0  0  0
  196.8444  181.0647  149.1473 H   0  0  0  0  0  0  0  0  0  0  0  0
  196.7731  184.4294  148.2916 H   0  0  0  0  0  0  0  0  0  0  0  0
  197.4654  183.1031  152.1352 H   0  0  0  0  0  0  0  0  0  0  0  0
  198.7840  183.2741  151.0556 H   0  0  0  0  0  0  0  0  0  0  0  0
  198.8965  184.8983  147.0944 H   0  0  0  0  0  0  0  0  0  0  0  0
  200.8695  183.8664  145.9853 H   0  0  0  0  0  0  0  0  0  0  0  0
  201.4964  181.5140  146.5179 H   0  0  0  0  0  0  0  0  0  0  0  0
  200.2132  180.2129  148.0863 H   0  0  0  0  0  0  0  0  0  0  0  0
  196.9651  179.1435  147.6104 H   0  0  0  0  0  0  0  0  0  0  0  0
  197.5557  176.7476  147.3812 H   0  0  0  0  0  0  0  0  0  0  0  0
  199.1219  175.6761  149.0048 H   0  0  0  0  0  0  0  0  0  0  0  0
  200.1215  177.0411  150.8429 H   0  0  0  0  0  0  0  0  0  0  0  0
  199.5881  179.4381  151.0262 H   0  0  0  0  0  0  0  0  0  0  0  0
  1  2  2  0
  2  3  1  0
  2  7  1  0
  3  4  1  0
  3 32  1  0
  4  5  1  0
  4 33  1  6
  4 34  1  0
  5  6  1  0
  5 35  1  1
  5 36  1  0
  6 37  1  0
  7  8  2  0
  7 12  1  0
  8  9  1  0
  8 38  1  0
  9 10  2  0
  9 13  1  0
 10 11  1  0
 10 39  1  0
 11 12  2  0
 11 40  1  0
 12 41  1  0
 13 14  1  0
 13 42  1  6
 13 43  1  0
 14 15  1  0
 14 21  1  0
 15 16  1  0
 15 26  1  0
 15 44  1  6
 16 17  1  0
 16 25  2  0
 17 18  1  0
 17 22  2  0
 18 19  1  0
 18 45  1  0
 19 20  2  0
 19 21  1  0
 21 46  1  1
 21 47  1  0
 22 23  1  0
 22 48  1  0
 23 24  2  0
 23 49  1  0
 24 25  1  0
 24 50  1  0
 25 51  1  0
 26 27  2  0
 26 31  1  0
 27 28  1  0
 27 52  1  0
 28 29  2  0
 28 53  1  0
 29 30  1  0
 29 54  1  0
 30 31  2  0
 30 55  1  0
 31 56  1  0
M  END
>  <s_epik_cmdline>  (70) 
J2VwaWtfcHl0aG9uJywgJy1waCcsICc3LjAwMDAwMCcsICctcGh0JywgJzIuMDAwMDAwJywgJy1tcycsICcxNicsICctdG4nLCAnOCcsICctbWEnLCAnMjAwJywgJy1pbWFlJywgJzxpbmZpbGUubWFlPicsICctb21hZScsICc8b3V0ZmlsZS5tYWU+Jw==

>  <s_epik_input>  (70) 
W09IXVtDSDJdW0NIMl1bTkhdQyg9TyljMVtjSF1jKFtjSF1bY0hdW2NIXTEpW0NIMl1OKFtDQEBIXTJjM1tjSF1bY0hdW2NIXVtjSF1bY0hdMylbQ0gyXUMoPU8pW05IXWMoYzI0KVtjSF1bY0hdW2NIXVtjSF00

>  <s_i_glide_gridfile>  (70) 
ATP-Grid

>  <s_lp_Force_Field>  (70) 
OPLS_2005

>  <s_lp_Variant>  (70) 
rxn512b____EMOL299981165____EMOL2730731____EMOL6185419-1

>  <s_lp_label>  (70) 
2483_sdstereoexpander_1_neutralizer_1_epik_1_stereoizer_1

>  <s_m_source_file>  (70) 
ATP-VSW-LIGPREP-002-in.maegz

>  <s_sd_BIOSOLVEIT.INFINISEE\_QUERY\_NAME>  (70) 
Ref-Lig

>  <s_sd_BIOSOLVEIT.INFINISEE\_QUERY\_SMILES>  (70) 
S(c1nc2c(cc1C[NH2+]Cc3ccc(cc3)C[NH+](C)C)cccc2)Cc4ccccc4

>  <s_sd_BIOSOLVEIT.INFINISEE\_REACTION\_NAME>  (70) 
rxn512b

>  <s_sd_BIOSOLVEIT.INFINISEE\_REAGENT1\_NAME>  (70) 
EMOL299981165

>  <s_sd_BIOSOLVEIT.INFINISEE\_REAGENT1\_SMILES>  (70) 
OCCN

>  <s_sd_BIOSOLVEIT.INFINISEE\_REAGENT2\_NAME>  (70) 
EMOL2730731

>  <s_sd_BIOSOLVEIT.INFINISEE\_REAGENT2\_SMILES>  (70) 
BrCc1cc(ccc1)C(=O)O

>  <s_sd_BIOSOLVEIT.INFINISEE\_REAGENT3\_NAME>  (70) 
EMOL6185419

>  <s_sd_BIOSOLVEIT.INFINISEE\_REAGENT3\_SMILES>  (70) 
O=C1Nc2c(cccc2)C(NC1)c3ccccc3

>  <s_sd_BIOSOLVEIT.INFINISEE\_SPACE>  (70) 
eXplore_7tr_2022-12

>  <s_vsw_compound_code>  (70) 
79426

>  <s_vsw_variant>  (70) 
79426-1

>  <r_epik_Charging_Adjusted_Penalty>  (70) 
0.0087634984339075902

>  <r_epik_Ionization_Penalty>  (70) 
0.0088000000000000005

>  <r_epik_Ionization_Penalty_Charging>  (70) 
0

>  <r_epik_Ionization_Penalty_Neutral>  (70) 
0.0088000000000000005

>  <r_epik_State_Penalty>  (70) 
0.0088000000000000005

>  <r_i_docking_score>  (70) 
-4.29629478093592

>  <r_i_glide_ecoul>  (70) 
-8.7650060653686506

>  <r_i_glide_eff_state_penalty>  (70) 
0.0088000000000000005

>  <r_i_glide_einternal>  (70) 
2.8406500816345202

>  <r_i_glide_emodel>  (70) 
-52.708474306258097

>  <r_i_glide_energy>  (70) 
-42.399859428405797

>  <r_i_glide_erotb>  (70) 
0.80074468397813003

>  <r_i_glide_esite>  (70) 
-0.166542119330192

>  <r_i_glide_evdw>  (70) 
-33.634853363037102

>  <r_i_glide_gscore>  (70) 
-4.3050947809359199

>  <r_i_glide_hbond>  (70) 
-0.29480013606431898

>  <r_i_glide_ligand_efficiency>  (70) 
-0.13859015422373899

>  <r_i_glide_ligand_efficiency_ln>  (70) 
-0.96894613872364299

>  <r_i_glide_ligand_efficiency_sa>  (70) 
-0.43536442859204899

>  <r_i_glide_lipo>  (70) 
-0.88272848145160698

>  <r_i_glide_metal>  (70) 
-0

>  <r_i_glide_rewards>  (70) 
-0.76527515011077996

>  <r_lp_Energy>  (70) 
40.336489

>  <r_qp_ACxDN^.5/SA>  (70) 
0.020675800000000001

>  <r_qp_CIQPlogS>  (70) 
-4.0339999999999998

>  <r_qp_EA(eV)>  (70) 
0.46000000000000002

>  <r_qp_FISA>  (70) 
150.37200000000001

>  <r_qp_FOSA>  (70) 
137.958

>  <r_qp_IP(eV)>  (70) 
9.1199999999999992

>  <r_qp_Jm>  (70) 
0.0017958960506474901

>  <r_qp_PISA>  (70) 
440.48700000000002

>  <r_qp_PSA>  (70) 
100.622

>  <r_qp_PercentHumanOralAbsorption>  (70) 
77.665000000000006

>  <r_qp_QPPCaco>  (70) 
92.646000000000001

>  <r_qp_QPPMDCK>  (70) 
41.829999999999998

>  <r_qp_QPlogBB>  (70) 
-0.96799999999999997

>  <r_qp_QPlogHERG>  (70) 
-7.6050000000000004

>  <r_qp_QPlogKhsa>  (70) 
0.217

>  <r_qp_QPlogKp>  (70) 
-4.226

>  <r_qp_QPlogPC16>  (70) 
15.396000000000001

>  <r_qp_QPlogPo/w>  (70) 
2.6499999999999999

>  <r_qp_QPlogPoct>  (70) 
26.077999999999999

>  <r_qp_QPlogPw>  (70) 
17.132000000000001

>  <r_qp_QPlogS>  (70) 
-4.1390000000000002

>  <r_qp_QPpolrz>  (70) 
47.116999999999997

>  <r_qp_SASA>  (70) 
728.81600000000003

>  <r_qp_SAamideO>  (70) 
0

>  <r_qp_SAfluorine>  (70) 
0

>  <r_qp_WPSA>  (70) 
0

>  <r_qp_accptHB>  (70) 
8.6999999999999993

>  <r_qp_dip^2/V>  (70) 
0.075867599999999993

>  <r_qp_dipole>  (70) 
10.016

>  <r_qp_donorHB>  (70) 
3

>  <r_qp_glob>  (70) 
0.79938980000000004

>  <r_qp_mol_MW>  (70) 
415.49099999999999

>  <r_qp_volume>  (70) 
1322.261

>  <r_sd_BIOSOLVEIT.INFINISEE\_FTREES\_SIMILARITY>  (70) 
0.91500000000000004

>  <r_sd_BIOSOLVEIT.LOGP>  (70) 
1.5353000000000001

>  <r_sd_BIOSOLVEIT.MOLECULAR\_WEIGHT>  (70) 
416.49799999999999

>  <r_sd_BIOSOLVEIT.TPSA>  (70) 
82.870000000000005

>  <i_epik_Tot_Q>  (70) 
0

>  <i_epik_Tot_abs_Q>  (70) 
0

>  <i_f3d_flags>  (70) 
0

>  <i_i_glide_confnum>  (70) 
11

>  <i_i_glide_lignum>  (70) 
1080

>  <i_i_glide_posenum>  (70) 
20

>  <i_i_glide_rotatable_bonds>  (70) 
8

>  <i_lp_mmshare_version>  (70) 
65135

>  <i_m_ct_format>  (70) 
2

>  <i_m_source_file_index>  (70) 
2483

>  <i_qp_#NandO>  (70) 
6

>  <i_qp_#acid>  (70) 
0

>  <i_qp_#amide>  (70) 
0

>  <i_qp_#amidine>  (70) 
0

>  <i_qp_#amine>  (70) 
1

>  <i_qp_#in34>  (70) 
0

>  <i_qp_#in56>  (70) 
18

>  <i_qp_#metab>  (70) 
8

>  <i_qp_#nonHatm>  (70) 
31

>  <i_qp_#noncon>  (70) 
2

>  <i_qp_#ringatoms>  (70) 
23

>  <i_qp_#rotor>  (70) 
6

>  <i_qp_#rtvFG>  (70) 
0

>  <i_qp_#stars>  (70) 
0

>  <i_qp_CNS>  (70) 
-1

>  <i_qp_HumanOralAbsorption>  (70) 
2

>  <i_qp_RuleOfFive>  (70) 
0

>  <i_qp_RuleOfThree>  (70) 
1

>  <i_sd_BIOSOLVEIT.INFINISEE\_RESULT\_RANK>  (70) 
28947

>  <i_sd_version>  (70) 
0

>  <b_lp_Chiralities_Consistent>  (70) 
1

>  <b_sd_chiral_flag>  (70) 
0

>  <canonical_id>  (70) 
ATP-HTVS-0BEF59EEEAC9

>  <compound_code>  (70) 
79426

>  <title>  (70) 
rxn512b____EMOL299981165____EMOL2730731____EMOL6185419

>  <variant>  (70) 
79426-1

>  <source_file>  (70) 
运行/运行/ATP-VSW/ATP-VSW-DOCK_HTVS_1-002_lib.maegz

>  <canonical_smiles>  (70) 
O=C1CN(Cc2cccc(C(=O)NCCO)c2)[C@H](c2ccccc2)c2ccccc2N1

>  <scaffold>  (70) 
O=C1CN(Cc2ccccc2)C(c2ccccc2)c2ccccc2N1

>  <molecular_formula>  (70) 
C25H25N3O3

$$$$
ATP-HTVS-0C1598B702AE
     RDKit          3D

 57 60  0  0  0  0  0  0  0  0999 V2000
  201.0176  178.2688  158.1415 O   0  0  0  0  0  0  0  0  0  0  0  0
  200.9196  179.4099  157.3051 C   0  0  1  0  0  0  0  0  0  0  0  0
  199.5057  179.5613  156.7373 C   0  0  1  0  0  0  0  0  0  0  0  0
  199.4244  180.7522  155.9013 N   0  0  0  0  0  0  0  0  0  0  0  0
  198.5222  180.8568  154.8227 C   0  0  0  0  0  0  0  0  0  0  0  0
  198.3644  182.1164  154.1885 C   0  0  0  0  0  0  0  0  0  0  0  0
  197.5155  182.2343  153.0607 C   0  0  0  0  0  0  0  0  0  0  0  0
  196.8224  181.1168  152.5661 C   0  0  0  0  0  0  0  0  0  0  0  0
  196.9474  179.8772  153.2129 C   0  0  0  0  0  0  0  0  0  0  0  0
  197.7762  179.7513  154.3447 C   0  0  0  0  0  0  0  0  0  0  0  0
  199.0810  183.3694  154.6812 C   0  0  1  0  0  0  0  0  0  0  0  0
  198.3236  184.0423  155.7583 N   0  0  1  0  0  0  0  0  0  0  0  0
  198.4771  183.4457  157.0921 C   0  0  1  0  0  0  0  0  0  0  0  0
  197.8845  184.2999  158.1573 C   0  0  0  0  0  0  0  0  0  0  0  0
  196.5670  184.1172  158.5669 N   0  0  0  0  0  0  0  0  0  0  0  0
  196.2961  185.0996  159.5473 C   0  0  0  0  0  0  0  0  0  0  0  0
  197.4243  185.8563  159.7384 C   0  0  0  0  0  0  0  0  0  0  0  0
  198.4217  185.3363  158.8817 C   0  0  0  0  0  0  0  0  0  0  0  0
  199.7746  185.9161  158.8401 C   0  0  0  0  0  0  0  0  0  0  0  0
  199.9549  187.3085  159.0341 C   0  0  0  0  0  0  0  0  0  0  0  0
  201.2432  187.8818  158.9743 C   0  0  0  0  0  0  0  0  0  0  0  0
  202.3592  187.0758  158.6956 C   0  0  0  0  0  0  0  0  0  0  0  0
  202.1939  185.6885  158.5074 C   0  0  0  0  0  0  0  0  0  0  0  0
  200.9095  185.1136  158.6114 C   0  0  0  0  0  0  0  0  0  0  0  0
  195.0010  185.1392  160.1191 C   0  0  0  0  0  0  0  0  0  0  0  0
  194.0517  184.2440  159.7028 C   0  0  0  0  0  0  0  0  0  0  0  0
  194.3601  183.2703  158.7163 C   0  0  0  0  0  0  0  0  0  0  0  0
  195.6104  183.2224  158.1683 C   0  0  0  0  0  0  0  0  0  0  0  0
  200.7604  177.0336  157.4919 C   0  0  2  0  0  0  0  0  0  0  0  0
  198.6496  184.9931  155.8199 H   0  0  0  0  0  0  0  0  0  0  0  0
  201.1849  180.2833  157.8937 H   0  0  0  0  0  0  0  0  0  0  0  0
  201.6398  179.3465  156.4853 H   0  0  0  0  0  0  0  0  0  0  0  0
  199.2915  178.6825  156.1421 H   0  0  0  0  0  0  0  0  0  0  0  0
  198.7581  179.6136  157.5347 H   0  0  0  0  0  0  0  0  0  0  0  0
  199.8980  181.5576  156.2545 H   0  0  0  0  0  0  0  0  0  0  0  0
  197.4050  183.1845  152.5559 H   0  0  0  0  0  0  0  0  0  0  0  0
  196.1924  181.2029  151.6908 H   0  0  0  0  0  0  0  0  0  0  0  0
  196.4225  179.0103  152.8438 H   0  0  0  0  0  0  0  0  0  0  0  0
  197.8159  178.7739  154.8016 H   0  0  0  0  0  0  0  0  0  0  0  0
  200.1063  183.1455  154.9921 H   0  0  0  0  0  0  0  0  0  0  0  0
  199.1874  184.0594  153.8505 H   0  0  0  0  0  0  0  0  0  0  0  0
  197.9913  182.4646  157.1413 H   0  0  0  0  0  0  0  0  0  0  0  0
  199.5581  183.2961  157.2932 H   0  0  0  0  0  0  0  0  0  0  0  0
  197.5148  186.6805  160.4273 H   0  0  0  0  0  0  0  0  0  0  0  0
  199.1107  187.9453  159.2354 H   0  0  0  0  0  0  0  0  0  0  0  0
  201.3613  188.9412  159.1583 H   0  0  0  0  0  0  0  0  0  0  0  0
  203.3461  187.5135  158.6487 H   0  0  0  0  0  0  0  0  0  0  0  0
  203.0494  185.0663  158.2933 H   0  0  0  0  0  0  0  0  0  0  0  0
  200.8076  184.0183  158.4961 H   0  0  0  0  0  0  0  0  0  0  0  0
  194.7595  185.8956  160.8650 H   0  0  0  0  0  0  0  0  0  0  0  0
  193.0533  184.2882  160.1190 H   0  0  0  0  0  0  0  0  0  0  0  0
  193.5980  182.5726  158.3752 H   0  0  0  0  0  0  0  0  0  0  0  0
  195.8557  182.4904  157.4045 H   0  0  0  0  0  0  0  0  0  0  0  0
  200.9006  176.2376  158.2094 H   0  0  0  0  0  0  0  0  0  0  0  0
  201.4410  176.8810  156.6516 H   0  0  0  0  0  0  0  0  0  0  0  0
  199.7296  176.9346  157.1468 H   0  0  0  0  0  0  0  0  0  0  0  0
  197.3458  184.0734  155.5006 H   0  0  0  0  0  0  0  0  0  0  0  0
  1  2  1  0
  1 29  1  0
  2  3  1  0
  2 31  1  1
  2 32  1  0
  3  4  1  0
  3 33  1  6
  3 34  1  0
  4  5  1  0
  4 35  1  0
  5  6  1  0
  5 10  2  0
  6  7  2  0
  6 11  1  0
  7  8  1  0
  7 36  1  0
  8  9  2  0
  8 37  1  0
  9 10  1  0
  9 38  1  0
 10 39  1  0
 11 12  1  0
 11 40  1  1
 11 41  1  0
 12 13  1  0
 12 30  1  1
 12 57  1  0
 13 14  1  0
 13 42  1  6
 13 43  1  0
 14 15  1  0
 14 18  2  0
 15 16  1  0
 15 28  1  0
 16 17  2  0
 16 25  1  0
 17 18  1  0
 17 44  1  0
 18 19  1  0
 19 20  2  0
 19 24  1  0
 20 21  1  0
 20 45  1  0
 21 22  2  0
 21 46  1  0
 22 23  1  0
 22 47  1  0
 23 24  2  0
 23 48  1  0
 24 49  1  0
 25 26  2  0
 25 50  1  0
 26 27  1  0
 26 51  1  0
 27 28  2  0
 27 52  1  0
 28 53  1  0
 29 54  1  1
 29 55  1  0
 29 56  1  0
M  CHG  1  12   1
M  END
>  <s_epik_cmdline>  (71) 
J2VwaWtfcHl0aG9uJywgJy1waCcsICc3LjAwMDAwMCcsICctcGh0JywgJzIuMDAwMDAwJywgJy1tcycsICcxNicsICctdG4nLCAnOCcsICctbWEnLCAnMjAwJywgJy1pbWFlJywgJzxpbmZpbGUubWFlPicsICctb21hZScsICc8b3V0ZmlsZS5tYWU+Jw==

>  <s_epik_input>  (71) 
W0NIM11PW0NIMl1bQ0gyXVtOSF1jMWMoW2NIXVtjSF1bY0hdW2NIXTEpW0NIMl1bTkhdW0NIMl1jMmMoW2NIXWMobjIzKVtjSF1bY0hdW2NIXVtjSF0zKS1jNFtjSF1bY0hdW2NIXVtjSF1bY0hdNA==

>  <s_i_glide_gridfile>  (71) 
ATP-Grid

>  <s_lp_Force_Field>  (71) 
OPLS_2005

>  <s_lp_Variant>  (71) 
m_270004bbb____25289960____24720836-1

>  <s_lp_label>  (71) 
1723_sdstereoexpander_1_neutralizer_1_epik_1_stereoizer_1

>  <s_m_source_file>  (71) 
ATP-VSW-LIGPREP-002-in.maegz

>  <s_sd_BIOSOLVEIT.INFINISEE\_QUERY\_NAME>  (71) 
Ref-Lig

>  <s_sd_BIOSOLVEIT.INFINISEE\_QUERY\_SMILES>  (71) 
S(c1nc2c(cc1C[NH2+]Cc3ccc(cc3)C[NH+](C)C)cccc2)Cc4ccccc4

>  <s_sd_BIOSOLVEIT.INFINISEE\_REACTION\_NAME>  (71) 
m_270004bbb

>  <s_sd_BIOSOLVEIT.INFINISEE\_REAGENT1\_SMILES>  (71) 
[R1*]NCc1c(NCCOC)cccc1

>  <s_sd_BIOSOLVEIT.INFINISEE\_REAGENT2\_SMILES>  (71) 
[R1*]CC=1N2C(=CC1c3ccccc3)C=CC=C2

>  <s_sd_BIOSOLVEIT.INFINISEE\_SPACE>  (71) 
REALSpace_44bn_2023-08

>  <s_vsw_compound_code>  (71) 
55106

>  <s_vsw_variant>  (71) 
55106-1

>  <r_epik_Charging_Adjusted_Penalty>  (71) 
0.078286411848044399

>  <r_epik_Ionization_Penalty>  (71) 
0.076600000000000001

>  <r_epik_Ionization_Penalty_Charging>  (71) 
0.076600000000000001

>  <r_epik_Ionization_Penalty_Neutral>  (71) 
0

>  <r_epik_State_Penalty>  (71) 
0.0016999999999999999

>  <r_i_docking_score>  (71) 
-3.15858840715297

>  <r_i_glide_ecoul>  (71) 
-3.9119994640350302

>  <r_i_glide_eff_state_penalty>  (71) 
0.0016999999999999999

>  <r_i_glide_einternal>  (71) 
2.3333432674407999

>  <r_i_glide_emodel>  (71) 
-43.016818155099998

>  <r_i_glide_energy>  (71) 
-35.062380552291899

>  <r_i_glide_erotb>  (71) 
1.04232927672368

>  <r_i_glide_esite>  (71) 
-0.020142071551921398

>  <r_i_glide_evdw>  (71) 
-31.1503810882568

>  <r_i_glide_gscore>  (71) 
-3.16028840715297

>  <r_i_glide_hbond>  (71) 
0

>  <r_i_glide_ligand_efficiency>  (71) 
-0.108916841625964

>  <r_i_glide_ligand_efficiency_ln>  (71) 
-0.72323665034679996

>  <r_i_glide_ligand_efficiency_sa>  (71) 
-0.334627044752415

>  <r_i_glide_lipo>  (71) 
-1.20066743956908

>  <r_i_glide_metal>  (71) 
-0

>  <r_i_glide_rewards>  (71) 
-0.83748919873755401

>  <r_lp_Energy>  (71) 
19.291461000000002

>  <r_qp_ACxDN^.5/SA>  (71) 
0.0092750000000000003

>  <r_qp_CIQPlogS>  (71) 
-5.4880000000000004

>  <r_qp_EA(eV)>  (71) 
0.36699999999999999

>  <r_qp_FISA>  (71) 
13.536

>  <r_qp_FOSA>  (71) 
184.184

>  <r_qp_IP(eV)>  (71) 
7.7329999999999997

>  <r_qp_Jm>  (71) 
2.1200290016760999

>  <r_qp_PISA>  (71) 
442.67700000000002

>  <r_qp_PSA>  (71) 
34.542999999999999

>  <r_qp_PercentHumanOralAbsorption>  (71) 
100

>  <r_qp_QPPCaco>  (71) 
1838.402

>  <r_qp_QPPMDCK>  (71) 
1056.96

>  <r_qp_QPlogBB>  (71) 
0.35899999999999999

>  <r_qp_QPlogHERG>  (71) 
-6.5720000000000001

>  <r_qp_QPlogKhsa>  (71) 
0.73899999999999999

>  <r_qp_QPlogKp>  (71) 
-1.504

>  <r_qp_QPlogPC16>  (71) 
13.268000000000001

>  <r_qp_QPlogPo/w>  (71) 
4.9409999999999998

>  <r_qp_QPlogPoct>  (71) 
18.898

>  <r_qp_QPlogPw>  (71) 
9.6649999999999991

>  <r_qp_QPlogS>  (71) 
-3.7559999999999998

>  <r_qp_QPpolrz>  (71) 
41.902000000000001

>  <r_qp_SASA>  (71) 
640.39599999999996

>  <r_qp_SAamideO>  (71) 
0

>  <r_qp_SAfluorine>  (71) 
0

>  <r_qp_WPSA>  (71) 
0

>  <r_qp_accptHB>  (71) 
4.2000000000000002

>  <r_qp_dip^2/V>  (71) 
0.0062970999999999999

>  <r_qp_dipole>  (71) 
2.7759999999999998

>  <r_qp_donorHB>  (71) 
2

>  <r_qp_glob>  (71) 
0.86388569999999998

>  <r_qp_mol_MW>  (71) 
385.50799999999998

>  <r_qp_volume>  (71) 
1223.518

>  <r_sd_BIOSOLVEIT.INFINISEE\_FTREES\_SIMILARITY>  (71) 
0.90500000000000003

>  <r_sd_BIOSOLVEIT.LOGP>  (71) 
3.9281999999999999

>  <r_sd_BIOSOLVEIT.MOLECULAR\_WEIGHT>  (71) 
386.51600000000002

>  <r_sd_BIOSOLVEIT.TPSA>  (71) 
42.799999999999997

>  <i_epik_Tot_Q>  (71) 
1

>  <i_epik_Tot_abs_Q>  (71) 
1

>  <i_f3d_flags>  (71) 
0

>  <i_i_glide_confnum>  (71) 
6

>  <i_i_glide_lignum>  (71) 
599

>  <i_i_glide_posenum>  (71) 
1

>  <i_i_glide_rotatable_bonds>  (71) 
9

>  <i_lp_mmshare_version>  (71) 
65135

>  <i_m_ct_format>  (71) 
2

>  <i_m_source_file_index>  (71) 
1723

>  <i_qp_#NandO>  (71) 
4

>  <i_qp_#acid>  (71) 
0

>  <i_qp_#amide>  (71) 
0

>  <i_qp_#amidine>  (71) 
0

>  <i_qp_#amine>  (71) 
1

>  <i_qp_#in34>  (71) 
0

>  <i_qp_#in56>  (71) 
21

>  <i_qp_#metab>  (71) 
8

>  <i_qp_#nonHatm>  (71) 
29

>  <i_qp_#noncon>  (71) 
0

>  <i_qp_#ringatoms>  (71) 
21

>  <i_qp_#rotor>  (71) 
8

>  <i_qp_#rtvFG>  (71) 
0

>  <i_qp_#stars>  (71) 
1

>  <i_qp_CNS>  (71) 
1

>  <i_qp_HumanOralAbsorption>  (71) 
3

>  <i_qp_RuleOfFive>  (71) 
0

>  <i_qp_RuleOfThree>  (71) 
1

>  <i_sd_BIOSOLVEIT.INFINISEE\_REAGENT1\_NAME>  (71) 
25289960

>  <i_sd_BIOSOLVEIT.INFINISEE\_REAGENT2\_NAME>  (71) 
24720836

>  <i_sd_BIOSOLVEIT.INFINISEE\_RESULT\_RANK>  (71) 
72995

>  <i_sd_version>  (71) 
0

>  <b_lp_Chiralities_Consistent>  (71) 
1

>  <b_sd_chiral_flag>  (71) 
0

>  <canonical_id>  (71) 
ATP-HTVS-0C1598B702AE

>  <compound_code>  (71) 
55106

>  <title>  (71) 
m_270004bbb____25289960____24720836

>  <variant>  (71) 
55106-1

>  <source_file>  (71) 
运行/运行/ATP-VSW/ATP-VSW-DOCK_HTVS_1-002_lib.maegz

>  <canonical_smiles>  (71) 
COCCNc1ccccc1C[NH2+]Cc1c(-c2ccccc2)cc2ccccn12

>  <scaffold>  (71) 
c1ccc(C[NH2+]Cc2c(-c3ccccc3)cc3ccccn23)cc1

>  <molecular_formula>  (71) 
C25H28N3O+

$$$$
ATP-HTVS-0C253F9D7643
     RDKit          3D

 56 59  0  0  0  0  0  0  0  0999 V2000
  192.8426  186.6346  161.4165 Cl  0  0  0  0  0  0  0  0  0  0  0  0
  194.4362  186.3456  160.8073 C   0  0  0  0  0  0  0  0  0  0  0  0
  194.7555  185.1552  160.1319 C   0  0  0  0  0  0  0  0  0  0  0  0
  196.0669  184.9351  159.6697 C   0  0  0  0  0  0  0  0  0  0  0  0
  197.0588  185.9233  159.8639 C   0  0  0  0  0  0  0  0  0  0  0  0
  196.7474  187.1111  160.5317 C   0  0  0  0  0  0  0  0  0  0  0  0
  195.4117  187.3316  160.9981 C   0  0  0  0  0  0  0  0  0  0  0  0
  198.4840  185.7097  159.3778 C   0  0  1  0  0  0  0  0  0  0  0  0
  198.7450  186.3539  158.0600 N   0  0  2  0  0  0  0  0  0  0  0  0
  200.1011  186.0588  157.5237 C   0  0  1  0  0  0  0  0  0  0  0  0
  200.4107  184.5780  157.4407 C   0  0  0  0  0  0  0  0  0  0  0  0
  199.8198  183.7989  156.4298 C   0  0  0  0  0  0  0  0  0  0  0  0
  200.0865  182.4112  156.3323 C   0  0  0  0  0  0  0  0  0  0  0  0
  199.5362  181.6015  155.3581 O   0  0  0  0  0  0  0  0  0  0  0  0
  198.5295  182.1349  154.5058 C   0  0  1  0  0  0  0  0  0  0  0  0
  198.0858  181.1269  153.4632 C   0  0  0  0  0  0  0  0  0  0  0  0
  199.0050  180.1902  152.9430 C   0  0  0  0  0  0  0  0  0  0  0  0
  198.5969  179.2666  151.9608 C   0  0  0  0  0  0  0  0  0  0  0  0
  197.2717  179.2854  151.4875 C   0  0  0  0  0  0  0  0  0  0  0  0
  196.3536  180.2248  151.9965 C   0  0  0  0  0  0  0  0  0  0  0  0
  196.7607  181.1486  152.9787 C   0  0  0  0  0  0  0  0  0  0  0  0
  200.9725  181.8199  157.2677 C   0  0  0  0  0  0  0  0  0  0  0  0
  201.5646  182.6011  158.2921 C   0  0  0  0  0  0  0  0  0  0  0  0
  201.2798  183.9781  158.3784 C   0  0  0  0  0  0  0  0  0  0  0  0
  202.4424  182.0115  159.2256 C   0  0  0  0  0  0  0  0  0  0  0  0
  202.7472  180.6372  159.1358 C   0  0  0  0  0  0  0  0  0  0  0  0
  202.1460  179.8553  158.1339 C   0  0  0  0  0  0  0  0  0  0  0  0
  201.2718  180.4426  157.1979 C   0  0  0  0  0  0  0  0  0  0  0  0
  198.4749  187.8197  157.9940 C   0  0  1  0  0  0  0  0  0  0  0  0
  197.8401  188.1182  156.6538 C   0  0  0  0  0  0  0  0  0  0  0  0
  196.6547  187.7377  156.5140 O   0  0  0  0  0  0  0  0  0  0  0  0
  198.5305  188.6748  155.7813 O   0  0  0  0  0  0  0  0  0  0  0  0
  193.9921  184.4079  159.9696 H   0  0  0  0  0  0  0  0  0  0  0  0
  196.3083  184.0036  159.1647 H   0  0  0  0  0  0  0  0  0  0  0  0
  197.4784  187.8431  160.7733 H   0  0  0  0  0  0  0  0  0  0  0  0
  195.1872  188.2535  161.5130 H   0  0  0  0  0  0  0  0  0  0  0  0
  199.2063  186.0541  160.1188 H   0  0  0  0  0  0  0  0  0  0  0  0
  198.6359  184.6273  159.3119 H   0  0  0  0  0  0  0  0  0  0  0  0
  200.2049  186.4877  156.5255 H   0  0  0  0  0  0  0  0  0  0  0  0
  200.8526  186.5451  158.1421 H   0  0  0  0  0  0  0  0  0  0  0  0
  199.1561  184.2955  155.7375 H   0  0  0  0  0  0  0  0  0  0  0  0
  197.6730  182.4389  155.1107 H   0  0  0  0  0  0  0  0  0  0  0  0
  198.8936  183.0077  153.9624 H   0  0  0  0  0  0  0  0  0  0  0  0
  200.0260  180.1739  153.2959 H   0  0  0  0  0  0  0  0  0  0  0  0
  199.3018  178.5460  151.5722 H   0  0  0  0  0  0  0  0  0  0  0  0
  196.9619  178.5818  150.7303 H   0  0  0  0  0  0  0  0  0  0  0  0
  195.3367  180.2366  151.6341 H   0  0  0  0  0  0  0  0  0  0  0  0
  196.0542  181.8716  153.3626 H   0  0  0  0  0  0  0  0  0  0  0  0
  201.7282  184.5697  159.1644 H   0  0  0  0  0  0  0  0  0  0  0  0
  202.8779  182.6034  160.0156 H   0  0  0  0  0  0  0  0  0  0  0  0
  203.4127  180.1940  159.8625 H   0  0  0  0  0  0  0  0  0  0  0  0
  202.3386  178.7935  158.0797 H   0  0  0  0  0  0  0  0  0  0  0  0
  200.8303  179.8204  156.4347 H   0  0  0  0  0  0  0  0  0  0  0  0
  197.7399  188.1802  158.7417 H   0  0  0  0  0  0  0  0  0  0  0  0
  199.3942  188.3960  158.1689 H   0  0  0  0  0  0  0  0  0  0  0  0
  198.0728  185.9425  157.4234 H   0  0  0  0  0  0  0  0  0  0  0  0
  1  2  1  0
  2  3  1  0
  2  7  2  0
  3  4  2  0
  3 33  1  0
  4  5  1  0
  4 34  1  0
  5  6  2  0
  5  8  1  0
  6  7  1  0
  6 35  1  0
  7 36  1  0
  8  9  1  0
  8 37  1  1
  8 38  1  0
  9 10  1  0
  9 29  1  0
  9 56  1  6
 10 11  1  0
 10 39  1  6
 10 40  1  0
 11 12  1  0
 11 24  2  0
 12 13  2  0
 12 41  1  0
 13 14  1  0
 13 22  1  0
 14 15  1  0
 15 16  1  0
 15 42  1  1
 15 43  1  0
 16 17  2  0
 16 21  1  0
 17 18  1  0
 17 44  1  0
 18 19  2  0
 18 45  1  0
 19 20  1  0
 19 46  1  0
 20 21  2  0
 20 47  1  0
 21 48  1  0
 22 23  1  0
 22 28  2  0
 23 24  1  0
 23 25  2  0
 24 49  1  0
 25 26  1  0
 25 50  1  0
 26 27  2  0
 26 51  1  0
 27 28  1  0
 27 52  1  0
 28 53  1  0
 29 30  1  0
 29 54  1  1
 29 55  1  0
 30 31  1  0
 30 32  2  0
M  CHG  2   9   1  31  -1
M  END
>  <s_epik_cmdline>  (72) 
J2VwaWtfcHl0aG9uJywgJy1waCcsICc3LjAwMDAwMCcsICctcGh0JywgJzIuMDAwMDAwJywgJy1tcycsICcxNicsICctdG4nLCAnOCcsICctbWEnLCAnMjAwJywgJy1pbWFlJywgJzxpbmZpbGUubWFlPicsICctb21hZScsICc8b3V0ZmlsZS5tYWU+Jw==

>  <s_epik_input>  (72) 
Q2xjMVtjSF1bY0hdYyhbY0hdW2NIXTEpW0NIMl1OKFtDSDJdQyg9TylbT0hdKVtDSDJdYyhbY0hdYyhjMjMpW2NIXVtjSF1bY0hdW2NIXTMpW2NIXWMyT1tDSDJdYzRbY0hdW2NIXVtjSF1bY0hdW2NIXTQ=

>  <s_i_glide_gridfile>  (72) 
ATP-Grid

>  <s_lp_Force_Field>  (72) 
OPLS_2005

>  <s_lp_Variant>  (72) 
m_275532bba____13829954____13834314-1

>  <s_lp_label>  (72) 
2134_sdstereoexpander_1_neutralizer_1_epik_1_stereoizer_1

>  <s_m_source_file>  (72) 
ATP-VSW-LIGPREP-003-in.maegz

>  <s_sd_BIOSOLVEIT.INFINISEE\_QUERY\_NAME>  (72) 
Ref-Lig

>  <s_sd_BIOSOLVEIT.INFINISEE\_QUERY\_SMILES>  (72) 
S(c1nc2c(cc1C[NH2+]Cc3ccc(cc3)C[NH+](C)C)cccc2)Cc4ccccc4

>  <s_sd_BIOSOLVEIT.INFINISEE\_REACTION\_NAME>  (72) 
m_275532bba

>  <s_sd_BIOSOLVEIT.INFINISEE\_REAGENT1\_SMILES>  (72) 
[R1*]N(Cc1ccc(Cl)cc1)CC(=O)O

>  <s_sd_BIOSOLVEIT.INFINISEE\_REAGENT2\_SMILES>  (72) 
[R1*]Cc1cc(OCc2ccccc2)c3c(c1)cccc3

>  <s_sd_BIOSOLVEIT.INFINISEE\_SPACE>  (72) 
REALSpace_44bn_2023-08

>  <s_vsw_compound_code>  (72) 
68259

>  <s_vsw_variant>  (72) 
68259-1

>  <r_epik_Charging_Adjusted_Penalty>  (72) 
0.218320121959515

>  <r_epik_Ionization_Penalty>  (72) 
0.10920000000000001

>  <r_epik_Ionization_Penalty_Charging>  (72) 
0.10920000000000001

>  <r_epik_Ionization_Penalty_Neutral>  (72) 
0

>  <r_epik_State_Penalty>  (72) 
0.10920000000000001

>  <r_i_docking_score>  (72) 
-3.61118922669315

>  <r_i_glide_ecoul>  (72) 
-3.05253958702087

>  <r_i_glide_eff_state_penalty>  (72) 
0.10920000000000001

>  <r_i_glide_einternal>  (72) 
2.3113541603088401

>  <r_i_glide_emodel>  (72) 
-38.434374273099998

>  <r_i_glide_energy>  (72) 
-31.731910467147799

>  <r_i_glide_erotb>  (72) 
0.70444644444601101

>  <r_i_glide_esite>  (72) 
0

>  <r_i_glide_evdw>  (72) 
-28.679370880126999

>  <r_i_glide_gscore>  (72) 
-3.72038922669315

>  <r_i_glide_hbond>  (72) 
-0.101289316806533

>  <r_i_glide_ligand_efficiency>  (72) 
-0.11284966333416099

>  <r_i_glide_ligand_efficiency_ln>  (72) 
-0.80864370515712103

>  <r_i_glide_ligand_efficiency_sa>  (72) 
-0.35827534816791301

>  <r_i_glide_lipo>  (72) 
-1.95374956969175

>  <r_i_glide_metal>  (72) 
-0

>  <r_i_glide_rewards>  (72) 
-0.477947302581404

>  <r_lp_Energy>  (72) 
16.274737999999999

>  <r_qp_ACxDN^.5/SA>  (72) 
0.0062694999999999999

>  <r_qp_CIQPlogS>  (72) 
-6.6660000000000004

>  <r_qp_EA(eV)>  (72) 
0.66600000000000004

>  <r_qp_FISA>  (72) 
76.322000000000003

>  <r_qp_FOSA>  (72) 
107.63500000000001

>  <r_qp_IP(eV)>  (72) 
8.3469999999999995

>  <r_qp_Jm>  (72) 
0.00048815211677755599

>  <r_qp_PISA>  (72) 
502.04000000000002

>  <r_qp_PSA>  (72) 
56.906999999999996

>  <r_qp_PercentHumanOralAbsorption>  (72) 
90.337999999999994

>  <r_qp_QPPCaco>  (72) 
118.20699999999999

>  <r_qp_QPPMDCK>  (72) 
170.90700000000001

>  <r_qp_QPlogBB>  (72) 
-0.20799999999999999

>  <r_qp_QPlogHERG>  (72) 
-6.1479999999999997

>  <r_qp_QPlogKhsa>  (72) 
0.93300000000000005

>  <r_qp_QPlogKp>  (72) 
-2.3559999999999999

>  <r_qp_QPlogPC16>  (72) 
16.021000000000001

>  <r_qp_QPlogPo/w>  (72) 
4.4909999999999997

>  <r_qp_QPlogPoct>  (72) 
20.771999999999998

>  <r_qp_QPlogPw>  (72) 
9.6600000000000001

>  <r_qp_QPlogS>  (72) 
-6.6050000000000004

>  <r_qp_QPpolrz>  (72) 
48.581000000000003

>  <r_qp_SASA>  (72) 
757.63900000000001

>  <r_qp_SAamideO>  (72) 
0

>  <r_qp_SAfluorine>  (72) 
0

>  <r_qp_WPSA>  (72) 
71.641999999999996

>  <r_qp_accptHB>  (72) 
4.75

>  <r_qp_dip^2/V>  (72) 
0.019450100000000001

>  <r_qp_dipole>  (72) 
5.2039999999999997

>  <r_qp_donorHB>  (72) 
1

>  <r_qp_glob>  (72) 
0.79589580000000004

>  <r_qp_mol_MW>  (72) 
445.94400000000002

>  <r_qp_volume>  (72) 
1392.2919999999999

>  <r_sd_BIOSOLVEIT.INFINISEE\_FTREES\_SIMILARITY>  (72) 
0.90100000000000002

>  <r_sd_BIOSOLVEIT.LOGP>  (72) 
3.4072

>  <r_sd_BIOSOLVEIT.MOLECULAR\_WEIGHT>  (72) 
445.94400000000002

>  <r_sd_BIOSOLVEIT.TPSA>  (72) 
53.799999999999997

>  <i_epik_Tot_Q>  (72) 
0

>  <i_epik_Tot_abs_Q>  (72) 
2

>  <i_f3d_flags>  (72) 
0

>  <i_i_glide_confnum>  (72) 
3

>  <i_i_glide_lignum>  (72) 
793

>  <i_i_glide_posenum>  (72) 
4

>  <i_i_glide_rotatable_bonds>  (72) 
9

>  <i_lp_mmshare_version>  (72) 
65135

>  <i_m_ct_format>  (72) 
2

>  <i_m_source_file_index>  (72) 
2134

>  <i_qp_#NandO>  (72) 
4

>  <i_qp_#acid>  (72) 
1

>  <i_qp_#amide>  (72) 
0

>  <i_qp_#amidine>  (72) 
0

>  <i_qp_#amine>  (72) 
1

>  <i_qp_#in34>  (72) 
0

>  <i_qp_#in56>  (72) 
22

>  <i_qp_#metab>  (72) 
6

>  <i_qp_#nonHatm>  (72) 
32

>  <i_qp_#noncon>  (72) 
0

>  <i_qp_#ringatoms>  (72) 
22

>  <i_qp_#rotor>  (72) 
9

>  <i_qp_#rtvFG>  (72) 
0

>  <i_qp_#stars>  (72) 
2

>  <i_qp_CNS>  (72) 
0

>  <i_qp_HumanOralAbsorption>  (72) 
1

>  <i_qp_RuleOfFive>  (72) 
0

>  <i_qp_RuleOfThree>  (72) 
1

>  <i_sd_BIOSOLVEIT.INFINISEE\_REAGENT1\_NAME>  (72) 
13829954

>  <i_sd_BIOSOLVEIT.INFINISEE\_REAGENT2\_NAME>  (72) 
13834314

>  <i_sd_BIOSOLVEIT.INFINISEE\_RESULT\_RANK>  (72) 
99409

>  <i_sd_version>  (72) 
0

>  <b_lp_Chiralities_Consistent>  (72) 
1

>  <b_sd_chiral_flag>  (72) 
0

>  <canonical_id>  (72) 
ATP-HTVS-0C253F9D7643

>  <compound_code>  (72) 
68259

>  <title>  (72) 
m_275532bba____13829954____13834314

>  <variant>  (72) 
68259-1

>  <source_file>  (72) 
运行/运行/ATP-VSW/ATP-VSW-DOCK_HTVS_1-003_lib/ATP-VSW-DOCK_HTVS_1-003_lib.mae

>  <canonical_smiles>  (72) 
O=C([O-])C[N@H+](Cc1ccc(Cl)cc1)Cc1cc(OCc2ccccc2)c2ccccc2c1

>  <scaffold>  (72) 
c1ccc(C[NH2+]Cc2cc(OCc3ccccc3)c3ccccc3c2)cc1

>  <molecular_formula>  (72) 
C27H24ClNO3

$$$$
ATP-HTVS-0C40F7CB6A92
     RDKit          3D

 60 63  0  0  0  0  0  0  0  0999 V2000
  199.3641  184.1535  159.5275 O   0  0  0  0  0  0  0  0  0  0  0  0
  198.4638  183.2221  158.9663 C   0  0  1  0  0  0  0  0  0  0  0  0
  197.3808  183.8503  158.0488 C   0  0  2  0  0  0  0  0  0  0  0  0
  196.4345  184.7368  158.9064 C   0  0  0  0  0  0  0  0  0  0  0  0
  195.1635  184.2807  159.3279 C   0  0  0  0  0  0  0  0  0  0  0  0
  194.3346  185.0896  160.1269 C   0  0  0  0  0  0  0  0  0  0  0  0
  194.7621  186.3512  160.5548 C   0  0  0  0  0  0  0  0  0  0  0  0
  196.0243  186.8290  160.1559 C   0  0  0  0  0  0  0  0  0  0  0  0
  196.8546  186.0252  159.3373 C   0  0  0  0  0  0  0  0  0  0  0  0
  193.8461  187.1960  161.4220 C   0  0  2  0  0  0  0  0  0  0  0  0
  196.5788  182.7107  157.3254 C   0  0  1  0  0  0  0  0  0  0  0  0
  197.4244  181.7104  156.6528 N   0  0  1  0  0  0  0  0  0  0  0  0
  196.7158  180.8482  155.6846 C   0  0  1  0  0  0  0  0  0  0  0  0
  197.7125  179.9933  154.9513 C   0  0  0  0  0  0  0  0  0  0  0  0
  198.0876  180.0031  153.5652 C   0  0  0  0  0  0  0  0  0  0  0  0
  198.9818  179.0539  153.3225 N   0  0  0  0  0  0  0  0  0  0  0  0
  199.2324  178.4245  154.4923 N   0  0  0  0  0  0  0  0  0  0  0  0
  200.1386  177.3205  154.5668 C   0  0  0  0  0  0  0  0  0  0  0  0
  200.6850  176.7388  153.3928 C   0  0  0  0  0  0  0  0  0  0  0  0
  201.5798  175.6507  153.4764 C   0  0  0  0  0  0  0  0  0  0  0  0
  201.9387  175.1290  154.7331 C   0  0  0  0  0  0  0  0  0  0  0  0
  201.4009  175.6908  155.9050 C   0  0  0  0  0  0  0  0  0  0  0  0
  200.5031  176.7743  155.8222 C   0  0  0  0  0  0  0  0  0  0  0  0
  198.4803  178.9967  155.4956 C   0  0  0  0  0  0  0  0  0  0  0  0
  197.6311  180.8625  152.4557 C   0  0  0  0  0  0  0  0  0  0  0  0
  197.0282  182.1258  152.6693 C   0  0  0  0  0  0  0  0  0  0  0  0
  196.5629  182.8650  151.5771 C   0  0  0  0  0  0  0  0  0  0  0  0
  196.7364  182.4810  150.2926 N   0  0  0  0  0  0  0  0  0  0  0  0
  197.3689  181.3096  150.0716 C   0  0  0  0  0  0  0  0  0  0  0  0
  197.8080  180.4607  151.1019 C   0  0  0  0  0  0  0  0  0  0  0  0
  198.0744  184.6899  156.9369 C   0  0  2  0  0  0  0  0  0  0  0  0
  198.1817  182.1838  156.1819 H   0  0  0  0  0  0  0  0  0  0  0  0
  199.7638  184.6429  158.8225 H   0  0  0  0  0  0  0  0  0  0  0  0
  199.1118  182.5611  158.3938 H   0  0  0  0  0  0  0  0  0  0  0  0
  197.9927  182.6370  159.7523 H   0  0  0  0  0  0  0  0  0  0  0  0
  194.7427  183.3185  159.0852 H   0  0  0  0  0  0  0  0  0  0  0  0
  193.3738  184.7083  160.4227 H   0  0  0  0  0  0  0  0  0  0  0  0
  196.3626  187.8008  160.4829 H   0  0  0  0  0  0  0  0  0  0  0  0
  197.8253  186.4142  159.0746 H   0  0  0  0  0  0  0  0  0  0  0  0
  194.1181  188.2500  161.3594 H   0  0  0  0  0  0  0  0  0  0  0  0
  193.9120  186.8792  162.4628 H   0  0  0  0  0  0  0  0  0  0  0  0
  192.8080  187.0947  161.0937 H   0  0  0  0  0  0  0  0  0  0  0  0
  195.9826  182.0844  157.9886 H   0  0  0  0  0  0  0  0  0  0  0  0
  195.9065  183.1819  156.6041 H   0  0  0  0  0  0  0  0  0  0  0  0
  195.9754  180.2016  156.1375 H   0  0  0  0  0  0  0  0  0  0  0  0
  196.0555  181.4495  155.0678 H   0  0  0  0  0  0  0  0  0  0  0  0
  200.4234  177.1186  152.4155 H   0  0  0  0  0  0  0  0  0  0  0  0
  201.9916  175.2193  152.5756 H   0  0  0  0  0  0  0  0  0  0  0  0
  202.6261  174.2980  154.7986 H   0  0  0  0  0  0  0  0  0  0  0  0
  201.6748  175.2953  156.8719 H   0  0  0  0  0  0  0  0  0  0  0  0
  200.1053  177.1781  156.7400 H   0  0  0  0  0  0  0  0  0  0  0  0
  198.5290  178.6374  156.5127 H   0  0  0  0  0  0  0  0  0  0  0  0
  196.9163  182.5881  153.6406 H   0  0  0  0  0  0  0  0  0  0  0  0
  196.0557  183.7985  151.7595 H   0  0  0  0  0  0  0  0  0  0  0  0
  197.5318  181.0561  149.0289 H   0  0  0  0  0  0  0  0  0  0  0  0
  198.3031  179.5389  150.8482 H   0  0  0  0  0  0  0  0  0  0  0  0
  198.6715  184.0656  156.2684 H   0  0  0  0  0  0  0  0  0  0  0  0
  198.7635  185.4415  157.3245 H   0  0  0  0  0  0  0  0  0  0  0  0
  197.3496  185.2204  156.3178 H   0  0  0  0  0  0  0  0  0  0  0  0
  197.8104  181.1235  157.3797 H   0  0  0  0  0  0  0  0  0  0  0  0
  1  2  1  0
  1 33  1  0
  2  3  1  0
  2 34  1  6
  2 35  1  0
  3  4  1  1
  3 11  1  0
  3 31  1  0
  4  5  1  0
  4  9  2  0
  5  6  2  0
  5 36  1  0
  6  7  1  0
  6 37  1  0
  7  8  2  0
  7 10  1  0
  8  9  1  0
  8 38  1  0
  9 39  1  0
 10 40  1  1
 10 41  1  0
 10 42  1  0
 11 12  1  0
 11 43  1  1
 11 44  1  0
 12 13  1  0
 12 32  1  6
 12 60  1  0
 13 14  1  0
 13 45  1  1
 13 46  1  0
 14 15  1  0
 14 24  2  0
 15 16  2  0
 15 25  1  0
 16 17  1  0
 17 18  1  0
 17 24  1  0
 18 19  2  0
 18 23  1  0
 19 20  1  0
 19 47  1  0
 20 21  2  0
 20 48  1  0
 21 22  1  0
 21 49  1  0
 22 23  2  0
 22 50  1  0
 23 51  1  0
 24 52  1  0
 25 26  2  0
 25 30  1  0
 26 27  1  0
 26 53  1  0
 27 28  2  0
 27 54  1  0
 28 29  1  0
 29 30  2  0
 29 55  1  0
 30 56  1  0
 31 57  1  6
 31 58  1  0
 31 59  1  0
M  CHG  1  12   1
M  END
>  <s_epik_cmdline>  (73) 
J2VwaWtfcHl0aG9uJywgJy1waCcsICc3LjAwMDAwMCcsICctcGh0JywgJzIuMDAwMDAwJywgJy1tcycsICcxNicsICctdG4nLCAnOCcsICctbWEnLCAnMjAwJywgJy1pbWFlJywgJzxpbmZpbGUubWFlPicsICctb21hZScsICc8b3V0ZmlsZS5tYWU+Jw==

>  <s_epik_input>  (73) 
W2NIXTFbY0hdYyhbQ0gzXSlbY0hdW2NIXWMxW0NAQF0oW0NIM10pKFtDSDJdW09IXSlbQ0gyXVtOSF1bQ0gyXWMyYygtYzNbY0hdW2NIXW5bY0hdW2NIXTMpbm4oW2NIXTIpLWM0W2NIXVtjSF1bY0hdW2NIXVtjSF00

>  <s_i_glide_gridfile>  (73) 
ATP-Grid

>  <s_lp_Force_Field>  (73) 
OPLS_2005

>  <s_lp_Variant>  (73) 
m_270004bbb____21537754____7547806-1

>  <s_lp_label>  (73) 
1826_sdstereoexpander_1_neutralizer_1_epik_1_stereoizer_1

>  <s_m_source_file>  (73) 
ATP-VSW-LIGPREP-002-in.maegz

>  <s_sd_BIOSOLVEIT.INFINISEE\_QUERY\_NAME>  (73) 
Ref-Lig

>  <s_sd_BIOSOLVEIT.INFINISEE\_QUERY\_SMILES>  (73) 
S(c1nc2c(cc1C[NH2+]Cc3ccc(cc3)C[NH+](C)C)cccc2)Cc4ccccc4

>  <s_sd_BIOSOLVEIT.INFINISEE\_REACTION\_NAME>  (73) 
m_270004bbb

>  <s_sd_BIOSOLVEIT.INFINISEE\_REAGENT1\_SMILES>  (73) 
[R1*]NCC(c1ccc(cc1)C)(CO)C

>  <s_sd_BIOSOLVEIT.INFINISEE\_REAGENT2\_SMILES>  (73) 
[R1*]CC=1C(=NN(c2ccccc2)C1)c3ccncc3

>  <s_sd_BIOSOLVEIT.INFINISEE\_SPACE>  (73) 
REALSpace_44bn_2023-08

>  <s_vsw_compound_code>  (73) 
58402

>  <s_vsw_variant>  (73) 
58402-1

>  <r_epik_Charging_Adjusted_Penalty>  (73) 
0.013606194125781399

>  <r_epik_Ionization_Penalty>  (73) 
0.0115

>  <r_epik_Ionization_Penalty_Charging>  (73) 
0.0067999999999999996

>  <r_epik_Ionization_Penalty_Neutral>  (73) 
0.0047000000000000002

>  <r_epik_State_Penalty>  (73) 
0.0067999999999999996

>  <r_i_docking_score>  (73) 
-5.0049672249470198

>  <r_i_glide_ecoul>  (73) 
-9.0298023223877006

>  <r_i_glide_eff_state_penalty>  (73) 
0.0067999999999999996

>  <r_i_glide_einternal>  (73) 
3.2867057323455802

>  <r_i_glide_emodel>  (73) 
-62.6638864710403

>  <r_i_glide_energy>  (73) 
-44.4648532867432

>  <r_i_glide_erotb>  (73) 
0.92294196916349502

>  <r_i_glide_esite>  (73) 
-0.084168512550482702

>  <r_i_glide_evdw>  (73) 
-35.435050964355497

>  <r_i_glide_gscore>  (73) 
-5.01176722494702

>  <r_i_glide_hbond>  (73) 
0

>  <r_i_glide_ligand_efficiency>  (73) 
-0.16145055564345201

>  <r_i_glide_ligand_efficiency_ln>  (73) 
-1.1287734930502999

>  <r_i_glide_ligand_efficiency_sa>  (73) 
-0.50717765123563396

>  <r_i_glide_lipo>  (73) 
-1.9097813758932001

>  <r_i_glide_metal>  (73) 
-0

>  <r_i_glide_rewards>  (73) 
-0.81453640909090796

>  <r_lp_Energy>  (73) 
25.194051999999999

>  <r_lp_tautomer_probability>  (73) 
1

>  <r_qp_ACxDN^.5/SA>  (73) 
0.0108337

>  <r_qp_CIQPlogS>  (73) 
-5.5880000000000001

>  <r_qp_EA(eV)>  (73) 
0.73599999999999999

>  <r_qp_FISA>  (73) 
68.135999999999996

>  <r_qp_FOSA>  (73) 
212.554

>  <r_qp_IP(eV)>  (73) 
8.9540000000000006

>  <r_qp_Jm>  (73) 
0.0067397036420224904

>  <r_qp_PISA>  (73) 
463.375

>  <r_qp_PSA>  (73) 
59.119999999999997

>  <r_qp_PercentHumanOralAbsorption>  (73) 
100

>  <r_qp_QPPCaco>  (73) 
558.03800000000001

>  <r_qp_QPPMDCK>  (73) 
291.34199999999998

>  <r_qp_QPlogBB>  (73) 
-0.16800000000000001

>  <r_qp_QPlogHERG>  (73) 
-7.6900000000000004

>  <r_qp_QPlogKhsa>  (73) 
0.86699999999999999

>  <r_qp_QPlogKp>  (73) 
-2.5329999999999999

>  <r_qp_QPlogPC16>  (73) 
15.167999999999999

>  <r_qp_QPlogPo/w>  (73) 
4.8680000000000003

>  <r_qp_QPlogPoct>  (73) 
22.382999999999999

>  <r_qp_QPlogPw>  (73) 
12.125

>  <r_qp_QPlogS>  (73) 
-5.2530000000000001

>  <r_qp_QPpolrz>  (73) 
48.515999999999998

>  <r_qp_SASA>  (73) 
744.06600000000003

>  <r_qp_SAamideO>  (73) 
0

>  <r_qp_SAfluorine>  (73) 
0

>  <r_qp_WPSA>  (73) 
0

>  <r_qp_accptHB>  (73) 
5.7000000000000002

>  <r_qp_dip^2/V>  (73) 
0.0227166

>  <r_qp_dipole>  (73) 
5.5739999999999998

>  <r_qp_donorHB>  (73) 
2

>  <r_qp_glob>  (73) 
0.80088720000000002

>  <r_qp_mol_MW>  (73) 
412.53300000000002

>  <r_qp_volume>  (73) 
1367.8119999999999

>  <r_sd_BIOSOLVEIT.INFINISEE\_FTREES\_SIMILARITY>  (73) 
0.90400000000000003

>  <r_sd_BIOSOLVEIT.LOGP>  (73) 
3.2563200000000001

>  <r_sd_BIOSOLVEIT.MOLECULAR\_WEIGHT>  (73) 
413.54199999999997

>  <r_sd_BIOSOLVEIT.TPSA>  (73) 
67.549999999999997

>  <i_epik_Tot_Q>  (73) 
1

>  <i_epik_Tot_abs_Q>  (73) 
1

>  <i_f3d_flags>  (73) 
0

>  <i_i_glide_confnum>  (73) 
4

>  <i_i_glide_lignum>  (73) 
645

>  <i_i_glide_posenum>  (73) 
15

>  <i_i_glide_rotatable_bonds>  (73) 
9

>  <i_lp_mmshare_version>  (73) 
65135

>  <i_m_ct_format>  (73) 
2

>  <i_m_source_file_index>  (73) 
1826

>  <i_qp_#NandO>  (73) 
5

>  <i_qp_#acid>  (73) 
0

>  <i_qp_#amide>  (73) 
0

>  <i_qp_#amidine>  (73) 
0

>  <i_qp_#amine>  (73) 
1

>  <i_qp_#in34>  (73) 
0

>  <i_qp_#in56>  (73) 
23

>  <i_qp_#metab>  (73) 
6

>  <i_qp_#nonHatm>  (73) 
31

>  <i_qp_#noncon>  (73) 
0

>  <i_qp_#ringatoms>  (73) 
23

>  <i_qp_#rotor>  (73) 
7

>  <i_qp_#rtvFG>  (73) 
0

>  <i_qp_#stars>  (73) 
1

>  <i_qp_CNS>  (73) 
1

>  <i_qp_HumanOralAbsorption>  (73) 
3

>  <i_qp_RuleOfFive>  (73) 
0

>  <i_qp_RuleOfThree>  (73) 
0

>  <i_sd_BIOSOLVEIT.INFINISEE\_REAGENT1\_NAME>  (73) 
21537754

>  <i_sd_BIOSOLVEIT.INFINISEE\_REAGENT2\_NAME>  (73) 
7547806

>  <i_sd_BIOSOLVEIT.INFINISEE\_RESULT\_RANK>  (73) 
79528

>  <i_sd_version>  (73) 
0

>  <b_lp_Chiralities_Consistent>  (73) 
1

>  <b_sd_chiral_flag>  (73) 
0

>  <canonical_id>  (73) 
ATP-HTVS-0C40F7CB6A92

>  <compound_code>  (73) 
58402

>  <title>  (73) 
m_270004bbb____21537754____7547806

>  <variant>  (73) 
58402-1

>  <source_file>  (73) 
运行/运行/ATP-VSW/ATP-VSW-DOCK_HTVS_1-002_lib.maegz

>  <canonical_smiles>  (73) 
Cc1ccc([C@@](C)(CO)C[NH2+]Cc2cn(-c3ccccc3)nc2-c2ccncc2)cc1

>  <scaffold>  (73) 
c1ccc(CC[NH2+]Cc2cn(-c3ccccc3)nc2-c2ccncc2)cc1

>  <molecular_formula>  (73) 
C26H29N4O+

$$$$
ATP-HTVS-0C765FB89CD3
     RDKit          3D

 69 72  0  0  0  0  0  0  0  0999 V2000
  199.3629  175.4668  150.6007 O   0  0  0  0  0  0  0  0  0  0  0  0
  198.9397  175.9785  149.5693 N   0  0  0  0  0  0  0  0  0  0  0  0
  198.9782  175.4386  148.4692 O   0  0  0  0  0  0  0  0  0  0  0  0
  198.3457  177.3232  149.6484 C   0  0  0  0  0  0  0  0  0  0  0  0
  198.6223  178.1742  150.7438 C   0  0  0  0  0  0  0  0  0  0  0  0
  198.0637  179.4701  150.8177 C   0  0  0  0  0  0  0  0  0  0  0  0
  197.1871  179.9019  149.8041 C   0  0  0  0  0  0  0  0  0  0  0  0
  196.8928  179.0602  148.7138 C   0  0  0  0  0  0  0  0  0  0  0  0
  197.4839  177.7840  148.6255 C   0  0  0  0  0  0  0  0  0  0  0  0
  198.4007  180.3957  151.9800 C   0  0  1  0  0  0  0  0  0  0  0  0
  197.1625  180.7698  152.8303 C   0  0  1  0  0  0  0  0  0  0  0  0
  197.4769  181.4491  154.0913 N   0  0  0  0  0  0  0  0  0  0  0  0
  198.3401  180.7763  154.9817 C   0  0  0  0  0  0  0  0  0  0  0  0
  198.5280  179.4661  154.7138 N   0  0  0  0  0  0  0  0  0  0  0  0
  199.3958  178.7807  155.5134 C   0  0  0  0  0  0  0  0  0  0  0  0
  200.0923  179.4251  156.5727 C   0  0  0  0  0  0  0  0  0  0  0  0
  199.9206  180.7456  156.8019 N   0  0  0  0  0  0  0  0  0  0  0  0
  199.0265  181.4187  156.0433 C   0  0  0  0  0  0  0  0  0  0  0  0
  198.8433  182.7781  156.3309 N   0  0  0  0  0  0  0  0  0  0  0  0
  199.1075  183.2877  157.6804 C   0  0  1  0  0  0  0  0  0  0  0  0
  197.9327  184.0077  158.3111 C   0  0  0  0  0  0  0  0  0  0  0  0
  197.8116  185.4038  158.1787 C   0  0  0  0  0  0  0  0  0  0  0  0
  196.7818  186.0985  158.8475 C   0  0  0  0  0  0  0  0  0  0  0  0
  195.8405  185.3817  159.6154 C   0  0  0  0  0  0  0  0  0  0  0  0
  195.9415  183.9824  159.7296 C   0  0  0  0  0  0  0  0  0  0  0  0
  196.9905  183.2959  159.0861 C   0  0  0  0  0  0  0  0  0  0  0  0
  196.6836  187.6083  158.7376 C   0  0  1  0  0  0  0  0  0  0  0  0
  197.4629  188.3012  159.8038 N   0  0  1  0  0  0  0  0  0  0  0  0
  198.9423  188.1810  159.6728 C   0  0  1  0  0  0  0  0  0  0  0  0
  199.5239  188.8109  158.3933 C   0  0  2  0  0  0  0  0  0  0  0  0
  197.0143  189.6967  160.0160 C   0  0  2  0  0  0  0  0  0  0  0  0
  200.9615  178.6666  157.3808 C   0  0  0  0  0  0  0  0  0  0  0  0
  201.1640  177.3004  157.1179 C   0  0  0  0  0  0  0  0  0  0  0  0
  200.5223  176.6771  156.0398 C   0  0  0  0  0  0  0  0  0  0  0  0
  199.6403  177.4202  155.2431 C   0  0  0  0  0  0  0  0  0  0  0  0
  196.3392  182.0812  154.7516 C   0  0  2  0  0  0  0  0  0  0  0  0
  199.2840  177.8304  151.5253 H   0  0  0  0  0  0  0  0  0  0  0  0
  196.7481  180.8857  149.8555 H   0  0  0  0  0  0  0  0  0  0  0  0
  196.2201  179.3970  147.9383 H   0  0  0  0  0  0  0  0  0  0  0  0
  197.2557  177.1477  147.7802 H   0  0  0  0  0  0  0  0  0  0  0  0
  199.1440  179.8934  152.6106 H   0  0  0  0  0  0  0  0  0  0  0  0
  198.8636  181.3025  151.5684 H   0  0  0  0  0  0  0  0  0  0  0  0
  196.4770  181.3832  152.2408 H   0  0  0  0  0  0  0  0  0  0  0  0
  196.5907  179.8765  153.0638 H   0  0  0  0  0  0  0  0  0  0  0  0
  198.0748  183.2032  155.8473 H   0  0  0  0  0  0  0  0  0  0  0  0
  199.3843  182.5051  158.3822 H   0  0  0  0  0  0  0  0  0  0  0  0
  199.9637  183.9637  157.6338 H   0  0  0  0  0  0  0  0  0  0  0  0
  198.5362  185.9340  157.5792 H   0  0  0  0  0  0  0  0  0  0  0  0
  195.0321  185.8985  160.1129 H   0  0  0  0  0  0  0  0  0  0  0  0
  195.2148  183.4376  160.3132 H   0  0  0  0  0  0  0  0  0  0  0  0
  197.0708  182.2237  159.1996 H   0  0  0  0  0  0  0  0  0  0  0  0
  196.9906  187.9341  157.7436 H   0  0  0  0  0  0  0  0  0  0  0  0
  195.6270  187.8683  158.8196 H   0  0  0  0  0  0  0  0  0  0  0  0
  199.4088  188.6565  160.5367 H   0  0  0  0  0  0  0  0  0  0  0  0
  199.2387  187.1347  159.7320 H   0  0  0  0  0  0  0  0  0  0  0  0
  200.6148  188.7793  158.4155 H   0  0  0  0  0  0  0  0  0  0  0  0
  199.2407  189.8579  158.2825 H   0  0  0  0  0  0  0  0  0  0  0  0
  199.2056  188.2768  157.4964 H   0  0  0  0  0  0  0  0  0  0  0  0
  197.2435  190.3277  159.1576 H   0  0  0  0  0  0  0  0  0  0  0  0
  197.4998  190.1196  160.8989 H   0  0  0  0  0  0  0  0  0  0  0  0
  195.9360  189.7432  160.1706 H   0  0  0  0  0  0  0  0  0  0  0  0
  201.4776  179.1445  158.1970 H   0  0  0  0  0  0  0  0  0  0  0  0
  201.8456  176.7216  157.7203 H   0  0  0  0  0  0  0  0  0  0  0  0
  200.6952  175.6314  155.8242 H   0  0  0  0  0  0  0  0  0  0  0  0
  199.1580  176.9577  154.3987 H   0  0  0  0  0  0  0  0  0  0  0  0
  196.4906  182.3325  155.8043 H   0  0  0  0  0  0  0  0  0  0  0  0
  195.5029  181.3911  154.7425 H   0  0  0  0  0  0  0  0  0  0  0  0
  196.0603  182.9924  154.2159 H   0  0  0  0  0  0  0  0  0  0  0  0
  197.2319  187.8222  160.6621 H   0  0  0  0  0  0  0  0  0  0  0  0
  1  2  1  0
  2  3  2  0
  2  4  1  0
  4  5  2  0
  4  9  1  0
  5  6  1  0
  5 37  1  0
  6  7  2  0
  6 10  1  0
  7  8  1  0
  7 38  1  0
  8  9  2  0
  8 39  1  0
  9 40  1  0
 10 11  1  0
 10 41  1  1
 10 42  1  0
 11 12  1  0
 11 43  1  6
 11 44  1  0
 12 13  1  0
 12 36  1  0
 13 14  2  0
 13 18  1  0
 14 15  1  0
 15 16  1  0
 15 35  2  0
 16 17  1  0
 16 32  2  0
 17 18  2  0
 18 19  1  0
 19 20  1  0
 19 45  1  0
 20 21  1  0
 20 46  1  1
 20 47  1  0
 21 22  2  0
 21 26  1  0
 22 23  1  0
 22 48  1  0
 23 24  2  0
 23 27  1  0
 24 25  1  0
 24 49  1  0
 25 26  2  0
 25 50  1  0
 26 51  1  0
 27 28  1  0
 27 52  1  6
 27 53  1  0
 28 29  1  0
 28 31  1  0
 28 69  1  1
 29 30  1  0
 29 54  1  1
 29 55  1  0
 30 56  1  1
 30 57  1  0
 30 58  1  0
 31 59  1  6
 31 60  1  0
 31 61  1  0
 32 33  1  0
 32 62  1  0
 33 34  2  0
 33 63  1  0
 34 35  1  0
 34 64  1  0
 35 65  1  0
 36 66  1  1
 36 67  1  0
 36 68  1  0
M  CHG  3   1  -1   2   1  28   1
M  END
>  <s_epik_cmdline>  (74) 
J2VwaWtfcHl0aG9uJywgJy1waCcsICc3LjAwMDAwMCcsICctcGh0JywgJzIuMDAwMDAwJywgJy1tcycsICcxNicsICctdG4nLCAnOCcsICctbWEnLCAnMjAwJywgJy1pbWFlJywgJzxpbmZpbGUubWFlPicsICctb21hZScsICc8b3V0ZmlsZS5tYWU+Jw==

>  <s_epik_input>  (74) 
W08tXVtOK10oPU8pYzFbY0hdYyhbY0hdW2NIXVtjSF0xKVtDSDJdW0NIMl1OKFtDSDNdKWMobjIpYyhuYyhjMjMpW2NIXVtjSF1bY0hdW2NIXTMpW05IXVtDSDJdYzRbY0hdYyhbY0hdW2NIXVtjSF00KVtDSDJdTihbQ0gzXSlbQ0gyXVtDSDNd

>  <s_i_glide_gridfile>  (74) 
ATP-Grid

>  <s_lp_Force_Field>  (74) 
OPLS_2005

>  <s_lp_Variant>  (74) 
m_282030aaa____21898568____23157418____21950844-1

>  <s_lp_label>  (74) 
1253_sdstereoexpander_1_neutralizer_1_epik_1_stereoizer_1

>  <s_m_source_file>  (74) 
ATP-VSW-LIGPREP-001-in.maegz

>  <s_sd_BIOSOLVEIT.INFINISEE\_QUERY\_NAME>  (74) 
Ref-Lig

>  <s_sd_BIOSOLVEIT.INFINISEE\_QUERY\_SMILES>  (74) 
S(c1nc2c(cc1C[NH2+]Cc3ccc(cc3)C[NH+](C)C)cccc2)Cc4ccccc4

>  <s_sd_BIOSOLVEIT.INFINISEE\_REACTION\_NAME>  (74) 
m_282030aaa

>  <s_sd_BIOSOLVEIT.INFINISEE\_REAGENT1\_SMILES>  (74) 
[R1*]N(CCc1cc([N+]([O-])=O)ccc1)C

>  <s_sd_BIOSOLVEIT.INFINISEE\_REAGENT2\_SMILES>  (74) 
[R1*]c1nc2c(nc1[R2*])cccc2

>  <s_sd_BIOSOLVEIT.INFINISEE\_REAGENT3\_SMILES>  (74) 
[R2*]NCc1cc(ccc1)CN(CC)C

>  <s_sd_BIOSOLVEIT.INFINISEE\_SPACE>  (74) 
REALSpace_44bn_2023-08

>  <s_vsw_compound_code>  (74) 
40065

>  <s_vsw_variant>  (74) 
40065-1

>  <r_epik_Charging_Adjusted_Penalty>  (74) 
0.056406653991654697

>  <r_epik_Ionization_Penalty>  (74) 
0.028899999999999999

>  <r_epik_Ionization_Penalty_Charging>  (74) 
0.028199999999999999

>  <r_epik_Ionization_Penalty_Neutral>  (74) 
0.00069999999999999999

>  <r_epik_State_Penalty>  (74) 
0.028199999999999999

>  <r_i_docking_score>  (74) 
-4.1118270542690603

>  <r_i_glide_ecoul>  (74) 
-3.74199271202087

>  <r_i_glide_eff_state_penalty>  (74) 
0.028199999999999999

>  <r_i_glide_einternal>  (74) 
4.7828350067138699

>  <r_i_glide_emodel>  (74) 
-55.551158537215102

>  <r_i_glide_energy>  (74) 
-44.300040960311897

>  <r_i_glide_erotb>  (74) 
0.775403636409006

>  <r_i_glide_esite>  (74) 
-0.019595868894732599

>  <r_i_glide_evdw>  (74) 
-40.558048248291001

>  <r_i_glide_gscore>  (74) 
-4.1400270542690603

>  <r_i_glide_hbond>  (74) 
0

>  <r_i_glide_ligand_efficiency>  (74) 
-0.11421741817414099

>  <r_i_glide_ligand_efficiency_ln>  (74) 
-0.89708957451238702

>  <r_i_glide_ligand_efficiency_sa>  (74) 
-0.37713760491709403

>  <r_i_glide_lipo>  (74) 
-1.9743050371209201

>  <r_i_glide_metal>  (74) 
-0

>  <r_i_glide_rewards>  (74) 
-0.33232846544473599

>  <r_lp_Energy>  (74) 
32.211042999999997

>  <r_qp_ACxDN^.5/SA>  (74) 
0.0083417999999999999

>  <r_qp_CIQPlogS>  (74) 
-6.9500000000000002

>  <r_qp_EA(eV)>  (74) 
1.21

>  <r_qp_FISA>  (74) 
121.048

>  <r_qp_FOSA>  (74) 
281.47500000000002

>  <r_qp_IP(eV)>  (74) 
8.8279999999999994

>  <r_qp_Jm>  (74) 
0.0082522020853823506

>  <r_qp_PISA>  (74) 
316.74799999999999

>  <r_qp_PSA>  (74) 
81.599999999999994

>  <r_qp_PercentHumanOralAbsorption>  (74) 
96.218999999999994

>  <r_qp_QPPCaco>  (74) 
175.75299999999999

>  <r_qp_QPPMDCK>  (74) 
83.572000000000003

>  <r_qp_QPlogBB>  (74) 
-0.78000000000000003

>  <r_qp_QPlogHERG>  (74) 
-5.9530000000000003

>  <r_qp_QPlogKhsa>  (74) 
0.95899999999999996

>  <r_qp_QPlogKp>  (74) 
-3.641

>  <r_qp_QPlogPC16>  (74) 
14.936999999999999

>  <r_qp_QPlogPo/w>  (74) 
4.9690000000000003

>  <r_qp_QPlogPoct>  (74) 
21.298999999999999

>  <r_qp_QPlogPw>  (74) 
9.3759999999999994

>  <r_qp_QPlogS>  (74) 
-4.1280000000000001

>  <r_qp_QPpolrz>  (74) 
48.203000000000003

>  <r_qp_SASA>  (74) 
719.26999999999998

>  <r_qp_SAamideO>  (74) 
0

>  <r_qp_SAfluorine>  (74) 
0

>  <r_qp_WPSA>  (74) 
0

>  <r_qp_accptHB>  (74) 
6

>  <r_qp_dip^2/V>  (74) 
0.030493699999999999

>  <r_qp_dipole>  (74) 
6.6699999999999999

>  <r_qp_donorHB>  (74) 
1

>  <r_qp_glob>  (74) 
0.86497979999999997

>  <r_qp_mol_MW>  (74) 
484.60000000000002

>  <r_qp_volume>  (74) 
1459.1489999999999

>  <r_sd_BIOSOLVEIT.INFINISEE\_FTREES\_SIMILARITY>  (74) 
0.91100000000000003

>  <r_sd_BIOSOLVEIT.LOGP>  (74) 
3.8635999999999999

>  <r_sd_BIOSOLVEIT.MOLECULAR\_WEIGHT>  (74) 
485.60899999999998

>  <r_sd_BIOSOLVEIT.TPSA>  (74) 
91.310000000000002

>  <i_epik_Tot_Q>  (74) 
1

>  <i_epik_Tot_abs_Q>  (74) 
3

>  <i_f3d_flags>  (74) 
0

>  <i_i_glide_confnum>  (74) 
12

>  <i_i_glide_lignum>  (74) 
338

>  <i_i_glide_posenum>  (74) 
4

>  <i_i_glide_rotatable_bonds>  (74) 
11

>  <i_lp_mmshare_version>  (74) 
65135

>  <i_m_ct_format>  (74) 
2

>  <i_m_source_file_index>  (74) 
1253

>  <i_qp_#NandO>  (74) 
8

>  <i_qp_#acid>  (74) 
0

>  <i_qp_#amide>  (74) 
0

>  <i_qp_#amidine>  (74) 
0

>  <i_qp_#amine>  (74) 
1

>  <i_qp_#in34>  (74) 
0

>  <i_qp_#in56>  (74) 
22

>  <i_qp_#metab>  (74) 
5

>  <i_qp_#nonHatm>  (74) 
36

>  <i_qp_#noncon>  (74) 
0

>  <i_qp_#ringatoms>  (74) 
22

>  <i_qp_#rotor>  (74) 
11

>  <i_qp_#rtvFG>  (74) 
0

>  <i_qp_#stars>  (74) 
0

>  <i_qp_CNS>  (74) 
0

>  <i_qp_HumanOralAbsorption>  (74) 
3

>  <i_qp_RuleOfFive>  (74) 
0

>  <i_qp_RuleOfThree>  (74) 
0

>  <i_sd_BIOSOLVEIT.INFINISEE\_REAGENT1\_NAME>  (74) 
21898568

>  <i_sd_BIOSOLVEIT.INFINISEE\_REAGENT2\_NAME>  (74) 
23157418

>  <i_sd_BIOSOLVEIT.INFINISEE\_REAGENT3\_NAME>  (74) 
21950844

>  <i_sd_BIOSOLVEIT.INFINISEE\_RESULT\_RANK>  (74) 
43618

>  <i_sd_version>  (74) 
0

>  <b_lp_Chiralities_Consistent>  (74) 
1

>  <b_sd_chiral_flag>  (74) 
0

>  <canonical_id>  (74) 
ATP-HTVS-0C765FB89CD3

>  <compound_code>  (74) 
40065

>  <title>  (74) 
m_282030aaa____21898568____23157418____21950844

>  <variant>  (74) 
40065-1

>  <source_file>  (74) 
运行/运行/ATP-VSW/ATP-VSW-DOCK_HTVS_1-001_lib/ATP-VSW-DOCK_HTVS_1-001_lib

>  <canonical_smiles>  (74) 
CC[N@@H+](C)Cc1cccc(CNc2nc3ccccc3nc2N(C)CCc2cccc([N+](=O)[O-])c2)c1

>  <scaffold>  (74) 
c1ccc(CCNc2nc3ccccc3nc2NCc2ccccc2)cc1

>  <molecular_formula>  (74) 
C28H33N6O2+

$$$$
ATP-HTVS-0C924C2A1F00
     RDKit          3D

 60 63  0  0  0  0  0  0  0  0999 V2000
  197.9212  181.3854  156.8696 S   0  0  0  0  0  0  0  0  0  0  0  0
  196.6532  182.5499  156.3194 C   0  0  1  0  0  0  0  0  0  0  0  0
  197.1537  183.2665  155.0797 C   0  0  0  0  0  0  0  0  0  0  0  0
  197.1718  182.5762  153.8533 C   0  0  0  0  0  0  0  0  0  0  0  0
  197.6480  183.2128  152.6856 C   0  0  0  0  0  0  0  0  0  0  0  0
  198.0498  184.5655  152.7503 C   0  0  0  0  0  0  0  0  0  0  0  0
  198.0145  185.2646  153.9717 C   0  0  0  0  0  0  0  0  0  0  0  0
  197.5660  184.6138  155.1369 C   0  0  0  0  0  0  0  0  0  0  0  0
  197.6741  182.5026  151.3645 C   0  0  0  0  0  0  0  0  0  0  0  0
  197.5597  183.1498  150.3255 O   0  0  0  0  0  0  0  0  0  0  0  0
  197.9028  181.1770  151.4325 N   0  0  0  0  0  0  0  0  0  0  0  0
  198.1212  180.2305  150.3940 C   0  0  0  0  0  0  0  0  0  0  0  0
  198.4873  178.8992  150.7384 C   0  0  0  0  0  0  0  0  0  0  0  0
  198.6114  178.5142  152.0858 N   0  0  0  0  0  0  0  0  0  0  0  0
  199.8427  178.9424  152.7269 C   0  0  1  0  0  0  0  0  0  0  0  0
  200.3843  177.9143  153.7026 C   0  0  0  0  0  0  0  0  0  0  0  0
  199.7686  177.7056  154.9569 C   0  0  0  0  0  0  0  0  0  0  0  0
  200.3047  176.7629  155.8593 C   0  0  0  0  0  0  0  0  0  0  0  0
  201.4616  176.0215  155.5287 C   0  0  0  0  0  0  0  0  0  0  0  0
  201.9387  175.0721  156.4478 N   0  0  0  0  0  0  0  0  0  0  0  0
  203.1223  174.2655  156.1807 C   0  0  1  0  0  0  0  0  0  0  0  0
  202.8844  173.1769  155.1137 C   0  0  1  0  0  0  0  0  0  0  0  0
  204.1216  172.6373  154.7305 O   0  0  0  0  0  0  0  0  0  0  0  0
  202.0829  176.2618  154.2819 C   0  0  0  0  0  0  0  0  0  0  0  0
  201.5318  177.1750  153.3640 C   0  0  0  0  0  0  0  0  0  0  0  0
  198.7131  177.9506  149.7030 C   0  0  0  0  0  0  0  0  0  0  0  0
  198.5617  178.3623  148.3502 C   0  0  0  0  0  0  0  0  0  0  0  0
  198.2230  179.6293  148.0801 N   0  0  0  0  0  0  0  0  0  0  0  0
  198.0091  180.5601  149.0246 C   0  0  0  0  0  0  0  0  0  0  0  0
  198.7750  177.4769  147.2802 C   0  0  0  0  0  0  0  0  0  0  0  0
  199.1587  176.1531  147.5444 C   0  0  0  0  0  0  0  0  0  0  0  0
  199.3289  175.7249  148.8768 C   0  0  0  0  0  0  0  0  0  0  0  0
  199.1044  176.6101  149.9524 C   0  0  0  0  0  0  0  0  0  0  0  0
  197.0645  180.5312  157.4581 H   0  0  0  0  0  0  0  0  0  0  0  0
  195.7469  181.9947  156.0814 H   0  0  0  0  0  0  0  0  0  0  0  0
  196.4129  183.2576  157.1128 H   0  0  0  0  0  0  0  0  0  0  0  0
  196.8064  181.5606  153.8339 H   0  0  0  0  0  0  0  0  0  0  0  0
  198.3860  185.0771  151.8585 H   0  0  0  0  0  0  0  0  0  0  0  0
  198.3189  186.3055  154.0056 H   0  0  0  0  0  0  0  0  0  0  0  0
  197.5394  185.1554  156.0713 H   0  0  0  0  0  0  0  0  0  0  0  0
  197.9723  180.7936  152.3719 H   0  0  0  0  0  0  0  0  0  0  0  0
  198.4290  177.5387  152.2709 H   0  0  0  0  0  0  0  0  0  0  0  0
  200.6132  179.1626  151.9839 H   0  0  0  0  0  0  0  0  0  0  0  0
  199.6673  179.8604  153.2835 H   0  0  0  0  0  0  0  0  0  0  0  0
  198.8834  178.2618  155.2399 H   0  0  0  0  0  0  0  0  0  0  0  0
  199.8112  176.6176  156.8130 H   0  0  0  0  0  0  0  0  0  0  0  0
  201.5088  175.0218  157.3616 H   0  0  0  0  0  0  0  0  0  0  0  0
  203.9297  174.9349  155.8891 H   0  0  0  0  0  0  0  0  0  0  0  0
  203.4498  173.8049  157.1165 H   0  0  0  0  0  0  0  0  0  0  0  0
  202.2466  172.3782  155.4634 H   0  0  0  0  0  0  0  0  0  0  0  0
  202.4424  173.5496  154.1924 H   0  0  0  0  0  0  0  0  0  0  0  0
  203.9515  171.7285  154.4612 H   0  0  0  0  0  0  0  0  0  0  0  0
  202.9905  175.7551  153.9854 H   0  0  0  0  0  0  0  0  0  0  0  0
  202.0119  177.3094  152.4046 H   0  0  0  0  0  0  0  0  0  0  0  0
  197.7428  181.5273  148.6253 H   0  0  0  0  0  0  0  0  0  0  0  0
  198.6510  177.7936  146.2496 H   0  0  0  0  0  0  0  0  0  0  0  0
  199.3418  175.4698  146.7272 H   0  0  0  0  0  0  0  0  0  0  0  0
  199.6376  174.7039  149.0646 H   0  0  0  0  0  0  0  0  0  0  0  0
  199.2596  176.2485  150.9584 H   0  0  0  0  0  0  0  0  0  0  0  0
  198.1285  179.9017  147.1002 H   0  0  0  0  0  0  0  0  0  0  0  0
  1  2  1  0
  1 34  1  0
  2  3  1  0
  2 35  1  6
  2 36  1  0
  3  4  1  0
  3  8  2  0
  4  5  2  0
  4 37  1  0
  5  6  1  0
  5  9  1  0
  6  7  2  0
  6 38  1  0
  7  8  1  0
  7 39  1  0
  8 40  1  0
  9 10  2  0
  9 11  1  0
 11 12  1  0
 11 41  1  0
 12 13  2  0
 12 29  1  0
 13 14  1  0
 13 26  1  0
 14 15  1  0
 14 42  1  0
 15 16  1  0
 15 43  1  6
 15 44  1  0
 16 17  1  0
 16 25  2  0
 17 18  2  0
 17 45  1  0
 18 19  1  0
 18 46  1  0
 19 20  1  0
 19 24  2  0
 20 21  1  0
 20 47  1  0
 21 22  1  0
 21 48  1  6
 21 49  1  0
 22 23  1  0
 22 50  1  1
 22 51  1  0
 23 52  1  0
 24 25  1  0
 24 53  1  0
 25 54  1  0
 26 27  1  0
 26 33  2  0
 27 28  1  0
 27 30  2  0
 28 29  2  0
 28 60  1  0
 29 55  1  0
 30 31  1  0
 30 56  1  0
 31 32  2  0
 31 57  1  0
 32 33  1  0
 32 58  1  0
 33 59  1  0
M  CHG  1  28   1
M  END
>  <s_epik_cmdline>  (75) 
J2VwaWtfcHl0aG9uJywgJy1waCcsICc3LjAwMDAwMCcsICctcGh0JywgJzIuMDAwMDAwJywgJy1tcycsICcxNicsICctdG4nLCAnOCcsICctbWEnLCAnMjAwJywgJy1pbWFlJywgJzxpbmZpbGUubWFlPicsICctb21hZScsICc8b3V0ZmlsZS5tYWU+Jw==

>  <s_epik_input>  (75) 
W1NIXVtDSDJdYzFbY0hdYyhbY0hdW2NIXVtjSF0xKUMoPU8pW05IXWMoW2NIXW5jKGMyMylbY0hdW2NIXVtjSF1bY0hdMyljMltOSF1bQ0gyXWM0W2NIXVtjSF1jKFtjSF1bY0hdNClbTkhdW0NIMl1bQ0gyXVtPSF0=

>  <s_i_glide_gridfile>  (75) 
ATP-Grid

>  <s_lp_Force_Field>  (75) 
OPLS_2005

>  <s_lp_Variant>  (75) 
rxn502b____EMOL31406107____EMOL30488121____EMOL324170366-1

>  <s_lp_label>  (75) 
2581_sdstereoexpander_1_neutralizer_1_epik_1_stereoizer_1

>  <s_m_source_file>  (75) 
ATP-VSW-LIGPREP-003-in.maegz

>  <s_sd_BIOSOLVEIT.INFINISEE\_QUERY\_NAME>  (75) 
Ref-Lig

>  <s_sd_BIOSOLVEIT.INFINISEE\_QUERY\_SMILES>  (75) 
S(c1nc2c(cc1C[NH2+]Cc3ccc(cc3)C[NH+](C)C)cccc2)Cc4ccccc4

>  <s_sd_BIOSOLVEIT.INFINISEE\_REACTION\_NAME>  (75) 
rxn502b

>  <s_sd_BIOSOLVEIT.INFINISEE\_REAGENT1\_NAME>  (75) 
EMOL31406107

>  <s_sd_BIOSOLVEIT.INFINISEE\_REAGENT1\_SMILES>  (75) 
SCc1cc(ccc1)C(=O)O

>  <s_sd_BIOSOLVEIT.INFINISEE\_REAGENT2\_NAME>  (75) 
EMOL30488121

>  <s_sd_BIOSOLVEIT.INFINISEE\_REAGENT2\_SMILES>  (75) 
Brc1c(N)cnc2c1cccc2

>  <s_sd_BIOSOLVEIT.INFINISEE\_REAGENT3\_NAME>  (75) 
EMOL324170366

>  <s_sd_BIOSOLVEIT.INFINISEE\_REAGENT3\_SMILES>  (75) 
OCCNc1ccc(cc1)CN

>  <s_sd_BIOSOLVEIT.INFINISEE\_SPACE>  (75) 
eXplore_7tr_2022-12

>  <s_vsw_compound_code>  (75) 
82563

>  <s_vsw_variant>  (75) 
82563-1

>  <r_epik_Charging_Adjusted_Penalty>  (75) 
0.17238959118765801

>  <r_epik_Ionization_Penalty>  (75) 
0.097500000000000003

>  <r_epik_Ionization_Penalty_Charging>  (75) 
0.081100000000000005

>  <r_epik_Ionization_Penalty_Neutral>  (75) 
0.016400000000000001

>  <r_epik_State_Penalty>  (75) 
0.091300000000000006

>  <r_i_docking_score>  (75) 
-3.96699931810985

>  <r_i_glide_ecoul>  (75) 
-9.8029356002807599

>  <r_i_glide_eff_state_penalty>  (75) 
0.091300000000000006

>  <r_i_glide_einternal>  (75) 
4.1080894470214799

>  <r_i_glide_emodel>  (75) 
-54.960193564648897

>  <r_i_glide_energy>  (75) 
-42.204607963561998

>  <r_i_glide_erotb>  (75) 
0.95265485590460297

>  <r_i_glide_esite>  (75) 
-0.062267578468803202

>  <r_i_glide_evdw>  (75) 
-32.4016723632812

>  <r_i_glide_gscore>  (75) 
-4.0582993181098503

>  <r_i_glide_hbond>  (75) 
-0.30399999999999999

>  <r_i_glide_ligand_efficiency>  (75) 
-0.12021210054878299

>  <r_i_glide_ligand_efficiency_ln>  (75) 
-0.88224010832444

>  <r_i_glide_ligand_efficiency_sa>  (75) 
-0.385584438941733

>  <r_i_glide_lipo>  (75) 
-1.27050094643873

>  <r_i_glide_metal>  (75) 
-0

>  <r_i_glide_rewards>  (75) 
-0.283661690900741

>  <r_lp_Energy>  (75) 
37.692383999999997

>  <r_qp_ACxDN^.5/SA>  (75) 
0.022417599999999999

>  <r_qp_CIQPlogS>  (75) 
-6.4720000000000004

>  <r_qp_EA(eV)>  (75) 
0.94599999999999995

>  <r_qp_FISA>  (75) 
141.184

>  <r_qp_FOSA>  (75) 
156.41200000000001

>  <r_qp_IP(eV)>  (75) 
8.4280000000000008

>  <r_qp_Jm>  (75) 
0.042802312420146697

>  <r_qp_PISA>  (75) 
378.947

>  <r_qp_PSA>  (75) 
92.832999999999998

>  <r_qp_PercentHumanOralAbsorption>  (75) 
100

>  <r_qp_QPPCaco>  (75) 
454.00099999999998

>  <r_qp_QPPMDCK>  (75) 
549.42899999999997

>  <r_qp_QPlogBB>  (75) 
-1.3819999999999999

>  <r_qp_QPlogHERG>  (75) 
-6.5670000000000002

>  <r_qp_QPlogKhsa>  (75) 
0.21199999999999999

>  <r_qp_QPlogKp>  (75) 
-1.73

>  <r_qp_QPlogPC16>  (75) 
16.466999999999999

>  <r_qp_QPlogPo/w>  (75) 
3.9260000000000002

>  <r_qp_QPlogPoct>  (75) 
27.318999999999999

>  <r_qp_QPlogPw>  (75) 
17.283000000000001

>  <r_qp_QPlogS>  (75) 
-5.2990000000000004

>  <r_qp_QPpolrz>  (75) 
46.037999999999997

>  <r_qp_SASA>  (75) 
752.52700000000004

>  <r_qp_SAamideO>  (75) 
0

>  <r_qp_SAfluorine>  (75) 
0

>  <r_qp_WPSA>  (75) 
75.983999999999995

>  <r_qp_accptHB>  (75) 
7.7000000000000002

>  <r_qp_dip^2/V>  (75) 
0.0356263

>  <r_qp_dipole>  (75) 
7.0380000000000003

>  <r_qp_donorHB>  (75) 
4.7999999999999998

>  <r_qp_glob>  (75) 
0.80050750000000004

>  <r_qp_mol_MW>  (75) 
458.577

>  <r_qp_volume>  (75) 
1390.2190000000001

>  <r_sd_BIOSOLVEIT.INFINISEE\_FTREES\_SIMILARITY>  (75) 
0.91200000000000003

>  <r_sd_BIOSOLVEIT.LOGP>  (75) 
5.3133999999999997

>  <r_sd_BIOSOLVEIT.MOLECULAR\_WEIGHT>  (75) 
458.58199999999999

>  <r_sd_BIOSOLVEIT.TPSA>  (75) 
86.280000000000001

>  <i_epik_Tot_Q>  (75) 
1

>  <i_epik_Tot_abs_Q>  (75) 
1

>  <i_f3d_flags>  (75) 
0

>  <i_i_glide_confnum>  (75) 
18

>  <i_i_glide_lignum>  (75) 
1160

>  <i_i_glide_posenum>  (75) 
18

>  <i_i_glide_rotatable_bonds>  (75) 
12

>  <i_lp_mmshare_version>  (75) 
65135

>  <i_m_ct_format>  (75) 
2

>  <i_m_source_file_index>  (75) 
2581

>  <i_qp_#NandO>  (75) 
6

>  <i_qp_#acid>  (75) 
0

>  <i_qp_#amide>  (75) 
0

>  <i_qp_#amidine>  (75) 
0

>  <i_qp_#amine>  (75) 
0

>  <i_qp_#in34>  (75) 
0

>  <i_qp_#in56>  (75) 
22

>  <i_qp_#metab>  (75) 
9

>  <i_qp_#nonHatm>  (75) 
33

>  <i_qp_#noncon>  (75) 
0

>  <i_qp_#ringatoms>  (75) 
22

>  <i_qp_#rotor>  (75) 
11

>  <i_qp_#rtvFG>  (75) 
1

>  <i_qp_#stars>  (75) 
1

>  <i_qp_CNS>  (75) 
-2

>  <i_qp_HumanOralAbsorption>  (75) 
3

>  <i_qp_RuleOfFive>  (75) 
0

>  <i_qp_RuleOfThree>  (75) 
1

>  <i_sd_BIOSOLVEIT.INFINISEE\_RESULT\_RANK>  (75) 
39340

>  <i_sd_version>  (75) 
0

>  <b_lp_Chiralities_Consistent>  (75) 
1

>  <b_sd_chiral_flag>  (75) 
0

>  <canonical_id>  (75) 
ATP-HTVS-0C924C2A1F00

>  <compound_code>  (75) 
82563

>  <title>  (75) 
rxn502b____EMOL31406107____EMOL30488121____EMOL324170366

>  <variant>  (75) 
82563-1

>  <source_file>  (75) 
运行/运行/ATP-VSW/ATP-VSW-DOCK_HTVS_1-003_lib/ATP-VSW-DOCK_HTVS_1-003_lib.mae

>  <canonical_smiles>  (75) 
O=C(Nc1c[nH+]c2ccccc2c1NCc1ccc(NCCO)cc1)c1cccc(CS)c1

>  <scaffold>  (75) 
O=C(Nc1c[nH+]c2ccccc2c1NCc1ccccc1)c1ccccc1

>  <molecular_formula>  (75) 
C26H27N4O2S+

$$$$
ATP-HTVS-0CA591B42E29
     RDKit          3D

 59 62  0  0  0  0  0  0  0  0999 V2000
  193.1626  186.6659  162.9320 O   0  0  0  0  0  0  0  0  0  0  0  0
  193.8325  187.3677  162.1354 C   0  0  0  0  0  0  0  0  0  0  0  0
  193.9393  188.6088  162.2551 O   0  0  0  0  0  0  0  0  0  0  0  0
  194.5585  186.6672  161.0195 C   0  0  0  0  0  0  0  0  0  0  0  0
  195.7138  187.2153  160.4265 C   0  0  0  0  0  0  0  0  0  0  0  0
  196.3648  186.5266  159.3730 C   0  0  0  0  0  0  0  0  0  0  0  0
  195.8692  185.2847  158.9168 C   0  0  0  0  0  0  0  0  0  0  0  0
  196.5038  184.5782  157.8222 C   0  0  0  0  0  0  0  0  0  0  0  0
  197.0031  183.9891  156.8805 C   0  0  0  0  0  0  0  0  0  0  0  0
  197.6206  183.3207  155.7242 C   0  0  1  0  0  0  0  0  0  0  0  0
  196.7540  182.2384  155.2756 N   0  0  0  0  0  0  0  0  0  0  0  0
  196.9986  180.9745  155.9589 C   0  0  1  0  0  0  0  0  0  0  0  0
  198.1503  180.2164  155.3302 C   0  0  0  0  0  0  0  0  0  0  0  0
  199.3095  179.9449  156.0799 C   0  0  0  0  0  0  0  0  0  0  0  0
  200.3800  179.2467  155.4881 C   0  0  0  0  0  0  0  0  0  0  0  0
  200.2854  178.8320  154.1419 C   0  0  0  0  0  0  0  0  0  0  0  0
  199.1210  179.0896  153.3979 C   0  0  0  0  0  0  0  0  0  0  0  0
  198.0522  179.7853  153.9911 C   0  0  0  0  0  0  0  0  0  0  0  0
  201.6216  178.9012  156.2983 C   0  0  1  0  0  0  0  0  0  0  0  0
  201.5395  177.5883  156.9945 N   0  0  1  0  0  0  0  0  0  0  0  0
  200.6836  177.6168  158.2018 C   0  0  2  0  0  0  0  0  0  0  0  0
  201.1976  176.4480  156.1071 C   0  0  2  0  0  0  0  0  0  0  0  0
  198.0648  184.3425  154.7056 C   0  0  0  0  0  0  0  0  0  0  0  0
  197.7685  184.3898  153.2949 C   0  0  0  0  0  0  0  0  0  0  0  0
  198.4133  185.5484  152.7893 C   0  0  0  0  0  0  0  0  0  0  0  0
  199.0778  186.1895  153.8127 O   0  0  0  0  0  0  0  0  0  0  0  0
  198.8642  185.4441  154.9400 C   0  0  0  0  0  0  0  0  0  0  0  0
  198.3504  185.9384  151.4398 C   0  0  0  0  0  0  0  0  0  0  0  0
  197.6150  185.1419  150.5374 C   0  0  0  0  0  0  0  0  0  0  0  0
  196.9624  183.9817  151.0026 C   0  0  0  0  0  0  0  0  0  0  0  0
  197.0403  183.6140  152.3615 C   0  0  0  0  0  0  0  0  0  0  0  0
  194.7199  184.7378  159.5057 C   0  0  0  0  0  0  0  0  0  0  0  0
  194.0629  185.4393  160.5298 C   0  0  0  0  0  0  0  0  0  0  0  0
  195.7734  182.4824  155.4391 H   0  0  0  0  0  0  0  0  0  0  0  0
  196.1048  188.1644  160.7762 H   0  0  0  0  0  0  0  0  0  0  0  0
  197.2393  186.9610  158.9087 H   0  0  0  0  0  0  0  0  0  0  0  0
  198.5396  182.8766  156.1084 H   0  0  0  0  0  0  0  0  0  0  0  0
  197.1537  181.1300  157.0266 H   0  0  0  0  0  0  0  0  0  0  0  0
  196.0998  180.3655  155.8716 H   0  0  0  0  0  0  0  0  0  0  0  0
  199.3545  180.2466  157.1149 H   0  0  0  0  0  0  0  0  0  0  0  0
  201.0918  178.2762  153.6867 H   0  0  0  0  0  0  0  0  0  0  0  0
  199.0446  178.7342  152.3818 H   0  0  0  0  0  0  0  0  0  0  0  0
  197.1572  179.9899  153.4182 H   0  0  0  0  0  0  0  0  0  0  0  0
  202.4995  178.8949  155.6472 H   0  0  0  0  0  0  0  0  0  0  0  0
  201.8044  179.6934  157.0296 H   0  0  0  0  0  0  0  0  0  0  0  0
  199.6512  177.8462  157.9452 H   0  0  0  0  0  0  0  0  0  0  0  0
  201.0393  178.3636  158.9063 H   0  0  0  0  0  0  0  0  0  0  0  0
  200.6886  176.6578  158.7146 H   0  0  0  0  0  0  0  0  0  0  0  0
  200.1834  176.5414  155.7154 H   0  0  0  0  0  0  0  0  0  0  0  0
  201.2320  175.4963  156.6343 H   0  0  0  0  0  0  0  0  0  0  0  0
  201.8890  176.4065  155.2651 H   0  0  0  0  0  0  0  0  0  0  0  0
  199.3342  185.8307  155.8339 H   0  0  0  0  0  0  0  0  0  0  0  0
  198.8528  186.8346  151.1138 H   0  0  0  0  0  0  0  0  0  0  0  0
  197.5421  185.4248  149.4963 H   0  0  0  0  0  0  0  0  0  0  0  0
  196.3871  183.3749  150.3224 H   0  0  0  0  0  0  0  0  0  0  0  0
  196.5168  182.7378  152.7119 H   0  0  0  0  0  0  0  0  0  0  0  0
  194.2919  183.8153  159.1343 H   0  0  0  0  0  0  0  0  0  0  0  0
  193.1468  185.0480  160.9338 H   0  0  0  0  0  0  0  0  0  0  0  0
  202.5004  177.4441  157.3085 H   0  0  0  0  0  0  0  0  0  0  0  0
  1  2  1  0
  2  3  2  0
  2  4  1  0
  4  5  1  0
  4 33  2  0
  5  6  2  0
  5 35  1  0
  6  7  1  0
  6 36  1  0
  7  8  1  0
  7 32  2  0
  8  9  3  0
  9 10  1  0
 10 11  1  0
 10 23  1  0
 10 37  1  1
 11 12  1  0
 11 34  1  0
 12 13  1  0
 12 38  1  1
 12 39  1  0
 13 14  2  0
 13 18  1  0
 14 15  1  0
 14 40  1  0
 15 16  2  0
 15 19  1  0
 16 17  1  0
 16 41  1  0
 17 18  2  0
 17 42  1  0
 18 43  1  0
 19 20  1  0
 19 44  1  6
 19 45  1  0
 20 21  1  0
 20 22  1  0
 20 59  1  1
 21 46  1  6
 21 47  1  0
 21 48  1  0
 22 49  1  6
 22 50  1  0
 22 51  1  0
 23 24  1  0
 23 27  2  0
 24 25  1  0
 24 31  2  0
 25 26  1  0
 25 28  2  0
 26 27  1  0
 27 52  1  0
 28 29  1  0
 28 53  1  0
 29 30  2  0
 29 54  1  0
 30 31  1  0
 30 55  1  0
 31 56  1  0
 32 33  1  0
 32 57  1  0
 33 58  1  0
M  CHG  2   1  -1  20   1
M  END
>  <s_epik_cmdline>  (76) 
J2VwaWtfcHl0aG9uJywgJy1waCcsICc3LjAwMDAwMCcsICctcGh0JywgJzIuMDAwMDAwJywgJy1tcycsICcxNicsICctdG4nLCAnOCcsICctbWEnLCAnMjAwJywgJy1pbWFlJywgJzxpbmZpbGUubWFlPicsICctb21hZScsICc8b3V0ZmlsZS5tYWU+Jw==

>  <s_epik_input>  (76) 
W09IXUMoPU8pYzFbY0hdW2NIXWMoW2NIXVtjSF0xKUMjQ1tDQEBIXShbTkhdW0NIMl1jMltjSF1jKFtjSF1bY0hdW2NIXTIpW0NIMl1OKFtDSDNdKVtDSDNdKWMzW2NIXW9jKGMzNClbY0hdW2NIXVtjSF1bY0hdNA==

>  <s_i_glide_gridfile>  (76) 
ATP-Grid

>  <s_lp_Force_Field>  (76) 
OPLS_2005

>  <s_lp_Variant>  (76) 
rxn403____EMOL2873214____EMOL24201912____EMOL31600616-1

>  <s_lp_label>  (76) 
2669_sdstereoexpander_1_neutralizer_1_epik_1_stereoizer_1

>  <s_m_source_file>  (76) 
ATP-VSW-LIGPREP-002-in.maegz

>  <s_sd_BIOSOLVEIT.INFINISEE\_QUERY\_NAME>  (76) 
Ref-Lig

>  <s_sd_BIOSOLVEIT.INFINISEE\_QUERY\_SMILES>  (76) 
S(c1nc2c(cc1C[NH2+]Cc3ccc(cc3)C[NH+](C)C)cccc2)Cc4ccccc4

>  <s_sd_BIOSOLVEIT.INFINISEE\_REACTION\_NAME>  (76) 
rxn403

>  <s_sd_BIOSOLVEIT.INFINISEE\_REAGENT1\_NAME>  (76) 
EMOL2873214

>  <s_sd_BIOSOLVEIT.INFINISEE\_REAGENT1\_SMILES>  (76) 
N(Cc1cc(ccc1)CN)(C)C

>  <s_sd_BIOSOLVEIT.INFINISEE\_REAGENT2\_NAME>  (76) 
EMOL24201912

>  <s_sd_BIOSOLVEIT.INFINISEE\_REAGENT2\_SMILES>  (76) 
O=CC=1c2c(OC1)cccc2

>  <s_sd_BIOSOLVEIT.INFINISEE\_REAGENT3\_NAME>  (76) 
EMOL31600616

>  <s_sd_BIOSOLVEIT.INFINISEE\_REAGENT3\_SMILES>  (76) 
O=C(O)c1ccc(C#C)cc1

>  <s_sd_BIOSOLVEIT.INFINISEE\_SPACE>  (76) 
eXplore_7tr_2022-12

>  <s_vsw_compound_code>  (76) 
85378

>  <s_vsw_variant>  (76) 
85378-1

>  <r_epik_Charging_Adjusted_Penalty>  (76) 
0.17839358987794901

>  <r_epik_Ionization_Penalty>  (76) 
0.1318

>  <r_epik_Ionization_Penalty_Charging>  (76) 
0.045499999999999999

>  <r_epik_Ionization_Penalty_Neutral>  (76) 
0.086300000000000002

>  <r_epik_State_Penalty>  (76) 
0.13289999999999999

>  <r_i_docking_score>  (76) 
-5.49807264992147

>  <r_i_glide_ecoul>  (76) 
-11.410845756530801

>  <r_i_glide_eff_state_penalty>  (76) 
0.13289999999999999

>  <r_i_glide_einternal>  (76) 
6.1413612365722701

>  <r_i_glide_emodel>  (76) 
-64.299927052142706

>  <r_i_glide_energy>  (76) 
-46.214545249939

>  <r_i_glide_erotb>  (76) 
0.62248706684450905

>  <r_i_glide_esite>  (76) 
0

>  <r_i_glide_evdw>  (76) 
-34.803699493408203

>  <r_i_glide_gscore>  (76) 
-5.6309726499214703

>  <r_i_glide_hbond>  (76) 
-0.31000001914716202

>  <r_i_glide_ligand_efficiency>  (76) 
-0.16660826211883301

>  <r_i_glide_ligand_efficiency_ln>  (76) 
-1.2227428898459001

>  <r_i_glide_ligand_efficiency_sa>  (76) 
-0.53440171978425199

>  <r_i_glide_lipo>  (76) 
-1.62329873855028

>  <r_i_glide_metal>  (76) 
-0

>  <r_i_glide_rewards>  (76) 
-0.86834912091851701

>  <r_lp_Energy>  (76) 
16.646453000000001

>  <r_qp_ACxDN^.5/SA>  (76) 
0.011779100000000001

>  <r_qp_CIQPlogS>  (76) 
-4.8280000000000003

>  <r_qp_EA(eV)>  (76) 
0.876

>  <r_qp_FISA>  (76) 
119.57899999999999

>  <r_qp_FOSA>  (76) 
196.37

>  <r_qp_IP(eV)>  (76) 
8.8000000000000007

>  <r_qp_Jm>  (76) 
0.000166318437065495

>  <r_qp_PISA>  (76) 
404.42099999999999

>  <r_qp_PSA>  (76) 
74.802999999999997

>  <r_qp_PercentHumanOralAbsorption>  (76) 
60.393000000000001

>  <r_qp_QPPCaco>  (76) 
11.464

>  <r_qp_QPPMDCK>  (76) 
6.1509999999999998

>  <r_qp_QPlogBB>  (76) 
-0.34300000000000003

>  <r_qp_QPlogHERG>  (76) 
-5.8799999999999999

>  <r_qp_QPlogKhsa>  (76) 
0.59099999999999997

>  <r_qp_QPlogKp>  (76) 
-5.5599999999999996

>  <r_qp_QPlogPC16>  (76) 
15.069000000000001

>  <r_qp_QPlogPo/w>  (76) 
2.4740000000000002

>  <r_qp_QPlogPoct>  (76) 
22.199999999999999

>  <r_qp_QPlogPw>  (76) 
11.871

>  <r_qp_QPlogS>  (76) 
-3.8610000000000002

>  <r_qp_QPpolrz>  (76) 
46.798999999999999

>  <r_qp_SASA>  (76) 
720.37

>  <r_qp_SAamideO>  (76) 
0

>  <r_qp_SAfluorine>  (76) 
0

>  <r_qp_WPSA>  (76) 
0

>  <r_qp_accptHB>  (76) 
6

>  <r_qp_dip^2/V>  (76) 
0.025518200000000001

>  <r_qp_dipole>  (76) 
5.915

>  <r_qp_donorHB>  (76) 
2

>  <r_qp_glob>  (76) 
0.82854280000000002

>  <r_qp_mol_MW>  (76) 
438.52499999999998

>  <r_qp_volume>  (76) 
1371.067

>  <r_sd_BIOSOLVEIT.INFINISEE\_FTREES\_SIMILARITY>  (76) 
0.90900000000000003

>  <r_sd_BIOSOLVEIT.LOGP>  (76) 
1.2971999999999999

>  <r_sd_BIOSOLVEIT.MOLECULAR\_WEIGHT>  (76) 
439.53199999999998

>  <r_sd_BIOSOLVEIT.TPSA>  (76) 
74.319999999999993

>  <i_epik_Tot_Q>  (76) 
0

>  <i_epik_Tot_abs_Q>  (76) 
2

>  <i_f3d_flags>  (76) 
0

>  <i_i_glide_confnum>  (76) 
6

>  <i_i_glide_lignum>  (76) 
1280

>  <i_i_glide_posenum>  (76) 
8

>  <i_i_glide_rotatable_bonds>  (76) 
9

>  <i_lp_mmshare_version>  (76) 
65135

>  <i_m_ct_format>  (76) 
2

>  <i_m_source_file_index>  (76) 
2669

>  <i_qp_#NandO>  (76) 
5

>  <i_qp_#acid>  (76) 
1

>  <i_qp_#amide>  (76) 
0

>  <i_qp_#amidine>  (76) 
0

>  <i_qp_#amine>  (76) 
2

>  <i_qp_#in34>  (76) 
0

>  <i_qp_#in56>  (76) 
21

>  <i_qp_#metab>  (76) 
6

>  <i_qp_#nonHatm>  (76) 
33

>  <i_qp_#noncon>  (76) 
0

>  <i_qp_#ringatoms>  (76) 
21

>  <i_qp_#rotor>  (76) 
9

>  <i_qp_#rtvFG>  (76) 
0

>  <i_qp_#stars>  (76) 
0

>  <i_qp_CNS>  (76) 
0

>  <i_qp_HumanOralAbsorption>  (76) 
2

>  <i_qp_RuleOfFive>  (76) 
0

>  <i_qp_RuleOfThree>  (76) 
1

>  <i_sd_BIOSOLVEIT.INFINISEE\_RESULT\_RANK>  (76) 
48704

>  <i_sd_version>  (76) 
0

>  <b_lp_Chiralities_Consistent>  (76) 
1

>  <b_sd_chiral_flag>  (76) 
0

>  <canonical_id>  (76) 
ATP-HTVS-0CA591B42E29

>  <compound_code>  (76) 
85378

>  <title>  (76) 
rxn403____EMOL2873214____EMOL24201912____EMOL31600616

>  <variant>  (76) 
85378-1

>  <source_file>  (76) 
运行/运行/ATP-VSW/ATP-VSW-DOCK_HTVS_1-002_lib.maegz

>  <canonical_smiles>  (76) 
C[NH+](C)Cc1cccc(CN[C@H](C#Cc2ccc(C(=O)[O-])cc2)c2coc3ccccc23)c1

>  <scaffold>  (76) 
C(#CC(NCc1ccccc1)c1coc2ccccc12)c1ccccc1

>  <molecular_formula>  (76) 
C28H26N2O3

$$$$
ATP-HTVS-0CB0406266F3
     RDKit          3D

 64 67  0  0  0  0  0  0  0  0999 V2000
  198.8149  179.0910  154.5318 Cl  0  0  0  0  0  0  0  0  0  0  0  0
  198.5741  180.7922  154.7790 C   0  0  0  0  0  0  0  0  0  0  0  0
  197.4050  181.4198  154.2911 C   0  0  0  0  0  0  0  0  0  0  0  0
  197.1900  182.8123  154.5175 C   0  0  0  0  0  0  0  0  0  0  0  0
  198.1584  183.5775  155.2364 C   0  0  0  0  0  0  0  0  0  0  0  0
  197.9791  184.9344  155.5119 O   0  0  0  0  0  0  0  0  0  0  0  0
  197.3560  185.7313  154.5195 C   0  0  1  0  0  0  0  0  0  0  0  0
  198.4543  186.2456  153.6492 C   0  0  0  0  0  0  0  0  0  0  0  0
  198.8031  185.6292  152.5206 N   0  0  0  0  0  0  0  0  0  0  0  0
  199.8093  186.4335  152.0180 C   0  0  0  0  0  0  0  0  0  0  0  0
  200.0481  187.5308  152.8913 C   0  0  0  0  0  0  0  0  0  0  0  0
  199.1643  187.3628  153.9527 N   0  0  0  0  0  0  0  0  0  0  0  0
  199.0181  188.2493  155.0976 C   0  0  1  0  0  0  0  0  0  0  0  0
  199.4499  187.6002  156.4269 C   0  0  0  0  0  0  0  0  0  0  0  0
  200.0563  186.5177  156.3818 O   0  0  0  0  0  0  0  0  0  0  0  0
  199.0508  188.2051  157.5822 N   0  0  0  0  0  0  0  0  0  0  0  0
  199.1503  187.4926  158.8652 C   0  0  1  0  0  0  0  0  0  0  0  0
  198.1478  186.3602  159.0156 C   0  0  0  0  0  0  0  0  0  0  0  0
  196.7651  186.6272  158.9819 C   0  0  0  0  0  0  0  0  0  0  0  0
  195.8317  185.5755  159.1220 C   0  0  0  0  0  0  0  0  0  0  0  0
  196.2815  184.2497  159.3005 C   0  0  0  0  0  0  0  0  0  0  0  0
  197.6661  183.9836  159.3480 C   0  0  0  0  0  0  0  0  0  0  0  0
  198.5934  185.0290  159.1910 C   0  0  0  0  0  0  0  0  0  0  0  0
  195.2879  183.1104  159.4268 C   0  0  1  0  0  0  0  0  0  0  0  0
  194.9838  182.4244  158.1440 N   0  0  1  0  0  0  0  0  0  0  0  0
  196.1717  181.7924  157.5207 C   0  0  2  0  0  0  0  0  0  0  0  0
  193.8760  181.4620  158.2558 C   0  0  2  0  0  0  0  0  0  0  0  0
  198.6773  189.6277  157.6478 C   0  0  2  0  0  0  0  0  0  0  0  0
  201.0225  188.5074  152.5751 C   0  0  0  0  0  0  0  0  0  0  0  0
  201.7872  188.3735  151.4027 C   0  0  0  0  0  0  0  0  0  0  0  0
  201.5752  187.2799  150.5396 C   0  0  0  0  0  0  0  0  0  0  0  0
  200.5824  186.3191  150.8419 C   0  0  0  0  0  0  0  0  0  0  0  0
  199.3112  182.9240  155.7152 C   0  0  0  0  0  0  0  0  0  0  0  0
  199.5252  181.5516  155.4972 C   0  0  0  0  0  0  0  0  0  0  0  0
  196.6497  180.8280  153.7903 H   0  0  0  0  0  0  0  0  0  0  0  0
  196.2550  183.2672  154.1857 H   0  0  0  0  0  0  0  0  0  0  0  0
  196.5798  185.2191  153.9084 H   0  0  0  0  0  0  0  0  0  0  0  0
  196.8798  186.5594  155.0565 H   0  0  0  0  0  0  0  0  0  0  0  0
  199.6392  189.1264  154.9259 H   0  0  0  0  0  0  0  0  0  0  0  0
  197.9879  188.6022  155.1262 H   0  0  0  0  0  0  0  0  0  0  0  0
  200.1643  187.0996  158.9516 H   0  0  0  0  0  0  0  0  0  0  0  0
  199.0196  188.1520  159.7213 H   0  0  0  0  0  0  0  0  0  0  0  0
  196.4162  187.6387  158.8369 H   0  0  0  0  0  0  0  0  0  0  0  0
  194.7727  185.7949  159.0687 H   0  0  0  0  0  0  0  0  0  0  0  0
  198.0278  182.9804  159.4853 H   0  0  0  0  0  0  0  0  0  0  0  0
  199.6522  184.8050  159.1679 H   0  0  0  0  0  0  0  0  0  0  0  0
  195.6846  182.3717  160.1303 H   0  0  0  0  0  0  0  0  0  0  0  0
  194.3629  183.4984  159.8595 H   0  0  0  0  0  0  0  0  0  0  0  0
  196.6129  181.0431  158.1828 H   0  0  0  0  0  0  0  0  0  0  0  0
  196.9452  182.5279  157.2934 H   0  0  0  0  0  0  0  0  0  0  0  0
  195.8706  181.3078  156.5838 H   0  0  0  0  0  0  0  0  0  0  0  0
  194.1122  180.6584  158.9572 H   0  0  0  0  0  0  0  0  0  0  0  0
  193.6801  181.0172  157.2829 H   0  0  0  0  0  0  0  0  0  0  0  0
  192.9595  181.9686  158.5569 H   0  0  0  0  0  0  0  0  0  0  0  0
  199.3245  190.2161  156.9920 H   0  0  0  0  0  0  0  0  0  0  0  0
  198.8185  190.0417  158.6475 H   0  0  0  0  0  0  0  0  0  0  0  0
  197.6392  189.7956  157.3434 H   0  0  0  0  0  0  0  0  0  0  0  0
  201.1894  189.3407  153.2375 H   0  0  0  0  0  0  0  0  0  0  0  0
  202.5493  189.1068  151.1717 H   0  0  0  0  0  0  0  0  0  0  0  0
  202.1766  187.1825  149.6491 H   0  0  0  0  0  0  0  0  0  0  0  0
  200.4288  185.4816  150.1720 H   0  0  0  0  0  0  0  0  0  0  0  0
  199.9924  183.5216  156.2972 H   0  0  0  0  0  0  0  0  0  0  0  0
  200.4120  181.0705  155.9072 H   0  0  0  0  0  0  0  0  0  0  0  0
  194.6578  183.1048  157.4702 H   0  0  0  0  0  0  0  0  0  0  0  0
  1  2  1  0
  2  3  1  0
  2 34  2  0
  3  4  2  0
  3 35  1  0
  4  5  1  0
  4 36  1  0
  5  6  1  0
  5 33  2  0
  6  7  1  0
  7  8  1  0
  7 37  1  6
  7 38  1  0
  8  9  2  0
  8 12  1  0
  9 10  1  0
 10 11  1  0
 10 32  2  0
 11 12  1  0
 11 29  2  0
 12 13  1  0
 13 14  1  0
 13 39  1  6
 13 40  1  0
 14 15  2  0
 14 16  1  0
 16 17  1  0
 16 28  1  0
 17 18  1  0
 17 41  1  1
 17 42  1  0
 18 19  1  0
 18 23  2  0
 19 20  2  0
 19 43  1  0
 20 21  1  0
 20 44  1  0
 21 22  2  0
 21 24  1  0
 22 23  1  0
 22 45  1  0
 23 46  1  0
 24 25  1  0
 24 47  1  1
 24 48  1  0
 25 26  1  0
 25 27  1  0
 25 64  1  6
 26 49  1  1
 26 50  1  0
 26 51  1  0
 27 52  1  1
 27 53  1  0
 27 54  1  0
 28 55  1  6
 28 56  1  0
 28 57  1  0
 29 30  1  0
 29 58  1  0
 30 31  2  0
 30 59  1  0
 31 32  1  0
 31 60  1  0
 32 61  1  0
 33 34  1  0
 33 62  1  0
 34 63  1  0
M  CHG  1  25   1
M  END
>  <s_epik_cmdline>  (77) 
J2VwaWtfcHl0aG9uJywgJy1waCcsICc3LjAwMDAwMCcsICctcGh0JywgJzIuMDAwMDAwJywgJy1tcycsICcxNicsICctdG4nLCAnOCcsICctbWEnLCAnMjAwJywgJy1pbWFlJywgJzxpbmZpbGUubWFlPicsICctb21hZScsICc8b3V0ZmlsZS5tYWU+Jw==

>  <s_epik_input>  (77) 
Q2xjMVtjSF1bY0hdYyhbY0hdW2NIXTEpT1tDSDJdYyhuMiluKGMoYzIzKVtjSF1bY0hdW2NIXVtjSF0zKVtDSDJdQyg9TylOKFtDSDNdKVtDSDJdYzRbY0hdW2NIXWMoW2NIXVtjSF00KVtDSDJdTihbQ0gzXSlbQ0gzXQ==

>  <s_i_glide_gridfile>  (77) 
ATP-Grid

>  <s_lp_Force_Field>  (77) 
OPLS_2005

>  <s_lp_Variant>  (77) 
m_22bbg____2531250____4713108-1

>  <s_lp_label>  (77) 
1196_sdstereoexpander_1_neutralizer_1_epik_1_stereoizer_1

>  <s_m_source_file>  (77) 
ATP-VSW-LIGPREP-003-in.maegz

>  <s_sd_BIOSOLVEIT.INFINISEE\_QUERY\_NAME>  (77) 
Ref-Lig

>  <s_sd_BIOSOLVEIT.INFINISEE\_QUERY\_SMILES>  (77) 
S(c1nc2c(cc1C[NH2+]Cc3ccc(cc3)C[NH+](C)C)cccc2)Cc4ccccc4

>  <s_sd_BIOSOLVEIT.INFINISEE\_REACTION\_NAME>  (77) 
m_22bbg

>  <s_sd_BIOSOLVEIT.INFINISEE\_REAGENT1\_SMILES>  (77) 
[R1*]N(Cc1ccc(cc1)CN(C)C)C

>  <s_sd_BIOSOLVEIT.INFINISEE\_REAGENT2\_SMILES>  (77) 
[R1*]C(=O)CN1c2c(N=C1COc3ccc(Cl)cc3)cccc2

>  <s_sd_BIOSOLVEIT.INFINISEE\_SPACE>  (77) 
REALSpace_44bn_2023-08

>  <s_vsw_compound_code>  (77) 
38243

>  <s_vsw_variant>  (77) 
38243-1

>  <r_epik_Charging_Adjusted_Penalty>  (77) 
0.11688309738454

>  <r_epik_Ionization_Penalty>  (77) 
0.071599999999999997

>  <r_epik_Ionization_Penalty_Charging>  (77) 
0.0453

>  <r_epik_Ionization_Penalty_Neutral>  (77) 
0.0264

>  <r_epik_State_Penalty>  (77) 
0.071599999999999997

>  <r_i_docking_score>  (77) 
-3.4387801420470701

>  <r_i_glide_ecoul>  (77) 
-7.9179940223693803

>  <r_i_glide_eff_state_penalty>  (77) 
0.071599999999999997

>  <r_i_glide_einternal>  (77) 
6.9410347938537598

>  <r_i_glide_emodel>  (77) 
-49.022030993388597

>  <r_i_glide_energy>  (77) 
-39.863359928131104

>  <r_i_glide_erotb>  (77) 
0.79807534649806799

>  <r_i_glide_esite>  (77) 
-0.110815421675066

>  <r_i_glide_evdw>  (77) 
-31.945365905761701

>  <r_i_glide_gscore>  (77) 
-3.5103801420470702

>  <r_i_glide_hbond>  (77) 
-0.088409491536758603

>  <r_i_glide_ligand_efficiency>  (77) 
-0.101140592413149

>  <r_i_glide_ligand_efficiency_ln>  (77) 
-0.75972298789405002

>  <r_i_glide_ligand_efficiency_sa>  (77) 
-0.32765625638468898

>  <r_i_glide_lipo>  (77) 
-1.16495382052429

>  <r_i_glide_metal>  (77) 
-0

>  <r_i_glide_rewards>  (77) 
-0.15930935616553199

>  <r_lp_Energy>  (77) 
28.155180000000001

>  <r_lp_tautomer_probability>  (77) 
1

>  <r_qp_ACxDN^.5/SA>  (77) 
0

>  <r_qp_CIQPlogS>  (77) 
-5.4100000000000001

>  <r_qp_EA(eV)>  (77) 
0.14299999999999999

>  <r_qp_FISA>  (77) 
43.031999999999996

>  <r_qp_FOSA>  (77) 
297.51999999999998

>  <r_qp_IP(eV)>  (77) 
8.6110000000000007

>  <r_qp_Jm>  (77) 
0.074540366028701899

>  <r_qp_PISA>  (77) 
394.34100000000001

>  <r_qp_PSA>  (77) 
53.201999999999998

>  <r_qp_PercentHumanOralAbsorption>  (77) 
100

>  <r_qp_QPPCaco>  (77) 
673.923

>  <r_qp_QPPMDCK>  (77) 
1301.2950000000001

>  <r_qp_QPlogBB>  (77) 
0.129

>  <r_qp_QPlogHERG>  (77) 
-6.2610000000000001

>  <r_qp_QPlogKhsa>  (77) 
0.314

>  <r_qp_QPlogKp>  (77) 
-2.1219999999999999

>  <r_qp_QPlogPC16>  (77) 
15.802

>  <r_qp_QPlogPo/w>  (77) 
4.8019999999999996

>  <r_qp_QPlogPoct>  (77) 
21.626999999999999

>  <r_qp_QPlogPw>  (77) 
11.268000000000001

>  <r_qp_QPlogS>  (77) 
-4.6840000000000002

>  <r_qp_QPpolrz>  (77) 
51.656999999999996

>  <r_qp_SASA>  (77) 
806.57000000000005

>  <r_qp_SAamideO>  (77) 
19.613

>  <r_qp_SAfluorine>  (77) 
0

>  <r_qp_WPSA>  (77) 
71.677999999999997

>  <r_qp_accptHB>  (77) 
7.25

>  <r_qp_dip^2/V>  (77) 
0.037244300000000001

>  <r_qp_dipole>  (77) 
7.4619999999999997

>  <r_qp_donorHB>  (77) 
0

>  <r_qp_glob>  (77) 
0.78389410000000004

>  <r_qp_mol_MW>  (77) 
477.005

>  <r_qp_volume>  (77) 
1494.8630000000001

>  <r_sd_BIOSOLVEIT.INFINISEE\_FTREES\_SIMILARITY>  (77) 
0.91100000000000003

>  <r_sd_BIOSOLVEIT.LOGP>  (77) 
3.5718000000000001

>  <r_sd_BIOSOLVEIT.MOLECULAR\_WEIGHT>  (77) 
478.01299999999998

>  <r_sd_BIOSOLVEIT.TPSA>  (77) 
51.799999999999997

>  <i_epik_Tot_Q>  (77) 
1

>  <i_epik_Tot_abs_Q>  (77) 
1

>  <i_f3d_flags>  (77) 
0

>  <i_i_glide_confnum>  (77) 
2

>  <i_i_glide_lignum>  (77) 
491

>  <i_i_glide_posenum>  (77) 
11

>  <i_i_glide_rotatable_bonds>  (77) 
10

>  <i_lp_mmshare_version>  (77) 
65135

>  <i_m_ct_format>  (77) 
2

>  <i_m_source_file_index>  (77) 
1196

>  <i_qp_#NandO>  (77) 
6

>  <i_qp_#acid>  (77) 
0

>  <i_qp_#amide>  (77) 
1

>  <i_qp_#amidine>  (77) 
0

>  <i_qp_#amine>  (77) 
1

>  <i_qp_#in34>  (77) 
0

>  <i_qp_#in56>  (77) 
21

>  <i_qp_#metab>  (77) 
6

>  <i_qp_#nonHatm>  (77) 
34

>  <i_qp_#noncon>  (77) 
0

>  <i_qp_#ringatoms>  (77) 
21

>  <i_qp_#rotor>  (77) 
9

>  <i_qp_#rtvFG>  (77) 
0

>  <i_qp_#stars>  (77) 
0

>  <i_qp_CNS>  (77) 
1

>  <i_qp_HumanOralAbsorption>  (77) 
3

>  <i_qp_RuleOfFive>  (77) 
0

>  <i_qp_RuleOfThree>  (77) 
0

>  <i_sd_BIOSOLVEIT.INFINISEE\_REAGENT1\_NAME>  (77) 
2531250

>  <i_sd_BIOSOLVEIT.INFINISEE\_REAGENT2\_NAME>  (77) 
4713108

>  <i_sd_BIOSOLVEIT.INFINISEE\_RESULT\_RANK>  (77) 
39913

>  <i_sd_version>  (77) 
0

>  <b_lp_Chiralities_Consistent>  (77) 
1

>  <b_sd_chiral_flag>  (77) 
0

>  <canonical_id>  (77) 
ATP-HTVS-0CB0406266F3

>  <compound_code>  (77) 
38243

>  <title>  (77) 
m_22bbg____2531250____4713108

>  <variant>  (77) 
38243-1

>  <source_file>  (77) 
运行/运行/ATP-VSW/ATP-VSW-DOCK_HTVS_1-003_lib/ATP-VSW-DOCK_HTVS_1-003_lib.mae

>  <canonical_smiles>  (77) 
CN(Cc1ccc(C[NH+](C)C)cc1)C(=O)Cn1c(COc2ccc(Cl)cc2)nc2ccccc21

>  <scaffold>  (77) 
O=C(Cn1c(COc2ccccc2)nc2ccccc21)NCc1ccccc1

>  <molecular_formula>  (77) 
C27H30ClN4O2+

$$$$
ATP-HTVS-0CBFB91815ED
     RDKit          3D

 66 69  0  0  0  0  0  0  0  0999 V2000
  199.9695  178.0426  152.7748 S   0  0  0  0  0  0  0  0  0  0  0  0
  200.4721  177.2418  154.2486 C   0  0  0  0  0  0  0  0  0  0  0  0
  200.0690  177.9892  155.4012 C   0  0  0  0  0  0  0  0  0  0  0  0
  200.4255  177.4445  156.6594 C   0  0  0  0  0  0  0  0  0  0  0  0
  201.1455  176.2393  156.7685 C   0  0  0  0  0  0  0  0  0  0  0  0
  201.5186  175.5255  155.6189 C   0  0  0  0  0  0  0  0  0  0  0  0
  201.1805  176.0325  154.3527 C   0  0  0  0  0  0  0  0  0  0  0  0
  199.3736  179.2080  155.0296 C   0  0  0  0  0  0  0  0  0  0  0  0
  198.9151  180.0948  156.0244 N   0  0  0  0  0  0  0  0  0  0  0  0
  199.1440  181.5310  155.9695 C   0  0  1  0  0  0  0  0  0  0  0  0
  198.3040  182.3480  156.9314 C   0  0  0  0  0  0  0  0  0  0  0  0
  197.1436  181.8137  157.5130 C   0  0  0  0  0  0  0  0  0  0  0  0
  196.3748  182.5695  158.4159 C   0  0  0  0  0  0  0  0  0  0  0  0
  196.7559  183.8923  158.7275 C   0  0  0  0  0  0  0  0  0  0  0  0
  197.9031  184.4439  158.1224 C   0  0  0  0  0  0  0  0  0  0  0  0
  198.6737  183.6744  157.2265 C   0  0  0  0  0  0  0  0  0  0  0  0
  195.1549  181.9355  159.0524 C   0  0  1  0  0  0  0  0  0  0  0  0
  193.9568  182.0605  158.1871 N   0  0  1  0  0  0  0  0  0  0  0  0
  193.0356  180.9105  158.3201 C   0  0  2  0  0  0  0  0  0  0  0  0
  193.2622  183.3439  158.3969 C   0  0  2  0  0  0  0  0  0  0  0  0
  199.2187  179.3369  153.6630 C   0  0  0  0  0  0  0  0  0  0  0  0
  198.5065  180.4449  152.9340 C   0  0  1  0  0  0  0  0  0  0  0  0
  197.6185  180.0040  151.8562 N   0  0  0  0  0  0  0  0  0  0  0  0
  198.0769  179.7495  150.6101 C   0  0  0  0  0  0  0  0  0  0  0  0
  199.2111  180.0769  150.2457 O   0  0  0  0  0  0  0  0  0  0  0  0
  197.1889  178.9470  149.6478 C   0  0  1  0  0  0  0  0  0  0  0  0
  196.3143  179.8122  148.9535 O   0  0  0  0  0  0  0  0  0  0  0  0
  197.9972  178.0350  148.7383 C   0  0  0  0  0  0  0  0  0  0  0  0
  198.4092  176.7627  149.2022 C   0  0  0  0  0  0  0  0  0  0  0  0
  199.1815  175.9234  148.3744 C   0  0  0  0  0  0  0  0  0  0  0  0
  199.5453  176.3525  147.0842 C   0  0  0  0  0  0  0  0  0  0  0  0
  199.1207  177.6083  146.6102 C   0  0  0  0  0  0  0  0  0  0  0  0
  198.3519  178.4467  147.4352 C   0  0  0  0  0  0  0  0  0  0  0  0
  196.1955  179.8833  152.2279 C   0  0  2  0  0  0  0  0  0  0  0  0
  200.1307  177.9605  157.5617 H   0  0  0  0  0  0  0  0  0  0  0  0
  201.4053  175.8390  157.7297 H   0  0  0  0  0  0  0  0  0  0  0  0
  202.0535  174.5927  155.7046 H   0  0  0  0  0  0  0  0  0  0  0  0
  201.4657  175.4971  153.4568 H   0  0  0  0  0  0  0  0  0  0  0  0
  198.8315  179.6953  156.9552 H   0  0  0  0  0  0  0  0  0  0  0  0
  200.2034  181.7123  156.1639 H   0  0  0  0  0  0  0  0  0  0  0  0
  198.9258  181.9330  154.9762 H   0  0  0  0  0  0  0  0  0  0  0  0
  196.8225  180.8161  157.2807 H   0  0  0  0  0  0  0  0  0  0  0  0
  196.1817  184.4818  159.4334 H   0  0  0  0  0  0  0  0  0  0  0  0
  198.2023  185.4576  158.3465 H   0  0  0  0  0  0  0  0  0  0  0  0
  199.5444  184.1004  156.7511 H   0  0  0  0  0  0  0  0  0  0  0  0
  195.3822  180.8942  159.2909 H   0  0  0  0  0  0  0  0  0  0  0  0
  194.9672  182.4164  160.0122 H   0  0  0  0  0  0  0  0  0  0  0  0
  192.6542  180.8157  159.3293 H   0  0  0  0  0  0  0  0  0  0  0  0
  193.5475  179.9779  158.0982 H   0  0  0  0  0  0  0  0  0  0  0  0
  192.1938  181.0030  157.6273 H   0  0  0  0  0  0  0  0  0  0  0  0
  192.9165  183.4812  159.4190 H   0  0  0  0  0  0  0  0  0  0  0  0
  192.3806  183.3502  157.7646 H   0  0  0  0  0  0  0  0  0  0  0  0
  193.8979  184.1936  158.1403 H   0  0  0  0  0  0  0  0  0  0  0  0
  197.9156  181.0136  153.6463 H   0  0  0  0  0  0  0  0  0  0  0  0
  199.2286  181.1707  152.5520 H   0  0  0  0  0  0  0  0  0  0  0  0
  196.5691  178.2802  150.2321 H   0  0  0  0  0  0  0  0  0  0  0  0
  195.8397  180.3306  149.5887 H   0  0  0  0  0  0  0  0  0  0  0  0
  198.1430  176.4271  150.1947 H   0  0  0  0  0  0  0  0  0  0  0  0
  199.4953  174.9505  148.7265 H   0  0  0  0  0  0  0  0  0  0  0  0
  200.1318  175.7141  146.4422 H   0  0  0  0  0  0  0  0  0  0  0  0
  199.3798  177.9293  145.6106 H   0  0  0  0  0  0  0  0  0  0  0  0
  198.0365  179.4140  147.0716 H   0  0  0  0  0  0  0  0  0  0  0  0
  195.5296  180.2497  151.4463 H   0  0  0  0  0  0  0  0  0  0  0  0
  195.9530  180.4794  153.1065 H   0  0  0  0  0  0  0  0  0  0  0  0
  195.9338  178.8522  152.4686 H   0  0  0  0  0  0  0  0  0  0  0  0
  194.2509  182.0778  157.2161 H   0  0  0  0  0  0  0  0  0  0  0  0
  1  2  1  0
  1 21  1  0
  2  3  1  0
  2  7  2  0
  3  4  2  0
  3  8  1  0
  4  5  1  0
  4 35  1  0
  5  6  2  0
  5 36  1  0
  6  7  1  0
  6 37  1  0
  7 38  1  0
  8  9  1  0
  8 21  2  0
  9 10  1  0
  9 39  1  0
 10 11  1  0
 10 40  1  1
 10 41  1  0
 11 12  2  0
 11 16  1  0
 12 13  1  0
 12 42  1  0
 13 14  2  0
 13 17  1  0
 14 15  1  0
 14 43  1  0
 15 16  2  0
 15 44  1  0
 16 45  1  0
 17 18  1  0
 17 46  1  1
 17 47  1  0
 18 19  1  0
 18 20  1  0
 18 66  1  6
 19 48  1  1
 19 49  1  0
 19 50  1  0
 20 51  1  1
 20 52  1  0
 20 53  1  0
 21 22  1  0
 22 23  1  0
 22 54  1  1
 22 55  1  0
 23 24  1  0
 23 34  1  0
 24 25  2  0
 24 26  1  0
 26 27  1  0
 26 28  1  0
 26 56  1  1
 27 57  1  0
 28 29  2  0
 28 33  1  0
 29 30  1  0
 29 58  1  0
 30 31  2  0
 30 59  1  0
 31 32  1  0
 31 60  1  0
 32 33  2  0
 32 61  1  0
 33 62  1  0
 34 63  1  6
 34 64  1  0
 34 65  1  0
M  CHG  1  18   1
M  END
>  <s_epik_cmdline>  (78) 
J2VwaWtfcHl0aG9uJywgJy1waCcsICc3LjAwMDAwMCcsICctcGh0JywgJzIuMDAwMDAwJywgJy1tcycsICcxNicsICctdG4nLCAnOCcsICctbWEnLCAnMjAwJywgJy1pbWFlJywgJzxpbmZpbGUubWFlPicsICctb21hZScsICc8b3V0ZmlsZS5tYWU+Jw==

>  <s_epik_input>  (78) 
W2NIXTFbY0hdW2NIXWMoW0NIMl1OKFtDSDNdKVtDSDNdKVtjSF1jMVtDSDJdW05IXWMoYyhjMjMpW2NIXVtjSF1bY0hdW2NIXTMpYyhzMilbQ0gyXU4oW0NIM10pQyg9TylbQ0BASF0oW09IXSljNFtjSF1bY0hdW2NIXVtjSF1bY0hdNA==

>  <s_i_glide_gridfile>  (78) 
ATP-Grid

>  <s_lp_Force_Field>  (78) 
OPLS_2005

>  <s_lp_Variant>  (78) 
rxn502c____EMOL300009321____EMOL49259969____EMOL2873214-2

>  <s_lp_label>  (78) 
2197_sdstereoexpander_2_neutralizer_1_epik_1_stereoizer_1

>  <s_m_source_file>  (78) 
ATP-VSW-LIGPREP-002-in.maegz

>  <s_sd_BIOSOLVEIT.INFINISEE\_QUERY\_NAME>  (78) 
Ref-Lig

>  <s_sd_BIOSOLVEIT.INFINISEE\_QUERY\_SMILES>  (78) 
S(c1nc2c(cc1C[NH2+]Cc3ccc(cc3)C[NH+](C)C)cccc2)Cc4ccccc4

>  <s_sd_BIOSOLVEIT.INFINISEE\_REACTION\_NAME>  (78) 
rxn502c

>  <s_sd_BIOSOLVEIT.INFINISEE\_REAGENT1\_NAME>  (78) 
EMOL300009321

>  <s_sd_BIOSOLVEIT.INFINISEE\_REAGENT1\_SMILES>  (78) 
O=C(O)C(O)c1ccccc1

>  <s_sd_BIOSOLVEIT.INFINISEE\_REAGENT2\_NAME>  (78) 
EMOL49259969

>  <s_sd_BIOSOLVEIT.INFINISEE\_REAGENT2\_SMILES>  (78) 
ClC=1c2c(SC1CNC)cccc2

>  <s_sd_BIOSOLVEIT.INFINISEE\_REAGENT3\_NAME>  (78) 
EMOL2873214

>  <s_sd_BIOSOLVEIT.INFINISEE\_REAGENT3\_SMILES>  (78) 
N(Cc1cc(ccc1)CN)(C)C

>  <s_sd_BIOSOLVEIT.INFINISEE\_SPACE>  (78) 
eXplore_7tr_2022-12

>  <s_vsw_compound_code>  (78) 
70274

>  <s_vsw_variant>  (78) 
70274-2

>  <r_epik_Charging_Adjusted_Penalty>  (78) 
0.086140609825027303

>  <r_epik_Ionization_Penalty>  (78) 
0.044900000000000002

>  <r_epik_Ionization_Penalty_Charging>  (78) 
0.043099999999999999

>  <r_epik_Ionization_Penalty_Neutral>  (78) 
0.0018

>  <r_epik_State_Penalty>  (78) 
0.043099999999999999

>  <r_i_docking_score>  (78) 
-4.4755885529580999

>  <r_i_glide_ecoul>  (78) 
-8.8699426651000994

>  <r_i_glide_eff_state_penalty>  (78) 
0.043099999999999999

>  <r_i_glide_einternal>  (78) 
5.3731265068054199

>  <r_i_glide_emodel>  (78) 
-58.522870825266203

>  <r_i_glide_energy>  (78) 
-44.464196205139203

>  <r_i_glide_erotb>  (78) 
0.71861827111113896

>  <r_i_glide_esite>  (78) 
-0.15483839680835501

>  <r_i_glide_evdw>  (78) 
-35.594253540039098

>  <r_i_glide_gscore>  (78) 
-4.5186885529580998

>  <r_i_glide_hbond>  (78) 
-0.14564464505544

>  <r_i_glide_ligand_efficiency>  (78) 
-0.13163495743994399

>  <r_i_glide_ligand_efficiency_ln>  (78) 
-0.98878304735516598

>  <r_i_glide_ligand_efficiency_sa>  (78) 
-0.42644616108183397

>  <r_i_glide_lipo>  (78) 
-1.61383659600617

>  <r_i_glide_metal>  (78) 
-0

>  <r_i_glide_rewards>  (78) 
-0.212783109432305

>  <r_lp_Energy>  (78) 
29.301731

>  <r_qp_ACxDN^.5/SA>  (78) 
0.014746

>  <r_qp_CIQPlogS>  (78) 
-4.234

>  <r_qp_EA(eV)>  (78) 
0.68500000000000005

>  <r_qp_FISA>  (78) 
48.640000000000001

>  <r_qp_FOSA>  (78) 
271.16500000000002

>  <r_qp_IP(eV)>  (78) 
8.2639999999999993

>  <r_qp_Jm>  (78) 
0.27174469259438599

>  <r_qp_PISA>  (78) 
398.19799999999998

>  <r_qp_PSA>  (78) 
57.906999999999996

>  <r_qp_PercentHumanOralAbsorption>  (78) 
86.697000000000003

>  <r_qp_QPPCaco>  (78) 
136.07599999999999

>  <r_qp_QPPMDCK>  (78) 
147.346

>  <r_qp_QPlogBB>  (78) 
0.35299999999999998

>  <r_qp_QPlogHERG>  (78) 
-6.024

>  <r_qp_QPlogKhsa>  (78) 
0.33400000000000002

>  <r_qp_QPlogKp>  (78) 
-4.1779999999999999

>  <r_qp_QPlogPC16>  (78) 
15.449999999999999

>  <r_qp_QPlogPo/w>  (78) 
3.6819999999999999

>  <r_qp_QPlogPoct>  (78) 
23.838000000000001

>  <r_qp_QPlogPw>  (78) 
14.66

>  <r_qp_QPlogS>  (78) 
-2.0630000000000002

>  <r_qp_QPpolrz>  (78) 
49.838999999999999

>  <r_qp_SASA>  (78) 
738.46600000000001

>  <r_qp_SAamideO>  (78) 
24.456

>  <r_qp_SAfluorine>  (78) 
0

>  <r_qp_WPSA>  (78) 
20.463000000000001

>  <r_qp_accptHB>  (78) 
7.7000000000000002

>  <r_qp_dip^2/V>  (78) 
0.013722399999999999

>  <r_qp_dipole>  (78) 
4.4829999999999997

>  <r_qp_donorHB>  (78) 
2

>  <r_qp_glob>  (78) 
0.84456850000000006

>  <r_qp_mol_MW>  (78) 
473.63200000000001

>  <r_qp_volume>  (78) 
1464.5360000000001

>  <r_sd_BIOSOLVEIT.INFINISEE\_FTREES\_SIMILARITY>  (78) 
0.93300000000000005

>  <r_sd_BIOSOLVEIT.LOGP>  (78) 
3.8498999999999999

>  <r_sd_BIOSOLVEIT.MOLECULAR\_WEIGHT>  (78) 
474.64499999999998

>  <r_sd_BIOSOLVEIT.TPSA>  (78) 
57.009999999999998

>  <i_epik_Tot_Q>  (78) 
1

>  <i_epik_Tot_abs_Q>  (78) 
1

>  <i_f3d_flags>  (78) 
0

>  <i_i_glide_confnum>  (78) 
9

>  <i_i_glide_lignum>  (78) 
829

>  <i_i_glide_posenum>  (78) 
8

>  <i_i_glide_rotatable_bonds>  (78) 
11

>  <i_lp_mmshare_version>  (78) 
65135

>  <i_m_ct_format>  (78) 
2

>  <i_m_source_file_index>  (78) 
2197

>  <i_qp_#NandO>  (78) 
5

>  <i_qp_#acid>  (78) 
0

>  <i_qp_#amide>  (78) 
1

>  <i_qp_#amidine>  (78) 
0

>  <i_qp_#amine>  (78) 
2

>  <i_qp_#in34>  (78) 
0

>  <i_qp_#in56>  (78) 
21

>  <i_qp_#metab>  (78) 
8

>  <i_qp_#nonHatm>  (78) 
34

>  <i_qp_#noncon>  (78) 
0

>  <i_qp_#ringatoms>  (78) 
21

>  <i_qp_#rotor>  (78) 
10

>  <i_qp_#rtvFG>  (78) 
0

>  <i_qp_#stars>  (78) 
0

>  <i_qp_CNS>  (78) 
1

>  <i_qp_HumanOralAbsorption>  (78) 
3

>  <i_qp_RuleOfFive>  (78) 
0

>  <i_qp_RuleOfThree>  (78) 
1

>  <i_sd_BIOSOLVEIT.INFINISEE\_RESULT\_RANK>  (78) 
3350

>  <i_sd_version>  (78) 
0

>  <b_lp_Chiralities_Consistent>  (78) 
1

>  <b_sd_chiral_flag>  (78) 
0

>  <canonical_id>  (78) 
ATP-HTVS-0CBFB91815ED

>  <compound_code>  (78) 
70274

>  <title>  (78) 
rxn502c____EMOL300009321____EMOL49259969____EMOL2873214

>  <variant>  (78) 
70274-2

>  <source_file>  (78) 
运行/运行/ATP-VSW/ATP-VSW-DOCK_HTVS_1-002_lib.maegz

>  <canonical_smiles>  (78) 
CN(Cc1sc2ccccc2c1NCc1cccc(C[NH+](C)C)c1)C(=O)[C@@H](O)c1ccccc1

>  <scaffold>  (78) 
O=C(Cc1ccccc1)NCc1sc2ccccc2c1NCc1ccccc1

>  <molecular_formula>  (78) 
C28H32N3O2S+

$$$$
ATP-HTVS-0CC0B448CED2
     RDKit          3D

 63 67  0  0  0  0  0  0  0  0999 V2000
  202.8688  174.5434  155.6799 N   0  0  0  0  0  0  0  0  0  0  0  0
  202.1610  175.5312  155.0851 C   0  0  0  0  0  0  0  0  0  0  0  0
  201.3418  175.3511  153.9483 C   0  0  0  0  0  0  0  0  0  0  0  0
  201.3110  174.0587  153.3798 C   0  0  0  0  0  0  0  0  0  0  0  0
  202.0610  173.0251  153.9774 C   0  0  0  0  0  0  0  0  0  0  0  0
  202.8107  173.3140  155.1323 C   0  0  0  0  0  0  0  0  0  0  0  0
  200.5561  176.4540  153.3722 C   0  0  0  0  0  0  0  0  0  0  0  0
  200.2970  176.4312  152.0736 N   0  0  0  0  0  0  0  0  0  0  0  0
  199.5685  177.5344  151.8044 N   0  0  0  0  0  0  0  0  0  0  0  0
  199.1078  177.8158  150.4830 C   0  0  0  0  0  0  0  0  0  0  0  0
  198.7244  179.1304  150.1268 C   0  0  0  0  0  0  0  0  0  0  0  0
  198.2831  179.4214  148.8202 C   0  0  0  0  0  0  0  0  0  0  0  0
  198.2140  178.3990  147.8555 C   0  0  0  0  0  0  0  0  0  0  0  0
  198.5838  177.0841  148.1984 C   0  0  0  0  0  0  0  0  0  0  0  0
  199.0286  176.7934  149.5056 C   0  0  0  0  0  0  0  0  0  0  0  0
  199.3598  178.2544  152.9569 C   0  0  0  0  0  0  0  0  0  0  0  0
  199.9507  177.5885  154.0004 C   0  0  0  0  0  0  0  0  0  0  0  0
  199.8992  177.9787  155.4523 C   0  0  1  0  0  0  0  0  0  0  0  0
  200.2274  179.4030  155.5992 N   0  0  1  0  0  0  0  0  0  0  0  0
  199.8132  179.9839  156.8873 C   0  0  1  0  0  0  0  0  0  0  0  0
  200.1789  181.4603  156.9334 C   0  0  0  0  0  0  0  0  0  0  0  0
  199.2307  182.5059  156.7767 C   0  0  0  0  0  0  0  0  0  0  0  0
  199.6723  183.8514  156.8307 C   0  0  0  0  0  0  0  0  0  0  0  0
  201.0221  184.1620  157.0717 C   0  0  0  0  0  0  0  0  0  0  0  0
  201.9596  183.1268  157.2250 C   0  0  0  0  0  0  0  0  0  0  0  0
  201.5370  181.7847  157.1532 C   0  0  0  0  0  0  0  0  0  0  0  0
  197.7314  182.2640  156.5910 C   0  0  1  0  0  0  0  0  0  0  0  0
  196.9905  182.3119  157.8939 N   0  0  1  0  0  0  0  0  0  0  0  0
  197.2071  183.5302  158.6944 C   0  0  1  0  0  0  0  0  0  0  0  0
  196.0830  183.5121  159.7337 C   0  0  1  0  0  0  0  0  0  0  0  0
  194.9844  182.6507  159.1078 C   0  0  1  0  0  0  0  0  0  0  0  0
  195.5400  182.2378  157.7384 C   0  0  1  0  0  0  0  0  0  0  0  0
  201.2240  179.5218  155.4942 H   0  0  0  0  0  0  0  0  0  0  0  0
  202.2725  176.5107  155.5394 H   0  0  0  0  0  0  0  0  0  0  0  0
  200.7322  173.8439  152.4940 H   0  0  0  0  0  0  0  0  0  0  0  0
  202.0681  172.0281  153.5557 H   0  0  0  0  0  0  0  0  0  0  0  0
  203.3906  172.5395  155.6196 H   0  0  0  0  0  0  0  0  0  0  0  0
  198.7827  179.9364  150.8427 H   0  0  0  0  0  0  0  0  0  0  0  0
  198.0109  180.4330  148.5551 H   0  0  0  0  0  0  0  0  0  0  0  0
  197.8864  178.6223  146.8511 H   0  0  0  0  0  0  0  0  0  0  0  0
  198.5339  176.2998  147.4559 H   0  0  0  0  0  0  0  0  0  0  0  0
  199.3128  175.7793  149.7471 H   0  0  0  0  0  0  0  0  0  0  0  0
  198.7673  179.1550  152.9453 H   0  0  0  0  0  0  0  0  0  0  0  0
  198.9074  177.7809  155.8568 H   0  0  0  0  0  0  0  0  0  0  0  0
  200.6111  177.4235  156.0840 H   0  0  0  0  0  0  0  0  0  0  0  0
  198.7518  179.8155  157.0477 H   0  0  0  0  0  0  0  0  0  0  0  0
  200.3204  179.4612  157.6955 H   0  0  0  0  0  0  0  0  0  0  0  0
  198.9720  184.6678  156.7378 H   0  0  0  0  0  0  0  0  0  0  0  0
  201.3358  185.1919  157.1519 H   0  0  0  0  0  0  0  0  0  0  0  0
  202.9997  183.3604  157.4036 H   0  0  0  0  0  0  0  0  0  0  0  0
  202.2694  181.0007  157.2760 H   0  0  0  0  0  0  0  0  0  0  0  0
  197.3528  183.0226  155.9106 H   0  0  0  0  0  0  0  0  0  0  0  0
  197.5246  181.3090  156.0866 H   0  0  0  0  0  0  0  0  0  0  0  0
  198.1872  183.5794  159.1705 H   0  0  0  0  0  0  0  0  0  0  0  0
  197.0750  184.4108  158.0704 H   0  0  0  0  0  0  0  0  0  0  0  0
  196.4451  183.0560  160.6543 H   0  0  0  0  0  0  0  0  0  0  0  0
  195.7490  184.5219  159.9826 H   0  0  0  0  0  0  0  0  0  0  0  0
  194.8077  181.7705  159.7258 H   0  0  0  0  0  0  0  0  0  0  0  0
  194.0388  183.1842  159.0084 H   0  0  0  0  0  0  0  0  0  0  0  0
  195.2162  182.9594  156.9959 H   0  0  0  0  0  0  0  0  0  0  0  0
  195.1856  181.2524  157.4205 H   0  0  0  0  0  0  0  0  0  0  0  0
  197.2632  181.5291  158.4596 H   0  0  0  0  0  0  0  0  0  0  0  0
  199.7842  179.9231  154.8609 H   0  0  0  0  0  0  0  0  0  0  0  0
  1  2  1  0
  1  6  2  0
  2  3  2  0
  2 34  1  0
  3  4  1  0
  3  7  1  0
  4  5  2  0
  4 35  1  0
  5  6  1  0
  5 36  1  0
  6 37  1  0
  7  8  2  0
  7 17  1  0
  8  9  1  0
  9 10  1  0
  9 16  1  0
 10 11  2  0
 10 15  1  0
 11 12  1  0
 11 38  1  0
 12 13  2  0
 12 39  1  0
 13 14  1  0
 13 40  1  0
 14 15  2  0
 14 41  1  0
 15 42  1  0
 16 17  2  0
 16 43  1  0
 17 18  1  0
 18 19  1  0
 18 44  1  1
 18 45  1  0
 19 20  1  0
 19 33  1  6
 19 63  1  0
 20 21  1  0
 20 46  1  1
 20 47  1  0
 21 22  1  0
 21 26  2  0
 22 23  2  0
 22 27  1  0
 23 24  1  0
 23 48  1  0
 24 25  2  0
 24 49  1  0
 25 26  1  0
 25 50  1  0
 26 51  1  0
 27 28  1  0
 27 52  1  6
 27 53  1  0
 28 29  1  0
 28 32  1  0
 28 62  1  1
 29 30  1  0
 29 54  1  1
 29 55  1  0
 30 31  1  0
 30 56  1  1
 30 57  1  0
 31 32  1  0
 31 58  1  1
 31 59  1  0
 32 60  1  6
 32 61  1  0
M  CHG  2  19   1  28   1
M  END
>  <s_epik_cmdline>  (79) 
J2VwaWtfcHl0aG9uJywgJy1waCcsICc3LjAwMDAwMCcsICctcGh0JywgJzIuMDAwMDAwJywgJy1tcycsICcxNicsICctdG4nLCAnOCcsICctbWEnLCAnMjAwJywgJy1pbWFlJywgJzxpbmZpbGUubWFlPicsICctb21hZScsICc8b3V0ZmlsZS5tYWU+Jw==

>  <s_epik_input>  (79) 
W2NIXTFbY0hdW2NIXW5bY0hdYzEtYzJubigtYzNbY0hdW2NIXVtjSF1bY0hdW2NIXTMpW2NIXWMyW0NIMl1bTkhdW0NIMl1jNGMoW2NIXVtjSF1bY0hdW2NIXTQpW0NIMl1ONVtDSDJdW0NIMl1bQ0gyXVtDSDJdNQ==

>  <s_i_glide_gridfile>  (79) 
ATP-Grid

>  <s_lp_Force_Field>  (79) 
OPLS_2005

>  <s_lp_Variant>  (79) 
m_270004bbb____24793076____7547738-1

>  <s_lp_label>  (79) 
1194_sdstereoexpander_1_neutralizer_1_epik_1_stereoizer_1

>  <s_m_source_file>  (79) 
ATP-VSW-LIGPREP-003-in.maegz

>  <s_sd_BIOSOLVEIT.INFINISEE\_QUERY\_NAME>  (79) 
Ref-Lig

>  <s_sd_BIOSOLVEIT.INFINISEE\_QUERY\_SMILES>  (79) 
S(c1nc2c(cc1C[NH2+]Cc3ccc(cc3)C[NH+](C)C)cccc2)Cc4ccccc4

>  <s_sd_BIOSOLVEIT.INFINISEE\_REACTION\_NAME>  (79) 
m_270004bbb

>  <s_sd_BIOSOLVEIT.INFINISEE\_REAGENT1\_SMILES>  (79) 
[R1*]NCc1c(cccc1)CN2CCCC2

>  <s_sd_BIOSOLVEIT.INFINISEE\_REAGENT2\_SMILES>  (79) 
[R1*]CC=1C(=NN(c2ccccc2)C1)c3cnccc3

>  <s_sd_BIOSOLVEIT.INFINISEE\_SPACE>  (79) 
REALSpace_44bn_2023-08

>  <s_vsw_compound_code>  (79) 
38179

>  <s_vsw_variant>  (79) 
38179-1

>  <r_epik_Charging_Adjusted_Penalty>  (79) 
0.26911473279213699

>  <r_epik_Ionization_Penalty>  (79) 
0.1389

>  <r_epik_Ionization_Penalty_Charging>  (79) 
0.1358

>  <r_epik_Ionization_Penalty_Neutral>  (79) 
0.0030999999999999999

>  <r_epik_State_Penalty>  (79) 
0.1333

>  <r_i_docking_score>  (79) 
-4.1219980049364304

>  <r_i_glide_ecoul>  (79) 
-12.2842054367065

>  <r_i_glide_eff_state_penalty>  (79) 
0.1333

>  <r_i_glide_einternal>  (79) 
3.4927306175231898

>  <r_i_glide_emodel>  (79) 
-62.014341874127403

>  <r_i_glide_energy>  (79) 
-44.902010917663603

>  <r_i_glide_erotb>  (79) 
0.87630884457119895

>  <r_i_glide_esite>  (79) 
-0.069985242872294795

>  <r_i_glide_evdw>  (79) 
-32.617805480957003

>  <r_i_glide_gscore>  (79) 
-4.2552980049364297

>  <r_i_glide_hbond>  (79) 
0

>  <r_i_glide_ligand_efficiency>  (79) 
-0.12881243765426301

>  <r_i_glide_ligand_efficiency_ln>  (79) 
-0.92302771472719702

>  <r_i_glide_ligand_efficiency_sa>  (79) 
-0.40895399760548901

>  <r_i_glide_lipo>  (79) 
-1.0279258330656

>  <r_i_glide_metal>  (79) 
-0

>  <r_i_glide_rewards>  (79) 
-0.56017468401590098

>  <r_lp_Energy>  (79) 
43.261575999999998

>  <r_lp_tautomer_probability>  (79) 
1

>  <r_qp_ACxDN^.5/SA>  (79) 
0.0080780000000000001

>  <r_qp_CIQPlogS>  (79) 
-4.7489999999999997

>  <r_qp_EA(eV)>  (79) 
0.64900000000000002

>  <r_qp_FISA>  (79) 
17.949000000000002

>  <r_qp_FOSA>  (79) 
215.726

>  <r_qp_IP(eV)>  (79) 
8.8219999999999992

>  <r_qp_Jm>  (79) 
0.0075843755674513801

>  <r_qp_PISA>  (79) 
509.07999999999998

>  <r_qp_PSA>  (79) 
41.192999999999998

>  <r_qp_PercentHumanOralAbsorption>  (79) 
100

>  <r_qp_QPPCaco>  (79) 
416.38200000000001

>  <r_qp_QPPMDCK>  (79) 
234.869

>  <r_qp_QPlogBB>  (79) 
0.81699999999999995

>  <r_qp_QPlogHERG>  (79) 
-8.4770000000000003

>  <r_qp_QPlogKhsa>  (79) 
0.95599999999999996

>  <r_qp_QPlogKp>  (79) 
-3.6059999999999999

>  <r_qp_QPlogPC16>  (79) 
15.07

>  <r_qp_QPlogPo/w>  (79) 
4.9109999999999996

>  <r_qp_QPlogPoct>  (79) 
21.452000000000002

>  <r_qp_QPlogPw>  (79) 
11.143000000000001

>  <r_qp_QPlogS>  (79) 
-4.141

>  <r_qp_QPpolrz>  (79) 
50.442

>  <r_qp_SASA>  (79) 
742.75599999999997

>  <r_qp_SAamideO>  (79) 
0

>  <r_qp_SAfluorine>  (79) 
0

>  <r_qp_WPSA>  (79) 
0

>  <r_qp_accptHB>  (79) 
6

>  <r_qp_dip^2/V>  (79) 
0.0063813999999999997

>  <r_qp_dipole>  (79) 
2.9769999999999999

>  <r_qp_donorHB>  (79) 
1

>  <r_qp_glob>  (79) 
0.81055860000000002

>  <r_qp_mol_MW>  (79) 
423.56

>  <r_qp_volume>  (79) 
1388.9860000000001

>  <r_sd_BIOSOLVEIT.INFINISEE\_FTREES\_SIMILARITY>  (79) 
0.91100000000000003

>  <r_sd_BIOSOLVEIT.LOGP>  (79) 
2.3765999999999998

>  <r_sd_BIOSOLVEIT.MOLECULAR\_WEIGHT>  (79) 
425.577

>  <r_sd_BIOSOLVEIT.TPSA>  (79) 
51.759999999999998

>  <i_epik_Tot_Q>  (79) 
2

>  <i_epik_Tot_abs_Q>  (79) 
2

>  <i_f3d_flags>  (79) 
0

>  <i_i_glide_confnum>  (79) 
9

>  <i_i_glide_lignum>  (79) 
488

>  <i_i_glide_posenum>  (79) 
20

>  <i_i_glide_rotatable_bonds>  (79) 
8

>  <i_lp_mmshare_version>  (79) 
65135

>  <i_m_ct_format>  (79) 
2

>  <i_m_source_file_index>  (79) 
1194

>  <i_qp_#NandO>  (79) 
5

>  <i_qp_#acid>  (79) 
0

>  <i_qp_#amide>  (79) 
0

>  <i_qp_#amidine>  (79) 
0

>  <i_qp_#amine>  (79) 
2

>  <i_qp_#in34>  (79) 
0

>  <i_qp_#in56>  (79) 
28

>  <i_qp_#metab>  (79) 
7

>  <i_qp_#nonHatm>  (79) 
32

>  <i_qp_#noncon>  (79) 
4

>  <i_qp_#ringatoms>  (79) 
28

>  <i_qp_#rotor>  (79) 
6

>  <i_qp_#rtvFG>  (79) 
0

>  <i_qp_#stars>  (79) 
1

>  <i_qp_CNS>  (79) 
2

>  <i_qp_HumanOralAbsorption>  (79) 
3

>  <i_qp_RuleOfFive>  (79) 
0

>  <i_qp_RuleOfThree>  (79) 
1

>  <i_sd_BIOSOLVEIT.INFINISEE\_REAGENT1\_NAME>  (79) 
24793076

>  <i_sd_BIOSOLVEIT.INFINISEE\_REAGENT2\_NAME>  (79) 
7547738

>  <i_sd_BIOSOLVEIT.INFINISEE\_RESULT\_RANK>  (79) 
39764

>  <i_sd_version>  (79) 
0

>  <b_lp_Chiralities_Consistent>  (79) 
1

>  <b_sd_chiral_flag>  (79) 
0

>  <canonical_id>  (79) 
ATP-HTVS-0CC0B448CED2

>  <compound_code>  (79) 
38179

>  <title>  (79) 
m_270004bbb____24793076____7547738

>  <variant>  (79) 
38179-1

>  <source_file>  (79) 
运行/运行/ATP-VSW/ATP-VSW-DOCK_HTVS_1-003_lib/ATP-VSW-DOCK_HTVS_1-003_lib.mae

>  <canonical_smiles>  (79) 
c1ccc(-n2cc(C[NH2+]Cc3ccccc3C[NH+]3CCCC3)c(-c3cccnc3)n2)cc1

>  <scaffold>  (79) 
c1ccc(-n2cc(C[NH2+]Cc3ccccc3C[NH+]3CCCC3)c(-c3cccnc3)n2)cc1

>  <molecular_formula>  (79) 
C27H31N5+2

$$$$
ATP-HTVS-0CD00DCFE488
     RDKit          3D

 66 69  0  0  0  0  0  0  0  0999 V2000
  198.2251  177.8240  146.4570 Cl  0  0  0  0  0  0  0  0  0  0  0  0
  197.9576  178.5637  147.9936 C   0  0  0  0  0  0  0  0  0  0  0  0
  196.6501  178.8209  148.4408 C   0  0  0  0  0  0  0  0  0  0  0  0
  196.4419  179.4381  149.6961 C   0  0  0  0  0  0  0  0  0  0  0  0
  197.5409  179.8319  150.4879 C   0  0  0  0  0  0  0  0  0  0  0  0
  197.2579  180.3583  151.7300 O   0  0  0  0  0  0  0  0  0  0  0  0
  198.3168  180.8435  152.5477 C   0  0  1  0  0  0  0  0  0  0  0  0
  199.0200  179.6790  153.1814 C   0  0  0  0  0  0  0  0  0  0  0  0
  200.0050  179.0280  152.5606 N   0  0  0  0  0  0  0  0  0  0  0  0
  200.3210  178.0353  153.4453 C   0  0  0  0  0  0  0  0  0  0  0  0
  199.5662  178.1299  154.6662 C   0  0  0  0  0  0  0  0  0  0  0  0
  198.7193  179.2114  154.4405 N   0  0  0  0  0  0  0  0  0  0  0  0
  197.7373  179.7322  155.3755 C   0  0  1  0  0  0  0  0  0  0  0  0
  198.2680  180.9879  156.0658 C   0  0  0  0  0  0  0  0  0  0  0  0
  199.1471  180.9115  156.9233 O   0  0  0  0  0  0  0  0  0  0  0  0
  197.7369  182.1520  155.6695 N   0  0  0  0  0  0  0  0  0  0  0  0
  198.0284  183.4456  156.2585 C   0  0  1  0  0  0  0  0  0  0  0  0
  197.0709  183.8221  157.3795 C   0  0  0  0  0  0  0  0  0  0  0  0
  196.7762  185.1808  157.5590 C   0  0  0  0  0  0  0  0  0  0  0  0
  195.9397  185.6102  158.6062 C   0  0  0  0  0  0  0  0  0  0  0  0
  195.3489  184.6529  159.4616 C   0  0  0  0  0  0  0  0  0  0  0  0
  195.6209  183.2808  159.2727 C   0  0  0  0  0  0  0  0  0  0  0  0
  196.4865  182.8638  158.2441 C   0  0  0  0  0  0  0  0  0  0  0  0
  195.6428  187.0914  158.7693 C   0  0  1  0  0  0  0  0  0  0  0  0
  196.7705  187.9398  159.1908 N   0  0  0  0  0  0  0  0  0  0  0  0
  197.9482  187.9111  158.2940 C   0  0  2  0  0  0  0  0  0  0  0  0
  199.1533  188.6940  158.8653 C   0  0  2  0  0  0  0  0  0  0  0  0
  197.6008  188.4827  156.9018 C   0  0  2  0  0  0  0  0  0  0  0  0
  197.1222  187.5543  160.5509 C   0  0  2  0  0  0  0  0  0  0  0  0
  199.7681  177.2308  155.7356 C   0  0  0  0  0  0  0  0  0  0  0  0
  200.7338  176.1958  155.5997 C   0  0  0  0  0  0  0  0  0  0  0  0
  201.4560  176.0602  154.3938 C   0  0  0  0  0  0  0  0  0  0  0  0
  201.2512  176.9598  153.3338 C   0  0  0  0  0  0  0  0  0  0  0  0
  198.8569  179.6338  149.9998 C   0  0  0  0  0  0  0  0  0  0  0  0
  199.0575  178.9587  148.7800 C   0  0  0  0  0  0  0  0  0  0  0  0
  195.8064  178.5543  147.8197 H   0  0  0  0  0  0  0  0  0  0  0  0
  195.4303  179.6143  150.0535 H   0  0  0  0  0  0  0  0  0  0  0  0
  199.0402  181.4362  151.9889 H   0  0  0  0  0  0  0  0  0  0  0  0
  197.8868  181.5092  153.2881 H   0  0  0  0  0  0  0  0  0  0  0  0
  196.7974  179.9292  154.8630 H   0  0  0  0  0  0  0  0  0  0  0  0
  197.5114  178.9748  156.1235 H   0  0  0  0  0  0  0  0  0  0  0  0
  197.0332  182.1469  154.9447 H   0  0  0  0  0  0  0  0  0  0  0  0
  199.0536  183.5000  156.6313 H   0  0  0  0  0  0  0  0  0  0  0  0
  197.9672  184.1915  155.4642 H   0  0  0  0  0  0  0  0  0  0  0  0
  197.2065  185.9034  156.8795 H   0  0  0  0  0  0  0  0  0  0  0  0
  194.6798  184.9628  160.2592 H   0  0  0  0  0  0  0  0  0  0  0  0
  195.1624  182.5350  159.9034 H   0  0  0  0  0  0  0  0  0  0  0  0
  196.6878  181.8057  158.1311 H   0  0  0  0  0  0  0  0  0  0  0  0
  195.2134  187.4370  157.8275 H   0  0  0  0  0  0  0  0  0  0  0  0
  194.8491  187.1951  159.5067 H   0  0  0  0  0  0  0  0  0  0  0  0
  198.2814  186.8734  158.1815 H   0  0  0  0  0  0  0  0  0  0  0  0
  199.9534  188.7316  158.1260 H   0  0  0  0  0  0  0  0  0  0  0  0
  199.5809  188.1769  159.7230 H   0  0  0  0  0  0  0  0  0  0  0  0
  198.9031  189.7176  159.1588 H   0  0  0  0  0  0  0  0  0  0  0  0
  198.4900  188.5078  156.2761 H   0  0  0  0  0  0  0  0  0  0  0  0
  197.2196  189.4994  156.9669 H   0  0  0  0  0  0  0  0  0  0  0  0
  196.8615  187.8925  156.3631 H   0  0  0  0  0  0  0  0  0  0  0  0
  197.8381  188.2509  160.9836 H   0  0  0  0  0  0  0  0  0  0  0  0
  197.5507  186.5529  160.5600 H   0  0  0  0  0  0  0  0  0  0  0  0
  196.2602  187.5593  161.2207 H   0  0  0  0  0  0  0  0  0  0  0  0
  199.2004  177.3288  156.6495 H   0  0  0  0  0  0  0  0  0  0  0  0
  200.9182  175.5063  156.4166 H   0  0  0  0  0  0  0  0  0  0  0  0
  202.1919  175.2748  154.2771 H   0  0  0  0  0  0  0  0  0  0  0  0
  201.7939  176.8712  152.4048 H   0  0  0  0  0  0  0  0  0  0  0  0
  199.7285  179.9411  150.5674 H   0  0  0  0  0  0  0  0  0  0  0  0
  200.0674  178.7522  148.4555 H   0  0  0  0  0  0  0  0  0  0  0  0
  1  2  1  0
  2  3  1  0
  2 35  2  0
  3  4  2  0
  3 36  1  0
  4  5  1  0
  4 37  1  0
  5  6  1  0
  5 34  2  0
  6  7  1  0
  7  8  1  0
  7 38  1  6
  7 39  1  0
  8  9  2  0
  8 12  1  0
  9 10  1  0
 10 11  1  0
 10 33  2  0
 11 12  1  0
 11 30  2  0
 12 13  1  0
 13 14  1  0
 13 40  1  6
 13 41  1  0
 14 15  2  0
 14 16  1  0
 16 17  1  0
 16 42  1  0
 17 18  1  0
 17 43  1  1
 17 44  1  0
 18 19  2  0
 18 23  1  0
 19 20  1  0
 19 45  1  0
 20 21  2  0
 20 24  1  0
 21 22  1  0
 21 46  1  0
 22 23  2  0
 22 47  1  0
 23 48  1  0
 24 25  1  0
 24 49  1  6
 24 50  1  0
 25 26  1  0
 25 29  1  0
 26 27  1  0
 26 28  1  0
 26 51  1  6
 27 52  1  6
 27 53  1  0
 27 54  1  0
 28 55  1  6
 28 56  1  0
 28 57  1  0
 29 58  1  1
 29 59  1  0
 29 60  1  0
 30 31  1  0
 30 61  1  0
 31 32  2  0
 31 62  1  0
 32 33  1  0
 32 63  1  0
 33 64  1  0
 34 35  1  0
 34 65  1  0
 35 66  1  0
M  END
>  <s_epik_cmdline>  (80) 
J2VwaWtfcHl0aG9uJywgJy1waCcsICc3LjAwMDAwMCcsICctcGh0JywgJzIuMDAwMDAwJywgJy1tcycsICcxNicsICctdG4nLCAnOCcsICctbWEnLCAnMjAwJywgJy1pbWFlJywgJzxpbmZpbGUubWFlPicsICctb21hZScsICc8b3V0ZmlsZS5tYWU+Jw==

>  <s_epik_input>  (80) 
Q2xjMVtjSF1bY0hdYyhbY0hdW2NIXTEpT1tDSDJdYyhuMiluKGMoYzIzKVtjSF1bY0hdW2NIXVtjSF0zKVtDSDJdQyg9TylbTkhdW0NIMl1jNFtjSF1jKFtjSF1bY0hdW2NIXTQpW0NIMl1OKFtDSDNdKVtDSF0oW0NIM10pW0NIM10=

>  <s_i_glide_gridfile>  (80) 
ATP-Grid

>  <s_lp_Force_Field>  (80) 
OPLS_2005

>  <s_lp_Variant>  (80) 
m_22bbg____4595258____4713108-5

>  <s_lp_label>  (80) 
1447_sdstereoexpander_1_neutralizer_1_epik_3_stereoizer_1

>  <s_m_source_file>  (80) 
ATP-VSW-LIGPREP-001-in.maegz

>  <s_sd_BIOSOLVEIT.INFINISEE\_QUERY\_NAME>  (80) 
Ref-Lig

>  <s_sd_BIOSOLVEIT.INFINISEE\_QUERY\_SMILES>  (80) 
S(c1nc2c(cc1C[NH2+]Cc3ccc(cc3)C[NH+](C)C)cccc2)Cc4ccccc4

>  <s_sd_BIOSOLVEIT.INFINISEE\_REACTION\_NAME>  (80) 
m_22bbg

>  <s_sd_BIOSOLVEIT.INFINISEE\_REAGENT1\_SMILES>  (80) 
[R1*]NCc1cc(ccc1)CN(C(C)C)C

>  <s_sd_BIOSOLVEIT.INFINISEE\_REAGENT2\_SMILES>  (80) 
[R1*]C(=O)CN1c2c(N=C1COc3ccc(Cl)cc3)cccc2

>  <s_sd_BIOSOLVEIT.INFINISEE\_SPACE>  (80) 
REALSpace_44bn_2023-08

>  <s_vsw_compound_code>  (80) 
46273

>  <s_vsw_variant>  (80) 
46273-5

>  <r_epik_Charging_Adjusted_Penalty>  (80) 
2.16807162829847

>  <r_epik_Ionization_Penalty>  (80) 
2.1682999999999999

>  <r_epik_Ionization_Penalty_Charging>  (80) 
0

>  <r_epik_Ionization_Penalty_Neutral>  (80) 
2.1682999999999999

>  <r_epik_State_Penalty>  (80) 
2.1680999999999999

>  <r_i_docking_score>  (80) 
-0.72747140303526603

>  <r_i_glide_ecoul>  (80) 
-1.3817181587219201

>  <r_i_glide_eff_state_penalty>  (80) 
2.1680999999999999

>  <r_i_glide_einternal>  (80) 
2.6284334659576398

>  <r_i_glide_emodel>  (80) 
-44.628343818208002

>  <r_i_glide_energy>  (80) 
-38.644299030303998

>  <r_i_glide_erotb>  (80) 
0.84422494974017404

>  <r_i_glide_esite>  (80) 
-0.096734337845569604

>  <r_i_glide_evdw>  (80) 
-37.262580871582003

>  <r_i_glide_gscore>  (80) 
-2.8955714030352699

>  <r_i_glide_hbond>  (80) 
0

>  <r_i_glide_ligand_efficiency>  (80) 
-0.020784897229578998

>  <r_i_glide_ligand_efficiency_ln>  (80) 
-0.15969611832414199

>  <r_i_glide_ligand_efficiency_sa>  (80) 
-0.067988777007833595

>  <r_i_glide_lipo>  (80) 
-1.5114755202697501

>  <r_i_glide_metal>  (80) 
-0

>  <r_i_glide_rewards>  (80) 
-0.061199727272726399

>  <r_lp_Energy>  (80) 
24.937054

>  <r_lp_tautomer_probability>  (80) 
1

>  <r_qp_ACxDN^.5/SA>  (80) 
0.0089376999999999998

>  <r_qp_CIQPlogS>  (80) 
-6.0709999999999997

>  <r_qp_EA(eV)>  (80) 
0.24399999999999999

>  <r_qp_FISA>  (80) 
65.932000000000002

>  <r_qp_FOSA>  (80) 
292.01499999999999

>  <r_qp_IP(eV)>  (80) 
8.6649999999999991

>  <r_qp_Jm>  (80) 
0.149210546796399

>  <r_qp_PISA>  (80) 
347.96300000000002

>  <r_qp_PSA>  (80) 
61.212000000000003

>  <r_qp_PercentHumanOralAbsorption>  (80) 
100

>  <r_qp_QPPCaco>  (80) 
346.44799999999998

>  <r_qp_QPPMDCK>  (80) 
571.69000000000005

>  <r_qp_QPlogBB>  (80) 
-0.159

>  <r_qp_QPlogHERG>  (80) 
-5.3090000000000002

>  <r_qp_QPlogKhsa>  (80) 
0.54500000000000004

>  <r_qp_QPlogKp>  (80) 
-2.6110000000000002

>  <r_qp_QPlogPC16>  (80) 
15.308

>  <r_qp_QPlogPo/w>  (80) 
4.702

>  <r_qp_QPlogPoct>  (80) 
22.166

>  <r_qp_QPlogPw>  (80) 
12.396000000000001

>  <r_qp_QPlogS>  (80) 
-3.9060000000000001

>  <r_qp_QPpolrz>  (80) 
49.701999999999998

>  <r_qp_SASA>  (80) 
755.226

>  <r_qp_SAamideO>  (80) 
28.635000000000002

>  <r_qp_SAfluorine>  (80) 
0

>  <r_qp_WPSA>  (80) 
49.317

>  <r_qp_accptHB>  (80) 
6.75

>  <r_qp_dip^2/V>  (80) 
0.032701099999999997

>  <r_qp_dipole>  (80) 
6.9409999999999998

>  <r_qp_donorHB>  (80) 
1

>  <r_qp_glob>  (80) 
0.82904310000000003

>  <r_qp_mol_MW>  (80) 
491.03100000000001

>  <r_qp_volume>  (80) 
1473.104

>  <r_sd_BIOSOLVEIT.INFINISEE\_FTREES\_SIMILARITY>  (80) 
0.90800000000000003

>  <r_sd_BIOSOLVEIT.LOGP>  (80) 
4.0082000000000004

>  <r_sd_BIOSOLVEIT.MOLECULAR\_WEIGHT>  (80) 
492.04000000000002

>  <r_sd_BIOSOLVEIT.TPSA>  (80) 
60.590000000000003

>  <i_epik_Tot_Q>  (80) 
0

>  <i_epik_Tot_abs_Q>  (80) 
0

>  <i_f3d_flags>  (80) 
0

>  <i_i_glide_confnum>  (80) 
10

>  <i_i_glide_lignum>  (80) 
377

>  <i_i_glide_posenum>  (80) 
18

>  <i_i_glide_rotatable_bonds>  (80) 
11

>  <i_lp_mmshare_version>  (80) 
65135

>  <i_m_ct_format>  (80) 
2

>  <i_m_source_file_index>  (80) 
1447

>  <i_qp_#NandO>  (80) 
6

>  <i_qp_#acid>  (80) 
0

>  <i_qp_#amide>  (80) 
1

>  <i_qp_#amidine>  (80) 
0

>  <i_qp_#amine>  (80) 
1

>  <i_qp_#in34>  (80) 
0

>  <i_qp_#in56>  (80) 
21

>  <i_qp_#metab>  (80) 
6

>  <i_qp_#nonHatm>  (80) 
35

>  <i_qp_#noncon>  (80) 
0

>  <i_qp_#ringatoms>  (80) 
21

>  <i_qp_#rotor>  (80) 
10

>  <i_qp_#rtvFG>  (80) 
0

>  <i_qp_#stars>  (80) 
0

>  <i_qp_CNS>  (80) 
1

>  <i_qp_HumanOralAbsorption>  (80) 
3

>  <i_qp_RuleOfFive>  (80) 
0

>  <i_qp_RuleOfThree>  (80) 
0

>  <i_sd_BIOSOLVEIT.INFINISEE\_REAGENT1\_NAME>  (80) 
4595258

>  <i_sd_BIOSOLVEIT.INFINISEE\_REAGENT2\_NAME>  (80) 
4713108

>  <i_sd_BIOSOLVEIT.INFINISEE\_RESULT\_RANK>  (80) 
55745

>  <i_sd_version>  (80) 
0

>  <b_lp_Chiralities_Consistent>  (80) 
1

>  <b_sd_chiral_flag>  (80) 
0

>  <canonical_id>  (80) 
ATP-HTVS-0CD00DCFE488

>  <compound_code>  (80) 
46273

>  <title>  (80) 
m_22bbg____4595258____4713108

>  <variant>  (80) 
46273-5

>  <source_file>  (80) 
运行/运行/ATP-VSW/ATP-VSW-DOCK_HTVS_1-001_lib/ATP-VSW-DOCK_HTVS_1-001_lib

>  <canonical_smiles>  (80) 
CC(C)N(C)Cc1cccc(CNC(=O)Cn2c(COc3ccc(Cl)cc3)nc3ccccc32)c1

>  <scaffold>  (80) 
O=C(Cn1c(COc2ccccc2)nc2ccccc21)NCc1ccccc1

>  <molecular_formula>  (80) 
C28H31ClN4O2

$$$$
ATP-HTVS-0CE67B896AED
     RDKit          3D

 54 57  0  0  0  0  0  0  0  0999 V2000
  200.9521  185.9041  156.2626 F   0  0  0  0  0  0  0  0  0  0  0  0
  200.9073  185.3322  157.4906 C   0  0  0  0  0  0  0  0  0  0  0  0
  199.7321  184.7271  158.0195 C   0  0  0  0  0  0  0  0  0  0  0  0
  198.4930  184.6714  157.3235 N   0  0  0  0  0  0  0  0  0  0  0  0
  197.3087  184.0692  157.7744 C   0  0  0  0  0  0  0  0  0  0  0  0
  196.5091  184.7716  158.7388 C   0  0  0  0  0  0  0  0  0  0  0  0
  195.2611  184.2085  159.1252 C   0  0  0  0  0  0  0  0  0  0  0  0
  194.8143  183.0421  158.6489 N   0  0  0  0  0  0  0  0  0  0  0  0
  195.5805  182.3601  157.7703 C   0  0  0  0  0  0  0  0  0  0  0  0
  196.8449  182.8076  157.3033 C   0  0  0  0  0  0  0  0  0  0  0  0
  197.6002  181.9230  156.2999 C   0  0  0  0  0  0  0  0  0  0  0  0
  198.5734  182.3533  155.7011 O   0  0  0  0  0  0  0  0  0  0  0  0
  197.1244  180.6856  156.1380 N   0  0  0  0  0  0  0  0  0  0  0  0
  197.6197  179.7761  155.1111 C   0  0  1  0  0  0  0  0  0  0  0  0
  197.2650  180.2181  153.6812 C   0  0  0  0  0  0  0  0  0  0  0  0
  197.6553  179.4274  152.5790 C   0  0  0  0  0  0  0  0  0  0  0  0
  197.3480  179.8095  151.2562 C   0  0  0  0  0  0  0  0  0  0  0  0
  197.7100  178.9473  150.2051 N   0  0  0  0  0  0  0  0  0  0  0  0
  197.4940  179.3967  148.8450 C   0  0  2  0  0  0  0  0  0  0  0  0
  196.6865  181.0324  151.0216 C   0  0  0  0  0  0  0  0  0  0  0  0
  196.3125  181.8447  152.1176 C   0  0  0  0  0  0  0  0  0  0  0  0
  196.5680  181.4321  153.4436 C   0  0  0  0  0  0  0  0  0  0  0  0
  194.4592  184.8834  160.0557 C   0  0  0  0  0  0  0  0  0  0  0  0
  194.8875  186.0917  160.6524 C   0  0  0  0  0  0  0  0  0  0  0  0
  196.1050  186.6635  160.2515 C   0  0  0  0  0  0  0  0  0  0  0  0
  196.5201  187.8270  160.8210 F   0  0  0  0  0  0  0  0  0  0  0  0
  196.9040  186.0121  159.2905 C   0  0  0  0  0  0  0  0  0  0  0  0
  198.3729  185.2706  155.9909 C   0  0  2  0  0  0  0  0  0  0  0  0
  199.8051  184.1452  159.3060 C   0  0  0  0  0  0  0  0  0  0  0  0
  200.9939  184.1826  160.0646 C   0  0  0  0  0  0  0  0  0  0  0  0
  202.1403  184.7972  159.5363 C   0  0  0  0  0  0  0  0  0  0  0  0
  202.0962  185.3579  158.2532 C   0  0  0  0  0  0  0  0  0  0  0  0
  195.1038  181.4535  157.4125 H   0  0  0  0  0  0  0  0  0  0  0  0
  196.4942  180.2736  156.8107 H   0  0  0  0  0  0  0  0  0  0  0  0
  198.7049  179.6630  155.2139 H   0  0  0  0  0  0  0  0  0  0  0  0
  197.1770  178.8076  155.3360 H   0  0  0  0  0  0  0  0  0  0  0  0
  198.2059  178.5130  152.7587 H   0  0  0  0  0  0  0  0  0  0  0  0
  198.2889  178.1214  150.3752 H   0  0  0  0  0  0  0  0  0  0  0  0
  197.8911  178.6935  148.1052 H   0  0  0  0  0  0  0  0  0  0  0  0
  197.9792  180.3653  148.6883 H   0  0  0  0  0  0  0  0  0  0  0  0
  196.4226  179.5214  148.6615 H   0  0  0  0  0  0  0  0  0  0  0  0
  196.4279  181.3875  150.0337 H   0  0  0  0  0  0  0  0  0  0  0  0
  195.8193  182.7802  151.9307 H   0  0  0  0  0  0  0  0  0  0  0  0
  196.2327  182.0671  154.2719 H   0  0  0  0  0  0  0  0  0  0  0  0
  193.5265  184.4439  160.3694 H   0  0  0  0  0  0  0  0  0  0  0  0
  194.2886  186.5730  161.4227 H   0  0  0  0  0  0  0  0  0  0  0  0
  197.8240  186.4834  159.0125 H   0  0  0  0  0  0  0  0  0  0  0  0
  197.3855  185.1174  155.5468 H   0  0  0  0  0  0  0  0  0  0  0  0
  199.0896  184.7969  155.3219 H   0  0  0  0  0  0  0  0  0  0  0  0
  198.5670  186.3474  155.9843 H   0  0  0  0  0  0  0  0  0  0  0  0
  198.9403  183.6674  159.7379 H   0  0  0  0  0  0  0  0  0  0  0  0
  201.0211  183.7511  161.0572 H   0  0  0  0  0  0  0  0  0  0  0  0
  203.0514  184.8442  160.1122 H   0  0  0  0  0  0  0  0  0  0  0  0
  202.9719  185.8347  157.8315 H   0  0  0  0  0  0  0  0  0  0  0  0
  1  2  1  0
  2  3  1  0
  2 32  2  0
  3  4  1  0
  3 29  2  0
  4  5  1  0
  4 28  1  0
  5  6  1  0
  5 10  2  0
  6  7  1  0
  6 27  2  0
  7  8  1  0
  7 23  2  0
  8  9  2  0
  9 10  1  0
  9 33  1  0
 10 11  1  0
 11 12  2  0
 11 13  1  0
 13 14  1  0
 13 34  1  0
 14 15  1  0
 14 35  1  6
 14 36  1  0
 15 16  1  0
 15 22  2  0
 16 17  2  0
 16 37  1  0
 17 18  1  0
 17 20  1  0
 18 19  1  0
 18 38  1  0
 19 39  1  6
 19 40  1  0
 19 41  1  0
 20 21  2  0
 20 42  1  0
 21 22  1  0
 21 43  1  0
 22 44  1  0
 23 24  1  0
 23 45  1  0
 24 25  2  0
 24 46  1  0
 25 26  1  0
 25 27  1  0
 27 47  1  0
 28 48  1  6
 28 49  1  0
 28 50  1  0
 29 30  1  0
 29 51  1  0
 30 31  2  0
 30 52  1  0
 31 32  1  0
 31 53  1  0
 32 54  1  0
M  END
>  <s_epik_cmdline>  (81) 
J2VwaWtfcHl0aG9uJywgJy1waCcsICc3LjAwMDAwMCcsICctcGh0JywgJzIuMDAwMDAwJywgJy1tcycsICcxNicsICctdG4nLCAnOCcsICctbWEnLCAnMjAwJywgJy1pbWFlJywgJzxpbmZpbGUubWFlPicsICctb21hZScsICc8b3V0ZmlsZS5tYWU+Jw==

>  <s_epik_input>  (81) 
RmMoW2NIXTEpW2NIXVtjSF1jKGMxMiluW2NIXWMoYzJOKFtDSDNdKWMoYzNGKVtjSF1bY0hdW2NIXVtjSF0zKUMoPU8pW05IXVtDSDJdYzRbY0hdYyhbTkhdW0NIM10pW2NIXVtjSF1bY0hdNA==

>  <s_i_glide_gridfile>  (81) 
ATP-Grid

>  <s_lp_Force_Field>  (81) 
OPLS_2005

>  <s_lp_Variant>  (81) 
rxn512c____EMOL2726699____EMOL36725275____EMOL45491381-1

>  <s_lp_label>  (81) 
3121_sdstereoexpander_1_neutralizer_1_epik_1_stereoizer_1

>  <s_m_source_file>  (81) 
ATP-VSW-LIGPREP-002-in.maegz

>  <s_sd_BIOSOLVEIT.INFINISEE\_QUERY\_NAME>  (81) 
Ref-Lig

>  <s_sd_BIOSOLVEIT.INFINISEE\_QUERY\_SMILES>  (81) 
S(c1nc2c(cc1C[NH2+]Cc3ccc(cc3)C[NH+](C)C)cccc2)Cc4ccccc4

>  <s_sd_BIOSOLVEIT.INFINISEE\_REACTION\_NAME>  (81) 
rxn512c

>  <s_sd_BIOSOLVEIT.INFINISEE\_REAGENT1\_NAME>  (81) 
EMOL2726699

>  <s_sd_BIOSOLVEIT.INFINISEE\_REAGENT1\_SMILES>  (81) 
Fc1c(NC)cccc1

>  <s_sd_BIOSOLVEIT.INFINISEE\_REAGENT2\_NAME>  (81) 
EMOL36725275

>  <s_sd_BIOSOLVEIT.INFINISEE\_REAGENT2\_SMILES>  (81) 
Clc1c2c(ncc1C(=O)O)ccc(F)c2

>  <s_sd_BIOSOLVEIT.INFINISEE\_REAGENT3\_NAME>  (81) 
EMOL45491381

>  <s_sd_BIOSOLVEIT.INFINISEE\_REAGENT3\_SMILES>  (81) 
N(c1cc(ccc1)CN)C

>  <s_sd_BIOSOLVEIT.INFINISEE\_SPACE>  (81) 
eXplore_7tr_2022-12

>  <s_vsw_compound_code>  (81) 
99842

>  <s_vsw_variant>  (81) 
99842-1

>  <r_epik_Charging_Adjusted_Penalty>  (81) 
0

>  <r_epik_Ionization_Penalty>  (81) 
0.0047000000000000002

>  <r_epik_Ionization_Penalty_Charging>  (81) 
0

>  <r_epik_Ionization_Penalty_Neutral>  (81) 
0.0047000000000000002

>  <r_epik_State_Penalty>  (81) 
-0

>  <r_i_docking_score>  (81) 
-4.5062960494292303

>  <r_i_glide_ecoul>  (81) 
-4.3198785781860396

>  <r_i_glide_eff_state_penalty>  (81) 
-0

>  <r_i_glide_einternal>  (81) 
4.1270408630371103

>  <r_i_glide_emodel>  (81) 
-50.587112004385602

>  <r_i_glide_energy>  (81) 
-40.148362159728997

>  <r_i_glide_erotb>  (81) 
0.63837366860538503

>  <r_i_glide_esite>  (81) 
-0.14066057825419701

>  <r_i_glide_evdw>  (81) 
-35.828483581542997

>  <r_i_glide_gscore>  (81) 
-4.5062960494292303

>  <r_i_glide_hbond>  (81) 
-0.16

>  <r_i_glide_ligand_efficiency>  (81) 
-0.140821751544663

>  <r_i_glide_ligand_efficiency_ln>  (81) 
-1.0090825224581801

>  <r_i_glide_ligand_efficiency_sa>  (81) 
-0.44708119256751799

>  <r_i_glide_lipo>  (81) 
-1.7734416533113

>  <r_i_glide_metal>  (81) 
-0

>  <r_i_glide_rewards>  (81) 
-0.63116152066405795

>  <r_lp_Energy>  (81) 
31.368691999999999

>  <r_lp_tautomer_probability>  (81) 
1

>  <r_qp_ACxDN^.5/SA>  (81) 
0.0111009

>  <r_qp_CIQPlogS>  (81) 
-7.2460000000000004

>  <r_qp_EA(eV)>  (81) 
1.4279999999999999

>  <r_qp_FISA>  (81) 
71.010000000000005

>  <r_qp_FOSA>  (81) 
158.28700000000001

>  <r_qp_IP(eV)>  (81) 
8.1989999999999998

>  <r_qp_Jm>  (81) 
0.200432534863793

>  <r_qp_PISA>  (81) 
341.92099999999999

>  <r_qp_PSA>  (81) 
58.314999999999998

>  <r_qp_PercentHumanOralAbsorption>  (81) 
100

>  <r_qp_QPPCaco>  (81) 
2101.4360000000001

>  <r_qp_QPPMDCK>  (81) 
2530.5390000000002

>  <r_qp_QPlogBB>  (81) 
-0.26000000000000001

>  <r_qp_QPlogHERG>  (81) 
-5.2370000000000001

>  <r_qp_QPlogKhsa>  (81) 
0.70999999999999996

>  <r_qp_QPlogKp>  (81) 
-1.048

>  <r_qp_QPlogPC16>  (81) 
12.609

>  <r_qp_QPlogPo/w>  (81) 
4.9400000000000004

>  <r_qp_QPlogPoct>  (81) 
20.696000000000002

>  <r_qp_QPlogPw>  (81) 
10.615

>  <r_qp_QPlogS>  (81) 
-5.2859999999999996

>  <r_qp_QPpolrz>  (81) 
42.503

>  <r_qp_SASA>  (81) 
636.98199999999997

>  <r_qp_SAamideO>  (81) 
0

>  <r_qp_SAfluorine>  (81) 
65.765000000000001

>  <r_qp_WPSA>  (81) 
65.765000000000001

>  <r_qp_accptHB>  (81) 
5

>  <r_qp_dip^2/V>  (81) 
0.050644700000000001

>  <r_qp_dipole>  (81) 
7.8940000000000001

>  <r_qp_donorHB>  (81) 
2

>  <r_qp_glob>  (81) 
0.87180919999999995

>  <r_qp_mol_MW>  (81) 
432.47199999999998

>  <r_qp_volume>  (81) 
1230.4829999999999

>  <r_sd_BIOSOLVEIT.INFINISEE\_FTREES\_SIMILARITY>  (81) 
0.90100000000000002

>  <r_sd_BIOSOLVEIT.LOGP>  (81) 
5.2526000000000002

>  <r_sd_BIOSOLVEIT.MOLECULAR\_WEIGHT>  (81) 
432.47199999999998

>  <r_sd_BIOSOLVEIT.TPSA>  (81) 
57.259999999999998

>  <i_epik_Tot_Q>  (81) 
0

>  <i_epik_Tot_abs_Q>  (81) 
0

>  <i_f3d_flags>  (81) 
0

>  <i_i_glide_confnum>  (81) 
6

>  <i_i_glide_lignum>  (81) 
156

>  <i_i_glide_posenum>  (81) 
10

>  <i_i_glide_rotatable_bonds>  (81) 
7

>  <i_lp_mmshare_version>  (81) 
65135

>  <i_m_ct_format>  (81) 
2

>  <i_m_source_file_index>  (81) 
3121

>  <i_qp_#NandO>  (81) 
5

>  <i_qp_#acid>  (81) 
0

>  <i_qp_#amide>  (81) 
0

>  <i_qp_#amidine>  (81) 
0

>  <i_qp_#amine>  (81) 
0

>  <i_qp_#in34>  (81) 
0

>  <i_qp_#in56>  (81) 
22

>  <i_qp_#metab>  (81) 
7

>  <i_qp_#nonHatm>  (81) 
32

>  <i_qp_#noncon>  (81) 
0

>  <i_qp_#ringatoms>  (81) 
22

>  <i_qp_#rotor>  (81) 
6

>  <i_qp_#rtvFG>  (81) 
0

>  <i_qp_#stars>  (81) 
0

>  <i_qp_CNS>  (81) 
0

>  <i_qp_HumanOralAbsorption>  (81) 
3

>  <i_qp_RuleOfFive>  (81) 
0

>  <i_qp_RuleOfThree>  (81) 
1

>  <i_sd_BIOSOLVEIT.INFINISEE\_RESULT\_RANK>  (81) 
99414

>  <i_sd_version>  (81) 
0

>  <b_lp_Chiralities_Consistent>  (81) 
1

>  <b_sd_chiral_flag>  (81) 
0

>  <canonical_id>  (81) 
ATP-HTVS-0CE67B896AED

>  <compound_code>  (81) 
99842

>  <title>  (81) 
rxn512c____EMOL2726699____EMOL36725275____EMOL45491381

>  <variant>  (81) 
99842-1

>  <source_file>  (81) 
运行/运行/ATP-VSW/ATP-VSW-DOCK_HTVS_1-003_lib/ATP-VSW-DOCK_HTVS_1-003_lib.mae

>  <canonical_smiles>  (81) 
CNc1cccc(CNC(=O)c2cnc3ccc(F)cc3c2N(C)c2ccccc2F)c1

>  <scaffold>  (81) 
O=C(NCc1ccccc1)c1cnc2ccccc2c1Nc1ccccc1

>  <molecular_formula>  (81) 
C25H22F2N4O

$$$$
ATP-HTVS-0D57BDDB1211
     RDKit          3D

 61 64  0  0  0  0  0  0  0  0999 V2000
  195.3207  190.6367  161.9002 Cl  0  0  0  0  0  0  0  0  0  0  0  0
  196.0529  189.3078  161.0775 C   0  0  0  0  0  0  0  0  0  0  0  0
  195.5458  188.0031  161.2470 C   0  0  0  0  0  0  0  0  0  0  0  0
  196.1382  186.9212  160.5663 C   0  0  0  0  0  0  0  0  0  0  0  0
  197.2557  187.1371  159.7324 C   0  0  0  0  0  0  0  0  0  0  0  0
  197.7636  188.4444  159.5732 C   0  0  0  0  0  0  0  0  0  0  0  0
  197.1596  189.5266  160.2367 C   0  0  0  0  0  0  0  0  0  0  0  0
  197.8890  185.9667  158.9949 C   0  0  2  0  0  0  0  0  0  0  0  0
  199.2221  186.0173  159.0587 F   0  0  0  0  0  0  0  0  0  0  0  0
  197.4585  185.9157  157.5258 C   0  0  0  0  0  0  0  0  0  0  0  0
  196.7461  186.8082  157.0563 O   0  0  0  0  0  0  0  0  0  0  0  0
  197.9053  184.8532  156.8308 N   0  0  0  0  0  0  0  0  0  0  0  0
  197.6158  184.4883  155.4888 C   0  0  0  0  0  0  0  0  0  0  0  0
  197.7757  183.1433  155.0802 C   0  0  0  0  0  0  0  0  0  0  0  0
  198.2803  182.2052  155.9853 N   0  0  0  0  0  0  0  0  0  0  0  0
  199.7333  182.2380  156.0410 C   0  0  1  0  0  0  0  0  0  0  0  0
  200.3537  181.0280  156.7070 C   0  0  0  0  0  0  0  0  0  0  0  0
  201.5661  181.1981  157.3975 C   0  0  0  0  0  0  0  0  0  0  0  0
  202.1645  180.1217  158.0775 C   0  0  0  0  0  0  0  0  0  0  0  0
  201.5457  178.8486  158.0256 C   0  0  0  0  0  0  0  0  0  0  0  0
  200.3474  178.6653  157.3060 C   0  0  0  0  0  0  0  0  0  0  0  0
  199.7431  179.7540  156.6532 C   0  0  0  0  0  0  0  0  0  0  0  0
  203.4529  180.3697  158.8649 C   0  0  1  0  0  0  0  0  0  0  0  0
  203.2445  180.8760  160.2321 N   0  0  0  0  0  0  0  0  0  0  0  0
  202.5972  182.1835  160.2449 C   0  0  2  0  0  0  0  0  0  0  0  0
  204.5384  181.0085  160.8950 C   0  0  2  0  0  0  0  0  0  0  0  0
  197.4215  182.7697  153.7538 C   0  0  0  0  0  0  0  0  0  0  0  0
  196.9168  183.7628  152.8749 C   0  0  0  0  0  0  0  0  0  0  0  0
  196.8016  185.0328  153.3133 N   0  0  0  0  0  0  0  0  0  0  0  0
  197.1490  185.4308  154.5486 C   0  0  0  0  0  0  0  0  0  0  0  0
  196.5429  183.4359  151.5546 C   0  0  0  0  0  0  0  0  0  0  0  0
  196.6773  182.1104  151.0988 C   0  0  0  0  0  0  0  0  0  0  0  0
  197.1859  181.1180  151.9574 C   0  0  0  0  0  0  0  0  0  0  0  0
  197.5563  181.4446  153.2783 C   0  0  0  0  0  0  0  0  0  0  0  0
  194.6950  187.8348  161.8871 H   0  0  0  0  0  0  0  0  0  0  0  0
  195.7365  185.9261  160.6930 H   0  0  0  0  0  0  0  0  0  0  0  0
  198.6171  188.6170  158.9336 H   0  0  0  0  0  0  0  0  0  0  0  0
  197.5516  190.5251  160.1046 H   0  0  0  0  0  0  0  0  0  0  0  0
  197.6004  185.0378  159.4841 H   0  0  0  0  0  0  0  0  0  0  0  0
  198.4296  184.1623  157.3530 H   0  0  0  0  0  0  0  0  0  0  0  0
  197.9061  181.2731  155.8744 H   0  0  0  0  0  0  0  0  0  0  0  0
  200.1674  182.3221  155.0421 H   0  0  0  0  0  0  0  0  0  0  0  0
  200.0356  183.1363  156.5842 H   0  0  0  0  0  0  0  0  0  0  0  0
  202.0394  182.1715  157.4239 H   0  0  0  0  0  0  0  0  0  0  0  0
  201.9680  177.9963  158.5411 H   0  0  0  0  0  0  0  0  0  0  0  0
  199.8668  177.6956  157.2814 H   0  0  0  0  0  0  0  0  0  0  0  0
  198.8026  179.5956  156.1414 H   0  0  0  0  0  0  0  0  0  0  0  0
  204.0179  179.4379  158.9271 H   0  0  0  0  0  0  0  0  0  0  0  0
  204.0984  181.0602  158.3025 H   0  0  0  0  0  0  0  0  0  0  0  0
  202.5126  182.5854  161.2588 H   0  0  0  0  0  0  0  0  0  0  0  0
  201.5848  182.1174  159.8454 H   0  0  0  0  0  0  0  0  0  0  0  0
  203.1736  182.8820  159.6385 H   0  0  0  0  0  0  0  0  0  0  0  0
  204.4135  181.4338  161.8899 H   0  0  0  0  0  0  0  0  0  0  0  0
  205.2003  181.6702  160.3380 H   0  0  0  0  0  0  0  0  0  0  0  0
  205.0330  180.0425  161.0108 H   0  0  0  0  0  0  0  0  0  0  0  0
  196.9952  186.4798  154.7421 H   0  0  0  0  0  0  0  0  0  0  0  0
  196.1456  184.1828  150.8833 H   0  0  0  0  0  0  0  0  0  0  0  0
  196.3925  181.8499  150.0888 H   0  0  0  0  0  0  0  0  0  0  0  0
  197.3037  180.1075  151.6008 H   0  0  0  0  0  0  0  0  0  0  0  0
  197.9478  180.6616  153.9130 H   0  0  0  0  0  0  0  0  0  0  0  0
  196.4249  185.7445  152.6913 H   0  0  0  0  0  0  0  0  0  0  0  0
  1  2  1  0
  2  3  1  0
  2  7  2  0
  3  4  2  0
  3 35  1  0
  4  5  1  0
  4 36  1  0
  5  6  2  0
  5  8  1  0
  6  7  1  0
  6 37  1  0
  7 38  1  0
  8  9  1  0
  8 10  1  0
  8 39  1  1
 10 11  2  0
 10 12  1  0
 12 13  1  0
 12 40  1  0
 13 14  2  0
 13 30  1  0
 14 15  1  0
 14 27  1  0
 15 16  1  0
 15 41  1  0
 16 17  1  0
 16 42  1  6
 16 43  1  0
 17 18  2  0
 17 22  1  0
 18 19  1  0
 18 44  1  0
 19 20  2  0
 19 23  1  0
 20 21  1  0
 20 45  1  0
 21 22  2  0
 21 46  1  0
 22 47  1  0
 23 24  1  0
 23 48  1  1
 23 49  1  0
 24 25  1  0
 24 26  1  0
 25 50  1  1
 25 51  1  0
 25 52  1  0
 26 53  1  1
 26 54  1  0
 26 55  1  0
 27 28  1  0
 27 34  2  0
 28 29  1  0
 28 31  2  0
 29 30  2  0
 29 61  1  0
 30 56  1  0
 31 32  1  0
 31 57  1  0
 32 33  2  0
 32 58  1  0
 33 34  1  0
 33 59  1  0
 34 60  1  0
M  CHG  1  29   1
M  END
>  <s_epik_cmdline>  (82) 
J2VwaWtfcHl0aG9uJywgJy1waCcsICc3LjAwMDAwMCcsICctcGh0JywgJzIuMDAwMDAwJywgJy1tcycsICcxNicsICctdG4nLCAnOCcsICctbWEnLCAnMjAwJywgJy1pbWFlJywgJzxpbmZpbGUubWFlPicsICctb21hZScsICc8b3V0ZmlsZS5tYWU+Jw==

>  <s_epik_input>  (82) 
Q2xjMVtjSF1bY0hdYyhbY0hdW2NIXTEpW0NASF0oRilDKD1PKVtOSF1jKFtjSF1uYyhjMjMpW2NIXVtjSF1bY0hdW2NIXTMpYzJbTkhdW0NIMl1jNFtjSF1jKFtjSF1bY0hdW2NIXTQpW0NIMl1OKFtDSDNdKVtDSDNd

>  <s_i_glide_gridfile>  (82) 
ATP-Grid

>  <s_lp_Force_Field>  (82) 
OPLS_2005

>  <s_lp_Variant>  (82) 
rxn502b____EMOL41255284____EMOL30488121____EMOL2873214-4

>  <s_lp_label>  (82) 
2180_sdstereoexpander_2_neutralizer_1_epik_2_stereoizer_1

>  <s_m_source_file>  (82) 
ATP-VSW-LIGPREP-001-in.maegz

>  <s_sd_BIOSOLVEIT.INFINISEE\_QUERY\_NAME>  (82) 
Ref-Lig

>  <s_sd_BIOSOLVEIT.INFINISEE\_QUERY\_SMILES>  (82) 
S(c1nc2c(cc1C[NH2+]Cc3ccc(cc3)C[NH+](C)C)cccc2)Cc4ccccc4

>  <s_sd_BIOSOLVEIT.INFINISEE\_REACTION\_NAME>  (82) 
rxn502b

>  <s_sd_BIOSOLVEIT.INFINISEE\_REAGENT1\_NAME>  (82) 
EMOL41255284

>  <s_sd_BIOSOLVEIT.INFINISEE\_REAGENT1\_SMILES>  (82) 
Clc1ccc(cc1)C(F)C(=O)O

>  <s_sd_BIOSOLVEIT.INFINISEE\_REAGENT2\_NAME>  (82) 
EMOL30488121

>  <s_sd_BIOSOLVEIT.INFINISEE\_REAGENT2\_SMILES>  (82) 
Brc1c(N)cnc2c1cccc2

>  <s_sd_BIOSOLVEIT.INFINISEE\_REAGENT3\_NAME>  (82) 
EMOL2873214

>  <s_sd_BIOSOLVEIT.INFINISEE\_REAGENT3\_SMILES>  (82) 
N(Cc1cc(ccc1)CN)(C)C

>  <s_sd_BIOSOLVEIT.INFINISEE\_SPACE>  (82) 
eXplore_7tr_2022-12

>  <s_vsw_compound_code>  (82) 
69729

>  <s_vsw_variant>  (82) 
69729-4

>  <r_epik_Charging_Adjusted_Penalty>  (82) 
1.6470202075654199

>  <r_epik_Ionization_Penalty>  (82) 
1.6041000000000001

>  <r_epik_Ionization_Penalty_Charging>  (82) 
0.042900000000000001

>  <r_epik_Ionization_Penalty_Neutral>  (82) 
1.5611999999999999

>  <r_epik_State_Penalty>  (82) 
1.6041000000000001

>  <r_i_docking_score>  (82) 
-2.1457108449898299

>  <r_i_glide_ecoul>  (82) 
-3.8837451934814502

>  <r_i_glide_eff_state_penalty>  (82) 
1.6041000000000001

>  <r_i_glide_einternal>  (82) 
1.63983654975891

>  <r_i_glide_emodel>  (82) 
-49.178687550548197

>  <r_i_glide_energy>  (82) 
-38.430276870727504

>  <r_i_glide_erotb>  (82) 
0.62078415160744904

>  <r_i_glide_esite>  (82) 
-0.036820235413477301

>  <r_i_glide_evdw>  (82) 
-34.546531677246101

>  <r_i_glide_gscore>  (82) 
-3.7498108449898302

>  <r_i_glide_hbond>  (82) 
0

>  <r_i_glide_ligand_efficiency>  (82) 
-0.063109142499700802

>  <r_i_glide_ligand_efficiency_ln>  (82) 
-0.474047710808848

>  <r_i_glide_ligand_efficiency_sa>  (82) 
-0.204449122570213

>  <r_i_glide_lipo>  (82) 
-1.4533287729973501

>  <r_i_glide_metal>  (82) 
-0

>  <r_i_glide_rewards>  (82) 
-0.57055762530193299

>  <r_lp_Energy>  (82) 
38.479072000000002

>  <r_qp_ACxDN^.5/SA>  (82) 
0.0126266

>  <r_qp_CIQPlogS>  (82) 
-6.5190000000000001

>  <r_qp_EA(eV)>  (82) 
1.083

>  <r_qp_FISA>  (82) 
66.992999999999995

>  <r_qp_FOSA>  (82) 
198.066

>  <r_qp_IP(eV)>  (82) 
8.6440000000000001

>  <r_qp_Jm>  (82) 
0.0121052531159496

>  <r_qp_PISA>  (82) 
382.91500000000002

>  <r_qp_PSA>  (82) 
61.006999999999998

>  <r_qp_PercentHumanOralAbsorption>  (82) 
100

>  <r_qp_QPPCaco>  (82) 
572.14700000000005

>  <r_qp_QPPMDCK>  (82) 
821.50999999999999

>  <r_qp_QPlogBB>  (82) 
0.028000000000000001

>  <r_qp_QPlogHERG>  (82) 
-6.8390000000000004

>  <r_qp_QPlogKhsa>  (82) 
0.77000000000000002

>  <r_qp_QPlogKp>  (82) 
-2.7000000000000002

>  <r_qp_QPlogPC16>  (82) 
14.839

>  <r_qp_QPlogPo/w>  (82) 
4.96

>  <r_qp_QPlogPoct>  (82) 
23.364000000000001

>  <r_qp_QPlogPw>  (82) 
12.125999999999999

>  <r_qp_QPlogS>  (82) 
-4.8959999999999999

>  <r_qp_QPpolrz>  (82) 
48.232999999999997

>  <r_qp_SASA>  (82) 
728.01900000000001

>  <r_qp_SAamideO>  (82) 
0

>  <r_qp_SAfluorine>  (82) 
36.170999999999999

>  <r_qp_WPSA>  (82) 
80.045000000000002

>  <r_qp_accptHB>  (82) 
6.5

>  <r_qp_dip^2/V>  (82) 
0.043114300000000001

>  <r_qp_dipole>  (82) 
7.758

>  <r_qp_donorHB>  (82) 
2

>  <r_qp_glob>  (82) 
0.82974049999999999

>  <r_qp_mol_MW>  (82) 
476.98000000000002

>  <r_qp_volume>  (82) 
1395.981

>  <r_sd_BIOSOLVEIT.INFINISEE\_FTREES\_SIMILARITY>  (82) 
0.93700000000000006

>  <r_sd_BIOSOLVEIT.LOGP>  (82) 
4.7941000000000003

>  <r_sd_BIOSOLVEIT.MOLECULAR\_WEIGHT>  (82) 
477.988

>  <r_sd_BIOSOLVEIT.TPSA>  (82) 
58.460000000000001

>  <i_epik_Tot_Q>  (82) 
1

>  <i_epik_Tot_abs_Q>  (82) 
1

>  <i_f3d_flags>  (82) 
0

>  <i_i_glide_confnum>  (82) 
12

>  <i_i_glide_lignum>  (82) 
694

>  <i_i_glide_posenum>  (82) 
18

>  <i_i_glide_rotatable_bonds>  (82) 
9

>  <i_lp_mmshare_version>  (82) 
65135

>  <i_m_ct_format>  (82) 
2

>  <i_m_source_file_index>  (82) 
2180

>  <i_qp_#NandO>  (82) 
5

>  <i_qp_#acid>  (82) 
0

>  <i_qp_#amide>  (82) 
0

>  <i_qp_#amidine>  (82) 
0

>  <i_qp_#amine>  (82) 
1

>  <i_qp_#in34>  (82) 
0

>  <i_qp_#in56>  (82) 
22

>  <i_qp_#metab>  (82) 
7

>  <i_qp_#nonHatm>  (82) 
34

>  <i_qp_#noncon>  (82) 
0

>  <i_qp_#ringatoms>  (82) 
22

>  <i_qp_#rotor>  (82) 
8

>  <i_qp_#rtvFG>  (82) 
1

>  <i_qp_#stars>  (82) 
0

>  <i_qp_CNS>  (82) 
1

>  <i_qp_HumanOralAbsorption>  (82) 
3

>  <i_qp_RuleOfFive>  (82) 
0

>  <i_qp_RuleOfThree>  (82) 
1

>  <i_sd_BIOSOLVEIT.INFINISEE\_RESULT\_RANK>  (82) 
2072

>  <i_sd_version>  (82) 
0

>  <b_lp_Chiralities_Consistent>  (82) 
1

>  <b_sd_chiral_flag>  (82) 
0

>  <canonical_id>  (82) 
ATP-HTVS-0D57BDDB1211

>  <compound_code>  (82) 
69729

>  <title>  (82) 
rxn502b____EMOL41255284____EMOL30488121____EMOL2873214

>  <variant>  (82) 
69729-4

>  <source_file>  (82) 
运行/运行/ATP-VSW/ATP-VSW-DOCK_HTVS_1-001_lib/ATP-VSW-DOCK_HTVS_1-001_lib

>  <canonical_smiles>  (82) 
CN(C)Cc1cccc(CNc2c(NC(=O)[C@@H](F)c3ccc(Cl)cc3)c[nH+]c3ccccc23)c1

>  <scaffold>  (82) 
O=C(Cc1ccccc1)Nc1c[nH+]c2ccccc2c1NCc1ccccc1

>  <molecular_formula>  (82) 
C27H27ClFN4O+

$$$$
ATP-HTVS-0D83F5E9F976
     RDKit          3D

 63 66  0  0  0  0  0  0  0  0999 V2000
  196.7440  187.6093  156.8931 N   0  0  0  0  0  0  0  0  0  0  0  0
  197.6399  187.0581  156.4128 C   0  0  0  0  0  0  0  0  0  0  0  0
  198.7695  186.3616  155.8140 C   0  0  0  0  0  0  0  0  0  0  0  0
  199.8228  185.8286  156.6047 C   0  0  0  0  0  0  0  0  0  0  0  0
  200.8799  185.1415  155.9702 C   0  0  0  0  0  0  0  0  0  0  0  0
  200.8913  184.9690  154.5744 C   0  0  0  0  0  0  0  0  0  0  0  0
  199.8418  185.4868  153.7953 C   0  0  0  0  0  0  0  0  0  0  0  0
  198.7857  186.1828  154.4132 C   0  0  0  0  0  0  0  0  0  0  0  0
  199.8471  185.9189  158.1362 C   0  0  1  0  0  0  0  0  0  0  0  0
  198.7176  185.3261  158.8509 N   0  0  0  0  0  0  0  0  0  0  0  0
  198.1264  184.1314  158.3967 C   0  0  0  0  0  0  0  0  0  0  0  0
  198.9073  183.2347  157.7510 N   0  0  0  0  0  0  0  0  0  0  0  0
  198.3691  182.1167  157.2593 C   0  0  0  0  0  0  0  0  0  0  0  0
  197.0837  181.8239  157.4235 N   0  0  0  0  0  0  0  0  0  0  0  0
  196.2664  182.6534  158.0866 C   0  0  0  0  0  0  0  0  0  0  0  0
  196.7525  183.8790  158.5974 C   0  0  0  0  0  0  0  0  0  0  0  0
  195.8593  184.7601  159.2535 C   0  0  0  0  0  0  0  0  0  0  0  0
  194.5056  184.3925  159.4114 C   0  0  0  0  0  0  0  0  0  0  0  0
  194.0423  183.1612  158.9083 C   0  0  0  0  0  0  0  0  0  0  0  0
  194.9259  182.2831  158.2666 C   0  0  0  0  0  0  0  0  0  0  0  0
  199.2110  181.2297  156.6136 N   0  0  0  0  0  0  0  0  0  0  0  0
  198.7317  180.1194  155.7860 C   0  0  1  0  0  0  0  0  0  0  0  0
  199.7697  179.0489  155.4595 C   0  0  0  0  0  0  0  0  0  0  0  0
  201.0015  179.3850  154.8787 C   0  0  0  0  0  0  0  0  0  0  0  0
  202.0133  178.4097  154.7182 C   0  0  0  0  0  0  0  0  0  0  0  0
  201.7175  177.0574  155.0096 C   0  0  0  0  0  0  0  0  0  0  0  0
  200.4502  176.6981  155.5048 C   0  0  0  0  0  0  0  0  0  0  0  0
  199.4830  177.6935  155.7340 C   0  0  0  0  0  0  0  0  0  0  0  0
  203.4048  178.8189  154.2490 C   0  0  1  0  0  0  0  0  0  0  0  0
  204.2225  179.4535  155.3231 N   0  0  1  0  0  0  0  0  0  0  0  0
  205.6497  179.5979  154.9380 C   0  0  1  0  0  0  0  0  0  0  0  0
  206.5514  179.9458  156.1372 C   0  0  2  0  0  0  0  0  0  0  0  0
  203.6580  180.7341  155.8364 C   0  0  2  0  0  0  0  0  0  0  0  0
  201.6797  184.7214  156.5627 H   0  0  0  0  0  0  0  0  0  0  0  0
  201.6978  184.4221  154.1080 H   0  0  0  0  0  0  0  0  0  0  0  0
  199.8484  185.3467  152.7249 H   0  0  0  0  0  0  0  0  0  0  0  0
  197.9755  186.5618  153.8058 H   0  0  0  0  0  0  0  0  0  0  0  0
  200.7475  185.4355  158.5160 H   0  0  0  0  0  0  0  0  0  0  0  0
  199.9272  186.9722  158.4130 H   0  0  0  0  0  0  0  0  0  0  0  0
  198.1417  185.9670  159.3745 H   0  0  0  0  0  0  0  0  0  0  0  0
  196.1793  185.7215  159.6238 H   0  0  0  0  0  0  0  0  0  0  0  0
  193.8089  185.0636  159.8933 H   0  0  0  0  0  0  0  0  0  0  0  0
  192.9988  182.9003  158.9841 H   0  0  0  0  0  0  0  0  0  0  0  0
  194.5655  181.3399  157.8747 H   0  0  0  0  0  0  0  0  0  0  0  0
  200.1866  181.4715  156.5930 H   0  0  0  0  0  0  0  0  0  0  0  0
  197.8888  179.6474  156.2863 H   0  0  0  0  0  0  0  0  0  0  0  0
  198.3596  180.5310  154.8498 H   0  0  0  0  0  0  0  0  0  0  0  0
  201.1896  180.4149  154.5996 H   0  0  0  0  0  0  0  0  0  0  0  0
  202.4638  176.2804  154.8717 H   0  0  0  0  0  0  0  0  0  0  0  0
  200.2160  175.6640  155.7215 H   0  0  0  0  0  0  0  0  0  0  0  0
  198.5132  177.4298  156.1355 H   0  0  0  0  0  0  0  0  0  0  0  0
  203.9122  177.9199  153.8803 H   0  0  0  0  0  0  0  0  0  0  0  0
  203.3207  179.4818  153.3808 H   0  0  0  0  0  0  0  0  0  0  0  0
  206.0165  178.6679  154.4967 H   0  0  0  0  0  0  0  0  0  0  0  0
  205.7507  180.3623  154.1650 H   0  0  0  0  0  0  0  0  0  0  0  0
  207.6041  179.9656  155.8525 H   0  0  0  0  0  0  0  0  0  0  0  0
  206.4323  179.2168  156.9390 H   0  0  0  0  0  0  0  0  0  0  0  0
  206.3400  180.9320  156.5512 H   0  0  0  0  0  0  0  0  0  0  0  0
  203.5679  181.4536  155.0201 H   0  0  0  0  0  0  0  0  0  0  0  0
  204.2785  181.1913  156.6066 H   0  0  0  0  0  0  0  0  0  0  0  0
  202.6816  180.5971  156.3013 H   0  0  0  0  0  0  0  0  0  0  0  0
  196.6914  180.9193  157.1221 H   0  0  0  0  0  0  0  0  0  0  0  0
  204.2167  178.7936  156.0950 H   0  0  0  0  0  0  0  0  0  0  0  0
  1  2  3  0
  2  3  1  0
  3  4  1  0
  3  8  2  0
  4  5  2  0
  4  9  1  0
  5  6  1  0
  5 34  1  0
  6  7  2  0
  6 35  1  0
  7  8  1  0
  7 36  1  0
  8 37  1  0
  9 10  1  0
  9 38  1  1
  9 39  1  0
 10 11  1  0
 10 40  1  0
 11 12  2  0
 11 16  1  0
 12 13  1  0
 13 14  2  0
 13 21  1  0
 14 15  1  0
 14 62  1  0
 15 16  1  0
 15 20  2  0
 16 17  2  0
 17 18  1  0
 17 41  1  0
 18 19  2  0
 18 42  1  0
 19 20  1  0
 19 43  1  0
 20 44  1  0
 21 22  1  0
 21 45  1  0
 22 23  1  0
 22 46  1  1
 22 47  1  0
 23 24  2  0
 23 28  1  0
 24 25  1  0
 24 48  1  0
 25 26  2  0
 25 29  1  0
 26 27  1  0
 26 49  1  0
 27 28  2  0
 27 50  1  0
 28 51  1  0
 29 30  1  0
 29 52  1  6
 29 53  1  0
 30 31  1  0
 30 33  1  0
 30 63  1  1
 31 32  1  0
 31 54  1  6
 31 55  1  0
 32 56  1  6
 32 57  1  0
 32 58  1  0
 33 59  1  6
 33 60  1  0
 33 61  1  0
M  CHG  2  14   1  30   1
M  END
>  <s_epik_cmdline>  (83) 
J2VwaWtfcHl0aG9uJywgJy1waCcsICc3LjAwMDAwMCcsICctcGh0JywgJzIuMDAwMDAwJywgJy1tcycsICcxNicsICctdG4nLCAnOCcsICctbWEnLCAnMjAwJywgJy1pbWFlJywgJzxpbmZpbGUubWFlPicsICctb21hZScsICc8b3V0ZmlsZS5tYWU+Jw==

>  <s_epik_input>  (83) 
W2NIXTFbY0hdW2NIXVtjSF1jKGMxQyNOKVtDSDJdW05IXWMoYyhjMjMpW2NIXVtjSF1bY0hdW2NIXTMpbmMobjIpW05IXVtDSDJdYzRbY0hdYyhbY0hdW2NIXVtjSF00KVtDSDJdTihbQ0gzXSlbQ0gyXVtDSDNd

>  <s_i_glide_gridfile>  (83) 
ATP-Grid

>  <s_lp_Force_Field>  (83) 
OPLS_2005

>  <s_lp_Variant>  (83) 
m_282030aaa____21930070____22360182____21968066-1

>  <s_lp_label>  (83) 
1650_sdstereoexpander_1_neutralizer_1_epik_1_stereoizer_1

>  <s_m_source_file>  (83) 
ATP-VSW-LIGPREP-001-in.maegz

>  <s_sd_BIOSOLVEIT.INFINISEE\_QUERY\_NAME>  (83) 
Ref-Lig

>  <s_sd_BIOSOLVEIT.INFINISEE\_QUERY\_SMILES>  (83) 
S(c1nc2c(cc1C[NH2+]Cc3ccc(cc3)C[NH+](C)C)cccc2)Cc4ccccc4

>  <s_sd_BIOSOLVEIT.INFINISEE\_REACTION\_NAME>  (83) 
m_282030aaa

>  <s_sd_BIOSOLVEIT.INFINISEE\_REAGENT1\_SMILES>  (83) 
[R1*]NCc1cc(ccc1)CN(CC)C

>  <s_sd_BIOSOLVEIT.INFINISEE\_REAGENT2\_SMILES>  (83) 
[R2*]c1nc([R1*])c2c(n1)cccc2

>  <s_sd_BIOSOLVEIT.INFINISEE\_REAGENT3\_SMILES>  (83) 
[R2*]NCc1c(C#N)cccc1

>  <s_sd_BIOSOLVEIT.INFINISEE\_SPACE>  (83) 
REALSpace_44bn_2023-08

>  <s_vsw_compound_code>  (83) 
52769

>  <s_vsw_variant>  (83) 
52769-1

>  <r_epik_Charging_Adjusted_Penalty>  (83) 
0.095787836113570293

>  <r_epik_Ionization_Penalty>  (83) 
0.044900000000000002

>  <r_epik_Ionization_Penalty_Charging>  (83) 
0.044900000000000002

>  <r_epik_Ionization_Penalty_Neutral>  (83) 
0

>  <r_epik_State_Penalty>  (83) 
0.050900000000000001

>  <r_i_docking_score>  (83) 
-3.48376880382318

>  <r_i_glide_ecoul>  (83) 
-8.2174301147460902

>  <r_i_glide_eff_state_penalty>  (83) 
0.050900000000000001

>  <r_i_glide_einternal>  (83) 
3.78107738494873

>  <r_i_glide_emodel>  (83) 
-47.558491400213903

>  <r_i_glide_energy>  (83) 
-36.227666854858398

>  <r_i_glide_erotb>  (83) 
0.82981225285114102

>  <r_i_glide_esite>  (83) 
-0.17148480671101801

>  <r_i_glide_evdw>  (83) 
-28.010236740112301

>  <r_i_glide_gscore>  (83) 
-3.5346688038231799

>  <r_i_glide_hbond>  (83) 
-0.10851657468188999

>  <r_i_glide_ligand_efficiency>  (83) 
-0.105568751631005

>  <r_i_glide_ligand_efficiency_ln>  (83) 
-0.77477214398078098

>  <r_i_glide_ligand_efficiency_sa>  (83) 
-0.33861539463659601

>  <r_i_glide_lipo>  (83) 
-0.70329726714864405

>  <r_i_glide_metal>  (83) 
-0

>  <r_i_glide_rewards>  (83) 
-0.748056053915237

>  <r_lp_Energy>  (83) 
21.079471999999999

>  <r_qp_ACxDN^.5/SA>  (83) 
0.012693599999999999

>  <r_qp_CIQPlogS>  (83) 
-6.7039999999999997

>  <r_qp_EA(eV)>  (83) 
0.80400000000000005

>  <r_qp_FISA>  (83) 
100.10299999999999

>  <r_qp_FOSA>  (83) 
206.55600000000001

>  <r_qp_IP(eV)>  (83) 
7.9420000000000002

>  <r_qp_Jm>  (83) 
0.0030822175888992999

>  <r_qp_PISA>  (83) 
417.51600000000002

>  <r_qp_PSA>  (83) 
70.909999999999997

>  <r_qp_PercentHumanOralAbsorption>  (83) 
96.463999999999999

>  <r_qp_QPPCaco>  (83) 
277.66800000000001

>  <r_qp_QPPMDCK>  (83) 
137.00800000000001

>  <r_qp_QPlogBB>  (83) 
-0.60899999999999999

>  <r_qp_QPlogHERG>  (83) 
-6.9980000000000002

>  <r_qp_QPlogKhsa>  (83) 
0.65900000000000003

>  <r_qp_QPlogKp>  (83) 
-2.996

>  <r_qp_QPlogPC16>  (83) 
15.151999999999999

>  <r_qp_QPlogPo/w>  (83) 
4.4039999999999999

>  <r_qp_QPlogPoct>  (83) 
22.555

>  <r_qp_QPlogPw>  (83) 
12.109

>  <r_qp_QPlogS>  (83) 
-5.1550000000000002

>  <r_qp_QPpolrz>  (83) 
46.875999999999998

>  <r_qp_SASA>  (83) 
724.17499999999995

>  <r_qp_SAamideO>  (83) 
0

>  <r_qp_SAfluorine>  (83) 
0

>  <r_qp_WPSA>  (83) 
0

>  <r_qp_accptHB>  (83) 
6.5

>  <r_qp_dip^2/V>  (83) 
0.0367438

>  <r_qp_dipole>  (83) 
7.1360000000000001

>  <r_qp_donorHB>  (83) 
2

>  <r_qp_glob>  (83) 
0.83012620000000004

>  <r_qp_mol_MW>  (83) 
436.55799999999999

>  <r_qp_volume>  (83) 
1385.9069999999999

>  <r_sd_BIOSOLVEIT.INFINISEE\_FTREES\_SIMILARITY>  (83) 
0.90500000000000003

>  <r_sd_BIOSOLVEIT.LOGP>  (83) 
3.7602799999999998

>  <r_sd_BIOSOLVEIT.MOLECULAR\_WEIGHT>  (83) 
437.56799999999998

>  <r_sd_BIOSOLVEIT.TPSA>  (83) 
78.069999999999993

>  <i_epik_Tot_Q>  (83) 
2

>  <i_epik_Tot_abs_Q>  (83) 
2

>  <i_f3d_flags>  (83) 
0

>  <i_i_glide_confnum>  (83) 
7

>  <i_i_glide_lignum>  (83) 
439

>  <i_i_glide_posenum>  (83) 
1

>  <i_i_glide_rotatable_bonds>  (83) 
9

>  <i_lp_mmshare_version>  (83) 
65135

>  <i_m_ct_format>  (83) 
2

>  <i_m_source_file_index>  (83) 
1650

>  <i_qp_#NandO>  (83) 
6

>  <i_qp_#acid>  (83) 
0

>  <i_qp_#amide>  (83) 
0

>  <i_qp_#amidine>  (83) 
0

>  <i_qp_#amine>  (83) 
1

>  <i_qp_#in34>  (83) 
0

>  <i_qp_#in56>  (83) 
22

>  <i_qp_#metab>  (83) 
5

>  <i_qp_#nonHatm>  (83) 
33

>  <i_qp_#noncon>  (83) 
0

>  <i_qp_#ringatoms>  (83) 
22

>  <i_qp_#rotor>  (83) 
10

>  <i_qp_#rtvFG>  (83) 
0

>  <i_qp_#stars>  (83) 
0

>  <i_qp_CNS>  (83) 
1

>  <i_qp_HumanOralAbsorption>  (83) 
3

>  <i_qp_RuleOfFive>  (83) 
0

>  <i_qp_RuleOfThree>  (83) 
0

>  <i_sd_BIOSOLVEIT.INFINISEE\_REAGENT1\_NAME>  (83) 
21930070

>  <i_sd_BIOSOLVEIT.INFINISEE\_REAGENT2\_NAME>  (83) 
22360182

>  <i_sd_BIOSOLVEIT.INFINISEE\_REAGENT3\_NAME>  (83) 
21968066

>  <i_sd_BIOSOLVEIT.INFINISEE\_RESULT\_RANK>  (83) 
68839

>  <i_sd_version>  (83) 
0

>  <b_lp_Chiralities_Consistent>  (83) 
1

>  <b_sd_chiral_flag>  (83) 
0

>  <canonical_id>  (83) 
ATP-HTVS-0D83F5E9F976

>  <compound_code>  (83) 
52769

>  <title>  (83) 
m_282030aaa____21930070____22360182____21968066

>  <variant>  (83) 
52769-1

>  <source_file>  (83) 
运行/运行/ATP-VSW/ATP-VSW-DOCK_HTVS_1-001_lib/ATP-VSW-DOCK_HTVS_1-001_lib

>  <canonical_smiles>  (83) 
CC[N@@H+](C)Cc1cccc(CNc2nc(NCc3ccccc3C#N)c3ccccc3[nH+]2)c1

>  <scaffold>  (83) 
c1ccc(CNc2nc(NCc3ccccc3)c3ccccc3[nH+]2)cc1

>  <molecular_formula>  (83) 
C27H30N6+2

$$$$
ATP-HTVS-0D8C52C362EE
     RDKit          3D

 58 60  0  0  0  0  0  0  0  0999 V2000
  200.6429  178.5038  157.4513 Cl  0  0  0  0  0  0  0  0  0  0  0  0
  200.0607  179.1547  155.9679 C   0  0  0  0  0  0  0  0  0  0  0  0
  200.7585  178.6151  154.4575 S   0  0  0  0  0  0  0  0  0  0  0  0
  199.6924  179.6934  153.5370 C   0  0  0  0  0  0  0  0  0  0  0  0
  199.8407  179.6495  152.0321 C   0  0  0  0  0  0  0  0  0  0  0  0
  200.3286  178.6459  151.5053 O   0  0  0  0  0  0  0  0  0  0  0  0
  199.4473  180.7312  151.2750 N   0  0  0  0  0  0  0  0  0  0  0  0
  198.8065  181.9569  151.7839 C   0  0  1  0  0  0  0  0  0  0  0  0
  199.8346  182.9593  152.2241 C   0  0  0  0  0  0  0  0  0  0  0  0
  200.6171  183.8040  152.6346 C   0  0  0  0  0  0  0  0  0  0  0  0
  199.6166  180.7500  149.7991 C   0  0  1  0  0  0  0  0  0  0  0  0
  198.6219  179.8759  149.0510 C   0  0  0  0  0  0  0  0  0  0  0  0
  199.0819  179.0809  147.9891 C   0  0  0  0  0  0  0  0  0  0  0  0
  198.1860  178.2577  147.2850 C   0  0  0  0  0  0  0  0  0  0  0  0
  196.8232  178.2411  147.6387 C   0  0  0  0  0  0  0  0  0  0  0  0
  196.3591  179.0371  148.6965 C   0  0  0  0  0  0  0  0  0  0  0  0
  197.2548  179.8662  149.4038 C   0  0  0  0  0  0  0  0  0  0  0  0
  198.8363  180.3315  154.4081 C   0  0  0  0  0  0  0  0  0  0  0  0
  199.0610  180.0926  155.7804 C   0  0  0  0  0  0  0  0  0  0  0  0
  198.3203  180.7888  156.7675 N   0  0  0  0  0  0  0  0  0  0  0  0
  197.0204  181.4345  156.4772 C   0  0  1  0  0  0  0  0  0  0  0  0
  196.5817  182.4127  157.5481 C   0  0  0  0  0  0  0  0  0  0  0  0
  197.4316  183.4663  157.9359 C   0  0  0  0  0  0  0  0  0  0  0  0
  197.0391  184.3715  158.9475 C   0  0  0  0  0  0  0  0  0  0  0  0
  195.7730  184.2298  159.5519 C   0  0  0  0  0  0  0  0  0  0  0  0
  194.9122  183.1926  159.1421 C   0  0  0  0  0  0  0  0  0  0  0  0
  195.3141  182.2845  158.1444 C   0  0  0  0  0  0  0  0  0  0  0  0
  197.9808  185.4794  159.3874 C   0  0  1  0  0  0  0  0  0  0  0  0
  197.7771  186.7416  158.6309 N   0  0  1  0  0  0  0  0  0  0  0  0
  198.4973  187.8919  159.2299 C   0  0  2  0  0  0  0  0  0  0  0  0
  198.0882  186.5988  157.1880 C   0  0  2  0  0  0  0  0  0  0  0  0
  198.1555  182.4281  150.9982 H   0  0  0  0  0  0  0  0  0  0  0  0
  198.0809  181.7785  152.5092 H   0  0  0  0  0  0  0  0  0  0  0  0
  201.3255  184.5850  152.9245 H   0  0  0  0  0  0  0  0  0  0  0  0
  199.4717  181.7709  149.4513 H   0  0  0  0  0  0  0  0  0  0  0  0
  200.6495  180.5039  149.5360 H   0  0  0  0  0  0  0  0  0  0  0  0
  200.1244  179.0940  147.7142 H   0  0  0  0  0  0  0  0  0  0  0  0
  198.5436  177.6360  146.4805 H   0  0  0  0  0  0  0  0  0  0  0  0
  196.1393  177.6003  147.1031 H   0  0  0  0  0  0  0  0  0  0  0  0
  195.3113  179.0399  148.9541 H   0  0  0  0  0  0  0  0  0  0  0  0
  196.8788  180.4947  150.1946 H   0  0  0  0  0  0  0  0  0  0  0  0
  198.0413  180.9903  154.1617 H   0  0  0  0  0  0  0  0  0  0  0  0
  198.3511  180.3664  157.6900 H   0  0  0  0  0  0  0  0  0  0  0  0
  197.0279  182.0376  155.5623 H   0  0  0  0  0  0  0  0  0  0  0  0
  196.2420  180.6778  156.3186 H   0  0  0  0  0  0  0  0  0  0  0  0
  198.3807  183.5884  157.4382 H   0  0  0  0  0  0  0  0  0  0  0  0
  195.4550  184.9004  160.3410 H   0  0  0  0  0  0  0  0  0  0  0  0
  193.9457  183.0767  159.6051 H   0  0  0  0  0  0  0  0  0  0  0  0
  194.6529  181.4862  157.8390 H   0  0  0  0  0  0  0  0  0  0  0  0
  197.8286  185.6598  160.4524 H   0  0  0  0  0  0  0  0  0  0  0  0
  199.0104  185.1380  159.2731 H   0  0  0  0  0  0  0  0  0  0  0  0
  199.5716  187.7096  159.2741 H   0  0  0  0  0  0  0  0  0  0  0  0
  198.1439  188.1023  160.2392 H   0  0  0  0  0  0  0  0  0  0  0  0
  198.3388  188.7931  158.6375 H   0  0  0  0  0  0  0  0  0  0  0  0
  199.1392  186.3364  157.0431 H   0  0  0  0  0  0  0  0  0  0  0  0
  197.8751  187.5202  156.6451 H   0  0  0  0  0  0  0  0  0  0  0  0
  197.4773  185.8264  156.7214 H   0  0  0  0  0  0  0  0  0  0  0  0
  196.7916  186.9571  158.6973 H   0  0  0  0  0  0  0  0  0  0  0  0
  1  2  1  0
  2  3  1  0
  2 19  2  0
  3  4  1  0
  4  5  1  0
  4 18  2  0
  5  6  2  0
  5  7  1  0
  7  8  1  0
  7 11  1  0
  8  9  1  0
  8 32  1  6
  8 33  1  0
  9 10  3  0
 10 34  1  0
 11 12  1  0
 11 35  1  6
 11 36  1  0
 12 13  2  0
 12 17  1  0
 13 14  1  0
 13 37  1  0
 14 15  2  0
 14 38  1  0
 15 16  1  0
 15 39  1  0
 16 17  2  0
 16 40  1  0
 17 41  1  0
 18 19  1  0
 18 42  1  0
 19 20  1  0
 20 21  1  0
 20 43  1  0
 21 22  1  0
 21 44  1  6
 21 45  1  0
 22 23  2  0
 22 27  1  0
 23 24  1  0
 23 46  1  0
 24 25  2  0
 24 28  1  0
 25 26  1  0
 25 47  1  0
 26 27  2  0
 26 48  1  0
 27 49  1  0
 28 29  1  0
 28 50  1  1
 28 51  1  0
 29 30  1  0
 29 31  1  0
 29 58  1  6
 30 52  1  1
 30 53  1  0
 30 54  1  0
 31 55  1  1
 31 56  1  0
 31 57  1  0
M  CHG  1  29   1
M  END
>  <s_epik_cmdline>  (84) 
J2VwaWtfcHl0aG9uJywgJy1waCcsICc3LjAwMDAwMCcsICctcGh0JywgJzIuMDAwMDAwJywgJy1tcycsICcxNicsICctdG4nLCAnOCcsICctbWEnLCAnMjAwJywgJy1pbWFlJywgJzxpbmZpbGUubWFlPicsICctb21hZScsICc8b3V0ZmlsZS5tYWU+Jw==

>  <s_epik_input>  (84) 
W2NIXTFbY0hdW2NIXVtjSF1bY0hdYzFbQ0gyXU4oW0NIMl1DI1tDSF0pQyg9TyljKHNjMkNsKVtjSF1jMltOSF1bQ0gyXWMzW2NIXWMoW2NIXVtjSF1bY0hdMylbQ0gyXU4oW0NIM10pW0NIM10=

>  <s_i_glide_gridfile>  (84) 
ATP-Grid

>  <s_lp_Force_Field>  (84) 
OPLS_2005

>  <s_lp_Variant>  (84) 
rxn512b____EMOL1197208____EMOL44846536____EMOL2873214-1

>  <s_lp_label>  (84) 
2308_sdstereoexpander_1_neutralizer_1_epik_1_stereoizer_1

>  <s_m_source_file>  (84) 
ATP-VSW-LIGPREP-001-in.maegz

>  <s_sd_BIOSOLVEIT.INFINISEE\_QUERY\_NAME>  (84) 
Ref-Lig

>  <s_sd_BIOSOLVEIT.INFINISEE\_QUERY\_SMILES>  (84) 
S(c1nc2c(cc1C[NH2+]Cc3ccc(cc3)C[NH+](C)C)cccc2)Cc4ccccc4

>  <s_sd_BIOSOLVEIT.INFINISEE\_REACTION\_NAME>  (84) 
rxn512b

>  <s_sd_BIOSOLVEIT.INFINISEE\_REAGENT1\_NAME>  (84) 
EMOL1197208

>  <s_sd_BIOSOLVEIT.INFINISEE\_REAGENT1\_SMILES>  (84) 
N(CC#C)Cc1ccccc1

>  <s_sd_BIOSOLVEIT.INFINISEE\_REAGENT2\_NAME>  (84) 
EMOL44846536

>  <s_sd_BIOSOLVEIT.INFINISEE\_REAGENT2\_SMILES>  (84) 
BrC1=C(Cl)SC(C(=O)O)=C1

>  <s_sd_BIOSOLVEIT.INFINISEE\_REAGENT3\_NAME>  (84) 
EMOL2873214

>  <s_sd_BIOSOLVEIT.INFINISEE\_REAGENT3\_SMILES>  (84) 
N(Cc1cc(ccc1)CN)(C)C

>  <s_sd_BIOSOLVEIT.INFINISEE\_SPACE>  (84) 
eXplore_7tr_2022-12

>  <s_vsw_compound_code>  (84) 
73825

>  <s_vsw_variant>  (84) 
73825-1

>  <r_epik_Charging_Adjusted_Penalty>  (84) 
0.086140609825027206

>  <r_epik_Ionization_Penalty>  (84) 
0.043200000000000002

>  <r_epik_Ionization_Penalty_Charging>  (84) 
0.043099999999999999

>  <r_epik_Ionization_Penalty_Neutral>  (84) 
0.0001

>  <r_epik_State_Penalty>  (84) 
0.043099999999999999

>  <r_i_docking_score>  (84) 
-2.4369167787508301

>  <r_i_glide_ecoul>  (84) 
-3.2783534526825

>  <r_i_glide_eff_state_penalty>  (84) 
0.043099999999999999

>  <r_i_glide_einternal>  (84) 
1.16559994220734

>  <r_i_glide_emodel>  (84) 
-40.7573780375361

>  <r_i_glide_energy>  (84) 
-33.427263975143397

>  <r_i_glide_erotb>  (84) 
0.88013692305191304

>  <r_i_glide_esite>  (84) 
-0.076928377176816096

>  <r_i_glide_evdw>  (84) 
-30.148910522460898

>  <r_i_glide_gscore>  (84) 
-2.48001677875083

>  <r_i_glide_hbond>  (84) 
0

>  <r_i_glide_ligand_efficiency>  (84) 
-0.078610218669381796

>  <r_i_glide_ligand_efficiency_ln>  (84) 
-0.54959941613854901

>  <r_i_glide_ligand_efficiency_sa>  (84) 
-0.24694461972558401

>  <r_i_glide_lipo>  (84) 
-0.96370914423687404

>  <r_i_glide_metal>  (84) 
-0

>  <r_i_glide_rewards>  (84) 
-0.32031763636363503

>  <r_lp_Energy>  (84) 
21.032526000000001

>  <r_lp_tautomer_probability>  (84) 
0.99999274205267796

>  <r_qp_ACxDN^.5/SA>  (84) 
0.0100436

>  <r_qp_CIQPlogS>  (84) 
-4.9020000000000001

>  <r_qp_EA(eV)>  (84) 
0.60299999999999998

>  <r_qp_FISA>  (84) 
40.344000000000001

>  <r_qp_FOSA>  (84) 
276.05000000000001

>  <r_qp_IP(eV)>  (84) 
8.3729999999999993

>  <r_qp_Jm>  (84) 
0.0057530850446639598

>  <r_qp_PISA>  (84) 
332.18099999999998

>  <r_qp_PSA>  (84) 
45.271999999999998

>  <r_qp_PercentHumanOralAbsorption>  (84) 
100

>  <r_qp_QPPCaco>  (84) 
255.34100000000001

>  <r_qp_QPPMDCK>  (84) 
394.83800000000002

>  <r_qp_QPlogBB>  (84) 
0.56599999999999995

>  <r_qp_QPlogHERG>  (84) 
-7.4029999999999996

>  <r_qp_QPlogKhsa>  (84) 
0.79400000000000004

>  <r_qp_QPlogKp>  (84) 
-4.258

>  <r_qp_QPlogPC16>  (84) 
14.685

>  <r_qp_QPlogPo/w>  (84) 
4.8360000000000003

>  <r_qp_QPlogPoct>  (84) 
21.169

>  <r_qp_QPlogPw>  (84) 
9.9440000000000008

>  <r_qp_QPlogS>  (84) 
-3.637

>  <r_qp_QPpolrz>  (84) 
46.384999999999998

>  <r_qp_SASA>  (84) 
731.65999999999997

>  <r_qp_SAamideO>  (84) 
0

>  <r_qp_SAfluorine>  (84) 
0

>  <r_qp_WPSA>  (84) 
83.085999999999999

>  <r_qp_accptHB>  (84) 
6

>  <r_qp_dip^2/V>  (84) 
0.024004399999999999

>  <r_qp_dipole>  (84) 
5.7850000000000001

>  <r_qp_donorHB>  (84) 
1.5

>  <r_qp_glob>  (84) 
0.82482350000000004

>  <r_qp_mol_MW>  (84) 
452.01299999999998

>  <r_qp_volume>  (84) 
1393.9860000000001

>  <r_sd_BIOSOLVEIT.INFINISEE\_FTREES\_SIMILARITY>  (84) 
0.92200000000000004

>  <r_sd_BIOSOLVEIT.LOGP>  (84) 
3.9337

>  <r_sd_BIOSOLVEIT.MOLECULAR\_WEIGHT>  (84) 
453.02600000000001

>  <r_sd_BIOSOLVEIT.TPSA>  (84) 
36.780000000000001

>  <i_epik_Tot_Q>  (84) 
1

>  <i_epik_Tot_abs_Q>  (84) 
1

>  <i_f3d_flags>  (84) 
0

>  <i_i_glide_confnum>  (84) 
2

>  <i_i_glide_lignum>  (84) 
819

>  <i_i_glide_posenum>  (84) 
13

>  <i_i_glide_rotatable_bonds>  (84) 
11

>  <i_lp_mmshare_version>  (84) 
65135

>  <i_m_ct_format>  (84) 
2

>  <i_m_source_file_index>  (84) 
2308

>  <i_qp_#NandO>  (84) 
4

>  <i_qp_#acid>  (84) 
0

>  <i_qp_#amide>  (84) 
0

>  <i_qp_#amidine>  (84) 
0

>  <i_qp_#amine>  (84) 
2

>  <i_qp_#in34>  (84) 
0

>  <i_qp_#in56>  (84) 
17

>  <i_qp_#metab>  (84) 
7

>  <i_qp_#nonHatm>  (84) 
31

>  <i_qp_#noncon>  (84) 
0

>  <i_qp_#ringatoms>  (84) 
17

>  <i_qp_#rotor>  (84) 
10

>  <i_qp_#rtvFG>  (84) 
0

>  <i_qp_#stars>  (84) 
0

>  <i_qp_CNS>  (84) 
2

>  <i_qp_HumanOralAbsorption>  (84) 
3

>  <i_qp_RuleOfFive>  (84) 
0

>  <i_qp_RuleOfThree>  (84) 
1

>  <i_sd_BIOSOLVEIT.INFINISEE\_RESULT\_RANK>  (84) 
12397

>  <i_sd_version>  (84) 
0

>  <b_lp_Chiralities_Consistent>  (84) 
1

>  <b_sd_chiral_flag>  (84) 
0

>  <canonical_id>  (84) 
ATP-HTVS-0D8C52C362EE

>  <compound_code>  (84) 
73825

>  <title>  (84) 
rxn512b____EMOL1197208____EMOL44846536____EMOL2873214

>  <variant>  (84) 
73825-1

>  <source_file>  (84) 
运行/运行/ATP-VSW/ATP-VSW-DOCK_HTVS_1-001_lib/ATP-VSW-DOCK_HTVS_1-001_lib

>  <canonical_smiles>  (84) 
C#CCN(Cc1ccccc1)C(=O)c1cc(NCc2cccc(C[NH+](C)C)c2)c(Cl)s1

>  <scaffold>  (84) 
O=C(NCc1ccccc1)c1cc(NCc2ccccc2)cs1

>  <molecular_formula>  (84) 
C25H27ClN3OS+

$$$$
ATP-HTVS-0DE7571C9DAC
     RDKit          3D

 54 56  0  0  0  0  0  0  0  0999 V2000
  203.1135  184.7779  161.7319 Cl  0  0  0  0  0  0  0  0  0  0  0  0
  203.4326  183.2596  160.9687 C   0  0  0  0  0  0  0  0  0  0  0  0
  202.5484  182.7241  160.0017 C   0  0  0  0  0  0  0  0  0  0  0  0
  202.8438  181.4843  159.3801 C   0  0  0  0  0  0  0  0  0  0  0  0
  201.9493  181.0075  158.4470 O   0  0  0  0  0  0  0  0  0  0  0  0
  202.2196  179.7679  157.8033 C   0  0  1  0  0  0  0  0  0  0  0  0
  201.0251  179.4038  156.9803 C   0  0  0  0  0  0  0  0  0  0  0  0
  200.0787  180.3655  156.8110 O   0  0  0  0  0  0  0  0  0  0  0  0
  199.0861  179.8199  156.0617 C   0  0  0  0  0  0  0  0  0  0  0  0
  199.3777  178.5268  155.7422 C   0  0  0  0  0  0  0  0  0  0  0  0
  200.6422  178.2545  156.3434 C   0  0  0  0  0  0  0  0  0  0  0  0
  197.9653  180.7412  155.7486 C   0  0  1  0  0  0  0  0  0  0  0  0
  197.1474  181.0388  156.9399 N   0  0  1  0  0  0  0  0  0  0  0  0
  196.1347  182.0860  156.7580 C   0  0  1  0  0  0  0  0  0  0  0  0
  196.7498  183.4967  156.7589 C   0  0  0  0  0  0  0  0  0  0  0  0
  196.7208  184.3454  157.9040 C   0  0  0  0  0  0  0  0  0  0  0  0
  196.1152  183.9024  159.0984 N   0  0  0  0  0  0  0  0  0  0  0  0
  196.0825  184.7377  160.2899 C   0  0  1  0  0  0  0  0  0  0  0  0
  194.9951  185.8304  160.2414 C   0  0  1  0  0  0  0  0  0  0  0  0
  195.0860  186.6200  161.4085 O   0  0  0  0  0  0  0  0  0  0  0  0
  197.2886  185.6412  157.8165 C   0  0  0  0  0  0  0  0  0  0  0  0
  197.9154  186.0804  156.6366 C   0  0  0  0  0  0  0  0  0  0  0  0
  197.9507  185.2370  155.5136 C   0  0  0  0  0  0  0  0  0  0  0  0
  197.3414  183.9724  155.5641 C   0  0  0  0  0  0  0  0  0  0  0  0
  204.0330  180.7990  159.7402 C   0  0  0  0  0  0  0  0  0  0  0  0
  204.9037  181.3342  160.7072 C   0  0  0  0  0  0  0  0  0  0  0  0
  204.6026  182.5625  161.3197 C   0  0  0  0  0  0  0  0  0  0  0  0
  201.2843  183.4896  159.6315 C   0  0  2  0  0  0  0  0  0  0  0  0
  196.6422  180.1729  157.2261 H   0  0  0  0  0  0  0  0  0  0  0  0
  203.0989  179.8571  157.1649 H   0  0  0  0  0  0  0  0  0  0  0  0
  202.3830  178.9811  158.5357 H   0  0  0  0  0  0  0  0  0  0  0  0
  198.7638  177.8677  155.1469 H   0  0  0  0  0  0  0  0  0  0  0  0
  201.1989  177.3291  156.3258 H   0  0  0  0  0  0  0  0  0  0  0  0
  198.4284  181.6421  155.3473 H   0  0  0  0  0  0  0  0  0  0  0  0
  197.3369  180.3193  154.9610 H   0  0  0  0  0  0  0  0  0  0  0  0
  195.5823  181.9022  155.8349 H   0  0  0  0  0  0  0  0  0  0  0  0
  195.3958  181.9786  157.5545 H   0  0  0  0  0  0  0  0  0  0  0  0
  195.8339  182.9379  159.2081 H   0  0  0  0  0  0  0  0  0  0  0  0
  195.8840  184.0769  161.1349 H   0  0  0  0  0  0  0  0  0  0  0  0
  197.0708  185.1675  160.4682 H   0  0  0  0  0  0  0  0  0  0  0  0
  195.0915  186.4866  159.3762 H   0  0  0  0  0  0  0  0  0  0  0  0
  193.9978  185.3923  160.1882 H   0  0  0  0  0  0  0  0  0  0  0  0
  195.8845  187.1271  161.3710 H   0  0  0  0  0  0  0  0  0  0  0  0
  197.2635  186.3368  158.6402 H   0  0  0  0  0  0  0  0  0  0  0  0
  198.3565  187.0672  156.5947 H   0  0  0  0  0  0  0  0  0  0  0  0
  198.4390  185.5677  154.6089 H   0  0  0  0  0  0  0  0  0  0  0  0
  197.3373  183.3621  154.6692 H   0  0  0  0  0  0  0  0  0  0  0  0
  204.3066  179.8572  159.2880 H   0  0  0  0  0  0  0  0  0  0  0  0
  205.8064  180.8045  160.9746 H   0  0  0  0  0  0  0  0  0  0  0  0
  205.2755  182.9785  162.0556 H   0  0  0  0  0  0  0  0  0  0  0  0
  200.7634  183.0635  158.7749 H   0  0  0  0  0  0  0  0  0  0  0  0
  201.5270  184.5209  159.3759 H   0  0  0  0  0  0  0  0  0  0  0  0
  200.5924  183.4994  160.4733 H   0  0  0  0  0  0  0  0  0  0  0  0
  197.7512  181.2787  157.6987 H   0  0  0  0  0  0  0  0  0  0  0  0
  1  2  1  0
  2  3  2  0
  2 27  1  0
  3  4  1  0
  3 28  1  0
  4  5  1  0
  4 25  2  0
  5  6  1  0
  6  7  1  0
  6 30  1  6
  6 31  1  0
  7  8  1  0
  7 11  2  0
  8  9  1  0
  9 10  2  0
  9 12  1  0
 10 11  1  0
 10 32  1  0
 11 33  1  0
 12 13  1  0
 12 34  1  6
 12 35  1  0
 13 14  1  0
 13 29  1  1
 13 54  1  0
 14 15  1  0
 14 36  1  6
 14 37  1  0
 15 16  1  0
 15 24  2  0
 16 17  1  0
 16 21  2  0
 17 18  1  0
 17 38  1  0
 18 19  1  0
 18 39  1  1
 18 40  1  0
 19 20  1  0
 19 41  1  6
 19 42  1  0
 20 43  1  0
 21 22  1  0
 21 44  1  0
 22 23  2  0
 22 45  1  0
 23 24  1  0
 23 46  1  0
 24 47  1  0
 25 26  1  0
 25 48  1  0
 26 27  2  0
 26 49  1  0
 27 50  1  0
 28 51  1  6
 28 52  1  0
 28 53  1  0
M  CHG  1  13   1
M  END
>  <s_epik_cmdline>  (85) 
J2VwaWtfcHl0aG9uJywgJy1waCcsICc3LjAwMDAwMCcsICctcGh0JywgJzIuMDAwMDAwJywgJy1tcycsICcxNicsICctdG4nLCAnOCcsICctbWEnLCAnMjAwJywgJy1pbWFlJywgJzxpbmZpbGUubWFlPicsICctb21hZScsICc8b3V0ZmlsZS5tYWU+Jw==

>  <s_epik_input>  (85) 
Q2xjMWMoW0NIM10pYyhbY0hdW2NIXVtjSF0xKU9bQ0gyXWMyb2MoW2NIXVtjSF0yKVtDSDJdW05IXVtDSDJdYzNjKFtOSF1bQ0gyXVtDSDJdW09IXSlbY0hdW2NIXVtjSF1bY0hdMw==

>  <s_i_glide_gridfile>  (85) 
ATP-Grid

>  <s_lp_Force_Field>  (85) 
OPLS_2005

>  <s_lp_Variant>  (85) 
m_270004bbb____25289968____24714512-1

>  <s_lp_label>  (85) 
1353_sdstereoexpander_1_neutralizer_1_epik_1_stereoizer_1

>  <s_m_source_file>  (85) 
ATP-VSW-LIGPREP-003-in.maegz

>  <s_sd_BIOSOLVEIT.INFINISEE\_QUERY\_NAME>  (85) 
Ref-Lig

>  <s_sd_BIOSOLVEIT.INFINISEE\_QUERY\_SMILES>  (85) 
S(c1nc2c(cc1C[NH2+]Cc3ccc(cc3)C[NH+](C)C)cccc2)Cc4ccccc4

>  <s_sd_BIOSOLVEIT.INFINISEE\_REACTION\_NAME>  (85) 
m_270004bbb

>  <s_sd_BIOSOLVEIT.INFINISEE\_REAGENT1\_SMILES>  (85) 
[R1*]NCc1c(NCCO)cccc1

>  <s_sd_BIOSOLVEIT.INFINISEE\_REAGENT2\_SMILES>  (85) 
[R1*]CC=1OC(=CC1)COc2c(c(Cl)ccc2)C

>  <s_sd_BIOSOLVEIT.INFINISEE\_SPACE>  (85) 
REALSpace_44bn_2023-08

>  <s_vsw_compound_code>  (85) 
43267

>  <s_vsw_variant>  (85) 
43267-1

>  <r_epik_Charging_Adjusted_Penalty>  (85) 
0.050767312063249997

>  <r_epik_Ionization_Penalty>  (85) 
0.025399999999999999

>  <r_epik_Ionization_Penalty_Charging>  (85) 
0.025399999999999999

>  <r_epik_Ionization_Penalty_Neutral>  (85) 
0

>  <r_epik_State_Penalty>  (85) 
0.025399999999999999

>  <r_i_docking_score>  (85) 
-4.6085237103661498

>  <r_i_glide_ecoul>  (85) 
-12.482104301452599

>  <r_i_glide_eff_state_penalty>  (85) 
0.025399999999999999

>  <r_i_glide_einternal>  (85) 
1.9520000219345099

>  <r_i_glide_emodel>  (85) 
-60.149561869567002

>  <r_i_glide_energy>  (85) 
-43.253846168518102

>  <r_i_glide_erotb>  (85) 
1.2145598899258601

>  <r_i_glide_esite>  (85) 
-0.10000000000000001

>  <r_i_glide_evdw>  (85) 
-30.771741867065401

>  <r_i_glide_gscore>  (85) 
-4.6339237103661501

>  <r_i_glide_hbond>  (85) 
-0.20000000000000001

>  <r_i_glide_ligand_efficiency>  (85) 
-0.164590132513077

>  <r_i_glide_ligand_efficiency_ln>  (85) 
-1.06378258448832

>  <r_i_glide_ligand_efficiency_sa>  (85) 
-0.49979258071362498

>  <r_i_glide_lipo>  (85) 
-1.2437590889935699

>  <r_i_glide_metal>  (85) 
-0

>  <r_i_glide_rewards>  (85) 
-0.89382177272727203

>  <r_lp_Energy>  (85) 
16.784762000000001

>  <r_lp_tautomer_probability>  (85) 
1

>  <r_qp_ACxDN^.5/SA>  (85) 
0.0139805

>  <r_qp_CIQPlogS>  (85) 
-4.9889999999999999

>  <r_qp_EA(eV)>  (85) 
0.031

>  <r_qp_FISA>  (85) 
65.75

>  <r_qp_FOSA>  (85) 
183.44999999999999

>  <r_qp_IP(eV)>  (85) 
7.9139999999999997

>  <r_qp_Jm>  (85) 
0.36611199433990099

>  <r_qp_PISA>  (85) 
367.48500000000001

>  <r_qp_PSA>  (85) 
59.768999999999998

>  <r_qp_PercentHumanOralAbsorption>  (85) 
100

>  <r_qp_QPPCaco>  (85) 
587.88

>  <r_qp_QPPMDCK>  (85) 
644.80399999999997

>  <r_qp_QPlogBB>  (85) 
-0.191

>  <r_qp_QPlogHERG>  (85) 
-6.7329999999999997

>  <r_qp_QPlogKhsa>  (85) 
0.378

>  <r_qp_QPlogKp>  (85) 
-2.4430000000000001

>  <r_qp_QPlogPC16>  (85) 
13.984999999999999

>  <r_qp_QPlogPo/w>  (85) 
4.1970000000000001

>  <r_qp_QPlogPoct>  (85) 
20.934000000000001

>  <r_qp_QPlogPw>  (85) 
11.647

>  <r_qp_QPlogS>  (85) 
-3.5960000000000001

>  <r_qp_QPpolrz>  (85) 
40.372999999999998

>  <r_qp_SASA>  (85) 
675.20500000000004

>  <r_qp_SAamideO>  (85) 
0

>  <r_qp_SAfluorine>  (85) 
0

>  <r_qp_WPSA>  (85) 
58.520000000000003

>  <r_qp_accptHB>  (85) 
5.4500000000000002

>  <r_qp_dip^2/V>  (85) 
0.022910699999999999

>  <r_qp_dipole>  (85) 
5.3540000000000001

>  <r_qp_donorHB>  (85) 
3

>  <r_qp_glob>  (85) 
0.83174820000000005

>  <r_qp_mol_MW>  (85) 
400.904

>  <r_qp_volume>  (85) 
1251.394

>  <r_sd_BIOSOLVEIT.INFINISEE\_FTREES\_SIMILARITY>  (85) 
0.90900000000000003

>  <r_sd_BIOSOLVEIT.LOGP>  (85) 
3.4882200000000001

>  <r_sd_BIOSOLVEIT.MOLECULAR\_WEIGHT>  (85) 
401.911

>  <r_sd_BIOSOLVEIT.TPSA>  (85) 
71.239999999999995

>  <i_epik_Tot_Q>  (85) 
1

>  <i_epik_Tot_abs_Q>  (85) 
1

>  <i_f3d_flags>  (85) 
0

>  <i_i_glide_confnum>  (85) 
5

>  <i_i_glide_lignum>  (85) 
529

>  <i_i_glide_posenum>  (85) 
20

>  <i_i_glide_rotatable_bonds>  (85) 
11

>  <i_lp_mmshare_version>  (85) 
65135

>  <i_m_ct_format>  (85) 
2

>  <i_m_source_file_index>  (85) 
1353

>  <i_qp_#NandO>  (85) 
5

>  <i_qp_#acid>  (85) 
0

>  <i_qp_#amide>  (85) 
0

>  <i_qp_#amidine>  (85) 
0

>  <i_qp_#amine>  (85) 
1

>  <i_qp_#in34>  (85) 
0

>  <i_qp_#in56>  (85) 
17

>  <i_qp_#metab>  (85) 
12

>  <i_qp_#nonHatm>  (85) 
28

>  <i_qp_#noncon>  (85) 
0

>  <i_qp_#ringatoms>  (85) 
17

>  <i_qp_#rotor>  (85) 
11

>  <i_qp_#rtvFG>  (85) 
0

>  <i_qp_#stars>  (85) 
1

>  <i_qp_CNS>  (85) 
0

>  <i_qp_HumanOralAbsorption>  (85) 
1

>  <i_qp_RuleOfFive>  (85) 
0

>  <i_qp_RuleOfThree>  (85) 
1

>  <i_sd_BIOSOLVEIT.INFINISEE\_REAGENT1\_NAME>  (85) 
25289968

>  <i_sd_BIOSOLVEIT.INFINISEE\_REAGENT2\_NAME>  (85) 
24714512

>  <i_sd_BIOSOLVEIT.INFINISEE\_RESULT\_RANK>  (85) 
49749

>  <i_sd_version>  (85) 
0

>  <b_lp_Chiralities_Consistent>  (85) 
1

>  <b_sd_chiral_flag>  (85) 
0

>  <canonical_id>  (85) 
ATP-HTVS-0DE7571C9DAC

>  <compound_code>  (85) 
43267

>  <title>  (85) 
m_270004bbb____25289968____24714512

>  <variant>  (85) 
43267-1

>  <source_file>  (85) 
运行/运行/ATP-VSW/ATP-VSW-DOCK_HTVS_1-003_lib/ATP-VSW-DOCK_HTVS_1-003_lib.mae

>  <canonical_smiles>  (85) 
Cc1c(Cl)cccc1OCc1ccc(C[NH2+]Cc2ccccc2NCCO)o1

>  <scaffold>  (85) 
c1ccc(C[NH2+]Cc2ccc(COc3ccccc3)o2)cc1

>  <molecular_formula>  (85) 
C22H26ClN2O3+

$$$$
ATP-HTVS-0E6472D072C2
     RDKit          3D

 63 66  0  0  0  0  0  0  0  0999 V2000
  193.9611  181.0365  158.5896 O   0  0  0  0  0  0  0  0  0  0  0  0
  194.6873  182.1871  158.5114 C   0  0  0  0  0  0  0  0  0  0  0  0
  195.9762  182.1387  157.9659 C   0  0  0  0  0  0  0  0  0  0  0  0
  196.7381  183.3017  157.8342 C   0  0  0  0  0  0  0  0  0  0  0  0
  196.1946  184.5577  158.1977 C   0  0  0  0  0  0  0  0  0  0  0  0
  194.9031  184.5900  158.7823 C   0  0  0  0  0  0  0  0  0  0  0  0
  194.1465  183.4132  158.9284 C   0  0  0  0  0  0  0  0  0  0  0  0
  196.9700  185.8570  157.9630 C   0  0  2  0  0  0  0  0  0  0  0  0
  197.8750  185.7919  156.7648 N   0  0  1  0  0  0  0  0  0  0  0  0
  197.1838  185.4347  155.4908 C   0  0  2  0  0  0  0  0  0  0  0  0
  198.6933  187.0124  156.5544 C   0  0  2  0  0  0  0  0  0  0  0  0
  197.6975  186.2386  159.2781 C   0  0  1  0  0  0  0  0  0  0  0  0
  196.7434  186.6741  160.2948 N   0  0  0  0  0  0  0  0  0  0  0  0
  196.5304  188.0443  160.5415 C   0  0  0  0  0  0  0  0  0  0  0  0
  197.3968  188.9366  160.0217 N   0  0  0  0  0  0  0  0  0  0  0  0
  197.2472  190.2312  160.3176 C   0  0  0  0  0  0  0  0  0  0  0  0
  196.2485  190.7289  161.0564 N   0  0  0  0  0  0  0  0  0  0  0  0
  195.3274  189.8714  161.5421 C   0  0  0  0  0  0  0  0  0  0  0  0
  195.4372  188.4700  161.3257 C   0  0  0  0  0  0  0  0  0  0  0  0
  194.4574  187.5788  161.8266 C   0  0  0  0  0  0  0  0  0  0  0  0
  193.3601  188.0825  162.5520 C   0  0  0  0  0  0  0  0  0  0  0  0
  193.2302  189.4696  162.7568 C   0  0  0  0  0  0  0  0  0  0  0  0
  194.2064  190.3525  162.2533 C   0  0  0  0  0  0  0  0  0  0  0  0
  198.1833  191.2526  159.6223 C   0  0  1  0  0  0  0  0  0  0  0  0
  199.3962  190.5537  158.9404 C   0  0  0  0  0  0  0  0  0  0  0  0
  200.4971  190.1038  159.7197 C   0  0  0  0  0  0  0  0  0  0  0  0
  201.6020  189.4627  159.1187 C   0  0  0  0  0  0  0  0  0  0  0  0
  201.6285  189.2541  157.7271 C   0  0  0  0  0  0  0  0  0  0  0  0
  200.5512  189.6940  156.9405 C   0  0  0  0  0  0  0  0  0  0  0  0
  199.4465  190.3248  157.5392 C   0  0  0  0  0  0  0  0  0  0  0  0
  197.3485  192.0290  158.5683 C   0  0  2  0  0  0  0  0  0  0  0  0
  198.7218  192.2827  160.6527 C   0  0  2  0  0  0  0  0  0  0  0  0
  194.5042  180.2948  158.3032 H   0  0  0  0  0  0  0  0  0  0  0  0
  196.3735  181.2014  157.5975 H   0  0  0  0  0  0  0  0  0  0  0  0
  197.7218  183.2008  157.3911 H   0  0  0  0  0  0  0  0  0  0  0  0
  194.4599  185.5331  159.0686 H   0  0  0  0  0  0  0  0  0  0  0  0
  193.1413  183.4669  159.3209 H   0  0  0  0  0  0  0  0  0  0  0  0
  196.2431  186.6454  157.7414 H   0  0  0  0  0  0  0  0  0  0  0  0
  196.4112  186.1676  155.2481 H   0  0  0  0  0  0  0  0  0  0  0  0
  196.7238  184.4469  155.4966 H   0  0  0  0  0  0  0  0  0  0  0  0
  197.9012  185.4164  154.6672 H   0  0  0  0  0  0  0  0  0  0  0  0
  198.0550  187.8934  156.4626 H   0  0  0  0  0  0  0  0  0  0  0  0
  199.2877  186.9304  155.6418 H   0  0  0  0  0  0  0  0  0  0  0  0
  199.4169  187.1789  157.3523 H   0  0  0  0  0  0  0  0  0  0  0  0
  198.2591  185.3801  159.6519 H   0  0  0  0  0  0  0  0  0  0  0  0
  198.4508  187.0087  159.1444 H   0  0  0  0  0  0  0  0  0  0  0  0
  196.0843  186.0031  160.6621 H   0  0  0  0  0  0  0  0  0  0  0  0
  194.5442  186.5110  161.6884 H   0  0  0  0  0  0  0  0  0  0  0  0
  192.6275  187.4060  162.9684 H   0  0  0  0  0  0  0  0  0  0  0  0
  192.3875  189.8574  163.3067 H   0  0  0  0  0  0  0  0  0  0  0  0
  194.0889  191.4209  162.3763 H   0  0  0  0  0  0  0  0  0  0  0  0
  200.5103  190.2316  160.7934 H   0  0  0  0  0  0  0  0  0  0  0  0
  202.4282  189.1234  159.7303 H   0  0  0  0  0  0  0  0  0  0  0  0
  202.4673  188.7511  157.2653 H   0  0  0  0  0  0  0  0  0  0  0  0
  200.5506  189.5289  155.8765 H   0  0  0  0  0  0  0  0  0  0  0  0
  198.6422  190.6084  156.8755 H   0  0  0  0  0  0  0  0  0  0  0  0
  196.8714  191.3588  157.8490 H   0  0  0  0  0  0  0  0  0  0  0  0
  197.9679  192.7502  158.0246 H   0  0  0  0  0  0  0  0  0  0  0  0
  196.5315  192.5973  159.0152 H   0  0  0  0  0  0  0  0  0  0  0  0
  199.2342  191.8139  161.4909 H   0  0  0  0  0  0  0  0  0  0  0  0
  197.9295  192.8919  161.0838 H   0  0  0  0  0  0  0  0  0  0  0  0
  199.4223  192.9696  160.1806 H   0  0  0  0  0  0  0  0  0  0  0  0
  198.5278  185.0507  156.9703 H   0  0  0  0  0  0  0  0  0  0  0  0
  1  2  1  0
  1 33  1  0
  2  3  1  0
  2  7  2  0
  3  4  2  0
  3 34  1  0
  4  5  1  0
  4 35  1  0
  5  6  2  0
  5  8  1  0
  6  7  1  0
  6 36  1  0
  7 37  1  0
  8  9  1  0
  8 12  1  0
  8 38  1  6
  9 10  1  0
  9 11  1  0
  9 63  1  1
 10 39  1  6
 10 40  1  0
 10 41  1  0
 11 42  1  6
 11 43  1  0
 11 44  1  0
 12 13  1  0
 12 45  1  1
 12 46  1  0
 13 14  1  0
 13 47  1  0
 14 15  1  0
 14 19  2  0
 15 16  2  0
 16 17  1  0
 24 16  1  1
 17 18  2  0
 18 19  1  0
 18 23  1  0
 19 20  1  0
 20 21  2  0
 20 48  1  0
 21 22  1  0
 21 49  1  0
 22 23  2  0
 22 50  1  0
 23 51  1  0
 24 25  1  0
 24 31  1  0
 24 32  1  0
 25 26  2  0
 25 30  1  0
 26 27  1  0
 26 52  1  0
 27 28  2  0
 27 53  1  0
 28 29  1  0
 28 54  1  0
 29 30  2  0
 29 55  1  0
 30 56  1  0
 31 57  1  6
 31 58  1  0
 31 59  1  0
 32 60  1  1
 32 61  1  0
 32 62  1  0
M  CHG  1   9   1
M  END
>  <s_epik_cmdline>  (86) 
J2VwaWtfcHl0aG9uJywgJy1waCcsICc3LjAwMDAwMCcsICctcGh0JywgJzIuMDAwMDAwJywgJy1tcycsICcxNicsICctdG4nLCAnOCcsICctbWEnLCAnMjAwJywgJy1pbWFlJywgJzxpbmZpbGUubWFlPicsICctb21hZScsICc8b3V0ZmlsZS5tYWU+Jw==

>  <s_epik_input>  (86) 
W09IXWMxW2NIXVtjSF1jKFtjSF1bY0hdMSlbQ0BIXShOKFtDSDNdKVtDSDNdKVtDSDJdW05IXWMoYyhjMjMpW2NIXVtjSF1bY0hdW2NIXTMpbmMobjIpQyhbQ0gzXSkoW0NIM10pYzRbY0hdW2NIXVtjSF1bY0hdW2NIXTQ=

>  <s_i_glide_gridfile>  (86) 
ATP-Grid

>  <s_lp_Force_Field>  (86) 
OPLS_2005

>  <s_lp_Variant>  (86) 
YAS_R006____OTV5753507____OTV7118560689____OTV1000393-2

>  <s_lp_label>  (86) 
47_sdstereoexpander_2_neutralizer_1_epik_1_stereoizer_1

>  <s_m_source_file>  (86) 
ATP-VSW-LIGPREP-001-in.maegz

>  <s_sd_BIOSOLVEIT.INFINISEE\_QUERY\_NAME>  (86) 
Ref-Lig

>  <s_sd_BIOSOLVEIT.INFINISEE\_QUERY\_SMILES>  (86) 
S(c1nc2c(cc1C[NH2+]Cc3ccc(cc3)C[NH+](C)C)cccc2)Cc4ccccc4

>  <s_sd_BIOSOLVEIT.INFINISEE\_REACTION\_NAME>  (86) 
YAS_R006

>  <s_sd_BIOSOLVEIT.INFINISEE\_REAGENT1\_NAME>  (86) 
OTV5753507

>  <s_sd_BIOSOLVEIT.INFINISEE\_REAGENT1\_SMILES>  (86) 
Nc1ccccc1

>  <s_sd_BIOSOLVEIT.INFINISEE\_REAGENT2\_NAME>  (86) 
OTV7118560689

>  <s_sd_BIOSOLVEIT.INFINISEE\_REAGENT2\_SMILES>  (86) 
O=C(O)C(c1ccccc1)(C)C

>  <s_sd_BIOSOLVEIT.INFINISEE\_REAGENT3\_NAME>  (86) 
OTV1000393

>  <s_sd_BIOSOLVEIT.INFINISEE\_REAGENT3\_SMILES>  (86) 
Oc1ccc(cc1)C(N(C)C)CN

>  <s_sd_BIOSOLVEIT.INFINISEE\_SPACE>  (86) 
CHEMriya_12bn_2022-01

>  <s_vsw_compound_code>  (86) 
1473

>  <s_vsw_variant>  (86) 
1473-2

>  <r_epik_Charging_Adjusted_Penalty>  (86) 
0.097406058138912302

>  <r_epik_Ionization_Penalty>  (86) 
0.061699999999999998

>  <r_epik_Ionization_Penalty_Charging>  (86) 
0.036499999999999998

>  <r_epik_Ionization_Penalty_Neutral>  (86) 
0.0253

>  <r_epik_State_Penalty>  (86) 
0.060900000000000003

>  <r_i_docking_score>  (86) 
-3.87174706925944

>  <r_i_glide_ecoul>  (86) 
-8.6087398529052699

>  <r_i_glide_eff_state_penalty>  (86) 
0.060900000000000003

>  <r_i_glide_einternal>  (86) 
5.0077767372131303

>  <r_i_glide_emodel>  (86) 
-49.247131129390397

>  <r_i_glide_energy>  (86) 
-39.133831024169901

>  <r_i_glide_erotb>  (86) 
0.65169760724020898

>  <r_i_glide_esite>  (86) 
-0.025685339259990898

>  <r_i_glide_evdw>  (86) 
-30.525091171264599

>  <r_i_glide_gscore>  (86) 
-3.9326470692594402

>  <r_i_glide_hbond>  (86) 
-0.16

>  <r_i_glide_ligand_efficiency>  (86) 
-0.120992095914358

>  <r_i_glide_ligand_efficiency_ln>  (86) 
-0.86698970864625202

>  <r_i_glide_ligand_efficiency_sa>  (86) 
-0.38412596022481699

>  <r_i_glide_lipo>  (86) 
-1.0871931643770001

>  <r_i_glide_metal>  (86) 
-0

>  <r_i_glide_rewards>  (86) 
-0.49390063636363402

>  <r_lp_Energy>  (86) 
19.997024

>  <r_lp_tautomer_probability>  (86) 
0.99997800023936201

>  <r_qp_ACxDN^.5/SA>  (86) 
0.0106292

>  <r_qp_CIQPlogS>  (86) 
-5.9820000000000002

>  <r_qp_EA(eV)>  (86) 
0.85299999999999998

>  <r_qp_FISA>  (86) 
69.75

>  <r_qp_FOSA>  (86) 
233.32499999999999

>  <r_qp_IP(eV)>  (86) 
8.4600000000000009

>  <r_qp_Jm>  (86) 
0.030267913733942699

>  <r_qp_PISA>  (86) 
395.43599999999998

>  <r_qp_PSA>  (86) 
52.914000000000001

>  <r_qp_PercentHumanOralAbsorption>  (86) 
100

>  <r_qp_QPPCaco>  (86) 
538.71299999999997

>  <r_qp_QPPMDCK>  (86) 
280.452

>  <r_qp_QPlogBB>  (86) 
-0.16200000000000001

>  <r_qp_QPlogHERG>  (86) 
-6.5499999999999998

>  <r_qp_QPlogKhsa>  (86) 
0.92300000000000004

>  <r_qp_QPlogKp>  (86) 
-2.7069999999999999

>  <r_qp_QPlogPC16>  (86) 
14.555

>  <r_qp_QPlogPo/w>  (86) 
4.9580000000000002

>  <r_qp_QPlogPoct>  (86) 
21.614000000000001

>  <r_qp_QPlogPw>  (86) 
10.9

>  <r_qp_QPlogS>  (86) 
-4.4420000000000002

>  <r_qp_QPpolrz>  (86) 
47.048999999999999

>  <r_qp_SASA>  (86) 
698.51099999999997

>  <r_qp_SAamideO>  (86) 
0

>  <r_qp_SAfluorine>  (86) 
0

>  <r_qp_WPSA>  (86) 
0

>  <r_qp_accptHB>  (86) 
5.25

>  <r_qp_dip^2/V>  (86) 
0.015892799999999999

>  <r_qp_dipole>  (86) 
4.6550000000000002

>  <r_qp_donorHB>  (86) 
2

>  <r_qp_glob>  (86) 
0.85128720000000002

>  <r_qp_mol_MW>  (86) 
426.56

>  <r_qp_volume>  (86) 
1363.4100000000001

>  <r_sd_BIOSOLVEIT.INFINISEE\_FTREES\_SIMILARITY>  (86) 
0.91800000000000004

>  <r_sd_BIOSOLVEIT.LOGP>  (86) 
3.9590000000000001

>  <r_sd_BIOSOLVEIT.MOLECULAR\_WEIGHT>  (86) 
427.56900000000002

>  <r_sd_BIOSOLVEIT.TPSA>  (86) 
62.479999999999997

>  <i_epik_Tot_Q>  (86) 
1

>  <i_epik_Tot_abs_Q>  (86) 
1

>  <i_f3d_flags>  (86) 
0

>  <i_i_glide_confnum>  (86) 
3

>  <i_i_glide_lignum>  (86) 
3

>  <i_i_glide_posenum>  (86) 
18

>  <i_i_glide_rotatable_bonds>  (86) 
8

>  <i_lp_mmshare_version>  (86) 
65135

>  <i_m_ct_format>  (86) 
2

>  <i_m_source_file_index>  (86) 
47

>  <i_qp_#NandO>  (86) 
5

>  <i_qp_#acid>  (86) 
0

>  <i_qp_#amide>  (86) 
0

>  <i_qp_#amidine>  (86) 
0

>  <i_qp_#amine>  (86) 
1

>  <i_qp_#in34>  (86) 
0

>  <i_qp_#in56>  (86) 
22

>  <i_qp_#metab>  (86) 
4

>  <i_qp_#nonHatm>  (86) 
32

>  <i_qp_#noncon>  (86) 
0

>  <i_qp_#ringatoms>  (86) 
22

>  <i_qp_#rotor>  (86) 
8

>  <i_qp_#rtvFG>  (86) 
0

>  <i_qp_#stars>  (86) 
0

>  <i_qp_CNS>  (86) 
1

>  <i_qp_HumanOralAbsorption>  (86) 
3

>  <i_qp_RuleOfFive>  (86) 
0

>  <i_qp_RuleOfThree>  (86) 
0

>  <i_sd_BIOSOLVEIT.INFINISEE\_RESULT\_RANK>  (86) 
19853

>  <i_sd_version>  (86) 
0

>  <b_lp_Chiralities_Consistent>  (86) 
1

>  <b_sd_chiral_flag>  (86) 
0

>  <canonical_id>  (86) 
ATP-HTVS-0E6472D072C2

>  <compound_code>  (86) 
1473

>  <title>  (86) 
YAS_R006____OTV5753507____OTV7118560689____OTV1000393

>  <variant>  (86) 
1473-2

>  <source_file>  (86) 
运行/运行/ATP-VSW/ATP-VSW-DOCK_HTVS_1-001_lib/ATP-VSW-DOCK_HTVS_1-001_lib

>  <canonical_smiles>  (86) 
C[NH+](C)[C@H](CNc1nc(C(C)(C)c2ccccc2)nc2ccccc12)c1ccc(O)cc1

>  <scaffold>  (86) 
c1ccc(CCNc2nc(Cc3ccccc3)nc3ccccc23)cc1

>  <molecular_formula>  (86) 
C27H31N4O+

$$$$
ATP-HTVS-0E76F39BB090
     RDKit          3D

 60 63  0  0  0  0  0  0  0  0999 V2000
  197.5667  184.5843  153.5711 N   0  0  0  0  0  0  0  0  0  0  0  0
  197.1699  183.4274  154.1453 C   0  0  0  0  0  0  0  0  0  0  0  0
  197.1895  183.3504  155.5475 N   0  0  0  0  0  0  0  0  0  0  0  0
  198.0915  184.1789  156.3451 C   0  0  1  0  0  0  0  0  0  0  0  0
  197.3954  184.9294  157.4647 C   0  0  0  0  0  0  0  0  0  0  0  0
  197.1524  184.3400  158.7311 C   0  0  0  0  0  0  0  0  0  0  0  0
  197.5443  183.0301  159.0150 N   0  0  0  0  0  0  0  0  0  0  0  0
  196.5063  185.0901  159.7334 C   0  0  0  0  0  0  0  0  0  0  0  0
  196.1091  186.4185  159.4922 C   0  0  0  0  0  0  0  0  0  0  0  0
  196.3491  187.0030  158.2345 C   0  0  0  0  0  0  0  0  0  0  0  0
  196.9859  186.2583  157.2212 C   0  0  0  0  0  0  0  0  0  0  0  0
  196.7595  182.3280  153.3470 C   0  0  0  0  0  0  0  0  0  0  0  0
  196.7566  182.4044  151.9947 N   0  0  0  0  0  0  0  0  0  0  0  0
  197.1505  183.5630  151.4195 C   0  0  0  0  0  0  0  0  0  0  0  0
  197.5686  184.6653  152.2221 C   0  0  0  0  0  0  0  0  0  0  0  0
  197.9902  185.8523  151.5938 C   0  0  0  0  0  0  0  0  0  0  0  0
  197.9998  185.9709  150.1917 C   0  0  0  0  0  0  0  0  0  0  0  0
  197.5717  184.8919  149.4004 C   0  0  0  0  0  0  0  0  0  0  0  0
  197.1493  183.6974  150.0120 C   0  0  0  0  0  0  0  0  0  0  0  0
  196.3522  181.1194  153.9347 N   0  0  0  0  0  0  0  0  0  0  0  0
  196.7529  179.8693  153.3076 C   0  0  1  0  0  0  0  0  0  0  0  0
  198.1975  179.4962  153.5689 C   0  0  0  0  0  0  0  0  0  0  0  0
  198.6805  179.4086  154.8919 C   0  0  0  0  0  0  0  0  0  0  0  0
  200.0263  179.0605  155.1300 C   0  0  0  0  0  0  0  0  0  0  0  0
  200.8843  178.8037  154.0400 C   0  0  0  0  0  0  0  0  0  0  0  0
  200.3963  178.8680  152.7212 C   0  0  0  0  0  0  0  0  0  0  0  0
  199.0534  179.2137  152.4864 C   0  0  0  0  0  0  0  0  0  0  0  0
  200.5364  178.9374  156.5561 C   0  0  1  0  0  0  0  0  0  0  0  0
  200.3490  177.5794  157.1297 N   0  0  2  0  0  0  0  0  0  0  0  0
  200.8894  177.5115  158.5012 C   0  0  2  0  0  0  0  0  0  0  0  0
  200.9097  176.4915  156.2878 C   0  0  2  0  0  0  0  0  0  0  0  0
  196.8364  182.5127  155.9816 H   0  0  0  0  0  0  0  0  0  0  0  0
  198.8586  183.5341  156.7585 H   0  0  0  0  0  0  0  0  0  0  0  0
  198.6408  184.9056  155.7414 H   0  0  0  0  0  0  0  0  0  0  0  0
  197.1562  182.5429  159.8166 H   0  0  0  0  0  0  0  0  0  0  0  0
  197.7972  182.4229  158.2478 H   0  0  0  0  0  0  0  0  0  0  0  0
  196.3285  184.6553  160.7059 H   0  0  0  0  0  0  0  0  0  0  0  0
  195.6214  186.9897  160.2638 H   0  0  0  0  0  0  0  0  0  0  0  0
  196.0471  188.0222  158.0474 H   0  0  0  0  0  0  0  0  0  0  0  0
  197.1658  186.7098  156.2572 H   0  0  0  0  0  0  0  0  0  0  0  0
  198.3064  186.6878  152.1975 H   0  0  0  0  0  0  0  0  0  0  0  0
  198.3316  186.8900  149.7363 H   0  0  0  0  0  0  0  0  0  0  0  0
  197.5791  184.9758  148.3219 H   0  0  0  0  0  0  0  0  0  0  0  0
  196.8313  182.8666  149.3999 H   0  0  0  0  0  0  0  0  0  0  0  0
  196.2384  181.1118  154.9373 H   0  0  0  0  0  0  0  0  0  0  0  0
  196.1288  179.0745  153.7048 H   0  0  0  0  0  0  0  0  0  0  0  0
  196.5545  179.8905  152.2350 H   0  0  0  0  0  0  0  0  0  0  0  0
  198.0135  179.5822  155.7252 H   0  0  0  0  0  0  0  0  0  0  0  0
  201.9146  178.5306  154.2049 H   0  0  0  0  0  0  0  0  0  0  0  0
  201.0449  178.6346  151.8897 H   0  0  0  0  0  0  0  0  0  0  0  0
  198.6793  179.2576  151.4725 H   0  0  0  0  0  0  0  0  0  0  0  0
  201.5912  179.2203  156.5745 H   0  0  0  0  0  0  0  0  0  0  0  0
  200.0169  179.6635  157.1856 H   0  0  0  0  0  0  0  0  0  0  0  0
  201.9527  177.7271  158.5028 H   0  0  0  0  0  0  0  0  0  0  0  0
  200.7485  176.5259  158.9341 H   0  0  0  0  0  0  0  0  0  0  0  0
  200.4049  178.2343  159.1454 H   0  0  0  0  0  0  0  0  0  0  0  0
  201.9823  176.6348  156.1298 H   0  0  0  0  0  0  0  0  0  0  0  0
  200.4243  176.4353  155.3154 H   0  0  0  0  0  0  0  0  0  0  0  0
  200.7711  175.5151  156.7573 H   0  0  0  0  0  0  0  0  0  0  0  0
  199.3460  177.4357  157.2116 H   0  0  0  0  0  0  0  0  0  0  0  0
  1  2  2  0
  1 15  1  0
  2  3  1  0
  2 12  1  0
  3  4  1  0
  3 32  1  0
  4  5  1  0
  4 33  1  1
  4 34  1  0
  5  6  1  0
  5 11  2  0
  6  7  1  0
  6  8  2  0
  7 35  1  0
  7 36  1  0
  8  9  1  0
  8 37  1  0
  9 10  2  0
  9 38  1  0
 10 11  1  0
 10 39  1  0
 11 40  1  0
 12 13  2  0
 12 20  1  0
 13 14  1  0
 14 15  1  0
 14 19  2  0
 15 16  2  0
 16 17  1  0
 16 41  1  0
 17 18  2  0
 17 42  1  0
 18 19  1  0
 18 43  1  0
 19 44  1  0
 20 21  1  0
 20 45  1  0
 21 22  1  0
 21 46  1  1
 21 47  1  0
 22 23  2  0
 22 27  1  0
 23 24  1  0
 23 48  1  0
 24 25  2  0
 24 28  1  0
 25 26  1  0
 25 49  1  0
 26 27  2  0
 26 50  1  0
 27 51  1  0
 28 29  1  0
 28 52  1  6
 28 53  1  0
 29 30  1  0
 29 31  1  0
 29 60  1  1
 30 54  1  6
 30 55  1  0
 30 56  1  0
 31 57  1  6
 31 58  1  0
 31 59  1  0
M  CHG  1  29   1
M  END
>  <s_epik_cmdline>  (87) 
J2VwaWtfcHl0aG9uJywgJy1waCcsICc3LjAwMDAwMCcsICctcGh0JywgJzIuMDAwMDAwJywgJy1tcycsICcxNicsICctdG4nLCAnOCcsICctbWEnLCAnMjAwJywgJy1pbWFlJywgJzxpbmZpbGUubWFlPicsICctb21hZScsICc8b3V0ZmlsZS5tYWU+Jw==

>  <s_epik_input>  (87) 
W2NIXTFbY0hdW2NIXVtjSF1jKFtOSDJdKWMxW0NIMl1bTkhdYyhuYyhjMjMpW2NIXVtjSF1bY0hdW2NIXTMpYyhuMilbTkhdW0NIMl1jNFtjSF1jKFtjSF1bY0hdW2NIXTQpW0NIMl1OKFtDSDNdKVtDSDNd

>  <s_i_glide_gridfile>  (87) 
ATP-Grid

>  <s_lp_Force_Field>  (87) 
OPLS_2005

>  <s_lp_Variant>  (87) 
m_282030aaa____21930836____23157418____21940090-1

>  <s_lp_label>  (87) 
1013_sdstereoexpander_1_neutralizer_1_epik_1_stereoizer_1

>  <s_m_source_file>  (87) 
ATP-VSW-LIGPREP-003-in.maegz

>  <s_sd_BIOSOLVEIT.INFINISEE\_QUERY\_NAME>  (87) 
Ref-Lig

>  <s_sd_BIOSOLVEIT.INFINISEE\_QUERY\_SMILES>  (87) 
S(c1nc2c(cc1C[NH2+]Cc3ccc(cc3)C[NH+](C)C)cccc2)Cc4ccccc4

>  <s_sd_BIOSOLVEIT.INFINISEE\_REACTION\_NAME>  (87) 
m_282030aaa

>  <s_sd_BIOSOLVEIT.INFINISEE\_REAGENT1\_SMILES>  (87) 
[R1*]NCc1c(N)cccc1

>  <s_sd_BIOSOLVEIT.INFINISEE\_REAGENT2\_SMILES>  (87) 
[R1*]c1nc2c(nc1[R2*])cccc2

>  <s_sd_BIOSOLVEIT.INFINISEE\_REAGENT3\_SMILES>  (87) 
[R2*]NCc1cc(ccc1)CN(C)C

>  <s_sd_BIOSOLVEIT.INFINISEE\_SPACE>  (87) 
REALSpace_44bn_2023-08

>  <s_vsw_compound_code>  (87) 
32387

>  <s_vsw_variant>  (87) 
32387-1

>  <r_epik_Charging_Adjusted_Penalty>  (87) 
0.088195370499548301

>  <r_epik_Ionization_Penalty>  (87) 
0.048300000000000003

>  <r_epik_Ionization_Penalty_Charging>  (87) 
0.0441

>  <r_epik_Ionization_Penalty_Neutral>  (87) 
0.0041999999999999997

>  <r_epik_State_Penalty>  (87) 
0.0441

>  <r_i_docking_score>  (87) 
-4.91384379869376

>  <r_i_glide_ecoul>  (87) 
-7.8480143547058097

>  <r_i_glide_eff_state_penalty>  (87) 
0.0441

>  <r_i_glide_einternal>  (87) 
3.4722564220428498

>  <r_i_glide_emodel>  (87) 
-58.601241936932098

>  <r_i_glide_energy>  (87) 
-42.474380016326897

>  <r_i_glide_erotb>  (87) 
0.80756258920153101

>  <r_i_glide_esite>  (87) 
-0.12249764932961101

>  <r_i_glide_evdw>  (87) 
-34.626365661621101

>  <r_i_glide_gscore>  (87) 
-4.9579437986937602

>  <r_i_glide_hbond>  (87) 
-0.263794325747023

>  <r_i_glide_ligand_efficiency>  (87) 
-0.15851109028044399

>  <r_i_glide_ligand_efficiency_ln>  (87) 
-1.10822236783255

>  <r_i_glide_ligand_efficiency_sa>  (87) 
-0.49794367162647502

>  <r_i_glide_lipo>  (87) 
-1.8811800674408301

>  <r_i_glide_metal>  (87) 
-0

>  <r_i_glide_rewards>  (87) 
-0.58951390909090795

>  <r_lp_Energy>  (87) 
26.776087

>  <r_qp_ACxDN^.5/SA>  (87) 
0.0169131

>  <r_qp_CIQPlogS>  (87) 
-5.2679999999999998

>  <r_qp_EA(eV)>  (87) 
0.67400000000000004

>  <r_qp_FISA>  (87) 
66.858000000000004

>  <r_qp_FOSA>  (87) 
217.36799999999999

>  <r_qp_IP(eV)>  (87) 
8.0890000000000004

>  <r_qp_Jm>  (87) 
0.56130058487684398

>  <r_qp_PISA>  (87) 
379.46100000000001

>  <r_qp_PSA>  (87) 
70.043999999999997

>  <r_qp_PercentHumanOralAbsorption>  (87) 
100

>  <r_qp_QPPCaco>  (87) 
573.83399999999995

>  <r_qp_QPPMDCK>  (87) 
300.26600000000002

>  <r_qp_QPlogBB>  (87) 
-0.17000000000000001

>  <r_qp_QPlogHERG>  (87) 
-6.1820000000000004

>  <r_qp_QPlogKhsa>  (87) 
0.5

>  <r_qp_QPlogKp>  (87) 
-2.613

>  <r_qp_QPlogPC16>  (87) 
14.24

>  <r_qp_QPlogPo/w>  (87) 
4.0300000000000002

>  <r_qp_QPlogPoct>  (87) 
23.152000000000001

>  <r_qp_QPlogPw>  (87) 
13.403

>  <r_qp_QPlogS>  (87) 
-3.2530000000000001

>  <r_qp_QPpolrz>  (87) 
43.840000000000003

>  <r_qp_SASA>  (87) 
663.68700000000001

>  <r_qp_SAamideO>  (87) 
0

>  <r_qp_SAfluorine>  (87) 
0

>  <r_qp_WPSA>  (87) 
0

>  <r_qp_accptHB>  (87) 
6

>  <r_qp_dip^2/V>  (87) 
0.0236934

>  <r_qp_dipole>  (87) 
5.556

>  <r_qp_donorHB>  (87) 
3.5

>  <r_qp_glob>  (87) 
0.86932169999999998

>  <r_qp_mol_MW>  (87) 
412.536

>  <r_qp_volume>  (87) 
1303.0699999999999

>  <r_sd_BIOSOLVEIT.INFINISEE\_FTREES\_SIMILARITY>  (87) 
0.91600000000000004

>  <r_sd_BIOSOLVEIT.LOGP>  (87) 
3.0807000000000002

>  <r_sd_BIOSOLVEIT.MOLECULAR\_WEIGHT>  (87) 
413.54599999999999

>  <r_sd_BIOSOLVEIT.TPSA>  (87) 
80.299999999999997

>  <i_epik_Tot_Q>  (87) 
1

>  <i_epik_Tot_abs_Q>  (87) 
1

>  <i_f3d_flags>  (87) 
0

>  <i_i_glide_confnum>  (87) 
4

>  <i_i_glide_lignum>  (87) 
382

>  <i_i_glide_posenum>  (87) 
7

>  <i_i_glide_rotatable_bonds>  (87) 
8

>  <i_lp_mmshare_version>  (87) 
65135

>  <i_m_ct_format>  (87) 
2

>  <i_m_source_file_index>  (87) 
1013

>  <i_qp_#NandO>  (87) 
6

>  <i_qp_#acid>  (87) 
0

>  <i_qp_#amide>  (87) 
0

>  <i_qp_#amidine>  (87) 
0

>  <i_qp_#amine>  (87) 
1

>  <i_qp_#in34>  (87) 
0

>  <i_qp_#in56>  (87) 
22

>  <i_qp_#metab>  (87) 
6

>  <i_qp_#nonHatm>  (87) 
31

>  <i_qp_#noncon>  (87) 
0

>  <i_qp_#ringatoms>  (87) 
22

>  <i_qp_#rotor>  (87) 
9

>  <i_qp_#rtvFG>  (87) 
0

>  <i_qp_#stars>  (87) 
0

>  <i_qp_CNS>  (87) 
0

>  <i_qp_HumanOralAbsorption>  (87) 
3

>  <i_qp_RuleOfFive>  (87) 
0

>  <i_qp_RuleOfThree>  (87) 
0

>  <i_sd_BIOSOLVEIT.INFINISEE\_REAGENT1\_NAME>  (87) 
21930836

>  <i_sd_BIOSOLVEIT.INFINISEE\_REAGENT2\_NAME>  (87) 
23157418

>  <i_sd_BIOSOLVEIT.INFINISEE\_REAGENT3\_NAME>  (87) 
21940090

>  <i_sd_BIOSOLVEIT.INFINISEE\_RESULT\_RANK>  (87) 
26908

>  <i_sd_version>  (87) 
0

>  <b_lp_Chiralities_Consistent>  (87) 
1

>  <b_sd_chiral_flag>  (87) 
0

>  <canonical_id>  (87) 
ATP-HTVS-0E76F39BB090

>  <compound_code>  (87) 
32387

>  <title>  (87) 
m_282030aaa____21930836____23157418____21940090

>  <variant>  (87) 
32387-1

>  <source_file>  (87) 
运行/运行/ATP-VSW/ATP-VSW-DOCK_HTVS_1-003_lib/ATP-VSW-DOCK_HTVS_1-003_lib.mae

>  <canonical_smiles>  (87) 
C[NH+](C)Cc1cccc(CNc2nc3ccccc3nc2NCc2ccccc2N)c1

>  <scaffold>  (87) 
c1ccc(CNc2nc3ccccc3nc2NCc2ccccc2)cc1

>  <molecular_formula>  (87) 
C25H29N6+

$$$$
ATP-HTVS-0E779CFB9E8D
     RDKit          3D

 68 71  0  0  0  0  0  0  0  0999 V2000
  203.9208  179.7431  153.6989 O   0  0  0  0  0  0  0  0  0  0  0  0
  203.3028  179.0658  154.5200 C   0  0  0  0  0  0  0  0  0  0  0  0
  202.5230  179.5693  155.5022 N   0  0  0  0  0  0  0  0  0  0  0  0
  202.0316  180.8919  155.6303 C   0  0  0  0  0  0  0  0  0  0  0  0
  200.7462  181.0528  156.1845 C   0  0  0  0  0  0  0  0  0  0  0  0
  200.1762  182.3329  156.3589 C   0  0  0  0  0  0  0  0  0  0  0  0
  198.8185  182.4183  156.9197 C   0  0  0  0  0  0  0  0  0  0  0  0
  197.7240  181.8713  156.2222 C   0  0  0  0  0  0  0  0  0  0  0  0
  196.4210  181.9645  156.7421 C   0  0  0  0  0  0  0  0  0  0  0  0
  196.1965  182.5896  157.9866 C   0  0  0  0  0  0  0  0  0  0  0  0
  197.2845  183.1419  158.6906 C   0  0  0  0  0  0  0  0  0  0  0  0
  198.5854  183.0538  158.1575 C   0  0  0  0  0  0  0  0  0  0  0  0
  194.7959  182.6842  158.5715 C   0  0  1  0  0  0  0  0  0  0  0  0
  193.9629  181.5538  158.1287 N   0  0  2  0  0  0  0  0  0  0  0  0
  200.9125  183.4814  155.9648 C   0  0  0  0  0  0  0  0  0  0  0  0
  202.2069  183.3154  155.4155 C   0  0  0  0  0  0  0  0  0  0  0  0
  202.7669  182.0338  155.2565 C   0  0  0  0  0  0  0  0  0  0  0  0
  200.3269  184.8932  156.0919 C   0  0  1  0  0  0  0  0  0  0  0  0
  201.3152  185.8740  156.5799 C   0  0  0  0  0  0  0  0  0  0  0  0
  202.0920  186.6419  156.9662 N   0  0  0  0  0  0  0  0  0  0  0  0
  199.6415  185.3422  154.8107 C   0  0  0  0  0  0  0  0  0  0  0  0
  200.3470  186.0845  153.8397 C   0  0  0  0  0  0  0  0  0  0  0  0
  199.6969  186.5049  152.6638 C   0  0  0  0  0  0  0  0  0  0  0  0
  198.3473  186.1747  152.4472 C   0  0  0  0  0  0  0  0  0  0  0  0
  197.6389  185.4310  153.4129 C   0  0  0  0  0  0  0  0  0  0  0  0
  198.2831  185.0225  154.5944 C   0  0  0  0  0  0  0  0  0  0  0  0
  203.3996  177.5605  154.5223 C   0  0  0  0  0  0  0  0  0  0  0  0
  202.3571  176.7654  155.0491 C   0  0  0  0  0  0  0  0  0  0  0  0
  202.4394  175.3573  155.0427 C   0  0  0  0  0  0  0  0  0  0  0  0
  203.5453  174.7178  154.4426 C   0  0  0  0  0  0  0  0  0  0  0  0
  204.5957  175.5086  153.9150 C   0  0  0  0  0  0  0  0  0  0  0  0
  204.5268  176.9178  153.9508 C   0  0  0  0  0  0  0  0  0  0  0  0
  203.5726  173.1940  154.3529 C   0  0  1  0  0  0  0  0  0  0  0  0
  202.6351  172.6418  153.3341 N   0  0  2  0  0  0  0  0  0  0  0  0
  203.0084  172.9922  151.9459 C   0  0  2  0  0  0  0  0  0  0  0  0
  201.1939  172.8888  153.5881 C   0  0  2  0  0  0  0  0  0  0  0  0
  193.0434  181.5884  158.5468 H   0  0  0  0  0  0  0  0  0  0  0  0
  194.4189  180.6776  158.3556 H   0  0  0  0  0  0  0  0  0  0  0  0
  202.1193  178.8858  156.1234 H   0  0  0  0  0  0  0  0  0  0  0  0
  200.1757  180.1817  156.4723 H   0  0  0  0  0  0  0  0  0  0  0  0
  197.8742  181.3765  155.2729 H   0  0  0  0  0  0  0  0  0  0  0  0
  195.6137  181.5436  156.1588 H   0  0  0  0  0  0  0  0  0  0  0  0
  197.1325  183.6406  159.6372 H   0  0  0  0  0  0  0  0  0  0  0  0
  199.4123  183.4686  158.7141 H   0  0  0  0  0  0  0  0  0  0  0  0
  194.8497  182.6811  159.6587 H   0  0  0  0  0  0  0  0  0  0  0  0
  194.3271  183.6178  158.2616 H   0  0  0  0  0  0  0  0  0  0  0  0
  202.7818  184.1779  155.1144 H   0  0  0  0  0  0  0  0  0  0  0  0
  203.7628  181.9415  154.8459 H   0  0  0  0  0  0  0  0  0  0  0  0
  199.5663  184.9231  156.8682 H   0  0  0  0  0  0  0  0  0  0  0  0
  201.3845  186.3422  153.9948 H   0  0  0  0  0  0  0  0  0  0  0  0
  200.2414  187.0851  151.9340 H   0  0  0  0  0  0  0  0  0  0  0  0
  197.8518  186.5025  151.5451 H   0  0  0  0  0  0  0  0  0  0  0  0
  196.5998  185.1805  153.2598 H   0  0  0  0  0  0  0  0  0  0  0  0
  197.7202  184.4680  155.3320 H   0  0  0  0  0  0  0  0  0  0  0  0
  201.4599  177.2165  155.4486 H   0  0  0  0  0  0  0  0  0  0  0  0
  201.6487  174.7839  155.5071 H   0  0  0  0  0  0  0  0  0  0  0  0
  205.4513  175.0397  153.4428 H   0  0  0  0  0  0  0  0  0  0  0  0
  205.3355  177.5075  153.5370 H   0  0  0  0  0  0  0  0  0  0  0  0
  204.5891  172.8699  154.1090 H   0  0  0  0  0  0  0  0  0  0  0  0
  203.3562  172.7625  155.3325 H   0  0  0  0  0  0  0  0  0  0  0  0
  202.9377  174.0660  151.7793 H   0  0  0  0  0  0  0  0  0  0  0  0
  202.3464  172.5092  151.2276 H   0  0  0  0  0  0  0  0  0  0  0  0
  204.0273  172.6845  151.7120 H   0  0  0  0  0  0  0  0  0  0  0  0
  200.9642  173.9596  153.5223 H   0  0  0  0  0  0  0  0  0  0  0  0
  200.9414  172.5550  154.5932 H   0  0  0  0  0  0  0  0  0  0  0  0
  200.5666  172.3138  152.8915 H   0  0  0  0  0  0  0  0  0  0  0  0
  193.8728  181.6376  157.1277 H   0  0  0  0  0  0  0  0  0  0  0  0
  202.7670  171.6251  153.4212 H   0  0  0  0  0  0  0  0  0  0  0  0
  1  2  2  0
  2  3  1  0
  2 27  1  0
  3  4  1  0
  3 39  1  0
  4  5  2  0
  4 17  1  0
  5  6  1  0
  5 40  1  0
  6  7  1  0
  6 15  2  0
  7  8  1  0
  7 12  2  0
  8  9  2  0
  8 41  1  0
  9 10  1  0
  9 42  1  0
 10 11  2  0
 10 13  1  0
 11 12  1  0
 11 43  1  0
 12 44  1  0
 13 14  1  0
 13 45  1  1
 13 46  1  0
 14 37  1  1
 14 38  1  0
 14 67  1  0
 15 16  1  0
 15 18  1  0
 16 17  2  0
 16 47  1  0
 17 48  1  0
 18 19  1  0
 18 21  1  0
 18 49  1  1
 19 20  3  0
 21 22  2  0
 21 26  1  0
 22 23  1  0
 22 50  1  0
 23 24  2  0
 23 51  1  0
 24 25  1  0
 24 52  1  0
 25 26  2  0
 25 53  1  0
 26 54  1  0
 27 28  1  0
 27 32  2  0
 28 29  2  0
 28 55  1  0
 29 30  1  0
 29 56  1  0
 30 31  2  0
 30 33  1  0
 31 32  1  0
 31 57  1  0
 32 58  1  0
 33 34  1  0
 33 59  1  6
 33 60  1  0
 34 35  1  0
 34 36  1  0
 34 68  1  6
 35 61  1  1
 35 62  1  0
 35 63  1  0
 36 64  1  1
 36 65  1  0
 36 66  1  0
M  CHG  2  14   1  34   1
M  END
>  <s_epik_cmdline>  (88) 
J2VwaWtfcHl0aG9uJywgJy1waCcsICc3LjAwMDAwMCcsICctcGh0JywgJzIuMDAwMDAwJywgJy1tcycsICcxNicsICctdG4nLCAnOCcsICctbWEnLCAnMjAwJywgJy1pbWFlJywgJzxpbmZpbGUubWFlPicsICctb21hZScsICc8b3V0ZmlsZS5tYWU+Jw==

>  <s_epik_input>  (88) 
W0NIM11OKFtDSDNdKVtDSDJdYyhbY0hdW2NIXTEpW2NIXVtjSF1jMUMoPU8pW05IXWMyW2NIXWMoLWMzW2NIXVtjSF1jKFtjSF1bY0hdMylbQ0gyXVtOSDJdKWMoW2NIXVtjSF0yKVtDQEBIXShDI04pYzRbY0hdW2NIXVtjSF1bY0hdW2NIXTQ=

>  <s_i_glide_gridfile>  (88) 
ATP-Grid

>  <s_lp_Force_Field>  (88) 
OPLS_2005

>  <s_lp_Variant>  (88) 
rxn501c____EMOL18624763____EMOL713289____EMOL717321-2

>  <s_lp_label>  (88) 
2900_sdstereoexpander_2_neutralizer_1_epik_1_stereoizer_1

>  <s_m_source_file>  (88) 
ATP-VSW-LIGPREP-003-in.maegz

>  <s_sd_BIOSOLVEIT.INFINISEE\_QUERY\_NAME>  (88) 
Ref-Lig

>  <s_sd_BIOSOLVEIT.INFINISEE\_QUERY\_SMILES>  (88) 
S(c1nc2c(cc1C[NH2+]Cc3ccc(cc3)C[NH+](C)C)cccc2)Cc4ccccc4

>  <s_sd_BIOSOLVEIT.INFINISEE\_REACTION\_NAME>  (88) 
rxn501c

>  <s_sd_BIOSOLVEIT.INFINISEE\_REAGENT1\_NAME>  (88) 
EMOL18624763

>  <s_sd_BIOSOLVEIT.INFINISEE\_REAGENT1\_SMILES>  (88) 
O=C(O)c1ccc(cc1)CN(C)C

>  <s_sd_BIOSOLVEIT.INFINISEE\_REAGENT2\_NAME>  (88) 
EMOL713289

>  <s_sd_BIOSOLVEIT.INFINISEE\_REAGENT2\_SMILES>  (88) 
Clc1c(ccc(N)c1)C(C#N)c2ccccc2

>  <s_sd_BIOSOLVEIT.INFINISEE\_REAGENT3\_NAME>  (88) 
EMOL717321

>  <s_sd_BIOSOLVEIT.INFINISEE\_REAGENT3\_SMILES>  (88) 
OB(O)c1ccc(cc1)CN

>  <s_sd_BIOSOLVEIT.INFINISEE\_SPACE>  (88) 
eXplore_7tr_2022-12

>  <s_vsw_compound_code>  (88) 
92771

>  <s_vsw_variant>  (88) 
92771-2

>  <r_epik_Charging_Adjusted_Penalty>  (88) 
0.16485350769020299

>  <r_epik_Ionization_Penalty>  (88) 
0.082400000000000001

>  <r_epik_Ionization_Penalty_Charging>  (88) 
0.082400000000000001

>  <r_epik_Ionization_Penalty_Neutral>  (88) 
0

>  <r_epik_State_Penalty>  (88) 
0.082400000000000001

>  <r_i_docking_score>  (88) 
-4.6409529372015701

>  <r_i_glide_ecoul>  (88) 
-17.114673614501999

>  <r_i_glide_eff_state_penalty>  (88) 
0.082400000000000001

>  <r_i_glide_einternal>  (88) 
5.5335397720336896

>  <r_i_glide_emodel>  (88) 
-63.180605870507101

>  <r_i_glide_energy>  (88) 
-43.5089721679688

>  <r_i_glide_erotb>  (88) 
0.624044426333216

>  <r_i_glide_esite>  (88) 
-0.23501330798369999

>  <r_i_glide_evdw>  (88) 
-26.3942985534668

>  <r_i_glide_gscore>  (88) 
-4.7233529372015699

>  <r_i_glide_hbond>  (88) 
-0.58733306785876704

>  <r_i_glide_ligand_efficiency>  (88) 
-0.12891535936671

>  <r_i_glide_ligand_efficiency_ln>  (88) 
-1.0125305468389301

>  <r_i_glide_ligand_efficiency_sa>  (88) 
-0.42566913738551898

>  <r_i_glide_lipo>  (88) 
-0.25367124511641198

>  <r_i_glide_metal>  (88) 
-0

>  <r_i_glide_rewards>  (88) 
-0.384463772727271

>  <r_lp_Energy>  (88) 
35.116754999999998

>  <r_qp_ACxDN^.5/SA>  (88) 
0.0140199

>  <r_qp_CIQPlogS>  (88) 
-6.2560000000000002

>  <r_qp_EA(eV)>  (88) 
0.57899999999999996

>  <r_qp_FISA>  (88) 
172.65600000000001

>  <r_qp_FOSA>  (88) 
232.16399999999999

>  <r_qp_IP(eV)>  (88) 
9.0229999999999997

>  <r_qp_Jm>  (88) 
2.2938435378205299e-07

>  <r_qp_PISA>  (88) 
459.97300000000001

>  <r_qp_PSA>  (88) 
93.686999999999998

>  <r_qp_PercentHumanOralAbsorption>  (88) 
72.197000000000003

>  <r_qp_QPPCaco>  (88) 
14.204000000000001

>  <r_qp_QPPMDCK>  (88) 
6.0960000000000001

>  <r_qp_QPlogBB>  (88) 
-1.242

>  <r_qp_QPlogHERG>  (88) 
-9.0839999999999996

>  <r_qp_QPlogKhsa>  (88) 
0.96099999999999997

>  <r_qp_QPlogKp>  (88) 
-6.2460000000000004

>  <r_qp_QPlogPC16>  (88) 
18.327000000000002

>  <r_qp_QPlogPo/w>  (88) 
4.2060000000000004

>  <r_qp_QPlogPoct>  (88) 
27.585000000000001

>  <r_qp_QPlogPw>  (88) 
15.186

>  <r_qp_QPlogS>  (88) 
-6.069

>  <r_qp_QPpolrz>  (88) 
55.048000000000002

>  <r_qp_SASA>  (88) 
864.79300000000001

>  <r_qp_SAamideO>  (88) 
0

>  <r_qp_SAfluorine>  (88) 
0

>  <r_qp_WPSA>  (88) 
0

>  <r_qp_accptHB>  (88) 
7

>  <r_qp_dip^2/V>  (88) 
0.058277299999999997

>  <r_qp_dipole>  (88) 
9.5960000000000001

>  <r_qp_donorHB>  (88) 
3

>  <r_qp_glob>  (88) 
0.75861279999999998

>  <r_qp_mol_MW>  (88) 
474.60399999999998

>  <r_qp_volume>  (88) 
1579.9780000000001

>  <r_sd_BIOSOLVEIT.INFINISEE\_FTREES\_SIMILARITY>  (88) 
0.90400000000000003

>  <r_sd_BIOSOLVEIT.LOGP>  (88) 
3.64778

>  <r_sd_BIOSOLVEIT.MOLECULAR\_WEIGHT>  (88) 
476.62099999999998

>  <r_sd_BIOSOLVEIT.TPSA>  (88) 
84.969999999999999

>  <i_epik_Tot_Q>  (88) 
2

>  <i_epik_Tot_abs_Q>  (88) 
2

>  <i_f3d_flags>  (88) 
0

>  <i_i_glide_confnum>  (88) 
6

>  <i_i_glide_lignum>  (88) 
1413

>  <i_i_glide_posenum>  (88) 
14

>  <i_i_glide_rotatable_bonds>  (88) 
9

>  <i_lp_mmshare_version>  (88) 
65135

>  <i_m_ct_format>  (88) 
2

>  <i_m_source_file_index>  (88) 
2900

>  <i_qp_#NandO>  (88) 
5

>  <i_qp_#acid>  (88) 
0

>  <i_qp_#amide>  (88) 
0

>  <i_qp_#amidine>  (88) 
0

>  <i_qp_#amine>  (88) 
2

>  <i_qp_#in34>  (88) 
0

>  <i_qp_#in56>  (88) 
24

>  <i_qp_#metab>  (88) 
7

>  <i_qp_#nonHatm>  (88) 
36

>  <i_qp_#noncon>  (88) 
0

>  <i_qp_#ringatoms>  (88) 
24

>  <i_qp_#rotor>  (88) 
10

>  <i_qp_#rtvFG>  (88) 
0

>  <i_qp_#stars>  (88) 
2

>  <i_qp_CNS>  (88) 
-2

>  <i_qp_HumanOralAbsorption>  (88) 
2

>  <i_qp_RuleOfFive>  (88) 
0

>  <i_qp_RuleOfThree>  (88) 
3

>  <i_sd_BIOSOLVEIT.INFINISEE\_RESULT\_RANK>  (88) 
74869

>  <i_sd_version>  (88) 
0

>  <b_lp_Chiralities_Consistent>  (88) 
1

>  <b_sd_chiral_flag>  (88) 
0

>  <canonical_id>  (88) 
ATP-HTVS-0E779CFB9E8D

>  <compound_code>  (88) 
92771

>  <title>  (88) 
rxn501c____EMOL18624763____EMOL713289____EMOL717321

>  <variant>  (88) 
92771-2

>  <source_file>  (88) 
运行/运行/ATP-VSW/ATP-VSW-DOCK_HTVS_1-003_lib/ATP-VSW-DOCK_HTVS_1-003_lib.mae

>  <canonical_smiles>  (88) 
C[NH+](C)Cc1ccc(C(=O)Nc2ccc([C@@H](C#N)c3ccccc3)c(-c3ccc(C[NH3+])cc3)c2)cc1

>  <scaffold>  (88) 
O=C(Nc1ccc(Cc2ccccc2)c(-c2ccccc2)c1)c1ccccc1

>  <molecular_formula>  (88) 
C31H32N4O+2

$$$$
ATP-HTVS-0EB7A7111FDE
     RDKit          3D

 59 62  0  0  0  0  0  0  0  0999 V2000
  198.5052  180.3400  151.8877 S   0  0  0  0  0  0  0  0  0  0  0  0
  199.0474  179.2802  153.1736 C   0  0  0  0  0  0  0  0  0  0  0  0
  198.4321  179.6260  154.4229 C   0  0  0  0  0  0  0  0  0  0  0  0
  198.7738  178.8033  155.5244 C   0  0  0  0  0  0  0  0  0  0  0  0
  199.6619  177.7193  155.4143 C   0  0  0  0  0  0  0  0  0  0  0  0
  200.2582  177.4227  154.1776 C   0  0  0  0  0  0  0  0  0  0  0  0
  199.9499  178.2062  153.0531 C   0  0  0  0  0  0  0  0  0  0  0  0
  197.5482  180.7799  154.2896 C   0  0  0  0  0  0  0  0  0  0  0  0
  196.8355  181.3391  155.3737 N   0  0  0  0  0  0  0  0  0  0  0  0
  197.4170  181.4950  156.6992 C   0  0  1  0  0  0  0  0  0  0  0  0
  196.7921  182.5974  157.5271 C   0  0  0  0  0  0  0  0  0  0  0  0
  195.8381  182.2928  158.5184 C   0  0  0  0  0  0  0  0  0  0  0  0
  195.3080  183.3215  159.3237 C   0  0  0  0  0  0  0  0  0  0  0  0
  195.7152  184.6608  159.1443 C   0  0  0  0  0  0  0  0  0  0  0  0
  195.1656  185.6412  159.9853 N   0  0  0  0  0  0  0  0  0  0  0  0
  195.5629  187.0459  159.9018 C   0  0  1  0  0  0  0  0  0  0  0  0
  196.7017  187.3566  160.8692 C   0  0  1  0  0  0  0  0  0  0  0  0
  197.1426  188.6926  160.7148 O   0  0  0  0  0  0  0  0  0  0  0  0
  196.6603  184.9581  158.1338 C   0  0  0  0  0  0  0  0  0  0  0  0
  197.1992  183.9311  157.3407 C   0  0  0  0  0  0  0  0  0  0  0  0
  197.4955  181.2402  152.9893 C   0  0  0  0  0  0  0  0  0  0  0  0
  196.7171  182.4084  152.4640 C   0  0  1  0  0  0  0  0  0  0  0  0
  197.3334  183.7011  152.8160 N   0  0  0  0  0  0  0  0  0  0  0  0
  198.2924  184.2466  152.0301 C   0  0  0  0  0  0  0  0  0  0  0  0
  198.6339  183.7575  150.9585 O   0  0  0  0  0  0  0  0  0  0  0  0
  198.9488  185.5141  152.5067 C   0  0  0  0  0  0  0  0  0  0  0  0
  198.9686  186.6575  151.6773 C   0  0  0  0  0  0  0  0  0  0  0  0
  198.3943  186.6305  150.4463 F   0  0  0  0  0  0  0  0  0  0  0  0
  199.5701  187.8508  152.1322 C   0  0  0  0  0  0  0  0  0  0  0  0
  200.1452  187.9116  153.4093 C   0  0  0  0  0  0  0  0  0  0  0  0
  200.1483  186.7687  154.2313 C   0  0  0  0  0  0  0  0  0  0  0  0
  200.6871  186.8218  155.4731 F   0  0  0  0  0  0  0  0  0  0  0  0
  199.6116  185.5624  153.7542 C   0  0  0  0  0  0  0  0  0  0  0  0
  196.7413  184.3798  153.9751 C   0  0  2  0  0  0  0  0  0  0  0  0
  198.3206  178.9745  156.4894 H   0  0  0  0  0  0  0  0  0  0  0  0
  199.8657  177.1148  156.2844 H   0  0  0  0  0  0  0  0  0  0  0  0
  200.9350  176.5843  154.0912 H   0  0  0  0  0  0  0  0  0  0  0  0
  200.3854  177.9796  152.0918 H   0  0  0  0  0  0  0  0  0  0  0  0
  196.1288  182.0350  155.1607 H   0  0  0  0  0  0  0  0  0  0  0  0
  197.2875  180.5822  157.2719 H   0  0  0  0  0  0  0  0  0  0  0  0
  198.4903  181.6842  156.6118 H   0  0  0  0  0  0  0  0  0  0  0  0
  195.5279  181.2671  158.6761 H   0  0  0  0  0  0  0  0  0  0  0  0
  194.5841  183.0674  160.0841 H   0  0  0  0  0  0  0  0  0  0  0  0
  194.6829  185.3370  160.8168 H   0  0  0  0  0  0  0  0  0  0  0  0
  195.8158  187.3558  158.8802 H   0  0  0  0  0  0  0  0  0  0  0  0
  194.7184  187.6546  160.2060 H   0  0  0  0  0  0  0  0  0  0  0  0
  196.3380  187.2166  161.8886 H   0  0  0  0  0  0  0  0  0  0  0  0
  197.5201  186.6549  160.7277 H   0  0  0  0  0  0  0  0  0  0  0  0
  197.8162  188.8710  161.3615 H   0  0  0  0  0  0  0  0  0  0  0  0
  197.0056  185.9602  157.9364 H   0  0  0  0  0  0  0  0  0  0  0  0
  197.9460  184.1665  156.5983 H   0  0  0  0  0  0  0  0  0  0  0  0
  196.5871  182.3039  151.3875 H   0  0  0  0  0  0  0  0  0  0  0  0
  195.7014  182.3415  152.8529 H   0  0  0  0  0  0  0  0  0  0  0  0
  199.5794  188.7247  151.5013 H   0  0  0  0  0  0  0  0  0  0  0  0
  200.5713  188.8361  153.7794 H   0  0  0  0  0  0  0  0  0  0  0  0
  199.6529  184.6803  154.3824 H   0  0  0  0  0  0  0  0  0  0  0  0
  197.3920  184.9581  154.6163 H   0  0  0  0  0  0  0  0  0  0  0  0
  196.2748  183.6540  154.6307 H   0  0  0  0  0  0  0  0  0  0  0  0
  195.9556  185.0556  153.6340 H   0  0  0  0  0  0  0  0  0  0  0  0
  1  2  1  0
  1 21  1  0
  2  3  1  0
  2  7  2  0
  3  4  2  0
  3  8  1  0
  4  5  1  0
  4 35  1  0
  5  6  2  0
  5 36  1  0
  6  7  1  0
  6 37  1  0
  7 38  1  0
  8  9  1  0
  8 21  2  0
  9 10  1  0
  9 39  1  0
 10 11  1  0
 10 40  1  1
 10 41  1  0
 11 12  1  0
 11 20  2  0
 12 13  2  0
 12 42  1  0
 13 14  1  0
 13 43  1  0
 14 15  1  0
 14 19  2  0
 15 16  1  0
 15 44  1  0
 16 17  1  0
 16 45  1  6
 16 46  1  0
 17 18  1  0
 17 47  1  1
 17 48  1  0
 18 49  1  0
 19 20  1  0
 19 50  1  0
 20 51  1  0
 21 22  1  0
 22 23  1  0
 22 52  1  6
 22 53  1  0
 23 24  1  0
 23 34  1  0
 24 25  2  0
 24 26  1  0
 26 27  2  0
 26 33  1  0
 27 28  1  0
 27 29  1  0
 29 30  2  0
 29 54  1  0
 30 31  1  0
 30 55  1  0
 31 32  1  0
 31 33  2  0
 33 56  1  0
 34 57  1  1
 34 58  1  0
 34 59  1  0
M  END
>  <s_epik_cmdline>  (89) 
J2VwaWtfcHl0aG9uJywgJy1waCcsICc3LjAwMDAwMCcsICctcGh0JywgJzIuMDAwMDAwJywgJy1tcycsICcxNicsICctdG4nLCAnOCcsICctbWEnLCAnMjAwJywgJy1pbWFlJywgJzxpbmZpbGUubWFlPicsICctb21hZScsICc8b3V0ZmlsZS5tYWU+Jw==

>  <s_epik_input>  (89) 
RmMoW2NIXTEpW2NIXVtjSF1jKEYpYzFDKD1PKU4oW0NIM10pW0NIMl1jKHMyKWMoYyhjMjMpW2NIXVtjSF1bY0hdW2NIXTMpW05IXVtDSDJdYzRbY0hdW2NIXWMoW2NIXVtjSF00KVtOSF1bQ0gyXVtDSDJdW09IXQ==

>  <s_i_glide_gridfile>  (89) 
ATP-Grid

>  <s_lp_Force_Field>  (89) 
OPLS_2005

>  <s_lp_Variant>  (89) 
rxn502c____EMOL491633____EMOL49259969____EMOL324170366-1

>  <s_lp_label>  (89) 
2513_sdstereoexpander_1_neutralizer_1_epik_1_stereoizer_1

>  <s_m_source_file>  (89) 
ATP-VSW-LIGPREP-001-in.maegz

>  <s_sd_BIOSOLVEIT.INFINISEE\_QUERY\_NAME>  (89) 
Ref-Lig

>  <s_sd_BIOSOLVEIT.INFINISEE\_QUERY\_SMILES>  (89) 
S(c1nc2c(cc1C[NH2+]Cc3ccc(cc3)C[NH+](C)C)cccc2)Cc4ccccc4

>  <s_sd_BIOSOLVEIT.INFINISEE\_REACTION\_NAME>  (89) 
rxn502c

>  <s_sd_BIOSOLVEIT.INFINISEE\_REAGENT1\_NAME>  (89) 
EMOL491633

>  <s_sd_BIOSOLVEIT.INFINISEE\_REAGENT1\_SMILES>  (89) 
Fc1c(cc(F)cc1)C(=O)O

>  <s_sd_BIOSOLVEIT.INFINISEE\_REAGENT2\_NAME>  (89) 
EMOL49259969

>  <s_sd_BIOSOLVEIT.INFINISEE\_REAGENT2\_SMILES>  (89) 
ClC=1c2c(SC1CNC)cccc2

>  <s_sd_BIOSOLVEIT.INFINISEE\_REAGENT3\_NAME>  (89) 
EMOL324170366

>  <s_sd_BIOSOLVEIT.INFINISEE\_REAGENT3\_SMILES>  (89) 
OCCNc1ccc(cc1)CN

>  <s_sd_BIOSOLVEIT.INFINISEE\_SPACE>  (89) 
eXplore_7tr_2022-12

>  <s_vsw_compound_code>  (89) 
80385

>  <s_vsw_variant>  (89) 
80385-1

>  <r_epik_Charging_Adjusted_Penalty>  (89) 
0.0083718636805958195

>  <r_epik_Ionization_Penalty>  (89) 
0.0083999999999999995

>  <r_epik_Ionization_Penalty_Charging>  (89) 
0

>  <r_epik_Ionization_Penalty_Neutral>  (89) 
0.0083999999999999995

>  <r_epik_State_Penalty>  (89) 
0.0083999999999999995

>  <r_i_docking_score>  (89) 
-2.7783298042291098

>  <r_i_glide_ecoul>  (89) 
-2.5299232006072998

>  <r_i_glide_eff_state_penalty>  (89) 
0.0083999999999999995

>  <r_i_glide_einternal>  (89) 
3.1757698059082

>  <r_i_glide_emodel>  (89) 
-43.08168217003

>  <r_i_glide_energy>  (89) 
-37.197655439376803

>  <r_i_glide_erotb>  (89) 
0.78734720124602398

>  <r_i_glide_esite>  (89) 
-0.080247667000115805

>  <r_i_glide_evdw>  (89) 
-34.667732238769503

>  <r_i_glide_gscore>  (89) 
-2.7867298042291102

>  <r_i_glide_hbond>  (89) 
-0.139019303160166

>  <r_i_glide_ligand_efficiency>  (89) 
-0.081715582477326895

>  <r_i_glide_ligand_efficiency_ln>  (89) 
-0.61381098326557104

>  <r_i_glide_ligand_efficiency_sa>  (89) 
-0.26472676503063802

>  <r_i_glide_lipo>  (89) 
-0.85714926460469198

>  <r_i_glide_metal>  (89) 
-0

>  <r_i_glide_rewards>  (89) 
-0.38478567868059099

>  <r_lp_Energy>  (89) 
32.206491

>  <r_qp_ACxDN^.5/SA>  (89) 
0.017191999999999999

>  <r_qp_CIQPlogS>  (89) 
-6.3760000000000003

>  <r_qp_EA(eV)>  (89) 
0.81799999999999995

>  <r_qp_FISA>  (89) 
67.813999999999993

>  <r_qp_FOSA>  (89) 
191.85400000000001

>  <r_qp_IP(eV)>  (89) 
8.0619999999999994

>  <r_qp_Jm>  (89) 
0.19120364935430101

>  <r_qp_PISA>  (89) 
310.56700000000001

>  <r_qp_PSA>  (89) 
64.936999999999998

>  <r_qp_PercentHumanOralAbsorption>  (89) 
100

>  <r_qp_QPPCaco>  (89) 
561.98000000000002

>  <r_qp_QPPMDCK>  (89) 
1100.6510000000001

>  <r_qp_QPlogBB>  (89) 
0.014

>  <r_qp_QPlogHERG>  (89) 
-5.8979999999999997

>  <r_qp_QPlogKhsa>  (89) 
0.45400000000000001

>  <r_qp_QPlogKp>  (89) 
-2.778

>  <r_qp_QPlogPC16>  (89) 
13.677

>  <r_qp_QPlogPo/w>  (89) 
4.3410000000000002

>  <r_qp_QPlogPoct>  (89) 
23.015999999999998

>  <r_qp_QPlogPw>  (89) 
12.741

>  <r_qp_QPlogS>  (89) 
-3.6230000000000002

>  <r_qp_QPpolrz>  (89) 
43.628

>  <r_qp_SASA>  (89) 
675.00699999999995

>  <r_qp_SAamideO>  (89) 
0

>  <r_qp_SAfluorine>  (89) 
69.572999999999993

>  <r_qp_WPSA>  (89) 
104.77200000000001

>  <r_qp_accptHB>  (89) 
6.7000000000000002

>  <r_qp_dip^2/V>  (89) 
0.016763199999999999

>  <r_qp_dipole>  (89) 
4.7220000000000004

>  <r_qp_donorHB>  (89) 
3

>  <r_qp_glob>  (89) 
0.86659039999999998

>  <r_qp_mol_MW>  (89) 
481.55900000000003

>  <r_qp_volume>  (89) 
1330.2570000000001

>  <r_sd_BIOSOLVEIT.INFINISEE\_FTREES\_SIMILARITY>  (89) 
0.91400000000000003

>  <r_sd_BIOSOLVEIT.LOGP>  (89) 
5.468

>  <r_sd_BIOSOLVEIT.MOLECULAR\_WEIGHT>  (89) 
481.56400000000002

>  <r_sd_BIOSOLVEIT.TPSA>  (89) 
64.599999999999994

>  <i_epik_Tot_Q>  (89) 
0

>  <i_epik_Tot_abs_Q>  (89) 
0

>  <i_f3d_flags>  (89) 
0

>  <i_i_glide_confnum>  (89) 
10

>  <i_i_glide_lignum>  (89) 
988

>  <i_i_glide_posenum>  (89) 
18

>  <i_i_glide_rotatable_bonds>  (89) 
11

>  <i_lp_mmshare_version>  (89) 
65135

>  <i_m_ct_format>  (89) 
2

>  <i_m_source_file_index>  (89) 
2513

>  <i_qp_#NandO>  (89) 
5

>  <i_qp_#acid>  (89) 
0

>  <i_qp_#amide>  (89) 
0

>  <i_qp_#amidine>  (89) 
0

>  <i_qp_#amine>  (89) 
1

>  <i_qp_#in34>  (89) 
0

>  <i_qp_#in56>  (89) 
21

>  <i_qp_#metab>  (89) 
7

>  <i_qp_#nonHatm>  (89) 
34

>  <i_qp_#noncon>  (89) 
0

>  <i_qp_#ringatoms>  (89) 
21

>  <i_qp_#rotor>  (89) 
10

>  <i_qp_#rtvFG>  (89) 
0

>  <i_qp_#stars>  (89) 
0

>  <i_qp_CNS>  (89) 
1

>  <i_qp_HumanOralAbsorption>  (89) 
3

>  <i_qp_RuleOfFive>  (89) 
0

>  <i_qp_RuleOfThree>  (89) 
1

>  <i_sd_BIOSOLVEIT.INFINISEE\_RESULT\_RANK>  (89) 
31973

>  <i_sd_version>  (89) 
0

>  <b_lp_Chiralities_Consistent>  (89) 
1

>  <b_sd_chiral_flag>  (89) 
0

>  <canonical_id>  (89) 
ATP-HTVS-0EB7A7111FDE

>  <compound_code>  (89) 
80385

>  <title>  (89) 
rxn502c____EMOL491633____EMOL49259969____EMOL324170366

>  <variant>  (89) 
80385-1

>  <source_file>  (89) 
运行/运行/ATP-VSW/ATP-VSW-DOCK_HTVS_1-001_lib/ATP-VSW-DOCK_HTVS_1-001_lib

>  <canonical_smiles>  (89) 
CN(Cc1sc2ccccc2c1NCc1ccc(NCCO)cc1)C(=O)c1cc(F)ccc1F

>  <scaffold>  (89) 
O=C(NCc1sc2ccccc2c1NCc1ccccc1)c1ccccc1

>  <molecular_formula>  (89) 
C26H25F2N3O2S

$$$$
ATP-HTVS-0F3A12BD04AB
     RDKit          3D

 64 67  0  0  0  0  0  0  0  0999 V2000
  198.7879  183.4806  158.7713 F   0  0  0  0  0  0  0  0  0  0  0  0
  197.4893  183.7924  158.9562 C   0  0  0  0  0  0  0  0  0  0  0  0
  196.4750  182.9696  158.4100 C   0  0  0  0  0  0  0  0  0  0  0  0
  195.1283  183.3258  158.6105 C   0  0  0  0  0  0  0  0  0  0  0  0
  194.7900  184.4541  159.3691 C   0  0  0  0  0  0  0  0  0  0  0  0
  195.7891  185.2466  159.9540 C   0  0  0  0  0  0  0  0  0  0  0  0
  197.1492  184.9279  159.7155 C   0  0  0  0  0  0  0  0  0  0  0  0
  195.4427  186.4741  160.7539 C   0  0  0  0  0  0  0  0  0  0  0  0
  196.2655  187.2447  161.1817 O   0  0  0  0  0  0  0  0  0  0  0  0
  193.9634  186.6655  161.1260 C   0  0  2  0  0  0  0  0  0  0  0  0
  196.8159  181.6934  157.6441 C   0  0  1  0  0  0  0  0  0  0  0  0
  197.4529  181.9863  156.2877 C   0  0  0  0  0  0  0  0  0  0  0  0
  198.6763  181.9785  156.1575 O   0  0  0  0  0  0  0  0  0  0  0  0
  196.6158  182.2594  155.2772 N   0  0  0  0  0  0  0  0  0  0  0  0
  196.9923  182.6994  153.9819 C   0  0  0  0  0  0  0  0  0  0  0  0
  197.6540  183.9351  153.7724 C   0  0  0  0  0  0  0  0  0  0  0  0
  197.9853  184.7343  154.8703 N   0  0  0  0  0  0  0  0  0  0  0  0
  197.2809  186.0101  154.9201 C   0  0  1  0  0  0  0  0  0  0  0  0
  197.6636  186.8186  156.1568 C   0  0  0  0  0  0  0  0  0  0  0  0
  196.7139  186.9952  157.1995 C   0  0  0  0  0  0  0  0  0  0  0  0
  196.9580  187.8374  158.2695 C   0  0  0  0  0  0  0  0  0  0  0  0
  198.2370  188.3619  158.4308 C   0  0  0  0  0  0  0  0  0  0  0  0
  198.5344  189.0190  159.6307 N   0  0  0  0  0  0  0  0  0  0  0  0
  199.3222  190.2421  159.6962 C   0  0  1  0  0  0  0  0  0  0  0  0
  198.4579  191.4824  160.0154 C   0  0  1  0  0  0  0  0  0  0  0  0
  197.9870  191.4302  161.3667 O   0  0  0  0  0  0  0  0  0  0  0  0
  199.2337  188.2259  157.3972 C   0  0  0  0  0  0  0  0  0  0  0  0
  198.9248  187.4726  156.2289 C   0  0  0  0  0  0  0  0  0  0  0  0
  197.9440  184.3622  152.4472 C   0  0  0  0  0  0  0  0  0  0  0  0
  197.5223  183.5497  151.3643 C   0  0  0  0  0  0  0  0  0  0  0  0
  196.8844  182.3868  151.6163 N   0  0  0  0  0  0  0  0  0  0  0  0
  196.6190  181.9364  152.8617 C   0  0  0  0  0  0  0  0  0  0  0  0
  197.7890  183.9298  150.0299 C   0  0  0  0  0  0  0  0  0  0  0  0
  198.4652  185.1379  149.7619 C   0  0  0  0  0  0  0  0  0  0  0  0
  198.8883  185.9536  150.8273 C   0  0  0  0  0  0  0  0  0  0  0  0
  198.6565  185.5551  152.1546 C   0  0  0  0  0  0  0  0  0  0  0  0
  194.3404  182.7036  158.2068 H   0  0  0  0  0  0  0  0  0  0  0  0
  193.7429  184.6967  159.4571 H   0  0  0  0  0  0  0  0  0  0  0  0
  197.9451  185.5666  160.0733 H   0  0  0  0  0  0  0  0  0  0  0  0
  193.3447  186.7010  160.2348 H   0  0  0  0  0  0  0  0  0  0  0  0
  193.8395  187.6192  161.6531 H   0  0  0  0  0  0  0  0  0  0  0  0
  193.6355  185.8433  161.7721 H   0  0  0  0  0  0  0  0  0  0  0  0
  197.4846  181.0620  158.2293 H   0  0  0  0  0  0  0  0  0  0  0  0
  195.9039  181.1164  157.4776 H   0  0  0  0  0  0  0  0  0  0  0  0
  195.6247  182.2395  155.4867 H   0  0  0  0  0  0  0  0  0  0  0  0
  197.8748  184.2351  155.7481 H   0  0  0  0  0  0  0  0  0  0  0  0
  197.5342  186.6745  154.0912 H   0  0  0  0  0  0  0  0  0  0  0  0
  196.1882  185.8547  154.9044 H   0  0  0  0  0  0  0  0  0  0  0  0
  195.7735  186.4906  157.1167 H   0  0  0  0  0  0  0  0  0  0  0  0
  196.1745  188.0221  158.9862 H   0  0  0  0  0  0  0  0  0  0  0  0
  197.9962  188.7906  160.4583 H   0  0  0  0  0  0  0  0  0  0  0  0
  200.1104  190.1270  160.4456 H   0  0  0  0  0  0  0  0  0  0  0  0
  199.8179  190.4131  158.7466 H   0  0  0  0  0  0  0  0  0  0  0  0
  199.0793  192.3721  159.9145 H   0  0  0  0  0  0  0  0  0  0  0  0
  197.6362  191.5909  159.3069 H   0  0  0  0  0  0  0  0  0  0  0  0
  198.4931  190.7284  161.7702 H   0  0  0  0  0  0  0  0  0  0  0  0
  200.2314  188.7097  157.4708 H   0  0  0  0  0  0  0  0  0  0  0  0
  199.6451  187.3982  155.4056 H   0  0  0  0  0  0  0  0  0  0  0  0
  196.0806  181.0053  152.9311 H   0  0  0  0  0  0  0  0  0  0  0  0
  197.5011  183.3061  149.1952 H   0  0  0  0  0  0  0  0  0  0  0  0
  198.6920  185.4376  148.7473 H   0  0  0  0  0  0  0  0  0  0  0  0
  199.4183  186.8794  150.6455 H   0  0  0  0  0  0  0  0  0  0  0  0
  199.0595  186.1802  152.9382 H   0  0  0  0  0  0  0  0  0  0  0  0
  196.6067  181.8065  150.8281 H   0  0  0  0  0  0  0  0  0  0  0  0
  1  2  1  0
  2  3  2  0
  2  7  1  0
  3  4  1  0
  3 11  1  0
  4  5  2  0
  4 37  1  0
  5  6  1  0
  5 38  1  0
  6  7  2  0
  6  8  1  0
  7 39  1  0
  8  9  2  0
  8 10  1  0
 10 40  1  6
 10 41  1  0
 10 42  1  0
 11 12  1  0
 11 43  1  1
 11 44  1  0
 12 13  2  0
 12 14  1  0
 14 15  1  0
 14 45  1  0
 15 16  2  0
 15 32  1  0
 16 17  1  0
 16 29  1  0
 17 18  1  0
 17 46  1  0
 18 19  1  0
 18 47  1  6
 18 48  1  0
 19 20  1  0
 19 28  2  0
 20 21  2  0
 20 49  1  0
 21 22  1  0
 21 50  1  0
 22 23  1  0
 22 27  2  0
 23 24  1  0
 23 51  1  0
 24 25  1  0
 24 52  1  1
 24 53  1  0
 25 26  1  0
 25 54  1  1
 25 55  1  0
 26 56  1  0
 27 28  1  0
 27 57  1  0
 28 58  1  0
 29 30  1  0
 29 36  2  0
 30 31  1  0
 30 33  2  0
 31 32  2  0
 31 64  1  0
 32 59  1  0
 33 34  1  0
 33 60  1  0
 34 35  2  0
 34 61  1  0
 35 36  1  0
 35 62  1  0
 36 63  1  0
M  CHG  1  31   1
M  END
>  <s_epik_cmdline>  (90) 
J2VwaWtfcHl0aG9uJywgJy1waCcsICc3LjAwMDAwMCcsICctcGh0JywgJzIuMDAwMDAwJywgJy1tcycsICcxNicsICctdG4nLCAnOCcsICctbWEnLCAnMjAwJywgJy1pbWFlJywgJzxpbmZpbGUubWFlPicsICctb21hZScsICc8b3V0ZmlsZS5tYWU+Jw==

>  <s_epik_input>  (90) 
Tz1DKFtDSDNdKWMoW2NIXTEpW2NIXVtjSF1jKGMxRilbQ0gyXUMoPU8pW05IXWMoW2NIXW5jKGMyMylbY0hdW2NIXVtjSF1bY0hdMyljMltOSF1bQ0gyXWM0W2NIXVtjSF1jKFtjSF1bY0hdNClbTkhdW0NIMl1bQ0gyXVtPSF0=

>  <s_i_glide_gridfile>  (90) 
ATP-Grid

>  <s_lp_Force_Field>  (90) 
OPLS_2005

>  <s_lp_Variant>  (90) 
rxn502b____EMOL92488516____EMOL30488121____EMOL324170366-1

>  <s_lp_label>  (90) 
2856_sdstereoexpander_1_neutralizer_1_epik_1_stereoizer_1

>  <s_m_source_file>  (90) 
ATP-VSW-LIGPREP-001-in.maegz

>  <s_sd_BIOSOLVEIT.INFINISEE\_QUERY\_NAME>  (90) 
Ref-Lig

>  <s_sd_BIOSOLVEIT.INFINISEE\_QUERY\_SMILES>  (90) 
S(c1nc2c(cc1C[NH2+]Cc3ccc(cc3)C[NH+](C)C)cccc2)Cc4ccccc4

>  <s_sd_BIOSOLVEIT.INFINISEE\_REACTION\_NAME>  (90) 
rxn502b

>  <s_sd_BIOSOLVEIT.INFINISEE\_REAGENT1\_NAME>  (90) 
EMOL92488516

>  <s_sd_BIOSOLVEIT.INFINISEE\_REAGENT1\_SMILES>  (90) 
Fc1c(ccc(c1)C(=O)C)CC(=O)O

>  <s_sd_BIOSOLVEIT.INFINISEE\_REAGENT2\_NAME>  (90) 
EMOL30488121

>  <s_sd_BIOSOLVEIT.INFINISEE\_REAGENT2\_SMILES>  (90) 
Brc1c(N)cnc2c1cccc2

>  <s_sd_BIOSOLVEIT.INFINISEE\_REAGENT3\_NAME>  (90) 
EMOL324170366

>  <s_sd_BIOSOLVEIT.INFINISEE\_REAGENT3\_SMILES>  (90) 
OCCNc1ccc(cc1)CN

>  <s_sd_BIOSOLVEIT.INFINISEE\_SPACE>  (90) 
eXplore_7tr_2022-12

>  <s_vsw_compound_code>  (90) 
91361

>  <s_vsw_variant>  (90) 
91361-1

>  <r_epik_Charging_Adjusted_Penalty>  (90) 
0.070741260803717995

>  <r_epik_Ionization_Penalty>  (90) 
0.041200000000000001

>  <r_epik_Ionization_Penalty_Charging>  (90) 
0.029499999999999998

>  <r_epik_Ionization_Penalty_Neutral>  (90) 
0.0117

>  <r_epik_State_Penalty>  (90) 
0.041200000000000001

>  <r_i_docking_score>  (90) 
-6.07159898960278

>  <r_i_glide_ecoul>  (90) 
-12.8980350494385

>  <r_i_glide_eff_state_penalty>  (90) 
0.041200000000000001

>  <r_i_glide_einternal>  (90) 
14.7031297683716

>  <r_i_glide_emodel>  (90) 
-63.739707722394002

>  <r_i_glide_energy>  (90) 
-47.801977157592802

>  <r_i_glide_erotb>  (90) 
0.59869792951425205

>  <r_i_glide_esite>  (90) 
-0.16887576946699201

>  <r_i_glide_evdw>  (90) 
-34.903942108154297

>  <r_i_glide_gscore>  (90) 
-6.1127989896027799

>  <r_i_glide_hbond>  (90) 
-0.44213559840844802

>  <r_i_glide_ligand_efficiency>  (90) 
-0.16865552748896601

>  <r_i_glide_ligand_efficiency_ln>  (90) 
-1.3246588638832799

>  <r_i_glide_ligand_efficiency_sa>  (90) 
-0.55688828122730705

>  <r_i_glide_lipo>  (90) 
-1.8125778115303599

>  <r_i_glide_metal>  (90) 
-0

>  <r_i_glide_rewards>  (90) 
-0.60800537688773904

>  <r_lp_Energy>  (90) 
43.430402999999998

>  <r_lp_tautomer_probability>  (90) 
0.99995000000000001

>  <r_qp_ACxDN^.5/SA>  (90) 
0.024740100000000001

>  <r_qp_CIQPlogS>  (90) 
-6.5609999999999999

>  <r_qp_EA(eV)>  (90) 
1.127

>  <r_qp_FISA>  (90) 
185.90100000000001

>  <r_qp_FOSA>  (90) 
181.12100000000001

>  <r_qp_IP(eV)>  (90) 
8.4480000000000004

>  <r_qp_Jm>  (90) 
0.027832126743794702

>  <r_qp_PISA>  (90) 
362.69900000000001

>  <r_qp_PSA>  (90) 
121.651

>  <r_qp_PercentHumanOralAbsorption>  (90) 
85.706000000000003

>  <r_qp_QPPCaco>  (90) 
171.00299999999999

>  <r_qp_QPPMDCK>  (90) 
87.513999999999996

>  <r_qp_QPlogBB>  (90) 
-1.891

>  <r_qp_QPlogHERG>  (90) 
-6.1100000000000003

>  <r_qp_QPlogKhsa>  (90) 
0.16500000000000001

>  <r_qp_QPlogKp>  (90) 
-2.6120000000000001

>  <r_qp_QPlogPC16>  (90) 
16.106999999999999

>  <r_qp_QPlogPo/w>  (90) 
3.21

>  <r_qp_QPlogPoct>  (90) 
27.693999999999999

>  <r_qp_QPlogPw>  (90) 
17.739000000000001

>  <r_qp_QPlogS>  (90) 
-4.6310000000000002

>  <r_qp_QPpolrz>  (90) 
47.331000000000003

>  <r_qp_SASA>  (90) 
743.73299999999995

>  <r_qp_SAamideO>  (90) 
0

>  <r_qp_SAfluorine>  (90) 
14.012

>  <r_qp_WPSA>  (90) 
14.012

>  <r_qp_accptHB>  (90) 
9.1999999999999993

>  <r_qp_dip^2/V>  (90) 
0.055046999999999999

>  <r_qp_dipole>  (90) 
8.8610000000000007

>  <r_qp_donorHB>  (90) 
4

>  <r_qp_glob>  (90) 
0.8239592

>  <r_qp_mol_MW>  (90) 
486.54500000000002

>  <r_qp_volume>  (90) 
1426.385

>  <r_sd_BIOSOLVEIT.INFINISEE\_FTREES\_SIMILARITY>  (90) 
0.90500000000000003

>  <r_sd_BIOSOLVEIT.LOGP>  (90) 
4.774

>  <r_sd_BIOSOLVEIT.MOLECULAR\_WEIGHT>  (90) 
486.54399999999998

>  <r_sd_BIOSOLVEIT.TPSA>  (90) 
103.34999999999999

>  <i_epik_Tot_Q>  (90) 
1

>  <i_epik_Tot_abs_Q>  (90) 
1

>  <i_f3d_flags>  (90) 
0

>  <i_i_glide_confnum>  (90) 
29

>  <i_i_glide_lignum>  (90) 
1317

>  <i_i_glide_posenum>  (90) 
2

>  <i_i_glide_rotatable_bonds>  (90) 
12

>  <i_lp_mmshare_version>  (90) 
65135

>  <i_m_ct_format>  (90) 
2

>  <i_m_source_file_index>  (90) 
2856

>  <i_qp_#NandO>  (90) 
7

>  <i_qp_#acid>  (90) 
0

>  <i_qp_#amide>  (90) 
0

>  <i_qp_#amidine>  (90) 
0

>  <i_qp_#amine>  (90) 
0

>  <i_qp_#in34>  (90) 
0

>  <i_qp_#in56>  (90) 
22

>  <i_qp_#metab>  (90) 
8

>  <i_qp_#nonHatm>  (90) 
36

>  <i_qp_#noncon>  (90) 
0

>  <i_qp_#ringatoms>  (90) 
22

>  <i_qp_#rotor>  (90) 
11

>  <i_qp_#rtvFG>  (90) 
0

>  <i_qp_#stars>  (90) 
0

>  <i_qp_CNS>  (90) 
-2

>  <i_qp_HumanOralAbsorption>  (90) 
3

>  <i_qp_RuleOfFive>  (90) 
0

>  <i_qp_RuleOfThree>  (90) 
1

>  <i_sd_BIOSOLVEIT.INFINISEE\_RESULT\_RANK>  (90) 
69626

>  <i_sd_version>  (90) 
0

>  <b_lp_Chiralities_Consistent>  (90) 
1

>  <b_sd_chiral_flag>  (90) 
0

>  <canonical_id>  (90) 
ATP-HTVS-0F3A12BD04AB

>  <compound_code>  (90) 
91361

>  <title>  (90) 
rxn502b____EMOL92488516____EMOL30488121____EMOL324170366

>  <variant>  (90) 
91361-1

>  <source_file>  (90) 
运行/运行/ATP-VSW/ATP-VSW-DOCK_HTVS_1-001_lib/ATP-VSW-DOCK_HTVS_1-001_lib

>  <canonical_smiles>  (90) 
CC(=O)c1ccc(CC(=O)Nc2c[nH+]c3ccccc3c2NCc2ccc(NCCO)cc2)c(F)c1

>  <scaffold>  (90) 
O=C(Cc1ccccc1)Nc1c[nH+]c2ccccc2c1NCc1ccccc1

>  <molecular_formula>  (90) 
C28H28FN4O3+

$$$$
ATP-HTVS-0F469DA925F8
     RDKit          3D

 60 63  0  0  0  0  0  0  0  0999 V2000
  199.5943  181.6516  154.9032 O   0  0  0  0  0  0  0  0  0  0  0  0
  198.7504  181.1187  155.6244 C   0  0  0  0  0  0  0  0  0  0  0  0
  198.4178  179.8369  155.6016 N   0  0  0  0  0  0  0  0  0  0  0  0
  199.0629  178.8705  154.7800 C   0  0  0  0  0  0  0  0  0  0  0  0
  198.9294  178.8696  153.3527 C   0  0  0  0  0  0  0  0  0  0  0  0
  198.2022  179.7657  152.5310 N   0  0  0  0  0  0  0  0  0  0  0  0
  197.0938  180.6463  152.9307 C   0  0  1  0  0  0  0  0  0  0  0  0
  197.1407  182.0142  152.2632 C   0  0  0  0  0  0  0  0  0  0  0  0
  197.6860  183.1337  153.0045 C   0  0  0  0  0  0  0  0  0  0  0  0
  197.6465  184.4425  152.4582 C   0  0  0  0  0  0  0  0  0  0  0  0
  197.1654  184.6113  151.1505 C   0  0  0  0  0  0  0  0  0  0  0  0
  196.6743  183.5355  150.4080 C   0  0  0  0  0  0  0  0  0  0  0  0
  196.6670  182.2248  150.9793 C   0  0  0  0  0  0  0  0  0  0  0  0
  198.1592  185.6207  153.3117 C   0  0  1  0  0  0  0  0  0  0  0  0
  197.4019  185.8680  154.5766 N   0  0  2  0  0  0  0  0  0  0  0  0
  198.0070  186.9337  155.4153 C   0  0  2  0  0  0  0  0  0  0  0  0
  197.2125  184.6727  155.3966 C   0  0  2  0  0  0  0  0  0  0  0  0
  199.6054  177.8430  152.6696 C   0  0  0  0  0  0  0  0  0  0  0  0
  200.3511  176.8835  153.2545 N   0  0  0  0  0  0  0  0  0  0  0  0
  200.5086  176.9105  154.5906 C   0  0  0  0  0  0  0  0  0  0  0  0
  199.8924  177.8969  155.4035 C   0  0  0  0  0  0  0  0  0  0  0  0
  200.1342  177.9114  156.7985 C   0  0  0  0  0  0  0  0  0  0  0  0
  200.9613  176.9406  157.3868 C   0  0  0  0  0  0  0  0  0  0  0  0
  201.5482  175.9457  156.5911 C   0  0  0  0  0  0  0  0  0  0  0  0
  201.3213  175.9323  155.2066 C   0  0  0  0  0  0  0  0  0  0  0  0
  198.0166  181.9637  156.6420 C   0  0  0  0  0  0  0  0  0  0  0  0
  196.6291  181.8123  156.8661 C   0  0  0  0  0  0  0  0  0  0  0  0
  195.9720  182.5948  157.8212 C   0  0  0  0  0  0  0  0  0  0  0  0
  196.6935  183.5647  158.5534 C   0  0  0  0  0  0  0  0  0  0  0  0
  196.0096  184.4250  159.5036 C   0  0  0  0  0  0  0  0  0  0  0  0
  195.4621  185.1256  160.3380 C   0  0  0  0  0  0  0  0  0  0  0  0
  198.0623  183.7597  158.2905 C   0  0  0  0  0  0  0  0  0  0  0  0
  198.7247  182.9430  157.3342 C   0  0  0  0  0  0  0  0  0  0  0  0
  197.8412  179.4888  156.3649 H   0  0  0  0  0  0  0  0  0  0  0  0
  198.3063  179.6296  151.5336 H   0  0  0  0  0  0  0  0  0  0  0  0
  196.1528  180.1519  152.6629 H   0  0  0  0  0  0  0  0  0  0  0  0
  197.0083  180.7769  154.0052 H   0  0  0  0  0  0  0  0  0  0  0  0
  198.0815  182.9548  153.9648 H   0  0  0  0  0  0  0  0  0  0  0  0
  197.1669  185.6271  150.7143 H   0  0  0  0  0  0  0  0  0  0  0  0
  196.3159  183.6850  149.3932 H   0  0  0  0  0  0  0  0  0  0  0  0
  196.2711  181.3755  150.4084 H   0  0  0  0  0  0  0  0  0  0  0  0
  199.2203  185.4619  153.5217 H   0  0  0  0  0  0  0  0  0  0  0  0
  198.1093  186.5494  152.7228 H   0  0  0  0  0  0  0  0  0  0  0  0
  199.0422  186.7064  155.6945 H   0  0  0  0  0  0  0  0  0  0  0  0
  197.4528  187.0490  156.3520 H   0  0  0  0  0  0  0  0  0  0  0  0
  197.9937  187.9049  154.9151 H   0  0  0  0  0  0  0  0  0  0  0  0
  198.2285  184.3051  155.5350 H   0  0  0  0  0  0  0  0  0  0  0  0
  196.5892  183.9265  154.9028 H   0  0  0  0  0  0  0  0  0  0  0  0
  196.7767  184.9317  156.3603 H   0  0  0  0  0  0  0  0  0  0  0  0
  199.5412  177.7592  151.5932 H   0  0  0  0  0  0  0  0  0  0  0  0
  199.6929  178.6542  157.4465 H   0  0  0  0  0  0  0  0  0  0  0  0
  201.1362  176.9659  158.4506 H   0  0  0  0  0  0  0  0  0  0  0  0
  202.1823  175.1972  157.0444 H   0  0  0  0  0  0  0  0  0  0  0  0
  201.7937  175.1794  154.5990 H   0  0  0  0  0  0  0  0  0  0  0  0
  196.0427  181.0996  156.3018 H   0  0  0  0  0  0  0  0  0  0  0  0
  194.9106  182.4650  157.9877 H   0  0  0  0  0  0  0  0  0  0  0  0
  194.9764  185.7329  161.0701 H   0  0  0  0  0  0  0  0  0  0  0  0
  198.6053  184.5611  158.7562 H   0  0  0  0  0  0  0  0  0  0  0  0
  199.7622  183.1345  157.0993 H   0  0  0  0  0  0  0  0  0  0  0  0
  196.4714  186.1807  154.3233 H   0  0  0  0  0  0  0  0  0  0  0  0
  1  2  2  0
  2  3  1  0
  2 26  1  0
  3  4  1  0
  3 34  1  0
  4  5  2  0
  4 21  1  0
  5  6  1  0
  5 18  1  0
  6  7  1  0
  6 35  1  0
  7  8  1  0
  7 36  1  6
  7 37  1  0
  8  9  2  0
  8 13  1  0
  9 10  1  0
  9 38  1  0
 10 11  2  0
 10 14  1  0
 11 12  1  0
 11 39  1  0
 12 13  2  0
 12 40  1  0
 13 41  1  0
 14 15  1  0
 14 42  1  1
 14 43  1  0
 15 16  1  0
 15 17  1  0
 15 60  1  6
 16 44  1  1
 16 45  1  0
 16 46  1  0
 17 47  1  1
 17 48  1  0
 17 49  1  0
 18 19  2  0
 18 50  1  0
 19 20  1  0
 20 21  1  0
 20 25  2  0
 21 22  2  0
 22 23  1  0
 22 51  1  0
 23 24  2  0
 23 52  1  0
 24 25  1  0
 24 53  1  0
 25 54  1  0
 26 27  1  0
 26 33  2  0
 27 28  2  0
 27 55  1  0
 28 29  1  0
 28 56  1  0
 29 30  1  0
 29 32  2  0
 30 31  3  0
 31 57  1  0
 32 33  1  0
 32 58  1  0
 33 59  1  0
M  CHG  1  15   1
M  END
>  <s_epik_cmdline>  (91) 
J2VwaWtfcHl0aG9uJywgJy1waCcsICc3LjAwMDAwMCcsICctcGh0JywgJzIuMDAwMDAwJywgJy1tcycsICcxNicsICctdG4nLCAnOCcsICctbWEnLCAnMjAwJywgJy1pbWFlJywgJzxpbmZpbGUubWFlPicsICctb21hZScsICc8b3V0ZmlsZS5tYWU+Jw==

>  <s_epik_input>  (91) 
W0NIXSNDYyhbY0hdW2NIXTEpW2NIXVtjSF1jMUMoPU8pW05IXWMoYyhjMjMpW2NIXVtjSF1bY0hdW2NIXTMpYyhbY0hdbjIpW05IXVtDSDJdYzRbY0hdYyhbY0hdW2NIXVtjSF00KVtDSDJdTihbQ0gzXSlbQ0gzXQ==

>  <s_i_glide_gridfile>  (91) 
ATP-Grid

>  <s_lp_Force_Field>  (91) 
OPLS_2005

>  <s_lp_Variant>  (91) 
rxn502b____EMOL93405211____EMOL13728749____EMOL2873214-1

>  <s_lp_label>  (91) 
2199_sdstereoexpander_1_neutralizer_1_epik_1_stereoizer_1

>  <s_m_source_file>  (91) 
ATP-VSW-LIGPREP-001-in.maegz

>  <s_sd_BIOSOLVEIT.INFINISEE\_QUERY\_NAME>  (91) 
Ref-Lig

>  <s_sd_BIOSOLVEIT.INFINISEE\_QUERY\_SMILES>  (91) 
S(c1nc2c(cc1C[NH2+]Cc3ccc(cc3)C[NH+](C)C)cccc2)Cc4ccccc4

>  <s_sd_BIOSOLVEIT.INFINISEE\_REACTION\_NAME>  (91) 
rxn502b

>  <s_sd_BIOSOLVEIT.INFINISEE\_REAGENT1\_NAME>  (91) 
EMOL93405211

>  <s_sd_BIOSOLVEIT.INFINISEE\_REAGENT1\_SMILES>  (91) 
ClC(=O)c1ccc(C#C)cc1

>  <s_sd_BIOSOLVEIT.INFINISEE\_REAGENT2\_NAME>  (91) 
EMOL13728749

>  <s_sd_BIOSOLVEIT.INFINISEE\_REAGENT2\_SMILES>  (91) 
Brc1c(N)c2c(nc1)cccc2

>  <s_sd_BIOSOLVEIT.INFINISEE\_REAGENT3\_NAME>  (91) 
EMOL2873214

>  <s_sd_BIOSOLVEIT.INFINISEE\_REAGENT3\_SMILES>  (91) 
N(Cc1cc(ccc1)CN)(C)C

>  <s_sd_BIOSOLVEIT.INFINISEE\_SPACE>  (91) 
eXplore_7tr_2022-12

>  <s_vsw_compound_code>  (91) 
70337

>  <s_vsw_variant>  (91) 
70337-1

>  <r_epik_Charging_Adjusted_Penalty>  (91) 
0.127426369452352

>  <r_epik_Ionization_Penalty>  (91) 
0.083299999999999999

>  <r_epik_Ionization_Penalty_Charging>  (91) 
0.0441

>  <r_epik_Ionization_Penalty_Neutral>  (91) 
0.039199999999999999

>  <r_epik_State_Penalty>  (91) 
0.083299999999999999

>  <r_i_docking_score>  (91) 
-3.9408884915086499

>  <r_i_glide_ecoul>  (91) 
-5.9403653144836399

>  <r_i_glide_eff_state_penalty>  (91) 
0.083299999999999999

>  <r_i_glide_einternal>  (91) 
4.45953416824341

>  <r_i_glide_emodel>  (91) 
-54.6717879670747

>  <r_i_glide_energy>  (91) 
-42.445118427276597

>  <r_i_glide_erotb>  (91) 
0.84030275005691701

>  <r_i_glide_esite>  (91) 
-0.090180666437785106

>  <r_i_glide_evdw>  (91) 
-36.504753112792997

>  <r_i_glide_gscore>  (91) 
-4.0241884915086503

>  <r_i_glide_hbond>  (91) 
0

>  <r_i_glide_ligand_efficiency>  (91) 
-0.11942086337905

>  <r_i_glide_ligand_efficiency_ln>  (91) 
-0.87643319568295797

>  <r_i_glide_ligand_efficiency_sa>  (91) 
-0.38304651855960298

>  <r_i_glide_lipo>  (91) 
-1.39351934958832

>  <r_i_glide_metal>  (91) 
-0

>  <r_i_glide_rewards>  (91) 
-0.66449877272727098

>  <r_lp_Energy>  (91) 
36.956204

>  <r_qp_ACxDN^.5/SA>  (91) 
0.014024500000000001

>  <r_qp_CIQPlogS>  (91) 
-5.6219999999999999

>  <r_qp_EA(eV)>  (91) 
0.85599999999999998

>  <r_qp_FISA>  (91) 
56.656999999999996

>  <r_qp_FOSA>  (91) 
240.999

>  <r_qp_IP(eV)>  (91) 
8.1880000000000006

>  <r_qp_Jm>  (91) 
0.054462042195822999

>  <r_qp_PISA>  (91) 
435.16000000000003

>  <r_qp_PSA>  (91) 
55.463000000000001

>  <r_qp_PercentHumanOralAbsorption>  (91) 
100

>  <r_qp_QPPCaco>  (91) 
717.00300000000004

>  <r_qp_QPPMDCK>  (91) 
382.00200000000001

>  <r_qp_QPlogBB>  (91) 
-0.084000000000000005

>  <r_qp_QPlogHERG>  (91) 
-7.2709999999999999

>  <r_qp_QPlogKhsa>  (91) 
0.69499999999999995

>  <r_qp_QPlogKp>  (91) 
-2.3250000000000002

>  <r_qp_QPlogPC16>  (91) 
15.069000000000001

>  <r_qp_QPlogPo/w>  (91) 
4.6029999999999998

>  <r_qp_QPlogPoct>  (91) 
23.391999999999999

>  <r_qp_QPlogPw>  (91) 
13.127000000000001

>  <r_qp_QPlogS>  (91) 
-4.577

>  <r_qp_QPpolrz>  (91) 
48.137

>  <r_qp_SASA>  (91) 
732.81700000000001

>  <r_qp_SAamideO>  (91) 
0

>  <r_qp_SAfluorine>  (91) 
0

>  <r_qp_WPSA>  (91) 
0

>  <r_qp_accptHB>  (91) 
6.5

>  <r_qp_dip^2/V>  (91) 
0.0252211

>  <r_qp_dipole>  (91) 
5.9020000000000001

>  <r_qp_donorHB>  (91) 
2.5

>  <r_qp_glob>  (91) 
0.81844260000000002

>  <r_qp_mol_MW>  (91) 
434.54000000000002

>  <r_qp_volume>  (91) 
1381.1079999999999

>  <r_sd_BIOSOLVEIT.INFINISEE\_FTREES\_SIMILARITY>  (91) 
0.93300000000000005

>  <r_sd_BIOSOLVEIT.LOGP>  (91) 
3.7250000000000001

>  <r_sd_BIOSOLVEIT.MOLECULAR\_WEIGHT>  (91) 
435.548

>  <r_sd_BIOSOLVEIT.TPSA>  (91) 
58.460000000000001

>  <i_epik_Tot_Q>  (91) 
1

>  <i_epik_Tot_abs_Q>  (91) 
1

>  <i_f3d_flags>  (91) 
0

>  <i_i_glide_confnum>  (91) 
11

>  <i_i_glide_lignum>  (91) 
718

>  <i_i_glide_posenum>  (91) 
9

>  <i_i_glide_rotatable_bonds>  (91) 
9

>  <i_lp_mmshare_version>  (91) 
65135

>  <i_m_ct_format>  (91) 
2

>  <i_m_source_file_index>  (91) 
2199

>  <i_qp_#NandO>  (91) 
5

>  <i_qp_#acid>  (91) 
0

>  <i_qp_#amide>  (91) 
0

>  <i_qp_#amidine>  (91) 
0

>  <i_qp_#amine>  (91) 
1

>  <i_qp_#in34>  (91) 
0

>  <i_qp_#in56>  (91) 
22

>  <i_qp_#metab>  (91) 
6

>  <i_qp_#nonHatm>  (91) 
33

>  <i_qp_#noncon>  (91) 
0

>  <i_qp_#ringatoms>  (91) 
22

>  <i_qp_#rotor>  (91) 
8

>  <i_qp_#rtvFG>  (91) 
0

>  <i_qp_#stars>  (91) 
0

>  <i_qp_CNS>  (91) 
0

>  <i_qp_HumanOralAbsorption>  (91) 
3

>  <i_qp_RuleOfFive>  (91) 
0

>  <i_qp_RuleOfThree>  (91) 
0

>  <i_sd_BIOSOLVEIT.INFINISEE\_RESULT\_RANK>  (91) 
3502

>  <i_sd_version>  (91) 
0

>  <b_lp_Chiralities_Consistent>  (91) 
1

>  <b_sd_chiral_flag>  (91) 
0

>  <canonical_id>  (91) 
ATP-HTVS-0F469DA925F8

>  <compound_code>  (91) 
70337

>  <title>  (91) 
rxn502b____EMOL93405211____EMOL13728749____EMOL2873214

>  <variant>  (91) 
70337-1

>  <source_file>  (91) 
运行/运行/ATP-VSW/ATP-VSW-DOCK_HTVS_1-001_lib/ATP-VSW-DOCK_HTVS_1-001_lib

>  <canonical_smiles>  (91) 
C#Cc1ccc(C(=O)Nc2c(NCc3cccc(C[NH+](C)C)c3)cnc3ccccc23)cc1

>  <scaffold>  (91) 
O=C(Nc1c(NCc2ccccc2)cnc2ccccc12)c1ccccc1

>  <molecular_formula>  (91) 
C28H27N4O+

$$$$
ATP-HTVS-0F46F3379ABF
     RDKit          3D

 62 65  0  0  0  0  0  0  0  0999 V2000
  201.0903  176.5301  153.0974 O   0  0  0  0  0  0  0  0  0  0  0  0
  200.6104  177.3834  153.8421 C   0  0  0  0  0  0  0  0  0  0  0  0
  199.6455  178.2554  153.4900 N   0  0  0  0  0  0  0  0  0  0  0  0
  198.9606  178.4156  152.2544 C   0  0  0  0  0  0  0  0  0  0  0  0
  199.2389  177.6571  151.1700 N   0  0  0  0  0  0  0  0  0  0  0  0
  198.5794  177.8454  150.0120 C   0  0  0  0  0  0  0  0  0  0  0  0
  197.5501  178.8130  149.8916 C   0  0  0  0  0  0  0  0  0  0  0  0
  197.2200  179.5882  151.0174 C   0  0  0  0  0  0  0  0  0  0  0  0
  197.9384  179.4011  152.2182 C   0  0  0  0  0  0  0  0  0  0  0  0
  197.6390  180.1906  153.3435 N   0  0  0  0  0  0  0  0  0  0  0  0
  197.4354  181.6087  153.0987 C   0  0  1  0  0  0  0  0  0  0  0  0
  197.3455  182.4429  154.3591 C   0  0  0  0  0  0  0  0  0  0  0  0
  196.8143  181.9160  155.5585 C   0  0  0  0  0  0  0  0  0  0  0  0
  196.7262  182.7269  156.7089 C   0  0  0  0  0  0  0  0  0  0  0  0
  197.1681  184.0642  156.6559 C   0  0  0  0  0  0  0  0  0  0  0  0
  197.6758  184.5950  155.4553 C   0  0  0  0  0  0  0  0  0  0  0  0
  197.7704  183.7851  154.3117 C   0  0  0  0  0  0  0  0  0  0  0  0
  196.1588  182.1512  157.9890 C   0  0  1  0  0  0  0  0  0  0  0  0
  194.7191  182.4860  158.1317 N   0  0  2  0  0  0  0  0  0  0  0  0
  194.4847  183.7631  158.8495 C   0  0  2  0  0  0  0  0  0  0  0  0
  193.9303  181.3797  158.7141 C   0  0  2  0  0  0  0  0  0  0  0  0
  196.8750  179.0102  148.6728 C   0  0  0  0  0  0  0  0  0  0  0  0
  197.2309  178.2424  147.5449 C   0  0  0  0  0  0  0  0  0  0  0  0
  198.2543  177.2792  147.6500 C   0  0  0  0  0  0  0  0  0  0  0  0
  198.9122  177.0791  148.8781 C   0  0  0  0  0  0  0  0  0  0  0  0
  201.1171  177.4672  155.2916 C   0  0  1  0  0  0  0  0  0  0  0  0
  201.0562  178.8741  155.8809 C   0  0  0  0  0  0  0  0  0  0  0  0
  202.2309  179.6539  155.9749 C   0  0  0  0  0  0  0  0  0  0  0  0
  202.1883  180.9458  156.5383 C   0  0  0  0  0  0  0  0  0  0  0  0
  203.4036  181.7355  156.6508 C   0  0  0  0  0  0  0  0  0  0  0  0
  204.3719  182.3632  156.7410 N   0  0  0  0  0  0  0  0  0  0  0  0
  200.9641  181.4657  157.0047 C   0  0  0  0  0  0  0  0  0  0  0  0
  199.7946  180.6913  156.9166 C   0  0  0  0  0  0  0  0  0  0  0  0
  199.8393  179.3945  156.3725 C   0  0  0  0  0  0  0  0  0  0  0  0
  199.3564  178.8772  154.2251 H   0  0  0  0  0  0  0  0  0  0  0  0
  196.4122  180.3002  150.9364 H   0  0  0  0  0  0  0  0  0  0  0  0
  198.0910  179.9918  154.2234 H   0  0  0  0  0  0  0  0  0  0  0  0
  198.2644  181.9725  152.4910 H   0  0  0  0  0  0  0  0  0  0  0  0
  196.5106  181.7811  152.5486 H   0  0  0  0  0  0  0  0  0  0  0  0
  196.4648  180.8914  155.6039 H   0  0  0  0  0  0  0  0  0  0  0  0
  197.1164  184.6987  157.5261 H   0  0  0  0  0  0  0  0  0  0  0  0
  197.9985  185.6248  155.4113 H   0  0  0  0  0  0  0  0  0  0  0  0
  198.1626  184.1977  153.3925 H   0  0  0  0  0  0  0  0  0  0  0  0
  196.3174  181.0721  157.9592 H   0  0  0  0  0  0  0  0  0  0  0  0
  196.7242  182.4923  158.8585 H   0  0  0  0  0  0  0  0  0  0  0  0
  194.8559  183.6991  159.8738 H   0  0  0  0  0  0  0  0  0  0  0  0
  193.4227  184.0187  158.8908 H   0  0  0  0  0  0  0  0  0  0  0  0
  194.9909  184.5948  158.3604 H   0  0  0  0  0  0  0  0  0  0  0  0
  194.3208  181.1089  159.7001 H   0  0  0  0  0  0  0  0  0  0  0  0
  193.9512  180.5019  158.0671 H   0  0  0  0  0  0  0  0  0  0  0  0
  192.8786  181.6560  158.8069 H   0  0  0  0  0  0  0  0  0  0  0  0
  196.0967  179.7578  148.5845 H   0  0  0  0  0  0  0  0  0  0  0  0
  196.7288  178.3897  146.5977 H   0  0  0  0  0  0  0  0  0  0  0  0
  198.5299  176.6880  146.7892 H   0  0  0  0  0  0  0  0  0  0  0  0
  199.6976  176.3412  148.9630 H   0  0  0  0  0  0  0  0  0  0  0  0
  200.5265  176.7900  155.9108 H   0  0  0  0  0  0  0  0  0  0  0  0
  202.1476  177.1095  155.3297 H   0  0  0  0  0  0  0  0  0  0  0  0
  203.1738  179.2492  155.6282 H   0  0  0  0  0  0  0  0  0  0  0  0
  200.9179  182.4519  157.4422 H   0  0  0  0  0  0  0  0  0  0  0  0
  198.8597  181.0799  157.2870 H   0  0  0  0  0  0  0  0  0  0  0  0
  198.9334  178.8028  156.3446 H   0  0  0  0  0  0  0  0  0  0  0  0
  194.3530  182.6050  157.1897 H   0  0  0  0  0  0  0  0  0  0  0  0
  1  2  2  0
  2  3  1  0
  2 26  1  0
  3  4  1  0
  3 35  1  0
  4  5  2  0
  4  9  1  0
  5  6  1  0
  6  7  1  0
  6 25  2  0
  7  8  1  0
  7 22  2  0
  8  9  2  0
  8 36  1  0
  9 10  1  0
 10 11  1  0
 10 37  1  0
 11 12  1  0
 11 38  1  6
 11 39  1  0
 12 13  2  0
 12 17  1  0
 13 14  1  0
 13 40  1  0
 14 15  2  0
 14 18  1  0
 15 16  1  0
 15 41  1  0
 16 17  2  0
 16 42  1  0
 17 43  1  0
 18 19  1  0
 18 44  1  6
 18 45  1  0
 19 20  1  0
 19 21  1  0
 19 62  1  6
 20 46  1  1
 20 47  1  0
 20 48  1  0
 21 49  1  1
 21 50  1  0
 21 51  1  0
 22 23  1  0
 22 52  1  0
 23 24  2  0
 23 53  1  0
 24 25  1  0
 24 54  1  0
 25 55  1  0
 26 27  1  0
 26 56  1  1
 26 57  1  0
 27 28  1  0
 27 34  2  0
 28 29  2  0
 28 58  1  0
 29 30  1  0
 29 32  1  0
 30 31  3  0
 32 33  2  0
 32 59  1  0
 33 34  1  0
 33 60  1  0
 34 61  1  0
M  CHG  1  19   1
M  END
>  <s_epik_cmdline>  (92) 
J2VwaWtfcHl0aG9uJywgJy1waCcsICc3LjAwMDAwMCcsICctcGh0JywgJzIuMDAwMDAwJywgJy1tcycsICcxNicsICctdG4nLCAnOCcsICctbWEnLCAnMjAwJywgJy1pbWFlJywgJzxpbmZpbGUubWFlPicsICctb21hZScsICc8b3V0ZmlsZS5tYWU+Jw==

>  <s_epik_input>  (92) 
W2NIXTFbY0hdW2NIXWMoQyNOKVtjSF1jMVtDSDJdQyg9TylbTkhdYyhuMiljKFtjSF1jKGMyMylbY0hdW2NIXVtjSF1bY0hdMylbTkhdW0NIMl1jNFtjSF1jKFtjSF1bY0hdW2NIXTQpW0NIMl1OKFtDSDNdKVtDSDNd

>  <s_i_glide_gridfile>  (92) 
ATP-Grid

>  <s_lp_Force_Field>  (92) 
OPLS_2005

>  <s_lp_Variant>  (92) 
rxn502b____EMOL526127____EMOL44466703____EMOL2873214-1

>  <s_lp_label>  (92) 
2227_sdstereoexpander_1_neutralizer_1_epik_1_stereoizer_1

>  <s_m_source_file>  (92) 
ATP-VSW-LIGPREP-003-in.maegz

>  <s_sd_BIOSOLVEIT.INFINISEE\_QUERY\_NAME>  (92) 
Ref-Lig

>  <s_sd_BIOSOLVEIT.INFINISEE\_QUERY\_SMILES>  (92) 
S(c1nc2c(cc1C[NH2+]Cc3ccc(cc3)C[NH+](C)C)cccc2)Cc4ccccc4

>  <s_sd_BIOSOLVEIT.INFINISEE\_REACTION\_NAME>  (92) 
rxn502b

>  <s_sd_BIOSOLVEIT.INFINISEE\_REAGENT1\_NAME>  (92) 
EMOL526127

>  <s_sd_BIOSOLVEIT.INFINISEE\_REAGENT1\_SMILES>  (92) 
O=C(O)Cc1cc(C#N)ccc1

>  <s_sd_BIOSOLVEIT.INFINISEE\_REAGENT2\_NAME>  (92) 
EMOL44466703

>  <s_sd_BIOSOLVEIT.INFINISEE\_REAGENT2\_SMILES>  (92) 
Brc1c(nc2c(c1)cccc2)N

>  <s_sd_BIOSOLVEIT.INFINISEE\_REAGENT3\_NAME>  (92) 
EMOL2873214

>  <s_sd_BIOSOLVEIT.INFINISEE\_REAGENT3\_SMILES>  (92) 
N(Cc1cc(ccc1)CN)(C)C

>  <s_sd_BIOSOLVEIT.INFINISEE\_SPACE>  (92) 
eXplore_7tr_2022-12

>  <s_vsw_compound_code>  (92) 
71235

>  <s_vsw_variant>  (92) 
71235-1

>  <r_epik_Charging_Adjusted_Penalty>  (92) 
0.094209532796881795

>  <r_epik_Ionization_Penalty>  (92) 
0.050599999999999999

>  <r_epik_Ionization_Penalty_Charging>  (92) 
0.0441

>  <r_epik_Ionization_Penalty_Neutral>  (92) 
0.0064999999999999997

>  <r_epik_State_Penalty>  (92) 
0.050099999999999999

>  <r_i_docking_score>  (92) 
-3.9060742956346202

>  <r_i_glide_ecoul>  (92) 
-9.4535503387451207

>  <r_i_glide_eff_state_penalty>  (92) 
0.050099999999999999

>  <r_i_glide_einternal>  (92) 
2.6461873054504399

>  <r_i_glide_emodel>  (92) 
-55.712542429727002

>  <r_i_glide_energy>  (92) 
-42.198186874389599

>  <r_i_glide_erotb>  (92) 
0.79014693918398604

>  <r_i_glide_esite>  (92) 
-0.101440071187476

>  <r_i_glide_evdw>  (92) 
-32.744636535644503

>  <r_i_glide_gscore>  (92) 
-3.9561742956346202

>  <r_i_glide_hbond>  (92) 
-0.20000000000000001

>  <r_i_glide_ligand_efficiency>  (92) 
-0.1148845381069

>  <r_i_glide_ligand_efficiency_ln>  (92) 
-0.86296137357857805

>  <r_i_glide_ligand_efficiency_sa>  (92) 
-0.37218130499794599

>  <r_i_glide_lipo>  (92) 
-1.0298558473205199

>  <r_i_glide_metal>  (92) 
-0

>  <r_i_glide_rewards>  (92) 
-0.35976093871661102

>  <r_lp_Energy>  (92) 
22.243006000000001

>  <r_qp_ACxDN^.5/SA>  (92) 
0.016260299999999998

>  <r_qp_CIQPlogS>  (92) 
-6.3849999999999998

>  <r_qp_EA(eV)>  (92) 
0.97499999999999998

>  <r_qp_FISA>  (92) 
119.035

>  <r_qp_FOSA>  (92) 
196.93299999999999

>  <r_qp_IP(eV)>  (92) 
8.7799999999999994

>  <r_qp_Jm>  (92) 
0.0053445437437384998

>  <r_qp_PISA>  (92) 
379.81799999999998

>  <r_qp_PSA>  (92) 
85.754999999999995

>  <r_qp_PercentHumanOralAbsorption>  (92) 
88.966999999999999

>  <r_qp_QPPCaco>  (92) 
183.65000000000001

>  <r_qp_QPPMDCK>  (92) 
87.638000000000005

>  <r_qp_QPlogBB>  (92) 
-0.64100000000000001

>  <r_qp_QPlogHERG>  (92) 
-6.2539999999999996

>  <r_qp_QPlogKhsa>  (92) 
0.46200000000000002

>  <r_qp_QPlogKp>  (92) 
-3.5739999999999998

>  <r_qp_QPlogPC16>  (92) 
14.999000000000001

>  <r_qp_QPlogPo/w>  (92) 
3.6720000000000002

>  <r_qp_QPlogPoct>  (92) 
23.795000000000002

>  <r_qp_QPlogPw>  (92) 
13.611000000000001

>  <r_qp_QPlogS>  (92) 
-4.351

>  <r_qp_QPpolrz>  (92) 
47.255000000000003

>  <r_qp_SASA>  (92) 
695.78599999999994

>  <r_qp_SAamideO>  (92) 
0

>  <r_qp_SAfluorine>  (92) 
0

>  <r_qp_WPSA>  (92) 
0

>  <r_qp_accptHB>  (92) 
8

>  <r_qp_dip^2/V>  (92) 
0.042934800000000002

>  <r_qp_dipole>  (92) 
7.7210000000000001

>  <r_qp_donorHB>  (92) 
2

>  <r_qp_glob>  (92) 
0.86500270000000001

>  <r_qp_mol_MW>  (92) 
449.55399999999997

>  <r_qp_volume>  (92) 
1388.329

>  <r_sd_BIOSOLVEIT.INFINISEE\_FTREES\_SIMILARITY>  (92) 
0.92800000000000005

>  <r_sd_BIOSOLVEIT.LOGP>  (92) 
3.5442800000000001

>  <r_sd_BIOSOLVEIT.MOLECULAR\_WEIGHT>  (92) 
450.56299999999999

>  <r_sd_BIOSOLVEIT.TPSA>  (92) 
82.25

>  <i_epik_Tot_Q>  (92) 
1

>  <i_epik_Tot_abs_Q>  (92) 
1

>  <i_f3d_flags>  (92) 
0

>  <i_i_glide_confnum>  (92) 
7

>  <i_i_glide_lignum>  (92) 
896

>  <i_i_glide_posenum>  (92) 
5

>  <i_i_glide_rotatable_bonds>  (92) 
9

>  <i_lp_mmshare_version>  (92) 
65135

>  <i_m_ct_format>  (92) 
2

>  <i_m_source_file_index>  (92) 
2227

>  <i_qp_#NandO>  (92) 
6

>  <i_qp_#acid>  (92) 
0

>  <i_qp_#amide>  (92) 
0

>  <i_qp_#amidine>  (92) 
0

>  <i_qp_#amine>  (92) 
1

>  <i_qp_#in34>  (92) 
0

>  <i_qp_#in56>  (92) 
22

>  <i_qp_#metab>  (92) 
6

>  <i_qp_#nonHatm>  (92) 
34

>  <i_qp_#noncon>  (92) 
0

>  <i_qp_#ringatoms>  (92) 
22

>  <i_qp_#rotor>  (92) 
9

>  <i_qp_#rtvFG>  (92) 
0

>  <i_qp_#stars>  (92) 
0

>  <i_qp_CNS>  (92) 
1

>  <i_qp_HumanOralAbsorption>  (92) 
3

>  <i_qp_RuleOfFive>  (92) 
0

>  <i_qp_RuleOfThree>  (92) 
0

>  <i_sd_BIOSOLVEIT.INFINISEE\_RESULT\_RANK>  (92) 
5741

>  <i_sd_version>  (92) 
0

>  <b_lp_Chiralities_Consistent>  (92) 
1

>  <b_sd_chiral_flag>  (92) 
0

>  <canonical_id>  (92) 
ATP-HTVS-0F46F3379ABF

>  <compound_code>  (92) 
71235

>  <title>  (92) 
rxn502b____EMOL526127____EMOL44466703____EMOL2873214

>  <variant>  (92) 
71235-1

>  <source_file>  (92) 
运行/运行/ATP-VSW/ATP-VSW-DOCK_HTVS_1-003_lib/ATP-VSW-DOCK_HTVS_1-003_lib.mae

>  <canonical_smiles>  (92) 
C[NH+](C)Cc1cccc(CNc2cc3ccccc3nc2NC(=O)Cc2cccc(C#N)c2)c1

>  <scaffold>  (92) 
O=C(Cc1ccccc1)Nc1nc2ccccc2cc1NCc1ccccc1

>  <molecular_formula>  (92) 
C28H28N5O+

$$$$
ATP-HTVS-0F4AF3905209
     RDKit          3D

 52 55  0  0  0  0  0  0  0  0999 V2000
  196.7478  181.7210  150.6270 Br  0  0  0  0  0  0  0  0  0  0  0  0
  197.1983  181.1822  152.3952 C   0  0  0  0  0  0  0  0  0  0  0  0
  197.1035  182.0939  153.4647 C   0  0  0  0  0  0  0  0  0  0  0  0
  197.4384  181.6792  154.7729 C   0  0  0  0  0  0  0  0  0  0  0  0
  197.8344  180.3440  155.0107 C   0  0  0  0  0  0  0  0  0  0  0  0
  197.9322  179.4384  153.9381 C   0  0  0  0  0  0  0  0  0  0  0  0
  197.6237  179.8591  152.6319 C   0  0  0  0  0  0  0  0  0  0  0  0
  197.3673  182.6363  155.9196 C   0  0  0  0  0  0  0  0  0  0  0  0
  196.3721  182.4660  156.7371 N   0  0  0  0  0  0  0  0  0  0  0  0
  196.2020  183.3197  157.8311 C   0  0  0  0  0  0  0  0  0  0  0  0
  197.1351  184.3338  158.1350 C   0  0  0  0  0  0  0  0  0  0  0  0
  196.9195  185.1695  159.2605 C   0  0  0  0  0  0  0  0  0  0  0  0
  197.7970  186.1418  159.6010 F   0  0  0  0  0  0  0  0  0  0  0  0
  195.7687  184.9941  160.0515 C   0  0  0  0  0  0  0  0  0  0  0  0
  194.8256  184.0010  159.7264 C   0  0  0  0  0  0  0  0  0  0  0  0
  195.0480  183.1593  158.6212 C   0  0  0  0  0  0  0  0  0  0  0  0
  198.3245  184.4772  157.2285 C   0  0  0  0  0  0  0  0  0  0  0  0
  199.2005  185.3071  157.4674 O   0  0  0  0  0  0  0  0  0  0  0  0
  198.3555  183.6441  156.1488 N   0  0  0  0  0  0  0  0  0  0  0  0
  199.4845  183.7473  155.1911 C   0  0  1  0  0  0  0  0  0  0  0  0
  200.5378  182.6400  155.2693 C   0  0  0  0  0  0  0  0  0  0  0  0
  200.5431  181.6681  156.2984 C   0  0  0  0  0  0  0  0  0  0  0  0
  201.4716  180.6077  156.2826 C   0  0  0  0  0  0  0  0  0  0  0  0
  202.4506  180.5524  155.2657 C   0  0  0  0  0  0  0  0  0  0  0  0
  202.4743  181.5329  154.2554 C   0  0  0  0  0  0  0  0  0  0  0  0
  201.5168  182.5649  154.2547 C   0  0  0  0  0  0  0  0  0  0  0  0
  201.3818  179.5059  157.3298 C   0  0  1  0  0  0  0  0  0  0  0  0
  200.3588  178.4661  157.0190 N   0  0  2  0  0  0  0  0  0  0  0  0
  200.3474  177.3885  158.0230 C   0  0  2  0  0  0  0  0  0  0  0  0
  200.4716  177.9048  155.6522 C   0  0  2  0  0  0  0  0  0  0  0  0
  196.7667  183.1082  153.2798 H   0  0  0  0  0  0  0  0  0  0  0  0
  198.0660  180.0262  156.0177 H   0  0  0  0  0  0  0  0  0  0  0  0
  198.2494  178.4224  154.1117 H   0  0  0  0  0  0  0  0  0  0  0  0
  197.7211  179.1555  151.8176 H   0  0  0  0  0  0  0  0  0  0  0  0
  195.6120  185.6263  160.9110 H   0  0  0  0  0  0  0  0  0  0  0  0
  193.9356  183.8752  160.3195 H   0  0  0  0  0  0  0  0  0  0  0  0
  194.3247  182.4022  158.3544 H   0  0  0  0  0  0  0  0  0  0  0  0
  199.0953  183.7942  154.1731 H   0  0  0  0  0  0  0  0  0  0  0  0
  200.0336  184.6837  155.2936 H   0  0  0  0  0  0  0  0  0  0  0  0
  199.8101  181.7002  157.0910 H   0  0  0  0  0  0  0  0  0  0  0  0
  203.1664  179.7433  155.2427 H   0  0  0  0  0  0  0  0  0  0  0  0
  203.2018  181.4678  153.4559 H   0  0  0  0  0  0  0  0  0  0  0  0
  201.5190  183.2902  153.4493 H   0  0  0  0  0  0  0  0  0  0  0  0
  202.3556  179.0326  157.4228 H   0  0  0  0  0  0  0  0  0  0  0  0
  201.1687  179.9674  158.2932 H   0  0  0  0  0  0  0  0  0  0  0  0
  201.2951  176.8529  158.0093 H   0  0  0  0  0  0  0  0  0  0  0  0
  199.5464  176.6826  157.7996 H   0  0  0  0  0  0  0  0  0  0  0  0
  200.1835  177.7776  159.0275 H   0  0  0  0  0  0  0  0  0  0  0  0
  201.4259  177.3950  155.5086 H   0  0  0  0  0  0  0  0  0  0  0  0
  200.3873  178.6769  154.8861 H   0  0  0  0  0  0  0  0  0  0  0  0
  199.6726  177.1819  155.4758 H   0  0  0  0  0  0  0  0  0  0  0  0
  199.4437  178.8903  157.0898 H   0  0  0  0  0  0  0  0  0  0  0  0
  1  2  1  0
  2  3  2  0
  2  7  1  0
  3  4  1  0
  3 31  1  0
  4  5  2  0
  4  8  1  0
  5  6  1  0
  5 32  1  0
  6  7  2  0
  6 33  1  0
  7 34  1  0
  8  9  2  0
  8 19  1  0
  9 10  1  0
 10 11  1  0
 10 16  2  0
 11 12  2  0
 11 17  1  0
 12 13  1  0
 12 14  1  0
 14 15  2  0
 14 35  1  0
 15 16  1  0
 15 36  1  0
 16 37  1  0
 17 18  2  0
 17 19  1  0
 19 20  1  0
 20 21  1  0
 20 38  1  6
 20 39  1  0
 21 22  2  0
 21 26  1  0
 22 23  1  0
 22 40  1  0
 23 24  2  0
 23 27  1  0
 24 25  1  0
 24 41  1  0
 25 26  2  0
 25 42  1  0
 26 43  1  0
 27 28  1  0
 27 44  1  1
 27 45  1  0
 28 29  1  0
 28 30  1  0
 28 52  1  6
 29 46  1  1
 29 47  1  0
 29 48  1  0
 30 49  1  1
 30 50  1  0
 30 51  1  0
M  CHG  1  28   1
M  END
>  <s_epik_cmdline>  (93) 
J2VwaWtfcHl0aG9uJywgJy1waCcsICc3LjAwMDAwMCcsICctcGh0JywgJzIuMDAwMDAwJywgJy1tcycsICcxNicsICctdG4nLCAnOCcsICctbWEnLCAnMjAwJywgJy1pbWFlJywgJzxpbmZpbGUubWFlPicsICctb21hZScsICc8b3V0ZmlsZS5tYWU+Jw==

>  <s_epik_input>  (93) 
W2NIXTFbY0hdW2NIXWMoRiljKGMxMiljKD1PKW4oYyhuMiktYyhbY0hdYzNCcilbY0hdW2NIXVtjSF0zKVtDSDJdYzRbY0hdYyhbY0hdW2NIXVtjSF00KVtDSDJdTihbQ0gzXSlbQ0gzXQ==

>  <s_i_glide_gridfile>  (93) 
ATP-Grid

>  <s_lp_Force_Field>  (93) 
OPLS_2005

>  <s_lp_Variant>  (93) 
rxn318____EMOL2873214____EMOL484550____EMOL476827-1

>  <s_lp_label>  (93) 
3032_sdstereoexpander_1_neutralizer_1_epik_1_stereoizer_1

>  <s_m_source_file>  (93) 
ATP-VSW-LIGPREP-001-in.maegz

>  <s_sd_BIOSOLVEIT.INFINISEE\_QUERY\_NAME>  (93) 
Ref-Lig

>  <s_sd_BIOSOLVEIT.INFINISEE\_QUERY\_SMILES>  (93) 
S(c1nc2c(cc1C[NH2+]Cc3ccc(cc3)C[NH+](C)C)cccc2)Cc4ccccc4

>  <s_sd_BIOSOLVEIT.INFINISEE\_REACTION\_NAME>  (93) 
rxn318

>  <s_sd_BIOSOLVEIT.INFINISEE\_REAGENT1\_NAME>  (93) 
EMOL2873214

>  <s_sd_BIOSOLVEIT.INFINISEE\_REAGENT1\_SMILES>  (93) 
N(Cc1cc(ccc1)CN)(C)C

>  <s_sd_BIOSOLVEIT.INFINISEE\_REAGENT2\_NAME>  (93) 
EMOL484550

>  <s_sd_BIOSOLVEIT.INFINISEE\_REAGENT2\_SMILES>  (93) 
Brc1cc(ccc1)C(=O)O

>  <s_sd_BIOSOLVEIT.INFINISEE\_REAGENT3\_NAME>  (93) 
EMOL476827

>  <s_sd_BIOSOLVEIT.INFINISEE\_REAGENT3\_SMILES>  (93) 
Fc1c(c(N)ccc1)C(=O)O

>  <s_sd_BIOSOLVEIT.INFINISEE\_SPACE>  (93) 
eXplore_7tr_2022-12

>  <s_vsw_compound_code>  (93) 
96993

>  <s_vsw_variant>  (93) 
96993-1

>  <r_epik_Charging_Adjusted_Penalty>  (93) 
0.0890012826149158

>  <r_epik_Ionization_Penalty>  (93) 
0.044499999999999998

>  <r_epik_Ionization_Penalty_Charging>  (93) 
0.044499999999999998

>  <r_epik_Ionization_Penalty_Neutral>  (93) 
0

>  <r_epik_State_Penalty>  (93) 
0.044499999999999998

>  <r_i_docking_score>  (93) 
-3.52113327150541

>  <r_i_glide_ecoul>  (93) 
-5.5318336486816397

>  <r_i_glide_eff_state_penalty>  (93) 
0.044499999999999998

>  <r_i_glide_einternal>  (93) 
1.6367478370666499

>  <r_i_glide_emodel>  (93) 
-48.0480775284475

>  <r_i_glide_energy>  (93) 
-37.4512233734131

>  <r_i_glide_erotb>  (93) 
0.369595807484636

>  <r_i_glide_esite>  (93) 
-0.077034847964937203

>  <r_i_glide_evdw>  (93) 
-31.919389724731399

>  <r_i_glide_gscore>  (93) 
-3.5656332715054102

>  <r_i_glide_hbond>  (93) 
0

>  <r_i_glide_ligand_efficiency>  (93) 
-0.11737110905018

>  <r_i_glide_ligand_efficiency_ln>  (93) 
-0.800039845105883

>  <r_i_glide_ligand_efficiency_sa>  (93) 
-0.36469932488710399

>  <r_i_glide_lipo>  (93) 
-0.82944827318048098

>  <r_i_glide_metal>  (93) 
-0

>  <r_i_glide_rewards>  (93) 
-0.60300142430581005

>  <r_lp_Energy>  (93) 
33.805329

>  <r_lp_tautomer_probability>  (93) 
1

>  <r_qp_ACxDN^.5/SA>  (93) 
0

>  <r_qp_CIQPlogS>  (93) 
-6.4640000000000004

>  <r_qp_EA(eV)>  (93) 
0.88

>  <r_qp_FISA>  (93) 
43.058999999999997

>  <r_qp_FOSA>  (93) 
177.13200000000001

>  <r_qp_IP(eV)>  (93) 
9.1289999999999996

>  <r_qp_Jm>  (93) 
0.099649142812080399

>  <r_qp_PISA>  (93) 
361.25700000000001

>  <r_qp_PSA>  (93) 
42.869

>  <r_qp_PercentHumanOralAbsorption>  (93) 
100

>  <r_qp_QPPCaco>  (93) 
964.88099999999997

>  <r_qp_QPPMDCK>  (93) 
1542.952

>  <r_qp_QPlogBB>  (93) 
0.46999999999999997

>  <r_qp_QPlogHERG>  (93) 
-6.4450000000000003

>  <r_qp_QPlogKhsa>  (93) 
0.46800000000000003

>  <r_qp_QPlogKp>  (93) 
-2.6230000000000002

>  <r_qp_QPlogPC16>  (93) 
12.901

>  <r_qp_QPlogPo/w>  (93) 
4.5380000000000003

>  <r_qp_QPlogPoct>  (93) 
18.547999999999998

>  <r_qp_QPlogPw>  (93) 
8.9109999999999996

>  <r_qp_QPlogS>  (93) 
-4.0469999999999997

>  <r_qp_QPpolrz>  (93) 
44.640999999999998

>  <r_qp_SASA>  (93) 
666.67999999999995

>  <r_qp_SAamideO>  (93) 
0

>  <r_qp_SAfluorine>  (93) 
36.262

>  <r_qp_WPSA>  (93) 
85.233000000000004

>  <r_qp_accptHB>  (93) 
6

>  <r_qp_dip^2/V>  (93) 
0.0160614

>  <r_qp_dipole>  (93) 
4.5039999999999996

>  <r_qp_donorHB>  (93) 
0

>  <r_qp_glob>  (93) 
0.84770239999999997

>  <r_qp_mol_MW>  (93) 
466.35199999999998

>  <r_qp_volume>  (93) 
1263.2629999999999

>  <r_sd_BIOSOLVEIT.INFINISEE\_FTREES\_SIMILARITY>  (93) 
0.90200000000000002

>  <r_sd_BIOSOLVEIT.LOGP>  (93) 
3.6579000000000002

>  <r_sd_BIOSOLVEIT.MOLECULAR\_WEIGHT>  (93) 
467.36000000000001

>  <r_sd_BIOSOLVEIT.TPSA>  (93) 
39.329999999999998

>  <i_epik_Tot_Q>  (93) 
1

>  <i_epik_Tot_abs_Q>  (93) 
1

>  <i_f3d_flags>  (93) 
0

>  <i_i_glide_confnum>  (93) 
5

>  <i_i_glide_lignum>  (93) 
11

>  <i_i_glide_posenum>  (93) 
7

>  <i_i_glide_rotatable_bonds>  (93) 
5

>  <i_lp_mmshare_version>  (93) 
65135

>  <i_m_ct_format>  (93) 
2

>  <i_m_source_file_index>  (93) 
3032

>  <i_qp_#NandO>  (93) 
4

>  <i_qp_#acid>  (93) 
0

>  <i_qp_#amide>  (93) 
0

>  <i_qp_#amidine>  (93) 
0

>  <i_qp_#amine>  (93) 
1

>  <i_qp_#in34>  (93) 
0

>  <i_qp_#in56>  (93) 
22

>  <i_qp_#metab>  (93) 
3

>  <i_qp_#nonHatm>  (93) 
30

>  <i_qp_#noncon>  (93) 
0

>  <i_qp_#ringatoms>  (93) 
22

>  <i_qp_#rotor>  (93) 
5

>  <i_qp_#rtvFG>  (93) 
0

>  <i_qp_#stars>  (93) 
0

>  <i_qp_CNS>  (93) 
2

>  <i_qp_HumanOralAbsorption>  (93) 
3

>  <i_qp_RuleOfFive>  (93) 
0

>  <i_qp_RuleOfThree>  (93) 
0

>  <i_sd_BIOSOLVEIT.INFINISEE\_RESULT\_RANK>  (93) 
89533

>  <i_sd_version>  (93) 
0

>  <b_lp_Chiralities_Consistent>  (93) 
1

>  <b_sd_chiral_flag>  (93) 
0

>  <canonical_id>  (93) 
ATP-HTVS-0F4AF3905209

>  <compound_code>  (93) 
96993

>  <title>  (93) 
rxn318____EMOL2873214____EMOL484550____EMOL476827

>  <variant>  (93) 
96993-1

>  <source_file>  (93) 
运行/运行/ATP-VSW/ATP-VSW-DOCK_HTVS_1-002_lib.maegz

>  <canonical_smiles>  (93) 
C[NH+](C)Cc1cccc(Cn2c(-c3cccc(Br)c3)nc3cccc(F)c3c2=O)c1

>  <scaffold>  (93) 
O=c1c2ccccc2nc(-c2ccccc2)n1Cc1ccccc1

>  <molecular_formula>  (93) 
C24H22BrFN3O+

$$$$
ATP-HTVS-0F6915EAEEA3
     RDKit          3D

 58 60  0  0  0  0  0  0  0  0999 V2000
  198.3875  192.1505  158.6473 F   0  0  0  0  0  0  0  0  0  0  0  0
  198.5751  191.1884  159.5514 C   0  0  1  0  0  0  0  0  0  0  0  0
  199.8826  191.0756  159.7856 F   0  0  0  0  0  0  0  0  0  0  0  0
  197.9632  191.5543  160.6809 F   0  0  0  0  0  0  0  0  0  0  0  0
  198.0467  189.8642  159.0115 C   0  0  0  0  0  0  0  0  0  0  0  0
  197.3719  188.9569  159.8591 C   0  0  0  0  0  0  0  0  0  0  0  0
  196.8784  187.7327  159.3648 C   0  0  0  0  0  0  0  0  0  0  0  0
  197.0720  187.4178  157.9915 C   0  0  0  0  0  0  0  0  0  0  0  0
  197.7556  188.3026  157.1508 C   0  0  0  0  0  0  0  0  0  0  0  0
  198.2449  189.5296  157.6543 C   0  0  0  0  0  0  0  0  0  0  0  0
  196.1433  186.7879  160.3067 C   0  0  1  0  0  0  0  0  0  0  0  0
  196.1916  185.4100  159.8452 N   0  0  0  0  0  0  0  0  0  0  0  0
  197.2679  184.6439  160.1315 N   0  0  0  0  0  0  0  0  0  0  0  0
  197.0799  183.4772  159.6038 N   0  0  0  0  0  0  0  0  0  0  0  0
  195.8578  183.4844  158.9358 C   0  0  0  0  0  0  0  0  0  0  0  0
  195.2777  184.7135  159.0767 C   0  0  0  0  0  0  0  0  0  0  0  0
  195.3519  182.2960  158.1662 C   0  0  1  0  0  0  0  0  0  0  0  0
  196.4744  181.4373  157.7045 N   0  0  1  0  0  0  0  0  0  0  0  0
  197.2189  181.9201  156.5318 C   0  0  1  0  0  0  0  0  0  0  0  0
  198.3209  180.9556  156.1321 C   0  0  0  0  0  0  0  0  0  0  0  0
  198.0178  179.8247  155.3481 C   0  0  0  0  0  0  0  0  0  0  0  0
  199.0479  178.9431  154.9615 C   0  0  0  0  0  0  0  0  0  0  0  0
  200.3805  179.1705  155.3685 C   0  0  0  0  0  0  0  0  0  0  0  0
  200.6804  180.3049  156.1418 C   0  0  0  0  0  0  0  0  0  0  0  0
  199.6526  181.1935  156.5306 C   0  0  0  0  0  0  0  0  0  0  0  0
  201.4702  178.1696  154.9921 C   0  0  1  0  0  0  0  0  0  0  0  0
  201.7491  177.1641  156.0580 N   0  0  1  0  0  0  0  0  0  0  0  0
  200.6106  176.8703  156.9679 C   0  0  2  0  0  0  0  0  0  0  0  0
  202.3396  175.9210  155.5113 C   0  0  2  0  0  0  0  0  0  0  0  0
  194.3753  181.4884  159.0110 C   0  0  2  0  0  0  0  0  0  0  0  0
  197.1070  181.3231  158.4825 H   0  0  0  0  0  0  0  0  0  0  0  0
  197.2421  189.2041  160.9033 H   0  0  0  0  0  0  0  0  0  0  0  0
  196.7067  186.4943  157.5640 H   0  0  0  0  0  0  0  0  0  0  0  0
  197.9072  188.0411  156.1111 H   0  0  0  0  0  0  0  0  0  0  0  0
  198.7677  190.2071  156.9932 H   0  0  0  0  0  0  0  0  0  0  0  0
  196.5848  186.8497  161.3101 H   0  0  0  0  0  0  0  0  0  0  0  0
  195.1035  187.1086  160.3996 H   0  0  0  0  0  0  0  0  0  0  0  0
  194.3582  185.1426  158.7090 H   0  0  0  0  0  0  0  0  0  0  0  0
  194.7680  182.6727  157.3314 H   0  0  0  0  0  0  0  0  0  0  0  0
  196.5404  182.0627  155.6909 H   0  0  0  0  0  0  0  0  0  0  0  0
  197.6559  182.8957  156.7562 H   0  0  0  0  0  0  0  0  0  0  0  0
  196.9942  179.5932  155.0813 H   0  0  0  0  0  0  0  0  0  0  0  0
  198.8000  178.0596  154.4003 H   0  0  0  0  0  0  0  0  0  0  0  0
  201.6878  180.4834  156.4866 H   0  0  0  0  0  0  0  0  0  0  0  0
  199.8884  182.0333  157.1679 H   0  0  0  0  0  0  0  0  0  0  0  0
  201.1702  177.6664  154.0668 H   0  0  0  0  0  0  0  0  0  0  0  0
  202.3969  178.6992  154.7441 H   0  0  0  0  0  0  0  0  0  0  0  0
  199.7794  176.4407  156.4113 H   0  0  0  0  0  0  0  0  0  0  0  0
  200.2482  177.7503  157.4999 H   0  0  0  0  0  0  0  0  0  0  0  0
  200.9072  176.1576  157.7377 H   0  0  0  0  0  0  0  0  0  0  0  0
  201.6512  175.4283  154.8268 H   0  0  0  0  0  0  0  0  0  0  0  0
  202.5710  175.2189  156.3091 H   0  0  0  0  0  0  0  0  0  0  0  0
  203.2643  176.1283  154.9743 H   0  0  0  0  0  0  0  0  0  0  0  0
  193.5523  182.1462  159.2801 H   0  0  0  0  0  0  0  0  0  0  0  0
  194.8435  181.1017  159.9198 H   0  0  0  0  0  0  0  0  0  0  0  0
  193.9549  180.6536  158.4477 H   0  0  0  0  0  0  0  0  0  0  0  0
  202.4766  177.5663  156.6381 H   0  0  0  0  0  0  0  0  0  0  0  0
  196.1305  180.4834  157.5082 H   0  0  0  0  0  0  0  0  0  0  0  0
  2  1  1  6
  2  3  1  0
  2  4  1  0
  2  5  1  0
  5  6  2  0
  5 10  1  0
  6  7  1  0
  6 32  1  0
  7  8  2  0
  7 11  1  0
  8  9  1  0
  8 33  1  0
  9 10  2  0
  9 34  1  0
 10 35  1  0
 11 12  1  0
 11 36  1  1
 11 37  1  0
 12 13  1  0
 12 16  1  0
 13 14  2  0
 14 15  1  0
 15 16  2  0
 15 17  1  0
 16 38  1  0
 17 18  1  0
 17 30  1  0
 17 39  1  6
 18 19  1  0
 18 31  1  1
 18 58  1  0
 19 20  1  0
 19 40  1  6
 19 41  1  0
 20 21  1  0
 20 25  2  0
 21 22  2  0
 21 42  1  0
 22 23  1  0
 22 43  1  0
 23 24  2  0
 23 26  1  0
 24 25  1  0
 24 44  1  0
 25 45  1  0
 26 27  1  0
 26 46  1  6
 26 47  1  0
 27 28  1  0
 27 29  1  0
 27 57  1  1
 28 48  1  6
 28 49  1  0
 28 50  1  0
 29 51  1  6
 29 52  1  0
 29 53  1  0
 30 54  1  1
 30 55  1  0
 30 56  1  0
M  CHG  2  18   1  27   1
M  END
>  <s_epik_cmdline>  (94) 
J2VwaWtfcHl0aG9uJywgJy1waCcsICc3LjAwMDAwMCcsICctcGh0JywgJzIuMDAwMDAwJywgJy1tcycsICcxNicsICctdG4nLCAnOCcsICctbWEnLCAnMjAwJywgJy1pbWFlJywgJzxpbmZpbGUubWFlPicsICctb21hZScsICc8b3V0ZmlsZS5tYWU+Jw==

>  <s_epik_input>  (94) 
RkMoRikoRiljMVtjSF1jKFtjSF1bY0hdW2NIXTEpW0NIMl1uMm5uYyhbY0hdMilbQ0BIXShbQ0gzXSlbTkhdW0NIMl1jM1tjSF1bY0hdYyhbY0hdW2NIXTMpW0NIMl1OKFtDSDNdKVtDSDNd

>  <s_i_glide_gridfile>  (94) 
ATP-Grid

>  <s_lp_Force_Field>  (94) 
OPLS_2005

>  <s_lp_Variant>  (94) 
rxn207____EMOL46100666____EMOL50155899-2

>  <s_lp_label>  (94) 
2478_sdstereoexpander_2_neutralizer_1_epik_1_stereoizer_1

>  <s_m_source_file>  (94) 
ATP-VSW-LIGPREP-003-in.maegz

>  <s_sd_BIOSOLVEIT.INFINISEE\_QUERY\_NAME>  (94) 
Ref-Lig

>  <s_sd_BIOSOLVEIT.INFINISEE\_QUERY\_SMILES>  (94) 
S(c1nc2c(cc1C[NH2+]Cc3ccc(cc3)C[NH+](C)C)cccc2)Cc4ccccc4

>  <s_sd_BIOSOLVEIT.INFINISEE\_REACTION\_NAME>  (94) 
rxn207

>  <s_sd_BIOSOLVEIT.INFINISEE\_REAGENT1\_NAME>  (94) 
EMOL46100666

>  <s_sd_BIOSOLVEIT.INFINISEE\_REAGENT1\_SMILES>  (94) 
FC(F)(F)c1cc(ccc1)CN2N=NC(C(=O)C)=C2

>  <s_sd_BIOSOLVEIT.INFINISEE\_REAGENT2\_NAME>  (94) 
EMOL50155899

>  <s_sd_BIOSOLVEIT.INFINISEE\_REAGENT2\_SMILES>  (94) 
N(Cc1ccc(cc1)CN)(C)C

>  <s_sd_BIOSOLVEIT.INFINISEE\_SPACE>  (94) 
eXplore_7tr_2022-12

>  <s_vsw_compound_code>  (94) 
79267

>  <s_vsw_variant>  (94) 
79267-2

>  <r_epik_Charging_Adjusted_Penalty>  (94) 
0.57844711612965305

>  <r_epik_Ionization_Penalty>  (94) 
0.28939999999999999

>  <r_epik_Ionization_Penalty_Charging>  (94) 
0.28939999999999999

>  <r_epik_Ionization_Penalty_Neutral>  (94) 
0

>  <r_epik_State_Penalty>  (94) 
0.28899999999999998

>  <r_i_docking_score>  (94) 
-5.9279819604492303

>  <r_i_glide_ecoul>  (94) 
-17.063426971435501

>  <r_i_glide_eff_state_penalty>  (94) 
0.28899999999999998

>  <r_i_glide_einternal>  (94) 
7.3528170585632298

>  <r_i_glide_emodel>  (94) 
-73.434270988630502

>  <r_i_glide_energy>  (94) 
-48.269559860229499

>  <r_i_glide_erotb>  (94) 
0.786995053077858

>  <r_i_glide_esite>  (94) 
-0.194360058293962

>  <r_i_glide_evdw>  (94) 
-31.206132888793899

>  <r_i_glide_gscore>  (94) 
-6.21698196044923

>  <r_i_glide_hbond>  (94) 
-0.173263171984258

>  <r_i_glide_ligand_efficiency>  (94) 
-0.197599398681641

>  <r_i_glide_ligand_efficiency_ln>  (94) 
-1.3469020919508199

>  <r_i_glide_ligand_efficiency_sa>  (94) 
-0.61398727404443398

>  <r_i_glide_lipo>  (94) 
-1.1024978286896501

>  <r_i_glide_metal>  (94) 
-0

>  <r_i_glide_rewards>  (94) 
-1.41403526440419

>  <r_lp_Energy>  (94) 
14.510281000000001

>  <r_lp_tautomer_probability>  (94) 
1

>  <r_qp_ACxDN^.5/SA>  (94) 
0.0079509999999999997

>  <r_qp_CIQPlogS>  (94) 
-4.2249999999999996

>  <r_qp_EA(eV)>  (94) 
0.78700000000000003

>  <r_qp_FISA>  (94) 
53.921999999999997

>  <r_qp_FOSA>  (94) 
348.87200000000001

>  <r_qp_IP(eV)>  (94) 
9.1259999999999994

>  <r_qp_Jm>  (94) 
0.000109941767260864

>  <r_qp_PISA>  (94) 
234.98400000000001

>  <r_qp_PSA>  (94) 
51.274000000000001

>  <r_qp_PercentHumanOralAbsorption>  (94) 
94.325000000000003

>  <r_qp_QPPCaco>  (94) 
189.82599999999999

>  <r_qp_QPPMDCK>  (94) 
438.71300000000002

>  <r_qp_QPlogBB>  (94) 
0.57999999999999996

>  <r_qp_QPlogHERG>  (94) 
-7.6040000000000001

>  <r_qp_QPlogKhsa>  (94) 
0.76000000000000001

>  <r_qp_QPlogKp>  (94) 
-5.0430000000000001

>  <r_qp_QPlogPC16>  (94) 
12.398

>  <r_qp_QPlogPo/w>  (94) 
4.5430000000000001

>  <r_qp_QPlogPoct>  (94) 
20.228000000000002

>  <r_qp_QPlogPw>  (94) 
9.1509999999999998

>  <r_qp_QPlogS>  (94) 
-4.5369999999999999

>  <r_qp_QPpolrz>  (94) 
45.079999999999998

>  <r_qp_SASA>  (94) 
754.62400000000002

>  <r_qp_SAamideO>  (94) 
0

>  <r_qp_SAfluorine>  (94) 
116.846

>  <r_qp_WPSA>  (94) 
116.846

>  <r_qp_accptHB>  (94) 
6

>  <r_qp_dip^2/V>  (94) 
0.045996299999999997

>  <r_qp_dipole>  (94) 
7.8869999999999996

>  <r_qp_donorHB>  (94) 
1

>  <r_qp_glob>  (94) 
0.78377070000000004

>  <r_qp_mol_MW>  (94) 
417.476

>  <r_qp_volume>  (94) 
1352.4839999999999

>  <r_sd_BIOSOLVEIT.INFINISEE\_FTREES\_SIMILARITY>  (94) 
0.91500000000000004

>  <r_sd_BIOSOLVEIT.LOGP>  (94) 
1.8143

>  <r_sd_BIOSOLVEIT.MOLECULAR\_WEIGHT>  (94) 
419.49200000000002

>  <r_sd_BIOSOLVEIT.TPSA>  (94) 
51.759999999999998

>  <i_epik_Tot_Q>  (94) 
2

>  <i_epik_Tot_abs_Q>  (94) 
2

>  <i_f3d_flags>  (94) 
0

>  <i_i_glide_confnum>  (94) 
4

>  <i_i_glide_lignum>  (94) 
1065

>  <i_i_glide_posenum>  (94) 
17

>  <i_i_glide_rotatable_bonds>  (94) 
9

>  <i_lp_mmshare_version>  (94) 
65135

>  <i_m_ct_format>  (94) 
2

>  <i_m_source_file_index>  (94) 
2478

>  <i_qp_#NandO>  (94) 
5

>  <i_qp_#acid>  (94) 
0

>  <i_qp_#amide>  (94) 
0

>  <i_qp_#amidine>  (94) 
0

>  <i_qp_#amine>  (94) 
2

>  <i_qp_#in34>  (94) 
0

>  <i_qp_#in56>  (94) 
17

>  <i_qp_#metab>  (94) 
7

>  <i_qp_#nonHatm>  (94) 
30

>  <i_qp_#noncon>  (94) 
0

>  <i_qp_#ringatoms>  (94) 
17

>  <i_qp_#rotor>  (94) 
8

>  <i_qp_#rtvFG>  (94) 
0

>  <i_qp_#stars>  (94) 
0

>  <i_qp_CNS>  (94) 
2

>  <i_qp_HumanOralAbsorption>  (94) 
3

>  <i_qp_RuleOfFive>  (94) 
0

>  <i_qp_RuleOfThree>  (94) 
1

>  <i_sd_BIOSOLVEIT.INFINISEE\_RESULT\_RANK>  (94) 
28569

>  <i_sd_version>  (94) 
0

>  <b_lp_Chiralities_Consistent>  (94) 
1

>  <b_sd_chiral_flag>  (94) 
0

>  <canonical_id>  (94) 
ATP-HTVS-0F6915EAEEA3

>  <compound_code>  (94) 
79267

>  <title>  (94) 
rxn207____EMOL46100666____EMOL50155899

>  <variant>  (94) 
79267-2

>  <source_file>  (94) 
运行/运行/ATP-VSW/ATP-VSW-DOCK_HTVS_1-003_lib/ATP-VSW-DOCK_HTVS_1-003_lib.mae

>  <canonical_smiles>  (94) 
C[C@H]([NH2+]Cc1ccc(C[NH+](C)C)cc1)c1cn(Cc2cccc(C(F)(F)F)c2)nn1

>  <scaffold>  (94) 
c1ccc(C[NH2+]Cc2cn(Cc3ccccc3)nn2)cc1

>  <molecular_formula>  (94) 
C22H28F3N5+2

$$$$
ATP-HTVS-0F755B78CCFB
     RDKit          3D

 67 70  0  0  0  0  0  0  0  0999 V2000
  196.0909  179.4349  151.0992 O   0  0  0  0  0  0  0  0  0  0  0  0
  197.1162  179.8828  150.5804 C   0  0  0  0  0  0  0  0  0  0  0  0
  197.6279  181.1070  150.7992 N   0  0  0  0  0  0  0  0  0  0  0  0
  197.4978  181.9223  151.9567 C   0  0  0  0  0  0  0  0  0  0  0  0
  197.1959  181.3821  153.1598 N   0  0  0  0  0  0  0  0  0  0  0  0
  197.1820  182.1567  154.2592 C   0  0  0  0  0  0  0  0  0  0  0  0
  197.4428  183.5445  154.2441 C   0  0  0  0  0  0  0  0  0  0  0  0
  197.3826  184.3249  155.4156 N   0  0  0  0  0  0  0  0  0  0  0  0
  196.8770  183.7807  156.6718 C   0  0  1  0  0  0  0  0  0  0  0  0
  196.6553  184.8150  157.7641 C   0  0  0  0  0  0  0  0  0  0  0  0
  195.6229  184.6280  158.7082 C   0  0  0  0  0  0  0  0  0  0  0  0
  195.3995  185.5897  159.7134 C   0  0  0  0  0  0  0  0  0  0  0  0
  196.1996  186.7517  159.7907 C   0  0  0  0  0  0  0  0  0  0  0  0
  195.9094  187.6967  160.7881 N   0  0  0  0  0  0  0  0  0  0  0  0
  196.7120  188.8970  160.9992 C   0  0  1  0  0  0  0  0  0  0  0  0
  195.8910  190.0334  161.6160 C   0  0  1  0  0  0  0  0  0  0  0  0
  196.8171  191.0123  162.0462 O   0  0  0  0  0  0  0  0  0  0  0  0
  197.2406  186.9253  158.8515 C   0  0  0  0  0  0  0  0  0  0  0  0
  197.4592  185.9704  157.8410 C   0  0  0  0  0  0  0  0  0  0  0  0
  197.7525  184.1278  152.9879 C   0  0  0  0  0  0  0  0  0  0  0  0
  197.7954  183.3084  151.8276 C   0  0  0  0  0  0  0  0  0  0  0  0
  198.1345  183.8924  150.5777 C   0  0  0  0  0  0  0  0  0  0  0  0
  198.4065  185.2697  150.4809 C   0  0  0  0  0  0  0  0  0  0  0  0
  198.3500  186.0808  151.6264 C   0  0  0  0  0  0  0  0  0  0  0  0
  198.0292  185.5125  152.8721 C   0  0  0  0  0  0  0  0  0  0  0  0
  197.8764  179.0825  149.5637 C   0  0  0  0  0  0  0  0  0  0  0  0
  199.2846  178.9709  149.6624 C   0  0  0  0  0  0  0  0  0  0  0  0
  199.9998  178.1742  148.7520 C   0  0  0  0  0  0  0  0  0  0  0  0
  199.3234  177.4753  147.7260 C   0  0  0  0  0  0  0  0  0  0  0  0
  197.9208  177.5771  147.6336 C   0  0  0  0  0  0  0  0  0  0  0  0
  197.2013  178.3693  148.5519 C   0  0  0  0  0  0  0  0  0  0  0  0
  200.1040  176.6335  146.7294 C   0  0  1  0  0  0  0  0  0  0  0  0
  200.3749  177.3478  145.4497 N   0  0  1  0  0  0  0  0  0  0  0  0
  200.9265  178.7163  145.6198 C   0  0  2  0  0  0  0  0  0  0  0  0
  201.2098  176.5411  144.5354 C   0  0  2  0  0  0  0  0  0  0  0  0
  198.3002  181.4288  150.1200 H   0  0  0  0  0  0  0  0  0  0  0  0
  196.9500  181.6312  155.1711 H   0  0  0  0  0  0  0  0  0  0  0  0
  197.3806  185.3316  155.3280 H   0  0  0  0  0  0  0  0  0  0  0  0
  195.9340  183.2646  156.4871 H   0  0  0  0  0  0  0  0  0  0  0  0
  197.5848  183.0417  157.0510 H   0  0  0  0  0  0  0  0  0  0  0  0
  194.9828  183.7561  158.6439 H   0  0  0  0  0  0  0  0  0  0  0  0
  194.5895  185.4328  160.4128 H   0  0  0  0  0  0  0  0  0  0  0  0
  195.1069  187.5566  161.3830 H   0  0  0  0  0  0  0  0  0  0  0  0
  197.5408  188.6468  161.6610 H   0  0  0  0  0  0  0  0  0  0  0  0
  197.1464  189.2864  160.0781 H   0  0  0  0  0  0  0  0  0  0  0  0
  195.2176  190.4501  160.8707 H   0  0  0  0  0  0  0  0  0  0  0  0
  195.2859  189.7043  162.4569 H   0  0  0  0  0  0  0  0  0  0  0  0
  197.6357  190.5576  162.2216 H   0  0  0  0  0  0  0  0  0  0  0  0
  197.8885  187.7865  158.8619 H   0  0  0  0  0  0  0  0  0  0  0  0
  198.2466  186.1478  157.1247 H   0  0  0  0  0  0  0  0  0  0  0  0
  198.1928  183.3100  149.6705 H   0  0  0  0  0  0  0  0  0  0  0  0
  198.6554  185.7074  149.5232 H   0  0  0  0  0  0  0  0  0  0  0  0
  198.5449  187.1394  151.5533 H   0  0  0  0  0  0  0  0  0  0  0  0
  197.9912  186.1631  153.7320 H   0  0  0  0  0  0  0  0  0  0  0  0
  199.8316  179.4940  150.4351 H   0  0  0  0  0  0  0  0  0  0  0  0
  201.0748  178.0926  148.8421 H   0  0  0  0  0  0  0  0  0  0  0  0
  197.3898  177.0438  146.8593 H   0  0  0  0  0  0  0  0  0  0  0  0
  196.1253  178.4453  148.4737 H   0  0  0  0  0  0  0  0  0  0  0  0
  201.0486  176.3384  147.1910 H   0  0  0  0  0  0  0  0  0  0  0  0
  199.5630  175.7041  146.5349 H   0  0  0  0  0  0  0  0  0  0  0  0
  201.8781  178.6895  146.1523 H   0  0  0  0  0  0  0  0  0  0  0  0
  200.2477  179.3691  146.1712 H   0  0  0  0  0  0  0  0  0  0  0  0
  201.0912  179.1923  144.6533 H   0  0  0  0  0  0  0  0  0  0  0  0
  202.2012  176.3651  144.9543 H   0  0  0  0  0  0  0  0  0  0  0  0
  201.3360  177.0566  143.5824 H   0  0  0  0  0  0  0  0  0  0  0  0
  200.7476  175.5747  144.3302 H   0  0  0  0  0  0  0  0  0  0  0  0
  199.4919  177.4512  144.9666 H   0  0  0  0  0  0  0  0  0  0  0  0
  1  2  2  0
  2  3  1  0
  2 26  1  0
  3  4  1  0
  3 36  1  0
  4  5  1  0
  4 21  2  0
  5  6  2  0
  6  7  1  0
  6 37  1  0
  7  8  1  0
  7 20  2  0
  8  9  1  0
  8 38  1  0
  9 10  1  0
  9 39  1  6
  9 40  1  0
 10 11  1  0
 10 19  2  0
 11 12  2  0
 11 41  1  0
 12 13  1  0
 12 42  1  0
 13 14  1  0
 13 18  2  0
 14 15  1  0
 14 43  1  0
 15 16  1  0
 15 44  1  1
 15 45  1  0
 16 17  1  0
 16 46  1  6
 16 47  1  0
 17 48  1  0
 18 19  1  0
 18 49  1  0
 19 50  1  0
 20 21  1  0
 20 25  1  0
 21 22  1  0
 22 23  2  0
 22 51  1  0
 23 24  1  0
 23 52  1  0
 24 25  2  0
 24 53  1  0
 25 54  1  0
 26 27  1  0
 26 31  2  0
 27 28  2  0
 27 55  1  0
 28 29  1  0
 28 56  1  0
 29 30  2  0
 29 32  1  0
 30 31  1  0
 30 57  1  0
 31 58  1  0
 32 33  1  0
 32 59  1  1
 32 60  1  0
 33 34  1  0
 33 35  1  0
 33 67  1  6
 34 61  1  1
 34 62  1  0
 34 63  1  0
 35 64  1  1
 35 65  1  0
 35 66  1  0
M  CHG  1  33   1
M  END
>  <s_epik_cmdline>  (95) 
J2VwaWtfcHl0aG9uJywgJy1waCcsICc3LjAwMDAwMCcsICctcGh0JywgJzIuMDAwMDAwJywgJy1tcycsICcxNicsICctdG4nLCAnOCcsICctbWEnLCAnMjAwJywgJy1pbWFlJywgJzxpbmZpbGUubWFlPicsICctb21hZScsICc8b3V0ZmlsZS5tYWU+Jw==

>  <s_epik_input>  (95) 
W0NIM11OKFtDSDNdKVtDSDJdYyhbY0hdW2NIXTEpW2NIXVtjSF1jMUMoPU8pW05IXWMoYyhjMjMpW2NIXVtjSF1bY0hdW2NIXTMpbltjSF1jMltOSF1bQ0gyXWM0W2NIXVtjSF1jKFtjSF1bY0hdNClbTkhdW0NIMl1bQ0gyXVtPSF0=

>  <s_i_glide_gridfile>  (95) 
ATP-Grid

>  <s_lp_Force_Field>  (95) 
OPLS_2005

>  <s_lp_Variant>  (95) 
rxn502b____EMOL18624763____EMOL7515103____EMOL324170366-1

>  <s_lp_label>  (95) 
2985_sdstereoexpander_1_neutralizer_1_epik_1_stereoizer_1

>  <s_m_source_file>  (95) 
ATP-VSW-LIGPREP-002-in.maegz

>  <s_sd_BIOSOLVEIT.INFINISEE\_QUERY\_NAME>  (95) 
Ref-Lig

>  <s_sd_BIOSOLVEIT.INFINISEE\_QUERY\_SMILES>  (95) 
S(c1nc2c(cc1C[NH2+]Cc3ccc(cc3)C[NH+](C)C)cccc2)Cc4ccccc4

>  <s_sd_BIOSOLVEIT.INFINISEE\_REACTION\_NAME>  (95) 
rxn502b

>  <s_sd_BIOSOLVEIT.INFINISEE\_REAGENT1\_NAME>  (95) 
EMOL18624763

>  <s_sd_BIOSOLVEIT.INFINISEE\_REAGENT1\_SMILES>  (95) 
O=C(O)c1ccc(cc1)CN(C)C

>  <s_sd_BIOSOLVEIT.INFINISEE\_REAGENT2\_NAME>  (95) 
EMOL7515103

>  <s_sd_BIOSOLVEIT.INFINISEE\_REAGENT2\_SMILES>  (95) 
Brc1c2c(c(nc1)N)cccc2

>  <s_sd_BIOSOLVEIT.INFINISEE\_REAGENT3\_NAME>  (95) 
EMOL324170366

>  <s_sd_BIOSOLVEIT.INFINISEE\_REAGENT3\_SMILES>  (95) 
OCCNc1ccc(cc1)CN

>  <s_sd_BIOSOLVEIT.INFINISEE\_SPACE>  (95) 
eXplore_7tr_2022-12

>  <s_vsw_compound_code>  (95) 
95490

>  <s_vsw_variant>  (95) 
95490-1

>  <r_epik_Charging_Adjusted_Penalty>  (95) 
0.11604079405907

>  <r_epik_Ionization_Penalty>  (95) 
0.064000000000000001

>  <r_epik_Ionization_Penalty_Charging>  (95) 
0.052200000000000003

>  <r_epik_Ionization_Penalty_Neutral>  (95) 
0.0118

>  <r_epik_State_Penalty>  (95) 
0.063899999999999998

>  <r_i_docking_score>  (95) 
-4.35514726578573

>  <r_i_glide_ecoul>  (95) 
-7.1263504028320304

>  <r_i_glide_eff_state_penalty>  (95) 
0.063899999999999998

>  <r_i_glide_einternal>  (95) 
8.2720451354980504

>  <r_i_glide_emodel>  (95) 
-56.575755648836598

>  <r_i_glide_energy>  (95) 
-44.035057067871101

>  <r_i_glide_erotb>  (95) 
0.91244354638238701

>  <r_i_glide_esite>  (95) 
-0.084172127380786693

>  <r_i_glide_evdw>  (95) 
-36.908706665039098

>  <r_i_glide_gscore>  (95) 
-4.4190472657857303

>  <r_i_glide_hbond>  (95) 
-0.29867057450239398

>  <r_i_glide_ligand_efficiency>  (95) 
-0.12443277902244999

>  <r_i_glide_ligand_efficiency_ln>  (95) 
-0.95605148212577595

>  <r_i_glide_ligand_efficiency_sa>  (95) 
-0.40702787086110098

>  <r_i_glide_lipo>  (95) 
-1.4611184933224399

>  <r_i_glide_metal>  (95) 
-0

>  <r_i_glide_rewards>  (95) 
-0.57314172328574098

>  <r_lp_Energy>  (95) 
40.083807999999998

>  <r_qp_ACxDN^.5/SA>  (95) 
0.021065299999999999

>  <r_qp_CIQPlogS>  (95) 
-5.1859999999999999

>  <r_qp_EA(eV)>  (95) 
0.76300000000000001

>  <r_qp_FISA>  (95) 
142.631

>  <r_qp_FOSA>  (95) 
317.24400000000003

>  <r_qp_IP(eV)>  (95) 
7.6040000000000001

>  <r_qp_Jm>  (95) 
0.00034088534553451298

>  <r_qp_PISA>  (95) 
413.59899999999999

>  <r_qp_PSA>  (95) 
97.119

>  <r_qp_PercentHumanOralAbsorption>  (95) 
85.251000000000005

>  <r_qp_QPPCaco>  (95) 
109.706

>  <r_qp_QPPMDCK>  (95) 
50.215000000000003

>  <r_qp_QPlogBB>  (95) 
-1.4099999999999999

>  <r_qp_QPlogHERG>  (95) 
-8.3420000000000005

>  <r_qp_QPlogKhsa>  (95) 
0.40400000000000003

>  <r_qp_QPlogKp>  (95) 
-3.698

>  <r_qp_QPlogPC16>  (95) 
17.981000000000002

>  <r_qp_QPlogPo/w>  (95) 
3.7210000000000001

>  <r_qp_QPlogPoct>  (95) 
28.875

>  <r_qp_QPlogPw>  (95) 
18.099

>  <r_qp_QPlogS>  (95) 
-5.4409999999999998

>  <r_qp_QPpolrz>  (95) 
53.313000000000002

>  <r_qp_SASA>  (95) 
873.47500000000002

>  <r_qp_SAamideO>  (95) 
0

>  <r_qp_SAfluorine>  (95) 
0

>  <r_qp_WPSA>  (95) 
0

>  <r_qp_accptHB>  (95) 
9.1999999999999993

>  <r_qp_dip^2/V>  (95) 
0.028484800000000001

>  <r_qp_dipole>  (95) 
6.6740000000000004

>  <r_qp_donorHB>  (95) 
4

>  <r_qp_glob>  (95) 
0.74591209999999997

>  <r_qp_mol_MW>  (95) 
469.58499999999998

>  <r_qp_volume>  (95) 
1563.721

>  <r_sd_BIOSOLVEIT.INFINISEE\_FTREES\_SIMILARITY>  (95) 
0.90300000000000002

>  <r_sd_BIOSOLVEIT.LOGP>  (95) 
3.1478999999999999

>  <r_sd_BIOSOLVEIT.MOLECULAR\_WEIGHT>  (95) 
470.59399999999999

>  <r_sd_BIOSOLVEIT.TPSA>  (95) 
90.719999999999999

>  <i_epik_Tot_Q>  (95) 
1

>  <i_epik_Tot_abs_Q>  (95) 
1

>  <i_f3d_flags>  (95) 
0

>  <i_i_glide_confnum>  (95) 
12

>  <i_i_glide_lignum>  (95) 
42

>  <i_i_glide_posenum>  (95) 
9

>  <i_i_glide_rotatable_bonds>  (95) 
12

>  <i_lp_mmshare_version>  (95) 
65135

>  <i_m_ct_format>  (95) 
2

>  <i_m_source_file_index>  (95) 
2985

>  <i_qp_#NandO>  (95) 
7

>  <i_qp_#acid>  (95) 
0

>  <i_qp_#amide>  (95) 
0

>  <i_qp_#amidine>  (95) 
0

>  <i_qp_#amine>  (95) 
1

>  <i_qp_#in34>  (95) 
0

>  <i_qp_#in56>  (95) 
22

>  <i_qp_#metab>  (95) 
10

>  <i_qp_#nonHatm>  (95) 
35

>  <i_qp_#noncon>  (95) 
0

>  <i_qp_#ringatoms>  (95) 
22

>  <i_qp_#rotor>  (95) 
11

>  <i_qp_#rtvFG>  (95) 
0

>  <i_qp_#stars>  (95) 
3

>  <i_qp_CNS>  (95) 
-2

>  <i_qp_HumanOralAbsorption>  (95) 
1

>  <i_qp_RuleOfFive>  (95) 
0

>  <i_qp_RuleOfThree>  (95) 
1

>  <i_sd_BIOSOLVEIT.INFINISEE\_RESULT\_RANK>  (95) 
84161

>  <i_sd_version>  (95) 
0

>  <b_lp_Chiralities_Consistent>  (95) 
1

>  <b_sd_chiral_flag>  (95) 
0

>  <canonical_id>  (95) 
ATP-HTVS-0F755B78CCFB

>  <compound_code>  (95) 
95490

>  <title>  (95) 
rxn502b____EMOL18624763____EMOL7515103____EMOL324170366

>  <variant>  (95) 
95490-1

>  <source_file>  (95) 
运行/运行/ATP-VSW/ATP-VSW-DOCK_HTVS_1-003_lib/ATP-VSW-DOCK_HTVS_1-003_lib.mae

>  <canonical_smiles>  (95) 
C[NH+](C)Cc1ccc(C(=O)Nc2ncc(NCc3ccc(NCCO)cc3)c3ccccc23)cc1

>  <scaffold>  (95) 
O=C(Nc1ncc(NCc2ccccc2)c2ccccc12)c1ccccc1

>  <molecular_formula>  (95) 
C28H32N5O2+

$$$$
ATP-HTVS-0F900EB338B9
     RDKit          3D

 60 63  0  0  0  0  0  0  0  0999 V2000
  198.3579  183.1294  156.8124 O   0  0  0  0  0  0  0  0  0  0  0  0
  197.6945  182.1281  157.0923 C   0  0  0  0  0  0  0  0  0  0  0  0
  197.4682  181.1147  156.2331 N   0  0  0  0  0  0  0  0  0  0  0  0
  198.0147  180.9943  154.9122 C   0  0  0  0  0  0  0  0  0  0  0  0
  198.7395  179.8093  154.5936 C   0  0  0  0  0  0  0  0  0  0  0  0
  198.8324  178.7639  155.5437 N   0  0  0  0  0  0  0  0  0  0  0  0
  199.7140  177.6729  155.5566 C   0  0  0  0  0  0  0  0  0  0  0  0
  200.2823  177.2328  156.7800 C   0  0  0  0  0  0  0  0  0  0  0  0
  201.1657  176.1319  156.7911 C   0  0  0  0  0  0  0  0  0  0  0  0
  201.5272  175.4825  155.5938 C   0  0  0  0  0  0  0  0  0  0  0  0
  202.3727  174.3565  155.6422 N   0  0  0  0  0  0  0  0  0  0  0  0
  202.5521  173.5014  154.4670 C   0  0  1  0  0  0  0  0  0  0  0  0
  201.2647  172.7464  154.0527 C   0  0  1  0  0  0  0  0  0  0  0  0
  201.5222  171.8331  153.0052 O   0  0  0  0  0  0  0  0  0  0  0  0
  200.9580  175.9419  154.3797 C   0  0  0  0  0  0  0  0  0  0  0  0
  200.0147  176.9793  154.3725 C   0  0  0  0  0  0  0  0  0  0  0  0
  199.3687  179.7598  153.3169 C   0  0  0  0  0  0  0  0  0  0  0  0
  199.2566  180.7261  152.3909 N   0  0  0  0  0  0  0  0  0  0  0  0
  198.5270  181.8250  152.6592 C   0  0  0  0  0  0  0  0  0  0  0  0
  197.8818  182.0115  153.9139 C   0  0  0  0  0  0  0  0  0  0  0  0
  197.1406  183.2040  154.1067 C   0  0  0  0  0  0  0  0  0  0  0  0
  197.0582  184.1815  153.1004 C   0  0  0  0  0  0  0  0  0  0  0  0
  197.6972  183.9936  151.8646 C   0  0  0  0  0  0  0  0  0  0  0  0
  198.4246  182.8090  151.6533 C   0  0  0  0  0  0  0  0  0  0  0  0
  197.1204  181.9870  158.5093 C   0  0  1  0  0  0  0  0  0  0  0  0
  195.9604  182.8473  158.7575 N   0  0  0  0  0  0  0  0  0  0  0  0
  196.1110  184.1749  159.2322 C   0  0  0  0  0  0  0  0  0  0  0  0
  197.3819  184.8053  159.2794 C   0  0  0  0  0  0  0  0  0  0  0  0
  197.5338  186.1266  159.7291 C   0  0  0  0  0  0  0  0  0  0  0  0
  196.4140  186.8548  160.1633 C   0  0  0  0  0  0  0  0  0  0  0  0
  195.1491  186.2502  160.1429 C   0  0  0  0  0  0  0  0  0  0  0  0
  194.9938  184.9299  159.6773 C   0  0  0  0  0  0  0  0  0  0  0  0
  194.6315  182.2751  158.5595 C   0  0  2  0  0  0  0  0  0  0  0  0
  197.0172  180.2968  156.6327 H   0  0  0  0  0  0  0  0  0  0  0  0
  198.2787  178.8274  156.3914 H   0  0  0  0  0  0  0  0  0  0  0  0
  200.0104  177.7080  157.7139 H   0  0  0  0  0  0  0  0  0  0  0  0
  201.5483  175.7611  157.7271 H   0  0  0  0  0  0  0  0  0  0  0  0
  202.6458  173.9850  156.5464 H   0  0  0  0  0  0  0  0  0  0  0  0
  202.9432  174.0971  153.6386 H   0  0  0  0  0  0  0  0  0  0  0  0
  203.3333  172.7777  154.7108 H   0  0  0  0  0  0  0  0  0  0  0  0
  200.8646  172.2110  154.9107 H   0  0  0  0  0  0  0  0  0  0  0  0
  200.4752  173.4151  153.7134 H   0  0  0  0  0  0  0  0  0  0  0  0
  202.1678  171.1998  153.3241 H   0  0  0  0  0  0  0  0  0  0  0  0
  201.1913  175.4746  153.4413 H   0  0  0  0  0  0  0  0  0  0  0  0
  199.5307  177.2138  153.4425 H   0  0  0  0  0  0  0  0  0  0  0  0
  199.9971  178.9598  152.9878 H   0  0  0  0  0  0  0  0  0  0  0  0
  196.5764  183.3753  155.0138 H   0  0  0  0  0  0  0  0  0  0  0  0
  196.4701  185.0679  153.2857 H   0  0  0  0  0  0  0  0  0  0  0  0
  197.6237  184.7370  151.0813 H   0  0  0  0  0  0  0  0  0  0  0  0
  198.9232  182.6422  150.7075 H   0  0  0  0  0  0  0  0  0  0  0  0
  196.8629  180.9452  158.7024 H   0  0  0  0  0  0  0  0  0  0  0  0
  197.9066  182.2229  159.2226 H   0  0  0  0  0  0  0  0  0  0  0  0
  198.2818  184.3072  158.9581 H   0  0  0  0  0  0  0  0  0  0  0  0
  198.5144  186.5761  159.7348 H   0  0  0  0  0  0  0  0  0  0  0  0
  196.5349  187.8700  160.5116 H   0  0  0  0  0  0  0  0  0  0  0  0
  194.2825  186.8028  160.4745 H   0  0  0  0  0  0  0  0  0  0  0  0
  193.9942  184.5248  159.6640 H   0  0  0  0  0  0  0  0  0  0  0  0
  194.1180  182.7820  157.7455 H   0  0  0  0  0  0  0  0  0  0  0  0
  194.0119  182.3821  159.4378 H   0  0  0  0  0  0  0  0  0  0  0  0
  194.6628  181.2093  158.3340 H   0  0  0  0  0  0  0  0  0  0  0  0
  1  2  2  0
  2  3  1  0
  2 25  1  0
  3  4  1  0
  3 34  1  0
  4  5  2  0
  4 20  1  0
  5  6  1  0
  5 17  1  0
  6  7  1  0
  6 35  1  0
  7  8  1  0
  7 16  2  0
  8  9  2  0
  8 36  1  0
  9 10  1  0
  9 37  1  0
 10 11  1  0
 10 15  2  0
 11 12  1  0
 11 38  1  0
 12 13  1  0
 12 39  1  6
 12 40  1  0
 13 14  1  0
 13 41  1  1
 13 42  1  0
 14 43  1  0
 15 16  1  0
 15 44  1  0
 16 45  1  0
 17 18  2  0
 17 46  1  0
 18 19  1  0
 19 20  1  0
 19 24  2  0
 20 21  2  0
 21 22  1  0
 21 47  1  0
 22 23  2  0
 22 48  1  0
 23 24  1  0
 23 49  1  0
 24 50  1  0
 25 26  1  0
 25 51  1  1
 25 52  1  0
 26 27  1  0
 26 33  1  0
 27 28  2  0
 27 32  1  0
 28 29  1  0
 28 53  1  0
 29 30  2  0
 29 54  1  0
 30 31  1  0
 30 55  1  0
 31 32  2  0
 31 56  1  0
 32 57  1  0
 33 58  1  6
 33 59  1  0
 33 60  1  0
M  END
>  <s_epik_cmdline>  (96) 
J2VwaWtfcHl0aG9uJywgJy1waCcsICc3LjAwMDAwMCcsICctcGh0JywgJzIuMDAwMDAwJywgJy1tcycsICcxNicsICctdG4nLCAnOCcsICctbWEnLCAnMjAwJywgJy1pbWFlJywgJzxpbmZpbGUubWFlPicsICctb21hZScsICc8b3V0ZmlsZS5tYWU+Jw==

>  <s_epik_input>  (96) 
W2NIXTFbY0hdW2NIXVtjSF1bY0hdYzFOKFtDSDNdKVtDSDJdQyg9TylbTkhdYyhjKGMyMylbY0hdW2NIXVtjSF1bY0hdMyljKFtjSF1uMilbTkhdYzRbY0hdW2NIXWMoW2NIXVtjSF00KVtOSF1bQ0gyXVtDSDJdW09IXQ==

>  <s_i_glide_gridfile>  (96) 
ATP-Grid

>  <s_lp_Force_Field>  (96) 
OPLS_2005

>  <s_lp_Variant>  (96) 
rxn502b____EMOL31412043____EMOL13728749____EMOL8314610-1

>  <s_lp_label>  (96) 
2566_sdstereoexpander_1_neutralizer_1_epik_1_stereoizer_1

>  <s_m_source_file>  (96) 
ATP-VSW-LIGPREP-002-in.maegz

>  <s_sd_BIOSOLVEIT.INFINISEE\_QUERY\_NAME>  (96) 
Ref-Lig

>  <s_sd_BIOSOLVEIT.INFINISEE\_QUERY\_SMILES>  (96) 
S(c1nc2c(cc1C[NH2+]Cc3ccc(cc3)C[NH+](C)C)cccc2)Cc4ccccc4

>  <s_sd_BIOSOLVEIT.INFINISEE\_REACTION\_NAME>  (96) 
rxn502b

>  <s_sd_BIOSOLVEIT.INFINISEE\_REAGENT1\_NAME>  (96) 
EMOL31412043

>  <s_sd_BIOSOLVEIT.INFINISEE\_REAGENT1\_SMILES>  (96) 
O=C(O)CN(c1ccccc1)C

>  <s_sd_BIOSOLVEIT.INFINISEE\_REAGENT2\_NAME>  (96) 
EMOL13728749

>  <s_sd_BIOSOLVEIT.INFINISEE\_REAGENT2\_SMILES>  (96) 
Brc1c(N)c2c(nc1)cccc2

>  <s_sd_BIOSOLVEIT.INFINISEE\_REAGENT3\_NAME>  (96) 
EMOL8314610

>  <s_sd_BIOSOLVEIT.INFINISEE\_REAGENT3\_SMILES>  (96) 
OCCNc1ccc(N)cc1

>  <s_sd_BIOSOLVEIT.INFINISEE\_SPACE>  (96) 
eXplore_7tr_2022-12

>  <s_vsw_compound_code>  (96) 
82082

>  <s_vsw_variant>  (96) 
82082-1

>  <r_epik_Charging_Adjusted_Penalty>  (96) 
0.036868674253061402

>  <r_epik_Ionization_Penalty>  (96) 
0.037699999999999997

>  <r_epik_Ionization_Penalty_Charging>  (96) 
0

>  <r_epik_Ionization_Penalty_Neutral>  (96) 
0.037699999999999997

>  <r_epik_State_Penalty>  (96) 
0.036900000000000002

>  <r_i_docking_score>  (96) 
-5.1423836208127396

>  <r_i_glide_ecoul>  (96) 
-9.2994489669799805

>  <r_i_glide_eff_state_penalty>  (96) 
0.036900000000000002

>  <r_i_glide_einternal>  (96) 
6.4916844367981001

>  <r_i_glide_emodel>  (96) 
-63.058152889374703

>  <r_i_glide_energy>  (96) 
-48.032126426696799

>  <r_i_glide_erotb>  (96) 
0.92222097978222195

>  <r_i_glide_esite>  (96) 
-0.22323434508558901

>  <r_i_glide_evdw>  (96) 
-38.732677459716797

>  <r_i_glide_gscore>  (96) 
-5.1792836208127397

>  <r_i_glide_hbond>  (96) 
-0.34009529977894798

>  <r_i_glide_ligand_efficiency>  (96) 
-0.15582980669129501

>  <r_i_glide_ligand_efficiency_ln>  (96) 
-1.1436394914313499

>  <r_i_glide_ligand_efficiency_sa>  (96) 
-0.49982945401639001

>  <r_i_glide_lipo>  (96) 
-1.80792973769759

>  <r_i_glide_metal>  (96) 
-0

>  <r_i_glide_rewards>  (96) 
-0.39869399999999899

>  <r_lp_Energy>  (96) 
38.72296

>  <r_qp_ACxDN^.5/SA>  (96) 
0.021457299999999999

>  <r_qp_CIQPlogS>  (96) 
-6.2279999999999998

>  <r_qp_EA(eV)>  (96) 
0.86799999999999999

>  <r_qp_FISA>  (96) 
121.706

>  <r_qp_FOSA>  (96) 
192.17400000000001

>  <r_qp_IP(eV)>  (96) 
7.5090000000000003

>  <r_qp_Jm>  (96) 
0.370370975170012

>  <r_qp_PISA>  (96) 
403.82400000000001

>  <r_qp_PSA>  (96) 
91.518000000000001

>  <r_qp_PercentHumanOralAbsorption>  (96) 
100

>  <r_qp_QPPCaco>  (96) 
694.649

>  <r_qp_QPPMDCK>  (96) 
333.67000000000002

>  <r_qp_QPlogBB>  (96) 
-1.226

>  <r_qp_QPlogHERG>  (96) 
-6.2569999999999997

>  <r_qp_QPlogKhsa>  (96) 
0.27200000000000002

>  <r_qp_QPlogKp>  (96) 
-1.3799999999999999

>  <r_qp_QPlogPC16>  (96) 
15.435

>  <r_qp_QPlogPo/w>  (96) 
3.798

>  <r_qp_QPlogPoct>  (96) 
25.858000000000001

>  <r_qp_QPlogPw>  (96) 
16.257999999999999

>  <r_qp_QPlogS>  (96) 
-4.6959999999999997

>  <r_qp_QPpolrz>  (96) 
45.692999999999998

>  <r_qp_SASA>  (96) 
717.70399999999995

>  <r_qp_SAamideO>  (96) 
0

>  <r_qp_SAfluorine>  (96) 
0

>  <r_qp_WPSA>  (96) 
0

>  <r_qp_accptHB>  (96) 
7.7000000000000002

>  <r_qp_dip^2/V>  (96) 
0.044115500000000002

>  <r_qp_dipole>  (96) 
7.7450000000000001

>  <r_qp_donorHB>  (96) 
4

>  <r_qp_glob>  (96) 
0.82698199999999999

>  <r_qp_mol_MW>  (96) 
441.53199999999998

>  <r_qp_volume>  (96) 
1359.6099999999999

>  <r_sd_BIOSOLVEIT.INFINISEE\_FTREES\_SIMILARITY>  (96) 
0.91200000000000003

>  <r_sd_BIOSOLVEIT.LOGP>  (96) 
4.4574999999999996

>  <r_sd_BIOSOLVEIT.MOLECULAR\_WEIGHT>  (96) 
441.53199999999998

>  <r_sd_BIOSOLVEIT.TPSA>  (96) 
89.519999999999996

>  <i_epik_Tot_Q>  (96) 
0

>  <i_epik_Tot_abs_Q>  (96) 
0

>  <i_f3d_flags>  (96) 
0

>  <i_i_glide_confnum>  (96) 
7

>  <i_i_glide_lignum>  (96) 
1140

>  <i_i_glide_posenum>  (96) 
5

>  <i_i_glide_rotatable_bonds>  (96) 
11

>  <i_lp_mmshare_version>  (96) 
65135

>  <i_m_ct_format>  (96) 
2

>  <i_m_source_file_index>  (96) 
2566

>  <i_qp_#NandO>  (96) 
7

>  <i_qp_#acid>  (96) 
0

>  <i_qp_#amide>  (96) 
0

>  <i_qp_#amidine>  (96) 
0

>  <i_qp_#amine>  (96) 
0

>  <i_qp_#in34>  (96) 
0

>  <i_qp_#in56>  (96) 
22

>  <i_qp_#metab>  (96) 
9

>  <i_qp_#nonHatm>  (96) 
33

>  <i_qp_#noncon>  (96) 
0

>  <i_qp_#ringatoms>  (96) 
22

>  <i_qp_#rotor>  (96) 
10

>  <i_qp_#rtvFG>  (96) 
0

>  <i_qp_#stars>  (96) 
2

>  <i_qp_CNS>  (96) 
-2

>  <i_qp_HumanOralAbsorption>  (96) 
3

>  <i_qp_RuleOfFive>  (96) 
0

>  <i_qp_RuleOfThree>  (96) 
1

>  <i_sd_BIOSOLVEIT.INFINISEE\_RESULT\_RANK>  (96) 
37484

>  <i_sd_version>  (96) 
0

>  <b_lp_Chiralities_Consistent>  (96) 
1

>  <b_sd_chiral_flag>  (96) 
0

>  <canonical_id>  (96) 
ATP-HTVS-0F900EB338B9

>  <compound_code>  (96) 
82082

>  <title>  (96) 
rxn502b____EMOL31412043____EMOL13728749____EMOL8314610

>  <variant>  (96) 
82082-1

>  <source_file>  (96) 
运行/运行/ATP-VSW/ATP-VSW-DOCK_HTVS_1-002_lib.maegz

>  <canonical_smiles>  (96) 
CN(CC(=O)Nc1c(Nc2ccc(NCCO)cc2)cnc2ccccc12)c1ccccc1

>  <scaffold>  (96) 
O=C(CNc1ccccc1)Nc1c(Nc2ccccc2)cnc2ccccc12

>  <molecular_formula>  (96) 
C26H27N5O2

$$$$
ATP-HTVS-0FD0361A2408
     RDKit          3D

 55 57  0  0  0  0  0  0  0  0999 V2000
  200.2170  188.7796  153.7143 F   0  0  0  0  0  0  0  0  0  0  0  0
  199.6163  188.1037  154.7209 C   0  0  0  0  0  0  0  0  0  0  0  0
  198.7458  188.7507  155.6160 C   0  0  0  0  0  0  0  0  0  0  0  0
  198.1169  188.1154  156.6185 N   0  0  0  0  0  0  0  0  0  0  0  0
  198.3371  186.7971  156.8234 C   0  0  0  0  0  0  0  0  0  0  0  0
  197.7431  186.0851  157.8999 N   0  0  0  0  0  0  0  0  0  0  0  0
  196.7430  186.4745  158.7217 C   0  0  0  0  0  0  0  0  0  0  0  0
  196.0967  187.5077  158.5919 O   0  0  0  0  0  0  0  0  0  0  0  0
  196.4153  185.5032  159.8661 C   0  0  1  0  0  0  0  0  0  0  0  0
  197.5417  185.2355  160.5282 F   0  0  0  0  0  0  0  0  0  0  0  0
  195.5653  186.0837  160.7176 F   0  0  0  0  0  0  0  0  0  0  0  0
  195.8097  184.2223  159.3274 C   0  0  0  0  0  0  0  0  0  0  0  0
  196.6149  183.0859  159.0895 C   0  0  0  0  0  0  0  0  0  0  0  0
  196.0320  181.9028  158.6286 C   0  0  0  0  0  0  0  0  0  0  0  0
  194.6612  181.8431  158.3277 C   0  0  0  0  0  0  0  0  0  0  0  0
  193.8491  182.9679  158.5195 C   0  0  0  0  0  0  0  0  0  0  0  0
  194.4236  184.1499  159.0628 C   0  0  0  0  0  0  0  0  0  0  0  0
  199.2325  186.0572  155.9868 C   0  0  0  0  0  0  0  0  0  0  0  0
  199.5036  184.7006  156.2408 N   0  0  0  0  0  0  0  0  0  0  0  0
  200.7605  184.1300  155.7500 C   0  0  1  0  0  0  0  0  0  0  0  0
  200.9614  182.6626  156.1090 C   0  0  0  0  0  0  0  0  0  0  0  0
  199.8682  181.8470  156.3994 C   0  0  0  0  0  0  0  0  0  0  0  0
  200.0312  180.4577  156.5815 C   0  0  0  0  0  0  0  0  0  0  0  0
  201.3460  179.9034  156.6204 C   0  0  0  0  0  0  0  0  0  0  0  0
  202.4608  180.7471  156.4121 C   0  0  0  0  0  0  0  0  0  0  0  0
  202.2874  182.1205  156.1235 C   0  0  0  0  0  0  0  0  0  0  0  0
  198.8106  179.5645  156.7838 C   0  0  1  0  0  0  0  0  0  0  0  0
  197.8127  179.5667  155.6640 N   0  0  1  0  0  0  0  0  0  0  0  0
  197.1273  180.8713  155.3786 C   0  0  2  0  0  0  0  0  0  0  0  0
  198.3766  179.0307  154.4159 C   0  0  2  0  0  0  0  0  0  0  0  0
  199.8503  186.7398  154.9118 C   0  0  0  0  0  0  0  0  0  0  0  0
  198.5518  189.8051  155.5134 H   0  0  0  0  0  0  0  0  0  0  0  0
  198.1137  185.1716  158.0810 H   0  0  0  0  0  0  0  0  0  0  0  0
  197.6829  183.1101  159.2694 H   0  0  0  0  0  0  0  0  0  0  0  0
  196.6478  181.0358  158.4744 H   0  0  0  0  0  0  0  0  0  0  0  0
  194.2332  180.9446  157.9018 H   0  0  0  0  0  0  0  0  0  0  0  0
  192.8000  182.9236  158.3144 H   0  0  0  0  0  0  0  0  0  0  0  0
  193.7961  185.0004  159.2500 H   0  0  0  0  0  0  0  0  0  0  0  0
  199.1426  184.2854  157.0833 H   0  0  0  0  0  0  0  0  0  0  0  0
  200.7939  184.2051  154.6603 H   0  0  0  0  0  0  0  0  0  0  0  0
  201.5677  184.7125  156.1759 H   0  0  0  0  0  0  0  0  0  0  0  0
  198.8797  182.2711  156.4346 H   0  0  0  0  0  0  0  0  0  0  0  0
  201.4972  178.8575  156.8494 H   0  0  0  0  0  0  0  0  0  0  0  0
  203.4600  180.3383  156.4927 H   0  0  0  0  0  0  0  0  0  0  0  0
  203.1359  182.7634  155.9557 H   0  0  0  0  0  0  0  0  0  0  0  0
  199.1303  178.5406  156.9300 H   0  0  0  0  0  0  0  0  0  0  0  0
  198.3503  179.8808  157.7215 H   0  0  0  0  0  0  0  0  0  0  0  0
  197.7932  181.6045  154.9962 H   0  0  0  0  0  0  0  0  0  0  0  0
  196.6825  181.2463  156.3041 H   0  0  0  0  0  0  0  0  0  0  0  0
  196.2845  180.7395  154.6764 H   0  0  0  0  0  0  0  0  0  0  0  0
  199.1955  179.6644  154.0603 H   0  0  0  0  0  0  0  0  0  0  0  0
  197.6118  179.0167  153.6370 H   0  0  0  0  0  0  0  0  0  0  0  0
  198.7569  178.0152  154.5515 H   0  0  0  0  0  0  0  0  0  0  0  0
  200.5251  186.2476  154.2258 H   0  0  0  0  0  0  0  0  0  0  0  0
  197.0994  178.9211  156.0019 H   0  0  0  0  0  0  0  0  0  0  0  0
  1  2  1  0
  2  3  1  0
  2 31  2  0
  3  4  2  0
  3 32  1  0
  4  5  1  0
  5  6  1  0
  5 18  2  0
  6  7  1  0
  6 33  1  0
  7  8  2  0
  7  9  1  0
  9 10  1  1
  9 11  1  0
  9 12  1  0
 12 13  2  0
 12 17  1  0
 13 14  1  0
 13 34  1  0
 14 15  2  0
 14 35  1  0
 15 16  1  0
 15 36  1  0
 16 17  2  0
 16 37  1  0
 17 38  1  0
 18 19  1  0
 18 31  1  0
 19 20  1  0
 19 39  1  0
 20 21  1  0
 20 40  1  6
 20 41  1  0
 21 22  2  0
 21 26  1  0
 22 23  1  0
 22 42  1  0
 23 24  2  0
 23 27  1  0
 24 25  1  0
 24 43  1  0
 25 26  2  0
 25 44  1  0
 26 45  1  0
 27 28  1  0
 27 46  1  1
 27 47  1  0
 28 29  1  0
 28 30  1  0
 28 55  1  1
 29 48  1  6
 29 49  1  0
 29 50  1  0
 30 51  1  6
 30 52  1  0
 30 53  1  0
 31 54  1  0
M  CHG  1  28   1
M  END
>  <s_epik_cmdline>  (97) 
J2VwaWtfcHl0aG9uJywgJy1waCcsICc3LjAwMDAwMCcsICctcGh0JywgJzIuMDAwMDAwJywgJy1tcycsICcxNicsICctdG4nLCAnOCcsICctbWEnLCAnMjAwJywgJy1pbWFlJywgJzxpbmZpbGUubWFlPicsICctb21hZScsICc8b3V0ZmlsZS5tYWU+Jw==

>  <s_epik_input>  (97) 
W2NIXTFbY0hdW2NIXWMoW0NIMl1OKFtDSDNdKVtDSDNdKVtjSF1jMVtDSDJdW05IXWMoW2NIXTIpYyhuW2NIXWMyRilbTkhdQyg9TylDKEYpKEYpYzNbY0hdW2NIXVtjSF1bY0hdW2NIXTM=

>  <s_i_glide_gridfile>  (97) 
ATP-Grid

>  <s_lp_Force_Field>  (97) 
OPLS_2005

>  <s_lp_Variant>  (97) 
rxn502a____EMOL45480251____EMOL729060____EMOL2873214-1

>  <s_lp_label>  (97) 
2929_sdstereoexpander_1_neutralizer_1_epik_1_stereoizer_1

>  <s_m_source_file>  (97) 
ATP-VSW-LIGPREP-002-in.maegz

>  <s_sd_BIOSOLVEIT.INFINISEE\_QUERY\_NAME>  (97) 
Ref-Lig

>  <s_sd_BIOSOLVEIT.INFINISEE\_QUERY\_SMILES>  (97) 
S(c1nc2c(cc1C[NH2+]Cc3ccc(cc3)C[NH+](C)C)cccc2)Cc4ccccc4

>  <s_sd_BIOSOLVEIT.INFINISEE\_REACTION\_NAME>  (97) 
rxn502a

>  <s_sd_BIOSOLVEIT.INFINISEE\_REAGENT1\_NAME>  (97) 
EMOL45480251

>  <s_sd_BIOSOLVEIT.INFINISEE\_REAGENT1\_SMILES>  (97) 
FC(F)(c1ccccc1)C(=O)O

>  <s_sd_BIOSOLVEIT.INFINISEE\_REAGENT2\_NAME>  (97) 
EMOL729060

>  <s_sd_BIOSOLVEIT.INFINISEE\_REAGENT2\_SMILES>  (97) 
Ic1c(ncc(F)c1)N

>  <s_sd_BIOSOLVEIT.INFINISEE\_REAGENT3\_NAME>  (97) 
EMOL2873214

>  <s_sd_BIOSOLVEIT.INFINISEE\_REAGENT3\_SMILES>  (97) 
N(Cc1cc(ccc1)CN)(C)C

>  <s_sd_BIOSOLVEIT.INFINISEE\_SPACE>  (97) 
eXplore_7tr_2022-12

>  <s_vsw_compound_code>  (97) 
93698

>  <s_vsw_variant>  (97) 
93698-1

>  <r_epik_Charging_Adjusted_Penalty>  (97) 
0.088195370499548398

>  <r_epik_Ionization_Penalty>  (97) 
0.044200000000000003

>  <r_epik_Ionization_Penalty_Charging>  (97) 
0.0441

>  <r_epik_Ionization_Penalty_Neutral>  (97) 
0.0001

>  <r_epik_State_Penalty>  (97) 
0.0441

>  <r_i_docking_score>  (97) 
-4.3474183196936798

>  <r_i_glide_ecoul>  (97) 
-8.8908023834228498

>  <r_i_glide_eff_state_penalty>  (97) 
0.0441

>  <r_i_glide_einternal>  (97) 
2.8374497890472399

>  <r_i_glide_emodel>  (97) 
-50.296013923923198

>  <r_i_glide_energy>  (97) 
-36.9060382843018

>  <r_i_glide_erotb>  (97) 
0.75424386438402302

>  <r_i_glide_esite>  (97) 
-0.10000000000000001

>  <r_i_glide_evdw>  (97) 
-28.015235900878899

>  <r_i_glide_gscore>  (97) 
-4.39151831969368

>  <r_i_glide_hbond>  (97) 
-0.051761042327551202

>  <r_i_glide_ligand_efficiency>  (97) 
-0.14023930063528001

>  <r_i_glide_ligand_efficiency_ln>  (97) 
-0.98047606346182004

>  <r_i_glide_ligand_efficiency_sa>  (97) 
-0.44054502521629302

>  <r_i_glide_lipo>  (97) 
-0.81649279604151304

>  <r_i_glide_metal>  (97) 
-0

>  <r_i_glide_rewards>  (97) 
-1.44312619315126

>  <r_lp_Energy>  (97) 
22.054711000000001

>  <r_lp_tautomer_probability>  (97) 
0.999999999999999

>  <r_qp_ACxDN^.5/SA>  (97) 
0.013673299999999999

>  <r_qp_CIQPlogS>  (97) 
-5.3019999999999996

>  <r_qp_EA(eV)>  (97) 
0.66300000000000003

>  <r_qp_FISA>  (97) 
43.127000000000002

>  <r_qp_FOSA>  (97) 
168.39400000000001

>  <r_qp_IP(eV)>  (97) 
8.8490000000000002

>  <r_qp_Jm>  (97) 
0.20287890062001501

>  <r_qp_PISA>  (97) 
366.41800000000001

>  <r_qp_PSA>  (97) 
57.539999999999999

>  <r_qp_PercentHumanOralAbsorption>  (97) 
100

>  <r_qp_QPPCaco>  (97) 
963.447

>  <r_qp_QPPMDCK>  (97) 
1728.183

>  <r_qp_QPlogBB>  (97) 
0.309

>  <r_qp_QPlogHERG>  (97) 
-6.5170000000000003

>  <r_qp_QPlogKhsa>  (97) 
0.45700000000000002

>  <r_qp_QPlogKp>  (97) 
-2.3180000000000001

>  <r_qp_QPlogPC16>  (97) 
12.754

>  <r_qp_QPlogPo/w>  (97) 
4.4020000000000001

>  <r_qp_QPlogPoct>  (97) 
21.558

>  <r_qp_QPlogPw>  (97) 
11.723000000000001

>  <r_qp_QPlogS>  (97) 
-4.0069999999999997

>  <r_qp_QPpolrz>  (97) 
43.137999999999998

>  <r_qp_SASA>  (97) 
672.28800000000001

>  <r_qp_SAamideO>  (97) 
0

>  <r_qp_SAfluorine>  (97) 
94.347999999999999

>  <r_qp_WPSA>  (97) 
94.347999999999999

>  <r_qp_accptHB>  (97) 
6.5

>  <r_qp_dip^2/V>  (97) 
0.0461173

>  <r_qp_dipole>  (97) 
7.6609999999999996

>  <r_qp_donorHB>  (97) 
2

>  <r_qp_glob>  (97) 
0.84477420000000003

>  <r_qp_mol_MW>  (97) 
428.45600000000002

>  <r_qp_volume>  (97) 
1272.6130000000001

>  <r_sd_BIOSOLVEIT.INFINISEE\_FTREES\_SIMILARITY>  (97) 
0.90400000000000003

>  <r_sd_BIOSOLVEIT.LOGP>  (97) 
3.2078000000000002

>  <r_sd_BIOSOLVEIT.MOLECULAR\_WEIGHT>  (97) 
429.464

>  <r_sd_BIOSOLVEIT.TPSA>  (97) 
58.460000000000001

>  <i_epik_Tot_Q>  (97) 
1

>  <i_epik_Tot_abs_Q>  (97) 
1

>  <i_f3d_flags>  (97) 
0

>  <i_i_glide_confnum>  (97) 
3

>  <i_i_glide_lignum>  (97) 
1460

>  <i_i_glide_posenum>  (97) 
13

>  <i_i_glide_rotatable_bonds>  (97) 
9

>  <i_lp_mmshare_version>  (97) 
65135

>  <i_m_ct_format>  (97) 
2

>  <i_m_source_file_index>  (97) 
2929

>  <i_qp_#NandO>  (97) 
5

>  <i_qp_#acid>  (97) 
0

>  <i_qp_#amide>  (97) 
0

>  <i_qp_#amidine>  (97) 
0

>  <i_qp_#amine>  (97) 
1

>  <i_qp_#in34>  (97) 
0

>  <i_qp_#in56>  (97) 
18

>  <i_qp_#metab>  (97) 
8

>  <i_qp_#nonHatm>  (97) 
31

>  <i_qp_#noncon>  (97) 
0

>  <i_qp_#ringatoms>  (97) 
18

>  <i_qp_#rotor>  (97) 
8

>  <i_qp_#rtvFG>  (97) 
2

>  <i_qp_#stars>  (97) 
0

>  <i_qp_CNS>  (97) 
1

>  <i_qp_HumanOralAbsorption>  (97) 
3

>  <i_qp_RuleOfFive>  (97) 
0

>  <i_qp_RuleOfThree>  (97) 
1

>  <i_sd_BIOSOLVEIT.INFINISEE\_RESULT\_RANK>  (97) 
77971

>  <i_sd_version>  (97) 
0

>  <b_lp_Chiralities_Consistent>  (97) 
1

>  <b_sd_chiral_flag>  (97) 
0

>  <canonical_id>  (97) 
ATP-HTVS-0FD0361A2408

>  <compound_code>  (97) 
93698

>  <title>  (97) 
rxn502a____EMOL45480251____EMOL729060____EMOL2873214

>  <variant>  (97) 
93698-1

>  <source_file>  (97) 
运行/运行/ATP-VSW/ATP-VSW-DOCK_HTVS_1-002_lib.maegz

>  <canonical_smiles>  (97) 
C[NH+](C)Cc1cccc(CNc2cc(F)cnc2NC(=O)C(F)(F)c2ccccc2)c1

>  <scaffold>  (97) 
O=C(Cc1ccccc1)Nc1ncccc1NCc1ccccc1

>  <molecular_formula>  (97) 
C23H24F3N4O+

$$$$
ATP-HTVS-0FDC7A3FF1CA
     RDKit          3D

 63 65  0  0  0  0  0  0  0  0999 V2000
  194.7466  186.6270  161.3469 Cl  0  0  0  0  0  0  0  0  0  0  0  0
  195.5522  186.0252  159.9456 C   0  0  0  0  0  0  0  0  0  0  0  0
  196.1141  186.9217  159.0170 C   0  0  0  0  0  0  0  0  0  0  0  0
  196.7737  186.4315  157.8745 C   0  0  0  0  0  0  0  0  0  0  0  0
  196.8824  185.0414  157.6549 C   0  0  0  0  0  0  0  0  0  0  0  0
  196.3081  184.1512  158.5875 C   0  0  0  0  0  0  0  0  0  0  0  0
  195.6475  184.6381  159.7284 C   0  0  0  0  0  0  0  0  0  0  0  0
  197.5837  184.5360  156.4838 C   0  0  0  0  0  0  0  0  0  0  0  0
  198.5993  185.2404  155.9811 N   0  0  0  0  0  0  0  0  0  0  0  0
  199.0546  184.5691  154.9546 N   0  0  0  0  0  0  0  0  0  0  0  0
  198.3290  183.5010  154.8831 C   0  0  0  0  0  0  0  0  0  0  0  0
  197.3612  183.3353  155.7885 C   0  0  0  0  0  0  0  0  0  0  0  0
  196.3494  182.2414  156.0145 C   0  0  1  0  0  0  0  0  0  0  0  0
  197.0203  181.0401  156.5456 N   0  0  1  0  0  0  0  0  0  0  0  0
  197.1459  179.9336  155.5797 C   0  0  1  0  0  0  0  0  0  0  0  0
  198.2681  180.1198  154.5895 C   0  0  0  0  0  0  0  0  0  0  0  0
  199.3614  179.2376  154.4166 C   0  0  0  0  0  0  0  0  0  0  0  0
  200.4338  179.6122  153.5413 C   0  0  0  0  0  0  0  0  0  0  0  0
  200.3965  180.7856  152.7710 C   0  0  0  0  0  0  0  0  0  0  0  0
  199.2305  181.5369  152.7919 C   0  0  0  0  0  0  0  0  0  0  0  0
  198.1349  181.1206  153.6264 C   0  0  0  0  0  0  0  0  0  0  0  0
  199.5621  178.0819  155.3601 C   0  0  1  0  0  0  0  0  0  0  0  0
  199.9474  178.4112  156.7646 N   0  0  2  0  0  0  0  0  0  0  0  0
  201.0150  179.4392  156.8839 C   0  0  1  0  0  0  0  0  0  0  0  0
  200.6198  180.8288  156.3764 C   0  0  2  0  0  0  0  0  0  0  0  0
  200.1882  177.1787  157.5751 C   0  0  1  0  0  0  0  0  0  0  0  0
  201.2509  176.2334  156.9832 C   0  0  2  0  0  0  0  0  0  0  0  0
  200.1610  184.9953  154.1370 C   0  0  1  0  0  0  0  0  0  0  0  0
  199.8731  186.3660  153.5188 C   0  0  1  0  0  0  0  0  0  0  0  0
  199.0183  186.2804  152.3259 C   0  0  0  0  0  0  0  0  0  0  0  0
  198.3479  186.2104  151.3857 N   0  0  0  0  0  0  0  0  0  0  0  0
  197.9328  181.2932  156.8846 H   0  0  0  0  0  0  0  0  0  0  0  0
  196.0415  187.9870  159.1800 H   0  0  0  0  0  0  0  0  0  0  0  0
  197.2050  187.1284  157.1699 H   0  0  0  0  0  0  0  0  0  0  0  0
  196.3702  183.0859  158.4407 H   0  0  0  0  0  0  0  0  0  0  0  0
  195.2135  183.9471  160.4352 H   0  0  0  0  0  0  0  0  0  0  0  0
  198.6660  183.0869  154.0852 H   0  0  0  0  0  0  0  0  0  0  0  0
  195.5865  182.5709  156.7143 H   0  0  0  0  0  0  0  0  0  0  0  0
  195.8058  181.9766  155.1122 H   0  0  0  0  0  0  0  0  0  0  0  0
  197.3301  179.0131  156.1062 H   0  0  0  0  0  0  0  0  0  0  0  0
  196.2169  179.7998  155.0275 H   0  0  0  0  0  0  0  0  0  0  0  0
  201.3238  179.0165  153.5005 H   0  0  0  0  0  0  0  0  0  0  0  0
  201.1732  181.0458  152.0820 H   0  0  0  0  0  0  0  0  0  0  0  0
  199.1942  182.5138  152.2590 H   0  0  0  0  0  0  0  0  0  0  0  0
  197.3046  181.8382  153.7661 H   0  0  0  0  0  0  0  0  0  0  0  0
  198.6228  177.5526  155.3342 H   0  0  0  0  0  0  0  0  0  0  0  0
  200.3014  177.4386  154.9123 H   0  0  0  0  0  0  0  0  0  0  0  0
  201.3235  179.5551  157.9221 H   0  0  0  0  0  0  0  0  0  0  0  0
  201.8892  179.1102  156.3336 H   0  0  0  0  0  0  0  0  0  0  0  0
  201.4476  181.4949  156.2967 H   0  0  0  0  0  0  0  0  0  0  0  0
  199.8047  181.2823  156.9024 H   0  0  0  0  0  0  0  0  0  0  0  0
  200.3318  180.8914  155.3904 H   0  0  0  0  0  0  0  0  0  0  0  0
  200.4652  177.4472  158.5937 H   0  0  0  0  0  0  0  0  0  0  0  0
  199.2464  176.6392  157.6712 H   0  0  0  0  0  0  0  0  0  0  0  0
  201.3451  175.3356  157.5904 H   0  0  0  0  0  0  0  0  0  0  0  0
  202.2328  176.7007  156.9444 H   0  0  0  0  0  0  0  0  0  0  0  0
  200.9948  175.9022  155.9782 H   0  0  0  0  0  0  0  0  0  0  0  0
  201.0372  185.0392  154.7820 H   0  0  0  0  0  0  0  0  0  0  0  0
  200.3779  184.2645  153.3551 H   0  0  0  0  0  0  0  0  0  0  0  0
  199.3767  187.0160  154.2396 H   0  0  0  0  0  0  0  0  0  0  0  0
  200.8018  186.8565  153.2270 H   0  0  0  0  0  0  0  0  0  0  0  0
  199.1194  178.8175  157.1834 H   0  0  0  0  0  0  0  0  0  0  0  0
  196.4700  180.6873  157.3282 H   0  0  0  0  0  0  0  0  0  0  0  0
  1  2  1  0
  2  3  1  0
  2  7  2  0
  3  4  2  0
  3 33  1  0
  4  5  1  0
  4 34  1  0
  5  6  2  0
  5  8  1  0
  6  7  1  0
  6 35  1  0
  7 36  1  0
  8  9  2  0
  8 12  1  0
  9 10  1  0
 10 11  1  0
 10 28  1  0
 11 12  2  0
 11 37  1  0
 12 13  1  0
 13 14  1  0
 13 38  1  1
 13 39  1  0
 14 15  1  0
 14 32  1  1
 14 63  1  0
 15 16  1  0
 15 40  1  1
 15 41  1  0
 16 17  1  0
 16 21  2  0
 17 18  2  0
 17 22  1  0
 18 19  1  0
 18 42  1  0
 19 20  2  0
 19 43  1  0
 20 21  1  0
 20 44  1  0
 21 45  1  0
 22 23  1  0
 22 46  1  1
 22 47  1  0
 23 24  1  0
 23 26  1  0
 23 62  1  1
 24 25  1  0
 24 48  1  1
 24 49  1  0
 25 50  1  6
 25 51  1  0
 25 52  1  0
 26 27  1  0
 26 53  1  1
 26 54  1  0
 27 55  1  1
 27 56  1  0
 27 57  1  0
 28 29  1  0
 28 58  1  1
 28 59  1  0
 29 30  1  0
 29 60  1  1
 29 61  1  0
 30 31  3  0
M  CHG  2  14   1  23   1
M  END
>  <s_epik_cmdline>  (98) 
J2VwaWtfcHl0aG9uJywgJy1waCcsICc3LjAwMDAwMCcsICctcGh0JywgJzIuMDAwMDAwJywgJy1tcycsICcxNicsICctdG4nLCAnOCcsICctbWEnLCAnMjAwJywgJy1pbWFlJywgJzxpbmZpbGUubWFlPicsICctb21hZScsICc8b3V0ZmlsZS5tYWU+Jw==

>  <s_epik_input>  (98) 
Q2xjMVtjSF1bY0hdYyhbY0hdW2NIXTEpLWMybm4oW0NIMl1bQ0gyXUMjTilbY0hdYzJbQ0gyXVtOSF1bQ0gyXWMzYyhbY0hdW2NIXVtjSF1bY0hdMylbQ0gyXU4oW0NIMl1bQ0gzXSlbQ0gyXVtDSDNd

>  <s_i_glide_gridfile>  (98) 
ATP-Grid

>  <s_lp_Force_Field>  (98) 
OPLS_2005

>  <s_lp_Variant>  (98) 
m_270004bbb____8289034____24714838-1

>  <s_lp_label>  (98) 
1473_sdstereoexpander_1_neutralizer_1_epik_1_stereoizer_1

>  <s_m_source_file>  (98) 
ATP-VSW-LIGPREP-003-in.maegz

>  <s_sd_BIOSOLVEIT.INFINISEE\_QUERY\_NAME>  (98) 
Ref-Lig

>  <s_sd_BIOSOLVEIT.INFINISEE\_QUERY\_SMILES>  (98) 
S(c1nc2c(cc1C[NH2+]Cc3ccc(cc3)C[NH+](C)C)cccc2)Cc4ccccc4

>  <s_sd_BIOSOLVEIT.INFINISEE\_REACTION\_NAME>  (98) 
m_270004bbb

>  <s_sd_BIOSOLVEIT.INFINISEE\_REAGENT1\_SMILES>  (98) 
[R1*]NCc1c(cccc1)CN(CC)CC

>  <s_sd_BIOSOLVEIT.INFINISEE\_REAGENT2\_SMILES>  (98) 
[R1*]CC=1C(=NN(C1)CCC#N)c2ccc(Cl)cc2

>  <s_sd_BIOSOLVEIT.INFINISEE\_SPACE>  (98) 
REALSpace_44bn_2023-08

>  <s_vsw_compound_code>  (98) 
47107

>  <s_vsw_variant>  (98) 
47107-1

>  <r_epik_Charging_Adjusted_Penalty>  (98) 
0.29564749702097198

>  <r_epik_Ionization_Penalty>  (98) 
0.14810000000000001

>  <r_epik_Ionization_Penalty_Charging>  (98) 
0.14810000000000001

>  <r_epik_Ionization_Penalty_Neutral>  (98) 
0

>  <r_epik_State_Penalty>  (98) 
0.14749999999999999

>  <r_i_docking_score>  (98) 
-5.8801371476549704

>  <r_i_glide_ecoul>  (98) 
-16.253599166870099

>  <r_i_glide_eff_state_penalty>  (98) 
0.14749999999999999

>  <r_i_glide_einternal>  (98) 
7.8509974479675302

>  <r_i_glide_emodel>  (98) 
-74.635430827694293

>  <r_i_glide_energy>  (98) 
-47.626441955566399

>  <r_i_glide_erotb>  (98) 
0.83173636647883797

>  <r_i_glide_esite>  (98) 
-0.18483482893445399

>  <r_i_glide_evdw>  (98) 
-31.3728427886963

>  <r_i_glide_gscore>  (98) 
-6.0276371476549704

>  <r_i_glide_hbond>  (98) 
-0.21359175238924999

>  <r_i_glide_ligand_efficiency>  (98) 
-0.189681843472741

>  <r_i_glide_ligand_efficiency_ln>  (98) 
-1.3261511313580201

>  <r_i_glide_ligand_efficiency_sa>  (98) 
-0.59586287251313896

>  <r_i_glide_lipo>  (98) 
-1.5268084738038901

>  <r_i_glide_metal>  (98) 
-0

>  <r_i_glide_rewards>  (98) 
-0.92745644454087905

>  <r_lp_Energy>  (98) 
25.482865

>  <r_lp_tautomer_probability>  (98) 
1

>  <r_qp_ACxDN^.5/SA>  (98) 
0.0079996000000000008

>  <r_qp_CIQPlogS>  (98) 
-5.4000000000000004

>  <r_qp_EA(eV)>  (98) 
0.32600000000000001

>  <r_qp_FISA>  (98) 
83.251999999999995

>  <r_qp_FOSA>  (98) 
351.02300000000002

>  <r_qp_IP(eV)>  (98) 
8.9849999999999994

>  <r_qp_Jm>  (98) 
8.1495649518170593e-06

>  <r_qp_PISA>  (98) 
307.44

>  <r_qp_PSA>  (98) 
56.240000000000002

>  <r_qp_PercentHumanOralAbsorption>  (98) 
90.912999999999997

>  <r_qp_QPPCaco>  (98) 
100.05

>  <r_qp_QPPMDCK>  (98) 
122.871

>  <r_qp_QPlogBB>  (98) 
-0.060999999999999999

>  <r_qp_QPlogHERG>  (98) 
-8.1500000000000004

>  <r_qp_QPlogKhsa>  (98) 
0.85799999999999998

>  <r_qp_QPlogKp>  (98) 
-5.04

>  <r_qp_QPlogPC16>  (98) 
15.595000000000001

>  <r_qp_QPlogPo/w>  (98) 
4.8109999999999999

>  <r_qp_QPlogPoct>  (98) 
21.242999999999999

>  <r_qp_QPlogPw>  (98) 
9.7970000000000006

>  <r_qp_QPlogS>  (98) 
-5.6879999999999997

>  <r_qp_QPpolrz>  (98) 
48.768000000000001

>  <r_qp_SASA>  (98) 
812.54200000000003

>  <r_qp_SAamideO>  (98) 
0

>  <r_qp_SAfluorine>  (98) 
0

>  <r_qp_WPSA>  (98) 
70.825999999999993

>  <r_qp_accptHB>  (98) 
6.5

>  <r_qp_dip^2/V>  (98) 
0.012563700000000001

>  <r_qp_dipole>  (98) 
4.306

>  <r_qp_donorHB>  (98) 
1

>  <r_qp_glob>  (98) 
0.77139780000000002

>  <r_qp_mol_MW>  (98) 
435.99799999999999

>  <r_qp_volume>  (98) 
1475.498

>  <r_sd_BIOSOLVEIT.INFINISEE\_FTREES\_SIMILARITY>  (98) 
0.90700000000000003

>  <r_sd_BIOSOLVEIT.LOGP>  (98) 
2.8054800000000002

>  <r_sd_BIOSOLVEIT.MOLECULAR\_WEIGHT>  (98) 
438.01600000000002

>  <r_sd_BIOSOLVEIT.TPSA>  (98) 
62.659999999999997

>  <i_epik_Tot_Q>  (98) 
2

>  <i_epik_Tot_abs_Q>  (98) 
2

>  <i_f3d_flags>  (98) 
0

>  <i_i_glide_confnum>  (98) 
9

>  <i_i_glide_lignum>  (98) 
563

>  <i_i_glide_posenum>  (98) 
5

>  <i_i_glide_rotatable_bonds>  (98) 
11

>  <i_lp_mmshare_version>  (98) 
65135

>  <i_m_ct_format>  (98) 
2

>  <i_m_source_file_index>  (98) 
1473

>  <i_qp_#NandO>  (98) 
5

>  <i_qp_#acid>  (98) 
0

>  <i_qp_#amide>  (98) 
0

>  <i_qp_#amidine>  (98) 
0

>  <i_qp_#amine>  (98) 
2

>  <i_qp_#in34>  (98) 
0

>  <i_qp_#in56>  (98) 
17

>  <i_qp_#metab>  (98) 
6

>  <i_qp_#nonHatm>  (98) 
31

>  <i_qp_#noncon>  (98) 
0

>  <i_qp_#ringatoms>  (98) 
17

>  <i_qp_#rotor>  (98) 
11

>  <i_qp_#rtvFG>  (98) 
0

>  <i_qp_#stars>  (98) 
0

>  <i_qp_CNS>  (98) 
1

>  <i_qp_HumanOralAbsorption>  (98) 
3

>  <i_qp_RuleOfFive>  (98) 
0

>  <i_qp_RuleOfThree>  (98) 
0

>  <i_sd_BIOSOLVEIT.INFINISEE\_REAGENT1\_NAME>  (98) 
8289034

>  <i_sd_BIOSOLVEIT.INFINISEE\_REAGENT2\_NAME>  (98) 
24714838

>  <i_sd_BIOSOLVEIT.INFINISEE\_RESULT\_RANK>  (98) 
57580

>  <i_sd_version>  (98) 
0

>  <b_lp_Chiralities_Consistent>  (98) 
1

>  <b_sd_chiral_flag>  (98) 
0

>  <canonical_id>  (98) 
ATP-HTVS-0FDC7A3FF1CA

>  <compound_code>  (98) 
47107

>  <title>  (98) 
m_270004bbb____8289034____24714838

>  <variant>  (98) 
47107-1

>  <source_file>  (98) 
运行/运行/ATP-VSW/ATP-VSW-DOCK_HTVS_1-003_lib/ATP-VSW-DOCK_HTVS_1-003_lib.mae

>  <canonical_smiles>  (98) 
CC[NH+](CC)Cc1ccccc1C[NH2+]Cc1cn(CCC#N)nc1-c1ccc(Cl)cc1

>  <scaffold>  (98) 
c1ccc(C[NH2+]Cc2c[nH]nc2-c2ccccc2)cc1

>  <molecular_formula>  (98) 
C25H32ClN5+2

$$$$
ATP-HTVS-103E90EA5971
     RDKit          3D

 59 61  0  0  0  0  0  0  0  0999 V2000
  197.5305  184.6377  146.0395 Cl  0  0  0  0  0  0  0  0  0  0  0  0
  198.1554  184.6206  147.6462 C   0  0  0  0  0  0  0  0  0  0  0  0
  197.3362  184.9889  148.7238 C   0  0  0  0  0  0  0  0  0  0  0  0
  197.8468  184.9870  150.0314 C   0  0  0  0  0  0  0  0  0  0  0  0
  199.1788  184.6009  150.2846 C   0  0  0  0  0  0  0  0  0  0  0  0
  200.0035  184.2212  149.1925 C   0  0  0  0  0  0  0  0  0  0  0  0
  199.4921  184.2333  147.8790 C   0  0  0  0  0  0  0  0  0  0  0  0
  199.7485  184.5795  151.7075 C   0  0  2  0  0  0  0  0  0  0  0  0
  199.6075  183.2805  152.4052 N   0  0  0  0  0  0  0  0  0  0  0  0
  198.3873  182.7991  152.7936 C   0  0  0  0  0  0  0  0  0  0  0  0
  197.3362  183.3767  152.5205 O   0  0  0  0  0  0  0  0  0  0  0  0
  198.3016  181.5845  153.6344 C   0  0  0  0  0  0  0  0  0  0  0  0
  196.9997  181.5472  154.8184 S   0  0  0  0  0  0  0  0  0  0  0  0
  197.4521  179.9453  155.3348 C   0  0  0  0  0  0  0  0  0  0  0  0
  198.5417  179.4891  154.6368 C   0  0  0  0  0  0  0  0  0  0  0  0
  199.1821  178.2567  154.8559 N   0  0  0  0  0  0  0  0  0  0  0  0
  200.4922  178.0079  154.2749 C   0  0  1  0  0  0  0  0  0  0  0  0
  201.0767  176.7047  154.7299 C   0  0  0  0  0  0  0  0  0  0  0  0
  200.9864  175.5486  153.9186 C   0  0  0  0  0  0  0  0  0  0  0  0
  201.5146  174.3224  154.3817 C   0  0  0  0  0  0  0  0  0  0  0  0
  202.1139  174.2735  155.6663 C   0  0  0  0  0  0  0  0  0  0  0  0
  202.2595  175.4349  156.4201 C   0  0  0  0  0  0  0  0  0  0  0  0
  201.7354  176.6554  155.9658 C   0  0  0  0  0  0  0  0  0  0  0  0
  201.4437  173.0580  153.5251 C   0  0  1  0  0  0  0  0  0  0  0  0
  202.7309  172.6744  152.8648 N   0  0  1  0  0  0  0  0  0  0  0  0
  202.8532  173.2128  151.4917 C   0  0  2  0  0  0  0  0  0  0  0  0
  203.9813  172.8889  153.6400 C   0  0  2  0  0  0  0  0  0  0  0  0
  198.9735  180.3915  153.6294 C   0  0  0  0  0  0  0  0  0  0  0  0
  200.9062  182.6067  152.6148 C   0  0  2  0  0  0  0  0  0  0  0  0
  199.2627  185.7592  152.5938 C   0  0  2  0  0  0  0  0  0  0  0  0
  196.3119  185.2768  148.5518 H   0  0  0  0  0  0  0  0  0  0  0  0
  197.1914  185.2748  150.8417 H   0  0  0  0  0  0  0  0  0  0  0  0
  201.0271  183.9224  149.3613 H   0  0  0  0  0  0  0  0  0  0  0  0
  200.1172  183.9485  147.0479 H   0  0  0  0  0  0  0  0  0  0  0  0
  200.8051  184.7935  151.5631 H   0  0  0  0  0  0  0  0  0  0  0  0
  196.8983  179.4499  156.1306 H   0  0  0  0  0  0  0  0  0  0  0  0
  198.8730  177.6633  155.6199 H   0  0  0  0  0  0  0  0  0  0  0  0
  200.4343  178.0197  153.1889 H   0  0  0  0  0  0  0  0  0  0  0  0
  201.1763  178.8106  154.5595 H   0  0  0  0  0  0  0  0  0  0  0  0
  200.5024  175.6149  152.9494 H   0  0  0  0  0  0  0  0  0  0  0  0
  202.4925  173.3442  156.0709 H   0  0  0  0  0  0  0  0  0  0  0  0
  202.8141  175.4010  157.3355 H   0  0  0  0  0  0  0  0  0  0  0  0
  201.8622  177.5534  156.5599 H   0  0  0  0  0  0  0  0  0  0  0  0
  201.1049  172.2339  154.1572 H   0  0  0  0  0  0  0  0  0  0  0  0
  200.6598  173.1758  152.7751 H   0  0  0  0  0  0  0  0  0  0  0  0
  202.8140  174.3021  151.5026 H   0  0  0  0  0  0  0  0  0  0  0  0
  202.0569  172.8466  150.8413 H   0  0  0  0  0  0  0  0  0  0  0  0
  203.8058  172.9163  151.0474 H   0  0  0  0  0  0  0  0  0  0  0  0
  204.1442  173.9569  153.8267 H   0  0  0  0  0  0  0  0  0  0  0  0
  204.8488  172.5128  153.1142 H   0  0  0  0  0  0  0  0  0  0  0  0
  203.9211  172.3665  154.5980 H   0  0  0  0  0  0  0  0  0  0  0  0
  199.7892  180.1601  152.9490 H   0  0  0  0  0  0  0  0  0  0  0  0
  200.9762  182.0300  153.5351 H   0  0  0  0  0  0  0  0  0  0  0  0
  201.7355  183.3160  152.6580 H   0  0  0  0  0  0  0  0  0  0  0  0
  201.1098  181.9527  151.7625 H   0  0  0  0  0  0  0  0  0  0  0  0
  199.4995  186.7141  152.1316 H   0  0  0  0  0  0  0  0  0  0  0  0
  199.7545  185.7217  153.5662 H   0  0  0  0  0  0  0  0  0  0  0  0
  198.1905  185.7327  152.7715 H   0  0  0  0  0  0  0  0  0  0  0  0
  202.6903  171.6592  152.7993 H   0  0  0  0  0  0  0  0  0  0  0  0
  1  2  1  0
  2  3  1  0
  2  7  2  0
  3  4  2  0
  3 31  1  0
  4  5  1  0
  4 32  1  0
  5  6  2  0
  5  8  1  0
  6  7  1  0
  6 33  1  0
  7 34  1  0
  8  9  1  0
  8 30  1  0
  8 35  1  6
  9 10  1  0
  9 29  1  0
 10 11  2  0
 10 12  1  0
 12 13  1  0
 12 28  2  0
 13 14  1  0
 14 15  2  0
 14 36  1  0
 15 16  1  0
 15 28  1  0
 16 17  1  0
 16 37  1  0
 17 18  1  0
 17 38  1  6
 17 39  1  0
 18 19  2  0
 18 23  1  0
 19 20  1  0
 19 40  1  0
 20 21  2  0
 20 24  1  0
 21 22  1  0
 21 41  1  0
 22 23  2  0
 22 42  1  0
 23 43  1  0
 24 25  1  0
 24 44  1  1
 24 45  1  0
 25 26  1  0
 25 27  1  0
 25 59  1  6
 26 46  1  1
 26 47  1  0
 26 48  1  0
 27 49  1  1
 27 50  1  0
 27 51  1  0
 28 52  1  0
 29 53  1  1
 29 54  1  0
 29 55  1  0
 30 56  1  6
 30 57  1  0
 30 58  1  0
M  CHG  1  25   1
M  END
>  <s_epik_cmdline>  (99) 
J2VwaWtfcHl0aG9uJywgJy1waCcsICc3LjAwMDAwMCcsICctcGh0JywgJzIuMDAwMDAwJywgJy1tcycsICcxNicsICctdG4nLCAnOCcsICctbWEnLCAnMjAwJywgJy1pbWFlJywgJzxpbmZpbGUubWFlPicsICctb21hZScsICc8b3V0ZmlsZS5tYWU+Jw==

>  <s_epik_input>  (99) 
Q2xjMVtjSF1bY0hdYyhbY0hdW2NIXTEpW0NAQEhdKFtDSDNdKU4oW0NIM10pQyg9TyljMnNbY0hdYyhbY0hdMilbTkhdW0NIMl1jM1tjSF1jKFtjSF1bY0hdW2NIXTMpW0NIMl1OKFtDSDNdKVtDSDNd

>  <s_i_glide_gridfile>  (99) 
ATP-Grid

>  <s_lp_Force_Field>  (99) 
OPLS_2005

>  <s_lp_Variant>  (99) 
rxn512b____EMOL109726771____EMOL720738____EMOL2873214-1

>  <s_lp_label>  (99) 
2531_sdstereoexpander_1_neutralizer_1_epik_1_stereoizer_1

>  <s_m_source_file>  (99) 
ATP-VSW-LIGPREP-001-in.maegz

>  <s_sd_BIOSOLVEIT.INFINISEE\_QUERY\_NAME>  (99) 
Ref-Lig

>  <s_sd_BIOSOLVEIT.INFINISEE\_QUERY\_SMILES>  (99) 
S(c1nc2c(cc1C[NH2+]Cc3ccc(cc3)C[NH+](C)C)cccc2)Cc4ccccc4

>  <s_sd_BIOSOLVEIT.INFINISEE\_REACTION\_NAME>  (99) 
rxn512b

>  <s_sd_BIOSOLVEIT.INFINISEE\_REAGENT1\_NAME>  (99) 
EMOL109726771

>  <s_sd_BIOSOLVEIT.INFINISEE\_REAGENT1\_SMILES>  (99) 
Clc1ccc(cc1)C(NC)C

>  <s_sd_BIOSOLVEIT.INFINISEE\_REAGENT2\_NAME>  (99) 
EMOL720738

>  <s_sd_BIOSOLVEIT.INFINISEE\_REAGENT2\_SMILES>  (99) 
BrC1=CSC(C(=O)O)=C1

>  <s_sd_BIOSOLVEIT.INFINISEE\_REAGENT3\_NAME>  (99) 
EMOL2873214

>  <s_sd_BIOSOLVEIT.INFINISEE\_REAGENT3\_SMILES>  (99) 
N(Cc1cc(ccc1)CN)(C)C

>  <s_sd_BIOSOLVEIT.INFINISEE\_SPACE>  (99) 
eXplore_7tr_2022-12

>  <s_vsw_compound_code>  (99) 
80961

>  <s_vsw_variant>  (99) 
80961-1

>  <r_epik_Charging_Adjusted_Penalty>  (99) 
0.086140609825027206

>  <r_epik_Ionization_Penalty>  (99) 
0.043099999999999999

>  <r_epik_Ionization_Penalty_Charging>  (99) 
0.043099999999999999

>  <r_epik_Ionization_Penalty_Neutral>  (99) 
0

>  <r_epik_State_Penalty>  (99) 
0.043099999999999999

>  <r_i_docking_score>  (99) 
-4.4936951823294997

>  <r_i_glide_ecoul>  (99) 
-8.4859886169433594

>  <r_i_glide_eff_state_penalty>  (99) 
0.043099999999999999

>  <r_i_glide_einternal>  (99) 
6.8625535964965803

>  <r_i_glide_emodel>  (99) 
-50.346477559470799

>  <r_i_glide_energy>  (99) 
-37.995725631713903

>  <r_i_glide_erotb>  (99) 
0.712878641495303

>  <r_i_glide_esite>  (99) 
-0.13299113518910299

>  <r_i_glide_evdw>  (99) 
-29.509737014770501

>  <r_i_glide_gscore>  (99) 
-4.5367951823294996

>  <r_i_glide_hbond>  (99) 
-0.13474945969974

>  <r_i_glide_ligand_efficiency>  (99) 
-0.14978983941098301

>  <r_i_glide_ligand_efficiency_ln>  (99) 
-1.02101650815588

>  <r_i_glide_ligand_efficiency_sa>  (99) 
-0.46543185755173999

>  <r_i_glide_lipo>  (99) 
-1.62008394929229

>  <r_i_glide_metal>  (99) 
-0

>  <r_i_glide_rewards>  (99) 
-0.61346413636363595

>  <r_lp_Energy>  (99) 
24.082899999999999

>  <r_lp_tautomer_probability>  (99) 
0.99999274205267796

>  <r_qp_ACxDN^.5/SA>  (99) 
0.0092212000000000006

>  <r_qp_CIQPlogS>  (99) 
-4.7270000000000003

>  <r_qp_EA(eV)>  (99) 
0.61599999999999999

>  <r_qp_FISA>  (99) 
40.149000000000001

>  <r_qp_FOSA>  (99) 
261.255

>  <r_qp_IP(eV)>  (99) 
8.4779999999999998

>  <r_qp_Jm>  (99) 
0.021254262539550001

>  <r_qp_PISA>  (99) 
254.47900000000001

>  <r_qp_PSA>  (99) 
41.027999999999999

>  <r_qp_PercentHumanOralAbsorption>  (99) 
94.933000000000007

>  <r_qp_QPPCaco>  (99) 
256.428

>  <r_qp_QPPMDCK>  (99) 
459.78100000000001

>  <r_qp_QPlogBB>  (99) 
0.76700000000000002

>  <r_qp_QPlogHERG>  (99) 
-6.1029999999999998

>  <r_qp_QPlogKhsa>  (99) 
0.64300000000000002

>  <r_qp_QPlogKp>  (99) 
-4.7199999999999998

>  <r_qp_QPlogPC16>  (99) 
13.201000000000001

>  <r_qp_QPlogPo/w>  (99) 
4.2480000000000002

>  <r_qp_QPlogPoct>  (99) 
19.530000000000001

>  <r_qp_QPlogPw>  (99) 
8.9320000000000004

>  <r_qp_QPlogS>  (99) 
-2.5979999999999999

>  <r_qp_QPpolrz>  (99) 
42.899000000000001

>  <r_qp_SASA>  (99) 
650.67700000000002

>  <r_qp_SAamideO>  (99) 
0

>  <r_qp_SAfluorine>  (99) 
0

>  <r_qp_WPSA>  (99) 
94.793999999999997

>  <r_qp_accptHB>  (99) 
6

>  <r_qp_dip^2/V>  (99) 
0.033126099999999999

>  <r_qp_dipole>  (99) 
6.5460000000000003

>  <r_qp_donorHB>  (99) 
1

>  <r_qp_glob>  (99) 
0.88228799999999996

>  <r_qp_mol_MW>  (99) 
442.01799999999997

>  <r_qp_volume>  (99) 
1293.3499999999999

>  <r_sd_BIOSOLVEIT.INFINISEE\_FTREES\_SIMILARITY>  (99) 
0.91300000000000003

>  <r_sd_BIOSOLVEIT.LOGP>  (99) 
4.4912999999999998

>  <r_sd_BIOSOLVEIT.MOLECULAR\_WEIGHT>  (99) 
443.03100000000001

>  <r_sd_BIOSOLVEIT.TPSA>  (99) 
36.780000000000001

>  <i_epik_Tot_Q>  (99) 
1

>  <i_epik_Tot_abs_Q>  (99) 
1

>  <i_f3d_flags>  (99) 
0

>  <i_i_glide_confnum>  (99) 
5

>  <i_i_glide_lignum>  (99) 
1003

>  <i_i_glide_posenum>  (99) 
19

>  <i_i_glide_rotatable_bonds>  (99) 
9

>  <i_lp_mmshare_version>  (99) 
65135

>  <i_m_ct_format>  (99) 
2

>  <i_m_source_file_index>  (99) 
2531

>  <i_qp_#NandO>  (99) 
4

>  <i_qp_#acid>  (99) 
0

>  <i_qp_#amide>  (99) 
0

>  <i_qp_#amidine>  (99) 
0

>  <i_qp_#amine>  (99) 
2

>  <i_qp_#in34>  (99) 
0

>  <i_qp_#in56>  (99) 
17

>  <i_qp_#metab>  (99) 
6

>  <i_qp_#nonHatm>  (99) 
30

>  <i_qp_#noncon>  (99) 
0

>  <i_qp_#ringatoms>  (99) 
17

>  <i_qp_#rotor>  (99) 
8

>  <i_qp_#rtvFG>  (99) 
0

>  <i_qp_#stars>  (99) 
0

>  <i_qp_CNS>  (99) 
2

>  <i_qp_HumanOralAbsorption>  (99) 
3

>  <i_qp_RuleOfFive>  (99) 
0

>  <i_qp_RuleOfThree>  (99) 
0

>  <i_sd_BIOSOLVEIT.INFINISEE\_RESULT\_RANK>  (99) 
33746

>  <i_sd_version>  (99) 
0

>  <b_lp_Chiralities_Consistent>  (99) 
1

>  <b_sd_chiral_flag>  (99) 
0

>  <canonical_id>  (99) 
ATP-HTVS-103E90EA5971

>  <compound_code>  (99) 
80961

>  <title>  (99) 
rxn512b____EMOL109726771____EMOL720738____EMOL2873214

>  <variant>  (99) 
80961-1

>  <source_file>  (99) 
运行/运行/ATP-VSW/ATP-VSW-DOCK_HTVS_1-001_lib/ATP-VSW-DOCK_HTVS_1-001_lib

>  <canonical_smiles>  (99) 
C[C@H](c1ccc(Cl)cc1)N(C)C(=O)c1cc(NCc2cccc(C[NH+](C)C)c2)cs1

>  <scaffold>  (99) 
O=C(NCc1ccccc1)c1cc(NCc2ccccc2)cs1

>  <molecular_formula>  (99) 
C24H29ClN3OS+

$$$$
ATP-HTVS-106685DD3ACA
     RDKit          3D

 58 61  0  0  0  0  0  0  0  0999 V2000
  200.2432  179.9631  156.6388 F   0  0  0  0  0  0  0  0  0  0  0  0
  200.4426  178.6637  156.2989 C   0  0  0  0  0  0  0  0  0  0  0  0
  200.9154  177.7661  157.2765 C   0  0  0  0  0  0  0  0  0  0  0  0
  201.1697  178.2019  158.5340 F   0  0  0  0  0  0  0  0  0  0  0  0
  201.1436  176.4188  156.9423 C   0  0  0  0  0  0  0  0  0  0  0  0
  200.8951  175.9577  155.6398 C   0  0  0  0  0  0  0  0  0  0  0  0
  200.4178  176.8483  154.6617 C   0  0  0  0  0  0  0  0  0  0  0  0
  200.1882  178.2085  154.9811 C   0  0  0  0  0  0  0  0  0  0  0  0
  199.7302  179.1644  153.9164 C   0  0  0  0  0  0  0  0  0  0  0  0
  200.1552  180.3185  153.8794 O   0  0  0  0  0  0  0  0  0  0  0  0
  198.8021  178.6716  153.0786 N   0  0  0  0  0  0  0  0  0  0  0  0
  198.2090  179.3229  151.9585 C   0  0  0  0  0  0  0  0  0  0  0  0
  197.5173  180.5568  152.0944 C   0  0  0  0  0  0  0  0  0  0  0  0
  197.3603  181.1570  153.3482 N   0  0  0  0  0  0  0  0  0  0  0  0
  197.2316  182.6013  153.4720 C   0  0  1  0  0  0  0  0  0  0  0  0
  197.1650  183.0688  154.9167 C   0  0  0  0  0  0  0  0  0  0  0  0
  197.4705  184.4082  155.2385 C   0  0  0  0  0  0  0  0  0  0  0  0
  197.3617  184.8610  156.5689 C   0  0  0  0  0  0  0  0  0  0  0  0
  196.9485  183.9732  157.5863 C   0  0  0  0  0  0  0  0  0  0  0  0
  196.6657  182.6310  157.2684 C   0  0  0  0  0  0  0  0  0  0  0  0
  196.7601  182.1851  155.9431 C   0  0  0  0  0  0  0  0  0  0  0  0
  196.7729  184.4538  159.0137 C   0  0  1  0  0  0  0  0  0  0  0  0
  195.4208  185.0264  159.2507 N   0  0  1  0  0  0  0  0  0  0  0  0
  194.3215  184.0395  159.1036 C   0  0  2  0  0  0  0  0  0  0  0  0
  195.3425  185.7337  160.5468 C   0  0  2  0  0  0  0  0  0  0  0  0
  196.9505  181.1212  150.9345 C   0  0  0  0  0  0  0  0  0  0  0  0
  196.9967  180.5402  149.7253 N   0  0  0  0  0  0  0  0  0  0  0  0
  197.6139  179.3492  149.5870 C   0  0  0  0  0  0  0  0  0  0  0  0
  198.2321  178.6881  150.6872 C   0  0  0  0  0  0  0  0  0  0  0  0
  198.8544  177.4290  150.4821 C   0  0  0  0  0  0  0  0  0  0  0  0
  198.8730  176.8400  149.2031 C   0  0  0  0  0  0  0  0  0  0  0  0
  198.2724  177.4998  148.1168 C   0  0  0  0  0  0  0  0  0  0  0  0
  197.6463  178.7422  148.3161 C   0  0  0  0  0  0  0  0  0  0  0  0
  201.5095  175.7320  157.6917 H   0  0  0  0  0  0  0  0  0  0  0  0
  201.0758  174.9241  155.3884 H   0  0  0  0  0  0  0  0  0  0  0  0
  200.2562  176.4788  153.6595 H   0  0  0  0  0  0  0  0  0  0  0  0
  198.6075  177.6870  153.1765 H   0  0  0  0  0  0  0  0  0  0  0  0
  197.8850  180.7330  154.1017 H   0  0  0  0  0  0  0  0  0  0  0  0
  198.0873  183.0684  152.9816 H   0  0  0  0  0  0  0  0  0  0  0  0
  196.3291  182.9525  152.9691 H   0  0  0  0  0  0  0  0  0  0  0  0
  197.7576  185.0977  154.4560 H   0  0  0  0  0  0  0  0  0  0  0  0
  197.5671  185.8984  156.7893 H   0  0  0  0  0  0  0  0  0  0  0  0
  196.3380  181.9338  158.0261 H   0  0  0  0  0  0  0  0  0  0  0  0
  196.4846  181.1599  155.7373 H   0  0  0  0  0  0  0  0  0  0  0  0
  196.9571  183.6315  159.7087 H   0  0  0  0  0  0  0  0  0  0  0  0
  197.5416  185.2020  159.2186 H   0  0  0  0  0  0  0  0  0  0  0  0
  194.4347  183.2276  159.8217 H   0  0  0  0  0  0  0  0  0  0  0  0
  194.2902  183.6056  158.1045 H   0  0  0  0  0  0  0  0  0  0  0  0
  193.3512  184.5053  159.2740 H   0  0  0  0  0  0  0  0  0  0  0  0
  195.5508  185.0392  161.3584 H   0  0  0  0  0  0  0  0  0  0  0  0
  194.3473  186.1558  160.7051 H   0  0  0  0  0  0  0  0  0  0  0  0
  196.0643  186.5513  160.6013 H   0  0  0  0  0  0  0  0  0  0  0  0
  196.4169  182.0630  150.9644 H   0  0  0  0  0  0  0  0  0  0  0  0
  199.3360  176.9008  151.2898 H   0  0  0  0  0  0  0  0  0  0  0  0
  199.3614  175.8875  149.0473 H   0  0  0  0  0  0  0  0  0  0  0  0
  198.2933  177.0592  147.1289 H   0  0  0  0  0  0  0  0  0  0  0  0
  197.1957  179.2518  147.4752 H   0  0  0  0  0  0  0  0  0  0  0  0
  195.2758  185.7223  158.5332 H   0  0  0  0  0  0  0  0  0  0  0  0
  1  2  1  0
  2  3  2  0
  2  8  1  0
  3  4  1  0
  3  5  1  0
  5  6  2  0
  5 34  1  0
  6  7  1  0
  6 35  1  0
  7  8  2  0
  7 36  1  0
  8  9  1  0
  9 10  2  0
  9 11  1  0
 11 12  1  0
 11 37  1  0
 12 13  2  0
 12 29  1  0
 13 14  1  0
 13 26  1  0
 14 15  1  0
 14 38  1  0
 15 16  1  0
 15 39  1  6
 15 40  1  0
 16 17  1  0
 16 21  2  0
 17 18  2  0
 17 41  1  0
 18 19  1  0
 18 42  1  0
 19 20  2  0
 19 22  1  0
 20 21  1  0
 20 43  1  0
 21 44  1  0
 22 23  1  0
 22 45  1  1
 22 46  1  0
 23 24  1  0
 23 25  1  0
 23 58  1  6
 24 47  1  1
 24 48  1  0
 24 49  1  0
 25 50  1  1
 25 51  1  0
 25 52  1  0
 26 27  2  0
 26 53  1  0
 27 28  1  0
 28 29  1  0
 28 33  2  0
 29 30  2  0
 30 31  1  0
 30 54  1  0
 31 32  2  0
 31 55  1  0
 32 33  1  0
 32 56  1  0
 33 57  1  0
M  CHG  1  23   1
M  END
>  <s_epik_cmdline>  (100) 
J2VwaWtfcHl0aG9uJywgJy1waCcsICc3LjAwMDAwMCcsICctcGh0JywgJzIuMDAwMDAwJywgJy1tcycsICcxNicsICctdG4nLCAnOCcsICctbWEnLCAnMjAwJywgJy1pbWFlJywgJzxpbmZpbGUubWFlPicsICctb21hZScsICc8b3V0ZmlsZS5tYWU+Jw==

>  <s_epik_input>  (100) 
RmMxYyhGKVtjSF1bY0hdW2NIXWMxQyg9TylbTkhdYyhjKGMyMylbY0hdW2NIXVtjSF1bY0hdMyljKFtjSF1uMilbTkhdW0NIMl1jNFtjSF1bY0hdYyhbY0hdW2NIXTQpW0NIMl1OKFtDSDNdKVtDSDNd

>  <s_i_glide_gridfile>  (100) 
ATP-Grid

>  <s_lp_Force_Field>  (100) 
OPLS_2005

>  <s_lp_Variant>  (100) 
rxn502b____EMOL48663751____EMOL13728749____EMOL50155899-1

>  <s_lp_label>  (100) 
2212_sdstereoexpander_1_neutralizer_1_epik_1_stereoizer_1

>  <s_m_source_file>  (100) 
ATP-VSW-LIGPREP-002-in.maegz

>  <s_sd_BIOSOLVEIT.INFINISEE\_QUERY\_NAME>  (100) 
Ref-Lig

>  <s_sd_BIOSOLVEIT.INFINISEE\_QUERY\_SMILES>  (100) 
S(c1nc2c(cc1C[NH2+]Cc3ccc(cc3)C[NH+](C)C)cccc2)Cc4ccccc4

>  <s_sd_BIOSOLVEIT.INFINISEE\_REACTION\_NAME>  (100) 
rxn502b

>  <s_sd_BIOSOLVEIT.INFINISEE\_REAGENT1\_NAME>  (100) 
EMOL48663751

>  <s_sd_BIOSOLVEIT.INFINISEE\_REAGENT1\_SMILES>  (100) 
Fc1c(F)cccc1C([O-])=O

>  <s_sd_BIOSOLVEIT.INFINISEE\_REAGENT2\_NAME>  (100) 
EMOL13728749

>  <s_sd_BIOSOLVEIT.INFINISEE\_REAGENT2\_SMILES>  (100) 
Brc1c(N)c2c(nc1)cccc2

>  <s_sd_BIOSOLVEIT.INFINISEE\_REAGENT3\_NAME>  (100) 
EMOL50155899

>  <s_sd_BIOSOLVEIT.INFINISEE\_REAGENT3\_SMILES>  (100) 
N(Cc1ccc(cc1)CN)(C)C

>  <s_sd_BIOSOLVEIT.INFINISEE\_SPACE>  (100) 
eXplore_7tr_2022-12

>  <s_vsw_compound_code>  (100) 
70754

>  <s_vsw_variant>  (100) 
70754-1

>  <r_epik_Charging_Adjusted_Penalty>  (100) 
0.11763899382156499

>  <r_epik_Ionization_Penalty>  (100) 
0.0785

>  <r_epik_Ionization_Penalty_Charging>  (100) 
0.039199999999999999

>  <r_epik_Ionization_Penalty_Neutral>  (100) 
0.039300000000000002

>  <r_epik_State_Penalty>  (100) 
0.078399999999999997

>  <r_i_docking_score>  (100) 
-4.01924083094669

>  <r_i_glide_ecoul>  (100) 
-2.6929018497467001

>  <r_i_glide_eff_state_penalty>  (100) 
0.078399999999999997

>  <r_i_glide_einternal>  (100) 
1.20992648601532

>  <r_i_glide_emodel>  (100) 
-51.999505428404298

>  <r_i_glide_energy>  (100) 
-39.138145685195902

>  <r_i_glide_erotb>  (100) 
0.69998297907078

>  <r_i_glide_esite>  (100) 
-0.033765436364729999

>  <r_i_glide_evdw>  (100) 
-36.445243835449197

>  <r_i_glide_gscore>  (100) 
-4.0976408309466903

>  <r_i_glide_hbond>  (100) 
0

>  <r_i_glide_ligand_efficiency>  (100) 
-0.121795176695354

>  <r_i_glide_ligand_efficiency_ln>  (100) 
-0.893858350287276

>  <r_i_glide_ligand_efficiency_sa>  (100) 
-0.39066221002293799

>  <r_i_glide_lipo>  (100) 
-2.0263415611848901

>  <r_i_glide_metal>  (100) 
-0

>  <r_i_glide_rewards>  (100) 
-0.51131934323338202

>  <r_lp_Energy>  (100) 
34.558174999999999

>  <r_qp_ACxDN^.5/SA>  (100) 
0.0125404

>  <r_qp_CIQPlogS>  (100) 
-5.9039999999999999

>  <r_qp_EA(eV)>  (100) 
1.006

>  <r_qp_FISA>  (100) 
58.869999999999997

>  <r_qp_FOSA>  (100) 
187.94399999999999

>  <r_qp_IP(eV)>  (100) 
8.2070000000000007

>  <r_qp_Jm>  (100) 
0.011585727638163301

>  <r_qp_PISA>  (100) 
421.77800000000002

>  <r_qp_PSA>  (100) 
59.395000000000003

>  <r_qp_PercentHumanOralAbsorption>  (100) 
100

>  <r_qp_QPPCaco>  (100) 
683.18600000000004

>  <r_qp_QPPMDCK>  (100) 
817.22799999999995

>  <r_qp_QPlogBB>  (100) 
0.111

>  <r_qp_QPlogHERG>  (100) 
-7.2229999999999999

>  <r_qp_QPlogKhsa>  (100) 
0.76000000000000001

>  <r_qp_QPlogKp>  (100) 
-2.5089999999999999

>  <r_qp_QPlogPC16>  (100) 
14.444000000000001

>  <r_qp_QPlogPo/w>  (100) 
4.8890000000000002

>  <r_qp_QPlogPoct>  (100) 
23.260000000000002

>  <r_qp_QPlogPw>  (100) 
12.563000000000001

>  <r_qp_QPlogS>  (100) 
-5.077

>  <r_qp_QPpolrz>  (100) 
48.576000000000001

>  <r_qp_SASA>  (100) 
733.024

>  <r_qp_SAamideO>  (100) 
0

>  <r_qp_SAfluorine>  (100) 
64.432000000000002

>  <r_qp_WPSA>  (100) 
64.432000000000002

>  <r_qp_accptHB>  (100) 
6.5

>  <r_qp_dip^2/V>  (100) 
0.032806700000000001

>  <r_qp_dipole>  (100) 
6.7270000000000003

>  <r_qp_donorHB>  (100) 
2

>  <r_qp_glob>  (100) 
0.81746700000000005

>  <r_qp_mol_MW>  (100) 
446.49900000000002

>  <r_qp_volume>  (100) 
1379.2249999999999

>  <r_sd_BIOSOLVEIT.INFINISEE\_FTREES\_SIMILARITY>  (100) 
0.93000000000000005

>  <r_sd_BIOSOLVEIT.LOGP>  (100) 
4.0218999999999996

>  <r_sd_BIOSOLVEIT.MOLECULAR\_WEIGHT>  (100) 
447.50700000000001

>  <r_sd_BIOSOLVEIT.TPSA>  (100) 
58.460000000000001

>  <i_epik_Tot_Q>  (100) 
1

>  <i_epik_Tot_abs_Q>  (100) 
1

>  <i_f3d_flags>  (100) 
0

>  <i_i_glide_confnum>  (100) 
8

>  <i_i_glide_lignum>  (100) 
857

>  <i_i_glide_posenum>  (100) 
4

>  <i_i_glide_rotatable_bonds>  (100) 
8

>  <i_lp_mmshare_version>  (100) 
65135

>  <i_m_ct_format>  (100) 
2

>  <i_m_source_file_index>  (100) 
2212

>  <i_qp_#NandO>  (100) 
5

>  <i_qp_#acid>  (100) 
0

>  <i_qp_#amide>  (100) 
0

>  <i_qp_#amidine>  (100) 
0

>  <i_qp_#amine>  (100) 
1

>  <i_qp_#in34>  (100) 
0

>  <i_qp_#in56>  (100) 
22

>  <i_qp_#metab>  (100) 
6

>  <i_qp_#nonHatm>  (100) 
33

>  <i_qp_#noncon>  (100) 
0

>  <i_qp_#ringatoms>  (100) 
22

>  <i_qp_#rotor>  (100) 
7

>  <i_qp_#rtvFG>  (100) 
0

>  <i_qp_#stars>  (100) 
0

>  <i_qp_CNS>  (100) 
1

>  <i_qp_HumanOralAbsorption>  (100) 
3

>  <i_qp_RuleOfFive>  (100) 
0

>  <i_qp_RuleOfThree>  (100) 
0

>  <i_sd_BIOSOLVEIT.INFINISEE\_RESULT\_RANK>  (100) 
4569

>  <i_sd_version>  (100) 
0

>  <b_lp_Chiralities_Consistent>  (100) 
1

>  <b_sd_chiral_flag>  (100) 
0

>  <canonical_id>  (100) 
ATP-HTVS-106685DD3ACA

>  <compound_code>  (100) 
70754

>  <title>  (100) 
rxn502b____EMOL48663751____EMOL13728749____EMOL50155899

>  <variant>  (100) 
70754-1

>  <source_file>  (100) 
运行/运行/ATP-VSW/ATP-VSW-DOCK_HTVS_1-002_lib.maegz

>  <canonical_smiles>  (100) 
C[NH+](C)Cc1ccc(CNc2cnc3ccccc3c2NC(=O)c2cccc(F)c2F)cc1

>  <scaffold>  (100) 
O=C(Nc1c(NCc2ccccc2)cnc2ccccc12)c1ccccc1

>  <molecular_formula>  (100) 
C26H25F2N4O+

$$$$
ATP-HTVS-10900B51E20F
     RDKit          3D

 65 67  0  0  0  0  0  0  0  0999 V2000
  196.2372  179.8688  151.1645 S   0  0  0  0  0  0  0  0  0  0  0  0
  197.7144  178.8788  151.4406 C   0  0  0  0  0  0  0  0  0  0  0  0
  198.2630  179.2273  152.5809 N   0  0  0  0  0  0  0  0  0  0  0  0
  197.6740  180.3043  153.1895 C   0  0  0  0  0  0  0  0  0  0  0  0
  196.5760  180.8094  152.5788 C   0  0  0  0  0  0  0  0  0  0  0  0
  198.3321  180.7944  154.4595 C   0  0  1  0  0  0  0  0  0  0  0  0
  197.6317  180.2095  155.6219 N   0  0  1  0  0  0  0  0  0  0  0  0
  198.2883  180.4961  156.9321 C   0  0  1  0  0  0  0  0  0  0  0  0
  198.7155  181.9630  157.0252 C   0  0  0  0  0  0  0  0  0  0  0  0
  197.8281  183.0607  156.8211 C   0  0  0  0  0  0  0  0  0  0  0  0
  198.3717  184.3757  156.8478 C   0  0  0  0  0  0  0  0  0  0  0  0
  199.7261  184.6101  157.1510 C   0  0  0  0  0  0  0  0  0  0  0  0
  200.5797  183.5217  157.3998 C   0  0  0  0  0  0  0  0  0  0  0  0
  200.0760  182.2104  157.3158 C   0  0  0  0  0  0  0  0  0  0  0  0
  196.3125  182.9081  156.5642 C   0  0  1  0  0  0  0  0  0  0  0  0
  195.4711  183.1187  157.7820 N   0  0  2  0  0  0  0  0  0  0  0  0
  195.8620  184.3239  158.5693 C   0  0  1  0  0  0  0  0  0  0  0  0
  194.9114  184.6797  159.7107 C   0  0  2  0  0  0  0  0  0  0  0  0
  195.3311  181.8744  158.6004 C   0  0  1  0  0  0  0  0  0  0  0  0
  193.9306  181.2585  158.4155 C   0  0  2  0  0  0  0  0  0  0  0  0
  198.2617  177.8498  150.5679 N   0  0  0  0  0  0  0  0  0  0  0  0
  199.1912  176.9360  151.2268 C   0  0  0  0  0  0  0  0  0  0  0  0
  199.0485  175.5179  151.0952 C   0  0  0  0  0  0  0  0  0  0  0  0
  199.9492  174.6326  151.7417 C   0  0  0  0  0  0  0  0  0  0  0  0
  200.9740  175.1372  152.5471 C   0  0  0  0  0  0  0  0  0  0  0  0
  201.1262  176.5225  152.6986 C   0  0  0  0  0  0  0  0  0  0  0  0
  200.2765  177.3994  152.0114 C   0  0  0  0  0  0  0  0  0  0  0  0
  201.9591  174.1916  153.2346 C   0  0  2  0  0  0  0  0  0  0  0  0
  197.9623  177.7167  149.2558 C   0  0  0  0  0  0  0  0  0  0  0  0
  198.4404  176.7915  148.5902 O   0  0  0  0  0  0  0  0  0  0  0  0
  197.0638  178.6864  148.4623 C   0  0  2  0  0  0  0  0  0  0  0  0
  196.6884  180.6256  155.6378 H   0  0  0  0  0  0  0  0  0  0  0  0
  195.9593  181.6792  152.8969 H   0  0  0  0  0  0  0  0  0  0  0  0
  199.3988  180.5054  154.5132 H   0  0  0  0  0  0  0  0  0  0  0  0
  198.3173  181.8840  154.4852 H   0  0  0  0  0  0  0  0  0  0  0  0
  197.6322  180.2311  157.7499 H   0  0  0  0  0  0  0  0  0  0  0  0
  199.1669  179.8322  156.9781 H   0  0  0  0  0  0  0  0  0  0  0  0
  197.7481  185.2415  156.6502 H   0  0  0  0  0  0  0  0  0  0  0  0
  200.1009  185.6262  157.2289 H   0  0  0  0  0  0  0  0  0  0  0  0
  201.6248  183.6922  157.6387 H   0  0  0  0  0  0  0  0  0  0  0  0
  200.7520  181.3827  157.4893 H   0  0  0  0  0  0  0  0  0  0  0  0
  196.0579  183.6478  155.7943 H   0  0  0  0  0  0  0  0  0  0  0  0
  196.0277  181.9465  156.1386 H   0  0  0  0  0  0  0  0  0  0  0  0
  196.8574  184.1780  158.9971 H   0  0  0  0  0  0  0  0  0  0  0  0
  195.9148  185.1817  157.8898 H   0  0  0  0  0  0  0  0  0  0  0  0
  195.3113  185.5519  160.2341 H   0  0  0  0  0  0  0  0  0  0  0  0
  194.8266  183.8765  160.4435 H   0  0  0  0  0  0  0  0  0  0  0  0
  193.9216  184.9197  159.3230 H   0  0  0  0  0  0  0  0  0  0  0  0
  196.0612  181.1480  158.3037 H   0  0  0  0  0  0  0  0  0  0  0  0
  195.5306  182.0447  159.6627 H   0  0  0  0  0  0  0  0  0  0  0  0
  193.9047  180.2975  158.9286 H   0  0  0  0  0  0  0  0  0  0  0  0
  193.7208  181.0520  157.3613 H   0  0  0  0  0  0  0  0  0  0  0  0
  193.1319  181.8768  158.8187 H   0  0  0  0  0  0  0  0  0  0  0  0
  198.2728  175.0883  150.4826 H   0  0  0  0  0  0  0  0  0  0  0  0
  199.8564  173.5669  151.5917 H   0  0  0  0  0  0  0  0  0  0  0  0
  201.8896  176.9188  153.3477 H   0  0  0  0  0  0  0  0  0  0  0  0
  200.4753  178.4656  152.1219 H   0  0  0  0  0  0  0  0  0  0  0  0
  202.5435  174.7251  153.9885 H   0  0  0  0  0  0  0  0  0  0  0  0
  202.6480  173.7933  152.4861 H   0  0  0  0  0  0  0  0  0  0  0  0
  201.4291  173.3675  153.7178 H   0  0  0  0  0  0  0  0  0  0  0  0
  197.5875  179.6432  148.3523 H   0  0  0  0  0  0  0  0  0  0  0  0
  196.1071  178.8401  148.9560 H   0  0  0  0  0  0  0  0  0  0  0  0
  196.8675  178.3063  147.4547 H   0  0  0  0  0  0  0  0  0  0  0  0
  194.5564  183.2957  157.3823 H   0  0  0  0  0  0  0  0  0  0  0  0
  197.5061  179.2327  155.5265 H   0  0  0  0  0  0  0  0  0  0  0  0
  1  2  1  0
  1  5  1  0
  2  3  2  0
  2 21  1  0
  3  4  1  0
  4  5  2  0
  4  6  1  0
  5 33  1  0
  6  7  1  0
  6 34  1  6
  6 35  1  0
  7  8  1  0
  7 32  1  1
  7 65  1  0
  8  9  1  0
  8 36  1  1
  8 37  1  0
  9 10  1  0
  9 14  2  0
 10 11  2  0
 10 15  1  0
 11 12  1  0
 11 38  1  0
 12 13  2  0
 12 39  1  0
 13 14  1  0
 13 40  1  0
 14 41  1  0
 15 16  1  0
 15 42  1  6
 15 43  1  0
 16 17  1  0
 16 19  1  0
 16 64  1  6
 17 18  1  0
 17 44  1  1
 17 45  1  0
 18 46  1  1
 18 47  1  0
 18 48  1  0
 19 20  1  0
 19 49  1  6
 19 50  1  0
 20 51  1  1
 20 52  1  0
 20 53  1  0
 21 22  1  0
 21 29  1  0
 22 23  1  0
 22 27  2  0
 23 24  2  0
 23 54  1  0
 24 25  1  0
 24 55  1  0
 25 26  2  0
 25 28  1  0
 26 27  1  0
 26 56  1  0
 27 57  1  0
 28 58  1  1
 28 59  1  0
 28 60  1  0
 29 30  2  0
 29 31  1  0
 31 61  1  6
 31 62  1  0
 31 63  1  0
M  CHG  2   7   1  16   1
M  END
>  <s_epik_cmdline>  (101) 
J2VwaWtfcHl0aG9uJywgJy1waCcsICc3LjAwMDAwMCcsICctcGh0JywgJzIuMDAwMDAwJywgJy1tcycsICcxNicsICctdG4nLCAnOCcsICctbWEnLCAnMjAwJywgJy1pbWFlJywgJzxpbmZpbGUubWFlPicsICctb21hZScsICc8b3V0ZmlsZS5tYWU+Jw==

>  <s_epik_input>  (101) 
W2NIXTFbY0hdYyhbQ0gzXSlbY0hdW2NIXWMxTihDKD1PKVtDSDNdKWMyc1tjSF1jKG4yKVtDSDJdW05IXVtDSDJdYzNjKFtjSF1bY0hdW2NIXVtjSF0zKVtDSDJdTihbQ0gyXVtDSDNdKVtDSDJdW0NIM10=

>  <s_i_glide_gridfile>  (101) 
ATP-Grid

>  <s_lp_Force_Field>  (101) 
OPLS_2005

>  <s_lp_Variant>  (101) 
m_270004bbb____8289034____7548972-1

>  <s_lp_label>  (101) 
1820_sdstereoexpander_1_neutralizer_1_epik_1_stereoizer_1

>  <s_m_source_file>  (101) 
ATP-VSW-LIGPREP-001-in.maegz

>  <s_sd_BIOSOLVEIT.INFINISEE\_QUERY\_NAME>  (101) 
Ref-Lig

>  <s_sd_BIOSOLVEIT.INFINISEE\_QUERY\_SMILES>  (101) 
S(c1nc2c(cc1C[NH2+]Cc3ccc(cc3)C[NH+](C)C)cccc2)Cc4ccccc4

>  <s_sd_BIOSOLVEIT.INFINISEE\_REACTION\_NAME>  (101) 
m_270004bbb

>  <s_sd_BIOSOLVEIT.INFINISEE\_REAGENT1\_SMILES>  (101) 
[R1*]NCc1c(cccc1)CN(CC)CC

>  <s_sd_BIOSOLVEIT.INFINISEE\_REAGENT2\_SMILES>  (101) 
[R1*]CC=1N=C(SC1)N(c2ccc(cc2)C)C(=O)C

>  <s_sd_BIOSOLVEIT.INFINISEE\_SPACE>  (101) 
REALSpace_44bn_2023-08

>  <s_vsw_compound_code>  (101) 
58209

>  <s_vsw_variant>  (101) 
58209-1

>  <r_epik_Charging_Adjusted_Penalty>  (101) 
0.42376803178793898

>  <r_epik_Ionization_Penalty>  (101) 
0.21229999999999999

>  <r_epik_Ionization_Penalty_Charging>  (101) 
0.21229999999999999

>  <r_epik_Ionization_Penalty_Neutral>  (101) 
0

>  <r_epik_State_Penalty>  (101) 
0.21149999999999999

>  <r_i_docking_score>  (101) 
-4.9935823156065702

>  <r_i_glide_ecoul>  (101) 
-11.9003229141235

>  <r_i_glide_eff_state_penalty>  (101) 
0.21149999999999999

>  <r_i_glide_einternal>  (101) 
9.8529119491577095

>  <r_i_glide_emodel>  (101) 
-65.751973065355003

>  <r_i_glide_energy>  (101) 
-45.3815050125122

>  <r_i_glide_erotb>  (101) 
0.82959822031512098

>  <r_i_glide_esite>  (101) 
-0.15380858310749301

>  <r_i_glide_evdw>  (101) 
-33.4811820983887

>  <r_i_glide_gscore>  (101) 
-5.2050823156065702

>  <r_i_glide_hbond>  (101) 
-0.13490871081686401

>  <r_i_glide_ligand_efficiency>  (101) 
-0.161083300503438

>  <r_i_glide_ligand_efficiency_ln>  (101) 
-1.1262058470884599

>  <r_i_glide_ligand_efficiency_sa>  (101) 
-0.50602396304562103

>  <r_i_glide_lipo>  (101) 
-1.50043349769587

>  <r_i_glide_metal>  (101) 
-0

>  <r_i_glide_rewards>  (101) 
-0.78642220226349602

>  <r_lp_Energy>  (101) 
38.300203000000003

>  <r_lp_tautomer_probability>  (101) 
1

>  <r_qp_ACxDN^.5/SA>  (101) 
0.011336300000000001

>  <r_qp_CIQPlogS>  (101) 
-3.8010000000000002

>  <r_qp_EA(eV)>  (101) 
0.69699999999999995

>  <r_qp_FISA>  (101) 
60.664999999999999

>  <r_qp_FOSA>  (101) 
330.05700000000002

>  <r_qp_IP(eV)>  (101) 
8.952

>  <r_qp_Jm>  (101) 
0.037361974708791199

>  <r_qp_PISA>  (101) 
275.82299999999998

>  <r_qp_PSA>  (101) 
57.234000000000002

>  <r_qp_PercentHumanOralAbsorption>  (101) 
88.155000000000001

>  <r_qp_QPPCaco>  (101) 
163.83799999999999

>  <r_qp_QPPMDCK>  (101) 
140.43600000000001

>  <r_qp_QPlogBB>  (101) 
0.29999999999999999

>  <r_qp_QPlogHERG>  (101) 
-6.6539999999999999

>  <r_qp_QPlogKhsa>  (101) 
0.40300000000000002

>  <r_qp_QPlogKp>  (101) 
-4.8310000000000004

>  <r_qp_QPlogPC16>  (101) 
13.944000000000001

>  <r_qp_QPlogPo/w>  (101) 
3.6850000000000001

>  <r_qp_QPlogPoct>  (101) 
21.218

>  <r_qp_QPlogPw>  (101) 
10.859

>  <r_qp_QPlogS>  (101) 
-2.2370000000000001

>  <r_qp_QPpolrz>  (101) 
45.783999999999999

>  <r_qp_SASA>  (101) 
705.70000000000005

>  <r_qp_SAamideO>  (101) 
0

>  <r_qp_SAfluorine>  (101) 
0

>  <r_qp_WPSA>  (101) 
39.155000000000001

>  <r_qp_accptHB>  (101) 
8

>  <r_qp_dip^2/V>  (101) 
0.0232459

>  <r_qp_dipole>  (101) 
5.6890000000000001

>  <r_qp_donorHB>  (101) 
1

>  <r_qp_glob>  (101) 
0.85453190000000001

>  <r_qp_mol_MW>  (101) 
436.61399999999998

>  <r_qp_volume>  (101) 
1392.434

>  <r_sd_BIOSOLVEIT.INFINISEE\_FTREES\_SIMILARITY>  (101) 
0.90400000000000003

>  <r_sd_BIOSOLVEIT.LOGP>  (101) 
2.8244199999999999

>  <r_sd_BIOSOLVEIT.MOLECULAR\_WEIGHT>  (101) 
438.63600000000002

>  <r_sd_BIOSOLVEIT.TPSA>  (101) 
54.25

>  <i_epik_Tot_Q>  (101) 
2

>  <i_epik_Tot_abs_Q>  (101) 
2

>  <i_f3d_flags>  (101) 
0

>  <i_i_glide_confnum>  (101) 
2

>  <i_i_glide_lignum>  (101) 
532

>  <i_i_glide_posenum>  (101) 
2

>  <i_i_glide_rotatable_bonds>  (101) 
11

>  <i_lp_mmshare_version>  (101) 
65135

>  <i_m_ct_format>  (101) 
2

>  <i_m_source_file_index>  (101) 
1820

>  <i_qp_#NandO>  (101) 
5

>  <i_qp_#acid>  (101) 
0

>  <i_qp_#amide>  (101) 
0

>  <i_qp_#amidine>  (101) 
0

>  <i_qp_#amine>  (101) 
2

>  <i_qp_#in34>  (101) 
0

>  <i_qp_#in56>  (101) 
17

>  <i_qp_#metab>  (101) 
7

>  <i_qp_#nonHatm>  (101) 
31

>  <i_qp_#noncon>  (101) 
0

>  <i_qp_#ringatoms>  (101) 
17

>  <i_qp_#rotor>  (101) 
10

>  <i_qp_#rtvFG>  (101) 
0

>  <i_qp_#stars>  (101) 
0

>  <i_qp_CNS>  (101) 
1

>  <i_qp_HumanOralAbsorption>  (101) 
3

>  <i_qp_RuleOfFive>  (101) 
0

>  <i_qp_RuleOfThree>  (101) 
1

>  <i_sd_BIOSOLVEIT.INFINISEE\_REAGENT1\_NAME>  (101) 
8289034

>  <i_sd_BIOSOLVEIT.INFINISEE\_REAGENT2\_NAME>  (101) 
7548972

>  <i_sd_BIOSOLVEIT.INFINISEE\_RESULT\_RANK>  (101) 
79116

>  <i_sd_version>  (101) 
0

>  <b_lp_Chiralities_Consistent>  (101) 
1

>  <b_sd_chiral_flag>  (101) 
0

>  <canonical_id>  (101) 
ATP-HTVS-10900B51E20F

>  <compound_code>  (101) 
58209

>  <title>  (101) 
m_270004bbb____8289034____7548972

>  <variant>  (101) 
58209-1

>  <source_file>  (101) 
运行/运行/ATP-VSW/ATP-VSW-DOCK_HTVS_1-001_lib/ATP-VSW-DOCK_HTVS_1-001_lib

>  <canonical_smiles>  (101) 
CC[NH+](CC)Cc1ccccc1C[NH2+]Cc1csc(N(C(C)=O)c2ccc(C)cc2)n1

>  <scaffold>  (101) 
c1ccc(C[NH2+]Cc2csc(Nc3ccccc3)n2)cc1

>  <molecular_formula>  (101) 
C25H34N4OS+2

$$$$
ATP-HTVS-109B405B023F
     RDKit          3D

 55 58  0  0  0  0  0  0  0  0999 V2000
  198.4929  179.0793  155.4006 Cl  0  0  0  0  0  0  0  0  0  0  0  0
  197.7628  179.9347  154.0993 C   0  0  0  0  0  0  0  0  0  0  0  0
  197.0326  181.1313  154.2953 C   0  0  0  0  0  0  0  0  0  0  0  0
  196.4962  181.8002  153.1754 C   0  0  0  0  0  0  0  0  0  0  0  0
  196.6621  181.2613  151.8819 C   0  0  0  0  0  0  0  0  0  0  0  0
  197.3709  180.0526  151.6781 C   0  0  0  0  0  0  0  0  0  0  0  0
  197.4937  179.5582  150.3885 O   0  0  0  0  0  0  0  0  0  0  0  0
  198.4108  178.4777  150.1676 C   0  0  2  0  0  0  0  0  0  0  0  0
  199.8684  178.9867  150.2614 C   0  0  2  0  0  0  0  0  0  0  0  0
  198.1468  177.8041  148.8166 C   0  0  2  0  0  0  0  0  0  0  0  0
  197.9274  179.4109  152.8096 C   0  0  0  0  0  0  0  0  0  0  0  0
  196.8303  181.6851  155.7013 C   0  0  1  0  0  0  0  0  0  0  0  0
  197.9388  182.5511  156.1279 N   0  0  0  0  0  0  0  0  0  0  0  0
  198.0450  182.6670  157.5894 C   0  0  2  0  0  0  0  0  0  0  0  0
  196.9853  183.6166  158.1432 C   0  0  0  0  0  0  0  0  0  0  0  0
  197.0871  185.0184  157.9183 C   0  0  0  0  0  0  0  0  0  0  0  0
  198.1144  185.5816  157.1165 N   0  0  0  0  0  0  0  0  0  0  0  0
  198.6078  185.0669  155.9760 C   0  0  0  0  0  0  0  0  0  0  0  0
  199.6144  185.5383  155.4468 O   0  0  0  0  0  0  0  0  0  0  0  0
  197.9155  183.8380  155.3621 C   0  0  1  0  0  0  0  0  0  0  0  0
  196.2014  185.8956  158.5647 C   0  0  0  0  0  0  0  0  0  0  0  0
  195.1626  185.3865  159.3663 C   0  0  0  0  0  0  0  0  0  0  0  0
  195.0152  183.9974  159.5314 C   0  0  0  0  0  0  0  0  0  0  0  0
  195.9328  183.1140  158.9375 C   0  0  0  0  0  0  0  0  0  0  0  0
  199.4716  183.0182  158.0759 C   0  0  0  0  0  0  0  0  0  0  0  0
  199.6761  183.6758  159.3152 C   0  0  0  0  0  0  0  0  0  0  0  0
  200.9593  184.1285  159.6792 C   0  0  0  0  0  0  0  0  0  0  0  0
  202.0544  183.9106  158.8234 C   0  0  0  0  0  0  0  0  0  0  0  0
  201.8717  183.2187  157.6129 C   0  0  0  0  0  0  0  0  0  0  0  0
  200.5923  182.7624  157.2496 C   0  0  0  0  0  0  0  0  0  0  0  0
  195.9519  182.7186  153.3169 H   0  0  0  0  0  0  0  0  0  0  0  0
  196.2415  181.7887  151.0330 H   0  0  0  0  0  0  0  0  0  0  0  0
  198.2141  177.6950  150.8941 H   0  0  0  0  0  0  0  0  0  0  0  0
  200.5785  178.1708  150.1538 H   0  0  0  0  0  0  0  0  0  0  0  0
  200.0853  179.4646  151.2149 H   0  0  0  0  0  0  0  0  0  0  0  0
  200.0862  179.7262  149.4870 H   0  0  0  0  0  0  0  0  0  0  0  0
  198.8208  176.9558  148.6988 H   0  0  0  0  0  0  0  0  0  0  0  0
  198.2940  178.4794  147.9642 H   0  0  0  0  0  0  0  0  0  0  0  0
  197.1329  177.4072  148.7856 H   0  0  0  0  0  0  0  0  0  0  0  0
  198.5023  178.4997  152.7256 H   0  0  0  0  0  0  0  0  0  0  0  0
  195.8925  182.2240  155.7707 H   0  0  0  0  0  0  0  0  0  0  0  0
  196.7097  180.8311  156.3646 H   0  0  0  0  0  0  0  0  0  0  0  0
  197.8530  181.6808  158.0135 H   0  0  0  0  0  0  0  0  0  0  0  0
  198.5654  186.4058  157.4745 H   0  0  0  0  0  0  0  0  0  0  0  0
  198.3317  183.6637  154.3703 H   0  0  0  0  0  0  0  0  0  0  0  0
  196.8833  184.1584  155.2075 H   0  0  0  0  0  0  0  0  0  0  0  0
  196.3132  186.9632  158.4431 H   0  0  0  0  0  0  0  0  0  0  0  0
  194.4691  186.0621  159.8336 H   0  0  0  0  0  0  0  0  0  0  0  0
  194.2056  183.6140  160.1313 H   0  0  0  0  0  0  0  0  0  0  0  0
  195.8286  182.0497  159.1002 H   0  0  0  0  0  0  0  0  0  0  0  0
  198.8444  183.8864  159.9689 H   0  0  0  0  0  0  0  0  0  0  0  0
  201.0797  184.6987  160.5880 H   0  0  0  0  0  0  0  0  0  0  0  0
  203.0283  184.3000  159.0786 H   0  0  0  0  0  0  0  0  0  0  0  0
  202.6909  183.0879  156.9231 H   0  0  0  0  0  0  0  0  0  0  0  0
  200.4774  182.2699  156.2946 H   0  0  0  0  0  0  0  0  0  0  0  0
  1  2  1  0
  2  3  2  0
  2 11  1  0
  3  4  1  0
  3 12  1  0
  4  5  2  0
  4 31  1  0
  5  6  1  0
  5 32  1  0
  6  7  1  0
  6 11  2  0
  7  8  1  0
  8  9  1  0
  8 10  1  0
  8 33  1  1
  9 34  1  6
  9 35  1  0
  9 36  1  0
 10 37  1  6
 10 38  1  0
 10 39  1  0
 11 40  1  0
 12 13  1  0
 12 41  1  6
 12 42  1  0
 13 14  1  0
 13 20  1  0
 14 15  1  0
 14 25  1  0
 14 43  1  1
 15 16  1  0
 15 24  2  0
 16 17  1  0
 16 21  2  0
 17 18  1  0
 17 44  1  0
 18 19  2  0
 18 20  1  0
 20 45  1  6
 20 46  1  0
 21 22  1  0
 21 47  1  0
 22 23  2  0
 22 48  1  0
 23 24  1  0
 23 49  1  0
 24 50  1  0
 25 26  2  0
 25 30  1  0
 26 27  1  0
 26 51  1  0
 27 28  2  0
 27 52  1  0
 28 29  1  0
 28 53  1  0
 29 30  2  0
 29 54  1  0
 30 55  1  0
M  END
>  <s_epik_cmdline>  (102) 
J2VwaWtfcHl0aG9uJywgJy1waCcsICc3LjAwMDAwMCcsICctcGh0JywgJzIuMDAwMDAwJywgJy1tcycsICcxNicsICctdG4nLCAnOCcsICctbWEnLCAnMjAwJywgJy1pbWFlJywgJzxpbmZpbGUubWFlPicsICctb21hZScsICc8b3V0ZmlsZS5tYWU+Jw==

>  <s_epik_input>  (102) 
W0NIM11bQ0hdKFtDSDNdKU9jKFtjSF0xKVtjSF1bY0hdYyhjMUNsKVtDSDJdTihbQ0BIXTJjM1tjSF1bY0hdW2NIXVtjSF1bY0hdMylbQ0gyXUMoPU8pW05IXWMoYzI0KVtjSF1bY0hdW2NIXVtjSF00

>  <s_i_glide_gridfile>  (102) 
ATP-Grid

>  <s_lp_Force_Field>  (102) 
OPLS_2005

>  <s_lp_Variant>  (102) 
m_270004bda____24170338____16896454-2

>  <s_lp_label>  (102) 
1373_sdstereoexpander_3_neutralizer_1_epik_1_stereoizer_1

>  <s_m_source_file>  (102) 
ATP-VSW-LIGPREP-003-in.maegz

>  <s_sd_BIOSOLVEIT.INFINISEE\_QUERY\_NAME>  (102) 
Ref-Lig

>  <s_sd_BIOSOLVEIT.INFINISEE\_QUERY\_SMILES>  (102) 
S(c1nc2c(cc1C[NH2+]Cc3ccc(cc3)C[NH+](C)C)cccc2)Cc4ccccc4

>  <s_sd_BIOSOLVEIT.INFINISEE\_REACTION\_NAME>  (102) 
m_270004bda

>  <s_sd_BIOSOLVEIT.INFINISEE\_REAGENT1\_SMILES>  (102) 
[R1*]N1C(c2c(NC(=O)C1)cccc2)c3ccccc3

>  <s_sd_BIOSOLVEIT.INFINISEE\_REAGENT2\_SMILES>  (102) 
[R1*]Cc1c(Cl)cc(OC(C)C)cc1

>  <s_sd_BIOSOLVEIT.INFINISEE\_SPACE>  (102) 
REALSpace_44bn_2023-08

>  <s_vsw_compound_code>  (102) 
43907

>  <s_vsw_variant>  (102) 
43907-2

>  <r_epik_Charging_Adjusted_Penalty>  (102) 
0.0087634984339075902

>  <r_epik_Ionization_Penalty>  (102) 
0.0088000000000000005

>  <r_epik_Ionization_Penalty_Charging>  (102) 
0

>  <r_epik_Ionization_Penalty_Neutral>  (102) 
0.0088000000000000005

>  <r_epik_State_Penalty>  (102) 
0.0088000000000000005

>  <r_i_docking_score>  (102) 
-1.38503096339242

>  <r_i_glide_ecoul>  (102) 
-1.56867003440857

>  <r_i_glide_eff_state_penalty>  (102) 
0.0088000000000000005

>  <r_i_glide_einternal>  (102) 
6.3519425392150897

>  <r_i_glide_emodel>  (102) 
-34.417911957230203

>  <r_i_glide_energy>  (102) 
-34.434148550033598

>  <r_i_glide_erotb>  (102) 
0.446925514294989

>  <r_i_glide_esite>  (102) 
0

>  <r_i_glide_evdw>  (102) 
-32.865478515625

>  <r_i_glide_gscore>  (102) 
-1.39383096339242

>  <r_i_glide_hbond>  (102) 
0

>  <r_i_glide_ligand_efficiency>  (102) 
-0.046167698779747302

>  <r_i_glide_ligand_efficiency_ln>  (102) 
-0.31469412600380797

>  <r_i_glide_ligand_efficiency_sa>  (102) 
-0.14345377421087899

>  <r_i_glide_lipo>  (102) 
-1.3544308621690799

>  <r_i_glide_metal>  (102) 
-0

>  <r_i_glide_rewards>  (102) 
1.3922488154242101

>  <r_lp_Energy>  (102) 
56.584628000000002

>  <r_lp_tautomer_probability>  (102) 
1

>  <r_qp_ACxDN^.5/SA>  (102) 
0.0073543999999999997

>  <r_qp_CIQPlogS>  (102) 
-5.5780000000000003

>  <r_qp_EA(eV)>  (102) 
0.17499999999999999

>  <r_qp_FISA>  (102) 
60.901000000000003

>  <r_qp_FOSA>  (102) 
206.346

>  <r_qp_IP(eV)>  (102) 
9.1959999999999997

>  <r_qp_Jm>  (102) 
0.00101620818145888

>  <r_qp_PISA>  (102) 
394.43799999999999

>  <r_qp_PSA>  (102) 
48.338999999999999

>  <r_qp_PercentHumanOralAbsorption>  (102) 
100

>  <r_qp_QPPCaco>  (102) 
653.54399999999998

>  <r_qp_QPPMDCK>  (102) 
667.39999999999998

>  <r_qp_QPlogBB>  (102) 
0.22700000000000001

>  <r_qp_QPlogHERG>  (102) 
-7.242

>  <r_qp_QPlogKhsa>  (102) 
0.96099999999999997

>  <r_qp_QPlogKp>  (102) 
-2.931

>  <r_qp_QPlogPC16>  (102) 
14.151999999999999

>  <r_qp_QPlogPo/w>  (102) 
4.9790000000000001

>  <r_qp_QPlogPoct>  (102) 
20.695

>  <r_qp_QPlogPw>  (102) 
10.305999999999999

>  <r_qp_QPlogS>  (102) 
-5.6859999999999999

>  <r_qp_QPpolrz>  (102) 
47.195

>  <r_qp_SASA>  (102) 
713.86199999999997

>  <r_qp_SAamideO>  (102) 
0

>  <r_qp_SAfluorine>  (102) 
0

>  <r_qp_WPSA>  (102) 
52.176000000000002

>  <r_qp_accptHB>  (102) 
5.25

>  <r_qp_dip^2/V>  (102) 
0.040859199999999998

>  <r_qp_dipole>  (102) 
7.2969999999999997

>  <r_qp_donorHB>  (102) 
1

>  <r_qp_glob>  (102) 
0.80823800000000001

>  <r_qp_mol_MW>  (102) 
420.93799999999999

>  <r_qp_volume>  (102) 
1303.114

>  <r_sd_BIOSOLVEIT.INFINISEE\_FTREES\_SIMILARITY>  (102) 
0.90900000000000003

>  <r_sd_BIOSOLVEIT.LOGP>  (102) 
4.2538

>  <r_sd_BIOSOLVEIT.MOLECULAR\_WEIGHT>  (102) 
421.94499999999999

>  <r_sd_BIOSOLVEIT.TPSA>  (102) 
42.770000000000003

>  <i_epik_Tot_Q>  (102) 
0

>  <i_epik_Tot_abs_Q>  (102) 
0

>  <i_f3d_flags>  (102) 
0

>  <i_i_glide_confnum>  (102) 
5

>  <i_i_glide_lignum>  (102) 
531

>  <i_i_glide_posenum>  (102) 
4

>  <i_i_glide_rotatable_bonds>  (102) 
5

>  <i_lp_mmshare_version>  (102) 
65135

>  <i_m_ct_format>  (102) 
2

>  <i_m_source_file_index>  (102) 
1373

>  <i_qp_#NandO>  (102) 
4

>  <i_qp_#acid>  (102) 
0

>  <i_qp_#amide>  (102) 
0

>  <i_qp_#amidine>  (102) 
0

>  <i_qp_#amine>  (102) 
1

>  <i_qp_#in34>  (102) 
0

>  <i_qp_#in56>  (102) 
18

>  <i_qp_#metab>  (102) 
8

>  <i_qp_#nonHatm>  (102) 
30

>  <i_qp_#noncon>  (102) 
2

>  <i_qp_#ringatoms>  (102) 
23

>  <i_qp_#rotor>  (102) 
4

>  <i_qp_#rtvFG>  (102) 
0

>  <i_qp_#stars>  (102) 
0

>  <i_qp_CNS>  (102) 
1

>  <i_qp_HumanOralAbsorption>  (102) 
3

>  <i_qp_RuleOfFive>  (102) 
0

>  <i_qp_RuleOfThree>  (102) 
1

>  <i_sd_BIOSOLVEIT.INFINISEE\_REAGENT1\_NAME>  (102) 
24170338

>  <i_sd_BIOSOLVEIT.INFINISEE\_REAGENT2\_NAME>  (102) 
16896454

>  <i_sd_BIOSOLVEIT.INFINISEE\_RESULT\_RANK>  (102) 
50983

>  <i_sd_version>  (102) 
0

>  <b_lp_Chiralities_Consistent>  (102) 
1

>  <b_sd_chiral_flag>  (102) 
0

>  <canonical_id>  (102) 
ATP-HTVS-109B405B023F

>  <compound_code>  (102) 
43907

>  <title>  (102) 
m_270004bda____24170338____16896454

>  <variant>  (102) 
43907-2

>  <source_file>  (102) 
运行/运行/ATP-VSW/ATP-VSW-DOCK_HTVS_1-003_lib/ATP-VSW-DOCK_HTVS_1-003_lib.mae

>  <canonical_smiles>  (102) 
CC(C)Oc1ccc(CN2CC(=O)Nc3ccccc3[C@@H]2c2ccccc2)c(Cl)c1

>  <scaffold>  (102) 
O=C1CN(Cc2ccccc2)C(c2ccccc2)c2ccccc2N1

>  <molecular_formula>  (102) 
C25H25ClN2O2

$$$$
ATP-HTVS-10A4E2B2EADA
     RDKit          3D

 63 66  0  0  0  0  0  0  0  0999 V2000
  199.6358  185.6022  154.1423 O   0  0  0  0  0  0  0  0  0  0  0  0
  198.6645  184.8811  153.9010 C   0  0  0  0  0  0  0  0  0  0  0  0
  198.1537  184.6338  152.6801 N   0  0  0  0  0  0  0  0  0  0  0  0
  198.6063  185.0602  151.3930 C   0  0  0  0  0  0  0  0  0  0  0  0
  199.7259  185.8096  151.2583 N   0  0  0  0  0  0  0  0  0  0  0  0
  200.1265  186.2009  150.0359 C   0  0  0  0  0  0  0  0  0  0  0  0
  199.4466  185.8539  148.8586 C   0  0  0  0  0  0  0  0  0  0  0  0
  198.2864  185.0713  148.9545 C   0  0  0  0  0  0  0  0  0  0  0  0
  197.6285  184.6942  147.7763 N   0  0  0  0  0  0  0  0  0  0  0  0
  198.2167  184.0992  146.6382 C   0  0  0  0  0  0  0  0  0  0  0  0
  199.3570  183.2410  146.6945 C   0  0  0  0  0  0  0  0  0  0  0  0
  199.9945  182.9111  147.8894 N   0  0  0  0  0  0  0  0  0  0  0  0
  199.8522  182.6479  145.5195 C   0  0  0  0  0  0  0  0  0  0  0  0
  199.2429  182.8984  144.2794 C   0  0  0  0  0  0  0  0  0  0  0  0
  198.1246  183.7444  144.2142 C   0  0  0  0  0  0  0  0  0  0  0  0
  197.6035  184.3287  145.3895 C   0  0  0  0  0  0  0  0  0  0  0  0
  197.8565  184.6453  150.2450 C   0  0  0  0  0  0  0  0  0  0  0  0
  196.6663  183.7630  150.3769 C   0  0  0  0  0  0  0  0  0  0  0  0
  195.5381  184.2191  150.2373 O   0  0  0  0  0  0  0  0  0  0  0  0
  196.8927  182.3281  150.6954 C   0  0  0  0  0  0  0  0  0  0  0  0
  197.5929  181.4949  149.7932 C   0  0  0  0  0  0  0  0  0  0  0  0
  197.8319  180.1413  150.0979 C   0  0  0  0  0  0  0  0  0  0  0  0
  197.3457  179.5943  151.2998 C   0  0  0  0  0  0  0  0  0  0  0  0
  196.6121  180.4089  152.1882 C   0  0  0  0  0  0  0  0  0  0  0  0
  196.3727  181.7652  151.8804 C   0  0  0  0  0  0  0  0  0  0  0  0
  197.9255  184.2118  155.0222 C   0  0  0  0  0  0  0  0  0  0  0  0
  197.7111  184.8932  156.2376 C   0  0  0  0  0  0  0  0  0  0  0  0
  197.0361  184.2609  157.3015 C   0  0  0  0  0  0  0  0  0  0  0  0
  196.5612  182.9409  157.1584 C   0  0  0  0  0  0  0  0  0  0  0  0
  196.7783  182.2497  155.9496 C   0  0  0  0  0  0  0  0  0  0  0  0
  197.4843  182.8740  154.9016 C   0  0  0  0  0  0  0  0  0  0  0  0
  195.8342  182.2521  158.2972 C   0  0  1  0  0  0  0  0  0  0  0  0
  194.3591  182.3462  158.1377 N   0  0  2  0  0  0  0  0  0  0  0  0
  193.8084  183.6061  158.6835 C   0  0  2  0  0  0  0  0  0  0  0  0
  193.6527  181.1561  158.6506 C   0  0  2  0  0  0  0  0  0  0  0  0
  197.3106  184.0837  152.6902 H   0  0  0  0  0  0  0  0  0  0  0  0
  201.0323  186.7919  149.9925 H   0  0  0  0  0  0  0  0  0  0  0  0
  199.8322  186.1690  147.9017 H   0  0  0  0  0  0  0  0  0  0  0  0
  196.6111  184.7138  147.7861 H   0  0  0  0  0  0  0  0  0  0  0  0
  200.6683  182.1607  147.9588 H   0  0  0  0  0  0  0  0  0  0  0  0
  199.5444  183.1941  148.7422 H   0  0  0  0  0  0  0  0  0  0  0  0
  200.6911  181.9713  145.5677 H   0  0  0  0  0  0  0  0  0  0  0  0
  199.6344  182.4408  143.3831 H   0  0  0  0  0  0  0  0  0  0  0  0
  197.6548  183.9226  143.2578 H   0  0  0  0  0  0  0  0  0  0  0  0
  196.7225  184.9476  145.3512 H   0  0  0  0  0  0  0  0  0  0  0  0
  197.9226  181.8874  148.8449 H   0  0  0  0  0  0  0  0  0  0  0  0
  198.3712  179.5204  149.4000 H   0  0  0  0  0  0  0  0  0  0  0  0
  197.5310  178.5543  151.5377 H   0  0  0  0  0  0  0  0  0  0  0  0
  196.2520  179.9908  153.1199 H   0  0  0  0  0  0  0  0  0  0  0  0
  195.8010  182.3837  152.5583 H   0  0  0  0  0  0  0  0  0  0  0  0
  198.0738  185.9075  156.3453 H   0  0  0  0  0  0  0  0  0  0  0  0
  196.8861  184.7992  158.2237 H   0  0  0  0  0  0  0  0  0  0  0  0
  196.4339  181.2294  155.8298 H   0  0  0  0  0  0  0  0  0  0  0  0
  197.7029  182.3087  154.0094 H   0  0  0  0  0  0  0  0  0  0  0  0
  196.1754  181.2136  158.3202 H   0  0  0  0  0  0  0  0  0  0  0  0
  196.1395  182.6644  159.2662 H   0  0  0  0  0  0  0  0  0  0  0  0
  193.9785  183.6768  159.7577 H   0  0  0  0  0  0  0  0  0  0  0  0
  192.7322  183.6752  158.5153 H   0  0  0  0  0  0  0  0  0  0  0  0
  194.2732  184.4739  158.2100 H   0  0  0  0  0  0  0  0  0  0  0  0
  193.8798  181.0349  159.7128 H   0  0  0  0  0  0  0  0  0  0  0  0
  193.9490  180.2506  158.1302 H   0  0  0  0  0  0  0  0  0  0  0  0
  192.5743  181.2395  158.5045 H   0  0  0  0  0  0  0  0  0  0  0  0
  194.1616  182.3755  157.1321 H   0  0  0  0  0  0  0  0  0  0  0  0
  1  2  2  0
  2  3  1  0
  2 26  1  0
  3  4  1  0
  3 36  1  0
  4  5  1  0
  4 17  2  0
  5  6  2  0
  6  7  1  0
  6 37  1  0
  7  8  2  0
  7 38  1  0
  8  9  1  0
  8 17  1  0
  9 10  1  0
  9 39  1  0
 10 11  1  0
 10 16  2  0
 11 12  1  0
 11 13  2  0
 12 40  1  0
 12 41  1  0
 13 14  1  0
 13 42  1  0
 14 15  2  0
 14 43  1  0
 15 16  1  0
 15 44  1  0
 16 45  1  0
 17 18  1  0
 18 19  2  0
 18 20  1  0
 20 21  2  0
 20 25  1  0
 21 22  1  0
 21 46  1  0
 22 23  2  0
 22 47  1  0
 23 24  1  0
 23 48  1  0
 24 25  2  0
 24 49  1  0
 25 50  1  0
 26 27  1  0
 26 31  2  0
 27 28  2  0
 27 51  1  0
 28 29  1  0
 28 52  1  0
 29 30  2  0
 29 32  1  0
 30 31  1  0
 30 53  1  0
 31 54  1  0
 32 33  1  0
 32 55  1  1
 32 56  1  0
 33 34  1  0
 33 35  1  0
 33 63  1  6
 34 57  1  1
 34 58  1  0
 34 59  1  0
 35 60  1  1
 35 61  1  0
 35 62  1  0
M  CHG  1  33   1
M  END
>  <s_epik_cmdline>  (103) 
J2VwaWtfcHl0aG9uJywgJy1waCcsICc3LjAwMDAwMCcsICctcGh0JywgJzIuMDAwMDAwJywgJy1tcycsICcxNicsICctdG4nLCAnOCcsICctbWEnLCAnMjAwJywgJy1pbWFlJywgJzxpbmZpbGUubWFlPicsICctb21hZScsICc8b3V0ZmlsZS5tYWU+Jw==

>  <s_epik_input>  (103) 
W0NIM11OKFtDSDNdKVtDSDJdYyhbY0hdW2NIXTEpW2NIXVtjSF1jMUMoPU8pW05IXWMybltjSF1bY0hdYyhbTkhdYzNjKFtOSDJdKVtjSF1bY0hdW2NIXVtjSF0zKWMyQyg9TyljNFtjSF1bY0hdW2NIXVtjSF1bY0hdNA==

>  <s_i_glide_gridfile>  (103) 
ATP-Grid

>  <s_lp_Force_Field>  (103) 
OPLS_2005

>  <s_lp_Variant>  (103) 
rxn502c____EMOL18624763____EMOL36251210____EMOL493903-1

>  <s_lp_label>  (103) 
2902_sdstereoexpander_1_neutralizer_1_epik_1_stereoizer_1

>  <s_m_source_file>  (103) 
ATP-VSW-LIGPREP-001-in.maegz

>  <s_sd_BIOSOLVEIT.INFINISEE\_QUERY\_NAME>  (103) 
Ref-Lig

>  <s_sd_BIOSOLVEIT.INFINISEE\_QUERY\_SMILES>  (103) 
S(c1nc2c(cc1C[NH2+]Cc3ccc(cc3)C[NH+](C)C)cccc2)Cc4ccccc4

>  <s_sd_BIOSOLVEIT.INFINISEE\_REACTION\_NAME>  (103) 
rxn502c

>  <s_sd_BIOSOLVEIT.INFINISEE\_REAGENT1\_NAME>  (103) 
EMOL18624763

>  <s_sd_BIOSOLVEIT.INFINISEE\_REAGENT1\_SMILES>  (103) 
O=C(O)c1ccc(cc1)CN(C)C

>  <s_sd_BIOSOLVEIT.INFINISEE\_REAGENT2\_NAME>  (103) 
EMOL36251210

>  <s_sd_BIOSOLVEIT.INFINISEE\_REAGENT2\_SMILES>  (103) 
Clc1c(c(ncc1)N)C(=O)c2ccccc2

>  <s_sd_BIOSOLVEIT.INFINISEE\_REAGENT3\_NAME>  (103) 
EMOL493903

>  <s_sd_BIOSOLVEIT.INFINISEE\_REAGENT3\_SMILES>  (103) 
Nc1c(N)cccc1

>  <s_sd_BIOSOLVEIT.INFINISEE\_SPACE>  (103) 
eXplore_7tr_2022-12

>  <s_vsw_compound_code>  (103) 
92833

>  <s_vsw_variant>  (103) 
92833-1

>  <r_epik_Charging_Adjusted_Penalty>  (103) 
0.384976211411791

>  <r_epik_Ionization_Penalty>  (103) 
0.33300000000000002

>  <r_epik_Ionization_Penalty_Charging>  (103) 
0.052200000000000003

>  <r_epik_Ionization_Penalty_Neutral>  (103) 
0.28079999999999999

>  <r_epik_State_Penalty>  (103) 
0.33279999999999998

>  <r_i_docking_score>  (103) 
-4.57477617344155

>  <r_i_glide_ecoul>  (103) 
-11.3099813461304

>  <r_i_glide_eff_state_penalty>  (103) 
0.33279999999999998

>  <r_i_glide_einternal>  (103) 
12.4673175811768

>  <r_i_glide_emodel>  (103) 
-61.471910783028903

>  <r_i_glide_energy>  (103) 
-47.557024955749498

>  <r_i_glide_erotb>  (103) 
0.74150224561247002

>  <r_i_glide_esite>  (103) 
-0.10000000000000001

>  <r_i_glide_evdw>  (103) 
-36.247043609619098

>  <r_i_glide_gscore>  (103) 
-4.9075761734415497

>  <r_i_glide_hbond>  (103) 
-0.50672579534334705

>  <r_i_glide_ligand_efficiency>  (103) 
-0.13070789066975899

>  <r_i_glide_ligand_efficiency_ln>  (103) 
-1.0042649017572101

>  <r_i_glide_ligand_efficiency_sa>  (103) 
-0.42755417713895999

>  <r_i_glide_lipo>  (103) 
-1.1151664403064501

>  <r_i_glide_metal>  (103) 
-0

>  <r_i_glide_rewards>  (103) 
-0.41833680100371201

>  <r_lp_Energy>  (103) 
40.596226000000001

>  <r_qp_ACxDN^.5/SA>  (103) 
0.010544

>  <r_qp_CIQPlogS>  (103) 
-6.2460000000000004

>  <r_qp_EA(eV)>  (103) 
0.85499999999999998

>  <r_qp_FISA>  (103) 
141.48099999999999

>  <r_qp_FOSA>  (103) 
180.48599999999999

>  <r_qp_IP(eV)>  (103) 
7.952

>  <r_qp_Jm>  (103) 
0.00022162603292530901

>  <r_qp_PISA>  (103) 
491.12299999999999

>  <r_qp_PSA>  (103) 
107.538

>  <r_qp_PercentHumanOralAbsorption>  (103) 
91.221999999999994

>  <r_qp_QPPCaco>  (103) 
112.496

>  <r_qp_QPPMDCK>  (103) 
51.597000000000001

>  <r_qp_QPlogBB>  (103) 
-1.1439999999999999

>  <r_qp_QPlogHERG>  (103) 
-8.2140000000000004

>  <r_qp_QPlogKhsa>  (103) 
0.875

>  <r_qp_QPlogKp>  (103) 
-3.5950000000000002

>  <r_qp_QPlogPC16>  (103) 
17.035

>  <r_qp_QPlogPo/w>  (103) 
4.7080000000000002

>  <r_qp_QPlogPoct>  (103) 
24.321999999999999

>  <r_qp_QPlogPw>  (103) 
13.086

>  <r_qp_QPlogS>  (103) 
-5.7270000000000003

>  <r_qp_QPpolrz>  (103) 
52.473999999999997

>  <r_qp_SASA>  (103) 
813.09000000000003

>  <r_qp_SAamideO>  (103) 
0

>  <r_qp_SAfluorine>  (103) 
0

>  <r_qp_WPSA>  (103) 
0

>  <r_qp_accptHB>  (103) 
7

>  <r_qp_dip^2/V>  (103) 
0.045384500000000001

>  <r_qp_dipole>  (103) 
8.2289999999999992

>  <r_qp_donorHB>  (103) 
1.5

>  <r_qp_glob>  (103) 
0.77667209999999998

>  <r_qp_mol_MW>  (103) 
465.55399999999997

>  <r_qp_volume>  (103) 
1492.164

>  <r_sd_BIOSOLVEIT.INFINISEE\_FTREES\_SIMILARITY>  (103) 
0.90400000000000003

>  <r_sd_BIOSOLVEIT.LOGP>  (103) 
3.5352000000000001

>  <r_sd_BIOSOLVEIT.MOLECULAR\_WEIGHT>  (103) 
466.56200000000001

>  <r_sd_BIOSOLVEIT.TPSA>  (103) 
101.55

>  <i_epik_Tot_Q>  (103) 
1

>  <i_epik_Tot_abs_Q>  (103) 
1

>  <i_f3d_flags>  (103) 
0

>  <i_i_glide_confnum>  (103) 
11

>  <i_i_glide_lignum>  (103) 
1351

>  <i_i_glide_posenum>  (103) 
20

>  <i_i_glide_rotatable_bonds>  (103) 
9

>  <i_lp_mmshare_version>  (103) 
65135

>  <i_m_ct_format>  (103) 
2

>  <i_m_source_file_index>  (103) 
2902

>  <i_qp_#NandO>  (103) 
7

>  <i_qp_#acid>  (103) 
0

>  <i_qp_#amide>  (103) 
0

>  <i_qp_#amidine>  (103) 
0

>  <i_qp_#amine>  (103) 
1

>  <i_qp_#in34>  (103) 
0

>  <i_qp_#in56>  (103) 
24

>  <i_qp_#metab>  (103) 
8

>  <i_qp_#nonHatm>  (103) 
35

>  <i_qp_#noncon>  (103) 
0

>  <i_qp_#ringatoms>  (103) 
24

>  <i_qp_#rotor>  (103) 
9

>  <i_qp_#rtvFG>  (103) 
0

>  <i_qp_#stars>  (103) 
1

>  <i_qp_CNS>  (103) 
-2

>  <i_qp_HumanOralAbsorption>  (103) 
3

>  <i_qp_RuleOfFive>  (103) 
0

>  <i_qp_RuleOfThree>  (103) 
2

>  <i_sd_BIOSOLVEIT.INFINISEE\_RESULT\_RANK>  (103) 
75064

>  <i_sd_version>  (103) 
0

>  <b_lp_Chiralities_Consistent>  (103) 
1

>  <b_sd_chiral_flag>  (103) 
0

>  <canonical_id>  (103) 
ATP-HTVS-10A4E2B2EADA

>  <compound_code>  (103) 
92833

>  <title>  (103) 
rxn502c____EMOL18624763____EMOL36251210____EMOL493903

>  <variant>  (103) 
92833-1

>  <source_file>  (103) 
运行/运行/ATP-VSW/ATP-VSW-DOCK_HTVS_1-001_lib/ATP-VSW-DOCK_HTVS_1-001_lib

>  <canonical_smiles>  (103) 
C[NH+](C)Cc1ccc(C(=O)Nc2nccc(Nc3ccccc3N)c2C(=O)c2ccccc2)cc1

>  <scaffold>  (103) 
O=C(Nc1nccc(Nc2ccccc2)c1C(=O)c1ccccc1)c1ccccc1

>  <molecular_formula>  (103) 
C28H28N5O2+

$$$$
ATP-HTVS-11489B74AE1C
     RDKit          3D

 66 69  0  0  0  0  0  0  0  0999 V2000
  200.7042  176.8838  154.9674 O   0  0  0  0  0  0  0  0  0  0  0  0
  200.3335  177.9936  155.3452 C   0  0  0  0  0  0  0  0  0  0  0  0
  199.5933  178.8224  154.5913 N   0  0  0  0  0  0  0  0  0  0  0  0
  199.1563  178.6528  153.2505 C   0  0  0  0  0  0  0  0  0  0  0  0
  198.0011  179.3544  152.8241 C   0  0  0  0  0  0  0  0  0  0  0  0
  197.3063  180.1550  153.7391 N   0  0  0  0  0  0  0  0  0  0  0  0
  197.4994  181.5860  153.5645 C   0  0  1  0  0  0  0  0  0  0  0  0
  197.4576  182.3695  154.8627 C   0  0  0  0  0  0  0  0  0  0  0  0
  196.7034  181.9190  155.9688 C   0  0  0  0  0  0  0  0  0  0  0  0
  196.6626  182.6665  157.1610 C   0  0  0  0  0  0  0  0  0  0  0  0
  197.3729  183.8809  157.2500 C   0  0  0  0  0  0  0  0  0  0  0  0
  198.1237  184.3363  156.1483 C   0  0  0  0  0  0  0  0  0  0  0  0
  198.1644  183.5850  154.9583 C   0  0  0  0  0  0  0  0  0  0  0  0
  195.8674  182.1392  158.3354 C   0  0  1  0  0  0  0  0  0  0  0  0
  194.4062  182.3287  158.1316 N   0  0  1  0  0  0  0  0  0  0  0  0
  193.6228  181.1658  158.5945 C   0  0  2  0  0  0  0  0  0  0  0  0
  193.9067  183.6026  158.6996 C   0  0  2  0  0  0  0  0  0  0  0  0
  197.5735  179.2083  151.4799 C   0  0  0  0  0  0  0  0  0  0  0  0
  198.3268  178.3956  150.5901 C   0  0  0  0  0  0  0  0  0  0  0  0
  199.4257  177.7594  151.0445 N   0  0  0  0  0  0  0  0  0  0  0  0
  199.8605  177.8569  152.3177 C   0  0  0  0  0  0  0  0  0  0  0  0
  197.9371  178.2464  149.2423 C   0  0  0  0  0  0  0  0  0  0  0  0
  196.7871  178.9076  148.7745 C   0  0  0  0  0  0  0  0  0  0  0  0
  196.0209  179.6850  149.6631 C   0  0  0  0  0  0  0  0  0  0  0  0
  196.4009  179.8352  151.0045 C   0  0  0  0  0  0  0  0  0  0  0  0
  200.7117  178.5700  156.7336 C   0  0  2  0  0  0  0  0  0  0  0  0
  199.5507  179.1546  157.3000 O   0  0  0  0  0  0  0  0  0  0  0  0
  201.8315  179.6286  156.5705 C   0  0  0  0  0  0  0  0  0  0  0  0
  202.8623  179.4738  155.6101 C   0  0  0  0  0  0  0  0  0  0  0  0
  203.8802  180.4351  155.4753 C   0  0  0  0  0  0  0  0  0  0  0  0
  203.8875  181.5757  156.2964 C   0  0  0  0  0  0  0  0  0  0  0  0
  202.8743  181.7487  157.2549 C   0  0  0  0  0  0  0  0  0  0  0  0
  201.8535  180.7851  157.3911 C   0  0  0  0  0  0  0  0  0  0  0  0
  201.1273  177.4584  157.7137 C   0  0  2  0  0  0  0  0  0  0  0  0
  199.2947  179.6558  155.0752 H   0  0  0  0  0  0  0  0  0  0  0  0
  197.4210  179.8822  154.7035 H   0  0  0  0  0  0  0  0  0  0  0  0
  198.4432  181.7856  153.0460 H   0  0  0  0  0  0  0  0  0  0  0  0
  196.7072  181.9824  152.9286 H   0  0  0  0  0  0  0  0  0  0  0  0
  196.1269  181.0062  155.9195 H   0  0  0  0  0  0  0  0  0  0  0  0
  197.3556  184.4621  158.1608 H   0  0  0  0  0  0  0  0  0  0  0  0
  198.6772  185.2624  156.2194 H   0  0  0  0  0  0  0  0  0  0  0  0
  198.7357  183.9399  154.1126 H   0  0  0  0  0  0  0  0  0  0  0  0
  196.1287  181.0845  158.4473 H   0  0  0  0  0  0  0  0  0  0  0  0
  196.1984  182.6041  159.2667 H   0  0  0  0  0  0  0  0  0  0  0  0
  193.7771  181.0209  159.6641 H   0  0  0  0  0  0  0  0  0  0  0  0
  193.9295  180.2537  158.0884 H   0  0  0  0  0  0  0  0  0  0  0  0
  192.5589  181.2895  158.3821 H   0  0  0  0  0  0  0  0  0  0  0  0
  194.0582  183.6440  159.7822 H   0  0  0  0  0  0  0  0  0  0  0  0
  192.8355  183.7276  158.5154 H   0  0  0  0  0  0  0  0  0  0  0  0
  194.4251  184.4551  158.2522 H   0  0  0  0  0  0  0  0  0  0  0  0
  200.7650  177.3088  152.5388 H   0  0  0  0  0  0  0  0  0  0  0  0
  198.5027  177.6318  148.5555 H   0  0  0  0  0  0  0  0  0  0  0  0
  196.4806  178.7966  147.7438 H   0  0  0  0  0  0  0  0  0  0  0  0
  195.1185  180.1656  149.3324 H   0  0  0  0  0  0  0  0  0  0  0  0
  195.7741  180.4257  151.6552 H   0  0  0  0  0  0  0  0  0  0  0  0
  198.9033  178.4848  157.5351 H   0  0  0  0  0  0  0  0  0  0  0  0
  202.9222  178.5941  154.9890 H   0  0  0  0  0  0  0  0  0  0  0  0
  204.6619  180.2811  154.7489 H   0  0  0  0  0  0  0  0  0  0  0  0
  204.6800  182.3051  156.1947 H   0  0  0  0  0  0  0  0  0  0  0  0
  202.8799  182.6254  157.8808 H   0  0  0  0  0  0  0  0  0  0  0  0
  201.0878  180.9395  158.1359 H   0  0  0  0  0  0  0  0  0  0  0  0
  201.9810  176.8974  157.3350 H   0  0  0  0  0  0  0  0  0  0  0  0
  200.3191  176.7438  157.8794 H   0  0  0  0  0  0  0  0  0  0  0  0
  201.4035  177.8686  158.6880 H   0  0  0  0  0  0  0  0  0  0  0  0
  199.9540  177.1848  150.3886 H   0  0  0  0  0  0  0  0  0  0  0  0
  194.2289  182.3954  157.1314 H   0  0  0  0  0  0  0  0  0  0  0  0
  1  2  2  0
  2  3  1  0
  2 26  1  0
  3  4  1  0
  3 35  1  0
  4  5  2  0
  4 21  1  0
  5  6  1  0
  5 18  1  0
  6  7  1  0
  6 36  1  0
  7  8  1  0
  7 37  1  6
  7 38  1  0
  8  9  2  0
  8 13  1  0
  9 10  1  0
  9 39  1  0
 10 11  2  0
 10 14  1  0
 11 12  1  0
 11 40  1  0
 12 13  2  0
 12 41  1  0
 13 42  1  0
 14 15  1  0
 14 43  1  1
 14 44  1  0
 15 16  1  0
 15 17  1  0
 15 66  1  6
 16 45  1  1
 16 46  1  0
 16 47  1  0
 17 48  1  1
 17 49  1  0
 17 50  1  0
 18 19  1  0
 18 25  2  0
 19 20  1  0
 19 22  2  0
 20 21  2  0
 20 65  1  0
 21 51  1  0
 22 23  1  0
 22 52  1  0
 23 24  2  0
 23 53  1  0
 24 25  1  0
 24 54  1  0
 25 55  1  0
 26 27  1  1
 26 28  1  0
 26 34  1  0
 27 56  1  0
 28 29  2  0
 28 33  1  0
 29 30  1  0
 29 57  1  0
 30 31  2  0
 30 58  1  0
 31 32  1  0
 31 59  1  0
 32 33  2  0
 32 60  1  0
 33 61  1  0
 34 62  1  6
 34 63  1  0
 34 64  1  0
M  CHG  2  15   1  20   1
M  END
>  <s_epik_cmdline>  (104) 
J2VwaWtfcHl0aG9uJywgJy1waCcsICc3LjAwMDAwMCcsICctcGh0JywgJzIuMDAwMDAwJywgJy1tcycsICcxNicsICctdG4nLCAnOCcsICctbWEnLCAnMjAwJywgJy1pbWFlJywgJzxpbmZpbGUubWFlPicsICctb21hZScsICc8b3V0ZmlsZS5tYWU+Jw==

>  <s_epik_input>  (104) 
W2NIXTFbY0hdW2NIXVtjSF1bY0hdYzFbQ0BdKFtPSF0pKFtDSDNdKUMoPU8pW05IXWMoW2NIXW5jKGMyMylbY0hdW2NIXVtjSF1bY0hdMyljMltOSF1bQ0gyXWM0W2NIXWMoW2NIXVtjSF1bY0hdNClbQ0gyXU4oW0NIM10pW0NIM10=

>  <s_i_glide_gridfile>  (104) 
ATP-Grid

>  <s_lp_Force_Field>  (104) 
OPLS_2005

>  <s_lp_Variant>  (104) 
rxn502b____EMOL299976369____EMOL30488121____EMOL2873214-1

>  <s_lp_label>  (104) 
2174_sdstereoexpander_1_neutralizer_1_epik_1_stereoizer_1

>  <s_m_source_file>  (104) 
ATP-VSW-LIGPREP-003-in.maegz

>  <s_sd_BIOSOLVEIT.INFINISEE\_QUERY\_NAME>  (104) 
Ref-Lig

>  <s_sd_BIOSOLVEIT.INFINISEE\_QUERY\_SMILES>  (104) 
S(c1nc2c(cc1C[NH2+]Cc3ccc(cc3)C[NH+](C)C)cccc2)Cc4ccccc4

>  <s_sd_BIOSOLVEIT.INFINISEE\_REACTION\_NAME>  (104) 
rxn502b

>  <s_sd_BIOSOLVEIT.INFINISEE\_REAGENT1\_NAME>  (104) 
EMOL299976369

>  <s_sd_BIOSOLVEIT.INFINISEE\_REAGENT1\_SMILES>  (104) 
O=C(O)C(O)(c1ccccc1)C

>  <s_sd_BIOSOLVEIT.INFINISEE\_REAGENT2\_NAME>  (104) 
EMOL30488121

>  <s_sd_BIOSOLVEIT.INFINISEE\_REAGENT2\_SMILES>  (104) 
Brc1c(N)cnc2c1cccc2

>  <s_sd_BIOSOLVEIT.INFINISEE\_REAGENT3\_NAME>  (104) 
EMOL2873214

>  <s_sd_BIOSOLVEIT.INFINISEE\_REAGENT3\_SMILES>  (104) 
N(Cc1cc(ccc1)CN)(C)C

>  <s_sd_BIOSOLVEIT.INFINISEE\_SPACE>  (104) 
eXplore_7tr_2022-12

>  <s_vsw_compound_code>  (104) 
69539

>  <s_vsw_variant>  (104) 
69539-1

>  <r_epik_Charging_Adjusted_Penalty>  (104) 
0.14792522371542899

>  <r_epik_Ionization_Penalty>  (104) 
0.073999999999999996

>  <r_epik_Ionization_Penalty_Charging>  (104) 
0.073999999999999996

>  <r_epik_Ionization_Penalty_Neutral>  (104) 
0

>  <r_epik_State_Penalty>  (104) 
0.073999999999999996

>  <r_i_docking_score>  (104) 
-5.0383434487985301

>  <r_i_glide_ecoul>  (104) 
-16.412511825561499

>  <r_i_glide_eff_state_penalty>  (104) 
0.073999999999999996

>  <r_i_glide_einternal>  (104) 
6.2583026885986301

>  <r_i_glide_emodel>  (104) 
-67.494365990586203

>  <r_i_glide_energy>  (104) 
-46.857460021972699

>  <r_i_glide_erotb>  (104) 
0.674871193357654

>  <r_i_glide_esite>  (104) 
-0.145947078915624

>  <r_i_glide_evdw>  (104) 
-30.444948196411101

>  <r_i_glide_gscore>  (104) 
-5.11234344879853

>  <r_i_glide_hbond>  (104) 
-0.20000000000000001

>  <r_i_glide_ligand_efficiency>  (104) 
-0.14818657202348601

>  <r_i_glide_ligand_efficiency_ln>  (104) 
-1.1131113885864801

>  <r_i_glide_ligand_efficiency_sa>  (104) 
-0.48006696695384499

>  <r_i_glide_lipo>  (104) 
-1.1610930159494099

>  <r_i_glide_metal>  (104) 
-0

>  <r_i_glide_rewards>  (104) 
-0.296050363636362

>  <r_lp_Energy>  (104) 
40.914090999999999

>  <r_qp_ACxDN^.5/SA>  (104) 
0.017184499999999998

>  <r_qp_CIQPlogS>  (104) 
-5.694

>  <r_qp_EA(eV)>  (104) 
0.89000000000000001

>  <r_qp_FISA>  (104) 
72.927999999999997

>  <r_qp_FOSA>  (104) 
246.19800000000001

>  <r_qp_IP(eV)>  (104) 
8.4350000000000005

>  <r_qp_Jm>  (104) 
0.088852130796170006

>  <r_qp_PISA>  (104) 
411.61200000000002

>  <r_qp_PSA>  (104) 
75.870999999999995

>  <r_qp_PercentHumanOralAbsorption>  (104) 
100

>  <r_qp_QPPCaco>  (104) 
502.60000000000002

>  <r_qp_QPPMDCK>  (104) 
260.18799999999999

>  <r_qp_QPlogBB>  (104) 
-0.26000000000000001

>  <r_qp_QPlogHERG>  (104) 
-6.7149999999999999

>  <r_qp_QPlogKhsa>  (104) 
0.68200000000000005

>  <r_qp_QPlogKp>  (104) 
-2.6120000000000001

>  <r_qp_QPlogPC16>  (104) 
15.629

>  <r_qp_QPlogPo/w>  (104) 
4.5039999999999996

>  <r_qp_QPlogPoct>  (104) 
25.655999999999999

>  <r_qp_QPlogPw>  (104) 
14.323

>  <r_qp_QPlogS>  (104) 
-4.0970000000000004

>  <r_qp_QPpolrz>  (104) 
49.826000000000001

>  <r_qp_SASA>  (104) 
730.73800000000006

>  <r_qp_SAamideO>  (104) 
0

>  <r_qp_SAfluorine>  (104) 
0

>  <r_qp_WPSA>  (104) 
0

>  <r_qp_accptHB>  (104) 
7.25

>  <r_qp_dip^2/V>  (104) 
0.053173699999999997

>  <r_qp_dipole>  (104) 
8.766

>  <r_qp_donorHB>  (104) 
3

>  <r_qp_glob>  (104) 
0.84588640000000004

>  <r_qp_mol_MW>  (104) 
454.57100000000003

>  <r_qp_volume>  (104) 
1444.9829999999999

>  <r_sd_BIOSOLVEIT.INFINISEE\_FTREES\_SIMILARITY>  (104) 
0.93799999999999994

>  <r_sd_BIOSOLVEIT.LOGP>  (104) 
3.3376000000000001

>  <r_sd_BIOSOLVEIT.MOLECULAR\_WEIGHT>  (104) 
455.57900000000001

>  <r_sd_BIOSOLVEIT.TPSA>  (104) 
78.689999999999998

>  <i_epik_Tot_Q>  (104) 
2

>  <i_epik_Tot_abs_Q>  (104) 
2

>  <i_f3d_flags>  (104) 
0

>  <i_i_glide_confnum>  (104) 
8

>  <i_i_glide_lignum>  (104) 
821

>  <i_i_glide_posenum>  (104) 
17

>  <i_i_glide_rotatable_bonds>  (104) 
10

>  <i_lp_mmshare_version>  (104) 
65135

>  <i_m_ct_format>  (104) 
2

>  <i_m_source_file_index>  (104) 
2174

>  <i_qp_#NandO>  (104) 
6

>  <i_qp_#acid>  (104) 
0

>  <i_qp_#amide>  (104) 
0

>  <i_qp_#amidine>  (104) 
0

>  <i_qp_#amine>  (104) 
1

>  <i_qp_#in34>  (104) 
0

>  <i_qp_#in56>  (104) 
22

>  <i_qp_#metab>  (104) 
8

>  <i_qp_#nonHatm>  (104) 
34

>  <i_qp_#noncon>  (104) 
0

>  <i_qp_#ringatoms>  (104) 
22

>  <i_qp_#rotor>  (104) 
9

>  <i_qp_#rtvFG>  (104) 
0

>  <i_qp_#stars>  (104) 
0

>  <i_qp_CNS>  (104) 
0

>  <i_qp_HumanOralAbsorption>  (104) 
3

>  <i_qp_RuleOfFive>  (104) 
0

>  <i_qp_RuleOfThree>  (104) 
1

>  <i_sd_BIOSOLVEIT.INFINISEE\_RESULT\_RANK>  (104) 
1684

>  <i_sd_version>  (104) 
0

>  <b_lp_Chiralities_Consistent>  (104) 
1

>  <b_sd_chiral_flag>  (104) 
0

>  <canonical_id>  (104) 
ATP-HTVS-11489B74AE1C

>  <compound_code>  (104) 
69539

>  <title>  (104) 
rxn502b____EMOL299976369____EMOL30488121____EMOL2873214

>  <variant>  (104) 
69539-1

>  <source_file>  (104) 
运行/运行/ATP-VSW/ATP-VSW-DOCK_HTVS_1-003_lib/ATP-VSW-DOCK_HTVS_1-003_lib.mae

>  <canonical_smiles>  (104) 
C[NH+](C)Cc1cccc(CNc2c(NC(=O)[C@](C)(O)c3ccccc3)c[nH+]c3ccccc23)c1

>  <scaffold>  (104) 
O=C(Cc1ccccc1)Nc1c[nH+]c2ccccc2c1NCc1ccccc1

>  <molecular_formula>  (104) 
C28H32N4O2+2

$$$$
ATP-HTVS-115B93EFBC96
     RDKit          3D

 54 57  0  0  0  0  0  0  0  0999 V2000
  197.6474  187.0516  156.5202 Cl  0  0  0  0  0  0  0  0  0  0  0  0
  196.9512  186.2287  157.8694 C   0  0  0  0  0  0  0  0  0  0  0  0
  196.7481  184.8307  157.8233 C   0  0  0  0  0  0  0  0  0  0  0  0
  197.1384  184.1685  156.6761 O   0  0  0  0  0  0  0  0  0  0  0  0
  196.7466  182.8097  156.5084 C   0  0  1  0  0  0  0  0  0  0  0  0
  197.0597  182.3478  155.0797 C   0  0  0  0  0  0  0  0  0  0  0  0
  197.1776  183.1590  154.1631 O   0  0  0  0  0  0  0  0  0  0  0  0
  197.2204  181.0227  154.9295 N   0  0  0  0  0  0  0  0  0  0  0  0
  197.5613  180.3240  153.7424 C   0  0  0  0  0  0  0  0  0  0  0  0
  196.8484  180.4690  152.5988 N   0  0  0  0  0  0  0  0  0  0  0  0
  197.1617  179.7447  151.5024 C   0  0  0  0  0  0  0  0  0  0  0  0
  198.2330  178.8184  151.5090 C   0  0  0  0  0  0  0  0  0  0  0  0
  198.9839  178.6634  152.6813 C   0  0  0  0  0  0  0  0  0  0  0  0
  198.6627  179.4210  153.8284 C   0  0  0  0  0  0  0  0  0  0  0  0
  199.4258  179.2906  155.0076 N   0  0  0  0  0  0  0  0  0  0  0  0
  200.8660  179.0360  154.8139 C   0  0  2  0  0  0  0  0  0  0  0  0
  201.1608  177.5940  154.7305 C   0  0  0  0  0  0  0  0  0  0  0  0
  201.3919  176.4611  154.6559 N   0  0  0  0  0  0  0  0  0  0  0  0
  201.7871  179.7399  155.8003 C   0  0  0  0  0  0  0  0  0  0  0  0
  201.6405  179.5650  157.1954 C   0  0  0  0  0  0  0  0  0  0  0  0
  202.4925  180.2440  158.0888 C   0  0  0  0  0  0  0  0  0  0  0  0
  203.5202  181.0721  157.5960 C   0  0  0  0  0  0  0  0  0  0  0  0
  203.6932  181.2287  156.2048 C   0  0  0  0  0  0  0  0  0  0  0  0
  202.8226  180.5692  155.3118 C   0  0  0  0  0  0  0  0  0  0  0  0
  198.7230  178.6391  156.1042 C   0  0  2  0  0  0  0  0  0  0  0  0
  198.5513  178.0499  150.3689 C   0  0  0  0  0  0  0  0  0  0  0  0
  197.8075  178.2112  149.1886 C   0  0  0  0  0  0  0  0  0  0  0  0
  196.7455  179.1327  149.1627 C   0  0  0  0  0  0  0  0  0  0  0  0
  196.4247  179.8855  150.3124 C   0  0  0  0  0  0  0  0  0  0  0  0
  196.1620  184.1928  158.9489 C   0  0  0  0  0  0  0  0  0  0  0  0
  195.7905  184.9435  160.0824 C   0  0  0  0  0  0  0  0  0  0  0  0
  195.9977  186.3353  160.1122 C   0  0  0  0  0  0  0  0  0  0  0  0
  196.5794  186.9759  159.0040 C   0  0  0  0  0  0  0  0  0  0  0  0
  197.2828  182.1829  157.2215 H   0  0  0  0  0  0  0  0  0  0  0  0
  195.6788  182.6844  156.6876 H   0  0  0  0  0  0  0  0  0  0  0  0
  197.2336  180.4801  155.7800 H   0  0  0  0  0  0  0  0  0  0  0  0
  199.7813  177.9386  152.6770 H   0  0  0  0  0  0  0  0  0  0  0  0
  201.1466  179.4419  153.8474 H   0  0  0  0  0  0  0  0  0  0  0  0
  200.8725  178.9007  157.5928 H   0  0  0  0  0  0  0  0  0  0  0  0
  202.3650  180.1183  159.1522 H   0  0  0  0  0  0  0  0  0  0  0  0
  204.1870  181.5704  158.2822 H   0  0  0  0  0  0  0  0  0  0  0  0
  204.5004  181.8418  155.8210 H   0  0  0  0  0  0  0  0  0  0  0  0
  202.9661  180.6969  154.2520 H   0  0  0  0  0  0  0  0  0  0  0  0
  197.6382  178.7517  156.0362 H   0  0  0  0  0  0  0  0  0  0  0  0
  199.0442  179.0527  157.0634 H   0  0  0  0  0  0  0  0  0  0  0  0
  198.9085  177.5668  156.1136 H   0  0  0  0  0  0  0  0  0  0  0  0
  199.3717  177.3452  150.3895 H   0  0  0  0  0  0  0  0  0  0  0  0
  198.0528  177.6328  148.3098 H   0  0  0  0  0  0  0  0  0  0  0  0
  196.1707  179.2564  148.2574 H   0  0  0  0  0  0  0  0  0  0  0  0
  195.6058  180.5909  150.2934 H   0  0  0  0  0  0  0  0  0  0  0  0
  195.9900  183.1268  158.9672 H   0  0  0  0  0  0  0  0  0  0  0  0
  195.3470  184.4487  160.9309 H   0  0  0  0  0  0  0  0  0  0  0  0
  195.7147  186.9131  160.9797 H   0  0  0  0  0  0  0  0  0  0  0  0
  196.7406  188.0440  159.0207 H   0  0  0  0  0  0  0  0  0  0  0  0
  1  2  1  0
  2  3  1  0
  2 33  2  0
  3  4  1  0
  3 30  2  0
  4  5  1  0
  5  6  1  0
  5 34  1  1
  5 35  1  0
  6  7  2  0
  6  8  1  0
  8  9  1  0
  8 36  1  0
  9 10  2  0
  9 14  1  0
 10 11  1  0
 11 12  1  0
 11 29  2  0
 12 13  1  0
 12 26  2  0
 13 14  2  0
 13 37  1  0
 14 15  1  0
 15 16  1  0
 15 25  1  0
 16 17  1  0
 16 19  1  0
 16 38  1  6
 17 18  3  0
 19 20  2  0
 19 24  1  0
 20 21  1  0
 20 39  1  0
 21 22  2  0
 21 40  1  0
 22 23  1  0
 22 41  1  0
 23 24  2  0
 23 42  1  0
 24 43  1  0
 25 44  1  6
 25 45  1  0
 25 46  1  0
 26 27  1  0
 26 47  1  0
 27 28  2  0
 27 48  1  0
 28 29  1  0
 28 49  1  0
 29 50  1  0
 30 31  1  0
 30 51  1  0
 31 32  2  0
 31 52  1  0
 32 33  1  0
 32 53  1  0
 33 54  1  0
M  END
>  <s_epik_cmdline>  (105) 
J2VwaWtfcHl0aG9uJywgJy1waCcsICc3LjAwMDAwMCcsICctcGh0JywgJzIuMDAwMDAwJywgJy1tcycsICcxNicsICctdG4nLCAnOCcsICctbWEnLCAnMjAwJywgJy1pbWFlJywgJzxpbmZpbGUubWFlPicsICctb21hZScsICc8b3V0ZmlsZS5tYWU+Jw==

>  <s_epik_input>  (105) 
W2NIXTFbY0hdW2NIXVtjSF1jKGMxQ2wpT1tDSDJdQyg9TylbTkhdYyhuMiljKFtjSF1jKGMyMylbY0hdW2NIXVtjSF1bY0hdMylOKFtDSDNdKVtDQEhdKEMjTiljNFtjSF1bY0hdW2NIXVtjSF1bY0hdNA==

>  <s_i_glide_gridfile>  (105) 
ATP-Grid

>  <s_lp_Force_Field>  (105) 
OPLS_2005

>  <s_lp_Variant>  (105) 
rxn502b____EMOL15318088____EMOL44466703____EMOL24630243-2

>  <s_lp_label>  (105) 
3070_sdstereoexpander_2_neutralizer_1_epik_1_stereoizer_1

>  <s_m_source_file>  (105) 
ATP-VSW-LIGPREP-001-in.maegz

>  <s_sd_BIOSOLVEIT.INFINISEE\_QUERY\_NAME>  (105) 
Ref-Lig

>  <s_sd_BIOSOLVEIT.INFINISEE\_QUERY\_SMILES>  (105) 
S(c1nc2c(cc1C[NH2+]Cc3ccc(cc3)C[NH+](C)C)cccc2)Cc4ccccc4

>  <s_sd_BIOSOLVEIT.INFINISEE\_REACTION\_NAME>  (105) 
rxn502b

>  <s_sd_BIOSOLVEIT.INFINISEE\_REAGENT1\_NAME>  (105) 
EMOL15318088

>  <s_sd_BIOSOLVEIT.INFINISEE\_REAGENT1\_SMILES>  (105) 
Clc1c(OCC(Cl)=O)cccc1

>  <s_sd_BIOSOLVEIT.INFINISEE\_REAGENT2\_NAME>  (105) 
EMOL44466703

>  <s_sd_BIOSOLVEIT.INFINISEE\_REAGENT2\_SMILES>  (105) 
Brc1c(nc2c(c1)cccc2)N

>  <s_sd_BIOSOLVEIT.INFINISEE\_REAGENT3\_NAME>  (105) 
EMOL24630243

>  <s_sd_BIOSOLVEIT.INFINISEE\_REAGENT3\_SMILES>  (105) 
N#CC(NC)c1ccccc1

>  <s_sd_BIOSOLVEIT.INFINISEE\_SPACE>  (105) 
eXplore_7tr_2022-12

>  <s_vsw_compound_code>  (105) 
98209

>  <s_vsw_variant>  (105) 
98209-2

>  <r_epik_Charging_Adjusted_Penalty>  (105) 
0.0075542484821918398

>  <r_epik_Ionization_Penalty>  (105) 
0.0030000000000000001

>  <r_epik_Ionization_Penalty_Charging>  (105) 
0

>  <r_epik_Ionization_Penalty_Neutral>  (105) 
0.0030000000000000001

>  <r_epik_State_Penalty>  (105) 
0.0076

>  <r_i_docking_score>  (105) 
-3.64122190653447

>  <r_i_glide_ecoul>  (105) 
-2.46643114089966

>  <r_i_glide_eff_state_penalty>  (105) 
0.0076

>  <r_i_glide_einternal>  (105) 
6.7557544708251998

>  <r_i_glide_emodel>  (105) 
-45.246702971036399

>  <r_i_glide_energy>  (105) 
-39.167393207549999

>  <r_i_glide_erotb>  (105) 
0.67394667598751101

>  <r_i_glide_esite>  (105) 
-0.099529270835877703

>  <r_i_glide_evdw>  (105) 
-36.700962066650398

>  <r_i_glide_gscore>  (105) 
-3.64882190653447

>  <r_i_glide_hbond>  (105) 
0

>  <r_i_glide_ligand_efficiency>  (105) 
-0.110340057773772

>  <r_i_glide_ligand_efficiency_ln>  (105) 
-0.80978889877523896

>  <r_i_glide_ligand_efficiency_sa>  (105) 
-0.35391952287060202

>  <r_i_glide_lipo>  (105) 
-1.7245213554004599

>  <r_i_glide_metal>  (105) 
-0

>  <r_i_glide_rewards>  (105) 
-0.293705181818181

>  <r_lp_Energy>  (105) 
29.579939

>  <r_lp_tautomer_probability>  (105) 
1

>  <r_qp_ACxDN^.5/SA>  (105) 
0.0098705000000000008

>  <r_qp_CIQPlogS>  (105) 
-8.1210000000000004

>  <r_qp_EA(eV)>  (105) 
1.0620000000000001

>  <r_qp_FISA>  (105) 
114.211

>  <r_qp_FOSA>  (105) 
84.731999999999999

>  <r_qp_IP(eV)>  (105) 
8.7690000000000001

>  <r_qp_Jm>  (105) 
0.021178157135503299

>  <r_qp_PISA>  (105) 
451.76900000000001

>  <r_qp_PSA>  (105) 
80.579999999999998

>  <r_qp_PercentHumanOralAbsorption>  (105) 
100

>  <r_qp_QPPCaco>  (105) 
818.16200000000003

>  <r_qp_QPPMDCK>  (105) 
604.92200000000003

>  <r_qp_QPlogBB>  (105) 
-0.89700000000000002

>  <r_qp_QPlogHERG>  (105) 
-6.1539999999999999

>  <r_qp_QPlogKhsa>  (105) 
0.52500000000000002

>  <r_qp_QPlogKp>  (105) 
-1.2649999999999999

>  <r_qp_QPlogPC16>  (105) 
14.824

>  <r_qp_QPlogPo/w>  (105) 
4.5700000000000003

>  <r_qp_QPlogPoct>  (105) 
21.155000000000001

>  <r_qp_QPlogPw>  (105) 
11.574999999999999

>  <r_qp_QPlogS>  (105) 
-6.069

>  <r_qp_QPpolrz>  (105) 
45.526000000000003

>  <r_qp_SASA>  (105) 
683.85500000000002

>  <r_qp_SAamideO>  (105) 
0

>  <r_qp_SAfluorine>  (105) 
0

>  <r_qp_WPSA>  (105) 
33.143999999999998

>  <r_qp_accptHB>  (105) 
6.75

>  <r_qp_dip^2/V>  (105) 
0.036302500000000001

>  <r_qp_dipole>  (105) 
6.9009999999999998

>  <r_qp_donorHB>  (105) 
1

>  <r_qp_glob>  (105) 
0.84748780000000001

>  <r_qp_mol_MW>  (105) 
456.93000000000001

>  <r_qp_volume>  (105) 
1311.894

>  <r_sd_BIOSOLVEIT.INFINISEE\_FTREES\_SIMILARITY>  (105) 
0.90200000000000002

>  <r_sd_BIOSOLVEIT.LOGP>  (105) 
5.6067799999999997

>  <r_sd_BIOSOLVEIT.MOLECULAR\_WEIGHT>  (105) 
456.93099999999998

>  <r_sd_BIOSOLVEIT.TPSA>  (105) 
78.25

>  <i_epik_Tot_Q>  (105) 
0

>  <i_epik_Tot_abs_Q>  (105) 
0

>  <i_f3d_flags>  (105) 
0

>  <i_i_glide_confnum>  (105) 
4

>  <i_i_glide_lignum>  (105) 
38

>  <i_i_glide_posenum>  (105) 
15

>  <i_i_glide_rotatable_bonds>  (105) 
8

>  <i_lp_mmshare_version>  (105) 
65135

>  <i_m_ct_format>  (105) 
2

>  <i_m_source_file_index>  (105) 
3070

>  <i_qp_#NandO>  (105) 
6

>  <i_qp_#acid>  (105) 
0

>  <i_qp_#amide>  (105) 
0

>  <i_qp_#amidine>  (105) 
0

>  <i_qp_#amine>  (105) 
0

>  <i_qp_#in34>  (105) 
0

>  <i_qp_#in56>  (105) 
22

>  <i_qp_#metab>  (105) 
5

>  <i_qp_#nonHatm>  (105) 
33

>  <i_qp_#noncon>  (105) 
0

>  <i_qp_#ringatoms>  (105) 
22

>  <i_qp_#rotor>  (105) 
8

>  <i_qp_#rtvFG>  (105) 
0

>  <i_qp_#stars>  (105) 
1

>  <i_qp_CNS>  (105) 
-1

>  <i_qp_HumanOralAbsorption>  (105) 
3

>  <i_qp_RuleOfFive>  (105) 
0

>  <i_qp_RuleOfThree>  (105) 
1

>  <i_sd_BIOSOLVEIT.INFINISEE\_RESULT\_RANK>  (105) 
93107

>  <i_sd_version>  (105) 
0

>  <b_lp_Chiralities_Consistent>  (105) 
1

>  <b_sd_chiral_flag>  (105) 
0

>  <canonical_id>  (105) 
ATP-HTVS-115B93EFBC96

>  <compound_code>  (105) 
98209

>  <title>  (105) 
rxn502b____EMOL15318088____EMOL44466703____EMOL24630243

>  <variant>  (105) 
98209-2

>  <source_file>  (105) 
运行/运行/ATP-VSW/ATP-VSW-DOCK_HTVS_1-002_lib.maegz

>  <canonical_smiles>  (105) 
CN(c1cc2ccccc2nc1NC(=O)COc1ccccc1Cl)[C@H](C#N)c1ccccc1

>  <scaffold>  (105) 
O=C(COc1ccccc1)Nc1nc2ccccc2cc1NCc1ccccc1

>  <molecular_formula>  (105) 
C26H21ClN4O2

$$$$
ATP-HTVS-11C14F34C5FE
     RDKit          3D

 49 52  0  0  0  0  0  0  0  0999 V2000
  197.8570  179.5636  154.9591 Cl  0  0  0  0  0  0  0  0  0  0  0  0
  198.0632  181.2376  154.6035 C   0  0  0  0  0  0  0  0  0  0  0  0
  198.4183  182.1605  155.6125 C   0  0  0  0  0  0  0  0  0  0  0  0
  198.6406  183.4599  155.3573 N   0  0  0  0  0  0  0  0  0  0  0  0
  198.3707  183.9766  154.1382 C   0  0  0  0  0  0  0  0  0  0  0  0
  198.0332  183.1268  153.0524 C   0  0  0  0  0  0  0  0  0  0  0  0
  197.8684  181.7476  153.2914 C   0  0  0  0  0  0  0  0  0  0  0  0
  197.6038  180.7951  152.1873 C   0  0  0  0  0  0  0  0  0  0  0  0
  196.3412  180.7625  151.5594 C   0  0  0  0  0  0  0  0  0  0  0  0
  196.1114  179.8674  150.5037 C   0  0  0  0  0  0  0  0  0  0  0  0
  197.1420  179.0139  150.0754 C   0  0  0  0  0  0  0  0  0  0  0  0
  198.4034  179.0358  150.6930 C   0  0  0  0  0  0  0  0  0  0  0  0
  198.6385  179.9339  151.7482 C   0  0  0  0  0  0  0  0  0  0  0  0
  197.8252  183.7013  151.7678 C   0  0  0  0  0  0  0  0  0  0  0  0
  197.9370  185.0864  151.5713 C   0  0  0  0  0  0  0  0  0  0  0  0
  198.1878  185.9317  152.6670 C   0  0  0  0  0  0  0  0  0  0  0  0
  198.4219  185.3569  153.9278 C   0  0  0  0  0  0  0  0  0  0  0  0
  198.4622  181.7556  157.0704 C   0  0  1  0  0  0  0  0  0  0  0  0
  197.1458  181.4674  157.6677 N   0  0  0  0  0  0  0  0  0  0  0  0
  196.0944  182.5072  157.6005 C   0  0  2  0  0  0  0  0  0  0  0  0
  196.5733  183.8728  158.0911 C   0  0  0  0  0  0  0  0  0  0  0  0
  196.9886  184.8482  157.1546 C   0  0  0  0  0  0  0  0  0  0  0  0
  197.5595  186.0627  157.5931 C   0  0  0  0  0  0  0  0  0  0  0  0
  198.0865  186.9453  156.7225 F   0  0  0  0  0  0  0  0  0  0  0  0
  197.5829  186.3879  158.9624 C   0  0  0  0  0  0  0  0  0  0  0  0
  197.0454  185.4709  159.8967 C   0  0  0  0  0  0  0  0  0  0  0  0
  196.5869  184.1994  159.4747 C   0  0  0  0  0  0  0  0  0  0  0  0
  194.8478  182.0275  158.3873 C   0  0  1  0  0  0  0  0  0  0  0  0
  193.7892  182.9462  158.1459 O   0  0  0  0  0  0  0  0  0  0  0  0
  196.7855  180.5437  157.4085 H   0  0  0  0  0  0  0  0  0  0  0  0
  195.5720  181.4359  151.9054 H   0  0  0  0  0  0  0  0  0  0  0  0
  195.1451  179.8485  150.0409 H   0  0  0  0  0  0  0  0  0  0  0  0
  196.9574  178.3214  149.2702 H   0  0  0  0  0  0  0  0  0  0  0  0
  199.1857  178.3712  150.3774 H   0  0  0  0  0  0  0  0  0  0  0  0
  199.6058  179.9631  152.2359 H   0  0  0  0  0  0  0  0  0  0  0  0
  197.6223  183.0898  150.8958 H   0  0  0  0  0  0  0  0  0  0  0  0
  197.8353  185.5352  150.5828 H   0  0  0  0  0  0  0  0  0  0  0  0
  198.2414  187.0059  152.5548 H   0  0  0  0  0  0  0  0  0  0  0  0
  198.5805  186.0201  154.7653 H   0  0  0  0  0  0  0  0  0  0  0  0
  199.1152  180.8948  157.1766 H   0  0  0  0  0  0  0  0  0  0  0  0
  198.9283  182.5549  157.6359 H   0  0  0  0  0  0  0  0  0  0  0  0
  195.8327  182.5833  156.5570 H   0  0  0  0  0  0  0  0  0  0  0  0
  196.8594  184.6685  156.1067 H   0  0  0  0  0  0  0  0  0  0  0  0
  197.9525  187.3682  159.2811 H   0  0  0  0  0  0  0  0  0  0  0  0
  196.9720  185.7470  160.9556 H   0  0  0  0  0  0  0  0  0  0  0  0
  196.2058  183.5137  160.2331 H   0  0  0  0  0  0  0  0  0  0  0  0
  194.5093  181.0491  158.0710 H   0  0  0  0  0  0  0  0  0  0  0  0
  195.0250  181.9701  159.4525 H   0  0  0  0  0  0  0  0  0  0  0  0
  193.6375  182.9821  157.1555 H   0  0  0  0  0  0  0  0  0  0  0  0
  1  2  1  0
  2  3  1  0
  2  7  2  0
  3  4  2  0
  3 18  1  0
  4  5  1  0
  5  6  1  0
  5 17  2  0
  6  7  1  0
  6 14  2  0
  7  8  1  0
  8  9  2  0
  8 13  1  0
  9 10  1  0
  9 31  1  0
 10 11  2  0
 10 32  1  0
 11 12  1  0
 11 33  1  0
 12 13  2  0
 12 34  1  0
 13 35  1  0
 14 15  1  0
 14 36  1  0
 15 16  2  0
 15 37  1  0
 16 17  1  0
 16 38  1  0
 17 39  1  0
 18 19  1  0
 18 40  1  6
 18 41  1  0
 19 20  1  0
 19 30  1  0
 20 21  1  0
 20 28  1  0
 20 42  1  6
 21 22  1  0
 21 27  2  0
 22 23  2  0
 22 43  1  0
 23 24  1  0
 23 25  1  0
 25 26  2  0
 25 44  1  0
 26 27  1  0
 26 45  1  0
 27 46  1  0
 28 29  1  0
 28 47  1  6
 28 48  1  0
 29 49  1  0
M  END
>  <s_epik_cmdline>  (106) 
J2VwaWtfcHl0aG9uJywgJy1waCcsICc3LjAwMDAwMCcsICctcGh0JywgJzIuMDAwMDAwJywgJy1tcycsICcxNicsICctdG4nLCAnOCcsICctbWEnLCAnMjAwJywgJy1pbWFlJywgJzxpbmZpbGUubWFlPicsICctb21hZScsICc8b3V0ZmlsZS5tYWU+Jw==

>  <s_epik_input>  (106) 
W2NIXTFbY0hdW2NIXVtjSF1bY0hdYzEtYyhjKGMyMylbY0hdW2NIXVtjSF1bY0hdMyljKENsKWMobjIpW0NIMl1bTkhdW0NAQEhdKFtDSDJdW09IXSljNFtjSF1jKEYpW2NIXVtjSF1bY0hdNA==

>  <s_i_glide_gridfile>  (106) 
ATP-Grid

>  <s_lp_Force_Field>  (106) 
OPLS_2005

>  <s_lp_Variant>  (106) 
m_2230bbb____8627196____7471132-3

>  <s_lp_label>  (106) 
1102_sdstereoexpander_1_neutralizer_1_epik_2_stereoizer_1

>  <s_m_source_file>  (106) 
ATP-VSW-LIGPREP-001-in.maegz

>  <s_sd_BIOSOLVEIT.INFINISEE\_QUERY\_NAME>  (106) 
Ref-Lig

>  <s_sd_BIOSOLVEIT.INFINISEE\_QUERY\_SMILES>  (106) 
S(c1nc2c(cc1C[NH2+]Cc3ccc(cc3)C[NH+](C)C)cccc2)Cc4ccccc4

>  <s_sd_BIOSOLVEIT.INFINISEE\_REACTION\_NAME>  (106) 
m_2230bbb

>  <s_sd_BIOSOLVEIT.INFINISEE\_REAGENT1\_SMILES>  (106) 
[R1*]NC(c1cc(F)ccc1)CO

>  <s_sd_BIOSOLVEIT.INFINISEE\_REAGENT2\_SMILES>  (106) 
[R1*]Cc1nc2c(c(c1Cl)c3ccccc3)cccc2

>  <s_sd_BIOSOLVEIT.INFINISEE\_SPACE>  (106) 
REALSpace_44bn_2023-08

>  <s_vsw_compound_code>  (106) 
35233

>  <s_vsw_variant>  (106) 
35233-3

>  <r_epik_Charging_Adjusted_Penalty>  (106) 
0.65528578074544397

>  <r_epik_Ionization_Penalty>  (106) 
0.65590000000000004

>  <r_epik_Ionization_Penalty_Charging>  (106) 
0

>  <r_epik_Ionization_Penalty_Neutral>  (106) 
0.65590000000000004

>  <r_epik_State_Penalty>  (106) 
0.65529999999999999

>  <r_i_docking_score>  (106) 
-4.1555560817603103

>  <r_i_glide_ecoul>  (106) 
-10.7689294815063

>  <r_i_glide_eff_state_penalty>  (106) 
0.65529999999999999

>  <r_i_glide_einternal>  (106) 
3.8752865791320801

>  <r_i_glide_emodel>  (106) 
-50.354229308154402

>  <r_i_glide_energy>  (106) 
-39.244214057922399

>  <r_i_glide_erotb>  (106) 
0.59397141724518898

>  <r_i_glide_esite>  (106) 
0

>  <r_i_glide_evdw>  (106) 
-28.475284576416001

>  <r_i_glide_gscore>  (106) 
-4.8108560817603099

>  <r_i_glide_hbond>  (106) 
-0.299920267661338

>  <r_i_glide_ligand_efficiency>  (106) 
-0.14329503730207999

>  <r_i_glide_ligand_efficiency_ln>  (106) 
-0.95151696691295096

>  <r_i_glide_ligand_efficiency_sa>  (106) 
-0.44024775364631202

>  <r_i_glide_lipo>  (106) 
-1.3462667909080199

>  <r_i_glide_metal>  (106) 
-0

>  <r_i_glide_rewards>  (106) 
-0.71953678938939203

>  <r_lp_Energy>  (106) 
32.596544999999999

>  <r_qp_ACxDN^.5/SA>  (106) 
0.0085290999999999995

>  <r_qp_CIQPlogS>  (106) 
-5.9820000000000002

>  <r_qp_EA(eV)>  (106) 
1.03

>  <r_qp_FISA>  (106) 
73.741

>  <r_qp_FOSA>  (106) 
76.971000000000004

>  <r_qp_IP(eV)>  (106) 
8.8919999999999995

>  <r_qp_Jm>  (106) 
0.0062810749571248301

>  <r_qp_PISA>  (106) 
474.71300000000002

>  <r_qp_PSA>  (106) 
45.537999999999997

>  <r_qp_PercentHumanOralAbsorption>  (106) 
100

>  <r_qp_QPPCaco>  (106) 
493.75299999999999

>  <r_qp_QPPMDCK>  (106) 
624.85000000000002

>  <r_qp_QPlogBB>  (106) 
-0.047

>  <r_qp_QPlogHERG>  (106) 
-7.702

>  <r_qp_QPlogKhsa>  (106) 
0.81000000000000005

>  <r_qp_QPlogKp>  (106) 
-2.597

>  <r_qp_QPlogPC16>  (106) 
13.993

>  <r_qp_QPlogPo/w>  (106) 
4.9370000000000003

>  <r_qp_QPlogPoct>  (106) 
20.210000000000001

>  <r_qp_QPlogPw>  (106) 
10.673

>  <r_qp_QPlogS>  (106) 
-5.2149999999999999

>  <r_qp_QPpolrz>  (106) 
43.689

>  <r_qp_SASA>  (106) 
696.40499999999997

>  <r_qp_SAamideO>  (106) 
0

>  <r_qp_SAfluorine>  (106) 
46.975999999999999

>  <r_qp_WPSA>  (106) 
70.980000000000004

>  <r_qp_accptHB>  (106) 
4.2000000000000002

>  <r_qp_dip^2/V>  (106) 
0.019599499999999999

>  <r_qp_dipole>  (106) 
4.9390000000000001

>  <r_qp_donorHB>  (106) 
2

>  <r_qp_glob>  (106) 
0.80345690000000003

>  <r_qp_mol_MW>  (106) 
406.88600000000002

>  <r_qp_volume>  (106) 
1244.4839999999999

>  <r_sd_BIOSOLVEIT.INFINISEE\_FTREES\_SIMILARITY>  (106) 
0.91300000000000003

>  <r_sd_BIOSOLVEIT.LOGP>  (106) 
4.4912999999999998

>  <r_sd_BIOSOLVEIT.MOLECULAR\_WEIGHT>  (106) 
407.89400000000001

>  <r_sd_BIOSOLVEIT.TPSA>  (106) 
49.729999999999997

>  <i_epik_Tot_Q>  (106) 
0

>  <i_epik_Tot_abs_Q>  (106) 
0

>  <i_f3d_flags>  (106) 
0

>  <i_i_glide_confnum>  (106) 
5

>  <i_i_glide_lignum>  (106) 
258

>  <i_i_glide_posenum>  (106) 
16

>  <i_i_glide_rotatable_bonds>  (106) 
7

>  <i_lp_mmshare_version>  (106) 
65135

>  <i_m_ct_format>  (106) 
2

>  <i_m_source_file_index>  (106) 
1102

>  <i_qp_#NandO>  (106) 
3

>  <i_qp_#acid>  (106) 
0

>  <i_qp_#amide>  (106) 
0

>  <i_qp_#amidine>  (106) 
0

>  <i_qp_#amine>  (106) 
1

>  <i_qp_#in34>  (106) 
0

>  <i_qp_#in56>  (106) 
22

>  <i_qp_#metab>  (106) 
5

>  <i_qp_#nonHatm>  (106) 
29

>  <i_qp_#noncon>  (106) 
0

>  <i_qp_#ringatoms>  (106) 
22

>  <i_qp_#rotor>  (106) 
7

>  <i_qp_#rtvFG>  (106) 
0

>  <i_qp_#stars>  (106) 
1

>  <i_qp_CNS>  (106) 
1

>  <i_qp_HumanOralAbsorption>  (106) 
3

>  <i_qp_RuleOfFive>  (106) 
0

>  <i_qp_RuleOfThree>  (106) 
0

>  <i_sd_BIOSOLVEIT.INFINISEE\_REAGENT1\_NAME>  (106) 
8627196

>  <i_sd_BIOSOLVEIT.INFINISEE\_REAGENT2\_NAME>  (106) 
7471132

>  <i_sd_BIOSOLVEIT.INFINISEE\_RESULT\_RANK>  (106) 
33416

>  <i_sd_version>  (106) 
0

>  <b_lp_Chiralities_Consistent>  (106) 
1

>  <b_sd_chiral_flag>  (106) 
0

>  <canonical_id>  (106) 
ATP-HTVS-11C14F34C5FE

>  <compound_code>  (106) 
35233

>  <title>  (106) 
m_2230bbb____8627196____7471132

>  <variant>  (106) 
35233-3

>  <source_file>  (106) 
运行/运行/ATP-VSW/ATP-VSW-DOCK_HTVS_1-001_lib/ATP-VSW-DOCK_HTVS_1-001_lib

>  <canonical_smiles>  (106) 
OC[C@H](NCc1nc2ccccc2c(-c2ccccc2)c1Cl)c1cccc(F)c1

>  <scaffold>  (106) 
c1ccc(CNCc2cc(-c3ccccc3)c3ccccc3n2)cc1

>  <molecular_formula>  (106) 
C24H20ClFN2O

$$$$
ATP-HTVS-11CEFB3A39DF
     RDKit          3D

 59 62  0  0  0  0  0  0  0  0999 V2000
  193.5593  186.9468  161.9058 N   0  0  0  0  0  0  0  0  0  0  0  0
  194.3588  186.6370  161.1277 C   0  0  0  0  0  0  0  0  0  0  0  0
  195.3762  186.2381  160.1442 C   0  0  1  0  0  0  0  0  0  0  0  0
  195.8653  184.7990  160.3701 C   0  0  1  0  0  0  0  0  0  0  0  0
  195.4053  183.8866  159.3209 N   0  0  0  0  0  0  0  0  0  0  0  0
  196.3116  183.1941  158.4818 C   0  0  0  0  0  0  0  0  0  0  0  0
  195.8350  182.2900  157.4973 C   0  0  0  0  0  0  0  0  0  0  0  0
  196.7175  181.6170  156.6351 C   0  0  0  0  0  0  0  0  0  0  0  0
  198.1018  181.8214  156.7556 C   0  0  0  0  0  0  0  0  0  0  0  0
  198.6027  182.6940  157.7311 C   0  0  0  0  0  0  0  0  0  0  0  0
  197.7182  183.3755  158.5856 C   0  0  0  0  0  0  0  0  0  0  0  0
  199.0436  181.0989  155.8393 C   0  0  1  0  0  0  0  0  0  0  0  0
  199.4104  179.7814  156.4033 N   0  0  1  0  0  0  0  0  0  0  0  0
  200.5572  179.1374  155.7237 C   0  0  1  0  0  0  0  0  0  0  0  0
  200.1504  178.4949  154.4007 C   0  0  0  0  0  0  0  0  0  0  0  0
  200.4608  177.1893  153.8789 C   0  0  0  0  0  0  0  0  0  0  0  0
  199.9470  177.0248  152.6638 N   0  0  0  0  0  0  0  0  0  0  0  0
  199.2972  178.1701  152.3594 N   0  0  0  0  0  0  0  0  0  0  0  0
  198.5963  178.3490  151.1298 C   0  0  0  0  0  0  0  0  0  0  0  0
  198.6560  177.3621  150.1199 C   0  0  0  0  0  0  0  0  0  0  0  0
  197.9673  177.5460  148.9038 C   0  0  0  0  0  0  0  0  0  0  0  0
  197.2150  178.7157  148.6883 C   0  0  0  0  0  0  0  0  0  0  0  0
  197.1436  179.7029  149.6866 C   0  0  0  0  0  0  0  0  0  0  0  0
  197.8293  179.5191  150.9025 C   0  0  0  0  0  0  0  0  0  0  0  0
  199.4204  179.0710  153.3963 C   0  0  0  0  0  0  0  0  0  0  0  0
  201.2547  176.0873  154.4628 C   0  0  0  0  0  0  0  0  0  0  0  0
  201.7592  175.0490  153.6324 C   0  0  0  0  0  0  0  0  0  0  0  0
  202.5372  174.0178  154.2053 C   0  0  0  0  0  0  0  0  0  0  0  0
  202.8642  174.0002  155.5176 N   0  0  0  0  0  0  0  0  0  0  0  0
  202.3752  174.9809  156.3020 C   0  0  0  0  0  0  0  0  0  0  0  0
  201.5458  176.0251  155.8470 C   0  0  0  0  0  0  0  0  0  0  0  0
  193.9789  183.8450  159.0066 C   0  0  2  0  0  0  0  0  0  0  0  0
  199.6685  179.9175  157.3674 H   0  0  0  0  0  0  0  0  0  0  0  0
  194.9802  186.3769  159.1377 H   0  0  0  0  0  0  0  0  0  0  0  0
  196.2170  186.9258  160.2467 H   0  0  0  0  0  0  0  0  0  0  0  0
  196.9506  184.8333  160.4824 H   0  0  0  0  0  0  0  0  0  0  0  0
  195.5356  184.4113  161.3242 H   0  0  0  0  0  0  0  0  0  0  0  0
  194.7829  182.0858  157.3543 H   0  0  0  0  0  0  0  0  0  0  0  0
  196.3222  180.9388  155.8874 H   0  0  0  0  0  0  0  0  0  0  0  0
  199.6688  182.8502  157.8268 H   0  0  0  0  0  0  0  0  0  0  0  0
  198.1833  184.0353  159.3020 H   0  0  0  0  0  0  0  0  0  0  0  0
  198.5187  181.0044  154.8781 H   0  0  0  0  0  0  0  0  0  0  0  0
  199.9384  181.7094  155.6890 H   0  0  0  0  0  0  0  0  0  0  0  0
  201.3628  179.8698  155.5629 H   0  0  0  0  0  0  0  0  0  0  0  0
  200.9271  178.4594  156.4723 H   0  0  0  0  0  0  0  0  0  0  0  0
  199.2335  176.4615  150.2719 H   0  0  0  0  0  0  0  0  0  0  0  0
  198.0286  176.7866  148.1402 H   0  0  0  0  0  0  0  0  0  0  0  0
  196.6978  178.8547  147.7528 H   0  0  0  0  0  0  0  0  0  0  0  0
  196.5709  180.6046  149.5245 H   0  0  0  0  0  0  0  0  0  0  0  0
  197.7440  180.3058  151.6365 H   0  0  0  0  0  0  0  0  0  0  0  0
  198.9651  180.0544  153.3161 H   0  0  0  0  0  0  0  0  0  0  0  0
  201.5543  175.0153  152.5763 H   0  0  0  0  0  0  0  0  0  0  0  0
  202.9168  173.1961  153.6050 H   0  0  0  0  0  0  0  0  0  0  0  0
  202.6277  174.9420  157.3415 H   0  0  0  0  0  0  0  0  0  0  0  0
  201.1622  176.7029  156.5748 H   0  0  0  0  0  0  0  0  0  0  0  0
  193.5570  182.8438  159.1253 H   0  0  0  0  0  0  0  0  0  0  0  0
  193.8123  184.1657  157.9787 H   0  0  0  0  0  0  0  0  0  0  0  0
  193.4092  184.5188  159.6483 H   0  0  0  0  0  0  0  0  0  0  0  0
  198.6043  179.1694  156.4161 H   0  0  0  0  0  0  0  0  0  0  0  0
  1  2  3  0
  2  3  1  0
  3  4  1  0
  3 34  1  6
  3 35  1  0
  4  5  1  0
  4 36  1  1
  4 37  1  0
  5  6  1  0
  5 32  1  0
  6  7  1  0
  6 11  2  0
  7  8  2  0
  7 38  1  0
  8  9  1  0
  8 39  1  0
  9 10  2  0
  9 12  1  0
 10 11  1  0
 10 40  1  0
 11 41  1  0
 12 13  1  0
 12 42  1  6
 12 43  1  0
 13 14  1  0
 13 33  1  1
 13 59  1  0
 14 15  1  0
 14 44  1  6
 14 45  1  0
 15 16  1  0
 15 25  2  0
 16 17  2  0
 16 26  1  0
 17 18  1  0
 18 19  1  0
 18 25  1  0
 19 20  2  0
 19 24  1  0
 20 21  1  0
 20 46  1  0
 21 22  2  0
 21 47  1  0
 22 23  1  0
 22 48  1  0
 23 24  2  0
 23 49  1  0
 24 50  1  0
 25 51  1  0
 26 27  2  0
 26 31  1  0
 27 28  1  0
 27 52  1  0
 28 29  2  0
 28 53  1  0
 29 30  1  0
 30 31  2  0
 30 54  1  0
 31 55  1  0
 32 56  1  6
 32 57  1  0
 32 58  1  0
M  CHG  1  13   1
M  END
>  <s_epik_cmdline>  (107) 
J2VwaWtfcHl0aG9uJywgJy1waCcsICc3LjAwMDAwMCcsICctcGh0JywgJzIuMDAwMDAwJywgJy1tcycsICcxNicsICctdG4nLCAnOCcsICctbWEnLCAnMjAwJywgJy1pbWFlJywgJzxpbmZpbGUubWFlPicsICctb21hZScsICc8b3V0ZmlsZS5tYWU+Jw==

>  <s_epik_input>  (107) 
TiNDW0NIMl1bQ0gyXU4oW0NIM10pYzFbY0hdW2NIXWMoW2NIXVtjSF0xKVtDSDJdW05IXVtDSDJdYzJjKC1jM1tjSF1bY0hdbltjSF1bY0hdMylubihbY0hdMiktYzRbY0hdW2NIXVtjSF1bY0hdW2NIXTQ=

>  <s_i_glide_gridfile>  (107) 
ATP-Grid

>  <s_lp_Force_Field>  (107) 
OPLS_2005

>  <s_lp_Variant>  (107) 
m_270004bbb____8292364____7547234-1

>  <s_lp_label>  (107) 
1922_sdstereoexpander_1_neutralizer_1_epik_1_stereoizer_1

>  <s_m_source_file>  (107) 
ATP-VSW-LIGPREP-003-in.maegz

>  <s_sd_BIOSOLVEIT.INFINISEE\_QUERY\_NAME>  (107) 
Ref-Lig

>  <s_sd_BIOSOLVEIT.INFINISEE\_QUERY\_SMILES>  (107) 
S(c1nc2c(cc1C[NH2+]Cc3ccc(cc3)C[NH+](C)C)cccc2)Cc4ccccc4

>  <s_sd_BIOSOLVEIT.INFINISEE\_REACTION\_NAME>  (107) 
m_270004bbb

>  <s_sd_BIOSOLVEIT.INFINISEE\_REAGENT1\_SMILES>  (107) 
[R1*]NCC=1C(=NN(c2ccccc2)C1)c3ccncc3

>  <s_sd_BIOSOLVEIT.INFINISEE\_REAGENT2\_SMILES>  (107) 
[R1*]Cc1ccc(N(CCC#N)C)cc1

>  <s_sd_BIOSOLVEIT.INFINISEE\_SPACE>  (107) 
REALSpace_44bn_2023-08

>  <s_vsw_compound_code>  (107) 
61475

>  <s_vsw_variant>  (107) 
61475-1

>  <r_epik_Charging_Adjusted_Penalty>  (107) 
0.172440995501557

>  <r_epik_Ionization_Penalty>  (107) 
0.088599999999999998

>  <r_epik_Ionization_Penalty_Charging>  (107) 
0.083900000000000002

>  <r_epik_Ionization_Penalty_Neutral>  (107) 
0.0047000000000000002

>  <r_epik_State_Penalty>  (107) 
0.088599999999999998

>  <r_i_docking_score>  (107) 
-5.0306086001535002

>  <r_i_glide_ecoul>  (107) 
-7.9116678237915004

>  <r_i_glide_eff_state_penalty>  (107) 
0.088599999999999998

>  <r_i_glide_einternal>  (107) 
7.3585896492004403

>  <r_i_glide_emodel>  (107) 
-62.376501966555701

>  <r_i_glide_energy>  (107) 
-46.010441780090297

>  <r_i_glide_erotb>  (107) 
0.88394483615375397

>  <r_i_glide_esite>  (107) 
-0.059985632748791803

>  <r_i_glide_evdw>  (107) 
-38.0987739562988

>  <r_i_glide_gscore>  (107) 
-5.1192086001534998

>  <r_i_glide_hbond>  (107) 
0

>  <r_i_glide_ligand_efficiency>  (107) 
-0.15720651875479699

>  <r_i_glide_ligand_efficiency_ln>  (107) 
-1.1264903947856899

>  <r_i_glide_ligand_efficiency_sa>  (107) 
-0.49909958591866299

>  <r_i_glide_lipo>  (107) 
-1.7388719984156999

>  <r_i_glide_metal>  (107) 
-0

>  <r_i_glide_rewards>  (107) 
-1.11260693375909

>  <r_lp_Energy>  (107) 
20.120082

>  <r_lp_tautomer_probability>  (107) 
1

>  <r_qp_ACxDN^.5/SA>  (107) 
0.0081563999999999994

>  <r_qp_CIQPlogS>  (107) 
-6.5330000000000004

>  <r_qp_EA(eV)>  (107) 
0.75900000000000001

>  <r_qp_FISA>  (107) 
115.748

>  <r_qp_FOSA>  (107) 
185.51599999999999

>  <r_qp_IP(eV)>  (107) 
8.2149999999999999

>  <r_qp_Jm>  (107) 
4.1435840159159798e-05

>  <r_qp_PISA>  (107) 
495.65699999999998

>  <r_qp_PSA>  (107) 
70.403999999999996

>  <r_qp_PercentHumanOralAbsorption>  (107) 
95.620000000000005

>  <r_qp_QPPCaco>  (107) 
197.315

>  <r_qp_QPPMDCK>  (107) 
94.706999999999994

>  <r_qp_QPlogBB>  (107) 
-0.83199999999999996

>  <r_qp_QPlogHERG>  (107) 
-8.3930000000000007

>  <r_qp_QPlogKhsa>  (107) 
0.83299999999999996

>  <r_qp_QPlogKp>  (107) 
-3.2010000000000001

>  <r_qp_QPlogPC16>  (107) 
16.166

>  <r_qp_QPlogPo/w>  (107) 
4.7130000000000001

>  <r_qp_QPlogPoct>  (107) 
22.378

>  <r_qp_QPlogPw>  (107) 
11.898

>  <r_qp_QPlogS>  (107) 
-6.8070000000000004

>  <r_qp_QPpolrz>  (107) 
50.302999999999997

>  <r_qp_SASA>  (107) 
796.92100000000005

>  <r_qp_SAamideO>  (107) 
0

>  <r_qp_SAfluorine>  (107) 
0

>  <r_qp_WPSA>  (107) 
0

>  <r_qp_accptHB>  (107) 
6.5

>  <r_qp_dip^2/V>  (107) 
0.043450099999999998

>  <r_qp_dipole>  (107) 
7.8570000000000002

>  <r_qp_donorHB>  (107) 
1

>  <r_qp_glob>  (107) 
0.76695270000000004

>  <r_qp_mol_MW>  (107) 
422.53199999999998

>  <r_qp_volume>  (107) 
1420.7850000000001

>  <r_sd_BIOSOLVEIT.INFINISEE\_FTREES\_SIMILARITY>  (107) 
0.90300000000000002

>  <r_sd_BIOSOLVEIT.LOGP>  (107) 
3.5477799999999999

>  <r_sd_BIOSOLVEIT.MOLECULAR\_WEIGHT>  (107) 
423.541

>  <r_sd_BIOSOLVEIT.TPSA>  (107) 
74.349999999999994

>  <i_epik_Tot_Q>  (107) 
1

>  <i_epik_Tot_abs_Q>  (107) 
1

>  <i_f3d_flags>  (107) 
0

>  <i_i_glide_confnum>  (107) 
5

>  <i_i_glide_lignum>  (107) 
722

>  <i_i_glide_posenum>  (107) 
9

>  <i_i_glide_rotatable_bonds>  (107) 
9

>  <i_lp_mmshare_version>  (107) 
65135

>  <i_m_ct_format>  (107) 
2

>  <i_m_source_file_index>  (107) 
1922

>  <i_qp_#NandO>  (107) 
6

>  <i_qp_#acid>  (107) 
0

>  <i_qp_#amide>  (107) 
0

>  <i_qp_#amidine>  (107) 
0

>  <i_qp_#amine>  (107) 
1

>  <i_qp_#in34>  (107) 
0

>  <i_qp_#in56>  (107) 
23

>  <i_qp_#metab>  (107) 
7

>  <i_qp_#nonHatm>  (107) 
32

>  <i_qp_#noncon>  (107) 
0

>  <i_qp_#ringatoms>  (107) 
23

>  <i_qp_#rotor>  (107) 
8

>  <i_qp_#rtvFG>  (107) 
0

>  <i_qp_#stars>  (107) 
2

>  <i_qp_CNS>  (107) 
0

>  <i_qp_HumanOralAbsorption>  (107) 
1

>  <i_qp_RuleOfFive>  (107) 
0

>  <i_qp_RuleOfThree>  (107) 
2

>  <i_sd_BIOSOLVEIT.INFINISEE\_REAGENT1\_NAME>  (107) 
8292364

>  <i_sd_BIOSOLVEIT.INFINISEE\_REAGENT2\_NAME>  (107) 
7547234

>  <i_sd_BIOSOLVEIT.INFINISEE\_RESULT\_RANK>  (107) 
85898

>  <i_sd_version>  (107) 
0

>  <b_lp_Chiralities_Consistent>  (107) 
1

>  <b_sd_chiral_flag>  (107) 
0

>  <canonical_id>  (107) 
ATP-HTVS-11CEFB3A39DF

>  <compound_code>  (107) 
61475

>  <title>  (107) 
m_270004bbb____8292364____7547234

>  <variant>  (107) 
61475-1

>  <source_file>  (107) 
运行/运行/ATP-VSW/ATP-VSW-DOCK_HTVS_1-003_lib/ATP-VSW-DOCK_HTVS_1-003_lib.mae

>  <canonical_smiles>  (107) 
CN(CCC#N)c1ccc(C[NH2+]Cc2cn(-c3ccccc3)nc2-c2ccncc2)cc1

>  <scaffold>  (107) 
c1ccc(C[NH2+]Cc2cn(-c3ccccc3)nc2-c2ccncc2)cc1

>  <molecular_formula>  (107) 
C26H27N6+

$$$$
ATP-HTVS-11E35EA06531
     RDKit          3D

 64 67  0  0  0  0  0  0  0  0999 V2000
  198.7004  179.6474  153.4472 N   0  0  0  0  0  0  0  0  0  0  0  0
  198.6016  179.7674  154.7575 C   0  0  0  0  0  0  0  0  0  0  0  0
  199.1819  178.9166  155.6207 N   0  0  0  0  0  0  0  0  0  0  0  0
  199.8956  177.8766  155.1409 C   0  0  0  0  0  0  0  0  0  0  0  0
  200.0438  177.6892  153.7551 C   0  0  0  0  0  0  0  0  0  0  0  0
  199.4046  178.6319  152.9127 C   0  0  0  0  0  0  0  0  0  0  0  0
  199.4390  178.4982  151.5174 N   0  0  0  0  0  0  0  0  0  0  0  0
  199.0439  179.5841  150.6244 C   0  0  1  0  0  0  0  0  0  0  0  0
  198.5199  179.0748  149.2900 C   0  0  0  0  0  0  0  0  0  0  0  0
  197.1337  179.0749  149.0034 C   0  0  0  0  0  0  0  0  0  0  0  0
  196.6822  178.6012  147.7524 C   0  0  0  0  0  0  0  0  0  0  0  0
  197.5945  178.1302  146.7935 C   0  0  0  0  0  0  0  0  0  0  0  0
  198.9722  178.1143  147.0815 C   0  0  0  0  0  0  0  0  0  0  0  0
  199.8728  177.6249  146.1335 N   0  0  0  0  0  0  0  0  0  0  0  0
  199.4313  178.5885  148.3286 C   0  0  0  0  0  0  0  0  0  0  0  0
  196.1218  179.5908  150.0085 C   0  0  2  0  0  0  0  0  0  0  0  0
  200.7745  176.5744  153.2853 C   0  0  0  0  0  0  0  0  0  0  0  0
  201.3556  175.6764  154.2097 C   0  0  0  0  0  0  0  0  0  0  0  0
  201.2092  175.8880  155.5979 C   0  0  0  0  0  0  0  0  0  0  0  0
  200.4765  176.9951  156.0636 C   0  0  0  0  0  0  0  0  0  0  0  0
  197.8847  180.8391  155.2324 N   0  0  0  0  0  0  0  0  0  0  0  0
  197.6689  181.1188  156.6356 C   0  0  1  0  0  0  0  0  0  0  0  0
  197.6256  182.5986  156.9950 C   0  0  0  0  0  0  0  0  0  0  0  0
  196.7254  183.1262  157.9675 C   0  0  0  0  0  0  0  0  0  0  0  0
  196.8078  184.5050  158.2785 C   0  0  0  0  0  0  0  0  0  0  0  0
  197.6963  185.3595  157.5993 C   0  0  0  0  0  0  0  0  0  0  0  0
  198.5922  184.8348  156.6574 C   0  0  0  0  0  0  0  0  0  0  0  0
  198.5670  183.4561  156.3721 C   0  0  0  0  0  0  0  0  0  0  0  0
  195.6866  182.2651  158.6971 C   0  0  1  0  0  0  0  0  0  0  0  0
  194.3134  182.4372  158.1318 N   0  0  1  0  0  0  0  0  0  0  0  0
  193.4773  181.2288  158.2832 C   0  0  2  0  0  0  0  0  0  0  0  0
  193.6122  183.6428  158.6349 C   0  0  2  0  0  0  0  0  0  0  0  0
  199.9518  177.7299  151.1101 H   0  0  0  0  0  0  0  0  0  0  0  0
  198.3051  180.2406  151.0860 H   0  0  0  0  0  0  0  0  0  0  0  0
  199.9137  180.2153  150.4387 H   0  0  0  0  0  0  0  0  0  0  0  0
  195.6294  178.6015  147.5177 H   0  0  0  0  0  0  0  0  0  0  0  0
  197.2323  177.7710  145.8399 H   0  0  0  0  0  0  0  0  0  0  0  0
  200.8666  177.5955  146.3121 H   0  0  0  0  0  0  0  0  0  0  0  0
  199.5731  177.3070  145.2180 H   0  0  0  0  0  0  0  0  0  0  0  0
  200.4899  178.5858  148.5467 H   0  0  0  0  0  0  0  0  0  0  0  0
  195.1088  179.4366  149.6458 H   0  0  0  0  0  0  0  0  0  0  0  0
  196.2492  180.6608  150.1726 H   0  0  0  0  0  0  0  0  0  0  0  0
  196.2222  179.0736  150.9633 H   0  0  0  0  0  0  0  0  0  0  0  0
  200.8961  176.3819  152.2292 H   0  0  0  0  0  0  0  0  0  0  0  0
  201.9212  174.8247  153.8531 H   0  0  0  0  0  0  0  0  0  0  0  0
  201.6607  175.2018  156.3023 H   0  0  0  0  0  0  0  0  0  0  0  0
  200.3513  177.1454  157.1249 H   0  0  0  0  0  0  0  0  0  0  0  0
  197.3553  181.3761  154.5531 H   0  0  0  0  0  0  0  0  0  0  0  0
  196.7143  180.6460  156.8490 H   0  0  0  0  0  0  0  0  0  0  0  0
  198.4348  180.6660  157.2624 H   0  0  0  0  0  0  0  0  0  0  0  0
  196.1857  184.9490  159.0379 H   0  0  0  0  0  0  0  0  0  0  0  0
  197.7015  186.4173  157.8222 H   0  0  0  0  0  0  0  0  0  0  0  0
  199.3065  185.4815  156.1653 H   0  0  0  0  0  0  0  0  0  0  0  0
  199.3033  183.0668  155.6761 H   0  0  0  0  0  0  0  0  0  0  0  0
  195.9841  181.2063  158.7168 H   0  0  0  0  0  0  0  0  0  0  0  0
  195.6967  182.5294  159.7556 H   0  0  0  0  0  0  0  0  0  0  0  0
  193.3472  180.9572  159.3354 H   0  0  0  0  0  0  0  0  0  0  0  0
  193.9181  180.3814  157.7604 H   0  0  0  0  0  0  0  0  0  0  0  0
  192.4928  181.3905  157.8423 H   0  0  0  0  0  0  0  0  0  0  0  0
  193.5211  183.6049  159.7205 H   0  0  0  0  0  0  0  0  0  0  0  0
  192.6107  183.6930  158.2175 H   0  0  0  0  0  0  0  0  0  0  0  0
  194.1133  184.5758  158.3773 H   0  0  0  0  0  0  0  0  0  0  0  0
  199.0462  178.9881  156.6185 H   0  0  0  0  0  0  0  0  0  0  0  0
  194.3625  182.5617  157.1328 H   0  0  0  0  0  0  0  0  0  0  0  0
  1  2  1  0
  1  6  2  0
  2  3  2  0
  2 21  1  0
  3  4  1  0
  3 63  1  0
  4  5  1  0
  4 20  2  0
  5  6  1  0
  5 17  2  0
  6  7  1  0
  7  8  1  0
  7 33  1  0
  8  9  1  0
  8 34  1  1
  8 35  1  0
  9 10  2  0
  9 15  1  0
 10 11  1  0
 10 16  1  0
 11 12  2  0
 11 36  1  0
 12 13  1  0
 12 37  1  0
 13 14  1  0
 13 15  2  0
 14 38  1  0
 14 39  1  0
 15 40  1  0
 16 41  1  6
 16 42  1  0
 16 43  1  0
 17 18  1  0
 17 44  1  0
 18 19  2  0
 18 45  1  0
 19 20  1  0
 19 46  1  0
 20 47  1  0
 21 22  1  0
 21 48  1  0
 22 23  1  0
 22 49  1  1
 22 50  1  0
 23 24  1  0
 23 28  2  0
 24 25  2  0
 24 29  1  0
 25 26  1  0
 25 51  1  0
 26 27  2  0
 26 52  1  0
 27 28  1  0
 27 53  1  0
 28 54  1  0
 29 30  1  0
 29 55  1  1
 29 56  1  0
 30 31  1  0
 30 32  1  0
 30 64  1  6
 31 57  1  1
 31 58  1  0
 31 59  1  0
 32 60  1  1
 32 61  1  0
 32 62  1  0
M  CHG  2   3   1  30   1
M  END
>  <s_epik_cmdline>  (108) 
J2VwaWtfcHl0aG9uJywgJy1waCcsICc3LjAwMDAwMCcsICctcGh0JywgJzIuMDAwMDAwJywgJy1tcycsICcxNicsICctdG4nLCAnOCcsICctbWEnLCAnMjAwJywgJy1pbWFlJywgJzxpbmZpbGUubWFlPicsICctb21hZScsICc8b3V0ZmlsZS5tYWU+Jw==

>  <s_epik_input>  (108) 
W2NIXTFbY0hdW2NIXVtjSF1jKFtDSDJdTihbQ0gzXSlbQ0gzXSljMVtDSDJdW05IXWMobjIpbmMoYyhjMjMpW2NIXVtjSF1bY0hdW2NIXTMpW05IXVtDSDJdYzRjKFtDSDNdKVtjSF1bY0hdYyhbTkgyXSlbY0hdNA==

>  <s_i_glide_gridfile>  (108) 
ATP-Grid

>  <s_lp_Force_Field>  (108) 
OPLS_2005

>  <s_lp_Variant>  (108) 
m_282030aaa____21898820____22360182____21973156-1

>  <s_lp_label>  (108) 
1923_sdstereoexpander_1_neutralizer_1_epik_1_stereoizer_1

>  <s_m_source_file>  (108) 
ATP-VSW-LIGPREP-001-in.maegz

>  <s_sd_BIOSOLVEIT.INFINISEE\_QUERY\_NAME>  (108) 
Ref-Lig

>  <s_sd_BIOSOLVEIT.INFINISEE\_QUERY\_SMILES>  (108) 
S(c1nc2c(cc1C[NH2+]Cc3ccc(cc3)C[NH+](C)C)cccc2)Cc4ccccc4

>  <s_sd_BIOSOLVEIT.INFINISEE\_REACTION\_NAME>  (108) 
m_282030aaa

>  <s_sd_BIOSOLVEIT.INFINISEE\_REAGENT1\_SMILES>  (108) 
[R1*]NCc1c(ccc(N)c1)C

>  <s_sd_BIOSOLVEIT.INFINISEE\_REAGENT2\_SMILES>  (108) 
[R2*]c1nc([R1*])c2c(n1)cccc2

>  <s_sd_BIOSOLVEIT.INFINISEE\_REAGENT3\_SMILES>  (108) 
[R2*]NCc1c(cccc1)CN(C)C

>  <s_sd_BIOSOLVEIT.INFINISEE\_SPACE>  (108) 
REALSpace_44bn_2023-08

>  <s_vsw_compound_code>  (108) 
61505

>  <s_vsw_variant>  (108) 
61505-1

>  <r_epik_Charging_Adjusted_Penalty>  (108) 
0.12299932816864199

>  <r_epik_Ionization_Penalty>  (108) 
0.063399999999999998

>  <r_epik_Ionization_Penalty_Charging>  (108) 
0.055

>  <r_epik_Ionization_Penalty_Neutral>  (108) 
0.0083999999999999995

>  <r_epik_State_Penalty>  (108) 
0.068000000000000005

>  <r_i_docking_score>  (108) 
-4.2362395751234398

>  <r_i_glide_ecoul>  (108) 
-9.5931005477905291

>  <r_i_glide_eff_state_penalty>  (108) 
0.068000000000000005

>  <r_i_glide_einternal>  (108) 
3.5518333911895801

>  <r_i_glide_emodel>  (108) 
-60.784573712931802

>  <r_i_glide_energy>  (108) 
-41.914084434509299

>  <r_i_glide_erotb>  (108) 
0.75706870877358701

>  <r_i_glide_esite>  (108) 
-0.26619348794881897

>  <r_i_glide_evdw>  (108) 
-32.3209838867188

>  <r_i_glide_gscore>  (108) 
-4.3042395751234404

>  <r_i_glide_hbond>  (108) 
-0.20000000000000001

>  <r_i_glide_ligand_efficiency>  (108) 
-0.13238248672260799

>  <r_i_glide_ligand_efficiency_ln>  (108) 
-0.94860951639965896

>  <r_i_glide_ligand_efficiency_sa>  (108) 
-0.42028819688573099

>  <r_i_glide_lipo>  (108) 
-1.0530947012618801

>  <r_i_glide_metal>  (108) 
-0

>  <r_i_glide_rewards>  (108) 
-0.48700581818181699

>  <r_lp_Energy>  (108) 
22.172456

>  <r_qp_ACxDN^.5/SA>  (108) 
0.0150592

>  <r_qp_CIQPlogS>  (108) 
-5.5439999999999996

>  <r_qp_EA(eV)>  (108) 
0.39600000000000002

>  <r_qp_FISA>  (108) 
90.501999999999995

>  <r_qp_FOSA>  (108) 
206.28700000000001

>  <r_qp_IP(eV)>  (108) 
7.7690000000000001

>  <r_qp_Jm>  (108) 
0.01616550501801

>  <r_qp_PISA>  (108) 
448.59800000000001

>  <r_qp_PSA>  (108) 
69.498000000000005

>  <r_qp_PercentHumanOralAbsorption>  (108) 
100

>  <r_qp_QPPCaco>  (108) 
342.43000000000001

>  <r_qp_QPPMDCK>  (108) 
171.85300000000001

>  <r_qp_QPlogBB>  (108) 
-0.505

>  <r_qp_QPlogHERG>  (108) 
-7.5069999999999997

>  <r_qp_QPlogKhsa>  (108) 
0.67000000000000004

>  <r_qp_QPlogKp>  (108) 
-2.806

>  <r_qp_QPlogPC16>  (108) 
15.736000000000001

>  <r_qp_QPlogPo/w>  (108) 
4.4279999999999999

>  <r_qp_QPlogPoct>  (108) 
24.524000000000001

>  <r_qp_QPlogPw>  (108) 
14.231

>  <r_qp_QPlogS>  (108) 
-4.6159999999999997

>  <r_qp_QPpolrz>  (108) 
47.954000000000001

>  <r_qp_SASA>  (108) 
745.38800000000003

>  <r_qp_SAamideO>  (108) 
0

>  <r_qp_SAfluorine>  (108) 
0

>  <r_qp_WPSA>  (108) 
0

>  <r_qp_accptHB>  (108) 
6

>  <r_qp_dip^2/V>  (108) 
0.017942699999999999

>  <r_qp_dipole>  (108) 
4.9930000000000003

>  <r_qp_donorHB>  (108) 
3.5

>  <r_qp_glob>  (108) 
0.8078457

>  <r_qp_mol_MW>  (108) 
426.56299999999999

>  <r_qp_volume>  (108) 
1389.3710000000001

>  <r_sd_BIOSOLVEIT.INFINISEE\_FTREES\_SIMILARITY>  (108) 
0.90300000000000002

>  <r_sd_BIOSOLVEIT.LOGP>  (108) 
3.3891200000000001

>  <r_sd_BIOSOLVEIT.MOLECULAR\_WEIGHT>  (108) 
427.57299999999998

>  <r_sd_BIOSOLVEIT.TPSA>  (108) 
80.299999999999997

>  <i_epik_Tot_Q>  (108) 
2

>  <i_epik_Tot_abs_Q>  (108) 
2

>  <i_f3d_flags>  (108) 
0

>  <i_i_glide_confnum>  (108) 
6

>  <i_i_glide_lignum>  (108) 
582

>  <i_i_glide_posenum>  (108) 
7

>  <i_i_glide_rotatable_bonds>  (108) 
8

>  <i_lp_mmshare_version>  (108) 
65135

>  <i_m_ct_format>  (108) 
2

>  <i_m_source_file_index>  (108) 
1923

>  <i_qp_#NandO>  (108) 
6

>  <i_qp_#acid>  (108) 
0

>  <i_qp_#amide>  (108) 
0

>  <i_qp_#amidine>  (108) 
0

>  <i_qp_#amine>  (108) 
1

>  <i_qp_#in34>  (108) 
0

>  <i_qp_#in56>  (108) 
22

>  <i_qp_#metab>  (108) 
7

>  <i_qp_#nonHatm>  (108) 
32

>  <i_qp_#noncon>  (108) 
0

>  <i_qp_#ringatoms>  (108) 
22

>  <i_qp_#rotor>  (108) 
9

>  <i_qp_#rtvFG>  (108) 
0

>  <i_qp_#stars>  (108) 
1

>  <i_qp_CNS>  (108) 
0

>  <i_qp_HumanOralAbsorption>  (108) 
3

>  <i_qp_RuleOfFive>  (108) 
0

>  <i_qp_RuleOfThree>  (108) 
1

>  <i_sd_BIOSOLVEIT.INFINISEE\_REAGENT1\_NAME>  (108) 
21898820

>  <i_sd_BIOSOLVEIT.INFINISEE\_REAGENT2\_NAME>  (108) 
22360182

>  <i_sd_BIOSOLVEIT.INFINISEE\_REAGENT3\_NAME>  (108) 
21973156

>  <i_sd_BIOSOLVEIT.INFINISEE\_RESULT\_RANK>  (108) 
85979

>  <i_sd_version>  (108) 
0

>  <b_lp_Chiralities_Consistent>  (108) 
1

>  <b_sd_chiral_flag>  (108) 
0

>  <canonical_id>  (108) 
ATP-HTVS-11E35EA06531

>  <compound_code>  (108) 
61505

>  <title>  (108) 
m_282030aaa____21898820____22360182____21973156

>  <variant>  (108) 
61505-1

>  <source_file>  (108) 
运行/运行/ATP-VSW/ATP-VSW-DOCK_HTVS_1-001_lib/ATP-VSW-DOCK_HTVS_1-001_lib

>  <canonical_smiles>  (108) 
Cc1ccc(N)cc1CNc1nc(NCc2ccccc2C[NH+](C)C)[nH+]c2ccccc12

>  <scaffold>  (108) 
c1ccc(CNc2nc(NCc3ccccc3)c3ccccc3[nH+]2)cc1

>  <molecular_formula>  (108) 
C26H32N6+2

$$$$
ATP-HTVS-125A7E13CFB1
     RDKit          3D

 61 64  0  0  0  0  0  0  0  0999 V2000
  194.7480  186.5806  160.9894 Cl  0  0  0  0  0  0  0  0  0  0  0  0
  196.0491  185.8398  160.1326 C   0  0  0  0  0  0  0  0  0  0  0  0
  196.9836  186.6307  159.4426 C   0  0  0  0  0  0  0  0  0  0  0  0
  198.0615  186.0188  158.7744 C   0  0  0  0  0  0  0  0  0  0  0  0
  198.2315  184.6158  158.7545 C   0  0  0  0  0  0  0  0  0  0  0  0
  197.2764  183.8388  159.4612 C   0  0  0  0  0  0  0  0  0  0  0  0
  196.1968  184.4402  160.1325 C   0  0  0  0  0  0  0  0  0  0  0  0
  199.3656  183.9975  157.9910 C   0  0  1  0  0  0  0  0  0  0  0  0
  200.1897  183.0386  158.7843 N   0  0  0  0  0  0  0  0  0  0  0  0
  200.9204  183.7370  159.8401 C   0  0  2  0  0  0  0  0  0  0  0  0
  201.1541  182.2884  157.9739 C   0  0  2  0  0  0  0  0  0  0  0  0
  198.6631  183.4110  156.7459 C   0  0  0  0  0  0  0  0  0  0  0  0
  198.2356  182.2551  156.7617 O   0  0  0  0  0  0  0  0  0  0  0  0
  198.5710  184.2285  155.6819 N   0  0  0  0  0  0  0  0  0  0  0  0
  198.1253  183.9205  154.3719 C   0  0  0  0  0  0  0  0  0  0  0  0
  198.6365  184.6693  153.2753 C   0  0  0  0  0  0  0  0  0  0  0  0
  199.5808  185.7109  153.4921 N   0  0  0  0  0  0  0  0  0  0  0  0
  200.8921  185.5350  153.9890 C   0  0  0  0  0  0  0  0  0  0  0  0
  201.5468  184.2810  153.7861 C   0  0  0  0  0  0  0  0  0  0  0  0
  202.8860  184.0860  154.2158 C   0  0  0  0  0  0  0  0  0  0  0  0
  203.5863  185.1402  154.8292 C   0  0  0  0  0  0  0  0  0  0  0  0
  202.9439  186.3719  155.0496 C   0  0  0  0  0  0  0  0  0  0  0  0
  201.6011  186.5515  154.6679 C   0  0  0  0  0  0  0  0  0  0  0  0
  198.9876  187.0697  153.5130 C   0  0  1  0  0  0  0  0  0  0  0  0
  198.7201  187.5184  154.8947 C   0  0  0  0  0  0  0  0  0  0  0  0
  198.5222  187.8647  155.9707 N   0  0  0  0  0  0  0  0  0  0  0  0
  199.7157  188.1337  152.6691 C   0  0  2  0  0  0  0  0  0  0  0  0
  198.1874  184.3113  151.9751 C   0  0  0  0  0  0  0  0  0  0  0  0
  197.2467  183.2437  151.8290 C   0  0  0  0  0  0  0  0  0  0  0  0
  196.7688  182.5603  152.8747 N   0  0  0  0  0  0  0  0  0  0  0  0
  197.1767  182.8939  154.1132 C   0  0  0  0  0  0  0  0  0  0  0  0
  196.8112  182.8785  150.5361 C   0  0  0  0  0  0  0  0  0  0  0  0
  197.3028  183.5300  149.3915 C   0  0  0  0  0  0  0  0  0  0  0  0
  198.2426  184.5620  149.5330 C   0  0  0  0  0  0  0  0  0  0  0  0
  198.6802  184.9535  150.8132 C   0  0  0  0  0  0  0  0  0  0  0  0
  196.8809  187.7065  159.4251 H   0  0  0  0  0  0  0  0  0  0  0  0
  198.7718  186.6457  158.2583 H   0  0  0  0  0  0  0  0  0  0  0  0
  197.3722  182.7607  159.4680 H   0  0  0  0  0  0  0  0  0  0  0  0
  195.4802  183.8280  160.6597 H   0  0  0  0  0  0  0  0  0  0  0  0
  200.0361  184.7802  157.6262 H   0  0  0  0  0  0  0  0  0  0  0  0
  201.4878  183.0318  160.4476 H   0  0  0  0  0  0  0  0  0  0  0  0
  200.2502  184.2651  160.5163 H   0  0  0  0  0  0  0  0  0  0  0  0
  201.6203  184.4638  159.4263 H   0  0  0  0  0  0  0  0  0  0  0  0
  201.7626  181.6350  158.6005 H   0  0  0  0  0  0  0  0  0  0  0  0
  201.8203  182.9577  157.4267 H   0  0  0  0  0  0  0  0  0  0  0  0
  200.6708  181.6308  157.2517 H   0  0  0  0  0  0  0  0  0  0  0  0
  199.0229  185.1284  155.7766 H   0  0  0  0  0  0  0  0  0  0  0  0
  201.0266  183.4731  153.2931 H   0  0  0  0  0  0  0  0  0  0  0  0
  203.3602  183.1188  154.0821 H   0  0  0  0  0  0  0  0  0  0  0  0
  204.6154  185.0040  155.1514 H   0  0  0  0  0  0  0  0  0  0  0  0
  203.4704  187.1907  155.5084 H   0  0  0  0  0  0  0  0  0  0  0  0
  201.1583  187.5173  154.8875 H   0  0  0  0  0  0  0  0  0  0  0  0
  198.0095  186.9660  153.0740 H   0  0  0  0  0  0  0  0  0  0  0  0
  199.1053  189.0427  152.6226 H   0  0  0  0  0  0  0  0  0  0  0  0
  199.8229  187.8080  151.6320 H   0  0  0  0  0  0  0  0  0  0  0  0
  200.6943  188.4012  153.0750 H   0  0  0  0  0  0  0  0  0  0  0  0
  196.7054  182.3182  154.8938 H   0  0  0  0  0  0  0  0  0  0  0  0
  196.1049  182.0669  150.4395 H   0  0  0  0  0  0  0  0  0  0  0  0
  196.9770  183.2188  148.4078 H   0  0  0  0  0  0  0  0  0  0  0  0
  198.6497  185.0409  148.6516 H   0  0  0  0  0  0  0  0  0  0  0  0
  199.4243  185.7269  150.8955 H   0  0  0  0  0  0  0  0  0  0  0  0
  1  2  1  0
  2  3  1  0
  2  7  2  0
  3  4  2  0
  3 36  1  0
  4  5  1  0
  4 37  1  0
  5  6  2  0
  5  8  1  0
  6  7  1  0
  6 38  1  0
  7 39  1  0
  8  9  1  0
  8 12  1  0
  8 40  1  6
  9 10  1  0
  9 11  1  0
 10 41  1  1
 10 42  1  0
 10 43  1  0
 11 44  1  1
 11 45  1  0
 11 46  1  0
 12 13  2  0
 12 14  1  0
 14 15  1  0
 14 47  1  0
 15 16  2  0
 15 31  1  0
 16 17  1  0
 16 28  1  0
 17 18  1  0
 17 24  1  0
 18 19  2  0
 18 23  1  0
 19 20  1  0
 19 48  1  0
 20 21  2  0
 20 49  1  0
 21 22  1  0
 21 50  1  0
 22 23  2  0
 22 51  1  0
 23 52  1  0
 24 25  1  0
 24 27  1  0
 24 53  1  6
 25 26  3  0
 27 54  1  6
 27 55  1  0
 27 56  1  0
 28 29  1  0
 28 35  2  0
 29 30  1  0
 29 32  2  0
 30 31  2  0
 31 57  1  0
 32 33  1  0
 32 58  1  0
 33 34  2  0
 33 59  1  0
 34 35  1  0
 34 60  1  0
 35 61  1  0
M  END
>  <s_epik_cmdline>  (109) 
J2VwaWtfcHl0aG9uJywgJy1waCcsICc3LjAwMDAwMCcsICctcGh0JywgJzIuMDAwMDAwJywgJy1tcycsICcxNicsICctdG4nLCAnOCcsICctbWEnLCAnMjAwJywgJy1pbWFlJywgJzxpbmZpbGUubWFlPicsICctb21hZScsICc8b3V0ZmlsZS5tYWU+Jw==

>  <s_epik_input>  (109) 
Q2xjMVtjSF1bY0hdYyhbY0hdW2NIXTEpW0NAQEhdKE4oW0NIM10pW0NIM10pQyg9TylbTkhdYyhbY0hdbmMoYzIzKVtjSF1bY0hdW2NIXVtjSF0zKWMyTihbQ0BASF0oQyNOKVtDSDNdKWM0W2NIXVtjSF1bY0hdW2NIXVtjSF00

>  <s_i_glide_gridfile>  (109) 
ATP-Grid

>  <s_lp_Force_Field>  (109) 
OPLS_2005

>  <s_lp_Variant>  (109) 
rxn502b____EMOL331054254____EMOL30488121____EMOL36790511-1

>  <s_lp_label>  (109) 
2660_sdstereoexpander_1_neutralizer_1_epik_1_stereoizer_1

>  <s_m_source_file>  (109) 
ATP-VSW-LIGPREP-001-in.maegz

>  <s_sd_BIOSOLVEIT.INFINISEE\_QUERY\_NAME>  (109) 
Ref-Lig

>  <s_sd_BIOSOLVEIT.INFINISEE\_QUERY\_SMILES>  (109) 
S(c1nc2c(cc1C[NH2+]Cc3ccc(cc3)C[NH+](C)C)cccc2)Cc4ccccc4

>  <s_sd_BIOSOLVEIT.INFINISEE\_REACTION\_NAME>  (109) 
rxn502b

>  <s_sd_BIOSOLVEIT.INFINISEE\_REAGENT1\_NAME>  (109) 
EMOL331054254

>  <s_sd_BIOSOLVEIT.INFINISEE\_REAGENT1\_SMILES>  (109) 
Clc1ccc(cc1)C(N(C)C)C(=O)O

>  <s_sd_BIOSOLVEIT.INFINISEE\_REAGENT2\_NAME>  (109) 
EMOL30488121

>  <s_sd_BIOSOLVEIT.INFINISEE\_REAGENT2\_SMILES>  (109) 
Brc1c(N)cnc2c1cccc2

>  <s_sd_BIOSOLVEIT.INFINISEE\_REAGENT3\_NAME>  (109) 
EMOL36790511

>  <s_sd_BIOSOLVEIT.INFINISEE\_REAGENT3\_SMILES>  (109) 
N#CC(Nc1ccccc1)C

>  <s_sd_BIOSOLVEIT.INFINISEE\_SPACE>  (109) 
eXplore_7tr_2022-12

>  <s_vsw_compound_code>  (109) 
85089

>  <s_vsw_variant>  (109) 
85089-1

>  <r_epik_Charging_Adjusted_Penalty>  (109) 
0.16648718356293599

>  <r_epik_Ionization_Penalty>  (109) 
0.17710000000000001

>  <r_epik_Ionization_Penalty_Charging>  (109) 
0

>  <r_epik_Ionization_Penalty_Neutral>  (109) 
0.17710000000000001

>  <r_epik_State_Penalty>  (109) 
0.16650000000000001

>  <r_i_docking_score>  (109) 
-3.1340226312072001

>  <r_i_glide_ecoul>  (109) 
-0.171581625938416

>  <r_i_glide_eff_state_penalty>  (109) 
0.16650000000000001

>  <r_i_glide_einternal>  (109) 
0.99738347530365001

>  <r_i_glide_emodel>  (109) 
-39.834270675556503

>  <r_i_glide_energy>  (109) 
-33.400627493858302

>  <r_i_glide_erotb>  (109) 
0.43340268593952702

>  <r_i_glide_esite>  (109) 
-0.015295623540080201

>  <r_i_glide_evdw>  (109) 
-33.229045867919901

>  <r_i_glide_gscore>  (109) 
-3.3005226312071998

>  <r_i_glide_hbond>  (109) 
0

>  <r_i_glide_ligand_efficiency>  (109) 
-0.089543503748777106

>  <r_i_glide_ligand_efficiency_ln>  (109) 
-0.68798752343470804

>  <r_i_glide_ligand_efficiency_sa>  (109) 
-0.29290273806174699

>  <r_i_glide_lipo>  (109) 
-1.9222922472289801

>  <r_i_glide_metal>  (109) 
-0

>  <r_i_glide_rewards>  (109) 
-0.109147909090908

>  <r_lp_Energy>  (109) 
41.387954000000001

>  <r_qp_ACxDN^.5/SA>  (109) 
0.010097999999999999

>  <r_qp_CIQPlogS>  (109) 
-7.3170000000000002

>  <r_qp_EA(eV)>  (109) 
1.278

>  <r_qp_FISA>  (109) 
93.266000000000005

>  <r_qp_FOSA>  (109) 
150.81899999999999

>  <r_qp_IP(eV)>  (109) 
8.8569999999999993

>  <r_qp_Jm>  (109) 
0.00078071996003348503

>  <r_qp_PISA>  (109) 
426.911

>  <r_qp_PSA>  (109) 
68.215000000000003

>  <r_qp_PercentHumanOralAbsorption>  (109) 
100

>  <r_qp_QPPCaco>  (109) 
322.37

>  <r_qp_QPPMDCK>  (109) 
397.85599999999999

>  <r_qp_QPlogBB>  (109) 
-0.254

>  <r_qp_QPlogHERG>  (109) 
-7.0999999999999996

>  <r_qp_QPlogKhsa>  (109) 
0.67700000000000005

>  <r_qp_QPlogKp>  (109) 
-3.0289999999999999

>  <r_qp_QPlogPC16>  (109) 
15.848000000000001

>  <r_qp_QPlogPo/w>  (109) 
4.7229999999999999

>  <r_qp_QPlogPoct>  (109) 
23.327000000000002

>  <r_qp_QPlogPw>  (109) 
12.157

>  <r_qp_QPlogS>  (109) 
-5.7629999999999999

>  <r_qp_QPpolrz>  (109) 
50.026000000000003

>  <r_qp_SASA>  (109) 
742.721

>  <r_qp_SAamideO>  (109) 
0

>  <r_qp_SAfluorine>  (109) 
0

>  <r_qp_WPSA>  (109) 
71.724000000000004

>  <r_qp_accptHB>  (109) 
7.5

>  <r_qp_dip^2/V>  (109) 
0.049516400000000002

>  <r_qp_dipole>  (109) 
8.4160000000000004

>  <r_qp_donorHB>  (109) 
1

>  <r_qp_glob>  (109) 
0.82657849999999999

>  <r_qp_mol_MW>  (109) 
483.99900000000002

>  <r_qp_volume>  (109) 
1430.268

>  <r_sd_BIOSOLVEIT.INFINISEE\_FTREES\_SIMILARITY>  (109) 
0.91000000000000003

>  <r_sd_BIOSOLVEIT.LOGP>  (109) 
4.7626799999999996

>  <r_sd_BIOSOLVEIT.MOLECULAR\_WEIGHT>  (109) 
485.00799999999998

>  <r_sd_BIOSOLVEIT.TPSA>  (109) 
73.459999999999994

>  <i_epik_Tot_Q>  (109) 
0

>  <i_epik_Tot_abs_Q>  (109) 
0

>  <i_f3d_flags>  (109) 
0

>  <i_i_glide_confnum>  (109) 
4

>  <i_i_glide_lignum>  (109) 
1155

>  <i_i_glide_posenum>  (109) 
10

>  <i_i_glide_rotatable_bonds>  (109) 
8

>  <i_lp_mmshare_version>  (109) 
65135

>  <i_m_ct_format>  (109) 
2

>  <i_m_source_file_index>  (109) 
2660

>  <i_qp_#NandO>  (109) 
6

>  <i_qp_#acid>  (109) 
0

>  <i_qp_#amide>  (109) 
0

>  <i_qp_#amidine>  (109) 
0

>  <i_qp_#amine>  (109) 
1

>  <i_qp_#in34>  (109) 
0

>  <i_qp_#in56>  (109) 
22

>  <i_qp_#metab>  (109) 
6

>  <i_qp_#nonHatm>  (109) 
35

>  <i_qp_#noncon>  (109) 
0

>  <i_qp_#ringatoms>  (109) 
22

>  <i_qp_#rotor>  (109) 
8

>  <i_qp_#rtvFG>  (109) 
0

>  <i_qp_#stars>  (109) 
0

>  <i_qp_CNS>  (109) 
1

>  <i_qp_HumanOralAbsorption>  (109) 
3

>  <i_qp_RuleOfFive>  (109) 
0

>  <i_qp_RuleOfThree>  (109) 
1

>  <i_sd_BIOSOLVEIT.INFINISEE\_RESULT\_RANK>  (109) 
47777

>  <i_sd_version>  (109) 
0

>  <b_lp_Chiralities_Consistent>  (109) 
1

>  <b_sd_chiral_flag>  (109) 
0

>  <canonical_id>  (109) 
ATP-HTVS-125A7E13CFB1

>  <compound_code>  (109) 
85089

>  <title>  (109) 
rxn502b____EMOL331054254____EMOL30488121____EMOL36790511

>  <variant>  (109) 
85089-1

>  <source_file>  (109) 
运行/运行/ATP-VSW/ATP-VSW-DOCK_HTVS_1-001_lib/ATP-VSW-DOCK_HTVS_1-001_lib

>  <canonical_smiles>  (109) 
C[C@H](C#N)N(c1ccccc1)c1c(NC(=O)[C@@H](c2ccc(Cl)cc2)N(C)C)cnc2ccccc12

>  <scaffold>  (109) 
O=C(Cc1ccccc1)Nc1cnc2ccccc2c1Nc1ccccc1

>  <molecular_formula>  (109) 
C28H26ClN5O

$$$$
ATP-HTVS-12CEF0BA8B10
     RDKit          3D

 66 69  0  0  0  0  0  0  0  0999 V2000
  198.9626  180.9415  150.6114 O   0  0  0  0  0  0  0  0  0  0  0  0
  198.6534  179.6807  150.1534 C   0  0  0  0  0  0  0  0  0  0  0  0
  198.2911  179.5769  148.7933 C   0  0  0  0  0  0  0  0  0  0  0  0
  197.9439  178.3331  148.2268 C   0  0  0  0  0  0  0  0  0  0  0  0
  197.5460  178.2798  146.8347 C   0  0  0  0  0  0  0  0  0  0  0  0
  197.2266  178.2366  145.7176 N   0  0  0  0  0  0  0  0  0  0  0  0
  197.9694  177.1637  149.0141 C   0  0  0  0  0  0  0  0  0  0  0  0
  198.3528  177.2480  150.3642 C   0  0  0  0  0  0  0  0  0  0  0  0
  198.6761  178.4978  150.9349 C   0  0  0  0  0  0  0  0  0  0  0  0
  199.0886  181.1698  152.0135 C   0  0  1  0  0  0  0  0  0  0  0  0
  197.6681  181.2677  152.6392 C   0  0  1  0  0  0  0  0  0  0  0  0
  197.6431  181.5088  154.0797 N   0  0  0  0  0  0  0  0  0  0  0  0
  198.3809  180.6430  154.9187 C   0  0  0  0  0  0  0  0  0  0  0  0
  198.6961  179.4295  154.4091 N   0  0  0  0  0  0  0  0  0  0  0  0
  199.5041  178.6071  155.1751 C   0  0  0  0  0  0  0  0  0  0  0  0
  199.9555  179.0220  156.4478 C   0  0  0  0  0  0  0  0  0  0  0  0
  199.6510  180.2484  156.9336 N   0  0  0  0  0  0  0  0  0  0  0  0
  198.8454  181.0592  156.1910 C   0  0  0  0  0  0  0  0  0  0  0  0
  198.5331  182.3174  156.6944 N   0  0  0  0  0  0  0  0  0  0  0  0
  199.4062  182.9605  157.6784 C   0  0  1  0  0  0  0  0  0  0  0  0
  198.8822  184.2742  158.2395 C   0  0  0  0  0  0  0  0  0  0  0  0
  197.6951  184.3689  159.0086 C   0  0  0  0  0  0  0  0  0  0  0  0
  197.3208  185.6289  159.5527 C   0  0  0  0  0  0  0  0  0  0  0  0
  198.0851  186.7820  159.2846 C   0  0  0  0  0  0  0  0  0  0  0  0
  199.2560  186.6822  158.5190 C   0  0  0  0  0  0  0  0  0  0  0  0
  199.6544  185.4343  158.0069 C   0  0  0  0  0  0  0  0  0  0  0  0
  196.7966  183.1696  159.3087 C   0  0  1  0  0  0  0  0  0  0  0  0
  195.5769  183.1297  158.4514 N   0  0  2  0  0  0  0  0  0  0  0  0
  194.5526  184.1508  158.7864 C   0  0  2  0  0  0  0  0  0  0  0  0
  194.9784  181.7833  158.4173 C   0  0  2  0  0  0  0  0  0  0  0  0
  200.7554  178.1427  157.2062 C   0  0  0  0  0  0  0  0  0  0  0  0
  201.1503  176.8950  156.6872 C   0  0  0  0  0  0  0  0  0  0  0  0
  200.7474  176.5181  155.3919 C   0  0  0  0  0  0  0  0  0  0  0  0
  199.9302  177.3781  154.6425 C   0  0  0  0  0  0  0  0  0  0  0  0
  196.3951  181.9848  154.6717 C   0  0  2  0  0  0  0  0  0  0  0  0
  198.2772  180.4765  148.1931 H   0  0  0  0  0  0  0  0  0  0  0  0
  197.6998  176.2064  148.5849 H   0  0  0  0  0  0  0  0  0  0  0  0
  198.3684  176.3575  150.9766 H   0  0  0  0  0  0  0  0  0  0  0  0
  198.9497  178.5000  151.9775 H   0  0  0  0  0  0  0  0  0  0  0  0
  199.7262  180.3876  152.4720 H   0  0  0  0  0  0  0  0  0  0  0  0
  199.6232  182.1038  152.1685 H   0  0  0  0  0  0  0  0  0  0  0  0
  197.1372  182.0869  152.1663 H   0  0  0  0  0  0  0  0  0  0  0  0
  197.0569  180.3858  152.4289 H   0  0  0  0  0  0  0  0  0  0  0  0
  198.0783  182.9307  156.0342 H   0  0  0  0  0  0  0  0  0  0  0  0
  199.6175  182.2897  158.5172 H   0  0  0  0  0  0  0  0  0  0  0  0
  200.3613  183.1265  157.1836 H   0  0  0  0  0  0  0  0  0  0  0  0
  196.4526  185.7350  160.1786 H   0  0  0  0  0  0  0  0  0  0  0  0
  197.7726  187.7373  159.6778 H   0  0  0  0  0  0  0  0  0  0  0  0
  199.8599  187.5609  158.3399 H   0  0  0  0  0  0  0  0  0  0  0  0
  200.5727  185.3682  157.4406 H   0  0  0  0  0  0  0  0  0  0  0  0
  197.3646  182.2361  159.1753 H   0  0  0  0  0  0  0  0  0  0  0  0
  196.5292  183.1775  160.3566 H   0  0  0  0  0  0  0  0  0  0  0  0
  194.2138  184.0389  159.8174 H   0  0  0  0  0  0  0  0  0  0  0  0
  193.6794  184.0540  158.1385 H   0  0  0  0  0  0  0  0  0  0  0  0
  194.9130  185.1689  158.6403 H   0  0  0  0  0  0  0  0  0  0  0  0
  194.6365  181.4720  159.4047 H   0  0  0  0  0  0  0  0  0  0  0  0
  195.7286  181.0779  158.0692 H   0  0  0  0  0  0  0  0  0  0  0  0
  194.1293  181.7428  157.7334 H   0  0  0  0  0  0  0  0  0  0  0  0
  201.0858  178.4296  158.1934 H   0  0  0  0  0  0  0  0  0  0  0  0
  201.7628  176.2248  157.2716 H   0  0  0  0  0  0  0  0  0  0  0  0
  201.0568  175.5732  154.9759 H   0  0  0  0  0  0  0  0  0  0  0  0
  199.6413  177.0961  153.6469 H   0  0  0  0  0  0  0  0  0  0  0  0
  196.2177  181.5779  155.6616 H   0  0  0  0  0  0  0  0  0  0  0  0
  195.5468  181.6866  154.0567 H   0  0  0  0  0  0  0  0  0  0  0  0
  196.3990  183.0704  154.7349 H   0  0  0  0  0  0  0  0  0  0  0  0
  195.8839  183.3075  157.5041 H   0  0  0  0  0  0  0  0  0  0  0  0
  1  2  1  0
  1 10  1  0
  2  3  1  0
  2  9  2  0
  3  4  2  0
  3 36  1  0
  4  5  1  0
  4  7  1  0
  5  6  3  0
  7  8  2  0
  7 37  1  0
  8  9  1  0
  8 38  1  0
  9 39  1  0
 10 11  1  0
 10 40  1  1
 10 41  1  0
 11 12  1  0
 11 42  1  6
 11 43  1  0
 12 13  1  0
 12 35  1  0
 13 14  2  0
 13 18  1  0
 14 15  1  0
 15 16  1  0
 15 34  2  0
 16 17  1  0
 16 31  2  0
 17 18  2  0
 18 19  1  0
 19 20  1  0
 19 44  1  0
 20 21  1  0
 20 45  1  1
 20 46  1  0
 21 22  1  0
 21 26  2  0
 22 23  2  0
 22 27  1  0
 23 24  1  0
 23 47  1  0
 24 25  2  0
 24 48  1  0
 25 26  1  0
 25 49  1  0
 26 50  1  0
 27 28  1  0
 27 51  1  1
 27 52  1  0
 28 29  1  0
 28 30  1  0
 28 66  1  6
 29 53  1  1
 29 54  1  0
 29 55  1  0
 30 56  1  1
 30 57  1  0
 30 58  1  0
 31 32  1  0
 31 59  1  0
 32 33  2  0
 32 60  1  0
 33 34  1  0
 33 61  1  0
 34 62  1  0
 35 63  1  1
 35 64  1  0
 35 65  1  0
M  CHG  1  28   1
M  END
>  <s_epik_cmdline>  (110) 
J2VwaWtfcHl0aG9uJywgJy1waCcsICc3LjAwMDAwMCcsICctcGh0JywgJzIuMDAwMDAwJywgJy1tcycsICcxNicsICctdG4nLCAnOCcsICctbWEnLCAnMjAwJywgJy1pbWFlJywgJzxpbmZpbGUubWFlPicsICctb21hZScsICc8b3V0ZmlsZS5tYWU+Jw==

>  <s_epik_input>  (110) 
W2NIXTFbY0hdW2NIXWMoQyNOKVtjSF1jMU9bQ0gyXVtDSDJdTihbQ0gzXSljKG4yKWMobmMoYzIzKVtjSF1bY0hdW2NIXVtjSF0zKVtOSF1bQ0gyXWM0YyhbQ0gyXU4oW0NIM10pW0NIM10pW2NIXVtjSF1bY0hdW2NIXTQ=

>  <s_i_glide_gridfile>  (110) 
ATP-Grid

>  <s_lp_Force_Field>  (110) 
OPLS_2005

>  <s_lp_Variant>  (110) 
m_282030aaa____21903914____23157418____21973156-1

>  <s_lp_label>  (110) 
983_sdstereoexpander_1_neutralizer_1_epik_1_stereoizer_1

>  <s_m_source_file>  (110) 
ATP-VSW-LIGPREP-002-in.maegz

>  <s_sd_BIOSOLVEIT.INFINISEE\_QUERY\_NAME>  (110) 
Ref-Lig

>  <s_sd_BIOSOLVEIT.INFINISEE\_QUERY\_SMILES>  (110) 
S(c1nc2c(cc1C[NH2+]Cc3ccc(cc3)C[NH+](C)C)cccc2)Cc4ccccc4

>  <s_sd_BIOSOLVEIT.INFINISEE\_REACTION\_NAME>  (110) 
m_282030aaa

>  <s_sd_BIOSOLVEIT.INFINISEE\_REAGENT1\_SMILES>  (110) 
[R1*]N(CCOc1cc(C#N)ccc1)C

>  <s_sd_BIOSOLVEIT.INFINISEE\_REAGENT2\_SMILES>  (110) 
[R1*]c1nc2c(nc1[R2*])cccc2

>  <s_sd_BIOSOLVEIT.INFINISEE\_REAGENT3\_SMILES>  (110) 
[R2*]NCc1c(cccc1)CN(C)C

>  <s_sd_BIOSOLVEIT.INFINISEE\_SPACE>  (110) 
REALSpace_44bn_2023-08

>  <s_vsw_compound_code>  (110) 
31426

>  <s_vsw_variant>  (110) 
31426-1

>  <r_epik_Charging_Adjusted_Penalty>  (110) 
0.076612674508475406

>  <r_epik_Ionization_Penalty>  (110) 
0.038800000000000001

>  <r_epik_Ionization_Penalty_Charging>  (110) 
0.038300000000000001

>  <r_epik_Ionization_Penalty_Neutral>  (110) 
0.00050000000000000001

>  <r_epik_State_Penalty>  (110) 
0.038300000000000001

>  <r_i_docking_score>  (110) 
-4.1687249971882503

>  <r_i_glide_ecoul>  (110) 
-6.5786986351013201

>  <r_i_glide_eff_state_penalty>  (110) 
0.038300000000000001

>  <r_i_glide_einternal>  (110) 
2.2360787391662602

>  <r_i_glide_emodel>  (110) 
-59.046946475285502

>  <r_i_glide_energy>  (110) 
-44.3418898582458

>  <r_i_glide_erotb>  (110) 
0.83083835594786104

>  <r_i_glide_esite>  (110) 
-0.054092249600856901

>  <r_i_glide_evdw>  (110) 
-37.763191223144503

>  <r_i_glide_gscore>  (110) 
-4.2070249971882498

>  <r_i_glide_hbond>  (110) 
0

>  <r_i_glide_ligand_efficiency>  (110) 
-0.119106428491093

>  <r_i_glide_ligand_efficiency_ln>  (110) 
-0.91512765674929497

>  <r_i_glide_ligand_efficiency_sa>  (110) 
-0.38960502510237299

>  <r_i_glide_lipo>  (110) 
-1.5192810370084699

>  <r_i_glide_metal>  (110) 
-0

>  <r_i_glide_rewards>  (110) 
-0.58952571010436094

>  <r_lp_Energy>  (110) 
38.986252

>  <r_qp_ACxDN^.5/SA>  (110) 
0.0094376000000000008

>  <r_qp_CIQPlogS>  (110) 
-7.0650000000000004

>  <r_qp_EA(eV)>  (110) 
1.04

>  <r_qp_FISA>  (110) 
93.978999999999999

>  <r_qp_FOSA>  (110) 
235.673

>  <r_qp_IP(eV)>  (110) 
8.5199999999999996

>  <r_qp_Jm>  (110) 
0.0027906317226239

>  <r_qp_PISA>  (110) 
438.55599999999998

>  <r_qp_PSA>  (110) 
67.962999999999994

>  <r_qp_PercentHumanOralAbsorption>  (110) 
100

>  <r_qp_QPPCaco>  (110) 
317.39499999999998

>  <r_qp_QPPMDCK>  (110) 
158.31299999999999

>  <r_qp_QPlogBB>  (110) 
-0.63900000000000001

>  <r_qp_QPlogHERG>  (110) 
-7.3079999999999998

>  <r_qp_QPlogKhsa>  (110) 
0.72899999999999998

>  <r_qp_QPlogKp>  (110) 
-2.7130000000000001

>  <r_qp_QPlogPC16>  (110) 
15.888

>  <r_qp_QPlogPo/w>  (110) 
4.8680000000000003

>  <r_qp_QPlogPoct>  (110) 
22.384

>  <r_qp_QPlogPw>  (110) 
11.369

>  <r_qp_QPlogS>  (110) 
-5.5099999999999998

>  <r_qp_QPpolrz>  (110) 
50.155999999999999

>  <r_qp_SASA>  (110) 
768.20699999999999

>  <r_qp_SAamideO>  (110) 
0

>  <r_qp_SAfluorine>  (110) 
0

>  <r_qp_WPSA>  (110) 
0

>  <r_qp_accptHB>  (110) 
7.25

>  <r_qp_dip^2/V>  (110) 
0.020512599999999999

>  <r_qp_dipole>  (110) 
5.508

>  <r_qp_donorHB>  (110) 
1

>  <r_qp_glob>  (110) 
0.81716789999999995

>  <r_qp_mol_MW>  (110) 
466.58499999999998

>  <r_qp_volume>  (110) 
1478.894

>  <r_sd_BIOSOLVEIT.INFINISEE\_FTREES\_SIMILARITY>  (110) 
0.91600000000000004

>  <r_sd_BIOSOLVEIT.LOGP>  (110) 
3.2732800000000002

>  <r_sd_BIOSOLVEIT.MOLECULAR\_WEIGHT>  (110) 
467.59399999999999

>  <r_sd_BIOSOLVEIT.TPSA>  (110) 
78.510000000000005

>  <i_epik_Tot_Q>  (110) 
1

>  <i_epik_Tot_abs_Q>  (110) 
1

>  <i_f3d_flags>  (110) 
0

>  <i_i_glide_confnum>  (110) 
1

>  <i_i_glide_lignum>  (110) 
308

>  <i_i_glide_posenum>  (110) 
7

>  <i_i_glide_rotatable_bonds>  (110) 
10

>  <i_lp_mmshare_version>  (110) 
65135

>  <i_m_ct_format>  (110) 
2

>  <i_m_source_file_index>  (110) 
983

>  <i_qp_#NandO>  (110) 
7

>  <i_qp_#acid>  (110) 
0

>  <i_qp_#amide>  (110) 
0

>  <i_qp_#amidine>  (110) 
0

>  <i_qp_#amine>  (110) 
1

>  <i_qp_#in34>  (110) 
0

>  <i_qp_#in56>  (110) 
22

>  <i_qp_#metab>  (110) 
4

>  <i_qp_#nonHatm>  (110) 
35

>  <i_qp_#noncon>  (110) 
0

>  <i_qp_#ringatoms>  (110) 
22

>  <i_qp_#rotor>  (110) 
11

>  <i_qp_#rtvFG>  (110) 
0

>  <i_qp_#stars>  (110) 
0

>  <i_qp_CNS>  (110) 
1

>  <i_qp_HumanOralAbsorption>  (110) 
3

>  <i_qp_RuleOfFive>  (110) 
0

>  <i_qp_RuleOfThree>  (110) 
0

>  <i_sd_BIOSOLVEIT.INFINISEE\_REAGENT1\_NAME>  (110) 
21903914

>  <i_sd_BIOSOLVEIT.INFINISEE\_REAGENT2\_NAME>  (110) 
23157418

>  <i_sd_BIOSOLVEIT.INFINISEE\_REAGENT3\_NAME>  (110) 
21973156

>  <i_sd_BIOSOLVEIT.INFINISEE\_RESULT\_RANK>  (110) 
24795

>  <i_sd_version>  (110) 
0

>  <b_lp_Chiralities_Consistent>  (110) 
1

>  <b_sd_chiral_flag>  (110) 
0

>  <canonical_id>  (110) 
ATP-HTVS-12CEF0BA8B10

>  <compound_code>  (110) 
31426

>  <title>  (110) 
m_282030aaa____21903914____23157418____21973156

>  <variant>  (110) 
31426-1

>  <source_file>  (110) 
运行/运行/ATP-VSW/ATP-VSW-DOCK_HTVS_1-002_lib.maegz

>  <canonical_smiles>  (110) 
CN(CCOc1cccc(C#N)c1)c1nc2ccccc2nc1NCc1ccccc1C[NH+](C)C

>  <scaffold>  (110) 
c1ccc(CNc2nc3ccccc3nc2NCCOc2ccccc2)cc1

>  <molecular_formula>  (110) 
C28H31N6O+

$$$$
ATP-HTVS-132672672DF9
     RDKit          3D

 67 70  0  0  0  0  0  0  0  0999 V2000
  199.5039  185.7882  153.6833 O   0  0  0  0  0  0  0  0  0  0  0  0
  198.3911  185.5155  153.2280 C   0  0  0  0  0  0  0  0  0  0  0  0
  197.2776  185.4267  153.9717 N   0  0  0  0  0  0  0  0  0  0  0  0
  197.2321  185.4524  155.3832 C   0  0  0  0  0  0  0  0  0  0  0  0
  197.1429  186.6292  156.0453 N   0  0  0  0  0  0  0  0  0  0  0  0
  196.9925  186.6394  157.3834 C   0  0  0  0  0  0  0  0  0  0  0  0
  196.9463  185.4360  158.1309 C   0  0  0  0  0  0  0  0  0  0  0  0
  197.0514  184.2099  157.4581 C   0  0  0  0  0  0  0  0  0  0  0  0
  197.1913  184.1997  156.0546 C   0  0  0  0  0  0  0  0  0  0  0  0
  197.3025  183.0008  155.3296 N   0  0  0  0  0  0  0  0  0  0  0  0
  197.2769  181.6993  155.9820 C   0  0  1  0  0  0  0  0  0  0  0  0
  197.9399  180.6217  155.1528 C   0  0  0  0  0  0  0  0  0  0  0  0
  197.5844  180.4396  153.8029 C   0  0  0  0  0  0  0  0  0  0  0  0
  198.2402  179.4632  153.0273 C   0  0  0  0  0  0  0  0  0  0  0  0
  199.2471  178.6461  153.5980 C   0  0  0  0  0  0  0  0  0  0  0  0
  199.9228  177.6533  152.8733 N   0  0  0  0  0  0  0  0  0  0  0  0
  199.4775  177.2385  151.5474 C   0  0  1  0  0  0  0  0  0  0  0  0
  199.6247  175.7290  151.3221 C   0  0  1  0  0  0  0  0  0  0  0  0
  199.2048  175.4324  150.0065 O   0  0  0  0  0  0  0  0  0  0  0  0
  199.5829  178.8284  154.9587 C   0  0  0  0  0  0  0  0  0  0  0  0
  198.9347  179.8120  155.7305 C   0  0  0  0  0  0  0  0  0  0  0  0
  196.7970  185.4504  159.5294 C   0  0  0  0  0  0  0  0  0  0  0  0
  196.6937  186.6764  160.2043 C   0  0  0  0  0  0  0  0  0  0  0  0
  196.7235  187.8793  159.4784 C   0  0  0  0  0  0  0  0  0  0  0  0
  196.8641  187.8564  158.0779 C   0  0  0  0  0  0  0  0  0  0  0  0
  198.1786  185.3473  151.7469 C   0  0  0  0  0  0  0  0  0  0  0  0
  199.0112  186.0302  150.8314 C   0  0  0  0  0  0  0  0  0  0  0  0
  198.8302  185.8730  149.4423 C   0  0  0  0  0  0  0  0  0  0  0  0
  197.8364  185.0091  148.9389 C   0  0  0  0  0  0  0  0  0  0  0  0
  197.0065  184.3189  149.8485 C   0  0  0  0  0  0  0  0  0  0  0  0
  197.1835  184.4793  151.2394 C   0  0  0  0  0  0  0  0  0  0  0  0
  197.6951  184.8191  147.4347 C   0  0  1  0  0  0  0  0  0  0  0  0
  198.6325  183.7958  146.8853 N   0  0  2  0  0  0  0  0  0  0  0  0
  200.0445  183.9302  147.3323 C   0  0  2  0  0  0  0  0  0  0  0  0
  198.5507  183.7103  145.4112 C   0  0  2  0  0  0  0  0  0  0  0  0
  196.4035  185.2506  153.4996 H   0  0  0  0  0  0  0  0  0  0  0  0
  196.9834  183.2953  158.0291 H   0  0  0  0  0  0  0  0  0  0  0  0
  197.2602  183.0271  154.3188 H   0  0  0  0  0  0  0  0  0  0  0  0
  197.8071  181.7356  156.9343 H   0  0  0  0  0  0  0  0  0  0  0  0
  196.2442  181.4082  156.1882 H   0  0  0  0  0  0  0  0  0  0  0  0
  196.8138  181.0496  153.3559 H   0  0  0  0  0  0  0  0  0  0  0  0
  197.9462  179.3688  151.9947 H   0  0  0  0  0  0  0  0  0  0  0  0
  200.6641  177.1365  153.3252 H   0  0  0  0  0  0  0  0  0  0  0  0
  198.4267  177.4817  151.3750 H   0  0  0  0  0  0  0  0  0  0  0  0
  200.0637  177.7932  150.8146 H   0  0  0  0  0  0  0  0  0  0  0  0
  200.6557  175.4059  151.4632 H   0  0  0  0  0  0  0  0  0  0  0  0
  198.9953  175.1796  152.0264 H   0  0  0  0  0  0  0  0  0  0  0  0
  199.2746  174.4955  149.8614 H   0  0  0  0  0  0  0  0  0  0  0  0
  200.3387  178.2157  155.4317 H   0  0  0  0  0  0  0  0  0  0  0  0
  199.2043  179.9398  156.7708 H   0  0  0  0  0  0  0  0  0  0  0  0
  196.7862  184.5265  160.0907 H   0  0  0  0  0  0  0  0  0  0  0  0
  196.5991  186.6953  161.2793 H   0  0  0  0  0  0  0  0  0  0  0  0
  196.6494  188.8213  160.0034 H   0  0  0  0  0  0  0  0  0  0  0  0
  196.8787  188.7897  157.5293 H   0  0  0  0  0  0  0  0  0  0  0  0
  199.8122  186.6705  151.1838 H   0  0  0  0  0  0  0  0  0  0  0  0
  199.4673  186.4204  148.7656 H   0  0  0  0  0  0  0  0  0  0  0  0
  196.2428  183.6414  149.4870 H   0  0  0  0  0  0  0  0  0  0  0  0
  196.5592  183.9100  151.9114 H   0  0  0  0  0  0  0  0  0  0  0  0
  196.6677  184.5282  147.2021 H   0  0  0  0  0  0  0  0  0  0  0  0
  197.8443  185.7759  146.9302 H   0  0  0  0  0  0  0  0  0  0  0  0
  200.4449  184.8966  147.0276 H   0  0  0  0  0  0  0  0  0  0  0  0
  200.6751  183.1605  146.8852 H   0  0  0  0  0  0  0  0  0  0  0  0
  200.1474  183.8373  148.4152 H   0  0  0  0  0  0  0  0  0  0  0  0
  198.8608  184.6511  144.9509 H   0  0  0  0  0  0  0  0  0  0  0  0
  197.5447  183.4686  145.0717 H   0  0  0  0  0  0  0  0  0  0  0  0
  199.2111  182.9276  145.0377 H   0  0  0  0  0  0  0  0  0  0  0  0
  198.3152  182.9095  147.2501 H   0  0  0  0  0  0  0  0  0  0  0  0
  1  2  2  0
  2  3  1  0
  2 26  1  0
  3  4  1  0
  3 36  1  0
  4  5  2  0
  4  9  1  0
  5  6  1  0
  6  7  1  0
  6 25  2  0
  7  8  1  0
  7 22  2  0
  8  9  2  0
  8 37  1  0
  9 10  1  0
 10 11  1  0
 10 38  1  0
 11 12  1  0
 11 39  1  1
 11 40  1  0
 12 13  1  0
 12 21  2  0
 13 14  2  0
 13 41  1  0
 14 15  1  0
 14 42  1  0
 15 16  1  0
 15 20  2  0
 16 17  1  0
 16 43  1  0
 17 18  1  0
 17 44  1  1
 17 45  1  0
 18 19  1  0
 18 46  1  6
 18 47  1  0
 19 48  1  0
 20 21  1  0
 20 49  1  0
 21 50  1  0
 22 23  1  0
 22 51  1  0
 23 24  2  0
 23 52  1  0
 24 25  1  0
 24 53  1  0
 25 54  1  0
 26 27  1  0
 26 31  2  0
 27 28  2  0
 27 55  1  0
 28 29  1  0
 28 56  1  0
 29 30  2  0
 29 32  1  0
 30 31  1  0
 30 57  1  0
 31 58  1  0
 32 33  1  0
 32 59  1  1
 32 60  1  0
 33 34  1  0
 33 35  1  0
 33 67  1  1
 34 61  1  6
 34 62  1  0
 34 63  1  0
 35 64  1  6
 35 65  1  0
 35 66  1  0
M  CHG  1  33   1
M  END
>  <s_epik_cmdline>  (111) 
J2VwaWtfcHl0aG9uJywgJy1waCcsICc3LjAwMDAwMCcsICctcGh0JywgJzIuMDAwMDAwJywgJy1tcycsICcxNicsICctdG4nLCAnOCcsICctbWEnLCAnMjAwJywgJy1pbWFlJywgJzxpbmZpbGUubWFlPicsICctb21hZScsICc8b3V0ZmlsZS5tYWU+Jw==

>  <s_epik_input>  (111) 
W0NIM11OKFtDSDNdKVtDSDJdYyhbY0hdW2NIXTEpW2NIXVtjSF1jMUMoPU8pW05IXWMobjIpYyhbY0hdYyhjMjMpW2NIXVtjSF1bY0hdW2NIXTMpW05IXVtDSDJdYzRbY0hdW2NIXWMoW2NIXVtjSF00KVtOSF1bQ0gyXVtDSDJdW09IXQ==

>  <s_i_glide_gridfile>  (111) 
ATP-Grid

>  <s_lp_Force_Field>  (111) 
OPLS_2005

>  <s_lp_Variant>  (111) 
rxn502b____EMOL18624763____EMOL44466703____EMOL324170366-1

>  <s_lp_label>  (111) 
2994_sdstereoexpander_1_neutralizer_1_epik_1_stereoizer_1

>  <s_m_source_file>  (111) 
ATP-VSW-LIGPREP-002-in.maegz

>  <s_sd_BIOSOLVEIT.INFINISEE\_QUERY\_NAME>  (111) 
Ref-Lig

>  <s_sd_BIOSOLVEIT.INFINISEE\_QUERY\_SMILES>  (111) 
S(c1nc2c(cc1C[NH2+]Cc3ccc(cc3)C[NH+](C)C)cccc2)Cc4ccccc4

>  <s_sd_BIOSOLVEIT.INFINISEE\_REACTION\_NAME>  (111) 
rxn502b

>  <s_sd_BIOSOLVEIT.INFINISEE\_REAGENT1\_NAME>  (111) 
EMOL18624763

>  <s_sd_BIOSOLVEIT.INFINISEE\_REAGENT1\_SMILES>  (111) 
O=C(O)c1ccc(cc1)CN(C)C

>  <s_sd_BIOSOLVEIT.INFINISEE\_REAGENT2\_NAME>  (111) 
EMOL44466703

>  <s_sd_BIOSOLVEIT.INFINISEE\_REAGENT2\_SMILES>  (111) 
Brc1c(nc2c(c1)cccc2)N

>  <s_sd_BIOSOLVEIT.INFINISEE\_REAGENT3\_NAME>  (111) 
EMOL324170366

>  <s_sd_BIOSOLVEIT.INFINISEE\_REAGENT3\_SMILES>  (111) 
OCCNc1ccc(cc1)CN

>  <s_sd_BIOSOLVEIT.INFINISEE\_SPACE>  (111) 
eXplore_7tr_2022-12

>  <s_vsw_compound_code>  (111) 
95778

>  <s_vsw_variant>  (111) 
95778-1

>  <r_epik_Charging_Adjusted_Penalty>  (111) 
0.11604079405907

>  <r_epik_Ionization_Penalty>  (111) 
0.063899999999999998

>  <r_epik_Ionization_Penalty_Charging>  (111) 
0.052200000000000003

>  <r_epik_Ionization_Penalty_Neutral>  (111) 
0.0118

>  <r_epik_State_Penalty>  (111) 
0.063899999999999998

>  <r_i_docking_score>  (111) 
-4.4287346163171897

>  <r_i_glide_ecoul>  (111) 
-4.6865205764770499

>  <r_i_glide_eff_state_penalty>  (111) 
0.063899999999999998

>  <r_i_glide_einternal>  (111) 
9.4733152389526403

>  <r_i_glide_emodel>  (111) 
-53.235569575702101

>  <r_i_glide_energy>  (111) 
-41.450936317443798

>  <r_i_glide_erotb>  (111) 
0.91244354638238701

>  <r_i_glide_esite>  (111) 
-0.026126382000190001

>  <r_i_glide_evdw>  (111) 
-36.764415740966797

>  <r_i_glide_gscore>  (111) 
-4.49263461631719

>  <r_i_glide_hbond>  (111) 
-0.29697410905375199

>  <r_i_glide_ligand_efficiency>  (111) 
-0.12653527475192

>  <r_i_glide_ligand_efficiency_ln>  (111) 
-0.97220553875068305

>  <r_i_glide_ligand_efficiency_sa>  (111) 
-0.413905273800936

>  <r_i_glide_lipo>  (111) 
-2.2940519555794299

>  <r_i_glide_metal>  (111) 
-0

>  <r_i_glide_rewards>  (111) 
-0.24672684254631

>  <r_lp_Energy>  (111) 
34.664338999999998

>  <r_qp_ACxDN^.5/SA>  (111) 
0.020543499999999999

>  <r_qp_CIQPlogS>  (111) 
-5.1859999999999999

>  <r_qp_EA(eV)>  (111) 
0.65600000000000003

>  <r_qp_FISA>  (111) 
130.184

>  <r_qp_FOSA>  (111) 
302.62299999999999

>  <r_qp_IP(eV)>  (111) 
8.0679999999999996

>  <r_qp_Jm>  (111) 
0.00036921000947233402

>  <r_qp_PISA>  (111) 
462.851

>  <r_qp_PSA>  (111) 
97.724999999999994

>  <r_qp_PercentHumanOralAbsorption>  (111) 
89.051000000000002

>  <r_qp_QPPCaco>  (111) 
143.96799999999999

>  <r_qp_QPPMDCK>  (111) 
67.361999999999995

>  <r_qp_QPlogBB>  (111) 
-1.306

>  <r_qp_QPlogHERG>  (111) 
-8.7469999999999999

>  <r_qp_QPlogKhsa>  (111) 
0.45600000000000002

>  <r_qp_QPlogKp>  (111) 
-3.2949999999999999

>  <r_qp_QPlogPC16>  (111) 
18.591999999999999

>  <r_qp_QPlogPo/w>  (111) 
4.0099999999999998

>  <r_qp_QPlogPoct>  (111) 
29.831

>  <r_qp_QPlogPw>  (111) 
18.402000000000001

>  <r_qp_QPlogS>  (111) 
-5.8099999999999996

>  <r_qp_QPpolrz>  (111) 
54.810000000000002

>  <r_qp_SASA>  (111) 
895.65899999999999

>  <r_qp_SAamideO>  (111) 
0

>  <r_qp_SAfluorine>  (111) 
0

>  <r_qp_WPSA>  (111) 
0

>  <r_qp_accptHB>  (111) 
9.1999999999999993

>  <r_qp_dip^2/V>  (111) 
0.062657599999999994

>  <r_qp_dipole>  (111) 
9.9789999999999992

>  <r_qp_donorHB>  (111) 
4

>  <r_qp_glob>  (111) 
0.73537260000000004

>  <r_qp_mol_MW>  (111) 
469.58499999999998

>  <r_qp_volume>  (111) 
1589.3789999999999

>  <r_sd_BIOSOLVEIT.INFINISEE\_FTREES\_SIMILARITY>  (111) 
0.90300000000000002

>  <r_sd_BIOSOLVEIT.LOGP>  (111) 
3.1478999999999999

>  <r_sd_BIOSOLVEIT.MOLECULAR\_WEIGHT>  (111) 
470.59399999999999

>  <r_sd_BIOSOLVEIT.TPSA>  (111) 
90.719999999999999

>  <i_epik_Tot_Q>  (111) 
1

>  <i_epik_Tot_abs_Q>  (111) 
1

>  <i_f3d_flags>  (111) 
0

>  <i_i_glide_confnum>  (111) 
9

>  <i_i_glide_lignum>  (111) 
59

>  <i_i_glide_posenum>  (111) 
10

>  <i_i_glide_rotatable_bonds>  (111) 
12

>  <i_lp_mmshare_version>  (111) 
65135

>  <i_m_ct_format>  (111) 
2

>  <i_m_source_file_index>  (111) 
2994

>  <i_qp_#NandO>  (111) 
7

>  <i_qp_#acid>  (111) 
0

>  <i_qp_#amide>  (111) 
0

>  <i_qp_#amidine>  (111) 
0

>  <i_qp_#amine>  (111) 
1

>  <i_qp_#in34>  (111) 
0

>  <i_qp_#in56>  (111) 
22

>  <i_qp_#metab>  (111) 
8

>  <i_qp_#nonHatm>  (111) 
35

>  <i_qp_#noncon>  (111) 
0

>  <i_qp_#ringatoms>  (111) 
22

>  <i_qp_#rotor>  (111) 
11

>  <i_qp_#rtvFG>  (111) 
0

>  <i_qp_#stars>  (111) 
3

>  <i_qp_CNS>  (111) 
-2

>  <i_qp_HumanOralAbsorption>  (111) 
3

>  <i_qp_RuleOfFive>  (111) 
0

>  <i_qp_RuleOfThree>  (111) 
2

>  <i_sd_BIOSOLVEIT.INFINISEE\_RESULT\_RANK>  (111) 
85078

>  <i_sd_version>  (111) 
0

>  <b_lp_Chiralities_Consistent>  (111) 
1

>  <b_sd_chiral_flag>  (111) 
0

>  <canonical_id>  (111) 
ATP-HTVS-132672672DF9

>  <compound_code>  (111) 
95778

>  <title>  (111) 
rxn502b____EMOL18624763____EMOL44466703____EMOL324170366

>  <variant>  (111) 
95778-1

>  <source_file>  (111) 
运行/运行/ATP-VSW/ATP-VSW-DOCK_HTVS_1-003_lib/ATP-VSW-DOCK_HTVS_1-003_lib.mae

>  <canonical_smiles>  (111) 
C[NH+](C)Cc1ccc(C(=O)Nc2nc3ccccc3cc2NCc2ccc(NCCO)cc2)cc1

>  <scaffold>  (111) 
O=C(Nc1nc2ccccc2cc1NCc1ccccc1)c1ccccc1

>  <molecular_formula>  (111) 
C28H32N5O2+

$$$$
ATP-HTVS-132BACAA4698
     RDKit          3D

 57 60  0  0  0  0  0  0  0  0999 V2000
  198.8941  186.5802  152.7503 O   0  0  0  0  0  0  0  0  0  0  0  0
  198.3981  185.5515  152.2925 C   0  0  0  0  0  0  0  0  0  0  0  0
  197.9497  184.5202  153.0282 N   0  0  0  0  0  0  0  0  0  0  0  0
  197.6925  184.4767  154.4260 C   0  0  0  0  0  0  0  0  0  0  0  0
  197.5588  183.2157  155.0656 C   0  0  0  0  0  0  0  0  0  0  0  0
  197.7617  182.0395  154.3230 N   0  0  0  0  0  0  0  0  0  0  0  0
  196.5529  181.4872  153.7276 C   0  0  1  0  0  0  0  0  0  0  0  0
  196.8439  180.6418  152.5033 C   0  0  0  0  0  0  0  0  0  0  0  0
  197.5577  179.4353  152.6335 C   0  0  0  0  0  0  0  0  0  0  0  0
  197.8356  178.6470  151.4984 C   0  0  0  0  0  0  0  0  0  0  0  0
  197.4104  179.0541  150.2174 C   0  0  0  0  0  0  0  0  0  0  0  0
  197.7119  178.2314  149.1206 N   0  0  0  0  0  0  0  0  0  0  0  0
  197.4610  178.6590  147.7500 C   0  0  1  0  0  0  0  0  0  0  0  0
  198.2197  177.7936  146.7358 C   0  0  1  0  0  0  0  0  0  0  0  0
  197.9555  178.2639  145.4291 O   0  0  0  0  0  0  0  0  0  0  0  0
  196.6940  180.2669  150.0933 C   0  0  0  0  0  0  0  0  0  0  0  0
  196.4161  181.0573  151.2259 C   0  0  0  0  0  0  0  0  0  0  0  0
  197.2210  183.1764  156.4475 C   0  0  0  0  0  0  0  0  0  0  0  0
  197.0377  184.3974  157.1507 C   0  0  0  0  0  0  0  0  0  0  0  0
  197.1727  185.5687  156.4949 N   0  0  0  0  0  0  0  0  0  0  0  0
  197.4825  185.6521  155.1847 C   0  0  0  0  0  0  0  0  0  0  0  0
  196.7002  184.4064  158.5184 C   0  0  0  0  0  0  0  0  0  0  0  0
  196.5550  183.1873  159.2056 C   0  0  0  0  0  0  0  0  0  0  0  0
  196.7411  181.9716  158.5242 C   0  0  0  0  0  0  0  0  0  0  0  0
  197.0741  181.9604  157.1562 C   0  0  0  0  0  0  0  0  0  0  0  0
  198.3495  185.3169  150.8124 C   0  0  0  0  0  0  0  0  0  0  0  0
  197.2501  184.6459  150.2286 C   0  0  0  0  0  0  0  0  0  0  0  0
  197.1944  184.4562  148.8354 C   0  0  0  0  0  0  0  0  0  0  0  0
  198.2295  184.9422  148.0131 C   0  0  0  0  0  0  0  0  0  0  0  0
  198.1615  184.7435  146.5750 C   0  0  0  0  0  0  0  0  0  0  0  0
  198.1096  184.5824  145.4313 N   0  0  0  0  0  0  0  0  0  0  0  0
  199.3238  185.6160  148.5883 C   0  0  0  0  0  0  0  0  0  0  0  0
  199.3771  185.8157  149.9822 C   0  0  0  0  0  0  0  0  0  0  0  0
  197.7322  183.6747  152.5201 H   0  0  0  0  0  0  0  0  0  0  0  0
  198.5096  182.0997  153.6488 H   0  0  0  0  0  0  0  0  0  0  0  0
  196.0331  180.8734  154.4646 H   0  0  0  0  0  0  0  0  0  0  0  0
  195.8718  182.2900  153.4478 H   0  0  0  0  0  0  0  0  0  0  0  0
  197.8885  179.1073  153.6095 H   0  0  0  0  0  0  0  0  0  0  0  0
  198.3737  177.7174  151.6206 H   0  0  0  0  0  0  0  0  0  0  0  0
  198.2953  177.4186  149.2615 H   0  0  0  0  0  0  0  0  0  0  0  0
  196.3884  178.6193  147.5505 H   0  0  0  0  0  0  0  0  0  0  0  0
  197.7796  179.6933  147.6282 H   0  0  0  0  0  0  0  0  0  0  0  0
  199.2926  177.8551  146.9199 H   0  0  0  0  0  0  0  0  0  0  0  0
  197.9338  176.7450  146.8217 H   0  0  0  0  0  0  0  0  0  0  0  0
  198.4391  177.7431  144.7982 H   0  0  0  0  0  0  0  0  0  0  0  0
  196.3478  180.6063  149.1297 H   0  0  0  0  0  0  0  0  0  0  0  0
  195.8734  181.9838  151.1074 H   0  0  0  0  0  0  0  0  0  0  0  0
  197.5219  186.6542  154.7876 H   0  0  0  0  0  0  0  0  0  0  0  0
  196.5432  185.3353  159.0493 H   0  0  0  0  0  0  0  0  0  0  0  0
  196.2961  183.1803  160.2548 H   0  0  0  0  0  0  0  0  0  0  0  0
  196.6298  181.0347  159.0497 H   0  0  0  0  0  0  0  0  0  0  0  0
  197.2005  181.0037  156.6675 H   0  0  0  0  0  0  0  0  0  0  0  0
  196.4332  184.2886  150.8381 H   0  0  0  0  0  0  0  0  0  0  0  0
  196.3481  183.9474  148.3965 H   0  0  0  0  0  0  0  0  0  0  0  0
  200.1196  185.9985  147.9667 H   0  0  0  0  0  0  0  0  0  0  0  0
  200.2092  186.3531  150.4148 H   0  0  0  0  0  0  0  0  0  0  0  0
  197.0239  186.4341  157.0145 H   0  0  0  0  0  0  0  0  0  0  0  0
  1  2  2  0
  2  3  1  0
  2 26  1  0
  3  4  1  0
  3 34  1  0
  4  5  2  0
  4 21  1  0
  5  6  1  0
  5 18  1  0
  6  7  1  0
  6 35  1  0
  7  8  1  0
  7 36  1  1
  7 37  1  0
  8  9  1  0
  8 17  2  0
  9 10  2  0
  9 38  1  0
 10 11  1  0
 10 39  1  0
 11 12  1  0
 11 16  2  0
 12 13  1  0
 12 40  1  0
 13 14  1  0
 13 41  1  6
 13 42  1  0
 14 15  1  0
 14 43  1  1
 14 44  1  0
 15 45  1  0
 16 17  1  0
 16 46  1  0
 17 47  1  0
 18 19  1  0
 18 25  2  0
 19 20  1  0
 19 22  2  0
 20 21  2  0
 20 57  1  0
 21 48  1  0
 22 23  1  0
 22 49  1  0
 23 24  2  0
 23 50  1  0
 24 25  1  0
 24 51  1  0
 25 52  1  0
 26 27  1  0
 26 33  2  0
 27 28  2  0
 27 53  1  0
 28 29  1  0
 28 54  1  0
 29 30  1  0
 29 32  2  0
 30 31  3  0
 32 33  1  0
 32 55  1  0
 33 56  1  0
M  CHG  1  20   1
M  END
>  <s_epik_cmdline>  (112) 
J2VwaWtfcHl0aG9uJywgJy1waCcsICc3LjAwMDAwMCcsICctcGh0JywgJzIuMDAwMDAwJywgJy1tcycsICcxNicsICctdG4nLCAnOCcsICctbWEnLCAnMjAwJywgJy1pbWFlJywgJzxpbmZpbGUubWFlPicsICctb21hZScsICc8b3V0ZmlsZS5tYWU+Jw==

>  <s_epik_input>  (112) 
TiNDYyhbY0hdW2NIXTEpW2NIXVtjSF1jMUMoPU8pW05IXWMoW2NIXW5jKGMyMylbY0hdW2NIXVtjSF1bY0hdMyljMltOSF1bQ0gyXWM0W2NIXVtjSF1jKFtjSF1bY0hdNClbTkhdW0NIMl1bQ0gyXVtPSF0=

>  <s_i_glide_gridfile>  (112) 
ATP-Grid

>  <s_lp_Force_Field>  (112) 
OPLS_2005

>  <s_lp_Variant>  (112) 
rxn502b____EMOL494614____EMOL30488121____EMOL324170366-1

>  <s_lp_label>  (112) 
2581_sdstereoexpander_1_neutralizer_1_epik_1_stereoizer_1

>  <s_m_source_file>  (112) 
ATP-VSW-LIGPREP-001-in.maegz

>  <s_sd_BIOSOLVEIT.INFINISEE\_QUERY\_NAME>  (112) 
Ref-Lig

>  <s_sd_BIOSOLVEIT.INFINISEE\_QUERY\_SMILES>  (112) 
S(c1nc2c(cc1C[NH2+]Cc3ccc(cc3)C[NH+](C)C)cccc2)Cc4ccccc4

>  <s_sd_BIOSOLVEIT.INFINISEE\_REACTION\_NAME>  (112) 
rxn502b

>  <s_sd_BIOSOLVEIT.INFINISEE\_REAGENT1\_NAME>  (112) 
EMOL494614

>  <s_sd_BIOSOLVEIT.INFINISEE\_REAGENT1\_SMILES>  (112) 
O=C(O)c1ccc(C#N)cc1

>  <s_sd_BIOSOLVEIT.INFINISEE\_REAGENT2\_NAME>  (112) 
EMOL30488121

>  <s_sd_BIOSOLVEIT.INFINISEE\_REAGENT2\_SMILES>  (112) 
Brc1c(N)cnc2c1cccc2

>  <s_sd_BIOSOLVEIT.INFINISEE\_REAGENT3\_NAME>  (112) 
EMOL324170366

>  <s_sd_BIOSOLVEIT.INFINISEE\_REAGENT3\_SMILES>  (112) 
OCCNc1ccc(cc1)CN

>  <s_sd_BIOSOLVEIT.INFINISEE\_SPACE>  (112) 
eXplore_7tr_2022-12

>  <s_vsw_compound_code>  (112) 
82561

>  <s_vsw_variant>  (112) 
82561-1

>  <r_epik_Charging_Adjusted_Penalty>  (112) 
0.17238959118765801

>  <r_epik_Ionization_Penalty>  (112) 
0.093700000000000006

>  <r_epik_Ionization_Penalty_Charging>  (112) 
0.081100000000000005

>  <r_epik_Ionization_Penalty_Neutral>  (112) 
0.0126

>  <r_epik_State_Penalty>  (112) 
0.091300000000000006

>  <r_i_docking_score>  (112) 
-4.7572290456142596

>  <r_i_glide_ecoul>  (112) 
-8.1532278060913104

>  <r_i_glide_eff_state_penalty>  (112) 
0.091300000000000006

>  <r_i_glide_einternal>  (112) 
3.6245176792144802

>  <r_i_glide_emodel>  (112) 
-63.244676371210701

>  <r_i_glide_energy>  (112) 
-47.563925743102999

>  <r_i_glide_erotb>  (112) 
0.93379465508218396

>  <r_i_glide_esite>  (112) 
-0.0182595149246037

>  <r_i_glide_evdw>  (112) 
-39.410697937011697

>  <r_i_glide_gscore>  (112) 
-4.84852904561426

>  <r_i_glide_hbond>  (112) 
-0.027466680391646799

>  <r_i_glide_ligand_efficiency>  (112) 
-0.14415845592770499

>  <r_i_glide_ligand_efficiency_ln>  (112) 
-1.0579831081308699

>  <r_i_glide_ligand_efficiency_sa>  (112) 
-0.46239319580838301

>  <r_i_glide_lipo>  (112) 
-1.76319638993732

>  <r_i_glide_metal>  (112) 
-0

>  <r_i_glide_rewards>  (112) 
-0.77988204767858904

>  <r_lp_Energy>  (112) 
41.237979000000003

>  <r_qp_ACxDN^.5/SA>  (112) 
0.024414600000000002

>  <r_qp_CIQPlogS>  (112) 
-6.7990000000000004

>  <r_qp_EA(eV)>  (112) 
1.0960000000000001

>  <r_qp_FISA>  (112) 
164.76499999999999

>  <r_qp_FOSA>  (112) 
114.64100000000001

>  <r_qp_IP(eV)>  (112) 
8.4900000000000002

>  <r_qp_Jm>  (112) 
0.015772138778702299

>  <r_qp_PISA>  (112) 
433.28100000000001

>  <r_qp_PSA>  (112) 
116.509

>  <r_qp_PercentHumanOralAbsorption>  (112) 
89.081999999999994

>  <r_qp_QPPCaco>  (112) 
271.29000000000002

>  <r_qp_QPPMDCK>  (112) 
120.77

>  <r_qp_QPlogBB>  (112) 
-1.6240000000000001

>  <r_qp_QPlogHERG>  (112) 
-6.3090000000000002

>  <r_qp_QPlogKhsa>  (112) 
0.13100000000000001

>  <r_qp_QPlogKp>  (112) 
-2.0699999999999998

>  <r_qp_QPlogPC16>  (112) 
15.929

>  <r_qp_QPlogPo/w>  (112) 
3.1739999999999999

>  <r_qp_QPlogPoct>  (112) 
26.777000000000001

>  <r_qp_QPlogPw>  (112) 
17.724

>  <r_qp_QPlogS>  (112) 
-5.3730000000000002

>  <r_qp_QPpolrz>  (112) 
45.942999999999998

>  <r_qp_SASA>  (112) 
712.68700000000001

>  <r_qp_SAamideO>  (112) 
0

>  <r_qp_SAfluorine>  (112) 
0

>  <r_qp_WPSA>  (112) 
0

>  <r_qp_accptHB>  (112) 
8.6999999999999993

>  <r_qp_dip^2/V>  (112) 
0.044632499999999999

>  <r_qp_dipole>  (112) 
7.7880000000000003

>  <r_qp_donorHB>  (112) 
4

>  <r_qp_glob>  (112) 
0.83248429999999995

>  <r_qp_mol_MW>  (112) 
437.5

>  <r_qp_volume>  (112) 
1358.829

>  <r_sd_BIOSOLVEIT.INFINISEE\_FTREES\_SIMILARITY>  (112) 
0.91200000000000003

>  <r_sd_BIOSOLVEIT.LOGP>  (112) 
4.3750799999999996

>  <r_sd_BIOSOLVEIT.MOLECULAR\_WEIGHT>  (112) 
437.50099999999998

>  <r_sd_BIOSOLVEIT.TPSA>  (112) 
110.06999999999999

>  <i_epik_Tot_Q>  (112) 
1

>  <i_epik_Tot_abs_Q>  (112) 
1

>  <i_f3d_flags>  (112) 
0

>  <i_i_glide_confnum>  (112) 
14

>  <i_i_glide_lignum>  (112) 
1057

>  <i_i_glide_posenum>  (112) 
7

>  <i_i_glide_rotatable_bonds>  (112) 
10

>  <i_lp_mmshare_version>  (112) 
65135

>  <i_m_ct_format>  (112) 
2

>  <i_m_source_file_index>  (112) 
2581

>  <i_qp_#NandO>  (112) 
7

>  <i_qp_#acid>  (112) 
0

>  <i_qp_#amide>  (112) 
0

>  <i_qp_#amidine>  (112) 
0

>  <i_qp_#amine>  (112) 
0

>  <i_qp_#in34>  (112) 
0

>  <i_qp_#in56>  (112) 
22

>  <i_qp_#metab>  (112) 
7

>  <i_qp_#nonHatm>  (112) 
33

>  <i_qp_#noncon>  (112) 
0

>  <i_qp_#ringatoms>  (112) 
22

>  <i_qp_#rotor>  (112) 
10

>  <i_qp_#rtvFG>  (112) 
0

>  <i_qp_#stars>  (112) 
0

>  <i_qp_CNS>  (112) 
-2

>  <i_qp_HumanOralAbsorption>  (112) 
3

>  <i_qp_RuleOfFive>  (112) 
0

>  <i_qp_RuleOfThree>  (112) 
1

>  <i_sd_BIOSOLVEIT.INFINISEE\_RESULT\_RANK>  (112) 
39338

>  <i_sd_version>  (112) 
0

>  <b_lp_Chiralities_Consistent>  (112) 
1

>  <b_sd_chiral_flag>  (112) 
0

>  <canonical_id>  (112) 
ATP-HTVS-132BACAA4698

>  <compound_code>  (112) 
82561

>  <title>  (112) 
rxn502b____EMOL494614____EMOL30488121____EMOL324170366

>  <variant>  (112) 
82561-1

>  <source_file>  (112) 
运行/运行/ATP-VSW/ATP-VSW-DOCK_HTVS_1-001_lib/ATP-VSW-DOCK_HTVS_1-001_lib

>  <canonical_smiles>  (112) 
N#Cc1ccc(C(=O)Nc2c[nH+]c3ccccc3c2NCc2ccc(NCCO)cc2)cc1

>  <scaffold>  (112) 
O=C(Nc1c[nH+]c2ccccc2c1NCc1ccccc1)c1ccccc1

>  <molecular_formula>  (112) 
C26H24N5O2+

$$$$
ATP-HTVS-134FC0CB3694
     RDKit          3D

 62 65  0  0  0  0  0  0  0  0999 V2000
  200.1233  177.0140  148.0236 Cl  0  0  0  0  0  0  0  0  0  0  0  0
  198.9437  177.9001  148.9211 C   0  0  0  0  0  0  0  0  0  0  0  0
  199.0156  177.9324  150.3298 C   0  0  0  0  0  0  0  0  0  0  0  0
  198.0498  178.6579  151.0414 C   0  0  0  0  0  0  0  0  0  0  0  0
  198.0909  178.6738  152.4003 F   0  0  0  0  0  0  0  0  0  0  0  0
  197.0276  179.3594  150.4078 C   0  0  0  0  0  0  0  0  0  0  0  0
  196.9487  179.3188  149.0027 C   0  0  0  0  0  0  0  0  0  0  0  0
  197.9076  178.5938  148.2551 C   0  0  0  0  0  0  0  0  0  0  0  0
  195.9894  180.0963  151.2354 C   0  0  1  0  0  0  0  0  0  0  0  0
  196.4842  181.4749  151.6809 C   0  0  0  0  0  0  0  0  0  0  0  0
  196.3257  182.4431  150.9379 O   0  0  0  0  0  0  0  0  0  0  0  0
  197.0629  181.5496  152.8893 N   0  0  0  0  0  0  0  0  0  0  0  0
  197.5139  182.7226  153.5697 C   0  0  0  0  0  0  0  0  0  0  0  0
  198.5959  182.6327  154.4844 C   0  0  0  0  0  0  0  0  0  0  0  0
  199.2336  181.3939  154.6748 N   0  0  0  0  0  0  0  0  0  0  0  0
  199.0163  180.7712  155.9783 C   0  0  1  0  0  0  0  0  0  0  0  0
  199.6859  179.4184  156.1335 C   0  0  0  0  0  0  0  0  0  0  0  0
  199.3944  178.4024  155.2211 C   0  0  0  0  0  0  0  0  0  0  0  0
  199.9688  177.1326  155.3155 C   0  0  0  0  0  0  0  0  0  0  0  0
  200.8340  176.8542  156.3914 C   0  0  0  0  0  0  0  0  0  0  0  0
  201.1238  177.8590  157.3485 C   0  0  0  0  0  0  0  0  0  0  0  0
  200.5544  179.1446  157.2061 C   0  0  0  0  0  0  0  0  0  0  0  0
  201.4282  175.4630  156.5251 C   0  0  1  0  0  0  0  0  0  0  0  0
  202.7481  175.3458  155.8546 N   0  0  1  0  0  0  0  0  0  0  0  0
  203.4161  174.0631  156.1882 C   0  0  2  0  0  0  0  0  0  0  0  0
  202.7044  175.5622  154.3845 C   0  0  2  0  0  0  0  0  0  0  0  0
  199.0037  183.8102  155.1796 C   0  0  0  0  0  0  0  0  0  0  0  0
  198.2792  185.0181  154.9918 C   0  0  0  0  0  0  0  0  0  0  0  0
  197.2384  185.0448  154.1325 N   0  0  0  0  0  0  0  0  0  0  0  0
  196.8478  183.9654  153.4168 C   0  0  0  0  0  0  0  0  0  0  0  0
  198.6452  186.1959  155.6783 C   0  0  0  0  0  0  0  0  0  0  0  0
  199.7467  186.1815  156.5557 C   0  0  0  0  0  0  0  0  0  0  0  0
  200.4863  184.9993  156.7342 C   0  0  0  0  0  0  0  0  0  0  0  0
  200.1304  183.8278  156.0403 C   0  0  0  0  0  0  0  0  0  0  0  0
  199.7964  177.4053  150.8516 H   0  0  0  0  0  0  0  0  0  0  0  0
  196.1459  179.8352  148.5003 H   0  0  0  0  0  0  0  0  0  0  0  0
  197.8559  178.5605  147.1716 H   0  0  0  0  0  0  0  0  0  0  0  0
  195.0962  180.2209  150.6460 H   0  0  0  0  0  0  0  0  0  0  0  0
  195.7106  179.4918  152.1002 H   0  0  0  0  0  0  0  0  0  0  0  0
  197.2017  180.6741  153.3771 H   0  0  0  0  0  0  0  0  0  0  0  0
  199.1238  180.7578  153.8930 H   0  0  0  0  0  0  0  0  0  0  0  0
  199.3655  181.4063  156.7820 H   0  0  0  0  0  0  0  0  0  0  0  0
  197.9467  180.6361  156.1418 H   0  0  0  0  0  0  0  0  0  0  0  0
  198.6761  178.6189  154.4484 H   0  0  0  0  0  0  0  0  0  0  0  0
  199.7402  176.3784  154.5795 H   0  0  0  0  0  0  0  0  0  0  0  0
  201.7678  177.6490  158.1947 H   0  0  0  0  0  0  0  0  0  0  0  0
  200.7625  179.9028  157.9414 H   0  0  0  0  0  0  0  0  0  0  0  0
  201.5464  175.2433  157.5885 H   0  0  0  0  0  0  0  0  0  0  0  0
  200.7551  174.7160  156.1170 H   0  0  0  0  0  0  0  0  0  0  0  0
  202.8377  173.2102  155.8304 H   0  0  0  0  0  0  0  0  0  0  0  0
  203.5481  173.9577  157.2667 H   0  0  0  0  0  0  0  0  0  0  0  0
  204.4051  174.0098  155.7297 H   0  0  0  0  0  0  0  0  0  0  0  0
  202.0427  174.8412  153.9041 H   0  0  0  0  0  0  0  0  0  0  0  0
  203.6958  175.4584  153.9442 H   0  0  0  0  0  0  0  0  0  0  0  0
  202.3616  176.5652  154.1314 H   0  0  0  0  0  0  0  0  0  0  0  0
  195.9750  184.1182  152.7977 H   0  0  0  0  0  0  0  0  0  0  0  0
  198.0991  187.1172  155.5331 H   0  0  0  0  0  0  0  0  0  0  0  0
  200.0405  187.0800  157.0811 H   0  0  0  0  0  0  0  0  0  0  0  0
  201.3387  184.9860  157.3979 H   0  0  0  0  0  0  0  0  0  0  0  0
  200.7467  182.9525  156.1641 H   0  0  0  0  0  0  0  0  0  0  0  0
  196.7227  185.9216  154.0197 H   0  0  0  0  0  0  0  0  0  0  0  0
  203.2955  176.0985  156.2467 H   0  0  0  0  0  0  0  0  0  0  0  0
  1  2  1  0
  2  3  2  0
  2  8  1  0
  3  4  1  0
  3 35  1  0
  4  5  1  0
  4  6  2  0
  6  7  1  0
  6  9  1  0
  7  8  2  0
  7 36  1  0
  8 37  1  0
  9 10  1  0
  9 38  1  6
  9 39  1  0
 10 11  2  0
 10 12  1  0
 12 13  1  0
 12 40  1  0
 13 14  2  0
 13 30  1  0
 14 15  1  0
 14 27  1  0
 15 16  1  0
 15 41  1  0
 16 17  1  0
 16 42  1  1
 16 43  1  0
 17 18  1  0
 17 22  2  0
 18 19  2  0
 18 44  1  0
 19 20  1  0
 19 45  1  0
 20 21  2  0
 20 23  1  0
 21 22  1  0
 21 46  1  0
 22 47  1  0
 23 24  1  0
 23 48  1  1
 23 49  1  0
 24 25  1  0
 24 26  1  0
 24 62  1  1
 25 50  1  6
 25 51  1  0
 25 52  1  0
 26 53  1  6
 26 54  1  0
 26 55  1  0
 27 28  1  0
 27 34  2  0
 28 29  1  0
 28 31  2  0
 29 30  2  0
 29 61  1  0
 30 56  1  0
 31 32  1  0
 31 57  1  0
 32 33  2  0
 32 58  1  0
 33 34  1  0
 33 59  1  0
 34 60  1  0
M  CHG  2  24   1  29   1
M  END
>  <s_epik_cmdline>  (113) 
J2VwaWtfcHl0aG9uJywgJy1waCcsICc3LjAwMDAwMCcsICctcGh0JywgJzIuMDAwMDAwJywgJy1tcycsICcxNicsICctdG4nLCAnOCcsICctbWEnLCAnMjAwJywgJy1pbWFlJywgJzxpbmZpbGUubWFlPicsICctb21hZScsICc8b3V0ZmlsZS5tYWU+Jw==

>  <s_epik_input>  (113) 
Q2xjMVtjSF1jKEYpYyhbY0hdW2NIXTEpW0NIMl1DKD1PKVtOSF1jKFtjSF1uYyhjMjMpW2NIXVtjSF1bY0hdW2NIXTMpYzJbTkhdW0NIMl1jNFtjSF1bY0hdYyhbY0hdW2NIXTQpW0NIMl1OKFtDSDNdKVtDSDNd

>  <s_i_glide_gridfile>  (113) 
ATP-Grid

>  <s_lp_Force_Field>  (113) 
OPLS_2005

>  <s_lp_Variant>  (113) 
rxn502b____EMOL36771238____EMOL30488121____EMOL50155899-1

>  <s_lp_label>  (113) 
2221_sdstereoexpander_1_neutralizer_1_epik_1_stereoizer_1

>  <s_m_source_file>  (113) 
ATP-VSW-LIGPREP-001-in.maegz

>  <s_sd_BIOSOLVEIT.INFINISEE\_QUERY\_NAME>  (113) 
Ref-Lig

>  <s_sd_BIOSOLVEIT.INFINISEE\_QUERY\_SMILES>  (113) 
S(c1nc2c(cc1C[NH2+]Cc3ccc(cc3)C[NH+](C)C)cccc2)Cc4ccccc4

>  <s_sd_BIOSOLVEIT.INFINISEE\_REACTION\_NAME>  (113) 
rxn502b

>  <s_sd_BIOSOLVEIT.INFINISEE\_REAGENT1\_NAME>  (113) 
EMOL36771238

>  <s_sd_BIOSOLVEIT.INFINISEE\_REAGENT1\_SMILES>  (113) 
Clc1cc(F)c(cc1)CC(Cl)=O

>  <s_sd_BIOSOLVEIT.INFINISEE\_REAGENT2\_NAME>  (113) 
EMOL30488121

>  <s_sd_BIOSOLVEIT.INFINISEE\_REAGENT2\_SMILES>  (113) 
Brc1c(N)cnc2c1cccc2

>  <s_sd_BIOSOLVEIT.INFINISEE\_REAGENT3\_NAME>  (113) 
EMOL50155899

>  <s_sd_BIOSOLVEIT.INFINISEE\_REAGENT3\_SMILES>  (113) 
N(Cc1ccc(cc1)CN)(C)C

>  <s_sd_BIOSOLVEIT.INFINISEE\_SPACE>  (113) 
eXplore_7tr_2022-12

>  <s_vsw_compound_code>  (113) 
71041

>  <s_vsw_variant>  (113) 
71041-1

>  <r_epik_Charging_Adjusted_Penalty>  (113) 
0.13627057216904201

>  <r_epik_Ionization_Penalty>  (113) 
0.068099999999999994

>  <r_epik_Ionization_Penalty_Charging>  (113) 
0.068099999999999994

>  <r_epik_Ionization_Penalty_Neutral>  (113) 
0

>  <r_epik_State_Penalty>  (113) 
0.068099999999999994

>  <r_i_docking_score>  (113) 
-4.5836821116937996

>  <r_i_glide_ecoul>  (113) 
-9.4162187576293892

>  <r_i_glide_eff_state_penalty>  (113) 
0.068099999999999994

>  <r_i_glide_einternal>  (113) 
1.3312906026840201

>  <r_i_glide_emodel>  (113) 
-61.280818817041101

>  <r_i_glide_energy>  (113) 
-42.721577644348102

>  <r_i_glide_erotb>  (113) 
0.61839940339132504

>  <r_i_glide_esite>  (113) 
-0.0150362927684413

>  <r_i_glide_evdw>  (113) 
-33.3053588867188

>  <r_i_glide_gscore>  (113) 
-4.6517821116937998

>  <r_i_glide_hbond>  (113) 
0

>  <r_i_glide_ligand_efficiency>  (113) 
-0.13481417975570001

>  <r_i_glide_ligand_efficiency_ln>  (113) 
-1.0126639464015099

>  <r_i_glide_ligand_efficiency_sa>  (113) 
-0.43674560720273498

>  <r_i_glide_lipo>  (113) 
-1.6159957262239499

>  <r_i_glide_metal>  (113) 
-0

>  <r_i_glide_rewards>  (113) 
-0.56144873811238505

>  <r_lp_Energy>  (113) 
32.995193999999998

>  <r_qp_ACxDN^.5/SA>  (113) 
0.0126

>  <r_qp_CIQPlogS>  (113) 
-6.5190000000000001

>  <r_qp_EA(eV)>  (113) 
1.002

>  <r_qp_FISA>  (113) 
71.004999999999995

>  <r_qp_FOSA>  (113) 
225.52699999999999

>  <r_qp_IP(eV)>  (113) 
8.5920000000000005

>  <r_qp_Jm>  (113) 
0.0098173877547643503

>  <r_qp_PISA>  (113) 
367.55000000000001

>  <r_qp_PSA>  (113) 
61.927999999999997

>  <r_qp_PercentHumanOralAbsorption>  (113) 
100

>  <r_qp_QPPCaco>  (113) 
524.15999999999997

>  <r_qp_QPPMDCK>  (113) 
621.81299999999999

>  <r_qp_QPlogBB>  (113) 
-0.047

>  <r_qp_QPlogHERG>  (113) 
-6.766

>  <r_qp_QPlogKhsa>  (113) 
0.78200000000000003

>  <r_qp_QPlogKp>  (113) 
-2.8279999999999998

>  <r_qp_QPlogPC16>  (113) 
14.869

>  <r_qp_QPlogPo/w>  (113) 
4.8860000000000001

>  <r_qp_QPlogPoct>  (113) 
23.138999999999999

>  <r_qp_QPlogPw>  (113) 
12.048

>  <r_qp_QPlogS>  (113) 
-4.859

>  <r_qp_QPpolrz>  (113) 
48.261000000000003

>  <r_qp_SASA>  (113) 
729.55399999999997

>  <r_qp_SAamideO>  (113) 
0

>  <r_qp_SAfluorine>  (113) 
23.335999999999999

>  <r_qp_WPSA>  (113) 
65.471999999999994

>  <r_qp_accptHB>  (113) 
6.5

>  <r_qp_dip^2/V>  (113) 
0.0315024

>  <r_qp_dipole>  (113) 
6.6420000000000003

>  <r_qp_donorHB>  (113) 
2

>  <r_qp_glob>  (113) 
0.82971430000000002

>  <r_qp_mol_MW>  (113) 
476.98000000000002

>  <r_qp_volume>  (113) 
1400.3340000000001

>  <r_sd_BIOSOLVEIT.INFINISEE\_FTREES\_SIMILARITY>  (113) 
0.92900000000000005

>  <r_sd_BIOSOLVEIT.LOGP>  (113) 
4.4650999999999996

>  <r_sd_BIOSOLVEIT.MOLECULAR\_WEIGHT>  (113) 
477.988

>  <r_sd_BIOSOLVEIT.TPSA>  (113) 
58.460000000000001

>  <i_epik_Tot_Q>  (113) 
2

>  <i_epik_Tot_abs_Q>  (113) 
2

>  <i_f3d_flags>  (113) 
0

>  <i_i_glide_confnum>  (113) 
7

>  <i_i_glide_lignum>  (113) 
746

>  <i_i_glide_posenum>  (113) 
13

>  <i_i_glide_rotatable_bonds>  (113) 
9

>  <i_lp_mmshare_version>  (113) 
65135

>  <i_m_ct_format>  (113) 
2

>  <i_m_source_file_index>  (113) 
2221

>  <i_qp_#NandO>  (113) 
5

>  <i_qp_#acid>  (113) 
0

>  <i_qp_#amide>  (113) 
0

>  <i_qp_#amidine>  (113) 
0

>  <i_qp_#amine>  (113) 
1

>  <i_qp_#in34>  (113) 
0

>  <i_qp_#in56>  (113) 
22

>  <i_qp_#metab>  (113) 
7

>  <i_qp_#nonHatm>  (113) 
34

>  <i_qp_#noncon>  (113) 
0

>  <i_qp_#ringatoms>  (113) 
22

>  <i_qp_#rotor>  (113) 
8

>  <i_qp_#rtvFG>  (113) 
0

>  <i_qp_#stars>  (113) 
0

>  <i_qp_CNS>  (113) 
1

>  <i_qp_HumanOralAbsorption>  (113) 
3

>  <i_qp_RuleOfFive>  (113) 
0

>  <i_qp_RuleOfThree>  (113) 
1

>  <i_sd_BIOSOLVEIT.INFINISEE\_RESULT\_RANK>  (113) 
5230

>  <i_sd_version>  (113) 
0

>  <b_lp_Chiralities_Consistent>  (113) 
1

>  <b_sd_chiral_flag>  (113) 
0

>  <canonical_id>  (113) 
ATP-HTVS-134FC0CB3694

>  <compound_code>  (113) 
71041

>  <title>  (113) 
rxn502b____EMOL36771238____EMOL30488121____EMOL50155899

>  <variant>  (113) 
71041-1

>  <source_file>  (113) 
运行/运行/ATP-VSW/ATP-VSW-DOCK_HTVS_1-001_lib/ATP-VSW-DOCK_HTVS_1-001_lib

>  <canonical_smiles>  (113) 
C[NH+](C)Cc1ccc(CNc2c(NC(=O)Cc3ccc(Cl)cc3F)c[nH+]c3ccccc23)cc1

>  <scaffold>  (113) 
O=C(Cc1ccccc1)Nc1c[nH+]c2ccccc2c1NCc1ccccc1

>  <molecular_formula>  (113) 
C27H28ClFN4O+2

$$$$
ATP-HTVS-1356F7D69808
     RDKit          3D

 61 64  0  0  0  0  0  0  0  0999 V2000
  195.9739  184.2142  160.5316 F   0  0  0  0  0  0  0  0  0  0  0  0
  196.3261  185.2373  159.7156 C   0  0  0  0  0  0  0  0  0  0  0  0
  196.7622  184.9641  158.4072 C   0  0  0  0  0  0  0  0  0  0  0  0
  196.8173  183.5989  158.0025 N   0  0  0  0  0  0  0  0  0  0  0  0
  196.8879  183.1252  156.7467 C   0  0  0  0  0  0  0  0  0  0  0  0
  197.0802  183.8040  155.7511 O   0  0  0  0  0  0  0  0  0  0  0  0
  196.6833  181.7874  156.6914 N   0  0  0  0  0  0  0  0  0  0  0  0
  196.4367  181.0610  155.4591 C   0  0  1  0  0  0  0  0  0  0  0  0
  197.5440  181.1669  154.3863 C   0  0  2  0  0  0  0  0  0  0  0  0
  197.0712  180.6388  153.0989 N   0  0  0  0  0  0  0  0  0  0  0  0
  197.7385  179.5295  152.6990 C   0  0  0  0  0  0  0  0  0  0  0  0
  197.5695  178.8743  151.6959 O   0  0  0  0  0  0  0  0  0  0  0  0
  198.8454  179.3555  153.6940 C   0  0  0  0  0  0  0  0  0  0  0  0
  198.7368  180.2950  154.6886 C   0  0  0  0  0  0  0  0  0  0  0  0
  199.6640  180.3592  155.7515 C   0  0  0  0  0  0  0  0  0  0  0  0
  200.7249  179.4221  155.7444 C   0  0  0  0  0  0  0  0  0  0  0  0
  200.8513  178.4772  154.6938 C   0  0  0  0  0  0  0  0  0  0  0  0
  199.9072  178.4412  153.6386 C   0  0  0  0  0  0  0  0  0  0  0  0
  196.1600  181.4241  152.2621 C   0  0  1  0  0  0  0  0  0  0  0  0
  196.8350  182.2646  151.1804 C   0  0  0  0  0  0  0  0  0  0  0  0
  196.4858  183.6281  151.0170 C   0  0  0  0  0  0  0  0  0  0  0  0
  197.1162  184.4158  150.0234 C   0  0  0  0  0  0  0  0  0  0  0  0
  198.1005  183.8390  149.1906 C   0  0  0  0  0  0  0  0  0  0  0  0
  198.4391  182.4850  149.3414 C   0  0  0  0  0  0  0  0  0  0  0  0
  197.7961  181.7044  150.3220 C   0  0  0  0  0  0  0  0  0  0  0  0
  197.1235  186.0368  157.5653 C   0  0  0  0  0  0  0  0  0  0  0  0
  197.0072  187.3906  158.0219 C   0  0  0  0  0  0  0  0  0  0  0  0
  196.6302  187.6388  159.3402 C   0  0  0  0  0  0  0  0  0  0  0  0
  196.2681  186.5641  160.1944 C   0  0  0  0  0  0  0  0  0  0  0  0
  196.6206  189.0734  159.8456 C   0  0  1  0  0  0  0  0  0  0  0  0
  197.9885  189.6179  160.1469 N   0  0  2  0  0  0  0  0  0  0  0  0
  197.9353  191.0159  160.5922 C   0  0  2  0  0  0  0  0  0  0  0  0
  198.9589  189.4655  159.0202 C   0  0  2  0  0  0  0  0  0  0  0  0
  196.6153  182.9312  158.7323 H   0  0  0  0  0  0  0  0  0  0  0  0
  196.4709  181.2861  157.5351 H   0  0  0  0  0  0  0  0  0  0  0  0
  196.2450  180.0103  155.6679 H   0  0  0  0  0  0  0  0  0  0  0  0
  195.4968  181.4373  155.0613 H   0  0  0  0  0  0  0  0  0  0  0  0
  197.8875  182.1905  154.1969 H   0  0  0  0  0  0  0  0  0  0  0  0
  199.5679  181.0924  156.5390 H   0  0  0  0  0  0  0  0  0  0  0  0
  201.4528  179.4256  156.5444 H   0  0  0  0  0  0  0  0  0  0  0  0
  201.6677  177.7669  154.7017 H   0  0  0  0  0  0  0  0  0  0  0  0
  200.0018  177.7421  152.8204 H   0  0  0  0  0  0  0  0  0  0  0  0
  195.4455  180.7546  151.7928 H   0  0  0  0  0  0  0  0  0  0  0  0
  195.5860  182.0954  152.8932 H   0  0  0  0  0  0  0  0  0  0  0  0
  195.7442  184.0801  151.6584 H   0  0  0  0  0  0  0  0  0  0  0  0
  196.8519  185.4632  149.9066 H   0  0  0  0  0  0  0  0  0  0  0  0
  198.5939  184.4387  148.4416 H   0  0  0  0  0  0  0  0  0  0  0  0
  199.1931  182.0375  148.7157 H   0  0  0  0  0  0  0  0  0  0  0  0
  198.0733  180.6303  150.4142 H   0  0  0  0  0  0  0  0  0  0  0  0
  197.5002  185.9270  156.5677 H   0  0  0  0  0  0  0  0  0  0  0  0
  197.2516  188.1553  157.3280 H   0  0  0  0  0  0  0  0  0  0  0  0
  195.9599  186.7461  161.2139 H   0  0  0  0  0  0  0  0  0  0  0  0
  196.1162  189.7034  159.1077 H   0  0  0  0  0  0  0  0  0  0  0  0
  196.0115  189.1324  160.7545 H   0  0  0  0  0  0  0  0  0  0  0  0
  197.5004  191.6702  159.8356 H   0  0  0  0  0  0  0  0  0  0  0  0
  198.9423  191.3761  160.8073 H   0  0  0  0  0  0  0  0  0  0  0  0
  197.3514  191.1096  161.5101 H   0  0  0  0  0  0  0  0  0  0  0  0
  198.5952  189.9696  158.1305 H   0  0  0  0  0  0  0  0  0  0  0  0
  199.1439  188.4198  158.7830 H   0  0  0  0  0  0  0  0  0  0  0  0
  199.9335  189.9035  159.2786 H   0  0  0  0  0  0  0  0  0  0  0  0
  198.3668  189.1010  160.9136 H   0  0  0  0  0  0  0  0  0  0  0  0
  1  2  1  0
  2  3  2  0
  2 29  1  0
  3  4  1  0
  3 26  1  0
  4  5  1  0
  4 34  1  0
  5  6  2  0
  5  7  1  0
  7  8  1  0
  7 35  1  0
  8  9  1  0
  8 36  1  1
  8 37  1  0
  9 10  1  0
  9 14  1  0
  9 38  1  6
 10 11  1  0
 10 19  1  0
 11 12  2  0
 11 13  1  0
 13 14  1  0
 13 18  2  0
 14 15  2  0
 15 16  1  0
 15 39  1  0
 16 17  2  0
 16 40  1  0
 17 18  1  0
 17 41  1  0
 18 42  1  0
 19 20  1  0
 19 43  1  6
 19 44  1  0
 20 21  2  0
 20 25  1  0
 21 22  1  0
 21 45  1  0
 22 23  2  0
 22 46  1  0
 23 24  1  0
 23 47  1  0
 24 25  2  0
 24 48  1  0
 25 49  1  0
 26 27  2  0
 26 50  1  0
 27 28  1  0
 27 51  1  0
 28 29  2  0
 28 30  1  0
 29 52  1  0
 30 31  1  0
 30 53  1  6
 30 54  1  0
 31 32  1  0
 31 33  1  0
 31 61  1  1
 32 55  1  6
 32 56  1  0
 32 57  1  0
 33 58  1  6
 33 59  1  0
 33 60  1  0
M  CHG  1  31   1
M  END
>  <s_epik_cmdline>  (114) 
J2VwaWtfcHl0aG9uJywgJy1waCcsICc3LjAwMDAwMCcsICctcGh0JywgJzIuMDAwMDAwJywgJy1tcycsICcxNicsICctdG4nLCAnOCcsICctbWEnLCAnMjAwJywgJy1pbWFlJywgJzxpbmZpbGUubWFlPicsICctb21hZScsICc8b3V0ZmlsZS5tYWU+Jw==

>  <s_epik_input>  (114) 
W0NIM11OKFtDSDNdKVtDSDJdYyhbY0hdMSlbY0hdW2NIXWMoYzFGKVtOSF1DKD1PKVtOSF1bQ0gyXVtDQEBIXShjKGMyMylbY0hdW2NIXVtjSF1bY0hdMylOKEMyPU8pW0NIMl1jNFtjSF1bY0hdW2NIXVtjSF1bY0hdNA==

>  <s_i_glide_gridfile>  (114) 
ATP-Grid

>  <s_lp_Force_Field>  (114) 
OPLS_2005

>  <s_lp_Variant>  (114) 
m_2430bbb____22525962____12219700-1

>  <s_lp_label>  (114) 
873_sdstereoexpander_1_neutralizer_1_epik_1_stereoizer_1

>  <s_m_source_file>  (114) 
ATP-VSW-LIGPREP-003-in.maegz

>  <s_sd_BIOSOLVEIT.INFINISEE\_QUERY\_NAME>  (114) 
Ref-Lig

>  <s_sd_BIOSOLVEIT.INFINISEE\_QUERY\_SMILES>  (114) 
S(c1nc2c(cc1C[NH2+]Cc3ccc(cc3)C[NH+](C)C)cccc2)Cc4ccccc4

>  <s_sd_BIOSOLVEIT.INFINISEE\_REACTION\_NAME>  (114) 
m_2430bbb

>  <s_sd_BIOSOLVEIT.INFINISEE\_REAGENT1\_SMILES>  (114) 
[R1*]C(=O)Nc1c(F)cc(cc1)CN(C)C

>  <s_sd_BIOSOLVEIT.INFINISEE\_REAGENT2\_SMILES>  (114) 
[R1*]NCC1N(C(=O)c2c1cccc2)Cc3ccccc3

>  <s_sd_BIOSOLVEIT.INFINISEE\_SPACE>  (114) 
REALSpace_44bn_2023-08

>  <s_vsw_compound_code>  (114) 
27907

>  <s_vsw_variant>  (114) 
27907-1

>  <r_epik_Charging_Adjusted_Penalty>  (114) 
0.093921114358164207

>  <r_epik_Ionization_Penalty>  (114) 
0.047

>  <r_epik_Ionization_Penalty_Charging>  (114) 
0.047

>  <r_epik_Ionization_Penalty_Neutral>  (114) 
0

>  <r_epik_State_Penalty>  (114) 
0.047

>  <r_i_docking_score>  (114) 
-4.7621621555883902

>  <r_i_glide_ecoul>  (114) 
-7.9788541793823198

>  <r_i_glide_eff_state_penalty>  (114) 
0.047

>  <r_i_glide_einternal>  (114) 
2.2138612270355198

>  <r_i_glide_emodel>  (114) 
-61.029566429269003

>  <r_i_glide_energy>  (114) 
-45.081435203552203

>  <r_i_glide_erotb>  (114) 
0.79989992766617801

>  <r_i_glide_esite>  (114) 
-0.21513362877606301

>  <r_i_glide_evdw>  (114) 
-37.102581024169901

>  <r_i_glide_gscore>  (114) 
-4.8091621555883899

>  <r_i_glide_hbond>  (114) 
-0.17247791425106801

>  <r_i_glide_ligand_efficiency>  (114) 
-0.14430794410873901

>  <r_i_glide_ligand_efficiency_ln>  (114) 
-1.0590802062468401

>  <r_i_glide_ligand_efficiency_sa>  (114) 
-0.46287268428042

>  <r_i_glide_lipo>  (114) 
-1.5359798065413399

>  <r_i_glide_metal>  (114) 
-0

>  <r_i_glide_rewards>  (114) 
-0.63351355557025202

>  <r_lp_Energy>  (114) 
45.028903

>  <r_qp_ACxDN^.5/SA>  (114) 
0.012755300000000001

>  <r_qp_CIQPlogS>  (114) 
-4.9459999999999997

>  <r_qp_EA(eV)>  (114) 
0.32700000000000001

>  <r_qp_FISA>  (114) 
75.474000000000004

>  <r_qp_FOSA>  (114) 
254.15700000000001

>  <r_qp_IP(eV)>  (114) 
8.8249999999999993

>  <r_qp_Jm>  (114) 
0.0057919144945682297

>  <r_qp_PISA>  (114) 
414.42099999999999

>  <r_qp_PSA>  (114) 
79.379000000000005

>  <r_qp_PercentHumanOralAbsorption>  (114) 
96.686999999999998

>  <r_qp_QPPCaco>  (114) 
367.32999999999998

>  <r_qp_QPPMDCK>  (114) 
367.10700000000003

>  <r_qp_QPlogBB>  (114) 
-0.191

>  <r_qp_QPlogHERG>  (114) 
-6.2830000000000004

>  <r_qp_QPlogKhsa>  (114) 
0.442

>  <r_qp_QPlogKp>  (114) 
-2.8410000000000002

>  <r_qp_QPlogPC16>  (114) 
15.231

>  <r_qp_QPlogPo/w>  (114) 
4.0700000000000003

>  <r_qp_QPlogPoct>  (114) 
24.129999999999999

>  <r_qp_QPlogPw>  (114) 
14.252000000000001

>  <r_qp_QPlogS>  (114) 
-5.0460000000000003

>  <r_qp_QPpolrz>  (114) 
50.268000000000001

>  <r_qp_SASA>  (114) 
776.10799999999995

>  <r_qp_SAamideO>  (114) 
14.073

>  <r_qp_SAfluorine>  (114) 
32.055

>  <r_qp_WPSA>  (114) 
32.055

>  <r_qp_accptHB>  (114) 
7

>  <r_qp_dip^2/V>  (114) 
0.048571299999999998

>  <r_qp_dipole>  (114) 
8.3140000000000001

>  <r_qp_donorHB>  (114) 
2

>  <r_qp_glob>  (114) 
0.78843980000000002

>  <r_qp_mol_MW>  (114) 
446.52300000000002

>  <r_qp_volume>  (114) 
1423.2729999999999

>  <r_sd_BIOSOLVEIT.INFINISEE\_FTREES\_SIMILARITY>  (114) 
0.92000000000000004

>  <r_sd_BIOSOLVEIT.LOGP>  (114) 
2.9889999999999999

>  <r_sd_BIOSOLVEIT.MOLECULAR\_WEIGHT>  (114) 
447.53100000000001

>  <r_sd_BIOSOLVEIT.TPSA>  (114) 
65.879999999999995

>  <i_epik_Tot_Q>  (114) 
1

>  <i_epik_Tot_abs_Q>  (114) 
1

>  <i_f3d_flags>  (114) 
0

>  <i_i_glide_confnum>  (114) 
6

>  <i_i_glide_lignum>  (114) 
344

>  <i_i_glide_posenum>  (114) 
11

>  <i_i_glide_rotatable_bonds>  (114) 
9

>  <i_lp_mmshare_version>  (114) 
65135

>  <i_m_ct_format>  (114) 
2

>  <i_m_source_file_index>  (114) 
873

>  <i_qp_#NandO>  (114) 
6

>  <i_qp_#acid>  (114) 
0

>  <i_qp_#amide>  (114) 
1

>  <i_qp_#amidine>  (114) 
0

>  <i_qp_#amine>  (114) 
1

>  <i_qp_#in34>  (114) 
0

>  <i_qp_#in56>  (114) 
21

>  <i_qp_#metab>  (114) 
4

>  <i_qp_#nonHatm>  (114) 
33

>  <i_qp_#noncon>  (114) 
1

>  <i_qp_#ringatoms>  (114) 
21

>  <i_qp_#rotor>  (114) 
7

>  <i_qp_#rtvFG>  (114) 
0

>  <i_qp_#stars>  (114) 
0

>  <i_qp_CNS>  (114) 
1

>  <i_qp_HumanOralAbsorption>  (114) 
3

>  <i_qp_RuleOfFive>  (114) 
0

>  <i_qp_RuleOfThree>  (114) 
0

>  <i_sd_BIOSOLVEIT.INFINISEE\_REAGENT1\_NAME>  (114) 
22525962

>  <i_sd_BIOSOLVEIT.INFINISEE\_REAGENT2\_NAME>  (114) 
12219700

>  <i_sd_BIOSOLVEIT.INFINISEE\_RESULT\_RANK>  (114) 
16712

>  <i_sd_version>  (114) 
0

>  <b_lp_Chiralities_Consistent>  (114) 
1

>  <b_sd_chiral_flag>  (114) 
0

>  <canonical_id>  (114) 
ATP-HTVS-1356F7D69808

>  <compound_code>  (114) 
27907

>  <title>  (114) 
m_2430bbb____22525962____12219700

>  <variant>  (114) 
27907-1

>  <source_file>  (114) 
运行/运行/ATP-VSW/ATP-VSW-DOCK_HTVS_1-003_lib/ATP-VSW-DOCK_HTVS_1-003_lib.mae

>  <canonical_smiles>  (114) 
C[NH+](C)Cc1ccc(NC(=O)NC[C@H]2c3ccccc3C(=O)N2Cc2ccccc2)c(F)c1

>  <scaffold>  (114) 
O=C(NCC1c2ccccc2C(=O)N1Cc1ccccc1)Nc1ccccc1

>  <molecular_formula>  (114) 
C26H28FN4O2+

$$$$
ATP-HTVS-1373BD200FA0
     RDKit          3D

 67 70  0  0  0  0  0  0  0  0999 V2000
  198.1891  182.3524  157.1729 O   0  0  0  0  0  0  0  0  0  0  0  0
  197.0244  181.9715  157.2860 C   0  0  0  0  0  0  0  0  0  0  0  0
  196.3249  181.4445  156.2804 N   0  0  0  0  0  0  0  0  0  0  0  0
  196.7597  181.3309  154.9315 C   0  0  0  0  0  0  0  0  0  0  0  0
  196.7747  180.0977  154.3856 N   0  0  0  0  0  0  0  0  0  0  0  0
  197.1363  179.8487  153.1123 C   0  0  0  0  0  0  0  0  0  0  0  0
  197.5282  180.9051  152.2574 C   0  0  0  0  0  0  0  0  0  0  0  0
  197.8671  180.6621  150.9081 N   0  0  0  0  0  0  0  0  0  0  0  0
  198.1508  179.3228  150.4087 C   0  0  1  0  0  0  0  0  0  0  0  0
  198.3698  179.3039  148.9099 C   0  0  0  0  0  0  0  0  0  0  0  0
  197.6276  178.4234  148.0939 C   0  0  0  0  0  0  0  0  0  0  0  0
  197.8269  178.4124  146.6991 C   0  0  0  0  0  0  0  0  0  0  0  0
  198.7609  179.3002  146.1105 C   0  0  0  0  0  0  0  0  0  0  0  0
  199.4767  180.1999  146.9298 C   0  0  0  0  0  0  0  0  0  0  0  0
  199.3053  180.1797  148.3236 C   0  0  0  0  0  0  0  0  0  0  0  0
  199.0403  179.2471  144.6152 C   0  0  1  0  0  0  0  0  0  0  0  0
  200.3628  178.6463  144.2823 N   0  0  1  0  0  0  0  0  0  0  0  0
  201.4607  179.6354  144.1517 C   0  0  2  0  0  0  0  0  0  0  0  0
  200.7494  177.4736  145.1043 C   0  0  2  0  0  0  0  0  0  0  0  0
  197.5504  182.2349  152.7814 C   0  0  0  0  0  0  0  0  0  0  0  0
  197.1563  182.4524  154.1380 C   0  0  0  0  0  0  0  0  0  0  0  0
  197.1453  183.7798  154.6407 C   0  0  0  0  0  0  0  0  0  0  0  0
  197.5419  184.8624  153.8363 C   0  0  0  0  0  0  0  0  0  0  0  0
  197.9371  184.6505  152.5052 C   0  0  0  0  0  0  0  0  0  0  0  0
  197.9343  183.3419  151.9793 C   0  0  0  0  0  0  0  0  0  0  0  0
  196.3421  181.9872  158.6628 C   0  0  1  0  0  0  0  0  0  0  0  0
  196.1535  183.3988  159.2203 C   0  0  0  0  0  0  0  0  0  0  0  0
  197.2555  184.2568  159.4455 C   0  0  0  0  0  0  0  0  0  0  0  0
  197.0592  185.5524  159.9620 C   0  0  0  0  0  0  0  0  0  0  0  0
  195.7638  185.9967  160.3001 C   0  0  0  0  0  0  0  0  0  0  0  0
  194.6673  185.1297  160.1086 C   0  0  0  0  0  0  0  0  0  0  0  0
  194.8590  183.8501  159.5555 C   0  0  0  0  0  0  0  0  0  0  0  0
  195.5452  187.3222  160.9310 C   0  0  0  0  0  0  0  0  0  0  0  0
  194.5885  187.5601  161.6699 O   0  0  0  0  0  0  0  0  0  0  0  0
  196.5519  188.4280  160.6110 C   0  0  2  0  0  0  0  0  0  0  0  0
  195.5026  180.9104  156.5406 H   0  0  0  0  0  0  0  0  0  0  0  0
  197.0801  178.8121  152.8191 H   0  0  0  0  0  0  0  0  0  0  0  0
  198.1562  181.4343  150.3264 H   0  0  0  0  0  0  0  0  0  0  0  0
  199.0471  178.9317  150.8947 H   0  0  0  0  0  0  0  0  0  0  0  0
  197.3180  178.6566  150.6341 H   0  0  0  0  0  0  0  0  0  0  0  0
  196.9119  177.7423  148.5350 H   0  0  0  0  0  0  0  0  0  0  0  0
  197.2680  177.7108  146.0937 H   0  0  0  0  0  0  0  0  0  0  0  0
  200.1910  180.8920  146.5095 H   0  0  0  0  0  0  0  0  0  0  0  0
  199.9118  180.8361  148.9297 H   0  0  0  0  0  0  0  0  0  0  0  0
  198.2684  178.6372  144.1435 H   0  0  0  0  0  0  0  0  0  0  0  0
  198.9258  180.2382  144.1668 H   0  0  0  0  0  0  0  0  0  0  0  0
  201.6775  180.1288  145.1028 H   0  0  0  0  0  0  0  0  0  0  0  0
  201.2050  180.4032  143.4179 H   0  0  0  0  0  0  0  0  0  0  0  0
  202.3867  179.1545  143.8252 H   0  0  0  0  0  0  0  0  0  0  0  0
  200.9241  177.7364  146.1481 H   0  0  0  0  0  0  0  0  0  0  0  0
  201.6659  177.0128  144.7336 H   0  0  0  0  0  0  0  0  0  0  0  0
  199.9689  176.7134  145.0672 H   0  0  0  0  0  0  0  0  0  0  0  0
  196.7689  184.0262  155.6263 H   0  0  0  0  0  0  0  0  0  0  0  0
  197.5142  185.8584  154.2539 H   0  0  0  0  0  0  0  0  0  0  0  0
  198.2279  185.4978  151.8929 H   0  0  0  0  0  0  0  0  0  0  0  0
  198.2186  183.2092  150.9468 H   0  0  0  0  0  0  0  0  0  0  0  0
  195.3790  181.4694  158.6248 H   0  0  0  0  0  0  0  0  0  0  0  0
  196.9699  181.4005  159.3346 H   0  0  0  0  0  0  0  0  0  0  0  0
  198.2654  183.9343  159.2501 H   0  0  0  0  0  0  0  0  0  0  0  0
  197.9234  186.1797  160.1306 H   0  0  0  0  0  0  0  0  0  0  0  0
  193.6718  185.4429  160.3866 H   0  0  0  0  0  0  0  0  0  0  0  0
  194.0025  183.2048  159.4126 H   0  0  0  0  0  0  0  0  0  0  0  0
  197.5586  188.1679  160.9371 H   0  0  0  0  0  0  0  0  0  0  0  0
  196.2732  189.3571  161.1073 H   0  0  0  0  0  0  0  0  0  0  0  0
  196.5790  188.6056  159.5359 H   0  0  0  0  0  0  0  0  0  0  0  0
  200.1935  178.2400  143.3658 H   0  0  0  0  0  0  0  0  0  0  0  0
  196.4970  179.3119  154.9828 H   0  0  0  0  0  0  0  0  0  0  0  0
  1  2  2  0
  2  3  1  0
  2 26  1  0
  3  4  1  0
  3 36  1  0
  4  5  2  0
  4 21  1  0
  5  6  1  0
  5 67  1  0
  6  7  2  0
  6 37  1  0
  7  8  1  0
  7 20  1  0
  8  9  1  0
  8 38  1  0
  9 10  1  0
  9 39  1  1
  9 40  1  0
 10 11  1  0
 10 15  2  0
 11 12  2  0
 11 41  1  0
 12 13  1  0
 12 42  1  0
 13 14  2  0
 13 16  1  0
 14 15  1  0
 14 43  1  0
 15 44  1  0
 16 17  1  0
 16 45  1  6
 16 46  1  0
 17 18  1  0
 17 19  1  0
 17 66  1  6
 18 47  1  1
 18 48  1  0
 18 49  1  0
 19 50  1  1
 19 51  1  0
 19 52  1  0
 20 21  1  0
 20 25  2  0
 21 22  2  0
 22 23  1  0
 22 53  1  0
 23 24  2  0
 23 54  1  0
 24 25  1  0
 24 55  1  0
 25 56  1  0
 26 27  1  0
 26 57  1  6
 26 58  1  0
 27 28  1  0
 27 32  2  0
 28 29  2  0
 28 59  1  0
 29 30  1  0
 29 60  1  0
 30 31  2  0
 30 33  1  0
 31 32  1  0
 31 61  1  0
 32 62  1  0
 33 34  2  0
 33 35  1  0
 35 63  1  1
 35 64  1  0
 35 65  1  0
M  CHG  2   5   1  17   1
M  END
>  <s_epik_cmdline>  (115) 
J2VwaWtfcHl0aG9uJywgJy1waCcsICc3LjAwMDAwMCcsICctcGh0JywgJzIuMDAwMDAwJywgJy1tcycsICcxNicsICctdG4nLCAnOCcsICctbWEnLCAnMjAwJywgJy1pbWFlJywgJzxpbmZpbGUubWFlPicsICctb21hZScsICc8b3V0ZmlsZS5tYWU+Jw==

>  <s_epik_input>  (115) 
W2NIXTFbY0hdYyhDKD1PKVtDSDNdKVtjSF1bY0hdYzFbQ0gyXUMoPU8pW05IXWMoYyhjMjMpW2NIXVtjSF1bY0hdW2NIXTMpbltjSF1jMltOSF1bQ0gyXWM0W2NIXVtjSF1jKFtjSF1bY0hdNClbQ0gyXU4oW0NIM10pW0NIM10=

>  <s_i_glide_gridfile>  (115) 
ATP-Grid

>  <s_lp_Force_Field>  (115) 
OPLS_2005

>  <s_lp_Variant>  (115) 
rxn502b____EMOL20754534____EMOL7515103____EMOL50155899-3

>  <s_lp_label>  (115) 
2278_sdstereoexpander_1_neutralizer_1_epik_3_stereoizer_1

>  <s_m_source_file>  (115) 
ATP-VSW-LIGPREP-001-in.maegz

>  <s_sd_BIOSOLVEIT.INFINISEE\_QUERY\_NAME>  (115) 
Ref-Lig

>  <s_sd_BIOSOLVEIT.INFINISEE\_QUERY\_SMILES>  (115) 
S(c1nc2c(cc1C[NH2+]Cc3ccc(cc3)C[NH+](C)C)cccc2)Cc4ccccc4

>  <s_sd_BIOSOLVEIT.INFINISEE\_REACTION\_NAME>  (115) 
rxn502b

>  <s_sd_BIOSOLVEIT.INFINISEE\_REAGENT1\_NAME>  (115) 
EMOL20754534

>  <s_sd_BIOSOLVEIT.INFINISEE\_REAGENT1\_SMILES>  (115) 
O=C(O)Cc1ccc(cc1)C(=O)C

>  <s_sd_BIOSOLVEIT.INFINISEE\_REAGENT2\_NAME>  (115) 
EMOL7515103

>  <s_sd_BIOSOLVEIT.INFINISEE\_REAGENT2\_SMILES>  (115) 
Brc1c2c(c(nc1)N)cccc2

>  <s_sd_BIOSOLVEIT.INFINISEE\_REAGENT3\_NAME>  (115) 
EMOL50155899

>  <s_sd_BIOSOLVEIT.INFINISEE\_REAGENT3\_SMILES>  (115) 
N(Cc1ccc(cc1)CN)(C)C

>  <s_sd_BIOSOLVEIT.INFINISEE\_SPACE>  (115) 
eXplore_7tr_2022-12

>  <s_vsw_compound_code>  (115) 
72865

>  <s_vsw_variant>  (115) 
72865-3

>  <r_epik_Charging_Adjusted_Penalty>  (115) 
4.3160267494339699

>  <r_epik_Ionization_Penalty>  (115) 
2.3509000000000002

>  <r_epik_Ionization_Penalty_Charging>  (115) 
2.1528

>  <r_epik_Ionization_Penalty_Neutral>  (115) 
0.1981

>  <r_epik_State_Penalty>  (115) 
2.1633

>  <r_i_docking_score>  (115) 
-4.3775914892031302

>  <r_i_glide_ecoul>  (115) 
-15.347099304199199

>  <r_i_glide_eff_state_penalty>  (115) 
2.1633

>  <r_i_glide_einternal>  (115) 
12.445213317871101

>  <r_i_glide_emodel>  (115) 
-83.122336765713797

>  <r_i_glide_energy>  (115) 
-54.291225433349602

>  <r_i_glide_erotb>  (115) 
0.73563751996300997

>  <r_i_glide_esite>  (115) 
-0.30234961372805202

>  <r_i_glide_evdw>  (115) 
-38.944126129150398

>  <r_i_glide_gscore>  (115) 
-6.5408914892031298

>  <r_i_glide_hbond>  (115) 
-0.180143792419383

>  <r_i_glide_ligand_efficiency>  (115) 
-0.125074042548661

>  <r_i_glide_ligand_efficiency_ln>  (115) 
-0.96097848728859603

>  <r_i_glide_ligand_efficiency_sa>  (115) 
-0.409125486375158

>  <r_i_glide_lipo>  (115) 
-1.5550598733648

>  <r_i_glide_metal>  (115) 
-0

>  <r_i_glide_rewards>  (115) 
-0.98970452756650196

>  <r_lp_Energy>  (115) 
43.475724

>  <r_lp_tautomer_probability>  (115) 
0.99995000000000001

>  <r_qp_ACxDN^.5/SA>  (115) 
0.013632500000000001

>  <r_qp_CIQPlogS>  (115) 
-5.5300000000000002

>  <r_qp_EA(eV)>  (115) 
0.84899999999999998

>  <r_qp_FISA>  (115) 
115.41800000000001

>  <r_qp_FOSA>  (115) 
334.33199999999999

>  <r_qp_IP(eV)>  (115) 
7.6740000000000004

>  <r_qp_Jm>  (115) 
9.87677746013026e-05

>  <r_qp_PISA>  (115) 
432.02600000000001

>  <r_qp_PSA>  (115) 
90.259

>  <r_qp_PercentHumanOralAbsorption>  (115) 
95.195999999999998

>  <r_qp_QPPCaco>  (115) 
198.745

>  <r_qp_QPPMDCK>  (115) 
95.448999999999998

>  <r_qp_QPlogBB>  (115) 
-0.97399999999999998

>  <r_qp_QPlogHERG>  (115) 
-8.4740000000000002

>  <r_qp_QPlogKhsa>  (115) 
0.76300000000000001

>  <r_qp_QPlogKp>  (115) 
-3.323

>  <r_qp_QPlogPC16>  (115) 
17.620000000000001

>  <r_qp_QPlogPo/w>  (115) 
4.6310000000000002

>  <r_qp_QPlogPoct>  (115) 
26.635999999999999

>  <r_qp_QPlogPw>  (115) 
14.881

>  <r_qp_QPlogS>  (115) 
-6.351

>  <r_qp_QPpolrz>  (115) 
55.317

>  <r_qp_SASA>  (115) 
881.77599999999995

>  <r_qp_SAamideO>  (115) 
0

>  <r_qp_SAfluorine>  (115) 
0

>  <r_qp_WPSA>  (115) 
0

>  <r_qp_accptHB>  (115) 
8.5

>  <r_qp_dip^2/V>  (115) 
0.057333200000000001

>  <r_qp_dipole>  (115) 
9.5099999999999998

>  <r_qp_donorHB>  (115) 
2

>  <r_qp_glob>  (115) 
0.74316300000000002

>  <r_qp_mol_MW>  (115) 
466.58199999999999

>  <r_qp_volume>  (115) 
1577.3050000000001

>  <r_sd_BIOSOLVEIT.INFINISEE\_FTREES\_SIMILARITY>  (115) 
0.92400000000000004

>  <r_sd_BIOSOLVEIT.LOGP>  (115) 
3.8752

>  <r_sd_BIOSOLVEIT.MOLECULAR\_WEIGHT>  (115) 
467.58999999999997

>  <r_sd_BIOSOLVEIT.TPSA>  (115) 
75.530000000000001

>  <i_epik_Tot_Q>  (115) 
2

>  <i_epik_Tot_abs_Q>  (115) 
2

>  <i_f3d_flags>  (115) 
0

>  <i_i_glide_confnum>  (115) 
6

>  <i_i_glide_lignum>  (115) 
807

>  <i_i_glide_posenum>  (115) 
8

>  <i_i_glide_rotatable_bonds>  (115) 
10

>  <i_lp_mmshare_version>  (115) 
65135

>  <i_m_ct_format>  (115) 
2

>  <i_m_source_file_index>  (115) 
2278

>  <i_qp_#NandO>  (115) 
6

>  <i_qp_#acid>  (115) 
0

>  <i_qp_#amide>  (115) 
0

>  <i_qp_#amidine>  (115) 
0

>  <i_qp_#amine>  (115) 
1

>  <i_qp_#in34>  (115) 
0

>  <i_qp_#in56>  (115) 
22

>  <i_qp_#metab>  (115) 
8

>  <i_qp_#nonHatm>  (115) 
35

>  <i_qp_#noncon>  (115) 
0

>  <i_qp_#ringatoms>  (115) 
22

>  <i_qp_#rotor>  (115) 
9

>  <i_qp_#rtvFG>  (115) 
0

>  <i_qp_#stars>  (115) 
2

>  <i_qp_CNS>  (115) 
0

>  <i_qp_HumanOralAbsorption>  (115) 
1

>  <i_qp_RuleOfFive>  (115) 
0

>  <i_qp_RuleOfThree>  (115) 
2

>  <i_sd_BIOSOLVEIT.INFINISEE\_RESULT\_RANK>  (115) 
9989

>  <i_sd_version>  (115) 
0

>  <b_lp_Chiralities_Consistent>  (115) 
1

>  <b_sd_chiral_flag>  (115) 
0

>  <canonical_id>  (115) 
ATP-HTVS-1373BD200FA0

>  <compound_code>  (115) 
72865

>  <title>  (115) 
rxn502b____EMOL20754534____EMOL7515103____EMOL50155899

>  <variant>  (115) 
72865-3

>  <source_file>  (115) 
运行/运行/ATP-VSW/ATP-VSW-DOCK_HTVS_1-001_lib/ATP-VSW-DOCK_HTVS_1-001_lib

>  <canonical_smiles>  (115) 
CC(=O)c1ccc(CC(=O)Nc2[nH+]cc(NCc3ccc(C[NH+](C)C)cc3)c3ccccc23)cc1

>  <scaffold>  (115) 
O=C(Cc1ccccc1)Nc1[nH+]cc(NCc2ccccc2)c2ccccc12

>  <molecular_formula>  (115) 
C29H32N4O2+2

$$$$
ATP-HTVS-1377A1139B97
     RDKit          3D

 57 60  0  0  0  0  0  0  0  0999 V2000
  199.5990  186.6133  153.8260 O   0  0  0  0  0  0  0  0  0  0  0  0
  198.5828  186.2232  154.3859 C   0  0  0  0  0  0  0  0  0  0  0  0
  197.7441  185.2981  153.8883 N   0  0  0  0  0  0  0  0  0  0  0  0
  197.8425  184.6478  152.6462 C   0  0  0  0  0  0  0  0  0  0  0  0
  198.1232  185.3483  151.5230 N   0  0  0  0  0  0  0  0  0  0  0  0
  198.1621  184.7224  150.3295 C   0  0  0  0  0  0  0  0  0  0  0  0
  197.9169  183.3313  150.2126 C   0  0  0  0  0  0  0  0  0  0  0  0
  197.6217  182.5933  151.3728 C   0  0  0  0  0  0  0  0  0  0  0  0
  197.5773  183.2554  152.6129 C   0  0  0  0  0  0  0  0  0  0  0  0
  197.2597  182.4906  153.8125 C   0  0  0  0  0  0  0  0  0  0  0  0
  196.9940  181.9057  154.8496 C   0  0  0  0  0  0  0  0  0  0  0  0
  196.6762  181.2622  156.1303 C   0  0  1  0  0  0  0  0  0  0  0  0
  195.9002  182.2740  156.9463 N   0  0  1  0  0  0  0  0  0  0  0  0
  196.0292  182.0605  158.4022 C   0  0  1  0  0  0  0  0  0  0  0  0
  195.8407  183.3086  159.2139 C   0  0  0  0  0  0  0  0  0  0  0  0
  194.5441  183.8028  159.4756 C   0  0  0  0  0  0  0  0  0  0  0  0
  194.3590  185.0300  160.1494 C   0  0  0  0  0  0  0  0  0  0  0  0
  195.4603  185.7639  160.6073 C   0  0  0  0  0  0  0  0  0  0  0  0
  196.7572  185.2436  160.3669 C   0  0  0  0  0  0  0  0  0  0  0  0
  196.9570  184.0409  159.6920 C   0  0  0  0  0  0  0  0  0  0  0  0
  197.9671  182.6913  148.9585 C   0  0  0  0  0  0  0  0  0  0  0  0
  198.2580  183.4364  147.8004 C   0  0  0  0  0  0  0  0  0  0  0  0
  198.4970  184.8176  147.9004 C   0  0  0  0  0  0  0  0  0  0  0  0
  198.4507  185.4491  149.1587 C   0  0  0  0  0  0  0  0  0  0  0  0
  198.1944  186.7015  155.7734 C   0  0  0  0  0  0  0  0  0  0  0  0
  198.4607  188.0191  156.3168 C   0  0  0  0  0  0  0  0  0  0  0  0
  197.9845  188.3134  157.6338 C   0  0  0  0  0  0  0  0  0  0  0  0
  197.2486  187.3735  158.3542 C   0  0  0  0  0  0  0  0  0  0  0  0
  196.9459  186.1769  157.7394 C   0  0  0  0  0  0  0  0  0  0  0  0
  197.4919  185.7699  156.5733 C   0  0  0  0  0  0  0  0  0  0  0  0
  199.1680  189.1197  155.6224 C   0  0  0  0  0  0  0  0  0  0  0  0
  199.4396  189.1395  154.4402 O   0  0  0  0  0  0  0  0  0  0  0  0
  199.5621  190.3263  156.4470 C   0  0  2  0  0  0  0  0  0  0  0  0
  196.3344  183.1822  156.7109 H   0  0  0  0  0  0  0  0  0  0  0  0
  197.0285  184.9502  154.5231 H   0  0  0  0  0  0  0  0  0  0  0  0
  197.4359  181.5309  151.3121 H   0  0  0  0  0  0  0  0  0  0  0  0
  196.0564  180.3833  155.9541 H   0  0  0  0  0  0  0  0  0  0  0  0
  197.6044  180.9467  156.6164 H   0  0  0  0  0  0  0  0  0  0  0  0
  195.2767  181.3377  158.6939 H   0  0  0  0  0  0  0  0  0  0  0  0
  197.0109  181.6395  158.6537 H   0  0  0  0  0  0  0  0  0  0  0  0
  193.6841  183.2412  159.1530 H   0  0  0  0  0  0  0  0  0  0  0  0
  193.3607  185.3828  160.3498 H   0  0  0  0  0  0  0  0  0  0  0  0
  195.3278  186.7479  160.9792 H   0  0  0  0  0  0  0  0  0  0  0  0
  197.6057  185.8995  160.5342 H   0  0  0  0  0  0  0  0  0  0  0  0
  197.9424  183.7965  159.3084 H   0  0  0  0  0  0  0  0  0  0  0  0
  197.7839  181.6308  148.8779 H   0  0  0  0  0  0  0  0  0  0  0  0
  198.2947  182.9493  146.8358 H   0  0  0  0  0  0  0  0  0  0  0  0
  198.7208  185.3938  147.0121 H   0  0  0  0  0  0  0  0  0  0  0  0
  198.6431  186.5084  149.2319 H   0  0  0  0  0  0  0  0  0  0  0  0
  198.1032  189.2870  158.1287 H   0  0  0  0  0  0  0  0  0  0  0  0
  196.8941  187.6380  159.3622 H   0  0  0  0  0  0  0  0  0  0  0  0
  196.2414  185.4932  158.1315 H   0  0  0  0  0  0  0  0  0  0  0  0
  197.2661  184.7606  156.2378 H   0  0  0  0  0  0  0  0  0  0  0  0
  199.9505  190.0273  157.4218 H   0  0  0  0  0  0  0  0  0  0  0  0
  198.6962  190.9746  156.5675 H   0  0  0  0  0  0  0  0  0  0  0  0
  200.3394  190.8597  155.9118 H   0  0  0  0  0  0  0  0  0  0  0  0
  194.9863  182.2733  156.6351 H   0  0  0  0  0  0  0  0  0  0  0  0
  1  2  2  0
  2  3  1  0
  2 25  1  0
  3  4  1  0
  3 35  1  0
  4  5  2  0
  4  9  1  0
  5  6  1  0
  6  7  1  0
  6 24  2  0
  7  8  1  0
  7 21  2  0
  8  9  2  0
  8 36  1  0
  9 10  1  0
 10 11  3  0
 11 12  1  0
 12 13  1  0
 12 37  1  6
 12 38  1  0
 13 14  1  0
 13 34  1  1
 13 57  1  0
 14 15  1  0
 14 39  1  1
 14 40  1  0
 15 16  2  0
 15 20  1  0
 16 17  1  0
 16 41  1  0
 17 18  2  0
 17 42  1  0
 18 19  1  0
 18 43  1  0
 19 20  2  0
 19 44  1  0
 20 45  1  0
 21 22  1  0
 21 46  1  0
 22 23  2  0
 22 47  1  0
 23 24  1  0
 23 48  1  0
 24 49  1  0
 25 26  1  0
 25 30  2  0
 26 27  2  0
 26 31  1  0
 27 28  1  0
 27 50  1  0
 28 29  2  0
 28 51  1  0
 29 30  1  0
 29 52  1  0
 30 53  1  0
 31 32  2  0
 31 33  1  0
 33 54  1  1
 33 55  1  0
 33 56  1  0
M  CHG  1  13   1
M  END
>  <s_epik_cmdline>  (116) 
J2VwaWtfcHl0aG9uJywgJy1waCcsICc3LjAwMDAwMCcsICctcGh0JywgJzIuMDAwMDAwJywgJy1tcycsICcxNicsICctdG4nLCAnOCcsICctbWEnLCAnMjAwJywgJy1pbWFlJywgJzxpbmZpbGUubWFlPicsICctb21hZScsICc8b3V0ZmlsZS5tYWU+Jw==

>  <s_epik_input>  (116) 
W2NIXTFbY0hdW2NIXVtjSF1jKEMoPU8pW0NIM10pYzFDKD1PKVtOSF1jKG4yKWMoW2NIXWMoYzIzKVtjSF1bY0hdW2NIXVtjSF0zKUMjQ1tDSDJdW05IXVtDSDJdYzRbY0hdW2NIXVtjSF1bY0hdW2NIXTQ=

>  <s_i_glide_gridfile>  (116) 
ATP-Grid

>  <s_lp_Force_Field>  (116) 
OPLS_2005

>  <s_lp_Variant>  (116) 
rxn503b____EMOL711278____EMOL44466703____EMOL1197208-2

>  <s_lp_label>  (116) 
3001_sdstereoexpander_1_neutralizer_1_epik_2_stereoizer_1

>  <s_m_source_file>  (116) 
ATP-VSW-LIGPREP-002-in.maegz

>  <s_sd_BIOSOLVEIT.INFINISEE\_QUERY\_NAME>  (116) 
Ref-Lig

>  <s_sd_BIOSOLVEIT.INFINISEE\_QUERY\_SMILES>  (116) 
S(c1nc2c(cc1C[NH2+]Cc3ccc(cc3)C[NH+](C)C)cccc2)Cc4ccccc4

>  <s_sd_BIOSOLVEIT.INFINISEE\_REACTION\_NAME>  (116) 
rxn503b

>  <s_sd_BIOSOLVEIT.INFINISEE\_REAGENT1\_NAME>  (116) 
EMOL711278

>  <s_sd_BIOSOLVEIT.INFINISEE\_REAGENT1\_SMILES>  (116) 
O=C(O)c1c(cccc1)C(=O)C

>  <s_sd_BIOSOLVEIT.INFINISEE\_REAGENT2\_NAME>  (116) 
EMOL44466703

>  <s_sd_BIOSOLVEIT.INFINISEE\_REAGENT2\_SMILES>  (116) 
Brc1c(nc2c(c1)cccc2)N

>  <s_sd_BIOSOLVEIT.INFINISEE\_REAGENT3\_NAME>  (116) 
EMOL1197208

>  <s_sd_BIOSOLVEIT.INFINISEE\_REAGENT3\_SMILES>  (116) 
N(CC#C)Cc1ccccc1

>  <s_sd_BIOSOLVEIT.INFINISEE\_SPACE>  (116) 
eXplore_7tr_2022-12

>  <s_vsw_compound_code>  (116) 
96002

>  <s_vsw_variant>  (116) 
96002-2

>  <r_epik_Charging_Adjusted_Penalty>  (116) 
1.1372904760564899

>  <r_epik_Ionization_Penalty>  (116) 
0.56889999999999996

>  <r_epik_Ionization_Penalty_Charging>  (116) 
0.56859999999999999

>  <r_epik_Ionization_Penalty_Neutral>  (116) 
0.00020000000000000001

>  <r_epik_State_Penalty>  (116) 
0.56859999999999999

>  <r_i_docking_score>  (116) 
-4.6856300320705904

>  <r_i_glide_ecoul>  (116) 
-9.6026315689086896

>  <r_i_glide_eff_state_penalty>  (116) 
0.56859999999999999

>  <r_i_glide_einternal>  (116) 
7.2504029273986799

>  <r_i_glide_emodel>  (116) 
-60.593942794337003

>  <r_i_glide_energy>  (116) 
-42.684597969055197

>  <r_i_glide_erotb>  (116) 
0.73843150421096604

>  <r_i_glide_esite>  (116) 
-0.096993254570968898

>  <r_i_glide_evdw>  (116) 
-33.081966400146499

>  <r_i_glide_gscore>  (116) 
-5.2542300320705904

>  <r_i_glide_hbond>  (116) 
-0.20000000000000001

>  <r_i_glide_ligand_efficiency>  (116) 
-0.14198878885062399

>  <r_i_glide_ligand_efficiency_ln>  (116) 
-1.04205985823861

>  <r_i_glide_ligand_efficiency_sa>  (116) 
-0.455433914182095

>  <r_i_glide_lipo>  (116) 
-2.0831444685171299

>  <r_i_glide_metal>  (116) 
-0

>  <r_i_glide_rewards>  (116) 
-0.518030757849825

>  <r_lp_Energy>  (116) 
35.880764999999997

>  <r_lp_tautomer_probability>  (116) 
0.99995000000000001

>  <r_qp_ACxDN^.5/SA>  (116) 
0.0133668

>  <r_qp_CIQPlogS>  (116) 
-5.4509999999999996

>  <r_qp_EA(eV)>  (116) 
0.95499999999999996

>  <r_qp_FISA>  (116) 
83.231999999999999

>  <r_qp_FOSA>  (116) 
167.81200000000001

>  <r_qp_IP(eV)>  (116) 
8.5960000000000001

>  <r_qp_Jm>  (116) 
0.026066920667158999

>  <r_qp_PISA>  (116) 
489.55900000000003

>  <r_qp_PSA>  (116) 
82.730999999999995

>  <r_qp_PercentHumanOralAbsorption>  (116) 
100

>  <r_qp_QPPCaco>  (116) 
401.33499999999998

>  <r_qp_QPPMDCK>  (116) 
204.017

>  <r_qp_QPlogBB>  (116) 
-0.36599999999999999

>  <r_qp_QPlogHERG>  (116) 
-7.6699999999999999

>  <r_qp_QPlogKhsa>  (116) 
0.625

>  <r_qp_QPlogKp>  (116) 
-2.6230000000000002

>  <r_qp_QPlogPC16>  (116) 
15.551

>  <r_qp_QPlogPo/w>  (116) 
4.359

>  <r_qp_QPlogPoct>  (116) 
23.876000000000001

>  <r_qp_QPlogPw>  (116) 
13.457000000000001

>  <r_qp_QPlogS>  (116) 
-4.5970000000000004

>  <r_qp_QPpolrz>  (116) 
48.654000000000003

>  <r_qp_SASA>  (116) 
740.60400000000004

>  <r_qp_SAamideO>  (116) 
0

>  <r_qp_SAfluorine>  (116) 
0

>  <r_qp_WPSA>  (116) 
0

>  <r_qp_accptHB>  (116) 
7

>  <r_qp_dip^2/V>  (116) 
0.067413899999999999

>  <r_qp_dipole>  (116) 
9.6489999999999991

>  <r_qp_donorHB>  (116) 
2

>  <r_qp_glob>  (116) 
0.80981139999999996

>  <r_qp_mol_MW>  (116) 
433.50900000000001

>  <r_qp_volume>  (116) 
1381.0419999999999

>  <r_sd_BIOSOLVEIT.INFINISEE\_FTREES\_SIMILARITY>  (116) 
0.90300000000000002

>  <r_sd_BIOSOLVEIT.LOGP>  (116) 
3.8048000000000002

>  <r_sd_BIOSOLVEIT.MOLECULAR\_WEIGHT>  (116) 
434.517

>  <r_sd_BIOSOLVEIT.TPSA>  (116) 
75.670000000000002

>  <i_epik_Tot_Q>  (116) 
1

>  <i_epik_Tot_abs_Q>  (116) 
1

>  <i_f3d_flags>  (116) 
0

>  <i_i_glide_confnum>  (116) 
4

>  <i_i_glide_lignum>  (116) 
68

>  <i_i_glide_posenum>  (116) 
11

>  <i_i_glide_rotatable_bonds>  (116) 
9

>  <i_lp_mmshare_version>  (116) 
65135

>  <i_m_ct_format>  (116) 
2

>  <i_m_source_file_index>  (116) 
3001

>  <i_qp_#NandO>  (116) 
5

>  <i_qp_#acid>  (116) 
0

>  <i_qp_#amide>  (116) 
0

>  <i_qp_#amidine>  (116) 
0

>  <i_qp_#amine>  (116) 
1

>  <i_qp_#in34>  (116) 
0

>  <i_qp_#in56>  (116) 
22

>  <i_qp_#metab>  (116) 
3

>  <i_qp_#nonHatm>  (116) 
33

>  <i_qp_#noncon>  (116) 
0

>  <i_qp_#ringatoms>  (116) 
22

>  <i_qp_#rotor>  (116) 
8

>  <i_qp_#rtvFG>  (116) 
0

>  <i_qp_#stars>  (116) 
1

>  <i_qp_CNS>  (116) 
1

>  <i_qp_HumanOralAbsorption>  (116) 
3

>  <i_qp_RuleOfFive>  (116) 
0

>  <i_qp_RuleOfThree>  (116) 
0

>  <i_sd_BIOSOLVEIT.INFINISEE\_RESULT\_RANK>  (116) 
85711

>  <i_sd_version>  (116) 
0

>  <b_lp_Chiralities_Consistent>  (116) 
1

>  <b_sd_chiral_flag>  (116) 
0

>  <canonical_id>  (116) 
ATP-HTVS-1377A1139B97

>  <compound_code>  (116) 
96002

>  <title>  (116) 
rxn503b____EMOL711278____EMOL44466703____EMOL1197208

>  <variant>  (116) 
96002-2

>  <source_file>  (116) 
运行/运行/ATP-VSW/ATP-VSW-DOCK_HTVS_1-003_lib/ATP-VSW-DOCK_HTVS_1-003_lib.mae

>  <canonical_smiles>  (116) 
CC(=O)c1ccccc1C(=O)Nc1nc2ccccc2cc1C#CC[NH2+]Cc1ccccc1

>  <scaffold>  (116) 
O=C(Nc1nc2ccccc2cc1C#CC[NH2+]Cc1ccccc1)c1ccccc1

>  <molecular_formula>  (116) 
C28H24N3O2+

$$$$
ATP-HTVS-138C9DBD3419
     RDKit          3D

 63 65  0  0  0  0  0  0  0  0999 V2000
  197.2902  179.6057  154.4950 O   0  0  0  0  0  0  0  0  0  0  0  0
  197.3818  180.9768  154.3546 C   0  0  0  0  0  0  0  0  0  0  0  0
  197.1686  181.5352  153.0724 C   0  0  0  0  0  0  0  0  0  0  0  0
  197.2452  182.9431  152.8818 C   0  0  0  0  0  0  0  0  0  0  0  0
  197.5403  183.8022  153.9658 C   0  0  0  0  0  0  0  0  0  0  0  0
  197.6023  185.1612  153.7339 O   0  0  0  0  0  0  0  0  0  0  0  0
  197.9407  186.0123  154.8195 C   0  0  2  0  0  0  0  0  0  0  0  0
  197.7580  183.2310  155.2405 C   0  0  0  0  0  0  0  0  0  0  0  0
  197.6814  181.8449  155.4328 C   0  0  0  0  0  0  0  0  0  0  0  0
  197.0262  183.4828  151.5957 C   0  0  0  0  0  0  0  0  0  0  0  0
  196.7501  182.6407  150.5047 C   0  0  0  0  0  0  0  0  0  0  0  0
  196.6838  181.2471  150.6884 C   0  0  0  0  0  0  0  0  0  0  0  0
  196.8909  180.6965  151.9662 C   0  0  0  0  0  0  0  0  0  0  0  0
  197.8493  178.9911  155.6416 C   0  0  1  0  0  0  0  0  0  0  0  0
  199.3833  178.9998  155.5335 C   0  0  1  0  0  0  0  0  0  0  0  0
  200.0449  178.4317  156.7415 N   0  0  1  0  0  0  0  0  0  0  0  0
  199.9396  176.9582  156.9053 C   0  0  1  0  0  0  0  0  0  0  0  0
  200.7510  176.1724  155.8928 C   0  0  0  0  0  0  0  0  0  0  0  0
  200.3737  176.1931  154.5349 C   0  0  0  0  0  0  0  0  0  0  0  0
  201.1521  175.5154  153.5779 C   0  0  0  0  0  0  0  0  0  0  0  0
  202.3000  174.7898  153.9757 C   0  0  0  0  0  0  0  0  0  0  0  0
  202.6686  174.7468  155.3397 C   0  0  0  0  0  0  0  0  0  0  0  0
  201.8869  175.4339  156.2825 C   0  0  0  0  0  0  0  0  0  0  0  0
  203.1301  174.0446  152.9470 C   0  0  1  0  0  0  0  0  0  0  0  0
  202.6912  172.6320  152.7946 N   0  0  1  0  0  0  0  0  0  0  0  0
  201.2320  172.4502  152.5806 C   0  0  2  0  0  0  0  0  0  0  0  0
  203.4808  171.9319  151.7613 C   0  0  2  0  0  0  0  0  0  0  0  0
  201.4105  178.9824  156.9755 C   0  0  1  0  0  0  0  0  0  0  0  0
  202.3313  178.9673  155.7283 C   0  0  2  0  0  0  0  0  0  0  0  0
  197.9500  187.0437  154.4726 H   0  0  0  0  0  0  0  0  0  0  0  0
  198.9363  185.7870  155.2057 H   0  0  0  0  0  0  0  0  0  0  0  0
  197.2122  185.9466  155.6299 H   0  0  0  0  0  0  0  0  0  0  0  0
  197.9822  183.8330  156.1063 H   0  0  0  0  0  0  0  0  0  0  0  0
  197.8602  181.4866  156.4350 H   0  0  0  0  0  0  0  0  0  0  0  0
  197.0747  184.5500  151.4393 H   0  0  0  0  0  0  0  0  0  0  0  0
  196.5858  183.0678  149.5269 H   0  0  0  0  0  0  0  0  0  0  0  0
  196.4722  180.6018  149.8485 H   0  0  0  0  0  0  0  0  0  0  0  0
  196.8389  179.6231  152.0852 H   0  0  0  0  0  0  0  0  0  0  0  0
  197.5313  179.4706  156.5388 H   0  0  0  0  0  0  0  0  0  0  0  0
  197.4843  177.9729  155.6986 H   0  0  0  0  0  0  0  0  0  0  0  0
  199.6929  178.4904  154.6124 H   0  0  0  0  0  0  0  0  0  0  0  0
  199.6966  180.0520  155.4721 H   0  0  0  0  0  0  0  0  0  0  0  0
  200.2821  176.7174  157.9105 H   0  0  0  0  0  0  0  0  0  0  0  0
  198.9127  176.6050  156.8731 H   0  0  0  0  0  0  0  0  0  0  0  0
  199.4861  176.7368  154.2491 H   0  0  0  0  0  0  0  0  0  0  0  0
  200.8905  175.5537  152.5278 H   0  0  0  0  0  0  0  0  0  0  0  0
  203.5376  174.1810  155.6704 H   0  0  0  0  0  0  0  0  0  0  0  0
  202.1859  175.4104  157.3188 H   0  0  0  0  0  0  0  0  0  0  0  0
  203.0463  174.5614  151.9920 H   0  0  0  0  0  0  0  0  0  0  0  0
  204.1880  174.0748  153.2283 H   0  0  0  0  0  0  0  0  0  0  0  0
  200.9046  172.9537  151.6707 H   0  0  0  0  0  0  0  0  0  0  0  0
  200.6427  172.8251  153.4171 H   0  0  0  0  0  0  0  0  0  0  0  0
  200.9886  171.3887  152.4937 H   0  0  0  0  0  0  0  0  0  0  0  0
  203.3184  172.3719  150.7764 H   0  0  0  0  0  0  0  0  0  0  0  0
  203.2028  170.8761  151.7226 H   0  0  0  0  0  0  0  0  0  0  0  0
  204.5457  171.9820  151.9952 H   0  0  0  0  0  0  0  0  0  0  0  0
  201.3091  180.0159  157.3059 H   0  0  0  0  0  0  0  0  0  0  0  0
  201.8918  178.4614  157.8038 H   0  0  0  0  0  0  0  0  0  0  0  0
  203.2914  179.4416  155.9509 H   0  0  0  0  0  0  0  0  0  0  0  0
  201.9116  179.5123  154.8836 H   0  0  0  0  0  0  0  0  0  0  0  0
  202.5564  177.9597  155.3796 H   0  0  0  0  0  0  0  0  0  0  0  0
  202.8961  172.1180  153.6479 H   0  0  0  0  0  0  0  0  0  0  0  0
  199.4907  178.7538  157.5184 H   0  0  0  0  0  0  0  0  0  0  0  0
  1  2  1  0
  1 14  1  0
  2  3  1  0
  2  9  2  0
  3  4  1  0
  3 13  2  0
  4  5  1  0
  4 10  2  0
  5  6  1  0
  5  8  2  0
  6  7  1  0
  7 30  1  6
  7 31  1  0
  7 32  1  0
  8  9  1  0
  8 33  1  0
  9 34  1  0
 10 11  1  0
 10 35  1  0
 11 12  2  0
 11 36  1  0
 12 13  1  0
 12 37  1  0
 13 38  1  0
 14 15  1  0
 14 39  1  1
 14 40  1  0
 15 16  1  0
 15 41  1  6
 15 42  1  0
 16 17  1  0
 16 28  1  0
 16 63  1  1
 17 18  1  0
 17 43  1  1
 17 44  1  0
 18 19  1  0
 18 23  2  0
 19 20  2  0
 19 45  1  0
 20 21  1  0
 20 46  1  0
 21 22  2  0
 21 24  1  0
 22 23  1  0
 22 47  1  0
 23 48  1  0
 24 25  1  0
 24 49  1  6
 24 50  1  0
 25 26  1  0
 25 27  1  0
 25 62  1  1
 26 51  1  6
 26 52  1  0
 26 53  1  0
 27 54  1  6
 27 55  1  0
 27 56  1  0
 28 29  1  0
 28 57  1  1
 28 58  1  0
 29 59  1  1
 29 60  1  0
 29 61  1  0
M  CHG  2  16   1  25   1
M  END
>  <s_epik_cmdline>  (117) 
J2VwaWtfcHl0aG9uJywgJy1waCcsICc3LjAwMDAwMCcsICctcGh0JywgJzIuMDAwMDAwJywgJy1tcycsICcxNicsICctdG4nLCAnOCcsICctbWEnLCAnMjAwJywgJy1pbWFlJywgJzxpbmZpbGUubWFlPicsICctb21hZScsICc8b3V0ZmlsZS5tYWU+Jw==

>  <s_epik_input>  (117) 
W2NIXTFbY0hdW2NIXVtjSF1jKGMxMiljKE9bQ0gzXSlbY0hdW2NIXWMyT1tDSDJdW0NIMl1OKFtDSDJdW0NIM10pW0NIMl1jM1tjSF1bY0hdYyhbY0hdW2NIXTMpW0NIMl1OKFtDSDNdKVtDSDNd

>  <s_i_glide_gridfile>  (117) 
ATP-Grid

>  <s_lp_Force_Field>  (117) 
OPLS_2005

>  <s_lp_Variant>  (117) 
m_2230bec____12332212____6362664-1

>  <s_lp_label>  (117) 
2136_sdstereoexpander_1_neutralizer_1_epik_1_stereoizer_1

>  <s_m_source_file>  (117) 
ATP-VSW-LIGPREP-001-in.maegz

>  <s_sd_BIOSOLVEIT.INFINISEE\_QUERY\_NAME>  (117) 
Ref-Lig

>  <s_sd_BIOSOLVEIT.INFINISEE\_QUERY\_SMILES>  (117) 
S(c1nc2c(cc1C[NH2+]Cc3ccc(cc3)C[NH+](C)C)cccc2)Cc4ccccc4

>  <s_sd_BIOSOLVEIT.INFINISEE\_REACTION\_NAME>  (117) 
m_2230bec

>  <s_sd_BIOSOLVEIT.INFINISEE\_REAGENT1\_SMILES>  (117) 
[R1*]N(Cc1ccc(cc1)CN(C)C)CC

>  <s_sd_BIOSOLVEIT.INFINISEE\_REAGENT2\_SMILES>  (117) 
[R1*]CCOc1c2c(c(OC)cc1)cccc2

>  <s_sd_BIOSOLVEIT.INFINISEE\_SPACE>  (117) 
REALSpace_44bn_2023-08

>  <s_vsw_compound_code>  (117) 
68321

>  <s_vsw_variant>  (117) 
68321-1

>  <r_epik_Charging_Adjusted_Penalty>  (117) 
0.34636382754610501

>  <r_epik_Ionization_Penalty>  (117) 
0.1739

>  <r_epik_Ionization_Penalty_Charging>  (117) 
0.1739

>  <r_epik_Ionization_Penalty_Neutral>  (117) 
0

>  <r_epik_State_Penalty>  (117) 
0.17249999999999999

>  <r_i_docking_score>  (117) 
-4.9266049663457103

>  <r_i_glide_ecoul>  (117) 
-12.4196434020996

>  <r_i_glide_eff_state_penalty>  (117) 
0.17249999999999999

>  <r_i_glide_einternal>  (117) 
4.1840553283691397

>  <r_i_glide_emodel>  (117) 
-62.751430941091499

>  <r_i_glide_energy>  (117) 
-42.628690719604499

>  <r_i_glide_erotb>  (117) 
0.87892646854437095

>  <r_i_glide_esite>  (117) 
-0.17032975959944299

>  <r_i_glide_evdw>  (117) 
-30.209047317504901

>  <r_i_glide_gscore>  (117) 
-5.0991049663457098

>  <r_i_glide_hbond>  (117) 
-0.15052002702412501

>  <r_i_glide_ligand_efficiency>  (117) 
-0.16988292987399001

>  <r_i_glide_ligand_efficiency_ln>  (117) 
-1.1280676093702999

>  <r_i_glide_ligand_efficiency_sa>  (117) 
-0.52193418326283303

>  <r_i_glide_lipo>  (117) 
-1.1148031811672401

>  <r_i_glide_metal>  (117) 
-0

>  <r_i_glide_rewards>  (117) 
-1.1689795909090901

>  <r_lp_Energy>  (117) 
34.862237

>  <r_qp_ACxDN^.5/SA>  (117) 
0

>  <r_qp_CIQPlogS>  (117) 
-3.7210000000000001

>  <r_qp_EA(eV)>  (117) 
0.36299999999999999

>  <r_qp_FISA>  (117) 
3.0569999999999999

>  <r_qp_FOSA>  (117) 
458.32299999999998

>  <r_qp_IP(eV)>  (117) 
7.8680000000000003

>  <r_qp_Jm>  (117) 
0.0124611128839611

>  <r_qp_PISA>  (117) 
307.49700000000001

>  <r_qp_PSA>  (117) 
21.992000000000001

>  <r_qp_PercentHumanOralAbsorption>  (117) 
100

>  <r_qp_QPPCaco>  (117) 
576.38800000000003

>  <r_qp_QPPMDCK>  (117) 
333.78800000000001

>  <r_qp_QPlogBB>  (117) 
0.72499999999999998

>  <r_qp_QPlogHERG>  (117) 
-7.9649999999999999

>  <r_qp_QPlogKhsa>  (117) 
0.753

>  <r_qp_QPlogKp>  (117) 
-3.6579999999999999

>  <r_qp_QPlogPC16>  (117) 
13.423999999999999

>  <r_qp_QPlogPo/w>  (117) 
4.96

>  <r_qp_QPlogPoct>  (117) 
17.437000000000001

>  <r_qp_QPlogPw>  (117) 
6.8929999999999998

>  <r_qp_QPlogS>  (117) 
-3.8410000000000002

>  <r_qp_QPpolrz>  (117) 
45.929000000000002

>  <r_qp_SASA>  (117) 
768.87699999999995

>  <r_qp_SAamideO>  (117) 
0

>  <r_qp_SAfluorine>  (117) 
0

>  <r_qp_WPSA>  (117) 
0

>  <r_qp_accptHB>  (117) 
5.5

>  <r_qp_dip^2/V>  (117) 
0.0030401

>  <r_qp_dipole>  (117) 
2.0550000000000002

>  <r_qp_donorHB>  (117) 
0

>  <r_qp_glob>  (117) 
0.78283380000000002

>  <r_qp_mol_MW>  (117) 
392.54000000000002

>  <r_qp_volume>  (117) 
1388.4870000000001

>  <r_sd_BIOSOLVEIT.INFINISEE\_FTREES\_SIMILARITY>  (117) 
0.90100000000000002

>  <r_sd_BIOSOLVEIT.LOGP>  (117) 
1.9766999999999999

>  <r_sd_BIOSOLVEIT.MOLECULAR\_WEIGHT>  (117) 
394.55599999999998

>  <r_sd_BIOSOLVEIT.TPSA>  (117) 
27.34

>  <i_epik_Tot_Q>  (117) 
2

>  <i_epik_Tot_abs_Q>  (117) 
2

>  <i_f3d_flags>  (117) 
0

>  <i_i_glide_confnum>  (117) 
9

>  <i_i_glide_lignum>  (117) 
673

>  <i_i_glide_posenum>  (117) 
12

>  <i_i_glide_rotatable_bonds>  (117) 
10

>  <i_lp_mmshare_version>  (117) 
65135

>  <i_m_ct_format>  (117) 
2

>  <i_m_source_file_index>  (117) 
2136

>  <i_qp_#NandO>  (117) 
4

>  <i_qp_#acid>  (117) 
0

>  <i_qp_#amide>  (117) 
0

>  <i_qp_#amidine>  (117) 
0

>  <i_qp_#amine>  (117) 
2

>  <i_qp_#in34>  (117) 
0

>  <i_qp_#in56>  (117) 
16

>  <i_qp_#metab>  (117) 
7

>  <i_qp_#nonHatm>  (117) 
29

>  <i_qp_#noncon>  (117) 
0

>  <i_qp_#ringatoms>  (117) 
16

>  <i_qp_#rotor>  (117) 
10

>  <i_qp_#rtvFG>  (117) 
0

>  <i_qp_#stars>  (117) 
2

>  <i_qp_CNS>  (117) 
2

>  <i_qp_HumanOralAbsorption>  (117) 
3

>  <i_qp_RuleOfFive>  (117) 
0

>  <i_qp_RuleOfThree>  (117) 
1

>  <i_sd_BIOSOLVEIT.INFINISEE\_REAGENT1\_NAME>  (117) 
12332212

>  <i_sd_BIOSOLVEIT.INFINISEE\_REAGENT2\_NAME>  (117) 
6362664

>  <i_sd_BIOSOLVEIT.INFINISEE\_RESULT\_RANK>  (117) 
99526

>  <i_sd_version>  (117) 
0

>  <b_lp_Chiralities_Consistent>  (117) 
1

>  <b_sd_chiral_flag>  (117) 
0

>  <canonical_id>  (117) 
ATP-HTVS-138C9DBD3419

>  <compound_code>  (117) 
68321

>  <title>  (117) 
m_2230bec____12332212____6362664

>  <variant>  (117) 
68321-1

>  <source_file>  (117) 
运行/运行/ATP-VSW/ATP-VSW-DOCK_HTVS_1-001_lib/ATP-VSW-DOCK_HTVS_1-001_lib

>  <canonical_smiles>  (117) 
CC[N@@H+](CCOc1ccc(OC)c2ccccc12)Cc1ccc(C[NH+](C)C)cc1

>  <scaffold>  (117) 
c1ccc(C[NH2+]CCOc2cccc3ccccc23)cc1

>  <molecular_formula>  (117) 
C25H34N2O2+2

$$$$
ATP-HTVS-13A5AE9C2B6A
     RDKit          3D

 59 62  0  0  0  0  0  0  0  0999 V2000
  195.8684  183.7305  150.2797 O   0  0  0  0  0  0  0  0  0  0  0  0
  196.7966  182.9522  150.0146 C   0  0  0  0  0  0  0  0  0  0  0  0
  197.6570  183.0971  148.9999 N   0  0  0  0  0  0  0  0  0  0  0  0
  197.6170  184.0501  147.8866 C   0  0  2  0  0  0  0  0  0  0  0  0
  198.8628  183.9643  147.0970 C   0  0  0  0  0  0  0  0  0  0  0  0
  199.8794  183.9418  146.4190 C   0  0  0  0  0  0  0  0  0  0  0  0
  197.3390  185.5039  148.2969 C   0  0  2  0  0  0  0  0  0  0  0  0
  197.0090  181.7619  150.8837 C   0  0  0  0  0  0  0  0  0  0  0  0
  196.7996  181.8656  152.2783 C   0  0  0  0  0  0  0  0  0  0  0  0
  196.9774  180.7459  153.1117 C   0  0  0  0  0  0  0  0  0  0  0  0
  197.2935  179.5015  152.5347 C   0  0  0  0  0  0  0  0  0  0  0  0
  197.4494  179.3725  151.1374 C   0  0  0  0  0  0  0  0  0  0  0  0
  197.2999  180.5033  150.3092 C   0  0  0  0  0  0  0  0  0  0  0  0
  196.8561  180.8917  154.6147 C   0  0  1  0  0  0  0  0  0  0  0  0
  198.1690  181.0191  155.2218 N   0  0  0  0  0  0  0  0  0  0  0  0
  198.1332  180.7974  156.6579 C   0  0  1  0  0  0  0  0  0  0  0  0
  197.4852  181.9133  157.4157 C   0  0  0  0  0  0  0  0  0  0  0  0
  196.2394  181.8332  157.9550 N   0  0  0  0  0  0  0  0  0  0  0  0
  195.9342  183.0492  158.5863 C   0  0  0  0  0  0  0  0  0  0  0  0
  197.0625  183.8872  158.4498 C   0  0  0  0  0  0  0  0  0  0  0  0
  198.0027  183.1326  157.7347 N   0  0  0  0  0  0  0  0  0  0  0  0
  199.3252  183.7067  157.4346 C   0  0  1  0  0  0  0  0  0  0  0  0
  200.3951  183.1968  158.3858 C   0  0  0  0  0  0  0  0  0  0  0  0
  201.2547  182.1525  157.9830 C   0  0  0  0  0  0  0  0  0  0  0  0
  202.2401  181.6582  158.8606 C   0  0  0  0  0  0  0  0  0  0  0  0
  202.3834  182.2184  160.1429 C   0  0  0  0  0  0  0  0  0  0  0  0
  201.5468  183.2790  160.5412 C   0  0  0  0  0  0  0  0  0  0  0  0
  200.5522  183.7653  159.6685 C   0  0  0  0  0  0  0  0  0  0  0  0
  197.0792  185.1801  158.9753 C   0  0  0  0  0  0  0  0  0  0  0  0
  195.9142  185.6187  159.6369 C   0  0  0  0  0  0  0  0  0  0  0  0
  194.7913  184.7757  159.7771 C   0  0  0  0  0  0  0  0  0  0  0  0
  194.7895  183.4612  159.2580 C   0  0  0  0  0  0  0  0  0  0  0  0
  198.8274  180.4011  154.7783 H   0  0  0  0  0  0  0  0  0  0  0  0
  198.3699  182.3774  148.9225 H   0  0  0  0  0  0  0  0  0  0  0  0
  196.8390  183.7272  147.1935 H   0  0  0  0  0  0  0  0  0  0  0  0
  200.7655  183.9238  145.8008 H   0  0  0  0  0  0  0  0  0  0  0  0
  197.2755  186.1318  147.4060 H   0  0  0  0  0  0  0  0  0  0  0  0
  198.1224  185.8744  148.9571 H   0  0  0  0  0  0  0  0  0  0  0  0
  196.3835  185.6510  148.7926 H   0  0  0  0  0  0  0  0  0  0  0  0
  196.5126  182.8225  152.6939 H   0  0  0  0  0  0  0  0  0  0  0  0
  197.4369  178.6409  153.1665 H   0  0  0  0  0  0  0  0  0  0  0  0
  197.6851  178.4092  150.7016 H   0  0  0  0  0  0  0  0  0  0  0  0
  197.4016  180.3874  149.2372 H   0  0  0  0  0  0  0  0  0  0  0  0
  196.2483  181.7614  154.8611 H   0  0  0  0  0  0  0  0  0  0  0  0
  196.3414  180.0088  155.0046 H   0  0  0  0  0  0  0  0  0  0  0  0
  197.6501  179.8448  156.8847 H   0  0  0  0  0  0  0  0  0  0  0  0
  199.1536  180.6887  157.0181 H   0  0  0  0  0  0  0  0  0  0  0  0
  199.5675  183.4450  156.4043 H   0  0  0  0  0  0  0  0  0  0  0  0
  199.2856  184.7911  157.4734 H   0  0  0  0  0  0  0  0  0  0  0  0
  201.1536  181.7151  157.0015 H   0  0  0  0  0  0  0  0  0  0  0  0
  202.8742  180.8391  158.5503 H   0  0  0  0  0  0  0  0  0  0  0  0
  203.1320  181.8336  160.8199 H   0  0  0  0  0  0  0  0  0  0  0  0
  201.6610  183.7075  161.5259 H   0  0  0  0  0  0  0  0  0  0  0  0
  199.9108  184.5721  159.9916 H   0  0  0  0  0  0  0  0  0  0  0  0
  197.9237  185.8418  158.8614 H   0  0  0  0  0  0  0  0  0  0  0  0
  195.8770  186.6279  160.0282 H   0  0  0  0  0  0  0  0  0  0  0  0
  193.9102  185.1551  160.2729 H   0  0  0  0  0  0  0  0  0  0  0  0
  193.9325  182.8112  159.3303 H   0  0  0  0  0  0  0  0  0  0  0  0
  195.7164  180.9603  157.9273 H   0  0  0  0  0  0  0  0  0  0  0  0
  1  2  2  0
  2  3  1  0
  2  8  1  0
  3  4  1  0
  3 34  1  0
  4  5  1  0
  4  7  1  0
  4 35  1  6
  5  6  3  0
  6 36  1  0
  7 37  1  6
  7 38  1  0
  7 39  1  0
  8  9  2  0
  8 13  1  0
  9 10  1  0
  9 40  1  0
 10 11  2  0
 10 14  1  0
 11 12  1  0
 11 41  1  0
 12 13  2  0
 12 42  1  0
 13 43  1  0
 14 15  1  0
 14 44  1  6
 14 45  1  0
 15 16  1  0
 15 33  1  0
 16 17  1  0
 16 46  1  6
 16 47  1  0
 17 18  2  0
 17 21  1  0
 18 19  1  0
 18 59  1  0
 19 20  1  0
 19 32  2  0
 20 21  1  0
 20 29  2  0
 21 22  1  0
 22 23  1  0
 22 48  1  6
 22 49  1  0
 23 24  2  0
 23 28  1  0
 24 25  1  0
 24 50  1  0
 25 26  2  0
 25 51  1  0
 26 27  1  0
 26 52  1  0
 27 28  2  0
 27 53  1  0
 28 54  1  0
 29 30  1  0
 29 55  1  0
 30 31  2  0
 30 56  1  0
 31 32  1  0
 31 57  1  0
 32 58  1  0
M  CHG  1  18   1
M  END
>  <s_epik_cmdline>  (118) 
J2VwaWtfcHl0aG9uJywgJy1waCcsICc3LjAwMDAwMCcsICctcGh0JywgJzIuMDAwMDAwJywgJy1tcycsICcxNicsICctdG4nLCAnOCcsICctbWEnLCAnMjAwJywgJy1pbWFlJywgJzxpbmZpbGUubWFlPicsICctb21hZScsICc8b3V0ZmlsZS5tYWU+Jw==

>  <s_epik_input>  (118) 
W0NIXSNDW0NASF0oW0NIM10pW05IXUMoPU8pYzFbY0hdYyhbY0hdW2NIXVtjSF0xKVtDSDJdW05IXVtDSDJdYyhuMiluKGMoYzIzKVtjSF1bY0hdW2NIXVtjSF0zKVtDSDJdYzRbY0hdW2NIXVtjSF1bY0hdW2NIXTQ=

>  <s_i_glide_gridfile>  (118) 
ATP-Grid

>  <s_lp_Force_Field>  (118) 
OPLS_2005

>  <s_lp_Variant>  (118) 
rxn512b____EMOL43482592____EMOL2730731____EMOL44693140-6

>  <s_lp_label>  (118) 
2759_sdstereoexpander_2_neutralizer_1_epik_3_stereoizer_1

>  <s_m_source_file>  (118) 
ATP-VSW-LIGPREP-002-in.maegz

>  <s_sd_BIOSOLVEIT.INFINISEE\_QUERY\_NAME>  (118) 
Ref-Lig

>  <s_sd_BIOSOLVEIT.INFINISEE\_QUERY\_SMILES>  (118) 
S(c1nc2c(cc1C[NH2+]Cc3ccc(cc3)C[NH+](C)C)cccc2)Cc4ccccc4

>  <s_sd_BIOSOLVEIT.INFINISEE\_REACTION\_NAME>  (118) 
rxn512b

>  <s_sd_BIOSOLVEIT.INFINISEE\_REAGENT1\_NAME>  (118) 
EMOL43482592

>  <s_sd_BIOSOLVEIT.INFINISEE\_REAGENT1\_SMILES>  (118) 
NC(C#C)C

>  <s_sd_BIOSOLVEIT.INFINISEE\_REAGENT2\_NAME>  (118) 
EMOL2730731

>  <s_sd_BIOSOLVEIT.INFINISEE\_REAGENT2\_SMILES>  (118) 
BrCc1cc(ccc1)C(=O)O

>  <s_sd_BIOSOLVEIT.INFINISEE\_REAGENT3\_NAME>  (118) 
EMOL44693140

>  <s_sd_BIOSOLVEIT.INFINISEE\_REAGENT3\_SMILES>  (118) 
N=1c2c(N(C1CN)Cc3ccccc3)cccc2

>  <s_sd_BIOSOLVEIT.INFINISEE\_SPACE>  (118) 
eXplore_7tr_2022-12

>  <s_vsw_compound_code>  (118) 
88258

>  <s_vsw_variant>  (118) 
88258-6

>  <r_epik_Charging_Adjusted_Penalty>  (118) 
2.4792679190636102

>  <r_epik_Ionization_Penalty>  (118) 
1.2424999999999999

>  <r_epik_Ionization_Penalty_Charging>  (118) 
1.0745

>  <r_epik_Ionization_Penalty_Neutral>  (118) 
0.16800000000000001

>  <r_epik_State_Penalty>  (118) 
1.4048

>  <r_i_docking_score>  (118) 
-3.7678044712308401

>  <r_i_glide_ecoul>  (118) 
-7.3317012786865199

>  <r_i_glide_eff_state_penalty>  (118) 
1.4048

>  <r_i_glide_einternal>  (118) 
2.1349608898162802

>  <r_i_glide_emodel>  (118) 
-63.519684491129198

>  <r_i_glide_energy>  (118) 
-44.405561447143597

>  <r_i_glide_erotb>  (118) 
1.1049466192886299

>  <r_i_glide_esite>  (118) 
-0.169168560304886

>  <r_i_glide_evdw>  (118) 
-37.073860168457003

>  <r_i_glide_gscore>  (118) 
-5.1726044712308399

>  <r_i_glide_hbond>  (118) 
-0.210986735486416

>  <r_i_glide_ligand_efficiency>  (118) 
-0.117743889725964

>  <r_i_glide_ligand_efficiency_ln>  (118) 
-0.84371412757943698

>  <r_i_glide_ligand_efficiency_sa>  (118) 
-0.373813548395799

>  <r_i_glide_lipo>  (118) 
-2.0582250597766998

>  <r_i_glide_metal>  (118) 
-0

>  <r_i_glide_rewards>  (118) 
-0.885722534725641

>  <r_lp_Energy>  (118) 
18.40832

>  <r_qp_ACxDN^.5/SA>  (118) 
0.0130758

>  <r_qp_CIQPlogS>  (118) 
-5.6950000000000003

>  <r_qp_EA(eV)>  (118) 
0.184

>  <r_qp_FISA>  (118) 
44.466000000000001

>  <r_qp_FOSA>  (118) 
214.702

>  <r_qp_IP(eV)>  (118) 
8.2620000000000005

>  <r_qp_Jm>  (118) 
0.91089095848535195

>  <r_qp_PISA>  (118) 
405.89600000000002

>  <r_qp_PSA>  (118) 
58.213000000000001

>  <r_qp_PercentHumanOralAbsorption>  (118) 
100

>  <r_qp_QPPCaco>  (118) 
935.68700000000001

>  <r_qp_QPPMDCK>  (118) 
509.36000000000001

>  <r_qp_QPlogBB>  (118) 
0.027

>  <r_qp_QPlogHERG>  (118) 
-6.3170000000000002

>  <r_qp_QPlogKhsa>  (118) 
0.66100000000000003

>  <r_qp_QPlogKp>  (118) 
-2.1080000000000001

>  <r_qp_QPlogPC16>  (118) 
14.066000000000001

>  <r_qp_QPlogPo/w>  (118) 
4.6070000000000002

>  <r_qp_QPlogPoct>  (118) 
21.760000000000002

>  <r_qp_QPlogPw>  (118) 
11.477

>  <r_qp_QPlogS>  (118) 
-3.5590000000000002

>  <r_qp_QPpolrz>  (118) 
44.206000000000003

>  <r_qp_SASA>  (118) 
665.06399999999996

>  <r_qp_SAamideO>  (118) 
0

>  <r_qp_SAfluorine>  (118) 
0

>  <r_qp_WPSA>  (118) 
0

>  <r_qp_accptHB>  (118) 
5.5

>  <r_qp_dip^2/V>  (118) 
0.043540000000000002

>  <r_qp_dipole>  (118) 
7.5410000000000004

>  <r_qp_donorHB>  (118) 
2.5

>  <r_qp_glob>  (118) 
0.86877930000000003

>  <r_qp_mol_MW>  (118) 
422.529

>  <r_qp_volume>  (118) 
1305.9059999999999

>  <r_sd_BIOSOLVEIT.INFINISEE\_FTREES\_SIMILARITY>  (118) 
0.90700000000000003

>  <r_sd_BIOSOLVEIT.LOGP>  (118) 
3.0996999999999999

>  <r_sd_BIOSOLVEIT.MOLECULAR\_WEIGHT>  (118) 
423.53699999999998

>  <r_sd_BIOSOLVEIT.TPSA>  (118) 
63.530000000000001

>  <i_epik_Tot_Q>  (118) 
1

>  <i_epik_Tot_abs_Q>  (118) 
1

>  <i_f3d_flags>  (118) 
0

>  <i_i_glide_confnum>  (118) 
6

>  <i_i_glide_lignum>  (118) 
1334

>  <i_i_glide_posenum>  (118) 
10

>  <i_i_glide_rotatable_bonds>  (118) 
10

>  <i_lp_mmshare_version>  (118) 
65135

>  <i_m_ct_format>  (118) 
2

>  <i_m_source_file_index>  (118) 
2759

>  <i_qp_#NandO>  (118) 
5

>  <i_qp_#acid>  (118) 
0

>  <i_qp_#amide>  (118) 
0

>  <i_qp_#amidine>  (118) 
0

>  <i_qp_#amine>  (118) 
1

>  <i_qp_#in34>  (118) 
0

>  <i_qp_#in56>  (118) 
21

>  <i_qp_#metab>  (118) 
5

>  <i_qp_#nonHatm>  (118) 
32

>  <i_qp_#noncon>  (118) 
0

>  <i_qp_#ringatoms>  (118) 
21

>  <i_qp_#rotor>  (118) 
9

>  <i_qp_#rtvFG>  (118) 
0

>  <i_qp_#stars>  (118) 
0

>  <i_qp_CNS>  (118) 
1

>  <i_qp_HumanOralAbsorption>  (118) 
3

>  <i_qp_RuleOfFive>  (118) 
0

>  <i_qp_RuleOfThree>  (118) 
0

>  <i_sd_BIOSOLVEIT.INFINISEE\_RESULT\_RANK>  (118) 
59145

>  <i_sd_version>  (118) 
0

>  <b_lp_Chiralities_Consistent>  (118) 
1

>  <b_sd_chiral_flag>  (118) 
0

>  <canonical_id>  (118) 
ATP-HTVS-13A5AE9C2B6A

>  <compound_code>  (118) 
88258

>  <title>  (118) 
rxn512b____EMOL43482592____EMOL2730731____EMOL44693140

>  <variant>  (118) 
88258-6

>  <source_file>  (118) 
运行/运行/ATP-VSW/ATP-VSW-DOCK_HTVS_1-002_lib.maegz

>  <canonical_smiles>  (118) 
C#C[C@H](C)NC(=O)c1cccc(CNCc2[nH+]c3ccccc3n2Cc2ccccc2)c1

>  <scaffold>  (118) 
c1ccc(CNCc2[nH+]c3ccccc3n2Cc2ccccc2)cc1

>  <molecular_formula>  (118) 
C27H27N4O+

$$$$
ATP-HTVS-1402A7ED8177
     RDKit          3D

 60 63  0  0  0  0  0  0  0  0999 V2000
  197.6597  181.2365  150.3928 F   0  0  0  0  0  0  0  0  0  0  0  0
  197.9251  180.7092  151.6149 C   0  0  0  0  0  0  0  0  0  0  0  0
  196.8730  180.3288  152.4871 C   0  0  0  0  0  0  0  0  0  0  0  0
  197.1578  179.7830  153.7776 C   0  0  0  0  0  0  0  0  0  0  0  0
  198.5214  179.6670  154.2204 C   0  0  0  0  0  0  0  0  0  0  0  0
  199.5601  180.1398  153.3681 C   0  0  0  0  0  0  0  0  0  0  0  0
  199.2560  180.5818  152.0734 C   0  0  0  0  0  0  0  0  0  0  0  0
  198.8166  179.1157  155.6297 C   0  0  1  0  0  0  0  0  0  0  0  0
  199.9341  178.0940  155.6808 N   0  0  1  0  0  0  0  0  0  0  0  0
  201.3645  178.5516  155.5260 C   0  0  2  0  0  0  0  0  0  0  0  0
  199.8406  177.1978  156.8630 C   0  0  2  0  0  0  0  0  0  0  0  0
  198.9859  180.2454  156.6738 C   0  0  1  0  0  0  0  0  0  0  0  0
  198.0320  181.3409  156.5080 N   0  0  0  0  0  0  0  0  0  0  0  0
  198.1146  182.3856  157.4391 C   0  0  0  0  0  0  0  0  0  0  0  0
  196.9347  182.8869  158.0640 C   0  0  0  0  0  0  0  0  0  0  0  0
  197.0698  183.9411  159.0114 C   0  0  0  0  0  0  0  0  0  0  0  0
  198.2845  184.4159  159.3096 N   0  0  0  0  0  0  0  0  0  0  0  0
  199.4297  183.9742  158.7408 C   0  0  0  0  0  0  0  0  0  0  0  0
  199.3676  182.9392  157.7967 C   0  0  0  0  0  0  0  0  0  0  0  0
  200.7250  184.6979  159.0590 C   0  0  1  0  0  0  0  0  0  0  0  0
  200.5491  186.0293  159.5374 O   0  0  0  0  0  0  0  0  0  0  0  0
  199.9107  186.9843  158.7615 C   0  0  0  0  0  0  0  0  0  0  0  0
  199.7702  188.2682  159.3289 C   0  0  0  0  0  0  0  0  0  0  0  0
  199.0327  189.2704  158.6624 C   0  0  0  0  0  0  0  0  0  0  0  0
  198.4197  188.9980  157.4228 C   0  0  0  0  0  0  0  0  0  0  0  0
  198.5691  187.7268  156.8389 C   0  0  0  0  0  0  0  0  0  0  0  0
  199.3350  186.7447  157.4841 C   0  0  0  0  0  0  0  0  0  0  0  0
  195.9186  184.5022  159.6137 C   0  0  0  0  0  0  0  0  0  0  0  0
  194.6539  183.9671  159.3332 C   0  0  0  0  0  0  0  0  0  0  0  0
  194.5252  182.8916  158.4441 C   0  0  0  0  0  0  0  0  0  0  0  0
  193.2846  182.3961  158.1615 O   0  0  0  0  0  0  0  0  0  0  0  0
  195.6587  182.3627  157.7931 C   0  0  0  0  0  0  0  0  0  0  0  0
  195.8325  180.4734  152.1632 H   0  0  0  0  0  0  0  0  0  0  0  0
  196.3400  179.5232  154.4348 H   0  0  0  0  0  0  0  0  0  0  0  0
  200.5830  180.2414  153.6362 H   0  0  0  0  0  0  0  0  0  0  0  0
  200.0775  180.8761  151.4481 H   0  0  0  0  0  0  0  0  0  0  0  0
  197.8946  178.5944  155.9422 H   0  0  0  0  0  0  0  0  0  0  0  0
  201.6019  179.3354  156.2543 H   0  0  0  0  0  0  0  0  0  0  0  0
  201.6315  178.8551  154.5261 H   0  0  0  0  0  0  0  0  0  0  0  0
  202.0359  177.7250  155.7640 H   0  0  0  0  0  0  0  0  0  0  0  0
  199.9697  177.7656  157.7940 H   0  0  0  0  0  0  0  0  0  0  0  0
  200.6544  176.4584  156.8335 H   0  0  0  0  0  0  0  0  0  0  0  0
  198.9035  176.6341  156.9266 H   0  0  0  0  0  0  0  0  0  0  0  0
  198.9274  179.8262  157.6899 H   0  0  0  0  0  0  0  0  0  0  0  0
  199.9615  180.7055  156.5611 H   0  0  0  0  0  0  0  0  0  0  0  0
  197.8598  181.6075  155.5430 H   0  0  0  0  0  0  0  0  0  0  0  0
  200.2799  182.6398  157.2982 H   0  0  0  0  0  0  0  0  0  0  0  0
  201.2267  184.1269  159.8434 H   0  0  0  0  0  0  0  0  0  0  0  0
  201.3950  184.6939  158.1986 H   0  0  0  0  0  0  0  0  0  0  0  0
  200.1974  188.4870  160.3000 H   0  0  0  0  0  0  0  0  0  0  0  0
  198.9277  190.2480  159.1099 H   0  0  0  0  0  0  0  0  0  0  0  0
  197.8525  189.7612  156.9087 H   0  0  0  0  0  0  0  0  0  0  0  0
  198.0872  187.4865  155.8995 H   0  0  0  0  0  0  0  0  0  0  0  0
  199.4046  185.7945  156.9797 H   0  0  0  0  0  0  0  0  0  0  0  0
  196.0163  185.3333  160.3033 H   0  0  0  0  0  0  0  0  0  0  0  0
  193.7713  184.3956  159.7947 H   0  0  0  0  0  0  0  0  0  0  0  0
  193.2076  182.2724  157.1940 H   0  0  0  0  0  0  0  0  0  0  0  0
  195.5429  181.5383  157.1004 H   0  0  0  0  0  0  0  0  0  0  0  0
  198.3607  185.2328  159.9168 H   0  0  0  0  0  0  0  0  0  0  0  0
  199.7213  177.4873  154.9069 H   0  0  0  0  0  0  0  0  0  0  0  0
  1  2  1  0
  2  3  1  0
  2  7  2  0
  3  4  2  0
  3 33  1  0
  4  5  1  0
  4 34  1  0
  5  6  2  0
  5  8  1  0
  6  7  1  0
  6 35  1  0
  7 36  1  0
  8  9  1  0
  8 12  1  0
  8 37  1  1
  9 10  1  0
  9 11  1  0
  9 60  1  6
 10 38  1  1
 10 39  1  0
 10 40  1  0
 11 41  1  1
 11 42  1  0
 11 43  1  0
 12 13  1  0
 12 44  1  1
 12 45  1  0
 13 14  1  0
 13 46  1  0
 14 15  1  0
 14 19  2  0
 15 16  1  0
 15 32  2  0
 16 17  1  0
 16 28  2  0
 17 18  2  0
 17 59  1  0
 18 19  1  0
 18 20  1  0
 19 47  1  0
 20 21  1  0
 20 48  1  1
 20 49  1  0
 21 22  1  0
 22 23  2  0
 22 27  1  0
 23 24  1  0
 23 50  1  0
 24 25  2  0
 24 51  1  0
 25 26  1  0
 25 52  1  0
 26 27  2  0
 26 53  1  0
 27 54  1  0
 28 29  1  0
 28 55  1  0
 29 30  2  0
 29 56  1  0
 30 31  1  0
 30 32  1  0
 31 57  1  0
 32 58  1  0
M  CHG  2   9   1  17   1
M  END
>  <s_epik_cmdline>  (119) 
J2VwaWtfcHl0aG9uJywgJy1waCcsICc3LjAwMDAwMCcsICctcGh0JywgJzIuMDAwMDAwJywgJy1tcycsICcxNicsICctdG4nLCAnOCcsICctbWEnLCAnMjAwJywgJy1pbWFlJywgJzxpbmZpbGUubWFlPicsICctb21hZScsICc8b3V0ZmlsZS5tYWU+Jw==

>  <s_epik_input>  (119) 
RmMxW2NIXVtjSF1jKFtjSF1bY0hdMSlbQ0BASF0oTihbQ0gzXSlbQ0gzXSlbQ0gyXVtOSF1jMltjSF1jKG5jKGMyMylbY0hdW2NIXWMoW09IXSlbY0hdMylbQ0gyXU9jNFtjSF1bY0hdW2NIXVtjSF1bY0hdNA==

>  <s_i_glide_gridfile>  (119) 
ATP-Grid

>  <s_lp_Force_Field>  (119) 
OPLS_2005

>  <s_lp_Variant>  (119) 
YAS_R004____OTV1509977____OTV7113231893____OTV7020431351-1

>  <s_lp_label>  (119) 
15_sdstereoexpander_1_neutralizer_1_epik_1_stereoizer_1

>  <s_m_source_file>  (119) 
ATP-VSW-LIGPREP-002-in.maegz

>  <s_sd_BIOSOLVEIT.INFINISEE\_QUERY\_NAME>  (119) 
Ref-Lig

>  <s_sd_BIOSOLVEIT.INFINISEE\_QUERY\_SMILES>  (119) 
S(c1nc2c(cc1C[NH2+]Cc3ccc(cc3)C[NH+](C)C)cccc2)Cc4ccccc4

>  <s_sd_BIOSOLVEIT.INFINISEE\_REACTION\_NAME>  (119) 
YAS_R004

>  <s_sd_BIOSOLVEIT.INFINISEE\_REAGENT1\_NAME>  (119) 
OTV1509977

>  <s_sd_BIOSOLVEIT.INFINISEE\_REAGENT1\_SMILES>  (119) 
Oc1ccc(N)cc1

>  <s_sd_BIOSOLVEIT.INFINISEE\_REAGENT2\_NAME>  (119) 
OTV7113231893

>  <s_sd_BIOSOLVEIT.INFINISEE\_REAGENT2\_SMILES>  (119) 
O=C(O)COc1ccccc1

>  <s_sd_BIOSOLVEIT.INFINISEE\_REAGENT3\_NAME>  (119) 
OTV7020431351

>  <s_sd_BIOSOLVEIT.INFINISEE\_REAGENT3\_SMILES>  (119) 
Fc1ccc(cc1)C(N(C)C)CN

>  <s_sd_BIOSOLVEIT.INFINISEE\_SPACE>  (119) 
CHEMriya_12bn_2022-01

>  <s_vsw_compound_code>  (119) 
450

>  <s_vsw_variant>  (119) 
450-1

>  <r_epik_Charging_Adjusted_Penalty>  (119) 
0.22531346519484399

>  <r_epik_Ionization_Penalty>  (119) 
0.1198

>  <r_epik_Ionization_Penalty_Charging>  (119) 
0.1115

>  <r_epik_Ionization_Penalty_Neutral>  (119) 
0.0083999999999999995

>  <r_epik_State_Penalty>  (119) 
0.1139

>  <r_i_docking_score>  (119) 
-5.06327281392812

>  <r_i_glide_ecoul>  (119) 
-16.0771389007568

>  <r_i_glide_eff_state_penalty>  (119) 
0.1139

>  <r_i_glide_einternal>  (119) 
8.7264013290405291

>  <r_i_glide_emodel>  (119) 
-64.854697037685796

>  <r_i_glide_energy>  (119) 
-46.677461624145501

>  <r_i_glide_erotb>  (119) 
0.63556715472457004

>  <r_i_glide_esite>  (119) 
-0.091832139320152203

>  <r_i_glide_evdw>  (119) 
-30.6003227233887

>  <r_i_glide_gscore>  (119) 
-5.1771728139281201

>  <r_i_glide_hbond>  (119) 
-0.15509557057996801

>  <r_i_glide_ligand_efficiency>  (119) 
-0.158227275435254

>  <r_i_glide_ligand_efficiency_ln>  (119) 
-1.1338048026426699

>  <r_i_glide_ligand_efficiency_sa>  (119) 
-0.50234028637164196

>  <r_i_glide_lipo>  (119) 
-0.88856356866712705

>  <r_i_glide_metal>  (119) 
-0

>  <r_i_glide_rewards>  (119) 
-0.73566171880248399

>  <r_lp_Energy>  (119) 
37.708122000000003

>  <r_lp_tautomer_probability>  (119) 
1

>  <r_qp_ACxDN^.5/SA>  (119) 
0.0112257

>  <r_qp_CIQPlogS>  (119) 
-5.9859999999999998

>  <r_qp_EA(eV)>  (119) 
0.86399999999999999

>  <r_qp_FISA>  (119) 
61.512999999999998

>  <r_qp_FOSA>  (119) 
204.78

>  <r_qp_IP(eV)>  (119) 
8.3599999999999994

>  <r_qp_Jm>  (119) 
0.074282318313520598

>  <r_qp_PISA>  (119) 
386.84699999999998

>  <r_qp_PSA>  (119) 
55.545999999999999

>  <r_qp_PercentHumanOralAbsorption>  (119) 
100

>  <r_qp_QPPCaco>  (119) 
644.87400000000002

>  <r_qp_QPPMDCK>  (119) 
562.404

>  <r_qp_QPlogBB>  (119) 
-0.055

>  <r_qp_QPlogHERG>  (119) 
-6.5910000000000002

>  <r_qp_QPlogKhsa>  (119) 
0.75800000000000001

>  <r_qp_QPlogKp>  (119) 
-2.4889999999999999

>  <r_qp_QPlogPC16>  (119) 
13.935

>  <r_qp_QPlogPo/w>  (119) 
4.8769999999999998

>  <r_qp_QPlogPoct>  (119) 
21.318000000000001

>  <r_qp_QPlogPw>  (119) 
10.811999999999999

>  <r_qp_QPlogS>  (119) 
-4.2750000000000004

>  <r_qp_QPpolrz>  (119) 
45.192

>  <r_qp_SASA>  (119) 
692.88999999999999

>  <r_qp_SAamideO>  (119) 
0

>  <r_qp_SAfluorine>  (119) 
39.750999999999998

>  <r_qp_WPSA>  (119) 
39.750999999999998

>  <r_qp_accptHB>  (119) 
5.5

>  <r_qp_dip^2/V>  (119) 
0.026339899999999999

>  <r_qp_dipole>  (119) 
5.9299999999999997

>  <r_qp_donorHB>  (119) 
2

>  <r_qp_glob>  (119) 
0.84626760000000001

>  <r_qp_mol_MW>  (119) 
431.50900000000001

>  <r_qp_volume>  (119) 
1335.0899999999999

>  <r_sd_BIOSOLVEIT.INFINISEE\_FTREES\_SIMILARITY>  (119) 
0.93400000000000005

>  <r_sd_BIOSOLVEIT.LOGP>  (119) 
3.9561999999999999

>  <r_sd_BIOSOLVEIT.MOLECULAR\_WEIGHT>  (119) 
432.51600000000002

>  <r_sd_BIOSOLVEIT.TPSA>  (119) 
58.82

>  <i_epik_Tot_Q>  (119) 
2

>  <i_epik_Tot_abs_Q>  (119) 
2

>  <i_f3d_flags>  (119) 
0

>  <i_i_glide_confnum>  (119) 
2

>  <i_i_glide_lignum>  (119) 
72

>  <i_i_glide_posenum>  (119) 
5

>  <i_i_glide_rotatable_bonds>  (119) 
9

>  <i_lp_mmshare_version>  (119) 
65135

>  <i_m_ct_format>  (119) 
2

>  <i_m_source_file_index>  (119) 
15

>  <i_qp_#NandO>  (119) 
5

>  <i_qp_#acid>  (119) 
0

>  <i_qp_#amide>  (119) 
0

>  <i_qp_#amidine>  (119) 
0

>  <i_qp_#amine>  (119) 
1

>  <i_qp_#in34>  (119) 
0

>  <i_qp_#in56>  (119) 
22

>  <i_qp_#metab>  (119) 
7

>  <i_qp_#nonHatm>  (119) 
32

>  <i_qp_#noncon>  (119) 
0

>  <i_qp_#ringatoms>  (119) 
22

>  <i_qp_#rotor>  (119) 
9

>  <i_qp_#rtvFG>  (119) 
0

>  <i_qp_#stars>  (119) 
0

>  <i_qp_CNS>  (119) 
1

>  <i_qp_HumanOralAbsorption>  (119) 
3

>  <i_qp_RuleOfFive>  (119) 
0

>  <i_qp_RuleOfThree>  (119) 
1

>  <i_sd_BIOSOLVEIT.INFINISEE\_RESULT\_RANK>  (119) 
3203

>  <i_sd_version>  (119) 
0

>  <b_lp_Chiralities_Consistent>  (119) 
1

>  <b_sd_chiral_flag>  (119) 
0

>  <canonical_id>  (119) 
ATP-HTVS-1402A7ED8177

>  <compound_code>  (119) 
450

>  <title>  (119) 
YAS_R004____OTV1509977____OTV7113231893____OTV7020431351

>  <variant>  (119) 
450-1

>  <source_file>  (119) 
运行/运行/ATP-VSW/ATP-VSW-DOCK_HTVS_1-002_lib.maegz

>  <canonical_smiles>  (119) 
C[NH+](C)[C@@H](CNc1cc(COc2ccccc2)[nH+]c2ccc(O)cc12)c1ccc(F)cc1

>  <scaffold>  (119) 
c1ccc(CCNc2cc(COc3ccccc3)[nH+]c3ccccc23)cc1

>  <molecular_formula>  (119) 
C26H28FN3O2+2

$$$$
ATP-HTVS-143D46541936
     RDKit          3D

 56 58  0  0  0  0  0  0  0  0999 V2000
  198.7930  182.9089  154.9130 S   0  0  0  0  0  0  0  0  0  0  0  0
  197.7362  184.0267  154.1012 C   0  0  0  0  0  0  0  0  0  0  0  0
  197.7164  183.9849  152.6241 C   0  0  0  0  0  0  0  0  0  0  0  0
  198.3123  184.8768  152.0233 O   0  0  0  0  0  0  0  0  0  0  0  0
  197.0631  182.9847  151.9616 N   0  0  0  0  0  0  0  0  0  0  0  0
  196.3475  181.8564  152.5902 C   0  0  1  0  0  0  0  0  0  0  0  0
  197.2669  180.8279  153.2294 C   0  0  0  0  0  0  0  0  0  0  0  0
  198.4154  180.3654  152.5580 C   0  0  0  0  0  0  0  0  0  0  0  0
  199.3001  179.4720  153.1890 C   0  0  0  0  0  0  0  0  0  0  0  0
  199.0302  179.0172  154.4927 C   0  0  0  0  0  0  0  0  0  0  0  0
  197.8715  179.4499  155.1612 C   0  0  0  0  0  0  0  0  0  0  0  0
  196.9968  180.3570  154.5449 C   0  0  0  0  0  0  0  0  0  0  0  0
  197.0211  182.9784  150.4879 C   0  0  2  0  0  0  0  0  0  0  0  0
  197.1683  184.9115  154.9952 C   0  0  0  0  0  0  0  0  0  0  0  0
  197.4334  184.5340  156.3560 C   0  0  0  0  0  0  0  0  0  0  0  0
  196.9612  185.3218  157.4286 N   0  0  0  0  0  0  0  0  0  0  0  0
  196.6699  184.7032  158.7183 C   0  0  1  0  0  0  0  0  0  0  0  0
  195.9481  185.6396  159.6641 C   0  0  0  0  0  0  0  0  0  0  0  0
  196.5555  186.8485  160.0863 C   0  0  0  0  0  0  0  0  0  0  0  0
  195.8427  187.7207  160.9466 C   0  0  0  0  0  0  0  0  0  0  0  0
  194.5493  187.3647  161.4172 C   0  0  0  0  0  0  0  0  0  0  0  0
  194.0457  186.1165  161.0424 C   0  0  0  0  0  0  0  0  0  0  0  0
  194.6797  185.2879  160.1503 C   0  0  0  0  0  0  0  0  0  0  0  0
  193.7433  188.3230  162.2978 C   0  0  1  0  0  0  0  0  0  0  0  0
  192.4065  188.7015  161.7426 N   0  0  2  0  0  0  0  0  0  0  0  0
  191.7658  189.8214  162.4863 C   0  0  2  0  0  0  0  0  0  0  0  0
  191.4395  187.6122  161.5249 C   0  0  2  0  0  0  0  0  0  0  0  0
  198.1796  183.3895  156.4569 C   0  0  0  0  0  0  0  0  0  0  0  0
  195.6337  182.2601  153.3117 H   0  0  0  0  0  0  0  0  0  0  0  0
  195.7550  181.3098  151.8435 H   0  0  0  0  0  0  0  0  0  0  0  0
  198.6672  180.7535  151.5833 H   0  0  0  0  0  0  0  0  0  0  0  0
  200.1987  179.1521  152.6800 H   0  0  0  0  0  0  0  0  0  0  0  0
  199.7142  178.3388  154.9835 H   0  0  0  0  0  0  0  0  0  0  0  0
  197.6920  179.1439  156.1791 H   0  0  0  0  0  0  0  0  0  0  0  0
  196.1370  180.7155  155.0815 H   0  0  0  0  0  0  0  0  0  0  0  0
  197.0992  183.9726  150.0379 H   0  0  0  0  0  0  0  0  0  0  0  0
  196.0907  182.5552  150.1085 H   0  0  0  0  0  0  0  0  0  0  0  0
  197.8438  182.3789  150.0945 H   0  0  0  0  0  0  0  0  0  0  0  0
  196.5963  185.7923  154.7202 H   0  0  0  0  0  0  0  0  0  0  0  0
  196.5427  186.2219  157.2428 H   0  0  0  0  0  0  0  0  0  0  0  0
  196.0556  183.8128  158.5545 H   0  0  0  0  0  0  0  0  0  0  0  0
  197.5901  184.3646  159.2004 H   0  0  0  0  0  0  0  0  0  0  0  0
  197.5703  187.0956  159.7779 H   0  0  0  0  0  0  0  0  0  0  0  0
  196.3174  188.6402  161.2709 H   0  0  0  0  0  0  0  0  0  0  0  0
  193.1087  185.7397  161.4600 H   0  0  0  0  0  0  0  0  0  0  0  0
  194.2063  184.3782  159.8109 H   0  0  0  0  0  0  0  0  0  0  0  0
  193.6094  187.8771  163.2800 H   0  0  0  0  0  0  0  0  0  0  0  0
  194.3317  189.2355  162.4575 H   0  0  0  0  0  0  0  0  0  0  0  0
  191.5746  189.5204  163.5215 H   0  0  0  0  0  0  0  0  0  0  0  0
  190.7989  190.0645  162.0304 H   0  0  0  0  0  0  0  0  0  0  0  0
  192.3707  190.7435  162.4891 H   0  0  0  0  0  0  0  0  0  0  0  0
  191.3216  187.0647  162.4443 H   0  0  0  0  0  0  0  0  0  0  0  0
  191.7930  186.9536  160.7468 H   0  0  0  0  0  0  0  0  0  0  0  0
  190.4752  187.9696  161.2039 H   0  0  0  0  0  0  0  0  0  0  0  0
  198.4700  182.8695  157.3662 H   0  0  0  0  0  0  0  0  0  0  0  0
  192.6253  189.0875  160.8230 H   0  0  0  0  0  0  0  0  0  0  0  0
  1  2  1  0
  1 28  1  0
  2  3  1  0
  2 14  2  0
  3  4  2  0
  3  5  1  0
  5  6  1  0
  5 13  1  0
  6  7  1  0
  6 29  1  1
  6 30  1  0
  7  8  2  0
  7 12  1  0
  8  9  1  0
  8 31  1  0
  9 10  2  0
  9 32  1  0
 10 11  1  0
 10 33  1  0
 11 12  2  0
 11 34  1  0
 12 35  1  0
 13 36  1  6
 13 37  1  0
 13 38  1  0
 14 15  1  0
 14 39  1  0
 15 16  1  0
 15 28  2  0
 16 17  1  0
 16 40  1  0
 17 18  1  0
 17 41  1  6
 17 42  1  0
 18 19  1  0
 18 23  2  0
 19 20  2  0
 19 43  1  0
 20 21  1  0
 20 44  1  0
 21 22  2  0
 21 24  1  0
 22 23  1  0
 22 45  1  0
 23 46  1  0
 24 25  1  0
 24 47  1  1
 24 48  1  0
 25 26  1  0
 25 27  1  0
 25 56  1  6
 26 49  1  1
 26 50  1  0
 26 51  1  0
 27 52  1  1
 27 53  1  0
 27 54  1  0
 28 55  1  0
M  CHG  1  25   1
M  END
>  <s_epik_cmdline>  (120) 
J2VwaWtfcHl0aG9uJywgJy1waCcsICc3LjAwMDAwMCcsICctcGh0JywgJzIuMDAwMDAwJywgJy1tcycsICcxNicsICctdG4nLCAnOCcsICctbWEnLCAnMjAwJywgJy1pbWFlJywgJzxpbmZpbGUubWFlPicsICctb21hZScsICc8b3V0ZmlsZS5tYWU+Jw==

>  <s_epik_input>  (120) 
W2NIXTFbY0hdW2NIXVtjSF1bY0hdYzFbQ0gyXU4oW0NIM10pQyg9TyljMnNbY0hdYyhbY0hdMilbTkhdW0NIMl1jM1tjSF1bY0hdYyhbY0hdW2NIXTMpW0NIMl1OKFtDSDNdKVtDSDNd

>  <s_i_glide_gridfile>  (120) 
ATP-Grid

>  <s_lp_Force_Field>  (120) 
OPLS_2005

>  <s_lp_Variant>  (120) 
rxn512b____EMOL480996____EMOL720738____EMOL50155899-1

>  <s_lp_label>  (120) 
2231_sdstereoexpander_1_neutralizer_1_epik_1_stereoizer_1

>  <s_m_source_file>  (120) 
ATP-VSW-LIGPREP-002-in.maegz

>  <s_sd_BIOSOLVEIT.INFINISEE\_QUERY\_NAME>  (120) 
Ref-Lig

>  <s_sd_BIOSOLVEIT.INFINISEE\_QUERY\_SMILES>  (120) 
S(c1nc2c(cc1C[NH2+]Cc3ccc(cc3)C[NH+](C)C)cccc2)Cc4ccccc4

>  <s_sd_BIOSOLVEIT.INFINISEE\_REACTION\_NAME>  (120) 
rxn512b

>  <s_sd_BIOSOLVEIT.INFINISEE\_REAGENT1\_NAME>  (120) 
EMOL480996

>  <s_sd_BIOSOLVEIT.INFINISEE\_REAGENT1\_SMILES>  (120) 
N(Cc1ccccc1)C

>  <s_sd_BIOSOLVEIT.INFINISEE\_REAGENT2\_NAME>  (120) 
EMOL720738

>  <s_sd_BIOSOLVEIT.INFINISEE\_REAGENT2\_SMILES>  (120) 
BrC1=CSC(C(=O)O)=C1

>  <s_sd_BIOSOLVEIT.INFINISEE\_REAGENT3\_NAME>  (120) 
EMOL50155899

>  <s_sd_BIOSOLVEIT.INFINISEE\_REAGENT3\_SMILES>  (120) 
N(Cc1ccc(cc1)CN)(C)C

>  <s_sd_BIOSOLVEIT.INFINISEE\_SPACE>  (120) 
eXplore_7tr_2022-12

>  <s_vsw_compound_code>  (120) 
71362

>  <s_vsw_variant>  (120) 
71362-1

>  <r_epik_Charging_Adjusted_Penalty>  (120) 
0.080189274810459593

>  <r_epik_Ionization_Penalty>  (120) 
0.040099999999999997

>  <r_epik_Ionization_Penalty_Charging>  (120) 
0.040099999999999997

>  <r_epik_Ionization_Penalty_Neutral>  (120) 
0

>  <r_epik_State_Penalty>  (120) 
0.040099999999999997

>  <r_i_docking_score>  (120) 
-3.8681226638934501

>  <r_i_glide_ecoul>  (120) 
-5.6134943962097203

>  <r_i_glide_eff_state_penalty>  (120) 
0.040099999999999997

>  <r_i_glide_einternal>  (120) 
6.1168718338012704

>  <r_i_glide_emodel>  (120) 
-46.424827361183603

>  <r_i_glide_energy>  (120) 
-36.752723217010498

>  <r_i_glide_erotb>  (120) 
0.87890940793692796

>  <r_i_glide_esite>  (120) 
-0.037123440712936398

>  <r_i_glide_evdw>  (120) 
-31.139228820800799

>  <r_i_glide_gscore>  (120) 
-3.9082226638934499

>  <r_i_glide_hbond>  (120) 
0

>  <r_i_glide_ligand_efficiency>  (120) 
-0.13814723799619399

>  <r_i_glide_ligand_efficiency_ln>  (120) 
-0.89287628384307505

>  <r_i_glide_ligand_efficiency_sa>  (120) 
-0.41949637892837699

>  <r_i_glide_lipo>  (120) 
-1.6320724851913999

>  <r_i_glide_metal>  (120) 
-0

>  <r_i_glide_rewards>  (120) 
-0.71895054545454395

>  <r_lp_Energy>  (120) 
23.889362999999999

>  <r_lp_tautomer_probability>  (120) 
0.99999274205267796

>  <r_qp_ACxDN^.5/SA>  (120) 
0.0086119999999999999

>  <r_qp_CIQPlogS>  (120) 
-3.738

>  <r_qp_EA(eV)>  (120) 
0.312

>  <r_qp_FISA>  (120) 
50.293999999999997

>  <r_qp_FOSA>  (120) 
308.98700000000002

>  <r_qp_IP(eV)>  (120) 
8.1999999999999993

>  <r_qp_Jm>  (120) 
0.0052216513565550102

>  <r_qp_PISA>  (120) 
303.62299999999999

>  <r_qp_PSA>  (120) 
45.884999999999998

>  <r_qp_PercentHumanOralAbsorption>  (120) 
91.933999999999997

>  <r_qp_QPPCaco>  (120) 
205.47399999999999

>  <r_qp_QPPMDCK>  (120) 
167.65100000000001

>  <r_qp_QPlogBB>  (120) 
0.47199999999999998

>  <r_qp_QPlogHERG>  (120) 
-7.2229999999999999

>  <r_qp_QPlogKhsa>  (120) 
0.64100000000000001

>  <r_qp_QPlogKp>  (120) 
-4.734

>  <r_qp_QPlogPC16>  (120) 
13.259

>  <r_qp_QPlogPo/w>  (120) 
4.0300000000000002

>  <r_qp_QPlogPoct>  (120) 
19.327999999999999

>  <r_qp_QPlogPw>  (120) 
9.4250000000000007

>  <r_qp_QPlogS>  (120) 
-3.1429999999999998

>  <r_qp_QPpolrz>  (120) 
43.701999999999998

>  <r_qp_SASA>  (120) 
696.69899999999996

>  <r_qp_SAamideO>  (120) 
0

>  <r_qp_SAfluorine>  (120) 
0

>  <r_qp_WPSA>  (120) 
33.793999999999997

>  <r_qp_accptHB>  (120) 
6

>  <r_qp_dip^2/V>  (120) 
0.025877299999999999

>  <r_qp_dipole>  (120) 
5.8040000000000003

>  <r_qp_donorHB>  (120) 
1

>  <r_qp_glob>  (120) 
0.82753880000000002

>  <r_qp_mol_MW>  (120) 
393.54599999999999

>  <r_qp_volume>  (120) 
1301.675

>  <r_sd_BIOSOLVEIT.INFINISEE\_FTREES\_SIMILARITY>  (120) 
0.92800000000000005

>  <r_sd_BIOSOLVEIT.LOGP>  (120) 
3.2768999999999999

>  <r_sd_BIOSOLVEIT.MOLECULAR\_WEIGHT>  (120) 
394.55900000000003

>  <r_sd_BIOSOLVEIT.TPSA>  (120) 
36.780000000000001

>  <i_epik_Tot_Q>  (120) 
1

>  <i_epik_Tot_abs_Q>  (120) 
1

>  <i_f3d_flags>  (120) 
0

>  <i_i_glide_confnum>  (120) 
5

>  <i_i_glide_lignum>  (120) 
871

>  <i_i_glide_posenum>  (120) 
18

>  <i_i_glide_rotatable_bonds>  (120) 
9

>  <i_lp_mmshare_version>  (120) 
65135

>  <i_m_ct_format>  (120) 
2

>  <i_m_source_file_index>  (120) 
2231

>  <i_qp_#NandO>  (120) 
4

>  <i_qp_#acid>  (120) 
0

>  <i_qp_#amide>  (120) 
0

>  <i_qp_#amidine>  (120) 
0

>  <i_qp_#amine>  (120) 
2

>  <i_qp_#in34>  (120) 
0

>  <i_qp_#in56>  (120) 
17

>  <i_qp_#metab>  (120) 
6

>  <i_qp_#nonHatm>  (120) 
28

>  <i_qp_#noncon>  (120) 
0

>  <i_qp_#ringatoms>  (120) 
17

>  <i_qp_#rotor>  (120) 
8

>  <i_qp_#rtvFG>  (120) 
0

>  <i_qp_#stars>  (120) 
0

>  <i_qp_CNS>  (120) 
2

>  <i_qp_HumanOralAbsorption>  (120) 
3

>  <i_qp_RuleOfFive>  (120) 
0

>  <i_qp_RuleOfThree>  (120) 
0

>  <i_sd_BIOSOLVEIT.INFINISEE\_RESULT\_RANK>  (120) 
6080

>  <i_sd_version>  (120) 
0

>  <b_lp_Chiralities_Consistent>  (120) 
1

>  <b_sd_chiral_flag>  (120) 
0

>  <canonical_id>  (120) 
ATP-HTVS-143D46541936

>  <compound_code>  (120) 
71362

>  <title>  (120) 
rxn512b____EMOL480996____EMOL720738____EMOL50155899

>  <variant>  (120) 
71362-1

>  <source_file>  (120) 
运行/运行/ATP-VSW/ATP-VSW-DOCK_HTVS_1-002_lib.maegz

>  <canonical_smiles>  (120) 
CN(Cc1ccccc1)C(=O)c1cc(NCc2ccc(C[NH+](C)C)cc2)cs1

>  <scaffold>  (120) 
O=C(NCc1ccccc1)c1cc(NCc2ccccc2)cs1

>  <molecular_formula>  (120) 
C23H28N3OS+

$$$$
ATP-HTVS-1449F4F4BA71
     RDKit          3D

 56 59  0  0  0  0  0  0  0  0999 V2000
  199.0012  185.9127  150.6199 F   0  0  0  0  0  0  0  0  0  0  0  0
  199.1337  186.2955  151.8962 C   0  0  0  0  0  0  0  0  0  0  0  0
  198.7839  185.4185  152.9214 C   0  0  0  0  0  0  0  0  0  0  0  0
  198.9204  185.7422  154.2808 C   0  0  0  0  0  0  0  0  0  0  0  0
  199.4332  187.0294  154.6130 C   0  0  0  0  0  0  0  0  0  0  0  0
  199.6149  187.4044  155.8888 N   0  0  0  0  0  0  0  0  0  0  0  0
  199.2991  186.5341  156.8640 C   0  0  0  0  0  0  0  0  0  0  0  0
  198.7489  185.2452  156.6568 C   0  0  0  0  0  0  0  0  0  0  0  0
  198.5570  184.8080  155.3060 C   0  0  0  0  0  0  0  0  0  0  0  0
  198.0320  183.5141  154.9835 N   0  0  0  0  0  0  0  0  0  0  0  0
  198.7752  182.5774  154.1092 C   0  0  1  0  0  0  0  0  0  0  0  0
  197.9457  181.8422  153.0382 C   0  0  0  0  0  0  0  0  0  0  0  0
  197.4711  182.4553  151.8366 C   0  0  0  0  0  0  0  0  0  0  0  0
  196.6750  181.7514  150.9323 C   0  0  0  0  0  0  0  0  0  0  0  0
  196.3135  180.4091  151.1734 C   0  0  0  0  0  0  0  0  0  0  0  0
  195.5393  179.7399  150.2871 F   0  0  0  0  0  0  0  0  0  0  0  0
  196.7768  179.7819  152.3564 C   0  0  0  0  0  0  0  0  0  0  0  0
  197.6104  180.4747  153.2665 C   0  0  0  0  0  0  0  0  0  0  0  0
  196.7286  183.1216  155.5605 C   0  0  1  0  0  0  0  0  0  0  0  0
  196.7296  181.7248  156.2276 C   0  0  1  0  0  0  0  0  0  0  0  0
  195.4939  181.4811  156.9635 N   0  0  2  0  0  0  0  0  0  0  0  0
  198.4191  184.4030  157.8704 C   0  0  0  0  0  0  0  0  0  0  0  0
  199.0059  183.3453  158.1002 O   0  0  0  0  0  0  0  0  0  0  0  0
  197.2832  184.8754  158.7314 C   0  0  0  0  0  0  0  0  0  0  0  0
  197.2686  186.1709  159.2888 C   0  0  0  0  0  0  0  0  0  0  0  0
  196.1824  186.5987  160.0662 C   0  0  0  0  0  0  0  0  0  0  0  0
  195.0862  185.7520  160.3007 C   0  0  0  0  0  0  0  0  0  0  0  0
  195.0778  184.4612  159.7400 C   0  0  0  0  0  0  0  0  0  0  0  0
  196.1861  184.0218  158.9875 C   0  0  0  0  0  0  0  0  0  0  0  0
  193.9468  186.2407  161.1608 C   0  0  2  0  0  0  0  0  0  0  0  0
  199.7828  187.9229  153.5652 C   0  0  0  0  0  0  0  0  0  0  0  0
  199.6447  187.5766  152.1954 C   0  0  0  0  0  0  0  0  0  0  0  0
  195.5457  180.4680  157.3143 H   0  0  0  0  0  0  0  0  0  0  0  0
  194.6908  181.6535  156.3494 H   0  0  0  0  0  0  0  0  0  0  0  0
  198.3981  184.4797  152.6644 H   0  0  0  0  0  0  0  0  0  0  0  0
  199.5755  186.8783  157.8487 H   0  0  0  0  0  0  0  0  0  0  0  0
  199.6168  183.0758  153.6353 H   0  0  0  0  0  0  0  0  0  0  0  0
  199.2857  181.8563  154.7687 H   0  0  0  0  0  0  0  0  0  0  0  0
  197.6513  183.4436  151.4709 H   0  0  0  0  0  0  0  0  0  0  0  0
  196.3618  182.2629  150.0392 H   0  0  0  0  0  0  0  0  0  0  0  0
  196.4749  178.7510  152.5765 H   0  0  0  0  0  0  0  0  0  0  0  0
  197.9886  179.9463  154.1393 H   0  0  0  0  0  0  0  0  0  0  0  0
  196.3916  183.8702  156.2943 H   0  0  0  0  0  0  0  0  0  0  0  0
  195.9626  183.1615  154.7747 H   0  0  0  0  0  0  0  0  0  0  0  0
  196.6756  180.9294  155.4772 H   0  0  0  0  0  0  0  0  0  0  0  0
  197.6149  181.5566  156.8561 H   0  0  0  0  0  0  0  0  0  0  0  0
  198.0971  186.8555  159.1770 H   0  0  0  0  0  0  0  0  0  0  0  0
  196.2315  187.5885  160.4835 H   0  0  0  0  0  0  0  0  0  0  0  0
  194.2414  183.8000  159.9111 H   0  0  0  0  0  0  0  0  0  0  0  0
  196.1931  183.0105  158.6258 H   0  0  0  0  0  0  0  0  0  0  0  0
  193.2188  185.4529  161.3363 H   0  0  0  0  0  0  0  0  0  0  0  0
  193.4534  187.0668  160.6552 H   0  0  0  0  0  0  0  0  0  0  0  0
  194.3413  186.5889  162.1147 H   0  0  0  0  0  0  0  0  0  0  0  0
  200.1933  188.9131  153.8298 H   0  0  0  0  0  0  0  0  0  0  0  0
  199.9348  188.2604  151.3955 H   0  0  0  0  0  0  0  0  0  0  0  0
  195.4232  182.0992  157.7336 H   0  0  0  0  0  0  0  0  0  0  0  0
  1  2  1  0
  2  3  1  0
  2 32  2  0
  3  4  2  0
  3 35  1  0
  4  5  1  0
  4  9  1  0
  5  6  1  0
  5 31  2  0
  6  7  2  0
  7  8  1  0
  7 36  1  0
  8  9  2  0
  8 22  1  0
  9 10  1  0
 10 11  1  0
 10 19  1  0
 11 12  1  0
 11 37  1  6
 11 38  1  0
 12 13  1  0
 12 18  2  0
 13 14  2  0
 13 39  1  0
 14 15  1  0
 14 40  1  0
 15 16  1  0
 15 17  2  0
 17 18  1  0
 17 41  1  0
 18 42  1  0
 19 20  1  0
 19 43  1  1
 19 44  1  0
 20 21  1  0
 20 45  1  6
 20 46  1  0
 21 33  1  1
 21 34  1  0
 21 56  1  0
 22 23  2  0
 22 24  1  0
 24 25  1  0
 24 29  2  0
 25 26  2  0
 25 47  1  0
 26 27  1  0
 26 48  1  0
 27 28  2  0
 27 30  1  0
 28 29  1  0
 28 49  1  0
 29 50  1  0
 30 51  1  1
 30 52  1  0
 30 53  1  0
 31 32  1  0
 31 54  1  0
 32 55  1  0
M  CHG  1  21   1
M  END
>  <s_epik_cmdline>  (121) 
J2VwaWtfcHl0aG9uJywgJy1waCcsICc3LjAwMDAwMCcsICctcGh0JywgJzIuMDAwMDAwJywgJy1tcycsICcxNicsICctdG4nLCAnOCcsICctbWEnLCAnMjAwJywgJy1pbWFlJywgJzxpbmZpbGUubWFlPicsICctb21hZScsICc8b3V0ZmlsZS5tYWU+Jw==

>  <s_epik_input>  (121) 
RmMoW2NIXTEpW2NIXVtjSF1jKGMxMiluW2NIXWMoQyg9TyljM1tjSF1bY0hdYyhbQ0gzXSlbY0hdW2NIXTMpYzJOKFtDSDJdW0NIMl1bTkgyXSlbQ0gyXWM0W2NIXVtjSF1jKEYpW2NIXVtjSF00

>  <s_i_glide_gridfile>  (121) 
ATP-Grid

>  <s_lp_Force_Field>  (121) 
OPLS_2005

>  <s_lp_Variant>  (121) 
rxn102c____EMOL36904858____EMOL195078550-1

>  <s_lp_label>  (121) 
2784_sdstereoexpander_1_neutralizer_1_epik_1_stereoizer_1

>  <s_m_source_file>  (121) 
ATP-VSW-LIGPREP-002-in.maegz

>  <s_sd_BIOSOLVEIT.INFINISEE\_QUERY\_NAME>  (121) 
Ref-Lig

>  <s_sd_BIOSOLVEIT.INFINISEE\_QUERY\_SMILES>  (121) 
S(c1nc2c(cc1C[NH2+]Cc3ccc(cc3)C[NH+](C)C)cccc2)Cc4ccccc4

>  <s_sd_BIOSOLVEIT.INFINISEE\_REACTION\_NAME>  (121) 
rxn102c

>  <s_sd_BIOSOLVEIT.INFINISEE\_REAGENT1\_NAME>  (121) 
EMOL36904858

>  <s_sd_BIOSOLVEIT.INFINISEE\_REAGENT1\_SMILES>  (121) 
Clc1c2c(ncc1C(=O)c3ccc(cc3)C)ccc(F)c2

>  <s_sd_BIOSOLVEIT.INFINISEE\_REAGENT2\_NAME>  (121) 
EMOL195078550

>  <s_sd_BIOSOLVEIT.INFINISEE\_REAGENT2\_SMILES>  (121) 
Fc1ccc(cc1)CNCCN

>  <s_sd_BIOSOLVEIT.INFINISEE\_SPACE>  (121) 
eXplore_7tr_2022-12

>  <s_vsw_compound_code>  (121) 
89058

>  <s_vsw_variant>  (121) 
89058-1

>  <r_epik_Charging_Adjusted_Penalty>  (121) 
0.0012306934720333401

>  <r_epik_Ionization_Penalty>  (121) 
0.0032000000000000002

>  <r_epik_Ionization_Penalty_Charging>  (121) 
0.0011999999999999999

>  <r_epik_Ionization_Penalty_Neutral>  (121) 
0.002

>  <r_epik_State_Penalty>  (121) 
-0

>  <r_i_docking_score>  (121) 
-6.2195852692067701

>  <r_i_glide_ecoul>  (121) 
-13.311942100524901

>  <r_i_glide_eff_state_penalty>  (121) 
-0

>  <r_i_glide_einternal>  (121) 
8.1327867507934606

>  <r_i_glide_emodel>  (121) 
-66.3580188940401

>  <r_i_glide_energy>  (121) 
-44.2322549819946

>  <r_i_glide_erotb>  (121) 
0.63832049235369703

>  <r_i_glide_esite>  (121) 
-0.099396330867986604

>  <r_i_glide_evdw>  (121) 
-30.920312881469702

>  <r_i_glide_gscore>  (121) 
-6.2195852692067701

>  <r_i_glide_hbond>  (121) 
-0.34755291012925299

>  <r_i_glide_ligand_efficiency>  (121) 
-0.19436203966271101

>  <r_i_glide_ligand_efficiency_ln>  (121) 
-1.3927346812666399

>  <r_i_glide_ligand_efficiency_sa>  (121) 
-0.61706101173368899

>  <r_i_glide_lipo>  (121) 
-1.9634552081616601

>  <r_i_glide_metal>  (121) 
-0

>  <r_i_glide_rewards>  (121) 
-0.904694353249345

>  <r_lp_Energy>  (121) 
35.496949000000001

>  <r_lp_tautomer_probability>  (121) 
1

>  <r_qp_ACxDN^.5/SA>  (121) 
0.0099720999999999994

>  <r_qp_CIQPlogS>  (121) 
-6.1779999999999999

>  <r_qp_EA(eV)>  (121) 
1.427

>  <r_qp_FISA>  (121) 
105.88

>  <r_qp_FOSA>  (121) 
133.09200000000001

>  <r_qp_IP(eV)>  (121) 
8.7989999999999995

>  <r_qp_Jm>  (121) 
0.0012647378362841701

>  <r_qp_PISA>  (121) 
379.33300000000003

>  <r_qp_PSA>  (121) 
62.637

>  <r_qp_PercentHumanOralAbsorption>  (121) 
100

>  <r_qp_QPPCaco>  (121) 
244.75800000000001

>  <r_qp_QPPMDCK>  (121) 
375.69099999999997

>  <r_qp_QPlogBB>  (121) 
-0.35399999999999998

>  <r_qp_QPlogHERG>  (121) 
-7.024

>  <r_qp_QPlogKhsa>  (121) 
0.81200000000000006

>  <r_qp_QPlogKp>  (121) 
-3.4289999999999998

>  <r_qp_QPlogPC16>  (121) 
13.694000000000001

>  <r_qp_QPlogPo/w>  (121) 
4.7910000000000004

>  <r_qp_QPlogPoct>  (121) 
21.102

>  <r_qp_QPlogPw>  (121) 
10.847

>  <r_qp_QPlogS>  (121) 
-5.1040000000000001

>  <r_qp_QPpolrz>  (121) 
44.829000000000001

>  <r_qp_SASA>  (121) 
709.08799999999997

>  <r_qp_SAamideO>  (121) 
0

>  <r_qp_SAfluorine>  (121) 
90.781999999999996

>  <r_qp_WPSA>  (121) 
90.781999999999996

>  <r_qp_accptHB>  (121) 
5

>  <r_qp_dip^2/V>  (121) 
0.013007400000000001

>  <r_qp_dipole>  (121) 
4.1310000000000002

>  <r_qp_donorHB>  (121) 
2

>  <r_qp_glob>  (121) 
0.81727550000000004

>  <r_qp_mol_MW>  (121) 
431.48399999999998

>  <r_qp_volume>  (121) 
1311.7629999999999

>  <r_sd_BIOSOLVEIT.INFINISEE\_FTREES\_SIMILARITY>  (121) 
0.90700000000000003

>  <r_sd_BIOSOLVEIT.LOGP>  (121) 
4.3009199999999996

>  <r_sd_BIOSOLVEIT.MOLECULAR\_WEIGHT>  (121) 
432.49200000000002

>  <r_sd_BIOSOLVEIT.TPSA>  (121) 
60.840000000000003

>  <i_epik_Tot_Q>  (121) 
1

>  <i_epik_Tot_abs_Q>  (121) 
1

>  <i_f3d_flags>  (121) 
0

>  <i_i_glide_confnum>  (121) 
2

>  <i_i_glide_lignum>  (121) 
1343

>  <i_i_glide_posenum>  (121) 
5

>  <i_i_glide_rotatable_bonds>  (121) 
7

>  <i_lp_mmshare_version>  (121) 
65135

>  <i_m_ct_format>  (121) 
2

>  <i_m_source_file_index>  (121) 
2784

>  <i_qp_#NandO>  (121) 
4

>  <i_qp_#acid>  (121) 
0

>  <i_qp_#amide>  (121) 
0

>  <i_qp_#amidine>  (121) 
0

>  <i_qp_#amine>  (121) 
1

>  <i_qp_#in34>  (121) 
0

>  <i_qp_#in56>  (121) 
22

>  <i_qp_#metab>  (121) 
6

>  <i_qp_#nonHatm>  (121) 
32

>  <i_qp_#noncon>  (121) 
0

>  <i_qp_#ringatoms>  (121) 
22

>  <i_qp_#rotor>  (121) 
8

>  <i_qp_#rtvFG>  (121) 
0

>  <i_qp_#stars>  (121) 
0

>  <i_qp_CNS>  (121) 
1

>  <i_qp_HumanOralAbsorption>  (121) 
3

>  <i_qp_RuleOfFive>  (121) 
0

>  <i_qp_RuleOfThree>  (121) 
0

>  <i_sd_BIOSOLVEIT.INFINISEE\_RESULT\_RANK>  (121) 
62095

>  <i_sd_version>  (121) 
0

>  <b_lp_Chiralities_Consistent>  (121) 
1

>  <b_sd_chiral_flag>  (121) 
0

>  <canonical_id>  (121) 
ATP-HTVS-1449F4F4BA71

>  <compound_code>  (121) 
89058

>  <title>  (121) 
rxn102c____EMOL36904858____EMOL195078550

>  <variant>  (121) 
89058-1

>  <source_file>  (121) 
运行/运行/ATP-VSW/ATP-VSW-DOCK_HTVS_1-002_lib.maegz

>  <canonical_smiles>  (121) 
Cc1ccc(C(=O)c2cnc3ccc(F)cc3c2N(CC[NH3+])Cc2ccc(F)cc2)cc1

>  <scaffold>  (121) 
O=C(c1ccccc1)c1cnc2ccccc2c1NCc1ccccc1

>  <molecular_formula>  (121) 
C26H24F2N3O+

$$$$
ATP-HTVS-14724C615932
     RDKit          3D

 64 66  0  0  0  0  0  0  0  0999 V2000
  197.6963  183.5842  153.1920 O   0  0  0  0  0  0  0  0  0  0  0  0
  197.4828  182.2177  153.1344 C   0  0  0  0  0  0  0  0  0  0  0  0
  196.8462  181.7074  152.0565 N   0  0  0  0  0  0  0  0  0  0  0  0
  196.7382  180.3767  151.9396 C   0  0  0  0  0  0  0  0  0  0  0  0
  197.1958  179.4792  152.9172 C   0  0  0  0  0  0  0  0  0  0  0  0
  197.8207  179.9932  154.0698 C   0  0  0  0  0  0  0  0  0  0  0  0
  197.9808  181.3946  154.1708 C   0  0  0  0  0  0  0  0  0  0  0  0
  198.6862  182.0264  155.3508 C   0  0  1  0  0  0  0  0  0  0  0  0
  197.7604  182.1847  156.4918 N   0  0  1  0  0  0  0  0  0  0  0  0
  198.2684  182.9868  157.6373 C   0  0  2  0  0  0  0  0  0  0  0  0
  199.8084  182.8594  157.8173 C   0  0  1  0  0  0  0  0  0  0  0  0
  200.3634  183.6290  158.9271 N   0  0  0  0  0  0  0  0  0  0  0  0
  201.7825  183.3099  159.0142 C   0  0  2  0  0  0  0  0  0  0  0  0
  200.2226  185.0626  158.7048 C   0  0  2  0  0  0  0  0  0  0  0  0
  197.5083  182.5796  158.9155 C   0  0  1  0  0  0  0  0  0  0  0  0
  196.1240  183.1627  159.0267 C   0  0  0  0  0  0  0  0  0  0  0  0
  195.9309  184.3516  159.7540 C   0  0  0  0  0  0  0  0  0  0  0  0
  194.6341  184.8794  159.8812 C   0  0  0  0  0  0  0  0  0  0  0  0
  193.5480  184.2177  159.2791 C   0  0  0  0  0  0  0  0  0  0  0  0
  193.7463  183.0354  158.5415 C   0  0  0  0  0  0  0  0  0  0  0  0
  195.0382  182.4917  158.4329 C   0  0  0  0  0  0  0  0  0  0  0  0
  198.2959  179.0543  155.1678 C   0  0  2  0  0  0  0  0  0  0  0  0
  196.0841  179.8926  150.6753 C   0  0  2  0  0  0  0  0  0  0  0  0
  197.0825  184.4240  152.2174 C   0  0  1  0  0  0  0  0  0  0  0  0
  197.5899  184.2221  150.7890 C   0  0  0  0  0  0  0  0  0  0  0  0
  196.7626  184.5675  149.6955 C   0  0  0  0  0  0  0  0  0  0  0  0
  197.1813  184.3089  148.3732 C   0  0  0  0  0  0  0  0  0  0  0  0
  198.4257  183.7007  148.1346 C   0  0  0  0  0  0  0  0  0  0  0  0
  199.2593  183.3618  149.2197 C   0  0  0  0  0  0  0  0  0  0  0  0
  198.8504  183.6364  150.5396 C   0  0  0  0  0  0  0  0  0  0  0  0
  196.9001  182.6086  156.1664 H   0  0  0  0  0  0  0  0  0  0  0  0
  197.0539  178.4229  152.7774 H   0  0  0  0  0  0  0  0  0  0  0  0
  199.5373  181.4048  155.6307 H   0  0  0  0  0  0  0  0  0  0  0  0
  199.1019  182.9908  155.0588 H   0  0  0  0  0  0  0  0  0  0  0  0
  198.0463  184.0275  157.3928 H   0  0  0  0  0  0  0  0  0  0  0  0
  200.0732  181.8088  157.9564 H   0  0  0  0  0  0  0  0  0  0  0  0
  200.3346  183.2028  156.9237 H   0  0  0  0  0  0  0  0  0  0  0  0
  202.2520  183.8449  159.8388 H   0  0  0  0  0  0  0  0  0  0  0  0
  202.3104  183.5724  158.0960 H   0  0  0  0  0  0  0  0  0  0  0  0
  201.9296  182.2446  159.1848 H   0  0  0  0  0  0  0  0  0  0  0  0
  200.7130  185.6244  159.4994 H   0  0  0  0  0  0  0  0  0  0  0  0
  199.1762  185.3641  158.7051 H   0  0  0  0  0  0  0  0  0  0  0  0
  200.6611  185.3707  157.7541 H   0  0  0  0  0  0  0  0  0  0  0  0
  197.3640  181.4991  158.9410 H   0  0  0  0  0  0  0  0  0  0  0  0
  198.0515  182.8607  159.8188 H   0  0  0  0  0  0  0  0  0  0  0  0
  196.7659  184.8580  160.2151 H   0  0  0  0  0  0  0  0  0  0  0  0
  194.4740  185.8039  160.4174 H   0  0  0  0  0  0  0  0  0  0  0  0
  192.5555  184.6369  159.3482 H   0  0  0  0  0  0  0  0  0  0  0  0
  192.9158  182.5404  158.0610 H   0  0  0  0  0  0  0  0  0  0  0  0
  195.1755  181.5643  157.8902 H   0  0  0  0  0  0  0  0  0  0  0  0
  199.3862  179.0687  155.2596 H   0  0  0  0  0  0  0  0  0  0  0  0
  197.9913  178.0308  154.9641 H   0  0  0  0  0  0  0  0  0  0  0  0
  197.8578  179.3359  156.1302 H   0  0  0  0  0  0  0  0  0  0  0  0
  195.9355  178.8176  150.7040 H   0  0  0  0  0  0  0  0  0  0  0  0
  196.6784  180.1450  149.7977 H   0  0  0  0  0  0  0  0  0  0  0  0
  195.1248  180.3806  150.5781 H   0  0  0  0  0  0  0  0  0  0  0  0
  196.0033  184.2640  152.2523 H   0  0  0  0  0  0  0  0  0  0  0  0
  197.2673  185.4607  152.5082 H   0  0  0  0  0  0  0  0  0  0  0  0
  195.7881  185.0024  149.8683 H   0  0  0  0  0  0  0  0  0  0  0  0
  196.5231  184.5457  147.5508 H   0  0  0  0  0  0  0  0  0  0  0  0
  198.7338  183.4658  147.1268 H   0  0  0  0  0  0  0  0  0  0  0  0
  200.1983  182.8557  149.0490 H   0  0  0  0  0  0  0  0  0  0  0  0
  199.4939  183.3513  151.3600 H   0  0  0  0  0  0  0  0  0  0  0  0
  197.5165  181.2597  156.8188 H   0  0  0  0  0  0  0  0  0  0  0  0
  1  2  1  0
  1 24  1  0
  2  3  2  0
  2  7  1  0
  3  4  1  0
  4  5  2  0
  4 23  1  0
  5  6  1  0
  5 32  1  0
  6  7  2  0
  6 22  1  0
  7  8  1  0
  8  9  1  0
  8 33  1  1
  8 34  1  0
  9 10  1  0
  9 31  1  6
  9 64  1  0
 10 11  1  0
 10 15  1  0
 10 35  1  6
 11 12  1  0
 11 36  1  1
 11 37  1  0
 12 13  1  0
 12 14  1  0
 13 38  1  1
 13 39  1  0
 13 40  1  0
 14 41  1  1
 14 42  1  0
 14 43  1  0
 15 16  1  0
 15 44  1  6
 15 45  1  0
 16 17  2  0
 16 21  1  0
 17 18  1  0
 17 46  1  0
 18 19  2  0
 18 47  1  0
 19 20  1  0
 19 48  1  0
 20 21  2  0
 20 49  1  0
 21 50  1  0
 22 51  1  1
 22 52  1  0
 22 53  1  0
 23 54  1  1
 23 55  1  0
 23 56  1  0
 24 25  1  0
 24 57  1  6
 24 58  1  0
 25 26  2  0
 25 30  1  0
 26 27  1  0
 26 59  1  0
 27 28  2  0
 27 60  1  0
 28 29  1  0
 28 61  1  0
 29 30  2  0
 29 62  1  0
 30 63  1  0
M  CHG  1   9   1
M  END
>  <s_epik_cmdline>  (122) 
J2VwaWtfcHl0aG9uJywgJy1waCcsICc3LjAwMDAwMCcsICctcGh0JywgJzIuMDAwMDAwJywgJy1tcycsICcxNicsICctdG4nLCAnOCcsICctbWEnLCAnMjAwJywgJy1pbWFlJywgJzxpbmZpbGUubWFlPicsICctb21hZScsICc8b3V0ZmlsZS5tYWU+Jw==

>  <s_epik_input>  (122) 
W2NIXTFbY0hdW2NIXVtjSF1bY0hdYzFbQ0gyXU9jMm5jKFtDSDNdKVtjSF1jKFtDSDNdKWMyW0NIMl1bTkhdW0NASF0oW0NIMl1OKFtDSDNdKVtDSDNdKVtDSDJdYzNbY0hdW2NIXVtjSF1bY0hdW2NIXTM=

>  <s_i_glide_gridfile>  (122) 
ATP-Grid

>  <s_lp_Force_Field>  (122) 
OPLS_2005

>  <s_lp_Variant>  (122) 
m_2230bbb____22397410____10178420-4

>  <s_lp_label>  (122) 
1666_sdstereoexpander_2_neutralizer_1_epik_2_stereoizer_1

>  <s_m_source_file>  (122) 
ATP-VSW-LIGPREP-001-in.maegz

>  <s_sd_BIOSOLVEIT.INFINISEE\_QUERY\_NAME>  (122) 
Ref-Lig

>  <s_sd_BIOSOLVEIT.INFINISEE\_QUERY\_SMILES>  (122) 
S(c1nc2c(cc1C[NH2+]Cc3ccc(cc3)C[NH+](C)C)cccc2)Cc4ccccc4

>  <s_sd_BIOSOLVEIT.INFINISEE\_REACTION\_NAME>  (122) 
m_2230bbb

>  <s_sd_BIOSOLVEIT.INFINISEE\_REAGENT1\_SMILES>  (122) 
[R1*]NC(CN(C)C)Cc1ccccc1

>  <s_sd_BIOSOLVEIT.INFINISEE\_REAGENT2\_SMILES>  (122) 
[R1*]Cc1c(OCc2ccccc2)nc(cc1C)C

>  <s_sd_BIOSOLVEIT.INFINISEE\_SPACE>  (122) 
REALSpace_44bn_2023-08

>  <s_vsw_compound_code>  (122) 
53281

>  <s_vsw_variant>  (122) 
53281-4

>  <r_epik_Charging_Adjusted_Penalty>  (122) 
0.85689106151985295

>  <r_epik_Ionization_Penalty>  (122) 
0.1124

>  <r_epik_Ionization_Penalty_Charging>  (122) 
0.083799999999999999

>  <r_epik_Ionization_Penalty_Neutral>  (122) 
0.0286

>  <r_epik_State_Penalty>  (122) 
0.77310000000000001

>  <r_i_docking_score>  (122) 
-3.2950761275031599

>  <r_i_glide_ecoul>  (122) 
-5.8737440109252903

>  <r_i_glide_eff_state_penalty>  (122) 
0.77310000000000001

>  <r_i_glide_einternal>  (122) 
10.397901535034199

>  <r_i_glide_emodel>  (122) 
-43.546726763630602

>  <r_i_glide_energy>  (122) 
-36.646916389465297

>  <r_i_glide_erotb>  (122) 
0.96016417231324902

>  <r_i_glide_esite>  (122) 
-0.031888228501596103

>  <r_i_glide_evdw>  (122) 
-30.77317237854

>  <r_i_glide_gscore>  (122) 
-4.0681761275031603

>  <r_i_glide_hbond>  (122) 
0

>  <r_i_glide_ligand_efficiency>  (122) 
-0.10983587091677199

>  <r_i_glide_ligand_efficiency_ln>  (122) 
-0.74867719889871098

>  <r_i_glide_ligand_efficiency_sa>  (122) 
-0.34128558804541997

>  <r_i_glide_lipo>  (122) 
-1.7010568052944799

>  <r_i_glide_metal>  (122) 
-0

>  <r_i_glide_rewards>  (122) 
-0.875675045454544

>  <r_lp_Energy>  (122) 
20.391247

>  <r_qp_ACxDN^.5/SA>  (122) 
0.0069890000000000004

>  <r_qp_CIQPlogS>  (122) 
-4.6059999999999999

>  <r_qp_EA(eV)>  (122) 
-0.081000000000000003

>  <r_qp_FISA>  (122) 
11.872

>  <r_qp_FOSA>  (122) 
333.20800000000003

>  <r_qp_IP(eV)>  (122) 
9.0350000000000001

>  <r_qp_Jm>  (122) 
0.29017844116907598

>  <r_qp_PISA>  (122) 
298.79399999999998

>  <r_qp_PSA>  (122) 
29.010999999999999

>  <r_qp_PercentHumanOralAbsorption>  (122) 
100

>  <r_qp_QPPCaco>  (122) 
475.46699999999998

>  <r_qp_QPPMDCK>  (122) 
271.09100000000001

>  <r_qp_QPlogBB>  (122) 
0.65900000000000003

>  <r_qp_QPlogHERG>  (122) 
-6.0990000000000002

>  <r_qp_QPlogKhsa>  (122) 
0.88700000000000001

>  <r_qp_QPlogKp>  (122) 
-3.851

>  <r_qp_QPlogPC16>  (122) 
12.739000000000001

>  <r_qp_QPlogPo/w>  (122) 
4.8209999999999997

>  <r_qp_QPlogPoct>  (122) 
17.579999999999998

>  <r_qp_QPlogPw>  (122) 
7.0730000000000004

>  <r_qp_QPlogS>  (122) 
-2.2919999999999998

>  <r_qp_QPpolrz>  (122) 
42.381

>  <r_qp_SASA>  (122) 
643.87300000000005

>  <r_qp_SAamideO>  (122) 
0

>  <r_qp_SAfluorine>  (122) 
0

>  <r_qp_WPSA>  (122) 
0

>  <r_qp_accptHB>  (122) 
4.5

>  <r_qp_dip^2/V>  (122) 
0.0035688

>  <r_qp_dipole>  (122) 
2.1560000000000001

>  <r_qp_donorHB>  (122) 
1

>  <r_qp_glob>  (122) 
0.89554219999999995

>  <r_qp_mol_MW>  (122) 
403.56599999999997

>  <r_qp_volume>  (122) 
1301.914

>  <r_sd_BIOSOLVEIT.INFINISEE\_FTREES\_SIMILARITY>  (122) 
0.90500000000000003

>  <r_sd_BIOSOLVEIT.LOGP>  (122) 
2.0966399999999998

>  <r_sd_BIOSOLVEIT.MOLECULAR\_WEIGHT>  (122) 
405.58300000000003

>  <r_sd_BIOSOLVEIT.TPSA>  (122) 
43.170000000000002

>  <i_epik_Tot_Q>  (122) 
1

>  <i_epik_Tot_abs_Q>  (122) 
1

>  <i_f3d_flags>  (122) 
0

>  <i_i_glide_confnum>  (122) 
8

>  <i_i_glide_lignum>  (122) 
458

>  <i_i_glide_posenum>  (122) 
20

>  <i_i_glide_rotatable_bonds>  (122) 
10

>  <i_lp_mmshare_version>  (122) 
65135

>  <i_m_ct_format>  (122) 
2

>  <i_m_source_file_index>  (122) 
1666

>  <i_qp_#NandO>  (122) 
4

>  <i_qp_#acid>  (122) 
0

>  <i_qp_#amide>  (122) 
0

>  <i_qp_#amidine>  (122) 
0

>  <i_qp_#amine>  (122) 
2

>  <i_qp_#in34>  (122) 
0

>  <i_qp_#in56>  (122) 
18

>  <i_qp_#metab>  (122) 
8

>  <i_qp_#nonHatm>  (122) 
30

>  <i_qp_#noncon>  (122) 
0

>  <i_qp_#ringatoms>  (122) 
18

>  <i_qp_#rotor>  (122) 
10

>  <i_qp_#rtvFG>  (122) 
0

>  <i_qp_#stars>  (122) 
0

>  <i_qp_CNS>  (122) 
2

>  <i_qp_HumanOralAbsorption>  (122) 
3

>  <i_qp_RuleOfFive>  (122) 
0

>  <i_qp_RuleOfThree>  (122) 
1

>  <i_sd_BIOSOLVEIT.INFINISEE\_REAGENT1\_NAME>  (122) 
22397410

>  <i_sd_BIOSOLVEIT.INFINISEE\_REAGENT2\_NAME>  (122) 
10178420

>  <i_sd_BIOSOLVEIT.INFINISEE\_RESULT\_RANK>  (122) 
69741

>  <i_sd_version>  (122) 
0

>  <b_lp_Chiralities_Consistent>  (122) 
1

>  <b_sd_chiral_flag>  (122) 
0

>  <canonical_id>  (122) 
ATP-HTVS-14724C615932

>  <compound_code>  (122) 
53281

>  <title>  (122) 
m_2230bbb____22397410____10178420

>  <variant>  (122) 
53281-4

>  <source_file>  (122) 
运行/运行/ATP-VSW/ATP-VSW-DOCK_HTVS_1-001_lib/ATP-VSW-DOCK_HTVS_1-001_lib

>  <canonical_smiles>  (122) 
Cc1cc(C)c(C[NH2+][C@@H](Cc2ccccc2)CN(C)C)c(OCc2ccccc2)n1

>  <scaffold>  (122) 
c1ccc(CC[NH2+]Cc2cccnc2OCc2ccccc2)cc1

>  <molecular_formula>  (122) 
C26H34N3O+

$$$$
ATP-HTVS-14AE04B6952B
     RDKit          3D

 65 68  0  0  0  0  0  0  0  0999 V2000
  196.8557  183.5163  158.4487 O   0  0  0  0  0  0  0  0  0  0  0  0
  196.4707  182.4111  158.0722 C   0  0  0  0  0  0  0  0  0  0  0  0
  196.1748  181.4411  158.9223 N   0  0  0  0  0  0  0  0  0  0  0  0
  196.3241  182.1093  156.5736 C   0  0  1  0  0  0  0  0  0  0  0  0
  197.5607  181.4424  155.9331 C   0  0  2  0  0  0  0  0  0  0  0  0
  198.7741  182.2408  156.1194 N   0  0  0  0  0  0  0  0  0  0  0  0
  199.9653  181.6839  156.6107 C   0  0  0  0  0  0  0  0  0  0  0  0
  200.1101  180.3455  156.5726 N   0  0  0  0  0  0  0  0  0  0  0  0
  201.2303  179.7796  157.0276 C   0  0  0  0  0  0  0  0  0  0  0  0
  202.2507  180.4905  157.5209 N   0  0  0  0  0  0  0  0  0  0  0  0
  202.1587  181.8387  157.5892 C   0  0  0  0  0  0  0  0  0  0  0  0
  200.9929  182.4961  157.1327 C   0  0  0  0  0  0  0  0  0  0  0  0
  200.9057  183.9070  157.2203 C   0  0  0  0  0  0  0  0  0  0  0  0
  201.9824  184.6440  157.7487 C   0  0  0  0  0  0  0  0  0  0  0  0
  203.1451  183.9847  158.1920 C   0  0  0  0  0  0  0  0  0  0  0  0
  203.2346  182.5801  158.1120 C   0  0  0  0  0  0  0  0  0  0  0  0
  201.3673  178.4062  156.9684 N   0  0  0  0  0  0  0  0  0  0  0  0
  200.3568  177.5041  156.4310 C   0  0  1  0  0  0  0  0  0  0  0  0
  200.9575  176.3474  155.6546 C   0  0  0  0  0  0  0  0  0  0  0  0
  201.7922  175.4077  156.2869 C   0  0  0  0  0  0  0  0  0  0  0  0
  202.3236  174.3216  155.5640 C   0  0  0  0  0  0  0  0  0  0  0  0
  202.0311  174.1546  154.1929 C   0  0  0  0  0  0  0  0  0  0  0  0
  202.5970  173.0516  153.5239 N   0  0  0  0  0  0  0  0  0  0  0  0
  202.3061  172.7242  152.1325 C   0  0  2  0  0  0  0  0  0  0  0  0
  201.1547  171.7162  152.0434 C   0  0  2  0  0  0  0  0  0  0  0  0
  203.5691  172.2017  151.4448 C   0  0  2  0  0  0  0  0  0  0  0  0
  201.1935  175.1113  153.5617 C   0  0  0  0  0  0  0  0  0  0  0  0
  200.6703  176.2016  154.2852 C   0  0  0  0  0  0  0  0  0  0  0  0
  197.3247  181.1634  154.4552 C   0  0  0  0  0  0  0  0  0  0  0  0
  197.1619  182.2305  153.5436 C   0  0  0  0  0  0  0  0  0  0  0  0
  196.9515  181.9730  152.1760 C   0  0  0  0  0  0  0  0  0  0  0  0
  196.9068  180.6462  151.7079 C   0  0  0  0  0  0  0  0  0  0  0  0
  197.0710  179.5790  152.6113 C   0  0  0  0  0  0  0  0  0  0  0  0
  197.2798  179.8373  153.9813 C   0  0  0  0  0  0  0  0  0  0  0  0
  196.3755  181.5387  159.9100 H   0  0  0  0  0  0  0  0  0  0  0  0
  195.9390  180.5058  158.5400 H   0  0  0  0  0  0  0  0  0  0  0  0
  195.4643  181.4548  156.4517 H   0  0  0  0  0  0  0  0  0  0  0  0
  196.0854  183.0381  156.0593 H   0  0  0  0  0  0  0  0  0  0  0  0
  197.6481  180.4788  156.4395 H   0  0  0  0  0  0  0  0  0  0  0  0
  198.6604  183.2404  156.1287 H   0  0  0  0  0  0  0  0  0  0  0  0
  200.0237  184.4362  156.8932 H   0  0  0  0  0  0  0  0  0  0  0  0
  201.9168  185.7231  157.8156 H   0  0  0  0  0  0  0  0  0  0  0  0
  203.9680  184.5551  158.5963 H   0  0  0  0  0  0  0  0  0  0  0  0
  204.1305  182.0818  158.4548 H   0  0  0  0  0  0  0  0  0  0  0  0
  202.2380  178.0094  157.2917 H   0  0  0  0  0  0  0  0  0  0  0  0
  199.7591  177.1173  157.2569 H   0  0  0  0  0  0  0  0  0  0  0  0
  199.6583  178.0265  155.7733 H   0  0  0  0  0  0  0  0  0  0  0  0
  202.0193  175.5043  157.3353 H   0  0  0  0  0  0  0  0  0  0  0  0
  202.9546  173.6087  156.0742 H   0  0  0  0  0  0  0  0  0  0  0  0
  203.0977  172.3401  154.0483 H   0  0  0  0  0  0  0  0  0  0  0  0
  202.0267  173.6148  151.5714 H   0  0  0  0  0  0  0  0  0  0  0  0
  200.9262  171.4900  151.0031 H   0  0  0  0  0  0  0  0  0  0  0  0
  200.2488  172.1067  152.5107 H   0  0  0  0  0  0  0  0  0  0  0  0
  201.4094  170.7785  152.5394 H   0  0  0  0  0  0  0  0  0  0  0  0
  203.3714  171.9942  150.3937 H   0  0  0  0  0  0  0  0  0  0  0  0
  203.9317  171.2856  151.9123 H   0  0  0  0  0  0  0  0  0  0  0  0
  204.3675  172.9442  151.4896 H   0  0  0  0  0  0  0  0  0  0  0  0
  200.9200  175.0438  152.5220 H   0  0  0  0  0  0  0  0  0  0  0  0
  200.0293  176.9106  153.7791 H   0  0  0  0  0  0  0  0  0  0  0  0
  197.1913  183.2509  153.8942 H   0  0  0  0  0  0  0  0  0  0  0  0
  196.8279  182.7954  151.4877 H   0  0  0  0  0  0  0  0  0  0  0  0
  196.7533  180.4458  150.6575 H   0  0  0  0  0  0  0  0  0  0  0  0
  197.0410  178.5614  152.2533 H   0  0  0  0  0  0  0  0  0  0  0  0
  197.4044  179.0184  154.6744 H   0  0  0  0  0  0  0  0  0  0  0  0
  203.1058  180.0301  157.8314 H   0  0  0  0  0  0  0  0  0  0  0  0
  1  2  2  0
  2  3  1  0
  2  4  1  0
  3 35  1  0
  3 36  1  0
  4  5  1  0
  4 37  1  1
  4 38  1  0
  5  6  1  0
  5 29  1  0
  5 39  1  1
  6  7  1  0
  6 40  1  0
  7  8  2  0
  7 12  1  0
  8  9  1  0
  9 10  2  0
  9 17  1  0
 10 11  1  0
 10 65  1  0
 11 12  1  0
 11 16  2  0
 12 13  2  0
 13 14  1  0
 13 41  1  0
 14 15  2  0
 14 42  1  0
 15 16  1  0
 15 43  1  0
 16 44  1  0
 17 18  1  0
 17 45  1  0
 18 19  1  0
 18 46  1  1
 18 47  1  0
 19 20  1  0
 19 28  2  0
 20 21  2  0
 20 48  1  0
 21 22  1  0
 21 49  1  0
 22 23  1  0
 22 27  2  0
 23 24  1  0
 23 50  1  0
 24 25  1  0
 24 26  1  0
 24 51  1  6
 25 52  1  6
 25 53  1  0
 25 54  1  0
 26 55  1  6
 26 56  1  0
 26 57  1  0
 27 28  1  0
 27 58  1  0
 28 59  1  0
 29 30  2  0
 29 34  1  0
 30 31  1  0
 30 60  1  0
 31 32  2  0
 31 61  1  0
 32 33  1  0
 32 62  1  0
 33 34  2  0
 33 63  1  0
 34 64  1  0
M  CHG  1  10   1
M  END
>  <s_epik_cmdline>  (123) 
J2VwaWtfcHl0aG9uJywgJy1waCcsICc3LjAwMDAwMCcsICctcGh0JywgJzIuMDAwMDAwJywgJy1tcycsICcxNicsICctdG4nLCAnOCcsICctbWEnLCAnMjAwJywgJy1pbWFlJywgJzxpbmZpbGUubWFlPicsICctb21hZScsICc8b3V0ZmlsZS5tYWU+Jw==

>  <s_epik_input>  (123) 
W2NIXTFbY0hdW2NIXVtjSF1bY0hdYzFbQ0BIXShbQ0gyXUMoPU8pW05IMl0pW05IXWMoYyhjMjMpW2NIXVtjSF1bY0hdW2NIXTMpbmMobjIpW05IXVtDSDJdYzRbY0hdW2NIXWMoW2NIXVtjSF00KVtOSF1bQ0hdKFtDSDNdKVtDSDNd

>  <s_i_glide_gridfile>  (123) 
ATP-Grid

>  <s_lp_Force_Field>  (123) 
OPLS_2005

>  <s_lp_Variant>  (123) 
m_282030aaa____21930060____22360182____21979096-2

>  <s_lp_label>  (123) 
1255_sdstereoexpander_2_neutralizer_1_epik_1_stereoizer_1

>  <s_m_source_file>  (123) 
ATP-VSW-LIGPREP-001-in.maegz

>  <s_sd_BIOSOLVEIT.INFINISEE\_QUERY\_NAME>  (123) 
Ref-Lig

>  <s_sd_BIOSOLVEIT.INFINISEE\_QUERY\_SMILES>  (123) 
S(c1nc2c(cc1C[NH2+]Cc3ccc(cc3)C[NH+](C)C)cccc2)Cc4ccccc4

>  <s_sd_BIOSOLVEIT.INFINISEE\_REACTION\_NAME>  (123) 
m_282030aaa

>  <s_sd_BIOSOLVEIT.INFINISEE\_REAGENT1\_SMILES>  (123) 
[R1*]NC(c1ccccc1)CC(=O)N

>  <s_sd_BIOSOLVEIT.INFINISEE\_REAGENT2\_SMILES>  (123) 
[R2*]c1nc([R1*])c2c(n1)cccc2

>  <s_sd_BIOSOLVEIT.INFINISEE\_REAGENT3\_SMILES>  (123) 
[R2*]NCc1ccc(NC(C)C)cc1

>  <s_sd_BIOSOLVEIT.INFINISEE\_SPACE>  (123) 
REALSpace_44bn_2023-08

>  <s_vsw_compound_code>  (123) 
40129

>  <s_vsw_variant>  (123) 
40129-2

>  <r_epik_Charging_Adjusted_Penalty>  (123) 
0.201555027124042

>  <r_epik_Ionization_Penalty>  (123) 
0.1651

>  <r_epik_Ionization_Penalty_Charging>  (123) 
0.028000000000000001

>  <r_epik_Ionization_Penalty_Neutral>  (123) 
0.1371

>  <r_epik_State_Penalty>  (123) 
0.1736

>  <r_i_docking_score>  (123) 
-4.4737016916116898

>  <r_i_glide_ecoul>  (123) 
-10.8326015472412

>  <r_i_glide_eff_state_penalty>  (123) 
0.1736

>  <r_i_glide_einternal>  (123) 
4.9552640914917001

>  <r_i_glide_emodel>  (123) 
-58.117528402246101

>  <r_i_glide_energy>  (123) 
-42.501834869384801

>  <r_i_glide_erotb>  (123) 
0.77437998091972504

>  <r_i_glide_esite>  (123) 
-0.247169804578591

>  <r_i_glide_evdw>  (123) 
-31.669233322143601

>  <r_i_glide_gscore>  (123) 
-4.6473016916116903

>  <r_i_glide_hbond>  (123) 
-0.49730856013882302

>  <r_i_glide_ligand_efficiency>  (123) 
-0.13157946151799099

>  <r_i_glide_ligand_efficiency_ln>  (123) 
-0.98836618675907595

>  <r_i_glide_ligand_efficiency_sa>  (123) 
-0.42626637583836302

>  <r_i_glide_lipo>  (123) 
-1.1213705042569799

>  <r_i_glide_metal>  (123) 
-0

>  <r_i_glide_rewards>  (123) 
-0.347480905363662

>  <r_lp_Energy>  (123) 
25.232963000000002

>  <r_qp_ACxDN^.5/SA>  (123) 
0.0132113

>  <r_qp_CIQPlogS>  (123) 
-6.6230000000000002

>  <r_qp_EA(eV)>  (123) 
0.46400000000000002

>  <r_qp_FISA>  (123) 
130.602

>  <r_qp_FOSA>  (123) 
207.113

>  <r_qp_IP(eV)>  (123) 
7.7910000000000004

>  <r_qp_Jm>  (123) 
0.0090404696588984399

>  <r_qp_PISA>  (123) 
494.90600000000001

>  <r_qp_PSA>  (123) 
104.227

>  <r_qp_PercentHumanOralAbsorption>  (123) 
100

>  <r_qp_QPPCaco>  (123) 
383.21100000000001

>  <r_qp_QPPMDCK>  (123) 
270.47699999999998

>  <r_qp_QPlogBB>  (123) 
-1.5409999999999999

>  <r_qp_QPlogHERG>  (123) 
-6.3769999999999998

>  <r_qp_QPlogKhsa>  (123) 
0.59199999999999997

>  <r_qp_QPlogKp>  (123) 
-1.2230000000000001

>  <r_qp_QPlogPC16>  (123) 
17.745000000000001

>  <r_qp_QPlogPo/w>  (123) 
4.8470000000000004

>  <r_qp_QPlogPoct>  (123) 
26.495999999999999

>  <r_qp_QPlogPw>  (123) 
16.664999999999999

>  <r_qp_QPlogS>  (123) 
-6.4779999999999998

>  <r_qp_QPpolrz>  (123) 
52.229999999999997

>  <r_qp_SASA>  (123) 
832.62099999999998

>  <r_qp_SAamideO>  (123) 
21.855

>  <r_qp_SAfluorine>  (123) 
0

>  <r_qp_WPSA>  (123) 
0

>  <r_qp_accptHB>  (123) 
5.5

>  <r_qp_dip^2/V>  (123) 
0.015705199999999999

>  <r_qp_dipole>  (123) 
4.8559999999999999

>  <r_qp_donorHB>  (123) 
4

>  <r_qp_glob>  (123) 
0.76151329999999995

>  <r_qp_mol_MW>  (123) 
454.57400000000001

>  <r_qp_volume>  (123) 
1501.2049999999999

>  <r_sd_BIOSOLVEIT.INFINISEE\_FTREES\_SIMILARITY>  (123) 
0.91100000000000003

>  <r_sd_BIOSOLVEIT.LOGP>  (123) 
5.0907999999999998

>  <r_sd_BIOSOLVEIT.MOLECULAR\_WEIGHT>  (123) 
454.57499999999999

>  <r_sd_BIOSOLVEIT.TPSA>  (123) 
104.95999999999999

>  <i_epik_Tot_Q>  (123) 
1

>  <i_epik_Tot_abs_Q>  (123) 
1

>  <i_f3d_flags>  (123) 
0

>  <i_i_glide_confnum>  (123) 
9

>  <i_i_glide_lignum>  (123) 
340

>  <i_i_glide_posenum>  (123) 
20

>  <i_i_glide_rotatable_bonds>  (123) 
10

>  <i_lp_mmshare_version>  (123) 
65135

>  <i_m_ct_format>  (123) 
2

>  <i_m_source_file_index>  (123) 
1255

>  <i_qp_#NandO>  (123) 
7

>  <i_qp_#acid>  (123) 
0

>  <i_qp_#amide>  (123) 
1

>  <i_qp_#amidine>  (123) 
0

>  <i_qp_#amine>  (123) 
0

>  <i_qp_#in34>  (123) 
0

>  <i_qp_#in56>  (123) 
22

>  <i_qp_#metab>  (123) 
8

>  <i_qp_#nonHatm>  (123) 
34

>  <i_qp_#noncon>  (123) 
0

>  <i_qp_#ringatoms>  (123) 
22

>  <i_qp_#rotor>  (123) 
10

>  <i_qp_#rtvFG>  (123) 
0

>  <i_qp_#stars>  (123) 
2

>  <i_qp_CNS>  (123) 
-2

>  <i_qp_HumanOralAbsorption>  (123) 
1

>  <i_qp_RuleOfFive>  (123) 
0

>  <i_qp_RuleOfThree>  (123) 
2

>  <i_sd_BIOSOLVEIT.INFINISEE\_REAGENT1\_NAME>  (123) 
21930060

>  <i_sd_BIOSOLVEIT.INFINISEE\_REAGENT2\_NAME>  (123) 
22360182

>  <i_sd_BIOSOLVEIT.INFINISEE\_REAGENT3\_NAME>  (123) 
21979096

>  <i_sd_BIOSOLVEIT.INFINISEE\_RESULT\_RANK>  (123) 
43737

>  <i_sd_version>  (123) 
0

>  <b_lp_Chiralities_Consistent>  (123) 
1

>  <b_sd_chiral_flag>  (123) 
0

>  <canonical_id>  (123) 
ATP-HTVS-14AE04B6952B

>  <compound_code>  (123) 
40129

>  <title>  (123) 
m_282030aaa____21930060____22360182____21979096

>  <variant>  (123) 
40129-2

>  <source_file>  (123) 
运行/运行/ATP-VSW/ATP-VSW-DOCK_HTVS_1-001_lib/ATP-VSW-DOCK_HTVS_1-001_lib

>  <canonical_smiles>  (123) 
CC(C)Nc1ccc(CNc2nc(N[C@@H](CC(N)=O)c3ccccc3)c3ccccc3[nH+]2)cc1

>  <scaffold>  (123) 
c1ccc(CNc2nc(NCc3ccccc3)c3ccccc3[nH+]2)cc1

>  <molecular_formula>  (123) 
C27H31N6O+

$$$$
ATP-HTVS-14BA2D75CE49
     RDKit          3D

 59 62  0  0  0  0  0  0  0  0999 V2000
  199.3505  187.1061  158.2914 F   0  0  0  0  0  0  0  0  0  0  0  0
  198.6470  185.9583  158.1509 C   0  0  0  0  0  0  0  0  0  0  0  0
  197.9734  185.6957  156.9445 C   0  0  0  0  0  0  0  0  0  0  0  0
  197.2406  184.5032  156.7939 C   0  0  0  0  0  0  0  0  0  0  0  0
  197.1698  183.5665  157.8539 C   0  0  0  0  0  0  0  0  0  0  0  0
  197.8528  183.8390  159.0622 C   0  0  0  0  0  0  0  0  0  0  0  0
  198.5914  185.0301  159.2070 C   0  0  0  0  0  0  0  0  0  0  0  0
  196.3221  182.2974  157.7124 C   0  0  1  0  0  0  0  0  0  0  0  0
  194.8511  182.5837  157.7935 N   0  0  2  0  0  0  0  0  0  0  0  0
  194.4796  183.7145  158.6881 C   0  0  2  0  0  0  0  0  0  0  0  0
  194.0370  181.3938  158.1236 C   0  0  2  0  0  0  0  0  0  0  0  0
  196.6882  181.5289  156.4209 C   0  0  1  0  0  0  0  0  0  0  0  0
  198.0938  181.1373  156.3969 N   0  0  0  0  0  0  0  0  0  0  0  0
  198.5126  180.2301  155.4113 C   0  0  0  0  0  0  0  0  0  0  0  0
  199.5240  179.2662  155.6793 C   0  0  0  0  0  0  0  0  0  0  0  0
  199.9076  178.3701  154.6533 C   0  0  0  0  0  0  0  0  0  0  0  0
  199.3292  178.4568  153.4463 N   0  0  0  0  0  0  0  0  0  0  0  0
  198.3565  179.3396  153.1418 C   0  0  0  0  0  0  0  0  0  0  0  0
  197.9356  180.2629  154.1188 C   0  0  0  0  0  0  0  0  0  0  0  0
  197.8059  179.3524  151.7371 C   0  0  1  0  0  0  0  0  0  0  0  0
  197.9949  178.0972  151.0949 O   0  0  0  0  0  0  0  0  0  0  0  0
  198.0647  178.0373  149.7195 C   0  0  0  0  0  0  0  0  0  0  0  0
  198.3475  176.7752  149.1535 C   0  0  0  0  0  0  0  0  0  0  0  0
  198.4922  176.6245  147.7591 C   0  0  0  0  0  0  0  0  0  0  0  0
  198.3536  177.7400  146.9129 C   0  0  0  0  0  0  0  0  0  0  0  0
  198.0591  179.0003  147.4651 C   0  0  0  0  0  0  0  0  0  0  0  0
  197.8981  179.1501  148.8569 C   0  0  0  0  0  0  0  0  0  0  0  0
  200.8854  177.3791  154.8578 C   0  0  0  0  0  0  0  0  0  0  0  0
  201.2209  176.5241  153.8411 O   0  0  0  0  0  0  0  0  0  0  0  0
  201.5032  177.2737  156.1188 C   0  0  0  0  0  0  0  0  0  0  0  0
  201.1440  178.1607  157.1511 C   0  0  0  0  0  0  0  0  0  0  0  0
  200.1635  179.1499  156.9335 C   0  0  0  0  0  0  0  0  0  0  0  0
  198.0031  186.4149  156.1376 H   0  0  0  0  0  0  0  0  0  0  0  0
  196.7204  184.3279  155.8657 H   0  0  0  0  0  0  0  0  0  0  0  0
  197.7986  183.1429  159.8883 H   0  0  0  0  0  0  0  0  0  0  0  0
  199.1019  185.2475  160.1297 H   0  0  0  0  0  0  0  0  0  0  0  0
  196.5727  181.6555  158.5558 H   0  0  0  0  0  0  0  0  0  0  0  0
  194.8175  183.5264  159.7075 H   0  0  0  0  0  0  0  0  0  0  0  0
  193.3979  183.8506  158.7165 H   0  0  0  0  0  0  0  0  0  0  0  0
  194.8901  184.6707  158.3617 H   0  0  0  0  0  0  0  0  0  0  0  0
  194.3451  180.9463  159.0698 H   0  0  0  0  0  0  0  0  0  0  0  0
  194.1028  180.6421  157.3407 H   0  0  0  0  0  0  0  0  0  0  0  0
  192.9801  181.6677  158.1906 H   0  0  0  0  0  0  0  0  0  0  0  0
  196.0819  180.6359  156.3115 H   0  0  0  0  0  0  0  0  0  0  0  0
  196.4673  182.1544  155.5591 H   0  0  0  0  0  0  0  0  0  0  0  0
  198.5040  180.9771  157.3056 H   0  0  0  0  0  0  0  0  0  0  0  0
  197.1884  180.9933  153.8543 H   0  0  0  0  0  0  0  0  0  0  0  0
  196.7391  179.5856  151.7569 H   0  0  0  0  0  0  0  0  0  0  0  0
  198.3330  180.1716  151.2524 H   0  0  0  0  0  0  0  0  0  0  0  0
  198.4609  175.9092  149.7917 H   0  0  0  0  0  0  0  0  0  0  0  0
  198.7077  175.6522  147.3356 H   0  0  0  0  0  0  0  0  0  0  0  0
  198.4667  177.6316  145.8414 H   0  0  0  0  0  0  0  0  0  0  0  0
  197.9604  179.8566  146.8155 H   0  0  0  0  0  0  0  0  0  0  0  0
  197.6633  180.1366  149.2241 H   0  0  0  0  0  0  0  0  0  0  0  0
  202.2574  176.5209  156.2960 H   0  0  0  0  0  0  0  0  0  0  0  0
  201.6287  178.0845  158.1118 H   0  0  0  0  0  0  0  0  0  0  0  0
  199.9084  179.8124  157.7388 H   0  0  0  0  0  0  0  0  0  0  0  0
  199.6701  177.7781  152.7613 H   0  0  0  0  0  0  0  0  0  0  0  0
  194.5236  182.8174  156.8510 H   0  0  0  0  0  0  0  0  0  0  0  0
  1  2  1  0
  2  3  1  0
  2  7  2  0
  3  4  2  0
  3 33  1  0
  4  5  1  0
  4 34  1  0
  5  6  2  0
  5  8  1  0
  6  7  1  0
  6 35  1  0
  7 36  1  0
  8  9  1  0
  8 12  1  0
  8 37  1  1
  9 10  1  0
  9 11  1  0
  9 59  1  6
 10 38  1  1
 10 39  1  0
 10 40  1  0
 11 41  1  1
 11 42  1  0
 11 43  1  0
 12 13  1  0
 12 44  1  6
 12 45  1  0
 13 14  1  0
 13 46  1  0
 14 15  1  0
 14 19  2  0
 15 16  1  0
 15 32  2  0
 16 17  1  0
 16 28  2  0
 17 18  2  0
 17 58  1  0
 18 19  1  0
 18 20  1  0
 19 47  1  0
 20 21  1  0
 20 48  1  1
 20 49  1  0
 21 22  1  0
 22 23  2  0
 22 27  1  0
 23 24  1  0
 23 50  1  0
 24 25  2  0
 24 51  1  0
 25 26  1  0
 25 52  1  0
 26 27  2  0
 26 53  1  0
 27 54  1  0
 28 29  1  0
 28 30  1  0
 30 31  2  0
 30 55  1  0
 31 32  1  0
 31 56  1  0
 32 57  1  0
M  CHG  3   9   1  17   1  29  -1
M  END
>  <s_epik_cmdline>  (124) 
J2VwaWtfcHl0aG9uJywgJy1waCcsICc3LjAwMDAwMCcsICctcGh0JywgJzIuMDAwMDAwJywgJy1tcycsICcxNicsICctdG4nLCAnOCcsICctbWEnLCAnMjAwJywgJy1pbWFlJywgJzxpbmZpbGUubWFlPicsICctb21hZScsICc8b3V0ZmlsZS5tYWU+Jw==

>  <s_epik_input>  (124) 
RmMxW2NIXVtjSF1jKFtjSF1bY0hdMSlbQ0BASF0oTihbQ0gzXSlbQ0gzXSlbQ0gyXVtOSF1jMltjSF1jKG5jKGMyMyljKFtPSF0pW2NIXVtjSF1bY0hdMylbQ0gyXU9jNFtjSF1bY0hdW2NIXVtjSF1bY0hdNA==

>  <s_i_glide_gridfile>  (124) 
ATP-Grid

>  <s_lp_Force_Field>  (124) 
OPLS_2005

>  <s_lp_Variant>  (124) 
YAS_R004____OTV998841____OTV7113231893____OTV7020431351-5

>  <s_lp_label>  (124) 
15_sdstereoexpander_1_neutralizer_1_epik_3_stereoizer_1

>  <s_m_source_file>  (124) 
ATP-VSW-LIGPREP-001-in.maegz

>  <s_sd_BIOSOLVEIT.INFINISEE\_QUERY\_NAME>  (124) 
Ref-Lig

>  <s_sd_BIOSOLVEIT.INFINISEE\_QUERY\_SMILES>  (124) 
S(c1nc2c(cc1C[NH2+]Cc3ccc(cc3)C[NH+](C)C)cccc2)Cc4ccccc4

>  <s_sd_BIOSOLVEIT.INFINISEE\_REACTION\_NAME>  (124) 
YAS_R004

>  <s_sd_BIOSOLVEIT.INFINISEE\_REAGENT1\_NAME>  (124) 
OTV998841

>  <s_sd_BIOSOLVEIT.INFINISEE\_REAGENT1\_SMILES>  (124) 
Oc1c(N)cccc1

>  <s_sd_BIOSOLVEIT.INFINISEE\_REAGENT2\_NAME>  (124) 
OTV7113231893

>  <s_sd_BIOSOLVEIT.INFINISEE\_REAGENT2\_SMILES>  (124) 
O=C(O)COc1ccccc1

>  <s_sd_BIOSOLVEIT.INFINISEE\_REAGENT3\_NAME>  (124) 
OTV7020431351

>  <s_sd_BIOSOLVEIT.INFINISEE\_REAGENT3\_SMILES>  (124) 
Fc1ccc(cc1)C(N(C)C)CN

>  <s_sd_BIOSOLVEIT.INFINISEE\_SPACE>  (124) 
CHEMriya_12bn_2022-01

>  <s_vsw_compound_code>  (124) 
449

>  <s_vsw_variant>  (124) 
449-5

>  <r_epik_Charging_Adjusted_Penalty>  (124) 
2.6202023020011702

>  <r_epik_Ionization_Penalty>  (124) 
1.2951999999999999

>  <r_epik_Ionization_Penalty_Charging>  (124) 
1.2951999999999999

>  <r_epik_Ionization_Penalty_Neutral>  (124) 
0

>  <r_epik_State_Penalty>  (124) 
1.325

>  <r_i_docking_score>  (124) 
-3.5425772789175198

>  <r_i_glide_ecoul>  (124) 
-11.507433891296399

>  <r_i_glide_eff_state_penalty>  (124) 
1.325

>  <r_i_glide_einternal>  (124) 
2.8163414001464799

>  <r_i_glide_emodel>  (124) 
-62.872072126789597

>  <r_i_glide_energy>  (124) 
-44.597796440124498

>  <r_i_glide_erotb>  (124) 
0.63825411966668699

>  <r_i_glide_esite>  (124) 
-0.15863840740809901

>  <r_i_glide_evdw>  (124) 
-33.090362548828097

>  <r_i_glide_gscore>  (124) 
-4.86757727891752

>  <r_i_glide_hbond>  (124) 
-0.20000000000000001

>  <r_i_glide_ligand_efficiency>  (124) 
-0.11070553996617299

>  <r_i_glide_ligand_efficiency_ln>  (124) 
-0.793279619759099

>  <r_i_glide_ligand_efficiency_sa>  (124) 
-0.35146818079598802

>  <r_i_glide_lipo>  (124) 
-1.2940479654080701

>  <r_i_glide_metal>  (124) 
-0

>  <r_i_glide_rewards>  (124) 
-0.47251181463217601

>  <r_lp_Energy>  (124) 
32.300978000000001

>  <r_lp_tautomer_probability>  (124) 
1

>  <r_qp_ACxDN^.5/SA>  (124) 
0.010640800000000001

>  <r_qp_CIQPlogS>  (124) 
-5.9859999999999998

>  <r_qp_EA(eV)>  (124) 
0.79100000000000004

>  <r_qp_FISA>  (124) 
75.581999999999994

>  <r_qp_FOSA>  (124) 
184.81800000000001

>  <r_qp_IP(eV)>  (124) 
8.2289999999999992

>  <r_qp_Jm>  (124) 
0.011683662936051

>  <r_qp_PISA>  (124) 
426.29700000000003

>  <r_qp_PSA>  (124) 
56.067999999999998

>  <r_qp_PercentHumanOralAbsorption>  (124) 
100

>  <r_qp_QPPCaco>  (124) 
474.30599999999998

>  <r_qp_QPPMDCK>  (124) 
427.21699999999998

>  <r_qp_QPlogBB>  (124) 
-0.24099999999999999

>  <r_qp_QPlogHERG>  (124) 
-7.3730000000000002

>  <r_qp_QPlogKhsa>  (124) 
0.78600000000000003

>  <r_qp_QPlogKp>  (124) 
-2.609

>  <r_qp_QPlogPC16>  (124) 
14.513999999999999

>  <r_qp_QPlogPo/w>  (124) 
4.9370000000000003

>  <r_qp_QPlogPoct>  (124) 
21.454000000000001

>  <r_qp_QPlogPw>  (124) 
11.269

>  <r_qp_QPlogS>  (124) 
-4.9580000000000002

>  <r_qp_QPpolrz>  (124) 
46.308

>  <r_qp_SASA>  (124) 
730.97500000000002

>  <r_qp_SAamideO>  (124) 
0

>  <r_qp_SAfluorine>  (124) 
44.279000000000003

>  <r_qp_WPSA>  (124) 
44.279000000000003

>  <r_qp_accptHB>  (124) 
5.5

>  <r_qp_dip^2/V>  (124) 
0.0072128000000000001

>  <r_qp_dipole>  (124) 
3.125

>  <r_qp_donorHB>  (124) 
2

>  <r_qp_glob>  (124) 
0.80955869999999996

>  <r_qp_mol_MW>  (124) 
431.50900000000001

>  <r_qp_volume>  (124) 
1353.5640000000001

>  <r_sd_BIOSOLVEIT.INFINISEE\_FTREES\_SIMILARITY>  (124) 
0.93400000000000005

>  <r_sd_BIOSOLVEIT.LOGP>  (124) 
3.9561999999999999

>  <r_sd_BIOSOLVEIT.MOLECULAR\_WEIGHT>  (124) 
432.51600000000002

>  <r_sd_BIOSOLVEIT.TPSA>  (124) 
58.82

>  <i_epik_Tot_Q>  (124) 
1

>  <i_epik_Tot_abs_Q>  (124) 
3

>  <i_f3d_flags>  (124) 
0

>  <i_i_glide_confnum>  (124) 
3

>  <i_i_glide_lignum>  (124) 
1

>  <i_i_glide_posenum>  (124) 
8

>  <i_i_glide_rotatable_bonds>  (124) 
8

>  <i_lp_mmshare_version>  (124) 
65135

>  <i_m_ct_format>  (124) 
2

>  <i_m_source_file_index>  (124) 
15

>  <i_qp_#NandO>  (124) 
5

>  <i_qp_#acid>  (124) 
0

>  <i_qp_#amide>  (124) 
0

>  <i_qp_#amidine>  (124) 
0

>  <i_qp_#amine>  (124) 
1

>  <i_qp_#in34>  (124) 
0

>  <i_qp_#in56>  (124) 
22

>  <i_qp_#metab>  (124) 
7

>  <i_qp_#nonHatm>  (124) 
32

>  <i_qp_#noncon>  (124) 
0

>  <i_qp_#ringatoms>  (124) 
22

>  <i_qp_#rotor>  (124) 
9

>  <i_qp_#rtvFG>  (124) 
0

>  <i_qp_#stars>  (124) 
0

>  <i_qp_CNS>  (124) 
1

>  <i_qp_HumanOralAbsorption>  (124) 
3

>  <i_qp_RuleOfFive>  (124) 
0

>  <i_qp_RuleOfThree>  (124) 
1

>  <i_sd_BIOSOLVEIT.INFINISEE\_RESULT\_RANK>  (124) 
3202

>  <i_sd_version>  (124) 
0

>  <b_lp_Chiralities_Consistent>  (124) 
1

>  <b_sd_chiral_flag>  (124) 
0

>  <canonical_id>  (124) 
ATP-HTVS-14BA2D75CE49

>  <compound_code>  (124) 
449

>  <title>  (124) 
YAS_R004____OTV998841____OTV7113231893____OTV7020431351

>  <variant>  (124) 
449-5

>  <source_file>  (124) 
运行/运行/ATP-VSW/ATP-VSW-DOCK_HTVS_1-001_lib/ATP-VSW-DOCK_HTVS_1-001_lib

>  <canonical_smiles>  (124) 
C[NH+](C)[C@@H](CNc1cc(COc2ccccc2)[nH+]c2c([O-])cccc12)c1ccc(F)cc1

>  <scaffold>  (124) 
c1ccc(CCNc2cc(COc3ccccc3)[nH+]c3ccccc23)cc1

>  <molecular_formula>  (124) 
C26H27FN3O2+

$$$$
ATP-HTVS-1551732D1515
     RDKit          3D

 54 56  0  0  0  0  0  0  0  0999 V2000
  201.7712  172.2123  151.7107 Cl  0  0  0  0  0  0  0  0  0  0  0  0
  201.2514  173.8368  151.9970 C   0  0  0  0  0  0  0  0  0  0  0  0
  201.2125  174.3708  153.3033 C   0  0  0  0  0  0  0  0  0  0  0  0
  200.7632  175.6948  153.4988 C   0  0  0  0  0  0  0  0  0  0  0  0
  200.3528  176.4931  152.4102 C   0  0  0  0  0  0  0  0  0  0  0  0
  199.8877  177.7548  152.7071 O   0  0  0  0  0  0  0  0  0  0  0  0
  199.5157  178.6286  151.6454 C   0  0  1  0  0  0  0  0  0  0  0  0
  198.6486  179.6895  152.2344 C   0  0  0  0  0  0  0  0  0  0  0  0
  198.0588  179.3988  153.4277 O   0  0  0  0  0  0  0  0  0  0  0  0
  197.2784  180.4624  153.7533 C   0  0  0  0  0  0  0  0  0  0  0  0
  197.3537  181.4188  152.7818 C   0  0  0  0  0  0  0  0  0  0  0  0
  198.2502  180.9209  151.7965 C   0  0  0  0  0  0  0  0  0  0  0  0
  196.5469  180.3641  155.0505 C   0  0  1  0  0  0  0  0  0  0  0  0
  197.3065  180.9672  156.1530 N   0  0  1  0  0  0  0  0  0  0  0  0
  197.3976  182.4421  156.0757 C   0  0  1  0  0  0  0  0  0  0  0  0
  198.1783  183.0063  157.2462 C   0  0  0  0  0  0  0  0  0  0  0  0
  197.5418  183.2935  158.4802 C   0  0  0  0  0  0  0  0  0  0  0  0
  196.1703  183.0281  158.6399 N   0  0  0  0  0  0  0  0  0  0  0  0
  195.3987  183.5880  159.7408 C   0  0  1  0  0  0  0  0  0  0  0  0
  194.9671  185.0286  159.4464 C   0  0  1  0  0  0  0  0  0  0  0  0
  194.2273  185.5378  160.5324 O   0  0  0  0  0  0  0  0  0  0  0  0
  198.3271  183.8253  159.5312 C   0  0  0  0  0  0  0  0  0  0  0  0
  199.7042  184.0587  159.3616 C   0  0  0  0  0  0  0  0  0  0  0  0
  200.3257  183.7719  158.1351 C   0  0  0  0  0  0  0  0  0  0  0  0
  199.5603  183.2473  157.0789 C   0  0  0  0  0  0  0  0  0  0  0  0
  200.4134  175.9521  151.1030 C   0  0  0  0  0  0  0  0  0  0  0  0
  200.8572  174.6337  150.9065 C   0  0  0  0  0  0  0  0  0  0  0  0
  201.6378  173.5295  154.4935 C   0  0  2  0  0  0  0  0  0  0  0  0
  196.8329  180.6887  157.0068 H   0  0  0  0  0  0  0  0  0  0  0  0
  200.7150  176.1031  154.4989 H   0  0  0  0  0  0  0  0  0  0  0  0
  200.4110  179.0584  151.1909 H   0  0  0  0  0  0  0  0  0  0  0  0
  198.9279  178.1378  150.8733 H   0  0  0  0  0  0  0  0  0  0  0  0
  196.8267  182.3625  152.7832 H   0  0  0  0  0  0  0  0  0  0  0  0
  198.5580  181.3974  150.8779 H   0  0  0  0  0  0  0  0  0  0  0  0
  195.5948  180.8798  154.9641 H   0  0  0  0  0  0  0  0  0  0  0  0
  196.3648  179.3147  155.3015 H   0  0  0  0  0  0  0  0  0  0  0  0
  197.9068  182.7433  155.1601 H   0  0  0  0  0  0  0  0  0  0  0  0
  196.3997  182.8804  156.0150 H   0  0  0  0  0  0  0  0  0  0  0  0
  195.6242  182.7214  157.8472 H   0  0  0  0  0  0  0  0  0  0  0  0
  194.5083  182.9668  159.8454 H   0  0  0  0  0  0  0  0  0  0  0  0
  195.9299  183.5182  160.6896 H   0  0  0  0  0  0  0  0  0  0  0  0
  195.8259  185.6803  159.2682 H   0  0  0  0  0  0  0  0  0  0  0  0
  194.3559  185.0384  158.5417 H   0  0  0  0  0  0  0  0  0  0  0  0
  193.6733  186.2298  160.2009 H   0  0  0  0  0  0  0  0  0  0  0  0
  197.8952  184.0483  160.4941 H   0  0  0  0  0  0  0  0  0  0  0  0
  200.2873  184.4563  160.1802 H   0  0  0  0  0  0  0  0  0  0  0  0
  201.3844  183.9552  158.0115 H   0  0  0  0  0  0  0  0  0  0  0  0
  200.0489  183.0333  156.1394 H   0  0  0  0  0  0  0  0  0  0  0  0
  200.1130  176.5094  150.2298 H   0  0  0  0  0  0  0  0  0  0  0  0
  200.8760  174.2257  149.9077 H   0  0  0  0  0  0  0  0  0  0  0  0
  201.5160  174.0730  155.4313 H   0  0  0  0  0  0  0  0  0  0  0  0
  202.6869  173.2449  154.3985 H   0  0  0  0  0  0  0  0  0  0  0  0
  201.0413  172.6172  154.5445 H   0  0  0  0  0  0  0  0  0  0  0  0
  198.2305  180.5596  156.1740 H   0  0  0  0  0  0  0  0  0  0  0  0
  1  2  1  0
  2  3  2  0
  2 27  1  0
  3  4  1  0
  3 28  1  0
  4  5  2  0
  4 30  1  0
  5  6  1  0
  5 26  1  0
  6  7  1  0
  7  8  1  0
  7 31  1  6
  7 32  1  0
  8  9  1  0
  8 12  2  0
  9 10  1  0
 10 11  2  0
 10 13  1  0
 11 12  1  0
 11 33  1  0
 12 34  1  0
 13 14  1  0
 13 35  1  6
 13 36  1  0
 14 15  1  0
 14 29  1  1
 14 54  1  0
 15 16  1  0
 15 37  1  6
 15 38  1  0
 16 17  1  0
 16 25  2  0
 17 18  1  0
 17 22  2  0
 18 19  1  0
 18 39  1  0
 19 20  1  0
 19 40  1  1
 19 41  1  0
 20 21  1  0
 20 42  1  6
 20 43  1  0
 21 44  1  0
 22 23  1  0
 22 45  1  0
 23 24  2  0
 23 46  1  0
 24 25  1  0
 24 47  1  0
 25 48  1  0
 26 27  2  0
 26 49  1  0
 27 50  1  0
 28 51  1  1
 28 52  1  0
 28 53  1  0
M  CHG  1  14   1
M  END
>  <s_epik_cmdline>  (125) 
J2VwaWtfcHl0aG9uJywgJy1waCcsICc3LjAwMDAwMCcsICctcGh0JywgJzIuMDAwMDAwJywgJy1tcycsICcxNicsICctdG4nLCAnOCcsICctbWEnLCAnMjAwJywgJy1pbWFlJywgJzxpbmZpbGUubWFlPicsICctb21hZScsICc8b3V0ZmlsZS5tYWU+Jw==

>  <s_epik_input>  (125) 
Q2xjMWMoW0NIM10pW2NIXWMoW2NIXVtjSF0xKU9bQ0gyXWMyb2MoW2NIXVtjSF0yKVtDSDJdW05IXVtDSDJdYzNjKFtOSF1bQ0gyXVtDSDJdW09IXSlbY0hdW2NIXVtjSF1bY0hdMw==

>  <s_i_glide_gridfile>  (125) 
ATP-Grid

>  <s_lp_Force_Field>  (125) 
OPLS_2005

>  <s_lp_Variant>  (125) 
m_270004bbb____25289968____24714584-1

>  <s_lp_label>  (125) 
1353_sdstereoexpander_1_neutralizer_1_epik_1_stereoizer_1

>  <s_m_source_file>  (125) 
ATP-VSW-LIGPREP-002-in.maegz

>  <s_sd_BIOSOLVEIT.INFINISEE\_QUERY\_NAME>  (125) 
Ref-Lig

>  <s_sd_BIOSOLVEIT.INFINISEE\_QUERY\_SMILES>  (125) 
S(c1nc2c(cc1C[NH2+]Cc3ccc(cc3)C[NH+](C)C)cccc2)Cc4ccccc4

>  <s_sd_BIOSOLVEIT.INFINISEE\_REACTION\_NAME>  (125) 
m_270004bbb

>  <s_sd_BIOSOLVEIT.INFINISEE\_REAGENT1\_SMILES>  (125) 
[R1*]NCc1c(NCCO)cccc1

>  <s_sd_BIOSOLVEIT.INFINISEE\_REAGENT2\_SMILES>  (125) 
[R1*]CC=1OC(=CC1)COc2cc(c(Cl)cc2)C

>  <s_sd_BIOSOLVEIT.INFINISEE\_SPACE>  (125) 
REALSpace_44bn_2023-08

>  <s_vsw_compound_code>  (125) 
43266

>  <s_vsw_variant>  (125) 
43266-1

>  <r_epik_Charging_Adjusted_Penalty>  (125) 
0.050767312063249997

>  <r_epik_Ionization_Penalty>  (125) 
0.025399999999999999

>  <r_epik_Ionization_Penalty_Charging>  (125) 
0.025399999999999999

>  <r_epik_Ionization_Penalty_Neutral>  (125) 
0

>  <r_epik_State_Penalty>  (125) 
0.025399999999999999

>  <r_i_docking_score>  (125) 
-3.8657749452823702

>  <r_i_glide_ecoul>  (125) 
-8.4105672836303693

>  <r_i_glide_eff_state_penalty>  (125) 
0.025399999999999999

>  <r_i_glide_einternal>  (125) 
2.2314178943634002

>  <r_i_glide_emodel>  (125) 
-49.6417597580242

>  <r_i_glide_energy>  (125) 
-37.391629219055197

>  <r_i_glide_erotb>  (125) 
1.2145598899258601

>  <r_i_glide_esite>  (125) 
-0.102014492271454

>  <r_i_glide_evdw>  (125) 
-28.981061935424801

>  <r_i_glide_gscore>  (125) 
-3.8911749452823701

>  <r_i_glide_hbond>  (125) 
-0.24520939472911399

>  <r_i_glide_ligand_efficiency>  (125) 
-0.13806339090294201

>  <r_i_glide_ligand_efficiency_ln>  (125) 
-0.89233436145562395

>  <r_i_glide_ligand_efficiency_sa>  (125) 
-0.41924176976996502

>  <r_i_glide_lipo>  (125) 
-1.15405098616459

>  <r_i_glide_metal>  (125) 
-0

>  <r_i_glide_rewards>  (125) 
-0.89382177272727104

>  <r_lp_Energy>  (125) 
15.620744999999999

>  <r_lp_tautomer_probability>  (125) 
1

>  <r_qp_ACxDN^.5/SA>  (125) 
0.014225700000000001

>  <r_qp_CIQPlogS>  (125) 
-4.9889999999999999

>  <r_qp_EA(eV)>  (125) 
0.10100000000000001

>  <r_qp_FISA>  (125) 
66.945999999999998

>  <r_qp_FOSA>  (125) 
224.74700000000001

>  <r_qp_IP(eV)>  (125) 
8.0809999999999995

>  <r_qp_Jm>  (125) 
0.33593507883316198

>  <r_qp_PISA>  (125) 
310.73000000000002

>  <r_qp_PSA>  (125) 
60.244

>  <r_qp_PercentHumanOralAbsorption>  (125) 
100

>  <r_qp_QPPCaco>  (125) 
572.73299999999995

>  <r_qp_QPPMDCK>  (125) 
647.96699999999998

>  <r_qp_QPlogBB>  (125) 
-0.17299999999999999

>  <r_qp_QPlogHERG>  (125) 
-6.2140000000000004

>  <r_qp_QPlogKhsa>  (125) 
0.39300000000000002

>  <r_qp_QPlogKp>  (125) 
-2.665

>  <r_qp_QPlogPC16>  (125) 
13.625

>  <r_qp_QPlogPo/w>  (125) 
4.1550000000000002

>  <r_qp_QPlogPoct>  (125) 
20.606999999999999

>  <r_qp_QPlogPw>  (125) 
11.242000000000001

>  <r_qp_QPlogS>  (125) 
-3.4119999999999999

>  <r_qp_QPpolrz>  (125) 
39.899000000000001

>  <r_qp_SASA>  (125) 
663.56600000000003

>  <r_qp_SAamideO>  (125) 
0

>  <r_qp_SAfluorine>  (125) 
0

>  <r_qp_WPSA>  (125) 
61.143999999999998

>  <r_qp_accptHB>  (125) 
5.4500000000000002

>  <r_qp_dip^2/V>  (125) 
0.0120389

>  <r_qp_dipole>  (125) 
3.8839999999999999

>  <r_qp_donorHB>  (125) 
3

>  <r_qp_glob>  (125) 
0.84709719999999999

>  <r_qp_mol_MW>  (125) 
400.904

>  <r_qp_volume>  (125) 
1253.0799999999999

>  <r_sd_BIOSOLVEIT.INFINISEE\_FTREES\_SIMILARITY>  (125) 
0.90900000000000003

>  <r_sd_BIOSOLVEIT.LOGP>  (125) 
3.4882200000000001

>  <r_sd_BIOSOLVEIT.MOLECULAR\_WEIGHT>  (125) 
401.911

>  <r_sd_BIOSOLVEIT.TPSA>  (125) 
71.239999999999995

>  <i_epik_Tot_Q>  (125) 
1

>  <i_epik_Tot_abs_Q>  (125) 
1

>  <i_f3d_flags>  (125) 
0

>  <i_i_glide_confnum>  (125) 
10

>  <i_i_glide_lignum>  (125) 
476

>  <i_i_glide_posenum>  (125) 
16

>  <i_i_glide_rotatable_bonds>  (125) 
11

>  <i_lp_mmshare_version>  (125) 
65135

>  <i_m_ct_format>  (125) 
2

>  <i_m_source_file_index>  (125) 
1353

>  <i_qp_#NandO>  (125) 
5

>  <i_qp_#acid>  (125) 
0

>  <i_qp_#amide>  (125) 
0

>  <i_qp_#amidine>  (125) 
0

>  <i_qp_#amine>  (125) 
1

>  <i_qp_#in34>  (125) 
0

>  <i_qp_#in56>  (125) 
17

>  <i_qp_#metab>  (125) 
11

>  <i_qp_#nonHatm>  (125) 
28

>  <i_qp_#noncon>  (125) 
0

>  <i_qp_#ringatoms>  (125) 
17

>  <i_qp_#rotor>  (125) 
11

>  <i_qp_#rtvFG>  (125) 
0

>  <i_qp_#stars>  (125) 
1

>  <i_qp_CNS>  (125) 
0

>  <i_qp_HumanOralAbsorption>  (125) 
1

>  <i_qp_RuleOfFive>  (125) 
0

>  <i_qp_RuleOfThree>  (125) 
1

>  <i_sd_BIOSOLVEIT.INFINISEE\_REAGENT1\_NAME>  (125) 
25289968

>  <i_sd_BIOSOLVEIT.INFINISEE\_REAGENT2\_NAME>  (125) 
24714584

>  <i_sd_BIOSOLVEIT.INFINISEE\_RESULT\_RANK>  (125) 
49748

>  <i_sd_version>  (125) 
0

>  <b_lp_Chiralities_Consistent>  (125) 
1

>  <b_sd_chiral_flag>  (125) 
0

>  <canonical_id>  (125) 
ATP-HTVS-1551732D1515

>  <compound_code>  (125) 
43266

>  <title>  (125) 
m_270004bbb____25289968____24714584

>  <variant>  (125) 
43266-1

>  <source_file>  (125) 
运行/运行/ATP-VSW/ATP-VSW-DOCK_HTVS_1-002_lib.maegz

>  <canonical_smiles>  (125) 
Cc1cc(OCc2ccc(C[NH2+]Cc3ccccc3NCCO)o2)ccc1Cl

>  <scaffold>  (125) 
c1ccc(C[NH2+]Cc2ccc(COc3ccccc3)o2)cc1

>  <molecular_formula>  (125) 
C22H26ClN2O3+

$$$$
ATP-HTVS-159795FE363C
     RDKit          3D

 56 59  0  0  0  0  0  0  0  0999 V2000
  197.0523  186.9840  159.2444 F   0  0  0  0  0  0  0  0  0  0  0  0
  196.4731  185.7620  159.2249 C   0  0  0  0  0  0  0  0  0  0  0  0
  197.1817  184.6552  158.7191 C   0  0  0  0  0  0  0  0  0  0  0  0
  196.5742  183.3828  158.6858 C   0  0  0  0  0  0  0  0  0  0  0  0
  195.2561  183.2218  159.1648 C   0  0  0  0  0  0  0  0  0  0  0  0
  194.5473  184.3304  159.6608 C   0  0  0  0  0  0  0  0  0  0  0  0
  195.1573  185.5975  159.6969 C   0  0  0  0  0  0  0  0  0  0  0  0
  197.3418  182.1898  158.1479 C   0  0  1  0  0  0  0  0  0  0  0  0
  197.0159  181.8647  156.6833 C   0  0  2  0  0  0  0  0  0  0  0  0
  195.6299  181.4365  156.5307 N   0  0  2  0  0  0  0  0  0  0  0  0
  197.8129  180.7467  156.1571 C   0  0  0  0  0  0  0  0  0  0  0  0
  198.4870  179.8125  155.7374 C   0  0  0  0  0  0  0  0  0  0  0  0
  199.3075  178.7003  155.2776 C   0  0  0  0  0  0  0  0  0  0  0  0
  199.4193  178.3315  153.9092 C   0  0  0  0  0  0  0  0  0  0  0  0
  200.1791  177.2785  153.5203 N   0  0  0  0  0  0  0  0  0  0  0  0
  200.8593  176.5529  154.4274 C   0  0  0  0  0  0  0  0  0  0  0  0
  200.8087  176.8702  155.8068 C   0  0  0  0  0  0  0  0  0  0  0  0
  200.0184  177.9520  156.2321 C   0  0  0  0  0  0  0  0  0  0  0  0
  201.5396  176.1188  156.7389 C   0  0  0  0  0  0  0  0  0  0  0  0
  202.3370  175.0364  156.3163 C   0  0  0  0  0  0  0  0  0  0  0  0
  202.3845  174.7002  154.9534 C   0  0  0  0  0  0  0  0  0  0  0  0
  201.6482  175.4575  154.0199 C   0  0  0  0  0  0  0  0  0  0  0  0
  198.6916  179.1153  152.9698 N   0  0  0  0  0  0  0  0  0  0  0  0
  198.3446  178.7888  151.7127 C   0  0  0  0  0  0  0  0  0  0  0  0
  198.4774  177.6629  151.2313 O   0  0  0  0  0  0  0  0  0  0  0  0
  197.6897  179.9113  150.8926 C   0  0  1  0  0  0  0  0  0  0  0  0
  198.0394  179.8342  149.3976 C   0  0  0  0  0  0  0  0  0  0  0  0
  198.8698  180.7914  148.7487 C   0  0  0  0  0  0  0  0  0  0  0  0
  199.4393  181.9348  149.4510 C   0  0  0  0  0  0  0  0  0  0  0  0
  199.8882  182.8407  150.0134 N   0  0  0  0  0  0  0  0  0  0  0  0
  199.1750  180.6430  147.3759 C   0  0  0  0  0  0  0  0  0  0  0  0
  198.6672  179.5540  146.6391 C   0  0  0  0  0  0  0  0  0  0  0  0
  197.8365  178.6131  147.2711 C   0  0  0  0  0  0  0  0  0  0  0  0
  197.5203  178.7620  148.6328 C   0  0  0  0  0  0  0  0  0  0  0  0
  195.4179  181.2554  155.5601 H   0  0  0  0  0  0  0  0  0  0  0  0
  194.9636  182.1490  156.8199 H   0  0  0  0  0  0  0  0  0  0  0  0
  198.1918  184.7910  158.3596 H   0  0  0  0  0  0  0  0  0  0  0  0
  194.7822  182.2501  159.1528 H   0  0  0  0  0  0  0  0  0  0  0  0
  193.5293  184.2167  160.0028 H   0  0  0  0  0  0  0  0  0  0  0  0
  194.6101  186.4510  160.0683 H   0  0  0  0  0  0  0  0  0  0  0  0
  198.4101  182.3840  158.2504 H   0  0  0  0  0  0  0  0  0  0  0  0
  197.1086  181.3333  158.7869 H   0  0  0  0  0  0  0  0  0  0  0  0
  197.2009  182.7316  156.0504 H   0  0  0  0  0  0  0  0  0  0  0  0
  199.9528  178.2088  157.2814 H   0  0  0  0  0  0  0  0  0  0  0  0
  201.4946  176.3906  157.7777 H   0  0  0  0  0  0  0  0  0  0  0  0
  202.9069  174.4704  157.0379 H   0  0  0  0  0  0  0  0  0  0  0  0
  202.9855  173.8627  154.6242 H   0  0  0  0  0  0  0  0  0  0  0  0
  201.6886  175.2025  152.9715 H   0  0  0  0  0  0  0  0  0  0  0  0
  198.3777  180.0116  153.3079 H   0  0  0  0  0  0  0  0  0  0  0  0
  196.6096  179.8497  150.9948 H   0  0  0  0  0  0  0  0  0  0  0  0
  197.9553  180.8683  151.3351 H   0  0  0  0  0  0  0  0  0  0  0  0
  199.7990  181.3720  146.8753 H   0  0  0  0  0  0  0  0  0  0  0  0
  198.9059  179.4471  145.5896 H   0  0  0  0  0  0  0  0  0  0  0  0
  197.4527  177.7667  146.7171 H   0  0  0  0  0  0  0  0  0  0  0  0
  196.8923  178.0175  149.0998 H   0  0  0  0  0  0  0  0  0  0  0  0
  195.5206  180.5559  157.0669 H   0  0  0  0  0  0  0  0  0  0  0  0
  1  2  1  0
  2  3  2  0
  2  7  1  0
  3  4  1  0
  3 37  1  0
  4  5  2  0
  4  8  1  0
  5  6  1  0
  5 38  1  0
  6  7  2  0
  6 39  1  0
  7 40  1  0
  8  9  1  0
  8 41  1  6
  8 42  1  0
  9 10  1  0
  9 11  1  0
  9 43  1  6
 10 35  1  6
 10 36  1  0
 10 56  1  0
 11 12  3  0
 12 13  1  0
 13 14  1  0
 13 18  2  0
 14 15  2  0
 14 23  1  0
 15 16  1  0
 16 17  1  0
 16 22  2  0
 17 18  1  0
 17 19  2  0
 18 44  1  0
 19 20  1  0
 19 45  1  0
 20 21  2  0
 20 46  1  0
 21 22  1  0
 21 47  1  0
 22 48  1  0
 23 24  1  0
 23 49  1  0
 24 25  2  0
 24 26  1  0
 26 27  1  0
 26 50  1  6
 26 51  1  0
 27 28  1  0
 27 34  2  0
 28 29  1  0
 28 31  2  0
 29 30  3  0
 31 32  1  0
 31 52  1  0
 32 33  2  0
 32 53  1  0
 33 34  1  0
 33 54  1  0
 34 55  1  0
M  CHG  1  10   1
M  END
>  <s_epik_cmdline>  (126) 
J2VwaWtfcHl0aG9uJywgJy1waCcsICc3LjAwMDAwMCcsICctcGh0JywgJzIuMDAwMDAwJywgJy1tcycsICcxNicsICctdG4nLCAnOCcsICctbWEnLCAnMjAwJywgJy1pbWFlJywgJzxpbmZpbGUubWFlPicsICctb21hZScsICc8b3V0ZmlsZS5tYWU+Jw==

>  <s_epik_input>  (126) 
RmMxW2NIXWMoW2NIXVtjSF1bY0hdMSlbQ0gyXVtDQEhdKFtOSDJdKUMjQ2MoW2NIXWMoYzIzKVtjSF1bY0hdW2NIXVtjSF0zKWMobjIpW05IXUMoPU8pW0NIMl1jNGMoQyNOKVtjSF1bY0hdW2NIXVtjSF00

>  <s_i_glide_gridfile>  (126) 
ATP-Grid

>  <s_lp_Force_Field>  (126) 
OPLS_2005

>  <s_lp_Variant>  (126) 
rxn503b____EMOL3801098____EMOL44466703____EMOL313110234-4

>  <s_lp_label>  (126) 
2888_sdstereoexpander_2_neutralizer_1_epik_2_stereoizer_1

>  <s_m_source_file>  (126) 
ATP-VSW-LIGPREP-003-in.maegz

>  <s_sd_BIOSOLVEIT.INFINISEE\_QUERY\_NAME>  (126) 
Ref-Lig

>  <s_sd_BIOSOLVEIT.INFINISEE\_QUERY\_SMILES>  (126) 
S(c1nc2c(cc1C[NH2+]Cc3ccc(cc3)C[NH+](C)C)cccc2)Cc4ccccc4

>  <s_sd_BIOSOLVEIT.INFINISEE\_REACTION\_NAME>  (126) 
rxn503b

>  <s_sd_BIOSOLVEIT.INFINISEE\_REAGENT1\_NAME>  (126) 
EMOL3801098

>  <s_sd_BIOSOLVEIT.INFINISEE\_REAGENT1\_SMILES>  (126) 
O=C(O)Cc1c(C#N)cccc1

>  <s_sd_BIOSOLVEIT.INFINISEE\_REAGENT2\_NAME>  (126) 
EMOL44466703

>  <s_sd_BIOSOLVEIT.INFINISEE\_REAGENT2\_SMILES>  (126) 
Brc1c(nc2c(c1)cccc2)N

>  <s_sd_BIOSOLVEIT.INFINISEE\_REAGENT3\_NAME>  (126) 
EMOL313110234

>  <s_sd_BIOSOLVEIT.INFINISEE\_REAGENT3\_SMILES>  (126) 
Fc1cc(ccc1)CC(N)C#C

>  <s_sd_BIOSOLVEIT.INFINISEE\_SPACE>  (126) 
eXplore_7tr_2022-12

>  <s_vsw_compound_code>  (126) 
92387

>  <s_vsw_variant>  (126) 
92387-4

>  <r_epik_Charging_Adjusted_Penalty>  (126) 
1.22591159016581

>  <r_epik_Ionization_Penalty>  (126) 
0.61309999999999998

>  <r_epik_Ionization_Penalty_Charging>  (126) 
0.61299999999999999

>  <r_epik_Ionization_Penalty_Neutral>  (126) 
0.00020000000000000001

>  <r_epik_State_Penalty>  (126) 
0.61299999999999999

>  <r_i_docking_score>  (126) 
-5.2891205985598502

>  <r_i_glide_ecoul>  (126) 
-12.528195381164601

>  <r_i_glide_eff_state_penalty>  (126) 
0.61299999999999999

>  <r_i_glide_einternal>  (126) 
5.0048475265502903

>  <r_i_glide_emodel>  (126) 
-70.173303496339003

>  <r_i_glide_energy>  (126) 
-47.476704597473102

>  <r_i_glide_erotb>  (126) 
0.69433441786033301

>  <r_i_glide_esite>  (126) 
-0.0828925023734359

>  <r_i_glide_evdw>  (126) 
-34.948509216308601

>  <r_i_glide_gscore>  (126) 
-5.9021205985598604

>  <r_i_glide_hbond>  (126) 
-0.28439831903078799

>  <r_i_glide_ligand_efficiency>  (126) 
-0.15556237054587799

>  <r_i_glide_ligand_efficiency_ln>  (126) 
-1.16851509502955

>  <r_i_glide_ligand_efficiency_sa>  (126) 
-0.50396169086274401

>  <r_i_glide_lipo>  (126) 
-1.95052657531564

>  <r_i_glide_metal>  (126) 
-0

>  <r_i_glide_rewards>  (126) 
-0.65198285171021098

>  <r_lp_Energy>  (126) 
26.739477999999998

>  <r_qp_ACxDN^.5/SA>  (126) 
0.013289499999999999

>  <r_qp_CIQPlogS>  (126) 
-7.0350000000000001

>  <r_qp_EA(eV)>  (126) 
1.0880000000000001

>  <r_qp_FISA>  (126) 
117.849

>  <r_qp_FOSA>  (126) 
91.030000000000001

>  <r_qp_IP(eV)>  (126) 
8.7430000000000003

>  <r_qp_Jm>  (126) 
0.00011944448357775099

>  <r_qp_PISA>  (126) 
526.14400000000001

>  <r_qp_PSA>  (126) 
92.728999999999999

>  <r_qp_PercentHumanOralAbsorption>  (126) 
95.427000000000007

>  <r_qp_QPPCaco>  (126) 
188.46799999999999

>  <r_qp_QPPMDCK>  (126) 
162.99100000000001

>  <r_qp_QPlogBB>  (126) 
-0.75900000000000001

>  <r_qp_QPlogHERG>  (126) 
-8.3409999999999993

>  <r_qp_QPlogKhsa>  (126) 
0.75800000000000001

>  <r_qp_QPlogKp>  (126) 
-3.0369999999999999

>  <r_qp_QPlogPC16>  (126) 
16.411000000000001

>  <r_qp_QPlogPo/w>  (126) 
4.7409999999999997

>  <r_qp_QPlogPoct>  (126) 
25.983000000000001

>  <r_qp_QPlogPw>  (126) 
14.317

>  <r_qp_QPlogS>  (126) 
-6.5380000000000003

>  <r_qp_QPpolrz>  (126) 
49.683

>  <r_qp_SASA>  (126) 
781.995

>  <r_qp_SAamideO>  (126) 
0

>  <r_qp_SAfluorine>  (126) 
46.972999999999999

>  <r_qp_WPSA>  (126) 
46.972999999999999

>  <r_qp_accptHB>  (126) 
6

>  <r_qp_dip^2/V>  (126) 
0.106518

>  <r_qp_dipole>  (126) 
12.273

>  <r_qp_donorHB>  (126) 
3

>  <r_qp_glob>  (126) 
0.77912519999999996

>  <r_qp_mol_MW>  (126) 
448.49799999999999

>  <r_qp_volume>  (126) 
1414.0650000000001

>  <r_sd_BIOSOLVEIT.INFINISEE\_FTREES\_SIMILARITY>  (126) 
0.90500000000000003

>  <r_sd_BIOSOLVEIT.LOGP>  (126) 
3.6314799999999998

>  <r_sd_BIOSOLVEIT.MOLECULAR\_WEIGHT>  (126) 
449.50700000000001

>  <r_sd_BIOSOLVEIT.TPSA>  (126) 
93.420000000000002

>  <i_epik_Tot_Q>  (126) 
1

>  <i_epik_Tot_abs_Q>  (126) 
1

>  <i_f3d_flags>  (126) 
0

>  <i_i_glide_confnum>  (126) 
3

>  <i_i_glide_lignum>  (126) 
1407

>  <i_i_glide_posenum>  (126) 
19

>  <i_i_glide_rotatable_bonds>  (126) 
8

>  <i_lp_mmshare_version>  (126) 
65135

>  <i_m_ct_format>  (126) 
2

>  <i_m_source_file_index>  (126) 
2888

>  <i_qp_#NandO>  (126) 
5

>  <i_qp_#acid>  (126) 
0

>  <i_qp_#amide>  (126) 
0

>  <i_qp_#amidine>  (126) 
0

>  <i_qp_#amine>  (126) 
1

>  <i_qp_#in34>  (126) 
0

>  <i_qp_#in56>  (126) 
22

>  <i_qp_#metab>  (126) 
5

>  <i_qp_#nonHatm>  (126) 
34

>  <i_qp_#noncon>  (126) 
0

>  <i_qp_#ringatoms>  (126) 
22

>  <i_qp_#rotor>  (126) 
9

>  <i_qp_#rtvFG>  (126) 
0

>  <i_qp_#stars>  (126) 
2

>  <i_qp_CNS>  (126) 
-1

>  <i_qp_HumanOralAbsorption>  (126) 
1

>  <i_qp_RuleOfFive>  (126) 
0

>  <i_qp_RuleOfThree>  (126) 
1

>  <i_sd_BIOSOLVEIT.INFINISEE\_RESULT\_RANK>  (126) 
73334

>  <i_sd_version>  (126) 
0

>  <b_lp_Chiralities_Consistent>  (126) 
1

>  <b_sd_chiral_flag>  (126) 
0

>  <canonical_id>  (126) 
ATP-HTVS-159795FE363C

>  <compound_code>  (126) 
92387

>  <title>  (126) 
rxn503b____EMOL3801098____EMOL44466703____EMOL313110234

>  <variant>  (126) 
92387-4

>  <source_file>  (126) 
运行/运行/ATP-VSW/ATP-VSW-DOCK_HTVS_1-003_lib/ATP-VSW-DOCK_HTVS_1-003_lib.mae

>  <canonical_smiles>  (126) 
N#Cc1ccccc1CC(=O)Nc1nc2ccccc2cc1C#C[C@@H]([NH3+])Cc1cccc(F)c1

>  <scaffold>  (126) 
O=C(Cc1ccccc1)Nc1nc2ccccc2cc1C#CCCc1ccccc1

>  <molecular_formula>  (126) 
C28H22FN4O+

$$$$
ATP-HTVS-159959ECB567
     RDKit          3D

 59 62  0  0  0  0  0  0  0  0999 V2000
  198.9444  181.3186  148.0381 F   0  0  0  0  0  0  0  0  0  0  0  0
  198.3499  182.1299  148.9442 C   0  0  0  0  0  0  0  0  0  0  0  0
  198.0461  183.4641  148.6036 C   0  0  0  0  0  0  0  0  0  0  0  0
  197.4278  184.3078  149.5455 C   0  0  0  0  0  0  0  0  0  0  0  0
  197.1424  185.5919  149.2276 F   0  0  0  0  0  0  0  0  0  0  0  0
  197.0926  183.8145  150.8200 C   0  0  0  0  0  0  0  0  0  0  0  0
  197.4034  182.4778  151.1722 C   0  0  0  0  0  0  0  0  0  0  0  0
  198.0039  181.6331  150.2173 C   0  0  0  0  0  0  0  0  0  0  0  0
  197.0213  181.9379  152.5106 C   0  0  0  0  0  0  0  0  0  0  0  0
  196.5545  180.8012  152.6248 O   0  0  0  0  0  0  0  0  0  0  0  0
  197.3200  182.7672  153.5205 N   0  0  0  0  0  0  0  0  0  0  0  0
  197.0211  182.6656  154.9124 C   0  0  0  0  0  0  0  0  0  0  0  0
  197.1619  183.8184  155.7400 C   0  0  0  0  0  0  0  0  0  0  0  0
  197.6599  185.0221  155.2001 N   0  0  0  0  0  0  0  0  0  0  0  0
  199.0011  185.4046  155.6423 C   0  0  1  0  0  0  0  0  0  0  0  0
  199.1332  186.8404  156.1146 C   0  0  0  0  0  0  0  0  0  0  0  0
  199.3729  187.1035  157.4804 C   0  0  0  0  0  0  0  0  0  0  0  0
  199.4976  188.4229  157.9558 C   0  0  0  0  0  0  0  0  0  0  0  0
  199.4772  189.4840  157.0259 C   0  0  0  0  0  0  0  0  0  0  0  0
  199.2214  189.2368  155.6660 C   0  0  0  0  0  0  0  0  0  0  0  0
  199.0463  187.9164  155.2071 C   0  0  0  0  0  0  0  0  0  0  0  0
  199.6557  188.6811  159.4527 C   0  0  1  0  0  0  0  0  0  0  0  0
  198.4185  189.1901  160.1334 N   0  0  1  0  0  0  0  0  0  0  0  0
  198.0002  190.5485  159.7135 C   0  0  2  0  0  0  0  0  0  0  0  0
  197.2912  188.2449  160.0802 C   0  0  2  0  0  0  0  0  0  0  0  0
  196.8247  183.7252  157.1281 C   0  0  0  0  0  0  0  0  0  0  0  0
  196.3852  182.4940  157.6499 C   0  0  0  0  0  0  0  0  0  0  0  0
  196.2729  181.4412  156.8285 N   0  0  0  0  0  0  0  0  0  0  0  0
  196.5549  181.4753  155.5075 C   0  0  0  0  0  0  0  0  0  0  0  0
  196.0663  182.3325  159.0148 C   0  0  0  0  0  0  0  0  0  0  0  0
  196.2102  183.4359  159.8774 C   0  0  0  0  0  0  0  0  0  0  0  0
  196.6088  184.6718  159.3708 C   0  0  0  0  0  0  0  0  0  0  0  0
  196.8824  184.8320  158.0043 C   0  0  0  0  0  0  0  0  0  0  0  0
  198.2967  183.8395  147.6233 H   0  0  0  0  0  0  0  0  0  0  0  0
  196.5999  184.4686  151.5219 H   0  0  0  0  0  0  0  0  0  0  0  0
  198.2233  180.6026  150.4664 H   0  0  0  0  0  0  0  0  0  0  0  0
  197.7599  183.6229  153.2388 H   0  0  0  0  0  0  0  0  0  0  0  0
  197.5336  185.1449  154.2105 H   0  0  0  0  0  0  0  0  0  0  0  0
  199.3414  184.7495  156.4474 H   0  0  0  0  0  0  0  0  0  0  0  0
  199.6946  185.2401  154.8173 H   0  0  0  0  0  0  0  0  0  0  0  0
  199.4214  186.2807  158.1827 H   0  0  0  0  0  0  0  0  0  0  0  0
  199.6128  190.5088  157.3542 H   0  0  0  0  0  0  0  0  0  0  0  0
  199.1585  190.0706  154.9861 H   0  0  0  0  0  0  0  0  0  0  0  0
  198.8454  187.7286  154.1564 H   0  0  0  0  0  0  0  0  0  0  0  0
  199.9657  187.7594  159.9564 H   0  0  0  0  0  0  0  0  0  0  0  0
  200.4792  189.3834  159.6120 H   0  0  0  0  0  0  0  0  0  0  0  0
  197.6292  190.5687  158.6909 H   0  0  0  0  0  0  0  0  0  0  0  0
  198.8373  191.2381  159.8141 H   0  0  0  0  0  0  0  0  0  0  0  0
  197.1770  190.9033  160.3308 H   0  0  0  0  0  0  0  0  0  0  0  0
  196.9759  188.0122  159.0629 H   0  0  0  0  0  0  0  0  0  0  0  0
  196.4180  188.6197  160.6181 H   0  0  0  0  0  0  0  0  0  0  0  0
  197.6148  187.3340  160.5628 H   0  0  0  0  0  0  0  0  0  0  0  0
  196.3953  180.5209  155.0223 H   0  0  0  0  0  0  0  0  0  0  0  0
  195.7528  181.3658  159.4080 H   0  0  0  0  0  0  0  0  0  0  0  0
  195.9983  183.3793  160.9331 H   0  0  0  0  0  0  0  0  0  0  0  0
  196.6786  185.4812  160.0558 H   0  0  0  0  0  0  0  0  0  0  0  0
  197.1116  185.8006  157.6195 H   0  0  0  0  0  0  0  0  0  0  0  0
  198.7044  189.2752  161.1091 H   0  0  0  0  0  0  0  0  0  0  0  0
  195.9517  180.5199  157.2392 H   0  0  0  0  0  0  0  0  0  0  0  0
  1  2  1  0
  2  3  1  0
  2  8  2  0
  3  4  2  0
  3 34  1  0
  4  5  1  0
  4  6  1  0
  6  7  2  0
  6 35  1  0
  7  8  1  0
  7  9  1  0
  8 36  1  0
  9 10  2  0
  9 11  1  0
 11 12  1  0
 11 37  1  0
 12 13  2  0
 12 29  1  0
 13 14  1  0
 13 26  1  0
 14 15  1  0
 14 38  1  0
 15 16  1  0
 15 39  1  1
 15 40  1  0
 16 17  2  0
 16 21  1  0
 17 18  1  0
 17 41  1  0
 18 19  2  0
 18 22  1  0
 19 20  1  0
 19 42  1  0
 20 21  2  0
 20 43  1  0
 21 44  1  0
 22 23  1  0
 22 45  1  1
 22 46  1  0
 23 24  1  0
 23 25  1  0
 23 58  1  1
 24 47  1  6
 24 48  1  0
 24 49  1  0
 25 50  1  6
 25 51  1  0
 25 52  1  0
 26 27  1  0
 26 33  2  0
 27 28  1  0
 27 30  2  0
 28 29  2  0
 28 59  1  0
 29 53  1  0
 30 31  1  0
 30 54  1  0
 31 32  2  0
 31 55  1  0
 32 33  1  0
 32 56  1  0
 33 57  1  0
M  CHG  2  23   1  28   1
M  END
>  <s_epik_cmdline>  (127) 
J2VwaWtfcHl0aG9uJywgJy1waCcsICc3LjAwMDAwMCcsICctcGh0JywgJzIuMDAwMDAwJywgJy1tcycsICcxNicsICctdG4nLCAnOCcsICctbWEnLCAnMjAwJywgJy1pbWFlJywgJzxpbmZpbGUubWFlPicsICctb21hZScsICc8b3V0ZmlsZS5tYWU+Jw==

>  <s_epik_input>  (127) 
RmMxW2NIXWMoRilbY0hdYyhbY0hdMSlDKD1PKVtOSF1jKFtjSF1uYyhjMjMpW2NIXVtjSF1bY0hdW2NIXTMpYzJbTkhdW0NIMl1jNFtjSF1jKFtjSF1bY0hdW2NIXTQpW0NIMl1OKFtDSDNdKVtDSDNd

>  <s_i_glide_gridfile>  (127) 
ATP-Grid

>  <s_lp_Force_Field>  (127) 
OPLS_2005

>  <s_lp_Variant>  (127) 
rxn502b____EMOL495084____EMOL30488121____EMOL2873214-1

>  <s_lp_label>  (127) 
2211_sdstereoexpander_1_neutralizer_1_epik_1_stereoizer_1

>  <s_m_source_file>  (127) 
ATP-VSW-LIGPREP-003-in.maegz

>  <s_sd_BIOSOLVEIT.INFINISEE\_QUERY\_NAME>  (127) 
Ref-Lig

>  <s_sd_BIOSOLVEIT.INFINISEE\_QUERY\_SMILES>  (127) 
S(c1nc2c(cc1C[NH2+]Cc3ccc(cc3)C[NH+](C)C)cccc2)Cc4ccccc4

>  <s_sd_BIOSOLVEIT.INFINISEE\_REACTION\_NAME>  (127) 
rxn502b

>  <s_sd_BIOSOLVEIT.INFINISEE\_REAGENT1\_NAME>  (127) 
EMOL495084

>  <s_sd_BIOSOLVEIT.INFINISEE\_REAGENT1\_SMILES>  (127) 
Fc1cc(F)cc(c1)C(=O)O

>  <s_sd_BIOSOLVEIT.INFINISEE\_REAGENT2\_NAME>  (127) 
EMOL30488121

>  <s_sd_BIOSOLVEIT.INFINISEE\_REAGENT2\_SMILES>  (127) 
Brc1c(N)cnc2c1cccc2

>  <s_sd_BIOSOLVEIT.INFINISEE\_REAGENT3\_NAME>  (127) 
EMOL2873214

>  <s_sd_BIOSOLVEIT.INFINISEE\_REAGENT3\_SMILES>  (127) 
N(Cc1cc(ccc1)CN)(C)C

>  <s_sd_BIOSOLVEIT.INFINISEE\_SPACE>  (127) 
eXplore_7tr_2022-12

>  <s_vsw_compound_code>  (127) 
70723

>  <s_vsw_variant>  (127) 
70723-1

>  <r_epik_Charging_Adjusted_Penalty>  (127) 
0.24490422870036299

>  <r_epik_Ionization_Penalty>  (127) 
0.1255

>  <r_epik_Ionization_Penalty_Charging>  (127) 
0.12520000000000001

>  <r_epik_Ionization_Penalty_Neutral>  (127) 
0.00029999999999999997

>  <r_epik_State_Penalty>  (127) 
0.1197

>  <r_i_docking_score>  (127) 
-5.28054980478574

>  <r_i_glide_ecoul>  (127) 
-13.249941825866699

>  <r_i_glide_eff_state_penalty>  (127) 
0.1197

>  <r_i_glide_einternal>  (127) 
3.59366774559021

>  <r_i_glide_emodel>  (127) 
-67.163441580860507

>  <r_i_glide_energy>  (127) 
-43.841025352477999

>  <r_i_glide_erotb>  (127) 
0.69712649262667203

>  <r_i_glide_esite>  (127) 
-0.22103616869449799

>  <r_i_glide_evdw>  (127) 
-30.5910835266113

>  <r_i_glide_gscore>  (127) 
-5.4002498047857399

>  <r_i_glide_hbond>  (127) 
-0.40000000000000002

>  <r_i_glide_ligand_efficiency>  (127) 
-0.16001666075108301

>  <r_i_glide_ligand_efficiency_ln>  (127) 
-1.17436693536073

>  <r_i_glide_ligand_efficiency_sa>  (127) 
-0.51325893213218998

>  <r_i_glide_lipo>  (127) 
-1.0431354443574801

>  <r_i_glide_metal>  (127) 
-0

>  <r_i_glide_rewards>  (127) 
-0.91615923414986

>  <r_lp_Energy>  (127) 
40.271110999999998

>  <r_qp_ACxDN^.5/SA>  (127) 
0.012195900000000001

>  <r_qp_CIQPlogS>  (127) 
-5.9039999999999999

>  <r_qp_EA(eV)>  (127) 
1.1870000000000001

>  <r_qp_FISA>  (127) 
74.486999999999995

>  <r_qp_FOSA>  (127) 
204.303

>  <r_qp_IP(eV)>  (127) 
8.6920000000000002

>  <r_qp_Jm>  (127) 
0.0019684033339445301

>  <r_qp_PISA>  (127) 
399.80500000000001

>  <r_qp_PSA>  (127) 
60.835000000000001

>  <r_qp_PercentHumanOralAbsorption>  (127) 
100

>  <r_qp_QPPCaco>  (127) 
485.779

>  <r_qp_QPPMDCK>  (127) 
646.97900000000004

>  <r_qp_QPlogBB>  (127) 
-0.060999999999999999

>  <r_qp_QPlogHERG>  (127) 
-7.4790000000000001

>  <r_qp_QPlogKhsa>  (127) 
0.747

>  <r_qp_QPlogKp>  (127) 
-2.8740000000000001

>  <r_qp_QPlogPC16>  (127) 
14.409000000000001

>  <r_qp_QPlogPo/w>  (127) 
4.7839999999999998

>  <r_qp_QPlogPoct>  (127) 
23.233000000000001

>  <r_qp_QPlogPw>  (127) 
12.573

>  <r_qp_QPlogS>  (127) 
-5.4809999999999999

>  <r_qp_QPpolrz>  (127) 
48.383000000000003

>  <r_qp_SASA>  (127) 
753.72900000000004

>  <r_qp_SAamideO>  (127) 
0

>  <r_qp_SAfluorine>  (127) 
75.134

>  <r_qp_WPSA>  (127) 
75.134

>  <r_qp_accptHB>  (127) 
6.5

>  <r_qp_dip^2/V>  (127) 
0.036269500000000003

>  <r_qp_dipole>  (127) 
7.0739999999999998

>  <r_qp_donorHB>  (127) 
2

>  <r_qp_glob>  (127) 
0.79517510000000002

>  <r_qp_mol_MW>  (127) 
446.49900000000002

>  <r_qp_volume>  (127) 
1379.6510000000001

>  <r_sd_BIOSOLVEIT.INFINISEE\_FTREES\_SIMILARITY>  (127) 
0.93000000000000005

>  <r_sd_BIOSOLVEIT.LOGP>  (127) 
4.0218999999999996

>  <r_sd_BIOSOLVEIT.MOLECULAR\_WEIGHT>  (127) 
447.50700000000001

>  <r_sd_BIOSOLVEIT.TPSA>  (127) 
58.460000000000001

>  <i_epik_Tot_Q>  (127) 
2

>  <i_epik_Tot_abs_Q>  (127) 
2

>  <i_f3d_flags>  (127) 
0

>  <i_i_glide_confnum>  (127) 
6

>  <i_i_glide_lignum>  (127) 
876

>  <i_i_glide_posenum>  (127) 
8

>  <i_i_glide_rotatable_bonds>  (127) 
8

>  <i_lp_mmshare_version>  (127) 
65135

>  <i_m_ct_format>  (127) 
2

>  <i_m_source_file_index>  (127) 
2211

>  <i_qp_#NandO>  (127) 
5

>  <i_qp_#acid>  (127) 
0

>  <i_qp_#amide>  (127) 
0

>  <i_qp_#amidine>  (127) 
0

>  <i_qp_#amine>  (127) 
1

>  <i_qp_#in34>  (127) 
0

>  <i_qp_#in56>  (127) 
22

>  <i_qp_#metab>  (127) 
6

>  <i_qp_#nonHatm>  (127) 
33

>  <i_qp_#noncon>  (127) 
0

>  <i_qp_#ringatoms>  (127) 
22

>  <i_qp_#rotor>  (127) 
7

>  <i_qp_#rtvFG>  (127) 
0

>  <i_qp_#stars>  (127) 
0

>  <i_qp_CNS>  (127) 
1

>  <i_qp_HumanOralAbsorption>  (127) 
3

>  <i_qp_RuleOfFive>  (127) 
0

>  <i_qp_RuleOfThree>  (127) 
0

>  <i_sd_BIOSOLVEIT.INFINISEE\_RESULT\_RANK>  (127) 
4538

>  <i_sd_version>  (127) 
0

>  <b_lp_Chiralities_Consistent>  (127) 
1

>  <b_sd_chiral_flag>  (127) 
0

>  <canonical_id>  (127) 
ATP-HTVS-159959ECB567

>  <compound_code>  (127) 
70723

>  <title>  (127) 
rxn502b____EMOL495084____EMOL30488121____EMOL2873214

>  <variant>  (127) 
70723-1

>  <source_file>  (127) 
运行/运行/ATP-VSW/ATP-VSW-DOCK_HTVS_1-003_lib/ATP-VSW-DOCK_HTVS_1-003_lib.mae

>  <canonical_smiles>  (127) 
C[NH+](C)Cc1cccc(CNc2c(NC(=O)c3cc(F)cc(F)c3)c[nH+]c3ccccc23)c1

>  <scaffold>  (127) 
O=C(Nc1c[nH+]c2ccccc2c1NCc1ccccc1)c1ccccc1

>  <molecular_formula>  (127) 
C26H26F2N4O+2

$$$$
ATP-HTVS-159CD8CCFA6D
     RDKit          3D

 53 56  0  0  0  0  0  0  0  0999 V2000
  193.5449  183.2693  158.8590 F   0  0  0  0  0  0  0  0  0  0  0  0
  194.7354  183.8377  159.1489 C   0  0  0  0  0  0  0  0  0  0  0  0
  195.9368  183.2218  158.7422 C   0  0  0  0  0  0  0  0  0  0  0  0
  197.1793  183.8349  159.0292 C   0  0  0  0  0  0  0  0  0  0  0  0
  198.3200  183.2047  158.5806 O   0  0  0  0  0  0  0  0  0  0  0  0
  199.5785  183.6738  159.0424 C   0  0  2  0  0  0  0  0  0  0  0  0
  197.1930  185.0686  159.7290 C   0  0  0  0  0  0  0  0  0  0  0  0
  195.9913  185.6753  160.1364 C   0  0  0  0  0  0  0  0  0  0  0  0
  194.7623  185.0563  159.8475 C   0  0  0  0  0  0  0  0  0  0  0  0
  195.8956  181.8974  157.9995 C   0  0  1  0  0  0  0  0  0  0  0  0
  195.9496  182.1497  156.5393 N   0  0  1  0  0  0  0  0  0  0  0  0
  196.7342  181.1792  155.7498 C   0  0  1  0  0  0  0  0  0  0  0  0
  196.9052  181.6564  154.2834 C   0  0  2  0  0  0  0  0  0  0  0  0
  197.7906  180.7460  153.5177 N   0  0  0  0  0  0  0  0  0  0  0  0
  198.9727  181.3129  153.1740 C   0  0  0  0  0  0  0  0  0  0  0  0
  199.9319  180.8017  152.6014 O   0  0  0  0  0  0  0  0  0  0  0  0
  198.8814  182.7330  153.5839 C   0  0  0  0  0  0  0  0  0  0  0  0
  197.6703  182.9610  154.2041 C   0  0  0  0  0  0  0  0  0  0  0  0
  197.3072  184.2490  154.6349 C   0  0  0  0  0  0  0  0  0  0  0  0
  198.2262  185.3022  154.4392 C   0  0  0  0  0  0  0  0  0  0  0  0
  199.4715  185.0596  153.8148 C   0  0  0  0  0  0  0  0  0  0  0  0
  199.8159  183.7617  153.3712 C   0  0  0  0  0  0  0  0  0  0  0  0
  197.3541  179.4008  153.1502 C   0  0  1  0  0  0  0  0  0  0  0  0
  197.3531  179.1401  151.6518 C   0  0  0  0  0  0  0  0  0  0  0  0
  198.3467  178.3176  151.0765 C   0  0  0  0  0  0  0  0  0  0  0  0
  198.3471  178.0603  149.6925 C   0  0  0  0  0  0  0  0  0  0  0  0
  197.3480  178.6213  148.8750 C   0  0  0  0  0  0  0  0  0  0  0  0
  196.3541  179.4433  149.4437 C   0  0  0  0  0  0  0  0  0  0  0  0
  196.3587  179.7097  150.8295 C   0  0  0  0  0  0  0  0  0  0  0  0
  194.9886  182.2559  156.1719 H   0  0  0  0  0  0  0  0  0  0  0  0
  200.3659  183.0695  158.5927 H   0  0  0  0  0  0  0  0  0  0  0  0
  199.6575  183.5723  160.1258 H   0  0  0  0  0  0  0  0  0  0  0  0
  199.7672  184.7087  158.7563 H   0  0  0  0  0  0  0  0  0  0  0  0
  198.1146  185.5787  159.9701 H   0  0  0  0  0  0  0  0  0  0  0  0
  196.0161  186.6171  160.6702 H   0  0  0  0  0  0  0  0  0  0  0  0
  193.8364  185.5233  160.1547 H   0  0  0  0  0  0  0  0  0  0  0  0
  196.7278  181.2769  158.3315 H   0  0  0  0  0  0  0  0  0  0  0  0
  194.9837  181.3539  158.2364 H   0  0  0  0  0  0  0  0  0  0  0  0
  197.7124  181.0540  156.2168 H   0  0  0  0  0  0  0  0  0  0  0  0
  196.2448  180.2068  155.7720 H   0  0  0  0  0  0  0  0  0  0  0  0
  195.9456  181.7542  153.7795 H   0  0  0  0  0  0  0  0  0  0  0  0
  196.3503  184.4474  155.0888 H   0  0  0  0  0  0  0  0  0  0  0  0
  197.9666  186.2998  154.7610 H   0  0  0  0  0  0  0  0  0  0  0  0
  200.1599  185.8781  153.6635 H   0  0  0  0  0  0  0  0  0  0  0  0
  200.7545  183.5682  152.8739 H   0  0  0  0  0  0  0  0  0  0  0  0
  198.0073  178.6831  153.6472 H   0  0  0  0  0  0  0  0  0  0  0  0
  196.3520  179.2146  153.5362 H   0  0  0  0  0  0  0  0  0  0  0  0
  199.1181  177.8819  151.6917 H   0  0  0  0  0  0  0  0  0  0  0  0
  199.1013  177.4199  149.2581 H   0  0  0  0  0  0  0  0  0  0  0  0
  197.3357  178.4108  147.8150 H   0  0  0  0  0  0  0  0  0  0  0  0
  195.5778  179.8386  148.8065 H   0  0  0  0  0  0  0  0  0  0  0  0
  195.5942  180.3365  151.2685 H   0  0  0  0  0  0  0  0  0  0  0  0
  196.4143  183.0367  156.4261 H   0  0  0  0  0  0  0  0  0  0  0  0
  1  2  1  0
  2  3  2  0
  2  9  1  0
  3  4  1  0
  3 10  1  0
  4  5  1  0
  4  7  2  0
  5  6  1  0
  6 31  1  6
  6 32  1  0
  6 33  1  0
  7  8  1  0
  7 34  1  0
  8  9  2  0
  8 35  1  0
  9 36  1  0
 10 11  1  0
 10 37  1  1
 10 38  1  0
 11 12  1  0
 11 30  1  6
 11 53  1  0
 12 13  1  0
 12 39  1  1
 12 40  1  0
 13 14  1  0
 13 18  1  0
 13 41  1  6
 14 15  1  0
 14 23  1  0
 15 16  2  0
 15 17  1  0
 17 18  1  0
 17 22  2  0
 18 19  2  0
 19 20  1  0
 19 42  1  0
 20 21  2  0
 20 43  1  0
 21 22  1  0
 21 44  1  0
 22 45  1  0
 23 24  1  0
 23 46  1  1
 23 47  1  0
 24 25  2  0
 24 29  1  0
 25 26  1  0
 25 48  1  0
 26 27  2  0
 26 49  1  0
 27 28  1  0
 27 50  1  0
 28 29  2  0
 28 51  1  0
 29 52  1  0
M  CHG  1  11   1
M  END
>  <s_epik_cmdline>  (128) 
J2VwaWtfcHl0aG9uJywgJy1waCcsICc3LjAwMDAwMCcsICctcGh0JywgJzIuMDAwMDAwJywgJy1tcycsICcxNicsICctdG4nLCAnOCcsICctbWEnLCAnMjAwJywgJy1pbWFlJywgJzxpbmZpbGUubWFlPicsICctb21hZScsICc8b3V0ZmlsZS5tYWU+Jw==

>  <s_epik_input>  (128) 
W2NIXTFbY0hdW2NIXWMoT1tDSDNdKWMoYzFGKVtDSDJdW05IXVtDSDJdW0NAQEhdKGMoYzIzKVtjSF1bY0hdW2NIXVtjSF0zKU4oQzI9TylbQ0gyXWM0W2NIXVtjSF1bY0hdW2NIXVtjSF00

>  <s_i_glide_gridfile>  (128) 
ATP-Grid

>  <s_lp_Force_Field>  (128) 
OPLS_2005

>  <s_lp_Variant>  (128) 
m_270004bbb____12219716____11986586-1

>  <s_lp_label>  (128) 
1594_sdstereoexpander_1_neutralizer_1_epik_1_stereoizer_1

>  <s_m_source_file>  (128) 
ATP-VSW-LIGPREP-002-in.maegz

>  <s_sd_BIOSOLVEIT.INFINISEE\_QUERY\_NAME>  (128) 
Ref-Lig

>  <s_sd_BIOSOLVEIT.INFINISEE\_QUERY\_SMILES>  (128) 
S(c1nc2c(cc1C[NH2+]Cc3ccc(cc3)C[NH+](C)C)cccc2)Cc4ccccc4

>  <s_sd_BIOSOLVEIT.INFINISEE\_REACTION\_NAME>  (128) 
m_270004bbb

>  <s_sd_BIOSOLVEIT.INFINISEE\_REAGENT1\_SMILES>  (128) 
[R1*]NCC1N(C(=O)c2c1cccc2)Cc3ccccc3

>  <s_sd_BIOSOLVEIT.INFINISEE\_REAGENT2\_SMILES>  (128) 
[R1*]Cc1c(F)cccc1OC

>  <s_sd_BIOSOLVEIT.INFINISEE\_SPACE>  (128) 
REALSpace_44bn_2023-08

>  <s_vsw_compound_code>  (128) 
50978

>  <s_vsw_variant>  (128) 
50978-1

>  <r_epik_Charging_Adjusted_Penalty>  (128) 
0.127392800796399

>  <r_epik_Ionization_Penalty>  (128) 
0.063700000000000007

>  <r_epik_Ionization_Penalty_Charging>  (128) 
0.063700000000000007

>  <r_epik_Ionization_Penalty_Neutral>  (128) 
0

>  <r_epik_State_Penalty>  (128) 
0.063700000000000007

>  <r_i_docking_score>  (128) 
-5.4106922828064299

>  <r_i_glide_ecoul>  (128) 
-10.662351608276399

>  <r_i_glide_eff_state_penalty>  (128) 
0.063700000000000007

>  <r_i_glide_einternal>  (128) 
3.97256636619568

>  <r_i_glide_emodel>  (128) 
-62.168523347443703

>  <r_i_glide_energy>  (128) 
-43.115831375122099

>  <r_i_glide_erotb>  (128) 
0.76409230606485301

>  <r_i_glide_esite>  (128) 
-0.118364722029433

>  <r_i_glide_evdw>  (128) 
-32.453479766845703

>  <r_i_glide_gscore>  (128) 
-5.4743922828064298

>  <r_i_glide_hbond>  (128) 
-0.20000000000000001

>  <r_i_glide_ligand_efficiency>  (128) 
-0.18657559595884299

>  <r_i_glide_ligand_efficiency_ln>  (128) 
-1.2389113294446099

>  <r_i_glide_ligand_efficiency_sa>  (128) 
-0.57321934208331704

>  <r_i_glide_lipo>  (128) 
-1.9580337940763

>  <r_i_glide_metal>  (128) 
-0

>  <r_i_glide_rewards>  (128) 
-0.74005934318181699

>  <r_lp_Energy>  (128) 
41.06183

>  <r_lp_tautomer_probability>  (128) 
1

>  <r_qp_ACxDN^.5/SA>  (128) 
0.0077367

>  <r_qp_CIQPlogS>  (128) 
-5.2000000000000002

>  <r_qp_EA(eV)>  (128) 
0.41299999999999998

>  <r_qp_FISA>  (128) 
46.966000000000001

>  <r_qp_FOSA>  (128) 
162.03299999999999

>  <r_qp_IP(eV)>  (128) 
9.3339999999999996

>  <r_qp_Jm>  (128) 
0.067993412823225102

>  <r_qp_PISA>  (128) 
431.82600000000002

>  <r_qp_PSA>  (128) 
46.347000000000001

>  <r_qp_PercentHumanOralAbsorption>  (128) 
100

>  <r_qp_QPPCaco>  (128) 
885.97900000000004

>  <r_qp_QPPMDCK>  (128) 
773.10500000000002

>  <r_qp_QPlogBB>  (128) 
0.17000000000000001

>  <r_qp_QPlogHERG>  (128) 
-7.1859999999999999

>  <r_qp_QPlogKhsa>  (128) 
0.66800000000000004

>  <r_qp_QPlogKp>  (128) 
-2.254

>  <r_qp_QPlogPC16>  (128) 
13.1

>  <r_qp_QPlogPo/w>  (128) 
4.6719999999999997

>  <r_qp_QPlogPoct>  (128) 
19.106999999999999

>  <r_qp_QPlogPw>  (128) 
9.7140000000000004

>  <r_qp_QPlogS>  (128) 
-4.5049999999999999

>  <r_qp_QPpolrz>  (128) 
43.116

>  <r_qp_SASA>  (128) 
678.58299999999997

>  <r_qp_SAamideO>  (128) 
0

>  <r_qp_SAfluorine>  (128) 
37.758000000000003

>  <r_qp_WPSA>  (128) 
37.758000000000003

>  <r_qp_accptHB>  (128) 
5.25

>  <r_qp_dip^2/V>  (128) 
0.039525999999999999

>  <r_qp_dipole>  (128) 
7.0019999999999998

>  <r_qp_donorHB>  (128) 
1

>  <r_qp_glob>  (128) 
0.82275109999999996

>  <r_qp_mol_MW>  (128) 
390.45600000000002

>  <r_qp_volume>  (128) 
1240.393

>  <r_sd_BIOSOLVEIT.INFINISEE\_FTREES\_SIMILARITY>  (128) 
0.90600000000000003

>  <r_sd_BIOSOLVEIT.LOGP>  (128) 
3.2949999999999999

>  <r_sd_BIOSOLVEIT.MOLECULAR\_WEIGHT>  (128) 
391.464

>  <r_sd_BIOSOLVEIT.TPSA>  (128) 
46.149999999999999

>  <i_epik_Tot_Q>  (128) 
1

>  <i_epik_Tot_abs_Q>  (128) 
1

>  <i_f3d_flags>  (128) 
0

>  <i_i_glide_confnum>  (128) 
2

>  <i_i_glide_lignum>  (128) 
558

>  <i_i_glide_posenum>  (128) 
1

>  <i_i_glide_rotatable_bonds>  (128) 
7

>  <i_lp_mmshare_version>  (128) 
65135

>  <i_m_ct_format>  (128) 
2

>  <i_m_source_file_index>  (128) 
1594

>  <i_qp_#NandO>  (128) 
4

>  <i_qp_#acid>  (128) 
0

>  <i_qp_#amide>  (128) 
0

>  <i_qp_#amidine>  (128) 
0

>  <i_qp_#amine>  (128) 
1

>  <i_qp_#in34>  (128) 
0

>  <i_qp_#in56>  (128) 
21

>  <i_qp_#metab>  (128) 
5

>  <i_qp_#nonHatm>  (128) 
29

>  <i_qp_#noncon>  (128) 
1

>  <i_qp_#ringatoms>  (128) 
21

>  <i_qp_#rotor>  (128) 
7

>  <i_qp_#rtvFG>  (128) 
0

>  <i_qp_#stars>  (128) 
0

>  <i_qp_CNS>  (128) 
1

>  <i_qp_HumanOralAbsorption>  (128) 
3

>  <i_qp_RuleOfFive>  (128) 
0

>  <i_qp_RuleOfThree>  (128) 
0

>  <i_sd_BIOSOLVEIT.INFINISEE\_REAGENT1\_NAME>  (128) 
12219716

>  <i_sd_BIOSOLVEIT.INFINISEE\_REAGENT2\_NAME>  (128) 
11986586

>  <i_sd_BIOSOLVEIT.INFINISEE\_RESULT\_RANK>  (128) 
65404

>  <i_sd_version>  (128) 
0

>  <b_lp_Chiralities_Consistent>  (128) 
1

>  <b_sd_chiral_flag>  (128) 
0

>  <canonical_id>  (128) 
ATP-HTVS-159CD8CCFA6D

>  <compound_code>  (128) 
50978

>  <title>  (128) 
m_270004bbb____12219716____11986586

>  <variant>  (128) 
50978-1

>  <source_file>  (128) 
运行/运行/ATP-VSW/ATP-VSW-DOCK_HTVS_1-002_lib.maegz

>  <canonical_smiles>  (128) 
COc1cccc(F)c1C[NH2+]C[C@H]1c2ccccc2C(=O)N1Cc1ccccc1

>  <scaffold>  (128) 
O=C1c2ccccc2C(C[NH2+]Cc2ccccc2)N1Cc1ccccc1

>  <molecular_formula>  (128) 
C24H24FN2O2+

$$$$
ATP-HTVS-159F0F821AF9
     RDKit          3D

 52 54  0  0  0  0  0  0  0  0999 V2000
  204.4265  181.5601  160.2622 Cl  0  0  0  0  0  0  0  0  0  0  0  0
  203.0656  181.6460  159.2153 C   0  0  0  0  0  0  0  0  0  0  0  0
  202.9878  180.6333  157.8046 S   0  0  0  0  0  0  0  0  0  0  0  0
  201.4375  181.3267  157.3501 C   0  0  0  0  0  0  0  0  0  0  0  0
  200.8349  180.8298  156.0871 C   0  0  0  0  0  0  0  0  0  0  0  0
  201.5204  180.1920  155.2747 O   0  0  0  0  0  0  0  0  0  0  0  0
  199.5416  181.1358  155.8974 N   0  0  0  0  0  0  0  0  0  0  0  0
  198.6908  180.8765  154.7823 C   0  0  0  0  0  0  0  0  0  0  0  0
  197.6290  181.7687  154.4766 C   0  0  0  0  0  0  0  0  0  0  0  0
  197.4119  183.0266  155.1876 C   0  0  0  0  0  0  0  0  0  0  0  0
  197.1783  184.0256  155.8366 C   0  0  0  0  0  0  0  0  0  0  0  0
  196.7465  181.4815  153.4186 C   0  0  0  0  0  0  0  0  0  0  0  0
  196.9354  180.3368  152.6253 C   0  0  0  0  0  0  0  0  0  0  0  0
  197.9974  179.4607  152.9040 C   0  0  0  0  0  0  0  0  0  0  0  0
  198.8655  179.7178  153.9819 C   0  0  0  0  0  0  0  0  0  0  0  0
  201.0455  182.3060  158.2571 C   0  0  0  0  0  0  0  0  0  0  0  0
  199.8741  183.0960  158.1863 N   0  0  0  0  0  0  0  0  0  0  0  0
  199.7994  184.3765  158.8756 C   0  0  1  0  0  0  0  0  0  0  0  0
  198.3973  184.9427  159.0130 C   0  0  0  0  0  0  0  0  0  0  0  0
  197.3283  184.0688  159.2718 C   0  0  0  0  0  0  0  0  0  0  0  0
  195.9965  184.5152  159.1802 C   0  0  0  0  0  0  0  0  0  0  0  0
  195.7732  185.8948  159.0284 C   0  0  0  0  0  0  0  0  0  0  0  0
  196.8500  186.8156  158.8974 C   0  0  0  0  0  0  0  0  0  0  0  0
  198.1696  186.3166  158.8635 C   0  0  0  0  0  0  0  0  0  0  0  0
  194.8322  183.5123  159.2076 C   0  0  1  0  0  0  0  0  0  0  0  0
  194.8544  182.4875  158.1006 N   0  0  1  0  0  0  0  0  0  0  0  0
  196.1254  181.7258  158.0031 C   0  0  2  0  0  0  0  0  0  0  0  0
  193.7125  181.5388  158.2129 C   0  0  2  0  0  0  0  0  0  0  0  0
  201.9799  182.4603  159.3350 C   0  0  0  0  0  0  0  0  0  0  0  0
  199.1187  181.6893  156.6271 H   0  0  0  0  0  0  0  0  0  0  0  0
  196.9662  184.8566  156.4783 H   0  0  0  0  0  0  0  0  0  0  0  0
  195.9402  182.1631  153.2012 H   0  0  0  0  0  0  0  0  0  0  0  0
  196.2683  180.1445  151.7985 H   0  0  0  0  0  0  0  0  0  0  0  0
  198.1419  178.5812  152.2959 H   0  0  0  0  0  0  0  0  0  0  0  0
  199.6583  179.0139  154.1850 H   0  0  0  0  0  0  0  0  0  0  0  0
  199.4092  183.1001  157.2849 H   0  0  0  0  0  0  0  0  0  0  0  0
  200.1735  184.2865  159.8926 H   0  0  0  0  0  0  0  0  0  0  0  0
  200.4411  185.0634  158.3151 H   0  0  0  0  0  0  0  0  0  0  0  0
  197.5449  183.0128  159.4661 H   0  0  0  0  0  0  0  0  0  0  0  0
  194.7763  186.2984  159.0003 H   0  0  0  0  0  0  0  0  0  0  0  0
  196.6568  187.8705  158.8220 H   0  0  0  0  0  0  0  0  0  0  0  0
  199.0034  187.0070  158.7268 H   0  0  0  0  0  0  0  0  0  0  0  0
  194.8538  183.0225  160.1663 H   0  0  0  0  0  0  0  0  0  0  0  0
  193.8906  184.0619  159.1687 H   0  0  0  0  0  0  0  0  0  0  0  0
  196.3664  181.2204  158.9398 H   0  0  0  0  0  0  0  0  0  0  0  0
  196.9600  182.3777  157.7890 H   0  0  0  0  0  0  0  0  0  0  0  0
  196.0611  181.0230  157.1798 H   0  0  0  0  0  0  0  0  0  0  0  0
  193.7618  180.9733  159.1445 H   0  0  0  0  0  0  0  0  0  0  0  0
  193.7775  180.8197  157.3914 H   0  0  0  0  0  0  0  0  0  0  0  0
  192.7443  182.0428  158.1404 H   0  0  0  0  0  0  0  0  0  0  0  0
  201.8586  183.1618  160.1510 H   0  0  0  0  0  0  0  0  0  0  0  0
  194.6948  182.9688  157.2269 H   0  0  0  0  0  0  0  0  0  0  0  0
  1  2  1  0
  2  3  1  0
  2 29  2  0
  3  4  1  0
  4  5  1  0
  4 16  2  0
  5  6  2  0
  5  7  1  0
  7  8  1  0
  7 30  1  0
  8  9  1  0
  8 15  2  0
  9 10  1  0
  9 12  2  0
 10 11  3  0
 11 31  1  0
 12 13  1  0
 12 32  1  0
 13 14  2  0
 13 33  1  0
 14 15  1  0
 14 34  1  0
 15 35  1  0
 16 17  1  0
 16 29  1  0
 17 18  1  0
 17 36  1  0
 18 19  1  0
 18 37  1  1
 18 38  1  0
 19 20  2  0
 19 24  1  0
 20 21  1  0
 20 39  1  0
 21 22  2  0
 21 25  1  0
 22 23  1  0
 22 40  1  0
 23 24  2  0
 23 41  1  0
 24 42  1  0
 25 26  1  0
 25 43  1  1
 25 44  1  0
 26 27  1  0
 26 28  1  0
 26 52  1  6
 27 45  1  1
 27 46  1  0
 27 47  1  0
 28 48  1  1
 28 49  1  0
 28 50  1  0
 29 51  1  0
M  CHG  1  26   1
M  END
>  <s_epik_cmdline>  (129) 
J2VwaWtfcHl0aG9uJywgJy1waCcsICc3LjAwMDAwMCcsICctcGh0JywgJzIuMDAwMDAwJywgJy1tcycsICcxNicsICctdG4nLCAnOCcsICctbWEnLCAnMjAwJywgJy1pbWFlJywgJzxpbmZpbGUubWFlPicsICctb21hZScsICc8b3V0ZmlsZS5tYWU+Jw==

>  <s_epik_input>  (129) 
W2NIXTFbY0hdW2NIXVtjSF1jKEMjW0NIXSljMVtOSF1DKD1PKWMoc2MyQ2wpYyhbY0hdMilbTkhdW0NIMl1jM1tjSF1jKFtjSF1bY0hdW2NIXTMpW0NIMl1OKFtDSDNdKVtDSDNd

>  <s_i_glide_gridfile>  (129) 
ATP-Grid

>  <s_lp_Force_Field>  (129) 
OPLS_2005

>  <s_lp_Variant>  (129) 
rxn512b____EMOL524429____EMOL49851977____EMOL2873214-1

>  <s_lp_label>  (129) 
3004_sdstereoexpander_1_neutralizer_1_epik_1_stereoizer_1

>  <s_m_source_file>  (129) 
ATP-VSW-LIGPREP-002-in.maegz

>  <s_sd_BIOSOLVEIT.INFINISEE\_QUERY\_NAME>  (129) 
Ref-Lig

>  <s_sd_BIOSOLVEIT.INFINISEE\_QUERY\_SMILES>  (129) 
S(c1nc2c(cc1C[NH2+]Cc3ccc(cc3)C[NH+](C)C)cccc2)Cc4ccccc4

>  <s_sd_BIOSOLVEIT.INFINISEE\_REACTION\_NAME>  (129) 
rxn512b

>  <s_sd_BIOSOLVEIT.INFINISEE\_REAGENT1\_NAME>  (129) 
EMOL524429

>  <s_sd_BIOSOLVEIT.INFINISEE\_REAGENT1\_SMILES>  (129) 
Nc1c(C#C)cccc1

>  <s_sd_BIOSOLVEIT.INFINISEE\_REAGENT2\_NAME>  (129) 
EMOL49851977

>  <s_sd_BIOSOLVEIT.INFINISEE\_REAGENT2\_SMILES>  (129) 
BrC1=C(SC(Cl)=C1)C(=O)O

>  <s_sd_BIOSOLVEIT.INFINISEE\_REAGENT3\_NAME>  (129) 
EMOL2873214

>  <s_sd_BIOSOLVEIT.INFINISEE\_REAGENT3\_SMILES>  (129) 
N(Cc1cc(ccc1)CN)(C)C

>  <s_sd_BIOSOLVEIT.INFINISEE\_SPACE>  (129) 
eXplore_7tr_2022-12

>  <s_vsw_compound_code>  (129) 
96098

>  <s_vsw_variant>  (129) 
96098-1

>  <r_epik_Charging_Adjusted_Penalty>  (129) 
0.086140609825027206

>  <r_epik_Ionization_Penalty>  (129) 
0.043200000000000002

>  <r_epik_Ionization_Penalty_Charging>  (129) 
0.043099999999999999

>  <r_epik_Ionization_Penalty_Neutral>  (129) 
0.0001

>  <r_epik_State_Penalty>  (129) 
0.043099999999999999

>  <r_i_docking_score>  (129) 
-4.0768467193254896

>  <r_i_glide_ecoul>  (129) 
-7.5544252395629901

>  <r_i_glide_eff_state_penalty>  (129) 
0.043099999999999999

>  <r_i_glide_einternal>  (129) 
4.4706296920776403

>  <r_i_glide_emodel>  (129) 
-52.017984471473

>  <r_i_glide_energy>  (129) 
-39.193371772766099

>  <r_i_glide_erotb>  (129) 
0.87855510817451399

>  <r_i_glide_esite>  (129) 
-0.107780283815764

>  <r_i_glide_evdw>  (129) 
-31.6389465332031

>  <r_i_glide_gscore>  (129) 
-4.1199467193254904

>  <r_i_glide_hbond>  (129) 
-0.165961204198351

>  <r_i_glide_ligand_efficiency>  (129) 
-0.14058092135605099

>  <r_i_glide_ligand_efficiency_ln>  (129) 
-0.93349451881259804

>  <r_i_glide_ligand_efficiency_sa>  (129) 
-0.43190912956782701

>  <r_i_glide_lipo>  (129) 
-1.4980600450731001

>  <r_i_glide_metal>  (129) 
-0

>  <r_i_glide_rewards>  (129) 
-0.51158918181818103

>  <r_lp_Energy>  (129) 
24.521671999999999

>  <r_lp_tautomer_probability>  (129) 
0.99999274205267796

>  <r_qp_ACxDN^.5/SA>  (129) 
0.0081051000000000005

>  <r_qp_CIQPlogS>  (129) 
-4.9219999999999997

>  <r_qp_EA(eV)>  (129) 
0.88300000000000001

>  <r_qp_FISA>  (129) 
40.250999999999998

>  <r_qp_FOSA>  (129) 
209.51499999999999

>  <r_qp_IP(eV)>  (129) 
8.6489999999999991

>  <r_qp_Jm>  (129) 
0.0033553385056780799

>  <r_qp_PISA>  (129) 
330.55099999999999

>  <r_qp_PSA>  (129) 
49.869999999999997

>  <r_qp_PercentHumanOralAbsorption>  (129) 
100

>  <r_qp_QPPCaco>  (129) 
255.858

>  <r_qp_QPPMDCK>  (129) 
487.76600000000002

>  <r_qp_QPlogBB>  (129) 
0.73899999999999999

>  <r_qp_QPlogHERG>  (129) 
-7.2190000000000003

>  <r_qp_QPlogKhsa>  (129) 
0.84699999999999998

>  <r_qp_QPlogKp>  (129) 
-4.4539999999999997

>  <r_qp_QPlogPC16>  (129) 
13.695

>  <r_qp_QPlogPo/w>  (129) 
4.758

>  <r_qp_QPlogPoct>  (129) 
18.946000000000002

>  <r_qp_QPlogPw>  (129) 
8.7769999999999992

>  <r_qp_QPlogS>  (129) 
-3.6480000000000001

>  <r_qp_QPpolrz>  (129) 
42.841000000000001

>  <r_qp_SASA>  (129) 
679.98599999999999

>  <r_qp_SAamideO>  (129) 
0

>  <r_qp_SAfluorine>  (129) 
0

>  <r_qp_WPSA>  (129) 
99.668999999999997

>  <r_qp_accptHB>  (129) 
4.5

>  <r_qp_dip^2/V>  (129) 
0.00093349999999999998

>  <r_qp_dipole>  (129) 
1.0900000000000001

>  <r_qp_donorHB>  (129) 
1.5

>  <r_qp_glob>  (129) 
0.83570239999999996

>  <r_qp_mol_MW>  (129) 
423.959

>  <r_qp_volume>  (129) 
1273.7360000000001

>  <r_sd_BIOSOLVEIT.INFINISEE\_FTREES\_SIMILARITY>  (129) 
0.90300000000000002

>  <r_sd_BIOSOLVEIT.LOGP>  (129) 
3.8917000000000002

>  <r_sd_BIOSOLVEIT.MOLECULAR\_WEIGHT>  (129) 
424.97300000000001

>  <r_sd_BIOSOLVEIT.TPSA>  (129) 
45.57

>  <i_epik_Tot_Q>  (129) 
1

>  <i_epik_Tot_abs_Q>  (129) 
1

>  <i_f3d_flags>  (129) 
0

>  <i_i_glide_confnum>  (129) 
6

>  <i_i_glide_lignum>  (129) 
71

>  <i_i_glide_posenum>  (129) 
4

>  <i_i_glide_rotatable_bonds>  (129) 
9

>  <i_lp_mmshare_version>  (129) 
65135

>  <i_m_ct_format>  (129) 
2

>  <i_m_source_file_index>  (129) 
3004

>  <i_qp_#NandO>  (129) 
4

>  <i_qp_#acid>  (129) 
0

>  <i_qp_#amide>  (129) 
0

>  <i_qp_#amidine>  (129) 
0

>  <i_qp_#amine>  (129) 
2

>  <i_qp_#in34>  (129) 
0

>  <i_qp_#in56>  (129) 
17

>  <i_qp_#metab>  (129) 
6

>  <i_qp_#nonHatm>  (129) 
29

>  <i_qp_#noncon>  (129) 
0

>  <i_qp_#ringatoms>  (129) 
17

>  <i_qp_#rotor>  (129) 
8

>  <i_qp_#rtvFG>  (129) 
0

>  <i_qp_#stars>  (129) 
0

>  <i_qp_CNS>  (129) 
2

>  <i_qp_HumanOralAbsorption>  (129) 
3

>  <i_qp_RuleOfFive>  (129) 
0

>  <i_qp_RuleOfThree>  (129) 
0

>  <i_sd_BIOSOLVEIT.INFINISEE\_RESULT\_RANK>  (129) 
85939

>  <i_sd_version>  (129) 
0

>  <b_lp_Chiralities_Consistent>  (129) 
1

>  <b_sd_chiral_flag>  (129) 
0

>  <canonical_id>  (129) 
ATP-HTVS-159F0F821AF9

>  <compound_code>  (129) 
96098

>  <title>  (129) 
rxn512b____EMOL524429____EMOL49851977____EMOL2873214

>  <variant>  (129) 
96098-1

>  <source_file>  (129) 
运行/运行/ATP-VSW/ATP-VSW-DOCK_HTVS_1-003_lib/ATP-VSW-DOCK_HTVS_1-003_lib.mae

>  <canonical_smiles>  (129) 
C#Cc1ccccc1NC(=O)c1sc(Cl)cc1NCc1cccc(C[NH+](C)C)c1

>  <scaffold>  (129) 
O=C(Nc1ccccc1)c1sccc1NCc1ccccc1

>  <molecular_formula>  (129) 
C23H23ClN3OS+

$$$$
ATP-HTVS-15A0030054C0
     RDKit          3D

 60 63  0  0  0  0  0  0  0  0999 V2000
  196.8886  186.1914  155.5060 O   0  0  0  0  0  0  0  0  0  0  0  0
  197.4203  185.1167  155.2805 C   0  0  0  0  0  0  0  0  0  0  0  0
  197.6544  184.1682  156.2122 N   0  0  0  0  0  0  0  0  0  0  0  0
  196.9059  183.9649  157.4115 C   0  0  0  0  0  0  0  0  0  0  0  0
  196.3231  182.6903  157.6431 C   0  0  0  0  0  0  0  0  0  0  0  0
  196.4696  181.5679  156.8075 N   0  0  0  0  0  0  0  0  0  0  0  0
  196.5908  181.5004  155.3577 C   0  0  1  0  0  0  0  0  0  0  0  0
  197.5824  180.4613  154.8273 C   0  0  0  0  0  0  0  0  0  0  0  0
  197.8349  180.4534  153.4359 C   0  0  0  0  0  0  0  0  0  0  0  0
  198.7571  179.5388  152.8733 C   0  0  0  0  0  0  0  0  0  0  0  0
  199.4068  178.5884  153.7019 C   0  0  0  0  0  0  0  0  0  0  0  0
  199.1081  178.5563  155.0813 C   0  0  0  0  0  0  0  0  0  0  0  0
  198.2486  179.5198  155.6475 C   0  0  0  0  0  0  0  0  0  0  0  0
  200.4184  177.5977  153.1156 C   0  0  1  0  0  0  0  0  0  0  0  0
  201.8277  177.7884  153.5841 N   0  0  2  0  0  0  0  0  0  0  0  0
  202.0619  177.4939  155.0282 C   0  0  2  0  0  0  0  0  0  0  0  0
  202.3838  179.1071  153.2058 C   0  0  2  0  0  0  0  0  0  0  0  0
  195.5656  182.4840  158.8243 C   0  0  0  0  0  0  0  0  0  0  0  0
  195.3303  183.4455  159.7273 N   0  0  0  0  0  0  0  0  0  0  0  0
  195.9049  184.6590  159.5341 C   0  0  0  0  0  0  0  0  0  0  0  0
  196.7367  184.9470  158.4072 C   0  0  0  0  0  0  0  0  0  0  0  0
  197.3769  186.2109  158.3065 C   0  0  0  0  0  0  0  0  0  0  0  0
  197.1139  187.2044  159.2534 C   0  0  0  0  0  0  0  0  0  0  0  0
  196.2822  186.9374  160.3530 C   0  0  0  0  0  0  0  0  0  0  0  0
  195.6974  185.6614  160.4924 C   0  0  0  0  0  0  0  0  0  0  0  0
  197.8469  184.7481  153.9505 C   0  0  0  0  0  0  0  0  0  0  0  0
  198.0321  184.5449  152.7563 C   0  0  0  0  0  0  0  0  0  0  0  0
  198.1775  184.3521  151.3352 C   0  0  0  0  0  0  0  0  0  0  0  0
  197.0410  184.1946  150.5142 C   0  0  0  0  0  0  0  0  0  0  0  0
  197.2139  183.9859  149.1333 C   0  0  0  0  0  0  0  0  0  0  0  0
  198.5130  183.9346  148.5891 C   0  0  0  0  0  0  0  0  0  0  0  0
  199.6408  184.0971  149.4169 C   0  0  0  0  0  0  0  0  0  0  0  0
  199.4729  184.3097  150.7939 C   0  0  0  0  0  0  0  0  0  0  0  0
  198.1062  183.3383  155.8671 H   0  0  0  0  0  0  0  0  0  0  0  0
  196.1141  180.7052  157.1959 H   0  0  0  0  0  0  0  0  0  0  0  0
  195.6088  181.2482  154.9529 H   0  0  0  0  0  0  0  0  0  0  0  0
  196.8947  182.4276  154.9106 H   0  0  0  0  0  0  0  0  0  0  0  0
  197.3138  181.1515  152.7914 H   0  0  0  0  0  0  0  0  0  0  0  0
  198.9361  179.5581  151.8025 H   0  0  0  0  0  0  0  0  0  0  0  0
  199.5681  177.8153  155.7300 H   0  0  0  0  0  0  0  0  0  0  0  0
  198.1104  179.5109  156.7204 H   0  0  0  0  0  0  0  0  0  0  0  0
  200.0802  176.5799  153.3140 H   0  0  0  0  0  0  0  0  0  0  0  0
  200.4096  177.6864  152.0265 H   0  0  0  0  0  0  0  0  0  0  0  0
  201.5413  178.2071  155.6672 H   0  0  0  0  0  0  0  0  0  0  0  0
  203.1422  177.4930  155.2546 H   0  0  0  0  0  0  0  0  0  0  0  0
  201.6771  176.4990  155.2604 H   0  0  0  0  0  0  0  0  0  0  0  0
  201.8336  179.9187  153.6868 H   0  0  0  0  0  0  0  0  0  0  0  0
  202.3466  179.2658  152.1242 H   0  0  0  0  0  0  0  0  0  0  0  0
  203.4252  179.1864  153.5219 H   0  0  0  0  0  0  0  0  0  0  0  0
  195.1307  181.5121  159.0547 H   0  0  0  0  0  0  0  0  0  0  0  0
  198.0468  186.4260  157.4858 H   0  0  0  0  0  0  0  0  0  0  0  0
  197.5722  188.1682  159.1183 H   0  0  0  0  0  0  0  0  0  0  0  0
  196.1344  187.7072  161.1059 H   0  0  0  0  0  0  0  0  0  0  0  0
  195.1064  185.4354  161.3642 H   0  0  0  0  0  0  0  0  0  0  0  0
  196.0470  184.2335  150.9435 H   0  0  0  0  0  0  0  0  0  0  0  0
  196.3532  183.8652  148.4939 H   0  0  0  0  0  0  0  0  0  0  0  0
  198.6479  183.7703  147.5336 H   0  0  0  0  0  0  0  0  0  0  0  0
  200.6364  184.0610  149.0061 H   0  0  0  0  0  0  0  0  0  0  0  0
  200.3300  184.4386  151.4415 H   0  0  0  0  0  0  0  0  0  0  0  0
  202.3662  177.1081  153.0599 H   0  0  0  0  0  0  0  0  0  0  0  0
  1  2  2  0
  2  3  1  0
  2 26  1  0
  3  4  1  0
  3 34  1  0
  4  5  2  0
  4 21  1  0
  5  6  1  0
  5 18  1  0
  6  7  1  0
  6 35  1  0
  7  8  1  0
  7 36  1  6
  7 37  1  0
  8  9  1  0
  8 13  2  0
  9 10  2  0
  9 38  1  0
 10 11  1  0
 10 39  1  0
 11 12  2  0
 11 14  1  0
 12 13  1  0
 12 40  1  0
 13 41  1  0
 14 15  1  0
 14 42  1  6
 14 43  1  0
 15 16  1  0
 15 17  1  0
 15 60  1  6
 16 44  1  1
 16 45  1  0
 16 46  1  0
 17 47  1  1
 17 48  1  0
 17 49  1  0
 18 19  2  0
 18 50  1  0
 19 20  1  0
 20 21  1  0
 20 25  2  0
 21 22  2  0
 22 23  1  0
 22 51  1  0
 23 24  2  0
 23 52  1  0
 24 25  1  0
 24 53  1  0
 25 54  1  0
 26 27  3  0
 27 28  1  0
 28 29  2  0
 28 33  1  0
 29 30  1  0
 29 55  1  0
 30 31  2  0
 30 56  1  0
 31 32  1  0
 31 57  1  0
 32 33  2  0
 32 58  1  0
 33 59  1  0
M  CHG  1  15   1
M  END
>  <s_epik_cmdline>  (130) 
J2VwaWtfcHl0aG9uJywgJy1waCcsICc3LjAwMDAwMCcsICctcGh0JywgJzIuMDAwMDAwJywgJy1tcycsICcxNicsICctdG4nLCAnOCcsICctbWEnLCAnMjAwJywgJy1pbWFlJywgJzxpbmZpbGUubWFlPicsICctb21hZScsICc8b3V0ZmlsZS5tYWU+Jw==

>  <s_epik_input>  (130) 
W2NIXTFbY0hdW2NIXVtjSF1bY0hdYzFDI0NDKD1PKVtOSF1jKGMoYzIzKVtjSF1bY0hdW2NIXVtjSF0zKWMoW2NIXW4yKVtOSF1bQ0gyXWM0W2NIXVtjSF1jKFtjSF1bY0hdNClbQ0gyXU4oW0NIM10pW0NIM10=

>  <s_i_glide_gridfile>  (130) 
ATP-Grid

>  <s_lp_Force_Field>  (130) 
OPLS_2005

>  <s_lp_Variant>  (130) 
rxn502b____EMOL530803____EMOL13728749____EMOL50155899-1

>  <s_lp_label>  (130) 
2171_sdstereoexpander_1_neutralizer_1_epik_1_stereoizer_1

>  <s_m_source_file>  (130) 
ATP-VSW-LIGPREP-001-in.maegz

>  <s_sd_BIOSOLVEIT.INFINISEE\_QUERY\_NAME>  (130) 
Ref-Lig

>  <s_sd_BIOSOLVEIT.INFINISEE\_QUERY\_SMILES>  (130) 
S(c1nc2c(cc1C[NH2+]Cc3ccc(cc3)C[NH+](C)C)cccc2)Cc4ccccc4

>  <s_sd_BIOSOLVEIT.INFINISEE\_REACTION\_NAME>  (130) 
rxn502b

>  <s_sd_BIOSOLVEIT.INFINISEE\_REAGENT1\_NAME>  (130) 
EMOL530803

>  <s_sd_BIOSOLVEIT.INFINISEE\_REAGENT1\_SMILES>  (130) 
O=C(O)C#Cc1ccccc1

>  <s_sd_BIOSOLVEIT.INFINISEE\_REAGENT2\_NAME>  (130) 
EMOL13728749

>  <s_sd_BIOSOLVEIT.INFINISEE\_REAGENT2\_SMILES>  (130) 
Brc1c(N)c2c(nc1)cccc2

>  <s_sd_BIOSOLVEIT.INFINISEE\_REAGENT3\_NAME>  (130) 
EMOL50155899

>  <s_sd_BIOSOLVEIT.INFINISEE\_REAGENT3\_SMILES>  (130) 
N(Cc1ccc(cc1)CN)(C)C

>  <s_sd_BIOSOLVEIT.INFINISEE\_SPACE>  (130) 
eXplore_7tr_2022-12

>  <s_vsw_compound_code>  (130) 
69441

>  <s_vsw_variant>  (130) 
69441-1

>  <r_epik_Charging_Adjusted_Penalty>  (130) 
0.15433201618953099

>  <r_epik_Ionization_Penalty>  (130) 
0.11509999999999999

>  <r_epik_Ionization_Penalty_Charging>  (130) 
0.039199999999999999

>  <r_epik_Ionization_Penalty_Neutral>  (130) 
0.075899999999999995

>  <r_epik_State_Penalty>  (130) 
0.11509999999999999

>  <r_i_docking_score>  (130) 
-4.2615817908758196

>  <r_i_glide_ecoul>  (130) 
-7.1053194999694798

>  <r_i_glide_eff_state_penalty>  (130) 
0.11509999999999999

>  <r_i_glide_einternal>  (130) 
6.9440178871154803

>  <r_i_glide_emodel>  (130) 
-53.656851486986

>  <r_i_glide_energy>  (130) 
-42.048717021942103

>  <r_i_glide_erotb>  (130) 
0.73526490629980201

>  <r_i_glide_esite>  (130) 
-0.107893012288903

>  <r_i_glide_evdw>  (130) 
-34.943397521972699

>  <r_i_glide_gscore>  (130) 
-4.3766817908758204

>  <r_i_glide_hbond>  (130) 
-0.16

>  <r_i_glide_ligand_efficiency>  (130) 
-0.12913884214775201

>  <r_i_glide_ligand_efficiency_ln>  (130) 
-0.94775372500117805

>  <r_i_glide_ligand_efficiency_sa>  (130) 
-0.41421726904205602

>  <r_i_glide_lipo>  (130) 
-1.4666927430938801

>  <r_i_glide_metal>  (130) 
-0

>  <r_i_glide_rewards>  (130) 
-0.56439314069877999

>  <r_lp_Energy>  (130) 
33.440387000000001

>  <r_qp_ACxDN^.5/SA>  (130) 
0.011964300000000001

>  <r_qp_CIQPlogS>  (130) 
-5.6639999999999997

>  <r_qp_EA(eV)>  (130) 
0.876

>  <r_qp_FISA>  (130) 
75.332999999999998

>  <r_qp_FOSA>  (130) 
216.87799999999999

>  <r_qp_IP(eV)>  (130) 
8.2829999999999995

>  <r_qp_Jm>  (130) 
0.0073872940353837896

>  <r_qp_PISA>  (130) 
476.11000000000001

>  <r_qp_PSA>  (130) 
61.325000000000003

>  <r_qp_PercentHumanOralAbsorption>  (130) 
100

>  <r_qp_QPPCaco>  (130) 
476.88600000000002

>  <r_qp_QPPMDCK>  (130) 
245.82900000000001

>  <r_qp_QPlogBB>  (130) 
-0.32300000000000001

>  <r_qp_QPlogHERG>  (130) 
-7.9109999999999996

>  <r_qp_QPlogKhsa>  (130) 
0.77800000000000002

>  <r_qp_QPlogKp>  (130) 
-2.5249999999999999

>  <r_qp_QPlogPC16>  (130) 
15.726000000000001

>  <r_qp_QPlogPo/w>  (130) 
4.7599999999999998

>  <r_qp_QPlogPoct>  (130) 
23.369

>  <r_qp_QPlogPw>  (130) 
12.885999999999999

>  <r_qp_QPlogS>  (130) 
-5.2439999999999998

>  <r_qp_QPpolrz>  (130) 
49.631999999999998

>  <r_qp_SASA>  (130) 
768.32100000000003

>  <r_qp_SAamideO>  (130) 
0

>  <r_qp_SAfluorine>  (130) 
0

>  <r_qp_WPSA>  (130) 
0

>  <r_qp_accptHB>  (130) 
6.5

>  <r_qp_dip^2/V>  (130) 
0.035296500000000001

>  <r_qp_dipole>  (130) 
7.0510000000000002

>  <r_qp_donorHB>  (130) 
2

>  <r_qp_glob>  (130) 
0.79098690000000005

>  <r_qp_mol_MW>  (130) 
434.54000000000002

>  <r_qp_volume>  (130) 
1408.7049999999999

>  <r_sd_BIOSOLVEIT.INFINISEE\_FTREES\_SIMILARITY>  (130) 
0.93899999999999995

>  <r_sd_BIOSOLVEIT.LOGP>  (130) 
3.4815999999999998

>  <r_sd_BIOSOLVEIT.MOLECULAR\_WEIGHT>  (130) 
435.548

>  <r_sd_BIOSOLVEIT.TPSA>  (130) 
58.460000000000001

>  <i_epik_Tot_Q>  (130) 
1

>  <i_epik_Tot_abs_Q>  (130) 
1

>  <i_f3d_flags>  (130) 
0

>  <i_i_glide_confnum>  (130) 
7

>  <i_i_glide_lignum>  (130) 
682

>  <i_i_glide_posenum>  (130) 
11

>  <i_i_glide_rotatable_bonds>  (130) 
9

>  <i_lp_mmshare_version>  (130) 
65135

>  <i_m_ct_format>  (130) 
2

>  <i_m_source_file_index>  (130) 
2171

>  <i_qp_#NandO>  (130) 
5

>  <i_qp_#acid>  (130) 
0

>  <i_qp_#amide>  (130) 
0

>  <i_qp_#amidine>  (130) 
0

>  <i_qp_#amine>  (130) 
1

>  <i_qp_#in34>  (130) 
0

>  <i_qp_#in56>  (130) 
22

>  <i_qp_#metab>  (130) 
6

>  <i_qp_#nonHatm>  (130) 
33

>  <i_qp_#noncon>  (130) 
0

>  <i_qp_#ringatoms>  (130) 
22

>  <i_qp_#rotor>  (130) 
8

>  <i_qp_#rtvFG>  (130) 
0

>  <i_qp_#stars>  (130) 
1

>  <i_qp_CNS>  (130) 
1

>  <i_qp_HumanOralAbsorption>  (130) 
3

>  <i_qp_RuleOfFive>  (130) 
0

>  <i_qp_RuleOfThree>  (130) 
0

>  <i_sd_BIOSOLVEIT.INFINISEE\_RESULT\_RANK>  (130) 
1434

>  <i_sd_version>  (130) 
0

>  <b_lp_Chiralities_Consistent>  (130) 
1

>  <b_sd_chiral_flag>  (130) 
0

>  <canonical_id>  (130) 
ATP-HTVS-15A0030054C0

>  <compound_code>  (130) 
69441

>  <title>  (130) 
rxn502b____EMOL530803____EMOL13728749____EMOL50155899

>  <variant>  (130) 
69441-1

>  <source_file>  (130) 
运行/运行/ATP-VSW/ATP-VSW-DOCK_HTVS_1-001_lib/ATP-VSW-DOCK_HTVS_1-001_lib

>  <canonical_smiles>  (130) 
C[NH+](C)Cc1ccc(CNc2cnc3ccccc3c2NC(=O)C#Cc2ccccc2)cc1

>  <scaffold>  (130) 
O=C(C#Cc1ccccc1)Nc1c(NCc2ccccc2)cnc2ccccc12

>  <molecular_formula>  (130) 
C28H27N4O+

$$$$
ATP-HTVS-15F2A5DBBD51
     RDKit          3D

 63 65  0  0  0  0  0  0  0  0999 V2000
  199.3425  185.4361  147.9242 Cl  0  0  0  0  0  0  0  0  0  0  0  0
  198.4543  184.4120  148.9920 C   0  0  0  0  0  0  0  0  0  0  0  0
  197.8762  184.9016  150.1882 C   0  0  0  0  0  0  0  0  0  0  0  0
  197.1522  184.0266  151.0255 C   0  0  0  0  0  0  0  0  0  0  0  0
  196.9901  182.6680  150.6806 C   0  0  0  0  0  0  0  0  0  0  0  0
  196.2439  181.8845  151.5349 O   0  0  0  0  0  0  0  0  0  0  0  0
  195.9633  180.5339  151.1648 C   0  0  1  0  0  0  0  0  0  0  0  0
  197.1959  179.7209  151.4058 C   0  0  0  0  0  0  0  0  0  0  0  0
  197.8066  179.9217  152.5998 O   0  0  0  0  0  0  0  0  0  0  0  0
  198.8846  179.0969  152.6638 C   0  0  0  0  0  0  0  0  0  0  0  0
  198.9714  178.3754  151.4976 C   0  0  0  0  0  0  0  0  0  0  0  0
  197.8866  178.7991  150.6718 C   0  0  0  0  0  0  0  0  0  0  0  0
  199.6550  179.1675  153.9502 C   0  0  1  0  0  0  0  0  0  0  0  0
  198.9490  178.3958  155.0447 N   0  0  1  0  0  0  0  0  0  0  0  0
  199.8104  177.8050  156.1158 C   0  0  1  0  0  0  0  0  0  0  0  0
  200.6973  176.6464  155.6629 C   0  0  0  0  0  0  0  0  0  0  0  0
  201.4802  175.9327  156.6042 C   0  0  0  0  0  0  0  0  0  0  0  0
  202.3904  174.9296  156.1721 C   0  0  0  0  0  0  0  0  0  0  0  0
  202.5613  174.7458  154.7622 C   0  0  0  0  0  0  0  0  0  0  0  0
  201.7914  175.4749  153.8418 C   0  0  0  0  0  0  0  0  0  0  0  0
  200.7912  176.3310  154.2981 C   0  0  0  0  0  0  0  0  0  0  0  0
  203.4882  173.6514  154.2097 C   0  0  1  0  0  0  0  0  0  0  0  0
  202.7257  172.7338  153.3095 N   0  0  2  0  0  0  0  0  0  0  0  0
  202.7345  173.0461  151.8524 C   0  0  2  0  0  0  0  0  0  0  0  0
  201.4496  172.2312  153.8210 C   0  0  2  0  0  0  0  0  0  0  0  0
  197.7539  179.1068  155.5823 C   0  0  1  0  0  0  0  0  0  0  0  0
  198.1496  180.3367  156.4314 C   0  0  2  0  0  0  0  0  0  0  0  0
  197.5841  182.1946  149.4854 C   0  0  0  0  0  0  0  0  0  0  0  0
  198.3086  183.0565  148.6524 C   0  0  0  0  0  0  0  0  0  0  0  0
  198.0275  186.3593  150.5740 C   0  0  2  0  0  0  0  0  0  0  0  0
  196.7094  184.3908  151.9422 H   0  0  0  0  0  0  0  0  0  0  0  0
  195.1543  180.1678  151.7980 H   0  0  0  0  0  0  0  0  0  0  0  0
  195.5983  180.4489  150.1373 H   0  0  0  0  0  0  0  0  0  0  0  0
  199.7244  177.6448  151.2389 H   0  0  0  0  0  0  0  0  0  0  0  0
  197.6444  178.4862  149.6636 H   0  0  0  0  0  0  0  0  0  0  0  0
  200.6497  178.7487  153.7628 H   0  0  0  0  0  0  0  0  0  0  0  0
  199.7912  180.1994  154.2543 H   0  0  0  0  0  0  0  0  0  0  0  0
  200.4333  178.5933  156.5548 H   0  0  0  0  0  0  0  0  0  0  0  0
  199.1689  177.4117  156.9064 H   0  0  0  0  0  0  0  0  0  0  0  0
  201.3917  176.1387  157.6675 H   0  0  0  0  0  0  0  0  0  0  0  0
  202.9240  174.3385  156.8833 H   0  0  0  0  0  0  0  0  0  0  0  0
  201.8945  175.3972  152.7833 H   0  0  0  0  0  0  0  0  0  0  0  0
  200.1793  176.7811  153.5331 H   0  0  0  0  0  0  0  0  0  0  0  0
  204.3393  174.1214  153.6985 H   0  0  0  0  0  0  0  0  0  0  0  0
  203.8910  173.0736  155.0463 H   0  0  0  0  0  0  0  0  0  0  0  0
  202.1007  173.8718  151.6037 H   0  0  0  0  0  0  0  0  0  0  0  0
  202.3631  172.1761  151.2882 H   0  0  0  0  0  0  0  0  0  0  0  0
  203.7620  173.2266  151.4915 H   0  0  0  0  0  0  0  0  0  0  0  0
  200.6846  172.9854  153.8534 H   0  0  0  0  0  0  0  0  0  0  0  0
  201.5703  171.8037  154.8114 H   0  0  0  0  0  0  0  0  0  0  0  0
  201.0938  171.4312  153.1850 H   0  0  0  0  0  0  0  0  0  0  0  0
  197.0793  179.4392  154.7912 H   0  0  0  0  0  0  0  0  0  0  0  0
  197.1481  178.4006  156.1080 H   0  0  0  0  0  0  0  0  0  0  0  0
  197.2528  180.8482  156.7819 H   0  0  0  0  0  0  0  0  0  0  0  0
  198.7262  181.0670  155.8681 H   0  0  0  0  0  0  0  0  0  0  0  0
  198.7292  180.0538  157.3126 H   0  0  0  0  0  0  0  0  0  0  0  0
  197.5047  181.1683  149.1708 H   0  0  0  0  0  0  0  0  0  0  0  0
  198.7487  182.6730  147.7439 H   0  0  0  0  0  0  0  0  0  0  0  0
  197.5572  186.5680  151.5348 H   0  0  0  0  0  0  0  0  0  0  0  0
  197.5592  186.9921  149.8202 H   0  0  0  0  0  0  0  0  0  0  0  0
  199.0824  186.6258  150.6483 H   0  0  0  0  0  0  0  0  0  0  0  0
  203.2542  171.8657  153.3821 H   0  0  0  0  0  0  0  0  0  0  0  0
  198.5589  177.5759  154.6199 H   0  0  0  0  0  0  0  0  0  0  0  0
  1  2  1  0
  2  3  2  0
  2 29  1  0
  3  4  1  0
  3 30  1  0
  4  5  2  0
  4 31  1  0
  5  6  1  0
  5 28  1  0
  6  7  1  0
  7  8  1  0
  7 32  1  1
  7 33  1  0
  8  9  1  0
  8 12  2  0
  9 10  1  0
 10 11  2  0
 10 13  1  0
 11 12  1  0
 11 34  1  0
 12 35  1  0
 13 14  1  0
 13 36  1  6
 13 37  1  0
 14 15  1  0
 14 26  1  0
 14 63  1  6
 15 16  1  0
 15 38  1  1
 15 39  1  0
 16 17  1  0
 16 21  2  0
 17 18  2  0
 17 40  1  0
 18 19  1  0
 18 41  1  0
 19 20  2  0
 19 22  1  0
 20 21  1  0
 20 42  1  0
 21 43  1  0
 22 23  1  0
 22 44  1  6
 22 45  1  0
 23 24  1  0
 23 25  1  0
 23 62  1  6
 24 46  1  1
 24 47  1  0
 24 48  1  0
 25 49  1  1
 25 50  1  0
 25 51  1  0
 26 27  1  0
 26 52  1  6
 26 53  1  0
 27 54  1  1
 27 55  1  0
 27 56  1  0
 28 29  2  0
 28 57  1  0
 29 58  1  0
 30 59  1  1
 30 60  1  0
 30 61  1  0
M  CHG  2  14   1  23   1
M  END
>  <s_epik_cmdline>  (131) 
J2VwaWtfcHl0aG9uJywgJy1waCcsICc3LjAwMDAwMCcsICctcGh0JywgJzIuMDAwMDAwJywgJy1tcycsICcxNicsICctdG4nLCAnOCcsICctbWEnLCAnMjAwJywgJy1pbWFlJywgJzxpbmZpbGUubWFlPicsICctb21hZScsICc8b3V0ZmlsZS5tYWU+Jw==

>  <s_epik_input>  (131) 
Q2xjMWMoW0NIM10pW2NIXWMoW2NIXVtjSF0xKU9bQ0gyXWMyb2MoW2NIXVtjSF0yKVtDSDJdTihbQ0gyXVtDSDNdKVtDSDJdYzNbY0hdW2NIXWMoW2NIXVtjSF0zKVtDSDJdTihbQ0gzXSlbQ0gzXQ==

>  <s_i_glide_gridfile>  (131) 
ATP-Grid

>  <s_lp_Force_Field>  (131) 
OPLS_2005

>  <s_lp_Variant>  (131) 
m_270004bca____10206044____24714584-1

>  <s_lp_label>  (131) 
2133_sdstereoexpander_1_neutralizer_1_epik_1_stereoizer_1

>  <s_m_source_file>  (131) 
ATP-VSW-LIGPREP-001-in.maegz

>  <s_sd_BIOSOLVEIT.INFINISEE\_QUERY\_NAME>  (131) 
Ref-Lig

>  <s_sd_BIOSOLVEIT.INFINISEE\_QUERY\_SMILES>  (131) 
S(c1nc2c(cc1C[NH2+]Cc3ccc(cc3)C[NH+](C)C)cccc2)Cc4ccccc4

>  <s_sd_BIOSOLVEIT.INFINISEE\_REACTION\_NAME>  (131) 
m_270004bca

>  <s_sd_BIOSOLVEIT.INFINISEE\_REAGENT1\_SMILES>  (131) 
[R1*]N(Cc1ccc(cc1)CN(C)C)CC

>  <s_sd_BIOSOLVEIT.INFINISEE\_REAGENT2\_SMILES>  (131) 
[R1*]CC=1OC(=CC1)COc2cc(c(Cl)cc2)C

>  <s_sd_BIOSOLVEIT.INFINISEE\_SPACE>  (131) 
REALSpace_44bn_2023-08

>  <s_vsw_compound_code>  (131) 
68225

>  <s_vsw_variant>  (131) 
68225-1

>  <r_epik_Charging_Adjusted_Penalty>  (131) 
0.213499883833909

>  <r_epik_Ionization_Penalty>  (131) 
0.1071

>  <r_epik_Ionization_Penalty_Charging>  (131) 
0.1071

>  <r_epik_Ionization_Penalty_Neutral>  (131) 
0

>  <r_epik_State_Penalty>  (131) 
0.10639999999999999

>  <r_i_docking_score>  (131) 
-5.7557748381002902

>  <r_i_glide_ecoul>  (131) 
-12.4767665863037

>  <r_i_glide_eff_state_penalty>  (131) 
0.10639999999999999

>  <r_i_glide_einternal>  (131) 
8.1988420486450195

>  <r_i_glide_emodel>  (131) 
-64.749063689654704

>  <r_i_glide_energy>  (131) 
-44.437051773071303

>  <r_i_glide_erotb>  (131) 
0.86368094306671905

>  <r_i_glide_esite>  (131) 
-0.15120297970097499

>  <r_i_glide_evdw>  (131) 
-31.960285186767599

>  <r_i_glide_gscore>  (131) 
-5.8621748381002901

>  <r_i_glide_hbond>  (131) 
-0.189170765608911

>  <r_i_glide_ligand_efficiency>  (131) 
-0.19185916127000999

>  <r_i_glide_ligand_efficiency_ln>  (131) 
-1.3077747574062599

>  <r_i_glide_ligand_efficiency_sa>  (131) 
-0.59615102178734203

>  <r_i_glide_lipo>  (131) 
-1.9818238340277401

>  <r_i_glide_metal>  (131) 
-0

>  <r_i_glide_rewards>  (131) 
-0.93412895454545297

>  <r_lp_Energy>  (131) 
16.922808

>  <r_lp_tautomer_probability>  (131) 
1

>  <r_qp_ACxDN^.5/SA>  (131) 
0

>  <r_qp_CIQPlogS>  (131) 
-4.6280000000000001

>  <r_qp_EA(eV)>  (131) 
-0.047

>  <r_qp_FISA>  (131) 
3.7469999999999999

>  <r_qp_FOSA>  (131) 
405.77300000000002

>  <r_qp_IP(eV)>  (131) 
8.8840000000000003

>  <r_qp_Jm>  (131) 
0.112439290243303

>  <r_qp_PISA>  (131) 
215.56800000000001

>  <r_qp_PSA>  (131) 
21.463000000000001

>  <r_qp_PercentHumanOralAbsorption>  (131) 
100

>  <r_qp_QPPCaco>  (131) 
567.75900000000001

>  <r_qp_QPPMDCK>  (131) 
677.57500000000005

>  <r_qp_QPlogBB>  (131) 
0.86499999999999999

>  <r_qp_QPlogHERG>  (131) 
-6.2590000000000003

>  <r_qp_QPlogKhsa>  (131) 
0.67800000000000005

>  <r_qp_QPlogKp>  (131) 
-3.9940000000000002

>  <r_qp_QPlogPC16>  (131) 
12.564

>  <r_qp_QPlogPo/w>  (131) 
4.8710000000000004

>  <r_qp_QPlogPoct>  (131) 
16.800000000000001

>  <r_qp_QPlogPw>  (131) 
5.8390000000000004

>  <r_qp_QPlogS>  (131) 
-2.585

>  <r_qp_QPpolrz>  (131) 
43.100999999999999

>  <r_qp_SASA>  (131) 
682.51199999999994

>  <r_qp_SAamideO>  (131) 
0

>  <r_qp_SAfluorine>  (131) 
0

>  <r_qp_WPSA>  (131) 
57.423999999999999

>  <r_qp_accptHB>  (131) 
5.25

>  <r_qp_dip^2/V>  (131) 
0.0048859000000000003

>  <r_qp_dipole>  (131) 
2.5590000000000002

>  <r_qp_donorHB>  (131) 
0

>  <r_qp_glob>  (131) 
0.86114389999999996

>  <r_qp_mol_MW>  (131) 
426.98500000000001

>  <r_qp_volume>  (131) 
1339.7739999999999

>  <r_sd_BIOSOLVEIT.INFINISEE\_FTREES\_SIMILARITY>  (131) 
0.90100000000000002

>  <r_sd_BIOSOLVEIT.LOGP>  (131) 
3.0699200000000002

>  <r_sd_BIOSOLVEIT.MOLECULAR\_WEIGHT>  (131) 
429.00099999999998

>  <r_sd_BIOSOLVEIT.TPSA>  (131) 
31.25

>  <i_epik_Tot_Q>  (131) 
2

>  <i_epik_Tot_abs_Q>  (131) 
2

>  <i_f3d_flags>  (131) 
0

>  <i_i_glide_confnum>  (131) 
12

>  <i_i_glide_lignum>  (131) 
671

>  <i_i_glide_posenum>  (131) 
18

>  <i_i_glide_rotatable_bonds>  (131) 
10

>  <i_lp_mmshare_version>  (131) 
65135

>  <i_m_ct_format>  (131) 
2

>  <i_m_source_file_index>  (131) 
2133

>  <i_qp_#NandO>  (131) 
4

>  <i_qp_#acid>  (131) 
0

>  <i_qp_#amide>  (131) 
0

>  <i_qp_#amidine>  (131) 
0

>  <i_qp_#amine>  (131) 
2

>  <i_qp_#in34>  (131) 
0

>  <i_qp_#in56>  (131) 
17

>  <i_qp_#metab>  (131) 
9

>  <i_qp_#nonHatm>  (131) 
30

>  <i_qp_#noncon>  (131) 
0

>  <i_qp_#ringatoms>  (131) 
17

>  <i_qp_#rotor>  (131) 
10

>  <i_qp_#rtvFG>  (131) 
0

>  <i_qp_#stars>  (131) 
2

>  <i_qp_CNS>  (131) 
2

>  <i_qp_HumanOralAbsorption>  (131) 
3

>  <i_qp_RuleOfFive>  (131) 
0

>  <i_qp_RuleOfThree>  (131) 
1

>  <i_sd_BIOSOLVEIT.INFINISEE\_REAGENT1\_NAME>  (131) 
10206044

>  <i_sd_BIOSOLVEIT.INFINISEE\_REAGENT2\_NAME>  (131) 
24714584

>  <i_sd_BIOSOLVEIT.INFINISEE\_RESULT\_RANK>  (131) 
99301

>  <i_sd_version>  (131) 
0

>  <b_lp_Chiralities_Consistent>  (131) 
1

>  <b_sd_chiral_flag>  (131) 
0

>  <canonical_id>  (131) 
ATP-HTVS-15F2A5DBBD51

>  <compound_code>  (131) 
68225

>  <title>  (131) 
m_270004bca____10206044____24714584

>  <variant>  (131) 
68225-1

>  <source_file>  (131) 
运行/运行/ATP-VSW/ATP-VSW-DOCK_HTVS_1-001_lib/ATP-VSW-DOCK_HTVS_1-001_lib

>  <canonical_smiles>  (131) 
CC[N@H+](Cc1ccc(C[NH+](C)C)cc1)Cc1ccc(COc2ccc(Cl)c(C)c2)o1

>  <scaffold>  (131) 
c1ccc(C[NH2+]Cc2ccc(COc3ccccc3)o2)cc1

>  <molecular_formula>  (131) 
C25H33ClN2O2+2

$$$$
ATP-HTVS-15FA43506D9E
     RDKit          3D

 68 71  0  0  0  0  0  0  0  0999 V2000
  196.5372  182.3413  151.8260 N   0  0  0  0  0  0  0  0  0  0  0  0
  197.0016  182.5448  153.0784 C   0  0  0  0  0  0  0  0  0  0  0  0
  197.5678  183.7424  153.5361 C   0  0  0  0  0  0  0  0  0  0  0  0
  197.6592  184.8008  152.6286 C   0  0  0  0  0  0  0  0  0  0  0  0
  197.2213  184.5969  151.2943 C   0  0  0  0  0  0  0  0  0  0  0  0
  196.6460  183.3506  150.9641 C   0  0  0  0  0  0  0  0  0  0  0  0
  198.0871  183.9455  154.9142 C   0  0  0  0  0  0  0  0  0  0  0  0
  197.9275  185.1350  155.5042 N   0  0  0  0  0  0  0  0  0  0  0  0
  198.4453  185.0236  156.7489 N   0  0  0  0  0  0  0  0  0  0  0  0
  198.9708  183.7602  156.9168 C   0  0  0  0  0  0  0  0  0  0  0  0
  198.6852  183.0171  155.8008 C   0  0  0  0  0  0  0  0  0  0  0  0
  198.8766  181.5147  155.6037 C   0  0  1  0  0  0  0  0  0  0  0  0
  197.6868  180.6596  155.9978 N   0  0  2  0  0  0  0  0  0  0  0  0
  197.6133  179.4163  155.1838 C   0  0  1  0  0  0  0  0  0  0  0  0
  198.9485  178.7133  155.0095 C   0  0  0  0  0  0  0  0  0  0  0  0
  199.6632  178.3091  156.1479 C   0  0  0  0  0  0  0  0  0  0  0  0
  200.9164  177.6892  156.0180 C   0  0  0  0  0  0  0  0  0  0  0  0
  201.4485  177.4398  154.7355 C   0  0  0  0  0  0  0  0  0  0  0  0
  200.7306  177.8386  153.5912 C   0  0  0  0  0  0  0  0  0  0  0  0
  199.4845  178.4812  153.7235 C   0  0  0  0  0  0  0  0  0  0  0  0
  202.7855  176.7306  154.5876 C   0  0  1  0  0  0  0  0  0  0  0  0
  202.6803  175.2519  154.7087 N   0  0  1  0  0  0  0  0  0  0  0  0
  202.3997  174.8011  156.0911 C   0  0  2  0  0  0  0  0  0  0  0  0
  201.7595  174.6384  153.7237 C   0  0  2  0  0  0  0  0  0  0  0  0
  196.3451  181.2890  156.1519 C   0  0  1  0  0  0  0  0  0  0  0  0
  196.1712  182.0725  157.4186 C   0  0  2  0  0  0  0  0  0  0  0  0
  198.3662  186.1378  157.7014 C   0  0  1  0  0  0  0  0  0  0  0  0
  197.1935  186.0484  158.6890 C   0  0  0  0  0  0  0  0  0  0  0  0
  197.0263  187.0605  159.6706 C   0  0  0  0  0  0  0  0  0  0  0  0
  195.9285  186.9926  160.5826 C   0  0  0  0  0  0  0  0  0  0  0  0
  195.0268  185.8923  160.5310 C   0  0  0  0  0  0  0  0  0  0  0  0
  195.2150  184.8962  159.5460 C   0  0  0  0  0  0  0  0  0  0  0  0
  196.2493  185.0520  158.6380 C   0  0  0  0  0  0  0  0  0  0  0  0
  196.9337  181.6408  153.6563 H   0  0  0  0  0  0  0  0  0  0  0  0
  198.1135  185.7461  152.9070 H   0  0  0  0  0  0  0  0  0  0  0  0
  197.3202  185.3706  150.5558 H   0  0  0  0  0  0  0  0  0  0  0  0
  196.2782  183.1490  149.9566 H   0  0  0  0  0  0  0  0  0  0  0  0
  199.3381  183.4386  157.9026 H   0  0  0  0  0  0  0  0  0  0  0  0
  199.1321  181.3444  154.5492 H   0  0  0  0  0  0  0  0  0  0  0  0
  199.7582  181.1765  156.1693 H   0  0  0  0  0  0  0  0  0  0  0  0
  196.9129  178.7186  155.6365 H   0  0  0  0  0  0  0  0  0  0  0  0
  197.2113  179.6411  154.2008 H   0  0  0  0  0  0  0  0  0  0  0  0
  199.2591  178.4946  157.1322 H   0  0  0  0  0  0  0  0  0  0  0  0
  201.4467  177.3929  156.9098 H   0  0  0  0  0  0  0  0  0  0  0  0
  201.1247  177.6406  152.6039 H   0  0  0  0  0  0  0  0  0  0  0  0
  198.9463  178.7813  152.8359 H   0  0  0  0  0  0  0  0  0  0  0  0
  203.2103  176.9833  153.6154 H   0  0  0  0  0  0  0  0  0  0  0  0
  203.4822  177.1178  155.3315 H   0  0  0  0  0  0  0  0  0  0  0  0
  201.4140  175.1269  156.4223 H   0  0  0  0  0  0  0  0  0  0  0  0
  203.1437  175.1919  156.7870 H   0  0  0  0  0  0  0  0  0  0  0  0
  202.4155  173.7135  156.1496 H   0  0  0  0  0  0  0  0  0  0  0  0
  200.7404  174.9979  153.8623 H   0  0  0  0  0  0  0  0  0  0  0  0
  201.7396  173.5534  153.8317 H   0  0  0  0  0  0  0  0  0  0  0  0
  202.0671  174.8716  152.7038 H   0  0  0  0  0  0  0  0  0  0  0  0
  196.1105  182.0100  155.3550 H   0  0  0  0  0  0  0  0  0  0  0  0
  195.5473  180.5577  156.1201 H   0  0  0  0  0  0  0  0  0  0  0  0
  195.2724  182.6722  157.3615 H   0  0  0  0  0  0  0  0  0  0  0  0
  197.0020  182.7536  157.3798 H   0  0  0  0  0  0  0  0  0  0  0  0
  196.3432  181.5662  158.3760 H   0  0  0  0  0  0  0  0  0  0  0  0
  199.3150  186.1436  158.2572 H   0  0  0  0  0  0  0  0  0  0  0  0
  198.3024  187.0601  157.1229 H   0  0  0  0  0  0  0  0  0  0  0  0
  197.7230  187.9222  159.7151 H   0  0  0  0  0  0  0  0  0  0  0  0
  195.7823  187.7794  161.3166 H   0  0  0  0  0  0  0  0  0  0  0  0
  194.1604  185.8452  161.2235 H   0  0  0  0  0  0  0  0  0  0  0  0
  194.5174  184.0745  159.4714 H   0  0  0  0  0  0  0  0  0  0  0  0
  196.3069  184.3943  157.7762 H   0  0  0  0  0  0  0  0  0  0  0  0
  203.5975  174.8913  154.4869 H   0  0  0  0  0  0  0  0  0  0  0  0
  197.9026  180.3099  156.9230 H   0  0  0  0  0  0  0  0  0  0  0  0
  1  2  1  0
  1  6  2  0
  2  3  2  0
  2 34  1  0
  3  4  1  0
  3  7  1  0
  4  5  2  0
  4 35  1  0
  5  6  1  0
  5 36  1  0
  6 37  1  0
  7  8  2  0
  7 11  1  0
  8  9  1  0
  9 10  1  0
  9 27  1  0
 10 11  2  0
 10 38  1  0
 11 12  1  0
 12 13  1  0
 12 39  1  6
 12 40  1  0
 13 14  1  0
 13 25  1  0
 13 68  1  1
 14 15  1  0
 14 41  1  1
 14 42  1  0
 15 16  1  0
 15 20  2  0
 16 17  2  0
 16 43  1  0
 17 18  1  0
 17 44  1  0
 18 19  2  0
 18 21  1  0
 19 20  1  0
 19 45  1  0
 20 46  1  0
 21 22  1  0
 21 47  1  6
 21 48  1  0
 22 23  1  0
 22 24  1  0
 22 67  1  6
 23 49  1  1
 23 50  1  0
 23 51  1  0
 24 52  1  1
 24 53  1  0
 24 54  1  0
 25 26  1  0
 25 55  1  6
 25 56  1  0
 26 57  1  1
 26 58  1  0
 26 59  1  0
 27 28  1  0
 27 60  1  1
 27 61  1  0
 28 29  2  0
 28 33  1  0
 29 30  1  0
 29 62  1  0
 30 31  2  0
 30 63  1  0
 31 32  1  0
 31 64  1  0
 32 33  2  0
 32 65  1  0
 33 66  1  0
M  CHG  2  13   1  22   1
M  END
>  <s_epik_cmdline>  (132) 
J2VwaWtfcHl0aG9uJywgJy1waCcsICc3LjAwMDAwMCcsICctcGh0JywgJzIuMDAwMDAwJywgJy1tcycsICcxNicsICctdG4nLCAnOCcsICctbWEnLCAnMjAwJywgJy1pbWFlJywgJzxpbmZpbGUubWFlPicsICctb21hZScsICc8b3V0ZmlsZS5tYWU+Jw==

>  <s_epik_input>  (132) 
W2NIXTFbY0hdW2NIXW5bY0hdYzEtYzJubihbQ0gyXWMzW2NIXVtjSF1bY0hdW2NIXVtjSF0zKVtjSF1jMltDSDJdTihbQ0gyXVtDSDNdKVtDSDJdYzRbY0hdW2NIXWMoW2NIXVtjSF00KVtDSDJdTihbQ0gzXSlbQ0gzXQ==

>  <s_i_glide_gridfile>  (132) 
ATP-Grid

>  <s_lp_Force_Field>  (132) 
OPLS_2005

>  <s_lp_Variant>  (132) 
m_270004bca____10206044____7547868-2

>  <s_lp_label>  (132) 
979_sdstereoexpander_1_neutralizer_1_epik_1_stereoizer_2

>  <s_m_source_file>  (132) 
ATP-VSW-LIGPREP-002-in.maegz

>  <s_sd_BIOSOLVEIT.INFINISEE\_QUERY\_NAME>  (132) 
Ref-Lig

>  <s_sd_BIOSOLVEIT.INFINISEE\_QUERY\_SMILES>  (132) 
S(c1nc2c(cc1C[NH2+]Cc3ccc(cc3)C[NH+](C)C)cccc2)Cc4ccccc4

>  <s_sd_BIOSOLVEIT.INFINISEE\_REACTION\_NAME>  (132) 
m_270004bca

>  <s_sd_BIOSOLVEIT.INFINISEE\_REAGENT1\_SMILES>  (132) 
[R1*]N(Cc1ccc(cc1)CN(C)C)CC

>  <s_sd_BIOSOLVEIT.INFINISEE\_REAGENT2\_SMILES>  (132) 
[R1*]CC=1C(=NN(C1)Cc2ccccc2)c3cnccc3

>  <s_sd_BIOSOLVEIT.INFINISEE\_SPACE>  (132) 
REALSpace_44bn_2023-08

>  <s_vsw_compound_code>  (132) 
31298

>  <s_vsw_variant>  (132) 
31298-2

>  <r_epik_Charging_Adjusted_Penalty>  (132) 
0.41524636945718602

>  <r_epik_Ionization_Penalty>  (132) 
0.21160000000000001

>  <r_epik_Ionization_Penalty_Charging>  (132) 
0.20849999999999999

>  <r_epik_Ionization_Penalty_Neutral>  (132) 
0.0030999999999999999

>  <r_epik_State_Penalty>  (132) 
0.20669999999999999

>  <r_i_docking_score>  (132) 
-4.3234619466947297

>  <r_i_glide_ecoul>  (132) 
-9.4005231857299805

>  <r_i_glide_eff_state_penalty>  (132) 
0.20669999999999999

>  <r_i_glide_einternal>  (132) 
9.4121665954589808

>  <r_i_glide_emodel>  (132) 
-59.003526020731897

>  <r_i_glide_energy>  (132) 
-43.9499769210815

>  <r_i_glide_erotb>  (132) 
0.81946179854912404

>  <r_i_glide_esite>  (132) 
-0.080771461496474406

>  <r_i_glide_evdw>  (132) 
-34.549453735351598

>  <r_i_glide_gscore>  (132) 
-4.5301619466947303

>  <r_i_glide_hbond>  (132) 
0

>  <r_i_glide_ligand_efficiency>  (132) 
-0.131013998384689

>  <r_i_glide_ligand_efficiency_ln>  (132) 
-0.96151555125700405

>  <r_i_glide_ligand_efficiency_sa>  (132) 
-0.420231897039126

>  <r_i_glide_lipo>  (132) 
-1.73077033685471

>  <r_i_glide_metal>  (132) 
-0

>  <r_i_glide_rewards>  (132) 
-0.40053078226559102

>  <r_lp_Energy>  (132) 
20.442575000000001

>  <r_lp_tautomer_probability>  (132) 
1

>  <r_qp_ACxDN^.5/SA>  (132) 
0

>  <r_qp_CIQPlogS>  (132) 
-4.444

>  <r_qp_EA(eV)>  (132) 
0.124

>  <r_qp_FISA>  (132) 
13.006

>  <r_qp_FOSA>  (132) 
352.40100000000001

>  <r_qp_IP(eV)>  (132) 
8.8439999999999994

>  <r_qp_Jm>  (132) 
0.081527041814466406

>  <r_qp_PISA>  (132) 
397.94200000000001

>  <r_qp_PSA>  (132) 
34.085999999999999

>  <r_qp_PercentHumanOralAbsorption>  (132) 
100

>  <r_qp_QPPCaco>  (132) 
463.834

>  <r_qp_QPPMDCK>  (132) 
263.92899999999997

>  <r_qp_QPlogBB>  (132) 
0.68899999999999995

>  <r_qp_QPlogHERG>  (132) 
-7.819

>  <r_qp_QPlogKhsa>  (132) 
0.626

>  <r_qp_QPlogKp>  (132) 
-3.6179999999999999

>  <r_qp_QPlogPC16>  (132) 
14.707000000000001

>  <r_qp_QPlogPo/w>  (132) 
4.7880000000000003

>  <r_qp_QPlogPoct>  (132) 
20.420000000000002

>  <r_qp_QPlogPw>  (132) 
9.2609999999999992

>  <r_qp_QPlogS>  (132) 
-3.113

>  <r_qp_QPpolrz>  (132) 
50.633000000000003

>  <r_qp_SASA>  (132) 
763.35000000000002

>  <r_qp_SAamideO>  (132) 
0

>  <r_qp_SAfluorine>  (132) 
0

>  <r_qp_WPSA>  (132) 
0

>  <r_qp_accptHB>  (132) 
7

>  <r_qp_dip^2/V>  (132) 
0.010098299999999999

>  <r_qp_dipole>  (132) 
3.851

>  <r_qp_donorHB>  (132) 
0

>  <r_qp_glob>  (132) 
0.81847060000000005

>  <r_qp_mol_MW>  (132) 
439.60199999999998

>  <r_qp_volume>  (132) 
1468.393

>  <r_sd_BIOSOLVEIT.INFINISEE\_FTREES\_SIMILARITY>  (132) 
0.91600000000000004

>  <r_sd_BIOSOLVEIT.LOGP>  (132) 
2.2429000000000001

>  <r_sd_BIOSOLVEIT.MOLECULAR\_WEIGHT>  (132) 
441.62

>  <r_sd_BIOSOLVEIT.TPSA>  (132) 
39.590000000000003

>  <i_epik_Tot_Q>  (132) 
2

>  <i_epik_Tot_abs_Q>  (132) 
2

>  <i_f3d_flags>  (132) 
0

>  <i_i_glide_confnum>  (132) 
6

>  <i_i_glide_lignum>  (132) 
304

>  <i_i_glide_posenum>  (132) 
9

>  <i_i_glide_rotatable_bonds>  (132) 
10

>  <i_lp_mmshare_version>  (132) 
65135

>  <i_m_ct_format>  (132) 
2

>  <i_m_source_file_index>  (132) 
979

>  <i_qp_#NandO>  (132) 
5

>  <i_qp_#acid>  (132) 
0

>  <i_qp_#amide>  (132) 
0

>  <i_qp_#amidine>  (132) 
0

>  <i_qp_#amine>  (132) 
2

>  <i_qp_#in34>  (132) 
0

>  <i_qp_#in56>  (132) 
23

>  <i_qp_#metab>  (132) 
8

>  <i_qp_#nonHatm>  (132) 
33

>  <i_qp_#noncon>  (132) 
0

>  <i_qp_#ringatoms>  (132) 
23

>  <i_qp_#rotor>  (132) 
9

>  <i_qp_#rtvFG>  (132) 
0

>  <i_qp_#stars>  (132) 
0

>  <i_qp_CNS>  (132) 
2

>  <i_qp_HumanOralAbsorption>  (132) 
3

>  <i_qp_RuleOfFive>  (132) 
0

>  <i_qp_RuleOfThree>  (132) 
1

>  <i_sd_BIOSOLVEIT.INFINISEE\_REAGENT1\_NAME>  (132) 
10206044

>  <i_sd_BIOSOLVEIT.INFINISEE\_REAGENT2\_NAME>  (132) 
7547868

>  <i_sd_BIOSOLVEIT.INFINISEE\_RESULT\_RANK>  (132) 
24523

>  <i_sd_version>  (132) 
0

>  <b_lp_Chiralities_Consistent>  (132) 
1

>  <b_sd_chiral_flag>  (132) 
0

>  <canonical_id>  (132) 
ATP-HTVS-15FA43506D9E

>  <compound_code>  (132) 
31298

>  <title>  (132) 
m_270004bca____10206044____7547868

>  <variant>  (132) 
31298-2

>  <source_file>  (132) 
运行/运行/ATP-VSW/ATP-VSW-DOCK_HTVS_1-002_lib.maegz

>  <canonical_smiles>  (132) 
CC[N@@H+](Cc1ccc(C[NH+](C)C)cc1)Cc1cn(Cc2ccccc2)nc1-c1cccnc1

>  <scaffold>  (132) 
c1ccc(C[NH2+]Cc2cn(Cc3ccccc3)nc2-c2cccnc2)cc1

>  <molecular_formula>  (132) 
C28H35N5+2

$$$$
ATP-HTVS-16140744D8E5
     RDKit          3D

 45 48  0  0  0  0  0  0  0  0999 V2000
  197.3565  184.2326  153.4590 I   0  0  0  0  0  0  0  0  0  0  0  0
  197.0026  182.2017  153.0612 C   0  0  0  0  0  0  0  0  0  0  0  0
  197.0502  181.1878  154.0566 C   0  0  0  0  0  0  0  0  0  0  0  0
  196.8389  179.8448  153.6782 C   0  0  0  0  0  0  0  0  0  0  0  0
  196.5669  179.5096  152.3408 C   0  0  0  0  0  0  0  0  0  0  0  0
  196.5080  180.5162  151.3606 C   0  0  0  0  0  0  0  0  0  0  0  0
  196.7293  181.8568  151.7232 C   0  0  0  0  0  0  0  0  0  0  0  0
  197.3437  181.4854  155.5265 C   0  0  1  0  0  0  0  0  0  0  0  0
  198.7278  181.9469  155.8204 N   0  0  0  0  0  0  0  0  0  0  0  0
  199.0387  182.6340  156.9553 C   0  0  0  0  0  0  0  0  0  0  0  0
  200.1908  182.9207  157.2915 O   0  0  0  0  0  0  0  0  0  0  0  0
  197.8815  183.0060  157.8425 C   0  0  0  0  0  0  0  0  0  0  0  0
  196.5654  182.8969  157.3484 C   0  0  0  0  0  0  0  0  0  0  0  0
  196.3601  182.4065  156.0667 N   0  0  0  0  0  0  0  0  0  0  0  0
  195.4654  183.2934  158.1344 C   0  0  0  0  0  0  0  0  0  0  0  0
  195.6746  183.7803  159.4375 C   0  0  0  0  0  0  0  0  0  0  0  0
  196.9846  183.8683  159.9413 C   0  0  0  0  0  0  0  0  0  0  0  0
  198.0870  183.4872  159.1525 C   0  0  0  0  0  0  0  0  0  0  0  0
  199.8181  181.4075  154.9803 C   0  0  1  0  0  0  0  0  0  0  0  0
  200.2498  179.9846  155.3321 C   0  0  0  0  0  0  0  0  0  0  0  0
  200.9942  179.2406  154.3915 C   0  0  0  0  0  0  0  0  0  0  0  0
  201.4134  177.9272  154.6893 C   0  0  0  0  0  0  0  0  0  0  0  0
  201.0918  177.3448  155.9326 C   0  0  0  0  0  0  0  0  0  0  0  0
  200.3493  178.0813  156.8737 C   0  0  0  0  0  0  0  0  0  0  0  0
  199.9347  179.3892  156.5769 C   0  0  0  0  0  0  0  0  0  0  0  0
  201.5313  175.9328  156.2547 C   0  0  2  0  0  0  0  0  0  0  0  0
  196.8868  179.0597  154.4214 H   0  0  0  0  0  0  0  0  0  0  0  0
  196.4059  178.4776  152.0743 H   0  0  0  0  0  0  0  0  0  0  0  0
  196.3014  180.2614  150.3316 H   0  0  0  0  0  0  0  0  0  0  0  0
  196.6979  182.6302  150.9716 H   0  0  0  0  0  0  0  0  0  0  0  0
  197.2034  180.5545  156.0852 H   0  0  0  0  0  0  0  0  0  0  0  0
  195.3755  182.3034  155.7699 H   0  0  0  0  0  0  0  0  0  0  0  0
  194.4609  183.2249  157.7354 H   0  0  0  0  0  0  0  0  0  0  0  0
  194.8327  184.0777  160.0453 H   0  0  0  0  0  0  0  0  0  0  0  0
  197.1420  184.2379  160.9339 H   0  0  0  0  0  0  0  0  0  0  0  0
  199.0857  183.5590  159.5590 H   0  0  0  0  0  0  0  0  0  0  0  0
  199.5544  181.4342  153.9238 H   0  0  0  0  0  0  0  0  0  0  0  0
  200.6946  182.0537  155.0352 H   0  0  0  0  0  0  0  0  0  0  0  0
  201.2504  179.6762  153.4357 H   0  0  0  0  0  0  0  0  0  0  0  0
  201.9841  177.3686  153.9617 H   0  0  0  0  0  0  0  0  0  0  0  0
  200.0854  177.6554  157.8316 H   0  0  0  0  0  0  0  0  0  0  0  0
  199.3663  179.9073  157.3344 H   0  0  0  0  0  0  0  0  0  0  0  0
  201.5061  175.7509  157.3298 H   0  0  0  0  0  0  0  0  0  0  0  0
  202.5494  175.7609  155.9054 H   0  0  0  0  0  0  0  0  0  0  0  0
  200.8659  175.2187  155.7689 H   0  0  0  0  0  0  0  0  0  0  0  0
  1  2  1  0
  2  3  1  0
  2  7  2  0
  3  4  2  0
  3  8  1  0
  4  5  1  0
  4 27  1  0
  5  6  2  0
  5 28  1  0
  6  7  1  0
  6 29  1  0
  7 30  1  0
  8  9  1  0
  8 14  1  0
  8 31  1  1
  9 10  1  0
  9 19  1  0
 10 11  2  0
 10 12  1  0
 12 13  1  0
 12 18  2  0
 13 14  1  0
 13 15  2  0
 14 32  1  0
 15 16  1  0
 15 33  1  0
 16 17  2  0
 16 34  1  0
 17 18  1  0
 17 35  1  0
 18 36  1  0
 19 20  1  0
 19 37  1  6
 19 38  1  0
 20 21  1  0
 20 25  2  0
 21 22  2  0
 21 39  1  0
 22 23  1  0
 22 40  1  0
 23 24  2  0
 23 26  1  0
 24 25  1  0
 24 41  1  0
 25 42  1  0
 26 43  1  1
 26 44  1  0
 26 45  1  0
M  END
>  <s_epik_Chemistry_Notes>  (133) 
This compound contains an acetal/aminal-like group ( X-CH(R)-Y where X, Y are N, S, or O) that may be acid/base labile, releasing an aldehyde.

>  <s_epik_cmdline>  (133) 
J2VwaWtfcHl0aG9uJywgJy1waCcsICc3LjAwMDAwMCcsICctcGh0JywgJzIuMDAwMDAwJywgJy1tcycsICcxNicsICctdG4nLCAnOCcsICctbWEnLCAnMjAwJywgJy1pbWFlJywgJzxpbmZpbGUubWFlPicsICctb21hZScsICc8b3V0ZmlsZS5tYWU+Jw==

>  <s_epik_input>  (133) 
W2NIXTFbY0hdW2NIXVtjSF1jKGMxMilbTkhdW0NAQEhdKGMoYzNJKVtjSF1bY0hdW2NIXVtjSF0zKU4oQzI9TylbQ0gyXWM0W2NIXVtjSF1jKFtDSDNdKVtjSF1bY0hdNA==

>  <s_i_glide_gridfile>  (133) 
ATP-Grid

>  <s_lp_Force_Field>  (133) 
OPLS_2005

>  <s_lp_Variant>  (133) 
m_66bab____89515____89991-1

>  <s_lp_label>  (133) 
1763_sdstereoexpander_1_neutralizer_1_epik_1_stereoizer_1

>  <s_m_source_file>  (133) 
ATP-VSW-LIGPREP-001-in.maegz

>  <s_sd_BIOSOLVEIT.INFINISEE\_QUERY\_NAME>  (133) 
Ref-Lig

>  <s_sd_BIOSOLVEIT.INFINISEE\_QUERY\_SMILES>  (133) 
S(c1nc2c(cc1C[NH2+]Cc3ccc(cc3)C[NH+](C)C)cccc2)Cc4ccccc4

>  <s_sd_BIOSOLVEIT.INFINISEE\_REACTION\_NAME>  (133) 
m_66bab

>  <s_sd_BIOSOLVEIT.INFINISEE\_REAGENT1\_SMILES>  (133) 
[R1*]N(C(=O)c1c(N[R2*])cccc1)Cc2ccc(cc2)C

>  <s_sd_BIOSOLVEIT.INFINISEE\_REAGENT2\_SMILES>  (133) 
[R1*]C([R2*])c1c(I)cccc1

>  <s_sd_BIOSOLVEIT.INFINISEE\_SPACE>  (133) 
REALSpace_44bn_2023-08

>  <s_vsw_compound_code>  (133) 
56385

>  <s_vsw_variant>  (133) 
56385-1

>  <r_epik_Charging_Adjusted_Penalty>  (133) 
0

>  <r_epik_Ionization_Penalty>  (133) 
0

>  <r_epik_Ionization_Penalty_Charging>  (133) 
0

>  <r_epik_Ionization_Penalty_Neutral>  (133) 
0

>  <r_epik_State_Penalty>  (133) 
-0

>  <r_i_docking_score>  (133) 
-3.4450000044384299

>  <r_i_glide_ecoul>  (133) 
-2.1963148117065399

>  <r_i_glide_eff_state_penalty>  (133) 
-0

>  <r_i_glide_einternal>  (133) 
0.79063802957534801

>  <r_i_glide_emodel>  (133) 
-40.930366663301498

>  <r_i_glide_energy>  (133) 
-33.636242866516099

>  <r_i_glide_erotb>  (133) 
0.291872772427484

>  <r_i_glide_esite>  (133) 
-0.14676517534642

>  <r_i_glide_evdw>  (133) 
-31.439928054809599

>  <r_i_glide_gscore>  (133) 
-3.4450000044384299

>  <r_i_glide_hbond>  (133) 
-0.16

>  <r_i_glide_ligand_efficiency>  (133) 
-0.13250000017070901

>  <r_i_glide_ligand_efficiency_ln>  (133) 
-0.80904694707535796

>  <r_i_glide_ligand_efficiency_sa>  (133) 
-0.39253072914339998

>  <r_i_glide_lipo>  (133) 
-1.21709713611394

>  <r_i_glide_metal>  (133) 
-0

>  <r_i_glide_rewards>  (133) 
-0.31156684090908998

>  <r_lp_Energy>  (133) 
29.096518

>  <r_lp_tautomer_probability>  (133) 
1

>  <r_qp_ACxDN^.5/SA>  (133) 
0.0065612999999999999

>  <r_qp_CIQPlogS>  (133) 
-8.1289999999999996

>  <r_qp_EA(eV)>  (133) 
1.157

>  <r_qp_FISA>  (133) 
45.582999999999998

>  <r_qp_FOSA>  (133) 
111.19

>  <r_qp_IP(eV)>  (133) 
8.5440000000000005

>  <r_qp_Jm>  (133) 
0.12964041417206701

>  <r_qp_PISA>  (133) 
406.13900000000001

>  <r_qp_PSA>  (133) 
39.465000000000003

>  <r_qp_PercentHumanOralAbsorption>  (133) 
100

>  <r_qp_QPPCaco>  (133) 
3661.2959999999998

>  <r_qp_QPPMDCK>  (133) 
3626.8339999999998

>  <r_qp_QPlogBB>  (133) 
0.14299999999999999

>  <r_qp_QPlogHERG>  (133) 
-5.7949999999999999

>  <r_qp_QPlogKhsa>  (133) 
0.81799999999999995

>  <r_qp_QPlogKp>  (133) 
-0.73699999999999999

>  <r_qp_QPlogPC16>  (133) 
12.404

>  <r_qp_QPlogPo/w>  (133) 
4.992

>  <r_qp_QPlogPoct>  (133) 
18.030999999999999

>  <r_qp_QPlogPw>  (133) 
9.2390000000000008

>  <r_qp_QPlogS>  (133) 
-5.8079999999999998

>  <r_qp_QPpolrz>  (133) 
41.316000000000003

>  <r_qp_SASA>  (133) 
609.63599999999997

>  <r_qp_SAamideO>  (133) 
0

>  <r_qp_SAfluorine>  (133) 
0

>  <r_qp_WPSA>  (133) 
46.723999999999997

>  <r_qp_accptHB>  (133) 
4

>  <r_qp_dip^2/V>  (133) 
0.038046900000000002

>  <r_qp_dipole>  (133) 
6.532

>  <r_qp_donorHB>  (133) 
1

>  <r_qp_glob>  (133) 
0.85621910000000001

>  <r_qp_mol_MW>  (133) 
454.30900000000003

>  <r_qp_volume>  (133) 
1121.336

>  <r_sd_BIOSOLVEIT.INFINISEE\_FTREES\_SIMILARITY>  (133) 
0.90400000000000003

>  <r_sd_BIOSOLVEIT.LOGP>  (133) 
5.36632

>  <r_sd_BIOSOLVEIT.MOLECULAR\_WEIGHT>  (133) 
454.30500000000001

>  <r_sd_BIOSOLVEIT.TPSA>  (133) 
32.340000000000003

>  <i_epik_Tot_Q>  (133) 
0

>  <i_epik_Tot_abs_Q>  (133) 
0

>  <i_f3d_flags>  (133) 
0

>  <i_i_glide_confnum>  (133) 
3

>  <i_i_glide_lignum>  (133) 
502

>  <i_i_glide_posenum>  (133) 
3

>  <i_i_glide_rotatable_bonds>  (133) 
3

>  <i_lp_mmshare_version>  (133) 
65135

>  <i_m_ct_format>  (133) 
2

>  <i_m_source_file_index>  (133) 
1763

>  <i_qp_#NandO>  (133) 
3

>  <i_qp_#acid>  (133) 
0

>  <i_qp_#amide>  (133) 
0

>  <i_qp_#amidine>  (133) 
0

>  <i_qp_#amine>  (133) 
0

>  <i_qp_#in34>  (133) 
0

>  <i_qp_#in56>  (133) 
22

>  <i_qp_#metab>  (133) 
6

>  <i_qp_#nonHatm>  (133) 
26

>  <i_qp_#noncon>  (133) 
1

>  <i_qp_#ringatoms>  (133) 
22

>  <i_qp_#rotor>  (133) 
2

>  <i_qp_#rtvFG>  (133) 
0

>  <i_qp_#stars>  (133) 
0

>  <i_qp_CNS>  (133) 
1

>  <i_qp_HumanOralAbsorption>  (133) 
3

>  <i_qp_RuleOfFive>  (133) 
0

>  <i_qp_RuleOfThree>  (133) 
1

>  <i_sd_BIOSOLVEIT.INFINISEE\_REAGENT1\_NAME>  (133) 
89515

>  <i_sd_BIOSOLVEIT.INFINISEE\_REAGENT2\_NAME>  (133) 
89991

>  <i_sd_BIOSOLVEIT.INFINISEE\_RESULT\_RANK>  (133) 
75485

>  <i_sd_version>  (133) 
0

>  <b_lp_Chiralities_Consistent>  (133) 
1

>  <b_sd_chiral_flag>  (133) 
0

>  <canonical_id>  (133) 
ATP-HTVS-16140744D8E5

>  <compound_code>  (133) 
56385

>  <title>  (133) 
m_66bab____89515____89991

>  <variant>  (133) 
56385-1

>  <source_file>  (133) 
运行/运行/ATP-VSW/ATP-VSW-DOCK_HTVS_1-001_lib/ATP-VSW-DOCK_HTVS_1-001_lib

>  <canonical_smiles>  (133) 
Cc1ccc(CN2C(=O)c3ccccc3N[C@H]2c2ccccc2I)cc1

>  <scaffold>  (133) 
O=C1c2ccccc2NC(c2ccccc2)N1Cc1ccccc1

>  <molecular_formula>  (133) 
C22H19IN2O

$$$$
ATP-HTVS-16316C23D1E4
     RDKit          3D

 72 75  0  0  0  0  0  0  0  0999 V2000
  200.2405  182.4914  157.6860 O   0  0  0  0  0  0  0  0  0  0  0  0
  200.1561  183.6923  157.4190 C   0  0  0  0  0  0  0  0  0  0  0  0
  198.9758  184.3336  157.2830 N   0  0  0  0  0  0  0  0  0  0  0  0
  197.6944  183.7842  157.6087 C   0  0  0  0  0  0  0  0  0  0  0  0
  197.2159  182.5986  156.9944 C   0  0  0  0  0  0  0  0  0  0  0  0
  197.9397  181.8945  156.0216 N   0  0  0  0  0  0  0  0  0  0  0  0
  197.7483  180.4592  155.8717 C   0  0  1  0  0  0  0  0  0  0  0  0
  198.3172  179.8483  154.6169 C   0  0  0  0  0  0  0  0  0  0  0  0
  199.4348  178.9982  154.6718 C   0  0  0  0  0  0  0  0  0  0  0  0
  199.8651  178.3330  153.5067 C   0  0  0  0  0  0  0  0  0  0  0  0
  199.1647  178.4953  152.2908 C   0  0  0  0  0  0  0  0  0  0  0  0
  198.0565  179.3683  152.2405 C   0  0  0  0  0  0  0  0  0  0  0  0
  197.6346  180.0462  153.3988 C   0  0  0  0  0  0  0  0  0  0  0  0
  199.5855  177.7331  151.0492 C   0  0  1  0  0  0  0  0  0  0  0  0
  198.7834  176.4872  150.8652 N   0  0  1  0  0  0  0  0  0  0  0  0
  198.6832  176.0104  149.4583 C   0  0  1  0  0  0  0  0  0  0  0  0
  197.9617  176.9682  148.4944 C   0  0  2  0  0  0  0  0  0  0  0  0
  199.1487  175.3925  151.8128 C   0  0  1  0  0  0  0  0  0  0  0  0
  200.5131  174.7223  151.5266 C   0  0  2  0  0  0  0  0  0  0  0  0
  195.9063  182.1636  157.4047 C   0  0  0  0  0  0  0  0  0  0  0  0
  195.1571  182.8118  158.3018 N   0  0  0  0  0  0  0  0  0  0  0  0
  195.5975  183.9447  158.8447 C   0  0  0  0  0  0  0  0  0  0  0  0
  196.8853  184.4862  158.5420 C   0  0  0  0  0  0  0  0  0  0  0  0
  197.2766  185.6808  159.2085 C   0  0  0  0  0  0  0  0  0  0  0  0
  196.4123  186.3198  160.1311 C   0  0  0  0  0  0  0  0  0  0  0  0
  195.1357  185.7861  160.3937 C   0  0  0  0  0  0  0  0  0  0  0  0
  194.7495  184.6070  159.7395 C   0  0  0  0  0  0  0  0  0  0  0  0
  201.4444  184.5280  157.2426 C   0  0  1  0  0  0  0  0  0  0  0  0
  202.6835  183.7464  157.3872 N   0  0  0  0  0  0  0  0  0  0  0  0
  203.0974  183.2459  158.6533 C   0  0  0  0  0  0  0  0  0  0  0  0
  204.3346  182.5639  158.8007 C   0  0  0  0  0  0  0  0  0  0  0  0
  204.7487  182.0641  160.0507 C   0  0  0  0  0  0  0  0  0  0  0  0
  203.9312  182.2211  161.1816 C   0  0  0  0  0  0  0  0  0  0  0  0
  202.6945  182.8749  161.0612 C   0  0  0  0  0  0  0  0  0  0  0  0
  202.2947  183.3959  159.8171 C   0  0  0  0  0  0  0  0  0  0  0  0
  203.5285  183.5282  156.2131 C   0  0  2  0  0  0  0  0  0  0  0  0
  199.0084  185.3358  157.1606 H   0  0  0  0  0  0  0  0  0  0  0  0
  198.9191  182.1706  155.9670 H   0  0  0  0  0  0  0  0  0  0  0  0
  198.1195  179.9358  156.7626 H   0  0  0  0  0  0  0  0  0  0  0  0
  196.6868  180.2077  155.7972 H   0  0  0  0  0  0  0  0  0  0  0  0
  199.9401  178.8215  155.6151 H   0  0  0  0  0  0  0  0  0  0  0  0
  200.7201  177.6668  153.5505 H   0  0  0  0  0  0  0  0  0  0  0  0
  197.5134  179.5169  151.3143 H   0  0  0  0  0  0  0  0  0  0  0  0
  196.7634  180.6880  153.3663 H   0  0  0  0  0  0  0  0  0  0  0  0
  199.4471  178.4456  150.2356 H   0  0  0  0  0  0  0  0  0  0  0  0
  200.6556  177.5180  151.0683 H   0  0  0  0  0  0  0  0  0  0  0  0
  199.6701  175.8036  149.0528 H   0  0  0  0  0  0  0  0  0  0  0  0
  198.1397  175.0644  149.4752 H   0  0  0  0  0  0  0  0  0  0  0  0
  197.8877  176.5073  147.5061 H   0  0  0  0  0  0  0  0  0  0  0  0
  198.5047  177.9013  148.3400 H   0  0  0  0  0  0  0  0  0  0  0  0
  196.9537  177.2041  148.8370 H   0  0  0  0  0  0  0  0  0  0  0  0
  199.1759  175.7828  152.8278 H   0  0  0  0  0  0  0  0  0  0  0  0
  198.3527  174.6430  151.8208 H   0  0  0  0  0  0  0  0  0  0  0  0
  200.7217  173.9245  152.2457 H   0  0  0  0  0  0  0  0  0  0  0  0
  201.3336  175.4356  151.6093 H   0  0  0  0  0  0  0  0  0  0  0  0
  200.5654  174.2632  150.5390 H   0  0  0  0  0  0  0  0  0  0  0  0
  195.3971  181.3045  157.0000 H   0  0  0  0  0  0  0  0  0  0  0  0
  198.2537  186.1218  159.0358 H   0  0  0  0  0  0  0  0  0  0  0  0
  196.7219  187.2133  160.6557 H   0  0  0  0  0  0  0  0  0  0  0  0
  194.4717  186.2585  161.1022 H   0  0  0  0  0  0  0  0  0  0  0  0
  193.7671  184.1928  159.9308 H   0  0  0  0  0  0  0  0  0  0  0  0
  201.3960  184.9850  156.2556 H   0  0  0  0  0  0  0  0  0  0  0  0
  201.4708  185.3525  157.9594 H   0  0  0  0  0  0  0  0  0  0  0  0
  204.9963  182.4077  157.9613 H   0  0  0  0  0  0  0  0  0  0  0  0
  205.6970  181.5583  160.1411 H   0  0  0  0  0  0  0  0  0  0  0  0
  204.2498  181.8369  162.1387 H   0  0  0  0  0  0  0  0  0  0  0  0
  202.0440  182.9832  161.9177 H   0  0  0  0  0  0  0  0  0  0  0  0
  201.3391  183.8903  159.7962 H   0  0  0  0  0  0  0  0  0  0  0  0
  203.7186  182.4659  156.0485 H   0  0  0  0  0  0  0  0  0  0  0  0
  204.4847  184.0376  156.3379 H   0  0  0  0  0  0  0  0  0  0  0  0
  203.0770  183.9104  155.2958 H   0  0  0  0  0  0  0  0  0  0  0  0
  197.8430  176.7385  151.1302 H   0  0  0  0  0  0  0  0  0  0  0  0
  1  2  2  0
  2  3  1  0
  2 28  1  0
  3  4  1  0
  3 37  1  0
  4  5  2  0
  4 23  1  0
  5  6  1  0
  5 20  1  0
  6  7  1  0
  6 38  1  0
  7  8  1  0
  7 39  1  1
  7 40  1  0
  8  9  1  0
  8 13  2  0
  9 10  2  0
  9 41  1  0
 10 11  1  0
 10 42  1  0
 11 12  2  0
 11 14  1  0
 12 13  1  0
 12 43  1  0
 13 44  1  0
 14 15  1  0
 14 45  1  6
 14 46  1  0
 15 16  1  0
 15 18  1  0
 15 72  1  1
 16 17  1  0
 16 47  1  6
 16 48  1  0
 17 49  1  6
 17 50  1  0
 17 51  1  0
 18 19  1  0
 18 52  1  1
 18 53  1  0
 19 54  1  1
 19 55  1  0
 19 56  1  0
 20 21  2  0
 20 57  1  0
 21 22  1  0
 22 23  1  0
 22 27  2  0
 23 24  2  0
 24 25  1  0
 24 58  1  0
 25 26  2  0
 25 59  1  0
 26 27  1  0
 26 60  1  0
 27 61  1  0
 28 29  1  0
 28 62  1  6
 28 63  1  0
 29 30  1  0
 29 36  1  0
 30 31  2  0
 30 35  1  0
 31 32  1  0
 31 64  1  0
 32 33  2  0
 32 65  1  0
 33 34  1  0
 33 66  1  0
 34 35  2  0
 34 67  1  0
 35 68  1  0
 36 69  1  6
 36 70  1  0
 36 71  1  0
M  CHG  1  15   1
M  END
>  <s_epik_cmdline>  (134) 
J2VwaWtfcHl0aG9uJywgJy1waCcsICc3LjAwMDAwMCcsICctcGh0JywgJzIuMDAwMDAwJywgJy1tcycsICcxNicsICctdG4nLCAnOCcsICctbWEnLCAnMjAwJywgJy1pbWFlJywgJzxpbmZpbGUubWFlPicsICctb21hZScsICc8b3V0ZmlsZS5tYWU+Jw==

>  <s_epik_input>  (134) 
W2NIXTFbY0hdW2NIXVtjSF1bY0hdYzFOKFtDSDNdKVtDSDJdQyg9TylbTkhdYyhjKGMyMylbY0hdW2NIXVtjSF1bY0hdMyljKFtjSF1uMilbTkhdW0NIMl1jNFtjSF1bY0hdYyhbY0hdW2NIXTQpW0NIMl1OKFtDSDJdW0NIM10pW0NIMl1bQ0gzXQ==

>  <s_i_glide_gridfile>  (134) 
ATP-Grid

>  <s_lp_Force_Field>  (134) 
OPLS_2005

>  <s_lp_Variant>  (134) 
rxn502b____EMOL31412043____EMOL13728749____EMOL2868412-1

>  <s_lp_label>  (134) 
2225_sdstereoexpander_1_neutralizer_1_epik_1_stereoizer_1

>  <s_m_source_file>  (134) 
ATP-VSW-LIGPREP-001-in.maegz

>  <s_sd_BIOSOLVEIT.INFINISEE\_QUERY\_NAME>  (134) 
Ref-Lig

>  <s_sd_BIOSOLVEIT.INFINISEE\_QUERY\_SMILES>  (134) 
S(c1nc2c(cc1C[NH2+]Cc3ccc(cc3)C[NH+](C)C)cccc2)Cc4ccccc4

>  <s_sd_BIOSOLVEIT.INFINISEE\_REACTION\_NAME>  (134) 
rxn502b

>  <s_sd_BIOSOLVEIT.INFINISEE\_REAGENT1\_NAME>  (134) 
EMOL31412043

>  <s_sd_BIOSOLVEIT.INFINISEE\_REAGENT1\_SMILES>  (134) 
O=C(O)CN(c1ccccc1)C

>  <s_sd_BIOSOLVEIT.INFINISEE\_REAGENT2\_NAME>  (134) 
EMOL13728749

>  <s_sd_BIOSOLVEIT.INFINISEE\_REAGENT2\_SMILES>  (134) 
Brc1c(N)c2c(nc1)cccc2

>  <s_sd_BIOSOLVEIT.INFINISEE\_REAGENT3\_NAME>  (134) 
EMOL2868412

>  <s_sd_BIOSOLVEIT.INFINISEE\_REAGENT3\_SMILES>  (134) 
N(Cc1ccc(cc1)CN)(CC)CC

>  <s_sd_BIOSOLVEIT.INFINISEE\_SPACE>  (134) 
eXplore_7tr_2022-12

>  <s_vsw_compound_code>  (134) 
71169

>  <s_vsw_variant>  (134) 
71169-1

>  <r_epik_Charging_Adjusted_Penalty>  (134) 
0.104713556034101

>  <r_epik_Ionization_Penalty>  (134) 
0.0911

>  <r_epik_Ionization_Penalty_Charging>  (134) 
0.015900000000000001

>  <r_epik_Ionization_Penalty_Neutral>  (134) 
0.075200000000000003

>  <r_epik_State_Penalty>  (134) 
0.088800000000000004

>  <r_i_docking_score>  (134) 
-3.9335371092756999

>  <r_i_glide_ecoul>  (134) 
-3.6139547824859601

>  <r_i_glide_eff_state_penalty>  (134) 
0.088800000000000004

>  <r_i_glide_einternal>  (134) 
2.5949544906616202

>  <r_i_glide_emodel>  (134) 
-55.080840501925401

>  <r_i_glide_energy>  (134) 
-40.971193552017198

>  <r_i_glide_erotb>  (134) 
0.78412520178739697

>  <r_i_glide_esite>  (134) 
-0.0283364115141502

>  <r_i_glide_evdw>  (134) 
-37.3572387695312

>  <r_i_glide_gscore>  (134) 
-4.0223371092756999

>  <r_i_glide_hbond>  (134) 
0

>  <r_i_glide_ligand_efficiency>  (134) 
-0.109264919702103

>  <r_i_glide_ligand_efficiency_ln>  (134) 
-0.85819152535249599

>  <r_i_glide_ligand_efficiency_sa>  (134) 
-0.36078481528169698

>  <r_i_glide_lipo>  (134) 
-2.2498053346085798

>  <r_i_glide_metal>  (134) 
-0

>  <r_i_glide_rewards>  (134) 
-0.11836540909090799

>  <r_lp_Energy>  (134) 
35.483359999999998

>  <r_qp_ACxDN^.5/SA>  (134) 
0.0151054

>  <r_qp_CIQPlogS>  (134) 
-6.2210000000000001

>  <r_qp_EA(eV)>  (134) 
0.89200000000000002

>  <r_qp_FISA>  (134) 
46.776000000000003

>  <r_qp_FOSA>  (134) 
273.47500000000002

>  <r_qp_IP(eV)>  (134) 
7.9029999999999996

>  <r_qp_Jm>  (134) 
2.2245432226234199

>  <r_qp_PISA>  (134) 
381.92099999999999

>  <r_qp_PSA>  (134) 
55.713999999999999

>  <r_qp_PercentHumanOralAbsorption>  (134) 
100

>  <r_qp_QPPCaco>  (134) 
889.65499999999997

>  <r_qp_QPPMDCK>  (134) 
482.32999999999998

>  <r_qp_QPlogBB>  (134) 
-0.099000000000000005

>  <r_qp_QPlogHERG>  (134) 
-5.9459999999999997

>  <r_qp_QPlogKhsa>  (134) 
0.65600000000000003

>  <r_qp_QPlogKp>  (134) 
-2.0430000000000001

>  <r_qp_QPlogPC16>  (134) 
15.061

>  <r_qp_QPlogPo/w>  (134) 
4.8070000000000004

>  <r_qp_QPlogPoct>  (134) 
23.471

>  <r_qp_QPlogPw>  (134) 
12.215

>  <r_qp_QPlogS>  (134) 
-3.2930000000000001

>  <r_qp_QPpolrz>  (134) 
48.689999999999998

>  <r_qp_SASA>  (134) 
702.17200000000003

>  <r_qp_SAamideO>  (134) 
0

>  <r_qp_SAfluorine>  (134) 
0

>  <r_qp_WPSA>  (134) 
0

>  <r_qp_accptHB>  (134) 
7.5

>  <r_qp_dip^2/V>  (134) 
0.024901800000000002

>  <r_qp_dipole>  (134) 
6.0209999999999999

>  <r_qp_donorHB>  (134) 
2

>  <r_qp_glob>  (134) 
0.88466750000000005

>  <r_qp_mol_MW>  (134) 
481.63900000000001

>  <r_qp_volume>  (134) 
1455.7539999999999

>  <r_sd_BIOSOLVEIT.INFINISEE\_FTREES\_SIMILARITY>  (134) 
0.92900000000000005

>  <r_sd_BIOSOLVEIT.LOGP>  (134) 
4.3464999999999998

>  <r_sd_BIOSOLVEIT.MOLECULAR\_WEIGHT>  (134) 
482.64800000000002

>  <r_sd_BIOSOLVEIT.TPSA>  (134) 
61.700000000000003

>  <i_epik_Tot_Q>  (134) 
1

>  <i_epik_Tot_abs_Q>  (134) 
1

>  <i_f3d_flags>  (134) 
0

>  <i_i_glide_confnum>  (134) 
17

>  <i_i_glide_lignum>  (134) 
752

>  <i_i_glide_posenum>  (134) 
9

>  <i_i_glide_rotatable_bonds>  (134) 
12

>  <i_lp_mmshare_version>  (134) 
65135

>  <i_m_ct_format>  (134) 
2

>  <i_m_source_file_index>  (134) 
2225

>  <i_qp_#NandO>  (134) 
6

>  <i_qp_#acid>  (134) 
0

>  <i_qp_#amide>  (134) 
0

>  <i_qp_#amidine>  (134) 
0

>  <i_qp_#amine>  (134) 
1

>  <i_qp_#in34>  (134) 
0

>  <i_qp_#in56>  (134) 
22

>  <i_qp_#metab>  (134) 
10

>  <i_qp_#nonHatm>  (134) 
36

>  <i_qp_#noncon>  (134) 
0

>  <i_qp_#ringatoms>  (134) 
22

>  <i_qp_#rotor>  (134) 
11

>  <i_qp_#rtvFG>  (134) 
0

>  <i_qp_#stars>  (134) 
1

>  <i_qp_CNS>  (134) 
1

>  <i_qp_HumanOralAbsorption>  (134) 
1

>  <i_qp_RuleOfFive>  (134) 
0

>  <i_qp_RuleOfThree>  (134) 
1

>  <i_sd_BIOSOLVEIT.INFINISEE\_RESULT\_RANK>  (134) 
5572

>  <i_sd_version>  (134) 
0

>  <b_lp_Chiralities_Consistent>  (134) 
1

>  <b_sd_chiral_flag>  (134) 
0

>  <canonical_id>  (134) 
ATP-HTVS-16316C23D1E4

>  <compound_code>  (134) 
71169

>  <title>  (134) 
rxn502b____EMOL31412043____EMOL13728749____EMOL2868412

>  <variant>  (134) 
71169-1

>  <source_file>  (134) 
运行/运行/ATP-VSW/ATP-VSW-DOCK_HTVS_1-001_lib/ATP-VSW-DOCK_HTVS_1-001_lib

>  <canonical_smiles>  (134) 
CC[NH+](CC)Cc1ccc(CNc2cnc3ccccc3c2NC(=O)CN(C)c2ccccc2)cc1

>  <scaffold>  (134) 
O=C(CNc1ccccc1)Nc1c(NCc2ccccc2)cnc2ccccc12

>  <molecular_formula>  (134) 
C30H36N5O+

$$$$
ATP-HTVS-167535894C2D
     RDKit          3D

 66 69  0  0  0  0  0  0  0  0999 V2000
  199.8450  180.3977  156.3900 N   0  0  0  0  0  0  0  0  0  0  0  0
  198.9828  180.9984  155.5374 C   0  0  0  0  0  0  0  0  0  0  0  0
  198.7363  182.3727  155.7551 N   0  0  0  0  0  0  0  0  0  0  0  0
  198.7284  182.8492  157.1419 C   0  0  1  0  0  0  0  0  0  0  0  0
  197.3542  183.1579  157.6933 C   0  0  0  0  0  0  0  0  0  0  0  0
  197.0224  184.4907  158.0271 C   0  0  0  0  0  0  0  0  0  0  0  0
  195.8174  184.7670  158.5623 N   0  0  0  0  0  0  0  0  0  0  0  0
  194.8845  183.8190  158.8043 C   0  0  0  0  0  0  0  0  0  0  0  0
  193.6721  184.2229  159.3492 N   0  0  0  0  0  0  0  0  0  0  0  0
  195.1590  182.4709  158.4945 C   0  0  0  0  0  0  0  0  0  0  0  0
  196.4054  182.1380  157.9340 C   0  0  0  0  0  0  0  0  0  0  0  0
  199.3638  183.2527  154.7753 C   0  0  2  0  0  0  0  0  0  0  0  0
  198.4118  180.2754  154.4477 C   0  0  0  0  0  0  0  0  0  0  0  0
  198.6627  178.9623  154.2793 N   0  0  0  0  0  0  0  0  0  0  0  0
  199.5340  178.3702  155.1188 C   0  0  0  0  0  0  0  0  0  0  0  0
  200.1230  179.0855  156.2118 C   0  0  0  0  0  0  0  0  0  0  0  0
  201.0104  178.4174  157.0804 C   0  0  0  0  0  0  0  0  0  0  0  0
  201.3447  177.0673  156.8589 C   0  0  0  0  0  0  0  0  0  0  0  0
  200.8200  176.3751  155.7500 C   0  0  0  0  0  0  0  0  0  0  0  0
  199.9329  177.0374  154.8875 C   0  0  0  0  0  0  0  0  0  0  0  0
  197.6368  180.9233  153.4766 N   0  0  0  0  0  0  0  0  0  0  0  0
  197.5252  180.4675  152.0883 C   0  0  1  0  0  0  0  0  0  0  0  0
  198.6615  179.5328  151.5978 C   0  0  1  0  0  0  0  0  0  0  0  0
  198.5281  179.1293  150.1572 C   0  0  0  0  0  0  0  0  0  0  0  0
  198.2311  177.7895  149.8221 C   0  0  0  0  0  0  0  0  0  0  0  0
  198.0953  177.4080  148.4784 C   0  0  0  0  0  0  0  0  0  0  0  0
  198.2577  178.3823  147.4676 C   0  0  0  0  0  0  0  0  0  0  0  0
  198.5538  179.7212  147.8095 C   0  0  0  0  0  0  0  0  0  0  0  0
  198.7113  180.0926  149.1509 C   0  0  0  0  0  0  0  0  0  0  0  0
  198.1384  177.9884  146.0067 C   0  0  1  0  0  0  0  0  0  0  0  0
  199.4625  177.8400  145.3460 N   0  0  1  0  0  0  0  0  0  0  0  0
  200.1287  179.1342  145.0457 C   0  0  2  0  0  0  0  0  0  0  0  0
  200.3730  176.8860  146.0170 C   0  0  2  0  0  0  0  0  0  0  0  0
  199.1435  182.1358  157.8500 H   0  0  0  0  0  0  0  0  0  0  0  0
  199.3751  183.7241  157.2398 H   0  0  0  0  0  0  0  0  0  0  0  0
  197.6954  185.3218  157.8827 H   0  0  0  0  0  0  0  0  0  0  0  0
  192.9219  183.5697  159.5029 H   0  0  0  0  0  0  0  0  0  0  0  0
  193.4542  185.2058  159.4818 H   0  0  0  0  0  0  0  0  0  0  0  0
  194.4275  181.6890  158.6648 H   0  0  0  0  0  0  0  0  0  0  0  0
  196.6341  181.1028  157.7005 H   0  0  0  0  0  0  0  0  0  0  0  0
  200.4400  183.0747  154.7504 H   0  0  0  0  0  0  0  0  0  0  0  0
  199.1991  184.3088  155.0166 H   0  0  0  0  0  0  0  0  0  0  0  0
  198.9850  183.1053  153.7626 H   0  0  0  0  0  0  0  0  0  0  0  0
  201.4486  178.9323  157.9124 H   0  0  0  0  0  0  0  0  0  0  0  0
  202.0236  176.5554  157.5217 H   0  0  0  0  0  0  0  0  0  0  0  0
  201.0914  175.3493  155.5562 H   0  0  0  0  0  0  0  0  0  0  0  0
  199.5454  176.5297  154.0180 H   0  0  0  0  0  0  0  0  0  0  0  0
  197.4671  181.9040  153.6370 H   0  0  0  0  0  0  0  0  0  0  0  0
  196.5542  179.9886  151.9554 H   0  0  0  0  0  0  0  0  0  0  0  0
  197.5001  181.3585  151.4580 H   0  0  0  0  0  0  0  0  0  0  0  0
  199.6427  179.9859  151.7458 H   0  0  0  0  0  0  0  0  0  0  0  0
  198.6513  178.6033  152.1562 H   0  0  0  0  0  0  0  0  0  0  0  0
  198.1171  177.0467  150.6018 H   0  0  0  0  0  0  0  0  0  0  0  0
  197.8817  176.3702  148.2435 H   0  0  0  0  0  0  0  0  0  0  0  0
  198.6867  180.4826  147.0555 H   0  0  0  0  0  0  0  0  0  0  0  0
  198.9817  181.1071  149.4138 H   0  0  0  0  0  0  0  0  0  0  0  0
  197.5780  177.0554  145.9539 H   0  0  0  0  0  0  0  0  0  0  0  0
  197.5297  178.7370  145.4962 H   0  0  0  0  0  0  0  0  0  0  0  0
  200.4238  179.6641  145.9535 H   0  0  0  0  0  0  0  0  0  0  0  0
  199.4688  179.7779  144.4614 H   0  0  0  0  0  0  0  0  0  0  0  0
  201.0443  178.9760  144.4743 H   0  0  0  0  0  0  0  0  0  0  0  0
  200.6671  177.2389  147.0063 H   0  0  0  0  0  0  0  0  0  0  0  0
  201.2827  176.7565  145.4313 H   0  0  0  0  0  0  0  0  0  0  0  0
  199.9142  175.9039  146.1393 H   0  0  0  0  0  0  0  0  0  0  0  0
  199.2671  177.4429  144.4263 H   0  0  0  0  0  0  0  0  0  0  0  0
  195.6088  185.7430  158.7809 H   0  0  0  0  0  0  0  0  0  0  0  0
  1  2  2  0
  1 16  1  0
  2  3  1  0
  2 13  1  0
  3  4  1  0
  3 12  1  0
  4  5  1  0
  4 34  1  1
  4 35  1  0
  5  6  2  0
  5 11  1  0
  6  7  1  0
  6 36  1  0
  7  8  2  0
  7 66  1  0
  8  9  1  0
  8 10  1  0
  9 37  1  0
  9 38  1  0
 10 11  2  0
 10 39  1  0
 11 40  1  0
 12 41  1  6
 12 42  1  0
 12 43  1  0
 13 14  2  0
 13 21  1  0
 14 15  1  0
 15 16  1  0
 15 20  2  0
 16 17  2  0
 17 18  1  0
 17 44  1  0
 18 19  2  0
 18 45  1  0
 19 20  1  0
 19 46  1  0
 20 47  1  0
 21 22  1  0
 21 48  1  0
 22 23  1  0
 22 49  1  1
 22 50  1  0
 23 24  1  0
 23 51  1  6
 23 52  1  0
 24 25  1  0
 24 29  2  0
 25 26  2  0
 25 53  1  0
 26 27  1  0
 26 54  1  0
 27 28  2  0
 27 30  1  0
 28 29  1  0
 28 55  1  0
 29 56  1  0
 30 31  1  0
 30 57  1  1
 30 58  1  0
 31 32  1  0
 31 33  1  0
 31 65  1  6
 32 59  1  1
 32 60  1  0
 32 61  1  0
 33 62  1  1
 33 63  1  0
 33 64  1  0
M  CHG  2   7   1  31   1
M  END
>  <s_epik_cmdline>  (135) 
J2VwaWtfcHl0aG9uJywgJy1waCcsICc3LjAwMDAwMCcsICctcGh0JywgJzIuMDAwMDAwJywgJy1tcycsICcxNicsICctdG4nLCAnOCcsICctbWEnLCAnMjAwJywgJy1pbWFlJywgJzxpbmZpbGUubWFlPicsICctb21hZScsICc8b3V0ZmlsZS5tYWU+Jw==

>  <s_epik_input>  (135) 
W2NIXTFbY0hdYyhbTkgyXSluW2NIXWMxW0NIMl1OKFtDSDNdKWMobmMoYzIzKVtjSF1bY0hdW2NIXVtjSF0zKWMobjIpW05IXVtDSDJdW0NIMl1jNFtjSF1bY0hdYyhbY0hdW2NIXTQpW0NIMl1OKFtDSDNdKVtDSDNd

>  <s_i_glide_gridfile>  (135) 
ATP-Grid

>  <s_lp_Force_Field>  (135) 
OPLS_2005

>  <s_lp_Variant>  (135) 
m_282030aaa____21926464____23157418____21976814-1

>  <s_lp_label>  (135) 
1039_sdstereoexpander_1_neutralizer_1_epik_1_stereoizer_1

>  <s_m_source_file>  (135) 
ATP-VSW-LIGPREP-002-in.maegz

>  <s_sd_BIOSOLVEIT.INFINISEE\_QUERY\_NAME>  (135) 
Ref-Lig

>  <s_sd_BIOSOLVEIT.INFINISEE\_QUERY\_SMILES>  (135) 
S(c1nc2c(cc1C[NH2+]Cc3ccc(cc3)C[NH+](C)C)cccc2)Cc4ccccc4

>  <s_sd_BIOSOLVEIT.INFINISEE\_REACTION\_NAME>  (135) 
m_282030aaa

>  <s_sd_BIOSOLVEIT.INFINISEE\_REAGENT1\_SMILES>  (135) 
[R1*]NCCc1ccc(cc1)CN(C)C

>  <s_sd_BIOSOLVEIT.INFINISEE\_REAGENT2\_SMILES>  (135) 
[R1*]c1nc2c(nc1[R2*])cccc2

>  <s_sd_BIOSOLVEIT.INFINISEE\_REAGENT3\_SMILES>  (135) 
[R2*]N(Cc1cnc(N)cc1)C

>  <s_sd_BIOSOLVEIT.INFINISEE\_SPACE>  (135) 
REALSpace_44bn_2023-08

>  <s_vsw_compound_code>  (135) 
33218

>  <s_vsw_variant>  (135) 
33218-1

>  <r_epik_Charging_Adjusted_Penalty>  (135) 
0.306680277811538

>  <r_epik_Ionization_Penalty>  (135) 
0.15379999999999999

>  <r_epik_Ionization_Penalty_Charging>  (135) 
0.15329999999999999

>  <r_epik_Ionization_Penalty_Neutral>  (135) 
0.00040000000000000002

>  <r_epik_State_Penalty>  (135) 
0.15329999999999999

>  <r_i_docking_score>  (135) 
-4.2337937922232998

>  <r_i_glide_ecoul>  (135) 
-11.0883903503418

>  <r_i_glide_eff_state_penalty>  (135) 
0.15329999999999999

>  <r_i_glide_einternal>  (135) 
4.2894554138183603

>  <r_i_glide_emodel>  (135) 
-59.2063733114773

>  <r_i_glide_energy>  (135) 
-42.5821208953857

>  <r_i_glide_erotb>  (135) 
0.81284546310906203

>  <r_i_glide_esite>  (135) 
-0.111086203747781

>  <r_i_glide_evdw>  (135) 
-31.493730545043899

>  <r_i_glide_gscore>  (135) 
-4.3870937922233004

>  <r_i_glide_hbond>  (135) 
-0.20000000000000001

>  <r_i_glide_ligand_efficiency>  (135) 
-0.128296781582524

>  <r_i_glide_ligand_efficiency_ln>  (135) 
-0.94157381797941497

>  <r_i_glide_ligand_efficiency_sa>  (135) 
-0.41151633087430001

>  <r_i_glide_lipo>  (135) 
-1.04127469905384

>  <r_i_glide_metal>  (135) 
-0

>  <r_i_glide_rewards>  (135) 
-0.60963327272727097

>  <r_lp_Energy>  (135) 
38.507468000000003

>  <r_lp_tautomer_probability>  (135) 
0.999993852037798

>  <r_qp_ACxDN^.5/SA>  (135) 
0.0151377

>  <r_qp_CIQPlogS>  (135) 
-5.7140000000000004

>  <r_qp_EA(eV)>  (135) 
0.88400000000000001

>  <r_qp_FISA>  (135) 
101.07599999999999

>  <r_qp_FOSA>  (135) 
312.77199999999999

>  <r_qp_IP(eV)>  (135) 
8.2959999999999994

>  <r_qp_Jm>  (135) 
0.0089940297062367797

>  <r_qp_PISA>  (135) 
329.87799999999999

>  <r_qp_PSA>  (135) 
73.215000000000003

>  <r_qp_PercentHumanOralAbsorption>  (135) 
95.760999999999996

>  <r_qp_QPPCaco>  (135) 
271.82900000000001

>  <r_qp_QPPMDCK>  (135) 
133.89699999999999

>  <r_qp_QPlogBB>  (135) 
-0.64100000000000001

>  <r_qp_QPlogHERG>  (135) 
-6.7320000000000002

>  <r_qp_QPlogKhsa>  (135) 
0.67300000000000004

>  <r_qp_QPlogKp>  (135) 
-3.323

>  <r_qp_QPlogPC16>  (135) 
15.076000000000001

>  <r_qp_QPlogPo/w>  (135) 
4.3120000000000003

>  <r_qp_QPlogPoct>  (135) 
23.654

>  <r_qp_QPlogPw>  (135) 
13.031000000000001

>  <r_qp_QPlogS>  (135) 
-4.3680000000000003

>  <r_qp_QPpolrz>  (135) 
47.320999999999998

>  <r_qp_SASA>  (135) 
743.726

>  <r_qp_SAamideO>  (135) 
0

>  <r_qp_SAfluorine>  (135) 
0

>  <r_qp_WPSA>  (135) 
0

>  <r_qp_accptHB>  (135) 
6.5

>  <r_qp_dip^2/V>  (135) 
0.0115309

>  <r_qp_dipole>  (135) 
4.0439999999999996

>  <r_qp_donorHB>  (135) 
3

>  <r_qp_glob>  (135) 
0.82071269999999996

>  <r_qp_mol_MW>  (135) 
441.57799999999997

>  <r_qp_volume>  (135) 
1417.944

>  <r_sd_BIOSOLVEIT.INFINISEE\_FTREES\_SIMILARITY>  (135) 
0.91500000000000004

>  <r_sd_BIOSOLVEIT.LOGP>  (135) 
2.5425

>  <r_sd_BIOSOLVEIT.MOLECULAR\_WEIGHT>  (135) 
442.58800000000002

>  <r_sd_BIOSOLVEIT.TPSA>  (135) 
84.400000000000006

>  <i_epik_Tot_Q>  (135) 
2

>  <i_epik_Tot_abs_Q>  (135) 
2

>  <i_f3d_flags>  (135) 
0

>  <i_i_glide_confnum>  (135) 
10

>  <i_i_glide_lignum>  (135) 
336

>  <i_i_glide_posenum>  (135) 
2

>  <i_i_glide_rotatable_bonds>  (135) 
9

>  <i_lp_mmshare_version>  (135) 
65135

>  <i_m_ct_format>  (135) 
2

>  <i_m_source_file_index>  (135) 
1039

>  <i_qp_#NandO>  (135) 
7

>  <i_qp_#acid>  (135) 
0

>  <i_qp_#amide>  (135) 
0

>  <i_qp_#amidine>  (135) 
0

>  <i_qp_#amine>  (135) 
1

>  <i_qp_#in34>  (135) 
0

>  <i_qp_#in56>  (135) 
22

>  <i_qp_#metab>  (135) 
5

>  <i_qp_#nonHatm>  (135) 
33

>  <i_qp_#noncon>  (135) 
0

>  <i_qp_#ringatoms>  (135) 
22

>  <i_qp_#rotor>  (135) 
10

>  <i_qp_#rtvFG>  (135) 
0

>  <i_qp_#stars>  (135) 
0

>  <i_qp_CNS>  (135) 
0

>  <i_qp_HumanOralAbsorption>  (135) 
3

>  <i_qp_RuleOfFive>  (135) 
0

>  <i_qp_RuleOfThree>  (135) 
0

>  <i_sd_BIOSOLVEIT.INFINISEE\_REAGENT1\_NAME>  (135) 
21926464

>  <i_sd_BIOSOLVEIT.INFINISEE\_REAGENT2\_NAME>  (135) 
23157418

>  <i_sd_BIOSOLVEIT.INFINISEE\_REAGENT3\_NAME>  (135) 
21976814

>  <i_sd_BIOSOLVEIT.INFINISEE\_RESULT\_RANK>  (135) 
28870

>  <i_sd_version>  (135) 
0

>  <b_lp_Chiralities_Consistent>  (135) 
1

>  <b_sd_chiral_flag>  (135) 
0

>  <canonical_id>  (135) 
ATP-HTVS-167535894C2D

>  <compound_code>  (135) 
33218

>  <title>  (135) 
m_282030aaa____21926464____23157418____21976814

>  <variant>  (135) 
33218-1

>  <source_file>  (135) 
运行/运行/ATP-VSW/ATP-VSW-DOCK_HTVS_1-002_lib.maegz

>  <canonical_smiles>  (135) 
CN(Cc1ccc(N)[nH+]c1)c1nc2ccccc2nc1NCCc1ccc(C[NH+](C)C)cc1

>  <scaffold>  (135) 
c1ccc(CCNc2nc3ccccc3nc2NCc2ccc[nH+]c2)cc1

>  <molecular_formula>  (135) 
C26H33N7+2

$$$$
ATP-HTVS-169071BECF96
     RDKit          3D

 50 53  0  0  0  0  0  0  0  0999 V2000
  197.4287  181.3079  152.2968 Cl  0  0  0  0  0  0  0  0  0  0  0  0
  198.6799  180.6117  153.2772 C   0  0  0  0  0  0  0  0  0  0  0  0
  198.6706  180.6616  154.7066 C   0  0  0  0  0  0  0  0  0  0  0  0
  199.7566  180.0764  155.4225 C   0  0  0  0  0  0  0  0  0  0  0  0
  200.8207  179.4767  154.7151 C   0  0  0  0  0  0  0  0  0  0  0  0
  200.8266  179.4529  153.3143 C   0  0  0  0  0  0  0  0  0  0  0  0
  199.7639  180.0194  152.5989 C   0  0  0  0  0  0  0  0  0  0  0  0
  199.8384  180.0175  156.9425 C   0  0  2  0  0  0  0  0  0  0  0  0
  197.4976  181.2731  155.4281 C   0  0  0  0  0  0  0  0  0  0  0  0
  196.3497  181.0362  155.0537 O   0  0  0  0  0  0  0  0  0  0  0  0
  197.8289  182.1570  156.3841 N   0  0  0  0  0  0  0  0  0  0  0  0
  196.9698  182.8431  157.2979 C   0  0  0  0  0  0  0  0  0  0  0  0
  197.4200  184.0645  157.8727 C   0  0  0  0  0  0  0  0  0  0  0  0
  198.6522  184.6399  157.4891 N   0  0  0  0  0  0  0  0  0  0  0  0
  199.9232  184.2630  158.0070 C   0  0  0  0  0  0  0  0  0  0  0  0
  201.1514  184.6208  157.3920 C   0  0  0  0  0  0  0  0  0  0  0  0
  202.3919  184.2327  157.9385 C   0  0  0  0  0  0  0  0  0  0  0  0
  202.4412  183.4613  159.1121 C   0  0  0  0  0  0  0  0  0  0  0  0
  201.2396  183.0838  159.7413 C   0  0  0  0  0  0  0  0  0  0  0  0
  199.9992  183.4825  159.1962 C   0  0  0  0  0  0  0  0  0  0  0  0
  198.5403  185.4620  156.2697 C   0  0  1  0  0  0  0  0  0  0  0  0
  197.5907  186.5716  156.4011 C   0  0  0  0  0  0  0  0  0  0  0  0
  196.8416  187.4446  156.5120 N   0  0  0  0  0  0  0  0  0  0  0  0
  196.5583  184.7018  158.8022 C   0  0  0  0  0  0  0  0  0  0  0  0
  195.3155  184.0900  159.1259 C   0  0  0  0  0  0  0  0  0  0  0  0
  194.9429  182.8942  158.6218 N   0  0  0  0  0  0  0  0  0  0  0  0
  195.7491  182.2995  157.7305 C   0  0  0  0  0  0  0  0  0  0  0  0
  194.4319  184.7450  159.9973 C   0  0  0  0  0  0  0  0  0  0  0  0
  194.7466  185.9978  160.5479 C   0  0  0  0  0  0  0  0  0  0  0  0
  195.9816  186.6010  160.2478 C   0  0  0  0  0  0  0  0  0  0  0  0
  196.8900  185.9483  159.3931 C   0  0  0  0  0  0  0  0  0  0  0  0
  201.6344  179.0155  155.2507 H   0  0  0  0  0  0  0  0  0  0  0  0
  201.6457  178.9909  152.7818 H   0  0  0  0  0  0  0  0  0  0  0  0
  199.7678  180.0078  151.5193 H   0  0  0  0  0  0  0  0  0  0  0  0
  200.7626  179.5492  157.2953 H   0  0  0  0  0  0  0  0  0  0  0  0
  199.0003  179.4420  157.3366 H   0  0  0  0  0  0  0  0  0  0  0  0
  199.8319  181.0090  157.3897 H   0  0  0  0  0  0  0  0  0  0  0  0
  198.7951  182.3662  156.4767 H   0  0  0  0  0  0  0  0  0  0  0  0
  201.2059  185.2000  156.4818 H   0  0  0  0  0  0  0  0  0  0  0  0
  203.3099  184.5289  157.4526 H   0  0  0  0  0  0  0  0  0  0  0  0
  203.3960  183.1588  159.5254 H   0  0  0  0  0  0  0  0  0  0  0  0
  201.2726  182.4888  160.6462 H   0  0  0  0  0  0  0  0  0  0  0  0
  199.1020  183.1761  159.7119 H   0  0  0  0  0  0  0  0  0  0  0  0
  199.4621  185.9727  155.9854 H   0  0  0  0  0  0  0  0  0  0  0  0
  198.2391  184.8230  155.4362 H   0  0  0  0  0  0  0  0  0  0  0  0
  195.3909  181.3405  157.3714 H   0  0  0  0  0  0  0  0  0  0  0  0
  193.4751  184.2854  160.2011 H   0  0  0  0  0  0  0  0  0  0  0  0
  194.0431  186.4956  161.2002 H   0  0  0  0  0  0  0  0  0  0  0  0
  196.2267  187.5730  160.6550 H   0  0  0  0  0  0  0  0  0  0  0  0
  197.8167  186.4406  159.1571 H   0  0  0  0  0  0  0  0  0  0  0  0
  1  2  1  0
  2  3  2  0
  2  7  1  0
  3  4  1  0
  3  9  1  0
  4  5  2  0
  4  8  1  0
  5  6  1  0
  5 32  1  0
  6  7  2  0
  6 33  1  0
  7 34  1  0
  8 35  1  6
  8 36  1  0
  8 37  1  0
  9 10  2  0
  9 11  1  0
 11 12  1  0
 11 38  1  0
 12 13  2  0
 12 27  1  0
 13 14  1  0
 13 24  1  0
 14 15  1  0
 14 21  1  0
 15 16  2  0
 15 20  1  0
 16 17  1  0
 16 39  1  0
 17 18  2  0
 17 40  1  0
 18 19  1  0
 18 41  1  0
 19 20  2  0
 19 42  1  0
 20 43  1  0
 21 22  1  0
 21 44  1  6
 21 45  1  0
 22 23  3  0
 24 25  1  0
 24 31  2  0
 25 26  1  0
 25 28  2  0
 26 27  2  0
 27 46  1  0
 28 29  1  0
 28 47  1  0
 29 30  2  0
 29 48  1  0
 30 31  1  0
 30 49  1  0
 31 50  1  0
M  END
>  <s_epik_cmdline>  (136) 
J2VwaWtfcHl0aG9uJywgJy1waCcsICc3LjAwMDAwMCcsICctcGh0JywgJzIuMDAwMDAwJywgJy1tcycsICcxNicsICctdG4nLCAnOCcsICctbWEnLCAnMjAwJywgJy1pbWFlJywgJzxpbmZpbGUubWFlPicsICctb21hZScsICc8b3V0ZmlsZS5tYWU+Jw==

>  <s_epik_input>  (136) 
W2NIXTFbY0hdW2NIXWMoW0NIM10pYyhjMUNsKUMoPU8pW05IXWMoW2NIXW5jKGMyMylbY0hdW2NIXVtjSF1bY0hdMyljMk4oW0NIMl1DI04pYzRbY0hdW2NIXVtjSF1bY0hdW2NIXTQ=

>  <s_i_glide_gridfile>  (136) 
ATP-Grid

>  <s_lp_Force_Field>  (136) 
OPLS_2005

>  <s_lp_Variant>  (136) 
rxn502b____EMOL31528114____EMOL30488121____EMOL712348-1

>  <s_lp_label>  (136) 
2546_sdstereoexpander_1_neutralizer_1_epik_1_stereoizer_1

>  <s_m_source_file>  (136) 
ATP-VSW-LIGPREP-001-in.maegz

>  <s_sd_BIOSOLVEIT.INFINISEE\_QUERY\_NAME>  (136) 
Ref-Lig

>  <s_sd_BIOSOLVEIT.INFINISEE\_QUERY\_SMILES>  (136) 
S(c1nc2c(cc1C[NH2+]Cc3ccc(cc3)C[NH+](C)C)cccc2)Cc4ccccc4

>  <s_sd_BIOSOLVEIT.INFINISEE\_REACTION\_NAME>  (136) 
rxn502b

>  <s_sd_BIOSOLVEIT.INFINISEE\_REAGENT1\_NAME>  (136) 
EMOL31528114

>  <s_sd_BIOSOLVEIT.INFINISEE\_REAGENT1\_SMILES>  (136) 
Clc1c(c(ccc1)C)C(Cl)=O

>  <s_sd_BIOSOLVEIT.INFINISEE\_REAGENT2\_NAME>  (136) 
EMOL30488121

>  <s_sd_BIOSOLVEIT.INFINISEE\_REAGENT2\_SMILES>  (136) 
Brc1c(N)cnc2c1cccc2

>  <s_sd_BIOSOLVEIT.INFINISEE\_REAGENT3\_NAME>  (136) 
EMOL712348

>  <s_sd_BIOSOLVEIT.INFINISEE\_REAGENT3\_SMILES>  (136) 
N#CCNc1ccccc1

>  <s_sd_BIOSOLVEIT.INFINISEE\_SPACE>  (136) 
eXplore_7tr_2022-12

>  <s_vsw_compound_code>  (136) 
81441

>  <s_vsw_variant>  (136) 
81441-1

>  <r_epik_Charging_Adjusted_Penalty>  (136) 
0.014631335965210801

>  <r_epik_Ionization_Penalty>  (136) 
0.0147

>  <r_epik_Ionization_Penalty_Charging>  (136) 
0

>  <r_epik_Ionization_Penalty_Neutral>  (136) 
0.0147

>  <r_epik_State_Penalty>  (136) 
0.0146

>  <r_i_docking_score>  (136) 
-3.4555513397280602

>  <r_i_glide_ecoul>  (136) 
-0.65521842241287198

>  <r_i_glide_eff_state_penalty>  (136) 
0.0146

>  <r_i_glide_einternal>  (136) 
2.7877786159515399

>  <r_i_glide_emodel>  (136) 
-41.452142298640702

>  <r_i_glide_energy>  (136) 
-34.9182570576668

>  <r_i_glide_erotb>  (136) 
0.54461146686817496

>  <r_i_glide_esite>  (136) 
-0.070376362785816299

>  <r_i_glide_evdw>  (136) 
-34.263038635253899

>  <r_i_glide_gscore>  (136) 
-3.4701513397280599

>  <r_i_glide_hbond>  (136) 
-0.0292224776897183

>  <r_i_glide_ligand_efficiency>  (136) 
-0.111469398055744

>  <r_i_glide_ligand_efficiency_ln>  (136) 
-0.77933272703913903

>  <r_i_glide_ligand_efficiency_sa>  (136) 
-0.35016780998520503

>  <r_i_glide_lipo>  (136) 
-1.4729776247954001

>  <r_i_glide_metal>  (136) 
-0

>  <r_i_glide_rewards>  (136) 
-0.63075164620067004

>  <r_lp_Energy>  (136) 
37.217109000000001

>  <r_qp_ACxDN^.5/SA>  (136) 
0.0084863999999999998

>  <r_qp_CIQPlogS>  (136) 
-8.0169999999999995

>  <r_qp_EA(eV)>  (136) 
1.3440000000000001

>  <r_qp_FISA>  (136) 
81.236000000000004

>  <r_qp_FOSA>  (136) 
79.111999999999995

>  <r_qp_IP(eV)>  (136) 
8.7590000000000003

>  <r_qp_Jm>  (136) 
0.0297121350211388

>  <r_qp_PISA>  (136) 
443.82299999999998

>  <r_qp_PSA>  (136) 
65.674000000000007

>  <r_qp_PercentHumanOralAbsorption>  (136) 
100

>  <r_qp_QPPCaco>  (136) 
1680.876

>  <r_qp_QPPMDCK>  (136) 
1509.2329999999999

>  <r_qp_QPlogBB>  (136) 
-0.41799999999999998

>  <r_qp_QPlogHERG>  (136) 
-5.8739999999999997

>  <r_qp_QPlogKhsa>  (136) 
0.68200000000000005

>  <r_qp_QPlogKp>  (136) 
-0.877

>  <r_qp_QPlogPC16>  (136) 
14.003

>  <r_qp_QPlogPo/w>  (136) 
4.9249999999999998

>  <r_qp_QPlogPoct>  (136) 
20.006

>  <r_qp_QPlogPw>  (136) 
10.423999999999999

>  <r_qp_QPlogS>  (136) 
-6.2800000000000002

>  <r_qp_QPpolrz>  (136) 
43.959000000000003

>  <r_qp_SASA>  (136) 
648.09799999999996

>  <r_qp_SAamideO>  (136) 
0

>  <r_qp_SAfluorine>  (136) 
0

>  <r_qp_WPSA>  (136) 
43.926000000000002

>  <r_qp_accptHB>  (136) 
5.5

>  <r_qp_dip^2/V>  (136) 
0.043811599999999999

>  <r_qp_dipole>  (136) 
7.3780000000000001

>  <r_qp_donorHB>  (136) 
1

>  <r_qp_glob>  (136) 
0.86245570000000005

>  <r_qp_mol_MW>  (136) 
426.904

>  <r_qp_volume>  (136) 
1242.5630000000001

>  <r_sd_BIOSOLVEIT.INFINISEE\_FTREES\_SIMILARITY>  (136) 
0.91300000000000003

>  <r_sd_BIOSOLVEIT.LOGP>  (136) 
6.1105999999999998

>  <r_sd_BIOSOLVEIT.MOLECULAR\_WEIGHT>  (136) 
426.90499999999997

>  <r_sd_BIOSOLVEIT.TPSA>  (136) 
69.019999999999996

>  <i_epik_Tot_Q>  (136) 
0

>  <i_epik_Tot_abs_Q>  (136) 
0

>  <i_f3d_flags>  (136) 
0

>  <i_i_glide_confnum>  (136) 
2

>  <i_i_glide_lignum>  (136) 
1020

>  <i_i_glide_posenum>  (136) 
4

>  <i_i_glide_rotatable_bonds>  (136) 
6

>  <i_lp_mmshare_version>  (136) 
65135

>  <i_m_ct_format>  (136) 
2

>  <i_m_source_file_index>  (136) 
2546

>  <i_qp_#NandO>  (136) 
5

>  <i_qp_#acid>  (136) 
0

>  <i_qp_#amide>  (136) 
0

>  <i_qp_#amidine>  (136) 
0

>  <i_qp_#amine>  (136) 
0

>  <i_qp_#in34>  (136) 
0

>  <i_qp_#in56>  (136) 
22

>  <i_qp_#metab>  (136) 
5

>  <i_qp_#nonHatm>  (136) 
31

>  <i_qp_#noncon>  (136) 
0

>  <i_qp_#ringatoms>  (136) 
22

>  <i_qp_#rotor>  (136) 
6

>  <i_qp_#rtvFG>  (136) 
0

>  <i_qp_#stars>  (136) 
0

>  <i_qp_CNS>  (136) 
0

>  <i_qp_HumanOralAbsorption>  (136) 
1

>  <i_qp_RuleOfFive>  (136) 
0

>  <i_qp_RuleOfThree>  (136) 
1

>  <i_sd_BIOSOLVEIT.INFINISEE\_RESULT\_RANK>  (136) 
35234

>  <i_sd_version>  (136) 
0

>  <b_lp_Chiralities_Consistent>  (136) 
1

>  <b_sd_chiral_flag>  (136) 
0

>  <canonical_id>  (136) 
ATP-HTVS-169071BECF96

>  <compound_code>  (136) 
81441

>  <title>  (136) 
rxn502b____EMOL31528114____EMOL30488121____EMOL712348

>  <variant>  (136) 
81441-1

>  <source_file>  (136) 
运行/运行/ATP-VSW/ATP-VSW-DOCK_HTVS_1-001_lib/ATP-VSW-DOCK_HTVS_1-001_lib

>  <canonical_smiles>  (136) 
Cc1cccc(Cl)c1C(=O)Nc1cnc2ccccc2c1N(CC#N)c1ccccc1

>  <scaffold>  (136) 
O=C(Nc1cnc2ccccc2c1Nc1ccccc1)c1ccccc1

>  <molecular_formula>  (136) 
C25H19ClN4O

$$$$
ATP-HTVS-16A35D40F1B5
     RDKit          3D

 65 68  0  0  0  0  0  0  0  0999 V2000
  197.1371  184.8529  158.0525 F   0  0  0  0  0  0  0  0  0  0  0  0
  197.3868  183.9895  157.0410 C   0  0  0  0  0  0  0  0  0  0  0  0
  196.9487  182.6475  157.1130 C   0  0  0  0  0  0  0  0  0  0  0  0
  197.2627  181.7548  156.0621 C   0  0  0  0  0  0  0  0  0  0  0  0
  197.9841  182.2053  154.9346 C   0  0  0  0  0  0  0  0  0  0  0  0
  198.3907  183.5517  154.8605 C   0  0  0  0  0  0  0  0  0  0  0  0
  198.0894  184.4410  155.9095 C   0  0  0  0  0  0  0  0  0  0  0  0
  198.2928  181.2742  153.7793 C   0  0  1  0  0  0  0  0  0  0  0  0
  198.7218  179.9412  154.1759 N   0  0  0  0  0  0  0  0  0  0  0  0
  198.9388  178.9475  153.2529 C   0  0  0  0  0  0  0  0  0  0  0  0
  199.7443  177.9737  153.6566 N   0  0  0  0  0  0  0  0  0  0  0  0
  200.0146  176.9764  152.7873 C   0  0  0  0  0  0  0  0  0  0  0  0
  200.8862  175.9565  153.2022 N   0  0  0  0  0  0  0  0  0  0  0  0
  201.6526  176.1036  154.4362 C   0  0  2  0  0  0  0  0  0  0  0  0
  202.9833  175.3714  154.3664 C   0  0  0  0  0  0  0  0  0  0  0  0
  203.0495  173.9618  154.4404 C   0  0  0  0  0  0  0  0  0  0  0  0
  204.2966  173.3104  154.3880 C   0  0  0  0  0  0  0  0  0  0  0  0
  205.4798  174.0612  154.2371 C   0  0  0  0  0  0  0  0  0  0  0  0
  205.4175  175.4649  154.1410 C   0  0  0  0  0  0  0  0  0  0  0  0
  204.1723  176.1161  154.2103 C   0  0  0  0  0  0  0  0  0  0  0  0
  200.8244  175.7003  155.6880 C   0  0  1  0  0  0  0  0  0  0  0  0
  201.5033  176.0516  156.8824 O   0  0  0  0  0  0  0  0  0  0  0  0
  201.3682  177.4239  157.2283 C   0  0  2  0  0  0  0  0  0  0  0  0
  199.4550  176.9776  151.4871 C   0  0  0  0  0  0  0  0  0  0  0  0
  198.6075  178.0715  151.1648 C   0  0  0  0  0  0  0  0  0  0  0  0
  198.3545  179.0449  152.0609 N   0  0  0  0  0  0  0  0  0  0  0  0
  198.0468  178.1395  149.8724 C   0  0  0  0  0  0  0  0  0  0  0  0
  198.3300  177.1469  148.9111 C   0  0  0  0  0  0  0  0  0  0  0  0
  199.1611  176.0608  149.2458 C   0  0  0  0  0  0  0  0  0  0  0  0
  199.7171  175.9689  150.5353 C   0  0  0  0  0  0  0  0  0  0  0  0
  196.1320  182.1557  158.2955 C   0  0  1  0  0  0  0  0  0  0  0  0
  194.6845  182.4763  158.1367 N   0  0  2  0  0  0  0  0  0  0  0  0
  194.2836  183.7201  158.8277 C   0  0  2  0  0  0  0  0  0  0  0  0
  193.8013  181.3520  158.4966 C   0  0  2  0  0  0  0  0  0  0  0  0
  196.9355  180.7244  156.1241 H   0  0  0  0  0  0  0  0  0  0  0  0
  198.9445  183.9049  154.0012 H   0  0  0  0  0  0  0  0  0  0  0  0
  198.4085  185.4713  155.8465 H   0  0  0  0  0  0  0  0  0  0  0  0
  197.3864  181.2063  153.1785 H   0  0  0  0  0  0  0  0  0  0  0  0
  199.0649  181.7241  153.1506 H   0  0  0  0  0  0  0  0  0  0  0  0
  199.2441  179.8485  155.0368 H   0  0  0  0  0  0  0  0  0  0  0  0
  201.2401  175.3165  152.5075 H   0  0  0  0  0  0  0  0  0  0  0  0
  201.9306  177.1591  154.5060 H   0  0  0  0  0  0  0  0  0  0  0  0
  202.1555  173.3650  154.5489 H   0  0  0  0  0  0  0  0  0  0  0  0
  204.3422  172.2350  154.4695 H   0  0  0  0  0  0  0  0  0  0  0  0
  206.4363  173.5612  154.2038 H   0  0  0  0  0  0  0  0  0  0  0  0
  206.3232  176.0467  154.0343 H   0  0  0  0  0  0  0  0  0  0  0  0
  204.1307  177.1948  154.1548 H   0  0  0  0  0  0  0  0  0  0  0  0
  199.8236  176.1368  155.6939 H   0  0  0  0  0  0  0  0  0  0  0  0
  200.6634  174.6199  155.7047 H   0  0  0  0  0  0  0  0  0  0  0  0
  201.9288  177.6362  158.1418 H   0  0  0  0  0  0  0  0  0  0  0  0
  200.3194  177.6721  157.4012 H   0  0  0  0  0  0  0  0  0  0  0  0
  201.7565  178.0730  156.4437 H   0  0  0  0  0  0  0  0  0  0  0  0
  197.4184  178.9827  149.6143 H   0  0  0  0  0  0  0  0  0  0  0  0
  197.9060  177.2169  147.9172 H   0  0  0  0  0  0  0  0  0  0  0  0
  199.3782  175.2960  148.5108 H   0  0  0  0  0  0  0  0  0  0  0  0
  200.3527  175.1291  150.7661 H   0  0  0  0  0  0  0  0  0  0  0  0
  196.3031  181.0829  158.3889 H   0  0  0  0  0  0  0  0  0  0  0  0
  196.5297  182.5618  159.2250 H   0  0  0  0  0  0  0  0  0  0  0  0
  194.4287  183.6225  159.9017 H   0  0  0  0  0  0  0  0  0  0  0  0
  193.2281  183.9348  158.6613 H   0  0  0  0  0  0  0  0  0  0  0  0
  194.8492  184.5847  158.4873 H   0  0  0  0  0  0  0  0  0  0  0  0
  193.9833  181.0386  159.5251 H   0  0  0  0  0  0  0  0  0  0  0  0
  193.9417  180.4994  157.8305 H   0  0  0  0  0  0  0  0  0  0  0  0
  192.7553  181.6411  158.3923 H   0  0  0  0  0  0  0  0  0  0  0  0
  194.5049  182.6200  157.1407 H   0  0  0  0  0  0  0  0  0  0  0  0
  1  2  1  0
  2  3  2  0
  2  7  1  0
  3  4  1  0
  3 31  1  0
  4  5  2  0
  4 35  1  0
  5  6  1  0
  5  8  1  0
  6  7  2  0
  6 36  1  0
  7 37  1  0
  8  9  1  0
  8 38  1  6
  8 39  1  0
  9 10  1  0
  9 40  1  0
 10 11  2  0
 10 26  1  0
 11 12  1  0
 12 13  1  0
 12 24  2  0
 13 14  1  0
 13 41  1  0
 14 15  1  0
 14 21  1  0
 14 42  1  1
 15 16  2  0
 15 20  1  0
 16 17  1  0
 16 43  1  0
 17 18  2  0
 17 44  1  0
 18 19  1  0
 18 45  1  0
 19 20  2  0
 19 46  1  0
 20 47  1  0
 21 22  1  0
 21 48  1  6
 21 49  1  0
 22 23  1  0
 23 50  1  1
 23 51  1  0
 23 52  1  0
 24 25  1  0
 24 30  1  0
 25 26  2  0
 25 27  1  0
 27 28  2  0
 27 53  1  0
 28 29  1  0
 28 54  1  0
 29 30  2  0
 29 55  1  0
 30 56  1  0
 31 32  1  0
 31 57  1  1
 31 58  1  0
 32 33  1  0
 32 34  1  0
 32 65  1  6
 33 59  1  1
 33 60  1  0
 33 61  1  0
 34 62  1  1
 34 63  1  0
 34 64  1  0
M  CHG  1  32   1
M  END
>  <s_epik_cmdline>  (137) 
J2VwaWtfcHl0aG9uJywgJy1waCcsICc3LjAwMDAwMCcsICctcGh0JywgJzIuMDAwMDAwJywgJy1tcycsICcxNicsICctdG4nLCAnOCcsICctbWEnLCAnMjAwJywgJy1pbWFlJywgJzxpbmZpbGUubWFlPicsICctb21hZScsICc8b3V0ZmlsZS5tYWU+Jw==

>  <s_epik_input>  (137) 
W0NIM11OKFtDSDNdKVtDSDJdYyhjMUYpW2NIXWMoW2NIXVtjSF0xKVtDSDJdW05IXWMobmMoYzIzKVtjSF1bY0hdW2NIXVtjSF0zKW5jMltOSF1bQ0BASF0oW0NIMl1PW0NIM10pYzRbY0hdW2NIXVtjSF1bY0hdW2NIXTQ=

>  <s_i_glide_gridfile>  (137) 
ATP-Grid

>  <s_lp_Force_Field>  (137) 
OPLS_2005

>  <s_lp_Variant>  (137) 
m_282030aaa____21931794____22360182____21968946-5

>  <s_lp_label>  (137) 
1199_sdstereoexpander_1_neutralizer_1_epik_3_stereoizer_1

>  <s_m_source_file>  (137) 
ATP-VSW-LIGPREP-001-in.maegz

>  <s_sd_BIOSOLVEIT.INFINISEE\_QUERY\_NAME>  (137) 
Ref-Lig

>  <s_sd_BIOSOLVEIT.INFINISEE\_QUERY\_SMILES>  (137) 
S(c1nc2c(cc1C[NH2+]Cc3ccc(cc3)C[NH+](C)C)cccc2)Cc4ccccc4

>  <s_sd_BIOSOLVEIT.INFINISEE\_REACTION\_NAME>  (137) 
m_282030aaa

>  <s_sd_BIOSOLVEIT.INFINISEE\_REAGENT1\_SMILES>  (137) 
[R1*]NC(c1ccccc1)COC

>  <s_sd_BIOSOLVEIT.INFINISEE\_REAGENT2\_SMILES>  (137) 
[R2*]c1nc([R1*])c2c(n1)cccc2

>  <s_sd_BIOSOLVEIT.INFINISEE\_REAGENT3\_SMILES>  (137) 
[R2*]NCc1cc(c(F)cc1)CN(C)C

>  <s_sd_BIOSOLVEIT.INFINISEE\_SPACE>  (137) 
REALSpace_44bn_2023-08

>  <s_vsw_compound_code>  (137) 
38337

>  <s_vsw_variant>  (137) 
38337-5

>  <r_epik_Charging_Adjusted_Penalty>  (137) 
2.2992480142588501

>  <r_epik_Ionization_Penalty>  (137) 
2.4992999999999999

>  <r_epik_Ionization_Penalty_Charging>  (137) 
0.0516

>  <r_epik_Ionization_Penalty_Neutral>  (137) 
2.4477000000000002

>  <r_epik_State_Penalty>  (137) 
2.2477

>  <r_i_docking_score>  (137) 
-2.2201534554612201

>  <r_i_glide_ecoul>  (137) 
-9.7509384155273402

>  <r_i_glide_eff_state_penalty>  (137) 
2.2477

>  <r_i_glide_einternal>  (137) 
4.7585744857788104

>  <r_i_glide_emodel>  (137) 
-60.5671494351541

>  <r_i_glide_energy>  (137) 
-45.519607543945298

>  <r_i_glide_erotb>  (137) 
0.75916618431015204

>  <r_i_glide_esite>  (137) 
-0.11375816160902

>  <r_i_glide_evdw>  (137) 
-35.768669128417997

>  <r_i_glide_gscore>  (137) 
-4.4678534554612197

>  <r_i_glide_hbond>  (137) 
-0.20000000000000001

>  <r_i_glide_ligand_efficiency>  (137) 
-0.065298631042977007

>  <r_i_glide_ligand_efficiency_ln>  (137) 
-0.49049417150647501

>  <r_i_glide_ligand_efficiency_sa>  (137) 
-0.211542215485435

>  <r_i_glide_lipo>  (137) 
-1.3247341151168299

>  <r_i_glide_metal>  (137) 
-0

>  <r_i_glide_rewards>  (137) 
-0.33745314429551898

>  <r_lp_Energy>  (137) 
8.4408069999999995

>  <r_qp_ACxDN^.5/SA>  (137) 
0.0145372

>  <r_qp_CIQPlogS>  (137) 
-6.0890000000000004

>  <r_qp_EA(eV)>  (137) 
0.90700000000000003

>  <r_qp_FISA>  (137) 
36.853999999999999

>  <r_qp_FOSA>  (137) 
286.73399999999998

>  <r_qp_IP(eV)>  (137) 
8.3699999999999992

>  <r_qp_Jm>  (137) 
2.8544673895416999

>  <r_qp_PISA>  (137) 
302.983

>  <r_qp_PSA>  (137) 
53.460000000000001

>  <r_qp_PercentHumanOralAbsorption>  (137) 
100

>  <r_qp_QPPCaco>  (137) 
1104.8869999999999

>  <r_qp_QPPMDCK>  (137) 
837.952

>  <r_qp_QPlogBB>  (137) 
0.11899999999999999

>  <r_qp_QPlogHERG>  (137) 
-5.2839999999999998

>  <r_qp_QPlogKhsa>  (137) 
0.55500000000000005

>  <r_qp_QPlogKp>  (137) 
-2.234

>  <r_qp_QPlogPC16>  (137) 
13.345000000000001

>  <r_qp_QPlogPo/w>  (137) 
4.4950000000000001

>  <r_qp_QPlogPoct>  (137) 
21.195

>  <r_qp_QPlogPw>  (137) 
10.930999999999999

>  <r_qp_QPlogS>  (137) 
-2.9729999999999999

>  <r_qp_QPpolrz>  (137) 
43.985999999999997

>  <r_qp_SASA>  (137) 
651.79300000000001

>  <r_qp_SAamideO>  (137) 
0

>  <r_qp_SAfluorine>  (137) 
25.222000000000001

>  <r_qp_WPSA>  (137) 
25.222000000000001

>  <r_qp_accptHB>  (137) 
6.7000000000000002

>  <r_qp_dip^2/V>  (137) 
0.011639099999999999

>  <r_qp_dipole>  (137) 
3.9510000000000001

>  <r_qp_donorHB>  (137) 
2

>  <r_qp_glob>  (137) 
0.90228419999999998

>  <r_qp_mol_MW>  (137) 
459.565

>  <r_qp_volume>  (137) 
1341.009

>  <r_sd_BIOSOLVEIT.INFINISEE\_FTREES\_SIMILARITY>  (137) 
0.91100000000000003

>  <r_sd_BIOSOLVEIT.LOGP>  (137) 
3.8250999999999999

>  <r_sd_BIOSOLVEIT.MOLECULAR\_WEIGHT>  (137) 
460.57400000000001

>  <r_sd_BIOSOLVEIT.TPSA>  (137) 
63.509999999999998

>  <i_epik_Tot_Q>  (137) 
1

>  <i_epik_Tot_abs_Q>  (137) 
1

>  <i_f3d_flags>  (137) 
0

>  <i_i_glide_confnum>  (137) 
5

>  <i_i_glide_lignum>  (137) 
306

>  <i_i_glide_posenum>  (137) 
7

>  <i_i_glide_rotatable_bonds>  (137) 
10

>  <i_lp_mmshare_version>  (137) 
65135

>  <i_m_ct_format>  (137) 
2

>  <i_m_source_file_index>  (137) 
1199

>  <i_qp_#NandO>  (137) 
6

>  <i_qp_#acid>  (137) 
0

>  <i_qp_#amide>  (137) 
0

>  <i_qp_#amidine>  (137) 
0

>  <i_qp_#amine>  (137) 
1

>  <i_qp_#in34>  (137) 
0

>  <i_qp_#in56>  (137) 
22

>  <i_qp_#metab>  (137) 
6

>  <i_qp_#nonHatm>  (137) 
34

>  <i_qp_#noncon>  (137) 
0

>  <i_qp_#ringatoms>  (137) 
22

>  <i_qp_#rotor>  (137) 
10

>  <i_qp_#rtvFG>  (137) 
0

>  <i_qp_#stars>  (137) 
0

>  <i_qp_CNS>  (137) 
1

>  <i_qp_HumanOralAbsorption>  (137) 
3

>  <i_qp_RuleOfFive>  (137) 
0

>  <i_qp_RuleOfThree>  (137) 
0

>  <i_sd_BIOSOLVEIT.INFINISEE\_REAGENT1\_NAME>  (137) 
21931794

>  <i_sd_BIOSOLVEIT.INFINISEE\_REAGENT2\_NAME>  (137) 
22360182

>  <i_sd_BIOSOLVEIT.INFINISEE\_REAGENT3\_NAME>  (137) 
21968946

>  <i_sd_BIOSOLVEIT.INFINISEE\_RESULT\_RANK>  (137) 
40121

>  <i_sd_version>  (137) 
0

>  <b_lp_Chiralities_Consistent>  (137) 
1

>  <b_sd_chiral_flag>  (137) 
0

>  <canonical_id>  (137) 
ATP-HTVS-16A35D40F1B5

>  <compound_code>  (137) 
38337

>  <title>  (137) 
m_282030aaa____21931794____22360182____21968946

>  <variant>  (137) 
38337-5

>  <source_file>  (137) 
运行/运行/ATP-VSW/ATP-VSW-DOCK_HTVS_1-001_lib/ATP-VSW-DOCK_HTVS_1-001_lib

>  <canonical_smiles>  (137) 
COC[C@H](Nc1nc(NCc2ccc(F)c(C[NH+](C)C)c2)nc2ccccc12)c1ccccc1

>  <scaffold>  (137) 
c1ccc(CNc2nc(NCc3ccccc3)c3ccccc3n2)cc1

>  <molecular_formula>  (137) 
C27H31FN5O+

$$$$
ATP-HTVS-16AC68300479
     RDKit          3D

 60 63  0  0  0  0  0  0  0  0999 V2000
  199.8051  182.2094  155.9553 S   0  0  0  0  0  0  0  0  0  0  0  0
  199.8906  180.4863  156.2827 C   0  0  0  0  0  0  0  0  0  0  0  0
  198.9831  179.7651  155.4413 C   0  0  0  0  0  0  0  0  0  0  0  0
  199.0384  178.3534  155.5480 C   0  0  0  0  0  0  0  0  0  0  0  0
  199.9004  177.6950  156.4434 C   0  0  0  0  0  0  0  0  0  0  0  0
  200.7326  178.4443  157.2946 C   0  0  0  0  0  0  0  0  0  0  0  0
  201.5433  177.8176  158.1916 F   0  0  0  0  0  0  0  0  0  0  0  0
  200.7299  179.8442  157.2072 C   0  0  0  0  0  0  0  0  0  0  0  0
  198.1715  180.6446  154.6155 C   0  0  0  0  0  0  0  0  0  0  0  0
  197.2157  180.0724  153.7502 N   0  0  0  0  0  0  0  0  0  0  0  0
  196.5852  180.7106  152.6068 C   0  0  1  0  0  0  0  0  0  0  0  0
  197.1969  180.3766  151.2653 C   0  0  0  0  0  0  0  0  0  0  0  0
  198.5557  180.6360  150.9964 C   0  0  0  0  0  0  0  0  0  0  0  0
  199.1061  180.3096  149.7380 C   0  0  0  0  0  0  0  0  0  0  0  0
  198.2900  179.7195  148.7409 C   0  0  0  0  0  0  0  0  0  0  0  0
  196.9279  179.4788  149.0097 C   0  0  0  0  0  0  0  0  0  0  0  0
  196.3876  179.7943  150.2740 C   0  0  0  0  0  0  0  0  0  0  0  0
  198.8822  179.3163  147.3914 C   0  0  1  0  0  0  0  0  0  0  0  0
  199.1719  177.8576  147.2891 N   0  0  1  0  0  0  0  0  0  0  0  0
  200.2202  177.4080  148.2383 C   0  0  2  0  0  0  0  0  0  0  0  0
  197.9706  176.9950  147.3431 C   0  0  2  0  0  0  0  0  0  0  0  0
  198.4695  181.9775  154.8581 C   0  0  0  0  0  0  0  0  0  0  0  0
  197.9514  183.2503  154.2771 C   0  0  0  0  0  0  0  0  0  0  0  0
  198.0761  183.4173  153.0750 O   0  0  0  0  0  0  0  0  0  0  0  0
  197.3848  184.1860  155.1058 N   0  0  0  0  0  0  0  0  0  0  0  0
  197.3282  184.0794  156.5205 C   0  0  0  0  0  0  0  0  0  0  0  0
  196.6347  183.0170  157.1459 C   0  0  0  0  0  0  0  0  0  0  0  0
  196.6529  182.8896  158.5536 C   0  0  0  0  0  0  0  0  0  0  0  0
  196.0125  181.8390  159.1545 O   0  0  0  0  0  0  0  0  0  0  0  0
  197.3485  183.8324  159.3369 C   0  0  0  0  0  0  0  0  0  0  0  0
  198.0223  184.9041  158.7170 C   0  0  0  0  0  0  0  0  0  0  0  0
  198.0040  185.0295  157.3180 C   0  0  0  0  0  0  0  0  0  0  0  0
  196.8984  185.4385  154.5080 C   0  0  2  0  0  0  0  0  0  0  0  0
  198.3704  177.7630  154.9434 H   0  0  0  0  0  0  0  0  0  0  0  0
  199.8947  176.6145  156.5211 H   0  0  0  0  0  0  0  0  0  0  0  0
  201.3681  180.4265  157.8558 H   0  0  0  0  0  0  0  0  0  0  0  0
  197.1151  179.0651  153.7923 H   0  0  0  0  0  0  0  0  0  0  0  0
  195.5481  180.3783  152.5856 H   0  0  0  0  0  0  0  0  0  0  0  0
  196.5823  181.8295  152.7061 H   0  0  0  0  0  0  0  0  0  0  0  0
  199.1761  181.0932  151.7488 H   0  0  0  0  0  0  0  0  0  0  0  0
  200.1532  180.5088  149.5460 H   0  0  0  0  0  0  0  0  0  0  0  0
  196.2872  179.0533  148.2586 H   0  0  0  0  0  0  0  0  0  0  0  0
  195.3498  179.5855  150.4642 H   0  0  0  0  0  0  0  0  0  0  0  0
  198.1928  179.6127  146.5953 H   0  0  0  0  0  0  0  0  0  0  0  0
  199.7981  179.8794  147.2164 H   0  0  0  0  0  0  0  0  0  0  0  0
  199.8952  177.5163  149.2720 H   0  0  0  0  0  0  0  0  0  0  0  0
  201.1376  177.9819  148.1053 H   0  0  0  0  0  0  0  0  0  0  0  0
  200.4591  176.3554  148.0754 H   0  0  0  0  0  0  0  0  0  0  0  0
  197.4716  177.0348  148.3116 H   0  0  0  0  0  0  0  0  0  0  0  0
  198.2338  175.9464  147.1820 H   0  0  0  0  0  0  0  0  0  0  0  0
  197.2597  177.2926  146.5693 H   0  0  0  0  0  0  0  0  0  0  0  0
  196.1130  182.2792  156.5577 H   0  0  0  0  0  0  0  0  0  0  0  0
  196.4629  181.4863  159.9020 H   0  0  0  0  0  0  0  0  0  0  0  0
  197.3714  183.7295  160.4131 H   0  0  0  0  0  0  0  0  0  0  0  0
  198.5702  185.6167  159.3192 H   0  0  0  0  0  0  0  0  0  0  0  0
  198.5524  185.8355  156.8464 H   0  0  0  0  0  0  0  0  0  0  0  0
  196.4009  186.0847  155.2364 H   0  0  0  0  0  0  0  0  0  0  0  0
  196.1706  185.2312  153.7239 H   0  0  0  0  0  0  0  0  0  0  0  0
  197.7169  186.0105  154.0681 H   0  0  0  0  0  0  0  0  0  0  0  0
  199.5562  177.7288  146.3663 H   0  0  0  0  0  0  0  0  0  0  0  0
  1  2  1  0
  1 22  1  0
  2  3  1  0
  2  8  2  0
  3  4  2  0
  3  9  1  0
  4  5  1  0
  4 34  1  0
  5  6  2  0
  5 35  1  0
  6  7  1  0
  6  8  1  0
  8 36  1  0
  9 10  1  0
  9 22  2  0
 10 11  1  0
 10 37  1  0
 11 12  1  0
 11 38  1  6
 11 39  1  0
 12 13  1  0
 12 17  2  0
 13 14  2  0
 13 40  1  0
 14 15  1  0
 14 41  1  0
 15 16  2  0
 15 18  1  0
 16 17  1  0
 16 42  1  0
 17 43  1  0
 18 19  1  0
 18 44  1  6
 18 45  1  0
 19 20  1  0
 19 21  1  0
 19 60  1  6
 20 46  1  1
 20 47  1  0
 20 48  1  0
 21 49  1  1
 21 50  1  0
 21 51  1  0
 22 23  1  0
 23 24  2  0
 23 25  1  0
 25 26  1  0
 25 33  1  0
 26 27  1  0
 26 32  2  0
 27 28  2  0
 27 52  1  0
 28 29  1  0
 28 30  1  0
 29 53  1  0
 30 31  2  0
 30 54  1  0
 31 32  1  0
 31 55  1  0
 32 56  1  0
 33 57  1  1
 33 58  1  0
 33 59  1  0
M  CHG  1  19   1
M  END
>  <s_epik_cmdline>  (138) 
J2VwaWtfcHl0aG9uJywgJy1waCcsICc3LjAwMDAwMCcsICctcGh0JywgJzIuMDAwMDAwJywgJy1tcycsICcxNicsICctdG4nLCAnOCcsICctbWEnLCAnMjAwJywgJy1pbWFlJywgJzxpbmZpbGUubWFlPicsICctb21hZScsICc8b3V0ZmlsZS5tYWU+Jw==

>  <s_epik_input>  (138) 
W2NIXTFbY0hdW2NIXWMoW09IXSlbY0hdYzFOKFtDSDNdKUMoPU8pYyhzMiljKGMoYzIzKVtjSF1bY0hdYyhGKVtjSF0zKVtOSF1bQ0gyXWM0W2NIXVtjSF1jKFtjSF1bY0hdNClbQ0gyXU4oW0NIM10pW0NIM10=

>  <s_i_glide_gridfile>  (138) 
ATP-Grid

>  <s_lp_Force_Field>  (138) 
OPLS_2005

>  <s_lp_Variant>  (138) 
rxn512c____EMOL36364556____EMOL526741____EMOL50155899-1

>  <s_lp_label>  (138) 
2184_sdstereoexpander_1_neutralizer_1_epik_1_stereoizer_1

>  <s_m_source_file>  (138) 
ATP-VSW-LIGPREP-003-in.maegz

>  <s_sd_BIOSOLVEIT.INFINISEE\_QUERY\_NAME>  (138) 
Ref-Lig

>  <s_sd_BIOSOLVEIT.INFINISEE\_QUERY\_SMILES>  (138) 
S(c1nc2c(cc1C[NH2+]Cc3ccc(cc3)C[NH+](C)C)cccc2)Cc4ccccc4

>  <s_sd_BIOSOLVEIT.INFINISEE\_REACTION\_NAME>  (138) 
rxn512c

>  <s_sd_BIOSOLVEIT.INFINISEE\_REAGENT1\_NAME>  (138) 
EMOL36364556

>  <s_sd_BIOSOLVEIT.INFINISEE\_REAGENT1\_SMILES>  (138) 
Oc1cc(NC)ccc1

>  <s_sd_BIOSOLVEIT.INFINISEE\_REAGENT2\_NAME>  (138) 
EMOL526741

>  <s_sd_BIOSOLVEIT.INFINISEE\_REAGENT2\_SMILES>  (138) 
ClC=1c2c(SC1C(=O)O)cc(F)cc2

>  <s_sd_BIOSOLVEIT.INFINISEE\_REAGENT3\_NAME>  (138) 
EMOL50155899

>  <s_sd_BIOSOLVEIT.INFINISEE\_REAGENT3\_SMILES>  (138) 
N(Cc1ccc(cc1)CN)(C)C

>  <s_sd_BIOSOLVEIT.INFINISEE\_SPACE>  (138) 
eXplore_7tr_2022-12

>  <s_vsw_compound_code>  (138) 
69859

>  <s_vsw_variant>  (138) 
69859-1

>  <r_epik_Charging_Adjusted_Penalty>  (138) 
0.080189274810459593

>  <r_epik_Ionization_Penalty>  (138) 
0.0424

>  <r_epik_Ionization_Penalty_Charging>  (138) 
0.040099999999999997

>  <r_epik_Ionization_Penalty_Neutral>  (138) 
0.0023

>  <r_epik_State_Penalty>  (138) 
0.040099999999999997

>  <r_i_docking_score>  (138) 
-3.75054118131307

>  <r_i_glide_ecoul>  (138) 
-6.73433589935303

>  <r_i_glide_eff_state_penalty>  (138) 
0.040099999999999997

>  <r_i_glide_einternal>  (138) 
6.1737642288207999

>  <r_i_glide_emodel>  (138) 
-49.675246546222702

>  <r_i_glide_energy>  (138) 
-41.192725181579597

>  <r_i_glide_erotb>  (138) 
0.65386055825070699

>  <r_i_glide_esite>  (138) 
-0.0260066819497996

>  <r_i_glide_evdw>  (138) 
-34.458389282226598

>  <r_i_glide_gscore>  (138) 
-3.7906411813130698

>  <r_i_glide_hbond>  (138) 
-0.32000000000000001

>  <r_i_glide_ligand_efficiency>  (138) 
-0.113652763070093

>  <r_i_glide_ligand_efficiency_ln>  (138) 
-0.83410093946108599

>  <r_i_glide_ligand_efficiency_sa>  (138) 
-0.364545138821327

>  <r_i_glide_lipo>  (138) 
-0.95944204309084802

>  <r_i_glide_metal>  (138) 
-0

>  <r_i_glide_rewards>  (138) 
-0.405983165508842

>  <r_lp_Energy>  (138) 
44.432808999999999

>  <r_lp_tautomer_probability>  (138) 
0.999999999997365

>  <r_qp_ACxDN^.5/SA>  (138) 
0.0072434999999999999

>  <r_qp_CIQPlogS>  (138) 
-5.5110000000000001

>  <r_qp_EA(eV)>  (138) 
0.77600000000000002

>  <r_qp_FISA>  (138) 
89.338999999999999

>  <r_qp_FOSA>  (138) 
265.214

>  <r_qp_IP(eV)>  (138) 
8.0440000000000005

>  <r_qp_Jm>  (138) 
1.8320059260292698e-05

>  <r_qp_PISA>  (138) 
363.50200000000001

>  <r_qp_PSA>  (138) 
62.845999999999997

>  <r_qp_PercentHumanOralAbsorption>  (138) 
90.894000000000005

>  <r_qp_QPPCaco>  (138) 
87.599999999999994

>  <r_qp_QPPMDCK>  (138) 
113.26300000000001

>  <r_qp_QPlogBB>  (138) 
0.082000000000000003

>  <r_qp_QPlogHERG>  (138) 
-8.3010000000000002

>  <r_qp_QPlogKhsa>  (138) 
1.0640000000000001

>  <r_qp_QPlogKp>  (138) 
-5.2430000000000003

>  <r_qp_QPlogPC16>  (138) 
15.099

>  <r_qp_QPlogPo/w>  (138) 
4.984

>  <r_qp_QPlogPoct>  (138) 
21.923999999999999

>  <r_qp_QPlogPw>  (138) 
10.1

>  <r_qp_QPlogS>  (138) 
-5.1609999999999996

>  <r_qp_QPpolrz>  (138) 
49.997999999999998

>  <r_qp_SASA>  (138) 
793.81399999999996

>  <r_qp_SAamideO>  (138) 
0

>  <r_qp_SAfluorine>  (138) 
47.070999999999998

>  <r_qp_WPSA>  (138) 
75.759

>  <r_qp_accptHB>  (138) 
5.75

>  <r_qp_dip^2/V>  (138) 
0.040504100000000001

>  <r_qp_dipole>  (138) 
7.6500000000000004

>  <r_qp_donorHB>  (138) 
1

>  <r_qp_glob>  (138) 
0.77857390000000004

>  <r_qp_mol_MW>  (138) 
463.56900000000002

>  <r_qp_volume>  (138) 
1444.7080000000001

>  <r_sd_BIOSOLVEIT.INFINISEE\_FTREES\_SIMILARITY>  (138) 
0.93600000000000005

>  <r_sd_BIOSOLVEIT.LOGP>  (138) 
4.2792000000000003

>  <r_sd_BIOSOLVEIT.MOLECULAR\_WEIGHT>  (138) 
464.58100000000002

>  <r_sd_BIOSOLVEIT.TPSA>  (138) 
57.009999999999998

>  <i_epik_Tot_Q>  (138) 
1

>  <i_epik_Tot_abs_Q>  (138) 
1

>  <i_f3d_flags>  (138) 
0

>  <i_i_glide_confnum>  (138) 
5

>  <i_i_glide_lignum>  (138) 
833

>  <i_i_glide_posenum>  (138) 
16

>  <i_i_glide_rotatable_bonds>  (138) 
9

>  <i_lp_mmshare_version>  (138) 
65135

>  <i_m_ct_format>  (138) 
2

>  <i_m_source_file_index>  (138) 
2184

>  <i_qp_#NandO>  (138) 
5

>  <i_qp_#acid>  (138) 
0

>  <i_qp_#amide>  (138) 
0

>  <i_qp_#amidine>  (138) 
0

>  <i_qp_#amine>  (138) 
2

>  <i_qp_#in34>  (138) 
0

>  <i_qp_#in56>  (138) 
21

>  <i_qp_#metab>  (138) 
7

>  <i_qp_#nonHatm>  (138) 
33

>  <i_qp_#noncon>  (138) 
0

>  <i_qp_#ringatoms>  (138) 
21

>  <i_qp_#rotor>  (138) 
8

>  <i_qp_#rtvFG>  (138) 
0

>  <i_qp_#stars>  (138) 
0

>  <i_qp_CNS>  (138) 
1

>  <i_qp_HumanOralAbsorption>  (138) 
3

>  <i_qp_RuleOfFive>  (138) 
0

>  <i_qp_RuleOfThree>  (138) 
1

>  <i_sd_BIOSOLVEIT.INFINISEE\_RESULT\_RANK>  (138) 
2341

>  <i_sd_version>  (138) 
0

>  <b_lp_Chiralities_Consistent>  (138) 
1

>  <b_sd_chiral_flag>  (138) 
0

>  <canonical_id>  (138) 
ATP-HTVS-16AC68300479

>  <compound_code>  (138) 
69859

>  <title>  (138) 
rxn512c____EMOL36364556____EMOL526741____EMOL50155899

>  <variant>  (138) 
69859-1

>  <source_file>  (138) 
运行/运行/ATP-VSW/ATP-VSW-DOCK_HTVS_1-003_lib/ATP-VSW-DOCK_HTVS_1-003_lib.mae

>  <canonical_smiles>  (138) 
CN(C(=O)c1sc2cc(F)ccc2c1NCc1ccc(C[NH+](C)C)cc1)c1cccc(O)c1

>  <scaffold>  (138) 
O=C(Nc1ccccc1)c1sc2ccccc2c1NCc1ccccc1

>  <molecular_formula>  (138) 
C26H27FN3O2S+

$$$$
ATP-HTVS-16D62B7C6E45
     RDKit          3D

 53 55  0  0  0  0  0  0  0  0999 V2000
  199.5209  177.9601  151.6764 O   0  0  0  0  0  0  0  0  0  0  0  0
  199.9651  177.5824  152.9265 C   0  0  0  0  0  0  0  0  0  0  0  0
  199.5761  178.3799  154.0322 C   0  0  0  0  0  0  0  0  0  0  0  0
  199.9507  178.0898  155.2940 N   0  0  0  0  0  0  0  0  0  0  0  0
  200.6863  176.9881  155.5381 C   0  0  0  0  0  0  0  0  0  0  0  0
  201.1240  176.1280  154.5065 C   0  0  0  0  0  0  0  0  0  0  0  0
  200.7664  176.4357  153.1797 C   0  0  0  0  0  0  0  0  0  0  0  0
  201.0266  176.6961  156.9929 C   0  0  1  0  0  0  0  0  0  0  0  0
  200.3520  177.5076  157.9388 O   0  0  0  0  0  0  0  0  0  0  0  0
  198.7642  179.5028  153.7957 N   0  0  0  0  0  0  0  0  0  0  0  0
  198.2561  180.4575  154.6993 C   0  0  0  0  0  0  0  0  0  0  0  0
  197.7733  181.6801  154.1736 C   0  0  0  0  0  0  0  0  0  0  0  0
  197.2309  182.6719  155.0200 C   0  0  0  0  0  0  0  0  0  0  0  0
  197.1698  182.4548  156.4111 C   0  0  0  0  0  0  0  0  0  0  0  0
  197.6588  181.2495  156.9361 C   0  0  0  0  0  0  0  0  0  0  0  0
  198.1637  180.2528  156.0990 C   0  0  0  0  0  0  0  0  0  0  0  0
  196.5498  183.4691  157.3515 C   0  0  1  0  0  0  0  0  0  0  0  0
  195.1469  183.1425  157.7387 N   0  0  1  0  0  0  0  0  0  0  0  0
  194.9124  181.7800  158.2577 C   0  0  2  0  0  0  0  0  0  0  0  0
  194.5970  184.1591  158.6649 C   0  0  2  0  0  0  0  0  0  0  0  0
  199.7951  177.1082  150.5733 C   0  0  1  0  0  0  0  0  0  0  0  0
  199.0373  177.5236  149.3250 C   0  0  0  0  0  0  0  0  0  0  0  0
  199.5020  177.1166  148.0572 C   0  0  0  0  0  0  0  0  0  0  0  0
  198.7901  177.4769  146.8986 C   0  0  0  0  0  0  0  0  0  0  0  0
  197.6098  178.2371  147.0019 C   0  0  0  0  0  0  0  0  0  0  0  0
  197.1380  178.6365  148.2667 C   0  0  0  0  0  0  0  0  0  0  0  0
  197.8490  178.2788  149.4268 C   0  0  0  0  0  0  0  0  0  0  0  0
  201.7181  175.2564  154.7243 H   0  0  0  0  0  0  0  0  0  0  0  0
  201.0991  175.7839  152.3812 H   0  0  0  0  0  0  0  0  0  0  0  0
  200.8020  175.6561  157.2132 H   0  0  0  0  0  0  0  0  0  0  0  0
  202.0977  176.8330  157.1268 H   0  0  0  0  0  0  0  0  0  0  0  0
  199.4155  177.4914  157.7693 H   0  0  0  0  0  0  0  0  0  0  0  0
  198.6276  179.6889  152.8172 H   0  0  0  0  0  0  0  0  0  0  0  0
  197.8098  181.8659  153.1105 H   0  0  0  0  0  0  0  0  0  0  0  0
  196.8382  183.5854  154.5934 H   0  0  0  0  0  0  0  0  0  0  0  0
  197.5650  181.0334  157.9886 H   0  0  0  0  0  0  0  0  0  0  0  0
  198.4110  179.3220  156.5863 H   0  0  0  0  0  0  0  0  0  0  0  0
  197.1775  183.5520  158.2432 H   0  0  0  0  0  0  0  0  0  0  0  0
  196.5690  184.4476  156.8692 H   0  0  0  0  0  0  0  0  0  0  0  0
  195.5362  181.5745  159.1315 H   0  0  0  0  0  0  0  0  0  0  0  0
  195.1060  181.0543  157.4719 H   0  0  0  0  0  0  0  0  0  0  0  0
  193.8622  181.6294  158.5337 H   0  0  0  0  0  0  0  0  0  0  0  0
  195.1361  184.1501  159.6157 H   0  0  0  0  0  0  0  0  0  0  0  0
  193.5444  183.9675  158.8791 H   0  0  0  0  0  0  0  0  0  0  0  0
  194.6823  185.1654  158.2535 H   0  0  0  0  0  0  0  0  0  0  0  0
  200.8686  177.1192  150.3699 H   0  0  0  0  0  0  0  0  0  0  0  0
  199.4983  176.0824  150.7995 H   0  0  0  0  0  0  0  0  0  0  0  0
  200.4043  176.5280  147.9744 H   0  0  0  0  0  0  0  0  0  0  0  0
  199.1495  177.1685  145.9289 H   0  0  0  0  0  0  0  0  0  0  0  0
  197.0668  178.5061  146.1083 H   0  0  0  0  0  0  0  0  0  0  0  0
  196.2293  179.2132  148.3478 H   0  0  0  0  0  0  0  0  0  0  0  0
  197.4755  178.5817  150.3945 H   0  0  0  0  0  0  0  0  0  0  0  0
  194.5907  183.1463  156.8752 H   0  0  0  0  0  0  0  0  0  0  0  0
  1  2  1  0
  1 21  1  0
  2  3  1  0
  2  7  2  0
  3  4  2  0
  3 10  1  0
  4  5  1  0
  5  6  2  0
  5  8  1  0
  6  7  1  0
  6 28  1  0
  7 29  1  0
  8  9  1  0
  8 30  1  1
  8 31  1  0
  9 32  1  0
 10 11  1  0
 10 33  1  0
 11 12  1  0
 11 16  2  0
 12 13  2  0
 12 34  1  0
 13 14  1  0
 13 35  1  0
 14 15  2  0
 14 17  1  0
 15 16  1  0
 15 36  1  0
 16 37  1  0
 17 18  1  0
 17 38  1  1
 17 39  1  0
 18 19  1  0
 18 20  1  0
 18 53  1  6
 19 40  1  1
 19 41  1  0
 19 42  1  0
 20 43  1  1
 20 44  1  0
 20 45  1  0
 21 22  1  0
 21 46  1  6
 21 47  1  0
 22 23  2  0
 22 27  1  0
 23 24  1  0
 23 48  1  0
 24 25  2  0
 24 49  1  0
 25 26  1  0
 25 50  1  0
 26 27  2  0
 26 51  1  0
 27 52  1  0
M  CHG  1  18   1
M  END
>  <s_epik_cmdline>  (139) 
J2VwaWtfcHl0aG9uJywgJy1waCcsICc3LjAwMDAwMCcsICctcGh0JywgJzIuMDAwMDAwJywgJy1tcycsICcxNicsICctdG4nLCAnOCcsICctbWEnLCAnMjAwJywgJy1pbWFlJywgJzxpbmZpbGUubWFlPicsICctb21hZScsICc8b3V0ZmlsZS5tYWU+Jw==

>  <s_epik_input>  (139) 
W2NIXTFbY0hdW2NIXVtjSF1bY0hdYzFbQ0gyXU9jMmMobmMoW2NIXVtjSF0yKVtDSDJdW09IXSlbTkhdYzNbY0hdW2NIXWMoW2NIXVtjSF0zKVtDSDJdTihbQ0gzXSlbQ0gzXQ==

>  <s_i_glide_gridfile>  (139) 
ATP-Grid

>  <s_lp_Force_Field>  (139) 
OPLS_2005

>  <s_lp_Variant>  (139) 
rxn102c____EMOL30152961____EMOL2873068-1

>  <s_lp_label>  (139) 
2574_sdstereoexpander_1_neutralizer_1_epik_1_stereoizer_1

>  <s_m_source_file>  (139) 
ATP-VSW-LIGPREP-003-in.maegz

>  <s_sd_BIOSOLVEIT.INFINISEE\_QUERY\_NAME>  (139) 
Ref-Lig

>  <s_sd_BIOSOLVEIT.INFINISEE\_QUERY\_SMILES>  (139) 
S(c1nc2c(cc1C[NH2+]Cc3ccc(cc3)C[NH+](C)C)cccc2)Cc4ccccc4

>  <s_sd_BIOSOLVEIT.INFINISEE\_REACTION\_NAME>  (139) 
rxn102c

>  <s_sd_BIOSOLVEIT.INFINISEE\_REAGENT1\_NAME>  (139) 
EMOL30152961

>  <s_sd_BIOSOLVEIT.INFINISEE\_REAGENT1\_SMILES>  (139) 
Clc1nc(ccc1OCc2ccccc2)CO

>  <s_sd_BIOSOLVEIT.INFINISEE\_REAGENT2\_NAME>  (139) 
EMOL2873068

>  <s_sd_BIOSOLVEIT.INFINISEE\_REAGENT2\_SMILES>  (139) 
N(Cc1ccc(N)cc1)(C)C

>  <s_sd_BIOSOLVEIT.INFINISEE\_SPACE>  (139) 
eXplore_7tr_2022-12

>  <s_vsw_compound_code>  (139) 
82339

>  <s_vsw_variant>  (139) 
82339-1

>  <r_epik_Charging_Adjusted_Penalty>  (139) 
0.089667127151207199

>  <r_epik_Ionization_Penalty>  (139) 
0.053600000000000002

>  <r_epik_Ionization_Penalty_Charging>  (139) 
0.037100000000000001

>  <r_epik_Ionization_Penalty_Neutral>  (139) 
0.016500000000000001

>  <r_epik_State_Penalty>  (139) 
0.052600000000000001

>  <r_i_docking_score>  (139) 
-4.2962422991115599

>  <r_i_glide_ecoul>  (139) 
-9.9281787872314506

>  <r_i_glide_eff_state_penalty>  (139) 
0.052600000000000001

>  <r_i_glide_einternal>  (139) 
3.3672854900360099

>  <r_i_glide_emodel>  (139) 
-51.997343235768298

>  <r_i_glide_energy>  (139) 
-38.801273345947301

>  <r_i_glide_erotb>  (139) 
1.01312810212446

>  <r_i_glide_esite>  (139) 
-0.082592235859130697

>  <r_i_glide_evdw>  (139) 
-28.873094558715799

>  <r_i_glide_gscore>  (139) 
-4.3488422991115598

>  <r_i_glide_hbond>  (139) 
-0.35999999999999999

>  <r_i_glide_ligand_efficiency>  (139) 
-0.15912008515227999

>  <r_i_glide_ligand_efficiency_ln>  (139) 
-1.0000943781432801

>  <r_i_glide_ligand_efficiency_sa>  (139) 
-0.47736025493240603

>  <r_i_glide_lipo>  (139) 
-1.06236530117457

>  <r_i_glide_metal>  (139) 
-0

>  <r_i_glide_rewards>  (139) 
-0.92413131818181704

>  <r_lp_Energy>  (139) 
22.963135000000001

>  <r_lp_tautomer_probability>  (139) 
0.99999940445316104

>  <r_qp_ACxDN^.5/SA>  (139) 
0.011525499999999999

>  <r_qp_CIQPlogS>  (139) 
-4.2190000000000003

>  <r_qp_EA(eV)>  (139) 
0.11799999999999999

>  <r_qp_FISA>  (139) 
65.474000000000004

>  <r_qp_FOSA>  (139) 
262.80399999999997

>  <r_qp_IP(eV)>  (139) 
7.819

>  <r_qp_Jm>  (139) 
0.0281928375902834

>  <r_qp_PISA>  (139) 
401.80700000000002

>  <r_qp_PSA>  (139) 
53.796999999999997

>  <r_qp_PercentHumanOralAbsorption>  (139) 
100

>  <r_qp_QPPCaco>  (139) 
591.44299999999998

>  <r_qp_QPPMDCK>  (139) 
310.238

>  <r_qp_QPlogBB>  (139) 
-0.29999999999999999

>  <r_qp_QPlogHERG>  (139) 
-7.7549999999999999

>  <r_qp_QPlogKhsa>  (139) 
0.47499999999999998

>  <r_qp_QPlogKp>  (139) 
-2.5089999999999999

>  <r_qp_QPlogPC16>  (139) 
13.916

>  <r_qp_QPlogPo/w>  (139) 
3.839

>  <r_qp_QPlogPoct>  (139) 
20.018000000000001

>  <r_qp_QPlogPw>  (139) 
11.459

>  <r_qp_QPlogS>  (139) 
-4.601

>  <r_qp_QPpolrz>  (139) 
42.915999999999997

>  <r_qp_SASA>  (139) 
730.08500000000004

>  <r_qp_SAamideO>  (139) 
0

>  <r_qp_SAfluorine>  (139) 
0

>  <r_qp_WPSA>  (139) 
0

>  <r_qp_accptHB>  (139) 
5.9500000000000002

>  <r_qp_dip^2/V>  (139) 
0.0061130999999999998

>  <r_qp_dipole>  (139) 
2.7909999999999999

>  <r_qp_donorHB>  (139) 
2

>  <r_qp_glob>  (139) 
0.77873110000000001

>  <r_qp_mol_MW>  (139) 
363.45800000000003

>  <r_qp_volume>  (139) 
1274.6579999999999

>  <r_sd_BIOSOLVEIT.INFINISEE\_FTREES\_SIMILARITY>  (139) 
0.91200000000000003

>  <r_sd_BIOSOLVEIT.LOGP>  (139) 
2.5409999999999999

>  <r_sd_BIOSOLVEIT.MOLECULAR\_WEIGHT>  (139) 
364.46600000000001

>  <r_sd_BIOSOLVEIT.TPSA>  (139) 
58.82

>  <i_epik_Tot_Q>  (139) 
1

>  <i_epik_Tot_abs_Q>  (139) 
1

>  <i_f3d_flags>  (139) 
0

>  <i_i_glide_confnum>  (139) 
2

>  <i_i_glide_lignum>  (139) 
1142

>  <i_i_glide_posenum>  (139) 
2

>  <i_i_glide_rotatable_bonds>  (139) 
9

>  <i_lp_mmshare_version>  (139) 
65135

>  <i_m_ct_format>  (139) 
2

>  <i_m_source_file_index>  (139) 
2574

>  <i_qp_#NandO>  (139) 
5

>  <i_qp_#acid>  (139) 
0

>  <i_qp_#amide>  (139) 
0

>  <i_qp_#amidine>  (139) 
0

>  <i_qp_#amine>  (139) 
1

>  <i_qp_#in34>  (139) 
0

>  <i_qp_#in56>  (139) 
18

>  <i_qp_#metab>  (139) 
7

>  <i_qp_#nonHatm>  (139) 
27

>  <i_qp_#noncon>  (139) 
0

>  <i_qp_#ringatoms>  (139) 
18

>  <i_qp_#rotor>  (139) 
9

>  <i_qp_#rtvFG>  (139) 
0

>  <i_qp_#stars>  (139) 
1

>  <i_qp_CNS>  (139) 
1

>  <i_qp_HumanOralAbsorption>  (139) 
3

>  <i_qp_RuleOfFive>  (139) 
0

>  <i_qp_RuleOfThree>  (139) 
1

>  <i_sd_BIOSOLVEIT.INFINISEE\_RESULT\_RANK>  (139) 
38237

>  <i_sd_version>  (139) 
0

>  <b_lp_Chiralities_Consistent>  (139) 
1

>  <b_sd_chiral_flag>  (139) 
0

>  <canonical_id>  (139) 
ATP-HTVS-16D62B7C6E45

>  <compound_code>  (139) 
82339

>  <title>  (139) 
rxn102c____EMOL30152961____EMOL2873068

>  <variant>  (139) 
82339-1

>  <source_file>  (139) 
运行/运行/ATP-VSW/ATP-VSW-DOCK_HTVS_1-003_lib/ATP-VSW-DOCK_HTVS_1-003_lib.mae

>  <canonical_smiles>  (139) 
C[NH+](C)Cc1ccc(Nc2nc(CO)ccc2OCc2ccccc2)cc1

>  <scaffold>  (139) 
c1ccc(COc2cccnc2Nc2ccccc2)cc1

>  <molecular_formula>  (139) 
C22H26N3O2+

$$$$
ATP-HTVS-16D892EEAEA4
     RDKit          3D

 63 66  0  0  0  0  0  0  0  0999 V2000
  201.3978  178.4078  156.2273 S   0  0  0  0  0  0  0  0  0  0  0  0
  201.4030  176.8698  155.3355 C   0  0  0  0  0  0  0  0  0  0  0  0
  202.0342  175.7341  155.8982 C   0  0  0  0  0  0  0  0  0  0  0  0
  202.0540  174.5010  155.1774 C   0  0  0  0  0  0  0  0  0  0  0  0
  201.4045  174.4126  153.9100 C   0  0  0  0  0  0  0  0  0  0  0  0
  200.7968  175.5593  153.3711 C   0  0  0  0  0  0  0  0  0  0  0  0
  200.8156  176.8036  154.0351 C   0  0  0  0  0  0  0  0  0  0  0  0
  199.7181  179.1016  156.3159 C   0  0  1  0  0  0  0  0  0  0  0  0
  199.3624  179.8047  154.9775 C   0  0  1  0  0  0  0  0  0  0  0  0
  197.9539  180.1864  154.9368 N   0  0  0  0  0  0  0  0  0  0  0  0
  197.5745  180.8646  153.7558 C   0  0  0  0  0  0  0  0  0  0  0  0
  197.2416  182.2323  153.8575 C   0  0  0  0  0  0  0  0  0  0  0  0
  197.3255  182.8474  155.1245 N   0  0  0  0  0  0  0  0  0  0  0  0
  197.1664  184.1161  155.4982 C   0  0  0  0  0  0  0  0  0  0  0  0
  197.0152  185.0594  154.6965 O   0  0  0  0  0  0  0  0  0  0  0  0
  197.3470  184.3676  156.9542 C   0  0  0  0  0  0  0  0  0  0  0  0
  196.8840  183.4833  158.0003 C   0  0  0  0  0  0  0  0  0  0  0  0
  197.0885  183.8850  159.3413 C   0  0  0  0  0  0  0  0  0  0  0  0
  197.6641  185.1311  159.6694 C   0  0  0  0  0  0  0  0  0  0  0  0
  198.1496  185.9617  158.6597 C   0  0  0  0  0  0  0  0  0  0  0  0
  197.9944  185.5868  157.3208 C   0  0  0  0  0  0  0  0  0  0  0  0
  196.0401  182.1929  157.8131 C   0  0  1  0  0  0  0  0  0  0  0  0
  194.5693  182.4613  157.8327 N   0  0  2  0  0  0  0  0  0  0  0  0
  194.0710  183.6079  158.6425 C   0  0  2  0  0  0  0  0  0  0  0  0
  193.7776  181.2556  158.1166 C   0  0  2  0  0  0  0  0  0  0  0  0
  196.8194  182.9136  152.6918 C   0  0  0  0  0  0  0  0  0  0  0  0
  196.7954  182.3076  151.4930 N   0  0  0  0  0  0  0  0  0  0  0  0
  197.1677  181.0165  151.3225 C   0  0  0  0  0  0  0  0  0  0  0  0
  197.5490  180.2659  152.4502 C   0  0  0  0  0  0  0  0  0  0  0  0
  197.9125  178.9015  152.2166 C   0  0  0  0  0  0  0  0  0  0  0  0
  197.9427  178.3415  150.9155 C   0  0  0  0  0  0  0  0  0  0  0  0
  197.5515  179.1165  149.8102 C   0  0  0  0  0  0  0  0  0  0  0  0
  197.1596  180.4577  150.0162 C   0  0  0  0  0  0  0  0  0  0  0  0
  202.5444  175.7891  156.8550 H   0  0  0  0  0  0  0  0  0  0  0  0
  202.5606  173.6345  155.5709 H   0  0  0  0  0  0  0  0  0  0  0  0
  201.4039  173.4899  153.3470 H   0  0  0  0  0  0  0  0  0  0  0  0
  200.3029  175.5291  152.4074 H   0  0  0  0  0  0  0  0  0  0  0  0
  200.4397  177.6426  153.4987 H   0  0  0  0  0  0  0  0  0  0  0  0
  199.0401  178.2680  156.5063 H   0  0  0  0  0  0  0  0  0  0  0  0
  199.6517  179.7796  157.1633 H   0  0  0  0  0  0  0  0  0  0  0  0
  200.0204  180.6970  154.8125 H   0  0  0  0  0  0  0  0  0  0  0  0
  199.5421  179.1350  154.1975 H   0  0  0  0  0  0  0  0  0  0  0  0
  197.5269  180.4355  155.8359 H   0  0  0  0  0  0  0  0  0  0  0  0
  197.5713  182.2109  155.8947 H   0  0  0  0  0  0  0  0  0  0  0  0
  196.7114  183.2800  160.1476 H   0  0  0  0  0  0  0  0  0  0  0  0
  197.6857  185.4926  160.6879 H   0  0  0  0  0  0  0  0  0  0  0  0
  198.6239  186.9013  158.9314 H   0  0  0  0  0  0  0  0  0  0  0  0
  198.3379  186.2804  156.5601 H   0  0  0  0  0  0  0  0  0  0  0  0
  196.2072  181.6108  156.8977 H   0  0  0  0  0  0  0  0  0  0  0  0
  196.3134  181.5345  158.6580 H   0  0  0  0  0  0  0  0  0  0  0  0
  194.3221  183.4415  159.6944 H   0  0  0  0  0  0  0  0  0  0  0  0
  192.9793  183.7174  158.5788 H   0  0  0  0  0  0  0  0  0  0  0  0
  194.4839  184.5672  158.3241 H   0  0  0  0  0  0  0  0  0  0  0  0
  194.0389  180.8416  159.0918 H   0  0  0  0  0  0  0  0  0  0  0  0
  193.9612  180.4953  157.3731 H   0  0  0  0  0  0  0  0  0  0  0  0
  192.7074  181.4564  158.0410 H   0  0  0  0  0  0  0  0  0  0  0  0
  196.4718  183.9439  152.6715 H   0  0  0  0  0  0  0  0  0  0  0  0
  198.1499  178.2906  153.0522 H   0  0  0  0  0  0  0  0  0  0  0  0
  198.2324  177.2969  150.7835 H   0  0  0  0  0  0  0  0  0  0  0  0
  197.5282  178.6771  148.8165 H   0  0  0  0  0  0  0  0  0  0  0  0
  196.8541  181.0555  149.1834 H   0  0  0  0  0  0  0  0  0  0  0  0
  196.5211  182.8401  150.6747 H   0  0  0  0  0  0  0  0  0  0  0  0
  194.2826  182.6559  156.8548 H   0  0  0  0  0  0  0  0  0  0  0  0
  1  2  1  0
  1  8  1  0
  2  3  2  0
  2  7  1  0
  3  4  1  0
  3 34  1  0
  4  5  2  0
  4 35  1  0
  5  6  1  0
  5 36  1  0
  6  7  2  0
  6 37  1  0
  7 38  1  0
  8  9  1  0
  8 39  1  1
  8 40  1  0
  9 10  1  0
  9 41  1  6
  9 42  1  0
 10 11  1  0
 10 43  1  0
 11 12  2  0
 11 29  1  0
 12 13  1  0
 12 26  1  0
 13 14  1  0
 13 44  1  0
 14 15  2  0
 14 16  1  0
 16 17  1  0
 16 21  2  0
 17 18  2  0
 17 22  1  0
 18 19  1  0
 18 45  1  0
 19 20  2  0
 19 46  1  0
 20 21  1  0
 20 47  1  0
 21 48  1  0
 22 23  1  0
 22 49  1  6
 22 50  1  0
 23 24  1  0
 23 25  1  0
 23 63  1  6
 24 51  1  1
 24 52  1  0
 24 53  1  0
 25 54  1  1
 25 55  1  0
 25 56  1  0
 26 27  2  0
 26 57  1  0
 27 28  1  0
 27 62  1  0
 28 29  1  0
 28 33  2  0
 29 30  2  0
 30 31  1  0
 30 58  1  0
 31 32  2  0
 31 59  1  0
 32 33  1  0
 32 60  1  0
 33 61  1  0
M  CHG  2  23   1  27   1
M  END
>  <s_epik_cmdline>  (140) 
J2VwaWtfcHl0aG9uJywgJy1waCcsICc3LjAwMDAwMCcsICctcGh0JywgJzIuMDAwMDAwJywgJy1tcycsICcxNicsICctdG4nLCAnOCcsICctbWEnLCAnMjAwJywgJy1pbWFlJywgJzxpbmZpbGUubWFlPicsICctb21hZScsICc8b3V0ZmlsZS5tYWU+Jw==

>  <s_epik_input>  (140) 
W2NIXTFbY0hdW2NIXVtjSF1bY0hdYzFTW0NIMl1bQ0gyXVtOSF1jKGMoYzIzKVtjSF1bY0hdW2NIXVtjSF0zKWMoW2NIXW4yKVtOSF1DKD1PKWM0YyhbQ0gyXU4oW0NIM10pW0NIM10pW2NIXVtjSF1bY0hdW2NIXTQ=

>  <s_i_glide_gridfile>  (140) 
ATP-Grid

>  <s_lp_Force_Field>  (140) 
OPLS_2005

>  <s_lp_Variant>  (140) 
rxn502b____EMOL5415347____EMOL30488121____EMOL2866855-1

>  <s_lp_label>  (140) 
2341_sdstereoexpander_1_neutralizer_1_epik_1_stereoizer_1

>  <s_m_source_file>  (140) 
ATP-VSW-LIGPREP-003-in.maegz

>  <s_sd_BIOSOLVEIT.INFINISEE\_QUERY\_NAME>  (140) 
Ref-Lig

>  <s_sd_BIOSOLVEIT.INFINISEE\_QUERY\_SMILES>  (140) 
S(c1nc2c(cc1C[NH2+]Cc3ccc(cc3)C[NH+](C)C)cccc2)Cc4ccccc4

>  <s_sd_BIOSOLVEIT.INFINISEE\_REACTION\_NAME>  (140) 
rxn502b

>  <s_sd_BIOSOLVEIT.INFINISEE\_REAGENT1\_NAME>  (140) 
EMOL5415347

>  <s_sd_BIOSOLVEIT.INFINISEE\_REAGENT1\_SMILES>  (140) 
O=C(O)c1c(cccc1)CN(C)C

>  <s_sd_BIOSOLVEIT.INFINISEE\_REAGENT2\_NAME>  (140) 
EMOL30488121

>  <s_sd_BIOSOLVEIT.INFINISEE\_REAGENT2\_SMILES>  (140) 
Brc1c(N)cnc2c1cccc2

>  <s_sd_BIOSOLVEIT.INFINISEE\_REAGENT3\_NAME>  (140) 
EMOL2866855

>  <s_sd_BIOSOLVEIT.INFINISEE\_REAGENT3\_SMILES>  (140) 
S(c1ccccc1)CCN

>  <s_sd_BIOSOLVEIT.INFINISEE\_SPACE>  (140) 
eXplore_7tr_2022-12

>  <s_vsw_compound_code>  (140) 
74883

>  <s_vsw_variant>  (140) 
74883-1

>  <r_epik_Charging_Adjusted_Penalty>  (140) 
0.20932440128475699

>  <r_epik_Ionization_Penalty>  (140) 
0.105

>  <r_epik_Ionization_Penalty_Charging>  (140) 
0.1048

>  <r_epik_Ionization_Penalty_Neutral>  (140) 
0.00020000000000000001

>  <r_epik_State_Penalty>  (140) 
0.1045

>  <r_i_docking_score>  (140) 
-4.9512576046549901

>  <r_i_glide_ecoul>  (140) 
-13.5227060317993

>  <r_i_glide_eff_state_penalty>  (140) 
0.1045

>  <r_i_glide_einternal>  (140) 
4.3613452911376998

>  <r_i_glide_emodel>  (140) 
-66.758604243707595

>  <r_i_glide_energy>  (140) 
-47.759137153625502

>  <r_i_glide_erotb>  (140) 
0.76504645653131498

>  <r_i_glide_esite>  (140) 
-0.17359362802533301

>  <r_i_glide_evdw>  (140) 
-34.2364311218262

>  <r_i_glide_gscore>  (140) 
-5.0557576046549899

>  <r_i_glide_hbond>  (140) 
-0.14903869387914501

>  <r_i_glide_ligand_efficiency>  (140) 
-0.150038109231969

>  <r_i_glide_ligand_efficiency_ln>  (140) 
-1.1011340550354201

>  <r_i_glide_ligand_efficiency_sa>  (140) 
-0.48125238560830502

>  <r_i_glide_lipo>  (140) 
-1.4758031420569899

>  <r_i_glide_metal>  (140) 
-0

>  <r_i_glide_rewards>  (140) 
-0.28214113636363503

>  <r_lp_Energy>  (140) 
41.531007000000002

>  <r_qp_ACxDN^.5/SA>  (140) 
0.0140862

>  <r_qp_CIQPlogS>  (140) 
-5.9130000000000003

>  <r_qp_EA(eV)>  (140) 
0.96499999999999997

>  <r_qp_FISA>  (140) 
53.780000000000001

>  <r_qp_FOSA>  (140) 
184.72300000000001

>  <r_qp_IP(eV)>  (140) 
8.3200000000000003

>  <r_qp_Jm>  (140) 
0.32630962821578602

>  <r_qp_PISA>  (140) 
428.44200000000001

>  <r_qp_PSA>  (140) 
54.853000000000002

>  <r_qp_PercentHumanOralAbsorption>  (140) 
100

>  <r_qp_QPPCaco>  (140) 
763.49099999999999

>  <r_qp_QPPMDCK>  (140) 
642.46199999999999

>  <r_qp_QPlogBB>  (140) 
0.017000000000000001

>  <r_qp_QPlogHERG>  (140) 
-6.6440000000000001

>  <r_qp_QPlogKhsa>  (140) 
0.627

>  <r_qp_QPlogKp>  (140) 
-2.2000000000000002

>  <r_qp_QPlogPC16>  (140) 
15.115

>  <r_qp_QPlogPo/w>  (140) 
4.6890000000000001

>  <r_qp_QPlogPoct>  (140) 
23.164000000000001

>  <r_qp_QPlogPw>  (140) 
12.542

>  <r_qp_QPlogS>  (140) 
-3.9460000000000002

>  <r_qp_QPpolrz>  (140) 
47.604999999999997

>  <r_qp_SASA>  (140) 
702.77800000000002

>  <r_qp_SAamideO>  (140) 
0

>  <r_qp_SAfluorine>  (140) 
0

>  <r_qp_WPSA>  (140) 
35.832999999999998

>  <r_qp_accptHB>  (140) 
7

>  <r_qp_dip^2/V>  (140) 
0.035223999999999998

>  <r_qp_dipole>  (140) 
6.9859999999999998

>  <r_qp_donorHB>  (140) 
2

>  <r_qp_glob>  (140) 
0.85521849999999999

>  <r_qp_mol_MW>  (140) 
456.60399999999998

>  <r_qp_volume>  (140) 
1385.4649999999999

>  <r_sd_BIOSOLVEIT.INFINISEE\_FTREES\_SIMILARITY>  (140) 
0.92100000000000004

>  <r_sd_BIOSOLVEIT.LOGP>  (140) 
4.3357999999999999

>  <r_sd_BIOSOLVEIT.MOLECULAR\_WEIGHT>  (140) 
457.61799999999999

>  <r_sd_BIOSOLVEIT.TPSA>  (140) 
58.460000000000001

>  <i_epik_Tot_Q>  (140) 
2

>  <i_epik_Tot_abs_Q>  (140) 
2

>  <i_f3d_flags>  (140) 
0

>  <i_i_glide_confnum>  (140) 
6

>  <i_i_glide_lignum>  (140) 
973

>  <i_i_glide_posenum>  (140) 
16

>  <i_i_glide_rotatable_bonds>  (140) 
10

>  <i_lp_mmshare_version>  (140) 
65135

>  <i_m_ct_format>  (140) 
2

>  <i_m_source_file_index>  (140) 
2341

>  <i_qp_#NandO>  (140) 
5

>  <i_qp_#acid>  (140) 
0

>  <i_qp_#amide>  (140) 
0

>  <i_qp_#amidine>  (140) 
0

>  <i_qp_#amine>  (140) 
1

>  <i_qp_#in34>  (140) 
0

>  <i_qp_#in56>  (140) 
22

>  <i_qp_#metab>  (140) 
5

>  <i_qp_#nonHatm>  (140) 
33

>  <i_qp_#noncon>  (140) 
0

>  <i_qp_#ringatoms>  (140) 
22

>  <i_qp_#rotor>  (140) 
9

>  <i_qp_#rtvFG>  (140) 
0

>  <i_qp_#stars>  (140) 
0

>  <i_qp_CNS>  (140) 
1

>  <i_qp_HumanOralAbsorption>  (140) 
3

>  <i_qp_RuleOfFive>  (140) 
0

>  <i_qp_RuleOfThree>  (140) 
0

>  <i_sd_BIOSOLVEIT.INFINISEE\_RESULT\_RANK>  (140) 
15159

>  <i_sd_version>  (140) 
0

>  <b_lp_Chiralities_Consistent>  (140) 
1

>  <b_sd_chiral_flag>  (140) 
0

>  <canonical_id>  (140) 
ATP-HTVS-16D892EEAEA4

>  <compound_code>  (140) 
74883

>  <title>  (140) 
rxn502b____EMOL5415347____EMOL30488121____EMOL2866855

>  <variant>  (140) 
74883-1

>  <source_file>  (140) 
运行/运行/ATP-VSW/ATP-VSW-DOCK_HTVS_1-003_lib/ATP-VSW-DOCK_HTVS_1-003_lib.mae

>  <canonical_smiles>  (140) 
C[NH+](C)Cc1ccccc1C(=O)Nc1c[nH+]c2ccccc2c1NCCSc1ccccc1

>  <scaffold>  (140) 
O=C(Nc1c[nH+]c2ccccc2c1NCCSc1ccccc1)c1ccccc1

>  <molecular_formula>  (140) 
C27H30N4OS+2

$$$$
ATP-HTVS-1714ADEB4D31
     RDKit          3D

 55 58  0  0  0  0  0  0  0  0999 V2000
  195.6681  183.6460  150.3010 F   0  0  0  0  0  0  0  0  0  0  0  0
  196.7667  184.2071  150.8558 C   0  0  0  0  0  0  0  0  0  0  0  0
  197.5122  185.1630  150.1387 C   0  0  0  0  0  0  0  0  0  0  0  0
  198.6280  185.7821  150.7382 C   0  0  0  0  0  0  0  0  0  0  0  0
  199.0079  185.4441  152.0569 C   0  0  0  0  0  0  0  0  0  0  0  0
  198.2669  184.4621  152.7574 C   0  0  0  0  0  0  0  0  0  0  0  0
  197.1476  183.8531  152.1619 C   0  0  0  0  0  0  0  0  0  0  0  0
  200.2169  186.1285  152.6947 C   0  0  1  0  0  0  0  0  0  0  0  0
  200.1129  186.2554  154.1460 N   0  0  0  0  0  0  0  0  0  0  0  0
  199.1996  187.3195  154.5418 C   0  0  1  0  0  0  0  0  0  0  0  0
  198.4783  186.9786  155.7796 C   0  0  0  0  0  0  0  0  0  0  0  0
  197.8397  186.6622  156.7780 C   0  0  0  0  0  0  0  0  0  0  0  0
  197.0479  186.2153  157.9356 C   0  0  0  0  0  0  0  0  0  0  0  0
  196.6684  187.1264  158.9618 C   0  0  0  0  0  0  0  0  0  0  0  0
  197.1107  188.4826  158.8970 N   0  0  0  0  0  0  0  0  0  0  0  0
  196.9548  189.4849  159.7804 C   0  0  0  0  0  0  0  0  0  0  0  0
  196.3362  189.3920  160.8397 O   0  0  0  0  0  0  0  0  0  0  0  0
  197.6483  190.7688  159.3953 C   0  0  0  0  0  0  0  0  0  0  0  0
  198.1019  191.6869  160.3793 C   0  0  0  0  0  0  0  0  0  0  0  0
  197.9469  191.4444  161.7065 O   0  0  0  0  0  0  0  0  0  0  0  0
  198.7529  192.8783  159.9985 C   0  0  0  0  0  0  0  0  0  0  0  0
  198.9378  193.1838  158.6395 C   0  0  0  0  0  0  0  0  0  0  0  0
  198.4697  192.2940  157.6527 C   0  0  0  0  0  0  0  0  0  0  0  0
  197.8206  191.1020  158.0302 C   0  0  0  0  0  0  0  0  0  0  0  0
  195.8630  186.6321  160.0183 C   0  0  0  0  0  0  0  0  0  0  0  0
  195.4646  185.3574  160.1167 N   0  0  0  0  0  0  0  0  0  0  0  0
  195.8285  184.4849  159.1634 C   0  0  0  0  0  0  0  0  0  0  0  0
  196.6306  184.8583  158.0487 C   0  0  0  0  0  0  0  0  0  0  0  0
  196.9712  183.8776  157.0822 C   0  0  0  0  0  0  0  0  0  0  0  0
  196.5153  182.5566  157.2188 C   0  0  0  0  0  0  0  0  0  0  0  0
  195.7162  182.1999  158.3155 C   0  0  0  0  0  0  0  0  0  0  0  0
  195.3817  183.1603  159.2796 C   0  0  0  0  0  0  0  0  0  0  0  0
  201.5096  185.3565  152.3865 C   0  0  2  0  0  0  0  0  0  0  0  0
  199.7614  185.3826  154.5076 H   0  0  0  0  0  0  0  0  0  0  0  0
  197.2113  185.4325  149.1376 H   0  0  0  0  0  0  0  0  0  0  0  0
  199.1887  186.5184  150.1812 H   0  0  0  0  0  0  0  0  0  0  0  0
  198.5410  184.1649  153.7583 H   0  0  0  0  0  0  0  0  0  0  0  0
  196.5715  183.1260  152.7157 H   0  0  0  0  0  0  0  0  0  0  0  0
  200.3156  187.1290  152.2712 H   0  0  0  0  0  0  0  0  0  0  0  0
  199.7573  188.2436  154.6938 H   0  0  0  0  0  0  0  0  0  0  0  0
  198.4457  187.5107  153.7802 H   0  0  0  0  0  0  0  0  0  0  0  0
  197.6451  188.7219  158.0755 H   0  0  0  0  0  0  0  0  0  0  0  0
  198.4163  190.6389  161.9864 H   0  0  0  0  0  0  0  0  0  0  0  0
  199.1136  193.5567  160.7585 H   0  0  0  0  0  0  0  0  0  0  0  0
  199.4421  194.0935  158.3545 H   0  0  0  0  0  0  0  0  0  0  0  0
  198.5963  192.5258  156.6039 H   0  0  0  0  0  0  0  0  0  0  0  0
  197.4607  190.4521  157.2478 H   0  0  0  0  0  0  0  0  0  0  0  0
  195.5021  187.2337  160.8326 H   0  0  0  0  0  0  0  0  0  0  0  0
  197.5636  184.1168  156.2132 H   0  0  0  0  0  0  0  0  0  0  0  0
  196.7560  181.8115  156.4746 H   0  0  0  0  0  0  0  0  0  0  0  0
  195.3592  181.1853  158.4180 H   0  0  0  0  0  0  0  0  0  0  0  0
  194.7603  182.8830  160.1154 H   0  0  0  0  0  0  0  0  0  0  0  0
  201.6669  185.2684  151.3110 H   0  0  0  0  0  0  0  0  0  0  0  0
  201.4869  184.3469  152.7980 H   0  0  0  0  0  0  0  0  0  0  0  0
  202.3810  185.8656  152.7989 H   0  0  0  0  0  0  0  0  0  0  0  0
  1  2  1  0
  2  3  1  0
  2  7  2  0
  3  4  2  0
  3 35  1  0
  4  5  1  0
  4 36  1  0
  5  6  2  0
  5  8  1  0
  6  7  1  0
  6 37  1  0
  7 38  1  0
  8  9  1  0
  8 33  1  0
  8 39  1  6
  9 10  1  0
  9 34  1  0
 10 11  1  0
 10 40  1  1
 10 41  1  0
 11 12  3  0
 12 13  1  0
 13 14  2  0
 13 28  1  0
 14 15  1  0
 14 25  1  0
 15 16  1  0
 15 42  1  0
 16 17  2  0
 16 18  1  0
 18 19  1  0
 18 24  2  0
 19 20  1  0
 19 21  2  0
 20 43  1  0
 21 22  1  0
 21 44  1  0
 22 23  2  0
 22 45  1  0
 23 24  1  0
 23 46  1  0
 24 47  1  0
 25 26  2  0
 25 48  1  0
 26 27  1  0
 27 28  1  0
 27 32  2  0
 28 29  2  0
 29 30  1  0
 29 49  1  0
 30 31  2  0
 30 50  1  0
 31 32  1  0
 31 51  1  0
 32 52  1  0
 33 53  1  6
 33 54  1  0
 33 55  1  0
M  END
>  <s_epik_cmdline>  (141) 
J2VwaWtfcHl0aG9uJywgJy1waCcsICc3LjAwMDAwMCcsICctcGh0JywgJzIuMDAwMDAwJywgJy1tcycsICcxNicsICctdG4nLCAnOCcsICctbWEnLCAnMjAwJywgJy1pbWFlJywgJzxpbmZpbGUubWFlPicsICctb21hZScsICc8b3V0ZmlsZS5tYWU+Jw==

>  <s_epik_input>  (141) 
RmMxW2NIXVtjSF1jKFtjSF1bY0hdMSlbQ0BIXShbQ0gzXSlbTkhdW0NIMl1DI0NjKGMoYzIzKVtjSF1bY0hdW2NIXVtjSF0zKWMoW2NIXW4yKVtOSF1DKD1PKWM0YyhbT0hdKVtjSF1bY0hdW2NIXVtjSF00

>  <s_i_glide_gridfile>  (141) 
ATP-Grid

>  <s_lp_Force_Field>  (141) 
OPLS_2005

>  <s_lp_Variant>  (141) 
rxn503b____EMOL478035____EMOL30488121____EMOL317506007-4

>  <s_lp_label>  (141) 
2593_sdstereoexpander_2_neutralizer_1_epik_2_stereoizer_1

>  <s_m_source_file>  (141) 
ATP-VSW-LIGPREP-001-in.maegz

>  <s_sd_BIOSOLVEIT.INFINISEE\_QUERY\_NAME>  (141) 
Ref-Lig

>  <s_sd_BIOSOLVEIT.INFINISEE\_QUERY\_SMILES>  (141) 
S(c1nc2c(cc1C[NH2+]Cc3ccc(cc3)C[NH+](C)C)cccc2)Cc4ccccc4

>  <s_sd_BIOSOLVEIT.INFINISEE\_REACTION\_NAME>  (141) 
rxn503b

>  <s_sd_BIOSOLVEIT.INFINISEE\_REAGENT1\_NAME>  (141) 
EMOL478035

>  <s_sd_BIOSOLVEIT.INFINISEE\_REAGENT1\_SMILES>  (141) 
O=C(O)c1c(O)cccc1

>  <s_sd_BIOSOLVEIT.INFINISEE\_REAGENT2\_NAME>  (141) 
EMOL30488121

>  <s_sd_BIOSOLVEIT.INFINISEE\_REAGENT2\_SMILES>  (141) 
Brc1c(N)cnc2c1cccc2

>  <s_sd_BIOSOLVEIT.INFINISEE\_REAGENT3\_NAME>  (141) 
EMOL317506007

>  <s_sd_BIOSOLVEIT.INFINISEE\_REAGENT3\_SMILES>  (141) 
Fc1ccc(cc1)C(NCC#C)C

>  <s_sd_BIOSOLVEIT.INFINISEE\_SPACE>  (141) 
eXplore_7tr_2022-12

>  <s_vsw_compound_code>  (141) 
82945

>  <s_vsw_variant>  (141) 
82945-4

>  <r_epik_Charging_Adjusted_Penalty>  (141) 
0.809796903479446

>  <r_epik_Ionization_Penalty>  (141) 
0.81000000000000005

>  <r_epik_Ionization_Penalty_Charging>  (141) 
0

>  <r_epik_Ionization_Penalty_Neutral>  (141) 
0.81000000000000005

>  <r_epik_State_Penalty>  (141) 
0.80979999999999996

>  <r_i_docking_score>  (141) 
-3.7794289565300798

>  <r_i_glide_ecoul>  (141) 
-9.8470344543456996

>  <r_i_glide_eff_state_penalty>  (141) 
0.80979999999999996

>  <r_i_glide_einternal>  (141) 
8.8891057968139595

>  <r_i_glide_emodel>  (141) 
-51.774085217699202

>  <r_i_glide_energy>  (141) 
-42.731742858886697

>  <r_i_glide_erotb>  (141) 
0.50634452254862905

>  <r_i_glide_esite>  (141) 
-0.012059274927861199

>  <r_i_glide_evdw>  (141) 
-32.884708404541001

>  <r_i_glide_gscore>  (141) 
-4.5892289565300803

>  <r_i_glide_hbond>  (141) 
0

>  <r_i_glide_ligand_efficiency>  (141) 
-0.114528150197881

>  <r_i_glide_ligand_efficiency_ln>  (141) 
-0.84052543109645494

>  <r_i_glide_ligand_efficiency_sa>  (141) 
-0.367352973082472

>  <r_i_glide_lipo>  (141) 
-1.54725450459687

>  <r_i_glide_metal>  (141) 
-0

>  <r_i_glide_rewards>  (141) 
-0.41496911117507401

>  <r_lp_Energy>  (141) 
35.422314

>  <r_lp_tautomer_probability>  (141) 
0.999999999997365

>  <r_qp_ACxDN^.5/SA>  (141) 
0.0095914999999999993

>  <r_qp_CIQPlogS>  (141) 
-6.4359999999999999

>  <r_qp_EA(eV)>  (141) 
1.194

>  <r_qp_FISA>  (141) 
117.869

>  <r_qp_FOSA>  (141) 
132.24000000000001

>  <r_qp_IP(eV)>  (141) 
8.6379999999999999

>  <r_qp_Jm>  (141) 
0.0021943508363952498

>  <r_qp_PISA>  (141) 
416.53800000000001

>  <r_qp_PSA>  (141) 
79.176000000000002

>  <r_qp_PercentHumanOralAbsorption>  (141) 
95.625

>  <r_qp_QPPCaco>  (141) 
188.386

>  <r_qp_QPPMDCK>  (141) 
137.83099999999999

>  <r_qp_QPlogBB>  (141) 
-0.56100000000000005

>  <r_qp_QPlogHERG>  (141) 
-6.8949999999999996

>  <r_qp_QPlogKhsa>  (141) 
0.92300000000000004

>  <r_qp_QPlogKp>  (141) 
-3.5190000000000001

>  <r_qp_QPlogPC16>  (141) 
14.569000000000001

>  <r_qp_QPlogPo/w>  (141) 
4.7750000000000004

>  <r_qp_QPlogPoct>  (141) 
21.869

>  <r_qp_QPlogPw>  (141) 
10.895

>  <r_qp_QPlogS>  (141) 
-4.7830000000000004

>  <r_qp_QPpolrz>  (141) 
46.020000000000003

>  <r_qp_SASA>  (141) 
700.36400000000003

>  <r_qp_SAamideO>  (141) 
0

>  <r_qp_SAfluorine>  (141) 
33.716999999999999

>  <r_qp_WPSA>  (141) 
33.716999999999999

>  <r_qp_accptHB>  (141) 
4.75

>  <r_qp_dip^2/V>  (141) 
0.053837900000000001

>  <r_qp_dipole>  (141) 
8.4700000000000006

>  <r_qp_donorHB>  (141) 
2

>  <r_qp_glob>  (141) 
0.83621860000000003

>  <r_qp_mol_MW>  (141) 
439.488

>  <r_qp_volume>  (141) 
1332.655

>  <r_sd_BIOSOLVEIT.INFINISEE\_FTREES\_SIMILARITY>  (141) 
0.91100000000000003

>  <r_sd_BIOSOLVEIT.LOGP>  (141) 
4.0079000000000002

>  <r_sd_BIOSOLVEIT.MOLECULAR\_WEIGHT>  (141) 
440.49599999999998

>  <r_sd_BIOSOLVEIT.TPSA>  (141) 
78.829999999999998

>  <i_epik_Tot_Q>  (141) 
0

>  <i_epik_Tot_abs_Q>  (141) 
0

>  <i_f3d_flags>  (141) 
0

>  <i_i_glide_confnum>  (141) 
6

>  <i_i_glide_lignum>  (141) 
1076

>  <i_i_glide_posenum>  (141) 
18

>  <i_i_glide_rotatable_bonds>  (141) 
9

>  <i_lp_mmshare_version>  (141) 
65135

>  <i_m_ct_format>  (141) 
2

>  <i_m_source_file_index>  (141) 
2593

>  <i_qp_#NandO>  (141) 
5

>  <i_qp_#acid>  (141) 
0

>  <i_qp_#amide>  (141) 
0

>  <i_qp_#amidine>  (141) 
0

>  <i_qp_#amine>  (141) 
1

>  <i_qp_#in34>  (141) 
0

>  <i_qp_#in56>  (141) 
22

>  <i_qp_#metab>  (141) 
5

>  <i_qp_#nonHatm>  (141) 
33

>  <i_qp_#noncon>  (141) 
0

>  <i_qp_#ringatoms>  (141) 
22

>  <i_qp_#rotor>  (141) 
8

>  <i_qp_#rtvFG>  (141) 
0

>  <i_qp_#stars>  (141) 
0

>  <i_qp_CNS>  (141) 
1

>  <i_qp_HumanOralAbsorption>  (141) 
3

>  <i_qp_RuleOfFive>  (141) 
0

>  <i_qp_RuleOfThree>  (141) 
0

>  <i_sd_BIOSOLVEIT.INFINISEE\_RESULT\_RANK>  (141) 
40724

>  <i_sd_version>  (141) 
0

>  <b_lp_Chiralities_Consistent>  (141) 
1

>  <b_sd_chiral_flag>  (141) 
0

>  <canonical_id>  (141) 
ATP-HTVS-1714ADEB4D31

>  <compound_code>  (141) 
82945

>  <title>  (141) 
rxn503b____EMOL478035____EMOL30488121____EMOL317506007

>  <variant>  (141) 
82945-4

>  <source_file>  (141) 
运行/运行/ATP-VSW/ATP-VSW-DOCK_HTVS_1-001_lib/ATP-VSW-DOCK_HTVS_1-001_lib

>  <canonical_smiles>  (141) 
C[C@H](NCC#Cc1c(NC(=O)c2ccccc2O)cnc2ccccc12)c1ccc(F)cc1

>  <scaffold>  (141) 
O=C(Nc1cnc2ccccc2c1C#CCNCc1ccccc1)c1ccccc1

>  <molecular_formula>  (141) 
C27H22FN3O2

$$$$
ATP-HTVS-17511F2B790B
     RDKit          3D

 64 67  0  0  0  0  0  0  0  0999 V2000
  199.8224  186.0250  159.2719 Cl  0  0  0  0  0  0  0  0  0  0  0  0
  198.1285  185.6690  159.3760 C   0  0  0  0  0  0  0  0  0  0  0  0
  197.1386  186.6416  159.5843 C   0  0  0  0  0  0  0  0  0  0  0  0
  195.7830  186.2885  159.4644 C   0  0  0  0  0  0  0  0  0  0  0  0
  195.4200  184.9654  159.1669 C   0  0  0  0  0  0  0  0  0  0  0  0
  196.4174  183.9778  159.0131 C   0  0  0  0  0  0  0  0  0  0  0  0
  196.0723  182.6715  158.7291 N   0  0  0  0  0  0  0  0  0  0  0  0
  197.7695  184.3237  159.1364 C   0  0  0  0  0  0  0  0  0  0  0  0
  197.4848  188.1277  159.8251 C   0  0  1  0  0  0  0  0  0  0  0  0
  198.3261  188.7740  158.8243 N   0  0  0  0  0  0  0  0  0  0  0  0
  198.5472  188.3449  157.5285 C   0  0  0  0  0  0  0  0  0  0  0  0
  197.7176  187.4308  156.9914 N   0  0  0  0  0  0  0  0  0  0  0  0
  198.0158  186.8882  155.7950 C   0  0  0  0  0  0  0  0  0  0  0  0
  197.1623  185.8945  155.2675 N   0  0  0  0  0  0  0  0  0  0  0  0
  197.6095  184.5256  154.9754 C   0  0  1  0  0  0  0  0  0  0  0  0
  197.7561  183.7357  156.2916 C   0  0  1  0  0  0  0  0  0  0  0  0
  198.2992  182.3387  156.0706 C   0  0  0  0  0  0  0  0  0  0  0  0
  199.6888  182.1367  155.9434 C   0  0  0  0  0  0  0  0  0  0  0  0
  200.2149  180.8412  155.7446 C   0  0  0  0  0  0  0  0  0  0  0  0
  199.3412  179.7296  155.6724 C   0  0  0  0  0  0  0  0  0  0  0  0
  197.9521  179.9237  155.8334 C   0  0  0  0  0  0  0  0  0  0  0  0
  197.4390  181.2240  156.0281 C   0  0  0  0  0  0  0  0  0  0  0  0
  199.8927  178.3391  155.4292 C   0  0  1  0  0  0  0  0  0  0  0  0
  200.1086  177.5869  156.6874 N   0  0  1  0  0  0  0  0  0  0  0  0
  200.6552  176.2424  156.4069 C   0  0  2  0  0  0  0  0  0  0  0  0
  200.9355  178.3050  157.6874 C   0  0  2  0  0  0  0  0  0  0  0  0
  199.1254  187.3363  155.0477 C   0  0  0  0  0  0  0  0  0  0  0  0
  199.9339  188.3386  155.6510 C   0  0  0  0  0  0  0  0  0  0  0  0
  199.6268  188.7956  156.8717 N   0  0  0  0  0  0  0  0  0  0  0  0
  201.0309  188.8643  154.9340 C   0  0  0  0  0  0  0  0  0  0  0  0
  201.3086  188.4175  153.6267 C   0  0  0  0  0  0  0  0  0  0  0  0
  200.4978  187.4261  153.0262 C   0  0  0  0  0  0  0  0  0  0  0  0
  199.4094  186.8875  153.7462 C   0  0  0  0  0  0  0  0  0  0  0  0
  195.0160  187.0313  159.4915 H   0  0  0  0  0  0  0  0  0  0  0  0
  194.3848  184.7247  158.9442 H   0  0  0  0  0  0  0  0  0  0  0  0
  196.7801  182.0100  158.3874 H   0  0  0  0  0  0  0  0  0  0  0  0
  195.1287  182.4397  158.4326 H   0  0  0  0  0  0  0  0  0  0  0  0
  198.5491  183.5958  158.9515 H   0  0  0  0  0  0  0  0  0  0  0  0
  196.5717  188.7021  159.9029 H   0  0  0  0  0  0  0  0  0  0  0  0
  197.9459  188.1979  160.8035 H   0  0  0  0  0  0  0  0  0  0  0  0
  198.9965  189.4367  159.1940 H   0  0  0  0  0  0  0  0  0  0  0  0
  196.1766  186.1001  155.2728 H   0  0  0  0  0  0  0  0  0  0  0  0
  196.8355  184.0343  154.3674 H   0  0  0  0  0  0  0  0  0  0  0  0
  198.5554  184.5063  154.4201 H   0  0  0  0  0  0  0  0  0  0  0  0
  198.4530  184.2615  156.9454 H   0  0  0  0  0  0  0  0  0  0  0  0
  196.7788  183.6658  156.7756 H   0  0  0  0  0  0  0  0  0  0  0  0
  200.3714  182.9675  156.0405 H   0  0  0  0  0  0  0  0  0  0  0  0
  201.2937  180.7058  155.6374 H   0  0  0  0  0  0  0  0  0  0  0  0
  197.2720  179.0729  155.8172 H   0  0  0  0  0  0  0  0  0  0  0  0
  196.3803  181.3379  156.1997 H   0  0  0  0  0  0  0  0  0  0  0  0
  199.1882  177.8033  154.7909 H   0  0  0  0  0  0  0  0  0  0  0  0
  200.8229  178.4278  154.8687 H   0  0  0  0  0  0  0  0  0  0  0  0
  201.6418  176.3031  155.9437 H   0  0  0  0  0  0  0  0  0  0  0  0
  200.0036  175.6874  155.7316 H   0  0  0  0  0  0  0  0  0  0  0  0
  200.7632  175.6780  157.3264 H   0  0  0  0  0  0  0  0  0  0  0  0
  201.9252  178.5346  157.2896 H   0  0  0  0  0  0  0  0  0  0  0  0
  201.0587  177.7081  158.5919 H   0  0  0  0  0  0  0  0  0  0  0  0
  200.4655  179.2382  157.9929 H   0  0  0  0  0  0  0  0  0  0  0  0
  201.6502  189.6413  155.3864 H   0  0  0  0  0  0  0  0  0  0  0  0
  202.1458  188.8326  153.0781 H   0  0  0  0  0  0  0  0  0  0  0  0
  200.7022  187.0838  152.0150 H   0  0  0  0  0  0  0  0  0  0  0  0
  198.7730  186.1694  153.2396 H   0  0  0  0  0  0  0  0  0  0  0  0
  200.2619  189.4831  157.3015 H   0  0  0  0  0  0  0  0  0  0  0  0
  199.1947  177.4691  157.1157 H   0  0  0  0  0  0  0  0  0  0  0  0
  1  2  1  0
  2  3  2  0
  2  8  1  0
  3  4  1  0
  3  9  1  0
  4  5  2  0
  4 34  1  0
  5  6  1  0
  5 35  1  0
  6  7  1  0
  6  8  2  0
  7 36  1  0
  7 37  1  0
  8 38  1  0
  9 10  1  0
  9 39  1  1
  9 40  1  0
 10 11  1  0
 10 41  1  0
 11 12  1  0
 11 29  2  0
 12 13  2  0
 13 14  1  0
 13 27  1  0
 14 15  1  0
 14 42  1  0
 15 16  1  0
 15 43  1  6
 15 44  1  0
 16 17  1  0
 16 45  1  1
 16 46  1  0
 17 18  1  0
 17 22  2  0
 18 19  2  0
 18 47  1  0
 19 20  1  0
 19 48  1  0
 20 21  2  0
 20 23  1  0
 21 22  1  0
 21 49  1  0
 22 50  1  0
 23 24  1  0
 23 51  1  6
 23 52  1  0
 24 25  1  0
 24 26  1  0
 24 64  1  1
 25 53  1  6
 25 54  1  0
 25 55  1  0
 26 56  1  6
 26 57  1  0
 26 58  1  0
 27 28  1  0
 27 33  2  0
 28 29  1  0
 28 30  2  0
 29 63  1  0
 30 31  1  0
 30 59  1  0
 31 32  2  0
 31 60  1  0
 32 33  1  0
 32 61  1  0
 33 62  1  0
M  CHG  2  24   1  29   1
M  END
>  <s_epik_cmdline>  (142) 
J2VwaWtfcHl0aG9uJywgJy1waCcsICc3LjAwMDAwMCcsICctcGh0JywgJzIuMDAwMDAwJywgJy1tcycsICcxNicsICctdG4nLCAnOCcsICctbWEnLCAnMjAwJywgJy1pbWFlJywgJzxpbmZpbGUubWFlPicsICctb21hZScsICc8b3V0ZmlsZS5tYWU+Jw==

>  <s_epik_input>  (142) 
W05IMl1jKFtjSF0xKVtjSF1bY0hdYyhjMUNsKVtDSDJdW05IXWMobmMoYzIzKVtjSF1bY0hdW2NIXVtjSF0zKW5jMltOSF1bQ0gyXVtDSDJdYzRbY0hdW2NIXWMoW2NIXVtjSF00KVtDSDJdTihbQ0gzXSlbQ0gzXQ==

>  <s_i_glide_gridfile>  (142) 
ATP-Grid

>  <s_lp_Force_Field>  (142) 
OPLS_2005

>  <s_lp_Variant>  (142) 
m_282030aaa____21926464____22360182____21941646-1

>  <s_lp_label>  (142) 
829_sdstereoexpander_1_neutralizer_1_epik_1_stereoizer_1

>  <s_m_source_file>  (142) 
ATP-VSW-LIGPREP-003-in.maegz

>  <s_sd_BIOSOLVEIT.INFINISEE\_QUERY\_NAME>  (142) 
Ref-Lig

>  <s_sd_BIOSOLVEIT.INFINISEE\_QUERY\_SMILES>  (142) 
S(c1nc2c(cc1C[NH2+]Cc3ccc(cc3)C[NH+](C)C)cccc2)Cc4ccccc4

>  <s_sd_BIOSOLVEIT.INFINISEE\_REACTION\_NAME>  (142) 
m_282030aaa

>  <s_sd_BIOSOLVEIT.INFINISEE\_REAGENT1\_SMILES>  (142) 
[R1*]NCCc1ccc(cc1)CN(C)C

>  <s_sd_BIOSOLVEIT.INFINISEE\_REAGENT2\_SMILES>  (142) 
[R2*]c1nc([R1*])c2c(n1)cccc2

>  <s_sd_BIOSOLVEIT.INFINISEE\_REAGENT3\_SMILES>  (142) 
[R2*]NCc1c(Cl)cc(N)cc1

>  <s_sd_BIOSOLVEIT.INFINISEE\_SPACE>  (142) 
REALSpace_44bn_2023-08

>  <s_vsw_compound_code>  (142) 
26499

>  <s_vsw_variant>  (142) 
26499-1

>  <r_epik_Charging_Adjusted_Penalty>  (142) 
0.108225052375217

>  <r_epik_Ionization_Penalty>  (142) 
0.0562

>  <r_epik_Ionization_Penalty_Charging>  (142) 
0.054600000000000003

>  <r_epik_Ionization_Penalty_Neutral>  (142) 
0.0016000000000000001

>  <r_epik_State_Penalty>  (142) 
0.053699999999999998

>  <r_i_docking_score>  (142) 
-3.9236836420987302

>  <r_i_glide_ecoul>  (142) 
-7.8354563713073704

>  <r_i_glide_eff_state_penalty>  (142) 
0.053699999999999998

>  <r_i_glide_einternal>  (142) 
9.4387607574462908

>  <r_i_glide_emodel>  (142) 
-50.343250554807902

>  <r_i_glide_energy>  (142) 
-39.1486945152283

>  <r_i_glide_erotb>  (142) 
0.75186040798557097

>  <r_i_glide_esite>  (142) 
-0.115016754559222

>  <r_i_glide_evdw>  (142) 
-31.313238143920898

>  <r_i_glide_gscore>  (142) 
-3.9773836420987299

>  <r_i_glide_hbond>  (142) 
-0.19636931327147

>  <r_i_glide_ligand_efficiency>  (142) 
-0.118899504306022

>  <r_i_glide_ligand_efficiency_ln>  (142) 
-0.87260692625613501

>  <r_i_glide_ligand_efficiency_sa>  (142) 
-0.38137424143656001

>  <r_i_glide_lipo>  (142) 
-1.3713344231909099

>  <r_i_glide_metal>  (142) 
-0

>  <r_i_glide_rewards>  (142) 
-0.30554319617055298

>  <r_lp_Energy>  (142) 
23.557202

>  <r_qp_ACxDN^.5/SA>  (142) 
0.013975100000000001

>  <r_qp_CIQPlogS>  (142) 
-6.2270000000000003

>  <r_qp_EA(eV)>  (142) 
0.498

>  <r_qp_FISA>  (142) 
107.46899999999999

>  <r_qp_FOSA>  (142) 
258.81099999999998

>  <r_qp_IP(eV)>  (142) 
7.8940000000000001

>  <r_qp_Jm>  (142) 
0.00075799677872636804

>  <r_qp_PISA>  (142) 
401.37

>  <r_qp_PSA>  (142) 
73.710999999999999

>  <r_qp_PercentHumanOralAbsorption>  (142) 
100

>  <r_qp_QPPCaco>  (142) 
236.41200000000001

>  <r_qp_QPPMDCK>  (142) 
180.31800000000001

>  <r_qp_QPlogBB>  (142) 
-0.73899999999999999

>  <r_qp_QPlogHERG>  (142) 
-7.7720000000000002

>  <r_qp_QPlogKhsa>  (142) 
0.80800000000000005

>  <r_qp_QPlogKp>  (142) 
-3.1890000000000001

>  <r_qp_QPlogPC16>  (142) 
16.632999999999999

>  <r_qp_QPlogPo/w>  (142) 
4.8520000000000003

>  <r_qp_QPlogPoct>  (142) 
25.167999999999999

>  <r_qp_QPlogPw>  (142) 
13.956

>  <r_qp_QPlogS>  (142) 
-5.5949999999999998

>  <r_qp_QPpolrz>  (142) 
49.984999999999999

>  <r_qp_SASA>  (142) 
803.21000000000004

>  <r_qp_SAamideO>  (142) 
0

>  <r_qp_SAfluorine>  (142) 
0

>  <r_qp_WPSA>  (142) 
35.560000000000002

>  <r_qp_accptHB>  (142) 
6

>  <r_qp_dip^2/V>  (142) 
0.0107162

>  <r_qp_dipole>  (142) 
3.9660000000000002

>  <r_qp_donorHB>  (142) 
3.5

>  <r_qp_glob>  (142) 
0.77751599999999998

>  <r_qp_mol_MW>  (142) 
461.00799999999998

>  <r_qp_volume>  (142) 
1467.4390000000001

>  <r_sd_BIOSOLVEIT.INFINISEE\_FTREES\_SIMILARITY>  (142) 
0.92200000000000004

>  <r_sd_BIOSOLVEIT.LOGP>  (142) 
3.7766000000000002

>  <r_sd_BIOSOLVEIT.MOLECULAR\_WEIGHT>  (142) 
462.01799999999997

>  <r_sd_BIOSOLVEIT.TPSA>  (142) 
80.299999999999997

>  <i_epik_Tot_Q>  (142) 
2

>  <i_epik_Tot_abs_Q>  (142) 
2

>  <i_f3d_flags>  (142) 
0

>  <i_i_glide_confnum>  (142) 
6

>  <i_i_glide_lignum>  (142) 
329

>  <i_i_glide_posenum>  (142) 
13

>  <i_i_glide_rotatable_bonds>  (142) 
9

>  <i_lp_mmshare_version>  (142) 
65135

>  <i_m_ct_format>  (142) 
2

>  <i_m_source_file_index>  (142) 
829

>  <i_qp_#NandO>  (142) 
6

>  <i_qp_#acid>  (142) 
0

>  <i_qp_#amide>  (142) 
0

>  <i_qp_#amidine>  (142) 
0

>  <i_qp_#amine>  (142) 
1

>  <i_qp_#in34>  (142) 
0

>  <i_qp_#in56>  (142) 
22

>  <i_qp_#metab>  (142) 
6

>  <i_qp_#nonHatm>  (142) 
33

>  <i_qp_#noncon>  (142) 
0

>  <i_qp_#ringatoms>  (142) 
22

>  <i_qp_#rotor>  (142) 
10

>  <i_qp_#rtvFG>  (142) 
0

>  <i_qp_#stars>  (142) 
1

>  <i_qp_CNS>  (142) 
-1

>  <i_qp_HumanOralAbsorption>  (142) 
3

>  <i_qp_RuleOfFive>  (142) 
0

>  <i_qp_RuleOfThree>  (142) 
0

>  <i_sd_BIOSOLVEIT.INFINISEE\_REAGENT1\_NAME>  (142) 
21926464

>  <i_sd_BIOSOLVEIT.INFINISEE\_REAGENT2\_NAME>  (142) 
22360182

>  <i_sd_BIOSOLVEIT.INFINISEE\_REAGENT3\_NAME>  (142) 
21941646

>  <i_sd_BIOSOLVEIT.INFINISEE\_RESULT\_RANK>  (142) 
13459

>  <i_sd_version>  (142) 
0

>  <b_lp_Chiralities_Consistent>  (142) 
1

>  <b_sd_chiral_flag>  (142) 
0

>  <canonical_id>  (142) 
ATP-HTVS-17511F2B790B

>  <compound_code>  (142) 
26499

>  <title>  (142) 
m_282030aaa____21926464____22360182____21941646

>  <variant>  (142) 
26499-1

>  <source_file>  (142) 
运行/运行/ATP-VSW/ATP-VSW-DOCK_HTVS_1-003_lib/ATP-VSW-DOCK_HTVS_1-003_lib.mae

>  <canonical_smiles>  (142) 
C[NH+](C)Cc1ccc(CCNc2nc(NCc3ccc(N)cc3Cl)[nH+]c3ccccc23)cc1

>  <scaffold>  (142) 
c1ccc(CCNc2nc(NCc3ccccc3)[nH+]c3ccccc23)cc1

>  <molecular_formula>  (142) 
C26H31ClN6+2

$$$$
ATP-HTVS-1776C87C4427
     RDKit          3D

 54 56  0  0  0  0  0  0  0  0999 V2000
  200.1565  188.4069  154.5275 F   0  0  0  0  0  0  0  0  0  0  0  0
  199.3060  188.3320  155.5815 C   0  0  0  0  0  0  0  0  0  0  0  0
  198.4990  187.1994  155.7903 C   0  0  0  0  0  0  0  0  0  0  0  0
  198.5528  186.1389  154.8786 N   0  0  0  0  0  0  0  0  0  0  0  0
  197.7387  184.9539  155.0726 C   0  0  1  0  0  0  0  0  0  0  0  0
  197.8649  183.9765  153.9289 C   0  0  0  0  0  0  0  0  0  0  0  0
  198.9395  183.0661  153.8861 C   0  0  0  0  0  0  0  0  0  0  0  0
  199.0512  182.1611  152.8120 C   0  0  0  0  0  0  0  0  0  0  0  0
  198.0877  182.1591  151.7789 C   0  0  0  0  0  0  0  0  0  0  0  0
  197.0196  183.0795  151.8232 C   0  0  0  0  0  0  0  0  0  0  0  0
  196.9084  183.9790  152.8962 C   0  0  0  0  0  0  0  0  0  0  0  0
  198.1740  181.1521  150.6393 C   0  0  1  0  0  0  0  0  0  0  0  0
  197.4348  179.8882  150.9096 N   0  0  1  0  0  0  0  0  0  0  0  0
  198.0071  179.0995  152.0224 C   0  0  2  0  0  0  0  0  0  0  0  0
  195.9679  180.0635  151.0429 C   0  0  2  0  0  0  0  0  0  0  0  0
  197.6398  187.1912  156.9070 C   0  0  0  0  0  0  0  0  0  0  0  0
  197.6340  188.2957  157.7958 C   0  0  0  0  0  0  0  0  0  0  0  0
  198.4040  189.3818  157.5773 N   0  0  0  0  0  0  0  0  0  0  0  0
  199.2226  189.3925  156.5069 C   0  0  0  0  0  0  0  0  0  0  0  0
  196.7479  188.2720  158.8989 N   0  0  0  0  0  0  0  0  0  0  0  0
  196.5238  187.2178  159.7109 C   0  0  0  0  0  0  0  0  0  0  0  0
  197.1255  186.1448  159.6706 O   0  0  0  0  0  0  0  0  0  0  0  0
  195.4960  187.4358  160.6971 C   0  0  0  0  0  0  0  0  0  0  0  0
  194.5919  187.6407  161.4918 C   0  0  0  0  0  0  0  0  0  0  0  0
  193.5321  187.9075  162.4455 C   0  0  0  0  0  0  0  0  0  0  0  0
  192.7427  186.8442  162.9268 C   0  0  0  0  0  0  0  0  0  0  0  0
  191.7451  187.0937  163.8838 C   0  0  0  0  0  0  0  0  0  0  0  0
  191.5276  188.4042  164.3526 C   0  0  0  0  0  0  0  0  0  0  0  0
  192.3081  189.4698  163.8622 C   0  0  0  0  0  0  0  0  0  0  0  0
  193.3095  189.2232  162.9050 C   0  0  0  0  0  0  0  0  0  0  0  0
  199.1346  186.2137  154.0563 H   0  0  0  0  0  0  0  0  0  0  0  0
  198.0200  184.4596  156.0043 H   0  0  0  0  0  0  0  0  0  0  0  0
  196.6897  185.2354  155.1728 H   0  0  0  0  0  0  0  0  0  0  0  0
  199.6673  183.0540  154.6855 H   0  0  0  0  0  0  0  0  0  0  0  0
  199.8697  181.4557  152.8037 H   0  0  0  0  0  0  0  0  0  0  0  0
  196.2606  183.0779  151.0570 H   0  0  0  0  0  0  0  0  0  0  0  0
  196.0600  184.6467  152.9387 H   0  0  0  0  0  0  0  0  0  0  0  0
  197.7956  181.6079  149.7197 H   0  0  0  0  0  0  0  0  0  0  0  0
  199.2242  180.9265  150.4465 H   0  0  0  0  0  0  0  0  0  0  0  0
  197.9129  179.6186  152.9755 H   0  0  0  0  0  0  0  0  0  0  0  0
  199.0622  178.8855  151.8467 H   0  0  0  0  0  0  0  0  0  0  0  0
  197.4855  178.1497  152.1185 H   0  0  0  0  0  0  0  0  0  0  0  0
  195.7113  180.6903  151.8967 H   0  0  0  0  0  0  0  0  0  0  0  0
  195.4682  179.1048  151.1910 H   0  0  0  0  0  0  0  0  0  0  0  0
  195.5585  180.5212  150.1417 H   0  0  0  0  0  0  0  0  0  0  0  0
  196.9898  186.3479  157.0848 H   0  0  0  0  0  0  0  0  0  0  0  0
  199.8321  190.2711  156.3819 H   0  0  0  0  0  0  0  0  0  0  0  0
  196.2855  189.1415  159.1211 H   0  0  0  0  0  0  0  0  0  0  0  0
  192.8991  185.8374  162.5650 H   0  0  0  0  0  0  0  0  0  0  0  0
  191.1482  186.2766  164.2587 H   0  0  0  0  0  0  0  0  0  0  0  0
  190.7572  188.5908  165.0865 H   0  0  0  0  0  0  0  0  0  0  0  0
  192.1429  190.4750  164.2222 H   0  0  0  0  0  0  0  0  0  0  0  0
  193.9156  190.0385  162.5333 H   0  0  0  0  0  0  0  0  0  0  0  0
  197.5712  179.3256  150.0802 H   0  0  0  0  0  0  0  0  0  0  0  0
  1  2  1  0
  2  3  2  0
  2 19  1  0
  3  4  1  0
  3 16  1  0
  4  5  1  0
  4 31  1  0
  5  6  1  0
  5 32  1  1
  5 33  1  0
  6  7  1  0
  6 11  2  0
  7  8  2  0
  7 34  1  0
  8  9  1  0
  8 35  1  0
  9 10  2  0
  9 12  1  0
 10 11  1  0
 10 36  1  0
 11 37  1  0
 12 13  1  0
 12 38  1  6
 12 39  1  0
 13 14  1  0
 13 15  1  0
 13 54  1  6
 14 40  1  1
 14 41  1  0
 14 42  1  0
 15 43  1  1
 15 44  1  0
 15 45  1  0
 16 17  2  0
 16 46  1  0
 17 18  1  0
 17 20  1  0
 18 19  2  0
 19 47  1  0
 20 21  1  0
 20 48  1  0
 21 22  2  0
 21 23  1  0
 23 24  3  0
 24 25  1  0
 25 26  2  0
 25 30  1  0
 26 27  1  0
 26 49  1  0
 27 28  2  0
 27 50  1  0
 28 29  1  0
 28 51  1  0
 29 30  2  0
 29 52  1  0
 30 53  1  0
M  CHG  1  13   1
M  END
>  <s_epik_cmdline>  (143) 
J2VwaWtfcHl0aG9uJywgJy1waCcsICc3LjAwMDAwMCcsICctcGh0JywgJzIuMDAwMDAwJywgJy1tcycsICcxNicsICctdG4nLCAnOCcsICctbWEnLCAnMjAwJywgJy1pbWFlJywgJzxpbmZpbGUubWFlPicsICctb21hZScsICc8b3V0ZmlsZS5tYWU+Jw==

>  <s_epik_input>  (143) 
W0NIM11OKFtDSDNdKVtDSDJdYyhbY0hdW2NIXTEpW2NIXVtjSF1jMVtDSDJdW05IXWMoYzJGKVtjSF1jKG5bY0hdMilbTkhdQyg9TylDI0NjM1tjSF1bY0hdW2NIXVtjSF1bY0hdMw==

>  <s_i_glide_gridfile>  (143) 
ATP-Grid

>  <s_lp_Force_Field>  (143) 
OPLS_2005

>  <s_lp_Variant>  (143) 
rxn502a____EMOL530803____EMOL54476413____EMOL50155899-1

>  <s_lp_label>  (143) 
2821_sdstereoexpander_1_neutralizer_1_epik_1_stereoizer_1

>  <s_m_source_file>  (143) 
ATP-VSW-LIGPREP-003-in.maegz

>  <s_sd_BIOSOLVEIT.INFINISEE\_QUERY\_NAME>  (143) 
Ref-Lig

>  <s_sd_BIOSOLVEIT.INFINISEE\_QUERY\_SMILES>  (143) 
S(c1nc2c(cc1C[NH2+]Cc3ccc(cc3)C[NH+](C)C)cccc2)Cc4ccccc4

>  <s_sd_BIOSOLVEIT.INFINISEE\_REACTION\_NAME>  (143) 
rxn502a

>  <s_sd_BIOSOLVEIT.INFINISEE\_REAGENT1\_NAME>  (143) 
EMOL530803

>  <s_sd_BIOSOLVEIT.INFINISEE\_REAGENT1\_SMILES>  (143) 
O=C(O)C#Cc1ccccc1

>  <s_sd_BIOSOLVEIT.INFINISEE\_REAGENT2\_NAME>  (143) 
EMOL54476413

>  <s_sd_BIOSOLVEIT.INFINISEE\_REAGENT2\_SMILES>  (143) 
Ic1c(F)cnc(N)c1

>  <s_sd_BIOSOLVEIT.INFINISEE\_REAGENT3\_NAME>  (143) 
EMOL50155899

>  <s_sd_BIOSOLVEIT.INFINISEE\_REAGENT3\_SMILES>  (143) 
N(Cc1ccc(cc1)CN)(C)C

>  <s_sd_BIOSOLVEIT.INFINISEE\_SPACE>  (143) 
eXplore_7tr_2022-12

>  <s_vsw_compound_code>  (143) 
90243

>  <s_vsw_variant>  (143) 
90243-1

>  <r_epik_Charging_Adjusted_Penalty>  (143) 
0.078407994868761696

>  <r_epik_Ionization_Penalty>  (143) 
0.039899999999999998

>  <r_epik_Ionization_Penalty_Charging>  (143) 
0.039199999999999999

>  <r_epik_Ionization_Penalty_Neutral>  (143) 
0.00069999999999999999

>  <r_epik_State_Penalty>  (143) 
0.039199999999999999

>  <r_i_docking_score>  (143) 
-4.0765250356415699

>  <r_i_glide_ecoul>  (143) 
-4.7065896987915004

>  <r_i_glide_eff_state_penalty>  (143) 
0.039199999999999999

>  <r_i_glide_einternal>  (143) 
6.6748619079589799

>  <r_i_glide_emodel>  (143) 
-46.091079878508801

>  <r_i_glide_energy>  (143) 
-38.541104316711397

>  <r_i_glide_erotb>  (143) 
0.84425855915255898

>  <r_i_glide_esite>  (143) 
-0.0021754269600920799

>  <r_i_glide_evdw>  (143) 
-33.834514617919901

>  <r_i_glide_gscore>  (143) 
-4.11572503564157

>  <r_i_glide_hbond>  (143) 
0

>  <r_i_glide_ligand_efficiency>  (143) 
-0.13588416785471899

>  <r_i_glide_ligand_efficiency_ln>  (143) 
-0.92623090539557396

>  <r_i_glide_ligand_efficiency_sa>  (143) 
-0.42222370292398498

>  <r_i_glide_lipo>  (143) 
-1.6062723677836199

>  <r_i_glide_metal>  (143) 
-0

>  <r_i_glide_rewards>  (143) 
-0.95382161433569401

>  <r_lp_Energy>  (143) 
19.780926000000001

>  <r_lp_tautomer_probability>  (143) 
0.999999106000799

>  <r_qp_ACxDN^.5/SA>  (143) 
0.011296799999999999

>  <r_qp_CIQPlogS>  (143) 
-4.7839999999999998

>  <r_qp_EA(eV)>  (143) 
0.58899999999999997

>  <r_qp_FISA>  (143) 
96.356999999999999

>  <r_qp_FOSA>  (143) 
210.09800000000001

>  <r_qp_IP(eV)>  (143) 
8.6460000000000008

>  <r_qp_Jm>  (143) 
0.00026900802936348403

>  <r_qp_PISA>  (143) 
464.86700000000002

>  <r_qp_PSA>  (143) 
69.305999999999997

>  <r_qp_PercentHumanOralAbsorption>  (143) 
100

>  <r_qp_QPPCaco>  (143) 
301.33499999999998

>  <r_qp_QPPMDCK>  (143) 
255.501

>  <r_qp_QPlogBB>  (143) 
-0.59599999999999997

>  <r_qp_QPlogHERG>  (143) 
-8.7149999999999999

>  <r_qp_QPlogKhsa>  (143) 
0.67700000000000005

>  <r_qp_QPlogKp>  (143) 
-2.952

>  <r_qp_QPlogPC16>  (143) 
15.609

>  <r_qp_QPlogPo/w>  (143) 
4.5460000000000003

>  <r_qp_QPlogPoct>  (143) 
23.454999999999998

>  <r_qp_QPlogPw>  (143) 
13.077

>  <r_qp_QPlogS>  (143) 
-6.2229999999999999

>  <r_qp_QPpolrz>  (143) 
48.520000000000003

>  <r_qp_SASA>  (143) 
813.71799999999996

>  <r_qp_SAamideO>  (143) 
0

>  <r_qp_SAfluorine>  (143) 
42.396000000000001

>  <r_qp_WPSA>  (143) 
42.396000000000001

>  <r_qp_accptHB>  (143) 
6.5

>  <r_qp_dip^2/V>  (143) 
0.0687276

>  <r_qp_dipole>  (143) 
9.7509999999999994

>  <r_qp_donorHB>  (143) 
2

>  <r_qp_glob>  (143) 
0.73795599999999995

>  <r_qp_mol_MW>  (143) 
402.47000000000003

>  <r_qp_volume>  (143) 
1383.5940000000001

>  <r_sd_BIOSOLVEIT.INFINISEE\_FTREES\_SIMILARITY>  (143) 
0.90600000000000003

>  <r_sd_BIOSOLVEIT.LOGP>  (143) 
2.4674999999999998

>  <r_sd_BIOSOLVEIT.MOLECULAR\_WEIGHT>  (143) 
403.47899999999998

>  <r_sd_BIOSOLVEIT.TPSA>  (143) 
58.460000000000001

>  <i_epik_Tot_Q>  (143) 
1

>  <i_epik_Tot_abs_Q>  (143) 
1

>  <i_f3d_flags>  (143) 
0

>  <i_i_glide_confnum>  (143) 
5

>  <i_i_glide_lignum>  (143) 
1343

>  <i_i_glide_posenum>  (143) 
15

>  <i_i_glide_rotatable_bonds>  (143) 
9

>  <i_lp_mmshare_version>  (143) 
65135

>  <i_m_ct_format>  (143) 
2

>  <i_m_source_file_index>  (143) 
2821

>  <i_qp_#NandO>  (143) 
5

>  <i_qp_#acid>  (143) 
0

>  <i_qp_#amide>  (143) 
0

>  <i_qp_#amidine>  (143) 
0

>  <i_qp_#amine>  (143) 
1

>  <i_qp_#in34>  (143) 
0

>  <i_qp_#in56>  (143) 
18

>  <i_qp_#metab>  (143) 
6

>  <i_qp_#nonHatm>  (143) 
30

>  <i_qp_#noncon>  (143) 
0

>  <i_qp_#ringatoms>  (143) 
18

>  <i_qp_#rotor>  (143) 
8

>  <i_qp_#rtvFG>  (143) 
0

>  <i_qp_#stars>  (143) 
2

>  <i_qp_CNS>  (143) 
1

>  <i_qp_HumanOralAbsorption>  (143) 
1

>  <i_qp_RuleOfFive>  (143) 
0

>  <i_qp_RuleOfThree>  (143) 
1

>  <i_sd_BIOSOLVEIT.INFINISEE\_RESULT\_RANK>  (143) 
65686

>  <i_sd_version>  (143) 
0

>  <b_lp_Chiralities_Consistent>  (143) 
1

>  <b_sd_chiral_flag>  (143) 
0

>  <canonical_id>  (143) 
ATP-HTVS-1776C87C4427

>  <compound_code>  (143) 
90243

>  <title>  (143) 
rxn502a____EMOL530803____EMOL54476413____EMOL50155899

>  <variant>  (143) 
90243-1

>  <source_file>  (143) 
运行/运行/ATP-VSW/ATP-VSW-DOCK_HTVS_1-003_lib/ATP-VSW-DOCK_HTVS_1-003_lib.mae

>  <canonical_smiles>  (143) 
C[NH+](C)Cc1ccc(CNc2cc(NC(=O)C#Cc3ccccc3)ncc2F)cc1

>  <scaffold>  (143) 
O=C(C#Cc1ccccc1)Nc1cc(NCc2ccccc2)ccn1

>  <molecular_formula>  (143) 
C24H24FN4O+

$$$$
ATP-HTVS-17940C77D749
     RDKit          3D

 47 50  0  0  0  0  0  0  0  0999 V2000
  201.2500  188.7085  159.6381 Cl  0  0  0  0  0  0  0  0  0  0  0  0
  201.7975  187.2231  160.3588 C   0  0  0  0  0  0  0  0  0  0  0  0
  201.3388  185.9293  159.9401 C   0  0  0  0  0  0  0  0  0  0  0  0
  201.8470  184.7717  160.5893 C   0  0  0  0  0  0  0  0  0  0  0  0
  202.7913  184.8968  161.6111 C   0  0  0  0  0  0  0  0  0  0  0  0
  203.2667  186.1584  162.0248 C   0  0  0  0  0  0  0  0  0  0  0  0
  202.7628  187.3217  161.3928 C   0  0  0  0  0  0  0  0  0  0  0  0
  200.3334  185.8140  158.7832 C   0  0  2  0  0  0  0  0  0  0  0  0
  199.1376  184.9892  159.1027 N   0  0  0  0  0  0  0  0  0  0  0  0
  197.9104  185.4650  158.4059 C   0  0  1  0  0  0  0  0  0  0  0  0
  196.6691  184.5632  158.5764 C   0  0  0  0  0  0  0  0  0  0  0  0
  196.6455  183.2561  157.9991 C   0  0  0  0  0  0  0  0  0  0  0  0
  197.7474  182.7225  157.2917 N   0  0  0  0  0  0  0  0  0  0  0  0
  199.0149  182.8136  157.6987 C   0  0  0  0  0  0  0  0  0  0  0  0
  199.9089  182.3096  157.0273 O   0  0  0  0  0  0  0  0  0  0  0  0
  199.3707  183.5076  159.0290 C   0  0  1  0  0  0  0  0  0  0  0  0
  195.4996  182.4507  158.1030 C   0  0  0  0  0  0  0  0  0  0  0  0
  194.3533  182.9246  158.7661 C   0  0  0  0  0  0  0  0  0  0  0  0
  194.3601  184.2057  159.3353 C   0  0  0  0  0  0  0  0  0  0  0  0
  195.4949  185.0164  159.2402 C   0  0  0  0  0  0  0  0  0  0  0  0
  197.5792  186.9169  158.7647 C   0  0  0  0  0  0  0  0  0  0  0  0
  197.4721  187.9030  157.7532 C   0  0  0  0  0  0  0  0  0  0  0  0
  197.1529  189.2318  158.1163 C   0  0  0  0  0  0  0  0  0  0  0  0
  196.9326  189.5893  159.4502 C   0  0  0  0  0  0  0  0  0  0  0  0
  197.0493  188.6199  160.4659 C   0  0  0  0  0  0  0  0  0  0  0  0
  197.3718  187.2964  160.1009 C   0  0  0  0  0  0  0  0  0  0  0  0
  201.0181  185.4416  157.5181 C   0  0  0  0  0  0  0  0  0  0  0  0
  201.5500  185.0512  156.5053 C   0  0  0  0  0  0  0  0  0  0  0  0
  201.5821  183.7686  160.3568 H   0  0  0  0  0  0  0  0  0  0  0  0
  203.1543  183.9938  162.0727 H   0  0  0  0  0  0  0  0  0  0  0  0
  203.9975  186.2234  162.8189 H   0  0  0  0  0  0  0  0  0  0  0  0
  203.1206  188.2981  161.7030 H   0  0  0  0  0  0  0  0  0  0  0  0
  200.0221  186.8246  158.5415 H   0  0  0  0  0  0  0  0  0  0  0  0
  198.1393  185.4589  157.3408 H   0  0  0  0  0  0  0  0  0  0  0  0
  197.5638  182.1015  156.5095 H   0  0  0  0  0  0  0  0  0  0  0  0
  200.3917  183.2504  159.1374 H   0  0  0  0  0  0  0  0  0  0  0  0
  198.8140  183.0382  159.8567 H   0  0  0  0  0  0  0  0  0  0  0  0
  195.4926  181.4664  157.6542 H   0  0  0  0  0  0  0  0  0  0  0  0
  193.4603  182.3223  158.8057 H   0  0  0  0  0  0  0  0  0  0  0  0
  193.4925  184.6101  159.8309 H   0  0  0  0  0  0  0  0  0  0  0  0
  195.3875  186.0020  159.6625 H   0  0  0  0  0  0  0  0  0  0  0  0
  197.6239  187.6326  156.7248 H   0  0  0  0  0  0  0  0  0  0  0  0
  197.0791  189.9830  157.3296 H   0  0  0  0  0  0  0  0  0  0  0  0
  196.6592  190.6037  159.7135 H   0  0  0  0  0  0  0  0  0  0  0  0
  196.8652  188.8679  161.5013 H   0  0  0  0  0  0  0  0  0  0  0  0
  197.4679  186.5496  160.8730 H   0  0  0  0  0  0  0  0  0  0  0  0
  201.9587  184.5367  155.6573 H   0  0  0  0  0  0  0  0  0  0  0  0
  1  2  1  0
  2  3  1  0
  2  7  2  0
  3  4  2  0
  3  8  1  0
  4  5  1  0
  4 29  1  0
  5  6  2  0
  5 30  1  0
  6  7  1  0
  6 31  1  0
  7 32  1  0
  8  9  1  0
  8 27  1  0
  8 33  1  6
  9 10  1  0
  9 16  1  0
 10 11  1  0
 10 21  1  0
 10 34  1  6
 11 12  1  0
 11 20  2  0
 12 13  1  0
 12 17  2  0
 13 14  1  0
 13 35  1  0
 14 15  2  0
 14 16  1  0
 16 36  1  1
 16 37  1  0
 17 18  1  0
 17 38  1  0
 18 19  2  0
 18 39  1  0
 19 20  1  0
 19 40  1  0
 20 41  1  0
 21 22  2  0
 21 26  1  0
 22 23  1  0
 22 42  1  0
 23 24  2  0
 23 43  1  0
 24 25  1  0
 24 44  1  0
 25 26  2  0
 25 45  1  0
 26 46  1  0
 27 28  3  0
 28 47  1  0
M  END
>  <s_epik_cmdline>  (144) 
J2VwaWtfcHl0aG9uJywgJy1waCcsICc3LjAwMDAwMCcsICctcGh0JywgJzIuMDAwMDAwJywgJy1tcycsICcxNicsICctdG4nLCAnOCcsICctbWEnLCAnMjAwJywgJy1pbWFlJywgJzxpbmZpbGUubWFlPicsICctb21hZScsICc8b3V0ZmlsZS5tYWU+Jw==

>  <s_epik_input>  (144) 
W2NIXTFbY0hdW2NIXVtjSF1bY0hdYzFbQ0BIXTJOKFtDQEhdKEMjW0NIXSljKGMzQ2wpW2NIXVtjSF1bY0hdW2NIXTMpW0NIMl1DKD1PKVtOSF1jKGMyNClbY0hdW2NIXVtjSF1bY0hdNA==

>  <s_i_glide_gridfile>  (144) 
ATP-Grid

>  <s_lp_Force_Field>  (144) 
OPLS_2005

>  <s_lp_Variant>  (144) 
rxn207____EMOL41348343____EMOL6185419-1

>  <s_lp_label>  (144) 
2287_sdstereoexpander_1_neutralizer_1_epik_1_stereoizer_1

>  <s_m_source_file>  (144) 
ATP-VSW-LIGPREP-003-in.maegz

>  <s_sd_BIOSOLVEIT.INFINISEE\_QUERY\_NAME>  (144) 
Ref-Lig

>  <s_sd_BIOSOLVEIT.INFINISEE\_QUERY\_SMILES>  (144) 
S(c1nc2c(cc1C[NH2+]Cc3ccc(cc3)C[NH+](C)C)cccc2)Cc4ccccc4

>  <s_sd_BIOSOLVEIT.INFINISEE\_REACTION\_NAME>  (144) 
rxn207

>  <s_sd_BIOSOLVEIT.INFINISEE\_REAGENT1\_NAME>  (144) 
EMOL41348343

>  <s_sd_BIOSOLVEIT.INFINISEE\_REAGENT1\_SMILES>  (144) 
Clc1c(cccc1)C(=O)C#C

>  <s_sd_BIOSOLVEIT.INFINISEE\_REAGENT2\_NAME>  (144) 
EMOL6185419

>  <s_sd_BIOSOLVEIT.INFINISEE\_REAGENT2\_SMILES>  (144) 
O=C1Nc2c(cccc2)C(NC1)c3ccccc3

>  <s_sd_BIOSOLVEIT.INFINISEE\_SPACE>  (144) 
eXplore_7tr_2022-12

>  <s_vsw_compound_code>  (144) 
73155

>  <s_vsw_variant>  (144) 
73155-1

>  <r_epik_Charging_Adjusted_Penalty>  (144) 
0

>  <r_epik_Ionization_Penalty>  (144) 
0.0001

>  <r_epik_Ionization_Penalty_Charging>  (144) 
0

>  <r_epik_Ionization_Penalty_Neutral>  (144) 
0.0001

>  <r_epik_State_Penalty>  (144) 
-0

>  <r_i_docking_score>  (144) 
-1.4161536219153199

>  <r_i_glide_ecoul>  (144) 
-1.1652462482452399

>  <r_i_glide_eff_state_penalty>  (144) 
-0

>  <r_i_glide_einternal>  (144) 
2.2175328731536901

>  <r_i_glide_emodel>  (144) 
-31.5625390156763

>  <r_i_glide_energy>  (144) 
-30.027713060379

>  <r_i_glide_erotb>  (144) 
0.52028540243666999

>  <r_i_glide_esite>  (144) 
-0.0272642555819302

>  <r_i_glide_evdw>  (144) 
-28.8624668121338

>  <r_i_glide_gscore>  (144) 
-1.4161536219153199

>  <r_i_glide_hbond>  (144) 
0

>  <r_i_glide_ligand_efficiency>  (144) 
-0.050576915068404303

>  <r_i_glide_ligand_efficiency_ln>  (144) 
-0.32688983601516203

>  <r_i_glide_ligand_efficiency_sa>  (144) 
-0.15358130235761999

>  <r_i_glide_lipo>  (144) 
-1.39410617326887

>  <r_i_glide_metal>  (144) 
-0

>  <r_i_glide_rewards>  (144) 
1.10284168234229

>  <r_lp_Energy>  (144) 
41.605725

>  <r_lp_tautomer_probability>  (144) 
1

>  <r_qp_ACxDN^.5/SA>  (144) 
0.0086072000000000006

>  <r_qp_CIQPlogS>  (144) 
-5.1429999999999998

>  <r_qp_EA(eV)>  (144) 
0.28799999999999998

>  <r_qp_FISA>  (144) 
67.920000000000002

>  <r_qp_FOSA>  (144) 
62.857999999999997

>  <r_qp_IP(eV)>  (144) 
8.9320000000000004

>  <r_qp_Jm>  (144) 
0.0096147014934014202

>  <r_qp_PISA>  (144) 
470.37900000000002

>  <r_qp_PSA>  (144) 
42.174999999999997

>  <r_qp_PercentHumanOralAbsorption>  (144) 
100

>  <r_qp_QPPCaco>  (144) 
560.68100000000004

>  <r_qp_QPPMDCK>  (144) 
479.89400000000001

>  <r_qp_QPlogBB>  (144) 
0.23599999999999999

>  <r_qp_QPlogHERG>  (144) 
-7.085

>  <r_qp_QPlogKhsa>  (144) 
0.79000000000000004

>  <r_qp_QPlogKp>  (144) 
-2.8889999999999998

>  <r_qp_QPlogPC16>  (144) 
13.535

>  <r_qp_QPlogPo/w>  (144) 
4.3959999999999999

>  <r_qp_QPlogPoct>  (144) 
19.667000000000002

>  <r_qp_QPlogPw>  (144) 
10.903

>  <r_qp_QPlogS>  (144) 
-4.7160000000000002

>  <r_qp_QPpolrz>  (144) 
43.381999999999998

>  <r_qp_SASA>  (144) 
640.31799999999998

>  <r_qp_SAamideO>  (144) 
0

>  <r_qp_SAfluorine>  (144) 
0

>  <r_qp_WPSA>  (144) 
39.161000000000001

>  <r_qp_accptHB>  (144) 
4.5

>  <r_qp_dip^2/V>  (144) 
0.024279800000000001

>  <r_qp_dipole>  (144) 
5.3380000000000001

>  <r_qp_donorHB>  (144) 
1.5

>  <r_qp_glob>  (144) 
0.84035709999999997

>  <r_qp_mol_MW>  (144) 
386.88

>  <r_qp_volume>  (144) 
1173.6590000000001

>  <r_sd_BIOSOLVEIT.INFINISEE\_FTREES\_SIMILARITY>  (144) 
0.92400000000000004

>  <r_sd_BIOSOLVEIT.LOGP>  (144) 
3.6408999999999998

>  <r_sd_BIOSOLVEIT.MOLECULAR\_WEIGHT>  (144) 
387.88799999999998

>  <r_sd_BIOSOLVEIT.TPSA>  (144) 
33.539999999999999

>  <i_epik_Tot_Q>  (144) 
0

>  <i_epik_Tot_abs_Q>  (144) 
0

>  <i_f3d_flags>  (144) 
0

>  <i_i_glide_confnum>  (144) 
2

>  <i_i_glide_lignum>  (144) 
934

>  <i_i_glide_posenum>  (144) 
14

>  <i_i_glide_rotatable_bonds>  (144) 
4

>  <i_lp_mmshare_version>  (144) 
65135

>  <i_m_ct_format>  (144) 
2

>  <i_m_source_file_index>  (144) 
2287

>  <i_qp_#NandO>  (144) 
3

>  <i_qp_#acid>  (144) 
0

>  <i_qp_#amide>  (144) 
0

>  <i_qp_#amidine>  (144) 
0

>  <i_qp_#amine>  (144) 
1

>  <i_qp_#in34>  (144) 
0

>  <i_qp_#in56>  (144) 
18

>  <i_qp_#metab>  (144) 
8

>  <i_qp_#nonHatm>  (144) 
28

>  <i_qp_#noncon>  (144) 
2

>  <i_qp_#ringatoms>  (144) 
23

>  <i_qp_#rotor>  (144) 
3

>  <i_qp_#rtvFG>  (144) 
0

>  <i_qp_#stars>  (144) 
1

>  <i_qp_CNS>  (144) 
1

>  <i_qp_HumanOralAbsorption>  (144) 
3

>  <i_qp_RuleOfFive>  (144) 
0

>  <i_qp_RuleOfThree>  (144) 
1

>  <i_sd_BIOSOLVEIT.INFINISEE\_RESULT\_RANK>  (144) 
10660

>  <i_sd_version>  (144) 
0

>  <b_lp_Chiralities_Consistent>  (144) 
1

>  <b_sd_chiral_flag>  (144) 
0

>  <canonical_id>  (144) 
ATP-HTVS-17940C77D749

>  <compound_code>  (144) 
73155

>  <title>  (144) 
rxn207____EMOL41348343____EMOL6185419

>  <variant>  (144) 
73155-1

>  <source_file>  (144) 
运行/运行/ATP-VSW/ATP-VSW-DOCK_HTVS_1-003_lib/ATP-VSW-DOCK_HTVS_1-003_lib.mae

>  <canonical_smiles>  (144) 
C#C[C@H](c1ccccc1Cl)N1CC(=O)Nc2ccccc2[C@H]1c1ccccc1

>  <scaffold>  (144) 
O=C1CN(Cc2ccccc2)C(c2ccccc2)c2ccccc2N1

>  <molecular_formula>  (144) 
C24H19ClN2O

$$$$
ATP-HTVS-17A38785E483
     RDKit          3D

 55 58  0  0  0  0  0  0  0  0999 V2000
  193.9503  188.3983  162.4874 F   0  0  0  0  0  0  0  0  0  0  0  0
  194.1170  187.1480  162.0623 C   0  0  1  0  0  0  0  0  0  0  0  0
  195.2505  187.0333  161.0239 C   0  0  1  0  0  0  0  0  0  0  0  0
  195.3395  185.6523  160.3826 C   0  0  0  0  0  0  0  0  0  0  0  0
  194.1784  184.9717  159.9706 C   0  0  0  0  0  0  0  0  0  0  0  0
  194.2682  183.7258  159.3266 C   0  0  0  0  0  0  0  0  0  0  0  0
  195.5199  183.1090  159.1537 C   0  0  0  0  0  0  0  0  0  0  0  0
  196.6896  183.7543  159.6078 C   0  0  0  0  0  0  0  0  0  0  0  0
  196.6002  185.0569  160.1596 C   0  0  0  0  0  0  0  0  0  0  0  0
  195.6099  181.7506  158.4810 C   0  0  1  0  0  0  0  0  0  0  0  0
  195.9671  181.8610  157.0510 N   0  0  1  0  0  0  0  0  0  0  0  0
  197.1988  182.6444  156.7587 C   0  0  1  0  0  0  0  0  0  0  0  0
  197.3334  183.0380  155.2787 C   0  0  1  0  0  0  0  0  0  0  0  0
  198.5145  183.9048  155.0438 N   0  0  0  0  0  0  0  0  0  0  0  0
  199.4752  183.2991  154.3118 C   0  0  0  0  0  0  0  0  0  0  0  0
  200.5885  183.7184  153.9970 O   0  0  0  0  0  0  0  0  0  0  0  0
  198.8993  182.0060  153.8723 C   0  0  0  0  0  0  0  0  0  0  0  0
  197.6481  181.8371  154.4295 C   0  0  0  0  0  0  0  0  0  0  0  0
  196.8960  180.6749  154.1991 C   0  0  0  0  0  0  0  0  0  0  0  0
  197.4531  179.6892  153.3578 C   0  0  0  0  0  0  0  0  0  0  0  0
  198.7263  179.8793  152.7621 C   0  0  0  0  0  0  0  0  0  0  0  0
  199.4714  181.0548  153.0166 C   0  0  0  0  0  0  0  0  0  0  0  0
  198.5104  185.3102  155.4942 C   0  0  1  0  0  0  0  0  0  0  0  0
  198.8372  186.3714  154.4386 C   0  0  0  0  0  0  0  0  0  0  0  0
  199.2467  187.6596  154.8564 C   0  0  0  0  0  0  0  0  0  0  0  0
  199.5935  188.6456  153.9113 C   0  0  0  0  0  0  0  0  0  0  0  0
  199.5473  188.3526  152.5338 C   0  0  0  0  0  0  0  0  0  0  0  0
  199.1252  187.0788  152.1087 C   0  0  0  0  0  0  0  0  0  0  0  0
  198.7428  186.1040  153.0511 C   0  0  0  0  0  0  0  0  0  0  0  0
  196.0615  180.8981  156.7559 H   0  0  0  0  0  0  0  0  0  0  0  0
  194.3420  186.5287  162.9308 H   0  0  0  0  0  0  0  0  0  0  0  0
  193.1445  186.8432  161.6746 H   0  0  0  0  0  0  0  0  0  0  0  0
  195.1422  187.7778  160.2360 H   0  0  0  0  0  0  0  0  0  0  0  0
  196.1975  187.2641  161.5116 H   0  0  0  0  0  0  0  0  0  0  0  0
  193.2004  185.4088  160.0921 H   0  0  0  0  0  0  0  0  0  0  0  0
  193.3557  183.2455  158.9855 H   0  0  0  0  0  0  0  0  0  0  0  0
  197.6514  183.2781  159.5304 H   0  0  0  0  0  0  0  0  0  0  0  0
  197.5055  185.5699  160.4417 H   0  0  0  0  0  0  0  0  0  0  0  0
  196.3265  181.1187  159.0089 H   0  0  0  0  0  0  0  0  0  0  0  0
  194.6440  181.2418  158.5364 H   0  0  0  0  0  0  0  0  0  0  0  0
  197.1888  183.5882  157.3007 H   0  0  0  0  0  0  0  0  0  0  0  0
  198.0843  182.0839  157.0840 H   0  0  0  0  0  0  0  0  0  0  0  0
  196.4340  183.5368  154.9279 H   0  0  0  0  0  0  0  0  0  0  0  0
  195.9433  180.5226  154.6794 H   0  0  0  0  0  0  0  0  0  0  0  0
  196.9062  178.7747  153.1807 H   0  0  0  0  0  0  0  0  0  0  0  0
  199.1387  179.1166  152.1211 H   0  0  0  0  0  0  0  0  0  0  0  0
  200.4407  181.2320  152.5656 H   0  0  0  0  0  0  0  0  0  0  0  0
  197.5339  185.5611  155.9122 H   0  0  0  0  0  0  0  0  0  0  0  0
  199.2173  185.4094  156.3202 H   0  0  0  0  0  0  0  0  0  0  0  0
  199.3117  187.8963  155.9128 H   0  0  0  0  0  0  0  0  0  0  0  0
  199.9040  189.6284  154.2363 H   0  0  0  0  0  0  0  0  0  0  0  0
  199.8270  189.0956  151.8000 H   0  0  0  0  0  0  0  0  0  0  0  0
  199.0926  186.8359  151.0576 H   0  0  0  0  0  0  0  0  0  0  0  0
  198.3990  185.1526  152.6799 H   0  0  0  0  0  0  0  0  0  0  0  0
  195.1880  182.2640  156.5403 H   0  0  0  0  0  0  0  0  0  0  0  0
  1  2  1  0
  2  3  1  0
  2 31  1  1
  2 32  1  0
  3  4  1  0
  3 33  1  6
  3 34  1  0
  4  5  1  0
  4  9  2  0
  5  6  2  0
  5 35  1  0
  6  7  1  0
  6 36  1  0
  7  8  2  0
  7 10  1  0
  8  9  1  0
  8 37  1  0
  9 38  1  0
 10 11  1  0
 10 39  1  1
 10 40  1  0
 11 12  1  0
 11 30  1  6
 11 55  1  0
 12 13  1  0
 12 41  1  1
 12 42  1  0
 13 14  1  0
 13 18  1  0
 13 43  1  6
 14 15  1  0
 14 23  1  0
 15 16  2  0
 15 17  1  0
 17 18  1  0
 17 22  2  0
 18 19  2  0
 19 20  1  0
 19 44  1  0
 20 21  2  0
 20 45  1  0
 21 22  1  0
 21 46  1  0
 22 47  1  0
 23 24  1  0
 23 48  1  1
 23 49  1  0
 24 25  2  0
 24 29  1  0
 25 26  1  0
 25 50  1  0
 26 27  2  0
 26 51  1  0
 27 28  1  0
 27 52  1  0
 28 29  2  0
 28 53  1  0
 29 54  1  0
M  CHG  1  11   1
M  END
>  <s_epik_cmdline>  (145) 
J2VwaWtfcHl0aG9uJywgJy1waCcsICc3LjAwMDAwMCcsICctcGh0JywgJzIuMDAwMDAwJywgJy1tcycsICcxNicsICctdG4nLCAnOCcsICctbWEnLCAnMjAwJywgJy1pbWFlJywgJzxpbmZpbGUubWFlPicsICctb21hZScsICc8b3V0ZmlsZS5tYWU+Jw==

>  <s_epik_input>  (145) 
RltDSDJdW0NIMl1jMVtjSF1bY0hdYyhbY0hdW2NIXTEpW0NIMl1bTkhdW0NIMl1bQ0BIXShjKGMyMylbY0hdW2NIXVtjSF1bY0hdMylOKEMyPU8pW0NIMl1jNFtjSF1bY0hdW2NIXVtjSF1bY0hdNA==

>  <s_i_glide_gridfile>  (145) 
ATP-Grid

>  <s_lp_Force_Field>  (145) 
OPLS_2005

>  <s_lp_Variant>  (145) 
m_270004bbb____12219716____16529880-2

>  <s_lp_label>  (145) 
716_sdstereoexpander_2_neutralizer_1_epik_1_stereoizer_1

>  <s_m_source_file>  (145) 
ATP-VSW-LIGPREP-001-in.maegz

>  <s_sd_BIOSOLVEIT.INFINISEE\_QUERY\_NAME>  (145) 
Ref-Lig

>  <s_sd_BIOSOLVEIT.INFINISEE\_QUERY\_SMILES>  (145) 
S(c1nc2c(cc1C[NH2+]Cc3ccc(cc3)C[NH+](C)C)cccc2)Cc4ccccc4

>  <s_sd_BIOSOLVEIT.INFINISEE\_REACTION\_NAME>  (145) 
m_270004bbb

>  <s_sd_BIOSOLVEIT.INFINISEE\_REAGENT1\_SMILES>  (145) 
[R1*]NCC1N(C(=O)c2c1cccc2)Cc3ccccc3

>  <s_sd_BIOSOLVEIT.INFINISEE\_REAGENT2\_SMILES>  (145) 
[R1*]Cc1ccc(cc1)CCF

>  <s_sd_BIOSOLVEIT.INFINISEE\_SPACE>  (145) 
REALSpace_44bn_2023-08

>  <s_vsw_compound_code>  (145) 
22881

>  <s_vsw_variant>  (145) 
22881-2

>  <r_epik_Charging_Adjusted_Penalty>  (145) 
0.112657439213581

>  <r_epik_Ionization_Penalty>  (145) 
0.056300000000000003

>  <r_epik_Ionization_Penalty_Charging>  (145) 
0.056300000000000003

>  <r_epik_Ionization_Penalty_Neutral>  (145) 
0

>  <r_epik_State_Penalty>  (145) 
0.056300000000000003

>  <r_i_docking_score>  (145) 
-4.8260022754768404

>  <r_i_glide_ecoul>  (145) 
-8.7006006240844709

>  <r_i_glide_eff_state_penalty>  (145) 
0.056300000000000003

>  <r_i_glide_einternal>  (145) 
6.8053879737854004

>  <r_i_glide_emodel>  (145) 
-51.951502700500797

>  <r_i_glide_energy>  (145) 
-37.4234972000122

>  <r_i_glide_erotb>  (145) 
0.89956741127125595

>  <r_i_glide_esite>  (145) 
-0.150611560528083

>  <r_i_glide_evdw>  (145) 
-28.722896575927699

>  <r_i_glide_gscore>  (145) 
-4.8823022754768397

>  <r_i_glide_hbond>  (145) 
-0.29850249465981399

>  <r_i_glide_ligand_efficiency>  (145) 
-0.166413871568167

>  <r_i_glide_ligand_efficiency_ln>  (145) 
-1.10503214422545

>  <r_i_glide_ligand_efficiency_sa>  (145) 
-0.51127613707252995

>  <r_i_glide_lipo>  (145) 
-1.6130103205147801

>  <r_i_glide_metal>  (145) 
-0

>  <r_i_glide_rewards>  (145) 
-0.97851038863636197

>  <r_lp_Energy>  (145) 
46.092686999999998

>  <r_qp_ACxDN^.5/SA>  (145) 
0.0069641

>  <r_qp_CIQPlogS>  (145) 
-5.46

>  <r_qp_EA(eV)>  (145) 
0.34699999999999998

>  <r_qp_FISA>  (145) 
41.389000000000003

>  <r_qp_FOSA>  (145) 
193.762

>  <r_qp_IP(eV)>  (145) 
9.3369999999999997

>  <r_qp_Jm>  (145) 
0.12979820434877801

>  <r_qp_PISA>  (145) 
384.40199999999999

>  <r_qp_PSA>  (145) 
39.764000000000003

>  <r_qp_PercentHumanOralAbsorption>  (145) 
100

>  <r_qp_QPPCaco>  (145) 
1000.7190000000001

>  <r_qp_QPPMDCK>  (145) 
766.27800000000002

>  <r_qp_QPlogBB>  (145) 
0.23200000000000001

>  <r_qp_QPlogHERG>  (145) 
-6.3730000000000002

>  <r_qp_QPlogKhsa>  (145) 
0.80400000000000005

>  <r_qp_QPlogKp>  (145) 
-2.319

>  <r_qp_QPlogPC16>  (145) 
12.702999999999999

>  <r_qp_QPlogPo/w>  (145) 
4.8730000000000002

>  <r_qp_QPlogPoct>  (145) 
18.126999999999999

>  <r_qp_QPlogPw>  (145) 
8.5329999999999995

>  <r_qp_QPlogS>  (145) 
-4.157

>  <r_qp_QPpolrz>  (145) 
42.231000000000002

>  <r_qp_SASA>  (145) 
646.17200000000003

>  <r_qp_SAamideO>  (145) 
0

>  <r_qp_SAfluorine>  (145) 
26.619

>  <r_qp_WPSA>  (145) 
26.619

>  <r_qp_accptHB>  (145) 
4.5

>  <r_qp_dip^2/V>  (145) 
0.021775800000000001

>  <r_qp_dipole>  (145) 
5.1749999999999998

>  <r_qp_donorHB>  (145) 
1

>  <r_qp_glob>  (145) 
0.85900460000000001

>  <r_qp_mol_MW>  (145) 
388.48399999999998

>  <r_qp_volume>  (145) 
1229.6099999999999

>  <r_sd_BIOSOLVEIT.INFINISEE\_FTREES\_SIMILARITY>  (145) 
0.92900000000000005

>  <r_sd_BIOSOLVEIT.LOGP>  (145) 
3.6593

>  <r_sd_BIOSOLVEIT.MOLECULAR\_WEIGHT>  (145) 
389.49099999999999

>  <r_sd_BIOSOLVEIT.TPSA>  (145) 
36.920000000000002

>  <i_epik_Tot_Q>  (145) 
1

>  <i_epik_Tot_abs_Q>  (145) 
1

>  <i_f3d_flags>  (145) 
0

>  <i_i_glide_confnum>  (145) 
5

>  <i_i_glide_lignum>  (145) 
102

>  <i_i_glide_posenum>  (145) 
14

>  <i_i_glide_rotatable_bonds>  (145) 
8

>  <i_lp_mmshare_version>  (145) 
65135

>  <i_m_ct_format>  (145) 
2

>  <i_m_source_file_index>  (145) 
716

>  <i_qp_#NandO>  (145) 
3

>  <i_qp_#acid>  (145) 
0

>  <i_qp_#amide>  (145) 
0

>  <i_qp_#amidine>  (145) 
0

>  <i_qp_#amine>  (145) 
1

>  <i_qp_#in34>  (145) 
0

>  <i_qp_#in56>  (145) 
21

>  <i_qp_#metab>  (145) 
5

>  <i_qp_#nonHatm>  (145) 
29

>  <i_qp_#noncon>  (145) 
1

>  <i_qp_#ringatoms>  (145) 
21

>  <i_qp_#rotor>  (145) 
7

>  <i_qp_#rtvFG>  (145) 
0

>  <i_qp_#stars>  (145) 
0

>  <i_qp_CNS>  (145) 
1

>  <i_qp_HumanOralAbsorption>  (145) 
3

>  <i_qp_RuleOfFive>  (145) 
0

>  <i_qp_RuleOfThree>  (145) 
0

>  <i_sd_BIOSOLVEIT.INFINISEE\_REAGENT1\_NAME>  (145) 
12219716

>  <i_sd_BIOSOLVEIT.INFINISEE\_REAGENT2\_NAME>  (145) 
16529880

>  <i_sd_BIOSOLVEIT.INFINISEE\_RESULT\_RANK>  (145) 
5531

>  <i_sd_version>  (145) 
0

>  <b_lp_Chiralities_Consistent>  (145) 
1

>  <b_sd_chiral_flag>  (145) 
0

>  <canonical_id>  (145) 
ATP-HTVS-17A38785E483

>  <compound_code>  (145) 
22881

>  <title>  (145) 
m_270004bbb____12219716____16529880

>  <variant>  (145) 
22881-2

>  <source_file>  (145) 
运行/运行/ATP-VSW/ATP-VSW-DOCK_HTVS_1-001_lib/ATP-VSW-DOCK_HTVS_1-001_lib

>  <canonical_smiles>  (145) 
O=C1c2ccccc2[C@@H](C[NH2+]Cc2ccc(CCF)cc2)N1Cc1ccccc1

>  <scaffold>  (145) 
O=C1c2ccccc2C(C[NH2+]Cc2ccccc2)N1Cc1ccccc1

>  <molecular_formula>  (145) 
C25H26FN2O+

$$$$
ATP-HTVS-17C024B1EE7E
     RDKit          3D

 45 48  0  0  0  0  0  0  0  0999 V2000
  197.5584  179.4403  154.8465 Br  0  0  0  0  0  0  0  0  0  0  0  0
  198.0617  181.0796  155.6748 C   0  0  0  0  0  0  0  0  0  0  0  0
  197.0914  182.0444  155.9862 C   0  0  0  0  0  0  0  0  0  0  0  0
  197.4550  183.2421  156.6214 C   0  0  0  0  0  0  0  0  0  0  0  0
  198.8171  183.5105  156.9200 C   0  0  0  0  0  0  0  0  0  0  0  0
  199.1945  184.7661  157.6235 C   0  0  0  0  0  0  0  0  0  0  0  0
  198.2188  185.5799  158.0218 N   0  0  0  0  0  0  0  0  0  0  0  0
  198.5456  186.6880  158.7329 C   0  0  0  0  0  0  0  0  0  0  0  0
  197.5063  187.4794  159.2448 N   0  0  0  0  0  0  0  0  0  0  0  0
  196.1444  186.9666  159.3496 C   0  0  1  0  0  0  0  0  0  0  0  0
  195.9776  185.8316  160.4042 C   0  0  1  0  0  0  0  0  0  0  0  0
  195.0223  186.2586  161.3554 O   0  0  0  0  0  0  0  0  0  0  0  0
  195.5952  184.4745  159.8031 C   0  0  0  0  0  0  0  0  0  0  0  0
  196.5567  183.4562  159.6371 C   0  0  0  0  0  0  0  0  0  0  0  0
  197.8287  183.6364  160.0808 F   0  0  0  0  0  0  0  0  0  0  0  0
  196.2226  182.2721  158.9627 C   0  0  0  0  0  0  0  0  0  0  0  0
  194.8973  182.0444  158.5468 C   0  0  0  0  0  0  0  0  0  0  0  0
  193.9273  183.0410  158.7369 C   0  0  0  0  0  0  0  0  0  0  0  0
  194.2665  184.2503  159.3656 C   0  0  0  0  0  0  0  0  0  0  0  0
  199.8963  187.0038  159.0087 C   0  0  0  0  0  0  0  0  0  0  0  0
  200.8718  186.0825  158.5445 C   0  0  0  0  0  0  0  0  0  0  0  0
  200.5059  184.9657  157.8792 N   0  0  0  0  0  0  0  0  0  0  0  0
  202.2341  186.3525  158.7710 C   0  0  0  0  0  0  0  0  0  0  0  0
  202.6353  187.5237  159.4425 C   0  0  0  0  0  0  0  0  0  0  0  0
  201.6664  188.4294  159.9173 C   0  0  0  0  0  0  0  0  0  0  0  0
  200.3021  188.1733  159.7109 C   0  0  0  0  0  0  0  0  0  0  0  0
  199.7786  182.5178  156.6285 C   0  0  0  0  0  0  0  0  0  0  0  0
  199.4127  181.3106  155.9985 C   0  0  0  0  0  0  0  0  0  0  0  0
  196.0479  181.8458  155.7723 H   0  0  0  0  0  0  0  0  0  0  0  0
  196.6945  183.9812  156.8041 H   0  0  0  0  0  0  0  0  0  0  0  0
  197.7588  188.2144  159.8946 H   0  0  0  0  0  0  0  0  0  0  0  0
  195.5417  187.8261  159.6304 H   0  0  0  0  0  0  0  0  0  0  0  0
  195.7791  186.6650  158.3682 H   0  0  0  0  0  0  0  0  0  0  0  0
  196.9184  185.7104  160.9358 H   0  0  0  0  0  0  0  0  0  0  0  0
  194.2184  186.4402  160.8934 H   0  0  0  0  0  0  0  0  0  0  0  0
  196.9499  181.4844  158.8638 H   0  0  0  0  0  0  0  0  0  0  0  0
  194.6428  181.1268  158.0296 H   0  0  0  0  0  0  0  0  0  0  0  0
  192.9153  182.8857  158.3619 H   0  0  0  0  0  0  0  0  0  0  0  0
  193.5161  185.0153  159.4812 H   0  0  0  0  0  0  0  0  0  0  0  0
  202.9729  185.6588  158.4050 H   0  0  0  0  0  0  0  0  0  0  0  0
  203.6865  187.7227  159.6002 H   0  0  0  0  0  0  0  0  0  0  0  0
  201.9711  189.3247  160.4396 H   0  0  0  0  0  0  0  0  0  0  0  0
  199.5806  188.8823  160.0842 H   0  0  0  0  0  0  0  0  0  0  0  0
  200.8277  182.6485  156.9034 H   0  0  0  0  0  0  0  0  0  0  0  0
  200.1507  180.5533  155.7795 H   0  0  0  0  0  0  0  0  0  0  0  0
  1  2  1  0
  2  3  1  0
  2 28  2  0
  3  4  2  0
  3 29  1  0
  4  5  1  0
  4 30  1  0
  5  6  1  0
  5 27  2  0
  6  7  2  0
  6 22  1  0
  7  8  1  0
  8  9  1  0
  8 20  2  0
  9 10  1  0
  9 31  1  0
 10 11  1  0
 10 32  1  1
 10 33  1  0
 11 12  1  0
 11 13  1  0
 11 34  1  1
 12 35  1  0
 13 14  1  0
 13 19  2  0
 14 15  1  0
 14 16  2  0
 16 17  1  0
 16 36  1  0
 17 18  2  0
 17 37  1  0
 18 19  1  0
 18 38  1  0
 19 39  1  0
 20 21  1  0
 20 26  1  0
 21 22  2  0
 21 23  1  0
 23 24  2  0
 23 40  1  0
 24 25  1  0
 24 41  1  0
 25 26  2  0
 25 42  1  0
 26 43  1  0
 27 28  1  0
 27 44  1  0
 28 45  1  0
M  END
>  <s_epik_cmdline>  (146) 
J2VwaWtfcHl0aG9uJywgJy1waCcsICc3LjAwMDAwMCcsICctcGh0JywgJzIuMDAwMDAwJywgJy1tcycsICcxNicsICctdG4nLCAnOCcsICctbWEnLCAnMjAwJywgJy1pbWFlJywgJzxpbmZpbGUubWFlPicsICctb21hZScsICc8b3V0ZmlsZS5tYWU+Jw==

>  <s_epik_input>  (146) 
W2NIXTFbY0hdW2NIXVtjSF1jKGMxMiluYygtYyhbY0hdW2NIXTMpW2NIXVtjSF1jM0JyKW5jMltOSF1bQ0gyXVtDQEBIXShbT0hdKWM0YyhGKVtjSF1bY0hdW2NIXVtjSF00

>  <s_i_glide_gridfile>  (146) 
ATP-Grid

>  <s_lp_Force_Field>  (146) 
OPLS_2005

>  <s_lp_Variant>  (146) 
m_27bbd____602508____21058254-2

>  <s_lp_label>  (146) 
1450_sdstereoexpander_2_neutralizer_1_epik_1_stereoizer_1

>  <s_m_source_file>  (146) 
ATP-VSW-LIGPREP-001-in.maegz

>  <s_sd_BIOSOLVEIT.INFINISEE\_QUERY\_NAME>  (146) 
Ref-Lig

>  <s_sd_BIOSOLVEIT.INFINISEE\_QUERY\_SMILES>  (146) 
S(c1nc2c(cc1C[NH2+]Cc3ccc(cc3)C[NH+](C)C)cccc2)Cc4ccccc4

>  <s_sd_BIOSOLVEIT.INFINISEE\_REACTION\_NAME>  (146) 
m_27bbd

>  <s_sd_BIOSOLVEIT.INFINISEE\_REAGENT1\_SMILES>  (146) 
[R1*]NCC(O)c1c(F)cccc1

>  <s_sd_BIOSOLVEIT.INFINISEE\_REAGENT2\_SMILES>  (146) 
[R1*]c1nc(nc2c1cccc2)c3ccc(Br)cc3

>  <s_sd_BIOSOLVEIT.INFINISEE\_SPACE>  (146) 
REALSpace_44bn_2023-08

>  <s_vsw_compound_code>  (146) 
46369

>  <s_vsw_variant>  (146) 
46369-2

>  <r_epik_Charging_Adjusted_Penalty>  (146) 
0.0083399967255482106

>  <r_epik_Ionization_Penalty>  (146) 
0.0088000000000000005

>  <r_epik_Ionization_Penalty_Charging>  (146) 
0

>  <r_epik_Ionization_Penalty_Neutral>  (146) 
0.0088000000000000005

>  <r_epik_State_Penalty>  (146) 
0.0083000000000000001

>  <r_i_docking_score>  (146) 
-3.63222262321622

>  <r_i_glide_ecoul>  (146) 
-3.9101922512054399

>  <r_i_glide_eff_state_penalty>  (146) 
0.0083000000000000001

>  <r_i_glide_einternal>  (146) 
5.5956163406372097

>  <r_i_glide_emodel>  (146) 
-41.346620349060501

>  <r_i_glide_energy>  (146) 
-35.721460103988598

>  <r_i_glide_erotb>  (146) 
0.41537858044843401

>  <r_i_glide_esite>  (146) 
0

>  <r_i_glide_evdw>  (146) 
-31.8112678527832

>  <r_i_glide_gscore>  (146) 
-3.6405226232162202

>  <r_i_glide_hbond>  (146) 
0

>  <r_i_glide_ligand_efficiency>  (146) 
-0.12972223654343701

>  <r_i_glide_ligand_efficiency_ln>  (146) 
-0.83842362812861004

>  <r_i_glide_ligand_efficiency_sa>  (146) 
-0.39391311245731198

>  <r_i_glide_lipo>  (146) 
-1.23881962303819

>  <r_i_glide_metal>  (146) 
-0

>  <r_i_glide_rewards>  (146) 
-0.63998935030648896

>  <r_lp_Energy>  (146) 
15.63003

>  <r_lp_tautomer_probability>  (146) 
0.99997800024199801

>  <r_qp_ACxDN^.5/SA>  (146) 
0.0099734999999999997

>  <r_qp_CIQPlogS>  (146) 
-7.6719999999999997

>  <r_qp_EA(eV)>  (146) 
1.0920000000000001

>  <r_qp_FISA>  (146) 
65.5

>  <r_qp_FOSA>  (146) 
51.036000000000001

>  <r_qp_IP(eV)>  (146) 
8.5709999999999997

>  <r_qp_Jm>  (146) 
0.73663913822373805

>  <r_qp_PISA>  (146) 
378.69

>  <r_qp_PSA>  (146) 
47.844999999999999

>  <r_qp_PercentHumanOralAbsorption>  (146) 
100

>  <r_qp_QPPCaco>  (146) 
2370.1060000000002

>  <r_qp_QPPMDCK>  (146) 
4456.4269999999997

>  <r_qp_QPlogBB>  (146) 
-0.121

>  <r_qp_QPlogHERG>  (146) 
-5.3390000000000004

>  <r_qp_QPlogKhsa>  (146) 
0.55700000000000005

>  <r_qp_QPlogKp>  (146) 
-0.81699999999999995

>  <r_qp_QPlogPC16>  (146) 
12.691000000000001

>  <r_qp_QPlogPo/w>  (146) 
4.7789999999999999

>  <r_qp_QPlogPoct>  (146) 
18.635000000000002

>  <r_qp_QPlogPw>  (146) 
9.952

>  <r_qp_QPlogS>  (146) 
-4.9580000000000002

>  <r_qp_QPpolrz>  (146) 
38.473999999999997

>  <r_qp_SASA>  (146) 
595.54600000000005

>  <r_qp_SAamideO>  (146) 
0

>  <r_qp_SAfluorine>  (146) 
22.896000000000001

>  <r_qp_WPSA>  (146) 
100.321

>  <r_qp_accptHB>  (146) 
4.2000000000000002

>  <r_qp_dip^2/V>  (146) 
0.022065299999999999

>  <r_qp_dipole>  (146) 
4.9740000000000002

>  <r_qp_donorHB>  (146) 
2

>  <r_qp_glob>  (146) 
0.8763225

>  <r_qp_mol_MW>  (146) 
438.298

>  <r_qp_volume>  (146) 
1121.0409999999999

>  <r_sd_BIOSOLVEIT.INFINISEE\_FTREES\_SIMILARITY>  (146) 
0.90800000000000003

>  <r_sd_BIOSOLVEIT.LOGP>  (146) 
5.3438999999999997

>  <r_sd_BIOSOLVEIT.MOLECULAR\_WEIGHT>  (146) 
438.298

>  <r_sd_BIOSOLVEIT.TPSA>  (146) 
58.039999999999999

>  <i_epik_Tot_Q>  (146) 
0

>  <i_epik_Tot_abs_Q>  (146) 
0

>  <i_f3d_flags>  (146) 
0

>  <i_i_glide_confnum>  (146) 
3

>  <i_i_glide_lignum>  (146) 
378

>  <i_i_glide_posenum>  (146) 
10

>  <i_i_glide_rotatable_bonds>  (146) 
6

>  <i_lp_mmshare_version>  (146) 
65135

>  <i_m_ct_format>  (146) 
2

>  <i_m_source_file_index>  (146) 
1450

>  <i_qp_#NandO>  (146) 
4

>  <i_qp_#acid>  (146) 
0

>  <i_qp_#amide>  (146) 
0

>  <i_qp_#amidine>  (146) 
0

>  <i_qp_#amine>  (146) 
0

>  <i_qp_#in34>  (146) 
0

>  <i_qp_#in56>  (146) 
22

>  <i_qp_#metab>  (146) 
2

>  <i_qp_#nonHatm>  (146) 
28

>  <i_qp_#noncon>  (146) 
0

>  <i_qp_#ringatoms>  (146) 
22

>  <i_qp_#rotor>  (146) 
6

>  <i_qp_#rtvFG>  (146) 
0

>  <i_qp_#stars>  (146) 
0

>  <i_qp_CNS>  (146) 
0

>  <i_qp_HumanOralAbsorption>  (146) 
3

>  <i_qp_RuleOfFive>  (146) 
0

>  <i_qp_RuleOfThree>  (146) 
0

>  <i_sd_BIOSOLVEIT.INFINISEE\_REAGENT1\_NAME>  (146) 
602508

>  <i_sd_BIOSOLVEIT.INFINISEE\_REAGENT2\_NAME>  (146) 
21058254

>  <i_sd_BIOSOLVEIT.INFINISEE\_RESULT\_RANK>  (146) 
55985

>  <i_sd_version>  (146) 
0

>  <b_lp_Chiralities_Consistent>  (146) 
1

>  <b_sd_chiral_flag>  (146) 
0

>  <canonical_id>  (146) 
ATP-HTVS-17C024B1EE7E

>  <compound_code>  (146) 
46369

>  <title>  (146) 
m_27bbd____602508____21058254

>  <variant>  (146) 
46369-2

>  <source_file>  (146) 
运行/运行/ATP-VSW/ATP-VSW-DOCK_HTVS_1-001_lib/ATP-VSW-DOCK_HTVS_1-001_lib

>  <canonical_smiles>  (146) 
O[C@H](CNc1nc(-c2ccc(Br)cc2)nc2ccccc12)c1ccccc1F

>  <scaffold>  (146) 
c1ccc(CCNc2nc(-c3ccccc3)nc3ccccc23)cc1

>  <molecular_formula>  (146) 
C22H17BrFN3O

$$$$
ATP-HTVS-17D20C07D7F4
     RDKit          3D

 56 59  0  0  0  0  0  0  0  0999 V2000
  197.6552  185.6373  158.8769 S   0  0  0  0  0  0  0  0  0  0  0  0
  196.2389  184.5989  158.8549 C   0  0  0  0  0  0  0  0  0  0  0  0
  196.5332  183.3471  158.2211 C   0  0  0  0  0  0  0  0  0  0  0  0
  195.4924  182.3884  158.2044 C   0  0  0  0  0  0  0  0  0  0  0  0
  194.2229  182.6740  158.7414 C   0  0  0  0  0  0  0  0  0  0  0  0
  193.9549  183.9270  159.3231 C   0  0  0  0  0  0  0  0  0  0  0  0
  194.9674  184.8930  159.3784 C   0  0  0  0  0  0  0  0  0  0  0  0
  197.8989  183.3248  157.7117 C   0  0  0  0  0  0  0  0  0  0  0  0
  198.3828  182.1438  157.0816 C   0  0  0  0  0  0  0  0  0  0  0  0
  198.7626  181.1289  156.5290 C   0  0  0  0  0  0  0  0  0  0  0  0
  199.0915  179.8696  155.8407 C   0  0  1  0  0  0  0  0  0  0  0  0
  199.5677  178.9048  156.8061 N   0  0  0  0  0  0  0  0  0  0  0  0
  197.8862  179.2751  155.0786 C   0  0  1  0  0  0  0  0  0  0  0  0
  197.5521  180.0198  153.7932 C   0  0  0  0  0  0  0  0  0  0  0  0
  197.9790  179.5058  152.5491 C   0  0  0  0  0  0  0  0  0  0  0  0
  197.6828  180.1930  151.3553 C   0  0  0  0  0  0  0  0  0  0  0  0
  198.0917  179.6910  150.1661 F   0  0  0  0  0  0  0  0  0  0  0  0
  196.9660  181.4040  151.3983 C   0  0  0  0  0  0  0  0  0  0  0  0
  196.5375  181.9204  152.6356 C   0  0  0  0  0  0  0  0  0  0  0  0
  196.8203  181.2267  153.8280 C   0  0  0  0  0  0  0  0  0  0  0  0
  198.5937  184.4899  157.9698 C   0  0  0  0  0  0  0  0  0  0  0  0
  200.0232  184.8266  157.6256 C   0  0  1  0  0  0  0  0  0  0  0  0
  200.1948  185.5416  156.3339 N   0  0  0  0  0  0  0  0  0  0  0  0
  199.8738  186.8496  156.1035 C   0  0  0  0  0  0  0  0  0  0  0  0
  199.9409  187.3552  154.9796 O   0  0  0  0  0  0  0  0  0  0  0  0
  199.3994  187.7012  157.2529 C   0  0  0  0  0  0  0  0  0  0  0  0
  198.2067  188.4678  157.1353 C   0  0  0  0  0  0  0  0  0  0  0  0
  197.7056  189.2068  158.2302 C   0  0  0  0  0  0  0  0  0  0  0  0
  198.4043  189.1986  159.4521 C   0  0  0  0  0  0  0  0  0  0  0  0
  197.9473  189.9047  160.5267 O   0  0  0  0  0  0  0  0  0  0  0  0
  199.6021  188.4631  159.5643 C   0  0  0  0  0  0  0  0  0  0  0  0
  200.1091  187.7412  158.4725 C   0  0  0  0  0  0  0  0  0  0  0  0
  200.7812  184.7278  155.2524 C   0  0  2  0  0  0  0  0  0  0  0  0
  198.8155  178.6570  157.4427 H   0  0  0  0  0  0  0  0  0  0  0  0
  199.7863  178.0481  156.3260 H   0  0  0  0  0  0  0  0  0  0  0  0
  195.6812  181.4213  157.7523 H   0  0  0  0  0  0  0  0  0  0  0  0
  193.4551  181.9201  158.6867 H   0  0  0  0  0  0  0  0  0  0  0  0
  192.9768  184.1525  159.7220 H   0  0  0  0  0  0  0  0  0  0  0  0
  194.7779  185.8651  159.8062 H   0  0  0  0  0  0  0  0  0  0  0  0
  199.9006  180.0915  155.1417 H   0  0  0  0  0  0  0  0  0  0  0  0
  198.0998  178.2365  154.8271 H   0  0  0  0  0  0  0  0  0  0  0  0
  197.0009  179.2424  155.7176 H   0  0  0  0  0  0  0  0  0  0  0  0
  198.5376  178.5832  152.5032 H   0  0  0  0  0  0  0  0  0  0  0  0
  196.7465  181.9332  150.4828 H   0  0  0  0  0  0  0  0  0  0  0  0
  195.9857  182.8488  152.6753 H   0  0  0  0  0  0  0  0  0  0  0  0
  196.4793  181.6351  154.7693 H   0  0  0  0  0  0  0  0  0  0  0  0
  200.4830  185.4176  158.4397 H   0  0  0  0  0  0  0  0  0  0  0  0
  200.5579  183.8685  157.5780 H   0  0  0  0  0  0  0  0  0  0  0  0
  197.6402  188.4387  156.2122 H   0  0  0  0  0  0  0  0  0  0  0  0
  196.7856  189.7720  158.1286 H   0  0  0  0  0  0  0  0  0  0  0  0
  198.5044  189.8134  161.2922 H   0  0  0  0  0  0  0  0  0  0  0  0
  200.1038  188.4196  160.5255 H   0  0  0  0  0  0  0  0  0  0  0  0
  201.0108  187.1443  158.5716 H   0  0  0  0  0  0  0  0  0  0  0  0
  201.3821  185.3220  154.5563 H   0  0  0  0  0  0  0  0  0  0  0  0
  200.0215  184.2025  154.6666 H   0  0  0  0  0  0  0  0  0  0  0  0
  201.4598  183.9724  155.6394 H   0  0  0  0  0  0  0  0  0  0  0  0
  1  2  1  0
  1 21  1  0
  2  3  1  0
  2  7  2  0
  3  4  2  0
  3  8  1  0
  4  5  1  0
  4 36  1  0
  5  6  2  0
  5 37  1  0
  6  7  1  0
  6 38  1  0
  7 39  1  0
  8  9  1  0
  8 21  2  0
  9 10  3  0
 10 11  1  0
 11 12  1  0
 11 13  1  0
 11 40  1  6
 12 34  1  0
 12 35  1  0
 13 14  1  0
 13 41  1  6
 13 42  1  0
 14 15  1  0
 14 20  2  0
 15 16  2  0
 15 43  1  0
 16 17  1  0
 16 18  1  0
 18 19  2  0
 18 44  1  0
 19 20  1  0
 19 45  1  0
 20 46  1  0
 21 22  1  0
 22 23  1  0
 22 47  1  1
 22 48  1  0
 23 24  1  0
 23 33  1  0
 24 25  2  0
 24 26  1  0
 26 27  1  0
 26 32  2  0
 27 28  2  0
 27 49  1  0
 28 29  1  0
 28 50  1  0
 29 30  1  0
 29 31  2  0
 30 51  1  0
 31 32  1  0
 31 52  1  0
 32 53  1  0
 33 54  1  6
 33 55  1  0
 33 56  1  0
M  END
>  <s_epik_cmdline>  (147) 
J2VwaWtfcHl0aG9uJywgJy1waCcsICc3LjAwMDAwMCcsICctcGh0JywgJzIuMDAwMDAwJywgJy1tcycsICcxNicsICctdG4nLCAnOCcsICctbWEnLCAnMjAwJywgJy1pbWFlJywgJzxpbmZpbGUubWFlPicsICctb21hZScsICc8b3V0ZmlsZS5tYWU+Jw==

>  <s_epik_input>  (147) 
W2NIXTFbY0hdYyhbT0hdKVtjSF1bY0hdYzFDKD1PKU4oW0NIM10pW0NIMl1jKHMyKWMoYyhjMjMpW2NIXVtjSF1bY0hdW2NIXTMpQyNDW0NAQEhdKFtOSDJdKVtDSDJdYzRbY0hdYyhGKVtjSF1bY0hdW2NIXTQ=

>  <s_i_glide_gridfile>  (147) 
ATP-Grid

>  <s_lp_Force_Field>  (147) 
OPLS_2005

>  <s_lp_Variant>  (147) 
rxn503c____EMOL490868____EMOL49259969____EMOL313110234-2

>  <s_lp_label>  (147) 
2644_sdstereoexpander_2_neutralizer_1_epik_1_stereoizer_1

>  <s_m_source_file>  (147) 
ATP-VSW-LIGPREP-003-in.maegz

>  <s_sd_BIOSOLVEIT.INFINISEE\_QUERY\_NAME>  (147) 
Ref-Lig

>  <s_sd_BIOSOLVEIT.INFINISEE\_QUERY\_SMILES>  (147) 
S(c1nc2c(cc1C[NH2+]Cc3ccc(cc3)C[NH+](C)C)cccc2)Cc4ccccc4

>  <s_sd_BIOSOLVEIT.INFINISEE\_REACTION\_NAME>  (147) 
rxn503c

>  <s_sd_BIOSOLVEIT.INFINISEE\_REAGENT1\_NAME>  (147) 
EMOL490868

>  <s_sd_BIOSOLVEIT.INFINISEE\_REAGENT1\_SMILES>  (147) 
O=C(O)c1ccc(O)cc1

>  <s_sd_BIOSOLVEIT.INFINISEE\_REAGENT2\_NAME>  (147) 
EMOL49259969

>  <s_sd_BIOSOLVEIT.INFINISEE\_REAGENT2\_SMILES>  (147) 
ClC=1c2c(SC1CNC)cccc2

>  <s_sd_BIOSOLVEIT.INFINISEE\_REAGENT3\_NAME>  (147) 
EMOL313110234

>  <s_sd_BIOSOLVEIT.INFINISEE\_REAGENT3\_SMILES>  (147) 
Fc1cc(ccc1)CC(N)C#C

>  <s_sd_BIOSOLVEIT.INFINISEE\_SPACE>  (147) 
eXplore_7tr_2022-12

>  <s_vsw_compound_code>  (147) 
84579

>  <s_vsw_variant>  (147) 
84579-2

>  <r_epik_Charging_Adjusted_Penalty>  (147) 
0.29444843203658699

>  <r_epik_Ionization_Penalty>  (147) 
0.2944

>  <r_epik_Ionization_Penalty_Charging>  (147) 
0

>  <r_epik_Ionization_Penalty_Neutral>  (147) 
0.2944

>  <r_epik_State_Penalty>  (147) 
0.2944

>  <r_i_docking_score>  (147) 
-3.57264819833477

>  <r_i_glide_ecoul>  (147) 
-9.5265655517578107

>  <r_i_glide_eff_state_penalty>  (147) 
0.2944

>  <r_i_glide_einternal>  (147) 
2.4465310573577899

>  <r_i_glide_emodel>  (147) 
-51.333199884098903

>  <r_i_glide_energy>  (147) 
-41.092174530029297

>  <r_i_glide_erotb>  (147) 
0.66960487618683395

>  <r_i_glide_esite>  (147) 
0

>  <r_i_glide_evdw>  (147) 
-31.565608978271499

>  <r_i_glide_gscore>  (147) 
-3.86704819833477

>  <r_i_glide_hbond>  (147) 
-0.30399999999999999

>  <r_i_glide_ligand_efficiency>  (147) 
-0.10826206661620499

>  <r_i_glide_ligand_efficiency_ln>  (147) 
-0.79453846112728299

>  <r_i_glide_ligand_efficiency_sa>  (147) 
-0.34725429490304699

>  <r_i_glide_lipo>  (147) 
-0.89629776551756102

>  <r_i_glide_metal>  (147) 
-0

>  <r_i_glide_rewards>  (147) 
-0.32909002732679699

>  <r_lp_Energy>  (147) 
26.213673

>  <r_lp_tautomer_probability>  (147) 
0.999999999997365

>  <r_qp_ACxDN^.5/SA>  (147) 
0.012004000000000001

>  <r_qp_CIQPlogS>  (147) 
-6.6399999999999997

>  <r_qp_EA(eV)>  (147) 
0.79800000000000004

>  <r_qp_FISA>  (147) 
131.73699999999999

>  <r_qp_FOSA>  (147) 
123.34999999999999

>  <r_qp_IP(eV)>  (147) 
8.5709999999999997

>  <r_qp_Jm>  (147) 
0.0030085645586790701

>  <r_qp_PISA>  (147) 
363.73500000000001

>  <r_qp_PSA>  (147) 
75.171999999999997

>  <r_qp_PercentHumanOralAbsorption>  (147) 
93.081999999999994

>  <r_qp_QPPCaco>  (147) 
139.16900000000001

>  <r_qp_QPPMDCK>  (147) 
150.33699999999999

>  <r_qp_QPlogBB>  (147) 
-0.58499999999999996

>  <r_qp_QPlogHERG>  (147) 
-6.1429999999999998

>  <r_qp_QPlogKhsa>  (147) 
0.88600000000000001

>  <r_qp_QPlogKp>  (147) 
-3.8650000000000002

>  <r_qp_QPlogPC16>  (147) 
15.047000000000001

>  <r_qp_QPlogPo/w>  (147) 
4.7430000000000003

>  <r_qp_QPlogPoct>  (147) 
23.297000000000001

>  <r_qp_QPlogPw>  (147) 
11.849

>  <r_qp_QPlogS>  (147) 
-4.3179999999999996

>  <r_qp_QPpolrz>  (147) 
46.057000000000002

>  <r_qp_SASA>  (147) 
685.37300000000005

>  <r_qp_SAamideO>  (147) 
0

>  <r_qp_SAfluorine>  (147) 
29.673999999999999

>  <r_qp_WPSA>  (147) 
66.551000000000002

>  <r_qp_accptHB>  (147) 
4.75

>  <r_qp_dip^2/V>  (147) 
0.032664699999999998

>  <r_qp_dipole>  (147) 
6.6710000000000003

>  <r_qp_donorHB>  (147) 
3

>  <r_qp_glob>  (147) 
0.86710549999999997

>  <r_qp_mol_MW>  (147) 
458.54899999999998

>  <r_qp_volume>  (147) 
1362.232

>  <r_sd_BIOSOLVEIT.INFINISEE\_FTREES\_SIMILARITY>  (147) 
0.91000000000000003

>  <r_sd_BIOSOLVEIT.LOGP>  (147) 
4.2229000000000001

>  <r_sd_BIOSOLVEIT.MOLECULAR\_WEIGHT>  (147) 
459.56200000000001

>  <r_sd_BIOSOLVEIT.TPSA>  (147) 
68.180000000000007

>  <i_epik_Tot_Q>  (147) 
0

>  <i_epik_Tot_abs_Q>  (147) 
0

>  <i_f3d_flags>  (147) 
0

>  <i_i_glide_confnum>  (147) 
7

>  <i_i_glide_lignum>  (147) 
1220

>  <i_i_glide_posenum>  (147) 
10

>  <i_i_glide_rotatable_bonds>  (147) 
9

>  <i_lp_mmshare_version>  (147) 
65135

>  <i_m_ct_format>  (147) 
2

>  <i_m_source_file_index>  (147) 
2644

>  <i_qp_#NandO>  (147) 
4

>  <i_qp_#acid>  (147) 
0

>  <i_qp_#amide>  (147) 
0

>  <i_qp_#amidine>  (147) 
0

>  <i_qp_#amine>  (147) 
1

>  <i_qp_#in34>  (147) 
0

>  <i_qp_#in56>  (147) 
21

>  <i_qp_#metab>  (147) 
7

>  <i_qp_#nonHatm>  (147) 
33

>  <i_qp_#noncon>  (147) 
0

>  <i_qp_#ringatoms>  (147) 
21

>  <i_qp_#rotor>  (147) 
9

>  <i_qp_#rtvFG>  (147) 
0

>  <i_qp_#stars>  (147) 
0

>  <i_qp_CNS>  (147) 
0

>  <i_qp_HumanOralAbsorption>  (147) 
3

>  <i_qp_RuleOfFive>  (147) 
0

>  <i_qp_RuleOfThree>  (147) 
1

>  <i_sd_BIOSOLVEIT.INFINISEE\_RESULT\_RANK>  (147) 
45597

>  <i_sd_version>  (147) 
0

>  <b_lp_Chiralities_Consistent>  (147) 
1

>  <b_sd_chiral_flag>  (147) 
0

>  <canonical_id>  (147) 
ATP-HTVS-17D20C07D7F4

>  <compound_code>  (147) 
84579

>  <title>  (147) 
rxn503c____EMOL490868____EMOL49259969____EMOL313110234

>  <variant>  (147) 
84579-2

>  <source_file>  (147) 
运行/运行/ATP-VSW/ATP-VSW-DOCK_HTVS_1-003_lib/ATP-VSW-DOCK_HTVS_1-003_lib.mae

>  <canonical_smiles>  (147) 
CN(Cc1sc2ccccc2c1C#C[C@@H](N)Cc1cccc(F)c1)C(=O)c1ccc(O)cc1

>  <scaffold>  (147) 
O=C(NCc1sc2ccccc2c1C#CCCc1ccccc1)c1ccccc1

>  <molecular_formula>  (147) 
C27H23FN2O2S

$$$$
ATP-HTVS-17FF806DFA04
     RDKit          3D

 65 68  0  0  0  0  0  0  0  0999 V2000
  196.9834  181.0902  151.5997 F   0  0  0  0  0  0  0  0  0  0  0  0
  197.9133  180.1109  151.7110 C   0  0  0  0  0  0  0  0  0  0  0  0
  198.0039  179.1071  150.7157 C   0  0  0  0  0  0  0  0  0  0  0  0
  198.9746  178.0836  150.8654 C   0  0  0  0  0  0  0  0  0  0  0  0
  199.8490  178.0774  151.9671 C   0  0  0  0  0  0  0  0  0  0  0  0
  199.7678  179.0928  152.9330 C   0  0  0  0  0  0  0  0  0  0  0  0
  198.7883  180.1029  152.8284 C   0  0  0  0  0  0  0  0  0  0  0  0
  198.7243  181.1503  153.9013 C   0  0  0  0  0  0  0  0  0  0  0  0
  199.7598  181.6312  154.3661 O   0  0  0  0  0  0  0  0  0  0  0  0
  197.4951  181.4692  154.3379 N   0  0  0  0  0  0  0  0  0  0  0  0
  197.1996  182.2638  155.4777 C   0  0  0  0  0  0  0  0  0  0  0  0
  197.5747  183.6288  155.6116 C   0  0  0  0  0  0  0  0  0  0  0  0
  198.3054  184.2410  154.5831 N   0  0  0  0  0  0  0  0  0  0  0  0
  197.6156  185.2867  153.8473 C   0  0  1  0  0  0  0  0  0  0  0  0
  197.6010  185.0464  152.3555 C   0  0  0  0  0  0  0  0  0  0  0  0
  198.3444  185.8848  151.4992 C   0  0  0  0  0  0  0  0  0  0  0  0
  198.2785  185.7082  150.1035 C   0  0  0  0  0  0  0  0  0  0  0  0
  197.4813  184.6786  149.5559 C   0  0  0  0  0  0  0  0  0  0  0  0
  196.7471  183.8333  150.4156 C   0  0  0  0  0  0  0  0  0  0  0  0
  196.8029  184.0222  151.8105 C   0  0  0  0  0  0  0  0  0  0  0  0
  197.4108  184.4868  148.0518 C   0  0  1  0  0  0  0  0  0  0  0  0
  198.6942  184.0019  147.4853 N   0  0  2  0  0  0  0  0  0  0  0  0
  198.7102  184.0900  146.0083 C   0  0  2  0  0  0  0  0  0  0  0  0
  199.0885  182.6545  147.9649 C   0  0  2  0  0  0  0  0  0  0  0  0
  197.1759  184.3409  156.7753 C   0  0  0  0  0  0  0  0  0  0  0  0
  196.3904  183.6797  157.7593 C   0  0  0  0  0  0  0  0  0  0  0  0
  196.0549  182.3823  157.5713 N   0  0  0  0  0  0  0  0  0  0  0  0
  196.4159  181.6716  156.4859 C   0  0  0  0  0  0  0  0  0  0  0  0
  195.9644  184.3701  158.9177 C   0  0  0  0  0  0  0  0  0  0  0  0
  196.3272  185.7216  159.1064 C   0  0  0  0  0  0  0  0  0  0  0  0
  197.1125  186.3802  158.1413 C   0  0  0  0  0  0  0  0  0  0  0  0
  197.5406  185.6933  156.9903 C   0  0  0  0  0  0  0  0  0  0  0  0
  197.0780  179.1094  149.5412 C   0  0  0  0  0  0  0  0  0  0  0  0
  196.0797  179.8290  149.4449 O   0  0  0  0  0  0  0  0  0  0  0  0
  197.4551  178.2244  148.5976 O   0  0  0  0  0  0  0  0  0  0  0  0
  196.7141  178.1053  147.4008 C   0  0  2  0  0  0  0  0  0  0  0  0
  199.0559  177.2762  150.1542 H   0  0  0  0  0  0  0  0  0  0  0  0
  200.5732  177.2829  152.0694 H   0  0  0  0  0  0  0  0  0  0  0  0
  200.4473  179.0818  153.7770 H   0  0  0  0  0  0  0  0  0  0  0  0
  196.7194  180.9918  153.9025 H   0  0  0  0  0  0  0  0  0  0  0  0
  198.7415  183.5638  153.9707 H   0  0  0  0  0  0  0  0  0  0  0  0
  196.5809  185.4092  154.1759 H   0  0  0  0  0  0  0  0  0  0  0  0
  198.1199  186.2345  154.0382 H   0  0  0  0  0  0  0  0  0  0  0  0
  198.9452  186.6826  151.9118 H   0  0  0  0  0  0  0  0  0  0  0  0
  198.8400  186.3746  149.4624 H   0  0  0  0  0  0  0  0  0  0  0  0
  196.1306  183.0411  150.0146 H   0  0  0  0  0  0  0  0  0  0  0  0
  196.2161  183.3927  152.4651 H   0  0  0  0  0  0  0  0  0  0  0  0
  196.6088  183.7940  147.7950 H   0  0  0  0  0  0  0  0  0  0  0  0
  197.1461  185.4465  147.6061 H   0  0  0  0  0  0  0  0  0  0  0  0
  197.9521  183.4391  145.5700 H   0  0  0  0  0  0  0  0  0  0  0  0
  199.6817  183.7968  145.6078 H   0  0  0  0  0  0  0  0  0  0  0  0
  198.5144  185.1112  145.6778 H   0  0  0  0  0  0  0  0  0  0  0  0
  198.3501  181.9025  147.6872 H   0  0  0  0  0  0  0  0  0  0  0  0
  199.2046  182.6329  149.0497 H   0  0  0  0  0  0  0  0  0  0  0  0
  200.0466  182.3571  147.5339 H   0  0  0  0  0  0  0  0  0  0  0  0
  196.0676  180.6477  156.4489 H   0  0  0  0  0  0  0  0  0  0  0  0
  195.3628  183.8751  159.6651 H   0  0  0  0  0  0  0  0  0  0  0  0
  196.0114  186.2547  159.9950 H   0  0  0  0  0  0  0  0  0  0  0  0
  197.4014  187.4110  158.2878 H   0  0  0  0  0  0  0  0  0  0  0  0
  198.1593  186.2215  156.2800 H   0  0  0  0  0  0  0  0  0  0  0  0
  197.1603  177.3315  146.7794 H   0  0  0  0  0  0  0  0  0  0  0  0
  196.7456  179.0372  146.8415 H   0  0  0  0  0  0  0  0  0  0  0  0
  195.6720  177.8367  147.5884 H   0  0  0  0  0  0  0  0  0  0  0  0
  199.4070  184.6372  147.8164 H   0  0  0  0  0  0  0  0  0  0  0  0
  195.4823  181.9091  158.2672 H   0  0  0  0  0  0  0  0  0  0  0  0
  1  2  1  0
  2  3  2  0
  2  7  1  0
  3  4  1  0
  3 33  1  0
  4  5  2  0
  4 37  1  0
  5  6  1  0
  5 38  1  0
  6  7  2  0
  6 39  1  0
  7  8  1  0
  8  9  2  0
  8 10  1  0
 10 11  1  0
 10 40  1  0
 11 12  2  0
 11 28  1  0
 12 13  1  0
 12 25  1  0
 13 14  1  0
 13 41  1  0
 14 15  1  0
 14 42  1  1
 14 43  1  0
 15 16  1  0
 15 20  2  0
 16 17  2  0
 16 44  1  0
 17 18  1  0
 17 45  1  0
 18 19  2  0
 18 21  1  0
 19 20  1  0
 19 46  1  0
 20 47  1  0
 21 22  1  0
 21 48  1  1
 21 49  1  0
 22 23  1  0
 22 24  1  0
 22 64  1  1
 23 50  1  6
 23 51  1  0
 23 52  1  0
 24 53  1  1
 24 54  1  0
 24 55  1  0
 25 26  1  0
 25 32  2  0
 26 27  1  0
 26 29  2  0
 27 28  2  0
 27 65  1  0
 28 56  1  0
 29 30  1  0
 29 57  1  0
 30 31  2  0
 30 58  1  0
 31 32  1  0
 31 59  1  0
 32 60  1  0
 33 34  2  0
 33 35  1  0
 35 36  1  0
 36 61  1  6
 36 62  1  0
 36 63  1  0
M  CHG  2  22   1  27   1
M  END
>  <s_epik_Chemistry_Notes>  (148) 
This compound has an ester and may undergo hydrolysis at high or low pH.

>  <s_epik_cmdline>  (148) 
J2VwaWtfcHl0aG9uJywgJy1waCcsICc3LjAwMDAwMCcsICctcGh0JywgJzIuMDAwMDAwJywgJy1tcycsICcxNicsICctdG4nLCAnOCcsICctbWEnLCAnMjAwJywgJy1pbWFlJywgJzxpbmZpbGUubWFlPicsICctb21hZScsICc8b3V0ZmlsZS5tYWU+Jw==

>  <s_epik_input>  (148) 
W0NIM11PQyg9TyljKGMxRilbY0hdW2NIXVtjSF1jMUMoPU8pW05IXWMoW2NIXW5jKGMyMylbY0hdW2NIXVtjSF1bY0hdMyljMltOSF1bQ0gyXWM0W2NIXVtjSF1jKFtjSF1bY0hdNClbQ0gyXU4oW0NIM10pW0NIM10=

>  <s_i_glide_gridfile>  (148) 
ATP-Grid

>  <s_lp_Force_Field>  (148) 
OPLS_2005

>  <s_lp_Variant>  (148) 
rxn502b____EMOL43611080____EMOL30488121____EMOL50155899-1

>  <s_lp_label>  (148) 
2536_sdstereoexpander_1_neutralizer_1_epik_1_stereoizer_1

>  <s_m_source_file>  (148) 
ATP-VSW-LIGPREP-001-in.maegz

>  <s_sd_BIOSOLVEIT.INFINISEE\_QUERY\_NAME>  (148) 
Ref-Lig

>  <s_sd_BIOSOLVEIT.INFINISEE\_QUERY\_SMILES>  (148) 
S(c1nc2c(cc1C[NH2+]Cc3ccc(cc3)C[NH+](C)C)cccc2)Cc4ccccc4

>  <s_sd_BIOSOLVEIT.INFINISEE\_REACTION\_NAME>  (148) 
rxn502b

>  <s_sd_BIOSOLVEIT.INFINISEE\_REAGENT1\_NAME>  (148) 
EMOL43611080

>  <s_sd_BIOSOLVEIT.INFINISEE\_REAGENT1\_SMILES>  (148) 
Fc1c(cccc1C(=O)O)C(=O)OC

>  <s_sd_BIOSOLVEIT.INFINISEE\_REAGENT2\_NAME>  (148) 
EMOL30488121

>  <s_sd_BIOSOLVEIT.INFINISEE\_REAGENT2\_SMILES>  (148) 
Brc1c(N)cnc2c1cccc2

>  <s_sd_BIOSOLVEIT.INFINISEE\_REAGENT3\_NAME>  (148) 
EMOL50155899

>  <s_sd_BIOSOLVEIT.INFINISEE\_REAGENT3\_SMILES>  (148) 
N(Cc1ccc(cc1)CN)(C)C

>  <s_sd_BIOSOLVEIT.INFINISEE\_SPACE>  (148) 
eXplore_7tr_2022-12

>  <s_vsw_compound_code>  (148) 
81121

>  <s_vsw_variant>  (148) 
81121-1

>  <r_epik_Charging_Adjusted_Penalty>  (148) 
0.235705393499727

>  <r_epik_Ionization_Penalty>  (148) 
0.1206

>  <r_epik_Ionization_Penalty_Charging>  (148) 
0.1203

>  <r_epik_Ionization_Penalty_Neutral>  (148) 
0.00029999999999999997

>  <r_epik_State_Penalty>  (148) 
0.1154

>  <r_i_docking_score>  (148) 
-4.5308605042701098

>  <r_i_glide_ecoul>  (148) 
-7.28476810455322

>  <r_i_glide_eff_state_penalty>  (148) 
0.1154

>  <r_i_glide_einternal>  (148) 
7.8800606727600098

>  <r_i_glide_emodel>  (148) 
-59.277300857159901

>  <r_i_glide_energy>  (148) 
-43.804955482482903

>  <r_i_glide_erotb>  (148) 
0.68164520070307799

>  <r_i_glide_esite>  (148) 
-0.092089901230133303

>  <r_i_glide_evdw>  (148) 
-36.520187377929702

>  <r_i_glide_gscore>  (148) 
-4.6462605042701099

>  <r_i_glide_hbond>  (148) 
0

>  <r_i_glide_ligand_efficiency>  (148) 
-0.125857236229725

>  <r_i_glide_ligand_efficiency_ln>  (148) 
-0.98851135232709697

>  <r_i_glide_ligand_efficiency_sa>  (148) 
-0.41557143728109502

>  <r_i_glide_lipo>  (148) 
-1.7634763864943901

>  <r_i_glide_metal>  (148) 
-0

>  <r_i_glide_rewards>  (148) 
-0.55361483266919598

>  <r_lp_Energy>  (148) 
40.080222999999997

>  <r_qp_ACxDN^.5/SA>  (148) 
0.016337500000000001

>  <r_qp_CIQPlogS>  (148) 
-5.9279999999999999

>  <r_qp_EA(eV)>  (148) 
1.2070000000000001

>  <r_qp_FISA>  (148) 
114.61

>  <r_qp_FOSA>  (148) 
232.08500000000001

>  <r_qp_IP(eV)>  (148) 
8.5760000000000005

>  <r_qp_Jm>  (148) 
0.0104834305971884

>  <r_qp_PISA>  (148) 
377.245

>  <r_qp_PSA>  (148) 
92.555000000000007

>  <r_qp_PercentHumanOralAbsorption>  (148) 
90.242999999999995

>  <r_qp_QPPCaco>  (148) 
202.28200000000001

>  <r_qp_QPPMDCK>  (148) 
112.959

>  <r_qp_QPlogBB>  (148) 
-0.59099999999999997

>  <r_qp_QPlogHERG>  (148) 
-6.7530000000000001

>  <r_qp_QPlogKhsa>  (148) 
0.48799999999999999

>  <r_qp_QPlogKp>  (148) 
-3.597

>  <r_qp_QPlogPC16>  (148) 
15.254

>  <r_qp_QPlogPo/w>  (148) 
3.762

>  <r_qp_QPlogPoct>  (148) 
24.562000000000001

>  <r_qp_QPlogPw>  (148) 
14.377000000000001

>  <r_qp_QPlogS>  (148) 
-4.069

>  <r_qp_QPpolrz>  (148) 
49.448999999999998

>  <r_qp_SASA>  (148) 
735.78099999999995

>  <r_qp_SAamideO>  (148) 
0

>  <r_qp_SAfluorine>  (148) 
11.842000000000001

>  <r_qp_WPSA>  (148) 
11.842000000000001

>  <r_qp_accptHB>  (148) 
8.5

>  <r_qp_dip^2/V>  (148) 
0.026608300000000001

>  <r_qp_dipole>  (148) 
6.1639999999999997

>  <r_qp_donorHB>  (148) 
2

>  <r_qp_glob>  (148) 
0.83338480000000004

>  <r_qp_mol_MW>  (148) 
486.54500000000002

>  <r_qp_volume>  (148) 
1427.723

>  <r_sd_BIOSOLVEIT.INFINISEE\_FTREES\_SIMILARITY>  (148) 
0.91300000000000003

>  <r_sd_BIOSOLVEIT.LOGP>  (148) 
3.6694

>  <r_sd_BIOSOLVEIT.MOLECULAR\_WEIGHT>  (148) 
487.55200000000002

>  <r_sd_BIOSOLVEIT.TPSA>  (148) 
84.760000000000005

>  <i_epik_Tot_Q>  (148) 
2

>  <i_epik_Tot_abs_Q>  (148) 
2

>  <i_f3d_flags>  (148) 
0

>  <i_i_glide_confnum>  (148) 
4

>  <i_i_glide_lignum>  (148) 
1011

>  <i_i_glide_posenum>  (148) 
10

>  <i_i_glide_rotatable_bonds>  (148) 
10

>  <i_lp_mmshare_version>  (148) 
65135

>  <i_m_ct_format>  (148) 
2

>  <i_m_source_file_index>  (148) 
2536

>  <i_qp_#NandO>  (148) 
7

>  <i_qp_#acid>  (148) 
0

>  <i_qp_#amide>  (148) 
0

>  <i_qp_#amidine>  (148) 
0

>  <i_qp_#amine>  (148) 
1

>  <i_qp_#in34>  (148) 
0

>  <i_qp_#in56>  (148) 
22

>  <i_qp_#metab>  (148) 
6

>  <i_qp_#nonHatm>  (148) 
36

>  <i_qp_#noncon>  (148) 
0

>  <i_qp_#ringatoms>  (148) 
22

>  <i_qp_#rotor>  (148) 
8

>  <i_qp_#rtvFG>  (148) 
1

>  <i_qp_#stars>  (148) 
0

>  <i_qp_CNS>  (148) 
1

>  <i_qp_HumanOralAbsorption>  (148) 
3

>  <i_qp_RuleOfFive>  (148) 
0

>  <i_qp_RuleOfThree>  (148) 
0

>  <i_sd_BIOSOLVEIT.INFINISEE\_RESULT\_RANK>  (148) 
34114

>  <i_sd_version>  (148) 
0

>  <b_lp_Chiralities_Consistent>  (148) 
1

>  <b_sd_chiral_flag>  (148) 
0

>  <canonical_id>  (148) 
ATP-HTVS-17FF806DFA04

>  <compound_code>  (148) 
81121

>  <title>  (148) 
rxn502b____EMOL43611080____EMOL30488121____EMOL50155899

>  <variant>  (148) 
81121-1

>  <source_file>  (148) 
运行/运行/ATP-VSW/ATP-VSW-DOCK_HTVS_1-001_lib/ATP-VSW-DOCK_HTVS_1-001_lib

>  <canonical_smiles>  (148) 
COC(=O)c1cccc(C(=O)Nc2c[nH+]c3ccccc3c2NCc2ccc(C[NH+](C)C)cc2)c1F

>  <scaffold>  (148) 
O=C(Nc1c[nH+]c2ccccc2c1NCc1ccccc1)c1ccccc1

>  <molecular_formula>  (148) 
C28H29FN4O3+2

$$$$
ATP-HTVS-18044BD9974D
     RDKit          3D

 65 69  0  0  0  0  0  0  0  0999 V2000
  196.9484  183.8370  149.8483 O   0  0  0  0  0  0  0  0  0  0  0  0
  197.9899  184.3470  150.5271 C   0  0  0  0  0  0  0  0  0  0  0  0
  198.6053  185.3408  149.7995 C   0  0  0  0  0  0  0  0  0  0  0  0
  197.9471  185.4838  148.6246 O   0  0  0  0  0  0  0  0  0  0  0  0
  196.8981  184.5333  148.6412 C   0  0  1  0  0  0  0  0  0  0  0  0
  199.7353  185.9733  150.3605 C   0  0  0  0  0  0  0  0  0  0  0  0
  200.2442  185.5975  151.6504 C   0  0  0  0  0  0  0  0  0  0  0  0
  199.5638  184.5513  152.3801 C   0  0  0  0  0  0  0  0  0  0  0  0
  198.4112  183.9280  151.8006 C   0  0  0  0  0  0  0  0  0  0  0  0
  200.0638  184.0652  153.7474 C   0  0  1  0  0  0  0  0  0  0  0  0
  199.4662  184.7045  154.9218 N   0  0  0  0  0  0  0  0  0  0  0  0
  198.5344  184.0841  155.7708 C   0  0  0  0  0  0  0  0  0  0  0  0
  198.1447  182.8568  155.5182 N   0  0  0  0  0  0  0  0  0  0  0  0
  197.1574  182.2661  156.2062 C   0  0  0  0  0  0  0  0  0  0  0  0
  196.6393  181.0182  155.7921 N   0  0  0  0  0  0  0  0  0  0  0  0
  196.9874  180.3623  154.5235 C   0  0  1  0  0  0  0  0  0  0  0  0
  196.8264  181.2768  153.3203 C   0  0  1  0  0  0  0  0  0  0  0  0
  197.2452  180.6616  152.0049 C   0  0  0  0  0  0  0  0  0  0  0  0
  198.5919  180.7161  151.5613 C   0  0  0  0  0  0  0  0  0  0  0  0
  198.9460  180.1572  150.3176 C   0  0  0  0  0  0  0  0  0  0  0  0
  197.9475  179.5446  149.5266 C   0  0  0  0  0  0  0  0  0  0  0  0
  196.6013  179.5572  149.9490 C   0  0  0  0  0  0  0  0  0  0  0  0
  196.2542  180.1257  151.1812 C   0  0  0  0  0  0  0  0  0  0  0  0
  198.3012  178.8383  148.2429 C   0  0  1  0  0  0  0  0  0  0  0  0
  198.2171  177.3630  148.3833 N   0  0  2  0  0  0  0  0  0  0  0  0
  199.1070  176.8033  149.4299 C   0  0  2  0  0  0  0  0  0  0  0  0
  198.4073  176.6855  147.0842 C   0  0  2  0  0  0  0  0  0  0  0  0
  196.5954  182.9804  157.3182 C   0  0  0  0  0  0  0  0  0  0  0  0
  197.0935  184.2597  157.5948 C   0  0  0  0  0  0  0  0  0  0  0  0
  198.0493  184.8114  156.8077 N   0  0  0  0  0  0  0  0  0  0  0  0
  196.6305  184.9810  158.7185 C   0  0  0  0  0  0  0  0  0  0  0  0
  195.6387  184.4064  159.5415 C   0  0  0  0  0  0  0  0  0  0  0  0
  195.0996  183.1474  159.2381 C   0  0  0  0  0  0  0  0  0  0  0  0
  195.5537  182.4174  158.1187 C   0  0  0  0  0  0  0  0  0  0  0  0
  196.9959  183.8214  147.8155 H   0  0  0  0  0  0  0  0  0  0  0  0
  195.9350  185.0401  148.5890 H   0  0  0  0  0  0  0  0  0  0  0  0
  200.2401  186.7638  149.7884 H   0  0  0  0  0  0  0  0  0  0  0  0
  201.1170  186.0633  152.0800 H   0  0  0  0  0  0  0  0  0  0  0  0
  197.8177  183.2077  152.2013 H   0  0  0  0  0  0  0  0  0  0  0  0
  199.9872  182.9730  153.8072 H   0  0  0  0  0  0  0  0  0  0  0  0
  201.1376  184.2390  153.8058 H   0  0  0  0  0  0  0  0  0  0  0  0
  199.8035  185.6186  155.1670 H   0  0  0  0  0  0  0  0  0  0  0  0
  196.1675  180.4336  156.4658 H   0  0  0  0  0  0  0  0  0  0  0  0
  198.0379  180.0585  154.5798 H   0  0  0  0  0  0  0  0  0  0  0  0
  196.3751  179.4677  154.3613 H   0  0  0  0  0  0  0  0  0  0  0  0
  195.8694  181.8314  153.2562 H   0  0  0  0  0  0  0  0  0  0  0  0
  197.6296  181.9390  153.4833 H   0  0  0  0  0  0  0  0  0  0  0  0
  199.3685  181.2088  152.1384 H   0  0  0  0  0  0  0  0  0  0  0  0
  199.9800  180.1708  149.9887 H   0  0  0  0  0  0  0  0  0  0  0  0
  195.8118  179.0938  149.3740 H   0  0  0  0  0  0  0  0  0  0  0  0
  195.2344  180.1739  151.5344 H   0  0  0  0  0  0  0  0  0  0  0  0
  197.6032  179.1794  147.4766 H   0  0  0  0  0  0  0  0  0  0  0  0
  199.2996  179.1333  147.9267 H   0  0  0  0  0  0  0  0  0  0  0  0
  200.1541  177.0023  149.1976 H   0  0  0  0  0  0  0  0  0  0  0  0
  198.9742  175.7234  149.5127 H   0  0  0  0  0  0  0  0  0  0  0  0
  198.8906  177.2229  150.4125 H   0  0  0  0  0  0  0  0  0  0  0  0
  199.4064  176.8676  146.6860 H   0  0  0  0  0  0  0  0  0  0  0  0
  197.6779  177.0368  146.3523 H   0  0  0  0  0  0  0  0  0  0  0  0
  198.2828  175.6084  147.1936 H   0  0  0  0  0  0  0  0  0  0  0  0
  197.0509  185.9585  158.9360 H   0  0  0  0  0  0  0  0  0  0  0  0
  195.2950  184.9633  160.4025 H   0  0  0  0  0  0  0  0  0  0  0  0
  194.3430  182.7136  159.8635 H   0  0  0  0  0  0  0  0  0  0  0  0
  195.1318  181.4473  157.9077 H   0  0  0  0  0  0  0  0  0  0  0  0
  198.3810  185.7669  157.0337 H   0  0  0  0  0  0  0  0  0  0  0  0
  197.2714  177.1541  148.6719 H   0  0  0  0  0  0  0  0  0  0  0  0
  1  2  1  0
  1  5  1  0
  2  3  2  0
  2  9  1  0
  3  4  1  0
  3  6  1  0
  4  5  1  0
  5 35  1  6
  5 36  1  0
  6  7  2  0
  6 37  1  0
  7  8  1  0
  7 38  1  0
  8  9  2  0
  8 10  1  0
  9 39  1  0
 10 11  1  0
 10 40  1  1
 10 41  1  0
 11 12  1  0
 11 42  1  0
 12 13  1  0
 12 30  2  0
 13 14  2  0
 14 15  1  0
 14 28  1  0
 15 16  1  0
 15 43  1  0
 16 17  1  0
 16 44  1  1
 16 45  1  0
 17 18  1  0
 17 46  1  6
 17 47  1  0
 18 19  1  0
 18 23  2  0
 19 20  2  0
 19 48  1  0
 20 21  1  0
 20 49  1  0
 21 22  2  0
 21 24  1  0
 22 23  1  0
 22 50  1  0
 23 51  1  0
 24 25  1  0
 24 52  1  6
 24 53  1  0
 25 26  1  0
 25 27  1  0
 25 65  1  1
 26 54  1  6
 26 55  1  0
 26 56  1  0
 27 57  1  6
 27 58  1  0
 27 59  1  0
 28 29  1  0
 28 34  2  0
 29 30  1  0
 29 31  2  0
 30 64  1  0
 31 32  1  0
 31 60  1  0
 32 33  2  0
 32 61  1  0
 33 34  1  0
 33 62  1  0
 34 63  1  0
M  CHG  2  25   1  30   1
M  END
>  <s_epik_Chemistry_Notes>  (149) 
This compound contains an acetal/aminal-like group ( X-CH(R)-Y where X, Y are N, S, or O) that may be acid/base labile, releasing an aldehyde.

>  <s_epik_cmdline>  (149) 
J2VwaWtfcHl0aG9uJywgJy1waCcsICc3LjAwMDAwMCcsICctcGh0JywgJzIuMDAwMDAwJywgJy1tcycsICcxNicsICctdG4nLCAnOCcsICctbWEnLCAnMjAwJywgJy1pbWFlJywgJzxpbmZpbGUubWFlPicsICctb21hZScsICc8b3V0ZmlsZS5tYWU+Jw==

>  <s_epik_input>  (149) 
TzFbQ0gyXU9jKGMxMilbY0hdW2NIXWMoW2NIXTIpW0NIMl1bTkhdYyhuYyhjMzQpW2NIXVtjSF1bY0hdW2NIXTQpbmMzW05IXVtDSDJdW0NIMl1jNVtjSF1bY0hdYyhbY0hdW2NIXTUpW0NIMl1OKFtDSDNdKVtDSDNd

>  <s_i_glide_gridfile>  (149) 
ATP-Grid

>  <s_lp_Force_Field>  (149) 
OPLS_2005

>  <s_lp_Variant>  (149) 
m_282030aaa____21931302____22360182____21967972-1

>  <s_lp_label>  (149) 
2021_sdstereoexpander_1_neutralizer_1_epik_1_stereoizer_1

>  <s_m_source_file>  (149) 
ATP-VSW-LIGPREP-003-in.maegz

>  <s_sd_BIOSOLVEIT.INFINISEE\_QUERY\_NAME>  (149) 
Ref-Lig

>  <s_sd_BIOSOLVEIT.INFINISEE\_QUERY\_SMILES>  (149) 
S(c1nc2c(cc1C[NH2+]Cc3ccc(cc3)C[NH+](C)C)cccc2)Cc4ccccc4

>  <s_sd_BIOSOLVEIT.INFINISEE\_REACTION\_NAME>  (149) 
m_282030aaa

>  <s_sd_BIOSOLVEIT.INFINISEE\_REAGENT1\_SMILES>  (149) 
[R1*]NCc1cc2OCOc2cc1

>  <s_sd_BIOSOLVEIT.INFINISEE\_REAGENT2\_SMILES>  (149) 
[R2*]c1nc([R1*])c2c(n1)cccc2

>  <s_sd_BIOSOLVEIT.INFINISEE\_REAGENT3\_SMILES>  (149) 
[R2*]NCCc1ccc(cc1)CN(C)C

>  <s_sd_BIOSOLVEIT.INFINISEE\_SPACE>  (149) 
REALSpace_44bn_2023-08

>  <s_vsw_compound_code>  (149) 
64643

>  <s_vsw_variant>  (149) 
64643-1

>  <r_epik_Charging_Adjusted_Penalty>  (149) 
0.11445427068207099

>  <r_epik_Ionization_Penalty>  (149) 
0.054600000000000003

>  <r_epik_Ionization_Penalty_Charging>  (149) 
0.054600000000000003

>  <r_epik_Ionization_Penalty_Neutral>  (149) 
0

>  <r_epik_State_Penalty>  (149) 
0.059900000000000002

>  <r_i_docking_score>  (149) 
-4.0211309519204397

>  <r_i_glide_ecoul>  (149) 
-7.5974469184875497

>  <r_i_glide_eff_state_penalty>  (149) 
0.059900000000000002

>  <r_i_glide_einternal>  (149) 
3.3468115329742401

>  <r_i_glide_emodel>  (149) 
-55.326360645703403

>  <r_i_glide_energy>  (149) 
-40.593780994415297

>  <r_i_glide_erotb>  (149) 
0.76825204797734503

>  <r_i_glide_esite>  (149) 
-0.090051212045853105

>  <r_i_glide_evdw>  (149) 
-32.996334075927699

>  <r_i_glide_gscore>  (149) 
-4.0810309519204404

>  <r_i_glide_hbond>  (149) 
-0.16

>  <r_i_glide_ligand_efficiency>  (149) 
-0.118268557409425

>  <r_i_glide_ligand_efficiency_ln>  (149) 
-0.88838061618201203

>  <r_i_glide_ligand_efficiency_sa>  (149) 
-0.38314421385326802

>  <r_i_glide_lipo>  (149) 
-1.31376628335042

>  <r_i_glide_metal>  (149) 
-0

>  <r_i_glide_rewards>  (149) 
-0.49603176293198997

>  <r_lp_Energy>  (149) 
24.455518000000001

>  <r_lp_tautomer_probability>  (149) 
1

>  <r_qp_ACxDN^.5/SA>  (149) 
0.012970799999999999

>  <r_qp_CIQPlogS>  (149) 
-6.2009999999999996

>  <r_qp_EA(eV)>  (149) 
0.55800000000000005

>  <r_qp_FISA>  (149) 
44.706000000000003

>  <r_qp_FOSA>  (149) 
276.39999999999998

>  <r_qp_IP(eV)>  (149) 
7.9960000000000004

>  <r_qp_Jm>  (149) 
0.26893659345041399

>  <r_qp_PISA>  (149) 
387.59399999999999

>  <r_qp_PSA>  (149) 
64.332999999999998

>  <r_qp_PercentHumanOralAbsorption>  (149) 
100

>  <r_qp_QPPCaco>  (149) 
930.79700000000003

>  <r_qp_QPPMDCK>  (149) 
506.48399999999998

>  <r_qp_QPlogBB>  (149) 
-0

>  <r_qp_QPlogHERG>  (149) 
-6.657

>  <r_qp_QPlogKhsa>  (149) 
0.67200000000000004

>  <r_qp_QPlogKp>  (149) 
-2.177

>  <r_qp_QPlogPC16>  (149) 
14.404

>  <r_qp_QPlogPo/w>  (149) 
4.6710000000000003

>  <r_qp_QPlogPoct>  (149) 
21.783999999999999

>  <r_qp_QPlogPw>  (149) 
11.712

>  <r_qp_QPlogS>  (149) 
-4.0519999999999996

>  <r_qp_QPpolrz>  (149) 
46.659999999999997

>  <r_qp_SASA>  (149) 
708.70100000000002

>  <r_qp_SAamideO>  (149) 
0

>  <r_qp_SAfluorine>  (149) 
0

>  <r_qp_WPSA>  (149) 
0

>  <r_qp_accptHB>  (149) 
6.5

>  <r_qp_dip^2/V>  (149) 
0.0038092

>  <r_qp_dipole>  (149) 
2.286

>  <r_qp_donorHB>  (149) 
2

>  <r_qp_glob>  (149) 
0.84240219999999999

>  <r_qp_mol_MW>  (149) 
455.55799999999999

>  <r_qp_volume>  (149) 
1371.595

>  <r_sd_BIOSOLVEIT.INFINISEE\_FTREES\_SIMILARITY>  (149) 
0.90200000000000002

>  <r_sd_BIOSOLVEIT.LOGP>  (149) 
3.2696999999999998

>  <r_sd_BIOSOLVEIT.MOLECULAR\_WEIGHT>  (149) 
456.56700000000001

>  <r_sd_BIOSOLVEIT.TPSA>  (149) 
72.739999999999995

>  <i_epik_Tot_Q>  (149) 
2

>  <i_epik_Tot_abs_Q>  (149) 
2

>  <i_f3d_flags>  (149) 
0

>  <i_i_glide_confnum>  (149) 
10

>  <i_i_glide_lignum>  (149) 
758

>  <i_i_glide_posenum>  (149) 
8

>  <i_i_glide_rotatable_bonds>  (149) 
9

>  <i_lp_mmshare_version>  (149) 
65135

>  <i_m_ct_format>  (149) 
2

>  <i_m_source_file_index>  (149) 
2021

>  <i_qp_#NandO>  (149) 
7

>  <i_qp_#acid>  (149) 
0

>  <i_qp_#amide>  (149) 
0

>  <i_qp_#amidine>  (149) 
0

>  <i_qp_#amine>  (149) 
1

>  <i_qp_#in34>  (149) 
0

>  <i_qp_#in56>  (149) 
25

>  <i_qp_#metab>  (149) 
5

>  <i_qp_#nonHatm>  (149) 
34

>  <i_qp_#noncon>  (149) 
1

>  <i_qp_#ringatoms>  (149) 
25

>  <i_qp_#rotor>  (149) 
9

>  <i_qp_#rtvFG>  (149) 
1

>  <i_qp_#stars>  (149) 
0

>  <i_qp_CNS>  (149) 
1

>  <i_qp_HumanOralAbsorption>  (149) 
3

>  <i_qp_RuleOfFive>  (149) 
0

>  <i_qp_RuleOfThree>  (149) 
0

>  <i_sd_BIOSOLVEIT.INFINISEE\_REAGENT1\_NAME>  (149) 
21931302

>  <i_sd_BIOSOLVEIT.INFINISEE\_REAGENT2\_NAME>  (149) 
22360182

>  <i_sd_BIOSOLVEIT.INFINISEE\_REAGENT3\_NAME>  (149) 
21967972

>  <i_sd_BIOSOLVEIT.INFINISEE\_RESULT\_RANK>  (149) 
92325

>  <i_sd_version>  (149) 
0

>  <b_lp_Chiralities_Consistent>  (149) 
1

>  <b_sd_chiral_flag>  (149) 
0

>  <canonical_id>  (149) 
ATP-HTVS-18044BD9974D

>  <compound_code>  (149) 
64643

>  <title>  (149) 
m_282030aaa____21931302____22360182____21967972

>  <variant>  (149) 
64643-1

>  <source_file>  (149) 
运行/运行/ATP-VSW/ATP-VSW-DOCK_HTVS_1-003_lib/ATP-VSW-DOCK_HTVS_1-003_lib.mae

>  <canonical_smiles>  (149) 
C[NH+](C)Cc1ccc(CCNc2nc(NCc3ccc4c(c3)OCO4)[nH+]c3ccccc23)cc1

>  <scaffold>  (149) 
c1ccc(CCNc2nc(NCc3ccc4c(c3)OCO4)[nH+]c3ccccc23)cc1

>  <molecular_formula>  (149) 
C27H31N5O2+2

$$$$
ATP-HTVS-1817E5512E7A
     RDKit          3D

 64 67  0  0  0  0  0  0  0  0999 V2000
  196.5657  181.8810  150.9268 O   0  0  0  0  0  0  0  0  0  0  0  0
  197.6380  181.3312  151.1734 C   0  0  0  0  0  0  0  0  0  0  0  0
  198.6574  181.8801  151.8691 N   0  0  0  0  0  0  0  0  0  0  0  0
  198.7172  183.0967  152.6147 C   0  0  0  0  0  0  0  0  0  0  0  0
  197.7148  184.0058  152.5994 N   0  0  0  0  0  0  0  0  0  0  0  0
  197.8116  185.1269  153.3326 C   0  0  0  0  0  0  0  0  0  0  0  0
  198.9216  185.4476  154.1501 C   0  0  0  0  0  0  0  0  0  0  0  0
  198.9054  186.6320  154.9254 N   0  0  0  0  0  0  0  0  0  0  0  0
  198.9827  186.5771  156.3986 C   0  0  1  0  0  0  0  0  0  0  0  0
  198.2570  185.4474  157.1351 C   0  0  0  0  0  0  0  0  0  0  0  0
  198.6337  185.0870  158.4509 C   0  0  0  0  0  0  0  0  0  0  0  0
  197.9487  184.0635  159.1443 C   0  0  0  0  0  0  0  0  0  0  0  0
  196.8914  183.3649  158.5193 C   0  0  0  0  0  0  0  0  0  0  0  0
  196.1639  182.4124  159.2477 N   0  0  0  0  0  0  0  0  0  0  0  0
  195.0738  181.6876  158.6034 C   0  0  1  0  0  0  0  0  0  0  0  0
  193.8038  182.5459  158.3930 C   0  0  1  0  0  0  0  0  0  0  0  0
  192.8214  181.7986  157.7299 O   0  0  0  0  0  0  0  0  0  0  0  0
  196.5689  183.6873  157.1831 C   0  0  0  0  0  0  0  0  0  0  0  0
  197.1848  184.7610  156.5309 C   0  0  0  0  0  0  0  0  0  0  0  0
  199.9894  184.5186  154.1593 C   0  0  0  0  0  0  0  0  0  0  0  0
  199.8973  183.3186  153.3882 C   0  0  0  0  0  0  0  0  0  0  0  0
  200.9803  182.3951  153.4090 C   0  0  0  0  0  0  0  0  0  0  0  0
  202.1306  182.6548  154.1827 C   0  0  0  0  0  0  0  0  0  0  0  0
  202.2114  183.8373  154.9372 C   0  0  0  0  0  0  0  0  0  0  0  0
  201.1674  184.7693  154.9092 C   0  0  0  0  0  0  0  0  0  0  0  0
  197.9340  179.9602  150.6190 C   0  0  0  0  0  0  0  0  0  0  0  0
  197.2830  179.5199  149.4424 C   0  0  0  0  0  0  0  0  0  0  0  0
  197.5332  178.2330  148.9224 C   0  0  0  0  0  0  0  0  0  0  0  0
  198.4285  177.3641  149.5751 C   0  0  0  0  0  0  0  0  0  0  0  0
  199.0702  177.7886  150.7559 C   0  0  0  0  0  0  0  0  0  0  0  0
  198.8197  179.0746  151.2762 C   0  0  0  0  0  0  0  0  0  0  0  0
  198.6926  175.9787  149.0125 C   0  0  1  0  0  0  0  0  0  0  0  0
  199.4501  176.0228  147.6744 C   0  0  1  0  0  0  0  0  0  0  0  0
  199.7711  174.6286  147.1227 C   0  0  2  0  0  0  0  0  0  0  0  0
  199.4908  181.3179  151.9059 H   0  0  0  0  0  0  0  0  0  0  0  0
  196.9449  185.7685  153.3080 H   0  0  0  0  0  0  0  0  0  0  0  0
  198.3488  187.3936  154.5579 H   0  0  0  0  0  0  0  0  0  0  0  0
  200.0253  186.5578  156.7132 H   0  0  0  0  0  0  0  0  0  0  0  0
  198.5779  187.5169  156.7810 H   0  0  0  0  0  0  0  0  0  0  0  0
  199.4382  185.6111  158.9501 H   0  0  0  0  0  0  0  0  0  0  0  0
  198.2126  183.8247  160.1740 H   0  0  0  0  0  0  0  0  0  0  0  0
  196.6057  181.9580  160.0453 H   0  0  0  0  0  0  0  0  0  0  0  0
  195.4073  181.2825  157.6388 H   0  0  0  0  0  0  0  0  0  0  0  0
  194.8372  180.8257  159.2276 H   0  0  0  0  0  0  0  0  0  0  0  0
  193.4457  182.9450  159.3303 H   0  0  0  0  0  0  0  0  0  0  0  0
  193.9910  183.4280  157.7839 H   0  0  0  0  0  0  0  0  0  0  0  0
  192.9683  181.9892  156.7640 H   0  0  0  0  0  0  0  0  0  0  0  0
  195.8005  183.1641  156.6340 H   0  0  0  0  0  0  0  0  0  0  0  0
  196.7976  185.0281  155.5617 H   0  0  0  0  0  0  0  0  0  0  0  0
  200.9687  181.4810  152.8242 H   0  0  0  0  0  0  0  0  0  0  0  0
  202.9572  181.9650  154.1732 H   0  0  0  0  0  0  0  0  0  0  0  0
  203.0854  184.0461  155.5298 H   0  0  0  0  0  0  0  0  0  0  0  0
  201.2737  185.6865  155.4620 H   0  0  0  0  0  0  0  0  0  0  0  0
  196.5877  180.1710  148.9333 H   0  0  0  0  0  0  0  0  0  0  0  0
  197.0261  177.9158  148.0229 H   0  0  0  0  0  0  0  0  0  0  0  0
  199.7546  177.1311  151.2722 H   0  0  0  0  0  0  0  0  0  0  0  0
  199.3176  179.3583  152.1941 H   0  0  0  0  0  0  0  0  0  0  0  0
  199.2562  175.3898  149.7364 H   0  0  0  0  0  0  0  0  0  0  0  0
  197.7375  175.4691  148.8855 H   0  0  0  0  0  0  0  0  0  0  0  0
  198.8631  176.5691  146.9360 H   0  0  0  0  0  0  0  0  0  0  0  0
  200.3794  176.5769  147.7998 H   0  0  0  0  0  0  0  0  0  0  0  0
  200.2620  174.7024  146.1512 H   0  0  0  0  0  0  0  0  0  0  0  0
  198.8651  174.0388  146.9926 H   0  0  0  0  0  0  0  0  0  0  0  0
  200.4351  174.0816  147.7914 H   0  0  0  0  0  0  0  0  0  0  0  0
  1  2  2  0
  2  3  1  0
  2 26  1  0
  3  4  1  0
  3 35  1  0
  4  5  1  0
  4 21  2  0
  5  6  2  0
  6  7  1  0
  6 36  1  0
  7  8  1  0
  7 20  2  0
  8  9  1  0
  8 37  1  0
  9 10  1  0
  9 38  1  6
  9 39  1  0
 10 11  1  0
 10 19  2  0
 11 12  2  0
 11 40  1  0
 12 13  1  0
 12 41  1  0
 13 14  1  0
 13 18  2  0
 14 15  1  0
 14 42  1  0
 15 16  1  0
 15 43  1  6
 15 44  1  0
 16 17  1  0
 16 45  1  1
 16 46  1  0
 17 47  1  0
 18 19  1  0
 18 48  1  0
 19 49  1  0
 20 21  1  0
 20 25  1  0
 21 22  1  0
 22 23  2  0
 22 50  1  0
 23 24  1  0
 23 51  1  0
 24 25  2  0
 24 52  1  0
 25 53  1  0
 26 27  1  0
 26 31  2  0
 27 28  2  0
 27 54  1  0
 28 29  1  0
 28 55  1  0
 29 30  2  0
 29 32  1  0
 30 31  1  0
 30 56  1  0
 31 57  1  0
 32 33  1  0
 32 58  1  1
 32 59  1  0
 33 34  1  0
 33 60  1  6
 33 61  1  0
 34 62  1  6
 34 63  1  0
 34 64  1  0
M  END
>  <s_epik_cmdline>  (150) 
J2VwaWtfcHl0aG9uJywgJy1waCcsICc3LjAwMDAwMCcsICctcGh0JywgJzIuMDAwMDAwJywgJy1tcycsICcxNicsICctdG4nLCAnOCcsICctbWEnLCAnMjAwJywgJy1pbWFlJywgJzxpbmZpbGUubWFlPicsICctb21hZScsICc8b3V0ZmlsZS5tYWU+Jw==

>  <s_epik_input>  (150) 
W0NIM11bQ0gyXVtDSDJdYyhbY0hdW2NIXTEpW2NIXVtjSF1jMUMoPU8pW05IXWMoYyhjMjMpW2NIXVtjSF1bY0hdW2NIXTMpbltjSF1jMltOSF1bQ0gyXWM0W2NIXVtjSF1jKFtjSF1bY0hdNClbTkhdW0NIMl1bQ0gyXVtPSF0=

>  <s_i_glide_gridfile>  (150) 
ATP-Grid

>  <s_lp_Force_Field>  (150) 
OPLS_2005

>  <s_lp_Variant>  (150) 
rxn502b____EMOL491302____EMOL7515103____EMOL324170366-1

>  <s_lp_label>  (150) 
2752_sdstereoexpander_1_neutralizer_1_epik_1_stereoizer_1

>  <s_m_source_file>  (150) 
ATP-VSW-LIGPREP-002-in.maegz

>  <s_sd_BIOSOLVEIT.INFINISEE\_QUERY\_NAME>  (150) 
Ref-Lig

>  <s_sd_BIOSOLVEIT.INFINISEE\_QUERY\_SMILES>  (150) 
S(c1nc2c(cc1C[NH2+]Cc3ccc(cc3)C[NH+](C)C)cccc2)Cc4ccccc4

>  <s_sd_BIOSOLVEIT.INFINISEE\_REACTION\_NAME>  (150) 
rxn502b

>  <s_sd_BIOSOLVEIT.INFINISEE\_REAGENT1\_NAME>  (150) 
EMOL491302

>  <s_sd_BIOSOLVEIT.INFINISEE\_REAGENT1\_SMILES>  (150) 
ClC(=O)c1ccc(cc1)CCC

>  <s_sd_BIOSOLVEIT.INFINISEE\_REAGENT2\_NAME>  (150) 
EMOL7515103

>  <s_sd_BIOSOLVEIT.INFINISEE\_REAGENT2\_SMILES>  (150) 
Brc1c2c(c(nc1)N)cccc2

>  <s_sd_BIOSOLVEIT.INFINISEE\_REAGENT3\_NAME>  (150) 
EMOL324170366

>  <s_sd_BIOSOLVEIT.INFINISEE\_REAGENT3\_SMILES>  (150) 
OCCNc1ccc(cc1)CN

>  <s_sd_BIOSOLVEIT.INFINISEE\_SPACE>  (150) 
eXplore_7tr_2022-12

>  <s_vsw_compound_code>  (150) 
88034

>  <s_vsw_variant>  (150) 
88034-1

>  <r_epik_Charging_Adjusted_Penalty>  (150) 
0.0117043856515906

>  <r_epik_Ionization_Penalty>  (150) 
0.0118

>  <r_epik_Ionization_Penalty_Charging>  (150) 
0

>  <r_epik_Ionization_Penalty_Neutral>  (150) 
0.0118

>  <r_epik_State_Penalty>  (150) 
0.0117

>  <r_i_docking_score>  (150) 
-3.6763904396464602

>  <r_i_glide_ecoul>  (150) 
-8.7950859069824201

>  <r_i_glide_eff_state_penalty>  (150) 
0.0117

>  <r_i_glide_einternal>  (150) 
7.5496907234191903

>  <r_i_glide_emodel>  (150) 
-41.434503422134803

>  <r_i_glide_energy>  (150) 
-36.300802230834996

>  <r_i_glide_erotb>  (150) 
0.97189739012724197

>  <r_i_glide_esite>  (150) 
-0.0557210654070973

>  <r_i_glide_evdw>  (150) 
-27.5057163238525

>  <r_i_glide_gscore>  (150) 
-3.68809043964646

>  <r_i_glide_hbond>  (150) 
-0.45600000000000002

>  <r_i_glide_ligand_efficiency>  (150) 
-0.108129130577837

>  <r_i_glide_ligand_efficiency_ln>  (150) 
-0.81221776737685203

>  <r_i_glide_ligand_efficiency_sa>  (150) 
-0.35029640707007698

>  <r_i_glide_lipo>  (150) 
-1.1104958872650701

>  <r_i_glide_metal>  (150) 
-0

>  <r_i_glide_rewards>  (150) 
-0.343222174861539

>  <r_lp_Energy>  (150) 
37.623818

>  <r_qp_ACxDN^.5/SA>  (150) 
0.016841700000000001

>  <r_qp_CIQPlogS>  (150) 
-6.6589999999999998

>  <r_qp_EA(eV)>  (150) 
0.747

>  <r_qp_FISA>  (150) 
138.75

>  <r_qp_FOSA>  (150) 
301.74700000000001

>  <r_qp_IP(eV)>  (150) 
7.5750000000000002

>  <r_qp_Jm>  (150) 
0.0014490945534463

>  <r_qp_PISA>  (150) 
414.52300000000002

>  <r_qp_PSA>  (150) 
91.638000000000005

>  <r_qp_PercentHumanOralAbsorption>  (150) 
100

>  <r_qp_QPPCaco>  (150) 
478.779

>  <r_qp_QPPMDCK>  (150) 
223.15899999999999

>  <r_qp_QPlogBB>  (150) 
-1.7490000000000001

>  <r_qp_QPlogHERG>  (150) 
-7.5720000000000001

>  <r_qp_QPlogKhsa>  (150) 
0.63900000000000001

>  <r_qp_QPlogKp>  (150) 
-1.5600000000000001

>  <r_qp_QPlogPC16>  (150) 
17.550999999999998

>  <r_qp_QPlogPo/w>  (150) 
4.8010000000000002

>  <r_qp_QPlogPoct>  (150) 
27.219000000000001

>  <r_qp_QPlogPw>  (150) 
16.064

>  <r_qp_QPlogS>  (150) 
-6.9359999999999999

>  <r_qp_QPpolrz>  (150) 
51.715000000000003

>  <r_qp_SASA>  (150) 
855.01900000000001

>  <r_qp_SAamideO>  (150) 
0

>  <r_qp_SAfluorine>  (150) 
0

>  <r_qp_WPSA>  (150) 
0

>  <r_qp_accptHB>  (150) 
7.2000000000000002

>  <r_qp_dip^2/V>  (150) 
0.028182599999999999

>  <r_qp_dipole>  (150) 
6.5529999999999999

>  <r_qp_donorHB>  (150) 
4

>  <r_qp_glob>  (150) 
0.74891339999999995

>  <r_qp_mol_MW>  (150) 
454.57100000000003

>  <r_qp_volume>  (150) 
1523.5740000000001

>  <r_sd_BIOSOLVEIT.INFINISEE\_FTREES\_SIMILARITY>  (150) 
0.90700000000000003

>  <r_sd_BIOSOLVEIT.LOGP>  (150) 
5.4558999999999997

>  <r_sd_BIOSOLVEIT.MOLECULAR\_WEIGHT>  (150) 
454.57100000000003

>  <r_sd_BIOSOLVEIT.TPSA>  (150) 
86.280000000000001

>  <i_epik_Tot_Q>  (150) 
0

>  <i_epik_Tot_abs_Q>  (150) 
0

>  <i_f3d_flags>  (150) 
0

>  <i_i_glide_confnum>  (150) 
6

>  <i_i_glide_lignum>  (150) 
1332

>  <i_i_glide_posenum>  (150) 
14

>  <i_i_glide_rotatable_bonds>  (150) 
12

>  <i_lp_mmshare_version>  (150) 
65135

>  <i_m_ct_format>  (150) 
2

>  <i_m_source_file_index>  (150) 
2752

>  <i_qp_#NandO>  (150) 
6

>  <i_qp_#acid>  (150) 
0

>  <i_qp_#amide>  (150) 
0

>  <i_qp_#amidine>  (150) 
0

>  <i_qp_#amine>  (150) 
0

>  <i_qp_#in34>  (150) 
0

>  <i_qp_#in56>  (150) 
22

>  <i_qp_#metab>  (150) 
9

>  <i_qp_#nonHatm>  (150) 
34

>  <i_qp_#noncon>  (150) 
0

>  <i_qp_#ringatoms>  (150) 
22

>  <i_qp_#rotor>  (150) 
11

>  <i_qp_#rtvFG>  (150) 
0

>  <i_qp_#stars>  (150) 
4

>  <i_qp_CNS>  (150) 
-2

>  <i_qp_HumanOralAbsorption>  (150) 
1

>  <i_qp_RuleOfFive>  (150) 
0

>  <i_qp_RuleOfThree>  (150) 
2

>  <i_sd_BIOSOLVEIT.INFINISEE\_RESULT\_RANK>  (150) 
58522

>  <i_sd_version>  (150) 
0

>  <b_lp_Chiralities_Consistent>  (150) 
1

>  <b_sd_chiral_flag>  (150) 
0

>  <canonical_id>  (150) 
ATP-HTVS-1817E5512E7A

>  <compound_code>  (150) 
88034

>  <title>  (150) 
rxn502b____EMOL491302____EMOL7515103____EMOL324170366

>  <variant>  (150) 
88034-1

>  <source_file>  (150) 
运行/运行/ATP-VSW/ATP-VSW-DOCK_HTVS_1-002_lib.maegz

>  <canonical_smiles>  (150) 
CCCc1ccc(C(=O)Nc2ncc(NCc3ccc(NCCO)cc3)c3ccccc23)cc1

>  <scaffold>  (150) 
O=C(Nc1ncc(NCc2ccccc2)c2ccccc12)c1ccccc1

>  <molecular_formula>  (150) 
C28H30N4O2

$$$$
ATP-HTVS-18265C9EB86B
     RDKit          3D

 53 55  0  0  0  0  0  0  0  0999 V2000
  199.9505  176.8487  153.1403 O   0  0  0  0  0  0  0  0  0  0  0  0
  200.6431  176.2873  154.1928 C   0  0  0  0  0  0  0  0  0  0  0  0
  200.6030  176.9486  155.4418 C   0  0  0  0  0  0  0  0  0  0  0  0
  201.2252  176.4840  156.5459 N   0  0  0  0  0  0  0  0  0  0  0  0
  201.9461  175.3511  156.4446 C   0  0  0  0  0  0  0  0  0  0  0  0
  202.0625  174.6191  155.2516 C   0  0  0  0  0  0  0  0  0  0  0  0
  201.3947  175.0897  154.1067 C   0  0  0  0  0  0  0  0  0  0  0  0
  199.9055  178.1579  155.5345 N   0  0  0  0  0  0  0  0  0  0  0  0
  200.2933  179.0999  156.5704 C   0  0  1  0  0  0  0  0  0  0  0  0
  199.6726  180.4691  156.3976 C   0  0  0  0  0  0  0  0  0  0  0  0
  198.2728  180.6315  156.4593 C   0  0  0  0  0  0  0  0  0  0  0  0
  197.6891  181.9125  156.3651 C   0  0  0  0  0  0  0  0  0  0  0  0
  198.5287  183.0433  156.1853 C   0  0  0  0  0  0  0  0  0  0  0  0
  198.0323  184.3137  156.1231 O   0  0  0  0  0  0  0  0  0  0  0  0
  199.9223  182.8739  156.0903 C   0  0  0  0  0  0  0  0  0  0  0  0
  200.4959  181.5950  156.2070 C   0  0  0  0  0  0  0  0  0  0  0  0
  196.1818  182.0561  156.5451 C   0  0  1  0  0  0  0  0  0  0  0  0
  195.7602  181.8473  157.9530 N   0  0  1  0  0  0  0  0  0  0  0  0
  196.5204  182.6355  158.9465 C   0  0  2  0  0  0  0  0  0  0  0  0
  194.3037  182.0063  158.1331 C   0  0  2  0  0  0  0  0  0  0  0  0
  199.9144  176.1569  151.8966 C   0  0  1  0  0  0  0  0  0  0  0  0
  199.0774  176.8916  150.8615 C   0  0  0  0  0  0  0  0  0  0  0  0
  198.6387  178.2150  151.0889 C   0  0  0  0  0  0  0  0  0  0  0  0
  197.8728  178.8885  150.1190 C   0  0  0  0  0  0  0  0  0  0  0  0
  197.5487  178.2462  148.9088 C   0  0  0  0  0  0  0  0  0  0  0  0
  197.9875  176.9300  148.6731 C   0  0  0  0  0  0  0  0  0  0  0  0
  198.7485  176.2520  149.6455 C   0  0  0  0  0  0  0  0  0  0  0  0
  202.4609  175.0253  157.3356 H   0  0  0  0  0  0  0  0  0  0  0  0
  202.6531  173.7123  155.2123 H   0  0  0  0  0  0  0  0  0  0  0  0
  201.4757  174.5337  153.1875 H   0  0  0  0  0  0  0  0  0  0  0  0
  199.5120  178.5177  154.6772 H   0  0  0  0  0  0  0  0  0  0  0  0
  200.0108  178.7058  157.5475 H   0  0  0  0  0  0  0  0  0  0  0  0
  201.3804  179.1998  156.5768 H   0  0  0  0  0  0  0  0  0  0  0  0
  197.6459  179.7637  156.6156 H   0  0  0  0  0  0  0  0  0  0  0  0
  197.0908  184.3763  156.1293 H   0  0  0  0  0  0  0  0  0  0  0  0
  200.5595  183.7392  155.9632 H   0  0  0  0  0  0  0  0  0  0  0  0
  201.5703  181.4854  156.1573 H   0  0  0  0  0  0  0  0  0  0  0  0
  195.8708  183.0484  156.2208 H   0  0  0  0  0  0  0  0  0  0  0  0
  195.6709  181.3480  155.8877 H   0  0  0  0  0  0  0  0  0  0  0  0
  196.3800  183.7032  158.7829 H   0  0  0  0  0  0  0  0  0  0  0  0
  197.5909  182.4350  158.9231 H   0  0  0  0  0  0  0  0  0  0  0  0
  196.1876  182.4175  159.9563 H   0  0  0  0  0  0  0  0  0  0  0  0
  193.9830  183.0172  157.8708 H   0  0  0  0  0  0  0  0  0  0  0  0
  194.0162  181.8184  159.1689 H   0  0  0  0  0  0  0  0  0  0  0  0
  193.7594  181.3019  157.5029 H   0  0  0  0  0  0  0  0  0  0  0  0
  200.9229  176.0442  151.4999 H   0  0  0  0  0  0  0  0  0  0  0  0
  199.4978  175.1590  152.0352 H   0  0  0  0  0  0  0  0  0  0  0  0
  198.8841  178.7299  152.0047 H   0  0  0  0  0  0  0  0  0  0  0  0
  197.5413  179.8970  150.3032 H   0  0  0  0  0  0  0  0  0  0  0  0
  196.9627  178.7626  148.1616 H   0  0  0  0  0  0  0  0  0  0  0  0
  197.7401  176.4413  147.7413 H   0  0  0  0  0  0  0  0  0  0  0  0
  199.0855  175.2409  149.4578 H   0  0  0  0  0  0  0  0  0  0  0  0
  195.9395  180.8491  158.1263 H   0  0  0  0  0  0  0  0  0  0  0  0
  1  2  1  0
  1 21  1  0
  2  3  2  0
  2  7  1  0
  3  4  1  0
  3  8  1  0
  4  5  2  0
  5  6  1  0
  5 28  1  0
  6  7  2  0
  6 29  1  0
  7 30  1  0
  8  9  1  0
  8 31  1  0
  9 10  1  0
  9 32  1  1
  9 33  1  0
 10 11  2  0
 10 16  1  0
 11 12  1  0
 11 34  1  0
 12 13  2  0
 12 17  1  0
 13 14  1  0
 13 15  1  0
 14 35  1  0
 15 16  2  0
 15 36  1  0
 16 37  1  0
 17 18  1  0
 17 38  1  6
 17 39  1  0
 18 19  1  0
 18 20  1  0
 18 53  1  1
 19 40  1  6
 19 41  1  0
 19 42  1  0
 20 43  1  6
 20 44  1  0
 20 45  1  0
 21 22  1  0
 21 46  1  6
 21 47  1  0
 22 23  2  0
 22 27  1  0
 23 24  1  0
 23 48  1  0
 24 25  2  0
 24 49  1  0
 25 26  1  0
 25 50  1  0
 26 27  2  0
 26 51  1  0
 27 52  1  0
M  CHG  1  18   1
M  END
>  <s_epik_cmdline>  (151) 
J2VwaWtfcHl0aG9uJywgJy1waCcsICc3LjAwMDAwMCcsICctcGh0JywgJzIuMDAwMDAwJywgJy1tcycsICcxNicsICctdG4nLCAnOCcsICctbWEnLCAnMjAwJywgJy1pbWFlJywgJzxpbmZpbGUubWFlPicsICctb21hZScsICc8b3V0ZmlsZS5tYWU+Jw==

>  <s_epik_input>  (151) 
W2NIXTFbY0hdW2NIXVtjSF1bY0hdYzFbQ0gyXU9jMmMobltjSF1bY0hdW2NIXTIpW05IXVtDSDJdYzNbY0hdYyhjKFtPSF0pW2NIXVtjSF0zKVtDSDJdTihbQ0gzXSlbQ0gzXQ==

>  <s_i_glide_gridfile>  (151) 
ATP-Grid

>  <s_lp_Force_Field>  (151) 
OPLS_2005

>  <s_lp_Variant>  (151) 
a4____35077____222282-1

>  <s_lp_label>  (151) 
229_sdstereoexpander_1_neutralizer_1_epik_1_stereoizer_1

>  <s_m_source_file>  (151) 
ATP-VSW-LIGPREP-003-in.maegz

>  <s_sd_BIOSOLVEIT.INFINISEE\_QUERY\_NAME>  (151) 
Ref-Lig

>  <s_sd_BIOSOLVEIT.INFINISEE\_QUERY\_SMILES>  (151) 
S(c1nc2c(cc1C[NH2+]Cc3ccc(cc3)C[NH+](C)C)cccc2)Cc4ccccc4

>  <s_sd_BIOSOLVEIT.INFINISEE\_REACTION\_NAME>  (151) 
a4

>  <s_sd_BIOSOLVEIT.INFINISEE\_REAGENT1\_SMILES>  (151) 
[R1*]Nc1ncccc1OCc2ccccc2

>  <s_sd_BIOSOLVEIT.INFINISEE\_REAGENT2\_SMILES>  (151) 
[R1*]Cc1cc(c(O)cc1)CN(C)C

>  <s_sd_BIOSOLVEIT.INFINISEE\_SPACE>  (151) 
FreedomSpace_5bn_2023-06

>  <s_vsw_compound_code>  (151) 
7299

>  <s_vsw_variant>  (151) 
7299-1

>  <r_epik_Charging_Adjusted_Penalty>  (151) 
0.13086995134825199

>  <r_epik_Ionization_Penalty>  (151) 
0.0969

>  <r_epik_Ionization_Penalty_Charging>  (151) 
0.038399999999999997

>  <r_epik_Ionization_Penalty_Neutral>  (151) 
0.058500000000000003

>  <r_epik_State_Penalty>  (151) 
0.092399999999999996

>  <r_i_docking_score>  (151) 
-4.8584499758435697

>  <r_i_glide_ecoul>  (151) 
-9.1843128204345703

>  <r_i_glide_eff_state_penalty>  (151) 
0.092399999999999996

>  <r_i_glide_einternal>  (151) 
2.8770391941070601

>  <r_i_glide_emodel>  (151) 
-57.1686222205673

>  <r_i_glide_energy>  (151) 
-39.9508571624756

>  <r_i_glide_erotb>  (151) 
1.01312810212446

>  <r_i_glide_esite>  (151) 
-0.137122660701442

>  <r_i_glide_evdw>  (151) 
-30.766544342041001

>  <r_i_glide_gscore>  (151) 
-4.9508499758435702

>  <r_i_glide_hbond>  (151) 
-0.20000000000000001

>  <r_i_glide_ligand_efficiency>  (151) 
-0.17994259169790999

>  <r_i_glide_ligand_efficiency_ln>  (151) 
-1.1309670565685499

>  <r_i_glide_ligand_efficiency_sa>  (151) 
-0.53982777450066899

>  <r_i_glide_lipo>  (151) 
-1.5617499589175401

>  <r_i_glide_metal>  (151) 
-0

>  <r_i_glide_rewards>  (151) 
-1.1491313181818199

>  <r_lp_Energy>  (151) 
18.746983

>  <r_lp_tautomer_probability>  (151) 
0.99999940445052604

>  <r_qp_ACxDN^.5/SA>  (151) 
0.0108331

>  <r_qp_CIQPlogS>  (151) 
-4.5679999999999996

>  <r_qp_EA(eV)>  (151) 
0.017000000000000001

>  <r_qp_FISA>  (151) 
69.209999999999994

>  <r_qp_FOSA>  (151) 
210.27699999999999

>  <r_qp_IP(eV)>  (151) 
8.4179999999999993

>  <r_qp_Jm>  (151) 
0.20814734359364501

>  <r_qp_PISA>  (151) 
373.24000000000001

>  <r_qp_PSA>  (151) 
54.113

>  <r_qp_PercentHumanOralAbsorption>  (151) 
100

>  <r_qp_QPPCaco>  (151) 
545.11199999999997

>  <r_qp_QPPMDCK>  (151) 
284.05500000000001

>  <r_qp_QPlogBB>  (151) 
-0.23300000000000001

>  <r_qp_QPlogHERG>  (151) 
-6.6079999999999997

>  <r_qp_QPlogKhsa>  (151) 
0.51000000000000001

>  <r_qp_QPlogKp>  (151) 
-2.6789999999999998

>  <r_qp_QPlogPC16>  (151) 
13.029

>  <r_qp_QPlogPo/w>  (151) 
4.0640000000000001

>  <r_qp_QPlogPoct>  (151) 
18.759

>  <r_qp_QPlogPw>  (151) 
10.167999999999999

>  <r_qp_QPlogS>  (151) 
-3.5630000000000002

>  <r_qp_QPpolrz>  (151) 
40.042999999999999

>  <r_qp_SASA>  (151) 
652.72699999999998

>  <r_qp_SAamideO>  (151) 
0

>  <r_qp_SAfluorine>  (151) 
0

>  <r_qp_WPSA>  (151) 
0

>  <r_qp_accptHB>  (151) 
5

>  <r_qp_dip^2/V>  (151) 
0.0092797000000000001

>  <r_qp_dipole>  (151) 
3.3500000000000001

>  <r_qp_donorHB>  (151) 
2

>  <r_qp_glob>  (151) 
0.84116400000000002

>  <r_qp_mol_MW>  (151) 
363.45800000000003

>  <r_qp_volume>  (151) 
1209.681

>  <r_sd_BIOSOLVEIT.INFINISEE\_FTREES\_SIMILARITY>  (151) 
0.91900000000000004

>  <r_sd_BIOSOLVEIT.LOGP>  (151) 
2.6227999999999998

>  <r_sd_BIOSOLVEIT.MOLECULAR\_WEIGHT>  (151) 
364.46600000000001

>  <r_sd_BIOSOLVEIT.TPSA>  (151) 
58.82

>  <i_epik_Tot_Q>  (151) 
1

>  <i_epik_Tot_abs_Q>  (151) 
1

>  <i_f3d_flags>  (151) 
0

>  <i_i_glide_confnum>  (151) 
4

>  <i_i_glide_lignum>  (151) 
219

>  <i_i_glide_posenum>  (151) 
3

>  <i_i_glide_rotatable_bonds>  (151) 
9

>  <i_lp_mmshare_version>  (151) 
65135

>  <i_m_ct_format>  (151) 
2

>  <i_m_source_file_index>  (151) 
229

>  <i_qp_#NandO>  (151) 
5

>  <i_qp_#acid>  (151) 
0

>  <i_qp_#amide>  (151) 
0

>  <i_qp_#amidine>  (151) 
0

>  <i_qp_#amine>  (151) 
1

>  <i_qp_#in34>  (151) 
0

>  <i_qp_#in56>  (151) 
18

>  <i_qp_#metab>  (151) 
8

>  <i_qp_#nonHatm>  (151) 
27

>  <i_qp_#noncon>  (151) 
0

>  <i_qp_#ringatoms>  (151) 
18

>  <i_qp_#rotor>  (151) 
9

>  <i_qp_#rtvFG>  (151) 
0

>  <i_qp_#stars>  (151) 
0

>  <i_qp_CNS>  (151) 
1

>  <i_qp_HumanOralAbsorption>  (151) 
3

>  <i_qp_RuleOfFive>  (151) 
0

>  <i_qp_RuleOfThree>  (151) 
1

>  <i_sd_BIOSOLVEIT.INFINISEE\_REAGENT1\_NAME>  (151) 
35077

>  <i_sd_BIOSOLVEIT.INFINISEE\_REAGENT2\_NAME>  (151) 
222282

>  <i_sd_BIOSOLVEIT.INFINISEE\_RESULT\_RANK>  (151) 
19427

>  <i_sd_version>  (151) 
0

>  <b_lp_Chiralities_Consistent>  (151) 
1

>  <b_sd_chiral_flag>  (151) 
0

>  <canonical_id>  (151) 
ATP-HTVS-18265C9EB86B

>  <compound_code>  (151) 
7299

>  <title>  (151) 
a4____35077____222282

>  <variant>  (151) 
7299-1

>  <source_file>  (151) 
运行/运行/ATP-VSW/ATP-VSW-DOCK_HTVS_1-003_lib/ATP-VSW-DOCK_HTVS_1-003_lib.mae

>  <canonical_smiles>  (151) 
C[NH+](C)Cc1cc(CNc2ncccc2OCc2ccccc2)ccc1O

>  <scaffold>  (151) 
c1ccc(CNc2ncccc2OCc2ccccc2)cc1

>  <molecular_formula>  (151) 
C22H26N3O2+

$$$$
ATP-HTVS-185EDA97C211
     RDKit          3D

 63 66  0  0  0  0  0  0  0  0999 V2000
  197.3090  183.5216  156.2886 O   0  0  0  0  0  0  0  0  0  0  0  0
  197.8223  183.8010  157.3713 C   0  0  0  0  0  0  0  0  0  0  0  0
  199.0144  183.3497  157.8167 N   0  0  0  0  0  0  0  0  0  0  0  0
  199.7941  182.2637  157.3205 C   0  0  0  0  0  0  0  0  0  0  0  0
  199.3071  181.4534  156.3605 N   0  0  0  0  0  0  0  0  0  0  0  0
  200.0176  180.3934  155.9418 C   0  0  0  0  0  0  0  0  0  0  0  0
  201.3050  180.0701  156.4335 C   0  0  0  0  0  0  0  0  0  0  0  0
  202.0399  178.9686  155.9325 N   0  0  0  0  0  0  0  0  0  0  0  0
  201.3901  177.8500  155.2491 C   0  0  2  0  0  0  0  0  0  0  0  0
  202.2824  176.6593  155.0725 C   0  0  0  0  0  0  0  0  0  0  0  0
  201.8828  175.3836  155.5396 C   0  0  0  0  0  0  0  0  0  0  0  0
  202.6859  174.2383  155.3508 C   0  0  0  0  0  0  0  0  0  0  0  0
  203.9230  174.3484  154.6935 C   0  0  0  0  0  0  0  0  0  0  0  0
  204.3557  175.6062  154.2341 C   0  0  0  0  0  0  0  0  0  0  0  0
  203.5448  176.7441  154.4338 C   0  0  0  0  0  0  0  0  0  0  0  0
  200.9258  178.1585  153.8018 C   0  0  0  0  0  0  0  0  0  0  0  0
  201.2593  179.1633  153.1751 O   0  0  0  0  0  0  0  0  0  0  0  0
  200.0055  177.1427  153.1473 C   0  0  2  0  0  0  0  0  0  0  0  0
  201.8237  180.9082  157.4519 C   0  0  0  0  0  0  0  0  0  0  0  0
  201.0587  182.0171  157.9146 C   0  0  0  0  0  0  0  0  0  0  0  0
  201.5605  182.8340  158.9613 C   0  0  0  0  0  0  0  0  0  0  0  0
  202.8127  182.5632  159.5365 C   0  0  0  0  0  0  0  0  0  0  0  0
  203.5810  181.4848  159.0747 C   0  0  0  0  0  0  0  0  0  0  0  0
  203.0912  180.6680  158.0397 C   0  0  0  0  0  0  0  0  0  0  0  0
  197.1277  184.7204  158.3384 C   0  0  0  0  0  0  0  0  0  0  0  0
  195.7457  184.6010  158.6842 C   0  0  0  0  0  0  0  0  0  0  0  0
  195.1875  185.5083  159.6149 C   0  0  0  0  0  0  0  0  0  0  0  0
  195.9660  186.5309  160.1982 C   0  0  0  0  0  0  0  0  0  0  0  0
  197.3133  186.6507  159.8477 C   0  0  0  0  0  0  0  0  0  0  0  0
  197.8902  185.7540  158.9347 C   0  0  0  0  0  0  0  0  0  0  0  0
  194.8197  183.5373  158.1006 C   0  0  1  0  0  0  0  0  0  0  0  0
  194.7297  182.2919  158.9070 N   0  0  2  0  0  0  0  0  0  0  0  0
  196.0359  181.6392  159.1330 C   0  0  2  0  0  0  0  0  0  0  0  0
  193.7597  181.3367  158.3297 C   0  0  2  0  0  0  0  0  0  0  0  0
  199.3395  183.7572  158.6829 H   0  0  0  0  0  0  0  0  0  0  0  0
  199.5077  179.8190  155.1827 H   0  0  0  0  0  0  0  0  0  0  0  0
  202.9063  178.7125  156.3978 H   0  0  0  0  0  0  0  0  0  0  0  0
  200.5301  177.5668  155.8538 H   0  0  0  0  0  0  0  0  0  0  0  0
  200.9301  175.2696  156.0373 H   0  0  0  0  0  0  0  0  0  0  0  0
  202.3470  173.2685  155.6960 H   0  0  0  0  0  0  0  0  0  0  0  0
  204.5326  173.4702  154.5374 H   0  0  0  0  0  0  0  0  0  0  0  0
  205.3002  175.6998  153.7151 H   0  0  0  0  0  0  0  0  0  0  0  0
  203.8878  177.7000  154.0673 H   0  0  0  0  0  0  0  0  0  0  0  0
  199.5441  176.5014  153.8942 H   0  0  0  0  0  0  0  0  0  0  0  0
  200.5650  176.5296  152.4434 H   0  0  0  0  0  0  0  0  0  0  0  0
  199.2232  177.6662  152.6063 H   0  0  0  0  0  0  0  0  0  0  0  0
  200.9967  183.6687  159.3497 H   0  0  0  0  0  0  0  0  0  0  0  0
  203.1798  183.1938  160.3343 H   0  0  0  0  0  0  0  0  0  0  0  0
  204.5512  181.2843  159.5097 H   0  0  0  0  0  0  0  0  0  0  0  0
  203.7124  179.8443  157.7101 H   0  0  0  0  0  0  0  0  0  0  0  0
  194.1474  185.4364  159.8879 H   0  0  0  0  0  0  0  0  0  0  0  0
  195.5260  187.2190  160.9056 H   0  0  0  0  0  0  0  0  0  0  0  0
  197.9169  187.4230  160.2925 H   0  0  0  0  0  0  0  0  0  0  0  0
  198.9492  185.8580  158.7225 H   0  0  0  0  0  0  0  0  0  0  0  0
  193.8202  183.9729  158.0350 H   0  0  0  0  0  0  0  0  0  0  0  0
  195.1413  183.2782  157.0908 H   0  0  0  0  0  0  0  0  0  0  0  0
  196.4934  181.3654  158.1841 H   0  0  0  0  0  0  0  0  0  0  0  0
  195.9127  180.7317  159.7237 H   0  0  0  0  0  0  0  0  0  0  0  0
  196.7195  182.2869  159.6742 H   0  0  0  0  0  0  0  0  0  0  0  0
  194.0683  181.0416  157.3281 H   0  0  0  0  0  0  0  0  0  0  0  0
  192.7552  181.7516  158.2746 H   0  0  0  0  0  0  0  0  0  0  0  0
  193.7206  180.4336  158.9327 H   0  0  0  0  0  0  0  0  0  0  0  0
  194.3792  182.5604  159.8153 H   0  0  0  0  0  0  0  0  0  0  0  0
  1  2  2  0
  2  3  1  0
  2 25  1  0
  3  4  1  0
  3 35  1  0
  4  5  1  0
  4 20  2  0
  5  6  2  0
  6  7  1  0
  6 36  1  0
  7  8  1  0
  7 19  2  0
  8  9  1  0
  8 37  1  0
  9 10  1  0
  9 16  1  0
  9 38  1  1
 10 11  2  0
 10 15  1  0
 11 12  1  0
 11 39  1  0
 12 13  2  0
 12 40  1  0
 13 14  1  0
 13 41  1  0
 14 15  2  0
 14 42  1  0
 15 43  1  0
 16 17  2  0
 16 18  1  0
 18 44  1  1
 18 45  1  0
 18 46  1  0
 19 20  1  0
 19 24  1  0
 20 21  1  0
 21 22  2  0
 21 47  1  0
 22 23  1  0
 22 48  1  0
 23 24  2  0
 23 49  1  0
 24 50  1  0
 25 26  1  0
 25 30  2  0
 26 27  2  0
 26 31  1  0
 27 28  1  0
 27 51  1  0
 28 29  2  0
 28 52  1  0
 29 30  1  0
 29 53  1  0
 30 54  1  0
 31 32  1  0
 31 55  1  6
 31 56  1  0
 32 33  1  0
 32 34  1  0
 32 63  1  1
 33 57  1  6
 33 58  1  0
 33 59  1  0
 34 60  1  6
 34 61  1  0
 34 62  1  0
M  CHG  1  32   1
M  END
>  <s_epik_cmdline>  (152) 
J2VwaWtfcHl0aG9uJywgJy1waCcsICc3LjAwMDAwMCcsICctcGh0JywgJzIuMDAwMDAwJywgJy1tcycsICcxNicsICctdG4nLCAnOCcsICctbWEnLCAnMjAwJywgJy1pbWFlJywgJzxpbmZpbGUubWFlPicsICctb21hZScsICc8b3V0ZmlsZS5tYWU+Jw==

>  <s_epik_input>  (152) 
W2NIXTFbY0hdW2NIXVtjSF1jKFtDSDJdTihbQ0gzXSlbQ0gzXSljMUMoPU8pW05IXWMoYyhjMjMpW2NIXVtjSF1bY0hdW2NIXTMpbltjSF1jMltOSF1bQ0BASF0oQyg9TylbQ0gzXSljNFtjSF1bY0hdW2NIXVtjSF1bY0hdNA==

>  <s_i_glide_gridfile>  (152) 
ATP-Grid

>  <s_lp_Force_Field>  (152) 
OPLS_2005

>  <s_lp_Variant>  (152) 
rxn502b____EMOL5415347____EMOL7515103____EMOL725587-1

>  <s_lp_label>  (152) 
2407_sdstereoexpander_1_neutralizer_1_epik_1_stereoizer_1

>  <s_m_source_file>  (152) 
ATP-VSW-LIGPREP-002-in.maegz

>  <s_sd_BIOSOLVEIT.INFINISEE\_QUERY\_NAME>  (152) 
Ref-Lig

>  <s_sd_BIOSOLVEIT.INFINISEE\_QUERY\_SMILES>  (152) 
S(c1nc2c(cc1C[NH2+]Cc3ccc(cc3)C[NH+](C)C)cccc2)Cc4ccccc4

>  <s_sd_BIOSOLVEIT.INFINISEE\_REACTION\_NAME>  (152) 
rxn502b

>  <s_sd_BIOSOLVEIT.INFINISEE\_REAGENT1\_NAME>  (152) 
EMOL5415347

>  <s_sd_BIOSOLVEIT.INFINISEE\_REAGENT1\_SMILES>  (152) 
O=C(O)c1c(cccc1)CN(C)C

>  <s_sd_BIOSOLVEIT.INFINISEE\_REAGENT2\_NAME>  (152) 
EMOL7515103

>  <s_sd_BIOSOLVEIT.INFINISEE\_REAGENT2\_SMILES>  (152) 
Brc1c2c(c(nc1)N)cccc2

>  <s_sd_BIOSOLVEIT.INFINISEE\_REAGENT3\_NAME>  (152) 
EMOL725587

>  <s_sd_BIOSOLVEIT.INFINISEE\_REAGENT3\_SMILES>  (152) 
O=C(C(N)c1ccccc1)C

>  <s_sd_BIOSOLVEIT.INFINISEE\_SPACE>  (152) 
eXplore_7tr_2022-12

>  <s_vsw_compound_code>  (152) 
76994

>  <s_vsw_variant>  (152) 
76994-1

>  <r_epik_Charging_Adjusted_Penalty>  (152) 
0.120106230221407

>  <r_epik_Ionization_Penalty>  (152) 
0.060199999999999997

>  <r_epik_Ionization_Penalty_Charging>  (152) 
0.060100000000000001

>  <r_epik_Ionization_Penalty_Neutral>  (152) 
0.00020000000000000001

>  <r_epik_State_Penalty>  (152) 
0.060100000000000001

>  <r_i_docking_score>  (152) 
-4.8849975895155904

>  <r_i_glide_ecoul>  (152) 
-9.2079439163208008

>  <r_i_glide_eff_state_penalty>  (152) 
0.060100000000000001

>  <r_i_glide_einternal>  (152) 
2.6105051040649401

>  <r_i_glide_emodel>  (152) 
-58.5343083120855

>  <r_i_glide_energy>  (152) 
-42.378743171691902

>  <r_i_glide_erotb>  (152) 
0.68308159863740103

>  <r_i_glide_esite>  (152) 
-0.102113701544678

>  <r_i_glide_evdw>  (152) 
-33.170799255371101

>  <r_i_glide_gscore>  (152) 
-4.9450975895155898

>  <r_i_glide_hbond>  (152) 
-0.32000000000000001

>  <r_i_glide_ligand_efficiency>  (152) 
-0.14367639969163501

>  <r_i_glide_ligand_efficiency_ln>  (152) 
-1.07923298706522

>  <r_i_glide_ligand_efficiency_sa>  (152) 
-0.46545575945896001

>  <r_i_glide_lipo>  (152) 
-1.6224601811502599

>  <r_i_glide_metal>  (152) 
-0

>  <r_i_glide_rewards>  (152) 
-0.54387375524138304

>  <r_lp_Energy>  (152) 
37.388499000000003

>  <r_lp_tautomer_probability>  (152) 
0.99999996999999996

>  <r_qp_ACxDN^.5/SA>  (152) 
0.0149835

>  <r_qp_CIQPlogS>  (152) 
-5.2510000000000003

>  <r_qp_EA(eV)>  (152) 
0.96299999999999997

>  <r_qp_FISA>  (152) 
95.793000000000006

>  <r_qp_FOSA>  (152) 
231.297

>  <r_qp_IP(eV)>  (152) 
7.8799999999999999

>  <r_qp_Jm>  (152) 
0.0040535433976935497

>  <r_qp_PISA>  (152) 
475.18000000000001

>  <r_qp_PSA>  (152) 
84.858999999999995

>  <r_qp_PercentHumanOralAbsorption>  (152) 
96.061000000000007

>  <r_qp_QPPCaco>  (152) 
305.06599999999997

>  <r_qp_QPPMDCK>  (152) 
151.67699999999999

>  <r_qp_QPlogBB>  (152) 
-0.56699999999999995

>  <r_qp_QPlogHERG>  (152) 
-8.0660000000000007

>  <r_qp_QPlogKhsa>  (152) 
0.56699999999999995

>  <r_qp_QPlogKp>  (152) 
-2.9060000000000001

>  <r_qp_QPlogPC16>  (152) 
16.527999999999999

>  <r_qp_QPlogPo/w>  (152) 
4.21

>  <r_qp_QPlogPoct>  (152) 
25.143000000000001

>  <r_qp_QPlogPw>  (152) 
15.071

>  <r_qp_QPlogS>  (152) 
-5.1420000000000003

>  <r_qp_QPpolrz>  (152) 
52.277000000000001

>  <r_qp_SASA>  (152) 
802.26999999999998

>  <r_qp_SAamideO>  (152) 
0

>  <r_qp_SAfluorine>  (152) 
0

>  <r_qp_WPSA>  (152) 
0

>  <r_qp_accptHB>  (152) 
8.5

>  <r_qp_dip^2/V>  (152) 
0.012945999999999999

>  <r_qp_dipole>  (152) 
4.3700000000000001

>  <r_qp_donorHB>  (152) 
2

>  <r_qp_glob>  (152) 
0.78110360000000001

>  <r_qp_mol_MW>  (152) 
452.55500000000001

>  <r_qp_volume>  (152) 
1475.0139999999999

>  <r_sd_BIOSOLVEIT.INFINISEE\_FTREES\_SIMILARITY>  (152) 
0.91800000000000004

>  <r_sd_BIOSOLVEIT.LOGP>  (152) 
3.8738000000000001

>  <r_sd_BIOSOLVEIT.MOLECULAR\_WEIGHT>  (152) 
453.56299999999999

>  <r_sd_BIOSOLVEIT.TPSA>  (152) 
75.530000000000001

>  <i_epik_Tot_Q>  (152) 
1

>  <i_epik_Tot_abs_Q>  (152) 
1

>  <i_f3d_flags>  (152) 
0

>  <i_i_glide_confnum>  (152) 
8

>  <i_i_glide_lignum>  (152) 
1013

>  <i_i_glide_posenum>  (152) 
6

>  <i_i_glide_rotatable_bonds>  (152) 
9

>  <i_lp_mmshare_version>  (152) 
65135

>  <i_m_ct_format>  (152) 
2

>  <i_m_source_file_index>  (152) 
2407

>  <i_qp_#NandO>  (152) 
6

>  <i_qp_#acid>  (152) 
0

>  <i_qp_#amide>  (152) 
0

>  <i_qp_#amidine>  (152) 
0

>  <i_qp_#amine>  (152) 
1

>  <i_qp_#in34>  (152) 
0

>  <i_qp_#in56>  (152) 
22

>  <i_qp_#metab>  (152) 
8

>  <i_qp_#nonHatm>  (152) 
34

>  <i_qp_#noncon>  (152) 
0

>  <i_qp_#ringatoms>  (152) 
22

>  <i_qp_#rotor>  (152) 
8

>  <i_qp_#rtvFG>  (152) 
1

>  <i_qp_#stars>  (152) 
2

>  <i_qp_CNS>  (152) 
1

>  <i_qp_HumanOralAbsorption>  (152) 
3

>  <i_qp_RuleOfFive>  (152) 
0

>  <i_qp_RuleOfThree>  (152) 
1

>  <i_sd_BIOSOLVEIT.INFINISEE\_RESULT\_RANK>  (152) 
21164

>  <i_sd_version>  (152) 
0

>  <b_lp_Chiralities_Consistent>  (152) 
1

>  <b_sd_chiral_flag>  (152) 
0

>  <canonical_id>  (152) 
ATP-HTVS-185EDA97C211

>  <compound_code>  (152) 
76994

>  <title>  (152) 
rxn502b____EMOL5415347____EMOL7515103____EMOL725587

>  <variant>  (152) 
76994-1

>  <source_file>  (152) 
运行/运行/ATP-VSW/ATP-VSW-DOCK_HTVS_1-002_lib.maegz

>  <canonical_smiles>  (152) 
CC(=O)[C@H](Nc1cnc(NC(=O)c2ccccc2C[NH+](C)C)c2ccccc12)c1ccccc1

>  <scaffold>  (152) 
O=C(Nc1ncc(NCc2ccccc2)c2ccccc12)c1ccccc1

>  <molecular_formula>  (152) 
C28H29N4O2+

$$$$
ATP-HTVS-18A7589C7FB7
     RDKit          3D

 59 62  0  0  0  0  0  0  0  0999 V2000
  203.8755  181.0365  160.5348 Cl  0  0  0  0  0  0  0  0  0  0  0  0
  203.3210  182.6669  160.7008 C   0  0  0  0  0  0  0  0  0  0  0  0
  203.8113  183.5273  161.7127 C   0  0  0  0  0  0  0  0  0  0  0  0
  204.8206  183.0836  162.6612 C   0  0  0  0  0  0  0  0  0  0  0  0
  205.6259  182.7329  163.4139 N   0  0  0  0  0  0  0  0  0  0  0  0
  203.3260  184.8509  161.8018 C   0  0  0  0  0  0  0  0  0  0  0  0
  202.3586  185.3165  160.8919 C   0  0  0  0  0  0  0  0  0  0  0  0
  201.8678  184.4610  159.8862 C   0  0  0  0  0  0  0  0  0  0  0  0
  202.3534  183.1389  159.7953 C   0  0  0  0  0  0  0  0  0  0  0  0
  200.8005  184.9492  158.9198 C   0  0  1  0  0  0  0  0  0  0  0  0
  199.4239  184.4060  159.3086 C   0  0  0  0  0  0  0  0  0  0  0  0
  199.3273  183.4414  160.0549 O   0  0  0  0  0  0  0  0  0  0  0  0
  198.3574  185.0421  158.7837 N   0  0  0  0  0  0  0  0  0  0  0  0
  197.0023  184.7391  159.1022 C   0  0  0  0  0  0  0  0  0  0  0  0
  196.4175  183.4967  158.7341 C   0  0  0  0  0  0  0  0  0  0  0  0
  197.1553  182.4290  158.0630 C   0  0  0  0  0  0  0  0  0  0  0  0
  197.7993  181.6194  157.4224 C   0  0  0  0  0  0  0  0  0  0  0  0
  198.5735  180.6889  156.5814 C   0  0  1  0  0  0  0  0  0  0  0  0
  197.5495  179.8382  155.9177 N   0  0  1  0  0  0  0  0  0  0  0  0
  196.8603  180.3832  154.7181 C   0  0  2  0  0  0  0  0  0  0  0  0
  197.7098  180.2919  153.4530 C   0  0  0  0  0  0  0  0  0  0  0  0
  198.8726  181.0884  153.3310 C   0  0  0  0  0  0  0  0  0  0  0  0
  199.6728  180.9836  152.1706 C   0  0  0  0  0  0  0  0  0  0  0  0
  200.8147  181.7040  152.0779 F   0  0  0  0  0  0  0  0  0  0  0  0
  199.2982  180.1317  151.1138 C   0  0  0  0  0  0  0  0  0  0  0  0
  198.1128  179.3694  151.2145 C   0  0  0  0  0  0  0  0  0  0  0  0
  197.3246  179.4424  152.3885 C   0  0  0  0  0  0  0  0  0  0  0  0
  196.3071  181.8018  154.9153 C   0  0  2  0  0  0  0  0  0  0  0  0
  195.0589  183.2931  159.0399 C   0  0  0  0  0  0  0  0  0  0  0  0
  194.3063  184.1716  159.7306 N   0  0  0  0  0  0  0  0  0  0  0  0
  194.8645  185.3332  160.1347 C   0  0  0  0  0  0  0  0  0  0  0  0
  196.2150  185.6719  159.8235 C   0  0  0  0  0  0  0  0  0  0  0  0
  196.7471  186.9087  160.2668 C   0  0  0  0  0  0  0  0  0  0  0  0
  195.9520  187.7890  161.0166 C   0  0  0  0  0  0  0  0  0  0  0  0
  194.6292  187.4490  161.3374 C   0  0  0  0  0  0  0  0  0  0  0  0
  194.0945  186.2287  160.8952 C   0  0  0  0  0  0  0  0  0  0  0  0
  198.0023  178.9878  155.6357 H   0  0  0  0  0  0  0  0  0  0  0  0
  203.6895  185.5181  162.5705 H   0  0  0  0  0  0  0  0  0  0  0  0
  201.9825  186.3264  160.9798 H   0  0  0  0  0  0  0  0  0  0  0  0
  201.9637  182.4725  159.0398 H   0  0  0  0  0  0  0  0  0  0  0  0
  200.7850  186.0403  158.9047 H   0  0  0  0  0  0  0  0  0  0  0  0
  201.0435  184.6165  157.9099 H   0  0  0  0  0  0  0  0  0  0  0  0
  198.5159  185.8123  158.1506 H   0  0  0  0  0  0  0  0  0  0  0  0
  199.1634  181.2753  155.8795 H   0  0  0  0  0  0  0  0  0  0  0  0
  199.2445  180.0763  157.2113 H   0  0  0  0  0  0  0  0  0  0  0  0
  195.9957  179.7373  154.5719 H   0  0  0  0  0  0  0  0  0  0  0  0
  199.1596  181.7645  154.1167 H   0  0  0  0  0  0  0  0  0  0  0  0
  199.9098  180.0776  150.2197 H   0  0  0  0  0  0  0  0  0  0  0  0
  197.8056  178.7352  150.3875 H   0  0  0  0  0  0  0  0  0  0  0  0
  196.4173  178.8522  152.4474 H   0  0  0  0  0  0  0  0  0  0  0  0
  195.7247  182.1489  154.0495 H   0  0  0  0  0  0  0  0  0  0  0  0
  197.1043  182.5168  155.0768 H   0  0  0  0  0  0  0  0  0  0  0  0
  195.6374  181.8261  155.7700 H   0  0  0  0  0  0  0  0  0  0  0  0
  194.5684  182.3714  158.7524 H   0  0  0  0  0  0  0  0  0  0  0  0
  197.7738  187.1800  160.0721 H   0  0  0  0  0  0  0  0  0  0  0  0
  196.3694  188.7195  161.3721 H   0  0  0  0  0  0  0  0  0  0  0  0
  194.0173  188.1345  161.9100 H   0  0  0  0  0  0  0  0  0  0  0  0
  193.0669  185.9835  161.1200 H   0  0  0  0  0  0  0  0  0  0  0  0
  196.8649  179.5515  156.6183 H   0  0  0  0  0  0  0  0  0  0  0  0
  1  2  1  0
  2  3  2  0
  2  9  1  0
  3  4  1  0
  3  6  1  0
  4  5  3  0
  6  7  2  0
  6 38  1  0
  7  8  1  0
  7 39  1  0
  8  9  2  0
  8 10  1  0
  9 40  1  0
 10 11  1  0
 10 41  1  6
 10 42  1  0
 11 12  2  0
 11 13  1  0
 13 14  1  0
 13 43  1  0
 14 15  2  0
 14 32  1  0
 15 16  1  0
 15 29  1  0
 16 17  3  0
 17 18  1  0
 18 19  1  0
 18 44  1  6
 18 45  1  0
 19 20  1  0
 19 37  1  6
 19 59  1  0
 20 21  1  0
 20 28  1  0
 20 46  1  6
 21 22  1  0
 21 27  2  0
 22 23  2  0
 22 47  1  0
 23 24  1  0
 23 25  1  0
 25 26  2  0
 25 48  1  0
 26 27  1  0
 26 49  1  0
 27 50  1  0
 28 51  1  6
 28 52  1  0
 28 53  1  0
 29 30  2  0
 29 54  1  0
 30 31  1  0
 31 32  1  0
 31 36  2  0
 32 33  2  0
 33 34  1  0
 33 55  1  0
 34 35  2  0
 34 56  1  0
 35 36  1  0
 35 57  1  0
 36 58  1  0
M  CHG  1  19   1
M  END
>  <s_epik_cmdline>  (153) 
J2VwaWtfcHl0aG9uJywgJy1waCcsICc3LjAwMDAwMCcsICctcGh0JywgJzIuMDAwMDAwJywgJy1tcycsICcxNicsICctdG4nLCAnOCcsICctbWEnLCAnMjAwJywgJy1pbWFlJywgJzxpbmZpbGUubWFlPicsICctb21hZScsICc8b3V0ZmlsZS5tYWU+Jw==

>  <s_epik_input>  (153) 
Q2xjMWMoQyNOKVtjSF1bY0hdYyhbY0hdMSlbQ0gyXUMoPU8pW05IXWMoYyhjMjMpW2NIXVtjSF1bY0hdW2NIXTMpYyhbY0hdbjIpQyNDW0NIMl1bTkhdW0NAQEhdKFtDSDNdKWM0W2NIXWMoRilbY0hdW2NIXVtjSF00

>  <s_i_glide_gridfile>  (153) 
ATP-Grid

>  <s_lp_Force_Field>  (153) 
OPLS_2005

>  <s_lp_Variant>  (153) 
rxn503b____EMOL49845460____EMOL13728749____EMOL317509042-4

>  <s_lp_label>  (153) 
2940_sdstereoexpander_2_neutralizer_1_epik_2_stereoizer_1

>  <s_m_source_file>  (153) 
ATP-VSW-LIGPREP-001-in.maegz

>  <s_sd_BIOSOLVEIT.INFINISEE\_QUERY\_NAME>  (153) 
Ref-Lig

>  <s_sd_BIOSOLVEIT.INFINISEE\_QUERY\_SMILES>  (153) 
S(c1nc2c(cc1C[NH2+]Cc3ccc(cc3)C[NH+](C)C)cccc2)Cc4ccccc4

>  <s_sd_BIOSOLVEIT.INFINISEE\_REACTION\_NAME>  (153) 
rxn503b

>  <s_sd_BIOSOLVEIT.INFINISEE\_REAGENT1\_NAME>  (153) 
EMOL49845460

>  <s_sd_BIOSOLVEIT.INFINISEE\_REAGENT1\_SMILES>  (153) 
Clc1c(C#N)ccc(c1)CC(=O)O

>  <s_sd_BIOSOLVEIT.INFINISEE\_REAGENT2\_NAME>  (153) 
EMOL13728749

>  <s_sd_BIOSOLVEIT.INFINISEE\_REAGENT2\_SMILES>  (153) 
Brc1c(N)c2c(nc1)cccc2

>  <s_sd_BIOSOLVEIT.INFINISEE\_REAGENT3\_NAME>  (153) 
EMOL317509042

>  <s_sd_BIOSOLVEIT.INFINISEE\_REAGENT3\_SMILES>  (153) 
Fc1cc(ccc1)C(NCC#C)C

>  <s_sd_BIOSOLVEIT.INFINISEE\_SPACE>  (153) 
eXplore_7tr_2022-12

>  <s_vsw_compound_code>  (153) 
94049

>  <s_vsw_variant>  (153) 
94049-4

>  <r_epik_Charging_Adjusted_Penalty>  (153) 
1.25515797441685

>  <r_epik_Ionization_Penalty>  (153) 
0.62770000000000004

>  <r_epik_Ionization_Penalty_Charging>  (153) 
0.62760000000000005

>  <r_epik_Ionization_Penalty_Neutral>  (153) 
0.0001

>  <r_epik_State_Penalty>  (153) 
0.62760000000000005

>  <r_i_docking_score>  (153) 
-4.6648101869411098

>  <r_i_glide_ecoul>  (153) 
-9.4411602020263707

>  <r_i_glide_eff_state_penalty>  (153) 
0.62760000000000005

>  <r_i_glide_einternal>  (153) 
6.4736957550048801

>  <r_i_glide_emodel>  (153) 
-65.295151481630299

>  <r_i_glide_energy>  (153) 
-46.867288589477504

>  <r_i_glide_erotb>  (153) 
0.65822312970235197

>  <r_i_glide_esite>  (153) 
-0.10000000000000001

>  <r_i_glide_evdw>  (153) 
-37.4261283874512

>  <r_i_glide_gscore>  (153) 
-5.29241018694111

>  <r_i_glide_hbond>  (153) 
-0.209720509169777

>  <r_i_glide_ligand_efficiency>  (153) 
-0.129578060748364

>  <r_i_glide_ligand_efficiency_ln>  (153) 
-1.0177355541837001

>  <r_i_glide_ligand_efficiency_sa>  (153) 
-0.427857329132868

>  <r_i_glide_lipo>  (153) 
-1.9849849116879901

>  <r_i_glide_metal>  (153) 
-0

>  <r_i_glide_rewards>  (153) 
-0.36844744610917901

>  <r_lp_Energy>  (153) 
26.550276

>  <r_qp_ACxDN^.5/SA>  (153) 
0.012728400000000001

>  <r_qp_CIQPlogS>  (153) 
-7.9240000000000004

>  <r_qp_EA(eV)>  (153) 
1.351

>  <r_qp_FISA>  (153) 
110.43899999999999

>  <r_qp_FOSA>  (153) 
140.03299999999999

>  <r_qp_IP(eV)>  (153) 
9.0429999999999993

>  <r_qp_Jm>  (153) 
0.00033734853304241599

>  <r_qp_PISA>  (153) 
371.14499999999998

>  <r_qp_PSA>  (153) 
83.561000000000007

>  <r_qp_PercentHumanOralAbsorption>  (153) 
100

>  <r_qp_QPPCaco>  (153) 
221.56999999999999

>  <r_qp_QPPMDCK>  (153) 
381.75400000000002

>  <r_qp_QPlogBB>  (153) 
-0.34799999999999998

>  <r_qp_QPlogHERG>  (153) 
-6.4219999999999997

>  <r_qp_QPlogKhsa>  (153) 
0.84599999999999997

>  <r_qp_QPlogKp>  (153) 
-3.4460000000000002

>  <r_qp_QPlogPC16>  (153) 
15.398999999999999

>  <r_qp_QPlogPo/w>  (153) 
4.9859999999999998

>  <r_qp_QPlogPoct>  (153) 
23.896000000000001

>  <r_qp_QPlogPw>  (153) 
12.114000000000001

>  <r_qp_QPlogS>  (153) 
-5.7220000000000004

>  <r_qp_QPpolrz>  (153) 
49.054000000000002

>  <r_qp_SASA>  (153) 
722.197

>  <r_qp_SAamideO>  (153) 
0

>  <r_qp_SAfluorine>  (153) 
44.198999999999998

>  <r_qp_WPSA>  (153) 
100.58

>  <r_qp_accptHB>  (153) 
6.5

>  <r_qp_dip^2/V>  (153) 
0.033295400000000003

>  <r_qp_dipole>  (153) 
6.9130000000000003

>  <r_qp_donorHB>  (153) 
2

>  <r_qp_glob>  (153) 
0.85207520000000003

>  <r_qp_mol_MW>  (153) 
496.97000000000003

>  <r_qp_volume>  (153) 
1435.3340000000001

>  <r_sd_BIOSOLVEIT.INFINISEE\_FTREES\_SIMILARITY>  (153) 
0.90400000000000003

>  <r_sd_BIOSOLVEIT.LOGP>  (153) 
4.7562800000000003

>  <r_sd_BIOSOLVEIT.MOLECULAR\_WEIGHT>  (153) 
497.97899999999998

>  <r_sd_BIOSOLVEIT.TPSA>  (153) 
82.390000000000001

>  <i_epik_Tot_Q>  (153) 
1

>  <i_epik_Tot_abs_Q>  (153) 
1

>  <i_f3d_flags>  (153) 
0

>  <i_i_glide_confnum>  (153) 
4

>  <i_i_glide_lignum>  (153) 
1388

>  <i_i_glide_posenum>  (153) 
1

>  <i_i_glide_rotatable_bonds>  (153) 
9

>  <i_lp_mmshare_version>  (153) 
65135

>  <i_m_ct_format>  (153) 
2

>  <i_m_source_file_index>  (153) 
2940

>  <i_qp_#NandO>  (153) 
5

>  <i_qp_#acid>  (153) 
0

>  <i_qp_#amide>  (153) 
0

>  <i_qp_#amidine>  (153) 
0

>  <i_qp_#amine>  (153) 
1

>  <i_qp_#in34>  (153) 
0

>  <i_qp_#in56>  (153) 
22

>  <i_qp_#metab>  (153) 
6

>  <i_qp_#nonHatm>  (153) 
36

>  <i_qp_#noncon>  (153) 
0

>  <i_qp_#ringatoms>  (153) 
22

>  <i_qp_#rotor>  (153) 
9

>  <i_qp_#rtvFG>  (153) 
0

>  <i_qp_#stars>  (153) 
0

>  <i_qp_CNS>  (153) 
1

>  <i_qp_HumanOralAbsorption>  (153) 
3

>  <i_qp_RuleOfFive>  (153) 
0

>  <i_qp_RuleOfThree>  (153) 
1

>  <i_sd_BIOSOLVEIT.INFINISEE\_RESULT\_RANK>  (153) 
79098

>  <i_sd_version>  (153) 
0

>  <b_lp_Chiralities_Consistent>  (153) 
1

>  <b_sd_chiral_flag>  (153) 
0

>  <canonical_id>  (153) 
ATP-HTVS-18A7589C7FB7

>  <compound_code>  (153) 
94049

>  <title>  (153) 
rxn503b____EMOL49845460____EMOL13728749____EMOL317509042

>  <variant>  (153) 
94049-4

>  <source_file>  (153) 
运行/运行/ATP-VSW/ATP-VSW-DOCK_HTVS_1-001_lib/ATP-VSW-DOCK_HTVS_1-001_lib

>  <canonical_smiles>  (153) 
C[C@H]([NH2+]CC#Cc1cnc2ccccc2c1NC(=O)Cc1ccc(C#N)c(Cl)c1)c1cccc(F)c1

>  <scaffold>  (153) 
O=C(Cc1ccccc1)Nc1c(C#CC[NH2+]Cc2ccccc2)cnc2ccccc12

>  <molecular_formula>  (153) 
C29H23ClFN4O+

$$$$
ATP-HTVS-18AAC668D3EC
     RDKit          3D

 47 50  0  0  0  0  0  0  0  0999 V2000
  199.0575  178.2525  152.5108 F   0  0  0  0  0  0  0  0  0  0  0  0
  198.1662  179.2734  152.5294 C   0  0  0  0  0  0  0  0  0  0  0  0
  198.1759  180.1982  153.5890 C   0  0  0  0  0  0  0  0  0  0  0  0
  197.2669  181.2798  153.6202 C   0  0  0  0  0  0  0  0  0  0  0  0
  196.3545  181.4352  152.5533 C   0  0  0  0  0  0  0  0  0  0  0  0
  196.3366  180.5025  151.4933 C   0  0  0  0  0  0  0  0  0  0  0  0
  197.2384  179.4193  151.4835 C   0  0  0  0  0  0  0  0  0  0  0  0
  197.3222  182.2955  154.7255 C   0  0  0  0  0  0  0  0  0  0  0  0
  197.1661  183.4948  154.4977 O   0  0  0  0  0  0  0  0  0  0  0  0
  197.4903  181.7898  155.9590 N   0  0  0  0  0  0  0  0  0  0  0  0
  197.8972  182.5324  157.0920 C   0  0  0  0  0  0  0  0  0  0  0  0
  199.2750  182.7413  157.3704 C   0  0  0  0  0  0  0  0  0  0  0  0
  200.3311  182.3044  156.5358 N   0  0  0  0  0  0  0  0  0  0  0  0
  200.7222  180.9514  156.3351 C   0  0  0  0  0  0  0  0  0  0  0  0
  201.9652  180.6003  155.7406 C   0  0  0  0  0  0  0  0  0  0  0  0
  202.3373  179.2537  155.5652 C   0  0  0  0  0  0  0  0  0  0  0  0
  201.4732  178.2148  155.9506 C   0  0  0  0  0  0  0  0  0  0  0  0
  200.2319  178.5337  156.5319 C   0  0  0  0  0  0  0  0  0  0  0  0
  199.8788  179.8802  156.7442 C   0  0  0  0  0  0  0  0  0  0  0  0
  201.2102  183.4057  156.0956 C   0  0  1  0  0  0  0  0  0  0  0  0
  200.7146  184.0648  154.8812 C   0  0  0  0  0  0  0  0  0  0  0  0
  200.3258  184.5867  153.9281 N   0  0  0  0  0  0  0  0  0  0  0  0
  199.5905  183.4397  158.5513 C   0  0  0  0  0  0  0  0  0  0  0  0
  198.6841  183.9349  159.4119 N   0  0  0  0  0  0  0  0  0  0  0  0
  197.3751  183.7515  159.1564 C   0  0  0  0  0  0  0  0  0  0  0  0
  196.9311  183.0380  158.0091 C   0  0  0  0  0  0  0  0  0  0  0  0
  195.5450  182.8582  157.8001 C   0  0  0  0  0  0  0  0  0  0  0  0
  194.6091  183.4147  158.6939 C   0  0  0  0  0  0  0  0  0  0  0  0
  195.0493  184.1403  159.8130 C   0  0  0  0  0  0  0  0  0  0  0  0
  196.4257  184.2949  160.0452 C   0  0  0  0  0  0  0  0  0  0  0  0
  198.9158  180.0750  154.3629 H   0  0  0  0  0  0  0  0  0  0  0  0
  195.6636  182.2652  152.5537 H   0  0  0  0  0  0  0  0  0  0  0  0
  195.6277  180.6207  150.6884 H   0  0  0  0  0  0  0  0  0  0  0  0
  197.2283  178.7059  150.6719 H   0  0  0  0  0  0  0  0  0  0  0  0
  197.4565  180.7851  156.0677 H   0  0  0  0  0  0  0  0  0  0  0  0
  202.6842  181.3382  155.4155 H   0  0  0  0  0  0  0  0  0  0  0  0
  203.3055  179.0155  155.1517 H   0  0  0  0  0  0  0  0  0  0  0  0
  201.7638  177.1830  155.8190 H   0  0  0  0  0  0  0  0  0  0  0  0
  199.5438  177.7512  156.8302 H   0  0  0  0  0  0  0  0  0  0  0  0
  198.9223  180.0461  157.2151 H   0  0  0  0  0  0  0  0  0  0  0  0
  201.2829  184.1916  156.8511 H   0  0  0  0  0  0  0  0  0  0  0  0
  202.2453  183.1110  155.9147 H   0  0  0  0  0  0  0  0  0  0  0  0
  200.6162  183.6069  158.8341 H   0  0  0  0  0  0  0  0  0  0  0  0
  195.1757  182.3194  156.9377 H   0  0  0  0  0  0  0  0  0  0  0  0
  193.5532  183.2950  158.5006 H   0  0  0  0  0  0  0  0  0  0  0  0
  194.3363  184.5747  160.4956 H   0  0  0  0  0  0  0  0  0  0  0  0
  196.7705  184.8414  160.9100 H   0  0  0  0  0  0  0  0  0  0  0  0
  1  2  1  0
  2  3  2  0
  2  7  1  0
  3  4  1  0
  3 31  1  0
  4  5  2  0
  4  8  1  0
  5  6  1  0
  5 32  1  0
  6  7  2  0
  6 33  1  0
  7 34  1  0
  8  9  2  0
  8 10  1  0
 10 11  1  0
 10 35  1  0
 11 12  2  0
 11 26  1  0
 12 13  1  0
 12 23  1  0
 13 14  1  0
 13 20  1  0
 14 15  2  0
 14 19  1  0
 15 16  1  0
 15 36  1  0
 16 17  2  0
 16 37  1  0
 17 18  1  0
 17 38  1  0
 18 19  2  0
 18 39  1  0
 19 40  1  0
 20 21  1  0
 20 41  1  1
 20 42  1  0
 21 22  3  0
 23 24  2  0
 23 43  1  0
 24 25  1  0
 25 26  1  0
 25 30  2  0
 26 27  2  0
 27 28  1  0
 27 44  1  0
 28 29  2  0
 28 45  1  0
 29 30  1  0
 29 46  1  0
 30 47  1  0
M  END
>  <s_epik_cmdline>  (154) 
J2VwaWtfcHl0aG9uJywgJy1waCcsICc3LjAwMDAwMCcsICctcGh0JywgJzIuMDAwMDAwJywgJy1tcycsICcxNicsICctdG4nLCAnOCcsICctbWEnLCAnMjAwJywgJy1pbWFlJywgJzxpbmZpbGUubWFlPicsICctb21hZScsICc8b3V0ZmlsZS5tYWU+Jw==

>  <s_epik_input>  (154) 
RmMxW2NIXWMoW2NIXVtjSF1bY0hdMSlDKD1PKVtOSF1jKGMoYzIzKVtjSF1bY0hdW2NIXVtjSF0zKWMoW2NIXW4yKU4oW0NIMl1DI04pYzRbY0hdW2NIXVtjSF1bY0hdW2NIXTQ=

>  <s_i_glide_gridfile>  (154) 
ATP-Grid

>  <s_lp_Force_Field>  (154) 
OPLS_2005

>  <s_lp_Variant>  (154) 
rxn502b____EMOL511643____EMOL13728749____EMOL712348-1

>  <s_lp_label>  (154) 
2534_sdstereoexpander_1_neutralizer_1_epik_1_stereoizer_1

>  <s_m_source_file>  (154) 
ATP-VSW-LIGPREP-002-in.maegz

>  <s_sd_BIOSOLVEIT.INFINISEE\_QUERY\_NAME>  (154) 
Ref-Lig

>  <s_sd_BIOSOLVEIT.INFINISEE\_QUERY\_SMILES>  (154) 
S(c1nc2c(cc1C[NH2+]Cc3ccc(cc3)C[NH+](C)C)cccc2)Cc4ccccc4

>  <s_sd_BIOSOLVEIT.INFINISEE\_REACTION\_NAME>  (154) 
rxn502b

>  <s_sd_BIOSOLVEIT.INFINISEE\_REAGENT1\_NAME>  (154) 
EMOL511643

>  <s_sd_BIOSOLVEIT.INFINISEE\_REAGENT1\_SMILES>  (154) 
Fc1cc(ccc1)C(=O)O

>  <s_sd_BIOSOLVEIT.INFINISEE\_REAGENT2\_NAME>  (154) 
EMOL13728749

>  <s_sd_BIOSOLVEIT.INFINISEE\_REAGENT2\_SMILES>  (154) 
Brc1c(N)c2c(nc1)cccc2

>  <s_sd_BIOSOLVEIT.INFINISEE\_REAGENT3\_NAME>  (154) 
EMOL712348

>  <s_sd_BIOSOLVEIT.INFINISEE\_REAGENT3\_SMILES>  (154) 
N#CCNc1ccccc1

>  <s_sd_BIOSOLVEIT.INFINISEE\_SPACE>  (154) 
eXplore_7tr_2022-12

>  <s_vsw_compound_code>  (154) 
81058

>  <s_vsw_variant>  (154) 
81058-1

>  <r_epik_Charging_Adjusted_Penalty>  (154) 
0

>  <r_epik_Ionization_Penalty>  (154) 
0.0025000000000000001

>  <r_epik_Ionization_Penalty_Charging>  (154) 
0

>  <r_epik_Ionization_Penalty_Neutral>  (154) 
0.0025000000000000001

>  <r_epik_State_Penalty>  (154) 
-0

>  <r_i_docking_score>  (154) 
-3.2845974401255802

>  <r_i_glide_ecoul>  (154) 
-3.4562816619872998

>  <r_i_glide_eff_state_penalty>  (154) 
-0

>  <r_i_glide_einternal>  (154) 
5.3281946182251003

>  <r_i_glide_emodel>  (154) 
-39.048336674144799

>  <r_i_glide_energy>  (154) 
-34.496038436889599

>  <r_i_glide_erotb>  (154) 
0.62249861315325405

>  <r_i_glide_esite>  (154) 
-0.066139823241793599

>  <r_i_glide_evdw>  (154) 
-31.039756774902301

>  <r_i_glide_gscore>  (154) 
-3.2845974401255802

>  <r_i_glide_hbond>  (154) 
0

>  <r_i_glide_ligand_efficiency>  (154) 
-0.109486581337519

>  <r_i_glide_ligand_efficiency_ln>  (154) 
-0.74629632695207904

>  <r_i_glide_ligand_efficiency_sa>  (154) 
-0.34020026411200499

>  <r_i_glide_lipo>  (154) 
-1.0425905453550499

>  <r_i_glide_metal>  (154) 
-0

>  <r_i_glide_rewards>  (154) 
-0.72793559663877005

>  <r_lp_Energy>  (154) 
35.852981

>  <r_lp_tautomer_probability>  (154) 
1

>  <r_qp_ACxDN^.5/SA>  (154) 
0.0081878999999999997

>  <r_qp_CIQPlogS>  (154) 
-7.3940000000000001

>  <r_qp_EA(eV)>  (154) 
1.409

>  <r_qp_FISA>  (154) 
103.446

>  <r_qp_FOSA>  (154) 
25.402000000000001

>  <r_qp_IP(eV)>  (154) 
8.4830000000000005

>  <r_qp_Jm>  (154) 
0.0060836018903331303

>  <r_qp_PISA>  (154) 
495.95299999999997

>  <r_qp_PSA>  (154) 
70.188999999999993

>  <r_qp_PercentHumanOralAbsorption>  (154) 
100

>  <r_qp_QPPCaco>  (154) 
1034.9639999999999

>  <r_qp_QPPMDCK>  (154) 
927.94399999999996

>  <r_qp_QPlogBB>  (154) 
-0.70299999999999996

>  <r_qp_QPlogHERG>  (154) 
-6.774

>  <r_qp_QPlogKhsa>  (154) 
0.60499999999999998

>  <r_qp_QPlogKp>  (154) 
-1.103

>  <r_qp_QPlogPC16>  (154) 
13.706

>  <r_qp_QPlogPo/w>  (154) 
4.6859999999999999

>  <r_qp_QPlogPoct>  (154) 
19.795000000000002

>  <r_qp_QPlogPw>  (154) 
10.988

>  <r_qp_QPlogS>  (154) 
-6.7110000000000003

>  <r_qp_QPpolrz>  (154) 
43.572000000000003

>  <r_qp_SASA>  (154) 
671.72299999999996

>  <r_qp_SAamideO>  (154) 
0

>  <r_qp_SAfluorine>  (154) 
46.921999999999997

>  <r_qp_WPSA>  (154) 
46.921999999999997

>  <r_qp_accptHB>  (154) 
5.5

>  <r_qp_dip^2/V>  (154) 
0.035016600000000002

>  <r_qp_dipole>  (154) 
6.5369999999999999

>  <r_qp_donorHB>  (154) 
1

>  <r_qp_glob>  (154) 
0.82222019999999996

>  <r_qp_mol_MW>  (154) 
396.423

>  <r_qp_volume>  (154) 
1220.45

>  <r_sd_BIOSOLVEIT.INFINISEE\_FTREES\_SIMILARITY>  (154) 
0.91300000000000003

>  <r_sd_BIOSOLVEIT.LOGP>  (154) 
5.2878800000000004

>  <r_sd_BIOSOLVEIT.MOLECULAR\_WEIGHT>  (154) 
396.423

>  <r_sd_BIOSOLVEIT.TPSA>  (154) 
69.019999999999996

>  <i_epik_Tot_Q>  (154) 
0

>  <i_epik_Tot_abs_Q>  (154) 
0

>  <i_f3d_flags>  (154) 
0

>  <i_i_glide_confnum>  (154) 
2

>  <i_i_glide_lignum>  (154) 
1117

>  <i_i_glide_posenum>  (154) 
11

>  <i_i_glide_rotatable_bonds>  (154) 
6

>  <i_lp_mmshare_version>  (154) 
65135

>  <i_m_ct_format>  (154) 
2

>  <i_m_source_file_index>  (154) 
2534

>  <i_qp_#NandO>  (154) 
5

>  <i_qp_#acid>  (154) 
0

>  <i_qp_#amide>  (154) 
0

>  <i_qp_#amidine>  (154) 
0

>  <i_qp_#amine>  (154) 
0

>  <i_qp_#in34>  (154) 
0

>  <i_qp_#in56>  (154) 
22

>  <i_qp_#metab>  (154) 
4

>  <i_qp_#nonHatm>  (154) 
30

>  <i_qp_#noncon>  (154) 
0

>  <i_qp_#ringatoms>  (154) 
22

>  <i_qp_#rotor>  (154) 
6

>  <i_qp_#rtvFG>  (154) 
0

>  <i_qp_#stars>  (154) 
2

>  <i_qp_CNS>  (154) 
-1

>  <i_qp_HumanOralAbsorption>  (154) 
1

>  <i_qp_RuleOfFive>  (154) 
0

>  <i_qp_RuleOfThree>  (154) 
1

>  <i_sd_BIOSOLVEIT.INFINISEE\_RESULT\_RANK>  (154) 
33937

>  <i_sd_version>  (154) 
0

>  <b_lp_Chiralities_Consistent>  (154) 
1

>  <b_sd_chiral_flag>  (154) 
0

>  <canonical_id>  (154) 
ATP-HTVS-18AAC668D3EC

>  <compound_code>  (154) 
81058

>  <title>  (154) 
rxn502b____EMOL511643____EMOL13728749____EMOL712348

>  <variant>  (154) 
81058-1

>  <source_file>  (154) 
运行/运行/ATP-VSW/ATP-VSW-DOCK_HTVS_1-002_lib.maegz

>  <canonical_smiles>  (154) 
N#CCN(c1ccccc1)c1cnc2ccccc2c1NC(=O)c1cccc(F)c1

>  <scaffold>  (154) 
O=C(Nc1c(Nc2ccccc2)cnc2ccccc12)c1ccccc1

>  <molecular_formula>  (154) 
C24H17FN4O

$$$$
ATP-HTVS-18CFABF6753A
     RDKit          3D

 69 72  0  0  0  0  0  0  0  0999 V2000
  198.0688  180.0009  149.5801 O   0  0  0  0  0  0  0  0  0  0  0  0
  196.9253  179.5582  149.4538 C   0  0  0  0  0  0  0  0  0  0  0  0
  196.5562  178.7942  148.4165 N   0  0  0  0  0  0  0  0  0  0  0  0
  197.4422  178.3418  147.3475 C   0  0  1  0  0  0  0  0  0  0  0  0
  198.4823  177.3132  147.7830 C   0  0  0  0  0  0  0  0  0  0  0  0
  199.5728  177.0356  146.9294 C   0  0  0  0  0  0  0  0  0  0  0  0
  200.5531  176.0987  147.3096 C   0  0  0  0  0  0  0  0  0  0  0  0
  200.4526  175.4351  148.5456 C   0  0  0  0  0  0  0  0  0  0  0  0
  199.3650  175.7003  149.3979 C   0  0  0  0  0  0  0  0  0  0  0  0
  198.3770  176.6260  149.0155 C   0  0  0  0  0  0  0  0  0  0  0  0
  195.8591  179.8841  150.5111 C   0  0  1  0  0  0  0  0  0  0  0  0
  196.4025  180.2341  151.8309 N   0  0  0  0  0  0  0  0  0  0  0  0
  196.8052  181.5337  152.1409 C   0  0  0  0  0  0  0  0  0  0  0  0
  196.9173  181.8866  153.4251 N   0  0  0  0  0  0  0  0  0  0  0  0
  197.2989  183.1371  153.7590 C   0  0  0  0  0  0  0  0  0  0  0  0
  197.3865  183.4670  155.1242 N   0  0  0  0  0  0  0  0  0  0  0  0
  196.8151  182.6126  156.1593 C   0  0  1  0  0  0  0  0  0  0  0  0
  196.4534  183.3276  157.4529 C   0  0  0  0  0  0  0  0  0  0  0  0
  197.2790  184.3440  157.9829 C   0  0  0  0  0  0  0  0  0  0  0  0
  196.9082  185.0094  159.1727 C   0  0  0  0  0  0  0  0  0  0  0  0
  195.7374  184.6269  159.8568 C   0  0  0  0  0  0  0  0  0  0  0  0
  194.8973  183.6400  159.3091 C   0  0  0  0  0  0  0  0  0  0  0  0
  195.2632  182.9795  158.1236 C   0  0  0  0  0  0  0  0  0  0  0  0
  197.7625  186.1351  159.7264 C   0  0  1  0  0  0  0  0  0  0  0  0
  197.1861  187.4955  159.5242 N   0  0  1  0  0  0  0  0  0  0  0  0
  197.0365  187.8467  158.0946 C   0  0  2  0  0  0  0  0  0  0  0  0
  195.9496  187.7729  160.2956 C   0  0  2  0  0  0  0  0  0  0  0  0
  197.6094  184.0809  152.7590 C   0  0  0  0  0  0  0  0  0  0  0  0
  197.4891  183.6478  151.4182 C   0  0  0  0  0  0  0  0  0  0  0  0
  197.0807  182.3867  151.1484 N   0  0  0  0  0  0  0  0  0  0  0  0
  197.8038  184.5133  150.3554 C   0  0  0  0  0  0  0  0  0  0  0  0
  198.2364  185.8250  150.6242 C   0  0  0  0  0  0  0  0  0  0  0  0
  198.3493  186.2660  151.9575 C   0  0  0  0  0  0  0  0  0  0  0  0
  198.0340  185.4023  153.0241 C   0  0  0  0  0  0  0  0  0  0  0  0
  196.5524  179.1542  152.8029 C   0  0  2  0  0  0  0  0  0  0  0  0
  195.5974  178.4826  148.3684 H   0  0  0  0  0  0  0  0  0  0  0  0
  196.8313  177.8980  146.5618 H   0  0  0  0  0  0  0  0  0  0  0  0
  197.9443  179.2048  146.9037 H   0  0  0  0  0  0  0  0  0  0  0  0
  199.6616  177.5412  145.9756 H   0  0  0  0  0  0  0  0  0  0  0  0
  201.3814  175.8886  146.6496 H   0  0  0  0  0  0  0  0  0  0  0  0
  201.1983  174.7117  148.8392 H   0  0  0  0  0  0  0  0  0  0  0  0
  199.2811  175.1886  150.3438 H   0  0  0  0  0  0  0  0  0  0  0  0
  197.5457  176.7933  149.6859 H   0  0  0  0  0  0  0  0  0  0  0  0
  195.2392  180.7019  150.1461 H   0  0  0  0  0  0  0  0  0  0  0  0
  195.1682  179.0464  150.6059 H   0  0  0  0  0  0  0  0  0  0  0  0
  197.7313  184.3751  155.3898 H   0  0  0  0  0  0  0  0  0  0  0  0
  195.9244  182.1092  155.7793 H   0  0  0  0  0  0  0  0  0  0  0  0
  197.5356  181.8277  156.3960 H   0  0  0  0  0  0  0  0  0  0  0  0
  198.1949  184.6209  157.4715 H   0  0  0  0  0  0  0  0  0  0  0  0
  195.4550  185.0903  160.7910 H   0  0  0  0  0  0  0  0  0  0  0  0
  193.9568  183.4154  159.7866 H   0  0  0  0  0  0  0  0  0  0  0  0
  194.6053  182.2234  157.7144 H   0  0  0  0  0  0  0  0  0  0  0  0
  197.8988  185.9294  160.7836 H   0  0  0  0  0  0  0  0  0  0  0  0
  198.7575  186.0958  159.2737 H   0  0  0  0  0  0  0  0  0  0  0  0
  196.3110  187.1958  157.6040 H   0  0  0  0  0  0  0  0  0  0  0  0
  197.9868  187.7552  157.5663 H   0  0  0  0  0  0  0  0  0  0  0  0
  196.6967  188.8756  157.9824 H   0  0  0  0  0  0  0  0  0  0  0  0
  195.1244  187.1286  159.9738 H   0  0  0  0  0  0  0  0  0  0  0  0
  195.6515  188.8238  160.1846 H   0  0  0  0  0  0  0  0  0  0  0  0
  196.1249  187.6002  161.3588 H   0  0  0  0  0  0  0  0  0  0  0  0
  197.7236  184.1785  149.3317 H   0  0  0  0  0  0  0  0  0  0  0  0
  198.4711  186.4948  149.8105 H   0  0  0  0  0  0  0  0  0  0  0  0
  198.6646  187.2803  152.1623 H   0  0  0  0  0  0  0  0  0  0  0  0
  198.1273  185.7704  154.0345 H   0  0  0  0  0  0  0  0  0  0  0  0
  196.2280  179.4600  153.7989 H   0  0  0  0  0  0  0  0  0  0  0  0
  197.6008  178.8573  152.8668 H   0  0  0  0  0  0  0  0  0  0  0  0
  195.9617  178.2805  152.5307 H   0  0  0  0  0  0  0  0  0  0  0  0
  197.0515  182.0760  150.1771 H   0  0  0  0  0  0  0  0  0  0  0  0
  197.8817  188.1302  159.8916 H   0  0  0  0  0  0  0  0  0  0  0  0
  1  2  2  0
  2  3  1  0
  2 11  1  0
  3  4  1  0
  3 36  1  0
  4  5  1  0
  4 37  1  6
  4 38  1  0
  5  6  2  0
  5 10  1  0
  6  7  1  0
  6 39  1  0
  7  8  2  0
  7 40  1  0
  8  9  1  0
  8 41  1  0
  9 10  2  0
  9 42  1  0
 10 43  1  0
 11 12  1  0
 11 44  1  6
 11 45  1  0
 12 13  1  0
 12 35  1  0
 13 14  1  0
 13 30  2  0
 14 15  2  0
 15 16  1  0
 15 28  1  0
 16 17  1  0
 16 46  1  0
 17 18  1  0
 17 47  1  6
 17 48  1  0
 18 19  2  0
 18 23  1  0
 19 20  1  0
 19 49  1  0
 20 21  2  0
 20 24  1  0
 21 22  1  0
 21 50  1  0
 22 23  2  0
 22 51  1  0
 23 52  1  0
 24 25  1  0
 24 53  1  1
 24 54  1  0
 25 26  1  0
 25 27  1  0
 25 69  1  1
 26 55  1  6
 26 56  1  0
 26 57  1  0
 27 58  1  6
 27 59  1  0
 27 60  1  0
 28 29  1  0
 28 34  2  0
 29 30  1  0
 29 31  2  0
 30 68  1  0
 31 32  1  0
 31 61  1  0
 32 33  2  0
 32 62  1  0
 33 34  1  0
 33 63  1  0
 34 64  1  0
 35 65  1  1
 35 66  1  0
 35 67  1  0
M  CHG  2  25   1  30   1
M  END
>  <s_epik_cmdline>  (155) 
J2VwaWtfcHl0aG9uJywgJy1waCcsICc3LjAwMDAwMCcsICctcGh0JywgJzIuMDAwMDAwJywgJy1tcycsICcxNicsICctdG4nLCAnOCcsICctbWEnLCAnMjAwJywgJy1pbWFlJywgJzxpbmZpbGUubWFlPicsICctb21hZScsICc8b3V0ZmlsZS5tYWU+Jw==

>  <s_epik_input>  (155) 
W2NIXTFbY0hdW2NIXVtjSF1bY0hdYzFbQ0gyXVtOSF1DKD1PKVtDSDJdTihbQ0gzXSljKG5jKGMyMylbY0hdW2NIXVtjSF1bY0hdMyluYzJbTkhdW0NIMl1jNFtjSF1jKFtjSF1bY0hdW2NIXTQpW0NIMl1OKFtDSDNdKVtDSDNd

>  <s_i_glide_gridfile>  (155) 
ATP-Grid

>  <s_lp_Force_Field>  (155) 
OPLS_2005

>  <s_lp_Variant>  (155) 
m_282030aaa____21894442____22360182____21940090-1

>  <s_lp_label>  (155) 
1682_sdstereoexpander_1_neutralizer_1_epik_1_stereoizer_1

>  <s_m_source_file>  (155) 
ATP-VSW-LIGPREP-001-in.maegz

>  <s_sd_BIOSOLVEIT.INFINISEE\_QUERY\_NAME>  (155) 
Ref-Lig

>  <s_sd_BIOSOLVEIT.INFINISEE\_QUERY\_SMILES>  (155) 
S(c1nc2c(cc1C[NH2+]Cc3ccc(cc3)C[NH+](C)C)cccc2)Cc4ccccc4

>  <s_sd_BIOSOLVEIT.INFINISEE\_REACTION\_NAME>  (155) 
m_282030aaa

>  <s_sd_BIOSOLVEIT.INFINISEE\_REAGENT1\_SMILES>  (155) 
[R1*]N(CC(=O)NCc1ccccc1)C

>  <s_sd_BIOSOLVEIT.INFINISEE\_REAGENT2\_SMILES>  (155) 
[R2*]c1nc([R1*])c2c(n1)cccc2

>  <s_sd_BIOSOLVEIT.INFINISEE\_REAGENT3\_SMILES>  (155) 
[R2*]NCc1cc(ccc1)CN(C)C

>  <s_sd_BIOSOLVEIT.INFINISEE\_SPACE>  (155) 
REALSpace_44bn_2023-08

>  <s_vsw_compound_code>  (155) 
53793

>  <s_vsw_variant>  (155) 
53793-1

>  <r_epik_Charging_Adjusted_Penalty>  (155) 
0.12742010257406899

>  <r_epik_Ionization_Penalty>  (155) 
0.064399999999999999

>  <r_epik_Ionization_Penalty_Charging>  (155) 
0.064399999999999999

>  <r_epik_Ionization_Penalty_Neutral>  (155) 
0

>  <r_epik_State_Penalty>  (155) 
0.063

>  <r_i_docking_score>  (155) 
-4.4887866004806902

>  <r_i_glide_ecoul>  (155) 
-1.70897996425629

>  <r_i_glide_eff_state_penalty>  (155) 
0.063

>  <r_i_glide_einternal>  (155) 
3.0043873786926301

>  <r_i_glide_emodel>  (155) 
-58.763961249902898

>  <r_i_glide_energy>  (155) 
-40.778956770896897

>  <r_i_glide_erotb>  (155) 
0.82112538518450695

>  <r_i_glide_esite>  (155) 
-0.0209385063671613

>  <r_i_glide_evdw>  (155) 
-39.069976806640597

>  <r_i_glide_gscore>  (155) 
-4.5517866004806899

>  <r_i_glide_hbond>  (155) 
0

>  <r_i_glide_ligand_efficiency>  (155) 
-0.12825104572802001

>  <r_i_glide_ligand_efficiency_ln>  (155) 
-0.98538828205654905

>  <r_i_glide_ligand_efficiency_sa>  (155) 
-0.41951767443020399

>  <r_i_glide_lipo>  (155) 
-2.4299970330618699

>  <r_i_glide_metal>  (155) 
-0

>  <r_i_glide_rewards>  (155) 
-0.712130611265682

>  <r_lp_Energy>  (155) 
12.603009

>  <r_lp_tautomer_probability>  (155) 
0.99350799999861505

>  <r_qp_ACxDN^.5/SA>  (155) 
0.0131891

>  <r_qp_CIQPlogS>  (155) 
-5.319

>  <r_qp_EA(eV)>  (155) 
0.76700000000000002

>  <r_qp_FISA>  (155) 
35.988

>  <r_qp_FOSA>  (155) 
322.61500000000001

>  <r_qp_IP(eV)>  (155) 
8.2070000000000007

>  <r_qp_Jm>  (155) 
0.22325651921206999

>  <r_qp_PISA>  (155) 
445.59100000000001

>  <r_qp_PSA>  (155) 
68.206000000000003

>  <r_qp_PercentHumanOralAbsorption>  (155) 
100

>  <r_qp_QPPCaco>  (155) 
811.71799999999996

>  <r_qp_QPPMDCK>  (155) 
622.18899999999996

>  <r_qp_QPlogBB>  (155) 
-0.019

>  <r_qp_QPlogHERG>  (155) 
-6.3029999999999999

>  <r_qp_QPlogKhsa>  (155) 
0.49199999999999999

>  <r_qp_QPlogKp>  (155) 
-1.716

>  <r_qp_QPlogPC16>  (155) 
16.254000000000001

>  <r_qp_QPlogPo/w>  (155) 
4.6909999999999998

>  <r_qp_QPlogPoct>  (155) 
24.524000000000001

>  <r_qp_QPlogPw>  (155) 
14.362

>  <r_qp_QPlogS>  (155) 
-4.6059999999999999

>  <r_qp_QPpolrz>  (155) 
52.673000000000002

>  <r_qp_SASA>  (155) 
804.19399999999996

>  <r_qp_SAamideO>  (155) 
17.853999999999999

>  <r_qp_SAfluorine>  (155) 
0

>  <r_qp_WPSA>  (155) 
0

>  <r_qp_accptHB>  (155) 
7.5

>  <r_qp_dip^2/V>  (155) 
0.0200602

>  <r_qp_dipole>  (155) 
5.5289999999999999

>  <r_qp_donorHB>  (155) 
2

>  <r_qp_glob>  (155) 
0.79641260000000003

>  <r_qp_mol_MW>  (155) 
468.60000000000002

>  <r_qp_volume>  (155) 
1524.056

>  <r_sd_BIOSOLVEIT.INFINISEE\_FTREES\_SIMILARITY>  (155) 
0.90500000000000003

>  <r_sd_BIOSOLVEIT.LOGP>  (155) 
2.6389999999999998

>  <r_sd_BIOSOLVEIT.MOLECULAR\_WEIGHT>  (155) 
469.61000000000001

>  <r_sd_BIOSOLVEIT.TPSA>  (155) 
74.590000000000003

>  <i_epik_Tot_Q>  (155) 
2

>  <i_epik_Tot_abs_Q>  (155) 
2

>  <i_f3d_flags>  (155) 
0

>  <i_i_glide_confnum>  (155) 
6

>  <i_i_glide_lignum>  (155) 
470

>  <i_i_glide_posenum>  (155) 
9

>  <i_i_glide_rotatable_bonds>  (155) 
11

>  <i_lp_mmshare_version>  (155) 
65135

>  <i_m_ct_format>  (155) 
2

>  <i_m_source_file_index>  (155) 
1682

>  <i_qp_#NandO>  (155) 
7

>  <i_qp_#acid>  (155) 
0

>  <i_qp_#amide>  (155) 
1

>  <i_qp_#amidine>  (155) 
0

>  <i_qp_#amine>  (155) 
1

>  <i_qp_#in34>  (155) 
0

>  <i_qp_#in56>  (155) 
22

>  <i_qp_#metab>  (155) 
5

>  <i_qp_#nonHatm>  (155) 
35

>  <i_qp_#noncon>  (155) 
0

>  <i_qp_#ringatoms>  (155) 
22

>  <i_qp_#rotor>  (155) 
10

>  <i_qp_#rtvFG>  (155) 
0

>  <i_qp_#stars>  (155) 
0

>  <i_qp_CNS>  (155) 
1

>  <i_qp_HumanOralAbsorption>  (155) 
3

>  <i_qp_RuleOfFive>  (155) 
0

>  <i_qp_RuleOfThree>  (155) 
0

>  <i_sd_BIOSOLVEIT.INFINISEE\_REAGENT1\_NAME>  (155) 
21894442

>  <i_sd_BIOSOLVEIT.INFINISEE\_REAGENT2\_NAME>  (155) 
22360182

>  <i_sd_BIOSOLVEIT.INFINISEE\_REAGENT3\_NAME>  (155) 
21940090

>  <i_sd_BIOSOLVEIT.INFINISEE\_RESULT\_RANK>  (155) 
70612

>  <i_sd_version>  (155) 
0

>  <b_lp_Chiralities_Consistent>  (155) 
1

>  <b_sd_chiral_flag>  (155) 
0

>  <canonical_id>  (155) 
ATP-HTVS-18CFABF6753A

>  <compound_code>  (155) 
53793

>  <title>  (155) 
m_282030aaa____21894442____22360182____21940090

>  <variant>  (155) 
53793-1

>  <source_file>  (155) 
运行/运行/ATP-VSW/ATP-VSW-DOCK_HTVS_1-001_lib/ATP-VSW-DOCK_HTVS_1-001_lib

>  <canonical_smiles>  (155) 
CN(CC(=O)NCc1ccccc1)c1nc(NCc2cccc(C[NH+](C)C)c2)c2ccccc2[nH+]1

>  <scaffold>  (155) 
O=C(CNc1nc(NCc2ccccc2)c2ccccc2[nH+]1)NCc1ccccc1

>  <molecular_formula>  (155) 
C28H34N6O+2

$$$$
ATP-HTVS-18FDFF56F821
     RDKit          3D

 61 64  0  0  0  0  0  0  0  0999 V2000
  196.8336  187.4130  157.2781 Cl  0  0  0  0  0  0  0  0  0  0  0  0
  196.6956  185.9606  158.2050 C   0  0  0  0  0  0  0  0  0  0  0  0
  196.0825  185.9706  159.4782 C   0  0  0  0  0  0  0  0  0  0  0  0
  195.5868  187.1492  160.0382 N   0  0  0  0  0  0  0  0  0  0  0  0
  195.9740  184.7717  160.2027 C   0  0  0  0  0  0  0  0  0  0  0  0
  196.4757  183.5668  159.6808 C   0  0  0  0  0  0  0  0  0  0  0  0
  197.0968  183.5544  158.4182 C   0  0  0  0  0  0  0  0  0  0  0  0
  197.2135  184.7555  157.6833 C   0  0  0  0  0  0  0  0  0  0  0  0
  197.6646  182.2551  157.8821 C   0  0  1  0  0  0  0  0  0  0  0  0
  197.4598  182.0515  156.4572 N   0  0  0  0  0  0  0  0  0  0  0  0
  198.0231  180.9377  155.8132 C   0  0  0  0  0  0  0  0  0  0  0  0
  198.9592  180.2181  156.4692 N   0  0  0  0  0  0  0  0  0  0  0  0
  199.5242  179.1620  155.8790 C   0  0  0  0  0  0  0  0  0  0  0  0
  199.2535  178.8134  154.6131 N   0  0  0  0  0  0  0  0  0  0  0  0
  198.3200  179.4965  153.9088 C   0  0  0  0  0  0  0  0  0  0  0  0
  197.6596  180.6001  154.4926 C   0  0  0  0  0  0  0  0  0  0  0  0
  196.6797  181.2966  153.7496 C   0  0  0  0  0  0  0  0  0  0  0  0
  196.3781  180.8929  152.4326 C   0  0  0  0  0  0  0  0  0  0  0  0
  197.0554  179.8039  151.8476 C   0  0  0  0  0  0  0  0  0  0  0  0
  198.0327  179.1076  152.5847 C   0  0  0  0  0  0  0  0  0  0  0  0
  200.4814  178.4282  156.5551 N   0  0  0  0  0  0  0  0  0  0  0  0
  201.2324  178.8952  157.7142 C   0  0  1  0  0  0  0  0  0  0  0  0
  202.0341  180.1944  157.5711 C   0  0  0  0  0  0  0  0  0  0  0  0
  202.5124  180.8513  158.7285 C   0  0  0  0  0  0  0  0  0  0  0  0
  203.2215  182.0705  158.6346 C   0  0  0  0  0  0  0  0  0  0  0  0
  203.5146  182.6041  157.3639 C   0  0  0  0  0  0  0  0  0  0  0  0
  203.0717  181.9407  156.2052 C   0  0  0  0  0  0  0  0  0  0  0  0
  202.3458  180.7381  156.3017 C   0  0  0  0  0  0  0  0  0  0  0  0
  203.6639  182.8145  159.8945 C   0  0  1  0  0  0  0  0  0  0  0  0
  202.6228  183.7373  160.4230 N   0  0  1  0  0  0  0  0  0  0  0  0
  202.3137  184.8719  159.5215 C   0  0  2  0  0  0  0  0  0  0  0  0
  201.4027  183.0467  160.8873 C   0  0  2  0  0  0  0  0  0  0  0  0
  195.1725  187.1787  160.9540 H   0  0  0  0  0  0  0  0  0  0  0  0
  195.6800  188.0314  159.5548 H   0  0  0  0  0  0  0  0  0  0  0  0
  195.5233  184.7753  161.1834 H   0  0  0  0  0  0  0  0  0  0  0  0
  196.3940  182.6567  160.2576 H   0  0  0  0  0  0  0  0  0  0  0  0
  197.7037  184.7538  156.7187 H   0  0  0  0  0  0  0  0  0  0  0  0
  198.7347  182.2453  158.1027 H   0  0  0  0  0  0  0  0  0  0  0  0
  197.2213  181.4133  158.4180 H   0  0  0  0  0  0  0  0  0  0  0  0
  196.6043  182.4308  156.0811 H   0  0  0  0  0  0  0  0  0  0  0  0
  196.1422  182.1367  154.1652 H   0  0  0  0  0  0  0  0  0  0  0  0
  195.6208  181.4261  151.8705 H   0  0  0  0  0  0  0  0  0  0  0  0
  196.8077  179.4935  150.8436 H   0  0  0  0  0  0  0  0  0  0  0  0
  198.5455  178.2780  152.1247 H   0  0  0  0  0  0  0  0  0  0  0  0
  200.8326  177.6017  156.0975 H   0  0  0  0  0  0  0  0  0  0  0  0
  200.5145  178.9758  158.5312 H   0  0  0  0  0  0  0  0  0  0  0  0
  201.9250  178.1065  158.0094 H   0  0  0  0  0  0  0  0  0  0  0  0
  202.3253  180.4235  159.7062 H   0  0  0  0  0  0  0  0  0  0  0  0
  204.0639  183.5322  157.2753 H   0  0  0  0  0  0  0  0  0  0  0  0
  203.2872  182.3624  155.2352 H   0  0  0  0  0  0  0  0  0  0  0  0
  202.0372  180.2591  155.3819 H   0  0  0  0  0  0  0  0  0  0  0  0
  203.9465  182.0902  160.6639 H   0  0  0  0  0  0  0  0  0  0  0  0
  204.5729  183.3851  159.6793 H   0  0  0  0  0  0  0  0  0  0  0  0
  201.8863  184.5311  158.5772 H   0  0  0  0  0  0  0  0  0  0  0  0
  203.2161  185.4469  159.3047 H   0  0  0  0  0  0  0  0  0  0  0  0
  201.5937  185.5510  159.9828 H   0  0  0  0  0  0  0  0  0  0  0  0
  200.8624  182.5773  160.0697 H   0  0  0  0  0  0  0  0  0  0  0  0
  200.7224  183.7666  161.3345 H   0  0  0  0  0  0  0  0  0  0  0  0
  201.6409  182.2901  161.6347 H   0  0  0  0  0  0  0  0  0  0  0  0
  199.7227  178.0286  154.1693 H   0  0  0  0  0  0  0  0  0  0  0  0
  203.0314  184.1545  161.2487 H   0  0  0  0  0  0  0  0  0  0  0  0
  1  2  1  0
  2  3  2  0
  2  8  1  0
  3  4  1  0
  3  5  1  0
  4 33  1  0
  4 34  1  0
  5  6  2  0
  5 35  1  0
  6  7  1  0
  6 36  1  0
  7  8  2  0
  7  9  1  0
  8 37  1  0
  9 10  1  0
  9 38  1  6
  9 39  1  0
 10 11  1  0
 10 40  1  0
 11 12  2  0
 11 16  1  0
 12 13  1  0
 13 14  2  0
 13 21  1  0
 14 15  1  0
 14 60  1  0
 15 16  1  0
 15 20  2  0
 16 17  2  0
 17 18  1  0
 17 41  1  0
 18 19  2  0
 18 42  1  0
 19 20  1  0
 19 43  1  0
 20 44  1  0
 21 22  1  0
 21 45  1  0
 22 23  1  0
 22 46  1  1
 22 47  1  0
 23 24  2  0
 23 28  1  0
 24 25  1  0
 24 48  1  0
 25 26  2  0
 25 29  1  0
 26 27  1  0
 26 49  1  0
 27 28  2  0
 27 50  1  0
 28 51  1  0
 29 30  1  0
 29 52  1  1
 29 53  1  0
 30 31  1  0
 30 32  1  0
 30 61  1  1
 31 54  1  6
 31 55  1  0
 31 56  1  0
 32 57  1  6
 32 58  1  0
 32 59  1  0
M  CHG  2  14   1  30   1
M  END
>  <s_epik_cmdline>  (156) 
J2VwaWtfcHl0aG9uJywgJy1waCcsICc3LjAwMDAwMCcsICctcGh0JywgJzIuMDAwMDAwJywgJy1tcycsICcxNicsICctdG4nLCAnOCcsICctbWEnLCAnMjAwJywgJy1pbWFlJywgJzxpbmZpbGUubWFlPicsICctb21hZScsICc8b3V0ZmlsZS5tYWU+Jw==

>  <s_epik_input>  (156) 
Q2xjMWMoW05IMl0pW2NIXVtjSF1jKFtjSF0xKVtDSDJdW05IXWMoYyhjMjMpW2NIXVtjSF1bY0hdW2NIXTMpbmMobjIpW05IXVtDSDJdYzRbY0hdYyhbY0hdW2NIXVtjSF00KVtDSDJdTihbQ0gzXSlbQ0gzXQ==

>  <s_i_glide_gridfile>  (156) 
ATP-Grid

>  <s_lp_Force_Field>  (156) 
OPLS_2005

>  <s_lp_Variant>  (156) 
m_282030aaa____21928796____22360182____21968058-1

>  <s_lp_label>  (156) 
1213_sdstereoexpander_1_neutralizer_1_epik_1_stereoizer_1

>  <s_m_source_file>  (156) 
ATP-VSW-LIGPREP-001-in.maegz

>  <s_sd_BIOSOLVEIT.INFINISEE\_QUERY\_NAME>  (156) 
Ref-Lig

>  <s_sd_BIOSOLVEIT.INFINISEE\_QUERY\_SMILES>  (156) 
S(c1nc2c(cc1C[NH2+]Cc3ccc(cc3)C[NH+](C)C)cccc2)Cc4ccccc4

>  <s_sd_BIOSOLVEIT.INFINISEE\_REACTION\_NAME>  (156) 
m_282030aaa

>  <s_sd_BIOSOLVEIT.INFINISEE\_REAGENT1\_SMILES>  (156) 
[R1*]NCc1cc(ccc1)CN(C)C

>  <s_sd_BIOSOLVEIT.INFINISEE\_REAGENT2\_SMILES>  (156) 
[R2*]c1nc([R1*])c2c(n1)cccc2

>  <s_sd_BIOSOLVEIT.INFINISEE\_REAGENT3\_SMILES>  (156) 
[R2*]NCc1cc(Cl)c(N)cc1

>  <s_sd_BIOSOLVEIT.INFINISEE\_SPACE>  (156) 
REALSpace_44bn_2023-08

>  <s_vsw_compound_code>  (156) 
38785

>  <s_vsw_variant>  (156) 
38785-1

>  <r_epik_Charging_Adjusted_Penalty>  (156) 
0.12044243362958

>  <r_epik_Ionization_Penalty>  (156) 
0.062199999999999998

>  <r_epik_Ionization_Penalty_Charging>  (156) 
0.0608

>  <r_epik_Ionization_Penalty_Neutral>  (156) 
0.0014

>  <r_epik_State_Penalty>  (156) 
0.0596

>  <r_i_docking_score>  (156) 
-3.5418336221492499

>  <r_i_glide_ecoul>  (156) 
-3.6981883049011199

>  <r_i_glide_eff_state_penalty>  (156) 
0.0596

>  <r_i_glide_einternal>  (156) 
2.9002935886383101

>  <r_i_glide_emodel>  (156) 
-48.655321691652503

>  <r_i_glide_energy>  (156) 
-36.2940897941589

>  <r_i_glide_erotb>  (156) 
0.69576385238525196

>  <r_i_glide_esite>  (156) 
-0.144340161474041

>  <r_i_glide_evdw>  (156) 
-32.595901489257798

>  <r_i_glide_gscore>  (156) 
-3.60143362214925

>  <r_i_glide_hbond>  (156) 
0

>  <r_i_glide_ligand_efficiency>  (156) 
-0.110682300692164

>  <r_i_glide_ligand_efficiency_ln>  (156) 
-0.79311309473736402

>  <r_i_glide_ligand_efficiency_sa>  (156) 
-0.35139440070005701

>  <r_i_glide_lipo>  (156) 
-1.6205430383169399

>  <r_i_glide_metal>  (156) 
-0

>  <r_i_glide_rewards>  (156) 
-0.347790954545453

>  <r_lp_Energy>  (156) 
19.327462000000001

>  <r_qp_ACxDN^.5/SA>  (156) 
0.0149382

>  <r_qp_CIQPlogS>  (156) 
-5.9480000000000004

>  <r_qp_EA(eV)>  (156) 
0.52200000000000002

>  <r_qp_FISA>  (156) 
104.23999999999999

>  <r_qp_FOSA>  (156) 
249.28899999999999

>  <r_qp_IP(eV)>  (156) 
7.9669999999999996

>  <r_qp_Jm>  (156) 
0.0014829555048978601

>  <r_qp_PISA>  (156) 
331.46300000000002

>  <r_qp_PSA>  (156) 
71.254000000000005

>  <r_qp_PercentHumanOralAbsorption>  (156) 
95.947000000000003

>  <r_qp_QPPCaco>  (156) 
253.68600000000001

>  <r_qp_QPPMDCK>  (156) 
287.26100000000002

>  <r_qp_QPlogBB>  (156) 
-0.501

>  <r_qp_QPlogHERG>  (156) 
-7.0609999999999999

>  <r_qp_QPlogKhsa>  (156) 
0.66200000000000003

>  <r_qp_QPlogKp>  (156) 
-3.4710000000000001

>  <r_qp_QPlogPC16>  (156) 
15.489000000000001

>  <r_qp_QPlogPo/w>  (156) 
4.4349999999999996

>  <r_qp_QPlogPoct>  (156) 
24.134

>  <r_qp_QPlogPw>  (156) 
13.565

>  <r_qp_QPlogS>  (156) 
-5.008

>  <r_qp_QPpolrz>  (156) 
46.783999999999999

>  <r_qp_SASA>  (156) 
751.42700000000002

>  <r_qp_SAamideO>  (156) 
0

>  <r_qp_SAfluorine>  (156) 
0

>  <r_qp_WPSA>  (156) 
66.435000000000002

>  <r_qp_accptHB>  (156) 
6

>  <r_qp_dip^2/V>  (156) 
0.0065513000000000004

>  <r_qp_dipole>  (156) 
3.016

>  <r_qp_donorHB>  (156) 
3.5

>  <r_qp_glob>  (156) 
0.80086440000000003

>  <r_qp_mol_MW>  (156) 
446.98099999999999

>  <r_qp_volume>  (156) 
1388.1020000000001

>  <r_sd_BIOSOLVEIT.INFINISEE\_FTREES\_SIMILARITY>  (156) 
0.91100000000000003

>  <r_sd_BIOSOLVEIT.LOGP>  (156) 
3.7341000000000002

>  <r_sd_BIOSOLVEIT.MOLECULAR\_WEIGHT>  (156) 
447.99099999999999

>  <r_sd_BIOSOLVEIT.TPSA>  (156) 
80.299999999999997

>  <i_epik_Tot_Q>  (156) 
2

>  <i_epik_Tot_abs_Q>  (156) 
2

>  <i_f3d_flags>  (156) 
0

>  <i_i_glide_confnum>  (156) 
4

>  <i_i_glide_lignum>  (156) 
320

>  <i_i_glide_posenum>  (156) 
3

>  <i_i_glide_rotatable_bonds>  (156) 
8

>  <i_lp_mmshare_version>  (156) 
65135

>  <i_m_ct_format>  (156) 
2

>  <i_m_source_file_index>  (156) 
1213

>  <i_qp_#NandO>  (156) 
6

>  <i_qp_#acid>  (156) 
0

>  <i_qp_#amide>  (156) 
0

>  <i_qp_#amidine>  (156) 
0

>  <i_qp_#amine>  (156) 
1

>  <i_qp_#in34>  (156) 
0

>  <i_qp_#in56>  (156) 
22

>  <i_qp_#metab>  (156) 
6

>  <i_qp_#nonHatm>  (156) 
32

>  <i_qp_#noncon>  (156) 
0

>  <i_qp_#ringatoms>  (156) 
22

>  <i_qp_#rotor>  (156) 
9

>  <i_qp_#rtvFG>  (156) 
0

>  <i_qp_#stars>  (156) 
0

>  <i_qp_CNS>  (156) 
0

>  <i_qp_HumanOralAbsorption>  (156) 
3

>  <i_qp_RuleOfFive>  (156) 
0

>  <i_qp_RuleOfThree>  (156) 
0

>  <i_sd_BIOSOLVEIT.INFINISEE\_REAGENT1\_NAME>  (156) 
21928796

>  <i_sd_BIOSOLVEIT.INFINISEE\_REAGENT2\_NAME>  (156) 
22360182

>  <i_sd_BIOSOLVEIT.INFINISEE\_REAGENT3\_NAME>  (156) 
21968058

>  <i_sd_BIOSOLVEIT.INFINISEE\_RESULT\_RANK>  (156) 
41082

>  <i_sd_version>  (156) 
0

>  <b_lp_Chiralities_Consistent>  (156) 
1

>  <b_sd_chiral_flag>  (156) 
0

>  <canonical_id>  (156) 
ATP-HTVS-18FDFF56F821

>  <compound_code>  (156) 
38785

>  <title>  (156) 
m_282030aaa____21928796____22360182____21968058

>  <variant>  (156) 
38785-1

>  <source_file>  (156) 
运行/运行/ATP-VSW/ATP-VSW-DOCK_HTVS_1-001_lib/ATP-VSW-DOCK_HTVS_1-001_lib

>  <canonical_smiles>  (156) 
C[NH+](C)Cc1cccc(CNc2nc(NCc3ccc(N)c(Cl)c3)c3ccccc3[nH+]2)c1

>  <scaffold>  (156) 
c1ccc(CNc2nc(NCc3ccccc3)c3ccccc3[nH+]2)cc1

>  <molecular_formula>  (156) 
C25H29ClN6+2

$$$$
ATP-HTVS-190A8EA9B17C
     RDKit          3D

 55 57  0  0  0  0  0  0  0  0999 V2000
  196.4861  188.5815  160.4716 Cl  0  0  0  0  0  0  0  0  0  0  0  0
  196.3221  187.0092  159.7817 C   0  0  0  0  0  0  0  0  0  0  0  0
  195.6600  185.9926  160.4940 C   0  0  0  0  0  0  0  0  0  0  0  0
  195.1362  186.2364  161.7196 F   0  0  0  0  0  0  0  0  0  0  0  0
  195.5487  184.7044  159.9382 C   0  0  0  0  0  0  0  0  0  0  0  0
  196.1026  184.4314  158.6743 C   0  0  0  0  0  0  0  0  0  0  0  0
  196.7742  185.4404  157.9490 C   0  0  0  0  0  0  0  0  0  0  0  0
  196.8633  186.7385  158.5056 C   0  0  0  0  0  0  0  0  0  0  0  0
  197.3314  185.1422  156.6230 C   0  0  0  0  0  0  0  0  0  0  0  0
  197.7939  183.8505  156.3221 N   0  0  0  0  0  0  0  0  0  0  0  0
  198.2561  183.7177  155.0749 C   0  0  0  0  0  0  0  0  0  0  0  0
  198.1576  185.2068  154.1537 S   0  0  0  0  0  0  0  0  0  0  0  0
  197.4693  185.9903  155.5504 C   0  0  0  0  0  0  0  0  0  0  0  0
  198.8671  182.4603  154.5213 C   0  0  2  0  0  0  0  0  0  0  0  0
  197.9979  181.3813  155.0550 N   0  0  1  0  0  0  0  0  0  0  0  0
  198.2817  180.0067  154.5709 C   0  0  2  0  0  0  0  0  0  0  0  0
  197.8512  179.7974  153.1191 C   0  0  0  0  0  0  0  0  0  0  0  0
  198.6532  179.0194  152.2524 C   0  0  0  0  0  0  0  0  0  0  0  0
  198.2829  178.8228  150.9010 C   0  0  0  0  0  0  0  0  0  0  0  0
  197.1041  179.4216  150.4115 C   0  0  0  0  0  0  0  0  0  0  0  0
  196.2974  180.1906  151.2697 C   0  0  0  0  0  0  0  0  0  0  0  0
  196.6619  180.3707  152.6180 C   0  0  0  0  0  0  0  0  0  0  0  0
  199.1547  177.9924  149.9663 C   0  0  1  0  0  0  0  0  0  0  0  0
  198.5928  176.6422  149.6981 N   0  0  1  0  0  0  0  0  0  0  0  0
  199.2408  175.9923  148.5369 C   0  0  2  0  0  0  0  0  0  0  0  0
  198.5898  175.7603  150.8894 C   0  0  2  0  0  0  0  0  0  0  0  0
  197.6667  178.9805  155.5184 C   0  0  2  0  0  0  0  0  0  0  0  0
  200.3445  182.3066  154.9289 C   0  0  2  0  0  0  0  0  0  0  0  0
  198.0664  181.4100  156.0629 H   0  0  0  0  0  0  0  0  0  0  0  0
  195.0419  183.9236  160.4851 H   0  0  0  0  0  0  0  0  0  0  0  0
  195.9998  183.4403  158.2580 H   0  0  0  0  0  0  0  0  0  0  0  0
  197.3649  187.5275  157.9641 H   0  0  0  0  0  0  0  0  0  0  0  0
  197.1760  187.0283  155.4837 H   0  0  0  0  0  0  0  0  0  0  0  0
  198.7770  182.4857  153.4349 H   0  0  0  0  0  0  0  0  0  0  0  0
  199.3571  179.8289  154.6177 H   0  0  0  0  0  0  0  0  0  0  0  0
  199.5570  178.5628  152.6282 H   0  0  0  0  0  0  0  0  0  0  0  0
  196.8105  179.2888  149.3779 H   0  0  0  0  0  0  0  0  0  0  0  0
  195.3883  180.6381  150.8896 H   0  0  0  0  0  0  0  0  0  0  0  0
  196.0154  180.9606  153.2493 H   0  0  0  0  0  0  0  0  0  0  0  0
  199.2410  178.5451  149.0281 H   0  0  0  0  0  0  0  0  0  0  0  0
  200.1668  177.9048  150.3667 H   0  0  0  0  0  0  0  0  0  0  0  0
  200.2992  175.8118  148.7289 H   0  0  0  0  0  0  0  0  0  0  0  0
  199.1578  176.6126  147.6436 H   0  0  0  0  0  0  0  0  0  0  0  0
  198.7694  175.0358  148.3121 H   0  0  0  0  0  0  0  0  0  0  0  0
  199.6028  175.5948  151.2588 H   0  0  0  0  0  0  0  0  0  0  0  0
  198.1530  174.7901  150.6545 H   0  0  0  0  0  0  0  0  0  0  0  0
  197.9989  176.1882  151.6968 H   0  0  0  0  0  0  0  0  0  0  0  0
  197.9404  177.9673  155.2279 H   0  0  0  0  0  0  0  0  0  0  0  0
  196.5767  179.0417  155.5587 H   0  0  0  0  0  0  0  0  0  0  0  0
  198.0532  179.1345  156.5282 H   0  0  0  0  0  0  0  0  0  0  0  0
  200.9356  183.1639  154.6054 H   0  0  0  0  0  0  0  0  0  0  0  0
  200.8105  181.4166  154.5022 H   0  0  0  0  0  0  0  0  0  0  0  0
  200.4432  182.2392  156.0103 H   0  0  0  0  0  0  0  0  0  0  0  0
  197.6275  176.7808  149.4340 H   0  0  0  0  0  0  0  0  0  0  0  0
  197.0415  181.6171  154.8338 H   0  0  0  0  0  0  0  0  0  0  0  0
  1  2  1  0
  2  3  2  0
  2  8  1  0
  3  4  1  0
  3  5  1  0
  5  6  2  0
  5 30  1  0
  6  7  1  0
  6 31  1  0
  7  8  2  0
  7  9  1  0
  8 32  1  0
  9 10  1  0
  9 13  2  0
 10 11  2  0
 11 12  1  0
 11 14  1  0
 12 13  1  0
 13 33  1  0
 14 15  1  0
 14 28  1  0
 14 34  1  6
 15 16  1  0
 15 29  1  1
 15 55  1  0
 16 17  1  0
 16 27  1  0
 16 35  1  6
 17 18  1  0
 17 22  2  0
 18 19  2  0
 18 36  1  0
 19 20  1  0
 19 23  1  0
 20 21  2  0
 20 37  1  0
 21 22  1  0
 21 38  1  0
 22 39  1  0
 23 24  1  0
 23 40  1  6
 23 41  1  0
 24 25  1  0
 24 26  1  0
 24 54  1  6
 25 42  1  1
 25 43  1  0
 25 44  1  0
 26 45  1  1
 26 46  1  0
 26 47  1  0
 27 48  1  6
 27 49  1  0
 27 50  1  0
 28 51  1  6
 28 52  1  0
 28 53  1  0
M  CHG  2  15   1  24   1
M  END
>  <s_epik_cmdline>  (157) 
J2VwaWtfcHl0aG9uJywgJy1waCcsICc3LjAwMDAwMCcsICctcGh0JywgJzIuMDAwMDAwJywgJy1tcycsICcxNicsICctdG4nLCAnOCcsICctbWEnLCAnMjAwJywgJy1pbWFlJywgJzxpbmZpbGUubWFlPicsICctb21hZScsICc8b3V0ZmlsZS5tYWU+Jw==

>  <s_epik_input>  (157) 
Q2xjMWMoRilbY0hdW2NIXWMoW2NIXTEpLWMybmMoc1tjSF0yKVtDQEBIXShbQ0gzXSlbTkhdW0NAQEhdKFtDSDNdKWMzW2NIXWMoW2NIXVtjSF1bY0hdMylbQ0gyXU4oW0NIM10pW0NIM10=

>  <s_i_glide_gridfile>  (157) 
ATP-Grid

>  <s_lp_Force_Field>  (157) 
OPLS_2005

>  <s_lp_Variant>  (157) 
m_269862bca____7199958____10542754-3

>  <s_lp_label>  (157) 
979_sdstereoexpander_3_neutralizer_1_epik_1_stereoizer_1

>  <s_m_source_file>  (157) 
ATP-VSW-LIGPREP-001-in.maegz

>  <s_sd_BIOSOLVEIT.INFINISEE\_QUERY\_NAME>  (157) 
Ref-Lig

>  <s_sd_BIOSOLVEIT.INFINISEE\_QUERY\_SMILES>  (157) 
S(c1nc2c(cc1C[NH2+]Cc3ccc(cc3)C[NH+](C)C)cccc2)Cc4ccccc4

>  <s_sd_BIOSOLVEIT.INFINISEE\_REACTION\_NAME>  (157) 
m_269862bca

>  <s_sd_BIOSOLVEIT.INFINISEE\_REAGENT1\_SMILES>  (157) 
[R1*]NC(C=1SC=C(N1)c2cc(Cl)c(F)cc2)C

>  <s_sd_BIOSOLVEIT.INFINISEE\_REAGENT2\_SMILES>  (157) 
[R1*]C(c1cc(ccc1)CN(C)C)C

>  <s_sd_BIOSOLVEIT.INFINISEE\_SPACE>  (157) 
REALSpace_44bn_2023-08

>  <s_vsw_compound_code>  (157) 
31297

>  <s_vsw_variant>  (157) 
31297-3

>  <r_epik_Charging_Adjusted_Penalty>  (157) 
0.76689264480958996

>  <r_epik_Ionization_Penalty>  (157) 
0.38650000000000001

>  <r_epik_Ionization_Penalty_Charging>  (157) 
0.38650000000000001

>  <r_epik_Ionization_Penalty_Neutral>  (157) 
0

>  <r_epik_State_Penalty>  (157) 
0.38040000000000002

>  <r_i_docking_score>  (157) 
-5.3177425188778704

>  <r_i_glide_ecoul>  (157) 
-8.6796102523803693

>  <r_i_glide_eff_state_penalty>  (157) 
0.38040000000000002

>  <r_i_glide_einternal>  (157) 
2.6875088214874299

>  <r_i_glide_emodel>  (157) 
-62.818145764749701

>  <r_i_glide_energy>  (157) 
-41.037638664245598

>  <r_i_glide_erotb>  (157) 
0.67311463417191897

>  <r_i_glide_esite>  (157) 
-0.019079724834923099

>  <r_i_glide_evdw>  (157) 
-32.358028411865199

>  <r_i_glide_gscore>  (157) 
-5.6981425188778703

>  <r_i_glide_hbond>  (157) 
0

>  <r_i_glide_ligand_efficiency>  (157) 
-0.18991937567420999

>  <r_i_glide_ligand_efficiency_ln>  (157) 
-1.2274911090618901

>  <r_i_glide_ligand_efficiency_sa>  (157) 
-0.576707081077248

>  <r_i_glide_lipo>  (157) 
-2.3825798509517999

>  <r_i_glide_metal>  (157) 
-0

>  <r_i_glide_rewards>  (157) 
-1.04975461881275

>  <r_lp_Energy>  (157) 
10.645872000000001

>  <r_qp_ACxDN^.5/SA>  (157) 
0.0075247999999999999

>  <r_qp_CIQPlogS>  (157) 
-4.6399999999999997

>  <r_qp_EA(eV)>  (157) 
1.1040000000000001

>  <r_qp_FISA>  (157) 
10.058999999999999

>  <r_qp_FOSA>  (157) 
346.60000000000002

>  <r_qp_IP(eV)>  (157) 
9.1120000000000001

>  <r_qp_Jm>  (157) 
0.0019309549877269

>  <r_qp_PISA>  (157) 
175.86600000000001

>  <r_qp_PSA>  (157) 
24.728999999999999

>  <r_qp_PercentHumanOralAbsorption>  (157) 
100

>  <r_qp_QPPCaco>  (157) 
494.66800000000001

>  <r_qp_QPPMDCK>  (157) 
1494.5329999999999

>  <r_qp_QPlogBB>  (157) 
1.2310000000000001

>  <r_qp_QPlogHERG>  (157) 
-6.2009999999999996

>  <r_qp_QPlogKhsa>  (157) 
0.85099999999999998

>  <r_qp_QPlogKp>  (157) 
-4.6340000000000003

>  <r_qp_QPlogPC16>  (157) 
11.9

>  <r_qp_QPlogPo/w>  (157) 
4.758

>  <r_qp_QPlogPoct>  (157) 
18.379999999999999

>  <r_qp_QPlogPw>  (157) 
7.6950000000000003

>  <r_qp_QPlogS>  (157) 
-3.7010000000000001

>  <r_qp_QPpolrz>  (157) 
42.453000000000003

>  <r_qp_SASA>  (157) 
664.47199999999998

>  <r_qp_SAamideO>  (157) 
0

>  <r_qp_SAfluorine>  (157) 
41.363

>  <r_qp_WPSA>  (157) 
131.947

>  <r_qp_accptHB>  (157) 
5

>  <r_qp_dip^2/V>  (157) 
0.0107019

>  <r_qp_dipole>  (157) 
3.6850000000000001

>  <r_qp_donorHB>  (157) 
1

>  <r_qp_glob>  (157) 
0.85303680000000004

>  <r_qp_mol_MW>  (157) 
417.971

>  <r_qp_volume>  (157) 
1268.875

>  <r_sd_BIOSOLVEIT.INFINISEE\_FTREES\_SIMILARITY>  (157) 
0.91600000000000004

>  <r_sd_BIOSOLVEIT.LOGP>  (157) 
3.6326999999999998

>  <r_sd_BIOSOLVEIT.MOLECULAR\_WEIGHT>  (157) 
419.99200000000002

>  <r_sd_BIOSOLVEIT.TPSA>  (157) 
33.939999999999998

>  <i_epik_Tot_Q>  (157) 
2

>  <i_epik_Tot_abs_Q>  (157) 
2

>  <i_f3d_flags>  (157) 
0

>  <i_i_glide_confnum>  (157) 
3

>  <i_i_glide_lignum>  (157) 
200

>  <i_i_glide_posenum>  (157) 
10

>  <i_i_glide_rotatable_bonds>  (157) 
7

>  <i_lp_mmshare_version>  (157) 
65135

>  <i_m_ct_format>  (157) 
2

>  <i_m_source_file_index>  (157) 
979

>  <i_qp_#NandO>  (157) 
3

>  <i_qp_#acid>  (157) 
0

>  <i_qp_#amide>  (157) 
0

>  <i_qp_#amidine>  (157) 
0

>  <i_qp_#amine>  (157) 
2

>  <i_qp_#in34>  (157) 
0

>  <i_qp_#in56>  (157) 
17

>  <i_qp_#metab>  (157) 
7

>  <i_qp_#nonHatm>  (157) 
28

>  <i_qp_#noncon>  (157) 
0

>  <i_qp_#ringatoms>  (157) 
17

>  <i_qp_#rotor>  (157) 
6

>  <i_qp_#rtvFG>  (157) 
0

>  <i_qp_#stars>  (157) 
1

>  <i_qp_CNS>  (157) 
2

>  <i_qp_HumanOralAbsorption>  (157) 
3

>  <i_qp_RuleOfFive>  (157) 
0

>  <i_qp_RuleOfThree>  (157) 
1

>  <i_sd_BIOSOLVEIT.INFINISEE\_REAGENT1\_NAME>  (157) 
7199958

>  <i_sd_BIOSOLVEIT.INFINISEE\_REAGENT2\_NAME>  (157) 
10542754

>  <i_sd_BIOSOLVEIT.INFINISEE\_RESULT\_RANK>  (157) 
24522

>  <i_sd_version>  (157) 
0

>  <b_lp_Chiralities_Consistent>  (157) 
1

>  <b_sd_chiral_flag>  (157) 
0

>  <canonical_id>  (157) 
ATP-HTVS-190A8EA9B17C

>  <compound_code>  (157) 
31297

>  <title>  (157) 
m_269862bca____7199958____10542754

>  <variant>  (157) 
31297-3

>  <source_file>  (157) 
运行/运行/ATP-VSW/ATP-VSW-DOCK_HTVS_1-001_lib/ATP-VSW-DOCK_HTVS_1-001_lib

>  <canonical_smiles>  (157) 
C[C@H]([NH2+][C@H](C)c1nc(-c2ccc(F)c(Cl)c2)cs1)c1cccc(C[NH+](C)C)c1

>  <scaffold>  (157) 
c1ccc(C[NH2+]Cc2nc(-c3ccccc3)cs2)cc1

>  <molecular_formula>  (157) 
C22H27ClFN3S+2

$$$$
ATP-HTVS-1928ECDAF189
     RDKit          3D

 64 67  0  0  0  0  0  0  0  0999 V2000
  197.5074  187.7779  157.0717 O   0  0  0  0  0  0  0  0  0  0  0  0
  198.3884  187.1279  156.5106 C   0  0  0  0  0  0  0  0  0  0  0  0
  198.9709  186.0288  157.0755 N   0  0  0  0  0  0  0  0  0  0  0  0
  198.6783  185.6790  158.4833 C   0  0  1  0  0  0  0  0  0  0  0  0
  197.3998  184.8550  158.7176 C   0  0  0  0  0  0  0  0  0  0  0  0
  197.4272  183.4622  158.4227 C   0  0  0  0  0  0  0  0  0  0  0  0
  196.2890  182.6751  158.6305 C   0  0  0  0  0  0  0  0  0  0  0  0
  195.0782  183.2827  159.0652 C   0  0  0  0  0  0  0  0  0  0  0  0
  195.0457  184.6471  159.3665 C   0  0  0  0  0  0  0  0  0  0  0  0
  196.2056  185.4448  159.1816 C   0  0  0  0  0  0  0  0  0  0  0  0
  200.0487  185.2475  156.4229 C   0  0  2  0  0  0  0  0  0  0  0  0
  198.8813  187.5865  155.1669 C   0  0  0  0  0  0  0  0  0  0  0  0
  198.9489  186.9530  153.8878 C   0  0  0  0  0  0  0  0  0  0  0  0
  199.5108  187.7219  152.9729 N   0  0  0  0  0  0  0  0  0  0  0  0
  199.7544  188.8996  153.6092 N   0  0  0  0  0  0  0  0  0  0  0  0
  199.3681  188.8520  154.9622 C   0  0  0  0  0  0  0  0  0  0  0  0
  199.5510  190.0273  155.7375 C   0  0  0  0  0  0  0  0  0  0  0  0
  200.0696  191.1548  155.1411 C   0  0  0  0  0  0  0  0  0  0  0  0
  200.4412  191.1437  153.7734 C   0  0  0  0  0  0  0  0  0  0  0  0
  200.2821  190.0054  153.0197 C   0  0  0  0  0  0  0  0  0  0  0  0
  198.4637  185.5824  153.5505 C   0  0  0  0  0  0  0  0  0  0  0  0
  198.9241  184.9430  152.6101 O   0  0  0  0  0  0  0  0  0  0  0  0
  197.4825  185.1161  154.3475 N   0  0  0  0  0  0  0  0  0  0  0  0
  196.9460  183.7597  154.3203 C   0  0  1  0  0  0  0  0  0  0  0  0
  197.8331  182.7033  154.9672 C   0  0  0  0  0  0  0  0  0  0  0  0
  197.3492  182.0027  156.0932 C   0  0  0  0  0  0  0  0  0  0  0  0
  198.1753  181.0417  156.7228 C   0  0  0  0  0  0  0  0  0  0  0  0
  199.4466  180.7251  156.2000 C   0  0  0  0  0  0  0  0  0  0  0  0
  199.9258  181.4124  155.0600 C   0  0  0  0  0  0  0  0  0  0  0  0
  199.1126  182.3843  154.4330 C   0  0  0  0  0  0  0  0  0  0  0  0
  200.2843  179.6216  156.8333 C   0  0  1  0  0  0  0  0  0  0  0  0
  199.6677  178.2934  156.5927 N   0  0  1  0  0  0  0  0  0  0  0  0
  199.4192  178.0205  155.1580 C   0  0  2  0  0  0  0  0  0  0  0  0
  200.4171  177.1948  157.2415 C   0  0  2  0  0  0  0  0  0  0  0  0
  199.5011  185.0917  158.8743 H   0  0  0  0  0  0  0  0  0  0  0  0
  198.6410  186.5671  159.0970 H   0  0  0  0  0  0  0  0  0  0  0  0
  198.3682  182.9923  158.0734 H   0  0  0  0  0  0  0  0  0  0  0  0
  196.3008  181.6122  158.4052 H   0  0  0  0  0  0  0  0  0  0  0  0
  194.2016  182.6538  159.1328 H   0  0  0  0  0  0  0  0  0  0  0  0
  194.1178  185.0899  159.6935 H   0  0  0  0  0  0  0  0  0  0  0  0
  196.1685  186.5009  159.3808 H   0  0  0  0  0  0  0  0  0  0  0  0
  199.6605  184.7166  155.5570 H   0  0  0  0  0  0  0  0  0  0  0  0
  200.4722  184.4792  157.0734 H   0  0  0  0  0  0  0  0  0  0  0  0
  200.8662  185.8925  156.0809 H   0  0  0  0  0  0  0  0  0  0  0  0
  199.2447  190.0365  156.7796 H   0  0  0  0  0  0  0  0  0  0  0  0
  200.1940  192.0600  155.7257 H   0  0  0  0  0  0  0  0  0  0  0  0
  200.8587  192.0332  153.3120 H   0  0  0  0  0  0  0  0  0  0  0  0
  200.5433  189.9265  151.9692 H   0  0  0  0  0  0  0  0  0  0  0  0
  197.0993  185.7816  155.0101 H   0  0  0  0  0  0  0  0  0  0  0  0
  196.0232  183.8046  154.8891 H   0  0  0  0  0  0  0  0  0  0  0  0
  196.6991  183.4690  153.3020 H   0  0  0  0  0  0  0  0  0  0  0  0
  196.3253  182.1539  156.5105 H   0  0  0  0  0  0  0  0  0  0  0  0
  197.8190  180.5092  157.5924 H   0  0  0  0  0  0  0  0  0  0  0  0
  200.9009  181.1584  154.6314 H   0  0  0  0  0  0  0  0  0  0  0  0
  199.5134  182.8852  153.5629 H   0  0  0  0  0  0  0  0  0  0  0  0
  201.2917  179.6369  156.3980 H   0  0  0  0  0  0  0  0  0  0  0  0
  200.4188  179.7945  157.9064 H   0  0  0  0  0  0  0  0  0  0  0  0
  200.3565  178.0025  154.6020 H   0  0  0  0  0  0  0  0  0  0  0  0
  198.7718  178.7710  154.7023 H   0  0  0  0  0  0  0  0  0  0  0  0
  198.9235  177.0625  155.0306 H   0  0  0  0  0  0  0  0  0  0  0  0
  201.4309  177.1297  156.8488 H   0  0  0  0  0  0  0  0  0  0  0  0
  199.9184  176.2437  157.0592 H   0  0  0  0  0  0  0  0  0  0  0  0
  200.4678  177.3462  158.3192 H   0  0  0  0  0  0  0  0  0  0  0  0
  198.7579  178.2951  157.0587 H   0  0  0  0  0  0  0  0  0  0  0  0
  1  2  2  0
  2  3  1  0
  2 12  1  0
  3  4  1  0
  3 11  1  0
  4  5  1  0
  4 35  1  1
  4 36  1  0
  5  6  2  0
  5 10  1  0
  6  7  1  0
  6 37  1  0
  7  8  2  0
  7 38  1  0
  8  9  1  0
  8 39  1  0
  9 10  2  0
  9 40  1  0
 10 41  1  0
 11 42  1  6
 11 43  1  0
 11 44  1  0
 12 13  1  0
 12 16  2  0
 13 14  2  0
 13 21  1  0
 14 15  1  0
 15 16  1  0
 15 20  1  0
 16 17  1  0
 17 18  2  0
 17 45  1  0
 18 19  1  0
 18 46  1  0
 19 20  2  0
 19 47  1  0
 20 48  1  0
 21 22  2  0
 21 23  1  0
 23 24  1  0
 23 49  1  0
 24 25  1  0
 24 50  1  1
 24 51  1  0
 25 26  1  0
 25 30  2  0
 26 27  2  0
 26 52  1  0
 27 28  1  0
 27 53  1  0
 28 29  2  0
 28 31  1  0
 29 30  1  0
 29 54  1  0
 30 55  1  0
 31 32  1  0
 31 56  1  6
 31 57  1  0
 32 33  1  0
 32 34  1  0
 32 64  1  1
 33 58  1  6
 33 59  1  0
 33 60  1  0
 34 61  1  6
 34 62  1  0
 34 63  1  0
M  CHG  1  32   1
M  END
>  <s_epik_cmdline>  (158) 
J2VwaWtfcHl0aG9uJywgJy1waCcsICc3LjAwMDAwMCcsICctcGh0JywgJzIuMDAwMDAwJywgJy1tcycsICcxNicsICctdG4nLCAnOCcsICctbWEnLCAnMjAwJywgJy1pbWFlJywgJzxpbmZpbGUubWFlPicsICctb21hZScsICc8b3V0ZmlsZS5tYWU+Jw==

>  <s_epik_input>  (158) 
W2NIXTFbY0hdW2NIXVtjSF1bY0hdYzFbQ0gyXU4oW0NIM10pQyg9TyljKGMobjIzKVtjSF1bY0hdW2NIXVtjSF0zKWMobjIpQyg9TylbTkhdW0NIMl1jNFtjSF1bY0hdYyhbY0hdW2NIXTQpW0NIMl1OKFtDSDNdKVtDSDNd

>  <s_i_glide_gridfile>  (158) 
ATP-Grid

>  <s_lp_Force_Field>  (158) 
OPLS_2005

>  <s_lp_Variant>  (158) 
WXCD003____AN0033____LN05333710____AK00809-1

>  <s_lp_label>  (158) 
626_sdstereoexpander_1_neutralizer_1_epik_1_stereoizer_1

>  <s_m_source_file>  (158) 
ATP-VSW-LIGPREP-003-in.maegz

>  <s_sd_BIOSOLVEIT.INFINISEE\_QUERY\_NAME>  (158) 
Ref-Lig

>  <s_sd_BIOSOLVEIT.INFINISEE\_QUERY\_SMILES>  (158) 
S(c1nc2c(cc1C[NH2+]Cc3ccc(cc3)C[NH+](C)C)cccc2)Cc4ccccc4

>  <s_sd_BIOSOLVEIT.INFINISEE\_REACTION\_NAME>  (158) 
WXCD003

>  <s_sd_BIOSOLVEIT.INFINISEE\_REAGENT1\_NAME>  (158) 
AN0033

>  <s_sd_BIOSOLVEIT.INFINISEE\_REAGENT1\_SMILES>  (158) 
N(Cc1ccccc1)C

>  <s_sd_BIOSOLVEIT.INFINISEE\_REAGENT2\_NAME>  (158) 
LN05333710

>  <s_sd_BIOSOLVEIT.INFINISEE\_REAGENT2\_SMILES>  (158) 
O=C(OC)C=1C(=NN2C1C=CC=C2)C(=O)O

>  <s_sd_BIOSOLVEIT.INFINISEE\_REAGENT3\_NAME>  (158) 
AK00809

>  <s_sd_BIOSOLVEIT.INFINISEE\_REAGENT3\_SMILES>  (158) 
N(Cc1ccc(cc1)CN)(C)C

>  <s_sd_BIOSOLVEIT.INFINISEE\_SPACE>  (158) 
GalaXi_12bn_2023-03

>  <s_vsw_compound_code>  (158) 
20003

>  <s_vsw_variant>  (158) 
20003-1

>  <r_epik_Charging_Adjusted_Penalty>  (158) 
0.0903365638524595

>  <r_epik_Ionization_Penalty>  (158) 
0.045199999999999997

>  <r_epik_Ionization_Penalty_Charging>  (158) 
0.045199999999999997

>  <r_epik_Ionization_Penalty_Neutral>  (158) 
0

>  <r_epik_State_Penalty>  (158) 
0.045199999999999997

>  <r_i_docking_score>  (158) 
-3.7376900927582102

>  <r_i_glide_ecoul>  (158) 
-8.79156398773193

>  <r_i_glide_eff_state_penalty>  (158) 
0.045199999999999997

>  <r_i_glide_einternal>  (158) 
2.9069671630859402

>  <r_i_glide_emodel>  (158) 
-52.8867394326439

>  <r_i_glide_energy>  (158) 
-40.921950340271003

>  <r_i_glide_erotb>  (158) 
0.77134249875098504

>  <r_i_glide_esite>  (158) 
-0.10000000000000001

>  <r_i_glide_evdw>  (158) 
-32.130386352539098

>  <r_i_glide_gscore>  (158) 
-3.7828900927582101

>  <r_i_glide_hbond>  (158) 
-0.20000000000000001

>  <r_i_glide_ligand_efficiency>  (158) 
-0.10993206155171199

>  <r_i_glide_ligand_efficiency_ln>  (158) 
-0.82576058014626796

>  <r_i_glide_ligand_efficiency_sa>  (158) 
-0.35613720352306599

>  <r_i_glide_lipo>  (158) 
-0.85860903422906198

>  <r_i_glide_metal>  (158) 
-0

>  <r_i_glide_rewards>  (158) 
-0.470369641493388

>  <r_lp_Energy>  (158) 
23.723185999999998

>  <r_qp_ACxDN^.5/SA>  (158) 
0.012027100000000001

>  <r_qp_CIQPlogS>  (158) 
-5.2670000000000003

>  <r_qp_EA(eV)>  (158) 
0.86299999999999999

>  <r_qp_FISA>  (158) 
82.593999999999994

>  <r_qp_FOSA>  (158) 
231.696

>  <r_qp_IP(eV)>  (158) 
8.9139999999999997

>  <r_qp_Jm>  (158) 
0.18484491768175201

>  <r_qp_PISA>  (158) 
392.447

>  <r_qp_PSA>  (158) 
79.281999999999996

>  <r_qp_PercentHumanOralAbsorption>  (158) 
96.427999999999997

>  <r_qp_QPPCaco>  (158) 
406.97199999999998

>  <r_qp_QPPMDCK>  (158) 
207.11699999999999

>  <r_qp_QPlogBB>  (158) 
-0.27000000000000002

>  <r_qp_QPlogHERG>  (158) 
-6.4480000000000004

>  <r_qp_QPlogKhsa>  (158) 
0.40799999999999997

>  <r_qp_QPlogKp>  (158) 
-2.9540000000000002

>  <r_qp_QPlogPC16>  (158) 
14.715999999999999

>  <r_qp_QPlogPo/w>  (158) 
3.8900000000000001

>  <r_qp_QPlogPoct>  (158) 
23.225000000000001

>  <r_qp_QPlogPw>  (158) 
12.723000000000001

>  <r_qp_QPlogS>  (158) 
-3.4380000000000002

>  <r_qp_QPpolrz>  (158) 
48.523000000000003

>  <r_qp_SASA>  (158) 
706.73699999999997

>  <r_qp_SAamideO>  (158) 
0

>  <r_qp_SAfluorine>  (158) 
0

>  <r_qp_WPSA>  (158) 
0

>  <r_qp_accptHB>  (158) 
8.5

>  <r_qp_dip^2/V>  (158) 
0.066645999999999997

>  <r_qp_dipole>  (158) 
9.6630000000000003

>  <r_qp_donorHB>  (158) 
1

>  <r_qp_glob>  (158) 
0.85674910000000004

>  <r_qp_mol_MW>  (158) 
455.55799999999999

>  <r_qp_volume>  (158) 
1400.9390000000001

>  <r_sd_BIOSOLVEIT.INFINISEE\_FTREES\_SIMILARITY>  (158) 
0.91800000000000004

>  <r_sd_BIOSOLVEIT.LOGP>  (158) 
2.181

>  <r_sd_BIOSOLVEIT.MOLECULAR\_WEIGHT>  (158) 
456.56700000000001

>  <r_sd_BIOSOLVEIT.TPSA>  (158) 
71.670000000000002

>  <i_epik_Tot_Q>  (158) 
1

>  <i_epik_Tot_abs_Q>  (158) 
1

>  <i_f3d_flags>  (158) 
0

>  <i_i_glide_confnum>  (158) 
6

>  <i_i_glide_lignum>  (158) 
251

>  <i_i_glide_posenum>  (158) 
12

>  <i_i_glide_rotatable_bonds>  (158) 
10

>  <i_lp_mmshare_version>  (158) 
65135

>  <i_m_ct_format>  (158) 
2

>  <i_m_source_file_index>  (158) 
626

>  <i_qp_#NandO>  (158) 
7

>  <i_qp_#acid>  (158) 
0

>  <i_qp_#amide>  (158) 
0

>  <i_qp_#amidine>  (158) 
0

>  <i_qp_#amine>  (158) 
1

>  <i_qp_#in34>  (158) 
0

>  <i_qp_#in56>  (158) 
21

>  <i_qp_#metab>  (158) 
4

>  <i_qp_#nonHatm>  (158) 
34

>  <i_qp_#noncon>  (158) 
0

>  <i_qp_#ringatoms>  (158) 
21

>  <i_qp_#rotor>  (158) 
8

>  <i_qp_#rtvFG>  (158) 
0

>  <i_qp_#stars>  (158) 
0

>  <i_qp_CNS>  (158) 
1

>  <i_qp_HumanOralAbsorption>  (158) 
3

>  <i_qp_RuleOfFive>  (158) 
0

>  <i_qp_RuleOfThree>  (158) 
0

>  <i_sd_BIOSOLVEIT.INFINISEE\_RESULT\_RANK>  (158) 
21031

>  <i_sd_version>  (158) 
0

>  <b_lp_Chiralities_Consistent>  (158) 
1

>  <b_sd_chiral_flag>  (158) 
0

>  <canonical_id>  (158) 
ATP-HTVS-1928ECDAF189

>  <compound_code>  (158) 
20003

>  <title>  (158) 
WXCD003____AN0033____LN05333710____AK00809

>  <variant>  (158) 
20003-1

>  <source_file>  (158) 
运行/运行/ATP-VSW/ATP-VSW-DOCK_HTVS_1-003_lib/ATP-VSW-DOCK_HTVS_1-003_lib.mae

>  <canonical_smiles>  (158) 
CN(Cc1ccccc1)C(=O)c1c(C(=O)NCc2ccc(C[NH+](C)C)cc2)nn2ccccc12

>  <scaffold>  (158) 
O=C(NCc1ccccc1)c1nn2ccccc2c1C(=O)NCc1ccccc1

>  <molecular_formula>  (158) 
C27H30N5O2+

$$$$
ATP-HTVS-193F5213E1F4
     RDKit          3D

 59 62  0  0  0  0  0  0  0  0999 V2000
  198.5404  185.8917  158.9238 F   0  0  0  0  0  0  0  0  0  0  0  0
  197.9735  184.9109  158.1843 C   0  0  0  0  0  0  0  0  0  0  0  0
  197.0187  184.0566  158.7773 C   0  0  0  0  0  0  0  0  0  0  0  0
  196.4207  183.0250  158.0177 C   0  0  0  0  0  0  0  0  0  0  0  0
  196.7653  182.8698  156.6672 C   0  0  0  0  0  0  0  0  0  0  0  0
  197.7090  183.7551  156.0728 C   0  0  0  0  0  0  0  0  0  0  0  0
  198.3271  184.7568  156.8345 C   0  0  0  0  0  0  0  0  0  0  0  0
  196.1238  181.7690  155.8366 C   0  0  1  0  0  0  0  0  0  0  0  0
  196.9200  180.5041  155.7610 N   0  0  1  0  0  0  0  0  0  0  0  0
  198.3975  180.5786  155.6018 C   0  0  1  0  0  0  0  0  0  0  0  0
  198.8922  179.6712  154.4890 C   0  0  0  0  0  0  0  0  0  0  0  0
  199.6260  178.5267  154.8204 N   0  0  0  0  0  0  0  0  0  0  0  0
  199.9749  177.9435  153.5762 C   0  0  0  0  0  0  0  0  0  0  0  0
  199.4952  178.6474  152.5672 N   0  0  0  0  0  0  0  0  0  0  0  0
  198.8453  179.7444  153.1213 C   0  0  0  0  0  0  0  0  0  0  0  0
  198.2086  180.7269  152.1806 C   0  0  0  0  0  0  0  0  0  0  0  0
  198.3957  180.7232  150.7830 C   0  0  0  0  0  0  0  0  0  0  0  0
  197.7298  181.7131  149.9926 C   0  0  0  0  0  0  0  0  0  0  0  0
  196.8528  182.6796  150.5675 C   0  0  0  0  0  0  0  0  0  0  0  0
  196.2516  183.6257  149.8085 F   0  0  0  0  0  0  0  0  0  0  0  0
  196.6662  182.6566  151.9550 C   0  0  0  0  0  0  0  0  0  0  0  0
  197.3881  181.7271  152.7066 C   0  0  0  0  0  0  0  0  0  0  0  0
  200.7384  176.7502  153.5960 C   0  0  0  0  0  0  0  0  0  0  0  0
  201.1116  176.2056  154.7968 C   0  0  0  0  0  0  0  0  0  0  0  0
  200.7334  176.8229  156.0092 C   0  0  0  0  0  0  0  0  0  0  0  0
  199.9935  177.9762  156.0040 C   0  0  0  0  0  0  0  0  0  0  0  0
  201.1550  176.2337  157.3237 C   0  0  2  0  0  0  0  0  0  0  0  0
  195.4175  182.0842  158.6710 C   0  0  1  0  0  0  0  0  0  0  0  0
  194.0319  182.3010  158.1504 N   0  0  2  0  0  0  0  0  0  0  0  0
  193.3986  183.5307  158.6580 C   0  0  2  0  0  0  0  0  0  0  0  0
  193.1798  181.1029  158.2920 C   0  0  2  0  0  0  0  0  0  0  0  0
  196.7271  179.9714  156.6167 H   0  0  0  0  0  0  0  0  0  0  0  0
  196.7509  184.1854  159.8150 H   0  0  0  0  0  0  0  0  0  0  0  0
  197.9997  183.6566  155.0379 H   0  0  0  0  0  0  0  0  0  0  0  0
  199.0795  185.3997  156.3831 H   0  0  0  0  0  0  0  0  0  0  0  0
  195.1812  181.4037  156.2203 H   0  0  0  0  0  0  0  0  0  0  0  0
  195.8137  182.2859  154.9261 H   0  0  0  0  0  0  0  0  0  0  0  0
  198.7868  181.5479  155.3262 H   0  0  0  0  0  0  0  0  0  0  0  0
  198.8660  180.4126  156.5714 H   0  0  0  0  0  0  0  0  0  0  0  0
  199.0704  180.0011  150.3448 H   0  0  0  0  0  0  0  0  0  0  0  0
  197.9126  181.7238  148.9281 H   0  0  0  0  0  0  0  0  0  0  0  0
  196.0196  183.3754  152.4479 H   0  0  0  0  0  0  0  0  0  0  0  0
  197.3803  181.7927  153.7549 H   0  0  0  0  0  0  0  0  0  0  0  0
  201.0068  176.2976  152.6505 H   0  0  0  0  0  0  0  0  0  0  0  0
  201.6993  175.2944  154.8032 H   0  0  0  0  0  0  0  0  0  0  0  0
  199.6782  178.4547  156.9304 H   0  0  0  0  0  0  0  0  0  0  0  0
  200.4875  176.5656  158.1217 H   0  0  0  0  0  0  0  0  0  0  0  0
  202.1476  176.6020  157.5620 H   0  0  0  0  0  0  0  0  0  0  0  0
  201.1724  175.1455  157.2713 H   0  0  0  0  0  0  0  0  0  0  0  0
  195.7518  181.0548  158.5060 H   0  0  0  0  0  0  0  0  0  0  0  0
  195.4336  182.2216  159.7393 H   0  0  0  0  0  0  0  0  0  0  0  0
  193.2863  183.5110  159.7337 H   0  0  0  0  0  0  0  0  0  0  0  0
  192.4084  183.6157  158.2119 H   0  0  0  0  0  0  0  0  0  0  0  0
  193.9824  184.4166  158.4022 H   0  0  0  0  0  0  0  0  0  0  0  0
  193.0411  180.8444  159.3309 H   0  0  0  0  0  0  0  0  0  0  0  0
  193.6427  180.2471  157.8056 H   0  0  0  0  0  0  0  0  0  0  0  0
  192.2042  181.2475  157.8246 H   0  0  0  0  0  0  0  0  0  0  0  0
  194.0619  182.4505  157.1419 H   0  0  0  0  0  0  0  0  0  0  0  0
  196.5658  179.9234  155.0235 H   0  0  0  0  0  0  0  0  0  0  0  0
  1  2  1  0
  2  3  2  0
  2  7  1  0
  3  4  1  0
  3 33  1  0
  4  5  2  0
  4 28  1  0
  5  6  1  0
  5  8  1  0
  6  7  2  0
  6 34  1  0
  7 35  1  0
  8  9  1  0
  8 36  1  1
  8 37  1  0
  9 10  1  0
  9 32  1  1
  9 59  1  0
 10 11  1  0
 10 38  1  6
 10 39  1  0
 11 12  1  0
 11 15  2  0
 12 13  1  0
 12 26  1  0
 13 14  2  0
 13 23  1  0
 14 15  1  0
 15 16  1  0
 16 17  1  0
 16 22  2  0
 17 18  2  0
 17 40  1  0
 18 19  1  0
 18 41  1  0
 19 20  1  0
 19 21  2  0
 21 22  1  0
 21 42  1  0
 22 43  1  0
 23 24  2  0
 23 44  1  0
 24 25  1  0
 24 45  1  0
 25 26  2  0
 25 27  1  0
 26 46  1  0
 27 47  1  1
 27 48  1  0
 27 49  1  0
 28 29  1  0
 28 50  1  1
 28 51  1  0
 29 30  1  0
 29 31  1  0
 29 58  1  6
 30 52  1  1
 30 53  1  0
 30 54  1  0
 31 55  1  1
 31 56  1  0
 31 57  1  0
M  CHG  2   9   1  29   1
M  END
>  <s_epik_cmdline>  (159) 
J2VwaWtfcHl0aG9uJywgJy1waCcsICc3LjAwMDAwMCcsICctcGh0JywgJzIuMDAwMDAwJywgJy1tcycsICcxNicsICctdG4nLCAnOCcsICctbWEnLCAnMjAwJywgJy1pbWFlJywgJzxpbmZpbGUubWFlPicsICctb21hZScsICc8b3V0ZmlsZS5tYWU+Jw==

>  <s_epik_input>  (159) 
RmMxW2NIXWMoW0NIMl1OKFtDSDNdKVtDSDNdKWMoW2NIXVtjSF0xKVtDSDJdW05IXVtDSDJdYzJjKG5jKG4yMylbY0hdW2NIXWMoW2NIXTMpW0NIM10pLWM0W2NIXVtjSF1jKEYpW2NIXVtjSF00

>  <s_i_glide_gridfile>  (159) 
ATP-Grid

>  <s_lp_Force_Field>  (159) 
OPLS_2005

>  <s_lp_Variant>  (159) 
m_270004bbb____24792668____13441680-1

>  <s_lp_label>  (159) 
1978_sdstereoexpander_1_neutralizer_1_epik_1_stereoizer_1

>  <s_m_source_file>  (159) 
ATP-VSW-LIGPREP-002-in.maegz

>  <s_sd_BIOSOLVEIT.INFINISEE\_QUERY\_NAME>  (159) 
Ref-Lig

>  <s_sd_BIOSOLVEIT.INFINISEE\_QUERY\_SMILES>  (159) 
S(c1nc2c(cc1C[NH2+]Cc3ccc(cc3)C[NH+](C)C)cccc2)Cc4ccccc4

>  <s_sd_BIOSOLVEIT.INFINISEE\_REACTION\_NAME>  (159) 
m_270004bbb

>  <s_sd_BIOSOLVEIT.INFINISEE\_REAGENT1\_SMILES>  (159) 
[R1*]NCc1c(cc(F)cc1)CN(C)C

>  <s_sd_BIOSOLVEIT.INFINISEE\_REAGENT2\_SMILES>  (159) 
[R1*]CC=1N2C(=NC1c3ccc(F)cc3)C=CC(=C2)C

>  <s_sd_BIOSOLVEIT.INFINISEE\_SPACE>  (159) 
REALSpace_44bn_2023-08

>  <s_vsw_compound_code>  (159) 
63266

>  <s_vsw_variant>  (159) 
63266-1

>  <r_epik_Charging_Adjusted_Penalty>  (159) 
0.99826250121271498

>  <r_epik_Ionization_Penalty>  (159) 
0.47520000000000001

>  <r_epik_Ionization_Penalty_Charging>  (159) 
0.47520000000000001

>  <r_epik_Ionization_Penalty_Neutral>  (159) 
0

>  <r_epik_State_Penalty>  (159) 
0.52310000000000001

>  <r_i_docking_score>  (159) 
-5.4077521026513997

>  <r_i_glide_ecoul>  (159) 
-18.466453552246101

>  <r_i_glide_eff_state_penalty>  (159) 
0.52310000000000001

>  <r_i_glide_einternal>  (159) 
5.0479717254638699

>  <r_i_glide_emodel>  (159) 
-76.687189485005703

>  <r_i_glide_energy>  (159) 
-48.110519409179702

>  <r_i_glide_erotb>  (159) 
0.66585454230110996

>  <r_i_glide_esite>  (159) 
-0.22198540244475401

>  <r_i_glide_evdw>  (159) 
-29.644065856933601

>  <r_i_glide_gscore>  (159) 
-5.9308521026514001

>  <r_i_glide_hbond>  (159) 
-0.40000000000000002

>  <r_i_glide_ligand_efficiency>  (159) 
-0.174443616214561

>  <r_i_glide_ligand_efficiency_ln>  (159) 
-1.2196138268466901

>  <r_i_glide_ligand_efficiency_sa>  (159) 
-0.54799380028234401

>  <r_i_glide_lipo>  (159) 
-0.633075770527188

>  <r_i_glide_metal>  (159) 
-0

>  <r_i_glide_rewards>  (159) 
-1.0894741462969699

>  <r_lp_Energy>  (159) 
24.184415999999999

>  <r_qp_ACxDN^.5/SA>  (159) 
0.0069692

>  <r_qp_CIQPlogS>  (159) 
-4.9320000000000004

>  <r_qp_EA(eV)>  (159) 
0.80800000000000005

>  <r_qp_FISA>  (159) 
33.581000000000003

>  <r_qp_FOSA>  (159) 
246.25

>  <r_qp_IP(eV)>  (159) 
8.9320000000000004

>  <r_qp_Jm>  (159) 
0.000468969785336292

>  <r_qp_PISA>  (159) 
344.661

>  <r_qp_PSA>  (159) 
32.259

>  <r_qp_PercentHumanOralAbsorption>  (159) 
100

>  <r_qp_QPPCaco>  (159) 
295.97500000000002

>  <r_qp_QPPMDCK>  (159) 
524.56899999999996

>  <r_qp_QPlogBB>  (159) 
0.88900000000000001

>  <r_qp_QPlogHERG>  (159) 
-7.649

>  <r_qp_QPlogKhsa>  (159) 
0.98999999999999999

>  <r_qp_QPlogKp>  (159) 
-4.4729999999999999

>  <r_qp_QPlogPC16>  (159) 
12.831

>  <r_qp_QPlogPo/w>  (159) 
4.9870000000000001

>  <r_qp_QPlogPoct>  (159) 
19.974

>  <r_qp_QPlogPw>  (159) 
9.1170000000000009

>  <r_qp_QPlogS>  (159) 
-4.4790000000000001

>  <r_qp_QPpolrz>  (159) 
46.322000000000003

>  <r_qp_SASA>  (159) 
717.44600000000003

>  <r_qp_SAamideO>  (159) 
0

>  <r_qp_SAfluorine>  (159) 
92.953999999999994

>  <r_qp_WPSA>  (159) 
92.953999999999994

>  <r_qp_accptHB>  (159) 
5

>  <r_qp_dip^2/V>  (159) 
0.024116499999999999

>  <r_qp_dipole>  (159) 
5.6529999999999996

>  <r_qp_donorHB>  (159) 
1

>  <r_qp_glob>  (159) 
0.81328999999999996

>  <r_qp_mol_MW>  (159) 
420.50400000000002

>  <r_qp_volume>  (159) 
1325.271

>  <r_sd_BIOSOLVEIT.INFINISEE\_FTREES\_SIMILARITY>  (159) 
0.90200000000000002

>  <r_sd_BIOSOLVEIT.LOGP>  (159) 
2.4960200000000001

>  <r_sd_BIOSOLVEIT.MOLECULAR\_WEIGHT>  (159) 
422.51999999999998

>  <r_sd_BIOSOLVEIT.TPSA>  (159) 
38.869999999999997

>  <i_epik_Tot_Q>  (159) 
2

>  <i_epik_Tot_abs_Q>  (159) 
2

>  <i_f3d_flags>  (159) 
0

>  <i_i_glide_confnum>  (159) 
1

>  <i_i_glide_lignum>  (159) 
716

>  <i_i_glide_posenum>  (159) 
6

>  <i_i_glide_rotatable_bonds>  (159) 
7

>  <i_lp_mmshare_version>  (159) 
65135

>  <i_m_ct_format>  (159) 
2

>  <i_m_source_file_index>  (159) 
1978

>  <i_qp_#NandO>  (159) 
4

>  <i_qp_#acid>  (159) 
0

>  <i_qp_#amide>  (159) 
0

>  <i_qp_#amidine>  (159) 
0

>  <i_qp_#amine>  (159) 
2

>  <i_qp_#in34>  (159) 
0

>  <i_qp_#in56>  (159) 
21

>  <i_qp_#metab>  (159) 
6

>  <i_qp_#nonHatm>  (159) 
31

>  <i_qp_#noncon>  (159) 
0

>  <i_qp_#ringatoms>  (159) 
21

>  <i_qp_#rotor>  (159) 
6

>  <i_qp_#rtvFG>  (159) 
0

>  <i_qp_#stars>  (159) 
0

>  <i_qp_CNS>  (159) 
2

>  <i_qp_HumanOralAbsorption>  (159) 
3

>  <i_qp_RuleOfFive>  (159) 
0

>  <i_qp_RuleOfThree>  (159) 
0

>  <i_sd_BIOSOLVEIT.INFINISEE\_REAGENT1\_NAME>  (159) 
24792668

>  <i_sd_BIOSOLVEIT.INFINISEE\_REAGENT2\_NAME>  (159) 
13441680

>  <i_sd_BIOSOLVEIT.INFINISEE\_RESULT\_RANK>  (159) 
89211

>  <i_sd_version>  (159) 
0

>  <b_lp_Chiralities_Consistent>  (159) 
1

>  <b_sd_chiral_flag>  (159) 
0

>  <canonical_id>  (159) 
ATP-HTVS-193F5213E1F4

>  <compound_code>  (159) 
63266

>  <title>  (159) 
m_270004bbb____24792668____13441680

>  <variant>  (159) 
63266-1

>  <source_file>  (159) 
运行/运行/ATP-VSW/ATP-VSW-DOCK_HTVS_1-002_lib.maegz

>  <canonical_smiles>  (159) 
Cc1ccc2nc(-c3ccc(F)cc3)c(C[NH2+]Cc3ccc(F)cc3C[NH+](C)C)n2c1

>  <scaffold>  (159) 
c1ccc(C[NH2+]Cc2c(-c3ccccc3)nc3ccccn23)cc1

>  <molecular_formula>  (159) 
C25H28F2N4+2

$$$$
ATP-HTVS-1940D4055FE9
     RDKit          3D

 58 61  0  0  0  0  0  0  0  0999 V2000
  200.2986  178.4204  153.6637 S   0  0  0  0  0  0  0  0  0  0  0  0
  200.9057  177.1181  154.6687 C   0  0  0  0  0  0  0  0  0  0  0  0
  200.6006  177.3635  156.0476 C   0  0  0  0  0  0  0  0  0  0  0  0
  201.1508  176.4686  156.9671 C   0  0  0  0  0  0  0  0  0  0  0  0
  201.9660  175.3884  156.5374 C   0  0  0  0  0  0  0  0  0  0  0  0
  202.2020  175.1370  155.1598 C   0  0  0  0  0  0  0  0  0  0  0  0
  201.6483  176.0036  154.2274 C   0  0  0  0  0  0  0  0  0  0  0  0
  199.7638  178.5351  156.2114 C   0  0  0  0  0  0  0  0  0  0  0  0
  199.4259  179.1290  155.0007 C   0  0  0  0  0  0  0  0  0  0  0  0
  198.5264  180.3541  154.7712 C   0  0  1  0  0  0  0  0  0  0  0  0
  197.4836  180.2422  153.7304 N   0  0  0  0  0  0  0  0  0  0  0  0
  197.9863  180.2577  152.3484 C   0  0  1  0  0  0  0  0  0  0  0  0
  196.9819  179.9029  151.2578 C   0  0  0  0  0  0  0  0  0  0  0  0
  195.8674  180.3895  151.3069 O   0  0  0  0  0  0  0  0  0  0  0  0
  197.4625  178.9949  150.1423 C   0  0  0  0  0  0  0  0  0  0  0  0
  198.5354  178.0547  150.2244 C   0  0  0  0  0  0  0  0  0  0  0  0
  198.8949  177.2485  149.1262 C   0  0  0  0  0  0  0  0  0  0  0  0
  198.1842  177.3427  147.9225 C   0  0  0  0  0  0  0  0  0  0  0  0
  197.1055  178.2403  147.8271 C   0  0  0  0  0  0  0  0  0  0  0  0
  196.7480  179.0490  148.9288 C   0  0  0  0  0  0  0  0  0  0  0  0
  197.8906  180.9070  155.9987 C   0  0  0  0  0  0  0  0  0  0  0  0
  197.3949  181.3585  157.0149 C   0  0  0  0  0  0  0  0  0  0  0  0
  196.7592  181.8917  158.2479 C   0  0  1  0  0  0  0  0  0  0  0  0
  196.0081  183.0809  157.9017 N   0  0  0  0  0  0  0  0  0  0  0  0
  195.4103  183.7436  159.0552 C   0  0  1  0  0  0  0  0  0  0  0  0
  195.8654  185.1964  159.2105 C   0  0  0  0  0  0  0  0  0  0  0  0
  196.4263  185.9163  158.1277 C   0  0  0  0  0  0  0  0  0  0  0  0
  196.8092  187.2622  158.2738 C   0  0  0  0  0  0  0  0  0  0  0  0
  197.3348  187.9283  157.2189 F   0  0  0  0  0  0  0  0  0  0  0  0
  196.6397  187.9095  159.5076 C   0  0  0  0  0  0  0  0  0  0  0  0
  196.0717  187.2115  160.5890 C   0  0  0  0  0  0  0  0  0  0  0  0
  195.6864  185.8629  160.4426 C   0  0  0  0  0  0  0  0  0  0  0  0
  193.8866  183.6620  158.8937 C   0  0  2  0  0  0  0  0  0  0  0  0
  196.8329  181.0081  153.8549 H   0  0  0  0  0  0  0  0  0  0  0  0
  195.3030  182.8199  157.2201 H   0  0  0  0  0  0  0  0  0  0  0  0
  200.9790  176.6583  158.0136 H   0  0  0  0  0  0  0  0  0  0  0  0
  202.4261  174.7421  157.2717 H   0  0  0  0  0  0  0  0  0  0  0  0
  202.8148  174.3218  154.8227 H   0  0  0  0  0  0  0  0  0  0  0  0
  201.7998  175.8923  153.1620 H   0  0  0  0  0  0  0  0  0  0  0  0
  199.4160  178.8604  157.1766 H   0  0  0  0  0  0  0  0  0  0  0  0
  199.1732  181.1766  154.4754 H   0  0  0  0  0  0  0  0  0  0  0  0
  198.5967  181.1374  152.1183 H   0  0  0  0  0  0  0  0  0  0  0  0
  198.6409  179.4216  152.2166 H   0  0  0  0  0  0  0  0  0  0  0  0
  199.1334  177.8696  151.1007 H   0  0  0  0  0  0  0  0  0  0  0  0
  199.7198  176.5511  149.2190 H   0  0  0  0  0  0  0  0  0  0  0  0
  198.4542  176.7212  147.0822 H   0  0  0  0  0  0  0  0  0  0  0  0
  196.5465  178.3014  146.9074 H   0  0  0  0  0  0  0  0  0  0  0  0
  195.9120  179.7240  148.8314 H   0  0  0  0  0  0  0  0  0  0  0  0
  196.1075  181.1414  158.7098 H   0  0  0  0  0  0  0  0  0  0  0  0
  197.5364  182.1413  158.9723 H   0  0  0  0  0  0  0  0  0  0  0  0
  195.6920  183.2240  159.9754 H   0  0  0  0  0  0  0  0  0  0  0  0
  196.5679  185.4579  157.1641 H   0  0  0  0  0  0  0  0  0  0  0  0
  196.9362  188.9425  159.6173 H   0  0  0  0  0  0  0  0  0  0  0  0
  195.9420  187.7172  161.5345 H   0  0  0  0  0  0  0  0  0  0  0  0
  195.2538  185.3459  161.2864 H   0  0  0  0  0  0  0  0  0  0  0  0
  193.3693  184.1166  159.7366 H   0  0  0  0  0  0  0  0  0  0  0  0
  193.5441  182.6306  158.7984 H   0  0  0  0  0  0  0  0  0  0  0  0
  193.5609  184.1991  158.0076 H   0  0  0  0  0  0  0  0  0  0  0  0
  1  2  1  0
  1  9  1  0
  2  3  1  0
  2  7  2  0
  3  4  2  0
  3  8  1  0
  4  5  1  0
  4 36  1  0
  5  6  2  0
  5 37  1  0
  6  7  1  0
  6 38  1  0
  7 39  1  0
  8  9  2  0
  8 40  1  0
  9 10  1  0
 10 11  1  0
 10 21  1  0
 10 41  1  6
 11 12  1  0
 11 34  1  0
 12 13  1  0
 12 42  1  6
 12 43  1  0
 13 14  2  0
 13 15  1  0
 15 16  2  0
 15 20  1  0
 16 17  1  0
 16 44  1  0
 17 18  2  0
 17 45  1  0
 18 19  1  0
 18 46  1  0
 19 20  2  0
 19 47  1  0
 20 48  1  0
 21 22  3  0
 22 23  1  0
 23 24  1  0
 23 49  1  1
 23 50  1  0
 24 25  1  0
 24 35  1  0
 25 26  1  0
 25 33  1  0
 25 51  1  1
 26 27  1  0
 26 32  2  0
 27 28  2  0
 27 52  1  0
 28 29  1  0
 28 30  1  0
 30 31  2  0
 30 53  1  0
 31 32  1  0
 31 54  1  0
 32 55  1  0
 33 56  1  1
 33 57  1  0
 33 58  1  0
M  END
>  <s_epik_cmdline>  (160) 
J2VwaWtfcHl0aG9uJywgJy1waCcsICc3LjAwMDAwMCcsICctcGh0JywgJzIuMDAwMDAwJywgJy1tcycsICcxNicsICctdG4nLCAnOCcsICctbWEnLCAnMjAwJywgJy1pbWFlJywgJzxpbmZpbGUubWFlPicsICctb21hZScsICc8b3V0ZmlsZS5tYWU+Jw==

>  <s_epik_input>  (160) 
W2NIXTFbY0hdW2NIXVtjSF1bY0hdYzFDKD1PKVtDSDJdW05IXVtDQEhdKGMoczIpW2NIXWMoYzIzKVtjSF1bY0hdW2NIXVtjSF0zKUMjQ1tDSDJdW05IXVtDQEhdKFtDSDNdKWM0W2NIXWMoRilbY0hdW2NIXVtjSF00

>  <s_i_glide_gridfile>  (160) 
ATP-Grid

>  <s_lp_Force_Field>  (160) 
OPLS_2005

>  <s_lp_Variant>  (160) 
rxn403____EMOL530587____EMOL720244____EMOL317509042-2

>  <s_lp_label>  (160) 
2588_sdstereoexpander_2_neutralizer_1_epik_1_stereoizer_1

>  <s_m_source_file>  (160) 
ATP-VSW-LIGPREP-003-in.maegz

>  <s_sd_BIOSOLVEIT.INFINISEE\_QUERY\_NAME>  (160) 
Ref-Lig

>  <s_sd_BIOSOLVEIT.INFINISEE\_QUERY\_SMILES>  (160) 
S(c1nc2c(cc1C[NH2+]Cc3ccc(cc3)C[NH+](C)C)cccc2)Cc4ccccc4

>  <s_sd_BIOSOLVEIT.INFINISEE\_REACTION\_NAME>  (160) 
rxn403

>  <s_sd_BIOSOLVEIT.INFINISEE\_REAGENT1\_NAME>  (160) 
EMOL530587

>  <s_sd_BIOSOLVEIT.INFINISEE\_REAGENT1\_SMILES>  (160) 
O=C(c1ccccc1)CN

>  <s_sd_BIOSOLVEIT.INFINISEE\_REAGENT2\_NAME>  (160) 
EMOL720244

>  <s_sd_BIOSOLVEIT.INFINISEE\_REAGENT2\_SMILES>  (160) 
S1c2c(cccc2)C=C1C=O

>  <s_sd_BIOSOLVEIT.INFINISEE\_REAGENT3\_NAME>  (160) 
EMOL317509042

>  <s_sd_BIOSOLVEIT.INFINISEE\_REAGENT3\_SMILES>  (160) 
Fc1cc(ccc1)C(NCC#C)C

>  <s_sd_BIOSOLVEIT.INFINISEE\_SPACE>  (160) 
eXplore_7tr_2022-12

>  <s_vsw_compound_code>  (160) 
82787

>  <s_vsw_variant>  (160) 
82787-2

>  <r_epik_Charging_Adjusted_Penalty>  (160) 
0.30464606809546302

>  <r_epik_Ionization_Penalty>  (160) 
0.30709999999999998

>  <r_epik_Ionization_Penalty_Charging>  (160) 
0

>  <r_epik_Ionization_Penalty_Neutral>  (160) 
0.30709999999999998

>  <r_epik_State_Penalty>  (160) 
0.30459999999999998

>  <r_i_docking_score>  (160) 
-4.8115359235067903

>  <r_i_glide_ecoul>  (160) 
-0.198891401290894

>  <r_i_glide_eff_state_penalty>  (160) 
0.30459999999999998

>  <r_i_glide_einternal>  (160) 
5.9281706809997603

>  <r_i_glide_emodel>  (160) 
-56.8780808205168

>  <r_i_glide_energy>  (160) 
-44.338764905929601

>  <r_i_glide_erotb>  (160) 
0.67488189414781397

>  <r_i_glide_esite>  (160) 
0

>  <r_i_glide_evdw>  (160) 
-44.1398735046387

>  <r_i_glide_gscore>  (160) 
-5.11613592350679

>  <r_i_glide_hbond>  (160) 
-0.040329218504926899

>  <r_i_glide_ligand_efficiency>  (160) 
-0.14580411889414499

>  <r_i_glide_ligand_efficiency_ln>  (160) 
-1.0700606765881999

>  <r_i_glide_ligand_efficiency_sa>  (160) 
-0.467671716262691

>  <r_i_glide_lipo>  (160) 
-2.8831433520164

>  <r_i_glide_metal>  (160) 
-0

>  <r_i_glide_rewards>  (160) 
-0.63071786170770805

>  <r_lp_Energy>  (160) 
27.436775000000001

>  <r_lp_tautomer_probability>  (160) 
0.99990000499974996

>  <r_qp_ACxDN^.5/SA>  (160) 
0.0100299

>  <r_qp_CIQPlogS>  (160) 
-5.5800000000000001

>  <r_qp_EA(eV)>  (160) 
0.63100000000000001

>  <r_qp_FISA>  (160) 
51.935000000000002

>  <r_qp_FOSA>  (160) 
168.63

>  <r_qp_IP(eV)>  (160) 
8.5609999999999999

>  <r_qp_Jm>  (160) 
0.017368091526857199

>  <r_qp_PISA>  (160) 
434.54199999999997

>  <r_qp_PSA>  (160) 
50.713999999999999

>  <r_qp_PercentHumanOralAbsorption>  (160) 
96.870999999999995

>  <r_qp_QPPCaco>  (160) 
198.24199999999999

>  <r_qp_QPPMDCK>  (160) 
197.58699999999999

>  <r_qp_QPlogBB>  (160) 
0.39600000000000002

>  <r_qp_QPlogHERG>  (160) 
-7.5540000000000003

>  <r_qp_QPlogKhsa>  (160) 
0.89500000000000002

>  <r_qp_QPlogKp>  (160) 
-4.1109999999999998

>  <r_qp_QPlogPC16>  (160) 
14.651999999999999

>  <r_qp_QPlogPo/w>  (160) 
4.9199999999999999

>  <r_qp_QPlogPoct>  (160) 
21.241

>  <r_qp_QPlogPw>  (160) 
10.391

>  <r_qp_QPlogS>  (160) 
-3.3090000000000002

>  <r_qp_QPpolrz>  (160) 
46.350000000000001

>  <r_qp_SASA>  (160) 
704.99699999999996

>  <r_qp_SAamideO>  (160) 
0

>  <r_qp_SAfluorine>  (160) 
33.716999999999999

>  <r_qp_WPSA>  (160) 
49.890000000000001

>  <r_qp_accptHB>  (160) 
5

>  <r_qp_dip^2/V>  (160) 
0.0064979

>  <r_qp_dipole>  (160) 
2.9820000000000002

>  <r_qp_donorHB>  (160) 
2

>  <r_qp_glob>  (160) 
0.84563730000000004

>  <r_qp_mol_MW>  (160) 
456.577

>  <r_qp_volume>  (160) 
1368.704

>  <r_sd_BIOSOLVEIT.INFINISEE\_FTREES\_SIMILARITY>  (160) 
0.91100000000000003

>  <r_sd_BIOSOLVEIT.LOGP>  (160) 
3.8557999999999999

>  <r_sd_BIOSOLVEIT.MOLECULAR\_WEIGHT>  (160) 
458.59699999999998

>  <r_sd_BIOSOLVEIT.TPSA>  (160) 
50.289999999999999

>  <i_epik_Tot_Q>  (160) 
0

>  <i_epik_Tot_abs_Q>  (160) 
0

>  <i_f3d_flags>  (160) 
0

>  <i_i_glide_confnum>  (160) 
5

>  <i_i_glide_lignum>  (160) 
1172

>  <i_i_glide_posenum>  (160) 
11

>  <i_i_glide_rotatable_bonds>  (160) 
10

>  <i_lp_mmshare_version>  (160) 
65135

>  <i_m_ct_format>  (160) 
2

>  <i_m_source_file_index>  (160) 
2588

>  <i_qp_#NandO>  (160) 
3

>  <i_qp_#acid>  (160) 
0

>  <i_qp_#amide>  (160) 
0

>  <i_qp_#amidine>  (160) 
0

>  <i_qp_#amine>  (160) 
2

>  <i_qp_#in34>  (160) 
0

>  <i_qp_#in56>  (160) 
21

>  <i_qp_#metab>  (160) 
8

>  <i_qp_#nonHatm>  (160) 
33

>  <i_qp_#noncon>  (160) 
0

>  <i_qp_#ringatoms>  (160) 
21

>  <i_qp_#rotor>  (160) 
10

>  <i_qp_#rtvFG>  (160) 
0

>  <i_qp_#stars>  (160) 
0

>  <i_qp_CNS>  (160) 
1

>  <i_qp_HumanOralAbsorption>  (160) 
3

>  <i_qp_RuleOfFive>  (160) 
0

>  <i_qp_RuleOfThree>  (160) 
1

>  <i_sd_BIOSOLVEIT.INFINISEE\_RESULT\_RANK>  (160) 
40275

>  <i_sd_version>  (160) 
0

>  <b_lp_Chiralities_Consistent>  (160) 
1

>  <b_sd_chiral_flag>  (160) 
0

>  <canonical_id>  (160) 
ATP-HTVS-1940D4055FE9

>  <compound_code>  (160) 
82787

>  <title>  (160) 
rxn403____EMOL530587____EMOL720244____EMOL317509042

>  <variant>  (160) 
82787-2

>  <source_file>  (160) 
运行/运行/ATP-VSW/ATP-VSW-DOCK_HTVS_1-003_lib/ATP-VSW-DOCK_HTVS_1-003_lib.mae

>  <canonical_smiles>  (160) 
C[C@@H](NCC#C[C@H](NCC(=O)c1ccccc1)c1cc2ccccc2s1)c1cccc(F)c1

>  <scaffold>  (160) 
O=C(CNC(C#CCNCc1ccccc1)c1cc2ccccc2s1)c1ccccc1

>  <molecular_formula>  (160) 
C28H25FN2OS

$$$$
ATP-HTVS-1952D56C5A08
     RDKit          3D

 67 70  0  0  0  0  0  0  0  0999 V2000
  200.9481  177.1597  154.8156 O   0  0  0  0  0  0  0  0  0  0  0  0
  200.4111  177.2934  153.7160 C   0  0  0  0  0  0  0  0  0  0  0  0
  199.5438  178.2739  153.3994 N   0  0  0  0  0  0  0  0  0  0  0  0
  198.9696  179.2728  154.2309 C   0  0  0  0  0  0  0  0  0  0  0  0
  199.1832  179.2935  155.5643 N   0  0  0  0  0  0  0  0  0  0  0  0
  198.6084  180.2412  156.3212 C   0  0  0  0  0  0  0  0  0  0  0  0
  197.7987  181.2731  155.8042 C   0  0  0  0  0  0  0  0  0  0  0  0
  197.2652  182.2836  156.6265 N   0  0  0  0  0  0  0  0  0  0  0  0
  197.4287  182.2378  158.0688 C   0  0  1  0  0  0  0  0  0  0  0  0
  196.7332  183.3871  158.7594 C   0  0  0  0  0  0  0  0  0  0  0  0
  195.3568  183.2985  159.0396 C   0  0  0  0  0  0  0  0  0  0  0  0
  194.6948  184.3646  159.6745 C   0  0  0  0  0  0  0  0  0  0  0  0
  195.4011  185.5394  160.0302 C   0  0  0  0  0  0  0  0  0  0  0  0
  194.7930  186.6394  160.6555 N   0  0  0  0  0  0  0  0  0  0  0  0
  193.3771  186.6897  161.0030 C   0  0  1  0  0  0  0  0  0  0  0  0
  193.1994  186.7897  162.5164 C   0  0  1  0  0  0  0  0  0  0  0  0
  191.8434  187.0265  162.8167 O   0  0  0  0  0  0  0  0  0  0  0  0
  196.7808  185.6222  159.7351 C   0  0  0  0  0  0  0  0  0  0  0  0
  197.4471  184.5501  159.1053 C   0  0  0  0  0  0  0  0  0  0  0  0
  197.5546  181.2559  154.4069 C   0  0  0  0  0  0  0  0  0  0  0  0
  198.1427  180.2401  153.6052 C   0  0  0  0  0  0  0  0  0  0  0  0
  197.9010  180.2305  152.2034 C   0  0  0  0  0  0  0  0  0  0  0  0
  197.0945  181.2160  151.6119 C   0  0  0  0  0  0  0  0  0  0  0  0
  196.5220  182.2209  152.4065 C   0  0  0  0  0  0  0  0  0  0  0  0
  196.7493  182.2404  153.7942 C   0  0  0  0  0  0  0  0  0  0  0  0
  200.6811  176.3134  152.6012 C   0  0  0  0  0  0  0  0  0  0  0  0
  201.1632  174.9884  152.8395 C   0  0  0  0  0  0  0  0  0  0  0  0
  201.4176  174.1455  151.7331 C   0  0  0  0  0  0  0  0  0  0  0  0
  201.1951  174.5766  150.4122 C   0  0  0  0  0  0  0  0  0  0  0  0
  200.7114  175.8691  150.1776 C   0  0  0  0  0  0  0  0  0  0  0  0
  200.4664  176.7298  151.2603 C   0  0  0  0  0  0  0  0  0  0  0  0
  201.4436  174.3953  154.2242 C   0  0  1  0  0  0  0  0  0  0  0  0
  202.8981  174.3583  154.5302 N   0  0  1  0  0  0  0  0  0  0  0  0
  203.5245  175.6917  154.6947 C   0  0  2  0  0  0  0  0  0  0  0  0
  203.1985  173.4812  155.6783 C   0  0  2  0  0  0  0  0  0  0  0  0
  199.2156  178.2890  152.4522 H   0  0  0  0  0  0  0  0  0  0  0  0
  198.8467  180.1640  157.3704 H   0  0  0  0  0  0  0  0  0  0  0  0
  196.6136  182.9590  156.2469 H   0  0  0  0  0  0  0  0  0  0  0  0
  197.0394  181.2987  158.4704 H   0  0  0  0  0  0  0  0  0  0  0  0
  198.4926  182.2846  158.3020 H   0  0  0  0  0  0  0  0  0  0  0  0
  194.8029  182.4132  158.7623 H   0  0  0  0  0  0  0  0  0  0  0  0
  193.6386  184.2520  159.8618 H   0  0  0  0  0  0  0  0  0  0  0  0
  195.3194  187.4980  160.7135 H   0  0  0  0  0  0  0  0  0  0  0  0
  192.9279  187.5613  160.5355 H   0  0  0  0  0  0  0  0  0  0  0  0
  192.8062  185.8361  160.6261 H   0  0  0  0  0  0  0  0  0  0  0  0
  193.5041  185.8389  162.9640 H   0  0  0  0  0  0  0  0  0  0  0  0
  193.8076  187.5995  162.9391 H   0  0  0  0  0  0  0  0  0  0  0  0
  191.5582  187.7862  162.3354 H   0  0  0  0  0  0  0  0  0  0  0  0
  197.3465  186.5090  159.9870 H   0  0  0  0  0  0  0  0  0  0  0  0
  198.5048  184.6227  158.8853 H   0  0  0  0  0  0  0  0  0  0  0  0
  198.3312  179.4861  151.5526 H   0  0  0  0  0  0  0  0  0  0  0  0
  196.9212  181.2028  150.5447 H   0  0  0  0  0  0  0  0  0  0  0  0
  195.8976  182.9823  151.9673 H   0  0  0  0  0  0  0  0  0  0  0  0
  196.2907  183.0203  154.3777 H   0  0  0  0  0  0  0  0  0  0  0  0
  201.7855  173.1432  151.8796 H   0  0  0  0  0  0  0  0  0  0  0  0
  201.3757  173.9168  149.5773 H   0  0  0  0  0  0  0  0  0  0  0  0
  200.5274  176.2069  149.1682 H   0  0  0  0  0  0  0  0  0  0  0  0
  200.1123  177.7186  151.0115 H   0  0  0  0  0  0  0  0  0  0  0  0
  200.8929  174.9034  155.0345 H   0  0  0  0  0  0  0  0  0  0  0  0
  201.0666  173.3708  154.2059 H   0  0  0  0  0  0  0  0  0  0  0  0
  203.1051  176.2217  155.5504 H   0  0  0  0  0  0  0  0  0  0  0  0
  203.3961  176.3107  153.8069 H   0  0  0  0  0  0  0  0  0  0  0  0
  204.5987  175.6122  154.8715 H   0  0  0  0  0  0  0  0  0  0  0  0
  202.7470  173.8773  156.5881 H   0  0  0  0  0  0  0  0  0  0  0  0
  204.2744  173.4304  155.8414 H   0  0  0  0  0  0  0  0  0  0  0  0
  202.8271  172.4684  155.5124 H   0  0  0  0  0  0  0  0  0  0  0  0
  203.3476  173.9310  153.7294 H   0  0  0  0  0  0  0  0  0  0  0  0
  1  2  2  0
  2  3  1  0
  2 26  1  0
  3  4  1  0
  3 36  1  0
  4  5  1  0
  4 21  2  0
  5  6  2  0
  6  7  1  0
  6 37  1  0
  7  8  1  0
  7 20  2  0
  8  9  1  0
  8 38  1  0
  9 10  1  0
  9 39  1  1
  9 40  1  0
 10 11  1  0
 10 19  2  0
 11 12  2  0
 11 41  1  0
 12 13  1  0
 12 42  1  0
 13 14  1  0
 13 18  2  0
 14 15  1  0
 14 43  1  0
 15 16  1  0
 15 44  1  6
 15 45  1  0
 16 17  1  0
 16 46  1  1
 16 47  1  0
 17 48  1  0
 18 19  1  0
 18 49  1  0
 19 50  1  0
 20 21  1  0
 20 25  1  0
 21 22  1  0
 22 23  2  0
 22 51  1  0
 23 24  1  0
 23 52  1  0
 24 25  2  0
 24 53  1  0
 25 54  1  0
 26 27  1  0
 26 31  2  0
 27 28  2  0
 27 32  1  0
 28 29  1  0
 28 55  1  0
 29 30  2  0
 29 56  1  0
 30 31  1  0
 30 57  1  0
 31 58  1  0
 32 33  1  0
 32 59  1  1
 32 60  1  0
 33 34  1  0
 33 35  1  0
 33 67  1  6
 34 61  1  1
 34 62  1  0
 34 63  1  0
 35 64  1  1
 35 65  1  0
 35 66  1  0
M  CHG  1  33   1
M  END
>  <s_epik_cmdline>  (161) 
J2VwaWtfcHl0aG9uJywgJy1waCcsICc3LjAwMDAwMCcsICctcGh0JywgJzIuMDAwMDAwJywgJy1tcycsICcxNicsICctdG4nLCAnOCcsICctbWEnLCAnMjAwJywgJy1pbWFlJywgJzxpbmZpbGUubWFlPicsICctb21hZScsICc8b3V0ZmlsZS5tYWU+Jw==

>  <s_epik_input>  (161) 
W2NIXTFbY0hdW2NIXVtjSF1jKFtDSDJdTihbQ0gzXSlbQ0gzXSljMUMoPU8pW05IXWMoYyhjMjMpW2NIXVtjSF1bY0hdW2NIXTMpbltjSF1jMltOSF1bQ0gyXWM0W2NIXVtjSF1jKFtjSF1bY0hdNClbTkhdW0NIMl1bQ0gyXVtPSF0=

>  <s_i_glide_gridfile>  (161) 
ATP-Grid

>  <s_lp_Force_Field>  (161) 
OPLS_2005

>  <s_lp_Variant>  (161) 
rxn502b____EMOL5415347____EMOL7515103____EMOL324170366-1

>  <s_lp_label>  (161) 
2985_sdstereoexpander_1_neutralizer_1_epik_1_stereoizer_1

>  <s_m_source_file>  (161) 
ATP-VSW-LIGPREP-001-in.maegz

>  <s_sd_BIOSOLVEIT.INFINISEE\_QUERY\_NAME>  (161) 
Ref-Lig

>  <s_sd_BIOSOLVEIT.INFINISEE\_QUERY\_SMILES>  (161) 
S(c1nc2c(cc1C[NH2+]Cc3ccc(cc3)C[NH+](C)C)cccc2)Cc4ccccc4

>  <s_sd_BIOSOLVEIT.INFINISEE\_REACTION\_NAME>  (161) 
rxn502b

>  <s_sd_BIOSOLVEIT.INFINISEE\_REAGENT1\_NAME>  (161) 
EMOL5415347

>  <s_sd_BIOSOLVEIT.INFINISEE\_REAGENT1\_SMILES>  (161) 
O=C(O)c1c(cccc1)CN(C)C

>  <s_sd_BIOSOLVEIT.INFINISEE\_REAGENT2\_NAME>  (161) 
EMOL7515103

>  <s_sd_BIOSOLVEIT.INFINISEE\_REAGENT2\_SMILES>  (161) 
Brc1c2c(c(nc1)N)cccc2

>  <s_sd_BIOSOLVEIT.INFINISEE\_REAGENT3\_NAME>  (161) 
EMOL324170366

>  <s_sd_BIOSOLVEIT.INFINISEE\_REAGENT3\_SMILES>  (161) 
OCCNc1ccc(cc1)CN

>  <s_sd_BIOSOLVEIT.INFINISEE\_SPACE>  (161) 
eXplore_7tr_2022-12

>  <s_vsw_compound_code>  (161) 
95489

>  <s_vsw_variant>  (161) 
95489-1

>  <r_epik_Charging_Adjusted_Penalty>  (161) 
0.131810615872997

>  <r_epik_Ionization_Penalty>  (161) 
0.071900000000000006

>  <r_epik_Ionization_Penalty_Charging>  (161) 
0.060100000000000001

>  <r_epik_Ionization_Penalty_Neutral>  (161) 
0.011900000000000001

>  <r_epik_State_Penalty>  (161) 
0.071800000000000003

>  <r_i_docking_score>  (161) 
-3.4960790733530702

>  <r_i_glide_ecoul>  (161) 
-2.45831370353699

>  <r_i_glide_eff_state_penalty>  (161) 
0.071800000000000003

>  <r_i_glide_einternal>  (161) 
2.0977005958557098

>  <r_i_glide_emodel>  (161) 
-56.025991213318697

>  <r_i_glide_energy>  (161) 
-44.466320753097499

>  <r_i_glide_erotb>  (161) 
0.91244354638238701

>  <r_i_glide_esite>  (161) 
-0.042776031286026597

>  <r_i_glide_evdw>  (161) 
-42.008007049560497

>  <r_i_glide_gscore>  (161) 
-3.5678790733530699

>  <r_i_glide_hbond>  (161) 
0

>  <r_i_glide_ligand_efficiency>  (161) 
-0.099887973524373494

>  <r_i_glide_ligand_efficiency_ln>  (161) 
-0.76746694789552505

>  <r_i_glide_ligand_efficiency_sa>  (161) 
-0.326740184601363

>  <r_i_glide_lipo>  (161) 
-1.7309167911660499

>  <r_i_glide_metal>  (161) 
-0

>  <r_i_glide_rewards>  (161) 
-0.237482389274805

>  <r_lp_Energy>  (161) 
35.608077000000002

>  <r_qp_ACxDN^.5/SA>  (161) 
0.021111100000000001

>  <r_qp_CIQPlogS>  (161) 
-5.1859999999999999

>  <r_qp_EA(eV)>  (161) 
0.71199999999999997

>  <r_qp_FISA>  (161) 
108.416

>  <r_qp_FOSA>  (161) 
289.351

>  <r_qp_IP(eV)>  (161) 
7.4989999999999997

>  <r_qp_Jm>  (161) 
0.0025506702418958702

>  <r_qp_PISA>  (161) 
473.81

>  <r_qp_PSA>  (161) 
91.409000000000006

>  <r_qp_PercentHumanOralAbsorption>  (161) 
92.727999999999994

>  <r_qp_QPPCaco>  (161) 
231.57300000000001

>  <r_qp_QPPMDCK>  (161) 
112.599

>  <r_qp_QPlogBB>  (161) 
-0.998

>  <r_qp_QPlogHERG>  (161) 
-8.6219999999999999

>  <r_qp_QPlogKhsa>  (161) 
0.39500000000000002

>  <r_qp_QPlogKp>  (161) 
-2.855

>  <r_qp_QPlogPC16>  (161) 
18.125

>  <r_qp_QPlogPo/w>  (161) 
4.0069999999999997

>  <r_qp_QPlogPoct>  (161) 
29.175999999999998

>  <r_qp_QPlogPw>  (161) 
18.271000000000001

>  <r_qp_QPlogS>  (161) 
-5.4100000000000001

>  <r_qp_QPpolrz>  (161) 
53.738999999999997

>  <r_qp_SASA>  (161) 
871.57799999999997

>  <r_qp_SAamideO>  (161) 
0

>  <r_qp_SAfluorine>  (161) 
0

>  <r_qp_WPSA>  (161) 
0

>  <r_qp_accptHB>  (161) 
9.1999999999999993

>  <r_qp_dip^2/V>  (161) 
0.044734700000000002

>  <r_qp_dipole>  (161) 
8.3539999999999992

>  <r_qp_donorHB>  (161) 
4

>  <r_qp_glob>  (161) 
0.74635200000000002

>  <r_qp_mol_MW>  (161) 
469.58499999999998

>  <r_qp_volume>  (161) 
1560.009

>  <r_sd_BIOSOLVEIT.INFINISEE\_FTREES\_SIMILARITY>  (161) 
0.90300000000000002

>  <r_sd_BIOSOLVEIT.LOGP>  (161) 
3.1478999999999999

>  <r_sd_BIOSOLVEIT.MOLECULAR\_WEIGHT>  (161) 
470.59399999999999

>  <r_sd_BIOSOLVEIT.TPSA>  (161) 
90.719999999999999

>  <i_epik_Tot_Q>  (161) 
1

>  <i_epik_Tot_abs_Q>  (161) 
1

>  <i_f3d_flags>  (161) 
0

>  <i_i_glide_confnum>  (161) 
3

>  <i_i_glide_lignum>  (161) 
1419

>  <i_i_glide_posenum>  (161) 
18

>  <i_i_glide_rotatable_bonds>  (161) 
12

>  <i_lp_mmshare_version>  (161) 
65135

>  <i_m_ct_format>  (161) 
2

>  <i_m_source_file_index>  (161) 
2985

>  <i_qp_#NandO>  (161) 
7

>  <i_qp_#acid>  (161) 
0

>  <i_qp_#amide>  (161) 
0

>  <i_qp_#amidine>  (161) 
0

>  <i_qp_#amine>  (161) 
1

>  <i_qp_#in34>  (161) 
0

>  <i_qp_#in56>  (161) 
22

>  <i_qp_#metab>  (161) 
10

>  <i_qp_#nonHatm>  (161) 
35

>  <i_qp_#noncon>  (161) 
0

>  <i_qp_#ringatoms>  (161) 
22

>  <i_qp_#rotor>  (161) 
11

>  <i_qp_#rtvFG>  (161) 
0

>  <i_qp_#stars>  (161) 
5

>  <i_qp_CNS>  (161) 
-1

>  <i_qp_HumanOralAbsorption>  (161) 
1

>  <i_qp_RuleOfFive>  (161) 
0

>  <i_qp_RuleOfThree>  (161) 
1

>  <i_sd_BIOSOLVEIT.INFINISEE\_RESULT\_RANK>  (161) 
84160

>  <i_sd_version>  (161) 
0

>  <b_lp_Chiralities_Consistent>  (161) 
1

>  <b_sd_chiral_flag>  (161) 
0

>  <canonical_id>  (161) 
ATP-HTVS-1952D56C5A08

>  <compound_code>  (161) 
95489

>  <title>  (161) 
rxn502b____EMOL5415347____EMOL7515103____EMOL324170366

>  <variant>  (161) 
95489-1

>  <source_file>  (161) 
运行/运行/ATP-VSW/ATP-VSW-DOCK_HTVS_1-001_lib/ATP-VSW-DOCK_HTVS_1-001_lib

>  <canonical_smiles>  (161) 
C[NH+](C)Cc1ccccc1C(=O)Nc1ncc(NCc2ccc(NCCO)cc2)c2ccccc12

>  <scaffold>  (161) 
O=C(Nc1ncc(NCc2ccccc2)c2ccccc12)c1ccccc1

>  <molecular_formula>  (161) 
C28H32N5O2+

$$$$
ATP-HTVS-196468D2BF96
     RDKit          3D

 59 62  0  0  0  0  0  0  0  0999 V2000
  203.5346  180.2368  158.7212 F   0  0  0  0  0  0  0  0  0  0  0  0
  202.3712  180.1962  158.0169 C   0  0  0  0  0  0  0  0  0  0  0  0
  201.9969  181.3065  157.2316 C   0  0  0  0  0  0  0  0  0  0  0  0
  200.8632  181.2363  156.4092 C   0  0  0  0  0  0  0  0  0  0  0  0
  199.9822  180.1274  156.4943 C   0  0  0  0  0  0  0  0  0  0  0  0
  200.3401  179.0073  157.2892 C   0  0  0  0  0  0  0  0  0  0  0  0
  201.5518  179.0398  158.0129 C   0  0  0  0  0  0  0  0  0  0  0  0
  198.6837  180.1432  155.6936 C   0  0  2  0  0  0  0  0  0  0  0  0
  197.5486  180.6558  156.5105 N   0  0  1  0  0  0  0  0  0  0  0  0
  196.3400  181.1406  155.7743 C   0  0  1  0  0  0  0  0  0  0  0  0
  196.6865  182.3064  154.9612 C   0  0  0  0  0  0  0  0  0  0  0  0
  197.0434  183.2928  154.3026 C   0  0  0  0  0  0  0  0  0  0  0  0
  197.6296  184.4166  153.5848 C   0  0  0  0  0  0  0  0  0  0  0  0
  198.1812  185.5284  154.2856 C   0  0  0  0  0  0  0  0  0  0  0  0
  198.2662  185.6507  155.7115 N   0  0  0  0  0  0  0  0  0  0  0  0
  198.9572  184.7873  156.4953 C   0  0  0  0  0  0  0  0  0  0  0  0
  199.3640  183.7085  156.1069 O   0  0  0  0  0  0  0  0  0  0  0  0
  199.2493  185.1694  157.9375 C   0  0  1  0  0  0  0  0  0  0  0  0
  197.9626  185.4282  158.6944 C   0  0  0  0  0  0  0  0  0  0  0  0
  197.2679  184.3752  159.3319 C   0  0  0  0  0  0  0  0  0  0  0  0
  196.0683  184.6473  160.0164 C   0  0  0  0  0  0  0  0  0  0  0  0
  195.5650  185.9662  160.0578 C   0  0  0  0  0  0  0  0  0  0  0  0
  194.3445  186.2593  160.7784 C   0  0  0  0  0  0  0  0  0  0  0  0
  193.3715  186.4962  161.3548 N   0  0  0  0  0  0  0  0  0  0  0  0
  196.2545  187.0079  159.4046 C   0  0  0  0  0  0  0  0  0  0  0  0
  197.4500  186.7389  158.7248 C   0  0  0  0  0  0  0  0  0  0  0  0
  198.6846  186.5968  153.5094 C   0  0  0  0  0  0  0  0  0  0  0  0
  198.6304  186.6447  152.1640 N   0  0  0  0  0  0  0  0  0  0  0  0
  198.1053  185.6031  151.4919 C   0  0  0  0  0  0  0  0  0  0  0  0
  197.6082  184.4414  152.1538 C   0  0  0  0  0  0  0  0  0  0  0  0
  197.0789  183.3750  151.3830 C   0  0  0  0  0  0  0  0  0  0  0  0
  197.0329  183.4525  149.9811 C   0  0  0  0  0  0  0  0  0  0  0  0
  197.5030  184.6046  149.3330 C   0  0  0  0  0  0  0  0  0  0  0  0
  198.0315  185.6671  150.0856 C   0  0  0  0  0  0  0  0  0  0  0  0
  198.3406  178.7891  155.0537 C   0  0  2  0  0  0  0  0  0  0  0  0
  197.2130  179.8934  157.0993 H   0  0  0  0  0  0  0  0  0  0  0  0
  202.6170  182.1903  157.2004 H   0  0  0  0  0  0  0  0  0  0  0  0
  200.7218  182.0073  155.6797 H   0  0  0  0  0  0  0  0  0  0  0  0
  199.7256  178.1099  157.3185 H   0  0  0  0  0  0  0  0  0  0  0  0
  201.8667  178.1603  158.5544 H   0  0  0  0  0  0  0  0  0  0  0  0
  198.8886  180.8299  154.8734 H   0  0  0  0  0  0  0  0  0  0  0  0
  195.9447  180.3768  155.1114 H   0  0  0  0  0  0  0  0  0  0  0  0
  195.5484  181.4251  156.4766 H   0  0  0  0  0  0  0  0  0  0  0  0
  197.9019  186.5297  156.1185 H   0  0  0  0  0  0  0  0  0  0  0  0
  199.7841  184.3524  158.4211 H   0  0  0  0  0  0  0  0  0  0  0  0
  199.9120  186.0421  157.9648 H   0  0  0  0  0  0  0  0  0  0  0  0
  197.6489  183.3601  159.2987 H   0  0  0  0  0  0  0  0  0  0  0  0
  195.5486  183.8439  160.5210 H   0  0  0  0  0  0  0  0  0  0  0  0
  195.8889  188.0247  159.4272 H   0  0  0  0  0  0  0  0  0  0  0  0
  197.9830  187.5311  158.2171 H   0  0  0  0  0  0  0  0  0  0  0  0
  199.0721  187.4681  154.0053 H   0  0  0  0  0  0  0  0  0  0  0  0
  196.7053  182.4762  151.8499 H   0  0  0  0  0  0  0  0  0  0  0  0
  196.6425  182.6217  149.4145 H   0  0  0  0  0  0  0  0  0  0  0  0
  197.4650  184.6610  148.2563 H   0  0  0  0  0  0  0  0  0  0  0  0
  198.3958  186.5492  149.5820 H   0  0  0  0  0  0  0  0  0  0  0  0
  199.1605  178.4590  154.4133 H   0  0  0  0  0  0  0  0  0  0  0  0
  197.4466  178.8479  154.4308 H   0  0  0  0  0  0  0  0  0  0  0  0
  198.1487  178.0188  155.8030 H   0  0  0  0  0  0  0  0  0  0  0  0
  197.8725  181.3851  157.1247 H   0  0  0  0  0  0  0  0  0  0  0  0
  1  2  1  0
  2  3  1  0
  2  7  2  0
  3  4  2  0
  3 37  1  0
  4  5  1  0
  4 38  1  0
  5  6  2  0
  5  8  1  0
  6  7  1  0
  6 39  1  0
  7 40  1  0
  8  9  1  0
  8 35  1  0
  8 41  1  6
  9 10  1  0
  9 36  1  1
  9 59  1  0
 10 11  1  0
 10 42  1  6
 10 43  1  0
 11 12  3  0
 12 13  1  0
 13 14  2  0
 13 30  1  0
 14 15  1  0
 14 27  1  0
 15 16  1  0
 15 44  1  0
 16 17  2  0
 16 18  1  0
 18 19  1  0
 18 45  1  1
 18 46  1  0
 19 20  1  0
 19 26  2  0
 20 21  2  0
 20 47  1  0
 21 22  1  0
 21 48  1  0
 22 23  1  0
 22 25  2  0
 23 24  3  0
 25 26  1  0
 25 49  1  0
 26 50  1  0
 27 28  2  0
 27 51  1  0
 28 29  1  0
 29 30  1  0
 29 34  2  0
 30 31  2  0
 31 32  1  0
 31 52  1  0
 32 33  2  0
 32 53  1  0
 33 34  1  0
 33 54  1  0
 34 55  1  0
 35 56  1  6
 35 57  1  0
 35 58  1  0
M  CHG  1   9   1
M  END
>  <s_epik_cmdline>  (162) 
J2VwaWtfcHl0aG9uJywgJy1waCcsICc3LjAwMDAwMCcsICctcGh0JywgJzIuMDAwMDAwJywgJy1tcycsICcxNicsICctdG4nLCAnOCcsICctbWEnLCAnMjAwJywgJy1pbWFlJywgJzxpbmZpbGUubWFlPicsICctb21hZScsICc8b3V0ZmlsZS5tYWU+Jw==

>  <s_epik_input>  (162) 
RmMxW2NIXVtjSF1jKFtjSF1bY0hdMSlbQ0BASF0oW0NIM10pW05IXVtDSDJdQyNDYyhjKGMyMylbY0hdW2NIXVtjSF1bY0hdMyljKFtjSF1uMilbTkhdQyg9TylbQ0gyXWM0W2NIXVtjSF1jKEMjTilbY0hdW2NIXTQ=

>  <s_i_glide_gridfile>  (162) 
ATP-Grid

>  <s_lp_Force_Field>  (162) 
OPLS_2005

>  <s_lp_Variant>  (162) 
rxn503b____EMOL525400____EMOL30488121____EMOL317506007-3

>  <s_lp_label>  (162) 
2729_sdstereoexpander_1_neutralizer_1_epik_2_stereoizer_1

>  <s_m_source_file>  (162) 
ATP-VSW-LIGPREP-003-in.maegz

>  <s_sd_BIOSOLVEIT.INFINISEE\_QUERY\_NAME>  (162) 
Ref-Lig

>  <s_sd_BIOSOLVEIT.INFINISEE\_QUERY\_SMILES>  (162) 
S(c1nc2c(cc1C[NH2+]Cc3ccc(cc3)C[NH+](C)C)cccc2)Cc4ccccc4

>  <s_sd_BIOSOLVEIT.INFINISEE\_REACTION\_NAME>  (162) 
rxn503b

>  <s_sd_BIOSOLVEIT.INFINISEE\_REAGENT1\_NAME>  (162) 
EMOL525400

>  <s_sd_BIOSOLVEIT.INFINISEE\_REAGENT1\_SMILES>  (162) 
O=C(O)Cc1ccc(C#N)cc1

>  <s_sd_BIOSOLVEIT.INFINISEE\_REAGENT2\_NAME>  (162) 
EMOL30488121

>  <s_sd_BIOSOLVEIT.INFINISEE\_REAGENT2\_SMILES>  (162) 
Brc1c(N)cnc2c1cccc2

>  <s_sd_BIOSOLVEIT.INFINISEE\_REAGENT3\_NAME>  (162) 
EMOL317506007

>  <s_sd_BIOSOLVEIT.INFINISEE\_REAGENT3\_SMILES>  (162) 
Fc1ccc(cc1)C(NCC#C)C

>  <s_sd_BIOSOLVEIT.INFINISEE\_SPACE>  (162) 
eXplore_7tr_2022-12

>  <s_vsw_compound_code>  (162) 
87299

>  <s_vsw_variant>  (162) 
87299-3

>  <r_epik_Charging_Adjusted_Penalty>  (162) 
1.1575994546039801

>  <r_epik_Ionization_Penalty>  (162) 
0.57899999999999996

>  <r_epik_Ionization_Penalty_Charging>  (162) 
0.57879999999999998

>  <r_epik_Ionization_Penalty_Neutral>  (162) 
0.00020000000000000001

>  <r_epik_State_Penalty>  (162) 
0.57879999999999998

>  <r_i_docking_score>  (162) 
-4.7594684477576603

>  <r_i_glide_ecoul>  (162) 
-8.8215732574462908

>  <r_i_glide_eff_state_penalty>  (162) 
0.57879999999999998

>  <r_i_glide_einternal>  (162) 
12.274682044982899

>  <r_i_glide_emodel>  (162) 
-62.579822392051199

>  <r_i_glide_energy>  (162) 
-46.862066268920898

>  <r_i_glide_erotb>  (162) 
0.75035871410553501

>  <r_i_glide_esite>  (162) 
-0.10000000000000001

>  <r_i_glide_evdw>  (162) 
-38.040493011474602

>  <r_i_glide_gscore>  (162) 
-5.3382684477576596

>  <r_i_glide_hbond>  (162) 
-0.21797243103931799

>  <r_i_glide_ligand_efficiency>  (162) 
-0.135984812793076

>  <r_i_glide_ligand_efficiency_ln>  (162) 
-1.04480895499377

>  <r_i_glide_ligand_efficiency_sa>  (162) 
-0.444815339297576

>  <r_i_glide_lipo>  (162) 
-1.8110004896240599

>  <r_i_glide_metal>  (162) 
-0

>  <r_i_glide_rewards>  (162) 
-0.73439360200914905

>  <r_lp_Energy>  (162) 
24.913889999999999

>  <r_qp_ACxDN^.5/SA>  (162) 
0.0123363

>  <r_qp_CIQPlogS>  (162) 
-7.2270000000000003

>  <r_qp_EA(eV)>  (162) 
1.286

>  <r_qp_FISA>  (162) 
121.434

>  <r_qp_FOSA>  (162) 
122.378

>  <r_qp_IP(eV)>  (162) 
8.7870000000000008

>  <r_qp_Jm>  (162) 
0.000266031206768102

>  <r_qp_PISA>  (162) 
454.31799999999998

>  <r_qp_PSA>  (162) 
84.328000000000003

>  <r_qp_PercentHumanOralAbsorption>  (162) 
94.314999999999998

>  <r_qp_QPPCaco>  (162) 
174.279

>  <r_qp_QPPMDCK>  (162) 
149.86000000000001

>  <r_qp_QPlogBB>  (162) 
-0.67400000000000004

>  <r_qp_QPlogHERG>  (162) 
-7.367

>  <r_qp_QPlogKhsa>  (162) 
0.77100000000000002

>  <r_qp_QPlogKp>  (162) 
-3.3559999999999999

>  <r_qp_QPlogPC16>  (162) 
15.548999999999999

>  <r_qp_QPlogPo/w>  (162) 
4.6550000000000002

>  <r_qp_QPlogPoct>  (162) 
23.431000000000001

>  <r_qp_QPlogPw>  (162) 
12.792

>  <r_qp_QPlogS>  (162) 
-5.8849999999999998

>  <r_qp_QPpolrz>  (162) 
49.048999999999999

>  <r_qp_SASA>  (162) 
745.14999999999998

>  <r_qp_SAamideO>  (162) 
0

>  <r_qp_SAfluorine>  (162) 
47.021000000000001

>  <r_qp_WPSA>  (162) 
47.021000000000001

>  <r_qp_accptHB>  (162) 
6.5

>  <r_qp_dip^2/V>  (162) 
0.016581800000000001

>  <r_qp_dipole>  (162) 
4.8449999999999998

>  <r_qp_donorHB>  (162) 
2

>  <r_qp_glob>  (162) 
0.8181522

>  <r_qp_mol_MW>  (162) 
462.52499999999998

>  <r_qp_volume>  (162) 
1415.3679999999999

>  <r_sd_BIOSOLVEIT.INFINISEE\_FTREES\_SIMILARITY>  (162) 
0.90800000000000003

>  <r_sd_BIOSOLVEIT.LOGP>  (162) 
4.1028799999999999

>  <r_sd_BIOSOLVEIT.MOLECULAR\_WEIGHT>  (162) 
463.53399999999999

>  <r_sd_BIOSOLVEIT.TPSA>  (162) 
82.390000000000001

>  <i_epik_Tot_Q>  (162) 
1

>  <i_epik_Tot_abs_Q>  (162) 
1

>  <i_f3d_flags>  (162) 
0

>  <i_i_glide_confnum>  (162) 
7

>  <i_i_glide_lignum>  (162) 
1293

>  <i_i_glide_posenum>  (162) 
20

>  <i_i_glide_rotatable_bonds>  (162) 
9

>  <i_lp_mmshare_version>  (162) 
65135

>  <i_m_ct_format>  (162) 
2

>  <i_m_source_file_index>  (162) 
2729

>  <i_qp_#NandO>  (162) 
5

>  <i_qp_#acid>  (162) 
0

>  <i_qp_#amide>  (162) 
0

>  <i_qp_#amidine>  (162) 
0

>  <i_qp_#amine>  (162) 
1

>  <i_qp_#in34>  (162) 
0

>  <i_qp_#in56>  (162) 
22

>  <i_qp_#metab>  (162) 
5

>  <i_qp_#nonHatm>  (162) 
35

>  <i_qp_#noncon>  (162) 
0

>  <i_qp_#ringatoms>  (162) 
22

>  <i_qp_#rotor>  (162) 
9

>  <i_qp_#rtvFG>  (162) 
0

>  <i_qp_#stars>  (162) 
1

>  <i_qp_CNS>  (162) 
1

>  <i_qp_HumanOralAbsorption>  (162) 
3

>  <i_qp_RuleOfFive>  (162) 
0

>  <i_qp_RuleOfThree>  (162) 
1

>  <i_sd_BIOSOLVEIT.INFINISEE\_RESULT\_RANK>  (162) 
55912

>  <i_sd_version>  (162) 
0

>  <b_lp_Chiralities_Consistent>  (162) 
1

>  <b_sd_chiral_flag>  (162) 
0

>  <canonical_id>  (162) 
ATP-HTVS-196468D2BF96

>  <compound_code>  (162) 
87299

>  <title>  (162) 
rxn503b____EMOL525400____EMOL30488121____EMOL317506007

>  <variant>  (162) 
87299-3

>  <source_file>  (162) 
运行/运行/ATP-VSW/ATP-VSW-DOCK_HTVS_1-003_lib/ATP-VSW-DOCK_HTVS_1-003_lib.mae

>  <canonical_smiles>  (162) 
C[C@@H]([NH2+]CC#Cc1c(NC(=O)Cc2ccc(C#N)cc2)cnc2ccccc12)c1ccc(F)cc1

>  <scaffold>  (162) 
O=C(Cc1ccccc1)Nc1cnc2ccccc2c1C#CC[NH2+]Cc1ccccc1

>  <molecular_formula>  (162) 
C29H24FN4O+

$$$$
ATP-HTVS-19D22C817A74
     RDKit          3D

 63 66  0  0  0  0  0  0  0  0999 V2000
  198.4575  182.8832  154.0534 S   0  0  0  0  0  0  0  0  0  0  0  0
  198.6904  182.8494  152.3194 C   0  0  0  0  0  0  0  0  0  0  0  0
  198.0168  181.7145  151.7450 C   0  0  0  0  0  0  0  0  0  0  0  0
  198.1421  181.5533  150.3432 C   0  0  0  0  0  0  0  0  0  0  0  0
  198.8597  182.4605  149.5454 C   0  0  0  0  0  0  0  0  0  0  0  0
  199.4902  183.5657  150.1374 C   0  0  0  0  0  0  0  0  0  0  0  0
  199.4081  183.7658  151.5250 C   0  0  0  0  0  0  0  0  0  0  0  0
  197.2893  180.8849  152.7234 C   0  0  0  0  0  0  0  0  0  0  0  0
  197.4657  181.4133  154.0027 C   0  0  0  0  0  0  0  0  0  0  0  0
  196.9117  180.8474  155.3021 C   0  0  1  0  0  0  0  0  0  0  0  0
  197.8875  179.9509  155.9873 N   0  0  1  0  0  0  0  0  0  0  0  0
  198.1199  178.6656  155.2912 C   0  0  1  0  0  0  0  0  0  0  0  0
  199.6019  178.4334  155.0624 C   0  0  0  0  0  0  0  0  0  0  0  0
  200.3194  177.5350  155.8920 C   0  0  0  0  0  0  0  0  0  0  0  0
  201.6765  177.2533  155.6335 C   0  0  0  0  0  0  0  0  0  0  0  0
  202.3315  177.8534  154.5390 C   0  0  0  0  0  0  0  0  0  0  0  0
  201.6008  178.6886  153.6605 C   0  0  0  0  0  0  0  0  0  0  0  0
  200.2510  178.9834  153.9271 C   0  0  0  0  0  0  0  0  0  0  0  0
  203.8113  177.6186  154.3307 C   0  0  1  0  0  0  0  0  0  0  0  0
  204.6674  178.6767  154.9165 N   0  0  1  0  0  0  0  0  0  0  0  0
  206.1121  178.3723  154.8052 C   0  0  2  0  0  0  0  0  0  0  0  0
  204.3708  180.0410  154.4258 C   0  0  2  0  0  0  0  0  0  0  0  0
  196.5585  181.8666  156.3117 C   0  0  0  0  0  0  0  0  0  0  0  0
  196.2767  182.6926  157.1687 C   0  0  0  0  0  0  0  0  0  0  0  0
  195.8865  183.6466  158.1914 C   0  0  0  0  0  0  0  0  0  0  0  0
  196.7943  184.6118  158.6783 C   0  0  0  0  0  0  0  0  0  0  0  0
  196.4036  185.5189  159.6881 C   0  0  0  0  0  0  0  0  0  0  0  0
  195.0923  185.4847  160.2115 C   0  0  0  0  0  0  0  0  0  0  0  0
  194.1835  184.5278  159.7063 C   0  0  0  0  0  0  0  0  0  0  0  0
  194.5786  183.6104  158.7139 C   0  0  0  0  0  0  0  0  0  0  0  0
  194.6758  186.4441  161.2977 C   0  0  0  0  0  0  0  0  0  0  0  0
  193.5203  186.3814  161.7750 O   0  0  0  0  0  0  0  0  0  0  0  0
  195.5235  187.2599  161.7161 O   0  0  0  0  0  0  0  0  0  0  0  0
  196.4610  179.6531  152.3134 C   0  0  2  0  0  0  0  0  0  0  0  0
  198.7719  180.4755  156.0973 H   0  0  0  0  0  0  0  0  0  0  0  0
  197.6608  180.7112  149.8732 H   0  0  0  0  0  0  0  0  0  0  0  0
  198.9214  182.3007  148.4825 H   0  0  0  0  0  0  0  0  0  0  0  0
  200.0410  184.2611  149.5274 H   0  0  0  0  0  0  0  0  0  0  0  0
  199.8844  184.6107  151.9927 H   0  0  0  0  0  0  0  0  0  0  0  0
  195.9697  180.3428  155.0819 H   0  0  0  0  0  0  0  0  0  0  0  0
  197.6609  177.8738  155.8908 H   0  0  0  0  0  0  0  0  0  0  0  0
  197.7459  178.6606  154.3167 H   0  0  0  0  0  0  0  0  0  0  0  0
  199.7758  177.0609  156.7007 H   0  0  0  0  0  0  0  0  0  0  0  0
  202.1897  176.6076  156.3334 H   0  0  0  0  0  0  0  0  0  0  0  0
  202.1046  179.1668  152.8320 H   0  0  0  0  0  0  0  0  0  0  0  0
  199.7311  179.6414  153.2311 H   0  0  0  0  0  0  0  0  0  0  0  0
  204.0702  176.6551  154.7726 H   0  0  0  0  0  0  0  0  0  0  0  0
  204.0091  177.5355  153.2657 H   0  0  0  0  0  0  0  0  0  0  0  0
  206.4071  178.2780  153.7594 H   0  0  0  0  0  0  0  0  0  0  0  0
  206.3678  177.4465  155.3171 H   0  0  0  0  0  0  0  0  0  0  0  0
  206.7149  179.1678  155.2452 H   0  0  0  0  0  0  0  0  0  0  0  0
  204.5253  180.0869  153.3402 H   0  0  0  0  0  0  0  0  0  0  0  0
  204.9897  180.8015  154.9091 H   0  0  0  0  0  0  0  0  0  0  0  0
  203.3449  180.3429  154.6414 H   0  0  0  0  0  0  0  0  0  0  0  0
  197.7962  184.6625  158.2819 H   0  0  0  0  0  0  0  0  0  0  0  0
  197.1180  186.2483  160.0567 H   0  0  0  0  0  0  0  0  0  0  0  0
  193.1853  184.4900  160.1131 H   0  0  0  0  0  0  0  0  0  0  0  0
  193.8531  182.9007  158.3437 H   0  0  0  0  0  0  0  0  0  0  0  0
  196.6217  178.7405  152.8613 H   0  0  0  0  0  0  0  0  0  0  0  0
  196.7164  179.3929  151.2614 H   0  0  0  0  0  0  0  0  0  0  0  0
  195.3886  179.9186  152.4189 H   0  0  0  0  0  0  0  0  0  0  0  0
  204.4609  178.6532  155.9310 H   0  0  0  0  0  0  0  0  0  0  0  0
  197.4657  179.7281  156.9083 H   0  0  0  0  0  0  0  0  0  0  0  0
  1  2  1  0
  1  9  1  0
  2  3  1  0
  2  7  2  0
  3  4  2  0
  3  8  1  0
  4  5  1  0
  4 36  1  0
  5  6  2  0
  5 37  1  0
  6  7  1  0
  6 38  1  0
  7 39  1  0
  8  9  2  0
  8 34  1  0
  9 10  1  0
 10 11  1  0
 10 23  1  0
 10 40  1  6
 11 12  1  0
 11 35  1  1
 11 63  1  0
 12 13  1  0
 12 41  1  1
 12 42  1  0
 13 14  1  0
 13 18  2  0
 14 15  2  0
 14 43  1  0
 15 16  1  0
 15 44  1  0
 16 17  2  0
 16 19  1  0
 17 18  1  0
 17 45  1  0
 18 46  1  0
 19 20  1  0
 19 47  1  1
 19 48  1  0
 20 21  1  0
 20 22  1  0
 20 62  1  1
 21 49  1  6
 21 50  1  0
 21 51  1  0
 22 52  1  6
 22 53  1  0
 22 54  1  0
 23 24  3  0
 24 25  1  0
 25 26  1  0
 25 30  2  0
 26 27  2  0
 26 55  1  0
 27 28  1  0
 27 56  1  0
 28 29  2  0
 28 31  1  0
 29 30  1  0
 29 57  1  0
 30 58  1  0
 31 32  1  0
 31 33  2  0
 34 59  1  1
 34 60  1  0
 34 61  1  0
M  CHG  3  11   1  20   1  32  -1
M  END
>  <s_epik_cmdline>  (163) 
J2VwaWtfcHl0aG9uJywgJy1waCcsICc3LjAwMDAwMCcsICctcGh0JywgJzIuMDAwMDAwJywgJy1tcycsICcxNicsICctdG4nLCAnOCcsICctbWEnLCAnMjAwJywgJy1pbWFlJywgJzxpbmZpbGUubWFlPicsICctb21hZScsICc8b3V0ZmlsZS5tYWU+Jw==

>  <s_epik_input>  (163) 
W2NIXTFbY0hdYyhDKD1PKVtPSF0pW2NIXVtjSF1jMUMjQ1tDQEBIXShjKHMyKWMoW0NIM10pYyhjMjMpW2NIXVtjSF1bY0hdW2NIXTMpW05IXVtDSDJdYzRbY0hdW2NIXWMoW2NIXVtjSF00KVtDSDJdTihbQ0gzXSlbQ0gzXQ==

>  <s_i_glide_gridfile>  (163) 
ATP-Grid

>  <s_lp_Force_Field>  (163) 
OPLS_2005

>  <s_lp_Variant>  (163) 
rxn403____EMOL50155899____EMOL721951____EMOL31600616-4

>  <s_lp_label>  (163) 
2923_sdstereoexpander_2_neutralizer_1_epik_2_stereoizer_1

>  <s_m_source_file>  (163) 
ATP-VSW-LIGPREP-003-in.maegz

>  <s_sd_BIOSOLVEIT.INFINISEE\_QUERY\_NAME>  (163) 
Ref-Lig

>  <s_sd_BIOSOLVEIT.INFINISEE\_QUERY\_SMILES>  (163) 
S(c1nc2c(cc1C[NH2+]Cc3ccc(cc3)C[NH+](C)C)cccc2)Cc4ccccc4

>  <s_sd_BIOSOLVEIT.INFINISEE\_REACTION\_NAME>  (163) 
rxn403

>  <s_sd_BIOSOLVEIT.INFINISEE\_REAGENT1\_NAME>  (163) 
EMOL50155899

>  <s_sd_BIOSOLVEIT.INFINISEE\_REAGENT1\_SMILES>  (163) 
N(Cc1ccc(cc1)CN)(C)C

>  <s_sd_BIOSOLVEIT.INFINISEE\_REAGENT2\_NAME>  (163) 
EMOL721951

>  <s_sd_BIOSOLVEIT.INFINISEE\_REAGENT2\_SMILES>  (163) 
S1c2c(cccc2)C(=C1C=O)C

>  <s_sd_BIOSOLVEIT.INFINISEE\_REAGENT3\_NAME>  (163) 
EMOL31600616

>  <s_sd_BIOSOLVEIT.INFINISEE\_REAGENT3\_SMILES>  (163) 
O=C(O)c1ccc(C#C)cc1

>  <s_sd_BIOSOLVEIT.INFINISEE\_SPACE>  (163) 
eXplore_7tr_2022-12

>  <s_vsw_compound_code>  (163) 
93507

>  <s_vsw_variant>  (163) 
93507-4

>  <r_epik_Charging_Adjusted_Penalty>  (163) 
1.4132781702947099

>  <r_epik_Ionization_Penalty>  (163) 
0.70689999999999997

>  <r_epik_Ionization_Penalty_Charging>  (163) 
0.70689999999999997

>  <r_epik_Ionization_Penalty_Neutral>  (163) 
0

>  <r_epik_State_Penalty>  (163) 
0.70630000000000004

>  <r_i_docking_score>  (163) 
-4.6354578170569498

>  <r_i_glide_ecoul>  (163) 
-12.3226518630981

>  <r_i_glide_eff_state_penalty>  (163) 
0.70630000000000004

>  <r_i_glide_einternal>  (163) 
3.6434471607208301

>  <r_i_glide_emodel>  (163) 
-66.972002468803495

>  <r_i_glide_energy>  (163) 
-44.133200645446799

>  <r_i_glide_erotb>  (163) 
0.64111273366732902

>  <r_i_glide_esite>  (163) 
-0.14855638171699601

>  <r_i_glide_evdw>  (163) 
-31.810548782348601

>  <r_i_glide_gscore>  (163) 
-5.3417578170569504

>  <r_i_glide_hbond>  (163) 
-0.191225321034378

>  <r_i_glide_ligand_efficiency>  (163) 
-0.136336994619322

>  <r_i_glide_ligand_efficiency_ln>  (163) 
-1.02410265197557

>  <r_i_glide_ligand_efficiency_sa>  (163) 
-0.44167893620028698

>  <r_i_glide_lipo>  (163) 
-1.1772661884458799

>  <r_i_glide_metal>  (163) 
-0

>  <r_i_glide_rewards>  (163) 
-1.0268974409448699

>  <r_lp_Energy>  (163) 
23.193718000000001

>  <r_qp_ACxDN^.5/SA>  (163) 
0.0090901999999999997

>  <r_qp_CIQPlogS>  (163) 
-5.6310000000000002

>  <r_qp_EA(eV)>  (163) 
0.78600000000000003

>  <r_qp_FISA>  (163) 
122.67

>  <r_qp_FOSA>  (163) 
269.51900000000001

>  <r_qp_IP(eV)>  (163) 
8.5879999999999992

>  <r_qp_Jm>  (163) 
3.73505553211377e-07

>  <r_qp_PISA>  (163) 
429.00299999999999

>  <r_qp_PSA>  (163) 
68.045000000000002

>  <r_qp_PercentHumanOralAbsorption>  (163) 
67.906999999999996

>  <r_qp_QPPCaco>  (163) 
10.715999999999999

>  <r_qp_QPPMDCK>  (163) 
8.8320000000000007

>  <r_qp_QPlogBB>  (163) 
-0.53500000000000003

>  <r_qp_QPlogHERG>  (163) 
-7.202

>  <r_qp_QPlogKhsa>  (163) 
1.1020000000000001

>  <r_qp_QPlogKp>  (163) 
-5.5300000000000002

>  <r_qp_QPlogPC16>  (163) 
17.449000000000002

>  <r_qp_QPlogPo/w>  (163) 
3.847

>  <r_qp_QPlogPoct>  (163) 
24.026

>  <r_qp_QPlogPw>  (163) 
11.904

>  <r_qp_QPlogS>  (163) 
-6.5679999999999996

>  <r_qp_QPpolrz>  (163) 
53.841999999999999

>  <r_qp_SASA>  (163) 
855.66399999999999

>  <r_qp_SAamideO>  (163) 
0

>  <r_qp_SAfluorine>  (163) 
0

>  <r_qp_WPSA>  (163) 
34.470999999999997

>  <r_qp_accptHB>  (163) 
5.5

>  <r_qp_dip^2/V>  (163) 
0.0042487000000000002

>  <r_qp_dipole>  (163) 
2.5590000000000002

>  <r_qp_donorHB>  (163) 
2

>  <r_qp_glob>  (163) 
0.75410279999999996

>  <r_qp_mol_MW>  (163) 
468.61200000000002

>  <r_qp_volume>  (163) 
1541.1780000000001

>  <r_sd_BIOSOLVEIT.INFINISEE\_FTREES\_SIMILARITY>  (163) 
0.90400000000000003

>  <r_sd_BIOSOLVEIT.LOGP>  (163) 
2.0741200000000002

>  <r_sd_BIOSOLVEIT.MOLECULAR\_WEIGHT>  (163) 
469.625

>  <r_sd_BIOSOLVEIT.TPSA>  (163) 
61.18

>  <i_epik_Tot_Q>  (163) 
1

>  <i_epik_Tot_abs_Q>  (163) 
3

>  <i_f3d_flags>  (163) 
0

>  <i_i_glide_confnum>  (163) 
4

>  <i_i_glide_lignum>  (163) 
1438

>  <i_i_glide_posenum>  (163) 
3

>  <i_i_glide_rotatable_bonds>  (163) 
9

>  <i_lp_mmshare_version>  (163) 
65135

>  <i_m_ct_format>  (163) 
2

>  <i_m_source_file_index>  (163) 
2923

>  <i_qp_#NandO>  (163) 
4

>  <i_qp_#acid>  (163) 
1

>  <i_qp_#amide>  (163) 
0

>  <i_qp_#amidine>  (163) 
0

>  <i_qp_#amine>  (163) 
2

>  <i_qp_#in34>  (163) 
0

>  <i_qp_#in56>  (163) 
21

>  <i_qp_#metab>  (163) 
7

>  <i_qp_#nonHatm>  (163) 
34

>  <i_qp_#noncon>  (163) 
0

>  <i_qp_#ringatoms>  (163) 
21

>  <i_qp_#rotor>  (163) 
9

>  <i_qp_#rtvFG>  (163) 
0

>  <i_qp_#stars>  (163) 
1

>  <i_qp_CNS>  (163) 
0

>  <i_qp_HumanOralAbsorption>  (163) 
1

>  <i_qp_RuleOfFive>  (163) 
0

>  <i_qp_RuleOfThree>  (163) 
3

>  <i_sd_BIOSOLVEIT.INFINISEE\_RESULT\_RANK>  (163) 
77357

>  <i_sd_version>  (163) 
0

>  <b_lp_Chiralities_Consistent>  (163) 
1

>  <b_sd_chiral_flag>  (163) 
0

>  <canonical_id>  (163) 
ATP-HTVS-19D22C817A74

>  <compound_code>  (163) 
93507

>  <title>  (163) 
rxn403____EMOL50155899____EMOL721951____EMOL31600616

>  <variant>  (163) 
93507-4

>  <source_file>  (163) 
运行/运行/ATP-VSW/ATP-VSW-DOCK_HTVS_1-003_lib/ATP-VSW-DOCK_HTVS_1-003_lib.mae

>  <canonical_smiles>  (163) 
Cc1c([C@H](C#Cc2ccc(C(=O)[O-])cc2)[NH2+]Cc2ccc(C[NH+](C)C)cc2)sc2ccccc12

>  <scaffold>  (163) 
C(#CC([NH2+]Cc1ccccc1)c1cc2ccccc2s1)c1ccccc1

>  <molecular_formula>  (163) 
C29H29N2O2S+

$$$$
ATP-HTVS-19D9965850C9
     RDKit          3D

 63 66  0  0  0  0  0  0  0  0999 V2000
  203.5631  180.2423  158.5445 O   0  0  0  0  0  0  0  0  0  0  0  0
  202.2000  180.5235  158.4200 C   0  0  1  0  0  0  0  0  0  0  0  0
  201.8725  181.2662  157.1133 C   0  0  0  0  0  0  0  0  0  0  0  0
  201.1233  180.6905  156.0439 C   0  0  0  0  0  0  0  0  0  0  0  0
  200.8844  181.4630  154.8808 C   0  0  0  0  0  0  0  0  0  0  0  0
  201.3121  182.8083  154.8159 C   0  0  0  0  0  0  0  0  0  0  0  0
  202.0774  183.3728  155.8457 C   0  0  0  0  0  0  0  0  0  0  0  0
  202.3365  182.5878  157.0104 C   0  0  0  0  0  0  0  0  0  0  0  0
  200.5764  179.2536  156.1680 C   0  0  1  0  0  0  0  0  0  0  0  0
  199.6749  178.7513  155.1357 N   0  0  0  0  0  0  0  0  0  0  0  0
  198.5236  179.4760  154.7884 C   0  0  0  0  0  0  0  0  0  0  0  0
  197.9292  180.2299  155.7352 N   0  0  0  0  0  0  0  0  0  0  0  0
  196.8850  181.0055  155.4106 C   0  0  0  0  0  0  0  0  0  0  0  0
  196.3838  181.0558  154.1755 N   0  0  0  0  0  0  0  0  0  0  0  0
  196.9214  180.2984  153.1898 C   0  0  0  0  0  0  0  0  0  0  0  0
  198.0512  179.4894  153.4589 C   0  0  0  0  0  0  0  0  0  0  0  0
  198.6611  178.7706  152.3988 C   0  0  0  0  0  0  0  0  0  0  0  0
  198.1266  178.8413  151.0985 C   0  0  0  0  0  0  0  0  0  0  0  0
  196.9913  179.6340  150.8418 C   0  0  0  0  0  0  0  0  0  0  0  0
  196.3996  180.3739  151.8869 C   0  0  0  0  0  0  0  0  0  0  0  0
  196.3468  181.8610  156.3520 N   0  0  0  0  0  0  0  0  0  0  0  0
  196.7959  181.9379  157.7323 C   0  0  1  0  0  0  0  0  0  0  0  0
  196.2854  183.1935  158.4321 C   0  0  0  0  0  0  0  0  0  0  0  0
  197.0140  184.4192  158.4618 C   0  0  0  0  0  0  0  0  0  0  0  0
  196.4691  185.5335  159.1399 C   0  0  0  0  0  0  0  0  0  0  0  0
  195.2210  185.4538  159.7789 C   0  0  0  0  0  0  0  0  0  0  0  0
  194.4893  184.2587  159.7196 C   0  0  0  0  0  0  0  0  0  0  0  0
  195.0172  183.1346  159.0552 C   0  0  0  0  0  0  0  0  0  0  0  0
  198.3938  184.6070  157.8480 C   0  0  1  0  0  0  0  0  0  0  0  0
  199.4199  184.7803  158.9104 N   0  0  1  0  0  0  0  0  0  0  0  0
  199.6623  183.4893  159.6138 C   0  0  2  0  0  0  0  0  0  0  0  0
  200.6625  185.3241  158.3199 C   0  0  2  0  0  0  0  0  0  0  0  0
  203.7601  179.5310  157.9260 H   0  0  0  0  0  0  0  0  0  0  0  0
  201.6475  179.5942  158.5484 H   0  0  0  0  0  0  0  0  0  0  0  0
  201.9408  181.1584  159.2718 H   0  0  0  0  0  0  0  0  0  0  0  0
  200.3184  181.1181  154.0310 H   0  0  0  0  0  0  0  0  0  0  0  0
  201.0068  183.4045  153.9852 H   0  0  0  0  0  0  0  0  0  0  0  0
  202.4676  184.3831  155.7450 H   0  0  0  0  0  0  0  0  0  0  0  0
  202.9296  183.0210  157.8138 H   0  0  0  0  0  0  0  0  0  0  0  0
  201.4609  178.6195  156.1428 H   0  0  0  0  0  0  0  0  0  0  0  0
  200.0920  179.0862  157.1342 H   0  0  0  0  0  0  0  0  0  0  0  0
  200.0976  178.1800  154.4222 H   0  0  0  0  0  0  0  0  0  0  0  0
  199.5592  178.1921  152.5546 H   0  0  0  0  0  0  0  0  0  0  0  0
  198.5843  178.2797  150.2943 H   0  0  0  0  0  0  0  0  0  0  0  0
  196.5661  179.6574  149.8481 H   0  0  0  0  0  0  0  0  0  0  0  0
  195.5540  181.0087  151.6730 H   0  0  0  0  0  0  0  0  0  0  0  0
  195.4252  182.2372  156.1407 H   0  0  0  0  0  0  0  0  0  0  0  0
  196.4478  181.0609  158.2871 H   0  0  0  0  0  0  0  0  0  0  0  0
  197.8849  181.8730  157.7628 H   0  0  0  0  0  0  0  0  0  0  0  0
  197.0143  186.4671  159.1852 H   0  0  0  0  0  0  0  0  0  0  0  0
  194.8160  186.3152  160.2902 H   0  0  0  0  0  0  0  0  0  0  0  0
  193.5158  184.2191  160.1781 H   0  0  0  0  0  0  0  0  0  0  0  0
  194.4380  182.2240  159.0116 H   0  0  0  0  0  0  0  0  0  0  0  0
  198.6509  183.8241  157.1183 H   0  0  0  0  0  0  0  0  0  0  0  0
  198.3308  185.5088  157.2416 H   0  0  0  0  0  0  0  0  0  0  0  0
  199.9533  182.6830  158.9266 H   0  0  0  0  0  0  0  0  0  0  0  0
  198.7786  183.1292  160.1476 H   0  0  0  0  0  0  0  0  0  0  0  0
  200.4659  183.5677  160.3488 H   0  0  0  0  0  0  0  0  0  0  0  0
  200.9119  184.6320  157.5418 H   0  0  0  0  0  0  0  0  0  0  0  0
  201.4502  185.4155  159.0820 H   0  0  0  0  0  0  0  0  0  0  0  0
  200.5061  186.3448  157.9218 H   0  0  0  0  0  0  0  0  0  0  0  0
  195.6074  181.6921  153.9591 H   0  0  0  0  0  0  0  0  0  0  0  0
  199.0053  185.4078  159.6099 H   0  0  0  0  0  0  0  0  0  0  0  0
  1  2  1  0
  1 33  1  0
  2  3  1  0
  2 34  1  1
  2 35  1  0
  3  4  1  0
  3  8  2  0
  4  5  2  0
  4  9  1  0
  5  6  1  0
  5 36  1  0
  6  7  2  0
  6 37  1  0
  7  8  1  0
  7 38  1  0
  8 39  1  0
  9 10  1  0
  9 40  1  1
  9 41  1  0
 10 11  1  0
 10 42  1  0
 11 12  2  0
 11 16  1  0
 12 13  1  0
 13 14  2  0
 13 21  1  0
 14 15  1  0
 14 62  1  0
 15 16  1  0
 15 20  2  0
 16 17  2  0
 17 18  1  0
 17 43  1  0
 18 19  2  0
 18 44  1  0
 19 20  1  0
 19 45  1  0
 20 46  1  0
 21 22  1  0
 21 47  1  0
 22 23  1  0
 22 48  1  1
 22 49  1  0
 23 24  1  0
 23 28  2  0
 24 25  2  0
 24 29  1  0
 25 26  1  0
 25 50  1  0
 26 27  2  0
 26 51  1  0
 27 28  1  0
 27 52  1  0
 28 53  1  0
 29 30  1  0
 29 54  1  6
 29 55  1  0
 30 31  1  0
 30 32  1  0
 30 63  1  1
 31 56  1  6
 31 57  1  0
 31 58  1  0
 32 59  1  6
 32 60  1  0
 32 61  1  0
M  CHG  2  14   1  30   1
M  END
>  <s_epik_cmdline>  (164) 
J2VwaWtfcHl0aG9uJywgJy1waCcsICc3LjAwMDAwMCcsICctcGh0JywgJzIuMDAwMDAwJywgJy1tcycsICcxNicsICctdG4nLCAnOCcsICctbWEnLCAnMjAwJywgJy1pbWFlJywgJzxpbmZpbGUubWFlPicsICctb21hZScsICc8b3V0ZmlsZS5tYWU+Jw==

>  <s_epik_input>  (164) 
W2NIXTFbY0hdW2NIXVtjSF1jKGMxW0NIMl1bT0hdKVtDSDJdW05IXWMoYyhjMjMpW2NIXVtjSF1bY0hdW2NIXTMpbmMobjIpW05IXVtDSDJdYzRjKFtDSDJdTihbQ0gzXSlbQ0gzXSlbY0hdW2NIXVtjSF1bY0hdNA==

>  <s_i_glide_gridfile>  (164) 
ATP-Grid

>  <s_lp_Force_Field>  (164) 
OPLS_2005

>  <s_lp_Variant>  (164) 
m_282030aaa____21930538____22360182____21973156-1

>  <s_lp_label>  (164) 
1200_sdstereoexpander_1_neutralizer_1_epik_1_stereoizer_1

>  <s_m_source_file>  (164) 
ATP-VSW-LIGPREP-002-in.maegz

>  <s_sd_BIOSOLVEIT.INFINISEE\_QUERY\_NAME>  (164) 
Ref-Lig

>  <s_sd_BIOSOLVEIT.INFINISEE\_QUERY\_SMILES>  (164) 
S(c1nc2c(cc1C[NH2+]Cc3ccc(cc3)C[NH+](C)C)cccc2)Cc4ccccc4

>  <s_sd_BIOSOLVEIT.INFINISEE\_REACTION\_NAME>  (164) 
m_282030aaa

>  <s_sd_BIOSOLVEIT.INFINISEE\_REAGENT1\_SMILES>  (164) 
[R1*]NCc1c(cccc1)CO

>  <s_sd_BIOSOLVEIT.INFINISEE\_REAGENT2\_SMILES>  (164) 
[R2*]c1nc([R1*])c2c(n1)cccc2

>  <s_sd_BIOSOLVEIT.INFINISEE\_REAGENT3\_SMILES>  (164) 
[R2*]NCc1c(cccc1)CN(C)C

>  <s_sd_BIOSOLVEIT.INFINISEE\_SPACE>  (164) 
REALSpace_44bn_2023-08

>  <s_vsw_compound_code>  (164) 
38370

>  <s_vsw_variant>  (164) 
38370-1

>  <r_epik_Charging_Adjusted_Penalty>  (164) 
0.11685025125267499

>  <r_epik_Ionization_Penalty>  (164) 
0.055

>  <r_epik_Ionization_Penalty_Charging>  (164) 
0.055

>  <r_epik_Ionization_Penalty_Neutral>  (164) 
0

>  <r_epik_State_Penalty>  (164) 
0.061800000000000001

>  <r_i_docking_score>  (164) 
-4.3419089373706301

>  <r_i_glide_ecoul>  (164) 
-6.6796383857727104

>  <r_i_glide_eff_state_penalty>  (164) 
0.061800000000000001

>  <r_i_glide_einternal>  (164) 
3.3379216194152801

>  <r_i_glide_emodel>  (164) 
-53.553915377849499

>  <r_i_glide_energy>  (164) 
-37.293583393096903

>  <r_i_glide_erotb>  (164) 
0.86163259182595797

>  <r_i_glide_esite>  (164) 
-0.22701810980519299

>  <r_i_glide_evdw>  (164) 
-30.613945007324201

>  <r_i_glide_gscore>  (164) 
-4.40370893737063

>  <r_i_glide_hbond>  (164) 
-0.52000000000000002

>  <r_i_glide_ligand_efficiency>  (164) 
-0.135684654292832

>  <r_i_glide_ligand_efficiency_ln>  (164) 
-0.97227176704482998

>  <r_i_glide_ligand_efficiency_sa>  (164) 
-0.43077192542311898

>  <r_i_glide_lipo>  (164) 
-1.5053888657047301

>  <r_i_glide_metal>  (164) 
-0

>  <r_i_glide_rewards>  (164) 
-0.480291545454544

>  <r_lp_Energy>  (164) 
18.928699000000002

>  <r_qp_ACxDN^.5/SA>  (164) 
0.017234300000000001

>  <r_qp_CIQPlogS>  (164) 
-5.3630000000000004

>  <r_qp_EA(eV)>  (164) 
0.60499999999999998

>  <r_qp_FISA>  (164) 
84.626000000000005

>  <r_qp_FOSA>  (164) 
171.54900000000001

>  <r_qp_IP(eV)>  (164) 
7.9269999999999996

>  <r_qp_Jm>  (164) 
0.60166185744756495

>  <r_qp_PISA>  (164) 
417.17700000000002

>  <r_qp_PSA>  (164) 
64.965999999999994

>  <r_qp_PercentHumanOralAbsorption>  (164) 
95.971000000000004

>  <r_qp_QPPCaco>  (164) 
389.303

>  <r_qp_QPPMDCK>  (164) 
197.41499999999999

>  <r_qp_QPlogBB>  (164) 
-0.39800000000000002

>  <r_qp_QPlogHERG>  (164) 
-6.4589999999999996

>  <r_qp_QPlogKhsa>  (164) 
0.41999999999999998

>  <r_qp_QPlogKp>  (164) 
-2.7120000000000002

>  <r_qp_QPlogPC16>  (164) 
14.643000000000001

>  <r_qp_QPlogPo/w>  (164) 
3.871

>  <r_qp_QPlogPoct>  (164) 
22.739000000000001

>  <r_qp_QPlogPw>  (164) 
13.539999999999999

>  <r_qp_QPlogS>  (164) 
-3.1400000000000001

>  <r_qp_QPpolrz>  (164) 
44.152000000000001

>  <r_qp_SASA>  (164) 
673.35299999999995

>  <r_qp_SAamideO>  (164) 
0

>  <r_qp_SAfluorine>  (164) 
0

>  <r_qp_WPSA>  (164) 
0

>  <r_qp_accptHB>  (164) 
6.7000000000000002

>  <r_qp_dip^2/V>  (164) 
0.0037398000000000002

>  <r_qp_dipole>  (164) 
2.2200000000000002

>  <r_qp_donorHB>  (164) 
3

>  <r_qp_glob>  (164) 
0.86333329999999997

>  <r_qp_mol_MW>  (164) 
427.548

>  <r_qp_volume>  (164) 
1317.9059999999999

>  <r_sd_BIOSOLVEIT.INFINISEE\_FTREES\_SIMILARITY>  (164) 
0.91100000000000003

>  <r_sd_BIOSOLVEIT.LOGP>  (164) 
2.9908000000000001

>  <r_sd_BIOSOLVEIT.MOLECULAR\_WEIGHT>  (164) 
428.55700000000002

>  <r_sd_BIOSOLVEIT.TPSA>  (164) 
74.510000000000005

>  <i_epik_Tot_Q>  (164) 
2

>  <i_epik_Tot_abs_Q>  (164) 
2

>  <i_f3d_flags>  (164) 
0

>  <i_i_glide_confnum>  (164) 
8

>  <i_i_glide_lignum>  (164) 
417

>  <i_i_glide_posenum>  (164) 
13

>  <i_i_glide_rotatable_bonds>  (164) 
10

>  <i_lp_mmshare_version>  (164) 
65135

>  <i_m_ct_format>  (164) 
2

>  <i_m_source_file_index>  (164) 
1200

>  <i_qp_#NandO>  (164) 
6

>  <i_qp_#acid>  (164) 
0

>  <i_qp_#amide>  (164) 
0

>  <i_qp_#amidine>  (164) 
0

>  <i_qp_#amine>  (164) 
1

>  <i_qp_#in34>  (164) 
0

>  <i_qp_#in56>  (164) 
22

>  <i_qp_#metab>  (164) 
6

>  <i_qp_#nonHatm>  (164) 
32

>  <i_qp_#noncon>  (164) 
0

>  <i_qp_#ringatoms>  (164) 
22

>  <i_qp_#rotor>  (164) 
10

>  <i_qp_#rtvFG>  (164) 
0

>  <i_qp_#stars>  (164) 
0

>  <i_qp_CNS>  (164) 
0

>  <i_qp_HumanOralAbsorption>  (164) 
3

>  <i_qp_RuleOfFive>  (164) 
0

>  <i_qp_RuleOfThree>  (164) 
0

>  <i_sd_BIOSOLVEIT.INFINISEE\_REAGENT1\_NAME>  (164) 
21930538

>  <i_sd_BIOSOLVEIT.INFINISEE\_REAGENT2\_NAME>  (164) 
22360182

>  <i_sd_BIOSOLVEIT.INFINISEE\_REAGENT3\_NAME>  (164) 
21973156

>  <i_sd_BIOSOLVEIT.INFINISEE\_RESULT\_RANK>  (164) 
40154

>  <i_sd_version>  (164) 
0

>  <b_lp_Chiralities_Consistent>  (164) 
1

>  <b_sd_chiral_flag>  (164) 
0

>  <canonical_id>  (164) 
ATP-HTVS-19D9965850C9

>  <compound_code>  (164) 
38370

>  <title>  (164) 
m_282030aaa____21930538____22360182____21973156

>  <variant>  (164) 
38370-1

>  <source_file>  (164) 
运行/运行/ATP-VSW/ATP-VSW-DOCK_HTVS_1-002_lib.maegz

>  <canonical_smiles>  (164) 
C[NH+](C)Cc1ccccc1CNc1nc(NCc2ccccc2CO)c2ccccc2[nH+]1

>  <scaffold>  (164) 
c1ccc(CNc2nc(NCc3ccccc3)c3ccccc3[nH+]2)cc1

>  <molecular_formula>  (164) 
C26H31N5O+2

$$$$
ATP-HTVS-19DB56372FFA
     RDKit          3D

 63 66  0  0  0  0  0  0  0  0999 V2000
  196.7327  183.6470  156.5774 O   0  0  0  0  0  0  0  0  0  0  0  0
  196.3492  182.6662  157.2157 C   0  0  0  0  0  0  0  0  0  0  0  0
  196.4052  181.4392  156.7194 N   0  0  0  0  0  0  0  0  0  0  0  0
  196.9742  181.0660  155.4699 C   0  0  0  0  0  0  0  0  0  0  0  0
  196.3630  181.4706  154.3394 N   0  0  0  0  0  0  0  0  0  0  0  0
  196.7623  181.1171  153.1048 C   0  0  0  0  0  0  0  0  0  0  0  0
  197.8839  180.2713  152.9238 C   0  0  0  0  0  0  0  0  0  0  0  0
  198.3065  179.8907  151.6364 N   0  0  0  0  0  0  0  0  0  0  0  0
  197.4147  179.9874  150.4914 C   0  0  1  0  0  0  0  0  0  0  0  0
  198.0092  179.4763  149.1910 C   0  0  0  0  0  0  0  0  0  0  0  0
  197.2204  178.6913  148.3253 C   0  0  0  0  0  0  0  0  0  0  0  0
  197.7491  178.2285  147.1052 C   0  0  0  0  0  0  0  0  0  0  0  0
  199.0635  178.5580  146.7261 C   0  0  0  0  0  0  0  0  0  0  0  0
  199.8573  179.3432  147.5907 C   0  0  0  0  0  0  0  0  0  0  0  0
  199.3327  179.8026  148.8146 C   0  0  0  0  0  0  0  0  0  0  0  0
  199.6057  178.0937  145.3798 C   0  0  1  0  0  0  0  0  0  0  0  0
  199.3436  179.0401  144.2610 N   0  0  2  0  0  0  0  0  0  0  0  0
  200.2850  180.1846  144.2428 C   0  0  2  0  0  0  0  0  0  0  0  0
  197.9322  179.4894  144.1492 C   0  0  2  0  0  0  0  0  0  0  0  0
  198.5857  179.8349  154.0820 C   0  0  0  0  0  0  0  0  0  0  0  0
  198.1162  180.2272  155.3707 C   0  0  0  0  0  0  0  0  0  0  0  0
  198.8142  179.7881  156.5208 C   0  0  0  0  0  0  0  0  0  0  0  0
  199.9378  178.9525  156.4060 C   0  0  0  0  0  0  0  0  0  0  0  0
  200.3971  178.5568  155.1361 C   0  0  0  0  0  0  0  0  0  0  0  0
  199.7183  178.9948  153.9828 C   0  0  0  0  0  0  0  0  0  0  0  0
  195.8074  182.7706  158.6555 C   0  0  1  0  0  0  0  0  0  0  0  0
  196.0111  184.1382  159.3102 C   0  0  0  0  0  0  0  0  0  0  0  0
  194.9464  184.7435  160.0212 C   0  0  0  0  0  0  0  0  0  0  0  0
  195.1137  186.0291  160.5881 C   0  0  0  0  0  0  0  0  0  0  0  0
  194.0302  186.6372  161.3425 C   0  0  0  0  0  0  0  0  0  0  0  0
  193.1696  187.1176  161.9492 N   0  0  0  0  0  0  0  0  0  0  0  0
  196.3404  186.7100  160.4491 C   0  0  0  0  0  0  0  0  0  0  0  0
  197.4012  186.1043  159.7603 C   0  0  0  0  0  0  0  0  0  0  0  0
  197.2485  184.8080  159.2251 C   0  0  0  0  0  0  0  0  0  0  0  0
  196.1328  180.6523  157.3161 H   0  0  0  0  0  0  0  0  0  0  0  0
  196.1519  181.5196  152.3082 H   0  0  0  0  0  0  0  0  0  0  0  0
  199.0861  179.2607  151.5406 H   0  0  0  0  0  0  0  0  0  0  0  0
  196.5199  179.4125  150.7180 H   0  0  0  0  0  0  0  0  0  0  0  0
  197.1141  181.0244  150.3341 H   0  0  0  0  0  0  0  0  0  0  0  0
  196.1916  178.4663  148.5657 H   0  0  0  0  0  0  0  0  0  0  0  0
  197.1212  177.6460  146.4455 H   0  0  0  0  0  0  0  0  0  0  0  0
  200.8618  179.6169  147.3062 H   0  0  0  0  0  0  0  0  0  0  0  0
  199.9429  180.4259  149.4559 H   0  0  0  0  0  0  0  0  0  0  0  0
  200.6759  177.8952  145.4567 H   0  0  0  0  0  0  0  0  0  0  0  0
  199.1546  177.1329  145.1248 H   0  0  0  0  0  0  0  0  0  0  0  0
  200.1663  180.8018  145.1324 H   0  0  0  0  0  0  0  0  0  0  0  0
  200.1109  180.8233  143.3788 H   0  0  0  0  0  0  0  0  0  0  0  0
  201.3183  179.8440  144.2033 H   0  0  0  0  0  0  0  0  0  0  0  0
  197.6244  180.0508  145.0280 H   0  0  0  0  0  0  0  0  0  0  0  0
  197.2617  178.6380  144.0417 H   0  0  0  0  0  0  0  0  0  0  0  0
  197.7839  180.1475  143.2904 H   0  0  0  0  0  0  0  0  0  0  0  0
  198.4557  180.0138  157.5107 H   0  0  0  0  0  0  0  0  0  0  0  0
  200.4392  178.5904  157.2940 H   0  0  0  0  0  0  0  0  0  0  0  0
  201.2619  177.9090  155.0511 H   0  0  0  0  0  0  0  0  0  0  0  0
  200.0990  178.6721  153.0262 H   0  0  0  0  0  0  0  0  0  0  0  0
  194.7458  182.5217  158.6509 H   0  0  0  0  0  0  0  0  0  0  0  0
  196.2820  182.0178  159.2896 H   0  0  0  0  0  0  0  0  0  0  0  0
  194.0001  184.2317  160.1216 H   0  0  0  0  0  0  0  0  0  0  0  0
  196.4777  187.6933  160.8779 H   0  0  0  0  0  0  0  0  0  0  0  0
  198.3390  186.6164  159.6348 H   0  0  0  0  0  0  0  0  0  0  0  0
  198.0910  184.3633  158.7151 H   0  0  0  0  0  0  0  0  0  0  0  0
  199.5166  178.4650  143.4371 H   0  0  0  0  0  0  0  0  0  0  0  0
  195.5347  182.0805  154.4399 H   0  0  0  0  0  0  0  0  0  0  0  0
  1  2  2  0
  2  3  1  0
  2 26  1  0
  3  4  1  0
  3 35  1  0
  4  5  2  0
  4 21  1  0
  5  6  1  0
  5 63  1  0
  6  7  2  0
  6 36  1  0
  7  8  1  0
  7 20  1  0
  8  9  1  0
  8 37  1  0
  9 10  1  0
  9 38  1  1
  9 39  1  0
 10 11  1  0
 10 15  2  0
 11 12  2  0
 11 40  1  0
 12 13  1  0
 12 41  1  0
 13 14  2  0
 13 16  1  0
 14 15  1  0
 14 42  1  0
 15 43  1  0
 16 17  1  0
 16 44  1  1
 16 45  1  0
 17 18  1  0
 17 19  1  0
 17 62  1  6
 18 46  1  1
 18 47  1  0
 18 48  1  0
 19 49  1  1
 19 50  1  0
 19 51  1  0
 20 21  1  0
 20 25  2  0
 21 22  2  0
 22 23  1  0
 22 52  1  0
 23 24  2  0
 23 53  1  0
 24 25  1  0
 24 54  1  0
 25 55  1  0
 26 27  1  0
 26 56  1  6
 26 57  1  0
 27 28  1  0
 27 34  2  0
 28 29  2  0
 28 58  1  0
 29 30  1  0
 29 32  1  0
 30 31  3  0
 32 33  2  0
 32 59  1  0
 33 34  1  0
 33 60  1  0
 34 61  1  0
M  CHG  2   5   1  17   1
M  END
>  <s_epik_cmdline>  (165) 
J2VwaWtfcHl0aG9uJywgJy1waCcsICc3LjAwMDAwMCcsICctcGh0JywgJzIuMDAwMDAwJywgJy1tcycsICcxNicsICctdG4nLCAnOCcsICctbWEnLCAnMjAwJywgJy1pbWFlJywgJzxpbmZpbGUubWFlPicsICctb21hZScsICc8b3V0ZmlsZS5tYWU+Jw==

>  <s_epik_input>  (165) 
W2NIXTFbY0hdW2NIXWMoQyNOKVtjSF1jMVtDSDJdQyg9TylbTkhdYyhjKGMyMylbY0hdW2NIXVtjSF1bY0hdMyluW2NIXWMyW05IXVtDSDJdYzRbY0hdW2NIXWMoW2NIXVtjSF00KVtDSDJdTihbQ0gzXSlbQ0gzXQ==

>  <s_i_glide_gridfile>  (165) 
ATP-Grid

>  <s_lp_Force_Field>  (165) 
OPLS_2005

>  <s_lp_Variant>  (165) 
rxn502b____EMOL526127____EMOL7515103____EMOL50155899-3

>  <s_lp_label>  (165) 
2226_sdstereoexpander_1_neutralizer_1_epik_3_stereoizer_1

>  <s_m_source_file>  (165) 
ATP-VSW-LIGPREP-003-in.maegz

>  <s_sd_BIOSOLVEIT.INFINISEE\_QUERY\_NAME>  (165) 
Ref-Lig

>  <s_sd_BIOSOLVEIT.INFINISEE\_QUERY\_SMILES>  (165) 
S(c1nc2c(cc1C[NH2+]Cc3ccc(cc3)C[NH+](C)C)cccc2)Cc4ccccc4

>  <s_sd_BIOSOLVEIT.INFINISEE\_REACTION\_NAME>  (165) 
rxn502b

>  <s_sd_BIOSOLVEIT.INFINISEE\_REAGENT1\_NAME>  (165) 
EMOL526127

>  <s_sd_BIOSOLVEIT.INFINISEE\_REAGENT1\_SMILES>  (165) 
O=C(O)Cc1cc(C#N)ccc1

>  <s_sd_BIOSOLVEIT.INFINISEE\_REAGENT2\_NAME>  (165) 
EMOL7515103

>  <s_sd_BIOSOLVEIT.INFINISEE\_REAGENT2\_SMILES>  (165) 
Brc1c2c(c(nc1)N)cccc2

>  <s_sd_BIOSOLVEIT.INFINISEE\_REAGENT3\_NAME>  (165) 
EMOL50155899

>  <s_sd_BIOSOLVEIT.INFINISEE\_REAGENT3\_SMILES>  (165) 
N(Cc1ccc(cc1)CN)(C)C

>  <s_sd_BIOSOLVEIT.INFINISEE\_SPACE>  (165) 
eXplore_7tr_2022-12

>  <s_vsw_compound_code>  (165) 
71203

>  <s_vsw_variant>  (165) 
71203-3

>  <r_epik_Charging_Adjusted_Penalty>  (165) 
4.3160267494339699

>  <r_epik_Ionization_Penalty>  (165) 
2.3509000000000002

>  <r_epik_Ionization_Penalty_Charging>  (165) 
2.1528

>  <r_epik_Ionization_Penalty_Neutral>  (165) 
0.1981

>  <r_epik_State_Penalty>  (165) 
2.1633

>  <r_i_docking_score>  (165) 
-4.9882726766435201

>  <r_i_glide_ecoul>  (165) 
-19.153924942016602

>  <r_i_glide_eff_state_penalty>  (165) 
2.1633

>  <r_i_glide_einternal>  (165) 
8.3322381973266602

>  <r_i_glide_emodel>  (165) 
-93.470090889777197

>  <r_i_glide_energy>  (165) 
-56.9664211273193

>  <r_i_glide_erotb>  (165) 
0.78694252851830704

>  <r_i_glide_esite>  (165) 
-0.30870363579660098

>  <r_i_glide_evdw>  (165) 
-37.812496185302699

>  <r_i_glide_gscore>  (165) 
-7.1515726766435197

>  <r_i_glide_hbond>  (165) 
-0.420852502454097

>  <r_i_glide_ligand_efficiency>  (165) 
-0.14671390225422101

>  <r_i_glide_ligand_efficiency_ln>  (165) 
-1.1020493505798501

>  <r_i_glide_ligand_efficiency_sa>  (165) 
-0.475296088595558

>  <r_i_glide_lipo>  (165) 
-1.6204119075140699

>  <r_i_glide_metal>  (165) 
-0

>  <r_i_glide_rewards>  (165) 
-0.82483360882943402

>  <r_lp_Energy>  (165) 
35.078363000000003

>  <r_qp_ACxDN^.5/SA>  (165) 
0.013264

>  <r_qp_CIQPlogS>  (165) 
-6.3849999999999998

>  <r_qp_EA(eV)>  (165) 
0.96399999999999997

>  <r_qp_FISA>  (165) 
139.30799999999999

>  <r_qp_FOSA>  (165) 
261.72300000000001

>  <r_qp_IP(eV)>  (165) 
7.8540000000000001

>  <r_qp_Jm>  (165) 
8.4971389106309907e-06

>  <r_qp_PISA>  (165) 
451.935

>  <r_qp_PSA>  (165) 
87.588999999999999

>  <r_qp_PercentHumanOralAbsorption>  (165) 
89.310000000000002

>  <r_qp_QPPCaco>  (165) 
117.961

>  <r_qp_QPPMDCK>  (165) 
54.311

>  <r_qp_QPlogBB>  (165) 
-1.2390000000000001

>  <r_qp_QPlogHERG>  (165) 
-8.4860000000000007

>  <r_qp_QPlogKhsa>  (165) 
0.70299999999999996

>  <r_qp_QPlogKp>  (165) 
-3.6930000000000001

>  <r_qp_QPlogPC16>  (165) 
17.300999999999998

>  <r_qp_QPlogPo/w>  (165) 
4.3179999999999996

>  <r_qp_QPlogPoct>  (165) 
26.306999999999999

>  <r_qp_QPlogPw>  (165) 
14.617000000000001

>  <r_qp_QPlogS>  (165) 
-7.0300000000000002

>  <r_qp_QPpolrz>  (165) 
53.067

>  <r_qp_SASA>  (165) 
852.96600000000001

>  <r_qp_SAamideO>  (165) 
0

>  <r_qp_SAfluorine>  (165) 
0

>  <r_qp_WPSA>  (165) 
0

>  <r_qp_accptHB>  (165) 
8

>  <r_qp_dip^2/V>  (165) 
0.098644399999999993

>  <r_qp_dipole>  (165) 
12.23

>  <r_qp_donorHB>  (165) 
2

>  <r_qp_glob>  (165) 
0.74833470000000002

>  <r_qp_mol_MW>  (165) 
449.55399999999997

>  <r_qp_volume>  (165) 
1516.3320000000001

>  <r_sd_BIOSOLVEIT.INFINISEE\_FTREES\_SIMILARITY>  (165) 
0.92800000000000005

>  <r_sd_BIOSOLVEIT.LOGP>  (165) 
3.5442800000000001

>  <r_sd_BIOSOLVEIT.MOLECULAR\_WEIGHT>  (165) 
450.56299999999999

>  <r_sd_BIOSOLVEIT.TPSA>  (165) 
82.25

>  <i_epik_Tot_Q>  (165) 
2

>  <i_epik_Tot_abs_Q>  (165) 
2

>  <i_f3d_flags>  (165) 
0

>  <i_i_glide_confnum>  (165) 
10

>  <i_i_glide_lignum>  (165) 
895

>  <i_i_glide_posenum>  (165) 
12

>  <i_i_glide_rotatable_bonds>  (165) 
9

>  <i_lp_mmshare_version>  (165) 
65135

>  <i_m_ct_format>  (165) 
2

>  <i_m_source_file_index>  (165) 
2226

>  <i_qp_#NandO>  (165) 
6

>  <i_qp_#acid>  (165) 
0

>  <i_qp_#amide>  (165) 
0

>  <i_qp_#amidine>  (165) 
0

>  <i_qp_#amine>  (165) 
1

>  <i_qp_#in34>  (165) 
0

>  <i_qp_#in56>  (165) 
22

>  <i_qp_#metab>  (165) 
8

>  <i_qp_#nonHatm>  (165) 
34

>  <i_qp_#noncon>  (165) 
0

>  <i_qp_#ringatoms>  (165) 
22

>  <i_qp_#rotor>  (165) 
9

>  <i_qp_#rtvFG>  (165) 
0

>  <i_qp_#stars>  (165) 
4

>  <i_qp_CNS>  (165) 
-2

>  <i_qp_HumanOralAbsorption>  (165) 
1

>  <i_qp_RuleOfFive>  (165) 
0

>  <i_qp_RuleOfThree>  (165) 
2

>  <i_sd_BIOSOLVEIT.INFINISEE\_RESULT\_RANK>  (165) 
5671

>  <i_sd_version>  (165) 
0

>  <b_lp_Chiralities_Consistent>  (165) 
1

>  <b_sd_chiral_flag>  (165) 
0

>  <canonical_id>  (165) 
ATP-HTVS-19DB56372FFA

>  <compound_code>  (165) 
71203

>  <title>  (165) 
rxn502b____EMOL526127____EMOL7515103____EMOL50155899

>  <variant>  (165) 
71203-3

>  <source_file>  (165) 
运行/运行/ATP-VSW/ATP-VSW-DOCK_HTVS_1-003_lib/ATP-VSW-DOCK_HTVS_1-003_lib.mae

>  <canonical_smiles>  (165) 
C[NH+](C)Cc1ccc(CNc2c[nH+]c(NC(=O)Cc3cccc(C#N)c3)c3ccccc23)cc1

>  <scaffold>  (165) 
O=C(Cc1ccccc1)Nc1[nH+]cc(NCc2ccccc2)c2ccccc12

>  <molecular_formula>  (165) 
C28H29N5O+2

$$$$
ATP-HTVS-19E5DD3F936E
     RDKit          3D

 63 66  0  0  0  0  0  0  0  0999 V2000
  195.6953  183.8424  150.5497 N   0  0  0  0  0  0  0  0  0  0  0  0
  196.3533  182.9660  150.9113 C   0  0  0  0  0  0  0  0  0  0  0  0
  197.1749  181.8570  151.3570 C   0  0  0  0  0  0  0  0  0  0  0  0
  198.5350  182.0701  151.6683 C   0  0  0  0  0  0  0  0  0  0  0  0
  199.3401  180.9910  152.0963 C   0  0  0  0  0  0  0  0  0  0  0  0
  198.7720  179.6953  152.1486 C   0  0  0  0  0  0  0  0  0  0  0  0
  197.4091  179.4929  151.8788 C   0  0  0  0  0  0  0  0  0  0  0  0
  196.6063  180.5705  151.4735 C   0  0  0  0  0  0  0  0  0  0  0  0
  200.7912  181.2655  152.5145 C   0  0  1  0  0  0  0  0  0  0  0  0
  201.4118  180.3072  153.4383 N   0  0  0  0  0  0  0  0  0  0  0  0
  200.7257  179.7684  154.5433 C   0  0  0  0  0  0  0  0  0  0  0  0
  199.7407  180.4889  155.1217 N   0  0  0  0  0  0  0  0  0  0  0  0
  198.9569  179.9316  156.0405 C   0  0  0  0  0  0  0  0  0  0  0  0
  199.1569  178.6832  156.4958 N   0  0  0  0  0  0  0  0  0  0  0  0
  200.1796  177.9480  156.0093 C   0  0  0  0  0  0  0  0  0  0  0  0
  200.9979  178.4478  154.9838 C   0  0  0  0  0  0  0  0  0  0  0  0
  202.0143  177.6279  154.4328 C   0  0  0  0  0  0  0  0  0  0  0  0
  202.2361  176.3357  154.9547 C   0  0  0  0  0  0  0  0  0  0  0  0
  201.4373  175.8557  156.0113 C   0  0  0  0  0  0  0  0  0  0  0  0
  200.3934  176.6562  156.5255 C   0  0  0  0  0  0  0  0  0  0  0  0
  197.8796  180.6366  156.5630 N   0  0  0  0  0  0  0  0  0  0  0  0
  197.6834  182.0657  156.3421 C   0  0  1  0  0  0  0  0  0  0  0  0
  196.8211  182.7489  157.3942 C   0  0  0  0  0  0  0  0  0  0  0  0
  197.2680  183.9300  158.0262 C   0  0  0  0  0  0  0  0  0  0  0  0
  196.4561  184.5473  159.0011 C   0  0  0  0  0  0  0  0  0  0  0  0
  196.9441  185.7980  159.6779 N   0  0  1  0  0  0  0  0  0  0  0  0
  196.3496  187.0640  159.1964 C   0  0  2  0  0  0  0  0  0  0  0  0
  196.7681  187.3600  157.7462 C   0  0  2  0  0  0  0  0  0  0  0  0
  196.7503  188.2131  160.1335 C   0  0  2  0  0  0  0  0  0  0  0  0
  195.2048  184.0152  159.3615 C   0  0  0  0  0  0  0  0  0  0  0  0
  194.7564  182.8470  158.7209 C   0  0  0  0  0  0  0  0  0  0  0  0
  195.5562  182.2243  157.7447 C   0  0  0  0  0  0  0  0  0  0  0  0
  201.6693  181.4429  151.2605 C   0  0  2  0  0  0  0  0  0  0  0  0
  198.9578  183.0656  151.5937 H   0  0  0  0  0  0  0  0  0  0  0  0
  199.3461  178.8324  152.4451 H   0  0  0  0  0  0  0  0  0  0  0  0
  196.9922  178.5073  152.0161 H   0  0  0  0  0  0  0  0  0  0  0  0
  195.5615  180.3981  151.2533 H   0  0  0  0  0  0  0  0  0  0  0  0
  200.7961  182.2154  153.0515 H   0  0  0  0  0  0  0  0  0  0  0  0
  202.1710  179.7715  153.0577 H   0  0  0  0  0  0  0  0  0  0  0  0
  202.6366  177.9624  153.6205 H   0  0  0  0  0  0  0  0  0  0  0  0
  203.0338  175.7231  154.5660 H   0  0  0  0  0  0  0  0  0  0  0  0
  201.6284  174.8782  156.4331 H   0  0  0  0  0  0  0  0  0  0  0  0
  199.7724  176.2952  157.3305 H   0  0  0  0  0  0  0  0  0  0  0  0
  197.2550  180.1448  157.1865 H   0  0  0  0  0  0  0  0  0  0  0  0
  198.6560  182.5534  156.3204 H   0  0  0  0  0  0  0  0  0  0  0  0
  197.2393  182.2243  155.3587 H   0  0  0  0  0  0  0  0  0  0  0  0
  198.2219  184.3635  157.7581 H   0  0  0  0  0  0  0  0  0  0  0  0
  196.7466  185.7353  160.6653 H   0  0  0  0  0  0  0  0  0  0  0  0
  195.2630  186.9680  159.2307 H   0  0  0  0  0  0  0  0  0  0  0  0
  196.3559  188.3102  157.4085 H   0  0  0  0  0  0  0  0  0  0  0  0
  196.4075  186.5975  157.0555 H   0  0  0  0  0  0  0  0  0  0  0  0
  197.8526  187.4197  157.6458 H   0  0  0  0  0  0  0  0  0  0  0  0
  196.2961  189.1527  159.8170 H   0  0  0  0  0  0  0  0  0  0  0  0
  197.8312  188.3625  160.1542 H   0  0  0  0  0  0  0  0  0  0  0  0
  196.4252  188.0279  161.1585 H   0  0  0  0  0  0  0  0  0  0  0  0
  194.5884  184.4932  160.1068 H   0  0  0  0  0  0  0  0  0  0  0  0
  193.7921  182.4240  158.9596 H   0  0  0  0  0  0  0  0  0  0  0  0
  195.1803  181.3383  157.2530 H   0  0  0  0  0  0  0  0  0  0  0  0
  201.2921  182.2475  150.6304 H   0  0  0  0  0  0  0  0  0  0  0  0
  201.6763  180.5379  150.6543 H   0  0  0  0  0  0  0  0  0  0  0  0
  202.6994  181.6915  151.5131 H   0  0  0  0  0  0  0  0  0  0  0  0
  198.5009  178.2592  157.1939 H   0  0  0  0  0  0  0  0  0  0  0  0
  197.9457  185.8765  159.5797 H   0  0  0  0  0  0  0  0  0  0  0  0
  1  2  3  0
  2  3  1  0
  3  4  2  0
  3  8  1  0
  4  5  1  0
  4 34  1  0
  5  6  2  0
  5  9  1  0
  6  7  1  0
  6 35  1  0
  7  8  2  0
  7 36  1  0
  8 37  1  0
  9 10  1  0
  9 33  1  0
  9 38  1  1
 10 11  1  0
 10 39  1  0
 11 12  2  0
 11 16  1  0
 12 13  1  0
 13 14  2  0
 13 21  1  0
 14 15  1  0
 14 62  1  0
 15 16  1  0
 15 20  2  0
 16 17  2  0
 17 18  1  0
 17 40  1  0
 18 19  2  0
 18 41  1  0
 19 20  1  0
 19 42  1  0
 20 43  1  0
 21 22  1  0
 21 44  1  0
 22 23  1  0
 22 45  1  6
 22 46  1  0
 23 24  2  0
 23 32  1  0
 24 25  1  0
 24 47  1  0
 25 26  1  0
 25 30  2  0
 26 27  1  0
 26 48  1  1
 26 63  1  0
 27 28  1  0
 27 29  1  0
 27 49  1  6
 28 50  1  6
 28 51  1  0
 28 52  1  0
 29 53  1  6
 29 54  1  0
 29 55  1  0
 30 31  1  0
 30 56  1  0
 31 32  2  0
 31 57  1  0
 32 58  1  0
 33 59  1  6
 33 60  1  0
 33 61  1  0
M  CHG  2  14   1  26   1
M  END
>  <s_epik_cmdline>  (166) 
J2VwaWtfcHl0aG9uJywgJy1waCcsICc3LjAwMDAwMCcsICctcGh0JywgJzIuMDAwMDAwJywgJy1tcycsICcxNicsICctdG4nLCAnOCcsICctbWEnLCAnMjAwJywgJy1pbWFlJywgJzxpbmZpbGUubWFlPicsICctb21hZScsICc8b3V0ZmlsZS5tYWU+Jw==

>  <s_epik_input>  (166) 
TiNDYzFbY0hdYyhbY0hdW2NIXVtjSF0xKVtDQEhdKFtDSDNdKVtOSF1jKGMoYzIzKVtjSF1bY0hdW2NIXVtjSF0zKW5jKG4yKVtOSF1bQ0gyXWM0W2NIXWMoW05IXVtDSF0oW0NIM10pW0NIM10pW2NIXVtjSF1bY0hdNA==

>  <s_i_glide_gridfile>  (166) 
ATP-Grid

>  <s_lp_Force_Field>  (166) 
OPLS_2005

>  <s_lp_Variant>  (166) 
m_282030aaa____21919794____22360182____21958062-4

>  <s_lp_label>  (166) 
1530_sdstereoexpander_2_neutralizer_1_epik_2_stereoizer_1

>  <s_m_source_file>  (166) 
ATP-VSW-LIGPREP-003-in.maegz

>  <s_sd_BIOSOLVEIT.INFINISEE\_QUERY\_NAME>  (166) 
Ref-Lig

>  <s_sd_BIOSOLVEIT.INFINISEE\_QUERY\_SMILES>  (166) 
S(c1nc2c(cc1C[NH2+]Cc3ccc(cc3)C[NH+](C)C)cccc2)Cc4ccccc4

>  <s_sd_BIOSOLVEIT.INFINISEE\_REACTION\_NAME>  (166) 
m_282030aaa

>  <s_sd_BIOSOLVEIT.INFINISEE\_REAGENT1\_SMILES>  (166) 
[R1*]NCc1cc(NC(C)C)ccc1

>  <s_sd_BIOSOLVEIT.INFINISEE\_REAGENT2\_SMILES>  (166) 
[R2*]c1nc([R1*])c2c(n1)cccc2

>  <s_sd_BIOSOLVEIT.INFINISEE\_REAGENT3\_SMILES>  (166) 
[R2*]NC(c1cc(C#N)ccc1)C

>  <s_sd_BIOSOLVEIT.INFINISEE\_SPACE>  (166) 
REALSpace_44bn_2023-08

>  <s_vsw_compound_code>  (166) 
48931

>  <s_vsw_variant>  (166) 
48931-4

>  <r_epik_Charging_Adjusted_Penalty>  (166) 
3.7993997978135301

>  <r_epik_Ionization_Penalty>  (166) 
1.8953

>  <r_epik_Ionization_Penalty_Charging>  (166) 
1.8952

>  <r_epik_Ionization_Penalty_Neutral>  (166) 
0

>  <r_epik_State_Penalty>  (166) 
1.9041999999999999

>  <r_i_docking_score>  (166) 
-3.5320147258892098

>  <r_i_glide_ecoul>  (166) 
-10.8907146453857

>  <r_i_glide_eff_state_penalty>  (166) 
1.9041999999999999

>  <r_i_glide_einternal>  (166) 
2.1357512474060099

>  <r_i_glide_emodel>  (166) 
-70.037768812733205

>  <r_i_glide_energy>  (166) 
-45.896184921264599

>  <r_i_glide_erotb>  (166) 
0.72608572124474802

>  <r_i_glide_esite>  (166) 
-0.25592674479094601

>  <r_i_glide_evdw>  (166) 
-35.005470275878899

>  <r_i_glide_gscore>  (166) 
-5.4362147258892097

>  <r_i_glide_hbond>  (166) 
-0.55095750592870196

>  <r_i_glide_ligand_efficiency>  (166) 
-0.10703074926937001

>  <r_i_glide_ligand_efficiency_ln>  (166) 
-0.78550178724425201

>  <r_i_glide_ligand_efficiency_sa>  (166) 
-0.34330480224655802

>  <r_i_glide_lipo>  (166) 
-1.3855004669289901

>  <r_i_glide_metal>  (166) 
-0

>  <r_i_glide_rewards>  (166) 
-0.58603501888351195

>  <r_lp_Energy>  (166) 
15.967891

>  <r_qp_ACxDN^.5/SA>  (166) 
0.0133046

>  <r_qp_CIQPlogS>  (166) 
-8.0289999999999999

>  <r_qp_EA(eV)>  (166) 
0.73899999999999999

>  <r_qp_FISA>  (166) 
118.20399999999999

>  <r_qp_FOSA>  (166) 
199.96199999999999

>  <r_qp_IP(eV)>  (166) 
8.1590000000000007

>  <r_qp_Jm>  (166) 
0.0043839772051963502

>  <r_qp_PISA>  (166) 
397.84500000000003

>  <r_qp_PSA>  (166) 
78.701999999999998

>  <r_qp_PercentHumanOralAbsorption>  (166) 
100

>  <r_qp_QPPCaco>  (166) 
749.84000000000003

>  <r_qp_QPPMDCK>  (166) 
362.41500000000002

>  <r_qp_QPlogBB>  (166) 
-1.097

>  <r_qp_QPlogHERG>  (166) 
-6.0229999999999997

>  <r_qp_QPlogKhsa>  (166) 
0.81100000000000005

>  <r_qp_QPlogKp>  (166) 
-1.4319999999999999

>  <r_qp_QPlogPC16>  (166) 
15.353

>  <r_qp_QPlogPo/w>  (166) 
4.9980000000000002

>  <r_qp_QPlogPoct>  (166) 
23.771000000000001

>  <r_qp_QPlogPw>  (166) 
12.778

>  <r_qp_QPlogS>  (166) 
-6.5659999999999998

>  <r_qp_QPpolrz>  (166) 
47.341999999999999

>  <r_qp_SASA>  (166) 
716.01099999999997

>  <r_qp_SAamideO>  (166) 
0

>  <r_qp_SAfluorine>  (166) 
0

>  <r_qp_WPSA>  (166) 
0

>  <r_qp_accptHB>  (166) 
5.5

>  <r_qp_dip^2/V>  (166) 
0.037213000000000003

>  <r_qp_dipole>  (166) 
7.1820000000000004

>  <r_qp_donorHB>  (166) 
3

>  <r_qp_glob>  (166) 
0.8397078

>  <r_qp_mol_MW>  (166) 
436.55799999999999

>  <r_qp_volume>  (166) 
1386.1959999999999

>  <r_sd_BIOSOLVEIT.INFINISEE\_FTREES\_SIMILARITY>  (166) 
0.90700000000000003

>  <r_sd_BIOSOLVEIT.LOGP>  (166) 
6.1069800000000001

>  <r_sd_BIOSOLVEIT.MOLECULAR\_WEIGHT>  (166) 
436.56

>  <r_sd_BIOSOLVEIT.TPSA>  (166) 
85.659999999999997

>  <i_epik_Tot_Q>  (166) 
2

>  <i_epik_Tot_abs_Q>  (166) 
2

>  <i_f3d_flags>  (166) 
0

>  <i_i_glide_confnum>  (166) 
4

>  <i_i_glide_lignum>  (166) 
585

>  <i_i_glide_posenum>  (166) 
10

>  <i_i_glide_rotatable_bonds>  (166) 
8

>  <i_lp_mmshare_version>  (166) 
65135

>  <i_m_ct_format>  (166) 
2

>  <i_m_source_file_index>  (166) 
1530

>  <i_qp_#NandO>  (166) 
6

>  <i_qp_#acid>  (166) 
0

>  <i_qp_#amide>  (166) 
0

>  <i_qp_#amidine>  (166) 
0

>  <i_qp_#amine>  (166) 
0

>  <i_qp_#in34>  (166) 
0

>  <i_qp_#in56>  (166) 
22

>  <i_qp_#metab>  (166) 
6

>  <i_qp_#nonHatm>  (166) 
33

>  <i_qp_#noncon>  (166) 
0

>  <i_qp_#ringatoms>  (166) 
22

>  <i_qp_#rotor>  (166) 
9

>  <i_qp_#rtvFG>  (166) 
0

>  <i_qp_#stars>  (166) 
1

>  <i_qp_CNS>  (166) 
-2

>  <i_qp_HumanOralAbsorption>  (166) 
1

>  <i_qp_RuleOfFive>  (166) 
0

>  <i_qp_RuleOfThree>  (166) 
1

>  <i_sd_BIOSOLVEIT.INFINISEE\_REAGENT1\_NAME>  (166) 
21919794

>  <i_sd_BIOSOLVEIT.INFINISEE\_REAGENT2\_NAME>  (166) 
22360182

>  <i_sd_BIOSOLVEIT.INFINISEE\_REAGENT3\_NAME>  (166) 
21958062

>  <i_sd_BIOSOLVEIT.INFINISEE\_RESULT\_RANK>  (166) 
61215

>  <i_sd_version>  (166) 
0

>  <b_lp_Chiralities_Consistent>  (166) 
1

>  <b_sd_chiral_flag>  (166) 
0

>  <canonical_id>  (166) 
ATP-HTVS-19E5DD3F936E

>  <compound_code>  (166) 
48931

>  <title>  (166) 
m_282030aaa____21919794____22360182____21958062

>  <variant>  (166) 
48931-4

>  <source_file>  (166) 
运行/运行/ATP-VSW/ATP-VSW-DOCK_HTVS_1-003_lib/ATP-VSW-DOCK_HTVS_1-003_lib.mae

>  <canonical_smiles>  (166) 
CC(C)[NH2+]c1cccc(CNc2nc(N[C@@H](C)c3cccc(C#N)c3)c3ccccc3[nH+]2)c1

>  <scaffold>  (166) 
c1ccc(CNc2nc(NCc3ccccc3)c3ccccc3[nH+]2)cc1

>  <molecular_formula>  (166) 
C27H30N6+2

$$$$
ATP-HTVS-19E7C62EA548
     RDKit          3D

 58 60  0  0  0  0  0  0  0  0999 V2000
  197.6004  186.3881  158.9676 F   0  0  0  0  0  0  0  0  0  0  0  0
  197.3353  185.2724  158.2489 C   0  0  0  0  0  0  0  0  0  0  0  0
  196.4719  184.2909  158.7657 C   0  0  0  0  0  0  0  0  0  0  0  0
  196.1933  183.1142  158.0348 C   0  0  0  0  0  0  0  0  0  0  0  0
  196.7842  182.9286  156.7536 C   0  0  0  0  0  0  0  0  0  0  0  0
  197.6339  183.9336  156.2362 C   0  0  0  0  0  0  0  0  0  0  0  0
  197.9215  185.0898  156.9855 C   0  0  0  0  0  0  0  0  0  0  0  0
  196.5281  181.6798  155.9111 C   0  0  1  0  0  0  0  0  0  0  0  0
  197.5301  180.6265  156.1799 N   0  0  1  0  0  0  0  0  0  0  0  0
  198.8024  180.7711  155.4430 C   0  0  1  0  0  0  0  0  0  0  0  0
  199.8734  179.9966  156.1109 C   0  0  0  0  0  0  0  0  0  0  0  0
  200.0601  178.7291  155.6701 O   0  0  0  0  0  0  0  0  0  0  0  0
  201.0861  178.2056  156.3974 C   0  0  0  0  0  0  0  0  0  0  0  0
  201.5332  179.1227  157.3084 C   0  0  0  0  0  0  0  0  0  0  0  0
  200.7514  180.2923  157.1137 C   0  0  0  0  0  0  0  0  0  0  0  0
  201.4727  176.8008  156.0782 C   0  0  1  0  0  0  0  0  0  0  0  0
  201.0016  176.5251  154.7649 O   0  0  0  0  0  0  0  0  0  0  0  0
  201.2501  175.2757  154.2363 C   0  0  0  0  0  0  0  0  0  0  0  0
  200.7316  175.0079  152.9483 C   0  0  0  0  0  0  0  0  0  0  0  0
  200.0276  176.0219  152.3354 O   0  0  0  0  0  0  0  0  0  0  0  0
  199.3472  175.7325  151.1250 C   0  0  2  0  0  0  0  0  0  0  0  0
  200.9128  173.7204  152.3757 C   0  0  0  0  0  0  0  0  0  0  0  0
  201.6214  172.7291  153.0762 C   0  0  0  0  0  0  0  0  0  0  0  0
  202.1555  173.0066  154.3450 C   0  0  0  0  0  0  0  0  0  0  0  0
  201.9696  174.2699  154.9274 C   0  0  0  0  0  0  0  0  0  0  0  0
  195.2535  182.0818  158.6559 C   0  0  1  0  0  0  0  0  0  0  0  0
  193.8685  182.1887  158.1446 N   0  0  1  0  0  0  0  0  0  0  0  0
  193.0616  180.9777  158.3917 C   0  0  2  0  0  0  0  0  0  0  0  0
  193.1769  183.4335  158.5412 C   0  0  2  0  0  0  0  0  0  0  0  0
  197.7092  180.6003  157.1759 H   0  0  0  0  0  0  0  0  0  0  0  0
  196.0243  184.4520  159.7374 H   0  0  0  0  0  0  0  0  0  0  0  0
  198.0829  183.8296  155.2602 H   0  0  0  0  0  0  0  0  0  0  0  0
  198.5991  185.8343  156.5896 H   0  0  0  0  0  0  0  0  0  0  0  0
  195.5504  181.2621  156.1271 H   0  0  0  0  0  0  0  0  0  0  0  0
  196.5080  181.9543  154.8476 H   0  0  0  0  0  0  0  0  0  0  0  0
  198.6651  180.4423  154.4100 H   0  0  0  0  0  0  0  0  0  0  0  0
  199.1363  181.8069  155.3981 H   0  0  0  0  0  0  0  0  0  0  0  0
  202.3300  178.9745  158.0237 H   0  0  0  0  0  0  0  0  0  0  0  0
  200.8203  181.2296  157.6472 H   0  0  0  0  0  0  0  0  0  0  0  0
  202.5555  176.6882  156.1213 H   0  0  0  0  0  0  0  0  0  0  0  0
  201.0202  176.1286  156.8080 H   0  0  0  0  0  0  0  0  0  0  0  0
  198.8497  176.6376  150.7790 H   0  0  0  0  0  0  0  0  0  0  0  0
  198.5822  174.9664  151.2650 H   0  0  0  0  0  0  0  0  0  0  0  0
  200.0381  175.4197  150.3422 H   0  0  0  0  0  0  0  0  0  0  0  0
  200.5074  173.4676  151.4057 H   0  0  0  0  0  0  0  0  0  0  0  0
  201.7580  171.7437  152.6507 H   0  0  0  0  0  0  0  0  0  0  0  0
  202.7028  172.2391  154.8753 H   0  0  0  0  0  0  0  0  0  0  0  0
  202.3761  174.4238  155.9157 H   0  0  0  0  0  0  0  0  0  0  0  0
  195.6684  181.0885  158.5037 H   0  0  0  0  0  0  0  0  0  0  0  0
  195.2398  182.2127  159.7339 H   0  0  0  0  0  0  0  0  0  0  0  0
  192.9199  180.8006  159.4494 H   0  0  0  0  0  0  0  0  0  0  0  0
  193.5500  180.0987  157.9919 H   0  0  0  0  0  0  0  0  0  0  0  0
  192.0784  181.0319  157.9181 H   0  0  0  0  0  0  0  0  0  0  0  0
  193.1043  183.5481  159.6230 H   0  0  0  0  0  0  0  0  0  0  0  0
  192.1721  183.4418  158.1348 H   0  0  0  0  0  0  0  0  0  0  0  0
  193.6939  184.3122  158.1578 H   0  0  0  0  0  0  0  0  0  0  0  0
  197.1290  179.7207  155.9693 H   0  0  0  0  0  0  0  0  0  0  0  0
  193.9413  182.2598  157.1127 H   0  0  0  0  0  0  0  0  0  0  0  0
  1  2  1  0
  2  3  2  0
  2  7  1  0
  3  4  1  0
  3 31  1  0
  4  5  2  0
  4 26  1  0
  5  6  1  0
  5  8  1  0
  6  7  2  0
  6 32  1  0
  7 33  1  0
  8  9  1  0
  8 34  1  1
  8 35  1  0
  9 10  1  0
  9 30  1  1
  9 57  1  0
 10 11  1  0
 10 36  1  6
 10 37  1  0
 11 12  1  0
 11 15  2  0
 12 13  1  0
 13 14  2  0
 13 16  1  0
 14 15  1  0
 14 38  1  0
 15 39  1  0
 16 17  1  0
 16 40  1  6
 16 41  1  0
 17 18  1  0
 18 19  1  0
 18 25  2  0
 19 20  1  0
 19 22  2  0
 20 21  1  0
 21 42  1  6
 21 43  1  0
 21 44  1  0
 22 23  1  0
 22 45  1  0
 23 24  2  0
 23 46  1  0
 24 25  1  0
 24 47  1  0
 25 48  1  0
 26 27  1  0
 26 49  1  1
 26 50  1  0
 27 28  1  0
 27 29  1  0
 27 58  1  6
 28 51  1  1
 28 52  1  0
 28 53  1  0
 29 54  1  1
 29 55  1  0
 29 56  1  0
M  CHG  2   9   1  27   1
M  END
>  <s_epik_cmdline>  (167) 
J2VwaWtfcHl0aG9uJywgJy1waCcsICc3LjAwMDAwMCcsICctcGh0JywgJzIuMDAwMDAwJywgJy1tcycsICcxNicsICctdG4nLCAnOCcsICctbWEnLCAnMjAwJywgJy1pbWFlJywgJzxpbmZpbGUubWFlPicsICctb21hZScsICc8b3V0ZmlsZS5tYWU+Jw==

>  <s_epik_input>  (167) 
RmMxW2NIXWMoW0NIMl1OKFtDSDNdKVtDSDNdKWMoW2NIXVtjSF0xKVtDSDJdW05IXVtDSDJdYzJvYyhbY0hdW2NIXTIpW0NIMl1PYzNjKE9bQ0gzXSlbY0hdW2NIXVtjSF1bY0hdMw==

>  <s_i_glide_gridfile>  (167) 
ATP-Grid

>  <s_lp_Force_Field>  (167) 
OPLS_2005

>  <s_lp_Variant>  (167) 
m_270004bbb____24792668____24720270-1

>  <s_lp_label>  (167) 
865_sdstereoexpander_1_neutralizer_1_epik_1_stereoizer_1

>  <s_m_source_file>  (167) 
ATP-VSW-LIGPREP-003-in.maegz

>  <s_sd_BIOSOLVEIT.INFINISEE\_QUERY\_NAME>  (167) 
Ref-Lig

>  <s_sd_BIOSOLVEIT.INFINISEE\_QUERY\_SMILES>  (167) 
S(c1nc2c(cc1C[NH2+]Cc3ccc(cc3)C[NH+](C)C)cccc2)Cc4ccccc4

>  <s_sd_BIOSOLVEIT.INFINISEE\_REACTION\_NAME>  (167) 
m_270004bbb

>  <s_sd_BIOSOLVEIT.INFINISEE\_REAGENT1\_SMILES>  (167) 
[R1*]NCc1c(cc(F)cc1)CN(C)C

>  <s_sd_BIOSOLVEIT.INFINISEE\_REAGENT2\_SMILES>  (167) 
[R1*]CC=1OC(=CC1)COc2c(OC)cccc2

>  <s_sd_BIOSOLVEIT.INFINISEE\_SPACE>  (167) 
REALSpace_44bn_2023-08

>  <s_vsw_compound_code>  (167) 
27651

>  <s_vsw_variant>  (167) 
27651-1

>  <r_epik_Charging_Adjusted_Penalty>  (167) 
0.23084491391540299

>  <r_epik_Ionization_Penalty>  (167) 
0.1163

>  <r_epik_Ionization_Penalty_Charging>  (167) 
0.1163

>  <r_epik_Ionization_Penalty_Neutral>  (167) 
0

>  <r_epik_State_Penalty>  (167) 
0.1145

>  <r_i_docking_score>  (167) 
-5.5831877775815997

>  <r_i_glide_ecoul>  (167) 
-17.630886077880898

>  <r_i_glide_eff_state_penalty>  (167) 
0.1145

>  <r_i_glide_einternal>  (167) 
2.3514420986175502

>  <r_i_glide_emodel>  (167) 
-76.167931316423093

>  <r_i_glide_energy>  (167) 
-48.407865524291999

>  <r_i_glide_erotb>  (167) 
0.97785866920102604

>  <r_i_glide_esite>  (167) 
-0.19679962474952101

>  <r_i_glide_evdw>  (167) 
-30.776979446411101

>  <r_i_glide_gscore>  (167) 
-5.6976877775816002

>  <r_i_glide_hbond>  (167) 
-0.20262270603405699

>  <r_i_glide_ligand_efficiency>  (167) 
-0.192523716468331

>  <r_i_glide_ligand_efficiency_ln>  (167) 
-1.2784084236397799

>  <r_i_glide_ligand_efficiency_sa>  (167) 
-0.59149385278531297

>  <r_i_glide_lipo>  (167) 
-1.0057513715509001

>  <r_i_glide_metal>  (167) 
-0

>  <r_i_glide_rewards>  (167) 
-1.0868908604454599

>  <r_lp_Energy>  (167) 
23.505289999999999

>  <r_lp_tautomer_probability>  (167) 
1

>  <r_qp_ACxDN^.5/SA>  (167) 
0.0072262000000000003

>  <r_qp_CIQPlogS>  (167) 
-4.04

>  <r_qp_EA(eV)>  (167) 
-0.0030000000000000001

>  <r_qp_FISA>  (167) 
4.0990000000000002

>  <r_qp_FOSA>  (167) 
349.08600000000001

>  <r_qp_IP(eV)>  (167) 
8.7449999999999992

>  <r_qp_Jm>  (167) 
0.0078127417577714998

>  <r_qp_PISA>  (167) 
360.97000000000003

>  <r_qp_PSA>  (167) 
39.848999999999997

>  <r_qp_PercentHumanOralAbsorption>  (167) 
100

>  <r_qp_QPPCaco>  (167) 
563.41600000000005

>  <r_qp_QPPMDCK>  (167) 
588.91600000000005

>  <r_qp_QPlogBB>  (167) 
0.82799999999999996

>  <r_qp_QPlogHERG>  (167) 
-8.3290000000000006

>  <r_qp_QPlogKhsa>  (167) 
0.77000000000000002

>  <r_qp_QPlogKp>  (167) 
-3.4889999999999999

>  <r_qp_QPlogPC16>  (167) 
13.398999999999999

>  <r_qp_QPlogPo/w>  (167) 
4.9640000000000004

>  <r_qp_QPlogPoct>  (167) 
18.84

>  <r_qp_QPlogPw>  (167) 
8.7270000000000003

>  <r_qp_QPlogS>  (167) 
-4.2190000000000003

>  <r_qp_QPpolrz>  (167) 
44.896999999999998

>  <r_qp_SASA>  (167) 
761.11900000000003

>  <r_qp_SAamideO>  (167) 
0

>  <r_qp_SAfluorine>  (167) 
46.963999999999999

>  <r_qp_WPSA>  (167) 
46.963999999999999

>  <r_qp_accptHB>  (167) 
5.5

>  <r_qp_dip^2/V>  (167) 
0.0052490999999999996

>  <r_qp_dipole>  (167) 
2.6619999999999999

>  <r_qp_donorHB>  (167) 
1

>  <r_qp_glob>  (167) 
0.77610679999999999

>  <r_qp_mol_MW>  (167) 
398.476

>  <r_qp_volume>  (167) 
1349.9359999999999

>  <r_sd_BIOSOLVEIT.INFINISEE\_FTREES\_SIMILARITY>  (167) 
0.92000000000000004

>  <r_sd_BIOSOLVEIT.LOGP>  (167) 
1.9144000000000001

>  <r_sd_BIOSOLVEIT.MOLECULAR\_WEIGHT>  (167) 
400.49099999999999

>  <r_sd_BIOSOLVEIT.TPSA>  (167) 
52.649999999999999

>  <i_epik_Tot_Q>  (167) 
2

>  <i_epik_Tot_abs_Q>  (167) 
2

>  <i_f3d_flags>  (167) 
0

>  <i_i_glide_confnum>  (167) 
6

>  <i_i_glide_lignum>  (167) 
341

>  <i_i_glide_posenum>  (167) 
1

>  <i_i_glide_rotatable_bonds>  (167) 
10

>  <i_lp_mmshare_version>  (167) 
65135

>  <i_m_ct_format>  (167) 
2

>  <i_m_source_file_index>  (167) 
865

>  <i_qp_#NandO>  (167) 
5

>  <i_qp_#acid>  (167) 
0

>  <i_qp_#amide>  (167) 
0

>  <i_qp_#amidine>  (167) 
0

>  <i_qp_#amine>  (167) 
2

>  <i_qp_#in34>  (167) 
0

>  <i_qp_#in56>  (167) 
17

>  <i_qp_#metab>  (167) 
9

>  <i_qp_#nonHatm>  (167) 
29

>  <i_qp_#noncon>  (167) 
0

>  <i_qp_#ringatoms>  (167) 
17

>  <i_qp_#rotor>  (167) 
10

>  <i_qp_#rtvFG>  (167) 
0

>  <i_qp_#stars>  (167) 
2

>  <i_qp_CNS>  (167) 
2

>  <i_qp_HumanOralAbsorption>  (167) 
3

>  <i_qp_RuleOfFive>  (167) 
0

>  <i_qp_RuleOfThree>  (167) 
1

>  <i_sd_BIOSOLVEIT.INFINISEE\_REAGENT1\_NAME>  (167) 
24792668

>  <i_sd_BIOSOLVEIT.INFINISEE\_REAGENT2\_NAME>  (167) 
24720270

>  <i_sd_BIOSOLVEIT.INFINISEE\_RESULT\_RANK>  (167) 
16172

>  <i_sd_version>  (167) 
0

>  <b_lp_Chiralities_Consistent>  (167) 
1

>  <b_sd_chiral_flag>  (167) 
0

>  <canonical_id>  (167) 
ATP-HTVS-19E7C62EA548

>  <compound_code>  (167) 
27651

>  <title>  (167) 
m_270004bbb____24792668____24720270

>  <variant>  (167) 
27651-1

>  <source_file>  (167) 
运行/运行/ATP-VSW/ATP-VSW-DOCK_HTVS_1-003_lib/ATP-VSW-DOCK_HTVS_1-003_lib.mae

>  <canonical_smiles>  (167) 
COc1ccccc1OCc1ccc(C[NH2+]Cc2ccc(F)cc2C[NH+](C)C)o1

>  <scaffold>  (167) 
c1ccc(C[NH2+]Cc2ccc(COc3ccccc3)o2)cc1

>  <molecular_formula>  (167) 
C23H29FN2O3+2

$$$$
ATP-HTVS-1A821EC4699A
     RDKit          3D

 59 61  0  0  0  0  0  0  0  0999 V2000
  193.6246  187.0238  161.0076 F   0  0  0  0  0  0  0  0  0  0  0  0
  194.5721  186.1696  160.5539 C   0  0  0  0  0  0  0  0  0  0  0  0
  195.9234  186.5600  160.5292 C   0  0  0  0  0  0  0  0  0  0  0  0
  196.9075  185.6565  160.0883 C   0  0  0  0  0  0  0  0  0  0  0  0
  196.5452  184.3551  159.6744 C   0  0  0  0  0  0  0  0  0  0  0  0
  195.1915  183.9699  159.7075 C   0  0  0  0  0  0  0  0  0  0  0  0
  194.2055  184.8824  160.1083 C   0  0  0  0  0  0  0  0  0  0  0  0
  197.6119  183.3740  159.2187 C   0  0  1  0  0  0  0  0  0  0  0  0
  197.9598  183.5112  157.7896 N   0  0  0  0  0  0  0  0  0  0  0  0
  197.0561  183.1357  156.8452 C   0  0  0  0  0  0  0  0  0  0  0  0
  196.0092  182.5641  157.1538 O   0  0  0  0  0  0  0  0  0  0  0  0
  197.3396  183.4101  155.3805 C   0  0  0  0  0  0  0  0  0  0  0  0
  197.7578  184.6640  155.0592 N   0  0  0  0  0  0  0  0  0  0  0  0
  198.0758  184.9354  153.7784 C   0  0  0  0  0  0  0  0  0  0  0  0
  197.9647  183.9958  152.7436 C   0  0  0  0  0  0  0  0  0  0  0  0
  197.4743  182.7189  153.0528 C   0  0  0  0  0  0  0  0  0  0  0  0
  197.1505  182.3996  154.3904 C   0  0  0  0  0  0  0  0  0  0  0  0
  196.6441  181.1291  154.7366 N   0  0  0  0  0  0  0  0  0  0  0  0
  196.9012  179.9451  153.9319 C   0  0  1  0  0  0  0  0  0  0  0  0
  198.3623  179.5633  153.8914 C   0  0  0  0  0  0  0  0  0  0  0  0
  199.0510  179.3124  155.0950 C   0  0  0  0  0  0  0  0  0  0  0  0
  200.4182  178.9734  155.0750 C   0  0  0  0  0  0  0  0  0  0  0  0
  201.0983  178.8921  153.8391 C   0  0  0  0  0  0  0  0  0  0  0  0
  200.4092  179.1408  152.6343 C   0  0  0  0  0  0  0  0  0  0  0  0
  199.0423  179.4760  152.6607 C   0  0  0  0  0  0  0  0  0  0  0  0
  201.1441  178.7216  156.3815 C   0  0  1  0  0  0  0  0  0  0  0  0
  200.7243  177.4390  156.9937 N   0  0  1  0  0  0  0  0  0  0  0  0
  201.3917  176.2671  156.3744 C   0  0  2  0  0  0  0  0  0  0  0  0
  200.8898  177.4589  158.4531 C   0  0  2  0  0  0  0  0  0  0  0  0
  199.3253  183.9950  157.5096 C   0  0  1  0  0  0  0  0  0  0  0  0
  200.3742  183.2917  158.2622 C   0  0  0  0  0  0  0  0  0  0  0  0
  201.1998  182.7372  158.8572 N   0  0  0  0  0  0  0  0  0  0  0  0
  196.2037  187.5494  160.8642 H   0  0  0  0  0  0  0  0  0  0  0  0
  197.9421  185.9555  160.0798 H   0  0  0  0  0  0  0  0  0  0  0  0
  194.8928  182.9753  159.3923 H   0  0  0  0  0  0  0  0  0  0  0  0
  193.1619  184.5957  160.1100 H   0  0  0  0  0  0  0  0  0  0  0  0
  198.4775  183.5392  159.8602 H   0  0  0  0  0  0  0  0  0  0  0  0
  197.2946  182.3507  159.4152 H   0  0  0  0  0  0  0  0  0  0  0  0
  198.4631  185.9201  153.5865 H   0  0  0  0  0  0  0  0  0  0  0  0
  198.2544  184.2515  151.7345 H   0  0  0  0  0  0  0  0  0  0  0  0
  197.3560  182.0005  152.2570 H   0  0  0  0  0  0  0  0  0  0  0  0
  196.3253  180.9744  155.6896 H   0  0  0  0  0  0  0  0  0  0  0  0
  196.3532  179.1214  154.3815 H   0  0  0  0  0  0  0  0  0  0  0  0
  196.4976  180.0753  152.9294 H   0  0  0  0  0  0  0  0  0  0  0  0
  198.5179  179.3845  156.0355 H   0  0  0  0  0  0  0  0  0  0  0  0
  202.1494  178.6435  153.8104 H   0  0  0  0  0  0  0  0  0  0  0  0
  200.9318  179.0853  151.6914 H   0  0  0  0  0  0  0  0  0  0  0  0
  198.5214  179.6773  151.7379 H   0  0  0  0  0  0  0  0  0  0  0  0
  202.2264  178.7448  156.2315 H   0  0  0  0  0  0  0  0  0  0  0  0
  200.9133  179.5566  157.0451 H   0  0  0  0  0  0  0  0  0  0  0  0
  202.4709  176.2879  156.5278 H   0  0  0  0  0  0  0  0  0  0  0  0
  201.2115  176.2235  155.3001 H   0  0  0  0  0  0  0  0  0  0  0  0
  201.0294  175.3380  156.8112 H   0  0  0  0  0  0  0  0  0  0  0  0
  201.9315  177.6277  158.6886 H   0  0  0  0  0  0  0  0  0  0  0  0
  200.5634  176.5441  158.9222 H   0  0  0  0  0  0  0  0  0  0  0  0
  200.2926  178.2347  158.9081 H   0  0  0  0  0  0  0  0  0  0  0  0
  199.6735  183.8327  156.4940 H   0  0  0  0  0  0  0  0  0  0  0  0
  199.3660  185.0662  157.7232 H   0  0  0  0  0  0  0  0  0  0  0  0
  199.7292  177.3577  156.8255 H   0  0  0  0  0  0  0  0  0  0  0  0
  1  2  1  0
  2  3  1  0
  2  7  2  0
  3  4  2  0
  3 33  1  0
  4  5  1  0
  4 34  1  0
  5  6  2  0
  5  8  1  0
  6  7  1  0
  6 35  1  0
  7 36  1  0
  8  9  1  0
  8 37  1  1
  8 38  1  0
  9 10  1  0
  9 30  1  0
 10 11  2  0
 10 12  1  0
 12 13  1  0
 12 17  2  0
 13 14  2  0
 14 15  1  0
 14 39  1  0
 15 16  2  0
 15 40  1  0
 16 17  1  0
 16 41  1  0
 17 18  1  0
 18 19  1  0
 18 42  1  0
 19 20  1  0
 19 43  1  1
 19 44  1  0
 20 21  2  0
 20 25  1  0
 21 22  1  0
 21 45  1  0
 22 23  2  0
 22 26  1  0
 23 24  1  0
 23 46  1  0
 24 25  2  0
 24 47  1  0
 25 48  1  0
 26 27  1  0
 26 49  1  6
 26 50  1  0
 27 28  1  0
 27 29  1  0
 27 59  1  1
 28 51  1  6
 28 52  1  0
 28 53  1  0
 29 54  1  6
 29 55  1  0
 29 56  1  0
 30 31  1  0
 30 57  1  6
 30 58  1  0
 31 32  3  0
M  CHG  1  27   1
M  END
>  <s_epik_cmdline>  (168) 
J2VwaWtfcHl0aG9uJywgJy1waCcsICc3LjAwMDAwMCcsICctcGh0JywgJzIuMDAwMDAwJywgJy1tcycsICcxNicsICctdG4nLCAnOCcsICctbWEnLCAnMjAwJywgJy1pbWFlJywgJzxpbmZpbGUubWFlPicsICctb21hZScsICc8b3V0ZmlsZS5tYWU+Jw==

>  <s_epik_input>  (168) 
RmMxW2NIXVtjSF1jKFtjSF1bY0hdMSlbQ0gyXU4oW0NIMl1DI04pQyg9TyljMm5bY0hdW2NIXVtjSF1jMltOSF1bQ0gyXWMzW2NIXWMoW2NIXVtjSF1bY0hdMylbQ0gyXU4oW0NIM10pW0NIM10=

>  <s_i_glide_gridfile>  (168) 
ATP-Grid

>  <s_lp_Force_Field>  (168) 
OPLS_2005

>  <s_lp_Variant>  (168) 
rxn512a____EMOL2873214____EMOL42767269____EMOL37358747-1

>  <s_lp_label>  (168) 
2748_sdstereoexpander_1_neutralizer_1_epik_1_stereoizer_1

>  <s_m_source_file>  (168) 
ATP-VSW-LIGPREP-001-in.maegz

>  <s_sd_BIOSOLVEIT.INFINISEE\_QUERY\_NAME>  (168) 
Ref-Lig

>  <s_sd_BIOSOLVEIT.INFINISEE\_QUERY\_SMILES>  (168) 
S(c1nc2c(cc1C[NH2+]Cc3ccc(cc3)C[NH+](C)C)cccc2)Cc4ccccc4

>  <s_sd_BIOSOLVEIT.INFINISEE\_REACTION\_NAME>  (168) 
rxn512a

>  <s_sd_BIOSOLVEIT.INFINISEE\_REAGENT1\_NAME>  (168) 
EMOL2873214

>  <s_sd_BIOSOLVEIT.INFINISEE\_REAGENT1\_SMILES>  (168) 
N(Cc1cc(ccc1)CN)(C)C

>  <s_sd_BIOSOLVEIT.INFINISEE\_REAGENT2\_NAME>  (168) 
EMOL42767269

>  <s_sd_BIOSOLVEIT.INFINISEE\_REAGENT2\_SMILES>  (168) 
Ic1c(nccc1)C(=O)O

>  <s_sd_BIOSOLVEIT.INFINISEE\_REAGENT3\_NAME>  (168) 
EMOL37358747

>  <s_sd_BIOSOLVEIT.INFINISEE\_REAGENT3\_SMILES>  (168) 
Fc1ccc(cc1)CNCC#N

>  <s_sd_BIOSOLVEIT.INFINISEE\_SPACE>  (168) 
eXplore_7tr_2022-12

>  <s_vsw_compound_code>  (168) 
87905

>  <s_vsw_variant>  (168) 
87905-1

>  <r_epik_Charging_Adjusted_Penalty>  (168) 
0.088195370499548398

>  <r_epik_Ionization_Penalty>  (168) 
0.0441

>  <r_epik_Ionization_Penalty_Charging>  (168) 
0.0441

>  <r_epik_Ionization_Penalty_Neutral>  (168) 
0

>  <r_epik_State_Penalty>  (168) 
0.0441

>  <r_i_docking_score>  (168) 
-3.9481307412573199

>  <r_i_glide_ecoul>  (168) 
-5.3427190780639604

>  <r_i_glide_eff_state_penalty>  (168) 
0.0441

>  <r_i_glide_einternal>  (168) 
3.9947416782379199

>  <r_i_glide_emodel>  (168) 
-50.3155807103239

>  <r_i_glide_energy>  (168) 
-39.539435386657701

>  <r_i_glide_erotb>  (168) 
0.74461951042470897

>  <r_i_glide_esite>  (168) 
-0.086979745511879203

>  <r_i_glide_evdw>  (168) 
-34.1967163085938

>  <r_i_glide_gscore>  (168) 
-3.9922307412573201

>  <r_i_glide_hbond>  (168) 
0

>  <r_i_glide_ligand_efficiency>  (168) 
-0.123379085664291

>  <r_i_glide_ligand_efficiency_ln>  (168) 
-0.88409409494683799

>  <r_i_glide_ligand_efficiency_sa>  (168) 
-0.391704180296227

>  <r_i_glide_lipo>  (168) 
-1.60217945548578

>  <r_i_glide_metal>  (168) 
-0

>  <r_i_glide_rewards>  (168) 
-0.53644737354509497

>  <r_lp_Energy>  (168) 
28.032917999999999

>  <r_lp_tautomer_probability>  (168) 
0.999999999999999

>  <r_qp_ACxDN^.5/SA>  (168) 
0

>  <r_qp_CIQPlogS>  (168) 
-5.7889999999999997

>  <r_qp_EA(eV)>  (168) 
0.33800000000000002

>  <r_qp_FISA>  (168) 
63.042999999999999

>  <r_qp_FOSA>  (168) 
216.69399999999999

>  <r_qp_IP(eV)>  (168) 
8.5899999999999999

>  <r_qp_Jm>  (168) 
0.39847188959479002

>  <r_qp_PISA>  (168) 
350.73099999999999

>  <r_qp_PSA>  (168) 
74.730999999999995

>  <r_qp_PercentHumanOralAbsorption>  (168) 
100

>  <r_qp_QPPCaco>  (168) 
623.68200000000002

>  <r_qp_QPPMDCK>  (168) 
594.60400000000004

>  <r_qp_QPlogBB>  (168) 
-0.095000000000000001

>  <r_qp_QPlogHERG>  (168) 
-6.2119999999999997

>  <r_qp_QPlogKhsa>  (168) 
0.019

>  <r_qp_QPlogKp>  (168) 
-2.548

>  <r_qp_QPlogPC16>  (168) 
13.054

>  <r_qp_QPlogPo/w>  (168) 
3.8820000000000001

>  <r_qp_QPlogPoct>  (168) 
18.721

>  <r_qp_QPlogPw>  (168) 
9.3620000000000001

>  <r_qp_QPlogS>  (168) 
-3.4860000000000002

>  <r_qp_QPpolrz>  (168) 
43.603999999999999

>  <r_qp_SASA>  (168) 
677.495

>  <r_qp_SAamideO>  (168) 
0

>  <r_qp_SAfluorine>  (168) 
47.027999999999999

>  <r_qp_WPSA>  (168) 
47.027999999999999

>  <r_qp_accptHB>  (168) 
7.5

>  <r_qp_dip^2/V>  (168) 
0.011129500000000001

>  <r_qp_dipole>  (168) 
3.8330000000000002

>  <r_qp_donorHB>  (168) 
0

>  <r_qp_glob>  (168) 
0.85900100000000001

>  <r_qp_mol_MW>  (168) 
431.512

>  <r_qp_volume>  (168) 
1320.086

>  <r_sd_BIOSOLVEIT.INFINISEE\_FTREES\_SIMILARITY>  (168) 
0.90700000000000003

>  <r_sd_BIOSOLVEIT.LOGP>  (168) 
2.6432799999999999

>  <r_sd_BIOSOLVEIT.MOLECULAR\_WEIGHT>  (168) 
432.51999999999998

>  <r_sd_BIOSOLVEIT.TPSA>  (168) 
73.459999999999994

>  <i_epik_Tot_Q>  (168) 
1

>  <i_epik_Tot_abs_Q>  (168) 
1

>  <i_f3d_flags>  (168) 
0

>  <i_i_glide_confnum>  (168) 
1

>  <i_i_glide_lignum>  (168) 
1229

>  <i_i_glide_posenum>  (168) 
1

>  <i_i_glide_rotatable_bonds>  (168) 
10

>  <i_lp_mmshare_version>  (168) 
65135

>  <i_m_ct_format>  (168) 
2

>  <i_m_source_file_index>  (168) 
2748

>  <i_qp_#NandO>  (168) 
6

>  <i_qp_#acid>  (168) 
0

>  <i_qp_#amide>  (168) 
0

>  <i_qp_#amidine>  (168) 
0

>  <i_qp_#amine>  (168) 
1

>  <i_qp_#in34>  (168) 
0

>  <i_qp_#in56>  (168) 
18

>  <i_qp_#metab>  (168) 
9

>  <i_qp_#nonHatm>  (168) 
32

>  <i_qp_#noncon>  (168) 
0

>  <i_qp_#ringatoms>  (168) 
18

>  <i_qp_#rotor>  (168) 
10

>  <i_qp_#rtvFG>  (168) 
0

>  <i_qp_#stars>  (168) 
1

>  <i_qp_CNS>  (168) 
1

>  <i_qp_HumanOralAbsorption>  (168) 
3

>  <i_qp_RuleOfFive>  (168) 
0

>  <i_qp_RuleOfThree>  (168) 
1

>  <i_sd_BIOSOLVEIT.INFINISEE\_RESULT\_RANK>  (168) 
57896

>  <i_sd_version>  (168) 
0

>  <b_lp_Chiralities_Consistent>  (168) 
1

>  <b_sd_chiral_flag>  (168) 
0

>  <canonical_id>  (168) 
ATP-HTVS-1A821EC4699A

>  <compound_code>  (168) 
87905

>  <title>  (168) 
rxn512a____EMOL2873214____EMOL42767269____EMOL37358747

>  <variant>  (168) 
87905-1

>  <source_file>  (168) 
运行/运行/ATP-VSW/ATP-VSW-DOCK_HTVS_1-001_lib/ATP-VSW-DOCK_HTVS_1-001_lib

>  <canonical_smiles>  (168) 
C[NH+](C)Cc1cccc(CNc2cccnc2C(=O)N(CC#N)Cc2ccc(F)cc2)c1

>  <scaffold>  (168) 
O=C(NCc1ccccc1)c1ncccc1NCc1ccccc1

>  <molecular_formula>  (168) 
C25H27FN5O+

$$$$
ATP-HTVS-1A8854DD1E1A
     RDKit          3D

 53 56  0  0  0  0  0  0  0  0999 V2000
  196.3552  183.2238  151.2292 Cl  0  0  0  0  0  0  0  0  0  0  0  0
  197.3477  184.2994  152.1551 C   0  0  0  0  0  0  0  0  0  0  0  0
  197.5292  184.1638  153.5390 C   0  0  0  0  0  0  0  0  0  0  0  0
  198.3405  185.0158  154.2857 C   0  0  0  0  0  0  0  0  0  0  0  0
  198.9482  186.0876  153.6785 C   0  0  0  0  0  0  0  0  0  0  0  0
  198.7691  186.2742  152.2923 C   0  0  0  0  0  0  0  0  0  0  0  0
  197.9861  185.3746  151.5257 C   0  0  0  0  0  0  0  0  0  0  0  0
  198.5349  184.7943  155.7346 C   0  0  1  0  0  0  0  0  0  0  0  0
  199.7839  184.2493  156.0861 O   0  0  0  0  0  0  0  0  0  0  0  0
  198.1665  185.9192  156.6894 C   0  0  1  0  0  0  0  0  0  0  0  0
  198.2723  185.5685  158.1144 N   0  0  0  0  0  0  0  0  0  0  0  0
  197.1075  185.0311  158.7082 C   0  0  0  0  0  0  0  0  0  0  0  0
  196.3340  185.8589  159.5749 C   0  0  0  0  0  0  0  0  0  0  0  0
  195.1044  185.3541  160.0633 C   0  0  0  0  0  0  0  0  0  0  0  0
  194.6268  184.1462  159.7318 N   0  0  0  0  0  0  0  0  0  0  0  0
  195.3695  183.3342  158.9593 C   0  0  0  0  0  0  0  0  0  0  0  0
  196.6281  183.7051  158.4186 C   0  0  0  0  0  0  0  0  0  0  0  0
  197.3910  182.6468  157.6447 C   0  0  0  0  0  0  0  0  0  0  0  0
  198.5774  182.4528  157.8636 O   0  0  0  0  0  0  0  0  0  0  0  0
  196.7157  182.1456  156.5710 N   0  0  0  0  0  0  0  0  0  0  0  0
  197.0881  181.2152  155.5651 C   0  0  0  0  0  0  0  0  0  0  0  0
  196.4623  181.2695  154.2878 C   0  0  0  0  0  0  0  0  0  0  0  0
  196.9119  180.4946  153.2121 C   0  0  0  0  0  0  0  0  0  0  0  0
  197.8566  179.4827  153.4538 C   0  0  0  0  0  0  0  0  0  0  0  0
  198.4012  179.3377  154.7424 C   0  0  0  0  0  0  0  0  0  0  0  0
  198.0623  180.2241  155.7905 C   0  0  0  0  0  0  0  0  0  0  0  0
  194.7579  181.9740  158.6707 C   0  0  2  0  0  0  0  0  0  0  0  0
  194.3309  186.1606  160.9320 C   0  0  0  0  0  0  0  0  0  0  0  0
  194.7592  187.4372  161.3319 C   0  0  0  0  0  0  0  0  0  0  0  0
  195.9658  187.9406  160.8297 C   0  0  0  0  0  0  0  0  0  0  0  0
  196.7471  187.1667  159.9501 C   0  0  0  0  0  0  0  0  0  0  0  0
  197.0336  183.4427  154.0878 H   0  0  0  0  0  0  0  0  0  0  0  0
  199.5513  186.7518  154.3271 H   0  0  0  0  0  0  0  0  0  0  0  0
  199.2705  187.1269  151.8422 H   0  0  0  0  0  0  0  0  0  0  0  0
  197.8649  185.5304  150.4534 H   0  0  0  0  0  0  0  0  0  0  0  0
  197.7359  184.1200  155.8335 H   0  0  0  0  0  0  0  0  0  0  0  0
  199.7077  183.9102  156.9756 H   0  0  0  0  0  0  0  0  0  0  0  0
  198.8437  186.7527  156.4705 H   0  0  0  0  0  0  0  0  0  0  0  0
  197.1399  186.2549  156.4882 H   0  0  0  0  0  0  0  0  0  0  0  0
  198.6129  186.3761  158.6111 H   0  0  0  0  0  0  0  0  0  0  0  0
  195.8139  182.5914  156.4084 H   0  0  0  0  0  0  0  0  0  0  0  0
  195.6897  181.9978  154.0651 H   0  0  0  0  0  0  0  0  0  0  0  0
  196.5357  180.6640  152.2191 H   0  0  0  0  0  0  0  0  0  0  0  0
  198.1269  178.8121  152.6578 H   0  0  0  0  0  0  0  0  0  0  0  0
  199.0644  178.5165  154.9619 H   0  0  0  0  0  0  0  0  0  0  0  0
  198.4852  180.1114  156.7675 H   0  0  0  0  0  0  0  0  0  0  0  0
  195.4860  181.1907  158.9020 H   0  0  0  0  0  0  0  0  0  0  0  0
  194.4898  181.8796  157.6125 H   0  0  0  0  0  0  0  0  0  0  0  0
  193.8546  181.7910  159.2405 H   0  0  0  0  0  0  0  0  0  0  0  0
  193.3944  185.7731  161.2997 H   0  0  0  0  0  0  0  0  0  0  0  0
  194.1351  188.0320  161.9901 H   0  0  0  0  0  0  0  0  0  0  0  0
  196.2826  188.9359  161.1200 H   0  0  0  0  0  0  0  0  0  0  0  0
  197.6706  187.6058  159.6028 H   0  0  0  0  0  0  0  0  0  0  0  0
  1  2  1  0
  2  3  2  0
  2  7  1  0
  3  4  1  0
  3 32  1  0
  4  5  2  0
  4  8  1  0
  5  6  1  0
  5 33  1  0
  6  7  2  0
  6 34  1  0
  7 35  1  0
  8  9  1  0
  8 10  1  0
  8 36  1  1
  9 37  1  0
 10 11  1  0
 10 38  1  1
 10 39  1  0
 11 12  1  0
 11 40  1  0
 12 13  1  0
 12 17  2  0
 13 14  1  0
 13 31  2  0
 14 15  1  0
 14 28  2  0
 15 16  2  0
 16 17  1  0
 16 27  1  0
 17 18  1  0
 18 19  2  0
 18 20  1  0
 20 21  1  0
 20 41  1  0
 21 22  2  0
 21 26  1  0
 22 23  1  0
 22 42  1  0
 23 24  2  0
 23 43  1  0
 24 25  1  0
 24 44  1  0
 25 26  2  0
 25 45  1  0
 26 46  1  0
 27 47  1  1
 27 48  1  0
 27 49  1  0
 28 29  1  0
 28 50  1  0
 29 30  2  0
 29 51  1  0
 30 31  1  0
 30 52  1  0
 31 53  1  0
M  END
>  <s_epik_cmdline>  (169) 
J2VwaWtfcHl0aG9uJywgJy1waCcsICc3LjAwMDAwMCcsICctcGh0JywgJzIuMDAwMDAwJywgJy1tcycsICcxNicsICctdG4nLCAnOCcsICctbWEnLCAnMjAwJywgJy1pbWFlJywgJzxpbmZpbGUubWFlPicsICctb21hZScsICc8b3V0ZmlsZS5tYWU+Jw==

>  <s_epik_input>  (169) 
Q2xjMVtjSF1jKFtjSF1bY0hdW2NIXTEpW0NAQEhdKFtPSF0pW0NIMl1bTkhdYzJjKGMoW0NIM10pbmMoYzIzKVtjSF1bY0hdW2NIXVtjSF0zKUMoPU8pW05IXWM0W2NIXVtjSF1bY0hdW2NIXVtjSF00

>  <s_i_glide_gridfile>  (169) 
ATP-Grid

>  <s_lp_Force_Field>  (169) 
OPLS_2005

>  <s_lp_Variant>  (169) 
YAS_R005____OTV5753507____OTV2848234____OTV1055870-3

>  <s_lp_label>  (169) 
126_sdstereoexpander_1_neutralizer_1_epik_2_stereoizer_1

>  <s_m_source_file>  (169) 
ATP-VSW-LIGPREP-003-in.maegz

>  <s_sd_BIOSOLVEIT.INFINISEE\_QUERY\_NAME>  (169) 
Ref-Lig

>  <s_sd_BIOSOLVEIT.INFINISEE\_QUERY\_SMILES>  (169) 
S(c1nc2c(cc1C[NH2+]Cc3ccc(cc3)C[NH+](C)C)cccc2)Cc4ccccc4

>  <s_sd_BIOSOLVEIT.INFINISEE\_REACTION\_NAME>  (169) 
YAS_R005

>  <s_sd_BIOSOLVEIT.INFINISEE\_REAGENT1\_NAME>  (169) 
OTV5753507

>  <s_sd_BIOSOLVEIT.INFINISEE\_REAGENT1\_SMILES>  (169) 
Nc1ccccc1

>  <s_sd_BIOSOLVEIT.INFINISEE\_REAGENT2\_NAME>  (169) 
OTV2848234

>  <s_sd_BIOSOLVEIT.INFINISEE\_REAGENT2\_SMILES>  (169) 
O=C(Nc1ccccc1)CC(=O)C

>  <s_sd_BIOSOLVEIT.INFINISEE\_REAGENT3\_NAME>  (169) 
OTV1055870

>  <s_sd_BIOSOLVEIT.INFINISEE\_REAGENT3\_SMILES>  (169) 
Clc1cc(ccc1)C(O)CN

>  <s_sd_BIOSOLVEIT.INFINISEE\_SPACE>  (169) 
CHEMriya_12bn_2022-01

>  <s_vsw_compound_code>  (169) 
4003

>  <s_vsw_variant>  (169) 
4003-3

>  <r_epik_Charging_Adjusted_Penalty>  (169) 
2.4625074238115099

>  <r_epik_Ionization_Penalty>  (169) 
2.4624999999999999

>  <r_epik_Ionization_Penalty_Charging>  (169) 
0

>  <r_epik_Ionization_Penalty_Neutral>  (169) 
2.4624999999999999

>  <r_epik_State_Penalty>  (169) 
2.4624999999999999

>  <r_i_docking_score>  (169) 
-1.4760904096420999

>  <r_i_glide_ecoul>  (169) 
-2.8332145214080802

>  <r_i_glide_eff_state_penalty>  (169) 
2.4624999999999999

>  <r_i_glide_einternal>  (169) 
6.9193997383117702

>  <r_i_glide_emodel>  (169) 
-49.773151852805597

>  <r_i_glide_energy>  (169) 
-41.645153760909999

>  <r_i_glide_erotb>  (169) 
0.63985126519581503

>  <r_i_glide_esite>  (169) 
-0.100555966597986

>  <r_i_glide_evdw>  (169) 
-38.811939239502003

>  <r_i_glide_gscore>  (169) 
-3.9385904096420998

>  <r_i_glide_hbond>  (169) 
-0.038453829352814398

>  <r_i_glide_ligand_efficiency>  (169) 
-0.047615819665874103

>  <r_i_glide_ligand_efficiency_ln>  (169) 
-0.33290362411262098

>  <r_i_glide_ligand_efficiency_sa>  (169) 
-0.14957941447491599

>  <r_i_glide_lipo>  (169) 
-1.6096285114280799

>  <r_i_glide_metal>  (169) 
-0

>  <r_i_glide_rewards>  (169) 
-0.464224227272726

>  <r_lp_Energy>  (169) 
36.707746999999998

>  <r_qp_ACxDN^.5/SA>  (169) 
0.011178499999999999

>  <r_qp_CIQPlogS>  (169) 
-7.1580000000000004

>  <r_qp_EA(eV)>  (169) 
1.232

>  <r_qp_FISA>  (169) 
81.608000000000004

>  <r_qp_FOSA>  (169) 
110.209

>  <r_qp_IP(eV)>  (169) 
8.7579999999999991

>  <r_qp_Jm>  (169) 
0.22755407207169701

>  <r_qp_PISA>  (169) 
411.09699999999998

>  <r_qp_PSA>  (169) 
72.100999999999999

>  <r_qp_PercentHumanOralAbsorption>  (169) 
100

>  <r_qp_QPPCaco>  (169) 
1667.278

>  <r_qp_QPPMDCK>  (169) 
1719.0920000000001

>  <r_qp_QPlogBB>  (169) 
-0.47499999999999998

>  <r_qp_QPlogHERG>  (169) 
-5.9009999999999998

>  <r_qp_QPlogKhsa>  (169) 
0.66200000000000003

>  <r_qp_QPlogKp>  (169) 
-0.90300000000000002

>  <r_qp_QPlogPC16>  (169) 
14.101000000000001

>  <r_qp_QPlogPo/w>  (169) 
4.9130000000000003

>  <r_qp_QPlogPoct>  (169) 
20.640999999999998

>  <r_qp_QPlogPw>  (169) 
11.18

>  <r_qp_QPlogS>  (169) 
-5.375

>  <r_qp_QPpolrz>  (169) 
43.134

>  <r_qp_SASA>  (169) 
657.85900000000004

>  <r_qp_SAamideO>  (169) 
0

>  <r_qp_SAfluorine>  (169) 
0

>  <r_qp_WPSA>  (169) 
54.944000000000003

>  <r_qp_accptHB>  (169) 
5.2000000000000002

>  <r_qp_dip^2/V>  (169) 
0.0221669

>  <r_qp_dipole>  (169) 
5.2549999999999999

>  <r_qp_donorHB>  (169) 
2

>  <r_qp_glob>  (169) 
0.85112860000000001

>  <r_qp_mol_MW>  (169) 
431.92099999999999

>  <r_qp_volume>  (169) 
1245.789

>  <r_sd_BIOSOLVEIT.INFINISEE\_FTREES\_SIMILARITY>  (169) 
0.90500000000000003

>  <r_sd_BIOSOLVEIT.LOGP>  (169) 
5.5944200000000004

>  <r_sd_BIOSOLVEIT.MOLECULAR\_WEIGHT>  (169) 
431.92099999999999

>  <r_sd_BIOSOLVEIT.TPSA>  (169) 
74.25

>  <i_epik_Tot_Q>  (169) 
0

>  <i_epik_Tot_abs_Q>  (169) 
0

>  <i_f3d_flags>  (169) 
0

>  <i_i_glide_confnum>  (169) 
6

>  <i_i_glide_lignum>  (169) 
178

>  <i_i_glide_posenum>  (169) 
9

>  <i_i_glide_rotatable_bonds>  (169) 
8

>  <i_lp_mmshare_version>  (169) 
65135

>  <i_m_ct_format>  (169) 
2

>  <i_m_source_file_index>  (169) 
126

>  <i_qp_#NandO>  (169) 
5

>  <i_qp_#acid>  (169) 
0

>  <i_qp_#amide>  (169) 
0

>  <i_qp_#amidine>  (169) 
0

>  <i_qp_#amine>  (169) 
0

>  <i_qp_#in34>  (169) 
0

>  <i_qp_#in56>  (169) 
22

>  <i_qp_#metab>  (169) 
6

>  <i_qp_#nonHatm>  (169) 
31

>  <i_qp_#noncon>  (169) 
0

>  <i_qp_#ringatoms>  (169) 
22

>  <i_qp_#rotor>  (169) 
7

>  <i_qp_#rtvFG>  (169) 
0

>  <i_qp_#stars>  (169) 
0

>  <i_qp_CNS>  (169) 
0

>  <i_qp_HumanOralAbsorption>  (169) 
3

>  <i_qp_RuleOfFive>  (169) 
0

>  <i_qp_RuleOfThree>  (169) 
0

>  <i_sd_BIOSOLVEIT.INFINISEE\_RESULT\_RANK>  (169) 
70752

>  <i_sd_version>  (169) 
0

>  <b_lp_Chiralities_Consistent>  (169) 
1

>  <b_sd_chiral_flag>  (169) 
0

>  <canonical_id>  (169) 
ATP-HTVS-1A8854DD1E1A

>  <compound_code>  (169) 
4003

>  <title>  (169) 
YAS_R005____OTV5753507____OTV2848234____OTV1055870

>  <variant>  (169) 
4003-3

>  <source_file>  (169) 
运行/运行/ATP-VSW/ATP-VSW-DOCK_HTVS_1-003_lib/ATP-VSW-DOCK_HTVS_1-003_lib.mae

>  <canonical_smiles>  (169) 
Cc1nc2ccccc2c(NC[C@H](O)c2cccc(Cl)c2)c1C(=O)Nc1ccccc1

>  <scaffold>  (169) 
O=C(Nc1ccccc1)c1cnc2ccccc2c1NCCc1ccccc1

>  <molecular_formula>  (169) 
C25H22ClN3O2

$$$$
ATP-HTVS-1AA1BAAE4A01
     RDKit          3D

 66 69  0  0  0  0  0  0  0  0999 V2000
  199.2231  177.7116  150.6381 F   0  0  0  0  0  0  0  0  0  0  0  0
  198.3150  178.6010  151.1090 C   0  0  0  0  0  0  0  0  0  0  0  0
  197.2885  179.0881  150.2752 C   0  0  0  0  0  0  0  0  0  0  0  0
  197.1756  178.6451  148.8948 C   0  0  0  0  0  0  0  0  0  0  0  0
  197.0814  178.2922  147.7968 N   0  0  0  0  0  0  0  0  0  0  0  0
  196.3470  180.0028  150.7911 C   0  0  0  0  0  0  0  0  0  0  0  0
  196.4348  180.4349  152.1268 C   0  0  0  0  0  0  0  0  0  0  0  0
  197.4748  179.9635  152.9649 C   0  0  0  0  0  0  0  0  0  0  0  0
  198.4070  179.0383  152.4433 C   0  0  0  0  0  0  0  0  0  0  0  0
  197.5954  180.4147  154.3938 C   0  0  0  0  0  0  0  0  0  0  0  0
  198.1966  179.7242  155.2178 O   0  0  0  0  0  0  0  0  0  0  0  0
  197.0974  181.6346  154.6543 N   0  0  0  0  0  0  0  0  0  0  0  0
  197.1412  182.3567  155.8772 C   0  0  0  0  0  0  0  0  0  0  0  0
  197.1491  183.7731  155.8477 C   0  0  0  0  0  0  0  0  0  0  0  0
  197.1484  184.4424  154.6130 N   0  0  0  0  0  0  0  0  0  0  0  0
  198.4778  184.7019  154.0788 C   0  0  1  0  0  0  0  0  0  0  0  0
  198.5127  184.8514  152.5727 C   0  0  0  0  0  0  0  0  0  0  0  0
  197.8204  183.9446  151.7411 C   0  0  0  0  0  0  0  0  0  0  0  0
  197.9013  184.0692  150.3400 C   0  0  0  0  0  0  0  0  0  0  0  0
  198.6751  185.0930  149.7514 C   0  0  0  0  0  0  0  0  0  0  0  0
  199.3415  186.0138  150.5926 C   0  0  0  0  0  0  0  0  0  0  0  0
  199.2820  185.8789  151.9938 C   0  0  0  0  0  0  0  0  0  0  0  0
  198.8183  185.1851  148.2334 C   0  0  1  0  0  0  0  0  0  0  0  0
  200.1020  184.6064  147.7251 N   0  0  1  0  0  0  0  0  0  0  0  0
  201.3213  185.3950  148.0783 C   0  0  1  0  0  0  0  0  0  0  0  0
  201.3190  186.8252  147.4904 C   0  0  2  0  0  0  0  0  0  0  0  0
  200.2639  183.1528  148.0220 C   0  0  1  0  0  0  0  0  0  0  0  0
  199.1678  182.2760  147.3846 C   0  0  2  0  0  0  0  0  0  0  0  0
  197.1671  184.4942  157.0714 C   0  0  0  0  0  0  0  0  0  0  0  0
  197.1698  183.7747  158.2958 C   0  0  0  0  0  0  0  0  0  0  0  0
  197.1534  182.4239  158.2718 N   0  0  0  0  0  0  0  0  0  0  0  0
  197.1490  181.7052  157.1322 C   0  0  0  0  0  0  0  0  0  0  0  0
  197.1945  184.4539  159.5302 C   0  0  0  0  0  0  0  0  0  0  0  0
  197.1977  185.8626  159.5562 C   0  0  0  0  0  0  0  0  0  0  0  0
  197.1793  186.5883  158.3508 C   0  0  0  0  0  0  0  0  0  0  0  0
  197.1640  185.9103  157.1145 C   0  0  0  0  0  0  0  0  0  0  0  0
  195.5472  180.3722  150.1652 H   0  0  0  0  0  0  0  0  0  0  0  0
  195.6939  181.1327  152.4908 H   0  0  0  0  0  0  0  0  0  0  0  0
  199.2036  178.6605  153.0680 H   0  0  0  0  0  0  0  0  0  0  0  0
  196.7060  182.1334  153.8701 H   0  0  0  0  0  0  0  0  0  0  0  0
  196.5073  184.0802  153.9248 H   0  0  0  0  0  0  0  0  0  0  0  0
  198.8539  185.6158  154.5414 H   0  0  0  0  0  0  0  0  0  0  0  0
  199.1802  183.9120  154.3592 H   0  0  0  0  0  0  0  0  0  0  0  0
  197.2399  183.1384  152.1642 H   0  0  0  0  0  0  0  0  0  0  0  0
  197.3809  183.3480  149.7243 H   0  0  0  0  0  0  0  0  0  0  0  0
  199.9377  186.8127  150.1746 H   0  0  0  0  0  0  0  0  0  0  0  0
  199.8438  186.5660  152.6152 H   0  0  0  0  0  0  0  0  0  0  0  0
  197.9666  184.6812  147.7691 H   0  0  0  0  0  0  0  0  0  0  0  0
  198.7281  186.2264  147.9282 H   0  0  0  0  0  0  0  0  0  0  0  0
  201.4604  185.4110  149.1621 H   0  0  0  0  0  0  0  0  0  0  0  0
  202.2073  184.8877  147.6852 H   0  0  0  0  0  0  0  0  0  0  0  0
  202.2012  187.3759  147.8192 H   0  0  0  0  0  0  0  0  0  0  0  0
  200.4512  187.4209  147.7764 H   0  0  0  0  0  0  0  0  0  0  0  0
  201.3498  186.7984  146.4022 H   0  0  0  0  0  0  0  0  0  0  0  0
  201.2296  182.8129  147.6437 H   0  0  0  0  0  0  0  0  0  0  0  0
  200.2962  182.9856  149.0993 H   0  0  0  0  0  0  0  0  0  0  0  0
  199.3381  181.2175  147.5926 H   0  0  0  0  0  0  0  0  0  0  0  0
  199.1378  182.3987  146.3016 H   0  0  0  0  0  0  0  0  0  0  0  0
  198.1758  182.5044  147.7692 H   0  0  0  0  0  0  0  0  0  0  0  0
  197.1329  180.6388  157.2692 H   0  0  0  0  0  0  0  0  0  0  0  0
  197.2050  183.9055  160.4625 H   0  0  0  0  0  0  0  0  0  0  0  0
  197.2187  186.3858  160.5019 H   0  0  0  0  0  0  0  0  0  0  0  0
  197.1717  187.6700  158.3801 H   0  0  0  0  0  0  0  0  0  0  0  0
  197.1384  186.4874  156.1996 H   0  0  0  0  0  0  0  0  0  0  0  0
  200.0471  184.6535  146.7189 H   0  0  0  0  0  0  0  0  0  0  0  0
  197.1346  181.9125  159.1569 H   0  0  0  0  0  0  0  0  0  0  0  0
  1  2  1  0
  2  3  2  0
  2  9  1  0
  3  4  1  0
  3  6  1  0
  4  5  3  0
  6  7  2  0
  6 37  1  0
  7  8  1  0
  7 38  1  0
  8  9  2  0
  8 10  1  0
  9 39  1  0
 10 11  2  0
 10 12  1  0
 12 13  1  0
 12 40  1  0
 13 14  2  0
 13 32  1  0
 14 15  1  0
 14 29  1  0
 15 16  1  0
 15 41  1  0
 16 17  1  0
 16 42  1  1
 16 43  1  0
 17 18  1  0
 17 22  2  0
 18 19  2  0
 18 44  1  0
 19 20  1  0
 19 45  1  0
 20 21  2  0
 20 23  1  0
 21 22  1  0
 21 46  1  0
 22 47  1  0
 23 24  1  0
 23 48  1  6
 23 49  1  0
 24 25  1  0
 24 27  1  0
 24 65  1  6
 25 26  1  0
 25 50  1  1
 25 51  1  0
 26 52  1  1
 26 53  1  0
 26 54  1  0
 27 28  1  0
 27 55  1  6
 27 56  1  0
 28 57  1  6
 28 58  1  0
 28 59  1  0
 29 30  1  0
 29 36  2  0
 30 31  1  0
 30 33  2  0
 31 32  2  0
 31 66  1  0
 32 60  1  0
 33 34  1  0
 33 61  1  0
 34 35  2  0
 34 62  1  0
 35 36  1  0
 35 63  1  0
 36 64  1  0
M  CHG  2  24   1  31   1
M  END
>  <s_epik_cmdline>  (170) 
J2VwaWtfcHl0aG9uJywgJy1waCcsICc3LjAwMDAwMCcsICctcGh0JywgJzIuMDAwMDAwJywgJy1tcycsICcxNicsICctdG4nLCAnOCcsICctbWEnLCAnMjAwJywgJy1pbWFlJywgJzxpbmZpbGUubWFlPicsICctb21hZScsICc8b3V0ZmlsZS5tYWU+Jw==

>  <s_epik_input>  (170) 
RmMxYyhDI04pW2NIXVtjSF1jKFtjSF0xKUMoPU8pW05IXWMoW2NIXW5jKGMyMylbY0hdW2NIXVtjSF1bY0hdMyljMltOSF1bQ0gyXWM0W2NIXVtjSF1jKFtjSF1bY0hdNClbQ0gyXU4oW0NIMl1bQ0gzXSlbQ0gyXVtDSDNd

>  <s_i_glide_gridfile>  (170) 
ATP-Grid

>  <s_lp_Force_Field>  (170) 
OPLS_2005

>  <s_lp_Variant>  (170) 
rxn502b____EMOL911931____EMOL30488121____EMOL2868412-1

>  <s_lp_label>  (170) 
2638_sdstereoexpander_1_neutralizer_1_epik_1_stereoizer_1

>  <s_m_source_file>  (170) 
ATP-VSW-LIGPREP-002-in.maegz

>  <s_sd_BIOSOLVEIT.INFINISEE\_QUERY\_NAME>  (170) 
Ref-Lig

>  <s_sd_BIOSOLVEIT.INFINISEE\_QUERY\_SMILES>  (170) 
S(c1nc2c(cc1C[NH2+]Cc3ccc(cc3)C[NH+](C)C)cccc2)Cc4ccccc4

>  <s_sd_BIOSOLVEIT.INFINISEE\_REACTION\_NAME>  (170) 
rxn502b

>  <s_sd_BIOSOLVEIT.INFINISEE\_REAGENT1\_NAME>  (170) 
EMOL911931

>  <s_sd_BIOSOLVEIT.INFINISEE\_REAGENT1\_SMILES>  (170) 
Fc1c(C#N)ccc(c1)C(=O)O

>  <s_sd_BIOSOLVEIT.INFINISEE\_REAGENT2\_NAME>  (170) 
EMOL30488121

>  <s_sd_BIOSOLVEIT.INFINISEE\_REAGENT2\_SMILES>  (170) 
Brc1c(N)cnc2c1cccc2

>  <s_sd_BIOSOLVEIT.INFINISEE\_REAGENT3\_NAME>  (170) 
EMOL2868412

>  <s_sd_BIOSOLVEIT.INFINISEE\_REAGENT3\_SMILES>  (170) 
N(Cc1ccc(cc1)CN)(CC)CC

>  <s_sd_BIOSOLVEIT.INFINISEE\_SPACE>  (170) 
eXplore_7tr_2022-12

>  <s_vsw_compound_code>  (170) 
84386

>  <s_vsw_variant>  (170) 
84386-1

>  <r_epik_Charging_Adjusted_Penalty>  (170) 
0.19199600449860099

>  <r_epik_Ionization_Penalty>  (170) 
0.10059999999999999

>  <r_epik_Ionization_Penalty_Charging>  (170) 
0.097000000000000003

>  <r_epik_Ionization_Penalty_Neutral>  (170) 
0.0035999999999999999

>  <r_epik_State_Penalty>  (170) 
0.095000000000000001

>  <r_i_docking_score>  (170) 
-4.6052193251095899

>  <r_i_glide_ecoul>  (170) 
-7.24188184738159

>  <r_i_glide_eff_state_penalty>  (170) 
0.095000000000000001

>  <r_i_glide_einternal>  (170) 
1.7934536933898899

>  <r_i_glide_emodel>  (170) 
-62.381923246412804

>  <r_i_glide_energy>  (170) 
-44.778617382049603

>  <r_i_glide_erotb>  (170) 
0.69452465000959196

>  <r_i_glide_esite>  (170) 
-0.10277855471462401

>  <r_i_glide_evdw>  (170) 
-37.536735534667997

>  <r_i_glide_gscore>  (170) 
-4.7002193251095896

>  <r_i_glide_hbond>  (170) 
0

>  <r_i_glide_ligand_efficiency>  (170) 
-0.12792275903082201

>  <r_i_glide_ligand_efficiency_ln>  (170) 
-1.0047344380910901

>  <r_i_glide_ligand_efficiency_sa>  (170) 
-0.42239164329310303

>  <r_i_glide_lipo>  (170) 
-1.7248030025640599

>  <r_i_glide_metal>  (170) 
-0

>  <r_i_glide_rewards>  (170) 
-0.60404336399986402

>  <r_lp_Energy>  (170) 
46.621726000000002

>  <r_qp_ACxDN^.5/SA>  (170) 
0.0145243

>  <r_qp_CIQPlogS>  (170) 
-7.024

>  <r_qp_EA(eV)>  (170) 
1.4970000000000001

>  <r_qp_FISA>  (170) 
136.596

>  <r_qp_FOSA>  (170) 
239.03399999999999

>  <r_qp_IP(eV)>  (170) 
8.7810000000000006

>  <r_qp_Jm>  (170) 
0.000111190945787929

>  <r_qp_PISA>  (170) 
361.80799999999999

>  <r_qp_PSA>  (170) 
86.337000000000003

>  <r_qp_PercentHumanOralAbsorption>  (170) 
89.488

>  <r_qp_QPPCaco>  (170) 
125.158

>  <r_qp_QPPMDCK>  (170) 
97.748000000000005

>  <r_qp_QPlogBB>  (170) 
-0.92800000000000005

>  <r_qp_QPlogHERG>  (170) 
-7.0629999999999997

>  <r_qp_QPlogKhsa>  (170) 
0.63800000000000001

>  <r_qp_QPlogKp>  (170) 
-3.8650000000000002

>  <r_qp_QPlogPC16>  (170) 
15.728999999999999

>  <r_qp_QPlogPo/w>  (170) 
4.2699999999999996

>  <r_qp_QPlogPoct>  (170) 
24.879999999999999

>  <r_qp_QPlogPw>  (170) 
13.602

>  <r_qp_QPlogS>  (170) 
-5.7720000000000002

>  <r_qp_QPpolrz>  (170) 
50.485999999999997

>  <r_qp_SASA>  (170) 
778.95299999999997

>  <r_qp_SAamideO>  (170) 
0

>  <r_qp_SAfluorine>  (170) 
41.515000000000001

>  <r_qp_WPSA>  (170) 
41.515000000000001

>  <r_qp_accptHB>  (170) 
8

>  <r_qp_dip^2/V>  (170) 
0.036982899999999999

>  <r_qp_dipole>  (170) 
7.4219999999999997

>  <r_qp_donorHB>  (170) 
2

>  <r_qp_glob>  (170) 
0.80970350000000002

>  <r_qp_mol_MW>  (170) 
481.57100000000003

>  <r_qp_volume>  (170) 
1489.3900000000001

>  <r_sd_BIOSOLVEIT.INFINISEE\_FTREES\_SIMILARITY>  (170) 
0.91000000000000003

>  <r_sd_BIOSOLVEIT.LOGP>  (170) 
4.5346799999999998

>  <r_sd_BIOSOLVEIT.MOLECULAR\_WEIGHT>  (170) 
482.57999999999998

>  <r_sd_BIOSOLVEIT.TPSA>  (170) 
82.25

>  <i_epik_Tot_Q>  (170) 
2

>  <i_epik_Tot_abs_Q>  (170) 
2

>  <i_f3d_flags>  (170) 
0

>  <i_i_glide_confnum>  (170) 
10

>  <i_i_glide_lignum>  (170) 
1230

>  <i_i_glide_posenum>  (170) 
16

>  <i_i_glide_rotatable_bonds>  (170) 
10

>  <i_lp_mmshare_version>  (170) 
65135

>  <i_m_ct_format>  (170) 
2

>  <i_m_source_file_index>  (170) 
2638

>  <i_qp_#NandO>  (170) 
6

>  <i_qp_#acid>  (170) 
0

>  <i_qp_#amide>  (170) 
0

>  <i_qp_#amidine>  (170) 
0

>  <i_qp_#amine>  (170) 
1

>  <i_qp_#in34>  (170) 
0

>  <i_qp_#in56>  (170) 
22

>  <i_qp_#metab>  (170) 
6

>  <i_qp_#nonHatm>  (170) 
36

>  <i_qp_#noncon>  (170) 
0

>  <i_qp_#ringatoms>  (170) 
22

>  <i_qp_#rotor>  (170) 
10

>  <i_qp_#rtvFG>  (170) 
0

>  <i_qp_#stars>  (170) 
0

>  <i_qp_CNS>  (170) 
0

>  <i_qp_HumanOralAbsorption>  (170) 
3

>  <i_qp_RuleOfFive>  (170) 
0

>  <i_qp_RuleOfThree>  (170) 
1

>  <i_sd_BIOSOLVEIT.INFINISEE\_RESULT\_RANK>  (170) 
45049

>  <i_sd_version>  (170) 
0

>  <b_lp_Chiralities_Consistent>  (170) 
1

>  <b_sd_chiral_flag>  (170) 
0

>  <canonical_id>  (170) 
ATP-HTVS-1AA1BAAE4A01

>  <compound_code>  (170) 
84386

>  <title>  (170) 
rxn502b____EMOL911931____EMOL30488121____EMOL2868412

>  <variant>  (170) 
84386-1

>  <source_file>  (170) 
运行/运行/ATP-VSW/ATP-VSW-DOCK_HTVS_1-002_lib.maegz

>  <canonical_smiles>  (170) 
CC[NH+](CC)Cc1ccc(CNc2c(NC(=O)c3ccc(C#N)c(F)c3)c[nH+]c3ccccc23)cc1

>  <scaffold>  (170) 
O=C(Nc1c[nH+]c2ccccc2c1NCc1ccccc1)c1ccccc1

>  <molecular_formula>  (170) 
C29H30FN5O+2

$$$$
ATP-HTVS-1ACF073F315C
     RDKit          3D

 62 65  0  0  0  0  0  0  0  0999 V2000
  197.8561  185.4410  150.1629 Cl  0  0  0  0  0  0  0  0  0  0  0  0
  198.1415  184.3347  151.4615 C   0  0  0  0  0  0  0  0  0  0  0  0
  197.1613  184.1354  152.4477 C   0  0  0  0  0  0  0  0  0  0  0  0
  197.3945  183.2596  153.5185 C   0  0  0  0  0  0  0  0  0  0  0  0
  198.6063  182.5273  153.6129 C   0  0  0  0  0  0  0  0  0  0  0  0
  199.5907  182.7322  152.6133 C   0  0  0  0  0  0  0  0  0  0  0  0
  199.3663  183.6372  151.5487 C   0  0  0  0  0  0  0  0  0  0  0  0
  198.8389  181.5712  154.7186 C   0  0  0  0  0  0  0  0  0  0  0  0
  200.0826  181.1802  154.9778 N   0  0  0  0  0  0  0  0  0  0  0  0
  199.9952  180.3277  156.0201 N   0  0  0  0  0  0  0  0  0  0  0  0
  198.6911  180.1590  156.4145 C   0  0  0  0  0  0  0  0  0  0  0  0
  197.9110  180.9492  155.6190 C   0  0  0  0  0  0  0  0  0  0  0  0
  196.4122  181.0896  155.7110 C   0  0  1  0  0  0  0  0  0  0  0  0
  196.0230  182.2144  156.5807 N   0  0  1  0  0  0  0  0  0  0  0  0
  196.2721  181.9887  158.0212 C   0  0  1  0  0  0  0  0  0  0  0  0
  195.8510  183.1965  158.8147 C   0  0  0  0  0  0  0  0  0  0  0  0
  194.4793  183.4425  158.9843 C   0  0  0  0  0  0  0  0  0  0  0  0
  194.0499  184.5476  159.7351 C   0  0  0  0  0  0  0  0  0  0  0  0
  194.9910  185.4362  160.3096 C   0  0  0  0  0  0  0  0  0  0  0  0
  196.3695  185.1859  160.1275 C   0  0  0  0  0  0  0  0  0  0  0  0
  196.8032  184.0664  159.3851 C   0  0  0  0  0  0  0  0  0  0  0  0
  194.5431  186.6627  161.1049 C   0  0  1  0  0  0  0  0  0  0  0  0
  193.0200  186.7276  161.3673 C   0  0  1  0  0  0  0  0  0  0  0  0
  192.5140  188.0202  162.0231 C   0  0  1  0  0  0  0  0  0  0  0  0
  192.6808  188.0050  163.5326 C   0  0  0  0  0  0  0  0  0  0  0  0
  193.1483  189.0348  164.0647 O   0  0  0  0  0  0  0  0  0  0  0  0
  192.3495  186.9585  164.1340 O   0  0  0  0  0  0  0  0  0  0  0  0
  201.1906  179.7162  156.5699 C   0  0  1  0  0  0  0  0  0  0  0  0
  201.4304  178.3482  155.9607 C   0  0  0  0  0  0  0  0  0  0  0  0
  200.9550  177.1893  156.6090 C   0  0  0  0  0  0  0  0  0  0  0  0
  201.1985  175.9205  156.0484 C   0  0  0  0  0  0  0  0  0  0  0  0
  201.9086  175.8046  154.8387 C   0  0  0  0  0  0  0  0  0  0  0  0
  202.3792  176.9601  154.1863 C   0  0  0  0  0  0  0  0  0  0  0  0
  202.1396  178.2304  154.7467 C   0  0  0  0  0  0  0  0  0  0  0  0
  196.5472  183.0319  156.3067 H   0  0  0  0  0  0  0  0  0  0  0  0
  196.2185  184.6497  152.4091 H   0  0  0  0  0  0  0  0  0  0  0  0
  196.6112  183.1840  154.2520 H   0  0  0  0  0  0  0  0  0  0  0  0
  200.5382  182.2037  152.6499 H   0  0  0  0  0  0  0  0  0  0  0  0
  200.1364  183.7943  150.8026 H   0  0  0  0  0  0  0  0  0  0  0  0
  198.4237  179.4967  157.2281 H   0  0  0  0  0  0  0  0  0  0  0  0
  195.9539  181.2145  154.7279 H   0  0  0  0  0  0  0  0  0  0  0  0
  195.9555  180.1927  156.1176 H   0  0  0  0  0  0  0  0  0  0  0  0
  195.7052  181.1303  158.3831 H   0  0  0  0  0  0  0  0  0  0  0  0
  197.3275  181.7867  158.2065 H   0  0  0  0  0  0  0  0  0  0  0  0
  193.7446  182.7896  158.5360 H   0  0  0  0  0  0  0  0  0  0  0  0
  192.9848  184.6947  159.8181 H   0  0  0  0  0  0  0  0  0  0  0  0
  197.1056  185.8548  160.5582 H   0  0  0  0  0  0  0  0  0  0  0  0
  197.8615  183.8784  159.2699 H   0  0  0  0  0  0  0  0  0  0  0  0
  195.0887  186.6896  162.0524 H   0  0  0  0  0  0  0  0  0  0  0  0
  194.8613  187.5509  160.5548 H   0  0  0  0  0  0  0  0  0  0  0  0
  192.4686  186.6741  160.4367 H   0  0  0  0  0  0  0  0  0  0  0  0
  192.7219  185.8496  161.9416 H   0  0  0  0  0  0  0  0  0  0  0  0
  193.0007  188.8959  161.5950 H   0  0  0  0  0  0  0  0  0  0  0  0
  191.4501  188.1232  161.8150 H   0  0  0  0  0  0  0  0  0  0  0  0
  202.0481  180.3640  156.3837 H   0  0  0  0  0  0  0  0  0  0  0  0
  201.0800  179.6362  157.6520 H   0  0  0  0  0  0  0  0  0  0  0  0
  200.4078  177.2701  157.5372 H   0  0  0  0  0  0  0  0  0  0  0  0
  200.8425  175.0332  156.5458 H   0  0  0  0  0  0  0  0  0  0  0  0
  202.0913  174.8291  154.4129 H   0  0  0  0  0  0  0  0  0  0  0  0
  202.9260  176.8724  153.2590 H   0  0  0  0  0  0  0  0  0  0  0  0
  202.5055  179.1151  154.2454 H   0  0  0  0  0  0  0  0  0  0  0  0
  195.0358  182.4102  156.4126 H   0  0  0  0  0  0  0  0  0  0  0  0
  1  2  1  0
  2  3  1  0
  2  7  2  0
  3  4  2  0
  3 36  1  0
  4  5  1  0
  4 37  1  0
  5  6  2  0
  5  8  1  0
  6  7  1  0
  6 38  1  0
  7 39  1  0
  8  9  2  0
  8 12  1  0
  9 10  1  0
 10 11  1  0
 10 28  1  0
 11 12  2  0
 11 40  1  0
 12 13  1  0
 13 14  1  0
 13 41  1  6
 13 42  1  0
 14 15  1  0
 14 35  1  6
 14 62  1  0
 15 16  1  0
 15 43  1  1
 15 44  1  0
 16 17  1  0
 16 21  2  0
 17 18  2  0
 17 45  1  0
 18 19  1  0
 18 46  1  0
 19 20  2  0
 19 22  1  0
 20 21  1  0
 20 47  1  0
 21 48  1  0
 22 23  1  0
 22 49  1  1
 22 50  1  0
 23 24  1  0
 23 51  1  6
 23 52  1  0
 24 25  1  0
 24 53  1  6
 24 54  1  0
 25 26  1  0
 25 27  2  0
 28 29  1  0
 28 55  1  1
 28 56  1  0
 29 30  2  0
 29 34  1  0
 30 31  1  0
 30 57  1  0
 31 32  2  0
 31 58  1  0
 32 33  1  0
 32 59  1  0
 33 34  2  0
 33 60  1  0
 34 61  1  0
M  CHG  2  14   1  26  -1
M  END
>  <s_epik_cmdline>  (171) 
J2VwaWtfcHl0aG9uJywgJy1waCcsICc3LjAwMDAwMCcsICctcGh0JywgJzIuMDAwMDAwJywgJy1tcycsICcxNicsICctdG4nLCAnOCcsICctbWEnLCAnMjAwJywgJy1pbWFlJywgJzxpbmZpbGUubWFlPicsICctb21hZScsICc8b3V0ZmlsZS5tYWU+Jw==

>  <s_epik_input>  (171) 
Q2xjMVtjSF1bY0hdYyhbY0hdW2NIXTEpLWMybm4oW0NIMl1jM1tjSF1bY0hdW2NIXVtjSF1bY0hdMylbY0hdYzJbQ0gyXVtOSF1bQ0gyXWM0W2NIXVtjSF1jKFtjSF1bY0hdNClbQ0gyXVtDSDJdW0NIMl1DKD1PKVtPSF0=

>  <s_i_glide_gridfile>  (171) 
ATP-Grid

>  <s_lp_Force_Field>  (171) 
OPLS_2005

>  <s_lp_Variant>  (171) 
m_271304bba____13807932____9305042-1

>  <s_lp_label>  (171) 
1386_sdstereoexpander_1_neutralizer_1_epik_1_stereoizer_1

>  <s_m_source_file>  (171) 
ATP-VSW-LIGPREP-003-in.maegz

>  <s_sd_BIOSOLVEIT.INFINISEE\_QUERY\_NAME>  (171) 
Ref-Lig

>  <s_sd_BIOSOLVEIT.INFINISEE\_QUERY\_SMILES>  (171) 
S(c1nc2c(cc1C[NH2+]Cc3ccc(cc3)C[NH+](C)C)cccc2)Cc4ccccc4

>  <s_sd_BIOSOLVEIT.INFINISEE\_REACTION\_NAME>  (171) 
m_271304bba

>  <s_sd_BIOSOLVEIT.INFINISEE\_REAGENT1\_SMILES>  (171) 
[R1*]NCc1ccc(cc1)CCCC(=O)O

>  <s_sd_BIOSOLVEIT.INFINISEE\_REAGENT2\_SMILES>  (171) 
[R1*]CC=1C(=NN(C1)Cc2ccccc2)c3ccc(Cl)cc3

>  <s_sd_BIOSOLVEIT.INFINISEE\_SPACE>  (171) 
REALSpace_44bn_2023-08

>  <s_vsw_compound_code>  (171) 
44323

>  <s_vsw_variant>  (171) 
44323-1

>  <r_epik_Charging_Adjusted_Penalty>  (171) 
0.172918856378587

>  <r_epik_Ionization_Penalty>  (171) 
0.086400000000000005

>  <r_epik_Ionization_Penalty_Charging>  (171) 
0.086400000000000005

>  <r_epik_Ionization_Penalty_Neutral>  (171) 
0

>  <r_epik_State_Penalty>  (171) 
0.086599999999999996

>  <r_i_docking_score>  (171) 
-5.6798215108632801

>  <r_i_glide_ecoul>  (171) 
-13.415740013122599

>  <r_i_glide_eff_state_penalty>  (171) 
0.086599999999999996

>  <r_i_glide_einternal>  (171) 
5.4330024719238299

>  <r_i_glide_emodel>  (171) 
-73.939761710185294

>  <r_i_glide_energy>  (171) 
-49.391005516052203

>  <r_i_glide_erotb>  (171) 
0.90050616495234304

>  <r_i_glide_esite>  (171) 
-0.10312771986459

>  <r_i_glide_evdw>  (171) 
-35.975265502929702

>  <r_i_glide_gscore>  (171) 
-5.7664215108632799

>  <r_i_glide_hbond>  (171) 
-0.45051705185549601

>  <r_i_glide_ligand_efficiency>  (171) 
-0.16705357384892

>  <r_i_glide_ligand_efficiency_ln>  (171) 
-1.2548318853467699

>  <r_i_glide_ligand_efficiency_sa>  (171) 
-0.54118872865039802

>  <r_i_glide_lipo>  (171) 
-2.0420334965297502

>  <r_i_glide_metal>  (171) 
-0

>  <r_i_glide_rewards>  (171) 
-0.26012513045091101

>  <r_lp_Energy>  (171) 
10.848905999999999

>  <r_lp_tautomer_probability>  (171) 
1

>  <r_qp_ACxDN^.5/SA>  (171) 
0.0082965999999999995

>  <r_qp_CIQPlogS>  (171) 
-7.1040000000000001

>  <r_qp_EA(eV)>  (171) 
0.26700000000000002

>  <r_qp_FISA>  (171) 
123.633

>  <r_qp_FOSA>  (171) 
192.67699999999999

>  <r_qp_IP(eV)>  (171) 
9.0210000000000008

>  <r_qp_Jm>  (171) 
3.2018126633465401e-06

>  <r_qp_PISA>  (171) 
464.31999999999999

>  <r_qp_PSA>  (171) 
77.998999999999995

>  <r_qp_PercentHumanOralAbsorption>  (171) 
83.745999999999995

>  <r_qp_QPPCaco>  (171) 
42.070999999999998

>  <r_qp_QPPMDCK>  (171) 
55.957999999999998

>  <r_qp_QPlogBB>  (171) 
-0.90700000000000003

>  <r_qp_QPlogHERG>  (171) 
-6.6139999999999999

>  <r_qp_QPlogKhsa>  (171) 
1.149

>  <r_qp_QPlogKp>  (171) 
-3.2650000000000001

>  <r_qp_QPlogPC16>  (171) 
17.919

>  <r_qp_QPlogPo/w>  (171) 
4.7370000000000001

>  <r_qp_QPlogPoct>  (171) 
24.233000000000001

>  <r_qp_QPlogPw>  (171) 
11.443

>  <r_qp_QPlogS>  (171) 
-7.9050000000000002

>  <r_qp_QPpolrz>  (171) 
53.399999999999999

>  <r_qp_SASA>  (171) 
852.28099999999995

>  <r_qp_SAamideO>  (171) 
0

>  <r_qp_SAfluorine>  (171) 
0

>  <r_qp_WPSA>  (171) 
71.650999999999996

>  <r_qp_accptHB>  (171) 
5

>  <r_qp_dip^2/V>  (171) 
0.034052100000000002

>  <r_qp_dipole>  (171) 
7.2359999999999998

>  <r_qp_donorHB>  (171) 
2

>  <r_qp_glob>  (171) 
0.75597139999999996

>  <r_qp_mol_MW>  (171) 
474.00099999999998

>  <r_qp_volume>  (171) 
1537.7460000000001

>  <r_sd_BIOSOLVEIT.INFINISEE\_FTREES\_SIMILARITY>  (171) 
0.90900000000000003

>  <r_sd_BIOSOLVEIT.LOGP>  (171) 
3.5880000000000001

>  <r_sd_BIOSOLVEIT.MOLECULAR\_WEIGHT>  (171) 
474.00099999999998

>  <r_sd_BIOSOLVEIT.TPSA>  (171) 
74.560000000000002

>  <i_epik_Tot_Q>  (171) 
0

>  <i_epik_Tot_abs_Q>  (171) 
2

>  <i_f3d_flags>  (171) 
0

>  <i_i_glide_confnum>  (171) 
15

>  <i_i_glide_lignum>  (171) 
532

>  <i_i_glide_posenum>  (171) 
19

>  <i_i_glide_rotatable_bonds>  (171) 
11

>  <i_lp_mmshare_version>  (171) 
65135

>  <i_m_ct_format>  (171) 
2

>  <i_m_source_file_index>  (171) 
1386

>  <i_qp_#NandO>  (171) 
5

>  <i_qp_#acid>  (171) 
1

>  <i_qp_#amide>  (171) 
0

>  <i_qp_#amidine>  (171) 
0

>  <i_qp_#amine>  (171) 
1

>  <i_qp_#in34>  (171) 
0

>  <i_qp_#in56>  (171) 
23

>  <i_qp_#metab>  (171) 
6

>  <i_qp_#nonHatm>  (171) 
34

>  <i_qp_#noncon>  (171) 
0

>  <i_qp_#ringatoms>  (171) 
23

>  <i_qp_#rotor>  (171) 
10

>  <i_qp_#rtvFG>  (171) 
0

>  <i_qp_#stars>  (171) 
2

>  <i_qp_CNS>  (171) 
-1

>  <i_qp_HumanOralAbsorption>  (171) 
1

>  <i_qp_RuleOfFive>  (171) 
0

>  <i_qp_RuleOfThree>  (171) 
1

>  <i_sd_BIOSOLVEIT.INFINISEE\_REAGENT1\_NAME>  (171) 
13807932

>  <i_sd_BIOSOLVEIT.INFINISEE\_REAGENT2\_NAME>  (171) 
9305042

>  <i_sd_BIOSOLVEIT.INFINISEE\_RESULT\_RANK>  (171) 
51769

>  <i_sd_version>  (171) 
0

>  <b_lp_Chiralities_Consistent>  (171) 
1

>  <b_sd_chiral_flag>  (171) 
0

>  <canonical_id>  (171) 
ATP-HTVS-1ACF073F315C

>  <compound_code>  (171) 
44323

>  <title>  (171) 
m_271304bba____13807932____9305042

>  <variant>  (171) 
44323-1

>  <source_file>  (171) 
运行/运行/ATP-VSW/ATP-VSW-DOCK_HTVS_1-003_lib/ATP-VSW-DOCK_HTVS_1-003_lib.mae

>  <canonical_smiles>  (171) 
O=C([O-])CCCc1ccc(C[NH2+]Cc2cn(Cc3ccccc3)nc2-c2ccc(Cl)cc2)cc1

>  <scaffold>  (171) 
c1ccc(C[NH2+]Cc2cn(Cc3ccccc3)nc2-c2ccccc2)cc1

>  <molecular_formula>  (171) 
C28H28ClN3O2

$$$$
ATP-HTVS-1AEE198E3D8C
     RDKit          3D

 64 67  0  0  0  0  0  0  0  0999 V2000
  195.9536  183.6599  151.7276 O   0  0  0  0  0  0  0  0  0  0  0  0
  196.7083  182.5407  151.6068 C   0  0  0  0  0  0  0  0  0  0  0  0
  197.1586  181.8340  152.7371 C   0  0  0  0  0  0  0  0  0  0  0  0
  196.8059  182.2270  154.0304 N   0  0  0  0  0  0  0  0  0  0  0  0
  197.5959  182.4285  155.1333 C   0  0  0  0  0  0  0  0  0  0  0  0
  198.8834  182.7408  155.0284 N   0  0  0  0  0  0  0  0  0  0  0  0
  199.6272  182.9111  156.1368 C   0  0  0  0  0  0  0  0  0  0  0  0
  200.9901  183.2439  155.9682 N   0  0  0  0  0  0  0  0  0  0  0  0
  201.7795  183.8395  157.0467 C   0  0  1  0  0  0  0  0  0  0  0  0
  202.1581  182.9043  158.1886 C   0  0  0  0  0  0  0  0  0  0  0  0
  202.9494  181.7620  157.9391 C   0  0  0  0  0  0  0  0  0  0  0  0
  203.2543  180.8736  158.9866 C   0  0  0  0  0  0  0  0  0  0  0  0
  202.7676  181.1195  160.2848 C   0  0  0  0  0  0  0  0  0  0  0  0
  201.9803  182.2579  160.5398 C   0  0  0  0  0  0  0  0  0  0  0  0
  201.7045  183.1668  159.4992 C   0  0  0  0  0  0  0  0  0  0  0  0
  201.5706  183.1646  154.6256 C   0  0  2  0  0  0  0  0  0  0  0  0
  199.0205  182.7646  157.3991 C   0  0  0  0  0  0  0  0  0  0  0  0
  197.6765  182.4037  157.4491 C   0  0  0  0  0  0  0  0  0  0  0  0
  196.9969  182.2449  156.3070 N   0  0  0  0  0  0  0  0  0  0  0  0
  197.0050  182.2447  158.6751 N   0  0  0  0  0  0  0  0  0  0  0  0
  195.5559  182.1066  158.7062 C   0  0  1  0  0  0  0  0  0  0  0  0
  194.8345  183.3464  158.1515 C   0  0  1  0  0  0  0  0  0  0  0  0
  193.4321  183.1246  158.1448 O   0  0  0  0  0  0  0  0  0  0  0  0
  195.2685  184.6262  158.8462 C   0  0  0  0  0  0  0  0  0  0  0  0
  194.6286  185.0034  160.0361 C   0  0  0  0  0  0  0  0  0  0  0  0
  195.0240  186.1710  160.7043 C   0  0  0  0  0  0  0  0  0  0  0  0
  196.0740  186.9577  160.1891 C   0  0  0  0  0  0  0  0  0  0  0  0
  196.7225  186.5758  158.9992 C   0  0  0  0  0  0  0  0  0  0  0  0
  196.3218  185.4112  158.3252 C   0  0  0  0  0  0  0  0  0  0  0  0
  196.4964  188.2203  160.9060 C   0  0  2  0  0  0  0  0  0  0  0  0
  197.9411  180.6713  152.5812 C   0  0  0  0  0  0  0  0  0  0  0  0
  198.2853  180.2170  151.2924 C   0  0  0  0  0  0  0  0  0  0  0  0
  197.8417  180.9234  150.1571 C   0  0  0  0  0  0  0  0  0  0  0  0
  197.0658  182.0909  150.3195 C   0  0  0  0  0  0  0  0  0  0  0  0
  195.4077  183.6907  152.5191 H   0  0  0  0  0  0  0  0  0  0  0  0
  195.8118  182.2634  154.2054 H   0  0  0  0  0  0  0  0  0  0  0  0
  202.7113  184.2470  156.6407 H   0  0  0  0  0  0  0  0  0  0  0  0
  201.2364  184.7032  157.4412 H   0  0  0  0  0  0  0  0  0  0  0  0
  203.3181  181.5658  156.9427 H   0  0  0  0  0  0  0  0  0  0  0  0
  203.8529  179.9981  158.7935 H   0  0  0  0  0  0  0  0  0  0  0  0
  202.9776  180.4236  161.0820 H   0  0  0  0  0  0  0  0  0  0  0  0
  201.5860  182.4407  161.5327 H   0  0  0  0  0  0  0  0  0  0  0  0
  201.0787  184.0229  159.7002 H   0  0  0  0  0  0  0  0  0  0  0  0
  201.4202  182.1699  154.1960 H   0  0  0  0  0  0  0  0  0  0  0  0
  202.6512  183.3563  154.6326 H   0  0  0  0  0  0  0  0  0  0  0  0
  201.1069  183.8971  153.9566 H   0  0  0  0  0  0  0  0  0  0  0  0
  199.5664  182.8731  158.3149 H   0  0  0  0  0  0  0  0  0  0  0  0
  197.4713  182.4063  159.5619 H   0  0  0  0  0  0  0  0  0  0  0  0
  195.2512  181.2094  158.1614 H   0  0  0  0  0  0  0  0  0  0  0  0
  195.2378  181.9577  159.7389 H   0  0  0  0  0  0  0  0  0  0  0  0
  195.0862  183.4464  157.1093 H   0  0  0  0  0  0  0  0  0  0  0  0
  193.2071  183.0241  157.2103 H   0  0  0  0  0  0  0  0  0  0  0  0
  193.8210  184.4004  160.4179 H   0  0  0  0  0  0  0  0  0  0  0  0
  194.5135  186.4557  161.6100 H   0  0  0  0  0  0  0  0  0  0  0  0
  197.5246  187.1792  158.6015 H   0  0  0  0  0  0  0  0  0  0  0  0
  196.8219  185.1312  157.4098 H   0  0  0  0  0  0  0  0  0  0  0  0
  197.5816  188.3142  160.9177 H   0  0  0  0  0  0  0  0  0  0  0  0
  196.1497  188.2055  161.9370 H   0  0  0  0  0  0  0  0  0  0  0  0
  196.0694  189.0948  160.4172 H   0  0  0  0  0  0  0  0  0  0  0  0
  198.2873  180.1183  153.4474 H   0  0  0  0  0  0  0  0  0  0  0  0
  198.8838  179.3248  151.1738 H   0  0  0  0  0  0  0  0  0  0  0  0
  198.0978  180.5782  149.1688 H   0  0  0  0  0  0  0  0  0  0  0  0
  196.7295  182.6330  149.4460 H   0  0  0  0  0  0  0  0  0  0  0  0
  196.0268  181.9939  156.3480 H   0  0  0  0  0  0  0  0  0  0  0  0
  1  2  1  0
  1 35  1  0
  2  3  1  0
  2 34  2  0
  3  4  1  0
  3 31  2  0
  4  5  1  0
  4 36  1  0
  5  6  1  0
  5 19  2  0
  6  7  2  0
  7  8  1  0
  7 17  1  0
  8  9  1  0
  8 16  1  0
  9 10  1  0
  9 37  1  6
  9 38  1  0
 10 11  2  0
 10 15  1  0
 11 12  1  0
 11 39  1  0
 12 13  2  0
 12 40  1  0
 13 14  1  0
 13 41  1  0
 14 15  2  0
 14 42  1  0
 15 43  1  0
 16 44  1  6
 16 45  1  0
 16 46  1  0
 17 18  2  0
 17 47  1  0
 18 19  1  0
 18 20  1  0
 19 64  1  0
 20 21  1  0
 20 48  1  0
 21 22  1  0
 21 49  1  6
 21 50  1  0
 22 23  1  0
 22 24  1  0
 22 51  1  6
 23 52  1  0
 24 25  1  0
 24 29  2  0
 25 26  2  0
 25 53  1  0
 26 27  1  0
 26 54  1  0
 27 28  2  0
 27 30  1  0
 28 29  1  0
 28 55  1  0
 29 56  1  0
 30 57  1  1
 30 58  1  0
 30 59  1  0
 31 32  1  0
 31 60  1  0
 32 33  2  0
 32 61  1  0
 33 34  1  0
 33 62  1  0
 34 63  1  0
M  CHG  1  19   1
M  END
>  <s_epik_cmdline>  (172) 
J2VwaWtfcHl0aG9uJywgJy1waCcsICc3LjAwMDAwMCcsICctcGh0JywgJzIuMDAwMDAwJywgJy1tcycsICcxNicsICctdG4nLCAnOCcsICctbWEnLCAnMjAwJywgJy1pbWFlJywgJzxpbmZpbGUubWFlPicsICctb21hZScsICc8b3V0ZmlsZS5tYWU+Jw==

>  <s_epik_input>  (172) 
W2NIXTFbY0hdW2NIXVtjSF1bY0hdYzFbQ0gyXU4oW0NIM10pYyhuYzJbTkhdYyhjM1tPSF0pW2NIXVtjSF1bY0hdW2NIXTMpW2NIXWMobjIpW05IXVtDSDJdW0NAQEhdKFtPSF0pYzRbY0hdW2NIXWMoW0NIM10pW2NIXVtjSF00

>  <s_i_glide_gridfile>  (172) 
ATP-Grid

>  <s_lp_Force_Field>  (172) 
OPLS_2005

>  <s_lp_Variant>  (172) 
YAS_R028____OTV2128104____OTV998841____OTV1268163____OTV1055862-2

>  <s_lp_label>  (172) 
49_sdstereoexpander_2_neutralizer_1_epik_1_stereoizer_1

>  <s_m_source_file>  (172) 
ATP-VSW-LIGPREP-002-in.maegz

>  <s_sd_BIOSOLVEIT.INFINISEE\_QUERY\_NAME>  (172) 
Ref-Lig

>  <s_sd_BIOSOLVEIT.INFINISEE\_QUERY\_SMILES>  (172) 
S(c1nc2c(cc1C[NH2+]Cc3ccc(cc3)C[NH+](C)C)cccc2)Cc4ccccc4

>  <s_sd_BIOSOLVEIT.INFINISEE\_REACTION\_NAME>  (172) 
YAS_R028

>  <s_sd_BIOSOLVEIT.INFINISEE\_REAGENT1\_NAME>  (172) 
OTV2128104

>  <s_sd_BIOSOLVEIT.INFINISEE\_REAGENT1\_SMILES>  (172) 
Clc1nc(Cl)cc(Cl)n1

>  <s_sd_BIOSOLVEIT.INFINISEE\_REAGENT2\_NAME>  (172) 
OTV998841

>  <s_sd_BIOSOLVEIT.INFINISEE\_REAGENT2\_SMILES>  (172) 
Oc1c(N)cccc1

>  <s_sd_BIOSOLVEIT.INFINISEE\_REAGENT3\_NAME>  (172) 
OTV1268163

>  <s_sd_BIOSOLVEIT.INFINISEE\_REAGENT3\_SMILES>  (172) 
N(Cc1ccccc1)C

>  <s_sd_BIOSOLVEIT.INFINISEE\_REAGENT4\_NAME>  (172) 
OTV1055862

>  <s_sd_BIOSOLVEIT.INFINISEE\_REAGENT4\_SMILES>  (172) 
OC(c1ccc(cc1)C)CN

>  <s_sd_BIOSOLVEIT.INFINISEE\_SPACE>  (172) 
CHEMriya_12bn_2022-01

>  <s_vsw_compound_code>  (172) 
1538

>  <s_vsw_variant>  (172) 
1538-2

>  <r_epik_Charging_Adjusted_Penalty>  (172) 
0.26371092217032099

>  <r_epik_Ionization_Penalty>  (172) 
0.0094000000000000004

>  <r_epik_Ionization_Penalty_Charging>  (172) 
0.0092999999999999992

>  <r_epik_Ionization_Penalty_Neutral>  (172) 
0.0001

>  <r_epik_State_Penalty>  (172) 
0.25440000000000002

>  <r_i_docking_score>  (172) 
-4.57250055963347

>  <r_i_glide_ecoul>  (172) 
-9.9967584609985405

>  <r_i_glide_eff_state_penalty>  (172) 
0.25440000000000002

>  <r_i_glide_einternal>  (172) 
8.2715120315551793

>  <r_i_glide_emodel>  (172) 
-55.409502205604902

>  <r_i_glide_energy>  (172) 
-39.358250617981

>  <r_i_glide_erotb>  (172) 
0.86776031109485896

>  <r_i_glide_esite>  (172) 
-0.170462390865426

>  <r_i_glide_evdw>  (172) 
-29.361492156982401

>  <r_i_glide_gscore>  (172) 
-4.8269005596334704

>  <r_i_glide_hbond>  (172) 
-0.32324173596226102

>  <r_i_glide_ligand_efficiency>  (172) 
-0.134485310577455

>  <r_i_glide_ligand_efficiency_ln>  (172) 
-1.0101936279194701

>  <r_i_glide_ligand_efficiency_sa>  (172) 
-0.43568019873306901

>  <r_i_glide_lipo>  (172) 
-1.9371824578108301

>  <r_i_glide_metal>  (172) 
-0

>  <r_i_glide_rewards>  (172) 
-0.29618590909090797

>  <r_lp_Energy>  (172) 
16.82667

>  <r_lp_tautomer_probability>  (172) 
0.42498940569696197

>  <r_qp_ACxDN^.5/SA>  (172) 
0.0150651

>  <r_qp_CIQPlogS>  (172) 
-7.2430000000000003

>  <r_qp_EA(eV)>  (172) 
0.105

>  <r_qp_FISA>  (172) 
135.91999999999999

>  <r_qp_FOSA>  (172) 
221.90600000000001

>  <r_qp_IP(eV)>  (172) 
8.0649999999999995

>  <r_qp_Jm>  (172) 
0.0107908569543342

>  <r_qp_PISA>  (172) 
432.07799999999997

>  <r_qp_PSA>  (172) 
85.953999999999994

>  <r_qp_PercentHumanOralAbsorption>  (172) 
100

>  <r_qp_QPPCaco>  (172) 
509.29500000000002

>  <r_qp_QPPMDCK>  (172) 
238.572

>  <r_qp_QPlogBB>  (172) 
-1.5580000000000001

>  <r_qp_QPlogHERG>  (172) 
-7.0190000000000001

>  <r_qp_QPlogKhsa>  (172) 
0.71399999999999997

>  <r_qp_QPlogKp>  (172) 
-1.446

>  <r_qp_QPlogPC16>  (172) 
16.789999999999999

>  <r_qp_QPlogPo/w>  (172) 
4.9610000000000003

>  <r_qp_QPlogPoct>  (172) 
25.861999999999998

>  <r_qp_QPlogPw>  (172) 
14.776

>  <r_qp_QPlogS>  (172) 
-6.1790000000000003

>  <r_qp_QPpolrz>  (172) 
49.369

>  <r_qp_SASA>  (172) 
789.904

>  <r_qp_SAamideO>  (172) 
0

>  <r_qp_SAfluorine>  (172) 
0

>  <r_qp_WPSA>  (172) 
0

>  <r_qp_accptHB>  (172) 
5.9500000000000002

>  <r_qp_dip^2/V>  (172) 
0.023577000000000001

>  <r_qp_dipole>  (172) 
5.8689999999999998

>  <r_qp_donorHB>  (172) 
4

>  <r_qp_glob>  (172) 
0.78821770000000002

>  <r_qp_mol_MW>  (172) 
455.55799999999999

>  <r_qp_volume>  (172) 
1460.7750000000001

>  <r_sd_BIOSOLVEIT.INFINISEE\_FTREES\_SIMILARITY>  (172) 
0.91800000000000004

>  <r_sd_BIOSOLVEIT.LOGP>  (172) 
5.0161199999999999

>  <r_sd_BIOSOLVEIT.MOLECULAR\_WEIGHT>  (172) 
455.55900000000003

>  <r_sd_BIOSOLVEIT.TPSA>  (172) 
93.540000000000006

>  <i_epik_Tot_Q>  (172) 
1

>  <i_epik_Tot_abs_Q>  (172) 
1

>  <i_f3d_flags>  (172) 
0

>  <i_i_glide_confnum>  (172) 
8

>  <i_i_glide_lignum>  (172) 
80

>  <i_i_glide_posenum>  (172) 
13

>  <i_i_glide_rotatable_bonds>  (172) 
11

>  <i_lp_mmshare_version>  (172) 
65135

>  <i_m_ct_format>  (172) 
2

>  <i_m_source_file_index>  (172) 
49

>  <i_qp_#NandO>  (172) 
7

>  <i_qp_#acid>  (172) 
0

>  <i_qp_#amide>  (172) 
0

>  <i_qp_#amidine>  (172) 
0

>  <i_qp_#amine>  (172) 
0

>  <i_qp_#in34>  (172) 
0

>  <i_qp_#in56>  (172) 
24

>  <i_qp_#metab>  (172) 
5

>  <i_qp_#nonHatm>  (172) 
34

>  <i_qp_#noncon>  (172) 
0

>  <i_qp_#ringatoms>  (172) 
24

>  <i_qp_#rotor>  (172) 
11

>  <i_qp_#rtvFG>  (172) 
0

>  <i_qp_#stars>  (172) 
0

>  <i_qp_CNS>  (172) 
-2

>  <i_qp_HumanOralAbsorption>  (172) 
3

>  <i_qp_RuleOfFive>  (172) 
0

>  <i_qp_RuleOfThree>  (172) 
1

>  <i_sd_BIOSOLVEIT.INFINISEE\_RESULT\_RANK>  (172) 
20946

>  <i_sd_version>  (172) 
0

>  <b_lp_Chiralities_Consistent>  (172) 
1

>  <b_sd_chiral_flag>  (172) 
0

>  <canonical_id>  (172) 
ATP-HTVS-1AEE198E3D8C

>  <compound_code>  (172) 
1538

>  <title>  (172) 
YAS_R028____OTV2128104____OTV998841____OTV1268163____OTV1055862

>  <variant>  (172) 
1538-2

>  <source_file>  (172) 
运行/运行/ATP-VSW/ATP-VSW-DOCK_HTVS_1-002_lib.maegz

>  <canonical_smiles>  (172) 
Cc1ccc([C@H](O)CNc2cc(N(C)Cc3ccccc3)nc(Nc3ccccc3O)[nH+]2)cc1

>  <scaffold>  (172) 
c1ccc(CCNc2cc(NCc3ccccc3)nc(Nc3ccccc3)[nH+]2)cc1

>  <molecular_formula>  (172) 
C27H30N5O2+

$$$$
ATP-HTVS-1B05407455E5
     RDKit          3D

 62 64  0  0  0  0  0  0  0  0999 V2000
  196.4212  182.4876  157.1447 S   0  0  0  0  0  0  0  0  0  0  0  0
  197.1410  183.9132  157.8897 C   0  0  0  0  0  0  0  0  0  0  0  0
  198.3575  184.1776  157.4239 N   0  0  0  0  0  0  0  0  0  0  0  0
  198.7722  183.2807  156.4355 C   0  0  0  0  0  0  0  0  0  0  0  0
  197.8313  182.3216  156.1391 C   0  0  0  0  0  0  0  0  0  0  0  0
  197.8877  181.2658  155.0818 C   0  0  2  0  0  0  0  0  0  0  0  0
  196.8552  181.5042  154.0512 N   0  0  1  0  0  0  0  0  0  0  0  0
  196.9953  182.7664  153.2919 C   0  0  1  0  0  0  0  0  0  0  0  0
  196.2464  182.7091  151.9526 C   0  0  1  0  0  0  0  0  0  0  0  0
  196.8909  181.7365  150.9800 C   0  0  0  0  0  0  0  0  0  0  0  0
  197.8082  182.1952  150.0138 C   0  0  0  0  0  0  0  0  0  0  0  0
  198.4239  181.2856  149.1261 C   0  0  0  0  0  0  0  0  0  0  0  0
  198.1294  179.9026  149.2120 C   0  0  0  0  0  0  0  0  0  0  0  0
  197.2310  179.4469  150.1959 C   0  0  0  0  0  0  0  0  0  0  0  0
  196.5844  180.3610  151.0535 C   0  0  0  0  0  0  0  0  0  0  0  0
  198.7665  178.9070  148.2536 C   0  0  1  0  0  0  0  0  0  0  0  0
  197.9144  178.5866  147.0725 N   0  0  2  0  0  0  0  0  0  0  0  0
  196.5869  178.0131  147.4176 C   0  0  2  0  0  0  0  0  0  0  0  0
  198.6210  177.7374  146.0929 C   0  0  2  0  0  0  0  0  0  0  0  0
  197.7524  179.8485  155.6512 C   0  0  2  0  0  0  0  0  0  0  0  0
  200.1156  183.4561  155.8085 C   0  0  2  0  0  0  0  0  0  0  0  0
  196.4186  184.6931  158.8877 C   0  0  0  0  0  0  0  0  0  0  0  0
  195.0761  184.3694  159.1806 C   0  0  0  0  0  0  0  0  0  0  0  0
  194.3439  185.1142  160.1221 C   0  0  0  0  0  0  0  0  0  0  0  0
  194.9402  186.2335  160.7802 C   0  0  0  0  0  0  0  0  0  0  0  0
  194.2751  187.0309  161.6850 O   0  0  0  0  0  0  0  0  0  0  0  0
  192.8985  186.7838  161.8833 C   0  0  2  0  0  0  0  0  0  0  0  0
  196.2763  186.5473  160.4762 C   0  0  0  0  0  0  0  0  0  0  0  0
  197.0125  185.7895  159.5529 C   0  0  0  0  0  0  0  0  0  0  0  0
  196.9102  180.7357  153.4008 H   0  0  0  0  0  0  0  0  0  0  0  0
  198.8517  181.3164  154.5821 H   0  0  0  0  0  0  0  0  0  0  0  0
  196.6090  183.5755  153.9119 H   0  0  0  0  0  0  0  0  0  0  0  0
  198.0463  182.9871  153.0890 H   0  0  0  0  0  0  0  0  0  0  0  0
  195.2118  182.4171  152.1289 H   0  0  0  0  0  0  0  0  0  0  0  0
  196.2201  183.7000  151.5005 H   0  0  0  0  0  0  0  0  0  0  0  0
  198.0399  183.2474  149.9398 H   0  0  0  0  0  0  0  0  0  0  0  0
  199.1107  181.6595  148.3792 H   0  0  0  0  0  0  0  0  0  0  0  0
  197.0080  178.3998  150.2873 H   0  0  0  0  0  0  0  0  0  0  0  0
  195.8579  179.9944  151.7609 H   0  0  0  0  0  0  0  0  0  0  0  0
  199.7208  179.3182  147.9071 H   0  0  0  0  0  0  0  0  0  0  0  0
  199.0224  177.9871  148.7904 H   0  0  0  0  0  0  0  0  0  0  0  0
  196.7234  177.1006  147.9956 H   0  0  0  0  0  0  0  0  0  0  0  0
  196.0145  177.7751  146.5173 H   0  0  0  0  0  0  0  0  0  0  0  0
  195.9655  178.6985  147.9900 H   0  0  0  0  0  0  0  0  0  0  0  0
  198.9017  176.7794  146.5346 H   0  0  0  0  0  0  0  0  0  0  0  0
  199.5283  178.2173  145.7190 H   0  0  0  0  0  0  0  0  0  0  0  0
  197.9833  177.5304  145.2340 H   0  0  0  0  0  0  0  0  0  0  0  0
  198.5137  179.6497  156.4052 H   0  0  0  0  0  0  0  0  0  0  0  0
  197.8493  179.0861  154.8754 H   0  0  0  0  0  0  0  0  0  0  0  0
  196.7817  179.7174  156.1245 H   0  0  0  0  0  0  0  0  0  0  0  0
  200.7113  182.5487  155.9041 H   0  0  0  0  0  0  0  0  0  0  0  0
  200.6708  184.2646  156.2844 H   0  0  0  0  0  0  0  0  0  0  0  0
  200.0276  183.6957  154.7492 H   0  0  0  0  0  0  0  0  0  0  0  0
  194.5574  183.5708  158.6834 H   0  0  0  0  0  0  0  0  0  0  0  0
  193.3173  184.8175  160.2489 H   0  0  0  0  0  0  0  0  0  0  0  0
  192.4429  187.4820  162.6167 H   0  0  0  0  0  0  0  0  0  0  0  0
  192.7449  185.7796  162.2840 H   0  0  0  0  0  0  0  0  0  0  0  0
  192.3394  186.8926  160.9480 H   0  0  0  0  0  0  0  0  0  0  0  0
  196.7392  187.4037  160.9489 H   0  0  0  0  0  0  0  0  0  0  0  0
  198.0464  186.0529  159.3322 H   0  0  0  0  0  0  0  0  0  0  0  0
  195.9397  181.5029  154.4893 H   0  0  0  0  0  0  0  0  0  0  0  0
  197.7377  179.4653  146.6031 H   0  0  0  0  0  0  0  0  0  0  0  0
  1  2  1  0
  1  5  1  0
  2  3  2  0
  2 22  1  0
  3  4  1  0
  4  5  2  0
  4 21  1  0
  5  6  1  0
  6  7  1  0
  6 20  1  0
  6 31  1  6
  7  8  1  0
  7 30  1  6
  7 61  1  0
  8  9  1  0
  8 32  1  1
  8 33  1  0
  9 10  1  0
  9 34  1  1
  9 35  1  0
 10 11  1  0
 10 15  2  0
 11 12  2  0
 11 36  1  0
 12 13  1  0
 12 37  1  0
 13 14  2  0
 13 16  1  0
 14 15  1  0
 14 38  1  0
 15 39  1  0
 16 17  1  0
 16 40  1  6
 16 41  1  0
 17 18  1  0
 17 19  1  0
 17 62  1  6
 18 42  1  1
 18 43  1  0
 18 44  1  0
 19 45  1  1
 19 46  1  0
 19 47  1  0
 20 48  1  1
 20 49  1  0
 20 50  1  0
 21 51  1  6
 21 52  1  0
 21 53  1  0
 22 23  1  0
 22 29  2  0
 23 24  2  0
 23 54  1  0
 24 25  1  0
 24 55  1  0
 25 26  1  0
 25 28  2  0
 26 27  1  0
 27 56  1  1
 27 57  1  0
 27 58  1  0
 28 29  1  0
 28 59  1  0
 29 60  1  0
M  CHG  2   7   1  17   1
M  END
>  <s_epik_cmdline>  (173) 
J2VwaWtfcHl0aG9uJywgJy1waCcsICc3LjAwMDAwMCcsICctcGh0JywgJzIuMDAwMDAwJywgJy1tcycsICcxNicsICctdG4nLCAnOCcsICctbWEnLCAnMjAwJywgJy1pbWFlJywgJzxpbmZpbGUubWFlPicsICctb21hZScsICc8b3V0ZmlsZS5tYWU+Jw==

>  <s_epik_input>  (173) 
W0NIM11PYyhbY0hdW2NIXTEpW2NIXVtjSF1jMS1jMnNjKGMobjIpW0NIM10pW0NAQEhdKFtDSDNdKVtOSF1bQ0gyXVtDSDJdYzNbY0hdW2NIXWMoW2NIXVtjSF0zKVtDSDJdTihbQ0gzXSlbQ0gzXQ==

>  <s_i_glide_gridfile>  (173) 
ATP-Grid

>  <s_lp_Force_Field>  (173) 
OPLS_2005

>  <s_lp_Variant>  (173) 
m_269862bba____15775646____7201246-1

>  <s_lp_label>  (173) 
1271_sdstereoexpander_1_neutralizer_1_epik_1_stereoizer_1

>  <s_m_source_file>  (173) 
ATP-VSW-LIGPREP-002-in.maegz

>  <s_sd_BIOSOLVEIT.INFINISEE\_QUERY\_NAME>  (173) 
Ref-Lig

>  <s_sd_BIOSOLVEIT.INFINISEE\_QUERY\_SMILES>  (173) 
S(c1nc2c(cc1C[NH2+]Cc3ccc(cc3)C[NH+](C)C)cccc2)Cc4ccccc4

>  <s_sd_BIOSOLVEIT.INFINISEE\_REACTION\_NAME>  (173) 
m_269862bba

>  <s_sd_BIOSOLVEIT.INFINISEE\_REAGENT1\_SMILES>  (173) 
[R1*]NCCc1ccc(cc1)CN(C)C

>  <s_sd_BIOSOLVEIT.INFINISEE\_REAGENT2\_SMILES>  (173) 
[R1*]C(C=1SC(=NC1C)c2ccc(OC)cc2)C

>  <s_sd_BIOSOLVEIT.INFINISEE\_SPACE>  (173) 
REALSpace_44bn_2023-08

>  <s_vsw_compound_code>  (173) 
40642

>  <s_vsw_variant>  (173) 
40642-1

>  <r_epik_Charging_Adjusted_Penalty>  (173) 
0.181241996157472

>  <r_epik_Ionization_Penalty>  (173) 
0.090800000000000006

>  <r_epik_Ionization_Penalty_Charging>  (173) 
0.090800000000000006

>  <r_epik_Ionization_Penalty_Neutral>  (173) 
0

>  <r_epik_State_Penalty>  (173) 
0.090399999999999994

>  <r_i_docking_score>  (173) 
-4.5337222389766803

>  <r_i_glide_ecoul>  (173) 
-8.3917627334594709

>  <r_i_glide_eff_state_penalty>  (173) 
0.090399999999999994

>  <r_i_glide_einternal>  (173) 
7.5572042465209996

>  <r_i_glide_emodel>  (173) 
-56.624605343337102

>  <r_i_glide_energy>  (173) 
-42.8422403335571

>  <r_i_glide_erotb>  (173) 
0.81442293828699996

>  <r_i_glide_esite>  (173) 
-0.031962817409146901

>  <r_i_glide_evdw>  (173) 
-34.450477600097699

>  <r_i_glide_gscore>  (173) 
-4.6241222389766801

>  <r_i_glide_hbond>  (173) 
0

>  <r_i_glide_ligand_efficiency>  (173) 
-0.15633524961988601

>  <r_i_glide_ligand_efficiency_ln>  (173) 
-1.03810742744916

>  <r_i_glide_ligand_efficiency_sa>  (173) 
-0.48031141731585503

>  <r_i_glide_lipo>  (173) 
-1.82259625164892

>  <r_i_glide_metal>  (173) 
-0

>  <r_i_glide_rewards>  (173) 
-0.602697818181816

>  <r_lp_Energy>  (173) 
16.362770000000001

>  <r_lp_tautomer_probability>  (173) 
1

>  <r_qp_ACxDN^.5/SA>  (173) 
0.0086405000000000006

>  <r_qp_CIQPlogS>  (173) 
-4.165

>  <r_qp_EA(eV)>  (173) 
0.95899999999999996

>  <r_qp_FISA>  (173) 
19.984999999999999

>  <r_qp_FOSA>  (173) 
453.81799999999998

>  <r_qp_IP(eV)>  (173) 
8.8859999999999992

>  <r_qp_Jm>  (173) 
0.026181162241852601

>  <r_qp_PISA>  (173) 
180.666

>  <r_qp_PSA>  (173) 
36.828000000000003

>  <r_qp_PercentHumanOralAbsorption>  (173) 
100

>  <r_qp_QPPCaco>  (173) 
398.27800000000002

>  <r_qp_QPPMDCK>  (173) 
257.178

>  <r_qp_QPlogBB>  (173) 
0.73499999999999999

>  <r_qp_QPlogHERG>  (173) 
-5.7380000000000004

>  <r_qp_QPlogKhsa>  (173) 
0.81899999999999995

>  <r_qp_QPlogKp>  (173) 
-4.609

>  <r_qp_QPlogPC16>  (173) 
12.339

>  <r_qp_QPlogPo/w>  (173) 
4.3780000000000001

>  <r_qp_QPlogPoct>  (173) 
18.77

>  <r_qp_QPlogPw>  (173) 
8.0530000000000008

>  <r_qp_QPlogS>  (173) 
-2.5859999999999999

>  <r_qp_QPpolrz>  (173) 
44.042000000000002

>  <r_qp_SASA>  (173) 
665.47199999999998

>  <r_qp_SAamideO>  (173) 
0

>  <r_qp_SAfluorine>  (173) 
0

>  <r_qp_WPSA>  (173) 
11.003

>  <r_qp_accptHB>  (173) 
5.75

>  <r_qp_dip^2/V>  (173) 
0.0028289000000000001

>  <r_qp_dipole>  (173) 
1.9470000000000001

>  <r_qp_donorHB>  (173) 
1

>  <r_qp_glob>  (173) 
0.88308019999999998

>  <r_qp_mol_MW>  (173) 
409.58800000000002

>  <r_qp_volume>  (173) 
1339.5129999999999

>  <r_sd_BIOSOLVEIT.INFINISEE\_FTREES\_SIMILARITY>  (173) 
0.91000000000000003

>  <r_sd_BIOSOLVEIT.LOGP>  (173) 
2.6387200000000002

>  <r_sd_BIOSOLVEIT.MOLECULAR\_WEIGHT>  (173) 
411.61000000000001

>  <r_sd_BIOSOLVEIT.TPSA>  (173) 
43.170000000000002

>  <i_epik_Tot_Q>  (173) 
2

>  <i_epik_Tot_abs_Q>  (173) 
2

>  <i_f3d_flags>  (173) 
0

>  <i_i_glide_confnum>  (173) 
6

>  <i_i_glide_lignum>  (173) 
440

>  <i_i_glide_posenum>  (173) 
1

>  <i_i_glide_rotatable_bonds>  (173) 
9

>  <i_lp_mmshare_version>  (173) 
65135

>  <i_m_ct_format>  (173) 
2

>  <i_m_source_file_index>  (173) 
1271

>  <i_qp_#NandO>  (173) 
4

>  <i_qp_#acid>  (173) 
0

>  <i_qp_#amide>  (173) 
0

>  <i_qp_#amidine>  (173) 
0

>  <i_qp_#amine>  (173) 
2

>  <i_qp_#in34>  (173) 
0

>  <i_qp_#in56>  (173) 
17

>  <i_qp_#metab>  (173) 
8

>  <i_qp_#nonHatm>  (173) 
29

>  <i_qp_#noncon>  (173) 
0

>  <i_qp_#ringatoms>  (173) 
17

>  <i_qp_#rotor>  (173) 
8

>  <i_qp_#rtvFG>  (173) 
0

>  <i_qp_#stars>  (173) 
0

>  <i_qp_CNS>  (173) 
2

>  <i_qp_HumanOralAbsorption>  (173) 
3

>  <i_qp_RuleOfFive>  (173) 
0

>  <i_qp_RuleOfThree>  (173) 
1

>  <i_sd_BIOSOLVEIT.INFINISEE\_REAGENT1\_NAME>  (173) 
15775646

>  <i_sd_BIOSOLVEIT.INFINISEE\_REAGENT2\_NAME>  (173) 
7201246

>  <i_sd_BIOSOLVEIT.INFINISEE\_RESULT\_RANK>  (173) 
44806

>  <i_sd_version>  (173) 
0

>  <b_lp_Chiralities_Consistent>  (173) 
1

>  <b_sd_chiral_flag>  (173) 
0

>  <canonical_id>  (173) 
ATP-HTVS-1B05407455E5

>  <compound_code>  (173) 
40642

>  <title>  (173) 
m_269862bba____15775646____7201246

>  <variant>  (173) 
40642-1

>  <source_file>  (173) 
运行/运行/ATP-VSW/ATP-VSW-DOCK_HTVS_1-002_lib.maegz

>  <canonical_smiles>  (173) 
COc1ccc(-c2nc(C)c([C@@H](C)[NH2+]CCc3ccc(C[NH+](C)C)cc3)s2)cc1

>  <scaffold>  (173) 
c1ccc(CC[NH2+]Cc2cnc(-c3ccccc3)s2)cc1

>  <molecular_formula>  (173) 
C24H33N3OS+2

$$$$
ATP-HTVS-1B1248DF0721
     RDKit          3D

 65 68  0  0  0  0  0  0  0  0999 V2000
  201.1162  180.5324  155.3275 O   0  0  0  0  0  0  0  0  0  0  0  0
  200.2716  179.7775  155.8144 C   0  0  0  0  0  0  0  0  0  0  0  0
  199.0977  180.2081  156.3116 N   0  0  0  0  0  0  0  0  0  0  0  0
  198.6664  181.5572  156.3175 C   0  0  0  0  0  0  0  0  0  0  0  0
  199.0172  182.3824  157.3312 N   0  0  0  0  0  0  0  0  0  0  0  0
  198.5188  183.6336  157.3847 C   0  0  0  0  0  0  0  0  0  0  0  0
  197.6666  184.1363  156.3706 C   0  0  0  0  0  0  0  0  0  0  0  0
  197.3125  183.2950  155.3005 C   0  0  0  0  0  0  0  0  0  0  0  0
  197.8120  181.9766  155.2655 C   0  0  0  0  0  0  0  0  0  0  0  0
  197.5015  181.0907  154.2186 N   0  0  0  0  0  0  0  0  0  0  0  0
  196.8886  181.5469  152.9792 C   0  0  1  0  0  0  0  0  0  0  0  0
  197.3005  180.7207  151.7787 C   0  0  0  0  0  0  0  0  0  0  0  0
  196.3462  180.3375  150.8181 C   0  0  0  0  0  0  0  0  0  0  0  0
  196.7347  179.5855  149.6915 C   0  0  0  0  0  0  0  0  0  0  0  0
  198.0853  179.2148  149.5210 C   0  0  0  0  0  0  0  0  0  0  0  0
  199.0450  179.6173  150.4749 C   0  0  0  0  0  0  0  0  0  0  0  0
  198.6530  180.3650  151.5989 C   0  0  0  0  0  0  0  0  0  0  0  0
  198.5113  178.3610  148.3404 C   0  0  1  0  0  0  0  0  0  0  0  0
  198.3151  176.9096  148.5956 N   0  0  1  0  0  0  0  0  0  0  0  0
  198.6009  176.1047  147.3918 C   0  0  2  0  0  0  0  0  0  0  0  0
  199.0444  176.3971  149.7827 C   0  0  2  0  0  0  0  0  0  0  0  0
  197.1660  185.4515  156.4262 C   0  0  0  0  0  0  0  0  0  0  0  0
  197.4926  186.2824  157.5105 C   0  0  0  0  0  0  0  0  0  0  0  0
  198.3190  185.7927  158.5366 C   0  0  0  0  0  0  0  0  0  0  0  0
  198.8274  184.4808  158.4689 C   0  0  0  0  0  0  0  0  0  0  0  0
  200.5186  178.2611  155.8507 C   0  0  2  0  0  0  0  0  0  0  0  0
  200.6494  177.7996  157.2452 C   0  0  0  0  0  0  0  0  0  0  0  0
  200.7465  177.4386  158.3386 N   0  0  0  0  0  0  0  0  0  0  0  0
  201.7056  177.7917  154.9715 C   0  0  1  0  0  0  0  0  0  0  0  0
  201.7249  176.2839  154.7471 C   0  0  0  0  0  0  0  0  0  0  0  0
  201.1342  175.7277  153.5915 C   0  0  0  0  0  0  0  0  0  0  0  0
  201.1543  174.3337  153.3813 C   0  0  0  0  0  0  0  0  0  0  0  0
  201.7683  173.4880  154.3267 C   0  0  0  0  0  0  0  0  0  0  0  0
  202.3658  174.0402  155.4758 C   0  0  0  0  0  0  0  0  0  0  0  0
  202.3357  175.4309  155.6913 C   0  0  0  0  0  0  0  0  0  0  0  0
  198.4479  179.5292  156.6921 H   0  0  0  0  0  0  0  0  0  0  0  0
  196.6302  183.6650  154.5455 H   0  0  0  0  0  0  0  0  0  0  0  0
  197.8707  180.1497  154.2465 H   0  0  0  0  0  0  0  0  0  0  0  0
  195.8095  181.5105  153.1070 H   0  0  0  0  0  0  0  0  0  0  0  0
  197.1480  182.5794  152.7437 H   0  0  0  0  0  0  0  0  0  0  0  0
  195.3130  180.6211  150.9491 H   0  0  0  0  0  0  0  0  0  0  0  0
  195.9849  179.2927  148.9685 H   0  0  0  0  0  0  0  0  0  0  0  0
  200.0845  179.3417  150.3604 H   0  0  0  0  0  0  0  0  0  0  0  0
  199.3982  180.6619  152.3252 H   0  0  0  0  0  0  0  0  0  0  0  0
  197.9350  178.6708  147.4660 H   0  0  0  0  0  0  0  0  0  0  0  0
  199.5578  178.5543  148.0971 H   0  0  0  0  0  0  0  0  0  0  0  0
  199.6385  176.2151  147.0709 H   0  0  0  0  0  0  0  0  0  0  0  0
  197.9496  176.4310  146.5800 H   0  0  0  0  0  0  0  0  0  0  0  0
  198.4126  175.0464  147.5816 H   0  0  0  0  0  0  0  0  0  0  0  0
  200.1188  176.5231  149.6518 H   0  0  0  0  0  0  0  0  0  0  0  0
  198.8446  175.3374  149.9378 H   0  0  0  0  0  0  0  0  0  0  0  0
  198.7509  176.9058  150.7007 H   0  0  0  0  0  0  0  0  0  0  0  0
  196.5407  185.8397  155.6341 H   0  0  0  0  0  0  0  0  0  0  0  0
  197.1155  187.2927  157.5542 H   0  0  0  0  0  0  0  0  0  0  0  0
  198.5780  186.4332  159.3673 H   0  0  0  0  0  0  0  0  0  0  0  0
  199.4599  184.1084  159.2619 H   0  0  0  0  0  0  0  0  0  0  0  0
  199.6107  177.8039  155.4566 H   0  0  0  0  0  0  0  0  0  0  0  0
  201.6780  178.2757  153.9935 H   0  0  0  0  0  0  0  0  0  0  0  0
  202.6526  178.0880  155.4290 H   0  0  0  0  0  0  0  0  0  0  0  0
  200.6640  176.3698  152.8619 H   0  0  0  0  0  0  0  0  0  0  0  0
  200.6958  173.9104  152.4991 H   0  0  0  0  0  0  0  0  0  0  0  0
  201.7834  172.4162  154.1747 H   0  0  0  0  0  0  0  0  0  0  0  0
  202.8309  173.3913  156.2031 H   0  0  0  0  0  0  0  0  0  0  0  0
  202.7792  175.8381  156.5875 H   0  0  0  0  0  0  0  0  0  0  0  0
  197.3299  176.7876  148.7789 H   0  0  0  0  0  0  0  0  0  0  0  0
  1  2  2  0
  2  3  1  0
  2 26  1  0
  3  4  1  0
  3 36  1  0
  4  5  2  0
  4  9  1  0
  5  6  1  0
  6  7  1  0
  6 25  2  0
  7  8  1  0
  7 22  2  0
  8  9  2  0
  8 37  1  0
  9 10  1  0
 10 11  1  0
 10 38  1  0
 11 12  1  0
 11 39  1  1
 11 40  1  0
 12 13  1  0
 12 17  2  0
 13 14  2  0
 13 41  1  0
 14 15  1  0
 14 42  1  0
 15 16  2  0
 15 18  1  0
 16 17  1  0
 16 43  1  0
 17 44  1  0
 18 19  1  0
 18 45  1  6
 18 46  1  0
 19 20  1  0
 19 21  1  0
 19 65  1  1
 20 47  1  6
 20 48  1  0
 20 49  1  0
 21 50  1  6
 21 51  1  0
 21 52  1  0
 22 23  1  0
 22 53  1  0
 23 24  2  0
 23 54  1  0
 24 25  1  0
 24 55  1  0
 25 56  1  0
 26 27  1  0
 26 29  1  0
 26 57  1  6
 27 28  3  0
 29 30  1  0
 29 58  1  6
 29 59  1  0
 30 31  2  0
 30 35  1  0
 31 32  1  0
 31 60  1  0
 32 33  2  0
 32 61  1  0
 33 34  1  0
 33 62  1  0
 34 35  2  0
 34 63  1  0
 35 64  1  0
M  CHG  1  19   1
M  END
>  <s_epik_cmdline>  (174) 
J2VwaWtfcHl0aG9uJywgJy1waCcsICc3LjAwMDAwMCcsICctcGh0JywgJzIuMDAwMDAwJywgJy1tcycsICcxNicsICctdG4nLCAnOCcsICctbWEnLCAnMjAwJywgJy1pbWFlJywgJzxpbmZpbGUubWFlPicsICctb21hZScsICc8b3V0ZmlsZS5tYWU+Jw==

>  <s_epik_input>  (174) 
W2NIXTFbY0hdW2NIXVtjSF1bY0hdYzFbQ0gyXVtDQEBIXShDI04pQyg9TylbTkhdYyhuMiljKFtjSF1jKGMyMylbY0hdW2NIXVtjSF1bY0hdMylbTkhdW0NIMl1jNFtjSF1bY0hdYyhbY0hdW2NIXTQpW0NIMl1OKFtDSDNdKVtDSDNd

>  <s_i_glide_gridfile>  (174) 
ATP-Grid

>  <s_lp_Force_Field>  (174) 
OPLS_2005

>  <s_lp_Variant>  (174) 
rxn502b____EMOL1843611____EMOL44466703____EMOL50155899-2

>  <s_lp_label>  (174) 
2233_sdstereoexpander_2_neutralizer_1_epik_1_stereoizer_1

>  <s_m_source_file>  (174) 
ATP-VSW-LIGPREP-002-in.maegz

>  <s_sd_BIOSOLVEIT.INFINISEE\_QUERY\_NAME>  (174) 
Ref-Lig

>  <s_sd_BIOSOLVEIT.INFINISEE\_QUERY\_SMILES>  (174) 
S(c1nc2c(cc1C[NH2+]Cc3ccc(cc3)C[NH+](C)C)cccc2)Cc4ccccc4

>  <s_sd_BIOSOLVEIT.INFINISEE\_REACTION\_NAME>  (174) 
rxn502b

>  <s_sd_BIOSOLVEIT.INFINISEE\_REAGENT1\_NAME>  (174) 
EMOL1843611

>  <s_sd_BIOSOLVEIT.INFINISEE\_REAGENT1\_SMILES>  (174) 
O=C(O)C(C#N)Cc1ccccc1

>  <s_sd_BIOSOLVEIT.INFINISEE\_REAGENT2\_NAME>  (174) 
EMOL44466703

>  <s_sd_BIOSOLVEIT.INFINISEE\_REAGENT2\_SMILES>  (174) 
Brc1c(nc2c(c1)cccc2)N

>  <s_sd_BIOSOLVEIT.INFINISEE\_REAGENT3\_NAME>  (174) 
EMOL50155899

>  <s_sd_BIOSOLVEIT.INFINISEE\_REAGENT3\_SMILES>  (174) 
N(Cc1ccc(cc1)CN)(C)C

>  <s_sd_BIOSOLVEIT.INFINISEE\_SPACE>  (174) 
eXplore_7tr_2022-12

>  <s_vsw_compound_code>  (174) 
71426

>  <s_vsw_variant>  (174) 
71426-2

>  <r_epik_Charging_Adjusted_Penalty>  (174) 
0.078407994868761793

>  <r_epik_Ionization_Penalty>  (174) 
0.041000000000000002

>  <r_epik_Ionization_Penalty_Charging>  (174) 
0.039199999999999999

>  <r_epik_Ionization_Penalty_Neutral>  (174) 
0.0018

>  <r_epik_State_Penalty>  (174) 
0.039199999999999999

>  <r_i_docking_score>  (174) 
-4.0356734154000904

>  <r_i_glide_ecoul>  (174) 
-7.3229856491088903

>  <r_i_glide_eff_state_penalty>  (174) 
0.039199999999999999

>  <r_i_glide_einternal>  (174) 
8.6584110260009801

>  <r_i_glide_emodel>  (174) 
-51.346382579393001

>  <r_i_glide_energy>  (174) 
-42.910601615905797

>  <r_i_glide_erotb>  (174) 
0.74725303334368698

>  <r_i_glide_esite>  (174) 
-0.089763346062784605

>  <r_i_glide_evdw>  (174) 
-35.587615966796903

>  <r_i_glide_gscore>  (174) 
-4.0748734154000896

>  <r_i_glide_hbond>  (174) 
0

>  <r_i_glide_ligand_efficiency>  (174) 
-0.115304954725717

>  <r_i_glide_ligand_efficiency_ln>  (174) 
-0.88591988162603497

>  <r_i_glide_ligand_efficiency_sa>  (174) 
-0.37717015235412299

>  <r_i_glide_lipo>  (174) 
-1.61304400242936

>  <r_i_glide_metal>  (174) 
-0

>  <r_i_glide_rewards>  (174) 
-0.24149045454545401

>  <r_lp_Energy>  (174) 
29.958621000000001

>  <r_qp_ACxDN^.5/SA>  (174) 
0.012808099999999999

>  <r_qp_CIQPlogS>  (174) 
-6.6639999999999997

>  <r_qp_EA(eV)>  (174) 
0.85499999999999998

>  <r_qp_FISA>  (174) 
120.277

>  <r_qp_FOSA>  (174) 
243.40600000000001

>  <r_qp_IP(eV)>  (174) 
8.3040000000000003

>  <r_qp_Jm>  (174) 
1.8238716499131799e-05

>  <r_qp_PISA>  (174) 
519.63900000000001

>  <r_qp_PSA>  (174) 
87.037000000000006

>  <r_qp_PercentHumanOralAbsorption>  (174) 
96.444000000000003

>  <r_qp_QPPCaco>  (174) 
178.73599999999999

>  <r_qp_QPPMDCK>  (174) 
85.105999999999995

>  <r_qp_QPlogBB>  (174) 
-1.083

>  <r_qp_QPlogHERG>  (174) 
-8.8529999999999998

>  <r_qp_QPlogKhsa>  (174) 
0.85299999999999998

>  <r_qp_QPlogKp>  (174) 
-3.008

>  <r_qp_QPlogPC16>  (174) 
18.361000000000001

>  <r_qp_QPlogPo/w>  (174) 
4.9850000000000003

>  <r_qp_QPlogPoct>  (174) 
26.776

>  <r_qp_QPlogPw>  (174) 
14.801

>  <r_qp_QPlogS>  (174) 
-7.3970000000000002

>  <r_qp_QPpolrz>  (174) 
55.991

>  <r_qp_SASA>  (174) 
883.322

>  <r_qp_SAamideO>  (174) 
0

>  <r_qp_SAfluorine>  (174) 
0

>  <r_qp_WPSA>  (174) 
0

>  <r_qp_accptHB>  (174) 
8

>  <r_qp_dip^2/V>  (174) 
0.058999299999999998

>  <r_qp_dipole>  (174) 
9.6829999999999998

>  <r_qp_donorHB>  (174) 
2

>  <r_qp_glob>  (174) 
0.74561599999999995

>  <r_qp_mol_MW>  (174) 
463.58100000000002

>  <r_qp_volume>  (174) 
1589.2929999999999

>  <r_sd_BIOSOLVEIT.INFINISEE\_FTREES\_SIMILARITY>  (174) 
0.92800000000000005

>  <r_sd_BIOSOLVEIT.LOGP>  (174) 
3.8123800000000001

>  <r_sd_BIOSOLVEIT.MOLECULAR\_WEIGHT>  (174) 
464.58999999999997

>  <r_sd_BIOSOLVEIT.TPSA>  (174) 
82.25

>  <i_epik_Tot_Q>  (174) 
1

>  <i_epik_Tot_abs_Q>  (174) 
1

>  <i_f3d_flags>  (174) 
0

>  <i_i_glide_confnum>  (174) 
2

>  <i_i_glide_lignum>  (174) 
873

>  <i_i_glide_posenum>  (174) 
4

>  <i_i_glide_rotatable_bonds>  (174) 
10

>  <i_lp_mmshare_version>  (174) 
65135

>  <i_m_ct_format>  (174) 
2

>  <i_m_source_file_index>  (174) 
2233

>  <i_qp_#NandO>  (174) 
6

>  <i_qp_#acid>  (174) 
0

>  <i_qp_#amide>  (174) 
0

>  <i_qp_#amidine>  (174) 
0

>  <i_qp_#amine>  (174) 
1

>  <i_qp_#in34>  (174) 
0

>  <i_qp_#in56>  (174) 
22

>  <i_qp_#metab>  (174) 
7

>  <i_qp_#nonHatm>  (174) 
35

>  <i_qp_#noncon>  (174) 
0

>  <i_qp_#ringatoms>  (174) 
22

>  <i_qp_#rotor>  (174) 
10

>  <i_qp_#rtvFG>  (174) 
0

>  <i_qp_#stars>  (174) 
4

>  <i_qp_CNS>  (174) 
-2

>  <i_qp_HumanOralAbsorption>  (174) 
1

>  <i_qp_RuleOfFive>  (174) 
0

>  <i_qp_RuleOfThree>  (174) 
2

>  <i_sd_BIOSOLVEIT.INFINISEE\_RESULT\_RANK>  (174) 
6238

>  <i_sd_version>  (174) 
0

>  <b_lp_Chiralities_Consistent>  (174) 
1

>  <b_sd_chiral_flag>  (174) 
0

>  <canonical_id>  (174) 
ATP-HTVS-1B1248DF0721

>  <compound_code>  (174) 
71426

>  <title>  (174) 
rxn502b____EMOL1843611____EMOL44466703____EMOL50155899

>  <variant>  (174) 
71426-2

>  <source_file>  (174) 
运行/运行/ATP-VSW/ATP-VSW-DOCK_HTVS_1-002_lib.maegz

>  <canonical_smiles>  (174) 
C[NH+](C)Cc1ccc(CNc2cc3ccccc3nc2NC(=O)[C@H](C#N)Cc2ccccc2)cc1

>  <scaffold>  (174) 
O=C(CCc1ccccc1)Nc1nc2ccccc2cc1NCc1ccccc1

>  <molecular_formula>  (174) 
C29H30N5O+

$$$$
ATP-HTVS-1B366D2FDBBA
     RDKit          3D

 65 68  0  0  0  0  0  0  0  0999 V2000
  199.5625  176.6382  146.6262 F   0  0  0  0  0  0  0  0  0  0  0  0
  199.0150  177.2939  147.6905 C   0  0  0  0  0  0  0  0  0  0  0  0
  199.3547  176.9126  149.0082 C   0  0  0  0  0  0  0  0  0  0  0  0
  198.8100  177.5918  150.1316 C   0  0  0  0  0  0  0  0  0  0  0  0
  197.8945  178.6722  149.9312 C   0  0  0  0  0  0  0  0  0  0  0  0
  197.5781  179.0360  148.6053 C   0  0  0  0  0  0  0  0  0  0  0  0
  198.1215  178.3620  147.4883 C   0  0  0  0  0  0  0  0  0  0  0  0
  197.1888  179.4518  151.0072 C   0  0  0  0  0  0  0  0  0  0  0  0
  196.8278  179.0226  152.1334 O   0  0  0  0  0  0  0  0  0  0  0  0
  196.9769  180.7323  150.6649 O   0  0  0  0  0  0  0  0  0  0  0  0
  196.3606  181.6294  151.5740 C   0  0  2  0  0  0  0  0  0  0  0  0
  199.1883  177.0355  151.4865 C   0  0  0  0  0  0  0  0  0  0  0  0
  199.0757  175.8310  151.6712 O   0  0  0  0  0  0  0  0  0  0  0  0
  199.6657  177.9045  152.4068 N   0  0  0  0  0  0  0  0  0  0  0  0
  200.0265  177.5693  153.7623 C   0  0  0  0  0  0  0  0  0  0  0  0
  199.3439  178.1703  154.8621 C   0  0  0  0  0  0  0  0  0  0  0  0
  198.2633  179.0513  154.7669 N   0  0  0  0  0  0  0  0  0  0  0  0
  198.4957  180.4102  154.3387 C   0  0  1  0  0  0  0  0  0  0  0  0
  198.0741  181.5694  155.2353 C   0  0  0  0  0  0  0  0  0  0  0  0
  197.1986  181.3974  156.3223 C   0  0  0  0  0  0  0  0  0  0  0  0
  196.8571  182.4813  157.1643 C   0  0  0  0  0  0  0  0  0  0  0  0
  197.3825  183.7692  156.8982 C   0  0  0  0  0  0  0  0  0  0  0  0
  198.2236  183.9503  155.7836 C   0  0  0  0  0  0  0  0  0  0  0  0
  198.5658  182.8571  154.9637 C   0  0  0  0  0  0  0  0  0  0  0  0
  195.9777  182.2668  158.3862 C   0  0  1  0  0  0  0  0  0  0  0  0
  194.5452  182.6076  158.1396 N   0  0  2  0  0  0  0  0  0  0  0  0
  194.0973  183.7969  158.8808 C   0  0  2  0  0  0  0  0  0  0  0  0
  193.6444  181.4500  158.3001 C   0  0  2  0  0  0  0  0  0  0  0  0
  199.6898  177.8013  156.1728 C   0  0  0  0  0  0  0  0  0  0  0  0
  200.6795  176.9225  156.3955 N   0  0  0  0  0  0  0  0  0  0  0  0
  201.3801  176.3303  155.4065 C   0  0  0  0  0  0  0  0  0  0  0  0
  201.0733  176.6359  154.0463 C   0  0  0  0  0  0  0  0  0  0  0  0
  201.8360  175.9839  153.0422 C   0  0  0  0  0  0  0  0  0  0  0  0
  202.8326  175.0420  153.3727 C   0  0  0  0  0  0  0  0  0  0  0  0
  203.1257  174.7645  154.7198 C   0  0  0  0  0  0  0  0  0  0  0  0
  202.3985  175.4070  155.7373 C   0  0  0  0  0  0  0  0  0  0  0  0
  200.0250  176.0722  149.1403 H   0  0  0  0  0  0  0  0  0  0  0  0
  196.8854  179.8208  148.3951 H   0  0  0  0  0  0  0  0  0  0  0  0
  197.8205  178.6401  146.4897 H   0  0  0  0  0  0  0  0  0  0  0  0
  195.9922  182.4927  151.0309 H   0  0  0  0  0  0  0  0  0  0  0  0
  197.0770  181.9817  152.3097 H   0  0  0  0  0  0  0  0  0  0  0  0
  195.5319  181.1574  152.0922 H   0  0  0  0  0  0  0  0  0  0  0  0
  197.5704  178.9890  155.5141 H   0  0  0  0  0  0  0  0  0  0  0  0
  199.5262  180.5612  153.9841 H   0  0  0  0  0  0  0  0  0  0  0  0
  197.8429  180.4469  153.4168 H   0  0  0  0  0  0  0  0  0  0  0  0
  196.7734  180.4343  156.5315 H   0  0  0  0  0  0  0  0  0  0  0  0
  197.1754  184.6089  157.5576 H   0  0  0  0  0  0  0  0  0  0  0  0
  198.6314  184.9387  155.5683 H   0  0  0  0  0  0  0  0  0  0  0  0
  199.1929  183.0215  154.1013 H   0  0  0  0  0  0  0  0  0  0  0  0
  196.0892  181.2328  158.7238 H   0  0  0  0  0  0  0  0  0  0  0  0
  196.3877  182.8556  159.2202 H   0  0  0  0  0  0  0  0  0  0  0  0
  194.1815  183.6440  159.9602 H   0  0  0  0  0  0  0  0  0  0  0  0
  193.0567  184.0293  158.6620 H   0  0  0  0  0  0  0  0  0  0  0  0
  194.6920  184.6770  158.6294 H   0  0  0  0  0  0  0  0  0  0  0  0
  193.6568  181.0869  159.3332 H   0  0  0  0  0  0  0  0  0  0  0  0
  193.9413  180.6365  157.6391 H   0  0  0  0  0  0  0  0  0  0  0  0
  192.6278  181.7269  158.0225 H   0  0  0  0  0  0  0  0  0  0  0  0
  199.1799  178.1824  157.0432 H   0  0  0  0  0  0  0  0  0  0  0  0
  201.6794  176.1645  151.9912 H   0  0  0  0  0  0  0  0  0  0  0  0
  203.3683  174.5393  152.5772 H   0  0  0  0  0  0  0  0  0  0  0  0
  203.9063  174.0560  154.9557 H   0  0  0  0  0  0  0  0  0  0  0  0
  202.6504  175.2020  156.7696 H   0  0  0  0  0  0  0  0  0  0  0  0
  194.4526  182.8208  157.1349 H   0  0  0  0  0  0  0  0  0  0  0  0
  199.6983  178.8781  152.1620 H   0  0  0  0  0  0  0  0  0  0  0  0
  200.8931  176.6798  157.3651 H   0  0  0  0  0  0  0  0  0  0  0  0
  1  2  1  0
  2  3  2  0
  2  7  1  0
  3  4  1  0
  3 37  1  0
  4  5  2  0
  4 12  1  0
  5  6  1  0
  5  8  1  0
  6  7  2  0
  6 38  1  0
  7 39  1  0
  8  9  2  0
  8 10  1  0
 10 11  1  0
 11 40  1  6
 11 41  1  0
 11 42  1  0
 12 13  2  0
 12 14  1  0
 14 15  1  0
 14 64  1  0
 15 16  2  0
 15 32  1  0
 16 17  1  0
 16 29  1  0
 17 18  1  0
 17 43  1  0
 18 19  1  0
 18 44  1  6
 18 45  1  0
 19 20  2  0
 19 24  1  0
 20 21  1  0
 20 46  1  0
 21 22  2  0
 21 25  1  0
 22 23  1  0
 22 47  1  0
 23 24  2  0
 23 48  1  0
 24 49  1  0
 25 26  1  0
 25 50  1  1
 25 51  1  0
 26 27  1  0
 26 28  1  0
 26 63  1  6
 27 52  1  1
 27 53  1  0
 27 54  1  0
 28 55  1  1
 28 56  1  0
 28 57  1  0
 29 30  2  0
 29 58  1  0
 30 31  1  0
 30 65  1  0
 31 32  1  0
 31 36  2  0
 32 33  2  0
 33 34  1  0
 33 59  1  0
 34 35  2  0
 34 60  1  0
 35 36  1  0
 35 61  1  0
 36 62  1  0
M  CHG  2  26   1  30   1
M  END
>  <s_epik_Chemistry_Notes>  (175) 
This compound has an ester and may undergo hydrolysis at high or low pH.

>  <s_epik_cmdline>  (175) 
J2VwaWtfcHl0aG9uJywgJy1waCcsICc3LjAwMDAwMCcsICctcGh0JywgJzIuMDAwMDAwJywgJy1tcycsICcxNicsICctdG4nLCAnOCcsICctbWEnLCAnMjAwJywgJy1pbWFlJywgJzxpbmZpbGUubWFlPicsICctb21hZScsICc8b3V0ZmlsZS5tYWU+Jw==

>  <s_epik_input>  (175) 
W0NIM11PQyg9TyljKFtjSF1bY0hdMSljKFtjSF1jMUYpQyg9TylbTkhdYyhjKGMyMylbY0hdW2NIXVtjSF1bY0hdMyljKFtjSF1uMilbTkhdW0NIMl1jNFtjSF1jKFtjSF1bY0hdW2NIXTQpW0NIMl1OKFtDSDNdKVtDSDNd

>  <s_i_glide_gridfile>  (175) 
ATP-Grid

>  <s_lp_Force_Field>  (175) 
OPLS_2005

>  <s_lp_Variant>  (175) 
rxn502b____EMOL277332666____EMOL13728749____EMOL2873214-3

>  <s_lp_label>  (175) 
2536_sdstereoexpander_1_neutralizer_1_epik_3_stereoizer_1

>  <s_m_source_file>  (175) 
ATP-VSW-LIGPREP-003-in.maegz

>  <s_sd_BIOSOLVEIT.INFINISEE\_QUERY\_NAME>  (175) 
Ref-Lig

>  <s_sd_BIOSOLVEIT.INFINISEE\_QUERY\_SMILES>  (175) 
S(c1nc2c(cc1C[NH2+]Cc3ccc(cc3)C[NH+](C)C)cccc2)Cc4ccccc4

>  <s_sd_BIOSOLVEIT.INFINISEE\_REACTION\_NAME>  (175) 
rxn502b

>  <s_sd_BIOSOLVEIT.INFINISEE\_REAGENT1\_NAME>  (175) 
EMOL277332666

>  <s_sd_BIOSOLVEIT.INFINISEE\_REAGENT1\_SMILES>  (175) 
Fc1cc(c(cc1)C(=O)OC)C(=O)O

>  <s_sd_BIOSOLVEIT.INFINISEE\_REAGENT2\_NAME>  (175) 
EMOL13728749

>  <s_sd_BIOSOLVEIT.INFINISEE\_REAGENT2\_SMILES>  (175) 
Brc1c(N)c2c(nc1)cccc2

>  <s_sd_BIOSOLVEIT.INFINISEE\_REAGENT3\_NAME>  (175) 
EMOL2873214

>  <s_sd_BIOSOLVEIT.INFINISEE\_REAGENT3\_SMILES>  (175) 
N(Cc1cc(ccc1)CN)(C)C

>  <s_sd_BIOSOLVEIT.INFINISEE\_SPACE>  (175) 
eXplore_7tr_2022-12

>  <s_vsw_compound_code>  (175) 
81123

>  <s_vsw_variant>  (175) 
81123-3

>  <r_epik_Charging_Adjusted_Penalty>  (175) 
3.1796167431006399

>  <r_epik_Ionization_Penalty>  (175) 
1.6720999999999999

>  <r_epik_Ionization_Penalty_Charging>  (175) 
1.6720999999999999

>  <r_epik_Ionization_Penalty_Neutral>  (175) 
0

>  <r_epik_State_Penalty>  (175) 
1.5075000000000001

>  <r_i_docking_score>  (175) 
-3.7617370020743999

>  <r_i_glide_ecoul>  (175) 
-13.239307403564499

>  <r_i_glide_eff_state_penalty>  (175) 
1.5075000000000001

>  <r_i_glide_einternal>  (175) 
10.729380607605

>  <r_i_glide_emodel>  (175) 
-72.933613915643804

>  <r_i_glide_energy>  (175) 
-51.9438667297363

>  <r_i_glide_erotb>  (175) 
0.68164520070307799

>  <r_i_glide_esite>  (175) 
-0.14917540825818201

>  <r_i_glide_evdw>  (175) 
-38.704559326171903

>  <r_i_glide_gscore>  (175) 
-5.2692370020743997

>  <r_i_glide_hbond>  (175) 
-0.20000000000000001

>  <r_i_glide_ligand_efficiency>  (175) 
-0.104492694502067

>  <r_i_glide_ligand_efficiency_ln>  (175) 
-0.82070938346367595

>  <r_i_glide_ligand_efficiency_sa>  (175) 
-0.34502727487465801

>  <r_i_glide_lipo>  (175) 
-1.09700955188895

>  <r_i_glide_metal>  (175) 
-0

>  <r_i_glide_rewards>  (175) 
-0.58357316578708296

>  <r_lp_Energy>  (175) 
50.586472999999998

>  <r_qp_ACxDN^.5/SA>  (175) 
0.0171801

>  <r_qp_CIQPlogS>  (175) 
-5.9279999999999999

>  <r_qp_EA(eV)>  (175) 
1.0469999999999999

>  <r_qp_FISA>  (175) 
88.611000000000004

>  <r_qp_FOSA>  (175) 
227.91800000000001

>  <r_qp_IP(eV)>  (175) 
8.5020000000000007

>  <r_qp_Jm>  (175) 
0.063918533086912199

>  <r_qp_PISA>  (175) 
336.71699999999998

>  <r_qp_PSA>  (175) 
84.617999999999995

>  <r_qp_PercentHumanOralAbsorption>  (175) 
95.268000000000001

>  <r_qp_QPPCaco>  (175) 
356.86000000000001

>  <r_qp_QPPMDCK>  (175) 
322.834

>  <r_qp_QPlogBB>  (175) 
-0.19800000000000001

>  <r_qp_QPlogHERG>  (175) 
-6.0650000000000004

>  <r_qp_QPlogKhsa>  (175) 
0.437

>  <r_qp_QPlogKp>  (175) 
-3.2610000000000001

>  <r_qp_QPlogPC16>  (175) 
14.257

>  <r_qp_QPlogPo/w>  (175) 
3.8660000000000001

>  <r_qp_QPlogPoct>  (175) 
24.042000000000002

>  <r_qp_QPlogPw>  (175) 
13.849

>  <r_qp_QPlogS>  (175) 
-3.621

>  <r_qp_QPpolrz>  (175) 
47.851999999999997

>  <r_qp_SASA>  (175) 
699.69600000000003

>  <r_qp_SAamideO>  (175) 
0

>  <r_qp_SAfluorine>  (175) 
46.448999999999998

>  <r_qp_WPSA>  (175) 
46.448999999999998

>  <r_qp_accptHB>  (175) 
8.5

>  <r_qp_dip^2/V>  (175) 
0.022834400000000001

>  <r_qp_dipole>  (175) 
5.649

>  <r_qp_donorHB>  (175) 
2

>  <r_qp_glob>  (175) 
0.86394610000000005

>  <r_qp_mol_MW>  (175) 
486.54500000000002

>  <r_qp_volume>  (175) 
1397.481

>  <r_sd_BIOSOLVEIT.INFINISEE\_FTREES\_SIMILARITY>  (175) 
0.91300000000000003

>  <r_sd_BIOSOLVEIT.LOGP>  (175) 
3.6694

>  <r_sd_BIOSOLVEIT.MOLECULAR\_WEIGHT>  (175) 
487.55200000000002

>  <r_sd_BIOSOLVEIT.TPSA>  (175) 
84.760000000000005

>  <i_epik_Tot_Q>  (175) 
2

>  <i_epik_Tot_abs_Q>  (175) 
2

>  <i_f3d_flags>  (175) 
0

>  <i_i_glide_confnum>  (175) 
7

>  <i_i_glide_lignum>  (175) 
1114

>  <i_i_glide_posenum>  (175) 
9

>  <i_i_glide_rotatable_bonds>  (175) 
10

>  <i_lp_mmshare_version>  (175) 
65135

>  <i_m_ct_format>  (175) 
2

>  <i_m_source_file_index>  (175) 
2536

>  <i_qp_#NandO>  (175) 
7

>  <i_qp_#acid>  (175) 
0

>  <i_qp_#amide>  (175) 
0

>  <i_qp_#amidine>  (175) 
0

>  <i_qp_#amine>  (175) 
1

>  <i_qp_#in34>  (175) 
0

>  <i_qp_#in56>  (175) 
22

>  <i_qp_#metab>  (175) 
6

>  <i_qp_#nonHatm>  (175) 
36

>  <i_qp_#noncon>  (175) 
0

>  <i_qp_#ringatoms>  (175) 
22

>  <i_qp_#rotor>  (175) 
8

>  <i_qp_#rtvFG>  (175) 
1

>  <i_qp_#stars>  (175) 
0

>  <i_qp_CNS>  (175) 
1

>  <i_qp_HumanOralAbsorption>  (175) 
3

>  <i_qp_RuleOfFive>  (175) 
0

>  <i_qp_RuleOfThree>  (175) 
0

>  <i_sd_BIOSOLVEIT.INFINISEE\_RESULT\_RANK>  (175) 
34116

>  <i_sd_version>  (175) 
0

>  <b_lp_Chiralities_Consistent>  (175) 
1

>  <b_sd_chiral_flag>  (175) 
0

>  <canonical_id>  (175) 
ATP-HTVS-1B366D2FDBBA

>  <compound_code>  (175) 
81123

>  <title>  (175) 
rxn502b____EMOL277332666____EMOL13728749____EMOL2873214

>  <variant>  (175) 
81123-3

>  <source_file>  (175) 
运行/运行/ATP-VSW/ATP-VSW-DOCK_HTVS_1-003_lib/ATP-VSW-DOCK_HTVS_1-003_lib.mae

>  <canonical_smiles>  (175) 
COC(=O)c1ccc(F)cc1C(=O)Nc1c(NCc2cccc(C[NH+](C)C)c2)c[nH+]c2ccccc12

>  <scaffold>  (175) 
O=C(Nc1c(NCc2ccccc2)c[nH+]c2ccccc12)c1ccccc1

>  <molecular_formula>  (175) 
C28H29FN4O3+2

$$$$
ATP-HTVS-1B509C27CE75
     RDKit          3D

 62 65  0  0  0  0  0  0  0  0999 V2000
  197.4867  187.6135  157.1526 F   0  0  0  0  0  0  0  0  0  0  0  0
  196.8682  187.0596  158.2204 C   0  0  0  0  0  0  0  0  0  0  0  0
  196.8032  187.7196  159.4598 C   0  0  0  0  0  0  0  0  0  0  0  0
  196.2192  187.1828  160.5551 N   0  0  0  0  0  0  0  0  0  0  0  0
  195.6774  185.9496  160.4448 C   0  0  0  0  0  0  0  0  0  0  0  0
  195.6937  185.2008  159.2545 C   0  0  0  0  0  0  0  0  0  0  0  0
  196.2937  185.7904  158.1231 C   0  0  0  0  0  0  0  0  0  0  0  0
  195.1152  183.7851  159.2284 C   0  0  2  0  0  0  0  0  0  0  0  0
  195.5557  182.9347  158.1291 N   0  0  0  0  0  0  0  0  0  0  0  0
  196.9226  182.8027  157.8088 C   0  0  0  0  0  0  0  0  0  0  0  0
  197.8381  183.2434  158.7003 N   0  0  0  0  0  0  0  0  0  0  0  0
  199.1253  183.3414  158.3072 C   0  0  0  0  0  0  0  0  0  0  0  0
  199.5209  182.8845  157.0159 C   0  0  0  0  0  0  0  0  0  0  0  0
  198.6166  182.3883  156.1498 N   0  0  0  0  0  0  0  0  0  0  0  0
  197.3105  182.3631  156.5173 C   0  0  0  0  0  0  0  0  0  0  0  0
  196.3538  181.9767  155.5690 N   0  0  0  0  0  0  0  0  0  0  0  0
  196.7419  181.7102  154.1897 C   0  0  1  0  0  0  0  0  0  0  0  0
  197.0740  180.2291  153.9647 C   0  0  1  0  0  0  0  0  0  0  0  0
  197.2874  179.9172  152.4959 C   0  0  0  0  0  0  0  0  0  0  0  0
  196.1918  179.8017  151.6117 C   0  0  0  0  0  0  0  0  0  0  0  0
  196.4181  179.4826  150.2521 C   0  0  0  0  0  0  0  0  0  0  0  0
  197.7320  179.2451  149.7804 C   0  0  0  0  0  0  0  0  0  0  0  0
  198.8071  179.3157  150.6918 C   0  0  0  0  0  0  0  0  0  0  0  0
  198.5950  179.7012  152.0189 C   0  0  0  0  0  0  0  0  0  0  0  0
  197.9838  178.8862  148.3107 C   0  0  1  0  0  0  0  0  0  0  0  0
  198.7690  179.8636  147.5449 N   0  0  0  0  0  0  0  0  0  0  0  0
  200.1459  179.9877  148.0437 C   0  0  2  0  0  0  0  0  0  0  0  0
  198.8266  179.4628  146.1396 C   0  0  2  0  0  0  0  0  0  0  0  0
  200.8867  182.9611  156.6502 C   0  0  0  0  0  0  0  0  0  0  0  0
  201.8451  183.4791  157.5419 C   0  0  0  0  0  0  0  0  0  0  0  0
  201.4451  183.9663  158.8006 C   0  0  0  0  0  0  0  0  0  0  0  0
  200.0845  183.9024  159.1691 C   0  0  0  0  0  0  0  0  0  0  0  0
  193.5874  183.8380  159.2511 C   0  0  2  0  0  0  0  0  0  0  0  0
  197.2350  188.7040  159.5673 H   0  0  0  0  0  0  0  0  0  0  0  0
  195.2464  185.5301  161.3445 H   0  0  0  0  0  0  0  0  0  0  0  0
  196.3450  185.2681  157.1714 H   0  0  0  0  0  0  0  0  0  0  0  0
  195.4431  183.2795  160.1366 H   0  0  0  0  0  0  0  0  0  0  0  0
  194.8858  182.7630  157.3869 H   0  0  0  0  0  0  0  0  0  0  0  0
  195.3629  182.1840  155.7242 H   0  0  0  0  0  0  0  0  0  0  0  0
  195.9151  182.0148  153.5500 H   0  0  0  0  0  0  0  0  0  0  0  0
  197.5877  182.3343  153.8918 H   0  0  0  0  0  0  0  0  0  0  0  0
  197.9729  179.9611  154.5228 H   0  0  0  0  0  0  0  0  0  0  0  0
  196.2943  179.5781  154.3451 H   0  0  0  0  0  0  0  0  0  0  0  0
  195.1843  179.9292  151.9743 H   0  0  0  0  0  0  0  0  0  0  0  0
  195.5742  179.4017  149.5829 H   0  0  0  0  0  0  0  0  0  0  0  0
  199.8172  179.1002  150.3650 H   0  0  0  0  0  0  0  0  0  0  0  0
  199.4386  179.8174  152.6907 H   0  0  0  0  0  0  0  0  0  0  0  0
  198.4685  177.9109  148.2785 H   0  0  0  0  0  0  0  0  0  0  0  0
  197.0228  178.7565  147.8260 H   0  0  0  0  0  0  0  0  0  0  0  0
  200.7545  180.6065  147.3565 H   0  0  0  0  0  0  0  0  0  0  0  0
  200.6127  178.9875  148.0506 H   0  0  0  0  0  0  0  0  0  0  0  0
  200.1759  180.3855  149.0082 H   0  0  0  0  0  0  0  0  0  0  0  0
  199.4030  180.1929  145.5703 H   0  0  0  0  0  0  0  0  0  0  0  0
  197.8383  179.4089  145.6906 H   0  0  0  0  0  0  0  0  0  0  0  0
  199.3132  178.4955  146.0240 H   0  0  0  0  0  0  0  0  0  0  0  0
  201.1973  182.5925  155.6855 H   0  0  0  0  0  0  0  0  0  0  0  0
  202.8939  183.4965  157.2632 H   0  0  0  0  0  0  0  0  0  0  0  0
  202.1776  184.3632  159.4901 H   0  0  0  0  0  0  0  0  0  0  0  0
  199.7801  184.2872  160.1299 H   0  0  0  0  0  0  0  0  0  0  0  0
  193.2184  184.4060  160.1047 H   0  0  0  0  0  0  0  0  0  0  0  0
  193.1749  182.8361  159.2879 H   0  0  0  0  0  0  0  0  0  0  0  0
  193.2074  184.2979  158.3460 H   0  0  0  0  0  0  0  0  0  0  0  0
  1  2  1  0
  2  3  1  0
  2  7  2  0
  3  4  2  0
  3 34  1  0
  4  5  1  0
  5  6  2  0
  5 35  1  0
  6  7  1  0
  6  8  1  0
  7 36  1  0
  8  9  1  0
  8 33  1  0
  8 37  1  1
  9 10  1  0
  9 38  1  0
 10 11  2  0
 10 15  1  0
 11 12  1  0
 12 13  1  0
 12 32  2  0
 13 14  1  0
 13 29  2  0
 14 15  2  0
 15 16  1  0
 16 17  1  0
 16 39  1  0
 17 18  1  0
 17 40  1  6
 17 41  1  0
 18 19  1  0
 18 42  1  1
 18 43  1  0
 19 20  1  0
 19 24  2  0
 20 21  2  0
 20 44  1  0
 21 22  1  0
 21 45  1  0
 22 23  2  0
 22 25  1  0
 23 24  1  0
 23 46  1  0
 24 47  1  0
 25 26  1  0
 25 48  1  1
 25 49  1  0
 26 27  1  0
 26 28  1  0
 27 50  1  6
 27 51  1  0
 27 52  1  0
 28 53  1  6
 28 54  1  0
 28 55  1  0
 29 30  1  0
 29 56  1  0
 30 31  2  0
 30 57  1  0
 31 32  1  0
 31 58  1  0
 32 59  1  0
 33 60  1  1
 33 61  1  0
 33 62  1  0
M  END
>  <s_epik_cmdline>  (176) 
J2VwaWtfcHl0aG9uJywgJy1waCcsICc3LjAwMDAwMCcsICctcGh0JywgJzIuMDAwMDAwJywgJy1tcycsICcxNicsICctdG4nLCAnOCcsICctbWEnLCAnMjAwJywgJy1pbWFlJywgJzxpbmZpbGUubWFlPicsICctb21hZScsICc8b3V0ZmlsZS5tYWU+Jw==

>  <s_epik_input>  (176) 
RmMxW2NIXW5bY0hdYyhbY0hdMSlbQ0BASF0oW0NIM10pW05IXWMobjIpYyhuYyhjMjMpW2NIXVtjSF1bY0hdW2NIXTMpW05IXVtDSDJdW0NIMl1jNFtjSF1bY0hdYyhbY0hdW2NIXTQpW0NIMl1OKFtDSDNdKVtDSDNd

>  <s_i_glide_gridfile>  (176) 
ATP-Grid

>  <s_lp_Force_Field>  (176) 
OPLS_2005

>  <s_lp_Variant>  (176) 
m_282030aaa____21900712____23157418____21967972-3

>  <s_lp_label>  (176) 
1902_sdstereoexpander_1_neutralizer_1_epik_2_stereoizer_1

>  <s_m_source_file>  (176) 
ATP-VSW-LIGPREP-001-in.maegz

>  <s_sd_BIOSOLVEIT.INFINISEE\_QUERY\_NAME>  (176) 
Ref-Lig

>  <s_sd_BIOSOLVEIT.INFINISEE\_QUERY\_SMILES>  (176) 
S(c1nc2c(cc1C[NH2+]Cc3ccc(cc3)C[NH+](C)C)cccc2)Cc4ccccc4

>  <s_sd_BIOSOLVEIT.INFINISEE\_REACTION\_NAME>  (176) 
m_282030aaa

>  <s_sd_BIOSOLVEIT.INFINISEE\_REAGENT1\_SMILES>  (176) 
[R1*]NC(c1cncc(F)c1)C

>  <s_sd_BIOSOLVEIT.INFINISEE\_REAGENT2\_SMILES>  (176) 
[R1*]c1nc2c(nc1[R2*])cccc2

>  <s_sd_BIOSOLVEIT.INFINISEE\_REAGENT3\_SMILES>  (176) 
[R2*]NCCc1ccc(cc1)CN(C)C

>  <s_sd_BIOSOLVEIT.INFINISEE\_SPACE>  (176) 
REALSpace_44bn_2023-08

>  <s_vsw_compound_code>  (176) 
60833

>  <s_vsw_variant>  (176) 
60833-3

>  <r_epik_Charging_Adjusted_Penalty>  (176) 
1.6032092271001199

>  <r_epik_Ionization_Penalty>  (176) 
1.6041000000000001

>  <r_epik_Ionization_Penalty_Charging>  (176) 
0

>  <r_epik_Ionization_Penalty_Neutral>  (176) 
1.6041000000000001

>  <r_epik_State_Penalty>  (176) 
1.6032

>  <r_i_docking_score>  (176) 
-2.9586688526527101

>  <r_i_glide_ecoul>  (176) 
-4.3209352493286097

>  <r_i_glide_eff_state_penalty>  (176) 
1.6032

>  <r_i_glide_einternal>  (176) 
2.9408943653106698

>  <r_i_glide_emodel>  (176) 
-50.073669177898701

>  <r_i_glide_energy>  (176) 
-39.6339883804321

>  <r_i_glide_erotb>  (176) 
0.80966041358113705

>  <r_i_glide_esite>  (176) 
-0.13476112519684599

>  <r_i_glide_evdw>  (176) 
-35.313053131103501

>  <r_i_glide_gscore>  (176) 
-4.5618688526527098

>  <r_i_glide_hbond>  (176) 
-0.24945676296904101

>  <r_i_glide_ligand_efficiency>  (176) 
-0.089656631898566805

>  <r_i_glide_ligand_efficiency_ln>  (176) 
-0.65799263366250704

>  <r_i_glide_ligand_efficiency_sa>  (176) 
-0.28757672439128101

>  <r_i_glide_lipo>  (176) 
-2.0208169591571399

>  <r_i_glide_metal>  (176) 
-0

>  <r_i_glide_rewards>  (176) 
-0.55270147495635202

>  <r_lp_Energy>  (176) 
27.194664

>  <r_qp_ACxDN^.5/SA>  (176) 
0.0131673

>  <r_qp_CIQPlogS>  (176) 
-5.8650000000000002

>  <r_qp_EA(eV)>  (176) 
0.90400000000000003

>  <r_qp_FISA>  (176) 
55.984999999999999

>  <r_qp_FOSA>  (176) 
267.13499999999999

>  <r_qp_IP(eV)>  (176) 
8.3680000000000003

>  <r_qp_Jm>  (176) 
0.14976204292513701

>  <r_qp_PISA>  (176) 
353.15800000000002

>  <r_qp_PSA>  (176) 
59.845999999999997

>  <r_qp_PercentHumanOralAbsorption>  (176) 
100

>  <r_qp_QPPCaco>  (176) 
727.60500000000002

>  <r_qp_QPPMDCK>  (176) 
511.245

>  <r_qp_QPlogBB>  (176) 
-0.027

>  <r_qp_QPlogHERG>  (176) 
-6.1449999999999996

>  <r_qp_QPlogKhsa>  (176) 
0.74199999999999999

>  <r_qp_QPlogKp>  (176) 
-2.5059999999999998

>  <r_qp_QPlogPC16>  (176) 
14.262

>  <r_qp_QPlogPo/w>  (176) 
4.782

>  <r_qp_QPlogPoct>  (176) 
22.353000000000002

>  <r_qp_QPlogPw>  (176) 
11.536

>  <r_qp_QPlogS>  (176) 
-3.9670000000000001

>  <r_qp_QPpolrz>  (176) 
47.174999999999997

>  <r_qp_SASA>  (176) 
698.12400000000002

>  <r_qp_SAamideO>  (176) 
0

>  <r_qp_SAfluorine>  (176) 
21.846

>  <r_qp_WPSA>  (176) 
21.846

>  <r_qp_accptHB>  (176) 
6.5

>  <r_qp_dip^2/V>  (176) 
0.017092599999999999

>  <r_qp_dipole>  (176) 
4.8789999999999996

>  <r_qp_donorHB>  (176) 
2

>  <r_qp_glob>  (176) 
0.86390449999999996

>  <r_qp_mol_MW>  (176) 
444.55399999999997

>  <r_qp_volume>  (176) 
1392.6759999999999

>  <r_sd_BIOSOLVEIT.INFINISEE\_FTREES\_SIMILARITY>  (176) 
0.90300000000000002

>  <r_sd_BIOSOLVEIT.LOGP>  (176) 
3.6360999999999999

>  <r_sd_BIOSOLVEIT.MOLECULAR\_WEIGHT>  (176) 
445.56299999999999

>  <r_sd_BIOSOLVEIT.TPSA>  (176) 
67.170000000000002

>  <i_epik_Tot_Q>  (176) 
0

>  <i_epik_Tot_abs_Q>  (176) 
0

>  <i_f3d_flags>  (176) 
0

>  <i_i_glide_confnum>  (176) 
14

>  <i_i_glide_lignum>  (176) 
566

>  <i_i_glide_posenum>  (176) 
3

>  <i_i_glide_rotatable_bonds>  (176) 
9

>  <i_lp_mmshare_version>  (176) 
65135

>  <i_m_ct_format>  (176) 
2

>  <i_m_source_file_index>  (176) 
1902

>  <i_qp_#NandO>  (176) 
6

>  <i_qp_#acid>  (176) 
0

>  <i_qp_#amide>  (176) 
0

>  <i_qp_#amidine>  (176) 
0

>  <i_qp_#amine>  (176) 
1

>  <i_qp_#in34>  (176) 
0

>  <i_qp_#in56>  (176) 
22

>  <i_qp_#metab>  (176) 
7

>  <i_qp_#nonHatm>  (176) 
33

>  <i_qp_#noncon>  (176) 
0

>  <i_qp_#ringatoms>  (176) 
22

>  <i_qp_#rotor>  (176) 
9

>  <i_qp_#rtvFG>  (176) 
0

>  <i_qp_#stars>  (176) 
0

>  <i_qp_CNS>  (176) 
1

>  <i_qp_HumanOralAbsorption>  (176) 
3

>  <i_qp_RuleOfFive>  (176) 
0

>  <i_qp_RuleOfThree>  (176) 
1

>  <i_sd_BIOSOLVEIT.INFINISEE\_REAGENT1\_NAME>  (176) 
21900712

>  <i_sd_BIOSOLVEIT.INFINISEE\_REAGENT2\_NAME>  (176) 
23157418

>  <i_sd_BIOSOLVEIT.INFINISEE\_REAGENT3\_NAME>  (176) 
21967972

>  <i_sd_BIOSOLVEIT.INFINISEE\_RESULT\_RANK>  (176) 
84459

>  <i_sd_version>  (176) 
0

>  <b_lp_Chiralities_Consistent>  (176) 
1

>  <b_sd_chiral_flag>  (176) 
0

>  <canonical_id>  (176) 
ATP-HTVS-1B509C27CE75

>  <compound_code>  (176) 
60833

>  <title>  (176) 
m_282030aaa____21900712____23157418____21967972

>  <variant>  (176) 
60833-3

>  <source_file>  (176) 
运行/运行/ATP-VSW/ATP-VSW-DOCK_HTVS_1-001_lib/ATP-VSW-DOCK_HTVS_1-001_lib

>  <canonical_smiles>  (176) 
C[C@@H](Nc1nc2ccccc2nc1NCCc1ccc(CN(C)C)cc1)c1cncc(F)c1

>  <scaffold>  (176) 
c1ccc(CCNc2nc3ccccc3nc2NCc2cccnc2)cc1

>  <molecular_formula>  (176) 
C26H29FN6

$$$$
ATP-HTVS-1B60B6D0433D
     RDKit          3D

 61 64  0  0  0  0  0  0  0  0999 V2000
  202.5261  178.3003  155.1936 F   0  0  0  0  0  0  0  0  0  0  0  0
  202.2984  179.5358  155.6176 C   0  0  0  0  0  0  0  0  0  0  0  0
  201.3966  179.7519  156.6850 C   0  0  0  0  0  0  0  0  0  0  0  0
  201.1787  181.0731  157.1677 C   0  0  0  0  0  0  0  0  0  0  0  0
  201.7885  182.1913  156.5394 C   0  0  0  0  0  0  0  0  0  0  0  0
  202.6550  181.9943  155.4386 C   0  0  0  0  0  0  0  0  0  0  0  0
  202.8988  180.6613  154.9821 C   0  0  0  0  0  0  0  0  0  0  0  0
  201.4867  183.6088  156.9975 C   0  0  1  0  0  0  0  0  0  0  0  0
  200.1903  183.8635  157.6281 N   0  0  0  0  0  0  0  0  0  0  0  0
  198.9663  183.3445  157.1673 C   0  0  0  0  0  0  0  0  0  0  0  0
  198.9324  182.7340  155.9621 N   0  0  0  0  0  0  0  0  0  0  0  0
  197.8113  182.1244  155.5642 C   0  0  0  0  0  0  0  0  0  0  0  0
  196.6885  182.1098  156.3088 N   0  0  0  0  0  0  0  0  0  0  0  0
  196.6552  182.7705  157.4744 C   0  0  0  0  0  0  0  0  0  0  0  0
  197.8102  183.4302  157.9574 C   0  0  0  0  0  0  0  0  0  0  0  0
  197.7317  184.1575  159.1750 C   0  0  0  0  0  0  0  0  0  0  0  0
  196.5037  184.2509  159.8601 C   0  0  0  0  0  0  0  0  0  0  0  0
  195.3569  183.5996  159.3508 C   0  0  0  0  0  0  0  0  0  0  0  0
  195.4411  182.8415  158.1713 C   0  0  0  0  0  0  0  0  0  0  0  0
  197.8710  181.3381  154.4338 N   0  0  0  0  0  0  0  0  0  0  0  0
  196.7525  180.6263  153.8851 C   0  0  1  0  0  0  0  0  0  0  0  0
  197.0325  179.9355  152.5601 C   0  0  0  0  0  0  0  0  0  0  0  0
  196.1821  180.2069  151.4748 C   0  0  0  0  0  0  0  0  0  0  0  0
  196.4251  179.6256  150.2194 C   0  0  0  0  0  0  0  0  0  0  0  0
  197.5185  178.7469  150.0288 C   0  0  0  0  0  0  0  0  0  0  0  0
  197.7534  178.1248  148.7139 N   0  0  0  0  0  0  0  0  0  0  0  0
  197.0053  178.4279  147.7914 O   0  0  0  0  0  0  0  0  0  0  0  0
  198.6815  177.3267  148.6116 O   0  0  0  0  0  0  0  0  0  0  0  0
  198.3606  178.4627  151.1225 C   0  0  0  0  0  0  0  0  0  0  0  0
  198.1251  179.0548  152.3741 C   0  0  0  0  0  0  0  0  0  0  0  0
  200.5841  178.5639  157.2689 C   0  0  1  0  0  0  0  0  0  0  0  0
  199.5849  177.9379  156.3768 N   0  0  2  0  0  0  0  0  0  0  0  0
  200.1442  177.0829  155.2977 C   0  0  2  0  0  0  0  0  0  0  0  0
  198.6605  178.9314  155.7775 C   0  0  2  0  0  0  0  0  0  0  0  0
  200.5118  181.2130  157.9935 H   0  0  0  0  0  0  0  0  0  0  0  0
  203.1132  182.8456  154.9536 H   0  0  0  0  0  0  0  0  0  0  0  0
  203.5251  180.5374  154.1110 H   0  0  0  0  0  0  0  0  0  0  0  0
  202.2800  183.9132  157.6900 H   0  0  0  0  0  0  0  0  0  0  0  0
  201.5741  184.2732  156.1384 H   0  0  0  0  0  0  0  0  0  0  0  0
  200.2136  184.3717  158.4954 H   0  0  0  0  0  0  0  0  0  0  0  0
  198.5929  184.6799  159.5779 H   0  0  0  0  0  0  0  0  0  0  0  0
  196.4352  184.8269  160.7704 H   0  0  0  0  0  0  0  0  0  0  0  0
  194.4079  183.6785  159.8703 H   0  0  0  0  0  0  0  0  0  0  0  0
  194.5620  182.3622  157.7573 H   0  0  0  0  0  0  0  0  0  0  0  0
  198.7855  181.2644  153.9847 H   0  0  0  0  0  0  0  0  0  0  0  0
  196.4448  179.8827  154.6217 H   0  0  0  0  0  0  0  0  0  0  0  0
  195.8696  181.2852  153.7840 H   0  0  0  0  0  0  0  0  0  0  0  0
  195.3494  180.8768  151.6176 H   0  0  0  0  0  0  0  0  0  0  0  0
  195.7567  179.8578  149.4065 H   0  0  0  0  0  0  0  0  0  0  0  0
  199.1997  177.7880  151.0137 H   0  0  0  0  0  0  0  0  0  0  0  0
  198.8184  178.8056  153.1616 H   0  0  0  0  0  0  0  0  0  0  0  0
  201.2852  177.8289  157.6761 H   0  0  0  0  0  0  0  0  0  0  0  0
  200.0177  178.9615  158.0996 H   0  0  0  0  0  0  0  0  0  0  0  0
  200.7209  177.6358  154.6421 H   0  0  0  0  0  0  0  0  0  0  0  0
  199.3089  176.5435  154.7820 H   0  0  0  0  0  0  0  0  0  0  0  0
  200.7498  176.2958  155.7643 H   0  0  0  0  0  0  0  0  0  0  0  0
  199.1843  179.6355  155.1299 H   0  0  0  0  0  0  0  0  0  0  0  0
  198.1471  179.5023  156.5553 H   0  0  0  0  0  0  0  0  0  0  0  0
  197.9198  178.3806  155.1933 H   0  0  0  0  0  0  0  0  0  0  0  0
  195.8351  181.6206  156.0300 H   0  0  0  0  0  0  0  0  0  0  0  0
  198.9382  177.4202  157.0146 H   0  0  0  0  0  0  0  0  0  0  0  0
  1  2  1  0
  2  3  2  0
  2  7  1  0
  3  4  1  0
  3 31  1  0
  4  5  2  0
  4 35  1  0
  5  6  1  0
  5  8  1  0
  6  7  2  0
  6 36  1  0
  7 37  1  0
  8  9  1  0
  8 38  1  1
  8 39  1  0
  9 10  1  0
  9 40  1  0
 10 11  2  0
 10 15  1  0
 11 12  1  0
 12 13  2  0
 12 20  1  0
 13 14  1  0
 13 60  1  0
 14 15  1  0
 14 19  2  0
 15 16  2  0
 16 17  1  0
 16 41  1  0
 17 18  2  0
 17 42  1  0
 18 19  1  0
 18 43  1  0
 19 44  1  0
 20 21  1  0
 20 45  1  0
 21 22  1  0
 21 46  1  1
 21 47  1  0
 22 23  1  0
 22 30  2  0
 23 24  2  0
 23 48  1  0
 24 25  1  0
 24 49  1  0
 25 26  1  0
 25 29  2  0
 26 27  1  0
 26 28  2  0
 29 30  1  0
 29 50  1  0
 30 51  1  0
 31 32  1  0
 31 52  1  1
 31 53  1  0
 32 33  1  0
 32 34  1  0
 32 61  1  1
 33 54  1  6
 33 55  1  0
 33 56  1  0
 34 57  1  6
 34 58  1  0
 34 59  1  0
M  CHG  4  13   1  26   1  27  -1  32   1
M  END
>  <s_epik_cmdline>  (177) 
J2VwaWtfcHl0aG9uJywgJy1waCcsICc3LjAwMDAwMCcsICctcGh0JywgJzIuMDAwMDAwJywgJy1tcycsICcxNicsICctdG4nLCAnOCcsICctbWEnLCAnMjAwJywgJy1pbWFlJywgJzxpbmZpbGUubWFlPicsICctb21hZScsICc8b3V0ZmlsZS5tYWU+Jw==

>  <s_epik_input>  (177) 
W0NIM11OKFtDSDNdKVtDSDJdYyhjMUYpW2NIXWMoW2NIXVtjSF0xKVtDSDJdW05IXWMoYyhjMjMpW2NIXVtjSF1bY0hdW2NIXTMpbmMobjIpW05IXVtDSDJdYzRbY0hdW2NIXWMoW04rXShbTy1dKT1PKVtjSF1bY0hdNA==

>  <s_i_glide_gridfile>  (177) 
ATP-Grid

>  <s_lp_Force_Field>  (177) 
OPLS_2005

>  <s_lp_Variant>  (177) 
m_282030aaa____21928468____22360182____21968946-1

>  <s_lp_label>  (177) 
2064_sdstereoexpander_1_neutralizer_1_epik_1_stereoizer_1

>  <s_m_source_file>  (177) 
ATP-VSW-LIGPREP-001-in.maegz

>  <s_sd_BIOSOLVEIT.INFINISEE\_QUERY\_NAME>  (177) 
Ref-Lig

>  <s_sd_BIOSOLVEIT.INFINISEE\_QUERY\_SMILES>  (177) 
S(c1nc2c(cc1C[NH2+]Cc3ccc(cc3)C[NH+](C)C)cccc2)Cc4ccccc4

>  <s_sd_BIOSOLVEIT.INFINISEE\_REACTION\_NAME>  (177) 
m_282030aaa

>  <s_sd_BIOSOLVEIT.INFINISEE\_REAGENT1\_SMILES>  (177) 
[R1*]NCc1ccc([N+]([O-])=O)cc1

>  <s_sd_BIOSOLVEIT.INFINISEE\_REAGENT2\_SMILES>  (177) 
[R2*]c1nc([R1*])c2c(n1)cccc2

>  <s_sd_BIOSOLVEIT.INFINISEE\_REAGENT3\_SMILES>  (177) 
[R2*]NCc1cc(c(F)cc1)CN(C)C

>  <s_sd_BIOSOLVEIT.INFINISEE\_SPACE>  (177) 
REALSpace_44bn_2023-08

>  <s_vsw_compound_code>  (177) 
66017

>  <s_vsw_variant>  (177) 
66017-1

>  <r_epik_Charging_Adjusted_Penalty>  (177) 
0.14185945058606

>  <r_epik_Ionization_Penalty>  (177) 
0.0683

>  <r_epik_Ionization_Penalty_Charging>  (177) 
0.0683

>  <r_epik_Ionization_Penalty_Neutral>  (177) 
0

>  <r_epik_State_Penalty>  (177) 
0.073599999999999999

>  <r_i_docking_score>  (177) 
-3.8549943186462001

>  <r_i_glide_ecoul>  (177) 
-5.9763536453247097

>  <r_i_glide_eff_state_penalty>  (177) 
0.073599999999999999

>  <r_i_glide_einternal>  (177) 
2.1799721717834499

>  <r_i_glide_emodel>  (177) 
-54.779011081932801

>  <r_i_glide_energy>  (177) 
-38.864739418029799

>  <r_i_glide_erotb>  (177) 
0.65916913865200299

>  <r_i_glide_esite>  (177) 
-0.22846284476738701

>  <r_i_glide_evdw>  (177) 
-32.888385772705099

>  <r_i_glide_gscore>  (177) 
-3.9285943186462

>  <r_i_glide_hbond>  (177) 
-0.16153105195062301

>  <r_i_glide_ligand_efficiency>  (177) 
-0.113382185842535

>  <r_i_glide_ligand_efficiency_ln>  (177) 
-0.85167637391701201

>  <r_i_glide_ligand_efficiency_sa>  (177) 
-0.367314266878353

>  <r_i_glide_lipo>  (177) 
-1.2832390667385301

>  <r_i_glide_metal>  (177) 
-0

>  <r_i_glide_rewards>  (177) 
-0.37365815840769701

>  <r_lp_Energy>  (177) 
18.416989999999998

>  <r_qp_ACxDN^.5/SA>  (177) 
0.011412

>  <r_qp_CIQPlogS>  (177) 
-6.3799999999999999

>  <r_qp_EA(eV)>  (177) 
1.321

>  <r_qp_FISA>  (177) 
134.33000000000001

>  <r_qp_FOSA>  (177) 
202.10300000000001

>  <r_qp_IP(eV)>  (177) 
8.2629999999999999

>  <r_qp_Jm>  (177) 
0.00069786994876010905

>  <r_qp_PISA>  (177) 
376.47899999999998

>  <r_qp_PSA>  (177) 
91.730000000000004

>  <r_qp_PercentHumanOralAbsorption>  (177) 
91.334000000000003

>  <r_qp_QPPCaco>  (177) 
131.50700000000001

>  <r_qp_QPPMDCK>  (177) 
89.884

>  <r_qp_QPlogBB>  (177) 
-0.85599999999999998

>  <r_qp_QPlogHERG>  (177) 
-7.0579999999999998

>  <r_qp_QPlogKhsa>  (177) 
0.82299999999999995

>  <r_qp_QPlogKp>  (177) 
-3.867

>  <r_qp_QPlogPC16>  (177) 
15.08

>  <r_qp_QPlogPo/w>  (177) 
4.5199999999999996

>  <r_qp_QPlogPoct>  (177) 
23.396000000000001

>  <r_qp_QPlogPw>  (177) 
11.848000000000001

>  <r_qp_QPlogS>  (177) 
-4.952

>  <r_qp_QPpolrz>  (177) 
47.723999999999997

>  <r_qp_SASA>  (177) 
743.53700000000003

>  <r_qp_SAamideO>  (177) 
0

>  <r_qp_SAfluorine>  (177) 
30.625

>  <r_qp_WPSA>  (177) 
30.625

>  <r_qp_accptHB>  (177) 
6

>  <r_qp_dip^2/V>  (177) 
0.079697799999999999

>  <r_qp_dipole>  (177) 
10.566000000000001

>  <r_qp_donorHB>  (177) 
2

>  <r_qp_glob>  (177) 
0.81430420000000003

>  <r_qp_mol_MW>  (177) 
460.50999999999999

>  <r_qp_volume>  (177) 
1400.8340000000001

>  <r_sd_BIOSOLVEIT.INFINISEE\_FTREES\_SIMILARITY>  (177) 
0.90100000000000002

>  <r_sd_BIOSOLVEIT.LOGP>  (177) 
3.5457999999999998

>  <r_sd_BIOSOLVEIT.MOLECULAR\_WEIGHT>  (177) 
461.51799999999997

>  <r_sd_BIOSOLVEIT.TPSA>  (177) 
100.09999999999999

>  <i_epik_Tot_Q>  (177) 
2

>  <i_epik_Tot_abs_Q>  (177) 
4

>  <i_f3d_flags>  (177) 
0

>  <i_i_glide_confnum>  (177) 
6

>  <i_i_glide_lignum>  (177) 
632

>  <i_i_glide_posenum>  (177) 
6

>  <i_i_glide_rotatable_bonds>  (177) 
9

>  <i_lp_mmshare_version>  (177) 
65135

>  <i_m_ct_format>  (177) 
2

>  <i_m_source_file_index>  (177) 
2064

>  <i_qp_#NandO>  (177) 
8

>  <i_qp_#acid>  (177) 
0

>  <i_qp_#amide>  (177) 
0

>  <i_qp_#amidine>  (177) 
0

>  <i_qp_#amine>  (177) 
1

>  <i_qp_#in34>  (177) 
0

>  <i_qp_#in56>  (177) 
22

>  <i_qp_#metab>  (177) 
5

>  <i_qp_#nonHatm>  (177) 
34

>  <i_qp_#noncon>  (177) 
0

>  <i_qp_#ringatoms>  (177) 
22

>  <i_qp_#rotor>  (177) 
9

>  <i_qp_#rtvFG>  (177) 
0

>  <i_qp_#stars>  (177) 
0

>  <i_qp_CNS>  (177) 
0

>  <i_qp_HumanOralAbsorption>  (177) 
3

>  <i_qp_RuleOfFive>  (177) 
0

>  <i_qp_RuleOfThree>  (177) 
0

>  <i_sd_BIOSOLVEIT.INFINISEE\_REAGENT1\_NAME>  (177) 
21928468

>  <i_sd_BIOSOLVEIT.INFINISEE\_REAGENT2\_NAME>  (177) 
22360182

>  <i_sd_BIOSOLVEIT.INFINISEE\_REAGENT3\_NAME>  (177) 
21968946

>  <i_sd_BIOSOLVEIT.INFINISEE\_RESULT\_RANK>  (177) 
94991

>  <i_sd_version>  (177) 
0

>  <b_lp_Chiralities_Consistent>  (177) 
1

>  <b_sd_chiral_flag>  (177) 
0

>  <canonical_id>  (177) 
ATP-HTVS-1B60B6D0433D

>  <compound_code>  (177) 
66017

>  <title>  (177) 
m_282030aaa____21928468____22360182____21968946

>  <variant>  (177) 
66017-1

>  <source_file>  (177) 
运行/运行/ATP-VSW/ATP-VSW-DOCK_HTVS_1-001_lib/ATP-VSW-DOCK_HTVS_1-001_lib

>  <canonical_smiles>  (177) 
C[NH+](C)Cc1cc(CNc2nc(NCc3ccc([N+](=O)[O-])cc3)[nH+]c3ccccc23)ccc1F

>  <scaffold>  (177) 
c1ccc(CNc2nc(NCc3ccccc3)c3ccccc3[nH+]2)cc1

>  <molecular_formula>  (177) 
C25H27FN6O2+2

$$$$
ATP-HTVS-1B84D304C2ED
     RDKit          3D

 56 58  0  0  0  0  0  0  0  0999 V2000
  196.5017  179.6268  150.1880 F   0  0  0  0  0  0  0  0  0  0  0  0
  197.5820  178.9502  150.6716 C   0  0  0  0  0  0  0  0  0  0  0  0
  197.9496  177.8167  150.0340 N   0  0  0  0  0  0  0  0  0  0  0  0
  198.9888  177.0839  150.5140 C   0  0  0  0  0  0  0  0  0  0  0  0
  199.7415  177.4747  151.6558 C   0  0  0  0  0  0  0  0  0  0  0  0
  200.8271  176.7240  152.1643 N   0  0  0  0  0  0  0  0  0  0  0  0
  201.0501  176.4033  153.5352 C   0  0  0  0  0  0  0  0  0  0  0  0
  202.1240  175.5572  153.9377 C   0  0  0  0  0  0  0  0  0  0  0  0
  202.3505  175.2405  155.2932 C   0  0  0  0  0  0  0  0  0  0  0  0
  201.5230  175.7770  156.2979 C   0  0  0  0  0  0  0  0  0  0  0  0
  200.4479  176.6073  155.9338 C   0  0  0  0  0  0  0  0  0  0  0  0
  200.1941  176.8941  154.5696 C   0  0  0  0  0  0  0  0  0  0  0  0
  201.9509  176.6454  151.1970 C   0  0  1  0  0  0  0  0  0  0  0  0
  202.7702  177.8786  151.2120 C   0  0  0  0  0  0  0  0  0  0  0  0
  203.3980  178.8424  151.2131 N   0  0  0  0  0  0  0  0  0  0  0  0
  199.3738  178.6942  152.2813 C   0  0  0  0  0  0  0  0  0  0  0  0
  198.2536  179.4193  151.8305 C   0  0  0  0  0  0  0  0  0  0  0  0
  197.8144  180.6716  152.5463 C   0  0  0  0  0  0  0  0  0  0  0  0
  197.4663  181.6635  151.9087 O   0  0  0  0  0  0  0  0  0  0  0  0
  197.8234  180.6172  153.8976 N   0  0  0  0  0  0  0  0  0  0  0  0
  197.5733  181.6955  154.7943 C   0  0  0  0  0  0  0  0  0  0  0  0
  196.9106  181.4678  156.0148 C   0  0  0  0  0  0  0  0  0  0  0  0
  196.6768  182.5259  156.9236 C   0  0  0  0  0  0  0  0  0  0  0  0
  197.1228  183.8266  156.6060 C   0  0  0  0  0  0  0  0  0  0  0  0
  197.7974  184.0638  155.3944 C   0  0  0  0  0  0  0  0  0  0  0  0
  198.0312  183.0062  154.4953 C   0  0  0  0  0  0  0  0  0  0  0  0
  195.9497  182.2783  158.2397 C   0  0  1  0  0  0  0  0  0  0  0  0
  194.4871  182.5490  158.1385 N   0  0  1  0  0  0  0  0  0  0  0  0
  193.6666  181.3562  158.4177 C   0  0  2  0  0  0  0  0  0  0  0  0
  194.0400  183.7304  158.9092 C   0  0  2  0  0  0  0  0  0  0  0  0
  199.2724  175.7979  149.7452 C   0  0  2  0  0  0  0  0  0  0  0  0
  202.7899  175.0980  153.2246 H   0  0  0  0  0  0  0  0  0  0  0  0
  203.1570  174.5658  155.5552 H   0  0  0  0  0  0  0  0  0  0  0  0
  201.6888  175.5279  157.3402 H   0  0  0  0  0  0  0  0  0  0  0  0
  199.7889  177.0220  156.6887 H   0  0  0  0  0  0  0  0  0  0  0  0
  199.3244  177.5107  154.3649 H   0  0  0  0  0  0  0  0  0  0  0  0
  202.5929  175.7731  151.3670 H   0  0  0  0  0  0  0  0  0  0  0  0
  201.5849  176.5625  150.1836 H   0  0  0  0  0  0  0  0  0  0  0  0
  199.9409  179.0747  153.1226 H   0  0  0  0  0  0  0  0  0  0  0  0
  198.0274  179.7289  154.3362 H   0  0  0  0  0  0  0  0  0  0  0  0
  196.5930  180.4626  156.2467 H   0  0  0  0  0  0  0  0  0  0  0  0
  196.9402  184.6478  157.2857 H   0  0  0  0  0  0  0  0  0  0  0  0
  198.1399  185.0594  155.1527 H   0  0  0  0  0  0  0  0  0  0  0  0
  198.5814  183.2183  153.5904 H   0  0  0  0  0  0  0  0  0  0  0  0
  196.1352  181.2540  158.5688 H   0  0  0  0  0  0  0  0  0  0  0  0
  196.3951  182.8971  159.0197 H   0  0  0  0  0  0  0  0  0  0  0  0
  193.8171  181.0354  159.4453 H   0  0  0  0  0  0  0  0  0  0  0  0
  193.9209  180.5412  157.7446 H   0  0  0  0  0  0  0  0  0  0  0  0
  192.6110  181.5514  158.2397 H   0  0  0  0  0  0  0  0  0  0  0  0
  194.2382  183.5964  159.9715 H   0  0  0  0  0  0  0  0  0  0  0  0
  192.9686  183.8996  158.7892 H   0  0  0  0  0  0  0  0  0  0  0  0
  194.5544  184.6342  158.5831 H   0  0  0  0  0  0  0  0  0  0  0  0
  199.2773  174.9428  150.4246 H   0  0  0  0  0  0  0  0  0  0  0  0
  200.2483  175.8489  149.2700 H   0  0  0  0  0  0  0  0  0  0  0  0
  198.4830  175.5977  149.0028 H   0  0  0  0  0  0  0  0  0  0  0  0
  194.2894  182.7371  157.1473 H   0  0  0  0  0  0  0  0  0  0  0  0
  1  2  1  0
  2  3  2  0
  2 17  1  0
  3  4  1  0
  4  5  2  0
  4 31  1  0
  5  6  1  0
  5 16  1  0
  6  7  1  0
  6 13  1  0
  7  8  2  0
  7 12  1  0
  8  9  1  0
  8 32  1  0
  9 10  2  0
  9 33  1  0
 10 11  1  0
 10 34  1  0
 11 12  2  0
 11 35  1  0
 12 36  1  0
 13 14  1  0
 13 37  1  1
 13 38  1  0
 14 15  3  0
 16 17  2  0
 16 39  1  0
 17 18  1  0
 18 19  2  0
 18 20  1  0
 20 21  1  0
 20 40  1  0
 21 22  2  0
 21 26  1  0
 22 23  1  0
 22 41  1  0
 23 24  2  0
 23 27  1  0
 24 25  1  0
 24 42  1  0
 25 26  2  0
 25 43  1  0
 26 44  1  0
 27 28  1  0
 27 45  1  1
 27 46  1  0
 28 29  1  0
 28 30  1  0
 28 56  1  6
 29 47  1  1
 29 48  1  0
 29 49  1  0
 30 50  1  1
 30 51  1  0
 30 52  1  0
 31 53  1  1
 31 54  1  0
 31 55  1  0
M  CHG  1  28   1
M  END
>  <s_epik_cmdline>  (178) 
J2VwaWtfcHl0aG9uJywgJy1waCcsICc3LjAwMDAwMCcsICctcGh0JywgJzIuMDAwMDAwJywgJy1tcycsICcxNicsICctdG4nLCAnOCcsICctbWEnLCAnMjAwJywgJy1pbWFlJywgJzxpbmZpbGUubWFlPicsICctb21hZScsICc8b3V0ZmlsZS5tYWU+Jw==

>  <s_epik_input>  (178) 
W2NIXTFbY0hdW2NIXVtjSF1bY0hdYzFOKFtDSDJdQyNOKWMoYyhbQ0gzXSluYzJGKVtjSF1jMkMoPU8pW05IXWMzW2NIXWMoW2NIXVtjSF1bY0hdMylbQ0gyXU4oW0NIM10pW0NIM10=

>  <s_i_glide_gridfile>  (178) 
ATP-Grid

>  <s_lp_Force_Field>  (178) 
OPLS_2005

>  <s_lp_Variant>  (178) 
rxn512b____EMOL712348____EMOL337714226____EMOL3728368-1

>  <s_lp_label>  (178) 
2811_sdstereoexpander_1_neutralizer_1_epik_1_stereoizer_1

>  <s_m_source_file>  (178) 
ATP-VSW-LIGPREP-001-in.maegz

>  <s_sd_BIOSOLVEIT.INFINISEE\_QUERY\_NAME>  (178) 
Ref-Lig

>  <s_sd_BIOSOLVEIT.INFINISEE\_QUERY\_SMILES>  (178) 
S(c1nc2c(cc1C[NH2+]Cc3ccc(cc3)C[NH+](C)C)cccc2)Cc4ccccc4

>  <s_sd_BIOSOLVEIT.INFINISEE\_REACTION\_NAME>  (178) 
rxn512b

>  <s_sd_BIOSOLVEIT.INFINISEE\_REAGENT1\_NAME>  (178) 
EMOL712348

>  <s_sd_BIOSOLVEIT.INFINISEE\_REAGENT1\_SMILES>  (178) 
N#CCNc1ccccc1

>  <s_sd_BIOSOLVEIT.INFINISEE\_REAGENT2\_NAME>  (178) 
EMOL337714226

>  <s_sd_BIOSOLVEIT.INFINISEE\_REAGENT2\_SMILES>  (178) 
Brc1c(nc(F)c(c1)C(=O)O)C

>  <s_sd_BIOSOLVEIT.INFINISEE\_REAGENT3\_NAME>  (178) 
EMOL3728368

>  <s_sd_BIOSOLVEIT.INFINISEE\_REAGENT3\_SMILES>  (178) 
N(Cc1cc(N)ccc1)(C)C

>  <s_sd_BIOSOLVEIT.INFINISEE\_SPACE>  (178) 
eXplore_7tr_2022-12

>  <s_vsw_compound_code>  (178) 
89921

>  <s_vsw_variant>  (178) 
89921-1

>  <r_epik_Charging_Adjusted_Penalty>  (178) 
0.099390134255996201

>  <r_epik_Ionization_Penalty>  (178) 
0.049799999999999997

>  <r_epik_Ionization_Penalty_Charging>  (178) 
0.049700000000000001

>  <r_epik_Ionization_Penalty_Neutral>  (178) 
0.0001

>  <r_epik_State_Penalty>  (178) 
0.049700000000000001

>  <r_i_docking_score>  (178) 
-4.5155421637590996

>  <r_i_glide_ecoul>  (178) 
-9.0049257278442401

>  <r_i_glide_eff_state_penalty>  (178) 
0.049700000000000001

>  <r_i_glide_einternal>  (178) 
6.77236127853394

>  <r_i_glide_emodel>  (178) 
-54.940855415818497

>  <r_i_glide_energy>  (178) 
-41.269787788391099

>  <r_i_glide_erotb>  (178) 
0.677482741027854

>  <r_i_glide_esite>  (178) 
-0.111612708680181

>  <r_i_glide_evdw>  (178) 
-32.264862060546903

>  <r_i_glide_gscore>  (178) 
-4.5652421637591001

>  <r_i_glide_hbond>  (178) 
-0.20000000000000001

>  <r_i_glide_ligand_efficiency>  (178) 
-0.145662650443842

>  <r_i_glide_ligand_efficiency_ln>  (178) 
-1.0183931426756201

>  <r_i_glide_ligand_efficiency_sa>  (178) 
-0.457581831356559

>  <r_i_glide_lipo>  (178) 
-1.1363074835756499

>  <r_i_glide_metal>  (178) 
-0

>  <r_i_glide_rewards>  (178) 
-0.83082275032714004

>  <r_lp_Energy>  (178) 
33.766942

>  <r_lp_tautomer_probability>  (178) 
1

>  <r_qp_ACxDN^.5/SA>  (178) 
0.0098288999999999998

>  <r_qp_CIQPlogS>  (178) 
-5.726

>  <r_qp_EA(eV)>  (178) 
1.2330000000000001

>  <r_qp_FISA>  (178) 
118.92

>  <r_qp_FOSA>  (178) 
281.786

>  <r_qp_IP(eV)>  (178) 
8.8209999999999997

>  <r_qp_Jm>  (178) 
6.7328275091538202e-05

>  <r_qp_PISA>  (178) 
330.11399999999998

>  <r_qp_PSA>  (178) 
78.736999999999995

>  <r_qp_PercentHumanOralAbsorption>  (178) 
90.096000000000004

>  <r_qp_QPPCaco>  (178) 
184.113

>  <r_qp_QPPMDCK>  (178) 
131.96600000000001

>  <r_qp_QPlogBB>  (178) 
-0.74099999999999999

>  <r_qp_QPlogHERG>  (178) 
-7.3769999999999998

>  <r_qp_QPlogKhsa>  (178) 
0.48399999999999999

>  <r_qp_QPlogKp>  (178) 
-3.843

>  <r_qp_QPlogPC16>  (178) 
14.233000000000001

>  <r_qp_QPlogPo/w>  (178) 
3.8610000000000002

>  <r_qp_QPlogPoct>  (178) 
21.527999999999999

>  <r_qp_QPlogPw>  (178) 
11.708

>  <r_qp_QPlogS>  (178) 
-5.9500000000000002

>  <r_qp_QPpolrz>  (178) 
46.600000000000001

>  <r_qp_SASA>  (178) 
763.05600000000004

>  <r_qp_SAamideO>  (178) 
0

>  <r_qp_SAfluorine>  (178) 
32.235999999999997

>  <r_qp_WPSA>  (178) 
32.235999999999997

>  <r_qp_accptHB>  (178) 
7.5

>  <r_qp_dip^2/V>  (178) 
0.039482299999999998

>  <r_qp_dipole>  (178) 
7.3490000000000002

>  <r_qp_donorHB>  (178) 
1

>  <r_qp_glob>  (178) 
0.78093639999999998

>  <r_qp_mol_MW>  (178) 
417.48500000000001

>  <r_qp_volume>  (178) 
1367.7619999999999

>  <r_sd_BIOSOLVEIT.INFINISEE\_FTREES\_SIMILARITY>  (178) 
0.90600000000000003

>  <r_sd_BIOSOLVEIT.LOGP>  (178) 
3.0876000000000001

>  <r_sd_BIOSOLVEIT.MOLECULAR\_WEIGHT>  (178) 
418.49400000000003

>  <r_sd_BIOSOLVEIT.TPSA>  (178) 
73.459999999999994

>  <i_epik_Tot_Q>  (178) 
1

>  <i_epik_Tot_abs_Q>  (178) 
1

>  <i_f3d_flags>  (178) 
0

>  <i_i_glide_confnum>  (178) 
3

>  <i_i_glide_lignum>  (178) 
1283

>  <i_i_glide_posenum>  (178) 
4

>  <i_i_glide_rotatable_bonds>  (178) 
8

>  <i_lp_mmshare_version>  (178) 
65135

>  <i_m_ct_format>  (178) 
2

>  <i_m_source_file_index>  (178) 
2811

>  <i_qp_#NandO>  (178) 
6

>  <i_qp_#acid>  (178) 
0

>  <i_qp_#amide>  (178) 
0

>  <i_qp_#amidine>  (178) 
0

>  <i_qp_#amine>  (178) 
1

>  <i_qp_#in34>  (178) 
0

>  <i_qp_#in56>  (178) 
18

>  <i_qp_#metab>  (178) 
8

>  <i_qp_#nonHatm>  (178) 
31

>  <i_qp_#noncon>  (178) 
0

>  <i_qp_#ringatoms>  (178) 
18

>  <i_qp_#rotor>  (178) 
8

>  <i_qp_#rtvFG>  (178) 
0

>  <i_qp_#stars>  (178) 
0

>  <i_qp_CNS>  (178) 
0

>  <i_qp_HumanOralAbsorption>  (178) 
3

>  <i_qp_RuleOfFive>  (178) 
0

>  <i_qp_RuleOfThree>  (178) 
2

>  <i_sd_BIOSOLVEIT.INFINISEE\_RESULT\_RANK>  (178) 
64675

>  <i_sd_version>  (178) 
0

>  <b_lp_Chiralities_Consistent>  (178) 
1

>  <b_sd_chiral_flag>  (178) 
0

>  <canonical_id>  (178) 
ATP-HTVS-1B84D304C2ED

>  <compound_code>  (178) 
89921

>  <title>  (178) 
rxn512b____EMOL712348____EMOL337714226____EMOL3728368

>  <variant>  (178) 
89921-1

>  <source_file>  (178) 
运行/运行/ATP-VSW/ATP-VSW-DOCK_HTVS_1-001_lib/ATP-VSW-DOCK_HTVS_1-001_lib

>  <canonical_smiles>  (178) 
Cc1nc(F)c(C(=O)Nc2cccc(C[NH+](C)C)c2)cc1N(CC#N)c1ccccc1

>  <scaffold>  (178) 
O=C(Nc1ccccc1)c1cncc(Nc2ccccc2)c1

>  <molecular_formula>  (178) 
C24H25FN5O+

$$$$
ATP-HTVS-1B9CB386F0F9
     RDKit          3D

 54 57  0  0  0  0  0  0  0  0999 V2000
  201.1756  178.3886  151.8460 O   0  0  0  0  0  0  0  0  0  0  0  0
  200.2869  178.7331  152.6746 C   0  0  0  0  0  0  0  0  0  0  0  0
  200.3571  178.6447  154.0080 N   0  0  0  0  0  0  0  0  0  0  0  0
  199.1329  179.1645  154.6693 C   0  0  2  0  0  0  0  0  0  0  0  0
  198.2402  179.4531  153.4787 C   0  0  0  0  0  0  0  0  0  0  0  0
  198.9432  179.1634  152.3166 C   0  0  0  0  0  0  0  0  0  0  0  0
  198.3477  179.2862  151.0429 C   0  0  0  0  0  0  0  0  0  0  0  0
  197.0228  179.7743  150.9733 C   0  0  0  0  0  0  0  0  0  0  0  0
  196.3273  180.1127  152.1611 C   0  0  0  0  0  0  0  0  0  0  0  0
  196.9172  179.9400  153.4304 C   0  0  0  0  0  0  0  0  0  0  0  0
  199.4492  180.4328  155.4893 C   0  0  1  0  0  0  0  0  0  0  0  0
  198.2407  180.9745  156.1012 N   0  0  0  0  0  0  0  0  0  0  0  0
  198.4127  182.3335  156.5983 C   0  0  2  0  0  0  0  0  0  0  0  0
  197.3451  182.7101  157.6255 C   0  0  0  0  0  0  0  0  0  0  0  0
  197.6484  183.5544  158.7299 C   0  0  0  0  0  0  0  0  0  0  0  0
  196.6368  183.8915  159.6535 C   0  0  0  0  0  0  0  0  0  0  0  0
  195.3268  183.4102  159.4881 C   0  0  0  0  0  0  0  0  0  0  0  0
  195.0204  182.5760  158.3996 C   0  0  0  0  0  0  0  0  0  0  0  0
  196.0220  182.2361  157.4728 C   0  0  0  0  0  0  0  0  0  0  0  0
  199.0441  184.1114  158.9378 C   0  0  2  0  0  0  0  0  0  0  0  0
  198.4084  183.3327  155.4179 C   0  0  2  0  0  0  0  0  0  0  0  0
  201.4203  178.0204  154.7860 C   0  0  1  0  0  0  0  0  0  0  0  0
  201.4997  176.4931  154.6935 C   0  0  0  0  0  0  0  0  0  0  0  0
  201.0767  175.7962  153.5248 C   0  0  0  0  0  0  0  0  0  0  0  0
  201.1950  174.3919  153.4727 C   0  0  0  0  0  0  0  0  0  0  0  0
  201.7301  173.6617  154.5556 C   0  0  0  0  0  0  0  0  0  0  0  0
  202.1564  174.3517  155.7066 C   0  0  0  0  0  0  0  0  0  0  0  0
  202.0326  175.7573  155.7762 C   0  0  0  0  0  0  0  0  0  0  0  0
  197.8476  180.3619  156.8097 H   0  0  0  0  0  0  0  0  0  0  0  0
  198.6934  178.3825  155.2908 H   0  0  0  0  0  0  0  0  0  0  0  0
  198.8926  179.0085  150.1498 H   0  0  0  0  0  0  0  0  0  0  0  0
  196.5459  179.9032  150.0097 H   0  0  0  0  0  0  0  0  0  0  0  0
  195.3270  180.5151  152.0928 H   0  0  0  0  0  0  0  0  0  0  0  0
  196.3841  180.1910  154.3353 H   0  0  0  0  0  0  0  0  0  0  0  0
  200.1686  180.2228  156.2795 H   0  0  0  0  0  0  0  0  0  0  0  0
  199.9200  181.1489  154.8158 H   0  0  0  0  0  0  0  0  0  0  0  0
  199.3778  182.3672  157.0979 H   0  0  0  0  0  0  0  0  0  0  0  0
  196.8606  184.5275  160.4987 H   0  0  0  0  0  0  0  0  0  0  0  0
  194.5547  183.6711  160.1957 H   0  0  0  0  0  0  0  0  0  0  0  0
  194.0192  182.1975  158.2618 H   0  0  0  0  0  0  0  0  0  0  0  0
  195.7513  181.6093  156.6350 H   0  0  0  0  0  0  0  0  0  0  0  0
  199.0700  184.8083  159.7754 H   0  0  0  0  0  0  0  0  0  0  0  0
  199.3799  184.6522  158.0522 H   0  0  0  0  0  0  0  0  0  0  0  0
  199.7489  183.3056  159.1474 H   0  0  0  0  0  0  0  0  0  0  0  0
  198.5911  184.3487  155.7668 H   0  0  0  0  0  0  0  0  0  0  0  0
  197.4470  183.3364  154.9023 H   0  0  0  0  0  0  0  0  0  0  0  0
  199.1730  183.1248  154.6708 H   0  0  0  0  0  0  0  0  0  0  0  0
  202.3796  178.4475  154.4878 H   0  0  0  0  0  0  0  0  0  0  0  0
  201.3033  178.2931  155.8304 H   0  0  0  0  0  0  0  0  0  0  0  0
  200.6836  176.3078  152.6663 H   0  0  0  0  0  0  0  0  0  0  0  0
  200.8764  173.8694  152.5812 H   0  0  0  0  0  0  0  0  0  0  0  0
  201.8061  172.5872  154.5054 H   0  0  0  0  0  0  0  0  0  0  0  0
  202.5708  173.8087  156.5372 H   0  0  0  0  0  0  0  0  0  0  0  0
  202.3603  176.2702  156.6714 H   0  0  0  0  0  0  0  0  0  0  0  0
  1  2  2  0
  2  3  1  0
  2  6  1  0
  3  4  1  0
  3 22  1  0
  4  5  1  0
  4 11  1  0
  4 30  1  1
  5  6  1  0
  5 10  2  0
  6  7  2  0
  7  8  1  0
  7 31  1  0
  8  9  2  0
  8 32  1  0
  9 10  1  0
  9 33  1  0
 10 34  1  0
 11 12  1  0
 11 35  1  1
 11 36  1  0
 12 13  1  0
 12 29  1  0
 13 14  1  0
 13 21  1  0
 13 37  1  1
 14 15  1  0
 14 19  2  0
 15 16  2  0
 15 20  1  0
 16 17  1  0
 16 38  1  0
 17 18  2  0
 17 39  1  0
 18 19  1  0
 18 40  1  0
 19 41  1  0
 20 42  1  1
 20 43  1  0
 20 44  1  0
 21 45  1  1
 21 46  1  0
 21 47  1  0
 22 23  1  0
 22 48  1  6
 22 49  1  0
 23 24  2  0
 23 28  1  0
 24 25  1  0
 24 50  1  0
 25 26  2  0
 25 51  1  0
 26 27  1  0
 26 52  1  0
 27 28  2  0
 27 53  1  0
 28 54  1  0
M  END
>  <s_epik_cmdline>  (179) 
J2VwaWtfcHl0aG9uJywgJy1waCcsICc3LjAwMDAwMCcsICctcGh0JywgJzIuMDAwMDAwJywgJy1tcycsICcxNicsICctdG4nLCAnOCcsICctbWEnLCAnMjAwJywgJy1pbWFlJywgJzxpbmZpbGUubWFlPicsICctb21hZScsICc8b3V0ZmlsZS5tYWU+Jw==

>  <s_epik_input>  (179) 
W2NIXTFbY0hdW2NIXVtjSF1bY0hdYzFbQ0gyXU4oQyg9TyljKGMyMylbY0hdW2NIXVtjSF1bY0hdMylbQ0BIXTJbQ0gyXVtOSF1bQ0BASF0oW0NIM10pYzRjKFtDSDNdKVtjSF1bY0hdW2NIXVtjSF00

>  <s_i_glide_gridfile>  (179) 
ATP-Grid

>  <s_lp_Force_Field>  (179) 
OPLS_2005

>  <s_lp_Variant>  (179) 
m_269862bba____12219714____7200476-7

>  <s_lp_label>  (179) 
712_sdstereoexpander_3_neutralizer_1_epik_2_stereoizer_1

>  <s_m_source_file>  (179) 
ATP-VSW-LIGPREP-003-in.maegz

>  <s_sd_BIOSOLVEIT.INFINISEE\_QUERY\_NAME>  (179) 
Ref-Lig

>  <s_sd_BIOSOLVEIT.INFINISEE\_QUERY\_SMILES>  (179) 
S(c1nc2c(cc1C[NH2+]Cc3ccc(cc3)C[NH+](C)C)cccc2)Cc4ccccc4

>  <s_sd_BIOSOLVEIT.INFINISEE\_REACTION\_NAME>  (179) 
m_269862bba

>  <s_sd_BIOSOLVEIT.INFINISEE\_REAGENT1\_SMILES>  (179) 
[R1*]NCC1N(C(=O)c2c1cccc2)Cc3ccccc3

>  <s_sd_BIOSOLVEIT.INFINISEE\_REAGENT2\_SMILES>  (179) 
[R1*]C(c1c(cccc1)C)C

>  <s_sd_BIOSOLVEIT.INFINISEE\_SPACE>  (179) 
REALSpace_44bn_2023-08

>  <s_vsw_compound_code>  (179) 
22755

>  <s_vsw_variant>  (179) 
22755-7

>  <r_epik_Charging_Adjusted_Penalty>  (179) 
1.4350598902251399

>  <r_epik_Ionization_Penalty>  (179) 
1.4351

>  <r_epik_Ionization_Penalty_Charging>  (179) 
0

>  <r_epik_Ionization_Penalty_Neutral>  (179) 
1.4351

>  <r_epik_State_Penalty>  (179) 
1.4351

>  <r_i_docking_score>  (179) 
-2.1833100640540999

>  <r_i_glide_ecoul>  (179) 
-2.31301069259644

>  <r_i_glide_eff_state_penalty>  (179) 
1.4351

>  <r_i_glide_einternal>  (179) 
2.9068472385406499

>  <r_i_glide_emodel>  (179) 
-40.444226722003798

>  <r_i_glide_energy>  (179) 
-33.798566341400097

>  <r_i_glide_erotb>  (179) 
0.84332947190735397

>  <r_i_glide_esite>  (179) 
-0.00054820556783851098

>  <r_i_glide_evdw>  (179) 
-31.4855556488037

>  <r_i_glide_gscore>  (179) 
-3.6184100640541002

>  <r_i_glide_hbond>  (179) 
0

>  <r_i_glide_ligand_efficiency>  (179) 
-0.077975359430503502

>  <r_i_glide_ligand_efficiency_ln>  (179) 
-0.50397206755269297

>  <r_i_glide_ligand_efficiency_sa>  (179) 
-0.236779116261709

>  <r_i_glide_lipo>  (179) 
-1.6569169895185101

>  <r_i_glide_metal>  (179) 
-0

>  <r_i_glide_rewards>  (179) 
-0.88304495454545295

>  <r_lp_Energy>  (179) 
47.493957000000002

>  <r_qp_ACxDN^.5/SA>  (179) 
0.0068205000000000002

>  <r_qp_CIQPlogS>  (179) 
-5.0919999999999996

>  <r_qp_EA(eV)>  (179) 
0.378

>  <r_qp_FISA>  (179) 
38.087000000000003

>  <r_qp_FOSA>  (179) 
199.214

>  <r_qp_IP(eV)>  (179) 
9.3659999999999997

>  <r_qp_Jm>  (179) 
0.079703490239272895

>  <r_qp_PISA>  (179) 
422.471

>  <r_qp_PSA>  (179) 
38.176000000000002

>  <r_qp_PercentHumanOralAbsorption>  (179) 
100

>  <r_qp_QPPCaco>  (179) 
1075.521

>  <r_qp_QPPMDCK>  (179) 
592.11500000000001

>  <r_qp_QPlogBB>  (179) 
0.24299999999999999

>  <r_qp_QPlogHERG>  (179) 
-6.8099999999999996

>  <r_qp_QPlogKhsa>  (179) 
0.85199999999999998

>  <r_qp_QPlogKp>  (179) 
-2.2200000000000002

>  <r_qp_QPlogPC16>  (179) 
13.148999999999999

>  <r_qp_QPlogPo/w>  (179) 
4.8600000000000003

>  <r_qp_QPlogPoct>  (179) 
18.475000000000001

>  <r_qp_QPlogPw>  (179) 
9.0129999999999999

>  <r_qp_QPlogS>  (179) 
-4.4480000000000004

>  <r_qp_QPpolrz>  (179) 
43.405000000000001

>  <r_qp_SASA>  (179) 
659.77200000000005

>  <r_qp_SAamideO>  (179) 
0

>  <r_qp_SAfluorine>  (179) 
0

>  <r_qp_WPSA>  (179) 
0

>  <r_qp_accptHB>  (179) 
4.5

>  <r_qp_dip^2/V>  (179) 
0.025347399999999999

>  <r_qp_dipole>  (179) 
5.5919999999999996

>  <r_qp_donorHB>  (179) 
1

>  <r_qp_glob>  (179) 
0.84320620000000002

>  <r_qp_mol_MW>  (179) 
370.49299999999999

>  <r_qp_volume>  (179) 
1233.796

>  <r_sd_BIOSOLVEIT.INFINISEE\_FTREES\_SIMILARITY>  (179) 
0.92900000000000005

>  <r_sd_BIOSOLVEIT.LOGP>  (179) 
4.0167200000000003

>  <r_sd_BIOSOLVEIT.MOLECULAR\_WEIGHT>  (179) 
371.50099999999998

>  <r_sd_BIOSOLVEIT.TPSA>  (179) 
36.920000000000002

>  <i_epik_Tot_Q>  (179) 
0

>  <i_epik_Tot_abs_Q>  (179) 
0

>  <i_f3d_flags>  (179) 
0

>  <i_i_glide_confnum>  (179) 
6

>  <i_i_glide_lignum>  (179) 
300

>  <i_i_glide_posenum>  (179) 
2

>  <i_i_glide_rotatable_bonds>  (179) 
6

>  <i_lp_mmshare_version>  (179) 
65135

>  <i_m_ct_format>  (179) 
2

>  <i_m_source_file_index>  (179) 
712

>  <i_qp_#NandO>  (179) 
3

>  <i_qp_#acid>  (179) 
0

>  <i_qp_#amide>  (179) 
0

>  <i_qp_#amidine>  (179) 
0

>  <i_qp_#amine>  (179) 
1

>  <i_qp_#in34>  (179) 
0

>  <i_qp_#in56>  (179) 
21

>  <i_qp_#metab>  (179) 
6

>  <i_qp_#nonHatm>  (179) 
28

>  <i_qp_#noncon>  (179) 
1

>  <i_qp_#ringatoms>  (179) 
21

>  <i_qp_#rotor>  (179) 
6

>  <i_qp_#rtvFG>  (179) 
0

>  <i_qp_#stars>  (179) 
0

>  <i_qp_CNS>  (179) 
1

>  <i_qp_HumanOralAbsorption>  (179) 
3

>  <i_qp_RuleOfFive>  (179) 
0

>  <i_qp_RuleOfThree>  (179) 
0

>  <i_sd_BIOSOLVEIT.INFINISEE\_REAGENT1\_NAME>  (179) 
12219714

>  <i_sd_BIOSOLVEIT.INFINISEE\_REAGENT2\_NAME>  (179) 
7200476

>  <i_sd_BIOSOLVEIT.INFINISEE\_RESULT\_RANK>  (179) 
5214

>  <i_sd_version>  (179) 
0

>  <b_lp_Chiralities_Consistent>  (179) 
1

>  <b_sd_chiral_flag>  (179) 
0

>  <canonical_id>  (179) 
ATP-HTVS-1B9CB386F0F9

>  <compound_code>  (179) 
22755

>  <title>  (179) 
m_269862bba____12219714____7200476

>  <variant>  (179) 
22755-7

>  <source_file>  (179) 
运行/运行/ATP-VSW/ATP-VSW-DOCK_HTVS_1-003_lib/ATP-VSW-DOCK_HTVS_1-003_lib.mae

>  <canonical_smiles>  (179) 
Cc1ccccc1[C@H](C)NC[C@H]1c2ccccc2C(=O)N1Cc1ccccc1

>  <scaffold>  (179) 
O=C1c2ccccc2C(CNCc2ccccc2)N1Cc1ccccc1

>  <molecular_formula>  (179) 
C25H26N2O

$$$$
ATP-HTVS-1C066C79A7D0
     RDKit          3D

 65 67  0  0  0  0  0  0  0  0999 V2000
  198.2033  178.7324  149.8318 O   0  0  0  0  0  0  0  0  0  0  0  0
  198.1110  179.0762  151.1539 C   0  0  0  0  0  0  0  0  0  0  0  0
  199.0996  178.6267  152.0561 C   0  0  0  0  0  0  0  0  0  0  0  0
  200.1373  177.8738  151.5410 O   0  0  0  0  0  0  0  0  0  0  0  0
  201.1481  177.4211  152.4342 C   0  0  2  0  0  0  0  0  0  0  0  0
  198.9747  178.9662  153.4247 C   0  0  0  0  0  0  0  0  0  0  0  0
  197.8774  179.7201  153.8819 C   0  0  0  0  0  0  0  0  0  0  0  0
  196.8912  180.1576  152.9739 C   0  0  0  0  0  0  0  0  0  0  0  0
  197.0018  179.8234  151.6123 C   0  0  0  0  0  0  0  0  0  0  0  0
  196.0336  180.2205  150.7368 O   0  0  0  0  0  0  0  0  0  0  0  0
  197.7552  180.0278  155.3525 C   0  0  1  0  0  0  0  0  0  0  0  0
  198.6486  181.1463  155.7206 N   0  0  1  0  0  0  0  0  0  0  0  0
  198.7218  181.3944  157.1677 C   0  0  1  0  0  0  0  0  0  0  0  0
  198.1243  182.7606  157.5989 C   0  0  2  0  0  0  0  0  0  0  0  0
  199.2017  183.7782  157.9277 C   0  0  0  0  0  0  0  0  0  0  0  0
  199.3786  184.9131  157.0981 C   0  0  0  0  0  0  0  0  0  0  0  0
  200.3600  185.8742  157.4090 C   0  0  0  0  0  0  0  0  0  0  0  0
  201.1682  185.7111  158.5499 C   0  0  0  0  0  0  0  0  0  0  0  0
  200.9918  184.5886  159.3840 C   0  0  0  0  0  0  0  0  0  0  0  0
  200.0108  183.6273  159.0701 C   0  0  0  0  0  0  0  0  0  0  0  0
  197.0875  182.6477  158.7426 C   0  0  1  0  0  0  0  0  0  0  0  0
  195.9626  181.7372  158.4042 N   0  0  1  0  0  0  0  0  0  0  0  0
  195.0198  181.4790  159.4865 C   0  0  2  0  0  0  0  0  0  0  0  0
  195.1965  182.1536  157.2280 C   0  0  2  0  0  0  0  0  0  0  0  0
  198.6610  179.7853  148.9983 C   0  0  1  0  0  0  0  0  0  0  0  0
  198.4599  179.4836  147.5279 C   0  0  0  0  0  0  0  0  0  0  0  0
  197.5470  178.4841  147.1120 C   0  0  0  0  0  0  0  0  0  0  0  0
  197.3506  178.2452  145.7407 C   0  0  0  0  0  0  0  0  0  0  0  0
  198.0342  179.0166  144.7852 C   0  0  0  0  0  0  0  0  0  0  0  0
  198.9498  180.0065  145.1925 C   0  0  0  0  0  0  0  0  0  0  0  0
  199.1506  180.2430  146.5639 C   0  0  0  0  0  0  0  0  0  0  0  0
  199.5768  180.9176  155.3885 H   0  0  0  0  0  0  0  0  0  0  0  0
  201.9035  176.8666  151.8766 H   0  0  0  0  0  0  0  0  0  0  0  0
  200.7410  176.7491  153.1926 H   0  0  0  0  0  0  0  0  0  0  0  0
  201.6540  178.2551  152.9251 H   0  0  0  0  0  0  0  0  0  0  0  0
  199.7018  178.6268  154.1496 H   0  0  0  0  0  0  0  0  0  0  0  0
  196.0426  180.7354  153.3090 H   0  0  0  0  0  0  0  0  0  0  0  0
  196.2731  179.9984  149.8510 H   0  0  0  0  0  0  0  0  0  0  0  0
  196.7198  180.2662  155.5869 H   0  0  0  0  0  0  0  0  0  0  0  0
  197.9929  179.1251  155.9217 H   0  0  0  0  0  0  0  0  0  0  0  0
  198.2128  180.5588  157.6675 H   0  0  0  0  0  0  0  0  0  0  0  0
  199.7614  181.2997  157.4748 H   0  0  0  0  0  0  0  0  0  0  0  0
  197.6305  183.2171  156.7465 H   0  0  0  0  0  0  0  0  0  0  0  0
  198.7630  185.0653  156.2247 H   0  0  0  0  0  0  0  0  0  0  0  0
  200.4909  186.7388  156.7691 H   0  0  0  0  0  0  0  0  0  0  0  0
  201.9236  186.4476  158.7847 H   0  0  0  0  0  0  0  0  0  0  0  0
  201.6120  184.4656  160.2627 H   0  0  0  0  0  0  0  0  0  0  0  0
  199.8910  182.7759  159.7244 H   0  0  0  0  0  0  0  0  0  0  0  0
  197.5642  182.2733  159.6466 H   0  0  0  0  0  0  0  0  0  0  0  0
  196.6870  183.6272  158.9942 H   0  0  0  0  0  0  0  0  0  0  0  0
  194.5715  182.4149  159.8136 H   0  0  0  0  0  0  0  0  0  0  0  0
  195.5159  180.9503  160.2811 H   0  0  0  0  0  0  0  0  0  0  0  0
  194.2236  180.8057  159.1606 H   0  0  0  0  0  0  0  0  0  0  0  0
  194.7481  183.1283  157.3963 H   0  0  0  0  0  0  0  0  0  0  0  0
  194.4168  181.4188  157.0370 H   0  0  0  0  0  0  0  0  0  0  0  0
  195.7840  182.1875  156.3146 H   0  0  0  0  0  0  0  0  0  0  0  0
  198.1431  180.7238  149.2064 H   0  0  0  0  0  0  0  0  0  0  0  0
  199.7221  179.9577  149.1906 H   0  0  0  0  0  0  0  0  0  0  0  0
  196.9877  177.9040  147.8288 H   0  0  0  0  0  0  0  0  0  0  0  0
  196.6563  177.4784  145.4291 H   0  0  0  0  0  0  0  0  0  0  0  0
  197.8905  178.8258  143.7346 H   0  0  0  0  0  0  0  0  0  0  0  0
  199.4879  180.5722  144.4477 H   0  0  0  0  0  0  0  0  0  0  0  0
  199.8427  181.0181  146.8703 H   0  0  0  0  0  0  0  0  0  0  0  0
  196.2956  180.8132  158.1864 H   0  0  0  0  0  0  0  0  0  0  0  0
  198.3577  181.9822  155.2393 H   0  0  0  0  0  0  0  0  0  0  0  0
  1  2  1  0
  1 25  1  0
  2  3  2  0
  2  9  1  0
  3  4  1  0
  3  6  1  0
  4  5  1  0
  5 33  1  6
  5 34  1  0
  5 35  1  0
  6  7  2  0
  6 36  1  0
  7  8  1  0
  7 11  1  0
  8  9  2  0
  8 37  1  0
  9 10  1  0
 10 38  1  0
 11 12  1  0
 11 39  1  6
 11 40  1  0
 12 13  1  0
 12 32  1  6
 12 65  1  0
 13 14  1  0
 13 41  1  1
 13 42  1  0
 14 15  1  0
 14 21  1  0
 14 43  1  6
 15 16  2  0
 15 20  1  0
 16 17  1  0
 16 44  1  0
 17 18  2  0
 17 45  1  0
 18 19  1  0
 18 46  1  0
 19 20  2  0
 19 47  1  0
 20 48  1  0
 21 22  1  0
 21 49  1  1
 21 50  1  0
 22 23  1  0
 22 24  1  0
 22 64  1  6
 23 51  1  1
 23 52  1  0
 23 53  1  0
 24 54  1  1
 24 55  1  0
 24 56  1  0
 25 26  1  0
 25 57  1  1
 25 58  1  0
 26 27  2  0
 26 31  1  0
 27 28  1  0
 27 59  1  0
 28 29  2  0
 28 60  1  0
 29 30  1  0
 29 61  1  0
 30 31  2  0
 30 62  1  0
 31 63  1  0
M  CHG  2  12   1  22   1
M  END
>  <s_epik_cmdline>  (180) 
J2VwaWtfcHl0aG9uJywgJy1waCcsICc3LjAwMDAwMCcsICctcGh0JywgJzIuMDAwMDAwJywgJy1tcycsICcxNicsICctdG4nLCAnOCcsICctbWEnLCAnMjAwJywgJy1pbWFlJywgJzxpbmZpbGUubWFlPicsICctb21hZScsICc8b3V0ZmlsZS5tYWU+Jw==

>  <s_epik_input>  (180) 
W2NIXTFbY0hdW2NIXVtjSF1bY0hdYzFbQ0gyXU9jMmMoT1tDSDNdKVtjSF1jKFtjSF1jMltPSF0pW0NIMl1bTkhdW0NIMl1bQ0BASF0oW0NIMl1OKFtDSDNdKVtDSDNdKWMzW2NIXVtjSF1bY0hdW2NIXVtjSF0z

>  <s_i_glide_gridfile>  (180) 
ATP-Grid

>  <s_lp_Force_Field>  (180) 
OPLS_2005

>  <s_lp_Variant>  (180) 
m_270004bbb____23846038____24720040-2

>  <s_lp_label>  (180) 
1392_sdstereoexpander_2_neutralizer_1_epik_1_stereoizer_1

>  <s_m_source_file>  (180) 
ATP-VSW-LIGPREP-003-in.maegz

>  <s_sd_BIOSOLVEIT.INFINISEE\_QUERY\_NAME>  (180) 
Ref-Lig

>  <s_sd_BIOSOLVEIT.INFINISEE\_QUERY\_SMILES>  (180) 
S(c1nc2c(cc1C[NH2+]Cc3ccc(cc3)C[NH+](C)C)cccc2)Cc4ccccc4

>  <s_sd_BIOSOLVEIT.INFINISEE\_REACTION\_NAME>  (180) 
m_270004bbb

>  <s_sd_BIOSOLVEIT.INFINISEE\_REAGENT1\_SMILES>  (180) 
[R1*]NCC(c1ccccc1)CN(C)C

>  <s_sd_BIOSOLVEIT.INFINISEE\_REAGENT2\_SMILES>  (180) 
[R1*]Cc1cc(OC)c(OCc2ccccc2)c(O)c1

>  <s_sd_BIOSOLVEIT.INFINISEE\_SPACE>  (180) 
REALSpace_44bn_2023-08

>  <s_vsw_compound_code>  (180) 
44515

>  <s_vsw_variant>  (180) 
44515-2

>  <r_epik_Charging_Adjusted_Penalty>  (180) 
0.256652342076165

>  <r_epik_Ionization_Penalty>  (180) 
0.1346

>  <r_epik_Ionization_Penalty_Charging>  (180) 
0.1303

>  <r_epik_Ionization_Penalty_Neutral>  (180) 
0.0043

>  <r_epik_State_Penalty>  (180) 
0.1263

>  <r_i_docking_score>  (180) 
-3.6833127918706401

>  <r_i_glide_ecoul>  (180) 
-11.6913795471191

>  <r_i_glide_eff_state_penalty>  (180) 
0.1263

>  <r_i_glide_einternal>  (180) 
10.402651786804199

>  <r_i_glide_emodel>  (180) 
-40.227977949585302

>  <r_i_glide_energy>  (180) 
-30.9432163238525

>  <r_i_glide_erotb>  (180) 
0.887629996993056

>  <r_i_glide_esite>  (180) 
-0.125031042327065

>  <r_i_glide_evdw>  (180) 
-19.251836776733398

>  <r_i_glide_gscore>  (180) 
-3.8096127918706402

>  <r_i_glide_hbond>  (180) 
-0.162600992534948

>  <r_i_glide_ligand_efficiency>  (180) 
-0.118816541673246

>  <r_i_glide_ligand_efficiency_ln>  (180) 
-0.83069991454752601

>  <r_i_glide_ligand_efficiency_sa>  (180) 
-0.373247984769149

>  <r_i_glide_lipo>  (180) 
-0.71531034673350102

>  <r_i_glide_metal>  (180) 
-0

>  <r_i_glide_rewards>  (180) 
-0.97800163636363502

>  <r_lp_Energy>  (180) 
43.467818000000001

>  <r_lp_tautomer_probability>  (180) 
0.99999999996300004

>  <r_qp_ACxDN^.5/SA>  (180) 
0.0100471

>  <r_qp_CIQPlogS>  (180) 
-4.3819999999999997

>  <r_qp_EA(eV)>  (180) 
0.17499999999999999

>  <r_qp_FISA>  (180) 
49.006999999999998

>  <r_qp_FOSA>  (180) 
338.44

>  <r_qp_IP(eV)>  (180) 
9.0289999999999999

>  <r_qp_Jm>  (180) 
0.0023009852817455901

>  <r_qp_PISA>  (180) 
421.91399999999999

>  <r_qp_PSA>  (180) 
53.009

>  <r_qp_PercentHumanOralAbsorption>  (180) 
100

>  <r_qp_QPPCaco>  (180) 
211.33199999999999

>  <r_qp_QPPMDCK>  (180) 
112.84399999999999

>  <r_qp_QPlogBB>  (180) 
0.083000000000000004

>  <r_qp_QPlogHERG>  (180) 
-8.7560000000000002

>  <r_qp_QPlogKhsa>  (180) 
0.86399999999999999

>  <r_qp_QPlogKp>  (180) 
-3.9100000000000001

>  <r_qp_QPlogPC16>  (180) 
15.731999999999999

>  <r_qp_QPlogPo/w>  (180) 
4.9409999999999998

>  <r_qp_QPlogPoct>  (180) 
21.693999999999999

>  <r_qp_QPlogPw>  (180) 
10.816000000000001

>  <r_qp_QPlogS>  (180) 
-4.3520000000000003

>  <r_qp_QPpolrz>  (180) 
48.444000000000003

>  <r_qp_SASA>  (180) 
809.36099999999999

>  <r_qp_SAamideO>  (180) 
0

>  <r_qp_SAfluorine>  (180) 
0

>  <r_qp_WPSA>  (180) 
0

>  <r_qp_accptHB>  (180) 
5.75

>  <r_qp_dip^2/V>  (180) 
0.0061380999999999996

>  <r_qp_dipole>  (180) 
2.9900000000000002

>  <r_qp_donorHB>  (180) 
2

>  <r_qp_glob>  (180) 
0.7676328

>  <r_qp_mol_MW>  (180) 
420.55000000000001

>  <r_qp_volume>  (180) 
1456.117

>  <r_sd_BIOSOLVEIT.INFINISEE\_FTREES\_SIMILARITY>  (180) 
0.90900000000000003

>  <r_sd_BIOSOLVEIT.LOGP>  (180) 
1.9715

>  <r_sd_BIOSOLVEIT.MOLECULAR\_WEIGHT>  (180) 
422.56599999999997

>  <r_sd_BIOSOLVEIT.TPSA>  (180) 
59.740000000000002

>  <i_epik_Tot_Q>  (180) 
2

>  <i_epik_Tot_abs_Q>  (180) 
2

>  <i_f3d_flags>  (180) 
0

>  <i_i_glide_confnum>  (180) 
4

>  <i_i_glide_lignum>  (180) 
538

>  <i_i_glide_posenum>  (180) 
7

>  <i_i_glide_rotatable_bonds>  (180) 
12

>  <i_lp_mmshare_version>  (180) 
65135

>  <i_m_ct_format>  (180) 
2

>  <i_m_source_file_index>  (180) 
1392

>  <i_qp_#NandO>  (180) 
5

>  <i_qp_#acid>  (180) 
0

>  <i_qp_#amide>  (180) 
0

>  <i_qp_#amidine>  (180) 
0

>  <i_qp_#amine>  (180) 
2

>  <i_qp_#in34>  (180) 
0

>  <i_qp_#in56>  (180) 
18

>  <i_qp_#metab>  (180) 
9

>  <i_qp_#nonHatm>  (180) 
31

>  <i_qp_#noncon>  (180) 
0

>  <i_qp_#ringatoms>  (180) 
18

>  <i_qp_#rotor>  (180) 
12

>  <i_qp_#rtvFG>  (180) 
0

>  <i_qp_#stars>  (180) 
1

>  <i_qp_CNS>  (180) 
1

>  <i_qp_HumanOralAbsorption>  (180) 
3

>  <i_qp_RuleOfFive>  (180) 
0

>  <i_qp_RuleOfThree>  (180) 
1

>  <i_sd_BIOSOLVEIT.INFINISEE\_REAGENT1\_NAME>  (180) 
23846038

>  <i_sd_BIOSOLVEIT.INFINISEE\_REAGENT2\_NAME>  (180) 
24720040

>  <i_sd_BIOSOLVEIT.INFINISEE\_RESULT\_RANK>  (180) 
52148

>  <i_sd_version>  (180) 
0

>  <b_lp_Chiralities_Consistent>  (180) 
1

>  <b_sd_chiral_flag>  (180) 
0

>  <canonical_id>  (180) 
ATP-HTVS-1C066C79A7D0

>  <compound_code>  (180) 
44515

>  <title>  (180) 
m_270004bbb____23846038____24720040

>  <variant>  (180) 
44515-2

>  <source_file>  (180) 
运行/运行/ATP-VSW/ATP-VSW-DOCK_HTVS_1-003_lib/ATP-VSW-DOCK_HTVS_1-003_lib.mae

>  <canonical_smiles>  (180) 
COc1cc(C[NH2+]C[C@@H](C[NH+](C)C)c2ccccc2)cc(O)c1OCc1ccccc1

>  <scaffold>  (180) 
c1ccc(CC[NH2+]Cc2ccc(OCc3ccccc3)cc2)cc1

>  <molecular_formula>  (180) 
C26H34N2O3+2

$$$$
ATP-HTVS-1C1B7F9BB8FF
     RDKit          3D

 54 56  0  0  0  0  0  0  0  0999 V2000
  196.6039  181.5558  154.7574 S   0  0  0  0  0  0  0  0  0  0  0  0
  197.6963  180.5080  153.8825 C   0  0  0  0  0  0  0  0  0  0  0  0
  197.3993  180.1936  152.4406 C   0  0  0  0  0  0  0  0  0  0  0  0
  197.2103  179.0112  152.1455 O   0  0  0  0  0  0  0  0  0  0  0  0
  197.4108  181.1691  151.4668 N   0  0  0  0  0  0  0  0  0  0  0  0
  197.6769  182.5500  151.6934 C   0  0  0  0  0  0  0  0  0  0  0  0
  196.8086  183.2919  152.5329 C   0  0  0  0  0  0  0  0  0  0  0  0
  197.1216  184.6203  152.9330 C   0  0  0  0  0  0  0  0  0  0  0  0
  198.1527  185.2852  152.2832 C   0  0  0  0  0  0  0  0  0  0  0  0
  198.3616  186.6013  152.5508 O   0  0  0  0  0  0  0  0  0  0  0  0
  198.9220  184.6071  151.3159 C   0  0  0  0  0  0  0  0  0  0  0  0
  198.7071  183.2404  151.0360 C   0  0  0  0  0  0  0  0  0  0  0  0
  197.1649  180.7704  150.0775 C   0  0  2  0  0  0  0  0  0  0  0  0
  198.5251  179.9443  154.7961 C   0  0  0  0  0  0  0  0  0  0  0  0
  199.3559  178.8468  154.5506 N   0  0  0  0  0  0  0  0  0  0  0  0
  199.9971  178.1429  155.6542 C   0  0  1  0  0  0  0  0  0  0  0  0
  200.8734  176.9899  155.2138 C   0  0  0  0  0  0  0  0  0  0  0  0
  201.1579  175.9521  156.1192 C   0  0  0  0  0  0  0  0  0  0  0  0
  201.9792  174.8799  155.7245 C   0  0  0  0  0  0  0  0  0  0  0  0
  202.5225  174.8394  154.4242 C   0  0  0  0  0  0  0  0  0  0  0  0
  202.2435  175.8856  153.5206 C   0  0  0  0  0  0  0  0  0  0  0  0
  201.4229  176.9566  153.9144 C   0  0  0  0  0  0  0  0  0  0  0  0
  203.3750  173.6551  153.9932 C   0  0  1  0  0  0  0  0  0  0  0  0
  202.6112  172.6533  153.2246 N   0  0  2  0  0  0  0  0  0  0  0  0
  202.4733  172.9977  151.7962 C   0  0  2  0  0  0  0  0  0  0  0  0
  201.3073  172.2903  153.8342 C   0  0  2  0  0  0  0  0  0  0  0  0
  198.4499  180.5866  156.0846 C   0  0  0  0  0  0  0  0  0  0  0  0
  197.5661  181.6053  156.1652 C   0  0  0  0  0  0  0  0  0  0  0  0
  195.9411  182.8676  152.9156 H   0  0  0  0  0  0  0  0  0  0  0  0
  196.5044  185.0739  153.6877 H   0  0  0  0  0  0  0  0  0  0  0  0
  197.6835  186.9660  153.1283 H   0  0  0  0  0  0  0  0  0  0  0  0
  199.6963  185.1458  150.7806 H   0  0  0  0  0  0  0  0  0  0  0  0
  199.3083  182.7364  150.2962 H   0  0  0  0  0  0  0  0  0  0  0  0
  197.3280  181.5976  149.3822 H   0  0  0  0  0  0  0  0  0  0  0  0
  196.1260  180.4548  149.9602 H   0  0  0  0  0  0  0  0  0  0  0  0
  197.8077  179.9499  149.7531 H   0  0  0  0  0  0  0  0  0  0  0  0
  199.1361  178.2936  153.7312 H   0  0  0  0  0  0  0  0  0  0  0  0
  200.6098  178.8580  156.2016 H   0  0  0  0  0  0  0  0  0  0  0  0
  199.2230  177.7915  156.3384 H   0  0  0  0  0  0  0  0  0  0  0  0
  200.7480  175.9717  157.1184 H   0  0  0  0  0  0  0  0  0  0  0  0
  202.1824  174.0797  156.4199 H   0  0  0  0  0  0  0  0  0  0  0  0
  202.6459  175.8688  152.5196 H   0  0  0  0  0  0  0  0  0  0  0  0
  201.2234  177.7517  153.2112 H   0  0  0  0  0  0  0  0  0  0  0  0
  204.2236  174.0115  153.4057 H   0  0  0  0  0  0  0  0  0  0  0  0
  203.7969  173.1932  154.8859 H   0  0  0  0  0  0  0  0  0  0  0  0
  201.8809  173.9052  151.6767 H   0  0  0  0  0  0  0  0  0  0  0  0
  201.9784  172.2021  151.2404 H   0  0  0  0  0  0  0  0  0  0  0  0
  203.4505  173.1659  151.3415 H   0  0  0  0  0  0  0  0  0  0  0  0
  200.6490  173.1584  153.8918 H   0  0  0  0  0  0  0  0  0  0  0  0
  201.4426  171.8932  154.8407 H   0  0  0  0  0  0  0  0  0  0  0  0
  200.7986  171.5361  153.2383 H   0  0  0  0  0  0  0  0  0  0  0  0
  199.0324  180.2588  156.9569 H   0  0  0  0  0  0  0  0  0  0  0  0
  197.2733  182.2675  156.9357 H   0  0  0  0  0  0  0  0  0  0  0  0
  203.1517  171.7689  153.2657 H   0  0  0  0  0  0  0  0  0  0  0  0
  1  2  1  0
  1 28  1  0
  2  3  1  0
  2 14  2  0
  3  4  2  0
  3  5  1  0
  5  6  1  0
  5 13  1  0
  6  7  1  0
  6 12  2  0
  7  8  2  0
  7 29  1  0
  8  9  1  0
  8 30  1  0
  9 10  1  0
  9 11  2  0
 10 31  1  0
 11 12  1  0
 11 32  1  0
 12 33  1  0
 13 34  1  6
 13 35  1  0
 13 36  1  0
 14 15  1  0
 14 27  1  0
 15 16  1  0
 15 37  1  0
 16 17  1  0
 16 38  1  1
 16 39  1  0
 17 18  1  0
 17 22  2  0
 18 19  2  0
 18 40  1  0
 19 20  1  0
 19 41  1  0
 20 21  2  0
 20 23  1  0
 21 22  1  0
 21 42  1  0
 22 43  1  0
 23 24  1  0
 23 44  1  6
 23 45  1  0
 24 25  1  0
 24 26  1  0
 24 54  1  6
 25 46  1  1
 25 47  1  0
 25 48  1  0
 26 49  1  1
 26 50  1  0
 26 51  1  0
 27 28  2  0
 27 52  1  0
 28 53  1  0
M  CHG  1  24   1
M  END
>  <s_epik_cmdline>  (181) 
J2VwaWtfcHl0aG9uJywgJy1waCcsICc3LjAwMDAwMCcsICctcGh0JywgJzIuMDAwMDAwJywgJy1tcycsICcxNicsICctdG4nLCAnOCcsICctbWEnLCAnMjAwJywgJy1pbWFlJywgJzxpbmZpbGUubWFlPicsICctb21hZScsICc8b3V0ZmlsZS5tYWU+Jw==

>  <s_epik_input>  (181) 
W2NIXTFbY0hdYyhbT0hdKVtjSF1bY0hdYzFOKFtDSDNdKUMoPU8pYzJzW2NIXVtjSF1jMltOSF1bQ0gyXWMzW2NIXVtjSF1jKFtjSF1bY0hdMylbQ0gyXU4oW0NIM10pW0NIM10=

>  <s_i_glide_gridfile>  (181) 
ATP-Grid

>  <s_lp_Force_Field>  (181) 
OPLS_2005

>  <s_lp_Variant>  (181) 
rxn512b____EMOL44691280____EMOL525138____EMOL50155899-1

>  <s_lp_label>  (181) 
2418_sdstereoexpander_1_neutralizer_1_epik_1_stereoizer_1

>  <s_m_source_file>  (181) 
ATP-VSW-LIGPREP-002-in.maegz

>  <s_sd_BIOSOLVEIT.INFINISEE\_QUERY\_NAME>  (181) 
Ref-Lig

>  <s_sd_BIOSOLVEIT.INFINISEE\_QUERY\_SMILES>  (181) 
S(c1nc2c(cc1C[NH2+]Cc3ccc(cc3)C[NH+](C)C)cccc2)Cc4ccccc4

>  <s_sd_BIOSOLVEIT.INFINISEE\_REACTION\_NAME>  (181) 
rxn512b

>  <s_sd_BIOSOLVEIT.INFINISEE\_REAGENT1\_NAME>  (181) 
EMOL44691280

>  <s_sd_BIOSOLVEIT.INFINISEE\_REAGENT1\_SMILES>  (181) 
Oc1ccc(NC)cc1

>  <s_sd_BIOSOLVEIT.INFINISEE\_REAGENT2\_NAME>  (181) 
EMOL525138

>  <s_sd_BIOSOLVEIT.INFINISEE\_REAGENT2\_SMILES>  (181) 
BrC1=C(SC=C1)C(=O)O

>  <s_sd_BIOSOLVEIT.INFINISEE\_REAGENT3\_NAME>  (181) 
EMOL50155899

>  <s_sd_BIOSOLVEIT.INFINISEE\_REAGENT3\_SMILES>  (181) 
N(Cc1ccc(cc1)CN)(C)C

>  <s_sd_BIOSOLVEIT.INFINISEE\_SPACE>  (181) 
eXplore_7tr_2022-12

>  <s_vsw_compound_code>  (181) 
77346

>  <s_vsw_variant>  (181) 
77346-1

>  <r_epik_Charging_Adjusted_Penalty>  (181) 
0.080189274810459593

>  <r_epik_Ionization_Penalty>  (181) 
0.041300000000000003

>  <r_epik_Ionization_Penalty_Charging>  (181) 
0.040099999999999997

>  <r_epik_Ionization_Penalty_Neutral>  (181) 
0.0011999999999999999

>  <r_epik_State_Penalty>  (181) 
0.040099999999999997

>  <r_i_docking_score>  (181) 
-4.6099662917408102

>  <r_i_glide_ecoul>  (181) 
-10.270611763000501

>  <r_i_glide_eff_state_penalty>  (181) 
0.040099999999999997

>  <r_i_glide_einternal>  (181) 
5.1178789138793901

>  <r_i_glide_emodel>  (181) 
-52.775541193901802

>  <r_i_glide_energy>  (181) 
-39.928950309753397

>  <r_i_glide_erotb>  (181) 
0.87106186913735095

>  <r_i_glide_esite>  (181) 
-0.119418587285335

>  <r_i_glide_evdw>  (181) 
-29.658338546752901

>  <r_i_glide_gscore>  (181) 
-4.65006629174081

>  <r_i_glide_hbond>  (181) 
-0.50637423392064196

>  <r_i_glide_ligand_efficiency>  (181) 
-0.16464165327645799

>  <r_i_glide_ligand_efficiency_ln>  (181) 
-1.0641155746256199

>  <r_i_glide_ligand_efficiency_sa>  (181) 
-0.49994902809535702

>  <r_i_glide_lipo>  (181) 
-0.80819854698029103

>  <r_i_glide_metal>  (181) 
-0

>  <r_i_glide_rewards>  (181) 
-1.0636281009041699

>  <r_lp_Energy>  (181) 
37.611736999999998

>  <r_lp_tautomer_probability>  (181) 
0.99999274205004296

>  <r_qp_ACxDN^.5/SA>  (181) 
0.0082650999999999992

>  <r_qp_CIQPlogS>  (181) 
-3.879

>  <r_qp_EA(eV)>  (181) 
0.34000000000000002

>  <r_qp_FISA>  (181) 
90.668999999999997

>  <r_qp_FOSA>  (181) 
295.93299999999999

>  <r_qp_IP(eV)>  (181) 
8.3650000000000002

>  <r_qp_Jm>  (181) 
0.00068145225675240496

>  <r_qp_PISA>  (181) 
279.68799999999999

>  <r_qp_PSA>  (181) 
68.087000000000003

>  <r_qp_PercentHumanOralAbsorption>  (181) 
82.995999999999995

>  <r_qp_QPPCaco>  (181) 
85.090999999999994

>  <r_qp_QPPMDCK>  (181) 
61.170000000000002

>  <r_qp_QPlogBB>  (181) 
0.050999999999999997

>  <r_qp_QPlogHERG>  (181) 
-7.2359999999999998

>  <r_qp_QPlogKhsa>  (181) 
0.63100000000000001

>  <r_qp_QPlogKp>  (181) 
-5.5620000000000003

>  <r_qp_QPlogPC16>  (181) 
13.161

>  <r_qp_QPlogPo/w>  (181) 
3.6739999999999999

>  <r_qp_QPlogPoct>  (181) 
18.713999999999999

>  <r_qp_QPlogPw>  (181) 
9.2859999999999996

>  <r_qp_QPlogS>  (181) 
-3.2010000000000001

>  <r_qp_QPpolrz>  (181) 
42.624000000000002

>  <r_qp_SASA>  (181) 
695.69799999999998

>  <r_qp_SAamideO>  (181) 
0

>  <r_qp_SAfluorine>  (181) 
0

>  <r_qp_WPSA>  (181) 
29.408000000000001

>  <r_qp_accptHB>  (181) 
5.75

>  <r_qp_dip^2/V>  (181) 
0.011202800000000001

>  <r_qp_dipole>  (181) 
3.7869999999999999

>  <r_qp_donorHB>  (181) 
1

>  <r_qp_glob>  (181) 
0.81970339999999997

>  <r_qp_mol_MW>  (181) 
395.51799999999997

>  <r_qp_volume>  (181) 
1280.4670000000001

>  <r_sd_BIOSOLVEIT.INFINISEE\_FTREES\_SIMILARITY>  (181) 
0.91700000000000004

>  <r_sd_BIOSOLVEIT.LOGP>  (181) 
2.9868999999999999

>  <r_sd_BIOSOLVEIT.MOLECULAR\_WEIGHT>  (181) 
396.53100000000001

>  <r_sd_BIOSOLVEIT.TPSA>  (181) 
57.009999999999998

>  <i_epik_Tot_Q>  (181) 
1

>  <i_epik_Tot_abs_Q>  (181) 
1

>  <i_f3d_flags>  (181) 
0

>  <i_i_glide_confnum>  (181) 
7

>  <i_i_glide_lignum>  (181) 
1027

>  <i_i_glide_posenum>  (181) 
16

>  <i_i_glide_rotatable_bonds>  (181) 
9

>  <i_lp_mmshare_version>  (181) 
65135

>  <i_m_ct_format>  (181) 
2

>  <i_m_source_file_index>  (181) 
2418

>  <i_qp_#NandO>  (181) 
5

>  <i_qp_#acid>  (181) 
0

>  <i_qp_#amide>  (181) 
0

>  <i_qp_#amidine>  (181) 
0

>  <i_qp_#amine>  (181) 
2

>  <i_qp_#in34>  (181) 
0

>  <i_qp_#in56>  (181) 
17

>  <i_qp_#metab>  (181) 
6

>  <i_qp_#nonHatm>  (181) 
28

>  <i_qp_#noncon>  (181) 
0

>  <i_qp_#ringatoms>  (181) 
17

>  <i_qp_#rotor>  (181) 
8

>  <i_qp_#rtvFG>  (181) 
0

>  <i_qp_#stars>  (181) 
0

>  <i_qp_CNS>  (181) 
1

>  <i_qp_HumanOralAbsorption>  (181) 
3

>  <i_qp_RuleOfFive>  (181) 
0

>  <i_qp_RuleOfThree>  (181) 
0

>  <i_sd_BIOSOLVEIT.INFINISEE\_RESULT\_RANK>  (181) 
22241

>  <i_sd_version>  (181) 
0

>  <b_lp_Chiralities_Consistent>  (181) 
1

>  <b_sd_chiral_flag>  (181) 
0

>  <canonical_id>  (181) 
ATP-HTVS-1C1B7F9BB8FF

>  <compound_code>  (181) 
77346

>  <title>  (181) 
rxn512b____EMOL44691280____EMOL525138____EMOL50155899

>  <variant>  (181) 
77346-1

>  <source_file>  (181) 
运行/运行/ATP-VSW/ATP-VSW-DOCK_HTVS_1-002_lib.maegz

>  <canonical_smiles>  (181) 
CN(C(=O)c1sccc1NCc1ccc(C[NH+](C)C)cc1)c1ccc(O)cc1

>  <scaffold>  (181) 
O=C(Nc1ccccc1)c1sccc1NCc1ccccc1

>  <molecular_formula>  (181) 
C22H26N3O2S+

$$$$
ATP-HTVS-1C463A9823EA
     RDKit          3D

 69 72  0  0  0  0  0  0  0  0999 V2000
  196.9104  182.7276  150.7485 O   0  0  0  0  0  0  0  0  0  0  0  0
  197.4431  181.8340  151.4053 C   0  0  0  0  0  0  0  0  0  0  0  0
  197.8100  181.9562  152.6954 N   0  0  0  0  0  0  0  0  0  0  0  0
  197.6583  183.0702  153.5625 C   0  0  0  0  0  0  0  0  0  0  0  0
  197.5848  182.8386  154.9661 C   0  0  0  0  0  0  0  0  0  0  0  0
  197.6143  181.4969  155.4385 N   0  0  0  0  0  0  0  0  0  0  0  0
  198.7709  181.1098  156.2837 C   0  0  1  0  0  0  0  0  0  0  0  0
  200.0253  180.7483  155.4329 C   0  0  0  0  0  0  0  0  0  0  0  0
  199.8721  180.3248  154.2869 O   0  0  0  0  0  0  0  0  0  0  0  0
  201.2764  180.8927  155.9436 N   0  0  0  0  0  0  0  0  0  0  0  0
  201.5663  181.4207  157.2482 C   0  0  0  0  0  0  0  0  0  0  0  0
  202.4528  180.7236  158.1072 C   0  0  0  0  0  0  0  0  0  0  0  0
  202.7395  181.2146  159.4074 C   0  0  0  0  0  0  0  0  0  0  0  0
  202.0791  182.3873  159.8555 C   0  0  0  0  0  0  0  0  0  0  0  0
  201.2196  183.0816  159.0073 C   0  0  0  0  0  0  0  0  0  0  0  0
  201.0238  182.6380  157.6805 C   0  0  0  0  0  0  0  0  0  0  0  0
  202.4047  180.4657  155.1217 C   0  0  2  0  0  0  0  0  0  0  0  0
  196.3149  180.9883  155.8357 C   0  0  2  0  0  0  0  0  0  0  0  0
  197.4515  183.9705  155.8275 C   0  0  0  0  0  0  0  0  0  0  0  0
  197.4142  185.2850  155.2661 C   0  0  0  0  0  0  0  0  0  0  0  0
  197.4973  185.4280  153.9227 N   0  0  0  0  0  0  0  0  0  0  0  0
  197.6265  184.4034  153.0758 C   0  0  0  0  0  0  0  0  0  0  0  0
  197.2651  186.4291  156.0716 C   0  0  0  0  0  0  0  0  0  0  0  0
  197.1695  186.3033  157.4745 C   0  0  0  0  0  0  0  0  0  0  0  0
  197.2178  185.0241  158.0535 C   0  0  0  0  0  0  0  0  0  0  0  0
  197.3309  183.8812  157.2427 C   0  0  0  0  0  0  0  0  0  0  0  0
  197.6815  180.4766  150.8022 C   0  0  0  0  0  0  0  0  0  0  0  0
  196.8605  180.0116  149.7547 C   0  0  0  0  0  0  0  0  0  0  0  0
  197.0840  178.7445  149.1845 C   0  0  0  0  0  0  0  0  0  0  0  0
  198.1402  177.9265  149.6380 C   0  0  0  0  0  0  0  0  0  0  0  0
  198.9626  178.3853  150.6830 C   0  0  0  0  0  0  0  0  0  0  0  0
  198.7413  179.6536  151.2434 C   0  0  0  0  0  0  0  0  0  0  0  0
  198.4009  176.5705  149.0058 C   0  0  1  0  0  0  0  0  0  0  0  0
  199.2195  176.6574  147.7685 N   0  0  2  0  0  0  0  0  0  0  0  0
  198.5941  177.4539  146.6822 C   0  0  2  0  0  0  0  0  0  0  0  0
  199.6249  175.3169  147.2913 C   0  0  2  0  0  0  0  0  0  0  0  0
  198.1758  181.1277  153.1460 H   0  0  0  0  0  0  0  0  0  0  0  0
  198.9791  181.9234  156.9071 H   0  0  0  0  0  0  0  0  0  0  0  0
  198.5017  180.2411  156.9256 H   0  0  0  0  0  0  0  0  0  0  0  0
  202.9360  179.8014  157.7872 H   0  0  0  0  0  0  0  0  0  0  0  0
  203.4449  180.7023  160.0381 H   0  0  0  0  0  0  0  0  0  0  0  0
  202.2636  182.7575  160.8718 H   0  0  0  0  0  0  0  0  0  0  0  0
  200.6870  183.9622  159.3481 H   0  0  0  0  0  0  0  0  0  0  0  0
  200.3958  183.2319  156.9995 H   0  0  0  0  0  0  0  0  0  0  0  0
  203.3639  180.5824  155.6250 H   0  0  0  0  0  0  0  0  0  0  0  0
  202.4658  181.0726  154.2186 H   0  0  0  0  0  0  0  0  0  0  0  0
  202.3236  179.4182  154.8133 H   0  0  0  0  0  0  0  0  0  0  0  0
  195.4923  181.4162  155.2369 H   0  0  0  0  0  0  0  0  0  0  0  0
  196.1175  181.2004  156.8843 H   0  0  0  0  0  0  0  0  0  0  0  0
  196.3248  179.9057  155.7085 H   0  0  0  0  0  0  0  0  0  0  0  0
  197.6963  184.6680  152.0271 H   0  0  0  0  0  0  0  0  0  0  0  0
  197.2098  187.4187  155.6319 H   0  0  0  0  0  0  0  0  0  0  0  0
  197.0500  187.1738  158.1026 H   0  0  0  0  0  0  0  0  0  0  0  0
  197.1547  184.9039  159.1297 H   0  0  0  0  0  0  0  0  0  0  0  0
  197.3041  182.9387  157.7628 H   0  0  0  0  0  0  0  0  0  0  0  0
  196.0612  180.6302  149.3799 H   0  0  0  0  0  0  0  0  0  0  0  0
  196.4469  178.4114  148.3783 H   0  0  0  0  0  0  0  0  0  0  0  0
  199.7825  177.7870  151.0539 H   0  0  0  0  0  0  0  0  0  0  0  0
  199.4150  179.9836  152.0112 H   0  0  0  0  0  0  0  0  0  0  0  0
  198.9235  175.9510  149.7385 H   0  0  0  0  0  0  0  0  0  0  0  0
  197.4522  176.0740  148.8041 H   0  0  0  0  0  0  0  0  0  0  0  0
  197.6210  177.0473  146.4052 H   0  0  0  0  0  0  0  0  0  0  0  0
  199.2277  177.4789  145.7944 H   0  0  0  0  0  0  0  0  0  0  0  0
  198.4555  178.4939  146.9735 H   0  0  0  0  0  0  0  0  0  0  0  0
  198.7528  174.7235  147.0130 H   0  0  0  0  0  0  0  0  0  0  0  0
  200.1756  174.7726  148.0600 H   0  0  0  0  0  0  0  0  0  0  0  0
  200.2702  175.4016  146.4166 H   0  0  0  0  0  0  0  0  0  0  0  0
  200.0695  177.1418  148.0241 H   0  0  0  0  0  0  0  0  0  0  0  0
  197.4244  186.3869  153.5406 H   0  0  0  0  0  0  0  0  0  0  0  0
  1  2  2  0
  2  3  1  0
  2 27  1  0
  3  4  1  0
  3 37  1  0
  4  5  2  0
  4 22  1  0
  5  6  1  0
  5 19  1  0
  6  7  1  0
  6 18  1  0
  7  8  1  0
  7 38  1  1
  7 39  1  0
  8  9  2  0
  8 10  1  0
 10 11  1  0
 10 17  1  0
 11 12  2  0
 11 16  1  0
 12 13  1  0
 12 40  1  0
 13 14  2  0
 13 41  1  0
 14 15  1  0
 14 42  1  0
 15 16  2  0
 15 43  1  0
 16 44  1  0
 17 45  1  1
 17 46  1  0
 17 47  1  0
 18 48  1  6
 18 49  1  0
 18 50  1  0
 19 20  1  0
 19 26  2  0
 20 21  1  0
 20 23  2  0
 21 22  2  0
 21 69  1  0
 22 51  1  0
 23 24  1  0
 23 52  1  0
 24 25  2  0
 24 53  1  0
 25 26  1  0
 25 54  1  0
 26 55  1  0
 27 28  1  0
 27 32  2  0
 28 29  2  0
 28 56  1  0
 29 30  1  0
 29 57  1  0
 30 31  2  0
 30 33  1  0
 31 32  1  0
 31 58  1  0
 32 59  1  0
 33 34  1  0
 33 60  1  1
 33 61  1  0
 34 35  1  0
 34 36  1  0
 34 68  1  1
 35 62  1  6
 35 63  1  0
 35 64  1  0
 36 65  1  6
 36 66  1  0
 36 67  1  0
M  CHG  2  21   1  34   1
M  END
>  <s_epik_cmdline>  (182) 
J2VwaWtfcHl0aG9uJywgJy1waCcsICc3LjAwMDAwMCcsICctcGh0JywgJzIuMDAwMDAwJywgJy1tcycsICcxNicsICctdG4nLCAnOCcsICctbWEnLCAnMjAwJywgJy1pbWFlJywgJzxpbmZpbGUubWFlPicsICctb21hZScsICc8b3V0ZmlsZS5tYWU+Jw==

>  <s_epik_input>  (182) 
W0NIM11OKFtDSDNdKVtDSDJdYyhbY0hdW2NIXTEpW2NIXVtjSF1jMUMoPU8pW05IXWMoW2NIXW5jKGMyMylbY0hdW2NIXVtjSF1bY0hdMyljMk4oW0NIM10pW0NIMl1DKD1PKU4oW0NIM10pYzRbY0hdW2NIXVtjSF1bY0hdW2NIXTQ=

>  <s_i_glide_gridfile>  (182) 
ATP-Grid

>  <s_lp_Force_Field>  (182) 
OPLS_2005

>  <s_lp_Variant>  (182) 
rxn502b____EMOL18624763____EMOL30488121____EMOL6255027-1

>  <s_lp_label>  (182) 
2430_sdstereoexpander_1_neutralizer_1_epik_1_stereoizer_1

>  <s_m_source_file>  (182) 
ATP-VSW-LIGPREP-003-in.maegz

>  <s_sd_BIOSOLVEIT.INFINISEE\_QUERY\_NAME>  (182) 
Ref-Lig

>  <s_sd_BIOSOLVEIT.INFINISEE\_QUERY\_SMILES>  (182) 
S(c1nc2c(cc1C[NH2+]Cc3ccc(cc3)C[NH+](C)C)cccc2)Cc4ccccc4

>  <s_sd_BIOSOLVEIT.INFINISEE\_REACTION\_NAME>  (182) 
rxn502b

>  <s_sd_BIOSOLVEIT.INFINISEE\_REAGENT1\_NAME>  (182) 
EMOL18624763

>  <s_sd_BIOSOLVEIT.INFINISEE\_REAGENT1\_SMILES>  (182) 
O=C(O)c1ccc(cc1)CN(C)C

>  <s_sd_BIOSOLVEIT.INFINISEE\_REAGENT2\_NAME>  (182) 
EMOL30488121

>  <s_sd_BIOSOLVEIT.INFINISEE\_REAGENT2\_SMILES>  (182) 
Brc1c(N)cnc2c1cccc2

>  <s_sd_BIOSOLVEIT.INFINISEE\_REAGENT3\_NAME>  (182) 
EMOL6255027

>  <s_sd_BIOSOLVEIT.INFINISEE\_REAGENT3\_SMILES>  (182) 
O=C(N(c1ccccc1)C)CNC

>  <s_sd_BIOSOLVEIT.INFINISEE\_SPACE>  (182) 
eXplore_7tr_2022-12

>  <s_vsw_compound_code>  (182) 
77731

>  <s_vsw_variant>  (182) 
77731-1

>  <r_epik_Charging_Adjusted_Penalty>  (182) 
0.25841381632559302

>  <r_epik_Ionization_Penalty>  (182) 
0.12920000000000001

>  <r_epik_Ionization_Penalty_Charging>  (182) 
0.12920000000000001

>  <r_epik_Ionization_Penalty_Neutral>  (182) 
0

>  <r_epik_State_Penalty>  (182) 
0.12920000000000001

>  <r_i_docking_score>  (182) 
-4.3677664544433297

>  <r_i_glide_ecoul>  (182) 
-9.6924037933349592

>  <r_i_glide_eff_state_penalty>  (182) 
0.12920000000000001

>  <r_i_glide_einternal>  (182) 
2.0463764667511

>  <r_i_glide_emodel>  (182) 
-62.680522729111203

>  <r_i_glide_energy>  (182) 
-43.909593582153299

>  <r_i_glide_erotb>  (182) 
0.694459477077497

>  <r_i_glide_esite>  (182) 
-0.040695967123245302

>  <r_i_glide_evdw>  (182) 
-34.217189788818402

>  <r_i_glide_gscore>  (182) 
-4.4969664544433297

>  <r_i_glide_hbond>  (182) 
0

>  <r_i_glide_ligand_efficiency>  (182) 
-0.12132684595675899

>  <r_i_glide_ligand_efficiency_ln>  (182) 
-0.95292863694691099

>  <r_i_glide_ligand_efficiency_sa>  (182) 
-0.40061241820853

>  <r_i_glide_lipo>  (182) 
-1.6226903832401001

>  <r_i_glide_metal>  (182) 
-0

>  <r_i_glide_rewards>  (182) 
-0.36331952271632101

>  <r_lp_Energy>  (182) 
60.504503999999997

>  <r_qp_ACxDN^.5/SA>  (182) 
0.0116892

>  <r_qp_CIQPlogS>  (182) 
-5.4429999999999996

>  <r_qp_EA(eV)>  (182) 
0.92700000000000005

>  <r_qp_FISA>  (182) 
86.899000000000001

>  <r_qp_FOSA>  (182) 
299.59100000000001

>  <r_qp_IP(eV)>  (182) 
8.6120000000000001

>  <r_qp_Jm>  (182) 
0.00757962500709036

>  <r_qp_PISA>  (182) 
426.22800000000001

>  <r_qp_PSA>  (182) 
73.242000000000004

>  <r_qp_PercentHumanOralAbsorption>  (182) 
100

>  <r_qp_QPPCaco>  (182) 
370.459

>  <r_qp_QPPMDCK>  (182) 
187.10599999999999

>  <r_qp_QPlogBB>  (182) 
-0.44500000000000001

>  <r_qp_QPlogHERG>  (182) 
-7.6660000000000004

>  <r_qp_QPlogKhsa>  (182) 
0.51200000000000001

>  <r_qp_QPlogKp>  (182) 
-2.9140000000000001

>  <r_qp_QPlogPC16>  (182) 
16.366

>  <r_qp_QPlogPo/w>  (182) 
4.2649999999999997

>  <r_qp_QPlogPoct>  (182) 
25.835000000000001

>  <r_qp_QPlogPw>  (182) 
14.223000000000001

>  <r_qp_QPlogS>  (182) 
-4.8890000000000002

>  <r_qp_QPpolrz>  (182) 
54.165999999999997

>  <r_qp_SASA>  (182) 
812.71699999999998

>  <r_qp_SAamideO>  (182) 
0

>  <r_qp_SAfluorine>  (182) 
0

>  <r_qp_WPSA>  (182) 
0

>  <r_qp_accptHB>  (182) 
9.5

>  <r_qp_dip^2/V>  (182) 
0.085384299999999996

>  <r_qp_dipole>  (182) 
11.444000000000001

>  <r_qp_donorHB>  (182) 
1

>  <r_qp_glob>  (182) 
0.79144300000000001

>  <r_qp_mol_MW>  (182) 
481.596

>  <r_qp_volume>  (182) 
1533.8800000000001

>  <r_sd_BIOSOLVEIT.INFINISEE\_FTREES\_SIMILARITY>  (182) 
0.91700000000000004

>  <r_sd_BIOSOLVEIT.LOGP>  (182) 
3.2307999999999999

>  <r_sd_BIOSOLVEIT.MOLECULAR\_WEIGHT>  (182) 
482.60500000000002

>  <r_sd_BIOSOLVEIT.TPSA>  (182) 
69.980000000000004

>  <i_epik_Tot_Q>  (182) 
2

>  <i_epik_Tot_abs_Q>  (182) 
2

>  <i_f3d_flags>  (182) 
0

>  <i_i_glide_confnum>  (182) 
3

>  <i_i_glide_lignum>  (182) 
1042

>  <i_i_glide_posenum>  (182) 
11

>  <i_i_glide_rotatable_bonds>  (182) 
10

>  <i_lp_mmshare_version>  (182) 
65135

>  <i_m_ct_format>  (182) 
2

>  <i_m_source_file_index>  (182) 
2430

>  <i_qp_#NandO>  (182) 
7

>  <i_qp_#acid>  (182) 
0

>  <i_qp_#amide>  (182) 
0

>  <i_qp_#amidine>  (182) 
0

>  <i_qp_#amine>  (182) 
1

>  <i_qp_#in34>  (182) 
0

>  <i_qp_#in56>  (182) 
22

>  <i_qp_#metab>  (182) 
6

>  <i_qp_#nonHatm>  (182) 
36

>  <i_qp_#noncon>  (182) 
0

>  <i_qp_#ringatoms>  (182) 
22

>  <i_qp_#rotor>  (182) 
8

>  <i_qp_#rtvFG>  (182) 
0

>  <i_qp_#stars>  (182) 
0

>  <i_qp_CNS>  (182) 
1

>  <i_qp_HumanOralAbsorption>  (182) 
3

>  <i_qp_RuleOfFive>  (182) 
0

>  <i_qp_RuleOfThree>  (182) 
0

>  <i_sd_BIOSOLVEIT.INFINISEE\_RESULT\_RANK>  (182) 
23195

>  <i_sd_version>  (182) 
0

>  <b_lp_Chiralities_Consistent>  (182) 
1

>  <b_sd_chiral_flag>  (182) 
0

>  <canonical_id>  (182) 
ATP-HTVS-1C463A9823EA

>  <compound_code>  (182) 
77731

>  <title>  (182) 
rxn502b____EMOL18624763____EMOL30488121____EMOL6255027

>  <variant>  (182) 
77731-1

>  <source_file>  (182) 
运行/运行/ATP-VSW/ATP-VSW-DOCK_HTVS_1-003_lib/ATP-VSW-DOCK_HTVS_1-003_lib.mae

>  <canonical_smiles>  (182) 
CN(CC(=O)N(C)c1ccccc1)c1c(NC(=O)c2ccc(C[NH+](C)C)cc2)c[nH+]c2ccccc12

>  <scaffold>  (182) 
O=C(CNc1c(NC(=O)c2ccccc2)c[nH+]c2ccccc12)Nc1ccccc1

>  <molecular_formula>  (182) 
C29H33N5O2+2

$$$$
ATP-HTVS-1C4EC58A3066
     RDKit          3D

 51 54  0  0  0  0  0  0  0  0999 V2000
  198.7426  182.6008  157.7281 O   0  0  0  0  0  0  0  0  0  0  0  0
  197.5480  182.4367  157.4791 C   0  0  0  0  0  0  0  0  0  0  0  0
  197.0870  181.6598  156.4814 N   0  0  0  0  0  0  0  0  0  0  0  0
  197.8271  180.7230  155.7026 C   0  0  0  0  0  0  0  0  0  0  0  0
  197.5507  180.5893  154.3197 C   0  0  0  0  0  0  0  0  0  0  0  0
  196.5969  181.4391  153.7276 N   0  0  0  0  0  0  0  0  0  0  0  0
  197.1333  182.3757  152.7488 C   0  0  2  0  0  0  0  0  0  0  0  0
  197.3192  183.7000  153.3674 C   0  0  0  0  0  0  0  0  0  0  0  0
  197.4722  184.7372  153.8550 N   0  0  0  0  0  0  0  0  0  0  0  0
  196.2295  182.4353  151.5067 C   0  0  1  0  0  0  0  0  0  0  0  0
  196.9441  183.0467  150.3202 C   0  0  0  0  0  0  0  0  0  0  0  0
  196.4927  184.2707  149.7926 C   0  0  0  0  0  0  0  0  0  0  0  0
  197.1499  184.8526  148.6929 C   0  0  0  0  0  0  0  0  0  0  0  0
  198.2592  184.2091  148.1145 C   0  0  0  0  0  0  0  0  0  0  0  0
  198.7139  182.9828  148.6387 C   0  0  0  0  0  0  0  0  0  0  0  0
  198.0567  182.3997  149.7391 C   0  0  0  0  0  0  0  0  0  0  0  0
  198.2618  179.6086  153.5693 C   0  0  0  0  0  0  0  0  0  0  0  0
  199.2356  178.8007  154.2204 C   0  0  0  0  0  0  0  0  0  0  0  0
  199.4449  178.9576  155.5460 N   0  0  0  0  0  0  0  0  0  0  0  0
  198.7834  179.8666  156.2936 C   0  0  0  0  0  0  0  0  0  0  0  0
  199.9618  177.8256  153.4912 C   0  0  0  0  0  0  0  0  0  0  0  0
  199.7330  177.6550  152.1096 C   0  0  0  0  0  0  0  0  0  0  0  0
  198.7601  178.4371  151.4641 C   0  0  0  0  0  0  0  0  0  0  0  0
  198.0205  179.3902  152.1890 C   0  0  0  0  0  0  0  0  0  0  0  0
  196.4860  183.1957  158.2270 C   0  0  0  0  0  0  0  0  0  0  0  0
  196.8169  184.3681  158.9483 C   0  0  0  0  0  0  0  0  0  0  0  0
  195.8217  185.0753  159.6553 C   0  0  0  0  0  0  0  0  0  0  0  0
  194.4918  184.6213  159.6500 C   0  0  0  0  0  0  0  0  0  0  0  0
  194.1573  183.4578  158.9370 C   0  0  0  0  0  0  0  0  0  0  0  0
  195.1494  182.7354  158.2518 C   0  0  0  0  0  0  0  0  0  0  0  0
  196.0960  181.7249  156.2946 H   0  0  0  0  0  0  0  0  0  0  0  0
  195.9808  181.9076  154.3777 H   0  0  0  0  0  0  0  0  0  0  0  0
  198.1376  182.0651  152.4669 H   0  0  0  0  0  0  0  0  0  0  0  0
  195.8775  181.4507  151.1966 H   0  0  0  0  0  0  0  0  0  0  0  0
  195.3258  183.0092  151.7313 H   0  0  0  0  0  0  0  0  0  0  0  0
  195.6374  184.7605  150.2297 H   0  0  0  0  0  0  0  0  0  0  0  0
  196.7881  185.7882  148.2927 H   0  0  0  0  0  0  0  0  0  0  0  0
  198.7635  184.6570  147.2700 H   0  0  0  0  0  0  0  0  0  0  0  0
  199.5676  182.4883  148.1944 H   0  0  0  0  0  0  0  0  0  0  0  0
  198.4172  181.4579  150.1267 H   0  0  0  0  0  0  0  0  0  0  0  0
  199.0137  179.8642  157.3511 H   0  0  0  0  0  0  0  0  0  0  0  0
  200.7063  177.2080  153.9766 H   0  0  0  0  0  0  0  0  0  0  0  0
  200.2904  176.9192  151.5441 H   0  0  0  0  0  0  0  0  0  0  0  0
  198.5738  178.3116  150.4083 H   0  0  0  0  0  0  0  0  0  0  0  0
  197.2603  179.9447  151.6616 H   0  0  0  0  0  0  0  0  0  0  0  0
  197.8325  184.7389  158.9494 H   0  0  0  0  0  0  0  0  0  0  0  0
  196.0800  185.9772  160.1930 H   0  0  0  0  0  0  0  0  0  0  0  0
  193.7248  185.1674  160.1764 H   0  0  0  0  0  0  0  0  0  0  0  0
  193.1370  183.1056  158.9187 H   0  0  0  0  0  0  0  0  0  0  0  0
  194.8435  181.8382  157.7286 H   0  0  0  0  0  0  0  0  0  0  0  0
  200.1115  178.3455  156.0159 H   0  0  0  0  0  0  0  0  0  0  0  0
  1  2  2  0
  2  3  1  0
  2 25  1  0
  3  4  1  0
  3 31  1  0
  4  5  2  0
  4 20  1  0
  5  6  1  0
  5 17  1  0
  6  7  1  0
  6 32  1  0
  7  8  1  0
  7 10  1  0
  7 33  1  6
  8  9  3  0
 10 11  1  0
 10 34  1  6
 10 35  1  0
 11 12  2  0
 11 16  1  0
 12 13  1  0
 12 36  1  0
 13 14  2  0
 13 37  1  0
 14 15  1  0
 14 38  1  0
 15 16  2  0
 15 39  1  0
 16 40  1  0
 17 18  1  0
 17 24  2  0
 18 19  1  0
 18 21  2  0
 19 20  2  0
 19 51  1  0
 20 41  1  0
 21 22  1  0
 21 42  1  0
 22 23  2  0
 22 43  1  0
 23 24  1  0
 23 44  1  0
 24 45  1  0
 25 26  2  0
 25 30  1  0
 26 27  1  0
 26 46  1  0
 27 28  2  0
 27 47  1  0
 28 29  1  0
 28 48  1  0
 29 30  2  0
 29 49  1  0
 30 50  1  0
M  CHG  1  19   1
M  END
>  <s_epik_cmdline>  (183) 
J2VwaWtfcHl0aG9uJywgJy1waCcsICc3LjAwMDAwMCcsICctcGh0JywgJzIuMDAwMDAwJywgJy1tcycsICcxNicsICctdG4nLCAnOCcsICctbWEnLCAnMjAwJywgJy1pbWFlJywgJzxpbmZpbGUubWFlPicsICctb21hZScsICc8b3V0ZmlsZS5tYWU+Jw==

>  <s_epik_input>  (183) 
W2NIXTFbY0hdW2NIXVtjSF1bY0hdYzFDKD1PKVtOSF1jKFtjSF1uYyhjMjMpW2NIXVtjSF1bY0hdW2NIXTMpYzJbTkhdW0NASF0oQyNOKVtDSDJdYzRbY0hdW2NIXVtjSF1bY0hdW2NIXTQ=

>  <s_i_glide_gridfile>  (183) 
ATP-Grid

>  <s_lp_Force_Field>  (183) 
OPLS_2005

>  <s_lp_Variant>  (183) 
rxn502c____EMOL478180____EMOL44472687____EMOL18628026-2

>  <s_lp_label>  (183) 
2904_sdstereoexpander_2_neutralizer_1_epik_1_stereoizer_1

>  <s_m_source_file>  (183) 
ATP-VSW-LIGPREP-003-in.maegz

>  <s_sd_BIOSOLVEIT.INFINISEE\_QUERY\_NAME>  (183) 
Ref-Lig

>  <s_sd_BIOSOLVEIT.INFINISEE\_QUERY\_SMILES>  (183) 
S(c1nc2c(cc1C[NH2+]Cc3ccc(cc3)C[NH+](C)C)cccc2)Cc4ccccc4

>  <s_sd_BIOSOLVEIT.INFINISEE\_REACTION\_NAME>  (183) 
rxn502c

>  <s_sd_BIOSOLVEIT.INFINISEE\_REAGENT1\_NAME>  (183) 
EMOL478180

>  <s_sd_BIOSOLVEIT.INFINISEE\_REAGENT1\_SMILES>  (183) 
[O-]C(=O)c1ccccc1

>  <s_sd_BIOSOLVEIT.INFINISEE\_REAGENT2\_NAME>  (183) 
EMOL44472687

>  <s_sd_BIOSOLVEIT.INFINISEE\_REAGENT2\_SMILES>  (183) 
Clc1c(N)cnc2c1cccc2

>  <s_sd_BIOSOLVEIT.INFINISEE\_REAGENT3\_NAME>  (183) 
EMOL18628026

>  <s_sd_BIOSOLVEIT.INFINISEE\_REAGENT3\_SMILES>  (183) 
N#CC(N)Cc1ccccc1

>  <s_sd_BIOSOLVEIT.INFINISEE\_SPACE>  (183) 
eXplore_7tr_2022-12

>  <s_vsw_compound_code>  (183) 
92899

>  <s_vsw_variant>  (183) 
92899-2

>  <r_epik_Charging_Adjusted_Penalty>  (183) 
0.54797787564520695

>  <r_epik_Ionization_Penalty>  (183) 
0.19339999999999999

>  <r_epik_Ionization_Penalty_Charging>  (183) 
0.1928

>  <r_epik_Ionization_Penalty_Neutral>  (183) 
0.00059999999999999995

>  <r_epik_State_Penalty>  (183) 
0.35520000000000002

>  <r_i_docking_score>  (183) 
-4.57375810894154

>  <r_i_glide_ecoul>  (183) 
-6.9970679283142099

>  <r_i_glide_eff_state_penalty>  (183) 
0.35520000000000002

>  <r_i_glide_einternal>  (183) 
3.61009001731873

>  <r_i_glide_emodel>  (183) 
-58.920262157818101

>  <r_i_glide_energy>  (183) 
-43.265889644622803

>  <r_i_glide_erotb>  (183) 
0.75711860743699

>  <r_i_glide_esite>  (183) 
-0.216395060377952

>  <r_i_glide_evdw>  (183) 
-36.268821716308601

>  <r_i_glide_gscore>  (183) 
-4.92895810894154

>  <r_i_glide_hbond>  (183) 
0

>  <r_i_glide_ligand_efficiency>  (183) 
-0.152458603631385

>  <r_i_glide_ligand_efficiency_ln>  (183) 
-1.03920767743759

>  <r_i_glide_ligand_efficiency_sa>  (183) 
-0.473724328478697

>  <r_i_glide_lipo>  (183) 
-1.6552742900289299

>  <r_i_glide_metal>  (183) 
-0

>  <r_i_glide_rewards>  (183) 
-0.95140609090909001

>  <r_lp_Energy>  (183) 
35.741931999999998

>  <r_qp_ACxDN^.5/SA>  (183) 
0.0121986

>  <r_qp_CIQPlogS>  (183) 
-7.0609999999999999

>  <r_qp_EA(eV)>  (183) 
1.1990000000000001

>  <r_qp_FISA>  (183) 
101.782

>  <r_qp_FOSA>  (183) 
35.292999999999999

>  <r_qp_IP(eV)>  (183) 
8.7119999999999997

>  <r_qp_Jm>  (183) 
0.020153402352403

>  <r_qp_PISA>  (183) 
558.51800000000003

>  <r_qp_PSA>  (183) 
81.698999999999998

>  <r_qp_PercentHumanOralAbsorption>  (183) 
100

>  <r_qp_QPPCaco>  (183) 
1073.251

>  <r_qp_QPPMDCK>  (183) 
533.99199999999996

>  <r_qp_QPlogBB>  (183) 
-0.88500000000000001

>  <r_qp_QPlogHERG>  (183) 
-7.2210000000000001

>  <r_qp_QPlogKhsa>  (183) 
0.54600000000000004

>  <r_qp_QPlogKp>  (183) 
-0.75600000000000001

>  <r_qp_QPlogPC16>  (183) 
15.089

>  <r_qp_QPlogPo/w>  (183) 
4.5140000000000002

>  <r_qp_QPlogPoct>  (183) 
22.295999999999999

>  <r_qp_QPlogPw>  (183) 
13.18

>  <r_qp_QPlogS>  (183) 
-6.5339999999999998

>  <r_qp_QPpolrz>  (183) 
45.292999999999999

>  <r_qp_SASA>  (183) 
695.59299999999996

>  <r_qp_SAamideO>  (183) 
0

>  <r_qp_SAfluorine>  (183) 
0

>  <r_qp_WPSA>  (183) 
0

>  <r_qp_accptHB>  (183) 
6

>  <r_qp_dip^2/V>  (183) 
0.062084500000000001

>  <r_qp_dipole>  (183) 
8.8610000000000007

>  <r_qp_donorHB>  (183) 
2

>  <r_qp_glob>  (183) 
0.81302459999999999

>  <r_qp_mol_MW>  (183) 
392.459

>  <r_qp_volume>  (183) 
1264.5640000000001

>  <r_sd_BIOSOLVEIT.INFINISEE\_FTREES\_SIMILARITY>  (183) 
0.90400000000000003

>  <r_sd_BIOSOLVEIT.LOGP>  (183) 
5.0338799999999999

>  <r_sd_BIOSOLVEIT.MOLECULAR\_WEIGHT>  (183) 
392.45999999999998

>  <r_sd_BIOSOLVEIT.TPSA>  (183) 
77.810000000000002

>  <i_epik_Tot_Q>  (183) 
1

>  <i_epik_Tot_abs_Q>  (183) 
1

>  <i_f3d_flags>  (183) 
0

>  <i_i_glide_confnum>  (183) 
10

>  <i_i_glide_lignum>  (183) 
1422

>  <i_i_glide_posenum>  (183) 
3

>  <i_i_glide_rotatable_bonds>  (183) 
7

>  <i_lp_mmshare_version>  (183) 
65135

>  <i_m_ct_format>  (183) 
2

>  <i_m_source_file_index>  (183) 
2904

>  <i_qp_#NandO>  (183) 
5

>  <i_qp_#acid>  (183) 
0

>  <i_qp_#amide>  (183) 
0

>  <i_qp_#amidine>  (183) 
0

>  <i_qp_#amine>  (183) 
0

>  <i_qp_#in34>  (183) 
0

>  <i_qp_#in56>  (183) 
22

>  <i_qp_#metab>  (183) 
5

>  <i_qp_#nonHatm>  (183) 
30

>  <i_qp_#noncon>  (183) 
0

>  <i_qp_#ringatoms>  (183) 
22

>  <i_qp_#rotor>  (183) 
7

>  <i_qp_#rtvFG>  (183) 
0

>  <i_qp_#stars>  (183) 
2

>  <i_qp_CNS>  (183) 
-1

>  <i_qp_HumanOralAbsorption>  (183) 
1

>  <i_qp_RuleOfFive>  (183) 
0

>  <i_qp_RuleOfThree>  (183) 
1

>  <i_sd_BIOSOLVEIT.INFINISEE\_RESULT\_RANK>  (183) 
75316

>  <i_sd_version>  (183) 
0

>  <b_lp_Chiralities_Consistent>  (183) 
1

>  <b_sd_chiral_flag>  (183) 
0

>  <canonical_id>  (183) 
ATP-HTVS-1C4EC58A3066

>  <compound_code>  (183) 
92899

>  <title>  (183) 
rxn502c____EMOL478180____EMOL44472687____EMOL18628026

>  <variant>  (183) 
92899-2

>  <source_file>  (183) 
运行/运行/ATP-VSW/ATP-VSW-DOCK_HTVS_1-003_lib/ATP-VSW-DOCK_HTVS_1-003_lib.mae

>  <canonical_smiles>  (183) 
N#C[C@H](Cc1ccccc1)Nc1c(NC(=O)c2ccccc2)c[nH+]c2ccccc12

>  <scaffold>  (183) 
O=C(Nc1c[nH+]c2ccccc2c1NCCc1ccccc1)c1ccccc1

>  <molecular_formula>  (183) 
C25H21N4O+

$$$$
ATP-HTVS-1C71F28794EF
     RDKit          3D

 53 56  0  0  0  0  0  0  0  0999 V2000
  203.5523  180.6694  158.7933 Cl  0  0  0  0  0  0  0  0  0  0  0  0
  202.2086  180.5959  157.7113 C   0  0  0  0  0  0  0  0  0  0  0  0
  201.9472  181.6560  156.8194 C   0  0  0  0  0  0  0  0  0  0  0  0
  200.8265  181.6014  155.9634 C   0  0  0  0  0  0  0  0  0  0  0  0
  199.9509  180.4827  155.9826 C   0  0  0  0  0  0  0  0  0  0  0  0
  200.2297  179.4330  156.8952 C   0  0  0  0  0  0  0  0  0  0  0  0
  201.3586  179.4773  157.7268 C   0  0  0  0  0  0  0  0  0  0  0  0
  198.6773  180.4431  155.0963 C   0  0  1  0  0  0  0  0  0  0  0  0
  197.5061  181.1826  155.7992 C   0  0  0  0  0  0  0  0  0  0  0  0
  196.3726  181.0912  155.3288 O   0  0  0  0  0  0  0  0  0  0  0  0
  197.8103  181.9436  156.8691 N   0  0  0  0  0  0  0  0  0  0  0  0
  196.9621  182.7567  157.6656 C   0  0  0  0  0  0  0  0  0  0  0  0
  197.4922  183.9288  158.2565 C   0  0  0  0  0  0  0  0  0  0  0  0
  198.8243  184.3159  158.0046 N   0  0  0  0  0  0  0  0  0  0  0  0
  199.7440  184.0188  158.9464 C   0  0  0  0  0  0  0  0  0  0  0  0
  200.5377  183.8130  159.7619 N   0  0  0  0  0  0  0  0  0  0  0  0
  199.1741  185.0549  156.8492 C   0  0  0  0  0  0  0  0  0  0  0  0
  200.5294  185.3750  156.5819 C   0  0  0  0  0  0  0  0  0  0  0  0
  200.8870  186.1106  155.4345 C   0  0  0  0  0  0  0  0  0  0  0  0
  199.8972  186.5450  154.5361 C   0  0  0  0  0  0  0  0  0  0  0  0
  198.5496  186.2379  154.7866 C   0  0  0  0  0  0  0  0  0  0  0  0
  198.1894  185.5030  155.9314 C   0  0  0  0  0  0  0  0  0  0  0  0
  196.6508  184.7125  159.0887 C   0  0  0  0  0  0  0  0  0  0  0  0
  195.3143  184.2717  159.3070 C   0  0  0  0  0  0  0  0  0  0  0  0
  194.8205  183.1550  158.7333 N   0  0  0  0  0  0  0  0  0  0  0  0
  195.6191  182.4147  157.9382 C   0  0  0  0  0  0  0  0  0  0  0  0
  194.4720  185.0397  160.1309 C   0  0  0  0  0  0  0  0  0  0  0  0
  194.9238  186.2234  160.7488 C   0  0  0  0  0  0  0  0  0  0  0  0
  196.2409  186.6592  160.5309 C   0  0  0  0  0  0  0  0  0  0  0  0
  197.1019  185.9093  159.7049 C   0  0  0  0  0  0  0  0  0  0  0  0
  198.8976  181.1269  153.7229 C   0  0  2  0  0  0  0  0  0  0  0  0
  198.2521  178.9849  154.7930 C   0  0  2  0  0  0  0  0  0  0  0  0
  202.5907  182.5292  156.8183 H   0  0  0  0  0  0  0  0  0  0  0  0
  200.6384  182.4451  155.3149 H   0  0  0  0  0  0  0  0  0  0  0  0
  199.5767  178.5775  156.9957 H   0  0  0  0  0  0  0  0  0  0  0  0
  201.5410  178.6614  158.4148 H   0  0  0  0  0  0  0  0  0  0  0  0
  198.7997  182.0291  157.0663 H   0  0  0  0  0  0  0  0  0  0  0  0
  201.3192  185.0571  157.2486 H   0  0  0  0  0  0  0  0  0  0  0  0
  201.9234  186.3456  155.2475 H   0  0  0  0  0  0  0  0  0  0  0  0
  200.1700  187.1141  153.6597 H   0  0  0  0  0  0  0  0  0  0  0  0
  197.7863  186.5707  154.1009 H   0  0  0  0  0  0  0  0  0  0  0  0
  197.1416  185.2930  156.0853 H   0  0  0  0  0  0  0  0  0  0  0  0
  195.1734  181.5228  157.5271 H   0  0  0  0  0  0  0  0  0  0  0  0
  193.4545  184.7127  160.2748 H   0  0  0  0  0  0  0  0  0  0  0  0
  194.2546  186.7995  161.3696 H   0  0  0  0  0  0  0  0  0  0  0  0
  196.5927  187.5770  160.9928 H   0  0  0  0  0  0  0  0  0  0  0  0
  198.1099  186.2679  159.5557 H   0  0  0  0  0  0  0  0  0  0  0  0
  199.0981  182.1963  153.8021 H   0  0  0  0  0  0  0  0  0  0  0  0
  198.0102  181.0347  153.0928 H   0  0  0  0  0  0  0  0  0  0  0  0
  199.7235  180.6696  153.1788 H   0  0  0  0  0  0  0  0  0  0  0  0
  197.8902  178.4604  155.6815 H   0  0  0  0  0  0  0  0  0  0  0  0
  199.0901  178.4171  154.3823 H   0  0  0  0  0  0  0  0  0  0  0  0
  197.4487  178.9494  154.0555 H   0  0  0  0  0  0  0  0  0  0  0  0
  1  2  1  0
  2  3  1  0
  2  7  2  0
  3  4  2  0
  3 33  1  0
  4  5  1  0
  4 34  1  0
  5  6  2  0
  5  8  1  0
  6  7  1  0
  6 35  1  0
  7 36  1  0
  8  9  1  1
  8 31  1  0
  8 32  1  0
  9 10  2  0
  9 11  1  0
 11 12  1  0
 11 37  1  0
 12 13  2  0
 12 26  1  0
 13 14  1  0
 13 23  1  0
 14 15  1  0
 14 17  1  0
 15 16  3  0
 17 18  2  0
 17 22  1  0
 18 19  1  0
 18 38  1  0
 19 20  2  0
 19 39  1  0
 20 21  1  0
 20 40  1  0
 21 22  2  0
 21 41  1  0
 22 42  1  0
 23 24  1  0
 23 30  2  0
 24 25  1  0
 24 27  2  0
 25 26  2  0
 26 43  1  0
 27 28  1  0
 27 44  1  0
 28 29  2  0
 28 45  1  0
 29 30  1  0
 29 46  1  0
 30 47  1  0
 31 48  1  1
 31 49  1  0
 31 50  1  0
 32 51  1  1
 32 52  1  0
 32 53  1  0
M  END
>  <s_epik_cmdline>  (184) 
J2VwaWtfcHl0aG9uJywgJy1waCcsICc3LjAwMDAwMCcsICctcGh0JywgJzIuMDAwMDAwJywgJy1tcycsICcxNicsICctdG4nLCAnOCcsICctbWEnLCAnMjAwJywgJy1pbWFlJywgJzxpbmZpbGUubWFlPicsICctb21hZScsICc8b3V0ZmlsZS5tYWU+Jw==

>  <s_epik_input>  (184) 
Q2xjMVtjSF1bY0hdYyhbY0hdW2NIXTEpQyhbQ0gzXSkoW0NIM10pQyg9TylbTkhdYyhbY0hdbmMoYzIzKVtjSF1bY0hdW2NIXVtjSF0zKWMyTihDI04pYzRbY0hdW2NIXVtjSF1bY0hdW2NIXTQ=

>  <s_i_glide_gridfile>  (184) 
ATP-Grid

>  <s_lp_Force_Field>  (184) 
OPLS_2005

>  <s_lp_Variant>  (184) 
rxn502b____EMOL49828571____EMOL30488121____EMOL36822768-1

>  <s_lp_label>  (184) 
2691_sdstereoexpander_1_neutralizer_1_epik_1_stereoizer_1

>  <s_m_source_file>  (184) 
ATP-VSW-LIGPREP-001-in.maegz

>  <s_sd_BIOSOLVEIT.INFINISEE\_QUERY\_NAME>  (184) 
Ref-Lig

>  <s_sd_BIOSOLVEIT.INFINISEE\_QUERY\_SMILES>  (184) 
S(c1nc2c(cc1C[NH2+]Cc3ccc(cc3)C[NH+](C)C)cccc2)Cc4ccccc4

>  <s_sd_BIOSOLVEIT.INFINISEE\_REACTION\_NAME>  (184) 
rxn502b

>  <s_sd_BIOSOLVEIT.INFINISEE\_REAGENT1\_NAME>  (184) 
EMOL49828571

>  <s_sd_BIOSOLVEIT.INFINISEE\_REAGENT1\_SMILES>  (184) 
Clc1ccc(cc1)C(C(Cl)=O)(C)C

>  <s_sd_BIOSOLVEIT.INFINISEE\_REAGENT2\_NAME>  (184) 
EMOL30488121

>  <s_sd_BIOSOLVEIT.INFINISEE\_REAGENT2\_SMILES>  (184) 
Brc1c(N)cnc2c1cccc2

>  <s_sd_BIOSOLVEIT.INFINISEE\_REAGENT3\_NAME>  (184) 
EMOL36822768

>  <s_sd_BIOSOLVEIT.INFINISEE\_REAGENT3\_SMILES>  (184) 
N#CNc1ccccc1

>  <s_sd_BIOSOLVEIT.INFINISEE\_SPACE>  (184) 
eXplore_7tr_2022-12

>  <s_vsw_compound_code>  (184) 
86081

>  <s_vsw_variant>  (184) 
86081-1

>  <r_epik_Charging_Adjusted_Penalty>  (184) 
0.0049279462529187397

>  <r_epik_Ionization_Penalty>  (184) 
0.0048999999999999998

>  <r_epik_Ionization_Penalty_Charging>  (184) 
0

>  <r_epik_Ionization_Penalty_Neutral>  (184) 
0.0048999999999999998

>  <r_epik_State_Penalty>  (184) 
0.0048999999999999998

>  <r_i_docking_score>  (184) 
-3.31265923241522

>  <r_i_glide_ecoul>  (184) 
-0.41833731532096902

>  <r_i_glide_eff_state_penalty>  (184) 
0.0048999999999999998

>  <r_i_glide_einternal>  (184) 
2.54420137405396

>  <r_i_glide_emodel>  (184) 
-43.544629284642703

>  <r_i_glide_energy>  (184) 
-37.294928044080699

>  <r_i_glide_erotb>  (184) 
0.51361344666407005

>  <r_i_glide_esite>  (184) 
-0.098687210182567903

>  <r_i_glide_evdw>  (184) 
-36.876590728759801

>  <r_i_glide_gscore>  (184) 
-3.3175592324152201

>  <r_i_glide_hbond>  (184) 
0

>  <r_i_glide_ligand_efficiency>  (184) 
-0.103520601012976

>  <r_i_glide_ligand_efficiency_ln>  (184) 
-0.74179470181799201

>  <r_i_glide_ligand_efficiency_sa>  (184) 
-0.328657421517076

>  <r_i_glide_lipo>  (184) 
-1.3068800074370099

>  <r_i_glide_metal>  (184) 
-0

>  <r_i_glide_rewards>  (184) 
-0.51902532772358001

>  <r_lp_Energy>  (184) 
34.309832999999998

>  <r_qp_ACxDN^.5/SA>  (184) 
0.0084007000000000005

>  <r_qp_CIQPlogS>  (184) 
-7.3040000000000003

>  <r_qp_EA(eV)>  (184) 
1.4610000000000001

>  <r_qp_FISA>  (184) 
93.093000000000004

>  <r_qp_FOSA>  (184) 
122.447

>  <r_qp_IP(eV)>  (184) 
8.8829999999999991

>  <r_qp_Jm>  (184) 
0.081312859548378497

>  <r_qp_PISA>  (184) 
386.29300000000001

>  <r_qp_PSA>  (184) 
67.765000000000001

>  <r_qp_PercentHumanOralAbsorption>  (184) 
100

>  <r_qp_QPPCaco>  (184) 
1297.4860000000001

>  <r_qp_QPPMDCK>  (184) 
1277.126

>  <r_qp_QPlogBB>  (184) 
-0.497

>  <r_qp_QPlogHERG>  (184) 
-5.5529999999999999

>  <r_qp_QPlogKhsa>  (184) 
0.752

>  <r_qp_QPlogKp>  (184) 
-1.298

>  <r_qp_QPlogPC16>  (184) 
13.970000000000001

>  <r_qp_QPlogPo/w>  (184) 
4.9710000000000001

>  <r_qp_QPlogPoct>  (184) 
19.712

>  <r_qp_QPlogPw>  (184) 
10.132999999999999

>  <r_qp_QPlogS>  (184) 
-5.4359999999999999

>  <r_qp_QPpolrz>  (184) 
44.424999999999997

>  <r_qp_SASA>  (184) 
654.70500000000004

>  <r_qp_SAamideO>  (184) 
0

>  <r_qp_SAfluorine>  (184) 
0

>  <r_qp_WPSA>  (184) 
52.872

>  <r_qp_accptHB>  (184) 
5.5

>  <r_qp_dip^2/V>  (184) 
0.0081528999999999994

>  <r_qp_dipole>  (184) 
3.2149999999999999

>  <r_qp_donorHB>  (184) 
1

>  <r_qp_glob>  (184) 
0.86533510000000002

>  <r_qp_mol_MW>  (184) 
440.93099999999998

>  <r_qp_volume>  (184) 
1267.9369999999999

>  <r_sd_BIOSOLVEIT.INFINISEE\_FTREES\_SIMILARITY>  (184) 
0.90900000000000003

>  <r_sd_BIOSOLVEIT.LOGP>  (184) 
6.4236800000000001

>  <r_sd_BIOSOLVEIT.MOLECULAR\_WEIGHT>  (184) 
440.93200000000002

>  <r_sd_BIOSOLVEIT.TPSA>  (184) 
69.019999999999996

>  <i_epik_Tot_Q>  (184) 
0

>  <i_epik_Tot_abs_Q>  (184) 
0

>  <i_f3d_flags>  (184) 
0

>  <i_i_glide_confnum>  (184) 
3

>  <i_i_glide_lignum>  (184) 
1194

>  <i_i_glide_posenum>  (184) 
4

>  <i_i_glide_rotatable_bonds>  (184) 
6

>  <i_lp_mmshare_version>  (184) 
65135

>  <i_m_ct_format>  (184) 
2

>  <i_m_source_file_index>  (184) 
2691

>  <i_qp_#NandO>  (184) 
5

>  <i_qp_#acid>  (184) 
0

>  <i_qp_#amide>  (184) 
0

>  <i_qp_#amidine>  (184) 
0

>  <i_qp_#amine>  (184) 
0

>  <i_qp_#in34>  (184) 
0

>  <i_qp_#in56>  (184) 
22

>  <i_qp_#metab>  (184) 
2

>  <i_qp_#nonHatm>  (184) 
32

>  <i_qp_#noncon>  (184) 
0

>  <i_qp_#ringatoms>  (184) 
22

>  <i_qp_#rotor>  (184) 
6

>  <i_qp_#rtvFG>  (184) 
0

>  <i_qp_#stars>  (184) 
0

>  <i_qp_CNS>  (184) 
0

>  <i_qp_HumanOralAbsorption>  (184) 
3

>  <i_qp_RuleOfFive>  (184) 
0

>  <i_qp_RuleOfThree>  (184) 
0

>  <i_sd_BIOSOLVEIT.INFINISEE\_RESULT\_RANK>  (184) 
51592

>  <i_sd_version>  (184) 
0

>  <b_lp_Chiralities_Consistent>  (184) 
1

>  <b_sd_chiral_flag>  (184) 
0

>  <canonical_id>  (184) 
ATP-HTVS-1C71F28794EF

>  <compound_code>  (184) 
86081

>  <title>  (184) 
rxn502b____EMOL49828571____EMOL30488121____EMOL36822768

>  <variant>  (184) 
86081-1

>  <source_file>  (184) 
运行/运行/ATP-VSW/ATP-VSW-DOCK_HTVS_1-001_lib/ATP-VSW-DOCK_HTVS_1-001_lib

>  <canonical_smiles>  (184) 
CC(C)(C(=O)Nc1cnc2ccccc2c1N(C#N)c1ccccc1)c1ccc(Cl)cc1

>  <scaffold>  (184) 
O=C(Cc1ccccc1)Nc1cnc2ccccc2c1Nc1ccccc1

>  <molecular_formula>  (184) 
C26H21ClN4O

$$$$
ATP-HTVS-1C9D0B7FE190
     RDKit          3D

 60 63  0  0  0  0  0  0  0  0999 V2000
  194.0109  184.2365  160.1206 F   0  0  0  0  0  0  0  0  0  0  0  0
  194.9842  184.1370  159.1805 C   0  0  0  0  0  0  0  0  0  0  0  0
  195.7446  185.2659  158.8397 C   0  0  0  0  0  0  0  0  0  0  0  0
  196.7474  185.1733  157.8355 C   0  0  0  0  0  0  0  0  0  0  0  0
  196.9931  183.9493  157.1595 C   0  0  0  0  0  0  0  0  0  0  0  0
  198.0428  183.8875  156.1808 N   0  0  0  0  0  0  0  0  0  0  0  0
  198.5867  185.0863  155.6630 C   0  0  0  0  0  0  0  0  0  0  0  0
  199.4727  185.0624  154.4558 C   0  0  0  0  0  0  0  0  0  0  0  0
  200.6858  185.8452  154.4267 C   0  0  0  0  0  0  0  0  0  0  0  0
  201.4840  185.8474  153.2460 C   0  0  0  0  0  0  0  0  0  0  0  0
  201.1234  185.0545  152.1243 C   0  0  0  0  0  0  0  0  0  0  0  0
  199.9150  184.2977  152.1861 C   0  0  0  0  0  0  0  0  0  0  0  0
  199.0464  184.3373  153.3045 C   0  0  0  0  0  0  0  0  0  0  0  0
  198.3564  186.2693  156.2663 C   0  0  0  0  0  0  0  0  0  0  0  0
  197.4859  186.4002  157.4493 C   0  0  0  0  0  0  0  0  0  0  0  0
  197.3691  187.4654  158.0491 O   0  0  0  0  0  0  0  0  0  0  0  0
  198.7217  182.5762  156.0472 C   0  0  2  0  0  0  0  0  0  0  0  0
  198.2171  181.6232  154.9197 C   0  0  0  0  0  0  0  0  0  0  0  0
  198.8762  180.4279  154.5384 C   0  0  0  0  0  0  0  0  0  0  0  0
  198.3951  179.6591  153.4434 C   0  0  0  0  0  0  0  0  0  0  0  0
  197.3008  180.0918  152.6788 C   0  0  0  0  0  0  0  0  0  0  0  0
  196.9211  179.2698  151.6227 O   0  0  0  0  0  0  0  0  0  0  0  0
  196.0736  179.8225  150.6262 C   0  0  2  0  0  0  0  0  0  0  0  0
  196.6817  181.3042  153.0128 C   0  0  0  0  0  0  0  0  0  0  0  0
  197.0937  182.0093  154.1577 C   0  0  0  0  0  0  0  0  0  0  0  0
  200.1593  179.9015  155.1998 C   0  0  1  0  0  0  0  0  0  0  0  0
  199.8430  178.9532  156.3099 N   0  0  1  0  0  0  0  0  0  0  0  0
  199.3694  177.6393  155.8336 C   0  0  2  0  0  0  0  0  0  0  0  0
  200.9435  178.8071  157.2945 C   0  0  2  0  0  0  0  0  0  0  0  0
  199.0002  181.8884  157.4210 C   0  0  2  0  0  0  0  0  0  0  0  0
  196.1770  182.8366  157.5014 C   0  0  0  0  0  0  0  0  0  0  0  0
  195.2077  182.9194  158.5254 C   0  0  0  0  0  0  0  0  0  0  0  0
  195.5325  186.2092  159.3164 H   0  0  0  0  0  0  0  0  0  0  0  0
  200.9742  186.4629  155.2739 H   0  0  0  0  0  0  0  0  0  0  0  0
  202.3686  186.4713  153.1972 H   0  0  0  0  0  0  0  0  0  0  0  0
  201.7178  185.0451  151.2143 H   0  0  0  0  0  0  0  0  0  0  0  0
  199.6072  183.7015  151.3423 H   0  0  0  0  0  0  0  0  0  0  0  0
  198.0828  183.8952  153.2165 H   0  0  0  0  0  0  0  0  0  0  0  0
  198.7772  187.1897  155.8893 H   0  0  0  0  0  0  0  0  0  0  0  0
  199.7249  182.8288  155.7010 H   0  0  0  0  0  0  0  0  0  0  0  0
  198.8858  178.7366  153.1557 H   0  0  0  0  0  0  0  0  0  0  0  0
  195.8090  179.0422  149.9193 H   0  0  0  0  0  0  0  0  0  0  0  0
  196.6064  180.6068  150.0876 H   0  0  0  0  0  0  0  0  0  0  0  0
  195.1469  180.2250  151.0288 H   0  0  0  0  0  0  0  0  0  0  0  0
  195.9011  181.7328  152.4107 H   0  0  0  0  0  0  0  0  0  0  0  0
  196.5326  182.9258  154.4049 H   0  0  0  0  0  0  0  0  0  0  0  0
  200.7985  179.4142  154.4534 H   0  0  0  0  0  0  0  0  0  0  0  0
  200.7772  180.7385  155.5303 H   0  0  0  0  0  0  0  0  0  0  0  0
  200.1262  177.1508  155.2192 H   0  0  0  0  0  0  0  0  0  0  0  0
  198.4506  177.7288  155.2554 H   0  0  0  0  0  0  0  0  0  0  0  0
  199.1430  176.9789  156.6699 H   0  0  0  0  0  0  0  0  0  0  0  0
  201.8265  178.3676  156.8259 H   0  0  0  0  0  0  0  0  0  0  0  0
  200.6251  178.1714  158.1246 H   0  0  0  0  0  0  0  0  0  0  0  0
  201.2621  179.7523  157.7329 H   0  0  0  0  0  0  0  0  0  0  0  0
  199.8575  181.2295  157.3630 H   0  0  0  0  0  0  0  0  0  0  0  0
  198.1440  181.2825  157.7355 H   0  0  0  0  0  0  0  0  0  0  0  0
  199.2637  182.6338  158.1840 H   0  0  0  0  0  0  0  0  0  0  0  0
  196.2583  181.8903  156.9918 H   0  0  0  0  0  0  0  0  0  0  0  0
  194.6265  182.0461  158.7819 H   0  0  0  0  0  0  0  0  0  0  0  0
  199.0442  179.3371  156.8080 H   0  0  0  0  0  0  0  0  0  0  0  0
  1  2  1  0
  2  3  1  0
  2 32  2  0
  3  4  2  0
  3 33  1  0
  4  5  1  0
  4 15  1  0
  5  6  1  0
  5 31  2  0
  6  7  1  0
  6 17  1  0
  7  8  1  0
  7 14  2  0
  8  9  2  0
  8 13  1  0
  9 10  1  0
  9 34  1  0
 10 11  2  0
 10 35  1  0
 11 12  1  0
 11 36  1  0
 12 13  2  0
 12 37  1  0
 13 38  1  0
 14 15  1  0
 14 39  1  0
 15 16  2  0
 17 18  1  0
 17 30  1  0
 17 40  1  6
 18 19  2  0
 18 25  1  0
 19 20  1  0
 19 26  1  0
 20 21  2  0
 20 41  1  0
 21 22  1  0
 21 24  1  0
 22 23  1  0
 23 42  1  6
 23 43  1  0
 23 44  1  0
 24 25  2  0
 24 45  1  0
 25 46  1  0
 26 27  1  0
 26 47  1  6
 26 48  1  0
 27 28  1  0
 27 29  1  0
 27 60  1  1
 28 49  1  6
 28 50  1  0
 28 51  1  0
 29 52  1  6
 29 53  1  0
 29 54  1  0
 30 55  1  6
 30 56  1  0
 30 57  1  0
 31 32  1  0
 31 58  1  0
 32 59  1  0
M  CHG  1  27   1
M  END
>  <s_epik_cmdline>  (185) 
J2VwaWtfcHl0aG9uJywgJy1waCcsICc3LjAwMDAwMCcsICctcGh0JywgJzIuMDAwMDAwJywgJy1tcycsICcxNicsICctdG4nLCAnOCcsICctbWEnLCAnMjAwJywgJy1pbWFlJywgJzxpbmZpbGUubWFlPicsICctb21hZScsICc8b3V0ZmlsZS5tYWU+Jw==

>  <s_epik_input>  (185) 
W0NIM11PYyhbY0hdW2NIXTEpW2NIXWMoW0NIMl1OKFtDSDNdKVtDSDNdKWMxW0NASF0oW0NIM10pbihjKGMyMylbY0hdW2NIXWMoRilbY0hdMiljKFtjSF1jMz1PKS1jNFtjSF1bY0hdW2NIXVtjSF1bY0hdNA==

>  <s_i_glide_gridfile>  (185) 
ATP-Grid

>  <s_lp_Force_Field>  (185) 
OPLS_2005

>  <s_lp_Variant>  (185) 
rxn207____EMOL44480024____EMOL42652158-2

>  <s_lp_label>  (185) 
3082_sdstereoexpander_2_neutralizer_1_epik_1_stereoizer_1

>  <s_m_source_file>  (185) 
ATP-VSW-LIGPREP-002-in.maegz

>  <s_sd_BIOSOLVEIT.INFINISEE\_QUERY\_NAME>  (185) 
Ref-Lig

>  <s_sd_BIOSOLVEIT.INFINISEE\_QUERY\_SMILES>  (185) 
S(c1nc2c(cc1C[NH2+]Cc3ccc(cc3)C[NH+](C)C)cccc2)Cc4ccccc4

>  <s_sd_BIOSOLVEIT.INFINISEE\_REACTION\_NAME>  (185) 
rxn207

>  <s_sd_BIOSOLVEIT.INFINISEE\_REAGENT1\_NAME>  (185) 
EMOL44480024

>  <s_sd_BIOSOLVEIT.INFINISEE\_REAGENT1\_SMILES>  (185) 
O=C(c1c(cc(OC)cc1)CN(C)C)C

>  <s_sd_BIOSOLVEIT.INFINISEE\_REAGENT2\_NAME>  (185) 
EMOL42652158

>  <s_sd_BIOSOLVEIT.INFINISEE\_REAGENT2\_SMILES>  (185) 
Fc1cc2c(NC(c3ccccc3)=CC2=O)cc1

>  <s_sd_BIOSOLVEIT.INFINISEE\_SPACE>  (185) 
eXplore_7tr_2022-12

>  <s_vsw_compound_code>  (185) 
98594

>  <s_vsw_variant>  (185) 
98594-2

>  <r_epik_Charging_Adjusted_Penalty>  (185) 
0.085426627242324499

>  <r_epik_Ionization_Penalty>  (185) 
0.042700000000000002

>  <r_epik_Ionization_Penalty_Charging>  (185) 
0.042700000000000002

>  <r_epik_Ionization_Penalty_Neutral>  (185) 
0

>  <r_epik_State_Penalty>  (185) 
0.042700000000000002

>  <r_i_docking_score>  (185) 
-3.9577811011263901

>  <r_i_glide_ecoul>  (185) 
-6.8949327468872097

>  <r_i_glide_eff_state_penalty>  (185) 
0.042700000000000002

>  <r_i_glide_einternal>  (185) 
3.9388632774353001

>  <r_i_glide_emodel>  (185) 
-47.364041355888197

>  <r_i_glide_energy>  (185) 
-36.479981422424302

>  <r_i_glide_erotb>  (185) 
0.427269813943154

>  <r_i_glide_esite>  (185) 
-0.062066783713928597

>  <r_i_glide_evdw>  (185) 
-29.585048675537099

>  <r_i_glide_gscore>  (185) 
-4.0004811011263897

>  <r_i_glide_hbond>  (185) 
0

>  <r_i_glide_ligand_efficiency>  (185) 
-0.1236806594102

>  <r_i_glide_ligand_efficiency_ln>  (185) 
-0.88625507358039701

>  <r_i_glide_ligand_efficiency_sa>  (185) 
-0.39266161725812299

>  <r_i_glide_lipo>  (185) 
-0.92480337667245804

>  <r_i_glide_metal>  (185) 
-0

>  <r_i_glide_rewards>  (185) 
-0.92738840887322505

>  <r_lp_Energy>  (185) 
35.566477999999996

>  <r_lp_tautomer_probability>  (185) 
1

>  <r_qp_ACxDN^.5/SA>  (185) 
0

>  <r_qp_CIQPlogS>  (185) 
-6.0510000000000002

>  <r_qp_EA(eV)>  (185) 
0.70999999999999996

>  <r_qp_FISA>  (185) 
54.609999999999999

>  <r_qp_FOSA>  (185) 
268.04899999999998

>  <r_qp_IP(eV)>  (185) 
8.5869999999999997

>  <r_qp_Jm>  (185) 
0.023449154746886299

>  <r_qp_PISA>  (185) 
309.17700000000002

>  <r_qp_PSA>  (185) 
43.015999999999998

>  <r_qp_PercentHumanOralAbsorption>  (185) 
100

>  <r_qp_QPPCaco>  (185) 
749.78300000000002

>  <r_qp_QPPMDCK>  (185) 
725.17899999999997

>  <r_qp_QPlogBB>  (185) 
0.215

>  <r_qp_QPlogHERG>  (185) 
-6.1139999999999999

>  <r_qp_QPlogKhsa>  (185) 
0.76100000000000001

>  <r_qp_QPlogKp>  (185) 
-2.923

>  <r_qp_QPlogPC16>  (185) 
12.612

>  <r_qp_QPlogPo/w>  (185) 
4.9189999999999996

>  <r_qp_QPlogPoct>  (185) 
18.571000000000002

>  <r_qp_QPlogPw>  (185) 
7.6909999999999998

>  <r_qp_QPlogS>  (185) 
-4.3410000000000002

>  <r_qp_QPpolrz>  (185) 
45.362000000000002

>  <r_qp_SASA>  (185) 
678.82299999999998

>  <r_qp_SAamideO>  (185) 
0

>  <r_qp_SAfluorine>  (185) 
46.987000000000002

>  <r_qp_WPSA>  (185) 
46.987000000000002

>  <r_qp_accptHB>  (185) 
5.25

>  <r_qp_dip^2/V>  (185) 
0.044207900000000001

>  <r_qp_dipole>  (185) 
7.609

>  <r_qp_donorHB>  (185) 
0

>  <r_qp_glob>  (185) 
0.8528367

>  <r_qp_mol_MW>  (185) 
430.52100000000002

>  <r_qp_volume>  (185) 
1309.742

>  <r_sd_BIOSOLVEIT.INFINISEE\_FTREES\_SIMILARITY>  (185) 
0.90100000000000002

>  <r_sd_BIOSOLVEIT.LOGP>  (185) 
4.2838000000000003

>  <r_sd_BIOSOLVEIT.MOLECULAR\_WEIGHT>  (185) 
431.52800000000002

>  <r_sd_BIOSOLVEIT.TPSA>  (185) 
33.979999999999997

>  <i_epik_Tot_Q>  (185) 
1

>  <i_epik_Tot_abs_Q>  (185) 
1

>  <i_f3d_flags>  (185) 
0

>  <i_i_glide_confnum>  (185) 
1

>  <i_i_glide_lignum>  (185) 
132

>  <i_i_glide_posenum>  (185) 
16

>  <i_i_glide_rotatable_bonds>  (185) 
6

>  <i_lp_mmshare_version>  (185) 
65135

>  <i_m_ct_format>  (185) 
2

>  <i_m_source_file_index>  (185) 
3082

>  <i_qp_#NandO>  (185) 
4

>  <i_qp_#acid>  (185) 
0

>  <i_qp_#amide>  (185) 
0

>  <i_qp_#amidine>  (185) 
0

>  <i_qp_#amine>  (185) 
1

>  <i_qp_#in34>  (185) 
0

>  <i_qp_#in56>  (185) 
22

>  <i_qp_#metab>  (185) 
5

>  <i_qp_#nonHatm>  (185) 
32

>  <i_qp_#noncon>  (185) 
0

>  <i_qp_#ringatoms>  (185) 
22

>  <i_qp_#rotor>  (185) 
6

>  <i_qp_#rtvFG>  (185) 
0

>  <i_qp_#stars>  (185) 
0

>  <i_qp_CNS>  (185) 
1

>  <i_qp_HumanOralAbsorption>  (185) 
3

>  <i_qp_RuleOfFive>  (185) 
0

>  <i_qp_RuleOfThree>  (185) 
0

>  <i_sd_BIOSOLVEIT.INFINISEE\_RESULT\_RANK>  (185) 
94715

>  <i_sd_version>  (185) 
0

>  <b_lp_Chiralities_Consistent>  (185) 
1

>  <b_sd_chiral_flag>  (185) 
0

>  <canonical_id>  (185) 
ATP-HTVS-1C9D0B7FE190

>  <compound_code>  (185) 
98594

>  <title>  (185) 
rxn207____EMOL44480024____EMOL42652158

>  <variant>  (185) 
98594-2

>  <source_file>  (185) 
运行/运行/ATP-VSW/ATP-VSW-DOCK_HTVS_1-003_lib/ATP-VSW-DOCK_HTVS_1-003_lib.mae

>  <canonical_smiles>  (185) 
COc1ccc([C@H](C)n2c(-c3ccccc3)cc(=O)c3cc(F)ccc32)c(C[NH+](C)C)c1

>  <scaffold>  (185) 
O=c1cc(-c2ccccc2)n(Cc2ccccc2)c2ccccc12

>  <molecular_formula>  (185) 
C27H28FN2O2+

$$$$
ATP-HTVS-1CAAE7675504
     RDKit          3D

 64 67  0  0  0  0  0  0  0  0999 V2000
  195.5276  185.9231  160.6144 F   0  0  0  0  0  0  0  0  0  0  0  0
  195.7882  184.9282  159.7084 C   0  0  0  0  0  0  0  0  0  0  0  0
  195.1370  183.6845  159.7627 C   0  0  0  0  0  0  0  0  0  0  0  0
  195.4187  182.6592  158.8162 C   0  0  0  0  0  0  0  0  0  0  0  0
  194.7223  181.4377  158.9194 N   0  0  0  0  0  0  0  0  0  0  0  0
  196.3144  182.8983  157.7728 C   0  0  0  0  0  0  0  0  0  0  0  0
  196.8886  184.2045  157.7276 C   0  0  0  0  0  0  0  0  0  0  0  0
  196.6907  185.1728  158.6883 C   0  0  0  0  0  0  0  0  0  0  0  0
  196.6491  181.8249  156.7146 C   0  0  1  0  0  0  0  0  0  0  0  0
  196.8424  182.2488  155.3181 N   0  0  0  0  0  0  0  0  0  0  0  0
  197.8636  183.1178  154.9276 C   0  0  0  0  0  0  0  0  0  0  0  0
  198.8557  183.3782  155.8052 N   0  0  0  0  0  0  0  0  0  0  0  0
  199.7279  184.3604  155.6425 C   0  0  0  0  0  0  0  0  0  0  0  0
  199.7917  185.0228  154.4911 N   0  0  0  0  0  0  0  0  0  0  0  0
  198.9304  184.7354  153.4941 C   0  0  0  0  0  0  0  0  0  0  0  0
  197.8985  183.7647  153.6851 C   0  0  0  0  0  0  0  0  0  0  0  0
  196.9787  183.4830  152.6519 C   0  0  0  0  0  0  0  0  0  0  0  0
  197.1774  184.0586  151.3917 C   0  0  0  0  0  0  0  0  0  0  0  0
  198.2404  184.9626  151.1714 C   0  0  0  0  0  0  0  0  0  0  0  0
  199.0998  185.3069  152.2383 C   0  0  0  0  0  0  0  0  0  0  0  0
  200.5181  184.7739  156.7107 N   0  0  0  0  0  0  0  0  0  0  0  0
  200.5427  184.2013  158.0645 C   0  0  1  0  0  0  0  0  0  0  0  0
  201.2813  182.8708  158.1906 C   0  0  0  0  0  0  0  0  0  0  0  0
  200.9122  181.7605  157.4032 C   0  0  0  0  0  0  0  0  0  0  0  0
  201.5948  180.5451  157.4494 C   0  0  0  0  0  0  0  0  0  0  0  0
  202.6884  180.4268  158.3207 C   0  0  0  0  0  0  0  0  0  0  0  0
  203.0329  181.4819  159.1778 C   0  0  0  0  0  0  0  0  0  0  0  0
  202.3385  182.7047  159.1126 C   0  0  0  0  0  0  0  0  0  0  0  0
  201.1230  179.3880  156.5776 C   0  0  1  0  0  0  0  0  0  0  0  0
  200.3421  178.3674  157.3306 N   0  0  1  0  0  0  0  0  0  0  0  0
  199.7445  177.3257  156.4542 C   0  0  1  0  0  0  0  0  0  0  0  0
  200.7946  176.4943  155.6953 C   0  0  2  0  0  0  0  0  0  0  0  0
  201.0749  177.7597  158.4698 C   0  0  2  0  0  0  0  0  0  0  0  0
  194.4156  183.5142  160.5511 H   0  0  0  0  0  0  0  0  0  0  0  0
  195.0568  180.6039  158.4389 H   0  0  0  0  0  0  0  0  0  0  0  0
  194.2273  181.2235  159.7976 H   0  0  0  0  0  0  0  0  0  0  0  0
  197.4620  184.6479  156.9929 H   0  0  0  0  0  0  0  0  0  0  0  0
  197.2142  186.0949  158.5475 H   0  0  0  0  0  0  0  0  0  0  0  0
  197.5558  181.2893  157.0004 H   0  0  0  0  0  0  0  0  0  0  0  0
  195.8726  181.0484  156.7017 H   0  0  0  0  0  0  0  0  0  0  0  0
  196.2597  181.8123  154.6230 H   0  0  0  0  0  0  0  0  0  0  0  0
  196.1739  182.7725  152.8063 H   0  0  0  0  0  0  0  0  0  0  0  0
  196.5185  183.7915  150.5721 H   0  0  0  0  0  0  0  0  0  0  0  0
  198.3885  185.4023  150.2124 H   0  0  0  0  0  0  0  0  0  0  0  0
  199.9291  185.9980  152.0735 H   0  0  0  0  0  0  0  0  0  0  0  0
  201.1108  185.5608  156.5638 H   0  0  0  0  0  0  0  0  0  0  0  0
  201.0327  184.9134  158.7337 H   0  0  0  0  0  0  0  0  0  0  0  0
  199.5367  184.0833  158.4588 H   0  0  0  0  0  0  0  0  0  0  0  0
  200.0938  181.7611  156.7299 H   0  0  0  0  0  0  0  0  0  0  0  0
  203.2120  179.4912  158.3785 H   0  0  0  0  0  0  0  0  0  0  0  0
  203.8306  181.3320  159.8810 H   0  0  0  0  0  0  0  0  0  0  0  0
  202.6378  183.5091  159.7643 H   0  0  0  0  0  0  0  0  0  0  0  0
  200.5081  179.7762  155.7578 H   0  0  0  0  0  0  0  0  0  0  0  0
  202.0012  178.9405  156.1218 H   0  0  0  0  0  0  0  0  0  0  0  0
  199.1446  176.6505  157.0665 H   0  0  0  0  0  0  0  0  0  0  0  0
  199.0499  177.7926  155.7527 H   0  0  0  0  0  0  0  0  0  0  0  0
  200.3223  175.6933  155.1324 H   0  0  0  0  0  0  0  0  0  0  0  0
  201.4999  176.0163  156.3737 H   0  0  0  0  0  0  0  0  0  0  0  0
  201.3656  177.0996  154.9918 H   0  0  0  0  0  0  0  0  0  0  0  0
  201.9510  177.2196  158.1090 H   0  0  0  0  0  0  0  0  0  0  0  0
  200.4447  177.0954  159.0601 H   0  0  0  0  0  0  0  0  0  0  0  0
  201.4305  178.4828  159.1875 H   0  0  0  0  0  0  0  0  0  0  0  0
  200.5097  185.7356  154.3439 H   0  0  0  0  0  0  0  0  0  0  0  0
  199.5503  178.8499  157.7380 H   0  0  0  0  0  0  0  0  0  0  0  0
  1  2  1  0
  2  3  2  0
  2  8  1  0
  3  4  1  0
  3 34  1  0
  4  5  1  0
  4  6  2  0
  5 35  1  0
  5 36  1  0
  6  7  1  0
  6  9  1  0
  7  8  2  0
  7 37  1  0
  8 38  1  0
  9 10  1  0
  9 39  1  1
  9 40  1  0
 10 11  1  0
 10 41  1  0
 11 12  2  0
 11 16  1  0
 12 13  1  0
 13 14  2  0
 13 21  1  0
 14 15  1  0
 14 63  1  0
 15 16  1  0
 15 20  2  0
 16 17  2  0
 17 18  1  0
 17 42  1  0
 18 19  2  0
 18 43  1  0
 19 20  1  0
 19 44  1  0
 20 45  1  0
 21 22  1  0
 21 46  1  0
 22 23  1  0
 22 47  1  1
 22 48  1  0
 23 24  2  0
 23 28  1  0
 24 25  1  0
 24 49  1  0
 25 26  2  0
 25 29  1  0
 26 27  1  0
 26 50  1  0
 27 28  2  0
 27 51  1  0
 28 52  1  0
 29 30  1  0
 29 53  1  6
 29 54  1  0
 30 31  1  0
 30 33  1  0
 30 64  1  1
 31 32  1  0
 31 55  1  1
 31 56  1  0
 32 57  1  6
 32 58  1  0
 32 59  1  0
 33 60  1  6
 33 61  1  0
 33 62  1  0
M  CHG  2  14   1  30   1
M  END
>  <s_epik_cmdline>  (186) 
J2VwaWtfcHl0aG9uJywgJy1waCcsICc3LjAwMDAwMCcsICctcGh0JywgJzIuMDAwMDAwJywgJy1tcycsICcxNicsICctdG4nLCAnOCcsICctbWEnLCAnMjAwJywgJy1pbWFlJywgJzxpbmZpbGUubWFlPicsICctb21hZScsICc8b3V0ZmlsZS5tYWU+Jw==

>  <s_epik_input>  (186) 
RmMxW2NIXWMoW05IMl0pYyhbY0hdW2NIXTEpW0NIMl1bTkhdYyhjKGMyMylbY0hdW2NIXVtjSF1bY0hdMyluYyhuMilbTkhdW0NIMl1jNFtjSF1jKFtjSF1bY0hdW2NIXTQpW0NIMl1OKFtDSDNdKVtDSDJdW0NIM10=

>  <s_i_glide_gridfile>  (186) 
ATP-Grid

>  <s_lp_Force_Field>  (186) 
OPLS_2005

>  <s_lp_Variant>  (186) 
m_282030aaa____21930070____22360182____21938720-1

>  <s_lp_label>  (186) 
1615_sdstereoexpander_1_neutralizer_1_epik_1_stereoizer_1

>  <s_m_source_file>  (186) 
ATP-VSW-LIGPREP-003-in.maegz

>  <s_sd_BIOSOLVEIT.INFINISEE\_QUERY\_NAME>  (186) 
Ref-Lig

>  <s_sd_BIOSOLVEIT.INFINISEE\_QUERY\_SMILES>  (186) 
S(c1nc2c(cc1C[NH2+]Cc3ccc(cc3)C[NH+](C)C)cccc2)Cc4ccccc4

>  <s_sd_BIOSOLVEIT.INFINISEE\_REACTION\_NAME>  (186) 
m_282030aaa

>  <s_sd_BIOSOLVEIT.INFINISEE\_REAGENT1\_SMILES>  (186) 
[R1*]NCc1cc(ccc1)CN(CC)C

>  <s_sd_BIOSOLVEIT.INFINISEE\_REAGENT2\_SMILES>  (186) 
[R2*]c1nc([R1*])c2c(n1)cccc2

>  <s_sd_BIOSOLVEIT.INFINISEE\_REAGENT3\_SMILES>  (186) 
[R2*]NCc1c(N)cc(F)cc1

>  <s_sd_BIOSOLVEIT.INFINISEE\_SPACE>  (186) 
REALSpace_44bn_2023-08

>  <s_vsw_compound_code>  (186) 
51651

>  <s_vsw_variant>  (186) 
51651-1

>  <r_epik_Charging_Adjusted_Penalty>  (186) 
0.089070388984551704

>  <r_epik_Ionization_Penalty>  (186) 
0.0453

>  <r_epik_Ionization_Penalty_Charging>  (186) 
0.044900000000000002

>  <r_epik_Ionization_Penalty_Neutral>  (186) 
0.00040000000000000002

>  <r_epik_State_Penalty>  (186) 
0.044200000000000003

>  <r_i_docking_score>  (186) 
-4.6060864057899096

>  <r_i_glide_ecoul>  (186) 
-9.23766994476318

>  <r_i_glide_eff_state_penalty>  (186) 
0.044200000000000003

>  <r_i_glide_einternal>  (186) 
4.1759996414184597

>  <r_i_glide_emodel>  (186) 
-59.028005027172597

>  <r_i_glide_energy>  (186) 
-41.604826927185101

>  <r_i_glide_erotb>  (186) 
0.80303265656137202

>  <r_i_glide_esite>  (186) 
-0.2091219469167

>  <r_i_glide_evdw>  (186) 
-32.367156982421903

>  <r_i_glide_gscore>  (186) 
-4.6502864057899096

>  <r_i_glide_hbond>  (186) 
-0.16746370708108599

>  <r_i_glide_ligand_efficiency>  (186) 
-0.13957837593302699

>  <r_i_glide_ligand_efficiency_ln>  (186) 
-1.0243697676086401

>  <r_i_glide_ligand_efficiency_sa>  (186) 
-0.447702432008451

>  <r_i_glide_lipo>  (186) 
-1.16334351884539

>  <r_i_glide_metal>  (186) 
-0

>  <r_i_glide_rewards>  (186) 
-0.90938154867252596

>  <r_lp_Energy>  (186) 
23.791601

>  <r_qp_ACxDN^.5/SA>  (186) 
0.0164288

>  <r_qp_CIQPlogS>  (186) 
-5.9000000000000004

>  <r_qp_EA(eV)>  (186) 
0.621

>  <r_qp_FISA>  (186) 
76.852999999999994

>  <r_qp_FOSA>  (186) 
187.751

>  <r_qp_IP(eV)>  (186) 
8.0500000000000007

>  <r_qp_Jm>  (186) 
0.21235638029988499

>  <r_qp_PISA>  (186) 
374.88299999999998

>  <r_qp_PSA>  (186) 
69.049999999999997

>  <r_qp_PercentHumanOralAbsorption>  (186) 
100

>  <r_qp_QPPCaco>  (186) 
461.31900000000002

>  <r_qp_QPPMDCK>  (186) 
411.88900000000001

>  <r_qp_QPlogBB>  (186) 
-0.22700000000000001

>  <r_qp_QPlogHERG>  (186) 
-6.3170000000000002

>  <r_qp_QPlogKhsa>  (186) 
0.53900000000000003

>  <r_qp_QPlogKp>  (186) 
-2.718

>  <r_qp_QPlogPC16>  (186) 
14.297000000000001

>  <r_qp_QPlogPo/w>  (186) 
4.3310000000000004

>  <r_qp_QPlogPoct>  (186) 
23.329999999999998

>  <r_qp_QPlogPw>  (186) 
13.282

>  <r_qp_QPlogS>  (186) 
-3.6030000000000002

>  <r_qp_QPpolrz>  (186) 
44.567999999999998

>  <r_qp_SASA>  (186) 
683.24900000000002

>  <r_qp_SAamideO>  (186) 
0

>  <r_qp_SAfluorine>  (186) 
43.762

>  <r_qp_WPSA>  (186) 
43.762

>  <r_qp_accptHB>  (186) 
6

>  <r_qp_dip^2/V>  (186) 
0.0030999000000000001

>  <r_qp_dipole>  (186) 
2.0369999999999999

>  <r_qp_donorHB>  (186) 
3.5

>  <r_qp_glob>  (186) 
0.85962830000000001

>  <r_qp_mol_MW>  (186) 
444.55399999999997

>  <r_qp_volume>  (186) 
1338.405

>  <r_sd_BIOSOLVEIT.INFINISEE\_FTREES\_SIMILARITY>  (186) 
0.90600000000000003

>  <r_sd_BIOSOLVEIT.LOGP>  (186) 
3.6099000000000001

>  <r_sd_BIOSOLVEIT.MOLECULAR\_WEIGHT>  (186) 
445.56299999999999

>  <r_sd_BIOSOLVEIT.TPSA>  (186) 
80.299999999999997

>  <i_epik_Tot_Q>  (186) 
2

>  <i_epik_Tot_abs_Q>  (186) 
2

>  <i_f3d_flags>  (186) 
0

>  <i_i_glide_confnum>  (186) 
7

>  <i_i_glide_lignum>  (186) 
612

>  <i_i_glide_posenum>  (186) 
1

>  <i_i_glide_rotatable_bonds>  (186) 
9

>  <i_lp_mmshare_version>  (186) 
65135

>  <i_m_ct_format>  (186) 
2

>  <i_m_source_file_index>  (186) 
1615

>  <i_qp_#NandO>  (186) 
6

>  <i_qp_#acid>  (186) 
0

>  <i_qp_#amide>  (186) 
0

>  <i_qp_#amidine>  (186) 
0

>  <i_qp_#amine>  (186) 
1

>  <i_qp_#in34>  (186) 
0

>  <i_qp_#in56>  (186) 
22

>  <i_qp_#metab>  (186) 
6

>  <i_qp_#nonHatm>  (186) 
33

>  <i_qp_#noncon>  (186) 
0

>  <i_qp_#ringatoms>  (186) 
22

>  <i_qp_#rotor>  (186) 
10

>  <i_qp_#rtvFG>  (186) 
0

>  <i_qp_#stars>  (186) 
0

>  <i_qp_CNS>  (186) 
0

>  <i_qp_HumanOralAbsorption>  (186) 
3

>  <i_qp_RuleOfFive>  (186) 
0

>  <i_qp_RuleOfThree>  (186) 
0

>  <i_sd_BIOSOLVEIT.INFINISEE\_REAGENT1\_NAME>  (186) 
21930070

>  <i_sd_BIOSOLVEIT.INFINISEE\_REAGENT2\_NAME>  (186) 
22360182

>  <i_sd_BIOSOLVEIT.INFINISEE\_REAGENT3\_NAME>  (186) 
21938720

>  <i_sd_BIOSOLVEIT.INFINISEE\_RESULT\_RANK>  (186) 
66778

>  <i_sd_version>  (186) 
0

>  <b_lp_Chiralities_Consistent>  (186) 
1

>  <b_sd_chiral_flag>  (186) 
0

>  <canonical_id>  (186) 
ATP-HTVS-1CAAE7675504

>  <compound_code>  (186) 
51651

>  <title>  (186) 
m_282030aaa____21930070____22360182____21938720

>  <variant>  (186) 
51651-1

>  <source_file>  (186) 
运行/运行/ATP-VSW/ATP-VSW-DOCK_HTVS_1-003_lib/ATP-VSW-DOCK_HTVS_1-003_lib.mae

>  <canonical_smiles>  (186) 
CC[N@@H+](C)Cc1cccc(CNc2nc(NCc3ccc(F)cc3N)c3ccccc3[nH+]2)c1

>  <scaffold>  (186) 
c1ccc(CNc2nc(NCc3ccccc3)c3ccccc3[nH+]2)cc1

>  <molecular_formula>  (186) 
C26H31FN6+2

$$$$
ATP-HTVS-1CF603621065
     RDKit          3D

 50 53  0  0  0  0  0  0  0  0999 V2000
  197.4112  183.1202  155.4902 O   0  0  0  0  0  0  0  0  0  0  0  0
  197.3015  182.0119  156.0123 C   0  0  0  0  0  0  0  0  0  0  0  0
  196.6067  181.7741  157.1450 N   0  0  0  0  0  0  0  0  0  0  0  0
  196.1271  182.7934  157.9999 C   0  0  0  0  0  0  0  0  0  0  0  0
  196.9706  183.8733  158.3592 C   0  0  0  0  0  0  0  0  0  0  0  0
  196.5153  184.8786  159.2309 C   0  0  0  0  0  0  0  0  0  0  0  0
  195.2035  184.8210  159.7319 C   0  0  0  0  0  0  0  0  0  0  0  0
  194.3459  183.7728  159.3409 C   0  0  0  0  0  0  0  0  0  0  0  0
  194.8066  182.7529  158.4860 C   0  0  0  0  0  0  0  0  0  0  0  0
  198.0105  180.8155  155.4480 C   0  0  0  0  0  0  0  0  0  0  0  0
  197.8987  180.3505  154.1114 C   0  0  0  0  0  0  0  0  0  0  0  0
  198.5349  179.2420  153.6800 N   0  0  0  0  0  0  0  0  0  0  0  0
  199.3472  178.5312  154.5125 C   0  0  0  0  0  0  0  0  0  0  0  0
  199.5296  178.9368  155.8508 C   0  0  0  0  0  0  0  0  0  0  0  0
  198.8591  180.0808  156.3145 C   0  0  0  0  0  0  0  0  0  0  0  0
  200.3491  178.1860  156.7309 C   0  0  0  0  0  0  0  0  0  0  0  0
  200.9969  177.0232  156.2793 C   0  0  0  0  0  0  0  0  0  0  0  0
  200.8318  176.6061  154.9475 C   0  0  0  0  0  0  0  0  0  0  0  0
  200.0146  177.3614  154.0707 C   0  0  0  0  0  0  0  0  0  0  0  0
  197.1138  180.9637  153.1194 N   0  0  0  0  0  0  0  0  0  0  0  0
  197.5849  182.2790  152.6505 C   0  0  2  0  0  0  0  0  0  0  0  0
  196.6724  182.8438  151.6471 C   0  0  0  0  0  0  0  0  0  0  0  0
  195.9570  183.2823  150.8454 N   0  0  0  0  0  0  0  0  0  0  0  0
  199.0249  182.2812  152.1611 C   0  0  0  0  0  0  0  0  0  0  0  0
  199.4318  181.3730  151.1657 C   0  0  0  0  0  0  0  0  0  0  0  0
  200.7528  181.4043  150.6811 C   0  0  0  0  0  0  0  0  0  0  0  0
  201.6699  182.3458  151.1963 C   0  0  0  0  0  0  0  0  0  0  0  0
  201.2686  183.2413  152.2107 C   0  0  0  0  0  0  0  0  0  0  0  0
  199.9474  183.2042  152.6951 C   0  0  0  0  0  0  0  0  0  0  0  0
  203.0698  182.3885  150.6373 C   0  0  2  0  0  0  0  0  0  0  0  0
  196.4249  180.8009  157.4342 H   0  0  0  0  0  0  0  0  0  0  0  0
  197.9817  183.9342  157.9824 H   0  0  0  0  0  0  0  0  0  0  0  0
  197.1789  185.6772  159.5376 H   0  0  0  0  0  0  0  0  0  0  0  0
  194.8407  185.5783  160.4057 H   0  0  0  0  0  0  0  0  0  0  0  0
  193.3318  183.7455  159.7049 H   0  0  0  0  0  0  0  0  0  0  0  0
  194.1541  181.9502  158.1641 H   0  0  0  0  0  0  0  0  0  0  0  0
  198.9795  180.3855  157.3343 H   0  0  0  0  0  0  0  0  0  0  0  0
  200.4646  178.4908  157.7596 H   0  0  0  0  0  0  0  0  0  0  0  0
  201.6215  176.4487  156.9564 H   0  0  0  0  0  0  0  0  0  0  0  0
  201.3273  175.7121  154.5990 H   0  0  0  0  0  0  0  0  0  0  0  0
  199.8956  177.0225  153.0516 H   0  0  0  0  0  0  0  0  0  0  0  0
  196.9452  180.3233  152.3583 H   0  0  0  0  0  0  0  0  0  0  0  0
  197.5259  183.0408  153.3971 H   0  0  0  0  0  0  0  0  0  0  0  0
  198.7238  180.6502  150.7828 H   0  0  0  0  0  0  0  0  0  0  0  0
  201.0419  180.7045  149.9053 H   0  0  0  0  0  0  0  0  0  0  0  0
  201.9675  183.9649  152.6122 H   0  0  0  0  0  0  0  0  0  0  0  0
  199.6490  183.8874  153.4787 H   0  0  0  0  0  0  0  0  0  0  0  0
  203.7054  183.0553  151.2164 H   0  0  0  0  0  0  0  0  0  0  0  0
  203.0406  182.7396  149.6069 H   0  0  0  0  0  0  0  0  0  0  0  0
  203.5048  181.3909  150.6519 H   0  0  0  0  0  0  0  0  0  0  0  0
  1  2  2  0
  2  3  1  0
  2 10  1  0
  3  4  1  0
  3 31  1  0
  4  5  2  0
  4  9  1  0
  5  6  1  0
  5 32  1  0
  6  7  2  0
  6 33  1  0
  7  8  1  0
  7 34  1  0
  8  9  2  0
  8 35  1  0
  9 36  1  0
 10 11  1  0
 10 15  2  0
 11 12  2  0
 11 20  1  0
 12 13  1  0
 13 14  1  0
 13 19  2  0
 14 15  1  0
 14 16  2  0
 15 37  1  0
 16 17  1  0
 16 38  1  0
 17 18  2  0
 17 39  1  0
 18 19  1  0
 18 40  1  0
 19 41  1  0
 20 21  1  0
 20 42  1  0
 21 22  1  0
 21 24  1  0
 21 43  1  1
 22 23  3  0
 24 25  1  0
 24 29  2  0
 25 26  2  0
 25 44  1  0
 26 27  1  0
 26 45  1  0
 27 28  2  0
 27 30  1  0
 28 29  1  0
 28 46  1  0
 29 47  1  0
 30 48  1  1
 30 49  1  0
 30 50  1  0
M  END
>  <s_epik_cmdline>  (187) 
J2VwaWtfcHl0aG9uJywgJy1waCcsICc3LjAwMDAwMCcsICctcGh0JywgJzIuMDAwMDAwJywgJy1tcycsICcxNicsICctdG4nLCAnOCcsICctbWEnLCAnMjAwJywgJy1pbWFlJywgJzxpbmZpbGUubWFlPicsICctb21hZScsICc8b3V0ZmlsZS5tYWU+Jw==

>  <s_epik_input>  (187) 
W2NIXTFbY0hdW2NIXVtjSF1bY0hdYzFbTkhdQyg9TyljKFtjSF1jKGMyMylbY0hdW2NIXVtjSF1bY0hdMyljKG4yKVtOSF1bQ0BIXShDI04pYzRbY0hdW2NIXWMoW0NIM10pW2NIXVtjSF00

>  <s_i_glide_gridfile>  (187) 
ATP-Grid

>  <s_lp_Force_Field>  (187) 
OPLS_2005

>  <s_lp_Variant>  (187) 
rxn207____EMOL976199____EMOL2720785-2

>  <s_lp_label>  (187) 
2682_sdstereoexpander_2_neutralizer_1_epik_1_stereoizer_1

>  <s_m_source_file>  (187) 
ATP-VSW-LIGPREP-002-in.maegz

>  <s_sd_BIOSOLVEIT.INFINISEE\_QUERY\_NAME>  (187) 
Ref-Lig

>  <s_sd_BIOSOLVEIT.INFINISEE\_QUERY\_SMILES>  (187) 
S(c1nc2c(cc1C[NH2+]Cc3ccc(cc3)C[NH+](C)C)cccc2)Cc4ccccc4

>  <s_sd_BIOSOLVEIT.INFINISEE\_REACTION\_NAME>  (187) 
rxn207

>  <s_sd_BIOSOLVEIT.INFINISEE\_REAGENT1\_NAME>  (187) 
EMOL976199

>  <s_sd_BIOSOLVEIT.INFINISEE\_REAGENT1\_SMILES>  (187) 
O=C(C#N)c1ccc(cc1)C

>  <s_sd_BIOSOLVEIT.INFINISEE\_REAGENT2\_NAME>  (187) 
EMOL2720785

>  <s_sd_BIOSOLVEIT.INFINISEE\_REAGENT2\_SMILES>  (187) 
O=C(Nc1ccccc1)c2c(nc3c(c2)cccc3)N

>  <s_sd_BIOSOLVEIT.INFINISEE\_SPACE>  (187) 
eXplore_7tr_2022-12

>  <s_vsw_compound_code>  (187) 
85794

>  <s_vsw_variant>  (187) 
85794-2

>  <r_epik_Charging_Adjusted_Penalty>  (187) 
0

>  <r_epik_Ionization_Penalty>  (187) 
0.0014

>  <r_epik_Ionization_Penalty_Charging>  (187) 
0

>  <r_epik_Ionization_Penalty_Neutral>  (187) 
0.0014

>  <r_epik_State_Penalty>  (187) 
-0

>  <r_i_docking_score>  (187) 
-3.4291762837220801

>  <r_i_glide_ecoul>  (187) 
-4.43564748764038

>  <r_i_glide_eff_state_penalty>  (187) 
-0

>  <r_i_glide_einternal>  (187) 
6.5277743339538601

>  <r_i_glide_emodel>  (187) 
-42.177990710016502

>  <r_i_glide_energy>  (187) 
-36.996385097503698

>  <r_i_glide_erotb>  (187) 
0.76061675559233899

>  <r_i_glide_esite>  (187) 
-0.157623156613868

>  <r_i_glide_evdw>  (187) 
-32.560737609863303

>  <r_i_glide_gscore>  (187) 
-3.4291762837220801

>  <r_i_glide_hbond>  (187) 
-0.16

>  <r_i_glide_ligand_efficiency>  (187) 
-0.11430587612406901

>  <r_i_glide_ligand_efficiency_ln>  (187) 
-0.77914621552987795

>  <r_i_glide_ligand_efficiency_sa>  (187) 
-0.35517493351156998

>  <r_i_glide_lipo>  (187) 
-0.84550746997041704

>  <r_i_glide_metal>  (187) 
-0

>  <r_i_glide_rewards>  (187) 
-0.73327840909090802

>  <r_lp_Energy>  (187) 
29.595020999999999

>  <r_lp_tautomer_probability>  (187) 
1

>  <r_qp_ACxDN^.5/SA>  (187) 
0.0068785000000000001

>  <r_qp_CIQPlogS>  (187) 
-7.7140000000000004

>  <r_qp_EA(eV)>  (187) 
1.359

>  <r_qp_FISA>  (187) 
119.76600000000001

>  <r_qp_FOSA>  (187) 
89.763000000000005

>  <r_qp_IP(eV)>  (187) 
8.9800000000000004

>  <r_qp_Jm>  (187) 
0.00276723033817519

>  <r_qp_PISA>  (187) 
444.68400000000003

>  <r_qp_PSA>  (187) 
77.894999999999996

>  <r_qp_PercentHumanOralAbsorption>  (187) 
100

>  <r_qp_QPPCaco>  (187) 
724.69899999999996

>  <r_qp_QPPMDCK>  (187) 
349.29899999999998

>  <r_qp_QPlogBB>  (187) 
-0.90100000000000002

>  <r_qp_QPlogHERG>  (187) 
-6.0670000000000002

>  <r_qp_QPlogKhsa>  (187) 
0.85699999999999998

>  <r_qp_QPlogKp>  (187) 
-1.5840000000000001

>  <r_qp_QPlogPC16>  (187) 
13.891999999999999

>  <r_qp_QPlogPo/w>  (187) 
4.8559999999999999

>  <r_qp_QPlogPoct>  (187) 
20.190000000000001

>  <r_qp_QPlogPw>  (187) 
9.7070000000000007

>  <r_qp_QPlogS>  (187) 
-6.5679999999999996

>  <r_qp_QPpolrz>  (187) 
43.652000000000001

>  <r_qp_SASA>  (187) 
654.21299999999997

>  <r_qp_SAamideO>  (187) 
0

>  <r_qp_SAfluorine>  (187) 
0

>  <r_qp_WPSA>  (187) 
0

>  <r_qp_accptHB>  (187) 
4.5

>  <r_qp_dip^2/V>  (187) 
0.1097161

>  <r_qp_dipole>  (187) 
11.638999999999999

>  <r_qp_donorHB>  (187) 
1

>  <r_qp_glob>  (187) 
0.85077879999999995

>  <r_qp_mol_MW>  (187) 
392.459

>  <r_qp_volume>  (187) 
1234.684

>  <r_sd_BIOSOLVEIT.INFINISEE\_FTREES\_SIMILARITY>  (187) 
0.90900000000000003

>  <r_sd_BIOSOLVEIT.LOGP>  (187) 
5.4722999999999997

>  <r_sd_BIOSOLVEIT.MOLECULAR\_WEIGHT>  (187) 
392.45999999999998

>  <r_sd_BIOSOLVEIT.TPSA>  (187) 
77.810000000000002

>  <i_epik_Tot_Q>  (187) 
0

>  <i_epik_Tot_abs_Q>  (187) 
0

>  <i_f3d_flags>  (187) 
0

>  <i_i_glide_confnum>  (187) 
9

>  <i_i_glide_lignum>  (187) 
1302

>  <i_i_glide_posenum>  (187) 
10

>  <i_i_glide_rotatable_bonds>  (187) 
6

>  <i_lp_mmshare_version>  (187) 
65135

>  <i_m_ct_format>  (187) 
2

>  <i_m_source_file_index>  (187) 
2682

>  <i_qp_#NandO>  (187) 
5

>  <i_qp_#acid>  (187) 
0

>  <i_qp_#amide>  (187) 
0

>  <i_qp_#amidine>  (187) 
0

>  <i_qp_#amine>  (187) 
0

>  <i_qp_#in34>  (187) 
0

>  <i_qp_#in56>  (187) 
22

>  <i_qp_#metab>  (187) 
3

>  <i_qp_#nonHatm>  (187) 
30

>  <i_qp_#noncon>  (187) 
0

>  <i_qp_#ringatoms>  (187) 
22

>  <i_qp_#rotor>  (187) 
6

>  <i_qp_#rtvFG>  (187) 
0

>  <i_qp_#stars>  (187) 
1

>  <i_qp_CNS>  (187) 
-1

>  <i_qp_HumanOralAbsorption>  (187) 
1

>  <i_qp_RuleOfFive>  (187) 
0

>  <i_qp_RuleOfThree>  (187) 
1

>  <i_sd_BIOSOLVEIT.INFINISEE\_RESULT\_RANK>  (187) 
50472

>  <i_sd_version>  (187) 
0

>  <b_lp_Chiralities_Consistent>  (187) 
1

>  <b_sd_chiral_flag>  (187) 
0

>  <canonical_id>  (187) 
ATP-HTVS-1CF603621065

>  <compound_code>  (187) 
85794

>  <title>  (187) 
rxn207____EMOL976199____EMOL2720785

>  <variant>  (187) 
85794-2

>  <source_file>  (187) 
运行/运行/ATP-VSW/ATP-VSW-DOCK_HTVS_1-002_lib.maegz

>  <canonical_smiles>  (187) 
Cc1ccc([C@@H](C#N)Nc2nc3ccccc3cc2C(=O)Nc2ccccc2)cc1

>  <scaffold>  (187) 
O=C(Nc1ccccc1)c1cc2ccccc2nc1NCc1ccccc1

>  <molecular_formula>  (187) 
C25H20N4O

$$$$
ATP-HTVS-1D0FF5192E4C
     RDKit          3D

 67 70  0  0  0  0  0  0  0  0999 V2000
  195.6428  183.8277  150.4892 O   0  0  0  0  0  0  0  0  0  0  0  0
  196.7874  184.1798  150.7569 C   0  0  0  0  0  0  0  0  0  0  0  0
  197.3044  185.3622  150.3439 O   0  0  0  0  0  0  0  0  0  0  0  0
  198.3566  186.0092  151.0510 C   0  0  2  0  0  0  0  0  0  0  0  0
  197.7381  183.4872  151.5024 N   0  0  0  0  0  0  0  0  0  0  0  0
  197.6880  182.1961  152.0637 C   0  0  0  0  0  0  0  0  0  0  0  0
  198.7687  181.8377  152.9014 C   0  0  0  0  0  0  0  0  0  0  0  0
  198.8242  180.5513  153.4812 C   0  0  0  0  0  0  0  0  0  0  0  0
  197.7994  179.6279  153.1985 C   0  0  0  0  0  0  0  0  0  0  0  0
  196.7182  179.9843  152.3689 C   0  0  0  0  0  0  0  0  0  0  0  0
  196.6602  181.2682  151.8012 C   0  0  0  0  0  0  0  0  0  0  0  0
  199.9742  180.1666  154.3644 C   0  0  0  0  0  0  0  0  0  0  0  0
  200.5094  179.0621  154.2668 O   0  0  0  0  0  0  0  0  0  0  0  0
  200.3018  181.0926  155.2765 N   0  0  0  0  0  0  0  0  0  0  0  0
  201.3112  181.0294  156.2811 C   0  0  0  0  0  0  0  0  0  0  0  0
  201.1181  181.7438  157.4889 C   0  0  0  0  0  0  0  0  0  0  0  0
  199.9152  182.4332  157.6694 N   0  0  0  0  0  0  0  0  0  0  0  0
  200.0102  183.8898  157.7180 C   0  0  1  0  0  0  0  0  0  0  0  0
  198.7160  184.5825  158.1465 C   0  0  0  0  0  0  0  0  0  0  0  0
  197.6043  183.8512  158.5326 C   0  0  0  0  0  0  0  0  0  0  0  0
  196.3521  184.4416  158.7842 C   0  0  0  0  0  0  0  0  0  0  0  0
  196.2754  185.8487  158.7971 C   0  0  0  0  0  0  0  0  0  0  0  0
  197.4387  186.6262  158.5191 C   0  0  0  0  0  0  0  0  0  0  0  0
  198.6525  185.9964  158.1597 C   0  0  0  0  0  0  0  0  0  0  0  0
  195.1118  183.5836  159.0746 C   0  0  1  0  0  0  0  0  0  0  0  0
  194.7976  182.5309  158.0542 N   0  0  2  0  0  0  0  0  0  0  0  0
  193.6706  181.6554  158.4403 C   0  0  2  0  0  0  0  0  0  0  0  0
  195.9420  181.7066  157.6210 C   0  0  2  0  0  0  0  0  0  0  0  0
  202.1402  181.7495  158.4830 C   0  0  0  0  0  0  0  0  0  0  0  0
  203.3488  181.0662  158.2096 C   0  0  0  0  0  0  0  0  0  0  0  0
  203.4906  180.4205  157.0340 N   0  0  0  0  0  0  0  0  0  0  0  0
  202.5365  180.3604  156.0818 C   0  0  0  0  0  0  0  0  0  0  0  0
  204.3939  181.0544  159.1553 C   0  0  0  0  0  0  0  0  0  0  0  0
  204.2446  181.7351  160.3798 C   0  0  0  0  0  0  0  0  0  0  0  0
  203.0463  182.4145  160.6658 C   0  0  0  0  0  0  0  0  0  0  0  0
  201.9946  182.4063  159.7316 C   0  0  0  0  0  0  0  0  0  0  0  0
  198.6795  186.9218  150.5460 H   0  0  0  0  0  0  0  0  0  0  0  0
  199.2331  185.3720  151.1671 H   0  0  0  0  0  0  0  0  0  0  0  0
  197.9922  186.2641  152.0456 H   0  0  0  0  0  0  0  0  0  0  0  0
  198.5940  183.9912  151.6369 H   0  0  0  0  0  0  0  0  0  0  0  0
  199.5594  182.5534  153.0819 H   0  0  0  0  0  0  0  0  0  0  0  0
  197.8273  178.6403  153.6317 H   0  0  0  0  0  0  0  0  0  0  0  0
  195.9281  179.2793  152.1640 H   0  0  0  0  0  0  0  0  0  0  0  0
  195.8318  181.5163  151.1559 H   0  0  0  0  0  0  0  0  0  0  0  0
  199.7104  181.9111  155.2938 H   0  0  0  0  0  0  0  0  0  0  0  0
  199.1594  182.0842  157.0949 H   0  0  0  0  0  0  0  0  0  0  0  0
  200.7796  184.2096  158.4134 H   0  0  0  0  0  0  0  0  0  0  0  0
  200.3179  184.2208  156.7253 H   0  0  0  0  0  0  0  0  0  0  0  0
  197.7061  182.7684  158.6067 H   0  0  0  0  0  0  0  0  0  0  0  0
  195.3550  186.3467  159.0747 H   0  0  0  0  0  0  0  0  0  0  0  0
  197.3969  187.6953  158.5960 H   0  0  0  0  0  0  0  0  0  0  0  0
  199.5427  186.5824  157.9416 H   0  0  0  0  0  0  0  0  0  0  0  0
  195.2585  183.1236  160.0522 H   0  0  0  0  0  0  0  0  0  0  0  0
  194.2398  184.2336  159.1617 H   0  0  0  0  0  0  0  0  0  0  0  0
  193.8735  181.1516  159.3830 H   0  0  0  0  0  0  0  0  0  0  0  0
  193.5137  180.8844  157.6850 H   0  0  0  0  0  0  0  0  0  0  0  0
  192.7404  182.2355  158.5177 H   0  0  0  0  0  0  0  0  0  0  0  0
  196.3966  181.2171  158.4939 H   0  0  0  0  0  0  0  0  0  0  0  0
  196.6731  182.3055  157.1062 H   0  0  0  0  0  0  0  0  0  0  0  0
  195.6479  180.9703  156.8752 H   0  0  0  0  0  0  0  0  0  0  0  0
  202.7973  179.8097  155.1889 H   0  0  0  0  0  0  0  0  0  0  0  0
  205.3159  180.5312  158.9486 H   0  0  0  0  0  0  0  0  0  0  0  0
  205.0450  181.7361  161.1033 H   0  0  0  0  0  0  0  0  0  0  0  0
  202.9242  182.9422  161.6029 H   0  0  0  0  0  0  0  0  0  0  0  0
  201.0840  182.9185  160.0009 H   0  0  0  0  0  0  0  0  0  0  0  0
  194.4903  182.9880  157.1973 H   0  0  0  0  0  0  0  0  0  0  0  0
  204.3541  179.9028  156.8742 H   0  0  0  0  0  0  0  0  0  0  0  0
  1  2  2  0
  2  3  1  0
  2  5  1  0
  3  4  1  0
  4 37  1  6
  4 38  1  0
  4 39  1  0
  5  6  1  0
  5 40  1  0
  6  7  1  0
  6 11  2  0
  7  8  2  0
  7 41  1  0
  8  9  1  0
  8 12  1  0
  9 10  2  0
  9 42  1  0
 10 11  1  0
 10 43  1  0
 11 44  1  0
 12 13  2  0
 12 14  1  0
 14 15  1  0
 14 45  1  0
 15 16  2  0
 15 32  1  0
 16 17  1  0
 16 29  1  0
 17 18  1  0
 17 46  1  0
 18 19  1  0
 18 47  1  1
 18 48  1  0
 19 20  2  0
 19 24  1  0
 20 21  1  0
 20 49  1  0
 21 22  2  0
 21 25  1  0
 22 23  1  0
 22 50  1  0
 23 24  2  0
 23 51  1  0
 24 52  1  0
 25 26  1  0
 25 53  1  1
 25 54  1  0
 26 27  1  0
 26 28  1  0
 26 66  1  6
 27 55  1  1
 27 56  1  0
 27 57  1  0
 28 58  1  1
 28 59  1  0
 28 60  1  0
 29 30  1  0
 29 36  2  0
 30 31  1  0
 30 33  2  0
 31 32  2  0
 31 67  1  0
 32 61  1  0
 33 34  1  0
 33 62  1  0
 34 35  2  0
 34 63  1  0
 35 36  1  0
 35 64  1  0
 36 65  1  0
M  CHG  2  26   1  31   1
M  END
>  <s_epik_Chemistry_Notes>  (188) 
This compound has an ester and may undergo hydrolysis at high or low pH.

>  <s_epik_cmdline>  (188) 
J2VwaWtfcHl0aG9uJywgJy1waCcsICc3LjAwMDAwMCcsICctcGh0JywgJzIuMDAwMDAwJywgJy1tcycsICcxNicsICctdG4nLCAnOCcsICctbWEnLCAnMjAwJywgJy1pbWFlJywgJzxpbmZpbGUubWFlPicsICctb21hZScsICc8b3V0ZmlsZS5tYWU+Jw==

>  <s_epik_input>  (188) 
W0NIM11PQyg9TylbTkhdYzFbY0hdYyhbY0hdW2NIXVtjSF0xKUMoPU8pW05IXWMoW2NIXW5jKGMyMylbY0hdW2NIXVtjSF1bY0hdMyljMltOSF1bQ0gyXWM0W2NIXWMoW2NIXVtjSF1bY0hdNClbQ0gyXU4oW0NIM10pW0NIM10=

>  <s_i_glide_gridfile>  (188) 
ATP-Grid

>  <s_lp_Force_Field>  (188) 
OPLS_2005

>  <s_lp_Variant>  (188) 
rxn502b____EMOL32441976____EMOL30488121____EMOL2873214-1

>  <s_lp_label>  (188) 
2518_sdstereoexpander_1_neutralizer_1_epik_1_stereoizer_1

>  <s_m_source_file>  (188) 
ATP-VSW-LIGPREP-001-in.maegz

>  <s_sd_BIOSOLVEIT.INFINISEE\_QUERY\_NAME>  (188) 
Ref-Lig

>  <s_sd_BIOSOLVEIT.INFINISEE\_QUERY\_SMILES>  (188) 
S(c1nc2c(cc1C[NH2+]Cc3ccc(cc3)C[NH+](C)C)cccc2)Cc4ccccc4

>  <s_sd_BIOSOLVEIT.INFINISEE\_REACTION\_NAME>  (188) 
rxn502b

>  <s_sd_BIOSOLVEIT.INFINISEE\_REAGENT1\_NAME>  (188) 
EMOL32441976

>  <s_sd_BIOSOLVEIT.INFINISEE\_REAGENT1\_SMILES>  (188) 
O=C(OC)Nc1cc(ccc1)C(=O)O

>  <s_sd_BIOSOLVEIT.INFINISEE\_REAGENT2\_NAME>  (188) 
EMOL30488121

>  <s_sd_BIOSOLVEIT.INFINISEE\_REAGENT2\_SMILES>  (188) 
Brc1c(N)cnc2c1cccc2

>  <s_sd_BIOSOLVEIT.INFINISEE\_REAGENT3\_NAME>  (188) 
EMOL2873214

>  <s_sd_BIOSOLVEIT.INFINISEE\_REAGENT3\_SMILES>  (188) 
N(Cc1cc(ccc1)CN)(C)C

>  <s_sd_BIOSOLVEIT.INFINISEE\_SPACE>  (188) 
eXplore_7tr_2022-12

>  <s_vsw_compound_code>  (188) 
80545

>  <s_vsw_variant>  (188) 
80545-1

>  <r_epik_Charging_Adjusted_Penalty>  (188) 
0.25036477461673601

>  <r_epik_Ionization_Penalty>  (188) 
0.12520000000000001

>  <r_epik_Ionization_Penalty_Charging>  (188) 
0.12520000000000001

>  <r_epik_Ionization_Penalty_Neutral>  (188) 
0.0001

>  <r_epik_State_Penalty>  (188) 
0.12520000000000001

>  <r_i_docking_score>  (188) 
-5.16069768672787

>  <r_i_glide_ecoul>  (188) 
-12.456981658935501

>  <r_i_glide_eff_state_penalty>  (188) 
0.12520000000000001

>  <r_i_glide_einternal>  (188) 
8.9657993316650408

>  <r_i_glide_emodel>  (188) 
-64.537052861781504

>  <r_i_glide_energy>  (188) 
-45.557479858398402

>  <r_i_glide_erotb>  (188) 
0.77547134754436597

>  <r_i_glide_esite>  (188) 
-0.14171992755014601

>  <r_i_glide_evdw>  (188) 
-33.100498199462898

>  <r_i_glide_gscore>  (188) 
-5.2858976867278704

>  <r_i_glide_hbond>  (188) 
-0.39526931918602198

>  <r_i_glide_ligand_efficiency>  (188) 
-0.143352713520218

>  <r_i_glide_ligand_efficiency_ln>  (188) 
-1.1259248093051799

>  <r_i_glide_ligand_efficiency_sa>  (188) 
-0.47334023040998702

>  <r_i_glide_lipo>  (188) 
-1.5645351212626899

>  <r_i_glide_metal>  (188) 
-0

>  <r_i_glide_rewards>  (188) 
-0.43627250745989699

>  <r_lp_Energy>  (188) 
43.464143999999997

>  <r_qp_ACxDN^.5/SA>  (188) 
0.020819299999999999

>  <r_qp_CIQPlogS>  (188) 
-5.6109999999999998

>  <r_qp_EA(eV)>  (188) 
1.044

>  <r_qp_FISA>  (188) 
116.012

>  <r_qp_FOSA>  (188) 
219.595

>  <r_qp_IP(eV)>  (188) 
8.6270000000000007

>  <r_qp_Jm>  (188) 
0.0137938696691791

>  <r_qp_PISA>  (188) 
413.14400000000001

>  <r_qp_PSA>  (188) 
102.61799999999999

>  <r_qp_PercentHumanOralAbsorption>  (188) 
89.227999999999994

>  <r_qp_QPPCaco>  (188) 
196.18000000000001

>  <r_qp_QPPMDCK>  (188) 
94.117999999999995

>  <r_qp_QPlogBB>  (188) 
-0.63700000000000001

>  <r_qp_QPlogHERG>  (188) 
-6.9459999999999997

>  <r_qp_QPlogKhsa>  (188) 
0.46400000000000002

>  <r_qp_QPlogKp>  (188) 
-3.4969999999999999

>  <r_qp_QPlogPC16>  (188) 
16.123999999999999

>  <r_qp_QPlogPo/w>  (188) 
3.629

>  <r_qp_QPlogPoct>  (188) 
27.309999999999999

>  <r_qp_QPlogPw>  (188) 
16.614000000000001

>  <r_qp_QPlogS>  (188) 
-4.048

>  <r_qp_QPpolrz>  (188) 
51.170999999999999

>  <r_qp_SASA>  (188) 
748.75099999999998

>  <r_qp_SAamideO>  (188) 
0

>  <r_qp_SAfluorine>  (188) 
0

>  <r_qp_WPSA>  (188) 
0

>  <r_qp_accptHB>  (188) 
9

>  <r_qp_dip^2/V>  (188) 
0.056155499999999997

>  <r_qp_dipole>  (188) 
9.0609999999999999

>  <r_qp_donorHB>  (188) 
3

>  <r_qp_glob>  (188) 
0.83206709999999995

>  <r_qp_mol_MW>  (188) 
483.56900000000002

>  <r_qp_volume>  (188) 
1462.164

>  <r_sd_BIOSOLVEIT.INFINISEE\_FTREES\_SIMILARITY>  (188) 
0.91400000000000003

>  <r_sd_BIOSOLVEIT.LOGP>  (188) 
3.9220000000000002

>  <r_sd_BIOSOLVEIT.MOLECULAR\_WEIGHT>  (188) 
484.577

>  <r_sd_BIOSOLVEIT.TPSA>  (188) 
96.790000000000006

>  <i_epik_Tot_Q>  (188) 
2

>  <i_epik_Tot_abs_Q>  (188) 
2

>  <i_f3d_flags>  (188) 
0

>  <i_i_glide_confnum>  (188) 
10

>  <i_i_glide_lignum>  (188) 
994

>  <i_i_glide_posenum>  (188) 
2

>  <i_i_glide_rotatable_bonds>  (188) 
11

>  <i_lp_mmshare_version>  (188) 
65135

>  <i_m_ct_format>  (188) 
2

>  <i_m_source_file_index>  (188) 
2518

>  <i_qp_#NandO>  (188) 
8

>  <i_qp_#acid>  (188) 
0

>  <i_qp_#amide>  (188) 
0

>  <i_qp_#amidine>  (188) 
0

>  <i_qp_#amine>  (188) 
1

>  <i_qp_#in34>  (188) 
0

>  <i_qp_#in56>  (188) 
22

>  <i_qp_#metab>  (188) 
7

>  <i_qp_#nonHatm>  (188) 
36

>  <i_qp_#noncon>  (188) 
0

>  <i_qp_#ringatoms>  (188) 
22

>  <i_qp_#rotor>  (188) 
8

>  <i_qp_#rtvFG>  (188) 
0

>  <i_qp_#stars>  (188) 
0

>  <i_qp_CNS>  (188) 
0

>  <i_qp_HumanOralAbsorption>  (188) 
3

>  <i_qp_RuleOfFive>  (188) 
0

>  <i_qp_RuleOfThree>  (188) 
1

>  <i_sd_BIOSOLVEIT.INFINISEE\_RESULT\_RANK>  (188) 
32654

>  <i_sd_version>  (188) 
0

>  <b_lp_Chiralities_Consistent>  (188) 
1

>  <b_sd_chiral_flag>  (188) 
0

>  <canonical_id>  (188) 
ATP-HTVS-1D0FF5192E4C

>  <compound_code>  (188) 
80545

>  <title>  (188) 
rxn502b____EMOL32441976____EMOL30488121____EMOL2873214

>  <variant>  (188) 
80545-1

>  <source_file>  (188) 
运行/运行/ATP-VSW/ATP-VSW-DOCK_HTVS_1-001_lib/ATP-VSW-DOCK_HTVS_1-001_lib

>  <canonical_smiles>  (188) 
COC(=O)Nc1cccc(C(=O)Nc2c[nH+]c3ccccc3c2NCc2cccc(C[NH+](C)C)c2)c1

>  <scaffold>  (188) 
O=C(Nc1c[nH+]c2ccccc2c1NCc1ccccc1)c1ccccc1

>  <molecular_formula>  (188) 
C28H31N5O3+2

$$$$
ATP-HTVS-1D1DA7871618
     RDKit          3D

 63 66  0  0  0  0  0  0  0  0999 V2000
  199.2777  185.5644  159.6838 O   0  0  0  0  0  0  0  0  0  0  0  0
  199.0406  185.4231  158.4885 C   0  0  0  0  0  0  0  0  0  0  0  0
  199.5709  186.2346  157.5299 N   0  0  0  0  0  0  0  0  0  0  0  0
  200.3374  187.4403  157.9111 C   0  0  1  0  0  0  0  0  0  0  0  0
  199.4762  188.6874  158.0795 C   0  0  0  0  0  0  0  0  0  0  0  0
  198.5815  188.7843  159.1729 C   0  0  0  0  0  0  0  0  0  0  0  0
  197.7883  189.9346  159.3431 C   0  0  0  0  0  0  0  0  0  0  0  0
  197.8835  190.9983  158.4266 C   0  0  0  0  0  0  0  0  0  0  0  0
  198.7715  190.9063  157.3369 C   0  0  0  0  0  0  0  0  0  0  0  0
  199.5606  189.7548  157.1626 C   0  0  0  0  0  0  0  0  0  0  0  0
  199.4179  186.0639  156.0701 C   0  0  1  0  0  0  0  0  0  0  0  0
  198.0234  186.4784  155.5741 C   0  0  1  0  0  0  0  0  0  0  0  0
  197.9323  186.2333  154.1833 O   0  0  0  0  0  0  0  0  0  0  0  0
  198.1037  184.3198  158.0818 C   0  0  0  0  0  0  0  0  0  0  0  0
  196.7531  184.2580  158.5378 C   0  0  0  0  0  0  0  0  0  0  0  0
  195.9381  183.1795  158.0918 C   0  0  0  0  0  0  0  0  0  0  0  0
  196.3965  182.2308  157.2517 N   0  0  0  0  0  0  0  0  0  0  0  0
  197.6877  182.2406  156.8666 C   0  0  0  0  0  0  0  0  0  0  0  0
  198.1181  181.1528  155.9761 C   0  0  0  0  0  0  0  0  0  0  0  0
  197.3385  180.8167  154.8264 C   0  0  0  0  0  0  0  0  0  0  0  0
  197.7859  179.8415  153.9235 C   0  0  0  0  0  0  0  0  0  0  0  0
  198.9952  179.1484  154.1765 C   0  0  0  0  0  0  0  0  0  0  0  0
  199.7607  179.4583  155.3165 C   0  0  0  0  0  0  0  0  0  0  0  0
  199.3325  180.4722  156.1922 C   0  0  0  0  0  0  0  0  0  0  0  0
  196.9634  179.5452  152.6739 C   0  0  1  0  0  0  0  0  0  0  0  0
  197.0791  180.5951  151.6201 N   0  0  1  0  0  0  0  0  0  0  0  0
  196.4337  180.1860  150.3519 C   0  0  2  0  0  0  0  0  0  0  0  0
  196.6232  181.9478  152.0466 C   0  0  2  0  0  0  0  0  0  0  0  0
  198.5741  183.2650  157.2679 C   0  0  0  0  0  0  0  0  0  0  0  0
  194.6037  183.0886  158.5318 C   0  0  0  0  0  0  0  0  0  0  0  0
  194.0598  184.0561  159.3966 C   0  0  0  0  0  0  0  0  0  0  0  0
  194.8530  185.1261  159.8347 C   0  0  0  0  0  0  0  0  0  0  0  0
  196.1905  185.2327  159.4056 C   0  0  0  0  0  0  0  0  0  0  0  0
  200.8900  187.2781  158.8383 H   0  0  0  0  0  0  0  0  0  0  0  0
  201.1225  187.6442  157.1796 H   0  0  0  0  0  0  0  0  0  0  0  0
  198.5103  187.9941  159.9008 H   0  0  0  0  0  0  0  0  0  0  0  0
  197.1185  190.0002  160.1889 H   0  0  0  0  0  0  0  0  0  0  0  0
  197.2808  191.8849  158.5663 H   0  0  0  0  0  0  0  0  0  0  0  0
  198.8469  191.7291  156.6404 H   0  0  0  0  0  0  0  0  0  0  0  0
  200.2451  189.6984  156.3266 H   0  0  0  0  0  0  0  0  0  0  0  0
  200.1658  186.6588  155.5327 H   0  0  0  0  0  0  0  0  0  0  0  0
  199.6357  185.0352  155.7743 H   0  0  0  0  0  0  0  0  0  0  0  0
  197.2239  185.9173  156.0569 H   0  0  0  0  0  0  0  0  0  0  0  0
  197.8466  187.5387  155.7676 H   0  0  0  0  0  0  0  0  0  0  0  0
  197.2343  186.7515  153.8423 H   0  0  0  0  0  0  0  0  0  0  0  0
  196.4037  181.3220  154.6841 H   0  0  0  0  0  0  0  0  0  0  0  0
  199.3441  178.3708  153.5032 H   0  0  0  0  0  0  0  0  0  0  0  0
  200.6764  178.9197  155.5229 H   0  0  0  0  0  0  0  0  0  0  0  0
  199.9396  180.7248  157.0620 H   0  0  0  0  0  0  0  0  0  0  0  0
  197.2949  178.5910  152.2578 H   0  0  0  0  0  0  0  0  0  0  0  0
  195.9201  179.3997  152.9513 H   0  0  0  0  0  0  0  0  0  0  0  0
  195.3657  180.0228  150.4929 H   0  0  0  0  0  0  0  0  0  0  0  0
  196.8722  179.2753  149.9477 H   0  0  0  0  0  0  0  0  0  0  0  0
  196.5563  180.9685  149.6054 H   0  0  0  0  0  0  0  0  0  0  0  0
  195.5778  181.9060  152.3554 H   0  0  0  0  0  0  0  0  0  0  0  0
  196.6810  182.6663  151.2103 H   0  0  0  0  0  0  0  0  0  0  0  0
  197.1993  182.3123  152.9128 H   0  0  0  0  0  0  0  0  0  0  0  0
  199.6002  183.2338  156.9302 H   0  0  0  0  0  0  0  0  0  0  0  0
  193.9993  182.2667  158.1881 H   0  0  0  0  0  0  0  0  0  0  0  0
  193.0328  183.9791  159.7204 H   0  0  0  0  0  0  0  0  0  0  0  0
  194.4292  185.8713  160.4906 H   0  0  0  0  0  0  0  0  0  0  0  0
  196.7573  186.0836  159.7586 H   0  0  0  0  0  0  0  0  0  0  0  0
  198.0663  180.6837  151.4245 H   0  0  0  0  0  0  0  0  0  0  0  0
  1  2  2  0
  2  3  1  0
  2 14  1  0
  3  4  1  0
  3 11  1  0
  4  5  1  0
  4 34  1  1
  4 35  1  0
  5  6  2  0
  5 10  1  0
  6  7  1  0
  6 36  1  0
  7  8  2  0
  7 37  1  0
  8  9  1  0
  8 38  1  0
  9 10  2  0
  9 39  1  0
 10 40  1  0
 11 12  1  0
 11 41  1  6
 11 42  1  0
 12 13  1  0
 12 43  1  1
 12 44  1  0
 13 45  1  0
 14 15  1  0
 14 29  2  0
 15 16  1  0
 15 33  2  0
 16 17  1  0
 16 30  2  0
 17 18  2  0
 18 19  1  0
 18 29  1  0
 19 20  2  0
 19 24  1  0
 20 21  1  0
 20 46  1  0
 21 22  2  0
 21 25  1  0
 22 23  1  0
 22 47  1  0
 23 24  2  0
 23 48  1  0
 24 49  1  0
 25 26  1  0
 25 50  1  6
 25 51  1  0
 26 27  1  0
 26 28  1  0
 26 63  1  6
 27 52  1  1
 27 53  1  0
 27 54  1  0
 28 55  1  1
 28 56  1  0
 28 57  1  0
 29 58  1  0
 30 31  1  0
 30 59  1  0
 31 32  2  0
 31 60  1  0
 32 33  1  0
 32 61  1  0
 33 62  1  0
M  CHG  1  26   1
M  END
>  <s_epik_cmdline>  (189) 
J2VwaWtfcHl0aG9uJywgJy1waCcsICc3LjAwMDAwMCcsICctcGh0JywgJzIuMDAwMDAwJywgJy1tcycsICcxNicsICctdG4nLCAnOCcsICctbWEnLCAnMjAwJywgJy1pbWFlJywgJzxpbmZpbGUubWFlPicsICctb21hZScsICc8b3V0ZmlsZS5tYWU+Jw==

>  <s_epik_input>  (189) 
W2NIXTFbY0hdW2NIXVtjSF1bY0hdYzFbQ0gyXU4oW0NIMl1bQ0gyXVtPSF0pQyg9TyljMltjSF1jKG5jKGMyMylbY0hdW2NIXVtjSF1bY0hdMyktYzRbY0hdYyhbY0hdW2NIXVtjSF00KVtDSDJdTihbQ0gzXSlbQ0gzXQ==

>  <s_i_glide_gridfile>  (189) 
ATP-Grid

>  <s_lp_Force_Field>  (189) 
OPLS_2005

>  <s_lp_Variant>  (189) 
WXDL_14____AN0004____LN00173385____BT1883-1

>  <s_lp_label>  (189) 
633_sdstereoexpander_1_neutralizer_1_epik_1_stereoizer_1

>  <s_m_source_file>  (189) 
ATP-VSW-LIGPREP-002-in.maegz

>  <s_sd_BIOSOLVEIT.INFINISEE\_QUERY\_NAME>  (189) 
Ref-Lig

>  <s_sd_BIOSOLVEIT.INFINISEE\_QUERY\_SMILES>  (189) 
S(c1nc2c(cc1C[NH2+]Cc3ccc(cc3)C[NH+](C)C)cccc2)Cc4ccccc4

>  <s_sd_BIOSOLVEIT.INFINISEE\_REACTION\_NAME>  (189) 
WXDL_14

>  <s_sd_BIOSOLVEIT.INFINISEE\_REAGENT1\_NAME>  (189) 
AN0004

>  <s_sd_BIOSOLVEIT.INFINISEE\_REAGENT1\_SMILES>  (189) 
OCCNCc1ccccc1

>  <s_sd_BIOSOLVEIT.INFINISEE\_REAGENT2\_NAME>  (189) 
LN00173385

>  <s_sd_BIOSOLVEIT.INFINISEE\_REAGENT2\_SMILES>  (189) 
Brc1nc2c(c(c1)C(=O)O)cccc2

>  <s_sd_BIOSOLVEIT.INFINISEE\_REAGENT3\_NAME>  (189) 
BT1883

>  <s_sd_BIOSOLVEIT.INFINISEE\_REAGENT3\_SMILES>  (189) 
OB(O)c1cc(ccc1)CN(C)C

>  <s_sd_BIOSOLVEIT.INFINISEE\_SPACE>  (189) 
GalaXi_12bn_2023-03

>  <s_vsw_compound_code>  (189) 
20226

>  <s_vsw_variant>  (189) 
20226-1

>  <r_epik_Charging_Adjusted_Penalty>  (189) 
0.093842111753471499

>  <r_epik_Ionization_Penalty>  (189) 
0.046899999999999997

>  <r_epik_Ionization_Penalty_Charging>  (189) 
0.046899999999999997

>  <r_epik_Ionization_Penalty_Neutral>  (189) 
0

>  <r_epik_State_Penalty>  (189) 
0.046899999999999997

>  <r_i_docking_score>  (189) 
-3.67743152136295

>  <r_i_glide_ecoul>  (189) 
-5.6495513916015598

>  <r_i_glide_eff_state_penalty>  (189) 
0.046899999999999997

>  <r_i_glide_einternal>  (189) 
3.1669013500213601

>  <r_i_glide_emodel>  (189) 
-49.5974173518265

>  <r_i_glide_energy>  (189) 
-40.442710876464801

>  <r_i_glide_erotb>  (189) 
0.72014684000360996

>  <r_i_glide_esite>  (189) 
0

>  <r_i_glide_evdw>  (189) 
-34.793159484863303

>  <r_i_glide_gscore>  (189) 
-3.72433152136295

>  <r_i_glide_hbond>  (189) 
-0.32000000000000001

>  <r_i_glide_ligand_efficiency>  (189) 
-0.11143731882918

>  <r_i_glide_ligand_efficiency_ln>  (189) 
-0.81784172962974

>  <r_i_glide_ligand_efficiency_sa>  (189) 
-0.35743902537069

>  <r_i_glide_lipo>  (189) 
-1.0646157510813099

>  <r_i_glide_metal>  (189) 
-0

>  <r_i_glide_rewards>  (189) 
-0.47277192730185502

>  <r_lp_Energy>  (189) 
38.144162999999999

>  <r_qp_ACxDN^.5/SA>  (189) 
0.0095829999999999995

>  <r_qp_CIQPlogS>  (189) 
-5.3310000000000004

>  <r_qp_EA(eV)>  (189) 
1.1890000000000001

>  <r_qp_FISA>  (189) 
93.233999999999995

>  <r_qp_FOSA>  (189) 
254.709

>  <r_qp_IP(eV)>  (189) 
8.9359999999999999

>  <r_qp_Jm>  (189) 
0.0033726003606653

>  <r_qp_PISA>  (189) 
455.56599999999997

>  <r_qp_PSA>  (189) 
61.720999999999997

>  <r_qp_PercentHumanOralAbsorption>  (189) 
100

>  <r_qp_QPPCaco>  (189) 
322.60199999999998

>  <r_qp_QPPMDCK>  (189) 
161.12299999999999

>  <r_qp_QPlogBB>  (189) 
-0.61499999999999999

>  <r_qp_QPlogHERG>  (189) 
-8.0679999999999996

>  <r_qp_QPlogKhsa>  (189) 
0.65000000000000002

>  <r_qp_QPlogKp>  (189) 
-2.831

>  <r_qp_QPlogPC16>  (189) 
16.058

>  <r_qp_QPlogPo/w>  (189) 
4.5679999999999996

>  <r_qp_QPlogPoct>  (189) 
22.626999999999999

>  <r_qp_QPlogPw>  (189) 
12.449999999999999

>  <r_qp_QPlogS>  (189) 
-5.2839999999999998

>  <r_qp_QPpolrz>  (189) 
50.917000000000002

>  <r_qp_SASA>  (189) 
803.50800000000004

>  <r_qp_SAamideO>  (189) 
0

>  <r_qp_SAfluorine>  (189) 
0

>  <r_qp_WPSA>  (189) 
0

>  <r_qp_accptHB>  (189) 
7.7000000000000002

>  <r_qp_dip^2/V>  (189) 
0.0099524999999999995

>  <r_qp_dipole>  (189) 
3.8140000000000001

>  <r_qp_donorHB>  (189) 
1

>  <r_qp_glob>  (189) 
0.77521830000000003

>  <r_qp_mol_MW>  (189) 
439.55599999999998

>  <r_qp_volume>  (189) 
1461.752

>  <r_sd_BIOSOLVEIT.INFINISEE\_FTREES\_SIMILARITY>  (189) 
0.90900000000000003

>  <r_sd_BIOSOLVEIT.LOGP>  (189) 
3.181

>  <r_sd_BIOSOLVEIT.MOLECULAR\_WEIGHT>  (189) 
440.56400000000002

>  <r_sd_BIOSOLVEIT.TPSA>  (189) 
57.869999999999997

>  <i_epik_Tot_Q>  (189) 
1

>  <i_epik_Tot_abs_Q>  (189) 
1

>  <i_f3d_flags>  (189) 
0

>  <i_i_glide_confnum>  (189) 
8

>  <i_i_glide_lignum>  (189) 
183

>  <i_i_glide_posenum>  (189) 
15

>  <i_i_glide_rotatable_bonds>  (189) 
10

>  <i_lp_mmshare_version>  (189) 
65135

>  <i_m_ct_format>  (189) 
2

>  <i_m_source_file_index>  (189) 
633

>  <i_qp_#NandO>  (189) 
5

>  <i_qp_#acid>  (189) 
0

>  <i_qp_#amide>  (189) 
0

>  <i_qp_#amidine>  (189) 
0

>  <i_qp_#amine>  (189) 
1

>  <i_qp_#in34>  (189) 
0

>  <i_qp_#in56>  (189) 
22

>  <i_qp_#metab>  (189) 
4

>  <i_qp_#nonHatm>  (189) 
33

>  <i_qp_#noncon>  (189) 
0

>  <i_qp_#ringatoms>  (189) 
22

>  <i_qp_#rotor>  (189) 
9

>  <i_qp_#rtvFG>  (189) 
0

>  <i_qp_#stars>  (189) 
1

>  <i_qp_CNS>  (189) 
1

>  <i_qp_HumanOralAbsorption>  (189) 
3

>  <i_qp_RuleOfFive>  (189) 
0

>  <i_qp_RuleOfThree>  (189) 
0

>  <i_sd_BIOSOLVEIT.INFINISEE\_RESULT\_RANK>  (189) 
50830

>  <i_sd_version>  (189) 
0

>  <b_lp_Chiralities_Consistent>  (189) 
1

>  <b_sd_chiral_flag>  (189) 
0

>  <canonical_id>  (189) 
ATP-HTVS-1D1DA7871618

>  <compound_code>  (189) 
20226

>  <title>  (189) 
WXDL_14____AN0004____LN00173385____BT1883

>  <variant>  (189) 
20226-1

>  <source_file>  (189) 
运行/运行/ATP-VSW/ATP-VSW-DOCK_HTVS_1-002_lib.maegz

>  <canonical_smiles>  (189) 
C[NH+](C)Cc1cccc(-c2cc(C(=O)N(CCO)Cc3ccccc3)c3ccccc3n2)c1

>  <scaffold>  (189) 
O=C(NCc1ccccc1)c1cc(-c2ccccc2)nc2ccccc12

>  <molecular_formula>  (189) 
C28H30N3O2+

$$$$
ATP-HTVS-1D28793FB59B
     RDKit          3D

 62 66  0  0  0  0  0  0  0  0999 V2000
  201.4665  184.9099  155.8701 Cl  0  0  0  0  0  0  0  0  0  0  0  0
  200.4599  184.3585  157.1585 C   0  0  0  0  0  0  0  0  0  0  0  0
  199.0815  184.1722  156.9379 C   0  0  0  0  0  0  0  0  0  0  0  0
  198.2520  183.7064  157.9819 C   0  0  0  0  0  0  0  0  0  0  0  0
  198.8189  183.4354  159.2462 C   0  0  0  0  0  0  0  0  0  0  0  0
  200.1958  183.6295  159.4696 C   0  0  0  0  0  0  0  0  0  0  0  0
  201.0173  184.0879  158.4218 C   0  0  0  0  0  0  0  0  0  0  0  0
  196.7653  183.4687  157.7275 C   0  0  2  0  0  0  0  0  0  0  0  0
  195.9373  183.8642  158.8706 N   0  0  0  0  0  0  0  0  0  0  0  0
  194.5108  183.6491  158.6702 C   0  0  1  0  0  0  0  0  0  0  0  0
  193.8557  184.4819  159.7357 C   0  0  1  0  0  0  0  0  0  0  0  0
  194.8608  185.5663  160.0970 C   0  0  1  0  0  0  0  0  0  0  0  0
  196.0285  185.2971  159.1535 C   0  0  1  0  0  0  0  0  0  0  0  0
  196.5282  181.9893  157.3358 C   0  0  1  0  0  0  0  0  0  0  0  0
  197.2679  181.6359  156.1125 N   0  0  1  0  0  0  0  0  0  0  0  0
  197.1325  180.2297  155.7151 C   0  0  1  0  0  0  0  0  0  0  0  0
  197.7983  179.9729  154.3932 C   0  0  0  0  0  0  0  0  0  0  0  0
  199.1886  179.8650  154.0677 C   0  0  0  0  0  0  0  0  0  0  0  0
  199.3562  179.6221  152.7749 N   0  0  0  0  0  0  0  0  0  0  0  0
  198.1218  179.5518  152.2313 N   0  0  0  0  0  0  0  0  0  0  0  0
  197.9373  179.2414  150.8556 C   0  0  0  0  0  0  0  0  0  0  0  0
  198.9971  178.7024  150.0840 C   0  0  0  0  0  0  0  0  0  0  0  0
  198.8023  178.3774  148.7266 C   0  0  0  0  0  0  0  0  0  0  0  0
  197.5482  178.5873  148.1252 C   0  0  0  0  0  0  0  0  0  0  0  0
  196.4915  179.1228  148.8832 C   0  0  0  0  0  0  0  0  0  0  0  0
  196.6826  179.4508  150.2378 C   0  0  0  0  0  0  0  0  0  0  0  0
  197.1636  179.7963  153.1950 C   0  0  0  0  0  0  0  0  0  0  0  0
  200.3776  179.9833  154.9282 C   0  0  0  0  0  0  0  0  0  0  0  0
  201.6114  180.4550  154.4178 C   0  0  0  0  0  0  0  0  0  0  0  0
  202.7283  180.6009  155.1639 N   0  0  0  0  0  0  0  0  0  0  0  0
  202.6651  180.2775  156.4711 C   0  0  0  0  0  0  0  0  0  0  0  0
  201.4955  179.7985  157.0820 C   0  0  0  0  0  0  0  0  0  0  0  0
  200.3476  179.6272  156.2957 C   0  0  0  0  0  0  0  0  0  0  0  0
  196.9275  182.2162  155.3597 H   0  0  0  0  0  0  0  0  0  0  0  0
  198.6661  184.3856  155.9638 H   0  0  0  0  0  0  0  0  0  0  0  0
  198.1965  183.0726  160.0536 H   0  0  0  0  0  0  0  0  0  0  0  0
  200.6178  183.4219  160.4411 H   0  0  0  0  0  0  0  0  0  0  0  0
  202.0735  184.2307  158.5908 H   0  0  0  0  0  0  0  0  0  0  0  0
  196.4696  184.0874  156.8770 H   0  0  0  0  0  0  0  0  0  0  0  0
  194.1914  184.0323  157.7172 H   0  0  0  0  0  0  0  0  0  0  0  0
  194.2098  182.6038  158.7368 H   0  0  0  0  0  0  0  0  0  0  0  0
  192.8927  184.8667  159.4079 H   0  0  0  0  0  0  0  0  0  0  0  0
  193.6555  183.8484  160.5535 H   0  0  0  0  0  0  0  0  0  0  0  0
  194.4650  186.5747  159.9549 H   0  0  0  0  0  0  0  0  0  0  0  0
  195.1744  185.4695  161.1330 H   0  0  0  0  0  0  0  0  0  0  0  0
  196.9893  185.5738  159.5968 H   0  0  0  0  0  0  0  0  0  0  0  0
  195.9054  185.8689  158.2276 H   0  0  0  0  0  0  0  0  0  0  0  0
  196.8212  181.3283  158.1523 H   0  0  0  0  0  0  0  0  0  0  0  0
  195.4779  181.7928  157.1237 H   0  0  0  0  0  0  0  0  0  0  0  0
  197.5002  179.5892  156.5051 H   0  0  0  0  0  0  0  0  0  0  0  0
  196.0678  179.9928  155.6429 H   0  0  0  0  0  0  0  0  0  0  0  0
  199.9667  178.5255  150.5267 H   0  0  0  0  0  0  0  0  0  0  0  0
  199.6158  177.9665  148.1464 H   0  0  0  0  0  0  0  0  0  0  0  0
  197.3991  178.3424  147.0833 H   0  0  0  0  0  0  0  0  0  0  0  0
  195.5312  179.2913  148.4186 H   0  0  0  0  0  0  0  0  0  0  0  0
  195.8525  179.8668  150.7883 H   0  0  0  0  0  0  0  0  0  0  0  0
  196.1079  179.7874  152.9712 H   0  0  0  0  0  0  0  0  0  0  0  0
  201.7171  180.7290  153.3754 H   0  0  0  0  0  0  0  0  0  0  0  0
  203.5721  180.3865  157.0491 H   0  0  0  0  0  0  0  0  0  0  0  0
  201.4769  179.5317  158.1288 H   0  0  0  0  0  0  0  0  0  0  0  0
  199.4880  179.1997  156.7705 H   0  0  0  0  0  0  0  0  0  0  0  0
  198.2424  181.8380  156.2704 H   0  0  0  0  0  0  0  0  0  0  0  0
  1  2  1  0
  2  3  2  0
  2  7  1  0
  3  4  1  0
  3 35  1  0
  4  5  2  0
  4  8  1  0
  5  6  1  0
  5 36  1  0
  6  7  2  0
  6 37  1  0
  7 38  1  0
  8  9  1  0
  8 14  1  0
  8 39  1  6
  9 10  1  0
  9 13  1  0
 10 11  1  0
 10 40  1  6
 10 41  1  0
 11 12  1  0
 11 42  1  6
 11 43  1  0
 12 13  1  0
 12 44  1  1
 12 45  1  0
 13 46  1  1
 13 47  1  0
 14 15  1  0
 14 48  1  1
 14 49  1  0
 15 16  1  0
 15 34  1  6
 15 62  1  0
 16 17  1  0
 16 50  1  1
 16 51  1  0
 17 18  1  0
 17 27  2  0
 18 19  2  0
 18 28  1  0
 19 20  1  0
 20 21  1  0
 20 27  1  0
 21 22  2  0
 21 26  1  0
 22 23  1  0
 22 52  1  0
 23 24  2  0
 23 53  1  0
 24 25  1  0
 24 54  1  0
 25 26  2  0
 25 55  1  0
 26 56  1  0
 27 57  1  0
 28 29  2  0
 28 33  1  0
 29 30  1  0
 29 58  1  0
 30 31  2  0
 31 32  1  0
 31 59  1  0
 32 33  2  0
 32 60  1  0
 33 61  1  0
M  CHG  1  15   1
M  END
>  <s_epik_cmdline>  (190) 
J2VwaWtfcHl0aG9uJywgJy1waCcsICc3LjAwMDAwMCcsICctcGh0JywgJzIuMDAwMDAwJywgJy1tcycsICcxNicsICctdG4nLCAnOCcsICctbWEnLCAnMjAwJywgJy1pbWFlJywgJzxpbmZpbGUubWFlPicsICctb21hZScsICc8b3V0ZmlsZS5tYWU+Jw==

>  <s_epik_input>  (190) 
W0NIMl0xW0NIMl1bQ0gyXVtDSDJdTjFbQ0BASF0oYyhbY0hdYzJDbClbY0hdW2NIXVtjSF0yKVtDSDJdW05IXVtDSDJdYzNjKC1jNFtjSF1uW2NIXVtjSF1bY0hdNClubihbY0hdMyktYzVbY0hdW2NIXVtjSF1bY0hdW2NIXTU=

>  <s_i_glide_gridfile>  (190) 
ATP-Grid

>  <s_lp_Force_Field>  (190) 
OPLS_2005

>  <s_lp_Variant>  (190) 
m_270004bbb____8289964____7547738-4

>  <s_lp_label>  (190) 
1812_sdstereoexpander_2_neutralizer_1_epik_2_stereoizer_1

>  <s_m_source_file>  (190) 
ATP-VSW-LIGPREP-002-in.maegz

>  <s_sd_BIOSOLVEIT.INFINISEE\_QUERY\_NAME>  (190) 
Ref-Lig

>  <s_sd_BIOSOLVEIT.INFINISEE\_QUERY\_SMILES>  (190) 
S(c1nc2c(cc1C[NH2+]Cc3ccc(cc3)C[NH+](C)C)cccc2)Cc4ccccc4

>  <s_sd_BIOSOLVEIT.INFINISEE\_REACTION\_NAME>  (190) 
m_270004bbb

>  <s_sd_BIOSOLVEIT.INFINISEE\_REAGENT1\_SMILES>  (190) 
[R1*]NCC(N1CCCC1)c2cc(Cl)ccc2

>  <s_sd_BIOSOLVEIT.INFINISEE\_REAGENT2\_SMILES>  (190) 
[R1*]CC=1C(=NN(c2ccccc2)C1)c3cnccc3

>  <s_sd_BIOSOLVEIT.INFINISEE\_SPACE>  (190) 
REALSpace_44bn_2023-08

>  <s_vsw_compound_code>  (190) 
57954

>  <s_vsw_variant>  (190) 
57954-4

>  <r_epik_Charging_Adjusted_Penalty>  (190) 
0.48073131309735001

>  <r_epik_Ionization_Penalty>  (190) 
0.061800000000000001

>  <r_epik_Ionization_Penalty_Charging>  (190) 
0.023400000000000001

>  <r_epik_Ionization_Penalty_Neutral>  (190) 
0.038399999999999997

>  <r_epik_State_Penalty>  (190) 
0.45739999999999997

>  <r_i_docking_score>  (190) 
-3.7355992719311502

>  <r_i_glide_ecoul>  (190) 
-8.7798509597778303

>  <r_i_glide_eff_state_penalty>  (190) 
0.45739999999999997

>  <r_i_glide_einternal>  (190) 
4.9468359947204599

>  <r_i_glide_emodel>  (190) 
-53.053446052266899

>  <r_i_glide_energy>  (190) 
-39.835768699646003

>  <r_i_glide_erotb>  (190) 
0.76387508002914195

>  <r_i_glide_esite>  (190) 
-0.052106096227449897

>  <r_i_glide_evdw>  (190) 
-31.0559177398682

>  <r_i_glide_gscore>  (190) 
-4.19299927193115

>  <r_i_glide_hbond>  (190) 
0

>  <r_i_glide_ligand_efficiency>  (190) 
-0.113199977937308

>  <r_i_glide_ligand_efficiency_ln>  (190) 
-0.83077793617961504

>  <r_i_glide_ligand_efficiency_sa>  (190) 
-0.363092814965499

>  <r_i_glide_lipo>  (190) 
-1.49091551884924

>  <r_i_glide_metal>  (190) 
-0

>  <r_i_glide_rewards>  (190) 
-0.54407920592352299

>  <r_lp_Energy>  (190) 
39.476917999999998

>  <r_lp_tautomer_probability>  (190) 
1

>  <r_qp_ACxDN^.5/SA>  (190) 
0.0084489999999999999

>  <r_qp_CIQPlogS>  (190) 
-5.4550000000000001

>  <r_qp_EA(eV)>  (190) 
0.70599999999999996

>  <r_qp_FISA>  (190) 
47.527999999999999

>  <r_qp_FOSA>  (190) 
233.40899999999999

>  <r_qp_IP(eV)>  (190) 
8.9190000000000005

>  <r_qp_Jm>  (190) 
0.00185839477803282

>  <r_qp_PISA>  (190) 
378.55500000000001

>  <r_qp_PSA>  (190) 
42.706000000000003

>  <r_qp_PercentHumanOralAbsorption>  (190) 
96.161000000000001

>  <r_qp_QPPCaco>  (190) 
218.27000000000001

>  <r_qp_QPPMDCK>  (190) 
221.35599999999999

>  <r_qp_QPlogBB>  (190) 
0.67600000000000005

>  <r_qp_QPlogHERG>  (190) 
-7.3460000000000001

>  <r_qp_QPlogKhsa>  (190) 
0.93100000000000005

>  <r_qp_QPlogKp>  (190) 
-4.6109999999999998

>  <r_qp_QPlogPC16>  (190) 
14.519

>  <r_qp_QPlogPo/w>  (190) 
4.6710000000000003

>  <r_qp_QPlogPoct>  (190) 
21.385999999999999

>  <r_qp_QPlogPw>  (190) 
10.395

>  <r_qp_QPlogS>  (190) 
-3.7810000000000001

>  <r_qp_QPpolrz>  (190) 
48.631999999999998

>  <r_qp_SASA>  (190) 
710.13999999999999

>  <r_qp_SAamideO>  (190) 
0

>  <r_qp_SAfluorine>  (190) 
0

>  <r_qp_WPSA>  (190) 
50.648000000000003

>  <r_qp_accptHB>  (190) 
6

>  <r_qp_dip^2/V>  (190) 
0.0245498

>  <r_qp_dipole>  (190) 
5.8099999999999996

>  <r_qp_donorHB>  (190) 
1

>  <r_qp_glob>  (190) 
0.84204060000000003

>  <r_qp_mol_MW>  (190) 
458.005

>  <r_qp_volume>  (190) 
1374.8889999999999

>  <r_sd_BIOSOLVEIT.INFINISEE\_FTREES\_SIMILARITY>  (190) 
0.90400000000000003

>  <r_sd_BIOSOLVEIT.LOGP>  (190) 
3.0710999999999999

>  <r_sd_BIOSOLVEIT.MOLECULAR\_WEIGHT>  (190) 
460.02199999999999

>  <r_sd_BIOSOLVEIT.TPSA>  (190) 
51.759999999999998

>  <i_epik_Tot_Q>  (190) 
1

>  <i_epik_Tot_abs_Q>  (190) 
1

>  <i_f3d_flags>  (190) 
0

>  <i_i_glide_confnum>  (190) 
8

>  <i_i_glide_lignum>  (190) 
637

>  <i_i_glide_posenum>  (190) 
9

>  <i_i_glide_rotatable_bonds>  (190) 
8

>  <i_lp_mmshare_version>  (190) 
65135

>  <i_m_ct_format>  (190) 
2

>  <i_m_source_file_index>  (190) 
1812

>  <i_qp_#NandO>  (190) 
5

>  <i_qp_#acid>  (190) 
0

>  <i_qp_#amide>  (190) 
0

>  <i_qp_#amidine>  (190) 
0

>  <i_qp_#amine>  (190) 
2

>  <i_qp_#in34>  (190) 
0

>  <i_qp_#in56>  (190) 
28

>  <i_qp_#metab>  (190) 
7

>  <i_qp_#nonHatm>  (190) 
33

>  <i_qp_#noncon>  (190) 
4

>  <i_qp_#ringatoms>  (190) 
28

>  <i_qp_#rotor>  (190) 
6

>  <i_qp_#rtvFG>  (190) 
0

>  <i_qp_#stars>  (190) 
0

>  <i_qp_CNS>  (190) 
2

>  <i_qp_HumanOralAbsorption>  (190) 
3

>  <i_qp_RuleOfFive>  (190) 
0

>  <i_qp_RuleOfThree>  (190) 
1

>  <i_sd_BIOSOLVEIT.INFINISEE\_REAGENT1\_NAME>  (190) 
8289964

>  <i_sd_BIOSOLVEIT.INFINISEE\_REAGENT2\_NAME>  (190) 
7547738

>  <i_sd_BIOSOLVEIT.INFINISEE\_RESULT\_RANK>  (190) 
78621

>  <i_sd_version>  (190) 
0

>  <b_lp_Chiralities_Consistent>  (190) 
1

>  <b_sd_chiral_flag>  (190) 
0

>  <canonical_id>  (190) 
ATP-HTVS-1D28793FB59B

>  <compound_code>  (190) 
57954

>  <title>  (190) 
m_270004bbb____8289964____7547738

>  <variant>  (190) 
57954-4

>  <source_file>  (190) 
运行/运行/ATP-VSW/ATP-VSW-DOCK_HTVS_1-002_lib.maegz

>  <canonical_smiles>  (190) 
Clc1cccc([C@@H](C[NH2+]Cc2cn(-c3ccccc3)nc2-c2cccnc2)N2CCCC2)c1

>  <scaffold>  (190) 
c1ccc(C(C[NH2+]Cc2cn(-c3ccccc3)nc2-c2cccnc2)N2CCCC2)cc1

>  <molecular_formula>  (190) 
C27H29ClN5+

$$$$
ATP-HTVS-1D3C11D6B0D4
     RDKit          3D

 53 56  0  0  0  0  0  0  0  0999 V2000
  203.0359  174.2350  156.1354 Cl  0  0  0  0  0  0  0  0  0  0  0  0
  201.9370  175.5015  155.6895 C   0  0  0  0  0  0  0  0  0  0  0  0
  201.6992  175.8163  154.3323 C   0  0  0  0  0  0  0  0  0  0  0  0
  202.3618  175.1120  153.2387 C   0  0  0  0  0  0  0  0  0  0  0  0
  202.8865  174.5623  152.3664 N   0  0  0  0  0  0  0  0  0  0  0  0
  200.7955  176.8462  153.9977 C   0  0  0  0  0  0  0  0  0  0  0  0
  200.1313  177.5965  154.9971 C   0  0  0  0  0  0  0  0  0  0  0  0
  200.3553  177.2608  156.3492 C   0  0  0  0  0  0  0  0  0  0  0  0
  201.2581  176.2296  156.6947 C   0  0  0  0  0  0  0  0  0  0  0  0
  199.0735  178.5985  154.6197 C   0  0  0  0  0  0  0  0  0  0  0  0
  198.0990  178.7308  155.3437 O   0  0  0  0  0  0  0  0  0  0  0  0
  199.2742  179.2820  153.4748 N   0  0  0  0  0  0  0  0  0  0  0  0
  198.2595  179.7666  152.5853 C   0  0  0  0  0  0  0  0  0  0  0  0
  197.2744  180.7290  152.9475 C   0  0  0  0  0  0  0  0  0  0  0  0
  197.1702  181.3559  154.2520 C   0  0  0  0  0  0  0  0  0  0  0  0
  197.0724  181.7667  155.3986 C   0  0  0  0  0  0  0  0  0  0  0  0
  197.0584  182.1709  156.7928 C   0  0  1  0  0  0  0  0  0  0  0  0
  195.7211  181.8509  157.3347 N   0  0  1  0  0  0  0  0  0  0  0  0
  195.5753  182.0480  158.7879 C   0  0  1  0  0  0  0  0  0  0  0  0
  195.8903  183.4719  159.2260 C   0  0  0  0  0  0  0  0  0  0  0  0
  197.2329  183.8922  159.3779 C   0  0  0  0  0  0  0  0  0  0  0  0
  197.5285  185.2280  159.6855 C   0  0  0  0  0  0  0  0  0  0  0  0
  196.4826  186.1421  159.9141 C   0  0  0  0  0  0  0  0  0  0  0  0
  195.1494  185.7177  159.8112 C   0  0  0  0  0  0  0  0  0  0  0  0
  194.8451  184.3898  159.4547 C   0  0  0  0  0  0  0  0  0  0  0  0
  196.3245  181.1259  151.9923 C   0  0  0  0  0  0  0  0  0  0  0  0
  196.2797  180.6477  150.7393 N   0  0  0  0  0  0  0  0  0  0  0  0
  197.2191  179.7644  150.3544 C   0  0  0  0  0  0  0  0  0  0  0  0
  198.2343  179.2937  151.2365 C   0  0  0  0  0  0  0  0  0  0  0  0
  199.1890  178.3702  150.7386 C   0  0  0  0  0  0  0  0  0  0  0  0
  199.1375  177.9198  149.4055 C   0  0  0  0  0  0  0  0  0  0  0  0
  198.1451  178.3890  148.5350 C   0  0  0  0  0  0  0  0  0  0  0  0
  197.1933  179.3021  149.0206 C   0  0  0  0  0  0  0  0  0  0  0  0
  195.0156  182.3613  156.8116 H   0  0  0  0  0  0  0  0  0  0  0  0
  200.5881  177.0031  152.9590 H   0  0  0  0  0  0  0  0  0  0  0  0
  199.7939  177.7592  157.1279 H   0  0  0  0  0  0  0  0  0  0  0  0
  201.3990  175.9847  157.7366 H   0  0  0  0  0  0  0  0  0  0  0  0
  200.1473  179.0729  153.0263 H   0  0  0  0  0  0  0  0  0  0  0  0
  197.8394  181.6333  157.3336 H   0  0  0  0  0  0  0  0  0  0  0  0
  197.2803  183.2400  156.8000 H   0  0  0  0  0  0  0  0  0  0  0  0
  194.5520  181.7788  159.0667 H   0  0  0  0  0  0  0  0  0  0  0  0
  196.2309  181.3485  159.3163 H   0  0  0  0  0  0  0  0  0  0  0  0
  198.0471  183.2023  159.2063 H   0  0  0  0  0  0  0  0  0  0  0  0
  198.5582  185.5522  159.7364 H   0  0  0  0  0  0  0  0  0  0  0  0
  196.7134  187.1722  160.1619 H   0  0  0  0  0  0  0  0  0  0  0  0
  194.3462  186.4170  159.9797 H   0  0  0  0  0  0  0  0  0  0  0  0
  193.8146  184.0838  159.3371 H   0  0  0  0  0  0  0  0  0  0  0  0
  195.5416  181.8358  152.2464 H   0  0  0  0  0  0  0  0  0  0  0  0
  199.9991  178.0022  151.3295 H   0  0  0  0  0  0  0  0  0  0  0  0
  199.8718  177.2207  149.0403 H   0  0  0  0  0  0  0  0  0  0  0  0
  198.1167  178.0656  147.5011 H   0  0  0  0  0  0  0  0  0  0  0  0
  196.4288  179.6714  148.3549 H   0  0  0  0  0  0  0  0  0  0  0  0
  195.5498  180.8419  157.1914 H   0  0  0  0  0  0  0  0  0  0  0  0
  1  2  1  0
  2  3  2  0
  2  9  1  0
  3  4  1  0
  3  6  1  0
  4  5  3  0
  6  7  2  0
  6 35  1  0
  7  8  1  0
  7 10  1  0
  8  9  2  0
  8 36  1  0
  9 37  1  0
 10 11  2  0
 10 12  1  0
 12 13  1  0
 12 38  1  0
 13 14  2  0
 13 29  1  0
 14 15  1  0
 14 26  1  0
 15 16  3  0
 16 17  1  0
 17 18  1  0
 17 39  1  1
 17 40  1  0
 18 19  1  0
 18 34  1  6
 18 53  1  0
 19 20  1  0
 19 41  1  1
 19 42  1  0
 20 21  2  0
 20 25  1  0
 21 22  1  0
 21 43  1  0
 22 23  2  0
 22 44  1  0
 23 24  1  0
 23 45  1  0
 24 25  2  0
 24 46  1  0
 25 47  1  0
 26 27  2  0
 26 48  1  0
 27 28  1  0
 28 29  1  0
 28 33  2  0
 29 30  2  0
 30 31  1  0
 30 49  1  0
 31 32  2  0
 31 50  1  0
 32 33  1  0
 32 51  1  0
 33 52  1  0
M  CHG  1  18   1
M  END
>  <s_epik_cmdline>  (191) 
J2VwaWtfcHl0aG9uJywgJy1waCcsICc3LjAwMDAwMCcsICctcGh0JywgJzIuMDAwMDAwJywgJy1tcycsICcxNicsICctdG4nLCAnOCcsICctbWEnLCAnMjAwJywgJy1pbWFlJywgJzxpbmZpbGUubWFlPicsICctb21hZScsICc8b3V0ZmlsZS5tYWU+Jw==

>  <s_epik_input>  (191) 
Q2xjMWMoQyNOKVtjSF1jKFtjSF1bY0hdMSlDKD1PKVtOSF1jKGMoYzIzKVtjSF1bY0hdW2NIXVtjSF0zKWMoW2NIXW4yKUMjQ1tDSDJdW05IXVtDSDJdYzRbY0hdW2NIXVtjSF1bY0hdW2NIXTQ=

>  <s_i_glide_gridfile>  (191) 
ATP-Grid

>  <s_lp_Force_Field>  (191) 
OPLS_2005

>  <s_lp_Variant>  (191) 
rxn503b____EMOL44817445____EMOL13728749____EMOL1197208-2

>  <s_lp_label>  (191) 
2980_sdstereoexpander_1_neutralizer_1_epik_2_stereoizer_1

>  <s_m_source_file>  (191) 
ATP-VSW-LIGPREP-002-in.maegz

>  <s_sd_BIOSOLVEIT.INFINISEE\_QUERY\_NAME>  (191) 
Ref-Lig

>  <s_sd_BIOSOLVEIT.INFINISEE\_QUERY\_SMILES>  (191) 
S(c1nc2c(cc1C[NH2+]Cc3ccc(cc3)C[NH+](C)C)cccc2)Cc4ccccc4

>  <s_sd_BIOSOLVEIT.INFINISEE\_REACTION\_NAME>  (191) 
rxn503b

>  <s_sd_BIOSOLVEIT.INFINISEE\_REAGENT1\_NAME>  (191) 
EMOL44817445

>  <s_sd_BIOSOLVEIT.INFINISEE\_REAGENT1\_SMILES>  (191) 
Clc1c(C#N)cc(cc1)C(=O)O

>  <s_sd_BIOSOLVEIT.INFINISEE\_REAGENT2\_NAME>  (191) 
EMOL13728749

>  <s_sd_BIOSOLVEIT.INFINISEE\_REAGENT2\_SMILES>  (191) 
Brc1c(N)c2c(nc1)cccc2

>  <s_sd_BIOSOLVEIT.INFINISEE\_REAGENT3\_NAME>  (191) 
EMOL1197208

>  <s_sd_BIOSOLVEIT.INFINISEE\_REAGENT3\_SMILES>  (191) 
N(CC#C)Cc1ccccc1

>  <s_sd_BIOSOLVEIT.INFINISEE\_SPACE>  (191) 
eXplore_7tr_2022-12

>  <s_vsw_compound_code>  (191) 
95330

>  <s_vsw_variant>  (191) 
95330-2

>  <r_epik_Charging_Adjusted_Penalty>  (191) 
1.1385280302167899

>  <r_epik_Ionization_Penalty>  (191) 
0.57030000000000003

>  <r_epik_Ionization_Penalty_Charging>  (191) 
0.56859999999999999

>  <r_epik_Ionization_Penalty_Neutral>  (191) 
0.0016999999999999999

>  <r_epik_State_Penalty>  (191) 
0.56989999999999996

>  <r_i_docking_score>  (191) 
-5.8780075408171504

>  <r_i_glide_ecoul>  (191) 
-8.6259307861328107

>  <r_i_glide_eff_state_penalty>  (191) 
0.56989999999999996

>  <r_i_glide_einternal>  (191) 
6.2756299972534197

>  <r_i_glide_emodel>  (191) 
-76.255726332814106

>  <r_i_glide_energy>  (191) 
-50.833675384521499

>  <r_i_glide_erotb>  (191) 
0.68756679479303395

>  <r_i_glide_esite>  (191) 
-0.13129360309844201

>  <r_i_glide_evdw>  (191) 
-42.2077445983887

>  <r_i_glide_gscore>  (191) 
-6.44790754081715

>  <r_i_glide_hbond>  (191) 
-0.39966583886630203

>  <r_i_glide_ligand_efficiency>  (191) 
-0.178121440630823

>  <r_i_glide_ligand_efficiency_ln>  (191) 
-1.3072384423835199

>  <r_i_glide_ligand_efficiency_sa>  (191) 
-0.57133063506578996

>  <r_i_glide_lipo>  (191) 
-2.6355465620733298

>  <r_i_glide_metal>  (191) 
-0

>  <r_i_glide_rewards>  (191) 
-0.56469148373275302

>  <r_lp_Energy>  (191) 
31.845231999999999

>  <r_qp_ACxDN^.5/SA>  (191) 
0.011274299999999999

>  <r_qp_CIQPlogS>  (191) 
-6.9930000000000003

>  <r_qp_EA(eV)>  (191) 
1.3660000000000001

>  <r_qp_FISA>  (191) 
134.161

>  <r_qp_FOSA>  (191) 
79.367000000000004

>  <r_qp_IP(eV)>  (191) 
9.0289999999999999

>  <r_qp_Jm>  (191) 
8.1457817552901994e-06

>  <r_qp_PISA>  (191) 
537.07399999999996

>  <r_qp_PSA>  (191) 
85.280000000000001

>  <r_qp_PercentHumanOralAbsorption>  (191) 
92.975999999999999

>  <r_qp_QPPCaco>  (191) 
131.994

>  <r_qp_QPPMDCK>  (191) 
138.76499999999999

>  <r_qp_QPlogBB>  (191) 
-0.93600000000000005

>  <r_qp_QPlogHERG>  (191) 
-8.8049999999999997

>  <r_qp_QPlogKhsa>  (191) 
0.81699999999999995

>  <r_qp_QPlogKp>  (191) 
-3.395

>  <r_qp_QPlogPC16>  (191) 
17.472999999999999

>  <r_qp_QPlogPo/w>  (191) 
4.7949999999999999

>  <r_qp_QPlogPoct>  (191) 
24.018000000000001

>  <r_qp_QPlogPw>  (191) 
13.837

>  <r_qp_QPlogS>  (191) 
-7.3490000000000002

>  <r_qp_QPpolrz>  (191) 
51.162999999999997

>  <r_qp_SASA>  (191) 
815.33799999999997

>  <r_qp_SAamideO>  (191) 
0

>  <r_qp_SAfluorine>  (191) 
0

>  <r_qp_WPSA>  (191) 
64.736999999999995

>  <r_qp_accptHB>  (191) 
6.5

>  <r_qp_dip^2/V>  (191) 
0.0048896

>  <r_qp_dipole>  (191) 
2.6459999999999999

>  <r_qp_donorHB>  (191) 
2

>  <r_qp_glob>  (191) 
0.75370619999999999

>  <r_qp_mol_MW>  (191) 
450.92599999999999

>  <r_qp_volume>  (191) 
1432.3920000000001

>  <r_sd_BIOSOLVEIT.INFINISEE\_FTREES\_SIMILARITY>  (191) 
0.90300000000000002

>  <r_sd_BIOSOLVEIT.LOGP>  (191) 
4.1272799999999998

>  <r_sd_BIOSOLVEIT.MOLECULAR\_WEIGHT>  (191) 
451.935

>  <r_sd_BIOSOLVEIT.TPSA>  (191) 
82.390000000000001

>  <i_epik_Tot_Q>  (191) 
1

>  <i_epik_Tot_abs_Q>  (191) 
1

>  <i_f3d_flags>  (191) 
0

>  <i_i_glide_confnum>  (191) 
4

>  <i_i_glide_lignum>  (191) 
33

>  <i_i_glide_posenum>  (191) 
10

>  <i_i_glide_rotatable_bonds>  (191) 
8

>  <i_lp_mmshare_version>  (191) 
65135

>  <i_m_ct_format>  (191) 
2

>  <i_m_source_file_index>  (191) 
2980

>  <i_qp_#NandO>  (191) 
5

>  <i_qp_#acid>  (191) 
0

>  <i_qp_#amide>  (191) 
0

>  <i_qp_#amidine>  (191) 
0

>  <i_qp_#amine>  (191) 
1

>  <i_qp_#in34>  (191) 
0

>  <i_qp_#in56>  (191) 
22

>  <i_qp_#metab>  (191) 
4

>  <i_qp_#nonHatm>  (191) 
33

>  <i_qp_#noncon>  (191) 
0

>  <i_qp_#ringatoms>  (191) 
22

>  <i_qp_#rotor>  (191) 
8

>  <i_qp_#rtvFG>  (191) 
0

>  <i_qp_#stars>  (191) 
2

>  <i_qp_CNS>  (191) 
0

>  <i_qp_HumanOralAbsorption>  (191) 
1

>  <i_qp_RuleOfFive>  (191) 
0

>  <i_qp_RuleOfThree>  (191) 
1

>  <i_sd_BIOSOLVEIT.INFINISEE\_RESULT\_RANK>  (191) 
83654

>  <i_sd_version>  (191) 
0

>  <b_lp_Chiralities_Consistent>  (191) 
1

>  <b_sd_chiral_flag>  (191) 
0

>  <canonical_id>  (191) 
ATP-HTVS-1D3C11D6B0D4

>  <compound_code>  (191) 
95330

>  <title>  (191) 
rxn503b____EMOL44817445____EMOL13728749____EMOL1197208

>  <variant>  (191) 
95330-2

>  <source_file>  (191) 
运行/运行/ATP-VSW/ATP-VSW-DOCK_HTVS_1-003_lib/ATP-VSW-DOCK_HTVS_1-003_lib.mae

>  <canonical_smiles>  (191) 
N#Cc1cc(C(=O)Nc2c(C#CC[NH2+]Cc3ccccc3)cnc3ccccc23)ccc1Cl

>  <scaffold>  (191) 
O=C(Nc1c(C#CC[NH2+]Cc2ccccc2)cnc2ccccc12)c1ccccc1

>  <molecular_formula>  (191) 
C27H20ClN4O+

$$$$
ATP-HTVS-1DC16EDC7F4D
     RDKit          3D

 56 59  0  0  0  0  0  0  0  0999 V2000
  196.0911  179.8015  148.9750 F   0  0  0  0  0  0  0  0  0  0  0  0
  196.7899  179.5634  150.1089 C   0  0  0  0  0  0  0  0  0  0  0  0
  197.9478  178.7696  150.0796 C   0  0  0  0  0  0  0  0  0  0  0  0
  198.6610  178.5132  151.2694 C   0  0  0  0  0  0  0  0  0  0  0  0
  198.2199  179.0561  152.4975 C   0  0  0  0  0  0  0  0  0  0  0  0
  197.0456  179.8438  152.5085 C   0  0  0  0  0  0  0  0  0  0  0  0
  196.3443  180.1061  151.3226 C   0  0  0  0  0  0  0  0  0  0  0  0
  198.9756  178.7721  153.7319 C   0  0  0  0  0  0  0  0  0  0  0  0
  199.7605  177.6271  153.8172 N   0  0  0  0  0  0  0  0  0  0  0  0
  200.2467  177.5820  155.0517 C   0  0  0  0  0  0  0  0  0  0  0  0
  199.8584  178.7321  155.7737 N   0  0  0  0  0  0  0  0  0  0  0  0
  199.0454  179.4599  154.9198 C   0  0  0  0  0  0  0  0  0  0  0  0
  198.4563  180.7609  155.3175 C   0  0  1  0  0  0  0  0  0  0  0  0
  197.1018  180.5884  155.8731 N   0  0  1  0  0  0  0  0  0  0  0  0
  196.3510  181.8456  156.0041 C   0  0  1  0  0  0  0  0  0  0  0  0
  196.9309  182.7673  157.0794 C   0  0  0  0  0  0  0  0  0  0  0  0
  196.4677  182.8063  158.4261 C   0  0  0  0  0  0  0  0  0  0  0  0
  197.0992  183.6768  159.3466 C   0  0  0  0  0  0  0  0  0  0  0  0
  198.1853  184.4865  158.9557 C   0  0  0  0  0  0  0  0  0  0  0  0
  198.6473  184.4365  157.6297 C   0  0  0  0  0  0  0  0  0  0  0  0
  198.0059  183.6022  156.6981 C   0  0  0  0  0  0  0  0  0  0  0  0
  195.3357  181.9214  158.9379 C   0  0  1  0  0  0  0  0  0  0  0  0
  194.0694  182.0753  158.1737 N   0  0  2  0  0  0  0  0  0  0  0  0
  193.4184  183.3751  158.4222 C   0  0  2  0  0  0  0  0  0  0  0  0
  193.1326  180.9424  158.3313 C   0  0  2  0  0  0  0  0  0  0  0  0
  200.2783  178.9761  157.0456 C   0  0  0  0  0  0  0  0  0  0  0  0
  201.0935  178.0686  157.6587 C   0  0  0  0  0  0  0  0  0  0  0  0
  201.5314  178.3194  158.9074 F   0  0  0  0  0  0  0  0  0  0  0  0
  201.4820  176.8858  156.9895 C   0  0  0  0  0  0  0  0  0  0  0  0
  201.0638  176.6349  155.7129 C   0  0  0  0  0  0  0  0  0  0  0  0
  196.5813  180.0112  155.2368 H   0  0  0  0  0  0  0  0  0  0  0  0
  198.2968  178.3500  149.1459 H   0  0  0  0  0  0  0  0  0  0  0  0
  199.5435  177.8893  151.2371 H   0  0  0  0  0  0  0  0  0  0  0  0
  196.6291  180.2546  153.4121 H   0  0  0  0  0  0  0  0  0  0  0  0
  195.4604  180.7186  151.3529 H   0  0  0  0  0  0  0  0  0  0  0  0
  199.1069  181.2570  156.0357 H   0  0  0  0  0  0  0  0  0  0  0  0
  198.4206  181.4067  154.4387 H   0  0  0  0  0  0  0  0  0  0  0  0
  196.3244  182.3858  155.0500 H   0  0  0  0  0  0  0  0  0  0  0  0
  195.3415  181.4923  156.1850 H   0  0  0  0  0  0  0  0  0  0  0  0
  196.7767  183.7101  160.3756 H   0  0  0  0  0  0  0  0  0  0  0  0
  198.6753  185.1306  159.6766 H   0  0  0  0  0  0  0  0  0  0  0  0
  199.4930  185.0365  157.3249 H   0  0  0  0  0  0  0  0  0  0  0  0
  198.3837  183.5842  155.6853 H   0  0  0  0  0  0  0  0  0  0  0  0
  195.7177  180.9081  158.9760 H   0  0  0  0  0  0  0  0  0  0  0  0
  195.1452  182.1749  159.9729 H   0  0  0  0  0  0  0  0  0  0  0  0
  193.0913  183.5223  159.4439 H   0  0  0  0  0  0  0  0  0  0  0  0
  192.5455  183.4072  157.7848 H   0  0  0  0  0  0  0  0  0  0  0  0
  194.0714  184.2021  158.1437 H   0  0  0  0  0  0  0  0  0  0  0  0
  192.7527  180.8363  159.3335 H   0  0  0  0  0  0  0  0  0  0  0  0
  193.5998  180.0000  158.0895 H   0  0  0  0  0  0  0  0  0  0  0  0
  192.2834  181.0425  157.6607 H   0  0  0  0  0  0  0  0  0  0  0  0
  199.9623  179.8920  157.5351 H   0  0  0  0  0  0  0  0  0  0  0  0
  202.1548  176.1875  157.4566 H   0  0  0  0  0  0  0  0  0  0  0  0
  201.3733  175.7371  155.1927 H   0  0  0  0  0  0  0  0  0  0  0  0
  194.2646  182.1162  157.1940 H   0  0  0  0  0  0  0  0  0  0  0  0
  197.0931  180.0884  156.7547 H   0  0  0  0  0  0  0  0  0  0  0  0
  1  2  1  0
  2  3  1  0
  2  7  2  0
  3  4  2  0
  3 32  1  0
  4  5  1  0
  4 33  1  0
  5  6  2  0
  5  8  1  0
  6  7  1  0
  6 34  1  0
  7 35  1  0
  8  9  1  0
  8 12  2  0
  9 10  2  0
 10 11  1  0
 10 30  1  0
 11 12  1  0
 11 26  1  0
 12 13  1  0
 13 14  1  0
 13 36  1  1
 13 37  1  0
 14 15  1  0
 14 31  1  6
 14 56  1  0
 15 16  1  0
 15 38  1  6
 15 39  1  0
 16 17  1  0
 16 21  2  0
 17 18  2  0
 17 22  1  0
 18 19  1  0
 18 40  1  0
 19 20  2  0
 19 41  1  0
 20 21  1  0
 20 42  1  0
 21 43  1  0
 22 23  1  0
 22 44  1  1
 22 45  1  0
 23 24  1  0
 23 25  1  0
 23 55  1  6
 24 46  1  1
 24 47  1  0
 24 48  1  0
 25 49  1  1
 25 50  1  0
 25 51  1  0
 26 27  2  0
 26 52  1  0
 27 28  1  0
 27 29  1  0
 29 30  2  0
 29 53  1  0
 30 54  1  0
M  CHG  2  14   1  23   1
M  END
>  <s_epik_cmdline>  (192) 
J2VwaWtfcHl0aG9uJywgJy1waCcsICc3LjAwMDAwMCcsICctcGh0JywgJzIuMDAwMDAwJywgJy1tcycsICcxNicsICctdG4nLCAnOCcsICctbWEnLCAnMjAwJywgJy1pbWFlJywgJzxpbmZpbGUubWFlPicsICctb21hZScsICc8b3V0ZmlsZS5tYWU+Jw==

>  <s_epik_input>  (192) 
RmMxW2NIXVtjSF1jKFtjSF1bY0hdMSktYyhuMiljKG4oYzIzKVtjSF1jKEYpW2NIXVtjSF0zKVtDSDJdW05IXVtDSDJdYzRjKFtDSDJdTihbQ0gzXSlbQ0gzXSlbY0hdW2NIXVtjSF1bY0hdNA==

>  <s_i_glide_gridfile>  (192) 
ATP-Grid

>  <s_lp_Force_Field>  (192) 
OPLS_2005

>  <s_lp_Variant>  (192) 
m_270004bbb____8353320____13425708-1

>  <s_lp_label>  (192) 
1015_sdstereoexpander_1_neutralizer_1_epik_1_stereoizer_1

>  <s_m_source_file>  (192) 
ATP-VSW-LIGPREP-003-in.maegz

>  <s_sd_BIOSOLVEIT.INFINISEE\_QUERY\_NAME>  (192) 
Ref-Lig

>  <s_sd_BIOSOLVEIT.INFINISEE\_QUERY\_SMILES>  (192) 
S(c1nc2c(cc1C[NH2+]Cc3ccc(cc3)C[NH+](C)C)cccc2)Cc4ccccc4

>  <s_sd_BIOSOLVEIT.INFINISEE\_REACTION\_NAME>  (192) 
m_270004bbb

>  <s_sd_BIOSOLVEIT.INFINISEE\_REAGENT1\_SMILES>  (192) 
[R1*]NCc1c(cccc1)CN(C)C

>  <s_sd_BIOSOLVEIT.INFINISEE\_REAGENT2\_SMILES>  (192) 
[R1*]CC=1N2C(=NC1c3ccc(F)cc3)C=CC(F)=C2

>  <s_sd_BIOSOLVEIT.INFINISEE\_SPACE>  (192) 
REALSpace_44bn_2023-08

>  <s_vsw_compound_code>  (192) 
32451

>  <s_vsw_variant>  (192) 
32451-1

>  <r_epik_Charging_Adjusted_Penalty>  (192) 
0.90544325744147902

>  <r_epik_Ionization_Penalty>  (192) 
0.45619999999999999

>  <r_epik_Ionization_Penalty_Charging>  (192) 
0.45619999999999999

>  <r_epik_Ionization_Penalty_Neutral>  (192) 
0

>  <r_epik_State_Penalty>  (192) 
0.44919999999999999

>  <r_i_docking_score>  (192) 
-5.4965566237238104

>  <r_i_glide_ecoul>  (192) 
-15.515637397766101

>  <r_i_glide_eff_state_penalty>  (192) 
0.44919999999999999

>  <r_i_glide_einternal>  (192) 
2.2204337120056201

>  <r_i_glide_emodel>  (192) 
-68.572689674325503

>  <r_i_glide_energy>  (192) 
-42.099793434143102

>  <r_i_glide_erotb>  (192) 
0.70771685032525999

>  <r_i_glide_esite>  (192) 
-0.25534436629453999

>  <r_i_glide_evdw>  (192) 
-26.584156036376999

>  <r_i_glide_gscore>  (192) 
-5.9457566237238098

>  <r_i_glide_hbond>  (192) 
-0.30395382384054798

>  <r_i_glide_ligand_efficiency>  (192) 
-0.18321855412412699

>  <r_i_glide_ligand_efficiency_ln>  (192) 
-1.2488775546912601

>  <r_i_glide_ligand_efficiency_sa>  (192) 
-0.56930264642291695

>  <r_i_glide_lipo>  (192) 
-1.40768175764779

>  <r_i_glide_metal>  (192) 
-0

>  <r_i_glide_rewards>  (192) 
-1.0299401147824301

>  <r_lp_Energy>  (192) 
24.195283

>  <r_qp_ACxDN^.5/SA>  (192) 
0.0074479999999999998

>  <r_qp_CIQPlogS>  (192) 
-4.6440000000000001

>  <r_qp_EA(eV)>  (192) 
1.0620000000000001

>  <r_qp_FISA>  (192) 
18.559999999999999

>  <r_qp_FOSA>  (192) 
176.91200000000001

>  <r_qp_IP(eV)>  (192) 
9.0120000000000005

>  <r_qp_Jm>  (192) 
0.0100267241384853

>  <r_qp_PISA>  (192) 
396.47000000000003

>  <r_qp_PSA>  (192) 
30.978999999999999

>  <r_qp_PercentHumanOralAbsorption>  (192) 
100

>  <r_qp_QPPCaco>  (192) 
410.863

>  <r_qp_QPPMDCK>  (192) 
630.08000000000004

>  <r_qp_QPlogBB>  (192) 
1.018

>  <r_qp_QPlogHERG>  (192) 
-7.4790000000000001

>  <r_qp_QPlogKhsa>  (192) 
0.81299999999999994

>  <r_qp_QPlogKp>  (192) 
-4.0140000000000002

>  <r_qp_QPlogPC16>  (192) 
12.523999999999999

>  <r_qp_QPlogPo/w>  (192) 
4.6769999999999996

>  <r_qp_QPlogPoct>  (192) 
18.963000000000001

>  <r_qp_QPlogPw>  (192) 
9.2520000000000007

>  <r_qp_QPlogS>  (192) 
-3.5939999999999999

>  <r_qp_QPpolrz>  (192) 
44.088999999999999

>  <r_qp_SASA>  (192) 
671.32000000000005

>  <r_qp_SAamideO>  (192) 
0

>  <r_qp_SAfluorine>  (192) 
79.378

>  <r_qp_WPSA>  (192) 
79.378

>  <r_qp_accptHB>  (192) 
5

>  <r_qp_dip^2/V>  (192) 
0.0056695000000000001

>  <r_qp_dipole>  (192) 
2.6699999999999999

>  <r_qp_donorHB>  (192) 
1

>  <r_qp_glob>  (192) 
0.83910220000000002

>  <r_qp_mol_MW>  (192) 
406.47699999999998

>  <r_qp_volume>  (192) 
1257.097

>  <r_sd_BIOSOLVEIT.INFINISEE\_FTREES\_SIMILARITY>  (192) 
0.91500000000000004

>  <r_sd_BIOSOLVEIT.LOGP>  (192) 
2.1876000000000002

>  <r_sd_BIOSOLVEIT.MOLECULAR\_WEIGHT>  (192) 
408.49299999999999

>  <r_sd_BIOSOLVEIT.TPSA>  (192) 
38.869999999999997

>  <i_epik_Tot_Q>  (192) 
2

>  <i_epik_Tot_abs_Q>  (192) 
2

>  <i_f3d_flags>  (192) 
0

>  <i_i_glide_confnum>  (192) 
5

>  <i_i_glide_lignum>  (192) 
384

>  <i_i_glide_posenum>  (192) 
12

>  <i_i_glide_rotatable_bonds>  (192) 
7

>  <i_lp_mmshare_version>  (192) 
65135

>  <i_m_ct_format>  (192) 
2

>  <i_m_source_file_index>  (192) 
1015

>  <i_qp_#NandO>  (192) 
4

>  <i_qp_#acid>  (192) 
0

>  <i_qp_#amide>  (192) 
0

>  <i_qp_#amidine>  (192) 
0

>  <i_qp_#amine>  (192) 
2

>  <i_qp_#in34>  (192) 
0

>  <i_qp_#in56>  (192) 
21

>  <i_qp_#metab>  (192) 
5

>  <i_qp_#nonHatm>  (192) 
30

>  <i_qp_#noncon>  (192) 
0

>  <i_qp_#ringatoms>  (192) 
21

>  <i_qp_#rotor>  (192) 
6

>  <i_qp_#rtvFG>  (192) 
0

>  <i_qp_#stars>  (192) 
0

>  <i_qp_CNS>  (192) 
2

>  <i_qp_HumanOralAbsorption>  (192) 
3

>  <i_qp_RuleOfFive>  (192) 
0

>  <i_qp_RuleOfThree>  (192) 
0

>  <i_sd_BIOSOLVEIT.INFINISEE\_REAGENT1\_NAME>  (192) 
8353320

>  <i_sd_BIOSOLVEIT.INFINISEE\_REAGENT2\_NAME>  (192) 
13425708

>  <i_sd_BIOSOLVEIT.INFINISEE\_RESULT\_RANK>  (192) 
27073

>  <i_sd_version>  (192) 
0

>  <b_lp_Chiralities_Consistent>  (192) 
1

>  <b_sd_chiral_flag>  (192) 
0

>  <canonical_id>  (192) 
ATP-HTVS-1DC16EDC7F4D

>  <compound_code>  (192) 
32451

>  <title>  (192) 
m_270004bbb____8353320____13425708

>  <variant>  (192) 
32451-1

>  <source_file>  (192) 
运行/运行/ATP-VSW/ATP-VSW-DOCK_HTVS_1-003_lib/ATP-VSW-DOCK_HTVS_1-003_lib.mae

>  <canonical_smiles>  (192) 
C[NH+](C)Cc1ccccc1C[NH2+]Cc1c(-c2ccc(F)cc2)nc2ccc(F)cn12

>  <scaffold>  (192) 
c1ccc(C[NH2+]Cc2c(-c3ccccc3)nc3ccccn23)cc1

>  <molecular_formula>  (192) 
C24H26F2N4+2

$$$$
ATP-HTVS-1DC6D2F4A05D
     RDKit          3D

 63 66  0  0  0  0  0  0  0  0999 V2000
  199.5598  176.4498  152.1936 F   0  0  0  0  0  0  0  0  0  0  0  0
  199.1780  176.6119  150.9035 C   0  0  0  0  0  0  0  0  0  0  0  0
  198.3507  177.6903  150.5373 C   0  0  0  0  0  0  0  0  0  0  0  0
  197.9467  177.8290  149.1865 C   0  0  0  0  0  0  0  0  0  0  0  0
  198.3886  176.9079  148.2183 C   0  0  0  0  0  0  0  0  0  0  0  0
  199.2287  175.8403  148.5848 C   0  0  0  0  0  0  0  0  0  0  0  0
  199.6187  175.6935  149.9324 C   0  0  0  0  0  0  0  0  0  0  0  0
  199.7119  174.8599  147.5341 C   0  0  1  0  0  0  0  0  0  0  0  0
  200.4827  175.4874  146.5319 O   0  0  0  0  0  0  0  0  0  0  0  0
  197.8709  178.6705  151.6009 C   0  0  1  0  0  0  0  0  0  0  0  0
  197.6265  180.0179  151.1069 N   0  0  0  0  0  0  0  0  0  0  0  0
  197.5742  181.1181  151.9819 C   0  0  0  0  0  0  0  0  0  0  0  0
  197.5238  180.8818  153.3121 N   0  0  0  0  0  0  0  0  0  0  0  0
  197.4460  181.9112  154.1669 C   0  0  0  0  0  0  0  0  0  0  0  0
  197.4604  183.1746  153.7614 N   0  0  0  0  0  0  0  0  0  0  0  0
  197.5219  183.4756  152.4412 C   0  0  0  0  0  0  0  0  0  0  0  0
  197.5652  182.4349  151.4804 C   0  0  0  0  0  0  0  0  0  0  0  0
  197.6018  182.7636  150.0996 C   0  0  0  0  0  0  0  0  0  0  0  0
  197.6000  184.1136  149.6988 C   0  0  0  0  0  0  0  0  0  0  0  0
  197.5879  185.1398  150.6607 C   0  0  0  0  0  0  0  0  0  0  0  0
  197.5563  184.8173  152.0342 C   0  0  0  0  0  0  0  0  0  0  0  0
  197.4173  181.6572  155.5311 N   0  0  0  0  0  0  0  0  0  0  0  0
  198.2214  180.5989  156.1285 C   0  0  1  0  0  0  0  0  0  0  0  0
  199.7641  180.7873  156.0988 C   0  0  0  0  0  0  0  0  0  0  0  0
  200.6561  179.9075  156.8007 C   0  0  0  0  0  0  0  0  0  0  0  0
  202.0626  180.1022  156.7268 C   0  0  0  0  0  0  0  0  0  0  0  0
  202.6130  181.1321  155.9366 C   0  0  0  0  0  0  0  0  0  0  0  0
  203.9626  181.3133  155.8658 F   0  0  0  0  0  0  0  0  0  0  0  0
  201.7534  181.9808  155.2232 C   0  0  0  0  0  0  0  0  0  0  0  0
  200.3556  181.8212  155.3151 C   0  0  0  0  0  0  0  0  0  0  0  0
  200.1407  178.7378  157.6422 C   0  0  1  0  0  0  0  0  0  0  0  0
  199.9549  177.4666  156.8868 N   0  0  2  0  0  0  0  0  0  0  0  0
  201.2302  176.7243  156.6728 C   0  0  2  0  0  0  0  0  0  0  0  0
  199.1677  177.5756  155.6437 C   0  0  2  0  0  0  0  0  0  0  0  0
  197.2946  178.6321  148.8770 H   0  0  0  0  0  0  0  0  0  0  0  0
  198.0837  177.0266  147.1880 H   0  0  0  0  0  0  0  0  0  0  0  0
  200.2601  174.8746  150.2237 H   0  0  0  0  0  0  0  0  0  0  0  0
  200.3136  174.0736  147.9913 H   0  0  0  0  0  0  0  0  0  0  0  0
  198.8457  174.3816  147.0757 H   0  0  0  0  0  0  0  0  0  0  0  0
  200.6675  174.8600  145.8485 H   0  0  0  0  0  0  0  0  0  0  0  0
  196.9479  178.2901  152.0376 H   0  0  0  0  0  0  0  0  0  0  0  0
  198.6136  178.6980  152.4008 H   0  0  0  0  0  0  0  0  0  0  0  0
  197.5893  180.1679  150.1115 H   0  0  0  0  0  0  0  0  0  0  0  0
  197.6311  181.9970  149.3436 H   0  0  0  0  0  0  0  0  0  0  0  0
  197.6160  184.3653  148.6477 H   0  0  0  0  0  0  0  0  0  0  0  0
  197.5813  186.1723  150.3503 H   0  0  0  0  0  0  0  0  0  0  0  0
  197.5347  185.6157  152.7645 H   0  0  0  0  0  0  0  0  0  0  0  0
  196.8268  182.2698  156.1136 H   0  0  0  0  0  0  0  0  0  0  0  0
  197.9024  180.5038  157.1809 H   0  0  0  0  0  0  0  0  0  0  0  0
  197.9609  179.6989  155.6178 H   0  0  0  0  0  0  0  0  0  0  0  0
  202.7412  179.4484  157.2624 H   0  0  0  0  0  0  0  0  0  0  0  0
  202.1454  182.7764  154.6033 H   0  0  0  0  0  0  0  0  0  0  0  0
  199.7697  182.5160  154.7364 H   0  0  0  0  0  0  0  0  0  0  0  0
  200.8214  178.5634  158.4741 H   0  0  0  0  0  0  0  0  0  0  0  0
  199.2045  179.0378  158.1140 H   0  0  0  0  0  0  0  0  0  0  0  0
  201.9139  177.3038  156.0528 H   0  0  0  0  0  0  0  0  0  0  0  0
  201.0399  175.7807  156.1669 H   0  0  0  0  0  0  0  0  0  0  0  0
  201.7260  176.5073  157.6203 H   0  0  0  0  0  0  0  0  0  0  0  0
  199.6420  178.2611  154.9442 H   0  0  0  0  0  0  0  0  0  0  0  0
  198.1846  177.9499  155.8761 H   0  0  0  0  0  0  0  0  0  0  0  0
  199.1343  176.6060  155.1155 H   0  0  0  0  0  0  0  0  0  0  0  0
  197.4570  183.9368  154.4350 H   0  0  0  0  0  0  0  0  0  0  0  0
  199.3740  176.9015  157.4988 H   0  0  0  0  0  0  0  0  0  0  0  0
  1  2  1  0
  2  3  2  0
  2  7  1  0
  3  4  1  0
  3 10  1  0
  4  5  2  0
  4 35  1  0
  5  6  1  0
  5 36  1  0
  6  7  2  0
  6  8  1  0
  7 37  1  0
  8  9  1  0
  8 38  1  1
  8 39  1  0
  9 40  1  0
 10 11  1  0
 10 41  1  1
 10 42  1  0
 11 12  1  0
 11 43  1  0
 12 13  2  0
 12 17  1  0
 13 14  1  0
 14 15  2  0
 14 22  1  0
 15 16  1  0
 15 62  1  0
 16 17  1  0
 16 21  2  0
 17 18  2  0
 18 19  1  0
 18 44  1  0
 19 20  2  0
 19 45  1  0
 20 21  1  0
 20 46  1  0
 21 47  1  0
 22 23  1  0
 22 48  1  0
 23 24  1  0
 23 49  1  1
 23 50  1  0
 24 25  2  0
 24 30  1  0
 25 26  1  0
 25 31  1  0
 26 27  2  0
 26 51  1  0
 27 28  1  0
 27 29  1  0
 29 30  2  0
 29 52  1  0
 30 53  1  0
 31 32  1  0
 31 54  1  1
 31 55  1  0
 32 33  1  0
 32 34  1  0
 32 63  1  1
 33 56  1  6
 33 57  1  0
 33 58  1  0
 34 59  1  6
 34 60  1  0
 34 61  1  0
M  CHG  2  15   1  32   1
M  END
>  <s_epik_cmdline>  (193) 
J2VwaWtfcHl0aG9uJywgJy1waCcsICc3LjAwMDAwMCcsICctcGh0JywgJzIuMDAwMDAwJywgJy1tcycsICcxNicsICctdG4nLCAnOCcsICctbWEnLCAnMjAwJywgJy1pbWFlJywgJzxpbmZpbGUubWFlPicsICctb21hZScsICc8b3V0ZmlsZS5tYWU+Jw==

>  <s_epik_input>  (193) 
W09IXVtDSDJdYyhbY0hdMSlbY0hdW2NIXWMoYzFGKVtDSDJdW05IXWMoYyhjMjMpW2NIXVtjSF1bY0hdW2NIXTMpbmMobjIpW05IXVtDSDJdYzRjKFtDSDJdTihbQ0gzXSlbQ0gzXSlbY0hdYyhGKVtjSF1bY0hdNA==

>  <s_i_glide_gridfile>  (193) 
ATP-Grid

>  <s_lp_Force_Field>  (193) 
OPLS_2005

>  <s_lp_Variant>  (193) 
m_282030aaa____21893406____22360182____21974936-1

>  <s_lp_label>  (193) 
2102_sdstereoexpander_1_neutralizer_1_epik_1_stereoizer_1

>  <s_m_source_file>  (193) 
ATP-VSW-LIGPREP-001-in.maegz

>  <s_sd_BIOSOLVEIT.INFINISEE\_QUERY\_NAME>  (193) 
Ref-Lig

>  <s_sd_BIOSOLVEIT.INFINISEE\_QUERY\_SMILES>  (193) 
S(c1nc2c(cc1C[NH2+]Cc3ccc(cc3)C[NH+](C)C)cccc2)Cc4ccccc4

>  <s_sd_BIOSOLVEIT.INFINISEE\_REACTION\_NAME>  (193) 
m_282030aaa

>  <s_sd_BIOSOLVEIT.INFINISEE\_REAGENT1\_SMILES>  (193) 
[R1*]NCc1c(F)cc(cc1)CO

>  <s_sd_BIOSOLVEIT.INFINISEE\_REAGENT2\_SMILES>  (193) 
[R2*]c1nc([R1*])c2c(n1)cccc2

>  <s_sd_BIOSOLVEIT.INFINISEE\_REAGENT3\_SMILES>  (193) 
[R2*]NCc1c(cc(F)cc1)CN(C)C

>  <s_sd_BIOSOLVEIT.INFINISEE\_SPACE>  (193) 
REALSpace_44bn_2023-08

>  <s_vsw_compound_code>  (193) 
67233

>  <s_vsw_variant>  (193) 
67233-1

>  <r_epik_Charging_Adjusted_Penalty>  (193) 
0.13081363970020499

>  <r_epik_Ionization_Penalty>  (193) 
0.0613

>  <r_epik_Ionization_Penalty_Charging>  (193) 
0.0613

>  <r_epik_Ionization_Penalty_Neutral>  (193) 
0

>  <r_epik_State_Penalty>  (193) 
0.069500000000000006

>  <r_i_docking_score>  (193) 
-3.9843455195567001

>  <r_i_glide_ecoul>  (193) 
-7.0226140022277797

>  <r_i_glide_eff_state_penalty>  (193) 
0.069500000000000006

>  <r_i_glide_einternal>  (193) 
8.4501295089721697

>  <r_i_glide_emodel>  (193) 
-49.147773108978697

>  <r_i_glide_energy>  (193) 
-36.123636722564697

>  <r_i_glide_erotb>  (193) 
0.74445570242190595

>  <r_i_glide_esite>  (193) 
-0.18232872631285399

>  <r_i_glide_evdw>  (193) 
-29.1010227203369

>  <r_i_glide_gscore>  (193) 
-4.0538455195566998

>  <r_i_glide_hbond>  (193) 
-0.045896117100152997

>  <r_i_glide_ligand_efficiency>  (193) 
-0.117186632928138

>  <r_i_glide_ligand_efficiency_ln>  (193) 
-0.88025368237643298

>  <r_i_glide_ligand_efficiency_sa>  (193) 
-0.379639198539721

>  <r_i_glide_lipo>  (193) 
-1.50483719787215

>  <r_i_glide_metal>  (193) 
-0

>  <r_i_glide_rewards>  (193) 
-0.55679594434243196

>  <r_lp_Energy>  (193) 
23.476237000000001

>  <r_qp_ACxDN^.5/SA>  (193) 
0.0141762

>  <r_qp_CIQPlogS>  (193) 
-6.0759999999999996

>  <r_qp_EA(eV)>  (193) 
0.64800000000000002

>  <r_qp_FISA>  (193) 
94.248000000000005

>  <r_qp_FOSA>  (193) 
239.346

>  <r_qp_IP(eV)>  (193) 
8.0549999999999997

>  <r_qp_Jm>  (193) 
0.00067963132701892397

>  <r_qp_PISA>  (193) 
409.27699999999999

>  <r_qp_PSA>  (193) 
69.566999999999993

>  <r_qp_PercentHumanOralAbsorption>  (193) 
100

>  <r_qp_QPPCaco>  (193) 
315.53199999999998

>  <r_qp_QPPMDCK>  (193) 
408.91800000000001

>  <r_qp_QPlogBB>  (193) 
-0.53500000000000003

>  <r_qp_QPlogHERG>  (193) 
-8.0500000000000007

>  <r_qp_QPlogKhsa>  (193) 
0.71999999999999997

>  <r_qp_QPlogKp>  (193) 
-2.9169999999999998

>  <r_qp_QPlogPC16>  (193) 
15.834

>  <r_qp_QPlogPo/w>  (193) 
4.9199999999999999

>  <r_qp_QPlogPoct>  (193) 
25.353000000000002

>  <r_qp_QPlogPw>  (193) 
13.928000000000001

>  <r_qp_QPlogS>  (193) 
-5.9169999999999998

>  <r_qp_QPpolrz>  (193) 
50.037999999999997

>  <r_qp_SASA>  (193) 
818.60699999999997

>  <r_qp_SAamideO>  (193) 
0

>  <r_qp_SAfluorine>  (193) 
75.736000000000004

>  <r_qp_WPSA>  (193) 
75.736000000000004

>  <r_qp_accptHB>  (193) 
6.7000000000000002

>  <r_qp_dip^2/V>  (193) 
0.043270999999999997

>  <r_qp_dipole>  (193) 
7.9669999999999996

>  <r_qp_donorHB>  (193) 
3

>  <r_qp_glob>  (193) 
0.76269770000000003

>  <r_qp_mol_MW>  (193) 
463.529

>  <r_qp_volume>  (193) 
1466.8779999999999

>  <r_sd_BIOSOLVEIT.INFINISEE\_FTREES\_SIMILARITY>  (193) 
0.90100000000000002

>  <r_sd_BIOSOLVEIT.LOGP>  (193) 
3.2690000000000001

>  <r_sd_BIOSOLVEIT.MOLECULAR\_WEIGHT>  (193) 
464.53699999999998

>  <r_sd_BIOSOLVEIT.TPSA>  (193) 
74.510000000000005

>  <i_epik_Tot_Q>  (193) 
2

>  <i_epik_Tot_abs_Q>  (193) 
2

>  <i_f3d_flags>  (193) 
0

>  <i_i_glide_confnum>  (193) 
8

>  <i_i_glide_lignum>  (193) 
657

>  <i_i_glide_posenum>  (193) 
7

>  <i_i_glide_rotatable_bonds>  (193) 
10

>  <i_lp_mmshare_version>  (193) 
65135

>  <i_m_ct_format>  (193) 
2

>  <i_m_source_file_index>  (193) 
2102

>  <i_qp_#NandO>  (193) 
6

>  <i_qp_#acid>  (193) 
0

>  <i_qp_#amide>  (193) 
0

>  <i_qp_#amidine>  (193) 
0

>  <i_qp_#amine>  (193) 
1

>  <i_qp_#in34>  (193) 
0

>  <i_qp_#in56>  (193) 
22

>  <i_qp_#metab>  (193) 
5

>  <i_qp_#nonHatm>  (193) 
34

>  <i_qp_#noncon>  (193) 
0

>  <i_qp_#ringatoms>  (193) 
22

>  <i_qp_#rotor>  (193) 
10

>  <i_qp_#rtvFG>  (193) 
0

>  <i_qp_#stars>  (193) 
0

>  <i_qp_CNS>  (193) 
0

>  <i_qp_HumanOralAbsorption>  (193) 
3

>  <i_qp_RuleOfFive>  (193) 
0

>  <i_qp_RuleOfThree>  (193) 
1

>  <i_sd_BIOSOLVEIT.INFINISEE\_REAGENT1\_NAME>  (193) 
21893406

>  <i_sd_BIOSOLVEIT.INFINISEE\_REAGENT2\_NAME>  (193) 
22360182

>  <i_sd_BIOSOLVEIT.INFINISEE\_REAGENT3\_NAME>  (193) 
21974936

>  <i_sd_BIOSOLVEIT.INFINISEE\_RESULT\_RANK>  (193) 
97393

>  <i_sd_version>  (193) 
0

>  <b_lp_Chiralities_Consistent>  (193) 
1

>  <b_sd_chiral_flag>  (193) 
0

>  <canonical_id>  (193) 
ATP-HTVS-1DC6D2F4A05D

>  <compound_code>  (193) 
67233

>  <title>  (193) 
m_282030aaa____21893406____22360182____21974936

>  <variant>  (193) 
67233-1

>  <source_file>  (193) 
运行/运行/ATP-VSW/ATP-VSW-DOCK_HTVS_1-001_lib/ATP-VSW-DOCK_HTVS_1-001_lib

>  <canonical_smiles>  (193) 
C[NH+](C)Cc1cc(F)ccc1CNc1nc(NCc2ccc(CO)cc2F)c2ccccc2[nH+]1

>  <scaffold>  (193) 
c1ccc(CNc2nc(NCc3ccccc3)c3ccccc3[nH+]2)cc1

>  <molecular_formula>  (193) 
C26H29F2N5O+2

$$$$
ATP-HTVS-1DD46A13AEBB
     RDKit          3D

 42 45  0  0  0  0  0  0  0  0999 V2000
  197.1574  183.8013  153.1683 Cl  0  0  0  0  0  0  0  0  0  0  0  0
  197.3011  182.1781  153.7325 C   0  0  0  0  0  0  0  0  0  0  0  0
  197.2292  181.8612  155.1100 C   0  0  0  0  0  0  0  0  0  0  0  0
  197.0730  180.5017  155.4511 C   0  0  0  0  0  0  0  0  0  0  0  0
  197.4574  179.4829  154.5471 C   0  0  0  0  0  0  0  0  0  0  0  0
  197.5315  179.7999  153.1844 C   0  0  0  0  0  0  0  0  0  0  0  0
  197.4122  181.1420  152.7830 C   0  0  0  0  0  0  0  0  0  0  0  0
  197.1523  182.9360  156.2056 C   0  0  2  0  0  0  0  0  0  0  0  0
  198.3616  183.1197  157.0629 N   0  0  0  0  0  0  0  0  0  0  0  0
  198.2968  183.7021  158.2936 C   0  0  0  0  0  0  0  0  0  0  0  0
  199.2841  183.9718  158.9844 O   0  0  0  0  0  0  0  0  0  0  0  0
  196.9201  184.0520  158.7898 C   0  0  0  0  0  0  0  0  0  0  0  0
  195.7878  183.5227  158.1361 C   0  0  0  0  0  0  0  0  0  0  0  0
  195.9533  182.7090  157.0159 N   0  0  0  0  0  0  0  0  0  0  0  0
  194.4923  183.8112  158.6096 C   0  0  0  0  0  0  0  0  0  0  0  0
  194.3239  184.6372  159.7347 C   0  0  0  0  0  0  0  0  0  0  0  0
  195.4478  185.1725  160.3909 C   0  0  0  0  0  0  0  0  0  0  0  0
  196.7418  184.8780  159.9222 C   0  0  0  0  0  0  0  0  0  0  0  0
  199.6781  182.8743  156.4375 C   0  0  1  0  0  0  0  0  0  0  0  0
  200.3440  181.5568  156.8212 C   0  0  0  0  0  0  0  0  0  0  0  0
  201.6131  181.4876  157.3510 C   0  0  0  0  0  0  0  0  0  0  0  0
  202.1782  180.2406  157.6894 C   0  0  0  0  0  0  0  0  0  0  0  0
  201.4712  179.0370  157.4909 C   0  0  0  0  0  0  0  0  0  0  0  0
  200.2068  179.0619  156.9501 C   0  0  0  0  0  0  0  0  0  0  0  0
  199.7598  180.3250  156.6575 C   0  0  0  0  0  0  0  0  0  0  0  0
  197.1642  180.2521  156.5239 H   0  0  0  0  0  0  0  0  0  0  0  0
  197.6080  178.4605  154.8864 H   0  0  0  0  0  0  0  0  0  0  0  0
  197.6240  179.0112  152.4567 H   0  0  0  0  0  0  0  0  0  0  0  0
  197.4204  181.3798  151.7347 H   0  0  0  0  0  0  0  0  0  0  0  0
  196.9996  183.8892  155.7141 H   0  0  0  0  0  0  0  0  0  0  0  0
  195.1024  182.4536  156.5033 H   0  0  0  0  0  0  0  0  0  0  0  0
  193.6246  183.4075  158.1066 H   0  0  0  0  0  0  0  0  0  0  0  0
  193.3302  184.8615  160.0968 H   0  0  0  0  0  0  0  0  0  0  0  0
  195.3180  185.8022  161.2588 H   0  0  0  0  0  0  0  0  0  0  0  0
  197.5936  185.2892  160.4435 H   0  0  0  0  0  0  0  0  0  0  0  0
  199.6305  182.9276  155.3509 H   0  0  0  0  0  0  0  0  0  0  0  0
  200.3682  183.6777  156.7037 H   0  0  0  0  0  0  0  0  0  0  0  0
  202.1528  182.3913  157.5069 H   0  0  0  0  0  0  0  0  0  0  0  0
  203.1660  180.2070  158.1091 H   0  0  0  0  0  0  0  0  0  0  0  0
  201.8989  178.0952  157.7475 H   0  0  0  0  0  0  0  0  0  0  0  0
  199.6074  178.1772  156.7655 H   0  0  0  0  0  0  0  0  0  0  0  0
  198.9493  180.3150  156.2192 H   0  0  0  0  0  0  0  0  0  0  0  0
  1  2  1  0
  2  3  1  0
  2  7  2  0
  3  4  2  0
  3  8  1  0
  4  5  1  0
  4 26  1  0
  5  6  2  0
  5 27  1  0
  6  7  1  0
  6 28  1  0
  7 29  1  0
  8  9  1  0
  8 14  1  0
  8 30  1  6
  9 10  1  0
  9 19  1  0
 10 11  2  0
 10 12  1  0
 12 13  1  0
 12 18  2  0
 13 14  1  0
 13 15  2  0
 14 31  1  0
 15 16  1  0
 15 32  1  0
 16 17  2  0
 16 33  1  0
 17 18  1  0
 17 34  1  0
 18 35  1  0
 19 20  1  0
 19 36  1  6
 19 37  1  0
 20 21  2  0
 20 25  1  0
 21 22  1  0
 21 38  1  0
 22 23  2  0
 22 39  1  0
 23 24  1  0
 23 40  1  0
 24 25  2  0
 24 41  1  0
 25 42  1  0
M  END
>  <s_epik_Chemistry_Notes>  (194) 
This compound contains an acetal/aminal-like group ( X-CH(R)-Y where X, Y are N, S, or O) that may be acid/base labile, releasing an aldehyde.

>  <s_epik_cmdline>  (194) 
J2VwaWtfcHl0aG9uJywgJy1waCcsICc3LjAwMDAwMCcsICctcGh0JywgJzIuMDAwMDAwJywgJy1tcycsICcxNicsICctdG4nLCAnOCcsICctbWEnLCAnMjAwJywgJy1pbWFlJywgJzxpbmZpbGUubWFlPicsICctb21hZScsICc8b3V0ZmlsZS5tYWU+Jw==

>  <s_epik_input>  (194) 
W2NIXTFbY0hdW2NIXVtjSF1jKGMxMilbTkhdW0NASF0oYyhjM0NsKVtjSF1bY0hdW2NIXVtjSF0zKU4oQzI9TylbQ0gyXWM0W2NIXVtjSF1bY0hdW2NIXVtjSF00

>  <s_i_glide_gridfile>  (194) 
ATP-Grid

>  <s_lp_Force_Field>  (194) 
OPLS_2005

>  <s_lp_Variant>  (194) 
m_66bab____1138680____10542260-2

>  <s_lp_label>  (194) 
1825_sdstereoexpander_2_neutralizer_1_epik_1_stereoizer_1

>  <s_m_source_file>  (194) 
ATP-VSW-LIGPREP-001-in.maegz

>  <s_sd_BIOSOLVEIT.INFINISEE\_QUERY\_NAME>  (194) 
Ref-Lig

>  <s_sd_BIOSOLVEIT.INFINISEE\_QUERY\_SMILES>  (194) 
S(c1nc2c(cc1C[NH2+]Cc3ccc(cc3)C[NH+](C)C)cccc2)Cc4ccccc4

>  <s_sd_BIOSOLVEIT.INFINISEE\_REACTION\_NAME>  (194) 
m_66bab

>  <s_sd_BIOSOLVEIT.INFINISEE\_REAGENT1\_SMILES>  (194) 
[R1*]N(c1c(Cl)cccc1)C(=O)c2c(N([R2*])C)cccc2

>  <s_sd_BIOSOLVEIT.INFINISEE\_REAGENT2\_SMILES>  (194) 
[R1*]C1([R2*])CC(Cc2ccccc2)CC1

>  <s_sd_BIOSOLVEIT.INFINISEE\_SPACE>  (194) 
REALSpace_44bn_2023-08

>  <s_vsw_compound_code>  (194) 
58369

>  <s_vsw_variant>  (194) 
58369-2

>  <r_epik_Charging_Adjusted_Penalty>  (194) 
0

>  <r_epik_Ionization_Penalty>  (194) 
0

>  <r_epik_Ionization_Penalty_Charging>  (194) 
0

>  <r_epik_Ionization_Penalty_Neutral>  (194) 
0

>  <r_epik_State_Penalty>  (194) 
-0

>  <r_i_docking_score>  (194) 
-3.75454992945662

>  <r_i_glide_ecoul>  (194) 
-3.5075113773345898

>  <r_i_glide_eff_state_penalty>  (194) 
-0

>  <r_i_glide_einternal>  (194) 
0.84549534320831299

>  <r_i_glide_emodel>  (194) 
-39.865863557845898

>  <r_i_glide_energy>  (194) 
-32.211431741714499

>  <r_i_glide_erotb>  (194) 
0.46946400384524201

>  <r_i_glide_esite>  (194) 
-0.11181045968435201

>  <r_i_glide_evdw>  (194) 
-28.703920364379901

>  <r_i_glide_gscore>  (194) 
-3.75454992945662

>  <r_i_glide_hbond>  (194) 
-0.16

>  <r_i_glide_ligand_efficiency>  (194) 
-0.150181997178265

>  <r_i_glide_ligand_efficiency_ln>  (194) 
-0.88994084806321805

>  <r_i_glide_ligand_efficiency_sa>  (194) 
-0.43913482323830699

>  <r_i_glide_lipo>  (194) 
-0.92448738347942805

>  <r_i_glide_metal>  (194) 
-0

>  <r_i_glide_rewards>  (194) 
-1.06639336531889

>  <r_lp_Energy>  (194) 
30.611737000000002

>  <r_lp_tautomer_probability>  (194) 
1

>  <r_qp_ACxDN^.5/SA>  (194) 
0.0068782000000000001

>  <r_qp_CIQPlogS>  (194) 
-5.9550000000000001

>  <r_qp_EA(eV)>  (194) 
0.48199999999999998

>  <r_qp_FISA>  (194) 
41.662999999999997

>  <r_qp_FOSA>  (194) 
28.478000000000002

>  <r_qp_IP(eV)>  (194) 
8.5280000000000005

>  <r_qp_Jm>  (194) 
0.59113317380127794

>  <r_qp_PISA>  (194) 
463.98899999999998

>  <r_qp_PSA>  (194) 
38.070999999999998

>  <r_qp_PercentHumanOralAbsorption>  (194) 
100

>  <r_qp_QPPCaco>  (194) 
3988.4899999999998

>  <r_qp_QPPMDCK>  (194) 
4013.1680000000001

>  <r_qp_QPlogBB>  (194) 
0.186

>  <r_qp_QPlogHERG>  (194) 
-5.9699999999999998

>  <r_qp_QPlogKhsa>  (194) 
0.64300000000000002

>  <r_qp_QPlogKp>  (194) 
-0.46100000000000002

>  <r_qp_QPlogPC16>  (194) 
12.199999999999999

>  <r_qp_QPlogPo/w>  (194) 
4.6790000000000003

>  <r_qp_QPlogPoct>  (194) 
17.637

>  <r_qp_QPlogPw>  (194) 
9.5380000000000003

>  <r_qp_QPlogS>  (194) 
-5.3099999999999996

>  <r_qp_QPpolrz>  (194) 
39.261000000000003

>  <r_qp_SASA>  (194) 
581.54399999999998

>  <r_qp_SAamideO>  (194) 
0

>  <r_qp_SAfluorine>  (194) 
0

>  <r_qp_WPSA>  (194) 
47.414000000000001

>  <r_qp_accptHB>  (194) 
4

>  <r_qp_dip^2/V>  (194) 
0.056243599999999998

>  <r_qp_dipole>  (194) 
7.7069999999999999

>  <r_qp_donorHB>  (194) 
1

>  <r_qp_glob>  (194) 
0.86245499999999997

>  <r_qp_mol_MW>  (194) 
348.83100000000002

>  <r_qp_volume>  (194) 
1056.164

>  <r_sd_BIOSOLVEIT.INFINISEE\_FTREES\_SIMILARITY>  (194) 
0.90400000000000003

>  <r_sd_BIOSOLVEIT.LOGP>  (194) 
5.1067

>  <r_sd_BIOSOLVEIT.MOLECULAR\_WEIGHT>  (194) 
348.83100000000002

>  <r_sd_BIOSOLVEIT.TPSA>  (194) 
32.340000000000003

>  <i_epik_Tot_Q>  (194) 
0

>  <i_epik_Tot_abs_Q>  (194) 
0

>  <i_f3d_flags>  (194) 
0

>  <i_i_glide_confnum>  (194) 
2

>  <i_i_glide_lignum>  (194) 
536

>  <i_i_glide_posenum>  (194) 
16

>  <i_i_glide_rotatable_bonds>  (194) 
3

>  <i_lp_mmshare_version>  (194) 
65135

>  <i_m_ct_format>  (194) 
2

>  <i_m_source_file_index>  (194) 
1825

>  <i_qp_#NandO>  (194) 
3

>  <i_qp_#acid>  (194) 
0

>  <i_qp_#amide>  (194) 
0

>  <i_qp_#amidine>  (194) 
0

>  <i_qp_#amine>  (194) 
0

>  <i_qp_#in34>  (194) 
0

>  <i_qp_#in56>  (194) 
22

>  <i_qp_#metab>  (194) 
5

>  <i_qp_#nonHatm>  (194) 
25

>  <i_qp_#noncon>  (194) 
1

>  <i_qp_#ringatoms>  (194) 
22

>  <i_qp_#rotor>  (194) 
2

>  <i_qp_#rtvFG>  (194) 
0

>  <i_qp_#stars>  (194) 
1

>  <i_qp_CNS>  (194) 
1

>  <i_qp_HumanOralAbsorption>  (194) 
3

>  <i_qp_RuleOfFive>  (194) 
0

>  <i_qp_RuleOfThree>  (194) 
0

>  <i_sd_BIOSOLVEIT.INFINISEE\_REAGENT1\_NAME>  (194) 
1138680

>  <i_sd_BIOSOLVEIT.INFINISEE\_REAGENT2\_NAME>  (194) 
10542260

>  <i_sd_BIOSOLVEIT.INFINISEE\_RESULT\_RANK>  (194) 
79469

>  <i_sd_version>  (194) 
0

>  <b_lp_Chiralities_Consistent>  (194) 
1

>  <b_sd_chiral_flag>  (194) 
0

>  <canonical_id>  (194) 
ATP-HTVS-1DD46A13AEBB

>  <compound_code>  (194) 
58369

>  <title>  (194) 
m_66bab____1138680____10542260

>  <variant>  (194) 
58369-2

>  <source_file>  (194) 
运行/运行/ATP-VSW/ATP-VSW-DOCK_HTVS_1-001_lib/ATP-VSW-DOCK_HTVS_1-001_lib

>  <canonical_smiles>  (194) 
O=C1c2ccccc2N[C@H](c2ccccc2Cl)N1Cc1ccccc1

>  <scaffold>  (194) 
O=C1c2ccccc2NC(c2ccccc2)N1Cc1ccccc1

>  <molecular_formula>  (194) 
C21H17ClN2O

$$$$
ATP-HTVS-1E20B63FDE5F
     RDKit          3D

 60 63  0  0  0  0  0  0  0  0999 V2000
  203.0802  187.8326  150.3839 Cl  0  0  0  0  0  0  0  0  0  0  0  0
  202.0166  188.4791  151.5828 C   0  0  0  0  0  0  0  0  0  0  0  0
  201.5145  187.6938  152.6495 C   0  0  0  0  0  0  0  0  0  0  0  0
  200.6617  188.1826  153.5796 N   0  0  0  0  0  0  0  0  0  0  0  0
  200.2895  189.4762  153.4889 C   0  0  0  0  0  0  0  0  0  0  0  0
  200.7433  190.3400  152.4757 C   0  0  0  0  0  0  0  0  0  0  0  0
  201.6252  189.8297  151.5057 C   0  0  0  0  0  0  0  0  0  0  0  0
  201.8834  186.2241  152.8212 C   0  0  1  0  0  0  0  0  0  0  0  0
  200.9020  185.3134  152.0786 C   0  0  0  0  0  0  0  0  0  0  0  0
  201.3399  184.4522  151.3137 O   0  0  0  0  0  0  0  0  0  0  0  0
  199.5896  185.5136  152.3027 N   0  0  0  0  0  0  0  0  0  0  0  0
  198.5204  184.8277  151.6680 C   0  0  0  0  0  0  0  0  0  0  0  0
  197.5813  184.0762  152.4373 C   0  0  0  0  0  0  0  0  0  0  0  0
  197.5734  183.8949  153.8385 N   0  0  0  0  0  0  0  0  0  0  0  0
  198.2303  184.7553  154.8153 C   0  0  1  0  0  0  0  0  0  0  0  0
  198.0316  184.3652  156.2760 C   0  0  0  0  0  0  0  0  0  0  0  0
  197.0749  183.4066  156.6789 C   0  0  0  0  0  0  0  0  0  0  0  0
  196.9282  183.0614  158.0410 C   0  0  0  0  0  0  0  0  0  0  0  0
  197.7419  183.6788  159.0123 C   0  0  0  0  0  0  0  0  0  0  0  0
  198.6984  184.6320  158.6179 C   0  0  0  0  0  0  0  0  0  0  0  0
  198.8433  184.9720  157.2562 C   0  0  0  0  0  0  0  0  0  0  0  0
  195.9105  182.0085  158.4450 C   0  0  1  0  0  0  0  0  0  0  0  0
  194.5112  182.4022  158.1342 N   0  0  2  0  0  0  0  0  0  0  0  0
  194.0664  183.6149  158.8568 C   0  0  2  0  0  0  0  0  0  0  0  0
  193.5690  181.2780  158.2950 C   0  0  2  0  0  0  0  0  0  0  0  0
  196.5747  183.3911  151.7283 C   0  0  0  0  0  0  0  0  0  0  0  0
  196.4254  183.4215  150.3918 N   0  0  0  0  0  0  0  0  0  0  0  0
  197.2915  184.1473  149.6549 C   0  0  0  0  0  0  0  0  0  0  0  0
  198.3461  184.8967  150.2496 C   0  0  0  0  0  0  0  0  0  0  0  0
  199.1830  185.6852  149.4130 C   0  0  0  0  0  0  0  0  0  0  0  0
  199.0306  185.6789  148.0168 C   0  0  0  0  0  0  0  0  0  0  0  0
  197.9961  184.9312  147.4337 C   0  0  0  0  0  0  0  0  0  0  0  0
  197.1458  184.1713  148.2518 C   0  0  0  0  0  0  0  0  0  0  0  0
  199.6097  189.8327  154.2491 H   0  0  0  0  0  0  0  0  0  0  0  0
  200.4245  191.3720  152.4446 H   0  0  0  0  0  0  0  0  0  0  0  0
  201.9923  190.4633  150.7116 H   0  0  0  0  0  0  0  0  0  0  0  0
  202.8954  186.0436  152.4552 H   0  0  0  0  0  0  0  0  0  0  0  0
  201.8838  185.9509  153.8750 H   0  0  0  0  0  0  0  0  0  0  0  0
  199.3374  186.1520  153.0459 H   0  0  0  0  0  0  0  0  0  0  0  0
  196.8190  183.3365  154.2028 H   0  0  0  0  0  0  0  0  0  0  0  0
  199.3016  184.7063  154.6553 H   0  0  0  0  0  0  0  0  0  0  0  0
  197.9096  185.7926  154.6766 H   0  0  0  0  0  0  0  0  0  0  0  0
  196.4348  182.9243  155.9534 H   0  0  0  0  0  0  0  0  0  0  0  0
  197.6467  183.4183  160.0549 H   0  0  0  0  0  0  0  0  0  0  0  0
  199.3293  185.1041  159.3623 H   0  0  0  0  0  0  0  0  0  0  0  0
  199.5889  185.7002  156.9703 H   0  0  0  0  0  0  0  0  0  0  0  0
  196.1942  181.1001  157.9176 H   0  0  0  0  0  0  0  0  0  0  0  0
  195.9941  181.7854  159.5076 H   0  0  0  0  0  0  0  0  0  0  0  0
  194.1030  183.4592  159.9349 H   0  0  0  0  0  0  0  0  0  0  0  0
  193.0429  183.8721  158.5780 H   0  0  0  0  0  0  0  0  0  0  0  0
  194.6929  184.4782  158.6233 H   0  0  0  0  0  0  0  0  0  0  0  0
  193.5290  180.9426  159.3315 H   0  0  0  0  0  0  0  0  0  0  0  0
  193.8700  180.4406  157.6713 H   0  0  0  0  0  0  0  0  0  0  0  0
  192.5700  181.5653  157.9711 H   0  0  0  0  0  0  0  0  0  0  0  0
  195.8571  182.7748  152.2532 H   0  0  0  0  0  0  0  0  0  0  0  0
  199.9654  186.3077  149.8161 H   0  0  0  0  0  0  0  0  0  0  0  0
  199.6777  186.2867  147.4030 H   0  0  0  0  0  0  0  0  0  0  0  0
  197.8444  184.9560  146.3633 H   0  0  0  0  0  0  0  0  0  0  0  0
  196.3476  183.6076  147.7952 H   0  0  0  0  0  0  0  0  0  0  0  0
  194.4485  182.6307  157.1407 H   0  0  0  0  0  0  0  0  0  0  0  0
  1  2  1  0
  2  3  2  0
  2  7  1  0
  3  4  1  0
  3  8  1  0
  4  5  2  0
  5  6  1  0
  5 34  1  0
  6  7  2  0
  6 35  1  0
  7 36  1  0
  8  9  1  0
  8 37  1  6
  8 38  1  0
  9 10  2  0
  9 11  1  0
 11 12  1  0
 11 39  1  0
 12 13  2  0
 12 29  1  0
 13 14  1  0
 13 26  1  0
 14 15  1  0
 14 40  1  0
 15 16  1  0
 15 41  1  6
 15 42  1  0
 16 17  2  0
 16 21  1  0
 17 18  1  0
 17 43  1  0
 18 19  2  0
 18 22  1  0
 19 20  1  0
 19 44  1  0
 20 21  2  0
 20 45  1  0
 21 46  1  0
 22 23  1  0
 22 47  1  6
 22 48  1  0
 23 24  1  0
 23 25  1  0
 23 60  1  6
 24 49  1  1
 24 50  1  0
 24 51  1  0
 25 52  1  1
 25 53  1  0
 25 54  1  0
 26 27  2  0
 26 55  1  0
 27 28  1  0
 28 29  1  0
 28 33  2  0
 29 30  2  0
 30 31  1  0
 30 56  1  0
 31 32  2  0
 31 57  1  0
 32 33  1  0
 32 58  1  0
 33 59  1  0
M  CHG  1  23   1
M  END
>  <s_epik_cmdline>  (195) 
J2VwaWtfcHl0aG9uJywgJy1waCcsICc3LjAwMDAwMCcsICctcGh0JywgJzIuMDAwMDAwJywgJy1tcycsICcxNicsICctdG4nLCAnOCcsICctbWEnLCAnMjAwJywgJy1pbWFlJywgJzxpbmZpbGUubWFlPicsICctb21hZScsICc8b3V0ZmlsZS5tYWU+Jw==

>  <s_epik_input>  (195) 
W2NIXTFbY0hdW2NIXW5jKGMxQ2wpW0NIMl1DKD1PKVtOSF1jKGMoYzIzKVtjSF1bY0hdW2NIXVtjSF0zKWMoW2NIXW4yKVtOSF1bQ0gyXWM0W2NIXWMoW2NIXVtjSF1bY0hdNClbQ0gyXU4oW0NIM10pW0NIM10=

>  <s_i_glide_gridfile>  (195) 
ATP-Grid

>  <s_lp_Force_Field>  (195) 
OPLS_2005

>  <s_lp_Variant>  (195) 
rxn502b____EMOL43473091____EMOL13728749____EMOL2873214-1

>  <s_lp_label>  (195) 
2590_sdstereoexpander_1_neutralizer_1_epik_1_stereoizer_1

>  <s_m_source_file>  (195) 
ATP-VSW-LIGPREP-002-in.maegz

>  <s_sd_BIOSOLVEIT.INFINISEE\_QUERY\_NAME>  (195) 
Ref-Lig

>  <s_sd_BIOSOLVEIT.INFINISEE\_QUERY\_SMILES>  (195) 
S(c1nc2c(cc1C[NH2+]Cc3ccc(cc3)C[NH+](C)C)cccc2)Cc4ccccc4

>  <s_sd_BIOSOLVEIT.INFINISEE\_REACTION\_NAME>  (195) 
rxn502b

>  <s_sd_BIOSOLVEIT.INFINISEE\_REAGENT1\_NAME>  (195) 
EMOL43473091

>  <s_sd_BIOSOLVEIT.INFINISEE\_REAGENT1\_SMILES>  (195) 
Clc1c(nccc1)CC(=O)O

>  <s_sd_BIOSOLVEIT.INFINISEE\_REAGENT2\_NAME>  (195) 
EMOL13728749

>  <s_sd_BIOSOLVEIT.INFINISEE\_REAGENT2\_SMILES>  (195) 
Brc1c(N)c2c(nc1)cccc2

>  <s_sd_BIOSOLVEIT.INFINISEE\_REAGENT3\_NAME>  (195) 
EMOL2873214

>  <s_sd_BIOSOLVEIT.INFINISEE\_REAGENT3\_SMILES>  (195) 
N(Cc1cc(ccc1)CN)(C)C

>  <s_sd_BIOSOLVEIT.INFINISEE\_SPACE>  (195) 
eXplore_7tr_2022-12

>  <s_vsw_compound_code>  (195) 
82850

>  <s_vsw_variant>  (195) 
82850-1

>  <r_epik_Charging_Adjusted_Penalty>  (195) 
0.106474725446145

>  <r_epik_Ionization_Penalty>  (195) 
0.062399999999999997

>  <r_epik_Ionization_Penalty_Charging>  (195) 
0.0441

>  <r_epik_Ionization_Penalty_Neutral>  (195) 
0.0183

>  <r_epik_State_Penalty>  (195) 
0.062399999999999997

>  <r_i_docking_score>  (195) 
-4.0330264420281496

>  <r_i_glide_ecoul>  (195) 
-9.0209369659423793

>  <r_i_glide_eff_state_penalty>  (195) 
0.062399999999999997

>  <r_i_glide_einternal>  (195) 
2.6547393798828098

>  <r_i_glide_emodel>  (195) 
-53.616173879545002

>  <r_i_glide_energy>  (195) 
-39.938440322875998

>  <r_i_glide_erotb>  (195) 
0.66318972102634199

>  <r_i_glide_esite>  (195) 
-0.121121025335855

>  <r_i_glide_evdw>  (195) 
-30.917503356933601

>  <r_i_glide_gscore>  (195) 
-4.0954264420281499

>  <r_i_glide_hbond>  (195) 
-0.20000000000000001

>  <r_i_glide_ligand_efficiency>  (195) 
-0.12221292248570199

>  <r_i_glide_ligand_efficiency_ln>  (195) 
-0.89692419881371899

>  <r_i_glide_ligand_efficiency_sa>  (195) 
-0.39200214398512701

>  <r_i_glide_lipo>  (195) 
-1.27242156134424

>  <r_i_glide_metal>  (195) 
-0

>  <r_i_glide_rewards>  (195) 
-0.26605786363636302

>  <r_lp_Energy>  (195) 
33.049771

>  <r_qp_ACxDN^.5/SA>  (195) 
0.0143651

>  <r_qp_CIQPlogS>  (195) 
-5.7869999999999999

>  <r_qp_EA(eV)>  (195) 
0.81399999999999995

>  <r_qp_FISA>  (195) 
67.230000000000004

>  <r_qp_FOSA>  (195) 
208.88200000000001

>  <r_qp_IP(eV)>  (195) 
8.1530000000000005

>  <r_qp_Jm>  (195) 
0.0305611778006066

>  <r_qp_PISA>  (195) 
416.58800000000002

>  <r_qp_PSA>  (195) 
65.069999999999993

>  <r_qp_PercentHumanOralAbsorption>  (195) 
100

>  <r_qp_QPPCaco>  (195) 
569.19500000000005

>  <r_qp_QPPMDCK>  (195) 
529.45899999999995

>  <r_qp_QPlogBB>  (195) 
-0.078

>  <r_qp_QPlogHERG>  (195) 
-7.1909999999999998

>  <r_qp_QPlogKhsa>  (195) 
0.57599999999999996

>  <r_qp_QPlogKp>  (195) 
-2.5859999999999999

>  <r_qp_QPlogPC16>  (195) 
15.351000000000001

>  <r_qp_QPlogPo/w>  (195) 
4.4530000000000003

>  <r_qp_QPlogPoct>  (195) 
23.565000000000001

>  <r_qp_QPlogPw>  (195) 
13.355

>  <r_qp_QPlogS>  (195) 
-4.5919999999999996

>  <r_qp_QPpolrz>  (195) 
48.531999999999996

>  <r_qp_SASA>  (195) 
738.36099999999999

>  <r_qp_SAamideO>  (195) 
0

>  <r_qp_SAfluorine>  (195) 
0

>  <r_qp_WPSA>  (195) 
45.661999999999999

>  <r_qp_accptHB>  (195) 
7.5

>  <r_qp_dip^2/V>  (195) 
0.023005100000000001

>  <r_qp_dipole>  (195) 
5.6660000000000004

>  <r_qp_donorHB>  (195) 
2

>  <r_qp_glob>  (195) 
0.81789599999999996

>  <r_qp_mol_MW>  (195) 
459.97699999999998

>  <r_qp_volume>  (195) 
1395.413

>  <r_sd_BIOSOLVEIT.INFINISEE\_FTREES\_SIMILARITY>  (195) 
0.91100000000000003

>  <r_sd_BIOSOLVEIT.LOGP>  (195) 
3.7210000000000001

>  <r_sd_BIOSOLVEIT.MOLECULAR\_WEIGHT>  (195) 
460.98599999999999

>  <r_sd_BIOSOLVEIT.TPSA>  (195) 
71.349999999999994

>  <i_epik_Tot_Q>  (195) 
1

>  <i_epik_Tot_abs_Q>  (195) 
1

>  <i_f3d_flags>  (195) 
0

>  <i_i_glide_confnum>  (195) 
7

>  <i_i_glide_lignum>  (195) 
1168

>  <i_i_glide_posenum>  (195) 
8

>  <i_i_glide_rotatable_bonds>  (195) 
9

>  <i_lp_mmshare_version>  (195) 
65135

>  <i_m_ct_format>  (195) 
2

>  <i_m_source_file_index>  (195) 
2590

>  <i_qp_#NandO>  (195) 
6

>  <i_qp_#acid>  (195) 
0

>  <i_qp_#amide>  (195) 
0

>  <i_qp_#amidine>  (195) 
0

>  <i_qp_#amine>  (195) 
1

>  <i_qp_#in34>  (195) 
0

>  <i_qp_#in56>  (195) 
22

>  <i_qp_#metab>  (195) 
8

>  <i_qp_#nonHatm>  (195) 
33

>  <i_qp_#noncon>  (195) 
0

>  <i_qp_#ringatoms>  (195) 
22

>  <i_qp_#rotor>  (195) 
8

>  <i_qp_#rtvFG>  (195) 
0

>  <i_qp_#stars>  (195) 
0

>  <i_qp_CNS>  (195) 
1

>  <i_qp_HumanOralAbsorption>  (195) 
3

>  <i_qp_RuleOfFive>  (195) 
0

>  <i_qp_RuleOfThree>  (195) 
1

>  <i_sd_BIOSOLVEIT.INFINISEE\_RESULT\_RANK>  (195) 
40467

>  <i_sd_version>  (195) 
0

>  <b_lp_Chiralities_Consistent>  (195) 
1

>  <b_sd_chiral_flag>  (195) 
0

>  <canonical_id>  (195) 
ATP-HTVS-1E20B63FDE5F

>  <compound_code>  (195) 
82850

>  <title>  (195) 
rxn502b____EMOL43473091____EMOL13728749____EMOL2873214

>  <variant>  (195) 
82850-1

>  <source_file>  (195) 
运行/运行/ATP-VSW/ATP-VSW-DOCK_HTVS_1-002_lib.maegz

>  <canonical_smiles>  (195) 
C[NH+](C)Cc1cccc(CNc2cnc3ccccc3c2NC(=O)Cc2ncccc2Cl)c1

>  <scaffold>  (195) 
O=C(Cc1ccccn1)Nc1c(NCc2ccccc2)cnc2ccccc12

>  <molecular_formula>  (195) 
C26H27ClN5O+

$$$$
ATP-HTVS-1E475A4B97CE
     RDKit          3D

 63 66  0  0  0  0  0  0  0  0999 V2000
  197.4868  184.2170  155.9587 F   0  0  0  0  0  0  0  0  0  0  0  0
  197.3414  183.0270  155.3262 C   0  0  0  0  0  0  0  0  0  0  0  0
  196.8643  181.9057  156.0330 C   0  0  0  0  0  0  0  0  0  0  0  0
  196.7472  180.6786  155.3552 C   0  0  0  0  0  0  0  0  0  0  0  0
  197.0812  180.5667  153.9983 C   0  0  0  0  0  0  0  0  0  0  0  0
  197.5597  181.6792  153.2709 C   0  0  0  0  0  0  0  0  0  0  0  0
  197.9147  181.5550  151.8362 C   0  0  0  0  0  0  0  0  0  0  0  0
  198.7777  182.4771  151.3563 N   0  0  0  0  0  0  0  0  0  0  0  0
  199.1586  182.4502  150.0616 C   0  0  0  0  0  0  0  0  0  0  0  0
  198.6868  181.4614  149.1560 C   0  0  0  0  0  0  0  0  0  0  0  0
  197.8016  180.4640  149.6603 C   0  0  0  0  0  0  0  0  0  0  0  0
  197.3927  180.5418  151.0066 C   0  0  0  0  0  0  0  0  0  0  0  0
  197.2267  179.3606  148.8152 C   0  0  0  0  0  0  0  0  0  0  0  0
  196.0001  179.3062  148.6859 O   0  0  0  0  0  0  0  0  0  0  0  0
  198.0813  178.5019  148.2055 N   0  0  0  0  0  0  0  0  0  0  0  0
  199.4803  178.2885  148.6350 C   0  0  1  0  0  0  0  0  0  0  0  0
  199.6250  177.3735  149.8356 C   0  0  0  0  0  0  0  0  0  0  0  0
  200.6858  177.5966  150.7398 C   0  0  0  0  0  0  0  0  0  0  0  0
  200.8466  176.7538  151.8542 C   0  0  0  0  0  0  0  0  0  0  0  0
  199.9533  175.6869  152.0652 C   0  0  0  0  0  0  0  0  0  0  0  0
  198.8949  175.4619  151.1668 C   0  0  0  0  0  0  0  0  0  0  0  0
  198.7309  176.3017  150.0553 C   0  0  0  0  0  0  0  0  0  0  0  0
  197.6491  177.6226  147.1082 C   0  0  1  0  0  0  0  0  0  0  0  0
  197.9483  178.2460  145.7353 C   0  0  1  0  0  0  0  0  0  0  0  0
  199.2399  177.8398  145.3293 O   0  0  0  0  0  0  0  0  0  0  0  0
  199.1249  181.4926  147.8036 C   0  0  0  0  0  0  0  0  0  0  0  0
  200.0254  182.4680  147.3580 C   0  0  0  0  0  0  0  0  0  0  0  0
  200.4942  183.4465  148.2477 C   0  0  0  0  0  0  0  0  0  0  0  0
  200.0523  183.4330  149.5847 C   0  0  0  0  0  0  0  0  0  0  0  0
  197.6783  182.9097  153.9645 C   0  0  0  0  0  0  0  0  0  0  0  0
  196.5328  182.0032  157.5179 C   0  0  1  0  0  0  0  0  0  0  0  0
  195.1539  182.5240  157.7339 N   0  0  2  0  0  0  0  0  0  0  0  0
  195.1042  183.7580  158.5527 C   0  0  2  0  0  0  0  0  0  0  0  0
  194.1893  181.5061  158.2010 C   0  0  2  0  0  0  0  0  0  0  0  0
  196.3880  179.7982  155.8637 H   0  0  0  0  0  0  0  0  0  0  0  0
  196.9847  179.5931  153.5397 H   0  0  0  0  0  0  0  0  0  0  0  0
  196.6836  179.8154  151.3834 H   0  0  0  0  0  0  0  0  0  0  0  0
  200.0551  177.8761  147.8064 H   0  0  0  0  0  0  0  0  0  0  0  0
  200.0035  179.2105  148.8800 H   0  0  0  0  0  0  0  0  0  0  0  0
  201.3805  178.4100  150.5766 H   0  0  0  0  0  0  0  0  0  0  0  0
  201.6615  176.9214  152.5409 H   0  0  0  0  0  0  0  0  0  0  0  0
  200.0775  175.0386  152.9171 H   0  0  0  0  0  0  0  0  0  0  0  0
  198.2068  174.6439  151.3174 H   0  0  0  0  0  0  0  0  0  0  0  0
  197.9136  176.1002  149.3785 H   0  0  0  0  0  0  0  0  0  0  0  0
  198.0901  176.6290  147.1823 H   0  0  0  0  0  0  0  0  0  0  0  0
  196.5775  177.4417  147.1639 H   0  0  0  0  0  0  0  0  0  0  0  0
  197.2356  177.8648  145.0053 H   0  0  0  0  0  0  0  0  0  0  0  0
  197.8440  179.3322  145.7133 H   0  0  0  0  0  0  0  0  0  0  0  0
  199.2011  177.5515  144.4230 H   0  0  0  0  0  0  0  0  0  0  0  0
  198.8009  180.7657  147.0784 H   0  0  0  0  0  0  0  0  0  0  0  0
  200.3709  182.4455  146.3329 H   0  0  0  0  0  0  0  0  0  0  0  0
  201.1949  184.1954  147.9046 H   0  0  0  0  0  0  0  0  0  0  0  0
  200.4166  184.1791  150.2713 H   0  0  0  0  0  0  0  0  0  0  0  0
  198.0509  183.7838  153.4526 H   0  0  0  0  0  0  0  0  0  0  0  0
  196.6819  181.0395  158.0051 H   0  0  0  0  0  0  0  0  0  0  0  0
  197.2795  182.6565  157.9870 H   0  0  0  0  0  0  0  0  0  0  0  0
  195.3983  183.5496  159.5841 H   0  0  0  0  0  0  0  0  0  0  0  0
  194.0971  184.1780  158.5651 H   0  0  0  0  0  0  0  0  0  0  0  0
  195.7714  184.5258  158.1586 H   0  0  0  0  0  0  0  0  0  0  0  0
  194.4348  181.1634  159.2079 H   0  0  0  0  0  0  0  0  0  0  0  0
  194.1701  180.6543  157.5241 H   0  0  0  0  0  0  0  0  0  0  0  0
  193.1789  181.9170  158.2018 H   0  0  0  0  0  0  0  0  0  0  0  0
  194.7827  182.7580  156.8071 H   0  0  0  0  0  0  0  0  0  0  0  0
  1  2  1  0
  2  3  2  0
  2 30  1  0
  3  4  1  0
  3 31  1  0
  4  5  2  0
  4 35  1  0
  5  6  1  0
  5 36  1  0
  6  7  1  0
  6 30  2  0
  7  8  2  0
  7 12  1  0
  8  9  1  0
  9 10  1  0
  9 29  2  0
 10 11  1  0
 10 26  2  0
 11 12  2  0
 11 13  1  0
 12 37  1  0
 13 14  2  0
 13 15  1  0
 15 16  1  0
 15 23  1  0
 16 17  1  0
 16 38  1  6
 16 39  1  0
 17 18  2  0
 17 22  1  0
 18 19  1  0
 18 40  1  0
 19 20  2  0
 19 41  1  0
 20 21  1  0
 20 42  1  0
 21 22  2  0
 21 43  1  0
 22 44  1  0
 23 24  1  0
 23 45  1  6
 23 46  1  0
 24 25  1  0
 24 47  1  6
 24 48  1  0
 25 49  1  0
 26 27  1  0
 26 50  1  0
 27 28  2  0
 27 51  1  0
 28 29  1  0
 28 52  1  0
 29 53  1  0
 30 54  1  0
 31 32  1  0
 31 55  1  1
 31 56  1  0
 32 33  1  0
 32 34  1  0
 32 63  1  6
 33 57  1  1
 33 58  1  0
 33 59  1  0
 34 60  1  1
 34 61  1  0
 34 62  1  0
M  CHG  1  32   1
M  END
>  <s_epik_cmdline>  (196) 
J2VwaWtfcHl0aG9uJywgJy1waCcsICc3LjAwMDAwMCcsICctcGh0JywgJzIuMDAwMDAwJywgJy1tcycsICcxNicsICctdG4nLCAnOCcsICctbWEnLCAnMjAwJywgJy1pbWFlJywgJzxpbmZpbGUubWFlPicsICctb21hZScsICc8b3V0ZmlsZS5tYWU+Jw==

>  <s_epik_input>  (196) 
W0NIM11OKFtDSDNdKVtDSDJdYyhjMUYpW2NIXVtjSF1jKFtjSF0xKS1jKG4yKVtjSF1jKGMoYzIzKVtjSF1bY0hdW2NIXVtjSF0zKUMoPU8pTihbQ0gyXVtDSDJdW09IXSlbQ0gyXWM0W2NIXVtjSF1bY0hdW2NIXVtjSF00

>  <s_i_glide_gridfile>  (196) 
ATP-Grid

>  <s_lp_Force_Field>  (196) 
OPLS_2005

>  <s_lp_Variant>  (196) 
WXDL_14____AN0004____LN00173385____BT9925-1

>  <s_lp_label>  (196) 
638_sdstereoexpander_1_neutralizer_1_epik_1_stereoizer_1

>  <s_m_source_file>  (196) 
ATP-VSW-LIGPREP-003-in.maegz

>  <s_sd_BIOSOLVEIT.INFINISEE\_QUERY\_NAME>  (196) 
Ref-Lig

>  <s_sd_BIOSOLVEIT.INFINISEE\_QUERY\_SMILES>  (196) 
S(c1nc2c(cc1C[NH2+]Cc3ccc(cc3)C[NH+](C)C)cccc2)Cc4ccccc4

>  <s_sd_BIOSOLVEIT.INFINISEE\_REACTION\_NAME>  (196) 
WXDL_14

>  <s_sd_BIOSOLVEIT.INFINISEE\_REAGENT1\_NAME>  (196) 
AN0004

>  <s_sd_BIOSOLVEIT.INFINISEE\_REAGENT1\_SMILES>  (196) 
OCCNCc1ccccc1

>  <s_sd_BIOSOLVEIT.INFINISEE\_REAGENT2\_NAME>  (196) 
LN00173385

>  <s_sd_BIOSOLVEIT.INFINISEE\_REAGENT2\_SMILES>  (196) 
Brc1nc2c(c(c1)C(=O)O)cccc2

>  <s_sd_BIOSOLVEIT.INFINISEE\_REAGENT3\_NAME>  (196) 
BT9925

>  <s_sd_BIOSOLVEIT.INFINISEE\_REAGENT3\_SMILES>  (196) 
Fc1c(ccc(c1)B(O)O)CN(C)C

>  <s_sd_BIOSOLVEIT.INFINISEE\_SPACE>  (196) 
GalaXi_12bn_2023-03

>  <s_vsw_compound_code>  (196) 
20387

>  <s_vsw_variant>  (196) 
20387-1

>  <r_epik_Charging_Adjusted_Penalty>  (196) 
0.10781771903029801

>  <r_epik_Ionization_Penalty>  (196) 
0.053900000000000003

>  <r_epik_Ionization_Penalty_Charging>  (196) 
0.053900000000000003

>  <r_epik_Ionization_Penalty_Neutral>  (196) 
0

>  <r_epik_State_Penalty>  (196) 
0.053900000000000003

>  <r_i_docking_score>  (196) 
-4.2782661590725803

>  <r_i_glide_ecoul>  (196) 
-11.3628702163696

>  <r_i_glide_eff_state_penalty>  (196) 
0.053900000000000003

>  <r_i_glide_einternal>  (196) 
9.3090229034423793

>  <r_i_glide_emodel>  (196) 
-54.532705549322301

>  <r_i_glide_energy>  (196) 
-41.879145622253397

>  <r_i_glide_erotb>  (196) 
0.66960742893293101

>  <r_i_glide_esite>  (196) 
-0.098330578420993395

>  <r_i_glide_evdw>  (196) 
-30.5162754058838

>  <r_i_glide_gscore>  (196) 
-4.33216615907258

>  <r_i_glide_hbond>  (196) 
-0.35999999999999999

>  <r_i_glide_ligand_efficiency>  (196) 
-0.12583135761978201

>  <r_i_glide_ligand_efficiency_ln>  (196) 
-0.94518899584018001

>  <r_i_glide_ligand_efficiency_sa>  (196) 
-0.40764475063664501

>  <r_i_glide_lipo>  (196) 
-0.88268955805263105

>  <r_i_glide_metal>  (196) 
-0

>  <r_i_glide_rewards>  (196) 
-0.43050914878225399

>  <r_lp_Energy>  (196) 
35.767766999999999

>  <r_qp_ACxDN^.5/SA>  (196) 
0.0101601

>  <r_qp_CIQPlogS>  (196) 
-5.6959999999999997

>  <r_qp_EA(eV)>  (196) 
1.2549999999999999

>  <r_qp_FISA>  (196) 
98.358999999999995

>  <r_qp_FOSA>  (196) 
265.12099999999998

>  <r_qp_IP(eV)>  (196) 
9.0139999999999993

>  <r_qp_Jm>  (196) 
0.0065771789342451399

>  <r_qp_PISA>  (196) 
365.89699999999999

>  <r_qp_PSA>  (196) 
62.908000000000001

>  <r_qp_PercentHumanOralAbsorption>  (196) 
96.227999999999994

>  <r_qp_QPPCaco>  (196) 
288.44299999999998

>  <r_qp_QPPMDCK>  (196) 
204.499

>  <r_qp_QPlogBB>  (196) 
-0.51600000000000001

>  <r_qp_QPlogHERG>  (196) 
-7.117

>  <r_qp_QPlogKhsa>  (196) 
0.56499999999999995

>  <r_qp_QPlogKp>  (196) 
-3.242

>  <r_qp_QPlogPC16>  (196) 
14.766

>  <r_qp_QPlogPo/w>  (196) 
4.3129999999999997

>  <r_qp_QPlogPoct>  (196) 
22.128

>  <r_qp_QPlogPw>  (196) 
11.775

>  <r_qp_QPlogS>  (196) 
-4.601

>  <r_qp_QPpolrz>  (196) 
48.533000000000001

>  <r_qp_SASA>  (196) 
757.86800000000005

>  <r_qp_SAamideO>  (196) 
0

>  <r_qp_SAfluorine>  (196) 
28.491

>  <r_qp_WPSA>  (196) 
28.491

>  <r_qp_accptHB>  (196) 
7.7000000000000002

>  <r_qp_dip^2/V>  (196) 
0.0223228

>  <r_qp_dipole>  (196) 
5.6369999999999996

>  <r_qp_donorHB>  (196) 
1

>  <r_qp_glob>  (196) 
0.80753010000000003

>  <r_qp_mol_MW>  (196) 
457.54599999999999

>  <r_qp_volume>  (196) 
1423.577

>  <r_sd_BIOSOLVEIT.INFINISEE\_FTREES\_SIMILARITY>  (196) 
0.90400000000000003

>  <r_sd_BIOSOLVEIT.LOGP>  (196) 
3.3201000000000001

>  <r_sd_BIOSOLVEIT.MOLECULAR\_WEIGHT>  (196) 
458.55399999999997

>  <r_sd_BIOSOLVEIT.TPSA>  (196) 
57.869999999999997

>  <i_epik_Tot_Q>  (196) 
1

>  <i_epik_Tot_abs_Q>  (196) 
1

>  <i_f3d_flags>  (196) 
0

>  <i_i_glide_confnum>  (196) 
10

>  <i_i_glide_lignum>  (196) 
265

>  <i_i_glide_posenum>  (196) 
5

>  <i_i_glide_rotatable_bonds>  (196) 
10

>  <i_lp_mmshare_version>  (196) 
65135

>  <i_m_ct_format>  (196) 
2

>  <i_m_source_file_index>  (196) 
638

>  <i_qp_#NandO>  (196) 
5

>  <i_qp_#acid>  (196) 
0

>  <i_qp_#amide>  (196) 
0

>  <i_qp_#amidine>  (196) 
0

>  <i_qp_#amine>  (196) 
1

>  <i_qp_#in34>  (196) 
0

>  <i_qp_#in56>  (196) 
22

>  <i_qp_#metab>  (196) 
4

>  <i_qp_#nonHatm>  (196) 
34

>  <i_qp_#noncon>  (196) 
0

>  <i_qp_#ringatoms>  (196) 
22

>  <i_qp_#rotor>  (196) 
9

>  <i_qp_#rtvFG>  (196) 
0

>  <i_qp_#stars>  (196) 
0

>  <i_qp_CNS>  (196) 
1

>  <i_qp_HumanOralAbsorption>  (196) 
3

>  <i_qp_RuleOfFive>  (196) 
0

>  <i_qp_RuleOfThree>  (196) 
0

>  <i_sd_BIOSOLVEIT.INFINISEE\_RESULT\_RANK>  (196) 
78303

>  <i_sd_version>  (196) 
0

>  <b_lp_Chiralities_Consistent>  (196) 
1

>  <b_sd_chiral_flag>  (196) 
0

>  <canonical_id>  (196) 
ATP-HTVS-1E475A4B97CE

>  <compound_code>  (196) 
20387

>  <title>  (196) 
WXDL_14____AN0004____LN00173385____BT9925

>  <variant>  (196) 
20387-1

>  <source_file>  (196) 
运行/运行/ATP-VSW/ATP-VSW-DOCK_HTVS_1-003_lib/ATP-VSW-DOCK_HTVS_1-003_lib.mae

>  <canonical_smiles>  (196) 
C[NH+](C)Cc1ccc(-c2cc(C(=O)N(CCO)Cc3ccccc3)c3ccccc3n2)cc1F

>  <scaffold>  (196) 
O=C(NCc1ccccc1)c1cc(-c2ccccc2)nc2ccccc12

>  <molecular_formula>  (196) 
C28H29FN3O2+

$$$$
ATP-HTVS-1E5A6A308B25
     RDKit          3D

 55 57  0  0  0  0  0  0  0  0999 V2000
  200.4626  184.9750  149.8672 F   0  0  0  0  0  0  0  0  0  0  0  0
  200.0560  185.3548  148.6216 C   0  0  0  0  0  0  0  0  0  0  0  0
  198.8989  184.7851  148.0420 C   0  0  0  0  0  0  0  0  0  0  0  0
  198.4410  185.2595  146.7970 C   0  0  0  0  0  0  0  0  0  0  0  0
  199.1676  186.2404  146.0947 C   0  0  0  0  0  0  0  0  0  0  0  0
  200.3575  186.7556  146.6438 C   0  0  0  0  0  0  0  0  0  0  0  0
  200.7994  186.3161  147.9040 C   0  0  0  0  0  0  0  0  0  0  0  0
  198.1011  183.7228  148.7408 C   0  0  0  0  0  0  0  0  0  0  0  0
  196.8930  183.9173  148.8362 O   0  0  0  0  0  0  0  0  0  0  0  0
  198.7090  182.5833  149.1670 N   0  0  0  0  0  0  0  0  0  0  0  0
  197.9330  181.5133  149.7025 C   0  0  0  0  0  0  0  0  0  0  0  0
  197.1563  181.6501  150.8885 C   0  0  0  0  0  0  0  0  0  0  0  0
  197.1261  182.8567  151.5947 N   0  0  0  0  0  0  0  0  0  0  0  0
  196.7401  182.9138  152.9997 C   0  0  1  0  0  0  0  0  0  0  0  0
  197.5807  182.0647  153.9456 C   0  0  0  0  0  0  0  0  0  0  0  0
  197.0330  181.6669  155.1866 C   0  0  0  0  0  0  0  0  0  0  0  0
  197.7880  180.8785  156.0726 C   0  0  0  0  0  0  0  0  0  0  0  0
  199.0985  180.4716  155.7201 C   0  0  0  0  0  0  0  0  0  0  0  0
  199.6447  180.8731  154.4891 C   0  0  0  0  0  0  0  0  0  0  0  0
  198.8898  181.6736  153.6053 C   0  0  0  0  0  0  0  0  0  0  0  0
  199.9052  179.5758  156.6359 C   0  0  1  0  0  0  0  0  0  0  0  0
  199.5024  178.1390  156.5346 N   0  0  1  0  0  0  0  0  0  0  0  0
  199.5241  177.6414  155.1248 C   0  0  2  0  0  0  0  0  0  0  0  0
  200.3589  177.2842  157.3964 C   0  0  2  0  0  0  0  0  0  0  0  0
  196.4427  180.5064  151.3344 C   0  0  0  0  0  0  0  0  0  0  0  0
  196.4440  179.3185  150.6926 N   0  0  0  0  0  0  0  0  0  0  0  0
  197.1799  179.2083  149.5724 C   0  0  0  0  0  0  0  0  0  0  0  0
  197.9458  180.2635  149.0471 C   0  0  0  0  0  0  0  0  0  0  0  0
  200.1346  182.3031  148.9572 C   0  0  2  0  0  0  0  0  0  0  0  0
  197.5267  184.8656  146.3767 H   0  0  0  0  0  0  0  0  0  0  0  0
  198.7949  186.6088  145.1472 H   0  0  0  0  0  0  0  0  0  0  0  0
  200.9131  187.5040  146.0993 H   0  0  0  0  0  0  0  0  0  0  0  0
  201.7121  186.7098  148.3231 H   0  0  0  0  0  0  0  0  0  0  0  0
  197.6257  183.6537  151.2295 H   0  0  0  0  0  0  0  0  0  0  0  0
  196.7900  183.9501  153.3320 H   0  0  0  0  0  0  0  0  0  0  0  0
  195.7034  182.6018  153.0616 H   0  0  0  0  0  0  0  0  0  0  0  0
  196.0235  181.9568  155.4508 H   0  0  0  0  0  0  0  0  0  0  0  0
  197.3482  180.5622  157.0060 H   0  0  0  0  0  0  0  0  0  0  0  0
  200.6289  180.5510  154.1833 H   0  0  0  0  0  0  0  0  0  0  0  0
  199.3312  181.9474  152.6630 H   0  0  0  0  0  0  0  0  0  0  0  0
  200.9640  179.6951  156.4041 H   0  0  0  0  0  0  0  0  0  0  0  0
  199.7816  179.9067  157.6664 H   0  0  0  0  0  0  0  0  0  0  0  0
  200.5193  177.7155  154.6854 H   0  0  0  0  0  0  0  0  0  0  0  0
  198.8310  178.1881  154.4860 H   0  0  0  0  0  0  0  0  0  0  0  0
  199.2152  176.5930  155.0884 H   0  0  0  0  0  0  0  0  0  0  0  0
  201.4153  177.3529  157.1352 H   0  0  0  0  0  0  0  0  0  0  0  0
  200.0632  176.2353  157.3136 H   0  0  0  0  0  0  0  0  0  0  0  0
  200.2504  177.5851  158.4417 H   0  0  0  0  0  0  0  0  0  0  0  0
  195.8470  180.5260  152.2368 H   0  0  0  0  0  0  0  0  0  0  0  0
  197.1570  178.2490  149.0750 H   0  0  0  0  0  0  0  0  0  0  0  0
  198.5106  180.1156  148.1393 H   0  0  0  0  0  0  0  0  0  0  0  0
  200.3958  181.2494  149.1166 H   0  0  0  0  0  0  0  0  0  0  0  0
  200.7368  182.9056  149.6582 H   0  0  0  0  0  0  0  0  0  0  0  0
  200.4626  182.5394  147.9491 H   0  0  0  0  0  0  0  0  0  0  0  0
  198.5909  178.0628  156.9008 H   0  0  0  0  0  0  0  0  0  0  0  0
  1  2  1  0
  2  3  1  0
  2  7  2  0
  3  4  2  0
  3  8  1  0
  4  5  1  0
  4 30  1  0
  5  6  2  0
  5 31  1  0
  6  7  1  0
  6 32  1  0
  7 33  1  0
  8  9  2  0
  8 10  1  0
 10 11  1  0
 10 29  1  0
 11 12  1  0
 11 28  2  0
 12 13  1  0
 12 25  2  0
 13 14  1  0
 13 34  1  0
 14 15  1  0
 14 35  1  1
 14 36  1  0
 15 16  1  0
 15 20  2  0
 16 17  2  0
 16 37  1  0
 17 18  1  0
 17 38  1  0
 18 19  2  0
 18 21  1  0
 19 20  1  0
 19 39  1  0
 20 40  1  0
 21 22  1  0
 21 41  1  6
 21 42  1  0
 22 23  1  0
 22 24  1  0
 22 55  1  1
 23 43  1  6
 23 44  1  0
 23 45  1  0
 24 46  1  6
 24 47  1  0
 24 48  1  0
 25 26  1  0
 25 49  1  0
 26 27  2  0
 27 28  1  0
 27 50  1  0
 28 51  1  0
 29 52  1  1
 29 53  1  0
 29 54  1  0
M  CHG  1  22   1
M  END
>  <s_epik_cmdline>  (197) 
J2VwaWtfcHl0aG9uJywgJy1waCcsICc3LjAwMDAwMCcsICctcGh0JywgJzIuMDAwMDAwJywgJy1tcycsICcxNicsICctdG4nLCAnOCcsICctbWEnLCAnMjAwJywgJy1pbWFlJywgJzxpbmZpbGUubWFlPicsICctb21hZScsICc8b3V0ZmlsZS5tYWU+Jw==

>  <s_epik_input>  (197) 
W2NIXTFbY0hdW2NIXVtjSF1jKGMxRilDKD1PKU4oW0NIM10pYzJjKFtjSF1uW2NIXVtjSF0yKVtOSF1bQ0gyXWMzW2NIXVtjSF1jKFtjSF1bY0hdMylbQ0gyXU4oW0NIM10pW0NIM10=

>  <s_i_glide_gridfile>  (197) 
ATP-Grid

>  <s_lp_Force_Field>  (197) 
OPLS_2005

>  <s_lp_Variant>  (197) 
rxn502a____EMOL505868____EMOL81846330____EMOL50155899-1

>  <s_lp_label>  (197) 
2716_sdstereoexpander_1_neutralizer_1_epik_1_stereoizer_1

>  <s_m_source_file>  (197) 
ATP-VSW-LIGPREP-001-in.maegz

>  <s_sd_BIOSOLVEIT.INFINISEE\_QUERY\_NAME>  (197) 
Ref-Lig

>  <s_sd_BIOSOLVEIT.INFINISEE\_QUERY\_SMILES>  (197) 
S(c1nc2c(cc1C[NH2+]Cc3ccc(cc3)C[NH+](C)C)cccc2)Cc4ccccc4

>  <s_sd_BIOSOLVEIT.INFINISEE\_REACTION\_NAME>  (197) 
rxn502a

>  <s_sd_BIOSOLVEIT.INFINISEE\_REAGENT1\_NAME>  (197) 
EMOL505868

>  <s_sd_BIOSOLVEIT.INFINISEE\_REAGENT1\_SMILES>  (197) 
Fc1c(cccc1)C(=O)O

>  <s_sd_BIOSOLVEIT.INFINISEE\_REAGENT2\_NAME>  (197) 
EMOL81846330

>  <s_sd_BIOSOLVEIT.INFINISEE\_REAGENT2\_SMILES>  (197) 
Ic1c(NC)ccnc1

>  <s_sd_BIOSOLVEIT.INFINISEE\_REAGENT3\_NAME>  (197) 
EMOL50155899

>  <s_sd_BIOSOLVEIT.INFINISEE\_REAGENT3\_SMILES>  (197) 
N(Cc1ccc(cc1)CN)(C)C

>  <s_sd_BIOSOLVEIT.INFINISEE\_SPACE>  (197) 
eXplore_7tr_2022-12

>  <s_vsw_compound_code>  (197) 
86881

>  <s_vsw_variant>  (197) 
86881-1

>  <r_epik_Charging_Adjusted_Penalty>  (197) 
0.12545385685465399

>  <r_epik_Ionization_Penalty>  (197) 
0.086300000000000002

>  <r_epik_Ionization_Penalty_Charging>  (197) 
0.039199999999999999

>  <r_epik_Ionization_Penalty_Neutral>  (197) 
0.047

>  <r_epik_State_Penalty>  (197) 
0.086199999999999999

>  <r_i_docking_score>  (197) 
-3.79637454853526

>  <r_i_glide_ecoul>  (197) 
-8.2341222763061506

>  <r_i_glide_eff_state_penalty>  (197) 
0.086199999999999999

>  <r_i_glide_einternal>  (197) 
2.95921730995178

>  <r_i_glide_emodel>  (197) 
-46.365336019782902

>  <r_i_glide_energy>  (197) 
-34.907208442688002

>  <r_i_glide_erotb>  (197) 
0.88323764948961403

>  <r_i_glide_esite>  (197) 
-0.103735563503523

>  <r_i_glide_evdw>  (197) 
-26.6730861663818

>  <r_i_glide_gscore>  (197) 
-3.8825745485352599

>  <r_i_glide_hbond>  (197) 
-0.20000000000000001

>  <r_i_glide_ligand_efficiency>  (197) 
-0.13090946719087099

>  <r_i_glide_ligand_efficiency_ln>  (197) 
-0.86927350386223201

>  <r_i_glide_ligand_efficiency_sa>  (197) 
-0.40219535824064501

>  <r_i_glide_lipo>  (197) 
-0.98018151352487404

>  <r_i_glide_metal>  (197) 
-0

>  <r_i_glide_rewards>  (197) 
-0.91312247123145895

>  <r_lp_Energy>  (197) 
43.911805000000001

>  <r_lp_tautomer_probability>  (197) 
0.999999999999999

>  <r_qp_ACxDN^.5/SA>  (197) 
0.0102261

>  <r_qp_CIQPlogS>  (197) 
-4.2229999999999999

>  <r_qp_EA(eV)>  (197) 
0.48499999999999999

>  <r_qp_FISA>  (197) 
65.512

>  <r_qp_FOSA>  (197) 
253.893

>  <r_qp_IP(eV)>  (197) 
8.3480000000000008

>  <r_qp_Jm>  (197) 
0.018525786659837399

>  <r_qp_PISA>  (197) 
386.46300000000002

>  <r_qp_PSA>  (197) 
54.622999999999998

>  <r_qp_PercentHumanOralAbsorption>  (197) 
100

>  <r_qp_QPPCaco>  (197) 
590.94399999999996

>  <r_qp_QPPMDCK>  (197) 
438.73099999999999

>  <r_qp_QPlogBB>  (197) 
-0.089999999999999997

>  <r_qp_QPlogHERG>  (197) 
-7.4850000000000003

>  <r_qp_QPlogKhsa>  (197) 
0.38700000000000001

>  <r_qp_QPlogKp>  (197) 
-2.7559999999999998

>  <r_qp_QPlogPC16>  (197) 
13.731

>  <r_qp_QPlogPo/w>  (197) 
3.944

>  <r_qp_QPlogPoct>  (197) 
21.373999999999999

>  <r_qp_QPlogPw>  (197) 
11.875999999999999

>  <r_qp_QPlogS>  (197) 
-4.5700000000000003

>  <r_qp_QPpolrz>  (197) 
45.613

>  <r_qp_SASA>  (197) 
733.41600000000005

>  <r_qp_SAamideO>  (197) 
0

>  <r_qp_SAfluorine>  (197) 
27.547000000000001

>  <r_qp_WPSA>  (197) 
27.547000000000001

>  <r_qp_accptHB>  (197) 
7.5

>  <r_qp_dip^2/V>  (197) 
0.063141500000000003

>  <r_qp_dipole>  (197) 
9.1069999999999993

>  <r_qp_donorHB>  (197) 
1

>  <r_qp_glob>  (197) 
0.79090629999999995

>  <r_qp_mol_MW>  (197) 
392.47500000000002

>  <r_qp_volume>  (197) 
1313.606

>  <r_sd_BIOSOLVEIT.INFINISEE\_FTREES\_SIMILARITY>  (197) 
0.90800000000000003

>  <r_sd_BIOSOLVEIT.LOGP>  (197) 
2.7538999999999998

>  <r_sd_BIOSOLVEIT.MOLECULAR\_WEIGHT>  (197) 
393.483

>  <r_sd_BIOSOLVEIT.TPSA>  (197) 
49.670000000000002

>  <i_epik_Tot_Q>  (197) 
1

>  <i_epik_Tot_abs_Q>  (197) 
1

>  <i_f3d_flags>  (197) 
0

>  <i_i_glide_confnum>  (197) 
3

>  <i_i_glide_lignum>  (197) 
1208

>  <i_i_glide_posenum>  (197) 
12

>  <i_i_glide_rotatable_bonds>  (197) 
8

>  <i_lp_mmshare_version>  (197) 
65135

>  <i_m_ct_format>  (197) 
2

>  <i_m_source_file_index>  (197) 
2716

>  <i_qp_#NandO>  (197) 
5

>  <i_qp_#acid>  (197) 
0

>  <i_qp_#amide>  (197) 
0

>  <i_qp_#amidine>  (197) 
0

>  <i_qp_#amine>  (197) 
1

>  <i_qp_#in34>  (197) 
0

>  <i_qp_#in56>  (197) 
18

>  <i_qp_#metab>  (197) 
8

>  <i_qp_#nonHatm>  (197) 
29

>  <i_qp_#noncon>  (197) 
0

>  <i_qp_#ringatoms>  (197) 
18

>  <i_qp_#rotor>  (197) 
7

>  <i_qp_#rtvFG>  (197) 
0

>  <i_qp_#stars>  (197) 
0

>  <i_qp_CNS>  (197) 
1

>  <i_qp_HumanOralAbsorption>  (197) 
3

>  <i_qp_RuleOfFive>  (197) 
0

>  <i_qp_RuleOfThree>  (197) 
1

>  <i_sd_BIOSOLVEIT.INFINISEE\_RESULT\_RANK>  (197) 
54349

>  <i_sd_version>  (197) 
0

>  <b_lp_Chiralities_Consistent>  (197) 
1

>  <b_sd_chiral_flag>  (197) 
0

>  <canonical_id>  (197) 
ATP-HTVS-1E5A6A308B25

>  <compound_code>  (197) 
86881

>  <title>  (197) 
rxn502a____EMOL505868____EMOL81846330____EMOL50155899

>  <variant>  (197) 
86881-1

>  <source_file>  (197) 
运行/运行/ATP-VSW/ATP-VSW-DOCK_HTVS_1-001_lib/ATP-VSW-DOCK_HTVS_1-001_lib

>  <canonical_smiles>  (197) 
CN(C(=O)c1ccccc1F)c1ccncc1NCc1ccc(C[NH+](C)C)cc1

>  <scaffold>  (197) 
O=C(Nc1ccncc1NCc1ccccc1)c1ccccc1

>  <molecular_formula>  (197) 
C23H26FN4O+

$$$$
ATP-HTVS-1EBFDE0160CD
     RDKit          3D

 63 66  0  0  0  0  0  0  0  0999 V2000
  201.9335  179.0454  156.3425 O   0  0  0  0  0  0  0  0  0  0  0  0
  200.9195  178.4410  155.9987 C   0  0  0  0  0  0  0  0  0  0  0  0
  199.6707  178.9460  155.9794 N   0  0  0  0  0  0  0  0  0  0  0  0
  199.3105  180.3056  156.1609 C   0  0  0  0  0  0  0  0  0  0  0  0
  200.0815  181.1902  156.9388 C   0  0  0  0  0  0  0  0  0  0  0  0
  199.7301  182.5418  157.1262 C   0  0  0  0  0  0  0  0  0  0  0  0
  200.6191  183.3595  157.9700 C   0  0  0  0  0  0  0  0  0  0  0  0
  201.0530  182.8889  159.2326 C   0  0  0  0  0  0  0  0  0  0  0  0
  201.8857  183.6658  160.0605 C   0  0  0  0  0  0  0  0  0  0  0  0
  202.3071  183.1694  161.2630 O   0  0  0  0  0  0  0  0  0  0  0  0
  202.2817  184.9498  159.6459 C   0  0  0  0  0  0  0  0  0  0  0  0
  201.8820  185.4210  158.3770 C   0  0  0  0  0  0  0  0  0  0  0  0
  201.0991  184.6132  157.5303 C   0  0  0  0  0  0  0  0  0  0  0  0
  198.5364  183.0308  156.5260 C   0  0  0  0  0  0  0  0  0  0  0  0
  197.7538  182.1364  155.7383 C   0  0  0  0  0  0  0  0  0  0  0  0
  198.1274  180.7842  155.5621 C   0  0  0  0  0  0  0  0  0  0  0  0
  198.0678  184.4823  156.7422 C   0  0  1  0  0  0  0  0  0  0  0  0
  197.5586  185.0728  155.4898 C   0  0  0  0  0  0  0  0  0  0  0  0
  197.1670  185.5193  154.4965 N   0  0  0  0  0  0  0  0  0  0  0  0
  197.0843  184.6165  157.9021 C   0  0  0  0  0  0  0  0  0  0  0  0
  195.9877  183.7297  158.0570 C   0  0  0  0  0  0  0  0  0  0  0  0
  195.0911  183.8931  159.1294 C   0  0  0  0  0  0  0  0  0  0  0  0
  195.2906  184.9421  160.0529 C   0  0  0  0  0  0  0  0  0  0  0  0
  196.3891  185.8128  159.9200 C   0  0  0  0  0  0  0  0  0  0  0  0
  197.2835  185.6446  158.8498 C   0  0  0  0  0  0  0  0  0  0  0  0
  201.0267  177.0261  155.5499 C   0  0  0  0  0  0  0  0  0  0  0  0
  200.5638  176.6585  154.2685 C   0  0  0  0  0  0  0  0  0  0  0  0
  200.7631  175.3443  153.7991 C   0  0  0  0  0  0  0  0  0  0  0  0
  201.3689  174.3765  154.6172 C   0  0  0  0  0  0  0  0  0  0  0  0
  201.8203  174.7567  155.9008 C   0  0  0  0  0  0  0  0  0  0  0  0
  201.6702  176.0745  156.3605 C   0  0  0  0  0  0  0  0  0  0  0  0
  201.5615  172.9406  154.1321 C   0  0  1  0  0  0  0  0  0  0  0  0
  202.9448  172.6428  153.6680 N   0  0  1  0  0  0  0  0  0  0  0  0
  203.2336  173.2252  152.3388 C   0  0  2  0  0  0  0  0  0  0  0  0
  204.0049  172.9895  154.6469 C   0  0  2  0  0  0  0  0  0  0  0  0
  198.9237  178.3078  155.7403 H   0  0  0  0  0  0  0  0  0  0  0  0
  200.9616  180.8515  157.4649 H   0  0  0  0  0  0  0  0  0  0  0  0
  200.7452  181.9117  159.5809 H   0  0  0  0  0  0  0  0  0  0  0  0
  202.7245  183.8219  161.8025 H   0  0  0  0  0  0  0  0  0  0  0  0
  202.8966  185.5797  160.2822 H   0  0  0  0  0  0  0  0  0  0  0  0
  202.1781  186.4056  158.0455 H   0  0  0  0  0  0  0  0  0  0  0  0
  200.8370  184.9607  156.5334 H   0  0  0  0  0  0  0  0  0  0  0  0
  196.8370  182.4728  155.2740 H   0  0  0  0  0  0  0  0  0  0  0  0
  197.4941  180.1054  154.9951 H   0  0  0  0  0  0  0  0  0  0  0  0
  198.8880  185.1226  156.9792 H   0  0  0  0  0  0  0  0  0  0  0  0
  195.8050  182.9337  157.3492 H   0  0  0  0  0  0  0  0  0  0  0  0
  194.2497  183.2176  159.2128 H   0  0  0  0  0  0  0  0  0  0  0  0
  194.5913  185.0815  160.8626 H   0  0  0  0  0  0  0  0  0  0  0  0
  196.5461  186.6170  160.6276 H   0  0  0  0  0  0  0  0  0  0  0  0
  198.1254  186.3147  158.7465 H   0  0  0  0  0  0  0  0  0  0  0  0
  200.1107  177.4030  153.6295 H   0  0  0  0  0  0  0  0  0  0  0  0
  200.3941  175.0831  152.8081 H   0  0  0  0  0  0  0  0  0  0  0  0
  202.3129  174.0362  156.5328 H   0  0  0  0  0  0  0  0  0  0  0  0
  202.0912  176.3682  157.3149 H   0  0  0  0  0  0  0  0  0  0  0  0
  201.3009  172.2545  154.9385 H   0  0  0  0  0  0  0  0  0  0  0  0
  200.8484  172.7300  153.3284 H   0  0  0  0  0  0  0  0  0  0  0  0
  203.1494  174.3131  152.3609 H   0  0  0  0  0  0  0  0  0  0  0  0
  202.5450  172.8518  151.5821 H   0  0  0  0  0  0  0  0  0  0  0  0
  204.2479  172.9851  152.0249 H   0  0  0  0  0  0  0  0  0  0  0  0
  204.0771  174.0677  154.8038 H   0  0  0  0  0  0  0  0  0  0  0  0
  204.9888  172.6579  154.3138 H   0  0  0  0  0  0  0  0  0  0  0  0
  203.7974  172.5072  155.6022 H   0  0  0  0  0  0  0  0  0  0  0  0
  202.9941  171.6155  153.6076 H   0  0  0  0  0  0  0  0  0  0  0  0
  1  2  2  0
  2  3  1  0
  2 26  1  0
  3  4  1  0
  3 36  1  0
  4  5  2  0
  4 16  1  0
  5  6  1  0
  5 37  1  0
  6  7  1  0
  6 14  2  0
  7  8  1  0
  7 13  2  0
  8  9  2  0
  8 38  1  0
  9 10  1  0
  9 11  1  0
 10 39  1  0
 11 12  2  0
 11 40  1  0
 12 13  1  0
 12 41  1  0
 13 42  1  0
 14 15  1  0
 14 17  1  0
 15 16  2  0
 15 43  1  0
 16 44  1  0
 17 18  1  0
 17 20  1  0
 17 45  1  1
 18 19  3  0
 20 21  2  0
 20 25  1  0
 21 22  1  0
 21 46  1  0
 22 23  2  0
 22 47  1  0
 23 24  1  0
 23 48  1  0
 24 25  2  0
 24 49  1  0
 25 50  1  0
 26 27  1  0
 26 31  2  0
 27 28  2  0
 27 51  1  0
 28 29  1  0
 28 52  1  0
 29 30  2  0
 29 32  1  0
 30 31  1  0
 30 53  1  0
 31 54  1  0
 32 33  1  0
 32 55  1  1
 32 56  1  0
 33 34  1  0
 33 35  1  0
 33 63  1  6
 34 57  1  1
 34 58  1  0
 34 59  1  0
 35 60  1  1
 35 61  1  0
 35 62  1  0
M  CHG  1  33   1
M  END
>  <s_epik_cmdline>  (198) 
J2VwaWtfcHl0aG9uJywgJy1waCcsICc3LjAwMDAwMCcsICctcGh0JywgJzIuMDAwMDAwJywgJy1tcycsICcxNicsICctdG4nLCAnOCcsICctbWEnLCAnMjAwJywgJy1pbWFlJywgJzxpbmZpbGUubWFlPicsICctb21hZScsICc8b3V0ZmlsZS5tYWU+Jw==

>  <s_epik_input>  (198) 
W0NIM11OKFtDSDNdKVtDSDJdYyhbY0hdW2NIXTEpW2NIXVtjSF1jMUMoPU8pW05IXWMyW2NIXWMoLWMzW2NIXWMoW09IXSlbY0hdW2NIXVtjSF0zKWMoW2NIXVtjSF0yKVtDQEBIXShDI04pYzRbY0hdW2NIXVtjSF1bY0hdW2NIXTQ=

>  <s_i_glide_gridfile>  (198) 
ATP-Grid

>  <s_lp_Force_Field>  (198) 
OPLS_2005

>  <s_lp_Variant>  (198) 
rxn501c____EMOL18624763____EMOL713289____EMOL517104-2

>  <s_lp_label>  (198) 
2716_sdstereoexpander_2_neutralizer_1_epik_1_stereoizer_1

>  <s_m_source_file>  (198) 
ATP-VSW-LIGPREP-002-in.maegz

>  <s_sd_BIOSOLVEIT.INFINISEE\_QUERY\_NAME>  (198) 
Ref-Lig

>  <s_sd_BIOSOLVEIT.INFINISEE\_QUERY\_SMILES>  (198) 
S(c1nc2c(cc1C[NH2+]Cc3ccc(cc3)C[NH+](C)C)cccc2)Cc4ccccc4

>  <s_sd_BIOSOLVEIT.INFINISEE\_REACTION\_NAME>  (198) 
rxn501c

>  <s_sd_BIOSOLVEIT.INFINISEE\_REAGENT1\_NAME>  (198) 
EMOL18624763

>  <s_sd_BIOSOLVEIT.INFINISEE\_REAGENT1\_SMILES>  (198) 
O=C(O)c1ccc(cc1)CN(C)C

>  <s_sd_BIOSOLVEIT.INFINISEE\_REAGENT2\_NAME>  (198) 
EMOL713289

>  <s_sd_BIOSOLVEIT.INFINISEE\_REAGENT2\_SMILES>  (198) 
Clc1c(ccc(N)c1)C(C#N)c2ccccc2

>  <s_sd_BIOSOLVEIT.INFINISEE\_REAGENT3\_NAME>  (198) 
EMOL517104

>  <s_sd_BIOSOLVEIT.INFINISEE\_REAGENT3\_SMILES>  (198) 
Oc1cc(ccc1)B(O)O

>  <s_sd_BIOSOLVEIT.INFINISEE\_SPACE>  (198) 
eXplore_7tr_2022-12

>  <s_vsw_compound_code>  (198) 
86882

>  <s_vsw_variant>  (198) 
86882-2

>  <r_epik_Charging_Adjusted_Penalty>  (198) 
0.108558204811781

>  <r_epik_Ionization_Penalty>  (198) 
0.0557

>  <r_epik_Ionization_Penalty_Charging>  (198) 
0.054300000000000001

>  <r_epik_Ionization_Penalty_Neutral>  (198) 
0.0014

>  <r_epik_State_Penalty>  (198) 
0.054300000000000001

>  <r_i_docking_score>  (198) 
-4.8227206134476104

>  <r_i_glide_ecoul>  (198) 
-6.8743643760681197

>  <r_i_glide_eff_state_penalty>  (198) 
0.054300000000000001

>  <r_i_glide_einternal>  (198) 
6.6193203926086399

>  <r_i_glide_emodel>  (198) 
-56.157285018005403

>  <r_i_glide_energy>  (198) 
-41.0421271324158

>  <r_i_glide_erotb>  (198) 
0.65905764600184902

>  <r_i_glide_esite>  (198) 
-0.15407452206962399

>  <r_i_glide_evdw>  (198) 
-34.167762756347699

>  <r_i_glide_gscore>  (198) 
-4.87702061344761

>  <r_i_glide_hbond>  (198) 
-0.19693412045551301

>  <r_i_glide_ligand_efficiency>  (198) 
-0.13779201752707501

>  <r_i_glide_ligand_efficiency_ln>  (198) 
-1.0586942091689

>  <r_i_glide_ligand_efficiency_sa>  (198) 
-0.45072682581156598

>  <r_i_glide_lipo>  (198) 
-1.87723819704335

>  <r_i_glide_metal>  (198) 
-0

>  <r_i_glide_rewards>  (198) 
-0.56828862565337601

>  <r_lp_Energy>  (198) 
35.246389000000001

>  <r_lp_tautomer_probability>  (198) 
0.999999999997365

>  <r_qp_ACxDN^.5/SA>  (198) 
0.011535500000000001

>  <r_qp_CIQPlogS>  (198) 
-7.2300000000000004

>  <r_qp_EA(eV)>  (198) 
0.56299999999999994

>  <r_qp_FISA>  (198) 
159.34800000000001

>  <r_qp_FOSA>  (198) 
184.06399999999999

>  <r_qp_IP(eV)>  (198) 
8.9749999999999996

>  <r_qp_Jm>  (198) 
4.8433469229614303e-06

>  <r_qp_PISA>  (198) 
484.11200000000002

>  <r_qp_PSA>  (198) 
88.974999999999994

>  <r_qp_PercentHumanOralAbsorption>  (198) 
88.200000000000003

>  <r_qp_QPPCaco>  (198) 
76.156000000000006

>  <r_qp_QPPMDCK>  (198) 
33.844000000000001

>  <r_qp_QPlogBB>  (198) 
-1.3759999999999999

>  <r_qp_QPlogHERG>  (198) 
-8.3000000000000007

>  <r_qp_QPlogKhsa>  (198) 
0.94499999999999995

>  <r_qp_QPlogKp>  (198) 
-3.9489999999999998

>  <r_qp_QPlogPC16>  (198) 
17.443000000000001

>  <r_qp_QPlogPo/w>  (198) 
4.71

>  <r_qp_QPlogPoct>  (198) 
25.347000000000001

>  <r_qp_QPlogPw>  (198) 
13.68

>  <r_qp_QPlogS>  (198) 
-7.0300000000000002

>  <r_qp_QPpolrz>  (198) 
53.130000000000003

>  <r_qp_SASA>  (198) 
827.524

>  <r_qp_SAamideO>  (198) 
0

>  <r_qp_SAfluorine>  (198) 
0

>  <r_qp_WPSA>  (198) 
0

>  <r_qp_accptHB>  (198) 
6.75

>  <r_qp_dip^2/V>  (198) 
0.0569495

>  <r_qp_dipole>  (198) 
9.2739999999999991

>  <r_qp_donorHB>  (198) 
2

>  <r_qp_glob>  (198) 
0.76927650000000003

>  <r_qp_mol_MW>  (198) 
461.56200000000001

>  <r_qp_volume>  (198) 
1510.2439999999999

>  <r_sd_BIOSOLVEIT.INFINISEE\_FTREES\_SIMILARITY>  (198) 
0.90800000000000003

>  <r_sd_BIOSOLVEIT.LOGP>  (198) 
4.6114800000000002

>  <r_sd_BIOSOLVEIT.MOLECULAR\_WEIGHT>  (198) 
462.56999999999999

>  <r_sd_BIOSOLVEIT.TPSA>  (198) 
77.560000000000002

>  <i_epik_Tot_Q>  (198) 
1

>  <i_epik_Tot_abs_Q>  (198) 
1

>  <i_f3d_flags>  (198) 
0

>  <i_i_glide_confnum>  (198) 
1

>  <i_i_glide_lignum>  (198) 
1309

>  <i_i_glide_posenum>  (198) 
7

>  <i_i_glide_rotatable_bonds>  (198) 
9

>  <i_lp_mmshare_version>  (198) 
65135

>  <i_m_ct_format>  (198) 
2

>  <i_m_source_file_index>  (198) 
2716

>  <i_qp_#NandO>  (198) 
5

>  <i_qp_#acid>  (198) 
0

>  <i_qp_#amide>  (198) 
0

>  <i_qp_#amidine>  (198) 
0

>  <i_qp_#amine>  (198) 
1

>  <i_qp_#in34>  (198) 
0

>  <i_qp_#in56>  (198) 
24

>  <i_qp_#metab>  (198) 
5

>  <i_qp_#nonHatm>  (198) 
35

>  <i_qp_#noncon>  (198) 
0

>  <i_qp_#ringatoms>  (198) 
24

>  <i_qp_#rotor>  (198) 
9

>  <i_qp_#rtvFG>  (198) 
0

>  <i_qp_#stars>  (198) 
2

>  <i_qp_CNS>  (198) 
-2

>  <i_qp_HumanOralAbsorption>  (198) 
1

>  <i_qp_RuleOfFive>  (198) 
0

>  <i_qp_RuleOfThree>  (198) 
1

>  <i_sd_BIOSOLVEIT.INFINISEE\_RESULT\_RANK>  (198) 
54350

>  <i_sd_version>  (198) 
0

>  <b_lp_Chiralities_Consistent>  (198) 
1

>  <b_sd_chiral_flag>  (198) 
0

>  <canonical_id>  (198) 
ATP-HTVS-1EBFDE0160CD

>  <compound_code>  (198) 
86882

>  <title>  (198) 
rxn501c____EMOL18624763____EMOL713289____EMOL517104

>  <variant>  (198) 
86882-2

>  <source_file>  (198) 
运行/运行/ATP-VSW/ATP-VSW-DOCK_HTVS_1-002_lib.maegz

>  <canonical_smiles>  (198) 
C[NH+](C)Cc1ccc(C(=O)Nc2ccc([C@@H](C#N)c3ccccc3)c(-c3cccc(O)c3)c2)cc1

>  <scaffold>  (198) 
O=C(Nc1ccc(Cc2ccccc2)c(-c2ccccc2)c1)c1ccccc1

>  <molecular_formula>  (198) 
C30H28N3O2+

$$$$
ATP-HTVS-1F874564E13F
     RDKit          3D

 50 52  0  0  0  0  0  0  0  0999 V2000
  197.0351  181.2653  152.2260 Cl  0  0  0  0  0  0  0  0  0  0  0  0
  197.9920  180.1523  153.1234 C   0  0  0  0  0  0  0  0  0  0  0  0
  198.9089  179.0092  152.2034 S   0  0  0  0  0  0  0  0  0  0  0  0
  199.5406  178.2839  153.6684 C   0  0  0  0  0  0  0  0  0  0  0  0
  200.3899  177.0908  153.5051 C   0  0  0  0  0  0  0  0  0  0  0  0
  200.3859  176.4792  152.4313 O   0  0  0  0  0  0  0  0  0  0  0  0
  201.1331  176.7450  154.5650 N   0  0  0  0  0  0  0  0  0  0  0  0
  202.0185  175.6359  154.6771 C   0  0  0  0  0  0  0  0  0  0  0  0
  202.6940  175.0903  153.5450 C   0  0  0  0  0  0  0  0  0  0  0  0
  203.5462  173.9803  153.6973 C   0  0  0  0  0  0  0  0  0  0  0  0
  203.7655  173.4281  154.9658 C   0  0  0  0  0  0  0  0  0  0  0  0
  203.1382  173.9922  156.0968 C   0  0  0  0  0  0  0  0  0  0  0  0
  202.2724  175.0888  155.9492 C   0  0  0  0  0  0  0  0  0  0  0  0
  199.0195  178.8877  154.7852 C   0  0  0  0  0  0  0  0  0  0  0  0
  198.1467  179.9744  154.4812 C   0  0  0  0  0  0  0  0  0  0  0  0
  197.5558  180.7038  155.5213 N   0  0  0  0  0  0  0  0  0  0  0  0
  197.0589  182.0469  155.3203 C   0  0  1  0  0  0  0  0  0  0  0  0
  196.8662  182.7921  156.6147 C   0  0  0  0  0  0  0  0  0  0  0  0
  197.6081  183.9608  156.8619 C   0  0  0  0  0  0  0  0  0  0  0  0
  197.4427  184.6517  158.0744 C   0  0  0  0  0  0  0  0  0  0  0  0
  196.4624  184.2282  159.0000 C   0  0  0  0  0  0  0  0  0  0  0  0
  195.7268  183.0510  158.7513 C   0  0  0  0  0  0  0  0  0  0  0  0
  195.9423  182.3245  157.5661 C   0  0  0  0  0  0  0  0  0  0  0  0
  196.2175  185.0251  160.2681 C   0  0  1  0  0  0  0  0  0  0  0  0
  195.4435  186.2812  160.0517 N   0  0  1  0  0  0  0  0  0  0  0  0
  195.0541  186.9058  161.3372 C   0  0  2  0  0  0  0  0  0  0  0  0
  196.1136  187.2758  159.1738 C   0  0  2  0  0  0  0  0  0  0  0  0
  201.0106  177.3022  155.4068 H   0  0  0  0  0  0  0  0  0  0  0  0
  202.5806  175.5010  152.5578 H   0  0  0  0  0  0  0  0  0  0  0  0
  204.0280  173.5628  152.8321 H   0  0  0  0  0  0  0  0  0  0  0  0
  204.4070  172.5642  155.0667 H   0  0  0  0  0  0  0  0  0  0  0  0
  203.3318  173.5693  157.0735 H   0  0  0  0  0  0  0  0  0  0  0  0
  201.7894  175.5075  156.8273 H   0  0  0  0  0  0  0  0  0  0  0  0
  199.2244  178.5789  155.8014 H   0  0  0  0  0  0  0  0  0  0  0  0
  197.4327  180.2711  156.4349 H   0  0  0  0  0  0  0  0  0  0  0  0
  197.7633  182.5943  154.6936 H   0  0  0  0  0  0  0  0  0  0  0  0
  196.1068  182.0028  154.7966 H   0  0  0  0  0  0  0  0  0  0  0  0
  198.3054  184.3342  156.1230 H   0  0  0  0  0  0  0  0  0  0  0  0
  198.0557  185.5161  158.2576 H   0  0  0  0  0  0  0  0  0  0  0  0
  194.9894  182.6852  159.4548 H   0  0  0  0  0  0  0  0  0  0  0  0
  195.3686  181.4336  157.3630 H   0  0  0  0  0  0  0  0  0  0  0  0
  195.6602  184.3859  160.9561 H   0  0  0  0  0  0  0  0  0  0  0  0
  197.1695  185.2431  160.7489 H   0  0  0  0  0  0  0  0  0  0  0  0
  195.9368  187.2075  161.9022 H   0  0  0  0  0  0  0  0  0  0  0  0
  194.4675  186.2316  161.9600 H   0  0  0  0  0  0  0  0  0  0  0  0
  194.4516  187.7983  161.1670 H   0  0  0  0  0  0  0  0  0  0  0  0
  197.1050  187.5266  159.5629 H   0  0  0  0  0  0  0  0  0  0  0  0
  195.5585  188.2110  159.1185 H   0  0  0  0  0  0  0  0  0  0  0  0
  196.2108  186.9123  158.1474 H   0  0  0  0  0  0  0  0  0  0  0  0
  194.5894  186.0098  159.5825 H   0  0  0  0  0  0  0  0  0  0  0  0
  1  2  1  0
  2  3  1  0
  2 15  2  0
  3  4  1  0
  4  5  1  0
  4 14  2  0
  5  6  2  0
  5  7  1  0
  7  8  1  0
  7 28  1  0
  8  9  2  0
  8 13  1  0
  9 10  1  0
  9 29  1  0
 10 11  2  0
 10 30  1  0
 11 12  1  0
 11 31  1  0
 12 13  2  0
 12 32  1  0
 13 33  1  0
 14 15  1  0
 14 34  1  0
 15 16  1  0
 16 17  1  0
 16 35  1  0
 17 18  1  0
 17 36  1  6
 17 37  1  0
 18 19  1  0
 18 23  2  0
 19 20  2  0
 19 38  1  0
 20 21  1  0
 20 39  1  0
 21 22  2  0
 21 24  1  0
 22 23  1  0
 22 40  1  0
 23 41  1  0
 24 25  1  0
 24 42  1  1
 24 43  1  0
 25 26  1  0
 25 27  1  0
 25 50  1  6
 26 44  1  1
 26 45  1  0
 26 46  1  0
 27 47  1  1
 27 48  1  0
 27 49  1  0
M  CHG  1  25   1
M  END
>  <s_epik_cmdline>  (199) 
J2VwaWtfcHl0aG9uJywgJy1waCcsICc3LjAwMDAwMCcsICctcGh0JywgJzIuMDAwMDAwJywgJy1tcycsICcxNicsICctdG4nLCAnOCcsICctbWEnLCAnMjAwJywgJy1pbWFlJywgJzxpbmZpbGUubWFlPicsICctb21hZScsICc8b3V0ZmlsZS5tYWU+Jw==

>  <s_epik_input>  (199) 
W2NIXTFbY0hdW2NIXVtjSF1bY0hdYzFbTkhdQyg9TyljKHNjMkNsKVtjSF1jMltOSF1bQ0gyXWMzW2NIXVtjSF1jKFtjSF1bY0hdMylbQ0gyXU4oW0NIM10pW0NIM10=

>  <s_i_glide_gridfile>  (199) 
ATP-Grid

>  <s_lp_Force_Field>  (199) 
OPLS_2005

>  <s_lp_Variant>  (199) 
rxn512b____EMOL477532____EMOL44846536____EMOL50155899-1

>  <s_lp_label>  (199) 
2502_sdstereoexpander_1_neutralizer_1_epik_1_stereoizer_1

>  <s_m_source_file>  (199) 
ATP-VSW-LIGPREP-003-in.maegz

>  <s_sd_BIOSOLVEIT.INFINISEE\_QUERY\_NAME>  (199) 
Ref-Lig

>  <s_sd_BIOSOLVEIT.INFINISEE\_QUERY\_SMILES>  (199) 
S(c1nc2c(cc1C[NH2+]Cc3ccc(cc3)C[NH+](C)C)cccc2)Cc4ccccc4

>  <s_sd_BIOSOLVEIT.INFINISEE\_REACTION\_NAME>  (199) 
rxn512b

>  <s_sd_BIOSOLVEIT.INFINISEE\_REAGENT1\_NAME>  (199) 
EMOL477532

>  <s_sd_BIOSOLVEIT.INFINISEE\_REAGENT1\_SMILES>  (199) 
Nc1ccccc1

>  <s_sd_BIOSOLVEIT.INFINISEE\_REAGENT2\_NAME>  (199) 
EMOL44846536

>  <s_sd_BIOSOLVEIT.INFINISEE\_REAGENT2\_SMILES>  (199) 
BrC1=C(Cl)SC(C(=O)O)=C1

>  <s_sd_BIOSOLVEIT.INFINISEE\_REAGENT3\_NAME>  (199) 
EMOL50155899

>  <s_sd_BIOSOLVEIT.INFINISEE\_REAGENT3\_SMILES>  (199) 
N(Cc1ccc(cc1)CN)(C)C

>  <s_sd_BIOSOLVEIT.INFINISEE\_SPACE>  (199) 
eXplore_7tr_2022-12

>  <s_vsw_compound_code>  (199) 
80035

>  <s_vsw_variant>  (199) 
80035-1

>  <r_epik_Charging_Adjusted_Penalty>  (199) 
0.080189274810459593

>  <r_epik_Ionization_Penalty>  (199) 
0.0402

>  <r_epik_Ionization_Penalty_Charging>  (199) 
0.040099999999999997

>  <r_epik_Ionization_Penalty_Neutral>  (199) 
0.0001

>  <r_epik_State_Penalty>  (199) 
0.040099999999999997

>  <r_i_docking_score>  (199) 
-3.72808344435626

>  <r_i_glide_ecoul>  (199) 
-4.1948485374450701

>  <r_i_glide_eff_state_penalty>  (199) 
0.040099999999999997

>  <r_i_glide_einternal>  (199) 
6.7738833427429199

>  <r_i_glide_emodel>  (199) 
-46.429534629016601

>  <r_i_glide_energy>  (199) 
-38.688275814056396

>  <r_i_glide_erotb>  (199) 
0.85386313218798504

>  <r_i_glide_esite>  (199) 
-0.063636233184128504

>  <r_i_glide_evdw>  (199) 
-34.4934272766113

>  <r_i_glide_gscore>  (199) 
-3.7681834443562598

>  <r_i_glide_hbond>  (199) 
0

>  <r_i_glide_ligand_efficiency>  (199) 
-0.13807716460578701

>  <r_i_glide_ligand_efficiency_ln>  (199) 
-0.86783636358701999

>  <r_i_glide_ligand_efficiency_sa>  (199) 
-0.41423149336228199

>  <r_i_glide_lipo>  (199) 
-1.4759399822691699

>  <r_i_glide_metal>  (199) 
-0

>  <r_i_glide_rewards>  (199) 
-0.72857171664361298

>  <r_lp_Energy>  (199) 
21.252922999999999

>  <r_lp_tautomer_probability>  (199) 
0.99999274205267796

>  <r_qp_ACxDN^.5/SA>  (199) 
0.0103997

>  <r_qp_CIQPlogS>  (199) 
-4.0030000000000001

>  <r_qp_EA(eV)>  (199) 
0.89600000000000002

>  <r_qp_FISA>  (199) 
57.834000000000003

>  <r_qp_FOSA>  (199) 
210.06999999999999

>  <r_qp_IP(eV)>  (199) 
8.2390000000000008

>  <r_qp_Jm>  (199) 
0.000163213020559085

>  <r_qp_PISA>  (199) 
369.209

>  <r_qp_PSA>  (199) 
54.005000000000003

>  <r_qp_PercentHumanOralAbsorption>  (199) 
92.352999999999994

>  <r_qp_QPPCaco>  (199) 
174.286

>  <r_qp_QPPMDCK>  (199) 
370.70499999999998

>  <r_qp_QPlogBB>  (199) 
0.55600000000000005

>  <r_qp_QPlogHERG>  (199) 
-8.5030000000000001

>  <r_qp_QPlogKhsa>  (199) 
0.68700000000000006

>  <r_qp_QPlogKp>  (199) 
-4.7380000000000004

>  <r_qp_QPlogPC16>  (199) 
14.646000000000001

>  <r_qp_QPlogPo/w>  (199) 
4.3200000000000003

>  <r_qp_QPlogPoct>  (199) 
21.619

>  <r_qp_QPlogPw>  (199) 
11.265000000000001

>  <r_qp_QPlogS>  (199) 
-4.6509999999999998

>  <r_qp_QPpolrz>  (199) 
44.655999999999999

>  <r_qp_SASA>  (199) 
747.92399999999998

>  <r_qp_SAamideO>  (199) 
0

>  <r_qp_SAfluorine>  (199) 
0

>  <r_qp_WPSA>  (199) 
110.81100000000001

>  <r_qp_accptHB>  (199) 
5.5

>  <r_qp_dip^2/V>  (199) 
0.061204700000000001

>  <r_qp_dipole>  (199) 
8.8989999999999991

>  <r_qp_donorHB>  (199) 
2

>  <r_qp_glob>  (199) 
0.76775640000000001

>  <r_qp_mol_MW>  (199) 
399.93700000000001

>  <r_qp_volume>  (199) 
1293.8209999999999

>  <r_sd_BIOSOLVEIT.INFINISEE\_FTREES\_SIMILARITY>  (199) 
0.91400000000000003

>  <r_sd_BIOSOLVEIT.LOGP>  (199) 
3.9104000000000001

>  <r_sd_BIOSOLVEIT.MOLECULAR\_WEIGHT>  (199) 
400.95100000000002

>  <r_sd_BIOSOLVEIT.TPSA>  (199) 
45.57

>  <i_epik_Tot_Q>  (199) 
1

>  <i_epik_Tot_abs_Q>  (199) 
1

>  <i_f3d_flags>  (199) 
0

>  <i_i_glide_confnum>  (199) 
5

>  <i_i_glide_lignum>  (199) 
1086

>  <i_i_glide_posenum>  (199) 
7

>  <i_i_glide_rotatable_bonds>  (199) 
8

>  <i_lp_mmshare_version>  (199) 
65135

>  <i_m_ct_format>  (199) 
2

>  <i_m_source_file_index>  (199) 
2502

>  <i_qp_#NandO>  (199) 
4

>  <i_qp_#acid>  (199) 
0

>  <i_qp_#amide>  (199) 
0

>  <i_qp_#amidine>  (199) 
0

>  <i_qp_#amine>  (199) 
2

>  <i_qp_#in34>  (199) 
0

>  <i_qp_#in56>  (199) 
17

>  <i_qp_#metab>  (199) 
6

>  <i_qp_#nonHatm>  (199) 
27

>  <i_qp_#noncon>  (199) 
0

>  <i_qp_#ringatoms>  (199) 
17

>  <i_qp_#rotor>  (199) 
7

>  <i_qp_#rtvFG>  (199) 
0

>  <i_qp_#stars>  (199) 
0

>  <i_qp_CNS>  (199) 
2

>  <i_qp_HumanOralAbsorption>  (199) 
3

>  <i_qp_RuleOfFive>  (199) 
0

>  <i_qp_RuleOfThree>  (199) 
0

>  <i_sd_BIOSOLVEIT.INFINISEE\_RESULT\_RANK>  (199) 
30930

>  <i_sd_version>  (199) 
0

>  <b_lp_Chiralities_Consistent>  (199) 
1

>  <b_sd_chiral_flag>  (199) 
0

>  <canonical_id>  (199) 
ATP-HTVS-1F874564E13F

>  <compound_code>  (199) 
80035

>  <title>  (199) 
rxn512b____EMOL477532____EMOL44846536____EMOL50155899

>  <variant>  (199) 
80035-1

>  <source_file>  (199) 
运行/运行/ATP-VSW/ATP-VSW-DOCK_HTVS_1-003_lib/ATP-VSW-DOCK_HTVS_1-003_lib.mae

>  <canonical_smiles>  (199) 
C[NH+](C)Cc1ccc(CNc2cc(C(=O)Nc3ccccc3)sc2Cl)cc1

>  <scaffold>  (199) 
O=C(Nc1ccccc1)c1cc(NCc2ccccc2)cs1

>  <molecular_formula>  (199) 
C21H23ClN3OS+

$$$$
ATP-HTVS-1F9A02273F27
     RDKit          3D

 65 68  0  0  0  0  0  0  0  0999 V2000
  195.9435  187.4060  161.3323 F   0  0  0  0  0  0  0  0  0  0  0  0
  195.6912  186.2973  160.5985 C   0  0  0  0  0  0  0  0  0  0  0  0
  196.7409  185.6593  159.9156 C   0  0  0  0  0  0  0  0  0  0  0  0
  196.5174  184.5141  159.1194 C   0  0  0  0  0  0  0  0  0  0  0  0
  195.2005  183.9730  159.0647 C   0  0  0  0  0  0  0  0  0  0  0  0
  194.9191  182.8622  158.3746 N   0  0  0  0  0  0  0  0  0  0  0  0
  195.8985  182.2691  157.6728 C   0  0  0  0  0  0  0  0  0  0  0  0
  197.2433  182.7025  157.6445 C   0  0  0  0  0  0  0  0  0  0  0  0
  197.5703  183.8740  158.3981 C   0  0  0  0  0  0  0  0  0  0  0  0
  198.8824  184.4027  158.4569 N   0  0  0  0  0  0  0  0  0  0  0  0
  199.2916  185.3330  157.3976 C   0  0  2  0  0  0  0  0  0  0  0  0
  200.6895  185.1114  156.9779 C   0  0  0  0  0  0  0  0  0  0  0  0
  201.7868  184.9528  156.6441 N   0  0  0  0  0  0  0  0  0  0  0  0
  199.1076  186.8085  157.7363 C   0  0  0  0  0  0  0  0  0  0  0  0
  198.5329  187.6894  156.7944 C   0  0  0  0  0  0  0  0  0  0  0  0
  198.3784  189.0544  157.1067 C   0  0  0  0  0  0  0  0  0  0  0  0
  198.7692  189.5448  158.3668 C   0  0  0  0  0  0  0  0  0  0  0  0
  199.3453  188.6722  159.3082 C   0  0  0  0  0  0  0  0  0  0  0  0
  199.5339  187.3156  158.9850 C   0  0  0  0  0  0  0  0  0  0  0  0
  199.8479  183.6353  159.2448 C   0  0  2  0  0  0  0  0  0  0  0  0
  198.2435  181.9072  156.8298 C   0  0  0  0  0  0  0  0  0  0  0  0
  199.2469  182.4244  156.3488 O   0  0  0  0  0  0  0  0  0  0  0  0
  197.9563  180.5991  156.6836 N   0  0  0  0  0  0  0  0  0  0  0  0
  198.7694  179.6489  155.9501 C   0  0  1  0  0  0  0  0  0  0  0  0
  198.4587  179.6478  154.4552 C   0  0  0  0  0  0  0  0  0  0  0  0
  199.5070  179.4549  153.5343 C   0  0  0  0  0  0  0  0  0  0  0  0
  199.2521  179.4674  152.1468 C   0  0  0  0  0  0  0  0  0  0  0  0
  197.9384  179.6222  151.6730 C   0  0  0  0  0  0  0  0  0  0  0  0
  196.8849  179.8185  152.5928 C   0  0  0  0  0  0  0  0  0  0  0  0
  197.1440  179.8453  153.9830 C   0  0  0  0  0  0  0  0  0  0  0  0
  197.6753  179.5518  150.1720 C   0  0  1  0  0  0  0  0  0  0  0  0
  197.8845  178.1972  149.5840 N   0  0  1  0  0  0  0  0  0  0  0  0
  197.3653  178.0861  148.1997 C   0  0  2  0  0  0  0  0  0  0  0  0
  199.2910  177.7119  149.6757 C   0  0  2  0  0  0  0  0  0  0  0  0
  194.1601  184.6204  159.7600 C   0  0  0  0  0  0  0  0  0  0  0  0
  194.3910  185.7760  160.5298 C   0  0  0  0  0  0  0  0  0  0  0  0
  197.7297  186.0615  160.0456 H   0  0  0  0  0  0  0  0  0  0  0  0
  195.5595  181.4200  157.0991 H   0  0  0  0  0  0  0  0  0  0  0  0
  198.6873  185.1134  156.5150 H   0  0  0  0  0  0  0  0  0  0  0  0
  198.2168  187.3257  155.8263 H   0  0  0  0  0  0  0  0  0  0  0  0
  197.9628  189.7348  156.3799 H   0  0  0  0  0  0  0  0  0  0  0  0
  198.6291  190.5881  158.6130 H   0  0  0  0  0  0  0  0  0  0  0  0
  199.6292  189.0410  160.2854 H   0  0  0  0  0  0  0  0  0  0  0  0
  199.9787  186.6663  159.7254 H   0  0  0  0  0  0  0  0  0  0  0  0
  199.4129  182.7182  159.6492 H   0  0  0  0  0  0  0  0  0  0  0  0
  200.2156  184.2347  160.0808 H   0  0  0  0  0  0  0  0  0  0  0  0
  200.7115  183.3265  158.6534 H   0  0  0  0  0  0  0  0  0  0  0  0
  197.1132  180.2195  157.0993 H   0  0  0  0  0  0  0  0  0  0  0  0
  199.8310  179.8512  156.1127 H   0  0  0  0  0  0  0  0  0  0  0  0
  198.5862  178.6494  156.3370 H   0  0  0  0  0  0  0  0  0  0  0  0
  200.5146  179.2732  153.8997 H   0  0  0  0  0  0  0  0  0  0  0  0
  200.0516  179.3007  151.4430 H   0  0  0  0  0  0  0  0  0  0  0  0
  195.8627  179.9587  152.2502 H   0  0  0  0  0  0  0  0  0  0  0  0
  196.3325  180.0074  154.6711 H   0  0  0  0  0  0  0  0  0  0  0  0
  196.6441  179.8499  149.9989 H   0  0  0  0  0  0  0  0  0  0  0  0
  198.2891  180.2945  149.6578 H   0  0  0  0  0  0  0  0  0  0  0  0
  197.8743  178.7823  147.5376 H   0  0  0  0  0  0  0  0  0  0  0  0
  196.2991  178.2854  148.1485 H   0  0  0  0  0  0  0  0  0  0  0  0
  197.5282  177.0830  147.8098 H   0  0  0  0  0  0  0  0  0  0  0  0
  199.9553  178.4004  149.1394 H   0  0  0  0  0  0  0  0  0  0  0  0
  199.3976  176.7278  149.1718 H   0  0  0  0  0  0  0  0  0  0  0  0
  199.6589  177.6801  150.7116 H   0  0  0  0  0  0  0  0  0  0  0  0
  193.1611  184.2195  159.6866 H   0  0  0  0  0  0  0  0  0  0  0  0
  193.5831  186.2598  161.0537 H   0  0  0  0  0  0  0  0  0  0  0  0
  197.3441  177.5569  150.1427 H   0  0  0  0  0  0  0  0  0  0  0  0
  1  2  1  0
  2  3  1  0
  2 36  2  0
  3  4  2  0
  3 37  1  0
  4  5  1  0
  4  9  1  0
  5  6  1  0
  5 35  2  0
  6  7  2  0
  7  8  1  0
  7 38  1  0
  8  9  2  0
  8 21  1  0
  9 10  1  0
 10 11  1  0
 10 20  1  0
 11 12  1  0
 11 14  1  0
 11 39  1  6
 12 13  3  0
 14 15  2  0
 14 19  1  0
 15 16  1  0
 15 40  1  0
 16 17  2  0
 16 41  1  0
 17 18  1  0
 17 42  1  0
 18 19  2  0
 18 43  1  0
 19 44  1  0
 20 45  1  1
 20 46  1  0
 20 47  1  0
 21 22  2  0
 21 23  1  0
 23 24  1  0
 23 48  1  0
 24 25  1  0
 24 49  1  6
 24 50  1  0
 25 26  1  0
 25 30  2  0
 26 27  2  0
 26 51  1  0
 27 28  1  0
 27 52  1  0
 28 29  2  0
 28 31  1  0
 29 30  1  0
 29 53  1  0
 30 54  1  0
 31 32  1  0
 31 55  1  1
 31 56  1  0
 32 33  1  0
 32 34  1  0
 32 65  1  1
 33 57  1  6
 33 58  1  0
 33 59  1  0
 34 60  1  6
 34 61  1  0
 34 62  1  0
 35 36  1  0
 35 63  1  0
 36 64  1  0
M  CHG  1  32   1
M  END
>  <s_epik_cmdline>  (200) 
J2VwaWtfcHl0aG9uJywgJy1waCcsICc3LjAwMDAwMCcsICctcGh0JywgJzIuMDAwMDAwJywgJy1tcycsICcxNicsICctdG4nLCAnOCcsICctbWEnLCAnMjAwJywgJy1pbWFlJywgJzxpbmZpbGUubWFlPicsICctb21hZScsICc8b3V0ZmlsZS5tYWU+Jw==

>  <s_epik_input>  (200) 
W2NIXTFbY0hdW2NIXVtjSF1bY0hdYzFbQ0BASF0oQyNOKU4oW0NIM10pYzJjKFtjSF1uYyhjMjMpW2NIXVtjSF1jKEYpW2NIXTMpQyg9TylbTkhdW0NIMl1jNFtjSF1bY0hdYyhbY0hdW2NIXTQpW0NIMl1OKFtDSDNdKVtDSDNd

>  <s_i_glide_gridfile>  (200) 
ATP-Grid

>  <s_lp_Force_Field>  (200) 
OPLS_2005

>  <s_lp_Variant>  (200) 
rxn512c____EMOL24630243____EMOL36725275____EMOL50155899-2

>  <s_lp_label>  (200) 
2158_sdstereoexpander_2_neutralizer_1_epik_1_stereoizer_1

>  <s_m_source_file>  (200) 
ATP-VSW-LIGPREP-002-in.maegz

>  <s_sd_BIOSOLVEIT.INFINISEE\_QUERY\_NAME>  (200) 
Ref-Lig

>  <s_sd_BIOSOLVEIT.INFINISEE\_QUERY\_SMILES>  (200) 
S(c1nc2c(cc1C[NH2+]Cc3ccc(cc3)C[NH+](C)C)cccc2)Cc4ccccc4

>  <s_sd_BIOSOLVEIT.INFINISEE\_REACTION\_NAME>  (200) 
rxn512c

>  <s_sd_BIOSOLVEIT.INFINISEE\_REAGENT1\_NAME>  (200) 
EMOL24630243

>  <s_sd_BIOSOLVEIT.INFINISEE\_REAGENT1\_SMILES>  (200) 
N#CC(NC)c1ccccc1

>  <s_sd_BIOSOLVEIT.INFINISEE\_REAGENT2\_NAME>  (200) 
EMOL36725275

>  <s_sd_BIOSOLVEIT.INFINISEE\_REAGENT2\_SMILES>  (200) 
Clc1c2c(ncc1C(=O)O)ccc(F)c2

>  <s_sd_BIOSOLVEIT.INFINISEE\_REAGENT3\_NAME>  (200) 
EMOL50155899

>  <s_sd_BIOSOLVEIT.INFINISEE\_REAGENT3\_SMILES>  (200) 
N(Cc1ccc(cc1)CN)(C)C

>  <s_sd_BIOSOLVEIT.INFINISEE\_SPACE>  (200) 
eXplore_7tr_2022-12

>  <s_vsw_compound_code>  (200) 
69026

>  <s_vsw_variant>  (200) 
69026-2

>  <r_epik_Charging_Adjusted_Penalty>  (200) 
0.13366042192281499

>  <r_epik_Ionization_Penalty>  (200) 
0.088200000000000001

>  <r_epik_Ionization_Penalty_Charging>  (200) 
0.045199999999999997

>  <r_epik_Ionization_Penalty_Neutral>  (200) 
0.042999999999999997

>  <r_epik_State_Penalty>  (200) 
0.088499999999999995

>  <r_i_docking_score>  (200) 
-4.58450927429136

>  <r_i_glide_ecoul>  (200) 
-6.9995045661926296

>  <r_i_glide_eff_state_penalty>  (200) 
0.088499999999999995

>  <r_i_glide_einternal>  (200) 
4.1627392768859899

>  <r_i_glide_emodel>  (200) 
-57.0081730221698

>  <r_i_glide_energy>  (200) 
-44.221630573272698

>  <r_i_glide_erotb>  (200) 
0.69717943793183001

>  <r_i_glide_esite>  (200) 
-0.13273279444041899

>  <r_i_glide_evdw>  (200) 
-37.222126007080099

>  <r_i_glide_gscore>  (200) 
-4.6730092742913598

>  <r_i_glide_hbond>  (200) 
-0.16

>  <r_i_glide_ligand_efficiency>  (200) 
-0.127347479841427

>  <r_i_glide_ligand_efficiency_ln>  (200) 
-1.0002160645234699

>  <r_i_glide_ligand_efficiency_sa>  (200) 
-0.42049211326418501

>  <r_i_glide_lipo>  (200) 
-1.79878024875359

>  <r_i_glide_metal>  (200) 
-0

>  <r_i_glide_rewards>  (200) 
-0.36764368374628398

>  <r_lp_Energy>  (200) 
34.292019000000003

>  <r_qp_ACxDN^.5/SA>  (200) 
0.0098893000000000002

>  <r_qp_CIQPlogS>  (200) 
-7.0609999999999999

>  <r_qp_EA(eV)>  (200) 
1.5109999999999999

>  <r_qp_FISA>  (200) 
101.983

>  <r_qp_FOSA>  (200) 
261.16500000000002

>  <r_qp_IP(eV)>  (200) 
9.1649999999999991

>  <r_qp_Jm>  (200) 
0.000107338691512442

>  <r_qp_PISA>  (200) 
399.56999999999999

>  <r_qp_PSA>  (200) 
72.494

>  <r_qp_PercentHumanOralAbsorption>  (200) 
100

>  <r_qp_QPPCaco>  (200) 
266.5

>  <r_qp_QPPMDCK>  (200) 
234.84200000000001

>  <r_qp_QPlogBB>  (200) 
-0.55700000000000005

>  <r_qp_QPlogHERG>  (200) 
-7.5679999999999996

>  <r_qp_QPlogKhsa>  (200) 
0.747

>  <r_qp_QPlogKp>  (200) 
-3.1899999999999999

>  <r_qp_QPlogPC16>  (200) 
15.853

>  <r_qp_QPlogPo/w>  (200) 
4.8529999999999998

>  <r_qp_QPlogPoct>  (200) 
23.716000000000001

>  <r_qp_QPlogPw>  (200) 
12.452999999999999

>  <r_qp_QPlogS>  (200) 
-6.4619999999999997

>  <r_qp_QPpolrz>  (200) 
52.634999999999998

>  <r_qp_SASA>  (200) 
808.95699999999999

>  <r_qp_SAamideO>  (200) 
0

>  <r_qp_SAfluorine>  (200) 
46.238999999999997

>  <r_qp_WPSA>  (200) 
46.238999999999997

>  <r_qp_accptHB>  (200) 
8

>  <r_qp_dip^2/V>  (200) 
0.013470599999999999

>  <r_qp_dipole>  (200) 
4.5220000000000002

>  <r_qp_donorHB>  (200) 
1

>  <r_qp_glob>  (200) 
0.78964140000000005

>  <r_qp_mol_MW>  (200) 
481.57100000000003

>  <r_qp_volume>  (200) 
1518.047

>  <r_sd_BIOSOLVEIT.INFINISEE\_FTREES\_SIMILARITY>  (200) 
0.94399999999999995

>  <r_sd_BIOSOLVEIT.LOGP>  (200) 
3.6494800000000001

>  <r_sd_BIOSOLVEIT.MOLECULAR\_WEIGHT>  (200) 
482.57999999999998

>  <r_sd_BIOSOLVEIT.TPSA>  (200) 
73.459999999999994

>  <i_epik_Tot_Q>  (200) 
1

>  <i_epik_Tot_abs_Q>  (200) 
1

>  <i_f3d_flags>  (200) 
0

>  <i_i_glide_confnum>  (200) 
10

>  <i_i_glide_lignum>  (200) 
794

>  <i_i_glide_posenum>  (200) 
15

>  <i_i_glide_rotatable_bonds>  (200) 
9

>  <i_lp_mmshare_version>  (200) 
65135

>  <i_m_ct_format>  (200) 
2

>  <i_m_source_file_index>  (200) 
2158

>  <i_qp_#NandO>  (200) 
6

>  <i_qp_#acid>  (200) 
0

>  <i_qp_#amide>  (200) 
0

>  <i_qp_#amidine>  (200) 
0

>  <i_qp_#amine>  (200) 
1

>  <i_qp_#in34>  (200) 
0

>  <i_qp_#in56>  (200) 
22

>  <i_qp_#metab>  (200) 
7

>  <i_qp_#nonHatm>  (200) 
36

>  <i_qp_#noncon>  (200) 
0

>  <i_qp_#ringatoms>  (200) 
22

>  <i_qp_#rotor>  (200) 
9

>  <i_qp_#rtvFG>  (200) 
0

>  <i_qp_#stars>  (200) 
0

>  <i_qp_CNS>  (200) 
1

>  <i_qp_HumanOralAbsorption>  (200) 
1

>  <i_qp_RuleOfFive>  (200) 
0

>  <i_qp_RuleOfThree>  (200) 
2

>  <i_sd_BIOSOLVEIT.INFINISEE\_RESULT\_RANK>  (200) 
667

>  <i_sd_version>  (200) 
0

>  <b_lp_Chiralities_Consistent>  (200) 
1

>  <b_sd_chiral_flag>  (200) 
0

>  <canonical_id>  (200) 
ATP-HTVS-1F9A02273F27

>  <compound_code>  (200) 
69026

>  <title>  (200) 
rxn512c____EMOL24630243____EMOL36725275____EMOL50155899

>  <variant>  (200) 
69026-2

>  <source_file>  (200) 
运行/运行/ATP-VSW/ATP-VSW-DOCK_HTVS_1-002_lib.maegz

>  <canonical_smiles>  (200) 
CN(c1c(C(=O)NCc2ccc(C[NH+](C)C)cc2)cnc2ccc(F)cc12)[C@H](C#N)c1ccccc1

>  <scaffold>  (200) 
O=C(NCc1ccccc1)c1cnc2ccccc2c1NCc1ccccc1

>  <molecular_formula>  (200) 
C29H29FN5O+

$$$$
ATP-HTVS-1FAE7495FCDD
     RDKit          3D

 49 52  0  0  0  0  0  0  0  0999 V2000
  196.0074  184.2359  150.1595 O   0  0  0  0  0  0  0  0  0  0  0  0
  197.2174  184.4440  150.0664 C   0  0  0  0  0  0  0  0  0  0  0  0
  198.0760  184.3146  151.0917 N   0  0  0  0  0  0  0  0  0  0  0  0
  197.7267  183.9929  152.4269 C   0  0  0  0  0  0  0  0  0  0  0  0
  197.7738  182.6527  152.8853 C   0  0  0  0  0  0  0  0  0  0  0  0
  198.1130  181.6330  151.9850 N   0  0  0  0  0  0  0  0  0  0  0  0
  197.0215  180.7408  151.6274 C   0  0  1  0  0  0  0  0  0  0  0  0
  197.4789  179.5649  150.7906 C   0  0  0  0  0  0  0  0  0  0  0  0
  197.0166  179.4363  149.4674 C   0  0  0  0  0  0  0  0  0  0  0  0
  197.4090  178.3325  148.6865 C   0  0  0  0  0  0  0  0  0  0  0  0
  198.2698  177.3542  149.2247 C   0  0  0  0  0  0  0  0  0  0  0  0
  198.6644  176.2147  148.4173 C   0  0  0  0  0  0  0  0  0  0  0  0
  199.0051  175.2636  147.7326 C   0  0  0  0  0  0  0  0  0  0  0  0
  198.7424  177.4840  150.5473 C   0  0  0  0  0  0  0  0  0  0  0  0
  198.3482  178.5894  151.3296 C   0  0  0  0  0  0  0  0  0  0  0  0
  197.4908  182.3894  154.2522 C   0  0  0  0  0  0  0  0  0  0  0  0
  197.1632  183.4708  155.1151 C   0  0  0  0  0  0  0  0  0  0  0  0
  197.1455  184.7305  154.6236 N   0  0  0  0  0  0  0  0  0  0  0  0
  197.3985  185.0233  153.3309 C   0  0  0  0  0  0  0  0  0  0  0  0
  196.8865  183.2454  156.4827 C   0  0  0  0  0  0  0  0  0  0  0  0
  196.8996  181.9304  156.9857 C   0  0  0  0  0  0  0  0  0  0  0  0
  197.2286  180.8619  156.1358 C   0  0  0  0  0  0  0  0  0  0  0  0
  197.5475  181.0814  154.7898 C   0  0  0  0  0  0  0  0  0  0  0  0
  197.8681  184.7726  148.7490 C   0  0  0  0  0  0  0  0  0  0  0  0
  197.2718  184.3639  147.5341 C   0  0  0  0  0  0  0  0  0  0  0  0
  197.8736  184.6737  146.2978 C   0  0  0  0  0  0  0  0  0  0  0  0
  199.0744  185.4050  146.2572 C   0  0  0  0  0  0  0  0  0  0  0  0
  199.6708  185.8274  147.4589 C   0  0  0  0  0  0  0  0  0  0  0  0
  199.0715  185.5142  148.6953 C   0  0  0  0  0  0  0  0  0  0  0  0
  199.0579  184.4306  150.8884 H   0  0  0  0  0  0  0  0  0  0  0  0
  198.5878  181.9755  151.1647 H   0  0  0  0  0  0  0  0  0  0  0  0
  196.5216  180.3385  152.5062 H   0  0  0  0  0  0  0  0  0  0  0  0
  196.2722  181.3221  151.0848 H   0  0  0  0  0  0  0  0  0  0  0  0
  196.3521  180.1823  149.0572 H   0  0  0  0  0  0  0  0  0  0  0  0
  197.0435  178.2434  147.6738 H   0  0  0  0  0  0  0  0  0  0  0  0
  199.2925  174.4264  147.1383 H   0  0  0  0  0  0  0  0  0  0  0  0
  199.4024  176.7359  150.9645 H   0  0  0  0  0  0  0  0  0  0  0  0
  198.7146  178.6792  152.3430 H   0  0  0  0  0  0  0  0  0  0  0  0
  197.3612  186.0724  153.0672 H   0  0  0  0  0  0  0  0  0  0  0  0
  196.6337  184.0598  157.1477 H   0  0  0  0  0  0  0  0  0  0  0  0
  196.6477  181.7265  158.0192 H   0  0  0  0  0  0  0  0  0  0  0  0
  197.2268  179.8561  156.5308 H   0  0  0  0  0  0  0  0  0  0  0  0
  197.8285  180.2236  154.1963 H   0  0  0  0  0  0  0  0  0  0  0  0
  196.3477  183.8100  147.5374 H   0  0  0  0  0  0  0  0  0  0  0  0
  197.4128  184.3546  145.3753 H   0  0  0  0  0  0  0  0  0  0  0  0
  199.5371  185.6509  145.3120 H   0  0  0  0  0  0  0  0  0  0  0  0
  200.5881  186.3970  147.4343 H   0  0  0  0  0  0  0  0  0  0  0  0
  199.5504  185.8737  149.5944 H   0  0  0  0  0  0  0  0  0  0  0  0
  196.9215  185.4959  155.2572 H   0  0  0  0  0  0  0  0  0  0  0  0
  1  2  2  0
  2  3  1  0
  2 24  1  0
  3  4  1  0
  3 30  1  0
  4  5  2  0
  4 19  1  0
  5  6  1  0
  5 16  1  0
  6  7  1  0
  6 31  1  0
  7  8  1  0
  7 32  1  1
  7 33  1  0
  8  9  1  0
  8 15  2  0
  9 10  2  0
  9 34  1  0
 10 11  1  0
 10 35  1  0
 11 12  1  0
 11 14  2  0
 12 13  3  0
 13 36  1  0
 14 15  1  0
 14 37  1  0
 15 38  1  0
 16 17  1  0
 16 23  2  0
 17 18  1  0
 17 20  2  0
 18 19  2  0
 18 49  1  0
 19 39  1  0
 20 21  1  0
 20 40  1  0
 21 22  2  0
 21 41  1  0
 22 23  1  0
 22 42  1  0
 23 43  1  0
 24 25  2  0
 24 29  1  0
 25 26  1  0
 25 44  1  0
 26 27  2  0
 26 45  1  0
 27 28  1  0
 27 46  1  0
 28 29  2  0
 28 47  1  0
 29 48  1  0
M  CHG  1  18   1
M  END
>  <s_epik_cmdline>  (201) 
J2VwaWtfcHl0aG9uJywgJy1waCcsICc3LjAwMDAwMCcsICctcGh0JywgJzIuMDAwMDAwJywgJy1tcycsICcxNicsICctdG4nLCAnOCcsICctbWEnLCAnMjAwJywgJy1pbWFlJywgJzxpbmZpbGUubWFlPicsICctb21hZScsICc8b3V0ZmlsZS5tYWU+Jw==

>  <s_epik_input>  (201) 
W2NIXTFbY0hdW2NIXVtjSF1bY0hdYzFDKD1PKVtOSF1jKFtjSF1uYyhjMjMpW2NIXVtjSF1bY0hdW2NIXTMpYzJbTkhdW0NIMl1jNFtjSF1bY0hdYyhDI1tDSF0pW2NIXVtjSF00

>  <s_i_glide_gridfile>  (201) 
ATP-Grid

>  <s_lp_Force_Field>  (201) 
OPLS_2005

>  <s_lp_Variant>  (201) 
rxn502c____EMOL478180____EMOL44472687____EMOL44456332-1

>  <s_lp_label>  (201) 
2853_sdstereoexpander_1_neutralizer_1_epik_1_stereoizer_1

>  <s_m_source_file>  (201) 
ATP-VSW-LIGPREP-002-in.maegz

>  <s_sd_BIOSOLVEIT.INFINISEE\_QUERY\_NAME>  (201) 
Ref-Lig

>  <s_sd_BIOSOLVEIT.INFINISEE\_QUERY\_SMILES>  (201) 
S(c1nc2c(cc1C[NH2+]Cc3ccc(cc3)C[NH+](C)C)cccc2)Cc4ccccc4

>  <s_sd_BIOSOLVEIT.INFINISEE\_REACTION\_NAME>  (201) 
rxn502c

>  <s_sd_BIOSOLVEIT.INFINISEE\_REAGENT1\_NAME>  (201) 
EMOL478180

>  <s_sd_BIOSOLVEIT.INFINISEE\_REAGENT1\_SMILES>  (201) 
[O-]C(=O)c1ccccc1

>  <s_sd_BIOSOLVEIT.INFINISEE\_REAGENT2\_NAME>  (201) 
EMOL44472687

>  <s_sd_BIOSOLVEIT.INFINISEE\_REAGENT2\_SMILES>  (201) 
Clc1c(N)cnc2c1cccc2

>  <s_sd_BIOSOLVEIT.INFINISEE\_REAGENT3\_NAME>  (201) 
EMOL44456332

>  <s_sd_BIOSOLVEIT.INFINISEE\_REAGENT3\_SMILES>  (201) 
NCc1ccc(C#C)cc1

>  <s_sd_BIOSOLVEIT.INFINISEE\_SPACE>  (201) 
eXplore_7tr_2022-12

>  <s_vsw_compound_code>  (201) 
91266

>  <s_vsw_variant>  (201) 
91266-1

>  <r_epik_Charging_Adjusted_Penalty>  (201) 
0.162169404117187

>  <r_epik_Ionization_Penalty>  (201) 
0.081100000000000005

>  <r_epik_Ionization_Penalty_Charging>  (201) 
0.081100000000000005

>  <r_epik_Ionization_Penalty_Neutral>  (201) 
0

>  <r_epik_State_Penalty>  (201) 
0.081100000000000005

>  <r_i_docking_score>  (201) 
-4.9791847261038296

>  <r_i_glide_ecoul>  (201) 
-7.0051836967468297

>  <r_i_glide_eff_state_penalty>  (201) 
0.081100000000000005

>  <r_i_glide_einternal>  (201) 
4.6809186935424796

>  <r_i_glide_emodel>  (201) 
-54.574008095110898

>  <r_i_glide_energy>  (201) 
-40.892070293426499

>  <r_i_glide_erotb>  (201) 
0.94716946352792897

>  <r_i_glide_esite>  (201) 
0

>  <r_i_glide_evdw>  (201) 
-33.886886596679702

>  <r_i_glide_gscore>  (201) 
-5.0602847261038297

>  <r_i_glide_hbond>  (201) 
-0.020211232387773701

>  <r_i_glide_ligand_efficiency>  (201) 
-0.171696025038063

>  <r_i_glide_ligand_efficiency_ln>  (201) 
-1.14010704104724

>  <r_i_glide_ligand_efficiency_sa>  (201) 
-0.52750458603573103

>  <r_i_glide_lipo>  (201) 
-1.94788422174295

>  <r_i_glide_metal>  (201) 
-0

>  <r_i_glide_rewards>  (201) 
-1.29423685115502

>  <r_lp_Energy>  (201) 
33.363450999999998

>  <r_qp_ACxDN^.5/SA>  (201) 
0.0111079

>  <r_qp_CIQPlogS>  (201) 
-6.2670000000000003

>  <r_qp_EA(eV)>  (201) 
1.008

>  <r_qp_FISA>  (201) 
74.822000000000003

>  <r_qp_FOSA>  (201) 
67.197999999999993

>  <r_qp_IP(eV)>  (201) 
8.5429999999999993

>  <r_qp_Jm>  (201) 
0.76161062826310699

>  <r_qp_PISA>  (201) 
498.524

>  <r_qp_PSA>  (201) 
57.030999999999999

>  <r_qp_PercentHumanOralAbsorption>  (201) 
100

>  <r_qp_QPPCaco>  (201) 
1933.5940000000001

>  <r_qp_QPPMDCK>  (201) 
1008.967

>  <r_qp_QPlogBB>  (201) 
-0.498

>  <r_qp_QPlogHERG>  (201) 
-6.4299999999999997

>  <r_qp_QPlogKhsa>  (201) 
0.61199999999999999

>  <r_qp_QPlogKp>  (201) 
-0.56599999999999995

>  <r_qp_QPlogPC16>  (201) 
13.817

>  <r_qp_QPlogPo/w>  (201) 
4.6269999999999998

>  <r_qp_QPlogPoct>  (201) 
20.805

>  <r_qp_QPlogPw>  (201) 
11.930999999999999

>  <r_qp_QPlogS>  (201) 
-5.1289999999999996

>  <r_qp_QPpolrz>  (201) 
42.075000000000003

>  <r_qp_SASA>  (201) 
640.54399999999998

>  <r_qp_SAamideO>  (201) 
0

>  <r_qp_SAfluorine>  (201) 
0

>  <r_qp_WPSA>  (201) 
0

>  <r_qp_accptHB>  (201) 
4.5

>  <r_qp_dip^2/V>  (201) 
0.0489693

>  <r_qp_dipole>  (201) 
7.609

>  <r_qp_donorHB>  (201) 
2.5

>  <r_qp_glob>  (201) 
0.84423380000000003

>  <r_qp_mol_MW>  (201) 
377.44499999999999

>  <r_qp_volume>  (201) 
1182.4169999999999

>  <r_sd_BIOSOLVEIT.INFINISEE\_FTREES\_SIMILARITY>  (201) 
0.90500000000000003

>  <r_sd_BIOSOLVEIT.LOGP>  (201) 
5.0804999999999998

>  <r_sd_BIOSOLVEIT.MOLECULAR\_WEIGHT>  (201) 
377.44499999999999

>  <r_sd_BIOSOLVEIT.TPSA>  (201) 
54.020000000000003

>  <i_epik_Tot_Q>  (201) 
1

>  <i_epik_Tot_abs_Q>  (201) 
1

>  <i_f3d_flags>  (201) 
0

>  <i_i_glide_confnum>  (201) 
7

>  <i_i_glide_lignum>  (201) 
1416

>  <i_i_glide_posenum>  (201) 
15

>  <i_i_glide_rotatable_bonds>  (201) 
7

>  <i_lp_mmshare_version>  (201) 
65135

>  <i_m_ct_format>  (201) 
2

>  <i_m_source_file_index>  (201) 
2853

>  <i_qp_#NandO>  (201) 
4

>  <i_qp_#acid>  (201) 
0

>  <i_qp_#amide>  (201) 
0

>  <i_qp_#amidine>  (201) 
0

>  <i_qp_#amine>  (201) 
0

>  <i_qp_#in34>  (201) 
0

>  <i_qp_#in56>  (201) 
22

>  <i_qp_#metab>  (201) 
4

>  <i_qp_#nonHatm>  (201) 
29

>  <i_qp_#noncon>  (201) 
0

>  <i_qp_#ringatoms>  (201) 
22

>  <i_qp_#rotor>  (201) 
6

>  <i_qp_#rtvFG>  (201) 
0

>  <i_qp_#stars>  (201) 
1

>  <i_qp_CNS>  (201) 
-1

>  <i_qp_HumanOralAbsorption>  (201) 
3

>  <i_qp_RuleOfFive>  (201) 
0

>  <i_qp_RuleOfThree>  (201) 
0

>  <i_sd_BIOSOLVEIT.INFINISEE\_RESULT\_RANK>  (201) 
69232

>  <i_sd_version>  (201) 
0

>  <b_lp_Chiralities_Consistent>  (201) 
1

>  <b_sd_chiral_flag>  (201) 
0

>  <canonical_id>  (201) 
ATP-HTVS-1FAE7495FCDD

>  <compound_code>  (201) 
91266

>  <title>  (201) 
rxn502c____EMOL478180____EMOL44472687____EMOL44456332

>  <variant>  (201) 
91266-1

>  <source_file>  (201) 
运行/运行/ATP-VSW/ATP-VSW-DOCK_HTVS_1-002_lib.maegz

>  <canonical_smiles>  (201) 
C#Cc1ccc(CNc2c(NC(=O)c3ccccc3)c[nH+]c3ccccc23)cc1

>  <scaffold>  (201) 
O=C(Nc1c[nH+]c2ccccc2c1NCc1ccccc1)c1ccccc1

>  <molecular_formula>  (201) 
C25H20N3O+

$$$$
ATP-HTVS-1FED3714464D
     RDKit          3D

 60 63  0  0  0  0  0  0  0  0999 V2000
  200.2805  180.6710  154.6982 O   0  0  0  0  0  0  0  0  0  0  0  0
  200.8800  180.2153  155.6747 C   0  0  0  0  0  0  0  0  0  0  0  0
  201.2455  180.9061  156.7744 N   0  0  0  0  0  0  0  0  0  0  0  0
  201.1610  182.3099  157.0316 C   0  0  0  0  0  0  0  0  0  0  0  0
  200.7886  183.1907  156.0756 N   0  0  0  0  0  0  0  0  0  0  0  0
  200.7157  184.4996  156.3569 C   0  0  0  0  0  0  0  0  0  0  0  0
  201.0463  185.0644  157.6053 C   0  0  0  0  0  0  0  0  0  0  0  0
  200.9261  186.4587  157.8094 N   0  0  0  0  0  0  0  0  0  0  0  0
  199.7977  186.9758  158.6068 C   0  0  1  0  0  0  0  0  0  0  0  0
  198.4557  186.2318  158.5659 C   0  0  0  0  0  0  0  0  0  0  0  0
  197.6111  186.2388  159.7123 C   0  0  0  0  0  0  0  0  0  0  0  0
  196.4087  185.4866  159.7306 C   0  0  0  0  0  0  0  0  0  0  0  0
  196.0543  184.7276  158.5861 C   0  0  0  0  0  0  0  0  0  0  0  0
  196.8663  184.8247  157.4272 C   0  0  0  0  0  0  0  0  0  0  0  0
  198.0412  185.5726  157.3886 C   0  0  0  0  0  0  0  0  0  0  0  0
  194.8006  183.8544  158.5842 C   0  0  1  0  0  0  0  0  0  0  0  0
  195.0985  182.4088  158.4891 N   0  0  1  0  0  0  0  0  0  0  0  0
  193.8597  181.5944  158.4214 C   0  0  2  0  0  0  0  0  0  0  0  0
  196.0133  182.1069  157.3578 C   0  0  2  0  0  0  0  0  0  0  0  0
  201.4717  184.1606  158.6108 C   0  0  0  0  0  0  0  0  0  0  0  0
  201.5360  182.7674  158.3280 C   0  0  0  0  0  0  0  0  0  0  0  0
  202.0001  181.8777  159.3329 C   0  0  0  0  0  0  0  0  0  0  0  0
  202.3783  182.3690  160.5971 C   0  0  0  0  0  0  0  0  0  0  0  0
  202.2787  183.7411  160.8857 C   0  0  0  0  0  0  0  0  0  0  0  0
  201.8266  184.6294  159.8935 C   0  0  0  0  0  0  0  0  0  0  0  0
  201.2851  178.7723  155.6967 C   0  0  0  0  0  0  0  0  0  0  0  0
  201.0158  177.9688  156.8279 C   0  0  0  0  0  0  0  0  0  0  0  0
  201.3803  176.6090  156.8338 C   0  0  0  0  0  0  0  0  0  0  0  0
  202.0241  176.0398  155.7157 C   0  0  0  0  0  0  0  0  0  0  0  0
  202.4212  174.6415  155.7360 C   0  0  0  0  0  0  0  0  0  0  0  0
  202.7640  173.4666  155.7457 C   0  0  0  0  0  0  0  0  0  0  0  0
  202.2939  176.8386  154.5850 C   0  0  0  0  0  0  0  0  0  0  0  0
  201.9197  178.1972  154.5719 C   0  0  0  0  0  0  0  0  0  0  0  0
  201.7340  180.3673  157.4695 H   0  0  0  0  0  0  0  0  0  0  0  0
  200.4254  185.1371  155.5191 H   0  0  0  0  0  0  0  0  0  0  0  0
  201.2738  187.0771  157.0818 H   0  0  0  0  0  0  0  0  0  0  0  0
  200.1277  187.1215  159.6417 H   0  0  0  0  0  0  0  0  0  0  0  0
  199.5854  187.9742  158.2319 H   0  0  0  0  0  0  0  0  0  0  0  0
  197.8777  186.8809  160.5447 H   0  0  0  0  0  0  0  0  0  0  0  0
  195.7771  185.4901  160.6212 H   0  0  0  0  0  0  0  0  0  0  0  0
  196.6028  184.2544  156.5346 H   0  0  0  0  0  0  0  0  0  0  0  0
  198.6467  185.5958  156.4903 H   0  0  0  0  0  0  0  0  0  0  0  0
  194.2251  184.0508  159.4754 H   0  0  0  0  0  0  0  0  0  0  0  0
  194.1568  184.1552  157.7634 H   0  0  0  0  0  0  0  0  0  0  0  0
  193.2275  181.8409  157.5732 H   0  0  0  0  0  0  0  0  0  0  0  0
  193.2505  181.7311  159.3179 H   0  0  0  0  0  0  0  0  0  0  0  0
  194.0657  180.5339  158.3841 H   0  0  0  0  0  0  0  0  0  0  0  0
  195.5741  182.3280  156.3745 H   0  0  0  0  0  0  0  0  0  0  0  0
  196.1963  181.0656  157.2913 H   0  0  0  0  0  0  0  0  0  0  0  0
  197.0171  182.5665  157.4469 H   0  0  0  0  0  0  0  0  0  0  0  0
  202.0973  180.8153  159.1549 H   0  0  0  0  0  0  0  0  0  0  0  0
  202.7379  181.6810  161.3522 H   0  0  0  0  0  0  0  0  0  0  0  0
  202.5735  184.1176  161.8575 H   0  0  0  0  0  0  0  0  0  0  0  0
  201.7815  185.6801  160.1189 H   0  0  0  0  0  0  0  0  0  0  0  0
  200.5165  178.3870  157.6918 H   0  0  0  0  0  0  0  0  0  0  0  0
  201.1609  176.0089  157.7038 H   0  0  0  0  0  0  0  0  0  0  0  0
  203.0410  172.4356  155.7289 H   0  0  0  0  0  0  0  0  0  0  0  0
  202.7940  176.4153  153.7270 H   0  0  0  0  0  0  0  0  0  0  0  0
  202.1294  178.8035  153.7018 H   0  0  0  0  0  0  0  0  0  0  0  0
  195.5982  182.1255  159.3197 H   0  0  0  0  0  0  0  0  0  0  0  0
  1  2  2  0
  2  3  1  0
  2 26  1  0
  3  4  1  0
  3 34  1  0
  4  5  1  0
  4 21  2  0
  5  6  2  0
  6  7  1  0
  6 35  1  0
  7  8  1  0
  7 20  2  0
  8  9  1  0
  8 36  1  0
  9 10  1  0
  9 37  1  1
  9 38  1  0
 10 11  1  0
 10 15  2  0
 11 12  2  0
 11 39  1  0
 12 13  1  0
 12 40  1  0
 13 14  2  0
 13 16  1  0
 14 15  1  0
 14 41  1  0
 15 42  1  0
 16 17  1  0
 16 43  1  1
 16 44  1  0
 17 18  1  0
 17 19  1  0
 17 60  1  1
 18 45  1  6
 18 46  1  0
 18 47  1  0
 19 48  1  6
 19 49  1  0
 19 50  1  0
 20 21  1  0
 20 25  1  0
 21 22  1  0
 22 23  2  0
 22 51  1  0
 23 24  1  0
 23 52  1  0
 24 25  2  0
 24 53  1  0
 25 54  1  0
 26 27  1  0
 26 33  2  0
 27 28  2  0
 27 55  1  0
 28 29  1  0
 28 56  1  0
 29 30  1  0
 29 32  2  0
 30 31  3  0
 31 57  1  0
 32 33  1  0
 32 58  1  0
 33 59  1  0
M  CHG  1  17   1
M  END
>  <s_epik_cmdline>  (202) 
J2VwaWtfcHl0aG9uJywgJy1waCcsICc3LjAwMDAwMCcsICctcGh0JywgJzIuMDAwMDAwJywgJy1tcycsICcxNicsICctdG4nLCAnOCcsICctbWEnLCAnMjAwJywgJy1pbWFlJywgJzxpbmZpbGUubWFlPicsICctb21hZScsICc8b3V0ZmlsZS5tYWU+Jw==

>  <s_epik_input>  (202) 
W0NIXSNDYyhbY0hdW2NIXTEpW2NIXVtjSF1jMUMoPU8pW05IXWMoYyhjMjMpW2NIXVtjSF1bY0hdW2NIXTMpbltjSF1jMltOSF1bQ0gyXWM0W2NIXVtjSF1jKFtjSF1bY0hdNClbQ0gyXU4oW0NIM10pW0NIM10=

>  <s_i_glide_gridfile>  (202) 
ATP-Grid

>  <s_lp_Force_Field>  (202) 
OPLS_2005

>  <s_lp_Variant>  (202) 
rxn502c____EMOL31600616____EMOL29936549____EMOL50155899-1

>  <s_lp_label>  (202) 
2198_sdstereoexpander_1_neutralizer_1_epik_1_stereoizer_1

>  <s_m_source_file>  (202) 
ATP-VSW-LIGPREP-002-in.maegz

>  <s_sd_BIOSOLVEIT.INFINISEE\_QUERY\_NAME>  (202) 
Ref-Lig

>  <s_sd_BIOSOLVEIT.INFINISEE\_QUERY\_SMILES>  (202) 
S(c1nc2c(cc1C[NH2+]Cc3ccc(cc3)C[NH+](C)C)cccc2)Cc4ccccc4

>  <s_sd_BIOSOLVEIT.INFINISEE\_REACTION\_NAME>  (202) 
rxn502c

>  <s_sd_BIOSOLVEIT.INFINISEE\_REAGENT1\_NAME>  (202) 
EMOL31600616

>  <s_sd_BIOSOLVEIT.INFINISEE\_REAGENT1\_SMILES>  (202) 
O=C(O)c1ccc(C#C)cc1

>  <s_sd_BIOSOLVEIT.INFINISEE\_REAGENT2\_NAME>  (202) 
EMOL29936549

>  <s_sd_BIOSOLVEIT.INFINISEE\_REAGENT2\_SMILES>  (202) 
Clc1c2c(c(nc1)N)cccc2

>  <s_sd_BIOSOLVEIT.INFINISEE\_REAGENT3\_NAME>  (202) 
EMOL50155899

>  <s_sd_BIOSOLVEIT.INFINISEE\_REAGENT3\_SMILES>  (202) 
N(Cc1ccc(cc1)CN)(C)C

>  <s_sd_BIOSOLVEIT.INFINISEE\_SPACE>  (202) 
eXplore_7tr_2022-12

>  <s_vsw_compound_code>  (202) 
70306

>  <s_vsw_variant>  (202) 
70306-1

>  <r_epik_Charging_Adjusted_Penalty>  (202) 
0.078407994868761793

>  <r_epik_Ionization_Penalty>  (202) 
0.039300000000000002

>  <r_epik_Ionization_Penalty_Charging>  (202) 
0.039199999999999999

>  <r_epik_Ionization_Penalty_Neutral>  (202) 
0.0001

>  <r_epik_State_Penalty>  (202) 
0.039199999999999999

>  <r_i_docking_score>  (202) 
-4.3217661668907503

>  <r_i_glide_ecoul>  (202) 
-6.5900683403015101

>  <r_i_glide_eff_state_penalty>  (202) 
0.039199999999999999

>  <r_i_glide_einternal>  (202) 
8.2329311370849592

>  <r_i_glide_emodel>  (202) 
-45.652560810181697

>  <r_i_glide_energy>  (202) 
-35.608380794525097

>  <r_i_glide_erotb>  (202) 
0.84030275005691701

>  <r_i_glide_esite>  (202) 
-0.074623426954209801

>  <r_i_glide_evdw>  (202) 
-29.018312454223601

>  <r_i_glide_gscore>  (202) 
-4.3609661668907496

>  <r_i_glide_hbond>  (202) 
0

>  <r_i_glide_ligand_efficiency>  (202) 
-0.130962611117902

>  <r_i_glide_ligand_efficiency_ln>  (202) 
-0.96113841860887805

>  <r_i_glide_ligand_efficiency_sa>  (202) 
-0.42006707061697302

>  <r_i_glide_lipo>  (202) 
-2.0227208435097799

>  <r_i_glide_metal>  (202) 
-0

>  <r_i_glide_rewards>  (202) 
-0.66449877272727098

>  <r_lp_Energy>  (202) 
29.858597

>  <r_qp_ACxDN^.5/SA>  (202) 
0.0128316

>  <r_qp_CIQPlogS>  (202) 
-5.6219999999999999

>  <r_qp_EA(eV)>  (202) 
0.89500000000000002

>  <r_qp_FISA>  (202) 
67.355999999999995

>  <r_qp_FOSA>  (202) 
249.886

>  <r_qp_IP(eV)>  (202) 
7.7619999999999996

>  <r_qp_Jm>  (202) 
0.0034526943737182201

>  <r_qp_PISA>  (202) 
483.70100000000002

>  <r_qp_PSA>  (202) 
61.609000000000002

>  <r_qp_PercentHumanOralAbsorption>  (202) 
100

>  <r_qp_QPPCaco>  (202) 
567.62800000000004

>  <r_qp_QPPMDCK>  (202) 
296.75799999999998

>  <r_qp_QPlogBB>  (202) 
-0.26900000000000002

>  <r_qp_QPlogHERG>  (202) 
-8.218

>  <r_qp_QPlogKhsa>  (202) 
0.84899999999999998

>  <r_qp_QPlogKp>  (202) 
-2.351

>  <r_qp_QPlogPC16>  (202) 
16.329999999999998

>  <r_qp_QPlogPo/w>  (202) 
4.9950000000000001

>  <r_qp_QPlogPoct>  (202) 
24.545999999999999

>  <r_qp_QPlogPw>  (202) 
13.694000000000001

>  <r_qp_QPlogS>  (202) 
-5.7480000000000002

>  <r_qp_QPpolrz>  (202) 
51.439

>  <r_qp_SASA>  (202) 
800.94299999999998

>  <r_qp_SAamideO>  (202) 
0

>  <r_qp_SAfluorine>  (202) 
0

>  <r_qp_WPSA>  (202) 
0

>  <r_qp_accptHB>  (202) 
6.5

>  <r_qp_dip^2/V>  (202) 
0.028931399999999999

>  <r_qp_dipole>  (202) 
6.4809999999999999

>  <r_qp_donorHB>  (202) 
2.5

>  <r_qp_glob>  (202) 
0.77425109999999997

>  <r_qp_mol_MW>  (202) 
434.54000000000002

>  <r_qp_volume>  (202) 
1452.0360000000001

>  <r_sd_BIOSOLVEIT.INFINISEE\_FTREES\_SIMILARITY>  (202) 
0.93300000000000005

>  <r_sd_BIOSOLVEIT.LOGP>  (202) 
3.7250000000000001

>  <r_sd_BIOSOLVEIT.MOLECULAR\_WEIGHT>  (202) 
435.548

>  <r_sd_BIOSOLVEIT.TPSA>  (202) 
58.460000000000001

>  <i_epik_Tot_Q>  (202) 
1

>  <i_epik_Tot_abs_Q>  (202) 
1

>  <i_f3d_flags>  (202) 
0

>  <i_i_glide_confnum>  (202) 
4

>  <i_i_glide_lignum>  (202) 
832

>  <i_i_glide_posenum>  (202) 
19

>  <i_i_glide_rotatable_bonds>  (202) 
9

>  <i_lp_mmshare_version>  (202) 
65135

>  <i_m_ct_format>  (202) 
2

>  <i_m_source_file_index>  (202) 
2198

>  <i_qp_#NandO>  (202) 
5

>  <i_qp_#acid>  (202) 
0

>  <i_qp_#amide>  (202) 
0

>  <i_qp_#amidine>  (202) 
0

>  <i_qp_#amine>  (202) 
1

>  <i_qp_#in34>  (202) 
0

>  <i_qp_#in56>  (202) 
22

>  <i_qp_#metab>  (202) 
7

>  <i_qp_#nonHatm>  (202) 
33

>  <i_qp_#noncon>  (202) 
0

>  <i_qp_#ringatoms>  (202) 
22

>  <i_qp_#rotor>  (202) 
8

>  <i_qp_#rtvFG>  (202) 
0

>  <i_qp_#stars>  (202) 
2

>  <i_qp_CNS>  (202) 
0

>  <i_qp_HumanOralAbsorption>  (202) 
3

>  <i_qp_RuleOfFive>  (202) 
0

>  <i_qp_RuleOfThree>  (202) 
2

>  <i_sd_BIOSOLVEIT.INFINISEE\_RESULT\_RANK>  (202) 
3447

>  <i_sd_version>  (202) 
0

>  <b_lp_Chiralities_Consistent>  (202) 
1

>  <b_sd_chiral_flag>  (202) 
0

>  <canonical_id>  (202) 
ATP-HTVS-1FED3714464D

>  <compound_code>  (202) 
70306

>  <title>  (202) 
rxn502c____EMOL31600616____EMOL29936549____EMOL50155899

>  <variant>  (202) 
70306-1

>  <source_file>  (202) 
运行/运行/ATP-VSW/ATP-VSW-DOCK_HTVS_1-002_lib.maegz

>  <canonical_smiles>  (202) 
C#Cc1ccc(C(=O)Nc2ncc(NCc3ccc(C[NH+](C)C)cc3)c3ccccc23)cc1

>  <scaffold>  (202) 
O=C(Nc1ncc(NCc2ccccc2)c2ccccc12)c1ccccc1

>  <molecular_formula>  (202) 
C28H27N4O+

$$$$
ATP-HTVS-1FF6C325CA7A
     RDKit          3D

 63 67  0  0  0  0  0  0  0  0999 V2000
  196.4022  181.2564  152.3051 O   0  0  0  0  0  0  0  0  0  0  0  0
  197.2574  180.5252  152.8083 C   0  0  0  0  0  0  0  0  0  0  0  0
  197.7664  179.4435  152.1857 N   0  0  0  0  0  0  0  0  0  0  0  0
  197.8094  179.1940  150.7896 C   0  0  0  0  0  0  0  0  0  0  0  0
  198.9765  178.6304  150.2123 C   0  0  0  0  0  0  0  0  0  0  0  0
  200.1296  178.4578  151.0078 N   0  0  0  0  0  0  0  0  0  0  0  0
  200.5088  177.2603  151.6618 C   0  0  0  0  0  0  0  0  0  0  0  0
  199.7978  176.0595  151.4014 C   0  0  0  0  0  0  0  0  0  0  0  0
  200.1217  174.8616  152.0737 C   0  0  0  0  0  0  0  0  0  0  0  0
  201.1545  174.8438  153.0297 C   0  0  0  0  0  0  0  0  0  0  0  0
  201.8770  176.0223  153.2918 C   0  0  0  0  0  0  0  0  0  0  0  0
  201.5659  177.2114  152.6076 C   0  0  0  0  0  0  0  0  0  0  0  0
  200.9509  179.6715  151.1514 C   0  0  1  0  0  0  0  0  0  0  0  0
  202.0478  179.7258  150.1693 C   0  0  0  0  0  0  0  0  0  0  0  0
  202.9108  179.7663  149.3982 N   0  0  0  0  0  0  0  0  0  0  0  0
  198.9539  178.3269  148.8217 C   0  0  0  0  0  0  0  0  0  0  0  0
  197.7666  178.5949  148.0843 C   0  0  0  0  0  0  0  0  0  0  0  0
  196.6666  179.1250  148.6568 N   0  0  0  0  0  0  0  0  0  0  0  0
  196.6959  179.4320  149.9660 C   0  0  0  0  0  0  0  0  0  0  0  0
  197.7316  178.3011  146.7053 C   0  0  0  0  0  0  0  0  0  0  0  0
  198.8519  177.7658  146.0535 C   0  0  0  0  0  0  0  0  0  0  0  0
  200.0116  177.4668  146.7835 C   0  0  0  0  0  0  0  0  0  0  0  0
  200.0702  177.7573  148.1615 C   0  0  0  0  0  0  0  0  0  0  0  0
  197.8190  180.8052  154.1842 C   0  0  0  0  0  0  0  0  0  0  0  0
  197.3480  181.9145  154.9235 C   0  0  0  0  0  0  0  0  0  0  0  0
  197.9112  182.2324  156.1815 C   0  0  0  0  0  0  0  0  0  0  0  0
  198.9425  181.4339  156.7032 C   0  0  0  0  0  0  0  0  0  0  0  0
  199.4282  180.3366  155.9781 C   0  0  0  0  0  0  0  0  0  0  0  0
  198.8864  180.0313  154.7179 C   0  0  0  0  0  0  0  0  0  0  0  0
  197.3855  183.3983  156.9955 C   0  0  1  0  0  0  0  0  0  0  0  0
  196.0126  183.1806  157.4804 N   0  0  1  0  0  0  0  0  0  0  0  0
  195.7187  181.8517  158.0390 C   0  0  1  0  0  0  0  0  0  0  0  0
  194.3822  181.9760  158.7500 C   0  0  1  0  0  0  0  0  0  0  0  0
  194.2508  183.4721  159.0681 C   0  0  1  0  0  0  0  0  0  0  0  0
  195.5211  184.1144  158.5233 C   0  0  1  0  0  0  0  0  0  0  0  0
  198.4520  178.9267  152.7237 H   0  0  0  0  0  0  0  0  0  0  0  0
  198.9969  176.0314  150.6770 H   0  0  0  0  0  0  0  0  0  0  0  0
  199.5680  173.9550  151.8641 H   0  0  0  0  0  0  0  0  0  0  0  0
  201.4016  173.9319  153.5589 H   0  0  0  0  0  0  0  0  0  0  0  0
  202.6718  176.0212  154.0246 H   0  0  0  0  0  0  0  0  0  0  0  0
  202.1732  178.0627  152.8587 H   0  0  0  0  0  0  0  0  0  0  0  0
  200.3323  180.5555  150.9688 H   0  0  0  0  0  0  0  0  0  0  0  0
  201.3516  179.8214  152.1426 H   0  0  0  0  0  0  0  0  0  0  0  0
  195.7797  179.8540  150.3563 H   0  0  0  0  0  0  0  0  0  0  0  0
  196.8363  178.5052  146.1376 H   0  0  0  0  0  0  0  0  0  0  0  0
  198.8032  177.5344  144.9909 H   0  0  0  0  0  0  0  0  0  0  0  0
  200.8533  177.0153  146.2747 H   0  0  0  0  0  0  0  0  0  0  0  0
  200.9795  177.5228  148.6926 H   0  0  0  0  0  0  0  0  0  0  0  0
  196.5433  182.5234  154.5346 H   0  0  0  0  0  0  0  0  0  0  0  0
  199.3591  181.6405  157.6768 H   0  0  0  0  0  0  0  0  0  0  0  0
  200.2157  179.7212  156.3828 H   0  0  0  0  0  0  0  0  0  0  0  0
  199.3306  179.2014  154.1820 H   0  0  0  0  0  0  0  0  0  0  0  0
  198.0476  183.5457  157.8493 H   0  0  0  0  0  0  0  0  0  0  0  0
  197.4333  184.3197  156.4196 H   0  0  0  0  0  0  0  0  0  0  0  0
  195.6965  181.0919  157.2481 H   0  0  0  0  0  0  0  0  0  0  0  0
  196.5055  181.5775  158.7654 H   0  0  0  0  0  0  0  0  0  0  0  0
  193.5761  181.6555  158.0852 H   0  0  0  0  0  0  0  0  0  0  0  0
  194.3512  181.3396  159.6307 H   0  0  0  0  0  0  0  0  0  0  0  0
  193.3729  183.8795  158.5647 H   0  0  0  0  0  0  0  0  0  0  0  0
  194.1536  183.6682  160.1285 H   0  0  0  0  0  0  0  0  0  0  0  0
  196.2760  184.1595  159.3223 H   0  0  0  0  0  0  0  0  0  0  0  0
  195.3779  185.1235  158.1404 H   0  0  0  0  0  0  0  0  0  0  0  0
  195.3508  183.2298  156.7014 H   0  0  0  0  0  0  0  0  0  0  0  0
  1  2  2  0
  2  3  1  0
  2 24  1  0
  3  4  1  0
  3 36  1  0
  4  5  2  0
  4 19  1  0
  5  6  1  0
  5 16  1  0
  6  7  1  0
  6 13  1  0
  7  8  2  0
  7 12  1  0
  8  9  1  0
  8 37  1  0
  9 10  2  0
  9 38  1  0
 10 11  1  0
 10 39  1  0
 11 12  2  0
 11 40  1  0
 12 41  1  0
 13 14  1  0
 13 42  1  6
 13 43  1  0
 14 15  3  0
 16 17  1  0
 16 23  2  0
 17 18  1  0
 17 20  2  0
 18 19  2  0
 19 44  1  0
 20 21  1  0
 20 45  1  0
 21 22  2  0
 21 46  1  0
 22 23  1  0
 22 47  1  0
 23 48  1  0
 24 25  2  0
 24 29  1  0
 25 26  1  0
 25 49  1  0
 26 27  2  0
 26 30  1  0
 27 28  1  0
 27 50  1  0
 28 29  2  0
 28 51  1  0
 29 52  1  0
 30 31  1  0
 30 53  1  1
 30 54  1  0
 31 32  1  0
 31 35  1  0
 31 63  1  6
 32 33  1  0
 32 55  1  6
 32 56  1  0
 33 34  1  0
 33 57  1  6
 33 58  1  0
 34 35  1  0
 34 59  1  6
 34 60  1  0
 35 61  1  1
 35 62  1  0
M  CHG  1  31   1
M  END
>  <s_epik_cmdline>  (203) 
J2VwaWtfcHl0aG9uJywgJy1waCcsICc3LjAwMDAwMCcsICctcGh0JywgJzIuMDAwMDAwJywgJy1tcycsICcxNicsICctdG4nLCAnOCcsICctbWEnLCAnMjAwJywgJy1pbWFlJywgJzxpbmZpbGUubWFlPicsICctb21hZScsICc8b3V0ZmlsZS5tYWU+Jw==

>  <s_epik_input>  (203) 
W0NIMl0xW0NIMl1bQ0gyXVtDSDJdTjFbQ0gyXWMoW2NIXVtjSF1bY0hdMilbY0hdYzJDKD1PKVtOSF1jKFtjSF1uYyhjMzQpW2NIXVtjSF1bY0hdW2NIXTQpYzNOKFtDSDJdQyNOKWM1W2NIXVtjSF1bY0hdW2NIXVtjSF01

>  <s_i_glide_gridfile>  (203) 
ATP-Grid

>  <s_lp_Force_Field>  (203) 
OPLS_2005

>  <s_lp_Variant>  (203) 
rxn502b____EMOL5849923____EMOL30488121____EMOL712348-1

>  <s_lp_label>  (203) 
2705_sdstereoexpander_1_neutralizer_1_epik_1_stereoizer_1

>  <s_m_source_file>  (203) 
ATP-VSW-LIGPREP-002-in.maegz

>  <s_sd_BIOSOLVEIT.INFINISEE\_QUERY\_NAME>  (203) 
Ref-Lig

>  <s_sd_BIOSOLVEIT.INFINISEE\_QUERY\_SMILES>  (203) 
S(c1nc2c(cc1C[NH2+]Cc3ccc(cc3)C[NH+](C)C)cccc2)Cc4ccccc4

>  <s_sd_BIOSOLVEIT.INFINISEE\_REACTION\_NAME>  (203) 
rxn502b

>  <s_sd_BIOSOLVEIT.INFINISEE\_REAGENT1\_NAME>  (203) 
EMOL5849923

>  <s_sd_BIOSOLVEIT.INFINISEE\_REAGENT1\_SMILES>  (203) 
O=C(O)c1cc(ccc1)CN2CCCC2

>  <s_sd_BIOSOLVEIT.INFINISEE\_REAGENT2\_NAME>  (203) 
EMOL30488121

>  <s_sd_BIOSOLVEIT.INFINISEE\_REAGENT2\_SMILES>  (203) 
Brc1c(N)cnc2c1cccc2

>  <s_sd_BIOSOLVEIT.INFINISEE\_REAGENT3\_NAME>  (203) 
EMOL712348

>  <s_sd_BIOSOLVEIT.INFINISEE\_REAGENT3\_SMILES>  (203) 
N#CCNc1ccccc1

>  <s_sd_BIOSOLVEIT.INFINISEE\_SPACE>  (203) 
eXplore_7tr_2022-12

>  <s_vsw_compound_code>  (203) 
86530

>  <s_vsw_variant>  (203) 
86530-1

>  <r_epik_Charging_Adjusted_Penalty>  (203) 
0.037443522510738098

>  <r_epik_Ionization_Penalty>  (203) 
0.026200000000000001

>  <r_epik_Ionization_Penalty_Charging>  (203) 
0.0115

>  <r_epik_Ionization_Penalty_Neutral>  (203) 
0.0147

>  <r_epik_State_Penalty>  (203) 
0.025899999999999999

>  <r_i_docking_score>  (203) 
-3.4830616863727801

>  <r_i_glide_ecoul>  (203) 
-5.6297488212585396

>  <r_i_glide_eff_state_penalty>  (203) 
0.025899999999999999

>  <r_i_glide_einternal>  (203) 
8.6880464553833008

>  <r_i_glide_emodel>  (203) 
-47.244932206339499

>  <r_i_glide_energy>  (203) 
-39.571330547332799

>  <r_i_glide_erotb>  (203) 
0.65904907820893499

>  <r_i_glide_esite>  (203) 
-0.054732411774428301

>  <r_i_glide_evdw>  (203) 
-33.941581726074197

>  <r_i_glide_gscore>  (203) 
-3.5089616863727802

>  <r_i_glide_hbond>  (203) 
-0.17907863795682899

>  <r_i_glide_ligand_efficiency>  (203) 
-0.099516048182079403

>  <r_i_glide_ligand_efficiency_ln>  (203) 
-0.76460934254801205

>  <r_i_glide_ligand_efficiency_sa>  (203) 
-0.32552359214572102

>  <r_i_glide_lipo>  (203) 
-1.0702122431221599

>  <r_i_glide_metal>  (203) 
-0

>  <r_i_glide_rewards>  (203) 
-0.32244606223580602

>  <r_lp_Energy>  (203) 
52.089280000000002

>  <r_qp_ACxDN^.5/SA>  (203) 
0.010562

>  <r_qp_CIQPlogS>  (203) 
-6.9000000000000004

>  <r_qp_EA(eV)>  (203) 
1.3580000000000001

>  <r_qp_FISA>  (203) 
88.867999999999995

>  <r_qp_FOSA>  (203) 
193.29599999999999

>  <r_qp_IP(eV)>  (203) 
8.718

>  <r_qp_Jm>  (203) 
0.0069366324020983796

>  <r_qp_PISA>  (203) 
427.92500000000001

>  <r_qp_PSA>  (203) 
72.843999999999994

>  <r_qp_PercentHumanOralAbsorption>  (203) 
100

>  <r_qp_QPPCaco>  (203) 
354.86500000000001

>  <r_qp_QPPMDCK>  (203) 
178.608

>  <r_qp_QPlogBB>  (203) 
-0.34000000000000002

>  <r_qp_QPlogHERG>  (203) 
-6.7240000000000002

>  <r_qp_QPlogKhsa>  (203) 
0.59399999999999997

>  <r_qp_QPlogKp>  (203) 
-2.944

>  <r_qp_QPlogPC16>  (203) 
14.962999999999999

>  <r_qp_QPlogPo/w>  (203) 
4.2690000000000001

>  <r_qp_QPlogPoct>  (203) 
22.381

>  <r_qp_QPlogPw>  (203) 
12.031000000000001

>  <r_qp_QPlogS>  (203) 
-4.8789999999999996

>  <r_qp_QPpolrz>  (203) 
48.609999999999999

>  <r_qp_SASA>  (203) 
710.08900000000006

>  <r_qp_SAamideO>  (203) 
0

>  <r_qp_SAfluorine>  (203) 
0

>  <r_qp_WPSA>  (203) 
0

>  <r_qp_accptHB>  (203) 
7.5

>  <r_qp_dip^2/V>  (203) 
0.037932899999999999

>  <r_qp_dipole>  (203) 
7.2729999999999997

>  <r_qp_donorHB>  (203) 
1

>  <r_qp_glob>  (203) 
0.85015269999999998

>  <r_qp_mol_MW>  (203) 
461.565

>  <r_qp_volume>  (203) 
1394.6569999999999

>  <r_sd_BIOSOLVEIT.INFINISEE\_FTREES\_SIMILARITY>  (203) 
0.90800000000000003

>  <r_sd_BIOSOLVEIT.LOGP>  (203) 
4.3274800000000004

>  <r_sd_BIOSOLVEIT.MOLECULAR\_WEIGHT>  (203) 
462.57400000000001

>  <r_sd_BIOSOLVEIT.TPSA>  (203) 
73.459999999999994

>  <i_epik_Tot_Q>  (203) 
1

>  <i_epik_Tot_abs_Q>  (203) 
1

>  <i_f3d_flags>  (203) 
0

>  <i_i_glide_confnum>  (203) 
5

>  <i_i_glide_lignum>  (203) 
1305

>  <i_i_glide_posenum>  (203) 
2

>  <i_i_glide_rotatable_bonds>  (203) 
8

>  <i_lp_mmshare_version>  (203) 
65135

>  <i_m_ct_format>  (203) 
2

>  <i_m_source_file_index>  (203) 
2705

>  <i_qp_#NandO>  (203) 
6

>  <i_qp_#acid>  (203) 
0

>  <i_qp_#amide>  (203) 
0

>  <i_qp_#amidine>  (203) 
0

>  <i_qp_#amine>  (203) 
1

>  <i_qp_#in34>  (203) 
0

>  <i_qp_#in56>  (203) 
27

>  <i_qp_#metab>  (203) 
6

>  <i_qp_#nonHatm>  (203) 
35

>  <i_qp_#noncon>  (203) 
4

>  <i_qp_#ringatoms>  (203) 
27

>  <i_qp_#rotor>  (203) 
8

>  <i_qp_#rtvFG>  (203) 
0

>  <i_qp_#stars>  (203) 
0

>  <i_qp_CNS>  (203) 
1

>  <i_qp_HumanOralAbsorption>  (203) 
3

>  <i_qp_RuleOfFive>  (203) 
0

>  <i_qp_RuleOfThree>  (203) 
0

>  <i_sd_BIOSOLVEIT.INFINISEE\_RESULT\_RANK>  (203) 
53106

>  <i_sd_version>  (203) 
0

>  <b_lp_Chiralities_Consistent>  (203) 
1

>  <b_sd_chiral_flag>  (203) 
0

>  <canonical_id>  (203) 
ATP-HTVS-1FF6C325CA7A

>  <compound_code>  (203) 
86530

>  <title>  (203) 
rxn502b____EMOL5849923____EMOL30488121____EMOL712348

>  <variant>  (203) 
86530-1

>  <source_file>  (203) 
运行/运行/ATP-VSW/ATP-VSW-DOCK_HTVS_1-002_lib.maegz

>  <canonical_smiles>  (203) 
N#CCN(c1ccccc1)c1c(NC(=O)c2cccc(C[NH+]3CCCC3)c2)cnc2ccccc12

>  <scaffold>  (203) 
O=C(Nc1cnc2ccccc2c1Nc1ccccc1)c1cccc(C[NH+]2CCCC2)c1

>  <molecular_formula>  (203) 
C29H28N5O+

$$$$
ATP-HTVS-203210320F32
     RDKit          3D

 62 66  0  0  0  0  0  0  0  0999 V2000
  200.3774  181.6976  157.0377 O   0  0  0  0  0  0  0  0  0  0  0  0
  199.2671  181.4742  156.5572 C   0  0  0  0  0  0  0  0  0  0  0  0
  198.1005  181.9827  157.0094 N   0  0  0  0  0  0  0  0  0  0  0  0
  197.8796  183.1216  157.8400 C   0  0  0  0  0  0  0  0  0  0  0  0
  198.8652  184.0078  158.1183 N   0  0  0  0  0  0  0  0  0  0  0  0
  198.5922  185.1115  158.8431 C   0  0  0  0  0  0  0  0  0  0  0  0
  197.3207  185.4153  159.3599 C   0  0  0  0  0  0  0  0  0  0  0  0
  197.1454  186.5730  160.1266 N   0  0  0  0  0  0  0  0  0  0  0  0
  196.2392  187.6178  159.6685 C   0  0  1  0  0  0  0  0  0  0  0  0
  196.8940  188.9711  159.5571 C   0  0  0  0  0  0  0  0  0  0  0  0
  197.5520  189.3411  158.3699 C   0  0  0  0  0  0  0  0  0  0  0  0
  198.1674  190.6039  158.2671 C   0  0  0  0  0  0  0  0  0  0  0  0
  198.1382  191.5051  159.3544 C   0  0  0  0  0  0  0  0  0  0  0  0
  198.7753  192.7491  159.2055 N   0  0  0  0  0  0  0  0  0  0  0  0
  198.8983  193.6857  160.3187 C   0  0  1  0  0  0  0  0  0  0  0  0
  199.1495  195.1180  159.8396 C   0  0  1  0  0  0  0  0  0  0  0  0
  199.0060  196.0052  160.9314 O   0  0  0  0  0  0  0  0  0  0  0  0
  197.4680  191.1193  160.5408 C   0  0  0  0  0  0  0  0  0  0  0  0
  196.8462  189.8654  160.6407 C   0  0  0  0  0  0  0  0  0  0  0  0
  196.2804  184.4949  159.0905 C   0  0  0  0  0  0  0  0  0  0  0  0
  196.5551  183.3369  158.3154 C   0  0  0  0  0  0  0  0  0  0  0  0
  195.4998  182.4277  158.0532 C   0  0  0  0  0  0  0  0  0  0  0  0
  194.2035  182.6803  158.5373 C   0  0  0  0  0  0  0  0  0  0  0  0
  193.9443  183.8355  159.2978 C   0  0  0  0  0  0  0  0  0  0  0  0
  194.9838  184.7225  159.5927 C   0  0  0  0  0  0  0  0  0  0  0  0
  199.1286  180.5336  155.4041 C   0  0  0  0  0  0  0  0  0  0  0  0
  198.3694  180.9251  154.2833 C   0  0  0  0  0  0  0  0  0  0  0  0
  198.2328  180.0754  153.1645 C   0  0  0  0  0  0  0  0  0  0  0  0
  198.9230  178.8460  153.1495 C   0  0  0  0  0  0  0  0  0  0  0  0
  199.6857  178.4512  154.2667 C   0  0  0  0  0  0  0  0  0  0  0  0
  199.7921  179.2934  155.3884 C   0  0  0  0  0  0  0  0  0  0  0  0
  197.3933  180.4902  152.0042 C   0  0  1  0  0  0  0  0  0  0  0  0
  196.0266  179.8811  151.7877 C   0  0  1  0  0  0  0  0  0  0  0  0
  196.1513  181.3289  152.2126 C   0  0  1  0  0  0  0  0  0  0  0  0
  197.2730  181.5100  156.6787 H   0  0  0  0  0  0  0  0  0  0  0  0
  199.4202  185.7878  159.0246 H   0  0  0  0  0  0  0  0  0  0  0  0
  197.7234  186.7637  160.9376 H   0  0  0  0  0  0  0  0  0  0  0  0
  195.7926  187.3612  158.7061 H   0  0  0  0  0  0  0  0  0  0  0  0
  195.4260  187.6950  160.3886 H   0  0  0  0  0  0  0  0  0  0  0  0
  197.5879  188.6503  157.5416 H   0  0  0  0  0  0  0  0  0  0  0  0
  198.6646  190.8701  157.3457 H   0  0  0  0  0  0  0  0  0  0  0  0
  199.3056  192.9295  158.3630 H   0  0  0  0  0  0  0  0  0  0  0  0
  198.0034  193.7016  160.9408 H   0  0  0  0  0  0  0  0  0  0  0  0
  199.7182  193.3491  160.9530 H   0  0  0  0  0  0  0  0  0  0  0  0
  200.1494  195.2152  159.4187 H   0  0  0  0  0  0  0  0  0  0  0  0
  198.4370  195.4052  159.0626 H   0  0  0  0  0  0  0  0  0  0  0  0
  199.4242  195.6277  161.7027 H   0  0  0  0  0  0  0  0  0  0  0  0
  197.4158  191.7544  161.4072 H   0  0  0  0  0  0  0  0  0  0  0  0
  196.3568  189.5921  161.5641 H   0  0  0  0  0  0  0  0  0  0  0  0
  195.6319  181.5262  157.4661 H   0  0  0  0  0  0  0  0  0  0  0  0
  193.4064  181.9900  158.2962 H   0  0  0  0  0  0  0  0  0  0  0  0
  192.9488  184.0259  159.6767 H   0  0  0  0  0  0  0  0  0  0  0  0
  194.7554  185.5619  160.2167 H   0  0  0  0  0  0  0  0  0  0  0  0
  197.8815  181.8914  154.2875 H   0  0  0  0  0  0  0  0  0  0  0  0
  198.8308  178.1889  152.2965 H   0  0  0  0  0  0  0  0  0  0  0  0
  200.1688  177.4844  154.2670 H   0  0  0  0  0  0  0  0  0  0  0  0
  200.3721  178.9885  156.2458 H   0  0  0  0  0  0  0  0  0  0  0  0
  198.0229  180.7054  151.1427 H   0  0  0  0  0  0  0  0  0  0  0  0
  195.6964  179.7096  150.7632 H   0  0  0  0  0  0  0  0  0  0  0  0
  195.6858  179.1497  152.5220 H   0  0  0  0  0  0  0  0  0  0  0  0
  195.9266  181.6041  153.2426 H   0  0  0  0  0  0  0  0  0  0  0  0
  195.9177  182.0907  151.4681 H   0  0  0  0  0  0  0  0  0  0  0  0
  1  2  2  0
  2  3  1  0
  2 26  1  0
  3  4  1  0
  3 35  1  0
  4  5  1  0
  4 21  2  0
  5  6  2  0
  6  7  1  0
  6 36  1  0
  7  8  1  0
  7 20  2  0
  8  9  1  0
  8 37  1  0
  9 10  1  0
  9 38  1  6
  9 39  1  0
 10 11  1  0
 10 19  2  0
 11 12  2  0
 11 40  1  0
 12 13  1  0
 12 41  1  0
 13 14  1  0
 13 18  2  0
 14 15  1  0
 14 42  1  0
 15 16  1  0
 15 43  1  1
 15 44  1  0
 16 17  1  0
 16 45  1  6
 16 46  1  0
 17 47  1  0
 18 19  1  0
 18 48  1  0
 19 49  1  0
 20 21  1  0
 20 25  1  0
 21 22  1  0
 22 23  2  0
 22 50  1  0
 23 24  1  0
 23 51  1  0
 24 25  2  0
 24 52  1  0
 25 53  1  0
 26 27  2  0
 26 31  1  0
 27 28  1  0
 27 54  1  0
 28 29  2  0
 28 32  1  0
 29 30  1  0
 29 55  1  0
 30 31  2  0
 30 56  1  0
 31 57  1  0
 32 33  1  0
 32 34  1  0
 32 58  1  6
 33 34  1  0
 33 59  1  6
 33 60  1  0
 34 61  1  1
 34 62  1  0
M  END
>  <s_epik_cmdline>  (204) 
J2VwaWtfcHl0aG9uJywgJy1waCcsICc3LjAwMDAwMCcsICctcGh0JywgJzIuMDAwMDAwJywgJy1tcycsICcxNicsICctdG4nLCAnOCcsICctbWEnLCAnMjAwJywgJy1pbWFlJywgJzxpbmZpbGUubWFlPicsICctb21hZScsICc8b3V0ZmlsZS5tYWU+Jw==

>  <s_epik_input>  (204) 
W2NIXTFbY0hdW2NIXWMoW0NIXTJbQ0gyXVtDSDJdMilbY0hdYzFDKD1PKVtOSF1jKGMoYzM0KVtjSF1bY0hdW2NIXVtjSF00KW5bY0hdYzNbTkhdW0NIMl1jNVtjSF1bY0hdYyhbY0hdW2NIXTUpW05IXVtDSDJdW0NIMl1bT0hd

>  <s_i_glide_gridfile>  (204) 
ATP-Grid

>  <s_lp_Force_Field>  (204) 
OPLS_2005

>  <s_lp_Variant>  (204) 
rxn502b____EMOL810697____EMOL7515103____EMOL324170366-1

>  <s_lp_label>  (204) 
2752_sdstereoexpander_1_neutralizer_1_epik_1_stereoizer_1

>  <s_m_source_file>  (204) 
ATP-VSW-LIGPREP-001-in.maegz

>  <s_sd_BIOSOLVEIT.INFINISEE\_QUERY\_NAME>  (204) 
Ref-Lig

>  <s_sd_BIOSOLVEIT.INFINISEE\_QUERY\_SMILES>  (204) 
S(c1nc2c(cc1C[NH2+]Cc3ccc(cc3)C[NH+](C)C)cccc2)Cc4ccccc4

>  <s_sd_BIOSOLVEIT.INFINISEE\_REACTION\_NAME>  (204) 
rxn502b

>  <s_sd_BIOSOLVEIT.INFINISEE\_REAGENT1\_NAME>  (204) 
EMOL810697

>  <s_sd_BIOSOLVEIT.INFINISEE\_REAGENT1\_SMILES>  (204) 
O=C(O)c1cc(ccc1)C2CC2

>  <s_sd_BIOSOLVEIT.INFINISEE\_REAGENT2\_NAME>  (204) 
EMOL7515103

>  <s_sd_BIOSOLVEIT.INFINISEE\_REAGENT2\_SMILES>  (204) 
Brc1c2c(c(nc1)N)cccc2

>  <s_sd_BIOSOLVEIT.INFINISEE\_REAGENT3\_NAME>  (204) 
EMOL324170366

>  <s_sd_BIOSOLVEIT.INFINISEE\_REAGENT3\_SMILES>  (204) 
OCCNc1ccc(cc1)CN

>  <s_sd_BIOSOLVEIT.INFINISEE\_SPACE>  (204) 
eXplore_7tr_2022-12

>  <s_vsw_compound_code>  (204) 
88033

>  <s_vsw_variant>  (204) 
88033-1

>  <r_epik_Charging_Adjusted_Penalty>  (204) 
0.0117043856515906

>  <r_epik_Ionization_Penalty>  (204) 
0.0118

>  <r_epik_Ionization_Penalty_Charging>  (204) 
0

>  <r_epik_Ionization_Penalty_Neutral>  (204) 
0.0118

>  <r_epik_State_Penalty>  (204) 
0.0117

>  <r_i_docking_score>  (204) 
-3.6774953638208201

>  <r_i_glide_ecoul>  (204) 
-4.5387482643127397

>  <r_i_glide_eff_state_penalty>  (204) 
0.0117

>  <r_i_glide_einternal>  (204) 
13.184006690979

>  <r_i_glide_emodel>  (204) 
-46.443009961514697

>  <r_i_glide_energy>  (204) 
-42.546793460845898

>  <r_i_glide_erotb>  (204) 
0.97978832708574604

>  <r_i_glide_esite>  (204) 
-0.049645504953903997

>  <r_i_glide_evdw>  (204) 
-38.008045196533203

>  <r_i_glide_gscore>  (204) 
-3.6891953638208199

>  <r_i_glide_hbond>  (204) 
-0.16

>  <r_i_glide_ligand_efficiency>  (204) 
-0.108161628347671

>  <r_i_glide_ligand_efficiency_ln>  (204) 
-0.81246187611904297

>  <r_i_glide_ligand_efficiency_sa>  (204) 
-0.35040168722862403

>  <r_i_glide_lipo>  (204) 
-1.55458405011546

>  <r_i_glide_metal>  (204) 
-0

>  <r_i_glide_rewards>  (204) 
-0.32353963636363497

>  <r_lp_Energy>  (204) 
38.787475999999998

>  <r_qp_ACxDN^.5/SA>  (204) 
0.016718

>  <r_qp_CIQPlogS>  (204) 
-6.4249999999999998

>  <r_qp_EA(eV)>  (204) 
0.72899999999999998

>  <r_qp_FISA>  (204) 
132.15700000000001

>  <r_qp_FOSA>  (204) 
270.07499999999999

>  <r_qp_IP(eV)>  (204) 
7.5110000000000001

>  <r_qp_Jm>  (204) 
0.00064952100002656004

>  <r_qp_PISA>  (204) 
459.11500000000001

>  <r_qp_PSA>  (204) 
91.850999999999999

>  <r_qp_PercentHumanOralAbsorption>  (204) 
100

>  <r_qp_QPPCaco>  (204) 
552.91200000000003

>  <r_qp_QPPMDCK>  (204) 
260.73099999999999

>  <r_qp_QPlogBB>  (204) 
-1.585

>  <r_qp_QPlogHERG>  (204) 
-7.9180000000000001

>  <r_qp_QPlogKhsa>  (204) 
0.69399999999999995

>  <r_qp_QPlogKp>  (204) 
-1.474

>  <r_qp_QPlogPC16>  (204) 
17.815000000000001

>  <r_qp_QPlogPo/w>  (204) 
4.8390000000000004

>  <r_qp_QPlogPoct>  (204) 
28.108000000000001

>  <r_qp_QPlogPw>  (204) 
16.779

>  <r_qp_QPlogS>  (204) 
-7.3689999999999998

>  <r_qp_QPpolrz>  (204) 
53.088000000000001

>  <r_qp_SASA>  (204) 
861.34699999999998

>  <r_qp_SAamideO>  (204) 
0

>  <r_qp_SAfluorine>  (204) 
0

>  <r_qp_WPSA>  (204) 
0

>  <r_qp_accptHB>  (204) 
7.2000000000000002

>  <r_qp_dip^2/V>  (204) 
0.053818100000000001

>  <r_qp_dipole>  (204) 
9.0299999999999994

>  <r_qp_donorHB>  (204) 
4

>  <r_qp_glob>  (204) 
0.7406701

>  <r_qp_mol_MW>  (204) 
452.55500000000001

>  <r_qp_volume>  (204) 
1515.155

>  <r_sd_BIOSOLVEIT.INFINISEE\_FTREES\_SIMILARITY>  (204) 
0.90700000000000003

>  <r_sd_BIOSOLVEIT.LOGP>  (204) 
5.3807999999999998

>  <r_sd_BIOSOLVEIT.MOLECULAR\_WEIGHT>  (204) 
452.55500000000001

>  <r_sd_BIOSOLVEIT.TPSA>  (204) 
86.280000000000001

>  <i_epik_Tot_Q>  (204) 
0

>  <i_epik_Tot_abs_Q>  (204) 
0

>  <i_f3d_flags>  (204) 
0

>  <i_i_glide_confnum>  (204) 
10

>  <i_i_glide_lignum>  (204) 
1232

>  <i_i_glide_posenum>  (204) 
7

>  <i_i_glide_rotatable_bonds>  (204) 
11

>  <i_lp_mmshare_version>  (204) 
65135

>  <i_m_ct_format>  (204) 
2

>  <i_m_source_file_index>  (204) 
2752

>  <i_qp_#NandO>  (204) 
6

>  <i_qp_#acid>  (204) 
0

>  <i_qp_#amide>  (204) 
0

>  <i_qp_#amidine>  (204) 
0

>  <i_qp_#amine>  (204) 
0

>  <i_qp_#in34>  (204) 
3

>  <i_qp_#in56>  (204) 
22

>  <i_qp_#metab>  (204) 
10

>  <i_qp_#nonHatm>  (204) 
34

>  <i_qp_#noncon>  (204) 
3

>  <i_qp_#ringatoms>  (204) 
25

>  <i_qp_#rotor>  (204) 
9

>  <i_qp_#rtvFG>  (204) 
0

>  <i_qp_#stars>  (204) 
5

>  <i_qp_CNS>  (204) 
-2

>  <i_qp_HumanOralAbsorption>  (204) 
1

>  <i_qp_RuleOfFive>  (204) 
0

>  <i_qp_RuleOfThree>  (204) 
2

>  <i_sd_BIOSOLVEIT.INFINISEE\_RESULT\_RANK>  (204) 
58521

>  <i_sd_version>  (204) 
0

>  <b_lp_Chiralities_Consistent>  (204) 
1

>  <b_sd_chiral_flag>  (204) 
0

>  <canonical_id>  (204) 
ATP-HTVS-203210320F32

>  <compound_code>  (204) 
88033

>  <title>  (204) 
rxn502b____EMOL810697____EMOL7515103____EMOL324170366

>  <variant>  (204) 
88033-1

>  <source_file>  (204) 
运行/运行/ATP-VSW/ATP-VSW-DOCK_HTVS_1-001_lib/ATP-VSW-DOCK_HTVS_1-001_lib

>  <canonical_smiles>  (204) 
O=C(Nc1ncc(NCc2ccc(NCCO)cc2)c2ccccc12)c1cccc(C2CC2)c1

>  <scaffold>  (204) 
O=C(Nc1ncc(NCc2ccccc2)c2ccccc12)c1cccc(C2CC2)c1

>  <molecular_formula>  (204) 
C28H28N4O2

$$$$
ATP-HTVS-20B250E7AB9A
     RDKit          3D

 61 64  0  0  0  0  0  0  0  0999 V2000
  201.1481  177.0437  156.7687 F   0  0  0  0  0  0  0  0  0  0  0  0
  201.3525  176.2397  155.6979 C   0  0  0  0  0  0  0  0  0  0  0  0
  200.8552  176.5846  154.4173 C   0  0  0  0  0  0  0  0  0  0  0  0
  201.0882  175.6895  153.3400 C   0  0  0  0  0  0  0  0  0  0  0  0
  201.8255  174.5068  153.5291 C   0  0  0  0  0  0  0  0  0  0  0  0
  202.3359  174.1905  154.8009 C   0  0  0  0  0  0  0  0  0  0  0  0
  203.0625  173.0637  154.9860 F   0  0  0  0  0  0  0  0  0  0  0  0
  202.0953  175.0569  155.8800 C   0  0  0  0  0  0  0  0  0  0  0  0
  200.0930  177.8313  154.2050 C   0  0  0  0  0  0  0  0  0  0  0  0
  199.8637  178.2541  152.9676 N   0  0  0  0  0  0  0  0  0  0  0  0
  199.1192  179.3753  153.0726 N   0  0  0  0  0  0  0  0  0  0  0  0
  198.6550  180.1172  151.9207 C   0  0  0  0  0  0  0  0  0  0  0  0
  199.1264  181.2451  151.7787 O   0  0  0  0  0  0  0  0  0  0  0  0
  197.5212  179.5618  151.0000 C   0  0  2  0  0  0  0  0  0  0  0  0
  196.4240  179.0975  151.8337 N   0  0  0  0  0  0  0  0  0  0  0  0
  198.0342  178.4302  150.0686 C   0  0  0  0  0  0  0  0  0  0  0  0
  198.1696  178.6200  148.6627 C   0  0  0  0  0  0  0  0  0  0  0  0
  198.6218  177.5742  147.8293 C   0  0  0  0  0  0  0  0  0  0  0  0
  198.9630  176.3155  148.3748 C   0  0  0  0  0  0  0  0  0  0  0  0
  198.8184  176.1056  149.7543 C   0  0  0  0  0  0  0  0  0  0  0  0
  198.3516  177.1447  150.5859 C   0  0  0  0  0  0  0  0  0  0  0  0
  196.8551  180.7223  150.2146 C   0  0  2  0  0  0  0  0  0  0  0  0
  198.9007  179.7050  154.4068 C   0  0  0  0  0  0  0  0  0  0  0  0
  199.4969  178.7177  155.1488 C   0  0  0  0  0  0  0  0  0  0  0  0
  198.0976  180.9036  154.8634 C   0  0  1  0  0  0  0  0  0  0  0  0
  197.6137  180.8188  156.3276 C   0  0  1  0  0  0  0  0  0  0  0  0
  196.6756  181.9142  156.6758 N   0  0  1  0  0  0  0  0  0  0  0  0
  196.0854  181.8267  158.0256 C   0  0  1  0  0  0  0  0  0  0  0  0
  196.0368  183.1823  158.7078 C   0  0  0  0  0  0  0  0  0  0  0  0
  194.7956  183.7611  159.0541 C   0  0  0  0  0  0  0  0  0  0  0  0
  194.7564  184.9937  159.7332 C   0  0  0  0  0  0  0  0  0  0  0  0
  195.9547  185.6621  160.0583 C   0  0  0  0  0  0  0  0  0  0  0  0
  197.1908  185.0925  159.7104 C   0  0  0  0  0  0  0  0  0  0  0  0
  197.2331  183.8473  159.0504 C   0  0  0  0  0  0  0  0  0  0  0  0
  196.6839  179.1464  152.8066 H   0  0  0  0  0  0  0  0  0  0  0  0
  195.6353  179.7185  151.7150 H   0  0  0  0  0  0  0  0  0  0  0  0
  197.1684  182.7892  156.6029 H   0  0  0  0  0  0  0  0  0  0  0  0
  200.7148  175.9138  152.3502 H   0  0  0  0  0  0  0  0  0  0  0  0
  202.0141  173.8443  152.6965 H   0  0  0  0  0  0  0  0  0  0  0  0
  202.4922  174.8175  156.8530 H   0  0  0  0  0  0  0  0  0  0  0  0
  197.9203  179.5574  148.1829 H   0  0  0  0  0  0  0  0  0  0  0  0
  198.7179  177.7395  146.7627 H   0  0  0  0  0  0  0  0  0  0  0  0
  199.3189  175.5215  147.7284 H   0  0  0  0  0  0  0  0  0  0  0  0
  199.0660  175.1448  150.1834 H   0  0  0  0  0  0  0  0  0  0  0  0
  198.1816  176.9253  151.6300 H   0  0  0  0  0  0  0  0  0  0  0  0
  197.5616  181.2337  149.5557 H   0  0  0  0  0  0  0  0  0  0  0  0
  196.4186  181.4867  150.8581 H   0  0  0  0  0  0  0  0  0  0  0  0
  196.0448  180.3498  149.5869 H   0  0  0  0  0  0  0  0  0  0  0  0
  199.4774  178.6404  156.2289 H   0  0  0  0  0  0  0  0  0  0  0  0
  198.6978  181.8056  154.7371 H   0  0  0  0  0  0  0  0  0  0  0  0
  197.2297  181.0376  154.2203 H   0  0  0  0  0  0  0  0  0  0  0  0
  197.1369  179.8580  156.4951 H   0  0  0  0  0  0  0  0  0  0  0  0
  198.4697  180.8582  157.0020 H   0  0  0  0  0  0  0  0  0  0  0  0
  195.0822  181.4158  157.9057 H   0  0  0  0  0  0  0  0  0  0  0  0
  196.6444  181.1447  158.6691 H   0  0  0  0  0  0  0  0  0  0  0  0
  193.8696  183.2586  158.8122 H   0  0  0  0  0  0  0  0  0  0  0  0
  193.8054  185.4267  160.0080 H   0  0  0  0  0  0  0  0  0  0  0  0
  195.9209  186.6127  160.5667 H   0  0  0  0  0  0  0  0  0  0  0  0
  198.1073  185.6066  159.9610 H   0  0  0  0  0  0  0  0  0  0  0  0
  198.1926  183.4091  158.8117 H   0  0  0  0  0  0  0  0  0  0  0  0
  195.9030  181.9338  156.0217 H   0  0  0  0  0  0  0  0  0  0  0  0
  1  2  1  0
  2  3  2  0
  2  8  1  0
  3  4  1  0
  3  9  1  0
  4  5  2  0
  4 38  1  0
  5  6  1  0
  5 39  1  0
  6  7  1  0
  6  8  2  0
  8 40  1  0
  9 10  2  0
  9 24  1  0
 10 11  1  0
 11 12  1  0
 11 23  1  0
 12 13  2  0
 12 14  1  0
 14 15  1  1
 14 16  1  0
 14 22  1  0
 15 35  1  0
 15 36  1  0
 16 17  2  0
 16 21  1  0
 17 18  1  0
 17 41  1  0
 18 19  2  0
 18 42  1  0
 19 20  1  0
 19 43  1  0
 20 21  2  0
 20 44  1  0
 21 45  1  0
 22 46  1  6
 22 47  1  0
 22 48  1  0
 23 24  2  0
 23 25  1  0
 24 49  1  0
 25 26  1  0
 25 50  1  1
 25 51  1  0
 26 27  1  0
 26 52  1  6
 26 53  1  0
 27 28  1  0
 27 37  1  1
 27 61  1  0
 28 29  1  0
 28 54  1  6
 28 55  1  0
 29 30  2  0
 29 34  1  0
 30 31  1  0
 30 56  1  0
 31 32  2  0
 31 57  1  0
 32 33  1  0
 32 58  1  0
 33 34  2  0
 33 59  1  0
 34 60  1  0
M  CHG  1  27   1
M  END
>  <s_epik_cmdline>  (205) 
J2VwaWtfcHl0aG9uJywgJy1waCcsICc3LjAwMDAwMCcsICctcGh0JywgJzIuMDAwMDAwJywgJy1tcycsICcxNicsICctdG4nLCAnOCcsICctbWEnLCAnMjAwJywgJy1pbWFlJywgJzxpbmZpbGUubWFlPicsICctb21hZScsICc8b3V0ZmlsZS5tYWU+Jw==

>  <s_epik_input>  (205) 
W2NIXTFbY0hdW2NIXVtjSF1bY0hdYzFbQ0BdKFtOSDJdKShbQ0gzXSlDKD1PKW4obmMyLWMoYzNGKVtjSF1bY0hdYyhGKVtjSF0zKWMoW2NIXTIpW0NIMl1bQ0gyXVtOSF1bQ0gyXWM0W2NIXVtjSF1bY0hdW2NIXVtjSF00

>  <s_i_glide_gridfile>  (205) 
ATP-Grid

>  <s_lp_Force_Field>  (205) 
OPLS_2005

>  <s_lp_Variant>  (205) 
Shen____49239300____723237____40180766-1

>  <s_lp_label>  (205) 
647_sdstereoexpander_1_neutralizer_1_epik_1_stereoizer_1

>  <s_m_source_file>  (205) 
ATP-VSW-LIGPREP-001-in.maegz

>  <s_sd_BIOSOLVEIT.INFINISEE\_QUERY\_NAME>  (205) 
Ref-Lig

>  <s_sd_BIOSOLVEIT.INFINISEE\_QUERY\_SMILES>  (205) 
S(c1nc2c(cc1C[NH2+]Cc3ccc(cc3)C[NH+](C)C)cccc2)Cc4ccccc4

>  <s_sd_BIOSOLVEIT.INFINISEE\_REACTION\_NAME>  (205) 
Shen

>  <s_sd_BIOSOLVEIT.INFINISEE\_REAGENT1\_SMILES>  (205) 
O=C(CCNCc1ccccc1)C

>  <s_sd_BIOSOLVEIT.INFINISEE\_REAGENT2\_SMILES>  (205) 
Fc1c(ccc(F)c1)C(=O)OCC

>  <s_sd_BIOSOLVEIT.INFINISEE\_REAGENT3\_SMILES>  (205) 
O=C(NN)C(N)(c1ccccc1)C

>  <s_sd_BIOSOLVEIT.INFINISEE\_SPACE>  (205) 
KnowledgeSpace_290tr_2019-05

>  <s_vsw_compound_code>  (205) 
20673

>  <s_vsw_variant>  (205) 
20673-1

>  <r_epik_Charging_Adjusted_Penalty>  (205) 
0.065241008616714599

>  <r_epik_Ionization_Penalty>  (205) 
0.035999999999999997

>  <r_epik_Ionization_Penalty_Charging>  (205) 
0.0293

>  <r_epik_Ionization_Penalty_Neutral>  (205) 
0.0067000000000000002

>  <r_epik_State_Penalty>  (205) 
0.035999999999999997

>  <r_i_docking_score>  (205) 
-6.11096576140097

>  <r_i_glide_ecoul>  (205) 
-9.1902160644531197

>  <r_i_glide_eff_state_penalty>  (205) 
0.035999999999999997

>  <r_i_glide_einternal>  (205) 
20.165254592895501

>  <r_i_glide_emodel>  (205) 
-64.445066440716801

>  <r_i_glide_energy>  (205) 
-49.133613586425803

>  <r_i_glide_erotb>  (205) 
0.75629205684314305

>  <r_i_glide_esite>  (205) 
-0.156551115344682

>  <r_i_glide_evdw>  (205) 
-39.943397521972699

>  <r_i_glide_gscore>  (205) 
-6.1469657614009696

>  <r_i_glide_hbond>  (205) 
0

>  <r_i_glide_ligand_efficiency>  (205) 
-0.17973428710002901

>  <r_i_glide_ligand_efficiency_ln>  (205) 
-1.35008374347715

>  <r_i_glide_ligand_efficiency_sa>  (205) 
-0.58226931689901695

>  <r_i_glide_lipo>  (205) 
-2.52361208467795

>  <r_i_glide_metal>  (205) 
-0

>  <r_i_glide_rewards>  (205) 
-0.847392332454876

>  <r_lp_Energy>  (205) 
29.362247

>  <r_qp_ACxDN^.5/SA>  (205) 
0.013587500000000001

>  <r_qp_CIQPlogS>  (205) 
-5.2880000000000003

>  <r_qp_EA(eV)>  (205) 
0.82599999999999996

>  <r_qp_FISA>  (205) 
68.382000000000005

>  <r_qp_FOSA>  (205) 
148.12700000000001

>  <r_qp_IP(eV)>  (205) 
9.3379999999999992

>  <r_qp_Jm>  (205) 
0.00072875683529828703

>  <r_qp_PISA>  (205) 
470.42399999999998

>  <r_qp_PSA>  (205) 
66.802999999999997

>  <r_qp_PercentHumanOralAbsorption>  (205) 
93.951999999999998

>  <r_qp_QPPCaco>  (205) 
138.43199999999999

>  <r_qp_QPPMDCK>  (205) 
190.83799999999999

>  <r_qp_QPlogBB>  (205) 
0.379

>  <r_qp_QPlogHERG>  (205) 
-8.2629999999999999

>  <r_qp_QPlogKhsa>  (205) 
0.93600000000000005

>  <r_qp_QPlogKp>  (205) 
-4.4800000000000004

>  <r_qp_QPlogPC16>  (205) 
15.701000000000001

>  <r_qp_QPlogPo/w>  (205) 
4.899

>  <r_qp_QPlogPoct>  (205) 
25.193999999999999

>  <r_qp_QPlogPw>  (205) 
13.791

>  <r_qp_QPlogS>  (205) 
-4.3209999999999997

>  <r_qp_QPpolrz>  (205) 
51.487000000000002

>  <r_qp_SASA>  (205) 
764.84100000000001

>  <r_qp_SAamideO>  (205) 
0

>  <r_qp_SAfluorine>  (205) 
77.908000000000001

>  <r_qp_WPSA>  (205) 
77.908000000000001

>  <r_qp_accptHB>  (205) 
6

>  <r_qp_dip^2/V>  (205) 
0.00086269999999999999

>  <r_qp_dipole>  (205) 
1.121

>  <r_qp_donorHB>  (205) 
3

>  <r_qp_glob>  (205) 
0.81242619999999999

>  <r_qp_mol_MW>  (205) 
460.52499999999998

>  <r_qp_volume>  (205) 
1456.413

>  <r_sd_BIOSOLVEIT.INFINISEE\_FTREES\_SIMILARITY>  (205) 
0.91200000000000003

>  <r_sd_BIOSOLVEIT.LOGP>  (205) 
2.9319000000000002

>  <r_sd_BIOSOLVEIT.MOLECULAR\_WEIGHT>  (205) 
462.541

>  <r_sd_BIOSOLVEIT.TPSA>  (205) 
79.140000000000001

>  <i_epik_Tot_Q>  (205) 
1

>  <i_epik_Tot_abs_Q>  (205) 
1

>  <i_f3d_flags>  (205) 
0

>  <i_i_glide_confnum>  (205) 
7

>  <i_i_glide_lignum>  (205) 
83

>  <i_i_glide_posenum>  (205) 
3

>  <i_i_glide_rotatable_bonds>  (205) 
9

>  <i_lp_mmshare_version>  (205) 
65135

>  <i_m_ct_format>  (205) 
2

>  <i_m_source_file_index>  (205) 
647

>  <i_qp_#NandO>  (205) 
5

>  <i_qp_#acid>  (205) 
0

>  <i_qp_#amide>  (205) 
0

>  <i_qp_#amidine>  (205) 
0

>  <i_qp_#amine>  (205) 
2

>  <i_qp_#in34>  (205) 
0

>  <i_qp_#in56>  (205) 
23

>  <i_qp_#metab>  (205) 
5

>  <i_qp_#nonHatm>  (205) 
34

>  <i_qp_#noncon>  (205) 
0

>  <i_qp_#ringatoms>  (205) 
23

>  <i_qp_#rotor>  (205) 
8

>  <i_qp_#rtvFG>  (205) 
0

>  <i_qp_#stars>  (205) 
1

>  <i_qp_CNS>  (205) 
1

>  <i_qp_HumanOralAbsorption>  (205) 
3

>  <i_qp_RuleOfFive>  (205) 
0

>  <i_qp_RuleOfThree>  (205) 
0

>  <i_sd_BIOSOLVEIT.INFINISEE\_REAGENT1\_NAME>  (205) 
49239300

>  <i_sd_BIOSOLVEIT.INFINISEE\_REAGENT2\_NAME>  (205) 
723237

>  <i_sd_BIOSOLVEIT.INFINISEE\_REAGENT3\_NAME>  (205) 
40180766

>  <i_sd_BIOSOLVEIT.INFINISEE\_RESULT\_RANK>  (205) 
36030

>  <i_sd_version>  (205) 
0

>  <b_lp_Chiralities_Consistent>  (205) 
1

>  <b_sd_chiral_flag>  (205) 
0

>  <canonical_id>  (205) 
ATP-HTVS-20B250E7AB9A

>  <compound_code>  (205) 
20673

>  <title>  (205) 
Shen____49239300____723237____40180766

>  <variant>  (205) 
20673-1

>  <source_file>  (205) 
运行/运行/ATP-VSW/ATP-VSW-DOCK_HTVS_1-001_lib/ATP-VSW-DOCK_HTVS_1-001_lib

>  <canonical_smiles>  (205) 
C[C@](N)(C(=O)n1nc(-c2ccc(F)cc2F)cc1CC[NH2+]Cc1ccccc1)c1ccccc1

>  <scaffold>  (205) 
O=C(Cc1ccccc1)n1nc(-c2ccccc2)cc1CC[NH2+]Cc1ccccc1

>  <molecular_formula>  (205) 
C27H27F2N4O+

$$$$
ATP-HTVS-20FB50B88593
     RDKit          3D

 52 54  0  0  0  0  0  0  0  0999 V2000
  196.7279  179.9397  151.2957 S   0  0  0  0  0  0  0  0  0  0  0  0
  197.3350  180.0405  152.9455 C   0  0  0  0  0  0  0  0  0  0  0  0
  198.3923  179.2458  153.2195 N   0  0  0  0  0  0  0  0  0  0  0  0
  198.9218  179.3078  154.4636 C   0  0  0  0  0  0  0  0  0  0  0  0
  198.4199  180.1498  155.4710 C   0  0  0  0  0  0  0  0  0  0  0  0
  197.3138  180.9731  155.1649 C   0  0  0  0  0  0  0  0  0  0  0  0
  196.6931  181.8351  156.1034 N   0  0  0  0  0  0  0  0  0  0  0  0
  197.2430  182.3633  157.2113 C   0  0  0  0  0  0  0  0  0  0  0  0
  198.4439  182.3725  157.4576 O   0  0  0  0  0  0  0  0  0  0  0  0
  196.2771  183.1214  158.0771 C   0  0  0  0  0  0  0  0  0  0  0  0
  196.7545  184.2238  158.8465 C   0  0  0  0  0  0  0  0  0  0  0  0
  195.8620  185.0110  159.5897 C   0  0  0  0  0  0  0  0  0  0  0  0
  194.4982  184.6347  159.6604 C   0  0  0  0  0  0  0  0  0  0  0  0
  194.0304  183.5224  158.9316 C   0  0  0  0  0  0  0  0  0  0  0  0
  194.9230  182.7589  158.1525 C   0  0  0  0  0  0  0  0  0  0  0  0
  196.3633  186.2397  160.3478 C   0  0  1  0  0  0  0  0  0  0  0  0
  196.6726  187.4287  159.5383 N   0  0  0  0  0  0  0  0  0  0  0  0
  197.8288  187.2303  158.6587 C   0  0  1  0  0  0  0  0  0  0  0  0
  198.0641  188.3119  157.6959 C   0  0  0  0  0  0  0  0  0  0  0  0
  198.2613  189.1814  156.8528 C   0  0  0  0  0  0  0  0  0  0  0  0
  196.9610  188.5314  160.4597 C   0  0  2  0  0  0  0  0  0  0  0  0
  196.7571  180.9115  153.8791 C   0  0  0  0  0  0  0  0  0  0  0  0
  198.2052  179.8781  150.2398 C   0  0  1  0  0  0  0  0  0  0  0  0
  198.3908  178.4833  149.6637 C   0  0  0  0  0  0  0  0  0  0  0  0
  198.1867  178.2548  148.2845 C   0  0  0  0  0  0  0  0  0  0  0  0
  198.3617  176.9608  147.7533 C   0  0  0  0  0  0  0  0  0  0  0  0
  198.7379  175.8916  148.5927 C   0  0  0  0  0  0  0  0  0  0  0  0
  198.9402  176.1161  149.9644 C   0  0  0  0  0  0  0  0  0  0  0  0
  198.7772  177.4095  150.4918 C   0  0  0  0  0  0  0  0  0  0  0  0
  199.7543  178.6465  154.6527 H   0  0  0  0  0  0  0  0  0  0  0  0
  198.8661  180.1270  156.4497 H   0  0  0  0  0  0  0  0  0  0  0  0
  195.7352  182.0903  155.9123 H   0  0  0  0  0  0  0  0  0  0  0  0
  197.8009  184.4636  158.8161 H   0  0  0  0  0  0  0  0  0  0  0  0
  193.8002  185.2003  160.2600 H   0  0  0  0  0  0  0  0  0  0  0  0
  192.9894  183.2360  158.9757 H   0  0  0  0  0  0  0  0  0  0  0  0
  194.5407  181.9076  157.6052 H   0  0  0  0  0  0  0  0  0  0  0  0
  195.5986  186.5056  161.0678 H   0  0  0  0  0  0  0  0  0  0  0  0
  197.2433  185.9518  160.9286 H   0  0  0  0  0  0  0  0  0  0  0  0
  198.7303  187.0508  159.2381 H   0  0  0  0  0  0  0  0  0  0  0  0
  197.6716  186.3531  158.0043 H   0  0  0  0  0  0  0  0  0  0  0  0
  198.4092  189.9417  156.1278 H   0  0  0  0  0  0  0  0  0  0  0  0
  196.1151  188.7480  161.1172 H   0  0  0  0  0  0  0  0  0  0  0  0
  197.1922  189.4593  159.9337 H   0  0  0  0  0  0  0  0  0  0  0  0
  197.8259  188.2978  161.0771 H   0  0  0  0  0  0  0  0  0  0  0  0
  195.9297  181.5454  153.5955 H   0  0  0  0  0  0  0  0  0  0  0  0
  198.0946  180.6078  149.4384 H   0  0  0  0  0  0  0  0  0  0  0  0
  199.0934  180.1755  150.8005 H   0  0  0  0  0  0  0  0  0  0  0  0
  197.9057  179.0656  147.6277 H   0  0  0  0  0  0  0  0  0  0  0  0
  198.2042  176.7859  146.6996 H   0  0  0  0  0  0  0  0  0  0  0  0
  198.8664  174.8983  148.1888 H   0  0  0  0  0  0  0  0  0  0  0  0
  199.2242  175.3052  150.6184 H   0  0  0  0  0  0  0  0  0  0  0  0
  198.9617  177.5495  151.5448 H   0  0  0  0  0  0  0  0  0  0  0  0
  1  2  1  0
  1 23  1  0
  2  3  1  0
  2 22  2  0
  3  4  2  0
  4  5  1  0
  4 30  1  0
  5  6  2  0
  5 31  1  0
  6  7  1  0
  6 22  1  0
  7  8  1  0
  7 32  1  0
  8  9  2  0
  8 10  1  0
 10 11  2  0
 10 15  1  0
 11 12  1  0
 11 33  1  0
 12 13  2  0
 12 16  1  0
 13 14  1  0
 13 34  1  0
 14 15  2  0
 14 35  1  0
 15 36  1  0
 16 17  1  0
 16 37  1  1
 16 38  1  0
 17 18  1  0
 17 21  1  0
 18 19  1  0
 18 39  1  1
 18 40  1  0
 19 20  3  0
 20 41  1  0
 21 42  1  1
 21 43  1  0
 21 44  1  0
 22 45  1  0
 23 24  1  0
 23 46  1  6
 23 47  1  0
 24 25  2  0
 24 29  1  0
 25 26  1  0
 25 48  1  0
 26 27  2  0
 26 49  1  0
 27 28  1  0
 27 50  1  0
 28 29  2  0
 28 51  1  0
 29 52  1  0
M  END
>  <s_epik_cmdline>  (206) 
J2VwaWtfcHl0aG9uJywgJy1waCcsICc3LjAwMDAwMCcsICctcGh0JywgJzIuMDAwMDAwJywgJy1tcycsICcxNicsICctdG4nLCAnOCcsICctbWEnLCAnMjAwJywgJy1pbWFlJywgJzxpbmZpbGUubWFlPicsICctb21hZScsICc8b3V0ZmlsZS5tYWU+Jw==

>  <s_epik_input>  (206) 
W2NIXTFbY0hdW2NIXVtjSF1bY0hdYzFbQ0gyXVNjMm5bY0hdW2NIXWMoW2NIXTIpW05IXUMoPU8pYzNbY0hdYyhbY0hdW2NIXVtjSF0zKVtDSDJdTihbQ0gzXSlbQ0gyXUMjW0NIXQ==

>  <s_i_glide_gridfile>  (206) 
ATP-Grid

>  <s_lp_Force_Field>  (206) 
OPLS_2005

>  <s_lp_Variant>  (206) 
m_527dbb____15754304____23177588-1

>  <s_lp_label>  (206) 
1832_sdstereoexpander_1_neutralizer_1_epik_1_stereoizer_1

>  <s_m_source_file>  (206) 
ATP-VSW-LIGPREP-003-in.maegz

>  <s_sd_BIOSOLVEIT.INFINISEE\_QUERY\_NAME>  (206) 
Ref-Lig

>  <s_sd_BIOSOLVEIT.INFINISEE\_QUERY\_SMILES>  (206) 
S(c1nc2c(cc1C[NH2+]Cc3ccc(cc3)C[NH+](C)C)cccc2)Cc4ccccc4

>  <s_sd_BIOSOLVEIT.INFINISEE\_REACTION\_NAME>  (206) 
m_527dbb

>  <s_sd_BIOSOLVEIT.INFINISEE\_REAGENT1\_SMILES>  (206) 
[R1*]Nc1cc(SCc2ccccc2)ncc1

>  <s_sd_BIOSOLVEIT.INFINISEE\_REAGENT2\_SMILES>  (206) 
[R1*]C(=O)c1cc(ccc1)CN(CC#C)C

>  <s_sd_BIOSOLVEIT.INFINISEE\_SPACE>  (206) 
REALSpace_44bn_2023-08

>  <s_vsw_compound_code>  (206) 
58595

>  <s_vsw_variant>  (206) 
58595-1

>  <r_epik_Charging_Adjusted_Penalty>  (206) 
0.13537972882367999

>  <r_epik_Ionization_Penalty>  (206) 
0.1363

>  <r_epik_Ionization_Penalty_Charging>  (206) 
0

>  <r_epik_Ionization_Penalty_Neutral>  (206) 
0.1363

>  <r_epik_State_Penalty>  (206) 
0.13539999999999999

>  <r_i_docking_score>  (206) 
-3.99504551780237

>  <r_i_glide_ecoul>  (206) 
-2.5567710399627699

>  <r_i_glide_eff_state_penalty>  (206) 
0.13539999999999999

>  <r_i_glide_einternal>  (206) 
2.2484903335571298

>  <r_i_glide_emodel>  (206) 
-52.642087324417197

>  <r_i_glide_energy>  (206) 
-42.128315687179601

>  <r_i_glide_erotb>  (206) 
1.2166371200289099

>  <r_i_glide_esite>  (206) 
-0.11066643290872299

>  <r_i_glide_evdw>  (206) 
-39.571544647216797

>  <r_i_glide_gscore>  (206) 
-4.1304455178023796

>  <r_i_glide_hbond>  (206) 
-0.075408419760856299

>  <r_i_glide_ligand_efficiency>  (206) 
-0.13776019026904701

>  <r_i_glide_ligand_efficiency_ln>  (206) 
-0.91476411796330004

>  <r_i_glide_ligand_efficiency_sa>  (206) 
-0.42324294999821699

>  <r_i_glide_lipo>  (206) 
-2.1274938968064498

>  <r_i_glide_metal>  (206) 
-0

>  <r_i_glide_rewards>  (206) 
-0.67142099999999905

>  <r_lp_Energy>  (206) 
26.827997

>  <r_lp_tautomer_probability>  (206) 
1

>  <r_qp_ACxDN^.5/SA>  (206) 
0.0093217000000000005

>  <r_qp_CIQPlogS>  (206) 
-5.1820000000000004

>  <r_qp_EA(eV)>  (206) 
0.72299999999999998

>  <r_qp_FISA>  (206) 
63.238999999999997

>  <r_qp_FOSA>  (206) 
220.55199999999999

>  <r_qp_IP(eV)>  (206) 
9.0050000000000008

>  <r_qp_Jm>  (206) 
0.020306986572329301

>  <r_qp_PISA>  (206) 
402.99000000000001

>  <r_qp_PSA>  (206) 
53.280000000000001

>  <r_qp_PercentHumanOralAbsorption>  (206) 
100

>  <r_qp_QPPCaco>  (206) 
621.01300000000003

>  <r_qp_QPPMDCK>  (206) 
514.005

>  <r_qp_QPlogBB>  (206) 
-0.14399999999999999

>  <r_qp_QPlogHERG>  (206) 
-7.3410000000000002

>  <r_qp_QPlogKhsa>  (206) 
0.71899999999999997

>  <r_qp_QPlogKp>  (206) 
-2.464

>  <r_qp_QPlogPC16>  (206) 
14.378

>  <r_qp_QPlogPo/w>  (206) 
4.8250000000000002

>  <r_qp_QPlogPoct>  (206) 
20.555

>  <r_qp_QPlogPw>  (206) 
10.271000000000001

>  <r_qp_QPlogS>  (206) 
-4.8319999999999999

>  <r_qp_QPpolrz>  (206) 
44.673999999999999

>  <r_qp_SASA>  (206) 
722.62900000000002

>  <r_qp_SAamideO>  (206) 
0

>  <r_qp_SAfluorine>  (206) 
0

>  <r_qp_WPSA>  (206) 
35.847000000000001

>  <r_qp_accptHB>  (206) 
5.5

>  <r_qp_dip^2/V>  (206) 
0.049223200000000002

>  <r_qp_dipole>  (206) 
8.0559999999999992

>  <r_qp_donorHB>  (206) 
1.5

>  <r_qp_glob>  (206) 
0.80462400000000001

>  <r_qp_mol_MW>  (206) 
401.52499999999998

>  <r_qp_volume>  (206) 
1318.3019999999999

>  <r_sd_BIOSOLVEIT.INFINISEE\_FTREES\_SIMILARITY>  (206) 
0.90300000000000002

>  <r_sd_BIOSOLVEIT.LOGP>  (206) 
3.2740999999999998

>  <r_sd_BIOSOLVEIT.MOLECULAR\_WEIGHT>  (206) 
402.53899999999999

>  <r_sd_BIOSOLVEIT.TPSA>  (206) 
46.43

>  <i_epik_Tot_Q>  (206) 
0

>  <i_epik_Tot_abs_Q>  (206) 
0

>  <i_f3d_flags>  (206) 
0

>  <i_i_glide_confnum>  (206) 
14

>  <i_i_glide_lignum>  (206) 
688

>  <i_i_glide_posenum>  (206) 
15

>  <i_i_glide_rotatable_bonds>  (206) 
10

>  <i_lp_mmshare_version>  (206) 
65135

>  <i_m_ct_format>  (206) 
2

>  <i_m_source_file_index>  (206) 
1832

>  <i_qp_#NandO>  (206) 
4

>  <i_qp_#acid>  (206) 
0

>  <i_qp_#amide>  (206) 
0

>  <i_qp_#amidine>  (206) 
0

>  <i_qp_#amine>  (206) 
1

>  <i_qp_#in34>  (206) 
0

>  <i_qp_#in56>  (206) 
18

>  <i_qp_#metab>  (206) 
5

>  <i_qp_#nonHatm>  (206) 
29

>  <i_qp_#noncon>  (206) 
0

>  <i_qp_#ringatoms>  (206) 
18

>  <i_qp_#rotor>  (206) 
9

>  <i_qp_#rtvFG>  (206) 
0

>  <i_qp_#stars>  (206) 
0

>  <i_qp_CNS>  (206) 
1

>  <i_qp_HumanOralAbsorption>  (206) 
3

>  <i_qp_RuleOfFive>  (206) 
0

>  <i_qp_RuleOfThree>  (206) 
0

>  <i_sd_BIOSOLVEIT.INFINISEE\_REAGENT1\_NAME>  (206) 
15754304

>  <i_sd_BIOSOLVEIT.INFINISEE\_REAGENT2\_NAME>  (206) 
23177588

>  <i_sd_BIOSOLVEIT.INFINISEE\_RESULT\_RANK>  (206) 
79944

>  <i_sd_version>  (206) 
0

>  <b_lp_Chiralities_Consistent>  (206) 
1

>  <b_sd_chiral_flag>  (206) 
0

>  <canonical_id>  (206) 
ATP-HTVS-20FB50B88593

>  <compound_code>  (206) 
58595

>  <title>  (206) 
m_527dbb____15754304____23177588

>  <variant>  (206) 
58595-1

>  <source_file>  (206) 
运行/运行/ATP-VSW/ATP-VSW-DOCK_HTVS_1-003_lib/ATP-VSW-DOCK_HTVS_1-003_lib.mae

>  <canonical_smiles>  (206) 
C#CCN(C)Cc1cccc(C(=O)Nc2ccnc(SCc3ccccc3)c2)c1

>  <scaffold>  (206) 
O=C(Nc1ccnc(SCc2ccccc2)c1)c1ccccc1

>  <molecular_formula>  (206) 
C24H23N3OS

$$$$
ATP-HTVS-2118F57CAFF1
     RDKit          3D

 59 62  0  0  0  0  0  0  0  0999 V2000
  200.8514  179.4458  151.0545 Cl  0  0  0  0  0  0  0  0  0  0  0  0
  199.7344  178.6897  149.9695 C   0  0  0  0  0  0  0  0  0  0  0  0
  198.3893  179.1328  149.8096 C   0  0  0  0  0  0  0  0  0  0  0  0
  197.5904  178.5284  148.8015 C   0  0  0  0  0  0  0  0  0  0  0  0
  195.9594  179.0388  148.5141 Cl  0  0  0  0  0  0  0  0  0  0  0  0
  198.1133  177.4966  147.9961 C   0  0  0  0  0  0  0  0  0  0  0  0
  199.4270  177.0397  148.1916 C   0  0  0  0  0  0  0  0  0  0  0  0
  200.2322  177.6306  149.1823 C   0  0  0  0  0  0  0  0  0  0  0  0
  197.8342  180.2665  150.6339 C   0  0  0  0  0  0  0  0  0  0  0  0
  197.2890  181.2199  150.0826 O   0  0  0  0  0  0  0  0  0  0  0  0
  197.9226  180.1071  151.9675 N   0  0  0  0  0  0  0  0  0  0  0  0
  197.6206  181.0336  153.0065 C   0  0  0  0  0  0  0  0  0  0  0  0
  197.7920  180.6312  154.3622 C   0  0  0  0  0  0  0  0  0  0  0  0
  198.2420  179.3381  154.6890 N   0  0  0  0  0  0  0  0  0  0  0  0
  199.6561  179.1257  154.4310 C   0  0  1  0  0  0  0  0  0  0  0  0
  200.2374  177.9759  155.2123 C   0  0  0  0  0  0  0  0  0  0  0  0
  200.4195  176.7117  154.6087 C   0  0  0  0  0  0  0  0  0  0  0  0
  200.9653  175.6404  155.3520 C   0  0  0  0  0  0  0  0  0  0  0  0
  201.3068  175.8492  156.7083 C   0  0  0  0  0  0  0  0  0  0  0  0
  201.1424  177.1149  157.3010 C   0  0  0  0  0  0  0  0  0  0  0  0
  200.6035  178.1776  156.5569 C   0  0  0  0  0  0  0  0  0  0  0  0
  201.1528  174.2722  154.7086 C   0  0  1  0  0  0  0  0  0  0  0  0
  202.5788  173.9811  154.4000 N   0  0  1  0  0  0  0  0  0  0  0  0
  203.3681  173.5041  155.5639 C   0  0  2  0  0  0  0  0  0  0  0  0
  202.7219  173.0644  153.2447 C   0  0  2  0  0  0  0  0  0  0  0  0
  197.5455  181.5687  155.3990 C   0  0  0  0  0  0  0  0  0  0  0  0
  197.1201  182.8756  155.0471 C   0  0  0  0  0  0  0  0  0  0  0  0
  196.9463  183.1986  153.7546 N   0  0  0  0  0  0  0  0  0  0  0  0
  197.1687  182.3524  152.7403 C   0  0  0  0  0  0  0  0  0  0  0  0
  196.8546  183.8414  156.0283 C   0  0  0  0  0  0  0  0  0  0  0  0
  196.9878  183.5194  157.3892 C   0  0  0  0  0  0  0  0  0  0  0  0
  197.4116  182.2306  157.7568 C   0  0  0  0  0  0  0  0  0  0  0  0
  197.6977  181.2612  156.7738 C   0  0  0  0  0  0  0  0  0  0  0  0
  197.5033  177.0588  147.2157 H   0  0  0  0  0  0  0  0  0  0  0  0
  199.8282  176.2515  147.5685 H   0  0  0  0  0  0  0  0  0  0  0  0
  201.2506  177.2950  149.3222 H   0  0  0  0  0  0  0  0  0  0  0  0
  198.3227  179.2342  152.2903 H   0  0  0  0  0  0  0  0  0  0  0  0
  197.9693  179.0174  155.6147 H   0  0  0  0  0  0  0  0  0  0  0  0
  199.7890  178.8920  153.3793 H   0  0  0  0  0  0  0  0  0  0  0  0
  200.2410  180.0236  154.6574 H   0  0  0  0  0  0  0  0  0  0  0  0
  200.1235  176.5659  153.5778 H   0  0  0  0  0  0  0  0  0  0  0  0
  201.6704  175.0412  157.3281 H   0  0  0  0  0  0  0  0  0  0  0  0
  201.4052  177.2750  158.3374 H   0  0  0  0  0  0  0  0  0  0  0  0
  200.4606  179.1435  157.0236 H   0  0  0  0  0  0  0  0  0  0  0  0
  200.7133  173.4930  155.3309 H   0  0  0  0  0  0  0  0  0  0  0  0
  200.5850  174.2633  153.7731 H   0  0  0  0  0  0  0  0  0  0  0  0
  202.9411  172.5842  155.9639 H   0  0  0  0  0  0  0  0  0  0  0  0
  203.4201  174.2389  156.3654 H   0  0  0  0  0  0  0  0  0  0  0  0
  204.3961  173.2900  155.2668 H   0  0  0  0  0  0  0  0  0  0  0  0
  202.2637  172.1011  153.4639 H   0  0  0  0  0  0  0  0  0  0  0  0
  203.7736  172.8971  153.0033 H   0  0  0  0  0  0  0  0  0  0  0  0
  202.2398  173.4659  152.3510 H   0  0  0  0  0  0  0  0  0  0  0  0
  196.9849  182.7882  151.7675 H   0  0  0  0  0  0  0  0  0  0  0  0
  196.5216  184.8290  155.7434 H   0  0  0  0  0  0  0  0  0  0  0  0
  196.7517  184.2513  158.1486 H   0  0  0  0  0  0  0  0  0  0  0  0
  197.5113  181.9758  158.8034 H   0  0  0  0  0  0  0  0  0  0  0  0
  198.0060  180.2754  157.0994 H   0  0  0  0  0  0  0  0  0  0  0  0
  202.9808  174.8592  154.1072 H   0  0  0  0  0  0  0  0  0  0  0  0
  196.5624  184.1220  153.5430 H   0  0  0  0  0  0  0  0  0  0  0  0
  1  2  1  0
  2  3  1  0
  2  8  2  0
  3  4  2  0
  3  9  1  0
  4  5  1  0
  4  6  1  0
  6  7  2  0
  6 34  1  0
  7  8  1  0
  7 35  1  0
  8 36  1  0
  9 10  2  0
  9 11  1  0
 11 12  1  0
 11 37  1  0
 12 13  2  0
 12 29  1  0
 13 14  1  0
 13 26  1  0
 14 15  1  0
 14 38  1  0
 15 16  1  0
 15 39  1  6
 15 40  1  0
 16 17  2  0
 16 21  1  0
 17 18  1  0
 17 41  1  0
 18 19  2  0
 18 22  1  0
 19 20  1  0
 19 42  1  0
 20 21  2  0
 20 43  1  0
 21 44  1  0
 22 23  1  0
 22 45  1  1
 22 46  1  0
 23 24  1  0
 23 25  1  0
 23 58  1  6
 24 47  1  1
 24 48  1  0
 24 49  1  0
 25 50  1  1
 25 51  1  0
 25 52  1  0
 26 27  1  0
 26 33  2  0
 27 28  1  0
 27 30  2  0
 28 29  2  0
 28 59  1  0
 29 53  1  0
 30 31  1  0
 30 54  1  0
 31 32  2  0
 31 55  1  0
 32 33  1  0
 32 56  1  0
 33 57  1  0
M  CHG  2  23   1  28   1
M  END
>  <s_epik_cmdline>  (207) 
J2VwaWtfcHl0aG9uJywgJy1waCcsICc3LjAwMDAwMCcsICctcGh0JywgJzIuMDAwMDAwJywgJy1tcycsICcxNicsICctdG4nLCAnOCcsICctbWEnLCAnMjAwJywgJy1pbWFlJywgJzxpbmZpbGUubWFlPicsICctb21hZScsICc8b3V0ZmlsZS5tYWU+Jw==

>  <s_epik_input>  (207) 
W2NIXTFbY0hdW2NIXWMoQ2wpYyhjMUNsKUMoPU8pW05IXWMoW2NIXW5jKGMyMylbY0hdW2NIXVtjSF1bY0hdMyljMltOSF1bQ0gyXWM0W2NIXWMoW2NIXVtjSF1bY0hdNClbQ0gyXU4oW0NIM10pW0NIM10=

>  <s_i_glide_gridfile>  (207) 
ATP-Grid

>  <s_lp_Force_Field>  (207) 
OPLS_2005

>  <s_lp_Variant>  (207) 
rxn502b____EMOL500425____EMOL30488121____EMOL2873214-1

>  <s_lp_label>  (207) 
2263_sdstereoexpander_1_neutralizer_1_epik_1_stereoizer_1

>  <s_m_source_file>  (207) 
ATP-VSW-LIGPREP-001-in.maegz

>  <s_sd_BIOSOLVEIT.INFINISEE\_QUERY\_NAME>  (207) 
Ref-Lig

>  <s_sd_BIOSOLVEIT.INFINISEE\_QUERY\_SMILES>  (207) 
S(c1nc2c(cc1C[NH2+]Cc3ccc(cc3)C[NH+](C)C)cccc2)Cc4ccccc4

>  <s_sd_BIOSOLVEIT.INFINISEE\_REACTION\_NAME>  (207) 
rxn502b

>  <s_sd_BIOSOLVEIT.INFINISEE\_REAGENT1\_NAME>  (207) 
EMOL500425

>  <s_sd_BIOSOLVEIT.INFINISEE\_REAGENT1\_SMILES>  (207) 
Clc1c(c(Cl)ccc1)C(=O)O

>  <s_sd_BIOSOLVEIT.INFINISEE\_REAGENT2\_NAME>  (207) 
EMOL30488121

>  <s_sd_BIOSOLVEIT.INFINISEE\_REAGENT2\_SMILES>  (207) 
Brc1c(N)cnc2c1cccc2

>  <s_sd_BIOSOLVEIT.INFINISEE\_REAGENT3\_NAME>  (207) 
EMOL2873214

>  <s_sd_BIOSOLVEIT.INFINISEE\_REAGENT3\_SMILES>  (207) 
N(Cc1cc(ccc1)CN)(C)C

>  <s_sd_BIOSOLVEIT.INFINISEE\_SPACE>  (207) 
eXplore_7tr_2022-12

>  <s_vsw_compound_code>  (207) 
72385

>  <s_vsw_variant>  (207) 
72385-1

>  <r_epik_Charging_Adjusted_Penalty>  (207) 
0.24490422870036299

>  <r_epik_Ionization_Penalty>  (207) 
0.12690000000000001

>  <r_epik_Ionization_Penalty_Charging>  (207) 
0.12520000000000001

>  <r_epik_Ionization_Penalty_Neutral>  (207) 
0.0016999999999999999

>  <r_epik_State_Penalty>  (207) 
0.1197

>  <r_i_docking_score>  (207) 
-4.2535308868052999

>  <r_i_glide_ecoul>  (207) 
-8.2223043441772496

>  <r_i_glide_eff_state_penalty>  (207) 
0.1197

>  <r_i_glide_einternal>  (207) 
3.13012790679932

>  <r_i_glide_emodel>  (207) 
-54.380759052642098

>  <r_i_glide_energy>  (207) 
-39.377036094665499

>  <r_i_glide_erotb>  (207) 
0.61271177915292296

>  <r_i_glide_esite>  (207) 
-0.094921777340957705

>  <r_i_glide_evdw>  (207) 
-31.154731750488299

>  <r_i_glide_gscore>  (207) 
-4.3732308868052998

>  <r_i_glide_hbond>  (207) 
0

>  <r_i_glide_ligand_efficiency>  (207) 
-0.128894875357736

>  <r_i_glide_ligand_efficiency_ln>  (207) 
-0.94596324562124401

>  <r_i_glide_ligand_efficiency_sa>  (207) 
-0.41343473718861301

>  <r_i_glide_lipo>  (207) 
-1.4771789149019501

>  <r_i_glide_metal>  (207) 
-0

>  <r_i_glide_rewards>  (207) 
-0.622759734564312

>  <r_lp_Energy>  (207) 
42.369799999999998

>  <r_qp_ACxDN^.5/SA>  (207) 
0.013495

>  <r_qp_CIQPlogS>  (207) 
-6.5679999999999996

>  <r_qp_EA(eV)>  (207) 
0.96499999999999997

>  <r_qp_FISA>  (207) 
62.396000000000001

>  <r_qp_FOSA>  (207) 
165.22

>  <r_qp_IP(eV)>  (207) 
8.5419999999999998

>  <r_qp_Jm>  (207) 
0.039505422245162597

>  <r_qp_PISA>  (207) 
363.07600000000002

>  <r_qp_PSA>  (207) 
58.381

>  <r_qp_PercentHumanOralAbsorption>  (207) 
100

>  <r_qp_QPPCaco>  (207) 
632.55999999999995

>  <r_qp_QPPMDCK>  (207) 
1044.4770000000001

>  <r_qp_QPlogBB>  (207) 
0.20799999999999999

>  <r_qp_QPlogHERG>  (207) 
-6.1529999999999996

>  <r_qp_QPlogKhsa>  (207) 
0.70999999999999996

>  <r_qp_QPlogKp>  (207) 
-2.7810000000000001

>  <r_qp_QPlogPC16>  (207) 
14.773999999999999

>  <r_qp_QPlogPo/w>  (207) 
4.7329999999999997

>  <r_qp_QPlogPoct>  (207) 
23.343

>  <r_qp_QPlogPw>  (207) 
12.071999999999999

>  <r_qp_QPlogS>  (207) 
-4.3029999999999999

>  <r_qp_QPpolrz>  (207) 
46.756999999999998

>  <r_qp_SASA>  (207) 
681.17200000000003

>  <r_qp_SAamideO>  (207) 
0

>  <r_qp_SAfluorine>  (207) 
0

>  <r_qp_WPSA>  (207) 
90.480999999999995

>  <r_qp_accptHB>  (207) 
6.5

>  <r_qp_dip^2/V>  (207) 
0.067658999999999997

>  <r_qp_dipole>  (207) 
9.5489999999999995

>  <r_qp_donorHB>  (207) 
2

>  <r_qp_glob>  (207) 
0.86627779999999999

>  <r_qp_mol_MW>  (207) 
479.40800000000002

>  <r_qp_volume>  (207) 
1347.7940000000001

>  <r_sd_BIOSOLVEIT.INFINISEE\_FTREES\_SIMILARITY>  (207) 
0.92600000000000005

>  <r_sd_BIOSOLVEIT.LOGP>  (207) 
5.0505000000000004

>  <r_sd_BIOSOLVEIT.MOLECULAR\_WEIGHT>  (207) 
480.41699999999997

>  <r_sd_BIOSOLVEIT.TPSA>  (207) 
58.460000000000001

>  <i_epik_Tot_Q>  (207) 
2

>  <i_epik_Tot_abs_Q>  (207) 
2

>  <i_f3d_flags>  (207) 
0

>  <i_i_glide_confnum>  (207) 
5

>  <i_i_glide_lignum>  (207) 
787

>  <i_i_glide_posenum>  (207) 
10

>  <i_i_glide_rotatable_bonds>  (207) 
8

>  <i_lp_mmshare_version>  (207) 
65135

>  <i_m_ct_format>  (207) 
2

>  <i_m_source_file_index>  (207) 
2263

>  <i_qp_#NandO>  (207) 
5

>  <i_qp_#acid>  (207) 
0

>  <i_qp_#amide>  (207) 
0

>  <i_qp_#amidine>  (207) 
0

>  <i_qp_#amine>  (207) 
1

>  <i_qp_#in34>  (207) 
0

>  <i_qp_#in56>  (207) 
22

>  <i_qp_#metab>  (207) 
6

>  <i_qp_#nonHatm>  (207) 
33

>  <i_qp_#noncon>  (207) 
0

>  <i_qp_#ringatoms>  (207) 
22

>  <i_qp_#rotor>  (207) 
7

>  <i_qp_#rtvFG>  (207) 
0

>  <i_qp_#stars>  (207) 
0

>  <i_qp_CNS>  (207) 
1

>  <i_qp_HumanOralAbsorption>  (207) 
3

>  <i_qp_RuleOfFive>  (207) 
0

>  <i_qp_RuleOfThree>  (207) 
0

>  <i_sd_BIOSOLVEIT.INFINISEE\_RESULT\_RANK>  (207) 
8588

>  <i_sd_version>  (207) 
0

>  <b_lp_Chiralities_Consistent>  (207) 
1

>  <b_sd_chiral_flag>  (207) 
0

>  <canonical_id>  (207) 
ATP-HTVS-2118F57CAFF1

>  <compound_code>  (207) 
72385

>  <title>  (207) 
rxn502b____EMOL500425____EMOL30488121____EMOL2873214

>  <variant>  (207) 
72385-1

>  <source_file>  (207) 
运行/运行/ATP-VSW/ATP-VSW-DOCK_HTVS_1-001_lib/ATP-VSW-DOCK_HTVS_1-001_lib

>  <canonical_smiles>  (207) 
C[NH+](C)Cc1cccc(CNc2c(NC(=O)c3c(Cl)cccc3Cl)c[nH+]c3ccccc23)c1

>  <scaffold>  (207) 
O=C(Nc1c[nH+]c2ccccc2c1NCc1ccccc1)c1ccccc1

>  <molecular_formula>  (207) 
C26H26Cl2N4O+2

$$$$
ATP-HTVS-2125555B1DA5
     RDKit          3D

 58 61  0  0  0  0  0  0  0  0999 V2000
  194.6475  186.2889  160.6430 F   0  0  0  0  0  0  0  0  0  0  0  0
  195.1006  185.2043  159.9875 C   0  0  0  0  0  0  0  0  0  0  0  0
  196.5026  185.0070  159.7435 C   0  0  0  0  0  0  0  0  0  0  0  0
  197.4210  185.9558  160.1023 O   0  0  0  0  0  0  0  0  0  0  0  0
  197.2586  187.2638  159.5647 C   0  0  1  0  0  0  0  0  0  0  0  0
  197.7190  187.2793  158.1648 C   0  0  0  0  0  0  0  0  0  0  0  0
  198.0627  187.1765  156.9943 C   0  0  0  0  0  0  0  0  0  0  0  0
  198.4192  186.9535  155.6388 C   0  0  0  0  0  0  0  0  0  0  0  0
  199.1054  187.9460  154.8693 C   0  0  0  0  0  0  0  0  0  0  0  0
  199.3060  187.4120  153.5665 C   0  0  0  0  0  0  0  0  0  0  0  0
  198.7607  186.1466  153.5927 N   0  0  0  0  0  0  0  0  0  0  0  0
  198.1976  185.8727  154.8179 C   0  0  0  0  0  0  0  0  0  0  0  0
  197.5041  184.5616  155.0316 C   0  0  0  0  0  0  0  0  0  0  0  0
  196.9862  184.3092  156.0986 O   0  0  0  0  0  0  0  0  0  0  0  0
  197.5375  183.7178  154.0024 N   0  0  0  0  0  0  0  0  0  0  0  0
  197.0011  182.3577  153.9954 C   0  0  1  0  0  0  0  0  0  0  0  0
  197.8212  181.3370  154.7874 C   0  0  0  0  0  0  0  0  0  0  0  0
  197.6585  179.9613  154.4989 C   0  0  0  0  0  0  0  0  0  0  0  0
  198.3788  178.9949  155.2322 C   0  0  0  0  0  0  0  0  0  0  0  0
  199.2541  179.4014  156.2614 C   0  0  0  0  0  0  0  0  0  0  0  0
  199.4218  180.7650  156.5492 C   0  0  0  0  0  0  0  0  0  0  0  0
  198.7167  181.7326  155.8058 C   0  0  0  0  0  0  0  0  0  0  0  0
  200.0404  178.3835  157.0587 C   0  0  1  0  0  0  0  0  0  0  0  0
  201.4437  178.3411  156.5809 N   0  0  1  0  0  0  0  0  0  0  0  0
  201.5996  177.7677  155.2287 C   0  0  2  0  0  0  0  0  0  0  0  0
  199.9265  188.1331  152.5418 C   0  0  0  0  0  0  0  0  0  0  0  0
  200.3660  189.4420  152.7984 C   0  0  0  0  0  0  0  0  0  0  0  0
  200.1918  189.9988  154.0821 C   0  0  0  0  0  0  0  0  0  0  0  0
  199.5773  189.2586  155.1109 C   0  0  0  0  0  0  0  0  0  0  0  0
  196.9220  183.8184  159.1375 C   0  0  0  0  0  0  0  0  0  0  0  0
  196.0034  182.8449  158.7218 C   0  0  0  0  0  0  0  0  0  0  0  0
  194.6236  183.0518  158.9252 C   0  0  0  0  0  0  0  0  0  0  0  0
  194.1804  184.2272  159.5527 C   0  0  0  0  0  0  0  0  0  0  0  0
  201.8026  179.2872  156.5704 H   0  0  0  0  0  0  0  0  0  0  0  0
  196.2234  187.6239  159.5742 H   0  0  0  0  0  0  0  0  0  0  0  0
  197.8409  187.9747  160.1364 H   0  0  0  0  0  0  0  0  0  0  0  0
  198.7551  185.5158  152.8004 H   0  0  0  0  0  0  0  0  0  0  0  0
  197.9487  184.0200  153.1360 H   0  0  0  0  0  0  0  0  0  0  0  0
  195.9609  182.3557  154.3277 H   0  0  0  0  0  0  0  0  0  0  0  0
  196.9858  182.0422  152.9555 H   0  0  0  0  0  0  0  0  0  0  0  0
  196.9841  179.6425  153.7178 H   0  0  0  0  0  0  0  0  0  0  0  0
  198.2601  177.9416  155.0084 H   0  0  0  0  0  0  0  0  0  0  0  0
  200.0704  181.0907  157.3444 H   0  0  0  0  0  0  0  0  0  0  0  0
  198.8731  182.7814  156.0748 H   0  0  0  0  0  0  0  0  0  0  0  0
  200.0251  178.6723  158.1123 H   0  0  0  0  0  0  0  0  0  0  0  0
  199.5672  177.3962  156.9948 H   0  0  0  0  0  0  0  0  0  0  0  0
  202.6526  177.7583  154.9431 H   0  0  0  0  0  0  0  0  0  0  0  0
  201.0586  178.3483  154.4796 H   0  0  0  0  0  0  0  0  0  0  0  0
  201.2236  176.7440  155.2051 H   0  0  0  0  0  0  0  0  0  0  0  0
  200.0414  187.6875  151.5641 H   0  0  0  0  0  0  0  0  0  0  0  0
  200.8389  190.0101  152.0117 H   0  0  0  0  0  0  0  0  0  0  0  0
  200.5304  191.0072  154.2781 H   0  0  0  0  0  0  0  0  0  0  0  0
  199.4287  189.7005  156.0848 H   0  0  0  0  0  0  0  0  0  0  0  0
  197.9796  183.6716  158.9411 H   0  0  0  0  0  0  0  0  0  0  0  0
  196.3337  181.9452  158.2122 H   0  0  0  0  0  0  0  0  0  0  0  0
  193.9126  182.3107  158.5957 H   0  0  0  0  0  0  0  0  0  0  0  0
  193.1301  184.3933  159.7211 H   0  0  0  0  0  0  0  0  0  0  0  0
  202.0177  177.8067  157.2233 H   0  0  0  0  0  0  0  0  0  0  0  0
  1  2  1  0
  2  3  1  0
  2 33  2  0
  3  4  1  0
  3 30  2  0
  4  5  1  0
  5  6  1  0
  5 35  1  6
  5 36  1  0
  6  7  3  0
  7  8  1  0
  8  9  1  0
  8 12  2  0
  9 10  1  0
  9 29  2  0
 10 11  1  0
 10 26  2  0
 11 12  1  0
 11 37  1  0
 12 13  1  0
 13 14  2  0
 13 15  1  0
 15 16  1  0
 15 38  1  0
 16 17  1  0
 16 39  1  1
 16 40  1  0
 17 18  1  0
 17 22  2  0
 18 19  2  0
 18 41  1  0
 19 20  1  0
 19 42  1  0
 20 21  2  0
 20 23  1  0
 21 22  1  0
 21 43  1  0
 22 44  1  0
 23 24  1  0
 23 45  1  1
 23 46  1  0
 24 25  1  0
 24 34  1  6
 24 58  1  0
 25 47  1  6
 25 48  1  0
 25 49  1  0
 26 27  1  0
 26 50  1  0
 27 28  2  0
 27 51  1  0
 28 29  1  0
 28 52  1  0
 29 53  1  0
 30 31  1  0
 30 54  1  0
 31 32  2  0
 31 55  1  0
 32 33  1  0
 32 56  1  0
 33 57  1  0
M  CHG  1  24   1
M  END
>  <s_epik_cmdline>  (208) 
J2VwaWtfcHl0aG9uJywgJy1waCcsICc3LjAwMDAwMCcsICctcGh0JywgJzIuMDAwMDAwJywgJy1tcycsICcxNicsICctdG4nLCAnOCcsICctbWEnLCAnMjAwJywgJy1pbWFlJywgJzxpbmZpbGUubWFlPicsICctb21hZScsICc8b3V0ZmlsZS5tYWU+Jw==

>  <s_epik_input>  (208) 
W2NIXTFbY0hdW2NIXVtjSF1jKGMxRilPW0NIMl1DI0NjMmMoW25IXWMoYzIzKVtjSF1bY0hdW2NIXVtjSF0zKUMoPU8pW05IXVtDSDJdYzRbY0hdW2NIXWMoW2NIXVtjSF00KVtDSDJdW05IXVtDSDNd

>  <s_i_glide_gridfile>  (208) 
ATP-Grid

>  <s_lp_Force_Field>  (208) 
OPLS_2005

>  <s_lp_Variant>  (208) 
rxn513b____EMOL108753565____EMOL719673____EMOL32444209-1

>  <s_lp_label>  (208) 
2648_sdstereoexpander_1_neutralizer_1_epik_1_stereoizer_1

>  <s_m_source_file>  (208) 
ATP-VSW-LIGPREP-002-in.maegz

>  <s_sd_BIOSOLVEIT.INFINISEE\_QUERY\_NAME>  (208) 
Ref-Lig

>  <s_sd_BIOSOLVEIT.INFINISEE\_QUERY\_SMILES>  (208) 
S(c1nc2c(cc1C[NH2+]Cc3ccc(cc3)C[NH+](C)C)cccc2)Cc4ccccc4

>  <s_sd_BIOSOLVEIT.INFINISEE\_REACTION\_NAME>  (208) 
rxn513b

>  <s_sd_BIOSOLVEIT.INFINISEE\_REAGENT1\_NAME>  (208) 
EMOL108753565

>  <s_sd_BIOSOLVEIT.INFINISEE\_REAGENT1\_SMILES>  (208) 
N(Cc1ccc(cc1)CN)C

>  <s_sd_BIOSOLVEIT.INFINISEE\_REAGENT2\_NAME>  (208) 
EMOL719673

>  <s_sd_BIOSOLVEIT.INFINISEE\_REAGENT2\_SMILES>  (208) 
BrC=1c2c(NC1C(=O)O)cccc2

>  <s_sd_BIOSOLVEIT.INFINISEE\_REAGENT3\_NAME>  (208) 
EMOL32444209

>  <s_sd_BIOSOLVEIT.INFINISEE\_REAGENT3\_SMILES>  (208) 
Fc1c(OCC#C)cccc1

>  <s_sd_BIOSOLVEIT.INFINISEE\_SPACE>  (208) 
eXplore_7tr_2022-12

>  <s_vsw_compound_code>  (208) 
84706

>  <s_vsw_variant>  (208) 
84706-1

>  <r_epik_Charging_Adjusted_Penalty>  (208) 
0.036878850798054502

>  <r_epik_Ionization_Penalty>  (208) 
0.0184

>  <r_epik_Ionization_Penalty_Charging>  (208) 
0.0184

>  <r_epik_Ionization_Penalty_Neutral>  (208) 
0

>  <r_epik_State_Penalty>  (208) 
0.0184

>  <r_i_docking_score>  (208) 
-4.3056932883568901

>  <r_i_glide_ecoul>  (208) 
-7.4521422386169398

>  <r_i_glide_eff_state_penalty>  (208) 
0.0184

>  <r_i_glide_einternal>  (208) 
8.4933776855468803

>  <r_i_glide_emodel>  (208) 
-54.507396251770302

>  <r_i_glide_energy>  (208) 
-43.450963497161901

>  <r_i_glide_erotb>  (208) 
0.81645954966728895

>  <r_i_glide_esite>  (208) 
-0.0292625310436356

>  <r_i_glide_evdw>  (208) 
-35.998821258544901

>  <r_i_glide_gscore>  (208) 
-4.3240932883568899

>  <r_i_glide_hbond>  (208) 
0

>  <r_i_glide_ligand_efficiency>  (208) 
-0.13047555419263299

>  <r_i_glide_ligand_efficiency_ln>  (208) 
-0.95756389364385697

>  <r_i_glide_ligand_efficiency_sa>  (208) 
-0.41850481881033302

>  <r_i_glide_lipo>  (208) 
-1.44619190947081

>  <r_i_glide_metal>  (208) 
-0

>  <r_i_glide_rewards>  (208) 
-0.74733599878994705

>  <r_lp_Energy>  (208) 
12.653024

>  <r_lp_tautomer_probability>  (208) 
1

>  <r_qp_ACxDN^.5/SA>  (208) 
0.0116829

>  <r_qp_CIQPlogS>  (208) 
-6.2949999999999999

>  <r_qp_EA(eV)>  (208) 
0.63300000000000001

>  <r_qp_FISA>  (208) 
72.682000000000002

>  <r_qp_FOSA>  (208) 
183.33000000000001

>  <r_qp_IP(eV)>  (208) 
8.3949999999999996

>  <r_qp_Jm>  (208) 
0.0444154660902761

>  <r_qp_PISA>  (208) 
427.19499999999999

>  <r_qp_PSA>  (208) 
66.864999999999995

>  <r_qp_PercentHumanOralAbsorption>  (208) 
100

>  <r_qp_QPPCaco>  (208) 
505.31200000000001

>  <r_qp_QPPMDCK>  (208) 
341.08800000000002

>  <r_qp_QPlogBB>  (208) 
-0.22900000000000001

>  <r_qp_QPlogHERG>  (208) 
-7.0179999999999998

>  <r_qp_QPlogKhsa>  (208) 
0.78700000000000003

>  <r_qp_QPlogKp>  (208) 
-2.5529999999999999

>  <r_qp_QPlogPC16>  (208) 
14.643000000000001

>  <r_qp_QPlogPo/w>  (208) 
4.8460000000000001

>  <r_qp_QPlogPoct>  (208) 
22.367999999999999

>  <r_qp_QPlogPw>  (208) 
11.909000000000001

>  <r_qp_QPlogS>  (208) 
-4.4450000000000003

>  <r_qp_QPpolrz>  (208) 
45.485999999999997

>  <r_qp_SASA>  (208) 
704.20899999999995

>  <r_qp_SAamideO>  (208) 
0

>  <r_qp_SAfluorine>  (208) 
21.003

>  <r_qp_WPSA>  (208) 
21.003

>  <r_qp_accptHB>  (208) 
4.75

>  <r_qp_dip^2/V>  (208) 
0.021348900000000001

>  <r_qp_dipole>  (208) 
5.3339999999999996

>  <r_qp_donorHB>  (208) 
3

>  <r_qp_glob>  (208) 
0.83171989999999996

>  <r_qp_mol_MW>  (208) 
441.50400000000002

>  <r_qp_volume>  (208) 
1332.818

>  <r_sd_BIOSOLVEIT.INFINISEE\_FTREES\_SIMILARITY>  (208) 
0.91000000000000003

>  <r_sd_BIOSOLVEIT.LOGP>  (208) 
3.3607

>  <r_sd_BIOSOLVEIT.MOLECULAR\_WEIGHT>  (208) 
442.512

>  <r_sd_BIOSOLVEIT.TPSA>  (208) 
70.730000000000004

>  <i_epik_Tot_Q>  (208) 
1

>  <i_epik_Tot_abs_Q>  (208) 
1

>  <i_f3d_flags>  (208) 
0

>  <i_i_glide_confnum>  (208) 
7

>  <i_i_glide_lignum>  (208) 
1241

>  <i_i_glide_posenum>  (208) 
9

>  <i_i_glide_rotatable_bonds>  (208) 
10

>  <i_lp_mmshare_version>  (208) 
65135

>  <i_m_ct_format>  (208) 
2

>  <i_m_source_file_index>  (208) 
2648

>  <i_qp_#NandO>  (208) 
5

>  <i_qp_#acid>  (208) 
0

>  <i_qp_#amide>  (208) 
0

>  <i_qp_#amidine>  (208) 
0

>  <i_qp_#amine>  (208) 
1

>  <i_qp_#in34>  (208) 
0

>  <i_qp_#in56>  (208) 
21

>  <i_qp_#metab>  (208) 
5

>  <i_qp_#nonHatm>  (208) 
33

>  <i_qp_#noncon>  (208) 
0

>  <i_qp_#ringatoms>  (208) 
21

>  <i_qp_#rotor>  (208) 
9

>  <i_qp_#rtvFG>  (208) 
0

>  <i_qp_#stars>  (208) 
0

>  <i_qp_CNS>  (208) 
0

>  <i_qp_HumanOralAbsorption>  (208) 
3

>  <i_qp_RuleOfFive>  (208) 
0

>  <i_qp_RuleOfThree>  (208) 
0

>  <i_sd_BIOSOLVEIT.INFINISEE\_RESULT\_RANK>  (208) 
46151

>  <i_sd_version>  (208) 
0

>  <b_lp_Chiralities_Consistent>  (208) 
1

>  <b_sd_chiral_flag>  (208) 
0

>  <canonical_id>  (208) 
ATP-HTVS-2125555B1DA5

>  <compound_code>  (208) 
84706

>  <title>  (208) 
rxn513b____EMOL108753565____EMOL719673____EMOL32444209

>  <variant>  (208) 
84706-1

>  <source_file>  (208) 
运行/运行/ATP-VSW/ATP-VSW-DOCK_HTVS_1-002_lib.maegz

>  <canonical_smiles>  (208) 
C[NH2+]Cc1ccc(CNC(=O)c2[nH]c3ccccc3c2C#CCOc2ccccc2F)cc1

>  <scaffold>  (208) 
O=C(NCc1ccccc1)c1[nH]c2ccccc2c1C#CCOc1ccccc1

>  <molecular_formula>  (208) 
C27H25FN3O2+

$$$$
ATP-HTVS-217395D9F0A5
     RDKit          3D

 71 74  0  0  0  0  0  0  0  0999 V2000
  199.0419  180.6339  154.3098 N   0  0  0  0  0  0  0  0  0  0  0  0
  197.7532  180.9035  154.5465 C   0  0  0  0  0  0  0  0  0  0  0  0
  196.8233  180.7975  153.5994 N   0  0  0  0  0  0  0  0  0  0  0  0
  197.1607  180.3590  152.3620 C   0  0  0  0  0  0  0  0  0  0  0  0
  198.5014  180.0144  152.0677 C   0  0  0  0  0  0  0  0  0  0  0  0
  199.4382  180.1736  153.1059 C   0  0  0  0  0  0  0  0  0  0  0  0
  200.8014  179.8654  152.9266 N   0  0  0  0  0  0  0  0  0  0  0  0
  201.7323  179.7871  154.0484 C   0  0  1  0  0  0  0  0  0  0  0  0
  201.5407  178.5836  154.9628 C   0  0  0  0  0  0  0  0  0  0  0  0
  202.1629  177.3520  154.6708 C   0  0  0  0  0  0  0  0  0  0  0  0
  201.9679  176.2460  155.5326 C   0  0  0  0  0  0  0  0  0  0  0  0
  201.1515  176.3653  156.6778 C   0  0  0  0  0  0  0  0  0  0  0  0
  200.5371  177.5941  156.9675 C   0  0  0  0  0  0  0  0  0  0  0  0
  200.7464  178.6963  156.1224 C   0  0  0  0  0  0  0  0  0  0  0  0
  202.6322  174.9202  155.2296 C   0  0  1  0  0  0  0  0  0  0  0  0
  201.7021  173.9702  154.5670 N   0  0  2  0  0  0  0  0  0  0  0  0
  202.3096  172.6330  154.4213 C   0  0  2  0  0  0  0  0  0  0  0  0
  201.1523  174.4699  153.2818 C   0  0  2  0  0  0  0  0  0  0  0  0
  198.8331  179.5377  150.7756 C   0  0  0  0  0  0  0  0  0  0  0  0
  197.8341  179.4251  149.7879 C   0  0  0  0  0  0  0  0  0  0  0  0
  196.5036  179.7874  150.0847 C   0  0  0  0  0  0  0  0  0  0  0  0
  196.1677  180.2485  151.3754 C   0  0  0  0  0  0  0  0  0  0  0  0
  197.3647  181.3078  155.8104 N   0  0  0  0  0  0  0  0  0  0  0  0
  198.2898  181.4650  156.9295 C   0  0  1  0  0  0  0  0  0  0  0  0
  198.2830  182.8827  157.5724 C   0  0  2  0  0  0  0  0  0  0  0  0
  199.3530  183.0534  158.6205 N   0  0  1  0  0  0  0  0  0  0  0  0
  200.7090  182.6127  158.1998 C   0  0  2  0  0  0  0  0  0  0  0  0
  199.4451  184.4126  159.2155 C   0  0  2  0  0  0  0  0  0  0  0  0
  196.9006  183.2544  158.1113 C   0  0  0  0  0  0  0  0  0  0  0  0
  195.9709  182.2673  158.5260 C   0  0  0  0  0  0  0  0  0  0  0  0
  194.7198  182.6357  159.0398 C   0  0  0  0  0  0  0  0  0  0  0  0
  194.3903  183.9913  159.2055 C   0  0  0  0  0  0  0  0  0  0  0  0
  195.3114  184.9823  158.8136 C   0  0  0  0  0  0  0  0  0  0  0  0
  196.5366  184.6164  158.2216 C   0  0  0  0  0  0  0  0  0  0  0  0
  201.1244  179.5541  152.0213 H   0  0  0  0  0  0  0  0  0  0  0  0
  202.7448  179.7676  153.6477 H   0  0  0  0  0  0  0  0  0  0  0  0
  201.6634  180.7061  154.6316 H   0  0  0  0  0  0  0  0  0  0  0  0
  202.7883  177.2600  153.7920 H   0  0  0  0  0  0  0  0  0  0  0  0
  201.0100  175.5216  157.3365 H   0  0  0  0  0  0  0  0  0  0  0  0
  199.9001  177.6985  157.8312 H   0  0  0  0  0  0  0  0  0  0  0  0
  200.2835  179.6327  156.3703 H   0  0  0  0  0  0  0  0  0  0  0  0
  203.5150  175.0886  154.6085 H   0  0  0  0  0  0  0  0  0  0  0  0
  202.9846  174.4961  156.1743 H   0  0  0  0  0  0  0  0  0  0  0  0
  203.1787  172.6632  153.7626 H   0  0  0  0  0  0  0  0  0  0  0  0
  201.5917  171.9282  154.0038 H   0  0  0  0  0  0  0  0  0  0  0  0
  202.6344  172.2370  155.3839 H   0  0  0  0  0  0  0  0  0  0  0  0
  201.9510  174.6630  152.5645 H   0  0  0  0  0  0  0  0  0  0  0  0
  200.5826  175.3901  153.4142 H   0  0  0  0  0  0  0  0  0  0  0  0
  200.4715  173.7384  152.8454 H   0  0  0  0  0  0  0  0  0  0  0  0
  199.8446  179.2609  150.5177 H   0  0  0  0  0  0  0  0  0  0  0  0
  198.0845  179.0641  148.7980 H   0  0  0  0  0  0  0  0  0  0  0  0
  195.7373  179.6992  149.3229 H   0  0  0  0  0  0  0  0  0  0  0  0
  195.1468  180.5195  151.5982 H   0  0  0  0  0  0  0  0  0  0  0  0
  196.3743  181.2849  156.0153 H   0  0  0  0  0  0  0  0  0  0  0  0
  198.0579  180.6849  157.6571 H   0  0  0  0  0  0  0  0  0  0  0  0
  199.3021  181.2808  156.5875 H   0  0  0  0  0  0  0  0  0  0  0  0
  198.5173  183.5802  156.7615 H   0  0  0  0  0  0  0  0  0  0  0  0
  201.0225  183.1219  157.2859 H   0  0  0  0  0  0  0  0  0  0  0  0
  200.7773  181.5374  158.0428 H   0  0  0  0  0  0  0  0  0  0  0  0
  201.4489  182.8362  158.9684 H   0  0  0  0  0  0  0  0  0  0  0  0
  199.6429  185.1546  158.4397 H   0  0  0  0  0  0  0  0  0  0  0  0
  200.2570  184.4774  159.9447 H   0  0  0  0  0  0  0  0  0  0  0  0
  198.5414  184.6946  159.7539 H   0  0  0  0  0  0  0  0  0  0  0  0
  196.1793  181.2053  158.4749 H   0  0  0  0  0  0  0  0  0  0  0  0
  194.0231  181.8607  159.3256 H   0  0  0  0  0  0  0  0  0  0  0  0
  193.4388  184.2745  159.6305 H   0  0  0  0  0  0  0  0  0  0  0  0
  195.0717  186.0300  158.9438 H   0  0  0  0  0  0  0  0  0  0  0  0
  197.2054  185.3996  157.8873 H   0  0  0  0  0  0  0  0  0  0  0  0
  195.8589  181.0594  153.7897 H   0  0  0  0  0  0  0  0  0  0  0  0
  199.0783  182.4477  159.3806 H   0  0  0  0  0  0  0  0  0  0  0  0
  200.9144  173.8681  155.1930 H   0  0  0  0  0  0  0  0  0  0  0  0
  1  2  1  0
  1  6  2  0
  2  3  2  0
  2 23  1  0
  3  4  1  0
  3 69  1  0
  4  5  1  0
  4 22  2  0
  5  6  1  0
  5 19  2  0
  6  7  1  0
  7  8  1  0
  7 35  1  0
  8  9  1  0
  8 36  1  6
  8 37  1  0
  9 10  2  0
  9 14  1  0
 10 11  1  0
 10 38  1  0
 11 12  2  0
 11 15  1  0
 12 13  1  0
 12 39  1  0
 13 14  2  0
 13 40  1  0
 14 41  1  0
 15 16  1  0
 15 42  1  6
 15 43  1  0
 16 17  1  0
 16 18  1  0
 16 71  1  1
 17 44  1  6
 17 45  1  0
 17 46  1  0
 18 47  1  6
 18 48  1  0
 18 49  1  0
 19 20  1  0
 19 50  1  0
 20 21  2  0
 20 51  1  0
 21 22  1  0
 21 52  1  0
 22 53  1  0
 23 24  1  0
 23 54  1  0
 24 25  1  0
 24 55  1  1
 24 56  1  0
 25 26  1  0
 25 29  1  0
 25 57  1  6
 26 27  1  0
 26 28  1  0
 26 70  1  1
 27 58  1  6
 27 59  1  0
 27 60  1  0
 28 61  1  6
 28 62  1  0
 28 63  1  0
 29 30  2  0
 29 34  1  0
 30 31  1  0
 30 64  1  0
 31 32  2  0
 31 65  1  0
 32 33  1  0
 32 66  1  0
 33 34  2  0
 33 67  1  0
 34 68  1  0
M  CHG  3   3   1  16   1  26   1
M  END
>  <s_epik_cmdline>  (209) 
J2VwaWtfcHl0aG9uJywgJy1waCcsICc3LjAwMDAwMCcsICctcGh0JywgJzIuMDAwMDAwJywgJy1tcycsICcxNicsICctdG4nLCAnOCcsICctbWEnLCAnMjAwJywgJy1pbWFlJywgJzxpbmZpbGUubWFlPicsICctb21hZScsICc8b3V0ZmlsZS5tYWU+Jw==

>  <s_epik_input>  (209) 
W2NIXTFbY0hdW2NIXWMoW0NIMl1OKFtDSDNdKVtDSDNdKVtjSF1jMVtDSDJdW05IXWMoYyhjMjMpW2NIXVtjSF1bY0hdW2NIXTMpbmMobjIpW05IXVtDSDJdW0NASF0oTihbQ0gzXSlbQ0gzXSljNFtjSF1bY0hdW2NIXVtjSF1bY0hdNA==

>  <s_i_glide_gridfile>  (209) 
ATP-Grid

>  <s_lp_Force_Field>  (209) 
OPLS_2005

>  <s_lp_Variant>  (209) 
m_282030aaa____21930822____22360182____21940090-1

>  <s_lp_label>  (209) 
1558_sdstereoexpander_1_neutralizer_1_epik_1_stereoizer_1

>  <s_m_source_file>  (209) 
ATP-VSW-LIGPREP-001-in.maegz

>  <s_sd_BIOSOLVEIT.INFINISEE\_QUERY\_NAME>  (209) 
Ref-Lig

>  <s_sd_BIOSOLVEIT.INFINISEE\_QUERY\_SMILES>  (209) 
S(c1nc2c(cc1C[NH2+]Cc3ccc(cc3)C[NH+](C)C)cccc2)Cc4ccccc4

>  <s_sd_BIOSOLVEIT.INFINISEE\_REACTION\_NAME>  (209) 
m_282030aaa

>  <s_sd_BIOSOLVEIT.INFINISEE\_REAGENT1\_SMILES>  (209) 
[R1*]NCC(N(C)C)c1ccccc1

>  <s_sd_BIOSOLVEIT.INFINISEE\_REAGENT2\_SMILES>  (209) 
[R2*]c1nc([R1*])c2c(n1)cccc2

>  <s_sd_BIOSOLVEIT.INFINISEE\_REAGENT3\_SMILES>  (209) 
[R2*]NCc1cc(ccc1)CN(C)C

>  <s_sd_BIOSOLVEIT.INFINISEE\_SPACE>  (209) 
REALSpace_44bn_2023-08

>  <s_vsw_compound_code>  (209) 
49825

>  <s_vsw_variant>  (209) 
49825-1

>  <r_epik_Charging_Adjusted_Penalty>  (209) 
0.27557621294436502

>  <r_epik_Ionization_Penalty>  (209) 
0.1915

>  <r_epik_Ionization_Penalty_Charging>  (209) 
0.1915

>  <r_epik_Ionization_Penalty_Neutral>  (209) 
0.0001

>  <r_epik_State_Penalty>  (209) 
0.084099999999999994

>  <r_i_docking_score>  (209) 
-4.1322176804289503

>  <r_i_glide_ecoul>  (209) 
-7.7825899124145499

>  <r_i_glide_eff_state_penalty>  (209) 
0.084099999999999994

>  <r_i_glide_einternal>  (209) 
4.0743136405944798

>  <r_i_glide_emodel>  (209) 
-62.806306982119096

>  <r_i_glide_energy>  (209) 
-42.307820320129402

>  <r_i_glide_erotb>  (209) 
0.67204340170982202

>  <r_i_glide_esite>  (209) 
-0.089869980312449804

>  <r_i_glide_evdw>  (209) 
-34.525230407714801

>  <r_i_glide_gscore>  (209) 
-4.2163176804289497

>  <r_i_glide_hbond>  (209) 
0

>  <r_i_glide_ligand_efficiency>  (209) 
-0.121535814130263

>  <r_i_glide_ligand_efficiency_ln>  (209) 
-0.91292279038673396

>  <r_i_glide_ligand_efficiency_sa>  (209) 
-0.39372885727145701

>  <r_i_glide_lipo>  (209) 
-1.61597914003294

>  <r_i_glide_metal>  (209) 
-0

>  <r_i_glide_rewards>  (209) 
-0.28886195454545299

>  <r_lp_Energy>  (209) 
25.859957000000001

>  <r_qp_ACxDN^.5/SA>  (209) 
0.0123097

>  <r_qp_CIQPlogS>  (209) 
-4.8250000000000002

>  <r_qp_EA(eV)>  (209) 
0.50600000000000001

>  <r_qp_FISA>  (209) 
39.511000000000003

>  <r_qp_FOSA>  (209) 
360.44

>  <r_qp_IP(eV)>  (209) 
7.9619999999999997

>  <r_qp_Jm>  (209) 
0.0032882317718255501

>  <r_qp_PISA>  (209) 
404.255

>  <r_qp_PSA>  (209) 
49.988999999999997

>  <r_qp_PercentHumanOralAbsorption>  (209) 
100

>  <r_qp_QPPCaco>  (209) 
260.02699999999999

>  <r_qp_QPPMDCK>  (209) 
141.19300000000001

>  <r_qp_QPlogBB>  (209) 
0.33700000000000002

>  <r_qp_QPlogHERG>  (209) 
-8.2899999999999991

>  <r_qp_QPlogKhsa>  (209) 
0.86699999999999999

>  <r_qp_QPlogKp>  (209) 
-3.9889999999999999

>  <r_qp_QPlogPC16>  (209) 
15.885

>  <r_qp_QPlogPo/w>  (209) 
4.8250000000000002

>  <r_qp_QPlogPoct>  (209) 
23.635999999999999

>  <r_qp_QPlogPw>  (209) 
12.291

>  <r_qp_QPlogS>  (209) 
-4.1520000000000001

>  <r_qp_QPpolrz>  (209) 
51.691000000000003

>  <r_qp_SASA>  (209) 
804.20500000000004

>  <r_qp_SAamideO>  (209) 
0

>  <r_qp_SAfluorine>  (209) 
0

>  <r_qp_WPSA>  (209) 
0

>  <r_qp_accptHB>  (209) 
7

>  <r_qp_dip^2/V>  (209) 
0.0059917

>  <r_qp_dipole>  (209) 
3.0070000000000001

>  <r_qp_donorHB>  (209) 
2

>  <r_qp_glob>  (209) 
0.79127769999999997

>  <r_qp_mol_MW>  (209) 
454.61700000000002

>  <r_qp_volume>  (209) 
1509.3720000000001

>  <r_sd_BIOSOLVEIT.INFINISEE\_FTREES\_SIMILARITY>  (209) 
0.90600000000000003

>  <r_sd_BIOSOLVEIT.LOGP>  (209) 
2.1840999999999999

>  <r_sd_BIOSOLVEIT.MOLECULAR\_WEIGHT>  (209) 
456.63400000000001

>  <r_sd_BIOSOLVEIT.TPSA>  (209) 
58.719999999999999

>  <i_epik_Tot_Q>  (209) 
3

>  <i_epik_Tot_abs_Q>  (209) 
3

>  <i_f3d_flags>  (209) 
0

>  <i_i_glide_confnum>  (209) 
7

>  <i_i_glide_lignum>  (209) 
413

>  <i_i_glide_posenum>  (209) 
18

>  <i_i_glide_rotatable_bonds>  (209) 
10

>  <i_lp_mmshare_version>  (209) 
65135

>  <i_m_ct_format>  (209) 
2

>  <i_m_source_file_index>  (209) 
1558

>  <i_qp_#NandO>  (209) 
6

>  <i_qp_#acid>  (209) 
0

>  <i_qp_#amide>  (209) 
0

>  <i_qp_#amidine>  (209) 
0

>  <i_qp_#amine>  (209) 
2

>  <i_qp_#in34>  (209) 
0

>  <i_qp_#in56>  (209) 
22

>  <i_qp_#metab>  (209) 
7

>  <i_qp_#nonHatm>  (209) 
34

>  <i_qp_#noncon>  (209) 
0

>  <i_qp_#ringatoms>  (209) 
22

>  <i_qp_#rotor>  (209) 
10

>  <i_qp_#rtvFG>  (209) 
0

>  <i_qp_#stars>  (209) 
0

>  <i_qp_CNS>  (209) 
1

>  <i_qp_HumanOralAbsorption>  (209) 
3

>  <i_qp_RuleOfFive>  (209) 
0

>  <i_qp_RuleOfThree>  (209) 
1

>  <i_sd_BIOSOLVEIT.INFINISEE\_REAGENT1\_NAME>  (209) 
21930822

>  <i_sd_BIOSOLVEIT.INFINISEE\_REAGENT2\_NAME>  (209) 
22360182

>  <i_sd_BIOSOLVEIT.INFINISEE\_REAGENT3\_NAME>  (209) 
21940090

>  <i_sd_BIOSOLVEIT.INFINISEE\_RESULT\_RANK>  (209) 
62886

>  <i_sd_version>  (209) 
0

>  <b_lp_Chiralities_Consistent>  (209) 
1

>  <b_sd_chiral_flag>  (209) 
0

>  <canonical_id>  (209) 
ATP-HTVS-217395D9F0A5

>  <compound_code>  (209) 
49825

>  <title>  (209) 
m_282030aaa____21930822____22360182____21940090

>  <variant>  (209) 
49825-1

>  <source_file>  (209) 
运行/运行/ATP-VSW/ATP-VSW-DOCK_HTVS_1-001_lib/ATP-VSW-DOCK_HTVS_1-001_lib

>  <canonical_smiles>  (209) 
C[NH+](C)Cc1cccc(CNc2nc(NC[C@@H](c3ccccc3)[NH+](C)C)[nH+]c3ccccc23)c1

>  <scaffold>  (209) 
c1ccc(CCNc2nc(NCc3ccccc3)c3ccccc3[nH+]2)cc1

>  <molecular_formula>  (209) 
C28H37N6+3

$$$$
ATP-HTVS-217B57A40B61
     RDKit          3D

 55 58  0  0  0  0  0  0  0  0999 V2000
  201.0975  182.7703  154.4314 O   0  0  0  0  0  0  0  0  0  0  0  0
  199.9045  182.5987  154.6671 C   0  0  0  0  0  0  0  0  0  0  0  0
  199.0929  183.3505  155.4513 N   0  0  0  0  0  0  0  0  0  0  0  0
  197.7034  182.8426  155.5023 C   0  0  1  0  0  0  0  0  0  0  0  0
  197.7469  181.7002  154.5182 C   0  0  0  0  0  0  0  0  0  0  0  0
  199.0381  181.5657  154.0524 C   0  0  0  0  0  0  0  0  0  0  0  0
  199.3966  180.5754  153.1213 C   0  0  0  0  0  0  0  0  0  0  0  0
  198.3763  179.6895  152.6950 C   0  0  0  0  0  0  0  0  0  0  0  0
  197.0537  179.8111  153.1921 C   0  0  0  0  0  0  0  0  0  0  0  0
  196.7215  180.8363  154.1031 C   0  0  0  0  0  0  0  0  0  0  0  0
  197.3443  182.3611  156.9228 C   0  0  1  0  0  0  0  0  0  0  0  0
  195.9499  181.8655  157.0249 N   0  0  1  0  0  0  0  0  0  0  0  0
  195.3831  181.7701  158.3904 C   0  0  1  0  0  0  0  0  0  0  0  0
  195.4483  183.1096  159.1309 C   0  0  0  0  0  0  0  0  0  0  0  0
  196.6881  183.5936  159.6157 C   0  0  0  0  0  0  0  0  0  0  0  0
  196.7912  184.8843  160.1392 C   0  0  0  0  0  0  0  0  0  0  0  0
  195.6318  185.6482  160.3807 C   0  0  0  0  0  0  0  0  0  0  0  0
  194.3807  185.1386  160.0046 C   0  0  0  0  0  0  0  0  0  0  0  0
  194.2966  183.8996  159.3465 C   0  0  0  0  0  0  0  0  0  0  0  0
  195.7372  187.0070  161.0463 C   0  0  2  0  0  0  0  0  0  0  0  0
  193.9475  181.2152  158.3234 C   0  0  2  0  0  0  0  0  0  0  0  0
  199.4551  184.6489  156.0409 C   0  0  1  0  0  0  0  0  0  0  0  0
  199.3983  185.8389  155.0836 C   0  0  0  0  0  0  0  0  0  0  0  0
  199.1853  187.1407  155.5975 C   0  0  0  0  0  0  0  0  0  0  0  0
  199.1483  188.2524  154.7268 C   0  0  0  0  0  0  0  0  0  0  0  0
  199.3219  188.0783  153.3387 C   0  0  0  0  0  0  0  0  0  0  0  0
  199.5468  186.7877  152.8263 C   0  0  0  0  0  0  0  0  0  0  0  0
  199.5869  185.6823  153.6884 C   0  0  0  0  0  0  0  0  0  0  0  0
  195.3191  182.4442  156.4718 H   0  0  0  0  0  0  0  0  0  0  0  0
  197.0102  183.6068  155.1541 H   0  0  0  0  0  0  0  0  0  0  0  0
  200.4104  180.5093  152.7490 H   0  0  0  0  0  0  0  0  0  0  0  0
  198.6113  178.9103  151.9912 H   0  0  0  0  0  0  0  0  0  0  0  0
  196.2846  179.1110  152.8830 H   0  0  0  0  0  0  0  0  0  0  0  0
  195.7213  180.9323  154.5000 H   0  0  0  0  0  0  0  0  0  0  0  0
  198.0336  181.5587  157.2201 H   0  0  0  0  0  0  0  0  0  0  0  0
  197.5132  183.2011  157.5485 H   0  0  0  0  0  0  0  0  0  0  0  0
  196.0021  181.0616  158.9458 H   0  0  0  0  0  0  0  0  0  0  0  0
  197.5919  182.9872  159.4706 H   0  0  0  0  0  0  0  0  0  0  0  0
  197.7470  185.2815  160.4401 H   0  0  0  0  0  0  0  0  0  0  0  0
  193.4770  185.7119  160.1652 H   0  0  0  0  0  0  0  0  0  0  0  0
  193.3137  183.5927  159.0233 H   0  0  0  0  0  0  0  0  0  0  0  0
  194.8377  187.6040  160.8760 H   0  0  0  0  0  0  0  0  0  0  0  0
  196.5992  187.5585  160.6638 H   0  0  0  0  0  0  0  0  0  0  0  0
  195.8612  186.8728  162.1203 H   0  0  0  0  0  0  0  0  0  0  0  0
  193.5220  181.0981  159.3139 H   0  0  0  0  0  0  0  0  0  0  0  0
  193.8983  180.2412  157.8441 H   0  0  0  0  0  0  0  0  0  0  0  0
  193.2847  181.8469  157.7346 H   0  0  0  0  0  0  0  0  0  0  0  0
  198.8266  184.8765  156.9048 H   0  0  0  0  0  0  0  0  0  0  0  0
  200.4653  184.5813  156.4444 H   0  0  0  0  0  0  0  0  0  0  0  0
  199.0467  187.3015  156.6601 H   0  0  0  0  0  0  0  0  0  0  0  0
  198.9673  189.2441  155.1178 H   0  0  0  0  0  0  0  0  0  0  0  0
  199.2752  188.9190  152.6599 H   0  0  0  0  0  0  0  0  0  0  0  0
  199.6912  186.6276  151.7685 H   0  0  0  0  0  0  0  0  0  0  0  0
  199.7802  184.7233  153.2353 H   0  0  0  0  0  0  0  0  0  0  0  0
  195.8804  180.9228  156.6484 H   0  0  0  0  0  0  0  0  0  0  0  0
  1  2  2  0
  2  3  1  0
  2  6  1  0
  3  4  1  0
  3 22  1  0
  4  5  1  0
  4 11  1  0
  4 30  1  6
  5  6  1  0
  5 10  2  0
  6  7  2  0
  7  8  1  0
  7 31  1  0
  8  9  2  0
  8 32  1  0
  9 10  1  0
  9 33  1  0
 10 34  1  0
 11 12  1  0
 11 35  1  1
 11 36  1  0
 12 13  1  0
 12 29  1  6
 12 55  1  0
 13 14  1  0
 13 21  1  0
 13 37  1  1
 14 15  1  0
 14 19  2  0
 15 16  2  0
 15 38  1  0
 16 17  1  0
 16 39  1  0
 17 18  2  0
 17 20  1  0
 18 19  1  0
 18 40  1  0
 19 41  1  0
 20 42  1  1
 20 43  1  0
 20 44  1  0
 21 45  1  1
 21 46  1  0
 21 47  1  0
 22 23  1  0
 22 48  1  1
 22 49  1  0
 23 24  2  0
 23 28  1  0
 24 25  1  0
 24 50  1  0
 25 26  2  0
 25 51  1  0
 26 27  1  0
 26 52  1  0
 27 28  2  0
 27 53  1  0
 28 54  1  0
M  CHG  1  12   1
M  END
>  <s_epik_cmdline>  (210) 
J2VwaWtfcHl0aG9uJywgJy1waCcsICc3LjAwMDAwMCcsICctcGh0JywgJzIuMDAwMDAwJywgJy1tcycsICcxNicsICctdG4nLCAnOCcsICctbWEnLCAnMjAwJywgJy1pbWFlJywgJzxpbmZpbGUubWFlPicsICctb21hZScsICc8b3V0ZmlsZS5tYWU+Jw==

>  <s_epik_input>  (210) 
W2NIXTFbY0hdW2NIXVtjSF1bY0hdYzFbQ0gyXU4oQyg9TyljKGMyMylbY0hdW2NIXVtjSF1bY0hdMylbQ0BASF0yW0NIMl1bTkhdW0NASF0oW0NIM10pYzRbY0hdW2NIXWMoW0NIM10pW2NIXVtjSF00

>  <s_i_glide_gridfile>  (210) 
ATP-Grid

>  <s_lp_Force_Field>  (210) 
OPLS_2005

>  <s_lp_Variant>  (210) 
m_44daa____12219686____18683674-2

>  <s_lp_label>  (210) 
712_sdstereoexpander_2_neutralizer_1_epik_1_stereoizer_1

>  <s_m_source_file>  (210) 
ATP-VSW-LIGPREP-001-in.maegz

>  <s_sd_BIOSOLVEIT.INFINISEE\_QUERY\_NAME>  (210) 
Ref-Lig

>  <s_sd_BIOSOLVEIT.INFINISEE\_QUERY\_SMILES>  (210) 
S(c1nc2c(cc1C[NH2+]Cc3ccc(cc3)C[NH+](C)C)cccc2)Cc4ccccc4

>  <s_sd_BIOSOLVEIT.INFINISEE\_REACTION\_NAME>  (210) 
m_44daa

>  <s_sd_BIOSOLVEIT.INFINISEE\_REAGENT1\_SMILES>  (210) 
[R1*]NCC1N(C(=O)c2c1cccc2)Cc3ccccc3

>  <s_sd_BIOSOLVEIT.INFINISEE\_REAGENT2\_SMILES>  (210) 
[R1*]C(c1ccc(cc1)C)C

>  <s_sd_BIOSOLVEIT.INFINISEE\_SPACE>  (210) 
REALSpace_44bn_2023-08

>  <s_vsw_compound_code>  (210) 
22753

>  <s_vsw_variant>  (210) 
22753-2

>  <r_epik_Charging_Adjusted_Penalty>  (210) 
0.11265318308019399

>  <r_epik_Ionization_Penalty>  (210) 
0.056300000000000003

>  <r_epik_Ionization_Penalty_Charging>  (210) 
0.056300000000000003

>  <r_epik_Ionization_Penalty_Neutral>  (210) 
0

>  <r_epik_State_Penalty>  (210) 
0.056300000000000003

>  <r_i_docking_score>  (210) 
-4.6792298387258402

>  <r_i_glide_ecoul>  (210) 
-8.7387838363647496

>  <r_i_glide_eff_state_penalty>  (210) 
0.056300000000000003

>  <r_i_glide_einternal>  (210) 
3.5030374526977499

>  <r_i_glide_emodel>  (210) 
-52.131806879286103

>  <r_i_glide_energy>  (210) 
-36.967343330383301

>  <r_i_glide_erotb>  (210) 
0.83924340879109005

>  <r_i_glide_esite>  (210) 
-0.10017252979392

>  <r_i_glide_evdw>  (210) 
-28.228559494018601

>  <r_i_glide_gscore>  (210) 
-4.7355298387258404

>  <r_i_glide_hbond>  (210) 
-0.27257174160172398

>  <r_i_glide_ligand_efficiency>  (210) 
-0.16711535138306599

>  <r_i_glide_ligand_efficiency_ln>  (210) 
-1.0801036349358799

>  <r_i_glide_ligand_efficiency_sa>  (210) 
-0.50746063247728901

>  <r_i_glide_lipo>  (210) 
-1.3786107896020099

>  <r_i_glide_metal>  (210) 
-0

>  <r_i_glide_rewards>  (210) 
-1.1011726363636301

>  <r_lp_Energy>  (210) 
45.090335000000003

>  <r_qp_ACxDN^.5/SA>  (210) 
0.0066648999999999996

>  <r_qp_CIQPlogS>  (210) 
-5.0919999999999996

>  <r_qp_EA(eV)>  (210) 
0.29499999999999998

>  <r_qp_FISA>  (210) 
41.32

>  <r_qp_FOSA>  (210) 
207.06700000000001

>  <r_qp_IP(eV)>  (210) 
9.1340000000000003

>  <r_qp_Jm>  (210) 
0.038075267838265502

>  <r_qp_PISA>  (210) 
426.79500000000002

>  <r_qp_PSA>  (210) 
38.707000000000001

>  <r_qp_PercentHumanOralAbsorption>  (210) 
100

>  <r_qp_QPPCaco>  (210) 
1002.208

>  <r_qp_QPPMDCK>  (210) 
548.61199999999997

>  <r_qp_QPlogBB>  (210) 
0.20200000000000001

>  <r_qp_QPlogHERG>  (210) 
-7.0170000000000003

>  <r_qp_QPlogKhsa>  (210) 
0.89600000000000002

>  <r_qp_QPlogKp>  (210) 
-2.2639999999999998

>  <r_qp_QPlogPC16>  (210) 
13.363

>  <r_qp_QPlogPo/w>  (210) 
4.9489999999999998

>  <r_qp_QPlogPoct>  (210) 
18.73

>  <r_qp_QPlogPw>  (210) 
9.1020000000000003

>  <r_qp_QPlogS>  (210) 
-4.7240000000000002

>  <r_qp_QPpolrz>  (210) 
44.142000000000003

>  <r_qp_SASA>  (210) 
675.18299999999999

>  <r_qp_SAamideO>  (210) 
0

>  <r_qp_SAfluorine>  (210) 
0

>  <r_qp_WPSA>  (210) 
0

>  <r_qp_accptHB>  (210) 
4.5

>  <r_qp_dip^2/V>  (210) 
0.026279299999999998

>  <r_qp_dipole>  (210) 
5.734

>  <r_qp_donorHB>  (210) 
1

>  <r_qp_glob>  (210) 
0.83168489999999995

>  <r_qp_mol_MW>  (210) 
370.49299999999999

>  <r_qp_volume>  (210) 
1251.1880000000001

>  <r_sd_BIOSOLVEIT.INFINISEE\_FTREES\_SIMILARITY>  (210) 
0.92900000000000005

>  <r_sd_BIOSOLVEIT.LOGP>  (210) 
4.0167200000000003

>  <r_sd_BIOSOLVEIT.MOLECULAR\_WEIGHT>  (210) 
371.50099999999998

>  <r_sd_BIOSOLVEIT.TPSA>  (210) 
36.920000000000002

>  <i_epik_Tot_Q>  (210) 
1

>  <i_epik_Tot_abs_Q>  (210) 
1

>  <i_f3d_flags>  (210) 
0

>  <i_i_glide_confnum>  (210) 
3

>  <i_i_glide_lignum>  (210) 
96

>  <i_i_glide_posenum>  (210) 
14

>  <i_i_glide_rotatable_bonds>  (210) 
6

>  <i_lp_mmshare_version>  (210) 
65135

>  <i_m_ct_format>  (210) 
2

>  <i_m_source_file_index>  (210) 
712

>  <i_qp_#NandO>  (210) 
3

>  <i_qp_#acid>  (210) 
0

>  <i_qp_#amide>  (210) 
0

>  <i_qp_#amidine>  (210) 
0

>  <i_qp_#amine>  (210) 
1

>  <i_qp_#in34>  (210) 
0

>  <i_qp_#in56>  (210) 
21

>  <i_qp_#metab>  (210) 
5

>  <i_qp_#nonHatm>  (210) 
28

>  <i_qp_#noncon>  (210) 
1

>  <i_qp_#ringatoms>  (210) 
21

>  <i_qp_#rotor>  (210) 
6

>  <i_qp_#rtvFG>  (210) 
0

>  <i_qp_#stars>  (210) 
0

>  <i_qp_CNS>  (210) 
1

>  <i_qp_HumanOralAbsorption>  (210) 
3

>  <i_qp_RuleOfFive>  (210) 
0

>  <i_qp_RuleOfThree>  (210) 
0

>  <i_sd_BIOSOLVEIT.INFINISEE\_REAGENT1\_NAME>  (210) 
12219686

>  <i_sd_BIOSOLVEIT.INFINISEE\_REAGENT2\_NAME>  (210) 
18683674

>  <i_sd_BIOSOLVEIT.INFINISEE\_RESULT\_RANK>  (210) 
5212

>  <i_sd_version>  (210) 
0

>  <b_lp_Chiralities_Consistent>  (210) 
1

>  <b_sd_chiral_flag>  (210) 
0

>  <canonical_id>  (210) 
ATP-HTVS-217B57A40B61

>  <compound_code>  (210) 
22753

>  <title>  (210) 
m_44daa____12219686____18683674

>  <variant>  (210) 
22753-2

>  <source_file>  (210) 
运行/运行/ATP-VSW/ATP-VSW-DOCK_HTVS_1-001_lib/ATP-VSW-DOCK_HTVS_1-001_lib

>  <canonical_smiles>  (210) 
Cc1ccc([C@@H](C)[NH2+]C[C@@H]2c3ccccc3C(=O)N2Cc2ccccc2)cc1

>  <scaffold>  (210) 
O=C1c2ccccc2C(C[NH2+]Cc2ccccc2)N1Cc1ccccc1

>  <molecular_formula>  (210) 
C25H27N2O+

$$$$
ATP-HTVS-218E3E4A28A7
     RDKit          3D

 63 66  0  0  0  0  0  0  0  0999 V2000
  201.1502  182.3827  146.6858 F   0  0  0  0  0  0  0  0  0  0  0  0
  200.0521  182.7747  147.3762 C   0  0  0  0  0  0  0  0  0  0  0  0
  199.3545  183.9301  146.9899 C   0  0  0  0  0  0  0  0  0  0  0  0
  198.1928  184.2982  147.6886 C   0  0  0  0  0  0  0  0  0  0  0  0
  197.5168  185.4342  147.3243 O   0  0  0  0  0  0  0  0  0  0  0  0
  197.7137  183.5057  148.7515 C   0  0  0  0  0  0  0  0  0  0  0  0
  198.4091  182.3342  149.1364 C   0  0  0  0  0  0  0  0  0  0  0  0
  197.9071  181.4720  150.2227 C   0  0  0  0  0  0  0  0  0  0  0  0
  197.5274  180.1110  150.0230 C   0  0  0  0  0  0  0  0  0  0  0  0
  197.0445  179.3798  151.1312 C   0  0  0  0  0  0  0  0  0  0  0  0
  196.9644  179.9416  152.4147 C   0  0  0  0  0  0  0  0  0  0  0  0
  197.3684  181.2681  152.6212 C   0  0  0  0  0  0  0  0  0  0  0  0
  197.2503  181.7930  153.9371 N   0  0  0  0  0  0  0  0  0  0  0  0
  197.9960  182.7475  154.5178 C   0  0  0  0  0  0  0  0  0  0  0  0
  198.9087  183.3612  153.9628 O   0  0  0  0  0  0  0  0  0  0  0  0
  197.6200  183.0651  155.9361 C   0  0  0  0  0  0  0  0  0  0  0  0
  197.8506  184.3597  156.4429 C   0  0  0  0  0  0  0  0  0  0  0  0
  197.5231  184.6730  157.7753 C   0  0  0  0  0  0  0  0  0  0  0  0
  196.9392  183.6951  158.6123 C   0  0  0  0  0  0  0  0  0  0  0  0
  196.7145  182.3984  158.1103 C   0  0  0  0  0  0  0  0  0  0  0  0
  197.0585  182.0797  156.7859 C   0  0  0  0  0  0  0  0  0  0  0  0
  196.5069  184.0457  160.0257 C   0  0  1  0  0  0  0  0  0  0  0  0
  195.1998  184.7618  160.0837 N   0  0  1  0  0  0  0  0  0  0  0  0
  195.3007  186.2070  159.7765 C   0  0  2  0  0  0  0  0  0  0  0  0
  194.1068  184.0984  159.3339 C   0  0  2  0  0  0  0  0  0  0  0  0
  197.8201  182.0315  151.5191 C   0  0  0  0  0  0  0  0  0  0  0  0
  197.6098  179.4137  148.6532 C   0  0  2  0  0  0  0  0  0  0  0  0
  196.2828  178.9801  148.1414 C   0  0  0  0  0  0  0  0  0  0  0  0
  195.2577  178.6373  147.7396 N   0  0  0  0  0  0  0  0  0  0  0  0
  198.6296  178.2734  148.6088 C   0  0  0  0  0  0  0  0  0  0  0  0
  198.3120  177.0133  149.1569 C   0  0  0  0  0  0  0  0  0  0  0  0
  199.2607  175.9702  149.1479 C   0  0  0  0  0  0  0  0  0  0  0  0
  200.5374  176.1861  148.5887 C   0  0  0  0  0  0  0  0  0  0  0  0
  200.8491  177.4355  148.0188 C   0  0  0  0  0  0  0  0  0  0  0  0
  199.8913  178.4630  147.9964 C   0  0  0  0  0  0  0  0  0  0  0  0
  199.6134  182.0155  148.4795 C   0  0  0  0  0  0  0  0  0  0  0  0
  199.7138  184.5306  146.1678 H   0  0  0  0  0  0  0  0  0  0  0  0
  196.6604  185.5135  147.6980 H   0  0  0  0  0  0  0  0  0  0  0  0
  196.8147  183.7879  149.2858 H   0  0  0  0  0  0  0  0  0  0  0  0
  196.7426  178.3555  151.0240 H   0  0  0  0  0  0  0  0  0  0  0  0
  196.6126  179.3454  153.2434 H   0  0  0  0  0  0  0  0  0  0  0  0
  196.5864  181.3338  154.5432 H   0  0  0  0  0  0  0  0  0  0  0  0
  198.2708  185.1267  155.8096 H   0  0  0  0  0  0  0  0  0  0  0  0
  197.7100  185.6702  158.1391 H   0  0  0  0  0  0  0  0  0  0  0  0
  196.2696  181.6299  158.7284 H   0  0  0  0  0  0  0  0  0  0  0  0
  196.8692  181.0695  156.4472 H   0  0  0  0  0  0  0  0  0  0  0  0
  196.4273  183.1250  160.6090 H   0  0  0  0  0  0  0  0  0  0  0  0
  197.2874  184.6297  160.5104 H   0  0  0  0  0  0  0  0  0  0  0  0
  195.5589  186.3783  158.7324 H   0  0  0  0  0  0  0  0  0  0  0  0
  196.0475  186.6891  160.4082 H   0  0  0  0  0  0  0  0  0  0  0  0
  194.3466  186.6993  159.9660 H   0  0  0  0  0  0  0  0  0  0  0  0
  194.2914  184.0679  158.2597 H   0  0  0  0  0  0  0  0  0  0  0  0
  193.1571  184.6175  159.4848 H   0  0  0  0  0  0  0  0  0  0  0  0
  193.9892  183.0720  159.6808 H   0  0  0  0  0  0  0  0  0  0  0  0
  198.1236  183.0613  151.6622 H   0  0  0  0  0  0  0  0  0  0  0  0
  197.9360  180.1127  147.8866 H   0  0  0  0  0  0  0  0  0  0  0  0
  197.3377  176.8207  149.5692 H   0  0  0  0  0  0  0  0  0  0  0  0
  198.9961  175.0060  149.5588 H   0  0  0  0  0  0  0  0  0  0  0  0
  201.2613  175.3820  148.5714 H   0  0  0  0  0  0  0  0  0  0  0  0
  201.8224  177.6064  147.5840 H   0  0  0  0  0  0  0  0  0  0  0  0
  200.1468  179.3946  147.4951 H   0  0  0  0  0  0  0  0  0  0  0  0
  200.1960  181.1618  148.8126 H   0  0  0  0  0  0  0  0  0  0  0  0
  194.9324  184.7224  161.0551 H   0  0  0  0  0  0  0  0  0  0  0  0
  1  2  1  0
  2  3  2  0
  2 36  1  0
  3  4  1  0
  3 37  1  0
  4  5  1  0
  4  6  2  0
  5 38  1  0
  6  7  1  0
  6 39  1  0
  7  8  1  0
  7 36  2  0
  8  9  2  0
  8 26  1  0
  9 10  1  0
  9 27  1  0
 10 11  2  0
 10 40  1  0
 11 12  1  0
 11 41  1  0
 12 13  1  0
 12 26  2  0
 13 14  1  0
 13 42  1  0
 14 15  2  0
 14 16  1  0
 16 17  1  0
 16 21  2  0
 17 18  2  0
 17 43  1  0
 18 19  1  0
 18 44  1  0
 19 20  2  0
 19 22  1  0
 20 21  1  0
 20 45  1  0
 21 46  1  0
 22 23  1  0
 22 47  1  1
 22 48  1  0
 23 24  1  0
 23 25  1  0
 23 63  1  1
 24 49  1  6
 24 50  1  0
 24 51  1  0
 25 52  1  6
 25 53  1  0
 25 54  1  0
 26 55  1  0
 27 28  1  0
 27 30  1  0
 27 56  1  6
 28 29  3  0
 30 31  2  0
 30 35  1  0
 31 32  1  0
 31 57  1  0
 32 33  2  0
 32 58  1  0
 33 34  1  0
 33 59  1  0
 34 35  2  0
 34 60  1  0
 35 61  1  0
 36 62  1  0
M  CHG  1  23   1
M  END
>  <s_epik_cmdline>  (211) 
J2VwaWtfcHl0aG9uJywgJy1waCcsICc3LjAwMDAwMCcsICctcGh0JywgJzIuMDAwMDAwJywgJy1tcycsICcxNicsICctdG4nLCAnOCcsICctbWEnLCAnMjAwJywgJy1pbWFlJywgJzxpbmZpbGUubWFlPicsICctb21hZScsICc8b3V0ZmlsZS5tYWU+Jw==

>  <s_epik_input>  (211) 
RmMxW2NIXWMoW09IXSlbY0hdYyhbY0hdMSktYzJjKFtDQEhdKEMjTiljM1tjSF1bY0hdW2NIXVtjSF1bY0hdMylbY0hdW2NIXWMoW2NIXTIpW05IXUMoPU8pYzRbY0hdW2NIXWMoW2NIXVtjSF00KVtDSDJdTihbQ0gzXSlbQ0gzXQ==

>  <s_i_glide_gridfile>  (211) 
ATP-Grid

>  <s_lp_Force_Field>  (211) 
OPLS_2005

>  <s_lp_Variant>  (211) 
rxn501c____EMOL18624763____EMOL713289____EMOL2796733-1

>  <s_lp_label>  (211) 
2989_sdstereoexpander_1_neutralizer_1_epik_1_stereoizer_1

>  <s_m_source_file>  (211) 
ATP-VSW-LIGPREP-002-in.maegz

>  <s_sd_BIOSOLVEIT.INFINISEE\_QUERY\_NAME>  (211) 
Ref-Lig

>  <s_sd_BIOSOLVEIT.INFINISEE\_QUERY\_SMILES>  (211) 
S(c1nc2c(cc1C[NH2+]Cc3ccc(cc3)C[NH+](C)C)cccc2)Cc4ccccc4

>  <s_sd_BIOSOLVEIT.INFINISEE\_REACTION\_NAME>  (211) 
rxn501c

>  <s_sd_BIOSOLVEIT.INFINISEE\_REAGENT1\_NAME>  (211) 
EMOL18624763

>  <s_sd_BIOSOLVEIT.INFINISEE\_REAGENT1\_SMILES>  (211) 
O=C(O)c1ccc(cc1)CN(C)C

>  <s_sd_BIOSOLVEIT.INFINISEE\_REAGENT2\_NAME>  (211) 
EMOL713289

>  <s_sd_BIOSOLVEIT.INFINISEE\_REAGENT2\_SMILES>  (211) 
Clc1c(ccc(N)c1)C(C#N)c2ccccc2

>  <s_sd_BIOSOLVEIT.INFINISEE\_REAGENT3\_NAME>  (211) 
EMOL2796733

>  <s_sd_BIOSOLVEIT.INFINISEE\_REAGENT3\_SMILES>  (211) 
Fc1cc(O)cc(c1)B(O)O

>  <s_sd_BIOSOLVEIT.INFINISEE\_SPACE>  (211) 
eXplore_7tr_2022-12

>  <s_vsw_compound_code>  (211) 
95618

>  <s_vsw_variant>  (211) 
95618-1

>  <r_epik_Charging_Adjusted_Penalty>  (211) 
0.115459745266557

>  <r_epik_Ionization_Penalty>  (211) 
0.061199999999999997

>  <r_epik_Ionization_Penalty_Charging>  (211) 
0.054300000000000001

>  <r_epik_Ionization_Penalty_Neutral>  (211) 
0.0068999999999999999

>  <r_epik_State_Penalty>  (211) 
0.061199999999999997

>  <r_i_docking_score>  (211) 
-4.3836149192388998

>  <r_i_glide_ecoul>  (211) 
-5.6171207427978498

>  <r_i_glide_eff_state_penalty>  (211) 
0.061199999999999997

>  <r_i_glide_einternal>  (211) 
3.0786719322204599

>  <r_i_glide_emodel>  (211) 
-54.1996887537967

>  <r_i_glide_energy>  (211) 
-41.490320205688498

>  <r_i_glide_erotb>  (211) 
0.61472585769999499

>  <r_i_glide_esite>  (211) 
-0.028504699930526602

>  <r_i_glide_evdw>  (211) 
-35.873199462890597

>  <r_i_glide_gscore>  (211) 
-4.4448149192389002

>  <r_i_glide_hbond>  (211) 
-0.191207715606278

>  <r_i_glide_ligand_efficiency>  (211) 
-0.121767081089969

>  <r_i_glide_ligand_efficiency_ln>  (211) 
-0.95638634378926701

>  <r_i_glide_ligand_efficiency_sa>  (211) 
-0.40206604258906098

>  <r_i_glide_lipo>  (211) 
-1.92782715902257

>  <r_i_glide_metal>  (211) 
-0

>  <r_i_glide_rewards>  (211) 
-0.275773117815311

>  <r_lp_Energy>  (211) 
36.241522000000003

>  <r_lp_tautomer_probability>  (211) 
0.999999999997365

>  <r_qp_ACxDN^.5/SA>  (211) 
0.0113939

>  <r_qp_CIQPlogS>  (211) 
-7.593

>  <r_qp_EA(eV)>  (211) 
0.59799999999999998

>  <r_qp_FISA>  (211) 
159.80699999999999

>  <r_qp_FOSA>  (211) 
184.34800000000001

>  <r_qp_IP(eV)>  (211) 
9.0350000000000001

>  <r_qp_Jm>  (211) 
1.49948031100908e-06

>  <r_qp_PISA>  (211) 
446.68799999999999

>  <r_qp_PSA>  (211) 
89.073999999999998

>  <r_qp_PercentHumanOralAbsorption>  (211) 
89.507000000000005

>  <r_qp_QPPCaco>  (211) 
75.397000000000006

>  <r_qp_QPPMDCK>  (211) 
60.543999999999997

>  <r_qp_QPlogBB>  (211) 
-1.2829999999999999

>  <r_qp_QPlogHERG>  (211) 
-8.1829999999999998

>  <r_qp_QPlogKhsa>  (211) 
0.98799999999999999

>  <r_qp_QPlogKp>  (211) 
-4.0899999999999999

>  <r_qp_QPlogPC16>  (211) 
17.064

>  <r_qp_QPlogPo/w>  (211) 
4.9459999999999997

>  <r_qp_QPlogPoct>  (211) 
25.091000000000001

>  <r_qp_QPlogPw>  (211) 
13.470000000000001

>  <r_qp_QPlogS>  (211) 
-7.415

>  <r_qp_QPpolrz>  (211) 
53.451000000000001

>  <r_qp_SASA>  (211) 
837.81100000000004

>  <r_qp_SAamideO>  (211) 
0

>  <r_qp_SAfluorine>  (211) 
46.968000000000004

>  <r_qp_WPSA>  (211) 
46.968000000000004

>  <r_qp_accptHB>  (211) 
6.75

>  <r_qp_dip^2/V>  (211) 
0.0183556

>  <r_qp_dipole>  (211) 
5.2949999999999999

>  <r_qp_donorHB>  (211) 
2

>  <r_qp_glob>  (211) 
0.76550169999999995

>  <r_qp_mol_MW>  (211) 
479.553

>  <r_qp_volume>  (211) 
1527.183

>  <r_sd_BIOSOLVEIT.INFINISEE\_FTREES\_SIMILARITY>  (211) 
0.90300000000000002

>  <r_sd_BIOSOLVEIT.LOGP>  (211) 
4.7505800000000002

>  <r_sd_BIOSOLVEIT.MOLECULAR\_WEIGHT>  (211) 
480.56

>  <r_sd_BIOSOLVEIT.TPSA>  (211) 
77.560000000000002

>  <i_epik_Tot_Q>  (211) 
1

>  <i_epik_Tot_abs_Q>  (211) 
1

>  <i_f3d_flags>  (211) 
0

>  <i_i_glide_confnum>  (211) 
6

>  <i_i_glide_lignum>  (211) 
47

>  <i_i_glide_posenum>  (211) 
14

>  <i_i_glide_rotatable_bonds>  (211) 
9

>  <i_lp_mmshare_version>  (211) 
65135

>  <i_m_ct_format>  (211) 
2

>  <i_m_source_file_index>  (211) 
2989

>  <i_qp_#NandO>  (211) 
5

>  <i_qp_#acid>  (211) 
0

>  <i_qp_#amide>  (211) 
0

>  <i_qp_#amidine>  (211) 
0

>  <i_qp_#amine>  (211) 
1

>  <i_qp_#in34>  (211) 
0

>  <i_qp_#in56>  (211) 
24

>  <i_qp_#metab>  (211) 
5

>  <i_qp_#nonHatm>  (211) 
36

>  <i_qp_#noncon>  (211) 
0

>  <i_qp_#ringatoms>  (211) 
24

>  <i_qp_#rotor>  (211) 
9

>  <i_qp_#rtvFG>  (211) 
0

>  <i_qp_#stars>  (211) 
1

>  <i_qp_CNS>  (211) 
-2

>  <i_qp_HumanOralAbsorption>  (211) 
1

>  <i_qp_RuleOfFive>  (211) 
0

>  <i_qp_RuleOfThree>  (211) 
1

>  <i_sd_BIOSOLVEIT.INFINISEE\_RESULT\_RANK>  (211) 
84667

>  <i_sd_version>  (211) 
0

>  <b_lp_Chiralities_Consistent>  (211) 
1

>  <b_sd_chiral_flag>  (211) 
0

>  <canonical_id>  (211) 
ATP-HTVS-218E3E4A28A7

>  <compound_code>  (211) 
95618

>  <title>  (211) 
rxn501c____EMOL18624763____EMOL713289____EMOL2796733

>  <variant>  (211) 
95618-1

>  <source_file>  (211) 
运行/运行/ATP-VSW/ATP-VSW-DOCK_HTVS_1-003_lib/ATP-VSW-DOCK_HTVS_1-003_lib.mae

>  <canonical_smiles>  (211) 
C[NH+](C)Cc1ccc(C(=O)Nc2ccc([C@H](C#N)c3ccccc3)c(-c3cc(O)cc(F)c3)c2)cc1

>  <scaffold>  (211) 
O=C(Nc1ccc(Cc2ccccc2)c(-c2ccccc2)c1)c1ccccc1

>  <molecular_formula>  (211) 
C30H27FN3O2+

$$$$
ATP-HTVS-21B7BD60A2C7
     RDKit          3D

 55 58  0  0  0  0  0  0  0  0999 V2000
  202.0528  182.9301  160.6698 F   0  0  0  0  0  0  0  0  0  0  0  0
  202.0190  182.7210  159.3364 C   0  0  0  0  0  0  0  0  0  0  0  0
  200.7960  182.5214  158.6942 C   0  0  0  0  0  0  0  0  0  0  0  0
  200.7240  182.3699  157.2809 C   0  0  0  0  0  0  0  0  0  0  0  0
  201.9346  182.3473  156.5317 C   0  0  0  0  0  0  0  0  0  0  0  0
  201.9338  182.1837  155.1952 N   0  0  0  0  0  0  0  0  0  0  0  0
  200.7628  182.0628  154.5421 C   0  0  0  0  0  0  0  0  0  0  0  0
  199.5048  182.0930  155.1814 C   0  0  0  0  0  0  0  0  0  0  0  0
  199.4814  182.2690  156.5918 C   0  0  0  0  0  0  0  0  0  0  0  0
  198.2515  182.3497  157.2795 N   0  0  0  0  0  0  0  0  0  0  0  0
  197.7728  183.4395  158.0203 C   0  0  0  0  0  0  0  0  0  0  0  0
  196.4009  183.4834  158.3614 C   0  0  0  0  0  0  0  0  0  0  0  0
  195.8862  184.5327  159.1651 C   0  0  0  0  0  0  0  0  0  0  0  0
  194.5236  184.6103  159.4943 N   0  0  0  0  0  0  0  0  0  0  0  0
  193.5996  183.6147  158.9566 C   0  0  2  0  0  0  0  0  0  0  0  0
  196.7565  185.5319  159.6391 C   0  0  0  0  0  0  0  0  0  0  0  0
  198.1250  185.4820  159.3113 C   0  0  0  0  0  0  0  0  0  0  0  0
  198.6243  184.4755  158.4715 C   0  0  0  0  0  0  0  0  0  0  0  0
  198.2612  182.0012  154.3251 C   0  0  0  0  0  0  0  0  0  0  0  0
  197.5252  182.9898  154.2403 O   0  0  0  0  0  0  0  0  0  0  0  0
  198.0054  180.8346  153.6698 N   0  0  0  0  0  0  0  0  0  0  0  0
  198.7930  179.6577  153.8922 C   0  0  0  0  0  0  0  0  0  0  0  0
  198.9058  179.0968  155.1859 C   0  0  0  0  0  0  0  0  0  0  0  0
  199.6765  177.9371  155.3941 C   0  0  0  0  0  0  0  0  0  0  0  0
  200.3200  177.3164  154.3064 C   0  0  0  0  0  0  0  0  0  0  0  0
  200.2027  177.8640  153.0150 C   0  0  0  0  0  0  0  0  0  0  0  0
  199.4622  179.0424  152.8109 C   0  0  0  0  0  0  0  0  0  0  0  0
  196.8837  180.7959  152.6978 C   0  0  1  0  0  0  0  0  0  0  0  0
  197.0588  181.7757  151.6080 C   0  0  0  0  0  0  0  0  0  0  0  0
  197.1929  182.5413  150.7512 N   0  0  0  0  0  0  0  0  0  0  0  0
  196.5442  179.4002  152.1111 C   0  0  2  0  0  0  0  0  0  0  0  0
  203.1654  182.4952  157.2051 C   0  0  0  0  0  0  0  0  0  0  0  0
  203.2215  182.6942  158.5975 C   0  0  0  0  0  0  0  0  0  0  0  0
  199.8929  182.5225  159.2961 H   0  0  0  0  0  0  0  0  0  0  0  0
  200.8253  181.9288  153.4749 H   0  0  0  0  0  0  0  0  0  0  0  0
  197.5474  181.6965  156.9879 H   0  0  0  0  0  0  0  0  0  0  0  0
  195.7582  182.6884  157.9928 H   0  0  0  0  0  0  0  0  0  0  0  0
  194.1780  185.3444  160.0910 H   0  0  0  0  0  0  0  0  0  0  0  0
  192.5964  183.8165  159.3323 H   0  0  0  0  0  0  0  0  0  0  0  0
  193.9188  182.6196  159.2787 H   0  0  0  0  0  0  0  0  0  0  0  0
  193.5726  183.6368  157.8647 H   0  0  0  0  0  0  0  0  0  0  0  0
  196.3828  186.3486  160.2599 H   0  0  0  0  0  0  0  0  0  0  0  0
  198.7948  186.2310  159.6952 H   0  0  0  0  0  0  0  0  0  0  0  0
  199.6838  184.4908  158.1992 H   0  0  0  0  0  0  0  0  0  0  0  0
  198.3985  179.5465  156.0306 H   0  0  0  0  0  0  0  0  0  0  0  0
  199.7580  177.5259  156.3898 H   0  0  0  0  0  0  0  0  0  0  0  0
  200.8929  176.4118  154.4626 H   0  0  0  0  0  0  0  0  0  0  0  0
  200.6695  177.3724  152.1741 H   0  0  0  0  0  0  0  0  0  0  0  0
  199.4052  179.4655  151.8140 H   0  0  0  0  0  0  0  0  0  0  0  0
  195.9892  181.1240  153.2293 H   0  0  0  0  0  0  0  0  0  0  0  0
  195.6116  179.4174  151.5475 H   0  0  0  0  0  0  0  0  0  0  0  0
  196.4265  178.6605  152.9032 H   0  0  0  0  0  0  0  0  0  0  0  0
  197.3145  179.0385  151.4269 H   0  0  0  0  0  0  0  0  0  0  0  0
  204.0877  182.4969  156.6374 H   0  0  0  0  0  0  0  0  0  0  0  0
  204.1633  182.8705  159.1042 H   0  0  0  0  0  0  0  0  0  0  0  0
  1  2  1  0
  2  3  1  0
  2 33  2  0
  3  4  2  0
  3 34  1  0
  4  5  1  0
  4  9  1  0
  5  6  1  0
  5 32  2  0
  6  7  2  0
  7  8  1  0
  7 35  1  0
  8  9  2  0
  8 19  1  0
  9 10  1  0
 10 11  1  0
 10 36  1  0
 11 12  2  0
 11 18  1  0
 12 13  1  0
 12 37  1  0
 13 14  1  0
 13 16  2  0
 14 15  1  0
 14 38  1  0
 15 39  1  1
 15 40  1  0
 15 41  1  0
 16 17  1  0
 16 42  1  0
 17 18  2  0
 17 43  1  0
 18 44  1  0
 19 20  2  0
 19 21  1  0
 21 22  1  0
 21 28  1  0
 22 23  2  0
 22 27  1  0
 23 24  1  0
 23 45  1  0
 24 25  2  0
 24 46  1  0
 25 26  1  0
 25 47  1  0
 26 27  2  0
 26 48  1  0
 27 49  1  0
 28 29  1  0
 28 31  1  0
 28 50  1  1
 29 30  3  0
 31 51  1  6
 31 52  1  0
 31 53  1  0
 32 33  1  0
 32 54  1  0
 33 55  1  0
M  END
>  <s_epik_cmdline>  (212) 
J2VwaWtfcHl0aG9uJywgJy1waCcsICc3LjAwMDAwMCcsICctcGh0JywgJzIuMDAwMDAwJywgJy1tcycsICcxNicsICctdG4nLCAnOCcsICctbWEnLCAnMjAwJywgJy1pbWFlJywgJzxpbmZpbGUubWFlPicsICctb21hZScsICc8b3V0ZmlsZS5tYWU+Jw==

>  <s_epik_input>  (212) 
W2NIXTFbY0hdW2NIXVtjSF1bY0hdYzFOKFtDQEBIXShDI04pW0NIM10pQyg9TyljKFtjSF1uYyhjMjMpW2NIXVtjSF1jKEYpW2NIXTIpYzNbTkhdYzRbY0hdYyhbTkhdW0NIM10pW2NIXVtjSF1bY0hdNA==

>  <s_i_glide_gridfile>  (212) 
ATP-Grid

>  <s_lp_Force_Field>  (212) 
OPLS_2005

>  <s_lp_Variant>  (212) 
rxn512c____EMOL300138311____EMOL36725275____EMOL36790511-1

>  <s_lp_label>  (212) 
2543_sdstereoexpander_1_neutralizer_1_epik_1_stereoizer_1

>  <s_m_source_file>  (212) 
ATP-VSW-LIGPREP-003-in.maegz

>  <s_sd_BIOSOLVEIT.INFINISEE\_QUERY\_NAME>  (212) 
Ref-Lig

>  <s_sd_BIOSOLVEIT.INFINISEE\_QUERY\_SMILES>  (212) 
S(c1nc2c(cc1C[NH2+]Cc3ccc(cc3)C[NH+](C)C)cccc2)Cc4ccccc4

>  <s_sd_BIOSOLVEIT.INFINISEE\_REACTION\_NAME>  (212) 
rxn512c

>  <s_sd_BIOSOLVEIT.INFINISEE\_REAGENT1\_NAME>  (212) 
EMOL300138311

>  <s_sd_BIOSOLVEIT.INFINISEE\_REAGENT1\_SMILES>  (212) 
N(c1cc(N)ccc1)C

>  <s_sd_BIOSOLVEIT.INFINISEE\_REAGENT2\_NAME>  (212) 
EMOL36725275

>  <s_sd_BIOSOLVEIT.INFINISEE\_REAGENT2\_SMILES>  (212) 
Clc1c2c(ncc1C(=O)O)ccc(F)c2

>  <s_sd_BIOSOLVEIT.INFINISEE\_REAGENT3\_NAME>  (212) 
EMOL36790511

>  <s_sd_BIOSOLVEIT.INFINISEE\_REAGENT3\_SMILES>  (212) 
N#CC(Nc1ccccc1)C

>  <s_sd_BIOSOLVEIT.INFINISEE\_SPACE>  (212) 
eXplore_7tr_2022-12

>  <s_vsw_compound_code>  (212) 
81347

>  <s_vsw_variant>  (212) 
81347-1

>  <r_epik_Charging_Adjusted_Penalty>  (212) 
0

>  <r_epik_Ionization_Penalty>  (212) 
0.0060000000000000001

>  <r_epik_Ionization_Penalty_Charging>  (212) 
0

>  <r_epik_Ionization_Penalty_Neutral>  (212) 
0.0060000000000000001

>  <r_epik_State_Penalty>  (212) 
-0

>  <r_i_docking_score>  (212) 
-3.1443447721040898

>  <r_i_glide_ecoul>  (212) 
-2.32180953025818

>  <r_i_glide_eff_state_penalty>  (212) 
-0

>  <r_i_glide_einternal>  (212) 
5.98215627670288

>  <r_i_glide_emodel>  (212) 
-37.795257477907199

>  <r_i_glide_energy>  (212) 
-34.0466020107269

>  <r_i_glide_erotb>  (212) 
0.51667104412711495

>  <r_i_glide_esite>  (212) 
-0.030179454963943302

>  <r_i_glide_evdw>  (212) 
-31.7247924804688

>  <r_i_glide_gscore>  (212) 
-3.1443447721040898

>  <r_i_glide_hbond>  (212) 
0

>  <r_i_glide_ligand_efficiency>  (212) 
-0.095283174912245305

>  <r_i_glide_ligand_efficiency_ln>  (212) 
-0.699285996770037

>  <r_i_glide_ligand_efficiency_sa>  (212) 
-0.30562405424581801

>  <r_i_glide_lipo>  (212) 
-1.020062127421

>  <r_i_glide_metal>  (212) 
-0

>  <r_i_glide_rewards>  (212) 
-0.67626318028410604

>  <r_lp_Energy>  (212) 
49.750203999999997

>  <r_lp_tautomer_probability>  (212) 
1

>  <r_qp_ACxDN^.5/SA>  (212) 
0.0088263000000000005

>  <r_qp_CIQPlogS>  (212) 
-8.0709999999999997

>  <r_qp_EA(eV)>  (212) 
1.367

>  <r_qp_FISA>  (212) 
95.734999999999999

>  <r_qp_FOSA>  (212) 
168.46199999999999

>  <r_qp_IP(eV)>  (212) 
7.9020000000000001

>  <r_qp_Jm>  (212) 
0.0067113083822531901

>  <r_qp_PISA>  (212) 
368.68599999999998

>  <r_qp_PSA>  (212) 
78.876000000000005

>  <r_qp_PercentHumanOralAbsorption>  (212) 
100

>  <r_qp_QPPCaco>  (212) 
1224.7460000000001

>  <r_qp_QPPMDCK>  (212) 
1112.8979999999999

>  <r_qp_QPlogBB>  (212) 
-0.623

>  <r_qp_QPlogHERG>  (212) 
-5.6900000000000004

>  <r_qp_QPlogKhsa>  (212) 
0.71699999999999997

>  <r_qp_QPlogKp>  (212) 
-1.3129999999999999

>  <r_qp_QPlogPC16>  (212) 
13.551

>  <r_qp_QPlogPo/w>  (212) 
4.9589999999999996

>  <r_qp_QPlogPoct>  (212) 
20.431999999999999

>  <r_qp_QPlogPw>  (212) 
10.361000000000001

>  <r_qp_QPlogS>  (212) 
-6.5030000000000001

>  <r_qp_QPpolrz>  (212) 
45.295000000000002

>  <r_qp_SASA>  (212) 
679.78700000000003

>  <r_qp_SAamideO>  (212) 
0

>  <r_qp_SAfluorine>  (212) 
46.904000000000003

>  <r_qp_WPSA>  (212) 
46.904000000000003

>  <r_qp_accptHB>  (212) 
6

>  <r_qp_dip^2/V>  (212) 
0.0269275

>  <r_qp_dipole>  (212) 
5.9390000000000001

>  <r_qp_donorHB>  (212) 
1

>  <r_qp_glob>  (212) 
0.85170239999999997

>  <r_qp_mol_MW>  (212) 
439.49099999999999

>  <r_qp_volume>  (212) 
1309.915

>  <r_sd_BIOSOLVEIT.INFINISEE\_FTREES\_SIMILARITY>  (212) 
0.91300000000000003

>  <r_sd_BIOSOLVEIT.LOGP>  (212) 
5.7180799999999996

>  <r_sd_BIOSOLVEIT.MOLECULAR\_WEIGHT>  (212) 
439.49200000000002

>  <r_sd_BIOSOLVEIT.TPSA>  (212) 
81.049999999999997

>  <i_epik_Tot_Q>  (212) 
0

>  <i_epik_Tot_abs_Q>  (212) 
0

>  <i_f3d_flags>  (212) 
0

>  <i_i_glide_confnum>  (212) 
1

>  <i_i_glide_lignum>  (212) 
1120

>  <i_i_glide_posenum>  (212) 
8

>  <i_i_glide_rotatable_bonds>  (212) 
7

>  <i_lp_mmshare_version>  (212) 
65135

>  <i_m_ct_format>  (212) 
2

>  <i_m_source_file_index>  (212) 
2543

>  <i_qp_#NandO>  (212) 
6

>  <i_qp_#acid>  (212) 
0

>  <i_qp_#amide>  (212) 
0

>  <i_qp_#amidine>  (212) 
0

>  <i_qp_#amine>  (212) 
0

>  <i_qp_#in34>  (212) 
0

>  <i_qp_#in56>  (212) 
22

>  <i_qp_#metab>  (212) 
8

>  <i_qp_#nonHatm>  (212) 
33

>  <i_qp_#noncon>  (212) 
0

>  <i_qp_#ringatoms>  (212) 
22

>  <i_qp_#rotor>  (212) 
7

>  <i_qp_#rtvFG>  (212) 
0

>  <i_qp_#stars>  (212) 
1

>  <i_qp_CNS>  (212) 
0

>  <i_qp_HumanOralAbsorption>  (212) 
1

>  <i_qp_RuleOfFive>  (212) 
0

>  <i_qp_RuleOfThree>  (212) 
2

>  <i_sd_BIOSOLVEIT.INFINISEE\_RESULT\_RANK>  (212) 
34908

>  <i_sd_version>  (212) 
0

>  <b_lp_Chiralities_Consistent>  (212) 
1

>  <b_sd_chiral_flag>  (212) 
0

>  <canonical_id>  (212) 
ATP-HTVS-21B7BD60A2C7

>  <compound_code>  (212) 
81347

>  <title>  (212) 
rxn512c____EMOL300138311____EMOL36725275____EMOL36790511

>  <variant>  (212) 
81347-1

>  <source_file>  (212) 
运行/运行/ATP-VSW/ATP-VSW-DOCK_HTVS_1-003_lib/ATP-VSW-DOCK_HTVS_1-003_lib.mae

>  <canonical_smiles>  (212) 
CNc1cccc(Nc2c(C(=O)N(c3ccccc3)[C@H](C)C#N)cnc3ccc(F)cc23)c1

>  <scaffold>  (212) 
O=C(Nc1ccccc1)c1cnc2ccccc2c1Nc1ccccc1

>  <molecular_formula>  (212) 
C26H22FN5O

$$$$
ATP-HTVS-21B7E8D8DA00
     RDKit          3D

 54 56  0  0  0  0  0  0  0  0999 V2000
  196.7640  181.0804  150.4200 Cl  0  0  0  0  0  0  0  0  0  0  0  0
  196.8866  181.0417  152.1301 C   0  0  0  0  0  0  0  0  0  0  0  0
  196.7751  182.5284  153.0136 S   0  0  0  0  0  0  0  0  0  0  0  0
  196.8995  181.6642  154.5363 C   0  0  0  0  0  0  0  0  0  0  0  0
  196.9852  182.5107  155.7443 C   0  0  0  0  0  0  0  0  0  0  0  0
  197.1970  183.7170  155.6730 O   0  0  0  0  0  0  0  0  0  0  0  0
  196.8573  181.8715  156.9165 N   0  0  0  0  0  0  0  0  0  0  0  0
  197.2740  182.4275  158.1933 C   0  0  1  0  0  0  0  0  0  0  0  0
  198.6369  183.0072  158.1360 C   0  0  0  0  0  0  0  0  0  0  0  0
  199.7025  183.4636  158.0932 N   0  0  0  0  0  0  0  0  0  0  0  0
  196.2505  183.3387  158.8389 C   0  0  0  0  0  0  0  0  0  0  0  0
  194.8757  183.0484  158.7206 C   0  0  0  0  0  0  0  0  0  0  0  0
  193.9267  183.9050  159.3028 C   0  0  0  0  0  0  0  0  0  0  0  0
  194.3476  185.0365  160.0201 C   0  0  0  0  0  0  0  0  0  0  0  0
  195.7135  185.3237  160.1549 C   0  0  0  0  0  0  0  0  0  0  0  0
  196.6655  184.4677  159.5823 C   0  0  0  0  0  0  0  0  0  0  0  0
  197.0686  180.3150  154.3328 C   0  0  0  0  0  0  0  0  0  0  0  0
  197.2645  179.3254  155.3160 N   0  0  0  0  0  0  0  0  0  0  0  0
  198.4622  178.4899  155.3582 C   0  0  1  0  0  0  0  0  0  0  0  0
  199.6481  179.0979  156.0996 C   0  0  0  0  0  0  0  0  0  0  0  0
  200.3383  178.3408  157.0702 C   0  0  0  0  0  0  0  0  0  0  0  0
  201.4417  178.8889  157.7524 C   0  0  0  0  0  0  0  0  0  0  0  0
  201.8646  180.2044  157.4774 C   0  0  0  0  0  0  0  0  0  0  0  0
  201.1664  180.9645  156.5164 C   0  0  0  0  0  0  0  0  0  0  0  0
  200.0862  180.4100  155.8158 C   0  0  0  0  0  0  0  0  0  0  0  0
  203.0616  180.8151  158.1954 C   0  0  1  0  0  0  0  0  0  0  0  0
  204.3267  180.6378  157.4346 N   0  0  1  0  0  0  0  0  0  0  0  0
  204.3396  181.2999  156.1074 C   0  0  2  0  0  0  0  0  0  0  0  0
  205.5194  181.0113  158.2276 C   0  0  2  0  0  0  0  0  0  0  0  0
  197.0550  179.9610  152.9468 C   0  0  0  0  0  0  0  0  0  0  0  0
  196.5735  180.9025  156.9265 H   0  0  0  0  0  0  0  0  0  0  0  0
  197.3181  181.5683  158.8556 H   0  0  0  0  0  0  0  0  0  0  0  0
  194.5353  182.1818  158.1633 H   0  0  0  0  0  0  0  0  0  0  0  0
  192.8729  183.7094  159.1659 H   0  0  0  0  0  0  0  0  0  0  0  0
  193.6110  185.7127  160.4358 H   0  0  0  0  0  0  0  0  0  0  0  0
  196.0432  186.2070  160.6808 H   0  0  0  0  0  0  0  0  0  0  0  0
  197.7132  184.7080  159.7053 H   0  0  0  0  0  0  0  0  0  0  0  0
  196.7519  179.3510  156.2062 H   0  0  0  0  0  0  0  0  0  0  0  0
  198.1908  177.5616  155.8551 H   0  0  0  0  0  0  0  0  0  0  0  0
  198.7860  178.2274  154.3488 H   0  0  0  0  0  0  0  0  0  0  0  0
  200.0143  177.3345  157.3028 H   0  0  0  0  0  0  0  0  0  0  0  0
  201.9468  178.2825  158.4937 H   0  0  0  0  0  0  0  0  0  0  0  0
  201.4705  181.9767  156.2990 H   0  0  0  0  0  0  0  0  0  0  0  0
  199.6040  181.0015  155.0525 H   0  0  0  0  0  0  0  0  0  0  0  0
  202.8833  181.8760  158.3848 H   0  0  0  0  0  0  0  0  0  0  0  0
  203.1550  180.3413  159.1778 H   0  0  0  0  0  0  0  0  0  0  0  0
  204.2194  182.3789  156.2156 H   0  0  0  0  0  0  0  0  0  0  0  0
  203.5511  180.9332  155.4525 H   0  0  0  0  0  0  0  0  0  0  0  0
  205.2757  181.1180  155.5822 H   0  0  0  0  0  0  0  0  0  0  0  0
  205.4940  182.0670  158.5069 H   0  0  0  0  0  0  0  0  0  0  0  0
  206.4332  180.8427  157.6532 H   0  0  0  0  0  0  0  0  0  0  0  0
  205.5921  180.4174  159.1399 H   0  0  0  0  0  0  0  0  0  0  0  0
  197.1761  178.9475  152.5980 H   0  0  0  0  0  0  0  0  0  0  0  0
  204.3900  179.6326  157.2711 H   0  0  0  0  0  0  0  0  0  0  0  0
  1  2  1  0
  2  3  1  0
  2 30  2  0
  3  4  1  0
  4  5  1  0
  4 17  2  0
  5  6  2  0
  5  7  1  0
  7  8  1  0
  7 31  1  0
  8  9  1  0
  8 11  1  0
  8 32  1  1
  9 10  3  0
 11 12  2  0
 11 16  1  0
 12 13  1  0
 12 33  1  0
 13 14  2  0
 13 34  1  0
 14 15  1  0
 14 35  1  0
 15 16  2  0
 15 36  1  0
 16 37  1  0
 17 18  1  0
 17 30  1  0
 18 19  1  0
 18 38  1  0
 19 20  1  0
 19 39  1  1
 19 40  1  0
 20 21  1  0
 20 25  2  0
 21 22  2  0
 21 41  1  0
 22 23  1  0
 22 42  1  0
 23 24  2  0
 23 26  1  0
 24 25  1  0
 24 43  1  0
 25 44  1  0
 26 27  1  0
 26 45  1  1
 26 46  1  0
 27 28  1  0
 27 29  1  0
 27 54  1  6
 28 47  1  1
 28 48  1  0
 28 49  1  0
 29 50  1  1
 29 51  1  0
 29 52  1  0
 30 53  1  0
M  CHG  1  27   1
M  END
>  <s_epik_cmdline>  (213) 
J2VwaWtfcHl0aG9uJywgJy1waCcsICc3LjAwMDAwMCcsICctcGh0JywgJzIuMDAwMDAwJywgJy1tcycsICcxNicsICctdG4nLCAnOCcsICctbWEnLCAnMjAwJywgJy1pbWFlJywgJzxpbmZpbGUubWFlPicsICctb21hZScsICc8b3V0ZmlsZS5tYWU+Jw==

>  <s_epik_input>  (213) 
W2NIXTFbY0hdW2NIXVtjSF1bY0hdYzFbQ0BIXShDI04pW05IXUMoPU8pYyhzYzJDbCljKFtjSF0yKVtOSF1bQ0gyXWMzW2NIXVtjSF1jKFtjSF1bY0hdMylbQ0gyXU4oW0NIM10pW0NIM10=

>  <s_i_glide_gridfile>  (213) 
ATP-Grid

>  <s_lp_Force_Field>  (213) 
OPLS_2005

>  <s_lp_Variant>  (213) 
rxn512b____EMOL44390368____EMOL49851977____EMOL50155899-1

>  <s_lp_label>  (213) 
2655_sdstereoexpander_1_neutralizer_1_epik_1_stereoizer_1

>  <s_m_source_file>  (213) 
ATP-VSW-LIGPREP-002-in.maegz

>  <s_sd_BIOSOLVEIT.INFINISEE\_QUERY\_NAME>  (213) 
Ref-Lig

>  <s_sd_BIOSOLVEIT.INFINISEE\_QUERY\_SMILES>  (213) 
S(c1nc2c(cc1C[NH2+]Cc3ccc(cc3)C[NH+](C)C)cccc2)Cc4ccccc4

>  <s_sd_BIOSOLVEIT.INFINISEE\_REACTION\_NAME>  (213) 
rxn512b

>  <s_sd_BIOSOLVEIT.INFINISEE\_REAGENT1\_NAME>  (213) 
EMOL44390368

>  <s_sd_BIOSOLVEIT.INFINISEE\_REAGENT1\_SMILES>  (213) 
N#CC(N)c1ccccc1

>  <s_sd_BIOSOLVEIT.INFINISEE\_REAGENT2\_NAME>  (213) 
EMOL49851977

>  <s_sd_BIOSOLVEIT.INFINISEE\_REAGENT2\_SMILES>  (213) 
BrC1=C(SC(Cl)=C1)C(=O)O

>  <s_sd_BIOSOLVEIT.INFINISEE\_REAGENT3\_NAME>  (213) 
EMOL50155899

>  <s_sd_BIOSOLVEIT.INFINISEE\_REAGENT3\_SMILES>  (213) 
N(Cc1ccc(cc1)CN)(C)C

>  <s_sd_BIOSOLVEIT.INFINISEE\_SPACE>  (213) 
eXplore_7tr_2022-12

>  <s_vsw_compound_code>  (213) 
84930

>  <s_vsw_variant>  (213) 
84930-1

>  <r_epik_Charging_Adjusted_Penalty>  (213) 
0.080189274810459593

>  <r_epik_Ionization_Penalty>  (213) 
0.0402

>  <r_epik_Ionization_Penalty_Charging>  (213) 
0.040099999999999997

>  <r_epik_Ionization_Penalty_Neutral>  (213) 
0.0001

>  <r_epik_State_Penalty>  (213) 
0.040099999999999997

>  <r_i_docking_score>  (213) 
-4.7410450343089297

>  <r_i_glide_ecoul>  (213) 
-11.742861747741699

>  <r_i_glide_eff_state_penalty>  (213) 
0.040099999999999997

>  <r_i_glide_einternal>  (213) 
10.876808166503899

>  <r_i_glide_emodel>  (213) 
-59.6760595575157

>  <r_i_glide_energy>  (213) 
-47.607443809509299

>  <r_i_glide_erotb>  (213) 
0.72185624816151595

>  <r_i_glide_esite>  (213) 
-0.264365851206673

>  <r_i_glide_evdw>  (213) 
-35.864582061767599

>  <r_i_glide_gscore>  (213) 
-4.7811450343089303

>  <r_i_glide_hbond>  (213) 
-0.24857431995153101

>  <r_i_glide_ligand_efficiency>  (213) 
-0.15803483447696401

>  <r_i_glide_ligand_efficiency_ln>  (213) 
-1.0772170896181099

>  <r_i_glide_ligand_efficiency_sa>  (213) 
-0.49105097420314098

>  <r_i_glide_lipo>  (213) 
-1.0261861096989799

>  <r_i_glide_metal>  (213) 
-0

>  <r_i_glide_rewards>  (213) 
-0.40921663636363498

>  <r_lp_Energy>  (213) 
20.108363000000001

>  <r_lp_tautomer_probability>  (213) 
0.99999274205267796

>  <r_qp_ACxDN^.5/SA>  (213) 
0.0074444000000000003

>  <r_qp_CIQPlogS>  (213) 
-5.6639999999999997

>  <r_qp_EA(eV)>  (213) 
0.82999999999999996

>  <r_qp_FISA>  (213) 
109.14400000000001

>  <r_qp_FOSA>  (213) 
222.786

>  <r_qp_IP(eV)>  (213) 
8.3780000000000001

>  <r_qp_Jm>  (213) 
7.1223032258231495e-07

>  <r_qp_PISA>  (213) 
362.33199999999999

>  <r_qp_PSA>  (213) 
77.347999999999999

>  <r_qp_PercentHumanOralAbsorption>  (213) 
85.614000000000004

>  <r_qp_QPPCaco>  (213) 
56.844000000000001

>  <r_qp_QPPMDCK>  (213) 
111.69199999999999

>  <r_qp_QPlogBB>  (213) 
-0.184

>  <r_qp_QPlogHERG>  (213) 
-8.673

>  <r_qp_QPlogKhsa>  (213) 
0.86799999999999999

>  <r_qp_QPlogKp>  (213) 
-5.516

>  <r_qp_QPlogPC16>  (213) 
15.961

>  <r_qp_QPlogPo/w>  (213) 
4.6559999999999997

>  <r_qp_QPlogPoct>  (213) 
21.344999999999999

>  <r_qp_QPlogPw>  (213) 
10.294

>  <r_qp_QPlogS>  (213) 
-6.274

>  <r_qp_QPpolrz>  (213) 
48.034999999999997

>  <r_qp_SASA>  (213) 
805.97199999999998

>  <r_qp_SAamideO>  (213) 
0

>  <r_qp_SAfluorine>  (213) 
0

>  <r_qp_WPSA>  (213) 
111.70999999999999

>  <r_qp_accptHB>  (213) 
6

>  <r_qp_dip^2/V>  (213) 
0.030498000000000001

>  <r_qp_dipole>  (213) 
6.5620000000000003

>  <r_qp_donorHB>  (213) 
1

>  <r_qp_glob>  (213) 
0.75520069999999995

>  <r_qp_mol_MW>  (213) 
438.97399999999999

>  <r_qp_volume>  (213) 
1411.972

>  <r_sd_BIOSOLVEIT.INFINISEE\_FTREES\_SIMILARITY>  (213) 
0.91000000000000003

>  <r_sd_BIOSOLVEIT.LOGP>  (213) 
3.6527799999999999

>  <r_sd_BIOSOLVEIT.MOLECULAR\_WEIGHT>  (213) 
439.988

>  <r_sd_BIOSOLVEIT.TPSA>  (213) 
69.359999999999999

>  <i_epik_Tot_Q>  (213) 
1

>  <i_epik_Tot_abs_Q>  (213) 
1

>  <i_f3d_flags>  (213) 
0

>  <i_i_glide_confnum>  (213) 
7

>  <i_i_glide_lignum>  (213) 
1258

>  <i_i_glide_posenum>  (213) 
4

>  <i_i_glide_rotatable_bonds>  (213) 
9

>  <i_lp_mmshare_version>  (213) 
65135

>  <i_m_ct_format>  (213) 
2

>  <i_m_source_file_index>  (213) 
2655

>  <i_qp_#NandO>  (213) 
5

>  <i_qp_#acid>  (213) 
0

>  <i_qp_#amide>  (213) 
0

>  <i_qp_#amidine>  (213) 
0

>  <i_qp_#amine>  (213) 
2

>  <i_qp_#in34>  (213) 
0

>  <i_qp_#in56>  (213) 
17

>  <i_qp_#metab>  (213) 
7

>  <i_qp_#nonHatm>  (213) 
30

>  <i_qp_#noncon>  (213) 
0

>  <i_qp_#ringatoms>  (213) 
17

>  <i_qp_#rotor>  (213) 
9

>  <i_qp_#rtvFG>  (213) 
0

>  <i_qp_#stars>  (213) 
0

>  <i_qp_CNS>  (213) 
1

>  <i_qp_HumanOralAbsorption>  (213) 
1

>  <i_qp_RuleOfFive>  (213) 
0

>  <i_qp_RuleOfThree>  (213) 
2

>  <i_sd_BIOSOLVEIT.INFINISEE\_RESULT\_RANK>  (213) 
47045

>  <i_sd_version>  (213) 
0

>  <b_lp_Chiralities_Consistent>  (213) 
1

>  <b_sd_chiral_flag>  (213) 
0

>  <canonical_id>  (213) 
ATP-HTVS-21B7E8D8DA00

>  <compound_code>  (213) 
84930

>  <title>  (213) 
rxn512b____EMOL44390368____EMOL49851977____EMOL50155899

>  <variant>  (213) 
84930-1

>  <source_file>  (213) 
运行/运行/ATP-VSW/ATP-VSW-DOCK_HTVS_1-002_lib.maegz

>  <canonical_smiles>  (213) 
C[NH+](C)Cc1ccc(CNc2cc(Cl)sc2C(=O)N[C@@H](C#N)c2ccccc2)cc1

>  <scaffold>  (213) 
O=C(NCc1ccccc1)c1sccc1NCc1ccccc1

>  <molecular_formula>  (213) 
C23H24ClN4OS+

$$$$
ATP-HTVS-21BB1C807E7E
     RDKit          3D

 54 56  0  0  0  0  0  0  0  0999 V2000
  199.7096  180.4802  155.9426 O   0  0  0  0  0  0  0  0  0  0  0  0
  199.0211  180.8807  154.8160 C   0  0  0  0  0  0  0  0  0  0  0  0
  199.7915  181.1350  153.7430 N   0  0  0  0  0  0  0  0  0  0  0  0
  199.1994  181.4695  152.5739 C   0  0  0  0  0  0  0  0  0  0  0  0
  197.8154  181.6213  152.4308 C   0  0  0  0  0  0  0  0  0  0  0  0
  197.0023  181.4096  153.5626 C   0  0  0  0  0  0  0  0  0  0  0  0
  197.6057  181.0404  154.7813 C   0  0  0  0  0  0  0  0  0  0  0  0
  196.7518  180.7702  156.0043 C   0  0  1  0  0  0  0  0  0  0  0  0
  196.2297  182.0103  156.6277 N   0  0  1  0  0  0  0  0  0  0  0  0
  196.0124  181.8590  158.0802 C   0  0  1  0  0  0  0  0  0  0  0  0
  195.9718  183.2008  158.7590 C   0  0  0  0  0  0  0  0  0  0  0  0
  197.1702  183.8666  159.0720 C   0  0  0  0  0  0  0  0  0  0  0  0
  197.1284  185.1115  159.7267 C   0  0  0  0  0  0  0  0  0  0  0  0
  195.8938  185.7061  160.0570 C   0  0  0  0  0  0  0  0  0  0  0  0
  194.6979  185.0258  159.7420 C   0  0  0  0  0  0  0  0  0  0  0  0
  194.7313  183.7803  159.0924 C   0  0  0  0  0  0  0  0  0  0  0  0
  195.8395  187.0587  160.7572 C   0  0  1  0  0  0  0  0  0  0  0  0
  196.4408  188.2247  159.9310 C   0  0  2  0  0  0  0  0  0  0  0  0
  197.8372  188.1084  159.7333 O   0  0  0  0  0  0  0  0  0  0  0  0
  196.2569  189.5809  160.6190 C   0  0  2  0  0  0  0  0  0  0  0  0
  199.4117  179.1978  156.4990 C   0  0  1  0  0  0  0  0  0  0  0  0
  200.1668  178.0533  155.8565 C   0  0  0  0  0  0  0  0  0  0  0  0
  200.1035  177.8964  154.4579 C   0  0  0  0  0  0  0  0  0  0  0  0
  200.7654  176.8330  153.8377 C   0  0  0  0  0  0  0  0  0  0  0  0
  201.4521  175.8951  154.6314 C   0  0  0  0  0  0  0  0  0  0  0  0
  201.4637  176.0136  156.0414 C   0  0  0  0  0  0  0  0  0  0  0  0
  200.8151  177.0971  156.6593 C   0  0  0  0  0  0  0  0  0  0  0  0
  196.9421  182.7142  156.5051 H   0  0  0  0  0  0  0  0  0  0  0  0
  199.8607  181.6170  151.7241 H   0  0  0  0  0  0  0  0  0  0  0  0
  197.3914  181.9223  151.4795 H   0  0  0  0  0  0  0  0  0  0  0  0
  195.9485  181.5334  153.4699 H   0  0  0  0  0  0  0  0  0  0  0  0
  196.0119  180.0496  155.6666 H   0  0  0  0  0  0  0  0  0  0  0  0
  197.3016  180.2807  156.7829 H   0  0  0  0  0  0  0  0  0  0  0  0
  195.0995  181.3117  158.2696 H   0  0  0  0  0  0  0  0  0  0  0  0
  196.8135  181.3002  158.5826 H   0  0  0  0  0  0  0  0  0  0  0  0
  198.1288  183.4371  158.8133 H   0  0  0  0  0  0  0  0  0  0  0  0
  198.0617  185.5959  159.9584 H   0  0  0  0  0  0  0  0  0  0  0  0
  193.7433  185.4525  159.9963 H   0  0  0  0  0  0  0  0  0  0  0  0
  193.8061  183.2743  158.8503 H   0  0  0  0  0  0  0  0  0  0  0  0
  194.7966  187.2977  160.9758 H   0  0  0  0  0  0  0  0  0  0  0  0
  196.2713  186.9701  161.7496 H   0  0  0  0  0  0  0  0  0  0  0  0
  195.9508  188.2398  158.9546 H   0  0  0  0  0  0  0  0  0  0  0  0
  198.2785  188.2453  160.5606 H   0  0  0  0  0  0  0  0  0  0  0  0
  195.2059  189.8127  160.7807 H   0  0  0  0  0  0  0  0  0  0  0  0
  196.6854  190.3774  160.0077 H   0  0  0  0  0  0  0  0  0  0  0  0
  196.7563  189.5973  161.5894 H   0  0  0  0  0  0  0  0  0  0  0  0
  199.6249  179.2446  157.5730 H   0  0  0  0  0  0  0  0  0  0  0  0
  198.4022  178.8697  156.3812 H   0  0  0  0  0  0  0  0  0  0  0  0
  199.5290  178.5602  153.8381 H   0  0  0  0  0  0  0  0  0  0  0  0
  200.7326  176.7646  152.7623 H   0  0  0  0  0  0  0  0  0  0  0  0
  201.9767  175.0819  154.1429 H   0  0  0  0  0  0  0  0  0  0  0  0
  201.9774  175.2834  156.6450 H   0  0  0  0  0  0  0  0  0  0  0  0
  200.7860  177.1836  157.7353 H   0  0  0  0  0  0  0  0  0  0  0  0
  195.3766  182.3321  156.1833 H   0  0  0  0  0  0  0  0  0  0  0  0
  1  2  1  0
  1 21  1  0
  2  3  1  0
  2  7  2  0
  3  4  2  0
  4  5  1  0
  4 29  1  0
  5  6  2  0
  5 30  1  0
  6  7  1  0
  6 31  1  0
  7  8  1  0
  8  9  1  0
  8 32  1  6
  8 33  1  0
  9 10  1  0
  9 28  1  1
  9 54  1  0
 10 11  1  0
 10 34  1  6
 10 35  1  0
 11 12  1  0
 11 16  2  0
 12 13  2  0
 12 36  1  0
 13 14  1  0
 13 37  1  0
 14 15  2  0
 14 17  1  0
 15 16  1  0
 15 38  1  0
 16 39  1  0
 17 18  1  0
 17 40  1  1
 17 41  1  0
 18 19  1  0
 18 20  1  0
 18 42  1  6
 19 43  1  0
 20 44  1  1
 20 45  1  0
 20 46  1  0
 21 22  1  0
 21 47  1  1
 21 48  1  0
 22 23  2  0
 22 27  1  0
 23 24  1  0
 23 49  1  0
 24 25  2  0
 24 50  1  0
 25 26  1  0
 25 51  1  0
 26 27  2  0
 26 52  1  0
 27 53  1  0
M  CHG  1   9   1
M  END
>  <s_epik_cmdline>  (214) 
J2VwaWtfcHl0aG9uJywgJy1waCcsICc3LjAwMDAwMCcsICctcGh0JywgJzIuMDAwMDAwJywgJy1tcycsICcxNicsICctdG4nLCAnOCcsICctbWEnLCAnMjAwJywgJy1pbWFlJywgJzxpbmZpbGUubWFlPicsICctb21hZScsICc8b3V0ZmlsZS5tYWU+Jw==

>  <s_epik_input>  (214) 
W2NIXTFbY0hdW2NIXVtjSF1bY0hdYzFbQ0gyXU9jMm5bY0hdW2NIXVtjSF1jMltDSDJdW05IXVtDSDJdYzNbY0hdW2NIXWMoW2NIXVtjSF0zKVtDSDJdW0NASF0oW09IXSlbQ0gzXQ==

>  <s_i_glide_gridfile>  (214) 
ATP-Grid

>  <s_lp_Force_Field>  (214) 
OPLS_2005

>  <s_lp_Variant>  (214) 
m_270004bbb____8290290____21435080-1

>  <s_lp_label>  (214) 
1129_sdstereoexpander_1_neutralizer_1_epik_1_stereoizer_1

>  <s_m_source_file>  (214) 
ATP-VSW-LIGPREP-003-in.maegz

>  <s_sd_BIOSOLVEIT.INFINISEE\_QUERY\_NAME>  (214) 
Ref-Lig

>  <s_sd_BIOSOLVEIT.INFINISEE\_QUERY\_SMILES>  (214) 
S(c1nc2c(cc1C[NH2+]Cc3ccc(cc3)C[NH+](C)C)cccc2)Cc4ccccc4

>  <s_sd_BIOSOLVEIT.INFINISEE\_REACTION\_NAME>  (214) 
m_270004bbb

>  <s_sd_BIOSOLVEIT.INFINISEE\_REAGENT1\_SMILES>  (214) 
[R1*]NCc1c(OCc2ccccc2)nccc1

>  <s_sd_BIOSOLVEIT.INFINISEE\_REAGENT2\_SMILES>  (214) 
[R1*]Cc1ccc(cc1)CC(O)C

>  <s_sd_BIOSOLVEIT.INFINISEE\_SPACE>  (214) 
REALSpace_44bn_2023-08

>  <s_vsw_compound_code>  (214) 
36099

>  <s_vsw_variant>  (214) 
36099-1

>  <r_epik_Charging_Adjusted_Penalty>  (214) 
0.247960484273993

>  <r_epik_Ionization_Penalty>  (214) 
0.124

>  <r_epik_Ionization_Penalty_Charging>  (214) 
0.124

>  <r_epik_Ionization_Penalty_Neutral>  (214) 
0

>  <r_epik_State_Penalty>  (214) 
0.124

>  <r_i_docking_score>  (214) 
-4.8645290446030298

>  <r_i_glide_ecoul>  (214) 
-10.8404808044434

>  <r_i_glide_eff_state_penalty>  (214) 
0.124

>  <r_i_glide_einternal>  (214) 
12.1687726974487

>  <r_i_glide_emodel>  (214) 
-57.826380726011102

>  <r_i_glide_energy>  (214) 
-43.722560882568402

>  <r_i_glide_erotb>  (214) 
1.30891872741231

>  <r_i_glide_esite>  (214) 
-0.091735287150946795

>  <r_i_glide_evdw>  (214) 
-32.882080078125

>  <r_i_glide_gscore>  (214) 
-4.9885290446030304

>  <r_i_glide_hbond>  (214) 
-0.20000000000000001

>  <r_i_glide_ligand_efficiency>  (214) 
-0.180167742392705

>  <r_i_glide_ligand_efficiency_ln>  (214) 
-1.13238216355447

>  <r_i_glide_ligand_efficiency_sa>  (214) 
-0.54050322658431105

>  <r_i_glide_lipo>  (214) 
-1.80466826938255

>  <r_i_glide_metal>  (214) 
-0

>  <r_i_glide_rewards>  (214) 
-0.93086809090908995

>  <r_lp_Energy>  (214) 
8.5194290000000006

>  <r_lp_tautomer_probability>  (214) 
1

>  <r_qp_ACxDN^.5/SA>  (214) 
0.0098841999999999992

>  <r_qp_CIQPlogS>  (214) 
-4.843

>  <r_qp_EA(eV)>  (214) 
0.14299999999999999

>  <r_qp_FISA>  (214) 
31.783999999999999

>  <r_qp_FOSA>  (214) 
224.63

>  <r_qp_IP(eV)>  (214) 
9.1690000000000005

>  <r_qp_Jm>  (214) 
6.6396449548674203

>  <r_qp_PISA>  (214) 
344.512

>  <r_qp_PSA>  (214) 
47.509999999999998

>  <r_qp_PercentHumanOralAbsorption>  (214) 
100

>  <r_qp_QPPCaco>  (214) 
1234.213

>  <r_qp_QPPMDCK>  (214) 
687.08699999999999

>  <r_qp_QPlogBB>  (214) 
0.088999999999999996

>  <r_qp_QPlogHERG>  (214) 
-5.766

>  <r_qp_QPlogKhsa>  (214) 
0.47499999999999998

>  <r_qp_QPlogKp>  (214) 
-1.994

>  <r_qp_QPlogPC16>  (214) 
12.121

>  <r_qp_QPlogPo/w>  (214) 
4.2649999999999997

>  <r_qp_QPlogPoct>  (214) 
17.053000000000001

>  <r_qp_QPlogPw>  (214) 
8.5850000000000009

>  <r_qp_QPlogS>  (214) 
-2.7429999999999999

>  <r_qp_QPpolrz>  (214) 
36.845999999999997

>  <r_qp_SASA>  (214) 
600.92600000000004

>  <r_qp_SAamideO>  (214) 
0

>  <r_qp_SAfluorine>  (214) 
0

>  <r_qp_WPSA>  (214) 
0

>  <r_qp_accptHB>  (214) 
4.2000000000000002

>  <r_qp_dip^2/V>  (214) 
0.0075846000000000004

>  <r_qp_dipole>  (214) 
2.9569999999999999

>  <r_qp_donorHB>  (214) 
2

>  <r_qp_glob>  (214) 
0.88475099999999995

>  <r_qp_mol_MW>  (214) 
362.471

>  <r_qp_volume>  (214) 
1152.6980000000001

>  <r_sd_BIOSOLVEIT.INFINISEE\_FTREES\_SIMILARITY>  (214) 
0.91300000000000003

>  <r_sd_BIOSOLVEIT.LOGP>  (214) 
2.8475000000000001

>  <r_sd_BIOSOLVEIT.MOLECULAR\_WEIGHT>  (214) 
363.47800000000001

>  <r_sd_BIOSOLVEIT.TPSA>  (214) 
58.960000000000001

>  <i_epik_Tot_Q>  (214) 
1

>  <i_epik_Tot_abs_Q>  (214) 
1

>  <i_f3d_flags>  (214) 
0

>  <i_i_glide_confnum>  (214) 
15

>  <i_i_glide_lignum>  (214) 
436

>  <i_i_glide_posenum>  (214) 
20

>  <i_i_glide_rotatable_bonds>  (214) 
10

>  <i_lp_mmshare_version>  (214) 
65135

>  <i_m_ct_format>  (214) 
2

>  <i_m_source_file_index>  (214) 
1129

>  <i_qp_#NandO>  (214) 
4

>  <i_qp_#acid>  (214) 
0

>  <i_qp_#amide>  (214) 
0

>  <i_qp_#amidine>  (214) 
0

>  <i_qp_#amine>  (214) 
1

>  <i_qp_#in34>  (214) 
0

>  <i_qp_#in56>  (214) 
18

>  <i_qp_#metab>  (214) 
8

>  <i_qp_#nonHatm>  (214) 
27

>  <i_qp_#noncon>  (214) 
0

>  <i_qp_#ringatoms>  (214) 
18

>  <i_qp_#rotor>  (214) 
10

>  <i_qp_#rtvFG>  (214) 
0

>  <i_qp_#stars>  (214) 
0

>  <i_qp_CNS>  (214) 
1

>  <i_qp_HumanOralAbsorption>  (214) 
3

>  <i_qp_RuleOfFive>  (214) 
0

>  <i_qp_RuleOfThree>  (214) 
1

>  <i_sd_BIOSOLVEIT.INFINISEE\_REAGENT1\_NAME>  (214) 
8290290

>  <i_sd_BIOSOLVEIT.INFINISEE\_REAGENT2\_NAME>  (214) 
21435080

>  <i_sd_BIOSOLVEIT.INFINISEE\_RESULT\_RANK>  (214) 
35345

>  <i_sd_version>  (214) 
0

>  <b_lp_Chiralities_Consistent>  (214) 
1

>  <b_sd_chiral_flag>  (214) 
0

>  <canonical_id>  (214) 
ATP-HTVS-21BB1C807E7E

>  <compound_code>  (214) 
36099

>  <title>  (214) 
m_270004bbb____8290290____21435080

>  <variant>  (214) 
36099-1

>  <source_file>  (214) 
运行/运行/ATP-VSW/ATP-VSW-DOCK_HTVS_1-003_lib/ATP-VSW-DOCK_HTVS_1-003_lib.mae

>  <canonical_smiles>  (214) 
C[C@@H](O)Cc1ccc(C[NH2+]Cc2cccnc2OCc2ccccc2)cc1

>  <scaffold>  (214) 
c1ccc(C[NH2+]Cc2cccnc2OCc2ccccc2)cc1

>  <molecular_formula>  (214) 
C23H27N2O2+

$$$$
ATP-HTVS-21D2D8C367A1
     RDKit          3D

 63 66  0  0  0  0  0  0  0  0999 V2000
  197.5362  185.0326  153.4291 S   0  0  0  0  0  0  0  0  0  0  0  0
  197.1274  183.4669  152.7724 C   0  0  0  0  0  0  0  0  0  0  0  0
  197.0535  182.4754  153.8004 C   0  0  0  0  0  0  0  0  0  0  0  0
  196.7391  181.1585  153.4056 C   0  0  0  0  0  0  0  0  0  0  0  0
  196.5035  180.8236  152.0648 C   0  0  0  0  0  0  0  0  0  0  0  0
  196.5726  181.8218  151.0800 C   0  0  0  0  0  0  0  0  0  0  0  0
  196.8802  183.1479  151.4279 C   0  0  0  0  0  0  0  0  0  0  0  0
  197.3386  183.0156  155.1168 C   0  0  0  0  0  0  0  0  0  0  0  0
  197.6309  184.3602  155.0316 C   0  0  0  0  0  0  0  0  0  0  0  0
  197.9684  185.2905  156.1492 C   0  0  2  0  0  0  0  0  0  0  0  0
  197.3828  182.2315  156.4246 C   0  0  1  0  0  0  0  0  0  0  0  0
  195.9940  181.8313  156.8560 N   0  0  1  0  0  0  0  0  0  0  0  0
  195.8178  181.8428  158.3309 C   0  0  1  0  0  0  0  0  0  0  0  0
  196.0033  183.2308  158.9576 C   0  0  0  0  0  0  0  0  0  0  0  0
  197.2948  183.7476  159.1640 C   0  0  0  0  0  0  0  0  0  0  0  0
  197.4622  185.0776  159.6086 C   0  0  0  0  0  0  0  0  0  0  0  0
  196.3411  185.8583  159.9506 C   0  0  0  0  0  0  0  0  0  0  0  0
  195.0420  185.3105  159.8322 C   0  0  0  0  0  0  0  0  0  0  0  0
  194.8741  184.0016  159.3121 C   0  0  0  0  0  0  0  0  0  0  0  0
  196.5427  187.2708  160.4749 C   0  0  1  0  0  0  0  0  0  0  0  0
  196.3999  188.3136  159.4298 N   0  0  1  0  0  0  0  0  0  0  0  0
  196.5494  189.6674  159.9920 C   0  0  2  0  0  0  0  0  0  0  0  0
  197.2776  188.1294  158.2514 C   0  0  2  0  0  0  0  0  0  0  0  0
  198.1297  180.9659  156.2822 C   0  0  0  0  0  0  0  0  0  0  0  0
  198.8057  179.9467  156.1986 C   0  0  0  0  0  0  0  0  0  0  0  0
  199.5912  178.7434  156.0444 C   0  0  0  0  0  0  0  0  0  0  0  0
  199.5518  178.0344  154.8261 C   0  0  0  0  0  0  0  0  0  0  0  0
  200.3158  176.8602  154.6749 C   0  0  0  0  0  0  0  0  0  0  0  0
  201.1220  176.3870  155.7321 C   0  0  0  0  0  0  0  0  0  0  0  0
  201.1510  177.1135  156.9450 C   0  0  0  0  0  0  0  0  0  0  0  0
  200.3910  178.2839  157.1055 C   0  0  0  0  0  0  0  0  0  0  0  0
  201.9351  175.1388  155.5653 C   0  0  0  0  0  0  0  0  0  0  0  0
  201.8501  174.5108  154.4895 O   0  0  0  0  0  0  0  0  0  0  0  0
  202.6782  174.7598  156.5010 O   0  0  0  0  0  0  0  0  0  0  0  0
  195.2827  182.4211  156.4398 H   0  0  0  0  0  0  0  0  0  0  0  0
  196.6654  180.3821  154.1505 H   0  0  0  0  0  0  0  0  0  0  0  0
  196.2683  179.7988  151.8226 H   0  0  0  0  0  0  0  0  0  0  0  0
  196.3918  181.5617  150.0593 H   0  0  0  0  0  0  0  0  0  0  0  0
  196.9336  183.9278  150.6827 H   0  0  0  0  0  0  0  0  0  0  0  0
  198.7829  184.9292  156.7745 H   0  0  0  0  0  0  0  0  0  0  0  0
  197.0793  185.4149  156.7672 H   0  0  0  0  0  0  0  0  0  0  0  0
  198.2645  186.2761  155.7863 H   0  0  0  0  0  0  0  0  0  0  0  0
  197.9630  182.8026  157.1286 H   0  0  0  0  0  0  0  0  0  0  0  0
  194.8157  181.4839  158.5453 H   0  0  0  0  0  0  0  0  0  0  0  0
  196.5000  181.1390  158.8067 H   0  0  0  0  0  0  0  0  0  0  0  0
  198.1627  183.1622  158.9111 H   0  0  0  0  0  0  0  0  0  0  0  0
  198.4604  185.4992  159.6478 H   0  0  0  0  0  0  0  0  0  0  0  0
  194.1738  185.8778  160.1311 H   0  0  0  0  0  0  0  0  0  0  0  0
  193.8741  183.6046  159.1982 H   0  0  0  0  0  0  0  0  0  0  0  0
  195.8205  187.4314  161.2796 H   0  0  0  0  0  0  0  0  0  0  0  0
  197.5374  187.3370  160.9175 H   0  0  0  0  0  0  0  0  0  0  0  0
  197.5659  189.8110  160.3650 H   0  0  0  0  0  0  0  0  0  0  0  0
  195.8385  189.8250  160.8058 H   0  0  0  0  0  0  0  0  0  0  0  0
  196.3550  190.4030  159.2122 H   0  0  0  0  0  0  0  0  0  0  0  0
  198.3363  188.1048  158.5261 H   0  0  0  0  0  0  0  0  0  0  0  0
  197.1128  188.9063  157.5005 H   0  0  0  0  0  0  0  0  0  0  0  0
  197.0098  187.1829  157.7719 H   0  0  0  0  0  0  0  0  0  0  0  0
  198.9373  178.3825  154.0086 H   0  0  0  0  0  0  0  0  0  0  0  0
  200.2795  176.3196  153.7416 H   0  0  0  0  0  0  0  0  0  0  0  0
  201.7748  176.7765  157.7518 H   0  0  0  0  0  0  0  0  0  0  0  0
  200.4171  178.8285  158.0394 H   0  0  0  0  0  0  0  0  0  0  0  0
  195.4489  188.2324  159.0972 H   0  0  0  0  0  0  0  0  0  0  0  0
  195.7779  180.8766  156.5637 H   0  0  0  0  0  0  0  0  0  0  0  0
  1  2  1  0
  1  9  1  0
  2  3  1  0
  2  7  2  0
  3  4  2  0
  3  8  1  0
  4  5  1  0
  4 36  1  0
  5  6  2  0
  5 37  1  0
  6  7  1  0
  6 38  1  0
  7 39  1  0
  8  9  2  0
  8 11  1  0
  9 10  1  0
 10 40  1  1
 10 41  1  0
 10 42  1  0
 11 12  1  0
 11 24  1  0
 11 43  1  1
 12 13  1  0
 12 35  1  6
 12 63  1  0
 13 14  1  0
 13 44  1  6
 13 45  1  0
 14 15  1  0
 14 19  2  0
 15 16  2  0
 15 46  1  0
 16 17  1  0
 16 47  1  0
 17 18  2  0
 17 20  1  0
 18 19  1  0
 18 48  1  0
 19 49  1  0
 20 21  1  0
 20 50  1  1
 20 51  1  0
 21 22  1  0
 21 23  1  0
 21 62  1  6
 22 52  1  1
 22 53  1  0
 22 54  1  0
 23 55  1  1
 23 56  1  0
 23 57  1  0
 24 25  3  0
 25 26  1  0
 26 27  1  0
 26 31  2  0
 27 28  2  0
 27 58  1  0
 28 29  1  0
 28 59  1  0
 29 30  2  0
 29 32  1  0
 30 31  1  0
 30 60  1  0
 31 61  1  0
 32 33  1  0
 32 34  2  0
M  CHG  3  12   1  21   1  33  -1
M  END
>  <s_epik_cmdline>  (215) 
J2VwaWtfcHl0aG9uJywgJy1waCcsICc3LjAwMDAwMCcsICctcGh0JywgJzIuMDAwMDAwJywgJy1tcycsICcxNicsICctdG4nLCAnOCcsICctbWEnLCAnMjAwJywgJy1pbWFlJywgJzxpbmZpbGUubWFlPicsICctb21hZScsICc8b3V0ZmlsZS5tYWU+Jw==

>  <s_epik_input>  (215) 
W2NIXTFbY0hdYyhDKD1PKVtPSF0pW2NIXVtjSF1jMUMjQ1tDQEBIXShjKGMoczIpW0NIM10pYyhjMjMpW2NIXVtjSF1bY0hdW2NIXTMpW05IXVtDSDJdYzRbY0hdW2NIXWMoW2NIXVtjSF00KVtDSDJdTihbQ0gzXSlbQ0gzXQ==

>  <s_i_glide_gridfile>  (215) 
ATP-Grid

>  <s_lp_Force_Field>  (215) 
OPLS_2005

>  <s_lp_Variant>  (215) 
rxn403____EMOL50155899____EMOL4338979____EMOL31600616-4

>  <s_lp_label>  (215) 
2923_sdstereoexpander_2_neutralizer_1_epik_2_stereoizer_1

>  <s_m_source_file>  (215) 
ATP-VSW-LIGPREP-002-in.maegz

>  <s_sd_BIOSOLVEIT.INFINISEE\_QUERY\_NAME>  (215) 
Ref-Lig

>  <s_sd_BIOSOLVEIT.INFINISEE\_QUERY\_SMILES>  (215) 
S(c1nc2c(cc1C[NH2+]Cc3ccc(cc3)C[NH+](C)C)cccc2)Cc4ccccc4

>  <s_sd_BIOSOLVEIT.INFINISEE\_REACTION\_NAME>  (215) 
rxn403

>  <s_sd_BIOSOLVEIT.INFINISEE\_REAGENT1\_NAME>  (215) 
EMOL50155899

>  <s_sd_BIOSOLVEIT.INFINISEE\_REAGENT1\_SMILES>  (215) 
N(Cc1ccc(cc1)CN)(C)C

>  <s_sd_BIOSOLVEIT.INFINISEE\_REAGENT2\_NAME>  (215) 
EMOL4338979

>  <s_sd_BIOSOLVEIT.INFINISEE\_REAGENT2\_SMILES>  (215) 
S1c2c(cccc2)C(=C1C)C=O

>  <s_sd_BIOSOLVEIT.INFINISEE\_REAGENT3\_NAME>  (215) 
EMOL31600616

>  <s_sd_BIOSOLVEIT.INFINISEE\_REAGENT3\_SMILES>  (215) 
O=C(O)c1ccc(C#C)cc1

>  <s_sd_BIOSOLVEIT.INFINISEE\_SPACE>  (215) 
eXplore_7tr_2022-12

>  <s_vsw_compound_code>  (215) 
93506

>  <s_vsw_variant>  (215) 
93506-4

>  <r_epik_Charging_Adjusted_Penalty>  (215) 
2.4191208732873402

>  <r_epik_Ionization_Penalty>  (215) 
1.2092000000000001

>  <r_epik_Ionization_Penalty_Charging>  (215) 
1.2092000000000001

>  <r_epik_Ionization_Penalty_Neutral>  (215) 
0

>  <r_epik_State_Penalty>  (215) 
1.2099

>  <r_i_docking_score>  (215) 
-4.5821785106581796

>  <r_i_glide_ecoul>  (215) 
-8.5227890014648402

>  <r_i_glide_eff_state_penalty>  (215) 
1.2099

>  <r_i_glide_einternal>  (215) 
3.6463687419891402

>  <r_i_glide_emodel>  (215) 
-76.197819296437601

>  <r_i_glide_energy>  (215) 
-51.7683715820312

>  <r_i_glide_erotb>  (215) 
0.64111273366732902

>  <r_i_glide_esite>  (215) 
-0.10000000000000001

>  <r_i_glide_evdw>  (215) 
-43.245582580566399

>  <r_i_glide_gscore>  (215) 
-5.7920785106581798

>  <r_i_glide_hbond>  (215) 
-0.27804604986060699

>  <r_i_glide_ligand_efficiency>  (215) 
-0.13476995619582899

>  <r_i_glide_ligand_efficiency_ln>  (215) 
-1.0123317587581599

>  <r_i_glide_ligand_efficiency_sa>  (215) 
-0.43660234003645099

>  <r_i_glide_lipo>  (215) 
-2.0978699725086498

>  <r_i_glide_metal>  (215) 
-0

>  <r_i_glide_rewards>  (215) 
-0.51657774270821

>  <r_lp_Energy>  (215) 
22.465900000000001

>  <r_qp_ACxDN^.5/SA>  (215) 
0.0090246000000000007

>  <r_qp_CIQPlogS>  (215) 
-5.6310000000000002

>  <r_qp_EA(eV)>  (215) 
0.75

>  <r_qp_FISA>  (215) 
116.949

>  <r_qp_FOSA>  (215) 
258.76499999999999

>  <r_qp_IP(eV)>  (215) 
8.7170000000000005

>  <r_qp_Jm>  (215) 
3.8447580660286002e-07

>  <r_qp_PISA>  (215) 
443.91399999999999

>  <r_qp_PSA>  (215) 
65.876000000000005

>  <r_qp_PercentHumanOralAbsorption>  (215) 
69.545000000000002

>  <r_qp_QPPCaco>  (215) 
12.141

>  <r_qp_QPPMDCK>  (215) 
11.153

>  <r_qp_QPlogBB>  (215) 
-0.46400000000000002

>  <r_qp_QPlogHERG>  (215) 
-7.3369999999999997

>  <r_qp_QPlogKhsa>  (215) 
1.113

>  <r_qp_QPlogKp>  (215) 
-5.3719999999999999

>  <r_qp_QPlogPC16>  (215) 
17.648

>  <r_qp_QPlogPo/w>  (215) 
3.9609999999999999

>  <r_qp_QPlogPoct>  (215) 
24.219000000000001

>  <r_qp_QPlogPw>  (215) 
11.984999999999999

>  <r_qp_QPlogS>  (215) 
-6.7140000000000004

>  <r_qp_QPpolrz>  (215) 
54.168999999999997

>  <r_qp_SASA>  (215) 
861.88999999999999

>  <r_qp_SAamideO>  (215) 
0

>  <r_qp_SAfluorine>  (215) 
0

>  <r_qp_WPSA>  (215) 
42.262

>  <r_qp_accptHB>  (215) 
5.5

>  <r_qp_dip^2/V>  (215) 
0.0090060000000000001

>  <r_qp_dipole>  (215) 
3.7309999999999999

>  <r_qp_donorHB>  (215) 
2

>  <r_qp_glob>  (215) 
0.75014979999999998

>  <r_qp_mol_MW>  (215) 
468.61200000000002

>  <r_qp_volume>  (215) 
1545.797

>  <r_sd_BIOSOLVEIT.INFINISEE\_FTREES\_SIMILARITY>  (215) 
0.90400000000000003

>  <r_sd_BIOSOLVEIT.LOGP>  (215) 
2.0741200000000002

>  <r_sd_BIOSOLVEIT.MOLECULAR\_WEIGHT>  (215) 
469.625

>  <r_sd_BIOSOLVEIT.TPSA>  (215) 
61.18

>  <i_epik_Tot_Q>  (215) 
1

>  <i_epik_Tot_abs_Q>  (215) 
3

>  <i_f3d_flags>  (215) 
0

>  <i_i_glide_confnum>  (215) 
2

>  <i_i_glide_lignum>  (215) 
1453

>  <i_i_glide_posenum>  (215) 
18

>  <i_i_glide_rotatable_bonds>  (215) 
9

>  <i_lp_mmshare_version>  (215) 
65135

>  <i_m_ct_format>  (215) 
2

>  <i_m_source_file_index>  (215) 
2923

>  <i_qp_#NandO>  (215) 
4

>  <i_qp_#acid>  (215) 
1

>  <i_qp_#amide>  (215) 
0

>  <i_qp_#amidine>  (215) 
0

>  <i_qp_#amine>  (215) 
2

>  <i_qp_#in34>  (215) 
0

>  <i_qp_#in56>  (215) 
21

>  <i_qp_#metab>  (215) 
7

>  <i_qp_#nonHatm>  (215) 
34

>  <i_qp_#noncon>  (215) 
0

>  <i_qp_#ringatoms>  (215) 
21

>  <i_qp_#rotor>  (215) 
9

>  <i_qp_#rtvFG>  (215) 
0

>  <i_qp_#stars>  (215) 
1

>  <i_qp_CNS>  (215) 
0

>  <i_qp_HumanOralAbsorption>  (215) 
1

>  <i_qp_RuleOfFive>  (215) 
0

>  <i_qp_RuleOfThree>  (215) 
3

>  <i_sd_BIOSOLVEIT.INFINISEE\_RESULT\_RANK>  (215) 
77356

>  <i_sd_version>  (215) 
0

>  <b_lp_Chiralities_Consistent>  (215) 
1

>  <b_sd_chiral_flag>  (215) 
0

>  <canonical_id>  (215) 
ATP-HTVS-21D2D8C367A1

>  <compound_code>  (215) 
93506

>  <title>  (215) 
rxn403____EMOL50155899____EMOL4338979____EMOL31600616

>  <variant>  (215) 
93506-4

>  <source_file>  (215) 
运行/运行/ATP-VSW/ATP-VSW-DOCK_HTVS_1-002_lib.maegz

>  <canonical_smiles>  (215) 
Cc1sc2ccccc2c1[C@H](C#Cc1ccc(C(=O)[O-])cc1)[NH2+]Cc1ccc(C[NH+](C)C)cc1

>  <scaffold>  (215) 
C(#CC([NH2+]Cc1ccccc1)c1csc2ccccc12)c1ccccc1

>  <molecular_formula>  (215) 
C29H29N2O2S+

$$$$
ATP-HTVS-22634BBBCB97
     RDKit          3D

 66 69  0  0  0  0  0  0  0  0999 V2000
  199.0933  191.9147  157.7653 F   0  0  0  0  0  0  0  0  0  0  0  0
  198.7832  190.6231  157.4857 C   0  0  0  0  0  0  0  0  0  0  0  0
  199.5914  189.8847  156.6142 C   0  0  0  0  0  0  0  0  0  0  0  0
  199.2713  188.5338  156.3309 C   0  0  0  0  0  0  0  0  0  0  0  0
  198.0971  187.9290  156.9230 C   0  0  0  0  0  0  0  0  0  0  0  0
  197.2643  188.7092  157.7328 C   0  0  0  0  0  0  0  0  0  0  0  0
  197.6294  190.0318  158.0469 C   0  0  0  0  0  0  0  0  0  0  0  0
  197.7361  186.4498  156.7700 C   0  0  1  0  0  0  0  0  0  0  0  0
  197.4691  186.0116  155.4095 N   0  0  0  0  0  0  0  0  0  0  0  0
  197.3906  184.6919  155.0115 C   0  0  0  0  0  0  0  0  0  0  0  0
  197.3421  183.7204  155.9289 N   0  0  0  0  0  0  0  0  0  0  0  0
  197.1031  182.4355  155.5574 C   0  0  0  0  0  0  0  0  0  0  0  0
  196.9345  181.4586  156.5514 N   0  0  0  0  0  0  0  0  0  0  0  0
  197.2751  181.7108  157.9449 C   0  0  1  0  0  0  0  0  0  0  0  0
  196.5085  182.8182  158.6372 C   0  0  0  0  0  0  0  0  0  0  0  0
  195.1277  183.0088  158.4137 C   0  0  0  0  0  0  0  0  0  0  0  0
  194.4669  184.0774  159.0641 C   0  0  0  0  0  0  0  0  0  0  0  0
  195.1714  184.9404  159.9278 C   0  0  0  0  0  0  0  0  0  0  0  0
  194.5035  186.0034  160.5651 N   0  0  0  0  0  0  0  0  0  0  0  0
  195.1710  186.9704  161.4277 C   0  0  1  0  0  0  0  0  0  0  0  0
  196.2254  187.8228  160.6924 C   0  0  2  0  0  0  0  0  0  0  0  0
  196.5547  184.7257  160.1418 C   0  0  0  0  0  0  0  0  0  0  0  0
  197.2192  183.6774  159.4977 C   0  0  0  0  0  0  0  0  0  0  0  0
  196.9951  182.1135  154.1930 C   0  0  0  0  0  0  0  0  0  0  0  0
  197.1265  183.1677  153.2687 C   0  0  0  0  0  0  0  0  0  0  0  0
  197.3350  184.4291  153.7063 N   0  0  0  0  0  0  0  0  0  0  0  0
  197.0145  182.9193  151.8843 C   0  0  0  0  0  0  0  0  0  0  0  0
  196.7750  181.6086  151.4273 C   0  0  0  0  0  0  0  0  0  0  0  0
  196.6496  180.5481  152.3468 C   0  0  0  0  0  0  0  0  0  0  0  0
  196.7489  180.7891  153.7287 C   0  0  0  0  0  0  0  0  0  0  0  0
  200.2170  187.7782  155.3951 C   0  0  1  0  0  0  0  0  0  0  0  0
  199.5900  187.3114  154.1620 N   0  0  0  0  0  0  0  0  0  0  0  0
  199.1614  188.4095  153.3103 C   0  0  2  0  0  0  0  0  0  0  0  0
  200.5067  186.4502  153.4371 C   0  0  2  0  0  0  0  0  0  0  0  0
  200.4559  190.3662  156.1673 H   0  0  0  0  0  0  0  0  0  0  0  0
  196.3561  188.2850  158.1515 H   0  0  0  0  0  0  0  0  0  0  0  0
  197.0239  190.6070  158.7191 H   0  0  0  0  0  0  0  0  0  0  0  0
  198.4748  185.8173  157.2489 H   0  0  0  0  0  0  0  0  0  0  0  0
  196.8220  186.2852  157.3445 H   0  0  0  0  0  0  0  0  0  0  0  0
  197.6581  186.6970  154.6887 H   0  0  0  0  0  0  0  0  0  0  0  0
  196.3983  180.6045  156.3937 H   0  0  0  0  0  0  0  0  0  0  0  0
  197.1331  180.7964  158.5204 H   0  0  0  0  0  0  0  0  0  0  0  0
  198.3397  181.9482  157.9715 H   0  0  0  0  0  0  0  0  0  0  0  0
  194.5872  182.3476  157.7464 H   0  0  0  0  0  0  0  0  0  0  0  0
  193.4107  184.2345  158.8693 H   0  0  0  0  0  0  0  0  0  0  0  0
  193.5760  186.2039  160.2342 H   0  0  0  0  0  0  0  0  0  0  0  0
  194.4016  187.6420  161.7638 H   0  0  0  0  0  0  0  0  0  0  0  0
  195.5236  186.4690  162.3252 H   0  0  0  0  0  0  0  0  0  0  0  0
  196.7039  188.5094  161.4188 H   0  0  0  0  0  0  0  0  0  0  0  0
  195.7450  188.4479  159.9537 H   0  0  0  0  0  0  0  0  0  0  0  0
  196.9893  187.1994  160.2532 H   0  0  0  0  0  0  0  0  0  0  0  0
  197.0790  185.3504  160.8394 H   0  0  0  0  0  0  0  0  0  0  0  0
  198.2733  183.5170  159.6629 H   0  0  0  0  0  0  0  0  0  0  0  0
  197.1022  183.7272  151.1760 H   0  0  0  0  0  0  0  0  0  0  0  0
  196.6922  181.4166  150.3653 H   0  0  0  0  0  0  0  0  0  0  0  0
  196.4810  179.5387  151.9883 H   0  0  0  0  0  0  0  0  0  0  0  0
  196.6649  179.9681  154.4211 H   0  0  0  0  0  0  0  0  0  0  0  0
  201.0988  188.3951  155.1685 H   0  0  0  0  0  0  0  0  0  0  0  0
  200.5900  186.9198  155.9562 H   0  0  0  0  0  0  0  0  0  0  0  0
  198.6966  188.0299  152.4084 H   0  0  0  0  0  0  0  0  0  0  0  0
  199.9726  189.0729  153.0134 H   0  0  0  0  0  0  0  0  0  0  0  0
  198.4110  189.0116  153.8093 H   0  0  0  0  0  0  0  0  0  0  0  0
  200.0315  186.0482  152.5479 H   0  0  0  0  0  0  0  0  0  0  0  0
  200.7865  185.6049  154.0578 H   0  0  0  0  0  0  0  0  0  0  0  0
  201.4187  186.9638  153.1367 H   0  0  0  0  0  0  0  0  0  0  0  0
  197.3890  185.1908  153.0216 H   0  0  0  0  0  0  0  0  0  0  0  0
  1  2  1  0
  2  3  2  0
  2  7  1  0
  3  4  1  0
  3 35  1  0
  4  5  2  0
  4 31  1  0
  5  6  1  0
  5  8  1  0
  6  7  2  0
  6 36  1  0
  7 37  1  0
  8  9  1  0
  8 38  1  1
  8 39  1  0
  9 10  1  0
  9 40  1  0
 10 11  1  0
 10 26  2  0
 11 12  2  0
 12 13  1  0
 12 24  1  0
 13 14  1  0
 13 41  1  0
 14 15  1  0
 14 42  1  1
 14 43  1  0
 15 16  1  0
 15 23  2  0
 16 17  2  0
 16 44  1  0
 17 18  1  0
 17 45  1  0
 18 19  1  0
 18 22  2  0
 19 20  1  0
 19 46  1  0
 20 21  1  0
 20 47  1  1
 20 48  1  0
 21 49  1  1
 21 50  1  0
 21 51  1  0
 22 23  1  0
 22 52  1  0
 23 53  1  0
 24 25  1  0
 24 30  2  0
 25 26  1  0
 25 27  2  0
 26 66  1  0
 27 28  1  0
 27 54  1  0
 28 29  2  0
 28 55  1  0
 29 30  1  0
 29 56  1  0
 30 57  1  0
 31 32  1  0
 31 58  1  6
 31 59  1  0
 32 33  1  0
 32 34  1  0
 33 60  1  6
 33 61  1  0
 33 62  1  0
 34 63  1  6
 34 64  1  0
 34 65  1  0
M  CHG  1  26   1
M  END
>  <s_epik_cmdline>  (216) 
J2VwaWtfcHl0aG9uJywgJy1waCcsICc3LjAwMDAwMCcsICctcGh0JywgJzIuMDAwMDAwJywgJy1tcycsICcxNicsICctdG4nLCAnOCcsICctbWEnLCAnMjAwJywgJy1pbWFlJywgJzxpbmZpbGUubWFlPicsICctb21hZScsICc8b3V0ZmlsZS5tYWU+Jw==

>  <s_epik_input>  (216) 
RmMxW2NIXWMoW0NIMl1OKFtDSDNdKVtDSDNdKWMoW2NIXVtjSF0xKVtDSDJdW05IXWMobmMoYzIzKVtjSF1bY0hdW2NIXVtjSF0zKW5jMltOSF1bQ0gyXWM0W2NIXVtjSF1jKFtjSF1bY0hdNClbTkhdW0NIMl1bQ0gzXQ==

>  <s_i_glide_gridfile>  (216) 
ATP-Grid

>  <s_lp_Force_Field>  (216) 
OPLS_2005

>  <s_lp_Variant>  (216) 
m_282030aaa____21903596____22360182____21974936-3

>  <s_lp_label>  (216) 
2064_sdstereoexpander_1_neutralizer_1_epik_3_stereoizer_1

>  <s_m_source_file>  (216) 
ATP-VSW-LIGPREP-003-in.maegz

>  <s_sd_BIOSOLVEIT.INFINISEE\_QUERY\_NAME>  (216) 
Ref-Lig

>  <s_sd_BIOSOLVEIT.INFINISEE\_QUERY\_SMILES>  (216) 
S(c1nc2c(cc1C[NH2+]Cc3ccc(cc3)C[NH+](C)C)cccc2)Cc4ccccc4

>  <s_sd_BIOSOLVEIT.INFINISEE\_REACTION\_NAME>  (216) 
m_282030aaa

>  <s_sd_BIOSOLVEIT.INFINISEE\_REAGENT1\_SMILES>  (216) 
[R1*]NCc1ccc(NCC)cc1

>  <s_sd_BIOSOLVEIT.INFINISEE\_REAGENT2\_SMILES>  (216) 
[R2*]c1nc([R1*])c2c(n1)cccc2

>  <s_sd_BIOSOLVEIT.INFINISEE\_REAGENT3\_SMILES>  (216) 
[R2*]NCc1c(cc(F)cc1)CN(C)C

>  <s_sd_BIOSOLVEIT.INFINISEE\_SPACE>  (216) 
REALSpace_44bn_2023-08

>  <s_vsw_compound_code>  (216) 
66019

>  <s_vsw_variant>  (216) 
66019-3

>  <r_epik_Charging_Adjusted_Penalty>  (216) 
1.63949868219854

>  <r_epik_Ionization_Penalty>  (216) 
1.6293

>  <r_epik_Ionization_Penalty_Charging>  (216) 
0.0167

>  <r_epik_Ionization_Penalty_Neutral>  (216) 
1.6126

>  <r_epik_State_Penalty>  (216) 
1.6228

>  <r_i_docking_score>  (216) 
-2.6490471456367399

>  <r_i_glide_ecoul>  (216) 
-3.8125243186950701

>  <r_i_glide_eff_state_penalty>  (216) 
1.6228

>  <r_i_glide_einternal>  (216) 
2.6328284740447998

>  <r_i_glide_emodel>  (216) 
-53.912558232027102

>  <r_i_glide_energy>  (216) 
-40.566319942474401

>  <r_i_glide_erotb>  (216) 
0.76213172833959297

>  <r_i_glide_esite>  (216) 
-0.108142317851203

>  <r_i_glide_evdw>  (216) 
-36.753795623779297

>  <r_i_glide_gscore>  (216) 
-4.2718471456367402

>  <r_i_glide_hbond>  (216) 
-0.18237485922407101

>  <r_i_glide_ligand_efficiency>  (216) 
-0.077913151342257195

>  <r_i_glide_ligand_efficiency_ln>  (216) 
-0.58524881772677295

>  <r_i_glide_ligand_efficiency_sa>  (216) 
-0.25240836426640101

>  <r_i_glide_lipo>  (216) 
-1.9564892174151201

>  <r_i_glide_metal>  (216) 
-0

>  <r_i_glide_rewards>  (216) 
-0.37740405049272002

>  <r_lp_Energy>  (216) 
16.072323000000001

>  <r_qp_ACxDN^.5/SA>  (216) 
0.0149412

>  <r_qp_CIQPlogS>  (216) 
-6.2370000000000001

>  <r_qp_EA(eV)>  (216) 
0.47399999999999998

>  <r_qp_FISA>  (216) 
44.343000000000004

>  <r_qp_FOSA>  (216) 
318.92399999999998

>  <r_qp_IP(eV)>  (216) 
7.8810000000000002

>  <r_qp_Jm>  (216) 
0.34803094254339301

>  <r_qp_PISA>  (216) 
312.78699999999998

>  <r_qp_PSA>  (216) 
55.417999999999999

>  <r_qp_PercentHumanOralAbsorption>  (216) 
100

>  <r_qp_QPPCaco>  (216) 
938.19399999999996

>  <r_qp_QPPMDCK>  (216) 
653.22500000000002

>  <r_qp_QPlogBB>  (216) 
0.0060000000000000001

>  <r_qp_QPlogHERG>  (216) 
-6.0350000000000001

>  <r_qp_QPlogKhsa>  (216) 
0.66700000000000004

>  <r_qp_QPlogKp>  (216) 
-2.3370000000000002

>  <r_qp_QPlogPC16>  (216) 
13.968999999999999

>  <r_qp_QPlogPo/w>  (216) 
4.6980000000000004

>  <r_qp_QPlogPoct>  (216) 
22.488

>  <r_qp_QPlogPw>  (216) 
11.927

>  <r_qp_QPlogS>  (216) 
-3.782

>  <r_qp_QPpolrz>  (216) 
45.344999999999999

>  <r_qp_SASA>  (216) 
695.54700000000003

>  <r_qp_SAamideO>  (216) 
0

>  <r_qp_SAfluorine>  (216) 
19.492999999999999

>  <r_qp_WPSA>  (216) 
19.492999999999999

>  <r_qp_accptHB>  (216) 
6

>  <r_qp_dip^2/V>  (216) 
0.001851

>  <r_qp_dipole>  (216) 
1.5940000000000001

>  <r_qp_donorHB>  (216) 
3

>  <r_qp_glob>  (216) 
0.85876390000000002

>  <r_qp_mol_MW>  (216) 
458.57999999999998

>  <r_qp_volume>  (216) 
1372.6279999999999

>  <r_sd_BIOSOLVEIT.INFINISEE\_FTREES\_SIMILARITY>  (216) 
0.90100000000000002

>  <r_sd_BIOSOLVEIT.LOGP>  (216) 
4.0693999999999999

>  <r_sd_BIOSOLVEIT.MOLECULAR\_WEIGHT>  (216) 
459.58999999999997

>  <r_sd_BIOSOLVEIT.TPSA>  (216) 
66.310000000000002

>  <i_epik_Tot_Q>  (216) 
1

>  <i_epik_Tot_abs_Q>  (216) 
1

>  <i_f3d_flags>  (216) 
0

>  <i_i_glide_confnum>  (216) 
4

>  <i_i_glide_lignum>  (216) 
764

>  <i_i_glide_posenum>  (216) 
3

>  <i_i_glide_rotatable_bonds>  (216) 
10

>  <i_lp_mmshare_version>  (216) 
65135

>  <i_m_ct_format>  (216) 
2

>  <i_m_source_file_index>  (216) 
2064

>  <i_qp_#NandO>  (216) 
6

>  <i_qp_#acid>  (216) 
0

>  <i_qp_#amide>  (216) 
0

>  <i_qp_#amidine>  (216) 
0

>  <i_qp_#amine>  (216) 
1

>  <i_qp_#in34>  (216) 
0

>  <i_qp_#in56>  (216) 
22

>  <i_qp_#metab>  (216) 
7

>  <i_qp_#nonHatm>  (216) 
34

>  <i_qp_#noncon>  (216) 
0

>  <i_qp_#ringatoms>  (216) 
22

>  <i_qp_#rotor>  (216) 
10

>  <i_qp_#rtvFG>  (216) 
0

>  <i_qp_#stars>  (216) 
1

>  <i_qp_CNS>  (216) 
1

>  <i_qp_HumanOralAbsorption>  (216) 
3

>  <i_qp_RuleOfFive>  (216) 
0

>  <i_qp_RuleOfThree>  (216) 
1

>  <i_sd_BIOSOLVEIT.INFINISEE\_REAGENT1\_NAME>  (216) 
21903596

>  <i_sd_BIOSOLVEIT.INFINISEE\_REAGENT2\_NAME>  (216) 
22360182

>  <i_sd_BIOSOLVEIT.INFINISEE\_REAGENT3\_NAME>  (216) 
21974936

>  <i_sd_BIOSOLVEIT.INFINISEE\_RESULT\_RANK>  (216) 
94993

>  <i_sd_version>  (216) 
0

>  <b_lp_Chiralities_Consistent>  (216) 
1

>  <b_sd_chiral_flag>  (216) 
0

>  <canonical_id>  (216) 
ATP-HTVS-22634BBBCB97

>  <compound_code>  (216) 
66019

>  <title>  (216) 
m_282030aaa____21903596____22360182____21974936

>  <variant>  (216) 
66019-3

>  <source_file>  (216) 
运行/运行/ATP-VSW/ATP-VSW-DOCK_HTVS_1-003_lib/ATP-VSW-DOCK_HTVS_1-003_lib.mae

>  <canonical_smiles>  (216) 
CCNc1ccc(CNc2nc(NCc3ccc(F)cc3CN(C)C)[nH+]c3ccccc23)cc1

>  <scaffold>  (216) 
c1ccc(CNc2nc(NCc3ccccc3)c3ccccc3[nH+]2)cc1

>  <molecular_formula>  (216) 
C27H32FN6+

$$$$
ATP-HTVS-2275AB855C30
     RDKit          3D

 56 59  0  0  0  0  0  0  0  0999 V2000
  196.1758  187.4715  160.8508 F   0  0  0  0  0  0  0  0  0  0  0  0
  196.0356  186.2683  160.2438 C   0  0  0  0  0  0  0  0  0  0  0  0
  197.1597  185.5935  159.7338 C   0  0  0  0  0  0  0  0  0  0  0  0
  197.0124  184.3250  159.1314 C   0  0  0  0  0  0  0  0  0  0  0  0
  195.7360  183.7342  159.0118 C   0  0  0  0  0  0  0  0  0  0  0  0
  194.6101  184.4320  159.5173 C   0  0  0  0  0  0  0  0  0  0  0  0
  194.7649  185.6862  160.1363 C   0  0  0  0  0  0  0  0  0  0  0  0
  195.6069  182.3636  158.3528 C   0  0  2  0  0  0  0  0  0  0  0  0
  195.9487  182.5135  156.9191 N   0  0  1  0  0  0  0  0  0  0  0  0
  196.8235  181.4570  156.3612 C   0  0  1  0  0  0  0  0  0  0  0  0
  197.0356  181.7919  154.9496 C   0  0  0  0  0  0  0  0  0  0  0  0
  197.1799  182.1373  153.7882 C   0  0  0  0  0  0  0  0  0  0  0  0
  197.3106  182.6711  152.4473 C   0  0  0  0  0  0  0  0  0  0  0  0
  197.9834  183.8913  152.1544 C   0  0  0  0  0  0  0  0  0  0  0  0
  198.6204  184.6753  153.1585 N   0  0  0  0  0  0  0  0  0  0  0  0
  198.0259  185.3117  154.1838 C   0  0  0  0  0  0  0  0  0  0  0  0
  196.8606  185.1255  154.5346 O   0  0  0  0  0  0  0  0  0  0  0  0
  198.9149  186.2219  154.9769 C   0  0  0  0  0  0  0  0  0  0  0  0
  198.6597  186.4244  156.3522 C   0  0  0  0  0  0  0  0  0  0  0  0
  199.4645  187.2979  157.1070 C   0  0  0  0  0  0  0  0  0  0  0  0
  200.5281  187.9830  156.4878 C   0  0  0  0  0  0  0  0  0  0  0  0
  201.3143  188.8309  157.2106 O   0  0  0  0  0  0  0  0  0  0  0  0
  200.7814  187.7977  155.1164 C   0  0  0  0  0  0  0  0  0  0  0  0
  199.9753  186.9252  154.3605 C   0  0  0  0  0  0  0  0  0  0  0  0
  198.0856  184.2860  150.7970 C   0  0  0  0  0  0  0  0  0  0  0  0
  197.4760  183.4717  149.7988 C   0  0  0  0  0  0  0  0  0  0  0  0
  196.8107  182.3395  150.1067 N   0  0  0  0  0  0  0  0  0  0  0  0
  196.7397  181.9487  151.3877 C   0  0  0  0  0  0  0  0  0  0  0  0
  197.5730  183.8635  148.4488 C   0  0  0  0  0  0  0  0  0  0  0  0
  198.2614  185.0285  148.0719 C   0  0  0  0  0  0  0  0  0  0  0  0
  198.8738  185.8183  149.0567 C   0  0  0  0  0  0  0  0  0  0  0  0
  198.7744  185.4620  150.4136 C   0  0  0  0  0  0  0  0  0  0  0  0
  194.2146  181.7288  158.5069 C   0  0  2  0  0  0  0  0  0  0  0  0
  195.0686  182.5530  156.3975 H   0  0  0  0  0  0  0  0  0  0  0  0
  198.1369  186.0415  159.8273 H   0  0  0  0  0  0  0  0  0  0  0  0
  197.8909  183.8137  158.7588 H   0  0  0  0  0  0  0  0  0  0  0  0
  193.6035  184.0542  159.4550 H   0  0  0  0  0  0  0  0  0  0  0  0
  193.8962  186.1955  160.5255 H   0  0  0  0  0  0  0  0  0  0  0  0
  196.3368  181.7115  158.8399 H   0  0  0  0  0  0  0  0  0  0  0  0
  197.7825  181.3996  156.8823 H   0  0  0  0  0  0  0  0  0  0  0  0
  196.3394  180.4870  156.3608 H   0  0  0  0  0  0  0  0  0  0  0  0
  199.5676  184.9560  152.9549 H   0  0  0  0  0  0  0  0  0  0  0  0
  197.8397  185.9116  156.8315 H   0  0  0  0  0  0  0  0  0  0  0  0
  199.2551  187.4402  158.1569 H   0  0  0  0  0  0  0  0  0  0  0  0
  201.0590  188.8961  158.1173 H   0  0  0  0  0  0  0  0  0  0  0  0
  201.5921  188.3298  154.6391 H   0  0  0  0  0  0  0  0  0  0  0  0
  200.1826  186.8179  153.3052 H   0  0  0  0  0  0  0  0  0  0  0  0
  196.2050  181.0266  151.5708 H   0  0  0  0  0  0  0  0  0  0  0  0
  197.1187  183.2540  147.6836 H   0  0  0  0  0  0  0  0  0  0  0  0
  198.3226  185.3113  147.0289 H   0  0  0  0  0  0  0  0  0  0  0  0
  199.4192  186.7014  148.7652 H   0  0  0  0  0  0  0  0  0  0  0  0
  199.2402  186.1120  151.1375 H   0  0  0  0  0  0  0  0  0  0  0  0
  193.9742  181.6211  159.5534 H   0  0  0  0  0  0  0  0  0  0  0  0
  194.1462  180.7274  158.0753 H   0  0  0  0  0  0  0  0  0  0  0  0
  193.4391  182.3199  158.0193 H   0  0  0  0  0  0  0  0  0  0  0  0
  196.4190  183.3984  156.7800 H   0  0  0  0  0  0  0  0  0  0  0  0
  1  2  1  0
  2  3  1  0
  2  7  2  0
  3  4  2  0
  3 35  1  0
  4  5  1  0
  4 36  1  0
  5  6  2  0
  5  8  1  0
  6  7  1  0
  6 37  1  0
  7 38  1  0
  8  9  1  0
  8 33  1  0
  8 39  1  1
  9 10  1  0
  9 34  1  6
  9 56  1  0
 10 11  1  0
 10 40  1  1
 10 41  1  0
 11 12  3  0
 12 13  1  0
 13 14  2  0
 13 28  1  0
 14 15  1  0
 14 25  1  0
 15 16  1  0
 15 42  1  0
 16 17  2  0
 16 18  1  0
 18 19  1  0
 18 24  2  0
 19 20  2  0
 19 43  1  0
 20 21  1  0
 20 44  1  0
 21 22  1  0
 21 23  2  0
 22 45  1  0
 23 24  1  0
 23 46  1  0
 24 47  1  0
 25 26  1  0
 25 32  2  0
 26 27  1  0
 26 29  2  0
 27 28  2  0
 28 48  1  0
 29 30  1  0
 29 49  1  0
 30 31  2  0
 30 50  1  0
 31 32  1  0
 31 51  1  0
 32 52  1  0
 33 53  1  1
 33 54  1  0
 33 55  1  0
M  CHG  1   9   1
M  END
>  <s_epik_cmdline>  (217) 
J2VwaWtfcHl0aG9uJywgJy1waCcsICc3LjAwMDAwMCcsICctcGh0JywgJzIuMDAwMDAwJywgJy1tcycsICcxNicsICctdG4nLCAnOCcsICctbWEnLCAnMjAwJywgJy1pbWFlJywgJzxpbmZpbGUubWFlPicsICctb21hZScsICc8b3V0ZmlsZS5tYWU+Jw==

>  <s_epik_input>  (217) 
RmMxW2NIXVtjSF1jKFtjSF1bY0hdMSlbQ0BASF0oW0NIM10pW05IXVtDSDJdQyNDYyhbY0hdbmMoYzIzKVtjSF1bY0hdW2NIXVtjSF0zKWMyW05IXUMoPU8pYzRbY0hdW2NIXWMoW09IXSlbY0hdW2NIXTQ=

>  <s_i_glide_gridfile>  (217) 
ATP-Grid

>  <s_lp_Force_Field>  (217) 
OPLS_2005

>  <s_lp_Variant>  (217) 
rxn503b____EMOL490868____EMOL13728749____EMOL317506007-3

>  <s_lp_label>  (217) 
2593_sdstereoexpander_1_neutralizer_1_epik_2_stereoizer_1

>  <s_m_source_file>  (217) 
ATP-VSW-LIGPREP-002-in.maegz

>  <s_sd_BIOSOLVEIT.INFINISEE\_QUERY\_NAME>  (217) 
Ref-Lig

>  <s_sd_BIOSOLVEIT.INFINISEE\_QUERY\_SMILES>  (217) 
S(c1nc2c(cc1C[NH2+]Cc3ccc(cc3)C[NH+](C)C)cccc2)Cc4ccccc4

>  <s_sd_BIOSOLVEIT.INFINISEE\_REACTION\_NAME>  (217) 
rxn503b

>  <s_sd_BIOSOLVEIT.INFINISEE\_REAGENT1\_NAME>  (217) 
EMOL490868

>  <s_sd_BIOSOLVEIT.INFINISEE\_REAGENT1\_SMILES>  (217) 
O=C(O)c1ccc(O)cc1

>  <s_sd_BIOSOLVEIT.INFINISEE\_REAGENT2\_NAME>  (217) 
EMOL13728749

>  <s_sd_BIOSOLVEIT.INFINISEE\_REAGENT2\_SMILES>  (217) 
Brc1c(N)c2c(nc1)cccc2

>  <s_sd_BIOSOLVEIT.INFINISEE\_REAGENT3\_NAME>  (217) 
EMOL317506007

>  <s_sd_BIOSOLVEIT.INFINISEE\_REAGENT3\_SMILES>  (217) 
Fc1ccc(cc1)C(NCC#C)C

>  <s_sd_BIOSOLVEIT.INFINISEE\_SPACE>  (217) 
eXplore_7tr_2022-12

>  <s_vsw_compound_code>  (217) 
82946

>  <s_vsw_variant>  (217) 
82946-3

>  <r_epik_Charging_Adjusted_Penalty>  (217) 
1.1786467982534901

>  <r_epik_Ionization_Penalty>  (217) 
0.60009999999999997

>  <r_epik_Ionization_Penalty_Charging>  (217) 
0.57879999999999998

>  <r_epik_Ionization_Penalty_Neutral>  (217) 
0.021299999999999999

>  <r_epik_State_Penalty>  (217) 
0.5998

>  <r_i_docking_score>  (217) 
-4.5506811560874496

>  <r_i_glide_ecoul>  (217) 
-8.34564304351807

>  <r_i_glide_eff_state_penalty>  (217) 
0.5998

>  <r_i_glide_einternal>  (217) 
3.92536568641663

>  <r_i_glide_emodel>  (217) 
-59.728621563076501

>  <r_i_glide_energy>  (217) 
-42.1096353530884

>  <r_i_glide_erotb>  (217) 
0.72034826401853302

>  <r_i_glide_esite>  (217) 
-0.079805614803387298

>  <r_i_glide_evdw>  (217) 
-33.763992309570298

>  <r_i_glide_gscore>  (217) 
-5.1504811560874497

>  <r_i_glide_hbond>  (217) 
-0.20000000000000001

>  <r_i_glide_ligand_efficiency>  (217) 
-0.137899428972347

>  <r_i_glide_ligand_efficiency_ln>  (217) 
-1.01204792694784

>  <r_i_glide_ligand_efficiency_sa>  (217) 
-0.44231715200010202

>  <r_i_glide_lipo>  (217) 
-1.8422542137067901

>  <r_i_glide_metal>  (217) 
-0

>  <r_i_glide_rewards>  (217) 
-0.80872351958958499

>  <r_lp_Energy>  (217) 
28.525964999999999

>  <r_lp_tautomer_probability>  (217) 
0.999999999997365

>  <r_qp_ACxDN^.5/SA>  (217) 
0.013930100000000001

>  <r_qp_CIQPlogS>  (217) 
-5.9480000000000004

>  <r_qp_EA(eV)>  (217) 
1.208

>  <r_qp_FISA>  (217) 
108.52500000000001

>  <r_qp_FOSA>  (217) 
123.68899999999999

>  <r_qp_IP(eV)>  (217) 
8.8360000000000003

>  <r_qp_Jm>  (217) 
0.0060114687686122397

>  <r_qp_PISA>  (217) 
440.87700000000001

>  <r_qp_PSA>  (217) 
80.543000000000006

>  <r_qp_PercentHumanOralAbsorption>  (217) 
94.786000000000001

>  <r_qp_QPPCaco>  (217) 
231.02600000000001

>  <r_qp_QPPMDCK>  (217) 
190.41399999999999

>  <r_qp_QPlogBB>  (217) 
-0.48599999999999999

>  <r_qp_QPlogHERG>  (217) 
-7.2300000000000004

>  <r_qp_QPlogKhsa>  (217) 
0.68400000000000005

>  <r_qp_QPlogKp>  (217) 
-3.2610000000000001

>  <r_qp_QPlogPC16>  (217) 
14.948

>  <r_qp_QPlogPo/w>  (217) 
4.3609999999999998

>  <r_qp_QPlogPoct>  (217) 
23.803999999999998

>  <r_qp_QPlogPw>  (217) 
13.484

>  <r_qp_QPlogS>  (217) 
-4.6029999999999998

>  <r_qp_QPpolrz>  (217) 
46.595999999999997

>  <r_qp_SASA>  (217) 
714.94500000000005

>  <r_qp_SAamideO>  (217) 
0

>  <r_qp_SAfluorine>  (217) 
41.853999999999999

>  <r_qp_WPSA>  (217) 
41.853999999999999

>  <r_qp_accptHB>  (217) 
5.75

>  <r_qp_dip^2/V>  (217) 
0.036273699999999999

>  <r_qp_dipole>  (217) 
6.9749999999999996

>  <r_qp_donorHB>  (217) 
3

>  <r_qp_glob>  (217) 
0.82268010000000003

>  <r_qp_mol_MW>  (217) 
439.488

>  <r_qp_volume>  (217) 
1341.2449999999999

>  <r_sd_BIOSOLVEIT.INFINISEE\_FTREES\_SIMILARITY>  (217) 
0.91100000000000003

>  <r_sd_BIOSOLVEIT.LOGP>  (217) 
4.0079000000000002

>  <r_sd_BIOSOLVEIT.MOLECULAR\_WEIGHT>  (217) 
440.49599999999998

>  <r_sd_BIOSOLVEIT.TPSA>  (217) 
78.829999999999998

>  <i_epik_Tot_Q>  (217) 
1

>  <i_epik_Tot_abs_Q>  (217) 
1

>  <i_f3d_flags>  (217) 
0

>  <i_i_glide_confnum>  (217) 
2

>  <i_i_glide_lignum>  (217) 
1174

>  <i_i_glide_posenum>  (217) 
11

>  <i_i_glide_rotatable_bonds>  (217) 
9

>  <i_lp_mmshare_version>  (217) 
65135

>  <i_m_ct_format>  (217) 
2

>  <i_m_source_file_index>  (217) 
2593

>  <i_qp_#NandO>  (217) 
5

>  <i_qp_#acid>  (217) 
0

>  <i_qp_#amide>  (217) 
0

>  <i_qp_#amidine>  (217) 
0

>  <i_qp_#amine>  (217) 
1

>  <i_qp_#in34>  (217) 
0

>  <i_qp_#in56>  (217) 
22

>  <i_qp_#metab>  (217) 
5

>  <i_qp_#nonHatm>  (217) 
33

>  <i_qp_#noncon>  (217) 
0

>  <i_qp_#ringatoms>  (217) 
22

>  <i_qp_#rotor>  (217) 
8

>  <i_qp_#rtvFG>  (217) 
0

>  <i_qp_#stars>  (217) 
0

>  <i_qp_CNS>  (217) 
0

>  <i_qp_HumanOralAbsorption>  (217) 
3

>  <i_qp_RuleOfFive>  (217) 
0

>  <i_qp_RuleOfThree>  (217) 
0

>  <i_sd_BIOSOLVEIT.INFINISEE\_RESULT\_RANK>  (217) 
40725

>  <i_sd_version>  (217) 
0

>  <b_lp_Chiralities_Consistent>  (217) 
1

>  <b_sd_chiral_flag>  (217) 
0

>  <canonical_id>  (217) 
ATP-HTVS-2275AB855C30

>  <compound_code>  (217) 
82946

>  <title>  (217) 
rxn503b____EMOL490868____EMOL13728749____EMOL317506007

>  <variant>  (217) 
82946-3

>  <source_file>  (217) 
运行/运行/ATP-VSW/ATP-VSW-DOCK_HTVS_1-002_lib.maegz

>  <canonical_smiles>  (217) 
C[C@@H]([NH2+]CC#Cc1cnc2ccccc2c1NC(=O)c1ccc(O)cc1)c1ccc(F)cc1

>  <scaffold>  (217) 
O=C(Nc1c(C#CC[NH2+]Cc2ccccc2)cnc2ccccc12)c1ccccc1

>  <molecular_formula>  (217) 
C27H23FN3O2+

$$$$
ATP-HTVS-22C0C64F65E9
     RDKit          3D

 62 65  0  0  0  0  0  0  0  0999 V2000
  195.7850  186.9781  161.4433 O   0  0  0  0  0  0  0  0  0  0  0  0
  196.4494  187.1528  160.4226 C   0  0  0  0  0  0  0  0  0  0  0  0
  197.0003  186.2212  159.6129 N   0  0  0  0  0  0  0  0  0  0  0  0
  197.6665  186.7974  158.4226 C   0  0  2  0  0  0  0  0  0  0  0  0
  197.5388  188.2768  158.6913 C   0  0  0  0  0  0  0  0  0  0  0  0
  196.8343  188.4587  159.8650 C   0  0  0  0  0  0  0  0  0  0  0  0
  196.5855  189.7306  160.4019 C   0  0  0  0  0  0  0  0  0  0  0  0
  197.0788  190.8428  159.6843 C   0  0  0  0  0  0  0  0  0  0  0  0
  197.7875  190.6644  158.4699 C   0  0  0  0  0  0  0  0  0  0  0  0
  198.0322  189.3685  157.9569 C   0  0  0  0  0  0  0  0  0  0  0  0
  196.9162  186.4056  157.1279 C   0  0  1  0  0  0  0  0  0  0  0  0
  197.1646  185.0274  156.7038 N   0  0  0  0  0  0  0  0  0  0  0  0
  198.3419  184.5114  156.3176 C   0  0  0  0  0  0  0  0  0  0  0  0
  199.4104  185.1206  156.3959 O   0  0  0  0  0  0  0  0  0  0  0  0
  198.3009  183.1002  155.8069 C   0  0  0  0  0  0  0  0  0  0  0  0
  199.4407  182.2670  155.9175 C   0  0  0  0  0  0  0  0  0  0  0  0
  199.4342  180.9703  155.3544 C   0  0  0  0  0  0  0  0  0  0  0  0
  198.2829  180.5015  154.6869 C   0  0  0  0  0  0  0  0  0  0  0  0
  197.1448  181.3198  154.5851 C   0  0  0  0  0  0  0  0  0  0  0  0
  197.1596  182.6127  155.1364 C   0  0  0  0  0  0  0  0  0  0  0  0
  200.6591  180.0733  155.4635 C   0  0  1  0  0  0  0  0  0  0  0  0
  200.3516  178.7882  156.1534 N   0  0  1  0  0  0  0  0  0  0  0  0
  201.4458  177.7959  155.9869 C   0  0  1  0  0  0  0  0  0  0  0  0
  201.0959  176.3795  156.4874 C   0  0  2  0  0  0  0  0  0  0  0  0
  199.9471  178.9977  157.5637 C   0  0  2  0  0  0  0  0  0  0  0  0
  197.0616  184.7805  159.8693 C   0  0  1  0  0  0  0  0  0  0  0  0
  195.8449  184.0034  159.4142 C   0  0  0  0  0  0  0  0  0  0  0  0
  194.5463  184.5475  159.5492 C   0  0  0  0  0  0  0  0  0  0  0  0
  193.4334  183.8306  159.0911 C   0  0  0  0  0  0  0  0  0  0  0  0
  193.6026  182.5564  158.5329 C   0  0  0  0  0  0  0  0  0  0  0  0
  194.8879  182.0093  158.3681 C   0  0  0  0  0  0  0  0  0  0  0  0
  196.0095  182.7256  158.8290 C   0  0  0  0  0  0  0  0  0  0  0  0
  198.7277  186.5511  158.4036 H   0  0  0  0  0  0  0  0  0  0  0  0
  196.0304  189.8433  161.3210 H   0  0  0  0  0  0  0  0  0  0  0  0
  196.8908  191.8373  160.0531 H   0  0  0  0  0  0  0  0  0  0  0  0
  198.1431  191.5304  157.9292 H   0  0  0  0  0  0  0  0  0  0  0  0
  198.5825  189.2240  157.0386 H   0  0  0  0  0  0  0  0  0  0  0  0
  195.8454  186.5789  157.2708 H   0  0  0  0  0  0  0  0  0  0  0  0
  197.2259  187.0480  156.3018 H   0  0  0  0  0  0  0  0  0  0  0  0
  196.3637  184.4043  156.6763 H   0  0  0  0  0  0  0  0  0  0  0  0
  200.3262  182.6419  156.4102 H   0  0  0  0  0  0  0  0  0  0  0  0
  198.2563  179.5125  154.2515 H   0  0  0  0  0  0  0  0  0  0  0  0
  196.2618  180.9698  154.0737 H   0  0  0  0  0  0  0  0  0  0  0  0
  196.2915  183.2382  155.0085 H   0  0  0  0  0  0  0  0  0  0  0  0
  201.0336  179.8959  154.4514 H   0  0  0  0  0  0  0  0  0  0  0  0
  201.4558  180.5951  155.9986 H   0  0  0  0  0  0  0  0  0  0  0  0
  201.6983  177.7167  154.9286 H   0  0  0  0  0  0  0  0  0  0  0  0
  202.3366  178.1820  156.4750 H   0  0  0  0  0  0  0  0  0  0  0  0
  201.9278  175.6902  156.3254 H   0  0  0  0  0  0  0  0  0  0  0  0
  200.2317  175.9899  155.9481 H   0  0  0  0  0  0  0  0  0  0  0  0
  200.8741  176.3419  157.5546 H   0  0  0  0  0  0  0  0  0  0  0  0
  200.7871  179.4008  158.1294 H   0  0  0  0  0  0  0  0  0  0  0  0
  199.6098  178.0824  158.0478 H   0  0  0  0  0  0  0  0  0  0  0  0
  199.1105  179.6942  157.6248 H   0  0  0  0  0  0  0  0  0  0  0  0
  197.9671  184.3681  159.4248 H   0  0  0  0  0  0  0  0  0  0  0  0
  197.1387  184.5921  160.9355 H   0  0  0  0  0  0  0  0  0  0  0  0
  194.3589  185.5301  159.9773 H   0  0  0  0  0  0  0  0  0  0  0  0
  192.4450  184.2703  159.1786 H   0  0  0  0  0  0  0  0  0  0  0  0
  192.7591  182.0172  158.1468 H   0  0  0  0  0  0  0  0  0  0  0  0
  194.9982  181.0671  157.8657 H   0  0  0  0  0  0  0  0  0  0  0  0
  196.9930  182.3003  158.6942 H   0  0  0  0  0  0  0  0  0  0  0  0
  199.5424  178.4158  155.6793 H   0  0  0  0  0  0  0  0  0  0  0  0
  1  2  2  0
  2  3  1  0
  2  6  1  0
  3  4  1  0
  3 26  1  0
  4  5  1  0
  4 11  1  0
  4 33  1  6
  5  6  1  0
  5 10  2  0
  6  7  2  0
  7  8  1  0
  7 34  1  0
  8  9  2  0
  8 35  1  0
  9 10  1  0
  9 36  1  0
 10 37  1  0
 11 12  1  0
 11 38  1  1
 11 39  1  0
 12 13  1  0
 12 40  1  0
 13 14  2  0
 13 15  1  0
 15 16  2  0
 15 20  1  0
 16 17  1  0
 16 41  1  0
 17 18  2  0
 17 21  1  0
 18 19  1  0
 18 42  1  0
 19 20  2  0
 19 43  1  0
 20 44  1  0
 21 22  1  0
 21 45  1  6
 21 46  1  0
 22 23  1  0
 22 25  1  0
 22 62  1  6
 23 24  1  0
 23 47  1  6
 23 48  1  0
 24 49  1  1
 24 50  1  0
 24 51  1  0
 25 52  1  1
 25 53  1  0
 25 54  1  0
 26 27  1  0
 26 55  1  6
 26 56  1  0
 27 28  2  0
 27 32  1  0
 28 29  1  0
 28 57  1  0
 29 30  2  0
 29 58  1  0
 30 31  1  0
 30 59  1  0
 31 32  2  0
 31 60  1  0
 32 61  1  0
M  CHG  1  22   1
M  END
>  <s_epik_cmdline>  (218) 
J2VwaWtfcHl0aG9uJywgJy1waCcsICc3LjAwMDAwMCcsICctcGh0JywgJzIuMDAwMDAwJywgJy1tcycsICcxNicsICctdG4nLCAnOCcsICctbWEnLCAnMjAwJywgJy1pbWFlJywgJzxpbmZpbGUubWFlPicsICctb21hZScsICc8b3V0ZmlsZS5tYWU+Jw==

>  <s_epik_input>  (218) 
W2NIXTFbY0hdW2NIXVtjSF1bY0hdYzFbQ0gyXU4oQyg9TyljKGMyMylbY0hdW2NIXVtjSF1bY0hdMylbQ0BIXTJbQ0gyXVtOSF1DKD1PKWM0W2NIXWMoW2NIXVtjSF1bY0hdNClbQ0gyXU4oW0NIM10pW0NIMl1bQ0gzXQ==

>  <s_i_glide_gridfile>  (218) 
ATP-Grid

>  <s_lp_Force_Field>  (218) 
OPLS_2005

>  <s_lp_Variant>  (218) 
m_22bbg____12219680____24595926-1

>  <s_lp_label>  (218) 
1105_sdstereoexpander_1_neutralizer_1_epik_1_stereoizer_1

>  <s_m_source_file>  (218) 
ATP-VSW-LIGPREP-002-in.maegz

>  <s_sd_BIOSOLVEIT.INFINISEE\_QUERY\_NAME>  (218) 
Ref-Lig

>  <s_sd_BIOSOLVEIT.INFINISEE\_QUERY\_SMILES>  (218) 
S(c1nc2c(cc1C[NH2+]Cc3ccc(cc3)C[NH+](C)C)cccc2)Cc4ccccc4

>  <s_sd_BIOSOLVEIT.INFINISEE\_REACTION\_NAME>  (218) 
m_22bbg

>  <s_sd_BIOSOLVEIT.INFINISEE\_REAGENT1\_SMILES>  (218) 
[R1*]NCC1N(C(=O)c2c1cccc2)Cc3ccccc3

>  <s_sd_BIOSOLVEIT.INFINISEE\_REAGENT2\_SMILES>  (218) 
[R1*]C(=O)c1cc(ccc1)CN(CC)C

>  <s_sd_BIOSOLVEIT.INFINISEE\_SPACE>  (218) 
REALSpace_44bn_2023-08

>  <s_vsw_compound_code>  (218) 
35330

>  <s_vsw_variant>  (218) 
35330-1

>  <r_epik_Charging_Adjusted_Penalty>  (218) 
0.067944865909937799

>  <r_epik_Ionization_Penalty>  (218) 
0.034000000000000002

>  <r_epik_Ionization_Penalty_Charging>  (218) 
0.034000000000000002

>  <r_epik_Ionization_Penalty_Neutral>  (218) 
0

>  <r_epik_State_Penalty>  (218) 
0.034000000000000002

>  <r_i_docking_score>  (218) 
-4.6634016284987201

>  <r_i_glide_ecoul>  (218) 
-6.3190121650695801

>  <r_i_glide_eff_state_penalty>  (218) 
0.034000000000000002

>  <r_i_glide_einternal>  (218) 
3.3580513000488299

>  <r_i_glide_emodel>  (218) 
-54.912534142058703

>  <r_i_glide_energy>  (218) 
-40.578758716583302

>  <r_i_glide_erotb>  (218) 
0.86531819378929398

>  <r_i_glide_esite>  (218) 
-0.025808240270271302

>  <r_i_glide_evdw>  (218) 
-34.2597465515137

>  <r_i_glide_gscore>  (218) 
-4.6974016284987199

>  <r_i_glide_hbond>  (218) 
-0.0071739403138670801

>  <r_i_glide_ligand_efficiency>  (218) 
-0.145731300890585

>  <r_i_glide_ligand_efficiency_ln>  (218) 
-1.04426274414819

>  <r_i_glide_ligand_efficiency_sa>  (218) 
-0.46266804014232299

>  <r_i_glide_lipo>  (218) 
-1.5727871114493099

>  <r_i_glide_metal>  (218) 
-0

>  <r_i_glide_rewards>  (218) 
-1.2961113779184501

>  <r_lp_Energy>  (218) 
47.014074000000001

>  <r_qp_ACxDN^.5/SA>  (218) 
0.0093297999999999992

>  <r_qp_CIQPlogS>  (218) 
-5.0439999999999996

>  <r_qp_EA(eV)>  (218) 
0.39100000000000001

>  <r_qp_FISA>  (218) 
70.402000000000001

>  <r_qp_FOSA>  (218) 
281.83699999999999

>  <r_qp_IP(eV)>  (218) 
9.2260000000000009

>  <r_qp_Jm>  (218) 
0.00378126995802854

>  <r_qp_PISA>  (218) 
451.63999999999999

>  <r_qp_PSA>  (218) 
70.361000000000004

>  <r_qp_PercentHumanOralAbsorption>  (218) 
100

>  <r_qp_QPPCaco>  (218) 
531.09900000000005

>  <r_qp_QPPMDCK>  (218) 
276.17000000000002

>  <r_qp_QPlogBB>  (218) 
-0.311

>  <r_qp_QPlogHERG>  (218) 
-8.1270000000000007

>  <r_qp_QPlogKhsa>  (218) 
0.69899999999999995

>  <r_qp_QPlogKp>  (218) 
-2.5209999999999999

>  <r_qp_QPlogPC16>  (218) 
15.782

>  <r_qp_QPlogPo/w>  (218) 
4.7249999999999996

>  <r_qp_QPlogPoct>  (218) 
22.702000000000002

>  <r_qp_QPlogPw>  (218) 
12.292

>  <r_qp_QPlogS>  (218) 
-5.5330000000000004

>  <r_qp_QPpolrz>  (218) 
51.015999999999998

>  <r_qp_SASA>  (218) 
803.87900000000002

>  <r_qp_SAamideO>  (218) 
0

>  <r_qp_SAfluorine>  (218) 
0

>  <r_qp_WPSA>  (218) 
0

>  <r_qp_accptHB>  (218) 
7.5

>  <r_qp_dip^2/V>  (218) 
0.0291674

>  <r_qp_dipole>  (218) 
6.5010000000000003

>  <r_qp_donorHB>  (218) 
1

>  <r_qp_glob>  (218) 
0.77038549999999995

>  <r_qp_mol_MW>  (218) 
427.54500000000002

>  <r_qp_volume>  (218) 
1449.106

>  <r_sd_BIOSOLVEIT.INFINISEE\_FTREES\_SIMILARITY>  (218) 
0.91300000000000003

>  <r_sd_BIOSOLVEIT.LOGP>  (218) 
2.8483000000000001

>  <r_sd_BIOSOLVEIT.MOLECULAR\_WEIGHT>  (218) 
428.553

>  <r_sd_BIOSOLVEIT.TPSA>  (218) 
53.850000000000001

>  <i_epik_Tot_Q>  (218) 
1

>  <i_epik_Tot_abs_Q>  (218) 
1

>  <i_f3d_flags>  (218) 
0

>  <i_i_glide_confnum>  (218) 
9

>  <i_i_glide_lignum>  (218) 
371

>  <i_i_glide_posenum>  (218) 
10

>  <i_i_glide_rotatable_bonds>  (218) 
9

>  <i_lp_mmshare_version>  (218) 
65135

>  <i_m_ct_format>  (218) 
2

>  <i_m_source_file_index>  (218) 
1105

>  <i_qp_#NandO>  (218) 
5

>  <i_qp_#acid>  (218) 
0

>  <i_qp_#amide>  (218) 
0

>  <i_qp_#amidine>  (218) 
0

>  <i_qp_#amine>  (218) 
1

>  <i_qp_#in34>  (218) 
0

>  <i_qp_#in56>  (218) 
21

>  <i_qp_#metab>  (218) 
4

>  <i_qp_#nonHatm>  (218) 
32

>  <i_qp_#noncon>  (218) 
1

>  <i_qp_#ringatoms>  (218) 
21

>  <i_qp_#rotor>  (218) 
8

>  <i_qp_#rtvFG>  (218) 
0

>  <i_qp_#stars>  (218) 
1

>  <i_qp_CNS>  (218) 
1

>  <i_qp_HumanOralAbsorption>  (218) 
3

>  <i_qp_RuleOfFive>  (218) 
0

>  <i_qp_RuleOfThree>  (218) 
0

>  <i_sd_BIOSOLVEIT.INFINISEE\_REAGENT1\_NAME>  (218) 
12219680

>  <i_sd_BIOSOLVEIT.INFINISEE\_REAGENT2\_NAME>  (218) 
24595926

>  <i_sd_BIOSOLVEIT.INFINISEE\_RESULT\_RANK>  (218) 
33640

>  <i_sd_version>  (218) 
0

>  <b_lp_Chiralities_Consistent>  (218) 
1

>  <b_sd_chiral_flag>  (218) 
0

>  <canonical_id>  (218) 
ATP-HTVS-22C0C64F65E9

>  <compound_code>  (218) 
35330

>  <title>  (218) 
m_22bbg____12219680____24595926

>  <variant>  (218) 
35330-1

>  <source_file>  (218) 
运行/运行/ATP-VSW/ATP-VSW-DOCK_HTVS_1-002_lib.maegz

>  <canonical_smiles>  (218) 
CC[N@@H+](C)Cc1cccc(C(=O)NC[C@H]2c3ccccc3C(=O)N2Cc2ccccc2)c1

>  <scaffold>  (218) 
O=C(NCC1c2ccccc2C(=O)N1Cc1ccccc1)c1ccccc1

>  <molecular_formula>  (218) 
C27H30N3O2+

$$$$
ATP-HTVS-22E2482E2999
     RDKit          3D

 63 66  0  0  0  0  0  0  0  0999 V2000
  196.0027  185.6303  159.7832 F   0  0  0  0  0  0  0  0  0  0  0  0
  196.4021  184.5113  159.1362 C   0  0  0  0  0  0  0  0  0  0  0  0
  195.4748  183.5712  158.6208 C   0  0  0  0  0  0  0  0  0  0  0  0
  195.9674  182.4355  157.9274 C   0  0  0  0  0  0  0  0  0  0  0  0
  197.3565  182.2383  157.7535 C   0  0  0  0  0  0  0  0  0  0  0  0
  198.2596  183.1751  158.2921 C   0  0  0  0  0  0  0  0  0  0  0  0
  197.7809  184.3040  158.9798 C   0  0  0  0  0  0  0  0  0  0  0  0
  197.8964  181.0240  157.0181 C   0  0  1  0  0  0  0  0  0  0  0  0
  197.0978  180.6588  155.8629 N   0  0  0  0  0  0  0  0  0  0  0  0
  197.5954  180.2782  154.6337 C   0  0  0  0  0  0  0  0  0  0  0  0
  198.8992  180.0046  154.5207 N   0  0  0  0  0  0  0  0  0  0  0  0
  199.4151  179.6798  153.3232 C   0  0  0  0  0  0  0  0  0  0  0  0
  200.7921  179.4192  153.2515 N   0  0  0  0  0  0  0  0  0  0  0  0
  201.5867  179.1240  154.4415 C   0  0  1  0  0  0  0  0  0  0  0  0
  201.9683  177.6621  154.5798 C   0  0  0  0  0  0  0  0  0  0  0  0
  203.2094  177.2102  154.0976 C   0  0  0  0  0  0  0  0  0  0  0  0
  203.5788  175.8559  154.2432 C   0  0  0  0  0  0  0  0  0  0  0  0
  202.7002  174.9543  154.8847 C   0  0  0  0  0  0  0  0  0  0  0  0
  201.4645  175.4136  155.3778 C   0  0  0  0  0  0  0  0  0  0  0  0
  201.0880  176.7625  155.2159 C   0  0  0  0  0  0  0  0  0  0  0  0
  203.0651  173.4708  155.0039 C   0  0  1  0  0  0  0  0  0  0  0  0
  202.5207  172.6546  153.9006 N   0  0  2  0  0  0  0  0  0  0  0  0
  203.1652  172.9252  152.5994 C   0  0  2  0  0  0  0  0  0  0  0  0
  201.0468  172.6694  153.7957 C   0  0  2  0  0  0  0  0  0  0  0  0
  198.5905  179.6343  152.1785 C   0  0  0  0  0  0  0  0  0  0  0  0
  197.2251  179.9393  152.3646 C   0  0  0  0  0  0  0  0  0  0  0  0
  196.7624  180.2485  153.5988 N   0  0  0  0  0  0  0  0  0  0  0  0
  196.3363  179.9242  151.2814 C   0  0  0  0  0  0  0  0  0  0  0  0
  196.8077  179.5925  149.9979 C   0  0  0  0  0  0  0  0  0  0  0  0
  198.1663  179.2759  149.8039 C   0  0  0  0  0  0  0  0  0  0  0  0
  199.0618  179.2981  150.8903 C   0  0  0  0  0  0  0  0  0  0  0  0
  193.9627  183.7354  158.7613 C   0  0  1  0  0  0  0  0  0  0  0  0
  193.5316  184.6059  159.7805 O   0  0  0  0  0  0  0  0  0  0  0  0
  195.2656  181.7126  157.5278 H   0  0  0  0  0  0  0  0  0  0  0  0
  199.3244  183.0371  158.1870 H   0  0  0  0  0  0  0  0  0  0  0  0
  198.4666  185.0285  159.3895 H   0  0  0  0  0  0  0  0  0  0  0  0
  198.9271  181.2231  156.7273 H   0  0  0  0  0  0  0  0  0  0  0  0
  197.9409  180.1845  157.7110 H   0  0  0  0  0  0  0  0  0  0  0  0
  196.1009  180.6252  155.9959 H   0  0  0  0  0  0  0  0  0  0  0  0
  201.2488  179.3699  152.3558 H   0  0  0  0  0  0  0  0  0  0  0  0
  202.4947  179.7238  154.4016 H   0  0  0  0  0  0  0  0  0  0  0  0
  201.0950  179.4246  155.3672 H   0  0  0  0  0  0  0  0  0  0  0  0
  203.8896  177.8942  153.6182 H   0  0  0  0  0  0  0  0  0  0  0  0
  204.5276  175.5170  153.8540 H   0  0  0  0  0  0  0  0  0  0  0  0
  200.7777  174.7265  155.8441 H   0  0  0  0  0  0  0  0  0  0  0  0
  200.1312  177.0951  155.5880 H   0  0  0  0  0  0  0  0  0  0  0  0
  204.1497  173.3693  155.0387 H   0  0  0  0  0  0  0  0  0  0  0  0
  202.7031  173.0954  155.9626 H   0  0  0  0  0  0  0  0  0  0  0  0
  202.9593  173.9469  152.2573 H   0  0  0  0  0  0  0  0  0  0  0  0
  202.8017  172.2447  151.8270 H   0  0  0  0  0  0  0  0  0  0  0  0
  204.2490  172.8028  152.6635 H   0  0  0  0  0  0  0  0  0  0  0  0
  200.6679  173.6670  153.5578 H   0  0  0  0  0  0  0  0  0  0  0  0
  200.5912  172.3457  154.7317 H   0  0  0  0  0  0  0  0  0  0  0  0
  200.6973  172.0102  152.9994 H   0  0  0  0  0  0  0  0  0  0  0  0
  195.2961  180.1663  151.4224 H   0  0  0  0  0  0  0  0  0  0  0  0
  196.1296  179.5757  149.1561 H   0  0  0  0  0  0  0  0  0  0  0  0
  198.5257  179.0173  148.8173 H   0  0  0  0  0  0  0  0  0  0  0  0
  200.0969  179.0511  150.7208 H   0  0  0  0  0  0  0  0  0  0  0  0
  193.5645  184.0939  157.8199 H   0  0  0  0  0  0  0  0  0  0  0  0
  193.5131  182.7589  158.9320 H   0  0  0  0  0  0  0  0  0  0  0  0
  193.4489  185.4742  159.4105 H   0  0  0  0  0  0  0  0  0  0  0  0
  195.7836  180.5040  153.7180 H   0  0  0  0  0  0  0  0  0  0  0  0
  202.7472  171.6547  154.1194 H   0  0  0  0  0  0  0  0  0  0  0  0
  1  2  1  0
  2  3  2  0
  2  7  1  0
  3  4  1  0
  3 32  1  0
  4  5  2  0
  4 34  1  0
  5  6  1  0
  5  8  1  0
  6  7  2  0
  6 35  1  0
  7 36  1  0
  8  9  1  0
  8 37  1  6
  8 38  1  0
  9 10  1  0
  9 39  1  0
 10 11  1  0
 10 27  2  0
 11 12  2  0
 12 13  1  0
 12 25  1  0
 13 14  1  0
 13 40  1  0
 14 15  1  0
 14 41  1  6
 14 42  1  0
 15 16  1  0
 15 20  2  0
 16 17  2  0
 16 43  1  0
 17 18  1  0
 17 44  1  0
 18 19  2  0
 18 21  1  0
 19 20  1  0
 19 45  1  0
 20 46  1  0
 21 22  1  0
 21 47  1  1
 21 48  1  0
 22 23  1  0
 22 24  1  0
 22 63  1  1
 23 49  1  6
 23 50  1  0
 23 51  1  0
 24 52  1  6
 24 53  1  0
 24 54  1  0
 25 26  1  0
 25 31  2  0
 26 27  1  0
 26 28  2  0
 27 62  1  0
 28 29  1  0
 28 55  1  0
 29 30  2  0
 29 56  1  0
 30 31  1  0
 30 57  1  0
 31 58  1  0
 32 33  1  0
 32 59  1  6
 32 60  1  0
 33 61  1  0
M  CHG  2  22   1  27   1
M  END
>  <s_epik_cmdline>  (219) 
J2VwaWtfcHl0aG9uJywgJy1waCcsICc3LjAwMDAwMCcsICctcGh0JywgJzIuMDAwMDAwJywgJy1tcycsICcxNicsICctdG4nLCAnOCcsICctbWEnLCAnMjAwJywgJy1pbWFlJywgJzxpbmZpbGUubWFlPicsICctb21hZScsICc8b3V0ZmlsZS5tYWU+Jw==

>  <s_epik_input>  (219) 
RmMxYyhbQ0gyXVtPSF0pW2NIXWMoW2NIXVtjSF0xKVtDSDJdW05IXWMobmMoYzIzKVtjSF1bY0hdW2NIXVtjSF0zKW5jMltOSF1bQ0gyXWM0W2NIXVtjSF1jKFtjSF1bY0hdNClbQ0gyXU4oW0NIM10pW0NIM10=

>  <s_i_glide_gridfile>  (219) 
ATP-Grid

>  <s_lp_Force_Field>  (219) 
OPLS_2005

>  <s_lp_Variant>  (219) 
m_282030aaa____21905842____22360182____21945542-1

>  <s_lp_label>  (219) 
1512_sdstereoexpander_1_neutralizer_1_epik_1_stereoizer_1

>  <s_m_source_file>  (219) 
ATP-VSW-LIGPREP-002-in.maegz

>  <s_sd_BIOSOLVEIT.INFINISEE\_QUERY\_NAME>  (219) 
Ref-Lig

>  <s_sd_BIOSOLVEIT.INFINISEE\_QUERY\_SMILES>  (219) 
S(c1nc2c(cc1C[NH2+]Cc3ccc(cc3)C[NH+](C)C)cccc2)Cc4ccccc4

>  <s_sd_BIOSOLVEIT.INFINISEE\_REACTION\_NAME>  (219) 
m_282030aaa

>  <s_sd_BIOSOLVEIT.INFINISEE\_REAGENT1\_SMILES>  (219) 
[R1*]NCc1cc(c(F)cc1)CO

>  <s_sd_BIOSOLVEIT.INFINISEE\_REAGENT2\_SMILES>  (219) 
[R2*]c1nc([R1*])c2c(n1)cccc2

>  <s_sd_BIOSOLVEIT.INFINISEE\_REAGENT3\_SMILES>  (219) 
[R2*]NCc1ccc(cc1)CN(C)C

>  <s_sd_BIOSOLVEIT.INFINISEE\_SPACE>  (219) 
REALSpace_44bn_2023-08

>  <s_vsw_compound_code>  (219) 
48354

>  <s_vsw_variant>  (219) 
48354-1

>  <r_epik_Charging_Adjusted_Penalty>  (219) 
0.11766731059585001

>  <r_epik_Ionization_Penalty>  (219) 
0.055899999999999998

>  <r_epik_Ionization_Penalty_Charging>  (219) 
0.055899999999999998

>  <r_epik_Ionization_Penalty_Neutral>  (219) 
0

>  <r_epik_State_Penalty>  (219) 
0.061699999999999998

>  <r_i_docking_score>  (219) 
-5.6668141921885304

>  <r_i_glide_ecoul>  (219) 
-12.8547525405884

>  <r_i_glide_eff_state_penalty>  (219) 
0.061699999999999998

>  <r_i_glide_einternal>  (219) 
7.90738868713379

>  <r_i_glide_emodel>  (219) 
-69.344642620886802

>  <r_i_glide_energy>  (219) 
-45.5795221328735

>  <r_i_glide_erotb>  (219) 
0.79982463678156301

>  <r_i_glide_esite>  (219) 
-0.24376942240674301

>  <r_i_glide_evdw>  (219) 
-32.724769592285199

>  <r_i_glide_gscore>  (219) 
-5.7285141921885296

>  <r_i_glide_hbond>  (219) 
-0.5233794156746

>  <r_i_glide_ligand_efficiency>  (219) 
-0.171721642187531

>  <r_i_glide_ligand_efficiency_ln>  (219) 
-1.2602701351491501

>  <r_i_glide_ligand_efficiency_sa>  (219) 
-0.55080306187780403

>  <r_i_glide_lipo>  (219) 
-1.27772310239527

>  <r_i_glide_metal>  (219) 
-0

>  <r_i_glide_rewards>  (219) 
-0.91901552779096696

>  <r_lp_Energy>  (219) 
24.269328999999999

>  <r_qp_ACxDN^.5/SA>  (219) 
0.013755

>  <r_qp_CIQPlogS>  (219) 
-5.718

>  <r_qp_EA(eV)>  (219) 
0.56299999999999994

>  <r_qp_FISA>  (219) 
94.498999999999995

>  <r_qp_FOSA>  (219) 
280.81900000000002

>  <r_qp_IP(eV)>  (219) 
7.9640000000000004

>  <r_qp_Jm>  (219) 
0.00042272785912683903

>  <r_qp_PISA>  (219) 
431.60399999999998

>  <r_qp_PSA>  (219) 
71.001000000000005

>  <r_qp_PercentHumanOralAbsorption>  (219) 
100

>  <r_qp_QPPCaco>  (219) 
313.80799999999999

>  <r_qp_QPPMDCK>  (219) 
248.614

>  <r_qp_QPlogBB>  (219) 
-0.68200000000000005

>  <r_qp_QPlogHERG>  (219) 
-8.4220000000000006

>  <r_qp_QPlogKhsa>  (219) 
0.75600000000000001

>  <r_qp_QPlogKp>  (219) 
-2.843

>  <r_qp_QPlogPC16>  (219) 
16.553000000000001

>  <r_qp_QPlogPo/w>  (219) 
4.899

>  <r_qp_QPlogPoct>  (219) 
25.021000000000001

>  <r_qp_QPlogPw>  (219) 
14.128

>  <r_qp_QPlogS>  (219) 
-6.1799999999999997

>  <r_qp_QPpolrz>  (219) 
50.996000000000002

>  <r_qp_SASA>  (219) 
843.67700000000002

>  <r_qp_SAamideO>  (219) 
0

>  <r_qp_SAfluorine>  (219) 
36.755000000000003

>  <r_qp_WPSA>  (219) 
36.755000000000003

>  <r_qp_accptHB>  (219) 
6.7000000000000002

>  <r_qp_dip^2/V>  (219) 
0.0121209

>  <r_qp_dipole>  (219) 
4.2430000000000003

>  <r_qp_donorHB>  (219) 
3

>  <r_qp_glob>  (219) 
0.74628090000000002

>  <r_qp_mol_MW>  (219) 
445.53800000000001

>  <r_qp_volume>  (219) 
1485.491

>  <r_sd_BIOSOLVEIT.INFINISEE\_FTREES\_SIMILARITY>  (219) 
0.90700000000000003

>  <r_sd_BIOSOLVEIT.LOGP>  (219) 
3.1299000000000001

>  <r_sd_BIOSOLVEIT.MOLECULAR\_WEIGHT>  (219) 
446.54700000000003

>  <r_sd_BIOSOLVEIT.TPSA>  (219) 
74.510000000000005

>  <i_epik_Tot_Q>  (219) 
2

>  <i_epik_Tot_abs_Q>  (219) 
2

>  <i_f3d_flags>  (219) 
0

>  <i_i_glide_confnum>  (219) 
10

>  <i_i_glide_lignum>  (219) 
524

>  <i_i_glide_posenum>  (219) 
14

>  <i_i_glide_rotatable_bonds>  (219) 
10

>  <i_lp_mmshare_version>  (219) 
65135

>  <i_m_ct_format>  (219) 
2

>  <i_m_source_file_index>  (219) 
1512

>  <i_qp_#NandO>  (219) 
6

>  <i_qp_#acid>  (219) 
0

>  <i_qp_#amide>  (219) 
0

>  <i_qp_#amidine>  (219) 
0

>  <i_qp_#amine>  (219) 
1

>  <i_qp_#in34>  (219) 
0

>  <i_qp_#in56>  (219) 
22

>  <i_qp_#metab>  (219) 
6

>  <i_qp_#nonHatm>  (219) 
33

>  <i_qp_#noncon>  (219) 
0

>  <i_qp_#ringatoms>  (219) 
22

>  <i_qp_#rotor>  (219) 
10

>  <i_qp_#rtvFG>  (219) 
0

>  <i_qp_#stars>  (219) 
1

>  <i_qp_CNS>  (219) 
0

>  <i_qp_HumanOralAbsorption>  (219) 
3

>  <i_qp_RuleOfFive>  (219) 
0

>  <i_qp_RuleOfThree>  (219) 
1

>  <i_sd_BIOSOLVEIT.INFINISEE\_REAGENT1\_NAME>  (219) 
21905842

>  <i_sd_BIOSOLVEIT.INFINISEE\_REAGENT2\_NAME>  (219) 
22360182

>  <i_sd_BIOSOLVEIT.INFINISEE\_REAGENT3\_NAME>  (219) 
21945542

>  <i_sd_BIOSOLVEIT.INFINISEE\_RESULT\_RANK>  (219) 
60214

>  <i_sd_version>  (219) 
0

>  <b_lp_Chiralities_Consistent>  (219) 
1

>  <b_sd_chiral_flag>  (219) 
0

>  <canonical_id>  (219) 
ATP-HTVS-22E2482E2999

>  <compound_code>  (219) 
48354

>  <title>  (219) 
m_282030aaa____21905842____22360182____21945542

>  <variant>  (219) 
48354-1

>  <source_file>  (219) 
运行/运行/ATP-VSW/ATP-VSW-DOCK_HTVS_1-002_lib.maegz

>  <canonical_smiles>  (219) 
C[NH+](C)Cc1ccc(CNc2nc(NCc3ccc(F)c(CO)c3)[nH+]c3ccccc23)cc1

>  <scaffold>  (219) 
c1ccc(CNc2nc(NCc3ccccc3)c3ccccc3[nH+]2)cc1

>  <molecular_formula>  (219) 
C26H30FN5O+2

$$$$
ATP-HTVS-22E536A2C0FA
     RDKit          3D

 59 62  0  0  0  0  0  0  0  0999 V2000
  197.7980  180.4658  153.4174 O   0  0  0  0  0  0  0  0  0  0  0  0
  197.8946  179.9531  154.5346 C   0  0  0  0  0  0  0  0  0  0  0  0
  198.7040  178.9314  154.8565 N   0  0  0  0  0  0  0  0  0  0  0  0
  199.7436  178.4151  154.0480 C   0  0  0  0  0  0  0  0  0  0  0  0
  200.9672  178.0504  154.6530 C   0  0  0  0  0  0  0  0  0  0  0  0
  201.9912  177.5053  153.8525 C   0  0  0  0  0  0  0  0  0  0  0  0
  201.8004  177.3197  152.4704 C   0  0  0  0  0  0  0  0  0  0  0  0
  200.5809  177.6868  151.8729 C   0  0  0  0  0  0  0  0  0  0  0  0
  199.5540  178.2313  152.6596 C   0  0  0  0  0  0  0  0  0  0  0  0
  201.2133  178.2649  156.1420 C   0  0  1  0  0  0  0  0  0  0  0  0
  200.7435  177.1204  156.9625 N   0  0  2  0  0  0  0  0  0  0  0  0
  200.6305  177.4744  158.3936 C   0  0  2  0  0  0  0  0  0  0  0  0
  201.5450  175.8909  156.7580 C   0  0  2  0  0  0  0  0  0  0  0  0
  197.1950  180.3797  155.5981 N   0  0  0  0  0  0  0  0  0  0  0  0
  196.3140  181.5368  155.5598 C   0  0  1  0  0  0  0  0  0  0  0  0
  197.1306  182.8611  155.5109 C   0  0  1  0  0  0  0  0  0  0  0  0
  198.3115  182.9651  156.4629 C   0  0  0  0  0  0  0  0  0  0  0  0
  199.5647  182.6939  156.0723 N   0  0  0  0  0  0  0  0  0  0  0  0
  200.3068  182.8604  157.2306 C   0  0  0  0  0  0  0  0  0  0  0  0
  199.4781  183.2383  158.3216 C   0  0  0  0  0  0  0  0  0  0  0  0
  198.2025  183.3082  157.7859 N   0  0  0  0  0  0  0  0  0  0  0  0
  196.9663  183.6123  158.3945 C   0  0  0  0  0  0  0  0  0  0  0  0
  195.9460  182.6626  158.4893 C   0  0  0  0  0  0  0  0  0  0  0  0
  194.6753  183.0040  158.9424 C   0  0  0  0  0  0  0  0  0  0  0  0
  194.4752  184.2765  159.5554 C   0  0  0  0  0  0  0  0  0  0  0  0
  195.5436  185.1909  159.6056 C   0  0  0  0  0  0  0  0  0  0  0  0
  196.7787  184.8956  158.9980 C   0  0  0  0  0  0  0  0  0  0  0  0
  200.0065  183.4474  159.6123 C   0  0  0  0  0  0  0  0  0  0  0  0
  201.3857  183.2736  159.8253 C   0  0  0  0  0  0  0  0  0  0  0  0
  202.2246  182.9044  158.7537 C   0  0  0  0  0  0  0  0  0  0  0  0
  201.6900  182.7013  157.4628 C   0  0  0  0  0  0  0  0  0  0  0  0
  198.6788  178.6601  155.8278 H   0  0  0  0  0  0  0  0  0  0  0  0
  202.9325  177.2205  154.2983 H   0  0  0  0  0  0  0  0  0  0  0  0
  202.5890  176.8975  151.8658 H   0  0  0  0  0  0  0  0  0  0  0  0
  200.4312  177.5499  150.8117 H   0  0  0  0  0  0  0  0  0  0  0  0
  198.6199  178.4975  152.1842 H   0  0  0  0  0  0  0  0  0  0  0  0
  202.2728  178.4516  156.3216 H   0  0  0  0  0  0  0  0  0  0  0  0
  200.7036  179.1776  156.4549 H   0  0  0  0  0  0  0  0  0  0  0  0
  201.5947  177.7643  158.8057 H   0  0  0  0  0  0  0  0  0  0  0  0
  200.2506  176.6382  158.9787 H   0  0  0  0  0  0  0  0  0  0  0  0
  199.9454  178.3078  158.5301 H   0  0  0  0  0  0  0  0  0  0  0  0
  202.5867  176.0424  157.0394 H   0  0  0  0  0  0  0  0  0  0  0  0
  201.5199  175.5664  155.7189 H   0  0  0  0  0  0  0  0  0  0  0  0
  201.1514  175.0672  157.3493 H   0  0  0  0  0  0  0  0  0  0  0  0
  197.2881  179.8955  156.4823 H   0  0  0  0  0  0  0  0  0  0  0  0
  195.5896  181.4935  154.7302 H   0  0  0  0  0  0  0  0  0  0  0  0
  195.6693  181.4460  156.3772 H   0  0  0  0  0  0  0  0  0  0  0  0
  197.5477  182.9774  154.4883 H   0  0  0  0  0  0  0  0  0  0  0  0
  196.4814  183.7296  155.6470 H   0  0  0  0  0  0  0  0  0  0  0  0
  196.1370  181.6505  158.2019 H   0  0  0  0  0  0  0  0  0  0  0  0
  193.8698  182.2847  158.9134 H   0  0  0  0  0  0  0  0  0  0  0  0
  193.5136  184.5019  160.0174 H   0  0  0  0  0  0  0  0  0  0  0  0
  195.4045  186.1464  160.0962 H   0  0  0  0  0  0  0  0  0  0  0  0
  197.6056  185.6055  159.0309 H   0  0  0  0  0  0  0  0  0  0  0  0
  199.3515  183.7140  160.4233 H   0  0  0  0  0  0  0  0  0  0  0  0
  201.8000  183.4238  160.8132 H   0  0  0  0  0  0  0  0  0  0  0  0
  203.2841  182.7804  158.9214 H   0  0  0  0  0  0  0  0  0  0  0  0
  202.3380  182.4234  156.6458 H   0  0  0  0  0  0  0  0  0  0  0  0
  199.8014  176.9098  156.6610 H   0  0  0  0  0  0  0  0  0  0  0  0
  1  2  2  0
  2  3  1  0
  2 14  1  0
  3  4  1  0
  3 32  1  0
  4  5  1  0
  4  9  2  0
  5  6  2  0
  5 10  1  0
  6  7  1  0
  6 33  1  0
  7  8  2  0
  7 34  1  0
  8  9  1  0
  8 35  1  0
  9 36  1  0
 10 11  1  0
 10 37  1  6
 10 38  1  0
 11 12  1  0
 11 13  1  0
 11 59  1  6
 12 39  1  1
 12 40  1  0
 12 41  1  0
 13 42  1  1
 13 43  1  0
 13 44  1  0
 14 15  1  0
 14 45  1  0
 15 16  1  0
 15 46  1  6
 15 47  1  0
 16 17  1  0
 16 48  1  6
 16 49  1  0
 17 18  2  0
 17 21  1  0
 18 19  1  0
 19 20  1  0
 19 31  2  0
 20 21  1  0
 20 28  2  0
 21 22  1  0
 22 23  2  0
 22 27  1  0
 23 24  1  0
 23 50  1  0
 24 25  2  0
 24 51  1  0
 25 26  1  0
 25 52  1  0
 26 27  2  0
 26 53  1  0
 27 54  1  0
 28 29  1  0
 28 55  1  0
 29 30  2  0
 29 56  1  0
 30 31  1  0
 30 57  1  0
 31 58  1  0
M  CHG  1  11   1
M  END
>  <s_epik_cmdline>  (220) 
J2VwaWtfcHl0aG9uJywgJy1waCcsICc3LjAwMDAwMCcsICctcGh0JywgJzIuMDAwMDAwJywgJy1tcycsICcxNicsICctdG4nLCAnOCcsICctbWEnLCAnMjAwJywgJy1pbWFlJywgJzxpbmZpbGUubWFlPicsICctb21hZScsICc8b3V0ZmlsZS5tYWU+Jw==

>  <s_epik_input>  (220) 
W2NIXTFbY0hdW2NIXVtjSF1jKFtDSDJdTihbQ0gzXSlbQ0gzXSljMVtOSF1DKD1PKVtOSF1bQ0gyXVtDSDJdYyhuMiluKGMoYzIzKVtjSF1bY0hdW2NIXVtjSF0zKS1jNFtjSF1bY0hdW2NIXVtjSF1bY0hdNA==

>  <s_i_glide_gridfile>  (220) 
ATP-Grid

>  <s_lp_Force_Field>  (220) 
OPLS_2005

>  <s_lp_Variant>  (220) 
m_2430bbb____22523280____21660874-1

>  <s_lp_label>  (220) 
1801_sdstereoexpander_1_neutralizer_1_epik_1_stereoizer_1

>  <s_m_source_file>  (220) 
ATP-VSW-LIGPREP-001-in.maegz

>  <s_sd_BIOSOLVEIT.INFINISEE\_QUERY\_NAME>  (220) 
Ref-Lig

>  <s_sd_BIOSOLVEIT.INFINISEE\_QUERY\_SMILES>  (220) 
S(c1nc2c(cc1C[NH2+]Cc3ccc(cc3)C[NH+](C)C)cccc2)Cc4ccccc4

>  <s_sd_BIOSOLVEIT.INFINISEE\_REACTION\_NAME>  (220) 
m_2430bbb

>  <s_sd_BIOSOLVEIT.INFINISEE\_REAGENT1\_SMILES>  (220) 
[R1*]C(=O)Nc1c(cccc1)CN(C)C

>  <s_sd_BIOSOLVEIT.INFINISEE\_REAGENT2\_SMILES>  (220) 
[R1*]NCCC1=Nc2c(N1c3ccccc3)cccc2

>  <s_sd_BIOSOLVEIT.INFINISEE\_SPACE>  (220) 
REALSpace_44bn_2023-08

>  <s_vsw_compound_code>  (220) 
57601

>  <s_vsw_variant>  (220) 
57601-1

>  <r_epik_Charging_Adjusted_Penalty>  (220) 
0.162460658360605

>  <r_epik_Ionization_Penalty>  (220) 
0.1215

>  <r_epik_Ionization_Penalty_Charging>  (220) 
0.041000000000000002

>  <r_epik_Ionization_Penalty_Neutral>  (220) 
0.080500000000000002

>  <r_epik_State_Penalty>  (220) 
0.12139999999999999

>  <r_i_docking_score>  (220) 
-4.3473887190812199

>  <r_i_glide_ecoul>  (220) 
-8.5943813323974592

>  <r_i_glide_eff_state_penalty>  (220) 
0.12139999999999999

>  <r_i_glide_einternal>  (220) 
2.5746703147888201

>  <r_i_glide_emodel>  (220) 
-58.879577030601702

>  <r_i_glide_energy>  (220) 
-43.3605442047119

>  <r_i_glide_erotb>  (220) 
0.918973896231839

>  <r_i_glide_esite>  (220) 
-0.18820555855882101

>  <r_i_glide_evdw>  (220) 
-34.766162872314503

>  <r_i_glide_gscore>  (220) 
-4.4687887190812203

>  <r_i_glide_hbond>  (220) 
-0.048838250234208298

>  <r_i_glide_ligand_efficiency>  (220) 
-0.14023834577681399

>  <r_i_glide_ligand_efficiency_ln>  (220) 
-0.98046938761656199

>  <r_i_glide_ligand_efficiency_sa>  (220) 
-0.44054202564238498

>  <r_i_glide_lipo>  (220) 
-1.31545382668106

>  <r_i_glide_metal>  (220) 
-0

>  <r_i_glide_rewards>  (220) 
-0.80779963636363505

>  <r_lp_Energy>  (220) 
25.527175

>  <r_qp_ACxDN^.5/SA>  (220) 
0.01149

>  <r_qp_CIQPlogS>  (220) 
-4.923

>  <r_qp_EA(eV)>  (220) 
0.75

>  <r_qp_FISA>  (220) 
54.664000000000001

>  <r_qp_FOSA>  (220) 
175.18799999999999

>  <r_qp_IP(eV)>  (220) 
8.5619999999999994

>  <r_qp_Jm>  (220) 
0.43644802702660201

>  <r_qp_PISA>  (220) 
447.09800000000001

>  <r_qp_PSA>  (220) 
63.933999999999997

>  <r_qp_PercentHumanOralAbsorption>  (220) 
100

>  <r_qp_QPPCaco>  (220) 
487.13799999999998

>  <r_qp_QPPMDCK>  (220) 
400.399

>  <r_qp_QPlogBB>  (220) 
0.096000000000000002

>  <r_qp_QPlogHERG>  (220) 
-5.4470000000000001

>  <r_qp_QPlogKhsa>  (220) 
0.46500000000000002

>  <r_qp_QPlogKp>  (220) 
-2.4390000000000001

>  <r_qp_QPlogPC16>  (220) 
14.234

>  <r_qp_QPlogPo/w>  (220) 
3.9820000000000002

>  <r_qp_QPlogPoct>  (220) 
22.361999999999998

>  <r_qp_QPlogPw>  (220) 
13.521000000000001

>  <r_qp_QPlogS>  (220) 
-3.5379999999999998

>  <r_qp_QPpolrz>  (220) 
46.177999999999997

>  <r_qp_SASA>  (220) 
676.95000000000005

>  <r_qp_SAamideO>  (220) 
23.463000000000001

>  <r_qp_SAfluorine>  (220) 
0

>  <r_qp_WPSA>  (220) 
0

>  <r_qp_accptHB>  (220) 
5.5

>  <r_qp_dip^2/V>  (220) 
0.079884499999999997

>  <r_qp_dipole>  (220) 
10.18

>  <r_qp_donorHB>  (220) 
2

>  <r_qp_glob>  (220) 
0.84973909999999997

>  <r_qp_mol_MW>  (220) 
413.52100000000002

>  <r_qp_volume>  (220) 
1297.2260000000001

>  <r_sd_BIOSOLVEIT.INFINISEE\_FTREES\_SIMILARITY>  (220) 
0.90400000000000003

>  <r_sd_BIOSOLVEIT.LOGP>  (220) 
3.0341999999999998

>  <r_sd_BIOSOLVEIT.MOLECULAR\_WEIGHT>  (220) 
414.52999999999997

>  <r_sd_BIOSOLVEIT.TPSA>  (220) 
63.390000000000001

>  <i_epik_Tot_Q>  (220) 
1

>  <i_epik_Tot_abs_Q>  (220) 
1

>  <i_f3d_flags>  (220) 
0

>  <i_i_glide_confnum>  (220) 
5

>  <i_i_glide_lignum>  (220) 
519

>  <i_i_glide_posenum>  (220) 
13

>  <i_i_glide_rotatable_bonds>  (220) 
9

>  <i_lp_mmshare_version>  (220) 
65135

>  <i_m_ct_format>  (220) 
2

>  <i_m_source_file_index>  (220) 
1801

>  <i_qp_#NandO>  (220) 
6

>  <i_qp_#acid>  (220) 
0

>  <i_qp_#amide>  (220) 
1

>  <i_qp_#amidine>  (220) 
0

>  <i_qp_#amine>  (220) 
1

>  <i_qp_#in34>  (220) 
0

>  <i_qp_#in56>  (220) 
21

>  <i_qp_#metab>  (220) 
4

>  <i_qp_#nonHatm>  (220) 
31

>  <i_qp_#noncon>  (220) 
0

>  <i_qp_#ringatoms>  (220) 
21

>  <i_qp_#rotor>  (220) 
6

>  <i_qp_#rtvFG>  (220) 
0

>  <i_qp_#stars>  (220) 
0

>  <i_qp_CNS>  (220) 
1

>  <i_qp_HumanOralAbsorption>  (220) 
3

>  <i_qp_RuleOfFive>  (220) 
0

>  <i_qp_RuleOfThree>  (220) 
0

>  <i_sd_BIOSOLVEIT.INFINISEE\_REAGENT1\_NAME>  (220) 
22523280

>  <i_sd_BIOSOLVEIT.INFINISEE\_REAGENT2\_NAME>  (220) 
21660874

>  <i_sd_BIOSOLVEIT.INFINISEE\_RESULT\_RANK>  (220) 
77917

>  <i_sd_version>  (220) 
0

>  <b_lp_Chiralities_Consistent>  (220) 
1

>  <b_sd_chiral_flag>  (220) 
0

>  <canonical_id>  (220) 
ATP-HTVS-22E536A2C0FA

>  <compound_code>  (220) 
57601

>  <title>  (220) 
m_2430bbb____22523280____21660874

>  <variant>  (220) 
57601-1

>  <source_file>  (220) 
运行/运行/ATP-VSW/ATP-VSW-DOCK_HTVS_1-001_lib/ATP-VSW-DOCK_HTVS_1-001_lib

>  <canonical_smiles>  (220) 
C[NH+](C)Cc1ccccc1NC(=O)NCCc1nc2ccccc2n1-c1ccccc1

>  <scaffold>  (220) 
O=C(NCCc1nc2ccccc2n1-c1ccccc1)Nc1ccccc1

>  <molecular_formula>  (220) 
C25H28N5O+

$$$$
ATP-HTVS-22FAF80E23F8
     RDKit          3D

 52 55  0  0  0  0  0  0  0  0999 V2000
  193.1929  186.2670  161.9239 O   0  0  0  0  0  0  0  0  0  0  0  0
  193.8739  187.2764  161.7381 C   0  0  0  0  0  0  0  0  0  0  0  0
  194.9920  187.3513  160.9896 N   0  0  0  0  0  0  0  0  0  0  0  0
  195.6507  186.3444  160.2261 C   0  0  0  0  0  0  0  0  0  0  0  0
  196.8568  186.6905  159.5796 C   0  0  0  0  0  0  0  0  0  0  0  0
  197.5549  185.7305  158.8133 C   0  0  0  0  0  0  0  0  0  0  0  0
  197.0559  184.4193  158.6942 C   0  0  0  0  0  0  0  0  0  0  0  0
  195.8548  184.0697  159.3428 C   0  0  0  0  0  0  0  0  0  0  0  0
  195.1408  185.0278  160.0868 C   0  0  0  0  0  0  0  0  0  0  0  0
  197.8098  183.3829  157.8888 C   0  0  1  0  0  0  0  0  0  0  0  0
  196.9689  182.1383  157.5734 C   0  0  1  0  0  0  0  0  0  0  0  0
  197.8210  181.0535  157.0993 N   0  0  0  0  0  0  0  0  0  0  0  0
  197.9015  180.6723  155.7620 C   0  0  0  0  0  0  0  0  0  0  0  0
  197.0527  181.2422  154.8725 N   0  0  0  0  0  0  0  0  0  0  0  0
  197.0648  180.9595  153.5662 N   0  0  0  0  0  0  0  0  0  0  0  0
  197.9770  180.0769  153.0983 C   0  0  0  0  0  0  0  0  0  0  0  0
  198.9105  179.4221  153.9491 C   0  0  0  0  0  0  0  0  0  0  0  0
  198.8501  179.7150  155.3332 C   0  0  0  0  0  0  0  0  0  0  0  0
  199.7475  179.0720  156.2299 C   0  0  0  0  0  0  0  0  0  0  0  0
  200.7078  178.1599  155.7515 C   0  0  0  0  0  0  0  0  0  0  0  0
  200.7822  177.8868  154.3736 C   0  0  0  0  0  0  0  0  0  0  0  0
  199.9014  178.5265  153.4761 C   0  0  0  0  0  0  0  0  0  0  0  0
  197.8852  179.8763  151.6408 C   0  0  0  0  0  0  0  0  0  0  0  0
  197.8064  180.9854  150.7667 C   0  0  0  0  0  0  0  0  0  0  0  0
  197.7345  180.7921  149.3756 C   0  0  0  0  0  0  0  0  0  0  0  0
  197.7360  179.4905  148.8392 C   0  0  0  0  0  0  0  0  0  0  0  0
  197.8060  178.3810  149.6995 C   0  0  0  0  0  0  0  0  0  0  0  0
  197.8635  178.5781  151.0910 C   0  0  0  0  0  0  0  0  0  0  0  0
  193.4216  188.5727  162.3941 C   0  0  2  0  0  0  0  0  0  0  0  0
  195.4029  188.2707  160.9276 H   0  0  0  0  0  0  0  0  0  0  0  0
  197.2636  187.6939  159.6452 H   0  0  0  0  0  0  0  0  0  0  0  0
  198.4756  185.9985  158.3216 H   0  0  0  0  0  0  0  0  0  0  0  0
  195.4530  183.0615  159.2680 H   0  0  0  0  0  0  0  0  0  0  0  0
  194.2077  184.7159  160.5286 H   0  0  0  0  0  0  0  0  0  0  0  0
  198.1563  183.8273  156.9650 H   0  0  0  0  0  0  0  0  0  0  0  0
  198.6933  183.1095  158.4502 H   0  0  0  0  0  0  0  0  0  0  0  0
  196.4803  181.7543  158.4747 H   0  0  0  0  0  0  0  0  0  0  0  0
  196.1540  182.3961  156.8916 H   0  0  0  0  0  0  0  0  0  0  0  0
  198.2320  180.4581  157.7937 H   0  0  0  0  0  0  0  0  0  0  0  0
  199.7155  179.2554  157.2924 H   0  0  0  0  0  0  0  0  0  0  0  0
  201.3975  177.6744  156.4346 H   0  0  0  0  0  0  0  0  0  0  0  0
  201.5126  177.1883  153.9937 H   0  0  0  0  0  0  0  0  0  0  0  0
  200.0261  178.3148  152.4226 H   0  0  0  0  0  0  0  0  0  0  0  0
  197.8050  181.9934  151.1617 H   0  0  0  0  0  0  0  0  0  0  0  0
  197.6814  181.6521  148.7272 H   0  0  0  0  0  0  0  0  0  0  0  0
  197.6827  179.3353  147.7724 H   0  0  0  0  0  0  0  0  0  0  0  0
  197.8186  177.3763  149.3069 H   0  0  0  0  0  0  0  0  0  0  0  0
  197.8918  177.7095  151.7280 H   0  0  0  0  0  0  0  0  0  0  0  0
  194.0271  189.4224  162.0719 H   0  0  0  0  0  0  0  0  0  0  0  0
  193.4934  188.4611  163.4769 H   0  0  0  0  0  0  0  0  0  0  0  0
  192.3797  188.7688  162.1307 H   0  0  0  0  0  0  0  0  0  0  0  0
  196.3607  181.9033  155.2200 H   0  0  0  0  0  0  0  0  0  0  0  0
  1  2  2  0
  2  3  1  0
  2 29  1  0
  3  4  1  0
  3 30  1  0
  4  5  1  0
  4  9  2  0
  5  6  2  0
  5 31  1  0
  6  7  1  0
  6 32  1  0
  7  8  2  0
  7 10  1  0
  8  9  1  0
  8 33  1  0
  9 34  1  0
 10 11  1  0
 10 35  1  6
 10 36  1  0
 11 12  1  0
 11 37  1  1
 11 38  1  0
 12 13  1  0
 12 39  1  0
 13 14  2  0
 13 18  1  0
 14 15  1  0
 14 52  1  0
 15 16  2  0
 16 17  1  0
 16 23  1  0
 17 18  1  0
 17 22  2  0
 18 19  2  0
 19 20  1  0
 19 40  1  0
 20 21  2  0
 20 41  1  0
 21 22  1  0
 21 42  1  0
 22 43  1  0
 23 24  2  0
 23 28  1  0
 24 25  1  0
 24 44  1  0
 25 26  2  0
 25 45  1  0
 26 27  1  0
 26 46  1  0
 27 28  2  0
 27 47  1  0
 28 48  1  0
 29 49  1  6
 29 50  1  0
 29 51  1  0
M  CHG  1  14   1
M  END
>  <s_epik_cmdline>  (221) 
J2VwaWtfcHl0aG9uJywgJy1waCcsICc3LjAwMDAwMCcsICctcGh0JywgJzIuMDAwMDAwJywgJy1tcycsICcxNicsICctdG4nLCAnOCcsICctbWEnLCAnMjAwJywgJy1pbWFlJywgJzxpbmZpbGUubWFlPicsICctb21hZScsICc8b3V0ZmlsZS5tYWU+Jw==

>  <s_epik_input>  (221) 
Tz1DKFtDSDNdKVtOSF1jMVtjSF1bY0hdYyhbY0hdW2NIXTEpW0NIMl1bQ0gyXVtOSF1jKGMoYzIzKVtjSF1bY0hdW2NIXVtjSF0zKW5uYzItYzRbY0hdW2NIXVtjSF1bY0hdW2NIXTQ=

>  <s_i_glide_gridfile>  (221) 
ATP-Grid

>  <s_lp_Force_Field>  (221) 
OPLS_2005

>  <s_lp_Variant>  (221) 
rxn504c____EMOL713989____EMOL38934952____EMOL830635-2

>  <s_lp_label>  (221) 
2951_sdstereoexpander_1_neutralizer_1_epik_2_stereoizer_1

>  <s_m_source_file>  (221) 
ATP-VSW-LIGPREP-001-in.maegz

>  <s_sd_BIOSOLVEIT.INFINISEE\_QUERY\_NAME>  (221) 
Ref-Lig

>  <s_sd_BIOSOLVEIT.INFINISEE\_QUERY\_SMILES>  (221) 
S(c1nc2c(cc1C[NH2+]Cc3ccc(cc3)C[NH+](C)C)cccc2)Cc4ccccc4

>  <s_sd_BIOSOLVEIT.INFINISEE\_REACTION\_NAME>  (221) 
rxn504c

>  <s_sd_BIOSOLVEIT.INFINISEE\_REAGENT1\_NAME>  (221) 
EMOL713989

>  <s_sd_BIOSOLVEIT.INFINISEE\_REAGENT1\_SMILES>  (221) 
[O-]C(=O)C

>  <s_sd_BIOSOLVEIT.INFINISEE\_REAGENT2\_NAME>  (221) 
EMOL38934952

>  <s_sd_BIOSOLVEIT.INFINISEE\_REAGENT2\_SMILES>  (221) 
O=C(OC(C)(C)C)Nc1ccc(cc1)CCN

>  <s_sd_BIOSOLVEIT.INFINISEE\_REAGENT3\_NAME>  (221) 
EMOL830635

>  <s_sd_BIOSOLVEIT.INFINISEE\_REAGENT3\_SMILES>  (221) 
Clc1nnc(c2c1cccc2)c3ccccc3

>  <s_sd_BIOSOLVEIT.INFINISEE\_SPACE>  (221) 
eXplore_7tr_2022-12

>  <s_vsw_compound_code>  (221) 
94401

>  <s_vsw_variant>  (221) 
94401-2

>  <r_epik_Charging_Adjusted_Penalty>  (221) 
1.25931284274976

>  <r_epik_Ionization_Penalty>  (221) 
0.61070000000000002

>  <r_epik_Ionization_Penalty_Charging>  (221) 
0.61070000000000002

>  <r_epik_Ionization_Penalty_Neutral>  (221) 
0

>  <r_epik_State_Penalty>  (221) 
0.64859999999999995

>  <r_i_docking_score>  (221) 
-3.6389169980789702

>  <r_i_glide_ecoul>  (221) 
-5.6619105339050302

>  <r_i_glide_eff_state_penalty>  (221) 
0.64859999999999995

>  <r_i_glide_einternal>  (221) 
4.7725572586059597

>  <r_i_glide_emodel>  (221) 
-50.856629012825799

>  <r_i_glide_energy>  (221) 
-38.725268840789802

>  <r_i_glide_erotb>  (221) 
0.79291257533905701

>  <r_i_glide_esite>  (221) 
-0.1146333351783

>  <r_i_glide_evdw>  (221) 
-33.063358306884801

>  <r_i_glide_gscore>  (221) 
-4.2875169980789698

>  <r_i_glide_hbond>  (221) 
0

>  <r_i_glide_ligand_efficiency>  (221) 
-0.125479896485482

>  <r_i_glide_ligand_efficiency_ln>  (221) 
-0.83321971758671598

>  <r_i_glide_ligand_efficiency_sa>  (221) 
-0.38551399682495102

>  <r_i_glide_lipo>  (221) 
-1.4250925559626799

>  <r_i_glide_metal>  (221) 
-0

>  <r_i_glide_rewards>  (221) 
-1.03824918684706

>  <r_lp_Energy>  (221) 
39.894396999999998

>  <r_qp_ACxDN^.5/SA>  (221) 
0.0094455000000000008

>  <r_qp_CIQPlogS>  (221) 
-6.2359999999999998

>  <r_qp_EA(eV)>  (221) 
0.89300000000000002

>  <r_qp_FISA>  (221) 
100.42400000000001

>  <r_qp_FOSA>  (221) 
161.542

>  <r_qp_IP(eV)>  (221) 
8.3119999999999994

>  <r_qp_Jm>  (221) 
0.0035726555110520502

>  <r_qp_PISA>  (221) 
486.65199999999999

>  <r_qp_PSA>  (221) 
74.668000000000006

>  <r_qp_PercentHumanOralAbsorption>  (221) 
100

>  <r_qp_QPPCaco>  (221) 
1105.556

>  <r_qp_QPPMDCK>  (221) 
551.38599999999997

>  <r_qp_QPlogBB>  (221) 
-0.93600000000000005

>  <r_qp_QPlogHERG>  (221) 
-7.6200000000000001

>  <r_qp_QPlogKhsa>  (221) 
0.82299999999999995

>  <r_qp_QPlogKp>  (221) 
-1.0800000000000001

>  <r_qp_QPlogPC16>  (221) 
14.999000000000001

>  <r_qp_QPlogPo/w>  (221) 
4.9969999999999999

>  <r_qp_QPlogPoct>  (221) 
21.859999999999999

>  <r_qp_QPlogPw>  (221) 
12.045

>  <r_qp_QPlogS>  (221) 
-6.9500000000000002

>  <r_qp_QPpolrz>  (221) 
46.430999999999997

>  <r_qp_SASA>  (221) 
748.61800000000005

>  <r_qp_SAamideO>  (221) 
0

>  <r_qp_SAfluorine>  (221) 
0

>  <r_qp_WPSA>  (221) 
0

>  <r_qp_accptHB>  (221) 
5

>  <r_qp_dip^2/V>  (221) 
0.0617008

>  <r_qp_dipole>  (221) 
8.9359999999999999

>  <r_qp_donorHB>  (221) 
2

>  <r_qp_glob>  (221) 
0.76715940000000005

>  <r_qp_mol_MW>  (221) 
382.464

>  <r_qp_volume>  (221) 
1294.1089999999999

>  <r_sd_BIOSOLVEIT.INFINISEE\_FTREES\_SIMILARITY>  (221) 
0.90300000000000002

>  <r_sd_BIOSOLVEIT.LOGP>  (221) 
4.9097999999999997

>  <r_sd_BIOSOLVEIT.MOLECULAR\_WEIGHT>  (221) 
382.46499999999997

>  <r_sd_BIOSOLVEIT.TPSA>  (221) 
66.909999999999997

>  <i_epik_Tot_Q>  (221) 
1

>  <i_epik_Tot_abs_Q>  (221) 
1

>  <i_f3d_flags>  (221) 
0

>  <i_i_glide_confnum>  (221) 
1

>  <i_i_glide_lignum>  (221) 
1397

>  <i_i_glide_posenum>  (221) 
19

>  <i_i_glide_rotatable_bonds>  (221) 
7

>  <i_lp_mmshare_version>  (221) 
65135

>  <i_m_ct_format>  (221) 
2

>  <i_m_source_file_index>  (221) 
2951

>  <i_qp_#NandO>  (221) 
5

>  <i_qp_#acid>  (221) 
0

>  <i_qp_#amide>  (221) 
0

>  <i_qp_#amidine>  (221) 
0

>  <i_qp_#amine>  (221) 
0

>  <i_qp_#in34>  (221) 
0

>  <i_qp_#in56>  (221) 
22

>  <i_qp_#metab>  (221) 
1

>  <i_qp_#nonHatm>  (221) 
29

>  <i_qp_#noncon>  (221) 
0

>  <i_qp_#ringatoms>  (221) 
22

>  <i_qp_#rotor>  (221) 
6

>  <i_qp_#rtvFG>  (221) 
0

>  <i_qp_#stars>  (221) 
2

>  <i_qp_CNS>  (221) 
-1

>  <i_qp_HumanOralAbsorption>  (221) 
1

>  <i_qp_RuleOfFive>  (221) 
0

>  <i_qp_RuleOfThree>  (221) 
1

>  <i_sd_BIOSOLVEIT.INFINISEE\_RESULT\_RANK>  (221) 
80166

>  <i_sd_version>  (221) 
0

>  <b_lp_Chiralities_Consistent>  (221) 
1

>  <b_sd_chiral_flag>  (221) 
0

>  <canonical_id>  (221) 
ATP-HTVS-22FAF80E23F8

>  <compound_code>  (221) 
94401

>  <title>  (221) 
rxn504c____EMOL713989____EMOL38934952____EMOL830635

>  <variant>  (221) 
94401-2

>  <source_file>  (221) 
运行/运行/ATP-VSW/ATP-VSW-DOCK_HTVS_1-001_lib/ATP-VSW-DOCK_HTVS_1-001_lib

>  <canonical_smiles>  (221) 
CC(=O)Nc1ccc(CCNc2[nH+]nc(-c3ccccc3)c3ccccc23)cc1

>  <scaffold>  (221) 
c1ccc(CCNc2[nH+]nc(-c3ccccc3)c3ccccc23)cc1

>  <molecular_formula>  (221) 
C24H23N4O+

$$$$
ATP-HTVS-23113A9B9381
     RDKit          3D

 61 64  0  0  0  0  0  0  0  0999 V2000
  203.9362  184.0076  157.4843 F   0  0  0  0  0  0  0  0  0  0  0  0
  203.5512  183.6737  158.7390 C   0  0  0  0  0  0  0  0  0  0  0  0
  203.1601  182.3438  158.9932 C   0  0  0  0  0  0  0  0  0  0  0  0
  202.7141  182.0037  160.2913 C   0  0  0  0  0  0  0  0  0  0  0  0
  202.6555  182.9635  161.3285 C   0  0  0  0  0  0  0  0  0  0  0  0
  203.0427  184.2945  161.0801 C   0  0  0  0  0  0  0  0  0  0  0  0
  203.4983  184.6482  159.7761 C   0  0  0  0  0  0  0  0  0  0  0  0
  203.1432  181.2829  157.8766 C   0  0  1  0  0  0  0  0  0  0  0  0
  201.8256  180.7049  157.6109 N   0  0  0  0  0  0  0  0  0  0  0  0
  200.7798  181.4786  157.0635 C   0  0  0  0  0  0  0  0  0  0  0  0
  200.8541  182.8153  157.1925 N   0  0  0  0  0  0  0  0  0  0  0  0
  199.9082  183.5886  156.6419 C   0  0  0  0  0  0  0  0  0  0  0  0
  198.8753  183.0956  155.9762 N   0  0  0  0  0  0  0  0  0  0  0  0
  198.7243  181.7695  155.8360 C   0  0  0  0  0  0  0  0  0  0  0  0
  199.7061  180.8877  156.3750 C   0  0  0  0  0  0  0  0  0  0  0  0
  199.5447  179.4921  156.1979 C   0  0  0  0  0  0  0  0  0  0  0  0
  198.4152  179.0014  155.5123 C   0  0  0  0  0  0  0  0  0  0  0  0
  197.4365  179.8815  155.0140 C   0  0  0  0  0  0  0  0  0  0  0  0
  197.5969  181.2727  155.1705 C   0  0  0  0  0  0  0  0  0  0  0  0
  200.0566  184.9522  156.8063 N   0  0  0  0  0  0  0  0  0  0  0  0
  198.9602  185.9037  156.6411 C   0  0  1  0  0  0  0  0  0  0  0  0
  198.0034  185.9915  157.8272 C   0  0  0  0  0  0  0  0  0  0  0  0
  197.5281  184.8258  158.4740 C   0  0  0  0  0  0  0  0  0  0  0  0
  196.5724  184.9126  159.5029 C   0  0  0  0  0  0  0  0  0  0  0  0
  196.1472  186.1777  159.9515 C   0  0  0  0  0  0  0  0  0  0  0  0
  195.2325  186.2786  160.9467 F   0  0  0  0  0  0  0  0  0  0  0  0
  196.6425  187.3492  159.3378 C   0  0  0  0  0  0  0  0  0  0  0  0
  197.5563  187.2555  158.2660 C   0  0  0  0  0  0  0  0  0  0  0  0
  195.9636  183.6357  160.0707 C   0  0  1  0  0  0  0  0  0  0  0  0
  194.9404  183.0010  159.2279 N   0  0  0  0  0  0  0  0  0  0  0  0
  195.4755  182.3817  158.0158 C   0  0  2  0  0  0  0  0  0  0  0  0
  193.8566  183.9142  158.8842 C   0  0  2  0  0  0  0  0  0  0  0  0
  203.8284  181.6723  156.5429 C   0  0  2  0  0  0  0  0  0  0  0  0
  202.3916  180.9912  160.4815 H   0  0  0  0  0  0  0  0  0  0  0  0
  202.3013  182.6694  162.3158 H   0  0  0  0  0  0  0  0  0  0  0  0
  202.9811  185.0385  161.8759 H   0  0  0  0  0  0  0  0  0  0  0  0
  203.7792  185.6797  159.5993 H   0  0  0  0  0  0  0  0  0  0  0  0
  203.7083  180.4451  158.2795 H   0  0  0  0  0  0  0  0  0  0  0  0
  201.8070  179.7209  157.4005 H   0  0  0  0  0  0  0  0  0  0  0  0
  200.2498  178.7794  156.6035 H   0  0  0  0  0  0  0  0  0  0  0  0
  198.2713  177.9319  155.4230 H   0  0  0  0  0  0  0  0  0  0  0  0
  196.5493  179.4964  154.5309 H   0  0  0  0  0  0  0  0  0  0  0  0
  196.8308  181.9466  154.8083 H   0  0  0  0  0  0  0  0  0  0  0  0
  200.8477  185.2419  157.3515 H   0  0  0  0  0  0  0  0  0  0  0  0
  199.3886  186.8842  156.4280 H   0  0  0  0  0  0  0  0  0  0  0  0
  198.3905  185.6464  155.7486 H   0  0  0  0  0  0  0  0  0  0  0  0
  197.8382  183.8396  158.1646 H   0  0  0  0  0  0  0  0  0  0  0  0
  196.2948  188.3143  159.6705 H   0  0  0  0  0  0  0  0  0  0  0  0
  197.9081  188.1586  157.7816 H   0  0  0  0  0  0  0  0  0  0  0  0
  196.7636  182.9199  160.2592 H   0  0  0  0  0  0  0  0  0  0  0  0
  195.5472  183.8607  161.0515 H   0  0  0  0  0  0  0  0  0  0  0  0
  194.7019  181.8336  157.4703 H   0  0  0  0  0  0  0  0  0  0  0  0
  196.2586  181.6644  158.2711 H   0  0  0  0  0  0  0  0  0  0  0  0
  195.8842  183.1253  157.3287 H   0  0  0  0  0  0  0  0  0  0  0  0
  193.1140  183.4133  158.2606 H   0  0  0  0  0  0  0  0  0  0  0  0
  194.2333  184.7641  158.3158 H   0  0  0  0  0  0  0  0  0  0  0  0
  193.3605  184.2930  159.7801 H   0  0  0  0  0  0  0  0  0  0  0  0
  204.8555  182.0178  156.7142 H   0  0  0  0  0  0  0  0  0  0  0  0
  203.3212  182.5477  156.1037 H   0  0  0  0  0  0  0  0  0  0  0  0
  203.8557  180.8455  155.8449 H   0  0  0  0  0  0  0  0  0  0  0  0
  198.1363  183.6990  155.5700 H   0  0  0  0  0  0  0  0  0  0  0  0
  1  2  1  0
  2  3  1  0
  2  7  2  0
  3  4  2  0
  3  8  1  0
  4  5  1  0
  4 34  1  0
  5  6  2  0
  5 35  1  0
  6  7  1  0
  6 36  1  0
  7 37  1  0
  8  9  1  0
  8 33  1  0
  8 38  1  1
  9 10  1  0
  9 39  1  0
 10 11  2  0
 10 15  1  0
 11 12  1  0
 12 13  2  0
 12 20  1  0
 13 14  1  0
 13 61  1  0
 14 15  1  0
 14 19  2  0
 15 16  2  0
 16 17  1  0
 16 40  1  0
 17 18  2  0
 17 41  1  0
 18 19  1  0
 18 42  1  0
 19 43  1  0
 20 21  1  0
 20 44  1  0
 21 22  1  0
 21 45  1  6
 21 46  1  0
 22 23  2  0
 22 28  1  0
 23 24  1  0
 23 47  1  0
 24 25  2  0
 24 29  1  0
 25 26  1  0
 25 27  1  0
 27 28  2  0
 27 48  1  0
 28 49  1  0
 29 30  1  0
 29 50  1  1
 29 51  1  0
 30 31  1  0
 30 32  1  0
 31 52  1  6
 31 53  1  0
 31 54  1  0
 32 55  1  6
 32 56  1  0
 32 57  1  0
 33 58  1  1
 33 59  1  0
 33 60  1  0
M  CHG  1  13   1
M  END
>  <s_epik_cmdline>  (222) 
J2VwaWtfcHl0aG9uJywgJy1waCcsICc3LjAwMDAwMCcsICctcGh0JywgJzIuMDAwMDAwJywgJy1tcycsICcxNicsICctdG4nLCAnOCcsICctbWEnLCAnMjAwJywgJy1pbWFlJywgJzxpbmZpbGUubWFlPicsICctb21hZScsICc8b3V0ZmlsZS5tYWU+Jw==

>  <s_epik_input>  (222) 
W2NIXTFbY0hdW2NIXVtjSF1jKGMxRilbQ0BIXShbQ0gzXSlbTkhdYyhjKGMyMylbY0hdW2NIXVtjSF1bY0hdMyluYyhuMilbTkhdW0NIMl1jNFtjSF1jKGMoRilbY0hdW2NIXTQpW0NIMl1OKFtDSDNdKVtDSDNd

>  <s_i_glide_gridfile>  (222) 
ATP-Grid

>  <s_lp_Force_Field>  (222) 
OPLS_2005

>  <s_lp_Variant>  (222) 
m_282030aaa____21931854____22360182____21968946-4

>  <s_lp_label>  (222) 
1045_sdstereoexpander_2_neutralizer_1_epik_2_stereoizer_1

>  <s_m_source_file>  (222) 
ATP-VSW-LIGPREP-003-in.maegz

>  <s_sd_BIOSOLVEIT.INFINISEE\_QUERY\_NAME>  (222) 
Ref-Lig

>  <s_sd_BIOSOLVEIT.INFINISEE\_QUERY\_SMILES>  (222) 
S(c1nc2c(cc1C[NH2+]Cc3ccc(cc3)C[NH+](C)C)cccc2)Cc4ccccc4

>  <s_sd_BIOSOLVEIT.INFINISEE\_REACTION\_NAME>  (222) 
m_282030aaa

>  <s_sd_BIOSOLVEIT.INFINISEE\_REAGENT1\_SMILES>  (222) 
[R1*]NC(c1c(F)cccc1)C

>  <s_sd_BIOSOLVEIT.INFINISEE\_REAGENT2\_SMILES>  (222) 
[R2*]c1nc([R1*])c2c(n1)cccc2

>  <s_sd_BIOSOLVEIT.INFINISEE\_REAGENT3\_SMILES>  (222) 
[R2*]NCc1cc(c(F)cc1)CN(C)C

>  <s_sd_BIOSOLVEIT.INFINISEE\_SPACE>  (222) 
REALSpace_44bn_2023-08

>  <s_vsw_compound_code>  (222) 
33411

>  <s_vsw_variant>  (222) 
33411-4

>  <r_epik_Charging_Adjusted_Penalty>  (222) 
1.5252620351964099

>  <r_epik_Ionization_Penalty>  (222) 
1.494

>  <r_epik_Ionization_Penalty_Charging>  (222) 
0.022100000000000002

>  <r_epik_Ionization_Penalty_Neutral>  (222) 
1.4719

>  <r_epik_State_Penalty>  (222) 
1.5032000000000001

>  <r_i_docking_score>  (222) 
-2.1883865479935101

>  <r_i_glide_ecoul>  (222) 
-3.8585720062255899

>  <r_i_glide_eff_state_penalty>  (222) 
1.5032000000000001

>  <r_i_glide_einternal>  (222) 
16.893138885498001

>  <r_i_glide_emodel>  (222) 
-38.745227137465498

>  <r_i_glide_energy>  (222) 
-36.256792068481403

>  <r_i_glide_erotb>  (222) 
0.69706100735996501

>  <r_i_glide_esite>  (222) 
-0.0018177570142040699

>  <r_i_glide_evdw>  (222) 
-32.398220062255902

>  <r_i_glide_gscore>  (222) 
-3.6915865479935102

>  <r_i_glide_hbond>  (222) 
0

>  <r_i_glide_ligand_efficiency>  (222) 
-0.066314743878591306

>  <r_i_glide_ligand_efficiency_ln>  (222) 
-0.48668583741462601

>  <r_i_glide_ligand_efficiency_sa>  (222) 
-0.21270681732755201

>  <r_i_glide_lipo>  (222) 
-1.42996538489896

>  <r_i_glide_metal>  (222) 
-0

>  <r_i_glide_rewards>  (222) 
-0.758167609393677

>  <r_lp_Energy>  (222) 
15.982123

>  <r_qp_ACxDN^.5/SA>  (222) 
0.0111856

>  <r_qp_CIQPlogS>  (222) 
-6.5039999999999996

>  <r_qp_EA(eV)>  (222) 
0.82999999999999996

>  <r_qp_FISA>  (222) 
40.326999999999998

>  <r_qp_FOSA>  (222) 
241.04900000000001

>  <r_qp_IP(eV)>  (222) 
8.3049999999999997

>  <r_qp_Jm>  (222) 
0.41070563188248399

>  <r_qp_PISA>  (222) 
307.11599999999999

>  <r_qp_PSA>  (222) 
45.923000000000002

>  <r_qp_PercentHumanOralAbsorption>  (222) 
100

>  <r_qp_QPPCaco>  (222) 
1024.1849999999999

>  <r_qp_QPPMDCK>  (222) 
974.19100000000003

>  <r_qp_QPlogBB>  (222) 
0.25600000000000001

>  <r_qp_QPlogHERG>  (222) 
-5.3209999999999997

>  <r_qp_QPlogKhsa>  (222) 
0.76800000000000002

>  <r_qp_QPlogKp>  (222) 
-2.4750000000000001

>  <r_qp_QPlogPC16>  (222) 
12.759

>  <r_qp_QPlogPo/w>  (222) 
4.8179999999999996

>  <r_qp_QPlogPoct>  (222) 
19.931999999999999

>  <r_qp_QPlogPw>  (222) 
9.7089999999999996

>  <r_qp_QPlogS>  (222) 
-3.5619999999999998

>  <r_qp_QPpolrz>  (222) 
42.811999999999998

>  <r_qp_SASA>  (222) 
632.15700000000004

>  <r_qp_SAamideO>  (222) 
0

>  <r_qp_SAfluorine>  (222) 
43.664999999999999

>  <r_qp_WPSA>  (222) 
43.664999999999999

>  <r_qp_accptHB>  (222) 
5

>  <r_qp_dip^2/V>  (222) 
0.0058570999999999996

>  <r_qp_dipole>  (222) 
2.7370000000000001

>  <r_qp_donorHB>  (222) 
2

>  <r_qp_glob>  (222) 
0.90122469999999999

>  <r_qp_mol_MW>  (222) 
447.52999999999997

>  <r_qp_volume>  (222) 
1278.6130000000001

>  <r_sd_BIOSOLVEIT.INFINISEE\_FTREES\_SIMILARITY>  (222) 
0.91500000000000004

>  <r_sd_BIOSOLVEIT.LOGP>  (222) 
4.3376999999999999

>  <r_sd_BIOSOLVEIT.MOLECULAR\_WEIGHT>  (222) 
448.53800000000001

>  <r_sd_BIOSOLVEIT.TPSA>  (222) 
54.280000000000001

>  <i_epik_Tot_Q>  (222) 
1

>  <i_epik_Tot_abs_Q>  (222) 
1

>  <i_f3d_flags>  (222) 
0

>  <i_i_glide_confnum>  (222) 
2

>  <i_i_glide_lignum>  (222) 
398

>  <i_i_glide_posenum>  (222) 
10

>  <i_i_glide_rotatable_bonds>  (222) 
8

>  <i_lp_mmshare_version>  (222) 
65135

>  <i_m_ct_format>  (222) 
2

>  <i_m_source_file_index>  (222) 
1045

>  <i_qp_#NandO>  (222) 
5

>  <i_qp_#acid>  (222) 
0

>  <i_qp_#amide>  (222) 
0

>  <i_qp_#amidine>  (222) 
0

>  <i_qp_#amine>  (222) 
1

>  <i_qp_#in34>  (222) 
0

>  <i_qp_#in56>  (222) 
22

>  <i_qp_#metab>  (222) 
5

>  <i_qp_#nonHatm>  (222) 
33

>  <i_qp_#noncon>  (222) 
0

>  <i_qp_#ringatoms>  (222) 
22

>  <i_qp_#rotor>  (222) 
8

>  <i_qp_#rtvFG>  (222) 
0

>  <i_qp_#stars>  (222) 
0

>  <i_qp_CNS>  (222) 
1

>  <i_qp_HumanOralAbsorption>  (222) 
3

>  <i_qp_RuleOfFive>  (222) 
0

>  <i_qp_RuleOfThree>  (222) 
0

>  <i_sd_BIOSOLVEIT.INFINISEE\_REAGENT1\_NAME>  (222) 
21931854

>  <i_sd_BIOSOLVEIT.INFINISEE\_REAGENT2\_NAME>  (222) 
22360182

>  <i_sd_BIOSOLVEIT.INFINISEE\_REAGENT3\_NAME>  (222) 
21968946

>  <i_sd_BIOSOLVEIT.INFINISEE\_RESULT\_RANK>  (222) 
29378

>  <i_sd_version>  (222) 
0

>  <b_lp_Chiralities_Consistent>  (222) 
1

>  <b_sd_chiral_flag>  (222) 
0

>  <canonical_id>  (222) 
ATP-HTVS-23113A9B9381

>  <compound_code>  (222) 
33411

>  <title>  (222) 
m_282030aaa____21931854____22360182____21968946

>  <variant>  (222) 
33411-4

>  <source_file>  (222) 
运行/运行/ATP-VSW/ATP-VSW-DOCK_HTVS_1-003_lib/ATP-VSW-DOCK_HTVS_1-003_lib.mae

>  <canonical_smiles>  (222) 
C[C@H](Nc1nc(NCc2ccc(F)c(CN(C)C)c2)[nH+]c2ccccc12)c1ccccc1F

>  <scaffold>  (222) 
c1ccc(CNc2nc(NCc3ccccc3)c3ccccc3[nH+]2)cc1

>  <molecular_formula>  (222) 
C26H28F2N5+

$$$$
ATP-HTVS-2368A2FD4D76
     RDKit          3D

 63 66  0  0  0  0  0  0  0  0999 V2000
  198.0627  182.2375  157.7142 O   0  0  0  0  0  0  0  0  0  0  0  0
  197.9840  183.0581  156.8116 C   0  0  0  0  0  0  0  0  0  0  0  0
  198.3061  182.7812  155.5321 N   0  0  0  0  0  0  0  0  0  0  0  0
  198.7303  181.5220  155.0064 C   0  0  0  0  0  0  0  0  0  0  0  0
  199.8350  180.8048  155.5418 C   0  0  0  0  0  0  0  0  0  0  0  0
  200.5733  181.3417  156.6064 N   0  0  0  0  0  0  0  0  0  0  0  0
  201.8290  180.7947  157.1009 C   0  0  1  0  0  0  0  0  0  0  0  0
  202.8850  180.9669  156.0772 C   0  0  0  0  0  0  0  0  0  0  0  0
  203.7064  181.1095  155.2710 N   0  0  0  0  0  0  0  0  0  0  0  0
  202.2563  181.4335  158.4264 C   0  0  0  0  0  0  0  0  0  0  0  0
  201.6080  182.5770  158.9584 C   0  0  0  0  0  0  0  0  0  0  0  0
  202.0340  183.1380  160.1734 C   0  0  0  0  0  0  0  0  0  0  0  0
  203.1208  182.5940  160.8809 C   0  0  0  0  0  0  0  0  0  0  0  0
  203.4794  183.2254  162.0507 O   0  0  0  0  0  0  0  0  0  0  0  0
  204.7208  182.8853  162.6397 C   0  0  2  0  0  0  0  0  0  0  0  0
  203.7671  181.4445  160.3613 C   0  0  0  0  0  0  0  0  0  0  0  0
  203.3347  180.8722  159.1457 C   0  0  0  0  0  0  0  0  0  0  0  0
  200.1666  179.5635  154.9579 C   0  0  0  0  0  0  0  0  0  0  0  0
  199.5188  179.0431  153.8997 N   0  0  0  0  0  0  0  0  0  0  0  0
  198.5008  179.7377  153.3523 C   0  0  0  0  0  0  0  0  0  0  0  0
  198.0654  180.9911  153.8692 C   0  0  0  0  0  0  0  0  0  0  0  0
  196.9869  181.6738  153.2536 C   0  0  0  0  0  0  0  0  0  0  0  0
  196.3584  181.1297  152.1198 C   0  0  0  0  0  0  0  0  0  0  0  0
  196.7892  179.8974  151.6015 C   0  0  0  0  0  0  0  0  0  0  0  0
  197.8564  179.2157  152.2129 C   0  0  0  0  0  0  0  0  0  0  0  0
  197.4887  184.4561  157.0840 C   0  0  0  0  0  0  0  0  0  0  0  0
  196.5682  184.7575  158.1381 C   0  0  0  0  0  0  0  0  0  0  0  0
  196.1676  186.1014  158.3325 C   0  0  0  0  0  0  0  0  0  0  0  0
  196.6578  187.1398  157.5173 C   0  0  0  0  0  0  0  0  0  0  0  0
  197.5705  186.8465  156.4921 C   0  0  0  0  0  0  0  0  0  0  0  0
  197.9821  185.5187  156.2812 C   0  0  0  0  0  0  0  0  0  0  0  0
  195.9749  183.6989  159.0753 C   0  0  1  0  0  0  0  0  0  0  0  0
  194.8859  182.9258  158.4189 N   0  0  2  0  0  0  0  0  0  0  0  0
  193.5696  183.5873  158.5327 C   0  0  2  0  0  0  0  0  0  0  0  0
  194.8393  181.5144  158.8457 C   0  0  2  0  0  0  0  0  0  0  0  0
  198.0728  183.4836  154.8453 H   0  0  0  0  0  0  0  0  0  0  0  0
  200.2972  182.2474  156.9617 H   0  0  0  0  0  0  0  0  0  0  0  0
  201.7125  179.7214  157.2897 H   0  0  0  0  0  0  0  0  0  0  0  0
  200.7772  183.0548  158.4610 H   0  0  0  0  0  0  0  0  0  0  0  0
  201.5330  184.0104  160.5635 H   0  0  0  0  0  0  0  0  0  0  0  0
  204.8528  183.4840  163.5403 H   0  0  0  0  0  0  0  0  0  0  0  0
  205.5427  183.1085  161.9605 H   0  0  0  0  0  0  0  0  0  0  0  0
  204.7577  181.8356  162.9287 H   0  0  0  0  0  0  0  0  0  0  0  0
  204.6020  180.9829  160.8678 H   0  0  0  0  0  0  0  0  0  0  0  0
  203.8357  179.9928  158.7610 H   0  0  0  0  0  0  0  0  0  0  0  0
  200.9805  178.9605  155.3316 H   0  0  0  0  0  0  0  0  0  0  0  0
  196.6183  182.6211  153.6252 H   0  0  0  0  0  0  0  0  0  0  0  0
  195.5442  181.6620  151.6531 H   0  0  0  0  0  0  0  0  0  0  0  0
  196.3059  179.4700  150.7367 H   0  0  0  0  0  0  0  0  0  0  0  0
  198.1946  178.2661  151.8206 H   0  0  0  0  0  0  0  0  0  0  0  0
  195.4634  186.3513  159.1120 H   0  0  0  0  0  0  0  0  0  0  0  0
  196.3427  188.1658  157.6793 H   0  0  0  0  0  0  0  0  0  0  0  0
  197.9551  187.6385  155.8629 H   0  0  0  0  0  0  0  0  0  0  0  0
  198.7153  185.3486  155.5030 H   0  0  0  0  0  0  0  0  0  0  0  0
  196.7523  183.0457  159.4805 H   0  0  0  0  0  0  0  0  0  0  0  0
  195.5808  184.1897  159.9642 H   0  0  0  0  0  0  0  0  0  0  0  0
  193.2430  183.6608  159.5694 H   0  0  0  0  0  0  0  0  0  0  0  0
  192.8052  183.0453  157.9703 H   0  0  0  0  0  0  0  0  0  0  0  0
  193.6222  184.6000  158.1302 H   0  0  0  0  0  0  0  0  0  0  0  0
  194.6216  181.4275  159.9039 H   0  0  0  0  0  0  0  0  0  0  0  0
  195.8075  181.0461  158.6710 H   0  0  0  0  0  0  0  0  0  0  0  0
  194.0788  180.9599  158.2933 H   0  0  0  0  0  0  0  0  0  0  0  0
  195.0726  182.8876  157.4242 H   0  0  0  0  0  0  0  0  0  0  0  0
  1  2  2  0
  2  3  1  0
  2 26  1  0
  3  4  1  0
  3 36  1  0
  4  5  2  0
  4 21  1  0
  5  6  1  0
  5 18  1  0
  6  7  1  0
  6 37  1  0
  7  8  1  0
  7 10  1  0
  7 38  1  1
  8  9  3  0
 10 11  1  0
 10 17  2  0
 11 12  2  0
 11 39  1  0
 12 13  1  0
 12 40  1  0
 13 14  1  0
 13 16  2  0
 14 15  1  0
 15 41  1  1
 15 42  1  0
 15 43  1  0
 16 17  1  0
 16 44  1  0
 17 45  1  0
 18 19  2  0
 18 46  1  0
 19 20  1  0
 20 21  1  0
 20 25  2  0
 21 22  2  0
 22 23  1  0
 22 47  1  0
 23 24  2  0
 23 48  1  0
 24 25  1  0
 24 49  1  0
 25 50  1  0
 26 27  1  0
 26 31  2  0
 27 28  2  0
 27 32  1  0
 28 29  1  0
 28 51  1  0
 29 30  2  0
 29 52  1  0
 30 31  1  0
 30 53  1  0
 31 54  1  0
 32 33  1  0
 32 55  1  1
 32 56  1  0
 33 34  1  0
 33 35  1  0
 33 63  1  6
 34 57  1  1
 34 58  1  0
 34 59  1  0
 35 60  1  1
 35 61  1  0
 35 62  1  0
M  CHG  1  33   1
M  END
>  <s_epik_cmdline>  (223) 
J2VwaWtfcHl0aG9uJywgJy1waCcsICc3LjAwMDAwMCcsICctcGh0JywgJzIuMDAwMDAwJywgJy1tcycsICcxNicsICctdG4nLCAnOCcsICctbWEnLCAnMjAwJywgJy1pbWFlJywgJzxpbmZpbGUubWFlPicsICctb21hZScsICc8b3V0ZmlsZS5tYWU+Jw==

>  <s_epik_input>  (223) 
W2NIXTFbY0hdW2NIXVtjSF1jKFtDSDJdTihbQ0gzXSlbQ0gzXSljMUMoPU8pW05IXWMoYyhjMjMpW2NIXVtjSF1bY0hdW2NIXTMpYyhbY0hdbjIpW05IXVtDQEBIXShDI04pYzRbY0hdW2NIXWMoT1tDSDNdKVtjSF1bY0hdNA==

>  <s_i_glide_gridfile>  (223) 
ATP-Grid

>  <s_lp_Force_Field>  (223) 
OPLS_2005

>  <s_lp_Variant>  (223) 
rxn502b____EMOL5415347____EMOL13728749____EMOL37339719-1

>  <s_lp_label>  (223) 
2743_sdstereoexpander_1_neutralizer_1_epik_1_stereoizer_1

>  <s_m_source_file>  (223) 
ATP-VSW-LIGPREP-001-in.maegz

>  <s_sd_BIOSOLVEIT.INFINISEE\_QUERY\_NAME>  (223) 
Ref-Lig

>  <s_sd_BIOSOLVEIT.INFINISEE\_QUERY\_SMILES>  (223) 
S(c1nc2c(cc1C[NH2+]Cc3ccc(cc3)C[NH+](C)C)cccc2)Cc4ccccc4

>  <s_sd_BIOSOLVEIT.INFINISEE\_REACTION\_NAME>  (223) 
rxn502b

>  <s_sd_BIOSOLVEIT.INFINISEE\_REAGENT1\_NAME>  (223) 
EMOL5415347

>  <s_sd_BIOSOLVEIT.INFINISEE\_REAGENT1\_SMILES>  (223) 
O=C(O)c1c(cccc1)CN(C)C

>  <s_sd_BIOSOLVEIT.INFINISEE\_REAGENT2\_NAME>  (223) 
EMOL13728749

>  <s_sd_BIOSOLVEIT.INFINISEE\_REAGENT2\_SMILES>  (223) 
Brc1c(N)c2c(nc1)cccc2

>  <s_sd_BIOSOLVEIT.INFINISEE\_REAGENT3\_NAME>  (223) 
EMOL37339719

>  <s_sd_BIOSOLVEIT.INFINISEE\_REAGENT3\_SMILES>  (223) 
O(c1ccc(cc1)C(N)C#N)C

>  <s_sd_BIOSOLVEIT.INFINISEE\_SPACE>  (223) 
eXplore_7tr_2022-12

>  <s_vsw_compound_code>  (223) 
87745

>  <s_vsw_variant>  (223) 
87745-1

>  <r_epik_Charging_Adjusted_Penalty>  (223) 
0.13744553748542199

>  <r_epik_Ionization_Penalty>  (223) 
0.076399999999999996

>  <r_epik_Ionization_Penalty_Charging>  (223) 
0.060600000000000001

>  <r_epik_Ionization_Penalty_Neutral>  (223) 
0.015800000000000002

>  <r_epik_State_Penalty>  (223) 
0.076799999999999993

>  <r_i_docking_score>  (223) 
-4.0225300651820701

>  <r_i_glide_ecoul>  (223) 
-6.3117008209228498

>  <r_i_glide_eff_state_penalty>  (223) 
0.076799999999999993

>  <r_i_glide_einternal>  (223) 
2.6086843013763401

>  <r_i_glide_emodel>  (223) 
-54.333397017555399

>  <r_i_glide_energy>  (223) 
-41.591253280639599

>  <r_i_glide_erotb>  (223) 
0.64881446491091099

>  <r_i_glide_esite>  (223) 
-0.080855895607339204

>  <r_i_glide_evdw>  (223) 
-35.279552459716797

>  <r_i_glide_gscore>  (223) 
-4.0993300651820697

>  <r_i_glide_hbond>  (223) 
-0.032131473095779302

>  <r_i_glide_ligand_efficiency>  (223) 
-0.114929430433773

>  <r_i_glide_ligand_efficiency_ln>  (223) 
-0.88303462455223702

>  <r_i_glide_ligand_efficiency_sa>  (223) 
-0.37594178749554402

>  <r_i_glide_lipo>  (223) 
-1.6963850061746799

>  <r_i_glide_metal>  (223) 
-0

>  <r_i_glide_rewards>  (223) 
-0.228039409090907

>  <r_lp_Energy>  (223) 
41.199561000000003

>  <r_lp_tautomer_probability>  (223) 
1

>  <r_qp_ACxDN^.5/SA>  (223) 
0.0151824

>  <r_qp_CIQPlogS>  (223) 
-6.4119999999999999

>  <r_qp_EA(eV)>  (223) 
1.0640000000000001

>  <r_qp_FISA>  (223) 
98.804000000000002

>  <r_qp_FOSA>  (223) 
261.09300000000002

>  <r_qp_IP(eV)>  (223) 
8.4019999999999992

>  <r_qp_Jm>  (223) 
0.00041860065306841801

>  <r_qp_PISA>  (223) 
455.14699999999999

>  <r_qp_PSA>  (223) 
88.072000000000003

>  <r_qp_PercentHumanOralAbsorption>  (223) 
95.454999999999998

>  <r_qp_QPPCaco>  (223) 
285.65199999999999

>  <r_qp_QPPMDCK>  (223) 
141.27099999999999

>  <r_qp_QPlogBB>  (223) 
-0.67300000000000004

>  <r_qp_QPlogHERG>  (223) 
-8.048

>  <r_qp_QPlogKhsa>  (223) 
0.52900000000000003

>  <r_qp_QPlogKp>  (223) 
-2.9359999999999999

>  <r_qp_QPlogPC16>  (223) 
16.637

>  <r_qp_QPlogPo/w>  (223) 
4.194

>  <r_qp_QPlogPoct>  (223) 
25.504999999999999

>  <r_qp_QPlogPw>  (223) 
15.010999999999999

>  <r_qp_QPlogS>  (223) 
-6.1109999999999998

>  <r_qp_QPpolrz>  (223) 
52.308999999999997

>  <r_qp_SASA>  (223) 
815.04499999999996

>  <r_qp_SAamideO>  (223) 
0

>  <r_qp_SAfluorine>  (223) 
0

>  <r_qp_WPSA>  (223) 
0

>  <r_qp_accptHB>  (223) 
8.75

>  <r_qp_dip^2/V>  (223) 
0.033672100000000003

>  <r_qp_dipole>  (223) 
7.0990000000000002

>  <r_qp_donorHB>  (223) 
2

>  <r_qp_glob>  (223) 
0.77635330000000002

>  <r_qp_mol_MW>  (223) 
465.55399999999997

>  <r_qp_volume>  (223) 
1496.6279999999999

>  <r_sd_BIOSOLVEIT.INFINISEE\_FTREES\_SIMILARITY>  (223) 
0.90700000000000003

>  <r_sd_BIOSOLVEIT.LOGP>  (223) 
3.81698

>  <r_sd_BIOSOLVEIT.MOLECULAR\_WEIGHT>  (223) 
466.56200000000001

>  <r_sd_BIOSOLVEIT.TPSA>  (223) 
91.480000000000004

>  <i_epik_Tot_Q>  (223) 
1

>  <i_epik_Tot_abs_Q>  (223) 
1

>  <i_f3d_flags>  (223) 
0

>  <i_i_glide_confnum>  (223) 
6

>  <i_i_glide_lignum>  (223) 
1218

>  <i_i_glide_posenum>  (223) 
7

>  <i_i_glide_rotatable_bonds>  (223) 
9

>  <i_lp_mmshare_version>  (223) 
65135

>  <i_m_ct_format>  (223) 
2

>  <i_m_source_file_index>  (223) 
2743

>  <i_qp_#NandO>  (223) 
7

>  <i_qp_#acid>  (223) 
0

>  <i_qp_#amide>  (223) 
0

>  <i_qp_#amidine>  (223) 
0

>  <i_qp_#amine>  (223) 
1

>  <i_qp_#in34>  (223) 
0

>  <i_qp_#in56>  (223) 
22

>  <i_qp_#metab>  (223) 
7

>  <i_qp_#nonHatm>  (223) 
35

>  <i_qp_#noncon>  (223) 
0

>  <i_qp_#ringatoms>  (223) 
22

>  <i_qp_#rotor>  (223) 
9

>  <i_qp_#rtvFG>  (223) 
0

>  <i_qp_#stars>  (223) 
1

>  <i_qp_CNS>  (223) 
1

>  <i_qp_HumanOralAbsorption>  (223) 
3

>  <i_qp_RuleOfFive>  (223) 
0

>  <i_qp_RuleOfThree>  (223) 
2

>  <i_sd_BIOSOLVEIT.INFINISEE\_RESULT\_RANK>  (223) 
57203

>  <i_sd_version>  (223) 
0

>  <b_lp_Chiralities_Consistent>  (223) 
1

>  <b_sd_chiral_flag>  (223) 
0

>  <canonical_id>  (223) 
ATP-HTVS-2368A2FD4D76

>  <compound_code>  (223) 
87745

>  <title>  (223) 
rxn502b____EMOL5415347____EMOL13728749____EMOL37339719

>  <variant>  (223) 
87745-1

>  <source_file>  (223) 
运行/运行/ATP-VSW/ATP-VSW-DOCK_HTVS_1-001_lib/ATP-VSW-DOCK_HTVS_1-001_lib

>  <canonical_smiles>  (223) 
COc1ccc([C@H](C#N)Nc2cnc3ccccc3c2NC(=O)c2ccccc2C[NH+](C)C)cc1

>  <scaffold>  (223) 
O=C(Nc1c(NCc2ccccc2)cnc2ccccc12)c1ccccc1

>  <molecular_formula>  (223) 
C28H28N5O2+

$$$$
ATP-HTVS-239E0EA8BC65
     RDKit          3D

 53 55  0  0  0  0  0  0  0  0999 V2000
  198.6865  178.9483  154.6184 Cl  0  0  0  0  0  0  0  0  0  0  0  0
  199.1736  180.1386  155.7570 C   0  0  0  0  0  0  0  0  0  0  0  0
  200.5267  180.2820  156.1913 C   0  0  0  0  0  0  0  0  0  0  0  0
  200.8524  181.4220  156.9653 C   0  0  0  0  0  0  0  0  0  0  0  0
  199.8710  182.3673  157.3158 C   0  0  0  0  0  0  0  0  0  0  0  0
  198.5188  182.1616  156.9472 C   0  0  0  0  0  0  0  0  0  0  0  0
  197.4488  183.0441  157.2186 N   0  0  0  0  0  0  0  0  0  0  0  0
  197.3866  184.0080  158.1437 C   0  0  0  0  0  0  0  0  0  0  0  0
  198.3695  184.5204  158.6754 O   0  0  0  0  0  0  0  0  0  0  0  0
  196.1096  184.3270  158.4237 N   0  0  0  0  0  0  0  0  0  0  0  0
  195.6883  185.3277  159.3446 C   0  0  0  0  0  0  0  0  0  0  0  0
  196.4001  186.5236  159.4532 C   0  0  0  0  0  0  0  0  0  0  0  0
  195.9559  187.5076  160.3645 C   0  0  0  0  0  0  0  0  0  0  0  0
  196.7751  189.0661  160.5072 S   0  0  0  0  0  0  0  0  0  0  0  0
  198.3859  188.9099  159.6661 C   0  0  1  0  0  0  0  0  0  0  0  0
  198.8057  190.2360  159.0885 C   0  0  0  0  0  0  0  0  0  0  0  0
  198.2374  190.6920  157.8792 C   0  0  0  0  0  0  0  0  0  0  0  0
  198.6494  191.9215  157.3313 C   0  0  0  0  0  0  0  0  0  0  0  0
  199.6264  192.6914  157.9928 C   0  0  0  0  0  0  0  0  0  0  0  0
  200.1969  192.2300  159.1953 C   0  0  0  0  0  0  0  0  0  0  0  0
  199.7863  191.0017  159.7422 C   0  0  0  0  0  0  0  0  0  0  0  0
  194.8599  187.3577  161.1299 N   0  0  0  0  0  0  0  0  0  0  0  0
  194.1517  186.2186  160.9851 C   0  0  0  0  0  0  0  0  0  0  0  0
  194.5231  185.1648  160.1220 C   0  0  0  0  0  0  0  0  0  0  0  0
  198.1891  181.0193  156.1883 C   0  0  0  0  0  0  0  0  0  0  0  0
  201.6175  179.2590  155.8617 C   0  0  1  0  0  0  0  0  0  0  0  0
  201.5072  177.9684  156.6096 N   0  0  1  0  0  0  0  0  0  0  0  0
  201.2042  178.1428  158.0389 C   0  0  2  0  0  0  0  0  0  0  0  0
  200.6353  176.9628  155.9886 C   0  0  2  0  0  0  0  0  0  0  0  0
  201.8713  181.5981  157.2735 H   0  0  0  0  0  0  0  0  0  0  0  0
  200.1920  183.2421  157.8648 H   0  0  0  0  0  0  0  0  0  0  0  0
  196.5755  182.7760  156.7891 H   0  0  0  0  0  0  0  0  0  0  0  0
  195.3789  183.8103  157.9530 H   0  0  0  0  0  0  0  0  0  0  0  0
  197.2542  186.6774  158.8139 H   0  0  0  0  0  0  0  0  0  0  0  0
  199.1343  188.4995  160.3427 H   0  0  0  0  0  0  0  0  0  0  0  0
  198.3451  188.2499  158.7925 H   0  0  0  0  0  0  0  0  0  0  0  0
  197.4922  190.1009  157.3651 H   0  0  0  0  0  0  0  0  0  0  0  0
  198.2118  192.2731  156.4090 H   0  0  0  0  0  0  0  0  0  0  0  0
  199.9408  193.6352  157.5808 H   0  0  0  0  0  0  0  0  0  0  0  0
  200.9459  192.8144  159.7090 H   0  0  0  0  0  0  0  0  0  0  0  0
  200.2228  190.6389  160.6641 H   0  0  0  0  0  0  0  0  0  0  0  0
  193.2608  186.1415  161.5858 H   0  0  0  0  0  0  0  0  0  0  0  0
  193.9301  184.2637  160.0647 H   0  0  0  0  0  0  0  0  0  0  0  0
  197.1568  180.8379  155.9067 H   0  0  0  0  0  0  0  0  0  0  0  0
  201.6629  179.1048  154.7816 H   0  0  0  0  0  0  0  0  0  0  0  0
  202.5747  179.7078  156.1133 H   0  0  0  0  0  0  0  0  0  0  0  0
  200.2212  178.6003  158.1789 H   0  0  0  0  0  0  0  0  0  0  0  0
  201.9445  178.7723  158.5432 H   0  0  0  0  0  0  0  0  0  0  0  0
  201.1665  177.1792  158.5545 H   0  0  0  0  0  0  0  0  0  0  0  0
  199.6047  177.2838  156.0659 H   0  0  0  0  0  0  0  0  0  0  0  0
  200.7423  175.9864  156.4748 H   0  0  0  0  0  0  0  0  0  0  0  0
  200.9021  176.8322  154.9415 H   0  0  0  0  0  0  0  0  0  0  0  0
  202.4594  177.6073  156.6017 H   0  0  0  0  0  0  0  0  0  0  0  0
  1  2  1  0
  2  3  2  0
  2 25  1  0
  3  4  1  0
  3 26  1  0
  4  5  2  0
  4 30  1  0
  5  6  1  0
  5 31  1  0
  6  7  1  0
  6 25  2  0
  7  8  1  0
  7 32  1  0
  8  9  2  0
  8 10  1  0
 10 11  1  0
 10 33  1  0
 11 12  1  0
 11 24  2  0
 12 13  2  0
 12 34  1  0
 13 14  1  0
 13 22  1  0
 14 15  1  0
 15 16  1  0
 15 35  1  1
 15 36  1  0
 16 17  2  0
 16 21  1  0
 17 18  1  0
 17 37  1  0
 18 19  2  0
 18 38  1  0
 19 20  1  0
 19 39  1  0
 20 21  2  0
 20 40  1  0
 21 41  1  0
 22 23  2  0
 23 24  1  0
 23 42  1  0
 24 43  1  0
 25 44  1  0
 26 27  1  0
 26 45  1  6
 26 46  1  0
 27 28  1  0
 27 29  1  0
 27 53  1  1
 28 47  1  6
 28 48  1  0
 28 49  1  0
 29 50  1  6
 29 51  1  0
 29 52  1  0
M  CHG  1  27   1
M  END
>  <s_epik_cmdline>  (224) 
J2VwaWtfcHl0aG9uJywgJy1waCcsICc3LjAwMDAwMCcsICctcGh0JywgJzIuMDAwMDAwJywgJy1tcycsICcxNicsICctdG4nLCAnOCcsICctbWEnLCAnMjAwJywgJy1pbWFlJywgJzxpbmZpbGUubWFlPicsICctb21hZScsICc8b3V0ZmlsZS5tYWU+Jw==

>  <s_epik_input>  (224) 
W0NIM11OKFtDSDNdKVtDSDJdYyhjMUNsKVtjSF1bY0hdYyhbY0hdMSlbTkhdQyg9TylbTkhdYzJbY0hdYyhuW2NIXVtjSF0yKVNbQ0gyXWMzW2NIXVtjSF1bY0hdW2NIXVtjSF0z

>  <s_i_glide_gridfile>  (224) 
ATP-Grid

>  <s_lp_Force_Field>  (224) 
OPLS_2005

>  <s_lp_Variant>  (224) 
m_2430bbb____15754306____22584540-1

>  <s_lp_label>  (224) 
1710_sdstereoexpander_1_neutralizer_1_epik_1_stereoizer_1

>  <s_m_source_file>  (224) 
ATP-VSW-LIGPREP-001-in.maegz

>  <s_sd_BIOSOLVEIT.INFINISEE\_QUERY\_NAME>  (224) 
Ref-Lig

>  <s_sd_BIOSOLVEIT.INFINISEE\_QUERY\_SMILES>  (224) 
S(c1nc2c(cc1C[NH2+]Cc3ccc(cc3)C[NH+](C)C)cccc2)Cc4ccccc4

>  <s_sd_BIOSOLVEIT.INFINISEE\_REACTION\_NAME>  (224) 
m_2430bbb

>  <s_sd_BIOSOLVEIT.INFINISEE\_REAGENT1\_SMILES>  (224) 
[R1*]C(=O)Nc1cc(SCc2ccccc2)ncc1

>  <s_sd_BIOSOLVEIT.INFINISEE\_REAGENT2\_SMILES>  (224) 
[R1*]Nc1cc(Cl)c(cc1)CN(C)C

>  <s_sd_BIOSOLVEIT.INFINISEE\_SPACE>  (224) 
REALSpace_44bn_2023-08

>  <s_vsw_compound_code>  (224) 
54689

>  <s_vsw_variant>  (224) 
54689-1

>  <r_epik_Charging_Adjusted_Penalty>  (224) 
0.158762612441467

>  <r_epik_Ionization_Penalty>  (224) 
0.1061

>  <r_epik_Ionization_Penalty_Charging>  (224) 
0.052699999999999997

>  <r_epik_Ionization_Penalty_Neutral>  (224) 
0.053400000000000003

>  <r_epik_State_Penalty>  (224) 
0.1061

>  <r_i_docking_score>  (224) 
-4.0426262006125802

>  <r_i_glide_ecoul>  (224) 
-8.0771923065185494

>  <r_i_glide_eff_state_penalty>  (224) 
0.1061

>  <r_i_glide_einternal>  (224) 
6.7371912002563503

>  <r_i_glide_emodel>  (224) 
-53.675127424042401

>  <r_i_glide_energy>  (224) 
-41.985448837280302

>  <r_i_glide_erotb>  (224) 
0.86742496747287801

>  <r_i_glide_esite>  (224) 
-0.023225067395292599

>  <r_i_glide_evdw>  (224) 
-33.908256530761697

>  <r_i_glide_gscore>  (224) 
-4.1487262006125798

>  <r_i_glide_hbond>  (224) 
0

>  <r_i_glide_ligand_efficiency>  (224) 
-0.13940090346939901

>  <r_i_glide_ligand_efficiency_ln>  (224) 
-0.92565888778482497

>  <r_i_glide_ligand_efficiency_sa>  (224) 
-0.42828374076412501

>  <r_i_glide_lipo>  (224) 
-1.3573168793583299

>  <r_i_glide_metal>  (224) 
-0

>  <r_i_glide_rewards>  (224) 
-0.72861754881596497

>  <r_lp_Energy>  (224) 
24.458838

>  <r_lp_tautomer_probability>  (224) 
1

>  <r_qp_ACxDN^.5/SA>  (224) 
0.0093077000000000003

>  <r_qp_CIQPlogS>  (224) 
-5.2050000000000001

>  <r_qp_EA(eV)>  (224) 
0.60299999999999998

>  <r_qp_FISA>  (224) 
79.915999999999997

>  <r_qp_FOSA>  (224) 
212.90100000000001

>  <r_qp_IP(eV)>  (224) 
8.8460000000000001

>  <r_qp_Jm>  (224) 
0.0011601840466082

>  <r_qp_PISA>  (224) 
377.79700000000003

>  <r_qp_PSA>  (224) 
64.558999999999997

>  <r_qp_PercentHumanOralAbsorption>  (224) 
100

>  <r_qp_QPPCaco>  (224) 
303.02499999999998

>  <r_qp_QPPMDCK>  (224) 
678.70100000000002

>  <r_qp_QPlogBB>  (224) 
-0.127

>  <r_qp_QPlogHERG>  (224) 
-6.3140000000000001

>  <r_qp_QPlogKhsa>  (224) 
0.60099999999999998

>  <r_qp_QPlogKp>  (224) 
-3.052

>  <r_qp_QPlogPC16>  (224) 
15.169

>  <r_qp_QPlogPo/w>  (224) 
4.5259999999999998

>  <r_qp_QPlogPoct>  (224) 
21.655999999999999

>  <r_qp_QPlogPw>  (224) 
12.429

>  <r_qp_QPlogS>  (224) 
-5.5140000000000002

>  <r_qp_QPpolrz>  (224) 
46.795000000000002

>  <r_qp_SASA>  (224) 
759.70299999999997

>  <r_qp_SAamideO>  (224) 
19.280999999999999

>  <r_qp_SAfluorine>  (224) 
0

>  <r_qp_WPSA>  (224) 
89.087999999999994

>  <r_qp_accptHB>  (224) 
5

>  <r_qp_dip^2/V>  (224) 
0.023982199999999999

>  <r_qp_dipole>  (224) 
5.6799999999999997

>  <r_qp_donorHB>  (224) 
2

>  <r_qp_glob>  (224) 
0.77574370000000004

>  <r_qp_mol_MW>  (224) 
426.96300000000002

>  <r_qp_volume>  (224) 
1345.2260000000001

>  <r_sd_BIOSOLVEIT.INFINISEE\_FTREES\_SIMILARITY>  (224) 
0.90500000000000003

>  <r_sd_BIOSOLVEIT.LOGP>  (224) 
4.3158000000000003

>  <r_sd_BIOSOLVEIT.MOLECULAR\_WEIGHT>  (224) 
427.97699999999998

>  <r_sd_BIOSOLVEIT.TPSA>  (224) 
58.460000000000001

>  <i_epik_Tot_Q>  (224) 
1

>  <i_epik_Tot_abs_Q>  (224) 
1

>  <i_f3d_flags>  (224) 
0

>  <i_i_glide_confnum>  (224) 
5

>  <i_i_glide_lignum>  (224) 
477

>  <i_i_glide_posenum>  (224) 
3

>  <i_i_glide_rotatable_bonds>  (224) 
9

>  <i_lp_mmshare_version>  (224) 
65135

>  <i_m_ct_format>  (224) 
2

>  <i_m_source_file_index>  (224) 
1710

>  <i_qp_#NandO>  (224) 
5

>  <i_qp_#acid>  (224) 
0

>  <i_qp_#amide>  (224) 
1

>  <i_qp_#amidine>  (224) 
0

>  <i_qp_#amine>  (224) 
1

>  <i_qp_#in34>  (224) 
0

>  <i_qp_#in56>  (224) 
18

>  <i_qp_#metab>  (224) 
4

>  <i_qp_#nonHatm>  (224) 
29

>  <i_qp_#noncon>  (224) 
0

>  <i_qp_#ringatoms>  (224) 
18

>  <i_qp_#rotor>  (224) 
7

>  <i_qp_#rtvFG>  (224) 
0

>  <i_qp_#stars>  (224) 
0

>  <i_qp_CNS>  (224) 
1

>  <i_qp_HumanOralAbsorption>  (224) 
3

>  <i_qp_RuleOfFive>  (224) 
0

>  <i_qp_RuleOfThree>  (224) 
0

>  <i_sd_BIOSOLVEIT.INFINISEE\_REAGENT1\_NAME>  (224) 
15754306

>  <i_sd_BIOSOLVEIT.INFINISEE\_REAGENT2\_NAME>  (224) 
22584540

>  <i_sd_BIOSOLVEIT.INFINISEE\_RESULT\_RANK>  (224) 
72320

>  <i_sd_version>  (224) 
0

>  <b_lp_Chiralities_Consistent>  (224) 
1

>  <b_sd_chiral_flag>  (224) 
0

>  <canonical_id>  (224) 
ATP-HTVS-239E0EA8BC65

>  <compound_code>  (224) 
54689

>  <title>  (224) 
m_2430bbb____15754306____22584540

>  <variant>  (224) 
54689-1

>  <source_file>  (224) 
运行/运行/ATP-VSW/ATP-VSW-DOCK_HTVS_1-001_lib/ATP-VSW-DOCK_HTVS_1-001_lib

>  <canonical_smiles>  (224) 
C[NH+](C)Cc1ccc(NC(=O)Nc2ccnc(SCc3ccccc3)c2)cc1Cl

>  <scaffold>  (224) 
O=C(Nc1ccccc1)Nc1ccnc(SCc2ccccc2)c1

>  <molecular_formula>  (224) 
C22H24ClN4OS+

$$$$
ATP-HTVS-23EBF8E8F6E9
     RDKit          3D

 62 65  0  0  0  0  0  0  0  0999 V2000
  200.1270  181.4021  156.3030 O   0  0  0  0  0  0  0  0  0  0  0  0
  199.0163  180.8952  156.4585 C   0  0  0  0  0  0  0  0  0  0  0  0
  197.9444  181.5071  156.9892 N   0  0  0  0  0  0  0  0  0  0  0  0
  197.8369  182.8191  157.5537 C   0  0  0  0  0  0  0  0  0  0  0  0
  198.8800  183.6770  157.5865 N   0  0  0  0  0  0  0  0  0  0  0  0
  198.7203  184.9146  158.0995 C   0  0  0  0  0  0  0  0  0  0  0  0
  197.4990  185.4063  158.6203 C   0  0  0  0  0  0  0  0  0  0  0  0
  197.4283  186.7357  159.1024 N   0  0  0  0  0  0  0  0  0  0  0  0
  197.1271  187.8166  158.1438 C   0  0  1  0  0  0  0  0  0  0  0  0
  197.1319  189.1205  158.8385 C   0  0  0  0  0  0  0  0  0  0  0  0
  197.1425  190.1431  159.3828 N   0  0  0  0  0  0  0  0  0  0  0  0
  197.9569  187.8690  156.8399 C   0  0  0  0  0  0  0  0  0  0  0  0
  197.9054  186.8068  155.9040 C   0  0  0  0  0  0  0  0  0  0  0  0
  198.7332  186.8021  154.7637 C   0  0  0  0  0  0  0  0  0  0  0  0
  199.5405  187.9164  154.4659 C   0  0  0  0  0  0  0  0  0  0  0  0
  199.5434  189.0194  155.3410 C   0  0  0  0  0  0  0  0  0  0  0  0
  198.7675  188.9939  156.5201 C   0  0  0  0  0  0  0  0  0  0  0  0
  196.9272  186.8741  160.4665 C   0  0  2  0  0  0  0  0  0  0  0  0
  196.3904  184.5200  158.5837 C   0  0  0  0  0  0  0  0  0  0  0  0
  196.5656  183.1933  158.0787 C   0  0  0  0  0  0  0  0  0  0  0  0
  195.4644  182.2771  158.0819 C   0  0  0  0  0  0  0  0  0  0  0  0
  194.2187  182.6934  158.5820 C   0  0  0  0  0  0  0  0  0  0  0  0
  194.0452  184.0076  159.0266 C   0  0  0  0  0  0  0  0  0  0  0  0
  195.1096  184.9393  159.0085 C   0  0  0  0  0  0  0  0  0  0  0  0
  198.7965  179.4368  156.0064 C   0  0  2  0  0  0  0  0  0  0  0  0
  199.9628  178.5350  156.2811 N   0  0  2  0  0  0  0  0  0  0  0  0
  199.7153  177.1417  155.8468 C   0  0  2  0  0  0  0  0  0  0  0  0
  200.4539  178.5549  157.6839 C   0  0  2  0  0  0  0  0  0  0  0  0
  198.5101  179.6040  154.5414 C   0  0  0  0  0  0  0  0  0  0  0  0
  199.5424  179.7195  153.5777 C   0  0  0  0  0  0  0  0  0  0  0  0
  199.2573  179.8745  152.2098 C   0  0  0  0  0  0  0  0  0  0  0  0
  197.9245  179.9331  151.7696 C   0  0  0  0  0  0  0  0  0  0  0  0
  196.8800  179.8397  152.7071 C   0  0  0  0  0  0  0  0  0  0  0  0
  197.1747  179.6808  154.0768 C   0  0  0  0  0  0  0  0  0  0  0  0
  197.1169  180.9338  157.0923 H   0  0  0  0  0  0  0  0  0  0  0  0
  199.5925  185.5442  158.0500 H   0  0  0  0  0  0  0  0  0  0  0  0
  196.0934  187.6664  157.8312 H   0  0  0  0  0  0  0  0  0  0  0  0
  197.2506  185.9588  156.0548 H   0  0  0  0  0  0  0  0  0  0  0  0
  198.7315  185.9382  154.1148 H   0  0  0  0  0  0  0  0  0  0  0  0
  200.1507  187.9209  153.5709 H   0  0  0  0  0  0  0  0  0  0  0  0
  200.1386  189.8931  155.1112 H   0  0  0  0  0  0  0  0  0  0  0  0
  198.8234  189.8617  157.1688 H   0  0  0  0  0  0  0  0  0  0  0  0
  197.1768  185.9792  161.0278 H   0  0  0  0  0  0  0  0  0  0  0  0
  195.8623  186.9908  160.4827 H   0  0  0  0  0  0  0  0  0  0  0  0
  197.4338  187.7167  160.9629 H   0  0  0  0  0  0  0  0  0  0  0  0
  195.5387  181.2820  157.6686 H   0  0  0  0  0  0  0  0  0  0  0  0
  193.3858  181.9839  158.5614 H   0  0  0  0  0  0  0  0  0  0  0  0
  193.0730  184.3171  159.3835 H   0  0  0  0  0  0  0  0  0  0  0  0
  194.9178  185.9546  159.2676 H   0  0  0  0  0  0  0  0  0  0  0  0
  197.9185  179.0381  156.5145 H   0  0  0  0  0  0  0  0  0  0  0  0
  198.8647  176.7294  156.3889 H   0  0  0  0  0  0  0  0  0  0  0  0
  200.5770  176.5110  156.0601 H   0  0  0  0  0  0  0  0  0  0  0  0
  199.5190  177.0744  154.7761 H   0  0  0  0  0  0  0  0  0  0  0  0
  199.6781  178.2099  158.3670 H   0  0  0  0  0  0  0  0  0  0  0  0
  200.7840  179.5425  158.0034 H   0  0  0  0  0  0  0  0  0  0  0  0
  201.3232  177.9031  157.7953 H   0  0  0  0  0  0  0  0  0  0  0  0
  200.5779  179.6976  153.8802 H   0  0  0  0  0  0  0  0  0  0  0  0
  200.0661  179.9550  151.4995 H   0  0  0  0  0  0  0  0  0  0  0  0
  197.7057  180.0581  150.7191 H   0  0  0  0  0  0  0  0  0  0  0  0
  195.8522  179.8901  152.3773 H   0  0  0  0  0  0  0  0  0  0  0  0
  196.3615  179.6153  154.7887 H   0  0  0  0  0  0  0  0  0  0  0  0
  200.7155  178.9050  155.7223 H   0  0  0  0  0  0  0  0  0  0  0  0
  1  2  2  0
  2  3  1  0
  2 25  1  0
  3  4  1  0
  3 35  1  0
  4  5  1  0
  4 20  2  0
  5  6  2  0
  6  7  1  0
  6 36  1  0
  7  8  1  0
  7 19  2  0
  8  9  1  0
  8 18  1  0
  9 10  1  0
  9 12  1  0
  9 37  1  6
 10 11  3  0
 12 13  2  0
 12 17  1  0
 13 14  1  0
 13 38  1  0
 14 15  2  0
 14 39  1  0
 15 16  1  0
 15 40  1  0
 16 17  2  0
 16 41  1  0
 17 42  1  0
 18 43  1  1
 18 44  1  0
 18 45  1  0
 19 20  1  0
 19 24  1  0
 20 21  1  0
 21 22  2  0
 21 46  1  0
 22 23  1  0
 22 47  1  0
 23 24  2  0
 23 48  1  0
 24 49  1  0
 25 26  1  0
 25 29  1  0
 25 50  1  1
 26 27  1  0
 26 28  1  0
 26 62  1  6
 27 51  1  1
 27 52  1  0
 27 53  1  0
 28 54  1  1
 28 55  1  0
 28 56  1  0
 29 30  2  0
 29 34  1  0
 30 31  1  0
 30 57  1  0
 31 32  2  0
 31 58  1  0
 32 33  1  0
 32 59  1  0
 33 34  2  0
 33 60  1  0
 34 61  1  0
M  CHG  1  26   1
M  END
>  <s_epik_cmdline>  (225) 
J2VwaWtfcHl0aG9uJywgJy1waCcsICc3LjAwMDAwMCcsICctcGh0JywgJzIuMDAwMDAwJywgJy1tcycsICcxNicsICctdG4nLCAnOCcsICctbWEnLCAnMjAwJywgJy1pbWFlJywgJzxpbmZpbGUubWFlPicsICctb21hZScsICc8b3V0ZmlsZS5tYWU+Jw==

>  <s_epik_input>  (225) 
W2NIXTFbY0hdW2NIXVtjSF1bY0hdYzFbQ0BASF0oTihbQ0gzXSlbQ0gzXSlDKD1PKVtOSF1jKGMoYzIzKVtjSF1bY0hdW2NIXVtjSF0zKW5bY0hdYzJOKFtDSDNdKVtDQEBIXShDI04pYzRbY0hdW2NIXVtjSF1bY0hdW2NIXTQ=

>  <s_i_glide_gridfile>  (225) 
ATP-Grid

>  <s_lp_Force_Field>  (225) 
OPLS_2005

>  <s_lp_Variant>  (225) 
rxn502b____EMOL3728885____EMOL7515103____EMOL24630243-5

>  <s_lp_label>  (225) 
2713_sdstereoexpander_1_neutralizer_1_epik_2_stereoizer_1

>  <s_m_source_file>  (225) 
ATP-VSW-LIGPREP-003-in.maegz

>  <s_sd_BIOSOLVEIT.INFINISEE\_QUERY\_NAME>  (225) 
Ref-Lig

>  <s_sd_BIOSOLVEIT.INFINISEE\_QUERY\_SMILES>  (225) 
S(c1nc2c(cc1C[NH2+]Cc3ccc(cc3)C[NH+](C)C)cccc2)Cc4ccccc4

>  <s_sd_BIOSOLVEIT.INFINISEE\_REACTION\_NAME>  (225) 
rxn502b

>  <s_sd_BIOSOLVEIT.INFINISEE\_REAGENT1\_NAME>  (225) 
EMOL3728885

>  <s_sd_BIOSOLVEIT.INFINISEE\_REAGENT1\_SMILES>  (225) 
O=C(O)C(N(C)C)c1ccccc1

>  <s_sd_BIOSOLVEIT.INFINISEE\_REAGENT2\_NAME>  (225) 
EMOL7515103

>  <s_sd_BIOSOLVEIT.INFINISEE\_REAGENT2\_SMILES>  (225) 
Brc1c2c(c(nc1)N)cccc2

>  <s_sd_BIOSOLVEIT.INFINISEE\_REAGENT3\_NAME>  (225) 
EMOL24630243

>  <s_sd_BIOSOLVEIT.INFINISEE\_REAGENT3\_SMILES>  (225) 
N#CC(NC)c1ccccc1

>  <s_sd_BIOSOLVEIT.INFINISEE\_SPACE>  (225) 
eXplore_7tr_2022-12

>  <s_vsw_compound_code>  (225) 
86787

>  <s_vsw_variant>  (225) 
86787-5

>  <r_epik_Charging_Adjusted_Penalty>  (225) 
2.01029102256817

>  <r_epik_Ionization_Penalty>  (225) 
0.98250000000000004

>  <r_epik_Ionization_Penalty_Charging>  (225) 
0.98140000000000005

>  <r_epik_Ionization_Penalty_Neutral>  (225) 
0.0011000000000000001

>  <r_epik_State_Penalty>  (225) 
1.0288999999999999

>  <r_i_docking_score>  (225) 
-3.87515742667407

>  <r_i_glide_ecoul>  (225) 
-8.8201570510864293

>  <r_i_glide_eff_state_penalty>  (225) 
1.0288999999999999

>  <r_i_glide_einternal>  (225) 
5.8555202484130904

>  <r_i_glide_emodel>  (225) 
-63.318046916616098

>  <r_i_glide_energy>  (225) 
-45.363232612609899

>  <r_i_glide_erotb>  (225) 
0.59261020438798995

>  <r_i_glide_esite>  (225) 
-0.15064068745481499

>  <r_i_glide_evdw>  (225) 
-36.543075561523402

>  <r_i_glide_gscore>  (225) 
-4.9040574266740702

>  <r_i_glide_hbond>  (225) 
0

>  <r_i_glide_ligand_efficiency>  (225) 
-0.11397521843159

>  <r_i_glide_ligand_efficiency_ln>  (225) 
-0.85613097003639305

>  <r_i_glide_ligand_efficiency_sa>  (225) 
-0.36923546225013998

>  <r_i_glide_lipo>  (225) 
-1.2606440546147799

>  <r_i_glide_metal>  (225) 
-0

>  <r_i_glide_rewards>  (225) 
-0.93520555325332599

>  <r_lp_Energy>  (225) 
38.801858000000003

>  <r_qp_ACxDN^.5/SA>  (225) 
0.010228900000000001

>  <r_qp_CIQPlogS>  (225) 
-6.4109999999999996

>  <r_qp_EA(eV)>  (225) 
1.119

>  <r_qp_FISA>  (225) 
87.100999999999999

>  <r_qp_FOSA>  (225) 
223.21799999999999

>  <r_qp_IP(eV)>  (225) 
8.4550000000000001

>  <r_qp_Jm>  (225) 
0.00088567030655368605

>  <r_qp_PISA>  (225) 
471.779

>  <r_qp_PSA>  (225) 
72.352000000000004

>  <r_qp_PercentHumanOralAbsorption>  (225) 
100

>  <r_qp_QPPCaco>  (225) 
368.822

>  <r_qp_QPPMDCK>  (225) 
186.21299999999999

>  <r_qp_QPlogBB>  (225) 
-0.438

>  <r_qp_QPlogHERG>  (225) 
-7.8170000000000002

>  <r_qp_QPlogKhsa>  (225) 
0.63300000000000001

>  <r_qp_QPlogKp>  (225) 
-2.7570000000000001

>  <r_qp_QPlogPC16>  (225) 
15.992000000000001

>  <r_qp_QPlogPo/w>  (225) 
4.4950000000000001

>  <r_qp_QPlogPoct>  (225) 
23.135000000000002

>  <r_qp_QPlogPw>  (225) 
12.983000000000001

>  <r_qp_QPlogS>  (225) 
-5.9480000000000004

>  <r_qp_QPpolrz>  (225) 
51.610999999999997

>  <r_qp_SASA>  (225) 
782.09799999999996

>  <r_qp_SAamideO>  (225) 
0

>  <r_qp_SAfluorine>  (225) 
0

>  <r_qp_WPSA>  (225) 
0

>  <r_qp_accptHB>  (225) 
8

>  <r_qp_dip^2/V>  (225) 
0.0079792000000000005

>  <r_qp_dipole>  (225) 
3.4119999999999999

>  <r_qp_donorHB>  (225) 
1

>  <r_qp_glob>  (225) 
0.79550339999999997

>  <r_qp_mol_MW>  (225) 
449.55399999999997

>  <r_qp_volume>  (225) 
1459.1759999999999

>  <r_sd_BIOSOLVEIT.INFINISEE\_FTREES\_SIMILARITY>  (225) 
0.90800000000000003

>  <r_sd_BIOSOLVEIT.LOGP>  (225) 
3.7601800000000001

>  <r_sd_BIOSOLVEIT.MOLECULAR\_WEIGHT>  (225) 
450.56299999999999

>  <r_sd_BIOSOLVEIT.TPSA>  (225) 
73.459999999999994

>  <i_epik_Tot_Q>  (225) 
1

>  <i_epik_Tot_abs_Q>  (225) 
1

>  <i_f3d_flags>  (225) 
0

>  <i_i_glide_confnum>  (225) 
2

>  <i_i_glide_lignum>  (225) 
1276

>  <i_i_glide_posenum>  (225) 
8

>  <i_i_glide_rotatable_bonds>  (225) 
8

>  <i_lp_mmshare_version>  (225) 
65135

>  <i_m_ct_format>  (225) 
2

>  <i_m_source_file_index>  (225) 
2713

>  <i_qp_#NandO>  (225) 
6

>  <i_qp_#acid>  (225) 
0

>  <i_qp_#amide>  (225) 
0

>  <i_qp_#amidine>  (225) 
0

>  <i_qp_#amine>  (225) 
1

>  <i_qp_#in34>  (225) 
0

>  <i_qp_#in56>  (225) 
22

>  <i_qp_#metab>  (225) 
7

>  <i_qp_#nonHatm>  (225) 
34

>  <i_qp_#noncon>  (225) 
0

>  <i_qp_#ringatoms>  (225) 
22

>  <i_qp_#rotor>  (225) 
8

>  <i_qp_#rtvFG>  (225) 
0

>  <i_qp_#stars>  (225) 
1

>  <i_qp_CNS>  (225) 
1

>  <i_qp_HumanOralAbsorption>  (225) 
3

>  <i_qp_RuleOfFive>  (225) 
0

>  <i_qp_RuleOfThree>  (225) 
2

>  <i_sd_BIOSOLVEIT.INFINISEE\_RESULT\_RANK>  (225) 
54016

>  <i_sd_version>  (225) 
0

>  <b_lp_Chiralities_Consistent>  (225) 
1

>  <b_sd_chiral_flag>  (225) 
0

>  <canonical_id>  (225) 
ATP-HTVS-23EBF8E8F6E9

>  <compound_code>  (225) 
86787

>  <title>  (225) 
rxn502b____EMOL3728885____EMOL7515103____EMOL24630243

>  <variant>  (225) 
86787-5

>  <source_file>  (225) 
运行/运行/ATP-VSW/ATP-VSW-DOCK_HTVS_1-003_lib/ATP-VSW-DOCK_HTVS_1-003_lib.mae

>  <canonical_smiles>  (225) 
CN(c1cnc(NC(=O)[C@@H](c2ccccc2)[NH+](C)C)c2ccccc12)[C@@H](C#N)c1ccccc1

>  <scaffold>  (225) 
O=C(Cc1ccccc1)Nc1ncc(NCc2ccccc2)c2ccccc12

>  <molecular_formula>  (225) 
C28H28N5O+

$$$$
ATP-HTVS-23EDEB47FF93
     RDKit          3D

 59 62  0  0  0  0  0  0  0  0999 V2000
  199.7450  179.1711  154.7330 O   0  0  0  0  0  0  0  0  0  0  0  0
  200.6894  178.7026  155.3703 C   0  0  0  0  0  0  0  0  0  0  0  0
  201.5132  179.4280  156.1518 N   0  0  0  0  0  0  0  0  0  0  0  0
  201.5061  180.8322  156.3885 C   0  0  0  0  0  0  0  0  0  0  0  0
  201.0045  181.7047  155.4832 N   0  0  0  0  0  0  0  0  0  0  0  0
  201.0756  183.0300  155.7131 C   0  0  0  0  0  0  0  0  0  0  0  0
  201.6465  183.5912  156.8699 C   0  0  0  0  0  0  0  0  0  0  0  0
  201.6873  184.9917  157.0214 N   0  0  0  0  0  0  0  0  0  0  0  0
  200.8654  185.6178  158.0647 C   0  0  1  0  0  0  0  0  0  0  0  0
  199.4642  185.0665  158.2402 C   0  0  0  0  0  0  0  0  0  0  0  0
  198.4659  185.4211  157.3162 C   0  0  0  0  0  0  0  0  0  0  0  0
  197.1514  184.9518  157.4850 C   0  0  0  0  0  0  0  0  0  0  0  0
  196.8242  184.1062  158.5618 C   0  0  0  0  0  0  0  0  0  0  0  0
  197.8289  183.7553  159.4961 C   0  0  0  0  0  0  0  0  0  0  0  0
  199.1453  184.2335  159.3310 C   0  0  0  0  0  0  0  0  0  0  0  0
  195.4226  183.5164  158.6717 C   0  0  1  0  0  0  0  0  0  0  0  0
  195.1489  182.3855  157.7339 N   0  0  2  0  0  0  0  0  0  0  0  0
  194.1525  181.4476  158.2760 C   0  0  2  0  0  0  0  0  0  0  0  0
  196.3544  181.6791  157.2137 C   0  0  2  0  0  0  0  0  0  0  0  0
  202.1719  182.6954  157.8379 C   0  0  0  0  0  0  0  0  0  0  0  0
  202.1080  181.2923  157.5969 C   0  0  0  0  0  0  0  0  0  0  0  0
  202.6606  180.4024  158.5536 C   0  0  0  0  0  0  0  0  0  0  0  0
  203.2479  180.8928  159.7387 C   0  0  0  0  0  0  0  0  0  0  0  0
  203.3072  182.2768  159.9695 C   0  0  0  0  0  0  0  0  0  0  0  0
  202.7963  183.1699  159.0155 C   0  0  0  0  0  0  0  0  0  0  0  0
  201.0458  177.2299  155.2921 C   0  0  0  0  0  0  0  0  0  0  0  0
  200.9035  176.4477  154.1013 C   0  0  0  0  0  0  0  0  0  0  0  0
  200.4083  176.9799  152.8376 C   0  0  0  0  0  0  0  0  0  0  0  0
  200.0155  177.3941  151.8283 N   0  0  0  0  0  0  0  0  0  0  0  0
  201.2616  175.0769  154.1133 C   0  0  0  0  0  0  0  0  0  0  0  0
  201.7788  174.4743  155.2716 C   0  0  0  0  0  0  0  0  0  0  0  0
  201.9392  175.2388  156.4353 C   0  0  0  0  0  0  0  0  0  0  0  0
  201.5444  176.5872  156.4523 C   0  0  0  0  0  0  0  0  0  0  0  0
  202.1960  178.8978  156.6712 H   0  0  0  0  0  0  0  0  0  0  0  0
  200.6634  183.6639  154.9438 H   0  0  0  0  0  0  0  0  0  0  0  0
  201.7706  185.5393  156.1728 H   0  0  0  0  0  0  0  0  0  0  0  0
  201.3617  185.5904  159.0342 H   0  0  0  0  0  0  0  0  0  0  0  0
  200.7717  186.6754  157.8197 H   0  0  0  0  0  0  0  0  0  0  0  0
  198.7149  186.0284  156.4575 H   0  0  0  0  0  0  0  0  0  0  0  0
  196.4082  185.2067  156.7496 H   0  0  0  0  0  0  0  0  0  0  0  0
  197.6071  183.0843  160.3132 H   0  0  0  0  0  0  0  0  0  0  0  0
  199.9163  183.9400  160.0370 H   0  0  0  0  0  0  0  0  0  0  0  0
  195.3003  183.1917  159.7049 H   0  0  0  0  0  0  0  0  0  0  0  0
  194.6756  184.3009  158.5194 H   0  0  0  0  0  0  0  0  0  0  0  0
  194.5370  180.9490  159.1637 H   0  0  0  0  0  0  0  0  0  0  0  0
  193.8996  180.6901  157.5355 H   0  0  0  0  0  0  0  0  0  0  0  0
  193.2325  181.9747  158.5357 H   0  0  0  0  0  0  0  0  0  0  0  0
  196.9174  181.2164  158.0231 H   0  0  0  0  0  0  0  0  0  0  0  0
  197.0189  182.3253  156.6443 H   0  0  0  0  0  0  0  0  0  0  0  0
  196.0576  180.8904  156.5114 H   0  0  0  0  0  0  0  0  0  0  0  0
  202.6581  179.3311  158.4076 H   0  0  0  0  0  0  0  0  0  0  0  0
  203.6602  180.2129  160.4712 H   0  0  0  0  0  0  0  0  0  0  0  0
  203.7587  182.6608  160.8710 H   0  0  0  0  0  0  0  0  0  0  0  0
  202.9140  184.2246  159.1909 H   0  0  0  0  0  0  0  0  0  0  0  0
  201.1413  174.4750  153.2235 H   0  0  0  0  0  0  0  0  0  0  0  0
  202.0636  173.4324  155.2628 H   0  0  0  0  0  0  0  0  0  0  0  0
  202.3613  174.7949  157.3230 H   0  0  0  0  0  0  0  0  0  0  0  0
  201.6670  177.1200  157.3829 H   0  0  0  0  0  0  0  0  0  0  0  0
  194.6974  182.7477  156.8885 H   0  0  0  0  0  0  0  0  0  0  0  0
  1  2  2  0
  2  3  1  0
  2 26  1  0
  3  4  1  0
  3 34  1  0
  4  5  1  0
  4 21  2  0
  5  6  2  0
  6  7  1  0
  6 35  1  0
  7  8  1  0
  7 20  2  0
  8  9  1  0
  8 36  1  0
  9 10  1  0
  9 37  1  1
  9 38  1  0
 10 11  1  0
 10 15  2  0
 11 12  2  0
 11 39  1  0
 12 13  1  0
 12 40  1  0
 13 14  2  0
 13 16  1  0
 14 15  1  0
 14 41  1  0
 15 42  1  0
 16 17  1  0
 16 43  1  1
 16 44  1  0
 17 18  1  0
 17 19  1  0
 17 59  1  6
 18 45  1  1
 18 46  1  0
 18 47  1  0
 19 48  1  1
 19 49  1  0
 19 50  1  0
 20 21  1  0
 20 25  1  0
 21 22  1  0
 22 23  2  0
 22 51  1  0
 23 24  1  0
 23 52  1  0
 24 25  2  0
 24 53  1  0
 25 54  1  0
 26 27  1  0
 26 33  2  0
 27 28  1  0
 27 30  2  0
 28 29  3  0
 30 31  1  0
 30 55  1  0
 31 32  2  0
 31 56  1  0
 32 33  1  0
 32 57  1  0
 33 58  1  0
M  CHG  1  17   1
M  END
>  <s_epik_cmdline>  (226) 
J2VwaWtfcHl0aG9uJywgJy1waCcsICc3LjAwMDAwMCcsICctcGh0JywgJzIuMDAwMDAwJywgJy1tcycsICcxNicsICctdG4nLCAnOCcsICctbWEnLCAnMjAwJywgJy1pbWFlJywgJzxpbmZpbGUubWFlPicsICctb21hZScsICc8b3V0ZmlsZS5tYWU+Jw==

>  <s_epik_input>  (226) 
W2NIXTFbY0hdW2NIXVtjSF1jKEMjTiljMUMoPU8pW05IXWMoYyhjMjMpW2NIXVtjSF1bY0hdW2NIXTMpbltjSF1jMltOSF1bQ0gyXWM0W2NIXVtjSF1jKFtjSF1bY0hdNClbQ0gyXU4oW0NIM10pW0NIM10=

>  <s_i_glide_gridfile>  (226) 
ATP-Grid

>  <s_lp_Force_Field>  (226) 
OPLS_2005

>  <s_lp_Variant>  (226) 
rxn502b____EMOL43467976____EMOL7515103____EMOL50155899-1

>  <s_lp_label>  (226) 
2247_sdstereoexpander_1_neutralizer_1_epik_1_stereoizer_1

>  <s_m_source_file>  (226) 
ATP-VSW-LIGPREP-002-in.maegz

>  <s_sd_BIOSOLVEIT.INFINISEE\_QUERY\_NAME>  (226) 
Ref-Lig

>  <s_sd_BIOSOLVEIT.INFINISEE\_QUERY\_SMILES>  (226) 
S(c1nc2c(cc1C[NH2+]Cc3ccc(cc3)C[NH+](C)C)cccc2)Cc4ccccc4

>  <s_sd_BIOSOLVEIT.INFINISEE\_REACTION\_NAME>  (226) 
rxn502b

>  <s_sd_BIOSOLVEIT.INFINISEE\_REAGENT1\_NAME>  (226) 
EMOL43467976

>  <s_sd_BIOSOLVEIT.INFINISEE\_REAGENT1\_SMILES>  (226) 
ClC(=O)c1c(C#N)cccc1

>  <s_sd_BIOSOLVEIT.INFINISEE\_REAGENT2\_NAME>  (226) 
EMOL7515103

>  <s_sd_BIOSOLVEIT.INFINISEE\_REAGENT2\_SMILES>  (226) 
Brc1c2c(c(nc1)N)cccc2

>  <s_sd_BIOSOLVEIT.INFINISEE\_REAGENT3\_NAME>  (226) 
EMOL50155899

>  <s_sd_BIOSOLVEIT.INFINISEE\_REAGENT3\_SMILES>  (226) 
N(Cc1ccc(cc1)CN)(C)C

>  <s_sd_BIOSOLVEIT.INFINISEE\_SPACE>  (226) 
eXplore_7tr_2022-12

>  <s_vsw_compound_code>  (226) 
71874

>  <s_vsw_variant>  (226) 
71874-1

>  <r_epik_Charging_Adjusted_Penalty>  (226) 
0.078535191871208096

>  <r_epik_Ionization_Penalty>  (226) 
0.040000000000000001

>  <r_epik_Ionization_Penalty_Charging>  (226) 
0.039199999999999999

>  <r_epik_Ionization_Penalty_Neutral>  (226) 
0.00080000000000000004

>  <r_epik_State_Penalty>  (226) 
0.039300000000000002

>  <r_i_docking_score>  (226) 
-4.5133429891926804

>  <r_i_glide_ecoul>  (226) 
-9.8277721405029297

>  <r_i_glide_eff_state_penalty>  (226) 
0.039300000000000002

>  <r_i_glide_einternal>  (226) 
9.4997224807739293

>  <r_i_glide_emodel>  (226) 
-52.810146161367697

>  <r_i_glide_energy>  (226) 
-40.799346923828097

>  <r_i_glide_erotb>  (226) 
0.73224968592044304

>  <r_i_glide_esite>  (226) 
-0.10442378139713

>  <r_i_glide_evdw>  (226) 
-30.971574783325199

>  <r_i_glide_gscore>  (226) 
-4.5526429891926696

>  <r_i_glide_hbond>  (226) 
-0.20000000000000001

>  <r_i_glide_ligand_efficiency>  (226) 
-0.136767969369475

>  <r_i_glide_ligand_efficiency_ln>  (226) 
-1.00374411195713

>  <r_i_glide_ligand_efficiency_sa>  (226) 
-0.43868795648511699

>  <r_i_glide_lipo>  (226) 
-1.46607377648065

>  <r_i_glide_metal>  (226) 
-0

>  <r_i_glide_rewards>  (226) 
-0.49165055699363702

>  <r_lp_Energy>  (226) 
32.962947

>  <r_qp_ACxDN^.5/SA>  (226) 
0.014221599999999999

>  <r_qp_CIQPlogS>  (226) 
-6.1070000000000002

>  <r_qp_EA(eV)>  (226) 
0.94899999999999995

>  <r_qp_FISA>  (226) 
125.54000000000001

>  <r_qp_FOSA>  (226) 
223.624

>  <r_qp_IP(eV)>  (226) 
7.8019999999999996

>  <r_qp_Jm>  (226) 
7.6469113696843406e-05

>  <r_qp_PISA>  (226) 
446.36799999999999

>  <r_qp_PSA>  (226) 
86.159000000000006

>  <r_qp_PercentHumanOralAbsorption>  (226) 
89.271000000000001

>  <r_qp_QPPCaco>  (226) 
159.33099999999999

>  <r_qp_QPPMDCK>  (226) 
75.164000000000001

>  <r_qp_QPlogBB>  (226) 
-0.92100000000000004

>  <r_qp_QPlogHERG>  (226) 
-8.0589999999999993

>  <r_qp_QPlogKhsa>  (226) 
0.54900000000000004

>  <r_qp_QPlogKp>  (226) 
-3.5550000000000002

>  <r_qp_QPlogPC16>  (226) 
16.202000000000002

>  <r_qp_QPlogPo/w>  (226) 
3.9119999999999999

>  <r_qp_QPlogPoct>  (226) 
24.606000000000002

>  <r_qp_QPlogPw>  (226) 
14.568

>  <r_qp_QPlogS>  (226) 
-6.2000000000000002

>  <r_qp_QPpolrz>  (226) 
50.360999999999997

>  <r_qp_SASA>  (226) 
795.53200000000004

>  <r_qp_SAamideO>  (226) 
0

>  <r_qp_SAfluorine>  (226) 
0

>  <r_qp_WPSA>  (226) 
0

>  <r_qp_accptHB>  (226) 
8

>  <r_qp_dip^2/V>  (226) 
0.039024799999999998

>  <r_qp_dipole>  (226) 
7.4809999999999999

>  <r_qp_donorHB>  (226) 
2

>  <r_qp_glob>  (226) 
0.77305089999999999

>  <r_qp_mol_MW>  (226) 
435.52699999999999

>  <r_qp_volume>  (226) 
1434.0060000000001

>  <r_sd_BIOSOLVEIT.INFINISEE\_FTREES\_SIMILARITY>  (226) 
0.92600000000000005

>  <r_sd_BIOSOLVEIT.LOGP>  (226) 
3.61538

>  <r_sd_BIOSOLVEIT.MOLECULAR\_WEIGHT>  (226) 
436.536

>  <r_sd_BIOSOLVEIT.TPSA>  (226) 
82.25

>  <i_epik_Tot_Q>  (226) 
1

>  <i_epik_Tot_abs_Q>  (226) 
1

>  <i_f3d_flags>  (226) 
0

>  <i_i_glide_confnum>  (226) 
2

>  <i_i_glide_lignum>  (226) 
889

>  <i_i_glide_posenum>  (226) 
2

>  <i_i_glide_rotatable_bonds>  (226) 
8

>  <i_lp_mmshare_version>  (226) 
65135

>  <i_m_ct_format>  (226) 
2

>  <i_m_source_file_index>  (226) 
2247

>  <i_qp_#NandO>  (226) 
6

>  <i_qp_#acid>  (226) 
0

>  <i_qp_#amide>  (226) 
0

>  <i_qp_#amidine>  (226) 
0

>  <i_qp_#amine>  (226) 
1

>  <i_qp_#in34>  (226) 
0

>  <i_qp_#in56>  (226) 
22

>  <i_qp_#metab>  (226) 
7

>  <i_qp_#nonHatm>  (226) 
33

>  <i_qp_#noncon>  (226) 
0

>  <i_qp_#ringatoms>  (226) 
22

>  <i_qp_#rotor>  (226) 
8

>  <i_qp_#rtvFG>  (226) 
0

>  <i_qp_#stars>  (226) 
1

>  <i_qp_CNS>  (226) 
0

>  <i_qp_HumanOralAbsorption>  (226) 
1

>  <i_qp_RuleOfFive>  (226) 
0

>  <i_qp_RuleOfThree>  (226) 
2

>  <i_sd_BIOSOLVEIT.INFINISEE\_RESULT\_RANK>  (226) 
7529

>  <i_sd_version>  (226) 
0

>  <b_lp_Chiralities_Consistent>  (226) 
1

>  <b_sd_chiral_flag>  (226) 
0

>  <canonical_id>  (226) 
ATP-HTVS-23EDEB47FF93

>  <compound_code>  (226) 
71874

>  <title>  (226) 
rxn502b____EMOL43467976____EMOL7515103____EMOL50155899

>  <variant>  (226) 
71874-1

>  <source_file>  (226) 
运行/运行/ATP-VSW/ATP-VSW-DOCK_HTVS_1-002_lib.maegz

>  <canonical_smiles>  (226) 
C[NH+](C)Cc1ccc(CNc2cnc(NC(=O)c3ccccc3C#N)c3ccccc23)cc1

>  <scaffold>  (226) 
O=C(Nc1ncc(NCc2ccccc2)c2ccccc12)c1ccccc1

>  <molecular_formula>  (226) 
C27H26N5O+

$$$$
ATP-HTVS-23F526837945
     RDKit          3D

 63 66  0  0  0  0  0  0  0  0999 V2000
  199.5697  183.8319  159.9773 O   0  0  0  0  0  0  0  0  0  0  0  0
  198.6346  183.7418  159.1810 C   0  0  0  0  0  0  0  0  0  0  0  0
  198.7533  183.2131  157.9398 N   0  0  0  0  0  0  0  0  0  0  0  0
  199.9143  182.6572  157.3187 C   0  0  0  0  0  0  0  0  0  0  0  0
  200.9695  182.2429  158.0643 N   0  0  0  0  0  0  0  0  0  0  0  0
  202.0215  181.6536  157.4788 C   0  0  0  0  0  0  0  0  0  0  0  0
  202.1079  181.4423  156.0896 C   0  0  0  0  0  0  0  0  0  0  0  0
  201.0477  181.9039  155.2807 C   0  0  0  0  0  0  0  0  0  0  0  0
  201.1315  181.7218  153.8877 N   0  0  0  0  0  0  0  0  0  0  0  0
  202.2093  182.0323  153.0297 C   0  0  0  0  0  0  0  0  0  0  0  0
  202.0334  181.8209  151.6431 C   0  0  0  0  0  0  0  0  0  0  0  0
  203.0921  182.0603  150.7434 C   0  0  0  0  0  0  0  0  0  0  0  0
  204.3380  182.5019  151.2336 C   0  0  0  0  0  0  0  0  0  0  0  0
  205.4079  182.7134  150.3710 N   0  0  0  0  0  0  0  0  0  0  0  0
  204.5081  182.7466  152.6078 C   0  0  0  0  0  0  0  0  0  0  0  0
  203.4343  182.5528  153.4982 C   0  0  0  0  0  0  0  0  0  0  0  0
  199.9106  182.4939  155.8934 C   0  0  0  0  0  0  0  0  0  0  0  0
  198.7132  182.9493  155.0844 C   0  0  0  0  0  0  0  0  0  0  0  0
  198.2862  184.0928  155.1995 O   0  0  0  0  0  0  0  0  0  0  0  0
  198.0282  181.9522  154.1978 C   0  0  0  0  0  0  0  0  0  0  0  0
  197.0111  182.3987  153.3129 C   0  0  0  0  0  0  0  0  0  0  0  0
  196.3533  181.4873  152.4575 C   0  0  0  0  0  0  0  0  0  0  0  0
  196.7012  180.1253  152.4718 C   0  0  0  0  0  0  0  0  0  0  0  0
  197.6887  179.6747  153.3614 C   0  0  0  0  0  0  0  0  0  0  0  0
  198.3250  180.5739  154.2411 C   0  0  0  0  0  0  0  0  0  0  0  0
  197.2878  184.2970  159.4934 C   0  0  0  0  0  0  0  0  0  0  0  0
  196.1006  183.4785  159.5296 C   0  0  0  0  0  0  0  0  0  0  0  0
  194.8705  184.0991  159.8378 C   0  0  0  0  0  0  0  0  0  0  0  0
  194.7631  185.4971  160.0906 C   0  0  0  0  0  0  0  0  0  0  0  0
  195.9331  186.2865  160.0215 C   0  0  0  0  0  0  0  0  0  0  0  0
  197.1741  185.6960  159.7414 C   0  0  0  0  0  0  0  0  0  0  0  0
  196.0570  181.9702  159.2611 C   0  0  1  0  0  0  0  0  0  0  0  0
  195.3307  181.5636  158.0258 N   0  0  1  0  0  0  0  0  0  0  0  0
  193.8736  181.7419  158.0693 C   0  0  2  0  0  0  0  0  0  0  0  0
  195.9486  182.1018  156.7951 C   0  0  2  0  0  0  0  0  0  0  0  0
  197.9335  183.2820  157.3665 H   0  0  0  0  0  0  0  0  0  0  0  0
  202.8327  181.3356  158.1241 H   0  0  0  0  0  0  0  0  0  0  0  0
  202.9480  180.9097  155.6855 H   0  0  0  0  0  0  0  0  0  0  0  0
  200.2739  181.4689  153.4316 H   0  0  0  0  0  0  0  0  0  0  0  0
  201.0806  181.4838  151.2571 H   0  0  0  0  0  0  0  0  0  0  0  0
  202.9417  181.8989  149.6805 H   0  0  0  0  0  0  0  0  0  0  0  0
  206.2939  183.0396  150.7266 H   0  0  0  0  0  0  0  0  0  0  0  0
  205.3218  182.5821  149.3741 H   0  0  0  0  0  0  0  0  0  0  0  0
  205.4601  183.0850  153.0024 H   0  0  0  0  0  0  0  0  0  0  0  0
  203.5992  182.8140  154.5366 H   0  0  0  0  0  0  0  0  0  0  0  0
  196.7033  183.4311  153.2934 H   0  0  0  0  0  0  0  0  0  0  0  0
  195.5689  181.8376  151.8006 H   0  0  0  0  0  0  0  0  0  0  0  0
  196.2147  179.4230  151.8060 H   0  0  0  0  0  0  0  0  0  0  0  0
  197.9703  178.6367  153.3901 H   0  0  0  0  0  0  0  0  0  0  0  0
  199.0358  180.1600  154.9404 H   0  0  0  0  0  0  0  0  0  0  0  0
  193.9830  183.4969  159.8510 H   0  0  0  0  0  0  0  0  0  0  0  0
  193.8097  185.9424  160.2669 H   0  0  0  0  0  0  0  0  0  0  0  0
  195.8631  187.3564  160.1628 H   0  0  0  0  0  0  0  0  0  0  0  0
  198.0600  186.3109  159.7043 H   0  0  0  0  0  0  0  0  0  0  0  0
  197.0620  181.5489  159.2338 H   0  0  0  0  0  0  0  0  0  0  0  0
  195.5566  181.4632  160.0896 H   0  0  0  0  0  0  0  0  0  0  0  0
  193.5759  182.7858  158.1398 H   0  0  0  0  0  0  0  0  0  0  0  0
  193.4648  181.2229  158.9388 H   0  0  0  0  0  0  0  0  0  0  0  0
  193.4262  181.2222  157.2041 H   0  0  0  0  0  0  0  0  0  0  0  0
  195.9318  183.1854  156.7517 H   0  0  0  0  0  0  0  0  0  0  0  0
  195.5398  181.7092  155.8731 H   0  0  0  0  0  0  0  0  0  0  0  0
  196.9757  181.7439  156.8101 H   0  0  0  0  0  0  0  0  0  0  0  0
  195.4065  180.5774  157.9742 H   0  0  0  0  0  0  0  0  0  0  0  0
  1  2  2  0
  2  3  1  0
  2 26  1  0
  3  4  1  0
  3 36  1  0
  4  5  1  0
  4 17  2  0
  5  6  2  0
  6  7  1  0
  6 37  1  0
  7  8  2  0
  7 38  1  0
  8  9  1  0
  8 17  1  0
  9 10  1  0
  9 39  1  0
 10 11  1  0
 10 16  2  0
 11 12  2  0
 11 40  1  0
 12 13  1  0
 12 41  1  0
 13 14  1  0
 13 15  2  0
 14 42  1  0
 14 43  1  0
 15 16  1  0
 15 44  1  0
 16 45  1  0
 17 18  1  0
 18 19  2  0
 18 20  1  0
 20 21  2  0
 20 25  1  0
 21 22  1  0
 21 46  1  0
 22 23  2  0
 22 47  1  0
 23 24  1  0
 23 48  1  0
 24 25  2  0
 24 49  1  0
 25 50  1  0
 26 27  1  0
 26 31  2  0
 27 28  2  0
 27 32  1  0
 28 29  1  0
 28 51  1  0
 29 30  2  0
 29 52  1  0
 30 31  1  0
 30 53  1  0
 31 54  1  0
 32 33  1  0
 32 55  1  6
 32 56  1  0
 33 34  1  0
 33 35  1  0
 33 63  1  6
 34 57  1  1
 34 58  1  0
 34 59  1  0
 35 60  1  6
 35 61  1  0
 35 62  1  0
M  CHG  1  33   1
M  END
>  <s_epik_cmdline>  (227) 
J2VwaWtfcHl0aG9uJywgJy1waCcsICc3LjAwMDAwMCcsICctcGh0JywgJzIuMDAwMDAwJywgJy1tcycsICcxNicsICctdG4nLCAnOCcsICctbWEnLCAnMjAwJywgJy1pbWFlJywgJzxpbmZpbGUubWFlPicsICctb21hZScsICc8b3V0ZmlsZS5tYWU+Jw==

>  <s_epik_input>  (227) 
W2NIXTFbY0hdW2NIXVtjSF1jKFtDSDJdTihbQ0gzXSlbQ0gzXSljMUMoPU8pW05IXWMybltjSF1bY0hdYyhbTkhdYzNbY0hdW2NIXWMoW05IMl0pW2NIXVtjSF0zKWMyQyg9TyljNFtjSF1bY0hdW2NIXVtjSF1bY0hdNA==

>  <s_i_glide_gridfile>  (227) 
ATP-Grid

>  <s_lp_Force_Field>  (227) 
OPLS_2005

>  <s_lp_Variant>  (227) 
rxn502c____EMOL5415347____EMOL36251210____EMOL493827-1

>  <s_lp_label>  (227) 
2902_sdstereoexpander_1_neutralizer_1_epik_1_stereoizer_1

>  <s_m_source_file>  (227) 
ATP-VSW-LIGPREP-002-in.maegz

>  <s_sd_BIOSOLVEIT.INFINISEE\_QUERY\_NAME>  (227) 
Ref-Lig

>  <s_sd_BIOSOLVEIT.INFINISEE\_QUERY\_SMILES>  (227) 
S(c1nc2c(cc1C[NH2+]Cc3ccc(cc3)C[NH+](C)C)cccc2)Cc4ccccc4

>  <s_sd_BIOSOLVEIT.INFINISEE\_REACTION\_NAME>  (227) 
rxn502c

>  <s_sd_BIOSOLVEIT.INFINISEE\_REAGENT1\_NAME>  (227) 
EMOL5415347

>  <s_sd_BIOSOLVEIT.INFINISEE\_REAGENT1\_SMILES>  (227) 
O=C(O)c1c(cccc1)CN(C)C

>  <s_sd_BIOSOLVEIT.INFINISEE\_REAGENT2\_NAME>  (227) 
EMOL36251210

>  <s_sd_BIOSOLVEIT.INFINISEE\_REAGENT2\_SMILES>  (227) 
Clc1c(c(ncc1)N)C(=O)c2ccccc2

>  <s_sd_BIOSOLVEIT.INFINISEE\_REAGENT3\_NAME>  (227) 
EMOL493827

>  <s_sd_BIOSOLVEIT.INFINISEE\_REAGENT3\_SMILES>  (227) 
Nc1ccc(N)cc1

>  <s_sd_BIOSOLVEIT.INFINISEE\_SPACE>  (227) 
eXplore_7tr_2022-12

>  <s_vsw_compound_code>  (227) 
92834

>  <s_vsw_variant>  (227) 
92834-1

>  <r_epik_Charging_Adjusted_Penalty>  (227) 
0.45449737115692501

>  <r_epik_Ionization_Penalty>  (227) 
0.1046

>  <r_epik_Ionization_Penalty_Charging>  (227) 
0.060100000000000001

>  <r_epik_Ionization_Penalty_Neutral>  (227) 
0.044499999999999998

>  <r_epik_State_Penalty>  (227) 
0.39439999999999997

>  <r_i_docking_score>  (227) 
-4.3690406880798198

>  <r_i_glide_ecoul>  (227) 
-12.9543542861938

>  <r_i_glide_eff_state_penalty>  (227) 
0.39439999999999997

>  <r_i_glide_einternal>  (227) 
6.3112335205078098

>  <r_i_glide_emodel>  (227) 
-52.977292598772003

>  <r_i_glide_energy>  (227) 
-39.417840003967299

>  <r_i_glide_erotb>  (227) 
0.74150224561247002

>  <r_i_glide_esite>  (227) 
-0.10593652159903801

>  <r_i_glide_evdw>  (227) 
-26.463485717773398

>  <r_i_glide_gscore>  (227) 
-4.7634406880798199

>  <r_i_glide_hbond>  (227) 
-0.17588648181165201

>  <r_i_glide_ligand_efficiency>  (227) 
-0.12482973394513799

>  <r_i_glide_ligand_efficiency_ln>  (227) 
-0.95910139666722305

>  <r_i_glide_ligand_efficiency_sa>  (227) 
-0.40832633673383101

>  <r_i_glide_lipo>  (227) 
-1.35755665094293

>  <r_i_glide_metal>  (227) 
-0

>  <r_i_glide_rewards>  (227) 
-0.59923585052091899

>  <r_lp_Energy>  (227) 
43.928300999999998

>  <r_qp_ACxDN^.5/SA>  (227) 
0.0109376

>  <r_qp_CIQPlogS>  (227) 
-6.2460000000000004

>  <r_qp_EA(eV)>  (227) 
0.76800000000000002

>  <r_qp_FISA>  (227) 
123.586

>  <r_qp_FOSA>  (227) 
158.08500000000001

>  <r_qp_IP(eV)>  (227) 
7.673

>  <r_qp_Jm>  (227) 
0.00169587834721527

>  <r_qp_PISA>  (227) 
502.16000000000003

>  <r_qp_PSA>  (227) 
104.773

>  <r_qp_PercentHumanOralAbsorption>  (227) 
94.515000000000001

>  <r_qp_QPPCaco>  (227) 
166.27600000000001

>  <r_qp_QPPMDCK>  (227) 
78.712000000000003

>  <r_qp_QPlogBB>  (227) 
-0.86899999999999999

>  <r_qp_QPlogHERG>  (227) 
-7.8959999999999999

>  <r_qp_QPlogKhsa>  (227) 
0.84299999999999997

>  <r_qp_QPlogKp>  (227) 
-3.2269999999999999

>  <r_qp_QPlogPC16>  (227) 
16.702000000000002

>  <r_qp_QPlogPo/w>  (227) 
4.7510000000000003

>  <r_qp_QPlogPoct>  (227) 
24.468

>  <r_qp_QPlogPw>  (227) 
12.968

>  <r_qp_QPlogS>  (227) 
-5.2119999999999997

>  <r_qp_QPpolrz>  (227) 
51.901000000000003

>  <r_qp_SASA>  (227) 
783.83199999999999

>  <r_qp_SAamideO>  (227) 
0

>  <r_qp_SAfluorine>  (227) 
0

>  <r_qp_WPSA>  (227) 
0

>  <r_qp_accptHB>  (227) 
7

>  <r_qp_dip^2/V>  (227) 
0.067894300000000005

>  <r_qp_dipole>  (227) 
10.007999999999999

>  <r_qp_donorHB>  (227) 
1.5

>  <r_qp_glob>  (227) 
0.79954860000000005

>  <r_qp_mol_MW>  (227) 
465.55399999999997

>  <r_qp_volume>  (227) 
1475.21

>  <r_sd_BIOSOLVEIT.INFINISEE\_FTREES\_SIMILARITY>  (227) 
0.90400000000000003

>  <r_sd_BIOSOLVEIT.LOGP>  (227) 
3.5352000000000001

>  <r_sd_BIOSOLVEIT.MOLECULAR\_WEIGHT>  (227) 
466.56200000000001

>  <r_sd_BIOSOLVEIT.TPSA>  (227) 
101.55

>  <i_epik_Tot_Q>  (227) 
1

>  <i_epik_Tot_abs_Q>  (227) 
1

>  <i_f3d_flags>  (227) 
0

>  <i_i_glide_confnum>  (227) 
8

>  <i_i_glide_lignum>  (227) 
1435

>  <i_i_glide_posenum>  (227) 
14

>  <i_i_glide_rotatable_bonds>  (227) 
9

>  <i_lp_mmshare_version>  (227) 
65135

>  <i_m_ct_format>  (227) 
2

>  <i_m_source_file_index>  (227) 
2902

>  <i_qp_#NandO>  (227) 
7

>  <i_qp_#acid>  (227) 
0

>  <i_qp_#amide>  (227) 
0

>  <i_qp_#amidine>  (227) 
0

>  <i_qp_#amine>  (227) 
1

>  <i_qp_#in34>  (227) 
0

>  <i_qp_#in56>  (227) 
24

>  <i_qp_#metab>  (227) 
6

>  <i_qp_#nonHatm>  (227) 
35

>  <i_qp_#noncon>  (227) 
0

>  <i_qp_#ringatoms>  (227) 
24

>  <i_qp_#rotor>  (227) 
9

>  <i_qp_#rtvFG>  (227) 
0

>  <i_qp_#stars>  (227) 
2

>  <i_qp_CNS>  (227) 
0

>  <i_qp_HumanOralAbsorption>  (227) 
3

>  <i_qp_RuleOfFive>  (227) 
0

>  <i_qp_RuleOfThree>  (227) 
0

>  <i_sd_BIOSOLVEIT.INFINISEE\_RESULT\_RANK>  (227) 
75065

>  <i_sd_version>  (227) 
0

>  <b_lp_Chiralities_Consistent>  (227) 
1

>  <b_sd_chiral_flag>  (227) 
0

>  <canonical_id>  (227) 
ATP-HTVS-23F526837945

>  <compound_code>  (227) 
92834

>  <title>  (227) 
rxn502c____EMOL5415347____EMOL36251210____EMOL493827

>  <variant>  (227) 
92834-1

>  <source_file>  (227) 
运行/运行/ATP-VSW/ATP-VSW-DOCK_HTVS_1-002_lib.maegz

>  <canonical_smiles>  (227) 
C[NH+](C)Cc1ccccc1C(=O)Nc1nccc(Nc2ccc(N)cc2)c1C(=O)c1ccccc1

>  <scaffold>  (227) 
O=C(Nc1nccc(Nc2ccccc2)c1C(=O)c1ccccc1)c1ccccc1

>  <molecular_formula>  (227) 
C28H28N5O2+

$$$$
ATP-HTVS-244A9AEB7273
     RDKit          3D

 64 67  0  0  0  0  0  0  0  0999 V2000
  199.2928  185.8032  157.6784 O   0  0  0  0  0  0  0  0  0  0  0  0
  198.4541  185.0237  158.0605 C   0  0  0  0  0  0  0  0  0  0  0  0
  198.5066  183.6484  158.0453 N   0  0  0  0  0  0  0  0  0  0  0  0
  197.2771  182.9827  158.5569 C   0  0  1  0  0  0  0  0  0  0  0  0
  196.5240  184.1668  159.0933 C   0  0  0  0  0  0  0  0  0  0  0  0
  197.1998  185.3268  158.7766 C   0  0  0  0  0  0  0  0  0  0  0  0
  196.7514  186.5953  159.1563 C   0  0  0  0  0  0  0  0  0  0  0  0
  195.5398  186.6456  159.8661 C   0  0  0  0  0  0  0  0  0  0  0  0
  194.8168  185.4597  160.1755 C   0  0  0  0  0  0  0  0  0  0  0  0
  195.3040  184.1967  159.8013 C   0  0  0  0  0  0  0  0  0  0  0  0
  196.4491  182.2410  157.4723 C   0  0  1  0  0  0  0  0  0  0  0  0
  197.1414  181.0331  156.8958 N   0  0  1  0  0  0  0  0  0  0  0  0
  197.8853  181.2831  155.6164 C   0  0  1  0  0  0  0  0  0  0  0  0
  199.0034  180.2569  155.4078 C   0  0  0  0  0  0  0  0  0  0  0  0
  200.3070  180.4532  155.9503 C   0  0  0  0  0  0  0  0  0  0  0  0
  201.2969  179.4715  155.8337 C   0  0  0  0  0  0  0  0  0  0  0  0
  201.0861  178.3641  155.0309 C   0  0  0  0  0  0  0  0  0  0  0  0
  199.8351  178.2151  154.3592 C   0  0  0  0  0  0  0  0  0  0  0  0
  198.7616  179.1265  154.5982 C   0  0  0  0  0  0  0  0  0  0  0  0
  202.2183  177.3592  154.8394 C   0  0  1  0  0  0  0  0  0  0  0  0
  201.9381  176.0728  155.5487 N   0  0  2  0  0  0  0  0  0  0  0  0
  202.9960  175.0567  155.3667 C   0  0  2  0  0  0  0  0  0  0  0  0
  200.6001  175.4908  155.2801 C   0  0  2  0  0  0  0  0  0  0  0  0
  202.5416  177.2311  153.3396 C   0  0  2  0  0  0  0  0  0  0  0  0
  199.7008  182.9150  157.7432 C   0  0  1  0  0  0  0  0  0  0  0  0
  200.8175  182.7795  158.7607 C   0  0  0  0  0  0  0  0  0  0  0  0
  201.8578  181.8230  158.5704 C   0  0  0  0  0  0  0  0  0  0  0  0
  202.8648  181.6753  159.5345 C   0  0  0  0  0  0  0  0  0  0  0  0
  202.8564  182.4895  160.6864 C   0  0  0  0  0  0  0  0  0  0  0  0
  201.8174  183.4195  160.8732 C   0  0  0  0  0  0  0  0  0  0  0  0
  200.7828  183.5606  159.9362 C   0  0  0  0  0  0  0  0  0  0  0  0
  197.7858  180.6999  157.6080 H   0  0  0  0  0  0  0  0  0  0  0  0
  197.5414  182.3027  159.3745 H   0  0  0  0  0  0  0  0  0  0  0  0
  197.3281  187.4730  158.9033 H   0  0  0  0  0  0  0  0  0  0  0  0
  195.1549  187.6073  160.1572 H   0  0  0  0  0  0  0  0  0  0  0  0
  193.8860  185.5341  160.7019 H   0  0  0  0  0  0  0  0  0  0  0  0
  194.7700  183.2811  160.0326 H   0  0  0  0  0  0  0  0  0  0  0  0
  195.5331  181.8567  157.9313 H   0  0  0  0  0  0  0  0  0  0  0  0
  196.1286  182.9055  156.6781 H   0  0  0  0  0  0  0  0  0  0  0  0
  197.1656  181.2703  154.7966 H   0  0  0  0  0  0  0  0  0  0  0  0
  198.3098  182.2788  155.6008 H   0  0  0  0  0  0  0  0  0  0  0  0
  200.6220  181.3750  156.3922 H   0  0  0  0  0  0  0  0  0  0  0  0
  202.2691  179.6128  156.2950 H   0  0  0  0  0  0  0  0  0  0  0  0
  199.6376  177.3962  153.6790 H   0  0  0  0  0  0  0  0  0  0  0  0
  197.7959  178.9742  154.1326 H   0  0  0  0  0  0  0  0  0  0  0  0
  203.1099  177.7848  155.3185 H   0  0  0  0  0  0  0  0  0  0  0  0
  203.0919  174.7872  154.3178 H   0  0  0  0  0  0  0  0  0  0  0  0
  202.7420  174.1525  155.9120 H   0  0  0  0  0  0  0  0  0  0  0  0
  203.9464  175.4343  155.7274 H   0  0  0  0  0  0  0  0  0  0  0  0
  200.4544  175.3785  154.2048 H   0  0  0  0  0  0  0  0  0  0  0  0
  199.7956  176.1026  155.6978 H   0  0  0  0  0  0  0  0  0  0  0  0
  200.4804  174.5074  155.7149 H   0  0  0  0  0  0  0  0  0  0  0  0
  202.6850  178.2197  152.8995 H   0  0  0  0  0  0  0  0  0  0  0  0
  201.7206  176.7527  152.8092 H   0  0  0  0  0  0  0  0  0  0  0  0
  203.4572  176.6677  153.1684 H   0  0  0  0  0  0  0  0  0  0  0  0
  199.3708  181.8836  157.6976 H   0  0  0  0  0  0  0  0  0  0  0  0
  200.0781  183.2580  156.7657 H   0  0  0  0  0  0  0  0  0  0  0  0
  201.9394  181.1701  157.7186 H   0  0  0  0  0  0  0  0  0  0  0  0
  203.6414  180.9515  159.3587 H   0  0  0  0  0  0  0  0  0  0  0  0
  203.6546  182.3948  161.4079 H   0  0  0  0  0  0  0  0  0  0  0  0
  201.7958  184.0645  161.7418 H   0  0  0  0  0  0  0  0  0  0  0  0
  199.9897  184.2734  160.1026 H   0  0  0  0  0  0  0  0  0  0  0  0
  201.9338  176.3199  156.5322 H   0  0  0  0  0  0  0  0  0  0  0  0
  196.4603  180.2973  156.8153 H   0  0  0  0  0  0  0  0  0  0  0  0
  1  2  2  0
  2  3  1  0
  2  6  1  0
  3  4  1  0
  3 25  1  0
  4  5  1  0
  4 11  1  0
  4 33  1  1
  5  6  1  0
  5 10  2  0
  6  7  2  0
  7  8  1  0
  7 34  1  0
  8  9  2  0
  8 35  1  0
  9 10  1  0
  9 36  1  0
 10 37  1  0
 11 12  1  0
 11 38  1  1
 11 39  1  0
 12 13  1  0
 12 32  1  1
 12 64  1  0
 13 14  1  0
 13 40  1  6
 13 41  1  0
 14 15  1  0
 14 19  2  0
 15 16  2  0
 15 42  1  0
 16 17  1  0
 16 43  1  0
 17 18  2  0
 17 20  1  0
 18 19  1  0
 18 44  1  0
 19 45  1  0
 20 21  1  0
 20 24  1  0
 20 46  1  1
 21 22  1  0
 21 23  1  0
 21 63  1  1
 22 47  1  6
 22 48  1  0
 22 49  1  0
 23 50  1  6
 23 51  1  0
 23 52  1  0
 24 53  1  6
 24 54  1  0
 24 55  1  0
 25 26  1  0
 25 56  1  6
 25 57  1  0
 26 27  2  0
 26 31  1  0
 27 28  1  0
 27 58  1  0
 28 29  2  0
 28 59  1  0
 29 30  1  0
 29 60  1  0
 30 31  2  0
 30 61  1  0
 31 62  1  0
M  CHG  2  12   1  21   1
M  END
>  <s_epik_cmdline>  (228) 
J2VwaWtfcHl0aG9uJywgJy1waCcsICc3LjAwMDAwMCcsICctcGh0JywgJzIuMDAwMDAwJywgJy1tcycsICcxNicsICctdG4nLCAnOCcsICctbWEnLCAnMjAwJywgJy1pbWFlJywgJzxpbmZpbGUubWFlPicsICctb21hZScsICc8b3V0ZmlsZS5tYWU+Jw==

>  <s_epik_input>  (228) 
W2NIXTFbY0hdW2NIXVtjSF1bY0hdYzFbQ0gyXU4oQyg9TyljKGMyMylbY0hdW2NIXVtjSF1bY0hdMylbQ0BASF0yW0NIMl1bTkhdW0NIMl1jNFtjSF1bY0hdYyhbY0hdW2NIXTQpW0NASF0oW0NIM10pTihbQ0gzXSlbQ0gzXQ==

>  <s_i_glide_gridfile>  (228) 
ATP-Grid

>  <s_lp_Force_Field>  (228) 
OPLS_2005

>  <s_lp_Variant>  (228) 
a4____241569____411479-4

>  <s_lp_label>  (228) 
168_sdstereoexpander_4_neutralizer_1_epik_1_stereoizer_1

>  <s_m_source_file>  (228) 
ATP-VSW-LIGPREP-003-in.maegz

>  <s_sd_BIOSOLVEIT.INFINISEE\_QUERY\_NAME>  (228) 
Ref-Lig

>  <s_sd_BIOSOLVEIT.INFINISEE\_QUERY\_SMILES>  (228) 
S(c1nc2c(cc1C[NH2+]Cc3ccc(cc3)C[NH+](C)C)cccc2)Cc4ccccc4

>  <s_sd_BIOSOLVEIT.INFINISEE\_REACTION\_NAME>  (228) 
a4

>  <s_sd_BIOSOLVEIT.INFINISEE\_REAGENT1\_SMILES>  (228) 
[R1*]NCC1N(C(=O)c2c1cccc2)Cc3ccccc3

>  <s_sd_BIOSOLVEIT.INFINISEE\_REAGENT2\_SMILES>  (228) 
[R1*]Cc1ccc(cc1)C(N(C)C)C

>  <s_sd_BIOSOLVEIT.INFINISEE\_SPACE>  (228) 
FreedomSpace_5bn_2023-06

>  <s_vsw_compound_code>  (228) 
5347

>  <s_vsw_variant>  (228) 
5347-4

>  <r_epik_Charging_Adjusted_Penalty>  (228) 
0.24531906547441601

>  <r_epik_Ionization_Penalty>  (228) 
0.1231

>  <r_epik_Ionization_Penalty_Charging>  (228) 
0.1231

>  <r_epik_Ionization_Penalty_Neutral>  (228) 
0

>  <r_epik_State_Penalty>  (228) 
0.12230000000000001

>  <r_i_docking_score>  (228) 
-5.75459768677577

>  <r_i_glide_ecoul>  (228) 
-12.628034591674799

>  <r_i_glide_eff_state_penalty>  (228) 
0.12230000000000001

>  <r_i_glide_einternal>  (228) 
9.1542291641235405

>  <r_i_glide_emodel>  (228) 
-64.335167297940998

>  <r_i_glide_energy>  (228) 
-43.127761840820298

>  <r_i_glide_erotb>  (228) 
0.800445015769505

>  <r_i_glide_esite>  (228) 
-0.10000000000000001

>  <r_i_glide_evdw>  (228) 
-30.499727249145501

>  <r_i_glide_gscore>  (228) 
-5.8768976867757701

>  <r_i_glide_hbond>  (228) 
-0.16120170289918001

>  <r_i_glide_ligand_efficiency>  (228) 
-0.18563218344438001

>  <r_i_glide_ligand_efficiency_ln>  (228) 
-1.2978381356073301

>  <r_i_glide_ligand_efficiency_sa>  (228) 
-0.58314134886584401

>  <r_i_glide_lipo>  (228) 
-1.9447350182080001

>  <r_i_glide_metal>  (228) 
-0

>  <r_i_glide_rewards>  (228) 
-1.0522144302295999

>  <r_lp_Energy>  (228) 
52.409413999999998

>  <r_qp_ACxDN^.5/SA>  (228) 
0.008515

>  <r_qp_CIQPlogS>  (228) 
-4.1180000000000003

>  <r_qp_EA(eV)>  (228) 
0.36599999999999999

>  <r_qp_FISA>  (228) 
46.573999999999998

>  <r_qp_FOSA>  (228) 
290.863

>  <r_qp_IP(eV)>  (228) 
9.1129999999999995

>  <r_qp_Jm>  (228) 
0.0024795093255949498

>  <r_qp_PISA>  (228) 
425.92000000000002

>  <r_qp_PSA>  (228) 
43.674999999999997

>  <r_qp_PercentHumanOralAbsorption>  (228) 
95.352999999999994

>  <r_qp_QPPCaco>  (228) 
222.863

>  <r_qp_QPPMDCK>  (228) 
119.51300000000001

>  <r_qp_QPlogBB>  (228) 
0.38700000000000001

>  <r_qp_QPlogHERG>  (228) 
-8.3279999999999994

>  <r_qp_QPlogKhsa>  (228) 
0.80700000000000005

>  <r_qp_QPlogKp>  (228) 
-4.2350000000000003

>  <r_qp_QPlogPC16>  (228) 
14.903

>  <r_qp_QPlogPo/w>  (228) 
4.5060000000000002

>  <r_qp_QPlogPoct>  (228) 
21.466000000000001

>  <r_qp_QPlogPw>  (228) 
10.872999999999999

>  <r_qp_QPlogS>  (228) 
-3.988

>  <r_qp_QPpolrz>  (228) 
49.064999999999998

>  <r_qp_SASA>  (228) 
763.35699999999997

>  <r_qp_SAamideO>  (228) 
0

>  <r_qp_SAfluorine>  (228) 
0

>  <r_qp_WPSA>  (228) 
0

>  <r_qp_accptHB>  (228) 
6.5

>  <r_qp_dip^2/V>  (228) 
0.031970800000000001

>  <r_qp_dipole>  (228) 
6.7060000000000004

>  <r_qp_donorHB>  (228) 
1

>  <r_qp_glob>  (228) 
0.795296

>  <r_qp_mol_MW>  (228) 
413.56099999999998

>  <r_qp_volume>  (228) 
1406.4929999999999

>  <r_sd_BIOSOLVEIT.INFINISEE\_FTREES\_SIMILARITY>  (228) 
0.95099999999999996

>  <r_sd_BIOSOLVEIT.LOGP>  (228) 
2.3527999999999998

>  <r_sd_BIOSOLVEIT.MOLECULAR\_WEIGHT>  (228) 
415.57799999999997

>  <r_sd_BIOSOLVEIT.TPSA>  (228) 
41.359999999999999

>  <i_epik_Tot_Q>  (228) 
2

>  <i_epik_Tot_abs_Q>  (228) 
2

>  <i_f3d_flags>  (228) 
0

>  <i_i_glide_confnum>  (228) 
8

>  <i_i_glide_lignum>  (228) 
204

>  <i_i_glide_posenum>  (228) 
19

>  <i_i_glide_rotatable_bonds>  (228) 
8

>  <i_lp_mmshare_version>  (228) 
65135

>  <i_m_ct_format>  (228) 
2

>  <i_m_source_file_index>  (228) 
168

>  <i_qp_#NandO>  (228) 
4

>  <i_qp_#acid>  (228) 
0

>  <i_qp_#amide>  (228) 
0

>  <i_qp_#amidine>  (228) 
0

>  <i_qp_#amine>  (228) 
2

>  <i_qp_#in34>  (228) 
0

>  <i_qp_#in56>  (228) 
21

>  <i_qp_#metab>  (228) 
6

>  <i_qp_#nonHatm>  (228) 
31

>  <i_qp_#noncon>  (228) 
1

>  <i_qp_#ringatoms>  (228) 
21

>  <i_qp_#rotor>  (228) 
8

>  <i_qp_#rtvFG>  (228) 
0

>  <i_qp_#stars>  (228) 
0

>  <i_qp_CNS>  (228) 
1

>  <i_qp_HumanOralAbsorption>  (228) 
3

>  <i_qp_RuleOfFive>  (228) 
0

>  <i_qp_RuleOfThree>  (228) 
0

>  <i_sd_BIOSOLVEIT.INFINISEE\_REAGENT1\_NAME>  (228) 
241569

>  <i_sd_BIOSOLVEIT.INFINISEE\_REAGENT2\_NAME>  (228) 
411479

>  <i_sd_BIOSOLVEIT.INFINISEE\_RESULT\_RANK>  (228) 
187

>  <i_sd_version>  (228) 
0

>  <b_lp_Chiralities_Consistent>  (228) 
1

>  <b_sd_chiral_flag>  (228) 
0

>  <canonical_id>  (228) 
ATP-HTVS-244A9AEB7273

>  <compound_code>  (228) 
5347

>  <title>  (228) 
a4____241569____411479

>  <variant>  (228) 
5347-4

>  <source_file>  (228) 
运行/运行/ATP-VSW/ATP-VSW-DOCK_HTVS_1-003_lib/ATP-VSW-DOCK_HTVS_1-003_lib.mae

>  <canonical_smiles>  (228) 
C[C@@H](c1ccc(C[NH2+]C[C@@H]2c3ccccc3C(=O)N2Cc2ccccc2)cc1)[NH+](C)C

>  <scaffold>  (228) 
O=C1c2ccccc2C(C[NH2+]Cc2ccccc2)N1Cc1ccccc1

>  <molecular_formula>  (228) 
C27H33N3O+2

$$$$
ATP-HTVS-247B97B4CA47
     RDKit          3D

 57 59  0  0  0  0  0  0  0  0999 V2000
  198.9729  179.1258  153.6116 Cl  0  0  0  0  0  0  0  0  0  0  0  0
  198.5813  180.3040  154.8162 C   0  0  0  0  0  0  0  0  0  0  0  0
  199.3253  180.4106  156.0173 C   0  0  0  0  0  0  0  0  0  0  0  0
  199.0634  181.5062  156.8831 C   0  0  0  0  0  0  0  0  0  0  0  0
  198.0710  182.4541  156.5959 C   0  0  0  0  0  0  0  0  0  0  0  0
  197.9291  183.5752  157.4194 N   0  0  0  0  0  0  0  0  0  0  0  0
  196.6897  184.3189  157.2668 C   0  0  1  0  0  0  0  0  0  0  0  0
  196.5385  185.5085  158.2054 C   0  0  0  0  0  0  0  0  0  0  0  0
  195.8015  185.3523  159.4005 C   0  0  0  0  0  0  0  0  0  0  0  0
  195.2076  184.1423  159.6991 O   0  0  0  0  0  0  0  0  0  0  0  0
  194.0081  183.8616  158.9945 C   0  0  2  0  0  0  0  0  0  0  0  0
  195.6873  186.4273  160.3138 C   0  0  0  0  0  0  0  0  0  0  0  0
  194.9988  186.2301  161.4831 O   0  0  0  0  0  0  0  0  0  0  0  0
  194.1756  187.2855  161.9673 C   0  0  2  0  0  0  0  0  0  0  0  0
  196.3034  187.6776  160.0012 C   0  0  0  0  0  0  0  0  0  0  0  0
  197.0118  187.8305  158.8096 C   0  0  0  0  0  0  0  0  0  0  0  0
  197.1413  186.7624  157.8943 C   0  0  0  0  0  0  0  0  0  0  0  0
  197.8577  186.9627  156.7013 C   0  0  0  0  0  0  0  0  0  0  0  0
  198.4481  188.2078  156.4050 C   0  0  0  0  0  0  0  0  0  0  0  0
  198.3329  189.2660  157.3212 C   0  0  0  0  0  0  0  0  0  0  0  0
  197.6174  189.0874  158.5136 C   0  0  0  0  0  0  0  0  0  0  0  0
  197.2602  182.2593  155.4411 C   0  0  0  0  0  0  0  0  0  0  0  0
  197.5275  181.2023  154.5571 C   0  0  0  0  0  0  0  0  0  0  0  0
  200.4631  179.4452  156.3734 C   0  0  1  0  0  0  0  0  0  0  0  0
  199.9851  178.1540  156.9710 N   0  0  1  0  0  0  0  0  0  0  0  0
  199.5915  177.1148  155.9852 C   0  0  1  0  0  0  0  0  0  0  0  0
  200.7675  176.6707  155.0637 C   0  0  1  0  0  0  0  0  0  0  0  0
  201.7106  175.8952  155.7561 O   0  0  0  0  0  0  0  0  0  0  0  0
  200.8551  177.6618  158.0814 C   0  0  2  0  0  0  0  0  0  0  0  0
  199.7004  181.6537  157.7336 H   0  0  0  0  0  0  0  0  0  0  0  0
  198.4016  183.6219  158.3143 H   0  0  0  0  0  0  0  0  0  0  0  0
  196.6544  184.7110  156.2405 H   0  0  0  0  0  0  0  0  0  0  0  0
  195.8730  183.6254  157.3486 H   0  0  0  0  0  0  0  0  0  0  0  0
  193.6060  182.9183  159.3262 H   0  0  0  0  0  0  0  0  0  0  0  0
  194.1506  183.7440  157.9474 H   0  0  0  0  0  0  0  0  0  0  0  0
  193.2601  184.6405  159.2127 H   0  0  0  0  0  0  0  0  0  0  0  0
  193.6763  186.9523  162.8798 H   0  0  0  0  0  0  0  0  0  0  0  0
  193.4021  187.5265  161.2399 H   0  0  0  0  0  0  0  0  0  0  0  0
  194.7307  188.1884  162.2059 H   0  0  0  0  0  0  0  0  0  0  0  0
  196.2419  188.5090  160.7077 H   0  0  0  0  0  0  0  0  0  0  0  0
  197.9947  186.1870  155.9677 H   0  0  0  0  0  0  0  0  0  0  0  0
  198.9941  188.3295  155.4762 H   0  0  0  0  0  0  0  0  0  0  0  0
  198.7962  190.2189  157.0908 H   0  0  0  0  0  0  0  0  0  0  0  0
  197.5363  189.9171  159.2139 H   0  0  0  0  0  0  0  0  0  0  0  0
  196.4732  182.9258  155.1487 H   0  0  0  0  0  0  0  0  0  0  0  0
  196.9429  181.1072  153.6475 H   0  0  0  0  0  0  0  0  0  0  0  0
  201.0731  179.3114  155.4890 H   0  0  0  0  0  0  0  0  0  0  0  0
  201.1066  179.9599  157.0930 H   0  0  0  0  0  0  0  0  0  0  0  0
  199.1789  176.2470  156.5356 H   0  0  0  0  0  0  0  0  0  0  0  0
  198.7713  177.5105  155.3910 H   0  0  0  0  0  0  0  0  0  0  0  0
  200.3817  176.0621  154.2419 H   0  0  0  0  0  0  0  0  0  0  0  0
  201.2972  177.5065  154.5946 H   0  0  0  0  0  0  0  0  0  0  0  0
  202.1509  176.4312  156.4267 H   0  0  0  0  0  0  0  0  0  0  0  0
  201.8626  177.4610  157.7135 H   0  0  0  0  0  0  0  0  0  0  0  0
  200.4409  176.7239  158.4739 H   0  0  0  0  0  0  0  0  0  0  0  0
  200.9347  178.3589  158.9186 H   0  0  0  0  0  0  0  0  0  0  0  0
  199.0955  178.3520  157.4488 H   0  0  0  0  0  0  0  0  0  0  0  0
  1  2  1  0
  2  3  2  0
  2 23  1  0
  3  4  1  0
  3 24  1  0
  4  5  2  0
  4 30  1  0
  5  6  1  0
  5 22  1  0
  6  7  1  0
  6 31  1  0
  7  8  1  0
  7 32  1  6
  7 33  1  0
  8  9  2  0
  8 17  1  0
  9 10  1  0
  9 12  1  0
 10 11  1  0
 11 34  1  1
 11 35  1  0
 11 36  1  0
 12 13  1  0
 12 15  2  0
 13 14  1  0
 14 37  1  1
 14 38  1  0
 14 39  1  0
 15 16  1  0
 15 40  1  0
 16 17  1  0
 16 21  2  0
 17 18  2  0
 18 19  1  0
 18 41  1  0
 19 20  2  0
 19 42  1  0
 20 21  1  0
 20 43  1  0
 21 44  1  0
 22 23  2  0
 22 45  1  0
 23 46  1  0
 24 25  1  0
 24 47  1  6
 24 48  1  0
 25 26  1  0
 25 29  1  0
 25 57  1  1
 26 27  1  0
 26 49  1  1
 26 50  1  0
 27 28  1  0
 27 51  1  6
 27 52  1  0
 28 53  1  0
 29 54  1  6
 29 55  1  0
 29 56  1  0
M  CHG  1  25   1
M  END
>  <s_epik_cmdline>  (229) 
J2VwaWtfcHl0aG9uJywgJy1waCcsICc3LjAwMDAwMCcsICctcGh0JywgJzIuMDAwMDAwJywgJy1tcycsICcxNicsICctdG4nLCAnOCcsICctbWEnLCAnMjAwJywgJy1pbWFlJywgJzxpbmZpbGUubWFlPicsICctb21hZScsICc8b3V0ZmlsZS5tYWU+Jw==

>  <s_epik_input>  (229) 
W09IXVtDSDJdW0NIMl1OKFtDSDNdKVtDSDJdYyhjMUNsKVtjSF1jKFtjSF1bY0hdMSlbTkhdW0NIMl1jKGMoT1tDSDNdKWMoW2NIXTIpT1tDSDNdKWMoYzIzKVtjSF1bY0hdW2NIXVtjSF0z

>  <s_i_glide_gridfile>  (229) 
ATP-Grid

>  <s_lp_Force_Field>  (229) 
OPLS_2005

>  <s_lp_Variant>  (229) 
m_270004bbb____24794408____24720450-2

>  <s_lp_label>  (229) 
1933_sdstereoexpander_1_neutralizer_1_epik_1_stereoizer_2

>  <s_m_source_file>  (229) 
ATP-VSW-LIGPREP-001-in.maegz

>  <s_sd_BIOSOLVEIT.INFINISEE\_QUERY\_NAME>  (229) 
Ref-Lig

>  <s_sd_BIOSOLVEIT.INFINISEE\_QUERY\_SMILES>  (229) 
S(c1nc2c(cc1C[NH2+]Cc3ccc(cc3)C[NH+](C)C)cccc2)Cc4ccccc4

>  <s_sd_BIOSOLVEIT.INFINISEE\_REACTION\_NAME>  (229) 
m_270004bbb

>  <s_sd_BIOSOLVEIT.INFINISEE\_REAGENT1\_SMILES>  (229) 
[R1*]Nc1cc(c(Cl)cc1)CN(CCO)C

>  <s_sd_BIOSOLVEIT.INFINISEE\_REAGENT2\_SMILES>  (229) 
[R1*]Cc1c(OC)c(OC)cc2c1cccc2

>  <s_sd_BIOSOLVEIT.INFINISEE\_SPACE>  (229) 
REALSpace_44bn_2023-08

>  <s_vsw_compound_code>  (229) 
61825

>  <s_vsw_variant>  (229) 
61825-2

>  <r_epik_Charging_Adjusted_Penalty>  (229) 
0.069171375724569495

>  <r_epik_Ionization_Penalty>  (229) 
0.034599999999999999

>  <r_epik_Ionization_Penalty_Charging>  (229) 
0.034599999999999999

>  <r_epik_Ionization_Penalty_Neutral>  (229) 
0

>  <r_epik_State_Penalty>  (229) 
0.034599999999999999

>  <r_i_docking_score>  (229) 
-5.0846560662070202

>  <r_i_glide_ecoul>  (229) 
-8.9898710250854492

>  <r_i_glide_eff_state_penalty>  (229) 
0.034599999999999999

>  <r_i_glide_einternal>  (229) 
8.5575876235961896

>  <r_i_glide_emodel>  (229) 
-59.2471558659647

>  <r_i_glide_energy>  (229) 
-44.7371664047241

>  <r_i_glide_erotb>  (229) 
0.79918618310249401

>  <r_i_glide_esite>  (229) 
-0.0986137494463563

>  <r_i_glide_evdw>  (229) 
-35.7472953796387

>  <r_i_glide_gscore>  (229) 
-5.1192560662070203

>  <r_i_glide_hbond>  (229) 
-0.20000000000000001

>  <r_i_glide_ligand_efficiency>  (229) 
-0.17533296780024199

>  <r_i_glide_ligand_efficiency_ln>  (229) 
-1.16425730340845

>  <r_i_glide_ligand_efficiency_sa>  (229) 
-0.53867842646548902

>  <r_i_glide_lipo>  (229) 
-1.91079707711841

>  <r_i_glide_metal>  (229) 
-0

>  <r_i_glide_rewards>  (229) 
-0.57318599999999997

>  <r_lp_Energy>  (229) 
35.083105000000003

>  <r_qp_ACxDN^.5/SA>  (229) 
0.012037900000000001

>  <r_qp_CIQPlogS>  (229) 
-5.0259999999999998

>  <r_qp_EA(eV)>  (229) 
0.94199999999999995

>  <r_qp_FISA>  (229) 
48.549999999999997

>  <r_qp_FOSA>  (229) 
347.21100000000001

>  <r_qp_IP(eV)>  (229) 
7.9569999999999999

>  <r_qp_Jm>  (229) 
0.034161674544659001

>  <r_qp_PISA>  (229) 
280.19200000000001

>  <r_qp_PSA>  (229) 
52.210000000000001

>  <r_qp_PercentHumanOralAbsorption>  (229) 
100

>  <r_qp_QPPCaco>  (229) 
855.85199999999998

>  <r_qp_QPPMDCK>  (229) 
896.03800000000001

>  <r_qp_QPlogBB>  (229) 
-0.021000000000000001

>  <r_qp_QPlogHERG>  (229) 
-6.8689999999999998

>  <r_qp_QPlogKhsa>  (229) 
0.51000000000000001

>  <r_qp_QPlogKp>  (229) 
-2.5299999999999998

>  <r_qp_QPlogPC16>  (229) 
13.645

>  <r_qp_QPlogPo/w>  (229) 
4.4649999999999999

>  <r_qp_QPlogPoct>  (229) 
20.297000000000001

>  <r_qp_QPlogPw>  (229) 
10.557

>  <r_qp_QPlogS>  (229) 
-4.5549999999999997

>  <r_qp_QPpolrz>  (229) 
42.795999999999999

>  <r_qp_SASA>  (229) 
728.37400000000002

>  <r_qp_SAamideO>  (229) 
0

>  <r_qp_SAfluorine>  (229) 
0

>  <r_qp_WPSA>  (229) 
52.421999999999997

>  <r_qp_accptHB>  (229) 
6.2000000000000002

>  <r_qp_dip^2/V>  (229) 
0.016430299999999998

>  <r_qp_dipole>  (229) 
4.6509999999999998

>  <r_qp_donorHB>  (229) 
2

>  <r_qp_glob>  (229) 
0.79763740000000005

>  <r_qp_mol_MW>  (229) 
414.93099999999998

>  <r_qp_volume>  (229) 
1316.7170000000001

>  <r_sd_BIOSOLVEIT.INFINISEE\_FTREES\_SIMILARITY>  (229) 
0.90200000000000002

>  <r_sd_BIOSOLVEIT.LOGP>  (229) 
3.1295000000000002

>  <r_sd_BIOSOLVEIT.MOLECULAR\_WEIGHT>  (229) 
415.93799999999999

>  <r_sd_BIOSOLVEIT.TPSA>  (229) 
55.159999999999997

>  <i_epik_Tot_Q>  (229) 
1

>  <i_epik_Tot_abs_Q>  (229) 
1

>  <i_f3d_flags>  (229) 
0

>  <i_i_glide_confnum>  (229) 
2

>  <i_i_glide_lignum>  (229) 
592

>  <i_i_glide_posenum>  (229) 
19

>  <i_i_glide_rotatable_bonds>  (229) 
10

>  <i_lp_mmshare_version>  (229) 
65135

>  <i_m_ct_format>  (229) 
2

>  <i_m_source_file_index>  (229) 
1933

>  <i_qp_#NandO>  (229) 
5

>  <i_qp_#acid>  (229) 
0

>  <i_qp_#amide>  (229) 
0

>  <i_qp_#amidine>  (229) 
0

>  <i_qp_#amine>  (229) 
1

>  <i_qp_#in34>  (229) 
0

>  <i_qp_#in56>  (229) 
16

>  <i_qp_#metab>  (229) 
9

>  <i_qp_#nonHatm>  (229) 
29

>  <i_qp_#noncon>  (229) 
0

>  <i_qp_#ringatoms>  (229) 
16

>  <i_qp_#rotor>  (229) 
10

>  <i_qp_#rtvFG>  (229) 
0

>  <i_qp_#stars>  (229) 
1

>  <i_qp_CNS>  (229) 
1

>  <i_qp_HumanOralAbsorption>  (229) 
3

>  <i_qp_RuleOfFive>  (229) 
0

>  <i_qp_RuleOfThree>  (229) 
1

>  <i_sd_BIOSOLVEIT.INFINISEE\_REAGENT1\_NAME>  (229) 
24794408

>  <i_sd_BIOSOLVEIT.INFINISEE\_REAGENT2\_NAME>  (229) 
24720450

>  <i_sd_BIOSOLVEIT.INFINISEE\_RESULT\_RANK>  (229) 
86516

>  <i_sd_version>  (229) 
0

>  <b_lp_Chiralities_Consistent>  (229) 
1

>  <b_sd_chiral_flag>  (229) 
0

>  <canonical_id>  (229) 
ATP-HTVS-247B97B4CA47

>  <compound_code>  (229) 
61825

>  <title>  (229) 
m_270004bbb____24794408____24720450

>  <variant>  (229) 
61825-2

>  <source_file>  (229) 
运行/运行/ATP-VSW/ATP-VSW-DOCK_HTVS_1-001_lib/ATP-VSW-DOCK_HTVS_1-001_lib

>  <canonical_smiles>  (229) 
COc1cc2ccccc2c(CNc2ccc(Cl)c(C[N@H+](C)CCO)c2)c1OC

>  <scaffold>  (229) 
c1ccc(NCc2cccc3ccccc23)cc1

>  <molecular_formula>  (229) 
C23H28ClN2O3+

$$$$
ATP-HTVS-2485F4B11063
     RDKit          3D

 54 57  0  0  0  0  0  0  0  0999 V2000
  198.2651  186.2361  150.1198 Cl  0  0  0  0  0  0  0  0  0  0  0  0
  197.7428  184.8700  151.0272 C   0  0  0  0  0  0  0  0  0  0  0  0
  197.2457  183.7268  150.3628 C   0  0  0  0  0  0  0  0  0  0  0  0
  196.8158  182.6176  151.1129 C   0  0  0  0  0  0  0  0  0  0  0  0
  196.8667  182.6534  152.5219 C   0  0  0  0  0  0  0  0  0  0  0  0
  197.3403  183.8157  153.1750 C   0  0  0  0  0  0  0  0  0  0  0  0
  197.7966  184.9134  152.4330 C   0  0  0  0  0  0  0  0  0  0  0  0
  196.3580  181.4646  153.3073 C   0  0  1  0  0  0  0  0  0  0  0  0
  197.4460  180.6462  153.8386 N   0  0  0  0  0  0  0  0  0  0  0  0
  198.0967  179.6305  153.1410 C   0  0  0  0  0  0  0  0  0  0  0  0
  199.0937  179.1403  154.0357 C   0  0  0  0  0  0  0  0  0  0  0  0
  199.0531  179.8170  155.2298 N   0  0  0  0  0  0  0  0  0  0  0  0
  198.0694  180.6908  155.0463 C   0  0  0  0  0  0  0  0  0  0  0  0
  197.7188  181.6488  156.1366 C   0  0  1  0  0  0  0  0  0  0  0  0
  196.3074  181.3588  156.4740 N   0  0  1  0  0  0  0  0  0  0  0  0
  195.6659  182.3572  157.3195 C   0  0  1  0  0  0  0  0  0  0  0  0
  196.2478  182.3502  158.7253 C   0  0  2  0  0  0  0  0  0  0  0  0
  195.4105  181.4366  159.3806 O   0  0  0  0  0  0  0  0  0  0  0  0
  196.2507  183.7477  159.3048 C   0  0  0  0  0  0  0  0  0  0  0  0
  195.0880  184.3148  159.8555 C   0  0  0  0  0  0  0  0  0  0  0  0
  195.1200  185.6225  160.3780 C   0  0  0  0  0  0  0  0  0  0  0  0
  196.3050  186.3837  160.3117 C   0  0  0  0  0  0  0  0  0  0  0  0
  196.3431  187.6392  160.8205 F   0  0  0  0  0  0  0  0  0  0  0  0
  197.4617  185.8295  159.7272 C   0  0  0  0  0  0  0  0  0  0  0  0
  197.4297  184.5186  159.2197 C   0  0  0  0  0  0  0  0  0  0  0  0
  193.8837  186.2148  161.0209 C   0  0  2  0  0  0  0  0  0  0  0  0
  199.9374  178.0893  153.6054 C   0  0  0  0  0  0  0  0  0  0  0  0
  199.7859  177.5365  152.3163 C   0  0  0  0  0  0  0  0  0  0  0  0
  198.7905  178.0307  151.4437 C   0  0  0  0  0  0  0  0  0  0  0  0
  197.9433  179.0815  151.8571 C   0  0  0  0  0  0  0  0  0  0  0  0
  195.7704  181.3497  155.6187 H   0  0  0  0  0  0  0  0  0  0  0  0
  197.1850  183.7084  149.2796 H   0  0  0  0  0  0  0  0  0  0  0  0
  196.4220  181.7493  150.6105 H   0  0  0  0  0  0  0  0  0  0  0  0
  197.3311  183.9138  154.2430 H   0  0  0  0  0  0  0  0  0  0  0  0
  198.1564  185.7973  152.9395 H   0  0  0  0  0  0  0  0  0  0  0  0
  195.7095  181.8524  154.0783 H   0  0  0  0  0  0  0  0  0  0  0  0
  195.7515  180.8208  152.6646 H   0  0  0  0  0  0  0  0  0  0  0  0
  198.4031  181.4791  156.9778 H   0  0  0  0  0  0  0  0  0  0  0  0
  197.8623  182.6672  155.8120 H   0  0  0  0  0  0  0  0  0  0  0  0
  195.7229  183.3242  156.8345 H   0  0  0  0  0  0  0  0  0  0  0  0
  194.5960  182.1442  157.3683 H   0  0  0  0  0  0  0  0  0  0  0  0
  197.2679  181.9825  158.7880 H   0  0  0  0  0  0  0  0  0  0  0  0
  195.5559  180.5618  159.0263 H   0  0  0  0  0  0  0  0  0  0  0  0
  194.1800  183.7331  159.8907 H   0  0  0  0  0  0  0  0  0  0  0  0
  198.3742  186.4148  159.6818 H   0  0  0  0  0  0  0  0  0  0  0  0
  198.3237  184.1098  158.7693 H   0  0  0  0  0  0  0  0  0  0  0  0
  193.4934  187.0285  160.4150 H   0  0  0  0  0  0  0  0  0  0  0  0
  194.1245  186.6111  162.0082 H   0  0  0  0  0  0  0  0  0  0  0  0
  193.1105  185.4571  161.1282 H   0  0  0  0  0  0  0  0  0  0  0  0
  200.6913  177.7004  154.2810 H   0  0  0  0  0  0  0  0  0  0  0  0
  200.4232  176.7229  151.9989 H   0  0  0  0  0  0  0  0  0  0  0  0
  198.6737  177.5980  150.4611 H   0  0  0  0  0  0  0  0  0  0  0  0
  197.1816  179.4594  151.1943 H   0  0  0  0  0  0  0  0  0  0  0  0
  196.2059  180.4346  156.9039 H   0  0  0  0  0  0  0  0  0  0  0  0
  1  2  1  0
  2  3  1  0
  2  7  2  0
  3  4  2  0
  3 32  1  0
  4  5  1  0
  4 33  1  0
  5  6  2  0
  5  8  1  0
  6  7  1  0
  6 34  1  0
  7 35  1  0
  8  9  1  0
  8 36  1  1
  8 37  1  0
  9 10  1  0
  9 13  1  0
 10 11  1  0
 10 30  2  0
 11 12  1  0
 11 27  2  0
 12 13  2  0
 13 14  1  0
 14 15  1  0
 14 38  1  1
 14 39  1  0
 15 16  1  0
 15 31  1  6
 15 54  1  0
 16 17  1  0
 16 40  1  6
 16 41  1  0
 17 18  1  0
 17 19  1  0
 17 42  1  6
 18 43  1  0
 19 20  2  0
 19 25  1  0
 20 21  1  0
 20 44  1  0
 21 22  2  0
 21 26  1  0
 22 23  1  0
 22 24  1  0
 24 25  2  0
 24 45  1  0
 25 46  1  0
 26 47  1  6
 26 48  1  0
 26 49  1  0
 27 28  1  0
 27 50  1  0
 28 29  2  0
 28 51  1  0
 29 30  1  0
 29 52  1  0
 30 53  1  0
M  CHG  1  15   1
M  END
>  <s_epik_cmdline>  (230) 
J2VwaWtfcHl0aG9uJywgJy1waCcsICc3LjAwMDAwMCcsICctcGh0JywgJzIuMDAwMDAwJywgJy1tcycsICcxNicsICctdG4nLCAnOCcsICctbWEnLCAnMjAwJywgJy1pbWFlJywgJzxpbmZpbGUubWFlPicsICctb21hZScsICc8b3V0ZmlsZS5tYWU+Jw==

>  <s_epik_input>  (230) 
Q2xjMVtjSF1bY0hdYyhbY0hdW2NIXTEpW0NIMl1uMmMobmMoYzIzKVtjSF1bY0hdW2NIXVtjSF0zKVtDSDJdW05IXVtDSDJdW0NASF0oW09IXSljNFtjSF1jKFtDSDNdKWMoRilbY0hdW2NIXTQ=

>  <s_i_glide_gridfile>  (230) 
ATP-Grid

>  <s_lp_Force_Field>  (230) 
OPLS_2005

>  <s_lp_Variant>  (230) 
m_270004bbb____21531102____7549102-3

>  <s_lp_label>  (230) 
2003_sdstereoexpander_1_neutralizer_1_epik_2_stereoizer_1

>  <s_m_source_file>  (230) 
ATP-VSW-LIGPREP-001-in.maegz

>  <s_sd_BIOSOLVEIT.INFINISEE\_QUERY\_NAME>  (230) 
Ref-Lig

>  <s_sd_BIOSOLVEIT.INFINISEE\_QUERY\_SMILES>  (230) 
S(c1nc2c(cc1C[NH2+]Cc3ccc(cc3)C[NH+](C)C)cccc2)Cc4ccccc4

>  <s_sd_BIOSOLVEIT.INFINISEE\_REACTION\_NAME>  (230) 
m_270004bbb

>  <s_sd_BIOSOLVEIT.INFINISEE\_REAGENT1\_SMILES>  (230) 
[R1*]NCC(O)c1cc(c(F)cc1)C

>  <s_sd_BIOSOLVEIT.INFINISEE\_REAGENT2\_SMILES>  (230) 
[R1*]CC1=Nc2c(N1Cc3ccc(Cl)cc3)cccc2

>  <s_sd_BIOSOLVEIT.INFINISEE\_SPACE>  (230) 
REALSpace_44bn_2023-08

>  <s_vsw_compound_code>  (230) 
64065

>  <s_vsw_variant>  (230) 
64065-3

>  <r_epik_Charging_Adjusted_Penalty>  (230) 
1.0456555860421399

>  <r_epik_Ionization_Penalty>  (230) 
0.49170000000000003

>  <r_epik_Ionization_Penalty_Charging>  (230) 
0.49080000000000001

>  <r_epik_Ionization_Penalty_Neutral>  (230) 
0.00089999999999999998

>  <r_epik_State_Penalty>  (230) 
0.55489999999999995

>  <r_i_docking_score>  (230) 
-5.6627801680659298

>  <r_i_glide_ecoul>  (230) 
-12.229723930358899

>  <r_i_glide_eff_state_penalty>  (230) 
0.55489999999999995

>  <r_i_glide_einternal>  (230) 
5.7067937850952104

>  <r_i_glide_emodel>  (230) 
-68.498784300054197

>  <r_i_glide_energy>  (230) 
-46.056906700134299

>  <r_i_glide_erotb>  (230) 
0.76889599484579996

>  <r_i_glide_esite>  (230) 
-0.141623784018478

>  <r_i_glide_evdw>  (230) 
-33.827182769775398

>  <r_i_glide_gscore>  (230) 
-6.2176801680659297

>  <r_i_glide_hbond>  (230) 
-0.35999999999999999

>  <r_i_glide_ligand_efficiency>  (230) 
-0.18875933893553101

>  <r_i_glide_ligand_efficiency_ln>  (230) 
-1.2866453551163699

>  <r_i_glide_ligand_efficiency_sa>  (230) 
-0.58651915307788804

>  <r_i_glide_lipo>  (230) 
-1.96305701184601

>  <r_i_glide_metal>  (230) 
-0

>  <r_i_glide_rewards>  (230) 
-0.99607763900463597

>  <r_lp_Energy>  (230) 
14.154519000000001

>  <r_qp_ACxDN^.5/SA>  (230) 
0.0099209999999999993

>  <r_qp_CIQPlogS>  (230) 
-6.0789999999999997

>  <r_qp_EA(eV)>  (230) 
0.72899999999999998

>  <r_qp_FISA>  (230) 
65.718000000000004

>  <r_qp_FOSA>  (230) 
167.31999999999999

>  <r_qp_IP(eV)>  (230) 
8.6869999999999994

>  <r_qp_Jm>  (230) 
0.0191355342239958

>  <r_qp_PISA>  (230) 
342.98200000000003

>  <r_qp_PSA>  (230) 
46.639000000000003

>  <r_qp_PercentHumanOralAbsorption>  (230) 
100

>  <r_qp_QPPCaco>  (230) 
588.29499999999996

>  <r_qp_QPPMDCK>  (230) 
1008.96

>  <r_qp_QPlogBB>  (230) 
0.094

>  <r_qp_QPlogHERG>  (230) 
-6.431

>  <r_qp_QPlogKhsa>  (230) 
0.747

>  <r_qp_QPlogKp>  (230) 
-2.8170000000000002

>  <r_qp_QPlogPC16>  (230) 
13.411

>  <r_qp_QPlogPo/w>  (230) 
4.8609999999999998

>  <r_qp_QPlogPoct>  (230) 
20.094999999999999

>  <r_qp_QPlogPw>  (230) 
9.9380000000000006

>  <r_qp_QPlogS>  (230) 
-4.5279999999999996

>  <r_qp_QPpolrz>  (230) 
42.509999999999998

>  <r_qp_SASA>  (230) 
669.97500000000002

>  <r_qp_SAamideO>  (230) 
0

>  <r_qp_SAfluorine>  (230) 
38.490000000000002

>  <r_qp_WPSA>  (230) 
93.954999999999998

>  <r_qp_accptHB>  (230) 
4.7000000000000002

>  <r_qp_dip^2/V>  (230) 
0.021820300000000001

>  <r_qp_dipole>  (230) 
5.2489999999999997

>  <r_qp_donorHB>  (230) 
2

>  <r_qp_glob>  (230) 
0.84319330000000003

>  <r_qp_mol_MW>  (230) 
423.91699999999997

>  <r_qp_volume>  (230) 
1262.499

>  <r_sd_BIOSOLVEIT.INFINISEE\_FTREES\_SIMILARITY>  (230) 
0.90200000000000002

>  <r_sd_BIOSOLVEIT.LOGP>  (230) 
3.9825200000000001

>  <r_sd_BIOSOLVEIT.MOLECULAR\_WEIGHT>  (230) 
424.92500000000001

>  <r_sd_BIOSOLVEIT.TPSA>  (230) 
54.659999999999997

>  <i_epik_Tot_Q>  (230) 
1

>  <i_epik_Tot_abs_Q>  (230) 
1

>  <i_f3d_flags>  (230) 
0

>  <i_i_glide_confnum>  (230) 
7

>  <i_i_glide_lignum>  (230) 
612

>  <i_i_glide_posenum>  (230) 
3

>  <i_i_glide_rotatable_bonds>  (230) 
8

>  <i_lp_mmshare_version>  (230) 
65135

>  <i_m_ct_format>  (230) 
2

>  <i_m_source_file_index>  (230) 
2003

>  <i_qp_#NandO>  (230) 
4

>  <i_qp_#acid>  (230) 
0

>  <i_qp_#amide>  (230) 
0

>  <i_qp_#amidine>  (230) 
0

>  <i_qp_#amine>  (230) 
1

>  <i_qp_#in34>  (230) 
0

>  <i_qp_#in56>  (230) 
21

>  <i_qp_#metab>  (230) 
5

>  <i_qp_#nonHatm>  (230) 
30

>  <i_qp_#noncon>  (230) 
0

>  <i_qp_#ringatoms>  (230) 
21

>  <i_qp_#rotor>  (230) 
8

>  <i_qp_#rtvFG>  (230) 
0

>  <i_qp_#stars>  (230) 
0

>  <i_qp_CNS>  (230) 
1

>  <i_qp_HumanOralAbsorption>  (230) 
3

>  <i_qp_RuleOfFive>  (230) 
0

>  <i_qp_RuleOfThree>  (230) 
0

>  <i_sd_BIOSOLVEIT.INFINISEE\_REAGENT1\_NAME>  (230) 
21531102

>  <i_sd_BIOSOLVEIT.INFINISEE\_REAGENT2\_NAME>  (230) 
7549102

>  <i_sd_BIOSOLVEIT.INFINISEE\_RESULT\_RANK>  (230) 
90868

>  <i_sd_version>  (230) 
0

>  <b_lp_Chiralities_Consistent>  (230) 
1

>  <b_sd_chiral_flag>  (230) 
0

>  <canonical_id>  (230) 
ATP-HTVS-2485F4B11063

>  <compound_code>  (230) 
64065

>  <title>  (230) 
m_270004bbb____21531102____7549102

>  <variant>  (230) 
64065-3

>  <source_file>  (230) 
运行/运行/ATP-VSW/ATP-VSW-DOCK_HTVS_1-001_lib/ATP-VSW-DOCK_HTVS_1-001_lib

>  <canonical_smiles>  (230) 
Cc1cc([C@@H](O)C[NH2+]Cc2nc3ccccc3n2Cc2ccc(Cl)cc2)ccc1F

>  <scaffold>  (230) 
c1ccc(CC[NH2+]Cc2nc3ccccc3n2Cc2ccccc2)cc1

>  <molecular_formula>  (230) 
C24H24ClFN3O+

$$$$
ATP-HTVS-24E588DA0D03
     RDKit          3D

 64 67  0  0  0  0  0  0  0  0999 V2000
  196.3215  180.4000  150.2937 O   0  0  0  0  0  0  0  0  0  0  0  0
  197.1288  179.6043  150.7703 C   0  0  0  0  0  0  0  0  0  0  0  0
  197.5634  179.6475  152.0433 N   0  0  0  0  0  0  0  0  0  0  0  0
  197.3627  180.6388  153.0445 C   0  0  0  0  0  0  0  0  0  0  0  0
  197.6268  180.3143  154.4060 C   0  0  0  0  0  0  0  0  0  0  0  0
  198.0985  179.0442  154.7798 N   0  0  0  0  0  0  0  0  0  0  0  0
  199.4097  178.6776  154.2623 C   0  0  1  0  0  0  0  0  0  0  0  0
  200.1500  177.6762  155.1148 C   0  0  0  0  0  0  0  0  0  0  0  0
  200.8380  176.6049  154.5081 C   0  0  0  0  0  0  0  0  0  0  0  0
  201.5488  175.6720  155.2926 C   0  0  0  0  0  0  0  0  0  0  0  0
  202.2246  174.6258  154.6434 N   0  0  0  0  0  0  0  0  0  0  0  0
  202.9866  173.6433  155.3989 C   0  0  2  0  0  0  0  0  0  0  0  0
  201.5606  175.8310  156.6985 C   0  0  0  0  0  0  0  0  0  0  0  0
  200.8671  176.8988  157.3066 C   0  0  0  0  0  0  0  0  0  0  0  0
  200.1657  177.8186  156.5158 C   0  0  0  0  0  0  0  0  0  0  0  0
  197.4240  181.3090  155.4015 C   0  0  0  0  0  0  0  0  0  0  0  0
  196.9999  182.6037  155.0033 C   0  0  0  0  0  0  0  0  0  0  0  0
  196.7844  182.8647  153.6999 N   0  0  0  0  0  0  0  0  0  0  0  0
  196.9492  181.9542  152.7242 C   0  0  0  0  0  0  0  0  0  0  0  0
  196.7932  183.6149  155.9608 C   0  0  0  0  0  0  0  0  0  0  0  0
  196.9688  183.3420  157.3287 C   0  0  0  0  0  0  0  0  0  0  0  0
  197.3873  182.0651  157.7340 C   0  0  0  0  0  0  0  0  0  0  0  0
  197.6266  181.0575  156.7814 C   0  0  0  0  0  0  0  0  0  0  0  0
  197.6993  178.4925  149.9306 C   0  0  0  0  0  0  0  0  0  0  0  0
  197.4237  178.4391  148.5414 C   0  0  0  0  0  0  0  0  0  0  0  0
  197.9445  177.4013  147.7426 C   0  0  0  0  0  0  0  0  0  0  0  0
  198.7475  176.3940  148.3216 C   0  0  0  0  0  0  0  0  0  0  0  0
  199.0223  176.4303  149.6987 C   0  0  0  0  0  0  0  0  0  0  0  0
  198.4903  177.4547  150.4976 C   0  0  0  0  0  0  0  0  0  0  0  0
  199.3142  175.2740  147.4730 C   0  0  1  0  0  0  0  0  0  0  0  0
  200.3528  175.7559  146.5300 N   0  0  2  0  0  0  0  0  0  0  0  0
  200.8276  174.6746  145.6371 C   0  0  2  0  0  0  0  0  0  0  0  0
  201.4812  176.4621  147.1870 C   0  0  2  0  0  0  0  0  0  0  0  0
  198.1216  178.8648  152.3525 H   0  0  0  0  0  0  0  0  0  0  0  0
  197.9688  178.8099  155.7590 H   0  0  0  0  0  0  0  0  0  0  0  0
  199.2727  178.2015  153.2993 H   0  0  0  0  0  0  0  0  0  0  0  0
  200.0504  179.5529  154.1097 H   0  0  0  0  0  0  0  0  0  0  0  0
  200.8285  176.4995  153.4323 H   0  0  0  0  0  0  0  0  0  0  0  0
  202.1218  174.4918  153.6463 H   0  0  0  0  0  0  0  0  0  0  0  0
  203.3862  172.8799  154.7291 H   0  0  0  0  0  0  0  0  0  0  0  0
  202.3558  173.1435  156.1331 H   0  0  0  0  0  0  0  0  0  0  0  0
  203.8232  174.1127  155.9196 H   0  0  0  0  0  0  0  0  0  0  0  0
  202.0952  175.1404  157.3345 H   0  0  0  0  0  0  0  0  0  0  0  0
  200.8705  177.0148  158.3806 H   0  0  0  0  0  0  0  0  0  0  0  0
  199.6423  178.6272  157.0034 H   0  0  0  0  0  0  0  0  0  0  0  0
  196.7631  182.3242  151.7232 H   0  0  0  0  0  0  0  0  0  0  0  0
  196.4533  184.5914  155.6488 H   0  0  0  0  0  0  0  0  0  0  0  0
  196.7621  184.1028  158.0688 H   0  0  0  0  0  0  0  0  0  0  0  0
  197.5057  181.8442  158.7882 H   0  0  0  0  0  0  0  0  0  0  0  0
  197.9150  180.0828  157.1461 H   0  0  0  0  0  0  0  0  0  0  0  0
  196.8085  179.1961  148.0765 H   0  0  0  0  0  0  0  0  0  0  0  0
  197.7104  177.3705  146.6865 H   0  0  0  0  0  0  0  0  0  0  0  0
  199.6311  175.6652  150.1596 H   0  0  0  0  0  0  0  0  0  0  0  0
  198.7276  177.4022  151.5467 H   0  0  0  0  0  0  0  0  0  0  0  0
  199.7352  174.4986  148.1186 H   0  0  0  0  0  0  0  0  0  0  0  0
  198.4896  174.8086  146.9339 H   0  0  0  0  0  0  0  0  0  0  0  0
  201.3315  173.8933  146.2080 H   0  0  0  0  0  0  0  0  0  0  0  0
  201.5252  175.0654  144.8956 H   0  0  0  0  0  0  0  0  0  0  0  0
  199.9951  174.2174  145.1016 H   0  0  0  0  0  0  0  0  0  0  0  0
  202.0017  175.8072  147.8869 H   0  0  0  0  0  0  0  0  0  0  0  0
  201.1439  177.3436  147.7358 H   0  0  0  0  0  0  0  0  0  0  0  0
  202.2004  176.8112  146.4463 H   0  0  0  0  0  0  0  0  0  0  0  0
  199.9042  176.4379  145.9311 H   0  0  0  0  0  0  0  0  0  0  0  0
  196.4330  183.7931  153.4471 H   0  0  0  0  0  0  0  0  0  0  0  0
  1  2  2  0
  2  3  1  0
  2 24  1  0
  3  4  1  0
  3 34  1  0
  4  5  2  0
  4 19  1  0
  5  6  1  0
  5 16  1  0
  6  7  1  0
  6 35  1  0
  7  8  1  0
  7 36  1  6
  7 37  1  0
  8  9  1  0
  8 15  2  0
  9 10  2  0
  9 38  1  0
 10 11  1  0
 10 13  1  0
 11 12  1  0
 11 39  1  0
 12 40  1  6
 12 41  1  0
 12 42  1  0
 13 14  2  0
 13 43  1  0
 14 15  1  0
 14 44  1  0
 15 45  1  0
 16 17  1  0
 16 23  2  0
 17 18  1  0
 17 20  2  0
 18 19  2  0
 18 64  1  0
 19 46  1  0
 20 21  1  0
 20 47  1  0
 21 22  2  0
 21 48  1  0
 22 23  1  0
 22 49  1  0
 23 50  1  0
 24 25  1  0
 24 29  2  0
 25 26  2  0
 25 51  1  0
 26 27  1  0
 26 52  1  0
 27 28  2  0
 27 30  1  0
 28 29  1  0
 28 53  1  0
 29 54  1  0
 30 31  1  0
 30 55  1  1
 30 56  1  0
 31 32  1  0
 31 33  1  0
 31 63  1  6
 32 57  1  1
 32 58  1  0
 32 59  1  0
 33 60  1  1
 33 61  1  0
 33 62  1  0
M  CHG  2  18   1  31   1
M  END
>  <s_epik_cmdline>  (231) 
J2VwaWtfcHl0aG9uJywgJy1waCcsICc3LjAwMDAwMCcsICctcGh0JywgJzIuMDAwMDAwJywgJy1tcycsICcxNicsICctdG4nLCAnOCcsICctbWEnLCAnMjAwJywgJy1pbWFlJywgJzxpbmZpbGUubWFlPicsICctb21hZScsICc8b3V0ZmlsZS5tYWU+Jw==

>  <s_epik_input>  (231) 
W0NIM11OKFtDSDNdKVtDSDJdYyhbY0hdW2NIXTEpW2NIXVtjSF1jMUMoPU8pW05IXWMoW2NIXW5jKGMyMylbY0hdW2NIXVtjSF1bY0hdMyljMltOSF1bQ0gyXWM0W2NIXWMoW05IXVtDSDNdKVtjSF1bY0hdW2NIXTQ=

>  <s_i_glide_gridfile>  (231) 
ATP-Grid

>  <s_lp_Force_Field>  (231) 
OPLS_2005

>  <s_lp_Variant>  (231) 
rxn502b____EMOL18624763____EMOL30488121____EMOL45491381-1

>  <s_lp_label>  (231) 
2992_sdstereoexpander_1_neutralizer_1_epik_1_stereoizer_1

>  <s_m_source_file>  (231) 
ATP-VSW-LIGPREP-002-in.maegz

>  <s_sd_BIOSOLVEIT.INFINISEE\_QUERY\_NAME>  (231) 
Ref-Lig

>  <s_sd_BIOSOLVEIT.INFINISEE\_QUERY\_SMILES>  (231) 
S(c1nc2c(cc1C[NH2+]Cc3ccc(cc3)C[NH+](C)C)cccc2)Cc4ccccc4

>  <s_sd_BIOSOLVEIT.INFINISEE\_REACTION\_NAME>  (231) 
rxn502b

>  <s_sd_BIOSOLVEIT.INFINISEE\_REAGENT1\_NAME>  (231) 
EMOL18624763

>  <s_sd_BIOSOLVEIT.INFINISEE\_REAGENT1\_SMILES>  (231) 
O=C(O)c1ccc(cc1)CN(C)C

>  <s_sd_BIOSOLVEIT.INFINISEE\_REAGENT2\_NAME>  (231) 
EMOL30488121

>  <s_sd_BIOSOLVEIT.INFINISEE\_REAGENT2\_SMILES>  (231) 
Brc1c(N)cnc2c1cccc2

>  <s_sd_BIOSOLVEIT.INFINISEE\_REAGENT3\_NAME>  (231) 
EMOL45491381

>  <s_sd_BIOSOLVEIT.INFINISEE\_REAGENT3\_SMILES>  (231) 
N(c1cc(ccc1)CN)C

>  <s_sd_BIOSOLVEIT.INFINISEE\_SPACE>  (231) 
eXplore_7tr_2022-12

>  <s_vsw_compound_code>  (231) 
95714

>  <s_vsw_variant>  (231) 
95714-1

>  <r_epik_Charging_Adjusted_Penalty>  (231) 
0.26804818659211499

>  <r_epik_Ionization_Penalty>  (231) 
0.13900000000000001

>  <r_epik_Ionization_Penalty_Charging>  (231) 
0.13400000000000001

>  <r_epik_Ionization_Penalty_Neutral>  (231) 
0.0050000000000000001

>  <r_epik_State_Penalty>  (231) 
0.13400000000000001

>  <r_i_docking_score>  (231) 
-4.6290608097269397

>  <r_i_glide_ecoul>  (231) 
-8.2099256515502894

>  <r_i_glide_eff_state_penalty>  (231) 
0.13400000000000001

>  <r_i_glide_einternal>  (231) 
2.48445749282837

>  <r_i_glide_emodel>  (231) 
-63.4674983597452

>  <r_i_glide_energy>  (231) 
-44.507357597351103

>  <r_i_glide_erotb>  (231) 
0.71715601208885305

>  <r_i_glide_esite>  (231) 
-0.112453591741629

>  <r_i_glide_evdw>  (231) 
-36.297431945800803

>  <r_i_glide_gscore>  (231) 
-4.76306080972694

>  <r_i_glide_hbond>  (231) 
-0.0015926486733824101

>  <r_i_glide_ligand_efficiency>  (231) 
-0.14027456999172599

>  <r_i_glide_ligand_efficiency_ln>  (231) 
-1.0294791560891401

>  <r_i_glide_ligand_efficiency_sa>  (231) 
-0.449935498349461

>  <r_i_glide_lipo>  (231) 
-1.53574330701691

>  <r_i_glide_metal>  (231) 
-0

>  <r_i_glide_rewards>  (231) 
-0.78406682936129302

>  <r_lp_Energy>  (231) 
39.780470999999999

>  <r_qp_ACxDN^.5/SA>  (231) 
0.015761600000000001

>  <r_qp_CIQPlogS>  (231) 
-5.306

>  <r_qp_EA(eV)>  (231) 
0.94499999999999995

>  <r_qp_FISA>  (231) 
96.927999999999997

>  <r_qp_FOSA>  (231) 
282.68099999999998

>  <r_qp_IP(eV)>  (231) 
8.3100000000000005

>  <r_qp_Jm>  (231) 
0.00071033456310196097

>  <r_qp_PISA>  (231) 
444.572

>  <r_qp_PSA>  (231) 
73.739000000000004

>  <r_qp_PercentHumanOralAbsorption>  (231) 
96.981999999999999

>  <r_qp_QPPCaco>  (231) 
297.60000000000002

>  <r_qp_QPPMDCK>  (231) 
147.66900000000001

>  <r_qp_QPlogBB>  (231) 
-0.63600000000000001

>  <r_qp_QPlogHERG>  (231) 
-8.2460000000000004

>  <r_qp_QPlogKhsa>  (231) 
0.68899999999999995

>  <r_qp_QPlogKp>  (231) 
-3.0339999999999998

>  <r_qp_QPlogPC16>  (231) 
16.699999999999999

>  <r_qp_QPlogPo/w>  (231) 
4.4000000000000004

>  <r_qp_QPlogPoct>  (231) 
26.550000000000001

>  <r_qp_QPlogPw>  (231) 
15.403

>  <r_qp_QPlogS>  (231) 
-5.7569999999999997

>  <r_qp_QPpolrz>  (231) 
52.060000000000002

>  <r_qp_SASA>  (231) 
824.17999999999995

>  <r_qp_SAamideO>  (231) 
0

>  <r_qp_SAfluorine>  (231) 
0

>  <r_qp_WPSA>  (231) 
0

>  <r_qp_accptHB>  (231) 
7.5

>  <r_qp_dip^2/V>  (231) 
0.065292100000000006

>  <r_qp_dipole>  (231) 
9.8200000000000003

>  <r_qp_donorHB>  (231) 
3

>  <r_qp_glob>  (231) 
0.76098560000000004

>  <r_qp_mol_MW>  (231) 
439.55900000000003

>  <r_qp_volume>  (231) 
1476.8979999999999

>  <r_sd_BIOSOLVEIT.INFINISEE\_FTREES\_SIMILARITY>  (231) 
0.90300000000000002

>  <r_sd_BIOSOLVEIT.LOGP>  (231) 
3.7854000000000001

>  <r_sd_BIOSOLVEIT.MOLECULAR\_WEIGHT>  (231) 
440.56799999999998

>  <r_sd_BIOSOLVEIT.TPSA>  (231) 
70.489999999999995

>  <i_epik_Tot_Q>  (231) 
2

>  <i_epik_Tot_abs_Q>  (231) 
2

>  <i_f3d_flags>  (231) 
0

>  <i_i_glide_confnum>  (231) 
10

>  <i_i_glide_lignum>  (231) 
54

>  <i_i_glide_posenum>  (231) 
9

>  <i_i_glide_rotatable_bonds>  (231) 
9

>  <i_lp_mmshare_version>  (231) 
65135

>  <i_m_ct_format>  (231) 
2

>  <i_m_source_file_index>  (231) 
2992

>  <i_qp_#NandO>  (231) 
6

>  <i_qp_#acid>  (231) 
0

>  <i_qp_#amide>  (231) 
0

>  <i_qp_#amidine>  (231) 
0

>  <i_qp_#amine>  (231) 
1

>  <i_qp_#in34>  (231) 
0

>  <i_qp_#in56>  (231) 
22

>  <i_qp_#metab>  (231) 
9

>  <i_qp_#nonHatm>  (231) 
33

>  <i_qp_#noncon>  (231) 
0

>  <i_qp_#ringatoms>  (231) 
22

>  <i_qp_#rotor>  (231) 
8

>  <i_qp_#rtvFG>  (231) 
0

>  <i_qp_#stars>  (231) 
1

>  <i_qp_CNS>  (231) 
0

>  <i_qp_HumanOralAbsorption>  (231) 
3

>  <i_qp_RuleOfFive>  (231) 
0

>  <i_qp_RuleOfThree>  (231) 
2

>  <i_sd_BIOSOLVEIT.INFINISEE\_RESULT\_RANK>  (231) 
84988

>  <i_sd_version>  (231) 
0

>  <b_lp_Chiralities_Consistent>  (231) 
1

>  <b_sd_chiral_flag>  (231) 
0

>  <canonical_id>  (231) 
ATP-HTVS-24E588DA0D03

>  <compound_code>  (231) 
95714

>  <title>  (231) 
rxn502b____EMOL18624763____EMOL30488121____EMOL45491381

>  <variant>  (231) 
95714-1

>  <source_file>  (231) 
运行/运行/ATP-VSW/ATP-VSW-DOCK_HTVS_1-003_lib/ATP-VSW-DOCK_HTVS_1-003_lib.mae

>  <canonical_smiles>  (231) 
CNc1cccc(CNc2c(NC(=O)c3ccc(C[NH+](C)C)cc3)c[nH+]c3ccccc23)c1

>  <scaffold>  (231) 
O=C(Nc1c[nH+]c2ccccc2c1NCc1ccccc1)c1ccccc1

>  <molecular_formula>  (231) 
C27H31N5O+2

$$$$
ATP-HTVS-2507C3370FB9
     RDKit          3D

 70 73  0  0  0  0  0  0  0  0999 V2000
  199.5108  184.0102  153.4407 O   0  0  0  0  0  0  0  0  0  0  0  0
  198.4623  183.9982  152.7926 C   0  0  0  0  0  0  0  0  0  0  0  0
  197.2735  183.6770  153.3287 N   0  0  0  0  0  0  0  0  0  0  0  0
  197.1457  182.7872  154.4204 C   0  0  0  0  0  0  0  0  0  0  0  0
  196.9487  181.4041  154.1635 C   0  0  0  0  0  0  0  0  0  0  0  0
  196.9044  180.9108  152.8492 N   0  0  0  0  0  0  0  0  0  0  0  0
  196.8129  179.4809  152.5913 C   0  0  1  0  0  0  0  0  0  0  0  0
  197.1785  179.0768  151.1808 C   0  0  0  0  0  0  0  0  0  0  0  0
  196.3996  179.5024  150.0831 C   0  0  0  0  0  0  0  0  0  0  0  0
  196.7412  179.0836  148.7823 C   0  0  0  0  0  0  0  0  0  0  0  0
  197.8480  178.2343  148.5692 C   0  0  0  0  0  0  0  0  0  0  0  0
  198.6109  177.7971  149.6705 C   0  0  0  0  0  0  0  0  0  0  0  0
  198.2880  178.2325  150.9682 C   0  0  0  0  0  0  0  0  0  0  0  0
  198.2022  177.7912  147.1581 C   0  0  1  0  0  0  0  0  0  0  0  0
  199.3201  178.6094  146.5815 N   0  0  1  0  0  0  0  0  0  0  0  0
  200.6791  178.2564  147.1001 C   0  0  1  0  0  0  0  0  0  0  0  0
  201.1389  176.8201  146.7335 C   0  0  2  0  0  0  0  0  0  0  0  0
  199.3080  178.6903  145.0964 C   0  0  1  0  0  0  0  0  0  0  0  0
  198.0670  179.3807  144.5003 C   0  0  2  0  0  0  0  0  0  0  0  0
  196.7711  180.5499  155.2755 C   0  0  0  0  0  0  0  0  0  0  0  0
  196.7500  181.0424  156.5279 N   0  0  0  0  0  0  0  0  0  0  0  0
  196.9458  182.3395  156.8205 C   0  0  0  0  0  0  0  0  0  0  0  0
  197.1514  183.2673  155.7583 C   0  0  0  0  0  0  0  0  0  0  0  0
  197.3084  184.6450  156.0659 C   0  0  0  0  0  0  0  0  0  0  0  0
  197.2812  185.0813  157.4033 C   0  0  0  0  0  0  0  0  0  0  0  0
  197.0960  184.1526  158.4502 C   0  0  0  0  0  0  0  0  0  0  0  0
  196.9252  182.7814  158.1595 C   0  0  0  0  0  0  0  0  0  0  0  0
  198.4382  184.3979  151.3483 C   0  0  0  0  0  0  0  0  0  0  0  0
  197.5100  183.8147  150.4589 C   0  0  0  0  0  0  0  0  0  0  0  0
  197.5255  184.1288  149.0867 C   0  0  0  0  0  0  0  0  0  0  0  0
  198.4869  185.0269  148.5680 C   0  0  0  0  0  0  0  0  0  0  0  0
  199.4269  185.6011  149.4530 C   0  0  0  0  0  0  0  0  0  0  0  0
  199.4119  185.2852  150.8277 C   0  0  0  0  0  0  0  0  0  0  0  0
  198.5290  185.3726  147.1182 C   0  0  0  0  0  0  0  0  0  0  0  0
  199.3058  186.1938  146.6349 O   0  0  0  0  0  0  0  0  0  0  0  0
  197.5399  184.6700  146.1940 C   0  0  2  0  0  0  0  0  0  0  0  0
  196.4356  183.8201  152.7820 H   0  0  0  0  0  0  0  0  0  0  0  0
  196.9130  181.5396  152.0569 H   0  0  0  0  0  0  0  0  0  0  0  0
  197.4631  178.9344  153.2655 H   0  0  0  0  0  0  0  0  0  0  0  0
  195.7924  179.1428  152.7802 H   0  0  0  0  0  0  0  0  0  0  0  0
  195.5307  180.1263  150.2422 H   0  0  0  0  0  0  0  0  0  0  0  0
  196.1335  179.3975  147.9479 H   0  0  0  0  0  0  0  0  0  0  0  0
  199.4404  177.1159  149.5367 H   0  0  0  0  0  0  0  0  0  0  0  0
  198.8901  177.8923  151.7995 H   0  0  0  0  0  0  0  0  0  0  0  0
  198.4210  176.7191  147.1517 H   0  0  0  0  0  0  0  0  0  0  0  0
  197.2797  177.8924  146.5691 H   0  0  0  0  0  0  0  0  0  0  0  0
  201.4081  178.9805  146.7172 H   0  0  0  0  0  0  0  0  0  0  0  0
  200.7209  178.3848  148.1829 H   0  0  0  0  0  0  0  0  0  0  0  0
  202.1316  176.6093  147.1489 H   0  0  0  0  0  0  0  0  0  0  0  0
  201.2109  176.6671  145.6571 H   0  0  0  0  0  0  0  0  0  0  0  0
  200.4784  176.0483  147.1317 H   0  0  0  0  0  0  0  0  0  0  0  0
  200.1963  179.2334  144.7631 H   0  0  0  0  0  0  0  0  0  0  0  0
  199.3950  177.6892  144.6906 H   0  0  0  0  0  0  0  0  0  0  0  0
  198.1748  179.4511  143.4158 H   0  0  0  0  0  0  0  0  0  0  0  0
  197.9445  180.3930  144.8939 H   0  0  0  0  0  0  0  0  0  0  0  0
  197.1517  178.8145  144.6767 H   0  0  0  0  0  0  0  0  0  0  0  0
  196.5882  179.4888  155.2335 H   0  0  0  0  0  0  0  0  0  0  0  0
  197.4252  185.3765  155.2793 H   0  0  0  0  0  0  0  0  0  0  0  0
  197.4135  186.1279  157.6284 H   0  0  0  0  0  0  0  0  0  0  0  0
  197.0993  184.4899  159.4784 H   0  0  0  0  0  0  0  0  0  0  0  0
  196.7758  182.0763  158.9614 H   0  0  0  0  0  0  0  0  0  0  0  0
  196.7823  183.1008  150.8112 H   0  0  0  0  0  0  0  0  0  0  0  0
  196.7941  183.6512  148.4500 H   0  0  0  0  0  0  0  0  0  0  0  0
  200.1829  186.2782  149.0787 H   0  0  0  0  0  0  0  0  0  0  0  0
  200.1603  185.7172  151.4798 H   0  0  0  0  0  0  0  0  0  0  0  0
  196.5154  184.8776  146.4993 H   0  0  0  0  0  0  0  0  0  0  0  0
  197.7061  183.5923  146.2084 H   0  0  0  0  0  0  0  0  0  0  0  0
  197.6696  185.0273  145.1727 H   0  0  0  0  0  0  0  0  0  0  0  0
  199.1606  179.5598  146.8828 H   0  0  0  0  0  0  0  0  0  0  0  0
  196.5001  180.3646  157.2710 H   0  0  0  0  0  0  0  0  0  0  0  0
  1  2  2  0
  2  3  1  0
  2 28  1  0
  3  4  1  0
  3 37  1  0
  4  5  2  0
  4 23  1  0
  5  6  1  0
  5 20  1  0
  6  7  1  0
  6 38  1  0
  7  8  1  0
  7 39  1  1
  7 40  1  0
  8  9  1  0
  8 13  2  0
  9 10  2  0
  9 41  1  0
 10 11  1  0
 10 42  1  0
 11 12  2  0
 11 14  1  0
 12 13  1  0
 12 43  1  0
 13 44  1  0
 14 15  1  0
 14 45  1  1
 14 46  1  0
 15 16  1  0
 15 18  1  0
 15 69  1  1
 16 17  1  0
 16 47  1  6
 16 48  1  0
 17 49  1  1
 17 50  1  0
 17 51  1  0
 18 19  1  0
 18 52  1  6
 18 53  1  0
 19 54  1  6
 19 55  1  0
 19 56  1  0
 20 21  2  0
 20 57  1  0
 21 22  1  0
 21 70  1  0
 22 23  1  0
 22 27  2  0
 23 24  2  0
 24 25  1  0
 24 58  1  0
 25 26  2  0
 25 59  1  0
 26 27  1  0
 26 60  1  0
 27 61  1  0
 28 29  1  0
 28 33  2  0
 29 30  2  0
 29 62  1  0
 30 31  1  0
 30 63  1  0
 31 32  2  0
 31 34  1  0
 32 33  1  0
 32 64  1  0
 33 65  1  0
 34 35  2  0
 34 36  1  0
 36 66  1  1
 36 67  1  0
 36 68  1  0
M  CHG  2  15   1  21   1
M  END
>  <s_epik_cmdline>  (232) 
J2VwaWtfcHl0aG9uJywgJy1waCcsICc3LjAwMDAwMCcsICctcGh0JywgJzIuMDAwMDAwJywgJy1tcycsICcxNicsICctdG4nLCAnOCcsICctbWEnLCAnMjAwJywgJy1pbWFlJywgJzxpbmZpbGUubWFlPicsICctb21hZScsICc8b3V0ZmlsZS5tYWU+Jw==

>  <s_epik_input>  (232) 
W2NIXTFbY0hdYyhDKD1PKVtDSDNdKVtjSF1bY0hdYzFDKD1PKVtOSF1jKGMoYzIzKVtjSF1bY0hdW2NIXVtjSF0zKWMoW2NIXW4yKVtOSF1bQ0gyXWM0W2NIXVtjSF1jKFtjSF1bY0hdNClbQ0gyXU4oW0NIMl1bQ0gzXSlbQ0gyXVtDSDNd

>  <s_i_glide_gridfile>  (232) 
ATP-Grid

>  <s_lp_Force_Field>  (232) 
OPLS_2005

>  <s_lp_Variant>  (232) 
rxn502b____EMOL48579575____EMOL13728749____EMOL2868412-2

>  <s_lp_label>  (232) 
2634_sdstereoexpander_1_neutralizer_1_epik_2_stereoizer_1

>  <s_m_source_file>  (232) 
ATP-VSW-LIGPREP-003-in.maegz

>  <s_sd_BIOSOLVEIT.INFINISEE\_QUERY\_NAME>  (232) 
Ref-Lig

>  <s_sd_BIOSOLVEIT.INFINISEE\_QUERY\_SMILES>  (232) 
S(c1nc2c(cc1C[NH2+]Cc3ccc(cc3)C[NH+](C)C)cccc2)Cc4ccccc4

>  <s_sd_BIOSOLVEIT.INFINISEE\_REACTION\_NAME>  (232) 
rxn502b

>  <s_sd_BIOSOLVEIT.INFINISEE\_REAGENT1\_NAME>  (232) 
EMOL48579575

>  <s_sd_BIOSOLVEIT.INFINISEE\_REAGENT1\_SMILES>  (232) 
ClC(=O)c1ccc(cc1)C(=O)C

>  <s_sd_BIOSOLVEIT.INFINISEE\_REAGENT2\_NAME>  (232) 
EMOL13728749

>  <s_sd_BIOSOLVEIT.INFINISEE\_REAGENT2\_SMILES>  (232) 
Brc1c(N)c2c(nc1)cccc2

>  <s_sd_BIOSOLVEIT.INFINISEE\_REAGENT3\_NAME>  (232) 
EMOL2868412

>  <s_sd_BIOSOLVEIT.INFINISEE\_REAGENT3\_SMILES>  (232) 
N(Cc1ccc(cc1)CN)(CC)CC

>  <s_sd_BIOSOLVEIT.INFINISEE\_SPACE>  (232) 
eXplore_7tr_2022-12

>  <s_vsw_compound_code>  (232) 
84259

>  <s_vsw_variant>  (232) 
84259-2

>  <r_epik_Charging_Adjusted_Penalty>  (232) 
3.2878849784797799

>  <r_epik_Ionization_Penalty>  (232) 
1.6438999999999999

>  <r_epik_Ionization_Penalty_Charging>  (232) 
1.6438999999999999

>  <r_epik_Ionization_Penalty_Neutral>  (232) 
0

>  <r_epik_State_Penalty>  (232) 
1.6438999999999999

>  <r_i_docking_score>  (232) 
-4.2291968922237997

>  <r_i_glide_ecoul>  (232) 
-13.307904243469199

>  <r_i_glide_eff_state_penalty>  (232) 
1.6438999999999999

>  <r_i_glide_einternal>  (232) 
7.0701556205749503

>  <r_i_glide_emodel>  (232) 
-74.424847574257896

>  <r_i_glide_energy>  (232) 
-50.475270271301298

>  <r_i_glide_erotb>  (232) 
0.69706138838125198

>  <r_i_glide_esite>  (232) 
-0.14014475400371901

>  <r_i_glide_evdw>  (232) 
-37.167366027832003

>  <r_i_glide_gscore>  (232) 
-5.8730968922238

>  <r_i_glide_hbond>  (232) 
-0.20000000000000001

>  <r_i_glide_ligand_efficiency>  (232) 
-0.117477691450661

>  <r_i_glide_ligand_efficiency_ln>  (232) 
-0.92269650218754096

>  <r_i_glide_ligand_efficiency_sa>  (232) 
-0.38790279007482098

>  <r_i_glide_lipo>  (232) 
-1.7828734160514199

>  <r_i_glide_metal>  (232) 
-0

>  <r_i_glide_rewards>  (232) 
-0.59258617263792901

>  <r_lp_Energy>  (232) 
46.338298000000002

>  <r_lp_tautomer_probability>  (232) 
0.99995000000000001

>  <r_qp_ACxDN^.5/SA>  (232) 
0.0137517

>  <r_qp_CIQPlogS>  (232) 
-5.8090000000000002

>  <r_qp_EA(eV)>  (232) 
1.069

>  <r_qp_FISA>  (232) 
110.458

>  <r_qp_FOSA>  (232) 
354.48700000000002

>  <r_qp_IP(eV)>  (232) 
8.1549999999999994

>  <r_qp_Jm>  (232) 
0.00025714290273778299

>  <r_qp_PISA>  (232) 
409.18799999999999

>  <r_qp_PSA>  (232) 
86.281000000000006

>  <r_qp_PercentHumanOralAbsorption>  (232) 
100

>  <r_qp_QPPCaco>  (232) 
221.477

>  <r_qp_QPPMDCK>  (232) 
107.30200000000001

>  <r_qp_QPlogBB>  (232) 
-0.91500000000000004

>  <r_qp_QPlogHERG>  (232) 
-8.0899999999999999

>  <r_qp_QPlogKhsa>  (232) 
0.82199999999999995

>  <r_qp_QPlogKp>  (232) 
-3.2160000000000002

>  <r_qp_QPlogPC16>  (232) 
17.571999999999999

>  <r_qp_QPlogPo/w>  (232) 
4.8609999999999998

>  <r_qp_QPlogPoct>  (232) 
26.331

>  <r_qp_QPlogPw>  (232) 
14.452999999999999

>  <r_qp_QPlogS>  (232) 
-6.0549999999999997

>  <r_qp_QPpolrz>  (232) 
55.789000000000001

>  <r_qp_SASA>  (232) 
874.13199999999995

>  <r_qp_SAamideO>  (232) 
0

>  <r_qp_SAfluorine>  (232) 
0

>  <r_qp_WPSA>  (232) 
0

>  <r_qp_accptHB>  (232) 
8.5

>  <r_qp_dip^2/V>  (232) 
0.021973400000000001

>  <r_qp_dipole>  (232) 
5.9489999999999998

>  <r_qp_donorHB>  (232) 
2

>  <r_qp_glob>  (232) 
0.76017829999999997

>  <r_qp_mol_MW>  (232) 
480.608

>  <r_qp_volume>  (232) 
1610.6130000000001

>  <r_sd_BIOSOLVEIT.INFINISEE\_FTREES\_SIMILARITY>  (232) 
0.91000000000000003

>  <r_sd_BIOSOLVEIT.LOGP>  (232) 
4.7264999999999997

>  <r_sd_BIOSOLVEIT.MOLECULAR\_WEIGHT>  (232) 
481.61700000000002

>  <r_sd_BIOSOLVEIT.TPSA>  (232) 
75.530000000000001

>  <i_epik_Tot_Q>  (232) 
2

>  <i_epik_Tot_abs_Q>  (232) 
2

>  <i_f3d_flags>  (232) 
0

>  <i_i_glide_confnum>  (232) 
7

>  <i_i_glide_lignum>  (232) 
1210

>  <i_i_glide_posenum>  (232) 
2

>  <i_i_glide_rotatable_bonds>  (232) 
11

>  <i_lp_mmshare_version>  (232) 
65135

>  <i_m_ct_format>  (232) 
2

>  <i_m_source_file_index>  (232) 
2634

>  <i_qp_#NandO>  (232) 
6

>  <i_qp_#acid>  (232) 
0

>  <i_qp_#amide>  (232) 
0

>  <i_qp_#amidine>  (232) 
0

>  <i_qp_#amine>  (232) 
1

>  <i_qp_#in34>  (232) 
0

>  <i_qp_#in56>  (232) 
22

>  <i_qp_#metab>  (232) 
6

>  <i_qp_#nonHatm>  (232) 
36

>  <i_qp_#noncon>  (232) 
0

>  <i_qp_#ringatoms>  (232) 
22

>  <i_qp_#rotor>  (232) 
10

>  <i_qp_#rtvFG>  (232) 
0

>  <i_qp_#stars>  (232) 
0

>  <i_qp_CNS>  (232) 
0

>  <i_qp_HumanOralAbsorption>  (232) 
3

>  <i_qp_RuleOfFive>  (232) 
0

>  <i_qp_RuleOfThree>  (232) 
1

>  <i_sd_BIOSOLVEIT.INFINISEE\_RESULT\_RANK>  (232) 
44638

>  <i_sd_version>  (232) 
0

>  <b_lp_Chiralities_Consistent>  (232) 
1

>  <b_sd_chiral_flag>  (232) 
0

>  <canonical_id>  (232) 
ATP-HTVS-2507C3370FB9

>  <compound_code>  (232) 
84259

>  <title>  (232) 
rxn502b____EMOL48579575____EMOL13728749____EMOL2868412

>  <variant>  (232) 
84259-2

>  <source_file>  (232) 
运行/运行/ATP-VSW/ATP-VSW-DOCK_HTVS_1-003_lib/ATP-VSW-DOCK_HTVS_1-003_lib.mae

>  <canonical_smiles>  (232) 
CC[NH+](CC)Cc1ccc(CNc2c[nH+]c3ccccc3c2NC(=O)c2ccc(C(C)=O)cc2)cc1

>  <scaffold>  (232) 
O=C(Nc1c(NCc2ccccc2)c[nH+]c2ccccc12)c1ccccc1

>  <molecular_formula>  (232) 
C30H34N4O2+2

$$$$
ATP-HTVS-255C97768CDB
     RDKit          3D

 63 66  0  0  0  0  0  0  0  0999 V2000
  201.5702  180.6420  157.8803 F   0  0  0  0  0  0  0  0  0  0  0  0
  200.9328  179.6082  157.2951 C   0  0  0  0  0  0  0  0  0  0  0  0
  200.0294  179.8445  156.2409 C   0  0  0  0  0  0  0  0  0  0  0  0
  199.3703  178.7506  155.6103 C   0  0  0  0  0  0  0  0  0  0  0  0
  198.4463  178.9681  154.5600 N   0  0  0  0  0  0  0  0  0  0  0  0
  198.6376  179.7843  153.5199 C   0  0  0  0  0  0  0  0  0  0  0  0
  199.6945  180.3825  153.3284 O   0  0  0  0  0  0  0  0  0  0  0  0
  197.4796  179.9084  152.5218 C   0  0  1  0  0  0  0  0  0  0  0  0
  197.6593  180.8988  151.4613 N   0  0  0  0  0  0  0  0  0  0  0  0
  197.6422  182.2833  151.7150 C   0  0  0  0  0  0  0  0  0  0  0  0
  197.7155  182.6770  153.0015 N   0  0  0  0  0  0  0  0  0  0  0  0
  197.7891  183.9805  153.3004 C   0  0  0  0  0  0  0  0  0  0  0  0
  197.7725  184.9389  152.3642 N   0  0  0  0  0  0  0  0  0  0  0  0
  197.6486  184.5989  151.0557 C   0  0  0  0  0  0  0  0  0  0  0  0
  197.5800  183.2357  150.6771 C   0  0  0  0  0  0  0  0  0  0  0  0
  197.4317  182.8896  149.3153 C   0  0  0  0  0  0  0  0  0  0  0  0
  197.3074  183.8991  148.3457 C   0  0  0  0  0  0  0  0  0  0  0  0
  197.3581  185.2534  148.7322 C   0  0  0  0  0  0  0  0  0  0  0  0
  197.5567  185.6067  150.0853 C   0  0  0  0  0  0  0  0  0  0  0  0
  197.9230  184.3223  154.6331 N   0  0  0  0  0  0  0  0  0  0  0  0
  198.4966  183.4326  155.6433 C   0  0  1  0  0  0  0  0  0  0  0  0
  197.8655  183.6119  157.0046 C   0  0  0  0  0  0  0  0  0  0  0  0
  196.8284  182.7466  157.3976 C   0  0  0  0  0  0  0  0  0  0  0  0
  196.2193  182.8996  158.6562 C   0  0  0  0  0  0  0  0  0  0  0  0
  196.6541  183.9131  159.5354 C   0  0  0  0  0  0  0  0  0  0  0  0
  197.6969  184.7749  159.1466 C   0  0  0  0  0  0  0  0  0  0  0  0
  198.3008  184.6270  157.8816 C   0  0  0  0  0  0  0  0  0  0  0  0
  195.1157  181.9491  159.0588 C   0  0  1  0  0  0  0  0  0  0  0  0
  193.9175  182.0613  158.1940 N   0  0  2  0  0  0  0  0  0  0  0  0
  193.2017  183.3321  158.4030 C   0  0  2  0  0  0  0  0  0  0  0  0
  193.0174  180.8947  158.3253 C   0  0  2  0  0  0  0  0  0  0  0  0
  199.6231  177.4446  156.0407 C   0  0  0  0  0  0  0  0  0  0  0  0
  200.5182  177.2139  157.0941 C   0  0  0  0  0  0  0  0  0  0  0  0
  201.1606  178.2930  157.7301 C   0  0  0  0  0  0  0  0  0  0  0  0
  199.8611  180.8660  155.9354 H   0  0  0  0  0  0  0  0  0  0  0  0
  197.6138  178.3697  154.5737 H   0  0  0  0  0  0  0  0  0  0  0  0
  197.3610  178.9428  152.0430 H   0  0  0  0  0  0  0  0  0  0  0  0
  196.5346  180.1097  153.0430 H   0  0  0  0  0  0  0  0  0  0  0  0
  197.7176  180.5692  150.5080 H   0  0  0  0  0  0  0  0  0  0  0  0
  197.3585  181.8634  148.9960 H   0  0  0  0  0  0  0  0  0  0  0  0
  197.1413  183.6500  147.3054 H   0  0  0  0  0  0  0  0  0  0  0  0
  197.2248  186.0131  147.9673 H   0  0  0  0  0  0  0  0  0  0  0  0
  197.5958  186.6488  150.3635 H   0  0  0  0  0  0  0  0  0  0  0  0
  197.7743  185.2853  154.8847 H   0  0  0  0  0  0  0  0  0  0  0  0
  198.3801  182.3819  155.3676 H   0  0  0  0  0  0  0  0  0  0  0  0
  199.5731  183.5910  155.7265 H   0  0  0  0  0  0  0  0  0  0  0  0
  196.5036  181.9547  156.7379 H   0  0  0  0  0  0  0  0  0  0  0  0
  196.2083  184.0231  160.5147 H   0  0  0  0  0  0  0  0  0  0  0  0
  198.0386  185.5447  159.8246 H   0  0  0  0  0  0  0  0  0  0  0  0
  199.1052  185.2885  157.5957 H   0  0  0  0  0  0  0  0  0  0  0  0
  195.5394  180.9463  159.0475 H   0  0  0  0  0  0  0  0  0  0  0  0
  194.8234  182.1332  160.0909 H   0  0  0  0  0  0  0  0  0  0  0  0
  192.8385  183.4529  159.4251 H   0  0  0  0  0  0  0  0  0  0  0  0
  192.3243  183.3208  157.7638 H   0  0  0  0  0  0  0  0  0  0  0  0
  193.8273  184.1955  158.1538 H   0  0  0  0  0  0  0  0  0  0  0  0
  192.6176  180.7898  159.3300 H   0  0  0  0  0  0  0  0  0  0  0  0
  193.5496  179.9665  158.1330 H   0  0  0  0  0  0  0  0  0  0  0  0
  192.1866  180.9629  157.6210 H   0  0  0  0  0  0  0  0  0  0  0  0
  199.1231  176.6228  155.5575 H   0  0  0  0  0  0  0  0  0  0  0  0
  200.7172  176.2048  157.4264 H   0  0  0  0  0  0  0  0  0  0  0  0
  201.8563  178.1072  158.5338 H   0  0  0  0  0  0  0  0  0  0  0  0
  197.8366  185.9240  152.6080 H   0  0  0  0  0  0  0  0  0  0  0  0
  194.2043  182.0916  157.2249 H   0  0  0  0  0  0  0  0  0  0  0  0
  1  2  1  0
  2  3  2  0
  2 34  1  0
  3  4  1  0
  3 35  1  0
  4  5  1  0
  4 32  2  0
  5  6  1  0
  5 36  1  0
  6  7  2  0
  6  8  1  0
  8  9  1  0
  8 37  1  6
  8 38  1  0
  9 10  1  0
  9 39  1  0
 10 11  2  0
 10 15  1  0
 11 12  1  0
 12 13  2  0
 12 20  1  0
 13 14  1  0
 13 62  1  0
 14 15  1  0
 14 19  2  0
 15 16  2  0
 16 17  1  0
 16 40  1  0
 17 18  2  0
 17 41  1  0
 18 19  1  0
 18 42  1  0
 19 43  1  0
 20 21  1  0
 20 44  1  0
 21 22  1  0
 21 45  1  6
 21 46  1  0
 22 23  2  0
 22 27  1  0
 23 24  1  0
 23 47  1  0
 24 25  2  0
 24 28  1  0
 25 26  1  0
 25 48  1  0
 26 27  2  0
 26 49  1  0
 27 50  1  0
 28 29  1  0
 28 51  1  1
 28 52  1  0
 29 30  1  0
 29 31  1  0
 29 63  1  6
 30 53  1  1
 30 54  1  0
 30 55  1  0
 31 56  1  1
 31 57  1  0
 31 58  1  0
 32 33  1  0
 32 59  1  0
 33 34  2  0
 33 60  1  0
 34 61  1  0
M  CHG  2  13   1  29   1
M  END
>  <s_epik_cmdline>  (233) 
J2VwaWtfcHl0aG9uJywgJy1waCcsICc3LjAwMDAwMCcsICctcGh0JywgJzIuMDAwMDAwJywgJy1tcycsICcxNicsICctdG4nLCAnOCcsICctbWEnLCAnMjAwJywgJy1pbWFlJywgJzxpbmZpbGUubWFlPicsICctb21hZScsICc8b3V0ZmlsZS5tYWU+Jw==

>  <s_epik_input>  (233) 
RmMxW2NIXWMoW2NIXVtjSF1bY0hdMSlbTkhdQyg9TylbQ0gyXVtOSF1jKGMoYzIzKVtjSF1bY0hdW2NIXVtjSF0zKW5jKG4yKVtOSF1bQ0gyXWM0W2NIXWMoW2NIXVtjSF1bY0hdNClbQ0gyXU4oW0NIM10pW0NIM10=

>  <s_i_glide_gridfile>  (233) 
ATP-Grid

>  <s_lp_Force_Field>  (233) 
OPLS_2005

>  <s_lp_Variant>  (233) 
m_282030aaa____21933780____22360182____21940090-1

>  <s_lp_label>  (233) 
1994_sdstereoexpander_1_neutralizer_1_epik_1_stereoizer_1

>  <s_m_source_file>  (233) 
ATP-VSW-LIGPREP-002-in.maegz

>  <s_sd_BIOSOLVEIT.INFINISEE\_QUERY\_NAME>  (233) 
Ref-Lig

>  <s_sd_BIOSOLVEIT.INFINISEE\_QUERY\_SMILES>  (233) 
S(c1nc2c(cc1C[NH2+]Cc3ccc(cc3)C[NH+](C)C)cccc2)Cc4ccccc4

>  <s_sd_BIOSOLVEIT.INFINISEE\_REACTION\_NAME>  (233) 
m_282030aaa

>  <s_sd_BIOSOLVEIT.INFINISEE\_REAGENT1\_SMILES>  (233) 
[R1*]NCC(=O)Nc1cc(F)ccc1

>  <s_sd_BIOSOLVEIT.INFINISEE\_REAGENT2\_SMILES>  (233) 
[R2*]c1nc([R1*])c2c(n1)cccc2

>  <s_sd_BIOSOLVEIT.INFINISEE\_REAGENT3\_SMILES>  (233) 
[R2*]NCc1cc(ccc1)CN(C)C

>  <s_sd_BIOSOLVEIT.INFINISEE\_SPACE>  (233) 
REALSpace_44bn_2023-08

>  <s_vsw_compound_code>  (233) 
63778

>  <s_vsw_variant>  (233) 
63778-1

>  <r_epik_Charging_Adjusted_Penalty>  (233) 
0.10382019703258

>  <r_epik_Ionization_Penalty>  (233) 
0.052200000000000003

>  <r_epik_Ionization_Penalty_Charging>  (233) 
0.052200000000000003

>  <r_epik_Ionization_Penalty_Neutral>  (233) 
0

>  <r_epik_State_Penalty>  (233) 
0.0516

>  <r_i_docking_score>  (233) 
-3.95866292265843

>  <r_i_glide_ecoul>  (233) 
-6.5831108093261701

>  <r_i_glide_eff_state_penalty>  (233) 
0.0516

>  <r_i_glide_einternal>  (233) 
6.7128667831420898

>  <r_i_glide_emodel>  (233) 
-54.328934125607901

>  <r_i_glide_energy>  (233) 
-40.747020721435497

>  <r_i_glide_erotb>  (233) 
0.75922587985082501

>  <r_i_glide_esite>  (233) 
-0.151855657289206

>  <r_i_glide_evdw>  (233) 
-34.163909912109403

>  <r_i_glide_gscore>  (233) 
-4.0102629226584297

>  <r_i_glide_hbond>  (233) 
-0.15393333499276601

>  <r_i_glide_ligand_efficiency>  (233) 
-0.11643126243113

>  <r_i_glide_ligand_efficiency_ln>  (233) 
-0.87457967634916201

>  <r_i_glide_ligand_efficiency_sa>  (233) 
-0.377192091366153

>  <r_i_glide_lipo>  (233) 
-1.46597601102613

>  <r_i_glide_metal>  (233) 
-0

>  <r_i_glide_rewards>  (233) 
-0.302061682196751

>  <r_lp_Energy>  (233) 
21.60087

>  <r_qp_ACxDN^.5/SA>  (233) 
0.0139624

>  <r_qp_CIQPlogS>  (233) 
-6.0289999999999999

>  <r_qp_EA(eV)>  (233) 
0.60699999999999998

>  <r_qp_FISA>  (233) 
78.513999999999996

>  <r_qp_FOSA>  (233) 
200.875

>  <r_qp_IP(eV)>  (233) 
7.9880000000000004

>  <r_qp_Jm>  (233) 
0.037334483583603799

>  <r_qp_PISA>  (233) 
412.47800000000001

>  <r_qp_PSA>  (233) 
80.989000000000004

>  <r_qp_PercentHumanOralAbsorption>  (233) 
100

>  <r_qp_QPPCaco>  (233) 
444.88499999999999

>  <r_qp_QPPMDCK>  (233) 
347.07499999999999

>  <r_qp_QPlogBB>  (233) 
-0.255

>  <r_qp_QPlogHERG>  (233) 
-6.9459999999999997

>  <r_qp_QPlogKhsa>  (233) 
0.66400000000000003

>  <r_qp_QPlogKp>  (233) 
-2.7120000000000002

>  <r_qp_QPlogPC16>  (233) 
14.865

>  <r_qp_QPlogPo/w>  (233) 
4.5810000000000004

>  <r_qp_QPlogPoct>  (233) 
23.131

>  <r_qp_QPlogPw>  (233) 
12.773999999999999

>  <r_qp_QPlogS>  (233) 
-4.3769999999999998

>  <r_qp_QPpolrz>  (233) 
47.756999999999998

>  <r_qp_SASA>  (233) 
725.16399999999999

>  <r_qp_SAamideO>  (233) 
0

>  <r_qp_SAfluorine>  (233) 
33.295999999999999

>  <r_qp_WPSA>  (233) 
33.295999999999999

>  <r_qp_accptHB>  (233) 
6.75

>  <r_qp_dip^2/V>  (233) 
0.0130358

>  <r_qp_dipole>  (233) 
4.2610000000000001

>  <r_qp_donorHB>  (233) 
2.25

>  <r_qp_glob>  (233) 
0.83185319999999996

>  <r_qp_mol_MW>  (233) 
458.53699999999998

>  <r_qp_volume>  (233) 
1393.0820000000001

>  <r_sd_BIOSOLVEIT.INFINISEE\_FTREES\_SIMILARITY>  (233) 
0.90200000000000002

>  <r_sd_BIOSOLVEIT.LOGP>  (233) 
3.0760999999999998

>  <r_sd_BIOSOLVEIT.MOLECULAR\_WEIGHT>  (233) 
459.54599999999999

>  <r_sd_BIOSOLVEIT.TPSA>  (233) 
83.379999999999995

>  <i_epik_Tot_Q>  (233) 
2

>  <i_epik_Tot_abs_Q>  (233) 
2

>  <i_f3d_flags>  (233) 
0

>  <i_i_glide_confnum>  (233) 
2

>  <i_i_glide_lignum>  (233) 
722

>  <i_i_glide_posenum>  (233) 
6

>  <i_i_glide_rotatable_bonds>  (233) 
10

>  <i_lp_mmshare_version>  (233) 
65135

>  <i_m_ct_format>  (233) 
2

>  <i_m_source_file_index>  (233) 
1994

>  <i_qp_#NandO>  (233) 
7

>  <i_qp_#acid>  (233) 
0

>  <i_qp_#amide>  (233) 
0

>  <i_qp_#amidine>  (233) 
0

>  <i_qp_#amine>  (233) 
1

>  <i_qp_#in34>  (233) 
0

>  <i_qp_#in56>  (233) 
22

>  <i_qp_#metab>  (233) 
6

>  <i_qp_#nonHatm>  (233) 
34

>  <i_qp_#noncon>  (233) 
0

>  <i_qp_#ringatoms>  (233) 
22

>  <i_qp_#rotor>  (233) 
9

>  <i_qp_#rtvFG>  (233) 
0

>  <i_qp_#stars>  (233) 
0

>  <i_qp_CNS>  (233) 
0

>  <i_qp_HumanOralAbsorption>  (233) 
3

>  <i_qp_RuleOfFive>  (233) 
0

>  <i_qp_RuleOfThree>  (233) 
0

>  <i_sd_BIOSOLVEIT.INFINISEE\_REAGENT1\_NAME>  (233) 
21933780

>  <i_sd_BIOSOLVEIT.INFINISEE\_REAGENT2\_NAME>  (233) 
22360182

>  <i_sd_BIOSOLVEIT.INFINISEE\_REAGENT3\_NAME>  (233) 
21940090

>  <i_sd_BIOSOLVEIT.INFINISEE\_RESULT\_RANK>  (233) 
90417

>  <i_sd_version>  (233) 
0

>  <b_lp_Chiralities_Consistent>  (233) 
1

>  <b_sd_chiral_flag>  (233) 
0

>  <canonical_id>  (233) 
ATP-HTVS-255C97768CDB

>  <compound_code>  (233) 
63778

>  <title>  (233) 
m_282030aaa____21933780____22360182____21940090

>  <variant>  (233) 
63778-1

>  <source_file>  (233) 
运行/运行/ATP-VSW/ATP-VSW-DOCK_HTVS_1-002_lib.maegz

>  <canonical_smiles>  (233) 
C[NH+](C)Cc1cccc(CNc2nc(NCC(=O)Nc3cccc(F)c3)c3ccccc3[nH+]2)c1

>  <scaffold>  (233) 
O=C(CNc1nc(NCc2ccccc2)[nH+]c2ccccc12)Nc1ccccc1

>  <molecular_formula>  (233) 
C26H29FN6O+2

$$$$
ATP-HTVS-258E82C8B178
     RDKit          3D

 52 54  0  0  0  0  0  0  0  0999 V2000
  197.0422  181.7416  151.6247 S   0  0  0  0  0  0  0  0  0  0  0  0
  197.3087  180.0210  151.9256 C   0  0  0  0  0  0  0  0  0  0  0  0
  197.1343  179.6958  153.2186 N   0  0  0  0  0  0  0  0  0  0  0  0
  196.8600  180.7984  154.0313 C   0  0  0  0  0  0  0  0  0  0  0  0
  196.7455  181.9788  153.3292 C   0  0  0  0  0  0  0  0  0  0  0  0
  196.7219  180.5889  155.5231 C   0  0  1  0  0  0  0  0  0  0  0  0
  196.3138  181.8408  156.1957 N   0  0  1  0  0  0  0  0  0  0  0  0
  196.1620  181.7519  157.6600 C   0  0  1  0  0  0  0  0  0  0  0  0
  196.2703  183.1295  158.2950 C   0  0  0  0  0  0  0  0  0  0  0  0
  197.5173  183.8090  158.3932 C   0  0  0  0  0  0  0  0  0  0  0  0
  198.6843  183.2088  157.8707 N   0  0  0  0  0  0  0  0  0  0  0  0
  200.0118  183.7737  158.0916 C   0  0  1  0  0  0  0  0  0  0  0  0
  200.6031  183.3214  159.4359 C   0  0  2  0  0  0  0  0  0  0  0  0
  197.5401  185.0926  158.9931 C   0  0  0  0  0  0  0  0  0  0  0  0
  196.3635  185.6897  159.4728 C   0  0  0  0  0  0  0  0  0  0  0  0
  195.1379  185.0082  159.3753 C   0  0  0  0  0  0  0  0  0  0  0  0
  195.0911  183.7339  158.7868 C   0  0  0  0  0  0  0  0  0  0  0  0
  197.6876  179.0359  150.9347 N   0  0  0  0  0  0  0  0  0  0  0  0
  198.7274  178.1185  151.3464 C   0  0  0  0  0  0  0  0  0  0  0  0
  198.7069  176.7429  150.9534 C   0  0  0  0  0  0  0  0  0  0  0  0
  199.7661  175.8958  151.3194 C   0  0  0  0  0  0  0  0  0  0  0  0
  200.8289  176.3405  152.1453 C   0  0  0  0  0  0  0  0  0  0  0  0
  200.8313  177.6772  152.5962 C   0  0  0  0  0  0  0  0  0  0  0  0
  199.8039  178.5499  152.1799 C   0  0  0  0  0  0  0  0  0  0  0  0
  197.1248  179.0858  149.6834 C   0  0  0  0  0  0  0  0  0  0  0  0
  196.1748  179.8186  149.4226 O   0  0  0  0  0  0  0  0  0  0  0  0
  197.5873  178.1569  148.5434 C   0  0  2  0  0  0  0  0  0  0  0  0
  197.0216  182.5324  156.0048 H   0  0  0  0  0  0  0  0  0  0  0  0
  196.4879  182.9671  153.6911 H   0  0  0  0  0  0  0  0  0  0  0  0
  196.0169  179.7900  155.7245 H   0  0  0  0  0  0  0  0  0  0  0  0
  197.6534  180.2252  155.9542 H   0  0  0  0  0  0  0  0  0  0  0  0
  195.1805  181.3226  157.8694 H   0  0  0  0  0  0  0  0  0  0  0  0
  196.9144  181.0963  158.1007 H   0  0  0  0  0  0  0  0  0  0  0  0
  198.6647  182.2222  157.6567 H   0  0  0  0  0  0  0  0  0  0  0  0
  200.6578  183.4288  157.2804 H   0  0  0  0  0  0  0  0  0  0  0  0
  200.0143  184.8625  158.0144 H   0  0  0  0  0  0  0  0  0  0  0  0
  201.5842  183.7679  159.5904 H   0  0  0  0  0  0  0  0  0  0  0  0
  200.7363  182.2385  159.4735 H   0  0  0  0  0  0  0  0  0  0  0  0
  199.9754  183.6077  160.2810 H   0  0  0  0  0  0  0  0  0  0  0  0
  198.4513  185.6627  159.0950 H   0  0  0  0  0  0  0  0  0  0  0  0
  196.4007  186.6791  159.9024 H   0  0  0  0  0  0  0  0  0  0  0  0
  194.2310  185.4718  159.7355 H   0  0  0  0  0  0  0  0  0  0  0  0
  194.1381  183.2280  158.7005 H   0  0  0  0  0  0  0  0  0  0  0  0
  197.8744  176.3379  150.3807 H   0  0  0  0  0  0  0  0  0  0  0  0
  199.7753  174.8729  150.9620 H   0  0  0  0  0  0  0  0  0  0  0  0
  201.6274  175.6564  152.4405 H   0  0  0  0  0  0  0  0  0  0  0  0
  201.6131  178.0234  153.2625 H   0  0  0  0  0  0  0  0  0  0  0  0
  199.8634  179.5879  152.5310 H   0  0  0  0  0  0  0  0  0  0  0  0
  198.6616  177.9899  148.5483 H   0  0  0  0  0  0  0  0  0  0  0  0
  197.3449  178.5867  147.5651 H   0  0  0  0  0  0  0  0  0  0  0  0
  197.1061  177.1835  148.6591 H   0  0  0  0  0  0  0  0  0  0  0  0
  195.4243  182.1684  155.8247 H   0  0  0  0  0  0  0  0  0  0  0  0
  1  2  1  0
  1  5  1  0
  2  3  2  0
  2 18  1  0
  3  4  1  0
  4  5  2  0
  4  6  1  0
  5 29  1  0
  6  7  1  0
  6 30  1  6
  6 31  1  0
  7  8  1  0
  7 28  1  1
  7 52  1  0
  8  9  1  0
  8 32  1  6
  8 33  1  0
  9 10  1  0
  9 17  2  0
 10 11  1  0
 10 14  2  0
 11 12  1  0
 11 34  1  0
 12 13  1  0
 12 35  1  6
 12 36  1  0
 13 37  1  1
 13 38  1  0
 13 39  1  0
 14 15  1  0
 14 40  1  0
 15 16  2  0
 15 41  1  0
 16 17  1  0
 16 42  1  0
 17 43  1  0
 18 19  1  0
 18 25  1  0
 19 20  2  0
 19 24  1  0
 20 21  1  0
 20 44  1  0
 21 22  2  0
 21 45  1  0
 22 23  1  0
 22 46  1  0
 23 24  2  0
 23 47  1  0
 24 48  1  0
 25 26  2  0
 25 27  1  0
 27 49  1  6
 27 50  1  0
 27 51  1  0
M  CHG  1   7   1
M  END
>  <s_epik_cmdline>  (234) 
J2VwaWtfcHl0aG9uJywgJy1waCcsICc3LjAwMDAwMCcsICctcGh0JywgJzIuMDAwMDAwJywgJy1tcycsICcxNicsICctdG4nLCAnOCcsICctbWEnLCAnMjAwJywgJy1pbWFlJywgJzxpbmZpbGUubWFlPicsICctb21hZScsICc8b3V0ZmlsZS5tYWU+Jw==

>  <s_epik_input>  (234) 
W2NIXTFbY0hdW2NIXVtjSF1bY0hdYzFOKEMoPU8pW0NIM10pYzJzW2NIXWMobjIpW0NIMl1bTkhdW0NIMl1jM2MoW05IXVtDSDJdW0NIM10pW2NIXVtjSF1bY0hdW2NIXTM=

>  <s_i_glide_gridfile>  (234) 
ATP-Grid

>  <s_lp_Force_Field>  (234) 
OPLS_2005

>  <s_lp_Variant>  (234) 
m_270004bbb____25290082____12209754-1

>  <s_lp_label>  (234) 
1106_sdstereoexpander_1_neutralizer_1_epik_1_stereoizer_1

>  <s_m_source_file>  (234) 
ATP-VSW-LIGPREP-002-in.maegz

>  <s_sd_BIOSOLVEIT.INFINISEE\_QUERY\_NAME>  (234) 
Ref-Lig

>  <s_sd_BIOSOLVEIT.INFINISEE\_QUERY\_SMILES>  (234) 
S(c1nc2c(cc1C[NH2+]Cc3ccc(cc3)C[NH+](C)C)cccc2)Cc4ccccc4

>  <s_sd_BIOSOLVEIT.INFINISEE\_REACTION\_NAME>  (234) 
m_270004bbb

>  <s_sd_BIOSOLVEIT.INFINISEE\_REAGENT1\_SMILES>  (234) 
[R1*]NCc1c(NCC)cccc1

>  <s_sd_BIOSOLVEIT.INFINISEE\_REAGENT2\_SMILES>  (234) 
[R1*]CC=1N=C(SC1)N(c2ccccc2)C(=O)C

>  <s_sd_BIOSOLVEIT.INFINISEE\_SPACE>  (234) 
REALSpace_44bn_2023-08

>  <s_vsw_compound_code>  (234) 
35362

>  <s_vsw_variant>  (234) 
35362-1

>  <r_epik_Charging_Adjusted_Penalty>  (234) 
0.157232180687425

>  <r_epik_Ionization_Penalty>  (234) 
0.1197

>  <r_epik_Ionization_Penalty_Charging>  (234) 
0.1197

>  <r_epik_Ionization_Penalty_Neutral>  (234) 
0

>  <r_epik_State_Penalty>  (234) 
0.037499999999999999

>  <r_i_docking_score>  (234) 
-4.7919875858531196

>  <r_i_glide_ecoul>  (234) 
-9.1186103820800799

>  <r_i_glide_eff_state_penalty>  (234) 
0.037499999999999999

>  <r_i_glide_einternal>  (234) 
3.6944210529327401

>  <r_i_glide_emodel>  (234) 
-60.633281338712202

>  <r_i_glide_energy>  (234) 
-42.847988128662102

>  <r_i_glide_erotb>  (234) 
0.93355921433771205

>  <r_i_glide_esite>  (234) 
-0.090646493134502806

>  <r_i_glide_evdw>  (234) 
-33.729377746582003

>  <r_i_glide_gscore>  (234) 
-4.8294875858531201

>  <r_i_glide_hbond>  (234) 
-0.20000000000000001

>  <r_i_glide_ligand_efficiency>  (234) 
-0.17748102169826399

>  <r_i_glide_ligand_efficiency_ln>  (234) 
-1.1154957078969101

>  <r_i_glide_ligand_efficiency_sa>  (234) 
-0.53244306450984302

>  <r_i_glide_lipo>  (234) 
-1.4608942141199801

>  <r_i_glide_metal>  (234) 
-0

>  <r_i_glide_rewards>  (234) 
-0.95724564829523695

>  <r_lp_Energy>  (234) 
28.095884000000002

>  <r_lp_tautomer_probability>  (234) 
1

>  <r_qp_ACxDN^.5/SA>  (234) 
0.0143575

>  <r_qp_CIQPlogS>  (234) 
-4.1040000000000001

>  <r_qp_EA(eV)>  (234) 
1.2

>  <r_qp_FISA>  (234) 
64.540000000000006

>  <r_qp_FOSA>  (234) 
240.167

>  <r_qp_IP(eV)>  (234) 
7.9969999999999999

>  <r_qp_Jm>  (234) 
0.079586899322941204

>  <r_qp_PISA>  (234) 
346.291

>  <r_qp_PSA>  (234) 
64.254000000000005

>  <r_qp_PercentHumanOralAbsorption>  (234) 
100

>  <r_qp_QPPCaco>  (234) 
603.63

>  <r_qp_QPPMDCK>  (234) 
515.447

>  <r_qp_QPlogBB>  (234) 
-0.075999999999999998

>  <r_qp_QPlogHERG>  (234) 
-6.9290000000000003

>  <r_qp_QPlogKhsa>  (234) 
0.28499999999999998

>  <r_qp_QPlogKp>  (234) 
-2.7839999999999998

>  <r_qp_QPlogPC16>  (234) 
13.454000000000001

>  <r_qp_QPlogPo/w>  (234) 
3.6499999999999999

>  <r_qp_QPlogPoct>  (234) 
20.888999999999999

>  <r_qp_QPlogPw>  (234) 
12.246

>  <r_qp_QPlogS>  (234) 
-3.8959999999999999

>  <r_qp_QPpolrz>  (234) 
41.997

>  <r_qp_SASA>  (234) 
689.49900000000002

>  <r_qp_SAamideO>  (234) 
0

>  <r_qp_SAfluorine>  (234) 
0

>  <r_qp_WPSA>  (234) 
38.502000000000002

>  <r_qp_accptHB>  (234) 
7

>  <r_qp_dip^2/V>  (234) 
0.031609699999999998

>  <r_qp_dipole>  (234) 
6.2830000000000004

>  <r_qp_donorHB>  (234) 
2

>  <r_qp_glob>  (234) 
0.81342499999999995

>  <r_qp_mol_MW>  (234) 
380.50700000000001

>  <r_qp_volume>  (234) 
1248.904

>  <r_sd_BIOSOLVEIT.INFINISEE\_FTREES\_SIMILARITY>  (234) 
0.91300000000000003

>  <r_sd_BIOSOLVEIT.LOGP>  (234) 
3.5230999999999999

>  <r_sd_BIOSOLVEIT.MOLECULAR\_WEIGHT>  (234) 
381.52100000000002

>  <r_sd_BIOSOLVEIT.TPSA>  (234) 
61.840000000000003

>  <i_epik_Tot_Q>  (234) 
1

>  <i_epik_Tot_abs_Q>  (234) 
1

>  <i_f3d_flags>  (234) 
0

>  <i_i_glide_confnum>  (234) 
9

>  <i_i_glide_lignum>  (234) 
377

>  <i_i_glide_posenum>  (234) 
15

>  <i_i_glide_rotatable_bonds>  (234) 
9

>  <i_lp_mmshare_version>  (234) 
65135

>  <i_m_ct_format>  (234) 
2

>  <i_m_source_file_index>  (234) 
1106

>  <i_qp_#NandO>  (234) 
5

>  <i_qp_#acid>  (234) 
0

>  <i_qp_#amide>  (234) 
0

>  <i_qp_#amidine>  (234) 
0

>  <i_qp_#amine>  (234) 
1

>  <i_qp_#in34>  (234) 
0

>  <i_qp_#in56>  (234) 
17

>  <i_qp_#metab>  (234) 
9

>  <i_qp_#nonHatm>  (234) 
27

>  <i_qp_#noncon>  (234) 
0

>  <i_qp_#ringatoms>  (234) 
17

>  <i_qp_#rotor>  (234) 
8

>  <i_qp_#rtvFG>  (234) 
0

>  <i_qp_#stars>  (234) 
1

>  <i_qp_CNS>  (234) 
1

>  <i_qp_HumanOralAbsorption>  (234) 
3

>  <i_qp_RuleOfFive>  (234) 
0

>  <i_qp_RuleOfThree>  (234) 
1

>  <i_sd_BIOSOLVEIT.INFINISEE\_REAGENT1\_NAME>  (234) 
25290082

>  <i_sd_BIOSOLVEIT.INFINISEE\_REAGENT2\_NAME>  (234) 
12209754

>  <i_sd_BIOSOLVEIT.INFINISEE\_RESULT\_RANK>  (234) 
33694

>  <i_sd_version>  (234) 
0

>  <b_lp_Chiralities_Consistent>  (234) 
1

>  <b_sd_chiral_flag>  (234) 
0

>  <canonical_id>  (234) 
ATP-HTVS-258E82C8B178

>  <compound_code>  (234) 
35362

>  <title>  (234) 
m_270004bbb____25290082____12209754

>  <variant>  (234) 
35362-1

>  <source_file>  (234) 
运行/运行/ATP-VSW/ATP-VSW-DOCK_HTVS_1-002_lib.maegz

>  <canonical_smiles>  (234) 
CCNc1ccccc1C[NH2+]Cc1csc(N(C(C)=O)c2ccccc2)n1

>  <scaffold>  (234) 
c1ccc(C[NH2+]Cc2csc(Nc3ccccc3)n2)cc1

>  <molecular_formula>  (234) 
C21H25N4OS+

$$$$
ATP-HTVS-2598958FABEA
     RDKit          3D

 64 67  0  0  0  0  0  0  0  0999 V2000
  202.3666  182.5921  156.7754 O   0  0  0  0  0  0  0  0  0  0  0  0
  201.1761  182.3340  156.9385 C   0  0  0  0  0  0  0  0  0  0  0  0
  200.3768  183.0509  157.7492 N   0  0  0  0  0  0  0  0  0  0  0  0
  200.7650  184.1915  158.5019 C   0  0  0  0  0  0  0  0  0  0  0  0
  200.2587  185.4709  158.1473 C   0  0  0  0  0  0  0  0  0  0  0  0
  199.4329  185.6840  157.0313 N   0  0  0  0  0  0  0  0  0  0  0  0
  198.1799  186.4072  157.2481 C   0  0  1  0  0  0  0  0  0  0  0  0
  197.1750  185.7220  158.1642 C   0  0  0  0  0  0  0  0  0  0  0  0
  197.1189  184.3185  158.2523 C   0  0  0  0  0  0  0  0  0  0  0  0
  196.1876  183.6851  159.1024 C   0  0  0  0  0  0  0  0  0  0  0  0
  195.3035  184.4650  159.8699 C   0  0  0  0  0  0  0  0  0  0  0  0
  195.3509  185.8680  159.7857 C   0  0  0  0  0  0  0  0  0  0  0  0
  196.2792  186.4942  158.9313 C   0  0  0  0  0  0  0  0  0  0  0  0
  196.1408  182.1703  159.1822 C   0  0  1  0  0  0  0  0  0  0  0  0
  195.3716  181.5829  158.0697 N   0  0  2  0  0  0  0  0  0  0  0  0
  195.8592  182.0308  156.7713 C   0  0  2  0  0  0  0  0  0  0  0  0
  193.9314  181.8322  158.1376 C   0  0  2  0  0  0  0  0  0  0  0  0
  200.6184  186.5656  158.9523 C   0  0  0  0  0  0  0  0  0  0  0  0
  201.4183  186.4739  160.0273 N   0  0  0  0  0  0  0  0  0  0  0  0
  201.8904  185.2655  160.3926 C   0  0  0  0  0  0  0  0  0  0  0  0
  201.5762  184.0784  159.6684 C   0  0  0  0  0  0  0  0  0  0  0  0
  202.0611  182.8316  160.1393 C   0  0  0  0  0  0  0  0  0  0  0  0
  202.8711  182.7617  161.2872 C   0  0  0  0  0  0  0  0  0  0  0  0
  203.2022  183.9348  161.9839 C   0  0  0  0  0  0  0  0  0  0  0  0
  202.7101  185.1736  161.5369 C   0  0  0  0  0  0  0  0  0  0  0  0
  200.5239  181.1545  156.2594 C   0  0  0  0  0  0  0  0  0  0  0  0
  201.2631  180.0387  155.7864 C   0  0  0  0  0  0  0  0  0  0  0  0
  200.5961  178.9847  155.1272 C   0  0  0  0  0  0  0  0  0  0  0  0
  199.2104  179.0152  154.9372 C   0  0  0  0  0  0  0  0  0  0  0  0
  198.4781  180.1035  155.3936 C   0  0  0  0  0  0  0  0  0  0  0  0
  199.1357  181.1675  156.0470 C   0  0  0  0  0  0  0  0  0  0  0  0
  197.0194  180.0843  155.0938 C   0  0  2  0  0  0  0  0  0  0  0  0
  202.7666  179.9215  155.9724 C   0  0  2  0  0  0  0  0  0  0  0  0
  199.3902  182.8454  157.7132 H   0  0  0  0  0  0  0  0  0  0  0  0
  199.3348  184.8954  156.4184 H   0  0  0  0  0  0  0  0  0  0  0  0
  198.3794  187.4124  157.6192 H   0  0  0  0  0  0  0  0  0  0  0  0
  197.7020  186.5406  156.2783 H   0  0  0  0  0  0  0  0  0  0  0  0
  197.7810  183.7179  157.6463 H   0  0  0  0  0  0  0  0  0  0  0  0
  194.5901  183.9917  160.5272 H   0  0  0  0  0  0  0  0  0  0  0  0
  194.6731  186.4672  160.3758 H   0  0  0  0  0  0  0  0  0  0  0  0
  196.3058  187.5722  158.8746 H   0  0  0  0  0  0  0  0  0  0  0  0
  197.1638  181.7981  159.1721 H   0  0  0  0  0  0  0  0  0  0  0  0
  195.7035  181.8496  160.1227 H   0  0  0  0  0  0  0  0  0  0  0  0
  195.8931  183.0627  156.5447 H   0  0  0  0  0  0  0  0  0  0  0  0
  195.2898  181.5613  155.9635 H   0  0  0  0  0  0  0  0  0  0  0  0
  196.8888  181.7789  156.7688 H   0  0  0  0  0  0  0  0  0  0  0  0
  193.7366  182.8989  158.0433 H   0  0  0  0  0  0  0  0  0  0  0  0
  193.5346  181.4787  159.0813 H   0  0  0  0  0  0  0  0  0  0  0  0
  193.4056  181.3154  157.3348 H   0  0  0  0  0  0  0  0  0  0  0  0
  200.2620  187.5551  158.7119 H   0  0  0  0  0  0  0  0  0  0  0  0
  201.8229  181.9084  159.6353 H   0  0  0  0  0  0  0  0  0  0  0  0
  203.2386  181.8065  161.6330 H   0  0  0  0  0  0  0  0  0  0  0  0
  203.8224  183.8849  162.8671 H   0  0  0  0  0  0  0  0  0  0  0  0
  202.9549  186.0677  162.0914 H   0  0  0  0  0  0  0  0  0  0  0  0
  201.1515  178.1353  154.7630 H   0  0  0  0  0  0  0  0  0  0  0  0
  198.7105  178.2049  154.4312 H   0  0  0  0  0  0  0  0  0  0  0  0
  198.6339  182.0459  156.3772 H   0  0  0  0  0  0  0  0  0  0  0  0
  196.7035  180.8337  154.3701 H   0  0  0  0  0  0  0  0  0  0  0  0
  196.5100  180.0928  156.0127 H   0  0  0  0  0  0  0  0  0  0  0  0
  196.5598  179.1397  154.9461 H   0  0  0  0  0  0  0  0  0  0  0  0
  203.1197  178.9205  155.7345 H   0  0  0  0  0  0  0  0  0  0  0  0
  203.0483  180.1333  157.0056 H   0  0  0  0  0  0  0  0  0  0  0  0
  203.2885  180.6220  155.3189 H   0  0  0  0  0  0  0  0  0  0  0  0
  195.5020  180.5544  158.1274 H   0  0  0  0  0  0  0  0  0  0  0  0
  1  2  2  0
  2  3  1  0
  2 26  1  0
  3  4  1  0
  3 34  1  0
  4  5  2  0
  4 21  1  0
  5  6  1  0
  5 18  1  0
  6  7  1  0
  6 35  1  0
  7  8  1  0
  7 36  1  1
  7 37  1  0
  8  9  2  0
  8 13  1  0
  9 10  1  0
  9 38  1  0
 10 11  2  0
 10 14  1  0
 11 12  1  0
 11 39  1  0
 12 13  2  0
 12 40  1  0
 13 41  1  0
 14 15  1  0
 14 42  1  1
 14 43  1  0
 15 16  1  0
 15 17  1  0
 15 64  1  6
 16 44  1  1
 16 45  1  0
 16 46  1  0
 17 47  1  6
 17 48  1  0
 17 49  1  0
 18 19  2  0
 18 50  1  0
 19 20  1  0
 20 21  1  0
 20 25  2  0
 21 22  2  0
 22 23  1  0
 22 51  1  0
 23 24  2  0
 23 52  1  0
 24 25  1  0
 24 53  1  0
 25 54  1  0
 26 27  2  0
 26 31  1  0
 27 28  1  0
 27 33  1  0
 28 29  2  0
 28 55  1  0
 29 30  1  0
 29 56  1  0
 30 31  2  0
 30 32  1  0
 31 57  1  0
 32 58  1  6
 32 59  1  0
 32 60  1  0
 33 61  1  6
 33 62  1  0
 33 63  1  0
M  CHG  1  15   1
M  END
>  <s_epik_cmdline>  (235) 
J2VwaWtfcHl0aG9uJywgJy1waCcsICc3LjAwMDAwMCcsICctcGh0JywgJzIuMDAwMDAwJywgJy1tcycsICcxNicsICctdG4nLCAnOCcsICctbWEnLCAnMjAwJywgJy1pbWFlJywgJzxpbmZpbGUubWFlPicsICctb21hZScsICc8b3V0ZmlsZS5tYWU+Jw==

>  <s_epik_input>  (235) 
W2NIXTFjKFtDSDNdKVtjSF1bY0hdYyhbQ0gzXSljMUMoPU8pW05IXWMoYyhjMjMpW2NIXVtjSF1bY0hdW2NIXTMpYyhbY0hdbjIpW05IXVtDSDJdYzRbY0hdYyhbY0hdW2NIXVtjSF00KVtDSDJdTihbQ0gzXSlbQ0gzXQ==

>  <s_i_glide_gridfile>  (235) 
ATP-Grid

>  <s_lp_Force_Field>  (235) 
OPLS_2005

>  <s_lp_Variant>  (235) 
rxn502b____EMOL11467954____EMOL13728749____EMOL2873214-1

>  <s_lp_label>  (235) 
2406_sdstereoexpander_1_neutralizer_1_epik_1_stereoizer_1

>  <s_m_source_file>  (235) 
ATP-VSW-LIGPREP-001-in.maegz

>  <s_sd_BIOSOLVEIT.INFINISEE\_QUERY\_NAME>  (235) 
Ref-Lig

>  <s_sd_BIOSOLVEIT.INFINISEE\_QUERY\_SMILES>  (235) 
S(c1nc2c(cc1C[NH2+]Cc3ccc(cc3)C[NH+](C)C)cccc2)Cc4ccccc4

>  <s_sd_BIOSOLVEIT.INFINISEE\_REACTION\_NAME>  (235) 
rxn502b

>  <s_sd_BIOSOLVEIT.INFINISEE\_REAGENT1\_NAME>  (235) 
EMOL11467954

>  <s_sd_BIOSOLVEIT.INFINISEE\_REAGENT1\_SMILES>  (235) 
ClC(=O)c1c(ccc(c1)C)C

>  <s_sd_BIOSOLVEIT.INFINISEE\_REAGENT2\_NAME>  (235) 
EMOL13728749

>  <s_sd_BIOSOLVEIT.INFINISEE\_REAGENT2\_SMILES>  (235) 
Brc1c(N)c2c(nc1)cccc2

>  <s_sd_BIOSOLVEIT.INFINISEE\_REAGENT3\_NAME>  (235) 
EMOL2873214

>  <s_sd_BIOSOLVEIT.INFINISEE\_REAGENT3\_SMILES>  (235) 
N(Cc1cc(ccc1)CN)(C)C

>  <s_sd_BIOSOLVEIT.INFINISEE\_SPACE>  (235) 
eXplore_7tr_2022-12

>  <s_vsw_compound_code>  (235) 
76961

>  <s_vsw_variant>  (235) 
76961-1

>  <r_epik_Charging_Adjusted_Penalty>  (235) 
0.127426369452352

>  <r_epik_Ionization_Penalty>  (235) 
0.083299999999999999

>  <r_epik_Ionization_Penalty_Charging>  (235) 
0.0441

>  <r_epik_Ionization_Penalty_Neutral>  (235) 
0.039199999999999999

>  <r_epik_State_Penalty>  (235) 
0.083299999999999999

>  <r_i_docking_score>  (235) 
-4.8437624077303196

>  <r_i_glide_ecoul>  (235) 
-12.675574302673301

>  <r_i_glide_eff_state_penalty>  (235) 
0.083299999999999999

>  <r_i_glide_einternal>  (235) 
2.4613704681396502

>  <r_i_glide_emodel>  (235) 
-56.531920363326897

>  <r_i_glide_energy>  (235) 
-39.673403739929199

>  <r_i_glide_erotb>  (235) 
0.72307743106600597

>  <r_i_glide_esite>  (235) 
-0.10000000000000001

>  <r_i_glide_evdw>  (235) 
-26.997829437255898

>  <r_i_glide_gscore>  (235) 
-4.92706240773032

>  <r_i_glide_hbond>  (235) 
-0.17002525376015001

>  <r_i_glide_ligand_efficiency>  (235) 
-0.14678067902213099

>  <r_i_glide_ligand_efficiency_ln>  (235) 
-1.07722767981971

>  <r_i_glide_ligand_efficiency_sa>  (235) 
-0.47080406639486

>  <r_i_glide_lipo>  (235) 
-1.4917810408449701

>  <r_i_glide_metal>  (235) 
-0

>  <r_i_glide_rewards>  (235) 
-0.63710592692741896

>  <r_lp_Energy>  (235) 
37.14584

>  <r_qp_ACxDN^.5/SA>  (235) 
0.012301400000000001

>  <r_qp_CIQPlogS>  (235) 
-5.7450000000000001

>  <r_qp_EA(eV)>  (235) 
0.91300000000000003

>  <r_qp_FISA>  (235) 
44.607999999999997

>  <r_qp_FOSA>  (235) 
352.50700000000001

>  <r_qp_IP(eV)>  (235) 
8.5340000000000007

>  <r_qp_Jm>  (235) 
0.012633887488616401

>  <r_qp_PISA>  (235) 
350.15100000000001

>  <r_qp_PSA>  (235) 
55.244

>  <r_qp_PercentHumanOralAbsorption>  (235) 
100

>  <r_qp_QPPCaco>  (235) 
932.78899999999999

>  <r_qp_QPPMDCK>  (235) 
507.65600000000001

>  <r_qp_QPlogBB>  (235) 
0.097000000000000003

>  <r_qp_QPlogHERG>  (235) 
-6.8529999999999998

>  <r_qp_QPlogKhsa>  (235) 
0.88

>  <r_qp_QPlogKp>  (235) 
-2.4990000000000001

>  <r_qp_QPlogPC16>  (235) 
14.653

>  <r_qp_QPlogPo/w>  (235) 
4.9409999999999998

>  <r_qp_QPlogPoct>  (235) 
22.988

>  <r_qp_QPlogPw>  (235) 
11.99

>  <r_qp_QPlogS>  (235) 
-5.0419999999999998

>  <r_qp_QPpolrz>  (235) 
49.689999999999998

>  <r_qp_SASA>  (235) 
747.26499999999999

>  <r_qp_SAamideO>  (235) 
0

>  <r_qp_SAfluorine>  (235) 
0

>  <r_qp_WPSA>  (235) 
0

>  <r_qp_accptHB>  (235) 
6.5

>  <r_qp_dip^2/V>  (235) 
0.019568599999999998

>  <r_qp_dipole>  (235) 
5.2789999999999999

>  <r_qp_donorHB>  (235) 
2

>  <r_qp_glob>  (235) 
0.81921169999999999

>  <r_qp_mol_MW>  (235) 
438.57100000000003

>  <r_qp_volume>  (235) 
1424.1610000000001

>  <r_sd_BIOSOLVEIT.INFINISEE\_FTREES\_SIMILARITY>  (235) 
0.91800000000000004

>  <r_sd_BIOSOLVEIT.LOGP>  (235) 
4.3605400000000003

>  <r_sd_BIOSOLVEIT.MOLECULAR\_WEIGHT>  (235) 
439.57999999999998

>  <r_sd_BIOSOLVEIT.TPSA>  (235) 
58.460000000000001

>  <i_epik_Tot_Q>  (235) 
1

>  <i_epik_Tot_abs_Q>  (235) 
1

>  <i_f3d_flags>  (235) 
0

>  <i_i_glide_confnum>  (235) 
2

>  <i_i_glide_lignum>  (235) 
903

>  <i_i_glide_posenum>  (235) 
7

>  <i_i_glide_rotatable_bonds>  (235) 
8

>  <i_lp_mmshare_version>  (235) 
65135

>  <i_m_ct_format>  (235) 
2

>  <i_m_source_file_index>  (235) 
2406

>  <i_qp_#NandO>  (235) 
5

>  <i_qp_#acid>  (235) 
0

>  <i_qp_#amide>  (235) 
0

>  <i_qp_#amidine>  (235) 
0

>  <i_qp_#amine>  (235) 
1

>  <i_qp_#in34>  (235) 
0

>  <i_qp_#in56>  (235) 
22

>  <i_qp_#metab>  (235) 
8

>  <i_qp_#nonHatm>  (235) 
33

>  <i_qp_#noncon>  (235) 
0

>  <i_qp_#ringatoms>  (235) 
22

>  <i_qp_#rotor>  (235) 
7

>  <i_qp_#rtvFG>  (235) 
0

>  <i_qp_#stars>  (235) 
0

>  <i_qp_CNS>  (235) 
1

>  <i_qp_HumanOralAbsorption>  (235) 
3

>  <i_qp_RuleOfFive>  (235) 
0

>  <i_qp_RuleOfThree>  (235) 
1

>  <i_sd_BIOSOLVEIT.INFINISEE\_RESULT\_RANK>  (235) 
21106

>  <i_sd_version>  (235) 
0

>  <b_lp_Chiralities_Consistent>  (235) 
1

>  <b_sd_chiral_flag>  (235) 
0

>  <canonical_id>  (235) 
ATP-HTVS-2598958FABEA

>  <compound_code>  (235) 
76961

>  <title>  (235) 
rxn502b____EMOL11467954____EMOL13728749____EMOL2873214

>  <variant>  (235) 
76961-1

>  <source_file>  (235) 
运行/运行/ATP-VSW/ATP-VSW-DOCK_HTVS_1-001_lib/ATP-VSW-DOCK_HTVS_1-001_lib

>  <canonical_smiles>  (235) 
Cc1ccc(C)c(C(=O)Nc2c(NCc3cccc(C[NH+](C)C)c3)cnc3ccccc23)c1

>  <scaffold>  (235) 
O=C(Nc1c(NCc2ccccc2)cnc2ccccc12)c1ccccc1

>  <molecular_formula>  (235) 
C28H31N4O+

$$$$
ATP-HTVS-25BEFE000F10
     RDKit          3D

 58 60  0  0  0  0  0  0  0  0999 V2000
  195.8759  186.5285  160.0884 Cl  0  0  0  0  0  0  0  0  0  0  0  0
  196.6697  187.9954  159.6178 C   0  0  0  0  0  0  0  0  0  0  0  0
  196.9877  188.2967  158.2659 C   0  0  0  0  0  0  0  0  0  0  0  0
  197.5399  189.5677  157.9690 C   0  0  0  0  0  0  0  0  0  0  0  0
  197.8107  190.4980  158.9899 C   0  0  0  0  0  0  0  0  0  0  0  0
  197.5324  190.1716  160.3280 C   0  0  0  0  0  0  0  0  0  0  0  0
  196.9643  188.9237  160.6348 C   0  0  0  0  0  0  0  0  0  0  0  0
  196.6931  187.3230  157.1166 C   0  0  1  0  0  0  0  0  0  0  0  0
  197.9697  186.9276  156.3401 C   0  0  0  0  0  0  0  0  0  0  0  0
  198.5445  187.8114  155.7014 O   0  0  0  0  0  0  0  0  0  0  0  0
  198.4327  185.6519  156.3456 N   0  0  0  0  0  0  0  0  0  0  0  0
  197.8610  184.6134  157.1377 C   0  0  0  0  0  0  0  0  0  0  0  0
  197.9737  184.6644  158.4834 N   0  0  0  0  0  0  0  0  0  0  0  0
  197.4276  183.6833  159.2294 C   0  0  0  0  0  0  0  0  0  0  0  0
  196.7477  182.5905  158.6727 C   0  0  0  0  0  0  0  0  0  0  0  0
  196.6339  182.5103  157.2768 C   0  0  0  0  0  0  0  0  0  0  0  0
  197.2158  183.5281  156.4756 C   0  0  0  0  0  0  0  0  0  0  0  0
  197.1526  183.4865  155.0716 N   0  0  0  0  0  0  0  0  0  0  0  0
  197.0416  182.2113  154.3760 C   0  0  1  0  0  0  0  0  0  0  0  0
  198.1229  181.1988  154.7242 C   0  0  0  0  0  0  0  0  0  0  0  0
  199.4832  181.4877  154.4792 C   0  0  0  0  0  0  0  0  0  0  0  0
  200.4760  180.5496  154.8222 C   0  0  0  0  0  0  0  0  0  0  0  0
  200.1181  179.3091  155.3982 C   0  0  0  0  0  0  0  0  0  0  0  0
  198.7547  179.0207  155.6244 C   0  0  0  0  0  0  0  0  0  0  0  0
  197.7655  179.9617  155.2975 C   0  0  0  0  0  0  0  0  0  0  0  0
  201.1924  178.3075  155.8114 C   0  0  1  0  0  0  0  0  0  0  0  0
  201.5298  178.3581  157.2595 N   0  0  1  0  0  0  0  0  0  0  0  0
  201.8754  179.7140  157.7476 C   0  0  2  0  0  0  0  0  0  0  0  0
  200.5347  177.6895  158.1252 C   0  0  2  0  0  0  0  0  0  0  0  0
  199.6242  185.3222  155.5583 C   0  0  2  0  0  0  0  0  0  0  0  0
  197.7417  189.8548  156.9478 H   0  0  0  0  0  0  0  0  0  0  0  0
  198.2323  191.4630  158.7446 H   0  0  0  0  0  0  0  0  0  0  0  0
  197.7495  190.8750  161.1228 H   0  0  0  0  0  0  0  0  0  0  0  0
  196.7484  188.6789  161.6646 H   0  0  0  0  0  0  0  0  0  0  0  0
  196.1174  186.4585  157.4417 H   0  0  0  0  0  0  0  0  0  0  0  0
  196.0400  187.8438  156.4150 H   0  0  0  0  0  0  0  0  0  0  0  0
  197.5327  183.7790  160.3012 H   0  0  0  0  0  0  0  0  0  0  0  0
  196.3242  181.8195  159.2998 H   0  0  0  0  0  0  0  0  0  0  0  0
  196.1073  181.6730  156.8399 H   0  0  0  0  0  0  0  0  0  0  0  0
  197.6100  184.2260  154.5576 H   0  0  0  0  0  0  0  0  0  0  0  0
  196.0503  181.7840  154.5509 H   0  0  0  0  0  0  0  0  0  0  0  0
  197.1031  182.3985  153.3022 H   0  0  0  0  0  0  0  0  0  0  0  0
  199.7664  182.4413  154.0623 H   0  0  0  0  0  0  0  0  0  0  0  0
  201.5154  180.7934  154.6535 H   0  0  0  0  0  0  0  0  0  0  0  0
  198.4504  178.0838  156.0723 H   0  0  0  0  0  0  0  0  0  0  0  0
  196.7328  179.7373  155.5266 H   0  0  0  0  0  0  0  0  0  0  0  0
  200.8796  177.3007  155.5282 H   0  0  0  0  0  0  0  0  0  0  0  0
  202.0981  178.5072  155.2339 H   0  0  0  0  0  0  0  0  0  0  0  0
  201.0235  180.3977  157.7088 H   0  0  0  0  0  0  0  0  0  0  0  0
  202.6885  180.1319  157.1539 H   0  0  0  0  0  0  0  0  0  0  0  0
  202.2193  179.6677  158.7795 H   0  0  0  0  0  0  0  0  0  0  0  0
  199.5655  178.1901  158.0944 H   0  0  0  0  0  0  0  0  0  0  0  0
  200.8592  177.6732  159.1673 H   0  0  0  0  0  0  0  0  0  0  0  0
  200.3864  176.6547  157.8154 H   0  0  0  0  0  0  0  0  0  0  0  0
  199.8502  184.2540  155.5974 H   0  0  0  0  0  0  0  0  0  0  0  0
  200.4882  185.8618  155.9459 H   0  0  0  0  0  0  0  0  0  0  0  0
  199.4827  185.5999  154.5124 H   0  0  0  0  0  0  0  0  0  0  0  0
  202.4079  177.8404  157.3354 H   0  0  0  0  0  0  0  0  0  0  0  0
  1  2  1  0
  2  3  1  0
  2  7  2  0
  3  4  2  0
  3  8  1  0
  4  5  1  0
  4 31  1  0
  5  6  2  0
  5 32  1  0
  6  7  1  0
  6 33  1  0
  7 34  1  0
  8  9  1  0
  8 35  1  1
  8 36  1  0
  9 10  2  0
  9 11  1  0
 11 12  1  0
 11 30  1  0
 12 13  1  0
 12 17  2  0
 13 14  2  0
 14 15  1  0
 14 37  1  0
 15 16  2  0
 15 38  1  0
 16 17  1  0
 16 39  1  0
 17 18  1  0
 18 19  1  0
 18 40  1  0
 19 20  1  0
 19 41  1  6
 19 42  1  0
 20 21  1  0
 20 25  2  0
 21 22  2  0
 21 43  1  0
 22 23  1  0
 22 44  1  0
 23 24  2  0
 23 26  1  0
 24 25  1  0
 24 45  1  0
 25 46  1  0
 26 27  1  0
 26 47  1  6
 26 48  1  0
 27 28  1  0
 27 29  1  0
 27 58  1  6
 28 49  1  1
 28 50  1  0
 28 51  1  0
 29 52  1  1
 29 53  1  0
 29 54  1  0
 30 55  1  6
 30 56  1  0
 30 57  1  0
M  CHG  1  27   1
M  END
>  <s_epik_cmdline>  (236) 
J2VwaWtfcHl0aG9uJywgJy1waCcsICc3LjAwMDAwMCcsICctcGh0JywgJzIuMDAwMDAwJywgJy1tcycsICcxNicsICctdG4nLCAnOCcsICctbWEnLCAnMjAwJywgJy1pbWFlJywgJzxpbmZpbGUubWFlPicsICctb21hZScsICc8b3V0ZmlsZS5tYWU+Jw==

>  <s_epik_input>  (236) 
W2NIXTFbY0hdW2NIXVtjSF1jKGMxQ2wpW0NIMl1DKD1PKU4oW0NIM10pYzJuW2NIXVtjSF1bY0hdYzJbTkhdW0NIMl1jM1tjSF1bY0hdYyhbY0hdW2NIXTMpW0NIMl1OKFtDSDNdKVtDSDNd

>  <s_i_glide_gridfile>  (236) 
ATP-Grid

>  <s_lp_Force_Field>  (236) 
OPLS_2005

>  <s_lp_Variant>  (236) 
rxn502a____EMOL486955____EMOL45980405____EMOL50155899-1

>  <s_lp_label>  (236) 
2991_sdstereoexpander_1_neutralizer_1_epik_1_stereoizer_1

>  <s_m_source_file>  (236) 
ATP-VSW-LIGPREP-002-in.maegz

>  <s_sd_BIOSOLVEIT.INFINISEE\_QUERY\_NAME>  (236) 
Ref-Lig

>  <s_sd_BIOSOLVEIT.INFINISEE\_QUERY\_SMILES>  (236) 
S(c1nc2c(cc1C[NH2+]Cc3ccc(cc3)C[NH+](C)C)cccc2)Cc4ccccc4

>  <s_sd_BIOSOLVEIT.INFINISEE\_REACTION\_NAME>  (236) 
rxn502a

>  <s_sd_BIOSOLVEIT.INFINISEE\_REAGENT1\_NAME>  (236) 
EMOL486955

>  <s_sd_BIOSOLVEIT.INFINISEE\_REAGENT1\_SMILES>  (236) 
Clc1c(cccc1)CC(=O)O

>  <s_sd_BIOSOLVEIT.INFINISEE\_REAGENT2\_NAME>  (236) 
EMOL45980405

>  <s_sd_BIOSOLVEIT.INFINISEE\_REAGENT2\_SMILES>  (236) 
Ic1c(nccc1)NC

>  <s_sd_BIOSOLVEIT.INFINISEE\_REAGENT3\_NAME>  (236) 
EMOL50155899

>  <s_sd_BIOSOLVEIT.INFINISEE\_REAGENT3\_SMILES>  (236) 
N(Cc1ccc(cc1)CN)(C)C

>  <s_sd_BIOSOLVEIT.INFINISEE\_SPACE>  (236) 
eXplore_7tr_2022-12

>  <s_vsw_compound_code>  (236) 
95682

>  <s_vsw_variant>  (236) 
95682-1

>  <r_epik_Charging_Adjusted_Penalty>  (236) 
0.090361423425046397

>  <r_epik_Ionization_Penalty>  (236) 
0.051200000000000002

>  <r_epik_Ionization_Penalty_Charging>  (236) 
0.039199999999999999

>  <r_epik_Ionization_Penalty_Neutral>  (236) 
0.012

>  <r_epik_State_Penalty>  (236) 
0.051200000000000002

>  <r_i_docking_score>  (236) 
-4.2254425115365102

>  <r_i_glide_ecoul>  (236) 
-8.93805027008057

>  <r_i_glide_eff_state_penalty>  (236) 
0.051200000000000002

>  <r_i_glide_einternal>  (236) 
2.6156318187713601

>  <r_i_glide_emodel>  (236) 
-58.122273301915001

>  <r_i_glide_energy>  (236) 
-44.170231819152797

>  <r_i_glide_erotb>  (236) 
0.77204884370101701

>  <r_i_glide_esite>  (236) 
-0.025921859637801799

>  <r_i_glide_evdw>  (236) 
-35.232181549072301

>  <r_i_glide_gscore>  (236) 
-4.2766425115365099

>  <r_i_glide_hbond>  (236) 
0

>  <r_i_glide_ligand_efficiency>  (236) 
-0.14084808371788399

>  <r_i_glide_ligand_efficiency_ln>  (236) 
-0.96006657850476396

>  <r_i_glide_ligand_efficiency_sa>  (236) 
-0.43764774363334302

>  <r_i_glide_lipo>  (236) 
-1.06867872467423

>  <r_i_glide_metal>  (236) 
-0

>  <r_i_glide_rewards>  (236) 
-0.85177415295979797

>  <r_lp_Energy>  (236) 
32.899472000000003

>  <r_lp_tautomer_probability>  (236) 
0.999999999999999

>  <r_qp_ACxDN^.5/SA>  (236) 
0.0094541999999999994

>  <r_qp_CIQPlogS>  (236) 
-5.0389999999999997

>  <r_qp_EA(eV)>  (236) 
0.45000000000000001

>  <r_qp_FISA>  (236) 
45.363

>  <r_qp_FOSA>  (236) 
305.50400000000002

>  <r_qp_IP(eV)>  (236) 
8.8439999999999994

>  <r_qp_Jm>  (236) 
0.020768649940660699

>  <r_qp_PISA>  (236) 
335.41000000000003

>  <r_qp_PSA>  (236) 
52.752000000000002

>  <r_qp_PercentHumanOralAbsorption>  (236) 
100

>  <r_qp_QPPCaco>  (236) 
917.52700000000004

>  <r_qp_QPPMDCK>  (236) 
987.16200000000003

>  <r_qp_QPlogBB>  (236) 
0.14199999999999999

>  <r_qp_QPlogHERG>  (236) 
-7.0679999999999996

>  <r_qp_QPlogKhsa>  (236) 
0.57799999999999996

>  <r_qp_QPlogKp>  (236) 
-2.4689999999999999

>  <r_qp_QPlogPC16>  (236) 
14.180999999999999

>  <r_qp_QPlogPo/w>  (236) 
4.633

>  <r_qp_QPlogPoct>  (236) 
21.059000000000001

>  <r_qp_QPlogPw>  (236) 
10.705

>  <r_qp_QPlogS>  (236) 
-4.8399999999999999

>  <r_qp_QPpolrz>  (236) 
46.32

>  <r_qp_SASA>  (236) 
740.41399999999999

>  <r_qp_SAamideO>  (236) 
0

>  <r_qp_SAfluorine>  (236) 
0

>  <r_qp_WPSA>  (236) 
54.137

>  <r_qp_accptHB>  (236) 
7

>  <r_qp_dip^2/V>  (236) 
0.043268399999999999

>  <r_qp_dipole>  (236) 
7.6699999999999999

>  <r_qp_donorHB>  (236) 
1

>  <r_qp_glob>  (236) 
0.80158160000000001

>  <r_qp_mol_MW>  (236) 
422.95600000000002

>  <r_qp_volume>  (236) 
1359.521

>  <r_sd_BIOSOLVEIT.INFINISEE\_FTREES\_SIMILARITY>  (236) 
0.90300000000000002

>  <r_sd_BIOSOLVEIT.LOGP>  (236) 
3.1970999999999998

>  <r_sd_BIOSOLVEIT.MOLECULAR\_WEIGHT>  (236) 
423.96499999999997

>  <r_sd_BIOSOLVEIT.TPSA>  (236) 
49.670000000000002

>  <i_epik_Tot_Q>  (236) 
1

>  <i_epik_Tot_abs_Q>  (236) 
1

>  <i_f3d_flags>  (236) 
0

>  <i_i_glide_confnum>  (236) 
8

>  <i_i_glide_lignum>  (236) 
51

>  <i_i_glide_posenum>  (236) 
11

>  <i_i_glide_rotatable_bonds>  (236) 
9

>  <i_lp_mmshare_version>  (236) 
65135

>  <i_m_ct_format>  (236) 
2

>  <i_m_source_file_index>  (236) 
2991

>  <i_qp_#NandO>  (236) 
5

>  <i_qp_#acid>  (236) 
0

>  <i_qp_#amide>  (236) 
0

>  <i_qp_#amidine>  (236) 
0

>  <i_qp_#amine>  (236) 
1

>  <i_qp_#in34>  (236) 
0

>  <i_qp_#in56>  (236) 
18

>  <i_qp_#metab>  (236) 
9

>  <i_qp_#nonHatm>  (236) 
30

>  <i_qp_#noncon>  (236) 
0

>  <i_qp_#ringatoms>  (236) 
18

>  <i_qp_#rotor>  (236) 
8

>  <i_qp_#rtvFG>  (236) 
0

>  <i_qp_#stars>  (236) 
1

>  <i_qp_CNS>  (236) 
1

>  <i_qp_HumanOralAbsorption>  (236) 
3

>  <i_qp_RuleOfFive>  (236) 
0

>  <i_qp_RuleOfThree>  (236) 
1

>  <i_sd_BIOSOLVEIT.INFINISEE\_RESULT\_RANK>  (236) 
84892

>  <i_sd_version>  (236) 
0

>  <b_lp_Chiralities_Consistent>  (236) 
1

>  <b_sd_chiral_flag>  (236) 
0

>  <canonical_id>  (236) 
ATP-HTVS-25BEFE000F10

>  <compound_code>  (236) 
95682

>  <title>  (236) 
rxn502a____EMOL486955____EMOL45980405____EMOL50155899

>  <variant>  (236) 
95682-1

>  <source_file>  (236) 
运行/运行/ATP-VSW/ATP-VSW-DOCK_HTVS_1-003_lib/ATP-VSW-DOCK_HTVS_1-003_lib.mae

>  <canonical_smiles>  (236) 
CN(C(=O)Cc1ccccc1Cl)c1ncccc1NCc1ccc(C[NH+](C)C)cc1

>  <scaffold>  (236) 
O=C(Cc1ccccc1)Nc1ncccc1NCc1ccccc1

>  <molecular_formula>  (236) 
C24H28ClN4O+

$$$$
ATP-HTVS-26104959C4F1
     RDKit          3D

 58 61  0  0  0  0  0  0  0  0999 V2000
  198.8896  185.7616  159.1671 Br  0  0  0  0  0  0  0  0  0  0  0  0
  197.0772  185.9960  158.3660 C   0  0  2  0  0  0  0  0  0  0  0  0
  196.3460  184.6638  158.4575 C   0  0  0  0  0  0  0  0  0  0  0  0
  195.0202  184.6335  158.9414 C   0  0  0  0  0  0  0  0  0  0  0  0
  194.3047  183.4222  158.9732 C   0  0  0  0  0  0  0  0  0  0  0  0
  194.9409  182.2262  158.5893 C   0  0  0  0  0  0  0  0  0  0  0  0
  196.2852  182.2371  158.1808 C   0  0  0  0  0  0  0  0  0  0  0  0
  196.9747  183.4576  158.0706 C   0  0  0  0  0  0  0  0  0  0  0  0
  197.1451  186.5049  156.9232 C   0  0  0  0  0  0  0  0  0  0  0  0
  196.4212  187.4350  156.5749 O   0  0  0  0  0  0  0  0  0  0  0  0
  198.0145  185.8850  156.1086 N   0  0  0  0  0  0  0  0  0  0  0  0
  198.3402  186.2954  154.7891 C   0  0  0  0  0  0  0  0  0  0  0  0
  198.0035  185.4572  153.7002 C   0  0  0  0  0  0  0  0  0  0  0  0
  197.2991  184.2562  153.8736 N   0  0  0  0  0  0  0  0  0  0  0  0
  197.8350  183.0735  154.4026 C   0  0  0  0  0  0  0  0  0  0  0  0
  196.9437  182.0697  154.8344 C   0  0  0  0  0  0  0  0  0  0  0  0
  197.4299  180.9011  155.4499 C   0  0  0  0  0  0  0  0  0  0  0  0
  198.8094  180.7608  155.6773 C   0  0  0  0  0  0  0  0  0  0  0  0
  199.7130  181.7326  155.1979 C   0  0  0  0  0  0  0  0  0  0  0  0
  199.2245  182.8850  154.5564 C   0  0  0  0  0  0  0  0  0  0  0  0
  199.3067  179.5906  156.4876 C   0  0  1  0  0  0  0  0  0  0  0  0
  199.2246  178.2686  155.7101 C   0  0  1  0  0  0  0  0  0  0  0  0
  199.5534  177.1102  156.5625 N   0  0  1  0  0  0  0  0  0  0  0  0
  200.9346  177.0805  157.0948 C   0  0  2  0  0  0  0  0  0  0  0  0
  198.3461  185.8824  152.4061 C   0  0  0  0  0  0  0  0  0  0  0  0
  198.9925  187.0342  152.1499 N   0  0  0  0  0  0  0  0  0  0  0  0
  199.3342  187.8432  153.1809 C   0  0  0  0  0  0  0  0  0  0  0  0
  199.0439  187.5025  154.5371 C   0  0  0  0  0  0  0  0  0  0  0  0
  199.4447  188.3730  155.5807 C   0  0  0  0  0  0  0  0  0  0  0  0
  200.0888  189.5890  155.2912 C   0  0  0  0  0  0  0  0  0  0  0  0
  200.3673  189.9315  153.9586 C   0  0  0  0  0  0  0  0  0  0  0  0
  199.9932  189.0603  152.9187 C   0  0  0  0  0  0  0  0  0  0  0  0
  198.8677  177.1483  157.3129 H   0  0  0  0  0  0  0  0  0  0  0  0
  196.5573  186.7454  158.9661 H   0  0  0  0  0  0  0  0  0  0  0  0
  194.5319  185.5417  159.2723 H   0  0  0  0  0  0  0  0  0  0  0  0
  193.2773  183.4116  159.3031 H   0  0  0  0  0  0  0  0  0  0  0  0
  194.4155  181.2836  158.5952 H   0  0  0  0  0  0  0  0  0  0  0  0
  196.7679  181.3005  157.9381 H   0  0  0  0  0  0  0  0  0  0  0  0
  197.9778  183.4547  157.6720 H   0  0  0  0  0  0  0  0  0  0  0  0
  198.4375  185.0255  156.4173 H   0  0  0  0  0  0  0  0  0  0  0  0
  196.2904  184.3350  153.9397 H   0  0  0  0  0  0  0  0  0  0  0  0
  195.8751  182.2063  154.7444 H   0  0  0  0  0  0  0  0  0  0  0  0
  196.7356  180.1600  155.8125 H   0  0  0  0  0  0  0  0  0  0  0  0
  200.7776  181.6262  155.3674 H   0  0  0  0  0  0  0  0  0  0  0  0
  199.9206  183.6377  154.2154 H   0  0  0  0  0  0  0  0  0  0  0  0
  200.3253  179.8116  156.7911 H   0  0  0  0  0  0  0  0  0  0  0  0
  198.7274  179.5308  157.4037 H   0  0  0  0  0  0  0  0  0  0  0  0
  198.2007  178.1135  155.3634 H   0  0  0  0  0  0  0  0  0  0  0  0
  199.8663  178.2995  154.8286 H   0  0  0  0  0  0  0  0  0  0  0  0
  201.1123  176.1736  157.6789 H   0  0  0  0  0  0  0  0  0  0  0  0
  201.1428  177.9235  157.7570 H   0  0  0  0  0  0  0  0  0  0  0  0
  201.6698  177.1001  156.2866 H   0  0  0  0  0  0  0  0  0  0  0  0
  198.0928  185.2785  151.5454 H   0  0  0  0  0  0  0  0  0  0  0  0
  199.2605  188.1446  156.6176 H   0  0  0  0  0  0  0  0  0  0  0  0
  200.3575  190.2489  156.1016 H   0  0  0  0  0  0  0  0  0  0  0  0
  200.8646  190.8673  153.7420 H   0  0  0  0  0  0  0  0  0  0  0  0
  200.2126  189.3253  151.8951 H   0  0  0  0  0  0  0  0  0  0  0  0
  199.3951  176.2702  156.0214 H   0  0  0  0  0  0  0  0  0  0  0  0
  1  2  1  0
  2  3  1  0
  2  9  1  0
  2 34  1  1
  3  4  2  0
  3  8  1  0
  4  5  1  0
  4 35  1  0
  5  6  2  0
  5 36  1  0
  6  7  1  0
  6 37  1  0
  7  8  2  0
  7 38  1  0
  8 39  1  0
  9 10  2  0
  9 11  1  0
 11 12  1  0
 11 40  1  0
 12 13  2  0
 12 28  1  0
 13 14  1  0
 13 25  1  0
 14 15  1  0
 14 41  1  0
 15 16  1  0
 15 20  2  0
 16 17  2  0
 16 42  1  0
 17 18  1  0
 17 43  1  0
 18 19  2  0
 18 21  1  0
 19 20  1  0
 19 44  1  0
 20 45  1  0
 21 22  1  0
 21 46  1  1
 21 47  1  0
 22 23  1  0
 22 48  1  6
 22 49  1  0
 23 24  1  0
 23 33  1  1
 23 58  1  0
 24 50  1  1
 24 51  1  0
 24 52  1  0
 25 26  2  0
 25 53  1  0
 26 27  1  0
 27 28  1  0
 27 32  2  0
 28 29  2  0
 29 30  1  0
 29 54  1  0
 30 31  2  0
 30 55  1  0
 31 32  1  0
 31 56  1  0
 32 57  1  0
M  CHG  1  23   1
M  END
>  <s_epik_cmdline>  (237) 
J2VwaWtfcHl0aG9uJywgJy1waCcsICc3LjAwMDAwMCcsICctcGh0JywgJzIuMDAwMDAwJywgJy1tcycsICcxNicsICctdG4nLCAnOCcsICctbWEnLCAnMjAwJywgJy1pbWFlJywgJzxpbmZpbGUubWFlPicsICctb21hZScsICc8b3V0ZmlsZS5tYWU+Jw==

>  <s_epik_input>  (237) 
W2NIXTFbY0hdW2NIXVtjSF1bY0hdYzFbQ0BASF0oQnIpQyg9TylbTkhdYyhjKGMyMylbY0hdW2NIXVtjSF1bY0hdMyljKFtjSF1uMilbTkhdYzRbY0hdW2NIXWMoW2NIXVtjSF00KVtDSDJdW0NIMl1bTkhdW0NIM10=

>  <s_i_glide_gridfile>  (237) 
ATP-Grid

>  <s_lp_Force_Field>  (237) 
OPLS_2005

>  <s_lp_Variant>  (237) 
rxn502b____EMOL535380____EMOL13728749____EMOL38100949-1

>  <s_lp_label>  (237) 
2492_sdstereoexpander_1_neutralizer_1_epik_1_stereoizer_1

>  <s_m_source_file>  (237) 
ATP-VSW-LIGPREP-001-in.maegz

>  <s_sd_BIOSOLVEIT.INFINISEE\_QUERY\_NAME>  (237) 
Ref-Lig

>  <s_sd_BIOSOLVEIT.INFINISEE\_QUERY\_SMILES>  (237) 
S(c1nc2c(cc1C[NH2+]Cc3ccc(cc3)C[NH+](C)C)cccc2)Cc4ccccc4

>  <s_sd_BIOSOLVEIT.INFINISEE\_REACTION\_NAME>  (237) 
rxn502b

>  <s_sd_BIOSOLVEIT.INFINISEE\_REAGENT1\_NAME>  (237) 
EMOL535380

>  <s_sd_BIOSOLVEIT.INFINISEE\_REAGENT1\_SMILES>  (237) 
BrC(c1ccccc1)C(=O)O

>  <s_sd_BIOSOLVEIT.INFINISEE\_REAGENT2\_NAME>  (237) 
EMOL13728749

>  <s_sd_BIOSOLVEIT.INFINISEE\_REAGENT2\_SMILES>  (237) 
Brc1c(N)c2c(nc1)cccc2

>  <s_sd_BIOSOLVEIT.INFINISEE\_REAGENT3\_NAME>  (237) 
EMOL38100949

>  <s_sd_BIOSOLVEIT.INFINISEE\_REAGENT3\_SMILES>  (237) 
N(CCc1ccc(N)cc1)C

>  <s_sd_BIOSOLVEIT.INFINISEE\_SPACE>  (237) 
eXplore_7tr_2022-12

>  <s_vsw_compound_code>  (237) 
79713

>  <s_vsw_variant>  (237) 
79713-1

>  <r_epik_Charging_Adjusted_Penalty>  (237) 
0.00054309882096701203

>  <r_epik_Ionization_Penalty>  (237) 
0.0030000000000000001

>  <r_epik_Ionization_Penalty_Charging>  (237) 
0.00050000000000000001

>  <r_epik_Ionization_Penalty_Neutral>  (237) 
0.0025000000000000001

>  <r_epik_State_Penalty>  (237) 
-0

>  <r_i_docking_score>  (237) 
-4.7461342024831596

>  <r_i_glide_ecoul>  (237) 
-10.732998847961399

>  <r_i_glide_eff_state_penalty>  (237) 
-0

>  <r_i_glide_einternal>  (237) 
6.2122659683227504

>  <r_i_glide_emodel>  (237) 
-64.721168930105605

>  <r_i_glide_energy>  (237) 
-48.530220985412598

>  <r_i_glide_erotb>  (237) 
0.59230207757884901

>  <r_i_glide_esite>  (237) 
-0.12811617948003101

>  <r_i_glide_evdw>  (237) 
-37.7972221374512

>  <r_i_glide_gscore>  (237) 
-4.7461342024831596

>  <r_i_glide_hbond>  (237) 
-0.30380611462309698

>  <r_i_glide_ligand_efficiency>  (237) 
-0.14831669382759899

>  <r_i_glide_ligand_efficiency_ln>  (237) 
-1.0627888226680999

>  <r_i_glide_ligand_efficiency_sa>  (237) 
-0.47087615106877401

>  <r_i_glide_lipo>  (237) 
-1.14254351354855

>  <r_i_glide_metal>  (237) 
-0

>  <r_i_glide_rewards>  (237) 
-0.26415953834356098

>  <r_lp_Energy>  (237) 
37.728760000000001

>  <r_lp_tautomer_probability>  (237) 
1

>  <r_qp_ACxDN^.5/SA>  (237) 
0.013852

>  <r_qp_CIQPlogS>  (237) 
-7.0449999999999999

>  <r_qp_EA(eV)>  (237) 
1.2470000000000001

>  <r_qp_FISA>  (237) 
57.140999999999998

>  <r_qp_FOSA>  (237) 
159.03100000000001

>  <r_qp_IP(eV)>  (237) 
8.0999999999999996

>  <r_qp_Jm>  (237) 
0.11144662184444

>  <r_qp_PISA>  (237) 
419.65699999999998

>  <r_qp_PSA>  (237) 
64.951999999999998

>  <r_qp_PercentHumanOralAbsorption>  (237) 
100

>  <r_qp_QPPCaco>  (237) 
709.45899999999995

>  <r_qp_QPPMDCK>  (237) 
726.68799999999999

>  <r_qp_QPlogBB>  (237) 
0.076999999999999999

>  <r_qp_QPlogHERG>  (237) 
-6.7249999999999996

>  <r_qp_QPlogKhsa>  (237) 
0.69499999999999995

>  <r_qp_QPlogKp>  (237) 
-2.3889999999999998

>  <r_qp_QPlogPC16>  (237) 
14.882

>  <r_qp_QPlogPo/w>  (237) 
4.7320000000000002

>  <r_qp_QPlogPoct>  (237) 
23.146999999999998

>  <r_qp_QPlogPw>  (237) 
12.682

>  <r_qp_QPlogS>  (237) 
-4.2539999999999996

>  <r_qp_QPpolrz>  (237) 
45.676000000000002

>  <r_qp_SASA>  (237) 
687.71900000000005

>  <r_qp_SAamideO>  (237) 
0

>  <r_qp_SAfluorine>  (237) 
0

>  <r_qp_WPSA>  (237) 
51.889000000000003

>  <r_qp_accptHB>  (237) 
5.5

>  <r_qp_dip^2/V>  (237) 
0.032164400000000003

>  <r_qp_dipole>  (237) 
6.524

>  <r_qp_donorHB>  (237) 
3

>  <r_qp_glob>  (237) 
0.84760930000000001

>  <r_qp_mol_MW>  (237) 
489.41399999999999

>  <r_qp_volume>  (237) 
1323.3119999999999

>  <r_sd_BIOSOLVEIT.INFINISEE\_FTREES\_SIMILARITY>  (237) 
0.91500000000000004

>  <r_sd_BIOSOLVEIT.LOGP>  (237) 
4.7888000000000002

>  <r_sd_BIOSOLVEIT.MOLECULAR\_WEIGHT>  (237) 
490.42200000000003

>  <r_sd_BIOSOLVEIT.TPSA>  (237) 
70.629999999999995

>  <i_epik_Tot_Q>  (237) 
1

>  <i_epik_Tot_abs_Q>  (237) 
1

>  <i_f3d_flags>  (237) 
0

>  <i_i_glide_confnum>  (237) 
1

>  <i_i_glide_lignum>  (237) 
977

>  <i_i_glide_posenum>  (237) 
1

>  <i_i_glide_rotatable_bonds>  (237) 
9

>  <i_lp_mmshare_version>  (237) 
65135

>  <i_m_ct_format>  (237) 
2

>  <i_m_source_file_index>  (237) 
2492

>  <i_qp_#NandO>  (237) 
5

>  <i_qp_#acid>  (237) 
0

>  <i_qp_#amide>  (237) 
0

>  <i_qp_#amidine>  (237) 
0

>  <i_qp_#amine>  (237) 
1

>  <i_qp_#in34>  (237) 
0

>  <i_qp_#in56>  (237) 
22

>  <i_qp_#metab>  (237) 
6

>  <i_qp_#nonHatm>  (237) 
32

>  <i_qp_#noncon>  (237) 
0

>  <i_qp_#ringatoms>  (237) 
22

>  <i_qp_#rotor>  (237) 
8

>  <i_qp_#rtvFG>  (237) 
1

>  <i_qp_#stars>  (237) 
0

>  <i_qp_CNS>  (237) 
1

>  <i_qp_HumanOralAbsorption>  (237) 
3

>  <i_qp_RuleOfFive>  (237) 
0

>  <i_qp_RuleOfThree>  (237) 
0

>  <i_sd_BIOSOLVEIT.INFINISEE\_RESULT\_RANK>  (237) 
29684

>  <i_sd_version>  (237) 
0

>  <b_lp_Chiralities_Consistent>  (237) 
1

>  <b_sd_chiral_flag>  (237) 
0

>  <canonical_id>  (237) 
ATP-HTVS-26104959C4F1

>  <compound_code>  (237) 
79713

>  <title>  (237) 
rxn502b____EMOL535380____EMOL13728749____EMOL38100949

>  <variant>  (237) 
79713-1

>  <source_file>  (237) 
运行/运行/ATP-VSW/ATP-VSW-DOCK_HTVS_1-001_lib/ATP-VSW-DOCK_HTVS_1-001_lib

>  <canonical_smiles>  (237) 
C[NH2+]CCc1ccc(Nc2cnc3ccccc3c2NC(=O)[C@H](Br)c2ccccc2)cc1

>  <scaffold>  (237) 
O=C(Cc1ccccc1)Nc1c(Nc2ccccc2)cnc2ccccc12

>  <molecular_formula>  (237) 
C26H26BrN4O+

$$$$
ATP-HTVS-2641D0EED03A
     RDKit          3D

 45 48  0  0  0  0  0  0  0  0999 V2000
  200.1969  182.7924  157.2982 O   0  0  0  0  0  0  0  0  0  0  0  0
  199.0406  182.5109  156.9714 C   0  0  0  0  0  0  0  0  0  0  0  0
  198.7223  181.7893  155.8645 N   0  0  0  0  0  0  0  0  0  0  0  0
  197.3217  181.3829  155.5445 C   0  0  1  0  0  0  0  0  0  0  0  0
  196.3636  182.3490  156.0697 N   0  0  0  0  0  0  0  0  0  0  0  0
  196.5780  182.8479  157.3507 C   0  0  0  0  0  0  0  0  0  0  0  0
  197.8943  182.9347  157.8457 C   0  0  0  0  0  0  0  0  0  0  0  0
  198.1088  183.4437  159.1473 C   0  0  0  0  0  0  0  0  0  0  0  0
  197.0143  183.8523  159.9346 C   0  0  0  0  0  0  0  0  0  0  0  0
  195.7041  183.7726  159.4298 C   0  0  0  0  0  0  0  0  0  0  0  0
  195.4870  183.2692  158.1350 C   0  0  0  0  0  0  0  0  0  0  0  0
  197.0528  181.1406  154.0580 C   0  0  0  0  0  0  0  0  0  0  0  0
  196.7505  182.2103  153.1835 C   0  0  0  0  0  0  0  0  0  0  0  0
  196.5238  181.9727  151.8135 C   0  0  0  0  0  0  0  0  0  0  0  0
  196.6031  180.6636  151.3022 C   0  0  0  0  0  0  0  0  0  0  0  0
  196.9097  179.5938  152.1652 C   0  0  0  0  0  0  0  0  0  0  0  0
  197.1367  179.8353  153.5353 C   0  0  0  0  0  0  0  0  0  0  0  0
  199.8096  181.2115  155.0459 C   0  0  1  0  0  0  0  0  0  0  0  0
  200.2696  179.8107  155.4519 C   0  0  0  0  0  0  0  0  0  0  0  0
  201.1010  179.0941  154.5664 C   0  0  0  0  0  0  0  0  0  0  0  0
  201.5491  177.7991  154.8929 C   0  0  0  0  0  0  0  0  0  0  0  0
  201.1724  177.2037  156.1129 C   0  0  0  0  0  0  0  0  0  0  0  0
  200.3497  177.9139  157.0057 C   0  0  0  0  0  0  0  0  0  0  0  0
  199.8981  179.2070  156.6763 C   0  0  0  0  0  0  0  0  0  0  0  0
  201.6602  175.8126  156.4554 C   0  0  2  0  0  0  0  0  0  0  0  0
  197.1326  180.4444  156.0734 H   0  0  0  0  0  0  0  0  0  0  0  0
  195.3801  182.2542  155.7795 H   0  0  0  0  0  0  0  0  0  0  0  0
  199.1104  183.5113  159.5469 H   0  0  0  0  0  0  0  0  0  0  0  0
  197.1657  184.2277  160.9323 H   0  0  0  0  0  0  0  0  0  0  0  0
  194.8691  184.0898  160.0347 H   0  0  0  0  0  0  0  0  0  0  0  0
  194.4816  183.2051  157.7419 H   0  0  0  0  0  0  0  0  0  0  0  0
  196.6848  183.2208  153.5621 H   0  0  0  0  0  0  0  0  0  0  0  0
  196.2885  182.7986  151.1585 H   0  0  0  0  0  0  0  0  0  0  0  0
  196.4312  180.4808  150.2518 H   0  0  0  0  0  0  0  0  0  0  0  0
  196.9837  178.5895  151.7763 H   0  0  0  0  0  0  0  0  0  0  0  0
  197.3878  179.0163  154.1929 H   0  0  0  0  0  0  0  0  0  0  0  0
  199.5447  181.1844  153.9915 H   0  0  0  0  0  0  0  0  0  0  0  0
  200.6841  181.8621  155.0550 H   0  0  0  0  0  0  0  0  0  0  0  0
  201.3976  179.5397  153.6277 H   0  0  0  0  0  0  0  0  0  0  0  0
  202.1880  177.2665  154.2054 H   0  0  0  0  0  0  0  0  0  0  0  0
  200.0403  177.4728  157.9437 H   0  0  0  0  0  0  0  0  0  0  0  0
  199.2531  179.7119  157.3789 H   0  0  0  0  0  0  0  0  0  0  0  0
  201.2971  175.4910  157.4305 H   0  0  0  0  0  0  0  0  0  0  0  0
  202.7491  175.7927  156.4778 H   0  0  0  0  0  0  0  0  0  0  0  0
  201.3159  175.0956  155.7099 H   0  0  0  0  0  0  0  0  0  0  0  0
  1  2  2  0
  2  3  1  0
  2  7  1  0
  3  4  1  0
  3 18  1  0
  4  5  1  0
  4 12  1  0
  4 26  1  1
  5  6  1  0
  5 27  1  0
  6  7  1  0
  6 11  2  0
  7  8  2  0
  8  9  1  0
  8 28  1  0
  9 10  2  0
  9 29  1  0
 10 11  1  0
 10 30  1  0
 11 31  1  0
 12 13  2  0
 12 17  1  0
 13 14  1  0
 13 32  1  0
 14 15  2  0
 14 33  1  0
 15 16  1  0
 15 34  1  0
 16 17  2  0
 16 35  1  0
 17 36  1  0
 18 19  1  0
 18 37  1  6
 18 38  1  0
 19 20  1  0
 19 24  2  0
 20 21  2  0
 20 39  1  0
 21 22  1  0
 21 40  1  0
 22 23  2  0
 22 25  1  0
 23 24  1  0
 23 41  1  0
 24 42  1  0
 25 43  1  1
 25 44  1  0
 25 45  1  0
M  END
>  <s_epik_Chemistry_Notes>  (238) 
This compound contains an acetal/aminal-like group ( X-CH(R)-Y where X, Y are N, S, or O) that may be acid/base labile, releasing an aldehyde.

>  <s_epik_cmdline>  (238) 
J2VwaWtfcHl0aG9uJywgJy1waCcsICc3LjAwMDAwMCcsICctcGh0JywgJzIuMDAwMDAwJywgJy1tcycsICcxNicsICctdG4nLCAnOCcsICctbWEnLCAnMjAwJywgJy1pbWFlJywgJzxpbmZpbGUubWFlPicsICctb21hZScsICc8b3V0ZmlsZS5tYWU+Jw==

>  <s_epik_input>  (238) 
W2NIXTFbY0hdYyhbQ0gzXSlbY0hdW2NIXWMxW0NIMl1OKEMoPU8pYyhjMjMpW2NIXVtjSF1bY0hdW2NIXTMpW0NAQEhdKFtOSF0yKWM0W2NIXVtjSF1bY0hdW2NIXVtjSF00

>  <s_i_glide_gridfile>  (238) 
ATP-Grid

>  <s_lp_Force_Field>  (238) 
OPLS_2005

>  <s_lp_Variant>  (238) 
m_66bab____89515____10542024-1

>  <s_lp_label>  (238) 
1935_sdstereoexpander_1_neutralizer_1_epik_1_stereoizer_1

>  <s_m_source_file>  (238) 
ATP-VSW-LIGPREP-001-in.maegz

>  <s_sd_BIOSOLVEIT.INFINISEE\_QUERY\_NAME>  (238) 
Ref-Lig

>  <s_sd_BIOSOLVEIT.INFINISEE\_QUERY\_SMILES>  (238) 
S(c1nc2c(cc1C[NH2+]Cc3ccc(cc3)C[NH+](C)C)cccc2)Cc4ccccc4

>  <s_sd_BIOSOLVEIT.INFINISEE\_REACTION\_NAME>  (238) 
m_66bab

>  <s_sd_BIOSOLVEIT.INFINISEE\_REAGENT1\_SMILES>  (238) 
[R1*]N(C(=O)c1c(N[R2*])cccc1)Cc2ccc(cc2)C

>  <s_sd_BIOSOLVEIT.INFINISEE\_REAGENT2\_SMILES>  (238) 
[R1*]C1([R2*])CCN(c2ccccc2)CC1

>  <s_sd_BIOSOLVEIT.INFINISEE\_SPACE>  (238) 
REALSpace_44bn_2023-08

>  <s_vsw_compound_code>  (238) 
61889

>  <s_vsw_variant>  (238) 
61889-1

>  <r_epik_Charging_Adjusted_Penalty>  (238) 
0

>  <r_epik_Ionization_Penalty>  (238) 
0

>  <r_epik_Ionization_Penalty_Charging>  (238) 
0

>  <r_epik_Ionization_Penalty_Neutral>  (238) 
0

>  <r_epik_State_Penalty>  (238) 
-0

>  <r_i_docking_score>  (238) 
-3.9484306841077701

>  <r_i_glide_ecoul>  (238) 
-2.0596158504486102

>  <r_i_glide_eff_state_penalty>  (238) 
-0

>  <r_i_glide_einternal>  (238) 
0.99765080213546797

>  <r_i_glide_emodel>  (238) 
-40.308002033451302

>  <r_i_glide_energy>  (238) 
-32.202920675277703

>  <r_i_glide_erotb>  (238) 
0.52241829220400804

>  <r_i_glide_esite>  (238) 
-0.152447011000616

>  <r_i_glide_evdw>  (238) 
-30.143304824829102

>  <r_i_glide_gscore>  (238) 
-3.9484306841077701

>  <r_i_glide_hbond>  (238) 
-0.16

>  <r_i_glide_ligand_efficiency>  (238) 
-0.15793722736431101

>  <r_i_glide_ligand_efficiency_ln>  (238) 
-0.93589639705290895

>  <r_i_glide_ligand_efficiency_sa>  (238) 
-0.46181125384189903

>  <r_i_glide_lipo>  (238) 
-1.17234207377514

>  <r_i_glide_metal>  (238) 
-0

>  <r_i_glide_rewards>  (238) 
-1.16995227272727

>  <r_lp_Energy>  (238) 
29.008119000000001

>  <r_lp_tautomer_probability>  (238) 
1

>  <r_qp_ACxDN^.5/SA>  (238) 
0.0066001999999999996

>  <r_qp_CIQPlogS>  (238) 
-5.5389999999999997

>  <r_qp_EA(eV)>  (238) 
0.26500000000000001

>  <r_qp_FISA>  (238) 
43.670000000000002

>  <r_qp_FOSA>  (238) 
125.28

>  <r_qp_IP(eV)>  (238) 
8.5670000000000002

>  <r_qp_Jm>  (238) 
0.242133534517951

>  <r_qp_PISA>  (238) 
437.08800000000002

>  <r_qp_PSA>  (238) 
38.569000000000003

>  <r_qp_PercentHumanOralAbsorption>  (238) 
100

>  <r_qp_QPPCaco>  (238) 
3817.5070000000001

>  <r_qp_QPPMDCK>  (238) 
2104.6759999999999

>  <r_qp_QPlogBB>  (238) 
0.034000000000000002

>  <r_qp_QPlogHERG>  (238) 
-6.149

>  <r_qp_QPlogKhsa>  (238) 
0.71999999999999997

>  <r_qp_QPlogKp>  (238) 
-0.59299999999999997

>  <r_qp_QPlogPC16>  (238) 
11.933

>  <r_qp_QPlogPo/w>  (238) 
4.6399999999999997

>  <r_qp_QPlogPoct>  (238) 
17.411000000000001

>  <r_qp_QPlogPw>  (238) 
9.4109999999999996

>  <r_qp_QPlogS>  (238) 
-5.54

>  <r_qp_QPpolrz>  (238) 
40.228999999999999

>  <r_qp_SASA>  (238) 
606.03800000000001

>  <r_qp_SAamideO>  (238) 
0

>  <r_qp_SAfluorine>  (238) 
0

>  <r_qp_WPSA>  (238) 
0

>  <r_qp_accptHB>  (238) 
4

>  <r_qp_dip^2/V>  (238) 
0.038695899999999998

>  <r_qp_dipole>  (238) 
6.4850000000000003

>  <r_qp_donorHB>  (238) 
1

>  <r_qp_glob>  (238) 
0.84351830000000005

>  <r_qp_mol_MW>  (238) 
328.41300000000001

>  <r_qp_volume>  (238) 
1086.7860000000001

>  <r_sd_BIOSOLVEIT.INFINISEE\_FTREES\_SIMILARITY>  (238) 
0.90200000000000002

>  <r_sd_BIOSOLVEIT.LOGP>  (238) 
4.7617200000000004

>  <r_sd_BIOSOLVEIT.MOLECULAR\_WEIGHT>  (238) 
328.41300000000001

>  <r_sd_BIOSOLVEIT.TPSA>  (238) 
32.340000000000003

>  <i_epik_Tot_Q>  (238) 
0

>  <i_epik_Tot_abs_Q>  (238) 
0

>  <i_f3d_flags>  (238) 
0

>  <i_i_glide_confnum>  (238) 
3

>  <i_i_glide_lignum>  (238) 
595

>  <i_i_glide_posenum>  (238) 
20

>  <i_i_glide_rotatable_bonds>  (238) 
3

>  <i_lp_mmshare_version>  (238) 
65135

>  <i_m_ct_format>  (238) 
2

>  <i_m_source_file_index>  (238) 
1935

>  <i_qp_#NandO>  (238) 
3

>  <i_qp_#acid>  (238) 
0

>  <i_qp_#amide>  (238) 
0

>  <i_qp_#amidine>  (238) 
0

>  <i_qp_#amine>  (238) 
0

>  <i_qp_#in34>  (238) 
0

>  <i_qp_#in56>  (238) 
22

>  <i_qp_#metab>  (238) 
6

>  <i_qp_#nonHatm>  (238) 
25

>  <i_qp_#noncon>  (238) 
1

>  <i_qp_#ringatoms>  (238) 
22

>  <i_qp_#rotor>  (238) 
2

>  <i_qp_#rtvFG>  (238) 
0

>  <i_qp_#stars>  (238) 
0

>  <i_qp_CNS>  (238) 
1

>  <i_qp_HumanOralAbsorption>  (238) 
3

>  <i_qp_RuleOfFive>  (238) 
0

>  <i_qp_RuleOfThree>  (238) 
0

>  <i_sd_BIOSOLVEIT.INFINISEE\_REAGENT1\_NAME>  (238) 
89515

>  <i_sd_BIOSOLVEIT.INFINISEE\_REAGENT2\_NAME>  (238) 
10542024

>  <i_sd_BIOSOLVEIT.INFINISEE\_RESULT\_RANK>  (238) 
86672

>  <i_sd_version>  (238) 
0

>  <b_lp_Chiralities_Consistent>  (238) 
1

>  <b_sd_chiral_flag>  (238) 
0

>  <canonical_id>  (238) 
ATP-HTVS-2641D0EED03A

>  <compound_code>  (238) 
61889

>  <title>  (238) 
m_66bab____89515____10542024

>  <variant>  (238) 
61889-1

>  <source_file>  (238) 
运行/运行/ATP-VSW/ATP-VSW-DOCK_HTVS_1-001_lib/ATP-VSW-DOCK_HTVS_1-001_lib

>  <canonical_smiles>  (238) 
Cc1ccc(CN2C(=O)c3ccccc3N[C@H]2c2ccccc2)cc1

>  <scaffold>  (238) 
O=C1c2ccccc2NC(c2ccccc2)N1Cc1ccccc1

>  <molecular_formula>  (238) 
C22H20N2O

$$$$
ATP-HTVS-267F6CCD1B36
     RDKit          3D

 54 57  0  0  0  0  0  0  0  0999 V2000
  201.3783  180.9620  155.5240 O   0  0  0  0  0  0  0  0  0  0  0  0
  200.7723  181.7530  156.2535 C   0  0  0  0  0  0  0  0  0  0  0  0
  199.5061  182.1910  155.9926 N   0  0  0  0  0  0  0  0  0  0  0  0
  198.7816  181.7578  154.8412 C   0  0  0  0  0  0  0  0  0  0  0  0
  199.3327  181.8677  153.5401 C   0  0  0  0  0  0  0  0  0  0  0  0
  198.5987  181.4383  152.4149 C   0  0  0  0  0  0  0  0  0  0  0  0
  197.3088  180.9027  152.5806 C   0  0  0  0  0  0  0  0  0  0  0  0
  196.7541  180.7966  153.8683 C   0  0  0  0  0  0  0  0  0  0  0  0
  197.4794  181.2280  154.9927 C   0  0  0  0  0  0  0  0  0  0  0  0
  198.8374  183.0810  156.8549 C   0  0  0  0  0  0  0  0  0  0  0  0
  199.3792  183.5754  157.9891 C   0  0  0  0  0  0  0  0  0  0  0  0
  200.7440  183.1461  158.3946 C   0  0  0  0  0  0  0  0  0  0  0  0
  201.4336  182.2659  157.5173 C   0  0  0  0  0  0  0  0  0  0  0  0
  202.7482  181.8466  157.8341 C   0  0  0  0  0  0  0  0  0  0  0  0
  203.3751  182.2765  159.0187 C   0  0  0  0  0  0  0  0  0  0  0  0
  202.6906  183.1236  159.9031 C   0  0  0  0  0  0  0  0  0  0  0  0
  201.3849  183.5413  159.6007 C   0  0  0  0  0  0  0  0  0  0  0  0
  198.7033  184.6160  158.7574 C   0  0  0  0  0  0  0  0  0  0  0  0
  199.2806  185.5869  159.2256 O   0  0  0  0  0  0  0  0  0  0  0  0
  197.3667  184.4192  158.8038 N   0  0  0  0  0  0  0  0  0  0  0  0
  196.3282  185.0684  159.5405 C   0  0  0  0  0  0  0  0  0  0  0  0
  194.9984  184.5972  159.3679 C   0  0  0  0  0  0  0  0  0  0  0  0
  193.9596  185.1948  160.1450 C   0  0  0  0  0  0  0  0  0  0  0  0
  194.2202  186.2405  161.0367 C   0  0  0  0  0  0  0  0  0  0  0  0
  195.5399  186.6720  161.2260 C   0  0  0  0  0  0  0  0  0  0  0  0
  196.5724  186.0784  160.4947 C   0  0  0  0  0  0  0  0  0  0  0  0
  194.6002  183.5115  158.3631 C   0  0  1  0  0  0  0  0  0  0  0  0
  194.5964  182.1526  158.9605 N   0  0  1  0  0  0  0  0  0  0  0  0
  193.7036  181.2027  158.2792 C   0  0  2  0  0  0  0  0  0  0  0  0
  195.9390  181.5763  159.1417 C   0  0  2  0  0  0  0  0  0  0  0  0
  200.3224  182.2822  153.4009 H   0  0  0  0  0  0  0  0  0  0  0  0
  199.0316  181.5173  151.4285 H   0  0  0  0  0  0  0  0  0  0  0  0
  196.7457  180.5667  151.7244 H   0  0  0  0  0  0  0  0  0  0  0  0
  195.7751  180.3805  154.0047 H   0  0  0  0  0  0  0  0  0  0  0  0
  197.0323  181.1269  155.9698 H   0  0  0  0  0  0  0  0  0  0  0  0
  197.8866  183.4044  156.4622 H   0  0  0  0  0  0  0  0  0  0  0  0
  203.2844  181.1783  157.1727 H   0  0  0  0  0  0  0  0  0  0  0  0
  204.3769  181.9476  159.2547 H   0  0  0  0  0  0  0  0  0  0  0  0
  203.1583  183.4552  160.8208 H   0  0  0  0  0  0  0  0  0  0  0  0
  200.9099  184.1855  160.3219 H   0  0  0  0  0  0  0  0  0  0  0  0
  197.0825  183.6293  158.2518 H   0  0  0  0  0  0  0  0  0  0  0  0
  192.9332  184.9002  159.9862 H   0  0  0  0  0  0  0  0  0  0  0  0
  193.4245  186.7094  161.6071 H   0  0  0  0  0  0  0  0  0  0  0  0
  195.7829  187.4348  161.9553 H   0  0  0  0  0  0  0  0  0  0  0  0
  197.5499  186.4288  160.7556 H   0  0  0  0  0  0  0  0  0  0  0  0
  193.5869  183.7546  158.0270 H   0  0  0  0  0  0  0  0  0  0  0  0
  195.2049  183.5090  157.4479 H   0  0  0  0  0  0  0  0  0  0  0  0
  194.0400  181.0335  157.2635 H   0  0  0  0  0  0  0  0  0  0  0  0
  192.6831  181.5720  158.2452 H   0  0  0  0  0  0  0  0  0  0  0  0
  193.6872  180.2423  158.7939 H   0  0  0  0  0  0  0  0  0  0  0  0
  196.4522  181.4379  158.1936 H   0  0  0  0  0  0  0  0  0  0  0  0
  195.8793  180.6223  159.6466 H   0  0  0  0  0  0  0  0  0  0  0  0
  196.5457  182.2000  159.7788 H   0  0  0  0  0  0  0  0  0  0  0  0
  194.2164  182.2664  159.8843 H   0  0  0  0  0  0  0  0  0  0  0  0
  1  2  2  0
  2  3  1  0
  2 13  1  0
  3  4  1  0
  3 10  1  0
  4  5  2  0
  4  9  1  0
  5  6  1  0
  5 31  1  0
  6  7  2  0
  6 32  1  0
  7  8  1  0
  7 33  1  0
  8  9  2  0
  8 34  1  0
  9 35  1  0
 10 11  2  0
 10 36  1  0
 11 12  1  0
 11 18  1  0
 12 13  1  0
 12 17  2  0
 13 14  2  0
 14 15  1  0
 14 37  1  0
 15 16  2  0
 15 38  1  0
 16 17  1  0
 16 39  1  0
 17 40  1  0
 18 19  2  0
 18 20  1  0
 20 21  1  0
 20 41  1  0
 21 22  1  0
 21 26  2  0
 22 23  2  0
 22 27  1  0
 23 24  1  0
 23 42  1  0
 24 25  2  0
 24 43  1  0
 25 26  1  0
 25 44  1  0
 26 45  1  0
 27 28  1  0
 27 46  1  6
 27 47  1  0
 28 29  1  0
 28 30  1  0
 28 54  1  1
 29 48  1  6
 29 49  1  0
 29 50  1  0
 30 51  1  6
 30 52  1  0
 30 53  1  0
M  CHG  1  28   1
M  END
>  <s_epik_cmdline>  (239) 
J2VwaWtfcHl0aG9uJywgJy1waCcsICc3LjAwMDAwMCcsICctcGh0JywgJzIuMDAwMDAwJywgJy1tcycsICcxNicsICctdG4nLCAnOCcsICctbWEnLCAnMjAwJywgJy1pbWFlJywgJzxpbmZpbGUubWFlPicsICctb21hZScsICc8b3V0ZmlsZS5tYWU+Jw==

>  <s_epik_input>  (239) 
W2NIXTFbY0hdW2NIXVtjSF1bY0hdYzEtbihjKD1PKWMoYzIzKVtjSF1bY0hdW2NIXVtjSF0zKVtjSF1jMkMoPU8pW05IXWM0YyhbQ0gyXU4oW0NIM10pW0NIM10pW2NIXVtjSF1bY0hdW2NIXTQ=

>  <s_i_glide_gridfile>  (239) 
ATP-Grid

>  <s_lp_Force_Field>  (239) 
OPLS_2005

>  <s_lp_Variant>  (239) 
rxn101____EMOL44691345____EMOL31508813-1

>  <s_lp_label>  (239) 
2495_sdstereoexpander_1_neutralizer_1_epik_1_stereoizer_1

>  <s_m_source_file>  (239) 
ATP-VSW-LIGPREP-003-in.maegz

>  <s_sd_BIOSOLVEIT.INFINISEE\_QUERY\_NAME>  (239) 
Ref-Lig

>  <s_sd_BIOSOLVEIT.INFINISEE\_QUERY\_SMILES>  (239) 
S(c1nc2c(cc1C[NH2+]Cc3ccc(cc3)C[NH+](C)C)cccc2)Cc4ccccc4

>  <s_sd_BIOSOLVEIT.INFINISEE\_REACTION\_NAME>  (239) 
rxn101

>  <s_sd_BIOSOLVEIT.INFINISEE\_REAGENT1\_NAME>  (239) 
EMOL44691345

>  <s_sd_BIOSOLVEIT.INFINISEE\_REAGENT1\_SMILES>  (239) 
N(Cc1c(N)cccc1)(C)C

>  <s_sd_BIOSOLVEIT.INFINISEE\_REAGENT2\_NAME>  (239) 
EMOL31508813

>  <s_sd_BIOSOLVEIT.INFINISEE\_REAGENT2\_SMILES>  (239) 
O=C1N(c2ccccc2)C=C(c3c1cccc3)C(=O)O

>  <s_sd_BIOSOLVEIT.INFINISEE\_SPACE>  (239) 
eXplore_7tr_2022-12

>  <s_vsw_compound_code>  (239) 
79811

>  <s_vsw_variant>  (239) 
79811-1

>  <r_epik_Charging_Adjusted_Penalty>  (239) 
0.10241572654766

>  <r_epik_Ionization_Penalty>  (239) 
0.051299999999999998

>  <r_epik_Ionization_Penalty_Charging>  (239) 
0.051200000000000002

>  <r_epik_Ionization_Penalty_Neutral>  (239) 
0.0001

>  <r_epik_State_Penalty>  (239) 
0.051200000000000002

>  <r_i_docking_score>  (239) 
-4.2420977518382497

>  <r_i_glide_ecoul>  (239) 
-7.3001828193664604

>  <r_i_glide_eff_state_penalty>  (239) 
0.051200000000000002

>  <r_i_glide_einternal>  (239) 
2.5648493766784699

>  <r_i_glide_emodel>  (239) 
-47.381089291661397

>  <r_i_glide_energy>  (239) 
-35.301517963409403

>  <r_i_glide_erotb>  (239) 
0.61671964623376696

>  <r_i_glide_esite>  (239) 
-0.074599017270749704

>  <r_i_glide_evdw>  (239) 
-28.001335144043001

>  <r_i_glide_gscore>  (239) 
-4.2932977518382502

>  <r_i_glide_hbond>  (239) 
0

>  <r_i_glide_ligand_efficiency>  (239) 
-0.14140325839460799

>  <r_i_glide_ligand_efficiency_ln>  (239) 
-0.963850830574697

>  <r_i_glide_ligand_efficiency_sa>  (239) 
-0.439372800433389

>  <r_i_glide_lipo>  (239) 
-1.32864923221906

>  <r_i_glide_metal>  (239) 
-0

>  <r_i_glide_rewards>  (239) 
-1.0116749684750901

>  <r_lp_Energy>  (239) 
53.832532999999998

>  <r_qp_ACxDN^.5/SA>  (239) 
0.010506400000000001

>  <r_qp_CIQPlogS>  (239) 
-4.5629999999999997

>  <r_qp_EA(eV)>  (239) 
0.73199999999999998

>  <r_qp_FISA>  (239) 
62.853000000000002

>  <r_qp_FOSA>  (239) 
163.28200000000001

>  <r_qp_IP(eV)>  (239) 
8.7200000000000006

>  <r_qp_Jm>  (239) 
0.023192634847434401

>  <r_qp_PISA>  (239) 
487.71699999999998

>  <r_qp_PSA>  (239) 
63.040999999999997

>  <r_qp_PercentHumanOralAbsorption>  (239) 
100

>  <r_qp_QPPCaco>  (239) 
626.279

>  <r_qp_QPPMDCK>  (239) 
330.03500000000003

>  <r_qp_QPlogBB>  (239) 
0.072999999999999995

>  <r_qp_QPlogHERG>  (239) 
-7.7510000000000003

>  <r_qp_QPlogKhsa>  (239) 
0.46800000000000003

>  <r_qp_QPlogKp>  (239) 
-2.6379999999999999

>  <r_qp_QPlogPC16>  (239) 
14.375999999999999

>  <r_qp_QPlogPo/w>  (239) 
3.8570000000000002

>  <r_qp_QPlogPoct>  (239) 
21.762

>  <r_qp_QPlogPw>  (239) 
13.151999999999999

>  <r_qp_QPlogS>  (239) 
-4.5960000000000001

>  <r_qp_QPpolrz>  (239) 
47.701000000000001

>  <r_qp_SASA>  (239) 
713.851

>  <r_qp_SAamideO>  (239) 
0

>  <r_qp_SAfluorine>  (239) 
0

>  <r_qp_WPSA>  (239) 
0

>  <r_qp_accptHB>  (239) 
7.5

>  <r_qp_dip^2/V>  (239) 
0.0258654

>  <r_qp_dipole>  (239) 
5.7839999999999998

>  <r_qp_donorHB>  (239) 
1

>  <r_qp_glob>  (239) 
0.80426640000000005

>  <r_qp_mol_MW>  (239) 
397.476

>  <r_qp_volume>  (239) 
1293.4929999999999

>  <r_sd_BIOSOLVEIT.INFINISEE\_FTREES\_SIMILARITY>  (239) 
0.91400000000000003

>  <r_sd_BIOSOLVEIT.LOGP>  (239) 
2.8875000000000002

>  <r_sd_BIOSOLVEIT.MOLECULAR\_WEIGHT>  (239) 
398.48399999999998

>  <r_sd_BIOSOLVEIT.TPSA>  (239) 
55.539999999999999

>  <i_epik_Tot_Q>  (239) 
1

>  <i_epik_Tot_abs_Q>  (239) 
1

>  <i_f3d_flags>  (239) 
0

>  <i_i_glide_confnum>  (239) 
2

>  <i_i_glide_lignum>  (239) 
1083

>  <i_i_glide_posenum>  (239) 
19

>  <i_i_glide_rotatable_bonds>  (239) 
6

>  <i_lp_mmshare_version>  (239) 
65135

>  <i_m_ct_format>  (239) 
2

>  <i_m_source_file_index>  (239) 
2495

>  <i_qp_#NandO>  (239) 
5

>  <i_qp_#acid>  (239) 
0

>  <i_qp_#amide>  (239) 
0

>  <i_qp_#amidine>  (239) 
0

>  <i_qp_#amine>  (239) 
1

>  <i_qp_#in34>  (239) 
0

>  <i_qp_#in56>  (239) 
22

>  <i_qp_#metab>  (239) 
3

>  <i_qp_#nonHatm>  (239) 
30

>  <i_qp_#noncon>  (239) 
0

>  <i_qp_#ringatoms>  (239) 
22

>  <i_qp_#rotor>  (239) 
4

>  <i_qp_#rtvFG>  (239) 
0

>  <i_qp_#stars>  (239) 
1

>  <i_qp_CNS>  (239) 
1

>  <i_qp_HumanOralAbsorption>  (239) 
3

>  <i_qp_RuleOfFive>  (239) 
0

>  <i_qp_RuleOfThree>  (239) 
0

>  <i_sd_BIOSOLVEIT.INFINISEE\_RESULT\_RANK>  (239) 
30082

>  <i_sd_version>  (239) 
0

>  <b_lp_Chiralities_Consistent>  (239) 
1

>  <b_sd_chiral_flag>  (239) 
0

>  <canonical_id>  (239) 
ATP-HTVS-267F6CCD1B36

>  <compound_code>  (239) 
79811

>  <title>  (239) 
rxn101____EMOL44691345____EMOL31508813

>  <variant>  (239) 
79811-1

>  <source_file>  (239) 
运行/运行/ATP-VSW/ATP-VSW-DOCK_HTVS_1-003_lib/ATP-VSW-DOCK_HTVS_1-003_lib.mae

>  <canonical_smiles>  (239) 
C[NH+](C)Cc1ccccc1NC(=O)c1cn(-c2ccccc2)c(=O)c2ccccc12

>  <scaffold>  (239) 
O=C(Nc1ccccc1)c1cn(-c2ccccc2)c(=O)c2ccccc12

>  <molecular_formula>  (239) 
C25H24N3O2+

$$$$
ATP-HTVS-2699169FE698
     RDKit          3D

 65 68  0  0  0  0  0  0  0  0999 V2000
  198.5724  181.7354  156.8092 O   0  0  0  0  0  0  0  0  0  0  0  0
  197.5489  181.9064  156.1437 C   0  0  0  0  0  0  0  0  0  0  0  0
  196.3667  182.2546  156.6680 N   0  0  0  0  0  0  0  0  0  0  0  0
  196.0638  182.5011  158.0710 C   0  0  1  0  0  0  0  0  0  0  0  0
  196.3426  183.9776  158.4998 C   0  0  1  0  0  0  0  0  0  0  0  0
  195.6536  184.3866  159.7413 N   0  0  0  0  0  0  0  0  0  0  0  0
  195.8414  185.8205  159.9607 C   0  0  2  0  0  0  0  0  0  0  0  0
  194.2095  184.1835  159.6723 C   0  0  2  0  0  0  0  0  0  0  0  0
  197.8561  184.2185  158.5598 C   0  0  0  0  0  0  0  0  0  0  0  0
  198.6120  183.8333  159.6831 C   0  0  0  0  0  0  0  0  0  0  0  0
  200.0118  184.0206  159.7121 C   0  0  0  0  0  0  0  0  0  0  0  0
  200.6691  184.5906  158.6042 C   0  0  0  0  0  0  0  0  0  0  0  0
  199.9154  184.9742  157.4733 C   0  0  0  0  0  0  0  0  0  0  0  0
  198.5198  184.8068  157.4559 C   0  0  0  0  0  0  0  0  0  0  0  0
  202.1738  184.7700  158.6213 C   0  0  2  0  0  0  0  0  0  0  0  0
  197.4819  181.7693  154.6847 C   0  0  0  0  0  0  0  0  0  0  0  0
  197.7858  180.5374  154.0730 N   0  0  0  0  0  0  0  0  0  0  0  0
  197.6177  180.3783  152.6698 C   0  0  0  0  0  0  0  0  0  0  0  0
  197.2437  181.5049  151.8847 C   0  0  0  0  0  0  0  0  0  0  0  0
  197.0856  181.3861  150.4867 C   0  0  0  0  0  0  0  0  0  0  0  0
  197.2962  180.1542  149.8450 C   0  0  0  0  0  0  0  0  0  0  0  0
  197.6672  179.0341  150.6031 C   0  0  0  0  0  0  0  0  0  0  0  0
  197.8246  179.1418  151.9959 C   0  0  0  0  0  0  0  0  0  0  0  0
  197.0221  182.8307  152.5174 C   0  0  0  0  0  0  0  0  0  0  0  0
  196.7494  183.8431  151.8690 O   0  0  0  0  0  0  0  0  0  0  0  0
  197.1445  182.8683  153.9818 C   0  0  0  0  0  0  0  0  0  0  0  0
  198.3938  179.4022  154.7897 C   0  0  1  0  0  0  0  0  0  0  0  0
  199.9017  179.2650  154.4983 C   0  0  1  0  0  0  0  0  0  0  0  0
  200.4899  177.9898  155.0755 C   0  0  0  0  0  0  0  0  0  0  0  0
  200.5650  177.8205  156.4738 C   0  0  0  0  0  0  0  0  0  0  0  0
  201.1008  176.6366  157.0122 C   0  0  0  0  0  0  0  0  0  0  0  0
  201.5622  175.6161  156.1583 C   0  0  0  0  0  0  0  0  0  0  0  0
  201.4879  175.7793  154.7626 C   0  0  0  0  0  0  0  0  0  0  0  0
  200.9520  176.9636  154.2206 C   0  0  0  0  0  0  0  0  0  0  0  0
  195.5711  182.2883  156.0459 H   0  0  0  0  0  0  0  0  0  0  0  0
  194.9962  182.2540  158.1187 H   0  0  0  0  0  0  0  0  0  0  0  0
  196.5638  181.7888  158.7257 H   0  0  0  0  0  0  0  0  0  0  0  0
  195.9474  184.6189  157.7136 H   0  0  0  0  0  0  0  0  0  0  0  0
  195.3235  186.1465  160.8643 H   0  0  0  0  0  0  0  0  0  0  0  0
  195.4525  186.3995  159.1206 H   0  0  0  0  0  0  0  0  0  0  0  0
  196.8936  186.0785  160.0907 H   0  0  0  0  0  0  0  0  0  0  0  0
  193.7048  184.6378  160.5300 H   0  0  0  0  0  0  0  0  0  0  0  0
  193.9639  183.1246  159.6910 H   0  0  0  0  0  0  0  0  0  0  0  0
  193.7893  184.6235  158.7666 H   0  0  0  0  0  0  0  0  0  0  0  0
  198.1179  183.3728  160.5309 H   0  0  0  0  0  0  0  0  0  0  0  0
  200.5810  183.7116  160.5761 H   0  0  0  0  0  0  0  0  0  0  0  0
  200.4126  185.3872  156.6046 H   0  0  0  0  0  0  0  0  0  0  0  0
  197.9599  185.0914  156.5813 H   0  0  0  0  0  0  0  0  0  0  0  0
  202.5438  185.1382  157.6634 H   0  0  0  0  0  0  0  0  0  0  0  0
  202.6742  183.8247  158.8361 H   0  0  0  0  0  0  0  0  0  0  0  0
  202.4510  185.4893  159.3911 H   0  0  0  0  0  0  0  0  0  0  0  0
  196.8096  182.2455  149.8895 H   0  0  0  0  0  0  0  0  0  0  0  0
  197.1916  180.0694  148.7733 H   0  0  0  0  0  0  0  0  0  0  0  0
  197.8435  178.0858  150.1149 H   0  0  0  0  0  0  0  0  0  0  0  0
  198.1201  178.2445  152.5110 H   0  0  0  0  0  0  0  0  0  0  0  0
  196.9275  183.8128  154.4667 H   0  0  0  0  0  0  0  0  0  0  0  0
  198.2552  179.4545  155.8712 H   0  0  0  0  0  0  0  0  0  0  0  0
  197.8607  178.4842  154.5551 H   0  0  0  0  0  0  0  0  0  0  0  0
  200.0969  179.2759  153.4269 H   0  0  0  0  0  0  0  0  0  0  0  0
  200.4388  180.1225  154.9078 H   0  0  0  0  0  0  0  0  0  0  0  0
  200.2041  178.5965  157.1346 H   0  0  0  0  0  0  0  0  0  0  0  0
  201.1499  176.5167  158.0823 H   0  0  0  0  0  0  0  0  0  0  0  0
  201.9718  174.7087  156.5741 H   0  0  0  0  0  0  0  0  0  0  0  0
  201.8402  174.9962  154.1085 H   0  0  0  0  0  0  0  0  0  0  0  0
  200.8969  177.0796  153.1479 H   0  0  0  0  0  0  0  0  0  0  0  0
  1  2  2  0
  2  3  1  0
  2 16  1  0
  3  4  1  0
  3 35  1  0
  4  5  1  0
  4 36  1  6
  4 37  1  0
  5  6  1  0
  5  9  1  0
  5 38  1  6
  6  7  1  0
  6  8  1  0
  7 39  1  1
  7 40  1  0
  7 41  1  0
  8 42  1  1
  8 43  1  0
  8 44  1  0
  9 10  1  0
  9 14  2  0
 10 11  2  0
 10 45  1  0
 11 12  1  0
 11 46  1  0
 12 13  2  0
 12 15  1  0
 13 14  1  0
 13 47  1  0
 14 48  1  0
 15 49  1  6
 15 50  1  0
 15 51  1  0
 16 17  1  0
 16 26  2  0
 17 18  1  0
 17 27  1  0
 18 19  1  0
 18 23  2  0
 19 20  2  0
 19 24  1  0
 20 21  1  0
 20 52  1  0
 21 22  2  0
 21 53  1  0
 22 23  1  0
 22 54  1  0
 23 55  1  0
 24 25  2  0
 24 26  1  0
 26 56  1  0
 27 28  1  0
 27 57  1  1
 27 58  1  0
 28 29  1  0
 28 59  1  6
 28 60  1  0
 29 30  2  0
 29 34  1  0
 30 31  1  0
 30 61  1  0
 31 32  2  0
 31 62  1  0
 32 33  1  0
 32 63  1  0
 33 34  2  0
 33 64  1  0
 34 65  1  0
M  END
>  <s_epik_cmdline>  (240) 
J2VwaWtfcHl0aG9uJywgJy1waCcsICc3LjAwMDAwMCcsICctcGh0JywgJzIuMDAwMDAwJywgJy1tcycsICcxNicsICctdG4nLCAnOCcsICctbWEnLCAnMjAwJywgJy1pbWFlJywgJzxpbmZpbGUubWFlPicsICctb21hZScsICc8b3V0ZmlsZS5tYWU+Jw==

>  <s_epik_input>  (240) 
W2NIXTFbY0hdYyhbQ0gzXSlbY0hdW2NIXWMxW0NASF0oTihbQ0gzXSlbQ0gzXSlbQ0gyXVtOSF1DKD1PKWMoW2NIXWMoPU8pYyhjMjMpW2NIXVtjSF1bY0hdW2NIXTMpbjJbQ0gyXVtDSDJdYzRbY0hdW2NIXVtjSF1bY0hdW2NIXTQ=

>  <s_i_glide_gridfile>  (240) 
ATP-Grid

>  <s_lp_Force_Field>  (240) 
OPLS_2005

>  <s_lp_Variant>  (240) 
YAS_R012____OTV5753507____OTV2889217____OTV7020410266-4

>  <s_lp_label>  (240) 
153_sdstereoexpander_2_neutralizer_1_epik_2_stereoizer_1

>  <s_m_source_file>  (240) 
ATP-VSW-LIGPREP-002-in.maegz

>  <s_sd_BIOSOLVEIT.INFINISEE\_QUERY\_NAME>  (240) 
Ref-Lig

>  <s_sd_BIOSOLVEIT.INFINISEE\_QUERY\_SMILES>  (240) 
S(c1nc2c(cc1C[NH2+]Cc3ccc(cc3)C[NH+](C)C)cccc2)Cc4ccccc4

>  <s_sd_BIOSOLVEIT.INFINISEE\_REACTION\_NAME>  (240) 
YAS_R012

>  <s_sd_BIOSOLVEIT.INFINISEE\_REAGENT1\_NAME>  (240) 
OTV5753507

>  <s_sd_BIOSOLVEIT.INFINISEE\_REAGENT1\_SMILES>  (240) 
Nc1ccccc1

>  <s_sd_BIOSOLVEIT.INFINISEE\_REAGENT2\_NAME>  (240) 
OTV2889217

>  <s_sd_BIOSOLVEIT.INFINISEE\_REAGENT2\_SMILES>  (240) 
BrCCc1ccccc1

>  <s_sd_BIOSOLVEIT.INFINISEE\_REAGENT3\_NAME>  (240) 
OTV7020410266

>  <s_sd_BIOSOLVEIT.INFINISEE\_REAGENT3\_SMILES>  (240) 
N(C(c1ccc(cc1)C)CN)(C)C

>  <s_sd_BIOSOLVEIT.INFINISEE\_SPACE>  (240) 
CHEMriya_12bn_2022-01

>  <s_vsw_compound_code>  (240) 
4866

>  <s_vsw_variant>  (240) 
4866-4

>  <r_epik_Charging_Adjusted_Penalty>  (240) 
0.90686752261092196

>  <r_epik_Ionization_Penalty>  (240) 
0.90690000000000004

>  <r_epik_Ionization_Penalty_Charging>  (240) 
0

>  <r_epik_Ionization_Penalty_Neutral>  (240) 
0.90690000000000004

>  <r_epik_State_Penalty>  (240) 
0.90690000000000004

>  <r_i_docking_score>  (240) 
-3.1483276475780699

>  <r_i_glide_ecoul>  (240) 
-2.2870817184448202

>  <r_i_glide_eff_state_penalty>  (240) 
0.90690000000000004

>  <r_i_glide_einternal>  (240) 
4.6954932212829599

>  <r_i_glide_emodel>  (240) 
-51.238740304192397

>  <r_i_glide_energy>  (240) 
-42.295756340026898

>  <r_i_glide_erotb>  (240) 
0.78060243397572404

>  <r_i_glide_esite>  (240) 
-0.134175655828465

>  <r_i_glide_evdw>  (240) 
-40.008674621582003

>  <r_i_glide_gscore>  (240) 
-4.0552276475780697

>  <r_i_glide_hbond>  (240) 
-0.149985333882064

>  <r_i_glide_ligand_efficiency>  (240) 
-0.092597871987590299

>  <r_i_glide_ligand_efficiency_ln>  (240) 
-0.69555388494933201

>  <r_i_glide_ligand_efficiency_sa>  (240) 
-0.29998115851156498

>  <r_i_glide_lipo>  (240) 
-1.89164133027017

>  <r_i_glide_metal>  (240) 
-0

>  <r_i_glide_rewards>  (240) 
-0.31653177272727201

>  <r_lp_Energy>  (240) 
36.483750000000001

>  <r_qp_ACxDN^.5/SA>  (240) 
0.009247

>  <r_qp_CIQPlogS>  (240) 
-5.9020000000000001

>  <r_qp_EA(eV)>  (240) 
0.61699999999999999

>  <r_qp_FISA>  (240) 
74.016999999999996

>  <r_qp_FOSA>  (240) 
263.202

>  <r_qp_IP(eV)>  (240) 
8.5640000000000001

>  <r_qp_Jm>  (240) 
0.0114610712296949

>  <r_qp_PISA>  (240) 
419.786

>  <r_qp_PSA>  (240) 
63.621000000000002

>  <r_qp_PercentHumanOralAbsorption>  (240) 
100

>  <r_qp_QPPCaco>  (240) 
490.79500000000002

>  <r_qp_QPPMDCK>  (240) 
253.58799999999999

>  <r_qp_QPlogBB>  (240) 
-0.251

>  <r_qp_QPlogHERG>  (240) 
-7.1429999999999998

>  <r_qp_QPlogKhsa>  (240) 
0.85799999999999998

>  <r_qp_QPlogKp>  (240) 
-2.6989999999999998

>  <r_qp_QPlogPC16>  (240) 
15.423999999999999

>  <r_qp_QPlogPo/w>  (240) 
4.9669999999999996

>  <r_qp_QPlogPoct>  (240) 
23.202000000000002

>  <r_qp_QPlogPw>  (240) 
11.494999999999999

>  <r_qp_QPlogS>  (240) 
-4.8979999999999997

>  <r_qp_QPpolrz>  (240) 
51.107999999999997

>  <r_qp_SASA>  (240) 
757.005

>  <r_qp_SAamideO>  (240) 
0

>  <r_qp_SAfluorine>  (240) 
0

>  <r_qp_WPSA>  (240) 
0

>  <r_qp_accptHB>  (240) 
7

>  <r_qp_dip^2/V>  (240) 
0.066928500000000002

>  <r_qp_dipole>  (240) 
9.8819999999999997

>  <r_qp_donorHB>  (240) 
1

>  <r_qp_glob>  (240) 
0.82180980000000003

>  <r_qp_mol_MW>  (240) 
453.58300000000003

>  <r_qp_volume>  (240) 
1459.0070000000001

>  <r_sd_BIOSOLVEIT.INFINISEE\_FTREES\_SIMILARITY>  (240) 
0.90200000000000002

>  <r_sd_BIOSOLVEIT.LOGP>  (240) 
3.1263200000000002

>  <r_sd_BIOSOLVEIT.MOLECULAR\_WEIGHT>  (240) 
454.59100000000001

>  <r_sd_BIOSOLVEIT.TPSA>  (240) 
53.850000000000001

>  <i_epik_Tot_Q>  (240) 
0

>  <i_epik_Tot_abs_Q>  (240) 
0

>  <i_f3d_flags>  (240) 
0

>  <i_i_glide_confnum>  (240) 
9

>  <i_i_glide_lignum>  (240) 
118

>  <i_i_glide_posenum>  (240) 
18

>  <i_i_glide_rotatable_bonds>  (240) 
9

>  <i_lp_mmshare_version>  (240) 
65135

>  <i_m_ct_format>  (240) 
2

>  <i_m_source_file_index>  (240) 
153

>  <i_qp_#NandO>  (240) 
5

>  <i_qp_#acid>  (240) 
0

>  <i_qp_#amide>  (240) 
0

>  <i_qp_#amidine>  (240) 
0

>  <i_qp_#amine>  (240) 
1

>  <i_qp_#in34>  (240) 
0

>  <i_qp_#in56>  (240) 
22

>  <i_qp_#metab>  (240) 
6

>  <i_qp_#nonHatm>  (240) 
34

>  <i_qp_#noncon>  (240) 
0

>  <i_qp_#ringatoms>  (240) 
22

>  <i_qp_#rotor>  (240) 
8

>  <i_qp_#rtvFG>  (240) 
0

>  <i_qp_#stars>  (240) 
0

>  <i_qp_CNS>  (240) 
1

>  <i_qp_HumanOralAbsorption>  (240) 
3

>  <i_qp_RuleOfFive>  (240) 
0

>  <i_qp_RuleOfThree>  (240) 
0

>  <i_sd_BIOSOLVEIT.INFINISEE\_RESULT\_RANK>  (240) 
88694

>  <i_sd_version>  (240) 
0

>  <b_lp_Chiralities_Consistent>  (240) 
1

>  <b_sd_chiral_flag>  (240) 
0

>  <canonical_id>  (240) 
ATP-HTVS-2699169FE698

>  <compound_code>  (240) 
4866

>  <title>  (240) 
YAS_R012____OTV5753507____OTV2889217____OTV7020410266

>  <variant>  (240) 
4866-4

>  <source_file>  (240) 
运行/运行/ATP-VSW/ATP-VSW-DOCK_HTVS_1-002_lib.maegz

>  <canonical_smiles>  (240) 
Cc1ccc([C@@H](CNC(=O)c2cc(=O)c3ccccc3n2CCc2ccccc2)N(C)C)cc1

>  <scaffold>  (240) 
O=C(NCCc1ccccc1)c1cc(=O)c2ccccc2n1CCc1ccccc1

>  <molecular_formula>  (240) 
C29H31N3O2

$$$$
ATP-HTVS-269AF530E7D7
     RDKit          3D

 51 54  0  0  0  0  0  0  0  0999 V2000
  200.7777  177.7605  158.1332 Cl  0  0  0  0  0  0  0  0  0  0  0  0
  200.7623  177.4842  156.4324 C   0  0  0  0  0  0  0  0  0  0  0  0
  200.5712  178.5287  155.4927 C   0  0  0  0  0  0  0  0  0  0  0  0
  200.5696  178.2239  154.1138 C   0  0  0  0  0  0  0  0  0  0  0  0
  200.7570  176.8992  153.6769 C   0  0  0  0  0  0  0  0  0  0  0  0
  200.9438  175.8699  154.6172 C   0  0  0  0  0  0  0  0  0  0  0  0
  200.9434  176.1646  155.9909 C   0  0  0  0  0  0  0  0  0  0  0  0
  200.3273  179.9649  155.9277 C   0  0  2  0  0  0  0  0  0  0  0  0
  201.2601  180.4235  156.8825 O   0  0  0  0  0  0  0  0  0  0  0  0
  198.9214  180.1489  156.5051 C   0  0  1  0  0  0  0  0  0  0  0  0
  197.8871  180.0221  155.4732 N   0  0  0  0  0  0  0  0  0  0  0  0
  196.7344  180.9035  155.6786 C   0  0  1  0  0  0  0  0  0  0  0  0
  197.0993  182.3531  155.5927 C   0  0  0  0  0  0  0  0  0  0  0  0
  197.2025  183.0647  154.4332 N   0  0  0  0  0  0  0  0  0  0  0  0
  197.6503  184.3618  154.7146 C   0  0  0  0  0  0  0  0  0  0  0  0
  197.8366  184.4291  156.1207 C   0  0  0  0  0  0  0  0  0  0  0  0
  197.4581  183.1775  156.6244 N   0  0  0  0  0  0  0  0  0  0  0  0
  197.5496  182.8981  158.0738 C   0  0  1  0  0  0  0  0  0  0  0  0
  196.6502  183.7898  158.9041 C   0  0  0  0  0  0  0  0  0  0  0  0
  195.2701  183.5169  159.0110 C   0  0  0  0  0  0  0  0  0  0  0  0
  194.4306  184.3987  159.7160 C   0  0  0  0  0  0  0  0  0  0  0  0
  194.9684  185.5604  160.3093 C   0  0  0  0  0  0  0  0  0  0  0  0
  193.9611  186.6333  161.2194 Cl  0  0  0  0  0  0  0  0  0  0  0  0
  196.3476  185.8296  160.2071 C   0  0  0  0  0  0  0  0  0  0  0  0
  197.1924  184.9173  159.5507 C   0  0  0  0  0  0  0  0  0  0  0  0
  198.3272  185.5955  156.7341 C   0  0  0  0  0  0  0  0  0  0  0  0
  198.5553  186.7038  155.8753 C   0  0  0  0  0  0  0  0  0  0  0  0
  198.3576  186.6271  154.4822 C   0  0  0  0  0  0  0  0  0  0  0  0
  197.9118  185.4383  153.8679 C   0  0  0  0  0  0  0  0  0  0  0  0
  197.5508  179.0612  155.5120 H   0  0  0  0  0  0  0  0  0  0  0  0
  200.4126  179.0076  153.3841 H   0  0  0  0  0  0  0  0  0  0  0  0
  200.7567  176.6716  152.6215 H   0  0  0  0  0  0  0  0  0  0  0  0
  201.0912  174.8522  154.2920 H   0  0  0  0  0  0  0  0  0  0  0  0
  201.0825  175.3815  156.7211 H   0  0  0  0  0  0  0  0  0  0  0  0
  200.4402  180.6291  155.0694 H   0  0  0  0  0  0  0  0  0  0  0  0
  201.2096  179.8504  157.6330 H   0  0  0  0  0  0  0  0  0  0  0  0
  198.7257  179.4460  157.3192 H   0  0  0  0  0  0  0  0  0  0  0  0
  198.9191  181.1384  156.9476 H   0  0  0  0  0  0  0  0  0  0  0  0
  195.9675  180.6853  154.9285 H   0  0  0  0  0  0  0  0  0  0  0  0
  196.2697  180.6998  156.6390 H   0  0  0  0  0  0  0  0  0  0  0  0
  197.2617  181.8669  158.2582 H   0  0  0  0  0  0  0  0  0  0  0  0
  198.5901  182.9996  158.3778 H   0  0  0  0  0  0  0  0  0  0  0  0
  194.8592  182.6298  158.5407 H   0  0  0  0  0  0  0  0  0  0  0  0
  193.3779  184.1738  159.8194 H   0  0  0  0  0  0  0  0  0  0  0  0
  196.7608  186.7291  160.6411 H   0  0  0  0  0  0  0  0  0  0  0  0
  198.2544  185.1116  159.4933 H   0  0  0  0  0  0  0  0  0  0  0  0
  198.5256  185.6776  157.7894 H   0  0  0  0  0  0  0  0  0  0  0  0
  198.8845  187.6327  156.3130 H   0  0  0  0  0  0  0  0  0  0  0  0
  198.5414  187.4977  153.8716 H   0  0  0  0  0  0  0  0  0  0  0  0
  197.7626  185.3732  152.7932 H   0  0  0  0  0  0  0  0  0  0  0  0
  196.9994  182.6671  153.5253 H   0  0  0  0  0  0  0  0  0  0  0  0
  1  2  1  0
  2  3  1  0
  2  7  2  0
  3  4  2  0
  3  8  1  0
  4  5  1  0
  4 31  1  0
  5  6  2  0
  5 32  1  0
  6  7  1  0
  6 33  1  0
  7 34  1  0
  8  9  1  0
  8 10  1  0
  8 35  1  6
  9 36  1  0
 10 11  1  0
 10 37  1  1
 10 38  1  0
 11 12  1  0
 11 30  1  0
 12 13  1  0
 12 39  1  6
 12 40  1  0
 13 14  2  0
 13 17  1  0
 14 15  1  0
 14 51  1  0
 15 16  1  0
 15 29  2  0
 16 17  1  0
 16 26  2  0
 17 18  1  0
 18 19  1  0
 18 41  1  6
 18 42  1  0
 19 20  1  0
 19 25  2  0
 20 21  2  0
 20 43  1  0
 21 22  1  0
 21 44  1  0
 22 23  1  0
 22 24  2  0
 24 25  1  0
 24 45  1  0
 25 46  1  0
 26 27  1  0
 26 47  1  0
 27 28  2  0
 27 48  1  0
 28 29  1  0
 28 49  1  0
 29 50  1  0
M  CHG  1  14   1
M  END
>  <s_epik_cmdline>  (241) 
J2VwaWtfcHl0aG9uJywgJy1waCcsICc3LjAwMDAwMCcsICctcGh0JywgJzIuMDAwMDAwJywgJy1tcycsICcxNicsICctdG4nLCAnOCcsICctbWEnLCAnMjAwJywgJy1pbWFlJywgJzxpbmZpbGUubWFlPicsICctb21hZScsICc8b3V0ZmlsZS5tYWU+Jw==

>  <s_epik_input>  (241) 
W2NIXTFbY0hdW2NIXVtjSF1jKGMxQ2wpW0NASF0oW09IXSlbQ0gyXVtOSF1bQ0gyXWMobjIpbihjKGMyMylbY0hdW2NIXVtjSF1bY0hdMylbQ0gyXWM0W2NIXVtjSF1jKENsKVtjSF1bY0hdNA==

>  <s_i_glide_gridfile>  (241) 
ATP-Grid

>  <s_lp_Force_Field>  (241) 
OPLS_2005

>  <s_lp_Variant>  (241) 
m_270004bbb____8296882____7549102-6

>  <s_lp_label>  (241) 
1957_sdstereoexpander_2_neutralizer_1_epik_3_stereoizer_1

>  <s_m_source_file>  (241) 
ATP-VSW-LIGPREP-003-in.maegz

>  <s_sd_BIOSOLVEIT.INFINISEE\_QUERY\_NAME>  (241) 
Ref-Lig

>  <s_sd_BIOSOLVEIT.INFINISEE\_QUERY\_SMILES>  (241) 
S(c1nc2c(cc1C[NH2+]Cc3ccc(cc3)C[NH+](C)C)cccc2)Cc4ccccc4

>  <s_sd_BIOSOLVEIT.INFINISEE\_REACTION\_NAME>  (241) 
m_270004bbb

>  <s_sd_BIOSOLVEIT.INFINISEE\_REAGENT1\_SMILES>  (241) 
[R1*]NCC(O)c1c(Cl)cccc1

>  <s_sd_BIOSOLVEIT.INFINISEE\_REAGENT2\_SMILES>  (241) 
[R1*]CC1=Nc2c(N1Cc3ccc(Cl)cc3)cccc2

>  <s_sd_BIOSOLVEIT.INFINISEE\_SPACE>  (241) 
REALSpace_44bn_2023-08

>  <s_vsw_compound_code>  (241) 
62595

>  <s_vsw_variant>  (241) 
62595-6

>  <r_epik_Charging_Adjusted_Penalty>  (241) 
2.3721932803797401

>  <r_epik_Ionization_Penalty>  (241) 
1.1541999999999999

>  <r_epik_Ionization_Penalty_Charging>  (241) 
1.0547

>  <r_epik_Ionization_Penalty_Neutral>  (241) 
0.099500000000000005

>  <r_epik_State_Penalty>  (241) 
1.3174999999999999

>  <r_i_docking_score>  (241) 
-3.3143814421733202

>  <r_i_glide_ecoul>  (241) 
-5.5816736221313503

>  <r_i_glide_eff_state_penalty>  (241) 
1.3174999999999999

>  <r_i_glide_einternal>  (241) 
4.8525233268737802

>  <r_i_glide_emodel>  (241) 
-56.030701269879799

>  <r_i_glide_energy>  (241) 
-42.260506629943798

>  <r_i_glide_erotb>  (241) 
0.65229285892220301

>  <r_i_glide_esite>  (241) 
-0.090235218386615204

>  <r_i_glide_evdw>  (241) 
-36.6788330078125

>  <r_i_glide_gscore>  (241) 
-4.6318814421733201

>  <r_i_glide_hbond>  (241) 
0

>  <r_i_glide_ligand_efficiency>  (241) 
-0.114289015247356

>  <r_i_glide_ligand_efficiency_ln>  (241) 
-0.75890930479595697

>  <r_i_glide_ligand_efficiency_sa>  (241) 
-0.35113206414139603

>  <r_i_glide_lipo>  (241) 
-1.8023760253622101

>  <r_i_glide_metal>  (241) 
-0

>  <r_i_glide_rewards>  (241) 
-0.72037036363636198

>  <r_lp_Energy>  (241) 
27.724958000000001

>  <r_qp_ACxDN^.5/SA>  (241) 
0.0099954999999999992

>  <r_qp_CIQPlogS>  (241) 
-6.1280000000000001

>  <r_qp_EA(eV)>  (241) 
0.23899999999999999

>  <r_qp_FISA>  (241) 
46.463999999999999

>  <r_qp_FOSA>  (241) 
86.867999999999995

>  <r_qp_IP(eV)>  (241) 
8.5410000000000004

>  <r_qp_Jm>  (241) 
0.078495846001067904

>  <r_qp_PISA>  (241) 
416.74200000000002

>  <r_qp_PSA>  (241) 
45.024000000000001

>  <r_qp_PercentHumanOralAbsorption>  (241) 
100

>  <r_qp_QPPCaco>  (241) 
895.74199999999996

>  <r_qp_QPPMDCK>  (241) 
2070.1880000000001

>  <r_qp_QPlogBB>  (241) 
0.32100000000000001

>  <r_qp_QPlogHERG>  (241) 
-6.867

>  <r_qp_QPlogKhsa>  (241) 
0.67600000000000005

>  <r_qp_QPlogKp>  (241) 
-2.202

>  <r_qp_QPlogPC16>  (241) 
14.233000000000001

>  <r_qp_QPlogPo/w>  (241) 
4.9969999999999999

>  <r_qp_QPlogPoct>  (241) 
19.954000000000001

>  <r_qp_QPlogPw>  (241) 
10.304

>  <r_qp_QPlogS>  (241) 
-4.5330000000000004

>  <r_qp_QPpolrz>  (241) 
42.188000000000002

>  <r_qp_SASA>  (241) 
664.98199999999997

>  <r_qp_SAamideO>  (241) 
0

>  <r_qp_SAfluorine>  (241) 
0

>  <r_qp_WPSA>  (241) 
114.908

>  <r_qp_accptHB>  (241) 
4.7000000000000002

>  <r_qp_dip^2/V>  (241) 
0.0126505

>  <r_qp_dipole>  (241) 
3.956

>  <r_qp_donorHB>  (241) 
2

>  <r_qp_glob>  (241) 
0.83798300000000003

>  <r_qp_mol_MW>  (241) 
426.34399999999999

>  <r_qp_volume>  (241) 
1236.8589999999999

>  <r_sd_BIOSOLVEIT.INFINISEE\_FTREES\_SIMILARITY>  (241) 
0.90200000000000002

>  <r_sd_BIOSOLVEIT.LOGP>  (241) 
4.1883999999999997

>  <r_sd_BIOSOLVEIT.MOLECULAR\_WEIGHT>  (241) 
427.35300000000001

>  <r_sd_BIOSOLVEIT.TPSA>  (241) 
54.659999999999997

>  <i_epik_Tot_Q>  (241) 
1

>  <i_epik_Tot_abs_Q>  (241) 
1

>  <i_f3d_flags>  (241) 
0

>  <i_i_glide_confnum>  (241) 
2

>  <i_i_glide_lignum>  (241) 
742

>  <i_i_glide_posenum>  (241) 
4

>  <i_i_glide_rotatable_bonds>  (241) 
8

>  <i_lp_mmshare_version>  (241) 
65135

>  <i_m_ct_format>  (241) 
2

>  <i_m_source_file_index>  (241) 
1957

>  <i_qp_#NandO>  (241) 
4

>  <i_qp_#acid>  (241) 
0

>  <i_qp_#amide>  (241) 
0

>  <i_qp_#amidine>  (241) 
0

>  <i_qp_#amine>  (241) 
1

>  <i_qp_#in34>  (241) 
0

>  <i_qp_#in56>  (241) 
21

>  <i_qp_#metab>  (241) 
5

>  <i_qp_#nonHatm>  (241) 
29

>  <i_qp_#noncon>  (241) 
0

>  <i_qp_#ringatoms>  (241) 
21

>  <i_qp_#rotor>  (241) 
8

>  <i_qp_#rtvFG>  (241) 
0

>  <i_qp_#stars>  (241) 
0

>  <i_qp_CNS>  (241) 
1

>  <i_qp_HumanOralAbsorption>  (241) 
3

>  <i_qp_RuleOfFive>  (241) 
0

>  <i_qp_RuleOfThree>  (241) 
0

>  <i_sd_BIOSOLVEIT.INFINISEE\_REAGENT1\_NAME>  (241) 
8296882

>  <i_sd_BIOSOLVEIT.INFINISEE\_REAGENT2\_NAME>  (241) 
7549102

>  <i_sd_BIOSOLVEIT.INFINISEE\_RESULT\_RANK>  (241) 
88001

>  <i_sd_version>  (241) 
0

>  <b_lp_Chiralities_Consistent>  (241) 
1

>  <b_sd_chiral_flag>  (241) 
0

>  <canonical_id>  (241) 
ATP-HTVS-269AF530E7D7

>  <compound_code>  (241) 
62595

>  <title>  (241) 
m_270004bbb____8296882____7549102

>  <variant>  (241) 
62595-6

>  <source_file>  (241) 
运行/运行/ATP-VSW/ATP-VSW-DOCK_HTVS_1-003_lib/ATP-VSW-DOCK_HTVS_1-003_lib.mae

>  <canonical_smiles>  (241) 
O[C@H](CNCc1[nH+]c2ccccc2n1Cc1ccc(Cl)cc1)c1ccccc1Cl

>  <scaffold>  (241) 
c1ccc(CCNCc2[nH+]c3ccccc3n2Cc2ccccc2)cc1

>  <molecular_formula>  (241) 
C23H22Cl2N3O+

$$$$
ATP-HTVS-27050A3A08BE
     RDKit          3D

 57 60  0  0  0  0  0  0  0  0999 V2000
  199.2288  178.0124  149.2835 N   0  0  1  0  0  0  0  0  0  0  0  0
  199.3533  179.3210  149.9810 C   0  0  1  0  0  0  0  0  0  0  0  0
  198.7095  179.3505  151.3626 C   0  0  0  0  0  0  0  0  0  0  0  0
  199.4941  179.1317  152.5171 C   0  0  0  0  0  0  0  0  0  0  0  0
  198.9141  179.1938  153.7958 C   0  0  0  0  0  0  0  0  0  0  0  0
  197.5418  179.4789  153.9397 C   0  0  0  0  0  0  0  0  0  0  0  0
  196.7501  179.6819  152.7860 C   0  0  0  0  0  0  0  0  0  0  0  0
  197.3347  179.6192  151.5069 C   0  0  0  0  0  0  0  0  0  0  0  0
  196.9275  179.5759  155.3317 C   0  0  1  0  0  0  0  0  0  0  0  0
  196.7128  180.9740  155.7630 N   0  0  1  0  0  0  0  0  0  0  0  0
  197.9465  181.7801  155.9156 C   0  0  1  0  0  0  0  0  0  0  0  0
  197.6195  183.2242  156.1485 C   0  0  0  0  0  0  0  0  0  0  0  0
  197.3979  183.8345  157.4329 C   0  0  0  0  0  0  0  0  0  0  0  0
  197.1508  185.2252  157.2313 C   0  0  0  0  0  0  0  0  0  0  0  0
  197.2216  185.4148  155.8641 N   0  0  0  0  0  0  0  0  0  0  0  0
  197.4914  184.2261  155.2052 C   0  0  0  0  0  0  0  0  0  0  0  0
  197.5726  184.2149  153.7395 C   0  0  0  0  0  0  0  0  0  0  0  0
  198.0634  185.3374  153.0242 C   0  0  0  0  0  0  0  0  0  0  0  0
  198.1372  185.3209  151.6113 C   0  0  0  0  0  0  0  0  0  0  0  0
  197.7185  184.1838  150.8927 C   0  0  0  0  0  0  0  0  0  0  0  0
  197.2072  183.0771  151.5881 C   0  0  0  0  0  0  0  0  0  0  0  0
  197.1344  183.0952  152.9961 C   0  0  0  0  0  0  0  0  0  0  0  0
  196.8908  186.1001  158.3006 C   0  0  0  0  0  0  0  0  0  0  0  0
  196.8885  185.6005  159.6171 C   0  0  0  0  0  0  0  0  0  0  0  0
  197.1353  184.2333  159.8465 C   0  0  0  0  0  0  0  0  0  0  0  0
  197.3793  183.3618  158.7695 C   0  0  0  0  0  0  0  0  0  0  0  0
  199.8221  176.8796  150.0351 C   0  0  2  0  0  0  0  0  0  0  0  0
  197.8565  177.7194  148.8107 C   0  0  2  0  0  0  0  0  0  0  0  0
  196.0858  181.4385  155.1199 H   0  0  0  0  0  0  0  0  0  0  0  0
  200.4113  179.5671  150.0757 H   0  0  0  0  0  0  0  0  0  0  0  0
  198.9301  180.1142  149.3647 H   0  0  0  0  0  0  0  0  0  0  0  0
  200.5546  178.9441  152.4268 H   0  0  0  0  0  0  0  0  0  0  0  0
  199.5325  179.0380  154.6697 H   0  0  0  0  0  0  0  0  0  0  0  0
  195.6974  179.9035  152.8726 H   0  0  0  0  0  0  0  0  0  0  0  0
  196.7243  179.8073  150.6369 H   0  0  0  0  0  0  0  0  0  0  0  0
  195.9645  179.0652  155.3371 H   0  0  0  0  0  0  0  0  0  0  0  0
  197.5443  179.0690  156.0754 H   0  0  0  0  0  0  0  0  0  0  0  0
  198.5250  181.3694  156.7445 H   0  0  0  0  0  0  0  0  0  0  0  0
  198.5792  181.7077  155.0347 H   0  0  0  0  0  0  0  0  0  0  0  0
  197.0536  186.2851  155.3774 H   0  0  0  0  0  0  0  0  0  0  0  0
  198.3873  186.2236  153.5542 H   0  0  0  0  0  0  0  0  0  0  0  0
  198.5152  186.1890  151.0814 H   0  0  0  0  0  0  0  0  0  0  0  0
  197.7800  184.1604  149.8160 H   0  0  0  0  0  0  0  0  0  0  0  0
  196.8696  182.2133  151.0412 H   0  0  0  0  0  0  0  0  0  0  0  0
  196.6910  182.2455  153.4946 H   0  0  0  0  0  0  0  0  0  0  0  0
  196.7052  187.1488  158.1124 H   0  0  0  0  0  0  0  0  0  0  0  0
  196.7016  186.2652  160.4457 H   0  0  0  0  0  0  0  0  0  0  0  0
  197.1296  183.8416  160.8532 H   0  0  0  0  0  0  0  0  0  0  0  0
  197.5497  182.3138  158.9738 H   0  0  0  0  0  0  0  0  0  0  0  0
  199.2697  176.6683  150.9519 H   0  0  0  0  0  0  0  0  0  0  0  0
  200.8572  177.0914  150.3057 H   0  0  0  0  0  0  0  0  0  0  0  0
  199.8176  175.9716  149.4318 H   0  0  0  0  0  0  0  0  0  0  0  0
  197.1772  177.5496  149.6465 H   0  0  0  0  0  0  0  0  0  0  0  0
  197.8442  176.8247  148.1846 H   0  0  0  0  0  0  0  0  0  0  0  0
  197.4660  178.5461  148.2141 H   0  0  0  0  0  0  0  0  0  0  0  0
  199.7850  178.1025  148.4438 H   0  0  0  0  0  0  0  0  0  0  0  0
  196.2373  180.9122  156.6571 H   0  0  0  0  0  0  0  0  0  0  0  0
  1  2  1  0
  1 27  1  0
  1 28  1  0
  1 56  1  6
  2  3  1  0
  2 30  1  1
  2 31  1  0
  3  4  1  0
  3  8  2  0
  4  5  2  0
  4 32  1  0
  5  6  1  0
  5 33  1  0
  6  7  2  0
  6  9  1  0
  7  8  1  0
  7 34  1  0
  8 35  1  0
  9 10  1  0
  9 36  1  6
  9 37  1  0
 10 11  1  0
 10 29  1  6
 10 57  1  0
 11 12  1  0
 11 38  1  1
 11 39  1  0
 12 13  1  0
 12 16  2  0
 13 14  1  0
 13 26  2  0
 14 15  1  0
 14 23  2  0
 15 16  1  0
 15 40  1  0
 16 17  1  0
 17 18  2  0
 17 22  1  0
 18 19  1  0
 18 41  1  0
 19 20  2  0
 19 42  1  0
 20 21  1  0
 20 43  1  0
 21 22  2  0
 21 44  1  0
 22 45  1  0
 23 24  1  0
 23 46  1  0
 24 25  2  0
 24 47  1  0
 25 26  1  0
 25 48  1  0
 26 49  1  0
 27 50  1  1
 27 51  1  0
 27 52  1  0
 28 53  1  1
 28 54  1  0
 28 55  1  0
M  CHG  2   1   1  10   1
M  END
>  <s_epik_cmdline>  (242) 
J2VwaWtfcHl0aG9uJywgJy1waCcsICc3LjAwMDAwMCcsICctcGh0JywgJzIuMDAwMDAwJywgJy1tcycsICcxNicsICctdG4nLCAnOCcsICctbWEnLCAnMjAwJywgJy1pbWFlJywgJzxpbmZpbGUubWFlPicsICctb21hZScsICc8b3V0ZmlsZS5tYWU+Jw==

>  <s_epik_input>  (242) 
W0NIM11OKFtDSDNdKVtDSDJdYzFbY0hdW2NIXWMoW2NIXVtjSF0xKVtDSDJdW05IXVtDSDJdYzJjKFtuSF1jKGMyMylbY0hdW2NIXVtjSF1bY0hdMyktYzRbY0hdW2NIXVtjSF1bY0hdW2NIXTQ=

>  <s_i_glide_gridfile>  (242) 
ATP-Grid

>  <s_lp_Force_Field>  (242) 
OPLS_2005

>  <s_lp_Variant>  (242) 
a4____28655____20262-1

>  <s_lp_label>  (242) 
387_sdstereoexpander_1_neutralizer_1_epik_1_stereoizer_1

>  <s_m_source_file>  (242) 
ATP-VSW-LIGPREP-003-in.maegz

>  <s_sd_BIOSOLVEIT.INFINISEE\_QUERY\_NAME>  (242) 
Ref-Lig

>  <s_sd_BIOSOLVEIT.INFINISEE\_QUERY\_SMILES>  (242) 
S(c1nc2c(cc1C[NH2+]Cc3ccc(cc3)C[NH+](C)C)cccc2)Cc4ccccc4

>  <s_sd_BIOSOLVEIT.INFINISEE\_REACTION\_NAME>  (242) 
a4

>  <s_sd_BIOSOLVEIT.INFINISEE\_REAGENT1\_SMILES>  (242) 
[R1*]NCc1ccc(cc1)CN(C)C

>  <s_sd_BIOSOLVEIT.INFINISEE\_REAGENT2\_SMILES>  (242) 
[R1*]CC=1c2c(NC1c3ccccc3)cccc2

>  <s_sd_BIOSOLVEIT.INFINISEE\_SPACE>  (242) 
FreedomSpace_5bn_2023-06

>  <s_vsw_compound_code>  (242) 
12355

>  <s_vsw_variant>  (242) 
12355-1

>  <r_epik_Charging_Adjusted_Penalty>  (242) 
0.31365475066438298

>  <r_epik_Ionization_Penalty>  (242) 
0.15720000000000001

>  <r_epik_Ionization_Penalty_Charging>  (242) 
0.15720000000000001

>  <r_epik_Ionization_Penalty_Neutral>  (242) 
0

>  <r_epik_State_Penalty>  (242) 
0.1565

>  <r_i_docking_score>  (242) 
-4.7079918146454398

>  <r_i_glide_ecoul>  (242) 
-11.367679595947299

>  <r_i_glide_eff_state_penalty>  (242) 
0.1565

>  <r_i_glide_einternal>  (242) 
1.62245786190033

>  <r_i_glide_emodel>  (242) 
-59.430367283096402

>  <r_i_glide_energy>  (242) 
-39.793840408325202

>  <r_i_glide_erotb>  (242) 
0.83914979117849398

>  <r_i_glide_esite>  (242) 
-0.088817234554292204

>  <r_i_glide_evdw>  (242) 
-28.426160812377901

>  <r_i_glide_gscore>  (242) 
-4.8644918146454401

>  <r_i_glide_hbond>  (242) 
-0.0639823016592201

>  <r_i_glide_ligand_efficiency>  (242) 
-0.16814256480876599

>  <r_i_glide_ligand_efficiency_ln>  (242) 
-1.0867427434664301

>  <r_i_glide_ligand_efficiency_sa>  (242) 
-0.51057985743406797

>  <r_i_glide_lipo>  (242) 
-1.3233674986903501

>  <r_i_glide_metal>  (242) 
-0

>  <r_i_glide_rewards>  (242) 
-1.10101459090909

>  <r_lp_Energy>  (242) 
15.547139

>  <r_qp_ACxDN^.5/SA>  (242) 
0.0079147999999999996

>  <r_qp_CIQPlogS>  (242) 
-4.3760000000000003

>  <r_qp_EA(eV)>  (242) 
0.34000000000000002

>  <r_qp_FISA>  (242) 
37.231999999999999

>  <r_qp_FOSA>  (242) 
188.96000000000001

>  <r_qp_IP(eV)>  (242) 
8.2029999999999994

>  <r_qp_Jm>  (242) 
0.0257834320946899

>  <r_qp_PISA>  (242) 
399.18700000000001

>  <r_qp_PSA>  (242) 
32.393999999999998

>  <r_qp_PercentHumanOralAbsorption>  (242) 
96.215999999999994

>  <r_qp_QPPCaco>  (242) 
273.29599999999999

>  <r_qp_QPPMDCK>  (242) 
148.99700000000001

>  <r_qp_QPlogBB>  (242) 
0.67600000000000005

>  <r_qp_QPlogHERG>  (242) 
-6.8719999999999999

>  <r_qp_QPlogKhsa>  (242) 
0.90900000000000003

>  <r_qp_QPlogKp>  (242) 
-4.3490000000000002

>  <r_qp_QPlogPC16>  (242) 
13.019

>  <r_qp_QPlogPo/w>  (242) 
4.3819999999999997

>  <r_qp_QPlogPoct>  (242) 
18.815000000000001

>  <r_qp_QPlogPw>  (242) 
9.2460000000000004

>  <r_qp_QPlogS>  (242) 
-2.8079999999999998

>  <r_qp_QPpolrz>  (242) 
42.173000000000002

>  <r_qp_SASA>  (242) 
625.37800000000004

>  <r_qp_SAamideO>  (242) 
0

>  <r_qp_SAfluorine>  (242) 
0

>  <r_qp_WPSA>  (242) 
0

>  <r_qp_accptHB>  (242) 
3.5

>  <r_qp_dip^2/V>  (242) 
0.0094584000000000005

>  <r_qp_dipole>  (242) 
3.3809999999999998

>  <r_qp_donorHB>  (242) 
2

>  <r_qp_glob>  (242) 
0.877413

>  <r_qp_mol_MW>  (242) 
369.50799999999998

>  <r_qp_volume>  (242) 
1208.5719999999999

>  <r_sd_BIOSOLVEIT.INFINISEE\_FTREES\_SIMILARITY>  (242) 
0.90900000000000003

>  <r_sd_BIOSOLVEIT.LOGP>  (242) 
2.7429999999999999

>  <r_sd_BIOSOLVEIT.MOLECULAR\_WEIGHT>  (242) 
371.52499999999998

>  <r_sd_BIOSOLVEIT.TPSA>  (242) 
36.840000000000003

>  <i_epik_Tot_Q>  (242) 
2

>  <i_epik_Tot_abs_Q>  (242) 
2

>  <i_f3d_flags>  (242) 
0

>  <i_i_glide_confnum>  (242) 
2

>  <i_i_glide_lignum>  (242) 
231

>  <i_i_glide_posenum>  (242) 
20

>  <i_i_glide_rotatable_bonds>  (242) 
7

>  <i_lp_mmshare_version>  (242) 
65135

>  <i_m_ct_format>  (242) 
2

>  <i_m_source_file_index>  (242) 
387

>  <i_qp_#NandO>  (242) 
3

>  <i_qp_#acid>  (242) 
0

>  <i_qp_#amide>  (242) 
0

>  <i_qp_#amidine>  (242) 
0

>  <i_qp_#amine>  (242) 
2

>  <i_qp_#in34>  (242) 
0

>  <i_qp_#in56>  (242) 
21

>  <i_qp_#metab>  (242) 
5

>  <i_qp_#nonHatm>  (242) 
28

>  <i_qp_#noncon>  (242) 
0

>  <i_qp_#ringatoms>  (242) 
21

>  <i_qp_#rotor>  (242) 
6

>  <i_qp_#rtvFG>  (242) 
0

>  <i_qp_#stars>  (242) 
0

>  <i_qp_CNS>  (242) 
2

>  <i_qp_HumanOralAbsorption>  (242) 
3

>  <i_qp_RuleOfFive>  (242) 
0

>  <i_qp_RuleOfThree>  (242) 
0

>  <i_sd_BIOSOLVEIT.INFINISEE\_REAGENT1\_NAME>  (242) 
28655

>  <i_sd_BIOSOLVEIT.INFINISEE\_REAGENT2\_NAME>  (242) 
20262

>  <i_sd_BIOSOLVEIT.INFINISEE\_RESULT\_RANK>  (242) 
49920

>  <i_sd_version>  (242) 
0

>  <b_lp_Chiralities_Consistent>  (242) 
1

>  <b_sd_chiral_flag>  (242) 
0

>  <canonical_id>  (242) 
ATP-HTVS-27050A3A08BE

>  <compound_code>  (242) 
12355

>  <title>  (242) 
a4____28655____20262

>  <variant>  (242) 
12355-1

>  <source_file>  (242) 
运行/运行/ATP-VSW/ATP-VSW-DOCK_HTVS_1-003_lib/ATP-VSW-DOCK_HTVS_1-003_lib.mae

>  <canonical_smiles>  (242) 
C[NH+](C)Cc1ccc(C[NH2+]Cc2c(-c3ccccc3)[nH]c3ccccc23)cc1

>  <scaffold>  (242) 
c1ccc(C[NH2+]Cc2c(-c3ccccc3)[nH]c3ccccc23)cc1

>  <molecular_formula>  (242) 
C25H29N3+2

$$$$
ATP-HTVS-27135ACF267B
     RDKit          3D

 58 60  0  0  0  0  0  0  0  0999 V2000
  198.4639  185.9726  150.1306 Cl  0  0  0  0  0  0  0  0  0  0  0  0
  197.8864  184.4307  150.6380 C   0  0  0  0  0  0  0  0  0  0  0  0
  198.0239  183.3186  149.7894 C   0  0  0  0  0  0  0  0  0  0  0  0
  197.5564  182.0632  150.2004 C   0  0  0  0  0  0  0  0  0  0  0  0
  196.9407  181.9027  151.4598 C   0  0  0  0  0  0  0  0  0  0  0  0
  196.8052  183.0228  152.3119 C   0  0  0  0  0  0  0  0  0  0  0  0
  197.2789  184.2825  151.8996 C   0  0  0  0  0  0  0  0  0  0  0  0
  196.4232  180.5282  151.8901 C   0  0  2  0  0  0  0  0  0  0  0  0
  197.3774  179.7802  152.6724 N   0  0  0  0  0  0  0  0  0  0  0  0
  198.5008  179.2405  152.1597 N   0  0  0  0  0  0  0  0  0  0  0  0
  199.1774  178.7272  153.1465 N   0  0  0  0  0  0  0  0  0  0  0  0
  198.4572  178.8803  154.3241 C   0  0  0  0  0  0  0  0  0  0  0  0
  197.2762  179.4952  154.0214 C   0  0  0  0  0  0  0  0  0  0  0  0
  199.0874  178.5930  155.6951 C   0  0  1  0  0  0  0  0  0  0  0  0
  200.4840  179.1085  155.9082 N   0  0  1  0  0  0  0  0  0  0  0  0
  200.7035  180.5830  155.7262 C   0  0  1  0  0  0  0  0  0  0  0  0
  199.6408  181.4831  156.3838 C   0  0  0  0  0  0  0  0  0  0  0  0
  199.8741  182.3876  157.4006 C   0  0  0  0  0  0  0  0  0  0  0  0
  198.7903  183.1333  157.9162 C   0  0  0  0  0  0  0  0  0  0  0  0
  197.4635  182.9986  157.4405 C   0  0  0  0  0  0  0  0  0  0  0  0
  197.2142  182.1236  156.3893 C   0  0  0  0  0  0  0  0  0  0  0  0
  198.3448  181.4842  155.9357 C   0  0  0  0  0  0  0  0  0  0  0  0
  196.3114  183.7566  158.0109 C   0  0  1  0  0  0  0  0  0  0  0  0
  195.0853  182.9302  158.1476 N   0  0  2  0  0  0  0  0  0  0  0  0
  193.9786  183.7015  158.7336 C   0  0  2  0  0  0  0  0  0  0  0  0
  195.2934  181.6665  158.8772 C   0  0  2  0  0  0  0  0  0  0  0  0
  201.0698  178.6457  157.1974 C   0  0  2  0  0  0  0  0  0  0  0  0
  195.9551  179.6517  150.7161 C   0  0  2  0  0  0  0  0  0  0  0  0
  198.4887  183.4194  148.8216 H   0  0  0  0  0  0  0  0  0  0  0  0
  197.6715  181.2235  149.5377 H   0  0  0  0  0  0  0  0  0  0  0  0
  196.3356  182.9324  153.2823 H   0  0  0  0  0  0  0  0  0  0  0  0
  197.1715  185.1412  152.5464 H   0  0  0  0  0  0  0  0  0  0  0  0
  195.5683  180.7032  152.5189 H   0  0  0  0  0  0  0  0  0  0  0  0
  196.5622  180.0560  154.6163 H   0  0  0  0  0  0  0  0  0  0  0  0
  198.4814  178.9660  156.5165 H   0  0  0  0  0  0  0  0  0  0  0  0
  199.0880  177.5214  155.7967 H   0  0  0  0  0  0  0  0  0  0  0  0
  201.6608  180.8669  156.1517 H   0  0  0  0  0  0  0  0  0  0  0  0
  200.7776  180.7915  154.6532 H   0  0  0  0  0  0  0  0  0  0  0  0
  200.8735  182.4708  157.7448 H   0  0  0  0  0  0  0  0  0  0  0  0
  198.9945  183.8091  158.6931 H   0  0  0  0  0  0  0  0  0  0  0  0
  196.2262  181.9221  155.9530 H   0  0  0  0  0  0  0  0  0  0  0  0
  198.3225  180.9621  155.0929 H   0  0  0  0  0  0  0  0  0  0  0  0
  196.6214  184.1539  158.9648 H   0  0  0  0  0  0  0  0  0  0  0  0
  196.1328  184.5902  157.3403 H   0  0  0  0  0  0  0  0  0  0  0  0
  194.2158  184.0161  159.7510 H   0  0  0  0  0  0  0  0  0  0  0  0
  193.0704  183.1016  158.7615 H   0  0  0  0  0  0  0  0  0  0  0  0
  193.7747  184.5888  158.1385 H   0  0  0  0  0  0  0  0  0  0  0  0
  195.6446  181.8289  159.8869 H   0  0  0  0  0  0  0  0  0  0  0  0
  196.0728  181.0430  158.3822 H   0  0  0  0  0  0  0  0  0  0  0  0
  194.3907  181.0590  158.8952 H   0  0  0  0  0  0  0  0  0  0  0  0
  200.5305  179.0715  158.0468 H   0  0  0  0  0  0  0  0  0  0  0  0
  202.1214  178.9411  157.2906 H   0  0  0  0  0  0  0  0  0  0  0  0
  201.0346  177.5583  157.2803 H   0  0  0  0  0  0  0  0  0  0  0  0
  195.1701  180.1453  150.1546 H   0  0  0  0  0  0  0  0  0  0  0  0
  195.5730  178.7042  151.0880 H   0  0  0  0  0  0  0  0  0  0  0  0
  196.7708  179.4151  150.0353 H   0  0  0  0  0  0  0  0  0  0  0  0
  194.7931  182.6829  157.2043 H   0  0  0  0  0  0  0  0  0  0  0  0
  201.0492  178.6551  155.1985 H   0  0  0  0  0  0  0  0  0  0  0  0
  1  2  1  0
  2  3  1  0
  2  7  2  0
  3  4  2  0
  3 29  1  0
  4  5  1  0
  4 30  1  0
  5  6  2  0
  5  8  1  0
  6  7  1  0
  6 31  1  0
  7 32  1  0
  8  9  1  0
  8 28  1  0
  8 33  1  1
  9 10  1  0
  9 13  1  0
 10 11  2  0
 11 12  1  0
 12 13  2  0
 12 14  1  0
 13 34  1  0
 14 15  1  0
 14 35  1  1
 14 36  1  0
 15 16  1  0
 15 27  1  0
 15 58  1  6
 16 17  1  0
 16 37  1  1
 16 38  1  0
 17 18  1  0
 17 22  2  0
 18 19  2  0
 18 39  1  0
 19 20  1  0
 19 40  1  0
 20 21  2  0
 20 23  1  0
 21 22  1  0
 21 41  1  0
 22 42  1  0
 23 24  1  0
 23 43  1  1
 23 44  1  0
 24 25  1  0
 24 26  1  0
 24 57  1  6
 25 45  1  1
 25 46  1  0
 25 47  1  0
 26 48  1  1
 26 49  1  0
 26 50  1  0
 27 51  1  1
 27 52  1  0
 27 53  1  0
 28 54  1  6
 28 55  1  0
 28 56  1  0
M  CHG  2  15   1  24   1
M  END
>  <s_epik_cmdline>  (243) 
J2VwaWtfcHl0aG9uJywgJy1waCcsICc3LjAwMDAwMCcsICctcGh0JywgJzIuMDAwMDAwJywgJy1tcycsICcxNicsICctdG4nLCAnOCcsICctbWEnLCAnMjAwJywgJy1pbWFlJywgJzxpbmZpbGUubWFlPicsICctb21hZScsICc8b3V0ZmlsZS5tYWU+Jw==

>  <s_epik_input>  (243) 
Q2xjMVtjSF1bY0hdYyhbY0hdW2NIXTEpW0NAQEhdKFtDSDNdKW4ybm5jKFtjSF0yKVtDSDJdTihbQ0gzXSlbQ0gyXWMzW2NIXVtjSF1jKFtjSF1bY0hdMylbQ0gyXU4oW0NIM10pW0NIM10=

>  <s_i_glide_gridfile>  (243) 
ATP-Grid

>  <s_lp_Force_Field>  (243) 
OPLS_2005

>  <s_lp_Variant>  (243) 
m_274952bba____12996510____12611784____19965296-3

>  <s_lp_label>  (243) 
1848_sdstereoexpander_1_neutralizer_1_epik_2_stereoizer_1

>  <s_m_source_file>  (243) 
ATP-VSW-LIGPREP-003-in.maegz

>  <s_sd_BIOSOLVEIT.INFINISEE\_QUERY\_NAME>  (243) 
Ref-Lig

>  <s_sd_BIOSOLVEIT.INFINISEE\_QUERY\_SMILES>  (243) 
S(c1nc2c(cc1C[NH2+]Cc3ccc(cc3)C[NH+](C)C)cccc2)Cc4ccccc4

>  <s_sd_BIOSOLVEIT.INFINISEE\_REACTION\_NAME>  (243) 
m_274952bba

>  <s_sd_BIOSOLVEIT.INFINISEE\_REAGENT1\_SMILES>  (243) 
[R1*]N(Cc1ccc(cc1)CN(C)C)C

>  <s_sd_BIOSOLVEIT.INFINISEE\_REAGENT2\_SMILES>  (243) 
[R2*]C(=C[R3*])C[R1*]

>  <s_sd_BIOSOLVEIT.INFINISEE\_REAGENT3\_SMILES>  (243) 
[R2*]N=NN([R3*])C(c1ccc(Cl)cc1)C

>  <s_sd_BIOSOLVEIT.INFINISEE\_SPACE>  (243) 
REALSpace_44bn_2023-08

>  <s_vsw_compound_code>  (243) 
59107

>  <s_vsw_variant>  (243) 
59107-3

>  <r_epik_Charging_Adjusted_Penalty>  (243) 
1.3767577133437701

>  <r_epik_Ionization_Penalty>  (243) 
0.69099999999999995

>  <r_epik_Ionization_Penalty_Charging>  (243) 
0.69099999999999995

>  <r_epik_Ionization_Penalty_Neutral>  (243) 
0

>  <r_epik_State_Penalty>  (243) 
0.68579999999999997

>  <r_i_docking_score>  (243) 
-4.1981680949718596

>  <r_i_glide_ecoul>  (243) 
-13.502067565918001

>  <r_i_glide_eff_state_penalty>  (243) 
0.68579999999999997

>  <r_i_glide_einternal>  (243) 
5.5698447227478001

>  <r_i_glide_emodel>  (243) 
-60.294689856407203

>  <r_i_glide_energy>  (243) 
-41.442874908447301

>  <r_i_glide_erotb>  (243) 
0.85765514288532196

>  <r_i_glide_esite>  (243) 
-0.083849407674197005

>  <r_i_glide_evdw>  (243) 
-27.9408073425293

>  <r_i_glide_gscore>  (243) 
-4.88396809497186

>  <r_i_glide_hbond>  (243) 
-0.20000000000000001

>  <r_i_glide_ligand_efficiency>  (243) 
-0.14993457482042299

>  <r_i_glide_ligand_efficiency_ln>  (243) 
-0.96906045989091005

>  <r_i_glide_ligand_efficiency_sa>  (243) 
-0.45528967589685798

>  <r_i_glide_lipo>  (243) 
-0.99890577411001402

>  <r_i_glide_metal>  (243) 
-0

>  <r_i_glide_rewards>  (243) 
-1.0365175540588101

>  <r_lp_Energy>  (243) 
18.441510000000001

>  <r_lp_tautomer_probability>  (243) 
1

>  <r_qp_ACxDN^.5/SA>  (243) 
0

>  <r_qp_CIQPlogS>  (243) 
-3.4319999999999999

>  <r_qp_EA(eV)>  (243) 
0.29899999999999999

>  <r_qp_FISA>  (243) 
18.018999999999998

>  <r_qp_FOSA>  (243) 
327.488

>  <r_qp_IP(eV)>  (243) 
8.8960000000000008

>  <r_qp_Jm>  (243) 
0.18984446303223701

>  <r_qp_PISA>  (243) 
247.79300000000001

>  <r_qp_PSA>  (243) 
33.314999999999998

>  <r_qp_PercentHumanOralAbsorption>  (243) 
95.826999999999998

>  <r_qp_QPPCaco>  (243) 
415.74799999999999

>  <r_qp_QPPMDCK>  (243) 
578.94000000000005

>  <r_qp_QPlogBB>  (243) 
0.88800000000000001

>  <r_qp_QPlogHERG>  (243) 
-6.5919999999999996

>  <r_qp_QPlogKhsa>  (243) 
0.20799999999999999

>  <r_qp_QPlogKp>  (243) 
-4.3360000000000003

>  <r_qp_QPlogPC16>  (243) 
12.324

>  <r_qp_QPlogPo/w>  (243) 
3.7589999999999999

>  <r_qp_QPlogPoct>  (243) 
17.241

>  <r_qp_QPlogPw>  (243) 
7.79

>  <r_qp_QPlogS>  (243) 
-2.173

>  <r_qp_QPpolrz>  (243) 
41.649000000000001

>  <r_qp_SASA>  (243) 
664.95500000000004

>  <r_qp_SAamideO>  (243) 
0

>  <r_qp_SAfluorine>  (243) 
0

>  <r_qp_WPSA>  (243) 
71.655000000000001

>  <r_qp_accptHB>  (243) 
6.5

>  <r_qp_dip^2/V>  (243) 
0.0114781

>  <r_qp_dipole>  (243) 
3.8090000000000002

>  <r_qp_donorHB>  (243) 
0

>  <r_qp_glob>  (243) 
0.85010189999999997

>  <r_qp_mol_MW>  (243) 
397.94999999999999

>  <r_qp_volume>  (243) 
1263.7080000000001

>  <r_sd_BIOSOLVEIT.INFINISEE\_FTREES\_SIMILARITY>  (243) 
0.90300000000000002

>  <r_sd_BIOSOLVEIT.LOGP>  (243) 
1.4001999999999999

>  <r_sd_BIOSOLVEIT.MOLECULAR\_WEIGHT>  (243) 
399.96699999999998

>  <r_sd_BIOSOLVEIT.TPSA>  (243) 
39.590000000000003

>  <i_epik_Tot_Q>  (243) 
2

>  <i_epik_Tot_abs_Q>  (243) 
2

>  <i_f3d_flags>  (243) 
0

>  <i_i_glide_confnum>  (243) 
2

>  <i_i_glide_lignum>  (243) 
691

>  <i_i_glide_posenum>  (243) 
7

>  <i_i_glide_rotatable_bonds>  (243) 
8

>  <i_lp_mmshare_version>  (243) 
65135

>  <i_m_ct_format>  (243) 
2

>  <i_m_source_file_index>  (243) 
1848

>  <i_qp_#NandO>  (243) 
5

>  <i_qp_#acid>  (243) 
0

>  <i_qp_#amide>  (243) 
0

>  <i_qp_#amidine>  (243) 
0

>  <i_qp_#amine>  (243) 
2

>  <i_qp_#in34>  (243) 
0

>  <i_qp_#in56>  (243) 
17

>  <i_qp_#metab>  (243) 
6

>  <i_qp_#nonHatm>  (243) 
28

>  <i_qp_#noncon>  (243) 
0

>  <i_qp_#ringatoms>  (243) 
17

>  <i_qp_#rotor>  (243) 
8

>  <i_qp_#rtvFG>  (243) 
0

>  <i_qp_#stars>  (243) 
0

>  <i_qp_CNS>  (243) 
2

>  <i_qp_HumanOralAbsorption>  (243) 
3

>  <i_qp_RuleOfFive>  (243) 
0

>  <i_qp_RuleOfThree>  (243) 
0

>  <i_sd_BIOSOLVEIT.INFINISEE\_REAGENT1\_NAME>  (243) 
12996510

>  <i_sd_BIOSOLVEIT.INFINISEE\_REAGENT2\_NAME>  (243) 
12611784

>  <i_sd_BIOSOLVEIT.INFINISEE\_REAGENT3\_NAME>  (243) 
19965296

>  <i_sd_BIOSOLVEIT.INFINISEE\_RESULT\_RANK>  (243) 
81069

>  <i_sd_version>  (243) 
0

>  <b_lp_Chiralities_Consistent>  (243) 
1

>  <b_sd_chiral_flag>  (243) 
0

>  <canonical_id>  (243) 
ATP-HTVS-27135ACF267B

>  <compound_code>  (243) 
59107

>  <title>  (243) 
m_274952bba____12996510____12611784____19965296

>  <variant>  (243) 
59107-3

>  <source_file>  (243) 
运行/运行/ATP-VSW/ATP-VSW-DOCK_HTVS_1-003_lib/ATP-VSW-DOCK_HTVS_1-003_lib.mae

>  <canonical_smiles>  (243) 
C[C@H](c1ccc(Cl)cc1)n1cc(C[N@H+](C)Cc2ccc(C[NH+](C)C)cc2)nn1

>  <scaffold>  (243) 
c1ccc(C[NH2+]Cc2cn(Cc3ccccc3)nn2)cc1

>  <molecular_formula>  (243) 
C22H30ClN5+2

$$$$
ATP-HTVS-27537703FBA2
     RDKit          3D

 59 62  0  0  0  0  0  0  0  0999 V2000
  194.0841  182.8367  158.9496 F   0  0  0  0  0  0  0  0  0  0  0  0
  195.0457  183.7950  158.8604 C   0  0  0  0  0  0  0  0  0  0  0  0
  196.0259  183.7623  157.8339 C   0  0  0  0  0  0  0  0  0  0  0  0
  196.8955  184.8279  157.6493 C   0  0  0  0  0  0  0  0  0  0  0  0
  197.8224  184.8966  156.6269 N   0  0  0  0  0  0  0  0  0  0  0  0
  196.8833  185.9036  158.6138 C   0  0  0  0  0  0  0  0  0  0  0  0
  195.9535  185.9130  159.6540 C   0  0  0  0  0  0  0  0  0  0  0  0
  194.9990  184.8803  159.7522 C   0  0  0  0  0  0  0  0  0  0  0  0
  196.0736  182.5626  156.8813 C   0  0  1  0  0  0  0  0  0  0  0  0
  197.3205  181.8092  156.9781 N   0  0  0  0  0  0  0  0  0  0  0  0
  197.8262  181.1113  155.8707 C   0  0  0  0  0  0  0  0  0  0  0  0
  197.0013  180.8662  154.8234 N   0  0  0  0  0  0  0  0  0  0  0  0
  197.5183  180.2455  153.7414 C   0  0  0  0  0  0  0  0  0  0  0  0
  198.8958  179.8804  153.6919 C   0  0  0  0  0  0  0  0  0  0  0  0
  199.7187  180.1377  154.7284 N   0  0  0  0  0  0  0  0  0  0  0  0
  199.1940  180.7290  155.8218 C   0  0  0  0  0  0  0  0  0  0  0  0
  200.0519  180.9746  156.8973 N   0  0  0  0  0  0  0  0  0  0  0  0
  201.4406  181.3337  156.6408 C   0  0  1  0  0  0  0  0  0  0  0  0
  202.2765  181.4590  157.9108 C   0  0  0  0  0  0  0  0  0  0  0  0
  201.8756  182.2355  159.0432 C   0  0  0  0  0  0  0  0  0  0  0  0
  202.6720  182.2010  160.2060 C   0  0  0  0  0  0  0  0  0  0  0  0
  203.8944  181.5457  160.2291 C   0  0  0  0  0  0  0  0  0  0  0  0
  204.6983  181.6401  161.3132 F   0  0  0  0  0  0  0  0  0  0  0  0
  204.3130  180.7897  159.1170 C   0  0  0  0  0  0  0  0  0  0  0  0
  203.4863  180.7231  157.9755 C   0  0  0  0  0  0  0  0  0  0  0  0
  200.6439  183.1502  159.0497 C   0  0  1  0  0  0  0  0  0  0  0  0
  200.9221  184.5931  159.2335 N   0  0  0  0  0  0  0  0  0  0  0  0
  199.6967  185.3325  159.0769 C   0  0  2  0  0  0  0  0  0  0  0  0
  201.4395  184.9384  160.5484 C   0  0  2  0  0  0  0  0  0  0  0  0
  199.4097  179.2422  152.5468 C   0  0  0  0  0  0  0  0  0  0  0  0
  198.5793  178.9624  151.4487 C   0  0  0  0  0  0  0  0  0  0  0  0
  197.2216  179.3212  151.4916 C   0  0  0  0  0  0  0  0  0  0  0  0
  196.6992  179.9570  152.6313 C   0  0  0  0  0  0  0  0  0  0  0  0
  198.6193  185.4825  156.6405 H   0  0  0  0  0  0  0  0  0  0  0  0
  197.9804  184.0334  156.1052 H   0  0  0  0  0  0  0  0  0  0  0  0
  197.5940  186.6972  158.5580 H   0  0  0  0  0  0  0  0  0  0  0  0
  195.9589  186.7244  160.3721 H   0  0  0  0  0  0  0  0  0  0  0  0
  194.2241  184.9387  160.5076 H   0  0  0  0  0  0  0  0  0  0  0  0
  195.2206  181.8987  157.0396 H   0  0  0  0  0  0  0  0  0  0  0  0
  195.9791  182.9768  155.8806 H   0  0  0  0  0  0  0  0  0  0  0  0
  197.8923  181.9700  157.7898 H   0  0  0  0  0  0  0  0  0  0  0  0
  199.6308  181.4337  157.6878 H   0  0  0  0  0  0  0  0  0  0  0  0
  201.8849  180.5611  156.0077 H   0  0  0  0  0  0  0  0  0  0  0  0
  201.4867  182.2743  156.0863 H   0  0  0  0  0  0  0  0  0  0  0  0
  202.3713  182.7287  161.1024 H   0  0  0  0  0  0  0  0  0  0  0  0
  205.2432  180.2270  159.1696 H   0  0  0  0  0  0  0  0  0  0  0  0
  203.7783  180.0835  157.1538 H   0  0  0  0  0  0  0  0  0  0  0  0
  200.0638  183.0641  158.1273 H   0  0  0  0  0  0  0  0  0  0  0  0
  199.9656  182.7786  159.8232 H   0  0  0  0  0  0  0  0  0  0  0  0
  199.8524  186.4099  159.2959 H   0  0  0  0  0  0  0  0  0  0  0  0
  198.9500  184.9353  159.8021 H   0  0  0  0  0  0  0  0  0  0  0  0
  199.4069  185.1817  158.0358 H   0  0  0  0  0  0  0  0  0  0  0  0
  201.4359  186.0303  160.6416 H   0  0  0  0  0  0  0  0  0  0  0  0
  202.4517  184.5438  160.6372 H   0  0  0  0  0  0  0  0  0  0  0  0
  200.7713  184.4888  161.2872 H   0  0  0  0  0  0  0  0  0  0  0  0
  200.4545  178.9699  152.5158 H   0  0  0  0  0  0  0  0  0  0  0  0
  198.9866  178.4749  150.5761 H   0  0  0  0  0  0  0  0  0  0  0  0
  196.5797  179.1090  150.6507 H   0  0  0  0  0  0  0  0  0  0  0  0
  195.6576  180.2334  152.6627 H   0  0  0  0  0  0  0  0  0  0  0  0
  1  2  1  0
  2  3  2  0
  2  8  1  0
  3  4  1  0
  3  9  1  0
  4  5  1  0
  4  6  2  0
  5 34  1  0
  5 35  1  0
  6  7  1  0
  6 36  1  0
  7  8  2  0
  7 37  1  0
  8 38  1  0
  9 10  1  0
  9 39  1  1
  9 40  1  0
 10 11  1  0
 10 41  1  0
 11 12  2  0
 11 16  1  0
 12 13  1  0
 13 14  1  0
 13 33  2  0
 14 15  1  0
 14 30  2  0
 15 16  2  0
 16 17  1  0
 17 18  1  0
 17 42  1  0
 18 19  1  0
 18 43  1  6
 18 44  1  0
 19 20  2  0
 19 25  1  0
 20 21  1  0
 20 26  1  0
 21 22  2  0
 21 45  1  0
 22 23  1  0
 22 24  1  0
 24 25  2  0
 24 46  1  0
 25 47  1  0
 26 27  1  0
 26 48  1  6
 26 49  1  0
 27 28  1  0
 27 29  1  0
 28 50  1  1
 28 51  1  0
 28 52  1  0
 29 53  1  1
 29 54  1  0
 29 55  1  0
 30 31  1  0
 30 56  1  0
 31 32  2  0
 31 57  1  0
 32 33  1  0
 32 58  1  0
 33 59  1  0
M  END
>  <s_epik_cmdline>  (244) 
J2VwaWtfcHl0aG9uJywgJy1waCcsICc3LjAwMDAwMCcsICctcGh0JywgJzIuMDAwMDAwJywgJy1tcycsICcxNicsICctdG4nLCAnOCcsICctbWEnLCAnMjAwJywgJy1pbWFlJywgJzxpbmZpbGUubWFlPicsICctb21hZScsICc8b3V0ZmlsZS5tYWU+Jw==

>  <s_epik_input>  (244) 
W2NIXTFbY0hdW2NIXWMoW05IMl0pYyhjMUYpW0NIMl1bTkhdYyhuMiljKG5jKGMyMylbY0hdW2NIXVtjSF1bY0hdMylbTkhdW0NIMl1jNGMoW0NIMl1OKFtDSDNdKVtDSDNdKVtjSF1jKEYpW2NIXVtjSF00

>  <s_i_glide_gridfile>  (244) 
ATP-Grid

>  <s_lp_Force_Field>  (244) 
OPLS_2005

>  <s_lp_Variant>  (244) 
m_282030aaa____21896940____23157418____21939938-2

>  <s_lp_label>  (244) 
1677_sdstereoexpander_1_neutralizer_1_epik_2_stereoizer_1

>  <s_m_source_file>  (244) 
ATP-VSW-LIGPREP-003-in.maegz

>  <s_sd_BIOSOLVEIT.INFINISEE\_QUERY\_NAME>  (244) 
Ref-Lig

>  <s_sd_BIOSOLVEIT.INFINISEE\_QUERY\_SMILES>  (244) 
S(c1nc2c(cc1C[NH2+]Cc3ccc(cc3)C[NH+](C)C)cccc2)Cc4ccccc4

>  <s_sd_BIOSOLVEIT.INFINISEE\_REACTION\_NAME>  (244) 
m_282030aaa

>  <s_sd_BIOSOLVEIT.INFINISEE\_REAGENT1\_SMILES>  (244) 
[R1*]NCc1c(cc(F)cc1)CN(C)C

>  <s_sd_BIOSOLVEIT.INFINISEE\_REAGENT2\_SMILES>  (244) 
[R1*]c1nc2c(nc1[R2*])cccc2

>  <s_sd_BIOSOLVEIT.INFINISEE\_REAGENT3\_SMILES>  (244) 
[R2*]NCc1c(F)cccc1N

>  <s_sd_BIOSOLVEIT.INFINISEE\_SPACE>  (244) 
REALSpace_44bn_2023-08

>  <s_vsw_compound_code>  (244) 
53635

>  <s_vsw_variant>  (244) 
53635-2

>  <r_epik_Charging_Adjusted_Penalty>  (244) 
1.5551829709264899

>  <r_epik_Ionization_Penalty>  (244) 
1.556

>  <r_epik_Ionization_Penalty_Charging>  (244) 
0

>  <r_epik_Ionization_Penalty_Neutral>  (244) 
1.556

>  <r_epik_State_Penalty>  (244) 
1.5551999999999999

>  <r_i_docking_score>  (244) 
-1.7640319738411501

>  <r_i_glide_ecoul>  (244) 
-0.44548961520195002

>  <r_i_glide_eff_state_penalty>  (244) 
1.5551999999999999

>  <r_i_glide_einternal>  (244) 
2.0824067592620801

>  <r_i_glide_emodel>  (244) 
-41.185100220377002

>  <r_i_glide_energy>  (244) 
-34.762540549039798

>  <r_i_glide_erotb>  (244) 
0.69711716930992795

>  <r_i_glide_esite>  (244) 
-0.095503557835328295

>  <r_i_glide_evdw>  (244) 
-34.317050933837898

>  <r_i_glide_gscore>  (244) 
-3.3192319738411502

>  <r_i_glide_hbond>  (244) 
0

>  <r_i_glide_ligand_efficiency>  (244) 
-0.0534555143588228

>  <r_i_glide_ligand_efficiency_ln>  (244) 
-0.392311577313535

>  <r_i_glide_ligand_efficiency_sa>  (244) 
-0.17146039723367201

>  <r_i_glide_lipo>  (244) 
-1.68610128846608

>  <r_i_glide_metal>  (244) 
-0

>  <r_i_glide_rewards>  (244) 
-0.45206830787748398

>  <r_lp_Energy>  (244) 
35.017757000000003

>  <r_qp_ACxDN^.5/SA>  (244) 
0.0151325

>  <r_qp_CIQPlogS>  (244) 
-5.9779999999999998

>  <r_qp_EA(eV)>  (244) 
0.88300000000000001

>  <r_qp_FISA>  (244) 
48.920999999999999

>  <r_qp_FOSA>  (244) 
165.429

>  <r_qp_IP(eV)>  (244) 
8.2110000000000003

>  <r_qp_Jm>  (244) 
0.0466771648438866

>  <r_qp_PISA>  (244) 
442.88799999999998

>  <r_qp_PSA>  (244) 
71.393000000000001

>  <r_qp_PercentHumanOralAbsorption>  (244) 
100

>  <r_qp_QPPCaco>  (244) 
848.95600000000002

>  <r_qp_QPPMDCK>  (244) 
1331.963

>  <r_qp_QPlogBB>  (244) 
0.124

>  <r_qp_QPlogHERG>  (244) 
-7.5289999999999999

>  <r_qp_QPlogKhsa>  (244) 
0.622

>  <r_qp_QPlogKp>  (244) 
-2.0590000000000002

>  <r_qp_QPlogPC16>  (244) 
14.701000000000001

>  <r_qp_QPlogPo/w>  (244) 
4.9180000000000001

>  <r_qp_QPlogPoct>  (244) 
24.431000000000001

>  <r_qp_QPlogPw>  (244) 
13.93

>  <r_qp_QPlogS>  (244) 
-4.923

>  <r_qp_QPpolrz>  (244) 
47.183999999999997

>  <r_qp_SASA>  (244) 
741.78099999999995

>  <r_qp_SAamideO>  (244) 
0

>  <r_qp_SAfluorine>  (244) 
84.543000000000006

>  <r_qp_WPSA>  (244) 
84.543000000000006

>  <r_qp_accptHB>  (244) 
6

>  <r_qp_dip^2/V>  (244) 
0.017443500000000001

>  <r_qp_dipole>  (244) 
4.891

>  <r_qp_donorHB>  (244) 
3.5

>  <r_qp_glob>  (244) 
0.80480019999999997

>  <r_qp_mol_MW>  (244) 
448.517

>  <r_qp_volume>  (244) 
1371.508

>  <r_sd_BIOSOLVEIT.INFINISEE\_FTREES\_SIMILARITY>  (244) 
0.90500000000000003

>  <r_sd_BIOSOLVEIT.LOGP>  (244) 
3.3589000000000002

>  <r_sd_BIOSOLVEIT.MOLECULAR\_WEIGHT>  (244) 
449.52600000000001

>  <r_sd_BIOSOLVEIT.TPSA>  (244) 
80.299999999999997

>  <i_epik_Tot_Q>  (244) 
0

>  <i_epik_Tot_abs_Q>  (244) 
0

>  <i_f3d_flags>  (244) 
0

>  <i_i_glide_confnum>  (244) 
9

>  <i_i_glide_lignum>  (244) 
637

>  <i_i_glide_posenum>  (244) 
16

>  <i_i_glide_rotatable_bonds>  (244) 
8

>  <i_lp_mmshare_version>  (244) 
65135

>  <i_m_ct_format>  (244) 
2

>  <i_m_source_file_index>  (244) 
1677

>  <i_qp_#NandO>  (244) 
6

>  <i_qp_#acid>  (244) 
0

>  <i_qp_#amide>  (244) 
0

>  <i_qp_#amidine>  (244) 
0

>  <i_qp_#amine>  (244) 
1

>  <i_qp_#in34>  (244) 
0

>  <i_qp_#in56>  (244) 
22

>  <i_qp_#metab>  (244) 
6

>  <i_qp_#nonHatm>  (244) 
33

>  <i_qp_#noncon>  (244) 
0

>  <i_qp_#ringatoms>  (244) 
22

>  <i_qp_#rotor>  (244) 
9

>  <i_qp_#rtvFG>  (244) 
0

>  <i_qp_#stars>  (244) 
0

>  <i_qp_CNS>  (244) 
1

>  <i_qp_HumanOralAbsorption>  (244) 
3

>  <i_qp_RuleOfFive>  (244) 
0

>  <i_qp_RuleOfThree>  (244) 
0

>  <i_sd_BIOSOLVEIT.INFINISEE\_REAGENT1\_NAME>  (244) 
21896940

>  <i_sd_BIOSOLVEIT.INFINISEE\_REAGENT2\_NAME>  (244) 
23157418

>  <i_sd_BIOSOLVEIT.INFINISEE\_REAGENT3\_NAME>  (244) 
21939938

>  <i_sd_BIOSOLVEIT.INFINISEE\_RESULT\_RANK>  (244) 
70350

>  <i_sd_version>  (244) 
0

>  <b_lp_Chiralities_Consistent>  (244) 
1

>  <b_sd_chiral_flag>  (244) 
0

>  <canonical_id>  (244) 
ATP-HTVS-27537703FBA2

>  <compound_code>  (244) 
53635

>  <title>  (244) 
m_282030aaa____21896940____23157418____21939938

>  <variant>  (244) 
53635-2

>  <source_file>  (244) 
运行/运行/ATP-VSW/ATP-VSW-DOCK_HTVS_1-003_lib/ATP-VSW-DOCK_HTVS_1-003_lib.mae

>  <canonical_smiles>  (244) 
CN(C)Cc1cc(F)ccc1CNc1nc2ccccc2nc1NCc1c(N)cccc1F

>  <scaffold>  (244) 
c1ccc(CNc2nc3ccccc3nc2NCc2ccccc2)cc1

>  <molecular_formula>  (244) 
C25H26F2N6

$$$$
ATP-HTVS-277F9700EDE9
     RDKit          3D

 61 64  0  0  0  0  0  0  0  0999 V2000
  198.9825  180.0907  153.3797 N   0  0  0  0  0  0  0  0  0  0  0  0
  198.3164  181.1560  152.9371 C   0  0  0  0  0  0  0  0  0  0  0  0
  197.8346  181.9214  154.0202 N   0  0  0  0  0  0  0  0  0  0  0  0
  198.2001  181.2373  155.1640 C   0  0  0  0  0  0  0  0  0  0  0  0
  198.9372  180.1399  154.7763 C   0  0  0  0  0  0  0  0  0  0  0  0
  199.6214  179.1056  155.5826 C   0  0  0  0  0  0  0  0  0  0  0  0
  199.6602  177.7775  155.0977 C   0  0  0  0  0  0  0  0  0  0  0  0
  200.2619  176.7519  155.8560 C   0  0  0  0  0  0  0  0  0  0  0  0
  200.8032  177.0306  157.1264 C   0  0  0  0  0  0  0  0  0  0  0  0
  200.7814  178.3501  157.6142 C   0  0  0  0  0  0  0  0  0  0  0  0
  200.2362  179.3896  156.8329 C   0  0  0  0  0  0  0  0  0  0  0  0
  197.8588  181.7616  156.5034 C   0  0  1  0  0  0  0  0  0  0  0  0
  196.4890  181.4572  156.9556 N   0  0  1  0  0  0  0  0  0  0  0  0
  196.3146  181.6281  158.4267 C   0  0  1  0  0  0  0  0  0  0  0  0
  196.3460  183.0829  158.9070 C   0  0  0  0  0  0  0  0  0  0  0  0
  197.5644  183.8003  159.1384 C   0  0  0  0  0  0  0  0  0  0  0  0
  198.7913  183.1768  158.8847 N   0  0  0  0  0  0  0  0  0  0  0  0
  200.0611  183.5755  159.4035 C   0  0  1  0  0  0  0  0  0  0  0  0
  200.6505  184.8642  158.7404 C   0  0  1  0  0  0  0  0  0  0  0  0
  201.9542  185.2324  159.3230 N   0  0  1  0  0  0  0  0  0  0  0  0
  201.8967  185.4927  160.7850 C   0  0  2  0  0  0  0  0  0  0  0  0
  203.0399  184.2983  158.9449 C   0  0  2  0  0  0  0  0  0  0  0  0
  197.4959  185.1560  159.5458 C   0  0  0  0  0  0  0  0  0  0  0  0
  196.2526  185.7833  159.7073 C   0  0  0  0  0  0  0  0  0  0  0  0
  195.0576  185.0667  159.5531 C   0  0  0  0  0  0  0  0  0  0  0  0
  195.0979  183.7095  159.1456 C   0  0  0  0  0  0  0  0  0  0  0  0
  197.1466  183.0900  153.8594 C   0  0  0  0  0  0  0  0  0  0  0  0
  196.8627  183.5348  152.5947 C   0  0  0  0  0  0  0  0  0  0  0  0
  197.2918  182.7912  151.4730 C   0  0  0  0  0  0  0  0  0  0  0  0
  198.0105  181.6280  151.6356 C   0  0  0  0  0  0  0  0  0  0  0  0
  195.8088  182.0308  156.4646 H   0  0  0  0  0  0  0  0  0  0  0  0
  199.2374  177.5452  154.1283 H   0  0  0  0  0  0  0  0  0  0  0  0
  200.3011  175.7432  155.4653 H   0  0  0  0  0  0  0  0  0  0  0  0
  201.2608  176.2493  157.7199 H   0  0  0  0  0  0  0  0  0  0  0  0
  201.2035  178.5849  158.5783 H   0  0  0  0  0  0  0  0  0  0  0  0
  200.3208  180.3915  157.2319 H   0  0  0  0  0  0  0  0  0  0  0  0
  198.5206  181.2816  157.2225 H   0  0  0  0  0  0  0  0  0  0  0  0
  198.0425  182.8479  156.4824 H   0  0  0  0  0  0  0  0  0  0  0  0
  195.3376  181.1943  158.6635 H   0  0  0  0  0  0  0  0  0  0  0  0
  197.0252  181.0028  158.9791 H   0  0  0  0  0  0  0  0  0  0  0  0
  198.7848  182.2016  158.5770 H   0  0  0  0  0  0  0  0  0  0  0  0
  200.0116  183.6103  160.4966 H   0  0  0  0  0  0  0  0  0  0  0  0
  200.7145  182.7372  159.1659 H   0  0  0  0  0  0  0  0  0  0  0  0
  200.7294  184.7499  157.6516 H   0  0  0  0  0  0  0  0  0  0  0  0
  200.0805  185.7843  158.9113 H   0  0  0  0  0  0  0  0  0  0  0  0
  201.6442  184.6037  161.3672 H   0  0  0  0  0  0  0  0  0  0  0  0
  201.1531  186.2580  161.0213 H   0  0  0  0  0  0  0  0  0  0  0  0
  202.8621  185.8452  161.1587 H   0  0  0  0  0  0  0  0  0  0  0  0
  202.8616  183.2935  159.3521 H   0  0  0  0  0  0  0  0  0  0  0  0
  204.0097  184.6521  159.3230 H   0  0  0  0  0  0  0  0  0  0  0  0
  203.0832  184.2226  157.8500 H   0  0  0  0  0  0  0  0  0  0  0  0
  198.3685  185.7784  159.7186 H   0  0  0  0  0  0  0  0  0  0  0  0
  196.2490  186.8214  159.9933 H   0  0  0  0  0  0  0  0  0  0  0  0
  194.1064  185.5448  159.7531 H   0  0  0  0  0  0  0  0  0  0  0  0
  194.1632  183.1522  159.0310 H   0  0  0  0  0  0  0  0  0  0  0  0
  196.8127  183.6240  154.7477 H   0  0  0  0  0  0  0  0  0  0  0  0
  196.2640  184.4336  152.4795 H   0  0  0  0  0  0  0  0  0  0  0  0
  197.0483  183.1343  150.4751 H   0  0  0  0  0  0  0  0  0  0  0  0
  198.3508  181.0464  150.7891 H   0  0  0  0  0  0  0  0  0  0  0  0
  202.1868  186.1220  158.8978 H   0  0  0  0  0  0  0  0  0  0  0  0
  196.2925  180.4578  156.7974 H   0  0  0  0  0  0  0  0  0  0  0  0
  1  2  2  0
  1  5  1  0
  2  3  1  0
  2 30  1  0
  3  4  1  0
  3 27  1  0
  4  5  2  0
  4 12  1  0
  5  6  1  0
  6  7  2  0
  6 11  1  0
  7  8  1  0
  7 32  1  0
  8  9  2  0
  8 33  1  0
  9 10  1  0
  9 34  1  0
 10 11  2  0
 10 35  1  0
 11 36  1  0
 12 13  1  0
 12 37  1  1
 12 38  1  0
 13 14  1  0
 13 31  1  6
 13 61  1  0
 14 15  1  0
 14 39  1  1
 14 40  1  0
 15 16  1  0
 15 26  2  0
 16 17  1  0
 16 23  2  0
 17 18  1  0
 17 41  1  0
 18 19  1  0
 18 42  1  1
 18 43  1  0
 19 20  1  0
 19 44  1  6
 19 45  1  0
 20 21  1  0
 20 22  1  0
 20 60  1  6
 21 46  1  1
 21 47  1  0
 21 48  1  0
 22 49  1  1
 22 50  1  0
 22 51  1  0
 23 24  1  0
 23 52  1  0
 24 25  2  0
 24 53  1  0
 25 26  1  0
 25 54  1  0
 26 55  1  0
 27 28  2  0
 27 56  1  0
 28 29  1  0
 28 57  1  0
 29 30  2  0
 29 58  1  0
 30 59  1  0
M  CHG  2  13   1  20   1
M  END
>  <s_epik_cmdline>  (245) 
J2VwaWtfcHl0aG9uJywgJy1waCcsICc3LjAwMDAwMCcsICctcGh0JywgJzIuMDAwMDAwJywgJy1tcycsICcxNicsICctdG4nLCAnOCcsICctbWEnLCAnMjAwJywgJy1pbWFlJywgJzxpbmZpbGUubWFlPicsICctb21hZScsICc8b3V0ZmlsZS5tYWU+Jw==

>  <s_epik_input>  (245) 
W2NIXTFbY0hdW2NIXVtjSF1bY0hdYzEtYyhuMiljKG4oYzIzKVtjSF1bY0hdW2NIXVtjSF0zKVtDSDJdW05IXVtDSDJdYzRjKFtjSF1bY0hdW2NIXVtjSF00KVtOSF1bQ0gyXVtDSDJdTihbQ0gzXSlbQ0gzXQ==

>  <s_i_glide_gridfile>  (245) 
ATP-Grid

>  <s_lp_Force_Field>  (245) 
OPLS_2005

>  <s_lp_Variant>  (245) 
m_270004bbb____25289958____24720750-1

>  <s_lp_label>  (245) 
1945_sdstereoexpander_1_neutralizer_1_epik_1_stereoizer_1

>  <s_m_source_file>  (245) 
ATP-VSW-LIGPREP-003-in.maegz

>  <s_sd_BIOSOLVEIT.INFINISEE\_QUERY\_NAME>  (245) 
Ref-Lig

>  <s_sd_BIOSOLVEIT.INFINISEE\_QUERY\_SMILES>  (245) 
S(c1nc2c(cc1C[NH2+]Cc3ccc(cc3)C[NH+](C)C)cccc2)Cc4ccccc4

>  <s_sd_BIOSOLVEIT.INFINISEE\_REACTION\_NAME>  (245) 
m_270004bbb

>  <s_sd_BIOSOLVEIT.INFINISEE\_REAGENT1\_SMILES>  (245) 
[R1*]NCc1c(NCCN(C)C)cccc1

>  <s_sd_BIOSOLVEIT.INFINISEE\_REAGENT2\_SMILES>  (245) 
[R1*]CC=1N2C(=NC1c3ccccc3)C=CC=C2

>  <s_sd_BIOSOLVEIT.INFINISEE\_SPACE>  (245) 
REALSpace_44bn_2023-08

>  <s_vsw_compound_code>  (245) 
62211

>  <s_vsw_variant>  (245) 
62211-1

>  <r_epik_Charging_Adjusted_Penalty>  (245) 
0.60134575270714097

>  <r_epik_Ionization_Penalty>  (245) 
0.2767

>  <r_epik_Ionization_Penalty_Charging>  (245) 
0.27660000000000001

>  <r_epik_Ionization_Penalty_Neutral>  (245) 
0

>  <r_epik_State_Penalty>  (245) 
0.32469999999999999

>  <r_i_docking_score>  (245) 
-4.4603363609009499

>  <r_i_glide_ecoul>  (245) 
-10.5304670333862

>  <r_i_glide_eff_state_penalty>  (245) 
0.32469999999999999

>  <r_i_glide_einternal>  (245) 
2.49339056015015

>  <r_i_glide_emodel>  (245) 
-61.138429658162202

>  <r_i_glide_energy>  (245) 
-42.534617424011202

>  <r_i_glide_erotb>  (245) 
0.97321271891816796

>  <r_i_glide_esite>  (245) 
-0.109635326215757

>  <r_i_glide_evdw>  (245) 
-32.004150390625

>  <r_i_glide_gscore>  (245) 
-4.7850363609009499

>  <r_i_glide_hbond>  (245) 
-0.142733574075493

>  <r_i_glide_ligand_efficiency>  (245) 
-0.14867787869669799

>  <r_i_glide_ligand_efficiency_ln>  (245) 
-1.0134370204538401

>  <r_i_glide_ligand_efficiency_sa>  (245) 
-0.46197673707888798

>  <r_i_glide_lipo>  (245) 
-1.4298331049886901

>  <r_i_glide_metal>  (245) 
-0

>  <r_i_glide_rewards>  (245) 
-0.89626949999999805

>  <r_lp_Energy>  (245) 
34.781047000000001

>  <r_qp_ACxDN^.5/SA>  (245) 
0.011161799999999999

>  <r_qp_CIQPlogS>  (245) 
-4.0460000000000003

>  <r_qp_EA(eV)>  (245) 
0.70899999999999996

>  <r_qp_FISA>  (245) 
30.995000000000001

>  <r_qp_FOSA>  (245) 
241.55099999999999

>  <r_qp_IP(eV)>  (245) 
7.9020000000000001

>  <r_qp_Jm>  (245) 
0.0065905818284713001

>  <r_qp_PISA>  (245) 
487.661

>  <r_qp_PSA>  (245) 
45.628

>  <r_qp_PercentHumanOralAbsorption>  (245) 
100

>  <r_qp_QPPCaco>  (245) 
313.16399999999999

>  <r_qp_QPPMDCK>  (245) 
172.62299999999999

>  <r_qp_QPlogBB>  (245) 
0.54400000000000004

>  <r_qp_QPlogHERG>  (245) 
-8.7720000000000002

>  <r_qp_QPlogKhsa>  (245) 
0.77500000000000002

>  <r_qp_QPlogKp>  (245) 
-3.73

>  <r_qp_QPlogPC16>  (245) 
15.189

>  <r_qp_QPlogPo/w>  (245) 
4.5309999999999997

>  <r_qp_QPlogPoct>  (245) 
22.013000000000002

>  <r_qp_QPlogPw>  (245) 
12.151

>  <r_qp_QPlogS>  (245) 
-4.0529999999999999

>  <r_qp_QPpolrz>  (245) 
48.329999999999998

>  <r_qp_SASA>  (245) 
760.20699999999999

>  <r_qp_SAamideO>  (245) 
0

>  <r_qp_SAfluorine>  (245) 
0

>  <r_qp_WPSA>  (245) 
0

>  <r_qp_accptHB>  (245) 
6

>  <r_qp_dip^2/V>  (245) 
0.0066552

>  <r_qp_dipole>  (245) 
3.0230000000000001

>  <r_qp_donorHB>  (245) 
2

>  <r_qp_glob>  (245) 
0.78601679999999996

>  <r_qp_mol_MW>  (245) 
399.53800000000001

>  <r_qp_volume>  (245) 
1373.403

>  <r_sd_BIOSOLVEIT.INFINISEE\_FTREES\_SIMILARITY>  (245) 
0.90200000000000002

>  <r_sd_BIOSOLVEIT.LOGP>  (245) 
1.8212999999999999

>  <r_sd_BIOSOLVEIT.MOLECULAR\_WEIGHT>  (245) 
401.55500000000001

>  <r_sd_BIOSOLVEIT.TPSA>  (245) 
50.899999999999999

>  <i_epik_Tot_Q>  (245) 
2

>  <i_epik_Tot_abs_Q>  (245) 
2

>  <i_f3d_flags>  (245) 
0

>  <i_i_glide_confnum>  (245) 
4

>  <i_i_glide_lignum>  (245) 
737

>  <i_i_glide_posenum>  (245) 
2

>  <i_i_glide_rotatable_bonds>  (245) 
9

>  <i_lp_mmshare_version>  (245) 
65135

>  <i_m_ct_format>  (245) 
2

>  <i_m_source_file_index>  (245) 
1945

>  <i_qp_#NandO>  (245) 
5

>  <i_qp_#acid>  (245) 
0

>  <i_qp_#amide>  (245) 
0

>  <i_qp_#amidine>  (245) 
0

>  <i_qp_#amine>  (245) 
2

>  <i_qp_#in34>  (245) 
0

>  <i_qp_#in56>  (245) 
21

>  <i_qp_#metab>  (245) 
8

>  <i_qp_#nonHatm>  (245) 
30

>  <i_qp_#noncon>  (245) 
0

>  <i_qp_#ringatoms>  (245) 
21

>  <i_qp_#rotor>  (245) 
8

>  <i_qp_#rtvFG>  (245) 
0

>  <i_qp_#stars>  (245) 
1

>  <i_qp_CNS>  (245) 
2

>  <i_qp_HumanOralAbsorption>  (245) 
3

>  <i_qp_RuleOfFive>  (245) 
0

>  <i_qp_RuleOfThree>  (245) 
1

>  <i_sd_BIOSOLVEIT.INFINISEE\_REAGENT1\_NAME>  (245) 
25289958

>  <i_sd_BIOSOLVEIT.INFINISEE\_REAGENT2\_NAME>  (245) 
24720750

>  <i_sd_BIOSOLVEIT.INFINISEE\_RESULT\_RANK>  (245) 
87263

>  <i_sd_version>  (245) 
0

>  <b_lp_Chiralities_Consistent>  (245) 
1

>  <b_sd_chiral_flag>  (245) 
0

>  <canonical_id>  (245) 
ATP-HTVS-277F9700EDE9

>  <compound_code>  (245) 
62211

>  <title>  (245) 
m_270004bbb____25289958____24720750

>  <variant>  (245) 
62211-1

>  <source_file>  (245) 
运行/运行/ATP-VSW/ATP-VSW-DOCK_HTVS_1-003_lib/ATP-VSW-DOCK_HTVS_1-003_lib.mae

>  <canonical_smiles>  (245) 
C[NH+](C)CCNc1ccccc1C[NH2+]Cc1c(-c2ccccc2)nc2ccccn12

>  <scaffold>  (245) 
c1ccc(C[NH2+]Cc2c(-c3ccccc3)nc3ccccn23)cc1

>  <molecular_formula>  (245) 
C25H31N5+2

$$$$
ATP-HTVS-27B53DA4C14D
     RDKit          3D

 62 65  0  0  0  0  0  0  0  0999 V2000
  193.9973  183.5854  159.3191 F   0  0  0  0  0  0  0  0  0  0  0  0
  195.2583  184.0470  159.1402 C   0  0  0  0  0  0  0  0  0  0  0  0
  195.6372  185.3092  159.6549 C   0  0  0  0  0  0  0  0  0  0  0  0
  196.9457  185.7844  159.4310 C   0  0  0  0  0  0  0  0  0  0  0  0
  197.8720  185.0031  158.7117 C   0  0  0  0  0  0  0  0  0  0  0  0
  197.4946  183.7468  158.2014 C   0  0  0  0  0  0  0  0  0  0  0  0
  196.1856  183.2654  158.4289 C   0  0  0  0  0  0  0  0  0  0  0  0
  198.5126  182.9065  157.4537 C   0  0  1  0  0  0  0  0  0  0  0  0
  197.9320  182.1104  156.3799 N   0  0  0  0  0  0  0  0  0  0  0  0
  198.4229  180.8360  156.0514 C   0  0  0  0  0  0  0  0  0  0  0  0
  199.4041  180.3079  156.8144 N   0  0  0  0  0  0  0  0  0  0  0  0
  199.8428  179.0615  156.5287 C   0  0  0  0  0  0  0  0  0  0  0  0
  199.3259  178.3478  155.4079 C   0  0  0  0  0  0  0  0  0  0  0  0
  198.3673  178.8957  154.6295 N   0  0  0  0  0  0  0  0  0  0  0  0
  197.8954  180.1194  154.9488 C   0  0  0  0  0  0  0  0  0  0  0  0
  196.8670  180.6605  154.1541 N   0  0  0  0  0  0  0  0  0  0  0  0
  196.5687  180.1064  152.8383 C   0  0  1  0  0  0  0  0  0  0  0  0
  197.4992  180.5789  151.7357 C   0  0  0  0  0  0  0  0  0  0  0  0
  197.7205  181.9579  151.5413 C   0  0  0  0  0  0  0  0  0  0  0  0
  198.5226  182.4138  150.4708 C   0  0  0  0  0  0  0  0  0  0  0  0
  199.1375  181.4701  149.6197 C   0  0  0  0  0  0  0  0  0  0  0  0
  198.9309  180.0902  149.8213 C   0  0  0  0  0  0  0  0  0  0  0  0
  198.1081  179.6447  150.8727 C   0  0  0  0  0  0  0  0  0  0  0  0
  198.6973  183.9077  150.2232 C   0  0  1  0  0  0  0  0  0  0  0  0
  197.6078  184.4960  149.3946 N   0  0  2  0  0  0  0  0  0  0  0  0
  196.2475  184.2969  149.9492 C   0  0  2  0  0  0  0  0  0  0  0  0
  197.6847  184.1263  147.9648 C   0  0  2  0  0  0  0  0  0  0  0  0
  199.8461  177.0686  155.1086 C   0  0  0  0  0  0  0  0  0  0  0  0
  200.8288  176.4771  155.9202 C   0  0  0  0  0  0  0  0  0  0  0  0
  201.3125  177.1717  157.0387 C   0  0  0  0  0  0  0  0  0  0  0  0
  200.8331  178.4597  157.3299 C   0  0  0  0  0  0  0  0  0  0  0  0
  194.6347  186.1676  160.4074 C   0  0  1  0  0  0  0  0  0  0  0  0
  195.1264  186.6382  161.6441 O   0  0  0  0  0  0  0  0  0  0  0  0
  197.2507  186.7519  159.7982 H   0  0  0  0  0  0  0  0  0  0  0  0
  198.8774  185.3692  158.5581 H   0  0  0  0  0  0  0  0  0  0  0  0
  195.8810  182.2941  158.0684 H   0  0  0  0  0  0  0  0  0  0  0  0
  199.2692  183.5579  157.0104 H   0  0  0  0  0  0  0  0  0  0  0  0
  199.0270  182.2991  158.1999 H   0  0  0  0  0  0  0  0  0  0  0  0
  197.0617  182.4170  155.9791 H   0  0  0  0  0  0  0  0  0  0  0  0
  196.5810  181.6095  154.3344 H   0  0  0  0  0  0  0  0  0  0  0  0
  196.5561  179.0166  152.8768 H   0  0  0  0  0  0  0  0  0  0  0  0
  195.5551  180.3960  152.5712 H   0  0  0  0  0  0  0  0  0  0  0  0
  197.2478  182.6661  152.2051 H   0  0  0  0  0  0  0  0  0  0  0  0
  199.7589  181.7995  148.7962 H   0  0  0  0  0  0  0  0  0  0  0  0
  199.3889  179.3752  149.1540 H   0  0  0  0  0  0  0  0  0  0  0  0
  197.9392  178.5875  151.0127 H   0  0  0  0  0  0  0  0  0  0  0  0
  198.7370  184.4156  151.1877 H   0  0  0  0  0  0  0  0  0  0  0  0
  199.6637  184.1030  149.7502 H   0  0  0  0  0  0  0  0  0  0  0  0
  195.9425  183.2495  149.9095 H   0  0  0  0  0  0  0  0  0  0  0  0
  195.5168  184.8707  149.3819 H   0  0  0  0  0  0  0  0  0  0  0  0
  196.2010  184.6384  150.9821 H   0  0  0  0  0  0  0  0  0  0  0  0
  197.5693  183.0512  147.8247 H   0  0  0  0  0  0  0  0  0  0  0  0
  198.6456  184.4292  147.5459 H   0  0  0  0  0  0  0  0  0  0  0  0
  196.8998  184.6263  147.3917 H   0  0  0  0  0  0  0  0  0  0  0  0
  199.4867  176.5280  154.2460 H   0  0  0  0  0  0  0  0  0  0  0  0
  201.2259  175.5006  155.6770 H   0  0  0  0  0  0  0  0  0  0  0  0
  202.0873  176.7353  157.6459 H   0  0  0  0  0  0  0  0  0  0  0  0
  201.2298  178.9959  158.1784 H   0  0  0  0  0  0  0  0  0  0  0  0
  194.3798  187.0170  159.7773 H   0  0  0  0  0  0  0  0  0  0  0  0
  193.7089  185.6198  160.5882 H   0  0  0  0  0  0  0  0  0  0  0  0
  195.8369  187.2399  161.4743 H   0  0  0  0  0  0  0  0  0  0  0  0
  197.7715  185.4907  149.4225 H   0  0  0  0  0  0  0  0  0  0  0  0
  1  2  1  0
  2  3  2  0
  2  7  1  0
  3  4  1  0
  3 32  1  0
  4  5  2  0
  4 34  1  0
  5  6  1  0
  5 35  1  0
  6  7  2  0
  6  8  1  0
  7 36  1  0
  8  9  1  0
  8 37  1  6
  8 38  1  0
  9 10  1  0
  9 39  1  0
 10 11  2  0
 10 15  1  0
 11 12  1  0
 12 13  1  0
 12 31  2  0
 13 14  1  0
 13 28  2  0
 14 15  2  0
 15 16  1  0
 16 17  1  0
 16 40  1  0
 17 18  1  0
 17 41  1  1
 17 42  1  0
 18 19  2  0
 18 23  1  0
 19 20  1  0
 19 43  1  0
 20 21  2  0
 20 24  1  0
 21 22  1  0
 21 44  1  0
 22 23  2  0
 22 45  1  0
 23 46  1  0
 24 25  1  0
 24 47  1  1
 24 48  1  0
 25 26  1  0
 25 27  1  0
 25 62  1  6
 26 49  1  1
 26 50  1  0
 26 51  1  0
 27 52  1  1
 27 53  1  0
 27 54  1  0
 28 29  1  0
 28 55  1  0
 29 30  2  0
 29 56  1  0
 30 31  1  0
 30 57  1  0
 31 58  1  0
 32 33  1  0
 32 59  1  6
 32 60  1  0
 33 61  1  0
M  CHG  1  25   1
M  END
>  <s_epik_cmdline>  (246) 
J2VwaWtfcHl0aG9uJywgJy1waCcsICc3LjAwMDAwMCcsICctcGh0JywgJzIuMDAwMDAwJywgJy1tcycsICcxNicsICctdG4nLCAnOCcsICctbWEnLCAnMjAwJywgJy1pbWFlJywgJzxpbmZpbGUubWFlPicsICctb21hZScsICc8b3V0ZmlsZS5tYWU+Jw==

>  <s_epik_input>  (246) 
RmMxYyhbQ0gyXVtPSF0pW2NIXVtjSF1jKFtjSF0xKVtDSDJdW05IXWMobjIpYyhuYyhjMjMpW2NIXVtjSF1bY0hdW2NIXTMpW05IXVtDSDJdYzRbY0hdYyhbY0hdW2NIXVtjSF00KVtDSDJdTihbQ0gzXSlbQ0gzXQ==

>  <s_i_glide_gridfile>  (246) 
ATP-Grid

>  <s_lp_Force_Field>  (246) 
OPLS_2005

>  <s_lp_Variant>  (246) 
m_282030aaa____21912298____23157418____21940090-1

>  <s_lp_label>  (246) 
1567_sdstereoexpander_1_neutralizer_1_epik_1_stereoizer_1

>  <s_m_source_file>  (246) 
ATP-VSW-LIGPREP-003-in.maegz

>  <s_sd_BIOSOLVEIT.INFINISEE\_QUERY\_NAME>  (246) 
Ref-Lig

>  <s_sd_BIOSOLVEIT.INFINISEE\_QUERY\_SMILES>  (246) 
S(c1nc2c(cc1C[NH2+]Cc3ccc(cc3)C[NH+](C)C)cccc2)Cc4ccccc4

>  <s_sd_BIOSOLVEIT.INFINISEE\_REACTION\_NAME>  (246) 
m_282030aaa

>  <s_sd_BIOSOLVEIT.INFINISEE\_REAGENT1\_SMILES>  (246) 
[R1*]NCc1cc(F)c(cc1)CO

>  <s_sd_BIOSOLVEIT.INFINISEE\_REAGENT2\_SMILES>  (246) 
[R1*]c1nc2c(nc1[R2*])cccc2

>  <s_sd_BIOSOLVEIT.INFINISEE\_REAGENT3\_SMILES>  (246) 
[R2*]NCc1cc(ccc1)CN(C)C

>  <s_sd_BIOSOLVEIT.INFINISEE\_SPACE>  (246) 
REALSpace_44bn_2023-08

>  <s_vsw_compound_code>  (246) 
50115

>  <s_vsw_variant>  (246) 
50115-1

>  <r_epik_Charging_Adjusted_Penalty>  (246) 
0.088195370499548398

>  <r_epik_Ionization_Penalty>  (246) 
0.044499999999999998

>  <r_epik_Ionization_Penalty_Charging>  (246) 
0.0441

>  <r_epik_Ionization_Penalty_Neutral>  (246) 
0.00040000000000000002

>  <r_epik_State_Penalty>  (246) 
0.0441

>  <r_i_docking_score>  (246) 
-4.2428546034049104

>  <r_i_glide_ecoul>  (246) 
-4.4448943138122603

>  <r_i_glide_eff_state_penalty>  (246) 
0.0441

>  <r_i_glide_einternal>  (246) 
3.6021716594696001

>  <r_i_glide_emodel>  (246) 
-54.240966054496504

>  <r_i_glide_energy>  (246) 
-42.459146022796602

>  <r_i_glide_erotb>  (246) 
0.80310840242159398

>  <r_i_glide_esite>  (246) 
-0.060703461143762301

>  <r_i_glide_evdw>  (246) 
-38.014251708984403

>  <r_i_glide_gscore>  (246) 
-4.2869546034049097

>  <r_i_glide_hbond>  (246) 
-0.0014696837395831101

>  <r_i_glide_ligand_efficiency>  (246) 
-0.128571351618331

>  <r_i_glide_ligand_efficiency_ln>  (246) 
-0.943588895471835

>  <r_i_glide_ligand_efficiency_sa>  (246) 
-0.41239702368911002

>  <r_i_glide_lipo>  (246) 
-1.9587974697166499

>  <r_i_glide_metal>  (246) 
-0

>  <r_i_glide_rewards>  (246) 
-0.50164565870545297

>  <r_lp_Energy>  (246) 
25.752918000000001

>  <r_qp_ACxDN^.5/SA>  (246) 
0.0141335

>  <r_qp_CIQPlogS>  (246) 
-5.718

>  <r_qp_EA(eV)>  (246) 
0.70599999999999996

>  <r_qp_FISA>  (246) 
82.238

>  <r_qp_FOSA>  (246) 
298.44600000000003

>  <r_qp_IP(eV)>  (246) 
8.0449999999999999

>  <r_qp_Jm>  (246) 
0.00138165493323633

>  <r_qp_PISA>  (246) 
403.19299999999998

>  <r_qp_PSA>  (246) 
69.477000000000004

>  <r_qp_PercentHumanOralAbsorption>  (246) 
100

>  <r_qp_QPPCaco>  (246) 
410.14600000000002

>  <r_qp_QPPMDCK>  (246) 
333.92899999999997

>  <r_qp_QPlogBB>  (246) 
-0.496

>  <r_qp_QPlogHERG>  (246) 
-8.0500000000000007

>  <r_qp_QPlogKhsa>  (246) 
0.72199999999999998

>  <r_qp_QPlogKp>  (246) 
-2.7170000000000001

>  <r_qp_QPlogPC16>  (246) 
15.983000000000001

>  <r_qp_QPlogPo/w>  (246) 
4.8559999999999999

>  <r_qp_QPlogPoct>  (246) 
24.777999999999999

>  <r_qp_QPlogPw>  (246) 
13.798

>  <r_qp_QPlogS>  (246) 
-5.7910000000000004

>  <r_qp_QPpolrz>  (246) 
50.036000000000001

>  <r_qp_SASA>  (246) 
821.07899999999995

>  <r_qp_SAamideO>  (246) 
0

>  <r_qp_SAfluorine>  (246) 
37.201999999999998

>  <r_qp_WPSA>  (246) 
37.201999999999998

>  <r_qp_accptHB>  (246) 
6.7000000000000002

>  <r_qp_dip^2/V>  (246) 
0.021111600000000001

>  <r_qp_dipole>  (246) 
5.5679999999999996

>  <r_qp_donorHB>  (246) 
3

>  <r_qp_glob>  (246) 
0.76088449999999996

>  <r_qp_mol_MW>  (246) 
445.53800000000001

>  <r_qp_volume>  (246) 
1468.2760000000001

>  <r_sd_BIOSOLVEIT.INFINISEE\_FTREES\_SIMILARITY>  (246) 
0.90600000000000003

>  <r_sd_BIOSOLVEIT.LOGP>  (246) 
3.1299000000000001

>  <r_sd_BIOSOLVEIT.MOLECULAR\_WEIGHT>  (246) 
446.54700000000003

>  <r_sd_BIOSOLVEIT.TPSA>  (246) 
74.510000000000005

>  <i_epik_Tot_Q>  (246) 
1

>  <i_epik_Tot_abs_Q>  (246) 
1

>  <i_f3d_flags>  (246) 
0

>  <i_i_glide_confnum>  (246) 
2

>  <i_i_glide_lignum>  (246) 
601

>  <i_i_glide_posenum>  (246) 
10

>  <i_i_glide_rotatable_bonds>  (246) 
10

>  <i_lp_mmshare_version>  (246) 
65135

>  <i_m_ct_format>  (246) 
2

>  <i_m_source_file_index>  (246) 
1567

>  <i_qp_#NandO>  (246) 
6

>  <i_qp_#acid>  (246) 
0

>  <i_qp_#amide>  (246) 
0

>  <i_qp_#amidine>  (246) 
0

>  <i_qp_#amine>  (246) 
1

>  <i_qp_#in34>  (246) 
0

>  <i_qp_#in56>  (246) 
22

>  <i_qp_#metab>  (246) 
5

>  <i_qp_#nonHatm>  (246) 
33

>  <i_qp_#noncon>  (246) 
0

>  <i_qp_#ringatoms>  (246) 
22

>  <i_qp_#rotor>  (246) 
10

>  <i_qp_#rtvFG>  (246) 
0

>  <i_qp_#stars>  (246) 
0

>  <i_qp_CNS>  (246) 
0

>  <i_qp_HumanOralAbsorption>  (246) 
3

>  <i_qp_RuleOfFive>  (246) 
0

>  <i_qp_RuleOfThree>  (246) 
1

>  <i_sd_BIOSOLVEIT.INFINISEE\_REAGENT1\_NAME>  (246) 
21912298

>  <i_sd_BIOSOLVEIT.INFINISEE\_REAGENT2\_NAME>  (246) 
23157418

>  <i_sd_BIOSOLVEIT.INFINISEE\_REAGENT3\_NAME>  (246) 
21940090

>  <i_sd_BIOSOLVEIT.INFINISEE\_RESULT\_RANK>  (246) 
63492

>  <i_sd_version>  (246) 
0

>  <b_lp_Chiralities_Consistent>  (246) 
1

>  <b_sd_chiral_flag>  (246) 
0

>  <canonical_id>  (246) 
ATP-HTVS-27B53DA4C14D

>  <compound_code>  (246) 
50115

>  <title>  (246) 
m_282030aaa____21912298____23157418____21940090

>  <variant>  (246) 
50115-1

>  <source_file>  (246) 
运行/运行/ATP-VSW/ATP-VSW-DOCK_HTVS_1-003_lib/ATP-VSW-DOCK_HTVS_1-003_lib.mae

>  <canonical_smiles>  (246) 
C[NH+](C)Cc1cccc(CNc2nc3ccccc3nc2NCc2ccc(CO)c(F)c2)c1

>  <scaffold>  (246) 
c1ccc(CNc2nc3ccccc3nc2NCc2ccccc2)cc1

>  <molecular_formula>  (246) 
C26H29FN5O+

$$$$
ATP-HTVS-27BC230C206A
     RDKit          3D

 52 55  0  0  0  0  0  0  0  0999 V2000
  196.1418  185.8532  159.8760 F   0  0  0  0  0  0  0  0  0  0  0  0
  196.4879  184.8708  159.0071 C   0  0  0  0  0  0  0  0  0  0  0  0
  196.8163  185.1759  157.6636 C   0  0  0  0  0  0  0  0  0  0  0  0
  196.7658  186.5819  157.2711 C   0  0  0  0  0  0  0  0  0  0  0  0
  196.7226  187.6959  156.9599 N   0  0  0  0  0  0  0  0  0  0  0  0
  197.1537  184.1190  156.7541 C   0  0  0  0  0  0  0  0  0  0  0  0
  197.1809  182.7933  157.2591 C   0  0  0  0  0  0  0  0  0  0  0  0
  196.8420  182.5073  158.5908 C   0  0  0  0  0  0  0  0  0  0  0  0
  196.5011  183.5451  159.4679 C   0  0  0  0  0  0  0  0  0  0  0  0
  197.4963  184.3464  155.2923 C   0  0  0  0  0  0  0  0  0  0  0  0
  198.0206  185.3849  154.8951 O   0  0  0  0  0  0  0  0  0  0  0  0
  197.1693  183.3117  154.4911 N   0  0  0  0  0  0  0  0  0  0  0  0
  197.3411  183.1837  153.0883 C   0  0  0  0  0  0  0  0  0  0  0  0
  197.2854  184.2466  152.2560 N   0  0  0  0  0  0  0  0  0  0  0  0
  197.4236  184.0779  150.9251 C   0  0  0  0  0  0  0  0  0  0  0  0
  197.6458  182.7982  150.3550 C   0  0  0  0  0  0  0  0  0  0  0  0
  197.7168  181.6812  151.2045 C   0  0  0  0  0  0  0  0  0  0  0  0
  197.5425  181.8698  152.5870 C   0  0  0  0  0  0  0  0  0  0  0  0
  197.6239  180.7140  153.4644 C   0  0  0  0  0  0  0  0  0  0  0  0
  197.7664  179.8129  154.2752 C   0  0  0  0  0  0  0  0  0  0  0  0
  198.0251  178.8181  155.3241 C   0  0  1  0  0  0  0  0  0  0  0  0
  199.0549  179.2752  156.2442 N   0  0  0  0  0  0  0  0  0  0  0  0
  200.3966  179.1349  155.6893 C   0  0  1  0  0  0  0  0  0  0  0  0
  200.8197  177.6867  155.5370 C   0  0  0  0  0  0  0  0  0  0  0  0
  200.7971  177.0704  154.2668 C   0  0  0  0  0  0  0  0  0  0  0  0
  201.1616  175.7158  154.1306 C   0  0  0  0  0  0  0  0  0  0  0  0
  201.5522  174.9783  155.2653 C   0  0  0  0  0  0  0  0  0  0  0  0
  201.5720  175.5930  156.5317 C   0  0  0  0  0  0  0  0  0  0  0  0
  201.1960  176.9409  156.6705 C   0  0  0  0  0  0  0  0  0  0  0  0
  197.7952  182.6409  148.9634 C   0  0  0  0  0  0  0  0  0  0  0  0
  197.6984  183.7616  148.1226 C   0  0  0  0  0  0  0  0  0  0  0  0
  197.4578  185.0314  148.6688 C   0  0  0  0  0  0  0  0  0  0  0  0
  197.3354  185.1882  150.0621 C   0  0  0  0  0  0  0  0  0  0  0  0
  198.9384  178.6882  157.0691 H   0  0  0  0  0  0  0  0  0  0  0  0
  197.4499  181.9483  156.6398 H   0  0  0  0  0  0  0  0  0  0  0  0
  196.8569  181.4819  158.9336 H   0  0  0  0  0  0  0  0  0  0  0  0
  196.2556  183.3219  160.4964 H   0  0  0  0  0  0  0  0  0  0  0  0
  196.8423  182.4791  154.9597 H   0  0  0  0  0  0  0  0  0  0  0  0
  197.8908  180.6934  150.8002 H   0  0  0  0  0  0  0  0  0  0  0  0
  197.0951  178.6573  155.8735 H   0  0  0  0  0  0  0  0  0  0  0  0
  198.3049  177.8608  154.8861 H   0  0  0  0  0  0  0  0  0  0  0  0
  200.4731  179.6449  154.7261 H   0  0  0  0  0  0  0  0  0  0  0  0
  201.1086  179.6373  156.3485 H   0  0  0  0  0  0  0  0  0  0  0  0
  200.4844  177.6300  153.3975 H   0  0  0  0  0  0  0  0  0  0  0  0
  201.1319  175.2423  153.1593 H   0  0  0  0  0  0  0  0  0  0  0  0
  201.8391  173.9414  155.1648 H   0  0  0  0  0  0  0  0  0  0  0  0
  201.8752  175.0342  157.4002 H   0  0  0  0  0  0  0  0  0  0  0  0
  201.2012  177.4082  157.6451 H   0  0  0  0  0  0  0  0  0  0  0  0
  197.9701  181.6632  148.5370 H   0  0  0  0  0  0  0  0  0  0  0  0
  197.7951  183.6487  147.0525 H   0  0  0  0  0  0  0  0  0  0  0  0
  197.3640  185.8757  148.0093 H   0  0  0  0  0  0  0  0  0  0  0  0
  197.1595  186.1658  150.4848 H   0  0  0  0  0  0  0  0  0  0  0  0
  1  2  1  0
  2  3  2  0
  2  9  1  0
  3  4  1  0
  3  6  1  0
  4  5  3  0
  6  7  2  0
  6 10  1  0
  7  8  1  0
  7 35  1  0
  8  9  2  0
  8 36  1  0
  9 37  1  0
 10 11  2  0
 10 12  1  0
 12 13  1  0
 12 38  1  0
 13 14  2  0
 13 18  1  0
 14 15  1  0
 15 16  1  0
 15 33  2  0
 16 17  1  0
 16 30  2  0
 17 18  2  0
 17 39  1  0
 18 19  1  0
 19 20  3  0
 20 21  1  0
 21 22  1  0
 21 40  1  1
 21 41  1  0
 22 23  1  0
 22 34  1  0
 23 24  1  0
 23 42  1  6
 23 43  1  0
 24 25  2  0
 24 29  1  0
 25 26  1  0
 25 44  1  0
 26 27  2  0
 26 45  1  0
 27 28  1  0
 27 46  1  0
 28 29  2  0
 28 47  1  0
 29 48  1  0
 30 31  1  0
 30 49  1  0
 31 32  2  0
 31 50  1  0
 32 33  1  0
 32 51  1  0
 33 52  1  0
M  END
>  <s_epik_cmdline>  (247) 
J2VwaWtfcHl0aG9uJywgJy1waCcsICc3LjAwMDAwMCcsICctcGh0JywgJzIuMDAwMDAwJywgJy1tcycsICcxNicsICctdG4nLCAnOCcsICctbWEnLCAnMjAwJywgJy1pbWFlJywgJzxpbmZpbGUubWFlPicsICctb21hZScsICc8b3V0ZmlsZS5tYWU+Jw==

>  <s_epik_input>  (247) 
RmMxYyhDI04pYyhbY0hdW2NIXVtjSF0xKUMoPU8pW05IXWMobjIpYyhbY0hdYyhjMjMpW2NIXVtjSF1bY0hdW2NIXTMpQyNDW0NIMl1bTkhdW0NIMl1jNFtjSF1bY0hdW2NIXVtjSF1bY0hdNA==

>  <s_i_glide_gridfile>  (247) 
ATP-Grid

>  <s_lp_Force_Field>  (247) 
OPLS_2005

>  <s_lp_Variant>  (247) 
rxn503b____EMOL44385606____EMOL44466703____EMOL1197208-1

>  <s_lp_label>  (247) 
2999_sdstereoexpander_1_neutralizer_1_epik_1_stereoizer_1

>  <s_m_source_file>  (247) 
ATP-VSW-LIGPREP-001-in.maegz

>  <s_sd_BIOSOLVEIT.INFINISEE\_QUERY\_NAME>  (247) 
Ref-Lig

>  <s_sd_BIOSOLVEIT.INFINISEE\_QUERY\_SMILES>  (247) 
S(c1nc2c(cc1C[NH2+]Cc3ccc(cc3)C[NH+](C)C)cccc2)Cc4ccccc4

>  <s_sd_BIOSOLVEIT.INFINISEE\_REACTION\_NAME>  (247) 
rxn503b

>  <s_sd_BIOSOLVEIT.INFINISEE\_REAGENT1\_NAME>  (247) 
EMOL44385606

>  <s_sd_BIOSOLVEIT.INFINISEE\_REAGENT1\_SMILES>  (247) 
Fc1c(C#N)c(ccc1)C(=O)O

>  <s_sd_BIOSOLVEIT.INFINISEE\_REAGENT2\_NAME>  (247) 
EMOL44466703

>  <s_sd_BIOSOLVEIT.INFINISEE\_REAGENT2\_SMILES>  (247) 
Brc1c(nc2c(c1)cccc2)N

>  <s_sd_BIOSOLVEIT.INFINISEE\_REAGENT3\_NAME>  (247) 
EMOL1197208

>  <s_sd_BIOSOLVEIT.INFINISEE\_REAGENT3\_SMILES>  (247) 
N(CC#C)Cc1ccccc1

>  <s_sd_BIOSOLVEIT.INFINISEE\_SPACE>  (247) 
eXplore_7tr_2022-12

>  <s_vsw_compound_code>  (247) 
95937

>  <s_vsw_variant>  (247) 
95937-1

>  <r_epik_Charging_Adjusted_Penalty>  (247) 
0.15068267964727

>  <r_epik_Ionization_Penalty>  (247) 
0.29480000000000001

>  <r_epik_Ionization_Penalty_Charging>  (247) 
0

>  <r_epik_Ionization_Penalty_Neutral>  (247) 
0.29480000000000001

>  <r_epik_State_Penalty>  (247) 
0.1507

>  <r_i_docking_score>  (247) 
-4.5255986912866

>  <r_i_glide_ecoul>  (247) 
-3.1360120773315399

>  <r_i_glide_eff_state_penalty>  (247) 
0.1507

>  <r_i_glide_einternal>  (247) 
7.3594536781311

>  <r_i_glide_emodel>  (247) 
-49.746851235609803

>  <r_i_glide_energy>  (247) 
-40.982192039489703

>  <r_i_glide_erotb>  (247) 
0.73856923389318996

>  <r_i_glide_esite>  (247) 
-0.032613552266146498

>  <r_i_glide_evdw>  (247) 
-37.846179962158203

>  <r_i_glide_gscore>  (247) 
-4.6762986912865996

>  <r_i_glide_hbond>  (247) 
-0.12506497773526001

>  <r_i_glide_ligand_efficiency>  (247) 
-0.137139354281412

>  <r_i_glide_ligand_efficiency_ln>  (247) 
-1.00646971664619

>  <r_i_glide_ligand_efficiency_sa>  (247) 
-0.439879186338409

>  <r_i_glide_lipo>  (247) 
-1.90210478080609

>  <r_i_glide_metal>  (247) 
-0

>  <r_i_glide_rewards>  (247) 
-0.99237380466464997

>  <r_lp_Energy>  (247) 
28.800592999999999

>  <r_qp_ACxDN^.5/SA>  (247) 
0.012685500000000001

>  <r_qp_CIQPlogS>  (247) 
-6.6619999999999999

>  <r_qp_EA(eV)>  (247) 
1.1359999999999999

>  <r_qp_FISA>  (247) 
111.27500000000001

>  <r_qp_FOSA>  (247) 
82.718000000000004

>  <r_qp_IP(eV)>  (247) 
8.8300000000000001

>  <r_qp_Jm>  (247) 
0.00069851695553679297

>  <r_qp_PISA>  (247) 
491.35599999999999

>  <r_qp_PSA>  (247) 
84.102999999999994

>  <r_qp_PercentHumanOralAbsorption>  (247) 
93.561000000000007

>  <r_qp_QPPCaco>  (247) 
217.56100000000001

>  <r_qp_QPPMDCK>  (247) 
172.76300000000001

>  <r_qp_QPlogBB>  (247) 
-0.55700000000000005

>  <r_qp_QPlogHERG>  (247) 
-7.6879999999999997

>  <r_qp_QPlogKhsa>  (247) 
0.59599999999999997

>  <r_qp_QPlogKp>  (247) 
-3.1339999999999999

>  <r_qp_QPlogPC16>  (247) 
15.089

>  <r_qp_QPlogPo/w>  (247) 
4.2320000000000002

>  <r_qp_QPlogPoct>  (247) 
23.888999999999999

>  <r_qp_QPlogPw>  (247) 
13.143000000000001

>  <r_qp_QPlogS>  (247) 
-5.6600000000000001

>  <r_qp_QPpolrz>  (247) 
46.838000000000001

>  <r_qp_SASA>  (247) 
724.63699999999994

>  <r_qp_SAamideO>  (247) 
0

>  <r_qp_SAfluorine>  (247) 
39.287999999999997

>  <r_qp_WPSA>  (247) 
39.287999999999997

>  <r_qp_accptHB>  (247) 
6.5

>  <r_qp_dip^2/V>  (247) 
0.11124820000000001

>  <r_qp_dipole>  (247) 
12.188000000000001

>  <r_qp_donorHB>  (247) 
2

>  <r_qp_glob>  (247) 
0.8092509

>  <r_qp_mol_MW>  (247) 
434.47199999999998

>  <r_qp_volume>  (247) 
1335.2360000000001

>  <r_sd_BIOSOLVEIT.INFINISEE\_FTREES\_SIMILARITY>  (247) 
0.90300000000000002

>  <r_sd_BIOSOLVEIT.LOGP>  (247) 
3.6129799999999999

>  <r_sd_BIOSOLVEIT.MOLECULAR\_WEIGHT>  (247) 
435.48000000000002

>  <r_sd_BIOSOLVEIT.TPSA>  (247) 
82.390000000000001

>  <i_epik_Tot_Q>  (247) 
0

>  <i_epik_Tot_abs_Q>  (247) 
0

>  <i_f3d_flags>  (247) 
0

>  <i_i_glide_confnum>  (247) 
5

>  <i_i_glide_lignum>  (247) 
1445

>  <i_i_glide_posenum>  (247) 
10

>  <i_i_glide_rotatable_bonds>  (247) 
8

>  <i_lp_mmshare_version>  (247) 
65135

>  <i_m_ct_format>  (247) 
2

>  <i_m_source_file_index>  (247) 
2999

>  <i_qp_#NandO>  (247) 
5

>  <i_qp_#acid>  (247) 
0

>  <i_qp_#amide>  (247) 
0

>  <i_qp_#amidine>  (247) 
0

>  <i_qp_#amine>  (247) 
1

>  <i_qp_#in34>  (247) 
0

>  <i_qp_#in56>  (247) 
22

>  <i_qp_#metab>  (247) 
3

>  <i_qp_#nonHatm>  (247) 
33

>  <i_qp_#noncon>  (247) 
0

>  <i_qp_#ringatoms>  (247) 
22

>  <i_qp_#rotor>  (247) 
8

>  <i_qp_#rtvFG>  (247) 
0

>  <i_qp_#stars>  (247) 
1

>  <i_qp_CNS>  (247) 
1

>  <i_qp_HumanOralAbsorption>  (247) 
3

>  <i_qp_RuleOfFive>  (247) 
0

>  <i_qp_RuleOfThree>  (247) 
0

>  <i_sd_BIOSOLVEIT.INFINISEE\_RESULT\_RANK>  (247) 
85553

>  <i_sd_version>  (247) 
0

>  <b_lp_Chiralities_Consistent>  (247) 
1

>  <b_sd_chiral_flag>  (247) 
0

>  <canonical_id>  (247) 
ATP-HTVS-27BC230C206A

>  <compound_code>  (247) 
95937

>  <title>  (247) 
rxn503b____EMOL44385606____EMOL44466703____EMOL1197208

>  <variant>  (247) 
95937-1

>  <source_file>  (247) 
运行/运行/ATP-VSW/ATP-VSW-DOCK_HTVS_1-001_lib/ATP-VSW-DOCK_HTVS_1-001_lib

>  <canonical_smiles>  (247) 
N#Cc1c(F)cccc1C(=O)Nc1nc2ccccc2cc1C#CCNCc1ccccc1

>  <scaffold>  (247) 
O=C(Nc1nc2ccccc2cc1C#CCNCc1ccccc1)c1ccccc1

>  <molecular_formula>  (247) 
C27H19FN4O

$$$$
ATP-HTVS-27E43B44E6A8
     RDKit          3D

 62 65  0  0  0  0  0  0  0  0999 V2000
  198.3892  182.6471  158.1509 O   0  0  0  0  0  0  0  0  0  0  0  0
  198.4454  182.8564  156.9538 C   0  0  0  0  0  0  0  0  0  0  0  0
  197.8636  183.9110  156.3584 N   0  0  0  0  0  0  0  0  0  0  0  0
  197.5831  185.1491  156.9773 C   0  0  0  0  0  0  0  0  0  0  0  0
  198.1861  186.3241  156.4458 C   0  0  0  0  0  0  0  0  0  0  0  0
  199.0505  186.3209  155.3329 N   0  0  0  0  0  0  0  0  0  0  0  0
  200.2775  186.8501  155.5033 C   0  0  0  0  0  0  0  0  0  0  0  0
  201.3102  187.3599  155.6597 N   0  0  0  0  0  0  0  0  0  0  0  0
  198.6523  185.8251  154.0612 C   0  0  0  0  0  0  0  0  0  0  0  0
  199.4963  186.0105  152.9262 C   0  0  0  0  0  0  0  0  0  0  0  0
  199.1438  185.4768  151.6609 C   0  0  0  0  0  0  0  0  0  0  0  0
  197.9680  184.7087  151.5190 C   0  0  0  0  0  0  0  0  0  0  0  0
  197.1351  184.5200  152.6443 C   0  0  0  0  0  0  0  0  0  0  0  0
  197.4346  185.1161  153.8888 C   0  0  0  0  0  0  0  0  0  0  0  0
  197.8998  187.5457  157.0881 C   0  0  0  0  0  0  0  0  0  0  0  0
  197.0581  187.6673  158.1320 N   0  0  0  0  0  0  0  0  0  0  0  0
  196.4535  186.5618  158.6219 C   0  0  0  0  0  0  0  0  0  0  0  0
  196.6744  185.2749  158.0551 C   0  0  0  0  0  0  0  0  0  0  0  0
  195.9440  184.1581  158.5440 C   0  0  0  0  0  0  0  0  0  0  0  0
  195.0616  184.2953  159.6231 C   0  0  0  0  0  0  0  0  0  0  0  0
  194.8717  185.5590  160.2079 C   0  0  0  0  0  0  0  0  0  0  0  0
  195.5546  186.6835  159.7030 C   0  0  0  0  0  0  0  0  0  0  0  0
  199.2271  181.9144  156.0148 C   0  0  2  0  0  0  0  0  0  0  0  0
  198.9205  180.4582  156.2327 N   0  0  1  0  0  0  0  0  0  0  0  0
  197.5697  180.0536  155.7277 C   0  0  1  0  0  0  0  0  0  0  0  0
  197.3826  180.1481  154.1966 C   0  0  2  0  0  0  0  0  0  0  0  0
  200.0145  179.5331  155.8029 C   0  0  1  0  0  0  0  0  0  0  0  0
  199.9356  178.1423  156.4460 C   0  0  2  0  0  0  0  0  0  0  0  0
  200.6475  182.3002  156.2987 C   0  0  0  0  0  0  0  0  0  0  0  0
  201.4472  182.8712  155.2825 C   0  0  0  0  0  0  0  0  0  0  0  0
  202.7828  183.2450  155.5297 C   0  0  0  0  0  0  0  0  0  0  0  0
  203.3499  183.0484  156.8012 C   0  0  0  0  0  0  0  0  0  0  0  0
  202.5757  182.4830  157.8270 C   0  0  0  0  0  0  0  0  0  0  0  0
  201.2492  182.1063  157.5681 C   0  0  0  0  0  0  0  0  0  0  0  0
  197.9730  183.9570  155.3516 H   0  0  0  0  0  0  0  0  0  0  0  0
  200.4222  186.5717  153.0025 H   0  0  0  0  0  0  0  0  0  0  0  0
  199.7672  185.6740  150.7972 H   0  0  0  0  0  0  0  0  0  0  0  0
  197.6809  184.2968  150.5519 H   0  0  0  0  0  0  0  0  0  0  0  0
  196.2354  183.9280  152.5524 H   0  0  0  0  0  0  0  0  0  0  0  0
  196.7393  184.9843  154.7123 H   0  0  0  0  0  0  0  0  0  0  0  0
  198.3449  188.4651  156.7368 H   0  0  0  0  0  0  0  0  0  0  0  0
  196.0229  183.1849  158.0859 H   0  0  0  0  0  0  0  0  0  0  0  0
  194.5421  183.4221  159.9920 H   0  0  0  0  0  0  0  0  0  0  0  0
  194.1889  185.6680  161.0381 H   0  0  0  0  0  0  0  0  0  0  0  0
  195.3908  187.6543  160.1387 H   0  0  0  0  0  0  0  0  0  0  0  0
  198.9974  182.1691  154.9862 H   0  0  0  0  0  0  0  0  0  0  0  0
  197.3639  179.0294  156.0390 H   0  0  0  0  0  0  0  0  0  0  0  0
  196.7999  180.6490  156.2170 H   0  0  0  0  0  0  0  0  0  0  0  0
  196.3820  179.8164  153.9148 H   0  0  0  0  0  0  0  0  0  0  0  0
  198.0858  179.5163  153.6537 H   0  0  0  0  0  0  0  0  0  0  0  0
  197.4807  181.1653  153.8203 H   0  0  0  0  0  0  0  0  0  0  0  0
  200.0556  179.4613  154.7140 H   0  0  0  0  0  0  0  0  0  0  0  0
  200.9968  179.8965  156.1010 H   0  0  0  0  0  0  0  0  0  0  0  0
  200.8482  177.5780  156.2346 H   0  0  0  0  0  0  0  0  0  0  0  0
  199.0913  177.5638  156.0688 H   0  0  0  0  0  0  0  0  0  0  0  0
  199.8398  178.2190  157.5311 H   0  0  0  0  0  0  0  0  0  0  0  0
  201.0369  183.0352  154.2933 H   0  0  0  0  0  0  0  0  0  0  0  0
  203.3804  183.6702  154.7359 H   0  0  0  0  0  0  0  0  0  0  0  0
  204.3732  183.3231  156.9962 H   0  0  0  0  0  0  0  0  0  0  0  0
  202.9902  182.3198  158.8121 H   0  0  0  0  0  0  0  0  0  0  0  0
  200.6883  181.6732  158.3802 H   0  0  0  0  0  0  0  0  0  0  0  0
  198.8571  180.3649  157.2375 H   0  0  0  0  0  0  0  0  0  0  0  0
  1  2  2  0
  2  3  1  0
  2 23  1  0
  3  4  1  0
  3 35  1  0
  4  5  2  0
  4 18  1  0
  5  6  1  0
  5 15  1  0
  6  7  1  0
  6  9  1  0
  7  8  3  0
  9 10  2  0
  9 14  1  0
 10 11  1  0
 10 36  1  0
 11 12  2  0
 11 37  1  0
 12 13  1  0
 12 38  1  0
 13 14  2  0
 13 39  1  0
 14 40  1  0
 15 16  2  0
 15 41  1  0
 16 17  1  0
 17 18  1  0
 17 22  2  0
 18 19  2  0
 19 20  1  0
 19 42  1  0
 20 21  2  0
 20 43  1  0
 21 22  1  0
 21 44  1  0
 22 45  1  0
 23 24  1  0
 23 29  1  0
 23 46  1  6
 24 25  1  0
 24 27  1  0
 24 62  1  1
 25 26  1  0
 25 47  1  1
 25 48  1  0
 26 49  1  1
 26 50  1  0
 26 51  1  0
 27 28  1  0
 27 52  1  6
 27 53  1  0
 28 54  1  1
 28 55  1  0
 28 56  1  0
 29 30  2  0
 29 34  1  0
 30 31  1  0
 30 57  1  0
 31 32  2  0
 31 58  1  0
 32 33  1  0
 32 59  1  0
 33 34  2  0
 33 60  1  0
 34 61  1  0
M  CHG  1  24   1
M  END
>  <s_epik_cmdline>  (248) 
J2VwaWtfcHl0aG9uJywgJy1waCcsICc3LjAwMDAwMCcsICctcGh0JywgJzIuMDAwMDAwJywgJy1tcycsICcxNicsICctdG4nLCAnOCcsICctbWEnLCAnMjAwJywgJy1pbWFlJywgJzxpbmZpbGUubWFlPicsICctb21hZScsICc8b3V0ZmlsZS5tYWU+Jw==

>  <s_epik_input>  (248) 
W2NIXTFbY0hdW2NIXVtjSF1bY0hdYzFbQ0BASF0oTihbQ0gyXVtDSDNdKVtDSDJdW0NIM10pQyg9TylbTkhdYyhjKGMyMylbY0hdW2NIXVtjSF1bY0hdMyljKFtjSF1uMilOKEMjTiljNFtjSF1bY0hdW2NIXVtjSF1bY0hdNA==

>  <s_i_glide_gridfile>  (248) 
ATP-Grid

>  <s_lp_Force_Field>  (248) 
OPLS_2005

>  <s_lp_Variant>  (248) 
rxn502b____EMOL5759977____EMOL13728749____EMOL36822768-3

>  <s_lp_label>  (248) 
2878_sdstereoexpander_1_neutralizer_1_epik_2_stereoizer_1

>  <s_m_source_file>  (248) 
ATP-VSW-LIGPREP-003-in.maegz

>  <s_sd_BIOSOLVEIT.INFINISEE\_QUERY\_NAME>  (248) 
Ref-Lig

>  <s_sd_BIOSOLVEIT.INFINISEE\_QUERY\_SMILES>  (248) 
S(c1nc2c(cc1C[NH2+]Cc3ccc(cc3)C[NH+](C)C)cccc2)Cc4ccccc4

>  <s_sd_BIOSOLVEIT.INFINISEE\_REACTION\_NAME>  (248) 
rxn502b

>  <s_sd_BIOSOLVEIT.INFINISEE\_REAGENT1\_NAME>  (248) 
EMOL5759977

>  <s_sd_BIOSOLVEIT.INFINISEE\_REAGENT1\_SMILES>  (248) 
O=C(O)C(N(CC)CC)c1ccccc1

>  <s_sd_BIOSOLVEIT.INFINISEE\_REAGENT2\_NAME>  (248) 
EMOL13728749

>  <s_sd_BIOSOLVEIT.INFINISEE\_REAGENT2\_SMILES>  (248) 
Brc1c(N)c2c(nc1)cccc2

>  <s_sd_BIOSOLVEIT.INFINISEE\_REAGENT3\_NAME>  (248) 
EMOL36822768

>  <s_sd_BIOSOLVEIT.INFINISEE\_REAGENT3\_SMILES>  (248) 
N#CNc1ccccc1

>  <s_sd_BIOSOLVEIT.INFINISEE\_SPACE>  (248) 
eXplore_7tr_2022-12

>  <s_vsw_compound_code>  (248) 
92067

>  <s_vsw_variant>  (248) 
92067-3

>  <r_epik_Charging_Adjusted_Penalty>  (248) 
1.1717590277268899

>  <r_epik_Ionization_Penalty>  (248) 
0.58620000000000005

>  <r_epik_Ionization_Penalty_Charging>  (248) 
0.58589999999999998

>  <r_epik_Ionization_Penalty_Neutral>  (248) 
0.00029999999999999997

>  <r_epik_State_Penalty>  (248) 
0.58589999999999998

>  <r_i_docking_score>  (248) 
-3.08375895148985

>  <r_i_glide_ecoul>  (248) 
-5.4524040222168004

>  <r_i_glide_eff_state_penalty>  (248) 
0.58589999999999998

>  <r_i_glide_einternal>  (248) 
3.8445894718170202

>  <r_i_glide_emodel>  (248) 
-47.020560082906997

>  <r_i_glide_energy>  (248) 
-37.236421585083001

>  <r_i_glide_erotb>  (248) 
0.59261020438798995

>  <r_i_glide_esite>  (248) 
-0.064018384783989496

>  <r_i_glide_evdw>  (248) 
-31.7840175628662

>  <r_i_glide_gscore>  (248) 
-3.6696589514898501

>  <r_i_glide_hbond>  (248) 
0

>  <r_i_glide_ligand_efficiency>  (248) 
-0.090698792690877897

>  <r_i_glide_ligand_efficiency_ln>  (248) 
-0.68128884889286501

>  <r_i_glide_ligand_efficiency_sa>  (248) 
-0.293828878817606

>  <r_i_glide_lipo>  (248) 
-1.2290630623452901

>  <r_i_glide_metal>  (248) 
-0

>  <r_i_glide_rewards>  (248) 
-0.56212622727272599

>  <r_lp_Energy>  (248) 
42.106848999999997

>  <r_qp_ACxDN^.5/SA>  (248) 
0.0106307

>  <r_qp_CIQPlogS>  (248) 
-5.6150000000000002

>  <r_qp_EA(eV)>  (248) 
1.444

>  <r_qp_FISA>  (248) 
84.108000000000004

>  <r_qp_FOSA>  (248) 
192.767

>  <r_qp_IP(eV)>  (248) 
8.7620000000000005

>  <r_qp_Jm>  (248) 
0.181446532682594

>  <r_qp_PISA>  (248) 
428.62900000000002

>  <r_qp_PSA>  (248) 
71.224999999999994

>  <r_qp_PercentHumanOralAbsorption>  (248) 
100

>  <r_qp_QPPCaco>  (248) 
393.73599999999999

>  <r_qp_QPPMDCK>  (248) 
199.846

>  <r_qp_QPlogBB>  (248) 
-0.36299999999999999

>  <r_qp_QPlogHERG>  (248) 
-6.7869999999999999

>  <r_qp_QPlogKhsa>  (248) 
0.48899999999999999

>  <r_qp_QPlogKp>  (248) 
-2.758

>  <r_qp_QPlogPC16>  (248) 
14.744

>  <r_qp_QPlogPo/w>  (248) 
4.1589999999999998

>  <r_qp_QPlogPoct>  (248) 
21.263000000000002

>  <r_qp_QPlogPw>  (248) 
11.771000000000001

>  <r_qp_QPlogS>  (248) 
-3.6360000000000001

>  <r_qp_QPpolrz>  (248) 
47.073999999999998

>  <r_qp_SASA>  (248) 
705.50400000000002

>  <r_qp_SAamideO>  (248) 
0

>  <r_qp_SAfluorine>  (248) 
0

>  <r_qp_WPSA>  (248) 
0

>  <r_qp_accptHB>  (248) 
7.5

>  <r_qp_dip^2/V>  (248) 
0.0016180999999999999

>  <r_qp_dipole>  (248) 
1.49

>  <r_qp_donorHB>  (248) 
1

>  <r_qp_glob>  (248) 
0.84644330000000001

>  <r_qp_mol_MW>  (248) 
449.55399999999997

>  <r_qp_volume>  (248) 
1372.1400000000001

>  <r_sd_BIOSOLVEIT.INFINISEE\_FTREES\_SIMILARITY>  (248) 
0.90500000000000003

>  <r_sd_BIOSOLVEIT.LOGP>  (248) 
4.4584799999999998

>  <r_sd_BIOSOLVEIT.MOLECULAR\_WEIGHT>  (248) 
450.56299999999999

>  <r_sd_BIOSOLVEIT.TPSA>  (248) 
73.459999999999994

>  <i_epik_Tot_Q>  (248) 
1

>  <i_epik_Tot_abs_Q>  (248) 
1

>  <i_f3d_flags>  (248) 
0

>  <i_i_glide_confnum>  (248) 
2

>  <i_i_glide_lignum>  (248) 
1402

>  <i_i_glide_posenum>  (248) 
5

>  <i_i_glide_rotatable_bonds>  (248) 
9

>  <i_lp_mmshare_version>  (248) 
65135

>  <i_m_ct_format>  (248) 
2

>  <i_m_source_file_index>  (248) 
2878

>  <i_qp_#NandO>  (248) 
6

>  <i_qp_#acid>  (248) 
0

>  <i_qp_#amide>  (248) 
0

>  <i_qp_#amidine>  (248) 
0

>  <i_qp_#amine>  (248) 
1

>  <i_qp_#in34>  (248) 
0

>  <i_qp_#in56>  (248) 
22

>  <i_qp_#metab>  (248) 
5

>  <i_qp_#nonHatm>  (248) 
34

>  <i_qp_#noncon>  (248) 
0

>  <i_qp_#ringatoms>  (248) 
22

>  <i_qp_#rotor>  (248) 
9

>  <i_qp_#rtvFG>  (248) 
0

>  <i_qp_#stars>  (248) 
0

>  <i_qp_CNS>  (248) 
1

>  <i_qp_HumanOralAbsorption>  (248) 
3

>  <i_qp_RuleOfFive>  (248) 
0

>  <i_qp_RuleOfThree>  (248) 
0

>  <i_sd_BIOSOLVEIT.INFINISEE\_RESULT\_RANK>  (248) 
72252

>  <i_sd_version>  (248) 
0

>  <b_lp_Chiralities_Consistent>  (248) 
1

>  <b_sd_chiral_flag>  (248) 
0

>  <canonical_id>  (248) 
ATP-HTVS-27E43B44E6A8

>  <compound_code>  (248) 
92067

>  <title>  (248) 
rxn502b____EMOL5759977____EMOL13728749____EMOL36822768

>  <variant>  (248) 
92067-3

>  <source_file>  (248) 
运行/运行/ATP-VSW/ATP-VSW-DOCK_HTVS_1-003_lib/ATP-VSW-DOCK_HTVS_1-003_lib.mae

>  <canonical_smiles>  (248) 
CC[NH+](CC)[C@@H](C(=O)Nc1c(N(C#N)c2ccccc2)cnc2ccccc12)c1ccccc1

>  <scaffold>  (248) 
O=C(Cc1ccccc1)Nc1c(Nc2ccccc2)cnc2ccccc12

>  <molecular_formula>  (248) 
C28H28N5O+

$$$$
ATP-HTVS-27FE3E1C2A9E
     RDKit          3D

 64 67  0  0  0  0  0  0  0  0999 V2000
  199.3199  175.7113  151.0240 F   0  0  0  0  0  0  0  0  0  0  0  0
  198.6639  176.7352  150.4419 C   0  0  0  0  0  0  0  0  0  0  0  0
  198.2729  177.8511  151.1943 C   0  0  0  0  0  0  0  0  0  0  0  0
  197.5759  178.9272  150.5937 C   0  0  0  0  0  0  0  0  0  0  0  0
  197.1770  178.8138  149.2007 C   0  0  0  0  0  0  0  0  0  0  0  0
  197.5526  177.6630  148.4457 C   0  0  0  0  0  0  0  0  0  0  0  0
  198.3336  176.6391  149.0479 C   0  0  0  0  0  0  0  0  0  0  0  0
  197.1725  180.1569  151.3775 C   0  0  0  0  0  0  0  0  0  0  0  0
  196.4611  181.0358  150.8847 O   0  0  0  0  0  0  0  0  0  0  0  0
  197.6518  180.2340  152.6432 N   0  0  0  0  0  0  0  0  0  0  0  0
  197.5050  181.2796  153.6014 C   0  0  0  0  0  0  0  0  0  0  0  0
  197.6394  180.9843  154.9870 C   0  0  0  0  0  0  0  0  0  0  0  0
  197.9048  179.6564  155.3855 N   0  0  0  0  0  0  0  0  0  0  0  0
  199.2727  179.4140  155.8450 C   0  0  1  0  0  0  0  0  0  0  0  0
  199.8730  178.1188  155.3356 C   0  0  0  0  0  0  0  0  0  0  0  0
  200.1425  177.9838  153.9648 C   0  0  0  0  0  0  0  0  0  0  0  0
  200.6623  176.7880  153.4341 C   0  0  0  0  0  0  0  0  0  0  0  0
  200.9229  175.7207  154.3322 C   0  0  0  0  0  0  0  0  0  0  0  0
  200.7423  175.8676  155.7318 C   0  0  0  0  0  0  0  0  0  0  0  0
  200.2056  177.0723  156.2597 C   0  0  0  0  0  0  0  0  0  0  0  0
  201.3721  174.3779  153.7486 C   0  0  1  0  0  0  0  0  0  0  0  0
  202.8108  174.3107  153.4565 N   0  0  0  0  0  0  0  0  0  0  0  0
  203.1495  173.0186  152.8454 C   0  0  1  0  0  0  0  0  0  0  0  0
  202.5152  172.7591  151.4625 C   0  0  2  0  0  0  0  0  0  0  0  0
  203.6340  174.5206  154.6641 C   0  0  1  0  0  0  0  0  0  0  0  0
  203.4173  173.4621  155.7814 C   0  0  2  0  0  0  0  0  0  0  0  0
  197.5326  182.0399  155.9368 C   0  0  0  0  0  0  0  0  0  0  0  0
  197.2989  183.3643  155.4735 C   0  0  0  0  0  0  0  0  0  0  0  0
  197.1786  183.5944  154.1539 N   0  0  0  0  0  0  0  0  0  0  0  0
  197.2858  182.6285  153.2187 C   0  0  0  0  0  0  0  0  0  0  0  0
  197.1924  184.4411  156.3797 C   0  0  0  0  0  0  0  0  0  0  0  0
  197.2895  184.2097  157.7627 C   0  0  0  0  0  0  0  0  0  0  0  0
  197.5394  182.9076  158.2361 C   0  0  0  0  0  0  0  0  0  0  0  0
  197.6548  181.8336  157.3342 C   0  0  0  0  0  0  0  0  0  0  0  0
  198.4621  177.8373  152.2505 H   0  0  0  0  0  0  0  0  0  0  0  0
  196.5422  179.5871  148.7446 H   0  0  0  0  0  0  0  0  0  0  0  0
  197.2076  177.5481  147.4007 H   0  0  0  0  0  0  0  0  0  0  0  0
  198.6191  175.7428  148.4694 H   0  0  0  0  0  0  0  0  0  0  0  0
  198.1211  179.4200  153.0147 H   0  0  0  0  0  0  0  0  0  0  0  0
  197.2589  179.3282  156.1015 H   0  0  0  0  0  0  0  0  0  0  0  0
  199.9384  180.2035  155.4951 H   0  0  0  0  0  0  0  0  0  0  0  0
  199.2903  179.4125  156.9377 H   0  0  0  0  0  0  0  0  0  0  0  0
  199.9245  178.8073  153.2910 H   0  0  0  0  0  0  0  0  0  0  0  0
  200.7964  176.6588  152.3756 H   0  0  0  0  0  0  0  0  0  0  0  0
  201.0311  175.0616  156.4249 H   0  0  0  0  0  0  0  0  0  0  0  0
  200.0928  177.1896  157.3383 H   0  0  0  0  0  0  0  0  0  0  0  0
  201.0912  173.5461  154.4070 H   0  0  0  0  0  0  0  0  0  0  0  0
  200.7934  174.2364  152.8287 H   0  0  0  0  0  0  0  0  0  0  0  0
  204.2357  172.9225  152.7656 H   0  0  0  0  0  0  0  0  0  0  0  0
  202.8166  172.2323  153.5134 H   0  0  0  0  0  0  0  0  0  0  0  0
  202.7372  171.7262  151.1689 H   0  0  0  0  0  0  0  0  0  0  0  0
  202.9271  173.4351  150.7071 H   0  0  0  0  0  0  0  0  0  0  0  0
  201.4258  172.8525  151.4710 H   0  0  0  0  0  0  0  0  0  0  0  0
  204.6908  174.5522  154.3846 H   0  0  0  0  0  0  0  0  0  0  0  0
  203.4223  175.5160  155.0620 H   0  0  0  0  0  0  0  0  0  0  0  0
  203.9932  173.6969  156.6788 H   0  0  0  0  0  0  0  0  0  0  0  0
  203.7065  172.4565  155.4606 H   0  0  0  0  0  0  0  0  0  0  0  0
  202.3773  173.4085  156.1061 H   0  0  0  0  0  0  0  0  0  0  0  0
  197.2061  182.9717  152.2001 H   0  0  0  0  0  0  0  0  0  0  0  0
  196.9649  185.4371  156.0253 H   0  0  0  0  0  0  0  0  0  0  0  0
  197.1685  185.0263  158.4591 H   0  0  0  0  0  0  0  0  0  0  0  0
  197.6339  182.7276  159.2972 H   0  0  0  0  0  0  0  0  0  0  0  0
  197.8256  180.8431  157.7327 H   0  0  0  0  0  0  0  0  0  0  0  0
  196.9846  184.5498  153.8412 H   0  0  0  0  0  0  0  0  0  0  0  0
  1  2  1  0
  2  3  2  0
  2  7  1  0
  3  4  1  0
  3 35  1  0
  4  5  2  0
  4  8  1  0
  5  6  1  0
  5 36  1  0
  6  7  2  0
  6 37  1  0
  7 38  1  0
  8  9  2  0
  8 10  1  0
 10 11  1  0
 10 39  1  0
 11 12  2  0
 11 30  1  0
 12 13  1  0
 12 27  1  0
 13 14  1  0
 13 40  1  0
 14 15  1  0
 14 41  1  6
 14 42  1  0
 15 16  1  0
 15 20  2  0
 16 17  2  0
 16 43  1  0
 17 18  1  0
 17 44  1  0
 18 19  2  0
 18 21  1  0
 19 20  1  0
 19 45  1  0
 20 46  1  0
 21 22  1  0
 21 47  1  1
 21 48  1  0
 22 23  1  0
 22 25  1  0
 23 24  1  0
 23 49  1  6
 23 50  1  0
 24 51  1  6
 24 52  1  0
 24 53  1  0
 25 26  1  0
 25 54  1  6
 25 55  1  0
 26 56  1  1
 26 57  1  0
 26 58  1  0
 27 28  1  0
 27 34  2  0
 28 29  1  0
 28 31  2  0
 29 30  2  0
 29 64  1  0
 30 59  1  0
 31 32  1  0
 31 60  1  0
 32 33  2  0
 32 61  1  0
 33 34  1  0
 33 62  1  0
 34 63  1  0
M  CHG  1  29   1
M  END
>  <s_epik_cmdline>  (249) 
J2VwaWtfcHl0aG9uJywgJy1waCcsICc3LjAwMDAwMCcsICctcGh0JywgJzIuMDAwMDAwJywgJy1tcycsICcxNicsICctdG4nLCAnOCcsICctbWEnLCAnMjAwJywgJy1pbWFlJywgJzxpbmZpbGUubWFlPicsICctb21hZScsICc8b3V0ZmlsZS5tYWU+Jw==

>  <s_epik_input>  (249) 
W2NIXTFbY0hdW2NIXVtjSF1jKGMxMiluW2NIXWMoW05IXUMoPU8pYyhbY0hdYzNGKVtjSF1bY0hdW2NIXTMpYzJbTkhdW0NIMl1jNFtjSF1bY0hdYyhbY0hdW2NIXTQpW0NIMl1OKFtDSDJdW0NIM10pW0NIMl1bQ0gzXQ==

>  <s_i_glide_gridfile>  (249) 
ATP-Grid

>  <s_lp_Force_Field>  (249) 
OPLS_2005

>  <s_lp_Variant>  (249) 
rxn502b____EMOL511643____EMOL30488121____EMOL2868412-3

>  <s_lp_label>  (249) 
2257_sdstereoexpander_1_neutralizer_1_epik_3_stereoizer_1

>  <s_m_source_file>  (249) 
ATP-VSW-LIGPREP-002-in.maegz

>  <s_sd_BIOSOLVEIT.INFINISEE\_QUERY\_NAME>  (249) 
Ref-Lig

>  <s_sd_BIOSOLVEIT.INFINISEE\_QUERY\_SMILES>  (249) 
S(c1nc2c(cc1C[NH2+]Cc3ccc(cc3)C[NH+](C)C)cccc2)Cc4ccccc4

>  <s_sd_BIOSOLVEIT.INFINISEE\_REACTION\_NAME>  (249) 
rxn502b

>  <s_sd_BIOSOLVEIT.INFINISEE\_REAGENT1\_NAME>  (249) 
EMOL511643

>  <s_sd_BIOSOLVEIT.INFINISEE\_REAGENT1\_SMILES>  (249) 
Fc1cc(ccc1)C(=O)O

>  <s_sd_BIOSOLVEIT.INFINISEE\_REAGENT2\_NAME>  (249) 
EMOL30488121

>  <s_sd_BIOSOLVEIT.INFINISEE\_REAGENT2\_SMILES>  (249) 
Brc1c(N)cnc2c1cccc2

>  <s_sd_BIOSOLVEIT.INFINISEE\_REAGENT3\_NAME>  (249) 
EMOL2868412

>  <s_sd_BIOSOLVEIT.INFINISEE\_REAGENT3\_SMILES>  (249) 
N(Cc1ccc(cc1)CN)(CC)CC

>  <s_sd_BIOSOLVEIT.INFINISEE\_SPACE>  (249) 
eXplore_7tr_2022-12

>  <s_vsw_compound_code>  (249) 
72194

>  <s_vsw_variant>  (249) 
72194-3

>  <r_epik_Charging_Adjusted_Penalty>  (249) 
2.3130020326596101

>  <r_epik_Ionization_Penalty>  (249) 
2.2320000000000002

>  <r_epik_Ionization_Penalty_Charging>  (249) 
0.081100000000000005

>  <r_epik_Ionization_Penalty_Neutral>  (249) 
2.1509

>  <r_epik_State_Penalty>  (249) 
2.2319

>  <r_i_docking_score>  (249) 
-2.1795989805780902

>  <r_i_glide_ecoul>  (249) 
-6.1130480766296396

>  <r_i_glide_eff_state_penalty>  (249) 
2.2319

>  <r_i_glide_einternal>  (249) 
8.3744745254516602

>  <r_i_glide_emodel>  (249) 
-54.816128804231397

>  <r_i_glide_energy>  (249) 
-43.123515605926499

>  <r_i_glide_erotb>  (249) 
0.76826713990077999

>  <r_i_glide_esite>  (249) 
-0.118382388562706

>  <r_i_glide_evdw>  (249) 
-37.010467529296903

>  <r_i_glide_gscore>  (249) 
-4.4114989805780898

>  <r_i_glide_hbond>  (249) 
-0.048152786658092799

>  <r_i_glide_ligand_efficiency>  (249) 
-0.064105852369943706

>  <r_i_glide_ligand_efficiency_ln>  (249) 
-0.48153455049030103

>  <r_i_glide_ligand_efficiency_sa>  (249) 
-0.20767807562450599

>  <r_i_glide_lipo>  (249) 
-1.32553577391885

>  <r_i_glide_metal>  (249) 
-0

>  <r_i_glide_rewards>  (249) 
-0.92021458337993001

>  <r_lp_Energy>  (249) 
39.769995000000002

>  <r_qp_ACxDN^.5/SA>  (249) 
0.0132164

>  <r_qp_CIQPlogS>  (249) 
-6.1059999999999999

>  <r_qp_EA(eV)>  (249) 
1.0640000000000001

>  <r_qp_FISA>  (249) 
53.381999999999998

>  <r_qp_FOSA>  (249) 
212.69300000000001

>  <r_qp_IP(eV)>  (249) 
8.5410000000000004

>  <r_qp_Jm>  (249) 
0.19368576383614999

>  <r_qp_PISA>  (249) 
384.26999999999998

>  <r_qp_PSA>  (249) 
57.290999999999997

>  <r_qp_PercentHumanOralAbsorption>  (249) 
100

>  <r_qp_QPPCaco>  (249) 
770.15800000000002

>  <r_qp_QPPMDCK>  (249) 
729.70600000000002

>  <r_qp_QPlogBB>  (249) 
0.043999999999999997

>  <r_qp_QPlogHERG>  (249) 
-6.4279999999999999

>  <r_qp_QPlogKhsa>  (249) 
0.66300000000000003

>  <r_qp_QPlogKp>  (249) 
-2.3479999999999999

>  <r_qp_QPlogPC16>  (249) 
14.077999999999999

>  <r_qp_QPlogPo/w>  (249) 
4.7469999999999999

>  <r_qp_QPlogPoct>  (249) 
22.475999999999999

>  <r_qp_QPlogPw>  (249) 
11.731999999999999

>  <r_qp_QPlogS>  (249) 
-4.024

>  <r_qp_QPpolrz>  (249) 
46.359999999999999

>  <r_qp_SASA>  (249) 
695.529

>  <r_qp_SAamideO>  (249) 
0

>  <r_qp_SAfluorine>  (249) 
45.183

>  <r_qp_WPSA>  (249) 
45.183

>  <r_qp_accptHB>  (249) 
6.5

>  <r_qp_dip^2/V>  (249) 
0.0391829

>  <r_qp_dipole>  (249) 
7.3129999999999997

>  <r_qp_donorHB>  (249) 
2

>  <r_qp_glob>  (249) 
0.85555599999999998

>  <r_qp_mol_MW>  (249) 
456.56200000000001

>  <r_qp_volume>  (249) 
1364.8900000000001

>  <r_sd_BIOSOLVEIT.INFINISEE\_FTREES\_SIMILARITY>  (249) 
0.92600000000000005

>  <r_sd_BIOSOLVEIT.LOGP>  (249) 
4.6630000000000003

>  <r_sd_BIOSOLVEIT.MOLECULAR\_WEIGHT>  (249) 
457.56999999999999

>  <r_sd_BIOSOLVEIT.TPSA>  (249) 
58.460000000000001

>  <i_epik_Tot_Q>  (249) 
1

>  <i_epik_Tot_abs_Q>  (249) 
1

>  <i_f3d_flags>  (249) 
0

>  <i_i_glide_confnum>  (249) 
17

>  <i_i_glide_lignum>  (249) 
894

>  <i_i_glide_posenum>  (249) 
20

>  <i_i_glide_rotatable_bonds>  (249) 
10

>  <i_lp_mmshare_version>  (249) 
65135

>  <i_m_ct_format>  (249) 
2

>  <i_m_source_file_index>  (249) 
2257

>  <i_qp_#NandO>  (249) 
5

>  <i_qp_#acid>  (249) 
0

>  <i_qp_#amide>  (249) 
0

>  <i_qp_#amidine>  (249) 
0

>  <i_qp_#amine>  (249) 
1

>  <i_qp_#in34>  (249) 
0

>  <i_qp_#in56>  (249) 
22

>  <i_qp_#metab>  (249) 
6

>  <i_qp_#nonHatm>  (249) 
34

>  <i_qp_#noncon>  (249) 
0

>  <i_qp_#ringatoms>  (249) 
22

>  <i_qp_#rotor>  (249) 
9

>  <i_qp_#rtvFG>  (249) 
0

>  <i_qp_#stars>  (249) 
0

>  <i_qp_CNS>  (249) 
1

>  <i_qp_HumanOralAbsorption>  (249) 
3

>  <i_qp_RuleOfFive>  (249) 
0

>  <i_qp_RuleOfThree>  (249) 
0

>  <i_sd_BIOSOLVEIT.INFINISEE\_RESULT\_RANK>  (249) 
8127

>  <i_sd_version>  (249) 
0

>  <b_lp_Chiralities_Consistent>  (249) 
1

>  <b_sd_chiral_flag>  (249) 
0

>  <canonical_id>  (249) 
ATP-HTVS-27FE3E1C2A9E

>  <compound_code>  (249) 
72194

>  <title>  (249) 
rxn502b____EMOL511643____EMOL30488121____EMOL2868412

>  <variant>  (249) 
72194-3

>  <source_file>  (249) 
运行/运行/ATP-VSW/ATP-VSW-DOCK_HTVS_1-002_lib.maegz

>  <canonical_smiles>  (249) 
CCN(CC)Cc1ccc(CNc2c(NC(=O)c3cccc(F)c3)c[nH+]c3ccccc23)cc1

>  <scaffold>  (249) 
O=C(Nc1c[nH+]c2ccccc2c1NCc1ccccc1)c1ccccc1

>  <molecular_formula>  (249) 
C28H30FN4O+

$$$$
ATP-HTVS-2801EC41FD47
     RDKit          3D

 56 59  0  0  0  0  0  0  0  0999 V2000
  203.6714  186.4551  158.0956 F   0  0  0  0  0  0  0  0  0  0  0  0
  202.4889  186.0518  157.5682 C   0  0  0  0  0  0  0  0  0  0  0  0
  202.4123  185.6262  156.2222 C   0  0  0  0  0  0  0  0  0  0  0  0
  201.1766  185.2068  155.6813 C   0  0  0  0  0  0  0  0  0  0  0  0
  200.0160  185.1991  156.4797 C   0  0  0  0  0  0  0  0  0  0  0  0
  200.1080  185.6355  157.8276 C   0  0  0  0  0  0  0  0  0  0  0  0
  201.3307  186.0622  158.3715 C   0  0  0  0  0  0  0  0  0  0  0  0
  198.6904  184.7274  155.8826 C   0  0  1  0  0  0  0  0  0  0  0  0
  197.9751  183.7942  156.7797 N   0  0  0  0  0  0  0  0  0  0  0  0
  197.0725  184.3503  157.7759 C   0  0  0  0  0  0  0  0  0  0  0  0
  196.6986  185.7049  157.7134 C   0  0  0  0  0  0  0  0  0  0  0  0
  195.9338  186.2619  158.7795 C   0  0  0  0  0  0  0  0  0  0  0  0
  195.5217  185.4775  159.8800 C   0  0  0  0  0  0  0  0  0  0  0  0
  195.9095  184.1258  159.9253 C   0  0  0  0  0  0  0  0  0  0  0  0
  196.6801  183.5692  158.9002 C   0  0  0  0  0  0  0  0  0  0  0  0
  197.1195  186.5913  156.5995 C   0  0  0  0  0  0  0  0  0  0  0  0
  196.8935  187.8015  156.5479 O   0  0  0  0  0  0  0  0  0  0  0  0
  197.8356  185.9220  155.4403 C   0  0  1  0  0  0  0  0  0  0  0  0
  198.4296  182.5475  156.9135 C   0  0  0  0  0  0  0  0  0  0  0  0
  199.6141  182.2546  157.0895 O   0  0  0  0  0  0  0  0  0  0  0  0
  197.4265  181.3835  156.7558 C   0  0  1  0  0  0  0  0  0  0  0  0
  197.5808  180.7012  155.4005 C   0  0  0  0  0  0  0  0  0  0  0  0
  198.5612  179.6772  155.1900 C   0  0  0  0  0  0  0  0  0  0  0  0
  199.4510  179.3557  156.2314 N   0  0  0  0  0  0  0  0  0  0  0  0
  200.4846  178.3263  156.1391 C   0  0  1  0  0  0  0  0  0  0  0  0
  199.8339  176.9197  156.0821 C   0  0  1  0  0  0  0  0  0  0  0  0
  200.7628  175.9660  156.0733 F   0  0  0  0  0  0  0  0  0  0  0  0
  201.5902  178.6299  155.0836 C   0  0  2  0  0  0  0  0  0  0  0  0
  198.6090  179.0569  153.9247 C   0  0  0  0  0  0  0  0  0  0  0  0
  197.7976  179.4920  152.8791 C   0  0  0  0  0  0  0  0  0  0  0  0
  196.8342  180.5119  153.0660 C   0  0  0  0  0  0  0  0  0  0  0  0
  196.7143  181.0958  154.3465 C   0  0  0  0  0  0  0  0  0  0  0  0
  203.3070  185.6105  155.6091 H   0  0  0  0  0  0  0  0  0  0  0  0
  201.1318  184.8694  154.6531 H   0  0  0  0  0  0  0  0  0  0  0  0
  199.2521  185.6464  158.4797 H   0  0  0  0  0  0  0  0  0  0  0  0
  201.3648  186.3822  159.4084 H   0  0  0  0  0  0  0  0  0  0  0  0
  198.9314  184.1864  154.9566 H   0  0  0  0  0  0  0  0  0  0  0  0
  195.6384  187.3013  158.7600 H   0  0  0  0  0  0  0  0  0  0  0  0
  194.9045  185.8929  160.6703 H   0  0  0  0  0  0  0  0  0  0  0  0
  195.6248  183.4957  160.7599 H   0  0  0  0  0  0  0  0  0  0  0  0
  196.9786  182.5452  159.1048 H   0  0  0  0  0  0  0  0  0  0  0  0
  198.4445  186.6383  154.8957 H   0  0  0  0  0  0  0  0  0  0  0  0
  197.0681  185.5868  154.7494 H   0  0  0  0  0  0  0  0  0  0  0  0
  197.5481  180.6826  157.5745 H   0  0  0  0  0  0  0  0  0  0  0  0
  196.4163  181.7728  156.8306 H   0  0  0  0  0  0  0  0  0  0  0  0
  199.1503  179.5840  157.1733 H   0  0  0  0  0  0  0  0  0  0  0  0
  200.9732  178.3578  157.1113 H   0  0  0  0  0  0  0  0  0  0  0  0
  199.1779  176.7231  156.9436 H   0  0  0  0  0  0  0  0  0  0  0  0
  199.2038  176.7477  155.2120 H   0  0  0  0  0  0  0  0  0  0  0  0
  202.3629  177.8604  155.1361 H   0  0  0  0  0  0  0  0  0  0  0  0
  202.0669  179.5775  155.3399 H   0  0  0  0  0  0  0  0  0  0  0  0
  201.2132  178.6763  154.0377 H   0  0  0  0  0  0  0  0  0  0  0  0
  199.2869  178.2252  153.7172 H   0  0  0  0  0  0  0  0  0  0  0  0
  197.9068  179.0281  151.9192 H   0  0  0  0  0  0  0  0  0  0  0  0
  196.1662  180.7972  152.2630 H   0  0  0  0  0  0  0  0  0  0  0  0
  195.9446  181.8535  154.5279 H   0  0  0  0  0  0  0  0  0  0  0  0
  1  2  1  0
  2  3  1  0
  2  7  2  0
  3  4  2  0
  3 33  1  0
  4  5  1  0
  4 34  1  0
  5  6  2  0
  5  8  1  0
  6  7  1  0
  6 35  1  0
  7 36  1  0
  8  9  1  0
  8 18  1  0
  8 37  1  6
  9 10  1  0
  9 19  1  0
 10 11  1  0
 10 15  2  0
 11 12  2  0
 11 16  1  0
 12 13  1  0
 12 38  1  0
 13 14  2  0
 13 39  1  0
 14 15  1  0
 14 40  1  0
 15 41  1  0
 16 17  2  0
 16 18  1  0
 18 42  1  6
 18 43  1  0
 19 20  2  0
 19 21  1  0
 21 22  1  0
 21 44  1  1
 21 45  1  0
 22 23  1  0
 22 32  2  0
 23 24  1  0
 23 29  2  0
 24 25  1  0
 24 46  1  0
 25 26  1  0
 25 28  1  0
 25 47  1  1
 26 27  1  0
 26 48  1  1
 26 49  1  0
 28 50  1  6
 28 51  1  0
 28 52  1  0
 29 30  1  0
 29 53  1  0
 30 31  2  0
 30 54  1  0
 31 32  1  0
 31 55  1  0
 32 56  1  0
M  END
>  <s_epik_cmdline>  (250) 
J2VwaWtfcHl0aG9uJywgJy1waCcsICc3LjAwMDAwMCcsICctcGh0JywgJzIuMDAwMDAwJywgJy1tcycsICcxNicsICctdG4nLCAnOCcsICctbWEnLCAnMjAwJywgJy1pbWFlJywgJzxpbmZpbGUubWFlPicsICctb21hZScsICc8b3V0ZmlsZS5tYWU+Jw==

>  <s_epik_input>  (250) 
W2NIXTFbY0hdW2NIXVtjSF1jKGMxMilDKD1PKVtDSDJdW0NAQEhdKGMoW2NIXVtjSF0zKVtjSF1bY0hdYzNGKU4yQyg9TylbQ0gyXWM0YyhbTkhdW0NAQEhdKFtDSDJdRilbQ0gzXSlbY0hdW2NIXVtjSF1bY0hdNA==

>  <s_i_glide_gridfile>  (250) 
ATP-Grid

>  <s_lp_Force_Field>  (250) 
OPLS_2005

>  <s_lp_Variant>  (250) 
rxn512b____EMOL43295714____EMOL486006____EMOL32179963-2

>  <s_lp_label>  (250) 
3050_sdstereoexpander_2_neutralizer_1_epik_1_stereoizer_1

>  <s_m_source_file>  (250) 
ATP-VSW-LIGPREP-001-in.maegz

>  <s_sd_BIOSOLVEIT.INFINISEE\_QUERY\_NAME>  (250) 
Ref-Lig

>  <s_sd_BIOSOLVEIT.INFINISEE\_QUERY\_SMILES>  (250) 
S(c1nc2c(cc1C[NH2+]Cc3ccc(cc3)C[NH+](C)C)cccc2)Cc4ccccc4

>  <s_sd_BIOSOLVEIT.INFINISEE\_REACTION\_NAME>  (250) 
rxn512b

>  <s_sd_BIOSOLVEIT.INFINISEE\_REAGENT1\_NAME>  (250) 
EMOL43295714

>  <s_sd_BIOSOLVEIT.INFINISEE\_REAGENT1\_SMILES>  (250) 
FCC(N)C

>  <s_sd_BIOSOLVEIT.INFINISEE\_REAGENT2\_NAME>  (250) 
EMOL486006

>  <s_sd_BIOSOLVEIT.INFINISEE\_REAGENT2\_SMILES>  (250) 
Brc1c(cccc1)CC(=O)O

>  <s_sd_BIOSOLVEIT.INFINISEE\_REAGENT3\_NAME>  (250) 
EMOL32179963

>  <s_sd_BIOSOLVEIT.INFINISEE\_REAGENT3\_SMILES>  (250) 
Fc1ccc(cc1)C2Nc3c(cccc3)C(=O)C2

>  <s_sd_BIOSOLVEIT.INFINISEE\_SPACE>  (250) 
eXplore_7tr_2022-12

>  <s_vsw_compound_code>  (250) 
97569

>  <s_vsw_variant>  (250) 
97569-2

>  <r_epik_Charging_Adjusted_Penalty>  (250) 
0.00052169345838472302

>  <r_epik_Ionization_Penalty>  (250) 
0.00050000000000000001

>  <r_epik_Ionization_Penalty_Charging>  (250) 
0

>  <r_epik_Ionization_Penalty_Neutral>  (250) 
0.00050000000000000001

>  <r_epik_State_Penalty>  (250) 
0.00050000000000000001

>  <r_i_docking_score>  (250) 
-3.54789906091208

>  <r_i_glide_ecoul>  (250) 
-3.2489979267120401

>  <r_i_glide_eff_state_penalty>  (250) 
0.00050000000000000001

>  <r_i_glide_einternal>  (250) 
0.79129290580749501

>  <r_i_glide_emodel>  (250) 
-42.794432893087901

>  <r_i_glide_energy>  (250) 
-34.745742082595797

>  <r_i_glide_erotb>  (250) 
0.63302393976521398

>  <r_i_glide_esite>  (250) 
-0.084924241751604304

>  <r_i_glide_evdw>  (250) 
-31.4967441558838

>  <r_i_glide_gscore>  (250) 
-3.5483990609120801

>  <r_i_glide_hbond>  (250) 
-0.15134541431040399

>  <r_i_glide_ligand_efficiency>  (250) 
-0.110871845653502

>  <r_i_glide_ligand_efficiency_ln>  (250) 
-0.79447131181397801

>  <r_i_glide_ligand_efficiency_sa>  (250) 
-0.35199616844141002

>  <r_i_glide_lipo>  (250) 
-1.0321745925896899

>  <r_i_glide_metal>  (250) 
-0

>  <r_i_glide_rewards>  (250) 
-0.85079185522460299

>  <r_lp_Energy>  (250) 
41.432882999999997

>  <r_lp_tautomer_probability>  (250) 
0.99995000000000001

>  <r_qp_ACxDN^.5/SA>  (250) 
0.0090437

>  <r_qp_CIQPlogS>  (250) 
-6.8390000000000004

>  <r_qp_EA(eV)>  (250) 
0.70299999999999996

>  <r_qp_FISA>  (250) 
75.046999999999997

>  <r_qp_FOSA>  (250) 
167.36500000000001

>  <r_qp_IP(eV)>  (250) 
8.298

>  <r_qp_Jm>  (250) 
0.044656546260322401

>  <r_qp_PISA>  (250) 
363.48099999999999

>  <r_qp_PSA>  (250) 
60.689999999999998

>  <r_qp_PercentHumanOralAbsorption>  (250) 
100

>  <r_qp_QPPCaco>  (250) 
1924.0989999999999

>  <r_qp_QPPMDCK>  (250) 
2074.0970000000002

>  <r_qp_QPlogBB>  (250) 
-0.216

>  <r_qp_QPlogHERG>  (250) 
-5.5629999999999997

>  <r_qp_QPlogKhsa>  (250) 
0.75800000000000001

>  <r_qp_QPlogKp>  (250) 
-1.238

>  <r_qp_QPlogPC16>  (250) 
13.010999999999999

>  <r_qp_QPlogPo/w>  (250) 
4.9320000000000004

>  <r_qp_QPlogPoct>  (250) 
20.442

>  <r_qp_QPlogPw>  (250) 
10.811

>  <r_qp_QPlogS>  (250) 
-5.75

>  <r_qp_QPpolrz>  (250) 
45.856999999999999

>  <r_qp_SASA>  (250) 
663.44399999999996

>  <r_qp_SAamideO>  (250) 
0

>  <r_qp_SAfluorine>  (250) 
57.551000000000002

>  <r_qp_WPSA>  (250) 
57.551000000000002

>  <r_qp_accptHB>  (250) 
6

>  <r_qp_dip^2/V>  (250) 
0.0095329999999999998

>  <r_qp_dipole>  (250) 
3.4889999999999999

>  <r_qp_donorHB>  (250) 
1

>  <r_qp_glob>  (250) 
0.85802610000000001

>  <r_qp_mol_MW>  (250) 
434.48500000000001

>  <r_qp_volume>  (250) 
1277.056

>  <r_sd_BIOSOLVEIT.INFINISEE\_FTREES\_SIMILARITY>  (250) 
0.90200000000000002

>  <r_sd_BIOSOLVEIT.LOGP>  (250) 
5.4989999999999997

>  <r_sd_BIOSOLVEIT.MOLECULAR\_WEIGHT>  (250) 
434.48399999999998

>  <r_sd_BIOSOLVEIT.TPSA>  (250) 
49.409999999999997

>  <i_epik_Tot_Q>  (250) 
0

>  <i_epik_Tot_abs_Q>  (250) 
0

>  <i_f3d_flags>  (250) 
0

>  <i_i_glide_confnum>  (250) 
2

>  <i_i_glide_lignum>  (250) 
26

>  <i_i_glide_posenum>  (250) 
6

>  <i_i_glide_rotatable_bonds>  (250) 
7

>  <i_lp_mmshare_version>  (250) 
65135

>  <i_m_ct_format>  (250) 
2

>  <i_m_source_file_index>  (250) 
3050

>  <i_qp_#NandO>  (250) 
4

>  <i_qp_#acid>  (250) 
0

>  <i_qp_#amide>  (250) 
0

>  <i_qp_#amidine>  (250) 
0

>  <i_qp_#amine>  (250) 
0

>  <i_qp_#in34>  (250) 
0

>  <i_qp_#in56>  (250) 
22

>  <i_qp_#metab>  (250) 
7

>  <i_qp_#nonHatm>  (250) 
32

>  <i_qp_#noncon>  (250) 
2

>  <i_qp_#ringatoms>  (250) 
22

>  <i_qp_#rotor>  (250) 
4

>  <i_qp_#rtvFG>  (250) 
0

>  <i_qp_#stars>  (250) 
0

>  <i_qp_CNS>  (250) 
0

>  <i_qp_HumanOralAbsorption>  (250) 
3

>  <i_qp_RuleOfFive>  (250) 
0

>  <i_qp_RuleOfThree>  (250) 
2

>  <i_sd_BIOSOLVEIT.INFINISEE\_RESULT\_RANK>  (250) 
91193

>  <i_sd_version>  (250) 
0

>  <b_lp_Chiralities_Consistent>  (250) 
1

>  <b_sd_chiral_flag>  (250) 
0

>  <canonical_id>  (250) 
ATP-HTVS-2801EC41FD47

>  <compound_code>  (250) 
97569

>  <title>  (250) 
rxn512b____EMOL43295714____EMOL486006____EMOL32179963

>  <variant>  (250) 
97569-2

>  <source_file>  (250) 
运行/运行/ATP-VSW/ATP-VSW-DOCK_HTVS_1-002_lib.maegz

>  <canonical_smiles>  (250) 
C[C@H](CF)Nc1ccccc1CC(=O)N1c2ccccc2C(=O)C[C@H]1c1ccc(F)cc1

>  <scaffold>  (250) 
O=C1CC(c2ccccc2)N(C(=O)Cc2ccccc2)c2ccccc21

>  <molecular_formula>  (250) 
C26H24F2N2O2

$$$$
ATP-HTVS-2818D10B14C2
     RDKit          3D

 55 57  0  0  0  0  0  0  0  0999 V2000
  195.2085  187.4574  160.6395 O   0  0  0  0  0  0  0  0  0  0  0  0
  196.3499  186.9014  160.0986 C   0  0  0  0  0  0  0  0  0  0  0  0
  196.6782  185.5529  160.2006 C   0  0  0  0  0  0  0  0  0  0  0  0
  197.8139  185.0178  159.7326 N   0  0  0  0  0  0  0  0  0  0  0  0
  198.6818  185.8140  159.0842 C   0  0  0  0  0  0  0  0  0  0  0  0
  198.4620  187.1992  158.9042 C   0  0  0  0  0  0  0  0  0  0  0  0
  197.2713  187.7536  159.4351 C   0  0  0  0  0  0  0  0  0  0  0  0
  199.9306  185.0850  158.5913 C   0  0  1  0  0  0  0  0  0  0  0  0
  200.0005  184.8841  157.1460 N   0  0  0  0  0  0  0  0  0  0  0  0
  199.0625  184.0989  156.4339 C   0  0  0  0  0  0  0  0  0  0  0  0
  198.8930  184.3103  155.0383 C   0  0  0  0  0  0  0  0  0  0  0  0
  197.9018  183.5949  154.3242 C   0  0  0  0  0  0  0  0  0  0  0  0
  197.0800  182.6673  154.9924 C   0  0  0  0  0  0  0  0  0  0  0  0
  197.2461  182.4307  156.3695 C   0  0  0  0  0  0  0  0  0  0  0  0
  198.2863  183.0982  157.0637 C   0  0  0  0  0  0  0  0  0  0  0  0
  196.2818  181.5183  157.1303 C   0  0  1  0  0  0  0  0  0  0  0  0
  195.1138  182.2283  157.7264 N   0  0  1  0  0  0  0  0  0  0  0  0
  194.2109  181.3651  158.4770 C   0  0  2  0  0  0  0  0  0  0  0  0
  195.4424  183.4089  158.4876 C   0  0  2  0  0  0  0  0  0  0  0  0
  199.7368  185.3355  154.3014 C   0  0  2  0  0  0  0  0  0  0  0  0
  194.3048  186.6000  161.3590 C   0  0  1  0  0  0  0  0  0  0  0  0
  193.3364  187.3358  162.2764 C   0  0  0  0  0  0  0  0  0  0  0  0
  192.3914  186.5899  163.0204 C   0  0  0  0  0  0  0  0  0  0  0  0
  191.5692  187.2183  163.9659 C   0  0  0  0  0  0  0  0  0  0  0  0
  191.6613  188.6091  164.1590 C   0  0  0  0  0  0  0  0  0  0  0  0
  192.6006  189.3667  163.4250 C   0  0  0  0  0  0  0  0  0  0  0  0
  193.4264  188.7324  162.4798 C   0  0  0  0  0  0  0  0  0  0  0  0
  196.0085  184.8470  160.6953 H   0  0  0  0  0  0  0  0  0  0  0  0
  199.1671  187.8196  158.3560 H   0  0  0  0  0  0  0  0  0  0  0  0
  197.0469  188.8134  159.3517 H   0  0  0  0  0  0  0  0  0  0  0  0
  200.8012  185.6465  158.9244 H   0  0  0  0  0  0  0  0  0  0  0  0
  199.9757  184.1157  159.0894 H   0  0  0  0  0  0  0  0  0  0  0  0
  200.4439  185.6194  156.6266 H   0  0  0  0  0  0  0  0  0  0  0  0
  197.7391  183.7904  153.2707 H   0  0  0  0  0  0  0  0  0  0  0  0
  196.2796  182.1765  154.4428 H   0  0  0  0  0  0  0  0  0  0  0  0
  198.4173  182.8771  158.1128 H   0  0  0  0  0  0  0  0  0  0  0  0
  195.9574  180.7421  156.4338 H   0  0  0  0  0  0  0  0  0  0  0  0
  196.8455  181.0399  157.9314 H   0  0  0  0  0  0  0  0  0  0  0  0
  194.7377  180.9229  159.3177 H   0  0  0  0  0  0  0  0  0  0  0  0
  193.7893  180.5894  157.8461 H   0  0  0  0  0  0  0  0  0  0  0  0
  193.3945  181.9525  158.8726 H   0  0  0  0  0  0  0  0  0  0  0  0
  196.0634  183.0367  159.3067 H   0  0  0  0  0  0  0  0  0  0  0  0
  194.5517  183.8869  158.8920 H   0  0  0  0  0  0  0  0  0  0  0  0
  195.9951  184.1475  157.8959 H   0  0  0  0  0  0  0  0  0  0  0  0
  199.5058  185.3559  153.2385 H   0  0  0  0  0  0  0  0  0  0  0  0
  200.7906  185.0843  154.4091 H   0  0  0  0  0  0  0  0  0  0  0  0
  199.5766  186.3372  154.7036 H   0  0  0  0  0  0  0  0  0  0  0  0
  193.7302  185.9804  160.6597 H   0  0  0  0  0  0  0  0  0  0  0  0
  194.8524  185.9626  162.0508 H   0  0  0  0  0  0  0  0  0  0  0  0
  192.3506  185.5136  162.9095 H   0  0  0  0  0  0  0  0  0  0  0  0
  190.8685  186.6250  164.5258 H   0  0  0  0  0  0  0  0  0  0  0  0
  191.0011  189.0957  164.8676 H   0  0  0  0  0  0  0  0  0  0  0  0
  192.6810  190.4330  163.5687 H   0  0  0  0  0  0  0  0  0  0  0  0
  194.1713  189.3066  161.9476 H   0  0  0  0  0  0  0  0  0  0  0  0
  194.5861  182.5523  156.8869 H   0  0  0  0  0  0  0  0  0  0  0  0
  1  2  1  0
  1 21  1  0
  2  3  1  0
  2  7  2  0
  3  4  2  0
  3 28  1  0
  4  5  1  0
  5  6  2  0
  5  8  1  0
  6  7  1  0
  6 29  1  0
  7 30  1  0
  8  9  1  0
  8 31  1  1
  8 32  1  0
  9 10  1  0
  9 33  1  0
 10 11  2  0
 10 15  1  0
 11 12  1  0
 11 20  1  0
 12 13  2  0
 12 34  1  0
 13 14  1  0
 13 35  1  0
 14 15  2  0
 14 16  1  0
 15 36  1  0
 16 17  1  0
 16 37  1  6
 16 38  1  0
 17 18  1  0
 17 19  1  0
 17 55  1  6
 18 39  1  1
 18 40  1  0
 18 41  1  0
 19 42  1  1
 19 43  1  0
 19 44  1  0
 20 45  1  6
 20 46  1  0
 20 47  1  0
 21 22  1  0
 21 48  1  6
 21 49  1  0
 22 23  2  0
 22 27  1  0
 23 24  1  0
 23 50  1  0
 24 25  2  0
 24 51  1  0
 25 26  1  0
 25 52  1  0
 26 27  2  0
 26 53  1  0
 27 54  1  0
M  CHG  1  17   1
M  END
>  <s_epik_cmdline>  (251) 
J2VwaWtfcHl0aG9uJywgJy1waCcsICc3LjAwMDAwMCcsICctcGh0JywgJzIuMDAwMDAwJywgJy1tcycsICcxNicsICctdG4nLCAnOCcsICctbWEnLCAnMjAwJywgJy1pbWFlJywgJzxpbmZpbGUubWFlPicsICctb21hZScsICc8b3V0ZmlsZS5tYWU+Jw==

>  <s_epik_input>  (251) 
W2NIXTFbY0hdW2NIXVtjSF1bY0hdYzFbQ0gyXU9jMltjSF1uYyhbY0hdW2NIXTIpW0NIMl1bTkhdYzNjKFtDSDNdKVtjSF1bY0hdYyhbY0hdMylbQ0gyXU4oW0NIM10pW0NIM10=

>  <s_i_glide_gridfile>  (251) 
ATP-Grid

>  <s_lp_Force_Field>  (251) 
OPLS_2005

>  <s_lp_Variant>  (251) 
m_270004bbb____8156864____24721296-2

>  <s_lp_label>  (251) 
1095_sdstereoexpander_1_neutralizer_1_epik_2_stereoizer_1

>  <s_m_source_file>  (251) 
ATP-VSW-LIGPREP-001-in.maegz

>  <s_sd_BIOSOLVEIT.INFINISEE\_QUERY\_NAME>  (251) 
Ref-Lig

>  <s_sd_BIOSOLVEIT.INFINISEE\_QUERY\_SMILES>  (251) 
S(c1nc2c(cc1C[NH2+]Cc3ccc(cc3)C[NH+](C)C)cccc2)Cc4ccccc4

>  <s_sd_BIOSOLVEIT.INFINISEE\_REACTION\_NAME>  (251) 
m_270004bbb

>  <s_sd_BIOSOLVEIT.INFINISEE\_REAGENT1\_SMILES>  (251) 
[R1*]Nc1c(ccc(c1)CN(C)C)C

>  <s_sd_BIOSOLVEIT.INFINISEE\_REAGENT2\_SMILES>  (251) 
[R1*]Cc1ncc(OCc2ccccc2)cc1

>  <s_sd_BIOSOLVEIT.INFINISEE\_SPACE>  (251) 
REALSpace_44bn_2023-08

>  <s_vsw_compound_code>  (251) 
35009

>  <s_vsw_variant>  (251) 
35009-2

>  <r_epik_Charging_Adjusted_Penalty>  (251) 
0.55843475580858903

>  <r_epik_Ionization_Penalty>  (251) 
0.5202

>  <r_epik_Ionization_Penalty_Charging>  (251) 
0.039300000000000002

>  <r_epik_Ionization_Penalty_Neutral>  (251) 
0.48080000000000001

>  <r_epik_State_Penalty>  (251) 
0.51910000000000001

>  <r_i_docking_score>  (251) 
-4.5700078743081098

>  <r_i_glide_ecoul>  (251) 
-9.6503181457519496

>  <r_i_glide_eff_state_penalty>  (251) 
0.51910000000000001

>  <r_i_glide_einternal>  (251) 
5.1354084014892596

>  <r_i_glide_emodel>  (251) 
-57.508162513294799

>  <r_i_glide_energy>  (251) 
-41.056919097900398

>  <r_i_glide_erotb>  (251) 
1.0229871832454001

>  <r_i_glide_esite>  (251) 
-0.10000000000000001

>  <r_i_glide_evdw>  (251) 
-31.406600952148398

>  <r_i_glide_gscore>  (251) 
-5.0891078743081097

>  <r_i_glide_hbond>  (251) 
-0.201217592818347

>  <r_i_glide_ligand_efficiency>  (251) 
-0.16925955090030001

>  <r_i_glide_ligand_efficiency_ln>  (251) 
-1.06382249067079

>  <r_i_glide_ligand_efficiency_sa>  (251) 
-0.50777865214304896

>  <r_i_glide_lipo>  (251) 
-1.85541733162859

>  <r_i_glide_metal>  (251) 
-0

>  <r_i_glide_rewards>  (251) 
-0.93758236363636205

>  <r_lp_Energy>  (251) 
20.613948000000001

>  <r_lp_tautomer_probability>  (251) 
1

>  <r_qp_ACxDN^.5/SA>  (251) 
0.0072646999999999998

>  <r_qp_CIQPlogS>  (251) 
-4.694

>  <r_qp_EA(eV)>  (251) 
0.0070000000000000001

>  <r_qp_FISA>  (251) 
21.829000000000001

>  <r_qp_FOSA>  (251) 
278.28500000000003

>  <r_qp_IP(eV)>  (251) 
8.0079999999999991

>  <r_qp_Jm>  (251) 
0.46203852754422398

>  <r_qp_PISA>  (251) 
353.73200000000003

>  <r_qp_PSA>  (251) 
35.046999999999997

>  <r_qp_PercentHumanOralAbsorption>  (251) 
100

>  <r_qp_QPPCaco>  (251) 
1533.8810000000001

>  <r_qp_QPPMDCK>  (251) 
869.05799999999999

>  <r_qp_QPlogBB>  (251) 
0.27700000000000002

>  <r_qp_QPlogHERG>  (251) 
-6.4299999999999997

>  <r_qp_QPlogKhsa>  (251) 
0.69199999999999995

>  <r_qp_QPlogKp>  (251) 
-1.97

>  <r_qp_QPlogPC16>  (251) 
12.464

>  <r_qp_QPlogPo/w>  (251) 
4.7270000000000003

>  <r_qp_QPlogPoct>  (251) 
17.262

>  <r_qp_QPlogPw>  (251) 
8.2260000000000009

>  <r_qp_QPlogS>  (251) 
-3.923

>  <r_qp_QPpolrz>  (251) 
41.079999999999998

>  <r_qp_SASA>  (251) 
653.846

>  <r_qp_SAamideO>  (251) 
0

>  <r_qp_SAfluorine>  (251) 
0

>  <r_qp_WPSA>  (251) 
0

>  <r_qp_accptHB>  (251) 
4.75

>  <r_qp_dip^2/V>  (251) 
0.0046423999999999997

>  <r_qp_dipole>  (251) 
2.3839999999999999

>  <r_qp_donorHB>  (251) 
1

>  <r_qp_glob>  (251) 
0.84642740000000005

>  <r_qp_mol_MW>  (251) 
361.48599999999999

>  <r_qp_volume>  (251) 
1224.1949999999999

>  <r_sd_BIOSOLVEIT.INFINISEE\_FTREES\_SIMILARITY>  (251) 
0.91300000000000003

>  <r_sd_BIOSOLVEIT.LOGP>  (251) 
3.2256200000000002

>  <r_sd_BIOSOLVEIT.MOLECULAR\_WEIGHT>  (251) 
362.49400000000003

>  <r_sd_BIOSOLVEIT.TPSA>  (251) 
38.590000000000003

>  <i_epik_Tot_Q>  (251) 
1

>  <i_epik_Tot_abs_Q>  (251) 
1

>  <i_f3d_flags>  (251) 
0

>  <i_i_glide_confnum>  (251) 
6

>  <i_i_glide_lignum>  (251) 
253

>  <i_i_glide_posenum>  (251) 
17

>  <i_i_glide_rotatable_bonds>  (251) 
8

>  <i_lp_mmshare_version>  (251) 
65135

>  <i_m_ct_format>  (251) 
2

>  <i_m_source_file_index>  (251) 
1095

>  <i_qp_#NandO>  (251) 
4

>  <i_qp_#acid>  (251) 
0

>  <i_qp_#amide>  (251) 
0

>  <i_qp_#amidine>  (251) 
0

>  <i_qp_#amine>  (251) 
1

>  <i_qp_#in34>  (251) 
0

>  <i_qp_#in56>  (251) 
18

>  <i_qp_#metab>  (251) 
10

>  <i_qp_#nonHatm>  (251) 
27

>  <i_qp_#noncon>  (251) 
0

>  <i_qp_#ringatoms>  (251) 
18

>  <i_qp_#rotor>  (251) 
8

>  <i_qp_#rtvFG>  (251) 
0

>  <i_qp_#stars>  (251) 
1

>  <i_qp_CNS>  (251) 
1

>  <i_qp_HumanOralAbsorption>  (251) 
1

>  <i_qp_RuleOfFive>  (251) 
0

>  <i_qp_RuleOfThree>  (251) 
1

>  <i_sd_BIOSOLVEIT.INFINISEE\_REAGENT1\_NAME>  (251) 
8156864

>  <i_sd_BIOSOLVEIT.INFINISEE\_REAGENT2\_NAME>  (251) 
24721296

>  <i_sd_BIOSOLVEIT.INFINISEE\_RESULT\_RANK>  (251) 
32927

>  <i_sd_version>  (251) 
0

>  <b_lp_Chiralities_Consistent>  (251) 
1

>  <b_sd_chiral_flag>  (251) 
0

>  <canonical_id>  (251) 
ATP-HTVS-2818D10B14C2

>  <compound_code>  (251) 
35009

>  <title>  (251) 
m_270004bbb____8156864____24721296

>  <variant>  (251) 
35009-2

>  <source_file>  (251) 
运行/运行/ATP-VSW/ATP-VSW-DOCK_HTVS_1-001_lib/ATP-VSW-DOCK_HTVS_1-001_lib

>  <canonical_smiles>  (251) 
Cc1ccc(C[NH+](C)C)cc1NCc1ccc(OCc2ccccc2)cn1

>  <scaffold>  (251) 
c1ccc(COc2ccc(CNc3ccccc3)nc2)cc1

>  <molecular_formula>  (251) 
C23H28N3O+

$$$$
ATP-HTVS-286379397336
     RDKit          3D

 67 70  0  0  0  0  0  0  0  0999 V2000
  199.9688  189.5602  159.0600 S   0  0  1  0  0  0  0  0  0  0  0  0
  199.3596  189.7041  157.7245 O   0  0  0  0  0  0  0  0  0  0  0  0
  200.7667  190.6599  159.6029 O   0  0  0  0  0  0  0  0  0  0  0  0
  198.6611  189.3455  160.1199 N   0  0  0  0  0  0  0  0  0  0  0  0
  200.9051  188.0334  159.2628 C   0  0  0  0  0  0  0  0  0  0  0  0
  201.0767  187.0162  158.2839 C   0  0  0  0  0  0  0  0  0  0  0  0
  201.8549  185.8738  158.6128 C   0  0  0  0  0  0  0  0  0  0  0  0
  202.4463  185.7270  159.8768 C   0  0  0  0  0  0  0  0  0  0  0  0
  202.2676  186.7245  160.8525 C   0  0  0  0  0  0  0  0  0  0  0  0
  201.5036  187.8653  160.5355 C   0  0  0  0  0  0  0  0  0  0  0  0
  200.4673  187.0861  156.8855 C   0  0  1  0  0  0  0  0  0  0  0  0
  199.7812  185.8641  156.4767 N   0  0  0  0  0  0  0  0  0  0  0  0
  198.5842  185.4690  157.0807 C   0  0  0  0  0  0  0  0  0  0  0  0
  198.0019  184.3503  156.6528 N   0  0  0  0  0  0  0  0  0  0  0  0
  196.8884  183.8719  157.2376 C   0  0  0  0  0  0  0  0  0  0  0  0
  196.3534  182.6594  156.7628 N   0  0  0  0  0  0  0  0  0  0  0  0
  196.7942  182.0963  155.4909 C   0  0  1  0  0  0  0  0  0  0  0  0
  197.8874  181.0425  155.6069 C   0  0  0  0  0  0  0  0  0  0  0  0
  197.7963  179.8541  154.8479 C   0  0  0  0  0  0  0  0  0  0  0  0
  198.8065  178.8763  154.9454 C   0  0  0  0  0  0  0  0  0  0  0  0
  199.8969  179.0959  155.8064 C   0  0  0  0  0  0  0  0  0  0  0  0
  200.9841  178.0660  155.9101 N   0  0  1  0  0  0  0  0  0  0  0  0
  200.7240  176.9744  156.8667 C   0  0  2  0  0  0  0  0  0  0  0  0
  200.8382  177.4669  158.3156 C   0  0  2  0  0  0  0  0  0  0  0  0
  201.6976  175.8262  156.5941 C   0  0  2  0  0  0  0  0  0  0  0  0
  200.0113  180.2755  156.5546 C   0  0  0  0  0  0  0  0  0  0  0  0
  198.9990  181.2412  156.4586 C   0  0  0  0  0  0  0  0  0  0  0  0
  196.3006  184.5673  158.3141 C   0  0  0  0  0  0  0  0  0  0  0  0
  196.9227  185.7740  158.7029 C   0  0  0  0  0  0  0  0  0  0  0  0
  198.0415  186.1995  158.0696 N   0  0  0  0  0  0  0  0  0  0  0  0
  196.3880  186.5376  159.7577 C   0  0  0  0  0  0  0  0  0  0  0  0
  195.2213  186.1027  160.4193 C   0  0  0  0  0  0  0  0  0  0  0  0
  194.5976  184.9016  160.0293 C   0  0  0  0  0  0  0  0  0  0  0  0
  195.1340  184.1296  158.9807 C   0  0  0  0  0  0  0  0  0  0  0  0
  200.3386  185.1318  155.3440 C   0  0  2  0  0  0  0  0  0  0  0  0
  197.9268  190.0286  159.9344 H   0  0  0  0  0  0  0  0  0  0  0  0
  198.9981  189.4327  161.1093 H   0  0  0  0  0  0  0  0  0  0  0  0
  202.0322  185.0953  157.8954 H   0  0  0  0  0  0  0  0  0  0  0  0
  203.0583  184.8439  160.1222 H   0  0  0  0  0  0  0  0  0  0  0  0
  202.7115  186.6115  161.8329 H   0  0  0  0  0  0  0  0  0  0  0  0
  201.3677  188.6222  161.2922 H   0  0  0  0  0  0  0  0  0  0  0  0
  199.7187  187.8373  156.7567 H   0  0  0  0  0  0  0  0  0  0  0  0
  201.2965  187.3213  156.2012 H   0  0  0  0  0  0  0  0  0  0  0  0
  195.4322  182.3759  157.0673 H   0  0  0  0  0  0  0  0  0  0  0  0
  195.9127  181.6627  155.0186 H   0  0  0  0  0  0  0  0  0  0  0  0
  197.1255  182.8769  154.8025 H   0  0  0  0  0  0  0  0  0  0  0  0
  196.9520  179.6883  154.1928 H   0  0  0  0  0  0  0  0  0  0  0  0
  198.7455  177.9686  154.3676 H   0  0  0  0  0  0  0  0  0  0  0  0
  201.1188  177.6371  155.0073 H   0  0  0  0  0  0  0  0  0  0  0  0
  199.7056  176.6118  156.7086 H   0  0  0  0  0  0  0  0  0  0  0  0
  200.6673  176.6525  159.0184 H   0  0  0  0  0  0  0  0  0  0  0  0
  200.0920  178.2324  158.5300 H   0  0  0  0  0  0  0  0  0  0  0  0
  201.8248  177.8826  158.5239 H   0  0  0  0  0  0  0  0  0  0  0  0
  201.5018  175.0247  157.2965 H   0  0  0  0  0  0  0  0  0  0  0  0
  202.7380  176.1198  156.7306 H   0  0  0  0  0  0  0  0  0  0  0  0
  201.5902  175.4327  155.5820 H   0  0  0  0  0  0  0  0  0  0  0  0
  200.8541  180.4456  157.2072 H   0  0  0  0  0  0  0  0  0  0  0  0
  199.1007  182.1283  157.0573 H   0  0  0  0  0  0  0  0  0  0  0  0
  196.8536  187.4632  160.0652 H   0  0  0  0  0  0  0  0  0  0  0  0
  194.8016  186.6970  161.2184 H   0  0  0  0  0  0  0  0  0  0  0  0
  193.6894  184.5788  160.5191 H   0  0  0  0  0  0  0  0  0  0  0  0
  194.6285  183.2202  158.6856 H   0  0  0  0  0  0  0  0  0  0  0  0
  199.6027  185.0164  154.5429 H   0  0  0  0  0  0  0  0  0  0  0  0
  200.6739  184.1449  155.6746 H   0  0  0  0  0  0  0  0  0  0  0  0
  201.2021  185.6550  154.9211 H   0  0  0  0  0  0  0  0  0  0  0  0
  198.4645  187.0693  158.3825 H   0  0  0  0  0  0  0  0  0  0  0  0
  201.8601  178.4950  156.1759 H   0  0  0  0  0  0  0  0  0  0  0  0
  1  2  2  0
  1  3  2  0
  1  4  1  1
  1  5  1  0
  4 36  1  0
  4 37  1  0
  5  6  1  0
  5 10  2  0
  6  7  2  0
  6 11  1  0
  7  8  1  0
  7 38  1  0
  8  9  2  0
  8 39  1  0
  9 10  1  0
  9 40  1  0
 10 41  1  0
 11 12  1  0
 11 42  1  1
 11 43  1  0
 12 13  1  0
 12 35  1  0
 13 14  1  0
 13 30  2  0
 14 15  2  0
 15 16  1  0
 15 28  1  0
 16 17  1  0
 16 44  1  0
 17 18  1  0
 17 45  1  6
 17 46  1  0
 18 19  1  0
 18 27  2  0
 19 20  2  0
 19 47  1  0
 20 21  1  0
 20 48  1  0
 21 22  1  0
 21 26  2  0
 22 23  1  0
 22 49  1  6
 22 67  1  0
 23 24  1  0
 23 25  1  0
 23 50  1  6
 24 51  1  1
 24 52  1  0
 24 53  1  0
 25 54  1  1
 25 55  1  0
 25 56  1  0
 26 27  1  0
 26 57  1  0
 27 58  1  0
 28 29  1  0
 28 34  2  0
 29 30  1  0
 29 31  2  0
 30 66  1  0
 31 32  1  0
 31 59  1  0
 32 33  2  0
 32 60  1  0
 33 34  1  0
 33 61  1  0
 34 62  1  0
 35 63  1  6
 35 64  1  0
 35 65  1  0
M  CHG  2  22   1  30   1
M  END
>  <s_epik_cmdline>  (252) 
J2VwaWtfcHl0aG9uJywgJy1waCcsICc3LjAwMDAwMCcsICctcGh0JywgJzIuMDAwMDAwJywgJy1tcycsICcxNicsICctdG4nLCAnOCcsICctbWEnLCAnMjAwJywgJy1pbWFlJywgJzxpbmZpbGUubWFlPicsICctb21hZScsICc8b3V0ZmlsZS5tYWU+Jw==

>  <s_epik_input>  (252) 
W2NIXTFbY0hdW2NIXVtjSF1jKGMxUyg9TykoPU8pW05IMl0pW0NIMl1OKFtDSDNdKWMobmMoYzIzKVtjSF1bY0hdW2NIXVtjSF0zKW5jMltOSF1bQ0gyXWM0W2NIXVtjSF1jKFtjSF1bY0hdNClbTkhdW0NIXShbQ0gzXSlbQ0gzXQ==

>  <s_i_glide_gridfile>  (252) 
ATP-Grid

>  <s_lp_Force_Field>  (252) 
OPLS_2005

>  <s_lp_Variant>  (252) 
m_282030aaa____21909402____22360182____21979096-2

>  <s_lp_label>  (252) 
958_sdstereoexpander_1_neutralizer_1_epik_2_stereoizer_1

>  <s_m_source_file>  (252) 
ATP-VSW-LIGPREP-001-in.maegz

>  <s_sd_BIOSOLVEIT.INFINISEE\_QUERY\_NAME>  (252) 
Ref-Lig

>  <s_sd_BIOSOLVEIT.INFINISEE\_QUERY\_SMILES>  (252) 
S(c1nc2c(cc1C[NH2+]Cc3ccc(cc3)C[NH+](C)C)cccc2)Cc4ccccc4

>  <s_sd_BIOSOLVEIT.INFINISEE\_REACTION\_NAME>  (252) 
m_282030aaa

>  <s_sd_BIOSOLVEIT.INFINISEE\_REAGENT1\_SMILES>  (252) 
[R1*]N(Cc1c(S(=O)(=O)N)cccc1)C

>  <s_sd_BIOSOLVEIT.INFINISEE\_REAGENT2\_SMILES>  (252) 
[R2*]c1nc([R1*])c2c(n1)cccc2

>  <s_sd_BIOSOLVEIT.INFINISEE\_REAGENT3\_SMILES>  (252) 
[R2*]NCc1ccc(NC(C)C)cc1

>  <s_sd_BIOSOLVEIT.INFINISEE\_SPACE>  (252) 
REALSpace_44bn_2023-08

>  <s_vsw_compound_code>  (252) 
30625

>  <s_vsw_variant>  (252) 
30625-2

>  <r_epik_Charging_Adjusted_Penalty>  (252) 
1.8761675967497999

>  <r_epik_Ionization_Penalty>  (252) 
0.94179999999999997

>  <r_epik_Ionization_Penalty_Charging>  (252) 
0.94159999999999999

>  <r_epik_Ionization_Penalty_Neutral>  (252) 
0.00020000000000000001

>  <r_epik_State_Penalty>  (252) 
0.9345

>  <r_i_docking_score>  (252) 
-3.5000211751949402

>  <r_i_glide_ecoul>  (252) 
-10.9028615951538

>  <r_i_glide_eff_state_penalty>  (252) 
0.9345

>  <r_i_glide_einternal>  (252) 
2.5202877521514901

>  <r_i_glide_emodel>  (252) 
-59.6279345506507

>  <r_i_glide_energy>  (252) 
-42.396594047546401

>  <r_i_glide_erotb>  (252) 
0.58741885616192202

>  <r_i_glide_esite>  (252) 
-0.203717321434011

>  <r_i_glide_evdw>  (252) 
-31.493732452392599

>  <r_i_glide_gscore>  (252) 
-4.4345211751949396

>  <r_i_glide_hbond>  (252) 
-0.16771848135728901

>  <r_i_glide_ligand_efficiency>  (252) 
-0.10000060500557

>  <r_i_glide_ligand_efficiency_ln>  (252) 
-0.76833232674005003

>  <r_i_glide_ligand_efficiency_sa>  (252) 
-0.32710860964453398

>  <r_i_glide_lipo>  (252) 
-1.3863254959551199

>  <r_i_glide_metal>  (252) 
-0

>  <r_i_glide_rewards>  (252) 
-0.054062870717744398

>  <r_lp_Energy>  (252) 
27.601071000000001

>  <r_lp_tautomer_probability>  (252) 
0.99350799999861505

>  <r_qp_ACxDN^.5/SA>  (252) 
0.021309999999999999

>  <r_qp_CIQPlogS>  (252) 
-6.8940000000000001

>  <r_qp_EA(eV)>  (252) 
0.76500000000000001

>  <r_qp_FISA>  (252) 
138.398

>  <r_qp_FOSA>  (252) 
269.83100000000002

>  <r_qp_IP(eV)>  (252) 
8.141

>  <r_qp_Jm>  (252) 
0.014473413245716001

>  <r_qp_PISA>  (252) 
387.916

>  <r_qp_PSA>  (252) 
103.194

>  <r_qp_PercentHumanOralAbsorption>  (252) 
100

>  <r_qp_QPPCaco>  (252) 
482.47199999999998

>  <r_qp_QPPMDCK>  (252) 
229.60900000000001

>  <r_qp_QPlogBB>  (252) 
-1.5

>  <r_qp_QPlogHERG>  (252) 
-6.7199999999999998

>  <r_qp_QPlogKhsa>  (252) 
0.45400000000000001

>  <r_qp_QPlogKp>  (252) 
-1.744

>  <r_qp_QPlogPC16>  (252) 
16.817

>  <r_qp_QPlogPo/w>  (252) 
4.1779999999999999

>  <r_qp_QPlogPoct>  (252) 
28.145

>  <r_qp_QPlogPw>  (252) 
17.245000000000001

>  <r_qp_QPlogS>  (252) 
-5.7869999999999999

>  <r_qp_QPpolrz>  (252) 
51.085999999999999

>  <r_qp_SASA>  (252) 
797.74599999999998

>  <r_qp_SAamideO>  (252) 
0

>  <r_qp_SAfluorine>  (252) 
0

>  <r_qp_WPSA>  (252) 
1.601

>  <r_qp_accptHB>  (252) 
8.5

>  <r_qp_dip^2/V>  (252) 
0.0441456

>  <r_qp_dipole>  (252) 
8.1319999999999997

>  <r_qp_donorHB>  (252) 
4

>  <r_qp_glob>  (252) 
0.79373119999999997

>  <r_qp_mol_MW>  (252) 
490.62200000000001

>  <r_qp_volume>  (252) 
1498.164

>  <r_sd_BIOSOLVEIT.INFINISEE\_FTREES\_SIMILARITY>  (252) 
0.91700000000000004

>  <r_sd_BIOSOLVEIT.LOGP>  (252) 
4.9965999999999999

>  <r_sd_BIOSOLVEIT.MOLECULAR\_WEIGHT>  (252) 
490.62799999999999

>  <r_sd_BIOSOLVEIT.TPSA>  (252) 
113.23999999999999

>  <i_epik_Tot_Q>  (252) 
2

>  <i_epik_Tot_abs_Q>  (252) 
2

>  <i_f3d_flags>  (252) 
0

>  <i_i_glide_confnum>  (252) 
5

>  <i_i_glide_lignum>  (252) 
193

>  <i_i_glide_posenum>  (252) 
19

>  <i_i_glide_rotatable_bonds>  (252) 
9

>  <i_lp_mmshare_version>  (252) 
65135

>  <i_m_ct_format>  (252) 
2

>  <i_m_source_file_index>  (252) 
958

>  <i_qp_#NandO>  (252) 
8

>  <i_qp_#acid>  (252) 
0

>  <i_qp_#amide>  (252) 
0

>  <i_qp_#amidine>  (252) 
0

>  <i_qp_#amine>  (252) 
0

>  <i_qp_#in34>  (252) 
0

>  <i_qp_#in56>  (252) 
22

>  <i_qp_#metab>  (252) 
4

>  <i_qp_#nonHatm>  (252) 
35

>  <i_qp_#noncon>  (252) 
0

>  <i_qp_#ringatoms>  (252) 
22

>  <i_qp_#rotor>  (252) 
10

>  <i_qp_#rtvFG>  (252) 
0

>  <i_qp_#stars>  (252) 
0

>  <i_qp_CNS>  (252) 
-2

>  <i_qp_HumanOralAbsorption>  (252) 
3

>  <i_qp_RuleOfFive>  (252) 
0

>  <i_qp_RuleOfThree>  (252) 
1

>  <i_sd_BIOSOLVEIT.INFINISEE\_REAGENT1\_NAME>  (252) 
21909402

>  <i_sd_BIOSOLVEIT.INFINISEE\_REAGENT2\_NAME>  (252) 
22360182

>  <i_sd_BIOSOLVEIT.INFINISEE\_REAGENT3\_NAME>  (252) 
21979096

>  <i_sd_BIOSOLVEIT.INFINISEE\_RESULT\_RANK>  (252) 
23044

>  <i_sd_version>  (252) 
0

>  <b_lp_Chiralities_Consistent>  (252) 
1

>  <b_sd_chiral_flag>  (252) 
0

>  <canonical_id>  (252) 
ATP-HTVS-286379397336

>  <compound_code>  (252) 
30625

>  <title>  (252) 
m_282030aaa____21909402____22360182____21979096

>  <variant>  (252) 
30625-2

>  <source_file>  (252) 
运行/运行/ATP-VSW/ATP-VSW-DOCK_HTVS_1-001_lib/ATP-VSW-DOCK_HTVS_1-001_lib

>  <canonical_smiles>  (252) 
CC(C)[NH2+]c1ccc(CNc2nc(N(C)Cc3ccccc3S(N)(=O)=O)[nH+]c3ccccc23)cc1

>  <scaffold>  (252) 
c1ccc(CNc2nc(NCc3ccccc3)c3ccccc3[nH+]2)cc1

>  <molecular_formula>  (252) 
C26H32N6O2S+2

$$$$
ATP-HTVS-28D90B8D287A
     RDKit          3D

 72 75  0  0  0  0  0  0  0  0999 V2000
  197.4106  186.7449  155.7334 O   0  0  0  0  0  0  0  0  0  0  0  0
  198.2582  185.8770  155.5058 C   0  0  0  0  0  0  0  0  0  0  0  0
  198.3026  184.6901  156.1377 N   0  0  0  0  0  0  0  0  0  0  0  0
  197.3040  184.1104  156.9752 C   0  0  0  0  0  0  0  0  0  0  0  0
  196.8483  182.7973  156.6691 C   0  0  0  0  0  0  0  0  0  0  0  0
  197.3551  182.0597  155.5837 N   0  0  0  0  0  0  0  0  0  0  0  0
  197.4789  180.6176  155.7235 C   0  0  1  0  0  0  0  0  0  0  0  0
  197.9091  179.9083  154.4638 C   0  0  0  0  0  0  0  0  0  0  0  0
  197.0817  179.9040  153.3197 C   0  0  0  0  0  0  0  0  0  0  0  0
  197.5090  179.2605  152.1404 C   0  0  0  0  0  0  0  0  0  0  0  0
  198.7683  178.6236  152.0996 C   0  0  0  0  0  0  0  0  0  0  0  0
  199.5623  178.5750  153.2662 C   0  0  0  0  0  0  0  0  0  0  0  0
  199.1308  179.2100  154.4463 C   0  0  0  0  0  0  0  0  0  0  0  0
  199.2815  178.0237  150.8050 C   0  0  1  0  0  0  0  0  0  0  0  0
  198.7563  176.6496  150.5543 N   0  0  1  0  0  0  0  0  0  0  0  0
  198.8280  176.2415  149.1247 C   0  0  1  0  0  0  0  0  0  0  0  0
  197.9194  177.0587  148.1932 C   0  0  2  0  0  0  0  0  0  0  0  0
  199.3140  175.6119  151.4740 C   0  0  1  0  0  0  0  0  0  0  0  0
  200.8116  175.3116  151.2490 C   0  0  2  0  0  0  0  0  0  0  0  0
  195.8297  182.2455  157.4923 C   0  0  0  0  0  0  0  0  0  0  0  0
  195.2971  182.8906  158.5426 N   0  0  0  0  0  0  0  0  0  0  0  0
  195.7576  184.1103  158.8742 C   0  0  0  0  0  0  0  0  0  0  0  0
  196.7900  184.7614  158.1349 C   0  0  0  0  0  0  0  0  0  0  0  0
  197.2707  186.0144  158.5982 C   0  0  0  0  0  0  0  0  0  0  0  0
  196.6786  186.6465  159.7115 C   0  0  0  0  0  0  0  0  0  0  0  0
  195.6325  186.0177  160.4103 C   0  0  0  0  0  0  0  0  0  0  0  0
  195.1973  184.7454  159.9964 C   0  0  0  0  0  0  0  0  0  0  0  0
  199.3578  186.1354  154.4616 C   0  0  1  0  0  0  0  0  0  0  0  0
  198.8775  185.6799  153.0962 C   0  0  0  0  0  0  0  0  0  0  0  0
  198.5541  184.3237  152.8635 C   0  0  0  0  0  0  0  0  0  0  0  0
  198.0748  183.9101  151.6084 C   0  0  0  0  0  0  0  0  0  0  0  0
  197.9465  184.8363  150.5552 C   0  0  0  0  0  0  0  0  0  0  0  0
  198.2695  186.1988  150.7930 C   0  0  0  0  0  0  0  0  0  0  0  0
  198.7275  186.6148  152.0567 C   0  0  0  0  0  0  0  0  0  0  0  0
  197.4715  184.3691  149.2280 C   0  0  0  0  0  0  0  0  0  0  0  0
  197.1432  183.2026  148.9936 O   0  0  0  0  0  0  0  0  0  0  0  0
  197.4094  185.3999  148.1108 C   0  0  2  0  0  0  0  0  0  0  0  0
  199.0088  184.0540  155.8111 H   0  0  0  0  0  0  0  0  0  0  0  0
  198.0373  182.4977  154.9693 H   0  0  0  0  0  0  0  0  0  0  0  0
  198.2022  180.4160  156.5127 H   0  0  0  0  0  0  0  0  0  0  0  0
  196.5431  180.1531  156.0285 H   0  0  0  0  0  0  0  0  0  0  0  0
  196.1170  180.3915  153.3482 H   0  0  0  0  0  0  0  0  0  0  0  0
  196.8756  179.2748  151.2621 H   0  0  0  0  0  0  0  0  0  0  0  0
  200.5176  178.0628  153.2587 H   0  0  0  0  0  0  0  0  0  0  0  0
  199.7427  179.1586  155.3358 H   0  0  0  0  0  0  0  0  0  0  0  0
  198.9715  178.7234  150.0321 H   0  0  0  0  0  0  0  0  0  0  0  0
  200.3690  178.0420  150.7989 H   0  0  0  0  0  0  0  0  0  0  0  0
  199.8542  176.3076  148.7680 H   0  0  0  0  0  0  0  0  0  0  0  0
  198.5411  175.1920  149.0496 H   0  0  0  0  0  0  0  0  0  0  0  0
  197.9708  176.6638  147.1788 H   0  0  0  0  0  0  0  0  0  0  0  0
  198.2193  178.1032  148.1273 H   0  0  0  0  0  0  0  0  0  0  0  0
  196.8785  177.0223  148.5126 H   0  0  0  0  0  0  0  0  0  0  0  0
  199.1639  175.9097  152.5115 H   0  0  0  0  0  0  0  0  0  0  0  0
  198.7301  174.6964  151.3578 H   0  0  0  0  0  0  0  0  0  0  0  0
  201.1703  174.5550  151.9463 H   0  0  0  0  0  0  0  0  0  0  0  0
  201.4376  176.1907  151.4032 H   0  0  0  0  0  0  0  0  0  0  0  0
  201.0128  174.9357  150.2458 H   0  0  0  0  0  0  0  0  0  0  0  0
  195.3568  181.3045  157.2878 H   0  0  0  0  0  0  0  0  0  0  0  0
  198.0928  186.5190  158.1087 H   0  0  0  0  0  0  0  0  0  0  0  0
  197.0399  187.6168  160.0179 H   0  0  0  0  0  0  0  0  0  0  0  0
  195.1888  186.5027  161.2637 H   0  0  0  0  0  0  0  0  0  0  0  0
  194.4035  184.2437  160.5324 H   0  0  0  0  0  0  0  0  0  0  0  0
  199.5825  187.2042  154.4479 H   0  0  0  0  0  0  0  0  0  0  0  0
  200.2909  185.6238  154.7219 H   0  0  0  0  0  0  0  0  0  0  0  0
  198.6516  183.5925  153.6508 H   0  0  0  0  0  0  0  0  0  0  0  0
  197.8210  182.8654  151.4670 H   0  0  0  0  0  0  0  0  0  0  0  0
  198.1734  186.9509  150.0249 H   0  0  0  0  0  0  0  0  0  0  0  0
  198.9447  187.6591  152.2217 H   0  0  0  0  0  0  0  0  0  0  0  0
  198.4020  185.8114  147.9242 H   0  0  0  0  0  0  0  0  0  0  0  0
  196.7467  186.2190  148.3945 H   0  0  0  0  0  0  0  0  0  0  0  0
  197.0380  184.9577  147.1860 H   0  0  0  0  0  0  0  0  0  0  0  0
  197.7698  176.6873  150.7726 H   0  0  0  0  0  0  0  0  0  0  0  0
  1  2  2  0
  2  3  1  0
  2 28  1  0
  3  4  1  0
  3 38  1  0
  4  5  2  0
  4 23  1  0
  5  6  1  0
  5 20  1  0
  6  7  1  0
  6 39  1  0
  7  8  1  0
  7 40  1  1
  7 41  1  0
  8  9  1  0
  8 13  2  0
  9 10  2  0
  9 42  1  0
 10 11  1  0
 10 43  1  0
 11 12  2  0
 11 14  1  0
 12 13  1  0
 12 44  1  0
 13 45  1  0
 14 15  1  0
 14 46  1  6
 14 47  1  0
 15 16  1  0
 15 18  1  0
 15 72  1  1
 16 17  1  0
 16 48  1  6
 16 49  1  0
 17 50  1  6
 17 51  1  0
 17 52  1  0
 18 19  1  0
 18 53  1  1
 18 54  1  0
 19 55  1  1
 19 56  1  0
 19 57  1  0
 20 21  2  0
 20 58  1  0
 21 22  1  0
 22 23  1  0
 22 27  2  0
 23 24  2  0
 24 25  1  0
 24 59  1  0
 25 26  2  0
 25 60  1  0
 26 27  1  0
 26 61  1  0
 27 62  1  0
 28 29  1  0
 28 63  1  6
 28 64  1  0
 29 30  1  0
 29 34  2  0
 30 31  2  0
 30 65  1  0
 31 32  1  0
 31 66  1  0
 32 33  2  0
 32 35  1  0
 33 34  1  0
 33 67  1  0
 34 68  1  0
 35 36  2  0
 35 37  1  0
 37 69  1  6
 37 70  1  0
 37 71  1  0
M  CHG  1  15   1
M  END
>  <s_epik_cmdline>  (253) 
J2VwaWtfcHl0aG9uJywgJy1waCcsICc3LjAwMDAwMCcsICctcGh0JywgJzIuMDAwMDAwJywgJy1tcycsICcxNicsICctdG4nLCAnOCcsICctbWEnLCAnMjAwJywgJy1pbWFlJywgJzxpbmZpbGUubWFlPicsICctb21hZScsICc8b3V0ZmlsZS5tYWU+Jw==

>  <s_epik_input>  (253) 
W2NIXTFbY0hdYyhDKD1PKVtDSDNdKVtjSF1bY0hdYzFbQ0gyXUMoPU8pW05IXWMoYyhjMjMpW2NIXVtjSF1bY0hdW2NIXTMpYyhbY0hdbjIpW05IXVtDSDJdYzRbY0hdW2NIXWMoW2NIXVtjSF00KVtDSDJdTihbQ0gyXVtDSDNdKVtDSDJdW0NIM10=

>  <s_i_glide_gridfile>  (253) 
ATP-Grid

>  <s_lp_Force_Field>  (253) 
OPLS_2005

>  <s_lp_Variant>  (253) 
rxn502b____EMOL20754534____EMOL13728749____EMOL2868412-1

>  <s_lp_label>  (253) 
2547_sdstereoexpander_1_neutralizer_1_epik_1_stereoizer_1

>  <s_m_source_file>  (253) 
ATP-VSW-LIGPREP-003-in.maegz

>  <s_sd_BIOSOLVEIT.INFINISEE\_QUERY\_NAME>  (253) 
Ref-Lig

>  <s_sd_BIOSOLVEIT.INFINISEE\_QUERY\_SMILES>  (253) 
S(c1nc2c(cc1C[NH2+]Cc3ccc(cc3)C[NH+](C)C)cccc2)Cc4ccccc4

>  <s_sd_BIOSOLVEIT.INFINISEE\_REACTION\_NAME>  (253) 
rxn502b

>  <s_sd_BIOSOLVEIT.INFINISEE\_REAGENT1\_NAME>  (253) 
EMOL20754534

>  <s_sd_BIOSOLVEIT.INFINISEE\_REAGENT1\_SMILES>  (253) 
O=C(O)Cc1ccc(cc1)C(=O)C

>  <s_sd_BIOSOLVEIT.INFINISEE\_REAGENT2\_NAME>  (253) 
EMOL13728749

>  <s_sd_BIOSOLVEIT.INFINISEE\_REAGENT2\_SMILES>  (253) 
Brc1c(N)c2c(nc1)cccc2

>  <s_sd_BIOSOLVEIT.INFINISEE\_REAGENT3\_NAME>  (253) 
EMOL2868412

>  <s_sd_BIOSOLVEIT.INFINISEE\_REAGENT3\_SMILES>  (253) 
N(Cc1ccc(cc1)CN)(CC)CC

>  <s_sd_BIOSOLVEIT.INFINISEE\_SPACE>  (253) 
eXplore_7tr_2022-12

>  <s_vsw_compound_code>  (253) 
81475

>  <s_vsw_variant>  (253) 
81475-1

>  <r_epik_Charging_Adjusted_Penalty>  (253) 
0.050676298258548198

>  <r_epik_Ionization_Penalty>  (253) 
0.034799999999999998

>  <r_epik_Ionization_Penalty_Charging>  (253) 
0.015900000000000001

>  <r_epik_Ionization_Penalty_Neutral>  (253) 
0.018800000000000001

>  <r_epik_State_Penalty>  (253) 
0.034799999999999998

>  <r_i_docking_score>  (253) 
-4.4565896650127197

>  <r_i_glide_ecoul>  (253) 
-3.3745284080505402

>  <r_i_glide_eff_state_penalty>  (253) 
0.034799999999999998

>  <r_i_glide_einternal>  (253) 
2.6934738159179701

>  <r_i_glide_emodel>  (253) 
-61.1478994391247

>  <r_i_glide_energy>  (253) 
-46.849317073822

>  <r_i_glide_erotb>  (253) 
0.74690625464481897

>  <r_i_glide_esite>  (253) 
-0.033234368882487202

>  <r_i_glide_evdw>  (253) 
-43.474788665771499

>  <r_i_glide_gscore>  (253) 
-4.4913896650127203

>  <r_i_glide_hbond>  (253) 
0

>  <r_i_glide_ligand_efficiency>  (253) 
-0.120448369324668

>  <r_i_glide_ligand_efficiency_ln>  (253) 
-0.96652982105617202

>  <r_i_glide_ligand_efficiency_sa>  (253) 
-0.40136068777568801

>  <r_i_glide_lipo>  (253) 
-2.21624117459683

>  <r_i_glide_metal>  (253) 
-0

>  <r_i_glide_rewards>  (253) 
-0.308901681682066

>  <r_lp_Energy>  (253) 
41.430779000000001

>  <r_lp_tautomer_probability>  (253) 
0.99995000000000001

>  <r_qp_ACxDN^.5/SA>  (253) 
0.0153367

>  <r_qp_CIQPlogS>  (253) 
-6.0899999999999999

>  <r_qp_EA(eV)>  (253) 
0.96699999999999997

>  <r_qp_FISA>  (253) 
101.468

>  <r_qp_FOSA>  (253) 
346.42200000000003

>  <r_qp_IP(eV)>  (253) 
8.5990000000000002

>  <r_qp_Jm>  (253) 
0.0138821840308726

>  <r_qp_PISA>  (253) 
335.90600000000001

>  <r_qp_PSA>  (253) 
86.435000000000002

>  <r_qp_PercentHumanOralAbsorption>  (253) 
100

>  <r_qp_QPPCaco>  (253) 
269.51299999999998

>  <r_qp_QPPMDCK>  (253) 
132.66399999999999

>  <r_qp_QPlogBB>  (253) 
-0.65100000000000002

>  <r_qp_QPlogHERG>  (253) 
-6.3840000000000003

>  <r_qp_QPlogKhsa>  (253) 
0.81699999999999995

>  <r_qp_QPlogKp>  (253) 
-3.2130000000000001

>  <r_qp_QPlogPC16>  (253) 
16.379999999999999

>  <r_qp_QPlogPo/w>  (253) 
4.8380000000000001

>  <r_qp_QPlogPoct>  (253) 
25.693000000000001

>  <r_qp_QPlogPw>  (253) 
13.456

>  <r_qp_QPlogS>  (253) 
-4.3390000000000004

>  <r_qp_QPpolrz>  (253) 
54.017000000000003

>  <r_qp_SASA>  (253) 
783.79600000000005

>  <r_qp_SAamideO>  (253) 
0

>  <r_qp_SAfluorine>  (253) 
0

>  <r_qp_WPSA>  (253) 
0

>  <r_qp_accptHB>  (253) 
8.5

>  <r_qp_dip^2/V>  (253) 
0.0040100999999999999

>  <r_qp_dipole>  (253) 
2.5329999999999999

>  <r_qp_donorHB>  (253) 
2

>  <r_qp_glob>  (253) 
0.84401119999999996

>  <r_qp_mol_MW>  (253) 
494.63499999999999

>  <r_qp_volume>  (253) 
1599.8489999999999

>  <r_sd_BIOSOLVEIT.INFINISEE\_FTREES\_SIMILARITY>  (253) 
0.91300000000000003

>  <r_sd_BIOSOLVEIT.LOGP>  (253) 
4.6554000000000002

>  <r_sd_BIOSOLVEIT.MOLECULAR\_WEIGHT>  (253) 
495.64400000000001

>  <r_sd_BIOSOLVEIT.TPSA>  (253) 
75.530000000000001

>  <i_epik_Tot_Q>  (253) 
1

>  <i_epik_Tot_abs_Q>  (253) 
1

>  <i_f3d_flags>  (253) 
0

>  <i_i_glide_confnum>  (253) 
17

>  <i_i_glide_lignum>  (253) 
1123

>  <i_i_glide_posenum>  (253) 
17

>  <i_i_glide_rotatable_bonds>  (253) 
12

>  <i_lp_mmshare_version>  (253) 
65135

>  <i_m_ct_format>  (253) 
2

>  <i_m_source_file_index>  (253) 
2547

>  <i_qp_#NandO>  (253) 
6

>  <i_qp_#acid>  (253) 
0

>  <i_qp_#amide>  (253) 
0

>  <i_qp_#amidine>  (253) 
0

>  <i_qp_#amine>  (253) 
1

>  <i_qp_#in34>  (253) 
0

>  <i_qp_#in56>  (253) 
22

>  <i_qp_#metab>  (253) 
7

>  <i_qp_#nonHatm>  (253) 
37

>  <i_qp_#noncon>  (253) 
0

>  <i_qp_#ringatoms>  (253) 
22

>  <i_qp_#rotor>  (253) 
11

>  <i_qp_#rtvFG>  (253) 
0

>  <i_qp_#stars>  (253) 
0

>  <i_qp_CNS>  (253) 
1

>  <i_qp_HumanOralAbsorption>  (253) 
3

>  <i_qp_RuleOfFive>  (253) 
0

>  <i_qp_RuleOfThree>  (253) 
1

>  <i_sd_BIOSOLVEIT.INFINISEE\_RESULT\_RANK>  (253) 
35333

>  <i_sd_version>  (253) 
0

>  <b_lp_Chiralities_Consistent>  (253) 
1

>  <b_sd_chiral_flag>  (253) 
0

>  <canonical_id>  (253) 
ATP-HTVS-28D90B8D287A

>  <compound_code>  (253) 
81475

>  <title>  (253) 
rxn502b____EMOL20754534____EMOL13728749____EMOL2868412

>  <variant>  (253) 
81475-1

>  <source_file>  (253) 
运行/运行/ATP-VSW/ATP-VSW-DOCK_HTVS_1-003_lib/ATP-VSW-DOCK_HTVS_1-003_lib.mae

>  <canonical_smiles>  (253) 
CC[NH+](CC)Cc1ccc(CNc2cnc3ccccc3c2NC(=O)Cc2ccc(C(C)=O)cc2)cc1

>  <scaffold>  (253) 
O=C(Cc1ccccc1)Nc1c(NCc2ccccc2)cnc2ccccc12

>  <molecular_formula>  (253) 
C31H35N4O2+

$$$$
ATP-HTVS-28F6129F8E3C
     RDKit          3D

 60 63  0  0  0  0  0  0  0  0999 V2000
  198.3859  186.8483  151.9206 O   0  0  0  0  0  0  0  0  0  0  0  0
  198.4864  185.6198  151.8770 C   0  0  0  0  0  0  0  0  0  0  0  0
  198.8937  184.8355  152.8932 N   0  0  0  0  0  0  0  0  0  0  0  0
  199.3041  185.1829  154.2153 C   0  0  0  0  0  0  0  0  0  0  0  0
  199.1945  186.4467  154.6947 N   0  0  0  0  0  0  0  0  0  0  0  0
  199.6098  186.7276  155.9424 C   0  0  0  0  0  0  0  0  0  0  0  0
  200.1681  185.7781  156.8211 C   0  0  0  0  0  0  0  0  0  0  0  0
  200.5636  186.1729  158.1149 N   0  0  0  0  0  0  0  0  0  0  0  0
  199.8864  185.5870  159.2741 C   0  0  1  0  0  0  0  0  0  0  0  0
  198.3721  185.5418  159.1952 C   0  0  0  0  0  0  0  0  0  0  0  0
  197.6841  184.3172  159.3370 C   0  0  0  0  0  0  0  0  0  0  0  0
  196.2753  184.2832  159.2834 C   0  0  0  0  0  0  0  0  0  0  0  0
  195.5543  185.4800  159.0978 C   0  0  0  0  0  0  0  0  0  0  0  0
  196.2390  186.7032  158.9444 C   0  0  0  0  0  0  0  0  0  0  0  0
  197.6471  186.7302  158.9927 C   0  0  0  0  0  0  0  0  0  0  0  0
  195.5236  182.9757  159.4396 C   0  0  1  0  0  0  0  0  0  0  0  0
  195.1032  182.4053  158.1369 N   0  0  1  0  0  0  0  0  0  0  0  0
  196.2305  181.8377  157.3634 C   0  0  2  0  0  0  0  0  0  0  0  0
  194.0012  181.4373  158.3011 C   0  0  2  0  0  0  0  0  0  0  0  0
  200.3127  184.4537  156.3307 C   0  0  0  0  0  0  0  0  0  0  0  0
  199.8661  184.1422  155.0142 C   0  0  0  0  0  0  0  0  0  0  0  0
  200.0259  182.8146  154.5278 C   0  0  0  0  0  0  0  0  0  0  0  0
  200.5908  181.8096  155.3443 C   0  0  0  0  0  0  0  0  0  0  0  0
  201.0274  182.1292  156.6416 C   0  0  0  0  0  0  0  0  0  0  0  0
  200.9211  183.4451  157.1163 C   0  0  0  0  0  0  0  0  0  0  0  0
  198.2321  184.9008  150.5846 C   0  0  0  0  0  0  0  0  0  0  0  0
  198.5418  185.5355  149.3625 C   0  0  0  0  0  0  0  0  0  0  0  0
  198.2995  184.8892  148.1334 C   0  0  0  0  0  0  0  0  0  0  0  0
  198.6243  185.5485  146.8767 C   0  0  0  0  0  0  0  0  0  0  0  0
  198.9034  186.1137  145.8308 C   0  0  0  0  0  0  0  0  0  0  0  0
  197.7450  183.5960  148.1276 C   0  0  0  0  0  0  0  0  0  0  0  0
  197.4291  182.9550  149.3398 C   0  0  0  0  0  0  0  0  0  0  0  0
  197.6649  183.6037  150.5675 C   0  0  0  0  0  0  0  0  0  0  0  0
  198.9684  183.8547  152.6688 H   0  0  0  0  0  0  0  0  0  0  0  0
  199.4725  187.7561  156.2529 H   0  0  0  0  0  0  0  0  0  0  0  0
  200.7637  187.1575  158.2297 H   0  0  0  0  0  0  0  0  0  0  0  0
  200.2422  184.5752  159.4878 H   0  0  0  0  0  0  0  0  0  0  0  0
  200.1649  186.1948  160.1343 H   0  0  0  0  0  0  0  0  0  0  0  0
  198.2357  183.4007  159.4961 H   0  0  0  0  0  0  0  0  0  0  0  0
  194.4750  185.4546  159.0669 H   0  0  0  0  0  0  0  0  0  0  0  0
  195.6879  187.6244  158.7918 H   0  0  0  0  0  0  0  0  0  0  0  0
  198.1708  187.6677  158.8786 H   0  0  0  0  0  0  0  0  0  0  0  0
  196.1259  182.2498  159.9906 H   0  0  0  0  0  0  0  0  0  0  0  0
  194.6548  183.1816  160.0643 H   0  0  0  0  0  0  0  0  0  0  0  0
  196.7416  181.0405  157.9084 H   0  0  0  0  0  0  0  0  0  0  0  0
  196.9675  182.6068  157.1293 H   0  0  0  0  0  0  0  0  0  0  0  0
  195.8708  181.4310  156.4180 H   0  0  0  0  0  0  0  0  0  0  0  0
  194.3229  180.6142  158.9320 H   0  0  0  0  0  0  0  0  0  0  0  0
  193.6644  181.0534  157.3356 H   0  0  0  0  0  0  0  0  0  0  0  0
  193.1468  181.9062  158.7919 H   0  0  0  0  0  0  0  0  0  0  0  0
  199.7483  182.5296  153.5174 H   0  0  0  0  0  0  0  0  0  0  0  0
  200.7160  180.8042  154.9677 H   0  0  0  0  0  0  0  0  0  0  0  0
  201.4674  181.3708  157.2692 H   0  0  0  0  0  0  0  0  0  0  0  0
  201.3376  183.6733  158.0905 H   0  0  0  0  0  0  0  0  0  0  0  0
  198.9715  186.5271  149.3664 H   0  0  0  0  0  0  0  0  0  0  0  0
  199.1509  186.6164  144.9229 H   0  0  0  0  0  0  0  0  0  0  0  0
  197.5566  183.0937  147.1890 H   0  0  0  0  0  0  0  0  0  0  0  0
  196.9994  181.9651  149.3317 H   0  0  0  0  0  0  0  0  0  0  0  0
  197.3976  183.0973  151.4844 H   0  0  0  0  0  0  0  0  0  0  0  0
  194.7124  183.1430  157.5657 H   0  0  0  0  0  0  0  0  0  0  0  0
  1  2  2  0
  2  3  1  0
  2 26  1  0
  3  4  1  0
  3 34  1  0
  4  5  1  0
  4 21  2  0
  5  6  2  0
  6  7  1  0
  6 35  1  0
  7  8  1  0
  7 20  2  0
  8  9  1  0
  8 36  1  0
  9 10  1  0
  9 37  1  1
  9 38  1  0
 10 11  2  0
 10 15  1  0
 11 12  1  0
 11 39  1  0
 12 13  2  0
 12 16  1  0
 13 14  1  0
 13 40  1  0
 14 15  2  0
 14 41  1  0
 15 42  1  0
 16 17  1  0
 16 43  1  1
 16 44  1  0
 17 18  1  0
 17 19  1  0
 17 60  1  6
 18 45  1  1
 18 46  1  0
 18 47  1  0
 19 48  1  1
 19 49  1  0
 19 50  1  0
 20 21  1  0
 20 25  1  0
 21 22  1  0
 22 23  2  0
 22 51  1  0
 23 24  1  0
 23 52  1  0
 24 25  2  0
 24 53  1  0
 25 54  1  0
 26 27  1  0
 26 33  2  0
 27 28  2  0
 27 55  1  0
 28 29  1  0
 28 31  1  0
 29 30  3  0
 30 56  1  0
 31 32  2  0
 31 57  1  0
 32 33  1  0
 32 58  1  0
 33 59  1  0
M  CHG  1  17   1
M  END
>  <s_epik_cmdline>  (254) 
J2VwaWtfcHl0aG9uJywgJy1waCcsICc3LjAwMDAwMCcsICctcGh0JywgJzIuMDAwMDAwJywgJy1tcycsICcxNicsICctdG4nLCAnOCcsICctbWEnLCAnMjAwJywgJy1pbWFlJywgJzxpbmZpbGUubWFlPicsICctb21hZScsICc8b3V0ZmlsZS5tYWU+Jw==

>  <s_epik_input>  (254) 
W2NIXTFbY0hdW2NIXWMoQyNbQ0hdKVtjSF1jMUMoPU8pW05IXWMoYyhjMjMpW2NIXVtjSF1bY0hdW2NIXTMpbltjSF1jMltOSF1bQ0gyXWM0W2NIXWMoW2NIXVtjSF1bY0hdNClbQ0gyXU4oW0NIM10pW0NIM10=

>  <s_i_glide_gridfile>  (254) 
ATP-Grid

>  <s_lp_Force_Field>  (254) 
OPLS_2005

>  <s_lp_Variant>  (254) 
rxn502b____EMOL31600582____EMOL7515103____EMOL2873214-1

>  <s_lp_label>  (254) 
2198_sdstereoexpander_1_neutralizer_1_epik_1_stereoizer_1

>  <s_m_source_file>  (254) 
ATP-VSW-LIGPREP-001-in.maegz

>  <s_sd_BIOSOLVEIT.INFINISEE\_QUERY\_NAME>  (254) 
Ref-Lig

>  <s_sd_BIOSOLVEIT.INFINISEE\_QUERY\_SMILES>  (254) 
S(c1nc2c(cc1C[NH2+]Cc3ccc(cc3)C[NH+](C)C)cccc2)Cc4ccccc4

>  <s_sd_BIOSOLVEIT.INFINISEE\_REACTION\_NAME>  (254) 
rxn502b

>  <s_sd_BIOSOLVEIT.INFINISEE\_REAGENT1\_NAME>  (254) 
EMOL31600582

>  <s_sd_BIOSOLVEIT.INFINISEE\_REAGENT1\_SMILES>  (254) 
O=C(O)c1cc(C#C)ccc1

>  <s_sd_BIOSOLVEIT.INFINISEE\_REAGENT2\_NAME>  (254) 
EMOL7515103

>  <s_sd_BIOSOLVEIT.INFINISEE\_REAGENT2\_SMILES>  (254) 
Brc1c2c(c(nc1)N)cccc2

>  <s_sd_BIOSOLVEIT.INFINISEE\_REAGENT3\_NAME>  (254) 
EMOL2873214

>  <s_sd_BIOSOLVEIT.INFINISEE\_REAGENT3\_SMILES>  (254) 
N(Cc1cc(ccc1)CN)(C)C

>  <s_sd_BIOSOLVEIT.INFINISEE\_SPACE>  (254) 
eXplore_7tr_2022-12

>  <s_vsw_compound_code>  (254) 
70305

>  <s_vsw_variant>  (254) 
70305-1

>  <r_epik_Charging_Adjusted_Penalty>  (254) 
0.088195370499548398

>  <r_epik_Ionization_Penalty>  (254) 
0.044200000000000003

>  <r_epik_Ionization_Penalty_Charging>  (254) 
0.0441

>  <r_epik_Ionization_Penalty_Neutral>  (254) 
0.0001

>  <r_epik_State_Penalty>  (254) 
0.0441

>  <r_i_docking_score>  (254) 
-4.4092003362050001

>  <r_i_glide_ecoul>  (254) 
-6.8943853378295898

>  <r_i_glide_eff_state_penalty>  (254) 
0.0441

>  <r_i_glide_einternal>  (254) 
4.5944638252258301

>  <r_i_glide_emodel>  (254) 
-52.327774640930201

>  <r_i_glide_energy>  (254) 
-39.141303062439

>  <r_i_glide_erotb>  (254) 
0.84030275005691701

>  <r_i_glide_esite>  (254) 
-0.082011464223116698

>  <r_i_glide_evdw>  (254) 
-32.246917724609403

>  <r_i_glide_gscore>  (254) 
-4.4533003362050003

>  <r_i_glide_hbond>  (254) 
-0.043889500103055298

>  <r_i_glide_ligand_efficiency>  (254) 
-0.13361213140015199

>  <r_i_glide_ligand_efficiency_ln>  (254) 
-0.980583325154466

>  <r_i_glide_ligand_efficiency_sa>  (254) 
-0.42856549787040499

>  <r_i_glide_lipo>  (254) 
-1.9831383667532001

>  <r_i_glide_metal>  (254) 
-0

>  <r_i_glide_rewards>  (254) 
-0.53806006827764197

>  <r_lp_Energy>  (254) 
30.5517

>  <r_qp_ACxDN^.5/SA>  (254) 
0.012556899999999999

>  <r_qp_CIQPlogS>  (254) 
-5.6219999999999999

>  <r_qp_EA(eV)>  (254) 
0.94799999999999995

>  <r_qp_FISA>  (254) 
76.885999999999996

>  <r_qp_FOSA>  (254) 
256.49799999999999

>  <r_qp_IP(eV)>  (254) 
7.8410000000000002

>  <r_qp_Jm>  (254) 
0.00115546013091118

>  <r_qp_PISA>  (254) 
485.084

>  <r_qp_PSA>  (254) 
61.707999999999998

>  <r_qp_PercentHumanOralAbsorption>  (254) 
100

>  <r_qp_QPPCaco>  (254) 
460.98899999999998

>  <r_qp_QPPMDCK>  (254) 
236.98400000000001

>  <r_qp_QPlogBB>  (254) 
-0.40400000000000003

>  <r_qp_QPlogHERG>  (254) 
-8.4280000000000008

>  <r_qp_QPlogKhsa>  (254) 
0.871

>  <r_qp_QPlogKp>  (254) 
-2.5219999999999998

>  <r_qp_QPlogPC16>  (254) 
16.599

>  <r_qp_QPlogPo/w>  (254) 
4.9939999999999998

>  <r_qp_QPlogPoct>  (254) 
24.864999999999998

>  <r_qp_QPlogPw>  (254) 
13.811

>  <r_qp_QPlogS>  (254) 
-6.0529999999999999

>  <r_qp_QPpolrz>  (254) 
51.911000000000001

>  <r_qp_SASA>  (254) 
818.46799999999996

>  <r_qp_SAamideO>  (254) 
0

>  <r_qp_SAfluorine>  (254) 
0

>  <r_qp_WPSA>  (254) 
0

>  <r_qp_accptHB>  (254) 
6.5

>  <r_qp_dip^2/V>  (254) 
0.041122199999999998

>  <r_qp_dipole>  (254) 
7.758

>  <r_qp_donorHB>  (254) 
2.5

>  <r_qp_glob>  (254) 
0.76165159999999998

>  <r_qp_mol_MW>  (254) 
434.54000000000002

>  <r_qp_volume>  (254) 
1463.489

>  <r_sd_BIOSOLVEIT.INFINISEE\_FTREES\_SIMILARITY>  (254) 
0.93300000000000005

>  <r_sd_BIOSOLVEIT.LOGP>  (254) 
3.7250000000000001

>  <r_sd_BIOSOLVEIT.MOLECULAR\_WEIGHT>  (254) 
435.548

>  <r_sd_BIOSOLVEIT.TPSA>  (254) 
58.460000000000001

>  <i_epik_Tot_Q>  (254) 
1

>  <i_epik_Tot_abs_Q>  (254) 
1

>  <i_f3d_flags>  (254) 
0

>  <i_i_glide_confnum>  (254) 
5

>  <i_i_glide_lignum>  (254) 
717

>  <i_i_glide_posenum>  (254) 
14

>  <i_i_glide_rotatable_bonds>  (254) 
9

>  <i_lp_mmshare_version>  (254) 
65135

>  <i_m_ct_format>  (254) 
2

>  <i_m_source_file_index>  (254) 
2198

>  <i_qp_#NandO>  (254) 
5

>  <i_qp_#acid>  (254) 
0

>  <i_qp_#amide>  (254) 
0

>  <i_qp_#amidine>  (254) 
0

>  <i_qp_#amine>  (254) 
1

>  <i_qp_#in34>  (254) 
0

>  <i_qp_#in56>  (254) 
22

>  <i_qp_#metab>  (254) 
7

>  <i_qp_#nonHatm>  (254) 
33

>  <i_qp_#noncon>  (254) 
0

>  <i_qp_#ringatoms>  (254) 
22

>  <i_qp_#rotor>  (254) 
8

>  <i_qp_#rtvFG>  (254) 
0

>  <i_qp_#stars>  (254) 
2

>  <i_qp_CNS>  (254) 
0

>  <i_qp_HumanOralAbsorption>  (254) 
3

>  <i_qp_RuleOfFive>  (254) 
0

>  <i_qp_RuleOfThree>  (254) 
2

>  <i_sd_BIOSOLVEIT.INFINISEE\_RESULT\_RANK>  (254) 
3446

>  <i_sd_version>  (254) 
0

>  <b_lp_Chiralities_Consistent>  (254) 
1

>  <b_sd_chiral_flag>  (254) 
0

>  <canonical_id>  (254) 
ATP-HTVS-28F6129F8E3C

>  <compound_code>  (254) 
70305

>  <title>  (254) 
rxn502b____EMOL31600582____EMOL7515103____EMOL2873214

>  <variant>  (254) 
70305-1

>  <source_file>  (254) 
运行/运行/ATP-VSW/ATP-VSW-DOCK_HTVS_1-001_lib/ATP-VSW-DOCK_HTVS_1-001_lib

>  <canonical_smiles>  (254) 
C#Cc1cccc(C(=O)Nc2ncc(NCc3cccc(C[NH+](C)C)c3)c3ccccc23)c1

>  <scaffold>  (254) 
O=C(Nc1ncc(NCc2ccccc2)c2ccccc12)c1ccccc1

>  <molecular_formula>  (254) 
C28H27N4O+

$$$$
ATP-HTVS-2912F4F66BA1
     RDKit          3D

 64 67  0  0  0  0  0  0  0  0999 V2000
  202.2941  177.4911  148.8392 O   0  0  0  0  0  0  0  0  0  0  0  0
  201.2030  177.2489  149.3697 C   0  0  0  0  0  0  0  0  0  0  0  0
  200.0674  177.0901  148.6426 N   0  0  0  0  0  0  0  0  0  0  0  0
  200.0938  177.1742  147.1659 C   0  0  2  0  0  0  0  0  0  0  0  0
  198.8227  177.6724  146.6126 C   0  0  0  0  0  0  0  0  0  0  0  0
  197.8197  178.0647  146.1862 N   0  0  0  0  0  0  0  0  0  0  0  0
  200.4696  175.8576  146.4903 C   0  0  0  0  0  0  0  0  0  0  0  0
  201.2830  175.8736  145.3343 C   0  0  0  0  0  0  0  0  0  0  0  0
  201.6054  174.6664  144.6840 C   0  0  0  0  0  0  0  0  0  0  0  0
  201.1179  173.4400  145.1765 C   0  0  0  0  0  0  0  0  0  0  0  0
  200.3059  173.4210  146.3236 C   0  0  0  0  0  0  0  0  0  0  0  0
  199.9844  174.6212  146.9770 C   0  0  0  0  0  0  0  0  0  0  0  0
  198.7751  176.6711  149.2171 C   0  0  2  0  0  0  0  0  0  0  0  0
  201.1688  177.0471  150.8434 C   0  0  0  0  0  0  0  0  0  0  0  0
  202.2922  176.4854  151.4493 N   0  0  0  0  0  0  0  0  0  0  0  0
  202.1071  176.2947  152.8040 C   0  0  0  0  0  0  0  0  0  0  0  0
  200.8279  176.8189  153.0806 C   0  0  0  0  0  0  0  0  0  0  0  0
  200.3591  176.7185  154.4165 C   0  0  0  0  0  0  0  0  0  0  0  0
  201.1666  176.1845  155.4367 C   0  0  0  0  0  0  0  0  0  0  0  0
  202.4461  175.6922  155.1392 C   0  0  0  0  0  0  0  0  0  0  0  0
  202.9299  175.7302  153.8152 C   0  0  0  0  0  0  0  0  0  0  0  0
  200.2756  177.3481  151.8532 C   0  0  0  0  0  0  0  0  0  0  0  0
  199.0431  178.0195  151.7757 N   0  0  0  0  0  0  0  0  0  0  0  0
  198.5638  179.0251  152.6227 C   0  0  0  0  0  0  0  0  0  0  0  0
  199.2643  179.3668  153.8012 C   0  0  0  0  0  0  0  0  0  0  0  0
  198.7057  180.3079  154.6777 C   0  0  0  0  0  0  0  0  0  0  0  0
  197.4855  180.9655  154.3569 C   0  0  0  0  0  0  0  0  0  0  0  0
  196.8159  180.6789  153.1495 C   0  0  0  0  0  0  0  0  0  0  0  0
  197.3406  179.6912  152.2915 C   0  0  0  0  0  0  0  0  0  0  0  0
  196.9419  182.0330  155.2858 C   0  0  1  0  0  0  0  0  0  0  0  0
  196.2982  181.4480  156.5587 C   0  0  1  0  0  0  0  0  0  0  0  0
  195.5582  182.4608  157.3401 N   0  0  1  0  0  0  0  0  0  0  0  0
  194.8768  181.8861  158.5230 C   0  0  2  0  0  0  0  0  0  0  0  0
  196.3839  183.6368  157.7024 C   0  0  2  0  0  0  0  0  0  0  0  0
  200.8120  177.9401  146.8608 H   0  0  0  0  0  0  0  0  0  0  0  0
  201.6453  176.8096  144.9313 H   0  0  0  0  0  0  0  0  0  0  0  0
  202.2159  174.6836  143.7931 H   0  0  0  0  0  0  0  0  0  0  0  0
  201.3592  172.5148  144.6760 H   0  0  0  0  0  0  0  0  0  0  0  0
  199.9080  172.4943  146.7066 H   0  0  0  0  0  0  0  0  0  0  0  0
  199.3473  174.5549  147.8456 H   0  0  0  0  0  0  0  0  0  0  0  0
  198.2005  177.5697  149.4468 H   0  0  0  0  0  0  0  0  0  0  0  0
  198.9194  176.0720  150.1228 H   0  0  0  0  0  0  0  0  0  0  0  0
  198.1566  176.0817  148.5332 H   0  0  0  0  0  0  0  0  0  0  0  0
  203.1087  176.2312  150.9042 H   0  0  0  0  0  0  0  0  0  0  0  0
  199.3471  177.1084  154.6247 H   0  0  0  0  0  0  0  0  0  0  0  0
  200.7970  176.1689  156.4464 H   0  0  0  0  0  0  0  0  0  0  0  0
  203.0842  175.3147  155.9467 H   0  0  0  0  0  0  0  0  0  0  0  0
  203.9239  175.3708  153.5783 H   0  0  0  0  0  0  0  0  0  0  0  0
  198.4099  177.6821  151.0697 H   0  0  0  0  0  0  0  0  0  0  0  0
  200.1857  178.8746  154.0639 H   0  0  0  0  0  0  0  0  0  0  0  0
  199.1992  180.5369  155.6101 H   0  0  0  0  0  0  0  0  0  0  0  0
  195.9409  181.2396  152.8660 H   0  0  0  0  0  0  0  0  0  0  0  0
  196.8003  179.4526  151.3794 H   0  0  0  0  0  0  0  0  0  0  0  0
  197.7976  182.6549  155.5490 H   0  0  0  0  0  0  0  0  0  0  0  0
  196.2368  182.6664  154.7379 H   0  0  0  0  0  0  0  0  0  0  0  0
  195.6082  180.6658  156.2537 H   0  0  0  0  0  0  0  0  0  0  0  0
  197.0602  180.9712  157.1804 H   0  0  0  0  0  0  0  0  0  0  0  0
  195.5984  181.4200  159.1978 H   0  0  0  0  0  0  0  0  0  0  0  0
  194.1444  181.1373  158.2223 H   0  0  0  0  0  0  0  0  0  0  0  0
  194.3532  182.6704  159.0704 H   0  0  0  0  0  0  0  0  0  0  0  0
  197.2130  183.3357  158.3483 H   0  0  0  0  0  0  0  0  0  0  0  0
  195.7935  184.3855  158.2304 H   0  0  0  0  0  0  0  0  0  0  0  0
  196.8051  184.1359  156.8288 H   0  0  0  0  0  0  0  0  0  0  0  0
  194.8217  182.7595  156.7103 H   0  0  0  0  0  0  0  0  0  0  0  0
  1  2  2  0
  2  3  1  0
  2 14  1  0
  3  4  1  0
  3 13  1  0
  4  5  1  0
  4  7  1  0
  4 35  1  1
  5  6  3  0
  7  8  2  0
  7 12  1  0
  8  9  1  0
  8 36  1  0
  9 10  2  0
  9 37  1  0
 10 11  1  0
 10 38  1  0
 11 12  2  0
 11 39  1  0
 12 40  1  0
 13 41  1  1
 13 42  1  0
 13 43  1  0
 14 15  1  0
 14 22  2  0
 15 16  1  0
 15 44  1  0
 16 17  1  0
 16 21  2  0
 17 18  2  0
 17 22  1  0
 18 19  1  0
 18 45  1  0
 19 20  2  0
 19 46  1  0
 20 21  1  0
 20 47  1  0
 21 48  1  0
 22 23  1  0
 23 24  1  0
 23 49  1  0
 24 25  1  0
 24 29  2  0
 25 26  2  0
 25 50  1  0
 26 27  1  0
 26 51  1  0
 27 28  2  0
 27 30  1  0
 28 29  1  0
 28 52  1  0
 29 53  1  0
 30 31  1  0
 30 54  1  1
 30 55  1  0
 31 32  1  0
 31 56  1  6
 31 57  1  0
 32 33  1  0
 32 34  1  0
 32 64  1  6
 33 58  1  1
 33 59  1  0
 33 60  1  0
 34 61  1  1
 34 62  1  0
 34 63  1  0
M  CHG  1  32   1
M  END
>  <s_epik_cmdline>  (255) 
J2VwaWtfcHl0aG9uJywgJy1waCcsICc3LjAwMDAwMCcsICctcGh0JywgJzIuMDAwMDAwJywgJy1tcycsICcxNicsICctdG4nLCAnOCcsICctbWEnLCAnMjAwJywgJy1pbWFlJywgJzxpbmZpbGUubWFlPicsICctb21hZScsICc8b3V0ZmlsZS5tYWU+Jw==

>  <s_epik_input>  (255) 
W2NIXTFbY0hdW2NIXVtjSF1bY0hdYzFbQ0BASF0oQyNOKU4oW0NIM10pQyg9TyljKFtuSF0yKWMoYyhjMjMpW2NIXVtjSF1bY0hdW2NIXTMpW05IXWM0W2NIXVtjSF1jKFtjSF1bY0hdNClbQ0gyXVtDSDJdTihbQ0gzXSlbQ0gzXQ==

>  <s_i_glide_gridfile>  (255) 
ATP-Grid

>  <s_lp_Force_Field>  (255) 
OPLS_2005

>  <s_lp_Variant>  (255) 
rxn512b____EMOL24630243____EMOL719673____EMOL31232878-2

>  <s_lp_label>  (255) 
2538_sdstereoexpander_2_neutralizer_1_epik_1_stereoizer_1

>  <s_m_source_file>  (255) 
ATP-VSW-LIGPREP-002-in.maegz

>  <s_sd_BIOSOLVEIT.INFINISEE\_QUERY\_NAME>  (255) 
Ref-Lig

>  <s_sd_BIOSOLVEIT.INFINISEE\_QUERY\_SMILES>  (255) 
S(c1nc2c(cc1C[NH2+]Cc3ccc(cc3)C[NH+](C)C)cccc2)Cc4ccccc4

>  <s_sd_BIOSOLVEIT.INFINISEE\_REACTION\_NAME>  (255) 
rxn512b

>  <s_sd_BIOSOLVEIT.INFINISEE\_REAGENT1\_NAME>  (255) 
EMOL24630243

>  <s_sd_BIOSOLVEIT.INFINISEE\_REAGENT1\_SMILES>  (255) 
N#CC(NC)c1ccccc1

>  <s_sd_BIOSOLVEIT.INFINISEE\_REAGENT2\_NAME>  (255) 
EMOL719673

>  <s_sd_BIOSOLVEIT.INFINISEE\_REAGENT2\_SMILES>  (255) 
BrC=1c2c(NC1C(=O)O)cccc2

>  <s_sd_BIOSOLVEIT.INFINISEE\_REAGENT3\_NAME>  (255) 
EMOL31232878

>  <s_sd_BIOSOLVEIT.INFINISEE\_REAGENT3\_SMILES>  (255) 
N(CCc1ccc(N)cc1)(C)C

>  <s_sd_BIOSOLVEIT.INFINISEE\_SPACE>  (255) 
eXplore_7tr_2022-12

>  <s_vsw_compound_code>  (255) 
81186

>  <s_vsw_variant>  (255) 
81186-2

>  <r_epik_Charging_Adjusted_Penalty>  (255) 
0.0083786032408328607

>  <r_epik_Ionization_Penalty>  (255) 
0.0041999999999999997

>  <r_epik_Ionization_Penalty_Charging>  (255) 
0.0041999999999999997

>  <r_epik_Ionization_Penalty_Neutral>  (255) 
0

>  <r_epik_State_Penalty>  (255) 
0.0041999999999999997

>  <r_i_docking_score>  (255) 
-3.6441329314008999

>  <r_i_glide_ecoul>  (255) 
-8.6624240875244105

>  <r_i_glide_eff_state_penalty>  (255) 
0.0041999999999999997

>  <r_i_glide_einternal>  (255) 
8.4897327423095703

>  <r_i_glide_emodel>  (255) 
-47.855124432281599

>  <r_i_glide_energy>  (255) 
-39.270252227783203

>  <r_i_glide_erotb>  (255) 
0.68578793105906799

>  <r_i_glide_esite>  (255) 
-0.095848121886498897

>  <r_i_glide_evdw>  (255) 
-30.6078281402588

>  <r_i_glide_gscore>  (255) 
-3.6483329314008999

>  <r_i_glide_hbond>  (255) 
-0.20000000000000001

>  <r_i_glide_ligand_efficiency>  (255) 
-0.10718038033532

>  <r_i_glide_ligand_efficiency_ln>  (255) 
-0.80509117901294902

>  <r_i_glide_ligand_efficiency_sa>  (255) 
-0.347222824591569

>  <r_i_glide_lipo>  (255) 
-0.88513612952277398

>  <r_i_glide_metal>  (255) 
-0

>  <r_i_glide_rewards>  (255) 
-0.32338159090909002

>  <r_lp_Energy>  (255) 
34.432872000000003

>  <r_qp_ACxDN^.5/SA>  (255) 
0.0087162000000000003

>  <r_qp_CIQPlogS>  (255) 
-7.21

>  <r_qp_EA(eV)>  (255) 
0.44

>  <r_qp_FISA>  (255) 
81.031000000000006

>  <r_qp_FOSA>  (255) 
207.50899999999999

>  <r_qp_IP(eV)>  (255) 
7.6349999999999998

>  <r_qp_Jm>  (255) 
0.0088410722706834099

>  <r_qp_PISA>  (255) 
399.83699999999999

>  <r_qp_PSA>  (255) 
71.706000000000003

>  <r_qp_PercentHumanOralAbsorption>  (255) 
100

>  <r_qp_QPPCaco>  (255) 
421.096

>  <r_qp_QPPMDCK>  (255) 
214.89699999999999

>  <r_qp_QPlogBB>  (255) 
-0.28499999999999998

>  <r_qp_QPlogHERG>  (255) 
-6.1760000000000002

>  <r_qp_QPlogKhsa>  (255) 
0.86399999999999999

>  <r_qp_QPlogKp>  (255) 
-2.8029999999999999

>  <r_qp_QPlogPC16>  (255) 
14.670999999999999

>  <r_qp_QPlogPo/w>  (255) 
4.9189999999999996

>  <r_qp_QPlogPoct>  (255) 
21.353000000000002

>  <r_qp_QPlogPw>  (255) 
10.036

>  <r_qp_QPlogS>  (255) 
-4.9050000000000002

>  <r_qp_QPpolrz>  (255) 
47.579000000000001

>  <r_qp_SASA>  (255) 
688.37699999999995

>  <r_qp_SAamideO>  (255) 
0

>  <r_qp_SAfluorine>  (255) 
0

>  <r_qp_WPSA>  (255) 
0

>  <r_qp_accptHB>  (255) 
6

>  <r_qp_dip^2/V>  (255) 
0.049535500000000003

>  <r_qp_dipole>  (255) 
8.3030000000000008

>  <r_qp_donorHB>  (255) 
1

>  <r_qp_glob>  (255) 
0.87569909999999995

>  <r_qp_mol_MW>  (255) 
451.56999999999999

>  <r_qp_volume>  (255) 
1391.6310000000001

>  <r_sd_BIOSOLVEIT.INFINISEE\_FTREES\_SIMILARITY>  (255) 
0.91300000000000003

>  <r_sd_BIOSOLVEIT.LOGP>  (255) 
3.9353799999999999

>  <r_sd_BIOSOLVEIT.MOLECULAR\_WEIGHT>  (255) 
452.57900000000001

>  <r_sd_BIOSOLVEIT.TPSA>  (255) 
76.359999999999999

>  <i_epik_Tot_Q>  (255) 
1

>  <i_epik_Tot_abs_Q>  (255) 
1

>  <i_f3d_flags>  (255) 
0

>  <i_i_glide_confnum>  (255) 
2

>  <i_i_glide_lignum>  (255) 
1122

>  <i_i_glide_posenum>  (255) 
6

>  <i_i_glide_rotatable_bonds>  (255) 
9

>  <i_lp_mmshare_version>  (255) 
65135

>  <i_m_ct_format>  (255) 
2

>  <i_m_source_file_index>  (255) 
2538

>  <i_qp_#NandO>  (255) 
6

>  <i_qp_#acid>  (255) 
0

>  <i_qp_#amide>  (255) 
0

>  <i_qp_#amidine>  (255) 
0

>  <i_qp_#amine>  (255) 
1

>  <i_qp_#in34>  (255) 
0

>  <i_qp_#in56>  (255) 
21

>  <i_qp_#metab>  (255) 
6

>  <i_qp_#nonHatm>  (255) 
34

>  <i_qp_#noncon>  (255) 
0

>  <i_qp_#ringatoms>  (255) 
21

>  <i_qp_#rotor>  (255) 
9

>  <i_qp_#rtvFG>  (255) 
0

>  <i_qp_#stars>  (255) 
1

>  <i_qp_CNS>  (255) 
1

>  <i_qp_HumanOralAbsorption>  (255) 
3

>  <i_qp_RuleOfFive>  (255) 
0

>  <i_qp_RuleOfThree>  (255) 
0

>  <i_sd_BIOSOLVEIT.INFINISEE\_RESULT\_RANK>  (255) 
34239

>  <i_sd_version>  (255) 
0

>  <b_lp_Chiralities_Consistent>  (255) 
1

>  <b_sd_chiral_flag>  (255) 
0

>  <canonical_id>  (255) 
ATP-HTVS-2912F4F66BA1

>  <compound_code>  (255) 
81186

>  <title>  (255) 
rxn512b____EMOL24630243____EMOL719673____EMOL31232878

>  <variant>  (255) 
81186-2

>  <source_file>  (255) 
运行/运行/ATP-VSW/ATP-VSW-DOCK_HTVS_1-002_lib.maegz

>  <canonical_smiles>  (255) 
CN(C(=O)c1[nH]c2ccccc2c1Nc1ccc(CC[NH+](C)C)cc1)[C@H](C#N)c1ccccc1

>  <scaffold>  (255) 
O=C(NCc1ccccc1)c1[nH]c2ccccc2c1Nc1ccccc1

>  <molecular_formula>  (255) 
C28H30N5O+

$$$$
ATP-HTVS-291AE177F52E
     RDKit          3D

 63 66  0  0  0  0  0  0  0  0999 V2000
  195.5070  186.0382  160.5343 N   0  0  0  0  0  0  0  0  0  0  0  0
  195.8934  185.2983  159.7361 C   0  0  0  0  0  0  0  0  0  0  0  0
  196.3808  184.3720  158.7366 C   0  0  0  0  0  0  0  0  0  0  0  0
  197.1517  184.8299  157.6507 C   0  0  0  0  0  0  0  0  0  0  0  0
  197.6331  183.9226  156.6842 C   0  0  0  0  0  0  0  0  0  0  0  0
  197.3443  182.5485  156.8049 C   0  0  0  0  0  0  0  0  0  0  0  0
  196.5553  182.0923  157.8828 C   0  0  0  0  0  0  0  0  0  0  0  0
  196.0743  183.0007  158.8442 C   0  0  0  0  0  0  0  0  0  0  0  0
  197.8387  181.5771  155.7542 C   0  0  1  0  0  0  0  0  0  0  0  0
  198.2327  180.2681  156.2868 N   0  0  0  0  0  0  0  0  0  0  0  0
  199.0977  179.3946  155.6685 C   0  0  0  0  0  0  0  0  0  0  0  0
  199.4342  179.6023  154.3919 N   0  0  0  0  0  0  0  0  0  0  0  0
  200.2299  178.7135  153.7493 C   0  0  0  0  0  0  0  0  0  0  0  0
  200.5142  178.9286  152.3941 N   0  0  0  0  0  0  0  0  0  0  0  0
  200.0341  180.0948  151.6645 C   0  0  1  0  0  0  0  0  0  0  0  0
  198.7701  179.8452  150.8414 C   0  0  0  0  0  0  0  0  0  0  0  0
  198.6950  178.8588  149.8119 C   0  0  0  0  0  0  0  0  0  0  0  0
  197.4885  178.6843  149.0938 C   0  0  0  0  0  0  0  0  0  0  0  0
  196.3456  179.4383  149.4331 C   0  0  0  0  0  0  0  0  0  0  0  0
  196.4186  180.4029  150.4553 C   0  0  0  0  0  0  0  0  0  0  0  0
  197.6355  180.6421  151.1197 C   0  0  0  0  0  0  0  0  0  0  0  0
  199.8902  177.9883  149.4212 C   0  0  1  0  0  0  0  0  0  0  0  0
  199.9524  176.7194  150.1989 N   0  0  1  0  0  0  0  0  0  0  0  0
  198.8135  175.8009  149.9702 C   0  0  2  0  0  0  0  0  0  0  0  0
  201.2585  176.0351  150.0244 C   0  0  2  0  0  0  0  0  0  0  0  0
  200.7554  177.5863  154.4301 C   0  0  0  0  0  0  0  0  0  0  0  0
  200.3790  177.4365  155.7870 C   0  0  0  0  0  0  0  0  0  0  0  0
  199.5432  178.3342  156.3660 N   0  0  0  0  0  0  0  0  0  0  0  0
  200.8788  176.3712  156.5500 C   0  0  0  0  0  0  0  0  0  0  0  0
  201.7487  175.4274  155.9632 C   0  0  0  0  0  0  0  0  0  0  0  0
  202.1072  175.5422  154.5978 C   0  0  0  0  0  0  0  0  0  0  0  0
  201.6170  176.6300  153.8368 C   0  0  0  0  0  0  0  0  0  0  0  0
  196.7935  181.4196  154.6286 C   0  0  2  0  0  0  0  0  0  0  0  0
  197.3890  185.8818  157.5502 H   0  0  0  0  0  0  0  0  0  0  0  0
  198.2065  184.2865  155.8395 H   0  0  0  0  0  0  0  0  0  0  0  0
  196.2916  181.0461  157.9780 H   0  0  0  0  0  0  0  0  0  0  0  0
  195.4669  182.6264  159.6554 H   0  0  0  0  0  0  0  0  0  0  0  0
  198.7447  182.0131  155.3192 H   0  0  0  0  0  0  0  0  0  0  0  0
  197.8586  179.9896  157.1924 H   0  0  0  0  0  0  0  0  0  0  0  0
  201.2007  178.3134  151.9601 H   0  0  0  0  0  0  0  0  0  0  0  0
  199.8671  180.9659  152.3127 H   0  0  0  0  0  0  0  0  0  0  0  0
  200.8239  180.3724  150.9879 H   0  0  0  0  0  0  0  0  0  0  0  0
  197.4274  177.9816  148.2832 H   0  0  0  0  0  0  0  0  0  0  0  0
  195.4189  179.2935  148.8939 H   0  0  0  0  0  0  0  0  0  0  0  0
  195.5456  180.9849  150.7368 H   0  0  0  0  0  0  0  0  0  0  0  0
  197.6965  181.4371  151.8576 H   0  0  0  0  0  0  0  0  0  0  0  0
  199.8516  177.7817  148.3469 H   0  0  0  0  0  0  0  0  0  0  0  0
  200.8130  178.5559  149.5557 H   0  0  0  0  0  0  0  0  0  0  0  0
  198.7527  175.4877  148.9270 H   0  0  0  0  0  0  0  0  0  0  0  0
  197.8774  176.2722  150.2671 H   0  0  0  0  0  0  0  0  0  0  0  0
  198.9244  174.9135  150.6005 H   0  0  0  0  0  0  0  0  0  0  0  0
  201.4101  175.7417  148.9850 H   0  0  0  0  0  0  0  0  0  0  0  0
  201.3115  175.1360  150.6363 H   0  0  0  0  0  0  0  0  0  0  0  0
  202.0957  176.6759  150.3082 H   0  0  0  0  0  0  0  0  0  0  0  0
  200.6197  176.2972  157.5962 H   0  0  0  0  0  0  0  0  0  0  0  0
  202.1507  174.6186  156.5648 H   0  0  0  0  0  0  0  0  0  0  0  0
  202.7841  174.8224  154.1689 H   0  0  0  0  0  0  0  0  0  0  0  0
  201.9427  176.7052  152.8094 H   0  0  0  0  0  0  0  0  0  0  0  0
  196.5942  182.3745  154.1423 H   0  0  0  0  0  0  0  0  0  0  0  0
  195.8410  181.0658  155.0281 H   0  0  0  0  0  0  0  0  0  0  0  0
  197.1233  180.7252  153.8423 H   0  0  0  0  0  0  0  0  0  0  0  0
  199.1760  178.1427  157.2992 H   0  0  0  0  0  0  0  0  0  0  0  0
  199.8524  176.9845  151.1693 H   0  0  0  0  0  0  0  0  0  0  0  0
  1  2  3  0
  2  3  1  0
  3  4  1  0
  3  8  2  0
  4  5  2  0
  4 34  1  0
  5  6  1  0
  5 35  1  0
  6  7  2  0
  6  9  1  0
  7  8  1  0
  7 36  1  0
  8 37  1  0
  9 10  1  0
  9 33  1  0
  9 38  1  6
 10 11  1  0
 10 39  1  0
 11 12  1  0
 11 28  2  0
 12 13  2  0
 13 14  1  0
 13 26  1  0
 14 15  1  0
 14 40  1  0
 15 16  1  0
 15 41  1  1
 15 42  1  0
 16 17  1  0
 16 21  2  0
 17 18  2  0
 17 22  1  0
 18 19  1  0
 18 43  1  0
 19 20  2  0
 19 44  1  0
 20 21  1  0
 20 45  1  0
 21 46  1  0
 22 23  1  0
 22 47  1  6
 22 48  1  0
 23 24  1  0
 23 25  1  0
 23 63  1  1
 24 49  1  6
 24 50  1  0
 24 51  1  0
 25 52  1  6
 25 53  1  0
 25 54  1  0
 26 27  1  0
 26 32  2  0
 27 28  1  0
 27 29  2  0
 28 62  1  0
 29 30  1  0
 29 55  1  0
 30 31  2  0
 30 56  1  0
 31 32  1  0
 31 57  1  0
 32 58  1  0
 33 59  1  6
 33 60  1  0
 33 61  1  0
M  CHG  2  23   1  28   1
M  END
>  <s_epik_cmdline>  (256) 
J2VwaWtfcHl0aG9uJywgJy1waCcsICc3LjAwMDAwMCcsICctcGh0JywgJzIuMDAwMDAwJywgJy1tcycsICcxNicsICctdG4nLCAnOCcsICctbWEnLCAnMjAwJywgJy1pbWFlJywgJzxpbmZpbGUubWFlPicsICctb21hZScsICc8b3V0ZmlsZS5tYWU+Jw==

>  <s_epik_input>  (256) 
TiNDYzFbY0hdW2NIXWMoW2NIXVtjSF0xKVtDQEhdKFtDSDNdKVtOSF1jKG5jKGMyMylbY0hdW2NIXVtjSF1bY0hdMyluYzJbTkhdW0NIMl1jNGMoW0NIMl1OKFtDSDNdKVtDSDNdKVtjSF1bY0hdW2NIXVtjSF00

>  <s_i_glide_gridfile>  (256) 
ATP-Grid

>  <s_lp_Force_Field>  (256) 
OPLS_2005

>  <s_lp_Variant>  (256) 
m_282030aaa____21928180____22360182____21973156-2

>  <s_lp_label>  (256) 
1348_sdstereoexpander_2_neutralizer_1_epik_1_stereoizer_1

>  <s_m_source_file>  (256) 
ATP-VSW-LIGPREP-003-in.maegz

>  <s_sd_BIOSOLVEIT.INFINISEE\_QUERY\_NAME>  (256) 
Ref-Lig

>  <s_sd_BIOSOLVEIT.INFINISEE\_QUERY\_SMILES>  (256) 
S(c1nc2c(cc1C[NH2+]Cc3ccc(cc3)C[NH+](C)C)cccc2)Cc4ccccc4

>  <s_sd_BIOSOLVEIT.INFINISEE\_REACTION\_NAME>  (256) 
m_282030aaa

>  <s_sd_BIOSOLVEIT.INFINISEE\_REAGENT1\_SMILES>  (256) 
[R1*]NC(c1ccc(C#N)cc1)C

>  <s_sd_BIOSOLVEIT.INFINISEE\_REAGENT2\_SMILES>  (256) 
[R2*]c1nc([R1*])c2c(n1)cccc2

>  <s_sd_BIOSOLVEIT.INFINISEE\_REAGENT3\_SMILES>  (256) 
[R2*]NCc1c(cccc1)CN(C)C

>  <s_sd_BIOSOLVEIT.INFINISEE\_SPACE>  (256) 
REALSpace_44bn_2023-08

>  <s_vsw_compound_code>  (256) 
43107

>  <s_vsw_variant>  (256) 
43107-2

>  <r_epik_Charging_Adjusted_Penalty>  (256) 
0.109290254466403

>  <r_epik_Ionization_Penalty>  (256) 
0.051900000000000002

>  <r_epik_Ionization_Penalty_Charging>  (256) 
0.051900000000000002

>  <r_epik_Ionization_Penalty_Neutral>  (256) 
0

>  <r_epik_State_Penalty>  (256) 
0.0574

>  <r_i_docking_score>  (256) 
-4.3671616778686699

>  <r_i_glide_ecoul>  (256) 
-5.9570975303649902

>  <r_i_glide_eff_state_penalty>  (256) 
0.0574

>  <r_i_glide_einternal>  (256) 
2.7435829639434801

>  <r_i_glide_emodel>  (256) 
-56.950671179976702

>  <r_i_glide_energy>  (256) 
-40.138650417327902

>  <r_i_glide_erotb>  (256) 
0.72608572124474802

>  <r_i_glide_esite>  (256) 
-0.24241487466853701

>  <r_i_glide_evdw>  (256) 
-34.181552886962898

>  <r_i_glide_gscore>  (256) 
-4.4245616778686703

>  <r_i_glide_hbond>  (256) 
-0.15744369955293699

>  <r_i_glide_ligand_efficiency>  (256) 
-0.13233823266268699

>  <r_i_glide_ligand_efficiency_ln>  (256) 
-0.97123414520498996

>  <r_i_glide_ligand_efficiency_sa>  (256) 
-0.42447942394181198

>  <r_i_glide_lipo>  (256) 
-1.40006237429386

>  <r_i_glide_metal>  (256) 
-0

>  <r_i_glide_rewards>  (256) 
-0.748084176695192

>  <r_lp_Energy>  (256) 
20.980632

>  <r_qp_ACxDN^.5/SA>  (256) 
0.0130946

>  <r_qp_CIQPlogS>  (256) 
-6.7039999999999997

>  <r_qp_EA(eV)>  (256) 
0.624

>  <r_qp_FISA>  (256) 
90.236999999999995

>  <r_qp_FOSA>  (256) 
199.18799999999999

>  <r_qp_IP(eV)>  (256) 
8.0139999999999993

>  <r_qp_Jm>  (256) 
0.0059517680317800296

>  <r_qp_PISA>  (256) 
412.572

>  <r_qp_PSA>  (256) 
67.361000000000004

>  <r_qp_PercentHumanOralAbsorption>  (256) 
100

>  <r_qp_QPPCaco>  (256) 
344.41300000000001

>  <r_qp_QPPMDCK>  (256) 
172.929

>  <r_qp_QPlogBB>  (256) 
-0.40699999999999997

>  <r_qp_QPlogHERG>  (256) 
-6.6029999999999998

>  <r_qp_QPlogKhsa>  (256) 
0.69599999999999995

>  <r_qp_QPlogKp>  (256) 
-2.9279999999999999

>  <r_qp_QPlogPC16>  (256) 
14.945

>  <r_qp_QPlogPo/w>  (256) 
4.4320000000000004

>  <r_qp_QPlogPoct>  (256) 
22.420000000000002

>  <r_qp_QPlogPw>  (256) 
12.175000000000001

>  <r_qp_QPlogS>  (256) 
-4.9379999999999997

>  <r_qp_QPpolrz>  (256) 
47.155999999999999

>  <r_qp_SASA>  (256) 
701.99699999999996

>  <r_qp_SAamideO>  (256) 
0

>  <r_qp_SAfluorine>  (256) 
0

>  <r_qp_WPSA>  (256) 
0

>  <r_qp_accptHB>  (256) 
6.5

>  <r_qp_dip^2/V>  (256) 
0.014652099999999999

>  <r_qp_dipole>  (256) 
4.4930000000000003

>  <r_qp_donorHB>  (256) 
2

>  <r_qp_glob>  (256) 
0.85310160000000002

>  <r_qp_mol_MW>  (256) 
436.55799999999999

>  <r_qp_volume>  (256) 
1378.0219999999999

>  <r_sd_BIOSOLVEIT.INFINISEE\_FTREES\_SIMILARITY>  (256) 
0.90900000000000003

>  <r_sd_BIOSOLVEIT.LOGP>  (256) 
3.9311799999999999

>  <r_sd_BIOSOLVEIT.MOLECULAR\_WEIGHT>  (256) 
437.56799999999998

>  <r_sd_BIOSOLVEIT.TPSA>  (256) 
78.069999999999993

>  <i_epik_Tot_Q>  (256) 
2

>  <i_epik_Tot_abs_Q>  (256) 
2

>  <i_f3d_flags>  (256) 
0

>  <i_i_glide_confnum>  (256) 
1

>  <i_i_glide_lignum>  (256) 
525

>  <i_i_glide_posenum>  (256) 
10

>  <i_i_glide_rotatable_bonds>  (256) 
8

>  <i_lp_mmshare_version>  (256) 
65135

>  <i_m_ct_format>  (256) 
2

>  <i_m_source_file_index>  (256) 
1348

>  <i_qp_#NandO>  (256) 
6

>  <i_qp_#acid>  (256) 
0

>  <i_qp_#amide>  (256) 
0

>  <i_qp_#amidine>  (256) 
0

>  <i_qp_#amine>  (256) 
1

>  <i_qp_#in34>  (256) 
0

>  <i_qp_#in56>  (256) 
22

>  <i_qp_#metab>  (256) 
4

>  <i_qp_#nonHatm>  (256) 
33

>  <i_qp_#noncon>  (256) 
0

>  <i_qp_#ringatoms>  (256) 
22

>  <i_qp_#rotor>  (256) 
9

>  <i_qp_#rtvFG>  (256) 
0

>  <i_qp_#stars>  (256) 
0

>  <i_qp_CNS>  (256) 
1

>  <i_qp_HumanOralAbsorption>  (256) 
3

>  <i_qp_RuleOfFive>  (256) 
0

>  <i_qp_RuleOfThree>  (256) 
0

>  <i_sd_BIOSOLVEIT.INFINISEE\_REAGENT1\_NAME>  (256) 
21928180

>  <i_sd_BIOSOLVEIT.INFINISEE\_REAGENT2\_NAME>  (256) 
22360182

>  <i_sd_BIOSOLVEIT.INFINISEE\_REAGENT3\_NAME>  (256) 
21973156

>  <i_sd_BIOSOLVEIT.INFINISEE\_RESULT\_RANK>  (256) 
49471

>  <i_sd_version>  (256) 
0

>  <b_lp_Chiralities_Consistent>  (256) 
1

>  <b_sd_chiral_flag>  (256) 
0

>  <canonical_id>  (256) 
ATP-HTVS-291AE177F52E

>  <compound_code>  (256) 
43107

>  <title>  (256) 
m_282030aaa____21928180____22360182____21973156

>  <variant>  (256) 
43107-2

>  <source_file>  (256) 
运行/运行/ATP-VSW/ATP-VSW-DOCK_HTVS_1-003_lib/ATP-VSW-DOCK_HTVS_1-003_lib.mae

>  <canonical_smiles>  (256) 
C[C@H](Nc1nc(NCc2ccccc2C[NH+](C)C)c2ccccc2[nH+]1)c1ccc(C#N)cc1

>  <scaffold>  (256) 
c1ccc(CNc2nc(NCc3ccccc3)c3ccccc3[nH+]2)cc1

>  <molecular_formula>  (256) 
C27H30N6+2

$$$$
ATP-HTVS-2A14F6A33EFE
     RDKit          3D

 57 60  0  0  0  0  0  0  0  0999 V2000
  201.7382  178.7993  156.6317 N   0  0  0  0  0  0  0  0  0  0  0  0
  201.5469  180.0391  157.1220 C   0  0  0  0  0  0  0  0  0  0  0  0
  200.3600  180.7510  156.8009 C   0  0  0  0  0  0  0  0  0  0  0  0
  199.3975  180.1146  155.9526 C   0  0  0  0  0  0  0  0  0  0  0  0
  198.1830  180.6952  155.5634 N   0  0  0  0  0  0  0  0  0  0  0  0
  198.2027  182.0041  154.9151 C   0  0  1  0  0  0  0  0  0  0  0  0
  197.0320  182.2205  153.9205 C   0  0  1  0  0  0  0  0  0  0  0  0
  196.7525  183.6719  153.5929 N   0  0  1  0  0  0  0  0  0  0  0  0
  196.9627  184.6239  154.7213 C   0  0  2  0  0  0  0  0  0  0  0  0
  197.4225  184.2323  152.3951 C   0  0  2  0  0  0  0  0  0  0  0  0
  197.2350  181.3193  152.6978 C   0  0  0  0  0  0  0  0  0  0  0  0
  198.2713  181.5988  151.7682 C   0  0  0  0  0  0  0  0  0  0  0  0
  198.3227  180.8562  150.5833 C   0  0  0  0  0  0  0  0  0  0  0  0
  197.4227  179.7823  150.3263 C   0  0  0  0  0  0  0  0  0  0  0  0
  196.4593  179.4569  151.2964 C   0  0  0  0  0  0  0  0  0  0  0  0
  196.3747  180.2061  152.4756 C   0  0  0  0  0  0  0  0  0  0  0  0
  197.5318  179.0071  149.0268 C   0  0  2  0  0  0  0  0  0  0  0  0
  199.6662  178.8162  155.4756 C   0  0  0  0  0  0  0  0  0  0  0  0
  200.8585  178.1520  155.8279 C   0  0  0  0  0  0  0  0  0  0  0  0
  201.2173  176.7932  155.3730 C   0  0  0  0  0  0  0  0  0  0  0  0
  200.8472  176.3101  154.0945 C   0  0  0  0  0  0  0  0  0  0  0  0
  201.1496  175.0769  153.6344 N   0  0  0  0  0  0  0  0  0  0  0  0
  201.8382  174.2462  154.4431 C   0  0  0  0  0  0  0  0  0  0  0  0
  202.2605  174.6166  155.7331 C   0  0  0  0  0  0  0  0  0  0  0  0
  201.9398  175.9015  156.1977 C   0  0  0  0  0  0  0  0  0  0  0  0
  200.1815  182.0403  157.3740 C   0  0  0  0  0  0  0  0  0  0  0  0
  201.1700  182.6154  158.1957 C   0  0  0  0  0  0  0  0  0  0  0  0
  202.3430  181.9008  158.4995 C   0  0  0  0  0  0  0  0  0  0  0  0
  202.5309  180.6100  157.9680 C   0  0  0  0  0  0  0  0  0  0  0  0
  197.3897  180.0811  155.3978 H   0  0  0  0  0  0  0  0  0  0  0  0
  198.0881  182.7106  155.7264 H   0  0  0  0  0  0  0  0  0  0  0  0
  199.1612  182.1691  154.4221 H   0  0  0  0  0  0  0  0  0  0  0  0
  196.1421  181.8974  154.4493 H   0  0  0  0  0  0  0  0  0  0  0  0
  198.0143  184.6711  155.0202 H   0  0  0  0  0  0  0  0  0  0  0  0
  196.3978  184.3362  155.6039 H   0  0  0  0  0  0  0  0  0  0  0  0
  196.6899  185.6469  154.4369 H   0  0  0  0  0  0  0  0  0  0  0  0
  198.4924  184.0749  152.4671 H   0  0  0  0  0  0  0  0  0  0  0  0
  197.1760  185.2926  152.2555 H   0  0  0  0  0  0  0  0  0  0  0  0
  197.0973  183.7061  151.4971 H   0  0  0  0  0  0  0  0  0  0  0  0
  198.9797  182.3735  151.9733 H   0  0  0  0  0  0  0  0  0  0  0  0
  199.0333  181.1173  149.8091 H   0  0  0  0  0  0  0  0  0  0  0  0
  195.7540  178.6563  151.1379 H   0  0  0  0  0  0  0  0  0  0  0  0
  195.5888  179.9654  153.1904 H   0  0  0  0  0  0  0  0  0  0  0  0
  196.8628  178.1418  149.0173 H   0  0  0  0  0  0  0  0  0  0  0  0
  198.5640  178.6596  148.9185 H   0  0  0  0  0  0  0  0  0  0  0  0
  197.3037  179.6576  148.1754 H   0  0  0  0  0  0  0  0  0  0  0  0
  198.9353  178.3375  154.8391 H   0  0  0  0  0  0  0  0  0  0  0  0
  200.2951  176.9361  153.4099 H   0  0  0  0  0  0  0  0  0  0  0  0
  202.0532  173.2597  154.0586 H   0  0  0  0  0  0  0  0  0  0  0  0
  202.8031  173.9222  156.3547 H   0  0  0  0  0  0  0  0  0  0  0  0
  202.2478  176.1982  157.1898 H   0  0  0  0  0  0  0  0  0  0  0  0
  199.2829  182.6153  157.2313 H   0  0  0  0  0  0  0  0  0  0  0  0
  201.0022  183.6020  158.6026 H   0  0  0  0  0  0  0  0  0  0  0  0
  203.0819  182.3454  159.1568 H   0  0  0  0  0  0  0  0  0  0  0  0
  203.4286  180.0586  158.2160 H   0  0  0  0  0  0  0  0  0  0  0  0
  202.6030  178.3116  156.8852 H   0  0  0  0  0  0  0  0  0  0  0  0
  195.7454  183.6975  153.4095 H   0  0  0  0  0  0  0  0  0  0  0  0
  1  2  1  0
  1 19  2  0
  1 56  1  0
  2  3  1  0
  2 29  2  0
  3  4  1  0
  3 26  2  0
  4  5  1  0
  4 18  2  0
  5  6  1  0
  5 30  1  0
  6  7  1  0
  6 31  1  1
  6 32  1  0
  7  8  1  0
  7 11  1  0
  7 33  1  1
  8  9  1  0
  8 10  1  0
  8 57  1  6
  9 34  1  1
  9 35  1  0
  9 36  1  0
 10 37  1  1
 10 38  1  0
 10 39  1  0
 11 12  1  0
 11 16  2  0
 12 13  2  0
 12 40  1  0
 13 14  1  0
 13 41  1  0
 14 15  2  0
 14 17  1  0
 15 16  1  0
 15 42  1  0
 16 43  1  0
 17 44  1  1
 17 45  1  0
 17 46  1  0
 18 19  1  0
 18 47  1  0
 19 20  1  0
 20 21  2  0
 20 25  1  0
 21 22  1  0
 21 48  1  0
 22 23  2  0
 23 24  1  0
 23 49  1  0
 24 25  2  0
 24 50  1  0
 25 51  1  0
 26 27  1  0
 26 52  1  0
 27 28  2  0
 27 53  1  0
 28 29  1  0
 28 54  1  0
 29 55  1  0
M  CHG  2   1   1   8   1
M  END
>  <s_epik_cmdline>  (257) 
J2VwaWtfcHl0aG9uJywgJy1waCcsICc3LjAwMDAwMCcsICctcGh0JywgJzIuMDAwMDAwJywgJy1tcycsICcxNicsICctdG4nLCAnOCcsICctbWEnLCAnMjAwJywgJy1pbWFlJywgJzxpbmZpbGUubWFlPicsICctb21hZScsICc8b3V0ZmlsZS5tYWU+Jw==

>  <s_epik_input>  (257) 
W2NIXTFbY0hdW2NIXW5bY0hdYzEtYyhuMilbY0hdYyhjKGMyMylbY0hdW2NIXVtjSF1bY0hdMylbTkhdW0NIMl1bQ0BASF0oTihbQ0gzXSlbQ0gzXSljNFtjSF1bY0hdYyhbQ0gzXSlbY0hdW2NIXTQ=

>  <s_i_glide_gridfile>  (257) 
ATP-Grid

>  <s_lp_Force_Field>  (257) 
OPLS_2005

>  <s_lp_Variant>  (257) 
YAS_R004____OTV5753507____OTV2084332____OTV7020410266-2

>  <s_lp_label>  (257) 
64_sdstereoexpander_2_neutralizer_1_epik_1_stereoizer_1

>  <s_m_source_file>  (257) 
ATP-VSW-LIGPREP-002-in.maegz

>  <s_sd_BIOSOLVEIT.INFINISEE\_QUERY\_NAME>  (257) 
Ref-Lig

>  <s_sd_BIOSOLVEIT.INFINISEE\_QUERY\_SMILES>  (257) 
S(c1nc2c(cc1C[NH2+]Cc3ccc(cc3)C[NH+](C)C)cccc2)Cc4ccccc4

>  <s_sd_BIOSOLVEIT.INFINISEE\_REACTION\_NAME>  (257) 
YAS_R004

>  <s_sd_BIOSOLVEIT.INFINISEE\_REAGENT1\_NAME>  (257) 
OTV5753507

>  <s_sd_BIOSOLVEIT.INFINISEE\_REAGENT1\_SMILES>  (257) 
Nc1ccccc1

>  <s_sd_BIOSOLVEIT.INFINISEE\_REAGENT2\_NAME>  (257) 
OTV2084332

>  <s_sd_BIOSOLVEIT.INFINISEE\_REAGENT2\_SMILES>  (257) 
O=C(O)c1cnccc1

>  <s_sd_BIOSOLVEIT.INFINISEE\_REAGENT3\_NAME>  (257) 
OTV7020410266

>  <s_sd_BIOSOLVEIT.INFINISEE\_REAGENT3\_SMILES>  (257) 
N(C(c1ccc(cc1)C)CN)(C)C

>  <s_sd_BIOSOLVEIT.INFINISEE\_SPACE>  (257) 
CHEMriya_12bn_2022-01

>  <s_vsw_compound_code>  (257) 
2018

>  <s_vsw_variant>  (257) 
2018-2

>  <r_epik_Charging_Adjusted_Penalty>  (257) 
0.16921422143377199

>  <r_epik_Ionization_Penalty>  (257) 
0.082799999999999999

>  <r_epik_Ionization_Penalty_Charging>  (257) 
0.082600000000000007

>  <r_epik_Ionization_Penalty_Neutral>  (257) 
0.00020000000000000001

>  <r_epik_State_Penalty>  (257) 
0.086599999999999996

>  <r_i_docking_score>  (257) 
-5.2498093388741198

>  <r_i_glide_ecoul>  (257) 
-12.4363012313843

>  <r_i_glide_eff_state_penalty>  (257) 
0.086599999999999996

>  <r_i_glide_einternal>  (257) 
7.6674280166626003

>  <r_i_glide_emodel>  (257) 
-56.720499780190202

>  <r_i_glide_energy>  (257) 
-39.886624336242697

>  <r_i_glide_erotb>  (257) 
0.65752503595296397

>  <r_i_glide_esite>  (257) 
-0.13182536806452499

>  <r_i_glide_evdw>  (257) 
-27.450323104858398

>  <r_i_glide_gscore>  (257) 
-5.3364093388741196

>  <r_i_glide_hbond>  (257) 
-0.20000000000000001

>  <r_i_glide_ligand_efficiency>  (257) 
-0.18102790823703899

>  <r_i_glide_ligand_efficiency_ln>  (257) 
-1.20207321492356

>  <r_i_glide_ligand_efficiency_sa>  (257) 
-0.55617508777109803

>  <r_i_glide_lipo>  (257) 
-1.41176098499381

>  <r_i_glide_metal>  (257) 
-0

>  <r_i_glide_rewards>  (257) 
-1.0123866818181799

>  <r_lp_Energy>  (257) 
37.574882000000002

>  <r_qp_ACxDN^.5/SA>  (257) 
0.0084516999999999995

>  <r_qp_CIQPlogS>  (257) 
-5.0620000000000003

>  <r_qp_EA(eV)>  (257) 
0.91700000000000004

>  <r_qp_FISA>  (257) 
48.718000000000004

>  <r_qp_FOSA>  (257) 
237.75899999999999

>  <r_qp_IP(eV)>  (257) 
8.3580000000000005

>  <r_qp_Jm>  (257) 
0.111130374914148

>  <r_qp_PISA>  (257) 
364.27600000000001

>  <r_qp_PSA>  (257) 
39.189

>  <r_qp_PercentHumanOralAbsorption>  (257) 
100

>  <r_qp_QPPCaco>  (257) 
852.71400000000006

>  <r_qp_QPPMDCK>  (257) 
460.71899999999999

>  <r_qp_QPlogBB>  (257) 
0.158

>  <r_qp_QPlogHERG>  (257) 
-6.3090000000000002

>  <r_qp_QPlogKhsa>  (257) 
0.66900000000000004

>  <r_qp_QPlogKp>  (257) 
-2.621

>  <r_qp_QPlogPC16>  (257) 
12.862

>  <r_qp_QPlogPo/w>  (257) 
4.3330000000000002

>  <r_qp_QPlogPoct>  (257) 
18.835000000000001

>  <r_qp_QPlogPw>  (257) 
9.6530000000000005

>  <r_qp_QPlogS>  (257) 
-3.9159999999999999

>  <r_qp_QPpolrz>  (257) 
43.030999999999999

>  <r_qp_SASA>  (257) 
650.75400000000002

>  <r_qp_SAamideO>  (257) 
0

>  <r_qp_SAfluorine>  (257) 
0

>  <r_qp_WPSA>  (257) 
0

>  <r_qp_accptHB>  (257) 
5.5

>  <r_qp_dip^2/V>  (257) 
0.0207642

>  <r_qp_dipole>  (257) 
5.0709999999999997

>  <r_qp_donorHB>  (257) 
1

>  <r_qp_glob>  (257) 
0.85699760000000003

>  <r_qp_mol_MW>  (257) 
382.50700000000001

>  <r_qp_volume>  (257) 
1238.3599999999999

>  <r_sd_BIOSOLVEIT.INFINISEE\_FTREES\_SIMILARITY>  (257) 
0.91400000000000003

>  <r_sd_BIOSOLVEIT.LOGP>  (257) 
3.9029199999999999

>  <r_sd_BIOSOLVEIT.MOLECULAR\_WEIGHT>  (257) 
383.51600000000002

>  <r_sd_BIOSOLVEIT.TPSA>  (257) 
42.25

>  <i_epik_Tot_Q>  (257) 
2

>  <i_epik_Tot_abs_Q>  (257) 
2

>  <i_f3d_flags>  (257) 
0

>  <i_i_glide_confnum>  (257) 
1

>  <i_i_glide_lignum>  (257) 
86

>  <i_i_glide_posenum>  (257) 
3

>  <i_i_glide_rotatable_bonds>  (257) 
6

>  <i_lp_mmshare_version>  (257) 
65135

>  <i_m_ct_format>  (257) 
2

>  <i_m_source_file_index>  (257) 
64

>  <i_qp_#NandO>  (257) 
4

>  <i_qp_#acid>  (257) 
0

>  <i_qp_#amide>  (257) 
0

>  <i_qp_#amidine>  (257) 
0

>  <i_qp_#amine>  (257) 
1

>  <i_qp_#in34>  (257) 
0

>  <i_qp_#in56>  (257) 
22

>  <i_qp_#metab>  (257) 
7

>  <i_qp_#nonHatm>  (257) 
29

>  <i_qp_#noncon>  (257) 
0

>  <i_qp_#ringatoms>  (257) 
22

>  <i_qp_#rotor>  (257) 
6

>  <i_qp_#rtvFG>  (257) 
0

>  <i_qp_#stars>  (257) 
0

>  <i_qp_CNS>  (257) 
1

>  <i_qp_HumanOralAbsorption>  (257) 
3

>  <i_qp_RuleOfFive>  (257) 
0

>  <i_qp_RuleOfThree>  (257) 
1

>  <i_sd_BIOSOLVEIT.INFINISEE\_RESULT\_RANK>  (257) 
30491

>  <i_sd_version>  (257) 
0

>  <b_lp_Chiralities_Consistent>  (257) 
1

>  <b_sd_chiral_flag>  (257) 
0

>  <canonical_id>  (257) 
ATP-HTVS-2A14F6A33EFE

>  <compound_code>  (257) 
2018

>  <title>  (257) 
YAS_R004____OTV5753507____OTV2084332____OTV7020410266

>  <variant>  (257) 
2018-2

>  <source_file>  (257) 
运行/运行/ATP-VSW/ATP-VSW-DOCK_HTVS_1-002_lib.maegz

>  <canonical_smiles>  (257) 
Cc1ccc([C@@H](CNc2cc(-c3cccnc3)[nH+]c3ccccc23)[NH+](C)C)cc1

>  <scaffold>  (257) 
c1ccc(CCNc2cc(-c3cccnc3)[nH+]c3ccccc23)cc1

>  <molecular_formula>  (257) 
C25H28N4+2

$$$$
ATP-HTVS-2A420AE0278C
     RDKit          3D

 59 62  0  0  0  0  0  0  0  0999 V2000
  199.5936  181.6927  149.0213 F   0  0  0  0  0  0  0  0  0  0  0  0
  198.8014  180.6359  148.7779 C   0  0  0  0  0  0  0  0  0  0  0  0
  197.6159  180.4142  149.5345 C   0  0  0  0  0  0  0  0  0  0  0  0
  197.3327  181.3620  150.5314 N   0  0  0  0  0  0  0  0  0  0  0  0
  196.7892  181.0977  151.7298 C   0  0  0  0  0  0  0  0  0  0  0  0
  196.3071  180.0067  152.0356 O   0  0  0  0  0  0  0  0  0  0  0  0
  196.8919  182.1525  152.5479 N   0  0  0  0  0  0  0  0  0  0  0  0
  196.5884  182.1604  153.9670 C   0  0  1  0  0  0  0  0  0  0  0  0
  197.5135  181.3042  154.8104 C   0  0  0  0  0  0  0  0  0  0  0  0
  197.8694  181.4760  156.1831 C   0  0  0  0  0  0  0  0  0  0  0  0
  198.7026  180.5299  156.6008 N   0  0  0  0  0  0  0  0  0  0  0  0
  198.8708  179.6898  155.5569 N   0  0  0  0  0  0  0  0  0  0  0  0
  199.6876  178.5287  155.6408 C   0  0  0  0  0  0  0  0  0  0  0  0
  199.9760  177.7496  154.4910 C   0  0  0  0  0  0  0  0  0  0  0  0
  200.7903  176.6043  154.5900 C   0  0  0  0  0  0  0  0  0  0  0  0
  201.3228  176.2228  155.8347 C   0  0  0  0  0  0  0  0  0  0  0  0
  201.0419  176.9913  156.9782 C   0  0  0  0  0  0  0  0  0  0  0  0
  200.2332  178.1368  156.8813 C   0  0  0  0  0  0  0  0  0  0  0  0
  198.1714  180.1528  154.4693 C   0  0  0  0  0  0  0  0  0  0  0  0
  197.4785  182.5367  157.1152 C   0  0  0  0  0  0  0  0  0  0  0  0
  197.0320  182.2304  158.4157 C   0  0  0  0  0  0  0  0  0  0  0  0
  196.6708  183.2755  159.2842 C   0  0  0  0  0  0  0  0  0  0  0  0
  196.7284  184.5773  158.9366 N   0  0  0  0  0  0  0  0  0  0  0  0
  197.1584  184.8701  157.6924 C   0  0  0  0  0  0  0  0  0  0  0  0
  197.5500  183.8976  156.7525 C   0  0  0  0  0  0  0  0  0  0  0  0
  196.8123  179.2995  149.2218 C   0  0  0  0  0  0  0  0  0  0  0  0
  197.1100  178.4477  148.1476 C   0  0  0  0  0  0  0  0  0  0  0  0
  198.3102  178.6749  147.4017 C   0  0  0  0  0  0  0  0  0  0  0  0
  199.1958  179.7386  147.7589 C   0  0  0  0  0  0  0  0  0  0  0  0
  198.6607  177.7700  146.2180 C   0  0  1  0  0  0  0  0  0  0  0  0
  198.9255  178.4885  144.9546 N   0  0  1  0  0  0  0  0  0  0  0  0
  197.7772  179.3269  144.4986 C   0  0  2  0  0  0  0  0  0  0  0  0
  200.2208  179.2539  144.8594 C   0  0  2  0  0  0  0  0  0  0  0  0
  197.8062  182.2493  150.4184 H   0  0  0  0  0  0  0  0  0  0  0  0
  197.2220  183.0248  152.1612 H   0  0  0  0  0  0  0  0  0  0  0  0
  196.6242  183.2041  154.2747 H   0  0  0  0  0  0  0  0  0  0  0  0
  195.5529  181.8632  154.1163 H   0  0  0  0  0  0  0  0  0  0  0  0
  199.5878  178.0125  153.5188 H   0  0  0  0  0  0  0  0  0  0  0  0
  201.0091  176.0168  153.7106 H   0  0  0  0  0  0  0  0  0  0  0  0
  201.9481  175.3467  155.9173 H   0  0  0  0  0  0  0  0  0  0  0  0
  201.4381  176.7074  157.9381 H   0  0  0  0  0  0  0  0  0  0  0  0
  200.0122  178.7000  157.7743 H   0  0  0  0  0  0  0  0  0  0  0  0
  198.2052  179.6085  153.5443 H   0  0  0  0  0  0  0  0  0  0  0  0
  196.9692  181.2020  158.7390 H   0  0  0  0  0  0  0  0  0  0  0  0
  196.3300  183.0559  160.2838 H   0  0  0  0  0  0  0  0  0  0  0  0
  197.1963  185.9174  157.4345 H   0  0  0  0  0  0  0  0  0  0  0  0
  197.9054  184.1975  155.7798 H   0  0  0  0  0  0  0  0  0  0  0  0
  195.9114  179.1053  149.8090 H   0  0  0  0  0  0  0  0  0  0  0  0
  196.4714  177.6004  147.9070 H   0  0  0  0  0  0  0  0  0  0  0  0
  200.1301  179.9191  147.3028 H   0  0  0  0  0  0  0  0  0  0  0  0
  199.5193  177.1340  146.4716 H   0  0  0  0  0  0  0  0  0  0  0  0
  197.8276  177.0650  146.0424 H   0  0  0  0  0  0  0  0  0  0  0  0
  197.5884  180.1238  145.2166 H   0  0  0  0  0  0  0  0  0  0  0  0
  196.8600  178.7352  144.3961 H   0  0  0  0  0  0  0  0  0  0  0  0
  197.9830  179.7989  143.5389 H   0  0  0  0  0  0  0  0  0  0  0  0
  200.2031  180.1391  145.4827 H   0  0  0  0  0  0  0  0  0  0  0  0
  200.3875  179.6180  143.8300 H   0  0  0  0  0  0  0  0  0  0  0  0
  201.0511  178.5756  145.1416 H   0  0  0  0  0  0  0  0  0  0  0  0
  199.0014  177.7648  144.2173 H   0  0  0  0  0  0  0  0  0  0  0  0
  1  2  1  0
  2  3  2  0
  2 29  1  0
  3  4  1  0
  3 26  1  0
  4  5  1  0
  4 34  1  0
  5  6  2  0
  5  7  1  0
  7  8  1  0
  7 35  1  0
  8  9  1  0
  8 36  1  1
  8 37  1  0
  9 10  1  0
  9 19  2  0
 10 11  2  0
 10 20  1  0
 11 12  1  0
 12 13  1  0
 12 19  1  0
 13 14  2  0
 13 18  1  0
 14 15  1  0
 14 38  1  0
 15 16  2  0
 15 39  1  0
 16 17  1  0
 16 40  1  0
 17 18  2  0
 17 41  1  0
 18 42  1  0
 19 43  1  0
 20 21  2  0
 20 25  1  0
 21 22  1  0
 21 44  1  0
 22 23  2  0
 22 45  1  0
 23 24  1  0
 24 25  2  0
 24 46  1  0
 25 47  1  0
 26 27  2  0
 26 48  1  0
 27 28  1  0
 27 49  1  0
 28 29  2  0
 28 30  1  0
 29 50  1  0
 30 31  1  0
 30 51  1  1
 30 52  1  0
 31 32  1  0
 31 33  1  0
 31 59  1  6
 32 53  1  1
 32 54  1  0
 32 55  1  0
 33 56  1  1
 33 57  1  0
 33 58  1  0
M  CHG  1  31   1
M  END
>  <s_epik_cmdline>  (258) 
J2VwaWtfcHl0aG9uJywgJy1waCcsICc3LjAwMDAwMCcsICctcGh0JywgJzIuMDAwMDAwJywgJy1tcycsICcxNicsICctdG4nLCAnOCcsICctbWEnLCAnMjAwJywgJy1pbWFlJywgJzxpbmZpbGUubWFlPicsICctb21hZScsICc8b3V0ZmlsZS5tYWU+Jw==

>  <s_epik_input>  (258) 
W0NIM11OKFtDSDNdKVtDSDJdYyhbY0hdMSlbY0hdW2NIXWMoYzFGKVtOSF1DKD1PKVtOSF1bQ0gyXWMyYygtYzNbY0hdW2NIXW5bY0hdW2NIXTMpbm4oW2NIXTIpLWM0W2NIXVtjSF1bY0hdW2NIXVtjSF00

>  <s_i_glide_gridfile>  (258) 
ATP-Grid

>  <s_lp_Force_Field>  (258) 
OPLS_2005

>  <s_lp_Variant>  (258) 
m_2430bbb____22525962____2308808-1

>  <s_lp_label>  (258) 
1805_sdstereoexpander_1_neutralizer_1_epik_1_stereoizer_1

>  <s_m_source_file>  (258) 
ATP-VSW-LIGPREP-002-in.maegz

>  <s_sd_BIOSOLVEIT.INFINISEE\_QUERY\_NAME>  (258) 
Ref-Lig

>  <s_sd_BIOSOLVEIT.INFINISEE\_QUERY\_SMILES>  (258) 
S(c1nc2c(cc1C[NH2+]Cc3ccc(cc3)C[NH+](C)C)cccc2)Cc4ccccc4

>  <s_sd_BIOSOLVEIT.INFINISEE\_REACTION\_NAME>  (258) 
m_2430bbb

>  <s_sd_BIOSOLVEIT.INFINISEE\_REAGENT1\_SMILES>  (258) 
[R1*]C(=O)Nc1c(F)cc(cc1)CN(C)C

>  <s_sd_BIOSOLVEIT.INFINISEE\_REAGENT2\_SMILES>  (258) 
[R1*]NCC=1C(=NN(c2ccccc2)C1)c3ccncc3

>  <s_sd_BIOSOLVEIT.INFINISEE\_SPACE>  (258) 
REALSpace_44bn_2023-08

>  <s_vsw_compound_code>  (258) 
57730

>  <s_vsw_variant>  (258) 
57730-1

>  <r_epik_Charging_Adjusted_Penalty>  (258) 
0.098936432407950706

>  <r_epik_Ionization_Penalty>  (258) 
0.051799999999999999

>  <r_epik_Ionization_Penalty_Charging>  (258) 
0.047100000000000003

>  <r_epik_Ionization_Penalty_Neutral>  (258) 
0.0047000000000000002

>  <r_epik_State_Penalty>  (258) 
0.051799999999999999

>  <r_i_docking_score>  (258) 
-3.6699542493591299

>  <r_i_glide_ecoul>  (258) 
-3.8538229465484601

>  <r_i_glide_eff_state_penalty>  (258) 
0.051799999999999999

>  <r_i_glide_einternal>  (258) 
4.5055785179138201

>  <r_i_glide_emodel>  (258) 
-52.284127336325497

>  <r_i_glide_energy>  (258) 
-41.433164834976203

>  <r_i_glide_erotb>  (258) 
0.80647787501491597

>  <r_i_glide_esite>  (258) 
-0.17302369780421401

>  <r_i_glide_evdw>  (258) 
-37.579341888427699

>  <r_i_glide_gscore>  (258) 
-3.72175424935913

>  <r_i_glide_hbond>  (258) 
-0.20000000000000001

>  <r_i_glide_ligand_efficiency>  (258) 
-0.111210734829065

>  <r_i_glide_ligand_efficiency_ln>  (258) 
-0.81617882305133305

>  <r_i_glide_ligand_efficiency_sa>  (258) 
-0.35671224941253799

>  <r_i_glide_lipo>  (258) 
-0.978633228430838

>  <r_i_glide_metal>  (258) 
-0

>  <r_i_glide_rewards>  (258) 
-0.71953466173533798

>  <r_lp_Energy>  (258) 
19.518155

>  <r_lp_tautomer_probability>  (258) 
1

>  <r_qp_ACxDN^.5/SA>  (258) 
0.0111851

>  <r_qp_CIQPlogS>  (258) 
-5.2830000000000004

>  <r_qp_EA(eV)>  (258) 
0.68999999999999995

>  <r_qp_FISA>  (258) 
97.780000000000001

>  <r_qp_FOSA>  (258) 
212.977

>  <r_qp_IP(eV)>  (258) 
8.8719999999999999

>  <r_qp_Jm>  (258) 
0.00018915253327275199

>  <r_qp_PISA>  (258) 
469.005

>  <r_qp_PSA>  (258) 
79.649000000000001

>  <r_qp_PercentHumanOralAbsorption>  (258) 
93.293000000000006

>  <r_qp_QPPCaco>  (258) 
194.608

>  <r_qp_QPPMDCK>  (258) 
246.08000000000001

>  <r_qp_QPlogBB>  (258) 
-0.38800000000000001

>  <r_qp_QPlogHERG>  (258) 
-7.1310000000000002

>  <r_qp_QPlogKhsa>  (258) 
0.65600000000000003

>  <r_qp_QPlogKp>  (258) 
-3.2519999999999998

>  <r_qp_QPlogPC16>  (258) 
16.140999999999998

>  <r_qp_QPlogPo/w>  (258) 
4.3339999999999996

>  <r_qp_QPlogPoct>  (258) 
24.846

>  <r_qp_QPlogPw>  (258) 
15.436

>  <r_qp_QPlogS>  (258) 
-6.1189999999999998

>  <r_qp_QPpolrz>  (258) 
52.945999999999998

>  <r_qp_SASA>  (258) 
821.84400000000005

>  <r_qp_SAamideO>  (258) 
22.16

>  <r_qp_SAfluorine>  (258) 
42.082000000000001

>  <r_qp_WPSA>  (258) 
42.082000000000001

>  <r_qp_accptHB>  (258) 
6.5

>  <r_qp_dip^2/V>  (258) 
0.042179500000000002

>  <r_qp_dipole>  (258) 
7.8070000000000004

>  <r_qp_donorHB>  (258) 
2

>  <r_qp_glob>  (258) 
0.75213969999999997

>  <r_qp_mol_MW>  (258) 
444.50999999999999

>  <r_qp_volume>  (258) 
1445.0540000000001

>  <r_sd_BIOSOLVEIT.INFINISEE\_FTREES\_SIMILARITY>  (258) 
0.90400000000000003

>  <r_sd_BIOSOLVEIT.LOGP>  (258) 
3.0396000000000001

>  <r_sd_BIOSOLVEIT.MOLECULAR\_WEIGHT>  (258) 
445.51900000000001

>  <r_sd_BIOSOLVEIT.TPSA>  (258) 
76.280000000000001

>  <i_epik_Tot_Q>  (258) 
1

>  <i_epik_Tot_abs_Q>  (258) 
1

>  <i_f3d_flags>  (258) 
0

>  <i_i_glide_confnum>  (258) 
9

>  <i_i_glide_lignum>  (258) 
635

>  <i_i_glide_posenum>  (258) 
3

>  <i_i_glide_rotatable_bonds>  (258) 
9

>  <i_lp_mmshare_version>  (258) 
65135

>  <i_m_ct_format>  (258) 
2

>  <i_m_source_file_index>  (258) 
1805

>  <i_qp_#NandO>  (258) 
7

>  <i_qp_#acid>  (258) 
0

>  <i_qp_#amide>  (258) 
1

>  <i_qp_#amidine>  (258) 
0

>  <i_qp_#amine>  (258) 
1

>  <i_qp_#in34>  (258) 
0

>  <i_qp_#in56>  (258) 
23

>  <i_qp_#metab>  (258) 
5

>  <i_qp_#nonHatm>  (258) 
33

>  <i_qp_#noncon>  (258) 
0

>  <i_qp_#ringatoms>  (258) 
23

>  <i_qp_#rotor>  (258) 
5

>  <i_qp_#rtvFG>  (258) 
0

>  <i_qp_#stars>  (258) 
1

>  <i_qp_CNS>  (258) 
1

>  <i_qp_HumanOralAbsorption>  (258) 
3

>  <i_qp_RuleOfFive>  (258) 
0

>  <i_qp_RuleOfThree>  (258) 
1

>  <i_sd_BIOSOLVEIT.INFINISEE\_REAGENT1\_NAME>  (258) 
22525962

>  <i_sd_BIOSOLVEIT.INFINISEE\_REAGENT2\_NAME>  (258) 
2308808

>  <i_sd_BIOSOLVEIT.INFINISEE\_RESULT\_RANK>  (258) 
78170

>  <i_sd_version>  (258) 
0

>  <b_lp_Chiralities_Consistent>  (258) 
1

>  <b_sd_chiral_flag>  (258) 
0

>  <canonical_id>  (258) 
ATP-HTVS-2A420AE0278C

>  <compound_code>  (258) 
57730

>  <title>  (258) 
m_2430bbb____22525962____2308808

>  <variant>  (258) 
57730-1

>  <source_file>  (258) 
运行/运行/ATP-VSW/ATP-VSW-DOCK_HTVS_1-002_lib.maegz

>  <canonical_smiles>  (258) 
C[NH+](C)Cc1ccc(NC(=O)NCc2cn(-c3ccccc3)nc2-c2ccncc2)c(F)c1

>  <scaffold>  (258) 
O=C(NCc1cn(-c2ccccc2)nc1-c1ccncc1)Nc1ccccc1

>  <molecular_formula>  (258) 
C25H26FN6O+

$$$$
ATP-HTVS-2A473A7CBE48
     RDKit          3D

 54 56  0  0  0  0  0  0  0  0999 V2000
  199.2459  180.8606  153.3503 S   0  0  0  0  0  0  0  0  0  0  0  0
  198.0524  181.9999  153.9575 C   0  0  0  0  0  0  0  0  0  0  0  0
  197.5508  183.0519  153.0331 C   0  0  0  0  0  0  0  0  0  0  0  0
  197.5381  184.2050  153.4598 O   0  0  0  0  0  0  0  0  0  0  0  0
  197.0756  182.7366  151.7950 N   0  0  0  0  0  0  0  0  0  0  0  0
  197.2601  181.4787  151.1432 C   0  0  0  0  0  0  0  0  0  0  0  0
  197.6836  181.4305  149.7965 C   0  0  0  0  0  0  0  0  0  0  0  0
  197.9243  180.1979  149.1570 C   0  0  0  0  0  0  0  0  0  0  0  0
  197.7068  178.9985  149.8598 C   0  0  0  0  0  0  0  0  0  0  0  0
  197.9583  177.7091  149.2210 C   0  0  0  0  0  0  0  0  0  0  0  0
  198.1587  176.6874  148.7216 N   0  0  0  0  0  0  0  0  0  0  0  0
  197.2672  179.0325  151.1924 C   0  0  0  0  0  0  0  0  0  0  0  0
  196.9883  180.2572  151.8083 C   0  0  0  0  0  0  0  0  0  0  0  0
  196.3971  183.7934  151.0280 C   0  0  2  0  0  0  0  0  0  0  0  0
  197.8214  181.7608  155.2963 C   0  0  0  0  0  0  0  0  0  0  0  0
  197.0199  182.5746  156.1259 N   0  0  0  0  0  0  0  0  0  0  0  0
  196.4912  182.1060  157.3961 C   0  0  1  0  0  0  0  0  0  0  0  0
  195.8852  183.1999  158.2526 C   0  0  0  0  0  0  0  0  0  0  0  0
  196.6980  184.2220  158.7869 C   0  0  0  0  0  0  0  0  0  0  0  0
  196.1352  185.2237  159.6073 C   0  0  0  0  0  0  0  0  0  0  0  0
  194.7546  185.2004  159.8879 C   0  0  0  0  0  0  0  0  0  0  0  0
  193.9438  184.1866  159.3475 C   0  0  0  0  0  0  0  0  0  0  0  0
  194.5057  183.1846  158.5368 C   0  0  0  0  0  0  0  0  0  0  0  0
  197.0084  186.3137  160.1985 C   0  0  1  0  0  0  0  0  0  0  0  0
  196.7960  187.6334  159.5551 N   0  0  1  0  0  0  0  0  0  0  0  0
  197.4616  188.7256  160.3016 C   0  0  2  0  0  0  0  0  0  0  0  0
  197.1513  187.6515  158.1167 C   0  0  2  0  0  0  0  0  0  0  0  0
  198.4505  180.5622  155.7769 C   0  0  0  0  0  0  0  0  0  0  0  0
  199.1803  179.9380  154.8006 C   0  0  0  0  0  0  0  0  0  0  0  0
  197.8999  182.3441  149.2528 H   0  0  0  0  0  0  0  0  0  0  0  0
  198.2743  180.1774  148.1336 H   0  0  0  0  0  0  0  0  0  0  0  0
  197.1310  178.1322  151.7542 H   0  0  0  0  0  0  0  0  0  0  0  0
  196.6409  180.2704  152.8576 H   0  0  0  0  0  0  0  0  0  0  0  0
  195.9823  183.4212  150.0933 H   0  0  0  0  0  0  0  0  0  0  0  0
  197.0755  184.6142  150.7884 H   0  0  0  0  0  0  0  0  0  0  0  0
  195.5566  184.1903  151.6000 H   0  0  0  0  0  0  0  0  0  0  0  0
  196.4783  183.3005  155.6716 H   0  0  0  0  0  0  0  0  0  0  0  0
  195.7426  181.3406  157.1954 H   0  0  0  0  0  0  0  0  0  0  0  0
  197.2826  181.6370  157.9797 H   0  0  0  0  0  0  0  0  0  0  0  0
  197.7555  184.2282  158.5662 H   0  0  0  0  0  0  0  0  0  0  0  0
  194.3067  185.9625  160.5085 H   0  0  0  0  0  0  0  0  0  0  0  0
  192.8837  184.1774  159.5537 H   0  0  0  0  0  0  0  0  0  0  0  0
  193.8763  182.4057  158.1292 H   0  0  0  0  0  0  0  0  0  0  0  0
  196.7602  186.3851  161.2582 H   0  0  0  0  0  0  0  0  0  0  0  0
  198.0601  186.0291  160.1335 H   0  0  0  0  0  0  0  0  0  0  0  0
  198.5454  188.5989  160.3066 H   0  0  0  0  0  0  0  0  0  0  0  0
  197.1208  188.7555  161.3371 H   0  0  0  0  0  0  0  0  0  0  0  0
  197.2354  189.6940  159.8542 H   0  0  0  0  0  0  0  0  0  0  0  0
  198.2071  187.4186  157.9722 H   0  0  0  0  0  0  0  0  0  0  0  0
  196.9571  188.6342  157.6853 H   0  0  0  0  0  0  0  0  0  0  0  0
  196.5615  186.9289  157.5519 H   0  0  0  0  0  0  0  0  0  0  0  0
  198.3356  180.2040  156.8001 H   0  0  0  0  0  0  0  0  0  0  0  0
  199.7024  178.9934  154.9091 H   0  0  0  0  0  0  0  0  0  0  0  0
  195.8042  187.8187  159.6091 H   0  0  0  0  0  0  0  0  0  0  0  0
  1  2  1  0
  1 29  1  0
  2  3  1  0
  2 15  2  0
  3  4  2  0
  3  5  1  0
  5  6  1  0
  5 14  1  0
  6  7  1  0
  6 13  2  0
  7  8  2  0
  7 30  1  0
  8  9  1  0
  8 31  1  0
  9 10  1  0
  9 12  2  0
 10 11  3  0
 12 13  1  0
 12 32  1  0
 13 33  1  0
 14 34  1  6
 14 35  1  0
 14 36  1  0
 15 16  1  0
 15 28  1  0
 16 17  1  0
 16 37  1  0
 17 18  1  0
 17 38  1  6
 17 39  1  0
 18 19  2  0
 18 23  1  0
 19 20  1  0
 19 40  1  0
 20 21  2  0
 20 24  1  0
 21 22  1  0
 21 41  1  0
 22 23  2  0
 22 42  1  0
 23 43  1  0
 24 25  1  0
 24 44  1  1
 24 45  1  0
 25 26  1  0
 25 27  1  0
 25 54  1  6
 26 46  1  1
 26 47  1  0
 26 48  1  0
 27 49  1  1
 27 50  1  0
 27 51  1  0
 28 29  2  0
 28 52  1  0
 29 53  1  0
M  CHG  1  25   1
M  END
>  <s_epik_cmdline>  (259) 
J2VwaWtfcHl0aG9uJywgJy1waCcsICc3LjAwMDAwMCcsICctcGh0JywgJzIuMDAwMDAwJywgJy1tcycsICcxNicsICctdG4nLCAnOCcsICctbWEnLCAnMjAwJywgJy1pbWFlJywgJzxpbmZpbGUubWFlPicsICctb21hZScsICc8b3V0ZmlsZS5tYWU+Jw==

>  <s_epik_input>  (259) 
TiNDYyhbY0hdW2NIXTEpW2NIXVtjSF1jMU4oW0NIM10pQyg9TyljMnNbY0hdW2NIXWMyW05IXVtDSDJdYzNbY0hdYyhbY0hdW2NIXVtjSF0zKVtDSDJdTihbQ0gzXSlbQ0gzXQ==

>  <s_i_glide_gridfile>  (259) 
ATP-Grid

>  <s_lp_Force_Field>  (259) 
OPLS_2005

>  <s_lp_Variant>  (259) 
rxn512b____EMOL17281285____EMOL525138____EMOL2873214-1

>  <s_lp_label>  (259) 
2573_sdstereoexpander_1_neutralizer_1_epik_1_stereoizer_1

>  <s_m_source_file>  (259) 
ATP-VSW-LIGPREP-002-in.maegz

>  <s_sd_BIOSOLVEIT.INFINISEE\_QUERY\_NAME>  (259) 
Ref-Lig

>  <s_sd_BIOSOLVEIT.INFINISEE\_QUERY\_SMILES>  (259) 
S(c1nc2c(cc1C[NH2+]Cc3ccc(cc3)C[NH+](C)C)cccc2)Cc4ccccc4

>  <s_sd_BIOSOLVEIT.INFINISEE\_REACTION\_NAME>  (259) 
rxn512b

>  <s_sd_BIOSOLVEIT.INFINISEE\_REAGENT1\_NAME>  (259) 
EMOL17281285

>  <s_sd_BIOSOLVEIT.INFINISEE\_REAGENT1\_SMILES>  (259) 
N#Cc1ccc(NC)cc1

>  <s_sd_BIOSOLVEIT.INFINISEE\_REAGENT2\_NAME>  (259) 
EMOL525138

>  <s_sd_BIOSOLVEIT.INFINISEE\_REAGENT2\_SMILES>  (259) 
BrC1=C(SC=C1)C(=O)O

>  <s_sd_BIOSOLVEIT.INFINISEE\_REAGENT3\_NAME>  (259) 
EMOL2873214

>  <s_sd_BIOSOLVEIT.INFINISEE\_REAGENT3\_SMILES>  (259) 
N(Cc1cc(ccc1)CN)(C)C

>  <s_sd_BIOSOLVEIT.INFINISEE\_SPACE>  (259) 
eXplore_7tr_2022-12

>  <s_vsw_compound_code>  (259) 
82306

>  <s_vsw_variant>  (259) 
82306-1

>  <r_epik_Charging_Adjusted_Penalty>  (259) 
0.086140609825027206

>  <r_epik_Ionization_Penalty>  (259) 
0.043099999999999999

>  <r_epik_Ionization_Penalty_Charging>  (259) 
0.043099999999999999

>  <r_epik_Ionization_Penalty_Neutral>  (259) 
0

>  <r_epik_State_Penalty>  (259) 
0.043099999999999999

>  <r_i_docking_score>  (259) 
-3.6962143882546101

>  <r_i_glide_ecoul>  (259) 
-3.08715891838074

>  <r_i_glide_eff_state_penalty>  (259) 
0.043099999999999999

>  <r_i_glide_einternal>  (259) 
2.7009642124175999

>  <r_i_glide_emodel>  (259) 
-50.570867793281003

>  <r_i_glide_energy>  (259) 
-40.315171003341703

>  <r_i_glide_erotb>  (259) 
0.83652915046535004

>  <r_i_glide_esite>  (259) 
-0.0728873026774947

>  <r_i_glide_evdw>  (259) 
-37.228012084960902

>  <r_i_glide_gscore>  (259) 
-3.73931438825461

>  <r_i_glide_hbond>  (259) 
0

>  <r_i_glide_ligand_efficiency>  (259) 
-0.127455668560504

>  <r_i_glide_ligand_efficiency_ln>  (259) 
-0.84633936700048595

>  <r_i_glide_ligand_efficiency_sa>  (259) 
-0.39158419460794802

>  <r_i_glide_lipo>  (259) 
-1.39229440527327

>  <r_i_glide_metal>  (259) 
-0

>  <r_i_glide_rewards>  (259) 
-0.78618738876404404

>  <r_lp_Energy>  (259) 
37.368828000000001

>  <r_lp_tautomer_probability>  (259) 
0.99999274205267796

>  <r_qp_ACxDN^.5/SA>  (259) 
0

>  <r_qp_CIQPlogS>  (259) 
-4.5720000000000001

>  <r_qp_EA(eV)>  (259) 
0.83799999999999997

>  <r_qp_FISA>  (259) 
117.986

>  <r_qp_FOSA>  (259) 
273.52600000000001

>  <r_qp_IP(eV)>  (259) 
8.6039999999999992

>  <r_qp_Jm>  (259) 
0.000311229869137779

>  <r_qp_PISA>  (259) 
248.48699999999999

>  <r_qp_PSA>  (259) 
71.915000000000006

>  <r_qp_PercentHumanOralAbsorption>  (259) 
74.091999999999999

>  <r_qp_QPPCaco>  (259) 
46.863999999999997

>  <r_qp_QPPMDCK>  (259) 
33.024000000000001

>  <r_qp_QPlogBB>  (259) 
-0.14899999999999999

>  <r_qp_QPlogHERG>  (259) 
-6.7000000000000002

>  <r_qp_QPlogKhsa>  (259) 
0.221

>  <r_qp_QPlogKp>  (259) 
-6.1760000000000002

>  <r_qp_QPlogPC16>  (259) 
12.792

>  <r_qp_QPlogPo/w>  (259) 
2.9449999999999998

>  <r_qp_QPlogPoct>  (259) 
17.457999999999998

>  <r_qp_QPlogPw>  (259) 
8.4770000000000003

>  <r_qp_QPlogS>  (259) 
-2.9380000000000002

>  <r_qp_QPpolrz>  (259) 
41.837000000000003

>  <r_qp_SASA>  (259) 
671.649

>  <r_qp_SAamideO>  (259) 
0

>  <r_qp_SAfluorine>  (259) 
0

>  <r_qp_WPSA>  (259) 
31.651

>  <r_qp_accptHB>  (259) 
6.5

>  <r_qp_dip^2/V>  (259) 
0.0024708999999999998

>  <r_qp_dipole>  (259) 
1.77

>  <r_qp_donorHB>  (259) 
0

>  <r_qp_glob>  (259) 
0.843634

>  <r_qp_mol_MW>  (259) 
404.529

>  <r_qp_volume>  (259) 
1268.2280000000001

>  <r_sd_BIOSOLVEIT.INFINISEE\_FTREES\_SIMILARITY>  (259) 
0.91200000000000003

>  <r_sd_BIOSOLVEIT.LOGP>  (259) 
3.1529799999999999

>  <r_sd_BIOSOLVEIT.MOLECULAR\_WEIGHT>  (259) 
405.54300000000001

>  <r_sd_BIOSOLVEIT.TPSA>  (259) 
60.57

>  <i_epik_Tot_Q>  (259) 
1

>  <i_epik_Tot_abs_Q>  (259) 
1

>  <i_f3d_flags>  (259) 
0

>  <i_i_glide_confnum>  (259) 
2

>  <i_i_glide_lignum>  (259) 
1144

>  <i_i_glide_posenum>  (259) 
10

>  <i_i_glide_rotatable_bonds>  (259) 
8

>  <i_lp_mmshare_version>  (259) 
65135

>  <i_m_ct_format>  (259) 
2

>  <i_m_source_file_index>  (259) 
2573

>  <i_qp_#NandO>  (259) 
5

>  <i_qp_#acid>  (259) 
0

>  <i_qp_#amide>  (259) 
0

>  <i_qp_#amidine>  (259) 
0

>  <i_qp_#amine>  (259) 
2

>  <i_qp_#in34>  (259) 
0

>  <i_qp_#in56>  (259) 
17

>  <i_qp_#metab>  (259) 
5

>  <i_qp_#nonHatm>  (259) 
29

>  <i_qp_#noncon>  (259) 
0

>  <i_qp_#ringatoms>  (259) 
17

>  <i_qp_#rotor>  (259) 
8

>  <i_qp_#rtvFG>  (259) 
0

>  <i_qp_#stars>  (259) 
0

>  <i_qp_CNS>  (259) 
1

>  <i_qp_HumanOralAbsorption>  (259) 
3

>  <i_qp_RuleOfFive>  (259) 
0

>  <i_qp_RuleOfThree>  (259) 
0

>  <i_sd_BIOSOLVEIT.INFINISEE\_RESULT\_RANK>  (259) 
38154

>  <i_sd_version>  (259) 
0

>  <b_lp_Chiralities_Consistent>  (259) 
1

>  <b_sd_chiral_flag>  (259) 
0

>  <canonical_id>  (259) 
ATP-HTVS-2A473A7CBE48

>  <compound_code>  (259) 
82306

>  <title>  (259) 
rxn512b____EMOL17281285____EMOL525138____EMOL2873214

>  <variant>  (259) 
82306-1

>  <source_file>  (259) 
运行/运行/ATP-VSW/ATP-VSW-DOCK_HTVS_1-002_lib.maegz

>  <canonical_smiles>  (259) 
CN(C(=O)c1sccc1NCc1cccc(C[NH+](C)C)c1)c1ccc(C#N)cc1

>  <scaffold>  (259) 
O=C(Nc1ccccc1)c1sccc1NCc1ccccc1

>  <molecular_formula>  (259) 
C23H25N4OS+

$$$$
ATP-HTVS-2A6980A94AB8
     RDKit          3D

 50 53  0  0  0  0  0  0  0  0999 V2000
  194.4796  185.8214  160.5306 O   0  0  0  0  0  0  0  0  0  0  0  0
  195.1431  184.8753  159.8026 C   0  0  0  0  0  0  0  0  0  0  0  0
  196.5424  184.9440  159.6746 C   0  0  0  0  0  0  0  0  0  0  0  0
  197.2277  183.9891  158.8998 C   0  0  0  0  0  0  0  0  0  0  0  0
  196.5191  182.9515  158.2497 C   0  0  0  0  0  0  0  0  0  0  0  0
  195.1178  182.8756  158.4077 C   0  0  0  0  0  0  0  0  0  0  0  0
  194.4294  183.8428  159.1658 C   0  0  0  0  0  0  0  0  0  0  0  0
  197.2391  181.9124  157.3845 C   0  0  2  0  0  0  0  0  0  0  0  0
  198.6234  182.1780  157.2282 O   0  0  0  0  0  0  0  0  0  0  0  0
  196.6603  181.8515  155.9559 C   0  0  1  0  0  0  0  0  0  0  0  0
  197.1836  180.7110  155.2106 N   0  0  0  0  0  0  0  0  0  0  0  0
  197.3904  180.8017  153.8280 C   0  0  0  0  0  0  0  0  0  0  0  0
  197.4705  182.0179  153.2578 N   0  0  0  0  0  0  0  0  0  0  0  0
  197.6800  182.0931  151.9424 C   0  0  0  0  0  0  0  0  0  0  0  0
  197.8289  181.0361  151.1362 N   0  0  0  0  0  0  0  0  0  0  0  0
  197.7769  179.8011  151.6798 C   0  0  0  0  0  0  0  0  0  0  0  0
  197.9939  178.6656  150.7566 C   0  0  0  0  0  0  0  0  0  0  0  0
  198.6668  177.4964  151.1851 C   0  0  0  0  0  0  0  0  0  0  0  0
  198.8423  176.3967  150.3197 C   0  0  0  0  0  0  0  0  0  0  0  0
  198.3613  176.4583  148.9989 C   0  0  0  0  0  0  0  0  0  0  0  0
  197.7035  177.6169  148.5491 C   0  0  0  0  0  0  0  0  0  0  0  0
  197.5254  178.7093  149.4219 C   0  0  0  0  0  0  0  0  0  0  0  0
  197.5440  179.6348  153.0600 C   0  0  0  0  0  0  0  0  0  0  0  0
  197.7754  183.4404  151.3392 C   0  0  0  0  0  0  0  0  0  0  0  0
  198.0867  184.5689  152.1364 C   0  0  0  0  0  0  0  0  0  0  0  0
  198.1795  185.8510  151.5595 C   0  0  0  0  0  0  0  0  0  0  0  0
  197.9474  186.0224  150.1813 C   0  0  0  0  0  0  0  0  0  0  0  0
  197.6364  184.9104  149.3798 C   0  0  0  0  0  0  0  0  0  0  0  0
  197.5580  183.6260  149.9534 C   0  0  0  0  0  0  0  0  0  0  0  0
  193.5563  185.8420  160.3245 H   0  0  0  0  0  0  0  0  0  0  0  0
  197.0949  185.7356  160.1573 H   0  0  0  0  0  0  0  0  0  0  0  0
  198.3007  184.0709  158.8037 H   0  0  0  0  0  0  0  0  0  0  0  0
  194.5513  182.0891  157.9275 H   0  0  0  0  0  0  0  0  0  0  0  0
  193.3543  183.7868  159.2453 H   0  0  0  0  0  0  0  0  0  0  0  0
  197.1463  180.9449  157.8748 H   0  0  0  0  0  0  0  0  0  0  0  0
  198.9818  181.4532  156.7317 H   0  0  0  0  0  0  0  0  0  0  0  0
  195.5776  181.7153  155.9842 H   0  0  0  0  0  0  0  0  0  0  0  0
  196.8389  182.8082  155.4654 H   0  0  0  0  0  0  0  0  0  0  0  0
  197.0276  179.8017  155.6261 H   0  0  0  0  0  0  0  0  0  0  0  0
  199.0533  177.4330  152.1920 H   0  0  0  0  0  0  0  0  0  0  0  0
  199.3494  175.5068  150.6665 H   0  0  0  0  0  0  0  0  0  0  0  0
  198.4976  175.6209  148.3314 H   0  0  0  0  0  0  0  0  0  0  0  0
  197.3315  177.6660  147.5350 H   0  0  0  0  0  0  0  0  0  0  0  0
  197.0095  179.5908  149.0683 H   0  0  0  0  0  0  0  0  0  0  0  0
  197.4929  178.6539  153.5048 H   0  0  0  0  0  0  0  0  0  0  0  0
  198.2593  184.4572  153.1970 H   0  0  0  0  0  0  0  0  0  0  0  0
  198.4136  186.7056  152.1776 H   0  0  0  0  0  0  0  0  0  0  0  0
  198.0077  187.0082  149.7403 H   0  0  0  0  0  0  0  0  0  0  0  0
  197.4541  185.0450  148.3231 H   0  0  0  0  0  0  0  0  0  0  0  0
  197.3217  182.7838  149.3211 H   0  0  0  0  0  0  0  0  0  0  0  0
  1  2  1  0
  1 30  1  0
  2  3  1  0
  2  7  2  0
  3  4  2  0
  3 31  1  0
  4  5  1  0
  4 32  1  0
  5  6  2  0
  5  8  1  0
  6  7  1  0
  6 33  1  0
  7 34  1  0
  8  9  1  0
  8 10  1  0
  8 35  1  1
  9 36  1  0
 10 11  1  0
 10 37  1  1
 10 38  1  0
 11 12  1  0
 11 39  1  0
 12 13  2  0
 12 23  1  0
 13 14  1  0
 14 15  2  0
 14 24  1  0
 15 16  1  0
 16 17  1  0
 16 23  2  0
 17 18  2  0
 17 22  1  0
 18 19  1  0
 18 40  1  0
 19 20  2  0
 19 41  1  0
 20 21  1  0
 20 42  1  0
 21 22  2  0
 21 43  1  0
 22 44  1  0
 23 45  1  0
 24 25  2  0
 24 29  1  0
 25 26  1  0
 25 46  1  0
 26 27  2  0
 26 47  1  0
 27 28  1  0
 27 48  1  0
 28 29  2  0
 28 49  1  0
 29 50  1  0
M  END
>  <s_epik_cmdline>  (260) 
J2VwaWtfcHl0aG9uJywgJy1waCcsICc3LjAwMDAwMCcsICctcGh0JywgJzIuMDAwMDAwJywgJy1tcycsICcxNicsICctdG4nLCAnOCcsICctbWEnLCAnMjAwJywgJy1pbWFlJywgJzxpbmZpbGUubWFlPicsICctb21hZScsICc8b3V0ZmlsZS5tYWU+Jw==

>  <s_epik_input>  (260) 
W09IXWMxW2NIXVtjSF1jKFtjSF1bY0hdMSlbQ0BIXShbT0hdKVtDSDJdW05IXWMybmMoLWMzW2NIXVtjSF1bY0hdW2NIXVtjSF0zKW5jKFtjSF0yKS1jNFtjSF1bY0hdW2NIXVtjSF1bY0hdNA==

>  <s_i_glide_gridfile>  (260) 
ATP-Grid

>  <s_lp_Force_Field>  (260) 
OPLS_2005

>  <s_lp_Variant>  (260) 
a2____240755____31946-2

>  <s_lp_label>  (260) 
394_sdstereoexpander_2_neutralizer_1_epik_1_stereoizer_1

>  <s_m_source_file>  (260) 
ATP-VSW-LIGPREP-003-in.maegz

>  <s_sd_BIOSOLVEIT.INFINISEE\_QUERY\_NAME>  (260) 
Ref-Lig

>  <s_sd_BIOSOLVEIT.INFINISEE\_QUERY\_SMILES>  (260) 
S(c1nc2c(cc1C[NH2+]Cc3ccc(cc3)C[NH+](C)C)cccc2)Cc4ccccc4

>  <s_sd_BIOSOLVEIT.INFINISEE\_REACTION\_NAME>  (260) 
a2

>  <s_sd_BIOSOLVEIT.INFINISEE\_REAGENT1\_SMILES>  (260) 
[R1*]NCC(O)c1ccc(O)cc1

>  <s_sd_BIOSOLVEIT.INFINISEE\_REAGENT2\_SMILES>  (260) 
[R1*]c1nc(nc(c2ccccc2)c1)c3ccccc3

>  <s_sd_BIOSOLVEIT.INFINISEE\_SPACE>  (260) 
FreedomSpace_5bn_2023-06

>  <s_vsw_compound_code>  (260) 
12579

>  <s_vsw_variant>  (260) 
12579-2

>  <r_epik_Charging_Adjusted_Penalty>  (260) 
0

>  <r_epik_Ionization_Penalty>  (260) 
0.0051999999999999998

>  <r_epik_Ionization_Penalty_Charging>  (260) 
0

>  <r_epik_Ionization_Penalty_Neutral>  (260) 
0.0051999999999999998

>  <r_epik_State_Penalty>  (260) 
-0

>  <r_i_docking_score>  (260) 
-5.0270587912310898

>  <r_i_glide_ecoul>  (260) 
-4.79850149154663

>  <r_i_glide_eff_state_penalty>  (260) 
-0

>  <r_i_glide_einternal>  (260) 
6.3731193542480504

>  <r_i_glide_emodel>  (260) 
-54.1413686472508

>  <r_i_glide_energy>  (260) 
-43.228543758392298

>  <r_i_glide_erotb>  (260) 
0.79299852948418303

>  <r_i_glide_esite>  (260) 
-0.061850637275317401

>  <r_i_glide_evdw>  (260) 
-38.430042266845703

>  <r_i_glide_gscore>  (260) 
-5.0270587912310898

>  <r_i_glide_hbond>  (260) 
-0.017383563374537499

>  <r_i_glide_ligand_efficiency>  (260) 
-0.17334685487003801

>  <r_i_glide_ligand_efficiency_ln>  (260) 
-1.1510689879798399

>  <r_i_glide_ligand_efficiency_sa>  (260) 
-0.53257645829915901

>  <r_i_glide_lipo>  (260) 
-2.3048351466275001

>  <r_i_glide_metal>  (260) 
-0

>  <r_i_glide_rewards>  (260) 
-0.79471063636363504

>  <r_lp_Energy>  (260) 
18.355543000000001

>  <r_lp_tautomer_probability>  (260) 
1

>  <r_qp_ACxDN^.5/SA>  (260) 
0.012621500000000001

>  <r_qp_CIQPlogS>  (260) 
-6.2889999999999997

>  <r_qp_EA(eV)>  (260) 
0.69999999999999996

>  <r_qp_FISA>  (260) 
121.608

>  <r_qp_FOSA>  (260) 
40.820999999999998

>  <r_qp_IP(eV)>  (260) 
8.7379999999999995

>  <r_qp_Jm>  (260) 
0.144363846937687

>  <r_qp_PISA>  (260) 
516.85799999999995

>  <r_qp_PSA>  (260) 
71.647000000000006

>  <r_qp_PercentHumanOralAbsorption>  (260) 
100

>  <r_qp_QPPCaco>  (260) 
696.12800000000004

>  <r_qp_QPPMDCK>  (260) 
334.43799999999999

>  <r_qp_QPlogBB>  (260) 
-1.137

>  <r_qp_QPlogHERG>  (260) 
-6.9770000000000003

>  <r_qp_QPlogKhsa>  (260) 
0.50800000000000001

>  <r_qp_QPlogKp>  (260) 
-1.1719999999999999

>  <r_qp_QPlogPC16>  (260) 
14.803000000000001

>  <r_qp_QPlogPo/w>  (260) 
4.3109999999999999

>  <r_qp_QPlogPoct>  (260) 
21.469999999999999

>  <r_qp_QPlogPw>  (260) 
13.202

>  <r_qp_QPlogS>  (260) 
-5.2519999999999998

>  <r_qp_QPpolrz>  (260) 
42.734999999999999

>  <r_qp_SASA>  (260) 
679.28700000000003

>  <r_qp_SAamideO>  (260) 
0

>  <r_qp_SAfluorine>  (260) 
0

>  <r_qp_WPSA>  (260) 
0

>  <r_qp_accptHB>  (260) 
4.9500000000000002

>  <r_qp_dip^2/V>  (260) 
0.0026995999999999999

>  <r_qp_dipole>  (260) 
1.8200000000000001

>  <r_qp_donorHB>  (260) 
3

>  <r_qp_glob>  (260) 
0.81580940000000002

>  <r_qp_mol_MW>  (260) 
383.44900000000001

>  <r_qp_volume>  (260) 
1226.636

>  <r_sd_BIOSOLVEIT.INFINISEE\_FTREES\_SIMILARITY>  (260) 
0.90900000000000003

>  <r_sd_BIOSOLVEIT.LOGP>  (260) 
4.6616999999999997

>  <r_sd_BIOSOLVEIT.MOLECULAR\_WEIGHT>  (260) 
383.44900000000001

>  <r_sd_BIOSOLVEIT.TPSA>  (260) 
78.269999999999996

>  <i_epik_Tot_Q>  (260) 
0

>  <i_epik_Tot_abs_Q>  (260) 
0

>  <i_f3d_flags>  (260) 
0

>  <i_i_glide_confnum>  (260) 
3

>  <i_i_glide_lignum>  (260) 
237

>  <i_i_glide_posenum>  (260) 
10

>  <i_i_glide_rotatable_bonds>  (260) 
8

>  <i_lp_mmshare_version>  (260) 
65135

>  <i_m_ct_format>  (260) 
2

>  <i_m_source_file_index>  (260) 
394

>  <i_qp_#NandO>  (260) 
5

>  <i_qp_#acid>  (260) 
0

>  <i_qp_#amide>  (260) 
0

>  <i_qp_#amidine>  (260) 
0

>  <i_qp_#amine>  (260) 
0

>  <i_qp_#in34>  (260) 
0

>  <i_qp_#in56>  (260) 
24

>  <i_qp_#metab>  (260) 
2

>  <i_qp_#nonHatm>  (260) 
29

>  <i_qp_#noncon>  (260) 
0

>  <i_qp_#ringatoms>  (260) 
24

>  <i_qp_#rotor>  (260) 
8

>  <i_qp_#rtvFG>  (260) 
0

>  <i_qp_#stars>  (260) 
1

>  <i_qp_CNS>  (260) 
-2

>  <i_qp_HumanOralAbsorption>  (260) 
3

>  <i_qp_RuleOfFive>  (260) 
0

>  <i_qp_RuleOfThree>  (260) 
0

>  <i_sd_BIOSOLVEIT.INFINISEE\_REAGENT1\_NAME>  (260) 
240755

>  <i_sd_BIOSOLVEIT.INFINISEE\_REAGENT2\_NAME>  (260) 
31946

>  <i_sd_BIOSOLVEIT.INFINISEE\_RESULT\_RANK>  (260) 
51283

>  <i_sd_version>  (260) 
0

>  <b_lp_Chiralities_Consistent>  (260) 
1

>  <b_sd_chiral_flag>  (260) 
0

>  <canonical_id>  (260) 
ATP-HTVS-2A6980A94AB8

>  <compound_code>  (260) 
12579

>  <title>  (260) 
a2____240755____31946

>  <variant>  (260) 
12579-2

>  <source_file>  (260) 
运行/运行/ATP-VSW/ATP-VSW-DOCK_HTVS_1-003_lib/ATP-VSW-DOCK_HTVS_1-003_lib.mae

>  <canonical_smiles>  (260) 
Oc1ccc([C@H](O)CNc2cc(-c3ccccc3)nc(-c3ccccc3)n2)cc1

>  <scaffold>  (260) 
c1ccc(CCNc2cc(-c3ccccc3)nc(-c3ccccc3)n2)cc1

>  <molecular_formula>  (260) 
C24H21N3O2

$$$$
ATP-HTVS-2A91244EC1AD
     RDKit          3D

 71 74  0  0  0  0  0  0  0  0999 V2000
  198.9834  183.7843  152.6603 O   0  0  0  0  0  0  0  0  0  0  0  0
  197.8477  184.0859  153.0432 C   0  0  0  0  0  0  0  0  0  0  0  0
  196.7975  183.2864  152.8309 N   0  0  0  0  0  0  0  0  0  0  0  0
  196.8616  181.9986  152.1409 C   0  0  1  0  0  0  0  0  0  0  0  0
  197.4437  180.9221  153.0289 C   0  0  0  0  0  0  0  0  0  0  0  0
  198.4483  180.0129  152.5495 C   0  0  0  0  0  0  0  0  0  0  0  0
  198.9856  179.0518  153.4622 C   0  0  0  0  0  0  0  0  0  0  0  0
  198.5170  178.9755  154.7980 C   0  0  0  0  0  0  0  0  0  0  0  0
  197.4983  179.8855  155.2196 C   0  0  0  0  0  0  0  0  0  0  0  0
  196.9682  180.8508  154.3606 C   0  0  0  0  0  0  0  0  0  0  0  0
  197.5834  185.3809  153.8154 C   0  0  1  0  0  0  0  0  0  0  0  0
  198.6478  186.3726  153.6354 N   0  0  0  0  0  0  0  0  0  0  0  0
  199.5276  186.6841  154.6948 C   0  0  0  0  0  0  0  0  0  0  0  0
  200.8464  186.4793  154.4866 N   0  0  0  0  0  0  0  0  0  0  0  0
  201.6949  186.8050  155.4994 C   0  0  0  0  0  0  0  0  0  0  0  0
  201.1906  187.3469  156.7288 C   0  0  0  0  0  0  0  0  0  0  0  0
  199.8843  187.5951  156.9048 N   0  0  0  0  0  0  0  0  0  0  0  0
  199.0386  187.2503  155.9100 C   0  0  0  0  0  0  0  0  0  0  0  0
  197.6687  187.4313  156.1393 N   0  0  0  0  0  0  0  0  0  0  0  0
  197.1669  188.2278  157.2680 C   0  0  1  0  0  0  0  0  0  0  0  0
  197.5146  187.6791  158.6764 C   0  0  1  0  0  0  0  0  0  0  0  0
  197.2018  186.2021  158.8135 C   0  0  0  0  0  0  0  0  0  0  0  0
  195.9159  185.8337  159.2481 C   0  0  0  0  0  0  0  0  0  0  0  0
  195.6055  184.4825  159.4311 C   0  0  0  0  0  0  0  0  0  0  0  0
  196.5607  183.4942  159.1394 C   0  0  0  0  0  0  0  0  0  0  0  0
  197.8423  183.8464  158.6606 C   0  0  0  0  0  0  0  0  0  0  0  0
  198.1582  185.2014  158.5099 C   0  0  0  0  0  0  0  0  0  0  0  0
  196.1670  182.0315  159.2616 C   0  0  1  0  0  0  0  0  0  0  0  0
  195.3372  181.5676  158.1200 N   0  0  2  0  0  0  0  0  0  0  0  0
  195.8805  182.0108  156.8530 C   0  0  2  0  0  0  0  0  0  0  0  0
  193.8848  181.8456  158.2456 C   0  0  2  0  0  0  0  0  0  0  0  0
  202.0893  187.6289  157.7830 C   0  0  0  0  0  0  0  0  0  0  0  0
  203.4761  187.4684  157.6293 C   0  0  0  0  0  0  0  0  0  0  0  0
  203.9765  186.9879  156.4027 C   0  0  0  0  0  0  0  0  0  0  0  0
  203.0883  186.6414  155.3559 C   0  0  0  0  0  0  0  0  0  0  0  0
  198.9031  186.9916  152.3437 C   0  0  2  0  0  0  0  0  0  0  0  0
  195.8868  183.6056  153.1418 H   0  0  0  0  0  0  0  0  0  0  0  0
  195.8262  181.7231  151.9285 H   0  0  0  0  0  0  0  0  0  0  0  0
  197.3869  182.1032  151.1909 H   0  0  0  0  0  0  0  0  0  0  0  0
  198.8099  180.0863  151.5212 H   0  0  0  0  0  0  0  0  0  0  0  0
  199.7651  178.3528  153.1250 H   0  0  0  0  0  0  0  0  0  0  0  0
  198.9063  178.2492  155.5023 H   0  0  0  0  0  0  0  0  0  0  0  0
  197.1452  179.7968  156.2317 H   0  0  0  0  0  0  0  0  0  0  0  0
  196.2335  181.5528  154.6330 H   0  0  0  0  0  0  0  0  0  0  0  0
  196.6316  185.8273  153.5037 H   0  0  0  0  0  0  0  0  0  0  0  0
  197.4472  185.0882  154.8601 H   0  0  0  0  0  0  0  0  0  0  0  0
  197.0397  187.2259  155.3753 H   0  0  0  0  0  0  0  0  0  0  0  0
  197.4928  189.2582  157.1508 H   0  0  0  0  0  0  0  0  0  0  0  0
  196.0847  188.2592  157.1627 H   0  0  0  0  0  0  0  0  0  0  0  0
  198.5617  187.8203  158.9412 H   0  0  0  0  0  0  0  0  0  0  0  0
  196.9798  188.2560  159.4451 H   0  0  0  0  0  0  0  0  0  0  0  0
  195.1751  186.5942  159.4435 H   0  0  0  0  0  0  0  0  0  0  0  0
  194.6071  184.2180  159.7506 H   0  0  0  0  0  0  0  0  0  0  0  0
  198.5588  183.0884  158.3697 H   0  0  0  0  0  0  0  0  0  0  0  0
  199.1464  185.4430  158.1471 H   0  0  0  0  0  0  0  0  0  0  0  0
  197.0838  181.4207  159.2901 H   0  0  0  0  0  0  0  0  0  0  0  0
  195.5814  181.8485  160.1089 H   0  0  0  0  0  0  0  0  0  0  0  0
  195.7502  183.0968  156.6653 H   0  0  0  0  0  0  0  0  0  0  0  0
  195.3238  181.4551  156.1347 H   0  0  0  0  0  0  0  0  0  0  0  0
  196.9208  181.6573  156.8360 H   0  0  0  0  0  0  0  0  0  0  0  0
  193.7092  182.9238  158.1633 H   0  0  0  0  0  0  0  0  0  0  0  0
  193.4470  181.4182  159.1593 H   0  0  0  0  0  0  0  0  0  0  0  0
  193.3648  181.3986  157.3938 H   0  0  0  0  0  0  0  0  0  0  0  0
  201.7006  187.9996  158.7202 H   0  0  0  0  0  0  0  0  0  0  0  0
  204.1540  187.7340  158.4351 H   0  0  0  0  0  0  0  0  0  0  0  0
  205.0450  186.8832  156.2632 H   0  0  0  0  0  0  0  0  0  0  0  0
  203.4803  186.2764  154.4124 H   0  0  0  0  0  0  0  0  0  0  0  0
  199.5568  187.8598  152.4394 H   0  0  0  0  0  0  0  0  0  0  0  0
  197.9543  187.3152  151.9167 H   0  0  0  0  0  0  0  0  0  0  0  0
  199.3698  186.2779  151.6645 H   0  0  0  0  0  0  0  0  0  0  0  0
  195.4490  180.5443  158.1400 H   0  0  0  0  0  0  0  0  0  0  0  0
  1  2  2  0
  2  3  1  0
  2 11  1  0
  3  4  1  0
  3 37  1  0
  4  5  1  0
  4 38  1  6
  4 39  1  0
  5  6  2  0
  5 10  1  0
  6  7  1  0
  6 40  1  0
  7  8  2  0
  7 41  1  0
  8  9  1  0
  8 42  1  0
  9 10  2  0
  9 43  1  0
 10 44  1  0
 11 12  1  0
 11 45  1  6
 11 46  1  0
 12 13  1  0
 12 36  1  0
 13 14  2  0
 13 18  1  0
 14 15  1  0
 15 16  1  0
 15 35  2  0
 16 17  1  0
 16 32  2  0
 17 18  2  0
 18 19  1  0
 19 20  1  0
 19 47  1  0
 20 21  1  0
 20 48  1  6
 20 49  1  0
 21 22  1  0
 21 50  1  1
 21 51  1  0
 22 23  1  0
 22 27  2  0
 23 24  2  0
 23 52  1  0
 24 25  1  0
 24 53  1  0
 25 26  2  0
 25 28  1  0
 26 27  1  0
 26 54  1  0
 27 55  1  0
 28 29  1  0
 28 56  1  1
 28 57  1  0
 29 30  1  0
 29 31  1  0
 29 71  1  6
 30 58  1  6
 30 59  1  0
 30 60  1  0
 31 61  1  1
 31 62  1  0
 31 63  1  0
 32 33  1  0
 32 64  1  0
 33 34  2  0
 33 65  1  0
 34 35  1  0
 34 66  1  0
 35 67  1  0
 36 68  1  1
 36 69  1  0
 36 70  1  0
M  CHG  1  29   1
M  END
>  <s_epik_cmdline>  (261) 
J2VwaWtfcHl0aG9uJywgJy1waCcsICc3LjAwMDAwMCcsICctcGh0JywgJzIuMDAwMDAwJywgJy1tcycsICcxNicsICctdG4nLCAnOCcsICctbWEnLCAnMjAwJywgJy1pbWFlJywgJzxpbmZpbGUubWFlPicsICctb21hZScsICc8b3V0ZmlsZS5tYWU+Jw==

>  <s_epik_input>  (261) 
W2NIXTFbY0hdW2NIXVtjSF1bY0hdYzFbQ0gyXVtOSF1DKD1PKVtDSDJdTihbQ0gzXSljKG4yKWMobmMoYzIzKVtjSF1bY0hdW2NIXVtjSF0zKVtOSF1bQ0gyXVtDSDJdYzRbY0hdW2NIXWMoW2NIXVtjSF00KVtDSDJdTihbQ0gzXSlbQ0gzXQ==

>  <s_i_glide_gridfile>  (261) 
ATP-Grid

>  <s_lp_Force_Field>  (261) 
OPLS_2005

>  <s_lp_Variant>  (261) 
m_282030aaa____21894442____23157418____21967972-1

>  <s_lp_label>  (261) 
1043_sdstereoexpander_1_neutralizer_1_epik_1_stereoizer_1

>  <s_m_source_file>  (261) 
ATP-VSW-LIGPREP-003-in.maegz

>  <s_sd_BIOSOLVEIT.INFINISEE\_QUERY\_NAME>  (261) 
Ref-Lig

>  <s_sd_BIOSOLVEIT.INFINISEE\_QUERY\_SMILES>  (261) 
S(c1nc2c(cc1C[NH2+]Cc3ccc(cc3)C[NH+](C)C)cccc2)Cc4ccccc4

>  <s_sd_BIOSOLVEIT.INFINISEE\_REACTION\_NAME>  (261) 
m_282030aaa

>  <s_sd_BIOSOLVEIT.INFINISEE\_REAGENT1\_SMILES>  (261) 
[R1*]N(CC(=O)NCc1ccccc1)C

>  <s_sd_BIOSOLVEIT.INFINISEE\_REAGENT2\_SMILES>  (261) 
[R1*]c1nc2c(nc1[R2*])cccc2

>  <s_sd_BIOSOLVEIT.INFINISEE\_REAGENT3\_SMILES>  (261) 
[R2*]NCCc1ccc(cc1)CN(C)C

>  <s_sd_BIOSOLVEIT.INFINISEE\_SPACE>  (261) 
REALSpace_44bn_2023-08

>  <s_vsw_compound_code>  (261) 
33347

>  <s_vsw_variant>  (261) 
33347-1

>  <r_epik_Charging_Adjusted_Penalty>  (261) 
0.081936508424468604

>  <r_epik_Ionization_Penalty>  (261) 
0.041300000000000003

>  <r_epik_Ionization_Penalty_Charging>  (261) 
0.041000000000000002

>  <r_epik_Ionization_Penalty_Neutral>  (261) 
0.00029999999999999997

>  <r_epik_State_Penalty>  (261) 
0.041000000000000002

>  <r_i_docking_score>  (261) 
-5.0011317909192101

>  <r_i_glide_ecoul>  (261) 
-14.8393611907959

>  <r_i_glide_eff_state_penalty>  (261) 
0.041000000000000002

>  <r_i_glide_einternal>  (261) 
6.2375693321228001

>  <r_i_glide_emodel>  (261) 
-61.841117693725998

>  <r_i_glide_energy>  (261) 
-44.698080062866197

>  <r_i_glide_erotb>  (261) 
0.86799826430920002

>  <r_i_glide_esite>  (261) 
-0.19562940488892699

>  <r_i_glide_evdw>  (261) 
-29.858718872070298

>  <r_i_glide_gscore>  (261) 
-5.0421317909192096

>  <r_i_glide_hbond>  (261) 
-0.48242408663603598

>  <r_i_glide_ligand_efficiency>  (261) 
-0.13892032752553399

>  <r_i_glide_ligand_efficiency_ln>  (261) 
-1.09111184181204

>  <r_i_glide_ligand_efficiency_sa>  (261) 
-0.45870481433400001

>  <r_i_glide_lipo>  (261) 
-1.17660780511691

>  <r_i_glide_metal>  (261) 
-0

>  <r_i_glide_rewards>  (261) 
-0.33662863636363499

>  <r_lp_Energy>  (261) 
29.708283999999999

>  <r_qp_ACxDN^.5/SA>  (261) 
0.0134877

>  <r_qp_CIQPlogS>  (261) 
-5.5999999999999996

>  <r_qp_EA(eV)>  (261) 
0.84199999999999997

>  <r_qp_FISA>  (261) 
52.024999999999999

>  <r_qp_FOSA>  (261) 
381.78300000000002

>  <r_qp_IP(eV)>  (261) 
8.0980000000000008

>  <r_qp_Jm>  (261) 
0.23828477856653299

>  <r_qp_PISA>  (261) 
352.58300000000003

>  <r_qp_PSA>  (261) 
72.694999999999993

>  <r_qp_PercentHumanOralAbsorption>  (261) 
100

>  <r_qp_QPPCaco>  (261) 
549.44100000000003

>  <r_qp_QPPMDCK>  (261) 
426.12900000000002

>  <r_qp_QPlogBB>  (261) 
-0.216

>  <r_qp_QPlogHERG>  (261) 
-5.4690000000000003

>  <r_qp_QPlogKhsa>  (261) 
0.51200000000000001

>  <r_qp_QPlogKp>  (261) 
-2.2429999999999999

>  <r_qp_QPlogPC16>  (261) 
15.743

>  <r_qp_QPlogPo/w>  (261) 
4.5960000000000001

>  <r_qp_QPlogPoct>  (261) 
24.030999999999999

>  <r_qp_QPlogPw>  (261) 
13.737

>  <r_qp_QPlogS>  (261) 
-4.0640000000000001

>  <r_qp_QPpolrz>  (261) 
51.826999999999998

>  <r_qp_SASA>  (261) 
786.39200000000005

>  <r_qp_SAamideO>  (261) 
20.041

>  <r_qp_SAfluorine>  (261) 
0

>  <r_qp_WPSA>  (261) 
0

>  <r_qp_accptHB>  (261) 
7.5

>  <r_qp_dip^2/V>  (261) 
0.0042370000000000003

>  <r_qp_dipole>  (261) 
2.5550000000000002

>  <r_qp_donorHB>  (261) 
2

>  <r_qp_glob>  (261) 
0.82051980000000002

>  <r_qp_mol_MW>  (261) 
482.62700000000001

>  <r_qp_volume>  (261) 
1541.1479999999999

>  <r_sd_BIOSOLVEIT.INFINISEE\_FTREES\_SIMILARITY>  (261) 
0.91500000000000004

>  <r_sd_BIOSOLVEIT.LOGP>  (261) 
2.6815000000000002

>  <r_sd_BIOSOLVEIT.MOLECULAR\_WEIGHT>  (261) 
483.637

>  <r_sd_BIOSOLVEIT.TPSA>  (261) 
74.590000000000003

>  <i_epik_Tot_Q>  (261) 
1

>  <i_epik_Tot_abs_Q>  (261) 
1

>  <i_f3d_flags>  (261) 
0

>  <i_i_glide_confnum>  (261) 
8

>  <i_i_glide_lignum>  (261) 
397

>  <i_i_glide_posenum>  (261) 
12

>  <i_i_glide_rotatable_bonds>  (261) 
12

>  <i_lp_mmshare_version>  (261) 
65135

>  <i_m_ct_format>  (261) 
2

>  <i_m_source_file_index>  (261) 
1043

>  <i_qp_#NandO>  (261) 
7

>  <i_qp_#acid>  (261) 
0

>  <i_qp_#amide>  (261) 
1

>  <i_qp_#amidine>  (261) 
0

>  <i_qp_#amine>  (261) 
1

>  <i_qp_#in34>  (261) 
0

>  <i_qp_#in56>  (261) 
22

>  <i_qp_#metab>  (261) 
5

>  <i_qp_#nonHatm>  (261) 
36

>  <i_qp_#noncon>  (261) 
0

>  <i_qp_#ringatoms>  (261) 
22

>  <i_qp_#rotor>  (261) 
11

>  <i_qp_#rtvFG>  (261) 
0

>  <i_qp_#stars>  (261) 
0

>  <i_qp_CNS>  (261) 
1

>  <i_qp_HumanOralAbsorption>  (261) 
3

>  <i_qp_RuleOfFive>  (261) 
0

>  <i_qp_RuleOfThree>  (261) 
0

>  <i_sd_BIOSOLVEIT.INFINISEE\_REAGENT1\_NAME>  (261) 
21894442

>  <i_sd_BIOSOLVEIT.INFINISEE\_REAGENT2\_NAME>  (261) 
23157418

>  <i_sd_BIOSOLVEIT.INFINISEE\_REAGENT3\_NAME>  (261) 
21967972

>  <i_sd_BIOSOLVEIT.INFINISEE\_RESULT\_RANK>  (261) 
29258

>  <i_sd_version>  (261) 
0

>  <b_lp_Chiralities_Consistent>  (261) 
1

>  <b_sd_chiral_flag>  (261) 
0

>  <canonical_id>  (261) 
ATP-HTVS-2A91244EC1AD

>  <compound_code>  (261) 
33347

>  <title>  (261) 
m_282030aaa____21894442____23157418____21967972

>  <variant>  (261) 
33347-1

>  <source_file>  (261) 
运行/运行/ATP-VSW/ATP-VSW-DOCK_HTVS_1-003_lib/ATP-VSW-DOCK_HTVS_1-003_lib.mae

>  <canonical_smiles>  (261) 
CN(CC(=O)NCc1ccccc1)c1nc2ccccc2nc1NCCc1ccc(C[NH+](C)C)cc1

>  <scaffold>  (261) 
O=C(CNc1nc2ccccc2nc1NCCc1ccccc1)NCc1ccccc1

>  <molecular_formula>  (261) 
C29H35N6O+

$$$$
ATP-HTVS-2AC4031F681F
     RDKit          3D

 59 62  0  0  0  0  0  0  0  0999 V2000
  198.3380  180.3604  148.5020 O   0  0  0  0  0  0  0  0  0  0  0  0
  198.1069  179.4122  149.2482 C   0  0  0  0  0  0  0  0  0  0  0  0
  198.0654  178.1380  148.8314 N   0  0  0  0  0  0  0  0  0  0  0  0
  198.2523  177.7111  147.4472 C   0  0  1  0  0  0  0  0  0  0  0  0
  198.9505  176.4152  147.3659 C   0  0  0  0  0  0  0  0  0  0  0  0
  199.5323  175.3549  147.2743 C   0  0  0  0  0  0  0  0  0  0  0  0
  200.2253  174.0619  147.1346 C   0  0  2  0  0  0  0  0  0  0  0  0
  197.8152  179.6436  150.7010 C   0  0  0  0  0  0  0  0  0  0  0  0
  197.0978  180.7936  151.0976 C   0  0  0  0  0  0  0  0  0  0  0  0
  196.9018  181.0798  152.4587 C   0  0  0  0  0  0  0  0  0  0  0  0
  197.4354  180.2122  153.4298 C   0  0  0  0  0  0  0  0  0  0  0  0
  198.1529  179.0624  153.0439 C   0  0  0  0  0  0  0  0  0  0  0  0
  198.3329  178.7718  151.6836 C   0  0  0  0  0  0  0  0  0  0  0  0
  197.2940  180.5357  154.9045 C   0  0  1  0  0  0  0  0  0  0  0  0
  198.5054  181.1222  155.4566 N   0  0  0  0  0  0  0  0  0  0  0  0
  198.5377  180.9958  156.8937 C   0  0  1  0  0  0  0  0  0  0  0  0
  197.6999  182.0331  157.5546 C   0  0  0  0  0  0  0  0  0  0  0  0
  196.3954  181.8188  157.9006 N   0  0  0  0  0  0  0  0  0  0  0  0
  195.8582  182.9682  158.4960 C   0  0  0  0  0  0  0  0  0  0  0  0
  196.9061  183.9326  158.5778 C   0  0  0  0  0  0  0  0  0  0  0  0
  198.0352  183.3007  158.0040 N   0  0  0  0  0  0  0  0  0  0  0  0
  199.3344  184.0467  157.9376 C   0  0  1  0  0  0  0  0  0  0  0  0
  200.5126  183.3994  158.6764 C   0  0  0  0  0  0  0  0  0  0  0  0
  200.7688  183.7119  160.0335 C   0  0  0  0  0  0  0  0  0  0  0  0
  201.7985  183.0348  160.7362 C   0  0  0  0  0  0  0  0  0  0  0  0
  202.5230  181.9969  160.1027 C   0  0  0  0  0  0  0  0  0  0  0  0
  202.2751  181.7074  158.7455 C   0  0  0  0  0  0  0  0  0  0  0  0
  201.3390  182.4580  158.0244 C   0  0  0  0  0  0  0  0  0  0  0  0
  196.6874  185.2018  159.1242 C   0  0  0  0  0  0  0  0  0  0  0  0
  195.3789  185.4895  159.5678 C   0  0  0  0  0  0  0  0  0  0  0  0
  194.3475  184.5197  159.4845 C   0  0  0  0  0  0  0  0  0  0  0  0
  194.5781  183.2490  158.9481 C   0  0  0  0  0  0  0  0  0  0  0  0
  199.3253  180.7491  155.0258 H   0  0  0  0  0  0  0  0  0  0  0  0
  197.8918  177.4203  149.5165 H   0  0  0  0  0  0  0  0  0  0  0  0
  197.2769  177.5975  146.9750 H   0  0  0  0  0  0  0  0  0  0  0  0
  198.8229  178.4281  146.8528 H   0  0  0  0  0  0  0  0  0  0  0  0
  200.7481  173.8325  148.0612 H   0  0  0  0  0  0  0  0  0  0  0  0
  200.9448  174.1005  146.3173 H   0  0  0  0  0  0  0  0  0  0  0  0
  199.5000  173.2749  146.9335 H   0  0  0  0  0  0  0  0  0  0  0  0
  196.7069  181.4719  150.3577 H   0  0  0  0  0  0  0  0  0  0  0  0
  196.3551  181.9620  152.7650 H   0  0  0  0  0  0  0  0  0  0  0  0
  198.5558  178.4044  153.8000 H   0  0  0  0  0  0  0  0  0  0  0  0
  198.8883  177.8924  151.4049 H   0  0  0  0  0  0  0  0  0  0  0  0
  196.4660  181.2257  155.0737 H   0  0  0  0  0  0  0  0  0  0  0  0
  197.0780  179.6147  155.4483 H   0  0  0  0  0  0  0  0  0  0  0  0
  198.2147  180.0032  157.2233 H   0  0  0  0  0  0  0  0  0  0  0  0
  199.5377  181.0976  157.2025 H   0  0  0  0  0  0  0  0  0  0  0  0
  199.5867  184.1662  156.8861 H   0  0  0  0  0  0  0  0  0  0  0  0
  199.2274  185.0554  158.3347 H   0  0  0  0  0  0  0  0  0  0  0  0
  200.2023  184.4889  160.5385 H   0  0  0  0  0  0  0  0  0  0  0  0
  202.0385  183.3258  161.7525 H   0  0  0  0  0  0  0  0  0  0  0  0
  203.3005  181.4584  160.6424 H   0  0  0  0  0  0  0  0  0  0  0  0
  202.7802  180.8804  158.2696 H   0  0  0  0  0  0  0  0  0  0  0  0
  201.2418  182.2833  156.9568 H   0  0  0  0  0  0  0  0  0  0  0  0
  197.4518  185.9765  159.1787 H   0  0  0  0  0  0  0  0  0  0  0  0
  195.1444  186.4635  159.9484 H   0  0  0  0  0  0  0  0  0  0  0  0
  193.3460  184.7823  159.7951 H   0  0  0  0  0  0  0  0  0  0  0  0
  193.8027  182.4962  158.8462 H   0  0  0  0  0  0  0  0  0  0  0  0
  195.9179  180.9100  157.7559 H   0  0  0  0  0  0  0  0  0  0  0  0
  1  2  2  0
  2  3  1  0
  2  8  1  0
  3  4  1  0
  3 34  1  0
  4  5  1  0
  4 35  1  6
  4 36  1  0
  5  6  3  0
  6  7  1  0
  7 37  1  1
  7 38  1  0
  7 39  1  0
  8  9  1  0
  8 13  2  0
  9 10  2  0
  9 40  1  0
 10 11  1  0
 10 41  1  0
 11 12  2  0
 11 14  1  0
 12 13  1  0
 12 42  1  0
 13 43  1  0
 14 15  1  0
 14 44  1  6
 14 45  1  0
 15 16  1  0
 15 33  1  0
 16 17  1  0
 16 46  1  6
 16 47  1  0
 17 18  2  0
 17 21  1  0
 18 19  1  0
 18 59  1  0
 19 20  1  0
 19 32  2  0
 20 21  1  0
 20 29  2  0
 21 22  1  0
 22 23  1  0
 22 48  1  6
 22 49  1  0
 23 24  2  0
 23 28  1  0
 24 25  1  0
 24 50  1  0
 25 26  2  0
 25 51  1  0
 26 27  1  0
 26 52  1  0
 27 28  2  0
 27 53  1  0
 28 54  1  0
 29 30  1  0
 29 55  1  0
 30 31  2  0
 30 56  1  0
 31 32  1  0
 31 57  1  0
 32 58  1  0
M  CHG  1  18   1
M  END
>  <s_epik_cmdline>  (262) 
J2VwaWtfcHl0aG9uJywgJy1waCcsICc3LjAwMDAwMCcsICctcGh0JywgJzIuMDAwMDAwJywgJy1tcycsICcxNicsICctdG4nLCAnOCcsICctbWEnLCAnMjAwJywgJy1pbWFlJywgJzxpbmZpbGUubWFlPicsICctb21hZScsICc8b3V0ZmlsZS5tYWU+Jw==

>  <s_epik_input>  (262) 
W0NIM11DI0NbQ0gyXVtOSF1DKD1PKWMxW2NIXVtjSF1jKFtjSF1bY0hdMSlbQ0gyXVtOSF1bQ0gyXWMobjIpbihjKGMyMylbY0hdW2NIXVtjSF1bY0hdMylbQ0gyXWM0W2NIXVtjSF1bY0hdW2NIXVtjSF00

>  <s_i_glide_gridfile>  (262) 
ATP-Grid

>  <s_lp_Force_Field>  (262) 
OPLS_2005

>  <s_lp_Variant>  (262) 
rxn512c____EMOL43295677____EMOL493239____EMOL44693140-3

>  <s_lp_label>  (262) 
2684_sdstereoexpander_1_neutralizer_1_epik_3_stereoizer_1

>  <s_m_source_file>  (262) 
ATP-VSW-LIGPREP-002-in.maegz

>  <s_sd_BIOSOLVEIT.INFINISEE\_QUERY\_NAME>  (262) 
Ref-Lig

>  <s_sd_BIOSOLVEIT.INFINISEE\_QUERY\_SMILES>  (262) 
S(c1nc2c(cc1C[NH2+]Cc3ccc(cc3)C[NH+](C)C)cccc2)Cc4ccccc4

>  <s_sd_BIOSOLVEIT.INFINISEE\_REACTION\_NAME>  (262) 
rxn512c

>  <s_sd_BIOSOLVEIT.INFINISEE\_REAGENT1\_NAME>  (262) 
EMOL43295677

>  <s_sd_BIOSOLVEIT.INFINISEE\_REAGENT1\_SMILES>  (262) 
NCC#CC

>  <s_sd_BIOSOLVEIT.INFINISEE\_REAGENT2\_NAME>  (262) 
EMOL493239

>  <s_sd_BIOSOLVEIT.INFINISEE\_REAGENT2\_SMILES>  (262) 
ClCc1ccc(cc1)C(=O)O

>  <s_sd_BIOSOLVEIT.INFINISEE\_REAGENT3\_NAME>  (262) 
EMOL44693140

>  <s_sd_BIOSOLVEIT.INFINISEE\_REAGENT3\_SMILES>  (262) 
N=1c2c(N(C1CN)Cc3ccccc3)cccc2

>  <s_sd_BIOSOLVEIT.INFINISEE\_SPACE>  (262) 
eXplore_7tr_2022-12

>  <s_vsw_compound_code>  (262) 
85858

>  <s_vsw_variant>  (262) 
85858-3

>  <r_epik_Charging_Adjusted_Penalty>  (262) 
2.4783405798312601

>  <r_epik_Ionization_Penalty>  (262) 
1.2419

>  <r_epik_Ionization_Penalty_Charging>  (262) 
1.0745

>  <r_epik_Ionization_Penalty_Neutral>  (262) 
0.16739999999999999

>  <r_epik_State_Penalty>  (262) 
1.4037999999999999

>  <r_i_docking_score>  (262) 
-3.6303614548455498

>  <r_i_glide_ecoul>  (262) 
-7.9432277679443404

>  <r_i_glide_eff_state_penalty>  (262) 
1.4037999999999999

>  <r_i_glide_einternal>  (262) 
1.84799981117249

>  <r_i_glide_emodel>  (262) 
-61.240380599891402

>  <r_i_glide_energy>  (262) 
-43.358518600463903

>  <r_i_glide_erotb>  (262) 
1.1049466192886299

>  <r_i_glide_esite>  (262) 
-0.14880799778229301

>  <r_i_glide_evdw>  (262) 
-35.415290832519503

>  <r_i_glide_gscore>  (262) 
-5.0341614548455498

>  <r_i_glide_hbond>  (262) 
-0.20000000000000001

>  <r_i_glide_ligand_efficiency>  (262) 
-0.113448795463924

>  <r_i_glide_ligand_efficiency_ln>  (262) 
-0.81293688965564503

>  <r_i_glide_ligand_efficiency_sa>  (262) 
-0.36017747411182099

>  <r_i_glide_lipo>  (262) 
-2.02549690805558

>  <r_i_glide_metal>  (262) 
-0

>  <r_i_glide_rewards>  (262) 
-0.80255446147868303

>  <r_lp_Energy>  (262) 
19.543085999999999

>  <r_qp_ACxDN^.5/SA>  (262) 
0.010802000000000001

>  <r_qp_CIQPlogS>  (262) 
-5.7450000000000001

>  <r_qp_EA(eV)>  (262) 
0.14999999999999999

>  <r_qp_FISA>  (262) 
57.512999999999998

>  <r_qp_FOSA>  (262) 
252.64699999999999

>  <r_qp_IP(eV)>  (262) 
8.3379999999999992

>  <r_qp_Jm>  (262) 
0.052152157112751597

>  <r_qp_PISA>  (262) 
409.91000000000003

>  <r_qp_PSA>  (262) 
62.625

>  <r_qp_PercentHumanOralAbsorption>  (262) 
100

>  <r_qp_QPPCaco>  (262) 
703.72799999999995

>  <r_qp_QPPMDCK>  (262) 
374.363

>  <r_qp_QPlogBB>  (262) 
-0.151

>  <r_qp_QPlogHERG>  (262) 
-7.133

>  <r_qp_QPlogKhsa>  (262) 
0.77700000000000002

>  <r_qp_QPlogKp>  (262) 
-2.3340000000000001

>  <r_qp_QPlogPC16>  (262) 
14.481999999999999

>  <r_qp_QPlogPo/w>  (262) 
4.8449999999999998

>  <r_qp_QPlogPoct>  (262) 
21.675000000000001

>  <r_qp_QPlogPw>  (262) 
10.993

>  <r_qp_QPlogS>  (262) 
-4.5750000000000002

>  <r_qp_QPpolrz>  (262) 
45.927999999999997

>  <r_qp_SASA>  (262) 
720.07100000000003

>  <r_qp_SAamideO>  (262) 
0

>  <r_qp_SAfluorine>  (262) 
0

>  <r_qp_WPSA>  (262) 
0

>  <r_qp_accptHB>  (262) 
5.5

>  <r_qp_dip^2/V>  (262) 
0.054511400000000002

>  <r_qp_dipole>  (262) 
8.5719999999999992

>  <r_qp_donorHB>  (262) 
2

>  <r_qp_glob>  (262) 
0.81955469999999997

>  <r_qp_mol_MW>  (262) 
422.529

>  <r_qp_volume>  (262) 
1347.9749999999999

>  <r_sd_BIOSOLVEIT.INFINISEE\_FTREES\_SIMILARITY>  (262) 
0.90900000000000003

>  <r_sd_BIOSOLVEIT.LOGP>  (262) 
3.1013000000000002

>  <r_sd_BIOSOLVEIT.MOLECULAR\_WEIGHT>  (262) 
423.53699999999998

>  <r_sd_BIOSOLVEIT.TPSA>  (262) 
63.530000000000001

>  <i_epik_Tot_Q>  (262) 
1

>  <i_epik_Tot_abs_Q>  (262) 
1

>  <i_f3d_flags>  (262) 
0

>  <i_i_glide_confnum>  (262) 
2

>  <i_i_glide_lignum>  (262) 
1303

>  <i_i_glide_posenum>  (262) 
5

>  <i_i_glide_rotatable_bonds>  (262) 
10

>  <i_lp_mmshare_version>  (262) 
65135

>  <i_m_ct_format>  (262) 
2

>  <i_m_source_file_index>  (262) 
2684

>  <i_qp_#NandO>  (262) 
5

>  <i_qp_#acid>  (262) 
0

>  <i_qp_#amide>  (262) 
0

>  <i_qp_#amidine>  (262) 
0

>  <i_qp_#amine>  (262) 
1

>  <i_qp_#in34>  (262) 
0

>  <i_qp_#in56>  (262) 
21

>  <i_qp_#metab>  (262) 
6

>  <i_qp_#nonHatm>  (262) 
32

>  <i_qp_#noncon>  (262) 
0

>  <i_qp_#ringatoms>  (262) 
21

>  <i_qp_#rotor>  (262) 
9

>  <i_qp_#rtvFG>  (262) 
0

>  <i_qp_#stars>  (262) 
0

>  <i_qp_CNS>  (262) 
1

>  <i_qp_HumanOralAbsorption>  (262) 
3

>  <i_qp_RuleOfFive>  (262) 
0

>  <i_qp_RuleOfThree>  (262) 
0

>  <i_sd_BIOSOLVEIT.INFINISEE\_RESULT\_RANK>  (262) 
50761

>  <i_sd_version>  (262) 
0

>  <b_lp_Chiralities_Consistent>  (262) 
1

>  <b_sd_chiral_flag>  (262) 
0

>  <canonical_id>  (262) 
ATP-HTVS-2AC4031F681F

>  <compound_code>  (262) 
85858

>  <title>  (262) 
rxn512c____EMOL43295677____EMOL493239____EMOL44693140

>  <variant>  (262) 
85858-3

>  <source_file>  (262) 
运行/运行/ATP-VSW/ATP-VSW-DOCK_HTVS_1-002_lib.maegz

>  <canonical_smiles>  (262) 
CC#CCNC(=O)c1ccc(CNCc2[nH+]c3ccccc3n2Cc2ccccc2)cc1

>  <scaffold>  (262) 
c1ccc(CNCc2[nH+]c3ccccc3n2Cc2ccccc2)cc1

>  <molecular_formula>  (262) 
C27H27N4O+

$$$$
ATP-HTVS-2AD5F3716208
     RDKit          3D

 47 50  0  0  0  0  0  0  0  0999 V2000
  193.4746  186.6987  162.0290 Cl  0  0  0  0  0  0  0  0  0  0  0  0
  194.6834  186.1053  160.9393 C   0  0  0  0  0  0  0  0  0  0  0  0
  194.3963  184.9868  160.1309 C   0  0  0  0  0  0  0  0  0  0  0  0
  195.3896  184.4494  159.2815 C   0  0  0  0  0  0  0  0  0  0  0  0
  196.6508  185.0887  159.2304 C   0  0  0  0  0  0  0  0  0  0  0  0
  196.9420  186.1917  160.0474 C   0  0  0  0  0  0  0  0  0  0  0  0
  195.9594  186.7038  160.9182 C   0  0  0  0  0  0  0  0  0  0  0  0
  195.1244  183.2713  158.3494 C   0  0  2  0  0  0  0  0  0  0  0  0
  193.8459  182.6697  158.5245 O   0  0  0  0  0  0  0  0  0  0  0  0
  196.1721  182.1393  158.4428 C   0  0  1  0  0  0  0  0  0  0  0  0
  196.3217  181.4445  157.1333 N   0  0  1  0  0  0  0  0  0  0  0  0
  197.6353  181.6203  156.4697 C   0  0  2  0  0  0  0  0  0  0  0  0
  198.0436  183.0942  156.3228 C   0  0  0  0  0  0  0  0  0  0  0  0
  197.2598  183.8698  155.5421 N   0  0  0  0  0  0  0  0  0  0  0  0
  197.5480  185.1864  155.4414 C   0  0  0  0  0  0  0  0  0  0  0  0
  198.6121  185.7964  156.1299 C   0  0  0  0  0  0  0  0  0  0  0  0
  199.4296  184.9951  156.9465 C   0  0  0  0  0  0  0  0  0  0  0  0
  199.1420  183.6170  157.0481 C   0  0  0  0  0  0  0  0  0  0  0  0
  197.6506  180.9156  155.1499 C   0  0  0  0  0  0  0  0  0  0  0  0
  198.6908  180.0576  154.9203 O   0  0  0  0  0  0  0  0  0  0  0  0
  198.5122  179.5528  153.6543 C   0  0  0  0  0  0  0  0  0  0  0  0
  197.3377  180.1045  153.0809 C   0  0  0  0  0  0  0  0  0  0  0  0
  197.0020  179.6904  151.7735 C   0  0  0  0  0  0  0  0  0  0  0  0
  197.8175  178.7657  151.0791 C   0  0  0  0  0  0  0  0  0  0  0  0
  198.9799  178.2383  151.6819 C   0  0  0  0  0  0  0  0  0  0  0  0
  199.3385  178.6362  152.9819 C   0  0  0  0  0  0  0  0  0  0  0  0
  196.8054  180.9995  154.0679 C   0  0  0  0  0  0  0  0  0  0  0  0
  196.1440  180.4429  157.3261 H   0  0  0  0  0  0  0  0  0  0  0  0
  193.4049  184.5535  160.1636 H   0  0  0  0  0  0  0  0  0  0  0  0
  197.4117  184.7328  158.5580 H   0  0  0  0  0  0  0  0  0  0  0  0
  197.9335  186.6218  160.0184 H   0  0  0  0  0  0  0  0  0  0  0  0
  196.2028  187.5355  161.5725 H   0  0  0  0  0  0  0  0  0  0  0  0
  195.1571  183.7121  157.3571 H   0  0  0  0  0  0  0  0  0  0  0  0
  193.5657  182.3146  157.6855 H   0  0  0  0  0  0  0  0  0  0  0  0
  197.1514  182.4814  158.7877 H   0  0  0  0  0  0  0  0  0  0  0  0
  195.8693  181.4211  159.2074 H   0  0  0  0  0  0  0  0  0  0  0  0
  198.3707  181.1424  157.1207 H   0  0  0  0  0  0  0  0  0  0  0  0
  196.8907  185.7749  154.8204 H   0  0  0  0  0  0  0  0  0  0  0  0
  198.7752  186.8648  156.0551 H   0  0  0  0  0  0  0  0  0  0  0  0
  200.2159  185.4382  157.5379 H   0  0  0  0  0  0  0  0  0  0  0  0
  199.7232  182.9944  157.7087 H   0  0  0  0  0  0  0  0  0  0  0  0
  196.1179  180.0922  151.3007 H   0  0  0  0  0  0  0  0  0  0  0  0
  197.5501  178.4568  150.0804 H   0  0  0  0  0  0  0  0  0  0  0  0
  199.5933  177.5258  151.1481 H   0  0  0  0  0  0  0  0  0  0  0  0
  200.2220  178.2480  153.4675 H   0  0  0  0  0  0  0  0  0  0  0  0
  195.9389  181.6365  153.9702 H   0  0  0  0  0  0  0  0  0  0  0  0
  195.6019  181.7599  156.4920 H   0  0  0  0  0  0  0  0  0  0  0  0
  1  2  1  0
  2  3  2  0
  2  7  1  0
  3  4  1  0
  3 29  1  0
  4  5  2  0
  4  8  1  0
  5  6  1  0
  5 30  1  0
  6  7  2  0
  6 31  1  0
  7 32  1  0
  8  9  1  0
  8 10  1  0
  8 33  1  6
  9 34  1  0
 10 11  1  0
 10 35  1  1
 10 36  1  0
 11 12  1  0
 11 28  1  1
 11 47  1  0
 12 13  1  0
 12 19  1  0
 12 37  1  1
 13 14  1  0
 13 18  2  0
 14 15  2  0
 15 16  1  0
 15 38  1  0
 16 17  2  0
 16 39  1  0
 17 18  1  0
 17 40  1  0
 18 41  1  0
 19 20  1  0
 19 27  2  0
 20 21  1  0
 21 22  1  0
 21 26  2  0
 22 23  2  0
 22 27  1  0
 23 24  1  0
 23 42  1  0
 24 25  2  0
 24 43  1  0
 25 26  1  0
 25 44  1  0
 26 45  1  0
 27 46  1  0
M  CHG  1  11   1
M  END
>  <s_epik_cmdline>  (263) 
J2VwaWtfcHl0aG9uJywgJy1waCcsICc3LjAwMDAwMCcsICctcGh0JywgJzIuMDAwMDAwJywgJy1tcycsICcxNicsICctdG4nLCAnOCcsICctbWEnLCAnMjAwJywgJy1pbWFlJywgJzxpbmZpbGUubWFlPicsICctb21hZScsICc8b3V0ZmlsZS5tYWU+Jw==

>  <s_epik_input>  (263) 
Q2xjMVtjSF1jKFtjSF1bY0hdW2NIXTEpW0NASF0oW09IXSlbQ0gyXVtOSF1bQ0BIXShjMm5bY0hdW2NIXVtjSF1bY0hdMiljKG8zKVtjSF1jKGMzNClbY0hdW2NIXVtjSF1bY0hdNA==

>  <s_i_glide_gridfile>  (263) 
ATP-Grid

>  <s_lp_Force_Field>  (263) 
OPLS_2005

>  <s_lp_Variant>  (263) 
m_269862bba____8257516____13192834-2

>  <s_lp_label>  (263) 
1077_sdstereoexpander_2_neutralizer_1_epik_1_stereoizer_1

>  <s_m_source_file>  (263) 
ATP-VSW-LIGPREP-002-in.maegz

>  <s_sd_BIOSOLVEIT.INFINISEE\_QUERY\_NAME>  (263) 
Ref-Lig

>  <s_sd_BIOSOLVEIT.INFINISEE\_QUERY\_SMILES>  (263) 
S(c1nc2c(cc1C[NH2+]Cc3ccc(cc3)C[NH+](C)C)cccc2)Cc4ccccc4

>  <s_sd_BIOSOLVEIT.INFINISEE\_REACTION\_NAME>  (263) 
m_269862bba

>  <s_sd_BIOSOLVEIT.INFINISEE\_REAGENT1\_SMILES>  (263) 
[R1*]NCC(O)c1cc(Cl)ccc1

>  <s_sd_BIOSOLVEIT.INFINISEE\_REAGENT2\_SMILES>  (263) 
[R1*]C(c1ncccc1)C=2Oc3c(cccc3)C2

>  <s_sd_BIOSOLVEIT.INFINISEE\_SPACE>  (263) 
REALSpace_44bn_2023-08

>  <s_vsw_compound_code>  (263) 
34434

>  <s_vsw_variant>  (263) 
34434-2

>  <r_epik_Charging_Adjusted_Penalty>  (263) 
0.12574514795471001

>  <r_epik_Ionization_Penalty>  (263) 
0.062899999999999998

>  <r_epik_Ionization_Penalty_Charging>  (263) 
0.062899999999999998

>  <r_epik_Ionization_Penalty_Neutral>  (263) 
0

>  <r_epik_State_Penalty>  (263) 
0.062899999999999998

>  <r_i_docking_score>  (263) 
-6.4687503210637898

>  <r_i_glide_ecoul>  (263) 
-15.1869411468506

>  <r_i_glide_eff_state_penalty>  (263) 
0.062899999999999998

>  <r_i_glide_einternal>  (263) 
7.9403195381164604

>  <r_i_glide_emodel>  (263) 
-73.565872235657096

>  <r_i_glide_energy>  (263) 
-48.603197097778299

>  <r_i_glide_erotb>  (263) 
0.67204726597247899

>  <r_i_glide_esite>  (263) 
-0.10000000000000001

>  <r_i_glide_evdw>  (263) 
-33.416255950927699

>  <r_i_glide_gscore>  (263) 
-6.5316503210637897

>  <r_i_glide_hbond>  (263) 
-0.28018996653106298

>  <r_i_glide_ligand_efficiency>  (263) 
-0.23958334522458499

>  <r_i_glide_ligand_efficiency_ln>  (263) 
-1.5058184290598

>  <r_i_glide_ligand_efficiency_sa>  (263) 
-0.71875003488412703

>  <r_i_glide_lipo>  (263) 
-1.8305111509312399

>  <r_i_glide_metal>  (263) 
-0

>  <r_i_glide_rewards>  (263) 
-1.0441425

>  <r_lp_Energy>  (263) 
11.539745999999999

>  <r_qp_ACxDN^.5/SA>  (263) 
0.0096641000000000001

>  <r_qp_CIQPlogS>  (263) 
-5.1680000000000001

>  <r_qp_EA(eV)>  (263) 
0.42199999999999999

>  <r_qp_FISA>  (263) 
52.396000000000001

>  <r_qp_FOSA>  (263) 
41.549999999999997

>  <r_qp_IP(eV)>  (263) 
8.7129999999999992

>  <r_qp_Jm>  (263) 
0.043350441263572299

>  <r_qp_PISA>  (263) 
522.25099999999998

>  <r_qp_PSA>  (263) 
51.195

>  <r_qp_PercentHumanOralAbsorption>  (263) 
100

>  <r_qp_QPPCaco>  (263) 
786.91200000000003

>  <r_qp_QPPMDCK>  (263) 
1042.0309999999999

>  <r_qp_QPlogBB>  (263) 
0.159

>  <r_qp_QPlogHERG>  (263) 
-8.1099999999999994

>  <r_qp_QPlogKhsa>  (263) 
0.58499999999999996

>  <r_qp_QPlogKp>  (263) 
-2.036

>  <r_qp_QPlogPC16>  (263) 
14.375

>  <r_qp_QPlogPo/w>  (263) 
4.633

>  <r_qp_QPlogPoct>  (263) 
19.672000000000001

>  <r_qp_QPlogPw>  (263) 
11.323

>  <r_qp_QPlogS>  (263) 
-4.9059999999999997

>  <r_qp_QPpolrz>  (263) 
42.206000000000003

>  <r_qp_SASA>  (263) 
687.78300000000002

>  <r_qp_SAamideO>  (263) 
0

>  <r_qp_SAfluorine>  (263) 
0

>  <r_qp_WPSA>  (263) 
71.584999999999994

>  <r_qp_accptHB>  (263) 
4.7000000000000002

>  <r_qp_dip^2/V>  (263) 
0.0049458000000000002

>  <r_qp_dipole>  (263) 
2.4319999999999999

>  <r_qp_donorHB>  (263) 
2

>  <r_qp_glob>  (263) 
0.79229190000000005

>  <r_qp_mol_MW>  (263) 
378.85700000000003

>  <r_qp_volume>  (263) 
1196.0709999999999

>  <r_sd_BIOSOLVEIT.INFINISEE\_FTREES\_SIMILARITY>  (263) 
0.91400000000000003

>  <r_sd_BIOSOLVEIT.LOGP>  (263) 
3.8675999999999999

>  <r_sd_BIOSOLVEIT.MOLECULAR\_WEIGHT>  (263) 
379.86500000000001

>  <r_sd_BIOSOLVEIT.TPSA>  (263) 
62.869999999999997

>  <i_epik_Tot_Q>  (263) 
1

>  <i_epik_Tot_abs_Q>  (263) 
1

>  <i_f3d_flags>  (263) 
0

>  <i_i_glide_confnum>  (263) 
4

>  <i_i_glide_lignum>  (263) 
346

>  <i_i_glide_posenum>  (263) 
20

>  <i_i_glide_rotatable_bonds>  (263) 
7

>  <i_lp_mmshare_version>  (263) 
65135

>  <i_m_ct_format>  (263) 
2

>  <i_m_source_file_index>  (263) 
1077

>  <i_qp_#NandO>  (263) 
4

>  <i_qp_#acid>  (263) 
0

>  <i_qp_#amide>  (263) 
0

>  <i_qp_#amidine>  (263) 
0

>  <i_qp_#amine>  (263) 
1

>  <i_qp_#in34>  (263) 
0

>  <i_qp_#in56>  (263) 
21

>  <i_qp_#metab>  (263) 
7

>  <i_qp_#nonHatm>  (263) 
27

>  <i_qp_#noncon>  (263) 
0

>  <i_qp_#ringatoms>  (263) 
21

>  <i_qp_#rotor>  (263) 
7

>  <i_qp_#rtvFG>  (263) 
0

>  <i_qp_#stars>  (263) 
1

>  <i_qp_CNS>  (263) 
1

>  <i_qp_HumanOralAbsorption>  (263) 
3

>  <i_qp_RuleOfFive>  (263) 
0

>  <i_qp_RuleOfThree>  (263) 
1

>  <i_sd_BIOSOLVEIT.INFINISEE\_REAGENT1\_NAME>  (263) 
8257516

>  <i_sd_BIOSOLVEIT.INFINISEE\_REAGENT2\_NAME>  (263) 
13192834

>  <i_sd_BIOSOLVEIT.INFINISEE\_RESULT\_RANK>  (263) 
31739

>  <i_sd_version>  (263) 
0

>  <b_lp_Chiralities_Consistent>  (263) 
1

>  <b_sd_chiral_flag>  (263) 
0

>  <canonical_id>  (263) 
ATP-HTVS-2AD5F3716208

>  <compound_code>  (263) 
34434

>  <title>  (263) 
m_269862bba____8257516____13192834

>  <variant>  (263) 
34434-2

>  <source_file>  (263) 
运行/运行/ATP-VSW/ATP-VSW-DOCK_HTVS_1-002_lib.maegz

>  <canonical_smiles>  (263) 
O[C@H](C[NH2+][C@H](c1ccccn1)c1cc2ccccc2o1)c1cccc(Cl)c1

>  <scaffold>  (263) 
c1ccc(CC[NH2+]C(c2ccccn2)c2cc3ccccc3o2)cc1

>  <molecular_formula>  (263) 
C22H20ClN2O2+

$$$$
ATP-HTVS-2AFCB32282C0
     RDKit          3D

 57 60  0  0  0  0  0  0  0  0999 V2000
  201.9467  181.1496  158.7555 F   0  0  0  0  0  0  0  0  0  0  0  0
  201.8493  180.8312  157.4434 C   0  0  0  0  0  0  0  0  0  0  0  0
  201.2937  179.5938  157.0581 C   0  0  0  0  0  0  0  0  0  0  0  0
  201.2537  179.2159  155.6924 C   0  0  0  0  0  0  0  0  0  0  0  0
  201.6915  180.1476  154.7204 C   0  0  0  0  0  0  0  0  0  0  0  0
  202.1994  181.4067  155.1038 C   0  0  0  0  0  0  0  0  0  0  0  0
  202.2970  181.7382  156.4683 C   0  0  0  0  0  0  0  0  0  0  0  0
  200.6896  177.8629  155.2563 C   0  0  1  0  0  0  0  0  0  0  0  0
  201.6093  176.7153  155.5268 N   0  0  1  0  0  0  0  0  0  0  0  0
  201.7170  176.2998  156.9489 C   0  0  2  0  0  0  0  0  0  0  0  0
  201.3566  175.5461  154.6589 C   0  0  2  0  0  0  0  0  0  0  0  0
  199.2388  177.6116  155.7291 C   0  0  1  0  0  0  0  0  0  0  0  0
  198.3607  178.7332  155.4664 N   0  0  0  0  0  0  0  0  0  0  0  0
  198.0736  179.4413  154.3108 C   0  0  0  0  0  0  0  0  0  0  0  0
  198.5475  179.1347  153.1127 N   0  0  0  0  0  0  0  0  0  0  0  0
  198.0195  180.1419  152.3281 C   0  0  0  0  0  0  0  0  0  0  0  0
  197.2137  181.0287  153.0983 C   0  0  0  0  0  0  0  0  0  0  0  0
  197.2793  180.5344  154.3972 N   0  0  0  0  0  0  0  0  0  0  0  0
  196.6544  181.0944  155.5790 C   0  0  1  0  0  0  0  0  0  0  0  0
  197.5542  181.8805  156.5387 C   0  0  0  0  0  0  0  0  0  0  0  0
  198.7777  181.9032  156.3584 O   0  0  0  0  0  0  0  0  0  0  0  0
  196.8926  182.6143  157.6507 C   0  0  0  0  0  0  0  0  0  0  0  0
  197.6331  183.4936  158.4639 C   0  0  0  0  0  0  0  0  0  0  0  0
  197.0084  184.2052  159.5062 C   0  0  0  0  0  0  0  0  0  0  0  0
  195.6281  184.0394  159.7426 C   0  0  0  0  0  0  0  0  0  0  0  0
  194.8840  183.1543  158.9472 C   0  0  0  0  0  0  0  0  0  0  0  0
  195.5093  182.4319  157.9186 C   0  0  0  0  0  0  0  0  0  0  0  0
  196.5658  182.1324  152.5113 C   0  0  0  0  0  0  0  0  0  0  0  0
  196.7285  182.3683  151.1293 C   0  0  0  0  0  0  0  0  0  0  0  0
  197.5295  181.5052  150.3529 C   0  0  0  0  0  0  0  0  0  0  0  0
  198.1722  180.3985  150.9452 C   0  0  0  0  0  0  0  0  0  0  0  0
  200.9011  178.9555  157.8331 H   0  0  0  0  0  0  0  0  0  0  0  0
  201.6152  179.9180  153.6663 H   0  0  0  0  0  0  0  0  0  0  0  0
  202.5088  182.1215  154.3521 H   0  0  0  0  0  0  0  0  0  0  0  0
  202.6917  182.7000  156.7707 H   0  0  0  0  0  0  0  0  0  0  0  0
  200.6512  177.9164  154.1635 H   0  0  0  0  0  0  0  0  0  0  0  0
  200.7787  175.8962  157.3186 H   0  0  0  0  0  0  0  0  0  0  0  0
  201.9779  177.1200  157.6041 H   0  0  0  0  0  0  0  0  0  0  0  0
  202.4700  175.5184  157.0530 H   0  0  0  0  0  0  0  0  0  0  0  0
  200.4070  175.0719  154.9133 H   0  0  0  0  0  0  0  0  0  0  0  0
  202.1380  174.7969  154.7926 H   0  0  0  0  0  0  0  0  0  0  0  0
  201.3325  175.8082  153.5995 H   0  0  0  0  0  0  0  0  0  0  0  0
  198.8180  176.7274  155.2587 H   0  0  0  0  0  0  0  0  0  0  0  0
  199.2110  177.4518  156.8034 H   0  0  0  0  0  0  0  0  0  0  0  0
  197.8693  179.0193  156.3015 H   0  0  0  0  0  0  0  0  0  0  0  0
  195.8407  181.7404  155.2533 H   0  0  0  0  0  0  0  0  0  0  0  0
  196.1994  180.2752  156.1333 H   0  0  0  0  0  0  0  0  0  0  0  0
  198.6940  183.6385  158.2825 H   0  0  0  0  0  0  0  0  0  0  0  0
  197.5786  184.8825  160.1264 H   0  0  0  0  0  0  0  0  0  0  0  0
  195.1426  184.5824  160.5372 H   0  0  0  0  0  0  0  0  0  0  0  0
  193.8273  183.0142  159.1165 H   0  0  0  0  0  0  0  0  0  0  0  0
  194.8979  181.7608  157.3367 H   0  0  0  0  0  0  0  0  0  0  0  0
  195.9496  182.7859  153.1081 H   0  0  0  0  0  0  0  0  0  0  0  0
  196.2383  183.2154  150.6696 H   0  0  0  0  0  0  0  0  0  0  0  0
  197.6526  181.6931  149.2930 H   0  0  0  0  0  0  0  0  0  0  0  0
  198.7919  179.7450  150.3532 H   0  0  0  0  0  0  0  0  0  0  0  0
  202.5228  177.0661  155.2643 H   0  0  0  0  0  0  0  0  0  0  0  0
  1  2  1  0
  2  3  2  0
  2  7  1  0
  3  4  1  0
  3 32  1  0
  4  5  2  0
  4  8  1  0
  5  6  1  0
  5 33  1  0
  6  7  2  0
  6 34  1  0
  7 35  1  0
  8  9  1  0
  8 12  1  0
  8 36  1  6
  9 10  1  0
  9 11  1  0
  9 57  1  6
 10 37  1  1
 10 38  1  0
 10 39  1  0
 11 40  1  1
 11 41  1  0
 11 42  1  0
 12 13  1  0
 12 43  1  6
 12 44  1  0
 13 14  1  0
 13 45  1  0
 14 15  2  0
 14 18  1  0
 15 16  1  0
 16 17  1  0
 16 31  2  0
 17 18  1  0
 17 28  2  0
 18 19  1  0
 19 20  1  0
 19 46  1  6
 19 47  1  0
 20 21  2  0
 20 22  1  0
 22 23  2  0
 22 27  1  0
 23 24  1  0
 23 48  1  0
 24 25  2  0
 24 49  1  0
 25 26  1  0
 25 50  1  0
 26 27  2  0
 26 51  1  0
 27 52  1  0
 28 29  1  0
 28 53  1  0
 29 30  2  0
 29 54  1  0
 30 31  1  0
 30 55  1  0
 31 56  1  0
M  CHG  1   9   1
M  END
>  <s_epik_cmdline>  (264) 
J2VwaWtfcHl0aG9uJywgJy1waCcsICc3LjAwMDAwMCcsICctcGh0JywgJzIuMDAwMDAwJywgJy1tcycsICcxNicsICctdG4nLCAnOCcsICctbWEnLCAnMjAwJywgJy1pbWFlJywgJzxpbmZpbGUubWFlPicsICctb21hZScsICc8b3V0ZmlsZS5tYWU+Jw==

>  <s_epik_input>  (264) 
RmMxW2NIXWMoW2NIXVtjSF1bY0hdMSlbQ0BASF0oTihbQ0gzXSlbQ0gzXSlbQ0gyXVtOSF1jKG4yKW4oYyhjMjMpW2NIXVtjSF1bY0hdW2NIXTMpW0NIMl1DKD1PKWM0W2NIXVtjSF1bY0hdW2NIXVtjSF00

>  <s_i_glide_gridfile>  (264) 
ATP-Grid

>  <s_lp_Force_Field>  (264) 
OPLS_2005

>  <s_lp_Variant>  (264) 
m_27bbd____62062____24798446-1

>  <s_lp_label>  (264) 
1080_sdstereoexpander_1_neutralizer_1_epik_1_stereoizer_1

>  <s_m_source_file>  (264) 
ATP-VSW-LIGPREP-001-in.maegz

>  <s_sd_BIOSOLVEIT.INFINISEE\_QUERY\_NAME>  (264) 
Ref-Lig

>  <s_sd_BIOSOLVEIT.INFINISEE\_QUERY\_SMILES>  (264) 
S(c1nc2c(cc1C[NH2+]Cc3ccc(cc3)C[NH+](C)C)cccc2)Cc4ccccc4

>  <s_sd_BIOSOLVEIT.INFINISEE\_REACTION\_NAME>  (264) 
m_27bbd

>  <s_sd_BIOSOLVEIT.INFINISEE\_REAGENT1\_SMILES>  (264) 
[R1*]NCC(N(C)C)c1cc(F)ccc1

>  <s_sd_BIOSOLVEIT.INFINISEE\_REAGENT2\_SMILES>  (264) 
[R1*]C1=Nc2c(N1CC(=O)c3ccccc3)cccc2

>  <s_sd_BIOSOLVEIT.INFINISEE\_SPACE>  (264) 
REALSpace_44bn_2023-08

>  <s_vsw_compound_code>  (264) 
34529

>  <s_vsw_variant>  (264) 
34529-1

>  <r_epik_Charging_Adjusted_Penalty>  (264) 
0.33902657454730301

>  <r_epik_Ionization_Penalty>  (264) 
0.17910000000000001

>  <r_epik_Ionization_Penalty_Charging>  (264) 
0.082100000000000006

>  <r_epik_Ionization_Penalty_Neutral>  (264) 
0.097000000000000003

>  <r_epik_State_Penalty>  (264) 
0.25690000000000002

>  <r_i_docking_score>  (264) 
-3.8960089217013998

>  <r_i_glide_ecoul>  (264) 
-7.7966842651367196

>  <r_i_glide_eff_state_penalty>  (264) 
0.25690000000000002

>  <r_i_glide_einternal>  (264) 
1.88992691040039

>  <r_i_glide_emodel>  (264) 
-54.580381121353803

>  <r_i_glide_energy>  (264) 
-41.287498474121101

>  <r_i_glide_erotb>  (264) 
0.68038266368344502

>  <r_i_glide_esite>  (264) 
-0.21317249594851401

>  <r_i_glide_evdw>  (264) 
-33.490814208984403

>  <r_i_glide_gscore>  (264) 
-4.1529089217013997

>  <r_i_glide_hbond>  (264) 
-0.03925942319056

>  <r_i_glide_ligand_efficiency>  (264) 
-0.12567770715165799

>  <r_i_glide_ligand_efficiency_ln>  (264) 
-0.878669410177917

>  <r_i_glide_ligand_efficiency_sa>  (264) 
-0.39480151723121498

>  <r_i_glide_lipo>  (264) 
-0.87424567382896001

>  <r_i_glide_metal>  (264) 
-0

>  <r_i_glide_rewards>  (264) 
-0.86257064219707902

>  <r_lp_Energy>  (264) 
20.243283000000002

>  <r_qp_ACxDN^.5/SA>  (264) 
0.0089359000000000001

>  <r_qp_CIQPlogS>  (264) 
-5.4930000000000003

>  <r_qp_EA(eV)>  (264) 
0.91300000000000003

>  <r_qp_FISA>  (264) 
36.396999999999998

>  <r_qp_FOSA>  (264) 
185.68600000000001

>  <r_qp_IP(eV)>  (264) 
8.0990000000000002

>  <r_qp_Jm>  (264) 
0.50133135880239799

>  <r_qp_PISA>  (264) 
417.85899999999998

>  <r_qp_PSA>  (264) 
52.993000000000002

>  <r_qp_PercentHumanOralAbsorption>  (264) 
100

>  <r_qp_QPPCaco>  (264) 
1115.962

>  <r_qp_QPPMDCK>  (264) 
916.93299999999999

>  <r_qp_QPlogBB>  (264) 
0.221

>  <r_qp_QPlogHERG>  (264) 
-6.6829999999999998

>  <r_qp_QPlogKhsa>  (264) 
0.59599999999999997

>  <r_qp_QPlogKp>  (264) 
-2.0129999999999999

>  <r_qp_QPlogPC16>  (264) 
13.327

>  <r_qp_QPlogPo/w>  (264) 
4.6600000000000001

>  <r_qp_QPlogPoct>  (264) 
19.724

>  <r_qp_QPlogPw>  (264) 
10.045999999999999

>  <r_qp_QPlogS>  (264) 
-3.907

>  <r_qp_QPpolrz>  (264) 
43.978999999999999

>  <r_qp_SASA>  (264) 
671.45100000000002

>  <r_qp_SAamideO>  (264) 
0

>  <r_qp_SAfluorine>  (264) 
31.509

>  <r_qp_WPSA>  (264) 
31.509

>  <r_qp_accptHB>  (264) 
6

>  <r_qp_dip^2/V>  (264) 
0.034041700000000001

>  <r_qp_dipole>  (264) 
6.6040000000000001

>  <r_qp_donorHB>  (264) 
1

>  <r_qp_glob>  (264) 
0.8496918

>  <r_qp_mol_MW>  (264) 
416.49700000000001

>  <r_qp_volume>  (264) 
1281.3440000000001

>  <r_sd_BIOSOLVEIT.INFINISEE\_FTREES\_SIMILARITY>  (264) 
0.91400000000000003

>  <r_sd_BIOSOLVEIT.LOGP>  (264) 
3.3559999999999999

>  <r_sd_BIOSOLVEIT.MOLECULAR\_WEIGHT>  (264) 
417.505

>  <r_sd_BIOSOLVEIT.TPSA>  (264) 
51.359999999999999

>  <i_epik_Tot_Q>  (264) 
1

>  <i_epik_Tot_abs_Q>  (264) 
1

>  <i_f3d_flags>  (264) 
0

>  <i_i_glide_confnum>  (264) 
3

>  <i_i_glide_lignum>  (264) 
240

>  <i_i_glide_posenum>  (264) 
4

>  <i_i_glide_rotatable_bonds>  (264) 
8

>  <i_lp_mmshare_version>  (264) 
65135

>  <i_m_ct_format>  (264) 
2

>  <i_m_source_file_index>  (264) 
1080

>  <i_qp_#NandO>  (264) 
5

>  <i_qp_#acid>  (264) 
0

>  <i_qp_#amide>  (264) 
0

>  <i_qp_#amidine>  (264) 
0

>  <i_qp_#amine>  (264) 
1

>  <i_qp_#in34>  (264) 
0

>  <i_qp_#in56>  (264) 
21

>  <i_qp_#metab>  (264) 
4

>  <i_qp_#nonHatm>  (264) 
31

>  <i_qp_#noncon>  (264) 
0

>  <i_qp_#ringatoms>  (264) 
21

>  <i_qp_#rotor>  (264) 
8

>  <i_qp_#rtvFG>  (264) 
0

>  <i_qp_#stars>  (264) 
0

>  <i_qp_CNS>  (264) 
1

>  <i_qp_HumanOralAbsorption>  (264) 
3

>  <i_qp_RuleOfFive>  (264) 
0

>  <i_qp_RuleOfThree>  (264) 
0

>  <i_sd_BIOSOLVEIT.INFINISEE\_REAGENT1\_NAME>  (264) 
62062

>  <i_sd_BIOSOLVEIT.INFINISEE\_REAGENT2\_NAME>  (264) 
24798446

>  <i_sd_BIOSOLVEIT.INFINISEE\_RESULT\_RANK>  (264) 
31982

>  <i_sd_version>  (264) 
0

>  <b_lp_Chiralities_Consistent>  (264) 
1

>  <b_sd_chiral_flag>  (264) 
0

>  <canonical_id>  (264) 
ATP-HTVS-2AFCB32282C0

>  <compound_code>  (264) 
34529

>  <title>  (264) 
m_27bbd____62062____24798446

>  <variant>  (264) 
34529-1

>  <source_file>  (264) 
运行/运行/ATP-VSW/ATP-VSW-DOCK_HTVS_1-001_lib/ATP-VSW-DOCK_HTVS_1-001_lib

>  <canonical_smiles>  (264) 
C[NH+](C)[C@@H](CNc1nc2ccccc2n1CC(=O)c1ccccc1)c1cccc(F)c1

>  <scaffold>  (264) 
O=C(Cn1c(NCCc2ccccc2)nc2ccccc21)c1ccccc1

>  <molecular_formula>  (264) 
C25H26FN4O+

$$$$
ATP-HTVS-2B2381835080
     RDKit          3D

 54 57  0  0  0  0  0  0  0  0999 V2000
  195.4987  183.4484  150.5340 O   0  0  0  0  0  0  0  0  0  0  0  0
  196.5696  183.3300  151.1666 C   0  0  0  0  0  0  0  0  0  0  0  0
  197.5086  184.1680  151.1362 O   0  0  0  0  0  0  0  0  0  0  0  0
  196.7570  182.0364  152.0116 C   0  0  1  0  0  0  0  0  0  0  0  0
  197.6565  181.0217  151.4054 N   0  0  0  0  0  0  0  0  0  0  0  0
  197.2023  179.7832  151.0753 C   0  0  0  0  0  0  0  0  0  0  0  0
  196.0187  179.4390  151.1395 O   0  0  0  0  0  0  0  0  0  0  0  0
  198.2050  178.7630  150.6055 C   0  0  0  0  0  0  0  0  0  0  0  0
  198.3550  178.4090  149.2371 C   0  0  0  0  0  0  0  0  0  0  0  0
  199.3499  177.4473  148.8874 C   0  0  0  0  0  0  0  0  0  0  0  0
  200.1403  176.8648  149.8121 N   0  0  0  0  0  0  0  0  0  0  0  0
  199.9868  177.1857  151.1088 C   0  0  0  0  0  0  0  0  0  0  0  0
  200.8531  176.5184  151.9803 N   0  0  0  0  0  0  0  0  0  0  0  0
  200.6161  176.5065  153.4158 C   0  0  1  0  0  0  0  0  0  0  0  0
  201.4252  175.4568  154.1582 C   0  0  0  0  0  0  0  0  0  0  0  0
  201.9508  175.7504  155.4342 C   0  0  0  0  0  0  0  0  0  0  0  0
  202.6990  174.7820  156.1319 C   0  0  0  0  0  0  0  0  0  0  0  0
  202.9259  173.5163  155.5597 C   0  0  0  0  0  0  0  0  0  0  0  0
  202.3880  173.2168  154.2971 C   0  0  0  0  0  0  0  0  0  0  0  0
  201.6388  174.1779  153.5965 C   0  0  0  0  0  0  0  0  0  0  0  0
  199.0345  178.1248  151.5513 C   0  0  0  0  0  0  0  0  0  0  0  0
  199.5257  177.1095  147.5279 C   0  0  0  0  0  0  0  0  0  0  0  0
  198.7381  177.6989  146.5244 C   0  0  0  0  0  0  0  0  0  0  0  0
  197.7511  178.6342  146.8720 C   0  0  0  0  0  0  0  0  0  0  0  0
  197.5567  178.9849  148.2199 C   0  0  0  0  0  0  0  0  0  0  0  0
  199.0752  181.3837  151.2276 C   0  0  2  0  0  0  0  0  0  0  0  0
  197.1767  182.3136  153.4371 C   0  0  0  0  0  0  0  0  0  0  0  0
  198.1052  183.3120  153.8292 C   0  0  0  0  0  0  0  0  0  0  0  0
  198.4576  183.4948  155.1875 C   0  0  0  0  0  0  0  0  0  0  0  0
  197.8991  182.6763  156.1872 C   0  0  0  0  0  0  0  0  0  0  0  0
  196.9981  181.6637  155.8191 C   0  0  0  0  0  0  0  0  0  0  0  0
  196.6529  181.4887  154.4636 C   0  0  0  0  0  0  0  0  0  0  0  0
  195.7433  181.6429  152.0629 H   0  0  0  0  0  0  0  0  0  0  0  0
  201.5250  175.8741  151.5926 H   0  0  0  0  0  0  0  0  0  0  0  0
  200.8533  177.4945  153.8130 H   0  0  0  0  0  0  0  0  0  0  0  0
  199.5609  176.3212  153.6162 H   0  0  0  0  0  0  0  0  0  0  0  0
  201.7817  176.7180  155.8866 H   0  0  0  0  0  0  0  0  0  0  0  0
  203.0975  175.0102  157.1082 H   0  0  0  0  0  0  0  0  0  0  0  0
  203.4951  172.7723  156.0964 H   0  0  0  0  0  0  0  0  0  0  0  0
  202.5514  172.2426  153.8633 H   0  0  0  0  0  0  0  0  0  0  0  0
  201.2298  173.9245  152.6299 H   0  0  0  0  0  0  0  0  0  0  0  0
  198.9388  178.3680  152.5986 H   0  0  0  0  0  0  0  0  0  0  0  0
  200.2838  176.3912  147.2492 H   0  0  0  0  0  0  0  0  0  0  0  0
  198.8856  177.4367  145.4859 H   0  0  0  0  0  0  0  0  0  0  0  0
  197.1484  179.0753  146.0918 H   0  0  0  0  0  0  0  0  0  0  0  0
  196.7957  179.7116  148.4620 H   0  0  0  0  0  0  0  0  0  0  0  0
  199.3371  181.3681  150.1707 H   0  0  0  0  0  0  0  0  0  0  0  0
  199.7353  180.6977  151.7566 H   0  0  0  0  0  0  0  0  0  0  0  0
  199.3116  182.3760  151.6054 H   0  0  0  0  0  0  0  0  0  0  0  0
  198.5641  183.9513  153.0827 H   0  0  0  0  0  0  0  0  0  0  0  0
  199.1589  184.2735  155.4510 H   0  0  0  0  0  0  0  0  0  0  0  0
  198.1679  182.8231  157.2266 H   0  0  0  0  0  0  0  0  0  0  0  0
  196.5620  181.0241  156.5753 H   0  0  0  0  0  0  0  0  0  0  0  0
  195.9590  180.6994  154.2144 H   0  0  0  0  0  0  0  0  0  0  0  0
  1  2  1  0
  2  3  2  0
  2  4  1  0
  4  5  1  0
  4 27  1  0
  4 33  1  1
  5  6  1  0
  5 26  1  0
  6  7  2  0
  6  8  1  0
  8  9  1  0
  8 21  2  0
  9 10  1  0
  9 25  2  0
 10 11  1  0
 10 22  2  0
 11 12  2  0
 12 13  1  0
 12 21  1  0
 13 14  1  0
 13 34  1  0
 14 15  1  0
 14 35  1  1
 14 36  1  0
 15 16  2  0
 15 20  1  0
 16 17  1  0
 16 37  1  0
 17 18  2  0
 17 38  1  0
 18 19  1  0
 18 39  1  0
 19 20  2  0
 19 40  1  0
 20 41  1  0
 21 42  1  0
 22 23  1  0
 22 43  1  0
 23 24  2  0
 23 44  1  0
 24 25  1  0
 24 45  1  0
 25 46  1  0
 26 47  1  6
 26 48  1  0
 26 49  1  0
 27 28  2  0
 27 32  1  0
 28 29  1  0
 28 50  1  0
 29 30  2  0
 29 51  1  0
 30 31  1  0
 30 52  1  0
 31 32  2  0
 31 53  1  0
 32 54  1  0
M  CHG  1   1  -1
M  END
>  <s_epik_cmdline>  (265) 
J2VwaWtfcHl0aG9uJywgJy1waCcsICc3LjAwMDAwMCcsICctcGh0JywgJzIuMDAwMDAwJywgJy1tcycsICcxNicsICctdG4nLCAnOCcsICctbWEnLCAnMjAwJywgJy1pbWFlJywgJzxpbmZpbGUubWFlPicsICctb21hZScsICc8b3V0ZmlsZS5tYWU+Jw==

>  <s_epik_input>  (265) 
W2NIXTFbY0hdW2NIXVtjSF1bY0hdYzFbQ0BASF0oQyg9TylbT0hdKU4oW0NIM10pQyg9TyljMltjSF1jKG5jKGMyMylbY0hdW2NIXVtjSF1bY0hdMylbTkhdW0NIMl1jNFtjSF1bY0hdW2NIXVtjSF1bY0hdNA==

>  <s_i_glide_gridfile>  (265) 
ATP-Grid

>  <s_lp_Force_Field>  (265) 
OPLS_2005

>  <s_lp_Variant>  (265) 
m_188690bcc____7326552____21807720-2

>  <s_lp_label>  (265) 
1252_sdstereoexpander_2_neutralizer_1_epik_1_stereoizer_1

>  <s_m_source_file>  (265) 
ATP-VSW-LIGPREP-002-in.maegz

>  <s_sd_BIOSOLVEIT.INFINISEE\_QUERY\_NAME>  (265) 
Ref-Lig

>  <s_sd_BIOSOLVEIT.INFINISEE\_QUERY\_SMILES>  (265) 
S(c1nc2c(cc1C[NH2+]Cc3ccc(cc3)C[NH+](C)C)cccc2)Cc4ccccc4

>  <s_sd_BIOSOLVEIT.INFINISEE\_REACTION\_NAME>  (265) 
m_188690bcc

>  <s_sd_BIOSOLVEIT.INFINISEE\_REAGENT1\_SMILES>  (265) 
[R1*]N(C(c1ccccc1)C(=O)O)C

>  <s_sd_BIOSOLVEIT.INFINISEE\_REAGENT2\_SMILES>  (265) 
[R1*]C(=O)c1c2c(nc(NCc3ccccc3)c1)cccc2

>  <s_sd_BIOSOLVEIT.INFINISEE\_SPACE>  (265) 
REALSpace_44bn_2023-08

>  <s_vsw_compound_code>  (265) 
40034

>  <s_vsw_variant>  (265) 
40034-2

>  <r_epik_Charging_Adjusted_Penalty>  (265) 
0.00013034101417020501

>  <r_epik_Ionization_Penalty>  (265) 
0.00029999999999999997

>  <r_epik_Ionization_Penalty_Charging>  (265) 
0.0001

>  <r_epik_Ionization_Penalty_Neutral>  (265) 
0.00020000000000000001

>  <r_epik_State_Penalty>  (265) 
-0

>  <r_i_docking_score>  (265) 
-2.9945143731800998

>  <r_i_glide_ecoul>  (265) 
-0.40574550628662098

>  <r_i_glide_eff_state_penalty>  (265) 
-0

>  <r_i_glide_einternal>  (265) 
2.5515601634979199

>  <r_i_glide_emodel>  (265) 
-39.352042658890497

>  <r_i_glide_energy>  (265) 
-33.851035118102999

>  <r_i_glide_erotb>  (265) 
0.66030942715420404

>  <r_i_glide_esite>  (265) 
0

>  <r_i_glide_evdw>  (265) 
-33.445289611816399

>  <r_i_glide_gscore>  (265) 
-2.9945143731800998

>  <r_i_glide_hbond>  (265) 
-0.0797038242881173

>  <r_i_glide_ligand_efficiency>  (265) 
-0.093578574161878106

>  <r_i_glide_ligand_efficiency_ln>  (265) 
-0.67055339553392102

>  <r_i_glide_ligand_efficiency_sa>  (265) 
-0.29709345378928298

>  <r_i_glide_lipo>  (265) 
-1.1257101924656401

>  <r_i_glide_metal>  (265) 
-0

>  <r_i_glide_rewards>  (265) 
-0.71628347704673101

>  <r_lp_Energy>  (265) 
35.111365999999997

>  <r_lp_tautomer_probability>  (265) 
1

>  <r_qp_ACxDN^.5/SA>  (265) 
0.0124517

>  <r_qp_CIQPlogS>  (265) 
-6.5309999999999997

>  <r_qp_EA(eV)>  (265) 
1.149

>  <r_qp_FISA>  (265) 
140.447

>  <r_qp_FOSA>  (265) 
61.192999999999998

>  <r_qp_IP(eV)>  (265) 
8.452

>  <r_qp_Jm>  (265) 
0.0095036571749404896

>  <r_qp_PISA>  (265) 
536.60500000000002

>  <r_qp_PSA>  (265) 
93.831999999999994

>  <r_qp_PercentHumanOralAbsorption>  (265) 
93.094999999999999

>  <r_qp_QPPCaco>  (265) 
116.852

>  <r_qp_QPPMDCK>  (265) 
61.804000000000002

>  <r_qp_QPlogBB>  (265) 
-1.3400000000000001

>  <r_qp_QPlogHERG>  (265) 
-5.5999999999999996

>  <r_qp_QPlogKhsa>  (265) 
0.47299999999999998

>  <r_qp_QPlogKp>  (265) 
-1.546

>  <r_qp_QPlogPC16>  (265) 
15.93

>  <r_qp_QPlogPo/w>  (265) 
4.9770000000000003

>  <r_qp_QPlogPoct>  (265) 
23.366

>  <r_qp_QPlogPw>  (265) 
13.888999999999999

>  <r_qp_QPlogS>  (265) 
-6.1050000000000004

>  <r_qp_QPpolrz>  (265) 
47.985999999999997

>  <r_qp_SASA>  (265) 
738.245

>  <r_qp_SAamideO>  (265) 
0

>  <r_qp_SAfluorine>  (265) 
0

>  <r_qp_WPSA>  (265) 
0

>  <r_qp_accptHB>  (265) 
6.5

>  <r_qp_dip^2/V>  (265) 
0.044325299999999998

>  <r_qp_dipole>  (265) 
7.6980000000000004

>  <r_qp_donorHB>  (265) 
2

>  <r_qp_glob>  (265) 
0.79506699999999997

>  <r_qp_mol_MW>  (265) 
425.48599999999999

>  <r_qp_volume>  (265) 
1337.085

>  <r_sd_BIOSOLVEIT.INFINISEE\_FTREES\_SIMILARITY>  (265) 
0.91100000000000003

>  <r_sd_BIOSOLVEIT.LOGP>  (265) 
3.4100999999999999

>  <r_sd_BIOSOLVEIT.MOLECULAR\_WEIGHT>  (265) 
424.47800000000001

>  <r_sd_BIOSOLVEIT.TPSA>  (265) 
85.359999999999999

>  <i_epik_Tot_Q>  (265) 
-1

>  <i_epik_Tot_abs_Q>  (265) 
1

>  <i_f3d_flags>  (265) 
0

>  <i_i_glide_confnum>  (265) 
3

>  <i_i_glide_lignum>  (265) 
431

>  <i_i_glide_posenum>  (265) 
1

>  <i_i_glide_rotatable_bonds>  (265) 
8

>  <i_lp_mmshare_version>  (265) 
65135

>  <i_m_ct_format>  (265) 
2

>  <i_m_source_file_index>  (265) 
1252

>  <i_qp_#NandO>  (265) 
6

>  <i_qp_#acid>  (265) 
1

>  <i_qp_#amide>  (265) 
0

>  <i_qp_#amidine>  (265) 
0

>  <i_qp_#amine>  (265) 
0

>  <i_qp_#in34>  (265) 
0

>  <i_qp_#in56>  (265) 
22

>  <i_qp_#metab>  (265) 
3

>  <i_qp_#nonHatm>  (265) 
32

>  <i_qp_#noncon>  (265) 
0

>  <i_qp_#ringatoms>  (265) 
22

>  <i_qp_#rotor>  (265) 
7

>  <i_qp_#rtvFG>  (265) 
0

>  <i_qp_#stars>  (265) 
1

>  <i_qp_CNS>  (265) 
-2

>  <i_qp_HumanOralAbsorption>  (265) 
3

>  <i_qp_RuleOfFive>  (265) 
0

>  <i_qp_RuleOfThree>  (265) 
1

>  <i_sd_BIOSOLVEIT.INFINISEE\_REAGENT1\_NAME>  (265) 
7326552

>  <i_sd_BIOSOLVEIT.INFINISEE\_REAGENT2\_NAME>  (265) 
21807720

>  <i_sd_BIOSOLVEIT.INFINISEE\_RESULT\_RANK>  (265) 
43545

>  <i_sd_version>  (265) 
0

>  <b_lp_Chiralities_Consistent>  (265) 
1

>  <b_sd_chiral_flag>  (265) 
0

>  <canonical_id>  (265) 
ATP-HTVS-2B2381835080

>  <compound_code>  (265) 
40034

>  <title>  (265) 
m_188690bcc____7326552____21807720

>  <variant>  (265) 
40034-2

>  <source_file>  (265) 
运行/运行/ATP-VSW/ATP-VSW-DOCK_HTVS_1-002_lib.maegz

>  <canonical_smiles>  (265) 
CN(C(=O)c1cc(NCc2ccccc2)nc2ccccc12)[C@H](C(=O)[O-])c1ccccc1

>  <scaffold>  (265) 
O=C(NCc1ccccc1)c1cc(NCc2ccccc2)nc2ccccc12

>  <molecular_formula>  (265) 
C26H22N3O3-

$$$$
ATP-HTVS-2B54247B4108
     RDKit          3D

 64 67  0  0  0  0  0  0  0  0999 V2000
  195.9623  180.3204  150.5033 F   0  0  0  0  0  0  0  0  0  0  0  0
  196.4813  180.5712  151.7300 C   0  0  0  0  0  0  0  0  0  0  0  0
  196.7100  181.8927  152.1700 C   0  0  0  0  0  0  0  0  0  0  0  0
  196.3305  182.9782  151.2498 C   0  0  0  0  0  0  0  0  0  0  0  0
  196.0521  183.8216  150.5386 N   0  0  0  0  0  0  0  0  0  0  0  0
  197.2435  182.1316  153.4661 C   0  0  0  0  0  0  0  0  0  0  0  0
  197.5425  181.0179  154.2943 C   0  0  0  0  0  0  0  0  0  0  0  0
  197.3143  179.7065  153.8483 C   0  0  0  0  0  0  0  0  0  0  0  0
  196.7846  179.4812  152.5684 C   0  0  0  0  0  0  0  0  0  0  0  0
  197.5482  183.5155  153.9981 C   0  0  0  0  0  0  0  0  0  0  0  0
  198.0276  184.3768  153.2572 O   0  0  0  0  0  0  0  0  0  0  0  0
  197.2474  183.6951  155.2905 N   0  0  0  0  0  0  0  0  0  0  0  0
  197.3455  184.8758  156.0999 C   0  0  0  0  0  0  0  0  0  0  0  0
  197.7885  186.0386  155.5710 N   0  0  0  0  0  0  0  0  0  0  0  0
  197.7837  187.1594  156.3669 C   0  0  0  0  0  0  0  0  0  0  0  0
  197.4458  187.1466  157.6994 C   0  0  0  0  0  0  0  0  0  0  0  0
  197.6960  188.2905  158.5423 N   0  0  0  0  0  0  0  0  0  0  0  0
  199.0323  188.5426  159.0880 C   0  0  1  0  0  0  0  0  0  0  0  0
  200.1463  187.4689  159.0425 C   0  0  0  0  0  0  0  0  0  0  0  0
  201.1792  187.4788  160.0199 C   0  0  0  0  0  0  0  0  0  0  0  0
  202.2196  186.5084  159.9384 C   0  0  0  0  0  0  0  0  0  0  0  0
  202.1965  185.5131  158.9239 C   0  0  0  0  0  0  0  0  0  0  0  0
  201.2268  185.5798  157.9355 C   0  0  0  0  0  0  0  0  0  0  0  0
  200.2305  186.5278  158.0190 C   0  0  0  0  0  0  0  0  0  0  0  0
  203.1539  184.3228  158.9238 C   0  0  1  0  0  0  0  0  0  0  0  0
  202.9143  183.3629  160.0025 N   0  0  0  0  0  0  0  0  0  0  0  0
  201.6508  182.6066  159.8680 C   0  0  1  0  0  0  0  0  0  0  0  0
  200.3645  183.4639  160.0737 C   0  0  2  0  0  0  0  0  0  0  0  0
  203.0854  183.9477  161.3354 C   0  0  1  0  0  0  0  0  0  0  0  0
  203.1727  182.9050  162.4532 C   0  0  2  0  0  0  0  0  0  0  0  0
  196.9552  185.9342  158.2771 C   0  0  0  0  0  0  0  0  0  0  0  0
  196.8978  184.7775  157.4231 C   0  0  0  0  0  0  0  0  0  0  0  0
  196.3631  183.5775  157.9778 C   0  0  0  0  0  0  0  0  0  0  0  0
  195.9124  183.5305  159.3023 C   0  0  0  0  0  0  0  0  0  0  0  0
  196.0412  184.6573  160.1216 C   0  0  0  0  0  0  0  0  0  0  0  0
  196.5872  185.8507  159.6037 C   0  0  0  0  0  0  0  0  0  0  0  0
  197.9633  181.1564  155.2794 H   0  0  0  0  0  0  0  0  0  0  0  0
  197.5464  178.8724  154.4958 H   0  0  0  0  0  0  0  0  0  0  0  0
  196.6078  178.4725  152.2254 H   0  0  0  0  0  0  0  0  0  0  0  0
  198.3726  187.9683  155.9344 H   0  0  0  0  0  0  0  0  0  0  0  0
  197.1499  189.1082  158.3306 H   0  0  0  0  0  0  0  0  0  0  0  0
  199.4420  189.4171  158.5765 H   0  0  0  0  0  0  0  0  0  0  0  0
  198.9158  188.8963  160.1194 H   0  0  0  0  0  0  0  0  0  0  0  0
  201.2055  188.2283  160.8443 H   0  0  0  0  0  0  0  0  0  0  0  0
  202.9303  186.4486  160.7182 H   0  0  0  0  0  0  0  0  0  0  0  0
  201.0607  184.7946  157.2025 H   0  0  0  0  0  0  0  0  0  0  0  0
  199.5293  186.3027  157.3197 H   0  0  0  0  0  0  0  0  0  0  0  0
  203.0520  183.8152  157.9560 H   0  0  0  0  0  0  0  0  0  0  0  0
  204.1378  184.7701  158.9731 H   0  0  0  0  0  0  0  0  0  0  0  0
  201.6457  182.0863  158.8978 H   0  0  0  0  0  0  0  0  0  0  0  0
  201.6287  181.7857  160.6113 H   0  0  0  0  0  0  0  0  0  0  0  0
  199.4508  182.8701  160.0389 H   0  0  0  0  0  0  0  0  0  0  0  0
  200.2038  184.1113  159.2799 H   0  0  0  0  0  0  0  0  0  0  0  0
  200.4079  184.0702  160.9876 H   0  0  0  0  0  0  0  0  0  0  0  0
  203.9596  184.6010  161.3600 H   0  0  0  0  0  0  0  0  0  0  0  0
  202.2478  184.5893  161.5782 H   0  0  0  0  0  0  0  0  0  0  0  0
  203.1634  183.4077  163.4223 H   0  0  0  0  0  0  0  0  0  0  0  0
  204.0793  182.3057  162.3621 H   0  0  0  0  0  0  0  0  0  0  0  0
  202.3130  182.2367  162.4686 H   0  0  0  0  0  0  0  0  0  0  0  0
  196.2318  182.6891  157.3798 H   0  0  0  0  0  0  0  0  0  0  0  0
  195.4686  182.6201  159.6932 H   0  0  0  0  0  0  0  0  0  0  0  0
  195.6939  184.6192  161.1490 H   0  0  0  0  0  0  0  0  0  0  0  0
  196.6815  186.7004  160.2731 H   0  0  0  0  0  0  0  0  0  0  0  0
  196.8272  182.8988  155.7479 H   0  0  0  0  0  0  0  0  0  0  0  0
  1  2  1  0
  2  3  2  0
  2  9  1  0
  3  4  1  0
  3  6  1  0
  4  5  3  0
  6  7  2  0
  6 10  1  0
  7  8  1  0
  7 37  1  0
  8  9  2  0
  8 38  1  0
  9 39  1  0
 10 11  2  0
 10 12  1  0
 12 13  1  0
 12 64  1  0
 13 14  1  0
 13 32  2  0
 14 15  2  0
 15 16  1  0
 15 40  1  0
 16 17  1  0
 16 31  2  0
 17 18  1  0
 17 41  1  0
 18 19  1  0
 18 42  1  6
 18 43  1  0
 19 20  1  0
 19 24  2  0
 20 21  2  0
 20 44  1  0
 21 22  1  0
 21 45  1  0
 22 23  2  0
 22 25  1  0
 23 24  1  0
 23 46  1  0
 24 47  1  0
 25 26  1  0
 25 48  1  6
 25 49  1  0
 26 27  1  0
 26 29  1  0
 27 28  1  0
 27 50  1  6
 27 51  1  0
 28 52  1  1
 28 53  1  0
 28 54  1  0
 29 30  1  0
 29 55  1  6
 29 56  1  0
 30 57  1  1
 30 58  1  0
 30 59  1  0
 31 32  1  0
 31 36  1  0
 32 33  1  0
 33 34  2  0
 33 60  1  0
 34 35  1  0
 34 61  1  0
 35 36  2  0
 35 62  1  0
 36 63  1  0
M  END
>  <s_epik_cmdline>  (266) 
J2VwaWtfcHl0aG9uJywgJy1waCcsICc3LjAwMDAwMCcsICctcGh0JywgJzIuMDAwMDAwJywgJy1tcycsICcxNicsICctdG4nLCAnOCcsICctbWEnLCAnMjAwJywgJy1pbWFlJywgJzxpbmZpbGUubWFlPicsICctb21hZScsICc8b3V0ZmlsZS5tYWU+Jw==

>  <s_epik_input>  (266) 
RmMxYyhDI04pYyhbY0hdW2NIXVtjSF0xKUMoPU8pW05IXWMoYyhjMjMpW2NIXVtjSF1bY0hdW2NIXTMpbltjSF1jMltOSF1bQ0gyXWM0W2NIXVtjSF1jKFtjSF1bY0hdNClbQ0gyXU4oW0NIMl1bQ0gzXSlbQ0gyXVtDSDNd

>  <s_i_glide_gridfile>  (266) 
ATP-Grid

>  <s_lp_Force_Field>  (266) 
OPLS_2005

>  <s_lp_Variant>  (266) 
rxn502b____EMOL44385606____EMOL7515103____EMOL2868412-1

>  <s_lp_label>  (266) 
2631_sdstereoexpander_1_neutralizer_1_epik_1_stereoizer_1

>  <s_m_source_file>  (266) 
ATP-VSW-LIGPREP-001-in.maegz

>  <s_sd_BIOSOLVEIT.INFINISEE\_QUERY\_NAME>  (266) 
Ref-Lig

>  <s_sd_BIOSOLVEIT.INFINISEE\_QUERY\_SMILES>  (266) 
S(c1nc2c(cc1C[NH2+]Cc3ccc(cc3)C[NH+](C)C)cccc2)Cc4ccccc4

>  <s_sd_BIOSOLVEIT.INFINISEE\_REACTION\_NAME>  (266) 
rxn502b

>  <s_sd_BIOSOLVEIT.INFINISEE\_REAGENT1\_NAME>  (266) 
EMOL44385606

>  <s_sd_BIOSOLVEIT.INFINISEE\_REAGENT1\_SMILES>  (266) 
Fc1c(C#N)c(ccc1)C(=O)O

>  <s_sd_BIOSOLVEIT.INFINISEE\_REAGENT2\_NAME>  (266) 
EMOL7515103

>  <s_sd_BIOSOLVEIT.INFINISEE\_REAGENT2\_SMILES>  (266) 
Brc1c2c(c(nc1)N)cccc2

>  <s_sd_BIOSOLVEIT.INFINISEE\_REAGENT3\_NAME>  (266) 
EMOL2868412

>  <s_sd_BIOSOLVEIT.INFINISEE\_REAGENT3\_SMILES>  (266) 
N(Cc1ccc(cc1)CN)(CC)CC

>  <s_sd_BIOSOLVEIT.INFINISEE\_SPACE>  (266) 
eXplore_7tr_2022-12

>  <s_vsw_compound_code>  (266) 
84161

>  <s_vsw_variant>  (266) 
84161-1

>  <r_epik_Charging_Adjusted_Penalty>  (266) 
0.0067979648544485996

>  <r_epik_Ionization_Penalty>  (266) 
2.1530999999999998

>  <r_epik_Ionization_Penalty_Charging>  (266) 
0

>  <r_epik_Ionization_Penalty_Neutral>  (266) 
2.1530999999999998

>  <r_epik_State_Penalty>  (266) 
0.0067999999999999996

>  <r_i_docking_score>  (266) 
-3.7551275100134398

>  <r_i_glide_ecoul>  (266) 
-2.8113498687744101

>  <r_i_glide_eff_state_penalty>  (266) 
0.0067999999999999996

>  <r_i_glide_einternal>  (266) 
10.8192291259766

>  <r_i_glide_emodel>  (266) 
-46.914762918847003

>  <r_i_glide_energy>  (266) 
-41.614892959594698

>  <r_i_glide_erotb>  (266) 
0.69984952176722104

>  <r_i_glide_esite>  (266) 
-0.040563480612803203

>  <r_i_glide_evdw>  (266) 
-38.803543090820298

>  <r_i_glide_gscore>  (266) 
-3.7619275100134399

>  <r_i_glide_hbond>  (266) 
0

>  <r_i_glide_ligand_efficiency>  (266) 
-0.104309097500373

>  <r_i_glide_ligand_efficiency_ln>  (266) 
-0.81926737086381496

>  <r_i_glide_ligand_efficiency_sa>  (266) 
-0.344421050932676

>  <r_i_glide_lipo>  (266) 
-1.69024400840452

>  <r_i_glide_metal>  (266) 
-0

>  <r_i_glide_rewards>  (266) 
-0.36908990790615898

>  <r_lp_Energy>  (266) 
39.881109000000002

>  <r_qp_ACxDN^.5/SA>  (266) 
0.0132412

>  <r_qp_CIQPlogS>  (266) 
-7.024

>  <r_qp_EA(eV)>  (266) 
1.1180000000000001

>  <r_qp_FISA>  (266) 
128.809

>  <r_qp_FOSA>  (266) 
276.60899999999998

>  <r_qp_IP(eV)>  (266) 
7.9489999999999998

>  <r_qp_Jm>  (266) 
1.1347222939094299e-05

>  <r_qp_PISA>  (266) 
408.30799999999999

>  <r_qp_PSA>  (266) 
85.388999999999996

>  <r_qp_PercentHumanOralAbsorption>  (266) 
93.617000000000004

>  <r_qp_QPPCaco>  (266) 
148.35599999999999

>  <r_qp_QPPMDCK>  (266) 
116.274

>  <r_qp_QPlogBB>  (266) 
-1.028

>  <r_qp_QPlogHERG>  (266) 
-8.0909999999999993

>  <r_qp_QPlogKhsa>  (266) 
0.77400000000000002

>  <r_qp_QPlogKp>  (266) 
-3.5579999999999998

>  <r_qp_QPlogPC16>  (266) 
16.923999999999999

>  <r_qp_QPlogPo/w>  (266) 
4.7489999999999997

>  <r_qp_QPlogPoct>  (266) 
26.390999999999998

>  <r_qp_QPlogPw>  (266) 
14.045999999999999

>  <r_qp_QPlogS>  (266) 
-7.0700000000000003

>  <r_qp_QPpolrz>  (266) 
53.573999999999998

>  <r_qp_SASA>  (266) 
854.42999999999995

>  <r_qp_SAamideO>  (266) 
0

>  <r_qp_SAfluorine>  (266) 
40.704000000000001

>  <r_qp_WPSA>  (266) 
40.704000000000001

>  <r_qp_accptHB>  (266) 
8

>  <r_qp_dip^2/V>  (266) 
0.082855799999999993

>  <r_qp_dipole>  (266) 
11.353

>  <r_qp_donorHB>  (266) 
2

>  <r_qp_glob>  (266) 
0.75985159999999996

>  <r_qp_mol_MW>  (266) 
481.57100000000003

>  <r_qp_volume>  (266) 
1555.4649999999999

>  <r_sd_BIOSOLVEIT.INFINISEE\_FTREES\_SIMILARITY>  (266) 
0.91000000000000003

>  <r_sd_BIOSOLVEIT.LOGP>  (266) 
4.5346799999999998

>  <r_sd_BIOSOLVEIT.MOLECULAR\_WEIGHT>  (266) 
482.57999999999998

>  <r_sd_BIOSOLVEIT.TPSA>  (266) 
82.25

>  <i_epik_Tot_Q>  (266) 
0

>  <i_epik_Tot_abs_Q>  (266) 
0

>  <i_f3d_flags>  (266) 
0

>  <i_i_glide_confnum>  (266) 
2

>  <i_i_glide_lignum>  (266) 
1125

>  <i_i_glide_posenum>  (266) 
4

>  <i_i_glide_rotatable_bonds>  (266) 
10

>  <i_lp_mmshare_version>  (266) 
65135

>  <i_m_ct_format>  (266) 
2

>  <i_m_source_file_index>  (266) 
2631

>  <i_qp_#NandO>  (266) 
6

>  <i_qp_#acid>  (266) 
0

>  <i_qp_#amide>  (266) 
0

>  <i_qp_#amidine>  (266) 
0

>  <i_qp_#amine>  (266) 
1

>  <i_qp_#in34>  (266) 
0

>  <i_qp_#in56>  (266) 
22

>  <i_qp_#metab>  (266) 
7

>  <i_qp_#nonHatm>  (266) 
36

>  <i_qp_#noncon>  (266) 
0

>  <i_qp_#ringatoms>  (266) 
22

>  <i_qp_#rotor>  (266) 
10

>  <i_qp_#rtvFG>  (266) 
0

>  <i_qp_#stars>  (266) 
1

>  <i_qp_CNS>  (266) 
-2

>  <i_qp_HumanOralAbsorption>  (266) 
1

>  <i_qp_RuleOfFive>  (266) 
0

>  <i_qp_RuleOfThree>  (266) 
2

>  <i_sd_BIOSOLVEIT.INFINISEE\_RESULT\_RANK>  (266) 
44370

>  <i_sd_version>  (266) 
0

>  <b_lp_Chiralities_Consistent>  (266) 
1

>  <b_sd_chiral_flag>  (266) 
0

>  <canonical_id>  (266) 
ATP-HTVS-2B54247B4108

>  <compound_code>  (266) 
84161

>  <title>  (266) 
rxn502b____EMOL44385606____EMOL7515103____EMOL2868412

>  <variant>  (266) 
84161-1

>  <source_file>  (266) 
运行/运行/ATP-VSW/ATP-VSW-DOCK_HTVS_1-001_lib/ATP-VSW-DOCK_HTVS_1-001_lib

>  <canonical_smiles>  (266) 
CCN(CC)Cc1ccc(CNc2cnc(NC(=O)c3cccc(F)c3C#N)c3ccccc23)cc1

>  <scaffold>  (266) 
O=C(Nc1ncc(NCc2ccccc2)c2ccccc12)c1ccccc1

>  <molecular_formula>  (266) 
C29H28FN5O

$$$$
ATP-HTVS-2B683AA1DF30
     RDKit          3D

 53 55  0  0  0  0  0  0  0  0999 V2000
  203.4964  181.6677  160.9268 S   0  0  0  0  0  0  0  0  0  0  0  0
  202.3231  182.9426  160.8512 C   0  0  0  0  0  0  0  0  0  0  0  0
  201.7851  183.0691  159.5942 C   0  0  0  0  0  0  0  0  0  0  0  0
  200.7939  184.0320  159.2978 N   0  0  0  0  0  0  0  0  0  0  0  0
  199.6752  183.6938  158.4422 C   0  0  1  0  0  0  0  0  0  0  0  0
  198.4729  184.5530  158.6886 C   0  0  0  0  0  0  0  0  0  0  0  0
  197.2889  183.9188  159.0704 C   0  0  0  0  0  0  0  0  0  0  0  0
  196.0517  184.5948  159.0135 C   0  0  0  0  0  0  0  0  0  0  0  0
  196.0575  185.9874  158.8100 C   0  0  0  0  0  0  0  0  0  0  0  0
  197.2840  186.6599  158.5802 C   0  0  0  0  0  0  0  0  0  0  0  0
  198.4875  185.9307  158.4565 C   0  0  0  0  0  0  0  0  0  0  0  0
  194.7413  183.8052  159.1611 C   0  0  1  0  0  0  0  0  0  0  0  0
  194.5257  182.7393  158.1305 N   0  0  1  0  0  0  0  0  0  0  0  0
  195.5831  181.7365  158.0002 C   0  0  2  0  0  0  0  0  0  0  0  0
  193.2190  182.0665  158.2459 C   0  0  2  0  0  0  0  0  0  0  0  0
  202.3415  182.1323  158.6413 C   0  0  0  0  0  0  0  0  0  0  0  0
  202.0815  182.0366  157.1668 C   0  0  0  0  0  0  0  0  0  0  0  0
  201.8726  183.0152  156.4470 O   0  0  0  0  0  0  0  0  0  0  0  0
  202.0766  180.7958  156.6770 N   0  0  0  0  0  0  0  0  0  0  0  0
  201.7686  180.4925  155.2834 C   0  0  1  0  0  0  0  0  0  0  0  0
  200.2787  180.3228  155.0264 C   0  0  0  0  0  0  0  0  0  0  0  0
  199.5861  179.2307  155.5924 C   0  0  0  0  0  0  0  0  0  0  0  0
  200.2449  178.3387  156.3705 F   0  0  0  0  0  0  0  0  0  0  0  0
  198.2127  179.0566  155.3346 C   0  0  0  0  0  0  0  0  0  0  0  0
  197.5215  179.9719  154.5180 C   0  0  0  0  0  0  0  0  0  0  0  0
  198.2068  181.0668  153.9579 C   0  0  0  0  0  0  0  0  0  0  0  0
  199.5817  181.2436  154.2128 C   0  0  0  0  0  0  0  0  0  0  0  0
  203.2606  181.2992  159.2410 C   0  0  0  0  0  0  0  0  0  0  0  0
  202.0982  183.5067  161.7463 H   0  0  0  0  0  0  0  0  0  0  0  0
  200.5772  184.7215  160.0061 H   0  0  0  0  0  0  0  0  0  0  0  0
  199.8782  183.8789  157.3960 H   0  0  0  0  0  0  0  0  0  0  0  0
  199.4574  182.6242  158.5248 H   0  0  0  0  0  0  0  0  0  0  0  0
  197.3935  182.8725  159.3176 H   0  0  0  0  0  0  0  0  0  0  0  0
  195.1442  186.5543  158.8748 H   0  0  0  0  0  0  0  0  0  0  0  0
  197.3079  187.7349  158.4912 H   0  0  0  0  0  0  0  0  0  0  0  0
  199.4312  186.4248  158.2339 H   0  0  0  0  0  0  0  0  0  0  0  0
  194.7224  183.3779  160.1747 H   0  0  0  0  0  0  0  0  0  0  0  0
  193.8976  184.5208  159.1210 H   0  0  0  0  0  0  0  0  0  0  0  0
  195.7905  181.2596  158.9664 H   0  0  0  0  0  0  0  0  0  0  0  0
  196.4769  182.1393  157.5442 H   0  0  0  0  0  0  0  0  0  0  0  0
  195.3435  181.0651  157.2283 H   0  0  0  0  0  0  0  0  0  0  0  0
  193.1470  181.5304  159.2012 H   0  0  0  0  0  0  0  0  0  0  0  0
  193.1232  181.3165  157.4621 H   0  0  0  0  0  0  0  0  0  0  0  0
  192.3875  182.7764  158.1355 H   0  0  0  0  0  0  0  0  0  0  0  0
  202.3570  180.0361  157.2892 H   0  0  0  0  0  0  0  0  0  0  0  0
  202.1859  181.2586  154.6246 H   0  0  0  0  0  0  0  0  0  0  0  0
  202.2831  179.5665  155.0363 H   0  0  0  0  0  0  0  0  0  0  0  0
  197.6854  178.2192  155.7668 H   0  0  0  0  0  0  0  0  0  0  0  0
  196.4670  179.8345  154.3269 H   0  0  0  0  0  0  0  0  0  0  0  0
  197.6754  181.7716  153.3352 H   0  0  0  0  0  0  0  0  0  0  0  0
  200.0975  182.0876  153.7779 H   0  0  0  0  0  0  0  0  0  0  0  0
  203.8450  180.5157  158.7822 H   0  0  0  0  0  0  0  0  0  0  0  0
  194.4765  183.1913  157.2313 H   0  0  0  0  0  0  0  0  0  0  0  0
  1  2  1  0
  1 28  1  0
  2  3  2  0
  2 29  1  0
  3  4  1  0
  3 16  1  0
  4  5  1  0
  4 30  1  0
  5  6  1  0
  5 31  1  6
  5 32  1  0
  6  7  2  0
  6 11  1  0
  7  8  1  0
  7 33  1  0
  8  9  2  0
  8 12  1  0
  9 10  1  0
  9 34  1  0
 10 11  2  0
 10 35  1  0
 11 36  1  0
 12 13  1  0
 12 37  1  1
 12 38  1  0
 13 14  1  0
 13 15  1  0
 13 53  1  6
 14 39  1  1
 14 40  1  0
 14 41  1  0
 15 42  1  1
 15 43  1  0
 15 44  1  0
 16 17  1  0
 16 28  2  0
 17 18  2  0
 17 19  1  0
 19 20  1  0
 19 45  1  0
 20 21  1  0
 20 46  1  6
 20 47  1  0
 21 22  1  0
 21 27  2  0
 22 23  1  0
 22 24  2  0
 24 25  1  0
 24 48  1  0
 25 26  2  0
 25 49  1  0
 26 27  1  0
 26 50  1  0
 27 51  1  0
 28 52  1  0
M  CHG  1  13   1
M  END
>  <s_epik_cmdline>  (267) 
J2VwaWtfcHl0aG9uJywgJy1waCcsICc3LjAwMDAwMCcsICctcGh0JywgJzIuMDAwMDAwJywgJy1tcycsICcxNicsICctdG4nLCAnOCcsICctbWEnLCAnMjAwJywgJy1pbWFlJywgJzxpbmZpbGUubWFlPicsICctb21hZScsICc8b3V0ZmlsZS5tYWU+Jw==

>  <s_epik_input>  (267) 
W2NIXTFbY0hdW2NIXWMoW0NIMl1OKFtDSDNdKVtDSDNdKVtjSF1jMVtDSDJdW05IXWMyW2NIXXNbY0hdYzJDKD1PKVtOSF1bQ0gyXWMzYyhGKVtjSF1bY0hdW2NIXVtjSF0z

>  <s_i_glide_gridfile>  (267) 
ATP-Grid

>  <s_lp_Force_Field>  (267) 
OPLS_2005

>  <s_lp_Variant>  (267) 
rxn512b____EMOL484455____EMOL10439745____EMOL2873214-1

>  <s_lp_label>  (267) 
2798_sdstereoexpander_1_neutralizer_1_epik_1_stereoizer_1

>  <s_m_source_file>  (267) 
ATP-VSW-LIGPREP-003-in.maegz

>  <s_sd_BIOSOLVEIT.INFINISEE\_QUERY\_NAME>  (267) 
Ref-Lig

>  <s_sd_BIOSOLVEIT.INFINISEE\_QUERY\_SMILES>  (267) 
S(c1nc2c(cc1C[NH2+]Cc3ccc(cc3)C[NH+](C)C)cccc2)Cc4ccccc4

>  <s_sd_BIOSOLVEIT.INFINISEE\_REACTION\_NAME>  (267) 
rxn512b

>  <s_sd_BIOSOLVEIT.INFINISEE\_REAGENT1\_NAME>  (267) 
EMOL484455

>  <s_sd_BIOSOLVEIT.INFINISEE\_REAGENT1\_SMILES>  (267) 
Fc1c(cccc1)CN

>  <s_sd_BIOSOLVEIT.INFINISEE\_REAGENT2\_NAME>  (267) 
EMOL10439745

>  <s_sd_BIOSOLVEIT.INFINISEE\_REAGENT2\_SMILES>  (267) 
BrC=1C(C(=O)O)=CSC1

>  <s_sd_BIOSOLVEIT.INFINISEE\_REAGENT3\_NAME>  (267) 
EMOL2873214

>  <s_sd_BIOSOLVEIT.INFINISEE\_REAGENT3\_SMILES>  (267) 
N(Cc1cc(ccc1)CN)(C)C

>  <s_sd_BIOSOLVEIT.INFINISEE\_SPACE>  (267) 
eXplore_7tr_2022-12

>  <s_vsw_compound_code>  (267) 
89507

>  <s_vsw_variant>  (267) 
89507-1

>  <r_epik_Charging_Adjusted_Penalty>  (267) 
0.086140609825027206

>  <r_epik_Ionization_Penalty>  (267) 
0.043099999999999999

>  <r_epik_Ionization_Penalty_Charging>  (267) 
0.043099999999999999

>  <r_epik_Ionization_Penalty_Neutral>  (267) 
0

>  <r_epik_State_Penalty>  (267) 
0.043099999999999999

>  <r_i_docking_score>  (267) 
-4.4835130392330198

>  <r_i_glide_ecoul>  (267) 
-9.5053300857543892

>  <r_i_glide_eff_state_penalty>  (267) 
0.043099999999999999

>  <r_i_glide_einternal>  (267) 
5.3628497123718297

>  <r_i_glide_emodel>  (267) 
-51.518808150500703

>  <r_i_glide_energy>  (267) 
-38.188971519470201

>  <r_i_glide_erotb>  (267) 
0.86324828570185497

>  <r_i_glide_esite>  (267) 
-0.14435470033980699

>  <r_i_glide_evdw>  (267) 
-28.683641433715799

>  <r_i_glide_gscore>  (267) 
-4.5266130392330197

>  <r_i_glide_hbond>  (267) 
-0.145373138426761

>  <r_i_glide_ligand_efficiency>  (267) 
-0.16012546568689401

>  <r_i_glide_ligand_efficiency_ln>  (267) 
-1.0349264511180001

>  <r_i_glide_ligand_efficiency_sa>  (267) 
-0.48623522268119701

>  <r_i_glide_lipo>  (267) 
-1.54642722031916

>  <r_i_glide_metal>  (267) 
-0

>  <r_i_glide_rewards>  (267) 
-0.69372468130019405

>  <r_lp_Energy>  (267) 
14.997477999999999

>  <r_lp_tautomer_probability>  (267) 
0.99999274205267796

>  <r_qp_ACxDN^.5/SA>  (267) 
0.0067058999999999999

>  <r_qp_CIQPlogS>  (267) 
-4.4219999999999997

>  <r_qp_EA(eV)>  (267) 
0.45300000000000001

>  <r_qp_FISA>  (267) 
27.645

>  <r_qp_FOSA>  (267) 
227.45099999999999

>  <r_qp_IP(eV)>  (267) 
8.3520000000000003

>  <r_qp_Jm>  (267) 
0.0074710743367142904

>  <r_qp_PISA>  (267) 
327.10500000000002

>  <r_qp_PSA>  (267) 
52.015999999999998

>  <r_qp_PercentHumanOralAbsorption>  (267) 
100

>  <r_qp_QPPCaco>  (267) 
336.93299999999999

>  <r_qp_QPPMDCK>  (267) 
573.04499999999996

>  <r_qp_QPlogBB>  (267) 
0.83299999999999996

>  <r_qp_QPlogHERG>  (267) 
-7.1920000000000002

>  <r_qp_QPlogKhsa>  (267) 
0.81000000000000005

>  <r_qp_QPlogKp>  (267) 
-4.234

>  <r_qp_QPlogPC16>  (267) 
12.664999999999999

>  <r_qp_QPlogPo/w>  (267) 
4.734

>  <r_qp_QPlogPoct>  (267) 
17.951000000000001

>  <r_qp_QPlogPw>  (267) 
7.9109999999999996

>  <r_qp_QPlogS>  (267) 
-3.492

>  <r_qp_QPpolrz>  (267) 
41.868000000000002

>  <r_qp_SASA>  (267) 
671.05600000000004

>  <r_qp_SAamideO>  (267) 
0

>  <r_qp_SAfluorine>  (267) 
37.984000000000002

>  <r_qp_WPSA>  (267) 
88.855000000000004

>  <r_qp_accptHB>  (267) 
4.5

>  <r_qp_dip^2/V>  (267) 
0.0156151

>  <r_qp_dipole>  (267) 
4.4180000000000001

>  <r_qp_donorHB>  (267) 
1

>  <r_qp_glob>  (267) 
0.83637930000000005

>  <r_qp_mol_MW>  (267) 
397.50900000000001

>  <r_qp_volume>  (267) 
1250.2449999999999

>  <r_sd_BIOSOLVEIT.INFINISEE\_FTREES\_SIMILARITY>  (267) 
0.90600000000000003

>  <r_sd_BIOSOLVEIT.LOGP>  (267) 
3.0737999999999999

>  <r_sd_BIOSOLVEIT.MOLECULAR\_WEIGHT>  (267) 
398.52300000000002

>  <r_sd_BIOSOLVEIT.TPSA>  (267) 
45.57

>  <i_epik_Tot_Q>  (267) 
1

>  <i_epik_Tot_abs_Q>  (267) 
1

>  <i_f3d_flags>  (267) 
0

>  <i_i_glide_confnum>  (267) 
3

>  <i_i_glide_lignum>  (267) 
1330

>  <i_i_glide_posenum>  (267) 
9

>  <i_i_glide_rotatable_bonds>  (267) 
9

>  <i_lp_mmshare_version>  (267) 
65135

>  <i_m_ct_format>  (267) 
2

>  <i_m_source_file_index>  (267) 
2798

>  <i_qp_#NandO>  (267) 
4

>  <i_qp_#acid>  (267) 
0

>  <i_qp_#amide>  (267) 
0

>  <i_qp_#amidine>  (267) 
0

>  <i_qp_#amine>  (267) 
2

>  <i_qp_#in34>  (267) 
0

>  <i_qp_#in56>  (267) 
17

>  <i_qp_#metab>  (267) 
6

>  <i_qp_#nonHatm>  (267) 
28

>  <i_qp_#noncon>  (267) 
0

>  <i_qp_#ringatoms>  (267) 
17

>  <i_qp_#rotor>  (267) 
8

>  <i_qp_#rtvFG>  (267) 
0

>  <i_qp_#stars>  (267) 
0

>  <i_qp_CNS>  (267) 
2

>  <i_qp_HumanOralAbsorption>  (267) 
3

>  <i_qp_RuleOfFive>  (267) 
0

>  <i_qp_RuleOfThree>  (267) 
0

>  <i_sd_BIOSOLVEIT.INFINISEE\_RESULT\_RANK>  (267) 
63564

>  <i_sd_version>  (267) 
0

>  <b_lp_Chiralities_Consistent>  (267) 
1

>  <b_sd_chiral_flag>  (267) 
0

>  <canonical_id>  (267) 
ATP-HTVS-2B683AA1DF30

>  <compound_code>  (267) 
89507

>  <title>  (267) 
rxn512b____EMOL484455____EMOL10439745____EMOL2873214

>  <variant>  (267) 
89507-1

>  <source_file>  (267) 
运行/运行/ATP-VSW/ATP-VSW-DOCK_HTVS_1-003_lib/ATP-VSW-DOCK_HTVS_1-003_lib.mae

>  <canonical_smiles>  (267) 
C[NH+](C)Cc1cccc(CNc2cscc2C(=O)NCc2ccccc2F)c1

>  <scaffold>  (267) 
O=C(NCc1ccccc1)c1cscc1NCc1ccccc1

>  <molecular_formula>  (267) 
C22H25FN3OS+

$$$$
ATP-HTVS-2B725536FCE2
     RDKit          3D

 58 61  0  0  0  0  0  0  0  0999 V2000
  202.0111  180.1286  156.3853 F   0  0  0  0  0  0  0  0  0  0  0  0
  201.6520  181.1610  157.1911 C   0  0  0  0  0  0  0  0  0  0  0  0
  200.7692  182.1497  156.6991 C   0  0  0  0  0  0  0  0  0  0  0  0
  200.2941  183.2134  157.5272 C   0  0  0  0  0  0  0  0  0  0  0  0
  200.8016  183.2863  158.8565 C   0  0  0  0  0  0  0  0  0  0  0  0
  200.4611  184.2969  159.6749 N   0  0  0  0  0  0  0  0  0  0  0  0
  199.5940  185.2366  159.2696 C   0  0  0  0  0  0  0  0  0  0  0  0
  198.9487  185.2180  158.0269 C   0  0  0  0  0  0  0  0  0  0  0  0
  199.3340  184.1925  157.0872 C   0  0  0  0  0  0  0  0  0  0  0  0
  198.7541  184.0996  155.8013 N   0  0  0  0  0  0  0  0  0  0  0  0
  198.0496  182.9848  155.2482 C   0  0  0  0  0  0  0  0  0  0  0  0
  197.5961  182.9915  153.9098 C   0  0  0  0  0  0  0  0  0  0  0  0
  196.9507  181.8640  153.3295 C   0  0  0  0  0  0  0  0  0  0  0  0
  196.5364  181.8600  151.9897 N   0  0  0  0  0  0  0  0  0  0  0  0
  196.4212  183.1401  151.3020 C   0  0  2  0  0  0  0  0  0  0  0  0
  196.7435  180.7030  154.1013 C   0  0  0  0  0  0  0  0  0  0  0  0
  197.1505  180.6860  155.4467 C   0  0  0  0  0  0  0  0  0  0  0  0
  197.8049  181.8080  156.0040 C   0  0  0  0  0  0  0  0  0  0  0  0
  199.2639  185.1260  154.8867 C   0  0  2  0  0  0  0  0  0  0  0  0
  197.9315  186.2939  157.7426 C   0  0  0  0  0  0  0  0  0  0  0  0
  198.0819  186.9688  156.7121 O   0  0  0  0  0  0  0  0  0  0  0  0
  196.9203  186.4855  158.6627 N   0  0  0  0  0  0  0  0  0  0  0  0
  196.5369  185.5436  159.7985 C   0  0  1  0  0  0  0  0  0  0  0  0
  195.6551  186.1611  160.8394 C   0  0  0  0  0  0  0  0  0  0  0  0
  194.9522  186.6329  161.6378 N   0  0  0  0  0  0  0  0  0  0  0  0
  195.8856  184.2436  159.2802 C   0  0  0  0  0  0  0  0  0  0  0  0
  194.4966  184.1711  158.9881 C   0  0  0  0  0  0  0  0  0  0  0  0
  193.8990  182.9705  158.5445 C   0  0  0  0  0  0  0  0  0  0  0  0
  194.7111  181.8344  158.3637 C   0  0  0  0  0  0  0  0  0  0  0  0
  196.0826  181.8940  158.6557 C   0  0  0  0  0  0  0  0  0  0  0  0
  196.6745  183.0944  159.0757 C   0  0  0  0  0  0  0  0  0  0  0  0
  196.0820  187.7010  158.5421 C   0  0  2  0  0  0  0  0  0  0  0  0
  201.6875  182.2772  159.3412 C   0  0  0  0  0  0  0  0  0  0  0  0
  202.1279  181.2132  158.5130 C   0  0  0  0  0  0  0  0  0  0  0  0
  200.4711  182.0503  155.6697 H   0  0  0  0  0  0  0  0  0  0  0  0
  199.4343  186.0323  159.9928 H   0  0  0  0  0  0  0  0  0  0  0  0
  197.7986  183.8554  153.3036 H   0  0  0  0  0  0  0  0  0  0  0  0
  196.0454  181.0482  151.6336 H   0  0  0  0  0  0  0  0  0  0  0  0
  195.9619  183.0253  150.3193 H   0  0  0  0  0  0  0  0  0  0  0  0
  197.4110  183.5845  151.1659 H   0  0  0  0  0  0  0  0  0  0  0  0
  195.8215  183.8360  151.8969 H   0  0  0  0  0  0  0  0  0  0  0  0
  196.2489  179.8317  153.6664 H   0  0  0  0  0  0  0  0  0  0  0  0
  197.0056  179.8046  156.0671 H   0  0  0  0  0  0  0  0  0  0  0  0
  198.1388  181.7034  157.0301 H   0  0  0  0  0  0  0  0  0  0  0  0
  198.4271  185.5712  154.3583 H   0  0  0  0  0  0  0  0  0  0  0  0
  199.9420  184.6756  154.1537 H   0  0  0  0  0  0  0  0  0  0  0  0
  199.7174  185.9591  155.4407 H   0  0  0  0  0  0  0  0  0  0  0  0
  197.4043  185.2425  160.3771 H   0  0  0  0  0  0  0  0  0  0  0  0
  193.8687  185.0301  159.1344 H   0  0  0  0  0  0  0  0  0  0  0  0
  192.8321  182.9172  158.3244 H   0  0  0  0  0  0  0  0  0  0  0  0
  194.3061  180.9143  157.9791 H   0  0  0  0  0  0  0  0  0  0  0  0
  196.7059  181.0186  158.5166 H   0  0  0  0  0  0  0  0  0  0  0  0
  197.7410  183.1147  159.2521 H   0  0  0  0  0  0  0  0  0  0  0  0
  196.3797  188.3547  157.7182 H   0  0  0  0  0  0  0  0  0  0  0  0
  196.1509  188.3436  159.4335 H   0  0  0  0  0  0  0  0  0  0  0  0
  195.0362  187.4371  158.3392 H   0  0  0  0  0  0  0  0  0  0  0  0
  202.0521  182.3236  160.3603 H   0  0  0  0  0  0  0  0  0  0  0  0
  202.8162  180.4508  158.8723 H   0  0  0  0  0  0  0  0  0  0  0  0
  1  2  1  0
  2  3  1  0
  2 34  2  0
  3  4  2  0
  3 35  1  0
  4  5  1  0
  4  9  1  0
  5  6  1  0
  5 33  2  0
  6  7  2  0
  7  8  1  0
  7 36  1  0
  8  9  2  0
  8 20  1  0
  9 10  1  0
 10 11  1  0
 10 19  1  0
 11 12  1  0
 11 18  2  0
 12 13  2  0
 12 37  1  0
 13 14  1  0
 13 16  1  0
 14 15  1  0
 14 38  1  0
 15 39  1  6
 15 40  1  0
 15 41  1  0
 16 17  2  0
 16 42  1  0
 17 18  1  0
 17 43  1  0
 18 44  1  0
 19 45  1  6
 19 46  1  0
 19 47  1  0
 20 21  2  0
 20 22  1  0
 22 23  1  0
 22 32  1  0
 23 24  1  0
 23 26  1  0
 23 48  1  1
 24 25  3  0
 26 27  2  0
 26 31  1  0
 27 28  1  0
 27 49  1  0
 28 29  2  0
 28 50  1  0
 29 30  1  0
 29 51  1  0
 30 31  2  0
 30 52  1  0
 31 53  1  0
 32 54  1  6
 32 55  1  0
 32 56  1  0
 33 34  1  0
 33 57  1  0
 34 58  1  0
M  END
>  <s_epik_cmdline>  (268) 
J2VwaWtfcHl0aG9uJywgJy1waCcsICc3LjAwMDAwMCcsICctcGh0JywgJzIuMDAwMDAwJywgJy1tcycsICcxNicsICctdG4nLCAnOCcsICctbWEnLCAnMjAwJywgJy1pbWFlJywgJzxpbmZpbGUubWFlPicsICctb21hZScsICc8b3V0ZmlsZS5tYWU+Jw==

>  <s_epik_input>  (268) 
W2NIXTFbY0hdW2NIXWMoW05IXVtDSDNdKVtjSF1jMU4oW0NIM10pYzJjKFtjSF1uYyhjMjMpW2NIXVtjSF1jKEYpW2NIXTMpQyg9TylOKFtDSDNdKVtDQEBIXShDI04pYzRbY0hdW2NIXVtjSF1bY0hdW2NIXTQ=

>  <s_i_glide_gridfile>  (268) 
ATP-Grid

>  <s_lp_Force_Field>  (268) 
OPLS_2005

>  <s_lp_Variant>  (268) 
rxn512c____EMOL300961701____EMOL36725275____EMOL24630243-1

>  <s_lp_label>  (268) 
3105_sdstereoexpander_1_neutralizer_1_epik_1_stereoizer_1

>  <s_m_source_file>  (268) 
ATP-VSW-LIGPREP-001-in.maegz

>  <s_sd_BIOSOLVEIT.INFINISEE\_QUERY\_NAME>  (268) 
Ref-Lig

>  <s_sd_BIOSOLVEIT.INFINISEE\_QUERY\_SMILES>  (268) 
S(c1nc2c(cc1C[NH2+]Cc3ccc(cc3)C[NH+](C)C)cccc2)Cc4ccccc4

>  <s_sd_BIOSOLVEIT.INFINISEE\_REACTION\_NAME>  (268) 
rxn512c

>  <s_sd_BIOSOLVEIT.INFINISEE\_REAGENT1\_NAME>  (268) 
EMOL300961701

>  <s_sd_BIOSOLVEIT.INFINISEE\_REAGENT1\_SMILES>  (268) 
N(c1cc(NC)ccc1)C

>  <s_sd_BIOSOLVEIT.INFINISEE\_REAGENT2\_NAME>  (268) 
EMOL36725275

>  <s_sd_BIOSOLVEIT.INFINISEE\_REAGENT2\_SMILES>  (268) 
Clc1c2c(ncc1C(=O)O)ccc(F)c2

>  <s_sd_BIOSOLVEIT.INFINISEE\_REAGENT3\_NAME>  (268) 
EMOL24630243

>  <s_sd_BIOSOLVEIT.INFINISEE\_REAGENT3\_SMILES>  (268) 
N#CC(NC)c1ccccc1

>  <s_sd_BIOSOLVEIT.INFINISEE\_SPACE>  (268) 
eXplore_7tr_2022-12

>  <s_vsw_compound_code>  (268) 
99329

>  <s_vsw_variant>  (268) 
99329-1

>  <r_epik_Charging_Adjusted_Penalty>  (268) 
0.0080486812573815503

>  <r_epik_Ionization_Penalty>  (268) 
0.0089999999999999993

>  <r_epik_Ionization_Penalty_Charging>  (268) 
0

>  <r_epik_Ionization_Penalty_Neutral>  (268) 
0.0089999999999999993

>  <r_epik_State_Penalty>  (268) 
0.0080000000000000002

>  <r_i_docking_score>  (268) 
-3.7493166649099501

>  <r_i_glide_ecoul>  (268) 
-2.5547530651092498

>  <r_i_glide_eff_state_penalty>  (268) 
0.0080000000000000002

>  <r_i_glide_einternal>  (268) 
5.1338057518005398

>  <r_i_glide_emodel>  (268) 
-48.054883628844003

>  <r_i_glide_energy>  (268) 
-41.122193098068202

>  <r_i_glide_erotb>  (268) 
0.488002919385087

>  <r_i_glide_esite>  (268) 
-0.0079961027372028905

>  <r_i_glide_evdw>  (268) 
-38.567440032958999

>  <r_i_glide_gscore>  (268) 
-3.7573166649099501

>  <r_i_glide_hbond>  (268) 
0

>  <r_i_glide_ligand_efficiency>  (268) 
-0.110274019556175

>  <r_i_glide_ligand_efficiency_ln>  (268) 
-0.82832921604888998

>  <r_i_glide_ligand_efficiency_sa>  (268) 
-0.35724501470856301

>  <r_i_glide_lipo>  (268) 
-1.1908963925810701

>  <r_i_glide_metal>  (268) 
-0

>  <r_i_glide_rewards>  (268) 
-0.73484212756241996

>  <r_lp_Energy>  (268) 
41.345239999999997

>  <r_qp_ACxDN^.5/SA>  (268) 
0.0097754999999999995

>  <r_qp_CIQPlogS>  (268) 
-7.9489999999999998

>  <r_qp_EA(eV)>  (268) 
1.427

>  <r_qp_FISA>  (268) 
87.384

>  <r_qp_FOSA>  (268) 
182.768

>  <r_qp_IP(eV)>  (268) 
8.0530000000000008

>  <r_qp_Jm>  (268) 
0.00695149280060086

>  <r_qp_PISA>  (268) 
398.99599999999998

>  <r_qp_PSA>  (268) 
72.021000000000001

>  <r_qp_PercentHumanOralAbsorption>  (268) 
100

>  <r_qp_QPPCaco>  (268) 
1469.73

>  <r_qp_QPPMDCK>  (268) 
1355.7470000000001

>  <r_qp_QPlogBB>  (268) 
-0.58699999999999997

>  <r_qp_QPlogHERG>  (268) 
-6.1740000000000004

>  <r_qp_QPlogKhsa>  (268) 
0.64800000000000002

>  <r_qp_QPlogKp>  (268) 
-1.052

>  <r_qp_QPlogPC16>  (268) 
14.206

>  <r_qp_QPlogPo/w>  (268) 
4.9610000000000003

>  <r_qp_QPlogPoct>  (268) 
21.722999999999999

>  <r_qp_QPlogPw>  (268) 
11.583

>  <r_qp_QPlogS>  (268) 
-6.7619999999999996

>  <r_qp_QPpolrz>  (268) 
47.755000000000003

>  <r_qp_SASA>  (268) 
716.07500000000005

>  <r_qp_SAamideO>  (268) 
0

>  <r_qp_SAfluorine>  (268) 
46.927

>  <r_qp_WPSA>  (268) 
46.927

>  <r_qp_accptHB>  (268) 
7

>  <r_qp_dip^2/V>  (268) 
0.0229345

>  <r_qp_dipole>  (268) 
5.593

>  <r_qp_donorHB>  (268) 
1

>  <r_qp_glob>  (268) 
0.83071010000000001

>  <r_qp_mol_MW>  (268) 
453.51799999999997

>  <r_qp_volume>  (268) 
1364.1590000000001

>  <r_sd_BIOSOLVEIT.INFINISEE\_FTREES\_SIMILARITY>  (268) 
0.90100000000000002

>  <r_sd_BIOSOLVEIT.LOGP>  (268) 
5.5203800000000003

>  <r_sd_BIOSOLVEIT.MOLECULAR\_WEIGHT>  (268) 
453.51900000000001

>  <r_sd_BIOSOLVEIT.TPSA>  (268) 
72.260000000000005

>  <i_epik_Tot_Q>  (268) 
0

>  <i_epik_Tot_abs_Q>  (268) 
0

>  <i_f3d_flags>  (268) 
0

>  <i_i_glide_confnum>  (268) 
5

>  <i_i_glide_lignum>  (268) 
59

>  <i_i_glide_posenum>  (268) 
8

>  <i_i_glide_rotatable_bonds>  (268) 
7

>  <i_lp_mmshare_version>  (268) 
65135

>  <i_m_ct_format>  (268) 
2

>  <i_m_source_file_index>  (268) 
3105

>  <i_qp_#NandO>  (268) 
6

>  <i_qp_#acid>  (268) 
0

>  <i_qp_#amide>  (268) 
0

>  <i_qp_#amidine>  (268) 
0

>  <i_qp_#amine>  (268) 
0

>  <i_qp_#in34>  (268) 
0

>  <i_qp_#in56>  (268) 
22

>  <i_qp_#metab>  (268) 
7

>  <i_qp_#nonHatm>  (268) 
34

>  <i_qp_#noncon>  (268) 
0

>  <i_qp_#ringatoms>  (268) 
22

>  <i_qp_#rotor>  (268) 
7

>  <i_qp_#rtvFG>  (268) 
0

>  <i_qp_#stars>  (268) 
1

>  <i_qp_CNS>  (268) 
0

>  <i_qp_HumanOralAbsorption>  (268) 
1

>  <i_qp_RuleOfFive>  (268) 
0

>  <i_qp_RuleOfThree>  (268) 
2

>  <i_sd_BIOSOLVEIT.INFINISEE\_RESULT\_RANK>  (268) 
97599

>  <i_sd_version>  (268) 
0

>  <b_lp_Chiralities_Consistent>  (268) 
1

>  <b_sd_chiral_flag>  (268) 
0

>  <canonical_id>  (268) 
ATP-HTVS-2B725536FCE2

>  <compound_code>  (268) 
99329

>  <title>  (268) 
rxn512c____EMOL300961701____EMOL36725275____EMOL24630243

>  <variant>  (268) 
99329-1

>  <source_file>  (268) 
运行/运行/ATP-VSW/ATP-VSW-DOCK_HTVS_1-002_lib.maegz

>  <canonical_smiles>  (268) 
CNc1cccc(N(C)c2c(C(=O)N(C)[C@@H](C#N)c3ccccc3)cnc3ccc(F)cc23)c1

>  <scaffold>  (268) 
O=C(NCc1ccccc1)c1cnc2ccccc2c1Nc1ccccc1

>  <molecular_formula>  (268) 
C27H24FN5O

$$$$
ATP-HTVS-2B784D1D7344
     RDKit          3D

 67 70  0  0  0  0  0  0  0  0999 V2000
  199.8209  182.5788  156.8664 O   0  0  0  0  0  0  0  0  0  0  0  0
  198.6055  182.4916  156.6646 C   0  0  0  0  0  0  0  0  0  0  0  0
  197.6804  182.6574  157.6512 N   0  0  0  0  0  0  0  0  0  0  0  0
  197.9651  183.1847  159.0141 C   0  0  2  0  0  0  0  0  0  0  0  0
  197.1866  184.4694  159.3161 C   0  0  0  0  0  0  0  0  0  0  0  0
  197.6404  185.7174  158.8330 C   0  0  0  0  0  0  0  0  0  0  0  0
  196.9410  186.9014  159.1383 C   0  0  0  0  0  0  0  0  0  0  0  0
  195.7646  186.8471  159.9066 C   0  0  0  0  0  0  0  0  0  0  0  0
  195.2852  185.6050  160.3600 C   0  0  0  0  0  0  0  0  0  0  0  0
  195.9976  184.4219  160.0749 C   0  0  0  0  0  0  0  0  0  0  0  0
  199.4575  183.3648  159.4404 C   0  0  2  0  0  0  0  0  0  0  0  0
  196.2357  182.4439  157.3988 C   0  0  2  0  0  0  0  0  0  0  0  0
  198.0686  182.2513  155.3298 C   0  0  0  0  0  0  0  0  0  0  0  0
  198.1398  183.4417  154.4650 C   0  0  0  0  0  0  0  0  0  0  0  0
  198.5276  184.5623  154.8300 O   0  0  0  0  0  0  0  0  0  0  0  0
  197.7403  183.2813  153.2027 N   0  0  0  0  0  0  0  0  0  0  0  0
  197.3342  182.0325  152.6500 C   0  0  0  0  0  0  0  0  0  0  0  0
  197.3246  180.8762  153.4536 C   0  0  0  0  0  0  0  0  0  0  0  0
  196.9189  179.6554  152.8665 C   0  0  0  0  0  0  0  0  0  0  0  0
  196.5670  179.5925  151.5073 C   0  0  0  0  0  0  0  0  0  0  0  0
  196.5874  180.7590  150.7135 C   0  0  0  0  0  0  0  0  0  0  0  0
  196.9757  181.9882  151.2843 C   0  0  0  0  0  0  0  0  0  0  0  0
  197.7011  181.0103  154.8873 C   0  0  0  0  0  0  0  0  0  0  0  0
  197.6927  179.8617  155.6767 N   0  0  0  0  0  0  0  0  0  0  0  0
  198.5873  178.7238  155.5609 C   0  0  1  0  0  0  0  0  0  0  0  0
  200.0262  178.9605  155.1161 C   0  0  0  0  0  0  0  0  0  0  0  0
  200.8247  177.7925  155.0154 C   0  0  0  0  0  0  0  0  0  0  0  0
  202.1984  177.9411  154.6514 C   0  0  0  0  0  0  0  0  0  0  0  0
  202.7641  179.2392  154.3965 C   0  0  0  0  0  0  0  0  0  0  0  0
  201.9214  180.3780  154.5082 C   0  0  0  0  0  0  0  0  0  0  0  0
  200.5621  180.2634  154.8615 C   0  0  0  0  0  0  0  0  0  0  0  0
  203.1377  176.7551  154.5759 C   0  0  1  0  0  0  0  0  0  0  0  0
  202.5536  175.4331  154.8544 N   0  0  0  0  0  0  0  0  0  0  0  0
  201.6200  175.0123  153.8067 C   0  0  2  0  0  0  0  0  0  0  0  0
  202.0901  175.2817  156.2265 C   0  0  2  0  0  0  0  0  0  0  0  0
  197.5539  182.4160  159.6693 H   0  0  0  0  0  0  0  0  0  0  0  0
  198.5402  185.7898  158.2389 H   0  0  0  0  0  0  0  0  0  0  0  0
  197.3077  187.8546  158.7843 H   0  0  0  0  0  0  0  0  0  0  0  0
  195.2264  187.7533  160.1378 H   0  0  0  0  0  0  0  0  0  0  0  0
  194.3689  185.5648  160.9303 H   0  0  0  0  0  0  0  0  0  0  0  0
  195.6270  183.4750  160.4397 H   0  0  0  0  0  0  0  0  0  0  0  0
  199.5463  183.6192  160.5092 H   0  0  0  0  0  0  0  0  0  0  0  0
  199.9459  184.1692  158.8936 H   0  0  0  0  0  0  0  0  0  0  0  0
  200.0622  182.4767  159.2700 H   0  0  0  0  0  0  0  0  0  0  0  0
  196.0099  181.5666  156.7958 H   0  0  0  0  0  0  0  0  0  0  0  0
  195.8399  183.3097  156.8646 H   0  0  0  0  0  0  0  0  0  0  0  0
  195.6758  182.2613  158.3225 H   0  0  0  0  0  0  0  0  0  0  0  0
  197.7842  184.0907  152.6016 H   0  0  0  0  0  0  0  0  0  0  0  0
  196.9094  178.7382  153.4269 H   0  0  0  0  0  0  0  0  0  0  0  0
  196.2825  178.6370  151.0750 H   0  0  0  0  0  0  0  0  0  0  0  0
  196.2935  180.7022  149.6753 H   0  0  0  0  0  0  0  0  0  0  0  0
  197.0017  182.8831  150.6825 H   0  0  0  0  0  0  0  0  0  0  0  0
  197.1385  179.8585  156.5395 H   0  0  0  0  0  0  0  0  0  0  0  0
  198.6187  178.2453  156.5259 H   0  0  0  0  0  0  0  0  0  0  0  0
  198.1259  177.9668  154.9396 H   0  0  0  0  0  0  0  0  0  0  0  0
  200.3727  176.8211  155.2336 H   0  0  0  0  0  0  0  0  0  0  0  0
  203.8259  179.3764  154.1304 H   0  0  0  0  0  0  0  0  0  0  0  0
  202.2964  181.3730  154.3055 H   0  0  0  0  0  0  0  0  0  0  0  0
  199.9928  181.1871  154.8995 H   0  0  0  0  0  0  0  0  0  0  0  0
  203.5830  176.7823  153.5756 H   0  0  0  0  0  0  0  0  0  0  0  0
  203.9742  176.9528  155.2570 H   0  0  0  0  0  0  0  0  0  0  0  0
  201.3434  173.9721  153.9714 H   0  0  0  0  0  0  0  0  0  0  0  0
  202.0860  175.0761  152.8154 H   0  0  0  0  0  0  0  0  0  0  0  0
  200.7088  175.6178  153.7865 H   0  0  0  0  0  0  0  0  0  0  0  0
  201.8748  174.2225  156.3892 H   0  0  0  0  0  0  0  0  0  0  0  0
  201.2534  175.8823  156.4373 H   0  0  0  0  0  0  0  0  0  0  0  0
  202.9155  175.4998  156.9249 H   0  0  0  0  0  0  0  0  0  0  0  0
  1  2  2  0
  2  3  1  0
  2 13  1  0
  3  4  1  0
  3 12  1  0
  4  5  1  0
  4 11  1  0
  4 36  1  1
  5  6  2  0
  5 10  1  0
  6  7  1  0
  6 37  1  0
  7  8  2  0
  7 38  1  0
  8  9  1  0
  8 39  1  0
  9 10  2  0
  9 40  1  0
 10 41  1  0
 11 42  1  1
 11 43  1  0
 11 44  1  0
 12 45  1  6
 12 46  1  0
 12 47  1  0
 13 14  1  0
 13 23  2  0
 14 15  2  0
 14 16  1  0
 16 17  1  0
 16 48  1  0
 17 18  1  0
 17 22  2  0
 18 19  2  0
 18 23  1  0
 19 20  1  0
 19 49  1  0
 20 21  2  0
 20 50  1  0
 21 22  1  0
 21 51  1  0
 22 52  1  0
 23 24  1  0
 24 25  1  0
 24 53  1  0
 25 26  1  0
 25 54  1  1
 25 55  1  0
 26 27  2  0
 26 31  1  0
 27 28  1  0
 27 56  1  0
 28 29  2  0
 28 32  1  0
 29 30  1  0
 29 57  1  0
 30 31  2  0
 30 58  1  0
 31 59  1  0
 32 33  1  0
 32 60  1  6
 32 61  1  0
 33 34  1  0
 33 35  1  0
 34 62  1  1
 34 63  1  0
 34 64  1  0
 35 65  1  6
 35 66  1  0
 35 67  1  0
M  END
>  <s_epik_cmdline>  (269) 
J2VwaWtfcHl0aG9uJywgJy1waCcsICc3LjAwMDAwMCcsICctcGh0JywgJzIuMDAwMDAwJywgJy1tcycsICcxNicsICctdG4nLCAnOCcsICctbWEnLCAnMjAwJywgJy1pbWFlJywgJzxpbmZpbGUubWFlPicsICctb21hZScsICc8b3V0ZmlsZS5tYWU+Jw==

>  <s_epik_input>  (269) 
W2NIXTFbY0hdW2NIXVtjSF1bY0hdYzFbQ0BIXShbQ0gzXSlOKFtDSDNdKUMoPU8pYyhjKD1PKVtuSF0yKWMoYyhjMjMpW2NIXVtjSF1bY0hdW2NIXTMpW05IXVtDSDJdYzRbY0hdYyhbY0hdW2NIXVtjSF00KVtDSDJdTihbQ0gzXSlbQ0gzXQ==

>  <s_i_glide_gridfile>  (269) 
ATP-Grid

>  <s_lp_Force_Field>  (269) 
OPLS_2005

>  <s_lp_Variant>  (269) 
rxn512c____EMOL25685613____EMOL43362984____EMOL2873214-4

>  <s_lp_label>  (269) 
2266_sdstereoexpander_2_neutralizer_1_epik_2_stereoizer_1

>  <s_m_source_file>  (269) 
ATP-VSW-LIGPREP-002-in.maegz

>  <s_sd_BIOSOLVEIT.INFINISEE\_QUERY\_NAME>  (269) 
Ref-Lig

>  <s_sd_BIOSOLVEIT.INFINISEE\_QUERY\_SMILES>  (269) 
S(c1nc2c(cc1C[NH2+]Cc3ccc(cc3)C[NH+](C)C)cccc2)Cc4ccccc4

>  <s_sd_BIOSOLVEIT.INFINISEE\_REACTION\_NAME>  (269) 
rxn512c

>  <s_sd_BIOSOLVEIT.INFINISEE\_REAGENT1\_NAME>  (269) 
EMOL25685613

>  <s_sd_BIOSOLVEIT.INFINISEE\_REAGENT1\_SMILES>  (269) 
N(C(c1ccccc1)C)C

>  <s_sd_BIOSOLVEIT.INFINISEE\_REAGENT2\_NAME>  (269) 
EMOL43362984

>  <s_sd_BIOSOLVEIT.INFINISEE\_REAGENT2\_SMILES>  (269) 
ClC=1c2c(NC(=O)C1C(=O)O)cccc2

>  <s_sd_BIOSOLVEIT.INFINISEE\_REAGENT3\_NAME>  (269) 
EMOL2873214

>  <s_sd_BIOSOLVEIT.INFINISEE\_REAGENT3\_SMILES>  (269) 
N(Cc1cc(ccc1)CN)(C)C

>  <s_sd_BIOSOLVEIT.INFINISEE\_SPACE>  (269) 
eXplore_7tr_2022-12

>  <s_vsw_compound_code>  (269) 
72482

>  <s_vsw_variant>  (269) 
72482-4

>  <r_epik_Charging_Adjusted_Penalty>  (269) 
1.56114256132865

>  <r_epik_Ionization_Penalty>  (269) 
1.5611999999999999

>  <r_epik_Ionization_Penalty_Charging>  (269) 
0

>  <r_epik_Ionization_Penalty_Neutral>  (269) 
1.5611999999999999

>  <r_epik_State_Penalty>  (269) 
1.5610999999999999

>  <r_i_docking_score>  (269) 
-1.1200173987981801

>  <r_i_glide_ecoul>  (269) 
-3.5389134883880602

>  <r_i_glide_eff_state_penalty>  (269) 
1.5610999999999999

>  <r_i_glide_einternal>  (269) 
16.141361236572301

>  <r_i_glide_emodel>  (269) 
-39.362235402554397

>  <r_i_glide_energy>  (269) 
-40.306819677352898

>  <r_i_glide_erotb>  (269) 
0.64368282996763304

>  <r_i_glide_esite>  (269) 
-0.152876526300813

>  <r_i_glide_evdw>  (269) 
-36.767906188964801

>  <r_i_glide_gscore>  (269) 
-2.6811173987981798

>  <r_i_glide_hbond>  (269) 
-0.14720959462747801

>  <r_i_glide_ligand_efficiency>  (269) 
-0.032000497108519502

>  <r_i_glide_ligand_efficiency_ln>  (269) 
-0.245868676483084

>  <r_i_glide_ligand_efficiency_sa>  (269) 
-0.104675747876913

>  <r_i_glide_lipo>  (269) 
-2.2139709770351002

>  <r_i_glide_metal>  (269) 
-0

>  <r_i_glide_rewards>  (269) 
1.55848920190403

>  <r_lp_Energy>  (269) 
63.030335000000001

>  <r_qp_ACxDN^.5/SA>  (269) 
0

>  <r_qp_CIQPlogS>  (269) 
-6.2800000000000002

>  <r_qp_EA(eV)>  (269) 
0.81000000000000005

>  <r_qp_FISA>  (269) 
99.143000000000001

>  <r_qp_FOSA>  (269) 
301.18400000000003

>  <r_qp_IP(eV)>  (269) 
8.6880000000000006

>  <r_qp_Jm>  (269) 
0.0043492332293974898

>  <r_qp_PISA>  (269) 
357.35700000000003

>  <r_qp_PSA>  (269) 
72.959000000000003

>  <r_qp_PercentHumanOralAbsorption>  (269) 
100

>  <r_qp_QPPCaco>  (269) 
283.54700000000003

>  <r_qp_QPPMDCK>  (269) 
140.14599999999999

>  <r_qp_QPlogBB>  (269) 
-0.501

>  <r_qp_QPlogHERG>  (269) 
-6.8630000000000004

>  <r_qp_QPlogKhsa>  (269) 
0.77300000000000002

>  <r_qp_QPlogKp>  (269) 
-3.3820000000000001

>  <r_qp_QPlogPC16>  (269) 
14.93

>  <r_qp_QPlogPo/w>  (269) 
4.8479999999999999

>  <r_qp_QPlogPoct>  (269) 
21.314

>  <r_qp_QPlogPw>  (269) 
9.2850000000000001

>  <r_qp_QPlogS>  (269) 
-4.6500000000000004

>  <r_qp_QPpolrz>  (269) 
50.476999999999997

>  <r_qp_SASA>  (269) 
757.68399999999997

>  <r_qp_SAamideO>  (269) 
0

>  <r_qp_SAfluorine>  (269) 
0

>  <r_qp_WPSA>  (269) 
0

>  <r_qp_accptHB>  (269) 
6.5

>  <r_qp_dip^2/V>  (269) 
0.069728299999999993

>  <r_qp_dipole>  (269) 
10.083

>  <r_qp_donorHB>  (269) 
0

>  <r_qp_glob>  (269) 
0.82075050000000005

>  <r_qp_mol_MW>  (269) 
468.59699999999998

>  <r_qp_volume>  (269) 
1458.1479999999999

>  <r_sd_BIOSOLVEIT.INFINISEE\_FTREES\_SIMILARITY>  (269) 
0.92500000000000004

>  <r_sd_BIOSOLVEIT.LOGP>  (269) 
3.6179000000000001

>  <r_sd_BIOSOLVEIT.MOLECULAR\_WEIGHT>  (269) 
469.60599999999999

>  <r_sd_BIOSOLVEIT.TPSA>  (269) 
69.640000000000001

>  <i_epik_Tot_Q>  (269) 
0

>  <i_epik_Tot_abs_Q>  (269) 
0

>  <i_f3d_flags>  (269) 
0

>  <i_i_glide_confnum>  (269) 
6

>  <i_i_glide_lignum>  (269) 
901

>  <i_i_glide_posenum>  (269) 
6

>  <i_i_glide_rotatable_bonds>  (269) 
9

>  <i_lp_mmshare_version>  (269) 
65135

>  <i_m_ct_format>  (269) 
2

>  <i_m_source_file_index>  (269) 
2266

>  <i_qp_#NandO>  (269) 
6

>  <i_qp_#acid>  (269) 
0

>  <i_qp_#amide>  (269) 
0

>  <i_qp_#amidine>  (269) 
0

>  <i_qp_#amine>  (269) 
1

>  <i_qp_#in34>  (269) 
0

>  <i_qp_#in56>  (269) 
22

>  <i_qp_#metab>  (269) 
7

>  <i_qp_#nonHatm>  (269) 
35

>  <i_qp_#noncon>  (269) 
0

>  <i_qp_#ringatoms>  (269) 
22

>  <i_qp_#rotor>  (269) 
8

>  <i_qp_#rtvFG>  (269) 
0

>  <i_qp_#stars>  (269) 
0

>  <i_qp_CNS>  (269) 
1

>  <i_qp_HumanOralAbsorption>  (269) 
3

>  <i_qp_RuleOfFive>  (269) 
0

>  <i_qp_RuleOfThree>  (269) 
1

>  <i_sd_BIOSOLVEIT.INFINISEE\_RESULT\_RANK>  (269) 
8804

>  <i_sd_version>  (269) 
0

>  <b_lp_Chiralities_Consistent>  (269) 
1

>  <b_sd_chiral_flag>  (269) 
0

>  <canonical_id>  (269) 
ATP-HTVS-2B784D1D7344

>  <compound_code>  (269) 
72482

>  <title>  (269) 
rxn512c____EMOL25685613____EMOL43362984____EMOL2873214

>  <variant>  (269) 
72482-4

>  <source_file>  (269) 
运行/运行/ATP-VSW/ATP-VSW-DOCK_HTVS_1-002_lib.maegz

>  <canonical_smiles>  (269) 
C[C@@H](c1ccccc1)N(C)C(=O)c1c(NCc2cccc(CN(C)C)c2)c2ccccc2[nH]c1=O

>  <scaffold>  (269) 
O=C(NCc1ccccc1)c1c(NCc2ccccc2)c2ccccc2[nH]c1=O

>  <molecular_formula>  (269) 
C29H32N4O2

$$$$
ATP-HTVS-2C366CB23264
     RDKit          3D

 52 54  0  0  0  0  0  0  0  0999 V2000
  198.6568  186.1868  152.0991 Cl  0  0  0  0  0  0  0  0  0  0  0  0
  197.9556  184.6178  151.9652 C   0  0  0  0  0  0  0  0  0  0  0  0
  198.1875  183.6503  152.9623 C   0  0  0  0  0  0  0  0  0  0  0  0
  197.6117  182.3614  152.8652 C   0  0  0  0  0  0  0  0  0  0  0  0
  197.8518  181.3911  153.8740 N   0  0  0  0  0  0  0  0  0  0  0  0
  197.2325  180.1817  153.8487 N   0  0  0  0  0  0  0  0  0  0  0  0
  197.6480  179.5009  154.8707 N   0  0  0  0  0  0  0  0  0  0  0  0
  198.5488  180.2725  155.5986 C   0  0  0  0  0  0  0  0  0  0  0  0
  198.6966  181.4769  154.9698 C   0  0  0  0  0  0  0  0  0  0  0  0
  199.2426  179.7533  156.8215 C   0  0  1  0  0  0  0  0  0  0  0  0
  199.7990  178.3935  156.6227 N   0  0  1  0  0  0  0  0  0  0  0  0
  200.7791  178.3085  155.4922 C   0  0  1  0  0  0  0  0  0  0  0  0
  201.0852  176.8811  155.0663 C   0  0  0  0  0  0  0  0  0  0  0  0
  201.8589  176.0611  155.9093 C   0  0  0  0  0  0  0  0  0  0  0  0
  202.0708  174.7060  155.5627 C   0  0  0  0  0  0  0  0  0  0  0  0
  201.6175  174.2063  154.3272 C   0  0  0  0  0  0  0  0  0  0  0  0
  200.8880  175.0485  153.4560 C   0  0  0  0  0  0  0  0  0  0  0  0
  200.6054  176.3735  153.8400 C   0  0  0  0  0  0  0  0  0  0  0  0
  201.9725  172.7790  153.9278 C   0  0  1  0  0  0  0  0  0  0  0  0
  203.3689  172.6440  153.4224 N   0  0  2  0  0  0  0  0  0  0  0  0
  204.4129  173.1954  154.3167 C   0  0  2  0  0  0  0  0  0  0  0  0
  203.5207  173.1345  152.0322 C   0  0  2  0  0  0  0  0  0  0  0  0
  200.3117  177.8342  157.8975 C   0  0  2  0  0  0  0  0  0  0  0  0
  196.7995  182.0582  151.7469 C   0  0  0  0  0  0  0  0  0  0  0  0
  196.5709  183.0276  150.7511 C   0  0  0  0  0  0  0  0  0  0  0  0
  197.1486  184.3051  150.8573 C   0  0  0  0  0  0  0  0  0  0  0  0
  198.8130  183.9211  153.8001 H   0  0  0  0  0  0  0  0  0  0  0  0
  199.3124  182.3353  155.2039 H   0  0  0  0  0  0  0  0  0  0  0  0
  200.0405  180.4307  157.1199 H   0  0  0  0  0  0  0  0  0  0  0  0
  198.5242  179.7458  157.6432 H   0  0  0  0  0  0  0  0  0  0  0  0
  200.3879  178.8125  154.6087 H   0  0  0  0  0  0  0  0  0  0  0  0
  201.7055  178.8310  155.7413 H   0  0  0  0  0  0  0  0  0  0  0  0
  202.2681  176.4360  156.8275 H   0  0  0  0  0  0  0  0  0  0  0  0
  202.6196  174.0808  156.2480 H   0  0  0  0  0  0  0  0  0  0  0  0
  200.5373  174.6796  152.4991 H   0  0  0  0  0  0  0  0  0  0  0  0
  200.0174  176.9999  153.1791 H   0  0  0  0  0  0  0  0  0  0  0  0
  201.8431  172.1232  154.7951 H   0  0  0  0  0  0  0  0  0  0  0  0
  201.2639  172.4220  153.1801 H   0  0  0  0  0  0  0  0  0  0  0  0
  204.3385  174.2767  154.4242 H   0  0  0  0  0  0  0  0  0  0  0  0
  205.4196  172.9986  153.9337 H   0  0  0  0  0  0  0  0  0  0  0  0
  204.3338  172.7357  155.3016 H   0  0  0  0  0  0  0  0  0  0  0  0
  203.3373  174.2095  151.9669 H   0  0  0  0  0  0  0  0  0  0  0  0
  202.8240  172.6299  151.3623 H   0  0  0  0  0  0  0  0  0  0  0  0
  204.5300  172.9449  151.6670 H   0  0  0  0  0  0  0  0  0  0  0  0
  201.2067  178.3632  158.2263 H   0  0  0  0  0  0  0  0  0  0  0  0
  200.5711  176.7681  157.8101 H   0  0  0  0  0  0  0  0  0  0  0  0
  199.5616  177.9136  158.6905 H   0  0  0  0  0  0  0  0  0  0  0  0
  196.3429  181.0862  151.6334 H   0  0  0  0  0  0  0  0  0  0  0  0
  195.9460  182.7933  149.8994 H   0  0  0  0  0  0  0  0  0  0  0  0
  196.9678  185.0446  150.0929 H   0  0  0  0  0  0  0  0  0  0  0  0
  203.5246  171.6307  153.4264 H   0  0  0  0  0  0  0  0  0  0  0  0
  198.9897  177.8423  156.3794 H   0  0  0  0  0  0  0  0  0  0  0  0
  1  2  1  0
  2  3  2  0
  2 26  1  0
  3  4  1  0
  3 27  1  0
  4  5  1  0
  4 24  2  0
  5  6  1  0
  5  9  1  0
  6  7  2  0
  7  8  1  0
  8  9  2  0
  8 10  1  0
  9 28  1  0
 10 11  1  0
 10 29  1  1
 10 30  1  0
 11 12  1  0
 11 23  1  0
 11 52  1  6
 12 13  1  0
 12 31  1  6
 12 32  1  0
 13 14  1  0
 13 18  2  0
 14 15  2  0
 14 33  1  0
 15 16  1  0
 15 34  1  0
 16 17  2  0
 16 19  1  0
 17 18  1  0
 17 35  1  0
 18 36  1  0
 19 20  1  0
 19 37  1  1
 19 38  1  0
 20 21  1  0
 20 22  1  0
 20 51  1  6
 21 39  1  1
 21 40  1  0
 21 41  1  0
 22 42  1  1
 22 43  1  0
 22 44  1  0
 23 45  1  1
 23 46  1  0
 23 47  1  0
 24 25  1  0
 24 48  1  0
 25 26  2  0
 25 49  1  0
 26 50  1  0
M  CHG  2  11   1  20   1
M  END
>  <s_epik_cmdline>  (270) 
J2VwaWtfcHl0aG9uJywgJy1waCcsICc3LjAwMDAwMCcsICctcGh0JywgJzIuMDAwMDAwJywgJy1tcycsICcxNicsICctdG4nLCAnOCcsICctbWEnLCAnMjAwJywgJy1pbWFlJywgJzxpbmZpbGUubWFlPicsICctb21hZScsICc8b3V0ZmlsZS5tYWU+Jw==

>  <s_epik_input>  (270) 
Q2xjMVtjSF1jKFtjSF1bY0hdW2NIXTEpLW4ybm5jKFtjSF0yKVtDSDJdTihbQ0gzXSlbQ0gyXWMzW2NIXVtjSF1jKFtjSF1bY0hdMylbQ0gyXU4oW0NIM10pW0NIM10=

>  <s_i_glide_gridfile>  (270) 
ATP-Grid

>  <s_lp_Force_Field>  (270) 
OPLS_2005

>  <s_lp_Variant>  (270) 
m_274952bba____12996510____12611784____19964924-2

>  <s_lp_label>  (270) 
1830_sdstereoexpander_1_neutralizer_1_epik_2_stereoizer_1

>  <s_m_source_file>  (270) 
ATP-VSW-LIGPREP-001-in.maegz

>  <s_sd_BIOSOLVEIT.INFINISEE\_QUERY\_NAME>  (270) 
Ref-Lig

>  <s_sd_BIOSOLVEIT.INFINISEE\_QUERY\_SMILES>  (270) 
S(c1nc2c(cc1C[NH2+]Cc3ccc(cc3)C[NH+](C)C)cccc2)Cc4ccccc4

>  <s_sd_BIOSOLVEIT.INFINISEE\_REACTION\_NAME>  (270) 
m_274952bba

>  <s_sd_BIOSOLVEIT.INFINISEE\_REAGENT1\_SMILES>  (270) 
[R1*]N(Cc1ccc(cc1)CN(C)C)C

>  <s_sd_BIOSOLVEIT.INFINISEE\_REAGENT2\_SMILES>  (270) 
[R2*]C(=C[R3*])C[R1*]

>  <s_sd_BIOSOLVEIT.INFINISEE\_REAGENT3\_SMILES>  (270) 
[R2*]N=NN([R3*])c1cc(Cl)ccc1

>  <s_sd_BIOSOLVEIT.INFINISEE\_SPACE>  (270) 
REALSpace_44bn_2023-08

>  <s_vsw_compound_code>  (270) 
58529

>  <s_vsw_variant>  (270) 
58529-2

>  <r_epik_Charging_Adjusted_Penalty>  (270) 
1.3767577133437701

>  <r_epik_Ionization_Penalty>  (270) 
0.69099999999999995

>  <r_epik_Ionization_Penalty_Charging>  (270) 
0.69099999999999995

>  <r_epik_Ionization_Penalty_Neutral>  (270) 
0

>  <r_epik_State_Penalty>  (270) 
0.68579999999999997

>  <r_i_docking_score>  (270) 
-4.7201435231848903

>  <r_i_glide_ecoul>  (270) 
-14.024034500122101

>  <r_i_glide_eff_state_penalty>  (270) 
0.68579999999999997

>  <r_i_glide_einternal>  (270) 
2.8315618038177499

>  <r_i_glide_emodel>  (270) 
-61.866533950781502

>  <r_i_glide_energy>  (270) 
-40.901067733764599

>  <r_i_glide_erotb>  (270) 
0.83758195891187004

>  <r_i_glide_esite>  (270) 
-0.283912297197073

>  <r_i_glide_evdw>  (270) 
-26.877033233642599

>  <r_i_glide_gscore>  (270) 
-5.4059435231848898

>  <r_i_glide_hbond>  (270) 
-0.21134644067037101

>  <r_i_glide_ligand_efficiency>  (270) 
-0.181543981660957

>  <r_i_glide_ligand_efficiency_ln>  (270) 
-1.10851021836581

>  <r_i_glide_ligand_efficiency_sa>  (270) 
-0.53782333132951299

>  <r_i_glide_lipo>  (270) 
-0.97744608934706301

>  <r_i_glide_metal>  (270) 
-0

>  <r_i_glide_rewards>  (270) 
-1.3233638181818199

>  <r_lp_Energy>  (270) 
16.486395999999999

>  <r_lp_tautomer_probability>  (270) 
1

>  <r_qp_ACxDN^.5/SA>  (270) 
0

>  <r_qp_CIQPlogS>  (270) 
-3.0680000000000001

>  <r_qp_EA(eV)>  (270) 
0.97199999999999998

>  <r_qp_FISA>  (270) 
46.170999999999999

>  <r_qp_FOSA>  (270) 
309.00400000000002

>  <r_qp_IP(eV)>  (270) 
8.9169999999999998

>  <r_qp_Jm>  (270) 
0.0014380565243575099

>  <r_qp_PISA>  (270) 
287.37900000000002

>  <r_qp_PSA>  (270) 
42.280000000000001

>  <r_qp_PercentHumanOralAbsorption>  (270) 
91.099000000000004

>  <r_qp_QPPCaco>  (270) 
224.83500000000001

>  <r_qp_QPPMDCK>  (270) 
297.37099999999998

>  <r_qp_QPlogBB>  (270) 
0.67600000000000005

>  <r_qp_QPlogHERG>  (270) 
-7.8150000000000004

>  <r_qp_QPlogKhsa>  (270) 
0.38900000000000001

>  <r_qp_QPlogKp>  (270) 
-4.907

>  <r_qp_QPlogPC16>  (270) 
12.763999999999999

>  <r_qp_QPlogPo/w>  (270) 
3.7679999999999998

>  <r_qp_QPlogPoct>  (270) 
17.324999999999999

>  <r_qp_QPlogPw>  (270) 
8.3179999999999996

>  <r_qp_QPlogS>  (270) 
-3.5030000000000001

>  <r_qp_QPpolrz>  (270) 
42.784999999999997

>  <r_qp_SASA>  (270) 
714.06700000000001

>  <r_qp_SAamideO>  (270) 
0

>  <r_qp_SAfluorine>  (270) 
0

>  <r_qp_WPSA>  (270) 
71.513000000000005

>  <r_qp_accptHB>  (270) 
6

>  <r_qp_dip^2/V>  (270) 
0.0084133999999999997

>  <r_qp_dipole>  (270) 
3.2440000000000002

>  <r_qp_donorHB>  (270) 
0

>  <r_qp_glob>  (270) 
0.78613339999999998

>  <r_qp_mol_MW>  (270) 
369.89600000000002

>  <r_qp_volume>  (270) 
1250.5609999999999

>  <r_sd_BIOSOLVEIT.INFINISEE\_FTREES\_SIMILARITY>  (270) 
0.90300000000000002

>  <r_sd_BIOSOLVEIT.LOGP>  (270) 
0.78010000000000002

>  <r_sd_BIOSOLVEIT.MOLECULAR\_WEIGHT>  (270) 
371.91300000000001

>  <r_sd_BIOSOLVEIT.TPSA>  (270) 
39.590000000000003

>  <i_epik_Tot_Q>  (270) 
2

>  <i_epik_Tot_abs_Q>  (270) 
2

>  <i_f3d_flags>  (270) 
0

>  <i_i_glide_confnum>  (270) 
5

>  <i_i_glide_lignum>  (270) 
540

>  <i_i_glide_posenum>  (270) 
20

>  <i_i_glide_rotatable_bonds>  (270) 
7

>  <i_lp_mmshare_version>  (270) 
65135

>  <i_m_ct_format>  (270) 
2

>  <i_m_source_file_index>  (270) 
1830

>  <i_qp_#NandO>  (270) 
5

>  <i_qp_#acid>  (270) 
0

>  <i_qp_#amide>  (270) 
0

>  <i_qp_#amidine>  (270) 
0

>  <i_qp_#amine>  (270) 
2

>  <i_qp_#in34>  (270) 
0

>  <i_qp_#in56>  (270) 
17

>  <i_qp_#metab>  (270) 
5

>  <i_qp_#nonHatm>  (270) 
26

>  <i_qp_#noncon>  (270) 
0

>  <i_qp_#ringatoms>  (270) 
17

>  <i_qp_#rotor>  (270) 
6

>  <i_qp_#rtvFG>  (270) 
0

>  <i_qp_#stars>  (270) 
0

>  <i_qp_CNS>  (270) 
2

>  <i_qp_HumanOralAbsorption>  (270) 
3

>  <i_qp_RuleOfFive>  (270) 
0

>  <i_qp_RuleOfThree>  (270) 
0

>  <i_sd_BIOSOLVEIT.INFINISEE\_REAGENT1\_NAME>  (270) 
12996510

>  <i_sd_BIOSOLVEIT.INFINISEE\_REAGENT2\_NAME>  (270) 
12611784

>  <i_sd_BIOSOLVEIT.INFINISEE\_REAGENT3\_NAME>  (270) 
19964924

>  <i_sd_BIOSOLVEIT.INFINISEE\_RESULT\_RANK>  (270) 
79823

>  <i_sd_version>  (270) 
0

>  <b_lp_Chiralities_Consistent>  (270) 
1

>  <b_sd_chiral_flag>  (270) 
0

>  <canonical_id>  (270) 
ATP-HTVS-2C366CB23264

>  <compound_code>  (270) 
58529

>  <title>  (270) 
m_274952bba____12996510____12611784____19964924

>  <variant>  (270) 
58529-2

>  <source_file>  (270) 
运行/运行/ATP-VSW/ATP-VSW-DOCK_HTVS_1-001_lib/ATP-VSW-DOCK_HTVS_1-001_lib

>  <canonical_smiles>  (270) 
C[NH+](C)Cc1ccc(C[N@@H+](C)Cc2cn(-c3cccc(Cl)c3)nn2)cc1

>  <scaffold>  (270) 
c1ccc(C[NH2+]Cc2cn(-c3ccccc3)nn2)cc1

>  <molecular_formula>  (270) 
C20H26ClN5+2

$$$$
ATP-HTVS-2C5504015D66
     RDKit          3D

 47 50  0  0  0  0  0  0  0  0999 V2000
  193.6609  184.5219  160.1960 F   0  0  0  0  0  0  0  0  0  0  0  0
  194.8317  185.1651  160.0306 C   0  0  0  0  0  0  0  0  0  0  0  0
  195.7762  184.7649  159.0573 C   0  0  0  0  0  0  0  0  0  0  0  0
  196.9636  185.5273  158.9082 C   0  0  0  0  0  0  0  0  0  0  0  0
  197.8913  185.1746  157.9846 F   0  0  0  0  0  0  0  0  0  0  0  0
  197.1976  186.6563  159.7250 C   0  0  0  0  0  0  0  0  0  0  0  0
  196.2449  187.0341  160.6850 C   0  0  0  0  0  0  0  0  0  0  0  0
  195.0744  186.2838  160.8434 C   0  0  0  0  0  0  0  0  0  0  0  0
  195.5837  183.5514  158.1522 C   0  0  2  0  0  0  0  0  0  0  0  0
  194.2654  183.0253  158.1346 O   0  0  0  0  0  0  0  0  0  0  0  0
  196.4824  182.3770  158.5681 C   0  0  1  0  0  0  0  0  0  0  0  0
  196.7168  181.4701  157.4252 N   0  0  1  0  0  0  0  0  0  0  0  0
  197.7234  181.9264  156.4367 C   0  0  1  0  0  0  0  0  0  0  0  0
  199.1247  181.5020  156.8462 C   0  0  0  0  0  0  0  0  0  0  0  0
  199.9753  182.4991  157.1482 N   0  0  0  0  0  0  0  0  0  0  0  0
  201.2461  182.1762  157.4832 C   0  0  0  0  0  0  0  0  0  0  0  0
  201.7097  180.8504  157.5579 C   0  0  0  0  0  0  0  0  0  0  0  0
  200.8104  179.8082  157.2662 C   0  0  0  0  0  0  0  0  0  0  0  0
  199.4902  180.1361  156.9035 C   0  0  0  0  0  0  0  0  0  0  0  0
  197.3640  181.4478  155.0742 C   0  0  0  0  0  0  0  0  0  0  0  0
  197.5082  182.3519  154.0595 O   0  0  0  0  0  0  0  0  0  0  0  0
  197.1467  181.7103  152.8962 C   0  0  0  0  0  0  0  0  0  0  0  0
  196.7592  180.3802  153.1982 C   0  0  0  0  0  0  0  0  0  0  0  0
  196.3548  179.5679  152.1112 C   0  0  0  0  0  0  0  0  0  0  0  0
  196.3507  180.0720  150.7921 C   0  0  0  0  0  0  0  0  0  0  0  0
  196.7502  181.3999  150.5360 C   0  0  0  0  0  0  0  0  0  0  0  0
  197.1509  182.2334  151.5926 C   0  0  0  0  0  0  0  0  0  0  0  0
  196.9016  180.2328  154.6165 C   0  0  0  0  0  0  0  0  0  0  0  0
  196.9563  180.5492  157.7536 H   0  0  0  0  0  0  0  0  0  0  0  0
  198.1075  187.2282  159.6217 H   0  0  0  0  0  0  0  0  0  0  0  0
  196.4176  187.8885  161.3235 H   0  0  0  0  0  0  0  0  0  0  0  0
  194.3301  186.5516  161.5745 H   0  0  0  0  0  0  0  0  0  0  0  0
  195.8183  183.8846  157.1469 H   0  0  0  0  0  0  0  0  0  0  0  0
  193.9523  183.0195  157.2047 H   0  0  0  0  0  0  0  0  0  0  0  0
  197.4470  182.7006  158.9675 H   0  0  0  0  0  0  0  0  0  0  0  0
  195.9987  181.8194  159.3673 H   0  0  0  0  0  0  0  0  0  0  0  0
  197.7223  183.0272  156.4019 H   0  0  0  0  0  0  0  0  0  0  0  0
  201.9107  183.0007  157.6922 H   0  0  0  0  0  0  0  0  0  0  0  0
  202.7291  180.6335  157.8333 H   0  0  0  0  0  0  0  0  0  0  0  0
  201.1245  178.7744  157.3278 H   0  0  0  0  0  0  0  0  0  0  0  0
  198.7808  179.3489  156.6977 H   0  0  0  0  0  0  0  0  0  0  0  0
  196.0539  178.5523  152.3034 H   0  0  0  0  0  0  0  0  0  0  0  0
  196.0499  179.4355  149.9738 H   0  0  0  0  0  0  0  0  0  0  0  0
  196.7531  181.7757  149.5197 H   0  0  0  0  0  0  0  0  0  0  0  0
  197.4650  183.2520  151.4141 H   0  0  0  0  0  0  0  0  0  0  0  0
  196.6941  179.3421  155.1994 H   0  0  0  0  0  0  0  0  0  0  0  0
  195.8355  181.3220  156.9631 H   0  0  0  0  0  0  0  0  0  0  0  0
  1  2  1  0
  2  3  1  0
  2  8  2  0
  3  4  2  0
  3  9  1  0
  4  5  1  0
  4  6  1  0
  6  7  2  0
  6 30  1  0
  7  8  1  0
  7 31  1  0
  8 32  1  0
  9 10  1  0
  9 11  1  0
  9 33  1  6
 10 34  1  0
 11 12  1  0
 11 35  1  1
 11 36  1  0
 12 13  1  0
 12 29  1  1
 12 47  1  0
 13 14  1  0
 13 20  1  0
 13 37  1  6
 14 15  1  0
 14 19  2  0
 15 16  2  0
 16 17  1  0
 16 38  1  0
 17 18  2  0
 17 39  1  0
 18 19  1  0
 18 40  1  0
 19 41  1  0
 20 21  1  0
 20 28  2  0
 21 22  1  0
 22 23  1  0
 22 27  2  0
 23 24  2  0
 23 28  1  0
 24 25  1  0
 24 42  1  0
 25 26  2  0
 25 43  1  0
 26 27  1  0
 26 44  1  0
 27 45  1  0
 28 46  1  0
M  CHG  1  12   1
M  END
>  <s_epik_cmdline>  (271) 
J2VwaWtfcHl0aG9uJywgJy1waCcsICc3LjAwMDAwMCcsICctcGh0JywgJzIuMDAwMDAwJywgJy1tcycsICcxNicsICctdG4nLCAnOCcsICctbWEnLCAnMjAwJywgJy1pbWFlJywgJzxpbmZpbGUubWFlPicsICctb21hZScsICc8b3V0ZmlsZS5tYWU+Jw==

>  <s_epik_input>  (271) 
W2NIXTFbY0hdW2NIXWMoRiljKGMxRilbQ0BIXShbT0hdKVtDSDJdW05IXVtDQEBIXShjMm5bY0hdW2NIXVtjSF1bY0hdMiljKG8zKVtjSF1jKGMzNClbY0hdW2NIXVtjSF1bY0hdNA==

>  <s_i_glide_gridfile>  (271) 
ATP-Grid

>  <s_lp_Force_Field>  (271) 
OPLS_2005

>  <s_lp_Variant>  (271) 
m_269862dba____8258838____13192834-4

>  <s_lp_label>  (271) 
1799_sdstereoexpander_4_neutralizer_1_epik_1_stereoizer_1

>  <s_m_source_file>  (271) 
ATP-VSW-LIGPREP-002-in.maegz

>  <s_sd_BIOSOLVEIT.INFINISEE\_QUERY\_NAME>  (271) 
Ref-Lig

>  <s_sd_BIOSOLVEIT.INFINISEE\_QUERY\_SMILES>  (271) 
S(c1nc2c(cc1C[NH2+]Cc3ccc(cc3)C[NH+](C)C)cccc2)Cc4ccccc4

>  <s_sd_BIOSOLVEIT.INFINISEE\_REACTION\_NAME>  (271) 
m_269862dba

>  <s_sd_BIOSOLVEIT.INFINISEE\_REAGENT1\_SMILES>  (271) 
[R1*]NCC(O)c1c(F)cccc1F

>  <s_sd_BIOSOLVEIT.INFINISEE\_REAGENT2\_SMILES>  (271) 
[R1*]C(c1ncccc1)C=2Oc3c(cccc3)C2

>  <s_sd_BIOSOLVEIT.INFINISEE\_SPACE>  (271) 
REALSpace_44bn_2023-08

>  <s_vsw_compound_code>  (271) 
57538

>  <s_vsw_variant>  (271) 
57538-4

>  <r_epik_Charging_Adjusted_Penalty>  (271) 
0.12574514795471001

>  <r_epik_Ionization_Penalty>  (271) 
0.062899999999999998

>  <r_epik_Ionization_Penalty_Charging>  (271) 
0.062899999999999998

>  <r_epik_Ionization_Penalty_Neutral>  (271) 
0

>  <r_epik_State_Penalty>  (271) 
0.062899999999999998

>  <r_i_docking_score>  (271) 
-6.0665326371034496

>  <r_i_glide_ecoul>  (271) 
-12.564136505126999

>  <r_i_glide_eff_state_penalty>  (271) 
0.062899999999999998

>  <r_i_glide_einternal>  (271) 
7.5242586135864302

>  <r_i_glide_emodel>  (271) 
-65.691495256920604

>  <r_i_glide_energy>  (271) 
-43.463994979858398

>  <r_i_glide_erotb>  (271) 
0.66720451328856201

>  <r_i_glide_esite>  (271) 
-0.10000000000000001

>  <r_i_glide_evdw>  (271) 
-30.899858474731399

>  <r_i_glide_gscore>  (271) 
-6.1294326371034504

>  <r_i_glide_hbond>  (271) 
-0.25128297192503002

>  <r_i_glide_ligand_efficiency>  (271) 
-0.216661879896552

>  <r_i_glide_ligand_efficiency_ln>  (271) 
-1.40033385378155

>  <r_i_glide_ligand_efficiency_sa>  (271) 
-0.65791307438895197

>  <r_i_glide_lipo>  (271) 
-1.84628883856114

>  <r_i_glide_metal>  (271) 
-0

>  <r_i_glide_rewards>  (271) 
-1.1694519404002299

>  <r_lp_Energy>  (271) 
13.514229

>  <r_qp_ACxDN^.5/SA>  (271) 
0.0096881999999999992

>  <r_qp_CIQPlogS>  (271) 
-5.1980000000000004

>  <r_qp_EA(eV)>  (271) 
0.57499999999999996

>  <r_qp_FISA>  (271) 
50.588999999999999

>  <r_qp_FOSA>  (271) 
33.616999999999997

>  <r_qp_IP(eV)>  (271) 
8.7620000000000005

>  <r_qp_Jm>  (271) 
0.059794702352849699

>  <r_qp_PISA>  (271) 
536.15499999999997

>  <r_qp_PSA>  (271) 
50.835000000000001

>  <r_qp_PercentHumanOralAbsorption>  (271) 
100

>  <r_qp_QPPCaco>  (271) 
818.58199999999999

>  <r_qp_QPPMDCK>  (271) 
1009.764

>  <r_qp_QPlogBB>  (271) 
0.16200000000000001

>  <r_qp_QPlogHERG>  (271) 
-8.2029999999999994

>  <r_qp_QPlogKhsa>  (271) 
0.56200000000000006

>  <r_qp_QPlogKp>  (271) 
-1.954

>  <r_qp_QPlogPC16>  (271) 
13.452

>  <r_qp_QPlogPo/w>  (271) 
4.5869999999999997

>  <r_qp_QPlogPoct>  (271) 
19.77

>  <r_qp_QPlogPw>  (271) 
11.398999999999999

>  <r_qp_QPlogS>  (271) 
-4.8499999999999996

>  <r_qp_QPpolrz>  (271) 
42.006999999999998

>  <r_qp_SASA>  (271) 
686.07100000000003

>  <r_qp_SAamideO>  (271) 
0

>  <r_qp_SAfluorine>  (271) 
65.709999999999994

>  <r_qp_WPSA>  (271) 
65.709999999999994

>  <r_qp_accptHB>  (271) 
4.7000000000000002

>  <r_qp_dip^2/V>  (271) 
0.0189982

>  <r_qp_dipole>  (271) 
4.75

>  <r_qp_donorHB>  (271) 
2

>  <r_qp_glob>  (271) 
0.79059610000000002

>  <r_qp_mol_MW>  (271) 
380.39299999999997

>  <r_qp_volume>  (271) 
1187.7860000000001

>  <r_sd_BIOSOLVEIT.INFINISEE\_FTREES\_SIMILARITY>  (271) 
0.90400000000000003

>  <r_sd_BIOSOLVEIT.LOGP>  (271) 
3.4923999999999999

>  <r_sd_BIOSOLVEIT.MOLECULAR\_WEIGHT>  (271) 
381.39999999999998

>  <r_sd_BIOSOLVEIT.TPSA>  (271) 
62.869999999999997

>  <i_epik_Tot_Q>  (271) 
1

>  <i_epik_Tot_abs_Q>  (271) 
1

>  <i_f3d_flags>  (271) 
0

>  <i_i_glide_confnum>  (271) 
5

>  <i_i_glide_lignum>  (271) 
626

>  <i_i_glide_posenum>  (271) 
6

>  <i_i_glide_rotatable_bonds>  (271) 
7

>  <i_lp_mmshare_version>  (271) 
65135

>  <i_m_ct_format>  (271) 
2

>  <i_m_source_file_index>  (271) 
1799

>  <i_qp_#NandO>  (271) 
4

>  <i_qp_#acid>  (271) 
0

>  <i_qp_#amide>  (271) 
0

>  <i_qp_#amidine>  (271) 
0

>  <i_qp_#amine>  (271) 
1

>  <i_qp_#in34>  (271) 
0

>  <i_qp_#in56>  (271) 
21

>  <i_qp_#metab>  (271) 
7

>  <i_qp_#nonHatm>  (271) 
28

>  <i_qp_#noncon>  (271) 
0

>  <i_qp_#ringatoms>  (271) 
21

>  <i_qp_#rotor>  (271) 
7

>  <i_qp_#rtvFG>  (271) 
0

>  <i_qp_#stars>  (271) 
1

>  <i_qp_CNS>  (271) 
1

>  <i_qp_HumanOralAbsorption>  (271) 
3

>  <i_qp_RuleOfFive>  (271) 
0

>  <i_qp_RuleOfThree>  (271) 
1

>  <i_sd_BIOSOLVEIT.INFINISEE\_REAGENT1\_NAME>  (271) 
8258838

>  <i_sd_BIOSOLVEIT.INFINISEE\_REAGENT2\_NAME>  (271) 
13192834

>  <i_sd_BIOSOLVEIT.INFINISEE\_RESULT\_RANK>  (271) 
77811

>  <i_sd_version>  (271) 
0

>  <b_lp_Chiralities_Consistent>  (271) 
1

>  <b_sd_chiral_flag>  (271) 
0

>  <canonical_id>  (271) 
ATP-HTVS-2C5504015D66

>  <compound_code>  (271) 
57538

>  <title>  (271) 
m_269862dba____8258838____13192834

>  <variant>  (271) 
57538-4

>  <source_file>  (271) 
运行/运行/ATP-VSW/ATP-VSW-DOCK_HTVS_1-002_lib.maegz

>  <canonical_smiles>  (271) 
O[C@H](C[NH2+][C@@H](c1ccccn1)c1cc2ccccc2o1)c1c(F)cccc1F

>  <scaffold>  (271) 
c1ccc(CC[NH2+]C(c2ccccn2)c2cc3ccccc3o2)cc1

>  <molecular_formula>  (271) 
C22H19F2N2O2+

$$$$
ATP-HTVS-2C72C850E8DC
     RDKit          3D

 63 66  0  0  0  0  0  0  0  0999 V2000
  200.2956  181.2838  153.1185 O   0  0  0  0  0  0  0  0  0  0  0  0
  199.3198  181.7652  153.6905 C   0  0  0  0  0  0  0  0  0  0  0  0
  198.1879  181.1414  154.0943 N   0  0  0  0  0  0  0  0  0  0  0  0
  197.2432  182.0284  154.8069 C   0  0  2  0  0  0  0  0  0  0  0  0
  197.9324  183.3727  154.6732 C   0  0  0  0  0  0  0  0  0  0  0  0
  199.1494  183.1937  154.0437 C   0  0  0  0  0  0  0  0  0  0  0  0
  200.0222  184.2678  153.7861 C   0  0  0  0  0  0  0  0  0  0  0  0
  199.6021  185.5621  154.1756 C   0  0  0  0  0  0  0  0  0  0  0  0
  198.3466  185.7526  154.8032 C   0  0  0  0  0  0  0  0  0  0  0  0
  197.4971  184.6512  155.0608 C   0  0  0  0  0  0  0  0  0  0  0  0
  197.0892  181.5883  156.2843 C   0  0  1  0  0  0  0  0  0  0  0  0
  195.9451  182.2149  156.9356 N   0  0  0  0  0  0  0  0  0  0  0  0
  195.9713  182.7716  158.1493 C   0  0  0  0  0  0  0  0  0  0  0  0
  196.9565  182.7911  158.8800 O   0  0  0  0  0  0  0  0  0  0  0  0
  194.7989  183.3515  158.4488 N   0  0  0  0  0  0  0  0  0  0  0  0
  194.5401  184.1931  159.6158 C   0  0  1  0  0  0  0  0  0  0  0  0
  195.3362  185.5009  159.6902 C   0  0  0  0  0  0  0  0  0  0  0  0
  195.1890  186.3291  160.8283 C   0  0  0  0  0  0  0  0  0  0  0  0
  195.9366  187.5251  160.9410 C   0  0  0  0  0  0  0  0  0  0  0  0
  196.8566  187.8999  159.9493 C   0  0  0  0  0  0  0  0  0  0  0  0
  197.5638  189.1072  160.0915 N   0  0  0  0  0  0  0  0  0  0  0  0
  198.3891  189.6405  159.0131 C   0  0  2  0  0  0  0  0  0  0  0  0
  199.1666  190.8580  159.5221 C   0  0  2  0  0  0  0  0  0  0  0  0
  197.5522  190.0314  157.7638 C   0  0  2  0  0  0  0  0  0  0  0  0
  197.0207  187.0531  158.8243 C   0  0  0  0  0  0  0  0  0  0  0  0
  196.2314  185.9026  158.6703 C   0  0  0  0  0  0  0  0  0  0  0  0
  197.8393  179.7557  153.7819 C   0  0  1  0  0  0  0  0  0  0  0  0
  197.5261  179.5125  152.3137 C   0  0  0  0  0  0  0  0  0  0  0  0
  198.4004  178.7324  151.5295 C   0  0  0  0  0  0  0  0  0  0  0  0
  198.1194  178.5015  150.1697 C   0  0  0  0  0  0  0  0  0  0  0  0
  196.9631  179.0545  149.5873 C   0  0  0  0  0  0  0  0  0  0  0  0
  196.0882  179.8371  150.3660 C   0  0  0  0  0  0  0  0  0  0  0  0
  196.3681  180.0652  151.7277 C   0  0  0  0  0  0  0  0  0  0  0  0
  196.2858  182.0392  154.2905 H   0  0  0  0  0  0  0  0  0  0  0  0
  200.9697  184.1123  153.2893 H   0  0  0  0  0  0  0  0  0  0  0  0
  200.2372  186.4134  153.9772 H   0  0  0  0  0  0  0  0  0  0  0  0
  198.0290  186.7480  155.0755 H   0  0  0  0  0  0  0  0  0  0  0  0
  196.5354  184.7828  155.5289 H   0  0  0  0  0  0  0  0  0  0  0  0
  196.8962  180.5215  156.3470 H   0  0  0  0  0  0  0  0  0  0  0  0
  198.0322  181.7396  156.8250 H   0  0  0  0  0  0  0  0  0  0  0  0
  195.0751  182.2394  156.4051 H   0  0  0  0  0  0  0  0  0  0  0  0
  194.0417  183.2092  157.7968 H   0  0  0  0  0  0  0  0  0  0  0  0
  193.4787  184.4533  159.6131 H   0  0  0  0  0  0  0  0  0  0  0  0
  194.7286  183.6063  160.5194 H   0  0  0  0  0  0  0  0  0  0  0  0
  194.5031  186.0573  161.6199 H   0  0  0  0  0  0  0  0  0  0  0  0
  195.8051  188.1603  161.8077 H   0  0  0  0  0  0  0  0  0  0  0  0
  197.6951  189.4880  161.0246 H   0  0  0  0  0  0  0  0  0  0  0  0
  199.1255  188.8773  158.7466 H   0  0  0  0  0  0  0  0  0  0  0  0
  199.8081  191.2622  158.7396 H   0  0  0  0  0  0  0  0  0  0  0  0
  199.7970  190.5942  160.3732 H   0  0  0  0  0  0  0  0  0  0  0  0
  198.4827  191.6475  159.8383 H   0  0  0  0  0  0  0  0  0  0  0  0
  198.1933  190.4340  156.9762 H   0  0  0  0  0  0  0  0  0  0  0  0
  196.8185  190.7982  158.0172 H   0  0  0  0  0  0  0  0  0  0  0  0
  196.9985  189.2033  157.3145 H   0  0  0  0  0  0  0  0  0  0  0  0
  197.7496  187.2627  158.0552 H   0  0  0  0  0  0  0  0  0  0  0  0
  196.3593  185.3488  157.7490 H   0  0  0  0  0  0  0  0  0  0  0  0
  198.6611  179.1114  154.0995 H   0  0  0  0  0  0  0  0  0  0  0  0
  196.9723  179.4365  154.3631 H   0  0  0  0  0  0  0  0  0  0  0  0
  199.2932  178.3106  151.9663 H   0  0  0  0  0  0  0  0  0  0  0  0
  198.7870  177.8921  149.5764 H   0  0  0  0  0  0  0  0  0  0  0  0
  196.7436  178.8649  148.5474 H   0  0  0  0  0  0  0  0  0  0  0  0
  195.1912  180.2426  149.9260 H   0  0  0  0  0  0  0  0  0  0  0  0
  195.6938  180.6594  152.3262 H   0  0  0  0  0  0  0  0  0  0  0  0
  1  2  2  0
  2  3  1  0
  2  6  1  0
  3  4  1  0
  3 27  1  0
  4  5  1  0
  4 11  1  0
  4 34  1  6
  5  6  1  0
  5 10  2  0
  6  7  2  0
  7  8  1  0
  7 35  1  0
  8  9  2  0
  8 36  1  0
  9 10  1  0
  9 37  1  0
 10 38  1  0
 11 12  1  0
 11 39  1  6
 11 40  1  0
 12 13  1  0
 12 41  1  0
 13 14  2  0
 13 15  1  0
 15 16  1  0
 15 42  1  0
 16 17  1  0
 16 43  1  1
 16 44  1  0
 17 18  1  0
 17 26  2  0
 18 19  2  0
 18 45  1  0
 19 20  1  0
 19 46  1  0
 20 21  1  0
 20 25  2  0
 21 22  1  0
 21 47  1  0
 22 23  1  0
 22 24  1  0
 22 48  1  6
 23 49  1  6
 23 50  1  0
 23 51  1  0
 24 52  1  6
 24 53  1  0
 24 54  1  0
 25 26  1  0
 25 55  1  0
 26 56  1  0
 27 28  1  0
 27 57  1  1
 27 58  1  0
 28 29  2  0
 28 33  1  0
 29 30  1  0
 29 59  1  0
 30 31  2  0
 30 60  1  0
 31 32  1  0
 31 61  1  0
 32 33  2  0
 32 62  1  0
 33 63  1  0
M  END
>  <s_epik_cmdline>  (272) 
J2VwaWtfcHl0aG9uJywgJy1waCcsICc3LjAwMDAwMCcsICctcGh0JywgJzIuMDAwMDAwJywgJy1tcycsICcxNicsICctdG4nLCAnOCcsICctbWEnLCAnMjAwJywgJy1pbWFlJywgJzxpbmZpbGUubWFlPicsICctb21hZScsICc8b3V0ZmlsZS5tYWU+Jw==

>  <s_epik_input>  (272) 
W2NIXTFbY0hdW2NIXVtjSF1bY0hdYzFbQ0gyXU4oQyg9TyljKGMyMylbY0hdW2NIXVtjSF1bY0hdMylbQ0BIXTJbQ0gyXVtOSF1DKD1PKVtOSF1bQ0gyXWM0W2NIXVtjSF1jKFtjSF1bY0hdNClbTkhdW0NIXShbQ0gzXSlbQ0gzXQ==

>  <s_i_glide_gridfile>  (272) 
ATP-Grid

>  <s_lp_Force_Field>  (272) 
OPLS_2005

>  <s_lp_Variant>  (272) 
m_2708bba____23827856____12219706-1

>  <s_lp_label>  (272) 
1174_sdstereoexpander_1_neutralizer_1_epik_1_stereoizer_1

>  <s_m_source_file>  (272) 
ATP-VSW-LIGPREP-002-in.maegz

>  <s_sd_BIOSOLVEIT.INFINISEE\_QUERY\_NAME>  (272) 
Ref-Lig

>  <s_sd_BIOSOLVEIT.INFINISEE\_QUERY\_SMILES>  (272) 
S(c1nc2c(cc1C[NH2+]Cc3ccc(cc3)C[NH+](C)C)cccc2)Cc4ccccc4

>  <s_sd_BIOSOLVEIT.INFINISEE\_REACTION\_NAME>  (272) 
m_2708bba

>  <s_sd_BIOSOLVEIT.INFINISEE\_REAGENT1\_SMILES>  (272) 
[R1*]C(=O)NCc1ccc(NC(C)C)cc1

>  <s_sd_BIOSOLVEIT.INFINISEE\_REAGENT2\_SMILES>  (272) 
[R1*]NCC1N(C(=O)c2c1cccc2)Cc3ccccc3

>  <s_sd_BIOSOLVEIT.INFINISEE\_SPACE>  (272) 
REALSpace_44bn_2023-08

>  <s_vsw_compound_code>  (272) 
37538

>  <s_vsw_variant>  (272) 
37538-1

>  <r_epik_Charging_Adjusted_Penalty>  (272) 
0.0276543039450898

>  <r_epik_Ionization_Penalty>  (272) 
0.027699999999999999

>  <r_epik_Ionization_Penalty_Charging>  (272) 
0

>  <r_epik_Ionization_Penalty_Neutral>  (272) 
0.027699999999999999

>  <r_epik_State_Penalty>  (272) 
0.027699999999999999

>  <r_i_docking_score>  (272) 
-5.0907361036433096

>  <r_i_glide_ecoul>  (272) 
-5.5740466117858896

>  <r_i_glide_eff_state_penalty>  (272) 
0.027699999999999999

>  <r_i_glide_einternal>  (272) 
2.4785785675048801

>  <r_i_glide_emodel>  (272) 
-58.573553310053804

>  <r_i_glide_energy>  (272) 
-44.394790172576897

>  <r_i_glide_erotb>  (272) 
0.91833612780457796

>  <r_i_glide_esite>  (272) 
-0.21505062822440199

>  <r_i_glide_evdw>  (272) 
-38.820743560791001

>  <r_i_glide_gscore>  (272) 
-5.1184361036433099

>  <r_i_glide_hbond>  (272) 
-0.25051419073075798

>  <r_i_glide_ligand_efficiency>  (272) 
-0.154264730413434

>  <r_i_glide_ligand_efficiency_ln>  (272) 
-1.1321533510294

>  <r_i_glide_ligand_efficiency_sa>  (272) 
-0.49480941813193802

>  <r_i_glide_lipo>  (272) 
-2.4023771063216599

>  <r_i_glide_metal>  (272) 
-0

>  <r_i_glide_rewards>  (272) 
-0.39168613636363397

>  <r_lp_Energy>  (272) 
36.611966000000002

>  <r_qp_ACxDN^.5/SA>  (272) 
0.013589499999999999

>  <r_qp_CIQPlogS>  (272) 
-6.1989999999999998

>  <r_qp_EA(eV)>  (272) 
0.376

>  <r_qp_FISA>  (272) 
114.099

>  <r_qp_FOSA>  (272) 
272.45299999999997

>  <r_qp_IP(eV)>  (272) 
8.1069999999999993

>  <r_qp_Jm>  (272) 
0.036052546676744603

>  <r_qp_PISA>  (272) 
378.178

>  <r_qp_PSA>  (272) 
85.721000000000004

>  <r_qp_PercentHumanOralAbsorption>  (272) 
100

>  <r_qp_QPPCaco>  (272) 
511.81900000000002

>  <r_qp_QPPMDCK>  (272) 
399.28300000000002

>  <r_qp_QPlogBB>  (272) 
-1.1100000000000001

>  <r_qp_QPlogHERG>  (272) 
-5.2110000000000003

>  <r_qp_QPlogKhsa>  (272) 
0.51100000000000001

>  <r_qp_QPlogKp>  (272) 
-1.522

>  <r_qp_QPlogPC16>  (272) 
15.609

>  <r_qp_QPlogPo/w>  (272) 
4.3719999999999999

>  <r_qp_QPlogPoct>  (272) 
24.989000000000001

>  <r_qp_QPlogPw>  (272) 
15.351000000000001

>  <r_qp_QPlogS>  (272) 
-5.5670000000000002

>  <r_qp_QPpolrz>  (272) 
49.173000000000002

>  <r_qp_SASA>  (272) 
764.73099999999999

>  <r_qp_SAamideO>  (272) 
25.725999999999999

>  <r_qp_SAfluorine>  (272) 
0

>  <r_qp_WPSA>  (272) 
0

>  <r_qp_accptHB>  (272) 
6

>  <r_qp_dip^2/V>  (272) 
0.073203599999999994

>  <r_qp_dipole>  (272) 
10.198

>  <r_qp_donorHB>  (272) 
3

>  <r_qp_glob>  (272) 
0.79916229999999999

>  <r_qp_mol_MW>  (272) 
442.56

>  <r_qp_volume>  (272) 
1420.587

>  <r_sd_BIOSOLVEIT.INFINISEE\_FTREES\_SIMILARITY>  (272) 
0.91200000000000003

>  <r_sd_BIOSOLVEIT.LOGP>  (272) 
4.7034000000000002

>  <r_sd_BIOSOLVEIT.MOLECULAR\_WEIGHT>  (272) 
442.56

>  <r_sd_BIOSOLVEIT.TPSA>  (272) 
73.469999999999999

>  <i_epik_Tot_Q>  (272) 
0

>  <i_epik_Tot_abs_Q>  (272) 
0

>  <i_f3d_flags>  (272) 
0

>  <i_i_glide_confnum>  (272) 
9

>  <i_i_glide_lignum>  (272) 
396

>  <i_i_glide_posenum>  (272) 
11

>  <i_i_glide_rotatable_bonds>  (272) 
10

>  <i_lp_mmshare_version>  (272) 
65135

>  <i_m_ct_format>  (272) 
2

>  <i_m_source_file_index>  (272) 
1174

>  <i_qp_#NandO>  (272) 
6

>  <i_qp_#acid>  (272) 
0

>  <i_qp_#amide>  (272) 
1

>  <i_qp_#amidine>  (272) 
0

>  <i_qp_#amine>  (272) 
0

>  <i_qp_#in34>  (272) 
0

>  <i_qp_#in56>  (272) 
21

>  <i_qp_#metab>  (272) 
5

>  <i_qp_#nonHatm>  (272) 
33

>  <i_qp_#noncon>  (272) 
1

>  <i_qp_#ringatoms>  (272) 
21

>  <i_qp_#rotor>  (272) 
8

>  <i_qp_#rtvFG>  (272) 
0

>  <i_qp_#stars>  (272) 
0

>  <i_qp_CNS>  (272) 
-2

>  <i_qp_HumanOralAbsorption>  (272) 
3

>  <i_qp_RuleOfFive>  (272) 
0

>  <i_qp_RuleOfThree>  (272) 
0

>  <i_sd_BIOSOLVEIT.INFINISEE\_REAGENT1\_NAME>  (272) 
23827856

>  <i_sd_BIOSOLVEIT.INFINISEE\_REAGENT2\_NAME>  (272) 
12219706

>  <i_sd_BIOSOLVEIT.INFINISEE\_RESULT\_RANK>  (272) 
38423

>  <i_sd_version>  (272) 
0

>  <b_lp_Chiralities_Consistent>  (272) 
1

>  <b_sd_chiral_flag>  (272) 
0

>  <canonical_id>  (272) 
ATP-HTVS-2C72C850E8DC

>  <compound_code>  (272) 
37538

>  <title>  (272) 
m_2708bba____23827856____12219706

>  <variant>  (272) 
37538-1

>  <source_file>  (272) 
运行/运行/ATP-VSW/ATP-VSW-DOCK_HTVS_1-002_lib.maegz

>  <canonical_smiles>  (272) 
CC(C)Nc1ccc(CNC(=O)NC[C@H]2c3ccccc3C(=O)N2Cc2ccccc2)cc1

>  <scaffold>  (272) 
O=C(NCc1ccccc1)NCC1c2ccccc2C(=O)N1Cc1ccccc1

>  <molecular_formula>  (272) 
C27H30N4O2

$$$$
ATP-HTVS-2C852BECD08A
     RDKit          3D

 57 59  0  0  0  0  0  0  0  0999 V2000
  201.5862  175.8727  156.1096 Cl  0  0  0  0  0  0  0  0  0  0  0  0
  200.6454  177.1351  155.3877 C   0  0  0  0  0  0  0  0  0  0  0  0
  200.7694  177.4449  154.0151 C   0  0  0  0  0  0  0  0  0  0  0  0
  199.9601  178.4602  153.4463 C   0  0  0  0  0  0  0  0  0  0  0  0
  199.0107  179.1694  154.2294 C   0  0  0  0  0  0  0  0  0  0  0  0
  198.8952  178.8248  155.6004 C   0  0  0  0  0  0  0  0  0  0  0  0
  199.7163  177.8362  156.1701 C   0  0  0  0  0  0  0  0  0  0  0  0
  198.1528  180.2156  153.6368 C   0  0  0  0  0  0  0  0  0  0  0  0
  197.7555  180.0713  152.3917 N   0  0  0  0  0  0  0  0  0  0  0  0
  196.9563  181.1156  152.1131 N   0  0  0  0  0  0  0  0  0  0  0  0
  196.8788  181.9777  153.1817 C   0  0  0  0  0  0  0  0  0  0  0  0
  197.6182  181.4254  154.1948 C   0  0  0  0  0  0  0  0  0  0  0  0
  197.8228  181.9856  155.5645 C   0  0  1  0  0  0  0  0  0  0  0  0
  196.9225  181.3027  156.5076 N   0  0  1  0  0  0  0  0  0  0  0  0
  197.1712  181.5728  157.9287 C   0  0  1  0  0  0  0  0  0  0  0  0
  196.1287  182.5185  158.4582 C   0  0  0  0  0  0  0  0  0  0  0  0
  196.5109  183.6595  159.1875 C   0  0  0  0  0  0  0  0  0  0  0  0
  195.5263  184.5506  159.6558 C   0  0  0  0  0  0  0  0  0  0  0  0
  194.1676  184.2928  159.3819 C   0  0  0  0  0  0  0  0  0  0  0  0
  193.7897  183.1685  158.6238 C   0  0  0  0  0  0  0  0  0  0  0  0
  194.7671  182.2619  158.1964 C   0  0  0  0  0  0  0  0  0  0  0  0
  195.9335  185.7732  160.4561 C   0  0  1  0  0  0  0  0  0  0  0  0
  195.9863  187.0076  159.6352 N   0  0  2  0  0  0  0  0  0  0  0  0
  196.9909  186.9662  158.5452 C   0  0  2  0  0  0  0  0  0  0  0  0
  196.1491  188.2165  160.4782 C   0  0  2  0  0  0  0  0  0  0  0  0
  196.3578  181.2411  150.7927 C   0  0  1  0  0  0  0  0  0  0  0  0
  195.8187  179.9004  150.2602 C   0  0  1  0  0  0  0  0  0  0  0  0
  196.8790  178.9601  149.8560 C   0  0  0  0  0  0  0  0  0  0  0  0
  197.7057  178.2242  149.5398 N   0  0  0  0  0  0  0  0  0  0  0  0
  195.9568  181.4962  156.2892 H   0  0  0  0  0  0  0  0  0  0  0  0
  201.4761  176.8955  153.3983 H   0  0  0  0  0  0  0  0  0  0  0  0
  200.0552  178.6758  152.3900 H   0  0  0  0  0  0  0  0  0  0  0  0
  198.1621  179.2307  156.2664 H   0  0  0  0  0  0  0  0  0  0  0  0
  199.5831  177.6062  157.2163 H   0  0  0  0  0  0  0  0  0  0  0  0
  196.3050  182.8932  153.1488 H   0  0  0  0  0  0  0  0  0  0  0  0
  198.8582  181.8416  155.8796 H   0  0  0  0  0  0  0  0  0  0  0  0
  197.6483  183.0599  155.5988 H   0  0  0  0  0  0  0  0  0  0  0  0
  197.1527  180.6416  158.4934 H   0  0  0  0  0  0  0  0  0  0  0  0
  198.1652  181.9985  158.0818 H   0  0  0  0  0  0  0  0  0  0  0  0
  197.5602  183.8486  159.3846 H   0  0  0  0  0  0  0  0  0  0  0  0
  193.4026  184.9674  159.7337 H   0  0  0  0  0  0  0  0  0  0  0  0
  192.7558  182.9894  158.3750 H   0  0  0  0  0  0  0  0  0  0  0  0
  194.4629  181.3919  157.6292 H   0  0  0  0  0  0  0  0  0  0  0  0
  195.2084  185.8944  161.2592 H   0  0  0  0  0  0  0  0  0  0  0  0
  196.9020  185.6017  160.9279 H   0  0  0  0  0  0  0  0  0  0  0  0
  197.9958  186.8165  158.9434 H   0  0  0  0  0  0  0  0  0  0  0  0
  196.9862  187.8991  157.9797 H   0  0  0  0  0  0  0  0  0  0  0  0
  196.7783  186.1648  157.8369 H   0  0  0  0  0  0  0  0  0  0  0  0
  197.1095  188.2085  160.9964 H   0  0  0  0  0  0  0  0  0  0  0  0
  195.3592  188.2793  161.2278 H   0  0  0  0  0  0  0  0  0  0  0  0
  196.1017  189.1246  159.8743 H   0  0  0  0  0  0  0  0  0  0  0  0
  195.5492  181.9771  150.8573 H   0  0  0  0  0  0  0  0  0  0  0  0
  197.0990  181.6588  150.1115 H   0  0  0  0  0  0  0  0  0  0  0  0
  195.1821  179.4246  151.0046 H   0  0  0  0  0  0  0  0  0  0  0  0
  195.2079  180.0490  149.3757 H   0  0  0  0  0  0  0  0  0  0  0  0
  195.0869  187.0811  159.1813 H   0  0  0  0  0  0  0  0  0  0  0  0
  197.0450  180.2956  156.4232 H   0  0  0  0  0  0  0  0  0  0  0  0
  1  2  1  0
  2  3  1  0
  2  7  2  0
  3  4  2  0
  3 31  1  0
  4  5  1  0
  4 32  1  0
  5  6  2  0
  5  8  1  0
  6  7  1  0
  6 33  1  0
  7 34  1  0
  8  9  2  0
  8 12  1  0
  9 10  1  0
 10 11  1  0
 10 26  1  0
 11 12  2  0
 11 35  1  0
 12 13  1  0
 13 14  1  0
 13 36  1  1
 13 37  1  0
 14 15  1  0
 14 30  1  6
 14 57  1  0
 15 16  1  0
 15 38  1  1
 15 39  1  0
 16 17  2  0
 16 21  1  0
 17 18  1  0
 17 40  1  0
 18 19  2  0
 18 22  1  0
 19 20  1  0
 19 41  1  0
 20 21  2  0
 20 42  1  0
 21 43  1  0
 22 23  1  0
 22 44  1  1
 22 45  1  0
 23 24  1  0
 23 25  1  0
 23 56  1  6
 24 46  1  1
 24 47  1  0
 24 48  1  0
 25 49  1  1
 25 50  1  0
 25 51  1  0
 26 27  1  0
 26 52  1  1
 26 53  1  0
 27 28  1  0
 27 54  1  1
 27 55  1  0
 28 29  3  0
M  CHG  2  14   1  23   1
M  END
>  <s_epik_cmdline>  (273) 
J2VwaWtfcHl0aG9uJywgJy1waCcsICc3LjAwMDAwMCcsICctcGh0JywgJzIuMDAwMDAwJywgJy1tcycsICcxNicsICctdG4nLCAnOCcsICctbWEnLCAnMjAwJywgJy1pbWFlJywgJzxpbmZpbGUubWFlPicsICctb21hZScsICc8b3V0ZmlsZS5tYWU+Jw==

>  <s_epik_input>  (273) 
Q2xjMVtjSF1bY0hdYyhbY0hdW2NIXTEpLWMybm4oW0NIMl1bQ0gyXUMjTilbY0hdYzJbQ0gyXVtOSF1bQ0gyXWMzW2NIXWMoW2NIXVtjSF1bY0hdMylbQ0gyXU4oW0NIM10pW0NIM10=

>  <s_i_glide_gridfile>  (273) 
ATP-Grid

>  <s_lp_Force_Field>  (273) 
OPLS_2005

>  <s_lp_Variant>  (273) 
m_270004bbb____8349656____24714838-1

>  <s_lp_label>  (273) 
863_sdstereoexpander_1_neutralizer_1_epik_1_stereoizer_1

>  <s_m_source_file>  (273) 
ATP-VSW-LIGPREP-001-in.maegz

>  <s_sd_BIOSOLVEIT.INFINISEE\_QUERY\_NAME>  (273) 
Ref-Lig

>  <s_sd_BIOSOLVEIT.INFINISEE\_QUERY\_SMILES>  (273) 
S(c1nc2c(cc1C[NH2+]Cc3ccc(cc3)C[NH+](C)C)cccc2)Cc4ccccc4

>  <s_sd_BIOSOLVEIT.INFINISEE\_REACTION\_NAME>  (273) 
m_270004bbb

>  <s_sd_BIOSOLVEIT.INFINISEE\_REAGENT1\_SMILES>  (273) 
[R1*]NCc1cc(ccc1)CN(C)C

>  <s_sd_BIOSOLVEIT.INFINISEE\_REAGENT2\_SMILES>  (273) 
[R1*]CC=1C(=NN(C1)CCC#N)c2ccc(Cl)cc2

>  <s_sd_BIOSOLVEIT.INFINISEE\_SPACE>  (273) 
REALSpace_44bn_2023-08

>  <s_vsw_compound_code>  (273) 
27585

>  <s_vsw_variant>  (273) 
27585-1

>  <r_epik_Charging_Adjusted_Penalty>  (273) 
0.323109665142296

>  <r_epik_Ionization_Penalty>  (273) 
0.16259999999999999

>  <r_epik_Ionization_Penalty_Charging>  (273) 
0.16259999999999999

>  <r_epik_Ionization_Penalty_Neutral>  (273) 
0

>  <r_epik_State_Penalty>  (273) 
0.1605

>  <r_i_docking_score>  (273) 
-5.3291712548359902

>  <r_i_glide_ecoul>  (273) 
-11.488767623901399

>  <r_i_glide_eff_state_penalty>  (273) 
0.1605

>  <r_i_glide_einternal>  (273) 
5.0792574882507298

>  <r_i_glide_emodel>  (273) 
-69.769267877177398

>  <r_i_glide_energy>  (273) 
-47.125265121459996

>  <r_i_glide_erotb>  (273) 
0.820345516058265

>  <r_i_glide_esite>  (273) 
-0.087229086443975104

>  <r_i_glide_evdw>  (273) 
-35.636497497558601

>  <r_i_glide_gscore>  (273) 
-5.4896712548359901

>  <r_i_glide_hbond>  (273) 
-0.0218981185668327

>  <r_i_glide_ligand_efficiency>  (273) 
-0.18376452602882701

>  <r_i_glide_ligand_efficiency_ln>  (273) 
-1.22024508123428

>  <r_i_glide_ligand_efficiency_sa>  (273) 
-0.56458284464884501

>  <r_i_glide_lipo>  (273) 
-1.64874521387116

>  <r_i_glide_metal>  (273) 
-0

>  <r_i_glide_rewards>  (273) 
-1.0470043335491599

>  <r_lp_Energy>  (273) 
14.295503999999999

>  <r_lp_tautomer_probability>  (273) 
1

>  <r_qp_ACxDN^.5/SA>  (273) 
0.0092557000000000004

>  <r_qp_CIQPlogS>  (273) 
-4.8289999999999997

>  <r_qp_EA(eV)>  (273) 
0.45200000000000001

>  <r_qp_FISA>  (273) 
96.686999999999998

>  <r_qp_FOSA>  (273) 
289.49700000000001

>  <r_qp_IP(eV)>  (273) 
8.9689999999999994

>  <r_qp_Jm>  (273) 
0.00012627764702607101

>  <r_qp_PISA>  (273) 
275.61200000000002

>  <r_qp_PSA>  (273) 
58.231000000000002

>  <r_qp_PercentHumanOralAbsorption>  (273) 
81.959999999999994

>  <r_qp_QPPCaco>  (273) 
74.614000000000004

>  <r_qp_QPPMDCK>  (273) 
61.021000000000001

>  <r_qp_QPlogBB>  (273) 
-0.012

>  <r_qp_QPlogHERG>  (273) 
-7.0039999999999996

>  <r_qp_QPlogKhsa>  (273) 
0.57499999999999996

>  <r_qp_QPlogKp>  (273) 
-5.5919999999999996

>  <r_qp_QPlogPC16>  (273) 
13.683999999999999

>  <r_qp_QPlogPo/w>  (273) 
3.6709999999999998

>  <r_qp_QPlogPoct>  (273) 
19.658999999999999

>  <r_qp_QPlogPw>  (273) 
9.8369999999999997

>  <r_qp_QPlogS>  (273) 
-3.9180000000000001

>  <r_qp_QPpolrz>  (273) 
43.924999999999997

>  <r_qp_SASA>  (273) 
702.26900000000001

>  <r_qp_SAamideO>  (273) 
0

>  <r_qp_SAfluorine>  (273) 
0

>  <r_qp_WPSA>  (273) 
40.472999999999999

>  <r_qp_accptHB>  (273) 
6.5

>  <r_qp_dip^2/V>  (273) 
0.0087173000000000007

>  <r_qp_dipole>  (273) 
3.4049999999999998

>  <r_qp_donorHB>  (273) 
1

>  <r_qp_glob>  (273) 
0.83283260000000003

>  <r_qp_mol_MW>  (273) 
407.94499999999999

>  <r_qp_volume>  (273) 
1329.979

>  <r_sd_BIOSOLVEIT.INFINISEE\_FTREES\_SIMILARITY>  (273) 
0.92000000000000004

>  <r_sd_BIOSOLVEIT.LOGP>  (273) 
2.02528

>  <r_sd_BIOSOLVEIT.MOLECULAR\_WEIGHT>  (273) 
409.96199999999999

>  <r_sd_BIOSOLVEIT.TPSA>  (273) 
62.659999999999997

>  <i_epik_Tot_Q>  (273) 
2

>  <i_epik_Tot_abs_Q>  (273) 
2

>  <i_f3d_flags>  (273) 
0

>  <i_i_glide_confnum>  (273) 
9

>  <i_i_glide_lignum>  (273) 
147

>  <i_i_glide_posenum>  (273) 
12

>  <i_i_glide_rotatable_bonds>  (273) 
9

>  <i_lp_mmshare_version>  (273) 
65135

>  <i_m_ct_format>  (273) 
2

>  <i_m_source_file_index>  (273) 
863

>  <i_qp_#NandO>  (273) 
5

>  <i_qp_#acid>  (273) 
0

>  <i_qp_#amide>  (273) 
0

>  <i_qp_#amidine>  (273) 
0

>  <i_qp_#amine>  (273) 
2

>  <i_qp_#in34>  (273) 
0

>  <i_qp_#in56>  (273) 
17

>  <i_qp_#metab>  (273) 
6

>  <i_qp_#nonHatm>  (273) 
29

>  <i_qp_#noncon>  (273) 
0

>  <i_qp_#ringatoms>  (273) 
17

>  <i_qp_#rotor>  (273) 
9

>  <i_qp_#rtvFG>  (273) 
0

>  <i_qp_#stars>  (273) 
0

>  <i_qp_CNS>  (273) 
1

>  <i_qp_HumanOralAbsorption>  (273) 
3

>  <i_qp_RuleOfFive>  (273) 
0

>  <i_qp_RuleOfThree>  (273) 
0

>  <i_sd_BIOSOLVEIT.INFINISEE\_REAGENT1\_NAME>  (273) 
8349656

>  <i_sd_BIOSOLVEIT.INFINISEE\_REAGENT2\_NAME>  (273) 
24714838

>  <i_sd_BIOSOLVEIT.INFINISEE\_RESULT\_RANK>  (273) 
15969

>  <i_sd_version>  (273) 
0

>  <b_lp_Chiralities_Consistent>  (273) 
1

>  <b_sd_chiral_flag>  (273) 
0

>  <canonical_id>  (273) 
ATP-HTVS-2C852BECD08A

>  <compound_code>  (273) 
27585

>  <title>  (273) 
m_270004bbb____8349656____24714838

>  <variant>  (273) 
27585-1

>  <source_file>  (273) 
运行/运行/ATP-VSW/ATP-VSW-DOCK_HTVS_1-001_lib/ATP-VSW-DOCK_HTVS_1-001_lib

>  <canonical_smiles>  (273) 
C[NH+](C)Cc1cccc(C[NH2+]Cc2cn(CCC#N)nc2-c2ccc(Cl)cc2)c1

>  <scaffold>  (273) 
c1ccc(C[NH2+]Cc2c[nH]nc2-c2ccccc2)cc1

>  <molecular_formula>  (273) 
C23H28ClN5+2

$$$$
ATP-HTVS-2C8A8FE641B8
     RDKit          3D

 62 65  0  0  0  0  0  0  0  0999 V2000
  194.9585  185.4641  160.5323 Cl  0  0  0  0  0  0  0  0  0  0  0  0
  195.7265  184.7236  159.1744 C   0  0  0  0  0  0  0  0  0  0  0  0
  196.5271  185.4838  158.2933 C   0  0  0  0  0  0  0  0  0  0  0  0
  197.1539  184.8529  157.1952 C   0  0  0  0  0  0  0  0  0  0  0  0
  196.9936  183.4655  156.9668 C   0  0  0  0  0  0  0  0  0  0  0  0
  196.1833  182.7206  157.8612 C   0  0  0  0  0  0  0  0  0  0  0  0
  195.5524  183.3459  158.9492 C   0  0  0  0  0  0  0  0  0  0  0  0
  197.6607  182.7989  155.7901 C   0  0  0  0  0  0  0  0  0  0  0  0
  198.4239  183.4165  155.0431 O   0  0  0  0  0  0  0  0  0  0  0  0
  197.3809  181.4958  155.6457 N   0  0  0  0  0  0  0  0  0  0  0  0
  197.9100  180.6240  154.6682 C   0  0  0  0  0  0  0  0  0  0  0  0
  199.0465  179.8280  154.9457 C   0  0  0  0  0  0  0  0  0  0  0  0
  199.7198  179.9787  156.1671 N   0  0  0  0  0  0  0  0  0  0  0  0
  200.8188  180.9349  156.0918 C   0  0  1  0  0  0  0  0  0  0  0  0
  201.4573  181.2304  157.4247 C   0  0  0  0  0  0  0  0  0  0  0  0
  201.0579  182.3606  158.1856 C   0  0  0  0  0  0  0  0  0  0  0  0
  201.6164  182.5870  159.4678 C   0  0  0  0  0  0  0  0  0  0  0  0
  202.5496  181.6691  159.9823 C   0  0  0  0  0  0  0  0  0  0  0  0
  203.0136  180.6138  159.1847 C   0  0  0  0  0  0  0  0  0  0  0  0
  202.4533  180.3654  157.9269 C   0  0  0  0  0  0  0  0  0  0  0  0
  201.1950  183.8070  160.2995 C   0  0  1  0  0  0  0  0  0  0  0  0
  202.3073  184.7620  160.5849 N   0  0  1  0  0  0  0  0  0  0  0  0
  201.8182  186.0335  161.1701 C   0  0  2  0  0  0  0  0  0  0  0  0
  203.4175  184.1887  161.4059 C   0  0  2  0  0  0  0  0  0  0  0  0
  199.4847  178.8945  153.9657 C   0  0  0  0  0  0  0  0  0  0  0  0
  198.7647  178.7914  152.7423 C   0  0  0  0  0  0  0  0  0  0  0  0
  197.6872  179.5754  152.5343 N   0  0  0  0  0  0  0  0  0  0  0  0
  197.2385  180.4745  153.4374 C   0  0  0  0  0  0  0  0  0  0  0  0
  199.1553  177.8607  151.7547 C   0  0  0  0  0  0  0  0  0  0  0  0
  200.2663  177.0269  151.9801 C   0  0  0  0  0  0  0  0  0  0  0  0
  200.9856  177.1214  153.1877 C   0  0  0  0  0  0  0  0  0  0  0  0
  200.5957  178.0480  154.1767 C   0  0  0  0  0  0  0  0  0  0  0  0
  196.7104  186.9737  158.5183 C   0  0  2  0  0  0  0  0  0  0  0  0
  197.7565  185.4475  156.5220 H   0  0  0  0  0  0  0  0  0  0  0  0
  196.0162  181.6604  157.7365 H   0  0  0  0  0  0  0  0  0  0  0  0
  194.9363  182.7539  159.6097 H   0  0  0  0  0  0  0  0  0  0  0  0
  196.7872  181.0764  156.3481 H   0  0  0  0  0  0  0  0  0  0  0  0
  199.0998  180.1910  156.9368 H   0  0  0  0  0  0  0  0  0  0  0  0
  201.5908  180.5540  155.4194 H   0  0  0  0  0  0  0  0  0  0  0  0
  200.4668  181.8755  155.6616 H   0  0  0  0  0  0  0  0  0  0  0  0
  200.2937  183.0182  157.7904 H   0  0  0  0  0  0  0  0  0  0  0  0
  202.9512  181.7662  160.9834 H   0  0  0  0  0  0  0  0  0  0  0  0
  203.7868  179.9562  159.5693 H   0  0  0  0  0  0  0  0  0  0  0  0
  202.7592  179.4937  157.3555 H   0  0  0  0  0  0  0  0  0  0  0  0
  200.4036  184.3311  159.7650 H   0  0  0  0  0  0  0  0  0  0  0  0
  200.7441  183.4513  161.2275 H   0  0  0  0  0  0  0  0  0  0  0  0
  201.3097  185.8359  162.1156 H   0  0  0  0  0  0  0  0  0  0  0  0
  201.1413  186.5659  160.5038 H   0  0  0  0  0  0  0  0  0  0  0  0
  202.6595  186.6980  161.3814 H   0  0  0  0  0  0  0  0  0  0  0  0
  203.0041  183.8194  162.3592 H   0  0  0  0  0  0  0  0  0  0  0  0
  204.1598  184.9653  161.6535 H   0  0  0  0  0  0  0  0  0  0  0  0
  203.9180  183.4101  160.9077 H   0  0  0  0  0  0  0  0  0  0  0  0
  196.3558  181.0326  153.1611 H   0  0  0  0  0  0  0  0  0  0  0  0
  198.6079  177.7675  150.8269 H   0  0  0  0  0  0  0  0  0  0  0  0
  200.5713  176.3135  151.2274 H   0  0  0  0  0  0  0  0  0  0  0  0
  201.8413  176.4834  153.3557 H   0  0  0  0  0  0  0  0  0  0  0  0
  201.1554  178.0952  155.1009 H   0  0  0  0  0  0  0  0  0  0  0  0
  197.3631  187.4148  157.7654 H   0  0  0  0  0  0  0  0  0  0  0  0
  197.1524  187.1579  159.4980 H   0  0  0  0  0  0  0  0  0  0  0  0
  195.7485  187.4860  158.4738 H   0  0  0  0  0  0  0  0  0  0  0  0
  202.7140  185.0008  159.6950 H   0  0  0  0  0  0  0  0  0  0  0  0
  197.1792  179.4781  151.6557 H   0  0  0  0  0  0  0  0  0  0  0  0
  1  2  1  0
  2  3  2  0
  2  7  1  0
  3  4  1  0
  3 33  1  0
  4  5  2  0
  4 34  1  0
  5  6  1  0
  5  8  1  0
  6  7  2  0
  6 35  1  0
  7 36  1  0
  8  9  2  0
  8 10  1  0
 10 11  1  0
 10 37  1  0
 11 12  2  0
 11 28  1  0
 12 13  1  0
 12 25  1  0
 13 14  1  0
 13 38  1  0
 14 15  1  0
 14 39  1  6
 14 40  1  0
 15 16  2  0
 15 20  1  0
 16 17  1  0
 16 41  1  0
 17 18  2  0
 17 21  1  0
 18 19  1  0
 18 42  1  0
 19 20  2  0
 19 43  1  0
 20 44  1  0
 21 22  1  0
 21 45  1  6
 21 46  1  0
 22 23  1  0
 22 24  1  0
 22 61  1  6
 23 47  1  1
 23 48  1  0
 23 49  1  0
 24 50  1  1
 24 51  1  0
 24 52  1  0
 25 26  1  0
 25 32  2  0
 26 27  1  0
 26 29  2  0
 27 28  2  0
 27 62  1  0
 28 53  1  0
 29 30  1  0
 29 54  1  0
 30 31  2  0
 30 55  1  0
 31 32  1  0
 31 56  1  0
 32 57  1  0
 33 58  1  6
 33 59  1  0
 33 60  1  0
M  CHG  2  22   1  27   1
M  END
>  <s_epik_cmdline>  (274) 
J2VwaWtfcHl0aG9uJywgJy1waCcsICc3LjAwMDAwMCcsICctcGh0JywgJzIuMDAwMDAwJywgJy1tcycsICcxNicsICctdG4nLCAnOCcsICctbWEnLCAnMjAwJywgJy1pbWFlJywgJzxpbmZpbGUubWFlPicsICctb21hZScsICc8b3V0ZmlsZS5tYWU+Jw==

>  <s_epik_input>  (274) 
Q2xjMWMoW0NIM10pW2NIXWMoW2NIXVtjSF0xKUMoPU8pW05IXWMoW2NIXW5jKGMyMylbY0hdW2NIXVtjSF1bY0hdMyljMltOSF1bQ0gyXWM0W2NIXWMoW2NIXVtjSF1bY0hdNClbQ0gyXU4oW0NIM10pW0NIM10=

>  <s_i_glide_gridfile>  (274) 
ATP-Grid

>  <s_lp_Force_Field>  (274) 
OPLS_2005

>  <s_lp_Variant>  (274) 
rxn502b____EMOL631885____EMOL30488121____EMOL2873214-1

>  <s_lp_label>  (274) 
2252_sdstereoexpander_1_neutralizer_1_epik_1_stereoizer_1

>  <s_m_source_file>  (274) 
ATP-VSW-LIGPREP-002-in.maegz

>  <s_sd_BIOSOLVEIT.INFINISEE\_QUERY\_NAME>  (274) 
Ref-Lig

>  <s_sd_BIOSOLVEIT.INFINISEE\_QUERY\_SMILES>  (274) 
S(c1nc2c(cc1C[NH2+]Cc3ccc(cc3)C[NH+](C)C)cccc2)Cc4ccccc4

>  <s_sd_BIOSOLVEIT.INFINISEE\_REACTION\_NAME>  (274) 
rxn502b

>  <s_sd_BIOSOLVEIT.INFINISEE\_REAGENT1\_NAME>  (274) 
EMOL631885

>  <s_sd_BIOSOLVEIT.INFINISEE\_REAGENT1\_SMILES>  (274) 
Clc1c(cc(cc1)C(=O)O)C

>  <s_sd_BIOSOLVEIT.INFINISEE\_REAGENT2\_NAME>  (274) 
EMOL30488121

>  <s_sd_BIOSOLVEIT.INFINISEE\_REAGENT2\_SMILES>  (274) 
Brc1c(N)cnc2c1cccc2

>  <s_sd_BIOSOLVEIT.INFINISEE\_REAGENT3\_NAME>  (274) 
EMOL2873214

>  <s_sd_BIOSOLVEIT.INFINISEE\_REAGENT3\_SMILES>  (274) 
N(Cc1cc(ccc1)CN)(C)C

>  <s_sd_BIOSOLVEIT.INFINISEE\_SPACE>  (274) 
eXplore_7tr_2022-12

>  <s_vsw_compound_code>  (274) 
72034

>  <s_vsw_variant>  (274) 
72034-1

>  <r_epik_Charging_Adjusted_Penalty>  (274) 
0.25036477461673601

>  <r_epik_Ionization_Penalty>  (274) 
0.12520000000000001

>  <r_epik_Ionization_Penalty_Charging>  (274) 
0.12520000000000001

>  <r_epik_Ionization_Penalty_Neutral>  (274) 
0.0001

>  <r_epik_State_Penalty>  (274) 
0.12520000000000001

>  <r_i_docking_score>  (274) 
-4.2152467101414697

>  <r_i_glide_ecoul>  (274) 
-9.5411787033081108

>  <r_i_glide_eff_state_penalty>  (274) 
0.12520000000000001

>  <r_i_glide_einternal>  (274) 
7.5118346214294398

>  <r_i_glide_emodel>  (274) 
-57.003434632215303

>  <r_i_glide_energy>  (274) 
-43.176974296569803

>  <r_i_glide_erotb>  (274) 
0.66313762141204002

>  <r_i_glide_esite>  (274) 
-0.093771150764276598

>  <r_i_glide_evdw>  (274) 
-33.635795593261697

>  <r_i_glide_gscore>  (274) 
-4.3404467101414701

>  <r_i_glide_hbond>  (274) 
0

>  <r_i_glide_ligand_efficiency>  (274) 
-0.12773474879216601

>  <r_i_glide_ligand_efficiency_ln>  (274) 
-0.93744904295606701

>  <r_i_glide_ligand_efficiency_sa>  (274) 
-0.40971359140674202

>  <r_i_glide_lipo>  (274) 
-1.53092427744812

>  <r_i_glide_metal>  (274) 
-0

>  <r_i_glide_rewards>  (274) 
-0.265922318181817

>  <r_lp_Energy>  (274) 
37.601824999999998

>  <r_qp_ACxDN^.5/SA>  (274) 
0.0128206

>  <r_qp_CIQPlogS>  (274) 
-6.1550000000000002

>  <r_qp_EA(eV)>  (274) 
1.03

>  <r_qp_FISA>  (274) 
73.191000000000003

>  <r_qp_FOSA>  (274) 
243.191

>  <r_qp_IP(eV)>  (274) 
8.6229999999999993

>  <r_qp_Jm>  (274) 
0.0081422591880055701

>  <r_qp_PISA>  (274) 
352.012

>  <r_qp_PSA>  (274) 
60.116999999999997

>  <r_qp_PercentHumanOralAbsorption>  (274) 
100

>  <r_qp_QPPCaco>  (274) 
499.71899999999999

>  <r_qp_QPPMDCK>  (274) 
477.38299999999998

>  <r_qp_QPlogBB>  (274) 
-0.032000000000000001

>  <r_qp_QPlogHERG>  (274) 
-6.5259999999999998

>  <r_qp_QPlogKhsa>  (274) 
0.80300000000000005

>  <r_qp_QPlogKp>  (274) 
-3.0190000000000001

>  <r_qp_QPlogPC16>  (274) 
14.859

>  <r_qp_QPlogPo/w>  (274) 
4.7300000000000004

>  <r_qp_QPlogPoct>  (274) 
23.099

>  <r_qp_QPlogPw>  (274) 
12.141999999999999

>  <r_qp_QPlogS>  (274) 
-4.7320000000000002

>  <r_qp_QPpolrz>  (274) 
48.332999999999998

>  <r_qp_SASA>  (274) 
717.00300000000004

>  <r_qp_SAamideO>  (274) 
0

>  <r_qp_SAfluorine>  (274) 
0

>  <r_qp_WPSA>  (274) 
48.609000000000002

>  <r_qp_accptHB>  (274) 
6.5

>  <r_qp_dip^2/V>  (274) 
0.028523199999999999

>  <r_qp_dipole>  (274) 
6.2960000000000003

>  <r_qp_donorHB>  (274) 
2

>  <r_qp_glob>  (274) 
0.84000549999999996

>  <r_qp_mol_MW>  (274) 
458.98899999999998

>  <r_qp_volume>  (274) 
1389.816

>  <r_sd_BIOSOLVEIT.INFINISEE\_FTREES\_SIMILARITY>  (274) 
0.92600000000000005

>  <r_sd_BIOSOLVEIT.LOGP>  (274) 
4.7055199999999999

>  <r_sd_BIOSOLVEIT.MOLECULAR\_WEIGHT>  (274) 
459.99799999999999

>  <r_sd_BIOSOLVEIT.TPSA>  (274) 
58.460000000000001

>  <i_epik_Tot_Q>  (274) 
2

>  <i_epik_Tot_abs_Q>  (274) 
2

>  <i_f3d_flags>  (274) 
0

>  <i_i_glide_confnum>  (274) 
5

>  <i_i_glide_lignum>  (274) 
891

>  <i_i_glide_posenum>  (274) 
9

>  <i_i_glide_rotatable_bonds>  (274) 
8

>  <i_lp_mmshare_version>  (274) 
65135

>  <i_m_ct_format>  (274) 
2

>  <i_m_source_file_index>  (274) 
2252

>  <i_qp_#NandO>  (274) 
5

>  <i_qp_#acid>  (274) 
0

>  <i_qp_#amide>  (274) 
0

>  <i_qp_#amidine>  (274) 
0

>  <i_qp_#amine>  (274) 
1

>  <i_qp_#in34>  (274) 
0

>  <i_qp_#in56>  (274) 
22

>  <i_qp_#metab>  (274) 
7

>  <i_qp_#nonHatm>  (274) 
33

>  <i_qp_#noncon>  (274) 
0

>  <i_qp_#ringatoms>  (274) 
22

>  <i_qp_#rotor>  (274) 
7

>  <i_qp_#rtvFG>  (274) 
0

>  <i_qp_#stars>  (274) 
0

>  <i_qp_CNS>  (274) 
1

>  <i_qp_HumanOralAbsorption>  (274) 
3

>  <i_qp_RuleOfFive>  (274) 
0

>  <i_qp_RuleOfThree>  (274) 
1

>  <i_sd_BIOSOLVEIT.INFINISEE\_RESULT\_RANK>  (274) 
7774

>  <i_sd_version>  (274) 
0

>  <b_lp_Chiralities_Consistent>  (274) 
1

>  <b_sd_chiral_flag>  (274) 
0

>  <canonical_id>  (274) 
ATP-HTVS-2C8A8FE641B8

>  <compound_code>  (274) 
72034

>  <title>  (274) 
rxn502b____EMOL631885____EMOL30488121____EMOL2873214

>  <variant>  (274) 
72034-1

>  <source_file>  (274) 
运行/运行/ATP-VSW/ATP-VSW-DOCK_HTVS_1-002_lib.maegz

>  <canonical_smiles>  (274) 
Cc1cc(C(=O)Nc2c[nH+]c3ccccc3c2NCc2cccc(C[NH+](C)C)c2)ccc1Cl

>  <scaffold>  (274) 
O=C(Nc1c[nH+]c2ccccc2c1NCc1ccccc1)c1ccccc1

>  <molecular_formula>  (274) 
C27H29ClN4O+2

$$$$
ATP-HTVS-2CB691E3F247
     RDKit          3D

 55 58  0  0  0  0  0  0  0  0999 V2000
  198.7858  176.7622  148.8624 F   0  0  0  0  0  0  0  0  0  0  0  0
  198.2010  177.7352  149.6007 C   0  0  0  0  0  0  0  0  0  0  0  0
  197.2495  178.5883  149.0096 C   0  0  0  0  0  0  0  0  0  0  0  0
  196.6278  179.5887  149.7819 C   0  0  0  0  0  0  0  0  0  0  0  0
  196.9670  179.7517  151.1409 C   0  0  0  0  0  0  0  0  0  0  0  0
  196.3583  180.7157  151.8959 O   0  0  0  0  0  0  0  0  0  0  0  0
  196.7882  181.9878  151.7419 C   0  0  0  0  0  0  0  0  0  0  0  0
  196.6464  182.6815  150.5472 N   0  0  0  0  0  0  0  0  0  0  0  0
  197.1803  183.8812  150.7618 C   0  0  0  0  0  0  0  0  0  0  0  0
  197.6628  183.9802  152.0912 N   0  0  0  0  0  0  0  0  0  0  0  0
  197.3903  182.7600  152.6978 C   0  0  0  0  0  0  0  0  0  0  0  0
  197.7444  182.4723  154.1144 C   0  0  1  0  0  0  0  0  0  0  0  0
  196.8279  181.5557  154.7739 N   0  0  0  0  0  0  0  0  0  0  0  0
  197.2174  181.3116  156.1581 C   0  0  1  0  0  0  0  0  0  0  0  0
  196.7856  182.4069  157.1232 C   0  0  0  0  0  0  0  0  0  0  0  0
  195.6340  182.2485  157.9221 C   0  0  0  0  0  0  0  0  0  0  0  0
  195.2357  183.2642  158.8164 C   0  0  0  0  0  0  0  0  0  0  0  0
  195.9790  184.4582  158.9146 C   0  0  0  0  0  0  0  0  0  0  0  0
  195.5508  185.4376  159.8208 N   0  0  0  0  0  0  0  0  0  0  0  0
  196.2262  186.7240  159.8973 C   0  0  1  0  0  0  0  0  0  0  0  0
  195.6781  187.5670  161.0500 C   0  0  1  0  0  0  0  0  0  0  0  0
  196.3482  188.9416  161.1325 C   0  0  2  0  0  0  0  0  0  0  0  0
  197.1275  184.6234  158.1041 C   0  0  0  0  0  0  0  0  0  0  0  0
  197.5371  183.5954  157.2360 C   0  0  0  0  0  0  0  0  0  0  0  0
  198.2673  185.1142  152.5590 C   0  0  0  0  0  0  0  0  0  0  0  0
  198.4160  186.2019  151.7322 C   0  0  0  0  0  0  0  0  0  0  0  0
  197.9469  186.1471  150.3986 C   0  0  0  0  0  0  0  0  0  0  0  0
  197.3382  185.0126  149.9164 C   0  0  0  0  0  0  0  0  0  0  0  0
  197.9196  178.8963  151.7302 C   0  0  0  0  0  0  0  0  0  0  0  0
  198.5358  177.8902  150.9602 C   0  0  0  0  0  0  0  0  0  0  0  0
  196.7389  180.6821  154.2750 H   0  0  0  0  0  0  0  0  0  0  0  0
  196.9882  178.4649  147.9680 H   0  0  0  0  0  0  0  0  0  0  0  0
  195.8901  180.2389  149.3347 H   0  0  0  0  0  0  0  0  0  0  0  0
  198.7628  182.0766  154.1566 H   0  0  0  0  0  0  0  0  0  0  0  0
  197.7269  183.4129  154.6576 H   0  0  0  0  0  0  0  0  0  0  0  0
  196.7510  180.3776  156.4649 H   0  0  0  0  0  0  0  0  0  0  0  0
  198.2916  181.1396  156.2440 H   0  0  0  0  0  0  0  0  0  0  0  0
  195.0421  181.3468  157.8514 H   0  0  0  0  0  0  0  0  0  0  0  0
  194.3508  183.1185  159.4200 H   0  0  0  0  0  0  0  0  0  0  0  0
  194.6544  185.3280  160.2730 H   0  0  0  0  0  0  0  0  0  0  0  0
  197.2963  186.5713  160.0469 H   0  0  0  0  0  0  0  0  0  0  0  0
  196.1032  187.2523  158.9501 H   0  0  0  0  0  0  0  0  0  0  0  0
  194.6017  187.6956  160.9333 H   0  0  0  0  0  0  0  0  0  0  0  0
  195.8291  187.0344  161.9892 H   0  0  0  0  0  0  0  0  0  0  0  0
  195.9417  189.5192  161.9615 H   0  0  0  0  0  0  0  0  0  0  0  0
  196.1852  189.5112  160.2174 H   0  0  0  0  0  0  0  0  0  0  0  0
  197.4238  188.8488  161.2881 H   0  0  0  0  0  0  0  0  0  0  0  0
  197.7148  185.5294  158.1295 H   0  0  0  0  0  0  0  0  0  0  0  0
  198.4330  183.7339  156.6507 H   0  0  0  0  0  0  0  0  0  0  0  0
  198.6097  185.1144  153.5885 H   0  0  0  0  0  0  0  0  0  0  0  0
  198.8928  187.1013  152.1120 H   0  0  0  0  0  0  0  0  0  0  0  0
  198.0684  187.0091  149.7549 H   0  0  0  0  0  0  0  0  0  0  0  0
  196.9720  184.9654  148.8958 H   0  0  0  0  0  0  0  0  0  0  0  0
  198.1744  179.0045  152.7744 H   0  0  0  0  0  0  0  0  0  0  0  0
  199.2604  177.2251  151.4115 H   0  0  0  0  0  0  0  0  0  0  0  0
  1  2  1  0
  2  3  1  0
  2 30  2  0
  3  4  2  0
  3 32  1  0
  4  5  1  0
  4 33  1  0
  5  6  1  0
  5 29  2  0
  6  7  1  0
  7  8  1  0
  7 11  2  0
  8  9  2  0
  9 10  1  0
  9 28  1  0
 10 11  1  0
 10 25  1  0
 11 12  1  0
 12 13  1  0
 12 34  1  6
 12 35  1  0
 13 14  1  0
 13 31  1  0
 14 15  1  0
 14 36  1  1
 14 37  1  0
 15 16  1  0
 15 24  2  0
 16 17  2  0
 16 38  1  0
 17 18  1  0
 17 39  1  0
 18 19  1  0
 18 23  2  0
 19 20  1  0
 19 40  1  0
 20 21  1  0
 20 41  1  1
 20 42  1  0
 21 22  1  0
 21 43  1  6
 21 44  1  0
 22 45  1  1
 22 46  1  0
 22 47  1  0
 23 24  1  0
 23 48  1  0
 24 49  1  0
 25 26  2  0
 25 50  1  0
 26 27  1  0
 26 51  1  0
 27 28  2  0
 27 52  1  0
 28 53  1  0
 29 30  1  0
 29 54  1  0
 30 55  1  0
M  END
>  <s_epik_cmdline>  (275) 
J2VwaWtfcHl0aG9uJywgJy1waCcsICc3LjAwMDAwMCcsICctcGh0JywgJzIuMDAwMDAwJywgJy1tcycsICcxNicsICctdG4nLCAnOCcsICctbWEnLCAnMjAwJywgJy1pbWFlJywgJzxpbmZpbGUubWFlPicsICctb21hZScsICc8b3V0ZmlsZS5tYWU+Jw==

>  <s_epik_input>  (275) 
RmMxW2NIXVtjSF1jKFtjSF1bY0hdMSlPYyhuMiljKG4oYzIzKVtjSF1bY0hdW2NIXVtjSF0zKVtDSDJdW05IXVtDSDJdYzRbY0hdW2NIXWMoW2NIXVtjSF00KVtOSF1bQ0gyXVtDSDJdW0NIM10=

>  <s_i_glide_gridfile>  (275) 
ATP-Grid

>  <s_lp_Force_Field>  (275) 
OPLS_2005

>  <s_lp_Variant>  (275) 
m_207cba____9359662____12342900-2

>  <s_lp_label>  (275) 
1322_sdstereoexpander_1_neutralizer_1_epik_2_stereoizer_1

>  <s_m_source_file>  (275) 
ATP-VSW-LIGPREP-001-in.maegz

>  <s_sd_BIOSOLVEIT.INFINISEE\_QUERY\_NAME>  (275) 
Ref-Lig

>  <s_sd_BIOSOLVEIT.INFINISEE\_QUERY\_SMILES>  (275) 
S(c1nc2c(cc1C[NH2+]Cc3ccc(cc3)C[NH+](C)C)cccc2)Cc4ccccc4

>  <s_sd_BIOSOLVEIT.INFINISEE\_REACTION\_NAME>  (275) 
m_207cba

>  <s_sd_BIOSOLVEIT.INFINISEE\_REAGENT1\_SMILES>  (275) 
[R1*]NCc1ccc(NCCC)cc1

>  <s_sd_BIOSOLVEIT.INFINISEE\_REAGENT2\_SMILES>  (275) 
[R1*]CC=1N2C(=NC1Oc3ccc(F)cc3)C=CC=C2

>  <s_sd_BIOSOLVEIT.INFINISEE\_SPACE>  (275) 
REALSpace_44bn_2023-08

>  <s_vsw_compound_code>  (275) 
42273

>  <s_vsw_variant>  (275) 
42273-2

>  <r_epik_Charging_Adjusted_Penalty>  (275) 
0.77480773915010404

>  <r_epik_Ionization_Penalty>  (275) 
0.73429999999999995

>  <r_epik_Ionization_Penalty_Charging>  (275) 
0.13980000000000001

>  <r_epik_Ionization_Penalty_Neutral>  (275) 
0.59440000000000004

>  <r_epik_State_Penalty>  (275) 
0.63500000000000001

>  <r_i_docking_score>  (275) 
-3.3863595352370202

>  <r_i_glide_ecoul>  (275) 
0.016206249594688402

>  <r_i_glide_eff_state_penalty>  (275) 
0.63500000000000001

>  <r_i_glide_einternal>  (275) 
2.84191966056824

>  <r_i_glide_emodel>  (275) 
-47.245749241661201

>  <r_i_glide_energy>  (275) 
-38.919455066323302

>  <r_i_glide_erotb>  (275) 
0.96053955397611102

>  <r_i_glide_esite>  (275) 
-0.0012877889900705501

>  <r_i_glide_evdw>  (275) 
-38.935661315917997

>  <r_i_glide_gscore>  (275) 
-4.0213595352370204

>  <r_i_glide_hbond>  (275) 
0

>  <r_i_glide_ligand_efficiency>  (275) 
-0.112878651174567

>  <r_i_glide_ligand_efficiency_ln>  (275) 
-0.769417783748233

>  <r_i_glide_ligand_efficiency_sa>  (275) 
-0.35074021376019698

>  <r_i_glide_lipo>  (275) 
-2.0454176526737702

>  <r_i_glide_metal>  (275) 
-0

>  <r_i_glide_rewards>  (275) 
-0.990841519192592

>  <r_lp_Energy>  (275) 
22.903835999999998

>  <r_lp_tautomer_probability>  (275) 
1

>  <r_qp_ACxDN^.5/SA>  (275) 
0.0092788000000000002

>  <r_qp_CIQPlogS>  (275) 
-5.7599999999999998

>  <r_qp_EA(eV)>  (275) 
0.68300000000000005

>  <r_qp_FISA>  (275) 
42.814

>  <r_qp_FOSA>  (275) 
212.08099999999999

>  <r_qp_IP(eV)>  (275) 
7.9930000000000003

>  <r_qp_Jm>  (275) 
0.122622557255766

>  <r_qp_PISA>  (275) 
401.57100000000003

>  <r_qp_PSA>  (275) 
50.191000000000003

>  <r_qp_PercentHumanOralAbsorption>  (275) 
100

>  <r_qp_QPPCaco>  (275) 
970.04399999999998

>  <r_qp_QPPMDCK>  (275) 
767.34900000000005

>  <r_qp_QPlogBB>  (275) 
0.075999999999999998

>  <r_qp_QPlogHERG>  (275) 
-6.9500000000000002

>  <r_qp_QPlogKhsa>  (275) 
0.76100000000000001

>  <r_qp_QPlogKp>  (275) 
-2.0920000000000001

>  <r_qp_QPlogPC16>  (275) 
13.436999999999999

>  <r_qp_QPlogPo/w>  (275) 
4.9820000000000002

>  <r_qp_QPlogPoct>  (275) 
19.945

>  <r_qp_QPlogPw>  (275) 
9.7789999999999999

>  <r_qp_QPlogS>  (275) 
-4.4260000000000002

>  <r_qp_QPpolrz>  (275) 
42.860999999999997

>  <r_qp_SASA>  (275) 
685.86400000000003

>  <r_qp_SAamideO>  (275) 
0

>  <r_qp_SAfluorine>  (275) 
29.398

>  <r_qp_WPSA>  (275) 
29.398

>  <r_qp_accptHB>  (275) 
4.5

>  <r_qp_dip^2/V>  (275) 
0.041006800000000003

>  <r_qp_dipole>  (275) 
7.226

>  <r_qp_donorHB>  (275) 
2

>  <r_qp_glob>  (275) 
0.82836900000000002

>  <r_qp_mol_MW>  (275) 
404.48599999999999

>  <r_qp_volume>  (275) 
1273.3420000000001

>  <r_sd_BIOSOLVEIT.INFINISEE\_FTREES\_SIMILARITY>  (275) 
0.91000000000000003

>  <r_sd_BIOSOLVEIT.LOGP>  (275) 
4.3512000000000004

>  <r_sd_BIOSOLVEIT.MOLECULAR\_WEIGHT>  (275) 
405.49400000000003

>  <r_sd_BIOSOLVEIT.TPSA>  (275) 
55.689999999999998

>  <i_epik_Tot_Q>  (275) 
0

>  <i_epik_Tot_abs_Q>  (275) 
0

>  <i_f3d_flags>  (275) 
0

>  <i_i_glide_confnum>  (275) 
7

>  <i_i_glide_lignum>  (275) 
355

>  <i_i_glide_posenum>  (275) 
12

>  <i_i_glide_rotatable_bonds>  (275) 
9

>  <i_lp_mmshare_version>  (275) 
65135

>  <i_m_ct_format>  (275) 
2

>  <i_m_source_file_index>  (275) 
1322

>  <i_qp_#NandO>  (275) 
5

>  <i_qp_#acid>  (275) 
0

>  <i_qp_#amide>  (275) 
0

>  <i_qp_#amidine>  (275) 
0

>  <i_qp_#amine>  (275) 
1

>  <i_qp_#in34>  (275) 
0

>  <i_qp_#in56>  (275) 
21

>  <i_qp_#metab>  (275) 
6

>  <i_qp_#nonHatm>  (275) 
30

>  <i_qp_#noncon>  (275) 
0

>  <i_qp_#ringatoms>  (275) 
21

>  <i_qp_#rotor>  (275) 
9

>  <i_qp_#rtvFG>  (275) 
0

>  <i_qp_#stars>  (275) 
0

>  <i_qp_CNS>  (275) 
1

>  <i_qp_HumanOralAbsorption>  (275) 
3

>  <i_qp_RuleOfFive>  (275) 
0

>  <i_qp_RuleOfThree>  (275) 
0

>  <i_sd_BIOSOLVEIT.INFINISEE\_REAGENT1\_NAME>  (275) 
9359662

>  <i_sd_BIOSOLVEIT.INFINISEE\_REAGENT2\_NAME>  (275) 
12342900

>  <i_sd_BIOSOLVEIT.INFINISEE\_RESULT\_RANK>  (275) 
47847

>  <i_sd_version>  (275) 
0

>  <b_lp_Chiralities_Consistent>  (275) 
1

>  <b_sd_chiral_flag>  (275) 
0

>  <canonical_id>  (275) 
ATP-HTVS-2CB691E3F247

>  <compound_code>  (275) 
42273

>  <title>  (275) 
m_207cba____9359662____12342900

>  <variant>  (275) 
42273-2

>  <source_file>  (275) 
运行/运行/ATP-VSW/ATP-VSW-DOCK_HTVS_1-001_lib/ATP-VSW-DOCK_HTVS_1-001_lib

>  <canonical_smiles>  (275) 
CCCNc1ccc(CNCc2c(Oc3ccc(F)cc3)nc3ccccn23)cc1

>  <scaffold>  (275) 
c1ccc(CNCc2c(Oc3ccccc3)nc3ccccn23)cc1

>  <molecular_formula>  (275) 
C24H25FN4O

$$$$
ATP-HTVS-2CD40FD4C79D
     RDKit          3D

 64 67  0  0  0  0  0  0  0  0999 V2000
  197.7534  183.4463  155.2342 N   0  0  0  0  0  0  0  0  0  0  0  0
  198.5801  183.7911  156.2326 C   0  0  0  0  0  0  0  0  0  0  0  0
  199.5000  184.7502  156.1138 N   0  0  0  0  0  0  0  0  0  0  0  0
  199.6071  185.4357  154.9532 C   0  0  0  0  0  0  0  0  0  0  0  0
  198.8089  185.0750  153.8374 C   0  0  0  0  0  0  0  0  0  0  0  0
  197.8928  184.0224  154.0262 C   0  0  0  0  0  0  0  0  0  0  0  0
  197.1397  183.5209  152.9441 N   0  0  0  0  0  0  0  0  0  0  0  0
  196.3414  182.2838  153.0011 C   0  0  1  0  0  0  0  0  0  0  0  0
  197.1947  181.0178  152.7856 C   0  0  0  0  0  0  0  0  0  0  0  0
  198.1327  180.6405  153.7118 C   0  0  0  0  0  0  0  0  0  0  0  0
  198.8585  179.4401  153.6537 C   0  0  0  0  0  0  0  0  0  0  0  0
  198.7077  178.6407  152.4965 C   0  0  0  0  0  0  0  0  0  0  0  0
  197.8036  179.0497  151.4793 C   0  0  0  0  0  0  0  0  0  0  0  0
  197.0107  180.2121  151.6172 C   0  0  0  0  0  0  0  0  0  0  0  0
  199.8009  179.0278  154.7895 C   0  0  1  0  0  0  0  0  0  0  0  0
  199.1526  178.8738  156.1323 N   0  0  2  0  0  0  0  0  0  0  0  0
  198.4458  180.0861  156.6082 C   0  0  2  0  0  0  0  0  0  0  0  0
  200.0930  178.4045  157.1815 C   0  0  2  0  0  0  0  0  0  0  0  0
  198.9542  185.7783  152.6189 C   0  0  0  0  0  0  0  0  0  0  0  0
  199.8617  186.8472  152.5350 C   0  0  0  0  0  0  0  0  0  0  0  0
  200.6351  187.2113  153.6535 C   0  0  0  0  0  0  0  0  0  0  0  0
  200.5085  186.5041  154.8625 C   0  0  0  0  0  0  0  0  0  0  0  0
  198.5324  183.0688  157.4073 N   0  0  0  0  0  0  0  0  0  0  0  0
  197.2941  182.5331  157.9543 C   0  0  1  0  0  0  0  0  0  0  0  0
  196.4774  183.5221  158.7490 C   0  0  0  0  0  0  0  0  0  0  0  0
  195.1046  183.2897  159.0020 C   0  0  0  0  0  0  0  0  0  0  0  0
  194.3738  184.2493  159.7316 C   0  0  0  0  0  0  0  0  0  0  0  0
  195.0025  185.4124  160.2142 C   0  0  0  0  0  0  0  0  0  0  0  0
  194.2805  186.3462  160.9456 N   0  0  0  0  0  0  0  0  0  0  0  0
  196.3675  185.6296  159.9758 C   0  0  0  0  0  0  0  0  0  0  0  0
  197.1024  184.6816  159.2571 C   0  0  0  0  0  0  0  0  0  0  0  0
  194.4015  182.0336  158.5066 C   0  0  2  0  0  0  0  0  0  0  0  0
  197.1253  184.0192  152.0744 H   0  0  0  0  0  0  0  0  0  0  0  0
  195.8325  182.2187  153.9651 H   0  0  0  0  0  0  0  0  0  0  0  0
  195.5680  182.3332  152.2496 H   0  0  0  0  0  0  0  0  0  0  0  0
  198.3141  181.2861  154.5652 H   0  0  0  0  0  0  0  0  0  0  0  0
  199.3074  177.7483  152.3774 H   0  0  0  0  0  0  0  0  0  0  0  0
  197.7314  178.4679  150.5825 H   0  0  0  0  0  0  0  0  0  0  0  0
  196.3250  180.5271  150.8430 H   0  0  0  0  0  0  0  0  0  0  0  0
  200.2627  178.0763  154.5407 H   0  0  0  0  0  0  0  0  0  0  0  0
  200.6154  179.7619  154.8363 H   0  0  0  0  0  0  0  0  0  0  0  0
  199.2124  180.8783  156.5814 H   0  0  0  0  0  0  0  0  0  0  0  0
  198.0752  179.9401  157.6384 H   0  0  0  0  0  0  0  0  0  0  0  0
  197.6016  180.3304  156.0214 H   0  0  0  0  0  0  0  0  0  0  0  0
  200.9237  179.1064  157.3156 H   0  0  0  0  0  0  0  0  0  0  0  0
  200.4807  177.4133  156.9461 H   0  0  0  0  0  0  0  0  0  0  0  0
  199.5608  178.3459  158.1336 H   0  0  0  0  0  0  0  0  0  0  0  0
  198.3647  185.5191  151.7517 H   0  0  0  0  0  0  0  0  0  0  0  0
  199.9651  187.3916  151.6086 H   0  0  0  0  0  0  0  0  0  0  0  0
  201.3322  188.0290  153.5826 H   0  0  0  0  0  0  0  0  0  0  0  0
  201.1060  186.7872  155.7147 H   0  0  0  0  0  0  0  0  0  0  0  0
  199.3776  182.9742  157.9479 H   0  0  0  0  0  0  0  0  0  0  0  0
  196.6905  182.1208  157.1465 H   0  0  0  0  0  0  0  0  0  0  0  0
  197.5211  181.7125  158.6260 H   0  0  0  0  0  0  0  0  0  0  0  0
  193.3234  184.0934  159.9166 H   0  0  0  0  0  0  0  0  0  0  0  0
  194.7198  187.1728  161.3284 H   0  0  0  0  0  0  0  0  0  0  0  0
  193.3048  186.2043  161.1576 H   0  0  0  0  0  0  0  0  0  0  0  0
  196.8678  186.5140  160.3404 H   0  0  0  0  0  0  0  0  0  0  0  0
  198.1514  184.8702  159.0975 H   0  0  0  0  0  0  0  0  0  0  0  0
  193.3485  182.0302  158.7896 H   0  0  0  0  0  0  0  0  0  0  0  0
  194.8620  181.1344  158.9177 H   0  0  0  0  0  0  0  0  0  0  0  0
  194.4455  181.9647  157.4206 H   0  0  0  0  0  0  0  0  0  0  0  0
  200.0766  185.0264  156.9115 H   0  0  0  0  0  0  0  0  0  0  0  0
  198.4085  178.1908  156.0710 H   0  0  0  0  0  0  0  0  0  0  0  0
  1  2  1  0
  1  6  2  0
  2  3  2  0
  2 23  1  0
  3  4  1  0
  3 63  1  0
  4  5  1  0
  4 22  2  0
  5  6  1  0
  5 19  2  0
  6  7  1  0
  7  8  1  0
  7 33  1  0
  8  9  1  0
  8 34  1  1
  8 35  1  0
  9 10  2  0
  9 14  1  0
 10 11  1  0
 10 36  1  0
 11 12  2  0
 11 15  1  0
 12 13  1  0
 12 37  1  0
 13 14  2  0
 13 38  1  0
 14 39  1  0
 15 16  1  0
 15 40  1  6
 15 41  1  0
 16 17  1  0
 16 18  1  0
 16 64  1  6
 17 42  1  1
 17 43  1  0
 17 44  1  0
 18 45  1  1
 18 46  1  0
 18 47  1  0
 19 20  1  0
 19 48  1  0
 20 21  2  0
 20 49  1  0
 21 22  1  0
 21 50  1  0
 22 51  1  0
 23 24  1  0
 23 52  1  0
 24 25  1  0
 24 53  1  6
 24 54  1  0
 25 26  2  0
 25 31  1  0
 26 27  1  0
 26 32  1  0
 27 28  2  0
 27 55  1  0
 28 29  1  0
 28 30  1  0
 29 56  1  0
 29 57  1  0
 30 31  2  0
 30 58  1  0
 31 59  1  0
 32 60  1  6
 32 61  1  0
 32 62  1  0
M  CHG  2   3   1  16   1
M  END
>  <s_epik_cmdline>  (276) 
J2VwaWtfcHl0aG9uJywgJy1waCcsICc3LjAwMDAwMCcsICctcGh0JywgJzIuMDAwMDAwJywgJy1tcycsICcxNicsICctdG4nLCAnOCcsICctbWEnLCAnMjAwJywgJy1pbWFlJywgJzxpbmZpbGUubWFlPicsICctb21hZScsICc8b3V0ZmlsZS5tYWU+Jw==

>  <s_epik_input>  (276) 
W2NIXTFbY0hdYyhbTkgyXSlbY0hdYyhbQ0gzXSljMVtDSDJdW05IXWMobjIpbmMoYyhjMjMpW2NIXVtjSF1bY0hdW2NIXTMpW05IXVtDSDJdYzRbY0hdYyhbY0hdW2NIXVtjSF00KVtDSDJdTihbQ0gzXSlbQ0gzXQ==

>  <s_i_glide_gridfile>  (276) 
ATP-Grid

>  <s_lp_Force_Field>  (276) 
OPLS_2005

>  <s_lp_Variant>  (276) 
m_282030aaa____21928796____22360182____21977402-1

>  <s_lp_label>  (276) 
1924_sdstereoexpander_1_neutralizer_1_epik_1_stereoizer_1

>  <s_m_source_file>  (276) 
ATP-VSW-LIGPREP-003-in.maegz

>  <s_sd_BIOSOLVEIT.INFINISEE\_QUERY\_NAME>  (276) 
Ref-Lig

>  <s_sd_BIOSOLVEIT.INFINISEE\_QUERY\_SMILES>  (276) 
S(c1nc2c(cc1C[NH2+]Cc3ccc(cc3)C[NH+](C)C)cccc2)Cc4ccccc4

>  <s_sd_BIOSOLVEIT.INFINISEE\_REACTION\_NAME>  (276) 
m_282030aaa

>  <s_sd_BIOSOLVEIT.INFINISEE\_REAGENT1\_SMILES>  (276) 
[R1*]NCc1cc(ccc1)CN(C)C

>  <s_sd_BIOSOLVEIT.INFINISEE\_REAGENT2\_SMILES>  (276) 
[R2*]c1nc([R1*])c2c(n1)cccc2

>  <s_sd_BIOSOLVEIT.INFINISEE\_REAGENT3\_SMILES>  (276) 
[R2*]NCc1c(cc(N)cc1)C

>  <s_sd_BIOSOLVEIT.INFINISEE\_SPACE>  (276) 
REALSpace_44bn_2023-08

>  <s_vsw_compound_code>  (276) 
61539

>  <s_vsw_variant>  (276) 
61539-1

>  <r_epik_Charging_Adjusted_Penalty>  (276) 
0.14622111923127001

>  <r_epik_Ionization_Penalty>  (276) 
0.089300000000000004

>  <r_epik_Ionization_Penalty_Charging>  (276) 
0.0608

>  <r_epik_Ionization_Penalty_Neutral>  (276) 
0.028500000000000001

>  <r_epik_State_Penalty>  (276) 
0.085400000000000004

>  <r_i_docking_score>  (276) 
-3.9060427460003102

>  <r_i_glide_ecoul>  (276) 
-6.749755859375

>  <r_i_glide_eff_state_penalty>  (276) 
0.085400000000000004

>  <r_i_glide_einternal>  (276) 
7.33740139007568

>  <r_i_glide_emodel>  (276) 
-51.663719739674001

>  <r_i_glide_energy>  (276) 
-38.849067687988303

>  <r_i_glide_erotb>  (276) 
0.75706870877358701

>  <r_i_glide_esite>  (276) 
-0.142731098250686

>  <r_i_glide_evdw>  (276) 
-32.099311828613303

>  <r_i_glide_gscore>  (276) 
-3.9914427460003101

>  <r_i_glide_hbond>  (276) 
-0.0152450610924034

>  <r_i_glide_ligand_efficiency>  (276) 
-0.12206383581251

>  <r_i_glide_ligand_efficiency_ln>  (276) 
-0.874669445533371

>  <r_i_glide_ligand_efficiency_sa>  (276) 
-0.38752852230441198

>  <r_i_glide_lipo>  (276) 
-1.26110050691207

>  <r_i_glide_metal>  (276) 
-0

>  <r_i_glide_rewards>  (276) 
-0.71200581818181696

>  <r_lp_Energy>  (276) 
27.446580000000001

>  <r_qp_ACxDN^.5/SA>  (276) 
0.015245699999999999

>  <r_qp_CIQPlogS>  (276) 
-5.5439999999999996

>  <r_qp_EA(eV)>  (276) 
0.45300000000000001

>  <r_qp_FISA>  (276) 
103.431

>  <r_qp_FOSA>  (276) 
247.34

>  <r_qp_IP(eV)>  (276) 
7.8200000000000003

>  <r_qp_Jm>  (276) 
0.0079827633880483993

>  <r_qp_PISA>  (276) 
385.49799999999999

>  <r_qp_PSA>  (276) 
72.203999999999994

>  <r_qp_PercentHumanOralAbsorption>  (276) 
95.156999999999996

>  <r_qp_QPPCaco>  (276) 
258.20299999999997

>  <r_qp_QPPMDCK>  (276) 
126.657

>  <r_qp_QPlogBB>  (276) 
-0.61099999999999999

>  <r_qp_QPlogHERG>  (276) 
-7.04

>  <r_qp_QPlogKhsa>  (276) 
0.68000000000000005

>  <r_qp_QPlogKp>  (276) 
-3.266

>  <r_qp_QPlogPC16>  (276) 
15.356999999999999

>  <r_qp_QPlogPo/w>  (276) 
4.2770000000000001

>  <r_qp_QPlogPoct>  (276) 
24.170999999999999

>  <r_qp_QPlogPw>  (276) 
13.868

>  <r_qp_QPlogS>  (276) 
-4.4619999999999997

>  <r_qp_QPpolrz>  (276) 
47.378

>  <r_qp_SASA>  (276) 
736.26999999999998

>  <r_qp_SAamideO>  (276) 
0

>  <r_qp_SAfluorine>  (276) 
0

>  <r_qp_WPSA>  (276) 
0

>  <r_qp_accptHB>  (276) 
6

>  <r_qp_dip^2/V>  (276) 
0.0062801000000000003

>  <r_qp_dipole>  (276) 
2.9550000000000001

>  <r_qp_donorHB>  (276) 
3.5

>  <r_qp_glob>  (276) 
0.81810939999999999

>  <r_qp_mol_MW>  (276) 
426.56299999999999

>  <r_qp_volume>  (276) 
1390.0329999999999

>  <r_sd_BIOSOLVEIT.INFINISEE\_FTREES\_SIMILARITY>  (276) 
0.90300000000000002

>  <r_sd_BIOSOLVEIT.LOGP>  (276) 
3.3891200000000001

>  <r_sd_BIOSOLVEIT.MOLECULAR\_WEIGHT>  (276) 
427.57299999999998

>  <r_sd_BIOSOLVEIT.TPSA>  (276) 
80.299999999999997

>  <i_epik_Tot_Q>  (276) 
2

>  <i_epik_Tot_abs_Q>  (276) 
2

>  <i_f3d_flags>  (276) 
0

>  <i_i_glide_confnum>  (276) 
8

>  <i_i_glide_lignum>  (276) 
728

>  <i_i_glide_posenum>  (276) 
7

>  <i_i_glide_rotatable_bonds>  (276) 
8

>  <i_lp_mmshare_version>  (276) 
65135

>  <i_m_ct_format>  (276) 
2

>  <i_m_source_file_index>  (276) 
1924

>  <i_qp_#NandO>  (276) 
6

>  <i_qp_#acid>  (276) 
0

>  <i_qp_#amide>  (276) 
0

>  <i_qp_#amidine>  (276) 
0

>  <i_qp_#amine>  (276) 
1

>  <i_qp_#in34>  (276) 
0

>  <i_qp_#in56>  (276) 
22

>  <i_qp_#metab>  (276) 
7

>  <i_qp_#nonHatm>  (276) 
32

>  <i_qp_#noncon>  (276) 
0

>  <i_qp_#ringatoms>  (276) 
22

>  <i_qp_#rotor>  (276) 
9

>  <i_qp_#rtvFG>  (276) 
0

>  <i_qp_#stars>  (276) 
1

>  <i_qp_CNS>  (276) 
0

>  <i_qp_HumanOralAbsorption>  (276) 
3

>  <i_qp_RuleOfFive>  (276) 
0

>  <i_qp_RuleOfThree>  (276) 
1

>  <i_sd_BIOSOLVEIT.INFINISEE\_REAGENT1\_NAME>  (276) 
21928796

>  <i_sd_BIOSOLVEIT.INFINISEE\_REAGENT2\_NAME>  (276) 
22360182

>  <i_sd_BIOSOLVEIT.INFINISEE\_REAGENT3\_NAME>  (276) 
21977402

>  <i_sd_BIOSOLVEIT.INFINISEE\_RESULT\_RANK>  (276) 
86013

>  <i_sd_version>  (276) 
0

>  <b_lp_Chiralities_Consistent>  (276) 
1

>  <b_sd_chiral_flag>  (276) 
0

>  <canonical_id>  (276) 
ATP-HTVS-2CD40FD4C79D

>  <compound_code>  (276) 
61539

>  <title>  (276) 
m_282030aaa____21928796____22360182____21977402

>  <variant>  (276) 
61539-1

>  <source_file>  (276) 
运行/运行/ATP-VSW/ATP-VSW-DOCK_HTVS_1-003_lib/ATP-VSW-DOCK_HTVS_1-003_lib.mae

>  <canonical_smiles>  (276) 
Cc1cc(N)ccc1CNc1nc(NCc2cccc(C[NH+](C)C)c2)c2ccccc2[nH+]1

>  <scaffold>  (276) 
c1ccc(CNc2nc(NCc3ccccc3)c3ccccc3[nH+]2)cc1

>  <molecular_formula>  (276) 
C26H32N6+2

$$$$
ATP-HTVS-2CDCEBF2F10D
     RDKit          3D

 57 60  0  0  0  0  0  0  0  0999 V2000
  198.5955  190.7708  158.4600 Cl  0  0  0  0  0  0  0  0  0  0  0  0
  198.1389  189.3713  157.5633 C   0  0  0  0  0  0  0  0  0  0  0  0
  198.7539  189.0898  156.3221 C   0  0  0  0  0  0  0  0  0  0  0  0
  198.3972  187.9346  155.5836 C   0  0  0  0  0  0  0  0  0  0  0  0
  197.4247  187.0638  156.1387 C   0  0  0  0  0  0  0  0  0  0  0  0
  196.7629  187.3836  157.3441 C   0  0  0  0  0  0  0  0  0  0  0  0
  197.1978  188.4861  158.1015 C   0  0  0  0  0  0  0  0  0  0  0  0
  199.0800  187.6368  154.2789 C   0  0  0  0  0  0  0  0  0  0  0  0
  199.7851  188.4532  153.6873 O   0  0  0  0  0  0  0  0  0  0  0  0
  198.8599  186.3111  153.6769 C   0  0  0  0  0  0  0  0  0  0  0  0
  198.5732  185.1902  153.2536 C   0  0  0  0  0  0  0  0  0  0  0  0
  198.1721  183.8358  152.8840 C   0  0  0  0  0  0  0  0  0  0  0  0
  197.6220  182.9245  153.8348 C   0  0  0  0  0  0  0  0  0  0  0  0
  197.2787  181.6648  153.4681 N   0  0  0  0  0  0  0  0  0  0  0  0
  197.4285  181.2423  152.1969 C   0  0  0  0  0  0  0  0  0  0  0  0
  197.9552  182.0971  151.1960 C   0  0  0  0  0  0  0  0  0  0  0  0
  198.3330  183.4058  151.5498 C   0  0  0  0  0  0  0  0  0  0  0  0
  198.1027  181.6480  149.8700 C   0  0  0  0  0  0  0  0  0  0  0  0
  197.7271  180.3356  149.5311 C   0  0  0  0  0  0  0  0  0  0  0  0
  197.2043  179.4762  150.5141 C   0  0  0  0  0  0  0  0  0  0  0  0
  197.0567  179.9297  151.8383 C   0  0  0  0  0  0  0  0  0  0  0  0
  197.4620  183.4061  155.1725 N   0  0  0  0  0  0  0  0  0  0  0  0
  197.2153  182.6872  156.2933 C   0  0  0  0  0  0  0  0  0  0  0  0
  197.0000  181.4833  156.3067 O   0  0  0  0  0  0  0  0  0  0  0  0
  197.1981  183.4802  157.5811 C   0  0  0  0  0  0  0  0  0  0  0  0
  196.3148  183.2182  158.6732 C   0  0  0  0  0  0  0  0  0  0  0  0
  196.3108  184.0750  159.8033 C   0  0  0  0  0  0  0  0  0  0  0  0
  197.1485  185.1849  159.8711 C   0  0  0  0  0  0  0  0  0  0  0  0
  198.1044  185.3846  158.8601 C   0  0  0  0  0  0  0  0  0  0  0  0
  198.0716  184.5884  157.6983 C   0  0  0  0  0  0  0  0  0  0  0  0
  195.3710  182.0322  158.7220 C   0  0  1  0  0  0  0  0  0  0  0  0
  194.0176  182.2920  158.1485 N   0  0  2  0  0  0  0  0  0  0  0  0
  193.3672  183.5295  158.6478 C   0  0  2  0  0  0  0  0  0  0  0  0
  193.1400  181.1088  158.2794 C   0  0  2  0  0  0  0  0  0  0  0  0
  199.4884  189.7677  155.9339 H   0  0  0  0  0  0  0  0  0  0  0  0
  197.1134  186.1538  155.6306 H   0  0  0  0  0  0  0  0  0  0  0  0
  196.0153  186.6828  157.7450 H   0  0  0  0  0  0  0  0  0  0  0  0
  196.7853  188.6314  159.0881 H   0  0  0  0  0  0  0  0  0  0  0  0
  198.7381  184.0808  150.8105 H   0  0  0  0  0  0  0  0  0  0  0  0
  198.5064  182.3049  149.1138 H   0  0  0  0  0  0  0  0  0  0  0  0
  197.8458  179.9869  148.5168 H   0  0  0  0  0  0  0  0  0  0  0  0
  196.9245  178.4675  150.2515 H   0  0  0  0  0  0  0  0  0  0  0  0
  196.6616  179.2681  152.5965 H   0  0  0  0  0  0  0  0  0  0  0  0
  197.6540  184.3935  155.2783 H   0  0  0  0  0  0  0  0  0  0  0  0
  195.5982  183.9310  160.6022 H   0  0  0  0  0  0  0  0  0  0  0  0
  197.0994  185.8901  160.6857 H   0  0  0  0  0  0  0  0  0  0  0  0
  198.7714  186.2598  158.8924 H   0  0  0  0  0  0  0  0  0  0  0  0
  198.7756  184.8360  156.9005 H   0  0  0  0  0  0  0  0  0  0  0  0
  195.8188  181.1663  158.2374 H   0  0  0  0  0  0  0  0  0  0  0  0
  195.2660  181.7291  159.7622 H   0  0  0  0  0  0  0  0  0  0  0  0
  193.2799  183.5138  159.7316 H   0  0  0  0  0  0  0  0  0  0  0  0
  192.3708  183.6226  158.2133 H   0  0  0  0  0  0  0  0  0  0  0  0
  193.9383  184.4192  158.3696 H   0  0  0  0  0  0  0  0  0  0  0  0
  192.9711  180.8631  159.3260 H   0  0  0  0  0  0  0  0  0  0  0  0
  193.5909  180.2454  157.7926 H   0  0  0  0  0  0  0  0  0  0  0  0
  192.1838  181.2811  157.7867 H   0  0  0  0  0  0  0  0  0  0  0  0
  194.1097  182.4314  157.1674 H   0  0  0  0  0  0  0  0  0  0  0  0
  1  2  1  0
  2  3  2  0
  2  7  1  0
  3  4  1  0
  3 35  1  0
  4  5  2  0
  4  8  1  0
  5  6  1  0
  5 36  1  0
  6  7  2  0
  6 37  1  0
  7 38  1  0
  8  9  2  0
  8 10  1  0
 10 11  3  0
 11 12  1  0
 12 13  1  0
 12 17  2  0
 13 14  2  0
 13 22  1  0
 14 15  1  0
 15 16  1  0
 15 21  2  0
 16 17  1  0
 16 18  2  0
 17 39  1  0
 18 19  1  0
 18 40  1  0
 19 20  2  0
 19 41  1  0
 20 21  1  0
 20 42  1  0
 21 43  1  0
 22 23  1  0
 22 44  1  0
 23 24  2  0
 23 25  1  0
 25 26  1  0
 25 30  2  0
 26 27  2  0
 26 31  1  0
 27 28  1  0
 27 45  1  0
 28 29  2  0
 28 46  1  0
 29 30  1  0
 29 47  1  0
 30 48  1  0
 31 32  1  0
 31 49  1  6
 31 50  1  0
 32 33  1  0
 32 34  1  0
 32 57  1  6
 33 51  1  1
 33 52  1  0
 33 53  1  0
 34 54  1  1
 34 55  1  0
 34 56  1  0
M  CHG  1  32   1
M  END
>  <s_epik_cmdline>  (277) 
J2VwaWtfcHl0aG9uJywgJy1waCcsICc3LjAwMDAwMCcsICctcGh0JywgJzIuMDAwMDAwJywgJy1tcycsICcxNicsICctdG4nLCAnOCcsICctbWEnLCAnMjAwJywgJy1pbWFlJywgJzxpbmZpbGUubWFlPicsICctb21hZScsICc8b3V0ZmlsZS5tYWU+Jw==

>  <s_epik_input>  (277) 
Q2xjMVtjSF1jKFtjSF1bY0hdW2NIXTEpQyg9TylDI0NjKFtjSF1jKGMyMylbY0hdW2NIXVtjSF1bY0hdMyljKG4yKVtOSF1DKD1PKWM0YyhbQ0gyXU4oW0NIM10pW0NIM10pW2NIXVtjSF1bY0hdW2NIXTQ=

>  <s_i_glide_gridfile>  (277) 
ATP-Grid

>  <s_lp_Force_Field>  (277) 
OPLS_2005

>  <s_lp_Variant>  (277) 
rxn503b____EMOL5415347____EMOL44466703____EMOL41348147-1

>  <s_lp_label>  (277) 
2435_sdstereoexpander_1_neutralizer_1_epik_1_stereoizer_1

>  <s_m_source_file>  (277) 
ATP-VSW-LIGPREP-001-in.maegz

>  <s_sd_BIOSOLVEIT.INFINISEE\_QUERY\_NAME>  (277) 
Ref-Lig

>  <s_sd_BIOSOLVEIT.INFINISEE\_QUERY\_SMILES>  (277) 
S(c1nc2c(cc1C[NH2+]Cc3ccc(cc3)C[NH+](C)C)cccc2)Cc4ccccc4

>  <s_sd_BIOSOLVEIT.INFINISEE\_REACTION\_NAME>  (277) 
rxn503b

>  <s_sd_BIOSOLVEIT.INFINISEE\_REAGENT1\_NAME>  (277) 
EMOL5415347

>  <s_sd_BIOSOLVEIT.INFINISEE\_REAGENT1\_SMILES>  (277) 
O=C(O)c1c(cccc1)CN(C)C

>  <s_sd_BIOSOLVEIT.INFINISEE\_REAGENT2\_NAME>  (277) 
EMOL44466703

>  <s_sd_BIOSOLVEIT.INFINISEE\_REAGENT2\_SMILES>  (277) 
Brc1c(nc2c(c1)cccc2)N

>  <s_sd_BIOSOLVEIT.INFINISEE\_REAGENT3\_NAME>  (277) 
EMOL41348147

>  <s_sd_BIOSOLVEIT.INFINISEE\_REAGENT3\_SMILES>  (277) 
Clc1cc(ccc1)C(=O)C#C

>  <s_sd_BIOSOLVEIT.INFINISEE\_SPACE>  (277) 
eXplore_7tr_2022-12

>  <s_vsw_compound_code>  (277) 
77889

>  <s_vsw_variant>  (277) 
77889-1

>  <r_epik_Charging_Adjusted_Penalty>  (277) 
0.18116047939206001

>  <r_epik_Ionization_Penalty>  (277) 
0.060499999999999998

>  <r_epik_Ionization_Penalty_Charging>  (277) 
0.060100000000000001

>  <r_epik_Ionization_Penalty_Neutral>  (277) 
0.00050000000000000001

>  <r_epik_State_Penalty>  (277) 
0.1211

>  <r_i_docking_score>  (277) 
-4.2143384691037502

>  <r_i_glide_ecoul>  (277) 
-6.2534670829772896

>  <r_i_glide_eff_state_penalty>  (277) 
0.1211

>  <r_i_glide_einternal>  (277) 
3.09140920639038

>  <r_i_glide_emodel>  (277) 
-57.904010473749203

>  <r_i_glide_energy>  (277) 
-43.2177348136902

>  <r_i_glide_erotb>  (277) 
0.55094752851365003

>  <r_i_glide_esite>  (277) 
-0.154174913957034

>  <r_i_glide_evdw>  (277) 
-36.964267730712898

>  <r_i_glide_gscore>  (277) 
-4.3354384691037504

>  <r_i_glide_hbond>  (277) 
-0.20000000000000001

>  <r_i_glide_ligand_efficiency>  (277) 
-0.12395113144422799

>  <r_i_glide_ligand_efficiency_ln>  (277) 
-0.93106557601509798

>  <r_i_glide_ligand_efficiency_sa>  (277) 
-0.40155354773641

>  <r_i_glide_lipo>  (277) 
-1.5342991346781301

>  <r_i_glide_metal>  (277) 
-0

>  <r_i_glide_rewards>  (277) 
-0.21167849999999999

>  <r_lp_Energy>  (277) 
26.367208000000002

>  <r_qp_ACxDN^.5/SA>  (277) 
0.0102611

>  <r_qp_CIQPlogS>  (277) 
-5.9900000000000002

>  <r_qp_EA(eV)>  (277) 
1.3420000000000001

>  <r_qp_FISA>  (277) 
81.567999999999998

>  <r_qp_FOSA>  (277) 
164.173

>  <r_qp_IP(eV)>  (277) 
8.7629999999999999

>  <r_qp_Jm>  (277) 
0.010259334202925199

>  <r_qp_PISA>  (277) 
415.53500000000003

>  <r_qp_PSA>  (277) 
76.091999999999999

>  <r_qp_PercentHumanOralAbsorption>  (277) 
100

>  <r_qp_QPPCaco>  (277) 
416.19400000000002

>  <r_qp_QPPMDCK>  (277) 
510.75299999999999

>  <r_qp_QPlogBB>  (277) 
-0.085000000000000006

>  <r_qp_QPlogHERG>  (277) 
-7.0430000000000001

>  <r_qp_QPlogKhsa>  (277) 
0.63

>  <r_qp_QPlogKp>  (277) 
-2.9500000000000002

>  <r_qp_QPlogPC16>  (277) 
15.375

>  <r_qp_QPlogPo/w>  (277) 
4.5709999999999997

>  <r_qp_QPlogPoct>  (277) 
22.376999999999999

>  <r_qp_QPlogPw>  (277) 
12.192

>  <r_qp_QPlogS>  (277) 
-4.71

>  <r_qp_QPpolrz>  (277) 
49.218000000000004

>  <r_qp_SASA>  (277) 
730.91399999999999

>  <r_qp_SAamideO>  (277) 
0

>  <r_qp_SAfluorine>  (277) 
0

>  <r_qp_WPSA>  (277) 
69.638000000000005

>  <r_qp_accptHB>  (277) 
7.5

>  <r_qp_dip^2/V>  (277) 
0.0057936000000000003

>  <r_qp_dipole>  (277) 
2.8450000000000002

>  <r_qp_donorHB>  (277) 
1

>  <r_qp_glob>  (277) 
0.82676070000000002

>  <r_qp_mol_MW>  (277) 
467.95400000000001

>  <r_qp_volume>  (277) 
1396.758

>  <r_sd_BIOSOLVEIT.INFINISEE\_FTREES\_SIMILARITY>  (277) 
0.91700000000000004

>  <r_sd_BIOSOLVEIT.LOGP>  (277) 
4.0194000000000001

>  <r_sd_BIOSOLVEIT.MOLECULAR\_WEIGHT>  (277) 
468.96199999999999

>  <r_sd_BIOSOLVEIT.TPSA>  (277) 
63.5

>  <i_epik_Tot_Q>  (277) 
1

>  <i_epik_Tot_abs_Q>  (277) 
1

>  <i_f3d_flags>  (277) 
0

>  <i_i_glide_confnum>  (277) 
5

>  <i_i_glide_lignum>  (277) 
942

>  <i_i_glide_posenum>  (277) 
8

>  <i_i_glide_rotatable_bonds>  (277) 
8

>  <i_lp_mmshare_version>  (277) 
65135

>  <i_m_ct_format>  (277) 
2

>  <i_m_source_file_index>  (277) 
2435

>  <i_qp_#NandO>  (277) 
5

>  <i_qp_#acid>  (277) 
0

>  <i_qp_#amide>  (277) 
0

>  <i_qp_#amidine>  (277) 
0

>  <i_qp_#amine>  (277) 
1

>  <i_qp_#in34>  (277) 
0

>  <i_qp_#in56>  (277) 
22

>  <i_qp_#metab>  (277) 
2

>  <i_qp_#nonHatm>  (277) 
34

>  <i_qp_#noncon>  (277) 
0

>  <i_qp_#ringatoms>  (277) 
22

>  <i_qp_#rotor>  (277) 
7

>  <i_qp_#rtvFG>  (277) 
0

>  <i_qp_#stars>  (277) 
0

>  <i_qp_CNS>  (277) 
1

>  <i_qp_HumanOralAbsorption>  (277) 
3

>  <i_qp_RuleOfFive>  (277) 
0

>  <i_qp_RuleOfThree>  (277) 
0

>  <i_sd_BIOSOLVEIT.INFINISEE\_RESULT\_RANK>  (277) 
23794

>  <i_sd_version>  (277) 
0

>  <b_lp_Chiralities_Consistent>  (277) 
1

>  <b_sd_chiral_flag>  (277) 
0

>  <canonical_id>  (277) 
ATP-HTVS-2CDCEBF2F10D

>  <compound_code>  (277) 
77889

>  <title>  (277) 
rxn503b____EMOL5415347____EMOL44466703____EMOL41348147

>  <variant>  (277) 
77889-1

>  <source_file>  (277) 
运行/运行/ATP-VSW/ATP-VSW-DOCK_HTVS_1-001_lib/ATP-VSW-DOCK_HTVS_1-001_lib

>  <canonical_smiles>  (277) 
C[NH+](C)Cc1ccccc1C(=O)Nc1nc2ccccc2cc1C#CC(=O)c1cccc(Cl)c1

>  <scaffold>  (277) 
O=C(C#Cc1cc2ccccc2nc1NC(=O)c1ccccc1)c1ccccc1

>  <molecular_formula>  (277) 
C28H23ClN3O2+

$$$$
ATP-HTVS-2D0B83E336C6
     RDKit          3D

 57 60  0  0  0  0  0  0  0  0999 V2000
  199.3716  184.9076  148.7807 Cl  0  0  0  0  0  0  0  0  0  0  0  0
  198.7825  184.5974  150.3695 C   0  0  0  0  0  0  0  0  0  0  0  0
  198.4873  183.2854  150.7466 C   0  0  0  0  0  0  0  0  0  0  0  0
  198.0043  182.9685  152.0491 C   0  0  0  0  0  0  0  0  0  0  0  0
  197.8340  184.0363  152.9730 C   0  0  0  0  0  0  0  0  0  0  0  0
  197.3465  183.8156  154.2907 N   0  0  0  0  0  0  0  0  0  0  0  0
  197.6638  182.7923  155.1026 C   0  0  0  0  0  0  0  0  0  0  0  0
  197.1512  182.6811  156.2175 O   0  0  0  0  0  0  0  0  0  0  0  0
  198.7448  181.7957  154.6638 C   0  0  1  0  0  0  0  0  0  0  0  0
  198.4069  180.9305  153.5095 N   0  0  0  0  0  0  0  0  0  0  0  0
  197.5969  181.5273  152.4279 C   0  0  2  0  0  0  0  0  0  0  0  0
  197.5754  180.6144  151.1924 C   0  0  0  0  0  0  0  0  0  0  0  0
  198.7765  180.0808  150.6677 C   0  0  0  0  0  0  0  0  0  0  0  0
  199.9796  180.3977  151.2178 F   0  0  0  0  0  0  0  0  0  0  0  0
  198.7508  179.2557  149.5368 C   0  0  0  0  0  0  0  0  0  0  0  0
  197.5329  178.9791  148.8903 C   0  0  0  0  0  0  0  0  0  0  0  0
  196.3447  179.5291  149.3894 C   0  0  0  0  0  0  0  0  0  0  0  0
  196.3546  180.3419  150.5411 C   0  0  0  0  0  0  0  0  0  0  0  0
  197.8495  179.6518  153.9722 C   0  0  1  0  0  0  0  0  0  0  0  0
  198.9342  178.6741  154.3837 C   0  0  0  0  0  0  0  0  0  0  0  0
  199.0682  178.2791  155.7219 C   0  0  0  0  0  0  0  0  0  0  0  0
  200.0198  177.2996  156.0707 C   0  0  0  0  0  0  0  0  0  0  0  0
  200.8786  176.7093  155.1023 C   0  0  0  0  0  0  0  0  0  0  0  0
  201.8269  175.7220  155.4782 N   0  0  0  0  0  0  0  0  0  0  0  0
  202.7246  175.0805  154.5176 C   0  0  1  0  0  0  0  0  0  0  0  0
  202.7532  173.5543  154.6843 C   0  0  1  0  0  0  0  0  0  0  0  0
  203.6045  173.0228  153.6938 O   0  0  0  0  0  0  0  0  0  0  0  0
  202.1605  175.6223  156.8961 C   0  0  2  0  0  0  0  0  0  0  0  0
  200.7355  177.1429  153.7612 C   0  0  0  0  0  0  0  0  0  0  0  0
  199.7742  178.0977  153.4091 C   0  0  0  0  0  0  0  0  0  0  0  0
  198.1056  185.3677  152.5746 C   0  0  0  0  0  0  0  0  0  0  0  0
  198.5895  185.6496  151.2803 C   0  0  0  0  0  0  0  0  0  0  0  0
  198.6430  182.5434  149.9779 H   0  0  0  0  0  0  0  0  0  0  0  0
  196.7223  184.5090  154.6707 H   0  0  0  0  0  0  0  0  0  0  0  0
  199.6326  182.3809  154.3955 H   0  0  0  0  0  0  0  0  0  0  0  0
  199.0712  181.2019  155.5176 H   0  0  0  0  0  0  0  0  0  0  0  0
  196.5727  181.5962  152.8198 H   0  0  0  0  0  0  0  0  0  0  0  0
  199.6798  178.8586  149.1635 H   0  0  0  0  0  0  0  0  0  0  0  0
  197.5289  178.3755  147.9994 H   0  0  0  0  0  0  0  0  0  0  0  0
  195.4132  179.3557  148.8739 H   0  0  0  0  0  0  0  0  0  0  0  0
  195.4391  180.7741  150.9172 H   0  0  0  0  0  0  0  0  0  0  0  0
  197.1261  179.8275  154.7763 H   0  0  0  0  0  0  0  0  0  0  0  0
  197.2891  179.1130  153.2109 H   0  0  0  0  0  0  0  0  0  0  0  0
  198.4021  178.6962  156.4699 H   0  0  0  0  0  0  0  0  0  0  0  0
  200.0352  177.0086  157.1113 H   0  0  0  0  0  0  0  0  0  0  0  0
  202.4866  175.2370  153.4820 H   0  0  0  0  0  0  0  0  0  0  0  0
  203.7280  175.4898  154.6719 H   0  0  0  0  0  0  0  0  0  0  0  0
  203.0965  173.2373  155.6687 H   0  0  0  0  0  0  0  0  0  0  0  0
  201.7466  173.1597  154.5401 H   0  0  0  0  0  0  0  0  0  0  0  0
  203.5513  172.0609  153.7354 H   0  0  0  0  0  0  0  0  0  0  0  0
  201.3584  175.1473  157.4519 H   0  0  0  0  0  0  0  0  0  0  0  0
  202.3331  176.6082  157.3226 H   0  0  0  0  0  0  0  0  0  0  0  0
  203.0653  175.0422  157.0719 H   0  0  0  0  0  0  0  0  0  0  0  0
  201.3174  176.7691  152.9418 H   0  0  0  0  0  0  0  0  0  0  0  0
  199.6622  178.3407  152.3672 H   0  0  0  0  0  0  0  0  0  0  0  0
  197.9553  186.1818  153.2720 H   0  0  0  0  0  0  0  0  0  0  0  0
  198.8130  186.6617  150.9825 H   0  0  0  0  0  0  0  0  0  0  0  0
  1  2  1  0
  2  3  2  0
  2 32  1  0
  3  4  1  0
  3 33  1  0
  4  5  2  0
  4 11  1  0
  5  6  1  0
  5 31  1  0
  6  7  1  0
  6 34  1  0
  7  8  2  0
  7  9  1  0
  9 10  1  0
  9 35  1  6
  9 36  1  0
 10 11  1  0
 10 19  1  0
 11 12  1  0
 11 37  1  1
 12 13  1  0
 12 18  2  0
 13 14  1  0
 13 15  2  0
 15 16  1  0
 15 38  1  0
 16 17  2  0
 16 39  1  0
 17 18  1  0
 17 40  1  0
 18 41  1  0
 19 20  1  0
 19 42  1  1
 19 43  1  0
 20 21  1  0
 20 30  2  0
 21 22  2  0
 21 44  1  0
 22 23  1  0
 22 45  1  0
 23 24  1  0
 23 29  2  0
 24 25  1  0
 24 28  1  0
 25 26  1  0
 25 46  1  6
 25 47  1  0
 26 27  1  0
 26 48  1  1
 26 49  1  0
 27 50  1  0
 28 51  1  1
 28 52  1  0
 28 53  1  0
 29 30  1  0
 29 54  1  0
 30 55  1  0
 31 32  2  0
 31 56  1  0
 32 57  1  0
M  END
>  <s_epik_cmdline>  (278) 
J2VwaWtfcHl0aG9uJywgJy1waCcsICc3LjAwMDAwMCcsICctcGh0JywgJzIuMDAwMDAwJywgJy1tcycsICcxNicsICctdG4nLCAnOCcsICctbWEnLCAnMjAwJywgJy1pbWFlJywgJzxpbmZpbGUubWFlPicsICctb21hZScsICc8b3V0ZmlsZS5tYWU+Jw==

>  <s_epik_input>  (278) 
Q2xjKFtjSF0xKVtjSF1bY0hdYyhjMTIpW05IXUMoPU8pW0NIMl1OKFtDQEBIXTJjM2MoRilbY0hdW2NIXVtjSF1bY0hdMylbQ0gyXWM0W2NIXVtjSF1jKFtjSF1bY0hdNClOKFtDSDNdKVtDSDJdW0NIMl1bT0hd

>  <s_i_glide_gridfile>  (278) 
ATP-Grid

>  <s_lp_Force_Field>  (278) 
OPLS_2005

>  <s_lp_Variant>  (278) 
m_270004bda____24171218____24721432-2

>  <s_lp_label>  (278) 
1322_sdstereoexpander_3_neutralizer_1_epik_1_stereoizer_1

>  <s_m_source_file>  (278) 
ATP-VSW-LIGPREP-002-in.maegz

>  <s_sd_BIOSOLVEIT.INFINISEE\_QUERY\_NAME>  (278) 
Ref-Lig

>  <s_sd_BIOSOLVEIT.INFINISEE\_QUERY\_SMILES>  (278) 
S(c1nc2c(cc1C[NH2+]Cc3ccc(cc3)C[NH+](C)C)cccc2)Cc4ccccc4

>  <s_sd_BIOSOLVEIT.INFINISEE\_REACTION\_NAME>  (278) 
m_270004bda

>  <s_sd_BIOSOLVEIT.INFINISEE\_REAGENT1\_SMILES>  (278) 
[R1*]N1C(c2c(F)cccc2)c3c(NC(=O)C1)ccc(Cl)c3

>  <s_sd_BIOSOLVEIT.INFINISEE\_REAGENT2\_SMILES>  (278) 
[R1*]Cc1ccc(N(CCO)C)cc1

>  <s_sd_BIOSOLVEIT.INFINISEE\_SPACE>  (278) 
REALSpace_44bn_2023-08

>  <s_vsw_compound_code>  (278) 
42274

>  <s_vsw_variant>  (278) 
42274-2

>  <r_epik_Charging_Adjusted_Penalty>  (278) 
0.017436723378490601

>  <r_epik_Ionization_Penalty>  (278) 
0.017600000000000001

>  <r_epik_Ionization_Penalty_Charging>  (278) 
0

>  <r_epik_Ionization_Penalty_Neutral>  (278) 
0.017600000000000001

>  <r_epik_State_Penalty>  (278) 
0.017399999999999999

>  <r_i_docking_score>  (278) 
-1.71288152632491

>  <r_i_glide_ecoul>  (278) 
-5.3252305984497097

>  <r_i_glide_eff_state_penalty>  (278) 
0.017399999999999999

>  <r_i_glide_einternal>  (278) 
3.3667197227478001

>  <r_i_glide_emodel>  (278) 
-37.819601648508502

>  <r_i_glide_energy>  (278) 
-35.558476448059103

>  <r_i_glide_erotb>  (278) 
0.58460579019453296

>  <r_i_glide_esite>  (278) 
-0.039795405577330703

>  <r_i_glide_evdw>  (278) 
-30.2332458496094

>  <r_i_glide_gscore>  (278) 
-1.7302815263249101

>  <r_i_glide_hbond>  (278) 
-0.16

>  <r_i_glide_ligand_efficiency>  (278) 
-0.053527547697653499

>  <r_i_glide_ligand_efficiency_ln>  (278) 
-0.38356086513110799

>  <r_i_glide_ligand_efficiency_sa>  (278) 
-0.16993937085274499

>  <r_i_glide_lipo>  (278) 
-1.1844718807532799

>  <r_i_glide_metal>  (278) 
-0

>  <r_i_glide_rewards>  (278) 
1.3798268520590899

>  <r_lp_Energy>  (278) 
42.135486999999998

>  <r_qp_ACxDN^.5/SA>  (278) 
0.0135435

>  <r_qp_CIQPlogS>  (278) 
-5.4130000000000003

>  <r_qp_EA(eV)>  (278) 
0.56000000000000005

>  <r_qp_FISA>  (278) 
117.521

>  <r_qp_FOSA>  (278) 
187.88300000000001

>  <r_qp_IP(eV)>  (278) 
8.0239999999999991

>  <r_qp_Jm>  (278) 
0.000167117922088735

>  <r_qp_PISA>  (278) 
346.70499999999998

>  <r_qp_PSA>  (278) 
67.218999999999994

>  <r_qp_PercentHumanOralAbsorption>  (278) 
92.126000000000005

>  <r_qp_QPPCaco>  (278) 
189.821

>  <r_qp_QPPMDCK>  (278) 
319.48599999999999

>  <r_qp_QPlogBB>  (278) 
-0.40000000000000002

>  <r_qp_QPlogHERG>  (278) 
-7.2590000000000003

>  <r_qp_QPlogKhsa>  (278) 
0.63

>  <r_qp_QPlogKp>  (278) 
-3.9510000000000001

>  <r_qp_QPlogPC16>  (278) 
15.058

>  <r_qp_QPlogPo/w>  (278) 
4.1680000000000001

>  <r_qp_QPlogPoct>  (278) 
23.367000000000001

>  <r_qp_QPlogPw>  (278) 
13.419

>  <r_qp_QPlogS>  (278) 
-5.4829999999999997

>  <r_qp_QPpolrz>  (278) 
48.095999999999997

>  <r_qp_SASA>  (278) 
751.82600000000002

>  <r_qp_SAamideO>  (278) 
0

>  <r_qp_SAfluorine>  (278) 
28.085999999999999

>  <r_qp_WPSA>  (278) 
99.715999999999994

>  <r_qp_accptHB>  (278) 
7.2000000000000002

>  <r_qp_dip^2/V>  (278) 
0.0060860999999999997

>  <r_qp_dipole>  (278) 
2.887

>  <r_qp_donorHB>  (278) 
2

>  <r_qp_glob>  (278) 
0.79311529999999997

>  <r_qp_mol_MW>  (278) 
453.94299999999998

>  <r_qp_volume>  (278) 
1369.0940000000001

>  <r_sd_BIOSOLVEIT.INFINISEE\_FTREES\_SIMILARITY>  (278) 
0.91000000000000003

>  <r_sd_BIOSOLVEIT.LOGP>  (278) 
3.0341999999999998

>  <r_sd_BIOSOLVEIT.MOLECULAR\_WEIGHT>  (278) 
454.94999999999999

>  <r_sd_BIOSOLVEIT.TPSA>  (278) 
57.009999999999998

>  <i_epik_Tot_Q>  (278) 
0

>  <i_epik_Tot_abs_Q>  (278) 
0

>  <i_f3d_flags>  (278) 
0

>  <i_i_glide_confnum>  (278) 
10

>  <i_i_glide_lignum>  (278) 
457

>  <i_i_glide_posenum>  (278) 
10

>  <i_i_glide_rotatable_bonds>  (278) 
7

>  <i_lp_mmshare_version>  (278) 
65135

>  <i_m_ct_format>  (278) 
2

>  <i_m_source_file_index>  (278) 
1322

>  <i_qp_#NandO>  (278) 
5

>  <i_qp_#acid>  (278) 
0

>  <i_qp_#amide>  (278) 
0

>  <i_qp_#amidine>  (278) 
0

>  <i_qp_#amine>  (278) 
1

>  <i_qp_#in34>  (278) 
0

>  <i_qp_#in56>  (278) 
18

>  <i_qp_#metab>  (278) 
8

>  <i_qp_#nonHatm>  (278) 
32

>  <i_qp_#noncon>  (278) 
2

>  <i_qp_#ringatoms>  (278) 
23

>  <i_qp_#rotor>  (278) 
6

>  <i_qp_#rtvFG>  (278) 
0

>  <i_qp_#stars>  (278) 
0

>  <i_qp_CNS>  (278) 
1

>  <i_qp_HumanOralAbsorption>  (278) 
3

>  <i_qp_RuleOfFive>  (278) 
0

>  <i_qp_RuleOfThree>  (278) 
1

>  <i_sd_BIOSOLVEIT.INFINISEE\_REAGENT1\_NAME>  (278) 
24171218

>  <i_sd_BIOSOLVEIT.INFINISEE\_REAGENT2\_NAME>  (278) 
24721432

>  <i_sd_BIOSOLVEIT.INFINISEE\_RESULT\_RANK>  (278) 
47848

>  <i_sd_version>  (278) 
0

>  <b_lp_Chiralities_Consistent>  (278) 
1

>  <b_sd_chiral_flag>  (278) 
0

>  <canonical_id>  (278) 
ATP-HTVS-2D0B83E336C6

>  <compound_code>  (278) 
42274

>  <title>  (278) 
m_270004bda____24171218____24721432

>  <variant>  (278) 
42274-2

>  <source_file>  (278) 
运行/运行/ATP-VSW/ATP-VSW-DOCK_HTVS_1-002_lib.maegz

>  <canonical_smiles>  (278) 
CN(CCO)c1ccc(CN2CC(=O)Nc3ccc(Cl)cc3[C@H]2c2ccccc2F)cc1

>  <scaffold>  (278) 
O=C1CN(Cc2ccccc2)C(c2ccccc2)c2ccccc2N1

>  <molecular_formula>  (278) 
C25H25ClFN3O2

$$$$
ATP-HTVS-2D571D26B6AC
     RDKit          3D

 56 58  0  0  0  0  0  0  0  0999 V2000
  198.3408  186.2733  150.9101 S   0  0  0  0  0  0  0  0  0  0  0  0
  197.9988  184.8535  151.8815 C   0  0  0  0  0  0  0  0  0  0  0  0
  197.3692  183.7383  151.1196 C   0  0  0  0  0  0  0  0  0  0  0  0
  196.4748  184.0459  150.3236 O   0  0  0  0  0  0  0  0  0  0  0  0
  197.8528  182.4535  151.2440 N   0  0  0  0  0  0  0  0  0  0  0  0
  199.0624  182.1127  151.9713 C   0  0  0  0  0  0  0  0  0  0  0  0
  200.2620  182.8825  151.8495 C   0  0  0  0  0  0  0  0  0  0  0  0
  201.3944  182.5708  152.6448 C   0  0  0  0  0  0  0  0  0  0  0  0
  201.4111  181.4495  153.5165 C   0  0  0  0  0  0  0  0  0  0  0  0
  200.2461  180.6618  153.5985 C   0  0  0  0  0  0  0  0  0  0  0  0
  199.0694  180.9745  152.8699 C   0  0  0  0  0  0  0  0  0  0  0  0
  197.1862  181.3805  150.4652 C   0  0  1  0  0  0  0  0  0  0  0  0
  196.2423  180.4996  151.3509 C   0  0  1  0  0  0  0  0  0  0  0  0
  195.7268  179.2856  150.5847 C   0  0  2  0  0  0  0  0  0  0  0  0
  198.4295  185.0403  153.1949 C   0  0  0  0  0  0  0  0  0  0  0  0
  198.3248  184.1073  154.2452 N   0  0  0  0  0  0  0  0  0  0  0  0
  197.7993  184.3301  155.5439 C   0  0  0  0  0  0  0  0  0  0  0  0
  197.1569  183.2625  156.2005 C   0  0  0  0  0  0  0  0  0  0  0  0
  196.6350  183.4572  157.5136 C   0  0  0  0  0  0  0  0  0  0  0  0
  196.8211  184.6967  158.1675 C   0  0  0  0  0  0  0  0  0  0  0  0
  197.4357  185.7589  157.4955 C   0  0  0  0  0  0  0  0  0  0  0  0
  197.9148  185.5966  156.1812 C   0  0  0  0  0  0  0  0  0  0  0  0
  195.8711  182.3467  158.2201 C   0  0  1  0  0  0  0  0  0  0  0  0
  194.3970  182.5410  158.1715 N   0  0  1  0  0  0  0  0  0  0  0  0
  193.6628  181.3109  158.5007 C   0  0  2  0  0  0  0  0  0  0  0  0
  193.8867  183.7161  158.9336 C   0  0  2  0  0  0  0  0  0  0  0  0
  199.1443  186.2692  153.3568 C   0  0  0  0  0  0  0  0  0  0  0  0
  199.1037  187.0702  152.2549 C   0  0  0  0  0  0  0  0  0  0  0  0
  200.3163  183.7448  151.2204 H   0  0  0  0  0  0  0  0  0  0  0  0
  202.2773  183.2221  152.6115 H   0  0  0  0  0  0  0  0  0  0  0  0
  202.2565  181.1965  154.1155 H   0  0  0  0  0  0  0  0  0  0  0  0
  200.1921  179.8051  154.2408 H   0  0  0  0  0  0  0  0  0  0  0  0
  198.2639  180.3515  153.1200 H   0  0  0  0  0  0  0  0  0  0  0  0
  196.6034  181.7576  149.6453 H   0  0  0  0  0  0  0  0  0  0  0  0
  197.9495  180.7868  149.9746 H   0  0  0  0  0  0  0  0  0  0  0  0
  196.7024  180.0015  152.1833 H   0  0  0  0  0  0  0  0  0  0  0  0
  195.4277  181.1232  151.7438 H   0  0  0  0  0  0  0  0  0  0  0  0
  195.1834  178.6696  151.3136 H   0  0  0  0  0  0  0  0  0  0  0  0
  196.5746  178.6732  150.2467 H   0  0  0  0  0  0  0  0  0  0  0  0
  195.0990  179.5181  149.7397 H   0  0  0  0  0  0  0  0  0  0  0  0
  198.5520  183.1482  154.0097 H   0  0  0  0  0  0  0  0  0  0  0  0
  197.0184  182.3039  155.7063 H   0  0  0  0  0  0  0  0  0  0  0  0
  196.4522  184.8805  159.1699 H   0  0  0  0  0  0  0  0  0  0  0  0
  197.5508  186.7228  157.9579 H   0  0  0  0  0  0  0  0  0  0  0  0
  198.3720  186.4643  155.7493 H   0  0  0  0  0  0  0  0  0  0  0  0
  196.1290  181.4249  157.7026 H   0  0  0  0  0  0  0  0  0  0  0  0
  196.2183  182.2635  159.2366 H   0  0  0  0  0  0  0  0  0  0  0  0
  193.8822  181.0310  159.5218 H   0  0  0  0  0  0  0  0  0  0  0  0
  193.9377  180.4943  157.8246 H   0  0  0  0  0  0  0  0  0  0  0  0
  192.5977  181.4402  158.3583 H   0  0  0  0  0  0  0  0  0  0  0  0
  194.1323  183.6046  159.9815 H   0  0  0  0  0  0  0  0  0  0  0  0
  192.8081  183.8186  158.8039 H   0  0  0  0  0  0  0  0  0  0  0  0
  194.2945  184.6546  158.5648 H   0  0  0  0  0  0  0  0  0  0  0  0
  199.6584  186.5334  154.2728 H   0  0  0  0  0  0  0  0  0  0  0  0
  199.5238  188.0674  152.1719 H   0  0  0  0  0  0  0  0  0  0  0  0
  194.1666  182.6999  157.1815 H   0  0  0  0  0  0  0  0  0  0  0  0
  1  2  1  0
  1 28  1  0
  2  3  1  0
  2 15  2  0
  3  4  2  0
  3  5  1  0
  5  6  1  0
  5 12  1  0
  6  7  2  0
  6 11  1  0
  7  8  1  0
  7 29  1  0
  8  9  2  0
  8 30  1  0
  9 10  1  0
  9 31  1  0
 10 11  2  0
 10 32  1  0
 11 33  1  0
 12 13  1  0
 12 34  1  6
 12 35  1  0
 13 14  1  0
 13 36  1  1
 13 37  1  0
 14 38  1  1
 14 39  1  0
 14 40  1  0
 15 16  1  0
 15 27  1  0
 16 17  1  0
 16 41  1  0
 17 18  2  0
 17 22  1  0
 18 19  1  0
 18 42  1  0
 19 20  2  0
 19 23  1  0
 20 21  1  0
 20 43  1  0
 21 22  2  0
 21 44  1  0
 22 45  1  0
 23 24  1  0
 23 46  1  6
 23 47  1  0
 24 25  1  0
 24 26  1  0
 24 56  1  6
 25 48  1  1
 25 49  1  0
 25 50  1  0
 26 51  1  1
 26 52  1  0
 26 53  1  0
 27 28  2  0
 27 54  1  0
 28 55  1  0
M  CHG  1  24   1
M  END
>  <s_epik_cmdline>  (279) 
J2VwaWtfcHl0aG9uJywgJy1waCcsICc3LjAwMDAwMCcsICctcGh0JywgJzIuMDAwMDAwJywgJy1tcycsICcxNicsICctdG4nLCAnOCcsICctbWEnLCAnMjAwJywgJy1pbWFlJywgJzxpbmZpbGUubWFlPicsICctb21hZScsICc8b3V0ZmlsZS5tYWU+Jw==

>  <s_epik_input>  (279) 
W2NIXTFbY0hdW2NIXVtjSF1bY0hdYzFOKFtDSDJdW0NIMl1bQ0gzXSlDKD1PKWMyc1tjSF1bY0hdYzJbTkhdYzNbY0hdYyhbY0hdW2NIXVtjSF0zKVtDSDJdTihbQ0gzXSlbQ0gzXQ==

>  <s_i_glide_gridfile>  (279) 
ATP-Grid

>  <s_lp_Force_Field>  (279) 
OPLS_2005

>  <s_lp_Variant>  (279) 
rxn514b____EMOL975329____EMOL1836585____EMOL4279023-1

>  <s_lp_label>  (279) 
2830_sdstereoexpander_1_neutralizer_1_epik_1_stereoizer_1

>  <s_m_source_file>  (279) 
ATP-VSW-LIGPREP-001-in.maegz

>  <s_sd_BIOSOLVEIT.INFINISEE\_QUERY\_NAME>  (279) 
Ref-Lig

>  <s_sd_BIOSOLVEIT.INFINISEE\_QUERY\_SMILES>  (279) 
S(c1nc2c(cc1C[NH2+]Cc3ccc(cc3)C[NH+](C)C)cccc2)Cc4ccccc4

>  <s_sd_BIOSOLVEIT.INFINISEE\_REACTION\_NAME>  (279) 
rxn514b

>  <s_sd_BIOSOLVEIT.INFINISEE\_REAGENT1\_NAME>  (279) 
EMOL975329

>  <s_sd_BIOSOLVEIT.INFINISEE\_REAGENT1\_SMILES>  (279) 
N(c1ccccc1)CCC

>  <s_sd_BIOSOLVEIT.INFINISEE\_REAGENT2\_NAME>  (279) 
EMOL1836585

>  <s_sd_BIOSOLVEIT.INFINISEE\_REAGENT2\_SMILES>  (279) 
S1C(C(=O)O)=C(NC(=O)OC(C)(C)C)C=C1

>  <s_sd_BIOSOLVEIT.INFINISEE\_REAGENT3\_NAME>  (279) 
EMOL4279023

>  <s_sd_BIOSOLVEIT.INFINISEE\_REAGENT3\_SMILES>  (279) 
Brc1cc(ccc1)CN(C)C

>  <s_sd_BIOSOLVEIT.INFINISEE\_SPACE>  (279) 
eXplore_7tr_2022-12

>  <s_vsw_compound_code>  (279) 
90529

>  <s_vsw_variant>  (279) 
90529-1

>  <r_epik_Charging_Adjusted_Penalty>  (279) 
0.085515127163039203

>  <r_epik_Ionization_Penalty>  (279) 
0.042799999999999998

>  <r_epik_Ionization_Penalty_Charging>  (279) 
0.042799999999999998

>  <r_epik_Ionization_Penalty_Neutral>  (279) 
0

>  <r_epik_State_Penalty>  (279) 
0.042799999999999998

>  <r_i_docking_score>  (279) 
-4.00028605360224

>  <r_i_glide_ecoul>  (279) 
-9.01318359375

>  <r_i_glide_eff_state_penalty>  (279) 
0.042799999999999998

>  <r_i_glide_einternal>  (279) 
6.5294895172119096

>  <r_i_glide_emodel>  (279) 
-48.637841535489997

>  <r_i_glide_energy>  (279) 
-37.965919494628899

>  <r_i_glide_erotb>  (279) 
0.87890940793692796

>  <r_i_glide_esite>  (279) 
-0.100495143055329

>  <r_i_glide_evdw>  (279) 
-28.952735900878899

>  <r_i_glide_gscore>  (279) 
-4.0430860536022397

>  <r_i_glide_hbond>  (279) 
-0.20000000000000001

>  <r_i_glide_ligand_efficiency>  (279) 
-0.142867359057223

>  <r_i_glide_ligand_efficiency_ln>  (279) 
-0.92338347467360404

>  <r_i_glide_ligand_efficiency_sa>  (279) 
-0.43382944647229399

>  <r_i_glide_lipo>  (279) 
-1.0258337550999701

>  <r_i_glide_metal>  (279) 
-0

>  <r_i_glide_rewards>  (279) 
-0.79605222927742803

>  <r_lp_Energy>  (279) 
35.975158999999998

>  <r_lp_tautomer_probability>  (279) 
0.99999274205267796

>  <r_qp_ACxDN^.5/SA>  (279) 
0

>  <r_qp_CIQPlogS>  (279) 
-5.3140000000000001

>  <r_qp_EA(eV)>  (279) 
0.63600000000000001

>  <r_qp_FISA>  (279) 
36.923000000000002

>  <r_qp_FOSA>  (279) 
248.75399999999999

>  <r_qp_IP(eV)>  (279) 
8.1029999999999998

>  <r_qp_Jm>  (279) 
0.60587638536960697

>  <r_qp_PISA>  (279) 
301.286

>  <r_qp_PSA>  (279) 
38.857999999999997

>  <r_qp_PercentHumanOralAbsorption>  (279) 
100

>  <r_qp_QPPCaco>  (279) 
1103.22

>  <r_qp_QPPMDCK>  (279) 
999.88199999999995

>  <r_qp_QPlogBB>  (279) 
0.25900000000000001

>  <r_qp_QPlogHERG>  (279) 
-5.6310000000000002

>  <r_qp_QPlogKhsa>  (279) 
0.60899999999999999

>  <r_qp_QPlogKp>  (279) 
-2.4329999999999998

>  <r_qp_QPlogPC16>  (279) 
12.233000000000001

>  <r_qp_QPlogPo/w>  (279) 
4.766

>  <r_qp_QPlogPoct>  (279) 
16.166

>  <r_qp_QPlogPw>  (279) 
6.2080000000000002

>  <r_qp_QPlogS>  (279) 
-3.379

>  <r_qp_QPpolrz>  (279) 
40.305999999999997

>  <r_qp_SASA>  (279) 
626.32100000000003

>  <r_qp_SAamideO>  (279) 
0

>  <r_qp_SAfluorine>  (279) 
0

>  <r_qp_WPSA>  (279) 
39.359000000000002

>  <r_qp_accptHB>  (279) 
4.5

>  <r_qp_dip^2/V>  (279) 
0.0379846

>  <r_qp_dipole>  (279) 
6.7999999999999998

>  <r_qp_donorHB>  (279) 
0

>  <r_qp_glob>  (279) 
0.88034299999999999

>  <r_qp_mol_MW>  (279) 
393.54599999999999

>  <r_qp_volume>  (279) 
1217.3789999999999

>  <r_sd_BIOSOLVEIT.INFINISEE\_FTREES\_SIMILARITY>  (279) 
0.90600000000000003

>  <r_sd_BIOSOLVEIT.LOGP>  (279) 
4.1929999999999996

>  <r_sd_BIOSOLVEIT.MOLECULAR\_WEIGHT>  (279) 
394.55900000000003

>  <r_sd_BIOSOLVEIT.TPSA>  (279) 
36.780000000000001

>  <i_epik_Tot_Q>  (279) 
1

>  <i_epik_Tot_abs_Q>  (279) 
1

>  <i_f3d_flags>  (279) 
0

>  <i_i_glide_confnum>  (279) 
6

>  <i_i_glide_lignum>  (279) 
1302

>  <i_i_glide_posenum>  (279) 
7

>  <i_i_glide_rotatable_bonds>  (279) 
9

>  <i_lp_mmshare_version>  (279) 
65135

>  <i_m_ct_format>  (279) 
2

>  <i_m_source_file_index>  (279) 
2830

>  <i_qp_#NandO>  (279) 
4

>  <i_qp_#acid>  (279) 
0

>  <i_qp_#amide>  (279) 
0

>  <i_qp_#amidine>  (279) 
0

>  <i_qp_#amine>  (279) 
1

>  <i_qp_#in34>  (279) 
0

>  <i_qp_#in56>  (279) 
17

>  <i_qp_#metab>  (279) 
6

>  <i_qp_#nonHatm>  (279) 
28

>  <i_qp_#noncon>  (279) 
0

>  <i_qp_#ringatoms>  (279) 
17

>  <i_qp_#rotor>  (279) 
8

>  <i_qp_#rtvFG>  (279) 
0

>  <i_qp_#stars>  (279) 
0

>  <i_qp_CNS>  (279) 
1

>  <i_qp_HumanOralAbsorption>  (279) 
3

>  <i_qp_RuleOfFive>  (279) 
0

>  <i_qp_RuleOfThree>  (279) 
0

>  <i_sd_BIOSOLVEIT.INFINISEE\_RESULT\_RANK>  (279) 
66453

>  <i_sd_version>  (279) 
0

>  <b_lp_Chiralities_Consistent>  (279) 
1

>  <b_sd_chiral_flag>  (279) 
0

>  <canonical_id>  (279) 
ATP-HTVS-2D571D26B6AC

>  <compound_code>  (279) 
90529

>  <title>  (279) 
rxn514b____EMOL975329____EMOL1836585____EMOL4279023

>  <variant>  (279) 
90529-1

>  <source_file>  (279) 
运行/运行/ATP-VSW/ATP-VSW-DOCK_HTVS_1-001_lib/ATP-VSW-DOCK_HTVS_1-001_lib

>  <canonical_smiles>  (279) 
CCCN(C(=O)c1sccc1Nc1cccc(C[NH+](C)C)c1)c1ccccc1

>  <scaffold>  (279) 
O=C(Nc1ccccc1)c1sccc1Nc1ccccc1

>  <molecular_formula>  (279) 
C23H28N3OS+

$$$$
ATP-HTVS-2D5D363D0DBE
     RDKit          3D

 65 68  0  0  0  0  0  0  0  0999 V2000
  196.1765  186.2084  159.7258 O   0  0  0  0  0  0  0  0  0  0  0  0
  195.9903  184.9561  159.0812 C   0  0  1  0  0  0  0  0  0  0  0  0
  197.0618  184.7897  157.9935 C   0  0  2  0  0  0  0  0  0  0  0  0
  196.8351  183.5661  157.2337 N   0  0  0  0  0  0  0  0  0  0  0  0
  197.1055  183.4867  155.8571 C   0  0  0  0  0  0  0  0  0  0  0  0
  197.3930  184.6329  155.1899 N   0  0  0  0  0  0  0  0  0  0  0  0
  197.6225  184.5629  153.8586 C   0  0  0  0  0  0  0  0  0  0  0  0
  197.5409  183.3183  153.1793 C   0  0  0  0  0  0  0  0  0  0  0  0
  197.2380  182.1884  153.8479 N   0  0  0  0  0  0  0  0  0  0  0  0
  197.0548  182.2431  155.1811 C   0  0  0  0  0  0  0  0  0  0  0  0
  196.8650  181.0389  155.8822 N   0  0  0  0  0  0  0  0  0  0  0  0
  196.9399  179.6899  155.3103 C   0  0  1  0  0  0  0  0  0  0  0  0
  197.9646  179.4502  154.2057 C   0  0  0  0  0  0  0  0  0  0  0  0
  199.3449  179.2850  154.4754 C   0  0  0  0  0  0  0  0  0  0  0  0
  200.2458  179.1091  153.3991 C   0  0  0  0  0  0  0  0  0  0  0  0
  199.7873  179.1210  152.0684 C   0  0  0  0  0  0  0  0  0  0  0  0
  198.4184  179.3022  151.8031 C   0  0  0  0  0  0  0  0  0  0  0  0
  197.5134  179.4476  152.8677 C   0  0  0  0  0  0  0  0  0  0  0  0
  199.8875  179.2542  155.9007 C   0  0  1  0  0  0  0  0  0  0  0  0
  199.7616  177.9166  156.5377 N   0  0  1  0  0  0  0  0  0  0  0  0
  200.1173  176.7796  155.6521 C   0  0  2  0  0  0  0  0  0  0  0  0
  200.4888  177.8423  157.8213 C   0  0  2  0  0  0  0  0  0  0  0  0
  197.8161  183.2556  151.7977 C   0  0  0  0  0  0  0  0  0  0  0  0
  198.1593  184.4125  151.0753 C   0  0  0  0  0  0  0  0  0  0  0  0
  198.2279  185.6492  151.7447 C   0  0  0  0  0  0  0  0  0  0  0  0
  197.9596  185.7200  153.1271 C   0  0  0  0  0  0  0  0  0  0  0  0
  198.4720  184.8629  158.5591 C   0  0  0  0  0  0  0  0  0  0  0  0
  199.0379  183.7510  159.2202 C   0  0  0  0  0  0  0  0  0  0  0  0
  200.3428  183.8254  159.7424 C   0  0  0  0  0  0  0  0  0  0  0  0
  201.0852  185.0143  159.6147 C   0  0  0  0  0  0  0  0  0  0  0  0
  200.5278  186.1241  158.9516 C   0  0  0  0  0  0  0  0  0  0  0  0
  199.2249  186.0482  158.4229 C   0  0  0  0  0  0  0  0  0  0  0  0
  195.1744  186.4809  160.6851 C   0  0  2  0  0  0  0  0  0  0  0  0
  196.0463  184.1431  159.8067 H   0  0  0  0  0  0  0  0  0  0  0  0
  195.0010  184.9247  158.6196 H   0  0  0  0  0  0  0  0  0  0  0  0
  196.9301  185.6539  157.3428 H   0  0  0  0  0  0  0  0  0  0  0  0
  196.7424  182.7075  157.7483 H   0  0  0  0  0  0  0  0  0  0  0  0
  196.3724  181.0635  156.7654 H   0  0  0  0  0  0  0  0  0  0  0  0
  197.1473  179.0011  156.1313 H   0  0  0  0  0  0  0  0  0  0  0  0
  195.9489  179.4138  154.9534 H   0  0  0  0  0  0  0  0  0  0  0  0
  201.3006  178.9712  153.5863 H   0  0  0  0  0  0  0  0  0  0  0  0
  200.4829  179.0027  151.2501 H   0  0  0  0  0  0  0  0  0  0  0  0
  198.0638  179.3725  150.7842 H   0  0  0  0  0  0  0  0  0  0  0  0
  196.4680  179.6240  152.6638 H   0  0  0  0  0  0  0  0  0  0  0  0
  200.9357  179.5411  155.8597 H   0  0  0  0  0  0  0  0  0  0  0  0
  199.4001  180.0060  156.5263 H   0  0  0  0  0  0  0  0  0  0  0  0
  201.1658  176.8229  155.3553 H   0  0  0  0  0  0  0  0  0  0  0  0
  199.5070  176.7339  154.7513 H   0  0  0  0  0  0  0  0  0  0  0  0
  199.9619  175.8335  156.1662 H   0  0  0  0  0  0  0  0  0  0  0  0
  201.5679  177.9248  157.6759 H   0  0  0  0  0  0  0  0  0  0  0  0
  200.2863  176.8960  158.3240 H   0  0  0  0  0  0  0  0  0  0  0  0
  200.1732  178.6384  158.4912 H   0  0  0  0  0  0  0  0  0  0  0  0
  197.7810  182.2989  151.3017 H   0  0  0  0  0  0  0  0  0  0  0  0
  198.3641  184.3461  150.0160 H   0  0  0  0  0  0  0  0  0  0  0  0
  198.4753  186.5467  151.1926 H   0  0  0  0  0  0  0  0  0  0  0  0
  198.0021  186.6683  153.6365 H   0  0  0  0  0  0  0  0  0  0  0  0
  198.4689  182.8405  159.3347 H   0  0  0  0  0  0  0  0  0  0  0  0
  200.7682  182.9759  160.2558 H   0  0  0  0  0  0  0  0  0  0  0  0
  202.0809  185.0763  160.0276 H   0  0  0  0  0  0  0  0  0  0  0  0
  201.0941  187.0379  158.8548 H   0  0  0  0  0  0  0  0  0  0  0  0
  198.7989  186.9026  157.9160 H   0  0  0  0  0  0  0  0  0  0  0  0
  195.3731  187.4445  161.1518 H   0  0  0  0  0  0  0  0  0  0  0  0
  195.1606  185.7210  161.4660 H   0  0  0  0  0  0  0  0  0  0  0  0
  194.1899  186.5256  160.2196 H   0  0  0  0  0  0  0  0  0  0  0  0
  198.7818  177.8228  156.8028 H   0  0  0  0  0  0  0  0  0  0  0  0
  1  2  1  0
  1 33  1  0
  2  3  1  0
  2 34  1  1
  2 35  1  0
  3  4  1  0
  3 27  1  0
  3 36  1  6
  4  5  1  0
  4 37  1  0
  5  6  2  0
  5 10  1  0
  6  7  1  0
  7  8  1  0
  7 26  2  0
  8  9  1  0
  8 23  2  0
  9 10  2  0
 10 11  1  0
 11 12  1  0
 11 38  1  0
 12 13  1  0
 12 39  1  1
 12 40  1  0
 13 14  1  0
 13 18  2  0
 14 15  2  0
 14 19  1  0
 15 16  1  0
 15 41  1  0
 16 17  2  0
 16 42  1  0
 17 18  1  0
 17 43  1  0
 18 44  1  0
 19 20  1  0
 19 45  1  6
 19 46  1  0
 20 21  1  0
 20 22  1  0
 20 65  1  1
 21 47  1  6
 21 48  1  0
 21 49  1  0
 22 50  1  6
 22 51  1  0
 22 52  1  0
 23 24  1  0
 23 53  1  0
 24 25  2  0
 24 54  1  0
 25 26  1  0
 25 55  1  0
 26 56  1  0
 27 28  2  0
 27 32  1  0
 28 29  1  0
 28 57  1  0
 29 30  2  0
 29 58  1  0
 30 31  1  0
 30 59  1  0
 31 32  2  0
 31 60  1  0
 32 61  1  0
 33 62  1  1
 33 63  1  0
 33 64  1  0
M  CHG  1  20   1
M  END
>  <s_epik_cmdline>  (280) 
J2VwaWtfcHl0aG9uJywgJy1waCcsICc3LjAwMDAwMCcsICctcGh0JywgJzIuMDAwMDAwJywgJy1tcycsICcxNicsICctdG4nLCAnOCcsICctbWEnLCAnMjAwJywgJy1pbWFlJywgJzxpbmZpbGUubWFlPicsICctb21hZScsICc8b3V0ZmlsZS5tYWU+Jw==

>  <s_epik_input>  (280) 
W2NIXTFbY0hdW2NIXVtjSF1bY0hdYzFbQ0BIXShbQ0gyXU9bQ0gzXSlbTkhdYyhuMiljKG5jKGMyMylbY0hdW2NIXVtjSF1bY0hdMylbTkhdW0NIMl1jNGMoW0NIMl1OKFtDSDNdKVtDSDNdKVtjSF1bY0hdW2NIXVtjSF00

>  <s_i_glide_gridfile>  (280) 
ATP-Grid

>  <s_lp_Force_Field>  (280) 
OPLS_2005

>  <s_lp_Variant>  (280) 
m_282030aaa____21931794____23157418____21973156-1

>  <s_lp_label>  (280) 
964_sdstereoexpander_1_neutralizer_1_epik_1_stereoizer_1

>  <s_m_source_file>  (280) 
ATP-VSW-LIGPREP-002-in.maegz

>  <s_sd_BIOSOLVEIT.INFINISEE\_QUERY\_NAME>  (280) 
Ref-Lig

>  <s_sd_BIOSOLVEIT.INFINISEE\_QUERY\_SMILES>  (280) 
S(c1nc2c(cc1C[NH2+]Cc3ccc(cc3)C[NH+](C)C)cccc2)Cc4ccccc4

>  <s_sd_BIOSOLVEIT.INFINISEE\_REACTION\_NAME>  (280) 
m_282030aaa

>  <s_sd_BIOSOLVEIT.INFINISEE\_REAGENT1\_SMILES>  (280) 
[R1*]NC(c1ccccc1)COC

>  <s_sd_BIOSOLVEIT.INFINISEE\_REAGENT2\_SMILES>  (280) 
[R1*]c1nc2c(nc1[R2*])cccc2

>  <s_sd_BIOSOLVEIT.INFINISEE\_REAGENT3\_SMILES>  (280) 
[R2*]NCc1c(cccc1)CN(C)C

>  <s_sd_BIOSOLVEIT.INFINISEE\_SPACE>  (280) 
REALSpace_44bn_2023-08

>  <s_vsw_compound_code>  (280) 
30818

>  <s_vsw_variant>  (280) 
30818-1

>  <r_epik_Charging_Adjusted_Penalty>  (280) 
0.076612674508475406

>  <r_epik_Ionization_Penalty>  (280) 
0.038699999999999998

>  <r_epik_Ionization_Penalty_Charging>  (280) 
0.038300000000000001

>  <r_epik_Ionization_Penalty_Neutral>  (280) 
0.00040000000000000002

>  <r_epik_State_Penalty>  (280) 
0.038300000000000001

>  <r_i_docking_score>  (280) 
-4.4376594659272399

>  <r_i_glide_ecoul>  (280) 
-9.3539724349975604

>  <r_i_glide_eff_state_penalty>  (280) 
0.038300000000000001

>  <r_i_glide_einternal>  (280) 
2.7657496929168701

>  <r_i_glide_emodel>  (280) 
-60.2751723619836

>  <r_i_glide_energy>  (280) 
-43.800505638122601

>  <r_i_glide_erotb>  (280) 
0.81622115425911701

>  <r_i_glide_esite>  (280) 
-0.20836616178574999

>  <r_i_glide_evdw>  (280) 
-34.446533203125

>  <r_i_glide_gscore>  (280) 
-4.4759594659272404

>  <r_i_glide_hbond>  (280) 
-0.21868409024608701

>  <r_i_glide_ligand_efficiency>  (280) 
-0.134474529270522

>  <r_i_glide_ligand_efficiency_ln>  (280) 
-0.98691248825120503

>  <r_i_glide_ligand_efficiency_sa>  (280) 
-0.43133166864251099

>  <r_i_glide_lipo>  (280) 
-1.34817975183955

>  <r_i_glide_metal>  (280) 
-0

>  <r_i_glide_rewards>  (280) 
-0.39152809090909002

>  <r_lp_Energy>  (280) 
24.841533999999999

>  <r_qp_ACxDN^.5/SA>  (280) 
0.013404900000000001

>  <r_qp_CIQPlogS>  (280) 
-5.7279999999999998

>  <r_qp_EA(eV)>  (280) 
0.71599999999999997

>  <r_qp_FISA>  (280) 
22.864999999999998

>  <r_qp_FOSA>  (280) 
271.96899999999999

>  <r_qp_IP(eV)>  (280) 
8.0990000000000002

>  <r_qp_Jm>  (280) 
1.81939148035774

>  <r_qp_PISA>  (280) 
412.012

>  <r_qp_PSA>  (280) 
49.552999999999997

>  <r_qp_PercentHumanOralAbsorption>  (280) 
100

>  <r_qp_QPPCaco>  (280) 
1499.588

>  <r_qp_QPPMDCK>  (280) 
848.07500000000005

>  <r_qp_QPlogBB>  (280) 
0.14899999999999999

>  <r_qp_QPlogHERG>  (280) 
-6.6340000000000003

>  <r_qp_QPlogKhsa>  (280) 
0.64000000000000001

>  <r_qp_QPlogKp>  (280) 
-1.5920000000000001

>  <r_qp_QPlogPC16>  (280) 
14.548

>  <r_qp_QPlogPo/w>  (280) 
4.8739999999999997

>  <r_qp_QPlogPoct>  (280) 
22.123999999999999

>  <r_qp_QPlogPw>  (280) 
11.701000000000001

>  <r_qp_QPlogS>  (280) 
-3.7930000000000001

>  <r_qp_QPpolrz>  (280) 
46.875999999999998

>  <r_qp_SASA>  (280) 
706.846

>  <r_qp_SAamideO>  (280) 
0

>  <r_qp_SAfluorine>  (280) 
0

>  <r_qp_WPSA>  (280) 
0

>  <r_qp_accptHB>  (280) 
6.7000000000000002

>  <r_qp_dip^2/V>  (280) 
0.019573699999999999

>  <r_qp_dipole>  (280) 
5.2110000000000003

>  <r_qp_donorHB>  (280) 
2

>  <r_qp_glob>  (280) 
0.85100819999999999

>  <r_qp_mol_MW>  (280) 
441.57499999999999

>  <r_qp_volume>  (280) 
1387.204

>  <r_sd_BIOSOLVEIT.INFINISEE\_FTREES\_SIMILARITY>  (280) 
0.91700000000000004

>  <r_sd_BIOSOLVEIT.LOGP>  (280) 
3.6859999999999999

>  <r_sd_BIOSOLVEIT.MOLECULAR\_WEIGHT>  (280) 
442.584

>  <r_sd_BIOSOLVEIT.TPSA>  (280) 
63.509999999999998

>  <i_epik_Tot_Q>  (280) 
1

>  <i_epik_Tot_abs_Q>  (280) 
1

>  <i_f3d_flags>  (280) 
0

>  <i_i_glide_confnum>  (280) 
6

>  <i_i_glide_lignum>  (280) 
301

>  <i_i_glide_posenum>  (280) 
14

>  <i_i_glide_rotatable_bonds>  (280) 
10

>  <i_lp_mmshare_version>  (280) 
65135

>  <i_m_ct_format>  (280) 
2

>  <i_m_source_file_index>  (280) 
964

>  <i_qp_#NandO>  (280) 
6

>  <i_qp_#acid>  (280) 
0

>  <i_qp_#amide>  (280) 
0

>  <i_qp_#amidine>  (280) 
0

>  <i_qp_#amine>  (280) 
1

>  <i_qp_#in34>  (280) 
0

>  <i_qp_#in56>  (280) 
22

>  <i_qp_#metab>  (280) 
6

>  <i_qp_#nonHatm>  (280) 
33

>  <i_qp_#noncon>  (280) 
0

>  <i_qp_#ringatoms>  (280) 
22

>  <i_qp_#rotor>  (280) 
10

>  <i_qp_#rtvFG>  (280) 
0

>  <i_qp_#stars>  (280) 
0

>  <i_qp_CNS>  (280) 
1

>  <i_qp_HumanOralAbsorption>  (280) 
3

>  <i_qp_RuleOfFive>  (280) 
0

>  <i_qp_RuleOfThree>  (280) 
0

>  <i_sd_BIOSOLVEIT.INFINISEE\_REAGENT1\_NAME>  (280) 
21931794

>  <i_sd_BIOSOLVEIT.INFINISEE\_REAGENT2\_NAME>  (280) 
23157418

>  <i_sd_BIOSOLVEIT.INFINISEE\_REAGENT3\_NAME>  (280) 
21973156

>  <i_sd_BIOSOLVEIT.INFINISEE\_RESULT\_RANK>  (280) 
23512

>  <i_sd_version>  (280) 
0

>  <b_lp_Chiralities_Consistent>  (280) 
1

>  <b_sd_chiral_flag>  (280) 
0

>  <canonical_id>  (280) 
ATP-HTVS-2D5D363D0DBE

>  <compound_code>  (280) 
30818

>  <title>  (280) 
m_282030aaa____21931794____23157418____21973156

>  <variant>  (280) 
30818-1

>  <source_file>  (280) 
运行/运行/ATP-VSW/ATP-VSW-DOCK_HTVS_1-002_lib.maegz

>  <canonical_smiles>  (280) 
COC[C@H](Nc1nc2ccccc2nc1NCc1ccccc1C[NH+](C)C)c1ccccc1

>  <scaffold>  (280) 
c1ccc(CNc2nc3ccccc3nc2NCc2ccccc2)cc1

>  <molecular_formula>  (280) 
C27H32N5O+

$$$$
ATP-HTVS-2DA674675DE4
     RDKit          3D

 52 55  0  0  0  0  0  0  0  0999 V2000
  196.2157  185.4787  160.0843 Br  0  0  0  0  0  0  0  0  0  0  0  0
  196.6192  184.3253  158.6196 C   0  0  0  0  0  0  0  0  0  0  0  0
  196.5971  182.9285  158.7972 C   0  0  0  0  0  0  0  0  0  0  0  0
  196.8779  182.0818  157.7074 C   0  0  0  0  0  0  0  0  0  0  0  0
  197.1591  182.6070  156.4286 C   0  0  0  0  0  0  0  0  0  0  0  0
  197.4225  181.6966  155.3028 C   0  0  0  0  0  0  0  0  0  0  0  0
  198.2807  180.7019  155.5185 N   0  0  0  0  0  0  0  0  0  0  0  0
  198.5391  179.8463  154.5087 C   0  0  0  0  0  0  0  0  0  0  0  0
  199.4527  178.8045  154.7478 N   0  0  0  0  0  0  0  0  0  0  0  0
  199.5972  178.2541  156.0876 C   0  0  1  0  0  0  0  0  0  0  0  0
  201.0531  177.8539  156.3838 C   0  0  1  0  0  0  0  0  0  0  0  0
  201.1191  177.3454  157.7324 N   0  0  0  0  0  0  0  0  0  0  0  0
  201.6532  176.8621  155.3900 C   0  0  0  0  0  0  0  0  0  0  0  0
  202.7154  177.1971  154.5043 C   0  0  0  0  0  0  0  0  0  0  0  0
  203.2098  176.2110  153.6180 C   0  0  0  0  0  0  0  0  0  0  0  0
  202.6833  174.9029  153.6087 C   0  0  0  0  0  0  0  0  0  0  0  0
  201.6479  174.5652  154.4976 C   0  0  0  0  0  0  0  0  0  0  0  0
  201.1421  175.5440  155.3741 C   0  0  0  0  0  0  0  0  0  0  0  0
  203.3904  178.5685  154.4784 C   0  0  1  0  0  0  0  0  0  0  0  0
  202.7074  179.5519  153.5108 C   0  0  2  0  0  0  0  0  0  0  0  0
  197.9300  180.0069  153.2381 C   0  0  0  0  0  0  0  0  0  0  0  0
  197.0275  181.0926  153.1186 C   0  0  0  0  0  0  0  0  0  0  0  0
  196.8104  181.9388  154.1434 N   0  0  0  0  0  0  0  0  0  0  0  0
  196.3477  181.2720  151.8949 C   0  0  0  0  0  0  0  0  0  0  0  0
  196.5640  180.4025  150.8081 C   0  0  0  0  0  0  0  0  0  0  0  0
  197.4826  179.3438  150.9277 C   0  0  0  0  0  0  0  0  0  0  0  0
  198.1722  179.1461  152.1386 C   0  0  0  0  0  0  0  0  0  0  0  0
  197.1718  184.0086  156.2557 C   0  0  0  0  0  0  0  0  0  0  0  0
  196.9253  184.8648  157.3543 C   0  0  0  0  0  0  0  0  0  0  0  0
  201.6819  176.5089  157.7420 H   0  0  0  0  0  0  0  0  0  0  0  0
  201.6109  178.0197  158.2993 H   0  0  0  0  0  0  0  0  0  0  0  0
  196.3591  182.5040  159.7611 H   0  0  0  0  0  0  0  0  0  0  0  0
  196.8525  181.0190  157.8490 H   0  0  0  0  0  0  0  0  0  0  0  0
  199.6558  178.1788  153.9888 H   0  0  0  0  0  0  0  0  0  0  0  0
  199.2780  178.9352  156.8718 H   0  0  0  0  0  0  0  0  0  0  0  0
  198.9338  177.3884  156.1352 H   0  0  0  0  0  0  0  0  0  0  0  0
  201.6152  178.7799  156.4054 H   0  0  0  0  0  0  0  0  0  0  0  0
  204.0148  176.4563  152.9385 H   0  0  0  0  0  0  0  0  0  0  0  0
  203.0773  174.1503  152.9360 H   0  0  0  0  0  0  0  0  0  0  0  0
  201.2541  173.5530  154.5089 H   0  0  0  0  0  0  0  0  0  0  0  0
  200.3569  175.2721  156.0580 H   0  0  0  0  0  0  0  0  0  0  0  0
  203.4778  179.0034  155.4698 H   0  0  0  0  0  0  0  0  0  0  0  0
  204.4273  178.4384  154.1638 H   0  0  0  0  0  0  0  0  0  0  0  0
  203.1555  180.5433  153.5996 H   0  0  0  0  0  0  0  0  0  0  0  0
  201.6517  179.6719  153.7194 H   0  0  0  0  0  0  0  0  0  0  0  0
  202.7970  179.2318  152.4747 H   0  0  0  0  0  0  0  0  0  0  0  0
  195.6445  182.0859  151.8150 H   0  0  0  0  0  0  0  0  0  0  0  0
  196.0263  180.5411  149.8807 H   0  0  0  0  0  0  0  0  0  0  0  0
  197.6595  178.6807  150.0890 H   0  0  0  0  0  0  0  0  0  0  0  0
  198.8715  178.3289  152.2072 H   0  0  0  0  0  0  0  0  0  0  0  0
  197.3788  184.4196  155.2801 H   0  0  0  0  0  0  0  0  0  0  0  0
  196.9334  185.9377  157.2211 H   0  0  0  0  0  0  0  0  0  0  0  0
  1  2  1  0
  2  3  1  0
  2 29  2  0
  3  4  2  0
  3 32  1  0
  4  5  1  0
  4 33  1  0
  5  6  1  0
  5 28  2  0
  6  7  2  0
  6 23  1  0
  7  8  1  0
  8  9  1  0
  8 21  2  0
  9 10  1  0
  9 34  1  0
 10 11  1  0
 10 35  1  1
 10 36  1  0
 11 12  1  0
 11 13  1  0
 11 37  1  1
 12 30  1  0
 12 31  1  0
 13 14  1  0
 13 18  2  0
 14 15  2  0
 14 19  1  0
 15 16  1  0
 15 38  1  0
 16 17  2  0
 16 39  1  0
 17 18  1  0
 17 40  1  0
 18 41  1  0
 19 20  1  0
 19 42  1  1
 19 43  1  0
 20 44  1  6
 20 45  1  0
 20 46  1  0
 21 22  1  0
 21 27  1  0
 22 23  2  0
 22 24  1  0
 24 25  2  0
 24 47  1  0
 25 26  1  0
 25 48  1  0
 26 27  2  0
 26 49  1  0
 27 50  1  0
 28 29  1  0
 28 51  1  0
 29 52  1  0
M  END
>  <s_epik_cmdline>  (281) 
J2VwaWtfcHl0aG9uJywgJy1waCcsICc3LjAwMDAwMCcsICctcGh0JywgJzIuMDAwMDAwJywgJy1tcycsICcxNicsICctdG4nLCAnOCcsICctbWEnLCAnMjAwJywgJy1pbWFlJywgJzxpbmZpbGUubWFlPicsICctb21hZScsICc8b3V0ZmlsZS5tYWU+Jw==

>  <s_epik_input>  (281) 
W2NIXTFbY0hdW2NIXVtjSF1jKGMxMiluYygtYyhbY0hdW2NIXTMpW2NIXVtjSF1jM0JyKW5jMltOSF1bQ0gyXVtDQEBIXShbTkgyXSljNGMoW0NIMl1bQ0gzXSlbY0hdW2NIXVtjSF1bY0hdNA==

>  <s_i_glide_gridfile>  (281) 
ATP-Grid

>  <s_lp_Force_Field>  (281) 
OPLS_2005

>  <s_lp_Variant>  (281) 
m_270166bbb____16815746____21058258-4

>  <s_lp_label>  (281) 
1344_sdstereoexpander_2_neutralizer_1_epik_2_stereoizer_1

>  <s_m_source_file>  (281) 
ATP-VSW-LIGPREP-001-in.maegz

>  <s_sd_BIOSOLVEIT.INFINISEE\_QUERY\_NAME>  (281) 
Ref-Lig

>  <s_sd_BIOSOLVEIT.INFINISEE\_QUERY\_SMILES>  (281) 
S(c1nc2c(cc1C[NH2+]Cc3ccc(cc3)C[NH+](C)C)cccc2)Cc4ccccc4

>  <s_sd_BIOSOLVEIT.INFINISEE\_REACTION\_NAME>  (281) 
m_270166bbb

>  <s_sd_BIOSOLVEIT.INFINISEE\_REAGENT1\_SMILES>  (281) 
[R1*]NCC(N)c1c(cccc1)CC

>  <s_sd_BIOSOLVEIT.INFINISEE\_REAGENT2\_SMILES>  (281) 
[R1*]c1nc(nc2c1cccc2)c3ccc(Br)cc3

>  <s_sd_BIOSOLVEIT.INFINISEE\_SPACE>  (281) 
REALSpace_44bn_2023-08

>  <s_vsw_compound_code>  (281) 
42977

>  <s_vsw_variant>  (281) 
42977-4

>  <r_epik_Charging_Adjusted_Penalty>  (281) 
1.91770255411433

>  <r_epik_Ionization_Penalty>  (281) 
1.9252

>  <r_epik_Ionization_Penalty_Charging>  (281) 
0

>  <r_epik_Ionization_Penalty_Neutral>  (281) 
1.9252

>  <r_epik_State_Penalty>  (281) 
1.9177

>  <r_i_docking_score>  (281) 
-1.0639451720928499

>  <r_i_glide_ecoul>  (281) 
-0.80098187923431396

>  <r_i_glide_eff_state_penalty>  (281) 
1.9177

>  <r_i_glide_einternal>  (281) 
3.1342990398407

>  <r_i_glide_emodel>  (281) 
-40.684608170037798

>  <r_i_glide_energy>  (281) 
-35.405866980552702

>  <r_i_glide_erotb>  (281) 
0.50025086918952

>  <r_i_glide_esite>  (281) 
-0.053543804444306203

>  <r_i_glide_evdw>  (281) 
-34.604885101318402

>  <r_i_glide_gscore>  (281) 
-2.9816451720928501

>  <r_i_glide_hbond>  (281) 
0

>  <r_i_glide_ligand_efficiency>  (281) 
-0.0366877645549257

>  <r_i_glide_ligand_efficiency_ln>  (281) 
-0.24361646508753701

>  <r_i_glide_ligand_efficiency_sa>  (281) 
-0.112716436212383

>  <r_i_glide_lipo>  (281) 
-1.21912129079609

>  <r_i_glide_metal>  (281) 
-0

>  <r_i_glide_rewards>  (281) 
-0.358839409090909

>  <r_lp_Energy>  (281) 
15.804809000000001

>  <r_lp_tautomer_probability>  (281) 
0.99997800024199801

>  <r_qp_ACxDN^.5/SA>  (281) 
0.00975

>  <r_qp_CIQPlogS>  (281) 
-6.9349999999999996

>  <r_qp_EA(eV)>  (281) 
1.0409999999999999

>  <r_qp_FISA>  (281) 
67.081000000000003

>  <r_qp_FOSA>  (281) 
119.315

>  <r_qp_IP(eV)>  (281) 
8.4860000000000007

>  <r_qp_Jm>  (281) 
0.070795564543502804

>  <r_qp_PISA>  (281) 
357.93900000000002

>  <r_qp_PSA>  (281) 
49.750999999999998

>  <r_qp_PercentHumanOralAbsorption>  (281) 
100

>  <r_qp_QPPCaco>  (281) 
571.05100000000004

>  <r_qp_QPPMDCK>  (281) 
793.197

>  <r_qp_QPlogBB>  (281) 
0.14299999999999999

>  <r_qp_QPlogHERG>  (281) 
-6.0199999999999996

>  <r_qp_QPlogKhsa>  (281) 
0.70499999999999996

>  <r_qp_QPlogKp>  (281) 
-2.8849999999999998

>  <r_qp_QPlogPC16>  (281) 
13.531000000000001

>  <r_qp_QPlogPo/w>  (281) 
4.6040000000000001

>  <r_qp_QPlogPoct>  (281) 
20.437999999999999

>  <r_qp_QPlogPw>  (281) 
10.430999999999999

>  <r_qp_QPlogS>  (281) 
-3.915

>  <r_qp_QPpolrz>  (281) 
40.356999999999999

>  <r_qp_SASA>  (281) 
621.76400000000001

>  <r_qp_SAamideO>  (281) 
0

>  <r_qp_SAfluorine>  (281) 
0

>  <r_qp_WPSA>  (281) 
77.429000000000002

>  <r_qp_accptHB>  (281) 
3.5

>  <r_qp_dip^2/V>  (281) 
0.038441999999999997

>  <r_qp_dipole>  (281) 
6.7610000000000001

>  <r_qp_donorHB>  (281) 
3

>  <r_qp_glob>  (281) 
0.87300160000000004

>  <r_qp_mol_MW>  (281) 
447.37599999999998

>  <r_qp_volume>  (281) 
1189.087

>  <r_sd_BIOSOLVEIT.INFINISEE\_FTREES\_SIMILARITY>  (281) 
0.90900000000000003

>  <r_sd_BIOSOLVEIT.LOGP>  (281) 
5.0167999999999999

>  <r_sd_BIOSOLVEIT.MOLECULAR\_WEIGHT>  (281) 
448.38600000000002

>  <r_sd_BIOSOLVEIT.TPSA>  (281) 
65.450000000000003

>  <i_epik_Tot_Q>  (281) 
0

>  <i_epik_Tot_abs_Q>  (281) 
0

>  <i_f3d_flags>  (281) 
0

>  <i_i_glide_confnum>  (281) 
3

>  <i_i_glide_lignum>  (281) 
357

>  <i_i_glide_posenum>  (281) 
16

>  <i_i_glide_rotatable_bonds>  (281) 
6

>  <i_lp_mmshare_version>  (281) 
65135

>  <i_m_ct_format>  (281) 
2

>  <i_m_source_file_index>  (281) 
1344

>  <i_qp_#NandO>  (281) 
4

>  <i_qp_#acid>  (281) 
0

>  <i_qp_#amide>  (281) 
0

>  <i_qp_#amidine>  (281) 
0

>  <i_qp_#amine>  (281) 
1

>  <i_qp_#in34>  (281) 
0

>  <i_qp_#in56>  (281) 
22

>  <i_qp_#metab>  (281) 
5

>  <i_qp_#nonHatm>  (281) 
29

>  <i_qp_#noncon>  (281) 
0

>  <i_qp_#ringatoms>  (281) 
22

>  <i_qp_#rotor>  (281) 
7

>  <i_qp_#rtvFG>  (281) 
0

>  <i_qp_#stars>  (281) 
0

>  <i_qp_CNS>  (281) 
1

>  <i_qp_HumanOralAbsorption>  (281) 
3

>  <i_qp_RuleOfFive>  (281) 
0

>  <i_qp_RuleOfThree>  (281) 
0

>  <i_sd_BIOSOLVEIT.INFINISEE\_REAGENT1\_NAME>  (281) 
16815746

>  <i_sd_BIOSOLVEIT.INFINISEE\_REAGENT2\_NAME>  (281) 
21058258

>  <i_sd_BIOSOLVEIT.INFINISEE\_RESULT\_RANK>  (281) 
49253

>  <i_sd_version>  (281) 
0

>  <b_lp_Chiralities_Consistent>  (281) 
1

>  <b_sd_chiral_flag>  (281) 
0

>  <canonical_id>  (281) 
ATP-HTVS-2DA674675DE4

>  <compound_code>  (281) 
42977

>  <title>  (281) 
m_270166bbb____16815746____21058258

>  <variant>  (281) 
42977-4

>  <source_file>  (281) 
运行/运行/ATP-VSW/ATP-VSW-DOCK_HTVS_1-001_lib/ATP-VSW-DOCK_HTVS_1-001_lib

>  <canonical_smiles>  (281) 
CCc1ccccc1[C@H](N)CNc1nc(-c2ccc(Br)cc2)nc2ccccc12

>  <scaffold>  (281) 
c1ccc(CCNc2nc(-c3ccccc3)nc3ccccc23)cc1

>  <molecular_formula>  (281) 
C24H23BrN4

$$$$
ATP-HTVS-2DB2F1DB5A18
     RDKit          3D

 52 55  0  0  0  0  0  0  0  0999 V2000
  197.3691  181.3300  155.7172 Br  0  0  0  0  0  0  0  0  0  0  0  0
  196.7667  182.4604  157.1155 C   0  0  0  0  0  0  0  0  0  0  0  0
  197.5637  183.5477  157.5154 C   0  0  0  0  0  0  0  0  0  0  0  0
  197.1392  184.4309  158.5466 C   0  0  0  0  0  0  0  0  0  0  0  0
  195.8801  184.1948  159.1597 C   0  0  0  0  0  0  0  0  0  0  0  0
  195.3868  185.0298  160.1996 N   0  0  0  0  0  0  0  0  0  0  0  0
  195.4952  186.3583  160.2615 C   0  0  0  0  0  0  0  0  0  0  0  0
  195.1209  186.9752  161.2487 O   0  0  0  0  0  0  0  0  0  0  0  0
  196.0744  187.1122  159.0513 C   0  0  1  0  0  0  0  0  0  0  0  0
  197.5318  186.9293  158.7823 N   0  0  0  0  0  0  0  0  0  0  0  0
  198.0460  185.5699  159.0519 C   0  0  2  0  0  0  0  0  0  0  0  0
  199.4725  185.4010  158.5185 C   0  0  0  0  0  0  0  0  0  0  0  0
  200.4231  184.6395  159.2402 C   0  0  0  0  0  0  0  0  0  0  0  0
  201.7287  184.4648  158.7324 C   0  0  0  0  0  0  0  0  0  0  0  0
  202.0873  185.0386  157.4989 C   0  0  0  0  0  0  0  0  0  0  0  0
  201.1446  185.7883  156.7684 C   0  0  0  0  0  0  0  0  0  0  0  0
  199.8435  185.9606  157.2736 C   0  0  0  0  0  0  0  0  0  0  0  0
  198.3248  187.9500  159.4945 C   0  0  1  0  0  0  0  0  0  0  0  0
  198.5555  189.2339  158.6928 C   0  0  0  0  0  0  0  0  0  0  0  0
  197.5561  190.2237  158.5799 C   0  0  0  0  0  0  0  0  0  0  0  0
  197.7968  191.4132  157.8682 C   0  0  0  0  0  0  0  0  0  0  0  0
  196.7690  192.3214  157.7700 O   0  0  0  0  0  0  0  0  0  0  0  0
  196.9812  193.4653  156.9736 C   0  0  1  0  0  0  0  0  0  0  0  0
  195.6619  194.1992  156.6944 C   0  0  2  0  0  0  0  0  0  0  0  0
  199.0738  191.6277  157.2857 C   0  0  0  0  0  0  0  0  0  0  0  0
  200.0753  190.6307  157.3855 C   0  0  0  0  0  0  0  0  0  0  0  0
  199.8092  189.4348  158.0821 C   0  0  0  0  0  0  0  0  0  0  0  0
  195.0898  183.0952  158.7685 C   0  0  0  0  0  0  0  0  0  0  0  0
  195.5284  182.2329  157.7436 C   0  0  0  0  0  0  0  0  0  0  0  0
  198.5073  183.6566  157.0046 H   0  0  0  0  0  0  0  0  0  0  0  0
  194.8409  184.5825  160.9152 H   0  0  0  0  0  0  0  0  0  0  0  0
  195.5284  186.8001  158.1609 H   0  0  0  0  0  0  0  0  0  0  0  0
  195.8461  188.1849  159.1787 H   0  0  0  0  0  0  0  0  0  0  0  0
  198.1068  185.4521  160.1286 H   0  0  0  0  0  0  0  0  0  0  0  0
  200.1485  184.1833  160.1845 H   0  0  0  0  0  0  0  0  0  0  0  0
  202.4407  183.8788  159.2866 H   0  0  0  0  0  0  0  0  0  0  0  0
  203.0776  184.8974  157.1020 H   0  0  0  0  0  0  0  0  0  0  0  0
  201.4044  186.2230  155.8127 H   0  0  0  0  0  0  0  0  0  0  0  0
  199.1206  186.5247  156.7039 H   0  0  0  0  0  0  0  0  0  0  0  0
  197.8896  188.1794  160.4747 H   0  0  0  0  0  0  0  0  0  0  0  0
  199.3277  187.5927  159.7336 H   0  0  0  0  0  0  0  0  0  0  0  0
  196.5852  190.0918  159.0466 H   0  0  0  0  0  0  0  0  0  0  0  0
  197.6770  194.1342  157.4822 H   0  0  0  0  0  0  0  0  0  0  0  0
  197.3909  193.1871  156.0047 H   0  0  0  0  0  0  0  0  0  0  0  0
  195.8611  195.0702  156.0667 H   0  0  0  0  0  0  0  0  0  0  0  0
  195.1764  194.5413  157.6090 H   0  0  0  0  0  0  0  0  0  0  0  0
  194.9779  193.5517  156.1470 H   0  0  0  0  0  0  0  0  0  0  0  0
  199.3292  192.5365  156.7601 H   0  0  0  0  0  0  0  0  0  0  0  0
  201.0421  190.8164  156.9387 H   0  0  0  0  0  0  0  0  0  0  0  0
  200.5999  188.7001  158.1609 H   0  0  0  0  0  0  0  0  0  0  0  0
  194.1291  182.9209  159.2264 H   0  0  0  0  0  0  0  0  0  0  0  0
  194.9157  181.4054  157.4261 H   0  0  0  0  0  0  0  0  0  0  0  0
  1  2  1  0
  2  3  2  0
  2 29  1  0
  3  4  1  0
  3 30  1  0
  4  5  2  0
  4 11  1  0
  5  6  1  0
  5 28  1  0
  6  7  1  0
  6 31  1  0
  7  8  2  0
  7  9  1  0
  9 10  1  0
  9 32  1  6
  9 33  1  0
 10 11  1  0
 10 18  1  0
 11 12  1  0
 11 34  1  1
 12 13  2  0
 12 17  1  0
 13 14  1  0
 13 35  1  0
 14 15  2  0
 14 36  1  0
 15 16  1  0
 15 37  1  0
 16 17  2  0
 16 38  1  0
 17 39  1  0
 18 19  1  0
 18 40  1  1
 18 41  1  0
 19 20  1  0
 19 27  2  0
 20 21  2  0
 20 42  1  0
 21 22  1  0
 21 25  1  0
 22 23  1  0
 23 24  1  0
 23 43  1  1
 23 44  1  0
 24 45  1  6
 24 46  1  0
 24 47  1  0
 25 26  2  0
 25 48  1  0
 26 27  1  0
 26 49  1  0
 27 50  1  0
 28 29  2  0
 28 51  1  0
 29 52  1  0
M  END
>  <s_epik_cmdline>  (282) 
J2VwaWtfcHl0aG9uJywgJy1waCcsICc3LjAwMDAwMCcsICctcGh0JywgJzIuMDAwMDAwJywgJy1tcycsICcxNicsICctdG4nLCAnOCcsICctbWEnLCAnMjAwJywgJy1pbWFlJywgJzxpbmZpbGUubWFlPicsICctb21hZScsICc8b3V0ZmlsZS5tYWU+Jw==

>  <s_epik_input>  (282) 
QnJjKFtjSF0xKVtjSF1bY0hdYyhjMTIpW05IXUMoPU8pW0NIMl1OKFtDQEBIXTJjM1tjSF1bY0hdW2NIXVtjSF1bY0hdMylbQ0gyXWM0W2NIXWMoT1tDSDJdW0NIM10pW2NIXVtjSF1bY0hdNA==

>  <s_i_glide_gridfile>  (282) 
ATP-Grid

>  <s_lp_Force_Field>  (282) 
OPLS_2005

>  <s_lp_Variant>  (282) 
m_270004bda____24170772____7454752-1

>  <s_lp_label>  (282) 
1925_sdstereoexpander_1_neutralizer_1_epik_1_stereoizer_1

>  <s_m_source_file>  (282) 
ATP-VSW-LIGPREP-003-in.maegz

>  <s_sd_BIOSOLVEIT.INFINISEE\_QUERY\_NAME>  (282) 
Ref-Lig

>  <s_sd_BIOSOLVEIT.INFINISEE\_QUERY\_SMILES>  (282) 
S(c1nc2c(cc1C[NH2+]Cc3ccc(cc3)C[NH+](C)C)cccc2)Cc4ccccc4

>  <s_sd_BIOSOLVEIT.INFINISEE\_REACTION\_NAME>  (282) 
m_270004bda

>  <s_sd_BIOSOLVEIT.INFINISEE\_REAGENT1\_SMILES>  (282) 
[R1*]N1C(c2c(NC(=O)C1)ccc(Br)c2)c3ccccc3

>  <s_sd_BIOSOLVEIT.INFINISEE\_REAGENT2\_SMILES>  (282) 
[R1*]Cc1cc(OCC)ccc1

>  <s_sd_BIOSOLVEIT.INFINISEE\_SPACE>  (282) 
REALSpace_44bn_2023-08

>  <s_vsw_compound_code>  (282) 
61571

>  <s_vsw_variant>  (282) 
61571-1

>  <r_epik_Charging_Adjusted_Penalty>  (282) 
0.0073316794013014502

>  <r_epik_Ionization_Penalty>  (282) 
0.0073000000000000001

>  <r_epik_Ionization_Penalty_Charging>  (282) 
0

>  <r_epik_Ionization_Penalty_Neutral>  (282) 
0.0073000000000000001

>  <r_epik_State_Penalty>  (282) 
0.0073000000000000001

>  <r_i_docking_score>  (282) 
-1.42005166263302

>  <r_i_glide_ecoul>  (282) 
0.395061194896698

>  <r_i_glide_eff_state_penalty>  (282) 
0.0073000000000000001

>  <r_i_glide_einternal>  (282) 
4.4509072303771999

>  <r_i_glide_emodel>  (282) 
-36.182913281575303

>  <r_i_glide_energy>  (282) 
-35.285278618335703

>  <r_i_glide_erotb>  (282) 
0.39379973139459101

>  <r_i_glide_esite>  (282) 
0

>  <r_i_glide_evdw>  (282) 
-35.680339813232401

>  <r_i_glide_gscore>  (282) 
-1.42735166263302

>  <r_i_glide_hbond>  (282) 
0

>  <r_i_glide_ligand_efficiency>  (282) 
-0.048967298711483503

>  <r_i_glide_ligand_efficiency_ln>  (282) 
-0.325155821339774

>  <r_i_glide_ligand_efficiency_sa>  (282) 
-0.150443055570814

>  <r_i_glide_lipo>  (282) 
-1.37520080424178

>  <r_i_glide_metal>  (282) 
-0

>  <r_i_glide_rewards>  (282) 
1.27880722164128

>  <r_lp_Energy>  (282) 
38.411358999999997

>  <r_lp_tautomer_probability>  (282) 
1

>  <r_qp_ACxDN^.5/SA>  (282) 
0.0078601000000000001

>  <r_qp_CIQPlogS>  (282) 
-6.2039999999999997

>  <r_qp_EA(eV)>  (282) 
0.64700000000000002

>  <r_qp_FISA>  (282) 
70.531999999999996

>  <r_qp_FOSA>  (282) 
154.68700000000001

>  <r_qp_IP(eV)>  (282) 
9.1300000000000008

>  <r_qp_Jm>  (282) 
0.0043765810955058203

>  <r_qp_PISA>  (282) 
387.387

>  <r_qp_PSA>  (282) 
50.829999999999998

>  <r_qp_PercentHumanOralAbsorption>  (282) 
100

>  <r_qp_QPPCaco>  (282) 
529.59199999999998

>  <r_qp_QPPMDCK>  (282) 
553.20899999999995

>  <r_qp_QPlogBB>  (282) 
0.17999999999999999

>  <r_qp_QPlogHERG>  (282) 
-6.7949999999999999

>  <r_qp_QPlogKhsa>  (282) 
0.78700000000000003

>  <r_qp_QPlogKp>  (282) 
-3.133

>  <r_qp_QPlogPC16>  (282) 
13.539

>  <r_qp_QPlogPo/w>  (282) 
4.4989999999999997

>  <r_qp_QPlogPoct>  (282) 
19.382999999999999

>  <r_qp_QPlogPw>  (282) 
10.214

>  <r_qp_QPlogS>  (282) 
-4.8799999999999999

>  <r_qp_QPpolrz>  (282) 
44.433

>  <r_qp_SASA>  (282) 
667.92700000000002

>  <r_qp_SAamideO>  (282) 
0

>  <r_qp_SAfluorine>  (282) 
0

>  <r_qp_WPSA>  (282) 
55.320999999999998

>  <r_qp_accptHB>  (282) 
5.25

>  <r_qp_dip^2/V>  (282) 
0.0059313999999999999

>  <r_qp_dipole>  (282) 
2.7069999999999999

>  <r_qp_donorHB>  (282) 
1

>  <r_qp_glob>  (282) 
0.83379700000000001

>  <r_qp_mol_MW>  (282) 
451.36200000000002

>  <r_qp_volume>  (282) 
1235.768

>  <r_sd_BIOSOLVEIT.INFINISEE\_FTREES\_SIMILARITY>  (282) 
0.90300000000000002

>  <r_sd_BIOSOLVEIT.LOGP>  (282) 
3.9744000000000002

>  <r_sd_BIOSOLVEIT.MOLECULAR\_WEIGHT>  (282) 
452.37

>  <r_sd_BIOSOLVEIT.TPSA>  (282) 
42.770000000000003

>  <i_epik_Tot_Q>  (282) 
0

>  <i_epik_Tot_abs_Q>  (282) 
0

>  <i_f3d_flags>  (282) 
0

>  <i_i_glide_confnum>  (282) 
4

>  <i_i_glide_lignum>  (282) 
732

>  <i_i_glide_posenum>  (282) 
18

>  <i_i_glide_rotatable_bonds>  (282) 
5

>  <i_lp_mmshare_version>  (282) 
65135

>  <i_m_ct_format>  (282) 
2

>  <i_m_source_file_index>  (282) 
1925

>  <i_qp_#NandO>  (282) 
4

>  <i_qp_#acid>  (282) 
0

>  <i_qp_#amide>  (282) 
0

>  <i_qp_#amidine>  (282) 
0

>  <i_qp_#amine>  (282) 
1

>  <i_qp_#in34>  (282) 
0

>  <i_qp_#in56>  (282) 
18

>  <i_qp_#metab>  (282) 
7

>  <i_qp_#nonHatm>  (282) 
29

>  <i_qp_#noncon>  (282) 
2

>  <i_qp_#ringatoms>  (282) 
23

>  <i_qp_#rotor>  (282) 
4

>  <i_qp_#rtvFG>  (282) 
0

>  <i_qp_#stars>  (282) 
0

>  <i_qp_CNS>  (282) 
1

>  <i_qp_HumanOralAbsorption>  (282) 
3

>  <i_qp_RuleOfFive>  (282) 
0

>  <i_qp_RuleOfThree>  (282) 
1

>  <i_sd_BIOSOLVEIT.INFINISEE\_REAGENT1\_NAME>  (282) 
24170772

>  <i_sd_BIOSOLVEIT.INFINISEE\_REAGENT2\_NAME>  (282) 
7454752

>  <i_sd_BIOSOLVEIT.INFINISEE\_RESULT\_RANK>  (282) 
86060

>  <i_sd_version>  (282) 
0

>  <b_lp_Chiralities_Consistent>  (282) 
1

>  <b_sd_chiral_flag>  (282) 
0

>  <canonical_id>  (282) 
ATP-HTVS-2DB2F1DB5A18

>  <compound_code>  (282) 
61571

>  <title>  (282) 
m_270004bda____24170772____7454752

>  <variant>  (282) 
61571-1

>  <source_file>  (282) 
运行/运行/ATP-VSW/ATP-VSW-DOCK_HTVS_1-003_lib/ATP-VSW-DOCK_HTVS_1-003_lib.mae

>  <canonical_smiles>  (282) 
CCOc1cccc(CN2CC(=O)Nc3ccc(Br)cc3[C@H]2c2ccccc2)c1

>  <scaffold>  (282) 
O=C1CN(Cc2ccccc2)C(c2ccccc2)c2ccccc2N1

>  <molecular_formula>  (282) 
C24H23BrN2O2

$$$$
ATP-HTVS-2DB2F8E5543E
     RDKit          3D

 61 64  0  0  0  0  0  0  0  0999 V2000
  198.4642  179.8477  155.6068 O   0  0  0  0  0  0  0  0  0  0  0  0
  199.3520  180.4645  156.1988 C   0  0  0  0  0  0  0  0  0  0  0  0
  199.1490  181.5784  156.9216 N   0  0  0  0  0  0  0  0  0  0  0  0
  197.9264  182.1429  157.4036 C   0  0  0  0  0  0  0  0  0  0  0  0
  197.9740  183.0769  158.4768 C   0  0  0  0  0  0  0  0  0  0  0  0
  199.2266  183.4370  159.0149 N   0  0  0  0  0  0  0  0  0  0  0  0
  199.7658  184.7292  159.1452 C   0  0  0  0  0  0  0  0  0  0  0  0
  201.0524  184.8771  159.7151 C   0  0  0  0  0  0  0  0  0  0  0  0
  201.6026  186.1658  159.8795 C   0  0  0  0  0  0  0  0  0  0  0  0
  200.8613  187.3143  159.5156 C   0  0  0  0  0  0  0  0  0  0  0  0
  201.4585  188.5751  159.6594 N   0  0  0  0  0  0  0  0  0  0  0  0
  200.7310  189.8103  159.3952 C   0  0  1  0  0  0  0  0  0  0  0  0
  200.4192  190.0243  157.8997 C   0  0  1  0  0  0  0  0  0  0  0  0
  199.7296  191.2448  157.7431 O   0  0  0  0  0  0  0  0  0  0  0  0
  199.5620  187.1630  158.9937 C   0  0  0  0  0  0  0  0  0  0  0  0
  199.0457  185.8750  158.7540 C   0  0  0  0  0  0  0  0  0  0  0  0
  196.7488  183.6167  158.9801 C   0  0  0  0  0  0  0  0  0  0  0  0
  195.5257  183.2410  158.3589 C   0  0  0  0  0  0  0  0  0  0  0  0
  195.5535  182.3712  157.3278 N   0  0  0  0  0  0  0  0  0  0  0  0
  196.6723  181.8077  156.8488 C   0  0  0  0  0  0  0  0  0  0  0  0
  194.3004  183.8004  158.7727 C   0  0  0  0  0  0  0  0  0  0  0  0
  194.2785  184.7569  159.8086 C   0  0  0  0  0  0  0  0  0  0  0  0
  195.4729  185.1303  160.4396 C   0  0  0  0  0  0  0  0  0  0  0  0
  196.6865  184.5311  160.0532 C   0  0  0  0  0  0  0  0  0  0  0  0
  200.8100  180.0104  156.0885 C   0  0  1  0  0  0  0  0  0  0  0  0
  200.9938  178.6081  156.4865 N   0  0  0  0  0  0  0  0  0  0  0  0
  201.0266  177.5420  155.5489 C   0  0  0  0  0  0  0  0  0  0  0  0
  201.1165  176.1890  155.9805 C   0  0  0  0  0  0  0  0  0  0  0  0
  201.1787  175.1257  155.0551 C   0  0  0  0  0  0  0  0  0  0  0  0
  201.1516  175.3881  153.6740 C   0  0  0  0  0  0  0  0  0  0  0  0
  201.0577  176.7168  153.2258 C   0  0  0  0  0  0  0  0  0  0  0  0
  200.9891  177.7787  154.1495 C   0  0  0  0  0  0  0  0  0  0  0  0
  201.0987  178.3100  157.9156 C   0  0  2  0  0  0  0  0  0  0  0  0
  199.9872  182.0059  157.2927 H   0  0  0  0  0  0  0  0  0  0  0  0
  199.8665  182.6726  159.1804 H   0  0  0  0  0  0  0  0  0  0  0  0
  201.6175  184.0090  160.0463 H   0  0  0  0  0  0  0  0  0  0  0  0
  202.5932  186.2677  160.2948 H   0  0  0  0  0  0  0  0  0  0  0  0
  202.4107  188.6379  159.9874 H   0  0  0  0  0  0  0  0  0  0  0  0
  199.8383  189.8342  160.0205 H   0  0  0  0  0  0  0  0  0  0  0  0
  201.3555  190.6261  159.7563 H   0  0  0  0  0  0  0  0  0  0  0  0
  201.3502  190.0458  157.3255 H   0  0  0  0  0  0  0  0  0  0  0  0
  199.7856  189.2237  157.5002 H   0  0  0  0  0  0  0  0  0  0  0  0
  198.9245  191.2001  158.2386 H   0  0  0  0  0  0  0  0  0  0  0  0
  198.9394  188.0128  158.7447 H   0  0  0  0  0  0  0  0  0  0  0  0
  198.0772  185.8121  158.2933 H   0  0  0  0  0  0  0  0  0  0  0  0
  196.5055  181.1148  156.0467 H   0  0  0  0  0  0  0  0  0  0  0  0
  193.3831  183.5275  158.2746 H   0  0  0  0  0  0  0  0  0  0  0  0
  193.3499  185.2138  160.1096 H   0  0  0  0  0  0  0  0  0  0  0  0
  195.4751  185.8866  161.2146 H   0  0  0  0  0  0  0  0  0  0  0  0
  197.5662  184.8366  160.5742 H   0  0  0  0  0  0  0  0  0  0  0  0
  201.1399  180.2193  155.0627 H   0  0  0  0  0  0  0  0  0  0  0  0
  201.4441  180.6352  156.7177 H   0  0  0  0  0  0  0  0  0  0  0  0
  201.1362  175.9250  157.0285 H   0  0  0  0  0  0  0  0  0  0  0  0
  201.2458  174.1049  155.4084 H   0  0  0  0  0  0  0  0  0  0  0  0
  201.1960  174.5763  152.9608 H   0  0  0  0  0  0  0  0  0  0  0  0
  201.0381  176.9325  152.1683 H   0  0  0  0  0  0  0  0  0  0  0  0
  200.9154  178.7727  153.7365 H   0  0  0  0  0  0  0  0  0  0  0  0
  200.1891  177.8354  158.2950 H   0  0  0  0  0  0  0  0  0  0  0  0
  201.2633  179.2159  158.5034 H   0  0  0  0  0  0  0  0  0  0  0  0
  201.9474  177.6597  158.1336 H   0  0  0  0  0  0  0  0  0  0  0  0
  194.6698  182.1836  156.8295 H   0  0  0  0  0  0  0  0  0  0  0  0
  1  2  2  0
  2  3  1  0
  2 25  1  0
  3  4  1  0
  3 34  1  0
  4  5  2  0
  4 20  1  0
  5  6  1  0
  5 17  1  0
  6  7  1  0
  6 35  1  0
  7  8  1  0
  7 16  2  0
  8  9  2  0
  8 36  1  0
  9 10  1  0
  9 37  1  0
 10 11  1  0
 10 15  2  0
 11 12  1  0
 11 38  1  0
 12 13  1  0
 12 39  1  1
 12 40  1  0
 13 14  1  0
 13 41  1  6
 13 42  1  0
 14 43  1  0
 15 16  1  0
 15 44  1  0
 16 45  1  0
 17 18  1  0
 17 24  2  0
 18 19  1  0
 18 21  2  0
 19 20  2  0
 19 61  1  0
 20 46  1  0
 21 22  1  0
 21 47  1  0
 22 23  2  0
 22 48  1  0
 23 24  1  0
 23 49  1  0
 24 50  1  0
 25 26  1  0
 25 51  1  6
 25 52  1  0
 26 27  1  0
 26 33  1  0
 27 28  2  0
 27 32  1  0
 28 29  1  0
 28 53  1  0
 29 30  2  0
 29 54  1  0
 30 31  1  0
 30 55  1  0
 31 32  2  0
 31 56  1  0
 32 57  1  0
 33 58  1  1
 33 59  1  0
 33 60  1  0
M  CHG  1  19   1
M  END
>  <s_epik_cmdline>  (283) 
J2VwaWtfcHl0aG9uJywgJy1waCcsICc3LjAwMDAwMCcsICctcGh0JywgJzIuMDAwMDAwJywgJy1tcycsICcxNicsICctdG4nLCAnOCcsICctbWEnLCAnMjAwJywgJy1pbWFlJywgJzxpbmZpbGUubWFlPicsICctb21hZScsICc8b3V0ZmlsZS5tYWU+Jw==

>  <s_epik_input>  (283) 
W2NIXTFbY0hdW2NIXVtjSF1bY0hdYzFOKFtDSDNdKVtDSDJdQyg9TylbTkhdYyhbY0hdbmMoYzIzKVtjSF1bY0hdW2NIXVtjSF0zKWMyW05IXWM0W2NIXVtjSF1jKFtjSF1bY0hdNClbTkhdW0NIMl1bQ0gyXVtPSF0=

>  <s_i_glide_gridfile>  (283) 
ATP-Grid

>  <s_lp_Force_Field>  (283) 
OPLS_2005

>  <s_lp_Variant>  (283) 
rxn502b____EMOL31412043____EMOL30488121____EMOL8314610-1

>  <s_lp_label>  (283) 
2566_sdstereoexpander_1_neutralizer_1_epik_1_stereoizer_1

>  <s_m_source_file>  (283) 
ATP-VSW-LIGPREP-001-in.maegz

>  <s_sd_BIOSOLVEIT.INFINISEE\_QUERY\_NAME>  (283) 
Ref-Lig

>  <s_sd_BIOSOLVEIT.INFINISEE\_QUERY\_SMILES>  (283) 
S(c1nc2c(cc1C[NH2+]Cc3ccc(cc3)C[NH+](C)C)cccc2)Cc4ccccc4

>  <s_sd_BIOSOLVEIT.INFINISEE\_REACTION\_NAME>  (283) 
rxn502b

>  <s_sd_BIOSOLVEIT.INFINISEE\_REAGENT1\_NAME>  (283) 
EMOL31412043

>  <s_sd_BIOSOLVEIT.INFINISEE\_REAGENT1\_SMILES>  (283) 
O=C(O)CN(c1ccccc1)C

>  <s_sd_BIOSOLVEIT.INFINISEE\_REAGENT2\_NAME>  (283) 
EMOL30488121

>  <s_sd_BIOSOLVEIT.INFINISEE\_REAGENT2\_SMILES>  (283) 
Brc1c(N)cnc2c1cccc2

>  <s_sd_BIOSOLVEIT.INFINISEE\_REAGENT3\_NAME>  (283) 
EMOL8314610

>  <s_sd_BIOSOLVEIT.INFINISEE\_REAGENT3\_SMILES>  (283) 
OCCNc1ccc(N)cc1

>  <s_sd_BIOSOLVEIT.INFINISEE\_SPACE>  (283) 
eXplore_7tr_2022-12

>  <s_vsw_compound_code>  (283) 
82081

>  <s_vsw_variant>  (283) 
82081-1

>  <r_epik_Charging_Adjusted_Penalty>  (283) 
0.54437211196516899

>  <r_epik_Ionization_Penalty>  (283) 
0.2858

>  <r_epik_Ionization_Penalty_Charging>  (283) 
0.25879999999999997

>  <r_epik_Ionization_Penalty_Neutral>  (283) 
0.027

>  <r_epik_State_Penalty>  (283) 
0.28560000000000002

>  <r_i_docking_score>  (283) 
-3.93640990047433

>  <r_i_glide_ecoul>  (283) 
-4.7792158126831099

>  <r_i_glide_eff_state_penalty>  (283) 
0.28560000000000002

>  <r_i_glide_einternal>  (283) 
2.8966226577758798

>  <r_i_glide_emodel>  (283) 
-51.3948689865476

>  <r_i_glide_energy>  (283) 
-38.411791801452601

>  <r_i_glide_erotb>  (283) 
0.91841103447351202

>  <r_i_glide_esite>  (283) 
-0.16096238103785501

>  <r_i_glide_evdw>  (283) 
-33.632575988769503

>  <r_i_glide_gscore>  (283) 
-4.2220099004743297

>  <r_i_glide_hbond>  (283) 
-0.167499503481946

>  <r_i_glide_ligand_efficiency>  (283) 
-0.119285148499222

>  <r_i_glide_ligand_efficiency_ln>  (283) 
-0.87543718022582895

>  <r_i_glide_ligand_efficiency_sa>  (283) 
-0.38261120842397101

>  <r_i_glide_lipo>  (283) 
-1.9521325352464101

>  <r_i_glide_metal>  (283) 
-0

>  <r_i_glide_rewards>  (283) 
-0.46131534384069101

>  <r_lp_Energy>  (283) 
42.067616999999998

>  <r_qp_ACxDN^.5/SA>  (283) 
0.019833300000000002

>  <r_qp_CIQPlogS>  (283) 
-6.2279999999999998

>  <r_qp_EA(eV)>  (283) 
0.98999999999999999

>  <r_qp_FISA>  (283) 
128.01599999999999

>  <r_qp_FOSA>  (283) 
165.191

>  <r_qp_IP(eV)>  (283) 
7.6559999999999997

>  <r_qp_Jm>  (283) 
0.0603760580987866

>  <r_qp_PISA>  (283) 
483.26499999999999

>  <r_qp_PSA>  (283) 
90.850999999999999

>  <r_qp_PercentHumanOralAbsorption>  (283) 
100

>  <r_qp_QPPCaco>  (283) 
605.23400000000004

>  <r_qp_QPPMDCK>  (283) 
287.49799999999999

>  <r_qp_QPlogBB>  (283) 
-1.413

>  <r_qp_QPlogHERG>  (283) 
-7.2629999999999999

>  <r_qp_QPlogKhsa>  (283) 
0.38800000000000001

>  <r_qp_QPlogKp>  (283) 
-1.216

>  <r_qp_QPlogPC16>  (283) 
16.754999999999999

>  <r_qp_QPlogPo/w>  (283) 
4.194

>  <r_qp_QPlogPoct>  (283) 
27.353999999999999

>  <r_qp_QPlogPw>  (283) 
16.983000000000001

>  <r_qp_QPlogS>  (283) 
-5.6479999999999997

>  <r_qp_QPpolrz>  (283) 
49.020000000000003

>  <r_qp_SASA>  (283) 
776.47199999999998

>  <r_qp_SAamideO>  (283) 
0

>  <r_qp_SAfluorine>  (283) 
0

>  <r_qp_WPSA>  (283) 
0

>  <r_qp_accptHB>  (283) 
7.7000000000000002

>  <r_qp_dip^2/V>  (283) 
0.067754599999999998

>  <r_qp_dipole>  (283) 
9.8219999999999992

>  <r_qp_donorHB>  (283) 
4

>  <r_qp_glob>  (283) 
0.78825789999999996

>  <r_qp_mol_MW>  (283) 
441.53199999999998

>  <r_qp_volume>  (283) 
1423.7819999999999

>  <r_sd_BIOSOLVEIT.INFINISEE\_FTREES\_SIMILARITY>  (283) 
0.91200000000000003

>  <r_sd_BIOSOLVEIT.LOGP>  (283) 
4.4574999999999996

>  <r_sd_BIOSOLVEIT.MOLECULAR\_WEIGHT>  (283) 
441.53199999999998

>  <r_sd_BIOSOLVEIT.TPSA>  (283) 
89.519999999999996

>  <i_epik_Tot_Q>  (283) 
1

>  <i_epik_Tot_abs_Q>  (283) 
1

>  <i_f3d_flags>  (283) 
0

>  <i_i_glide_confnum>  (283) 
6

>  <i_i_glide_lignum>  (283) 
1030

>  <i_i_glide_posenum>  (283) 
8

>  <i_i_glide_rotatable_bonds>  (283) 
11

>  <i_lp_mmshare_version>  (283) 
65135

>  <i_m_ct_format>  (283) 
2

>  <i_m_source_file_index>  (283) 
2566

>  <i_qp_#NandO>  (283) 
7

>  <i_qp_#acid>  (283) 
0

>  <i_qp_#amide>  (283) 
0

>  <i_qp_#amidine>  (283) 
0

>  <i_qp_#amine>  (283) 
0

>  <i_qp_#in34>  (283) 
0

>  <i_qp_#in56>  (283) 
22

>  <i_qp_#metab>  (283) 
9

>  <i_qp_#nonHatm>  (283) 
33

>  <i_qp_#noncon>  (283) 
0

>  <i_qp_#ringatoms>  (283) 
22

>  <i_qp_#rotor>  (283) 
10

>  <i_qp_#rtvFG>  (283) 
0

>  <i_qp_#stars>  (283) 
3

>  <i_qp_CNS>  (283) 
-2

>  <i_qp_HumanOralAbsorption>  (283) 
3

>  <i_qp_RuleOfFive>  (283) 
0

>  <i_qp_RuleOfThree>  (283) 
1

>  <i_sd_BIOSOLVEIT.INFINISEE\_RESULT\_RANK>  (283) 
37483

>  <i_sd_version>  (283) 
0

>  <b_lp_Chiralities_Consistent>  (283) 
1

>  <b_sd_chiral_flag>  (283) 
0

>  <canonical_id>  (283) 
ATP-HTVS-2DB2F8E5543E

>  <compound_code>  (283) 
82081

>  <title>  (283) 
rxn502b____EMOL31412043____EMOL30488121____EMOL8314610

>  <variant>  (283) 
82081-1

>  <source_file>  (283) 
运行/运行/ATP-VSW/ATP-VSW-DOCK_HTVS_1-001_lib/ATP-VSW-DOCK_HTVS_1-001_lib

>  <canonical_smiles>  (283) 
CN(CC(=O)Nc1c[nH+]c2ccccc2c1Nc1ccc(NCCO)cc1)c1ccccc1

>  <scaffold>  (283) 
O=C(CNc1ccccc1)Nc1c[nH+]c2ccccc2c1Nc1ccccc1

>  <molecular_formula>  (283) 
C26H28N5O2+

$$$$
ATP-HTVS-2DBBB7EE3EAF
     RDKit          3D

 65 68  0  0  0  0  0  0  0  0999 V2000
  192.7413  186.7905  163.4887 O   0  0  0  0  0  0  0  0  0  0  0  0
  192.9995  187.2799  162.3899 C   0  0  0  0  0  0  0  0  0  0  0  0
  192.9161  188.5884  162.1450 N   0  0  0  0  0  0  0  0  0  0  0  0
  193.3595  186.3696  161.2121 C   0  0  1  0  0  0  0  0  0  0  0  0
  194.8597  185.9886  161.1166 C   0  0  2  0  0  0  0  0  0  0  0  0
  195.6462  187.1981  160.8173 N   0  0  0  0  0  0  0  0  0  0  0  0
  196.6001  187.3799  159.8268 C   0  0  0  0  0  0  0  0  0  0  0  0
  196.6167  186.5621  158.7716 N   0  0  0  0  0  0  0  0  0  0  0  0
  197.6172  186.6692  157.8911 C   0  0  0  0  0  0  0  0  0  0  0  0
  197.6804  185.7250  156.8594 N   0  0  0  0  0  0  0  0  0  0  0  0
  197.5067  186.1411  155.4715 C   0  0  1  0  0  0  0  0  0  0  0  0
  197.4519  184.9930  154.4821 C   0  0  0  0  0  0  0  0  0  0  0  0
  197.7156  185.2627  153.1275 C   0  0  0  0  0  0  0  0  0  0  0  0
  197.6600  184.2320  152.1699 C   0  0  0  0  0  0  0  0  0  0  0  0
  197.3398  182.9135  152.5561 C   0  0  0  0  0  0  0  0  0  0  0  0
  197.2699  181.9327  151.5563 N   0  0  0  0  0  0  0  0  0  0  0  0
  196.7547  180.5957  151.8146 C   0  0  2  0  0  0  0  0  0  0  0  0
  197.8549  179.6747  152.3718 C   0  0  2  0  0  0  0  0  0  0  0  0
  196.1526  180.0160  150.5347 C   0  0  2  0  0  0  0  0  0  0  0  0
  197.0958  182.6402  153.9238 C   0  0  0  0  0  0  0  0  0  0  0  0
  197.1451  183.6735  154.8765 C   0  0  0  0  0  0  0  0  0  0  0  0
  198.6521  187.6371  158.0355 C   0  0  0  0  0  0  0  0  0  0  0  0
  198.5554  188.5010  159.1446 C   0  0  0  0  0  0  0  0  0  0  0  0
  197.5397  188.3361  160.0361 N   0  0  0  0  0  0  0  0  0  0  0  0
  199.5085  189.5038  159.3554 C   0  0  0  0  0  0  0  0  0  0  0  0
  200.5490  189.6767  158.4066 C   0  0  0  0  0  0  0  0  0  0  0  0
  200.6658  188.7970  157.3002 C   0  0  0  0  0  0  0  0  0  0  0  0
  199.7501  187.7465  157.1273 C   0  0  0  0  0  0  0  0  0  0  0  0
  195.1141  184.7772  160.2083 C   0  0  0  0  0  0  0  0  0  0  0  0
  194.0901  184.2043  159.4227 C   0  0  0  0  0  0  0  0  0  0  0  0
  194.3528  183.1425  158.5370 C   0  0  0  0  0  0  0  0  0  0  0  0
  195.6501  182.6319  158.4203 C   0  0  0  0  0  0  0  0  0  0  0  0
  196.6834  183.1867  159.2171 C   0  0  0  0  0  0  0  0  0  0  0  0
  196.4224  184.2355  160.1037 C   0  0  0  0  0  0  0  0  0  0  0  0
  192.6153  189.2036  162.8809 H   0  0  0  0  0  0  0  0  0  0  0  0
  193.0614  188.9392  161.2066 H   0  0  0  0  0  0  0  0  0  0  0  0
  192.7444  185.4941  161.3523 H   0  0  0  0  0  0  0  0  0  0  0  0
  193.0437  186.8586  160.2930 H   0  0  0  0  0  0  0  0  0  0  0  0
  195.1548  185.6897  162.1250 H   0  0  0  0  0  0  0  0  0  0  0  0
  195.5297  187.9644  161.4547 H   0  0  0  0  0  0  0  0  0  0  0  0
  197.7530  184.7475  157.0982 H   0  0  0  0  0  0  0  0  0  0  0  0
  196.5901  186.7368  155.3903 H   0  0  0  0  0  0  0  0  0  0  0  0
  198.3710  186.7720  155.2107 H   0  0  0  0  0  0  0  0  0  0  0  0
  197.9500  186.2712  152.8122 H   0  0  0  0  0  0  0  0  0  0  0  0
  197.8467  184.4657  151.1298 H   0  0  0  0  0  0  0  0  0  0  0  0
  197.5943  182.1557  150.6275 H   0  0  0  0  0  0  0  0  0  0  0  0
  195.9470  180.6614  152.5446 H   0  0  0  0  0  0  0  0  0  0  0  0
  197.4600  178.6804  152.5831 H   0  0  0  0  0  0  0  0  0  0  0  0
  198.2792  180.0579  153.3010 H   0  0  0  0  0  0  0  0  0  0  0  0
  198.6748  179.5594  151.6617 H   0  0  0  0  0  0  0  0  0  0  0  0
  195.7222  179.0377  150.7281 H   0  0  0  0  0  0  0  0  0  0  0  0
  196.8981  179.9120  149.7463 H   0  0  0  0  0  0  0  0  0  0  0  0
  195.3479  180.6442  150.1603 H   0  0  0  0  0  0  0  0  0  0  0  0
  196.8389  181.6485  154.2709 H   0  0  0  0  0  0  0  0  0  0  0  0
  196.9231  183.4235  155.9006 H   0  0  0  0  0  0  0  0  0  0  0  0
  199.4497  190.1395  160.2238 H   0  0  0  0  0  0  0  0  0  0  0  0
  201.2817  190.4742  158.5451 H   0  0  0  0  0  0  0  0  0  0  0  0
  201.4530  188.9309  156.5742 H   0  0  0  0  0  0  0  0  0  0  0  0
  199.8430  187.0582  156.2938 H   0  0  0  0  0  0  0  0  0  0  0  0
  193.0710  184.6014  159.4197 H   0  0  0  0  0  0  0  0  0  0  0  0
  193.5571  182.7722  157.9095 H   0  0  0  0  0  0  0  0  0  0  0  0
  195.8627  181.8675  157.6817 H   0  0  0  0  0  0  0  0  0  0  0  0
  197.7057  182.8313  159.0733 H   0  0  0  0  0  0  0  0  0  0  0  0
  197.2179  184.6154  160.7142 H   0  0  0  0  0  0  0  0  0  0  0  0
  197.5652  188.9085  160.8833 H   0  0  0  0  0  0  0  0  0  0  0  0
  1  2  2  0
  2  3  1  0
  2  4  1  0
  3 35  1  0
  3 36  1  0
  4  5  1  0
  4 37  1  1
  4 38  1  0
  5  6  1  0
  5 29  1  0
  5 39  1  1
  6  7  1  0
  6 40  1  0
  7  8  1  0
  7 24  2  0
  8  9  2  0
  9 10  1  0
  9 22  1  0
 10 11  1  0
 10 41  1  0
 11 12  1  0
 11 42  1  1
 11 43  1  0
 12 13  1  0
 12 21  2  0
 13 14  2  0
 13 44  1  0
 14 15  1  0
 14 45  1  0
 15 16  1  0
 15 20  2  0
 16 17  1  0
 16 46  1  0
 17 18  1  0
 17 19  1  0
 17 47  1  1
 18 48  1  1
 18 49  1  0
 18 50  1  0
 19 51  1  1
 19 52  1  0
 19 53  1  0
 20 21  1  0
 20 54  1  0
 21 55  1  0
 22 23  1  0
 22 28  2  0
 23 24  1  0
 23 25  2  0
 24 65  1  0
 25 26  1  0
 25 56  1  0
 26 27  2  0
 26 57  1  0
 27 28  1  0
 27 58  1  0
 28 59  1  0
 29 30  2  0
 29 34  1  0
 30 31  1  0
 30 60  1  0
 31 32  2  0
 31 61  1  0
 32 33  1  0
 32 62  1  0
 33 34  2  0
 33 63  1  0
 34 64  1  0
M  CHG  1  24   1
M  END
>  <s_epik_cmdline>  (284) 
J2VwaWtfcHl0aG9uJywgJy1waCcsICc3LjAwMDAwMCcsICctcGh0JywgJzIuMDAwMDAwJywgJy1tcycsICcxNicsICctdG4nLCAnOCcsICctbWEnLCAnMjAwJywgJy1pbWFlJywgJzxpbmZpbGUubWFlPicsICctb21hZScsICc8b3V0ZmlsZS5tYWU+Jw==

>  <s_epik_input>  (284) 
W2NIXTFbY0hdW2NIXVtjSF1bY0hdYzFbQ0BIXShbQ0gyXUMoPU8pW05IMl0pW05IXWMobmMoYzIzKVtjSF1bY0hdW2NIXVtjSF0zKW5jMltOSF1bQ0gyXWM0W2NIXVtjSF1jKFtjSF1bY0hdNClbTkhdW0NIXShbQ0gzXSlbQ0gzXQ==

>  <s_i_glide_gridfile>  (284) 
ATP-Grid

>  <s_lp_Force_Field>  (284) 
OPLS_2005

>  <s_lp_Variant>  (284) 
m_282030aaa____21930060____22360182____21979096-2

>  <s_lp_label>  (284) 
1255_sdstereoexpander_2_neutralizer_1_epik_1_stereoizer_1

>  <s_m_source_file>  (284) 
ATP-VSW-LIGPREP-002-in.maegz

>  <s_sd_BIOSOLVEIT.INFINISEE\_QUERY\_NAME>  (284) 
Ref-Lig

>  <s_sd_BIOSOLVEIT.INFINISEE\_QUERY\_SMILES>  (284) 
S(c1nc2c(cc1C[NH2+]Cc3ccc(cc3)C[NH+](C)C)cccc2)Cc4ccccc4

>  <s_sd_BIOSOLVEIT.INFINISEE\_REACTION\_NAME>  (284) 
m_282030aaa

>  <s_sd_BIOSOLVEIT.INFINISEE\_REAGENT1\_SMILES>  (284) 
[R1*]NC(c1ccccc1)CC(=O)N

>  <s_sd_BIOSOLVEIT.INFINISEE\_REAGENT2\_SMILES>  (284) 
[R2*]c1nc([R1*])c2c(n1)cccc2

>  <s_sd_BIOSOLVEIT.INFINISEE\_REAGENT3\_SMILES>  (284) 
[R2*]NCc1ccc(NC(C)C)cc1

>  <s_sd_BIOSOLVEIT.INFINISEE\_SPACE>  (284) 
REALSpace_44bn_2023-08

>  <s_vsw_compound_code>  (284) 
40130

>  <s_vsw_variant>  (284) 
40130-2

>  <r_epik_Charging_Adjusted_Penalty>  (284) 
0.22038392239839899

>  <r_epik_Ionization_Penalty>  (284) 
0.17330000000000001

>  <r_epik_Ionization_Penalty_Charging>  (284) 
0.036200000000000003

>  <r_epik_Ionization_Penalty_Neutral>  (284) 
0.1371

>  <r_epik_State_Penalty>  (284) 
0.1842

>  <r_i_docking_score>  (284) 
-5.0087513657172202

>  <r_i_glide_ecoul>  (284) 
-6.6632165908813503

>  <r_i_glide_eff_state_penalty>  (284) 
0.1842

>  <r_i_glide_einternal>  (284) 
19.123939514160199

>  <r_i_glide_emodel>  (284) 
-53.266008834724801

>  <r_i_glide_energy>  (284) 
-44.630368232727101

>  <r_i_glide_erotb>  (284) 
0.77437998091972504

>  <r_i_glide_esite>  (284) 
-0.038224210599256001

>  <r_i_glide_evdw>  (284) 
-37.967151641845703

>  <r_i_glide_gscore>  (284) 
-5.1929513657172199

>  <r_i_glide_hbond>  (284) 
-0.60799999999999998

>  <r_i_glide_ligand_efficiency>  (284) 
-0.147316216638742

>  <r_i_glide_ligand_efficiency_ln>  (284) 
-1.1065736674040001

>  <r_i_glide_ligand_efficiency_sa>  (284) 
-0.47724735338143598

>  <r_i_glide_lipo>  (284) 
-1.58962386105912

>  <r_i_glide_metal>  (284) 
-0

>  <r_i_glide_rewards>  (284) 
-0.83364320425408001

>  <r_lp_Energy>  (284) 
21.741178999999999

>  <r_qp_ACxDN^.5/SA>  (284) 
0.013557

>  <r_qp_CIQPlogS>  (284) 
-6.6230000000000002

>  <r_qp_EA(eV)>  (284) 
0.41899999999999998

>  <r_qp_FISA>  (284) 
144.16300000000001

>  <r_qp_FOSA>  (284) 
223.428

>  <r_qp_IP(eV)>  (284) 
7.8609999999999998

>  <r_qp_Jm>  (284) 
0.016012526145117899

>  <r_qp_PISA>  (284) 
443.79500000000002

>  <r_qp_PSA>  (284) 
103.622

>  <r_qp_PercentHumanOralAbsorption>  (284) 
96.546000000000006

>  <r_qp_QPPCaco>  (284) 
239.982

>  <r_qp_QPPMDCK>  (284) 
196.393

>  <r_qp_QPlogBB>  (284) 
-1.6339999999999999

>  <r_qp_QPlogHERG>  (284) 
-5.8940000000000001

>  <r_qp_QPlogKhsa>  (284) 
0.56399999999999995

>  <r_qp_QPlogKp>  (284) 
-1.653

>  <r_qp_QPlogPC16>  (284) 
17.236000000000001

>  <r_qp_QPlogPo/w>  (284) 
4.6109999999999998

>  <r_qp_QPlogPoct>  (284) 
26.097000000000001

>  <r_qp_QPlogPw>  (284) 
17.053000000000001

>  <r_qp_QPlogS>  (284) 
-5.7999999999999998

>  <r_qp_QPpolrz>  (284) 
51.145000000000003

>  <r_qp_SASA>  (284) 
811.38699999999994

>  <r_qp_SAamideO>  (284) 
31.234000000000002

>  <r_qp_SAfluorine>  (284) 
0

>  <r_qp_WPSA>  (284) 
0

>  <r_qp_accptHB>  (284) 
5.5

>  <r_qp_dip^2/V>  (284) 
0.0100663

>  <r_qp_dipole>  (284) 
3.8679999999999999

>  <r_qp_donorHB>  (284) 
4

>  <r_qp_glob>  (284) 
0.7762599

>  <r_qp_mol_MW>  (284) 
454.57400000000001

>  <r_qp_volume>  (284) 
1486.296

>  <r_sd_BIOSOLVEIT.INFINISEE\_FTREES\_SIMILARITY>  (284) 
0.91100000000000003

>  <r_sd_BIOSOLVEIT.LOGP>  (284) 
5.0907999999999998

>  <r_sd_BIOSOLVEIT.MOLECULAR\_WEIGHT>  (284) 
454.57499999999999

>  <r_sd_BIOSOLVEIT.TPSA>  (284) 
104.95999999999999

>  <i_epik_Tot_Q>  (284) 
1

>  <i_epik_Tot_abs_Q>  (284) 
1

>  <i_f3d_flags>  (284) 
0

>  <i_i_glide_confnum>  (284) 
6

>  <i_i_glide_lignum>  (284) 
433

>  <i_i_glide_posenum>  (284) 
15

>  <i_i_glide_rotatable_bonds>  (284) 
10

>  <i_lp_mmshare_version>  (284) 
65135

>  <i_m_ct_format>  (284) 
2

>  <i_m_source_file_index>  (284) 
1255

>  <i_qp_#NandO>  (284) 
7

>  <i_qp_#acid>  (284) 
0

>  <i_qp_#amide>  (284) 
1

>  <i_qp_#amidine>  (284) 
0

>  <i_qp_#amine>  (284) 
0

>  <i_qp_#in34>  (284) 
0

>  <i_qp_#in56>  (284) 
22

>  <i_qp_#metab>  (284) 
8

>  <i_qp_#nonHatm>  (284) 
34

>  <i_qp_#noncon>  (284) 
0

>  <i_qp_#ringatoms>  (284) 
22

>  <i_qp_#rotor>  (284) 
10

>  <i_qp_#rtvFG>  (284) 
0

>  <i_qp_#stars>  (284) 
1

>  <i_qp_CNS>  (284) 
-2

>  <i_qp_HumanOralAbsorption>  (284) 
3

>  <i_qp_RuleOfFive>  (284) 
0

>  <i_qp_RuleOfThree>  (284) 
2

>  <i_sd_BIOSOLVEIT.INFINISEE\_REAGENT1\_NAME>  (284) 
21930060

>  <i_sd_BIOSOLVEIT.INFINISEE\_REAGENT2\_NAME>  (284) 
22360182

>  <i_sd_BIOSOLVEIT.INFINISEE\_REAGENT3\_NAME>  (284) 
21979096

>  <i_sd_BIOSOLVEIT.INFINISEE\_RESULT\_RANK>  (284) 
43738

>  <i_sd_version>  (284) 
0

>  <b_lp_Chiralities_Consistent>  (284) 
1

>  <b_sd_chiral_flag>  (284) 
0

>  <canonical_id>  (284) 
ATP-HTVS-2DBBB7EE3EAF

>  <compound_code>  (284) 
40130

>  <title>  (284) 
m_282030aaa____21930060____22360182____21979096

>  <variant>  (284) 
40130-2

>  <source_file>  (284) 
运行/运行/ATP-VSW/ATP-VSW-DOCK_HTVS_1-002_lib.maegz

>  <canonical_smiles>  (284) 
CC(C)Nc1ccc(CNc2nc(N[C@@H](CC(N)=O)c3ccccc3)[nH+]c3ccccc23)cc1

>  <scaffold>  (284) 
c1ccc(CNc2nc(NCc3ccccc3)c3ccccc3[nH+]2)cc1

>  <molecular_formula>  (284) 
C27H31N6O+

$$$$
ATP-HTVS-2E0BAC8D644B
     RDKit          3D

 63 66  0  0  0  0  0  0  0  0999 V2000
  200.7160  184.0641  156.5293 O   0  0  0  0  0  0  0  0  0  0  0  0
  199.8051  183.2350  156.4672 C   0  0  0  0  0  0  0  0  0  0  0  0
  198.5031  183.5525  156.5880 N   0  0  0  0  0  0  0  0  0  0  0  0
  197.9769  184.8569  156.7781 C   0  0  0  0  0  0  0  0  0  0  0  0
  198.1382  185.8482  155.7795 C   0  0  0  0  0  0  0  0  0  0  0  0
  198.8513  185.5483  154.6066 N   0  0  0  0  0  0  0  0  0  0  0  0
  198.4905  186.1137  153.3162 C   0  0  2  0  0  0  0  0  0  0  0  0
  198.2921  185.0486  152.3291 C   0  0  0  0  0  0  0  0  0  0  0  0
  198.1203  184.2012  151.5619 N   0  0  0  0  0  0  0  0  0  0  0  0
  199.5060  187.1354  152.8380 C   0  0  0  0  0  0  0  0  0  0  0  0
  199.2279  188.5015  153.0212 C   0  0  0  0  0  0  0  0  0  0  0  0
  200.1153  189.4848  152.5686 C   0  0  0  0  0  0  0  0  0  0  0  0
  201.3154  189.1322  151.9127 C   0  0  0  0  0  0  0  0  0  0  0  0
  202.2184  190.0492  151.4346 O   0  0  0  0  0  0  0  0  0  0  0  0
  201.9071  191.4197  151.6015 C   0  0  2  0  0  0  0  0  0  0  0  0
  201.6071  187.7569  151.7323 C   0  0  0  0  0  0  0  0  0  0  0  0
  200.7138  186.7667  152.1986 C   0  0  0  0  0  0  0  0  0  0  0  0
  197.5537  187.1095  156.0184 C   0  0  0  0  0  0  0  0  0  0  0  0
  196.8376  187.4116  157.1134 N   0  0  0  0  0  0  0  0  0  0  0  0
  196.6727  186.4745  158.0670 C   0  0  0  0  0  0  0  0  0  0  0  0
  197.2240  185.1647  157.9414 C   0  0  0  0  0  0  0  0  0  0  0  0
  197.0081  184.2166  158.9731 C   0  0  0  0  0  0  0  0  0  0  0  0
  196.2690  184.5694  160.1189 C   0  0  0  0  0  0  0  0  0  0  0  0
  195.7404  185.8665  160.2480 C   0  0  0  0  0  0  0  0  0  0  0  0
  195.9520  186.8086  159.2289 C   0  0  0  0  0  0  0  0  0  0  0  0
  200.1165  181.7844  156.2368 C   0  0  0  0  0  0  0  0  0  0  0  0
  201.4450  181.3847  155.9634 C   0  0  0  0  0  0  0  0  0  0  0  0
  201.7580  180.0239  155.7536 C   0  0  0  0  0  0  0  0  0  0  0  0
  200.7418  179.0533  155.8113 C   0  0  0  0  0  0  0  0  0  0  0  0
  199.4123  179.4450  156.0669 C   0  0  0  0  0  0  0  0  0  0  0  0
  199.1039  180.7924  156.2952 C   0  0  0  0  0  0  0  0  0  0  0  0
  201.0630  177.5808  155.6493 C   0  0  1  0  0  0  0  0  0  0  0  0
  201.4392  176.9270  156.9301 N   0  0  1  0  0  0  0  0  0  0  0  0
  200.4279  177.0824  158.0074 C   0  0  2  0  0  0  0  0  0  0  0  0
  201.7946  175.5032  156.7219 C   0  0  2  0  0  0  0  0  0  0  0  0
  197.8274  182.8033  156.6304 H   0  0  0  0  0  0  0  0  0  0  0  0
  199.3517  184.6690  154.5684 H   0  0  0  0  0  0  0  0  0  0  0  0
  197.5309  186.6199  153.3847 H   0  0  0  0  0  0  0  0  0  0  0  0
  198.3190  188.8197  153.5045 H   0  0  0  0  0  0  0  0  0  0  0  0
  199.7860  190.5086  152.7651 H   0  0  0  0  0  0  0  0  0  0  0  0
  202.6891  192.0862  151.1940 H   0  0  0  0  0  0  0  0  0  0  0  0
  201.8053  191.6639  152.6547 H   0  0  0  0  0  0  0  0  0  0  0  0
  200.9828  191.6605  151.0844 H   0  0  0  0  0  0  0  0  0  0  0  0
  202.5098  187.4775  151.2325 H   0  0  0  0  0  0  0  0  0  0  0  0
  200.9458  185.7223  152.0502 H   0  0  0  0  0  0  0  0  0  0  0  0
  197.6615  187.9167  155.3194 H   0  0  0  0  0  0  0  0  0  0  0  0
  197.4148  183.2164  158.9088 H   0  0  0  0  0  0  0  0  0  0  0  0
  196.1270  183.8512  160.9116 H   0  0  0  0  0  0  0  0  0  0  0  0
  195.1919  186.1503  161.1343 H   0  0  0  0  0  0  0  0  0  0  0  0
  195.5690  187.8120  159.3292 H   0  0  0  0  0  0  0  0  0  0  0  0
  202.2361  182.1177  155.9165 H   0  0  0  0  0  0  0  0  0  0  0  0
  202.7908  179.7428  155.5744 H   0  0  0  0  0  0  0  0  0  0  0  0
  198.6226  178.7169  156.1446 H   0  0  0  0  0  0  0  0  0  0  0  0
  198.0711  181.0247  156.5286 H   0  0  0  0  0  0  0  0  0  0  0  0
  200.2031  177.0674  155.2063 H   0  0  0  0  0  0  0  0  0  0  0  0
  201.8816  177.4863  154.9337 H   0  0  0  0  0  0  0  0  0  0  0  0
  199.4854  176.6404  157.6993 H   0  0  0  0  0  0  0  0  0  0  0  0
  200.2376  178.1223  158.2749 H   0  0  0  0  0  0  0  0  0  0  0  0
  200.7494  176.6097  158.9357 H   0  0  0  0  0  0  0  0  0  0  0  0
  200.9522  174.9429  156.3110 H   0  0  0  0  0  0  0  0  0  0  0  0
  202.0719  175.0307  157.6552 H   0  0  0  0  0  0  0  0  0  0  0  0
  202.6347  175.4028  156.0323 H   0  0  0  0  0  0  0  0  0  0  0  0
  202.2813  177.3955  157.2426 H   0  0  0  0  0  0  0  0  0  0  0  0
  1  2  2  0
  2  3  1  0
  2 26  1  0
  3  4  1  0
  3 36  1  0
  4  5  2  0
  4 21  1  0
  5  6  1  0
  5 18  1  0
  6  7  1  0
  6 37  1  0
  7  8  1  0
  7 10  1  0
  7 38  1  1
  8  9  3  0
 10 11  1  0
 10 17  2  0
 11 12  2  0
 11 39  1  0
 12 13  1  0
 12 40  1  0
 13 14  1  0
 13 16  2  0
 14 15  1  0
 15 41  1  6
 15 42  1  0
 15 43  1  0
 16 17  1  0
 16 44  1  0
 17 45  1  0
 18 19  2  0
 18 46  1  0
 19 20  1  0
 20 21  1  0
 20 25  2  0
 21 22  2  0
 22 23  1  0
 22 47  1  0
 23 24  2  0
 23 48  1  0
 24 25  1  0
 24 49  1  0
 25 50  1  0
 26 27  1  0
 26 31  2  0
 27 28  2  0
 27 51  1  0
 28 29  1  0
 28 52  1  0
 29 30  2  0
 29 32  1  0
 30 31  1  0
 30 53  1  0
 31 54  1  0
 32 33  1  0
 32 55  1  6
 32 56  1  0
 33 34  1  0
 33 35  1  0
 33 63  1  1
 34 57  1  6
 34 58  1  0
 34 59  1  0
 35 60  1  6
 35 61  1  0
 35 62  1  0
M  CHG  1  33   1
M  END
>  <s_epik_cmdline>  (285) 
J2VwaWtfcHl0aG9uJywgJy1waCcsICc3LjAwMDAwMCcsICctcGh0JywgJzIuMDAwMDAwJywgJy1tcycsICcxNicsICctdG4nLCAnOCcsICctbWEnLCAnMjAwJywgJy1pbWFlJywgJzxpbmZpbGUubWFlPicsICctb21hZScsICc8b3V0ZmlsZS5tYWU+Jw==

>  <s_epik_input>  (285) 
W0NIM11OKFtDSDNdKVtDSDJdYyhbY0hdW2NIXTEpW2NIXVtjSF1jMUMoPU8pW05IXWMoYyhjMjMpW2NIXVtjSF1bY0hdW2NIXTMpYyhbY0hdbjIpW05IXVtDQEhdKEMjTiljNFtjSF1bY0hdYyhPW0NIM10pW2NIXVtjSF00

>  <s_i_glide_gridfile>  (285) 
ATP-Grid

>  <s_lp_Force_Field>  (285) 
OPLS_2005

>  <s_lp_Variant>  (285) 
rxn502b____EMOL18624763____EMOL13728749____EMOL37339719-2

>  <s_lp_label>  (285) 
2743_sdstereoexpander_2_neutralizer_1_epik_1_stereoizer_1

>  <s_m_source_file>  (285) 
ATP-VSW-LIGPREP-002-in.maegz

>  <s_sd_BIOSOLVEIT.INFINISEE\_QUERY\_NAME>  (285) 
Ref-Lig

>  <s_sd_BIOSOLVEIT.INFINISEE\_QUERY\_SMILES>  (285) 
S(c1nc2c(cc1C[NH2+]Cc3ccc(cc3)C[NH+](C)C)cccc2)Cc4ccccc4

>  <s_sd_BIOSOLVEIT.INFINISEE\_REACTION\_NAME>  (285) 
rxn502b

>  <s_sd_BIOSOLVEIT.INFINISEE\_REAGENT1\_NAME>  (285) 
EMOL18624763

>  <s_sd_BIOSOLVEIT.INFINISEE\_REAGENT1\_SMILES>  (285) 
O=C(O)c1ccc(cc1)CN(C)C

>  <s_sd_BIOSOLVEIT.INFINISEE\_REAGENT2\_NAME>  (285) 
EMOL13728749

>  <s_sd_BIOSOLVEIT.INFINISEE\_REAGENT2\_SMILES>  (285) 
Brc1c(N)c2c(nc1)cccc2

>  <s_sd_BIOSOLVEIT.INFINISEE\_REAGENT3\_NAME>  (285) 
EMOL37339719

>  <s_sd_BIOSOLVEIT.INFINISEE\_REAGENT3\_SMILES>  (285) 
O(c1ccc(cc1)C(N)C#N)C

>  <s_sd_BIOSOLVEIT.INFINISEE\_SPACE>  (285) 
eXplore_7tr_2022-12

>  <s_vsw_compound_code>  (285) 
87746

>  <s_vsw_variant>  (285) 
87746-2

>  <r_epik_Charging_Adjusted_Penalty>  (285) 
0.121185262543752

>  <r_epik_Ionization_Penalty>  (285) 
0.0683

>  <r_epik_Ionization_Penalty_Charging>  (285) 
0.052699999999999997

>  <r_epik_Ionization_Penalty_Neutral>  (285) 
0.015599999999999999

>  <r_epik_State_Penalty>  (285) 
0.068500000000000005

>  <r_i_docking_score>  (285) 
-4.3951074070218699

>  <r_i_glide_ecoul>  (285) 
-8.3975934982299805

>  <r_i_glide_eff_state_penalty>  (285) 
0.068500000000000005

>  <r_i_glide_einternal>  (285) 
8.9664573669433594

>  <r_i_glide_emodel>  (285) 
-51.314178126617101

>  <r_i_glide_energy>  (285) 
-40.8752279281616

>  <r_i_glide_erotb>  (285) 
0.64881446491091099

>  <r_i_glide_esite>  (285) 
-0.0025807827778327598

>  <r_i_glide_evdw>  (285) 
-32.477634429931598

>  <r_i_glide_gscore>  (285) 
-4.4636074070218701

>  <r_i_glide_hbond>  (285) 
0

>  <r_i_glide_ligand_efficiency>  (285) 
-0.125574497343482

>  <r_i_glide_ligand_efficiency_ln>  (285) 
-0.96482361999465904

>  <r_i_glide_ligand_efficiency_sa>  (285) 
-0.41076250719232899

>  <r_i_glide_lipo>  (285) 
-1.71625872346806

>  <r_i_glide_metal>  (285) 
-0

>  <r_i_glide_rewards>  (285) 
-0.51006161945580497

>  <r_lp_Energy>  (285) 
38.480564000000001

>  <r_lp_tautomer_probability>  (285) 
1

>  <r_qp_ACxDN^.5/SA>  (285) 
0.0153542

>  <r_qp_CIQPlogS>  (285) 
-6.4119999999999999

>  <r_qp_EA(eV)>  (285) 
1.0780000000000001

>  <r_qp_FISA>  (285) 
111.428

>  <r_qp_FOSA>  (285) 
280.459

>  <r_qp_IP(eV)>  (285) 
8.5

>  <r_qp_Jm>  (285) 
0.00025115070957073399

>  <r_qp_PISA>  (285) 
414.04300000000001

>  <r_qp_PSA>  (285) 
93.602000000000004

>  <r_qp_PercentHumanOralAbsorption>  (285) 
92.227000000000004

>  <r_qp_QPPCaco>  (285) 
216.83600000000001

>  <r_qp_QPPMDCK>  (285) 
104.874

>  <r_qp_QPlogBB>  (285) 
-0.79500000000000004

>  <r_qp_QPlogHERG>  (285) 
-7.7590000000000003

>  <r_qp_QPlogKhsa>  (285) 
0.51100000000000001

>  <r_qp_QPlogKp>  (285) 
-3.3130000000000002

>  <r_qp_QPlogPC16>  (285) 
16.318999999999999

>  <r_qp_QPlogPo/w>  (285) 
4.008

>  <r_qp_QPlogPoct>  (285) 
25.954999999999998

>  <r_qp_QPlogPw>  (285) 
14.795999999999999

>  <r_qp_QPlogS>  (285) 
-5.9550000000000001

>  <r_qp_QPpolrz>  (285) 
51.563000000000002

>  <r_qp_SASA>  (285) 
805.92899999999997

>  <r_qp_SAamideO>  (285) 
0

>  <r_qp_SAfluorine>  (285) 
0

>  <r_qp_WPSA>  (285) 
0

>  <r_qp_accptHB>  (285) 
8.75

>  <r_qp_dip^2/V>  (285) 
0.083857100000000004

>  <r_qp_dipole>  (285) 
11.17

>  <r_qp_donorHB>  (285) 
2

>  <r_qp_glob>  (285) 
0.78204439999999997

>  <r_qp_mol_MW>  (285) 
465.55399999999997

>  <r_qp_volume>  (285) 
1487.8019999999999

>  <r_sd_BIOSOLVEIT.INFINISEE\_FTREES\_SIMILARITY>  (285) 
0.90700000000000003

>  <r_sd_BIOSOLVEIT.LOGP>  (285) 
3.81698

>  <r_sd_BIOSOLVEIT.MOLECULAR\_WEIGHT>  (285) 
466.56200000000001

>  <r_sd_BIOSOLVEIT.TPSA>  (285) 
91.480000000000004

>  <i_epik_Tot_Q>  (285) 
1

>  <i_epik_Tot_abs_Q>  (285) 
1

>  <i_f3d_flags>  (285) 
0

>  <i_i_glide_confnum>  (285) 
4

>  <i_i_glide_lignum>  (285) 
1322

>  <i_i_glide_posenum>  (285) 
11

>  <i_i_glide_rotatable_bonds>  (285) 
9

>  <i_lp_mmshare_version>  (285) 
65135

>  <i_m_ct_format>  (285) 
2

>  <i_m_source_file_index>  (285) 
2743

>  <i_qp_#NandO>  (285) 
7

>  <i_qp_#acid>  (285) 
0

>  <i_qp_#amide>  (285) 
0

>  <i_qp_#amidine>  (285) 
0

>  <i_qp_#amine>  (285) 
1

>  <i_qp_#in34>  (285) 
0

>  <i_qp_#in56>  (285) 
22

>  <i_qp_#metab>  (285) 
7

>  <i_qp_#nonHatm>  (285) 
35

>  <i_qp_#noncon>  (285) 
0

>  <i_qp_#ringatoms>  (285) 
22

>  <i_qp_#rotor>  (285) 
9

>  <i_qp_#rtvFG>  (285) 
0

>  <i_qp_#stars>  (285) 
0

>  <i_qp_CNS>  (285) 
0

>  <i_qp_HumanOralAbsorption>  (285) 
3

>  <i_qp_RuleOfFive>  (285) 
0

>  <i_qp_RuleOfThree>  (285) 
2

>  <i_sd_BIOSOLVEIT.INFINISEE\_RESULT\_RANK>  (285) 
57204

>  <i_sd_version>  (285) 
0

>  <b_lp_Chiralities_Consistent>  (285) 
1

>  <b_sd_chiral_flag>  (285) 
0

>  <canonical_id>  (285) 
ATP-HTVS-2E0BAC8D644B

>  <compound_code>  (285) 
87746

>  <title>  (285) 
rxn502b____EMOL18624763____EMOL13728749____EMOL37339719

>  <variant>  (285) 
87746-2

>  <source_file>  (285) 
运行/运行/ATP-VSW/ATP-VSW-DOCK_HTVS_1-002_lib.maegz

>  <canonical_smiles>  (285) 
COc1ccc([C@@H](C#N)Nc2cnc3ccccc3c2NC(=O)c2ccc(C[NH+](C)C)cc2)cc1

>  <scaffold>  (285) 
O=C(Nc1c(NCc2ccccc2)cnc2ccccc12)c1ccccc1

>  <molecular_formula>  (285) 
C28H28N5O2+

$$$$
ATP-HTVS-2E3C44D093AA
     RDKit          3D

 52 54  0  0  0  0  0  0  0  0999 V2000
  197.4945  185.9949  156.3383 F   0  0  0  0  0  0  0  0  0  0  0  0
  197.1370  185.2617  157.4242 C   0  0  0  0  0  0  0  0  0  0  0  0
  196.7553  183.9113  157.2724 C   0  0  0  0  0  0  0  0  0  0  0  0
  196.7524  183.3530  156.0180 O   0  0  0  0  0  0  0  0  0  0  0  0
  197.4642  182.1952  155.7877 C   0  0  0  0  0  0  0  0  0  0  0  0
  197.0811  181.5231  154.6815 N   0  0  0  0  0  0  0  0  0  0  0  0
  197.7245  180.3756  154.3788 C   0  0  0  0  0  0  0  0  0  0  0  0
  198.7959  179.8554  155.1358 C   0  0  0  0  0  0  0  0  0  0  0  0
  199.4115  178.6647  154.7233 N   0  0  0  0  0  0  0  0  0  0  0  0
  200.6430  178.2063  155.3519 C   0  0  1  0  0  0  0  0  0  0  0  0
  201.0156  176.7958  154.9595 C   0  0  0  0  0  0  0  0  0  0  0  0
  200.8753  176.3742  153.6214 C   0  0  0  0  0  0  0  0  0  0  0  0
  201.2088  175.0608  153.2624 C   0  0  0  0  0  0  0  0  0  0  0  0
  201.7130  174.1632  154.2280 C   0  0  0  0  0  0  0  0  0  0  0  0
  201.8654  174.5993  155.5654 C   0  0  0  0  0  0  0  0  0  0  0  0
  201.5179  175.9088  155.9320 C   0  0  0  0  0  0  0  0  0  0  0  0
  202.0991  172.7405  153.8325 C   0  0  2  0  0  0  0  0  0  0  0  0
  203.4872  172.6470  153.3003 N   0  0  1  0  0  0  0  0  0  0  0  0
  203.7112  173.3048  151.9881 C   0  0  2  0  0  0  0  0  0  0  0  0
  204.5238  173.0641  154.2753 C   0  0  2  0  0  0  0  0  0  0  0  0
  201.0535  172.0941  152.8961 C   0  0  2  0  0  0  0  0  0  0  0  0
  199.1913  180.5641  156.2930 C   0  0  0  0  0  0  0  0  0  0  0  0
  198.5284  181.7640  156.6145 C   0  0  0  0  0  0  0  0  0  0  0  0
  196.3587  183.1684  158.4031 C   0  0  0  0  0  0  0  0  0  0  0  0
  196.3654  183.7656  159.6779 C   0  0  0  0  0  0  0  0  0  0  0  0
  196.7451  185.1136  159.8259 C   0  0  0  0  0  0  0  0  0  0  0  0
  197.1254  185.8632  158.6987 C   0  0  0  0  0  0  0  0  0  0  0  0
  197.3830  179.8691  153.4861 H   0  0  0  0  0  0  0  0  0  0  0  0
  199.0993  178.2037  153.8828 H   0  0  0  0  0  0  0  0  0  0  0  0
  201.4600  178.8723  155.0646 H   0  0  0  0  0  0  0  0  0  0  0  0
  200.5575  178.2356  156.4422 H   0  0  0  0  0  0  0  0  0  0  0  0
  200.5207  177.0457  152.8570 H   0  0  0  0  0  0  0  0  0  0  0  0
  201.0906  174.7623  152.2335 H   0  0  0  0  0  0  0  0  0  0  0  0
  202.2676  173.9324  156.3211 H   0  0  0  0  0  0  0  0  0  0  0  0
  201.6400  176.2378  156.9536 H   0  0  0  0  0  0  0  0  0  0  0  0
  202.0825  172.1475  154.7522 H   0  0  0  0  0  0  0  0  0  0  0  0
  203.5157  174.3754  152.0405 H   0  0  0  0  0  0  0  0  0  0  0  0
  203.0880  172.8904  151.2009 H   0  0  0  0  0  0  0  0  0  0  0  0
  204.7447  173.2085  151.6577 H   0  0  0  0  0  0  0  0  0  0  0  0
  204.3969  174.0989  154.6113 H   0  0  0  0  0  0  0  0  0  0  0  0
  205.5284  172.9940  153.8471 H   0  0  0  0  0  0  0  0  0  0  0  0
  204.4798  172.4041  155.1449 H   0  0  0  0  0  0  0  0  0  0  0  0
  200.0573  172.2018  153.3323 H   0  0  0  0  0  0  0  0  0  0  0  0
  201.2544  171.0285  152.7601 H   0  0  0  0  0  0  0  0  0  0  0  0
  201.0077  172.5499  151.9047 H   0  0  0  0  0  0  0  0  0  0  0  0
  199.9959  180.2306  156.9292 H   0  0  0  0  0  0  0  0  0  0  0  0
  198.8349  182.3118  157.4892 H   0  0  0  0  0  0  0  0  0  0  0  0
  196.0492  182.1363  158.3025 H   0  0  0  0  0  0  0  0  0  0  0  0
  196.0867  183.1775  160.5365 H   0  0  0  0  0  0  0  0  0  0  0  0
  196.7532  185.5720  160.8036 H   0  0  0  0  0  0  0  0  0  0  0  0
  197.4096  186.9010  158.8037 H   0  0  0  0  0  0  0  0  0  0  0  0
  203.6037  171.6361  153.2273 H   0  0  0  0  0  0  0  0  0  0  0  0
  1  2  1  0
  2  3  1  0
  2 27  2  0
  3  4  1  0
  3 24  2  0
  4  5  1  0
  5  6  1  0
  5 23  2  0
  6  7  2  0
  7  8  1  0
  7 28  1  0
  8  9  1  0
  8 22  2  0
  9 10  1  0
  9 29  1  0
 10 11  1  0
 10 30  1  1
 10 31  1  0
 11 12  1  0
 11 16  2  0
 12 13  2  0
 12 32  1  0
 13 14  1  0
 13 33  1  0
 14 15  2  0
 14 17  1  0
 15 16  1  0
 15 34  1  0
 16 35  1  0
 17 18  1  0
 17 21  1  0
 17 36  1  1
 18 19  1  0
 18 20  1  0
 18 52  1  6
 19 37  1  1
 19 38  1  0
 19 39  1  0
 20 40  1  1
 20 41  1  0
 20 42  1  0
 21 43  1  1
 21 44  1  0
 21 45  1  0
 22 23  1  0
 22 46  1  0
 23 47  1  0
 24 25  1  0
 24 48  1  0
 25 26  2  0
 25 49  1  0
 26 27  1  0
 26 50  1  0
 27 51  1  0
M  CHG  1  18   1
M  END
>  <s_epik_cmdline>  (286) 
J2VwaWtfcHl0aG9uJywgJy1waCcsICc3LjAwMDAwMCcsICctcGh0JywgJzIuMDAwMDAwJywgJy1tcycsICcxNicsICctdG4nLCAnOCcsICctbWEnLCAnMjAwJywgJy1pbWFlJywgJzxpbmZpbGUubWFlPicsICctb21hZScsICc8b3V0ZmlsZS5tYWU+Jw==

>  <s_epik_input>  (286) 
W2NIXTFbY0hdW2NIXVtjSF1jKGMxRilPYzJuW2NIXWMoW2NIXVtjSF0yKVtOSF1bQ0gyXWMzW2NIXVtjSF1jKFtjSF1bY0hdMylbQ0BASF0oW0NIM10pTihbQ0gzXSlbQ0gzXQ==

>  <s_i_glide_gridfile>  (286) 
ATP-Grid

>  <s_lp_Force_Field>  (286) 
OPLS_2005

>  <s_lp_Variant>  (286) 
a4____267243____411479-1

>  <s_lp_label>  (286) 
559_sdstereoexpander_1_neutralizer_1_epik_1_stereoizer_1

>  <s_m_source_file>  (286) 
ATP-VSW-LIGPREP-001-in.maegz

>  <s_sd_BIOSOLVEIT.INFINISEE\_QUERY\_NAME>  (286) 
Ref-Lig

>  <s_sd_BIOSOLVEIT.INFINISEE\_QUERY\_SMILES>  (286) 
S(c1nc2c(cc1C[NH2+]Cc3ccc(cc3)C[NH+](C)C)cccc2)Cc4ccccc4

>  <s_sd_BIOSOLVEIT.INFINISEE\_REACTION\_NAME>  (286) 
a4

>  <s_sd_BIOSOLVEIT.INFINISEE\_REAGENT1\_SMILES>  (286) 
[R1*]Nc1cnc(Oc2c(F)cccc2)cc1

>  <s_sd_BIOSOLVEIT.INFINISEE\_REAGENT2\_SMILES>  (286) 
[R1*]Cc1ccc(cc1)C(N(C)C)C

>  <s_sd_BIOSOLVEIT.INFINISEE\_SPACE>  (286) 
FreedomSpace_5bn_2023-06

>  <s_vsw_compound_code>  (286) 
17857

>  <s_vsw_variant>  (286) 
17857-1

>  <r_epik_Charging_Adjusted_Penalty>  (286) 
0.078407994868761793

>  <r_epik_Ionization_Penalty>  (286) 
0.039199999999999999

>  <r_epik_Ionization_Penalty_Charging>  (286) 
0.039199999999999999

>  <r_epik_Ionization_Penalty_Neutral>  (286) 
0

>  <r_epik_State_Penalty>  (286) 
0.039199999999999999

>  <r_i_docking_score>  (286) 
-4.4745765504468897

>  <r_i_glide_ecoul>  (286) 
-6.5193614959716797

>  <r_i_glide_eff_state_penalty>  (286) 
0.039199999999999999

>  <r_i_glide_einternal>  (286) 
1.39582967758179

>  <r_i_glide_emodel>  (286) 
-50.353504588982901

>  <r_i_glide_energy>  (286) 
-36.401300430297901

>  <r_i_glide_erotb>  (286) 
0.85999058321498401

>  <r_i_glide_esite>  (286) 
-0.12379718453249999

>  <r_i_glide_evdw>  (286) 
-29.8819389343262

>  <r_i_glide_gscore>  (286) 
-4.5137765504468899

>  <r_i_glide_hbond>  (286) 
-0.177113253765771

>  <r_i_glide_ligand_efficiency>  (286) 
-0.16572505742395899

>  <r_i_glide_ligand_efficiency_ln>  (286) 
-1.0416076517842301

>  <r_i_glide_ligand_efficiency_sa>  (286) 
-0.49717517172567399

>  <r_i_glide_lipo>  (286) 
-1.3378694876939501

>  <r_i_glide_metal>  (286) 
-0

>  <r_i_glide_rewards>  (286) 
-1.26298603655759

>  <r_lp_Energy>  (286) 
24.999444

>  <r_lp_tautomer_probability>  (286) 
1

>  <r_qp_ACxDN^.5/SA>  (286) 
0.0063784999999999996

>  <r_qp_CIQPlogS>  (286) 
-4.8730000000000002

>  <r_qp_EA(eV)>  (286) 
0.28399999999999997

>  <r_qp_FISA>  (286) 
38.006

>  <r_qp_FOSA>  (286) 
242.42099999999999

>  <r_qp_IP(eV)>  (286) 
8.1289999999999996

>  <r_qp_Jm>  (286) 
0.010778864840068099

>  <r_qp_PISA>  (286) 
385.72399999999999

>  <r_qp_PSA>  (286) 
37.161999999999999

>  <r_qp_PercentHumanOralAbsorption>  (286) 
100

>  <r_qp_QPPCaco>  (286) 
1077.424

>  <r_qp_QPPMDCK>  (286) 
974.47299999999996

>  <r_qp_QPlogBB>  (286) 
0.23200000000000001

>  <r_qp_QPlogHERG>  (286) 
-7.4820000000000002

>  <r_qp_QPlogKhsa>  (286) 
0.80600000000000005

>  <r_qp_QPlogKp>  (286) 
-2.2519999999999998

>  <r_qp_QPlogPC16>  (286) 
12.744

>  <r_qp_QPlogPo/w>  (286) 
4.9820000000000002

>  <r_qp_QPlogPoct>  (286) 
18.068000000000001

>  <r_qp_QPlogPw>  (286) 
8.6660000000000004

>  <r_qp_QPlogS>  (286) 
-5.2789999999999999

>  <r_qp_QPpolrz>  (286) 
42.625

>  <r_qp_SASA>  (286) 
705.49699999999996

>  <r_qp_SAamideO>  (286) 
0

>  <r_qp_SAfluorine>  (286) 
39.344999999999999

>  <r_qp_WPSA>  (286) 
39.344999999999999

>  <r_qp_accptHB>  (286) 
4.5

>  <r_qp_dip^2/V>  (286) 
0.023837899999999999

>  <r_qp_dipole>  (286) 
5.4349999999999996

>  <r_qp_donorHB>  (286) 
1

>  <r_qp_glob>  (286) 
0.79082549999999996

>  <r_qp_mol_MW>  (286) 
365.44900000000001

>  <r_qp_volume>  (286) 
1239.127

>  <r_sd_BIOSOLVEIT.INFINISEE\_FTREES\_SIMILARITY>  (286) 
0.90200000000000002

>  <r_sd_BIOSOLVEIT.LOGP>  (286) 
3.8306

>  <r_sd_BIOSOLVEIT.MOLECULAR\_WEIGHT>  (286) 
366.45800000000003

>  <r_sd_BIOSOLVEIT.TPSA>  (286) 
38.590000000000003

>  <i_epik_Tot_Q>  (286) 
1

>  <i_epik_Tot_abs_Q>  (286) 
1

>  <i_f3d_flags>  (286) 
0

>  <i_i_glide_confnum>  (286) 
5

>  <i_i_glide_lignum>  (286) 
62

>  <i_i_glide_posenum>  (286) 
14

>  <i_i_glide_rotatable_bonds>  (286) 
7

>  <i_lp_mmshare_version>  (286) 
65135

>  <i_m_ct_format>  (286) 
2

>  <i_m_source_file_index>  (286) 
559

>  <i_qp_#NandO>  (286) 
4

>  <i_qp_#acid>  (286) 
0

>  <i_qp_#amide>  (286) 
0

>  <i_qp_#amidine>  (286) 
0

>  <i_qp_#amine>  (286) 
1

>  <i_qp_#in34>  (286) 
0

>  <i_qp_#in56>  (286) 
18

>  <i_qp_#metab>  (286) 
6

>  <i_qp_#nonHatm>  (286) 
27

>  <i_qp_#noncon>  (286) 
0

>  <i_qp_#ringatoms>  (286) 
18

>  <i_qp_#rotor>  (286) 
7

>  <i_qp_#rtvFG>  (286) 
0

>  <i_qp_#stars>  (286) 
0

>  <i_qp_CNS>  (286) 
1

>  <i_qp_HumanOralAbsorption>  (286) 
3

>  <i_qp_RuleOfFive>  (286) 
0

>  <i_qp_RuleOfThree>  (286) 
0

>  <i_sd_BIOSOLVEIT.INFINISEE\_REAGENT1\_NAME>  (286) 
267243

>  <i_sd_BIOSOLVEIT.INFINISEE\_REAGENT2\_NAME>  (286) 
411479

>  <i_sd_BIOSOLVEIT.INFINISEE\_RESULT\_RANK>  (286) 
86991

>  <i_sd_version>  (286) 
0

>  <b_lp_Chiralities_Consistent>  (286) 
1

>  <b_sd_chiral_flag>  (286) 
0

>  <canonical_id>  (286) 
ATP-HTVS-2E3C44D093AA

>  <compound_code>  (286) 
17857

>  <title>  (286) 
a4____267243____411479

>  <variant>  (286) 
17857-1

>  <source_file>  (286) 
运行/运行/ATP-VSW/ATP-VSW-DOCK_HTVS_1-001_lib/ATP-VSW-DOCK_HTVS_1-001_lib

>  <canonical_smiles>  (286) 
C[C@H](c1ccc(CNc2ccc(Oc3ccccc3F)nc2)cc1)[NH+](C)C

>  <scaffold>  (286) 
c1ccc(CNc2ccc(Oc3ccccc3)nc2)cc1

>  <molecular_formula>  (286) 
C22H25FN3O+

$$$$
ATP-HTVS-2E3E6C1A8749
     RDKit          3D

 58 61  0  0  0  0  0  0  0  0999 V2000
  197.1945  183.5893  156.6681 S   0  0  0  0  0  0  0  0  0  0  0  0
  197.7251  182.3203  155.5887 C   0  0  0  0  0  0  0  0  0  0  0  0
  198.4638  182.8433  154.4808 C   0  0  0  0  0  0  0  0  0  0  0  0
  198.8114  181.8976  153.4612 C   0  0  0  0  0  0  0  0  0  0  0  0
  198.4753  180.5217  153.5654 C   0  0  0  0  0  0  0  0  0  0  0  0
  197.7899  180.0345  154.7077 C   0  0  0  0  0  0  0  0  0  0  0  0
  197.4294  180.9494  155.7124 C   0  0  0  0  0  0  0  0  0  0  0  0
  198.6724  184.2874  154.6407 C   0  0  0  0  0  0  0  0  0  0  0  0
  199.3214  185.0558  153.6614 N   0  0  0  0  0  0  0  0  0  0  0  0
  198.4598  185.9346  152.8759 C   0  0  1  0  0  0  0  0  0  0  0  0
  199.0854  187.2591  152.7135 C   0  0  0  0  0  0  0  0  0  0  0  0
  199.5888  188.2979  152.5982 N   0  0  0  0  0  0  0  0  0  0  0  0
  197.9780  185.3117  151.5666 C   0  0  0  0  0  0  0  0  0  0  0  0
  198.4560  185.8045  150.3327 C   0  0  0  0  0  0  0  0  0  0  0  0
  198.0035  185.2555  149.1264 C   0  0  0  0  0  0  0  0  0  0  0  0
  197.0733  184.1962  149.1427 C   0  0  0  0  0  0  0  0  0  0  0  0
  196.6043  183.6851  150.3701 C   0  0  0  0  0  0  0  0  0  0  0  0
  197.0595  184.2377  151.5798 C   0  0  0  0  0  0  0  0  0  0  0  0
  200.5896  184.5763  153.1248 C   0  0  2  0  0  0  0  0  0  0  0  0
  198.1134  184.7834  155.8059 C   0  0  0  0  0  0  0  0  0  0  0  0
  198.1743  186.2256  156.3410 C   0  0  1  0  0  0  0  0  0  0  0  0
  197.3404  186.4193  157.5481 N   0  0  0  0  0  0  0  0  0  0  0  0
  197.7816  186.1022  158.7976 C   0  0  0  0  0  0  0  0  0  0  0  0
  198.9798  186.0738  159.0671 O   0  0  0  0  0  0  0  0  0  0  0  0
  196.7830  185.7581  159.9414 C   0  0  1  0  0  0  0  0  0  0  0  0
  196.0187  184.4559  159.6583 C   0  0  0  0  0  0  0  0  0  0  0  0
  196.6765  183.2135  159.5296 C   0  0  0  0  0  0  0  0  0  0  0  0
  195.9738  182.0746  159.0775 C   0  0  0  0  0  0  0  0  0  0  0  0
  194.6069  182.1510  158.7899 C   0  0  0  0  0  0  0  0  0  0  0  0
  193.9595  181.0784  158.2796 O   0  0  0  0  0  0  0  0  0  0  0  0
  193.9297  183.3671  158.9409 C   0  0  0  0  0  0  0  0  0  0  0  0
  194.6255  184.4922  159.4292 C   0  0  0  0  0  0  0  0  0  0  0  0
  196.0201  187.0229  157.3227 C   0  0  2  0  0  0  0  0  0  0  0  0
  199.3189  182.2373  152.5707 H   0  0  0  0  0  0  0  0  0  0  0  0
  198.7312  179.8297  152.7754 H   0  0  0  0  0  0  0  0  0  0  0  0
  197.5130  178.9970  154.8150 H   0  0  0  0  0  0  0  0  0  0  0  0
  196.8864  180.6129  156.5702 H   0  0  0  0  0  0  0  0  0  0  0  0
  197.5463  186.1318  153.4436 H   0  0  0  0  0  0  0  0  0  0  0  0
  199.1776  186.6099  150.2885 H   0  0  0  0  0  0  0  0  0  0  0  0
  198.3733  185.6447  148.1968 H   0  0  0  0  0  0  0  0  0  0  0  0
  196.7277  183.7851  148.2074 H   0  0  0  0  0  0  0  0  0  0  0  0
  195.8943  182.8790  150.3796 H   0  0  0  0  0  0  0  0  0  0  0  0
  196.6705  183.8513  152.5172 H   0  0  0  0  0  0  0  0  0  0  0  0
  200.9727  183.7559  153.7427 H   0  0  0  0  0  0  0  0  0  0  0  0
  201.3409  185.3775  153.1340 H   0  0  0  0  0  0  0  0  0  0  0  0
  200.4523  184.2000  152.1030 H   0  0  0  0  0  0  0  0  0  0  0  0
  199.2068  186.5063  156.5531 H   0  0  0  0  0  0  0  0  0  0  0  0
  197.8499  186.9156  155.5664 H   0  0  0  0  0  0  0  0  0  0  0  0
  197.3483  185.5948  160.8518 H   0  0  0  0  0  0  0  0  0  0  0  0
  196.0887  186.5863  160.1394 H   0  0  0  0  0  0  0  0  0  0  0  0
  197.7437  183.1157  159.7245 H   0  0  0  0  0  0  0  0  0  0  0  0
  196.5085  181.1468  158.8922 H   0  0  0  0  0  0  0  0  0  0  0  0
  194.5486  180.3368  158.1401 H   0  0  0  0  0  0  0  0  0  0  0  0
  192.8805  183.4385  158.7147 H   0  0  0  0  0  0  0  0  0  0  0  0
  194.0967  185.4357  159.5102 H   0  0  0  0  0  0  0  0  0  0  0  0
  195.2093  186.4984  157.8275 H   0  0  0  0  0  0  0  0  0  0  0  0
  195.7535  187.0519  156.2648 H   0  0  0  0  0  0  0  0  0  0  0  0
  196.0286  188.0406  157.7073 H   0  0  0  0  0  0  0  0  0  0  0  0
  1  2  1  0
  1 20  1  0
  2  3  1  0
  2  7  2  0
  3  4  2  0
  3  8  1  0
  4  5  1  0
  4 34  1  0
  5  6  2  0
  5 35  1  0
  6  7  1  0
  6 36  1  0
  7 37  1  0
  8  9  1  0
  8 20  2  0
  9 10  1  0
  9 19  1  0
 10 11  1  0
 10 13  1  0
 10 38  1  1
 11 12  3  0
 13 14  2  0
 13 18  1  0
 14 15  1  0
 14 39  1  0
 15 16  2  0
 15 40  1  0
 16 17  1  0
 16 41  1  0
 17 18  2  0
 17 42  1  0
 18 43  1  0
 19 44  1  1
 19 45  1  0
 19 46  1  0
 20 21  1  0
 21 22  1  0
 21 47  1  1
 21 48  1  0
 22 23  1  0
 22 33  1  0
 23 24  2  0
 23 25  1  0
 25 26  1  0
 25 49  1  1
 25 50  1  0
 26 27  1  0
 26 32  2  0
 27 28  2  0
 27 51  1  0
 28 29  1  0
 28 52  1  0
 29 30  1  0
 29 31  2  0
 30 53  1  0
 31 32  1  0
 31 54  1  0
 32 55  1  0
 33 56  1  1
 33 57  1  0
 33 58  1  0
M  END
>  <s_epik_cmdline>  (287) 
J2VwaWtfcHl0aG9uJywgJy1waCcsICc3LjAwMDAwMCcsICctcGh0JywgJzIuMDAwMDAwJywgJy1tcycsICcxNicsICctdG4nLCAnOCcsICctbWEnLCAnMjAwJywgJy1pbWFlJywgJzxpbmZpbGUubWFlPicsICctb21hZScsICc8b3V0ZmlsZS5tYWU+Jw==

>  <s_epik_input>  (287) 
W2NIXTFbY0hdW2NIXVtjSF1bY0hdYzFbQ0BIXShDI04pTihbQ0gzXSljKGMoYzIzKVtjSF1bY0hdW2NIXVtjSF0zKWMoczIpW0NIMl1OKFtDSDNdKUMoPU8pW0NIMl1jNFtjSF1bY0hdYyhbT0hdKVtjSF1bY0hdNA==

>  <s_i_glide_gridfile>  (287) 
ATP-Grid

>  <s_lp_Force_Field>  (287) 
OPLS_2005

>  <s_lp_Variant>  (287) 
rxn502c____EMOL521529____EMOL49259969____EMOL24630243-1

>  <s_lp_label>  (287) 
2871_sdstereoexpander_1_neutralizer_1_epik_1_stereoizer_1

>  <s_m_source_file>  (287) 
ATP-VSW-LIGPREP-003-in.maegz

>  <s_sd_BIOSOLVEIT.INFINISEE\_QUERY\_NAME>  (287) 
Ref-Lig

>  <s_sd_BIOSOLVEIT.INFINISEE\_QUERY\_SMILES>  (287) 
S(c1nc2c(cc1C[NH2+]Cc3ccc(cc3)C[NH+](C)C)cccc2)Cc4ccccc4

>  <s_sd_BIOSOLVEIT.INFINISEE\_REACTION\_NAME>  (287) 
rxn502c

>  <s_sd_BIOSOLVEIT.INFINISEE\_REAGENT1\_NAME>  (287) 
EMOL521529

>  <s_sd_BIOSOLVEIT.INFINISEE\_REAGENT1\_SMILES>  (287) 
O=C(O)Cc1ccc(O)cc1

>  <s_sd_BIOSOLVEIT.INFINISEE\_REAGENT2\_NAME>  (287) 
EMOL49259969

>  <s_sd_BIOSOLVEIT.INFINISEE\_REAGENT2\_SMILES>  (287) 
ClC=1c2c(SC1CNC)cccc2

>  <s_sd_BIOSOLVEIT.INFINISEE\_REAGENT3\_NAME>  (287) 
EMOL24630243

>  <s_sd_BIOSOLVEIT.INFINISEE\_REAGENT3\_SMILES>  (287) 
N#CC(NC)c1ccccc1

>  <s_sd_BIOSOLVEIT.INFINISEE\_SPACE>  (287) 
eXplore_7tr_2022-12

>  <s_vsw_compound_code>  (287) 
91843

>  <s_vsw_variant>  (287) 
91843-1

>  <r_epik_Charging_Adjusted_Penalty>  (287) 
0.00109295718357387

>  <r_epik_Ionization_Penalty>  (287) 
0.0011000000000000001

>  <r_epik_Ionization_Penalty_Charging>  (287) 
0

>  <r_epik_Ionization_Penalty_Neutral>  (287) 
0.0011000000000000001

>  <r_epik_State_Penalty>  (287) 
0.0011000000000000001

>  <r_i_docking_score>  (287) 
-5.1012505243429001

>  <r_i_glide_ecoul>  (287) 
-8.1941661834716797

>  <r_i_glide_eff_state_penalty>  (287) 
0.0011000000000000001

>  <r_i_glide_einternal>  (287) 
10.8942546844482

>  <r_i_glide_emodel>  (287) 
-58.650318515584203

>  <r_i_glide_energy>  (287) 
-47.652303695678697

>  <r_i_glide_erotb>  (287) 
0.77438722004933302

>  <r_i_glide_esite>  (287) 
0

>  <r_i_glide_evdw>  (287) 
-39.458137512207003

>  <r_i_glide_gscore>  (287) 
-5.1023505243429002

>  <r_i_glide_hbond>  (287) 
-0.16

>  <r_i_glide_ligand_efficiency>  (287) 
-0.15458334922251199

>  <r_i_glide_ligand_efficiency_ln>  (287) 
-1.13449170375223

>  <r_i_glide_ligand_efficiency_sa>  (287) 
-0.49583139889904898

>  <r_i_glide_lipo>  (287) 
-1.9884199787118999

>  <r_i_glide_metal>  (287) 
-0

>  <r_i_glide_rewards>  (287) 
-0.52628596254923099

>  <r_lp_Energy>  (287) 
29.812315999999999

>  <r_lp_tautomer_probability>  (287) 
0.999999999997365

>  <r_qp_ACxDN^.5/SA>  (287) 
0.0092907000000000007

>  <r_qp_CIQPlogS>  (287) 
-6.5490000000000004

>  <r_qp_EA(eV)>  (287) 
0.79500000000000004

>  <r_qp_FISA>  (287) 
133.25700000000001

>  <r_qp_FOSA>  (287) 
171.00800000000001

>  <r_qp_IP(eV)>  (287) 
8.6519999999999992

>  <r_qp_Jm>  (287) 
0.0040137903796153597

>  <r_qp_PISA>  (287) 
352.762

>  <r_qp_PSA>  (287) 
76.893000000000001

>  <r_qp_PercentHumanOralAbsorption>  (287) 
84.494

>  <r_qp_QPPCaco>  (287) 
103.221

>  <r_qp_QPPMDCK>  (287) 
76.358000000000004

>  <r_qp_QPlogBB>  (287) 
-0.67600000000000005

>  <r_qp_QPlogHERG>  (287) 
-4.4269999999999996

>  <r_qp_QPlogKhsa>  (287) 
0.42599999999999999

>  <r_qp_QPlogKp>  (287) 
-3.931

>  <r_qp_QPlogPC16>  (287) 
14.606999999999999

>  <r_qp_QPlogPo/w>  (287) 
3.673

>  <r_qp_QPlogPoct>  (287) 
21.055

>  <r_qp_QPlogPw>  (287) 
11.356999999999999

>  <r_qp_QPlogS>  (287) 
-4.1239999999999997

>  <r_qp_QPpolrz>  (287) 
46.100000000000001

>  <r_qp_SASA>  (287) 
672.71400000000006

>  <r_qp_SAamideO>  (287) 
14.492000000000001

>  <r_qp_SAfluorine>  (287) 
0

>  <r_qp_WPSA>  (287) 
15.686999999999999

>  <r_qp_accptHB>  (287) 
6.25

>  <r_qp_dip^2/V>  (287) 
0.035115599999999997

>  <r_qp_dipole>  (287) 
6.9260000000000002

>  <r_qp_donorHB>  (287) 
1

>  <r_qp_glob>  (287) 
0.88501960000000002

>  <r_qp_mol_MW>  (287) 
455.57299999999998

>  <r_qp_volume>  (287) 
1365.9269999999999

>  <r_sd_BIOSOLVEIT.INFINISEE\_FTREES\_SIMILARITY>  (287) 
0.90500000000000003

>  <r_sd_BIOSOLVEIT.LOGP>  (287) 
5.50908

>  <r_sd_BIOSOLVEIT.MOLECULAR\_WEIGHT>  (287) 
455.57900000000001

>  <r_sd_BIOSOLVEIT.TPSA>  (287) 
67.569999999999993

>  <i_epik_Tot_Q>  (287) 
0

>  <i_epik_Tot_abs_Q>  (287) 
0

>  <i_f3d_flags>  (287) 
0

>  <i_i_glide_confnum>  (287) 
12

>  <i_i_glide_lignum>  (287) 
1396

>  <i_i_glide_posenum>  (287) 
5

>  <i_i_glide_rotatable_bonds>  (287) 
9

>  <i_lp_mmshare_version>  (287) 
65135

>  <i_m_ct_format>  (287) 
2

>  <i_m_source_file_index>  (287) 
2871

>  <i_qp_#NandO>  (287) 
5

>  <i_qp_#acid>  (287) 
0

>  <i_qp_#amide>  (287) 
1

>  <i_qp_#amidine>  (287) 
0

>  <i_qp_#amine>  (287) 
1

>  <i_qp_#in34>  (287) 
0

>  <i_qp_#in56>  (287) 
21

>  <i_qp_#metab>  (287) 
7

>  <i_qp_#nonHatm>  (287) 
33

>  <i_qp_#noncon>  (287) 
0

>  <i_qp_#ringatoms>  (287) 
21

>  <i_qp_#rotor>  (287) 
9

>  <i_qp_#rtvFG>  (287) 
0

>  <i_qp_#stars>  (287) 
0

>  <i_qp_CNS>  (287) 
1

>  <i_qp_HumanOralAbsorption>  (287) 
2

>  <i_qp_RuleOfFive>  (287) 
0

>  <i_qp_RuleOfThree>  (287) 
1

>  <i_sd_BIOSOLVEIT.INFINISEE\_RESULT\_RANK>  (287) 
71367

>  <i_sd_version>  (287) 
0

>  <b_lp_Chiralities_Consistent>  (287) 
1

>  <b_sd_chiral_flag>  (287) 
0

>  <canonical_id>  (287) 
ATP-HTVS-2E3E6C1A8749

>  <compound_code>  (287) 
91843

>  <title>  (287) 
rxn502c____EMOL521529____EMOL49259969____EMOL24630243

>  <variant>  (287) 
91843-1

>  <source_file>  (287) 
运行/运行/ATP-VSW/ATP-VSW-DOCK_HTVS_1-003_lib/ATP-VSW-DOCK_HTVS_1-003_lib.mae

>  <canonical_smiles>  (287) 
CN(Cc1sc2ccccc2c1N(C)[C@@H](C#N)c1ccccc1)C(=O)Cc1ccc(O)cc1

>  <scaffold>  (287) 
O=C(Cc1ccccc1)NCc1sc2ccccc2c1NCc1ccccc1

>  <molecular_formula>  (287) 
C27H25N3O2S

$$$$
ATP-HTVS-2E4BDA1C28D9
     RDKit          3D

 68 72  0  0  0  0  0  0  0  0999 V2000
  198.5827  180.0140  153.9033 O   0  0  0  0  0  0  0  0  0  0  0  0
  198.6906  180.7267  154.9086 C   0  0  0  0  0  0  0  0  0  0  0  0
  197.6276  181.4264  155.3845 N   0  0  0  0  0  0  0  0  0  0  0  0
  197.6250  182.2890  156.5474 C   0  0  0  0  0  0  0  0  0  0  0  0
  196.5807  182.1902  157.5023 C   0  0  0  0  0  0  0  0  0  0  0  0
  196.5826  182.9904  158.6614 C   0  0  0  0  0  0  0  0  0  0  0  0
  197.6289  183.8980  158.8844 C   0  0  0  0  0  0  0  0  0  0  0  0
  198.6591  184.0258  157.9390 C   0  0  0  0  0  0  0  0  0  0  0  0
  198.6308  183.2635  156.7324 C   0  0  0  0  0  0  0  0  0  0  0  0
  196.3354  181.1926  154.7186 C   0  0  1  0  0  0  0  0  0  0  0  0
  196.3302  181.5065  153.2773 C   0  0  0  0  0  0  0  0  0  0  0  0
  196.3283  181.7467  152.1439 N   0  0  0  0  0  0  0  0  0  0  0  0
  200.0511  180.8151  155.5173 C   0  0  0  0  0  0  0  0  0  0  0  0
  200.1492  180.9111  156.9099 N   0  0  0  0  0  0  0  0  0  0  0  0
  201.4954  181.1133  157.2791 C   0  0  0  0  0  0  0  0  0  0  0  0
  202.2354  181.0295  156.0768 C   0  0  0  0  0  0  0  0  0  0  0  0
  203.6423  181.2375  156.2192 C   0  0  0  0  0  0  0  0  0  0  0  0
  204.2314  181.4922  157.4827 C   0  0  0  0  0  0  0  0  0  0  0  0
  203.4282  181.5869  158.6345 C   0  0  0  0  0  0  0  0  0  0  0  0
  202.0380  181.3911  158.5313 C   0  0  0  0  0  0  0  0  0  0  0  0
  201.3166  180.8206  154.9786 C   0  0  0  0  0  0  0  0  0  0  0  0
  201.7159  180.7706  153.6146 N   0  0  0  0  0  0  0  0  0  0  0  0
  202.1433  179.4802  153.0824 C   0  0  1  0  0  0  0  0  0  0  0  0
  201.0630  178.6908  152.3154 C   0  0  0  0  0  0  0  0  0  0  0  0
  200.8494  177.2894  152.5350 C   0  0  0  0  0  0  0  0  0  0  0  0
  199.8372  176.5958  151.8105 C   0  0  0  0  0  0  0  0  0  0  0  0
  199.0386  177.2759  150.8639 C   0  0  0  0  0  0  0  0  0  0  0  0
  199.2586  178.6545  150.6501 C   0  0  0  0  0  0  0  0  0  0  0  0
  200.2502  179.3475  151.3613 C   0  0  0  0  0  0  0  0  0  0  0  0
  201.6576  176.4830  153.5454 C   0  0  1  0  0  0  0  0  0  0  0  0
  201.3953  176.9252  154.9530 N   0  0  1  0  0  0  0  0  0  0  0  0
  199.9760  177.0339  155.3322 C   0  0  1  0  0  0  0  0  0  0  0  0
  199.9980  177.1536  156.8531 C   0  0  1  0  0  0  0  0  0  0  0  0
  201.3231  176.5277  157.2796 C   0  0  1  0  0  0  0  0  0  0  0  0
  202.0102  176.0735  155.9892 C   0  0  1  0  0  0  0  0  0  0  0  0
  201.8227  181.9861  152.8012 C   0  0  2  0  0  0  0  0  0  0  0  0
  195.8032  181.4409  157.4010 H   0  0  0  0  0  0  0  0  0  0  0  0
  195.8028  182.8666  159.4016 H   0  0  0  0  0  0  0  0  0  0  0  0
  197.6808  184.4656  159.8095 H   0  0  0  0  0  0  0  0  0  0  0  0
  199.4882  184.6808  158.1069 H   0  0  0  0  0  0  0  0  0  0  0  0
  199.4000  183.4355  155.9939 H   0  0  0  0  0  0  0  0  0  0  0  0
  196.0094  180.1628  154.8782 H   0  0  0  0  0  0  0  0  0  0  0  0
  195.5704  181.8366  155.1222 H   0  0  0  0  0  0  0  0  0  0  0  0
  199.3555  180.9761  157.5075 H   0  0  0  0  0  0  0  0  0  0  0  0
  204.2664  181.2072  155.3358 H   0  0  0  0  0  0  0  0  0  0  0  0
  205.3061  181.5796  157.5764 H   0  0  0  0  0  0  0  0  0  0  0  0
  203.8685  181.7774  159.6044 H   0  0  0  0  0  0  0  0  0  0  0  0
  201.4091  181.5216  159.3981 H   0  0  0  0  0  0  0  0  0  0  0  0
  203.0100  179.6189  152.4404 H   0  0  0  0  0  0  0  0  0  0  0  0
  202.5300  178.9227  153.9259 H   0  0  0  0  0  0  0  0  0  0  0  0
  199.6533  175.5411  151.9831 H   0  0  0  0  0  0  0  0  0  0  0  0
  198.2662  176.7517  150.3118 H   0  0  0  0  0  0  0  0  0  0  0  0
  198.6597  179.1881  149.9223 H   0  0  0  0  0  0  0  0  0  0  0  0
  200.3552  180.4118  151.1568 H   0  0  0  0  0  0  0  0  0  0  0  0
  201.4094  175.4259  153.4390 H   0  0  0  0  0  0  0  0  0  0  0  0
  202.7224  176.5637  153.3230 H   0  0  0  0  0  0  0  0  0  0  0  0
  199.4598  177.8697  154.8605 H   0  0  0  0  0  0  0  0  0  0  0  0
  199.4753  176.1138  155.0405 H   0  0  0  0  0  0  0  0  0  0  0  0
  199.9491  178.1915  157.1743 H   0  0  0  0  0  0  0  0  0  0  0  0
  199.1468  176.6353  157.2967 H   0  0  0  0  0  0  0  0  0  0  0  0
  201.9364  177.2574  157.8019 H   0  0  0  0  0  0  0  0  0  0  0  0
  201.1456  175.6808  157.9334 H   0  0  0  0  0  0  0  0  0  0  0  0
  201.7704  175.0241  155.7914 H   0  0  0  0  0  0  0  0  0  0  0  0
  203.0980  176.1760  156.0061 H   0  0  0  0  0  0  0  0  0  0  0  0
  201.1464  182.7561  153.1870 H   0  0  0  0  0  0  0  0  0  0  0  0
  201.5584  181.8005  151.7643 H   0  0  0  0  0  0  0  0  0  0  0  0
  202.8436  182.3945  152.8316 H   0  0  0  0  0  0  0  0  0  0  0  0
  201.7727  177.8519  155.0838 H   0  0  0  0  0  0  0  0  0  0  0  0
  1  2  2  0
  2  3  1  0
  2 13  1  0
  3  4  1  0
  3 10  1  0
  4  5  2  0
  4  9  1  0
  5  6  1  0
  5 37  1  0
  6  7  2  0
  6 38  1  0
  7  8  1  0
  7 39  1  0
  8  9  2  0
  8 40  1  0
  9 41  1  0
 10 11  1  0
 10 42  1  6
 10 43  1  0
 11 12  3  0
 13 14  1  0
 13 21  2  0
 14 15  1  0
 14 44  1  0
 15 16  1  0
 15 20  2  0
 16 17  2  0
 16 21  1  0
 17 18  1  0
 17 45  1  0
 18 19  2  0
 18 46  1  0
 19 20  1  0
 19 47  1  0
 20 48  1  0
 21 22  1  0
 22 23  1  0
 22 36  1  0
 23 24  1  0
 23 49  1  6
 23 50  1  0
 24 25  1  0
 24 29  2  0
 25 26  2  0
 25 30  1  0
 26 27  1  0
 26 51  1  0
 27 28  2  0
 27 52  1  0
 28 29  1  0
 28 53  1  0
 29 54  1  0
 30 31  1  0
 30 55  1  1
 30 56  1  0
 31 32  1  0
 31 35  1  0
 31 68  1  6
 32 33  1  0
 32 57  1  6
 32 58  1  0
 33 34  1  0
 33 59  1  6
 33 60  1  0
 34 35  1  0
 34 61  1  1
 34 62  1  0
 35 63  1  6
 35 64  1  0
 36 65  1  1
 36 66  1  0
 36 67  1  0
M  CHG  1  31   1
M  END
>  <s_epik_cmdline>  (288) 
J2VwaWtfcHl0aG9uJywgJy1waCcsICc3LjAwMDAwMCcsICctcGh0JywgJzIuMDAwMDAwJywgJy1tcycsICcxNicsICctdG4nLCAnOCcsICctbWEnLCAnMjAwJywgJy1pbWFlJywgJzxpbmZpbGUubWFlPicsICctb21hZScsICc8b3V0ZmlsZS5tYWU+Jw==

>  <s_epik_input>  (288) 
W2NIXTFbY0hdW2NIXVtjSF1bY0hdYzFOKFtDSDJdQyNOKUMoPU8pYyhbbkhdMiljKGMoYzIzKVtjSF1bY0hdW2NIXVtjSF0zKU4oW0NIM10pW0NIMl1jNGMoW2NIXVtjSF1bY0hdW2NIXTQpW0NIMl1ONVtDSDJdW0NIMl1bQ0gyXVtDSDJdNQ==

>  <s_i_glide_gridfile>  (288) 
ATP-Grid

>  <s_lp_Force_Field>  (288) 
OPLS_2005

>  <s_lp_Variant>  (288) 
rxn512b____EMOL712348____EMOL719673____EMOL5415369-1

>  <s_lp_label>  (288) 
3124_sdstereoexpander_1_neutralizer_1_epik_1_stereoizer_1

>  <s_m_source_file>  (288) 
ATP-VSW-LIGPREP-001-in.maegz

>  <s_sd_BIOSOLVEIT.INFINISEE\_QUERY\_NAME>  (288) 
Ref-Lig

>  <s_sd_BIOSOLVEIT.INFINISEE\_QUERY\_SMILES>  (288) 
S(c1nc2c(cc1C[NH2+]Cc3ccc(cc3)C[NH+](C)C)cccc2)Cc4ccccc4

>  <s_sd_BIOSOLVEIT.INFINISEE\_REACTION\_NAME>  (288) 
rxn512b

>  <s_sd_BIOSOLVEIT.INFINISEE\_REAGENT1\_NAME>  (288) 
EMOL712348

>  <s_sd_BIOSOLVEIT.INFINISEE\_REAGENT1\_SMILES>  (288) 
N#CCNc1ccccc1

>  <s_sd_BIOSOLVEIT.INFINISEE\_REAGENT2\_NAME>  (288) 
EMOL719673

>  <s_sd_BIOSOLVEIT.INFINISEE\_REAGENT2\_SMILES>  (288) 
BrC=1c2c(NC1C(=O)O)cccc2

>  <s_sd_BIOSOLVEIT.INFINISEE\_REAGENT3\_NAME>  (288) 
EMOL5415369

>  <s_sd_BIOSOLVEIT.INFINISEE\_REAGENT3\_SMILES>  (288) 
N1(Cc2c(cccc2)CNC)CCCC1

>  <s_sd_BIOSOLVEIT.INFINISEE\_SPACE>  (288) 
eXplore_7tr_2022-12

>  <s_vsw_compound_code>  (288) 
99937

>  <s_vsw_variant>  (288) 
99937-1

>  <r_epik_Charging_Adjusted_Penalty>  (288) 
0.014842527139202999

>  <r_epik_Ionization_Penalty>  (288) 
0.0074999999999999997

>  <r_epik_Ionization_Penalty_Charging>  (288) 
0.0074000000000000003

>  <r_epik_Ionization_Penalty_Neutral>  (288) 
0.0001

>  <r_epik_State_Penalty>  (288) 
0.0074000000000000003

>  <r_i_docking_score>  (288) 
-2.55762200684525

>  <r_i_glide_ecoul>  (288) 
-5.0200829505920401

>  <r_i_glide_eff_state_penalty>  (288) 
0.0074000000000000003

>  <r_i_glide_einternal>  (288) 
6.7988724708557102

>  <r_i_glide_emodel>  (288) 
-38.196455494631799

>  <r_i_glide_energy>  (288) 
-34.144703388214097

>  <r_i_glide_erotb>  (288) 
0.70776929344137296

>  <r_i_glide_esite>  (288) 
-0.100359361599835

>  <r_i_glide_evdw>  (288) 
-29.124620437622099

>  <r_i_glide_gscore>  (288) 
-2.5650220068452501

>  <r_i_glide_hbond>  (288) 
0

>  <r_i_glide_ligand_efficiency>  (288) 
-0.071045055745701496

>  <r_i_glide_ligand_efficiency_ln>  (288) 
-0.55800402293237805

>  <r_i_glide_ligand_efficiency_sa>  (288) 
-0.234585605185755

>  <r_i_glide_lipo>  (288) 
-0.59233379239869999

>  <r_i_glide_metal>  (288) 
-0

>  <r_i_glide_rewards>  (288) 
-0.37085468181817999

>  <r_lp_Energy>  (288) 
63.129776

>  <r_qp_ACxDN^.5/SA>  (288) 
0.0089145000000000005

>  <r_qp_CIQPlogS>  (288) 
-6.1189999999999998

>  <r_qp_EA(eV)>  (288) 
0.53900000000000003

>  <r_qp_FISA>  (288) 
94.064999999999998

>  <r_qp_FOSA>  (288) 
297.803

>  <r_qp_IP(eV)>  (288) 
7.7960000000000003

>  <r_qp_Jm>  (288) 
8.50336827131695e-06

>  <r_qp_PISA>  (288) 
449.45299999999997

>  <r_qp_PSA>  (288) 
65.397999999999996

>  <r_qp_PercentHumanOralAbsorption>  (288) 
89.507999999999996

>  <r_qp_QPPCaco>  (288) 
79.010000000000005

>  <r_qp_QPPMDCK>  (288) 
38.960999999999999

>  <r_qp_QPlogBB>  (288) 
-0.21099999999999999

>  <r_qp_QPlogHERG>  (288) 
-8.6769999999999996

>  <r_qp_QPlogKhsa>  (288) 
1.026

>  <r_qp_QPlogKp>  (288) 
-4.931

>  <r_qp_QPlogPC16>  (288) 
17.09

>  <r_qp_QPlogPo/w>  (288) 
4.8840000000000003

>  <r_qp_QPlogPoct>  (288) 
24.655000000000001

>  <r_qp_QPlogPw>  (288) 
12.308

>  <r_qp_QPlogS>  (288) 
-5.819

>  <r_qp_QPpolrz>  (288) 
55.694000000000003

>  <r_qp_SASA>  (288) 
841.32100000000003

>  <r_qp_SAamideO>  (288) 
0

>  <r_qp_SAfluorine>  (288) 
0

>  <r_qp_WPSA>  (288) 
0

>  <r_qp_accptHB>  (288) 
7.5

>  <r_qp_dip^2/V>  (288) 
0.038872700000000003

>  <r_qp_dipole>  (288) 
7.843

>  <r_qp_donorHB>  (288) 
1

>  <r_qp_glob>  (288) 
0.78063170000000004

>  <r_qp_mol_MW>  (288) 
477.608

>  <r_qp_volume>  (288) 
1582.576

>  <r_sd_BIOSOLVEIT.INFINISEE\_FTREES\_SIMILARITY>  (288) 
0.90100000000000002

>  <r_sd_BIOSOLVEIT.LOGP>  (288) 
4.1533800000000003

>  <r_sd_BIOSOLVEIT.MOLECULAR\_WEIGHT>  (288) 
478.61700000000002

>  <r_sd_BIOSOLVEIT.TPSA>  (288) 
67.569999999999993

>  <i_epik_Tot_Q>  (288) 
1

>  <i_epik_Tot_abs_Q>  (288) 
1

>  <i_f3d_flags>  (288) 
0

>  <i_i_glide_confnum>  (288) 
6

>  <i_i_glide_lignum>  (288) 
71

>  <i_i_glide_posenum>  (288) 
16

>  <i_i_glide_rotatable_bonds>  (288) 
9

>  <i_lp_mmshare_version>  (288) 
65135

>  <i_m_ct_format>  (288) 
2

>  <i_m_source_file_index>  (288) 
3124

>  <i_qp_#NandO>  (288) 
6

>  <i_qp_#acid>  (288) 
0

>  <i_qp_#amide>  (288) 
0

>  <i_qp_#amidine>  (288) 
0

>  <i_qp_#amine>  (288) 
2

>  <i_qp_#in34>  (288) 
0

>  <i_qp_#in56>  (288) 
26

>  <i_qp_#metab>  (288) 
7

>  <i_qp_#nonHatm>  (288) 
36

>  <i_qp_#noncon>  (288) 
4

>  <i_qp_#ringatoms>  (288) 
26

>  <i_qp_#rotor>  (288) 
9

>  <i_qp_#rtvFG>  (288) 
0

>  <i_qp_#stars>  (288) 
1

>  <i_qp_CNS>  (288) 
1

>  <i_qp_HumanOralAbsorption>  (288) 
3

>  <i_qp_RuleOfFive>  (288) 
0

>  <i_qp_RuleOfThree>  (288) 
2

>  <i_sd_BIOSOLVEIT.INFINISEE\_RESULT\_RANK>  (288) 
99708

>  <i_sd_version>  (288) 
0

>  <b_lp_Chiralities_Consistent>  (288) 
1

>  <b_sd_chiral_flag>  (288) 
0

>  <canonical_id>  (288) 
ATP-HTVS-2E4BDA1C28D9

>  <compound_code>  (288) 
99937

>  <title>  (288) 
rxn512b____EMOL712348____EMOL719673____EMOL5415369

>  <variant>  (288) 
99937-1

>  <source_file>  (288) 
运行/运行/ATP-VSW/ATP-VSW-DOCK_HTVS_1-002_lib.maegz

>  <canonical_smiles>  (288) 
CN(Cc1ccccc1C[NH+]1CCCC1)c1c(C(=O)N(CC#N)c2ccccc2)[nH]c2ccccc12

>  <scaffold>  (288) 
O=C(Nc1ccccc1)c1[nH]c2ccccc2c1NCc1ccccc1C[NH+]1CCCC1

>  <molecular_formula>  (288) 
C30H32N5O+

$$$$
ATP-HTVS-2E7AE7689BA0
     RDKit          3D

 58 61  0  0  0  0  0  0  0  0999 V2000
  197.9957  186.2344  150.5395 F   0  0  0  0  0  0  0  0  0  0  0  0
  198.5104  186.2735  151.7908 C   0  0  0  0  0  0  0  0  0  0  0  0
  199.5439  187.1746  152.1113 C   0  0  0  0  0  0  0  0  0  0  0  0
  200.0695  187.2231  153.4194 C   0  0  0  0  0  0  0  0  0  0  0  0
  199.5608  186.3715  154.4251 C   0  0  0  0  0  0  0  0  0  0  0  0
  198.5289  185.4647  154.0789 C   0  0  0  0  0  0  0  0  0  0  0  0
  198.0068  185.4138  152.7782 C   0  0  0  0  0  0  0  0  0  0  0  0
  200.1648  186.4417  155.8302 C   0  0  1  0  0  0  0  0  0  0  0  0
  199.2447  186.3704  156.9614 N   0  0  0  0  0  0  0  0  0  0  0  0
  198.4715  185.2719  157.2847 C   0  0  0  0  0  0  0  0  0  0  0  0
  198.9021  184.0492  156.9649 N   0  0  0  0  0  0  0  0  0  0  0  0
  198.1105  182.9851  157.2009 C   0  0  0  0  0  0  0  0  0  0  0  0
  198.5692  181.7175  156.8064 N   0  0  0  0  0  0  0  0  0  0  0  0
  199.8240  181.5495  156.1033 C   0  0  1  0  0  0  0  0  0  0  0  0
  200.2605  180.1144  155.9635 C   0  0  0  0  0  0  0  0  0  0  0  0
  199.9235  179.1254  156.9194 C   0  0  0  0  0  0  0  0  0  0  0  0
  200.3472  177.7834  156.7780 C   0  0  0  0  0  0  0  0  0  0  0  0
  201.1704  177.4283  155.6743 C   0  0  0  0  0  0  0  0  0  0  0  0
  201.6093  178.4351  154.7803 C   0  0  0  0  0  0  0  0  0  0  0  0
  201.0954  179.7501  154.8861 C   0  0  0  0  0  0  0  0  0  0  0  0
  201.5912  175.9640  155.4874 C   0  0  1  0  0  0  0  0  0  0  0  0
  201.2232  175.3434  154.1998 N   0  0  0  0  0  0  0  0  0  0  0  0
  201.8755  176.0131  153.0603 C   0  0  2  0  0  0  0  0  0  0  0  0
  201.6147  173.9414  154.1825 C   0  0  2  0  0  0  0  0  0  0  0  0
  196.8623  183.1383  157.8279 C   0  0  0  0  0  0  0  0  0  0  0  0
  196.4787  184.4525  158.1661 C   0  0  0  0  0  0  0  0  0  0  0  0
  197.2935  185.4898  157.8747 N   0  0  0  0  0  0  0  0  0  0  0  0
  195.2518  184.6895  158.8058 C   0  0  0  0  0  0  0  0  0  0  0  0
  194.3974  183.6135  159.1039 C   0  0  0  0  0  0  0  0  0  0  0  0
  194.7792  182.2979  158.7754 C   0  0  0  0  0  0  0  0  0  0  0  0
  196.0067  182.0584  158.1338 C   0  0  0  0  0  0  0  0  0  0  0  0
  199.9317  187.8313  151.3486 H   0  0  0  0  0  0  0  0  0  0  0  0
  200.8682  187.9171  153.6427 H   0  0  0  0  0  0  0  0  0  0  0  0
  198.0938  184.7730  154.7746 H   0  0  0  0  0  0  0  0  0  0  0  0
  197.2150  184.7135  152.5558 H   0  0  0  0  0  0  0  0  0  0  0  0
  200.9304  185.6706  155.9354 H   0  0  0  0  0  0  0  0  0  0  0  0
  200.6892  187.3944  155.9189 H   0  0  0  0  0  0  0  0  0  0  0  0
  198.9700  187.2503  157.3709 H   0  0  0  0  0  0  0  0  0  0  0  0
  198.0051  180.8914  156.9648 H   0  0  0  0  0  0  0  0  0  0  0  0
  199.7358  181.9884  155.1034 H   0  0  0  0  0  0  0  0  0  0  0  0
  200.6322  182.0855  156.6165 H   0  0  0  0  0  0  0  0  0  0  0  0
  199.3132  179.3841  157.7667 H   0  0  0  0  0  0  0  0  0  0  0  0
  200.0377  177.0540  157.5031 H   0  0  0  0  0  0  0  0  0  0  0  0
  202.2886  178.2320  153.9974 H   0  0  0  0  0  0  0  0  0  0  0  0
  201.3805  180.4709  154.1337 H   0  0  0  0  0  0  0  0  0  0  0  0
  202.6731  175.9122  155.6364 H   0  0  0  0  0  0  0  0  0  0  0  0
  201.1570  175.3696  156.2922 H   0  0  0  0  0  0  0  0  0  0  0  0
  201.7090  175.4513  152.1133 H   0  0  0  0  0  0  0  0  0  0  0  0
  202.9640  176.0464  153.2442 H   0  0  0  0  0  0  0  0  0  0  0  0
  201.4942  176.9730  152.9243 H   0  0  0  0  0  0  0  0  0  0  0  0
  201.3789  173.5131  153.2041 H   0  0  0  0  0  0  0  0  0  0  0  0
  201.0849  173.3595  154.9365 H   0  0  0  0  0  0  0  0  0  0  0  0
  202.6920  173.8338  154.3384 H   0  0  0  0  0  0  0  0  0  0  0  0
  194.9371  185.6923  159.0507 H   0  0  0  0  0  0  0  0  0  0  0  0
  193.4503  183.8013  159.5846 H   0  0  0  0  0  0  0  0  0  0  0  0
  194.1325  181.4638  159.0057 H   0  0  0  0  0  0  0  0  0  0  0  0
  196.2786  181.0422  157.8944 H   0  0  0  0  0  0  0  0  0  0  0  0
  196.9775  186.4321  158.0990 H   0  0  0  0  0  0  0  0  0  0  0  0
  1  2  1  0
  2  3  1  0
  2  7  2  0
  3  4  2  0
  3 32  1  0
  4  5  1  0
  4 33  1  0
  5  6  2  0
  5  8  1  0
  6  7  1  0
  6 34  1  0
  7 35  1  0
  8  9  1  0
  8 36  1  1
  8 37  1  0
  9 10  1  0
  9 38  1  0
 10 11  1  0
 10 27  2  0
 11 12  2  0
 12 13  1  0
 12 25  1  0
 13 14  1  0
 13 39  1  0
 14 15  1  0
 14 40  1  6
 14 41  1  0
 15 16  1  0
 15 20  2  0
 16 17  2  0
 16 42  1  0
 17 18  1  0
 17 43  1  0
 18 19  2  0
 18 21  1  0
 19 20  1  0
 19 44  1  0
 20 45  1  0
 21 22  1  0
 21 46  1  1
 21 47  1  0
 22 23  1  0
 22 24  1  0
 23 48  1  6
 23 49  1  0
 23 50  1  0
 24 51  1  6
 24 52  1  0
 24 53  1  0
 25 26  1  0
 25 31  2  0
 26 27  1  0
 26 28  2  0
 27 58  1  0
 28 29  1  0
 28 54  1  0
 29 30  2  0
 29 55  1  0
 30 31  1  0
 30 56  1  0
 31 57  1  0
M  CHG  1  27   1
M  END
>  <s_epik_cmdline>  (289) 
J2VwaWtfcHl0aG9uJywgJy1waCcsICc3LjAwMDAwMCcsICctcGh0JywgJzIuMDAwMDAwJywgJy1tcycsICcxNicsICctdG4nLCAnOCcsICctbWEnLCAnMjAwJywgJy1pbWFlJywgJzxpbmZpbGUubWFlPicsICctb21hZScsICc8b3V0ZmlsZS5tYWU+Jw==

>  <s_epik_input>  (289) 
RmMxW2NIXVtjSF1jKFtjSF1bY0hdMSlbQ0gyXVtOSF1jKG5jKGMyMylbY0hdW2NIXVtjSF1bY0hdMyluYzJbTkhdW0NIMl1jNFtjSF1bY0hdYyhbY0hdW2NIXTQpW0NIMl1OKFtDSDNdKVtDSDNd

>  <s_i_glide_gridfile>  (289) 
ATP-Grid

>  <s_lp_Force_Field>  (289) 
OPLS_2005

>  <s_lp_Variant>  (289) 
m_282030aaa____21930854____22360182____21945542-2

>  <s_lp_label>  (289) 
801_sdstereoexpander_1_neutralizer_1_epik_2_stereoizer_1

>  <s_m_source_file>  (289) 
ATP-VSW-LIGPREP-002-in.maegz

>  <s_sd_BIOSOLVEIT.INFINISEE\_QUERY\_NAME>  (289) 
Ref-Lig

>  <s_sd_BIOSOLVEIT.INFINISEE\_QUERY\_SMILES>  (289) 
S(c1nc2c(cc1C[NH2+]Cc3ccc(cc3)C[NH+](C)C)cccc2)Cc4ccccc4

>  <s_sd_BIOSOLVEIT.INFINISEE\_REACTION\_NAME>  (289) 
m_282030aaa

>  <s_sd_BIOSOLVEIT.INFINISEE\_REAGENT1\_SMILES>  (289) 
[R1*]NCc1ccc(F)cc1

>  <s_sd_BIOSOLVEIT.INFINISEE\_REAGENT2\_SMILES>  (289) 
[R2*]c1nc([R1*])c2c(n1)cccc2

>  <s_sd_BIOSOLVEIT.INFINISEE\_REAGENT3\_SMILES>  (289) 
[R2*]NCc1ccc(cc1)CN(C)C

>  <s_sd_BIOSOLVEIT.INFINISEE\_SPACE>  (289) 
REALSpace_44bn_2023-08

>  <s_vsw_compound_code>  (289) 
25602

>  <s_vsw_variant>  (289) 
25602-2

>  <r_epik_Charging_Adjusted_Penalty>  (289) 
1.6831420054075299

>  <r_epik_Ionization_Penalty>  (289) 
1.6452

>  <r_epik_Ionization_Penalty_Charging>  (289) 
0.0167

>  <r_epik_Ionization_Penalty_Neutral>  (289) 
1.6284000000000001

>  <r_epik_State_Penalty>  (289) 
1.6664000000000001

>  <r_i_docking_score>  (289) 
-1.2953963794935199

>  <r_i_glide_ecoul>  (289) 
-3.2286736965179399

>  <r_i_glide_eff_state_penalty>  (289) 
1.6664000000000001

>  <r_i_glide_einternal>  (289) 
2.6263296604156499

>  <r_i_glide_emodel>  (289) 
-39.763343712864099

>  <r_i_glide_energy>  (289) 
-32.490718603134198

>  <r_i_glide_erotb>  (289) 
0.79717346097555597

>  <r_i_glide_esite>  (289) 
-0.0301938470908884

>  <r_i_glide_evdw>  (289) 
-29.2620449066162

>  <r_i_glide_gscore>  (289) 
-2.9617963794935198

>  <r_i_glide_hbond>  (289) 
0

>  <r_i_glide_ligand_efficiency>  (289) 
-0.041786979983661897

>  <r_i_glide_ligand_efficiency_ln>  (289) 
-0.29215158270713498

>  <r_i_glide_ligand_efficiency_sa>  (289) 
-0.13126881029228299

>  <r_i_glide_lipo>  (289) 
-0.91240096637004597

>  <r_i_glide_metal>  (289) 
-0

>  <r_i_glide_rewards>  (289) 
-0.868971727199638

>  <r_lp_Energy>  (289) 
15.088181000000001

>  <r_qp_ACxDN^.5/SA>  (289) 
0.0106277

>  <r_qp_CIQPlogS>  (289) 
-5.8540000000000001

>  <r_qp_EA(eV)>  (289) 
0.66000000000000003

>  <r_qp_FISA>  (289) 
50.465000000000003

>  <r_qp_FOSA>  (289) 
220.29599999999999

>  <r_qp_IP(eV)>  (289) 
8.1379999999999999

>  <r_qp_Jm>  (289) 
0.121321541416097

>  <r_qp_PISA>  (289) 
364.65199999999999

>  <r_qp_PSA>  (289) 
47.579000000000001

>  <r_qp_PercentHumanOralAbsorption>  (289) 
100

>  <r_qp_QPPCaco>  (289) 
820.81399999999996

>  <r_qp_QPPMDCK>  (289) 
644.89200000000005

>  <r_qp_QPlogBB>  (289) 
0.091999999999999998

>  <r_qp_QPlogHERG>  (289) 
-6.3540000000000001

>  <r_qp_QPlogKhsa>  (289) 
0.73099999999999998

>  <r_qp_QPlogKp>  (289) 
-2.46

>  <r_qp_QPlogPC16>  (289) 
13.227

>  <r_qp_QPlogPo/w>  (289) 
4.71

>  <r_qp_QPlogPoct>  (289) 
19.978999999999999

>  <r_qp_QPlogPw>  (289) 
10.244

>  <r_qp_QPlogS>  (289) 
-4.0750000000000002

>  <r_qp_QPpolrz>  (289) 
43.188000000000002

>  <r_qp_SASA>  (289) 
665.34100000000001

>  <r_qp_SAamideO>  (289) 
0

>  <r_qp_SAfluorine>  (289) 
29.928000000000001

>  <r_qp_WPSA>  (289) 
29.928000000000001

>  <r_qp_accptHB>  (289) 
5

>  <r_qp_dip^2/V>  (289) 
0.0068888999999999999

>  <r_qp_dipole>  (289) 
2.9630000000000001

>  <r_qp_donorHB>  (289) 
2

>  <r_qp_glob>  (289) 
0.85434060000000001

>  <r_qp_mol_MW>  (289) 
415.512

>  <r_qp_volume>  (289) 
1274.2829999999999

>  <r_sd_BIOSOLVEIT.INFINISEE\_FTREES\_SIMILARITY>  (289) 
0.92300000000000004

>  <r_sd_BIOSOLVEIT.LOGP>  (289) 
3.6375999999999999

>  <r_sd_BIOSOLVEIT.MOLECULAR\_WEIGHT>  (289) 
416.52100000000002

>  <r_sd_BIOSOLVEIT.TPSA>  (289) 
54.280000000000001

>  <i_epik_Tot_Q>  (289) 
1

>  <i_epik_Tot_abs_Q>  (289) 
1

>  <i_f3d_flags>  (289) 
0

>  <i_i_glide_confnum>  (289) 
11

>  <i_i_glide_lignum>  (289) 
252

>  <i_i_glide_posenum>  (289) 
5

>  <i_i_glide_rotatable_bonds>  (289) 
8

>  <i_lp_mmshare_version>  (289) 
65135

>  <i_m_ct_format>  (289) 
2

>  <i_m_source_file_index>  (289) 
801

>  <i_qp_#NandO>  (289) 
5

>  <i_qp_#acid>  (289) 
0

>  <i_qp_#amide>  (289) 
0

>  <i_qp_#amidine>  (289) 
0

>  <i_qp_#amine>  (289) 
1

>  <i_qp_#in34>  (289) 
0

>  <i_qp_#in56>  (289) 
22

>  <i_qp_#metab>  (289) 
4

>  <i_qp_#nonHatm>  (289) 
31

>  <i_qp_#noncon>  (289) 
0

>  <i_qp_#ringatoms>  (289) 
22

>  <i_qp_#rotor>  (289) 
8

>  <i_qp_#rtvFG>  (289) 
0

>  <i_qp_#stars>  (289) 
0

>  <i_qp_CNS>  (289) 
1

>  <i_qp_HumanOralAbsorption>  (289) 
3

>  <i_qp_RuleOfFive>  (289) 
0

>  <i_qp_RuleOfThree>  (289) 
0

>  <i_sd_BIOSOLVEIT.INFINISEE\_REAGENT1\_NAME>  (289) 
21930854

>  <i_sd_BIOSOLVEIT.INFINISEE\_REAGENT2\_NAME>  (289) 
22360182

>  <i_sd_BIOSOLVEIT.INFINISEE\_REAGENT3\_NAME>  (289) 
21945542

>  <i_sd_BIOSOLVEIT.INFINISEE\_RESULT\_RANK>  (289) 
11386

>  <i_sd_version>  (289) 
0

>  <b_lp_Chiralities_Consistent>  (289) 
1

>  <b_sd_chiral_flag>  (289) 
0

>  <canonical_id>  (289) 
ATP-HTVS-2E7AE7689BA0

>  <compound_code>  (289) 
25602

>  <title>  (289) 
m_282030aaa____21930854____22360182____21945542

>  <variant>  (289) 
25602-2

>  <source_file>  (289) 
运行/运行/ATP-VSW/ATP-VSW-DOCK_HTVS_1-002_lib.maegz

>  <canonical_smiles>  (289) 
CN(C)Cc1ccc(CNc2nc(NCc3ccc(F)cc3)[nH+]c3ccccc23)cc1

>  <scaffold>  (289) 
c1ccc(CNc2nc(NCc3ccccc3)c3ccccc3[nH+]2)cc1

>  <molecular_formula>  (289) 
C25H27FN5+

$$$$
ATP-HTVS-2ECA33AB7628
     RDKit          3D

 59 61  0  0  0  0  0  0  0  0999 V2000
  197.2938  179.5929  149.3376 S   0  0  0  0  0  0  0  0  0  0  0  0
  197.8008  179.1869  150.9525 C   0  0  0  0  0  0  0  0  0  0  0  0
  196.9317  179.6570  152.0630 C   0  0  0  0  0  0  0  0  0  0  0  0
  195.8032  179.1706  152.1282 O   0  0  0  0  0  0  0  0  0  0  0  0
  197.3866  180.5752  152.9575 N   0  0  0  0  0  0  0  0  0  0  0  0
  198.2333  181.6856  152.5901 C   0  0  0  0  0  0  0  0  0  0  0  0
  197.8943  183.0156  152.9682 C   0  0  0  0  0  0  0  0  0  0  0  0
  198.7410  184.0976  152.7348 C   0  0  0  0  0  0  0  0  0  0  0  0
  199.9123  183.9150  151.9791 C   0  0  0  0  0  0  0  0  0  0  0  0
  200.2408  182.6221  151.5248 C   0  0  0  0  0  0  0  0  0  0  0  0
  199.4416  181.5224  151.8712 C   0  0  0  0  0  0  0  0  0  0  0  0
  197.0132  180.3610  154.3737 C   0  0  1  0  0  0  0  0  0  0  0  0
  196.4615  181.5723  155.1109 C   0  0  1  0  0  0  0  0  0  0  0  0
  196.3010  181.3945  156.5689 N   0  0  2  0  0  0  0  0  0  0  0  0
  198.9760  178.4598  150.9450 C   0  0  0  0  0  0  0  0  0  0  0  0
  199.6571  178.0186  152.0963 N   0  0  0  0  0  0  0  0  0  0  0  0
  200.8703  177.2066  152.0680 C   0  0  1  0  0  0  0  0  0  0  0  0
  201.3010  176.6595  153.4202 C   0  0  0  0  0  0  0  0  0  0  0  0
  200.5116  176.8585  154.5544 C   0  0  0  0  0  0  0  0  0  0  0  0
  200.9480  176.4987  155.8495 C   0  0  0  0  0  0  0  0  0  0  0  0
  202.1369  175.7584  155.9774 C   0  0  0  0  0  0  0  0  0  0  0  0
  202.9010  175.4644  154.8244 C   0  0  0  0  0  0  0  0  0  0  0  0
  202.5001  175.9287  153.5509 C   0  0  0  0  0  0  0  0  0  0  0  0
  200.1286  176.8826  157.0793 C   0  0  1  0  0  0  0  0  0  0  0  0
  199.9854  178.3465  157.3192 N   0  0  2  0  0  0  0  0  0  0  0  0
  199.5349  179.1138  156.1659 C   0  0  2  0  0  0  0  0  0  0  0  0
  201.1844  178.9687  157.8968 C   0  0  2  0  0  0  0  0  0  0  0  0
  199.5001  178.2728  149.6348 C   0  0  0  0  0  0  0  0  0  0  0  0
  198.7066  178.8227  148.6646 C   0  0  0  0  0  0  0  0  0  0  0  0
  195.9194  182.2580  156.9364 H   0  0  0  0  0  0  0  0  0  0  0  0
  197.2105  181.2360  156.9574 H   0  0  0  0  0  0  0  0  0  0  0  0
  196.9461  183.2743  153.4357 H   0  0  0  0  0  0  0  0  0  0  0  0
  198.4810  185.0693  153.1061 H   0  0  0  0  0  0  0  0  0  0  0  0
  200.5442  184.7542  151.7232 H   0  0  0  0  0  0  0  0  0  0  0  0
  201.1177  182.4501  150.9011 H   0  0  0  0  0  0  0  0  0  0  0  0
  199.8008  180.5859  151.5332 H   0  0  0  0  0  0  0  0  0  0  0  0
  196.3939  179.4932  154.5488 H   0  0  0  0  0  0  0  0  0  0  0  0
  197.9489  180.1996  154.8082 H   0  0  0  0  0  0  0  0  0  0  0  0
  197.1852  182.3928  155.1848 H   0  0  0  0  0  0  0  0  0  0  0  0
  195.5465  181.9041  154.6443 H   0  0  0  0  0  0  0  0  0  0  0  0
  199.2705  178.2530  152.9979 H   0  0  0  0  0  0  0  0  0  0  0  0
  200.6919  176.3652  151.4043 H   0  0  0  0  0  0  0  0  0  0  0  0
  201.6822  177.8062  151.6500 H   0  0  0  0  0  0  0  0  0  0  0  0
  199.5654  177.3577  154.4274 H   0  0  0  0  0  0  0  0  0  0  0  0
  202.4662  175.4181  156.9450 H   0  0  0  0  0  0  0  0  0  0  0  0
  203.8024  174.8743  154.9204 H   0  0  0  0  0  0  0  0  0  0  0  0
  203.0961  175.7139  152.6787 H   0  0  0  0  0  0  0  0  0  0  0  0
  199.1389  176.4353  156.9760 H   0  0  0  0  0  0  0  0  0  0  0  0
  200.5815  176.4425  157.9717 H   0  0  0  0  0  0  0  0  0  0  0  0
  200.2802  179.1557  155.3654 H   0  0  0  0  0  0  0  0  0  0  0  0
  199.3397  180.1503  156.3992 H   0  0  0  0  0  0  0  0  0  0  0  0
  198.6297  178.6051  155.8269 H   0  0  0  0  0  0  0  0  0  0  0  0
  202.0265  178.8864  157.2041 H   0  0  0  0  0  0  0  0  0  0  0  0
  201.4459  178.4955  158.8448 H   0  0  0  0  0  0  0  0  0  0  0  0
  201.0010  180.0336  158.0781 H   0  0  0  0  0  0  0  0  0  0  0  0
  200.4332  177.7700  149.4509 H   0  0  0  0  0  0  0  0  0  0  0  0
  198.8725  178.8236  147.5978 H   0  0  0  0  0  0  0  0  0  0  0  0
  195.7210  180.5993  156.7801 H   0  0  0  0  0  0  0  0  0  0  0  0
  199.2234  178.4152  157.9848 H   0  0  0  0  0  0  0  0  0  0  0  0
  1  2  1  0
  1 29  1  0
  2  3  1  0
  2 15  2  0
  3  4  2  0
  3  5  1  0
  5  6  1  0
  5 12  1  0
  6  7  2  0
  6 11  1  0
  7  8  1  0
  7 32  1  0
  8  9  2  0
  8 33  1  0
  9 10  1  0
  9 34  1  0
 10 11  2  0
 10 35  1  0
 11 36  1  0
 12 13  1  0
 12 37  1  6
 12 38  1  0
 13 14  1  0
 13 39  1  1
 13 40  1  0
 14 30  1  1
 14 31  1  0
 14 58  1  0
 15 16  1  0
 15 28  1  0
 16 17  1  0
 16 41  1  0
 17 18  1  0
 17 42  1  6
 17 43  1  0
 18 19  2  0
 18 23  1  0
 19 20  1  0
 19 44  1  0
 20 21  2  0
 20 24  1  0
 21 22  1  0
 21 45  1  0
 22 23  2  0
 22 46  1  0
 23 47  1  0
 24 25  1  0
 24 48  1  6
 24 49  1  0
 25 26  1  0
 25 27  1  0
 25 59  1  1
 26 50  1  6
 26 51  1  0
 26 52  1  0
 27 53  1  6
 27 54  1  0
 27 55  1  0
 28 29  2  0
 28 56  1  0
 29 57  1  0
M  CHG  2  14   1  25   1
M  END
>  <s_epik_cmdline>  (290) 
J2VwaWtfcHl0aG9uJywgJy1waCcsICc3LjAwMDAwMCcsICctcGh0JywgJzIuMDAwMDAwJywgJy1tcycsICcxNicsICctdG4nLCAnOCcsICctbWEnLCAnMjAwJywgJy1pbWFlJywgJzxpbmZpbGUubWFlPicsICctb21hZScsICc8b3V0ZmlsZS5tYWU+Jw==

>  <s_epik_input>  (290) 
W2NIXTFbY0hdW2NIXVtjSF1bY0hdYzFOKFtDSDJdW0NIMl1bTkgyXSlDKD1PKWMyc1tjSF1bY0hdYzJbTkhdW0NIMl1jM1tjSF1jKFtjSF1bY0hdW2NIXTMpW0NIMl1OKFtDSDNdKVtDSDNd

>  <s_i_glide_gridfile>  (290) 
ATP-Grid

>  <s_lp_Force_Field>  (290) 
OPLS_2005

>  <s_lp_Variant>  (290) 
rxn512b____EMOL530647____EMOL525138____EMOL2873214-1

>  <s_lp_label>  (290) 
2302_sdstereoexpander_1_neutralizer_1_epik_1_stereoizer_1

>  <s_m_source_file>  (290) 
ATP-VSW-LIGPREP-002-in.maegz

>  <s_sd_BIOSOLVEIT.INFINISEE\_QUERY\_NAME>  (290) 
Ref-Lig

>  <s_sd_BIOSOLVEIT.INFINISEE\_QUERY\_SMILES>  (290) 
S(c1nc2c(cc1C[NH2+]Cc3ccc(cc3)C[NH+](C)C)cccc2)Cc4ccccc4

>  <s_sd_BIOSOLVEIT.INFINISEE\_REACTION\_NAME>  (290) 
rxn512b

>  <s_sd_BIOSOLVEIT.INFINISEE\_REAGENT1\_NAME>  (290) 
EMOL530647

>  <s_sd_BIOSOLVEIT.INFINISEE\_REAGENT1\_SMILES>  (290) 
N(c1ccccc1)CCN

>  <s_sd_BIOSOLVEIT.INFINISEE\_REAGENT2\_NAME>  (290) 
EMOL525138

>  <s_sd_BIOSOLVEIT.INFINISEE\_REAGENT2\_SMILES>  (290) 
BrC1=C(SC=C1)C(=O)O

>  <s_sd_BIOSOLVEIT.INFINISEE\_REAGENT3\_NAME>  (290) 
EMOL2873214

>  <s_sd_BIOSOLVEIT.INFINISEE\_REAGENT3\_SMILES>  (290) 
N(Cc1cc(ccc1)CN)(C)C

>  <s_sd_BIOSOLVEIT.INFINISEE\_SPACE>  (290) 
eXplore_7tr_2022-12

>  <s_vsw_compound_code>  (290) 
73634

>  <s_vsw_variant>  (290) 
73634-1

>  <r_epik_Charging_Adjusted_Penalty>  (290) 
0.097987627613747796

>  <r_epik_Ionization_Penalty>  (290) 
0.049000000000000002

>  <r_epik_Ionization_Penalty_Charging>  (290) 
0.049000000000000002

>  <r_epik_Ionization_Penalty_Neutral>  (290) 
0

>  <r_epik_State_Penalty>  (290) 
0.049000000000000002

>  <r_i_docking_score>  (290) 
-4.8015347346297403

>  <r_i_glide_ecoul>  (290) 
-13.106920242309601

>  <r_i_glide_eff_state_penalty>  (290) 
0.049000000000000002

>  <r_i_glide_einternal>  (290) 
11.4149885177612

>  <r_i_glide_emodel>  (290) 
-58.299537620393302

>  <r_i_glide_energy>  (290) 
-40.061161041259801

>  <r_i_glide_erotb>  (290) 
0.93497750306097305

>  <r_i_glide_esite>  (290) 
-0.19000782168479799

>  <r_i_glide_evdw>  (290) 
-26.954240798950199

>  <r_i_glide_gscore>  (290) 
-4.8505347346297398

>  <r_i_glide_hbond>  (290) 
-0.32255257198711301

>  <r_i_glide_ligand_efficiency>  (290) 
-0.16557016326309401

>  <r_i_glide_ligand_efficiency_ln>  (290) 
-1.09942969781477

>  <r_i_glide_ligand_efficiency_sa>  (290) 
-0.50868399785379503

>  <r_i_glide_lipo>  (290) 
-0.84998633166953097

>  <r_i_glide_metal>  (290) 
-0

>  <r_i_glide_rewards>  (290) 
-1.1092154360553199

>  <r_lp_Energy>  (290) 
40.720495999999997

>  <r_lp_tautomer_probability>  (290) 
0.99999274205267796

>  <r_qp_ACxDN^.5/SA>  (290) 
0.011068700000000001

>  <r_qp_CIQPlogS>  (290) 
-2.9390000000000001

>  <r_qp_EA(eV)>  (290) 
0.312

>  <r_qp_FISA>  (290) 
101.84999999999999

>  <r_qp_FOSA>  (290) 
272.43200000000002

>  <r_qp_IP(eV)>  (290) 
8.1359999999999992

>  <r_qp_Jm>  (290) 
0.0036186793003327102

>  <r_qp_PISA>  (290) 
360.15100000000001

>  <r_qp_PSA>  (290) 
70.537999999999997

>  <r_qp_PercentHumanOralAbsorption>  (290) 
69.045000000000002

>  <r_qp_QPPCaco>  (290) 
16.625

>  <r_qp_QPPMDCK>  (290) 
11.997

>  <r_qp_QPlogBB>  (290) 
-0.28499999999999998

>  <r_qp_QPlogHERG>  (290) 
-9.0190000000000001

>  <r_qp_QPlogKhsa>  (290) 
0.67500000000000004

>  <r_qp_QPlogKp>  (290) 
-5.2930000000000001

>  <r_qp_QPlogPC16>  (290) 
15.019

>  <r_qp_QPlogPo/w>  (290) 
3.4590000000000001

>  <r_qp_QPlogPoct>  (290) 
21.364000000000001

>  <r_qp_QPlogPw>  (290) 
11.351000000000001

>  <r_qp_QPlogS>  (290) 
-2.7599999999999998

>  <r_qp_QPpolrz>  (290) 
45.679000000000002

>  <r_qp_SASA>  (290) 
766.60400000000004

>  <r_qp_SAamideO>  (290) 
0

>  <r_qp_SAfluorine>  (290) 
0

>  <r_qp_WPSA>  (290) 
32.170999999999999

>  <r_qp_accptHB>  (290) 
6

>  <r_qp_dip^2/V>  (290) 
0.012551400000000001

>  <r_qp_dipole>  (290) 
4.1459999999999999

>  <r_qp_donorHB>  (290) 
2

>  <r_qp_glob>  (290) 
0.7780456

>  <r_qp_mol_MW>  (290) 
408.56

>  <r_qp_volume>  (290) 
1369.673

>  <r_sd_BIOSOLVEIT.INFINISEE\_FTREES\_SIMILARITY>  (290) 
0.92300000000000004

>  <r_sd_BIOSOLVEIT.LOGP>  (290) 
1.8934

>  <r_sd_BIOSOLVEIT.MOLECULAR\_WEIGHT>  (290) 
410.58199999999999

>  <r_sd_BIOSOLVEIT.TPSA>  (290) 
64.420000000000002

>  <i_epik_Tot_Q>  (290) 
2

>  <i_epik_Tot_abs_Q>  (290) 
2

>  <i_f3d_flags>  (290) 
0

>  <i_i_glide_confnum>  (290) 
9

>  <i_i_glide_lignum>  (290) 
922

>  <i_i_glide_posenum>  (290) 
12

>  <i_i_glide_rotatable_bonds>  (290) 
10

>  <i_lp_mmshare_version>  (290) 
65135

>  <i_m_ct_format>  (290) 
2

>  <i_m_source_file_index>  (290) 
2302

>  <i_qp_#NandO>  (290) 
5

>  <i_qp_#acid>  (290) 
0

>  <i_qp_#amide>  (290) 
0

>  <i_qp_#amidine>  (290) 
0

>  <i_qp_#amine>  (290) 
3

>  <i_qp_#in34>  (290) 
0

>  <i_qp_#in56>  (290) 
17

>  <i_qp_#metab>  (290) 
8

>  <i_qp_#nonHatm>  (290) 
29

>  <i_qp_#noncon>  (290) 
0

>  <i_qp_#ringatoms>  (290) 
17

>  <i_qp_#rotor>  (290) 
10

>  <i_qp_#rtvFG>  (290) 
0

>  <i_qp_#stars>  (290) 
0

>  <i_qp_CNS>  (290) 
1

>  <i_qp_HumanOralAbsorption>  (290) 
2

>  <i_qp_RuleOfFive>  (290) 
0

>  <i_qp_RuleOfThree>  (290) 
2

>  <i_sd_BIOSOLVEIT.INFINISEE\_RESULT\_RANK>  (290) 
11819

>  <i_sd_version>  (290) 
0

>  <b_lp_Chiralities_Consistent>  (290) 
1

>  <b_sd_chiral_flag>  (290) 
0

>  <canonical_id>  (290) 
ATP-HTVS-2ECA33AB7628

>  <compound_code>  (290) 
73634

>  <title>  (290) 
rxn512b____EMOL530647____EMOL525138____EMOL2873214

>  <variant>  (290) 
73634-1

>  <source_file>  (290) 
运行/运行/ATP-VSW/ATP-VSW-DOCK_HTVS_1-002_lib.maegz

>  <canonical_smiles>  (290) 
C[NH+](C)Cc1cccc(CNc2ccsc2C(=O)N(CC[NH3+])c2ccccc2)c1

>  <scaffold>  (290) 
O=C(Nc1ccccc1)c1sccc1NCc1ccccc1

>  <molecular_formula>  (290) 
C23H30N4OS+2

$$$$
ATP-HTVS-2EE3FF4CB435
     RDKit          3D

 63 65  0  0  0  0  0  0  0  0999 V2000
  196.7704  180.4505  153.2403 Br  0  0  0  0  0  0  0  0  0  0  0  0
  198.4521  180.6714  154.1208 C   0  0  0  0  0  0  0  0  0  0  0  0
  198.8843  181.9665  154.5018 C   0  0  0  0  0  0  0  0  0  0  0  0
  198.0431  183.0331  154.2317 O   0  0  0  0  0  0  0  0  0  0  0  0
  197.9754  184.1338  155.1545 C   0  0  1  0  0  0  0  0  0  0  0  0
  197.5327  183.7287  156.5589 C   0  0  0  0  0  0  0  0  0  0  0  0
  196.6730  182.6261  156.7535 C   0  0  0  0  0  0  0  0  0  0  0  0
  196.2274  182.2785  158.0433 C   0  0  0  0  0  0  0  0  0  0  0  0
  196.6366  183.0387  159.1554 C   0  0  0  0  0  0  0  0  0  0  0  0
  197.4971  184.1405  158.9763 C   0  0  0  0  0  0  0  0  0  0  0  0
  197.9437  184.4820  157.6821 C   0  0  0  0  0  0  0  0  0  0  0  0
  200.1571  182.1207  155.1345 C   0  0  0  0  0  0  0  0  0  0  0  0
  200.6279  183.3729  155.4302 O   0  0  0  0  0  0  0  0  0  0  0  0
  201.8446  183.5072  156.1231 C   0  0  2  0  0  0  0  0  0  0  0  0
  200.9173  180.9662  155.4195 C   0  0  0  0  0  0  0  0  0  0  0  0
  200.4737  179.6823  155.0651 C   0  0  0  0  0  0  0  0  0  0  0  0
  199.2384  179.5323  154.3960 C   0  0  0  0  0  0  0  0  0  0  0  0
  201.3373  178.4909  155.4496 C   0  0  1  0  0  0  0  0  0  0  0  0
  200.7041  177.6766  156.4908 N   0  0  0  0  0  0  0  0  0  0  0  0
  201.3977  176.4169  156.7631 C   0  0  1  0  0  0  0  0  0  0  0  0
  201.5609  175.4632  155.5921 C   0  0  0  0  0  0  0  0  0  0  0  0
  200.9038  175.6835  154.3609 C   0  0  0  0  0  0  0  0  0  0  0  0
  201.1189  174.8310  153.2787 C   0  0  0  0  0  0  0  0  0  0  0  0
  201.8995  173.6679  153.4400 C   0  0  0  0  0  0  0  0  0  0  0  0
  202.5256  173.4098  154.6791 C   0  0  0  0  0  0  0  0  0  0  0  0
  202.3789  174.3226  155.7363 C   0  0  0  0  0  0  0  0  0  0  0  0
  202.0189  172.6957  152.2865 C   0  0  1  0  0  0  0  0  0  0  0  0
  203.3815  172.1395  152.1286 N   0  0  1  0  0  0  0  0  0  0  0  0
  203.4287  171.1486  151.0345 C   0  0  2  0  0  0  0  0  0  0  0  0
  204.4465  173.1639  151.9971 C   0  0  2  0  0  0  0  0  0  0  0  0
  200.6759  178.4437  157.7386 C   0  0  2  0  0  0  0  0  0  0  0  0
  198.8877  184.7225  155.1821 H   0  0  0  0  0  0  0  0  0  0  0  0
  197.2215  184.8279  154.7700 H   0  0  0  0  0  0  0  0  0  0  0  0
  196.3347  182.0368  155.9144 H   0  0  0  0  0  0  0  0  0  0  0  0
  195.5664  181.4311  158.1735 H   0  0  0  0  0  0  0  0  0  0  0  0
  196.2898  182.7732  160.1432 H   0  0  0  0  0  0  0  0  0  0  0  0
  197.8118  184.7245  159.8311 H   0  0  0  0  0  0  0  0  0  0  0  0
  198.6021  185.3280  157.5498 H   0  0  0  0  0  0  0  0  0  0  0  0
  202.0128  184.5586  156.3205 H   0  0  0  0  0  0  0  0  0  0  0  0
  202.6953  183.1491  155.5411 H   0  0  0  0  0  0  0  0  0  0  0  0
  201.8427  182.9994  157.0887 H   0  0  0  0  0  0  0  0  0  0  0  0
  201.8731  181.0151  155.9178 H   0  0  0  0  0  0  0  0  0  0  0  0
  198.8757  178.5552  154.0966 H   0  0  0  0  0  0  0  0  0  0  0  0
  201.5147  177.9485  154.5316 H   0  0  0  0  0  0  0  0  0  0  0  0
  202.3018  178.8415  155.8371 H   0  0  0  0  0  0  0  0  0  0  0  0
  202.3690  176.6281  157.2063 H   0  0  0  0  0  0  0  0  0  0  0  0
  200.8340  175.8864  157.5213 H   0  0  0  0  0  0  0  0  0  0  0  0
  200.2381  176.5331  154.2325 H   0  0  0  0  0  0  0  0  0  0  0  0
  200.6515  175.0459  152.3247 H   0  0  0  0  0  0  0  0  0  0  0  0
  203.1188  172.5135  154.8288 H   0  0  0  0  0  0  0  0  0  0  0  0
  202.8839  174.1300  156.6732 H   0  0  0  0  0  0  0  0  0  0  0  0
  201.3052  171.8913  152.4688 H   0  0  0  0  0  0  0  0  0  0  0  0
  201.7132  173.1874  151.3605 H   0  0  0  0  0  0  0  0  0  0  0  0
  203.2155  171.6177  150.0705 H   0  0  0  0  0  0  0  0  0  0  0  0
  202.6941  170.3586  151.2048 H   0  0  0  0  0  0  0  0  0  0  0  0
  204.4129  170.6805  150.9851 H   0  0  0  0  0  0  0  0  0  0  0  0
  204.2809  173.7941  151.1232 H   0  0  0  0  0  0  0  0  0  0  0  0
  205.4214  172.6871  151.8988 H   0  0  0  0  0  0  0  0  0  0  0  0
  204.5047  173.8146  152.8693 H   0  0  0  0  0  0  0  0  0  0  0  0
  200.2276  177.8919  158.5622 H   0  0  0  0  0  0  0  0  0  0  0  0
  200.1089  179.3685  157.6359 H   0  0  0  0  0  0  0  0  0  0  0  0
  201.6888  178.7139  158.0296 H   0  0  0  0  0  0  0  0  0  0  0  0
  203.5548  171.5999  152.9797 H   0  0  0  0  0  0  0  0  0  0  0  0
  1  2  1  0
  2  3  1  0
  2 17  2  0
  3  4  1  0
  3 12  2  0
  4  5  1  0
  5  6  1  0
  5 32  1  1
  5 33  1  0
  6  7  2  0
  6 11  1  0
  7  8  1  0
  7 34  1  0
  8  9  2  0
  8 35  1  0
  9 10  1  0
  9 36  1  0
 10 11  2  0
 10 37  1  0
 11 38  1  0
 12 13  1  0
 12 15  1  0
 13 14  1  0
 14 39  1  1
 14 40  1  0
 14 41  1  0
 15 16  2  0
 15 42  1  0
 16 17  1  0
 16 18  1  0
 17 43  1  0
 18 19  1  0
 18 44  1  6
 18 45  1  0
 19 20  1  0
 19 31  1  0
 20 21  1  0
 20 46  1  1
 20 47  1  0
 21 22  1  0
 21 26  2  0
 22 23  2  0
 22 48  1  0
 23 24  1  0
 23 49  1  0
 24 25  2  0
 24 27  1  0
 25 26  1  0
 25 50  1  0
 26 51  1  0
 27 28  1  0
 27 52  1  1
 27 53  1  0
 28 29  1  0
 28 30  1  0
 28 63  1  1
 29 54  1  6
 29 55  1  0
 29 56  1  0
 30 57  1  6
 30 58  1  0
 30 59  1  0
 31 60  1  1
 31 61  1  0
 31 62  1  0
M  CHG  1  28   1
M  END
>  <s_epik_cmdline>  (291) 
J2VwaWtfcHl0aG9uJywgJy1waCcsICc3LjAwMDAwMCcsICctcGh0JywgJzIuMDAwMDAwJywgJy1tcycsICcxNicsICctdG4nLCAnOCcsICctbWEnLCAnMjAwJywgJy1pbWFlJywgJzxpbmZpbGUubWFlPicsICctb21hZScsICc8b3V0ZmlsZS5tYWU+Jw==

>  <s_epik_input>  (291) 
W2NIXTFbY0hdW2NIXVtjSF1bY0hdYzFbQ0gyXU9jKGMyQnIpYyhPW0NIM10pW2NIXWMoW2NIXTIpW0NIMl1OKFtDSDNdKVtDSDJdYzNbY0hdW2NIXWMoW2NIXVtjSF0zKVtDSDJdTihbQ0gzXSlbQ0gzXQ==

>  <s_i_glide_gridfile>  (291) 
ATP-Grid

>  <s_lp_Force_Field>  (291) 
OPLS_2005

>  <s_lp_Variant>  (291) 
m_270004bca____10206040____7547162-3

>  <s_lp_label>  (291) 
1539_sdstereoexpander_1_neutralizer_1_epik_2_stereoizer_1

>  <s_m_source_file>  (291) 
ATP-VSW-LIGPREP-003-in.maegz

>  <s_sd_BIOSOLVEIT.INFINISEE\_QUERY\_NAME>  (291) 
Ref-Lig

>  <s_sd_BIOSOLVEIT.INFINISEE\_QUERY\_SMILES>  (291) 
S(c1nc2c(cc1C[NH2+]Cc3ccc(cc3)C[NH+](C)C)cccc2)Cc4ccccc4

>  <s_sd_BIOSOLVEIT.INFINISEE\_REACTION\_NAME>  (291) 
m_270004bca

>  <s_sd_BIOSOLVEIT.INFINISEE\_REAGENT1\_SMILES>  (291) 
[R1*]N(Cc1ccc(cc1)CN(C)C)C

>  <s_sd_BIOSOLVEIT.INFINISEE\_REAGENT2\_SMILES>  (291) 
[R1*]Cc1cc(Br)c(OCc2ccccc2)c(OC)c1

>  <s_sd_BIOSOLVEIT.INFINISEE\_SPACE>  (291) 
REALSpace_44bn_2023-08

>  <s_vsw_compound_code>  (291) 
49219

>  <s_vsw_variant>  (291) 
49219-3

>  <r_epik_Charging_Adjusted_Penalty>  (291) 
0.90452455496861806

>  <r_epik_Ionization_Penalty>  (291) 
0.87280000000000002

>  <r_epik_Ionization_Penalty_Charging>  (291) 
0.045400000000000003

>  <r_epik_Ionization_Penalty_Neutral>  (291) 
0.82740000000000002

>  <r_epik_State_Penalty>  (291) 
0.85909999999999997

>  <r_i_docking_score>  (291) 
-2.7775950253319301

>  <r_i_glide_ecoul>  (291) 
-7.4042687416076696

>  <r_i_glide_eff_state_penalty>  (291) 
0.85909999999999997

>  <r_i_glide_einternal>  (291) 
4.5578455924987802

>  <r_i_glide_emodel>  (291) 
-47.877737952816098

>  <r_i_glide_energy>  (291) 
-39.003426074981697

>  <r_i_glide_erotb>  (291) 
0.69224884573061896

>  <r_i_glide_esite>  (291) 
-0.087738039309202598

>  <r_i_glide_evdw>  (291) 
-31.599157333373999

>  <r_i_glide_gscore>  (291) 
-3.6366950253319299

>  <r_i_glide_hbond>  (291) 
-0.20000000000000001

>  <r_i_glide_ligand_efficiency>  (291) 
-0.089599839526836297

>  <r_i_glide_ligand_efficiency_ln>  (291) 
-0.62643280127698198

>  <r_i_glide_ligand_efficiency_sa>  (291) 
-0.28146720202479197

>  <r_i_glide_lipo>  (291) 
-1.0195745629344

>  <r_i_glide_metal>  (291) 
-0

>  <r_i_glide_rewards>  (291) 
-0.33103309090909

>  <r_lp_Energy>  (291) 
28.99091

>  <r_lp_tautomer_probability>  (291) 
1

>  <r_qp_ACxDN^.5/SA>  (291) 
0

>  <r_qp_CIQPlogS>  (291) 
-5.7709999999999999

>  <r_qp_EA(eV)>  (291) 
0.129

>  <r_qp_FISA>  (291) 
4.1890000000000001

>  <r_qp_FOSA>  (291) 
350.649

>  <r_qp_IP(eV)>  (291) 
8.8439999999999994

>  <r_qp_Jm>  (291) 
1.41570651685976

>  <r_qp_PISA>  (291) 
236.33199999999999

>  <r_qp_PSA>  (291) 
21.617999999999999

>  <r_qp_PercentHumanOralAbsorption>  (291) 
100

>  <r_qp_QPPCaco>  (291) 
562.30999999999995

>  <r_qp_QPPMDCK>  (291) 
599.33900000000006

>  <r_qp_QPlogBB>  (291) 
0.84299999999999997

>  <r_qp_QPlogHERG>  (291) 
-5.5469999999999997

>  <r_qp_QPlogKhsa>  (291) 
0.56399999999999995

>  <r_qp_QPlogKp>  (291) 
-3.9289999999999998

>  <r_qp_QPlogPC16>  (291) 
12.569000000000001

>  <r_qp_QPlogPo/w>  (291) 
4.6289999999999996

>  <r_qp_QPlogPoct>  (291) 
17.021999999999998

>  <r_qp_QPlogPw>  (291) 
6.1230000000000002

>  <r_qp_QPlogS>  (291) 
-1.6040000000000001

>  <r_qp_QPpolrz>  (291) 
42.642000000000003

>  <r_qp_SASA>  (291) 
639.69299999999998

>  <r_qp_SAamideO>  (291) 
0

>  <r_qp_SAfluorine>  (291) 
0

>  <r_qp_WPSA>  (291) 
48.523000000000003

>  <r_qp_accptHB>  (291) 
5.5

>  <r_qp_dip^2/V>  (291) 
0.010592499999999999

>  <r_qp_dipole>  (291) 
3.7440000000000002

>  <r_qp_donorHB>  (291) 
0

>  <r_qp_glob>  (291) 
0.91126110000000005

>  <r_qp_mol_MW>  (291) 
483.447

>  <r_qp_volume>  (291) 
1323.3489999999999

>  <r_sd_BIOSOLVEIT.INFINISEE\_FTREES\_SIMILARITY>  (291) 
0.90700000000000003

>  <r_sd_BIOSOLVEIT.LOGP>  (291) 
2.8961000000000001

>  <r_sd_BIOSOLVEIT.MOLECULAR\_WEIGHT>  (291) 
485.46300000000002

>  <r_sd_BIOSOLVEIT.TPSA>  (291) 
27.34

>  <i_epik_Tot_Q>  (291) 
1

>  <i_epik_Tot_abs_Q>  (291) 
1

>  <i_f3d_flags>  (291) 
0

>  <i_i_glide_confnum>  (291) 
11

>  <i_i_glide_lignum>  (291) 
586

>  <i_i_glide_posenum>  (291) 
17

>  <i_i_glide_rotatable_bonds>  (291) 
10

>  <i_lp_mmshare_version>  (291) 
65135

>  <i_m_ct_format>  (291) 
2

>  <i_m_source_file_index>  (291) 
1539

>  <i_qp_#NandO>  (291) 
4

>  <i_qp_#acid>  (291) 
0

>  <i_qp_#amide>  (291) 
0

>  <i_qp_#amidine>  (291) 
0

>  <i_qp_#amine>  (291) 
2

>  <i_qp_#in34>  (291) 
0

>  <i_qp_#in56>  (291) 
18

>  <i_qp_#metab>  (291) 
8

>  <i_qp_#nonHatm>  (291) 
31

>  <i_qp_#noncon>  (291) 
0

>  <i_qp_#ringatoms>  (291) 
18

>  <i_qp_#rotor>  (291) 
10

>  <i_qp_#rtvFG>  (291) 
0

>  <i_qp_#stars>  (291) 
1

>  <i_qp_CNS>  (291) 
2

>  <i_qp_HumanOralAbsorption>  (291) 
3

>  <i_qp_RuleOfFive>  (291) 
0

>  <i_qp_RuleOfThree>  (291) 
1

>  <i_sd_BIOSOLVEIT.INFINISEE\_REAGENT1\_NAME>  (291) 
10206040

>  <i_sd_BIOSOLVEIT.INFINISEE\_REAGENT2\_NAME>  (291) 
7547162

>  <i_sd_BIOSOLVEIT.INFINISEE\_RESULT\_RANK>  (291) 
61704

>  <i_sd_version>  (291) 
0

>  <b_lp_Chiralities_Consistent>  (291) 
1

>  <b_sd_chiral_flag>  (291) 
0

>  <canonical_id>  (291) 
ATP-HTVS-2EE3FF4CB435

>  <compound_code>  (291) 
49219

>  <title>  (291) 
m_270004bca____10206040____7547162

>  <variant>  (291) 
49219-3

>  <source_file>  (291) 
运行/运行/ATP-VSW/ATP-VSW-DOCK_HTVS_1-003_lib/ATP-VSW-DOCK_HTVS_1-003_lib.mae

>  <canonical_smiles>  (291) 
COc1cc(CN(C)Cc2ccc(C[NH+](C)C)cc2)cc(Br)c1OCc1ccccc1

>  <scaffold>  (291) 
c1ccc(CNCc2ccc(OCc3ccccc3)cc2)cc1

>  <molecular_formula>  (291) 
C26H32BrN2O2+

$$$$
ATP-HTVS-2F35A8572662
     RDKit          3D

 58 60  0  0  0  0  0  0  0  0999 V2000
  197.7678  178.8269  151.3646 O   0  0  0  0  0  0  0  0  0  0  0  0
  197.9532  178.1536  150.1744 C   0  0  0  0  0  0  0  0  0  0  0  0
  198.6804  176.9449  150.2341 C   0  0  0  0  0  0  0  0  0  0  0  0
  199.1286  176.5515  151.4728 O   0  0  0  0  0  0  0  0  0  0  0  0
  199.7350  175.2878  151.5938 C   0  0  2  0  0  0  0  0  0  0  0  0
  198.9081  176.1955  149.0530 C   0  0  0  0  0  0  0  0  0  0  0  0
  198.4232  176.6598  147.8203 C   0  0  0  0  0  0  0  0  0  0  0  0
  197.6944  177.8577  147.7573 C   0  0  0  0  0  0  0  0  0  0  0  0
  197.4495  178.6041  148.9256 C   0  0  0  0  0  0  0  0  0  0  0  0
  196.9452  179.9836  151.3862 C   0  0  1  0  0  0  0  0  0  0  0  0
  197.1217  180.6463  152.7137 C   0  0  0  0  0  0  0  0  0  0  0  0
  198.1357  180.2121  153.5136 O   0  0  0  0  0  0  0  0  0  0  0  0
  198.1248  180.9938  154.6307 C   0  0  0  0  0  0  0  0  0  0  0  0
  197.1178  181.9093  154.5589 C   0  0  0  0  0  0  0  0  0  0  0  0
  196.4770  181.6951  153.3107 C   0  0  0  0  0  0  0  0  0  0  0  0
  199.1806  180.7065  155.6306 C   0  0  1  0  0  0  0  0  0  0  0  0
  198.7867  179.6022  156.5298 N   0  0  1  0  0  0  0  0  0  0  0  0
  199.9238  178.9694  157.2311 C   0  0  1  0  0  0  0  0  0  0  0  0
  200.6238  177.9933  156.2987 C   0  0  0  0  0  0  0  0  0  0  0  0
  200.1030  176.6890  156.1514 C   0  0  0  0  0  0  0  0  0  0  0  0
  200.7404  175.7667  155.2863 C   0  0  0  0  0  0  0  0  0  0  0  0
  201.9027  176.1102  154.5892 C   0  0  0  0  0  0  0  0  0  0  0  0
  202.4141  177.4274  154.7213 C   0  0  0  0  0  0  0  0  0  0  0  0
  201.7751  178.3563  155.5722 C   0  0  0  0  0  0  0  0  0  0  0  0
  202.6073  175.0728  153.7176 C   0  0  1  0  0  0  0  0  0  0  0  0
  203.4736  174.1214  154.4672 N   0  0  1  0  0  0  0  0  0  0  0  0
  202.8003  173.4271  155.5918 C   0  0  2  0  0  0  0  0  0  0  0  0
  204.0880  173.1375  153.5537 C   0  0  2  0  0  0  0  0  0  0  0  0
  198.1177  179.9316  157.2163 H   0  0  0  0  0  0  0  0  0  0  0  0
  199.9186  175.1444  152.6512 H   0  0  0  0  0  0  0  0  0  0  0  0
  200.6875  175.2526  151.0728 H   0  0  0  0  0  0  0  0  0  0  0  0
  199.0995  174.4770  151.2482 H   0  0  0  0  0  0  0  0  0  0  0  0
  199.4565  175.2673  149.0670 H   0  0  0  0  0  0  0  0  0  0  0  0
  198.6069  176.0806  146.9312 H   0  0  0  0  0  0  0  0  0  0  0  0
  197.3217  178.2057  146.8068 H   0  0  0  0  0  0  0  0  0  0  0  0
  196.8769  179.5140  148.8304 H   0  0  0  0  0  0  0  0  0  0  0  0
  197.2280  180.7009  150.6176 H   0  0  0  0  0  0  0  0  0  0  0  0
  195.9029  179.7031  151.2347 H   0  0  0  0  0  0  0  0  0  0  0  0
  196.8713  182.6553  155.3002 H   0  0  0  0  0  0  0  0  0  0  0  0
  195.6401  182.2364  152.8985 H   0  0  0  0  0  0  0  0  0  0  0  0
  200.0928  180.4645  155.0876 H   0  0  0  0  0  0  0  0  0  0  0  0
  199.4052  181.5952  156.2215 H   0  0  0  0  0  0  0  0  0  0  0  0
  200.6259  179.7167  157.5986 H   0  0  0  0  0  0  0  0  0  0  0  0
  199.5525  178.4253  158.1015 H   0  0  0  0  0  0  0  0  0  0  0  0
  199.2279  176.3957  156.7076 H   0  0  0  0  0  0  0  0  0  0  0  0
  200.3481  174.7718  155.1980 H   0  0  0  0  0  0  0  0  0  0  0  0
  203.3107  177.7278  154.2029 H   0  0  0  0  0  0  0  0  0  0  0  0
  202.2007  179.3372  155.7056 H   0  0  0  0  0  0  0  0  0  0  0  0
  201.8878  174.4686  153.1517 H   0  0  0  0  0  0  0  0  0  0  0  0
  203.2060  175.6009  152.9676 H   0  0  0  0  0  0  0  0  0  0  0  0
  201.9420  172.8720  155.2200 H   0  0  0  0  0  0  0  0  0  0  0  0
  202.4657  174.1106  156.3690 H   0  0  0  0  0  0  0  0  0  0  0  0
  203.4601  172.7062  156.0741 H   0  0  0  0  0  0  0  0  0  0  0  0
  203.3276  172.5424  153.0407 H   0  0  0  0  0  0  0  0  0  0  0  0
  204.7254  172.4432  154.1012 H   0  0  0  0  0  0  0  0  0  0  0  0
  204.6919  173.6295  152.7900 H   0  0  0  0  0  0  0  0  0  0  0  0
  198.3148  178.8800  156.0174 H   0  0  0  0  0  0  0  0  0  0  0  0
  204.2196  174.6700  154.8719 H   0  0  0  0  0  0  0  0  0  0  0  0
  1  2  1  0
  1 10  1  0
  2  3  1  0
  2  9  2  0
  3  4  1  0
  3  6  2  0
  4  5  1  0
  5 30  1  1
  5 31  1  0
  5 32  1  0
  6  7  1  0
  6 33  1  0
  7  8  2  0
  7 34  1  0
  8  9  1  0
  8 35  1  0
  9 36  1  0
 10 11  1  0
 10 37  1  6
 10 38  1  0
 11 12  1  0
 11 15  2  0
 12 13  1  0
 13 14  2  0
 13 16  1  0
 14 15  1  0
 14 39  1  0
 15 40  1  0
 16 17  1  0
 16 41  1  6
 16 42  1  0
 17 18  1  0
 17 29  1  1
 17 57  1  0
 18 19  1  0
 18 43  1  1
 18 44  1  0
 19 20  1  0
 19 24  2  0
 20 21  2  0
 20 45  1  0
 21 22  1  0
 21 46  1  0
 22 23  2  0
 22 25  1  0
 23 24  1  0
 23 47  1  0
 24 48  1  0
 25 26  1  0
 25 49  1  6
 25 50  1  0
 26 27  1  0
 26 28  1  0
 26 58  1  1
 27 51  1  6
 27 52  1  0
 27 53  1  0
 28 54  1  6
 28 55  1  0
 28 56  1  0
M  CHG  2  17   1  26   1
M  END
>  <s_epik_cmdline>  (292) 
J2VwaWtfcHl0aG9uJywgJy1waCcsICc3LjAwMDAwMCcsICctcGh0JywgJzIuMDAwMDAwJywgJy1tcycsICcxNicsICctdG4nLCAnOCcsICctbWEnLCAnMjAwJywgJy1pbWFlJywgJzxpbmZpbGUubWFlPicsICctb21hZScsICc8b3V0ZmlsZS5tYWU+Jw==

>  <s_epik_input>  (292) 
W2NIXTFbY0hdW2NIXVtjSF1jKE9bQ0gzXSljMU9bQ0gyXWMyb2MoW2NIXVtjSF0yKVtDSDJdW05IXVtDSDJdYzNbY0hdW2NIXWMoW2NIXVtjSF0zKVtDSDJdTihbQ0gzXSlbQ0gzXQ==

>  <s_i_glide_gridfile>  (292) 
ATP-Grid

>  <s_lp_Force_Field>  (292) 
OPLS_2005

>  <s_lp_Variant>  (292) 
m_270004bbb____8288884____24720270-1

>  <s_lp_label>  (292) 
734_sdstereoexpander_1_neutralizer_1_epik_1_stereoizer_1

>  <s_m_source_file>  (292) 
ATP-VSW-LIGPREP-003-in.maegz

>  <s_sd_BIOSOLVEIT.INFINISEE\_QUERY\_NAME>  (292) 
Ref-Lig

>  <s_sd_BIOSOLVEIT.INFINISEE\_QUERY\_SMILES>  (292) 
S(c1nc2c(cc1C[NH2+]Cc3ccc(cc3)C[NH+](C)C)cccc2)Cc4ccccc4

>  <s_sd_BIOSOLVEIT.INFINISEE\_REACTION\_NAME>  (292) 
m_270004bbb

>  <s_sd_BIOSOLVEIT.INFINISEE\_REAGENT1\_SMILES>  (292) 
[R1*]NCc1ccc(cc1)CN(C)C

>  <s_sd_BIOSOLVEIT.INFINISEE\_REAGENT2\_SMILES>  (292) 
[R1*]CC=1OC(=CC1)COc2c(OC)cccc2

>  <s_sd_BIOSOLVEIT.INFINISEE\_SPACE>  (292) 
REALSpace_44bn_2023-08

>  <s_vsw_compound_code>  (292) 
23459

>  <s_vsw_variant>  (292) 
23459-1

>  <r_epik_Charging_Adjusted_Penalty>  (292) 
0.177084470513138

>  <r_epik_Ionization_Penalty>  (292) 
0.088999999999999996

>  <r_epik_Ionization_Penalty_Charging>  (292) 
0.088999999999999996

>  <r_epik_Ionization_Penalty_Neutral>  (292) 
0

>  <r_epik_State_Penalty>  (292) 
0.088099999999999998

>  <r_i_docking_score>  (292) 
-4.0706231986660004

>  <r_i_glide_ecoul>  (292) 
-9.5888195037841797

>  <r_i_glide_eff_state_penalty>  (292) 
0.088099999999999998

>  <r_i_glide_einternal>  (292) 
2.7369906902313201

>  <r_i_glide_emodel>  (292) 
-53.084781194599699

>  <r_i_glide_energy>  (292) 
-38.192958831787102

>  <r_i_glide_erotb>  (292) 
1.0620272489378499

>  <r_i_glide_esite>  (292) 
-0.110383632044997

>  <r_i_glide_evdw>  (292) 
-28.604139328002901

>  <r_i_glide_gscore>  (292) 
-4.1587231986660003

>  <r_i_glide_hbond>  (292) 
0

>  <r_i_glide_ligand_efficiency>  (292) 
-0.14537939995235699

>  <r_i_glide_ligand_efficiency_ln>  (292) 
-0.93961935294263799

>  <r_i_glide_ligand_efficiency_sa>  (292) 
-0.44145748214288699

>  <r_i_glide_lipo>  (292) 
-1.44067260540927

>  <r_i_glide_metal>  (292) 
-0

>  <r_i_glide_rewards>  (292) 
-0.80116431818181699

>  <r_lp_Energy>  (292) 
19.227419000000001

>  <r_lp_tautomer_probability>  (292) 
1

>  <r_qp_ACxDN^.5/SA>  (292) 
0.0071133000000000004

>  <r_qp_CIQPlogS>  (292) 
-3.6739999999999999

>  <r_qp_EA(eV)>  (292) 
-0.158

>  <r_qp_FISA>  (292) 
20.149000000000001

>  <r_qp_FOSA>  (292) 
385.46899999999999

>  <r_qp_IP(eV)>  (292) 
8.7490000000000006

>  <r_qp_Jm>  (292) 
0.0038668010344007999

>  <r_qp_PISA>  (292) 
367.57799999999997

>  <r_qp_PSA>  (292) 
41.881

>  <r_qp_PercentHumanOralAbsorption>  (292) 
100

>  <r_qp_QPPCaco>  (292) 
396.851

>  <r_qp_QPPMDCK>  (292) 
222.98400000000001

>  <r_qp_QPlogBB>  (292) 
0.52600000000000002

>  <r_qp_QPlogHERG>  (292) 
-8.6029999999999998

>  <r_qp_QPlogKhsa>  (292) 
0.74299999999999999

>  <r_qp_QPlogKp>  (292) 
-3.7610000000000001

>  <r_qp_QPlogPC16>  (292) 
13.869

>  <r_qp_QPlogPo/w>  (292) 
4.6260000000000003

>  <r_qp_QPlogPoct>  (292) 
18.510999999999999

>  <r_qp_QPlogPw>  (292) 
8.8930000000000007

>  <r_qp_QPlogS>  (292) 
-4.2320000000000002

>  <r_qp_QPpolrz>  (292) 
44.652999999999999

>  <r_qp_SASA>  (292) 
773.19600000000003

>  <r_qp_SAamideO>  (292) 
0

>  <r_qp_SAfluorine>  (292) 
0

>  <r_qp_WPSA>  (292) 
0

>  <r_qp_accptHB>  (292) 
5.5

>  <r_qp_dip^2/V>  (292) 
0.0034505

>  <r_qp_dipole>  (292) 
2.1520000000000001

>  <r_qp_donorHB>  (292) 
1

>  <r_qp_glob>  (292) 
0.76109249999999995

>  <r_qp_mol_MW>  (292) 
380.48599999999999

>  <r_qp_volume>  (292) 
1342.279

>  <r_sd_BIOSOLVEIT.INFINISEE\_FTREES\_SIMILARITY>  (292) 
0.92700000000000005

>  <r_sd_BIOSOLVEIT.LOGP>  (292) 
1.7753000000000001

>  <r_sd_BIOSOLVEIT.MOLECULAR\_WEIGHT>  (292) 
382.50099999999998

>  <r_sd_BIOSOLVEIT.TPSA>  (292) 
52.649999999999999

>  <i_epik_Tot_Q>  (292) 
2

>  <i_epik_Tot_abs_Q>  (292) 
2

>  <i_f3d_flags>  (292) 
0

>  <i_i_glide_confnum>  (292) 
7

>  <i_i_glide_lignum>  (292) 
312

>  <i_i_glide_posenum>  (292) 
20

>  <i_i_glide_rotatable_bonds>  (292) 
10

>  <i_lp_mmshare_version>  (292) 
65135

>  <i_m_ct_format>  (292) 
2

>  <i_m_source_file_index>  (292) 
734

>  <i_qp_#NandO>  (292) 
5

>  <i_qp_#acid>  (292) 
0

>  <i_qp_#amide>  (292) 
0

>  <i_qp_#amidine>  (292) 
0

>  <i_qp_#amine>  (292) 
2

>  <i_qp_#in34>  (292) 
0

>  <i_qp_#in56>  (292) 
17

>  <i_qp_#metab>  (292) 
9

>  <i_qp_#nonHatm>  (292) 
28

>  <i_qp_#noncon>  (292) 
0

>  <i_qp_#ringatoms>  (292) 
17

>  <i_qp_#rotor>  (292) 
10

>  <i_qp_#rtvFG>  (292) 
0

>  <i_qp_#stars>  (292) 
1

>  <i_qp_CNS>  (292) 
2

>  <i_qp_HumanOralAbsorption>  (292) 
3

>  <i_qp_RuleOfFive>  (292) 
0

>  <i_qp_RuleOfThree>  (292) 
1

>  <i_sd_BIOSOLVEIT.INFINISEE\_REAGENT1\_NAME>  (292) 
8288884

>  <i_sd_BIOSOLVEIT.INFINISEE\_REAGENT2\_NAME>  (292) 
24720270

>  <i_sd_BIOSOLVEIT.INFINISEE\_RESULT\_RANK>  (292) 
6670

>  <i_sd_version>  (292) 
0

>  <b_lp_Chiralities_Consistent>  (292) 
1

>  <b_sd_chiral_flag>  (292) 
0

>  <canonical_id>  (292) 
ATP-HTVS-2F35A8572662

>  <compound_code>  (292) 
23459

>  <title>  (292) 
m_270004bbb____8288884____24720270

>  <variant>  (292) 
23459-1

>  <source_file>  (292) 
运行/运行/ATP-VSW/ATP-VSW-DOCK_HTVS_1-003_lib/ATP-VSW-DOCK_HTVS_1-003_lib.mae

>  <canonical_smiles>  (292) 
COc1ccccc1OCc1ccc(C[NH2+]Cc2ccc(C[NH+](C)C)cc2)o1

>  <scaffold>  (292) 
c1ccc(C[NH2+]Cc2ccc(COc3ccccc3)o2)cc1

>  <molecular_formula>  (292) 
C23H30N2O3+2

$$$$
ATP-HTVS-2F483D9FE7EF
     RDKit          3D

 63 66  0  0  0  0  0  0  0  0999 V2000
  199.5159  181.8217  153.3298 O   0  0  0  0  0  0  0  0  0  0  0  0
  198.3511  181.8350  153.6714 C   0  0  0  0  0  0  0  0  0  0  0  0
  197.3600  181.1675  153.0272 N   0  0  0  0  0  0  0  0  0  0  0  0
  197.4755  180.3132  151.9175 C   0  0  0  0  0  0  0  0  0  0  0  0
  196.3537  180.2627  151.0626 C   0  0  0  0  0  0  0  0  0  0  0  0
  196.3718  179.4371  149.9305 C   0  0  0  0  0  0  0  0  0  0  0  0
  197.5001  178.6418  149.6543 C   0  0  0  0  0  0  0  0  0  0  0  0
  198.6123  178.6674  150.5195 C   0  0  0  0  0  0  0  0  0  0  0  0
  198.6017  179.5004  151.6523 C   0  0  0  0  0  0  0  0  0  0  0  0
  197.8086  182.5735  154.7948 C   0  0  0  0  0  0  0  0  0  0  0  0
  197.2158  181.9093  155.9384 C   0  0  0  0  0  0  0  0  0  0  0  0
  197.1425  180.6146  156.1478 N   0  0  0  0  0  0  0  0  0  0  0  0
  197.9696  179.4734  155.7013 C   0  0  1  0  0  0  0  0  0  0  0  0
  199.2478  179.2083  156.5588 C   0  0  1  0  0  0  0  0  0  0  0  0
  199.5607  177.7462  156.5199 N   0  0  1  0  0  0  0  0  0  0  0  0
  199.8545  177.1321  155.1798 C   0  0  2  0  0  0  0  0  0  0  0  0
  200.5224  177.3396  157.5982 C   0  0  2  0  0  0  0  0  0  0  0  0
  200.4509  180.1387  156.2649 C   0  0  0  0  0  0  0  0  0  0  0  0
  200.3365  181.5573  156.5269 C   0  0  0  0  0  0  0  0  0  0  0  0
  201.3482  182.4434  156.1225 C   0  0  0  0  0  0  0  0  0  0  0  0
  202.5599  181.9773  155.5726 C   0  0  0  0  0  0  0  0  0  0  0  0
  203.5766  182.8101  155.2581 O   0  0  0  0  0  0  0  0  0  0  0  0
  202.7207  180.5689  155.4093 C   0  0  0  0  0  0  0  0  0  0  0  0
  201.7065  179.6856  155.7457 C   0  0  0  0  0  0  0  0  0  0  0  0
  196.7021  182.7788  157.0359 C   0  0  0  0  0  0  0  0  0  0  0  0
  196.8964  184.1836  156.9557 C   0  0  0  0  0  0  0  0  0  0  0  0
  197.5367  184.7245  155.8325 N   0  0  0  0  0  0  0  0  0  0  0  0
  197.9550  183.9384  154.7795 C   0  0  0  0  0  0  0  0  0  0  0  0
  198.5905  184.7394  153.6499 C   0  0  2  0  0  0  0  0  0  0  0  0
  196.4667  185.0438  157.9913 C   0  0  0  0  0  0  0  0  0  0  0  0
  195.8399  184.5166  159.1291 C   0  0  0  0  0  0  0  0  0  0  0  0
  195.6889  183.1242  159.2409 C   0  0  0  0  0  0  0  0  0  0  0  0
  196.1171  182.2584  158.2189 C   0  0  0  0  0  0  0  0  0  0  0  0
  196.4500  181.3468  153.4006 H   0  0  0  0  0  0  0  0  0  0  0  0
  195.4965  180.8753  151.2902 H   0  0  0  0  0  0  0  0  0  0  0  0
  195.5199  179.4298  149.2696 H   0  0  0  0  0  0  0  0  0  0  0  0
  197.5124  178.0184  148.7752 H   0  0  0  0  0  0  0  0  0  0  0  0
  199.4719  178.0497  150.3092 H   0  0  0  0  0  0  0  0  0  0  0  0
  199.4586  179.4949  152.3161 H   0  0  0  0  0  0  0  0  0  0  0  0
  197.2579  178.6349  155.7574 H   0  0  0  0  0  0  0  0  0  0  0  0
  198.2453  179.5409  154.6564 H   0  0  0  0  0  0  0  0  0  0  0  0
  198.9603  179.4232  157.5837 H   0  0  0  0  0  0  0  0  0  0  0  0
  200.7558  177.4479  154.6763 H   0  0  0  0  0  0  0  0  0  0  0  0
  199.0531  177.3586  154.4732 H   0  0  0  0  0  0  0  0  0  0  0  0
  199.9007  176.0387  155.2701 H   0  0  0  0  0  0  0  0  0  0  0  0
  201.5257  177.7465  157.4947 H   0  0  0  0  0  0  0  0  0  0  0  0
  200.6358  176.2572  157.6401 H   0  0  0  0  0  0  0  0  0  0  0  0
  200.1642  177.6865  158.5692 H   0  0  0  0  0  0  0  0  0  0  0  0
  199.4789  181.9695  157.0322 H   0  0  0  0  0  0  0  0  0  0  0  0
  201.1952  183.5110  156.2562 H   0  0  0  0  0  0  0  0  0  0  0  0
  204.3246  182.3139  154.9708 H   0  0  0  0  0  0  0  0  0  0  0  0
  203.6535  180.1535  155.0482 H   0  0  0  0  0  0  0  0  0  0  0  0
  201.9695  178.6298  155.6239 H   0  0  0  0  0  0  0  0  0  0  0  0
  198.1078  184.4829  152.7086 H   0  0  0  0  0  0  0  0  0  0  0  0
  199.6610  184.5287  153.5521 H   0  0  0  0  0  0  0  0  0  0  0  0
  198.4693  185.8159  153.7943 H   0  0  0  0  0  0  0  0  0  0  0  0
  196.5784  186.1136  157.8966 H   0  0  0  0  0  0  0  0  0  0  0  0
  195.4537  185.1718  159.8992 H   0  0  0  0  0  0  0  0  0  0  0  0
  195.2157  182.7047  160.1114 H   0  0  0  0  0  0  0  0  0  0  0  0
  196.0130  181.2026  158.4077 H   0  0  0  0  0  0  0  0  0  0  0  0
  197.6206  185.7286  155.7597 H   0  0  0  0  0  0  0  0  0  0  0  0
  198.6910  177.3590  156.8586 H   0  0  0  0  0  0  0  0  0  0  0  0
  196.4993  180.3012  156.9115 H   0  0  0  0  0  0  0  0  0  0  0  0
  1  2  2  0
  2  3  1  0
  2 10  1  0
  3  4  1  0
  3 34  1  0
  4  5  2  0
  4  9  1  0
  5  6  1  0
  5 35  1  0
  6  7  2  0
  6 36  1  0
  7  8  1  0
  7 37  1  0
  8  9  2  0
  8 38  1  0
  9 39  1  0
 10 11  1  0
 10 28  2  0
 11 12  2  0
 11 25  1  0
 12 13  1  0
 12 63  1  0
 13 14  1  0
 13 40  1  6
 13 41  1  0
 14 15  1  0
 14 18  1  0
 14 42  1  1
 15 16  1  0
 15 17  1  0
 15 62  1  1
 16 43  1  6
 16 44  1  0
 16 45  1  0
 17 46  1  6
 17 47  1  0
 17 48  1  0
 18 19  1  0
 18 24  2  0
 19 20  2  0
 19 49  1  0
 20 21  1  0
 20 50  1  0
 21 22  1  0
 21 23  2  0
 22 51  1  0
 23 24  1  0
 23 52  1  0
 24 53  1  0
 25 26  1  0
 25 33  2  0
 26 27  1  0
 26 30  2  0
 27 28  1  0
 27 61  1  0
 28 29  1  0
 29 54  1  6
 29 55  1  0
 29 56  1  0
 30 31  1  0
 30 57  1  0
 31 32  2  0
 31 58  1  0
 32 33  1  0
 32 59  1  0
 33 60  1  0
M  CHG  2  12   1  15   1
M  END
>  <s_epik_Chemistry_Notes>  (293) 
This compound has an imine and may undergo hydrolysis.

>  <s_epik_cmdline>  (293) 
J2VwaWtfcHl0aG9uJywgJy1waCcsICc3LjAwMDAwMCcsICctcGh0JywgJzIuMDAwMDAwJywgJy1tcycsICcxNicsICctdG4nLCAnOCcsICctbWEnLCAnMjAwJywgJy1pbWFlJywgJzxpbmZpbGUubWFlPicsICctb21hZScsICc8b3V0ZmlsZS5tYWU+Jw==

>  <s_epik_input>  (293) 
W2NIXTFbY0hdW2NIXVtjSF1bY0hdYzFbTkhdQyg9TyljKGMoW0NIM10pbmMoYzIzKVtjSF1bY0hdW2NIXVtjSF0zKWMyW05IXVtDSDJdW0NAQEhdKE4oW0NIM10pW0NIM10pYzRbY0hdW2NIXWMoW09IXSlbY0hdW2NIXTQ=

>  <s_i_glide_gridfile>  (293) 
ATP-Grid

>  <s_lp_Force_Field>  (293) 
OPLS_2005

>  <s_lp_Variant>  (293) 
YAS_R005____OTV5753507____OTV2848234____OTV1000393-4

>  <s_lp_label>  (293) 
124_sdstereoexpander_2_neutralizer_1_epik_2_stereoizer_1

>  <s_m_source_file>  (293) 
ATP-VSW-LIGPREP-001-in.maegz

>  <s_sd_BIOSOLVEIT.INFINISEE\_QUERY\_NAME>  (293) 
Ref-Lig

>  <s_sd_BIOSOLVEIT.INFINISEE\_QUERY\_SMILES>  (293) 
S(c1nc2c(cc1C[NH2+]Cc3ccc(cc3)C[NH+](C)C)cccc2)Cc4ccccc4

>  <s_sd_BIOSOLVEIT.INFINISEE\_REACTION\_NAME>  (293) 
YAS_R005

>  <s_sd_BIOSOLVEIT.INFINISEE\_REAGENT1\_NAME>  (293) 
OTV5753507

>  <s_sd_BIOSOLVEIT.INFINISEE\_REAGENT1\_SMILES>  (293) 
Nc1ccccc1

>  <s_sd_BIOSOLVEIT.INFINISEE\_REAGENT2\_NAME>  (293) 
OTV2848234

>  <s_sd_BIOSOLVEIT.INFINISEE\_REAGENT2\_SMILES>  (293) 
O=C(Nc1ccccc1)CC(=O)C

>  <s_sd_BIOSOLVEIT.INFINISEE\_REAGENT3\_NAME>  (293) 
OTV1000393

>  <s_sd_BIOSOLVEIT.INFINISEE\_REAGENT3\_SMILES>  (293) 
Oc1ccc(cc1)C(N(C)C)CN

>  <s_sd_BIOSOLVEIT.INFINISEE\_SPACE>  (293) 
CHEMriya_12bn_2022-01

>  <s_vsw_compound_code>  (293) 
3937

>  <s_vsw_variant>  (293) 
3937-4

>  <r_epik_Charging_Adjusted_Penalty>  (293) 
0.67529605579258201

>  <r_epik_Ionization_Penalty>  (293) 
0.3125

>  <r_epik_Ionization_Penalty_Charging>  (293) 
0.082100000000000006

>  <r_epik_Ionization_Penalty_Neutral>  (293) 
0.23039999999999999

>  <r_epik_State_Penalty>  (293) 
0.59319999999999995

>  <r_i_docking_score>  (293) 
-5.1820898165072702

>  <r_i_glide_ecoul>  (293) 
-18.932519912719702

>  <r_i_glide_eff_state_penalty>  (293) 
0.59319999999999995

>  <r_i_glide_einternal>  (293) 
12.261227607727101

>  <r_i_glide_emodel>  (293) 
-72.730995913319006

>  <r_i_glide_energy>  (293) 
-48.831039428710902

>  <r_i_glide_erotb>  (293) 
0.61222408520305205

>  <r_i_glide_esite>  (293) 
-0.204762395815933

>  <r_i_glide_evdw>  (293) 
-29.8985195159912

>  <r_i_glide_gscore>  (293) 
-5.7752898165072697

>  <r_i_glide_hbond>  (293) 
-0.35414551468664102

>  <r_i_glide_ligand_efficiency>  (293) 
-0.157033024742644

>  <r_i_glide_ligand_efficiency_ln>  (293) 
-1.1524699437661301

>  <r_i_glide_ligand_efficiency_sa>  (293) 
-0.50368881721806602

>  <r_i_glide_lipo>  (293) 
-0.87711589213659202

>  <r_i_glide_metal>  (293) 
-0

>  <r_i_glide_rewards>  (293) 
-0.61668613636363501

>  <r_lp_Energy>  (293) 
60.400820000000003

>  <r_lp_tautomer_probability>  (293) 
0.999999999997365

>  <r_qp_ACxDN^.5/SA>  (293) 
0.0111693

>  <r_qp_CIQPlogS>  (293) 
-6.0730000000000004

>  <r_qp_EA(eV)>  (293) 
0.49099999999999999

>  <r_qp_FISA>  (293) 
104.321

>  <r_qp_FOSA>  (293) 
196.292

>  <r_qp_IP(eV)>  (293) 
8.0359999999999996

>  <r_qp_Jm>  (293) 
0.0041568599839453798

>  <r_qp_PISA>  (293) 
427.428

>  <r_qp_PSA>  (293) 
74.373999999999995

>  <r_qp_PercentHumanOralAbsorption>  (293) 
100

>  <r_qp_QPPCaco>  (293) 
253.23500000000001

>  <r_qp_QPPMDCK>  (293) 
124.02500000000001

>  <r_qp_QPlogBB>  (293) 
-0.53500000000000003

>  <r_qp_QPlogHERG>  (293) 
-7.0819999999999999

>  <r_qp_QPlogKhsa>  (293) 
0.89400000000000002

>  <r_qp_QPlogKp>  (293) 
-3.2309999999999999

>  <r_qp_QPlogPC16>  (293) 
15.304

>  <r_qp_QPlogPo/w>  (293) 
4.718

>  <r_qp_QPlogPoct>  (293) 
23.109999999999999

>  <r_qp_QPlogPw>  (293) 
11.916

>  <r_qp_QPlogS>  (293) 
-4.7939999999999996

>  <r_qp_QPpolrz>  (293) 
48.468000000000004

>  <r_qp_SASA>  (293) 
728.04100000000005

>  <r_qp_SAamideO>  (293) 
0

>  <r_qp_SAfluorine>  (293) 
0

>  <r_qp_WPSA>  (293) 
0

>  <r_qp_accptHB>  (293) 
5.75

>  <r_qp_dip^2/V>  (293) 
0.059090499999999997

>  <r_qp_dipole>  (293) 
9.0670000000000002

>  <r_qp_donorHB>  (293) 
2

>  <r_qp_glob>  (293) 
0.82782920000000004

>  <r_qp_mol_MW>  (293) 
440.54399999999998

>  <r_qp_volume>  (293) 
1391.2260000000001

>  <r_sd_BIOSOLVEIT.INFINISEE\_FTREES\_SIMILARITY>  (293) 
0.90500000000000003

>  <r_sd_BIOSOLVEIT.LOGP>  (293) 
3.7988200000000001

>  <r_sd_BIOSOLVEIT.MOLECULAR\_WEIGHT>  (293) 
441.55200000000002

>  <r_sd_BIOSOLVEIT.TPSA>  (293) 
78.689999999999998

>  <i_epik_Tot_Q>  (293) 
2

>  <i_epik_Tot_abs_Q>  (293) 
2

>  <i_f3d_flags>  (293) 
0

>  <i_i_glide_confnum>  (293) 
3

>  <i_i_glide_lignum>  (293) 
24

>  <i_i_glide_posenum>  (293) 
20

>  <i_i_glide_rotatable_bonds>  (293) 
8

>  <i_lp_mmshare_version>  (293) 
65135

>  <i_m_ct_format>  (293) 
2

>  <i_m_source_file_index>  (293) 
124

>  <i_qp_#NandO>  (293) 
6

>  <i_qp_#acid>  (293) 
0

>  <i_qp_#amide>  (293) 
0

>  <i_qp_#amidine>  (293) 
0

>  <i_qp_#amine>  (293) 
1

>  <i_qp_#in34>  (293) 
0

>  <i_qp_#in56>  (293) 
22

>  <i_qp_#metab>  (293) 
6

>  <i_qp_#nonHatm>  (293) 
33

>  <i_qp_#noncon>  (293) 
0

>  <i_qp_#ringatoms>  (293) 
22

>  <i_qp_#rotor>  (293) 
8

>  <i_qp_#rtvFG>  (293) 
0

>  <i_qp_#stars>  (293) 
0

>  <i_qp_CNS>  (293) 
1

>  <i_qp_HumanOralAbsorption>  (293) 
3

>  <i_qp_RuleOfFive>  (293) 
0

>  <i_qp_RuleOfThree>  (293) 
0

>  <i_sd_BIOSOLVEIT.INFINISEE\_RESULT\_RANK>  (293) 
68781

>  <i_sd_version>  (293) 
0

>  <b_lp_Chiralities_Consistent>  (293) 
1

>  <b_sd_chiral_flag>  (293) 
0

>  <canonical_id>  (293) 
ATP-HTVS-2F483D9FE7EF

>  <compound_code>  (293) 
3937

>  <title>  (293) 
YAS_R005____OTV5753507____OTV2848234____OTV1000393

>  <variant>  (293) 
3937-4

>  <source_file>  (293) 
运行/运行/ATP-VSW/ATP-VSW-DOCK_HTVS_1-001_lib/ATP-VSW-DOCK_HTVS_1-001_lib

>  <canonical_smiles>  (293) 
Cc1[nH]c2ccccc2/c(=[NH+]/C[C@H](c2ccc(O)cc2)[NH+](C)C)c1C(=O)Nc1ccccc1

>  <scaffold>  (293) 
O=C(Nc1ccccc1)c1c[nH]c2ccccc2c1=[NH+]CCc1ccccc1

>  <molecular_formula>  (293) 
C27H30N4O2+2

$$$$
ATP-HTVS-2F9574F7896C
     RDKit          3D

 59 62  0  0  0  0  0  0  0  0999 V2000
  196.7399  183.1121  155.0892 O   0  0  0  0  0  0  0  0  0  0  0  0
  196.6790  182.1721  155.8866 C   0  0  0  0  0  0  0  0  0  0  0  0
  196.8047  180.8680  155.5475 N   0  0  0  0  0  0  0  0  0  0  0  0
  197.2661  180.4082  154.2908 C   0  0  0  0  0  0  0  0  0  0  0  0
  196.5020  180.4944  153.1734 N   0  0  0  0  0  0  0  0  0  0  0  0
  196.9278  179.9695  152.0053 C   0  0  0  0  0  0  0  0  0  0  0  0
  198.1976  179.3519  151.8910 C   0  0  0  0  0  0  0  0  0  0  0  0
  199.0458  179.3216  153.0223 C   0  0  0  0  0  0  0  0  0  0  0  0
  198.5723  179.8401  154.2483 C   0  0  0  0  0  0  0  0  0  0  0  0
  199.4028  179.7678  155.3888 N   0  0  0  0  0  0  0  0  0  0  0  0
  199.9995  178.5967  155.9096 C   0  0  0  0  0  0  0  0  0  0  0  0
  200.5854  178.5880  157.1982 C   0  0  0  0  0  0  0  0  0  0  0  0
  201.1485  177.4133  157.7289 C   0  0  0  0  0  0  0  0  0  0  0  0
  201.1854  176.2309  156.9632 C   0  0  0  0  0  0  0  0  0  0  0  0
  200.6131  176.2187  155.6818 C   0  0  0  0  0  0  0  0  0  0  0  0
  200.0019  177.3810  155.1699 C   0  0  0  0  0  0  0  0  0  0  0  0
  199.9127  181.0768  155.8428 C   0  0  1  0  0  0  0  0  0  0  0  0
  201.0510  181.5572  155.0489 C   0  0  0  0  0  0  0  0  0  0  0  0
  201.9383  181.9382  154.4168 N   0  0  0  0  0  0  0  0  0  0  0  0
  198.6140  178.7573  150.6812 C   0  0  0  0  0  0  0  0  0  0  0  0
  197.7803  178.8048  149.5518 C   0  0  0  0  0  0  0  0  0  0  0  0
  196.5298  179.4371  149.6409 C   0  0  0  0  0  0  0  0  0  0  0  0
  196.1080  180.0042  150.8633 C   0  0  0  0  0  0  0  0  0  0  0  0
  196.4635  182.4891  157.3884 C   0  0  2  0  0  0  0  0  0  0  0  0
  195.0159  182.7111  157.7413 N   0  0  1  0  0  0  0  0  0  0  0  0
  194.3073  181.4697  158.1194 C   0  0  2  0  0  0  0  0  0  0  0  0
  194.7695  183.7608  158.7595 C   0  0  2  0  0  0  0  0  0  0  0  0
  197.3702  183.6394  157.7504 C   0  0  0  0  0  0  0  0  0  0  0  0
  198.2112  183.5451  158.8932 C   0  0  0  0  0  0  0  0  0  0  0  0
  199.0490  184.6054  159.2897 C   0  0  0  0  0  0  0  0  0  0  0  0
  199.0615  185.8125  158.5701 C   0  0  0  0  0  0  0  0  0  0  0  0
  198.2210  185.9395  157.4473 C   0  0  0  0  0  0  0  0  0  0  0  0
  197.3885  184.8613  157.0406 C   0  0  0  0  0  0  0  0  0  0  0  0
  196.7555  180.1694  156.2818 H   0  0  0  0  0  0  0  0  0  0  0  0
  200.0220  178.8850  152.9256 H   0  0  0  0  0  0  0  0  0  0  0  0
  200.5871  179.4464  157.8509 H   0  0  0  0  0  0  0  0  0  0  0  0
  201.5460  177.4436  158.7347 H   0  0  0  0  0  0  0  0  0  0  0  0
  201.6105  175.3231  157.3579 H   0  0  0  0  0  0  0  0  0  0  0  0
  200.6108  175.3140  155.0894 H   0  0  0  0  0  0  0  0  0  0  0  0
  199.5433  177.2939  154.1855 H   0  0  0  0  0  0  0  0  0  0  0  0
  199.1656  181.8650  155.7102 H   0  0  0  0  0  0  0  0  0  0  0  0
  200.1642  181.1244  156.9097 H   0  0  0  0  0  0  0  0  0  0  0  0
  199.5735  178.2656  150.6154 H   0  0  0  0  0  0  0  0  0  0  0  0
  198.1057  178.3673  148.6206 H   0  0  0  0  0  0  0  0  0  0  0  0
  195.8931  179.4919  148.7713 H   0  0  0  0  0  0  0  0  0  0  0  0
  195.1464  180.4825  150.9337 H   0  0  0  0  0  0  0  0  0  0  0  0
  196.8020  181.6083  157.9376 H   0  0  0  0  0  0  0  0  0  0  0  0
  194.7283  181.0379  159.0276 H   0  0  0  0  0  0  0  0  0  0  0  0
  194.3474  180.7250  157.3351 H   0  0  0  0  0  0  0  0  0  0  0  0
  193.2497  181.6745  158.2933 H   0  0  0  0  0  0  0  0  0  0  0  0
  195.2773  183.5244  159.6962 H   0  0  0  0  0  0  0  0  0  0  0  0
  193.7002  183.8459  158.9799 H   0  0  0  0  0  0  0  0  0  0  0  0
  195.0828  184.7493  158.4341 H   0  0  0  0  0  0  0  0  0  0  0  0
  198.2059  182.6363  159.4956 H   0  0  0  0  0  0  0  0  0  0  0  0
  199.6931  184.4969  160.1495 H   0  0  0  0  0  0  0  0  0  0  0  0
  199.7088  186.6262  158.8624 H   0  0  0  0  0  0  0  0  0  0  0  0
  198.2210  186.8600  156.8702 H   0  0  0  0  0  0  0  0  0  0  0  0
  196.7570  184.9877  156.1807 H   0  0  0  0  0  0  0  0  0  0  0  0
  194.5691  182.9887  156.8731 H   0  0  0  0  0  0  0  0  0  0  0  0
  1  2  2  0
  2  3  1  0
  2 24  1  0
  3  4  1  0
  3 34  1  0
  4  5  2  0
  4  9  1  0
  5  6  1  0
  6  7  1  0
  6 23  2  0
  7  8  1  0
  7 20  2  0
  8  9  2  0
  8 35  1  0
  9 10  1  0
 10 11  1  0
 10 17  1  0
 11 12  2  0
 11 16  1  0
 12 13  1  0
 12 36  1  0
 13 14  2  0
 13 37  1  0
 14 15  1  0
 14 38  1  0
 15 16  2  0
 15 39  1  0
 16 40  1  0
 17 18  1  0
 17 41  1  1
 17 42  1  0
 18 19  3  0
 20 21  1  0
 20 43  1  0
 21 22  2  0
 21 44  1  0
 22 23  1  0
 22 45  1  0
 23 46  1  0
 24 25  1  0
 24 28  1  0
 24 47  1  1
 25 26  1  0
 25 27  1  0
 25 59  1  6
 26 48  1  1
 26 49  1  0
 26 50  1  0
 27 51  1  1
 27 52  1  0
 27 53  1  0
 28 29  2  0
 28 33  1  0
 29 30  1  0
 29 54  1  0
 30 31  2  0
 30 55  1  0
 31 32  1  0
 31 56  1  0
 32 33  2  0
 32 57  1  0
 33 58  1  0
M  CHG  1  25   1
M  END
>  <s_epik_cmdline>  (294) 
J2VwaWtfcHl0aG9uJywgJy1waCcsICc3LjAwMDAwMCcsICctcGh0JywgJzIuMDAwMDAwJywgJy1tcycsICcxNicsICctdG4nLCAnOCcsICctbWEnLCAnMjAwJywgJy1pbWFlJywgJzxpbmZpbGUubWFlPicsICctb21hZScsICc8b3V0ZmlsZS5tYWU+Jw==

>  <s_epik_input>  (294) 
W2NIXTFbY0hdW2NIXVtjSF1bY0hdYzFbQ0BASF0oTihbQ0gzXSlbQ0gzXSlDKD1PKVtOSF1jKG4yKWMoW2NIXWMoYzIzKVtjSF1bY0hdW2NIXVtjSF0zKU4oW0NIMl1DI04pYzRbY0hdW2NIXVtjSF1bY0hdW2NIXTQ=

>  <s_i_glide_gridfile>  (294) 
ATP-Grid

>  <s_lp_Force_Field>  (294) 
OPLS_2005

>  <s_lp_Variant>  (294) 
rxn502b____EMOL3728885____EMOL44466703____EMOL712348-3

>  <s_lp_label>  (294) 
2663_sdstereoexpander_1_neutralizer_1_epik_2_stereoizer_1

>  <s_m_source_file>  (294) 
ATP-VSW-LIGPREP-001-in.maegz

>  <s_sd_BIOSOLVEIT.INFINISEE\_QUERY\_NAME>  (294) 
Ref-Lig

>  <s_sd_BIOSOLVEIT.INFINISEE\_QUERY\_SMILES>  (294) 
S(c1nc2c(cc1C[NH2+]Cc3ccc(cc3)C[NH+](C)C)cccc2)Cc4ccccc4

>  <s_sd_BIOSOLVEIT.INFINISEE\_REACTION\_NAME>  (294) 
rxn502b

>  <s_sd_BIOSOLVEIT.INFINISEE\_REAGENT1\_NAME>  (294) 
EMOL3728885

>  <s_sd_BIOSOLVEIT.INFINISEE\_REAGENT1\_SMILES>  (294) 
O=C(O)C(N(C)C)c1ccccc1

>  <s_sd_BIOSOLVEIT.INFINISEE\_REAGENT2\_NAME>  (294) 
EMOL44466703

>  <s_sd_BIOSOLVEIT.INFINISEE\_REAGENT2\_SMILES>  (294) 
Brc1c(nc2c(c1)cccc2)N

>  <s_sd_BIOSOLVEIT.INFINISEE\_REAGENT3\_NAME>  (294) 
EMOL712348

>  <s_sd_BIOSOLVEIT.INFINISEE\_REAGENT3\_SMILES>  (294) 
N#CCNc1ccccc1

>  <s_sd_BIOSOLVEIT.INFINISEE\_SPACE>  (294) 
eXplore_7tr_2022-12

>  <s_vsw_compound_code>  (294) 
85185

>  <s_vsw_variant>  (294) 
85185-3

>  <r_epik_Charging_Adjusted_Penalty>  (294) 
1.9703554805389201

>  <r_epik_Ionization_Penalty>  (294) 
0.98160000000000003

>  <r_epik_Ionization_Penalty_Charging>  (294) 
0.98140000000000005

>  <r_epik_Ionization_Penalty_Neutral>  (294) 
0.00020000000000000001

>  <r_epik_State_Penalty>  (294) 
0.98899999999999999

>  <r_i_docking_score>  (294) 
-4.8869388729416396

>  <r_i_glide_ecoul>  (294) 
-11.6502380371094

>  <r_i_glide_eff_state_penalty>  (294) 
0.98899999999999999

>  <r_i_glide_einternal>  (294) 
12.0591745376587

>  <r_i_glide_emodel>  (294) 
-66.266879183428401

>  <r_i_glide_energy>  (294) 
-48.107589721679702

>  <r_i_glide_erotb>  (294) 
0.52303548994317395

>  <r_i_glide_esite>  (294) 
-0.26713909908248701

>  <r_i_glide_evdw>  (294) 
-36.457351684570298

>  <r_i_glide_gscore>  (294) 
-5.8759388729416404

>  <r_i_glide_hbond>  (294) 
-0.31702163908463599

>  <r_i_glide_ligand_efficiency>  (294) 
-0.148089056755807

>  <r_i_glide_ligand_efficiency_ln>  (294) 
-1.0868299021269301

>  <r_i_glide_ligand_efficiency_sa>  (294) 
-0.47500073288733702

>  <r_i_glide_lipo>  (294) 
-1.8116483349227599

>  <r_i_glide_metal>  (294) 
-0

>  <r_i_glide_rewards>  (294) 
-0.43276199999999898

>  <r_lp_Energy>  (294) 
30.335584000000001

>  <r_qp_ACxDN^.5/SA>  (294) 
0.010999500000000001

>  <r_qp_CIQPlogS>  (294) 
-6.3300000000000001

>  <r_qp_EA(eV)>  (294) 
1.1759999999999999

>  <r_qp_FISA>  (294) 
70.265000000000001

>  <r_qp_FOSA>  (294) 
172.678

>  <r_qp_IP(eV)>  (294) 
8.7430000000000003

>  <r_qp_Jm>  (294) 
0.048856667582802299

>  <r_qp_PISA>  (294) 
438.90499999999997

>  <r_qp_PSA>  (294) 
69.507999999999996

>  <r_qp_PercentHumanOralAbsorption>  (294) 
100

>  <r_qp_QPPCaco>  (294) 
532.69600000000003

>  <r_qp_QPPMDCK>  (294) 
277.06799999999998

>  <r_qp_QPlogBB>  (294) 
-0.155

>  <r_qp_QPlogHERG>  (294) 
-6.6319999999999997

>  <r_qp_QPlogKhsa>  (294) 
0.434

>  <r_qp_QPlogKp>  (294) 
-2.5630000000000002

>  <r_qp_QPlogPC16>  (294) 
14.371

>  <r_qp_QPlogPo/w>  (294) 
4.0279999999999996

>  <r_qp_QPlogPoct>  (294) 
21.613

>  <r_qp_QPlogPw>  (294) 
11.911

>  <r_qp_QPlogS>  (294) 
-4.3869999999999996

>  <r_qp_QPpolrz>  (294) 
46.247999999999998

>  <r_qp_SASA>  (294) 
681.84799999999996

>  <r_qp_SAamideO>  (294) 
0

>  <r_qp_SAfluorine>  (294) 
0

>  <r_qp_WPSA>  (294) 
0

>  <r_qp_accptHB>  (294) 
7.5

>  <r_qp_dip^2/V>  (294) 
0.047194399999999997

>  <r_qp_dipole>  (294) 
7.9320000000000004

>  <r_qp_donorHB>  (294) 
1

>  <r_qp_glob>  (294) 
0.8590776

>  <r_qp_mol_MW>  (294) 
435.52699999999999

>  <r_qp_volume>  (294) 
1333.0050000000001

>  <r_sd_BIOSOLVEIT.INFINISEE\_FTREES\_SIMILARITY>  (294) 
0.91000000000000003

>  <r_sd_BIOSOLVEIT.LOGP>  (294) 
3.72078

>  <r_sd_BIOSOLVEIT.MOLECULAR\_WEIGHT>  (294) 
436.536

>  <r_sd_BIOSOLVEIT.TPSA>  (294) 
73.459999999999994

>  <i_epik_Tot_Q>  (294) 
1

>  <i_epik_Tot_abs_Q>  (294) 
1

>  <i_f3d_flags>  (294) 
0

>  <i_i_glide_confnum>  (294) 
1

>  <i_i_glide_lignum>  (294) 
1168

>  <i_i_glide_posenum>  (294) 
14

>  <i_i_glide_rotatable_bonds>  (294) 
8

>  <i_lp_mmshare_version>  (294) 
65135

>  <i_m_ct_format>  (294) 
2

>  <i_m_source_file_index>  (294) 
2663

>  <i_qp_#NandO>  (294) 
6

>  <i_qp_#acid>  (294) 
0

>  <i_qp_#amide>  (294) 
0

>  <i_qp_#amidine>  (294) 
0

>  <i_qp_#amine>  (294) 
1

>  <i_qp_#in34>  (294) 
0

>  <i_qp_#in56>  (294) 
22

>  <i_qp_#metab>  (294) 
6

>  <i_qp_#nonHatm>  (294) 
33

>  <i_qp_#noncon>  (294) 
0

>  <i_qp_#ringatoms>  (294) 
22

>  <i_qp_#rotor>  (294) 
8

>  <i_qp_#rtvFG>  (294) 
0

>  <i_qp_#stars>  (294) 
0

>  <i_qp_CNS>  (294) 
1

>  <i_qp_HumanOralAbsorption>  (294) 
3

>  <i_qp_RuleOfFive>  (294) 
0

>  <i_qp_RuleOfThree>  (294) 
0

>  <i_sd_BIOSOLVEIT.INFINISEE\_RESULT\_RANK>  (294) 
48018

>  <i_sd_version>  (294) 
0

>  <b_lp_Chiralities_Consistent>  (294) 
1

>  <b_sd_chiral_flag>  (294) 
0

>  <canonical_id>  (294) 
ATP-HTVS-2F9574F7896C

>  <compound_code>  (294) 
85185

>  <title>  (294) 
rxn502b____EMOL3728885____EMOL44466703____EMOL712348

>  <variant>  (294) 
85185-3

>  <source_file>  (294) 
运行/运行/ATP-VSW/ATP-VSW-DOCK_HTVS_1-001_lib/ATP-VSW-DOCK_HTVS_1-001_lib

>  <canonical_smiles>  (294) 
C[NH+](C)[C@@H](C(=O)Nc1nc2ccccc2cc1N(CC#N)c1ccccc1)c1ccccc1

>  <scaffold>  (294) 
O=C(Cc1ccccc1)Nc1nc2ccccc2cc1Nc1ccccc1

>  <molecular_formula>  (294) 
C27H26N5O+

$$$$
ATP-HTVS-2F9E11536268
     RDKit          3D

 56 59  0  0  0  0  0  0  0  0999 V2000
  196.0267  179.5789  149.9720 F   0  0  0  0  0  0  0  0  0  0  0  0
  196.9742  179.4388  150.9297 C   0  0  0  0  0  0  0  0  0  0  0  0
  196.9744  180.2964  152.0467 C   0  0  0  0  0  0  0  0  0  0  0  0
  197.9577  180.1525  153.0531 C   0  0  0  0  0  0  0  0  0  0  0  0
  198.9385  179.1459  152.9310 C   0  0  0  0  0  0  0  0  0  0  0  0
  198.9339  178.2880  151.8128 C   0  0  0  0  0  0  0  0  0  0  0  0
  197.9555  178.4363  150.8127 C   0  0  0  0  0  0  0  0  0  0  0  0
  197.9595  181.0979  154.2406 C   0  0  1  0  0  0  0  0  0  0  0  0
  197.1928  180.5345  155.4566 C   0  0  1  0  0  0  0  0  0  0  0  0
  197.9444  179.4641  156.1281 N   0  0  2  0  0  0  0  0  0  0  0  0
  196.9494  181.5639  156.4797 C   0  0  0  0  0  0  0  0  0  0  0  0
  196.7483  182.4418  157.3013 C   0  0  0  0  0  0  0  0  0  0  0  0
  196.5261  183.5086  158.2743 C   0  0  0  0  0  0  0  0  0  0  0  0
  197.5748  184.3461  158.7457 C   0  0  0  0  0  0  0  0  0  0  0  0
  197.3250  185.3517  159.6136 N   0  0  0  0  0  0  0  0  0  0  0  0
  196.0805  185.5793  160.0579 C   0  0  0  0  0  0  0  0  0  0  0  0
  194.9927  184.7704  159.6534 C   0  0  0  0  0  0  0  0  0  0  0  0
  195.2183  183.7196  158.7441 C   0  0  0  0  0  0  0  0  0  0  0  0
  193.7027  185.0221  160.1386 C   0  0  0  0  0  0  0  0  0  0  0  0
  193.4738  186.1047  161.0136 C   0  0  0  0  0  0  0  0  0  0  0  0
  194.5414  186.9041  161.4385 C   0  0  0  0  0  0  0  0  0  0  0  0
  195.8300  186.6464  160.9440 C   0  0  0  0  0  0  0  0  0  0  0  0
  198.8845  184.0864  158.2538 N   0  0  0  0  0  0  0  0  0  0  0  0
  200.0557  184.6245  158.6385 C   0  0  0  0  0  0  0  0  0  0  0  0
  200.1934  185.4757  159.5150 O   0  0  0  0  0  0  0  0  0  0  0  0
  201.3035  184.0948  157.9252 C   0  0  1  0  0  0  0  0  0  0  0  0
  202.0034  183.0403  158.7729 C   0  0  0  0  0  0  0  0  0  0  0  0
  202.6065  183.3830  160.0058 C   0  0  0  0  0  0  0  0  0  0  0  0
  203.2660  182.4013  160.7752 C   0  0  0  0  0  0  0  0  0  0  0  0
  203.8743  182.7601  162.0472 C   0  0  0  0  0  0  0  0  0  0  0  0
  204.3586  183.0420  163.0580 N   0  0  0  0  0  0  0  0  0  0  0  0
  203.3337  181.0725  160.3095 C   0  0  0  0  0  0  0  0  0  0  0  0
  202.7571  180.7324  159.0707 C   0  0  0  0  0  0  0  0  0  0  0  0
  202.0905  181.7107  158.3089 C   0  0  0  0  0  0  0  0  0  0  0  0
  197.3932  179.0922  156.9161 H   0  0  0  0  0  0  0  0  0  0  0  0
  198.8115  179.8211  156.5038 H   0  0  0  0  0  0  0  0  0  0  0  0
  196.2242  181.0704  152.1180 H   0  0  0  0  0  0  0  0  0  0  0  0
  199.7052  179.0276  153.6831 H   0  0  0  0  0  0  0  0  0  0  0  0
  199.6767  177.5084  151.7265 H   0  0  0  0  0  0  0  0  0  0  0  0
  197.9455  177.7684  149.9631 H   0  0  0  0  0  0  0  0  0  0  0  0
  198.9893  181.3348  154.5160 H   0  0  0  0  0  0  0  0  0  0  0  0
  197.5206  182.0423  153.9158 H   0  0  0  0  0  0  0  0  0  0  0  0
  196.2134  180.1624  155.1502 H   0  0  0  0  0  0  0  0  0  0  0  0
  194.3942  183.1143  158.3877 H   0  0  0  0  0  0  0  0  0  0  0  0
  192.8747  184.4259  159.7811 H   0  0  0  0  0  0  0  0  0  0  0  0
  192.4734  186.2963  161.3843 H   0  0  0  0  0  0  0  0  0  0  0  0
  194.3769  187.7055  162.1471 H   0  0  0  0  0  0  0  0  0  0  0  0
  196.6523  187.2655  161.2663 H   0  0  0  0  0  0  0  0  0  0  0  0
  198.9215  183.3824  157.5368 H   0  0  0  0  0  0  0  0  0  0  0  0
  201.0423  183.7039  156.9399 H   0  0  0  0  0  0  0  0  0  0  0  0
  201.9962  184.9163  157.7491 H   0  0  0  0  0  0  0  0  0  0  0  0
  202.5717  184.4049  160.3601 H   0  0  0  0  0  0  0  0  0  0  0  0
  203.8186  180.3052  160.8975 H   0  0  0  0  0  0  0  0  0  0  0  0
  202.8121  179.7184  158.7030 H   0  0  0  0  0  0  0  0  0  0  0  0
  201.6637  181.4371  157.3564 H   0  0  0  0  0  0  0  0  0  0  0  0
  198.1143  178.6916  155.5076 H   0  0  0  0  0  0  0  0  0  0  0  0
  1  2  1  0
  2  3  2  0
  2  7  1  0
  3  4  1  0
  3 37  1  0
  4  5  2  0
  4  8  1  0
  5  6  1  0
  5 38  1  0
  6  7  2  0
  6 39  1  0
  7 40  1  0
  8  9  1  0
  8 41  1  1
  8 42  1  0
  9 10  1  0
  9 11  1  0
  9 43  1  6
 10 35  1  1
 10 36  1  0
 10 56  1  0
 11 12  3  0
 12 13  1  0
 13 14  1  0
 13 18  2  0
 14 15  2  0
 14 23  1  0
 15 16  1  0
 16 17  1  0
 16 22  2  0
 17 18  1  0
 17 19  2  0
 18 44  1  0
 19 20  1  0
 19 45  1  0
 20 21  2  0
 20 46  1  0
 21 22  1  0
 21 47  1  0
 22 48  1  0
 23 24  1  0
 23 49  1  0
 24 25  2  0
 24 26  1  0
 26 27  1  0
 26 50  1  6
 26 51  1  0
 27 28  1  0
 27 34  2  0
 28 29  2  0
 28 52  1  0
 29 30  1  0
 29 32  1  0
 30 31  3  0
 32 33  2  0
 32 53  1  0
 33 34  1  0
 33 54  1  0
 34 55  1  0
M  CHG  1  10   1
M  END
>  <s_epik_cmdline>  (295) 
J2VwaWtfcHl0aG9uJywgJy1waCcsICc3LjAwMDAwMCcsICctcGh0JywgJzIuMDAwMDAwJywgJy1tcycsICcxNicsICctdG4nLCAnOCcsICctbWEnLCAnMjAwJywgJy1pbWFlJywgJzxpbmZpbGUubWFlPicsICctb21hZScsICc8b3V0ZmlsZS5tYWU+Jw==

>  <s_epik_input>  (295) 
RmMxW2NIXWMoW2NIXVtjSF1bY0hdMSlbQ0gyXVtDQEBIXShbTkgyXSlDI0NjKFtjSF1jKGMyMylbY0hdW2NIXVtjSF1bY0hdMyljKG4yKVtOSF1DKD1PKVtDSDJdYzRbY0hdYyhDI04pW2NIXVtjSF1bY0hdNA==

>  <s_i_glide_gridfile>  (295) 
ATP-Grid

>  <s_lp_Force_Field>  (295) 
OPLS_2005

>  <s_lp_Variant>  (295) 
rxn503b____EMOL526127____EMOL44466703____EMOL313110234-3

>  <s_lp_label>  (295) 
2888_sdstereoexpander_1_neutralizer_1_epik_2_stereoizer_1

>  <s_m_source_file>  (295) 
ATP-VSW-LIGPREP-002-in.maegz

>  <s_sd_BIOSOLVEIT.INFINISEE\_QUERY\_NAME>  (295) 
Ref-Lig

>  <s_sd_BIOSOLVEIT.INFINISEE\_QUERY\_SMILES>  (295) 
S(c1nc2c(cc1C[NH2+]Cc3ccc(cc3)C[NH+](C)C)cccc2)Cc4ccccc4

>  <s_sd_BIOSOLVEIT.INFINISEE\_REACTION\_NAME>  (295) 
rxn503b

>  <s_sd_BIOSOLVEIT.INFINISEE\_REAGENT1\_NAME>  (295) 
EMOL526127

>  <s_sd_BIOSOLVEIT.INFINISEE\_REAGENT1\_SMILES>  (295) 
O=C(O)Cc1cc(C#N)ccc1

>  <s_sd_BIOSOLVEIT.INFINISEE\_REAGENT2\_NAME>  (295) 
EMOL44466703

>  <s_sd_BIOSOLVEIT.INFINISEE\_REAGENT2\_SMILES>  (295) 
Brc1c(nc2c(c1)cccc2)N

>  <s_sd_BIOSOLVEIT.INFINISEE\_REAGENT3\_NAME>  (295) 
EMOL313110234

>  <s_sd_BIOSOLVEIT.INFINISEE\_REAGENT3\_SMILES>  (295) 
Fc1cc(ccc1)CC(N)C#C

>  <s_sd_BIOSOLVEIT.INFINISEE\_SPACE>  (295) 
eXplore_7tr_2022-12

>  <s_vsw_compound_code>  (295) 
92386

>  <s_vsw_variant>  (295) 
92386-3

>  <r_epik_Charging_Adjusted_Penalty>  (295) 
1.22591159016581

>  <r_epik_Ionization_Penalty>  (295) 
0.61309999999999998

>  <r_epik_Ionization_Penalty_Charging>  (295) 
0.61299999999999999

>  <r_epik_Ionization_Penalty_Neutral>  (295) 
0.00020000000000000001

>  <r_epik_State_Penalty>  (295) 
0.61299999999999999

>  <r_i_docking_score>  (295) 
-5.14884966862369

>  <r_i_glide_ecoul>  (295) 
-10.062883377075201

>  <r_i_glide_eff_state_penalty>  (295) 
0.61299999999999999

>  <r_i_glide_einternal>  (295) 
5.0394048690795898

>  <r_i_glide_emodel>  (295) 
-64.831767228920498

>  <r_i_glide_energy>  (295) 
-44.503015518188498

>  <r_i_glide_erotb>  (295) 
0.69433441786033301

>  <r_i_glide_esite>  (295) 
-0.10000000000000001

>  <r_i_glide_evdw>  (295) 
-34.440132141113303

>  <r_i_glide_gscore>  (295) 
-5.7618496686236904

>  <r_i_glide_hbond>  (295) 
-0.35259951658774402

>  <r_i_glide_ligand_efficiency>  (295) 
-0.15143675495952

>  <r_i_glide_ligand_efficiency_ln>  (295) 
-1.1375253121403399

>  <r_i_glide_ligand_efficiency_sa>  (295) 
-0.49059629793735499

>  <r_i_glide_lipo>  (295) 
-2.02111861149276

>  <r_i_glide_metal>  (295) 
-0

>  <r_i_glide_rewards>  (295) 
-0.751026844786575

>  <r_lp_Energy>  (295) 
21.498621

>  <r_qp_ACxDN^.5/SA>  (295) 
0.0144829

>  <r_qp_CIQPlogS>  (295) 
-7.0350000000000001

>  <r_qp_EA(eV)>  (295) 
1.1180000000000001

>  <r_qp_FISA>  (295) 
164.82400000000001

>  <r_qp_FOSA>  (295) 
77.530000000000001

>  <r_qp_IP(eV)>  (295) 
8.8399999999999999

>  <r_qp_Jm>  (295) 
9.2946215453703504e-05

>  <r_qp_PISA>  (295) 
428.22500000000002

>  <r_qp_PSA>  (295) 
97.364999999999995

>  <r_qp_PercentHumanOralAbsorption>  (295) 
83.140000000000001

>  <r_qp_QPPCaco>  (295) 
67.572999999999993

>  <r_qp_QPPMDCK>  (295) 
53.789999999999999

>  <r_qp_QPlogBB>  (295) 
-1.0700000000000001

>  <r_qp_QPlogHERG>  (295) 
-7.0919999999999996

>  <r_qp_QPlogKhsa>  (295) 
0.65400000000000003

>  <r_qp_QPlogKp>  (295) 
-4.2469999999999999

>  <r_qp_QPlogPC16>  (295) 
15.385

>  <r_qp_QPlogPo/w>  (295) 
4.0039999999999996

>  <r_qp_QPlogPoct>  (295) 
24.545999999999999

>  <r_qp_QPlogPw>  (295) 
13.815

>  <r_qp_QPlogS>  (295) 
-5.4359999999999999

>  <r_qp_QPpolrz>  (295) 
46.600999999999999

>  <r_qp_SASA>  (295) 
717.55799999999999

>  <r_qp_SAamideO>  (295) 
0

>  <r_qp_SAfluorine>  (295) 
46.978000000000002

>  <r_qp_WPSA>  (295) 
46.978000000000002

>  <r_qp_accptHB>  (295) 
6

>  <r_qp_dip^2/V>  (295) 
0.060087000000000002

>  <r_qp_dipole>  (295) 
9.0410000000000004

>  <r_qp_donorHB>  (295) 
3

>  <r_qp_glob>  (295) 
0.82747660000000001

>  <r_qp_mol_MW>  (295) 
448.49799999999999

>  <r_qp_volume>  (295) 
1360.4159999999999

>  <r_sd_BIOSOLVEIT.INFINISEE\_FTREES\_SIMILARITY>  (295) 
0.90500000000000003

>  <r_sd_BIOSOLVEIT.LOGP>  (295) 
3.6314799999999998

>  <r_sd_BIOSOLVEIT.MOLECULAR\_WEIGHT>  (295) 
449.50700000000001

>  <r_sd_BIOSOLVEIT.TPSA>  (295) 
93.420000000000002

>  <i_epik_Tot_Q>  (295) 
1

>  <i_epik_Tot_abs_Q>  (295) 
1

>  <i_f3d_flags>  (295) 
0

>  <i_i_glide_confnum>  (295) 
5

>  <i_i_glide_lignum>  (295) 
1428

>  <i_i_glide_posenum>  (295) 
7

>  <i_i_glide_rotatable_bonds>  (295) 
8

>  <i_lp_mmshare_version>  (295) 
65135

>  <i_m_ct_format>  (295) 
2

>  <i_m_source_file_index>  (295) 
2888

>  <i_qp_#NandO>  (295) 
5

>  <i_qp_#acid>  (295) 
0

>  <i_qp_#amide>  (295) 
0

>  <i_qp_#amidine>  (295) 
0

>  <i_qp_#amine>  (295) 
1

>  <i_qp_#in34>  (295) 
0

>  <i_qp_#in56>  (295) 
22

>  <i_qp_#metab>  (295) 
5

>  <i_qp_#nonHatm>  (295) 
34

>  <i_qp_#noncon>  (295) 
0

>  <i_qp_#ringatoms>  (295) 
22

>  <i_qp_#rotor>  (295) 
9

>  <i_qp_#rtvFG>  (295) 
0

>  <i_qp_#stars>  (295) 
0

>  <i_qp_CNS>  (295) 
-2

>  <i_qp_HumanOralAbsorption>  (295) 
3

>  <i_qp_RuleOfFive>  (295) 
0

>  <i_qp_RuleOfThree>  (295) 
0

>  <i_sd_BIOSOLVEIT.INFINISEE\_RESULT\_RANK>  (295) 
73333

>  <i_sd_version>  (295) 
0

>  <b_lp_Chiralities_Consistent>  (295) 
1

>  <b_sd_chiral_flag>  (295) 
0

>  <canonical_id>  (295) 
ATP-HTVS-2F9E11536268

>  <compound_code>  (295) 
92386

>  <title>  (295) 
rxn503b____EMOL526127____EMOL44466703____EMOL313110234

>  <variant>  (295) 
92386-3

>  <source_file>  (295) 
运行/运行/ATP-VSW/ATP-VSW-DOCK_HTVS_1-002_lib.maegz

>  <canonical_smiles>  (295) 
N#Cc1cccc(CC(=O)Nc2nc3ccccc3cc2C#C[C@H]([NH3+])Cc2cccc(F)c2)c1

>  <scaffold>  (295) 
O=C(Cc1ccccc1)Nc1nc2ccccc2cc1C#CCCc1ccccc1

>  <molecular_formula>  (295) 
C28H22FN4O+

$$$$
ATP-HTVS-2FD0321978A1
     RDKit          3D

 63 67  0  0  0  0  0  0  0  0999 V2000
  195.6527  183.2519  158.4344 Cl  0  0  0  0  0  0  0  0  0  0  0  0
  197.3556  183.0623  158.2648 C   0  0  0  0  0  0  0  0  0  0  0  0
  197.8712  182.3590  157.1685 C   0  0  0  0  0  0  0  0  0  0  0  0
  199.2759  182.1935  156.9930 C   0  0  0  0  0  0  0  0  0  0  0  0
  200.1521  182.7511  157.9664 C   0  0  0  0  0  0  0  0  0  0  0  0
  201.5608  182.6273  157.8804 N   0  0  0  0  0  0  0  0  0  0  0  0
  202.2184  181.5243  157.4987 C   0  0  0  0  0  0  0  0  0  0  0  0
  203.4393  181.5237  157.3659 O   0  0  0  0  0  0  0  0  0  0  0  0
  201.4334  180.2307  157.2495 C   0  0  1  0  0  0  0  0  0  0  0  0
  200.5349  180.1967  156.0590 N   0  0  0  0  0  0  0  0  0  0  0  0
  199.8477  181.4733  155.7568 C   0  0  1  0  0  0  0  0  0  0  0  0
  198.7669  181.2769  154.6911 C   0  0  0  0  0  0  0  0  0  0  0  0
  198.5286  182.2642  153.7129 C   0  0  0  0  0  0  0  0  0  0  0  0
  199.2717  183.3976  153.6867 F   0  0  0  0  0  0  0  0  0  0  0  0
  197.5061  182.0849  152.7561 C   0  0  0  0  0  0  0  0  0  0  0  0
  196.7190  180.9178  152.7790 C   0  0  0  0  0  0  0  0  0  0  0  0
  196.9545  179.9413  153.7573 C   0  0  0  0  0  0  0  0  0  0  0  0
  197.9590  180.1135  154.7141 C   0  0  0  0  0  0  0  0  0  0  0  0
  201.2616  179.6913  154.8819 C   0  0  1  0  0  0  0  0  0  0  0  0
  201.3174  178.1683  154.7735 C   0  0  0  0  0  0  0  0  0  0  0  0
  201.1769  177.5945  153.4907 C   0  0  0  0  0  0  0  0  0  0  0  0
  201.2315  176.2025  153.3045 C   0  0  0  0  0  0  0  0  0  0  0  0
  201.0657  175.7435  152.0401 F   0  0  0  0  0  0  0  0  0  0  0  0
  201.4688  175.3476  154.4163 C   0  0  0  0  0  0  0  0  0  0  0  0
  201.5343  173.9395  154.3231 N   0  0  0  0  0  0  0  0  0  0  0  0
  200.7930  173.2566  153.2732 C   0  0  1  0  0  0  0  0  0  0  0  0
  201.7024  172.9328  152.0752 C   0  0  1  0  0  0  0  0  0  0  0  0
  202.9359  172.2348  152.5146 N   0  0  2  0  0  0  0  0  0  0  0  0
  203.6641  173.0094  153.5564 C   0  0  1  0  0  0  0  0  0  0  0  0
  202.7615  173.2896  154.7709 C   0  0  1  0  0  0  0  0  0  0  0  0
  203.7925  171.9144  151.3587 C   0  0  2  0  0  0  0  0  0  0  0  0
  201.6145  175.9247  155.7031 C   0  0  0  0  0  0  0  0  0  0  0  0
  201.5008  177.3142  155.8925 C   0  0  0  0  0  0  0  0  0  0  0  0
  199.6210  183.4605  159.0668 C   0  0  0  0  0  0  0  0  0  0  0  0
  198.2299  183.6180  159.2172 C   0  0  0  0  0  0  0  0  0  0  0  0
  197.1429  181.9655  156.4706 H   0  0  0  0  0  0  0  0  0  0  0  0
  202.1246  183.3891  158.2168 H   0  0  0  0  0  0  0  0  0  0  0  0
  202.1876  179.4528  157.2130 H   0  0  0  0  0  0  0  0  0  0  0  0
  200.8016  180.0179  158.1151 H   0  0  0  0  0  0  0  0  0  0  0  0
  200.5968  182.1443  155.3289 H   0  0  0  0  0  0  0  0  0  0  0  0
  197.3214  182.8510  152.0154 H   0  0  0  0  0  0  0  0  0  0  0  0
  195.9278  180.7780  152.0567 H   0  0  0  0  0  0  0  0  0  0  0  0
  196.3428  179.0590  153.7968 H   0  0  0  0  0  0  0  0  0  0  0  0
  198.0997  179.3649  155.4807 H   0  0  0  0  0  0  0  0  0  0  0  0
  200.7935  180.0048  153.9536 H   0  0  0  0  0  0  0  0  0  0  0  0
  202.2605  180.1263  154.8307 H   0  0  0  0  0  0  0  0  0  0  0  0
  201.0168  178.2114  152.6244 H   0  0  0  0  0  0  0  0  0  0  0  0
  200.3677  172.3396  153.6883 H   0  0  0  0  0  0  0  0  0  0  0  0
  199.9448  173.8661  152.9610 H   0  0  0  0  0  0  0  0  0  0  0  0
  201.1386  172.3618  151.3351 H   0  0  0  0  0  0  0  0  0  0  0  0
  202.0404  173.8403  151.5709 H   0  0  0  0  0  0  0  0  0  0  0  0
  204.5477  172.4531  153.8699 H   0  0  0  0  0  0  0  0  0  0  0  0
  204.0099  173.9593  153.1366 H   0  0  0  0  0  0  0  0  0  0  0  0
  203.3028  173.8953  155.5017 H   0  0  0  0  0  0  0  0  0  0  0  0
  202.5231  172.3515  155.2805 H   0  0  0  0  0  0  0  0  0  0  0  0
  204.1798  172.8288  150.9037 H   0  0  0  0  0  0  0  0  0  0  0  0
  203.2299  171.3767  150.5956 H   0  0  0  0  0  0  0  0  0  0  0  0
  204.6318  171.2972  151.6689 H   0  0  0  0  0  0  0  0  0  0  0  0
  201.7911  175.3097  156.5728 H   0  0  0  0  0  0  0  0  0  0  0  0
  201.5709  177.6688  156.9125 H   0  0  0  0  0  0  0  0  0  0  0  0
  200.2841  183.8698  159.8143 H   0  0  0  0  0  0  0  0  0  0  0  0
  197.8241  184.1598  160.0588 H   0  0  0  0  0  0  0  0  0  0  0  0
  202.7094  171.3528  152.9901 H   0  0  0  0  0  0  0  0  0  0  0  0
  1  2  1  0
  2  3  2  0
  2 35  1  0
  3  4  1  0
  3 36  1  0
  4  5  2  0
  4 11  1  0
  5  6  1  0
  5 34  1  0
  6  7  1  0
  6 37  1  0
  7  8  2  0
  7  9  1  0
  9 10  1  0
  9 38  1  6
  9 39  1  0
 10 11  1  0
 10 19  1  0
 11 12  1  0
 11 40  1  6
 12 13  1  0
 12 18  2  0
 13 14  1  0
 13 15  2  0
 15 16  1  0
 15 41  1  0
 16 17  2  0
 16 42  1  0
 17 18  1  0
 17 43  1  0
 18 44  1  0
 19 20  1  0
 19 45  1  6
 19 46  1  0
 20 21  2  0
 20 33  1  0
 21 22  1  0
 21 47  1  0
 22 23  1  0
 22 24  2  0
 24 25  1  0
 24 32  1  0
 25 26  1  0
 25 30  1  0
 26 27  1  0
 26 48  1  1
 26 49  1  0
 27 28  1  0
 27 50  1  6
 27 51  1  0
 28 29  1  0
 28 31  1  0
 28 63  1  1
 29 30  1  0
 29 52  1  1
 29 53  1  0
 30 54  1  1
 30 55  1  0
 31 56  1  6
 31 57  1  0
 31 58  1  0
 32 33  2  0
 32 59  1  0
 33 60  1  0
 34 35  2  0
 34 61  1  0
 35 62  1  0
M  CHG  1  28   1
M  END
>  <s_epik_cmdline>  (296) 
J2VwaWtfcHl0aG9uJywgJy1waCcsICc3LjAwMDAwMCcsICctcGh0JywgJzIuMDAwMDAwJywgJy1tcycsICcxNicsICctdG4nLCAnOCcsICctbWEnLCAnMjAwJywgJy1pbWFlJywgJzxpbmZpbGUubWFlPicsICctb21hZScsICc8b3V0ZmlsZS5tYWU+Jw==

>  <s_epik_input>  (296) 
Q2xjKFtjSF0xKVtjSF1bY0hdYyhjMTIpW05IXUMoPU8pW0NIMl1OKFtDQEhdMmMzYyhGKVtjSF1bY0hdW2NIXVtjSF0zKVtDSDJdYzRbY0hdYyhGKWMoW2NIXVtjSF00KU41W0NIMl1bQ0gyXU4oW0NIM10pW0NIMl1bQ0gyXTU=

>  <s_i_glide_gridfile>  (296) 
ATP-Grid

>  <s_lp_Force_Field>  (296) 
OPLS_2005

>  <s_lp_Variant>  (296) 
m_270004bda____24171218____7548392-1

>  <s_lp_label>  (296) 
1483_sdstereoexpander_1_neutralizer_1_epik_1_stereoizer_1

>  <s_m_source_file>  (296) 
ATP-VSW-LIGPREP-003-in.maegz

>  <s_sd_BIOSOLVEIT.INFINISEE\_QUERY\_NAME>  (296) 
Ref-Lig

>  <s_sd_BIOSOLVEIT.INFINISEE\_QUERY\_SMILES>  (296) 
S(c1nc2c(cc1C[NH2+]Cc3ccc(cc3)C[NH+](C)C)cccc2)Cc4ccccc4

>  <s_sd_BIOSOLVEIT.INFINISEE\_REACTION\_NAME>  (296) 
m_270004bda

>  <s_sd_BIOSOLVEIT.INFINISEE\_REAGENT1\_SMILES>  (296) 
[R1*]N1C(c2c(F)cccc2)c3c(NC(=O)C1)ccc(Cl)c3

>  <s_sd_BIOSOLVEIT.INFINISEE\_REAGENT2\_SMILES>  (296) 
[R1*]Cc1cc(F)c(N2CCN(CC2)C)cc1

>  <s_sd_BIOSOLVEIT.INFINISEE\_SPACE>  (296) 
REALSpace_44bn_2023-08

>  <s_vsw_compound_code>  (296) 
47427

>  <s_vsw_variant>  (296) 
47427-1

>  <r_epik_Charging_Adjusted_Penalty>  (296) 
0.12615417500441301

>  <r_epik_Ionization_Penalty>  (296) 
0.0608

>  <r_epik_Ionization_Penalty_Charging>  (296) 
0.053400000000000003

>  <r_epik_Ionization_Penalty_Neutral>  (296) 
0.0074000000000000003

>  <r_epik_State_Penalty>  (296) 
0.072800000000000004

>  <r_i_docking_score>  (296) 
-1.5929760558464301

>  <r_i_glide_ecoul>  (296) 
-6.9587111473083496

>  <r_i_glide_eff_state_penalty>  (296) 
0.072800000000000004

>  <r_i_glide_einternal>  (296) 
3.1277480125427202

>  <r_i_glide_emodel>  (296) 
-42.408160924101999

>  <r_i_glide_energy>  (296) 
-38.778172969818101

>  <r_i_glide_erotb>  (296) 
0.32909133365466497

>  <r_i_glide_esite>  (296) 
-0.097234433079423296

>  <r_i_glide_evdw>  (296) 
-31.819461822509801

>  <r_i_glide_gscore>  (296) 
-1.6657760558464301

>  <r_i_glide_hbond>  (296) 
-0.17815926245021299

>  <r_i_glide_ligand_efficiency>  (296) 
-0.045513601595612303

>  <r_i_glide_ligand_efficiency_ln>  (296) 
-0.34969359845701697

>  <r_i_glide_ligand_efficiency_sa>  (296) 
-0.14887800865831499

>  <r_i_glide_lipo>  (296) 
-0.60912070350757797

>  <r_i_glide_metal>  (296) 
-0

>  <r_i_glide_rewards>  (296) 
1.52442677275786

>  <r_lp_Energy>  (296) 
79.470101

>  <r_qp_ACxDN^.5/SA>  (296) 
0.011025800000000001

>  <r_qp_CIQPlogS>  (296) 
-5.266

>  <r_qp_EA(eV)>  (296) 
0.46800000000000003

>  <r_qp_FISA>  (296) 
75.188999999999993

>  <r_qp_FOSA>  (296) 
247.31700000000001

>  <r_qp_IP(eV)>  (296) 
8.5449999999999999

>  <r_qp_Jm>  (296) 
0.00011715069759536501

>  <r_qp_PISA>  (296) 
239.346

>  <r_qp_PSA>  (296) 
52.192

>  <r_qp_PercentHumanOralAbsorption>  (296) 
86.738

>  <r_qp_QPPCaco>  (296) 
119.31

>  <r_qp_QPPMDCK>  (296) 
270.73000000000002

>  <r_qp_QPlogBB>  (296) 
0.872

>  <r_qp_QPlogHERG>  (296) 
-6.1829999999999998

>  <r_qp_QPlogKhsa>  (296) 
0.76900000000000002

>  <r_qp_QPlogKp>  (296) 
-5.9950000000000001

>  <r_qp_QPlogPC16>  (296) 
13.435

>  <r_qp_QPlogPo/w>  (296) 
3.8639999999999999

>  <r_qp_QPlogPoct>  (296) 
22.802

>  <r_qp_QPlogPw>  (296) 
11.948

>  <r_qp_QPlogS>  (296) 
-3.6320000000000001

>  <r_qp_QPpolrz>  (296) 
49.286999999999999

>  <r_qp_SASA>  (296) 
680.22199999999998

>  <r_qp_SAamideO>  (296) 
0

>  <r_qp_SAfluorine>  (296) 
46.841000000000001

>  <r_qp_WPSA>  (296) 
118.37

>  <r_qp_accptHB>  (296) 
7.5

>  <r_qp_dip^2/V>  (296) 
0.015676499999999999

>  <r_qp_dipole>  (296) 
4.6180000000000003

>  <r_qp_donorHB>  (296) 
1

>  <r_qp_glob>  (296) 
0.87284430000000002

>  <r_qp_mol_MW>  (296) 
496.98599999999999

>  <r_qp_volume>  (296) 
1360.297

>  <r_sd_BIOSOLVEIT.INFINISEE\_FTREES\_SIMILARITY>  (296) 
0.90700000000000003

>  <r_sd_BIOSOLVEIT.LOGP>  (296) 
2.0794999999999999

>  <r_sd_BIOSOLVEIT.MOLECULAR\_WEIGHT>  (296) 
499.00200000000001

>  <r_sd_BIOSOLVEIT.TPSA>  (296) 
41.219999999999999

>  <i_epik_Tot_Q>  (296) 
1

>  <i_epik_Tot_abs_Q>  (296) 
1

>  <i_f3d_flags>  (296) 
0

>  <i_i_glide_confnum>  (296) 
3

>  <i_i_glide_lignum>  (296) 
567

>  <i_i_glide_posenum>  (296) 
5

>  <i_i_glide_rotatable_bonds>  (296) 
4

>  <i_lp_mmshare_version>  (296) 
65135

>  <i_m_ct_format>  (296) 
2

>  <i_m_source_file_index>  (296) 
1483

>  <i_qp_#NandO>  (296) 
5

>  <i_qp_#acid>  (296) 
0

>  <i_qp_#amide>  (296) 
0

>  <i_qp_#amidine>  (296) 
0

>  <i_qp_#amine>  (296) 
2

>  <i_qp_#in34>  (296) 
0

>  <i_qp_#in56>  (296) 
24

>  <i_qp_#metab>  (296) 
7

>  <i_qp_#nonHatm>  (296) 
35

>  <i_qp_#noncon>  (296) 
6

>  <i_qp_#ringatoms>  (296) 
29

>  <i_qp_#rotor>  (296) 
2

>  <i_qp_#rtvFG>  (296) 
0

>  <i_qp_#stars>  (296) 
0

>  <i_qp_CNS>  (296) 
2

>  <i_qp_HumanOralAbsorption>  (296) 
3

>  <i_qp_RuleOfFive>  (296) 
0

>  <i_qp_RuleOfThree>  (296) 
1

>  <i_sd_BIOSOLVEIT.INFINISEE\_REAGENT1\_NAME>  (296) 
24171218

>  <i_sd_BIOSOLVEIT.INFINISEE\_REAGENT2\_NAME>  (296) 
7548392

>  <i_sd_BIOSOLVEIT.INFINISEE\_RESULT\_RANK>  (296) 
58194

>  <i_sd_version>  (296) 
0

>  <b_lp_Chiralities_Consistent>  (296) 
1

>  <b_sd_chiral_flag>  (296) 
0

>  <canonical_id>  (296) 
ATP-HTVS-2FD0321978A1

>  <compound_code>  (296) 
47427

>  <title>  (296) 
m_270004bda____24171218____7548392

>  <variant>  (296) 
47427-1

>  <source_file>  (296) 
运行/运行/ATP-VSW/ATP-VSW-DOCK_HTVS_1-003_lib/ATP-VSW-DOCK_HTVS_1-003_lib.mae

>  <canonical_smiles>  (296) 
C[NH+]1CCN(c2ccc(CN3CC(=O)Nc4ccc(Cl)cc4[C@@H]3c3ccccc3F)cc2F)CC1

>  <scaffold>  (296) 
O=C1CN(Cc2ccc(N3CC[NH2+]CC3)cc2)C(c2ccccc2)c2ccccc2N1

>  <molecular_formula>  (296) 
C27H28ClF2N4O+

$$$$
ATP-HTVS-2FDBF4F6464D
     RDKit          3D

 56 59  0  0  0  0  0  0  0  0999 V2000
  200.3232  185.8288  159.7202 F   0  0  0  0  0  0  0  0  0  0  0  0
  199.0770  186.0352  159.2334 C   0  0  0  0  0  0  0  0  0  0  0  0
  198.2068  184.9439  159.0508 C   0  0  0  0  0  0  0  0  0  0  0  0
  196.9102  185.1479  158.5307 C   0  0  0  0  0  0  0  0  0  0  0  0
  196.4910  186.4568  158.2014 C   0  0  0  0  0  0  0  0  0  0  0  0
  197.3587  187.5500  158.3946 C   0  0  0  0  0  0  0  0  0  0  0  0
  198.6510  187.3383  158.9133 C   0  0  0  0  0  0  0  0  0  0  0  0
  195.9787  183.9651  158.3139 C   0  0  1  0  0  0  0  0  0  0  0  0
  196.5243  182.9142  157.3226 C   0  0  1  0  0  0  0  0  0  0  0  0
  195.5510  181.8374  157.1081 N   0  0  2  0  0  0  0  0  0  0  0  0
  196.8196  183.4307  155.9744 C   0  0  0  0  0  0  0  0  0  0  0  0
  197.1018  183.8543  154.8640 C   0  0  0  0  0  0  0  0  0  0  0  0
  197.4329  184.3273  153.5252 C   0  0  0  0  0  0  0  0  0  0  0  0
  197.1624  183.5806  152.3462 C   0  0  0  0  0  0  0  0  0  0  0  0
  196.5350  182.3031  152.3751 N   0  0  0  0  0  0  0  0  0  0  0  0
  197.0863  181.1676  152.8310 C   0  0  0  0  0  0  0  0  0  0  0  0
  198.1159  181.1247  153.5018 O   0  0  0  0  0  0  0  0  0  0  0  0
  196.3523  179.8723  152.4869 C   0  0  1  0  0  0  0  0  0  0  0  0
  196.9557  179.2475  151.2412 C   0  0  0  0  0  0  0  0  0  0  0  0
  196.3701  179.4685  149.9759 C   0  0  0  0  0  0  0  0  0  0  0  0
  196.9241  178.8732  148.8245 C   0  0  0  0  0  0  0  0  0  0  0  0
  198.0611  178.0499  148.9341 C   0  0  0  0  0  0  0  0  0  0  0  0
  198.5966  177.4654  147.8253 O   0  0  0  0  0  0  0  0  0  0  0  0
  198.6479  177.8265  150.1935 C   0  0  0  0  0  0  0  0  0  0  0  0
  198.0973  178.4240  151.3436 C   0  0  0  0  0  0  0  0  0  0  0  0
  197.4769  184.1641  151.0921 C   0  0  0  0  0  0  0  0  0  0  0  0
  198.0851  185.4500  151.0711 C   0  0  0  0  0  0  0  0  0  0  0  0
  198.3540  186.1388  152.1983 N   0  0  0  0  0  0  0  0  0  0  0  0
  198.0294  185.5941  153.3857 C   0  0  0  0  0  0  0  0  0  0  0  0
  198.4081  186.0255  149.8299 C   0  0  0  0  0  0  0  0  0  0  0  0
  198.1459  185.3582  148.6196 C   0  0  0  0  0  0  0  0  0  0  0  0
  197.5465  184.0896  148.6412 C   0  0  0  0  0  0  0  0  0  0  0  0
  197.2148  183.4930  149.8701 C   0  0  0  0  0  0  0  0  0  0  0  0
  195.9438  181.1332  156.4929 H   0  0  0  0  0  0  0  0  0  0  0  0
  194.7014  182.2102  156.6634 H   0  0  0  0  0  0  0  0  0  0  0  0
  198.5478  183.9506  159.3028 H   0  0  0  0  0  0  0  0  0  0  0  0
  195.5053  186.6320  157.7953 H   0  0  0  0  0  0  0  0  0  0  0  0
  197.0332  188.5497  158.1454 H   0  0  0  0  0  0  0  0  0  0  0  0
  199.3163  188.1748  159.0698 H   0  0  0  0  0  0  0  0  0  0  0  0
  195.8080  183.5003  159.2850 H   0  0  0  0  0  0  0  0  0  0  0  0
  194.9992  184.3191  157.9945 H   0  0  0  0  0  0  0  0  0  0  0  0
  197.4448  182.4751  157.7066 H   0  0  0  0  0  0  0  0  0  0  0  0
  195.7058  182.2148  151.8102 H   0  0  0  0  0  0  0  0  0  0  0  0
  196.4176  179.1782  153.3252 H   0  0  0  0  0  0  0  0  0  0  0  0
  195.2959  180.0630  152.3149 H   0  0  0  0  0  0  0  0  0  0  0  0
  195.4875  180.0832  149.8848 H   0  0  0  0  0  0  0  0  0  0  0  0
  196.4654  179.0374  147.8614 H   0  0  0  0  0  0  0  0  0  0  0  0
  198.1264  177.6503  147.0269 H   0  0  0  0  0  0  0  0  0  0  0  0
  199.5205  177.1960  150.2807 H   0  0  0  0  0  0  0  0  0  0  0  0
  198.5495  178.2431  152.3092 H   0  0  0  0  0  0  0  0  0  0  0  0
  198.2490  186.2006  154.2538 H   0  0  0  0  0  0  0  0  0  0  0  0
  198.8598  187.0037  149.8143 H   0  0  0  0  0  0  0  0  0  0  0  0
  198.4037  185.8206  147.6774 H   0  0  0  0  0  0  0  0  0  0  0  0
  197.3487  183.5725  147.7125 H   0  0  0  0  0  0  0  0  0  0  0  0
  196.7739  182.5087  149.8528 H   0  0  0  0  0  0  0  0  0  0  0  0
  195.3252  181.3351  157.9642 H   0  0  0  0  0  0  0  0  0  0  0  0
  1  2  1  0
  2  3  2  0
  2  7  1  0
  3  4  1  0
  3 36  1  0
  4  5  2  0
  4  8  1  0
  5  6  1  0
  5 37  1  0
  6  7  2  0
  6 38  1  0
  7 39  1  0
  8  9  1  0
  8 40  1  1
  8 41  1  0
  9 10  1  0
  9 11  1  0
  9 42  1  1
 10 34  1  6
 10 35  1  0
 10 56  1  0
 11 12  3  0
 12 13  1  0
 13 14  2  0
 13 29  1  0
 14 15  1  0
 14 26  1  0
 15 16  1  0
 15 43  1  0
 16 17  2  0
 16 18  1  0
 18 19  1  0
 18 44  1  1
 18 45  1  0
 19 20  1  0
 19 25  2  0
 20 21  2  0
 20 46  1  0
 21 22  1  0
 21 47  1  0
 22 23  1  0
 22 24  2  0
 23 48  1  0
 24 25  1  0
 24 49  1  0
 25 50  1  0
 26 27  1  0
 26 33  2  0
 27 28  1  0
 27 30  2  0
 28 29  2  0
 29 51  1  0
 30 31  1  0
 30 52  1  0
 31 32  2  0
 31 53  1  0
 32 33  1  0
 32 54  1  0
 33 55  1  0
M  CHG  1  10   1
M  END
>  <s_epik_cmdline>  (297) 
J2VwaWtfcHl0aG9uJywgJy1waCcsICc3LjAwMDAwMCcsICctcGh0JywgJzIuMDAwMDAwJywgJy1tcycsICcxNicsICctdG4nLCAnOCcsICctbWEnLCAnMjAwJywgJy1pbWFlJywgJzxpbmZpbGUubWFlPicsICctb21hZScsICc8b3V0ZmlsZS5tYWU+Jw==

>  <s_epik_input>  (297) 
RmMxW2NIXWMoW2NIXVtjSF1bY0hdMSlbQ0gyXVtDQEBIXShbTkgyXSlDI0NjKFtjSF1uYyhjMjMpW2NIXVtjSF1bY0hdW2NIXTMpYzJbTkhdQyg9TylbQ0gyXWM0W2NIXVtjSF1jKFtPSF0pW2NIXVtjSF00

>  <s_i_glide_gridfile>  (297) 
ATP-Grid

>  <s_lp_Force_Field>  (297) 
OPLS_2005

>  <s_lp_Variant>  (297) 
rxn503b____EMOL521529____EMOL13728749____EMOL313110234-3

>  <s_lp_label>  (297) 
2664_sdstereoexpander_1_neutralizer_1_epik_2_stereoizer_1

>  <s_m_source_file>  (297) 
ATP-VSW-LIGPREP-002-in.maegz

>  <s_sd_BIOSOLVEIT.INFINISEE\_QUERY\_NAME>  (297) 
Ref-Lig

>  <s_sd_BIOSOLVEIT.INFINISEE\_QUERY\_SMILES>  (297) 
S(c1nc2c(cc1C[NH2+]Cc3ccc(cc3)C[NH+](C)C)cccc2)Cc4ccccc4

>  <s_sd_BIOSOLVEIT.INFINISEE\_REACTION\_NAME>  (297) 
rxn503b

>  <s_sd_BIOSOLVEIT.INFINISEE\_REAGENT1\_NAME>  (297) 
EMOL521529

>  <s_sd_BIOSOLVEIT.INFINISEE\_REAGENT1\_SMILES>  (297) 
O=C(O)Cc1ccc(O)cc1

>  <s_sd_BIOSOLVEIT.INFINISEE\_REAGENT2\_NAME>  (297) 
EMOL13728749

>  <s_sd_BIOSOLVEIT.INFINISEE\_REAGENT2\_SMILES>  (297) 
Brc1c(N)c2c(nc1)cccc2

>  <s_sd_BIOSOLVEIT.INFINISEE\_REAGENT3\_NAME>  (297) 
EMOL313110234

>  <s_sd_BIOSOLVEIT.INFINISEE\_REAGENT3\_SMILES>  (297) 
Fc1cc(ccc1)CC(N)C#C

>  <s_sd_BIOSOLVEIT.INFINISEE\_SPACE>  (297) 
eXplore_7tr_2022-12

>  <s_vsw_compound_code>  (297) 
85218

>  <s_vsw_variant>  (297) 
85218-3

>  <r_epik_Charging_Adjusted_Penalty>  (297) 
1.2272309075976999

>  <r_epik_Ionization_Penalty>  (297) 
0.61450000000000005

>  <r_epik_Ionization_Penalty_Charging>  (297) 
0.61299999999999999

>  <r_epik_Ionization_Penalty_Neutral>  (297) 
0.0015

>  <r_epik_State_Penalty>  (297) 
0.61429999999999996

>  <r_i_docking_score>  (297) 
-5.5539810490699004

>  <r_i_glide_ecoul>  (297) 
-12.1649789810181

>  <r_i_glide_eff_state_penalty>  (297) 
0.61429999999999996

>  <r_i_glide_einternal>  (297) 
1.5409897565841699

>  <r_i_glide_emodel>  (297) 
-72.371687795321193

>  <r_i_glide_energy>  (297) 
-47.250531196594203

>  <r_i_glide_erotb>  (297) 
0.72034826401853302

>  <r_i_glide_esite>  (297) 
-0.14376479162004599

>  <r_i_glide_evdw>  (297) 
-35.0855522155762

>  <r_i_glide_gscore>  (297) 
-6.1682810490698996

>  <r_i_glide_hbond>  (297) 
-0.226757053210037

>  <r_i_glide_ligand_efficiency>  (297) 
-0.168302456032421

>  <r_i_glide_ligand_efficiency_ln>  (297) 
-1.2351766283383101

>  <r_i_glide_ligand_efficiency_sa>  (297) 
-0.53983590491742395

>  <r_i_glide_lipo>  (297) 
-2.4260634683970501

>  <r_i_glide_metal>  (297) 
-0

>  <r_i_glide_rewards>  (297) 
-0.51301954192978305

>  <r_lp_Energy>  (297) 
29.736356000000001

>  <r_lp_tautomer_probability>  (297) 
0.999999999997365

>  <r_qp_ACxDN^.5/SA>  (297) 
0.0136113

>  <r_qp_CIQPlogS>  (297) 
-6.0030000000000001

>  <r_qp_EA(eV)>  (297) 
1.171

>  <r_qp_FISA>  (297) 
156.49600000000001

>  <r_qp_FOSA>  (297) 
88.128

>  <r_qp_IP(eV)>  (297) 
8.8049999999999997

>  <r_qp_Jm>  (297) 
0.00025426364424347699

>  <r_qp_PISA>  (297) 
484.29000000000002

>  <r_qp_PSA>  (297) 
95.040000000000006

>  <r_qp_PercentHumanOralAbsorption>  (297) 
86.543000000000006

>  <r_qp_QPPCaco>  (297) 
81.049999999999997

>  <r_qp_QPPMDCK>  (297) 
61.881999999999998

>  <r_qp_QPlogBB>  (297) 
-1.1839999999999999

>  <r_qp_QPlogHERG>  (297) 
-8.1010000000000009

>  <r_qp_QPlogKhsa>  (297) 
0.72399999999999998

>  <r_qp_QPlogKp>  (297) 
-3.8959999999999999

>  <r_qp_QPlogPC16>  (297) 
16.425000000000001

>  <r_qp_QPlogPo/w>  (297) 
4.3440000000000003

>  <r_qp_QPlogPoct>  (297) 
25.692

>  <r_qp_QPlogPw>  (297) 
14.994

>  <r_qp_QPlogS>  (297) 
-5.3410000000000002

>  <r_qp_QPpolrz>  (297) 
48.405000000000001

>  <r_qp_SASA>  (297) 
771.41899999999998

>  <r_qp_SAamideO>  (297) 
0

>  <r_qp_SAfluorine>  (297) 
42.505000000000003

>  <r_qp_WPSA>  (297) 
42.505000000000003

>  <r_qp_accptHB>  (297) 
5.25

>  <r_qp_dip^2/V>  (297) 
0.033611299999999997

>  <r_qp_dipole>  (297) 
6.8399999999999999

>  <r_qp_donorHB>  (297) 
4

>  <r_qp_glob>  (297) 
0.78161570000000002

>  <r_qp_mol_MW>  (297) 
439.488

>  <r_qp_volume>  (297) 
1392.123

>  <r_sd_BIOSOLVEIT.INFINISEE\_FTREES\_SIMILARITY>  (297) 
0.90900000000000003

>  <r_sd_BIOSOLVEIT.LOGP>  (297) 
3.4653999999999998

>  <r_sd_BIOSOLVEIT.MOLECULAR\_WEIGHT>  (297) 
440.49599999999998

>  <r_sd_BIOSOLVEIT.TPSA>  (297) 
89.859999999999999

>  <i_epik_Tot_Q>  (297) 
1

>  <i_epik_Tot_abs_Q>  (297) 
1

>  <i_f3d_flags>  (297) 
0

>  <i_i_glide_confnum>  (297) 
4

>  <i_i_glide_lignum>  (297) 
1278

>  <i_i_glide_posenum>  (297) 
7

>  <i_i_glide_rotatable_bonds>  (297) 
9

>  <i_lp_mmshare_version>  (297) 
65135

>  <i_m_ct_format>  (297) 
2

>  <i_m_source_file_index>  (297) 
2664

>  <i_qp_#NandO>  (297) 
5

>  <i_qp_#acid>  (297) 
0

>  <i_qp_#amide>  (297) 
0

>  <i_qp_#amidine>  (297) 
0

>  <i_qp_#amine>  (297) 
1

>  <i_qp_#in34>  (297) 
0

>  <i_qp_#in56>  (297) 
22

>  <i_qp_#metab>  (297) 
7

>  <i_qp_#nonHatm>  (297) 
33

>  <i_qp_#noncon>  (297) 
0

>  <i_qp_#ringatoms>  (297) 
22

>  <i_qp_#rotor>  (297) 
9

>  <i_qp_#rtvFG>  (297) 
0

>  <i_qp_#stars>  (297) 
1

>  <i_qp_CNS>  (297) 
-2

>  <i_qp_HumanOralAbsorption>  (297) 
3

>  <i_qp_RuleOfFive>  (297) 
0

>  <i_qp_RuleOfThree>  (297) 
1

>  <i_sd_BIOSOLVEIT.INFINISEE\_RESULT\_RANK>  (297) 
48133

>  <i_sd_version>  (297) 
0

>  <b_lp_Chiralities_Consistent>  (297) 
1

>  <b_sd_chiral_flag>  (297) 
0

>  <canonical_id>  (297) 
ATP-HTVS-2FDBF4F6464D

>  <compound_code>  (297) 
85218

>  <title>  (297) 
rxn503b____EMOL521529____EMOL13728749____EMOL313110234

>  <variant>  (297) 
85218-3

>  <source_file>  (297) 
运行/运行/ATP-VSW/ATP-VSW-DOCK_HTVS_1-002_lib.maegz

>  <canonical_smiles>  (297) 
[NH3+][C@@H](C#Cc1cnc2ccccc2c1NC(=O)Cc1ccc(O)cc1)Cc1cccc(F)c1

>  <scaffold>  (297) 
O=C(Cc1ccccc1)Nc1c(C#CCCc2ccccc2)cnc2ccccc12

>  <molecular_formula>  (297) 
C27H23FN3O2+

$$$$
ATP-HTVS-2FF622879777
     RDKit          3D

 50 53  0  0  0  0  0  0  0  0999 V2000
  193.2731  187.0848  162.1659 S   0  0  0  0  0  0  0  0  0  0  0  0
  194.5986  186.6282  161.1325 C   0  0  0  0  0  0  0  0  0  0  0  0
  195.7385  187.4462  160.9582 C   0  0  0  0  0  0  0  0  0  0  0  0
  196.8024  186.9926  160.1413 C   0  0  0  0  0  0  0  0  0  0  0  0
  196.7695  185.7356  159.5181 C   0  0  0  0  0  0  0  0  0  0  0  0
  195.5916  184.9598  159.6795 C   0  0  0  0  0  0  0  0  0  0  0  0
  194.5198  185.4108  160.4602 C   0  0  0  0  0  0  0  0  0  0  0  0
  197.9375  185.2871  158.6908 C   0  0  0  0  0  0  0  0  0  0  0  0
  198.5645  186.1049  158.0092 O   0  0  0  0  0  0  0  0  0  0  0  0
  198.3188  184.0080  158.8308 N   0  0  0  0  0  0  0  0  0  0  0  0
  199.3584  183.3690  158.1086 C   0  0  0  0  0  0  0  0  0  0  0  0
  199.1682  182.9533  156.7629 C   0  0  0  0  0  0  0  0  0  0  0  0
  197.9985  183.2213  156.0119 N   0  0  0  0  0  0  0  0  0  0  0  0
  197.9974  184.0695  154.8764 C   0  0  0  0  0  0  0  0  0  0  0  0
  198.7897  185.2453  154.8685 C   0  0  0  0  0  0  0  0  0  0  0  0
  198.7723  186.1240  153.7646 C   0  0  0  0  0  0  0  0  0  0  0  0
  197.9940  185.8225  152.6321 C   0  0  0  0  0  0  0  0  0  0  0  0
  197.2226  184.6484  152.6169 C   0  0  0  0  0  0  0  0  0  0  0  0
  197.2069  183.8005  153.7269 C   0  0  0  0  0  0  0  0  0  0  0  0
  196.8485  182.2906  156.1290 C   0  0  1  0  0  0  0  0  0  0  0  0
  196.9362  181.1063  155.2490 C   0  0  0  0  0  0  0  0  0  0  0  0
  196.9946  180.1969  154.5345 N   0  0  0  0  0  0  0  0  0  0  0  0
  196.5109  181.8380  157.5248 C   0  0  2  0  0  0  0  0  0  0  0  0
  200.2451  182.2820  156.1374 C   0  0  0  0  0  0  0  0  0  0  0  0
  201.4146  181.9946  156.7490 N   0  0  0  0  0  0  0  0  0  0  0  0
  201.5902  182.3573  158.0345 C   0  0  0  0  0  0  0  0  0  0  0  0
  200.5765  183.0405  158.7651 C   0  0  0  0  0  0  0  0  0  0  0  0
  200.7996  183.3885  160.1157 C   0  0  0  0  0  0  0  0  0  0  0  0
  202.0104  183.0763  160.7530 C   0  0  0  0  0  0  0  0  0  0  0  0
  203.0228  182.4135  160.0377 C   0  0  0  0  0  0  0  0  0  0  0  0
  202.8056  182.0560  158.6917 C   0  0  0  0  0  0  0  0  0  0  0  0
  195.8238  188.3983  161.4552 H   0  0  0  0  0  0  0  0  0  0  0  0
  197.6962  187.6107  160.0363 H   0  0  0  0  0  0  0  0  0  0  0  0
  195.3983  183.9903  159.2289 H   0  0  0  0  0  0  0  0  0  0  0  0
  193.6565  184.7606  160.5338 H   0  0  0  0  0  0  0  0  0  0  0  0
  197.7877  183.4250  159.4557 H   0  0  0  0  0  0  0  0  0  0  0  0
  199.3993  185.5096  155.7214 H   0  0  0  0  0  0  0  0  0  0  0  0
  199.3415  187.0410  153.7926 H   0  0  0  0  0  0  0  0  0  0  0  0
  197.9639  186.4957  151.7893 H   0  0  0  0  0  0  0  0  0  0  0  0
  196.6020  184.3994  151.7721 H   0  0  0  0  0  0  0  0  0  0  0  0
  196.5558  182.9491  153.6297 H   0  0  0  0  0  0  0  0  0  0  0  0
  195.9719  182.8754  155.8369 H   0  0  0  0  0  0  0  0  0  0  0  0
  195.5271  181.3776  157.5853 H   0  0  0  0  0  0  0  0  0  0  0  0
  196.4002  182.7149  158.1259 H   0  0  0  0  0  0  0  0  0  0  0  0
  197.2578  181.1786  157.9804 H   0  0  0  0  0  0  0  0  0  0  0  0
  200.1644  181.9764  155.1049 H   0  0  0  0  0  0  0  0  0  0  0  0
  200.0316  183.8780  160.6870 H   0  0  0  0  0  0  0  0  0  0  0  0
  202.1608  183.3576  161.7883 H   0  0  0  0  0  0  0  0  0  0  0  0
  203.9633  182.1904  160.5210 H   0  0  0  0  0  0  0  0  0  0  0  0
  203.5889  181.5464  158.1462 H   0  0  0  0  0  0  0  0  0  0  0  0
  1  2  1  0
  2  3  1  0
  2  7  2  0
  3  4  2  0
  3 32  1  0
  4  5  1  0
  4 33  1  0
  5  6  2  0
  5  8  1  0
  6  7  1  0
  6 34  1  0
  7 35  1  0
  8  9  2  0
  8 10  1  0
 10 11  1  0
 10 36  1  0
 11 12  2  0
 11 27  1  0
 12 13  1  0
 12 24  1  0
 13 14  1  0
 13 20  1  0
 14 15  2  0
 14 19  1  0
 15 16  1  0
 15 37  1  0
 16 17  2  0
 16 38  1  0
 17 18  1  0
 17 39  1  0
 18 19  2  0
 18 40  1  0
 19 41  1  0
 20 21  1  0
 20 23  1  0
 20 42  1  6
 21 22  3  0
 23 43  1  6
 23 44  1  0
 23 45  1  0
 24 25  2  0
 24 46  1  0
 25 26  1  0
 26 27  1  0
 26 31  2  0
 27 28  2  0
 28 29  1  0
 28 47  1  0
 29 30  2  0
 29 48  1  0
 30 31  1  0
 30 49  1  0
 31 50  1  0
M  CHG  1   1  -1
M  END
>  <s_epik_cmdline>  (298) 
J2VwaWtfcHl0aG9uJywgJy1waCcsICc3LjAwMDAwMCcsICctcGh0JywgJzIuMDAwMDAwJywgJy1tcycsICcxNicsICctdG4nLCAnOCcsICctbWEnLCAnMjAwJywgJy1pbWFlJywgJzxpbmZpbGUubWFlPicsICctb21hZScsICc8b3V0ZmlsZS5tYWU+Jw==

>  <s_epik_input>  (298) 
W1NIXWMxW2NIXVtjSF1jKFtjSF1bY0hdMSlDKD1PKVtOSF1jKGMoYzIzKVtjSF1bY0hdW2NIXVtjSF0zKWMoW2NIXW4yKU4oW0NAQEhdKEMjTilbQ0gzXSljNFtjSF1bY0hdW2NIXVtjSF1bY0hdNA==

>  <s_i_glide_gridfile>  (298) 
ATP-Grid

>  <s_lp_Force_Field>  (298) 
OPLS_2005

>  <s_lp_Variant>  (298) 
rxn502b____EMOL528443____EMOL13728749____EMOL36790511-1

>  <s_lp_label>  (298) 
2898_sdstereoexpander_1_neutralizer_1_epik_1_stereoizer_1

>  <s_m_source_file>  (298) 
ATP-VSW-LIGPREP-003-in.maegz

>  <s_sd_BIOSOLVEIT.INFINISEE\_QUERY\_NAME>  (298) 
Ref-Lig

>  <s_sd_BIOSOLVEIT.INFINISEE\_QUERY\_SMILES>  (298) 
S(c1nc2c(cc1C[NH2+]Cc3ccc(cc3)C[NH+](C)C)cccc2)Cc4ccccc4

>  <s_sd_BIOSOLVEIT.INFINISEE\_REACTION\_NAME>  (298) 
rxn502b

>  <s_sd_BIOSOLVEIT.INFINISEE\_REAGENT1\_NAME>  (298) 
EMOL528443

>  <s_sd_BIOSOLVEIT.INFINISEE\_REAGENT1\_SMILES>  (298) 
Sc1ccc(cc1)C(=O)O

>  <s_sd_BIOSOLVEIT.INFINISEE\_REAGENT2\_NAME>  (298) 
EMOL13728749

>  <s_sd_BIOSOLVEIT.INFINISEE\_REAGENT2\_SMILES>  (298) 
Brc1c(N)c2c(nc1)cccc2

>  <s_sd_BIOSOLVEIT.INFINISEE\_REAGENT3\_NAME>  (298) 
EMOL36790511

>  <s_sd_BIOSOLVEIT.INFINISEE\_REAGENT3\_SMILES>  (298) 
N#CC(Nc1ccccc1)C

>  <s_sd_BIOSOLVEIT.INFINISEE\_SPACE>  (298) 
eXplore_7tr_2022-12

>  <s_vsw_compound_code>  (298) 
92707

>  <s_vsw_variant>  (298) 
92707-1

>  <r_epik_Charging_Adjusted_Penalty>  (298) 
0.0025391253732997801

>  <r_epik_Ionization_Penalty>  (298) 
0.0051999999999999998

>  <r_epik_Ionization_Penalty_Charging>  (298) 
0.0025000000000000001

>  <r_epik_Ionization_Penalty_Neutral>  (298) 
0.0027000000000000001

>  <r_epik_State_Penalty>  (298) 
-0

>  <r_i_docking_score>  (298) 
-3.6976645887850199

>  <r_i_glide_ecoul>  (298) 
-0.93480676412582397

>  <r_i_glide_eff_state_penalty>  (298) 
-0

>  <r_i_glide_einternal>  (298) 
7.9294261932373002

>  <r_i_glide_emodel>  (298) 
-39.285470376884497

>  <r_i_glide_energy>  (298) 
-34.452178895473502

>  <r_i_glide_erotb>  (298) 
0.55251795857730401

>  <r_i_glide_esite>  (298) 
-0.064052934200469799

>  <r_i_glide_evdw>  (298) 
-33.517372131347699

>  <r_i_glide_gscore>  (298) 
-3.6976645887850199

>  <r_i_glide_hbond>  (298) 
0

>  <r_i_glide_ligand_efficiency>  (298) 
-0.11927950286403299

>  <r_i_glide_ligand_efficiency_ln>  (298) 
-0.83393668458147296

>  <r_i_glide_ligand_efficiency_sa>  (298) 
-0.37470232209502902

>  <r_i_glide_lipo>  (298) 
-1.7370197398948299

>  <r_i_glide_metal>  (298) 
-0

>  <r_i_glide_rewards>  (298) 
-0.63302025208076795

>  <r_lp_Energy>  (298) 
38.291998999999997

>  <r_lp_tautomer_probability>  (298) 
1

>  <r_qp_ACxDN^.5/SA>  (298) 
0.0110691

>  <r_qp_CIQPlogS>  (298) 
-7.718

>  <r_qp_EA(eV)>  (298) 
1.2689999999999999

>  <r_qp_FISA>  (298) 
121.584

>  <r_qp_FOSA>  (298) 
69.515000000000001

>  <r_qp_IP(eV)>  (298) 
8.5660000000000007

>  <r_qp_Jm>  (298) 
0.00052067499613638404

>  <r_qp_PISA>  (298) 
458.60199999999998

>  <r_qp_PSA>  (298) 
68.343000000000004

>  <r_qp_PercentHumanOralAbsorption>  (298) 
100

>  <r_qp_QPPCaco>  (298) 
696.49400000000003

>  <r_qp_QPPMDCK>  (298) 
889.77999999999997

>  <r_qp_QPlogBB>  (298) 
-0.92900000000000005

>  <r_qp_QPlogHERG>  (298) 
-6.9279999999999999

>  <r_qp_QPlogKhsa>  (298) 
0.70599999999999996

>  <r_qp_QPlogKp>  (298) 
-1.4730000000000001

>  <r_qp_QPlogPC16>  (298) 
15.602

>  <r_qp_QPlogPo/w>  (298) 
4.952

>  <r_qp_QPlogPoct>  (298) 
22.506

>  <r_qp_QPlogPw>  (298) 
12.445

>  <r_qp_QPlogS>  (298) 
-7.4390000000000001

>  <r_qp_QPpolrz>  (298) 
46.706000000000003

>  <r_qp_SASA>  (298) 
727.23299999999995

>  <r_qp_SAamideO>  (298) 
0

>  <r_qp_SAfluorine>  (298) 
0

>  <r_qp_WPSA>  (298) 
77.531999999999996

>  <r_qp_accptHB>  (298) 
6

>  <r_qp_dip^2/V>  (298) 
0.041252799999999999

>  <r_qp_dipole>  (298) 
7.3899999999999997

>  <r_qp_donorHB>  (298) 
1.8

>  <r_qp_glob>  (298) 
0.8017147

>  <r_qp_mol_MW>  (298) 
424.51900000000001

>  <r_qp_volume>  (298) 
1323.71

>  <r_sd_BIOSOLVEIT.INFINISEE\_FTREES\_SIMILARITY>  (298) 
0.90400000000000003

>  <r_sd_BIOSOLVEIT.LOGP>  (298) 
6.2061799999999998

>  <r_sd_BIOSOLVEIT.MOLECULAR\_WEIGHT>  (298) 
424.52499999999998

>  <r_sd_BIOSOLVEIT.TPSA>  (298) 
69.019999999999996

>  <i_epik_Tot_Q>  (298) 
-1

>  <i_epik_Tot_abs_Q>  (298) 
1

>  <i_f3d_flags>  (298) 
0

>  <i_i_glide_confnum>  (298) 
2

>  <i_i_glide_lignum>  (298) 
1410

>  <i_i_glide_posenum>  (298) 
1

>  <i_i_glide_rotatable_bonds>  (298) 
6

>  <i_lp_mmshare_version>  (298) 
65135

>  <i_m_ct_format>  (298) 
2

>  <i_m_source_file_index>  (298) 
2898

>  <i_qp_#NandO>  (298) 
5

>  <i_qp_#acid>  (298) 
0

>  <i_qp_#amide>  (298) 
0

>  <i_qp_#amidine>  (298) 
0

>  <i_qp_#amine>  (298) 
0

>  <i_qp_#in34>  (298) 
0

>  <i_qp_#in56>  (298) 
22

>  <i_qp_#metab>  (298) 
5

>  <i_qp_#nonHatm>  (298) 
31

>  <i_qp_#noncon>  (298) 
0

>  <i_qp_#ringatoms>  (298) 
22

>  <i_qp_#rotor>  (298) 
7

>  <i_qp_#rtvFG>  (298) 
1

>  <i_qp_#stars>  (298) 
2

>  <i_qp_CNS>  (298) 
-1

>  <i_qp_HumanOralAbsorption>  (298) 
1

>  <i_qp_RuleOfFive>  (298) 
0

>  <i_qp_RuleOfThree>  (298) 
1

>  <i_sd_BIOSOLVEIT.INFINISEE\_RESULT\_RANK>  (298) 
74606

>  <i_sd_version>  (298) 
0

>  <b_lp_Chiralities_Consistent>  (298) 
1

>  <b_sd_chiral_flag>  (298) 
0

>  <canonical_id>  (298) 
ATP-HTVS-2FF622879777

>  <compound_code>  (298) 
92707

>  <title>  (298) 
rxn502b____EMOL528443____EMOL13728749____EMOL36790511

>  <variant>  (298) 
92707-1

>  <source_file>  (298) 
运行/运行/ATP-VSW/ATP-VSW-DOCK_HTVS_1-003_lib/ATP-VSW-DOCK_HTVS_1-003_lib.mae

>  <canonical_smiles>  (298) 
C[C@H](C#N)N(c1ccccc1)c1cnc2ccccc2c1NC(=O)c1ccc([S-])cc1

>  <scaffold>  (298) 
O=C(Nc1c(Nc2ccccc2)cnc2ccccc12)c1ccccc1

>  <molecular_formula>  (298) 
C25H19N4OS-

$$$$
ATP-HTVS-30270CEE1891
     RDKit          3D

 63 66  0  0  0  0  0  0  0  0999 V2000
  198.8995  185.9484  157.9162 F   0  0  0  0  0  0  0  0  0  0  0  0
  198.3506  184.8334  157.3798 C   0  0  0  0  0  0  0  0  0  0  0  0
  197.4472  184.0603  158.1285 C   0  0  0  0  0  0  0  0  0  0  0  0
  196.8685  182.8923  157.5814 C   0  0  0  0  0  0  0  0  0  0  0  0
  197.2130  182.4867  156.2591 C   0  0  0  0  0  0  0  0  0  0  0  0
  198.1175  183.2858  155.5175 C   0  0  0  0  0  0  0  0  0  0  0  0
  198.6817  184.4469  156.0724 C   0  0  0  0  0  0  0  0  0  0  0  0
  196.6054  181.2319  155.6232 C   0  0  1  0  0  0  0  0  0  0  0  0
  197.2217  180.7660  154.3769 N   0  0  0  0  0  0  0  0  0  0  0  0
  198.3679  179.9768  154.3634 C   0  0  0  0  0  0  0  0  0  0  0  0
  199.2411  180.1498  153.3562 N   0  0  0  0  0  0  0  0  0  0  0  0
  200.3586  179.3966  153.2949 C   0  0  0  0  0  0  0  0  0  0  0  0
  201.2475  179.6711  152.2398 N   0  0  0  0  0  0  0  0  0  0  0  0
  201.7106  178.5923  151.3559 C   0  0  1  0  0  0  0  0  0  0  0  0
  200.5918  177.7472  150.7584 C   0  0  0  0  0  0  0  0  0  0  0  0
  199.5765  178.3350  149.9794 C   0  0  0  0  0  0  0  0  0  0  0  0
  198.5617  177.5294  149.4251 C   0  0  0  0  0  0  0  0  0  0  0  0
  197.5062  178.1418  148.6316 C   0  0  0  0  0  0  0  0  0  0  0  0
  196.6662  178.6355  148.0089 N   0  0  0  0  0  0  0  0  0  0  0  0
  198.5556  176.1391  149.6503 C   0  0  0  0  0  0  0  0  0  0  0  0
  199.5657  175.5532  150.4345 C   0  0  0  0  0  0  0  0  0  0  0  0
  200.5811  176.3550  150.9856 C   0  0  0  0  0  0  0  0  0  0  0  0
  202.6363  179.1583  150.2663 C   0  0  2  0  0  0  0  0  0  0  0  0
  200.6377  178.4392  154.2962 C   0  0  0  0  0  0  0  0  0  0  0  0
  199.6753  178.2985  155.3266 C   0  0  0  0  0  0  0  0  0  0  0  0
  198.5659  179.0764  155.3298 N   0  0  0  0  0  0  0  0  0  0  0  0
  199.8811  177.3784  156.3711 C   0  0  0  0  0  0  0  0  0  0  0  0
  201.0396  176.5741  156.3994 C   0  0  0  0  0  0  0  0  0  0  0  0
  202.0002  176.7189  155.3833 C   0  0  0  0  0  0  0  0  0  0  0  0
  201.8279  177.6731  154.3535 C   0  0  0  0  0  0  0  0  0  0  0  0
  195.8938  182.1072  158.4523 C   0  0  1  0  0  0  0  0  0  0  0  0
  194.4730  182.4228  158.1362 N   0  0  1  0  0  0  0  0  0  0  0  0
  193.5757  181.2753  158.3689 C   0  0  2  0  0  0  0  0  0  0  0  0
  193.9845  183.6566  158.7906 C   0  0  2  0  0  0  0  0  0  0  0  0
  197.2064  184.3751  159.1339 H   0  0  0  0  0  0  0  0  0  0  0  0
  198.3973  183.0357  154.5062 H   0  0  0  0  0  0  0  0  0  0  0  0
  199.3681  185.0422  155.4888 H   0  0  0  0  0  0  0  0  0  0  0  0
  196.6489  180.4239  156.3481 H   0  0  0  0  0  0  0  0  0  0  0  0
  195.5488  181.4326  155.4338 H   0  0  0  0  0  0  0  0  0  0  0  0
  197.1457  181.4131  153.6068 H   0  0  0  0  0  0  0  0  0  0  0  0
  201.1362  180.5779  151.8124 H   0  0  0  0  0  0  0  0  0  0  0  0
  202.3435  177.8899  151.9211 H   0  0  0  0  0  0  0  0  0  0  0  0
  199.5861  179.4018  149.8040 H   0  0  0  0  0  0  0  0  0  0  0  0
  197.7785  175.5169  149.2284 H   0  0  0  0  0  0  0  0  0  0  0  0
  199.5710  174.4861  150.6059 H   0  0  0  0  0  0  0  0  0  0  0  0
  201.3555  175.8873  151.5748 H   0  0  0  0  0  0  0  0  0  0  0  0
  203.0712  178.3352  149.6984 H   0  0  0  0  0  0  0  0  0  0  0  0
  203.4653  179.6918  150.7330 H   0  0  0  0  0  0  0  0  0  0  0  0
  202.1334  179.8322  149.5740 H   0  0  0  0  0  0  0  0  0  0  0  0
  199.1486  177.2805  157.1658 H   0  0  0  0  0  0  0  0  0  0  0  0
  201.2045  175.8708  157.2039 H   0  0  0  0  0  0  0  0  0  0  0  0
  202.8996  176.1253  155.3969 H   0  0  0  0  0  0  0  0  0  0  0  0
  202.6258  177.8175  153.6343 H   0  0  0  0  0  0  0  0  0  0  0  0
  196.1145  181.0462  158.3520 H   0  0  0  0  0  0  0  0  0  0  0  0
  196.0857  182.3061  159.5099 H   0  0  0  0  0  0  0  0  0  0  0  0
  193.5706  181.0053  159.4208 H   0  0  0  0  0  0  0  0  0  0  0  0
  193.9012  180.4081  157.8002 H   0  0  0  0  0  0  0  0  0  0  0  0
  192.5569  181.4996  158.0525 H   0  0  0  0  0  0  0  0  0  0  0  0
  194.0348  183.5735  159.8754 H   0  0  0  0  0  0  0  0  0  0  0  0
  192.9441  183.8485  158.5258 H   0  0  0  0  0  0  0  0  0  0  0  0
  194.5722  184.5263  158.4924 H   0  0  0  0  0  0  0  0  0  0  0  0
  197.8952  178.9571  156.0932 H   0  0  0  0  0  0  0  0  0  0  0  0
  194.3896  182.5935  157.1289 H   0  0  0  0  0  0  0  0  0  0  0  0
  1  2  1  0
  2  3  2  0
  2  7  1  0
  3  4  1  0
  3 35  1  0
  4  5  2  0
  4 31  1  0
  5  6  1  0
  5  8  1  0
  6  7  2  0
  6 36  1  0
  7 37  1  0
  8  9  1  0
  8 38  1  1
  8 39  1  0
  9 10  1  0
  9 40  1  0
 10 11  1  0
 10 26  2  0
 11 12  2  0
 12 13  1  0
 12 24  1  0
 13 14  1  0
 13 41  1  0
 14 15  1  0
 14 23  1  0
 14 42  1  1
 15 16  1  0
 15 22  2  0
 16 17  2  0
 16 43  1  0
 17 18  1  0
 17 20  1  0
 18 19  3  0
 20 21  2  0
 20 44  1  0
 21 22  1  0
 21 45  1  0
 22 46  1  0
 23 47  1  6
 23 48  1  0
 23 49  1  0
 24 25  1  0
 24 30  2  0
 25 26  1  0
 25 27  2  0
 26 62  1  0
 27 28  1  0
 27 50  1  0
 28 29  2  0
 28 51  1  0
 29 30  1  0
 29 52  1  0
 30 53  1  0
 31 32  1  0
 31 54  1  1
 31 55  1  0
 32 33  1  0
 32 34  1  0
 32 63  1  6
 33 56  1  1
 33 57  1  0
 33 58  1  0
 34 59  1  1
 34 60  1  0
 34 61  1  0
M  CHG  2  26   1  32   1
M  END
>  <s_epik_cmdline>  (299) 
J2VwaWtfcHl0aG9uJywgJy1waCcsICc3LjAwMDAwMCcsICctcGh0JywgJzIuMDAwMDAwJywgJy1tcycsICcxNicsICctdG4nLCAnOCcsICctbWEnLCAnMjAwJywgJy1pbWFlJywgJzxpbmZpbGUubWFlPicsICctb21hZScsICc8b3V0ZmlsZS5tYWU+Jw==

>  <s_epik_input>  (299) 
RmMxW2NIXWMoW0NIMl1OKFtDSDNdKVtDSDNdKWMoW2NIXVtjSF0xKVtDSDJdW05IXWMobmMoYzIzKVtjSF1bY0hdW2NIXVtjSF0zKW5jMltOSF1bQ0BIXShbQ0gzXSljNFtjSF1jKEMjTilbY0hdW2NIXVtjSF00

>  <s_i_glide_gridfile>  (299) 
ATP-Grid

>  <s_lp_Force_Field>  (299) 
OPLS_2005

>  <s_lp_Variant>  (299) 
m_282030aaa____21917230____22360182____21974936-1

>  <s_lp_label>  (299) 
1854_sdstereoexpander_1_neutralizer_1_epik_1_stereoizer_1

>  <s_m_source_file>  (299) 
ATP-VSW-LIGPREP-001-in.maegz

>  <s_sd_BIOSOLVEIT.INFINISEE\_QUERY\_NAME>  (299) 
Ref-Lig

>  <s_sd_BIOSOLVEIT.INFINISEE\_QUERY\_SMILES>  (299) 
S(c1nc2c(cc1C[NH2+]Cc3ccc(cc3)C[NH+](C)C)cccc2)Cc4ccccc4

>  <s_sd_BIOSOLVEIT.INFINISEE\_REACTION\_NAME>  (299) 
m_282030aaa

>  <s_sd_BIOSOLVEIT.INFINISEE\_REAGENT1\_SMILES>  (299) 
[R1*]NC(c1cc(C#N)ccc1)C

>  <s_sd_BIOSOLVEIT.INFINISEE\_REAGENT2\_SMILES>  (299) 
[R2*]c1nc([R1*])c2c(n1)cccc2

>  <s_sd_BIOSOLVEIT.INFINISEE\_REAGENT3\_SMILES>  (299) 
[R2*]NCc1c(cc(F)cc1)CN(C)C

>  <s_sd_BIOSOLVEIT.INFINISEE\_SPACE>  (299) 
REALSpace_44bn_2023-08

>  <s_vsw_compound_code>  (299) 
59297

>  <s_vsw_variant>  (299) 
59297-1

>  <r_epik_Charging_Adjusted_Penalty>  (299) 
0.14246471275450501

>  <r_epik_Ionization_Penalty>  (299) 
0.066699999999999995

>  <r_epik_Ionization_Penalty_Charging>  (299) 
0.066600000000000006

>  <r_epik_Ionization_Penalty_Neutral>  (299) 
0

>  <r_epik_State_Penalty>  (299) 
0.075800000000000006

>  <r_i_docking_score>  (299) 
-4.2126341763315898

>  <r_i_glide_ecoul>  (299) 
-11.430736541748001

>  <r_i_glide_eff_state_penalty>  (299) 
0.075800000000000006

>  <r_i_glide_einternal>  (299) 
7.8487534523010298

>  <r_i_glide_emodel>  (299) 
-60.0092379953294

>  <r_i_glide_energy>  (299) 
-42.736171722412102

>  <r_i_glide_erotb>  (299) 
0.67492909152656

>  <r_i_glide_esite>  (299) 
-0.22405586386964901

>  <r_i_glide_evdw>  (299) 
-31.305435180664102

>  <r_i_glide_gscore>  (299) 
-4.2884341763315899

>  <r_i_glide_hbond>  (299) 
-0.21476673881779701

>  <r_i_glide_ligand_efficiency>  (299) 
-0.123901005186223

>  <r_i_glide_ligand_efficiency_ln>  (299) 
-0.930689049937935

>  <r_i_glide_ligand_efficiency_sa>  (299) 
-0.40139115811961501

>  <r_i_glide_lipo>  (299) 
-0.81154617624799197

>  <r_i_glide_metal>  (299) 
-0

>  <r_i_glide_rewards>  (299) 
-0.43311224862730202

>  <r_lp_Energy>  (299) 
19.518722

>  <r_qp_ACxDN^.5/SA>  (299) 
0.0124438

>  <r_qp_CIQPlogS>  (299) 
-7.0659999999999998

>  <r_qp_EA(eV)>  (299) 
0.81499999999999995

>  <r_qp_FISA>  (299) 
95.695999999999998

>  <r_qp_FOSA>  (299) 
282.87799999999999

>  <r_qp_IP(eV)>  (299) 
8.2579999999999991

>  <r_qp_Jm>  (299) 
0.00035242577071103499

>  <r_qp_PISA>  (299) 
318.38600000000002

>  <r_qp_PSA>  (299) 
71.129000000000005

>  <r_qp_PercentHumanOralAbsorption>  (299) 
100

>  <r_qp_QPPCaco>  (299) 
305.71199999999999

>  <r_qp_QPPMDCK>  (299) 
257.41800000000001

>  <r_qp_QPlogBB>  (299) 
-0.41299999999999998

>  <r_qp_QPlogHERG>  (299) 
-6.5890000000000004

>  <r_qp_QPlogKhsa>  (299) 
0.78300000000000003

>  <r_qp_QPlogKp>  (299) 
-3.3599999999999999

>  <r_qp_QPlogPC16>  (299) 
14.442

>  <r_qp_QPlogPo/w>  (299) 
4.6740000000000004

>  <r_qp_QPlogPoct>  (299) 
22.984999999999999

>  <r_qp_QPlogPw>  (299) 
11.675000000000001

>  <r_qp_QPlogS>  (299) 
-5.75

>  <r_qp_QPpolrz>  (299) 
47.845999999999997

>  <r_qp_SASA>  (299) 
738.71299999999997

>  <r_qp_SAamideO>  (299) 
0

>  <r_qp_SAfluorine>  (299) 
41.753

>  <r_qp_WPSA>  (299) 
41.753

>  <r_qp_accptHB>  (299) 
6.5

>  <r_qp_dip^2/V>  (299) 
0.039356099999999998

>  <r_qp_dipole>  (299) 
7.4699999999999998

>  <r_qp_donorHB>  (299) 
2

>  <r_qp_glob>  (299) 
0.82620950000000004

>  <r_qp_mol_MW>  (299) 
454.54899999999998

>  <r_qp_volume>  (299) 
1417.7560000000001

>  <r_sd_BIOSOLVEIT.INFINISEE\_FTREES\_SIMILARITY>  (299) 
0.90300000000000002

>  <r_sd_BIOSOLVEIT.LOGP>  (299) 
4.0702800000000003

>  <r_sd_BIOSOLVEIT.MOLECULAR\_WEIGHT>  (299) 
455.55799999999999

>  <r_sd_BIOSOLVEIT.TPSA>  (299) 
78.069999999999993

>  <i_epik_Tot_Q>  (299) 
2

>  <i_epik_Tot_abs_Q>  (299) 
2

>  <i_f3d_flags>  (299) 
0

>  <i_i_glide_confnum>  (299) 
4

>  <i_i_glide_lignum>  (299) 
550

>  <i_i_glide_posenum>  (299) 
16

>  <i_i_glide_rotatable_bonds>  (299) 
8

>  <i_lp_mmshare_version>  (299) 
65135

>  <i_m_ct_format>  (299) 
2

>  <i_m_source_file_index>  (299) 
1854

>  <i_qp_#NandO>  (299) 
6

>  <i_qp_#acid>  (299) 
0

>  <i_qp_#amide>  (299) 
0

>  <i_qp_#amidine>  (299) 
0

>  <i_qp_#amine>  (299) 
1

>  <i_qp_#in34>  (299) 
0

>  <i_qp_#in56>  (299) 
22

>  <i_qp_#metab>  (299) 
5

>  <i_qp_#nonHatm>  (299) 
34

>  <i_qp_#noncon>  (299) 
0

>  <i_qp_#ringatoms>  (299) 
22

>  <i_qp_#rotor>  (299) 
9

>  <i_qp_#rtvFG>  (299) 
0

>  <i_qp_#stars>  (299) 
0

>  <i_qp_CNS>  (299) 
1

>  <i_qp_HumanOralAbsorption>  (299) 
3

>  <i_qp_RuleOfFive>  (299) 
0

>  <i_qp_RuleOfThree>  (299) 
1

>  <i_sd_BIOSOLVEIT.INFINISEE\_REAGENT1\_NAME>  (299) 
21917230

>  <i_sd_BIOSOLVEIT.INFINISEE\_REAGENT2\_NAME>  (299) 
22360182

>  <i_sd_BIOSOLVEIT.INFINISEE\_REAGENT3\_NAME>  (299) 
21974936

>  <i_sd_BIOSOLVEIT.INFINISEE\_RESULT\_RANK>  (299) 
81455

>  <i_sd_version>  (299) 
0

>  <b_lp_Chiralities_Consistent>  (299) 
1

>  <b_sd_chiral_flag>  (299) 
0

>  <canonical_id>  (299) 
ATP-HTVS-30270CEE1891

>  <compound_code>  (299) 
59297

>  <title>  (299) 
m_282030aaa____21917230____22360182____21974936

>  <variant>  (299) 
59297-1

>  <source_file>  (299) 
运行/运行/ATP-VSW/ATP-VSW-DOCK_HTVS_1-001_lib/ATP-VSW-DOCK_HTVS_1-001_lib

>  <canonical_smiles>  (299) 
C[C@@H](Nc1nc(NCc2ccc(F)cc2C[NH+](C)C)[nH+]c2ccccc12)c1cccc(C#N)c1

>  <scaffold>  (299) 
c1ccc(CNc2nc(NCc3ccccc3)c3ccccc3[nH+]2)cc1

>  <molecular_formula>  (299) 
C27H29FN6+2

$$$$
ATP-HTVS-305D97AD9924
     RDKit          3D

 63 66  0  0  0  0  0  0  0  0999 V2000
  199.0558  186.6031  154.2764 O   0  0  0  0  0  0  0  0  0  0  0  0
  198.7457  185.6634  153.5401 C   0  0  0  0  0  0  0  0  0  0  0  0
  198.1731  184.5118  153.9418 N   0  0  0  0  0  0  0  0  0  0  0  0
  197.6904  184.1465  155.2266 C   0  0  0  0  0  0  0  0  0  0  0  0
  197.5654  185.0525  156.2246 N   0  0  0  0  0  0  0  0  0  0  0  0
  197.0908  184.6853  157.4310 C   0  0  0  0  0  0  0  0  0  0  0  0
  196.6919  183.3508  157.6920 C   0  0  0  0  0  0  0  0  0  0  0  0
  196.8070  182.3924  156.6676 C   0  0  0  0  0  0  0  0  0  0  0  0
  197.3322  182.7792  155.4089 C   0  0  0  0  0  0  0  0  0  0  0  0
  197.5113  181.8365  154.3736 N   0  0  0  0  0  0  0  0  0  0  0  0
  197.5321  180.4102  154.6623 C   0  0  1  0  0  0  0  0  0  0  0  0
  198.3129  179.6119  153.6377 C   0  0  0  0  0  0  0  0  0  0  0  0
  199.3586  178.7740  154.0703 C   0  0  0  0  0  0  0  0  0  0  0  0
  200.0914  178.0182  153.1383 C   0  0  0  0  0  0  0  0  0  0  0  0
  199.7827  178.0836  151.7629 C   0  0  0  0  0  0  0  0  0  0  0  0
  198.7453  178.9412  151.3308 C   0  0  0  0  0  0  0  0  0  0  0  0
  198.0063  179.6968  152.2636 C   0  0  0  0  0  0  0  0  0  0  0  0
  200.5500  177.2202  150.7641 C   0  0  1  0  0  0  0  0  0  0  0  0
  199.9137  175.8982  150.5108 N   0  0  2  0  0  0  0  0  0  0  0  0
  198.5794  176.0060  149.8812 C   0  0  2  0  0  0  0  0  0  0  0  0
  199.9105  175.0054  151.6940 C   0  0  2  0  0  0  0  0  0  0  0  0
  196.1872  182.9853  158.9574 C   0  0  0  0  0  0  0  0  0  0  0  0
  196.0695  183.9545  159.9702 C   0  0  0  0  0  0  0  0  0  0  0  0
  196.4604  185.2829  159.7250 C   0  0  0  0  0  0  0  0  0  0  0  0
  196.9681  185.6414  158.4609 C   0  0  0  0  0  0  0  0  0  0  0  0
  199.1067  185.7019  152.0824 C   0  0  0  0  0  0  0  0  0  0  0  0
  198.2704  185.1114  151.1050 C   0  0  0  0  0  0  0  0  0  0  0  0
  198.6012  185.1751  149.7308 C   0  0  0  0  0  0  0  0  0  0  0  0
  199.7879  185.8334  149.3388 C   0  0  0  0  0  0  0  0  0  0  0  0
  200.6221  186.4269  150.3044 C   0  0  0  0  0  0  0  0  0  0  0  0
  200.2793  186.3687  151.6670 C   0  0  0  0  0  0  0  0  0  0  0  0
  197.6978  184.5354  148.7345 C   0  0  0  0  0  0  0  0  0  0  0  0
  196.7489  183.8276  149.0552 O   0  0  0  0  0  0  0  0  0  0  0  0
  197.9716  184.7793  147.2520 C   0  0  2  0  0  0  0  0  0  0  0  0
  198.0712  183.8047  153.2359 H   0  0  0  0  0  0  0  0  0  0  0  0
  196.4886  181.3785  156.8631 H   0  0  0  0  0  0  0  0  0  0  0  0
  197.9413  182.1012  153.5041 H   0  0  0  0  0  0  0  0  0  0  0  0
  197.9775  180.2350  155.6405 H   0  0  0  0  0  0  0  0  0  0  0  0
  196.5081  180.0397  154.7082 H   0  0  0  0  0  0  0  0  0  0  0  0
  199.5927  178.6943  155.1234 H   0  0  0  0  0  0  0  0  0  0  0  0
  200.8766  177.3640  153.4923 H   0  0  0  0  0  0  0  0  0  0  0  0
  198.4911  179.0033  150.2832 H   0  0  0  0  0  0  0  0  0  0  0  0
  197.1975  180.3293  151.9254 H   0  0  0  0  0  0  0  0  0  0  0  0
  200.6463  177.7659  149.8237 H   0  0  0  0  0  0  0  0  0  0  0  0
  201.5700  177.0670  151.1211 H   0  0  0  0  0  0  0  0  0  0  0  0
  197.8708  176.4761  150.5589 H   0  0  0  0  0  0  0  0  0  0  0  0
  198.1803  175.0306  149.6262 H   0  0  0  0  0  0  0  0  0  0  0  0
  198.6237  176.5849  148.9592 H   0  0  0  0  0  0  0  0  0  0  0  0
  199.3344  175.4290  152.5189 H   0  0  0  0  0  0  0  0  0  0  0  0
  200.9303  174.8286  152.0407 H   0  0  0  0  0  0  0  0  0  0  0  0
  199.4738  174.0362  151.4490 H   0  0  0  0  0  0  0  0  0  0  0  0
  195.8939  181.9617  159.1552 H   0  0  0  0  0  0  0  0  0  0  0  0
  195.6789  183.6806  160.9337 H   0  0  0  0  0  0  0  0  0  0  0  0
  196.3709  186.0246  160.5028 H   0  0  0  0  0  0  0  0  0  0  0  0
  197.2615  186.6633  158.2715 H   0  0  0  0  0  0  0  0  0  0  0  0
  197.3601  184.6118  151.4069 H   0  0  0  0  0  0  0  0  0  0  0  0
  200.0784  185.9059  148.3013 H   0  0  0  0  0  0  0  0  0  0  0  0
  201.5242  186.9380  150.0001 H   0  0  0  0  0  0  0  0  0  0  0  0
  200.9226  186.8358  152.3992 H   0  0  0  0  0  0  0  0  0  0  0  0
  197.9531  185.8444  147.0321 H   0  0  0  0  0  0  0  0  0  0  0  0
  197.2113  184.2940  146.6410 H   0  0  0  0  0  0  0  0  0  0  0  0
  198.9437  184.3791  146.9685 H   0  0  0  0  0  0  0  0  0  0  0  0
  200.5017  175.4372  149.8286 H   0  0  0  0  0  0  0  0  0  0  0  0
  1  2  2  0
  2  3  1  0
  2 26  1  0
  3  4  1  0
  3 35  1  0
  4  5  2  0
  4  9  1  0
  5  6  1  0
  6  7  1  0
  6 25  2  0
  7  8  1  0
  7 22  2  0
  8  9  2  0
  8 36  1  0
  9 10  1  0
 10 11  1  0
 10 37  1  0
 11 12  1  0
 11 38  1  1
 11 39  1  0
 12 13  1  0
 12 17  2  0
 13 14  2  0
 13 40  1  0
 14 15  1  0
 14 41  1  0
 15 16  2  0
 15 18  1  0
 16 17  1  0
 16 42  1  0
 17 43  1  0
 18 19  1  0
 18 44  1  6
 18 45  1  0
 19 20  1  0
 19 21  1  0
 19 63  1  6
 20 46  1  1
 20 47  1  0
 20 48  1  0
 21 49  1  1
 21 50  1  0
 21 51  1  0
 22 23  1  0
 22 52  1  0
 23 24  2  0
 23 53  1  0
 24 25  1  0
 24 54  1  0
 25 55  1  0
 26 27  2  0
 26 31  1  0
 27 28  1  0
 27 56  1  0
 28 29  2  0
 28 32  1  0
 29 30  1  0
 29 57  1  0
 30 31  2  0
 30 58  1  0
 31 59  1  0
 32 33  2  0
 32 34  1  0
 34 60  1  1
 34 61  1  0
 34 62  1  0
M  CHG  1  19   1
M  END
>  <s_epik_cmdline>  (300) 
J2VwaWtfcHl0aG9uJywgJy1waCcsICc3LjAwMDAwMCcsICctcGh0JywgJzIuMDAwMDAwJywgJy1tcycsICcxNicsICctdG4nLCAnOCcsICctbWEnLCAnMjAwJywgJy1pbWFlJywgJzxpbmZpbGUubWFlPicsICctb21hZScsICc8b3V0ZmlsZS5tYWU+Jw==

>  <s_epik_input>  (300) 
W2NIXTFbY0hdW2NIXWMoQyg9TylbQ0gzXSlbY0hdYzFDKD1PKVtOSF1jKG4yKWMoW2NIXWMoYzIzKVtjSF1bY0hdW2NIXVtjSF0zKVtOSF1bQ0gyXWM0W2NIXVtjSF1jKFtjSF1bY0hdNClbQ0gyXU4oW0NIM10pW0NIM10=

>  <s_i_glide_gridfile>  (300) 
ATP-Grid

>  <s_lp_Force_Field>  (300) 
OPLS_2005

>  <s_lp_Variant>  (300) 
rxn502b____EMOL56751027____EMOL44466703____EMOL50155899-1

>  <s_lp_label>  (300) 
2317_sdstereoexpander_1_neutralizer_1_epik_1_stereoizer_1

>  <s_m_source_file>  (300) 
ATP-VSW-LIGPREP-002-in.maegz

>  <s_sd_BIOSOLVEIT.INFINISEE\_QUERY\_NAME>  (300) 
Ref-Lig

>  <s_sd_BIOSOLVEIT.INFINISEE\_QUERY\_SMILES>  (300) 
S(c1nc2c(cc1C[NH2+]Cc3ccc(cc3)C[NH+](C)C)cccc2)Cc4ccccc4

>  <s_sd_BIOSOLVEIT.INFINISEE\_REACTION\_NAME>  (300) 
rxn502b

>  <s_sd_BIOSOLVEIT.INFINISEE\_REAGENT1\_NAME>  (300) 
EMOL56751027

>  <s_sd_BIOSOLVEIT.INFINISEE\_REAGENT1\_SMILES>  (300) 
ClC(=O)c1cc(ccc1)C(=O)C

>  <s_sd_BIOSOLVEIT.INFINISEE\_REAGENT2\_NAME>  (300) 
EMOL44466703

>  <s_sd_BIOSOLVEIT.INFINISEE\_REAGENT2\_SMILES>  (300) 
Brc1c(nc2c(c1)cccc2)N

>  <s_sd_BIOSOLVEIT.INFINISEE\_REAGENT3\_NAME>  (300) 
EMOL50155899

>  <s_sd_BIOSOLVEIT.INFINISEE\_REAGENT3\_SMILES>  (300) 
N(Cc1ccc(cc1)CN)(C)C

>  <s_sd_BIOSOLVEIT.INFINISEE\_SPACE>  (300) 
eXplore_7tr_2022-12

>  <s_vsw_compound_code>  (300) 
74114

>  <s_vsw_variant>  (300) 
74114-1

>  <r_epik_Charging_Adjusted_Penalty>  (300) 
0.078407994868761793

>  <r_epik_Ionization_Penalty>  (300) 
0.039300000000000002

>  <r_epik_Ionization_Penalty_Charging>  (300) 
0.039199999999999999

>  <r_epik_Ionization_Penalty_Neutral>  (300) 
0.0001

>  <r_epik_State_Penalty>  (300) 
0.039199999999999999

>  <r_i_docking_score>  (300) 
-3.8390029115556601

>  <r_i_glide_ecoul>  (300) 
-4.1433367729187003

>  <r_i_glide_eff_state_penalty>  (300) 
0.039199999999999999

>  <r_i_glide_einternal>  (300) 
1.7917350530624401

>  <r_i_glide_emodel>  (300) 
-51.385348938114198

>  <r_i_glide_energy>  (300) 
-40.1989169120789

>  <r_i_glide_erotb>  (300) 
0.68308159863740003

>  <r_i_glide_esite>  (300) 
-0.018982940562014099

>  <r_i_glide_evdw>  (300) 
-36.055580139160199

>  <r_i_glide_gscore>  (300) 
-3.8782029115556602

>  <r_i_glide_hbond>  (300) 
0

>  <r_i_glide_ligand_efficiency>  (300) 
-0.112911850339872

>  <r_i_glide_ligand_efficiency_ln>  (300) 
-0.84814342354693695

>  <r_i_glide_ligand_efficiency_sa>  (300) 
-0.36579056243515801

>  <r_i_glide_lipo>  (300) 
-1.5482277317270801

>  <r_i_glide_metal>  (300) 
-0

>  <r_i_glide_rewards>  (300) 
-0.56979431500815003

>  <r_lp_Energy>  (300) 
35.821066000000002

>  <r_lp_tautomer_probability>  (300) 
0.99995000000000001

>  <r_qp_ACxDN^.5/SA>  (300) 
0.0143526

>  <r_qp_CIQPlogS>  (300) 
-5.2510000000000003

>  <r_qp_EA(eV)>  (300) 
0.877

>  <r_qp_FISA>  (300) 
112.369

>  <r_qp_FOSA>  (300) 
305.71300000000002

>  <r_qp_IP(eV)>  (300) 
8.2859999999999996

>  <r_qp_Jm>  (300) 
0.00031679371537909499

>  <r_qp_PISA>  (300) 
419.45499999999998

>  <r_qp_PSA>  (300) 
91.132000000000005

>  <r_qp_PercentHumanOralAbsorption>  (300) 
93.388999999999996

>  <r_qp_QPPCaco>  (300) 
212.423

>  <r_qp_QPPMDCK>  (300) 
102.569

>  <r_qp_QPlogBB>  (300) 
-0.81599999999999995

>  <r_qp_QPlogHERG>  (300) 
-8.1389999999999993

>  <r_qp_QPlogKhsa>  (300) 
0.64300000000000002

>  <r_qp_QPlogKp>  (300) 
-3.407

>  <r_qp_QPlogPC16>  (300) 
16.728000000000002

>  <r_qp_QPlogPo/w>  (300) 
4.234

>  <r_qp_QPlogPoct>  (300) 
25.568999999999999

>  <r_qp_QPlogPw>  (300) 
14.888999999999999

>  <r_qp_QPlogS>  (300) 
-5.7480000000000002

>  <r_qp_QPpolrz>  (300) 
53.168999999999997

>  <r_qp_SASA>  (300) 
837.53800000000001

>  <r_qp_SAamideO>  (300) 
0

>  <r_qp_SAfluorine>  (300) 
0

>  <r_qp_WPSA>  (300) 
0

>  <r_qp_accptHB>  (300) 
8.5

>  <r_qp_dip^2/V>  (300) 
0.028985400000000001

>  <r_qp_dipole>  (300) 
6.617

>  <r_qp_donorHB>  (300) 
2

>  <r_qp_glob>  (300) 
0.76019780000000003

>  <r_qp_mol_MW>  (300) 
452.55500000000001

>  <r_qp_volume>  (300) 
1510.598

>  <r_sd_BIOSOLVEIT.INFINISEE\_FTREES\_SIMILARITY>  (300) 
0.92200000000000004

>  <r_sd_BIOSOLVEIT.LOGP>  (300) 
3.9462999999999999

>  <r_sd_BIOSOLVEIT.MOLECULAR\_WEIGHT>  (300) 
453.56299999999999

>  <r_sd_BIOSOLVEIT.TPSA>  (300) 
75.530000000000001

>  <i_epik_Tot_Q>  (300) 
1

>  <i_epik_Tot_abs_Q>  (300) 
1

>  <i_f3d_flags>  (300) 
0

>  <i_i_glide_confnum>  (300) 
5

>  <i_i_glide_lignum>  (300) 
933

>  <i_i_glide_posenum>  (300) 
10

>  <i_i_glide_rotatable_bonds>  (300) 
9

>  <i_lp_mmshare_version>  (300) 
65135

>  <i_m_ct_format>  (300) 
2

>  <i_m_source_file_index>  (300) 
2317

>  <i_qp_#NandO>  (300) 
6

>  <i_qp_#acid>  (300) 
0

>  <i_qp_#amide>  (300) 
0

>  <i_qp_#amidine>  (300) 
0

>  <i_qp_#amine>  (300) 
1

>  <i_qp_#in34>  (300) 
0

>  <i_qp_#in56>  (300) 
22

>  <i_qp_#metab>  (300) 
5

>  <i_qp_#nonHatm>  (300) 
34

>  <i_qp_#noncon>  (300) 
0

>  <i_qp_#ringatoms>  (300) 
22

>  <i_qp_#rotor>  (300) 
8

>  <i_qp_#rtvFG>  (300) 
0

>  <i_qp_#stars>  (300) 
0

>  <i_qp_CNS>  (300) 
0

>  <i_qp_HumanOralAbsorption>  (300) 
3

>  <i_qp_RuleOfFive>  (300) 
0

>  <i_qp_RuleOfThree>  (300) 
1

>  <i_sd_BIOSOLVEIT.INFINISEE\_RESULT\_RANK>  (300) 
13103

>  <i_sd_version>  (300) 
0

>  <b_lp_Chiralities_Consistent>  (300) 
1

>  <b_sd_chiral_flag>  (300) 
0

>  <canonical_id>  (300) 
ATP-HTVS-305D97AD9924

>  <compound_code>  (300) 
74114

>  <title>  (300) 
rxn502b____EMOL56751027____EMOL44466703____EMOL50155899

>  <variant>  (300) 
74114-1

>  <source_file>  (300) 
运行/运行/ATP-VSW/ATP-VSW-DOCK_HTVS_1-002_lib.maegz

>  <canonical_smiles>  (300) 
CC(=O)c1cccc(C(=O)Nc2nc3ccccc3cc2NCc2ccc(C[NH+](C)C)cc2)c1

>  <scaffold>  (300) 
O=C(Nc1nc2ccccc2cc1NCc1ccccc1)c1ccccc1

>  <molecular_formula>  (300) 
C28H29N4O2+

$$$$
ATP-HTVS-30920D5A25EC
     RDKit          3D

 57 59  0  0  0  0  0  0  0  0999 V2000
  196.5134  190.2820  161.3617 N   0  0  0  0  0  0  0  0  0  0  0  0
  196.3556  189.2068  160.9568 C   0  0  0  0  0  0  0  0  0  0  0  0
  196.1440  187.8602  160.4394 C   0  0  0  0  0  0  0  0  0  0  0  0
  195.1735  187.0052  161.0026 C   0  0  0  0  0  0  0  0  0  0  0  0
  194.9532  185.7271  160.4444 C   0  0  0  0  0  0  0  0  0  0  0  0
  195.6712  185.2997  159.2967 C   0  0  0  0  0  0  0  0  0  0  0  0
  196.5860  186.1940  158.6841 C   0  0  0  0  0  0  0  0  0  0  0  0
  196.8551  187.4430  159.2902 C   0  0  0  0  0  0  0  0  0  0  0  0
  195.4608  183.9460  158.7607 C   0  0  0  0  0  0  0  0  0  0  0  0
  194.2765  183.3636  158.9352 N   0  0  0  0  0  0  0  0  0  0  0  0
  194.3698  182.1450  158.3571 N   0  0  0  0  0  0  0  0  0  0  0  0
  195.6166  181.9700  157.8087 C   0  0  0  0  0  0  0  0  0  0  0  0
  196.3767  183.0714  158.0709 C   0  0  0  0  0  0  0  0  0  0  0  0
  197.8375  183.2570  157.7164 C   0  0  1  0  0  0  0  0  0  0  0  0
  198.0346  182.9864  156.2664 N   0  0  1  0  0  0  0  0  0  0  0  0
  199.4357  183.1516  155.8183 C   0  0  1  0  0  0  0  0  0  0  0  0
  200.3622  182.1595  156.5106 C   0  0  0  0  0  0  0  0  0  0  0  0
  200.0528  180.7808  156.5057 C   0  0  0  0  0  0  0  0  0  0  0  0
  200.8802  179.8595  157.1816 C   0  0  0  0  0  0  0  0  0  0  0  0
  202.0361  180.3160  157.8464 C   0  0  0  0  0  0  0  0  0  0  0  0
  202.3563  181.6857  157.8468 C   0  0  0  0  0  0  0  0  0  0  0  0
  201.5184  182.6074  157.1870 C   0  0  0  0  0  0  0  0  0  0  0  0
  200.5241  178.3833  157.2063 C   0  0  1  0  0  0  0  0  0  0  0  0
  201.5170  177.5523  156.4742 N   0  0  2  0  0  0  0  0  0  0  0  0
  201.6992  177.9115  155.0377 C   0  0  1  0  0  0  0  0  0  0  0  0
  200.4461  177.6886  154.1577 C   0  0  2  0  0  0  0  0  0  0  0  0
  201.2797  176.1061  156.6821 C   0  0  2  0  0  0  0  0  0  0  0  0
  193.2258  181.2422  158.3326 C   0  0  2  0  0  0  0  0  0  0  0  0
  197.7441  182.0436  156.0468 H   0  0  0  0  0  0  0  0  0  0  0  0
  194.5702  187.3437  161.8402 H   0  0  0  0  0  0  0  0  0  0  0  0
  194.1923  185.0981  160.8796 H   0  0  0  0  0  0  0  0  0  0  0  0
  197.0832  185.9593  157.7498 H   0  0  0  0  0  0  0  0  0  0  0  0
  197.5884  188.0904  158.8370 H   0  0  0  0  0  0  0  0  0  0  0  0
  195.8458  181.0481  157.2786 H   0  0  0  0  0  0  0  0  0  0  0  0
  198.2327  184.2519  157.9263 H   0  0  0  0  0  0  0  0  0  0  0  0
  198.4152  182.5308  158.3088 H   0  0  0  0  0  0  0  0  0  0  0  0
  199.5135  183.0109  154.7368 H   0  0  0  0  0  0  0  0  0  0  0  0
  199.7550  184.1780  156.0253 H   0  0  0  0  0  0  0  0  0  0  0  0
  199.1642  180.4258  156.0037 H   0  0  0  0  0  0  0  0  0  0  0  0
  202.6839  179.6165  158.3569 H   0  0  0  0  0  0  0  0  0  0  0  0
  203.2443  182.0300  158.3578 H   0  0  0  0  0  0  0  0  0  0  0  0
  201.7748  183.6565  157.2102 H   0  0  0  0  0  0  0  0  0  0  0  0
  200.4545  178.0608  158.2476 H   0  0  0  0  0  0  0  0  0  0  0  0
  199.5257  178.2351  156.7936 H   0  0  0  0  0  0  0  0  0  0  0  0
  202.0107  178.9545  154.9523 H   0  0  0  0  0  0  0  0  0  0  0  0
  202.5470  177.3392  154.6556 H   0  0  0  0  0  0  0  0  0  0  0  0
  200.6583  177.9264  153.1147 H   0  0  0  0  0  0  0  0  0  0  0  0
  199.6173  178.3241  154.4700 H   0  0  0  0  0  0  0  0  0  0  0  0
  200.0961  176.6570  154.1711 H   0  0  0  0  0  0  0  0  0  0  0  0
  200.3398  175.7944  156.2323 H   0  0  0  0  0  0  0  0  0  0  0  0
  201.2106  175.8653  157.7404 H   0  0  0  0  0  0  0  0  0  0  0  0
  202.0849  175.5187  156.2408 H   0  0  0  0  0  0  0  0  0  0  0  0
  193.5401  180.2433  158.0185 H   0  0  0  0  0  0  0  0  0  0  0  0
  192.4809  181.6186  157.6278 H   0  0  0  0  0  0  0  0  0  0  0  0
  192.7842  181.1423  159.3230 H   0  0  0  0  0  0  0  0  0  0  0  0
  202.4220  177.7456  156.9035 H   0  0  0  0  0  0  0  0  0  0  0  0
  197.4434  183.6029  155.7304 H   0  0  0  0  0  0  0  0  0  0  0  0
  1  2  3  0
  2  3  1  0
  3  4  1  0
  3  8  2  0
  4  5  2  0
  4 30  1  0
  5  6  1  0
  5 31  1  0
  6  7  2  0
  6  9  1  0
  7  8  1  0
  7 32  1  0
  8 33  1  0
  9 10  2  0
  9 13  1  0
 10 11  1  0
 11 12  1  0
 11 28  1  0
 12 13  2  0
 12 34  1  0
 13 14  1  0
 14 15  1  0
 14 35  1  6
 14 36  1  0
 15 16  1  0
 15 29  1  1
 15 57  1  0
 16 17  1  0
 16 37  1  6
 16 38  1  0
 17 18  2  0
 17 22  1  0
 18 19  1  0
 18 39  1  0
 19 20  2  0
 19 23  1  0
 20 21  1  0
 20 40  1  0
 21 22  2  0
 21 41  1  0
 22 42  1  0
 23 24  1  0
 23 43  1  1
 23 44  1  0
 24 25  1  0
 24 27  1  0
 24 56  1  1
 25 26  1  0
 25 45  1  1
 25 46  1  0
 26 47  1  6
 26 48  1  0
 26 49  1  0
 27 50  1  6
 27 51  1  0
 27 52  1  0
 28 53  1  6
 28 54  1  0
 28 55  1  0
M  CHG  2  15   1  24   1
M  END
>  <s_epik_cmdline>  (301) 
J2VwaWtfcHl0aG9uJywgJy1waCcsICc3LjAwMDAwMCcsICctcGh0JywgJzIuMDAwMDAwJywgJy1tcycsICcxNicsICctdG4nLCAnOCcsICctbWEnLCAnMjAwJywgJy1pbWFlJywgJzxpbmZpbGUubWFlPicsICctb21hZScsICc8b3V0ZmlsZS5tYWU+Jw==

>  <s_epik_input>  (301) 
TiNDYzFbY0hdW2NIXWMoW2NIXVtjSF0xKS1jMm5uKFtDSDNdKVtjSF1jMltDSDJdW05IXVtDSDJdYzNbY0hdYyhbY0hdW2NIXVtjSF0zKVtDSDJdTihbQ0gzXSlbQ0gyXVtDSDNd

>  <s_i_glide_gridfile>  (301) 
ATP-Grid

>  <s_lp_Force_Field>  (301) 
OPLS_2005

>  <s_lp_Variant>  (301) 
m_270004cbb____8294988____8366624-2

>  <s_lp_label>  (301) 
2135_sdstereoexpander_1_neutralizer_1_epik_1_stereoizer_2

>  <s_m_source_file>  (301) 
ATP-VSW-LIGPREP-002-in.maegz

>  <s_sd_BIOSOLVEIT.INFINISEE\_QUERY\_NAME>  (301) 
Ref-Lig

>  <s_sd_BIOSOLVEIT.INFINISEE\_QUERY\_SMILES>  (301) 
S(c1nc2c(cc1C[NH2+]Cc3ccc(cc3)C[NH+](C)C)cccc2)Cc4ccccc4

>  <s_sd_BIOSOLVEIT.INFINISEE\_REACTION\_NAME>  (301) 
m_270004cbb

>  <s_sd_BIOSOLVEIT.INFINISEE\_REAGENT1\_SMILES>  (301) 
[R1*]NCc1cc(ccc1)CN(CC)C

>  <s_sd_BIOSOLVEIT.INFINISEE\_REAGENT2\_SMILES>  (301) 
[R1*]CC=1C(=NN(C1)C)c2ccc(C#N)cc2

>  <s_sd_BIOSOLVEIT.INFINISEE\_SPACE>  (301) 
REALSpace_44bn_2023-08

>  <s_vsw_compound_code>  (301) 
68290

>  <s_vsw_variant>  (301) 
68290-2

>  <r_epik_Charging_Adjusted_Penalty>  (301) 
0.28451925657200999

>  <r_epik_Ionization_Penalty>  (301) 
0.1431

>  <r_epik_Ionization_Penalty_Charging>  (301) 
0.1431

>  <r_epik_Ionization_Penalty_Neutral>  (301) 
0

>  <r_epik_State_Penalty>  (301) 
0.1414

>  <r_i_docking_score>  (301) 
-5.4048667691433403

>  <r_i_glide_ecoul>  (301) 
-12.369632720947299

>  <r_i_glide_eff_state_penalty>  (301) 
0.1414

>  <r_i_glide_einternal>  (301) 
4.9199657440185502

>  <r_i_glide_emodel>  (301) 
-68.505849481299407

>  <r_i_glide_energy>  (301) 
-47.050804138183601

>  <r_i_glide_erotb>  (301) 
0.96046877978360701

>  <r_i_glide_esite>  (301) 
-0.111075750997376

>  <r_i_glide_evdw>  (301) 
-34.6811714172363

>  <r_i_glide_gscore>  (301) 
-5.5462667691433403

>  <r_i_glide_hbond>  (301) 
0

>  <r_i_glide_ligand_efficiency>  (301) 
-0.19303095604083401

>  <r_i_glide_ligand_efficiency_ln>  (301) 
-1.2476019441023001

>  <r_i_glide_ligand_efficiency_sa>  (301) 
-0.58615567169314697

>  <r_i_glide_lipo>  (301) 
-1.5993332276582599

>  <r_i_glide_metal>  (301) 
-0

>  <r_i_glide_rewards>  (301) 
-1.2068230912674001

>  <r_lp_Energy>  (301) 
18.152263000000001

>  <r_lp_tautomer_probability>  (301) 
1

>  <r_qp_ACxDN^.5/SA>  (301) 
0.0086044999999999993

>  <r_qp_CIQPlogS>  (301) 
-4.1340000000000003

>  <r_qp_EA(eV)>  (301) 
0.60899999999999999

>  <r_qp_FISA>  (301) 
103.27

>  <r_qp_FOSA>  (301) 
349.91000000000003

>  <r_qp_IP(eV)>  (301) 
9.0449999999999999

>  <r_qp_Jm>  (301) 
1.02576808017668e-05

>  <r_qp_PISA>  (301) 
302.23599999999999

>  <r_qp_PSA>  (301) 
61.149000000000001

>  <r_qp_PercentHumanOralAbsorption>  (301) 
79.911000000000001

>  <r_qp_QPPCaco>  (301) 
64.623000000000005

>  <r_qp_QPPMDCK>  (301) 
31.353000000000002

>  <r_qp_QPlogBB>  (301) 
-0.26300000000000001

>  <r_qp_QPlogHERG>  (301) 
-8.0419999999999998

>  <r_qp_QPlogKhsa>  (301) 
0.60599999999999998

>  <r_qp_QPlogKp>  (301) 
-5.7149999999999999

>  <r_qp_QPlogPC16>  (301) 
13.852

>  <r_qp_QPlogPo/w>  (301) 
3.512

>  <r_qp_QPlogPoct>  (301) 
20.334

>  <r_qp_QPlogPw>  (301) 
10.398

>  <r_qp_QPlogS>  (301) 
-4.8460000000000001

>  <r_qp_QPpolrz>  (301) 
45.058

>  <r_qp_SASA>  (301) 
755.41600000000005

>  <r_qp_SAamideO>  (301) 
0

>  <r_qp_SAfluorine>  (301) 
0

>  <r_qp_WPSA>  (301) 
0

>  <r_qp_accptHB>  (301) 
6.5

>  <r_qp_dip^2/V>  (301) 
0.054000300000000001

>  <r_qp_dipole>  (301) 
8.4930000000000003

>  <r_qp_donorHB>  (301) 
1

>  <r_qp_glob>  (301) 
0.7765377

>  <r_qp_mol_MW>  (301) 
373.5

>  <r_qp_volume>  (301) 
1335.904

>  <r_sd_BIOSOLVEIT.INFINISEE\_FTREES\_SIMILARITY>  (301) 
0.90100000000000002

>  <r_sd_BIOSOLVEIT.LOGP>  (301) 
1.25698

>  <r_sd_BIOSOLVEIT.MOLECULAR\_WEIGHT>  (301) 
375.517

>  <r_sd_BIOSOLVEIT.TPSA>  (301) 
62.659999999999997

>  <i_epik_Tot_Q>  (301) 
2

>  <i_epik_Tot_abs_Q>  (301) 
2

>  <i_f3d_flags>  (301) 
0

>  <i_i_glide_confnum>  (301) 
6

>  <i_i_glide_lignum>  (301) 
781

>  <i_i_glide_posenum>  (301) 
16

>  <i_i_glide_rotatable_bonds>  (301) 
8

>  <i_lp_mmshare_version>  (301) 
65135

>  <i_m_ct_format>  (301) 
2

>  <i_m_source_file_index>  (301) 
2135

>  <i_qp_#NandO>  (301) 
5

>  <i_qp_#acid>  (301) 
0

>  <i_qp_#amide>  (301) 
0

>  <i_qp_#amidine>  (301) 
0

>  <i_qp_#amine>  (301) 
2

>  <i_qp_#in34>  (301) 
0

>  <i_qp_#in56>  (301) 
17

>  <i_qp_#metab>  (301) 
5

>  <i_qp_#nonHatm>  (301) 
28

>  <i_qp_#noncon>  (301) 
0

>  <i_qp_#ringatoms>  (301) 
17

>  <i_qp_#rotor>  (301) 
8

>  <i_qp_#rtvFG>  (301) 
0

>  <i_qp_#stars>  (301) 
0

>  <i_qp_CNS>  (301) 
1

>  <i_qp_HumanOralAbsorption>  (301) 
3

>  <i_qp_RuleOfFive>  (301) 
0

>  <i_qp_RuleOfThree>  (301) 
0

>  <i_sd_BIOSOLVEIT.INFINISEE\_REAGENT1\_NAME>  (301) 
8294988

>  <i_sd_BIOSOLVEIT.INFINISEE\_REAGENT2\_NAME>  (301) 
8366624

>  <i_sd_BIOSOLVEIT.INFINISEE\_RESULT\_RANK>  (301) 
99463

>  <i_sd_version>  (301) 
0

>  <b_lp_Chiralities_Consistent>  (301) 
1

>  <b_sd_chiral_flag>  (301) 
0

>  <canonical_id>  (301) 
ATP-HTVS-30920D5A25EC

>  <compound_code>  (301) 
68290

>  <title>  (301) 
m_270004cbb____8294988____8366624

>  <variant>  (301) 
68290-2

>  <source_file>  (301) 
运行/运行/ATP-VSW/ATP-VSW-DOCK_HTVS_1-002_lib.maegz

>  <canonical_smiles>  (301) 
CC[N@H+](C)Cc1cccc(C[NH2+]Cc2cn(C)nc2-c2ccc(C#N)cc2)c1

>  <scaffold>  (301) 
c1ccc(C[NH2+]Cc2c[nH]nc2-c2ccccc2)cc1

>  <molecular_formula>  (301) 
C23H29N5+2

$$$$
ATP-HTVS-30B3F39EA660
     RDKit          3D

 69 72  0  0  0  0  0  0  0  0999 V2000
  199.1172  181.0103  155.2456 O   0  0  0  0  0  0  0  0  0  0  0  0
  198.1907  180.2344  155.0117 C   0  0  0  0  0  0  0  0  0  0  0  0
  198.3527  179.0484  154.4206 N   0  0  0  0  0  0  0  0  0  0  0  0
  199.6249  178.5399  153.9003 C   0  0  1  0  0  0  0  0  0  0  0  0
  200.3254  177.5655  154.8154 C   0  0  0  0  0  0  0  0  0  0  0  0
  200.9135  176.3943  154.2838 C   0  0  0  0  0  0  0  0  0  0  0  0
  201.5302  175.4727  155.1512 C   0  0  0  0  0  0  0  0  0  0  0  0
  201.5651  175.7281  156.5362 C   0  0  0  0  0  0  0  0  0  0  0  0
  200.9789  176.8943  157.0601 C   0  0  0  0  0  0  0  0  0  0  0  0
  200.3643  177.8117  156.2023 C   0  0  0  0  0  0  0  0  0  0  0  0
  196.7645  180.5257  155.5262 C   0  0  1  0  0  0  0  0  0  0  0  0
  196.7577  181.4362  156.6725 N   0  0  0  0  0  0  0  0  0  0  0  0
  196.9306  182.8107  156.5681 C   0  0  0  0  0  0  0  0  0  0  0  0
  197.0880  183.3877  155.3672 N   0  0  0  0  0  0  0  0  0  0  0  0
  197.2657  184.7233  155.2605 C   0  0  0  0  0  0  0  0  0  0  0  0
  197.4597  185.2951  153.9803 N   0  0  0  0  0  0  0  0  0  0  0  0
  197.3707  184.4719  152.7785 C   0  0  1  0  0  0  0  0  0  0  0  0
  198.5629  183.5077  152.5984 C   0  0  1  0  0  0  0  0  0  0  0  0
  198.2086  182.4006  151.6162 C   0  0  0  0  0  0  0  0  0  0  0  0
  197.4075  181.3338  152.0972 C   0  0  0  0  0  0  0  0  0  0  0  0
  197.1560  180.2397  151.2477 C   0  0  0  0  0  0  0  0  0  0  0  0
  197.6097  180.2429  149.9025 C   0  0  0  0  0  0  0  0  0  0  0  0
  198.3399  181.3542  149.4030 C   0  0  0  0  0  0  0  0  0  0  0  0
  198.6622  182.4308  150.2765 C   0  0  0  0  0  0  0  0  0  0  0  0
  197.2912  179.0448  149.0067 C   0  0  1  0  0  0  0  0  0  0  0  0
  198.3707  178.0180  149.0095 N   0  0  2  0  0  0  0  0  0  0  0  0
  198.0331  176.8688  148.1476 C   0  0  2  0  0  0  0  0  0  0  0  0
  198.8050  177.5676  150.3558 C   0  0  2  0  0  0  0  0  0  0  0  0
  197.2885  185.5297  156.4236 C   0  0  0  0  0  0  0  0  0  0  0  0
  197.1355  184.8586  157.6607 C   0  0  0  0  0  0  0  0  0  0  0  0
  196.9677  183.5226  157.7052 N   0  0  0  0  0  0  0  0  0  0  0  0
  197.1459  185.5860  158.8707 C   0  0  0  0  0  0  0  0  0  0  0  0
  197.3016  186.9857  158.8426 C   0  0  0  0  0  0  0  0  0  0  0  0
  197.4560  187.6578  157.6141 C   0  0  0  0  0  0  0  0  0  0  0  0
  197.4550  186.9344  156.4038 C   0  0  0  0  0  0  0  0  0  0  0  0
  197.5825  178.3965  154.4292 H   0  0  0  0  0  0  0  0  0  0  0  0
  199.3857  178.0009  152.9924 H   0  0  0  0  0  0  0  0  0  0  0  0
  200.3048  179.3458  153.6265 H   0  0  0  0  0  0  0  0  0  0  0  0
  200.8874  176.1906  153.2202 H   0  0  0  0  0  0  0  0  0  0  0  0
  201.9774  174.5735  154.7578 H   0  0  0  0  0  0  0  0  0  0  0  0
  202.0400  175.0332  157.2091 H   0  0  0  0  0  0  0  0  0  0  0  0
  200.9910  177.0994  158.1205 H   0  0  0  0  0  0  0  0  0  0  0  0
  199.9150  178.7005  156.6196 H   0  0  0  0  0  0  0  0  0  0  0  0
  196.1320  180.9564  154.7627 H   0  0  0  0  0  0  0  0  0  0  0  0
  196.2849  179.5633  155.7406 H   0  0  0  0  0  0  0  0  0  0  0  0
  196.5621  181.0057  157.5803 H   0  0  0  0  0  0  0  0  0  0  0  0
  197.3642  186.2976  153.8725 H   0  0  0  0  0  0  0  0  0  0  0  0
  196.4119  183.9479  152.8019 H   0  0  0  0  0  0  0  0  0  0  0  0
  197.3334  185.1220  151.9051 H   0  0  0  0  0  0  0  0  0  0  0  0
  199.4588  184.0588  152.3012 H   0  0  0  0  0  0  0  0  0  0  0  0
  198.8408  183.0265  153.5387 H   0  0  0  0  0  0  0  0  0  0  0  0
  197.0319  181.3564  153.1143 H   0  0  0  0  0  0  0  0  0  0  0  0
  196.6286  179.3860  151.6414 H   0  0  0  0  0  0  0  0  0  0  0  0
  198.6763  181.3908  148.3689 H   0  0  0  0  0  0  0  0  0  0  0  0
  199.2446  183.2892  149.9246 H   0  0  0  0  0  0  0  0  0  0  0  0
  196.3498  178.6013  149.3403 H   0  0  0  0  0  0  0  0  0  0  0  0
  197.1217  179.4123  147.9882 H   0  0  0  0  0  0  0  0  0  0  0  0
  197.1479  176.3621  148.5329 H   0  0  0  0  0  0  0  0  0  0  0  0
  198.8580  176.1571  148.1348 H   0  0  0  0  0  0  0  0  0  0  0  0
  197.8390  177.1969  147.1261 H   0  0  0  0  0  0  0  0  0  0  0  0
  197.9783  177.1190  150.9156 H   0  0  0  0  0  0  0  0  0  0  0  0
  199.2002  178.4223  150.9035 H   0  0  0  0  0  0  0  0  0  0  0  0
  199.6199  176.8390  150.3032 H   0  0  0  0  0  0  0  0  0  0  0  0
  197.0233  185.0709  159.8113 H   0  0  0  0  0  0  0  0  0  0  0  0
  197.3050  187.5404  159.7705 H   0  0  0  0  0  0  0  0  0  0  0  0
  197.5766  188.7332  157.6037 H   0  0  0  0  0  0  0  0  0  0  0  0
  197.5732  187.4688  155.4728 H   0  0  0  0  0  0  0  0  0  0  0  0
  196.8669  183.0562  158.6053 H   0  0  0  0  0  0  0  0  0  0  0  0
  199.1756  178.4770  148.6063 H   0  0  0  0  0  0  0  0  0  0  0  0
  1  2  2  0
  2  3  1  0
  2 11  1  0
  3  4  1  0
  3 36  1  0
  4  5  1  0
  4 37  1  6
  4 38  1  0
  5  6  2  0
  5 10  1  0
  6  7  1  0
  6 39  1  0
  7  8  2  0
  7 40  1  0
  8  9  1  0
  8 41  1  0
  9 10  2  0
  9 42  1  0
 10 43  1  0
 11 12  1  0
 11 44  1  6
 11 45  1  0
 12 13  1  0
 12 46  1  0
 13 14  1  0
 13 31  2  0
 14 15  2  0
 15 16  1  0
 15 29  1  0
 16 17  1  0
 16 47  1  0
 17 18  1  0
 17 48  1  1
 17 49  1  0
 18 19  1  0
 18 50  1  6
 18 51  1  0
 19 20  1  0
 19 24  2  0
 20 21  2  0
 20 52  1  0
 21 22  1  0
 21 53  1  0
 22 23  2  0
 22 25  1  0
 23 24  1  0
 23 54  1  0
 24 55  1  0
 25 26  1  0
 25 56  1  1
 25 57  1  0
 26 27  1  0
 26 28  1  0
 26 69  1  6
 27 58  1  1
 27 59  1  0
 27 60  1  0
 28 61  1  1
 28 62  1  0
 28 63  1  0
 29 30  1  0
 29 35  2  0
 30 31  1  0
 30 32  2  0
 31 68  1  0
 32 33  1  0
 32 64  1  0
 33 34  2  0
 33 65  1  0
 34 35  1  0
 34 66  1  0
 35 67  1  0
M  CHG  2  26   1  31   1
M  END
>  <s_epik_cmdline>  (302) 
J2VwaWtfcHl0aG9uJywgJy1waCcsICc3LjAwMDAwMCcsICctcGh0JywgJzIuMDAwMDAwJywgJy1tcycsICcxNicsICctdG4nLCAnOCcsICctbWEnLCAnMjAwJywgJy1pbWFlJywgJzxpbmZpbGUubWFlPicsICctb21hZScsICc8b3V0ZmlsZS5tYWU+Jw==

>  <s_epik_input>  (302) 
W2NIXTFbY0hdW2NIXVtjSF1bY0hdYzFbQ0gyXVtOSF1DKD1PKVtDSDJdW05IXWMobmMoYzIzKVtjSF1bY0hdW2NIXVtjSF0zKW5jMltOSF1bQ0gyXVtDSDJdYzRbY0hdW2NIXWMoW2NIXVtjSF00KVtDSDJdTihbQ0gzXSlbQ0gzXQ==

>  <s_i_glide_gridfile>  (302) 
ATP-Grid

>  <s_lp_Force_Field>  (302) 
OPLS_2005

>  <s_lp_Variant>  (302) 
m_282030aaa____21926464____22360182____21963750-1

>  <s_lp_label>  (302) 
1502_sdstereoexpander_1_neutralizer_1_epik_1_stereoizer_1

>  <s_m_source_file>  (302) 
ATP-VSW-LIGPREP-003-in.maegz

>  <s_sd_BIOSOLVEIT.INFINISEE\_QUERY\_NAME>  (302) 
Ref-Lig

>  <s_sd_BIOSOLVEIT.INFINISEE\_QUERY\_SMILES>  (302) 
S(c1nc2c(cc1C[NH2+]Cc3ccc(cc3)C[NH+](C)C)cccc2)Cc4ccccc4

>  <s_sd_BIOSOLVEIT.INFINISEE\_REACTION\_NAME>  (302) 
m_282030aaa

>  <s_sd_BIOSOLVEIT.INFINISEE\_REAGENT1\_SMILES>  (302) 
[R1*]NCCc1ccc(cc1)CN(C)C

>  <s_sd_BIOSOLVEIT.INFINISEE\_REAGENT2\_SMILES>  (302) 
[R2*]c1nc([R1*])c2c(n1)cccc2

>  <s_sd_BIOSOLVEIT.INFINISEE\_REAGENT3\_SMILES>  (302) 
[R2*]NCC(=O)NCc1ccccc1

>  <s_sd_BIOSOLVEIT.INFINISEE\_SPACE>  (302) 
REALSpace_44bn_2023-08

>  <s_vsw_compound_code>  (302) 
48035

>  <s_vsw_variant>  (302) 
48035-1

>  <r_epik_Charging_Adjusted_Penalty>  (302) 
0.17224562712228

>  <r_epik_Ionization_Penalty>  (302) 
0.079399999999999998

>  <r_epik_Ionization_Penalty_Charging>  (302) 
0.079399999999999998

>  <r_epik_Ionization_Penalty_Neutral>  (302) 
0

>  <r_epik_State_Penalty>  (302) 
0.092899999999999996

>  <r_i_docking_score>  (302) 
-4.1251790691313097

>  <r_i_glide_ecoul>  (302) 
-5.7791581153869602

>  <r_i_glide_eff_state_penalty>  (302) 
0.092899999999999996

>  <r_i_glide_einternal>  (302) 
3.3751688003539999

>  <r_i_glide_emodel>  (302) 
-58.578752080701904

>  <r_i_glide_energy>  (302) 
-41.065634250640898

>  <r_i_glide_erotb>  (302) 
0.91236153909389595

>  <r_i_glide_esite>  (302) 
-0.22334282867269001

>  <r_i_glide_evdw>  (302) 
-35.286476135253899

>  <r_i_glide_gscore>  (302) 
-4.2180790691313099

>  <r_i_glide_hbond>  (302) 
-0.256228615091807

>  <r_i_glide_ligand_efficiency>  (302) 
-0.11786225911803699

>  <r_i_glide_ligand_efficiency_ln>  (302) 
-0.90556835909099498

>  <r_i_glide_ligand_efficiency_sa>  (302) 
-0.38553526458682602

>  <r_i_glide_lipo>  (302) 
-1.81927954948088

>  <r_i_glide_metal>  (302) 
-0

>  <r_i_glide_rewards>  (302) 
-0.20039209090908899

>  <r_lp_Energy>  (302) 
4.8044399999999996

>  <r_qp_ACxDN^.5/SA>  (302) 
0.0138015

>  <r_qp_CIQPlogS>  (302) 
-5.5899999999999999

>  <r_qp_EA(eV)>  (302) 
0.54300000000000004

>  <r_qp_FISA>  (302) 
84.209999999999994

>  <r_qp_FOSA>  (302) 
281.83699999999999

>  <r_qp_IP(eV)>  (302) 
7.9740000000000002

>  <r_qp_Jm>  (302) 
0.42037107572076998

>  <r_qp_PISA>  (302) 
367.56900000000002

>  <r_qp_PSA>  (302) 
81.016999999999996

>  <r_qp_PercentHumanOralAbsorption>  (302) 
93.837999999999994

>  <r_qp_QPPCaco>  (302) 
254.137

>  <r_qp_QPPMDCK>  (302) 
199.36500000000001

>  <r_qp_QPlogBB>  (302) 
-0.49099999999999999

>  <r_qp_QPlogHERG>  (302) 
-5.1790000000000003

>  <r_qp_QPlogKhsa>  (302) 
0.40400000000000003

>  <r_qp_QPlogKp>  (302) 
-2.7829999999999999

>  <r_qp_QPlogPC16>  (302) 
15.24

>  <r_qp_QPlogPo/w>  (302) 
4.0730000000000004

>  <r_qp_QPlogPoct>  (302) 
23.303000000000001

>  <r_qp_QPlogPw>  (302) 
13.834

>  <r_qp_QPlogS>  (302) 
-3.2639999999999998

>  <r_qp_QPpolrz>  (302) 
48.154000000000003

>  <r_qp_SASA>  (302) 
733.61599999999999

>  <r_qp_SAamideO>  (302) 
23.765000000000001

>  <r_qp_SAfluorine>  (302) 
0

>  <r_qp_WPSA>  (302) 
0

>  <r_qp_accptHB>  (302) 
6.75

>  <r_qp_dip^2/V>  (302) 
0.030439299999999999

>  <r_qp_dipole>  (302) 
6.6340000000000003

>  <r_qp_donorHB>  (302) 
2.25

>  <r_qp_glob>  (302) 
0.84288209999999997

>  <r_qp_mol_MW>  (302) 
468.60000000000002

>  <r_qp_volume>  (302) 
1445.7909999999999

>  <r_sd_BIOSOLVEIT.INFINISEE\_FTREES\_SIMILARITY>  (302) 
0.90700000000000003

>  <r_sd_BIOSOLVEIT.LOGP>  (302) 
2.6572

>  <r_sd_BIOSOLVEIT.MOLECULAR\_WEIGHT>  (302) 
469.61000000000001

>  <r_sd_BIOSOLVEIT.TPSA>  (302) 
83.379999999999995

>  <i_epik_Tot_Q>  (302) 
2

>  <i_epik_Tot_abs_Q>  (302) 
2

>  <i_f3d_flags>  (302) 
0

>  <i_i_glide_confnum>  (302) 
6

>  <i_i_glide_lignum>  (302) 
573

>  <i_i_glide_posenum>  (302) 
3

>  <i_i_glide_rotatable_bonds>  (302) 
12

>  <i_lp_mmshare_version>  (302) 
65135

>  <i_m_ct_format>  (302) 
2

>  <i_m_source_file_index>  (302) 
1502

>  <i_qp_#NandO>  (302) 
7

>  <i_qp_#acid>  (302) 
0

>  <i_qp_#amide>  (302) 
1

>  <i_qp_#amidine>  (302) 
0

>  <i_qp_#amine>  (302) 
1

>  <i_qp_#in34>  (302) 
0

>  <i_qp_#in56>  (302) 
22

>  <i_qp_#metab>  (302) 
6

>  <i_qp_#nonHatm>  (302) 
35

>  <i_qp_#noncon>  (302) 
0

>  <i_qp_#ringatoms>  (302) 
22

>  <i_qp_#rotor>  (302) 
11

>  <i_qp_#rtvFG>  (302) 
0

>  <i_qp_#stars>  (302) 
0

>  <i_qp_CNS>  (302) 
0

>  <i_qp_HumanOralAbsorption>  (302) 
3

>  <i_qp_RuleOfFive>  (302) 
0

>  <i_qp_RuleOfThree>  (302) 
0

>  <i_sd_BIOSOLVEIT.INFINISEE\_REAGENT1\_NAME>  (302) 
21926464

>  <i_sd_BIOSOLVEIT.INFINISEE\_REAGENT2\_NAME>  (302) 
22360182

>  <i_sd_BIOSOLVEIT.INFINISEE\_REAGENT3\_NAME>  (302) 
21963750

>  <i_sd_BIOSOLVEIT.INFINISEE\_RESULT\_RANK>  (302) 
59544

>  <i_sd_version>  (302) 
0

>  <b_lp_Chiralities_Consistent>  (302) 
1

>  <b_sd_chiral_flag>  (302) 
0

>  <canonical_id>  (302) 
ATP-HTVS-30B3F39EA660

>  <compound_code>  (302) 
48035

>  <title>  (302) 
m_282030aaa____21926464____22360182____21963750

>  <variant>  (302) 
48035-1

>  <source_file>  (302) 
运行/运行/ATP-VSW/ATP-VSW-DOCK_HTVS_1-003_lib/ATP-VSW-DOCK_HTVS_1-003_lib.mae

>  <canonical_smiles>  (302) 
C[NH+](C)Cc1ccc(CCNc2nc(NCC(=O)NCc3ccccc3)[nH+]c3ccccc23)cc1

>  <scaffold>  (302) 
O=C(CNc1nc(NCCc2ccccc2)c2ccccc2[nH+]1)NCc1ccccc1

>  <molecular_formula>  (302) 
C28H34N6O+2

$$$$
ATP-HTVS-30BD0ED907F3
     RDKit          3D

 72 75  0  0  0  0  0  0  0  0999 V2000
  199.1919  183.8400  159.3594 O   0  0  0  0  0  0  0  0  0  0  0  0
  199.9638  184.7671  159.1322 C   0  0  0  0  0  0  0  0  0  0  0  0
  201.1243  184.8798  159.7968 N   0  0  0  0  0  0  0  0  0  0  0  0
  201.5875  183.8921  160.7768 C   0  0  1  0  0  0  0  0  0  0  0  0
  202.3836  182.7471  160.1532 C   0  0  0  0  0  0  0  0  0  0  0  0
  202.0401  182.2092  158.8883 C   0  0  0  0  0  0  0  0  0  0  0  0
  202.7855  181.1648  158.3242 C   0  0  0  0  0  0  0  0  0  0  0  0
  203.8823  180.6388  159.0220 C   0  0  0  0  0  0  0  0  0  0  0  0
  204.2301  181.1487  160.2855 C   0  0  0  0  0  0  0  0  0  0  0  0
  203.4816  182.1999  160.8537 C   0  0  0  0  0  0  0  0  0  0  0  0
  199.6644  185.8477  158.0729 C   0  0  1  0  0  0  0  0  0  0  0  0
  198.6306  185.5638  157.0514 N   0  0  0  0  0  0  0  0  0  0  0  0
  197.4939  184.7939  157.3911 C   0  0  0  0  0  0  0  0  0  0  0  0
  197.3543  183.6167  156.7528 N   0  0  0  0  0  0  0  0  0  0  0  0
  196.4433  182.7314  157.1663 C   0  0  0  0  0  0  0  0  0  0  0  0
  195.6036  182.9969  158.1688 N   0  0  0  0  0  0  0  0  0  0  0  0
  195.6524  184.1903  158.8026 C   0  0  0  0  0  0  0  0  0  0  0  0
  196.6196  185.1529  158.4391 C   0  0  0  0  0  0  0  0  0  0  0  0
  196.6610  186.3955  159.1198 C   0  0  0  0  0  0  0  0  0  0  0  0
  195.7512  186.6631  160.1600 C   0  0  0  0  0  0  0  0  0  0  0  0
  194.7853  185.7038  160.5120 C   0  0  0  0  0  0  0  0  0  0  0  0
  194.7340  184.4725  159.8286 C   0  0  0  0  0  0  0  0  0  0  0  0
  196.4062  181.4832  156.5673 N   0  0  0  0  0  0  0  0  0  0  0  0
  196.9069  181.2294  155.2286 C   0  0  1  0  0  0  0  0  0  0  0  0
  197.1848  179.7390  155.0016 C   0  0  1  0  0  0  0  0  0  0  0  0
  197.5764  179.4473  153.5620 C   0  0  0  0  0  0  0  0  0  0  0  0
  198.8898  179.0463  153.2478 C   0  0  0  0  0  0  0  0  0  0  0  0
  199.2444  178.7691  151.9138 C   0  0  0  0  0  0  0  0  0  0  0  0
  198.2890  178.8975  150.8821 C   0  0  0  0  0  0  0  0  0  0  0  0
  196.9764  179.3048  151.1968 C   0  0  0  0  0  0  0  0  0  0  0  0
  196.6205  179.5715  152.5313 C   0  0  0  0  0  0  0  0  0  0  0  0
  198.6719  178.6026  149.4413 C   0  0  1  0  0  0  0  0  0  0  0  0
  198.1852  177.2774  148.9778 N   0  0  1  0  0  0  0  0  0  0  0  0
  198.3775  177.0999  147.5212 C   0  0  2  0  0  0  0  0  0  0  0  0
  198.7365  176.1377  149.7506 C   0  0  2  0  0  0  0  0  0  0  0  0
  199.0279  185.5366  155.6438 C   0  0  2  0  0  0  0  0  0  0  0  0
  201.7423  185.6475  159.5857 H   0  0  0  0  0  0  0  0  0  0  0  0
  202.1812  184.4053  161.5352 H   0  0  0  0  0  0  0  0  0  0  0  0
  200.7429  183.4541  161.3141 H   0  0  0  0  0  0  0  0  0  0  0  0
  201.2018  182.5753  158.3194 H   0  0  0  0  0  0  0  0  0  0  0  0
  202.5092  180.7765  157.3561 H   0  0  0  0  0  0  0  0  0  0  0  0
  204.4555  179.8373  158.5767 H   0  0  0  0  0  0  0  0  0  0  0  0
  205.0740  180.7391  160.8171 H   0  0  0  0  0  0  0  0  0  0  0  0
  203.7535  182.5922  161.8246 H   0  0  0  0  0  0  0  0  0  0  0  0
  199.4378  186.7796  158.5810 H   0  0  0  0  0  0  0  0  0  0  0  0
  200.5938  186.0619  157.5509 H   0  0  0  0  0  0  0  0  0  0  0  0
  197.3740  187.1597  158.8584 H   0  0  0  0  0  0  0  0  0  0  0  0
  195.7937  187.6120  160.6800 H   0  0  0  0  0  0  0  0  0  0  0  0
  194.0703  185.9227  161.2892 H   0  0  0  0  0  0  0  0  0  0  0  0
  193.9877  183.7459  160.1024 H   0  0  0  0  0  0  0  0  0  0  0  0
  195.9051  180.7313  157.0414 H   0  0  0  0  0  0  0  0  0  0  0  0
  196.1657  181.5945  154.5148 H   0  0  0  0  0  0  0  0  0  0  0  0
  197.8226  181.7914  155.0427 H   0  0  0  0  0  0  0  0  0  0  0  0
  197.9816  179.4178  155.6753 H   0  0  0  0  0  0  0  0  0  0  0  0
  196.3158  179.1414  155.2668 H   0  0  0  0  0  0  0  0  0  0  0  0
  199.6298  178.9407  154.0296 H   0  0  0  0  0  0  0  0  0  0  0  0
  200.2542  178.4569  151.6896 H   0  0  0  0  0  0  0  0  0  0  0  0
  196.2314  179.4043  150.4197 H   0  0  0  0  0  0  0  0  0  0  0  0
  195.6076  179.8671  152.7614 H   0  0  0  0  0  0  0  0  0  0  0  0
  198.2476  179.3884  148.8138 H   0  0  0  0  0  0  0  0  0  0  0  0
  199.7548  178.6651  149.3246 H   0  0  0  0  0  0  0  0  0  0  0  0
  199.4362  177.1003  147.2605 H   0  0  0  0  0  0  0  0  0  0  0  0
  197.8872  177.8965  146.9601 H   0  0  0  0  0  0  0  0  0  0  0  0
  197.9567  176.1535  147.1885 H   0  0  0  0  0  0  0  0  0  0  0  0
  199.8241  176.1030  149.6748 H   0  0  0  0  0  0  0  0  0  0  0  0
  198.3413  175.1911  149.3815 H   0  0  0  0  0  0  0  0  0  0  0  0
  198.4698  176.2035  150.8060 H   0  0  0  0  0  0  0  0  0  0  0  0
  198.1572  185.5402  154.9814 H   0  0  0  0  0  0  0  0  0  0  0  0
  199.6137  184.6410  155.4270 H   0  0  0  0  0  0  0  0  0  0  0  0
  199.6295  186.4086  155.3814 H   0  0  0  0  0  0  0  0  0  0  0  0
  194.8983  182.3092  158.4388 H   0  0  0  0  0  0  0  0  0  0  0  0
  197.1875  177.2699  149.1316 H   0  0  0  0  0  0  0  0  0  0  0  0
  1  2  2  0
  2  3  1  0
  2 11  1  0
  3  4  1  0
  3 37  1  0
  4  5  1  0
  4 38  1  1
  4 39  1  0
  5  6  2  0
  5 10  1  0
  6  7  1  0
  6 40  1  0
  7  8  2  0
  7 41  1  0
  8  9  1  0
  8 42  1  0
  9 10  2  0
  9 43  1  0
 10 44  1  0
 11 12  1  0
 11 45  1  1
 11 46  1  0
 12 13  1  0
 12 36  1  0
 13 14  2  0
 13 18  1  0
 14 15  1  0
 15 16  2  0
 15 23  1  0
 16 17  1  0
 16 71  1  0
 17 18  1  0
 17 22  2  0
 18 19  2  0
 19 20  1  0
 19 47  1  0
 20 21  2  0
 20 48  1  0
 21 22  1  0
 21 49  1  0
 22 50  1  0
 23 24  1  0
 23 51  1  0
 24 25  1  0
 24 52  1  6
 24 53  1  0
 25 26  1  0
 25 54  1  1
 25 55  1  0
 26 27  1  0
 26 31  2  0
 27 28  2  0
 27 56  1  0
 28 29  1  0
 28 57  1  0
 29 30  2  0
 29 32  1  0
 30 31  1  0
 30 58  1  0
 31 59  1  0
 32 33  1  0
 32 60  1  6
 32 61  1  0
 33 34  1  0
 33 35  1  0
 33 72  1  6
 34 62  1  1
 34 63  1  0
 34 64  1  0
 35 65  1  1
 35 66  1  0
 35 67  1  0
 36 68  1  6
 36 69  1  0
 36 70  1  0
M  CHG  2  16   1  33   1
M  END
>  <s_epik_cmdline>  (303) 
J2VwaWtfcHl0aG9uJywgJy1waCcsICc3LjAwMDAwMCcsICctcGh0JywgJzIuMDAwMDAwJywgJy1tcycsICcxNicsICctdG4nLCAnOCcsICctbWEnLCAnMjAwJywgJy1pbWFlJywgJzxpbmZpbGUubWFlPicsICctb21hZScsICc8b3V0ZmlsZS5tYWU+Jw==

>  <s_epik_input>  (303) 
W2NIXTFbY0hdW2NIXVtjSF1bY0hdYzFbQ0gyXVtOSF1DKD1PKVtDSDJdTihbQ0gzXSljKGMoYzIzKVtjSF1bY0hdW2NIXVtjSF0zKW5jKG4yKVtOSF1bQ0gyXVtDSDJdYzRbY0hdW2NIXWMoW2NIXVtjSF00KVtDSDJdTihbQ0gzXSlbQ0gzXQ==

>  <s_i_glide_gridfile>  (303) 
ATP-Grid

>  <s_lp_Force_Field>  (303) 
OPLS_2005

>  <s_lp_Variant>  (303) 
m_282030aaa____21894442____22360182____21967972-1

>  <s_lp_label>  (303) 
1025_sdstereoexpander_1_neutralizer_1_epik_1_stereoizer_1

>  <s_m_source_file>  (303) 
ATP-VSW-LIGPREP-002-in.maegz

>  <s_sd_BIOSOLVEIT.INFINISEE\_QUERY\_NAME>  (303) 
Ref-Lig

>  <s_sd_BIOSOLVEIT.INFINISEE\_QUERY\_SMILES>  (303) 
S(c1nc2c(cc1C[NH2+]Cc3ccc(cc3)C[NH+](C)C)cccc2)Cc4ccccc4

>  <s_sd_BIOSOLVEIT.INFINISEE\_REACTION\_NAME>  (303) 
m_282030aaa

>  <s_sd_BIOSOLVEIT.INFINISEE\_REAGENT1\_SMILES>  (303) 
[R1*]N(CC(=O)NCc1ccccc1)C

>  <s_sd_BIOSOLVEIT.INFINISEE\_REAGENT2\_SMILES>  (303) 
[R2*]c1nc([R1*])c2c(n1)cccc2

>  <s_sd_BIOSOLVEIT.INFINISEE\_REAGENT3\_SMILES>  (303) 
[R2*]NCCc1ccc(cc1)CN(C)C

>  <s_sd_BIOSOLVEIT.INFINISEE\_SPACE>  (303) 
REALSpace_44bn_2023-08

>  <s_vsw_compound_code>  (303) 
32770

>  <s_vsw_variant>  (303) 
32770-1

>  <r_epik_Charging_Adjusted_Penalty>  (303) 
0.114574438524181

>  <r_epik_Ionization_Penalty>  (303) 
0.054899999999999997

>  <r_epik_Ionization_Penalty_Charging>  (303) 
0.054899999999999997

>  <r_epik_Ionization_Penalty_Neutral>  (303) 
0

>  <r_epik_State_Penalty>  (303) 
0.059700000000000003

>  <r_i_docking_score>  (303) 
-4.9250162776801503

>  <r_i_glide_ecoul>  (303) 
-5.4592351913452104

>  <r_i_glide_eff_state_penalty>  (303) 
0.059700000000000003

>  <r_i_glide_einternal>  (303) 
4.8926296234130904

>  <r_i_glide_emodel>  (303) 
-64.486344494132595

>  <r_i_glide_energy>  (303) 
-44.673754692077601

>  <r_i_glide_erotb>  (303) 
0.86469965299962803

>  <r_i_glide_esite>  (303) 
-0.204066235499645

>  <r_i_glide_evdw>  (303) 
-39.214519500732401

>  <r_i_glide_gscore>  (303) 
-4.9847162776801497

>  <r_i_glide_hbond>  (303) 
-0.20000000000000001

>  <r_i_glide_ligand_efficiency>  (303) 
-0.13680600771333801

>  <r_i_glide_ligand_efficiency_ln>  (303) 
-1.0745054932267999

>  <r_i_glide_ligand_efficiency_sa>  (303) 
-0.45172348414157099

>  <r_i_glide_lipo>  (303) 
-2.4441007496232601

>  <r_i_glide_metal>  (303) 
-0

>  <r_i_glide_rewards>  (303) 
-0.22163769181846901

>  <r_lp_Energy>  (303) 
14.525017

>  <r_qp_ACxDN^.5/SA>  (303) 
0.0135038

>  <r_qp_CIQPlogS>  (303) 
-5.5999999999999996

>  <r_qp_EA(eV)>  (303) 
1.034

>  <r_qp_FISA>  (303) 
68.719999999999999

>  <r_qp_FOSA>  (303) 
335.02300000000002

>  <r_qp_IP(eV)>  (303) 
8.3490000000000002

>  <r_qp_Jm>  (303) 
0.43911620310816901

>  <r_qp_PISA>  (303) 
381.71100000000001

>  <r_qp_PSA>  (303) 
70.022000000000006

>  <r_qp_PercentHumanOralAbsorption>  (303) 
100

>  <r_qp_QPPCaco>  (303) 
296.70800000000003

>  <r_qp_QPPMDCK>  (303) 
287.35899999999998

>  <r_qp_QPlogBB>  (303) 
-0.38700000000000001

>  <r_qp_QPlogHERG>  (303) 
-5.665

>  <r_qp_QPlogKhsa>  (303) 
0.47699999999999998

>  <r_qp_QPlogKp>  (303) 
-2.448

>  <r_qp_QPlogPC16>  (303) 
15.972

>  <r_qp_QPlogPo/w>  (303) 
4.4329999999999998

>  <r_qp_QPlogPoct>  (303) 
24.236000000000001

>  <r_qp_QPlogPw>  (303) 
15.061999999999999

>  <r_qp_QPlogS>  (303) 
-3.593

>  <r_qp_QPpolrz>  (303) 
51.601999999999997

>  <r_qp_SASA>  (303) 
785.45399999999995

>  <r_qp_SAamideO>  (303) 
33.768999999999998

>  <r_qp_SAfluorine>  (303) 
0

>  <r_qp_WPSA>  (303) 
0

>  <r_qp_accptHB>  (303) 
7.5

>  <r_qp_dip^2/V>  (303) 
0.017079

>  <r_qp_dipole>  (303) 
5.109

>  <r_qp_donorHB>  (303) 
2

>  <r_qp_glob>  (303) 
0.81703139999999996

>  <r_qp_mol_MW>  (303) 
482.62700000000001

>  <r_qp_volume>  (303) 
1528.5909999999999

>  <r_sd_BIOSOLVEIT.INFINISEE\_FTREES\_SIMILARITY>  (303) 
0.91500000000000004

>  <r_sd_BIOSOLVEIT.LOGP>  (303) 
2.6815000000000002

>  <r_sd_BIOSOLVEIT.MOLECULAR\_WEIGHT>  (303) 
483.637

>  <r_sd_BIOSOLVEIT.TPSA>  (303) 
74.590000000000003

>  <i_epik_Tot_Q>  (303) 
2

>  <i_epik_Tot_abs_Q>  (303) 
2

>  <i_f3d_flags>  (303) 
0

>  <i_i_glide_confnum>  (303) 
13

>  <i_i_glide_lignum>  (303) 
328

>  <i_i_glide_posenum>  (303) 
6

>  <i_i_glide_rotatable_bonds>  (303) 
12

>  <i_lp_mmshare_version>  (303) 
65135

>  <i_m_ct_format>  (303) 
2

>  <i_m_source_file_index>  (303) 
1025

>  <i_qp_#NandO>  (303) 
7

>  <i_qp_#acid>  (303) 
0

>  <i_qp_#amide>  (303) 
1

>  <i_qp_#amidine>  (303) 
0

>  <i_qp_#amine>  (303) 
1

>  <i_qp_#in34>  (303) 
0

>  <i_qp_#in56>  (303) 
22

>  <i_qp_#metab>  (303) 
5

>  <i_qp_#nonHatm>  (303) 
36

>  <i_qp_#noncon>  (303) 
0

>  <i_qp_#ringatoms>  (303) 
22

>  <i_qp_#rotor>  (303) 
11

>  <i_qp_#rtvFG>  (303) 
0

>  <i_qp_#stars>  (303) 
0

>  <i_qp_CNS>  (303) 
1

>  <i_qp_HumanOralAbsorption>  (303) 
3

>  <i_qp_RuleOfFive>  (303) 
0

>  <i_qp_RuleOfThree>  (303) 
0

>  <i_sd_BIOSOLVEIT.INFINISEE\_REAGENT1\_NAME>  (303) 
21894442

>  <i_sd_BIOSOLVEIT.INFINISEE\_REAGENT2\_NAME>  (303) 
22360182

>  <i_sd_BIOSOLVEIT.INFINISEE\_REAGENT3\_NAME>  (303) 
21967972

>  <i_sd_BIOSOLVEIT.INFINISEE\_RESULT\_RANK>  (303) 
27732

>  <i_sd_version>  (303) 
0

>  <b_lp_Chiralities_Consistent>  (303) 
1

>  <b_sd_chiral_flag>  (303) 
0

>  <canonical_id>  (303) 
ATP-HTVS-30BD0ED907F3

>  <compound_code>  (303) 
32770

>  <title>  (303) 
m_282030aaa____21894442____22360182____21967972

>  <variant>  (303) 
32770-1

>  <source_file>  (303) 
运行/运行/ATP-VSW/ATP-VSW-DOCK_HTVS_1-002_lib.maegz

>  <canonical_smiles>  (303) 
CN(CC(=O)NCc1ccccc1)c1nc(NCCc2ccc(C[NH+](C)C)cc2)[nH+]c2ccccc12

>  <scaffold>  (303) 
O=C(CNc1nc(NCCc2ccccc2)[nH+]c2ccccc12)NCc1ccccc1

>  <molecular_formula>  (303) 
C29H36N6O+2

$$$$
ATP-HTVS-30D2448AA284
     RDKit          3D

 65 68  0  0  0  0  0  0  0  0999 V2000
  196.8643  179.2358  152.1400 O   0  0  0  0  0  0  0  0  0  0  0  0
  196.9902  180.3905  152.5335 C   0  0  0  0  0  0  0  0  0  0  0  0
  197.8003  180.8105  153.5146 N   0  0  0  0  0  0  0  0  0  0  0  0
  198.6536  180.0207  154.3216 C   0  0  0  0  0  0  0  0  0  0  0  0
  199.0859  178.7957  153.9424 N   0  0  0  0  0  0  0  0  0  0  0  0
  199.8652  178.0560  154.7517 C   0  0  0  0  0  0  0  0  0  0  0  0
  200.2929  178.5557  156.0035 C   0  0  0  0  0  0  0  0  0  0  0  0
  199.8809  179.8426  156.4031 C   0  0  0  0  0  0  0  0  0  0  0  0
  199.0311  180.5961  155.5647 C   0  0  0  0  0  0  0  0  0  0  0  0
  198.5477  181.8690  155.9340 N   0  0  0  0  0  0  0  0  0  0  0  0
  198.5847  182.1998  157.3482 C   0  0  1  0  0  0  0  0  0  0  0  0
  198.2246  183.6266  157.6909 C   0  0  0  0  0  0  0  0  0  0  0  0
  197.3461  183.8764  158.7601 C   0  0  0  0  0  0  0  0  0  0  0  0
  197.1037  185.2008  159.1678 C   0  0  0  0  0  0  0  0  0  0  0  0
  197.7290  186.2698  158.4959 C   0  0  0  0  0  0  0  0  0  0  0  0
  198.6038  186.0173  157.4216 C   0  0  0  0  0  0  0  0  0  0  0  0
  198.8547  184.6936  157.0204 C   0  0  0  0  0  0  0  0  0  0  0  0
  196.2081  185.4679  160.3542 C   0  0  1  0  0  0  0  0  0  0  0  0
  194.7951  185.6884  159.9603 N   0  0  1  0  0  0  0  0  0  0  0  0
  194.0828  184.4351  159.6230 C   0  0  2  0  0  0  0  0  0  0  0  0
  194.0536  186.4929  160.9586 C   0  0  2  0  0  0  0  0  0  0  0  0
  201.1205  177.7962  156.8488 C   0  0  0  0  0  0  0  0  0  0  0  0
  201.5225  176.5053  156.4614 C   0  0  0  0  0  0  0  0  0  0  0  0
  201.0949  175.9860  155.2264 C   0  0  0  0  0  0  0  0  0  0  0  0
  200.2750  176.7556  154.3770 C   0  0  0  0  0  0  0  0  0  0  0  0
  196.0811  181.4552  151.9542 C   0  0  1  0  0  0  0  0  0  0  0  0
  196.6986  182.2834  150.8291 C   0  0  0  0  0  0  0  0  0  0  0  0
  197.3928  181.7039  149.7271 C   0  0  0  0  0  0  0  0  0  0  0  0
  197.5187  180.3478  149.5565 O   0  0  0  0  0  0  0  0  0  0  0  0
  196.3543  179.5797  149.2856 C   0  0  2  0  0  0  0  0  0  0  0  0
  197.9947  182.5564  148.7834 C   0  0  0  0  0  0  0  0  0  0  0  0
  197.8652  183.9521  148.8599 C   0  0  0  0  0  0  0  0  0  0  0  0
  197.1230  184.5230  149.9126 C   0  0  0  0  0  0  0  0  0  0  0  0
  196.5517  183.6913  150.8903 C   0  0  0  0  0  0  0  0  0  0  0  0
  197.7430  181.7851  153.7620 H   0  0  0  0  0  0  0  0  0  0  0  0
  200.2285  180.2146  157.3578 H   0  0  0  0  0  0  0  0  0  0  0  0
  197.6958  182.1788  155.4888 H   0  0  0  0  0  0  0  0  0  0  0  0
  197.9161  181.5089  157.8646 H   0  0  0  0  0  0  0  0  0  0  0  0
  199.5958  182.0734  157.7348 H   0  0  0  0  0  0  0  0  0  0  0  0
  196.9014  183.0427  159.2826 H   0  0  0  0  0  0  0  0  0  0  0  0
  197.5593  187.2901  158.8114 H   0  0  0  0  0  0  0  0  0  0  0  0
  199.0980  186.8342  156.9193 H   0  0  0  0  0  0  0  0  0  0  0  0
  199.5593  184.4933  156.2251 H   0  0  0  0  0  0  0  0  0  0  0  0
  196.2686  184.6239  161.0422 H   0  0  0  0  0  0  0  0  0  0  0  0
  196.5988  186.3428  160.8818 H   0  0  0  0  0  0  0  0  0  0  0  0
  194.0696  183.7809  160.4927 H   0  0  0  0  0  0  0  0  0  0  0  0
  194.5603  183.9022  158.7988 H   0  0  0  0  0  0  0  0  0  0  0  0
  193.0521  184.6369  159.3330 H   0  0  0  0  0  0  0  0  0  0  0  0
  194.0038  185.9847  161.9216 H   0  0  0  0  0  0  0  0  0  0  0  0
  193.0353  186.6839  160.6229 H   0  0  0  0  0  0  0  0  0  0  0  0
  194.5394  187.4550  161.1156 H   0  0  0  0  0  0  0  0  0  0  0  0
  201.4474  178.2055  157.7932 H   0  0  0  0  0  0  0  0  0  0  0  0
  202.1628  175.9318  157.1134 H   0  0  0  0  0  0  0  0  0  0  0  0
  201.4028  174.9922  154.9298 H   0  0  0  0  0  0  0  0  0  0  0  0
  199.9450  176.3531  153.4339 H   0  0  0  0  0  0  0  0  0  0  0  0
  195.2361  180.9053  151.5390 H   0  0  0  0  0  0  0  0  0  0  0  0
  195.7075  182.1123  152.7500 H   0  0  0  0  0  0  0  0  0  0  0  0
  196.6468  178.5285  149.3019 H   0  0  0  0  0  0  0  0  0  0  0  0
  195.9289  179.7867  148.2941 H   0  0  0  0  0  0  0  0  0  0  0  0
  195.5701  179.7379  150.0219 H   0  0  0  0  0  0  0  0  0  0  0  0
  198.5522  182.1139  147.9797 H   0  0  0  0  0  0  0  0  0  0  0  0
  198.3207  184.5823  148.1137 H   0  0  0  0  0  0  0  0  0  0  0  0
  197.0180  185.5964  149.9713 H   0  0  0  0  0  0  0  0  0  0  0  0
  195.9893  184.1468  151.7027 H   0  0  0  0  0  0  0  0  0  0  0  0
  194.8152  186.2347  159.1107 H   0  0  0  0  0  0  0  0  0  0  0  0
  1  2  2  0
  2  3  1  0
  2 26  1  0
  3  4  1  0
  3 35  1  0
  4  5  2  0
  4  9  1  0
  5  6  1  0
  6  7  1  0
  6 25  2  0
  7  8  1  0
  7 22  2  0
  8  9  2  0
  8 36  1  0
  9 10  1  0
 10 11  1  0
 10 37  1  0
 11 12  1  0
 11 38  1  1
 11 39  1  0
 12 13  2  0
 12 17  1  0
 13 14  1  0
 13 40  1  0
 14 15  2  0
 14 18  1  0
 15 16  1  0
 15 41  1  0
 16 17  2  0
 16 42  1  0
 17 43  1  0
 18 19  1  0
 18 44  1  1
 18 45  1  0
 19 20  1  0
 19 21  1  0
 19 65  1  6
 20 46  1  1
 20 47  1  0
 20 48  1  0
 21 49  1  1
 21 50  1  0
 21 51  1  0
 22 23  1  0
 22 52  1  0
 23 24  2  0
 23 53  1  0
 24 25  1  0
 24 54  1  0
 25 55  1  0
 26 27  1  0
 26 56  1  6
 26 57  1  0
 27 28  1  0
 27 34  2  0
 28 29  1  0
 28 31  2  0
 29 30  1  0
 30 58  1  6
 30 59  1  0
 30 60  1  0
 31 32  1  0
 31 61  1  0
 32 33  2  0
 32 62  1  0
 33 34  1  0
 33 63  1  0
 34 64  1  0
M  CHG  1  19   1
M  END
>  <s_epik_cmdline>  (304) 
J2VwaWtfcHl0aG9uJywgJy1waCcsICc3LjAwMDAwMCcsICctcGh0JywgJzIuMDAwMDAwJywgJy1tcycsICcxNicsICctdG4nLCAnOCcsICctbWEnLCAnMjAwJywgJy1pbWFlJywgJzxpbmZpbGUubWFlPicsICctb21hZScsICc8b3V0ZmlsZS5tYWU+Jw==

>  <s_epik_input>  (304) 
W2NIXTFbY0hdW2NIXVtjSF1jKE9bQ0gzXSljMVtDSDJdQyg9TylbTkhdYyhuMiljKFtjSF1jKGMyMylbY0hdW2NIXVtjSF1bY0hdMylbTkhdW0NIMl1jNFtjSF1jKFtjSF1bY0hdW2NIXTQpW0NIMl1OKFtDSDNdKVtDSDNd

>  <s_i_glide_gridfile>  (304) 
ATP-Grid

>  <s_lp_Force_Field>  (304) 
OPLS_2005

>  <s_lp_Variant>  (304) 
rxn502b____EMOL32280493____EMOL44466703____EMOL2873214-1

>  <s_lp_label>  (304) 
2224_sdstereoexpander_1_neutralizer_1_epik_1_stereoizer_1

>  <s_m_source_file>  (304) 
ATP-VSW-LIGPREP-001-in.maegz

>  <s_sd_BIOSOLVEIT.INFINISEE\_QUERY\_NAME>  (304) 
Ref-Lig

>  <s_sd_BIOSOLVEIT.INFINISEE\_QUERY\_SMILES>  (304) 
S(c1nc2c(cc1C[NH2+]Cc3ccc(cc3)C[NH+](C)C)cccc2)Cc4ccccc4

>  <s_sd_BIOSOLVEIT.INFINISEE\_REACTION\_NAME>  (304) 
rxn502b

>  <s_sd_BIOSOLVEIT.INFINISEE\_REAGENT1\_NAME>  (304) 
EMOL32280493

>  <s_sd_BIOSOLVEIT.INFINISEE\_REAGENT1\_SMILES>  (304) 
ClC(=O)Cc1c(OC)cccc1

>  <s_sd_BIOSOLVEIT.INFINISEE\_REAGENT2\_NAME>  (304) 
EMOL44466703

>  <s_sd_BIOSOLVEIT.INFINISEE\_REAGENT2\_SMILES>  (304) 
Brc1c(nc2c(c1)cccc2)N

>  <s_sd_BIOSOLVEIT.INFINISEE\_REAGENT3\_NAME>  (304) 
EMOL2873214

>  <s_sd_BIOSOLVEIT.INFINISEE\_REAGENT3\_SMILES>  (304) 
N(Cc1cc(ccc1)CN)(C)C

>  <s_sd_BIOSOLVEIT.INFINISEE\_SPACE>  (304) 
eXplore_7tr_2022-12

>  <s_vsw_compound_code>  (304) 
71137

>  <s_vsw_variant>  (304) 
71137-1

>  <r_epik_Charging_Adjusted_Penalty>  (304) 
0.094209532796881795

>  <r_epik_Ionization_Penalty>  (304) 
0.050599999999999999

>  <r_epik_Ionization_Penalty_Charging>  (304) 
0.0441

>  <r_epik_Ionization_Penalty_Neutral>  (304) 
0.0064999999999999997

>  <r_epik_State_Penalty>  (304) 
0.050099999999999999

>  <r_i_docking_score>  (304) 
-4.4917818030910999

>  <r_i_glide_ecoul>  (304) 
-3.7220494747161901

>  <r_i_glide_eff_state_penalty>  (304) 
0.050099999999999999

>  <r_i_glide_einternal>  (304) 
11.8816566467285

>  <r_i_glide_emodel>  (304) 
-50.383821595466799

>  <r_i_glide_energy>  (304) 
-41.369327306747401

>  <r_i_glide_erotb>  (304) 
0.77439018997812004

>  <r_i_glide_esite>  (304) 
-0.021679591321526599

>  <r_i_glide_evdw>  (304) 
-37.6472778320312

>  <r_i_glide_gscore>  (304) 
-4.5418818030911003

>  <r_i_glide_hbond>  (304) 
0

>  <r_i_glide_ligand_efficiency>  (304) 
-0.13211122950267901

>  <r_i_glide_ligand_efficiency_ln>  (304) 
-0.99236059051482794

>  <r_i_glide_ligand_efficiency_sa>  (304) 
-0.42798909767507698

>  <r_i_glide_lipo>  (304) 
-2.4332542452836701

>  <r_i_glide_metal>  (304) 
-0

>  <r_i_glide_rewards>  (304) 
-0.42066684365503598

>  <r_lp_Energy>  (304) 
24.115152999999999

>  <r_lp_tautomer_probability>  (304) 
1

>  <r_qp_ACxDN^.5/SA>  (304) 
0.0139691

>  <r_qp_CIQPlogS>  (304) 
-5.7759999999999998

>  <r_qp_EA(eV)>  (304) 
0.66300000000000003

>  <r_qp_FISA>  (304) 
28.891999999999999

>  <r_qp_FOSA>  (304) 
279.803

>  <r_qp_IP(eV)>  (304) 
8.3970000000000002

>  <r_qp_Jm>  (304) 
0.46427331826695001

>  <r_qp_PISA>  (304) 
425.286

>  <r_qp_PSA>  (304) 
61.595999999999997

>  <r_qp_PercentHumanOralAbsorption>  (304) 
100

>  <r_qp_QPPCaco>  (304) 
1314.6690000000001

>  <r_qp_QPPMDCK>  (304) 
735.62400000000002

>  <r_qp_QPlogBB>  (304) 
0.14499999999999999

>  <r_qp_QPlogHERG>  (304) 
-6.9249999999999998

>  <r_qp_QPlogKhsa>  (304) 
0.68899999999999995

>  <r_qp_QPlogKp>  (304) 
-1.752

>  <r_qp_QPlogPC16>  (304) 
15.090999999999999

>  <r_qp_QPlogPo/w>  (304) 
4.8949999999999996

>  <r_qp_QPlogPoct>  (304) 
23.399000000000001

>  <r_qp_QPlogPw>  (304) 
12.66

>  <r_qp_QPlogS>  (304) 
-4.2380000000000004

>  <r_qp_QPpolrz>  (304) 
49.420999999999999

>  <r_qp_SASA>  (304) 
733.98099999999999

>  <r_qp_SAamideO>  (304) 
0

>  <r_qp_SAfluorine>  (304) 
0

>  <r_qp_WPSA>  (304) 
0

>  <r_qp_accptHB>  (304) 
7.25

>  <r_qp_dip^2/V>  (304) 
0.022576300000000001

>  <r_qp_dipole>  (304) 
5.6849999999999996

>  <r_qp_donorHB>  (304) 
2

>  <r_qp_glob>  (304) 
0.83693989999999996

>  <r_qp_mol_MW>  (304) 
454.57100000000003

>  <r_qp_volume>  (304) 
1431.598

>  <r_sd_BIOSOLVEIT.INFINISEE\_FTREES\_SIMILARITY>  (304) 
0.92900000000000005

>  <r_sd_BIOSOLVEIT.LOGP>  (304) 
3.6812

>  <r_sd_BIOSOLVEIT.MOLECULAR\_WEIGHT>  (304) 
455.57900000000001

>  <r_sd_BIOSOLVEIT.TPSA>  (304) 
67.689999999999998

>  <i_epik_Tot_Q>  (304) 
1

>  <i_epik_Tot_abs_Q>  (304) 
1

>  <i_f3d_flags>  (304) 
0

>  <i_i_glide_confnum>  (304) 
5

>  <i_i_glide_lignum>  (304) 
750

>  <i_i_glide_posenum>  (304) 
8

>  <i_i_glide_rotatable_bonds>  (304) 
10

>  <i_lp_mmshare_version>  (304) 
65135

>  <i_m_ct_format>  (304) 
2

>  <i_m_source_file_index>  (304) 
2224

>  <i_qp_#NandO>  (304) 
6

>  <i_qp_#acid>  (304) 
0

>  <i_qp_#amide>  (304) 
0

>  <i_qp_#amidine>  (304) 
0

>  <i_qp_#amine>  (304) 
1

>  <i_qp_#in34>  (304) 
0

>  <i_qp_#in56>  (304) 
22

>  <i_qp_#metab>  (304) 
7

>  <i_qp_#nonHatm>  (304) 
34

>  <i_qp_#noncon>  (304) 
0

>  <i_qp_#ringatoms>  (304) 
22

>  <i_qp_#rotor>  (304) 
9

>  <i_qp_#rtvFG>  (304) 
0

>  <i_qp_#stars>  (304) 
0

>  <i_qp_CNS>  (304) 
1

>  <i_qp_HumanOralAbsorption>  (304) 
3

>  <i_qp_RuleOfFive>  (304) 
0

>  <i_qp_RuleOfThree>  (304) 
1

>  <i_sd_BIOSOLVEIT.INFINISEE\_RESULT\_RANK>  (304) 
5453

>  <i_sd_version>  (304) 
0

>  <b_lp_Chiralities_Consistent>  (304) 
1

>  <b_sd_chiral_flag>  (304) 
0

>  <canonical_id>  (304) 
ATP-HTVS-30D2448AA284

>  <compound_code>  (304) 
71137

>  <title>  (304) 
rxn502b____EMOL32280493____EMOL44466703____EMOL2873214

>  <variant>  (304) 
71137-1

>  <source_file>  (304) 
运行/运行/ATP-VSW/ATP-VSW-DOCK_HTVS_1-001_lib/ATP-VSW-DOCK_HTVS_1-001_lib

>  <canonical_smiles>  (304) 
COc1ccccc1CC(=O)Nc1nc2ccccc2cc1NCc1cccc(C[NH+](C)C)c1

>  <scaffold>  (304) 
O=C(Cc1ccccc1)Nc1nc2ccccc2cc1NCc1ccccc1

>  <molecular_formula>  (304) 
C28H31N4O2+

$$$$
ATP-HTVS-3100283A95A9
     RDKit          3D

 63 66  0  0  0  0  0  0  0  0999 V2000
  198.6280  184.7322  159.3308 Cl  0  0  0  0  0  0  0  0  0  0  0  0
  196.9204  184.4945  159.4287 C   0  0  0  0  0  0  0  0  0  0  0  0
  196.3011  183.3110  158.9452 C   0  0  0  0  0  0  0  0  0  0  0  0
  194.8869  183.1879  159.0233 C   0  0  0  0  0  0  0  0  0  0  0  0
  194.2320  182.0480  158.5493 N   0  0  0  0  0  0  0  0  0  0  0  0
  194.1289  184.2306  159.5944 C   0  0  0  0  0  0  0  0  0  0  0  0
  194.7475  185.3863  160.0994 C   0  0  0  0  0  0  0  0  0  0  0  0
  196.1479  185.5213  160.0076 C   0  0  0  0  0  0  0  0  0  0  0  0
  197.1314  182.1849  158.3366 C   0  0  1  0  0  0  0  0  0  0  0  0
  197.1860  182.2572  156.8762 N   0  0  0  0  0  0  0  0  0  0  0  0
  198.1697  181.5598  156.1684 C   0  0  0  0  0  0  0  0  0  0  0  0
  198.7809  180.5195  156.7728 N   0  0  0  0  0  0  0  0  0  0  0  0
  199.6801  179.8032  156.0719 C   0  0  0  0  0  0  0  0  0  0  0  0
  199.9814  180.1328  154.7165 C   0  0  0  0  0  0  0  0  0  0  0  0
  199.4024  181.2014  154.1248 N   0  0  0  0  0  0  0  0  0  0  0  0
  198.4992  181.9282  154.8330 C   0  0  0  0  0  0  0  0  0  0  0  0
  197.9430  183.0581  154.1786 N   0  0  0  0  0  0  0  0  0  0  0  0
  196.7763  182.8123  153.3272 C   0  0  1  0  0  0  0  0  0  0  0  0
  196.9471  181.8061  152.2030 C   0  0  0  0  0  0  0  0  0  0  0  0
  197.3440  182.2192  150.9111 C   0  0  0  0  0  0  0  0  0  0  0  0
  197.4512  181.2812  149.8626 C   0  0  0  0  0  0  0  0  0  0  0  0
  197.1496  179.9216  150.0965 C   0  0  0  0  0  0  0  0  0  0  0  0
  196.7726  179.5097  151.3958 C   0  0  0  0  0  0  0  0  0  0  0  0
  196.6769  180.4451  152.4406 C   0  0  0  0  0  0  0  0  0  0  0  0
  197.2050  178.9113  148.9573 C   0  0  1  0  0  0  0  0  0  0  0  0
  198.4908  178.1640  148.8863 N   0  0  1  0  0  0  0  0  0  0  0  0
  198.7566  177.2956  150.0611 C   0  0  2  0  0  0  0  0  0  0  0  0
  198.6088  177.4081  147.6174 C   0  0  2  0  0  0  0  0  0  0  0  0
  197.9765  184.3352  154.8844 C   0  0  2  0  0  0  0  0  0  0  0  0
  200.8969  179.3340  154.0033 C   0  0  0  0  0  0  0  0  0  0  0  0
  201.5481  178.2524  154.6277 C   0  0  0  0  0  0  0  0  0  0  0  0
  201.2798  177.9478  155.9736 C   0  0  0  0  0  0  0  0  0  0  0  0
  200.3379  178.7154  156.6817 C   0  0  0  0  0  0  0  0  0  0  0  0
  193.2332  182.0512  158.4068 H   0  0  0  0  0  0  0  0  0  0  0  0
  194.7370  181.3606  158.0011 H   0  0  0  0  0  0  0  0  0  0  0  0
  193.0517  184.1506  159.6513 H   0  0  0  0  0  0  0  0  0  0  0  0
  194.1557  186.1760  160.5385 H   0  0  0  0  0  0  0  0  0  0  0  0
  196.6245  186.4192  160.3769 H   0  0  0  0  0  0  0  0  0  0  0  0
  198.1393  182.2429  158.7483 H   0  0  0  0  0  0  0  0  0  0  0  0
  196.7271  181.2175  158.6547 H   0  0  0  0  0  0  0  0  0  0  0  0
  196.7414  183.0364  156.4347 H   0  0  0  0  0  0  0  0  0  0  0  0
  195.9503  182.4871  153.9612 H   0  0  0  0  0  0  0  0  0  0  0  0
  196.4732  183.7557  152.8711 H   0  0  0  0  0  0  0  0  0  0  0  0
  197.5808  183.2572  150.7231 H   0  0  0  0  0  0  0  0  0  0  0  0
  197.7707  181.6140  148.8854 H   0  0  0  0  0  0  0  0  0  0  0  0
  196.5755  178.4755  151.6263 H   0  0  0  0  0  0  0  0  0  0  0  0
  196.4150  180.1137  153.4340 H   0  0  0  0  0  0  0  0  0  0  0  0
  196.3636  178.2264  149.0480 H   0  0  0  0  0  0  0  0  0  0  0  0
  197.0565  179.4382  148.0125 H   0  0  0  0  0  0  0  0  0  0  0  0
  197.9621  176.5582  150.1873 H   0  0  0  0  0  0  0  0  0  0  0  0
  198.8411  177.8748  150.9801 H   0  0  0  0  0  0  0  0  0  0  0  0
  199.7009  176.7599  149.9445 H   0  0  0  0  0  0  0  0  0  0  0  0
  197.8431  176.6348  147.5532 H   0  0  0  0  0  0  0  0  0  0  0  0
  199.5833  176.9261  147.5407 H   0  0  0  0  0  0  0  0  0  0  0  0
  198.4976  178.0619  146.7514 H   0  0  0  0  0  0  0  0  0  0  0  0
  198.9071  184.4302  155.4448 H   0  0  0  0  0  0  0  0  0  0  0  0
  197.1382  184.4191  155.5772 H   0  0  0  0  0  0  0  0  0  0  0  0
  197.9121  185.1797  154.1856 H   0  0  0  0  0  0  0  0  0  0  0  0
  201.1184  179.5674  152.9719 H   0  0  0  0  0  0  0  0  0  0  0  0
  202.2796  177.6666  154.0867 H   0  0  0  0  0  0  0  0  0  0  0  0
  201.7951  177.1413  156.4680 H   0  0  0  0  0  0  0  0  0  0  0  0
  200.1109  178.4865  157.7138 H   0  0  0  0  0  0  0  0  0  0  0  0
  199.2216  178.8630  148.8714 H   0  0  0  0  0  0  0  0  0  0  0  0
  1  2  1  0
  2  3  2  0
  2  8  1  0
  3  4  1  0
  3  9  1  0
  4  5  1  0
  4  6  2  0
  5 34  1  0
  5 35  1  0
  6  7  1  0
  6 36  1  0
  7  8  2  0
  7 37  1  0
  8 38  1  0
  9 10  1  0
  9 39  1  1
  9 40  1  0
 10 11  1  0
 10 41  1  0
 11 12  2  0
 11 16  1  0
 12 13  1  0
 13 14  1  0
 13 33  2  0
 14 15  1  0
 14 30  2  0
 15 16  2  0
 16 17  1  0
 17 18  1  0
 17 29  1  0
 18 19  1  0
 18 42  1  1
 18 43  1  0
 19 20  1  0
 19 24  2  0
 20 21  2  0
 20 44  1  0
 21 22  1  0
 21 45  1  0
 22 23  2  0
 22 25  1  0
 23 24  1  0
 23 46  1  0
 24 47  1  0
 25 26  1  0
 25 48  1  1
 25 49  1  0
 26 27  1  0
 26 28  1  0
 26 63  1  6
 27 50  1  1
 27 51  1  0
 27 52  1  0
 28 53  1  1
 28 54  1  0
 28 55  1  0
 29 56  1  1
 29 57  1  0
 29 58  1  0
 30 31  1  0
 30 59  1  0
 31 32  2  0
 31 60  1  0
 32 33  1  0
 32 61  1  0
 33 62  1  0
M  CHG  1  26   1
M  END
>  <s_epik_cmdline>  (305) 
J2VwaWtfcHl0aG9uJywgJy1waCcsICc3LjAwMDAwMCcsICctcGh0JywgJzIuMDAwMDAwJywgJy1tcycsICcxNicsICctdG4nLCAnOCcsICctbWEnLCAnMjAwJywgJy1pbWFlJywgJzxpbmZpbGUubWFlPicsICctb21hZScsICc8b3V0ZmlsZS5tYWU+Jw==

>  <s_epik_input>  (305) 
W2NIXTFbY0hdW2NIXWMoW05IMl0pYyhjMUNsKVtDSDJdW05IXWMobjIpYyhuYyhjMjMpW2NIXVtjSF1bY0hdW2NIXTMpTihbQ0gzXSlbQ0gyXWM0W2NIXVtjSF1jKFtjSF1bY0hdNClbQ0gyXU4oW0NIM10pW0NIM10=

>  <s_i_glide_gridfile>  (305) 
ATP-Grid

>  <s_lp_Force_Field>  (305) 
OPLS_2005

>  <s_lp_Variant>  (305) 
m_282030aaa____21933634____23157418____21936776-1

>  <s_lp_label>  (305) 
1878_sdstereoexpander_1_neutralizer_1_epik_1_stereoizer_1

>  <s_m_source_file>  (305) 
ATP-VSW-LIGPREP-002-in.maegz

>  <s_sd_BIOSOLVEIT.INFINISEE\_QUERY\_NAME>  (305) 
Ref-Lig

>  <s_sd_BIOSOLVEIT.INFINISEE\_QUERY\_SMILES>  (305) 
S(c1nc2c(cc1C[NH2+]Cc3ccc(cc3)C[NH+](C)C)cccc2)Cc4ccccc4

>  <s_sd_BIOSOLVEIT.INFINISEE\_REACTION\_NAME>  (305) 
m_282030aaa

>  <s_sd_BIOSOLVEIT.INFINISEE\_REAGENT1\_SMILES>  (305) 
[R1*]N(Cc1ccc(cc1)CN(C)C)C

>  <s_sd_BIOSOLVEIT.INFINISEE\_REAGENT2\_SMILES>  (305) 
[R1*]c1nc2c(nc1[R2*])cccc2

>  <s_sd_BIOSOLVEIT.INFINISEE\_REAGENT3\_SMILES>  (305) 
[R2*]NCc1c(Cl)cccc1N

>  <s_sd_BIOSOLVEIT.INFINISEE\_SPACE>  (305) 
REALSpace_44bn_2023-08

>  <s_vsw_compound_code>  (305) 
60066

>  <s_vsw_variant>  (305) 
60066-1

>  <r_epik_Charging_Adjusted_Penalty>  (305) 
0.072909427423789197

>  <r_epik_Ionization_Penalty>  (305) 
0.037400000000000003

>  <r_epik_Ionization_Penalty_Charging>  (305) 
0.036499999999999998

>  <r_epik_Ionization_Penalty_Neutral>  (305) 
0.00089999999999999998

>  <r_epik_State_Penalty>  (305) 
0.036499999999999998

>  <r_i_docking_score>  (305) 
-4.09687910409603

>  <r_i_glide_ecoul>  (305) 
-3.7036371231079102

>  <r_i_glide_eff_state_penalty>  (305) 
0.036499999999999998

>  <r_i_glide_einternal>  (305) 
4.6185951232910201

>  <r_i_glide_emodel>  (305) 
-55.0987269753034

>  <r_i_glide_energy>  (305) 
-42.590039253234899

>  <r_i_glide_erotb>  (305) 
0.66049556281496902

>  <r_i_glide_esite>  (305) 
-0.15137612703703501

>  <r_i_glide_evdw>  (305) 
-38.886402130127003

>  <r_i_glide_gscore>  (305) 
-4.1333791040960302

>  <r_i_glide_hbond>  (305) 
-0.00508463642774536

>  <r_i_glide_ligand_efficiency>  (305) 
-0.124147851639274

>  <r_i_glide_ligand_efficiency_ln>  (305) 
-0.91112470024622505

>  <r_i_glide_ligand_efficiency_sa>  (305) 
-0.398208495664086

>  <r_i_glide_lipo>  (305) 
-1.87852072847368

>  <r_i_glide_metal>  (305) 
-0

>  <r_i_glide_rewards>  (305) 
-0.25902749999999802

>  <r_lp_Energy>  (305) 
34.668019999999999

>  <r_qp_ACxDN^.5/SA>  (305) 
0.0130288

>  <r_qp_CIQPlogS>  (305) 
-6.3410000000000002

>  <r_qp_EA(eV)>  (305) 
0.79100000000000004

>  <r_qp_FISA>  (305) 
60.689

>  <r_qp_FOSA>  (305) 
260.99900000000002

>  <r_qp_IP(eV)>  (305) 
8.1579999999999995

>  <r_qp_Jm>  (305) 
0.029747112954313901

>  <r_qp_PISA>  (305) 
368.64100000000002

>  <r_qp_PSA>  (305) 
62.042999999999999

>  <r_qp_PercentHumanOralAbsorption>  (305) 
100

>  <r_qp_QPPCaco>  (305) 
656.58500000000004

>  <r_qp_QPPMDCK>  (305) 
559.60799999999995

>  <r_qp_QPlogBB>  (305) 
-0.070000000000000007

>  <r_qp_QPlogHERG>  (305) 
-6.7160000000000002

>  <r_qp_QPlogKhsa>  (305) 
0.81299999999999994

>  <r_qp_QPlogKp>  (305) 
-2.5379999999999998

>  <r_qp_QPlogPC16>  (305) 
15.071999999999999

>  <r_qp_QPlogPo/w>  (305) 
4.9960000000000004

>  <r_qp_QPlogPoct>  (305) 
22.966999999999999

>  <r_qp_QPlogPw>  (305) 
11.991

>  <r_qp_QPlogS>  (305) 
-4.6520000000000001

>  <r_qp_QPpolrz>  (305) 
47.816000000000003

>  <r_qp_SASA>  (305) 
728.14200000000005

>  <r_qp_SAamideO>  (305) 
0

>  <r_qp_SAfluorine>  (305) 
0

>  <r_qp_WPSA>  (305) 
37.813000000000002

>  <r_qp_accptHB>  (305) 
6

>  <r_qp_dip^2/V>  (305) 
0.0117868

>  <r_qp_dipole>  (305) 
4.069

>  <r_qp_donorHB>  (305) 
2.5

>  <r_qp_glob>  (305) 
0.83317180000000002

>  <r_qp_mol_MW>  (305) 
461.00799999999998

>  <r_qp_volume>  (305) 
1405.0060000000001

>  <r_sd_BIOSOLVEIT.INFINISEE\_FTREES\_SIMILARITY>  (305) 
0.90300000000000002

>  <r_sd_BIOSOLVEIT.LOGP>  (305) 
3.7584

>  <r_sd_BIOSOLVEIT.MOLECULAR\_WEIGHT>  (305) 
462.01799999999997

>  <r_sd_BIOSOLVEIT.TPSA>  (305) 
71.510000000000005

>  <i_epik_Tot_Q>  (305) 
1

>  <i_epik_Tot_abs_Q>  (305) 
1

>  <i_f3d_flags>  (305) 
0

>  <i_i_glide_confnum>  (305) 
6

>  <i_i_glide_lignum>  (305) 
668

>  <i_i_glide_posenum>  (305) 
5

>  <i_i_glide_rotatable_bonds>  (305) 
8

>  <i_lp_mmshare_version>  (305) 
65135

>  <i_m_ct_format>  (305) 
2

>  <i_m_source_file_index>  (305) 
1878

>  <i_qp_#NandO>  (305) 
6

>  <i_qp_#acid>  (305) 
0

>  <i_qp_#amide>  (305) 
0

>  <i_qp_#amidine>  (305) 
0

>  <i_qp_#amine>  (305) 
1

>  <i_qp_#in34>  (305) 
0

>  <i_qp_#in56>  (305) 
22

>  <i_qp_#metab>  (305) 
6

>  <i_qp_#nonHatm>  (305) 
33

>  <i_qp_#noncon>  (305) 
0

>  <i_qp_#ringatoms>  (305) 
22

>  <i_qp_#rotor>  (305) 
9

>  <i_qp_#rtvFG>  (305) 
0

>  <i_qp_#stars>  (305) 
0

>  <i_qp_CNS>  (305) 
0

>  <i_qp_HumanOralAbsorption>  (305) 
3

>  <i_qp_RuleOfFive>  (305) 
0

>  <i_qp_RuleOfThree>  (305) 
0

>  <i_sd_BIOSOLVEIT.INFINISEE\_REAGENT1\_NAME>  (305) 
21933634

>  <i_sd_BIOSOLVEIT.INFINISEE\_REAGENT2\_NAME>  (305) 
23157418

>  <i_sd_BIOSOLVEIT.INFINISEE\_REAGENT3\_NAME>  (305) 
21936776

>  <i_sd_BIOSOLVEIT.INFINISEE\_RESULT\_RANK>  (305) 
82887

>  <i_sd_version>  (305) 
0

>  <b_lp_Chiralities_Consistent>  (305) 
1

>  <b_sd_chiral_flag>  (305) 
0

>  <canonical_id>  (305) 
ATP-HTVS-3100283A95A9

>  <compound_code>  (305) 
60066

>  <title>  (305) 
m_282030aaa____21933634____23157418____21936776

>  <variant>  (305) 
60066-1

>  <source_file>  (305) 
运行/运行/ATP-VSW/ATP-VSW-DOCK_HTVS_1-002_lib.maegz

>  <canonical_smiles>  (305) 
CN(Cc1ccc(C[NH+](C)C)cc1)c1nc2ccccc2nc1NCc1c(N)cccc1Cl

>  <scaffold>  (305) 
c1ccc(CNc2nc3ccccc3nc2NCc2ccccc2)cc1

>  <molecular_formula>  (305) 
C26H30ClN6+

$$$$
ATP-HTVS-313D067647DC
     RDKit          3D

 50 53  0  0  0  0  0  0  0  0999 V2000
  199.0945  175.2030  147.8082 F   0  0  0  0  0  0  0  0  0  0  0  0
  199.0011  176.0922  148.8251 C   0  0  0  0  0  0  0  0  0  0  0  0
  198.0792  177.1412  148.8251 C   0  0  0  0  0  0  0  0  0  0  0  0
  197.9947  178.0507  149.9134 C   0  0  0  0  0  0  0  0  0  0  0  0
  196.9845  179.1229  149.8121 N   0  0  0  0  0  0  0  0  0  0  0  0
  196.6365  179.4420  148.6815 O   0  0  0  0  0  0  0  0  0  0  0  0
  196.4705  179.5957  150.8191 O   0  0  0  0  0  0  0  0  0  0  0  0
  198.8653  177.8838  151.0414 C   0  0  0  0  0  0  0  0  0  0  0  0
  199.8052  176.7949  151.0282 C   0  0  0  0  0  0  0  0  0  0  0  0
  199.8713  175.9690  149.8913 C   0  0  0  0  0  0  0  0  0  0  0  0
  200.8043  176.4951  152.1560 C   0  0  1  0  0  0  0  0  0  0  0  0
  200.5562  175.2169  152.8728 N   0  0  0  0  0  0  0  0  0  0  0  0
  201.1895  175.1205  154.2077 C   0  0  1  0  0  0  0  0  0  0  0  0
  202.7148  174.9237  154.0787 C   0  0  0  0  0  0  0  0  0  0  0  0
  203.2570  173.7018  153.6109 C   0  0  0  0  0  0  0  0  0  0  0  0
  202.4469  172.6129  153.1782 N   0  0  0  0  0  0  0  0  0  0  0  0
  201.3165  172.7261  152.4748 C   0  0  0  0  0  0  0  0  0  0  0  0
  200.6436  171.7434  152.1373 O   0  0  0  0  0  0  0  0  0  0  0  0
  200.9269  174.0947  151.9610 C   0  0  1  0  0  0  0  0  0  0  0  0
  204.6685  173.5150  153.5899 C   0  0  0  0  0  0  0  0  0  0  0  0
  205.5293  174.5451  154.0340 C   0  0  0  0  0  0  0  0  0  0  0  0
  204.9957  175.7614  154.4666 C   0  0  0  0  0  0  0  0  0  0  0  0
  203.6141  175.9644  154.4499 C   0  0  0  0  0  0  0  0  0  0  0  0
  200.7406  176.1969  155.2211 C   0  0  0  0  0  0  0  0  0  0  0  0
  201.4308  176.3989  156.4288 C   0  0  0  0  0  0  0  0  0  0  0  0
  201.1767  177.5551  157.2010 C   0  0  0  0  0  0  0  0  0  0  0  0
  200.2327  178.5138  156.8007 C   0  0  0  0  0  0  0  0  0  0  0  0
  199.4824  178.2940  155.6406 C   0  0  0  0  0  0  0  0  0  0  0  0
  199.7123  177.1188  154.9076 C   0  0  0  0  0  0  0  0  0  0  0  0
  198.8122  178.9031  152.1956 C   0  0  2  0  0  0  0  0  0  0  0  0
  197.4591  177.2336  147.9523 H   0  0  0  0  0  0  0  0  0  0  0  0
  200.6054  175.1964  149.7731 H   0  0  0  0  0  0  0  0  0  0  0  0
  201.8442  176.6025  151.8637 H   0  0  0  0  0  0  0  0  0  0  0  0
  200.7919  177.3550  152.7963 H   0  0  0  0  0  0  0  0  0  0  0  0
  200.8028  174.2223  154.6892 H   0  0  0  0  0  0  0  0  0  0  0  0
  202.7612  171.6524  153.3579 H   0  0  0  0  0  0  0  0  0  0  0  0
  200.0766  173.8647  151.3235 H   0  0  0  0  0  0  0  0  0  0  0  0
  201.7808  174.4189  151.3539 H   0  0  0  0  0  0  0  0  0  0  0  0
  205.0896  172.5932  153.2324 H   0  0  0  0  0  0  0  0  0  0  0  0
  206.5978  174.4127  154.0231 H   0  0  0  0  0  0  0  0  0  0  0  0
  205.6208  176.5651  154.8358 H   0  0  0  0  0  0  0  0  0  0  0  0
  203.2716  176.9169  154.7962 H   0  0  0  0  0  0  0  0  0  0  0  0
  202.2360  175.7492  156.6761 H   0  0  0  0  0  0  0  0  0  0  0  0
  201.7756  177.7060  158.0784 H   0  0  0  0  0  0  0  0  0  0  0  0
  200.0253  179.3807  157.3969 H   0  0  0  0  0  0  0  0  0  0  0  0
  198.7556  179.0147  155.2679 H   0  0  0  0  0  0  0  0  0  0  0  0
  199.1041  176.9848  154.0106 H   0  0  0  0  0  0  0  0  0  0  0  0
  199.7374  179.0630  152.7403 H   0  0  0  0  0  0  0  0  0  0  0  0
  198.0198  178.6412  152.9011 H   0  0  0  0  0  0  0  0  0  0  0  0
  198.6184  179.9137  151.8416 H   0  0  0  0  0  0  0  0  0  0  0  0
  1  2  1  0
  2  3  2  0
  2 10  1  0
  3  4  1  0
  3 31  1  0
  4  5  1  0
  4  8  2  0
  5  6  1  0
  5  7  2  0
  8  9  1  0
  8 30  1  0
  9 10  2  0
  9 11  1  0
 10 32  1  0
 11 12  1  0
 11 33  1  6
 11 34  1  0
 12 13  1  0
 12 19  1  0
 13 14  1  0
 13 24  1  0
 13 35  1  1
 14 15  1  0
 14 23  2  0
 15 16  1  0
 15 20  2  0
 16 17  1  0
 16 36  1  0
 17 18  2  0
 17 19  1  0
 19 37  1  6
 19 38  1  0
 20 21  1  0
 20 39  1  0
 21 22  2  0
 21 40  1  0
 22 23  1  0
 22 41  1  0
 23 42  1  0
 24 25  2  0
 24 29  1  0
 25 26  1  0
 25 43  1  0
 26 27  2  0
 26 44  1  0
 27 28  1  0
 27 45  1  0
 28 29  2  0
 28 46  1  0
 29 47  1  0
 30 48  1  1
 30 49  1  0
 30 50  1  0
M  CHG  2   5   1   6  -1
M  END
>  <s_epik_cmdline>  (306) 
J2VwaWtfcHl0aG9uJywgJy1waCcsICc3LjAwMDAwMCcsICctcGh0JywgJzIuMDAwMDAwJywgJy1tcycsICcxNicsICctdG4nLCAnOCcsICctbWEnLCAnMjAwJywgJy1pbWFlJywgJzxpbmZpbGUubWFlPicsICctb21hZScsICc8b3V0ZmlsZS5tYWU+Jw==

>  <s_epik_input>  (306) 
RmMxW2NIXWMoW04rXShbTy1dKT1PKWMoW0NIM10pYyhbY0hdMSlbQ0gyXU4oW0NAQEhdMmMzW2NIXVtjSF1bY0hdW2NIXVtjSF0zKVtDSDJdQyg9TylbTkhdYyhjMjQpW2NIXVtjSF1bY0hdW2NIXTQ=

>  <s_i_glide_gridfile>  (306) 
ATP-Grid

>  <s_lp_Force_Field>  (306) 
OPLS_2005

>  <s_lp_Variant>  (306) 
m_270004bda____24170338____24720656-1

>  <s_lp_label>  (306) 
1715_sdstereoexpander_1_neutralizer_1_epik_1_stereoizer_1

>  <s_m_source_file>  (306) 
ATP-VSW-LIGPREP-001-in.maegz

>  <s_sd_BIOSOLVEIT.INFINISEE\_QUERY\_NAME>  (306) 
Ref-Lig

>  <s_sd_BIOSOLVEIT.INFINISEE\_QUERY\_SMILES>  (306) 
S(c1nc2c(cc1C[NH2+]Cc3ccc(cc3)C[NH+](C)C)cccc2)Cc4ccccc4

>  <s_sd_BIOSOLVEIT.INFINISEE\_REACTION\_NAME>  (306) 
m_270004bda

>  <s_sd_BIOSOLVEIT.INFINISEE\_REAGENT1\_SMILES>  (306) 
[R1*]N1C(c2c(NC(=O)C1)cccc2)c3ccccc3

>  <s_sd_BIOSOLVEIT.INFINISEE\_REAGENT2\_SMILES>  (306) 
[R1*]Cc1c(c([N+]([O-])=O)cc(F)c1)C

>  <s_sd_BIOSOLVEIT.INFINISEE\_SPACE>  (306) 
REALSpace_44bn_2023-08

>  <s_vsw_compound_code>  (306) 
54849

>  <s_vsw_variant>  (306) 
54849-1

>  <r_epik_Charging_Adjusted_Penalty>  (306) 
0.0087634984339075902

>  <r_epik_Ionization_Penalty>  (306) 
0.0088000000000000005

>  <r_epik_Ionization_Penalty_Charging>  (306) 
0

>  <r_epik_Ionization_Penalty_Neutral>  (306) 
0.0088000000000000005

>  <r_epik_State_Penalty>  (306) 
0.0088000000000000005

>  <r_i_docking_score>  (306) 
-2.9207687248990299

>  <r_i_glide_ecoul>  (306) 
-5.6100559234619096

>  <r_i_glide_eff_state_penalty>  (306) 
0.0088000000000000005

>  <r_i_glide_einternal>  (306) 
6.5225849151611301

>  <r_i_glide_emodel>  (306) 
-36.032355395926203

>  <r_i_glide_energy>  (306) 
-32.328447341918903

>  <r_i_glide_erotb>  (306) 
0.35869609755702497

>  <r_i_glide_esite>  (306) 
-0.112621693057227

>  <r_i_glide_evdw>  (306) 
-26.718391418456999

>  <r_i_glide_gscore>  (306) 
-2.9295687248990299

>  <r_i_glide_hbond>  (306) 
-0.42008519463089999

>  <r_i_glide_ligand_efficiency>  (306) 
-0.097358957496634299

>  <r_i_glide_ligand_efficiency_ln>  (306) 
-0.66363047862124602

>  <r_i_glide_ligand_efficiency_sa>  (306) 
-0.30251691713634898

>  <r_i_glide_lipo>  (306) 
-1.48070090083402

>  <r_i_glide_metal>  (306) 
-0

>  <r_i_glide_rewards>  (306) 
0.90257092550823204

>  <r_lp_Energy>  (306) 
42.259746999999997

>  <r_qp_ACxDN^.5/SA>  (306) 
0.0083946999999999997

>  <r_qp_CIQPlogS>  (306) 
-5.1600000000000001

>  <r_qp_EA(eV)>  (306) 
1.337

>  <r_qp_FISA>  (306) 
156.88900000000001

>  <r_qp_FOSA>  (306) 
90.040999999999997

>  <r_qp_IP(eV)>  (306) 
9.2110000000000003

>  <r_qp_Jm>  (306) 
0.00010377072945425001

>  <r_qp_PISA>  (306) 
362.33199999999999

>  <r_qp_PSA>  (306) 
84.879999999999995

>  <r_qp_PercentHumanOralAbsorption>  (306) 
81.555999999999997

>  <r_qp_QPPCaco>  (306) 
80.355999999999995

>  <r_qp_QPPMDCK>  (306) 
64.001000000000005

>  <r_qp_QPlogBB>  (306) 
-0.61199999999999999

>  <r_qp_QPlogHERG>  (306) 
-6.6799999999999997

>  <r_qp_QPlogKhsa>  (306) 
0.68200000000000005

>  <r_qp_QPlogKp>  (306) 
-4.9089999999999998

>  <r_qp_QPlogPC16>  (306) 
12.952999999999999

>  <r_qp_QPlogPo/w>  (306) 
3.504

>  <r_qp_QPlogPoct>  (306) 
19.855

>  <r_qp_QPlogPw>  (306) 
11.064

>  <r_qp_QPlogS>  (306) 
-4.6829999999999998

>  <r_qp_QPpolrz>  (306) 
43.399000000000001

>  <r_qp_SASA>  (306) 
655.173

>  <r_qp_SAamideO>  (306) 
0

>  <r_qp_SAfluorine>  (306) 
45.911000000000001

>  <r_qp_WPSA>  (306) 
45.911000000000001

>  <r_qp_accptHB>  (306) 
5.5

>  <r_qp_dip^2/V>  (306) 
0.030543399999999998

>  <r_qp_dipole>  (306) 
6.0540000000000003

>  <r_qp_donorHB>  (306) 
1

>  <r_qp_glob>  (306) 
0.83348619999999995

>  <r_qp_mol_MW>  (306) 
405.428

>  <r_qp_volume>  (306) 
1199.8689999999999

>  <r_sd_BIOSOLVEIT.INFINISEE\_FTREES\_SIMILARITY>  (306) 
0.90500000000000003

>  <r_sd_BIOSOLVEIT.LOGP>  (306) 
3.16892

>  <r_sd_BIOSOLVEIT.MOLECULAR\_WEIGHT>  (306) 
406.435

>  <r_sd_BIOSOLVEIT.TPSA>  (306) 
79.359999999999999

>  <i_epik_Tot_Q>  (306) 
0

>  <i_epik_Tot_abs_Q>  (306) 
2

>  <i_f3d_flags>  (306) 
0

>  <i_i_glide_confnum>  (306) 
4

>  <i_i_glide_lignum>  (306) 
480

>  <i_i_glide_posenum>  (306) 
16

>  <i_i_glide_rotatable_bonds>  (306) 
4

>  <i_lp_mmshare_version>  (306) 
65135

>  <i_m_ct_format>  (306) 
2

>  <i_m_source_file_index>  (306) 
1715

>  <i_qp_#NandO>  (306) 
6

>  <i_qp_#acid>  (306) 
0

>  <i_qp_#amide>  (306) 
0

>  <i_qp_#amidine>  (306) 
0

>  <i_qp_#amine>  (306) 
1

>  <i_qp_#in34>  (306) 
0

>  <i_qp_#in56>  (306) 
18

>  <i_qp_#metab>  (306) 
9

>  <i_qp_#nonHatm>  (306) 
30

>  <i_qp_#noncon>  (306) 
2

>  <i_qp_#ringatoms>  (306) 
23

>  <i_qp_#rotor>  (306) 
3

>  <i_qp_#rtvFG>  (306) 
0

>  <i_qp_#stars>  (306) 
1

>  <i_qp_CNS>  (306) 
1

>  <i_qp_HumanOralAbsorption>  (306) 
2

>  <i_qp_RuleOfFive>  (306) 
0

>  <i_qp_RuleOfThree>  (306) 
1

>  <i_sd_BIOSOLVEIT.INFINISEE\_REAGENT1\_NAME>  (306) 
24170338

>  <i_sd_BIOSOLVEIT.INFINISEE\_REAGENT2\_NAME>  (306) 
24720656

>  <i_sd_BIOSOLVEIT.INFINISEE\_RESULT\_RANK>  (306) 
72601

>  <i_sd_version>  (306) 
0

>  <b_lp_Chiralities_Consistent>  (306) 
1

>  <b_sd_chiral_flag>  (306) 
0

>  <canonical_id>  (306) 
ATP-HTVS-313D067647DC

>  <compound_code>  (306) 
54849

>  <title>  (306) 
m_270004bda____24170338____24720656

>  <variant>  (306) 
54849-1

>  <source_file>  (306) 
运行/运行/ATP-VSW/ATP-VSW-DOCK_HTVS_1-001_lib/ATP-VSW-DOCK_HTVS_1-001_lib

>  <canonical_smiles>  (306) 
Cc1c(CN2CC(=O)Nc3ccccc3[C@H]2c2ccccc2)cc(F)cc1[N+](=O)[O-]

>  <scaffold>  (306) 
O=C1CN(Cc2ccccc2)C(c2ccccc2)c2ccccc2N1

>  <molecular_formula>  (306) 
C23H20FN3O3

$$$$
ATP-HTVS-31B048FE5E9A
     RDKit          3D

 50 53  0  0  0  0  0  0  0  0999 V2000
  199.5707  174.7642  146.8384 F   0  0  0  0  0  0  0  0  0  0  0  0
  199.2934  175.7107  147.7630 C   0  0  0  0  0  0  0  0  0  0  0  0
  198.5854  176.8772  147.4138 C   0  0  0  0  0  0  0  0  0  0  0  0
  198.2923  177.8430  148.3960 C   0  0  0  0  0  0  0  0  0  0  0  0
  198.7214  177.6589  149.7308 C   0  0  0  0  0  0  0  0  0  0  0  0
  199.4221  176.4751  150.0700 C   0  0  0  0  0  0  0  0  0  0  0  0
  199.7155  175.5191  149.0867 C   0  0  0  0  0  0  0  0  0  0  0  0
  198.4084  178.7249  150.7775 C   0  0  1  0  0  0  0  0  0  0  0  0
  199.1270  178.5231  152.0309 N   0  0  0  0  0  0  0  0  0  0  0  0
  198.7427  179.1313  153.2365 C   0  0  0  0  0  0  0  0  0  0  0  0
  199.4836  178.9138  154.4237 C   0  0  0  0  0  0  0  0  0  0  0  0
  199.0779  179.5618  155.6168 C   0  0  0  0  0  0  0  0  0  0  0  0
  197.9446  180.4185  155.5820 C   0  0  0  0  0  0  0  0  0  0  0  0
  197.2389  180.6032  154.4441 N   0  0  0  0  0  0  0  0  0  0  0  0
  197.6204  179.9805  153.3204 C   0  0  0  0  0  0  0  0  0  0  0  0
  197.5489  181.0367  156.7949 N   0  0  0  0  0  0  0  0  0  0  0  0
  196.9377  182.2173  156.9612 C   0  0  0  0  0  0  0  0  0  0  0  0
  196.7564  183.0372  156.0585 O   0  0  0  0  0  0  0  0  0  0  0  0
  196.5034  182.5366  158.3969 C   0  0  1  0  0  0  0  0  0  0  0  0
  196.7703  183.9891  158.7569 C   0  0  0  0  0  0  0  0  0  0  0  0
  198.0833  184.4248  159.0370 C   0  0  0  0  0  0  0  0  0  0  0  0
  198.3290  185.7790  159.3347 C   0  0  0  0  0  0  0  0  0  0  0  0
  197.2639  186.6995  159.3681 C   0  0  0  0  0  0  0  0  0  0  0  0
  197.4984  188.0020  159.6557 F   0  0  0  0  0  0  0  0  0  0  0  0
  195.9530  186.2655  159.0993 C   0  0  0  0  0  0  0  0  0  0  0  0
  195.7053  184.9132  158.7969 C   0  0  0  0  0  0  0  0  0  0  0  0
  199.8217  179.3441  156.8042 C   0  0  0  0  0  0  0  0  0  0  0  0
  200.9404  178.4910  156.8140 C   0  0  0  0  0  0  0  0  0  0  0  0
  201.3390  177.8483  155.6321 C   0  0  0  0  0  0  0  0  0  0  0  0
  200.6112  178.0536  154.4442 C   0  0  0  0  0  0  0  0  0  0  0  0
  198.6866  180.0789  150.2538 C   0  0  0  0  0  0  0  0  0  0  0  0
  198.9031  181.1392  149.8421 N   0  0  0  0  0  0  0  0  0  0  0  0
  198.2609  177.0353  146.3958 H   0  0  0  0  0  0  0  0  0  0  0  0
  197.7420  178.7311  148.1155 H   0  0  0  0  0  0  0  0  0  0  0  0
  199.7560  176.2678  151.0769 H   0  0  0  0  0  0  0  0  0  0  0  0
  200.2636  174.6301  149.3510 H   0  0  0  0  0  0  0  0  0  0  0  0
  197.3345  178.6508  150.9612 H   0  0  0  0  0  0  0  0  0  0  0  0
  200.0782  178.1904  151.9541 H   0  0  0  0  0  0  0  0  0  0  0  0
  197.0003  180.1951  152.4633 H   0  0  0  0  0  0  0  0  0  0  0  0
  197.6961  180.4689  157.6223 H   0  0  0  0  0  0  0  0  0  0  0  0
  195.4413  182.3043  158.5024 H   0  0  0  0  0  0  0  0  0  0  0  0
  197.0305  181.8975  159.1046 H   0  0  0  0  0  0  0  0  0  0  0  0
  198.9073  183.7269  159.0069 H   0  0  0  0  0  0  0  0  0  0  0  0
  199.3343  186.1185  159.5396 H   0  0  0  0  0  0  0  0  0  0  0  0
  195.1426  186.9770  159.1100 H   0  0  0  0  0  0  0  0  0  0  0  0
  194.6983  184.5939  158.5689 H   0  0  0  0  0  0  0  0  0  0  0  0
  199.5370  179.8058  157.7281 H   0  0  0  0  0  0  0  0  0  0  0  0
  201.4938  178.3332  157.7309 H   0  0  0  0  0  0  0  0  0  0  0  0
  202.2047  177.2018  155.6452 H   0  0  0  0  0  0  0  0  0  0  0  0
  200.9394  177.5388  153.5567 H   0  0  0  0  0  0  0  0  0  0  0  0
  1  2  1  0
  2  3  1  0
  2  7  2  0
  3  4  2  0
  3 33  1  0
  4  5  1  0
  4 34  1  0
  5  6  2  0
  5  8  1  0
  6  7  1  0
  6 35  1  0
  7 36  1  0
  8  9  1  0
  8 31  1  0
  8 37  1  1
  9 10  1  0
  9 38  1  0
 10 11  2  0
 10 15  1  0
 11 12  1  0
 11 30  1  0
 12 13  2  0
 12 27  1  0
 13 14  1  0
 13 16  1  0
 14 15  2  0
 15 39  1  0
 16 17  1  0
 16 40  1  0
 17 18  2  0
 17 19  1  0
 19 20  1  0
 19 41  1  6
 19 42  1  0
 20 21  1  0
 20 26  2  0
 21 22  2  0
 21 43  1  0
 22 23  1  0
 22 44  1  0
 23 24  1  0
 23 25  2  0
 25 26  1  0
 25 45  1  0
 26 46  1  0
 27 28  2  0
 27 47  1  0
 28 29  1  0
 28 48  1  0
 29 30  2  0
 29 49  1  0
 30 50  1  0
 31 32  3  0
M  END
>  <s_epik_cmdline>  (307) 
J2VwaWtfcHl0aG9uJywgJy1waCcsICc3LjAwMDAwMCcsICctcGh0JywgJzIuMDAwMDAwJywgJy1tcycsICcxNicsICctdG4nLCAnOCcsICctbWEnLCAnMjAwJywgJy1pbWFlJywgJzxpbmZpbGUubWFlPicsICctb21hZScsICc8b3V0ZmlsZS5tYWU+Jw==

>  <s_epik_input>  (307) 
RmMxW2NIXVtjSF1jKFtjSF1bY0hdMSlbQ0BIXShDI04pW05IXWMyW2NIXW5jKGMoYzIzKVtjSF1bY0hdW2NIXVtjSF0zKVtOSF1DKD1PKVtDSDJdYzRbY0hdW2NIXWMoRilbY0hdW2NIXTQ=

>  <s_i_glide_gridfile>  (307) 
ATP-Grid

>  <s_lp_Force_Field>  (307) 
OPLS_2005

>  <s_lp_Variant>  (307) 
rxn502b____EMOL512495____EMOL7515103____EMOL906257-1

>  <s_lp_label>  (307) 
3104_sdstereoexpander_1_neutralizer_1_epik_1_stereoizer_1

>  <s_m_source_file>  (307) 
ATP-VSW-LIGPREP-002-in.maegz

>  <s_sd_BIOSOLVEIT.INFINISEE\_QUERY\_NAME>  (307) 
Ref-Lig

>  <s_sd_BIOSOLVEIT.INFINISEE\_QUERY\_SMILES>  (307) 
S(c1nc2c(cc1C[NH2+]Cc3ccc(cc3)C[NH+](C)C)cccc2)Cc4ccccc4

>  <s_sd_BIOSOLVEIT.INFINISEE\_REACTION\_NAME>  (307) 
rxn502b

>  <s_sd_BIOSOLVEIT.INFINISEE\_REAGENT1\_NAME>  (307) 
EMOL512495

>  <s_sd_BIOSOLVEIT.INFINISEE\_REAGENT1\_SMILES>  (307) 
Fc1ccc(cc1)CC(=O)O

>  <s_sd_BIOSOLVEIT.INFINISEE\_REAGENT2\_NAME>  (307) 
EMOL7515103

>  <s_sd_BIOSOLVEIT.INFINISEE\_REAGENT2\_SMILES>  (307) 
Brc1c2c(c(nc1)N)cccc2

>  <s_sd_BIOSOLVEIT.INFINISEE\_REAGENT3\_NAME>  (307) 
EMOL906257

>  <s_sd_BIOSOLVEIT.INFINISEE\_REAGENT3\_SMILES>  (307) 
Fc1ccc(cc1)C(N)C#N

>  <s_sd_BIOSOLVEIT.INFINISEE\_SPACE>  (307) 
eXplore_7tr_2022-12

>  <s_vsw_compound_code>  (307) 
99298

>  <s_vsw_variant>  (307) 
99298-1

>  <r_epik_Charging_Adjusted_Penalty>  (307) 
0.0097575151237045705

>  <r_epik_Ionization_Penalty>  (307) 
0.0057999999999999996

>  <r_epik_Ionization_Penalty_Charging>  (307) 
0

>  <r_epik_Ionization_Penalty_Neutral>  (307) 
0.0057999999999999996

>  <r_epik_State_Penalty>  (307) 
0.0097999999999999997

>  <r_i_docking_score>  (307) 
-4.0113738311198004

>  <r_i_glide_ecoul>  (307) 
-3.3460450172424299

>  <r_i_glide_eff_state_penalty>  (307) 
0.0097999999999999997

>  <r_i_glide_einternal>  (307) 
3.9252378940582302

>  <r_i_glide_emodel>  (307) 
-46.2314291642817

>  <r_i_glide_energy>  (307) 
-38.311766147613497

>  <r_i_glide_erotb>  (307) 
0.64929746445372105

>  <r_i_glide_esite>  (307) 
-0.15301932800364601

>  <r_i_glide_evdw>  (307) 
-34.965721130371101

>  <r_i_glide_gscore>  (307) 
-4.0211738311197998

>  <r_i_glide_hbond>  (307) 
0

>  <r_i_glide_ligand_efficiency>  (307) 
-0.12535543222249401

>  <r_i_glide_ligand_efficiency_ln>  (307) 
-0.89825594670856501

>  <r_i_glide_ligand_efficiency_sa>  (307) 
-0.39797868950006599

>  <r_i_glide_lipo>  (307) 
-1.5262057820653401

>  <r_i_glide_metal>  (307) 
-0

>  <r_i_glide_rewards>  (307) 
-0.74105337639961

>  <r_lp_Energy>  (307) 
28.506178999999999

>  <r_qp_ACxDN^.5/SA>  (307) 
0.0111973

>  <r_qp_CIQPlogS>  (307) 
-7.7809999999999997

>  <r_qp_EA(eV)>  (307) 
1.179

>  <r_qp_FISA>  (307) 
130.71199999999999

>  <r_qp_FOSA>  (307) 
48.555999999999997

>  <r_qp_IP(eV)>  (307) 
8.1500000000000004

>  <r_qp_Jm>  (307) 
0.000114781026790051

>  <r_qp_PISA>  (307) 
484.47899999999998

>  <r_qp_PSA>  (307) 
81.102000000000004

>  <r_qp_PercentHumanOralAbsorption>  (307) 
100

>  <r_qp_QPPCaco>  (307) 
570.63300000000004

>  <r_qp_QPPMDCK>  (307) 
883.47400000000005

>  <r_qp_QPlogBB>  (307) 
-1.0860000000000001

>  <r_qp_QPlogHERG>  (307) 
-7.516

>  <r_qp_QPlogKhsa>  (307) 
0.70199999999999996

>  <r_qp_QPlogKp>  (307) 
-1.55

>  <r_qp_QPlogPC16>  (307) 
14.936999999999999

>  <r_qp_QPlogPo/w>  (307) 
4.9880000000000004

>  <r_qp_QPlogPoct>  (307) 
23.507000000000001

>  <r_qp_QPlogPw>  (307) 
13.055

>  <r_qp_QPlogS>  (307) 
-8.0220000000000002

>  <r_qp_QPpolrz>  (307) 
47.326999999999998

>  <r_qp_SASA>  (307) 
757.79399999999998

>  <r_qp_SAamideO>  (307) 
0

>  <r_qp_SAfluorine>  (307) 
94.048000000000002

>  <r_qp_WPSA>  (307) 
94.048000000000002

>  <r_qp_accptHB>  (307) 
6

>  <r_qp_dip^2/V>  (307) 
0.074434399999999998

>  <r_qp_dipole>  (307) 
9.9610000000000003

>  <r_qp_donorHB>  (307) 
2

>  <r_qp_glob>  (307) 
0.77300049999999998

>  <r_qp_mol_MW>  (307) 
428.44

>  <r_qp_volume>  (307) 
1333.058

>  <r_sd_BIOSOLVEIT.INFINISEE\_FTREES\_SIMILARITY>  (307) 
0.90100000000000002

>  <r_sd_BIOSOLVEIT.LOGP>  (307) 
5.3709800000000003

>  <r_sd_BIOSOLVEIT.MOLECULAR\_WEIGHT>  (307) 
428.44

>  <r_sd_BIOSOLVEIT.TPSA>  (307) 
77.810000000000002

>  <i_epik_Tot_Q>  (307) 
0

>  <i_epik_Tot_abs_Q>  (307) 
0

>  <i_f3d_flags>  (307) 
0

>  <i_i_glide_confnum>  (307) 
1

>  <i_i_glide_lignum>  (307) 
145

>  <i_i_glide_posenum>  (307) 
2

>  <i_i_glide_rotatable_bonds>  (307) 
7

>  <i_lp_mmshare_version>  (307) 
65135

>  <i_m_ct_format>  (307) 
2

>  <i_m_source_file_index>  (307) 
3104

>  <i_qp_#NandO>  (307) 
5

>  <i_qp_#acid>  (307) 
0

>  <i_qp_#amide>  (307) 
0

>  <i_qp_#amidine>  (307) 
0

>  <i_qp_#amine>  (307) 
0

>  <i_qp_#in34>  (307) 
0

>  <i_qp_#in56>  (307) 
22

>  <i_qp_#metab>  (307) 
5

>  <i_qp_#nonHatm>  (307) 
32

>  <i_qp_#noncon>  (307) 
0

>  <i_qp_#ringatoms>  (307) 
22

>  <i_qp_#rotor>  (307) 
7

>  <i_qp_#rtvFG>  (307) 
0

>  <i_qp_#stars>  (307) 
2

>  <i_qp_CNS>  (307) 
-2

>  <i_qp_HumanOralAbsorption>  (307) 
1

>  <i_qp_RuleOfFive>  (307) 
0

>  <i_qp_RuleOfThree>  (307) 
1

>  <i_sd_BIOSOLVEIT.INFINISEE\_RESULT\_RANK>  (307) 
97358

>  <i_sd_version>  (307) 
0

>  <b_lp_Chiralities_Consistent>  (307) 
1

>  <b_sd_chiral_flag>  (307) 
0

>  <canonical_id>  (307) 
ATP-HTVS-31B048FE5E9A

>  <compound_code>  (307) 
99298

>  <title>  (307) 
rxn502b____EMOL512495____EMOL7515103____EMOL906257

>  <variant>  (307) 
99298-1

>  <source_file>  (307) 
运行/运行/ATP-VSW/ATP-VSW-DOCK_HTVS_1-003_lib/ATP-VSW-DOCK_HTVS_1-003_lib.mae

>  <canonical_smiles>  (307) 
N#C[C@H](Nc1cnc(NC(=O)Cc2ccc(F)cc2)c2ccccc12)c1ccc(F)cc1

>  <scaffold>  (307) 
O=C(Cc1ccccc1)Nc1ncc(NCc2ccccc2)c2ccccc12

>  <molecular_formula>  (307) 
C25H18F2N4O

$$$$
ATP-HTVS-322651E221E8
     RDKit          3D

 67 70  0  0  0  0  0  0  0  0999 V2000
  194.0910  183.1484  158.8452 O   0  0  0  0  0  0  0  0  0  0  0  0
  195.1307  182.5182  158.9590 C   0  0  0  0  0  0  0  0  0  0  0  0
  195.1327  181.3402  159.3745 O   0  0  0  0  0  0  0  0  0  0  0  0
  196.5171  183.0406  158.5341 C   0  0  1  0  0  0  0  0  0  0  0  0
  196.9674  182.0674  157.5171 N   0  0  1  0  0  0  0  0  0  0  0  0
  198.2937  182.3041  156.9043 C   0  0  1  0  0  0  0  0  0  0  0  0
  198.4333  181.5312  155.6093 C   0  0  0  0  0  0  0  0  0  0  0  0
  199.1992  180.3503  155.5823 C   0  0  0  0  0  0  0  0  0  0  0  0
  199.4063  179.6569  154.3649 C   0  0  0  0  0  0  0  0  0  0  0  0
  200.1888  178.5301  154.2636 O   0  0  0  0  0  0  0  0  0  0  0  0
  200.5925  177.8705  155.4547 C   0  0  1  0  0  0  0  0  0  0  0  0
  201.2504  176.5342  155.1599 C   0  0  0  0  0  0  0  0  0  0  0  0
  201.9390  175.8576  156.1855 C   0  0  0  0  0  0  0  0  0  0  0  0
  202.5474  174.6145  155.9303 C   0  0  0  0  0  0  0  0  0  0  0  0
  202.4599  174.0328  154.6508 C   0  0  0  0  0  0  0  0  0  0  0  0
  201.7678  174.7009  153.6235 C   0  0  0  0  0  0  0  0  0  0  0  0
  201.1670  175.9475  153.8775 C   0  0  0  0  0  0  0  0  0  0  0  0
  198.8222  180.1545  153.1795 C   0  0  0  0  0  0  0  0  0  0  0  0
  199.0510  179.5326  151.9774 O   0  0  0  0  0  0  0  0  0  0  0  0
  198.4376  178.2628  151.7842 C   0  0  1  0  0  0  0  0  0  0  0  0
  198.3758  177.9031  150.3146 C   0  0  0  0  0  0  0  0  0  0  0  0
  198.5306  176.5661  149.8857 C   0  0  0  0  0  0  0  0  0  0  0  0
  198.4486  176.2557  148.5137 C   0  0  0  0  0  0  0  0  0  0  0  0
  198.2078  177.2753  147.5718 C   0  0  0  0  0  0  0  0  0  0  0  0
  198.0427  178.6053  147.9988 C   0  0  0  0  0  0  0  0  0  0  0  0
  198.1240  178.9167  149.3676 C   0  0  0  0  0  0  0  0  0  0  0  0
  198.0358  181.3248  153.2143 C   0  0  0  0  0  0  0  0  0  0  0  0
  197.8414  182.0147  154.4233 C   0  0  0  0  0  0  0  0  0  0  0  0
  196.4442  184.4885  158.0021 C   0  0  1  0  0  0  0  0  0  0  0  0
  196.3881  185.5685  159.0676 C   0  0  0  0  0  0  0  0  0  0  0  0
  197.3351  186.6273  159.0079 C   0  0  0  0  0  0  0  0  0  0  0  0
  197.3002  187.6341  159.9924 C   0  0  0  0  0  0  0  0  0  0  0  0
  196.3271  187.5976  161.0116 C   0  0  0  0  0  0  0  0  0  0  0  0
  195.4029  186.5400  161.0719 C   0  0  0  0  0  0  0  0  0  0  0  0
  195.4385  185.5392  160.1106 C   0  0  0  0  0  0  0  0  0  0  0  0
  198.3281  188.7479  159.9882 C   0  0  2  0  0  0  0  0  0  0  0  0
  196.9604  181.1585  157.9738 H   0  0  0  0  0  0  0  0  0  0  0  0
  197.2222  183.0195  159.3659 H   0  0  0  0  0  0  0  0  0  0  0  0
  198.4846  183.3431  156.6467 H   0  0  0  0  0  0  0  0  0  0  0  0
  199.0792  182.0296  157.6101 H   0  0  0  0  0  0  0  0  0  0  0  0
  199.6411  180.0195  156.5110 H   0  0  0  0  0  0  0  0  0  0  0  0
  201.2998  178.4988  156.0015 H   0  0  0  0  0  0  0  0  0  0  0  0
  199.7255  177.6896  156.0944 H   0  0  0  0  0  0  0  0  0  0  0  0
  202.0058  176.2984  157.1691 H   0  0  0  0  0  0  0  0  0  0  0  0
  203.0755  174.1036  156.7204 H   0  0  0  0  0  0  0  0  0  0  0  0
  202.9206  173.0750  154.4561 H   0  0  0  0  0  0  0  0  0  0  0  0
  201.6979  174.2613  152.6391 H   0  0  0  0  0  0  0  0  0  0  0  0
  200.6485  176.4453  153.0748 H   0  0  0  0  0  0  0  0  0  0  0  0
  198.9661  177.4776  152.3161 H   0  0  0  0  0  0  0  0  0  0  0  0
  197.4214  178.2801  152.1692 H   0  0  0  0  0  0  0  0  0  0  0  0
  198.7114  175.7739  150.5984 H   0  0  0  0  0  0  0  0  0  0  0  0
  198.5655  175.2358  148.1789 H   0  0  0  0  0  0  0  0  0  0  0  0
  198.1387  177.0372  146.5202 H   0  0  0  0  0  0  0  0  0  0  0  0
  197.8547  179.3873  147.2797 H   0  0  0  0  0  0  0  0  0  0  0  0
  197.9990  179.9382  149.6943 H   0  0  0  0  0  0  0  0  0  0  0  0
  197.5924  181.6990  152.3042 H   0  0  0  0  0  0  0  0  0  0  0  0
  197.2498  182.9196  154.4231 H   0  0  0  0  0  0  0  0  0  0  0  0
  197.2496  184.7551  157.3074 H   0  0  0  0  0  0  0  0  0  0  0  0
  195.5686  184.5195  157.3828 H   0  0  0  0  0  0  0  0  0  0  0  0
  198.0933  186.6641  158.2243 H   0  0  0  0  0  0  0  0  0  0  0  0
  196.3188  188.3325  161.8090 H   0  0  0  0  0  0  0  0  0  0  0  0
  194.6860  186.4551  161.8608 H   0  0  0  0  0  0  0  0  0  0  0  0
  194.7209  184.8019  160.2664 H   0  0  0  0  0  0  0  0  0  0  0  0
  198.3443  189.1993  159.0036 H   0  0  0  0  0  0  0  0  0  0  0  0
  199.3080  188.3451  160.2314 H   0  0  0  0  0  0  0  0  0  0  0  0
  198.0465  189.4958  160.7238 H   0  0  0  0  0  0  0  0  0  0  0  0
  196.2468  182.0193  156.8115 H   0  0  0  0  0  0  0  0  0  0  0  0
  1  2  1  0
  2  3  2  0
  2  4  1  0
  4  5  1  0
  4 29  1  0
  4 38  1  1
  5  6  1  0
  5 37  1  1
  5 67  1  0
  6  7  1  0
  6 39  1  6
  6 40  1  0
  7  8  2  0
  7 28  1  0
  8  9  1  0
  8 41  1  0
  9 10  1  0
  9 18  2  0
 10 11  1  0
 11 12  1  0
 11 42  1  1
 11 43  1  0
 12 13  2  0
 12 17  1  0
 13 14  1  0
 13 44  1  0
 14 15  2  0
 14 45  1  0
 15 16  1  0
 15 46  1  0
 16 17  2  0
 16 47  1  0
 17 48  1  0
 18 19  1  0
 18 27  1  0
 19 20  1  0
 20 21  1  0
 20 49  1  1
 20 50  1  0
 21 22  2  0
 21 26  1  0
 22 23  1  0
 22 51  1  0
 23 24  2  0
 23 52  1  0
 24 25  1  0
 24 53  1  0
 25 26  2  0
 25 54  1  0
 26 55  1  0
 27 28  2  0
 27 56  1  0
 28 57  1  0
 29 30  1  0
 29 58  1  6
 29 59  1  0
 30 31  1  0
 30 35  2  0
 31 32  2  0
 31 60  1  0
 32 33  1  0
 32 36  1  0
 33 34  2  0
 33 61  1  0
 34 35  1  0
 34 62  1  0
 35 63  1  0
 36 64  1  6
 36 65  1  0
 36 66  1  0
M  CHG  2   1  -1   5   1
M  END
>  <s_epik_cmdline>  (308) 
J2VwaWtfcHl0aG9uJywgJy1waCcsICc3LjAwMDAwMCcsICctcGh0JywgJzIuMDAwMDAwJywgJy1tcycsICcxNicsICctdG4nLCAnOCcsICctbWEnLCAnMjAwJywgJy1pbWFlJywgJzxpbmZpbGUubWFlPicsICctb21hZScsICc8b3V0ZmlsZS5tYWU+Jw==

>  <s_epik_input>  (308) 
W2NIXTFbY0hdW2NIXWMoW0NIM10pW2NIXWMxW0NIMl1bQ0BASF0oQyg9TylbT0hdKVtOSF1bQ0gyXWMyW2NIXWMoT1tDSDJdYzNbY0hdW2NIXVtjSF1bY0hdW2NIXTMpYyhbY0hdW2NIXTIpT1tDSDJdYzRbY0hdW2NIXVtjSF1bY0hdW2NIXTQ=

>  <s_i_glide_gridfile>  (308) 
ATP-Grid

>  <s_lp_Force_Field>  (308) 
OPLS_2005

>  <s_lp_Variant>  (308) 
m_271304bba____16914328____9304626-2

>  <s_lp_label>  (308) 
2121_sdstereoexpander_2_neutralizer_1_epik_1_stereoizer_1

>  <s_m_source_file>  (308) 
ATP-VSW-LIGPREP-002-in.maegz

>  <s_sd_BIOSOLVEIT.INFINISEE\_QUERY\_NAME>  (308) 
Ref-Lig

>  <s_sd_BIOSOLVEIT.INFINISEE\_QUERY\_SMILES>  (308) 
S(c1nc2c(cc1C[NH2+]Cc3ccc(cc3)C[NH+](C)C)cccc2)Cc4ccccc4

>  <s_sd_BIOSOLVEIT.INFINISEE\_REACTION\_NAME>  (308) 
m_271304bba

>  <s_sd_BIOSOLVEIT.INFINISEE\_REAGENT1\_SMILES>  (308) 
[R1*]NC(C(=O)O)Cc1cc(ccc1)C

>  <s_sd_BIOSOLVEIT.INFINISEE\_REAGENT2\_SMILES>  (308) 
[R1*]Cc1cc(OCc2ccccc2)c(OCc3ccccc3)cc1

>  <s_sd_BIOSOLVEIT.INFINISEE\_SPACE>  (308) 
REALSpace_44bn_2023-08

>  <s_vsw_compound_code>  (308) 
67842

>  <s_vsw_variant>  (308) 
67842-2

>  <r_epik_Charging_Adjusted_Penalty>  (308) 
0.0436777685560285

>  <r_epik_Ionization_Penalty>  (308) 
0.0218

>  <r_epik_Ionization_Penalty_Charging>  (308) 
0.0218

>  <r_epik_Ionization_Penalty_Neutral>  (308) 
0

>  <r_epik_State_Penalty>  (308) 
0.0218

>  <r_i_docking_score>  (308) 
-4.2538085385462896

>  <r_i_glide_ecoul>  (308) 
-2.9266719818115199

>  <r_i_glide_eff_state_penalty>  (308) 
0.0218

>  <r_i_glide_einternal>  (308) 
11.929094314575201

>  <r_i_glide_emodel>  (308) 
-40.8744479271027

>  <r_i_glide_energy>  (308) 
-36.199247360229499

>  <r_i_glide_erotb>  (308) 
0.96222655044854

>  <r_i_glide_esite>  (308) 
-0.11939141845706901

>  <r_i_glide_evdw>  (308) 
-33.272575378417997

>  <r_i_glide_gscore>  (308) 
-4.2756085385462903

>  <r_i_glide_hbond>  (308) 
-0.0033729636601591202

>  <r_i_glide_ligand_efficiency>  (308) 
-0.11816134829295299

>  <r_i_glide_ligand_efficiency_ln>  (308) 
-0.928066098485266

>  <r_i_glide_ligand_efficiency_sa>  (308) 
-0.39016017522857999

>  <r_i_glide_lipo>  (308) 
-2.6618648225031598

>  <r_i_glide_metal>  (308) 
-0

>  <r_i_glide_rewards>  (308) 
-0.350576318181817

>  <r_lp_Energy>  (308) 
21.563649000000002

>  <r_lp_tautomer_probability>  (308) 
1

>  <r_qp_ACxDN^.5/SA>  (308) 
0.0094365000000000004

>  <r_qp_CIQPlogS>  (308) 
-7.3200000000000003

>  <r_qp_EA(eV)>  (308) 
0.060999999999999999

>  <r_qp_FISA>  (308) 
102.99299999999999

>  <r_qp_FOSA>  (308) 
167.761

>  <r_qp_IP(eV)>  (308) 
8.8520000000000003

>  <r_qp_Jm>  (308) 
0.0040717572609120303

>  <r_qp_PISA>  (308) 
478.57999999999998

>  <r_qp_PSA>  (308) 
72.475999999999999

>  <r_qp_PercentHumanOralAbsorption>  (308) 
84.706999999999994

>  <r_qp_QPPCaco>  (308) 
66.025999999999996

>  <r_qp_QPPMDCK>  (308) 
36.890999999999998

>  <r_qp_QPlogBB>  (308) 
-0.73799999999999999

>  <r_qp_QPlogHERG>  (308) 
-5.3460000000000001

>  <r_qp_QPlogKhsa>  (308) 
0.94899999999999995

>  <r_qp_QPlogKp>  (308) 
-2.6419999999999999

>  <r_qp_QPlogPC16>  (308) 
16.41

>  <r_qp_QPlogPo/w>  (308) 
4.3029999999999999

>  <r_qp_QPlogPoct>  (308) 
23.016999999999999

>  <r_qp_QPlogPw>  (308) 
10.685

>  <r_qp_QPlogS>  (308) 
-5.431

>  <r_qp_QPpolrz>  (308) 
49.976999999999997

>  <r_qp_SASA>  (308) 
749.33399999999995

>  <r_qp_SAamideO>  (308) 
0

>  <r_qp_SAfluorine>  (308) 
0

>  <r_qp_WPSA>  (308) 
0

>  <r_qp_accptHB>  (308) 
5

>  <r_qp_dip^2/V>  (308) 
0.041074699999999999

>  <r_qp_dipole>  (308) 
7.7990000000000004

>  <r_qp_donorHB>  (308) 
2

>  <r_qp_glob>  (308) 
0.83850590000000003

>  <r_qp_mol_MW>  (308) 
481.58999999999997

>  <r_qp_volume>  (308) 
1480.896

>  <r_sd_BIOSOLVEIT.INFINISEE\_FTREES\_SIMILARITY>  (308) 
0.90100000000000002

>  <r_sd_BIOSOLVEIT.LOGP>  (308) 
3.57762

>  <r_sd_BIOSOLVEIT.MOLECULAR\_WEIGHT>  (308) 
481.589

>  <r_sd_BIOSOLVEIT.TPSA>  (308) 
75.200000000000003

>  <i_epik_Tot_Q>  (308) 
0

>  <i_epik_Tot_abs_Q>  (308) 
2

>  <i_f3d_flags>  (308) 
0

>  <i_i_glide_confnum>  (308) 
7

>  <i_i_glide_lignum>  (308) 
767

>  <i_i_glide_posenum>  (308) 
10

>  <i_i_glide_rotatable_bonds>  (308) 
12

>  <i_lp_mmshare_version>  (308) 
65135

>  <i_m_ct_format>  (308) 
2

>  <i_m_source_file_index>  (308) 
2121

>  <i_qp_#NandO>  (308) 
5

>  <i_qp_#acid>  (308) 
1

>  <i_qp_#amide>  (308) 
0

>  <i_qp_#amidine>  (308) 
0

>  <i_qp_#amine>  (308) 
1

>  <i_qp_#in34>  (308) 
0

>  <i_qp_#in56>  (308) 
24

>  <i_qp_#metab>  (308) 
9

>  <i_qp_#nonHatm>  (308) 
36

>  <i_qp_#noncon>  (308) 
0

>  <i_qp_#ringatoms>  (308) 
24

>  <i_qp_#rotor>  (308) 
12

>  <i_qp_#rtvFG>  (308) 
0

>  <i_qp_#stars>  (308) 
2

>  <i_qp_CNS>  (308) 
-1

>  <i_qp_HumanOralAbsorption>  (308) 
2

>  <i_qp_RuleOfFive>  (308) 
0

>  <i_qp_RuleOfThree>  (308) 
1

>  <i_sd_BIOSOLVEIT.INFINISEE\_REAGENT1\_NAME>  (308) 
16914328

>  <i_sd_BIOSOLVEIT.INFINISEE\_REAGENT2\_NAME>  (308) 
9304626

>  <i_sd_BIOSOLVEIT.INFINISEE\_RESULT\_RANK>  (308) 
98531

>  <i_sd_version>  (308) 
0

>  <b_lp_Chiralities_Consistent>  (308) 
1

>  <b_sd_chiral_flag>  (308) 
0

>  <canonical_id>  (308) 
ATP-HTVS-322651E221E8

>  <compound_code>  (308) 
67842

>  <title>  (308) 
m_271304bba____16914328____9304626

>  <variant>  (308) 
67842-2

>  <source_file>  (308) 
运行/运行/ATP-VSW/ATP-VSW-DOCK_HTVS_1-002_lib.maegz

>  <canonical_smiles>  (308) 
Cc1cccc(C[C@H]([NH2+]Cc2ccc(OCc3ccccc3)c(OCc3ccccc3)c2)C(=O)[O-])c1

>  <scaffold>  (308) 
c1ccc(CC[NH2+]Cc2ccc(OCc3ccccc3)c(OCc3ccccc3)c2)cc1

>  <molecular_formula>  (308) 
C31H31NO4

$$$$
ATP-HTVS-323526AAC152
     RDKit          3D

 66 69  0  0  0  0  0  0  0  0999 V2000
  196.7450  180.7595  153.1531 F   0  0  0  0  0  0  0  0  0  0  0  0
  197.0119  182.0150  152.7245 C   0  0  0  0  0  0  0  0  0  0  0  0
  196.9533  182.3180  151.3523 C   0  0  0  0  0  0  0  0  0  0  0  0
  197.2418  183.6238  150.9052 C   0  0  0  0  0  0  0  0  0  0  0  0
  197.1883  183.9387  149.4867 C   0  0  0  0  0  0  0  0  0  0  0  0
  197.1473  184.1906  148.3584 N   0  0  0  0  0  0  0  0  0  0  0  0
  197.5864  184.6258  151.8374 C   0  0  0  0  0  0  0  0  0  0  0  0
  197.6366  184.3333  153.2179 C   0  0  0  0  0  0  0  0  0  0  0  0
  197.3553  183.0148  153.6530 C   0  0  0  0  0  0  0  0  0  0  0  0
  198.0033  185.4161  154.1948 C   0  0  0  0  0  0  0  0  0  0  0  0
  198.7290  186.3505  153.8480 O   0  0  0  0  0  0  0  0  0  0  0  0
  197.4592  185.2690  155.4176 N   0  0  0  0  0  0  0  0  0  0  0  0
  197.3643  186.2030  156.4920 C   0  0  0  0  0  0  0  0  0  0  0  0
  196.7861  185.7851  157.7266 C   0  0  0  0  0  0  0  0  0  0  0  0
  196.3508  184.4551  157.8924 N   0  0  0  0  0  0  0  0  0  0  0  0
  197.0989  183.6300  158.8309 C   0  0  1  0  0  0  0  0  0  0  0  0
  198.3761  183.0787  158.2532 C   0  0  0  0  0  0  0  0  0  0  0  0
  198.3219  182.0329  157.3121 C   0  0  0  0  0  0  0  0  0  0  0  0
  199.5132  181.4566  156.8289 C   0  0  0  0  0  0  0  0  0  0  0  0
  200.7582  181.9676  157.2579 C   0  0  0  0  0  0  0  0  0  0  0  0
  200.8123  183.0006  158.2097 C   0  0  0  0  0  0  0  0  0  0  0  0
  199.6200  183.5605  158.7064 C   0  0  0  0  0  0  0  0  0  0  0  0
  199.4586  180.2789  155.8687 C   0  0  1  0  0  0  0  0  0  0  0  0
  199.5487  178.9446  156.5337 N   0  0  1  0  0  0  0  0  0  0  0  0
  199.2767  177.8421  155.5773 C   0  0  1  0  0  0  0  0  0  0  0  0
  200.3708  177.6633  154.5047 C   0  0  2  0  0  0  0  0  0  0  0  0
  200.7845  178.7538  157.3533 C   0  0  1  0  0  0  0  0  0  0  0  0
  200.7539  177.4840  158.2066 C   0  0  2  0  0  0  0  0  0  0  0  0
  196.6415  186.7424  158.7726 C   0  0  0  0  0  0  0  0  0  0  0  0
  197.1008  188.0685  158.5675 C   0  0  0  0  0  0  0  0  0  0  0  0
  197.6323  188.4150  157.3789 N   0  0  0  0  0  0  0  0  0  0  0  0
  197.7681  187.5528  156.3513 C   0  0  0  0  0  0  0  0  0  0  0  0
  196.9937  189.0435  159.5814 C   0  0  0  0  0  0  0  0  0  0  0  0
  196.4307  188.6994  160.8231 C   0  0  0  0  0  0  0  0  0  0  0  0
  195.9336  187.4001  161.0254 C   0  0  0  0  0  0  0  0  0  0  0  0
  196.0294  186.4286  160.0107 C   0  0  0  0  0  0  0  0  0  0  0  0
  196.6972  181.5418  150.6459 H   0  0  0  0  0  0  0  0  0  0  0  0
  197.8070  185.6290  151.4960 H   0  0  0  0  0  0  0  0  0  0  0  0
  197.3877  182.7472  154.6998 H   0  0  0  0  0  0  0  0  0  0  0  0
  196.9848  184.3933  155.5583 H   0  0  0  0  0  0  0  0  0  0  0  0
  196.1208  183.9411  157.0567 H   0  0  0  0  0  0  0  0  0  0  0  0
  197.3454  184.1751  159.7396 H   0  0  0  0  0  0  0  0  0  0  0  0
  196.4560  182.7995  159.1323 H   0  0  0  0  0  0  0  0  0  0  0  0
  197.3627  181.6357  157.0007 H   0  0  0  0  0  0  0  0  0  0  0  0
  201.6812  181.5378  156.8952 H   0  0  0  0  0  0  0  0  0  0  0  0
  201.7706  183.3374  158.5866 H   0  0  0  0  0  0  0  0  0  0  0  0
  199.6709  184.3323  159.4622 H   0  0  0  0  0  0  0  0  0  0  0  0
  198.5221  180.3352  155.3033 H   0  0  0  0  0  0  0  0  0  0  0  0
  200.2686  180.4141  155.1461 H   0  0  0  0  0  0  0  0  0  0  0  0
  199.1448  176.9075  156.1250 H   0  0  0  0  0  0  0  0  0  0  0  0
  198.3099  178.0277  155.1030 H   0  0  0  0  0  0  0  0  0  0  0  0
  200.1274  176.8398  153.8350 H   0  0  0  0  0  0  0  0  0  0  0  0
  201.3407  177.4273  154.9415 H   0  0  0  0  0  0  0  0  0  0  0  0
  200.4959  178.5547  153.8855 H   0  0  0  0  0  0  0  0  0  0  0  0
  201.6736  178.7710  156.7177 H   0  0  0  0  0  0  0  0  0  0  0  0
  200.8986  179.5712  158.0678 H   0  0  0  0  0  0  0  0  0  0  0  0
  201.6431  177.4407  158.8252 H   0  0  0  0  0  0  0  0  0  0  0  0
  200.7353  176.5632  157.6261 H   0  0  0  0  0  0  0  0  0  0  0  0
  199.8990  177.4970  158.8816 H   0  0  0  0  0  0  0  0  0  0  0  0
  198.1618  188.0041  155.4518 H   0  0  0  0  0  0  0  0  0  0  0  0
  197.3613  190.0494  159.4354 H   0  0  0  0  0  0  0  0  0  0  0  0
  196.3830  189.4308  161.6190 H   0  0  0  0  0  0  0  0  0  0  0  0
  195.4937  187.1474  161.9793 H   0  0  0  0  0  0  0  0  0  0  0  0
  195.6174  185.4483  160.1973 H   0  0  0  0  0  0  0  0  0  0  0  0
  198.7776  178.8904  157.1928 H   0  0  0  0  0  0  0  0  0  0  0  0
  197.9147  189.3875  157.2467 H   0  0  0  0  0  0  0  0  0  0  0  0
  1  2  1  0
  2  3  2  0
  2  9  1  0
  3  4  1  0
  3 37  1  0
  4  5  1  0
  4  7  2  0
  5  6  3  0
  7  8  1  0
  7 38  1  0
  8  9  2  0
  8 10  1  0
  9 39  1  0
 10 11  2  0
 10 12  1  0
 12 13  1  0
 12 40  1  0
 13 14  2  0
 13 32  1  0
 14 15  1  0
 14 29  1  0
 15 16  1  0
 15 41  1  0
 16 17  1  0
 16 42  1  1
 16 43  1  0
 17 18  2  0
 17 22  1  0
 18 19  1  0
 18 44  1  0
 19 20  2  0
 19 23  1  0
 20 21  1  0
 20 45  1  0
 21 22  2  0
 21 46  1  0
 22 47  1  0
 23 24  1  0
 23 48  1  6
 23 49  1  0
 24 25  1  0
 24 27  1  0
 24 65  1  1
 25 26  1  0
 25 50  1  1
 25 51  1  0
 26 52  1  6
 26 53  1  0
 26 54  1  0
 27 28  1  0
 27 55  1  6
 27 56  1  0
 28 57  1  1
 28 58  1  0
 28 59  1  0
 29 30  1  0
 29 36  2  0
 30 31  1  0
 30 33  2  0
 31 32  2  0
 31 66  1  0
 32 60  1  0
 33 34  1  0
 33 61  1  0
 34 35  2  0
 34 62  1  0
 35 36  1  0
 35 63  1  0
 36 64  1  0
M  CHG  2  24   1  31   1
M  END
>  <s_epik_cmdline>  (309) 
J2VwaWtfcHl0aG9uJywgJy1waCcsICc3LjAwMDAwMCcsICctcGh0JywgJzIuMDAwMDAwJywgJy1tcycsICcxNicsICctdG4nLCAnOCcsICctbWEnLCAnMjAwJywgJy1pbWFlJywgJzxpbmZpbGUubWFlPicsICctb21hZScsICc8b3V0ZmlsZS5tYWU+Jw==

>  <s_epik_input>  (309) 
RmMxW2NIXWMoQyNOKVtjSF1jKFtjSF0xKUMoPU8pW05IXWMoW2NIXW5jKGMyMylbY0hdW2NIXVtjSF1bY0hdMyljMltOSF1bQ0gyXWM0W2NIXWMoW2NIXVtjSF1bY0hdNClbQ0gyXU4oW0NIMl1bQ0gzXSlbQ0gyXVtDSDNd

>  <s_i_glide_gridfile>  (309) 
ATP-Grid

>  <s_lp_Force_Field>  (309) 
OPLS_2005

>  <s_lp_Variant>  (309) 
rxn502b____EMOL5759763____EMOL30488121____EMOL44153840-1

>  <s_lp_label>  (309) 
2637_sdstereoexpander_1_neutralizer_1_epik_1_stereoizer_1

>  <s_m_source_file>  (309) 
ATP-VSW-LIGPREP-003-in.maegz

>  <s_sd_BIOSOLVEIT.INFINISEE\_QUERY\_NAME>  (309) 
Ref-Lig

>  <s_sd_BIOSOLVEIT.INFINISEE\_QUERY\_SMILES>  (309) 
S(c1nc2c(cc1C[NH2+]Cc3ccc(cc3)C[NH+](C)C)cccc2)Cc4ccccc4

>  <s_sd_BIOSOLVEIT.INFINISEE\_REACTION\_NAME>  (309) 
rxn502b

>  <s_sd_BIOSOLVEIT.INFINISEE\_REAGENT1\_NAME>  (309) 
EMOL5759763

>  <s_sd_BIOSOLVEIT.INFINISEE\_REAGENT1\_SMILES>  (309) 
Fc1cc(C#N)cc(c1)C(=O)O

>  <s_sd_BIOSOLVEIT.INFINISEE\_REAGENT2\_NAME>  (309) 
EMOL30488121

>  <s_sd_BIOSOLVEIT.INFINISEE\_REAGENT2\_SMILES>  (309) 
Brc1c(N)cnc2c1cccc2

>  <s_sd_BIOSOLVEIT.INFINISEE\_REAGENT3\_NAME>  (309) 
EMOL44153840

>  <s_sd_BIOSOLVEIT.INFINISEE\_REAGENT3\_SMILES>  (309) 
N(Cc1cc(ccc1)CN)(CC)CC

>  <s_sd_BIOSOLVEIT.INFINISEE\_SPACE>  (309) 
eXplore_7tr_2022-12

>  <s_vsw_compound_code>  (309) 
84355

>  <s_vsw_variant>  (309) 
84355-1

>  <r_epik_Charging_Adjusted_Penalty>  (309) 
0.19580502592321

>  <r_epik_Ionization_Penalty>  (309) 
0.099900000000000003

>  <r_epik_Ionization_Penalty_Charging>  (309) 
0.099000000000000005

>  <r_epik_Ionization_Penalty_Neutral>  (309) 
0.00089999999999999998

>  <r_epik_State_Penalty>  (309) 
0.096799999999999997

>  <r_i_docking_score>  (309) 
-4.9462186774937003

>  <r_i_glide_ecoul>  (309) 
-9.0366649627685494

>  <r_i_glide_eff_state_penalty>  (309) 
0.096799999999999997

>  <r_i_glide_einternal>  (309) 
4.1488380432128897

>  <r_i_glide_emodel>  (309) 
-71.181319760913397

>  <r_i_glide_energy>  (309) 
-50.469232559204102

>  <r_i_glide_erotb>  (309) 
0.69452465000959196

>  <r_i_glide_esite>  (309) 
-0.101455685466351

>  <r_i_glide_evdw>  (309) 
-41.432567596435497

>  <r_i_glide_gscore>  (309) 
-5.0430186774937003

>  <r_i_glide_hbond>  (309) 
-0.19385537466414601

>  <r_i_glide_ligand_efficiency>  (309) 
-0.137394963263714

>  <r_i_glide_ligand_efficiency_ln>  (309) 
-1.0791312840434699

>  <r_i_glide_ligand_efficiency_sa>  (309) 
-0.45366817251942398

>  <r_i_glide_lipo>  (309) 
-1.5422386843995799

>  <r_i_glide_metal>  (309) 
-0

>  <r_i_glide_rewards>  (309) 
-0.47286545873615898

>  <r_lp_Energy>  (309) 
42.707864999999998

>  <r_qp_ACxDN^.5/SA>  (309) 
0.014610700000000001

>  <r_qp_CIQPlogS>  (309) 
-7.024

>  <r_qp_EA(eV)>  (309) 
1.3009999999999999

>  <r_qp_FISA>  (309) 
135.36799999999999

>  <r_qp_FOSA>  (309) 
264.28899999999999

>  <r_qp_IP(eV)>  (309) 
8.5800000000000001

>  <r_qp_Jm>  (309) 
0.000100954994416931

>  <r_qp_PISA>  (309) 
327.791

>  <r_qp_PSA>  (309) 
83.534000000000006

>  <r_qp_PercentHumanOralAbsorption>  (309) 
90.725999999999999

>  <r_qp_QPPCaco>  (309) 
128.559

>  <r_qp_QPPMDCK>  (309) 
107.688

>  <r_qp_QPlogBB>  (309) 
-0.85199999999999998

>  <r_qp_QPlogHERG>  (309) 
-6.6580000000000004

>  <r_qp_QPlogKhsa>  (309) 
0.72299999999999998

>  <r_qp_QPlogKp>  (309) 
-3.9620000000000002

>  <r_qp_QPlogPC16>  (309) 
15.630000000000001

>  <r_qp_QPlogPo/w>  (309) 
4.4459999999999997

>  <r_qp_QPlogPoct>  (309) 
24.859000000000002

>  <r_qp_QPlogPw>  (309) 
13.353

>  <r_qp_QPlogS>  (309) 
-5.7160000000000002

>  <r_qp_QPpolrz>  (309) 
51.281999999999996

>  <r_qp_SASA>  (309) 
774.34299999999996

>  <r_qp_SAamideO>  (309) 
0

>  <r_qp_SAfluorine>  (309) 
46.895000000000003

>  <r_qp_WPSA>  (309) 
46.895000000000003

>  <r_qp_accptHB>  (309) 
8

>  <r_qp_dip^2/V>  (309) 
0.011513600000000001

>  <r_qp_dipole>  (309) 
4.1799999999999997

>  <r_qp_donorHB>  (309) 
2

>  <r_qp_glob>  (309) 
0.82470969999999999

>  <r_qp_mol_MW>  (309) 
481.57100000000003

>  <r_qp_volume>  (309) 
1517.414

>  <r_sd_BIOSOLVEIT.INFINISEE\_FTREES\_SIMILARITY>  (309) 
0.91000000000000003

>  <r_sd_BIOSOLVEIT.LOGP>  (309) 
4.5346799999999998

>  <r_sd_BIOSOLVEIT.MOLECULAR\_WEIGHT>  (309) 
482.57999999999998

>  <r_sd_BIOSOLVEIT.TPSA>  (309) 
82.25

>  <i_epik_Tot_Q>  (309) 
2

>  <i_epik_Tot_abs_Q>  (309) 
2

>  <i_f3d_flags>  (309) 
0

>  <i_i_glide_confnum>  (309) 
2

>  <i_i_glide_lignum>  (309) 
1212

>  <i_i_glide_posenum>  (309) 
13

>  <i_i_glide_rotatable_bonds>  (309) 
10

>  <i_lp_mmshare_version>  (309) 
65135

>  <i_m_ct_format>  (309) 
2

>  <i_m_source_file_index>  (309) 
2637

>  <i_qp_#NandO>  (309) 
6

>  <i_qp_#acid>  (309) 
0

>  <i_qp_#amide>  (309) 
0

>  <i_qp_#amidine>  (309) 
0

>  <i_qp_#amine>  (309) 
1

>  <i_qp_#in34>  (309) 
0

>  <i_qp_#in56>  (309) 
22

>  <i_qp_#metab>  (309) 
6

>  <i_qp_#nonHatm>  (309) 
36

>  <i_qp_#noncon>  (309) 
0

>  <i_qp_#ringatoms>  (309) 
22

>  <i_qp_#rotor>  (309) 
10

>  <i_qp_#rtvFG>  (309) 
0

>  <i_qp_#stars>  (309) 
0

>  <i_qp_CNS>  (309) 
0

>  <i_qp_HumanOralAbsorption>  (309) 
3

>  <i_qp_RuleOfFive>  (309) 
0

>  <i_qp_RuleOfThree>  (309) 
1

>  <i_sd_BIOSOLVEIT.INFINISEE\_RESULT\_RANK>  (309) 
45018

>  <i_sd_version>  (309) 
0

>  <b_lp_Chiralities_Consistent>  (309) 
1

>  <b_sd_chiral_flag>  (309) 
0

>  <canonical_id>  (309) 
ATP-HTVS-323526AAC152

>  <compound_code>  (309) 
84355

>  <title>  (309) 
rxn502b____EMOL5759763____EMOL30488121____EMOL44153840

>  <variant>  (309) 
84355-1

>  <source_file>  (309) 
运行/运行/ATP-VSW/ATP-VSW-DOCK_HTVS_1-003_lib/ATP-VSW-DOCK_HTVS_1-003_lib.mae

>  <canonical_smiles>  (309) 
CC[NH+](CC)Cc1cccc(CNc2c(NC(=O)c3cc(F)cc(C#N)c3)c[nH+]c3ccccc23)c1

>  <scaffold>  (309) 
O=C(Nc1c[nH+]c2ccccc2c1NCc1ccccc1)c1ccccc1

>  <molecular_formula>  (309) 
C29H30FN5O+2

$$$$
ATP-HTVS-3254A7EDB406
     RDKit          3D

 62 65  0  0  0  0  0  0  0  0999 V2000
  196.7480  179.0327  148.8237 Cl  0  0  0  0  0  0  0  0  0  0  0  0
  197.1671  180.1221  150.0931 C   0  0  0  0  0  0  0  0  0  0  0  0
  198.2165  181.0530  149.9189 C   0  0  0  0  0  0  0  0  0  0  0  0
  198.5288  181.9462  150.9626 C   0  0  0  0  0  0  0  0  0  0  0  0
  197.8233  181.9059  152.1832 C   0  0  0  0  0  0  0  0  0  0  0  0
  196.7829  180.9584  152.3556 C   0  0  0  0  0  0  0  0  0  0  0  0
  196.4512  180.0808  151.3076 C   0  0  0  0  0  0  0  0  0  0  0  0
  198.1897  182.8501  153.2855 C   0  0  0  0  0  0  0  0  0  0  0  0
  198.2772  184.0630  153.0600 O   0  0  0  0  0  0  0  0  0  0  0  0
  198.4766  182.2673  154.4629 N   0  0  0  0  0  0  0  0  0  0  0  0
  198.9415  182.8977  155.6595 C   0  0  0  0  0  0  0  0  0  0  0  0
  199.8448  182.2199  156.5222 C   0  0  0  0  0  0  0  0  0  0  0  0
  200.3011  180.9392  156.1615 N   0  0  0  0  0  0  0  0  0  0  0  0
  199.8255  179.8158  156.9496 C   0  0  1  0  0  0  0  0  0  0  0  0
  200.2329  178.4817  156.3768 C   0  0  0  0  0  0  0  0  0  0  0  0
  200.0772  178.2190  155.0041 C   0  0  0  0  0  0  0  0  0  0  0  0
  200.4807  176.9790  154.4733 C   0  0  0  0  0  0  0  0  0  0  0  0
  201.0153  175.9876  155.3265 C   0  0  0  0  0  0  0  0  0  0  0  0
  201.1486  176.2461  156.7075 C   0  0  0  0  0  0  0  0  0  0  0  0
  200.7556  177.4887  157.2287 C   0  0  0  0  0  0  0  0  0  0  0  0
  201.4235  174.6426  154.7620 C   0  0  1  0  0  0  0  0  0  0  0  0
  202.8018  174.2633  155.1516 N   0  0  1  0  0  0  0  0  0  0  0  0
  203.0848  172.8404  154.8549 C   0  0  2  0  0  0  0  0  0  0  0  0
  203.8386  175.1711  154.6018 C   0  0  2  0  0  0  0  0  0  0  0  0
  200.2865  182.8560  157.7157 C   0  0  0  0  0  0  0  0  0  0  0  0
  199.7549  184.1325  158.0482 C   0  0  0  0  0  0  0  0  0  0  0  0
  198.8940  184.7374  157.1918 N   0  0  0  0  0  0  0  0  0  0  0  0
  198.4796  184.1813  156.0341 C   0  0  0  0  0  0  0  0  0  0  0  0
  200.1314  184.7821  159.2463 C   0  0  0  0  0  0  0  0  0  0  0  0
  201.0266  184.1565  160.1333 C   0  0  0  0  0  0  0  0  0  0  0  0
  201.5798  182.9066  159.8073 C   0  0  0  0  0  0  0  0  0  0  0  0
  201.2540  182.2840  158.5825 C   0  0  0  0  0  0  0  0  0  0  0  0
  199.0047  181.0939  148.6203 C   0  0  2  0  0  0  0  0  0  0  0  0
  199.3272  182.6623  150.8307 H   0  0  0  0  0  0  0  0  0  0  0  0
  196.2242  180.9305  153.2796 H   0  0  0  0  0  0  0  0  0  0  0  0
  195.6467  179.3716  151.4357 H   0  0  0  0  0  0  0  0  0  0  0  0
  198.4581  181.2569  154.4549 H   0  0  0  0  0  0  0  0  0  0  0  0
  200.2528  180.7551  155.1729 H   0  0  0  0  0  0  0  0  0  0  0  0
  200.2469  179.8313  157.9482 H   0  0  0  0  0  0  0  0  0  0  0  0
  198.7383  179.8502  157.0533 H   0  0  0  0  0  0  0  0  0  0  0  0
  199.6578  178.9570  154.3384 H   0  0  0  0  0  0  0  0  0  0  0  0
  200.3508  176.7911  153.4174 H   0  0  0  0  0  0  0  0  0  0  0  0
  201.5396  175.4976  157.3818 H   0  0  0  0  0  0  0  0  0  0  0  0
  200.8739  177.6827  158.2868 H   0  0  0  0  0  0  0  0  0  0  0  0
  200.7079  173.9057  155.1277 H   0  0  0  0  0  0  0  0  0  0  0  0
  201.3421  174.6595  153.6733 H   0  0  0  0  0  0  0  0  0  0  0  0
  203.0597  172.6487  153.7811 H   0  0  0  0  0  0  0  0  0  0  0  0
  202.3513  172.1878  155.3293 H   0  0  0  0  0  0  0  0  0  0  0  0
  204.0652  172.5500  155.2277 H   0  0  0  0  0  0  0  0  0  0  0  0
  203.8223  175.1819  153.5112 H   0  0  0  0  0  0  0  0  0  0  0  0
  204.8311  174.8529  154.9218 H   0  0  0  0  0  0  0  0  0  0  0  0
  203.6982  176.1967  154.9513 H   0  0  0  0  0  0  0  0  0  0  0  0
  197.7936  184.7771  155.4480 H   0  0  0  0  0  0  0  0  0  0  0  0
  199.7396  185.7584  159.4993 H   0  0  0  0  0  0  0  0  0  0  0  0
  201.3044  184.6355  161.0658 H   0  0  0  0  0  0  0  0  0  0  0  0
  202.2674  182.4254  160.4845 H   0  0  0  0  0  0  0  0  0  0  0  0
  201.7572  181.3635  158.3420 H   0  0  0  0  0  0  0  0  0  0  0  0
  199.7773  181.8636  148.6426 H   0  0  0  0  0  0  0  0  0  0  0  0
  198.3474  181.3054  147.7757 H   0  0  0  0  0  0  0  0  0  0  0  0
  199.4954  180.1360  148.4347 H   0  0  0  0  0  0  0  0  0  0  0  0
  202.8406  174.3604  156.1562 H   0  0  0  0  0  0  0  0  0  0  0  0
  198.5349  185.6590  157.4375 H   0  0  0  0  0  0  0  0  0  0  0  0
  1  2  1  0
  2  3  2  0
  2  7  1  0
  3  4  1  0
  3 33  1  0
  4  5  2  0
  4 34  1  0
  5  6  1  0
  5  8  1  0
  6  7  2  0
  6 35  1  0
  7 36  1  0
  8  9  2  0
  8 10  1  0
 10 11  1  0
 10 37  1  0
 11 12  2  0
 11 28  1  0
 12 13  1  0
 12 25  1  0
 13 14  1  0
 13 38  1  0
 14 15  1  0
 14 39  1  1
 14 40  1  0
 15 16  1  0
 15 20  2  0
 16 17  2  0
 16 41  1  0
 17 18  1  0
 17 42  1  0
 18 19  2  0
 18 21  1  0
 19 20  1  0
 19 43  1  0
 20 44  1  0
 21 22  1  0
 21 45  1  1
 21 46  1  0
 22 23  1  0
 22 24  1  0
 22 61  1  1
 23 47  1  6
 23 48  1  0
 23 49  1  0
 24 50  1  6
 24 51  1  0
 24 52  1  0
 25 26  1  0
 25 32  2  0
 26 27  1  0
 26 29  2  0
 27 28  2  0
 27 62  1  0
 28 53  1  0
 29 30  1  0
 29 54  1  0
 30 31  2  0
 30 55  1  0
 31 32  1  0
 31 56  1  0
 32 57  1  0
 33 58  1  1
 33 59  1  0
 33 60  1  0
M  CHG  2  22   1  27   1
M  END
>  <s_epik_cmdline>  (310) 
J2VwaWtfcHl0aG9uJywgJy1waCcsICc3LjAwMDAwMCcsICctcGh0JywgJzIuMDAwMDAwJywgJy1tcycsICcxNicsICctdG4nLCAnOCcsICctbWEnLCAnMjAwJywgJy1pbWFlJywgJzxpbmZpbGUubWFlPicsICctb21hZScsICc8b3V0ZmlsZS5tYWU+Jw==

>  <s_epik_input>  (310) 
Q2xjMWMoW0NIM10pW2NIXWMoW2NIXVtjSF0xKUMoPU8pW05IXWMoW2NIXW5jKGMyMylbY0hdW2NIXVtjSF1bY0hdMyljMltOSF1bQ0gyXWM0W2NIXVtjSF1jKFtjSF1bY0hdNClbQ0gyXU4oW0NIM10pW0NIM10=

>  <s_i_glide_gridfile>  (310) 
ATP-Grid

>  <s_lp_Force_Field>  (310) 
OPLS_2005

>  <s_lp_Variant>  (310) 
rxn502b____EMOL631885____EMOL30488121____EMOL50155899-1

>  <s_lp_label>  (310) 
2252_sdstereoexpander_1_neutralizer_1_epik_1_stereoizer_1

>  <s_m_source_file>  (310) 
ATP-VSW-LIGPREP-001-in.maegz

>  <s_sd_BIOSOLVEIT.INFINISEE\_QUERY\_NAME>  (310) 
Ref-Lig

>  <s_sd_BIOSOLVEIT.INFINISEE\_QUERY\_SMILES>  (310) 
S(c1nc2c(cc1C[NH2+]Cc3ccc(cc3)C[NH+](C)C)cccc2)Cc4ccccc4

>  <s_sd_BIOSOLVEIT.INFINISEE\_REACTION\_NAME>  (310) 
rxn502b

>  <s_sd_BIOSOLVEIT.INFINISEE\_REAGENT1\_NAME>  (310) 
EMOL631885

>  <s_sd_BIOSOLVEIT.INFINISEE\_REAGENT1\_SMILES>  (310) 
Clc1c(cc(cc1)C(=O)O)C

>  <s_sd_BIOSOLVEIT.INFINISEE\_REAGENT2\_NAME>  (310) 
EMOL30488121

>  <s_sd_BIOSOLVEIT.INFINISEE\_REAGENT2\_SMILES>  (310) 
Brc1c(N)cnc2c1cccc2

>  <s_sd_BIOSOLVEIT.INFINISEE\_REAGENT3\_NAME>  (310) 
EMOL50155899

>  <s_sd_BIOSOLVEIT.INFINISEE\_REAGENT3\_SMILES>  (310) 
N(Cc1ccc(cc1)CN)(C)C

>  <s_sd_BIOSOLVEIT.INFINISEE\_SPACE>  (310) 
eXplore_7tr_2022-12

>  <s_vsw_compound_code>  (310) 
72033

>  <s_vsw_variant>  (310) 
72033-1

>  <r_epik_Charging_Adjusted_Penalty>  (310) 
0.24057739898594899

>  <r_epik_Ionization_Penalty>  (310) 
0.1203

>  <r_epik_Ionization_Penalty_Charging>  (310) 
0.1203

>  <r_epik_Ionization_Penalty_Neutral>  (310) 
0.0001

>  <r_epik_State_Penalty>  (310) 
0.1203

>  <r_i_docking_score>  (310) 
-3.8357326887336098

>  <r_i_glide_ecoul>  (310) 
-6.6890821456909197

>  <r_i_glide_eff_state_penalty>  (310) 
0.1203

>  <r_i_glide_einternal>  (310) 
3.1542019844055198

>  <r_i_glide_emodel>  (310) 
-56.619053622230503

>  <r_i_glide_energy>  (310) 
-39.964236259460399

>  <r_i_glide_erotb>  (310) 
0.66313762141204002

>  <r_i_glide_esite>  (310) 
-0.0086144695625613096

>  <r_i_glide_evdw>  (310) 
-33.275154113769503

>  <r_i_glide_gscore>  (310) 
-3.9560326887336101

>  <r_i_glide_hbond>  (310) 
0

>  <r_i_glide_ligand_efficiency>  (310) 
-0.116234323901019

>  <r_i_glide_ligand_efficiency_ln>  (310) 
-0.85304708961339704

>  <r_i_glide_ligand_efficiency_sa>  (310) 
-0.372825583801842

>  <r_i_glide_lipo>  (310) 
-1.6775134948591599

>  <r_i_glide_metal>  (310) 
-0

>  <r_i_glide_rewards>  (310) 
-0.265922318181817

>  <r_lp_Energy>  (310) 
37.759861999999998

>  <r_qp_ACxDN^.5/SA>  (310) 
0.0127478

>  <r_qp_CIQPlogS>  (310) 
-6.1550000000000002

>  <r_qp_EA(eV)>  (310) 
1.0229999999999999

>  <r_qp_FISA>  (310) 
74.947000000000003

>  <r_qp_FOSA>  (310) 
238.053

>  <r_qp_IP(eV)>  (310) 
8.5530000000000008

>  <r_qp_Jm>  (310) 
0.0072216688401207504

>  <r_qp_PISA>  (310) 
362.56

>  <r_qp_PSA>  (310) 
62.795999999999999

>  <r_qp_PercentHumanOralAbsorption>  (310) 
100

>  <r_qp_QPPCaco>  (310) 
480.92899999999997

>  <r_qp_QPPMDCK>  (310) 
440.60500000000002

>  <r_qp_QPlogBB>  (310) 
-0.068000000000000005

>  <r_qp_QPlogHERG>  (310) 
-6.6859999999999999

>  <r_qp_QPlogKhsa>  (310) 
0.78500000000000003

>  <r_qp_QPlogKp>  (310) 
-3.0139999999999998

>  <r_qp_QPlogPC16>  (310) 
14.891999999999999

>  <r_qp_QPlogPo/w>  (310) 
4.6820000000000004

>  <r_qp_QPlogPoct>  (310) 
23.138000000000002

>  <r_qp_QPlogPw>  (310) 
12.234

>  <r_qp_QPlogS>  (310) 
-4.7889999999999997

>  <r_qp_QPpolrz>  (310) 
48.231000000000002

>  <r_qp_SASA>  (310) 
721.09699999999998

>  <r_qp_SAamideO>  (310) 
0

>  <r_qp_SAfluorine>  (310) 
0

>  <r_qp_WPSA>  (310) 
45.536999999999999

>  <r_qp_accptHB>  (310) 
6.5

>  <r_qp_dip^2/V>  (310) 
0.035537800000000001

>  <r_qp_dipole>  (310) 
7.0149999999999997

>  <r_qp_donorHB>  (310) 
2

>  <r_qp_glob>  (310) 
0.83320490000000003

>  <r_qp_mol_MW>  (310) 
458.98899999999998

>  <r_qp_volume>  (310) 
1384.748

>  <r_sd_BIOSOLVEIT.INFINISEE\_FTREES\_SIMILARITY>  (310) 
0.92600000000000005

>  <r_sd_BIOSOLVEIT.LOGP>  (310) 
4.7055199999999999

>  <r_sd_BIOSOLVEIT.MOLECULAR\_WEIGHT>  (310) 
459.99799999999999

>  <r_sd_BIOSOLVEIT.TPSA>  (310) 
58.460000000000001

>  <i_epik_Tot_Q>  (310) 
2

>  <i_epik_Tot_abs_Q>  (310) 
2

>  <i_f3d_flags>  (310) 
0

>  <i_i_glide_confnum>  (310) 
8

>  <i_i_glide_lignum>  (310) 
771

>  <i_i_glide_posenum>  (310) 
8

>  <i_i_glide_rotatable_bonds>  (310) 
8

>  <i_lp_mmshare_version>  (310) 
65135

>  <i_m_ct_format>  (310) 
2

>  <i_m_source_file_index>  (310) 
2252

>  <i_qp_#NandO>  (310) 
5

>  <i_qp_#acid>  (310) 
0

>  <i_qp_#amide>  (310) 
0

>  <i_qp_#amidine>  (310) 
0

>  <i_qp_#amine>  (310) 
1

>  <i_qp_#in34>  (310) 
0

>  <i_qp_#in56>  (310) 
22

>  <i_qp_#metab>  (310) 
7

>  <i_qp_#nonHatm>  (310) 
33

>  <i_qp_#noncon>  (310) 
0

>  <i_qp_#ringatoms>  (310) 
22

>  <i_qp_#rotor>  (310) 
7

>  <i_qp_#rtvFG>  (310) 
0

>  <i_qp_#stars>  (310) 
0

>  <i_qp_CNS>  (310) 
1

>  <i_qp_HumanOralAbsorption>  (310) 
3

>  <i_qp_RuleOfFive>  (310) 
0

>  <i_qp_RuleOfThree>  (310) 
1

>  <i_sd_BIOSOLVEIT.INFINISEE\_RESULT\_RANK>  (310) 
7773

>  <i_sd_version>  (310) 
0

>  <b_lp_Chiralities_Consistent>  (310) 
1

>  <b_sd_chiral_flag>  (310) 
0

>  <canonical_id>  (310) 
ATP-HTVS-3254A7EDB406

>  <compound_code>  (310) 
72033

>  <title>  (310) 
rxn502b____EMOL631885____EMOL30488121____EMOL50155899

>  <variant>  (310) 
72033-1

>  <source_file>  (310) 
运行/运行/ATP-VSW/ATP-VSW-DOCK_HTVS_1-001_lib/ATP-VSW-DOCK_HTVS_1-001_lib

>  <canonical_smiles>  (310) 
Cc1cc(C(=O)Nc2c[nH+]c3ccccc3c2NCc2ccc(C[NH+](C)C)cc2)ccc1Cl

>  <scaffold>  (310) 
O=C(Nc1c[nH+]c2ccccc2c1NCc1ccccc1)c1ccccc1

>  <molecular_formula>  (310) 
C27H29ClN4O+2

$$$$
ATP-HTVS-327AC6849941
     RDKit          3D

 61 64  0  0  0  0  0  0  0  0999 V2000
  198.9072  185.2079  146.4950 Cl  0  0  0  0  0  0  0  0  0  0  0  0
  198.8270  185.3934  148.2052 C   0  0  0  0  0  0  0  0  0  0  0  0
  199.9530  185.8281  148.9250 C   0  0  0  0  0  0  0  0  0  0  0  0
  199.8878  185.9655  150.3287 C   0  0  0  0  0  0  0  0  0  0  0  0
  198.6851  185.7297  151.0493 C   0  0  0  0  0  0  0  0  0  0  0  0
  197.5649  185.3142  150.2832 C   0  0  0  0  0  0  0  0  0  0  0  0
  197.6360  185.1218  148.8926 C   0  0  0  0  0  0  0  0  0  0  0  0
  198.5921  185.8973  152.5476 C   0  0  2  0  0  0  0  0  0  0  0  0
  199.5740  186.8741  153.1144 N   0  0  0  0  0  0  0  0  0  0  0  0
  199.5963  186.9126  154.5780 C   0  0  2  0  0  0  0  0  0  0  0  0
  199.3282  188.2326  152.6283 C   0  0  2  0  0  0  0  0  0  0  0  0
  198.7320  184.4391  153.0720 C   0  0  0  0  0  0  0  0  0  0  0  0
  199.7583  183.8019  152.8611 O   0  0  0  0  0  0  0  0  0  0  0  0
  197.6891  183.9307  153.7422 N   0  0  0  0  0  0  0  0  0  0  0  0
  197.5010  182.5488  154.0139 C   0  0  0  0  0  0  0  0  0  0  0  0
  197.5853  182.0756  155.3590 C   0  0  0  0  0  0  0  0  0  0  0  0
  197.9131  182.9165  156.4540 N   0  0  0  0  0  0  0  0  0  0  0  0
  199.1140  182.8187  157.2228 C   0  0  0  0  0  0  0  0  0  0  0  0
  200.1327  181.9122  156.8351 C   0  0  0  0  0  0  0  0  0  0  0  0
  201.3338  181.8147  157.5681 C   0  0  0  0  0  0  0  0  0  0  0  0
  201.5654  182.6505  158.6771 C   0  0  0  0  0  0  0  0  0  0  0  0
  200.5790  183.5603  159.0728 C   0  0  0  0  0  0  0  0  0  0  0  0
  199.3617  183.6210  158.3742 C   0  0  0  0  0  0  0  0  0  0  0  0
  196.8320  183.8089  156.8898 C   0  0  1  0  0  0  0  0  0  0  0  0
  196.3596  183.5217  158.2543 C   0  0  0  0  0  0  0  0  0  0  0  0
  195.9963  183.3038  159.3289 N   0  0  0  0  0  0  0  0  0  0  0  0
  197.1382  185.3143  156.6522 C   0  0  2  0  0  0  0  0  0  0  0  0
  197.3491  180.6994  155.5501 C   0  0  0  0  0  0  0  0  0  0  0  0
  197.0774  179.8309  154.5567 N   0  0  0  0  0  0  0  0  0  0  0  0
  196.9692  180.2727  153.2802 C   0  0  0  0  0  0  0  0  0  0  0  0
  197.1618  181.6394  152.9628 C   0  0  0  0  0  0  0  0  0  0  0  0
  197.0246  182.0374  151.6127 C   0  0  0  0  0  0  0  0  0  0  0  0
  196.7513  181.1215  150.5858 C   0  0  0  0  0  0  0  0  0  0  0  0
  196.5589  179.7716  150.9011 C   0  0  0  0  0  0  0  0  0  0  0  0
  196.6720  179.3611  152.2423 C   0  0  0  0  0  0  0  0  0  0  0  0
  200.8784  186.0548  148.4192 H   0  0  0  0  0  0  0  0  0  0  0  0
  200.7744  186.2843  150.8446 H   0  0  0  0  0  0  0  0  0  0  0  0
  196.6354  185.0737  150.7778 H   0  0  0  0  0  0  0  0  0  0  0  0
  196.7671  184.7726  148.3475 H   0  0  0  0  0  0  0  0  0  0  0  0
  197.5827  186.2445  152.8057 H   0  0  0  0  0  0  0  0  0  0  0  0
  200.3223  187.6386  154.9343 H   0  0  0  0  0  0  0  0  0  0  0  0
  199.8775  185.9545  155.0080 H   0  0  0  0  0  0  0  0  0  0  0  0
  198.6252  187.2117  154.9603 H   0  0  0  0  0  0  0  0  0  0  0  0
  200.0830  188.9242  153.0072 H   0  0  0  0  0  0  0  0  0  0  0  0
  198.3490  188.5975  152.9265 H   0  0  0  0  0  0  0  0  0  0  0  0
  199.3876  188.2926  151.5428 H   0  0  0  0  0  0  0  0  0  0  0  0
  196.9244  184.5409  154.0148 H   0  0  0  0  0  0  0  0  0  0  0  0
  199.9861  181.2616  155.9791 H   0  0  0  0  0  0  0  0  0  0  0  0
  202.0898  181.0879  157.2811 H   0  0  0  0  0  0  0  0  0  0  0  0
  202.4785  182.5952  159.2437 H   0  0  0  0  0  0  0  0  0  0  0  0
  200.7072  184.2172  159.9104 H   0  0  0  0  0  0  0  0  0  0  0  0
  198.6559  184.3029  158.8155 H   0  0  0  0  0  0  0  0  0  0  0  0
  195.9765  183.5644  156.2641 H   0  0  0  0  0  0  0  0  0  0  0  0
  196.3238  185.9540  156.9886 H   0  0  0  0  0  0  0  0  0  0  0  0
  197.2525  185.5262  155.5891 H   0  0  0  0  0  0  0  0  0  0  0  0
  198.0213  185.7395  157.1359 H   0  0  0  0  0  0  0  0  0  0  0  0
  197.4086  180.2698  156.5436 H   0  0  0  0  0  0  0  0  0  0  0  0
  197.1653  183.0605  151.3323 H   0  0  0  0  0  0  0  0  0  0  0  0
  196.7084  181.4568  149.5627 H   0  0  0  0  0  0  0  0  0  0  0  0
  196.3560  179.0518  150.1203 H   0  0  0  0  0  0  0  0  0  0  0  0
  196.5383  178.3247  152.4935 H   0  0  0  0  0  0  0  0  0  0  0  0
  1  2  1  0
  2  3  1  0
  2  7  2  0
  3  4  2  0
  3 36  1  0
  4  5  1  0
  4 37  1  0
  5  6  2  0
  5  8  1  0
  6  7  1  0
  6 38  1  0
  7 39  1  0
  8  9  1  0
  8 12  1  0
  8 40  1  6
  9 10  1  0
  9 11  1  0
 10 41  1  6
 10 42  1  0
 10 43  1  0
 11 44  1  1
 11 45  1  0
 11 46  1  0
 12 13  2  0
 12 14  1  0
 14 15  1  0
 14 47  1  0
 15 16  2  0
 15 31  1  0
 16 17  1  0
 16 28  1  0
 17 18  1  0
 17 24  1  0
 18 19  2  0
 18 23  1  0
 19 20  1  0
 19 48  1  0
 20 21  2  0
 20 49  1  0
 21 22  1  0
 21 50  1  0
 22 23  2  0
 22 51  1  0
 23 52  1  0
 24 25  1  0
 24 27  1  0
 24 53  1  6
 25 26  3  0
 27 54  1  1
 27 55  1  0
 27 56  1  0
 28 29  2  0
 28 57  1  0
 29 30  1  0
 30 31  1  0
 30 35  2  0
 31 32  2  0
 32 33  1  0
 32 58  1  0
 33 34  2  0
 33 59  1  0
 34 35  1  0
 34 60  1  0
 35 61  1  0
M  END
>  <s_epik_cmdline>  (311) 
J2VwaWtfcHl0aG9uJywgJy1waCcsICc3LjAwMDAwMCcsICctcGh0JywgJzIuMDAwMDAwJywgJy1tcycsICcxNicsICctdG4nLCAnOCcsICctbWEnLCAnMjAwJywgJy1pbWFlJywgJzxpbmZpbGUubWFlPicsICctb21hZScsICc8b3V0ZmlsZS5tYWU+Jw==

>  <s_epik_input>  (311) 
Q2xjMVtjSF1bY0hdYyhbY0hdW2NIXTEpW0NASF0oTihbQ0gzXSlbQ0gzXSlDKD1PKVtOSF1jKGMoYzIzKVtjSF1bY0hdW2NIXVtjSF0zKWMoW2NIXW4yKU4oW0NAQEhdKEMjTilbQ0gzXSljNFtjSF1bY0hdW2NIXVtjSF1bY0hdNA==

>  <s_i_glide_gridfile>  (311) 
ATP-Grid

>  <s_lp_Force_Field>  (311) 
OPLS_2005

>  <s_lp_Variant>  (311) 
rxn502b____EMOL331054254____EMOL13728749____EMOL36790511-2

>  <s_lp_label>  (311) 
2660_sdstereoexpander_2_neutralizer_1_epik_1_stereoizer_1

>  <s_m_source_file>  (311) 
ATP-VSW-LIGPREP-002-in.maegz

>  <s_sd_BIOSOLVEIT.INFINISEE\_QUERY\_NAME>  (311) 
Ref-Lig

>  <s_sd_BIOSOLVEIT.INFINISEE\_QUERY\_SMILES>  (311) 
S(c1nc2c(cc1C[NH2+]Cc3ccc(cc3)C[NH+](C)C)cccc2)Cc4ccccc4

>  <s_sd_BIOSOLVEIT.INFINISEE\_REACTION\_NAME>  (311) 
rxn502b

>  <s_sd_BIOSOLVEIT.INFINISEE\_REAGENT1\_NAME>  (311) 
EMOL331054254

>  <s_sd_BIOSOLVEIT.INFINISEE\_REAGENT1\_SMILES>  (311) 
Clc1ccc(cc1)C(N(C)C)C(=O)O

>  <s_sd_BIOSOLVEIT.INFINISEE\_REAGENT2\_NAME>  (311) 
EMOL13728749

>  <s_sd_BIOSOLVEIT.INFINISEE\_REAGENT2\_SMILES>  (311) 
Brc1c(N)c2c(nc1)cccc2

>  <s_sd_BIOSOLVEIT.INFINISEE\_REAGENT3\_NAME>  (311) 
EMOL36790511

>  <s_sd_BIOSOLVEIT.INFINISEE\_REAGENT3\_SMILES>  (311) 
N#CC(Nc1ccccc1)C

>  <s_sd_BIOSOLVEIT.INFINISEE\_SPACE>  (311) 
eXplore_7tr_2022-12

>  <s_vsw_compound_code>  (311) 
85090

>  <s_vsw_variant>  (311) 
85090-2

>  <r_epik_Charging_Adjusted_Penalty>  (311) 
0.113027946804136

>  <r_epik_Ionization_Penalty>  (311) 
0.1174

>  <r_epik_Ionization_Penalty_Charging>  (311) 
0

>  <r_epik_Ionization_Penalty_Neutral>  (311) 
0.1174

>  <r_epik_State_Penalty>  (311) 
0.113

>  <r_i_docking_score>  (311) 
-3.2895630535720999

>  <r_i_glide_ecoul>  (311) 
-0.45562571287155201

>  <r_i_glide_eff_state_penalty>  (311) 
0.113

>  <r_i_glide_einternal>  (311) 
7.0937414169311497

>  <r_i_glide_emodel>  (311) 
-42.822344306594601

>  <r_i_glide_energy>  (311) 
-37.978456676006303

>  <r_i_glide_erotb>  (311) 
0.43340268593952702

>  <r_i_glide_esite>  (311) 
-0.043566184889128799

>  <r_i_glide_evdw>  (311) 
-37.522830963134801

>  <r_i_glide_gscore>  (311) 
-3.4025630535720999

>  <r_i_glide_hbond>  (311) 
0

>  <r_i_glide_ligand_efficiency>  (311) 
-0.093987515816345804

>  <r_i_glide_ligand_efficiency_ln>  (311) 
-0.72213209817748802

>  <r_i_glide_ligand_efficiency_sa>  (311) 
-0.30743939620081501

>  <r_i_glide_lipo>  (311) 
-1.73869226476758

>  <r_i_glide_metal>  (311) 
-0

>  <r_i_glide_rewards>  (311) 
-0.109221884767449

>  <r_lp_Energy>  (311) 
42.685696

>  <r_qp_ACxDN^.5/SA>  (311) 
0.0105039

>  <r_qp_CIQPlogS>  (311) 
-7.3170000000000002

>  <r_qp_EA(eV)>  (311) 
1.3089999999999999

>  <r_qp_FISA>  (311) 
79.638999999999996

>  <r_qp_FOSA>  (311) 
203.506

>  <r_qp_IP(eV)>  (311) 
8.3989999999999991

>  <r_qp_Jm>  (311) 
0.00330330099975108

>  <r_qp_PISA>  (311) 
373.18599999999998

>  <r_qp_PSA>  (311) 
69.417000000000002

>  <r_qp_PercentHumanOralAbsorption>  (311) 
100

>  <r_qp_QPPCaco>  (311) 
434.09500000000003

>  <r_qp_QPPMDCK>  (311) 
459.733

>  <r_qp_QPlogBB>  (311) 
-0.11600000000000001

>  <r_qp_QPlogHERG>  (311) 
-6.4859999999999998

>  <r_qp_QPlogKhsa>  (311) 
0.61499999999999999

>  <r_qp_QPlogKp>  (311) 
-2.9670000000000001

>  <r_qp_QPlogPC16>  (311) 
14.989000000000001

>  <r_qp_QPlogPo/w>  (311) 
4.5380000000000003

>  <r_qp_QPlogPoct>  (311) 
22.497

>  <r_qp_QPlogPw>  (311) 
11.625

>  <r_qp_QPlogS>  (311) 
-5.1989999999999998

>  <r_qp_QPpolrz>  (311) 
48.405999999999999

>  <r_qp_SASA>  (311) 
714.01700000000005

>  <r_qp_SAamideO>  (311) 
0

>  <r_qp_SAfluorine>  (311) 
0

>  <r_qp_WPSA>  (311) 
57.686

>  <r_qp_accptHB>  (311) 
7.5

>  <r_qp_dip^2/V>  (311) 
0.040696400000000001

>  <r_qp_dipole>  (311) 
7.5549999999999997

>  <r_qp_donorHB>  (311) 
1

>  <r_qp_glob>  (311) 
0.84869349999999999

>  <r_qp_mol_MW>  (311) 
483.99900000000002

>  <r_qp_volume>  (311) 
1402.626

>  <r_sd_BIOSOLVEIT.INFINISEE\_FTREES\_SIMILARITY>  (311) 
0.91000000000000003

>  <r_sd_BIOSOLVEIT.LOGP>  (311) 
4.7626799999999996

>  <r_sd_BIOSOLVEIT.MOLECULAR\_WEIGHT>  (311) 
485.00799999999998

>  <r_sd_BIOSOLVEIT.TPSA>  (311) 
73.459999999999994

>  <i_epik_Tot_Q>  (311) 
0

>  <i_epik_Tot_abs_Q>  (311) 
0

>  <i_f3d_flags>  (311) 
0

>  <i_i_glide_confnum>  (311) 
6

>  <i_i_glide_lignum>  (311) 
1263

>  <i_i_glide_posenum>  (311) 
10

>  <i_i_glide_rotatable_bonds>  (311) 
8

>  <i_lp_mmshare_version>  (311) 
65135

>  <i_m_ct_format>  (311) 
2

>  <i_m_source_file_index>  (311) 
2660

>  <i_qp_#NandO>  (311) 
6

>  <i_qp_#acid>  (311) 
0

>  <i_qp_#amide>  (311) 
0

>  <i_qp_#amidine>  (311) 
0

>  <i_qp_#amine>  (311) 
1

>  <i_qp_#in34>  (311) 
0

>  <i_qp_#in56>  (311) 
22

>  <i_qp_#metab>  (311) 
6

>  <i_qp_#nonHatm>  (311) 
35

>  <i_qp_#noncon>  (311) 
0

>  <i_qp_#ringatoms>  (311) 
22

>  <i_qp_#rotor>  (311) 
8

>  <i_qp_#rtvFG>  (311) 
0

>  <i_qp_#stars>  (311) 
0

>  <i_qp_CNS>  (311) 
1

>  <i_qp_HumanOralAbsorption>  (311) 
3

>  <i_qp_RuleOfFive>  (311) 
0

>  <i_qp_RuleOfThree>  (311) 
0

>  <i_sd_BIOSOLVEIT.INFINISEE\_RESULT\_RANK>  (311) 
47778

>  <i_sd_version>  (311) 
0

>  <b_lp_Chiralities_Consistent>  (311) 
1

>  <b_sd_chiral_flag>  (311) 
0

>  <canonical_id>  (311) 
ATP-HTVS-327AC6849941

>  <compound_code>  (311) 
85090

>  <title>  (311) 
rxn502b____EMOL331054254____EMOL13728749____EMOL36790511

>  <variant>  (311) 
85090-2

>  <source_file>  (311) 
运行/运行/ATP-VSW/ATP-VSW-DOCK_HTVS_1-002_lib.maegz

>  <canonical_smiles>  (311) 
C[C@H](C#N)N(c1ccccc1)c1cnc2ccccc2c1NC(=O)[C@H](c1ccc(Cl)cc1)N(C)C

>  <scaffold>  (311) 
O=C(Cc1ccccc1)Nc1c(Nc2ccccc2)cnc2ccccc12

>  <molecular_formula>  (311) 
C28H26ClN5O

$$$$
ATP-HTVS-32D1D0195572
     RDKit          3D

 58 60  0  0  0  0  0  0  0  0999 V2000
  198.2989  177.9765  149.6683 F   0  0  0  0  0  0  0  0  0  0  0  0
  197.7878  179.1020  150.2191 C   0  0  0  0  0  0  0  0  0  0  0  0
  197.7161  180.2867  149.4608 C   0  0  0  0  0  0  0  0  0  0  0  0
  197.1786  181.4549  150.0313 C   0  0  0  0  0  0  0  0  0  0  0  0
  196.7186  181.4441  151.3620 C   0  0  0  0  0  0  0  0  0  0  0  0
  196.7925  180.2570  152.1212 C   0  0  0  0  0  0  0  0  0  0  0  0
  197.3305  179.0898  151.5502 C   0  0  0  0  0  0  0  0  0  0  0  0
  196.1318  182.6958  151.9718 C   0  0  1  0  0  0  0  0  0  0  0  0
  197.2032  183.7965  152.1122 C   0  0  0  0  0  0  0  0  0  0  0  0
  197.3659  184.5677  151.1714 O   0  0  0  0  0  0  0  0  0  0  0  0
  197.9143  183.8908  153.2713 N   0  0  0  0  0  0  0  0  0  0  0  0
  198.8342  184.9477  153.5023 C   0  0  0  0  0  0  0  0  0  0  0  0
  198.6493  185.9144  154.5516 C   0  0  0  0  0  0  0  0  0  0  0  0
  197.5318  185.8756  155.3969 N   0  0  0  0  0  0  0  0  0  0  0  0
  197.3486  186.7771  156.5406 C   0  0  1  0  0  0  0  0  0  0  0  0
  196.7720  186.0887  157.7796 C   0  0  0  0  0  0  0  0  0  0  0  0
  196.9260  184.7071  157.9706 C   0  0  0  0  0  0  0  0  0  0  0  0
  196.3000  184.0525  159.0362 C   0  0  0  0  0  0  0  0  0  0  0  0
  195.6507  184.8114  160.0237 C   0  0  0  0  0  0  0  0  0  0  0  0
  195.5690  186.2178  159.9067 C   0  0  0  0  0  0  0  0  0  0  0  0
  196.1097  186.8682  158.7707 C   0  0  0  0  0  0  0  0  0  0  0  0
  196.3474  182.5101  159.1345 C   0  0  1  0  0  0  0  0  0  0  0  0
  195.5677  181.8323  158.0744 N   0  0  2  0  0  0  0  0  0  0  0  0
  195.9971  182.0808  156.7201 C   0  0  2  0  0  0  0  0  0  0  0  0
  194.0972  181.9780  158.1902 C   0  0  2  0  0  0  0  0  0  0  0  0
  199.6773  186.8882  154.6938 C   0  0  0  0  0  0  0  0  0  0  0  0
  200.7897  186.9339  153.9389 N   0  0  0  0  0  0  0  0  0  0  0  0
  200.9448  186.0019  152.9683 C   0  0  0  0  0  0  0  0  0  0  0  0
  199.9958  184.9989  152.7215 C   0  0  0  0  0  0  0  0  0  0  0  0
  197.6064  183.0327  154.3893 C   0  0  2  0  0  0  0  0  0  0  0  0
  198.0720  180.2992  148.4411 H   0  0  0  0  0  0  0  0  0  0  0  0
  197.1200  182.3616  149.4458 H   0  0  0  0  0  0  0  0  0  0  0  0
  196.4399  180.2309  153.1419 H   0  0  0  0  0  0  0  0  0  0  0  0
  197.3921  178.1859  152.1312 H   0  0  0  0  0  0  0  0  0  0  0  0
  195.3364  183.0818  151.3323 H   0  0  0  0  0  0  0  0  0  0  0  0
  195.6428  182.4192  152.9011 H   0  0  0  0  0  0  0  0  0  0  0  0
  196.9050  185.0815  155.3313 H   0  0  0  0  0  0  0  0  0  0  0  0
  198.2859  187.2147  156.8667 H   0  0  0  0  0  0  0  0  0  0  0  0
  196.6858  187.5889  156.2332 H   0  0  0  0  0  0  0  0  0  0  0  0
  197.5052  184.1220  157.2481 H   0  0  0  0  0  0  0  0  0  0  0  0
  195.1957  184.3333  160.8811 H   0  0  0  0  0  0  0  0  0  0  0  0
  195.0753  186.8140  160.6775 H   0  0  0  0  0  0  0  0  0  0  0  0
  196.0249  187.9386  158.6659 H   0  0  0  0  0  0  0  0  0  0  0  0
  197.3934  182.2090  159.0919 H   0  0  0  0  0  0  0  0  0  0  0  0
  195.9731  182.2128  160.1068 H   0  0  0  0  0  0  0  0  0  0  0  0
  195.7647  183.1325  156.4868 H   0  0  0  0  0  0  0  0  0  0  0  0
  195.5563  181.4056  155.9795 H   0  0  0  0  0  0  0  0  0  0  0  0
  197.0788  181.9515  156.6598 H   0  0  0  0  0  0  0  0  0  0  0  0
  193.8266  183.0321  158.0838 H   0  0  0  0  0  0  0  0  0  0  0  0
  193.7326  181.6037  159.1400 H   0  0  0  0  0  0  0  0  0  0  0  0
  193.6097  181.4298  157.3932 H   0  0  0  0  0  0  0  0  0  0  0  0
  199.6233  187.6624  155.4495 H   0  0  0  0  0  0  0  0  0  0  0  0
  201.8432  186.0622  152.3702 H   0  0  0  0  0  0  0  0  0  0  0  0
  200.1636  184.2553  151.9471 H   0  0  0  0  0  0  0  0  0  0  0  0
  198.2554  183.2387  155.2523 H   0  0  0  0  0  0  0  0  0  0  0  0
  197.7195  181.9652  154.1617 H   0  0  0  0  0  0  0  0  0  0  0  0
  196.5917  183.2591  154.7028 H   0  0  0  0  0  0  0  0  0  0  0  0
  195.7184  180.8021  158.1725 H   0  0  0  0  0  0  0  0  0  0  0  0
  1  2  1  0
  2  3  1  0
  2  7  2  0
  3  4  2  0
  3 31  1  0
  4  5  1  0
  4 32  1  0
  5  6  2  0
  5  8  1  0
  6  7  1  0
  6 33  1  0
  7 34  1  0
  8  9  1  0
  8 35  1  6
  8 36  1  0
  9 10  2  0
  9 11  1  0
 11 12  1  0
 11 30  1  0
 12 13  1  0
 12 29  2  0
 13 14  1  0
 13 26  2  0
 14 15  1  0
 14 37  1  0
 15 16  1  0
 15 38  1  1
 15 39  1  0
 16 17  2  0
 16 21  1  0
 17 18  1  0
 17 40  1  0
 18 19  2  0
 18 22  1  0
 19 20  1  0
 19 41  1  0
 20 21  2  0
 20 42  1  0
 21 43  1  0
 22 23  1  0
 22 44  1  1
 22 45  1  0
 23 24  1  0
 23 25  1  0
 23 58  1  1
 24 46  1  6
 24 47  1  0
 24 48  1  0
 25 49  1  6
 25 50  1  0
 25 51  1  0
 26 27  1  0
 26 52  1  0
 27 28  2  0
 28 29  1  0
 28 53  1  0
 29 54  1  0
 30 55  1  1
 30 56  1  0
 30 57  1  0
M  CHG  1  23   1
M  END
>  <s_epik_cmdline>  (312) 
J2VwaWtfcHl0aG9uJywgJy1waCcsICc3LjAwMDAwMCcsICctcGh0JywgJzIuMDAwMDAwJywgJy1tcycsICcxNicsICctdG4nLCAnOCcsICctbWEnLCAnMjAwJywgJy1pbWFlJywgJzxpbmZpbGUubWFlPicsICctb21hZScsICc8b3V0ZmlsZS5tYWU+Jw==

>  <s_epik_input>  (312) 
RmMxW2NIXVtjSF1jKFtjSF1bY0hdMSlbQ0gyXUMoPU8pTihbQ0gzXSljMmMoW2NIXW5bY0hdW2NIXTIpW05IXVtDSDJdYzNbY0hdYyhbY0hdW2NIXVtjSF0zKVtDSDJdTihbQ0gzXSlbQ0gzXQ==

>  <s_i_glide_gridfile>  (312) 
ATP-Grid

>  <s_lp_Force_Field>  (312) 
OPLS_2005

>  <s_lp_Variant>  (312) 
rxn502a____EMOL512495____EMOL81846330____EMOL2873214-1

>  <s_lp_label>  (312) 
2796_sdstereoexpander_1_neutralizer_1_epik_1_stereoizer_1

>  <s_m_source_file>  (312) 
ATP-VSW-LIGPREP-003-in.maegz

>  <s_sd_BIOSOLVEIT.INFINISEE\_QUERY\_NAME>  (312) 
Ref-Lig

>  <s_sd_BIOSOLVEIT.INFINISEE\_QUERY\_SMILES>  (312) 
S(c1nc2c(cc1C[NH2+]Cc3ccc(cc3)C[NH+](C)C)cccc2)Cc4ccccc4

>  <s_sd_BIOSOLVEIT.INFINISEE\_REACTION\_NAME>  (312) 
rxn502a

>  <s_sd_BIOSOLVEIT.INFINISEE\_REAGENT1\_NAME>  (312) 
EMOL512495

>  <s_sd_BIOSOLVEIT.INFINISEE\_REAGENT1\_SMILES>  (312) 
Fc1ccc(cc1)CC(=O)O

>  <s_sd_BIOSOLVEIT.INFINISEE\_REAGENT2\_NAME>  (312) 
EMOL81846330

>  <s_sd_BIOSOLVEIT.INFINISEE\_REAGENT2\_SMILES>  (312) 
Ic1c(NC)ccnc1

>  <s_sd_BIOSOLVEIT.INFINISEE\_REAGENT3\_NAME>  (312) 
EMOL2873214

>  <s_sd_BIOSOLVEIT.INFINISEE\_REAGENT3\_SMILES>  (312) 
N(Cc1cc(ccc1)CN)(C)C

>  <s_sd_BIOSOLVEIT.INFINISEE\_SPACE>  (312) 
eXplore_7tr_2022-12

>  <s_vsw_compound_code>  (312) 
89443

>  <s_vsw_variant>  (312) 
89443-1

>  <r_epik_Charging_Adjusted_Penalty>  (312) 
0.12270940587559

>  <r_epik_Ionization_Penalty>  (312) 
0.078600000000000003

>  <r_epik_Ionization_Penalty_Charging>  (312) 
0.0441

>  <r_epik_Ionization_Penalty_Neutral>  (312) 
0.034500000000000003

>  <r_epik_State_Penalty>  (312) 
0.078600000000000003

>  <r_i_docking_score>  (312) 
-5.0177488518611799

>  <r_i_glide_ecoul>  (312) 
-9.0430049896240199

>  <r_i_glide_eff_state_penalty>  (312) 
0.078600000000000003

>  <r_i_glide_einternal>  (312) 
7.7137193679809597

>  <r_i_glide_emodel>  (312) 
-57.1883471842104

>  <r_i_glide_energy>  (312) 
-41.236104965209996

>  <r_i_glide_erotb>  (312) 
0.82926495238963205

>  <r_i_glide_esite>  (312) 
-0.118178560481718

>  <r_i_glide_evdw>  (312) 
-32.193099975585902

>  <r_i_glide_gscore>  (312) 
-5.0963488518611797

>  <r_i_glide_hbond>  (312) 
-0.20000000000000001

>  <r_i_glide_ligand_efficiency>  (312) 
-0.16725829506203899

>  <r_i_glide_ligand_efficiency_ln>  (312) 
-1.1400872118955401

>  <r_i_glide_ligand_efficiency_sa>  (312) 
-0.51971041071797797

>  <r_i_glide_lipo>  (312) 
-1.65081490789567

>  <r_i_glide_metal>  (312) 
-0

>  <r_i_glide_rewards>  (312) 
-0.99051458865052

>  <r_lp_Energy>  (312) 
35.264963000000002

>  <r_lp_tautomer_probability>  (312) 
0.999999999999999

>  <r_qp_ACxDN^.5/SA>  (312) 
0.0113454

>  <r_qp_CIQPlogS>  (312) 
-4.5039999999999996

>  <r_qp_EA(eV)>  (312) 
0.20100000000000001

>  <r_qp_FISA>  (312) 
63.758000000000003

>  <r_qp_FOSA>  (312) 
251.005

>  <r_qp_IP(eV)>  (312) 
8.4250000000000007

>  <r_qp_Jm>  (312) 
0.30264041990365198

>  <r_qp_PISA>  (312) 
304.298

>  <r_qp_PSA>  (312) 
53.243000000000002

>  <r_qp_PercentHumanOralAbsorption>  (312) 
100

>  <r_qp_QPPCaco>  (312) 
614.02300000000002

>  <r_qp_QPPMDCK>  (312) 
548.74300000000005

>  <r_qp_QPlogBB>  (312) 
0.0089999999999999993

>  <r_qp_QPlogHERG>  (312) 
-5.9610000000000003

>  <r_qp_QPlogKhsa>  (312) 
0.28499999999999998

>  <r_qp_QPlogKp>  (312) 
-2.9169999999999998

>  <r_qp_QPlogPC16>  (312) 
12.612

>  <r_qp_QPlogPo/w>  (312) 
3.722

>  <r_qp_QPlogPoct>  (312) 
20.366

>  <r_qp_QPlogPw>  (312) 
10.916

>  <r_qp_QPlogS>  (312) 
-3.2109999999999999

>  <r_qp_QPpolrz>  (312) 
42.700000000000003

>  <r_qp_SASA>  (312) 
661.06299999999999

>  <r_qp_SAamideO>  (312) 
0

>  <r_qp_SAfluorine>  (312) 
42.002000000000002

>  <r_qp_WPSA>  (312) 
42.002000000000002

>  <r_qp_accptHB>  (312) 
7.5

>  <r_qp_dip^2/V>  (312) 
0.051275500000000002

>  <r_qp_dipole>  (312) 
8.0899999999999999

>  <r_qp_donorHB>  (312) 
1

>  <r_qp_glob>  (312) 
0.86085650000000002

>  <r_qp_mol_MW>  (312) 
406.50200000000001

>  <r_qp_volume>  (312) 
1276.4760000000001

>  <r_sd_BIOSOLVEIT.INFINISEE\_FTREES\_SIMILARITY>  (312) 
0.90600000000000003

>  <r_sd_BIOSOLVEIT.LOGP>  (312) 
2.6827999999999999

>  <r_sd_BIOSOLVEIT.MOLECULAR\_WEIGHT>  (312) 
407.50999999999999

>  <r_sd_BIOSOLVEIT.TPSA>  (312) 
49.670000000000002

>  <i_epik_Tot_Q>  (312) 
1

>  <i_epik_Tot_abs_Q>  (312) 
1

>  <i_f3d_flags>  (312) 
0

>  <i_i_glide_confnum>  (312) 
3

>  <i_i_glide_lignum>  (312) 
1327

>  <i_i_glide_posenum>  (312) 
1

>  <i_i_glide_rotatable_bonds>  (312) 
9

>  <i_lp_mmshare_version>  (312) 
65135

>  <i_m_ct_format>  (312) 
2

>  <i_m_source_file_index>  (312) 
2796

>  <i_qp_#NandO>  (312) 
5

>  <i_qp_#acid>  (312) 
0

>  <i_qp_#amide>  (312) 
0

>  <i_qp_#amidine>  (312) 
0

>  <i_qp_#amine>  (312) 
1

>  <i_qp_#in34>  (312) 
0

>  <i_qp_#in56>  (312) 
18

>  <i_qp_#metab>  (312) 
9

>  <i_qp_#nonHatm>  (312) 
30

>  <i_qp_#noncon>  (312) 
0

>  <i_qp_#ringatoms>  (312) 
18

>  <i_qp_#rotor>  (312) 
8

>  <i_qp_#rtvFG>  (312) 
0

>  <i_qp_#stars>  (312) 
1

>  <i_qp_CNS>  (312) 
1

>  <i_qp_HumanOralAbsorption>  (312) 
3

>  <i_qp_RuleOfFive>  (312) 
0

>  <i_qp_RuleOfThree>  (312) 
1

>  <i_sd_BIOSOLVEIT.INFINISEE\_RESULT\_RANK>  (312) 
63336

>  <i_sd_version>  (312) 
0

>  <b_lp_Chiralities_Consistent>  (312) 
1

>  <b_sd_chiral_flag>  (312) 
0

>  <canonical_id>  (312) 
ATP-HTVS-32D1D0195572

>  <compound_code>  (312) 
89443

>  <title>  (312) 
rxn502a____EMOL512495____EMOL81846330____EMOL2873214

>  <variant>  (312) 
89443-1

>  <source_file>  (312) 
运行/运行/ATP-VSW/ATP-VSW-DOCK_HTVS_1-003_lib/ATP-VSW-DOCK_HTVS_1-003_lib.mae

>  <canonical_smiles>  (312) 
CN(C(=O)Cc1ccc(F)cc1)c1ccncc1NCc1cccc(C[NH+](C)C)c1

>  <scaffold>  (312) 
O=C(Cc1ccccc1)Nc1ccncc1NCc1ccccc1

>  <molecular_formula>  (312) 
C24H28FN4O+

$$$$
ATP-HTVS-33706D459A7A
     RDKit          3D

 65 69  0  0  0  0  0  0  0  0999 V2000
  201.1927  177.6099  157.7646 F   0  0  0  0  0  0  0  0  0  0  0  0
  200.5072  178.2068  156.7654 C   0  0  0  0  0  0  0  0  0  0  0  0
  200.0489  179.5221  156.9158 C   0  0  0  0  0  0  0  0  0  0  0  0
  199.2960  180.1604  155.8986 C   0  0  0  0  0  0  0  0  0  0  0  0
  199.0490  179.4557  154.6886 C   0  0  0  0  0  0  0  0  0  0  0  0
  198.3318  180.0130  153.6258 N   0  0  0  0  0  0  0  0  0  0  0  0
  199.0384  180.6156  152.5090 C   0  0  1  0  0  0  0  0  0  0  0  0
  198.4839  180.0608  151.1870 C   0  0  1  0  0  0  0  0  0  0  0  0
  196.9988  180.1577  151.1386 N   0  0  2  0  0  0  0  0  0  0  0  0
  196.3481  179.4942  152.3017 C   0  0  1  0  0  0  0  0  0  0  0  0
  196.8781  180.0551  153.6353 C   0  0  1  0  0  0  0  0  0  0  0  0
  196.4606  179.6726  149.8522 C   0  0  2  0  0  0  0  0  0  0  0  0
  199.5462  178.1436  154.5358 C   0  0  0  0  0  0  0  0  0  0  0  0
  200.2598  177.5155  155.5747 C   0  0  0  0  0  0  0  0  0  0  0  0
  198.8553  181.5859  156.0974 C   0  0  0  0  0  0  0  0  0  0  0  0
  198.9827  182.4294  155.2057 O   0  0  0  0  0  0  0  0  0  0  0  0
  198.3160  181.8426  157.3002 N   0  0  0  0  0  0  0  0  0  0  0  0
  197.9807  183.1279  157.8085 C   0  0  0  0  0  0  0  0  0  0  0  0
  198.9280  184.1913  157.8617 C   0  0  0  0  0  0  0  0  0  0  0  0
  200.2798  184.0464  157.4848 N   0  0  0  0  0  0  0  0  0  0  0  0
  201.0109  184.9326  156.6536 C   0  0  0  0  0  0  0  0  0  0  0  0
  200.3324  185.8372  155.7971 C   0  0  0  0  0  0  0  0  0  0  0  0
  201.0487  186.7236  154.9641 C   0  0  0  0  0  0  0  0  0  0  0  0
  202.4561  186.7075  154.9592 C   0  0  0  0  0  0  0  0  0  0  0  0
  203.1425  185.8083  155.7929 C   0  0  0  0  0  0  0  0  0  0  0  0
  202.4287  184.9356  156.6329 C   0  0  0  0  0  0  0  0  0  0  0  0
  201.0263  183.0724  158.2913 C   0  0  1  0  0  0  0  0  0  0  0  0
  201.5130  183.6693  159.5459 C   0  0  0  0  0  0  0  0  0  0  0  0
  201.8903  184.1386  160.5334 N   0  0  0  0  0  0  0  0  0  0  0  0
  198.4862  185.4264  158.3844 C   0  0  0  0  0  0  0  0  0  0  0  0
  197.2462  185.6507  158.8518 N   0  0  0  0  0  0  0  0  0  0  0  0
  196.3574  184.6360  158.8396 C   0  0  0  0  0  0  0  0  0  0  0  0
  196.6864  183.3480  158.3347 C   0  0  0  0  0  0  0  0  0  0  0  0
  195.7141  182.3177  158.3505 C   0  0  0  0  0  0  0  0  0  0  0  0
  194.4252  182.5624  158.8455 C   0  0  0  0  0  0  0  0  0  0  0  0
  194.0943  183.8413  159.3321 C   0  0  0  0  0  0  0  0  0  0  0  0
  195.0598  184.8607  159.3359 C   0  0  0  0  0  0  0  0  0  0  0  0
  200.3104  180.0401  157.8234 H   0  0  0  0  0  0  0  0  0  0  0  0
  198.8981  181.6930  152.5559 H   0  0  0  0  0  0  0  0  0  0  0  0
  200.1134  180.4431  152.5816 H   0  0  0  0  0  0  0  0  0  0  0  0
  198.9360  180.5826  150.3382 H   0  0  0  0  0  0  0  0  0  0  0  0
  198.7726  179.0118  151.1028 H   0  0  0  0  0  0  0  0  0  0  0  0
  195.2612  179.5976  152.2431 H   0  0  0  0  0  0  0  0  0  0  0  0
  196.5659  178.4272  152.2557 H   0  0  0  0  0  0  0  0  0  0  0  0
  196.4828  179.4964  154.4848 H   0  0  0  0  0  0  0  0  0  0  0  0
  196.5462  181.0853  153.7654 H   0  0  0  0  0  0  0  0  0  0  0  0
  196.7239  178.6268  149.7004 H   0  0  0  0  0  0  0  0  0  0  0  0
  196.8663  180.2430  149.0141 H   0  0  0  0  0  0  0  0  0  0  0  0
  195.3723  179.7603  149.8162 H   0  0  0  0  0  0  0  0  0  0  0  0
  199.3631  177.6099  153.6163 H   0  0  0  0  0  0  0  0  0  0  0  0
  200.6129  176.5015  155.4549 H   0  0  0  0  0  0  0  0  0  0  0  0
  198.0811  181.0470  157.8784 H   0  0  0  0  0  0  0  0  0  0  0  0
  199.2521  185.8600  155.7630 H   0  0  0  0  0  0  0  0  0  0  0  0
  200.5180  187.4171  154.3249 H   0  0  0  0  0  0  0  0  0  0  0  0
  203.0102  187.3852  154.3254 H   0  0  0  0  0  0  0  0  0  0  0  0
  204.2208  185.7825  155.7969 H   0  0  0  0  0  0  0  0  0  0  0  0
  203.0177  184.2792  157.2537 H   0  0  0  0  0  0  0  0  0  0  0  0
  200.4049  182.2355  158.5978 H   0  0  0  0  0  0  0  0  0  0  0  0
  201.8500  182.6227  157.7363 H   0  0  0  0  0  0  0  0  0  0  0  0
  199.1624  186.2673  158.4535 H   0  0  0  0  0  0  0  0  0  0  0  0
  195.9299  181.3324  157.9687 H   0  0  0  0  0  0  0  0  0  0  0  0
  193.6897  181.7706  158.8270 H   0  0  0  0  0  0  0  0  0  0  0  0
  193.0962  184.0428  159.6879 H   0  0  0  0  0  0  0  0  0  0  0  0
  194.7950  185.8455  159.6948 H   0  0  0  0  0  0  0  0  0  0  0  0
  196.7746  181.1423  151.2155 H   0  0  0  0  0  0  0  0  0  0  0  0
  1  2  1  0
  2  3  2  0
  2 14  1  0
  3  4  1  0
  3 38  1  0
  4  5  2  0
  4 15  1  0
  5  6  1  0
  5 13  1  0
  6  7  1  0
  6 11  1  0
  7  8  1  0
  7 39  1  6
  7 40  1  0
  8  9  1  0
  8 41  1  6
  8 42  1  0
  9 10  1  0
  9 12  1  0
  9 65  1  1
 10 11  1  0
 10 43  1  6
 10 44  1  0
 11 45  1  1
 11 46  1  0
 12 47  1  6
 12 48  1  0
 12 49  1  0
 13 14  2  0
 13 50  1  0
 14 51  1  0
 15 16  2  0
 15 17  1  0
 17 18  1  0
 17 52  1  0
 18 19  2  0
 18 33  1  0
 19 20  1  0
 19 30  1  0
 20 21  1  0
 20 27  1  0
 21 22  2  0
 21 26  1  0
 22 23  1  0
 22 53  1  0
 23 24  2  0
 23 54  1  0
 24 25  1  0
 24 55  1  0
 25 26  2  0
 25 56  1  0
 26 57  1  0
 27 28  1  0
 27 58  1  1
 27 59  1  0
 28 29  3  0
 30 31  2  0
 30 60  1  0
 31 32  1  0
 32 33  1  0
 32 37  2  0
 33 34  2  0
 34 35  1  0
 34 61  1  0
 35 36  2  0
 35 62  1  0
 36 37  1  0
 36 63  1  0
 37 64  1  0
M  CHG  1   9   1
M  END
>  <s_epik_cmdline>  (313) 
J2VwaWtfcHl0aG9uJywgJy1waCcsICc3LjAwMDAwMCcsICctcGh0JywgJzIuMDAwMDAwJywgJy1tcycsICcxNicsICctdG4nLCAnOCcsICctbWEnLCAnMjAwJywgJy1pbWFlJywgJzxpbmZpbGUubWFlPicsICctb21hZScsICc8b3V0ZmlsZS5tYWU+Jw==

>  <s_epik_input>  (313) 
W0NIMl0xW0NIMl1OKFtDSDNdKVtDSDJdW0NIMl1OMWMoW2NIXVtjSF0yKWMoW2NIXWMyRilDKD1PKVtOSF1jKGMoYzM0KVtjSF1bY0hdW2NIXVtjSF00KWMoW2NIXW4zKU4oW0NIMl1DI04pYzVbY0hdW2NIXVtjSF1bY0hdW2NIXTU=

>  <s_i_glide_gridfile>  (313) 
ATP-Grid

>  <s_lp_Force_Field>  (313) 
OPLS_2005

>  <s_lp_Variant>  (313) 
rxn502b____EMOL30151713____EMOL13728749____EMOL712348-1

>  <s_lp_label>  (313) 
2864_sdstereoexpander_1_neutralizer_1_epik_1_stereoizer_1

>  <s_m_source_file>  (313) 
ATP-VSW-LIGPREP-002-in.maegz

>  <s_sd_BIOSOLVEIT.INFINISEE\_QUERY\_NAME>  (313) 
Ref-Lig

>  <s_sd_BIOSOLVEIT.INFINISEE\_QUERY\_SMILES>  (313) 
S(c1nc2c(cc1C[NH2+]Cc3ccc(cc3)C[NH+](C)C)cccc2)Cc4ccccc4

>  <s_sd_BIOSOLVEIT.INFINISEE\_REACTION\_NAME>  (313) 
rxn502b

>  <s_sd_BIOSOLVEIT.INFINISEE\_REAGENT1\_NAME>  (313) 
EMOL30151713

>  <s_sd_BIOSOLVEIT.INFINISEE\_REAGENT1\_SMILES>  (313) 
Fc1cc(c(N2CCN(CC2)C)cc1)C(=O)O

>  <s_sd_BIOSOLVEIT.INFINISEE\_REAGENT2\_NAME>  (313) 
EMOL13728749

>  <s_sd_BIOSOLVEIT.INFINISEE\_REAGENT2\_SMILES>  (313) 
Brc1c(N)c2c(nc1)cccc2

>  <s_sd_BIOSOLVEIT.INFINISEE\_REAGENT3\_NAME>  (313) 
EMOL712348

>  <s_sd_BIOSOLVEIT.INFINISEE\_REAGENT3\_SMILES>  (313) 
N#CCNc1ccccc1

>  <s_sd_BIOSOLVEIT.INFINISEE\_SPACE>  (313) 
eXplore_7tr_2022-12

>  <s_vsw_compound_code>  (313) 
91618

>  <s_vsw_variant>  (313) 
91618-1

>  <r_epik_Charging_Adjusted_Penalty>  (313) 
0.139142692159267

>  <r_epik_Ionization_Penalty>  (313) 
0.072099999999999997

>  <r_epik_Ionization_Penalty_Charging>  (313) 
0.069599999999999995

>  <r_epik_Ionization_Penalty_Neutral>  (313) 
0.0025000000000000001

>  <r_epik_State_Penalty>  (313) 
0.069599999999999995

>  <r_i_docking_score>  (313) 
-3.5820285602422302

>  <r_i_glide_ecoul>  (313) 
-5.0761704444885298

>  <r_i_glide_eff_state_penalty>  (313) 
0.069599999999999995

>  <r_i_glide_einternal>  (313) 
3.3584558963775599

>  <r_i_glide_emodel>  (313) 
-50.317733233951898

>  <r_i_glide_energy>  (313) 
-39.449347019195599

>  <r_i_glide_erotb>  (313) 
0.49805638631555599

>  <r_i_glide_esite>  (313) 
-0.048459765863474003

>  <r_i_glide_evdw>  (313) 
-34.373176574707003

>  <r_i_glide_gscore>  (313) 
-3.65162856024223

>  <r_i_glide_hbond>  (313) 
0

>  <r_i_glide_ligand_efficiency>  (313) 
-0.0968115827092495

>  <r_i_glide_ligand_efficiency_ln>  (313) 
-0.77685802005268101

>  <r_i_glide_ligand_efficiency_sa>  (313) 
-0.32259767100789999

>  <r_i_glide_lipo>  (313) 
-1.01343032647307

>  <r_i_glide_metal>  (313) 
-0

>  <r_i_glide_rewards>  (313) 
-0.60771045881261698

>  <r_lp_Energy>  (313) 
64.429329999999993

>  <r_qp_ACxDN^.5/SA>  (313) 
0.010510500000000001

>  <r_qp_CIQPlogS>  (313) 
-7.2199999999999998

>  <r_qp_EA(eV)>  (313) 
1.3520000000000001

>  <r_qp_FISA>  (313) 
92.566999999999993

>  <r_qp_FOSA>  (313) 
237.899

>  <r_qp_IP(eV)>  (313) 
8.4139999999999997

>  <r_qp_Jm>  (313) 
5.6557006088600599e-05

>  <r_qp_PISA>  (313) 
431.30399999999997

>  <r_qp_PSA>  (313) 
75.114000000000004

>  <r_qp_PercentHumanOralAbsorption>  (313) 
100

>  <r_qp_QPPCaco>  (313) 
327.33199999999999

>  <r_qp_QPPMDCK>  (313) 
295.89499999999998

>  <r_qp_QPlogBB>  (313) 
-0.27700000000000002

>  <r_qp_QPlogHERG>  (313) 
-7.7380000000000004

>  <r_qp_QPlogKhsa>  (313) 
0.75600000000000001

>  <r_qp_QPlogKp>  (313) 
-3.1930000000000001

>  <r_qp_QPlogPC16>  (313) 
15.976000000000001

>  <r_qp_QPlogPo/w>  (313) 
4.7160000000000002

>  <r_qp_QPlogPoct>  (313) 
25.279

>  <r_qp_QPlogPw>  (313) 
13.759

>  <r_qp_QPlogS>  (313) 
-6.7489999999999997

>  <r_qp_QPpolrz>  (313) 
54.703000000000003

>  <r_qp_SASA>  (313) 
808.71199999999999

>  <r_qp_SAamideO>  (313) 
0

>  <r_qp_SAfluorine>  (313) 
46.942

>  <r_qp_WPSA>  (313) 
46.942

>  <r_qp_accptHB>  (313) 
8.5

>  <r_qp_dip^2/V>  (313) 
0.047615499999999998

>  <r_qp_dipole>  (313) 
8.4909999999999997

>  <r_qp_donorHB>  (313) 
1

>  <r_qp_glob>  (313) 
0.78847579999999995

>  <r_qp_mol_MW>  (313) 
494.56999999999999

>  <r_qp_volume>  (313) 
1514

>  <r_sd_BIOSOLVEIT.INFINISEE\_FTREES\_SIMILARITY>  (313) 
0.90500000000000003

>  <r_sd_BIOSOLVEIT.LOGP>  (313) 
3.6225800000000001

>  <r_sd_BIOSOLVEIT.MOLECULAR\_WEIGHT>  (313) 
495.57900000000001

>  <r_sd_BIOSOLVEIT.TPSA>  (313) 
76.700000000000003

>  <i_epik_Tot_Q>  (313) 
1

>  <i_epik_Tot_abs_Q>  (313) 
1

>  <i_f3d_flags>  (313) 
0

>  <i_i_glide_confnum>  (313) 
7

>  <i_i_glide_lignum>  (313) 
1420

>  <i_i_glide_posenum>  (313) 
4

>  <i_i_glide_rotatable_bonds>  (313) 
7

>  <i_lp_mmshare_version>  (313) 
65135

>  <i_m_ct_format>  (313) 
2

>  <i_m_source_file_index>  (313) 
2864

>  <i_qp_#NandO>  (313) 
7

>  <i_qp_#acid>  (313) 
0

>  <i_qp_#amide>  (313) 
0

>  <i_qp_#amidine>  (313) 
0

>  <i_qp_#amine>  (313) 
1

>  <i_qp_#in34>  (313) 
0

>  <i_qp_#in56>  (313) 
28

>  <i_qp_#metab>  (313) 
5

>  <i_qp_#nonHatm>  (313) 
37

>  <i_qp_#noncon>  (313) 
4

>  <i_qp_#ringatoms>  (313) 
28

>  <i_qp_#rotor>  (313) 
6

>  <i_qp_#rtvFG>  (313) 
0

>  <i_qp_#stars>  (313) 
1

>  <i_qp_CNS>  (313) 
1

>  <i_qp_HumanOralAbsorption>  (313) 
1

>  <i_qp_RuleOfFive>  (313) 
0

>  <i_qp_RuleOfThree>  (313) 
1

>  <i_sd_BIOSOLVEIT.INFINISEE\_RESULT\_RANK>  (313) 
70618

>  <i_sd_version>  (313) 
0

>  <b_lp_Chiralities_Consistent>  (313) 
1

>  <b_sd_chiral_flag>  (313) 
0

>  <canonical_id>  (313) 
ATP-HTVS-33706D459A7A

>  <compound_code>  (313) 
91618

>  <title>  (313) 
rxn502b____EMOL30151713____EMOL13728749____EMOL712348

>  <variant>  (313) 
91618-1

>  <source_file>  (313) 
运行/运行/ATP-VSW/ATP-VSW-DOCK_HTVS_1-002_lib.maegz

>  <canonical_smiles>  (313) 
C[NH+]1CCN(c2ccc(F)cc2C(=O)Nc2c(N(CC#N)c3ccccc3)cnc3ccccc23)CC1

>  <scaffold>  (313) 
O=C(Nc1c(Nc2ccccc2)cnc2ccccc12)c1ccccc1N1CC[NH2+]CC1

>  <molecular_formula>  (313) 
C29H28FN6O+

$$$$
ATP-HTVS-337D10985B1B
     RDKit          3D

 63 65  0  0  0  0  0  0  0  0999 V2000
  193.9485  183.9406  159.3303 Cl  0  0  0  0  0  0  0  0  0  0  0  0
  195.5760  183.6025  158.8854 C   0  0  0  0  0  0  0  0  0  0  0  0
  196.6479  184.2720  159.5110 C   0  0  0  0  0  0  0  0  0  0  0  0
  197.9754  183.9926  159.1257 C   0  0  0  0  0  0  0  0  0  0  0  0
  198.2453  183.0499  158.1039 C   0  0  0  0  0  0  0  0  0  0  0  0
  197.1530  182.4023  157.4804 C   0  0  0  0  0  0  0  0  0  0  0  0
  195.8331  182.6653  157.8754 C   0  0  0  0  0  0  0  0  0  0  0  0
  199.6349  182.7395  157.7132 C   0  0  0  0  0  0  0  0  0  0  0  0
  200.5807  183.6468  157.9218 N   0  0  0  0  0  0  0  0  0  0  0  0
  201.7255  183.0856  157.4930 N   0  0  0  0  0  0  0  0  0  0  0  0
  201.5130  181.8216  156.9948 C   0  0  0  0  0  0  0  0  0  0  0  0
  200.1763  181.5478  157.1287 C   0  0  0  0  0  0  0  0  0  0  0  0
  199.4757  180.2598  156.7709 C   0  0  1  0  0  0  0  0  0  0  0  0
  198.9987  180.3198  155.3795 N   0  0  1  0  0  0  0  0  0  0  0  0
  198.3834  179.0694  154.9018 C   0  0  1  0  0  0  0  0  0  0  0  0
  198.1071  179.1961  153.4184 C   0  0  0  0  0  0  0  0  0  0  0  0
  199.1404  178.9129  152.4972 C   0  0  0  0  0  0  0  0  0  0  0  0
  198.9285  179.0786  151.1247 C   0  0  0  0  0  0  0  0  0  0  0  0
  197.6358  179.3887  150.6251 C   0  0  0  0  0  0  0  0  0  0  0  0
  196.6065  179.6817  151.5515 C   0  0  0  0  0  0  0  0  0  0  0  0
  196.8472  179.6096  152.9406 C   0  0  0  0  0  0  0  0  0  0  0  0
  197.3789  179.4611  149.1176 C   0  0  1  0  0  0  0  0  0  0  0  0
  197.3787  178.1470  148.3918 N   0  0  2  0  0  0  0  0  0  0  0  0
  198.7020  177.4560  148.3930 C   0  0  1  0  0  0  0  0  0  0  0  0
  198.6275  175.9677  148.0212 C   0  0  2  0  0  0  0  0  0  0  0  0
  196.8055  178.2553  147.0135 C   0  0  1  0  0  0  0  0  0  0  0  0
  195.2706  178.2874  147.0068 C   0  0  2  0  0  0  0  0  0  0  0  0
  202.9691  183.8245  157.5938 C   0  0  1  0  0  0  0  0  0  0  0  0
  203.3515  184.4706  156.2570 C   0  0  1  0  0  0  0  0  0  0  0  0
  202.4091  185.5134  155.8247 C   0  0  0  0  0  0  0  0  0  0  0  0
  201.6688  186.3350  155.4815 N   0  0  0  0  0  0  0  0  0  0  0  0
  198.3090  181.0531  155.2963 H   0  0  0  0  0  0  0  0  0  0  0  0
  196.4497  185.0014  160.2816 H   0  0  0  0  0  0  0  0  0  0  0  0
  198.7835  184.5132  159.6246 H   0  0  0  0  0  0  0  0  0  0  0  0
  197.2748  181.6942  156.6849 H   0  0  0  0  0  0  0  0  0  0  0  0
  195.0255  182.1458  157.3800 H   0  0  0  0  0  0  0  0  0  0  0  0
  202.3220  181.2219  156.6041 H   0  0  0  0  0  0  0  0  0  0  0  0
  200.1462  179.4084  156.8952 H   0  0  0  0  0  0  0  0  0  0  0  0
  198.6186  180.0480  157.4117 H   0  0  0  0  0  0  0  0  0  0  0  0
  199.0719  178.2400  155.0743 H   0  0  0  0  0  0  0  0  0  0  0  0
  197.4699  178.8535  155.4626 H   0  0  0  0  0  0  0  0  0  0  0  0
  200.1017  178.5690  152.8550 H   0  0  0  0  0  0  0  0  0  0  0  0
  199.7604  178.9209  150.4513 H   0  0  0  0  0  0  0  0  0  0  0  0
  195.6259  179.9850  151.2138 H   0  0  0  0  0  0  0  0  0  0  0  0
  196.0637  179.8730  153.6388 H   0  0  0  0  0  0  0  0  0  0  0  0
  196.4078  179.9295  148.9880 H   0  0  0  0  0  0  0  0  0  0  0  0
  198.0912  180.1472  148.6596 H   0  0  0  0  0  0  0  0  0  0  0  0
  199.4045  178.0015  147.7445 H   0  0  0  0  0  0  0  0  0  0  0  0
  199.1217  177.4213  149.3782 H   0  0  0  0  0  0  0  0  0  0  0  0
  199.5997  175.5283  148.2019 H   0  0  0  0  0  0  0  0  0  0  0  0
  198.3529  175.7446  146.9878 H   0  0  0  0  0  0  0  0  0  0  0  0
  197.9294  175.4801  148.6868 H   0  0  0  0  0  0  0  0  0  0  0  0
  197.2263  179.1110  146.4885 H   0  0  0  0  0  0  0  0  0  0  0  0
  197.0768  177.4040  146.3973 H   0  0  0  0  0  0  0  0  0  0  0  0
  194.9112  178.2424  145.9740 H   0  0  0  0  0  0  0  0  0  0  0  0
  194.8636  179.2009  147.4479 H   0  0  0  0  0  0  0  0  0  0  0  0
  194.8442  177.4414  147.5506 H   0  0  0  0  0  0  0  0  0  0  0  0
  202.8762  184.5876  158.3692 H   0  0  0  0  0  0  0  0  0  0  0  0
  203.7505  183.1371  157.9203 H   0  0  0  0  0  0  0  0  0  0  0  0
  204.3358  184.9328  156.3349 H   0  0  0  0  0  0  0  0  0  0  0  0
  203.4108  183.7187  155.4693 H   0  0  0  0  0  0  0  0  0  0  0  0
  196.7529  177.5337  148.8937 H   0  0  0  0  0  0  0  0  0  0  0  0
  199.7787  180.5570  154.7827 H   0  0  0  0  0  0  0  0  0  0  0  0
  1  2  1  0
  2  3  1  0
  2  7  2  0
  3  4  2  0
  3 33  1  0
  4  5  1  0
  4 34  1  0
  5  6  2  0
  5  8  1  0
  6  7  1  0
  6 35  1  0
  7 36  1  0
  8  9  2  0
  8 12  1  0
  9 10  1  0
 10 11  1  0
 10 28  1  0
 11 12  2  0
 11 37  1  0
 12 13  1  0
 13 14  1  0
 13 38  1  6
 13 39  1  0
 14 15  1  0
 14 32  1  1
 14 63  1  0
 15 16  1  0
 15 40  1  6
 15 41  1  0
 16 17  1  0
 16 21  2  0
 17 18  2  0
 17 42  1  0
 18 19  1  0
 18 43  1  0
 19 20  2  0
 19 22  1  0
 20 21  1  0
 20 44  1  0
 21 45  1  0
 22 23  1  0
 22 46  1  1
 22 47  1  0
 23 24  1  0
 23 26  1  0
 23 62  1  1
 24 25  1  0
 24 48  1  6
 24 49  1  0
 25 50  1  1
 25 51  1  0
 25 52  1  0
 26 27  1  0
 26 53  1  6
 26 54  1  0
 27 55  1  6
 27 56  1  0
 27 57  1  0
 28 29  1  0
 28 58  1  1
 28 59  1  0
 29 30  1  0
 29 60  1  1
 29 61  1  0
 30 31  3  0
M  CHG  2  14   1  23   1
M  END
>  <s_epik_cmdline>  (314) 
J2VwaWtfcHl0aG9uJywgJy1waCcsICc3LjAwMDAwMCcsICctcGh0JywgJzIuMDAwMDAwJywgJy1tcycsICcxNicsICctdG4nLCAnOCcsICctbWEnLCAnMjAwJywgJy1pbWFlJywgJzxpbmZpbGUubWFlPicsICctb21hZScsICc8b3V0ZmlsZS5tYWU+Jw==

>  <s_epik_input>  (314) 
Q2xjMVtjSF1bY0hdYyhbY0hdW2NIXTEpLWMybm4oW0NIMl1bQ0gyXUMjTilbY0hdYzJbQ0gyXVtOSF1bQ0gyXWMzW2NIXVtjSF1jKFtjSF1bY0hdMylbQ0gyXU4oW0NIMl1bQ0gzXSlbQ0gyXVtDSDNd

>  <s_i_glide_gridfile>  (314) 
ATP-Grid

>  <s_lp_Force_Field>  (314) 
OPLS_2005

>  <s_lp_Variant>  (314) 
m_270004bbb____8288962____24714838-1

>  <s_lp_label>  (314) 
1473_sdstereoexpander_1_neutralizer_1_epik_1_stereoizer_1

>  <s_m_source_file>  (314) 
ATP-VSW-LIGPREP-002-in.maegz

>  <s_sd_BIOSOLVEIT.INFINISEE\_QUERY\_NAME>  (314) 
Ref-Lig

>  <s_sd_BIOSOLVEIT.INFINISEE\_QUERY\_SMILES>  (314) 
S(c1nc2c(cc1C[NH2+]Cc3ccc(cc3)C[NH+](C)C)cccc2)Cc4ccccc4

>  <s_sd_BIOSOLVEIT.INFINISEE\_REACTION\_NAME>  (314) 
m_270004bbb

>  <s_sd_BIOSOLVEIT.INFINISEE\_REAGENT1\_SMILES>  (314) 
[R1*]NCc1ccc(cc1)CN(CC)CC

>  <s_sd_BIOSOLVEIT.INFINISEE\_REAGENT2\_SMILES>  (314) 
[R1*]CC=1C(=NN(C1)CCC#N)c2ccc(Cl)cc2

>  <s_sd_BIOSOLVEIT.INFINISEE\_SPACE>  (314) 
REALSpace_44bn_2023-08

>  <s_vsw_compound_code>  (314) 
47106

>  <s_vsw_variant>  (314) 
47106-1

>  <r_epik_Charging_Adjusted_Penalty>  (314) 
0.24944537632563901

>  <r_epik_Ionization_Penalty>  (314) 
0.1244

>  <r_epik_Ionization_Penalty_Charging>  (314) 
0.1244

>  <r_epik_Ionization_Penalty_Neutral>  (314) 
0

>  <r_epik_State_Penalty>  (314) 
0.12509999999999999

>  <r_i_docking_score>  (314) 
-3.8404413812961198

>  <r_i_glide_ecoul>  (314) 
-8.7013330459594709

>  <r_i_glide_eff_state_penalty>  (314) 
0.12509999999999999

>  <r_i_glide_einternal>  (314) 
2.82613205909729

>  <r_i_glide_emodel>  (314) 
-51.079770422033597

>  <r_i_glide_energy>  (314) 
-38.847064018249498

>  <r_i_glide_erotb>  (314) 
0.83173636647883797

>  <r_i_glide_esite>  (314) 
-0.026684691399087201

>  <r_i_glide_evdw>  (314) 
-30.14573097229

>  <r_i_glide_gscore>  (314) 
-3.96554138129612

>  <r_i_glide_hbond>  (314) 
0

>  <r_i_glide_ligand_efficiency>  (314) 
-0.123885205848262

>  <r_i_glide_ligand_efficiency_ln>  (314) 
-0.86613722687593098

>  <r_i_glide_ligand_efficiency_sa>  (314) 
-0.38917058832378698

>  <r_i_glide_lipo>  (314) 
-1.5341142321171199

>  <r_i_glide_metal>  (314) 
-0

>  <r_i_glide_rewards>  (314) 
-0.42399231875033

>  <r_lp_Energy>  (314) 
19.035598

>  <r_lp_tautomer_probability>  (314) 
1

>  <r_qp_ACxDN^.5/SA>  (314) 
0.0078974000000000006

>  <r_qp_CIQPlogS>  (314) 
-5.4000000000000004

>  <r_qp_EA(eV)>  (314) 
0.26700000000000002

>  <r_qp_FISA>  (314) 
79.947999999999993

>  <r_qp_FOSA>  (314) 
398.63499999999999

>  <r_qp_IP(eV)>  (314) 
8.8949999999999996

>  <r_qp_Jm>  (314) 
4.5444613617621096e-06

>  <r_qp_PISA>  (314) 
272.81700000000001

>  <r_qp_PSA>  (314) 
59.430999999999997

>  <r_qp_PercentHumanOralAbsorption>  (314) 
91.846999999999994

>  <r_qp_QPPCaco>  (314) 
107.536

>  <r_qp_QPPMDCK>  (314) 
134.23099999999999

>  <r_qp_QPlogBB>  (314) 
-0.035000000000000003

>  <r_qp_QPlogHERG>  (314) 
-8.0730000000000004

>  <r_qp_QPlogKhsa>  (314) 
0.89000000000000001

>  <r_qp_QPlogKp>  (314) 
-5.101

>  <r_qp_QPlogPC16>  (314) 
15.491

>  <r_qp_QPlogPo/w>  (314) 
4.8739999999999997

>  <r_qp_QPlogPoct>  (314) 
21.289000000000001

>  <r_qp_QPlogPw>  (314) 
9.5649999999999995

>  <r_qp_QPlogS>  (314) 
-5.8810000000000002

>  <r_qp_QPpolrz>  (314) 
48.945

>  <r_qp_SASA>  (314) 
823.053

>  <r_qp_SAamideO>  (314) 
0

>  <r_qp_SAfluorine>  (314) 
0

>  <r_qp_WPSA>  (314) 
71.653999999999996

>  <r_qp_accptHB>  (314) 
6.5

>  <r_qp_dip^2/V>  (314) 
0.018262899999999999

>  <r_qp_dipole>  (314) 
5.2130000000000001

>  <r_qp_donorHB>  (314) 
1

>  <r_qp_glob>  (314) 
0.76590179999999997

>  <r_qp_mol_MW>  (314) 
435.99799999999999

>  <r_qp_volume>  (314) 
1488.175

>  <r_sd_BIOSOLVEIT.INFINISEE\_FTREES\_SIMILARITY>  (314) 
0.90700000000000003

>  <r_sd_BIOSOLVEIT.LOGP>  (314) 
2.8054800000000002

>  <r_sd_BIOSOLVEIT.MOLECULAR\_WEIGHT>  (314) 
438.01600000000002

>  <r_sd_BIOSOLVEIT.TPSA>  (314) 
62.659999999999997

>  <i_epik_Tot_Q>  (314) 
2

>  <i_epik_Tot_abs_Q>  (314) 
2

>  <i_f3d_flags>  (314) 
0

>  <i_i_glide_confnum>  (314) 
3

>  <i_i_glide_lignum>  (314) 
504

>  <i_i_glide_posenum>  (314) 
6

>  <i_i_glide_rotatable_bonds>  (314) 
11

>  <i_lp_mmshare_version>  (314) 
65135

>  <i_m_ct_format>  (314) 
2

>  <i_m_source_file_index>  (314) 
1473

>  <i_qp_#NandO>  (314) 
5

>  <i_qp_#acid>  (314) 
0

>  <i_qp_#amide>  (314) 
0

>  <i_qp_#amidine>  (314) 
0

>  <i_qp_#amine>  (314) 
2

>  <i_qp_#in34>  (314) 
0

>  <i_qp_#in56>  (314) 
17

>  <i_qp_#metab>  (314) 
6

>  <i_qp_#nonHatm>  (314) 
31

>  <i_qp_#noncon>  (314) 
0

>  <i_qp_#ringatoms>  (314) 
17

>  <i_qp_#rotor>  (314) 
11

>  <i_qp_#rtvFG>  (314) 
0

>  <i_qp_#stars>  (314) 
0

>  <i_qp_CNS>  (314) 
1

>  <i_qp_HumanOralAbsorption>  (314) 
3

>  <i_qp_RuleOfFive>  (314) 
0

>  <i_qp_RuleOfThree>  (314) 
1

>  <i_sd_BIOSOLVEIT.INFINISEE\_REAGENT1\_NAME>  (314) 
8288962

>  <i_sd_BIOSOLVEIT.INFINISEE\_REAGENT2\_NAME>  (314) 
24714838

>  <i_sd_BIOSOLVEIT.INFINISEE\_RESULT\_RANK>  (314) 
57579

>  <i_sd_version>  (314) 
0

>  <b_lp_Chiralities_Consistent>  (314) 
1

>  <b_sd_chiral_flag>  (314) 
0

>  <canonical_id>  (314) 
ATP-HTVS-337D10985B1B

>  <compound_code>  (314) 
47106

>  <title>  (314) 
m_270004bbb____8288962____24714838

>  <variant>  (314) 
47106-1

>  <source_file>  (314) 
运行/运行/ATP-VSW/ATP-VSW-DOCK_HTVS_1-002_lib.maegz

>  <canonical_smiles>  (314) 
CC[NH+](CC)Cc1ccc(C[NH2+]Cc2cn(CCC#N)nc2-c2ccc(Cl)cc2)cc1

>  <scaffold>  (314) 
c1ccc(C[NH2+]Cc2c[nH]nc2-c2ccccc2)cc1

>  <molecular_formula>  (314) 
C25H32ClN5+2

$$$$
ATP-HTVS-33BC72D3D2BF
     RDKit          3D

 53 55  0  0  0  0  0  0  0  0999 V2000
  197.1733  179.9578  154.1516 O   0  0  0  0  0  0  0  0  0  0  0  0
  196.9635  181.1466  153.4619 C   0  0  0  0  0  0  0  0  0  0  0  0
  197.3100  182.2689  154.0207 N   0  0  0  0  0  0  0  0  0  0  0  0
  197.2593  183.4705  153.4071 C   0  0  0  0  0  0  0  0  0  0  0  0
  197.7427  184.6464  154.0627 N   0  0  0  0  0  0  0  0  0  0  0  0
  198.7650  184.6970  155.1406 C   0  0  1  0  0  0  0  0  0  0  0  0
  198.2662  184.4119  156.5830 C   0  0  0  0  0  0  0  0  0  0  0  0
  197.3107  183.4085  156.8837 C   0  0  0  0  0  0  0  0  0  0  0  0
  196.8933  183.0807  158.1728 C   0  0  0  0  0  0  0  0  0  0  0  0
  197.3979  183.8419  159.2519 C   0  0  0  0  0  0  0  0  0  0  0  0
  198.3276  184.8879  159.0006 C   0  0  0  0  0  0  0  0  0  0  0  0
  198.7790  185.1577  157.6801 C   0  0  0  0  0  0  0  0  0  0  0  0
  195.8899  181.9441  158.3763 C   0  0  1  0  0  0  0  0  0  0  0  0
  194.4903  182.3715  158.1613 N   0  0  1  0  0  0  0  0  0  0  0  0
  193.5425  181.2496  158.3198 C   0  0  2  0  0  0  0  0  0  0  0  0
  194.1249  183.5476  158.9839 C   0  0  2  0  0  0  0  0  0  0  0  0
  196.7234  183.4955  152.0887 C   0  0  0  0  0  0  0  0  0  0  0  0
  196.3284  182.3561  151.4682 N   0  0  0  0  0  0  0  0  0  0  0  0
  196.4177  181.2044  152.1759 C   0  0  0  0  0  0  0  0  0  0  0  0
  195.9941  180.0195  151.5960 N   0  0  0  0  0  0  0  0  0  0  0  0
  197.5334  179.9549  155.5338 C   0  0  1  0  0  0  0  0  0  0  0  0
  199.0179  180.2245  155.8711 C   0  0  0  0  0  0  0  0  0  0  0  0
  199.6243  181.4792  155.6319 C   0  0  0  0  0  0  0  0  0  0  0  0
  200.9674  181.7914  155.8493 C   0  0  0  0  0  0  0  0  0  0  0  0
  201.7845  180.8281  156.4564 C   0  0  0  0  0  0  0  0  0  0  0  0
  201.2064  179.5827  156.8368 C   0  0  0  0  0  0  0  0  0  0  0  0
  199.8338  179.2737  156.5605 C   0  0  0  0  0  0  0  0  0  0  0  0
  197.4559  185.5595  153.7316 H   0  0  0  0  0  0  0  0  0  0  0  0
  199.6432  184.1204  154.8650 H   0  0  0  0  0  0  0  0  0  0  0  0
  199.2564  185.6805  155.1474 H   0  0  0  0  0  0  0  0  0  0  0  0
  196.8032  182.8207  156.1732 H   0  0  0  0  0  0  0  0  0  0  0  0
  197.0155  183.6100  160.2517 H   0  0  0  0  0  0  0  0  0  0  0  0
  198.6622  185.4735  159.8344 H   0  0  0  0  0  0  0  0  0  0  0  0
  199.5118  185.9595  157.5221 H   0  0  0  0  0  0  0  0  0  0  0  0
  196.0328  181.1418  157.6902 H   0  0  0  0  0  0  0  0  0  0  0  0
  196.0393  181.4976  159.3660 H   0  0  0  0  0  0  0  0  0  0  0  0
  193.6057  180.8412  159.3342 H   0  0  0  0  0  0  0  0  0  0  0  0
  193.7634  180.4460  157.6188 H   0  0  0  0  0  0  0  0  0  0  0  0
  192.5178  181.5631  158.1140 H   0  0  0  0  0  0  0  0  0  0  0  0
  194.3246  183.3156  160.0391 H   0  0  0  0  0  0  0  0  0  0  0  0
  193.0699  183.8342  158.8399 H   0  0  0  0  0  0  0  0  0  0  0  0
  194.7336  184.4192  158.7291 H   0  0  0  0  0  0  0  0  0  0  0  0
  196.6742  184.4387  151.5642 H   0  0  0  0  0  0  0  0  0  0  0  0
  196.0536  179.1268  152.1275 H   0  0  0  0  0  0  0  0  0  0  0  0
  195.5373  179.9987  150.6751 H   0  0  0  0  0  0  0  0  0  0  0  0
  196.9306  180.7047  155.9708 H   0  0  0  0  0  0  0  0  0  0  0  0
  197.2307  179.0351  156.0605 H   0  0  0  0  0  0  0  0  0  0  0  0
  199.1300  182.2966  155.2969 H   0  0  0  0  0  0  0  0  0  0  0  0
  201.3176  182.7634  155.5454 H   0  0  0  0  0  0  0  0  0  0  0  0
  202.8299  181.0968  156.6391 H   0  0  0  0  0  0  0  0  0  0  0  0
  201.8331  178.8369  157.3234 H   0  0  0  0  0  0  0  0  0  0  0  0
  199.3803  178.3139  156.8681 H   0  0  0  0  0  0  0  0  0  0  0  0
  194.3637  182.6415  157.1672 H   0  0  0  0  0  0  0  0  0  0  0  0
  1  2  1  0
  1 21  1  0
  2  3  1  0
  2 19  2  0
  3  4  2  0
  4  5  1  0
  4 17  1  0
  5  6  1  0
  5 28  1  0
  6  7  1  0
  6 29  1  6
  6 30  1  0
  7  8  2  0
  7 12  1  0
  8  9  1  0
  8 31  1  0
  9 10  2  0
  9 13  1  0
 10 11  1  0
 10 32  1  0
 11 12  2  0
 11 33  1  0
 12 34  1  0
 13 14  1  0
 13 35  1  6
 13 36  1  0
 14 15  1  0
 14 16  1  0
 14 53  1  6
 15 37  1  1
 15 38  1  0
 15 39  1  0
 16 40  1  1
 16 41  1  0
 16 42  1  0
 17 18  2  0
 17 43  1  0
 18 19  1  0
 19 20  1  0
 20 44  1  0
 20 45  1  0
 21 22  1  0
 21 46  1  1
 21 47  1  0
 22 23  2  0
 22 27  1  0
 23 24  1  0
 23 48  1  0
 24 25  2  0
 24 49  1  0
 25 26  1  0
 25 50  1  0
 26 27  2  0
 26 51  1  0
 27 52  1  0
M  CHG  1  14   1
M  END
>  <s_epik_cmdline>  (315) 
J2VwaWtfcHl0aG9uJywgJy1waCcsICc3LjAwMDAwMCcsICctcGh0JywgJzIuMDAwMDAwJywgJy1tcycsICcxNicsICctdG4nLCAnOCcsICctbWEnLCAnMjAwJywgJy1pbWFlJywgJzxpbmZpbGUubWFlPicsICctb21hZScsICc8b3V0ZmlsZS5tYWU+Jw==

>  <s_epik_input>  (315) 
W2NIXTFbY0hdW2NIXVtjSF1bY0hdYzFbQ0gyXU9jMm5jKFtjSF1uYzJbTkgyXSlbTkhdW0NIMl1jM1tjSF1jKFtjSF1bY0hdW2NIXTMpW0NIMl1OKFtDSDNdKVtDSDNd

>  <s_i_glide_gridfile>  (315) 
ATP-Grid

>  <s_lp_Force_Field>  (315) 
OPLS_2005

>  <s_lp_Variant>  (315) 
rxn102b____EMOL32179295____EMOL2873214-1

>  <s_lp_label>  (315) 
2539_sdstereoexpander_1_neutralizer_1_epik_1_stereoizer_1

>  <s_m_source_file>  (315) 
ATP-VSW-LIGPREP-001-in.maegz

>  <s_sd_BIOSOLVEIT.INFINISEE\_QUERY\_NAME>  (315) 
Ref-Lig

>  <s_sd_BIOSOLVEIT.INFINISEE\_QUERY\_SMILES>  (315) 
S(c1nc2c(cc1C[NH2+]Cc3ccc(cc3)C[NH+](C)C)cccc2)Cc4ccccc4

>  <s_sd_BIOSOLVEIT.INFINISEE\_REACTION\_NAME>  (315) 
rxn102b

>  <s_sd_BIOSOLVEIT.INFINISEE\_REAGENT1\_NAME>  (315) 
EMOL32179295

>  <s_sd_BIOSOLVEIT.INFINISEE\_REAGENT1\_SMILES>  (315) 
Brc1nc(OCc2ccccc2)c(nc1)N

>  <s_sd_BIOSOLVEIT.INFINISEE\_REAGENT2\_NAME>  (315) 
EMOL2873214

>  <s_sd_BIOSOLVEIT.INFINISEE\_REAGENT2\_SMILES>  (315) 
N(Cc1cc(ccc1)CN)(C)C

>  <s_sd_BIOSOLVEIT.INFINISEE\_SPACE>  (315) 
eXplore_7tr_2022-12

>  <s_vsw_compound_code>  (315) 
81217

>  <s_vsw_variant>  (315) 
81217-1

>  <r_epik_Charging_Adjusted_Penalty>  (315) 
0.088195370499548301

>  <r_epik_Ionization_Penalty>  (315) 
0.0448

>  <r_epik_Ionization_Penalty_Charging>  (315) 
0.0441

>  <r_epik_Ionization_Penalty_Neutral>  (315) 
0.00069999999999999999

>  <r_epik_State_Penalty>  (315) 
0.0441

>  <r_i_docking_score>  (315) 
-3.7454152252202899

>  <r_i_glide_ecoul>  (315) 
-9.6833076477050799

>  <r_i_glide_eff_state_penalty>  (315) 
0.0441

>  <r_i_glide_einternal>  (315) 
2.8764274120330802

>  <r_i_glide_emodel>  (315) 
-54.344287437385397

>  <r_i_glide_energy>  (315) 
-41.364820480346701

>  <r_i_glide_erotb>  (315) 
1.0131117306933799

>  <r_i_glide_esite>  (315) 
-0.10157320148467699

>  <r_i_glide_evdw>  (315) 
-31.681512832641602

>  <r_i_glide_gscore>  (315) 
-3.7895152252202902

>  <r_i_glide_hbond>  (315) 
-0.20000000000000001

>  <r_i_glide_ligand_efficiency>  (315) 
-0.13871908241556599

>  <r_i_glide_ligand_efficiency_ln>  (315) 
-0.87187091643542802

>  <r_i_glide_ligand_efficiency_sa>  (315) 
-0.416157246789504

>  <r_i_glide_lipo>  (315) 
-0.54037314745933795

>  <r_i_glide_metal>  (315) 
-0

>  <r_i_glide_rewards>  (315) 
-0.924108818181817

>  <r_lp_Energy>  (315) 
21.67456

>  <r_qp_ACxDN^.5/SA>  (315) 
0.0132198

>  <r_qp_CIQPlogS>  (315) 
-4.4699999999999998

>  <r_qp_EA(eV)>  (315) 
-0.063

>  <r_qp_FISA>  (315) 
105.521

>  <r_qp_FOSA>  (315) 
196.76900000000001

>  <r_qp_IP(eV)>  (315) 
7.5289999999999999

>  <r_qp_Jm>  (315) 
0.049574359799602299

>  <r_qp_PISA>  (315) 
352.81

>  <r_qp_PSA>  (315) 
69.236000000000004

>  <r_qp_PercentHumanOralAbsorption>  (315) 
90.578999999999994

>  <r_qp_QPPCaco>  (315) 
246.68600000000001

>  <r_qp_QPPMDCK>  (315) 
120.562

>  <r_qp_QPlogBB>  (315) 
-0.58899999999999997

>  <r_qp_QPlogHERG>  (315) 
-6.6050000000000004

>  <r_qp_QPlogKhsa>  (315) 
0.41199999999999998

>  <r_qp_QPlogKp>  (315) 
-3.4199999999999999

>  <r_qp_QPlogPC16>  (315) 
13.311

>  <r_qp_QPlogPo/w>  (315) 
3.556

>  <r_qp_QPlogPoct>  (315) 
20.064

>  <r_qp_QPlogPw>  (315) 
11.747

>  <r_qp_QPlogS>  (315) 
-3.4449999999999998

>  <r_qp_QPpolrz>  (315) 
39.607999999999997

>  <r_qp_SASA>  (315) 
655.09900000000005

>  <r_qp_SAamideO>  (315) 
0

>  <r_qp_SAfluorine>  (315) 
0

>  <r_qp_WPSA>  (315) 
0

>  <r_qp_accptHB>  (315) 
5

>  <r_qp_dip^2/V>  (315) 
0.0005574

>  <r_qp_dipole>  (315) 
0.81899999999999995

>  <r_qp_donorHB>  (315) 
3

>  <r_qp_glob>  (315) 
0.83534969999999997

>  <r_qp_mol_MW>  (315) 
363.46100000000001

>  <r_qp_volume>  (315) 
1203.693

>  <r_sd_BIOSOLVEIT.INFINISEE\_FTREES\_SIMILARITY>  (315) 
0.91300000000000003

>  <r_sd_BIOSOLVEIT.LOGP>  (315) 
1.8944000000000001

>  <r_sd_BIOSOLVEIT.MOLECULAR\_WEIGHT>  (315) 
364.47000000000003

>  <r_sd_BIOSOLVEIT.TPSA>  (315) 
77.5

>  <i_epik_Tot_Q>  (315) 
1

>  <i_epik_Tot_abs_Q>  (315) 
1

>  <i_f3d_flags>  (315) 
0

>  <i_i_glide_confnum>  (315) 
2

>  <i_i_glide_lignum>  (315) 
1014

>  <i_i_glide_posenum>  (315) 
12

>  <i_i_glide_rotatable_bonds>  (315) 
8

>  <i_lp_mmshare_version>  (315) 
65135

>  <i_m_ct_format>  (315) 
2

>  <i_m_source_file_index>  (315) 
2539

>  <i_qp_#NandO>  (315) 
6

>  <i_qp_#acid>  (315) 
0

>  <i_qp_#amide>  (315) 
0

>  <i_qp_#amidine>  (315) 
0

>  <i_qp_#amine>  (315) 
1

>  <i_qp_#in34>  (315) 
0

>  <i_qp_#in56>  (315) 
18

>  <i_qp_#metab>  (315) 
7

>  <i_qp_#nonHatm>  (315) 
27

>  <i_qp_#noncon>  (315) 
0

>  <i_qp_#ringatoms>  (315) 
18

>  <i_qp_#rotor>  (315) 
9

>  <i_qp_#rtvFG>  (315) 
0

>  <i_qp_#stars>  (315) 
2

>  <i_qp_CNS>  (315) 
0

>  <i_qp_HumanOralAbsorption>  (315) 
3

>  <i_qp_RuleOfFive>  (315) 
0

>  <i_qp_RuleOfThree>  (315) 
1

>  <i_sd_BIOSOLVEIT.INFINISEE\_RESULT\_RANK>  (315) 
34391

>  <i_sd_version>  (315) 
0

>  <b_lp_Chiralities_Consistent>  (315) 
1

>  <b_sd_chiral_flag>  (315) 
0

>  <canonical_id>  (315) 
ATP-HTVS-33BC72D3D2BF

>  <compound_code>  (315) 
81217

>  <title>  (315) 
rxn102b____EMOL32179295____EMOL2873214

>  <variant>  (315) 
81217-1

>  <source_file>  (315) 
运行/运行/ATP-VSW/ATP-VSW-DOCK_HTVS_1-001_lib/ATP-VSW-DOCK_HTVS_1-001_lib

>  <canonical_smiles>  (315) 
C[NH+](C)Cc1cccc(CNc2cnc(N)c(OCc3ccccc3)n2)c1

>  <scaffold>  (315) 
c1ccc(CNc2cncc(OCc3ccccc3)n2)cc1

>  <molecular_formula>  (315) 
C21H26N5O+

$$$$
ATP-HTVS-34AD6DA38229
     RDKit          3D

 63 66  0  0  0  0  0  0  0  0999 V2000
  198.0398  187.3999  158.9238 S   0  0  0  0  0  0  0  0  0  0  0  0
  196.6245  186.5586  159.5163 C   0  0  0  0  0  0  0  0  0  0  0  0
  196.3550  185.3922  158.7386 C   0  0  0  0  0  0  0  0  0  0  0  0
  195.2180  184.6327  159.0824 C   0  0  0  0  0  0  0  0  0  0  0  0
  194.3620  185.0401  160.1382 C   0  0  0  0  0  0  0  0  0  0  0  0
  194.6663  186.1841  160.8878 C   0  0  0  0  0  0  0  0  0  0  0  0
  195.8000  186.9511  160.5839 C   0  0  0  0  0  0  0  0  0  0  0  0
  197.3206  185.2153  157.6761 C   0  0  0  0  0  0  0  0  0  0  0  0
  197.1384  184.1418  156.7819 C   0  0  0  0  0  0  0  0  0  0  0  0
  196.9272  183.1914  155.9925 C   0  0  0  0  0  0  0  0  0  0  0  0
  196.8053  182.1202  155.0422 C   0  0  1  0  0  0  0  0  0  0  0  0
  196.7319  180.8424  155.7954 N   0  0  1  0  0  0  0  0  0  0  0  0
  197.5163  179.6802  155.2911 C   0  0  2  0  0  0  0  0  0  0  0  0
  198.9563  179.6775  155.7647 C   0  0  0  0  0  0  0  0  0  0  0  0
  199.6679  178.4494  155.9547 C   0  0  0  0  0  0  0  0  0  0  0  0
  199.0988  177.2554  155.6783 F   0  0  0  0  0  0  0  0  0  0  0  0
  201.0125  178.4723  156.3830 C   0  0  0  0  0  0  0  0  0  0  0  0
  201.6632  179.7018  156.6065 C   0  0  0  0  0  0  0  0  0  0  0  0
  200.9521  180.8892  156.4759 C   0  0  0  0  0  0  0  0  0  0  0  0
  199.6100  180.8933  156.0450 C   0  0  0  0  0  0  0  0  0  0  0  0
  197.3907  179.5191  153.7533 C   0  0  2  0  0  0  0  0  0  0  0  0
  198.2938  186.1993  157.6880 C   0  0  0  0  0  0  0  0  0  0  0  0
  199.4731  186.3838  156.7577 C   0  0  1  0  0  0  0  0  0  0  0  0
  200.7673  186.1794  157.4309 N   0  0  0  0  0  0  0  0  0  0  0  0
  201.4390  184.9879  157.3328 C   0  0  0  0  0  0  0  0  0  0  0  0
  201.0084  184.0683  156.6177 O   0  0  0  0  0  0  0  0  0  0  0  0
  202.7725  184.7758  158.0928 C   0  0  1  0  0  0  0  0  0  0  0  0
  202.8196  183.4500  158.8564 C   0  0  0  0  0  0  0  0  0  0  0  0
  203.4181  182.2777  158.3172 C   0  0  0  0  0  0  0  0  0  0  0  0
  203.9143  182.2301  156.9503 C   0  0  0  0  0  0  0  0  0  0  0  0
  204.3581  182.2236  155.8774 N   0  0  0  0  0  0  0  0  0  0  0  0
  203.4135  181.0852  159.0740 C   0  0  0  0  0  0  0  0  0  0  0  0
  202.8710  181.0755  160.3915 C   0  0  0  0  0  0  0  0  0  0  0  0
  202.3493  182.2539  160.9401 C   0  0  0  0  0  0  0  0  0  0  0  0
  202.3317  183.4343  160.1784 C   0  0  0  0  0  0  0  0  0  0  0  0
  201.2423  187.2926  158.2450 C   0  0  2  0  0  0  0  0  0  0  0  0
  197.0532  180.9810  156.7476 H   0  0  0  0  0  0  0  0  0  0  0  0
  194.9545  183.7634  158.5141 H   0  0  0  0  0  0  0  0  0  0  0  0
  193.4913  184.4512  160.3584 H   0  0  0  0  0  0  0  0  0  0  0  0
  194.0055  186.4976  161.6955 H   0  0  0  0  0  0  0  0  0  0  0  0
  196.0358  187.8433  161.1376 H   0  0  0  0  0  0  0  0  0  0  0  0
  195.9215  182.2462  154.3993 H   0  0  0  0  0  0  0  0  0  0  0  0
  197.6824  182.2183  154.3923 H   0  0  0  0  0  0  0  0  0  0  0  0
  197.0512  178.8100  155.7387 H   0  0  0  0  0  0  0  0  0  0  0  0
  201.5765  177.5585  156.5209 H   0  0  0  0  0  0  0  0  0  0  0  0
  202.7065  179.6970  156.8696 H   0  0  0  0  0  0  0  0  0  0  0  0
  201.3887  181.8675  156.6770 H   0  0  0  0  0  0  0  0  0  0  0  0
  199.1591  181.8960  155.9349 H   0  0  0  0  0  0  0  0  0  0  0  0
  197.9291  178.6291  153.4231 H   0  0  0  0  0  0  0  0  0  0  0  0
  197.8415  180.3276  153.1806 H   0  0  0  0  0  0  0  0  0  0  0  0
  196.3470  179.4023  153.4402 H   0  0  0  0  0  0  0  0  0  0  0  0
  199.3505  185.7266  155.8959 H   0  0  0  0  0  0  0  0  0  0  0  0
  199.4423  187.3787  156.3234 H   0  0  0  0  0  0  0  0  0  0  0  0
  203.5745  184.8542  157.3543 H   0  0  0  0  0  0  0  0  0  0  0  0
  202.9849  185.5334  158.8388 H   0  0  0  0  0  0  0  0  0  0  0  0
  203.8053  180.1535  158.6820 H   0  0  0  0  0  0  0  0  0  0  0  0
  202.8320  180.1501  160.9424 H   0  0  0  0  0  0  0  0  0  0  0  0
  201.9663  182.2529  161.9518 H   0  0  0  0  0  0  0  0  0  0  0  0
  201.9269  184.3303  160.6221 H   0  0  0  0  0  0  0  0  0  0  0  0
  202.3110  187.4912  158.1265 H   0  0  0  0  0  0  0  0  0  0  0  0
  201.0487  187.0792  159.2910 H   0  0  0  0  0  0  0  0  0  0  0  0
  200.7321  188.2283  157.9953 H   0  0  0  0  0  0  0  0  0  0  0  0
  195.7661  180.5719  155.9051 H   0  0  0  0  0  0  0  0  0  0  0  0
  1  2  1  0
  1 22  1  0
  2  3  1  0
  2  7  2  0
  3  4  2  0
  3  8  1  0
  4  5  1  0
  4 38  1  0
  5  6  2  0
  5 39  1  0
  6  7  1  0
  6 40  1  0
  7 41  1  0
  8  9  1  0
  8 22  2  0
  9 10  3  0
 10 11  1  0
 11 12  1  0
 11 42  1  6
 11 43  1  0
 12 13  1  0
 12 37  1  1
 12 63  1  0
 13 14  1  0
 13 21  1  0
 13 44  1  1
 14 15  1  0
 14 20  2  0
 15 16  1  0
 15 17  2  0
 17 18  1  0
 17 45  1  0
 18 19  2  0
 18 46  1  0
 19 20  1  0
 19 47  1  0
 20 48  1  0
 21 49  1  6
 21 50  1  0
 21 51  1  0
 22 23  1  0
 23 24  1  0
 23 52  1  6
 23 53  1  0
 24 25  1  0
 24 36  1  0
 25 26  2  0
 25 27  1  0
 27 28  1  0
 27 54  1  6
 27 55  1  0
 28 29  1  0
 28 35  2  0
 29 30  1  0
 29 32  2  0
 30 31  3  0
 32 33  1  0
 32 56  1  0
 33 34  2  0
 33 57  1  0
 34 35  1  0
 34 58  1  0
 35 59  1  0
 36 60  1  1
 36 61  1  0
 36 62  1  0
M  CHG  1  12   1
M  END
>  <s_epik_cmdline>  (316) 
J2VwaWtfcHl0aG9uJywgJy1waCcsICc3LjAwMDAwMCcsICctcGh0JywgJzIuMDAwMDAwJywgJy1tcycsICcxNicsICctdG4nLCAnOCcsICctbWEnLCAnMjAwJywgJy1pbWFlJywgJzxpbmZpbGUubWFlPicsICctb21hZScsICc8b3V0ZmlsZS5tYWU+Jw==

>  <s_epik_input>  (316) 
W2NIXTFbY0hdW2NIXVtjSF1jKEMjTiljMVtDSDJdQyg9TylOKFtDSDNdKVtDSDJdYyhzMiljKGMoYzIzKVtjSF1bY0hdW2NIXVtjSF0zKUMjQ1tDSDJdW05IXVtDQEBIXShbQ0gzXSljNGMoRilbY0hdW2NIXVtjSF1bY0hdNA==

>  <s_i_glide_gridfile>  (316) 
ATP-Grid

>  <s_lp_Force_Field>  (316) 
OPLS_2005

>  <s_lp_Variant>  (316) 
rxn503c____EMOL3801098____EMOL49259969____EMOL317509298-4

>  <s_lp_label>  (316) 
3030_sdstereoexpander_2_neutralizer_1_epik_2_stereoizer_1

>  <s_m_source_file>  (316) 
ATP-VSW-LIGPREP-001-in.maegz

>  <s_sd_BIOSOLVEIT.INFINISEE\_QUERY\_NAME>  (316) 
Ref-Lig

>  <s_sd_BIOSOLVEIT.INFINISEE\_QUERY\_SMILES>  (316) 
S(c1nc2c(cc1C[NH2+]Cc3ccc(cc3)C[NH+](C)C)cccc2)Cc4ccccc4

>  <s_sd_BIOSOLVEIT.INFINISEE\_REACTION\_NAME>  (316) 
rxn503c

>  <s_sd_BIOSOLVEIT.INFINISEE\_REAGENT1\_NAME>  (316) 
EMOL3801098

>  <s_sd_BIOSOLVEIT.INFINISEE\_REAGENT1\_SMILES>  (316) 
O=C(O)Cc1c(C#N)cccc1

>  <s_sd_BIOSOLVEIT.INFINISEE\_REAGENT2\_NAME>  (316) 
EMOL49259969

>  <s_sd_BIOSOLVEIT.INFINISEE\_REAGENT2\_SMILES>  (316) 
ClC=1c2c(SC1CNC)cccc2

>  <s_sd_BIOSOLVEIT.INFINISEE\_REAGENT3\_NAME>  (316) 
EMOL317509298

>  <s_sd_BIOSOLVEIT.INFINISEE\_REAGENT3\_SMILES>  (316) 
Fc1c(cccc1)C(NCC#C)C

>  <s_sd_BIOSOLVEIT.INFINISEE\_SPACE>  (316) 
eXplore_7tr_2022-12

>  <s_vsw_compound_code>  (316) 
96929

>  <s_vsw_variant>  (316) 
96929-4

>  <r_epik_Charging_Adjusted_Penalty>  (316) 
1.2181870816929601

>  <r_epik_Ionization_Penalty>  (316) 
0.60909999999999997

>  <r_epik_Ionization_Penalty_Charging>  (316) 
0.60909999999999997

>  <r_epik_Ionization_Penalty_Neutral>  (316) 
0

>  <r_epik_State_Penalty>  (316) 
0.60909999999999997

>  <r_i_docking_score>  (316) 
-3.81980623817494

>  <r_i_glide_ecoul>  (316) 
-7.4886045455932599

>  <r_i_glide_eff_state_penalty>  (316) 
0.60909999999999997

>  <r_i_glide_einternal>  (316) 
7.40451908111572

>  <r_i_glide_emodel>  (316) 
-54.197863896387098

>  <r_i_glide_energy>  (316) 
-41.654620170593297

>  <r_i_glide_erotb>  (316) 
0.744196682012085

>  <r_i_glide_esite>  (316) 
-0.177546124790321

>  <r_i_glide_evdw>  (316) 
-34.166015625

>  <r_i_glide_gscore>  (316) 
-4.4289062381749398

>  <r_i_glide_hbond>  (316) 
-0.0035507346334128702

>  <r_i_glide_ligand_efficiency>  (316) 
-0.106105728838193

>  <r_i_glide_ligand_efficiency_ln>  (316) 
-0.83337852193135797

>  <r_i_glide_ligand_efficiency_sa>  (316) 
-0.35035339689615402

>  <r_i_glide_lipo>  (316) 
-1.9123642544924899

>  <r_i_glide_metal>  (316) 
-0

>  <r_i_glide_rewards>  (316) 
-0.24805034318181701

>  <r_lp_Energy>  (316) 
20.904077000000001

>  <r_qp_ACxDN^.5/SA>  (316) 
0.0085819999999999994

>  <r_qp_CIQPlogS>  (316) 
-7.476

>  <r_qp_EA(eV)>  (316) 
0.76200000000000001

>  <r_qp_FISA>  (316) 
50.210000000000001

>  <r_qp_FOSA>  (316) 
216.34299999999999

>  <r_qp_IP(eV)>  (316) 
8.4930000000000003

>  <r_qp_Jm>  (316) 
0.086812901100437295

>  <r_qp_PISA>  (316) 
385.71300000000002

>  <r_qp_PSA>  (316) 
61.857999999999997

>  <r_qp_PercentHumanOralAbsorption>  (316) 
100

>  <r_qp_QPPCaco>  (316) 
602.17600000000004

>  <r_qp_QPPMDCK>  (316) 
803.35400000000004

>  <r_qp_QPlogBB>  (316) 
0.040000000000000001

>  <r_qp_QPlogHERG>  (316) 
-4.7000000000000002

>  <r_qp_QPlogKhsa>  (316) 
0.60499999999999998

>  <r_qp_QPlogKp>  (316) 
-2.1890000000000001

>  <r_qp_QPlogPC16>  (316) 
14.714

>  <r_qp_QPlogPo/w>  (316) 
4.9109999999999996

>  <r_qp_QPlogPoct>  (316) 
21.087

>  <r_qp_QPlogPw>  (316) 
10.824999999999999

>  <r_qp_QPlogS>  (316) 
-4.5679999999999996

>  <r_qp_QPpolrz>  (316) 
48.323999999999998

>  <r_qp_SASA>  (316) 
699.13699999999994

>  <r_qp_SAamideO>  (316) 
17.202999999999999

>  <r_qp_SAfluorine>  (316) 
21.251999999999999

>  <r_qp_WPSA>  (316) 
46.871000000000002

>  <r_qp_accptHB>  (316) 
6

>  <r_qp_dip^2/V>  (316) 
0.0073431

>  <r_qp_dipole>  (316) 
3.2400000000000002

>  <r_qp_donorHB>  (316) 
1

>  <r_qp_glob>  (316) 
0.87786350000000002

>  <r_qp_mol_MW>  (316) 
495.613

>  <r_qp_volume>  (316) 
1429.673

>  <r_sd_BIOSOLVEIT.INFINISEE\_FTREES\_SIMILARITY>  (316) 
0.90200000000000002

>  <r_sd_BIOSOLVEIT.LOGP>  (316) 
4.7892799999999998

>  <r_sd_BIOSOLVEIT.MOLECULAR\_WEIGHT>  (316) 
496.62599999999998

>  <r_sd_BIOSOLVEIT.TPSA>  (316) 
60.710000000000001

>  <i_epik_Tot_Q>  (316) 
1

>  <i_epik_Tot_abs_Q>  (316) 
1

>  <i_f3d_flags>  (316) 
0

>  <i_i_glide_confnum>  (316) 
7

>  <i_i_glide_lignum>  (316) 
10

>  <i_i_glide_posenum>  (316) 
8

>  <i_i_glide_rotatable_bonds>  (316) 
10

>  <i_lp_mmshare_version>  (316) 
65135

>  <i_m_ct_format>  (316) 
2

>  <i_m_source_file_index>  (316) 
3030

>  <i_qp_#NandO>  (316) 
4

>  <i_qp_#acid>  (316) 
0

>  <i_qp_#amide>  (316) 
1

>  <i_qp_#amidine>  (316) 
0

>  <i_qp_#amine>  (316) 
1

>  <i_qp_#in34>  (316) 
0

>  <i_qp_#in56>  (316) 
21

>  <i_qp_#metab>  (316) 
7

>  <i_qp_#nonHatm>  (316) 
36

>  <i_qp_#noncon>  (316) 
0

>  <i_qp_#ringatoms>  (316) 
21

>  <i_qp_#rotor>  (316) 
10

>  <i_qp_#rtvFG>  (316) 
0

>  <i_qp_#stars>  (316) 
0

>  <i_qp_CNS>  (316) 
1

>  <i_qp_HumanOralAbsorption>  (316) 
3

>  <i_qp_RuleOfFive>  (316) 
0

>  <i_qp_RuleOfThree>  (316) 
1

>  <i_sd_BIOSOLVEIT.INFINISEE\_RESULT\_RANK>  (316) 
89323

>  <i_sd_version>  (316) 
0

>  <b_lp_Chiralities_Consistent>  (316) 
1

>  <b_sd_chiral_flag>  (316) 
0

>  <canonical_id>  (316) 
ATP-HTVS-34AD6DA38229

>  <compound_code>  (316) 
96929

>  <title>  (316) 
rxn503c____EMOL3801098____EMOL49259969____EMOL317509298

>  <variant>  (316) 
96929-4

>  <source_file>  (316) 
运行/运行/ATP-VSW/ATP-VSW-DOCK_HTVS_1-002_lib.maegz

>  <canonical_smiles>  (316) 
C[C@H]([NH2+]CC#Cc1c(CN(C)C(=O)Cc2ccccc2C#N)sc2ccccc12)c1ccccc1F

>  <scaffold>  (316) 
O=C(Cc1ccccc1)NCc1sc2ccccc2c1C#CC[NH2+]Cc1ccccc1

>  <molecular_formula>  (316) 
C30H27FN3OS+

$$$$
ATP-HTVS-34E58924FFDD
     RDKit          3D

 63 66  0  0  0  0  0  0  0  0999 V2000
  203.5925  173.5641  154.6648 S   0  0  1  0  0  0  0  0  0  0  0  0
  203.2242  173.2009  156.0415 O   0  0  0  0  0  0  0  0  0  0  0  0
  204.9828  173.4562  154.1899 O   0  0  0  0  0  0  0  0  0  0  0  0
  202.6219  172.6398  153.5969 N   0  0  0  0  0  0  0  0  0  0  0  0
  203.0244  175.2252  154.3749 C   0  0  0  0  0  0  0  0  0  0  0  0
  201.6884  175.5406  154.6843 C   0  0  0  0  0  0  0  0  0  0  0  0
  201.2127  176.8482  154.4582 C   0  0  0  0  0  0  0  0  0  0  0  0
  202.0798  177.8262  153.9275 C   0  0  0  0  0  0  0  0  0  0  0  0
  203.4210  177.5071  153.6335 C   0  0  0  0  0  0  0  0  0  0  0  0
  203.8995  176.2020  153.8605 C   0  0  0  0  0  0  0  0  0  0  0  0
  199.7752  177.2001  154.7878 C   0  0  1  0  0  0  0  0  0  0  0  0
  199.5860  177.6722  156.1511 N   0  0  0  0  0  0  0  0  0  0  0  0
  200.0066  178.9567  156.5052 C   0  0  0  0  0  0  0  0  0  0  0  0
  201.1428  179.0661  157.2238 N   0  0  0  0  0  0  0  0  0  0  0  0
  201.5538  180.3106  157.5655 C   0  0  0  0  0  0  0  0  0  0  0  0
  200.7949  181.4568  157.1931 C   0  0  0  0  0  0  0  0  0  0  0  0
  199.6566  181.3382  156.4711 N   0  0  0  0  0  0  0  0  0  0  0  0
  199.2551  180.0988  156.1225 C   0  0  0  0  0  0  0  0  0  0  0  0
  198.0789  179.9557  155.3747 N   0  0  0  0  0  0  0  0  0  0  0  0
  197.2798  181.0940  154.9306 C   0  0  1  0  0  0  0  0  0  0  0  0
  197.3332  181.2563  153.4177 C   0  0  0  0  0  0  0  0  0  0  0  0
  198.1315  182.2389  152.7591 C   0  0  0  0  0  0  0  0  0  0  0  0
  198.1245  182.2950  151.3491 C   0  0  0  0  0  0  0  0  0  0  0  0
  197.3182  181.4232  150.5894 C   0  0  0  0  0  0  0  0  0  0  0  0
  196.5339  180.4560  151.2383 C   0  0  0  0  0  0  0  0  0  0  0  0
  196.5537  180.3686  152.6440 C   0  0  0  0  0  0  0  0  0  0  0  0
  198.9813  183.2682  153.5121 C   0  0  1  0  0  0  0  0  0  0  0  0
  198.2834  184.5677  153.7418 N   0  0  2  0  0  0  0  0  0  0  0  0
  197.1047  184.4804  154.6354 C   0  0  2  0  0  0  0  0  0  0  0  0
  197.9739  185.3068  152.4972 C   0  0  2  0  0  0  0  0  0  0  0  0
  201.2401  182.7413  157.5746 C   0  0  0  0  0  0  0  0  0  0  0  0
  202.4225  182.9121  158.3105 C   0  0  0  0  0  0  0  0  0  0  0  0
  203.1769  181.7839  158.6713 C   0  0  0  0  0  0  0  0  0  0  0  0
  202.7452  180.4929  158.2960 C   0  0  0  0  0  0  0  0  0  0  0  0
  202.7481  171.6235  153.7965 H   0  0  0  0  0  0  0  0  0  0  0  0
  202.9186  172.8058  152.6378 H   0  0  0  0  0  0  0  0  0  0  0  0
  201.0426  174.7774  155.0968 H   0  0  0  0  0  0  0  0  0  0  0  0
  201.7191  178.8294  153.7635 H   0  0  0  0  0  0  0  0  0  0  0  0
  204.0832  178.2623  153.2345 H   0  0  0  0  0  0  0  0  0  0  0  0
  204.9263  175.9554  153.6323 H   0  0  0  0  0  0  0  0  0  0  0  0
  199.4249  177.9490  154.0738 H   0  0  0  0  0  0  0  0  0  0  0  0
  199.1517  176.3214  154.6456 H   0  0  0  0  0  0  0  0  0  0  0  0
  199.1383  177.1012  156.8607 H   0  0  0  0  0  0  0  0  0  0  0  0
  197.6989  179.0253  155.3036 H   0  0  0  0  0  0  0  0  0  0  0  0
  196.2448  180.9595  155.2483 H   0  0  0  0  0  0  0  0  0  0  0  0
  197.5762  182.0077  155.4418 H   0  0  0  0  0  0  0  0  0  0  0  0
  198.7156  183.0365  150.8335 H   0  0  0  0  0  0  0  0  0  0  0  0
  197.3007  181.5172  149.5140 H   0  0  0  0  0  0  0  0  0  0  0  0
  195.9147  179.7813  150.6613 H   0  0  0  0  0  0  0  0  0  0  0  0
  195.9511  179.6203  153.1397 H   0  0  0  0  0  0  0  0  0  0  0  0
  199.3378  182.8700  154.4554 H   0  0  0  0  0  0  0  0  0  0  0  0
  199.9025  183.4587  152.9467 H   0  0  0  0  0  0  0  0  0  0  0  0
  196.3482  183.8405  154.1943 H   0  0  0  0  0  0  0  0  0  0  0  0
  196.6584  185.4639  154.8072 H   0  0  0  0  0  0  0  0  0  0  0  0
  197.3746  184.0904  155.6179 H   0  0  0  0  0  0  0  0  0  0  0  0
  197.2311  184.7839  151.8936 H   0  0  0  0  0  0  0  0  0  0  0  0
  198.8802  185.4429  151.9051 H   0  0  0  0  0  0  0  0  0  0  0  0
  197.5625  186.2934  152.7232 H   0  0  0  0  0  0  0  0  0  0  0  0
  200.6573  183.6048  157.2976 H   0  0  0  0  0  0  0  0  0  0  0  0
  202.7492  183.9037  158.5929 H   0  0  0  0  0  0  0  0  0  0  0  0
  204.0894  181.9096  159.2353 H   0  0  0  0  0  0  0  0  0  0  0  0
  203.3372  179.6302  158.5614 H   0  0  0  0  0  0  0  0  0  0  0  0
  198.9470  185.1394  154.2431 H   0  0  0  0  0  0  0  0  0  0  0  0
  1  2  2  0
  1  3  2  0
  1  4  1  6
  1  5  1  0
  4 35  1  0
  4 36  1  0
  5  6  1  0
  5 10  2  0
  6  7  2  0
  6 37  1  0
  7  8  1  0
  7 11  1  0
  8  9  2  0
  8 38  1  0
  9 10  1  0
  9 39  1  0
 10 40  1  0
 11 12  1  0
 11 41  1  6
 11 42  1  0
 12 13  1  0
 12 43  1  0
 13 14  2  0
 13 18  1  0
 14 15  1  0
 15 16  1  0
 15 34  2  0
 16 17  1  0
 16 31  2  0
 17 18  2  0
 18 19  1  0
 19 20  1  0
 19 44  1  0
 20 21  1  0
 20 45  1  6
 20 46  1  0
 21 22  1  0
 21 26  2  0
 22 23  2  0
 22 27  1  0
 23 24  1  0
 23 47  1  0
 24 25  2  0
 24 48  1  0
 25 26  1  0
 25 49  1  0
 26 50  1  0
 27 28  1  0
 27 51  1  1
 27 52  1  0
 28 29  1  0
 28 30  1  0
 28 63  1  1
 29 53  1  6
 29 54  1  0
 29 55  1  0
 30 56  1  6
 30 57  1  0
 30 58  1  0
 31 32  1  0
 31 59  1  0
 32 33  2  0
 32 60  1  0
 33 34  1  0
 33 61  1  0
 34 62  1  0
M  CHG  1  28   1
M  END
>  <s_epik_cmdline>  (317) 
J2VwaWtfcHl0aG9uJywgJy1waCcsICc3LjAwMDAwMCcsICctcGh0JywgJzIuMDAwMDAwJywgJy1tcycsICcxNicsICctdG4nLCAnOCcsICctbWEnLCAnMjAwJywgJy1pbWFlJywgJzxpbmZpbGUubWFlPicsICctb21hZScsICc8b3V0ZmlsZS5tYWU+Jw==

>  <s_epik_input>  (317) 
Tz1TKD1PKShbTkgyXSljMVtjSF1jKFtjSF1bY0hdW2NIXTEpW0NIMl1bTkhdYyhuMiljKG5jKGMyMylbY0hdW2NIXVtjSF1bY0hdMylbTkhdW0NIMl1jNGMoW0NIMl1OKFtDSDNdKVtDSDNdKVtjSF1bY0hdW2NIXVtjSF00

>  <s_i_glide_gridfile>  (317) 
ATP-Grid

>  <s_lp_Force_Field>  (317) 
OPLS_2005

>  <s_lp_Variant>  (317) 
m_282030aaa____21890570____23157418____21973156-1

>  <s_lp_label>  (317) 
1983_sdstereoexpander_1_neutralizer_1_epik_1_stereoizer_1

>  <s_m_source_file>  (317) 
ATP-VSW-LIGPREP-001-in.maegz

>  <s_sd_BIOSOLVEIT.INFINISEE\_QUERY\_NAME>  (317) 
Ref-Lig

>  <s_sd_BIOSOLVEIT.INFINISEE\_QUERY\_SMILES>  (317) 
S(c1nc2c(cc1C[NH2+]Cc3ccc(cc3)C[NH+](C)C)cccc2)Cc4ccccc4

>  <s_sd_BIOSOLVEIT.INFINISEE\_REACTION\_NAME>  (317) 
m_282030aaa

>  <s_sd_BIOSOLVEIT.INFINISEE\_REAGENT1\_SMILES>  (317) 
[R1*]NCc1cc(S(=O)(=O)N)ccc1

>  <s_sd_BIOSOLVEIT.INFINISEE\_REAGENT2\_SMILES>  (317) 
[R1*]c1nc2c(nc1[R2*])cccc2

>  <s_sd_BIOSOLVEIT.INFINISEE\_REAGENT3\_SMILES>  (317) 
[R2*]NCc1c(cccc1)CN(C)C

>  <s_sd_BIOSOLVEIT.INFINISEE\_SPACE>  (317) 
REALSpace_44bn_2023-08

>  <s_vsw_compound_code>  (317) 
63425

>  <s_vsw_variant>  (317) 
63425-1

>  <r_epik_Charging_Adjusted_Penalty>  (317) 
0.076612674508475406

>  <r_epik_Ionization_Penalty>  (317) 
0.039199999999999999

>  <r_epik_Ionization_Penalty_Charging>  (317) 
0.038300000000000001

>  <r_epik_Ionization_Penalty_Neutral>  (317) 
0.00089999999999999998

>  <r_epik_State_Penalty>  (317) 
0.038300000000000001

>  <r_i_docking_score>  (317) 
-3.8970966763925099

>  <r_i_glide_ecoul>  (317) 
-10.8999919891357

>  <r_i_glide_eff_state_penalty>  (317) 
0.038300000000000001

>  <r_i_glide_einternal>  (317) 
11.6192636489868

>  <r_i_glide_emodel>  (317) 
-49.710974843938303

>  <r_i_glide_energy>  (317) 
-42.494337081909201

>  <r_i_glide_erotb>  (317) 
0.621681633001678

>  <r_i_glide_esite>  (317) 
-0.32083051568658699

>  <r_i_glide_evdw>  (317) 
-31.594345092773398

>  <r_i_glide_gscore>  (317) 
-3.9353966763925099

>  <r_i_glide_hbond>  (317) 
-0.20647269816133201

>  <r_i_glide_ligand_efficiency>  (317) 
-0.11462049048213301

>  <r_i_glide_ligand_efficiency_ln>  (317) 
-0.86097796567430696

>  <r_i_glide_ligand_efficiency_sa>  (317) 
-0.37132589319765402

>  <r_i_glide_lipo>  (317) 
-0.66235058799178603

>  <r_i_glide_metal>  (317) 
-0

>  <r_i_glide_rewards>  (317) 
-0.15270845454545301

>  <r_lp_Energy>  (317) 
31.015345

>  <r_qp_ACxDN^.5/SA>  (317) 
0.022242600000000001

>  <r_qp_CIQPlogS>  (317) 
-5.2119999999999997

>  <r_qp_EA(eV)>  (317) 
0.91700000000000004

>  <r_qp_FISA>  (317) 
162.142

>  <r_qp_FOSA>  (317) 
209.37200000000001

>  <r_qp_IP(eV)>  (317) 
8.048

>  <r_qp_Jm>  (317) 
0.00037019281090851501

>  <r_qp_PISA>  (317) 
482.70100000000002

>  <r_qp_PSA>  (317) 
112.145

>  <r_qp_PercentHumanOralAbsorption>  (317) 
79.128

>  <r_qp_QPPCaco>  (317) 
71.647999999999996

>  <r_qp_QPPMDCK>  (317) 
31.684000000000001

>  <r_qp_QPlogBB>  (317) 
-1.583

>  <r_qp_QPlogHERG>  (317) 
-8.6690000000000005

>  <r_qp_QPlogKhsa>  (317) 
0.26900000000000002

>  <r_qp_QPlogKp>  (317) 
-3.9100000000000001

>  <r_qp_QPlogPC16>  (317) 
18.120000000000001

>  <r_qp_QPlogPo/w>  (317) 
3.2410000000000001

>  <r_qp_QPlogPoct>  (317) 
29.201000000000001

>  <r_qp_QPlogPw>  (317) 
19.170999999999999

>  <r_qp_QPlogS>  (317) 
-5.2000000000000002

>  <r_qp_QPpolrz>  (317) 
52.576000000000001

>  <r_qp_SASA>  (317) 
854.21500000000003

>  <r_qp_SAamideO>  (317) 
0

>  <r_qp_SAfluorine>  (317) 
0

>  <r_qp_WPSA>  (317) 
0

>  <r_qp_accptHB>  (317) 
9.5

>  <r_qp_dip^2/V>  (317) 
0.042660099999999999

>  <r_qp_dipole>  (317) 
8.0329999999999995

>  <r_qp_donorHB>  (317) 
4

>  <r_qp_glob>  (317) 
0.74607520000000005

>  <r_qp_mol_MW>  (317) 
476.59500000000003

>  <r_qp_volume>  (317) 
1512.7840000000001

>  <r_sd_BIOSOLVEIT.INFINISEE\_FTREES\_SIMILARITY>  (317) 
0.90200000000000002

>  <r_sd_BIOSOLVEIT.LOGP>  (317) 
2.7965

>  <r_sd_BIOSOLVEIT.MOLECULAR\_WEIGHT>  (317) 
477.60899999999998

>  <r_sd_BIOSOLVEIT.TPSA>  (317) 
114.44

>  <i_epik_Tot_Q>  (317) 
1

>  <i_epik_Tot_abs_Q>  (317) 
1

>  <i_f3d_flags>  (317) 
0

>  <i_i_glide_confnum>  (317) 
9

>  <i_i_glide_lignum>  (317) 
603

>  <i_i_glide_posenum>  (317) 
13

>  <i_i_glide_rotatable_bonds>  (317) 
9

>  <i_lp_mmshare_version>  (317) 
65135

>  <i_m_ct_format>  (317) 
2

>  <i_m_source_file_index>  (317) 
1983

>  <i_qp_#NandO>  (317) 
8

>  <i_qp_#acid>  (317) 
0

>  <i_qp_#amide>  (317) 
0

>  <i_qp_#amidine>  (317) 
0

>  <i_qp_#amine>  (317) 
1

>  <i_qp_#in34>  (317) 
0

>  <i_qp_#in56>  (317) 
22

>  <i_qp_#metab>  (317) 
4

>  <i_qp_#nonHatm>  (317) 
34

>  <i_qp_#noncon>  (317) 
0

>  <i_qp_#ringatoms>  (317) 
22

>  <i_qp_#rotor>  (317) 
10

>  <i_qp_#rtvFG>  (317) 
0

>  <i_qp_#stars>  (317) 
3

>  <i_qp_CNS>  (317) 
-2

>  <i_qp_HumanOralAbsorption>  (317) 
3

>  <i_qp_RuleOfFive>  (317) 
0

>  <i_qp_RuleOfThree>  (317) 
0

>  <i_sd_BIOSOLVEIT.INFINISEE\_REAGENT1\_NAME>  (317) 
21890570

>  <i_sd_BIOSOLVEIT.INFINISEE\_REAGENT2\_NAME>  (317) 
23157418

>  <i_sd_BIOSOLVEIT.INFINISEE\_REAGENT3\_NAME>  (317) 
21973156

>  <i_sd_BIOSOLVEIT.INFINISEE\_RESULT\_RANK>  (317) 
89575

>  <i_sd_version>  (317) 
0

>  <b_lp_Chiralities_Consistent>  (317) 
1

>  <b_sd_chiral_flag>  (317) 
0

>  <canonical_id>  (317) 
ATP-HTVS-34E58924FFDD

>  <compound_code>  (317) 
63425

>  <title>  (317) 
m_282030aaa____21890570____23157418____21973156

>  <variant>  (317) 
63425-1

>  <source_file>  (317) 
运行/运行/ATP-VSW/ATP-VSW-DOCK_HTVS_1-001_lib/ATP-VSW-DOCK_HTVS_1-001_lib

>  <canonical_smiles>  (317) 
C[NH+](C)Cc1ccccc1CNc1nc2ccccc2nc1NCc1cccc(S(N)(=O)=O)c1

>  <scaffold>  (317) 
c1ccc(CNc2nc3ccccc3nc2NCc2ccccc2)cc1

>  <molecular_formula>  (317) 
C25H29N6O2S+

$$$$
ATP-HTVS-351CA3F2F79F
     RDKit          3D

 61 64  0  0  0  0  0  0  0  0999 V2000
  195.4898  183.7594  150.2679 F   0  0  0  0  0  0  0  0  0  0  0  0
  196.7744  184.1748  150.1621 C   0  0  0  0  0  0  0  0  0  0  0  0
  197.5778  184.2007  151.3152 C   0  0  0  0  0  0  0  0  0  0  0  0
  198.8642  184.7855  151.2536 C   0  0  0  0  0  0  0  0  0  0  0  0
  199.3684  185.2106  149.9978 C   0  0  0  0  0  0  0  0  0  0  0  0
  198.5822  185.1110  148.8287 C   0  0  0  0  0  0  0  0  0  0  0  0
  197.2704  184.6115  148.9112 C   0  0  0  0  0  0  0  0  0  0  0  0
  199.6863  184.9998  152.5185 C   0  0  1  0  0  0  0  0  0  0  0  0
  198.9080  185.1353  153.7706 N   0  0  0  0  0  0  0  0  0  0  0  0
  199.3442  184.5244  154.9059 C   0  0  0  0  0  0  0  0  0  0  0  0
  200.4033  183.9021  154.9386 O   0  0  0  0  0  0  0  0  0  0  0  0
  198.4392  184.5997  156.0630 C   0  0  0  0  0  0  0  0  0  0  0  0
  198.3564  185.9290  156.6952 C   0  0  0  0  0  0  0  0  0  0  0  0
  199.0261  186.9191  156.3866 O   0  0  0  0  0  0  0  0  0  0  0  0
  197.4356  186.0415  157.6676 N   0  0  0  0  0  0  0  0  0  0  0  0
  196.6434  184.9864  158.1727 C   0  0  0  0  0  0  0  0  0  0  0  0
  196.7722  183.6909  157.6277 C   0  0  0  0  0  0  0  0  0  0  0  0
  195.9463  182.6595  158.1330 C   0  0  0  0  0  0  0  0  0  0  0  0
  195.0336  182.9337  159.1780 C   0  0  0  0  0  0  0  0  0  0  0  0
  194.9271  184.2303  159.7207 C   0  0  0  0  0  0  0  0  0  0  0  0
  195.7354  185.2609  159.2148 C   0  0  0  0  0  0  0  0  0  0  0  0
  197.7397  183.5190  156.5172 C   0  0  0  0  0  0  0  0  0  0  0  0
  197.8521  182.2345  155.9820 N   0  0  0  0  0  0  0  0  0  0  0  0
  198.9042  181.3262  156.1966 C   0  0  0  0  0  0  0  0  0  0  0  0
  198.8523  180.0378  155.6139 C   0  0  0  0  0  0  0  0  0  0  0  0
  199.9213  179.1324  155.8110 C   0  0  0  0  0  0  0  0  0  0  0  0
  201.0493  179.5108  156.5616 C   0  0  0  0  0  0  0  0  0  0  0  0
  201.1079  180.7939  157.1312 C   0  0  0  0  0  0  0  0  0  0  0  0
  200.0345  181.6889  156.9625 C   0  0  0  0  0  0  0  0  0  0  0  0
  197.6681  179.6038  154.7594 C   0  0  1  0  0  0  0  0  0  0  0  0
  197.7700  180.0180  153.3575 N   0  0  0  0  0  0  0  0  0  0  0  0
  196.5285  179.7079  152.6631 C   0  0  2  0  0  0  0  0  0  0  0  0
  198.8624  179.3272  152.6792 C   0  0  2  0  0  0  0  0  0  0  0  0
  197.6582  185.9113  153.6717 C   0  0  2  0  0  0  0  0  0  0  0  0
  197.1752  183.8378  152.2552 H   0  0  0  0  0  0  0  0  0  0  0  0
  200.3689  185.6453  149.9330 H   0  0  0  0  0  0  0  0  0  0  0  0
  198.9743  185.4436  147.8804 H   0  0  0  0  0  0  0  0  0  0  0  0
  196.6303  184.5752  148.0400 H   0  0  0  0  0  0  0  0  0  0  0  0
  200.4053  184.1778  152.5545 H   0  0  0  0  0  0  0  0  0  0  0  0
  200.2970  185.9010  152.4152 H   0  0  0  0  0  0  0  0  0  0  0  0
  197.3008  186.9544  158.0722 H   0  0  0  0  0  0  0  0  0  0  0  0
  195.9923  181.6566  157.7361 H   0  0  0  0  0  0  0  0  0  0  0  0
  194.4099  182.1380  159.5586 H   0  0  0  0  0  0  0  0  0  0  0  0
  194.2304  184.4390  160.5252 H   0  0  0  0  0  0  0  0  0  0  0  0
  195.6554  186.2594  159.6172 H   0  0  0  0  0  0  0  0  0  0  0  0
  197.3587  182.0618  155.1151 H   0  0  0  0  0  0  0  0  0  0  0  0
  199.8854  178.1498  155.3695 H   0  0  0  0  0  0  0  0  0  0  0  0
  201.8735  178.8219  156.6954 H   0  0  0  0  0  0  0  0  0  0  0  0
  201.9792  181.0980  157.6955 H   0  0  0  0  0  0  0  0  0  0  0  0
  200.1028  182.6674  157.4087 H   0  0  0  0  0  0  0  0  0  0  0  0
  197.5591  178.5228  154.8340 H   0  0  0  0  0  0  0  0  0  0  0  0
  196.7588  180.0196  155.1974 H   0  0  0  0  0  0  0  0  0  0  0  0
  196.5790  180.0233  151.6193 H   0  0  0  0  0  0  0  0  0  0  0  0
  195.6944  180.2371  153.1238 H   0  0  0  0  0  0  0  0  0  0  0  0
  196.3124  178.6386  152.6844 H   0  0  0  0  0  0  0  0  0  0  0  0
  198.9093  179.6116  151.6261 H   0  0  0  0  0  0  0  0  0  0  0  0
  198.7439  178.2437  152.7336 H   0  0  0  0  0  0  0  0  0  0  0  0
  199.8255  179.5853  153.1207 H   0  0  0  0  0  0  0  0  0  0  0  0
  196.7980  185.2593  153.8289 H   0  0  0  0  0  0  0  0  0  0  0  0
  197.5398  186.3819  152.6919 H   0  0  0  0  0  0  0  0  0  0  0  0
  197.6231  186.7249  154.4021 H   0  0  0  0  0  0  0  0  0  0  0  0
  1  2  1  0
  2  3  2  0
  2  7  1  0
  3  4  1  0
  3 35  1  0
  4  5  2  0
  4  8  1  0
  5  6  1  0
  5 36  1  0
  6  7  2  0
  6 37  1  0
  7 38  1  0
  8  9  1  0
  8 39  1  1
  8 40  1  0
  9 10  1  0
  9 34  1  0
 10 11  2  0
 10 12  1  0
 12 13  1  0
 12 22  2  0
 13 14  2  0
 13 15  1  0
 15 16  1  0
 15 41  1  0
 16 17  1  0
 16 21  2  0
 17 18  2  0
 17 22  1  0
 18 19  1  0
 18 42  1  0
 19 20  2  0
 19 43  1  0
 20 21  1  0
 20 44  1  0
 21 45  1  0
 22 23  1  0
 23 24  1  0
 23 46  1  0
 24 25  1  0
 24 29  2  0
 25 26  2  0
 25 30  1  0
 26 27  1  0
 26 47  1  0
 27 28  2  0
 27 48  1  0
 28 29  1  0
 28 49  1  0
 29 50  1  0
 30 31  1  0
 30 51  1  6
 30 52  1  0
 31 32  1  0
 31 33  1  0
 32 53  1  6
 32 54  1  0
 32 55  1  0
 33 56  1  6
 33 57  1  0
 33 58  1  0
 34 59  1  1
 34 60  1  0
 34 61  1  0
M  END
>  <s_epik_cmdline>  (318) 
J2VwaWtfcHl0aG9uJywgJy1waCcsICc3LjAwMDAwMCcsICctcGh0JywgJzIuMDAwMDAwJywgJy1tcycsICcxNicsICctdG4nLCAnOCcsICctbWEnLCAnMjAwJywgJy1pbWFlJywgJzxpbmZpbGUubWFlPicsICctb21hZScsICc8b3V0ZmlsZS5tYWU+Jw==

>  <s_epik_input>  (318) 
RmMxW2NIXWMoW2NIXVtjSF1bY0hdMSlbQ0gyXU4oW0NIM10pQyg9TyljKGMoPU8pW25IXTIpYyhjKGMyMylbY0hdW2NIXVtjSF1bY0hdMylbTkhdYzRjKFtDSDJdTihbQ0gzXSlbQ0gzXSlbY0hdW2NIXVtjSF1bY0hdNA==

>  <s_i_glide_gridfile>  (318) 
ATP-Grid

>  <s_lp_Force_Field>  (318) 
OPLS_2005

>  <s_lp_Variant>  (318) 
rxn512c____EMOL525080____EMOL43362984____EMOL44691345-2

>  <s_lp_label>  (318) 
2649_sdstereoexpander_1_neutralizer_1_epik_2_stereoizer_1

>  <s_m_source_file>  (318) 
ATP-VSW-LIGPREP-002-in.maegz

>  <s_sd_BIOSOLVEIT.INFINISEE\_QUERY\_NAME>  (318) 
Ref-Lig

>  <s_sd_BIOSOLVEIT.INFINISEE\_QUERY\_SMILES>  (318) 
S(c1nc2c(cc1C[NH2+]Cc3ccc(cc3)C[NH+](C)C)cccc2)Cc4ccccc4

>  <s_sd_BIOSOLVEIT.INFINISEE\_REACTION\_NAME>  (318) 
rxn512c

>  <s_sd_BIOSOLVEIT.INFINISEE\_REAGENT1\_NAME>  (318) 
EMOL525080

>  <s_sd_BIOSOLVEIT.INFINISEE\_REAGENT1\_SMILES>  (318) 
Fc1cc(ccc1)CNC

>  <s_sd_BIOSOLVEIT.INFINISEE\_REAGENT2\_NAME>  (318) 
EMOL43362984

>  <s_sd_BIOSOLVEIT.INFINISEE\_REAGENT2\_SMILES>  (318) 
ClC=1c2c(NC(=O)C1C(=O)O)cccc2

>  <s_sd_BIOSOLVEIT.INFINISEE\_REAGENT3\_NAME>  (318) 
EMOL44691345

>  <s_sd_BIOSOLVEIT.INFINISEE\_REAGENT3\_SMILES>  (318) 
N(Cc1c(N)cccc1)(C)C

>  <s_sd_BIOSOLVEIT.INFINISEE\_SPACE>  (318) 
eXplore_7tr_2022-12

>  <s_vsw_compound_code>  (318) 
84738

>  <s_vsw_variant>  (318) 
84738-2

>  <r_epik_Charging_Adjusted_Penalty>  (318) 
1.66052961205601

>  <r_epik_Ionization_Penalty>  (318) 
1.6609

>  <r_epik_Ionization_Penalty_Charging>  (318) 
0

>  <r_epik_Ionization_Penalty_Neutral>  (318) 
1.6608000000000001

>  <r_epik_State_Penalty>  (318) 
1.6605000000000001

>  <r_i_docking_score>  (318) 
0.243459768400692

>  <r_i_glide_ecoul>  (318) 
-2.5172302722930899

>  <r_i_glide_eff_state_penalty>  (318) 
1.6605000000000001

>  <r_i_glide_einternal>  (318) 
4.5611324310302699

>  <r_i_glide_emodel>  (318) 
-38.005509224026099

>  <r_i_glide_energy>  (318) 
-36.804351091384902

>  <r_i_glide_erotb>  (318) 
0.57399453886453999

>  <r_i_glide_esite>  (318) 
-0.0399376843394844

>  <r_i_glide_evdw>  (318) 
-34.287120819091797

>  <r_i_glide_gscore>  (318) 
-1.41704023159931

>  <r_i_glide_hbond>  (318) 
0

>  <r_i_glide_ligand_efficiency>  (318) 
0.0071605814235497604

>  <r_i_glide_ligand_efficiency_ln>  (318) 
0.053787091654909101

>  <r_i_glide_ligand_efficiency_sa>  (318) 
0.023197504056472501

>  <r_i_glide_lipo>  (318) 
-1.39203909661475

>  <r_i_glide_metal>  (318) 
-0

>  <r_i_glide_rewards>  (318) 
1.53288259228894

>  <r_lp_Energy>  (318) 
60.992280999999998

>  <r_qp_ACxDN^.5/SA>  (318) 
0

>  <r_qp_CIQPlogS>  (318) 
-6.298

>  <r_qp_EA(eV)>  (318) 
1.0409999999999999

>  <r_qp_FISA>  (318) 
70.396000000000001

>  <r_qp_FOSA>  (318) 
177.33500000000001

>  <r_qp_IP(eV)>  (318) 
8.5630000000000006

>  <r_qp_Jm>  (318) 
0.034324397867765498

>  <r_qp_PISA>  (318) 
418.14999999999998

>  <r_qp_PSA>  (318) 
74.033000000000001

>  <r_qp_PercentHumanOralAbsorption>  (318) 
100

>  <r_qp_QPPCaco>  (318) 
531.17399999999998

>  <r_qp_QPPMDCK>  (318) 
489.23700000000002

>  <r_qp_QPlogBB>  (318) 
-0.014999999999999999

>  <r_qp_QPlogHERG>  (318) 
-6.859

>  <r_qp_QPlogKhsa>  (318) 
0.69399999999999995

>  <r_qp_QPlogKp>  (318) 
-2.734

>  <r_qp_QPlogPC16>  (318) 
14.045999999999999

>  <r_qp_QPlogPo/w>  (318) 
4.9619999999999997

>  <r_qp_QPlogPoct>  (318) 
20.245000000000001

>  <r_qp_QPlogPw>  (318) 
9.1349999999999998

>  <r_qp_QPlogS>  (318) 
-4.391

>  <r_qp_QPpolrz>  (318) 
48.186

>  <r_qp_SASA>  (318) 
711.20299999999997

>  <r_qp_SAamideO>  (318) 
0

>  <r_qp_SAfluorine>  (318) 
45.322000000000003

>  <r_qp_WPSA>  (318) 
45.322000000000003

>  <r_qp_accptHB>  (318) 
6

>  <r_qp_dip^2/V>  (318) 
0.051293800000000001

>  <r_qp_dipole>  (318) 
8.3840000000000003

>  <r_qp_donorHB>  (318) 
0

>  <r_qp_glob>  (318) 
0.83892820000000001

>  <r_qp_mol_MW>  (318) 
458.53399999999999

>  <r_qp_volume>  (318) 
1370.346

>  <r_sd_BIOSOLVEIT.INFINISEE\_FTREES\_SIMILARITY>  (318) 
0.91000000000000003

>  <r_sd_BIOSOLVEIT.LOGP>  (318) 
3.3275000000000001

>  <r_sd_BIOSOLVEIT.MOLECULAR\_WEIGHT>  (318) 
459.54199999999997

>  <r_sd_BIOSOLVEIT.TPSA>  (318) 
69.640000000000001

>  <i_epik_Tot_Q>  (318) 
0

>  <i_epik_Tot_abs_Q>  (318) 
0

>  <i_f3d_flags>  (318) 
0

>  <i_i_glide_confnum>  (318) 
7

>  <i_i_glide_lignum>  (318) 
1242

>  <i_i_glide_posenum>  (318) 
2

>  <i_i_glide_rotatable_bonds>  (318) 
8

>  <i_lp_mmshare_version>  (318) 
65135

>  <i_m_ct_format>  (318) 
2

>  <i_m_source_file_index>  (318) 
2649

>  <i_qp_#NandO>  (318) 
6

>  <i_qp_#acid>  (318) 
0

>  <i_qp_#amide>  (318) 
0

>  <i_qp_#amidine>  (318) 
0

>  <i_qp_#amine>  (318) 
1

>  <i_qp_#in34>  (318) 
0

>  <i_qp_#in56>  (318) 
22

>  <i_qp_#metab>  (318) 
5

>  <i_qp_#nonHatm>  (318) 
34

>  <i_qp_#noncon>  (318) 
0

>  <i_qp_#ringatoms>  (318) 
22

>  <i_qp_#rotor>  (318) 
7

>  <i_qp_#rtvFG>  (318) 
0

>  <i_qp_#stars>  (318) 
0

>  <i_qp_CNS>  (318) 
1

>  <i_qp_HumanOralAbsorption>  (318) 
3

>  <i_qp_RuleOfFive>  (318) 
0

>  <i_qp_RuleOfThree>  (318) 
0

>  <i_sd_BIOSOLVEIT.INFINISEE\_RESULT\_RANK>  (318) 
46297

>  <i_sd_version>  (318) 
0

>  <b_lp_Chiralities_Consistent>  (318) 
1

>  <b_sd_chiral_flag>  (318) 
0

>  <canonical_id>  (318) 
ATP-HTVS-351CA3F2F79F

>  <compound_code>  (318) 
84738

>  <title>  (318) 
rxn512c____EMOL525080____EMOL43362984____EMOL44691345

>  <variant>  (318) 
84738-2

>  <source_file>  (318) 
运行/运行/ATP-VSW/ATP-VSW-DOCK_HTVS_1-002_lib.maegz

>  <canonical_smiles>  (318) 
CN(C)Cc1ccccc1Nc1c(C(=O)N(C)Cc2cccc(F)c2)c(=O)[nH]c2ccccc12

>  <scaffold>  (318) 
O=C(NCc1ccccc1)c1c(Nc2ccccc2)c2ccccc2[nH]c1=O

>  <molecular_formula>  (318) 
C27H27FN4O2

$$$$
ATP-HTVS-35279CDCCBE9
     RDKit          3D

 54 57  0  0  0  0  0  0  0  0999 V2000
  191.2935  189.1799  160.9719 O   0  0  0  0  0  0  0  0  0  0  0  0
  191.6068  189.4241  162.2821 C   0  0  0  0  0  0  0  0  0  0  0  0
  191.6607  188.4301  163.3179 C   0  0  0  0  0  0  0  0  0  0  0  0
  191.9106  188.8274  164.6449 C   0  0  0  0  0  0  0  0  0  0  0  0
  192.1183  190.1876  164.9527 C   0  0  0  0  0  0  0  0  0  0  0  0
  192.1462  191.1549  163.9224 C   0  0  0  0  0  0  0  0  0  0  0  0
  191.9214  190.7629  162.5947 C   0  0  0  0  0  0  0  0  0  0  0  0
  191.5092  186.9386  163.0731 C   0  0  1  0  0  0  0  0  0  0  0  0
  192.7682  186.2989  162.7490 N   0  0  0  0  0  0  0  0  0  0  0  0
  193.0180  186.4859  161.3138 C   0  0  1  0  0  0  0  0  0  0  0  0
  194.4512  186.7776  160.9998 C   0  0  0  0  0  0  0  0  0  0  0  0
  195.4014  186.0931  160.1709 C   0  0  0  0  0  0  0  0  0  0  0  0
  196.5297  186.7660  160.0714 N   0  0  0  0  0  0  0  0  0  0  0  0
  196.3327  187.9139  160.7586 N   0  0  0  0  0  0  0  0  0  0  0  0
  195.0999  187.9397  161.3536 C   0  0  0  0  0  0  0  0  0  0  0  0
  197.4238  188.8774  160.8864 C   0  0  1  0  0  0  0  0  0  0  0  0
  197.5764  189.7133  159.6460 C   0  0  0  0  0  0  0  0  0  0  0  0
  197.1484  191.0547  159.6463 C   0  0  0  0  0  0  0  0  0  0  0  0
  197.3155  191.8310  158.4896 C   0  0  0  0  0  0  0  0  0  0  0  0
  197.9174  191.2754  157.3391 C   0  0  0  0  0  0  0  0  0  0  0  0
  198.3579  189.9359  157.3517 C   0  0  0  0  0  0  0  0  0  0  0  0
  198.1961  189.1554  158.5093 C   0  0  0  0  0  0  0  0  0  0  0  0
  195.2665  184.8076  159.4343 C   0  0  0  0  0  0  0  0  0  0  0  0
  196.4292  184.1929  158.8646 C   0  0  0  0  0  0  0  0  0  0  0  0
  196.3089  182.9360  158.2068 C   0  0  0  0  0  0  0  0  0  0  0  0
  195.0780  182.2578  158.1281 C   0  0  0  0  0  0  0  0  0  0  0  0
  193.9443  182.8852  158.6362 C   0  0  0  0  0  0  0  0  0  0  0  0
  194.0213  184.1388  159.2618 C   0  0  0  0  0  0  0  0  0  0  0  0
  197.5193  182.3059  157.5775 C   0  0  2  0  0  0  0  0  0  0  0  0
  192.6103  185.3097  162.8325 H   0  0  0  0  0  0  0  0  0  0  0  0
  192.0416  189.4131  160.4259 H   0  0  0  0  0  0  0  0  0  0  0  0
  191.9182  188.1009  165.4417 H   0  0  0  0  0  0  0  0  0  0  0  0
  192.2492  190.4991  165.9868 H   0  0  0  0  0  0  0  0  0  0  0  0
  192.2787  192.1960  164.1354 H   0  0  0  0  0  0  0  0  0  0  0  0
  191.9279  191.4766  161.7917 H   0  0  0  0  0  0  0  0  0  0  0  0
  191.1701  186.4496  163.9913 H   0  0  0  0  0  0  0  0  0  0  0  0
  190.7752  186.7247  162.3242 H   0  0  0  0  0  0  0  0  0  0  0  0
  192.6006  185.5704  160.9376 H   0  0  0  0  0  0  0  0  0  0  0  0
  192.4084  187.2405  160.8156 H   0  0  0  0  0  0  0  0  0  0  0  0
  194.8031  188.8046  161.9288 H   0  0  0  0  0  0  0  0  0  0  0  0
  197.2194  189.5063  161.7733 H   0  0  0  0  0  0  0  0  0  0  0  0
  198.3463  188.3175  160.9787 H   0  0  0  0  0  0  0  0  0  0  0  0
  196.6925  191.4556  160.5384 H   0  0  0  0  0  0  0  0  0  0  0  0
  196.9260  192.8357  158.4720 H   0  0  0  0  0  0  0  0  0  0  0  0
  197.9700  191.8560  156.4343 H   0  0  0  0  0  0  0  0  0  0  0  0
  198.7591  189.4906  156.4527 H   0  0  0  0  0  0  0  0  0  0  0  0
  198.5179  188.1218  158.5160 H   0  0  0  0  0  0  0  0  0  0  0  0
  197.3953  184.6655  158.9162 H   0  0  0  0  0  0  0  0  0  0  0  0
  194.9539  181.3221  157.5913 H   0  0  0  0  0  0  0  0  0  0  0  0
  192.9841  182.4351  158.5355 H   0  0  0  0  0  0  0  0  0  0  0  0
  193.0171  184.5124  159.5353 H   0  0  0  0  0  0  0  0  0  0  0  0
  197.2495  181.3047  157.2196 H   0  0  0  0  0  0  0  0  0  0  0  0
  198.2957  182.2331  158.3420 H   0  0  0  0  0  0  0  0  0  0  0  0
  197.8511  182.9333  156.7431 H   0  0  0  0  0  0  0  0  0  0  0  0
  1  2  1  0
  1 31  1  0
  2  3  1  0
  2  7  2  0
  3  4  2  0
  3  8  1  0
  4  5  1  0
  4 32  1  0
  5  6  2  0
  5 33  1  0
  6  7  1  0
  6 34  1  0
  7 35  1  0
  8  9  1  0
  8 36  1  1
  8 37  1  0
  9 10  1  0
  9 30  1  0
 10 11  1  0
 10 38  1  6
 10 39  1  0
 11 12  1  0
 11 15  2  0
 12 13  2  0
 12 23  1  0
 13 14  1  0
 14 15  1  0
 14 16  1  0
 15 40  1  0
 16 17  1  0
 16 41  1  1
 16 42  1  0
 17 18  2  0
 17 22  1  0
 18 19  1  0
 18 43  1  0
 19 20  2  0
 19 44  1  0
 20 21  1  0
 20 45  1  0
 21 22  2  0
 21 46  1  0
 22 47  1  0
 23 24  2  0
 23 28  1  0
 24 25  1  0
 24 48  1  0
 25 26  2  0
 25 29  1  0
 26 27  1  0
 26 49  1  0
 27 28  2  0
 27 50  1  0
 28 51  1  0
 29 52  1  6
 29 53  1  0
 29 54  1  0
M  END
>  <s_epik_cmdline>  (319) 
J2VwaWtfcHl0aG9uJywgJy1waCcsICc3LjAwMDAwMCcsICctcGh0JywgJzIuMDAwMDAwJywgJy1tcycsICcxNicsICctdG4nLCAnOCcsICctbWEnLCAnMjAwJywgJy1pbWFlJywgJzxpbmZpbGUubWFlPicsICctb21hZScsICc8b3V0ZmlsZS5tYWU+Jw==

>  <s_epik_input>  (319) 
W2NIXTFbY0hdW2NIXVtjSF1jKGMxW09IXSlbQ0gyXVtOSF1bQ0gyXWMyYygtYzNbY0hdYyhbQ0gzXSlbY0hdW2NIXVtjSF0zKW5uKFtjSF0yKVtDSDJdYzRbY0hdW2NIXVtjSF1bY0hdW2NIXTQ=

>  <s_i_glide_gridfile>  (319) 
ATP-Grid

>  <s_lp_Force_Field>  (319) 
OPLS_2005

>  <s_lp_Variant>  (319) 
m_207bba____2691116____121435-2

>  <s_lp_label>  (319) 
908_sdstereoexpander_1_neutralizer_1_epik_2_stereoizer_1

>  <s_m_source_file>  (319) 
ATP-VSW-LIGPREP-002-in.maegz

>  <s_sd_BIOSOLVEIT.INFINISEE\_QUERY\_NAME>  (319) 
Ref-Lig

>  <s_sd_BIOSOLVEIT.INFINISEE\_QUERY\_SMILES>  (319) 
S(c1nc2c(cc1C[NH2+]Cc3ccc(cc3)C[NH+](C)C)cccc2)Cc4ccccc4

>  <s_sd_BIOSOLVEIT.INFINISEE\_REACTION\_NAME>  (319) 
m_207bba

>  <s_sd_BIOSOLVEIT.INFINISEE\_REAGENT1\_SMILES>  (319) 
[R1*]NCc1c(O)cccc1

>  <s_sd_BIOSOLVEIT.INFINISEE\_REAGENT2\_SMILES>  (319) 
[R1*]CC=1C(=NN(C1)Cc2ccccc2)c3cc(ccc3)C

>  <s_sd_BIOSOLVEIT.INFINISEE\_SPACE>  (319) 
REALSpace_44bn_2023-08

>  <s_vsw_compound_code>  (319) 
29026

>  <s_vsw_variant>  (319) 
29026-2

>  <r_epik_Charging_Adjusted_Penalty>  (319) 
1.15798616400775

>  <r_epik_Ionization_Penalty>  (319) 
1.2517

>  <r_epik_Ionization_Penalty_Charging>  (319) 
0

>  <r_epik_Ionization_Penalty_Neutral>  (319) 
1.2517

>  <r_epik_State_Penalty>  (319) 
1.1579999999999999

>  <r_i_docking_score>  (319) 
-4.7540023253898402

>  <r_i_glide_ecoul>  (319) 
-7.0661377906799299

>  <r_i_glide_eff_state_penalty>  (319) 
1.1579999999999999

>  <r_i_glide_einternal>  (319) 
4.2543878555297896

>  <r_i_glide_emodel>  (319) 
-57.116114677202297

>  <r_i_glide_energy>  (319) 
-43.581400394439697

>  <r_i_glide_erotb>  (319) 
0.92497868068695799

>  <r_i_glide_esite>  (319) 
0

>  <r_i_glide_evdw>  (319) 
-36.515262603759801

>  <r_i_glide_gscore>  (319) 
-5.9120023253898397

>  <r_i_glide_hbond>  (319) 
-0.53006918126534497

>  <r_i_glide_ligand_efficiency>  (319) 
-0.16393111466861501

>  <r_i_glide_ligand_efficiency_ln>  (319) 
-1.08854598141674

>  <r_i_glide_ligand_efficiency_sa>  (319) 
-0.50364832128451198

>  <r_i_glide_lipo>  (319) 
-2.3893067102111898

>  <r_i_glide_metal>  (319) 
-0

>  <r_i_glide_rewards>  (319) 
-1.03192131581029

>  <r_lp_Energy>  (319) 
20.943038999999999

>  <r_lp_tautomer_probability>  (319) 
0.999999999997365

>  <r_qp_ACxDN^.5/SA>  (319) 
0.0082445999999999995

>  <r_qp_CIQPlogS>  (319) 
-5.7350000000000003

>  <r_qp_EA(eV)>  (319) 
0.28199999999999997

>  <r_qp_FISA>  (319) 
37.463999999999999

>  <r_qp_FOSA>  (319) 
185.31800000000001

>  <r_qp_IP(eV)>  (319) 
8.7249999999999996

>  <r_qp_Jm>  (319) 
0.22876712937329699

>  <r_qp_PISA>  (319) 
420.464

>  <r_qp_PSA>  (319) 
47.417000000000002

>  <r_qp_PercentHumanOralAbsorption>  (319) 
100

>  <r_qp_QPPCaco>  (319) 
1090.26

>  <r_qp_QPPMDCK>  (319) 
600.88999999999999

>  <r_qp_QPlogBB>  (319) 
0.20499999999999999

>  <r_qp_QPlogHERG>  (319) 
-6.468

>  <r_qp_QPlogKhsa>  (319) 
0.88

>  <r_qp_QPlogKp>  (319) 
-2.1190000000000002

>  <r_qp_QPlogPC16>  (319) 
13.35

>  <r_qp_QPlogPo/w>  (319) 
4.9749999999999996

>  <r_qp_QPlogPoct>  (319) 
19.061

>  <r_qp_QPlogPw>  (319) 
9.4610000000000003

>  <r_qp_QPlogS>  (319) 
-4.1050000000000004

>  <r_qp_QPpolrz>  (319) 
42.646999999999998

>  <r_qp_SASA>  (319) 
643.24599999999998

>  <r_qp_SAamideO>  (319) 
0

>  <r_qp_SAfluorine>  (319) 
0

>  <r_qp_WPSA>  (319) 
0

>  <r_qp_accptHB>  (319) 
3.75

>  <r_qp_dip^2/V>  (319) 
0.0081765999999999991

>  <r_qp_dipole>  (319) 
3.173

>  <r_qp_donorHB>  (319) 
2

>  <r_qp_glob>  (319) 
0.86374989999999996

>  <r_qp_mol_MW>  (319) 
383.49200000000002

>  <r_qp_volume>  (319) 
1231.403

>  <r_sd_BIOSOLVEIT.INFINISEE\_FTREES\_SIMILARITY>  (319) 
0.91900000000000004

>  <r_sd_BIOSOLVEIT.LOGP>  (319) 
3.87602

>  <r_sd_BIOSOLVEIT.MOLECULAR\_WEIGHT>  (319) 
384.5

>  <r_sd_BIOSOLVEIT.TPSA>  (319) 
54.659999999999997

>  <i_epik_Tot_Q>  (319) 
0

>  <i_epik_Tot_abs_Q>  (319) 
0

>  <i_f3d_flags>  (319) 
0

>  <i_i_glide_confnum>  (319) 
8

>  <i_i_glide_lignum>  (319) 
287

>  <i_i_glide_posenum>  (319) 
12

>  <i_i_glide_rotatable_bonds>  (319) 
8

>  <i_lp_mmshare_version>  (319) 
65135

>  <i_m_ct_format>  (319) 
2

>  <i_m_source_file_index>  (319) 
908

>  <i_qp_#NandO>  (319) 
4

>  <i_qp_#acid>  (319) 
0

>  <i_qp_#amide>  (319) 
0

>  <i_qp_#amidine>  (319) 
0

>  <i_qp_#amine>  (319) 
1

>  <i_qp_#in34>  (319) 
0

>  <i_qp_#in56>  (319) 
23

>  <i_qp_#metab>  (319) 
6

>  <i_qp_#nonHatm>  (319) 
29

>  <i_qp_#noncon>  (319) 
0

>  <i_qp_#ringatoms>  (319) 
23

>  <i_qp_#rotor>  (319) 
7

>  <i_qp_#rtvFG>  (319) 
0

>  <i_qp_#stars>  (319) 
0

>  <i_qp_CNS>  (319) 
1

>  <i_qp_HumanOralAbsorption>  (319) 
3

>  <i_qp_RuleOfFive>  (319) 
0

>  <i_qp_RuleOfThree>  (319) 
0

>  <i_sd_BIOSOLVEIT.INFINISEE\_REAGENT1\_NAME>  (319) 
2691116

>  <i_sd_BIOSOLVEIT.INFINISEE\_REAGENT2\_NAME>  (319) 
121435

>  <i_sd_BIOSOLVEIT.INFINISEE\_RESULT\_RANK>  (319) 
19384

>  <i_sd_version>  (319) 
0

>  <b_lp_Chiralities_Consistent>  (319) 
1

>  <b_sd_chiral_flag>  (319) 
0

>  <canonical_id>  (319) 
ATP-HTVS-35279CDCCBE9

>  <compound_code>  (319) 
29026

>  <title>  (319) 
m_207bba____2691116____121435

>  <variant>  (319) 
29026-2

>  <source_file>  (319) 
运行/运行/ATP-VSW/ATP-VSW-DOCK_HTVS_1-002_lib.maegz

>  <canonical_smiles>  (319) 
Cc1cccc(-c2nn(Cc3ccccc3)cc2CNCc2ccccc2O)c1

>  <scaffold>  (319) 
c1ccc(CNCc2cn(Cc3ccccc3)nc2-c2ccccc2)cc1

>  <molecular_formula>  (319) 
C25H25N3O

$$$$
ATP-HTVS-354B8B3BDEB4
     RDKit          3D

 51 54  0  0  0  0  0  0  0  0999 V2000
  194.3858  186.5721  160.9965 Cl  0  0  0  0  0  0  0  0  0  0  0  0
  195.1586  185.5541  159.8225 C   0  0  0  0  0  0  0  0  0  0  0  0
  196.1711  186.0376  158.9663 C   0  0  0  0  0  0  0  0  0  0  0  0
  196.7490  185.1496  158.0242 C   0  0  0  0  0  0  0  0  0  0  0  0
  196.3738  183.7950  157.9616 C   0  0  0  0  0  0  0  0  0  0  0  0
  196.9716  182.8775  157.0742 N   0  0  0  0  0  0  0  0  0  0  0  0
  198.2831  183.1968  156.5163 C   0  0  1  0  0  0  0  0  0  0  0  0
  198.7608  181.9478  155.8128 C   0  0  0  0  0  0  0  0  0  0  0  0
  199.9532  181.1904  156.0627 C   0  0  0  0  0  0  0  0  0  0  0  0
  200.0839  180.1373  155.2835 N   0  0  0  0  0  0  0  0  0  0  0  0
  198.9882  180.1695  154.4731 N   0  0  0  0  0  0  0  0  0  0  0  0
  198.1718  181.2809  154.7669 C   0  0  0  0  0  0  0  0  0  0  0  0
  197.0052  181.4580  153.9719 C   0  0  0  0  0  0  0  0  0  0  0  0
  196.7198  180.5545  152.9709 C   0  0  0  0  0  0  0  0  0  0  0  0
  197.5688  179.4495  152.7313 C   0  0  0  0  0  0  0  0  0  0  0  0
  198.7041  179.2680  153.4913 C   0  0  0  0  0  0  0  0  0  0  0  0
  201.0106  181.4572  157.0529 C   0  0  0  0  0  0  0  0  0  0  0  0
  201.7769  180.3946  157.6005 C   0  0  0  0  0  0  0  0  0  0  0  0
  202.7655  180.6394  158.5747 C   0  0  0  0  0  0  0  0  0  0  0  0
  202.9868  181.9507  159.0353 C   0  0  0  0  0  0  0  0  0  0  0  0
  202.2457  183.0167  158.4855 C   0  0  0  0  0  0  0  0  0  0  0  0
  201.2840  182.7790  157.4799 C   0  0  0  0  0  0  0  0  0  0  0  0
  195.3629  183.3224  158.8250 C   0  0  0  0  0  0  0  0  0  0  0  0
  194.7468  184.2048  159.7314 C   0  0  0  0  0  0  0  0  0  0  0  0
  196.6582  187.4877  159.0240 C   0  0  1  0  0  0  0  0  0  0  0  0
  197.9570  187.6597  159.6799 N   0  0  0  0  0  0  0  0  0  0  0  0
  198.2711  189.0780  159.8216 C   0  0  2  0  0  0  0  0  0  0  0  0
  199.0397  187.0386  158.9219 C   0  0  2  0  0  0  0  0  0  0  0  0
  197.5057  185.5461  157.3601 H   0  0  0  0  0  0  0  0  0  0  0  0
  196.7525  181.8945  157.1846 H   0  0  0  0  0  0  0  0  0  0  0  0
  198.1847  184.0178  155.8001 H   0  0  0  0  0  0  0  0  0  0  0  0
  198.9382  183.5085  157.3062 H   0  0  0  0  0  0  0  0  0  0  0  0
  196.3544  182.3035  154.1679 H   0  0  0  0  0  0  0  0  0  0  0  0
  195.8231  180.6884  152.3719 H   0  0  0  0  0  0  0  0  0  0  0  0
  197.3212  178.7289  151.9524 H   0  0  0  0  0  0  0  0  0  0  0  0
  199.3911  178.4374  153.3568 H   0  0  0  0  0  0  0  0  0  0  0  0
  201.6146  179.3739  157.2712 H   0  0  0  0  0  0  0  0  0  0  0  0
  203.3605  179.8245  158.9592 H   0  0  0  0  0  0  0  0  0  0  0  0
  203.7410  182.1411  159.7901 H   0  0  0  0  0  0  0  0  0  0  0  0
  202.4154  184.0237  158.8364 H   0  0  0  0  0  0  0  0  0  0  0  0
  200.7577  183.6093  157.0469 H   0  0  0  0  0  0  0  0  0  0  0  0
  195.0578  182.2866  158.7894 H   0  0  0  0  0  0  0  0  0  0  0  0
  193.9552  183.8396  160.3685 H   0  0  0  0  0  0  0  0  0  0  0  0
  196.7037  187.8851  158.0077 H   0  0  0  0  0  0  0  0  0  0  0  0
  195.9192  188.1063  159.5381 H   0  0  0  0  0  0  0  0  0  0  0  0
  199.2525  189.2010  160.2812 H   0  0  0  0  0  0  0  0  0  0  0  0
  197.5488  189.5869  160.4622 H   0  0  0  0  0  0  0  0  0  0  0  0
  198.2910  189.5798  158.8536 H   0  0  0  0  0  0  0  0  0  0  0  0
  200.0108  187.2337  159.3859 H   0  0  0  0  0  0  0  0  0  0  0  0
  199.0658  187.4385  157.9094 H   0  0  0  0  0  0  0  0  0  0  0  0
  198.9001  185.9589  158.8578 H   0  0  0  0  0  0  0  0  0  0  0  0
  1  2  1  0
  2  3  2  0
  2 24  1  0
  3  4  1  0
  3 25  1  0
  4  5  2  0
  4 29  1  0
  5  6  1  0
  5 23  1  0
  6  7  1  0
  6 30  1  0
  7  8  1  0
  7 31  1  6
  7 32  1  0
  8  9  1  0
  8 12  2  0
  9 10  2  0
  9 17  1  0
 10 11  1  0
 11 12  1  0
 11 16  1  0
 12 13  1  0
 13 14  2  0
 13 33  1  0
 14 15  1  0
 14 34  1  0
 15 16  2  0
 15 35  1  0
 16 36  1  0
 17 18  2  0
 17 22  1  0
 18 19  1  0
 18 37  1  0
 19 20  2  0
 19 38  1  0
 20 21  1  0
 20 39  1  0
 21 22  2  0
 21 40  1  0
 22 41  1  0
 23 24  2  0
 23 42  1  0
 24 43  1  0
 25 26  1  0
 25 44  1  6
 25 45  1  0
 26 27  1  0
 26 28  1  0
 27 46  1  1
 27 47  1  0
 27 48  1  0
 28 49  1  1
 28 50  1  0
 28 51  1  0
M  END
>  <s_epik_cmdline>  (320) 
J2VwaWtfcHl0aG9uJywgJy1waCcsICc3LjAwMDAwMCcsICctcGh0JywgJzIuMDAwMDAwJywgJy1tcycsICcxNicsICctdG4nLCAnOCcsICctbWEnLCAnMjAwJywgJy1pbWFlJywgJzxpbmZpbGUubWFlPicsICctb21hZScsICc8b3V0ZmlsZS5tYWU+Jw==

>  <s_epik_input>  (320) 
W0NIM11OKFtDSDNdKVtDSDJdYyhjMUNsKVtjSF1jKFtjSF1bY0hdMSlbTkhdW0NIMl1jKGMobjIzKVtjSF1bY0hdW2NIXVtjSF0zKWMobjIpLWM0W2NIXVtjSF1bY0hdW2NIXVtjSF00

>  <s_i_glide_gridfile>  (320) 
ATP-Grid

>  <s_lp_Force_Field>  (320) 
OPLS_2005

>  <s_lp_Variant>  (320) 
m_270004bbb____9746926____16711616-2

>  <s_lp_label>  (320) 
1954_sdstereoexpander_1_neutralizer_1_epik_2_stereoizer_1

>  <s_m_source_file>  (320) 
ATP-VSW-LIGPREP-002-in.maegz

>  <s_sd_BIOSOLVEIT.INFINISEE\_QUERY\_NAME>  (320) 
Ref-Lig

>  <s_sd_BIOSOLVEIT.INFINISEE\_QUERY\_SMILES>  (320) 
S(c1nc2c(cc1C[NH2+]Cc3ccc(cc3)C[NH+](C)C)cccc2)Cc4ccccc4

>  <s_sd_BIOSOLVEIT.INFINISEE\_REACTION\_NAME>  (320) 
m_270004bbb

>  <s_sd_BIOSOLVEIT.INFINISEE\_REAGENT1\_SMILES>  (320) 
[R1*]Nc1cc(c(Cl)cc1)CN(C)C

>  <s_sd_BIOSOLVEIT.INFINISEE\_REAGENT2\_SMILES>  (320) 
[R1*]CC=1C(=NN2C1C=CC=C2)c3ccccc3

>  <s_sd_BIOSOLVEIT.INFINISEE\_SPACE>  (320) 
REALSpace_44bn_2023-08

>  <s_vsw_compound_code>  (320) 
62498

>  <s_vsw_variant>  (320) 
62498-2

>  <r_epik_Charging_Adjusted_Penalty>  (320) 
1.4475900270281199

>  <r_epik_Ionization_Penalty>  (320) 
1.4477

>  <r_epik_Ionization_Penalty_Charging>  (320) 
0

>  <r_epik_Ionization_Penalty_Neutral>  (320) 
1.4477

>  <r_epik_State_Penalty>  (320) 
1.4476

>  <r_i_docking_score>  (320) 
-2.1618940340984101

>  <r_i_glide_ecoul>  (320) 
-1.99981248378754

>  <r_i_glide_eff_state_penalty>  (320) 
1.4476

>  <r_i_glide_einternal>  (320) 
0.68757891654968295

>  <r_i_glide_emodel>  (320) 
-41.065142819434499

>  <r_i_glide_energy>  (320) 
-33.6608613729477

>  <r_i_glide_erotb>  (320) 
0.63835311453673205

>  <r_i_glide_esite>  (320) 
-0.048441348482557899

>  <r_i_glide_evdw>  (320) 
-31.661048889160199

>  <r_i_glide_gscore>  (320) 
-3.6094940340984101

>  <r_i_glide_hbond>  (320) 
0

>  <r_i_glide_ligand_efficiency>  (320) 
-0.077210501217800306

>  <r_i_glide_ligand_efficiency_ln>  (320) 
-0.499028619036957

>  <r_i_glide_ligand_efficiency_sa>  (320) 
-0.23445655625054601

>  <r_i_glide_lipo>  (320) 
-1.57257389221736

>  <r_i_glide_metal>  (320) 
-0

>  <r_i_glide_rewards>  (320) 
-0.74380759090908999

>  <r_lp_Energy>  (320) 
22.729858

>  <r_qp_ACxDN^.5/SA>  (320) 
0.0064381999999999998

>  <r_qp_CIQPlogS>  (320) 
-5.7750000000000004

>  <r_qp_EA(eV)>  (320) 
0.65600000000000003

>  <r_qp_FISA>  (320) 
30.388999999999999

>  <r_qp_FOSA>  (320) 
158.322

>  <r_qp_IP(eV)>  (320) 
8.0860000000000003

>  <r_qp_Jm>  (320) 
0.081789588861912704

>  <r_qp_PISA>  (320) 
377.21100000000001

>  <r_qp_PSA>  (320) 
31.058

>  <r_qp_PercentHumanOralAbsorption>  (320) 
100

>  <r_qp_QPPCaco>  (320) 
1272.384

>  <r_qp_QPPMDCK>  (320) 
1427.625

>  <r_qp_QPlogBB>  (320) 
0.52900000000000003

>  <r_qp_QPlogHERG>  (320) 
-6.1539999999999999

>  <r_qp_QPlogKhsa>  (320) 
0.86299999999999999

>  <r_qp_QPlogKp>  (320) 
-2.3330000000000002

>  <r_qp_QPlogPC16>  (320) 
12.734999999999999

>  <r_qp_QPlogPo/w>  (320) 
4.9630000000000001

>  <r_qp_QPlogPoct>  (320) 
17.704000000000001

>  <r_qp_QPlogPw>  (320) 
8.3079999999999998

>  <r_qp_QPlogS>  (320) 
-4.3460000000000001

>  <r_qp_QPpolrz>  (320) 
41.558999999999997

>  <r_qp_SASA>  (320) 
621.28999999999996

>  <r_qp_SAamideO>  (320) 
0

>  <r_qp_SAfluorine>  (320) 
0

>  <r_qp_WPSA>  (320) 
55.368000000000002

>  <r_qp_accptHB>  (320) 
4

>  <r_qp_dip^2/V>  (320) 
0.015686200000000001

>  <r_qp_dipole>  (320) 
4.3070000000000004

>  <r_qp_donorHB>  (320) 
1

>  <r_qp_glob>  (320) 
0.87041029999999997

>  <r_qp_mol_MW>  (320) 
390.91399999999999

>  <r_qp_volume>  (320) 
1182.443

>  <r_sd_BIOSOLVEIT.INFINISEE\_FTREES\_SIMILARITY>  (320) 
0.90200000000000002

>  <r_sd_BIOSOLVEIT.LOGP>  (320) 
3.9113000000000002

>  <r_sd_BIOSOLVEIT.MOLECULAR\_WEIGHT>  (320) 
391.92399999999998

>  <r_sd_BIOSOLVEIT.TPSA>  (320) 
34.289999999999999

>  <i_epik_Tot_Q>  (320) 
0

>  <i_epik_Tot_abs_Q>  (320) 
0

>  <i_f3d_flags>  (320) 
0

>  <i_i_glide_confnum>  (320) 
5

>  <i_i_glide_lignum>  (320) 
706

>  <i_i_glide_posenum>  (320) 
2

>  <i_i_glide_rotatable_bonds>  (320) 
6

>  <i_lp_mmshare_version>  (320) 
65135

>  <i_m_ct_format>  (320) 
2

>  <i_m_source_file_index>  (320) 
1954

>  <i_qp_#NandO>  (320) 
4

>  <i_qp_#acid>  (320) 
0

>  <i_qp_#amide>  (320) 
0

>  <i_qp_#amidine>  (320) 
0

>  <i_qp_#amine>  (320) 
1

>  <i_qp_#in34>  (320) 
0

>  <i_qp_#in56>  (320) 
21

>  <i_qp_#metab>  (320) 
5

>  <i_qp_#nonHatm>  (320) 
28

>  <i_qp_#noncon>  (320) 
0

>  <i_qp_#ringatoms>  (320) 
21

>  <i_qp_#rotor>  (320) 
5

>  <i_qp_#rtvFG>  (320) 
0

>  <i_qp_#stars>  (320) 
0

>  <i_qp_CNS>  (320) 
2

>  <i_qp_HumanOralAbsorption>  (320) 
3

>  <i_qp_RuleOfFive>  (320) 
0

>  <i_qp_RuleOfThree>  (320) 
0

>  <i_sd_BIOSOLVEIT.INFINISEE\_REAGENT1\_NAME>  (320) 
9746926

>  <i_sd_BIOSOLVEIT.INFINISEE\_REAGENT2\_NAME>  (320) 
16711616

>  <i_sd_BIOSOLVEIT.INFINISEE\_RESULT\_RANK>  (320) 
87770

>  <i_sd_version>  (320) 
0

>  <b_lp_Chiralities_Consistent>  (320) 
1

>  <b_sd_chiral_flag>  (320) 
0

>  <canonical_id>  (320) 
ATP-HTVS-354B8B3BDEB4

>  <compound_code>  (320) 
62498

>  <title>  (320) 
m_270004bbb____9746926____16711616

>  <variant>  (320) 
62498-2

>  <source_file>  (320) 
运行/运行/ATP-VSW/ATP-VSW-DOCK_HTVS_1-002_lib.maegz

>  <canonical_smiles>  (320) 
CN(C)Cc1cc(NCc2c(-c3ccccc3)nn3ccccc23)ccc1Cl

>  <scaffold>  (320) 
c1ccc(NCc2c(-c3ccccc3)nn3ccccc23)cc1

>  <molecular_formula>  (320) 
C23H23ClN4

$$$$
ATP-HTVS-3565F86F920E
     RDKit          3D

 57 61  0  0  0  0  0  0  0  0999 V2000
  201.1369  177.0538  156.2619 S   0  0  0  0  0  0  0  0  0  0  0  0
  201.7979  175.5970  155.5444 C   0  0  0  0  0  0  0  0  0  0  0  0
  201.3509  175.4721  154.1990 C   0  0  0  0  0  0  0  0  0  0  0  0
  200.5381  176.4931  153.7407 N   0  0  0  0  0  0  0  0  0  0  0  0
  200.3457  177.4086  154.7111 C   0  0  0  0  0  0  0  0  0  0  0  0
  199.5403  178.6157  154.5360 C   0  0  0  0  0  0  0  0  0  0  0  0
  198.9852  178.8015  153.3118 N   0  0  0  0  0  0  0  0  0  0  0  0
  198.1885  179.8606  153.0782 C   0  0  0  0  0  0  0  0  0  0  0  0
  197.9184  180.8263  154.0886 C   0  0  0  0  0  0  0  0  0  0  0  0
  198.5090  180.6478  155.3708 C   0  0  0  0  0  0  0  0  0  0  0  0
  199.3441  179.5388  155.5867 C   0  0  0  0  0  0  0  0  0  0  0  0
  198.3260  181.6195  156.5059 C   0  0  0  0  0  0  0  0  0  0  0  0
  199.3068  182.0968  157.0816 O   0  0  0  0  0  0  0  0  0  0  0  0
  197.0618  181.8793  156.8441 N   0  0  0  0  0  0  0  0  0  0  0  0
  196.6355  182.7885  157.8977 C   0  0  1  0  0  0  0  0  0  0  0  0
  196.9875  184.2856  157.6817 C   0  0  0  0  0  0  0  0  0  0  0  0
  196.9544  185.2386  158.7335 C   0  0  0  0  0  0  0  0  0  0  0  0
  197.2955  186.6028  158.4718 C   0  0  0  0  0  0  0  0  0  0  0  0
  197.5557  187.0502  157.1655 C   0  0  0  0  0  0  0  0  0  0  0  0
  197.5717  186.1255  156.1203 C   0  0  0  0  0  0  0  0  0  0  0  0
  197.3257  184.7638  156.3813 C   0  0  0  0  0  0  0  0  0  0  0  0
  196.5135  184.8695  160.1638 C   0  0  1  0  0  0  0  0  0  0  0  0
  195.1282  185.2256  160.4983 N   0  0  0  0  0  0  0  0  0  0  0  0
  194.1595  184.5188  159.6641 C   0  0  2  0  0  0  0  0  0  0  0  0
  194.8627  186.6593  160.4587 C   0  0  2  0  0  0  0  0  0  0  0  0
  197.0733  181.9231  153.7711 C   0  0  0  0  0  0  0  0  0  0  0  0
  196.5605  182.1031  152.4743 C   0  0  0  0  0  0  0  0  0  0  0  0
  196.7889  181.1422  151.4927 C   0  0  0  0  0  0  0  0  0  0  0  0
  197.5897  180.0191  151.7951 C   0  0  0  0  0  0  0  0  0  0  0  0
  201.7654  174.3376  153.4650 C   0  0  0  0  0  0  0  0  0  0  0  0
  202.5985  173.3629  154.0508 C   0  0  0  0  0  0  0  0  0  0  0  0
  203.0369  173.5156  155.3803 C   0  0  0  0  0  0  0  0  0  0  0  0
  202.6418  174.6354  156.1273 C   0  0  0  0  0  0  0  0  0  0  0  0
  199.7934  179.4019  156.5599 H   0  0  0  0  0  0  0  0  0  0  0  0
  196.3457  181.3043  156.4189 H   0  0  0  0  0  0  0  0  0  0  0  0
  195.5538  182.6732  157.9809 H   0  0  0  0  0  0  0  0  0  0  0  0
  197.0638  182.3859  158.8141 H   0  0  0  0  0  0  0  0  0  0  0  0
  197.3028  187.3274  159.2744 H   0  0  0  0  0  0  0  0  0  0  0  0
  197.7380  188.1012  156.9672 H   0  0  0  0  0  0  0  0  0  0  0  0
  197.7863  186.4220  155.1061 H   0  0  0  0  0  0  0  0  0  0  0  0
  197.4183  184.1167  155.5365 H   0  0  0  0  0  0  0  0  0  0  0  0
  196.6414  183.8029  160.3657 H   0  0  0  0  0  0  0  0  0  0  0  0
  197.1920  185.3720  160.8574 H   0  0  0  0  0  0  0  0  0  0  0  0
  193.1406  184.7789  159.9500 H   0  0  0  0  0  0  0  0  0  0  0  0
  194.2690  183.4380  159.7628 H   0  0  0  0  0  0  0  0  0  0  0  0
  194.2776  184.7761  158.6103 H   0  0  0  0  0  0  0  0  0  0  0  0
  193.8613  186.8971  160.8219 H   0  0  0  0  0  0  0  0  0  0  0  0
  194.9070  187.0433  159.4397 H   0  0  0  0  0  0  0  0  0  0  0  0
  195.5990  187.1833  161.0713 H   0  0  0  0  0  0  0  0  0  0  0  0
  196.7374  182.6391  154.4963 H   0  0  0  0  0  0  0  0  0  0  0  0
  195.9473  182.9801  152.3015 H   0  0  0  0  0  0  0  0  0  0  0  0
  196.3260  181.2571  150.5154 H   0  0  0  0  0  0  0  0  0  0  0  0
  197.7596  179.2597  151.0503 H   0  0  0  0  0  0  0  0  0  0  0  0
  201.4327  174.2180  152.4461 H   0  0  0  0  0  0  0  0  0  0  0  0
  202.8976  172.4885  153.4892 H   0  0  0  0  0  0  0  0  0  0  0  0
  203.6619  172.7489  155.8220 H   0  0  0  0  0  0  0  0  0  0  0  0
  202.9628  174.7545  157.1551 H   0  0  0  0  0  0  0  0  0  0  0  0
  1  2  1  0
  1  5  1  0
  2  3  1  0
  2 33  2  0
  3  4  1  0
  3 30  2  0
  4  5  2  0
  5  6  1  0
  6  7  2  0
  6 11  1  0
  7  8  1  0
  8  9  1  0
  8 29  2  0
  9 10  1  0
  9 26  2  0
 10 11  2  0
 10 12  1  0
 11 34  1  0
 12 13  2  0
 12 14  1  0
 14 15  1  0
 14 35  1  0
 15 16  1  0
 15 36  1  1
 15 37  1  0
 16 17  1  0
 16 21  2  0
 17 18  2  0
 17 22  1  0
 18 19  1  0
 18 38  1  0
 19 20  2  0
 19 39  1  0
 20 21  1  0
 20 40  1  0
 21 41  1  0
 22 23  1  0
 22 42  1  6
 22 43  1  0
 23 24  1  0
 23 25  1  0
 24 44  1  1
 24 45  1  0
 24 46  1  0
 25 47  1  1
 25 48  1  0
 25 49  1  0
 26 27  1  0
 26 50  1  0
 27 28  2  0
 27 51  1  0
 28 29  1  0
 28 52  1  0
 29 53  1  0
 30 31  1  0
 30 54  1  0
 31 32  2  0
 31 55  1  0
 32 33  1  0
 32 56  1  0
 33 57  1  0
M  END
>  <s_epik_cmdline>  (321) 
J2VwaWtfcHl0aG9uJywgJy1waCcsICc3LjAwMDAwMCcsICctcGh0JywgJzIuMDAwMDAwJywgJy1tcycsICcxNicsICctdG4nLCAnOCcsICctbWEnLCAnMjAwJywgJy1pbWFlJywgJzxpbmZpbGUubWFlPicsICctb21hZScsICc8b3V0ZmlsZS5tYWU+Jw==

>  <s_epik_input>  (321) 
W2NIXTFbY0hdW2NIXVtjSF1jKGMxMiluYyhzMiktYyhuMylbY0hdYyhjKGMzNClbY0hdW2NIXVtjSF1bY0hdNClDKD1PKVtOSF1bQ0gyXWM1YyhbQ0gyXU4oW0NIM10pW0NIM10pW2NIXVtjSF1bY0hdW2NIXTU=

>  <s_i_glide_gridfile>  (321) 
ATP-Grid

>  <s_lp_Force_Field>  (321) 
OPLS_2005

>  <s_lp_Variant>  (321) 
m_527bbb____859864____334622-2

>  <s_lp_label>  (321) 
1476_sdstereoexpander_1_neutralizer_1_epik_2_stereoizer_1

>  <s_m_source_file>  (321) 
ATP-VSW-LIGPREP-003-in.maegz

>  <s_sd_BIOSOLVEIT.INFINISEE\_QUERY\_NAME>  (321) 
Ref-Lig

>  <s_sd_BIOSOLVEIT.INFINISEE\_QUERY\_SMILES>  (321) 
S(c1nc2c(cc1C[NH2+]Cc3ccc(cc3)C[NH+](C)C)cccc2)Cc4ccccc4

>  <s_sd_BIOSOLVEIT.INFINISEE\_REACTION\_NAME>  (321) 
m_527bbb

>  <s_sd_BIOSOLVEIT.INFINISEE\_REAGENT1\_SMILES>  (321) 
[R1*]NCc1c(cccc1)CN(C)C

>  <s_sd_BIOSOLVEIT.INFINISEE\_REAGENT2\_SMILES>  (321) 
[R1*]C(=O)c1c2c(nc(c1)C=3Sc4c(N3)cccc4)cccc2

>  <s_sd_BIOSOLVEIT.INFINISEE\_SPACE>  (321) 
REALSpace_44bn_2023-08

>  <s_vsw_compound_code>  (321) 
47203

>  <s_vsw_variant>  (321) 
47203-2

>  <r_epik_Charging_Adjusted_Penalty>  (321) 
1.5455454299168001

>  <r_epik_Ionization_Penalty>  (321) 
1.5456000000000001

>  <r_epik_Ionization_Penalty_Charging>  (321) 
0

>  <r_epik_Ionization_Penalty_Neutral>  (321) 
1.5456000000000001

>  <r_epik_State_Penalty>  (321) 
1.5455000000000001

>  <r_i_docking_score>  (321) 
-3.316784259701

>  <r_i_glide_ecoul>  (321) 
-5.0323548316955602

>  <r_i_glide_eff_state_penalty>  (321) 
1.5455000000000001

>  <r_i_glide_einternal>  (321) 
7.5216436386108398

>  <r_i_glide_emodel>  (321) 
-58.733809113122902

>  <r_i_glide_energy>  (321) 
-47.4121766090393

>  <r_i_glide_erotb>  (321) 
0.58781595850275503

>  <r_i_glide_esite>  (321) 
-0.10282342858765101

>  <r_i_glide_evdw>  (321) 
-42.3798217773438

>  <r_i_glide_gscore>  (321) 
-4.8622842597010001

>  <r_i_glide_hbond>  (321) 
0

>  <r_i_glide_ligand_efficiency>  (321) 
-0.100508613930333

>  <r_i_glide_ligand_efficiency_ln>  (321) 
-0.73763564596770603

>  <r_i_glide_ligand_efficiency_sa>  (321) 
-0.32238482926610101

>  <r_i_glide_lipo>  (321) 
-2.1500574305400399

>  <r_i_glide_metal>  (321) 
-0

>  <r_i_glide_rewards>  (321) 
-0.32337504545454498

>  <r_lp_Energy>  (321) 
31.654119000000001

>  <r_qp_ACxDN^.5/SA>  (321) 
0.0087839000000000007

>  <r_qp_CIQPlogS>  (321) 
-6.0609999999999999

>  <r_qp_EA(eV)>  (321) 
1.4910000000000001

>  <r_qp_FISA>  (321) 
72.489000000000004

>  <r_qp_FOSA>  (321) 
185.05600000000001

>  <r_qp_IP(eV)>  (321) 
8.9830000000000005

>  <r_qp_Jm>  (321) 
0.00056981654038662402

>  <r_qp_PISA>  (321) 
505.67599999999999

>  <r_qp_PSA>  (321) 
62.109999999999999

>  <r_qp_PercentHumanOralAbsorption>  (321) 
100

>  <r_qp_QPPCaco>  (321) 
507.44400000000002

>  <r_qp_QPPMDCK>  (321) 
402.11500000000001

>  <r_qp_QPlogBB>  (321) 
-0.072999999999999995

>  <r_qp_QPlogHERG>  (321) 
-8.4000000000000004

>  <r_qp_QPlogKhsa>  (321) 
0.874

>  <r_qp_QPlogKp>  (321) 
-2.657

>  <r_qp_QPlogPC16>  (321) 
16.219000000000001

>  <r_qp_QPlogPo/w>  (321) 
4.9829999999999997

>  <r_qp_QPlogPoct>  (321) 
23.199999999999999

>  <r_qp_QPlogPw>  (321) 
12.837999999999999

>  <r_qp_QPlogS>  (321) 
-6.2430000000000003

>  <r_qp_QPpolrz>  (321) 
52.603999999999999

>  <r_qp_SASA>  (321) 
796.91200000000003

>  <r_qp_SAamideO>  (321) 
0

>  <r_qp_SAfluorine>  (321) 
0

>  <r_qp_WPSA>  (321) 
33.691000000000003

>  <r_qp_accptHB>  (321) 
7

>  <r_qp_dip^2/V>  (321) 
0.018794499999999999

>  <r_qp_dipole>  (321) 
5.1799999999999997

>  <r_qp_donorHB>  (321) 
1

>  <r_qp_glob>  (321) 
0.76947030000000005

>  <r_qp_mol_MW>  (321) 
452.57299999999998

>  <r_qp_volume>  (321) 
1427.761

>  <r_sd_BIOSOLVEIT.INFINISEE\_FTREES\_SIMILARITY>  (321) 
0.90700000000000003

>  <r_sd_BIOSOLVEIT.LOGP>  (321) 
4.0860000000000003

>  <r_sd_BIOSOLVEIT.MOLECULAR\_WEIGHT>  (321) 
453.58699999999999

>  <r_sd_BIOSOLVEIT.TPSA>  (321) 
59.32

>  <i_epik_Tot_Q>  (321) 
0

>  <i_epik_Tot_abs_Q>  (321) 
0

>  <i_f3d_flags>  (321) 
0

>  <i_i_glide_confnum>  (321) 
10

>  <i_i_glide_lignum>  (321) 
566

>  <i_i_glide_posenum>  (321) 
11

>  <i_i_glide_rotatable_bonds>  (321) 
7

>  <i_lp_mmshare_version>  (321) 
65135

>  <i_m_ct_format>  (321) 
2

>  <i_m_source_file_index>  (321) 
1476

>  <i_qp_#NandO>  (321) 
5

>  <i_qp_#acid>  (321) 
0

>  <i_qp_#amide>  (321) 
0

>  <i_qp_#amidine>  (321) 
0

>  <i_qp_#amine>  (321) 
1

>  <i_qp_#in34>  (321) 
0

>  <i_qp_#in56>  (321) 
25

>  <i_qp_#metab>  (321) 
4

>  <i_qp_#nonHatm>  (321) 
33

>  <i_qp_#noncon>  (321) 
0

>  <i_qp_#ringatoms>  (321) 
25

>  <i_qp_#rotor>  (321) 
5

>  <i_qp_#rtvFG>  (321) 
0

>  <i_qp_#stars>  (321) 
1

>  <i_qp_CNS>  (321) 
1

>  <i_qp_HumanOralAbsorption>  (321) 
1

>  <i_qp_RuleOfFive>  (321) 
0

>  <i_qp_RuleOfThree>  (321) 
1

>  <i_sd_BIOSOLVEIT.INFINISEE\_REAGENT1\_NAME>  (321) 
859864

>  <i_sd_BIOSOLVEIT.INFINISEE\_REAGENT2\_NAME>  (321) 
334622

>  <i_sd_BIOSOLVEIT.INFINISEE\_RESULT\_RANK>  (321) 
57778

>  <i_sd_version>  (321) 
0

>  <b_lp_Chiralities_Consistent>  (321) 
1

>  <b_sd_chiral_flag>  (321) 
0

>  <canonical_id>  (321) 
ATP-HTVS-3565F86F920E

>  <compound_code>  (321) 
47203

>  <title>  (321) 
m_527bbb____859864____334622

>  <variant>  (321) 
47203-2

>  <source_file>  (321) 
运行/运行/ATP-VSW/ATP-VSW-DOCK_HTVS_1-003_lib/ATP-VSW-DOCK_HTVS_1-003_lib.mae

>  <canonical_smiles>  (321) 
CN(C)Cc1ccccc1CNC(=O)c1cc(-c2nc3ccccc3s2)nc2ccccc12

>  <scaffold>  (321) 
O=C(NCc1ccccc1)c1cc(-c2nc3ccccc3s2)nc2ccccc12

>  <molecular_formula>  (321) 
C27H24N4OS

$$$$
ATP-HTVS-357411F5F88B
     RDKit          3D

 64 67  0  0  0  0  0  0  0  0999 V2000
  195.9668  181.6074  152.1289 O   0  0  0  0  0  0  0  0  0  0  0  0
  196.8345  180.7702  152.3747 C   0  0  0  0  0  0  0  0  0  0  0  0
  197.5206  180.7372  153.5259 N   0  0  0  0  0  0  0  0  0  0  0  0
  197.2998  181.5488  154.6720 C   0  0  0  0  0  0  0  0  0  0  0  0
  197.4156  182.9704  154.6464 C   0  0  0  0  0  0  0  0  0  0  0  0
  197.7481  183.6060  153.4472 N   0  0  0  0  0  0  0  0  0  0  0  0
  199.0813  184.1910  153.3855 C   0  0  1  0  0  0  0  0  0  0  0  0
  199.3835  184.6941  151.9984 C   0  0  0  0  0  0  0  0  0  0  0  0
  200.4325  184.1165  151.2592 C   0  0  0  0  0  0  0  0  0  0  0  0
  200.7339  184.5946  149.9688 C   0  0  0  0  0  0  0  0  0  0  0  0
  199.9783  185.6485  149.4084 C   0  0  0  0  0  0  0  0  0  0  0  0
  198.9208  186.2207  150.1495 C   0  0  0  0  0  0  0  0  0  0  0  0
  198.6264  185.7433  151.4398 C   0  0  0  0  0  0  0  0  0  0  0  0
  200.3075  186.1539  148.0150 C   0  0  1  0  0  0  0  0  0  0  0  0
  199.3897  185.6031  146.9881 N   0  0  1  0  0  0  0  0  0  0  0  0
  199.5231  186.3136  145.6972 C   0  0  2  0  0  0  0  0  0  0  0  0
  199.4976  184.1334  146.8238 C   0  0  2  0  0  0  0  0  0  0  0  0
  197.2215  183.6975  155.8516 C   0  0  0  0  0  0  0  0  0  0  0  0
  196.9548  182.9901  157.0551 C   0  0  0  0  0  0  0  0  0  0  0  0
  196.8638  181.6357  157.0176 N   0  0  0  0  0  0  0  0  0  0  0  0
  197.0286  180.9147  155.8948 C   0  0  0  0  0  0  0  0  0  0  0  0
  196.7832  183.6853  158.2742 C   0  0  0  0  0  0  0  0  0  0  0  0
  196.8821  185.0947  158.2945 C   0  0  0  0  0  0  0  0  0  0  0  0
  197.1371  185.8018  157.1018 C   0  0  0  0  0  0  0  0  0  0  0  0
  197.2693  185.1129  155.8817 C   0  0  0  0  0  0  0  0  0  0  0  0
  197.2478  179.7791  151.3222 C   0  0  0  0  0  0  0  0  0  0  0  0
  196.9118  179.9812  149.9663 C   0  0  0  0  0  0  0  0  0  0  0  0
  197.3043  179.0493  148.9831 C   0  0  0  0  0  0  0  0  0  0  0  0
  198.0256  177.8887  149.3441 C   0  0  0  0  0  0  0  0  0  0  0  0
  198.3508  177.6861  150.7059 C   0  0  0  0  0  0  0  0  0  0  0  0
  197.9645  178.6195  151.6815 C   0  0  0  0  0  0  0  0  0  0  0  0
  198.4517  176.9164  148.3021 C   0  0  0  0  0  0  0  0  0  0  0  0
  198.3501  177.1280  147.0920 O   0  0  0  0  0  0  0  0  0  0  0  0
  199.0406  175.5919  148.7803 C   0  0  2  0  0  0  0  0  0  0  0  0
  198.2091  179.9979  153.6302 H   0  0  0  0  0  0  0  0  0  0  0  0
  197.5609  183.0031  152.6626 H   0  0  0  0  0  0  0  0  0  0  0  0
  199.1832  185.0532  154.0454 H   0  0  0  0  0  0  0  0  0  0  0  0
  199.8266  183.4512  153.6886 H   0  0  0  0  0  0  0  0  0  0  0  0
  201.0139  183.3116  151.6822 H   0  0  0  0  0  0  0  0  0  0  0  0
  201.5501  184.1449  149.4187 H   0  0  0  0  0  0  0  0  0  0  0  0
  198.3304  187.0347  149.7377 H   0  0  0  0  0  0  0  0  0  0  0  0
  197.8228  186.1914  152.0053 H   0  0  0  0  0  0  0  0  0  0  0  0
  200.2476  187.2421  148.0268 H   0  0  0  0  0  0  0  0  0  0  0  0
  201.3407  185.9074  147.7682 H   0  0  0  0  0  0  0  0  0  0  0  0
  200.5161  186.1647  145.2704 H   0  0  0  0  0  0  0  0  0  0  0  0
  199.3632  187.3861  145.8154 H   0  0  0  0  0  0  0  0  0  0  0  0
  198.7883  185.9499  144.9798 H   0  0  0  0  0  0  0  0  0  0  0  0
  200.5082  183.8441  146.5318 H   0  0  0  0  0  0  0  0  0  0  0  0
  198.8083  183.7770  146.0571 H   0  0  0  0  0  0  0  0  0  0  0  0
  199.2466  183.6083  147.7461 H   0  0  0  0  0  0  0  0  0  0  0  0
  196.9249  179.8431  156.0252 H   0  0  0  0  0  0  0  0  0  0  0  0
  196.5658  183.1479  159.1866 H   0  0  0  0  0  0  0  0  0  0  0  0
  196.7380  185.6346  159.2221 H   0  0  0  0  0  0  0  0  0  0  0  0
  197.1962  186.8767  157.1143 H   0  0  0  0  0  0  0  0  0  0  0  0
  197.3938  185.6831  154.9704 H   0  0  0  0  0  0  0  0  0  0  0  0
  196.3594  180.8654  149.6692 H   0  0  0  0  0  0  0  0  0  0  0  0
  197.0512  179.2254  147.9429 H   0  0  0  0  0  0  0  0  0  0  0  0
  198.9076  176.8184  151.0380 H   0  0  0  0  0  0  0  0  0  0  0  0
  198.2409  178.4119  152.7002 H   0  0  0  0  0  0  0  0  0  0  0  0
  199.9463  175.7710  149.3598 H   0  0  0  0  0  0  0  0  0  0  0  0
  199.2983  174.9502  147.9395 H   0  0  0  0  0  0  0  0  0  0  0  0
  198.3260  175.0640  149.4127 H   0  0  0  0  0  0  0  0  0  0  0  0
  198.4530  185.7811  147.3226 H   0  0  0  0  0  0  0  0  0  0  0  0
  196.6356  181.1149  157.8641 H   0  0  0  0  0  0  0  0  0  0  0  0
  1  2  2  0
  2  3  1  0
  2 26  1  0
  3  4  1  0
  3 35  1  0
  4  5  2  0
  4 21  1  0
  5  6  1  0
  5 18  1  0
  6  7  1  0
  6 36  1  0
  7  8  1  0
  7 37  1  1
  7 38  1  0
  8  9  1  0
  8 13  2  0
  9 10  2  0
  9 39  1  0
 10 11  1  0
 10 40  1  0
 11 12  2  0
 11 14  1  0
 12 13  1  0
 12 41  1  0
 13 42  1  0
 14 15  1  0
 14 43  1  1
 14 44  1  0
 15 16  1  0
 15 17  1  0
 15 63  1  1
 16 45  1  6
 16 46  1  0
 16 47  1  0
 17 48  1  6
 17 49  1  0
 17 50  1  0
 18 19  1  0
 18 25  2  0
 19 20  1  0
 19 22  2  0
 20 21  2  0
 20 64  1  0
 21 51  1  0
 22 23  1  0
 22 52  1  0
 23 24  2  0
 23 53  1  0
 24 25  1  0
 24 54  1  0
 25 55  1  0
 26 27  1  0
 26 31  2  0
 27 28  2  0
 27 56  1  0
 28 29  1  0
 28 57  1  0
 29 30  2  0
 29 32  1  0
 30 31  1  0
 30 58  1  0
 31 59  1  0
 32 33  2  0
 32 34  1  0
 34 60  1  1
 34 61  1  0
 34 62  1  0
M  CHG  2  15   1  20   1
M  END
>  <s_epik_cmdline>  (322) 
J2VwaWtfcHl0aG9uJywgJy1waCcsICc3LjAwMDAwMCcsICctcGh0JywgJzIuMDAwMDAwJywgJy1tcycsICcxNicsICctdG4nLCAnOCcsICctbWEnLCAnMjAwJywgJy1pbWFlJywgJzxpbmZpbGUubWFlPicsICctb21hZScsICc8b3V0ZmlsZS5tYWU+Jw==

>  <s_epik_input>  (322) 
W2NIXTFbY0hdYyhDKD1PKVtDSDNdKVtjSF1bY0hdYzFDKD1PKVtOSF1jKFtjSF1uYyhjMjMpW2NIXVtjSF1bY0hdW2NIXTMpYzJbTkhdW0NIMl1jNFtjSF1bY0hdYyhbY0hdW2NIXTQpW0NIMl1OKFtDSDNdKVtDSDNd

>  <s_i_glide_gridfile>  (322) 
ATP-Grid

>  <s_lp_Force_Field>  (322) 
OPLS_2005

>  <s_lp_Variant>  (322) 
rxn502c____EMOL474653____EMOL44472687____EMOL50155899-1

>  <s_lp_label>  (322) 
2317_sdstereoexpander_1_neutralizer_1_epik_1_stereoizer_1

>  <s_m_source_file>  (322) 
ATP-VSW-LIGPREP-001-in.maegz

>  <s_sd_BIOSOLVEIT.INFINISEE\_QUERY\_NAME>  (322) 
Ref-Lig

>  <s_sd_BIOSOLVEIT.INFINISEE\_QUERY\_SMILES>  (322) 
S(c1nc2c(cc1C[NH2+]Cc3ccc(cc3)C[NH+](C)C)cccc2)Cc4ccccc4

>  <s_sd_BIOSOLVEIT.INFINISEE\_REACTION\_NAME>  (322) 
rxn502c

>  <s_sd_BIOSOLVEIT.INFINISEE\_REAGENT1\_NAME>  (322) 
EMOL474653

>  <s_sd_BIOSOLVEIT.INFINISEE\_REAGENT1\_SMILES>  (322) 
O=C(O)c1ccc(cc1)C(=O)C

>  <s_sd_BIOSOLVEIT.INFINISEE\_REAGENT2\_NAME>  (322) 
EMOL44472687

>  <s_sd_BIOSOLVEIT.INFINISEE\_REAGENT2\_SMILES>  (322) 
Clc1c(N)cnc2c1cccc2

>  <s_sd_BIOSOLVEIT.INFINISEE\_REAGENT3\_NAME>  (322) 
EMOL50155899

>  <s_sd_BIOSOLVEIT.INFINISEE\_REAGENT3\_SMILES>  (322) 
N(Cc1ccc(cc1)CN)(C)C

>  <s_sd_BIOSOLVEIT.INFINISEE\_SPACE>  (322) 
eXplore_7tr_2022-12

>  <s_vsw_compound_code>  (322) 
74113

>  <s_vsw_variant>  (322) 
74113-1

>  <r_epik_Charging_Adjusted_Penalty>  (322) 
0.24057739898594899

>  <r_epik_Ionization_Penalty>  (322) 
0.12039999999999999

>  <r_epik_Ionization_Penalty_Charging>  (322) 
0.1203

>  <r_epik_Ionization_Penalty_Neutral>  (322) 
0.00020000000000000001

>  <r_epik_State_Penalty>  (322) 
0.1203

>  <r_i_docking_score>  (322) 
-4.1957715744864599

>  <r_i_glide_ecoul>  (322) 
-5.5586605072021502

>  <r_i_glide_eff_state_penalty>  (322) 
0.1203

>  <r_i_glide_einternal>  (322) 
5.61639308929443

>  <r_i_glide_emodel>  (322) 
-55.754388776334501

>  <r_i_glide_energy>  (322) 
-38.434465408325202

>  <r_i_glide_erotb>  (322) 
0.68032817308906901

>  <r_i_glide_esite>  (322) 
-0.115258896756397

>  <r_i_glide_evdw>  (322) 
-32.875804901122997

>  <r_i_glide_gscore>  (322) 
-4.3160715744864602

>  <r_i_glide_hbond>  (322) 
-0.047738967362743898

>  <r_i_glide_ligand_efficiency>  (322) 
-0.123405046308425

>  <r_i_glide_ligand_efficiency_ln>  (322) 
-0.92696362821038403

>  <r_i_glide_ligand_efficiency_sa>  (322) 
-0.39978444388804102

>  <r_i_glide_lipo>  (322) 
-1.5119312133376199

>  <r_i_glide_metal>  (322) 
-0

>  <r_i_glide_rewards>  (322) 
-0.84388134898229195

>  <r_lp_Energy>  (322) 
45.288691

>  <r_lp_tautomer_probability>  (322) 
0.99995000000000001

>  <r_qp_ACxDN^.5/SA>  (322) 
0.0163325

>  <r_qp_CIQPlogS>  (322) 
-5.2510000000000003

>  <r_qp_EA(eV)>  (322) 
1.1890000000000001

>  <r_qp_FISA>  (322) 
109.505

>  <r_qp_FOSA>  (322) 
240.739

>  <r_qp_IP(eV)>  (322) 
8.5640000000000001

>  <r_qp_Jm>  (322) 
0.0144877957215596

>  <r_qp_PISA>  (322) 
385.75999999999999

>  <r_qp_PSA>  (322) 
89.200000000000003

>  <r_qp_PercentHumanOralAbsorption>  (322) 
90.340999999999994

>  <r_qp_QPPCaco>  (322) 
226.131

>  <r_qp_QPPMDCK>  (322) 
109.741

>  <r_qp_QPlogBB>  (322) 
-0.59199999999999997

>  <r_qp_QPlogHERG>  (322) 
-6.9249999999999998

>  <r_qp_QPlogKhsa>  (322) 
0.42999999999999999

>  <r_qp_QPlogKp>  (322) 
-3.4729999999999999

>  <r_qp_QPlogPC16>  (322) 
15.198

>  <r_qp_QPlogPo/w>  (322) 
3.6299999999999999

>  <r_qp_QPlogPoct>  (322) 
24.138999999999999

>  <r_qp_QPlogPw>  (322) 
14.396000000000001

>  <r_qp_QPlogS>  (322) 
-4.0209999999999999

>  <r_qp_QPpolrz>  (322) 
48.725999999999999

>  <r_qp_SASA>  (322) 
736.00400000000002

>  <r_qp_SAamideO>  (322) 
0

>  <r_qp_SAfluorine>  (322) 
0

>  <r_qp_WPSA>  (322) 
0

>  <r_qp_accptHB>  (322) 
8.5

>  <r_qp_dip^2/V>  (322) 
0.022639200000000002

>  <r_qp_dipole>  (322) 
5.6449999999999996

>  <r_qp_donorHB>  (322) 
2

>  <r_qp_glob>  (322) 
0.82529280000000005

>  <r_qp_mol_MW>  (322) 
452.55500000000001

>  <r_qp_volume>  (322) 
1407.6189999999999

>  <r_sd_BIOSOLVEIT.INFINISEE\_FTREES\_SIMILARITY>  (322) 
0.92200000000000004

>  <r_sd_BIOSOLVEIT.LOGP>  (322) 
3.9462999999999999

>  <r_sd_BIOSOLVEIT.MOLECULAR\_WEIGHT>  (322) 
453.56299999999999

>  <r_sd_BIOSOLVEIT.TPSA>  (322) 
75.530000000000001

>  <i_epik_Tot_Q>  (322) 
2

>  <i_epik_Tot_abs_Q>  (322) 
2

>  <i_f3d_flags>  (322) 
0

>  <i_i_glide_confnum>  (322) 
12

>  <i_i_glide_lignum>  (322) 
826

>  <i_i_glide_posenum>  (322) 
2

>  <i_i_glide_rotatable_bonds>  (322) 
9

>  <i_lp_mmshare_version>  (322) 
65135

>  <i_m_ct_format>  (322) 
2

>  <i_m_source_file_index>  (322) 
2317

>  <i_qp_#NandO>  (322) 
6

>  <i_qp_#acid>  (322) 
0

>  <i_qp_#amide>  (322) 
0

>  <i_qp_#amidine>  (322) 
0

>  <i_qp_#amine>  (322) 
1

>  <i_qp_#in34>  (322) 
0

>  <i_qp_#in56>  (322) 
22

>  <i_qp_#metab>  (322) 
6

>  <i_qp_#nonHatm>  (322) 
34

>  <i_qp_#noncon>  (322) 
0

>  <i_qp_#ringatoms>  (322) 
22

>  <i_qp_#rotor>  (322) 
8

>  <i_qp_#rtvFG>  (322) 
0

>  <i_qp_#stars>  (322) 
0

>  <i_qp_CNS>  (322) 
1

>  <i_qp_HumanOralAbsorption>  (322) 
3

>  <i_qp_RuleOfFive>  (322) 
0

>  <i_qp_RuleOfThree>  (322) 
0

>  <i_sd_BIOSOLVEIT.INFINISEE\_RESULT\_RANK>  (322) 
13102

>  <i_sd_version>  (322) 
0

>  <b_lp_Chiralities_Consistent>  (322) 
1

>  <b_sd_chiral_flag>  (322) 
0

>  <canonical_id>  (322) 
ATP-HTVS-357411F5F88B

>  <compound_code>  (322) 
74113

>  <title>  (322) 
rxn502c____EMOL474653____EMOL44472687____EMOL50155899

>  <variant>  (322) 
74113-1

>  <source_file>  (322) 
运行/运行/ATP-VSW/ATP-VSW-DOCK_HTVS_1-001_lib/ATP-VSW-DOCK_HTVS_1-001_lib

>  <canonical_smiles>  (322) 
CC(=O)c1ccc(C(=O)Nc2c[nH+]c3ccccc3c2NCc2ccc(C[NH+](C)C)cc2)cc1

>  <scaffold>  (322) 
O=C(Nc1c[nH+]c2ccccc2c1NCc1ccccc1)c1ccccc1

>  <molecular_formula>  (322) 
C28H30N4O2+2

$$$$
ATP-HTVS-35C3F0A919D0
     RDKit          3D

 59 62  0  0  0  0  0  0  0  0999 V2000
  200.3994  179.8555  148.6467 F   0  0  0  0  0  0  0  0  0  0  0  0
  200.5513  179.8094  147.3020 C   0  0  0  0  0  0  0  0  0  0  0  0
  200.1108  178.6817  146.5688 C   0  0  0  0  0  0  0  0  0  0  0  0
  200.2705  178.6694  145.1647 C   0  0  0  0  0  0  0  0  0  0  0  0
  200.8643  179.7603  144.5039 C   0  0  0  0  0  0  0  0  0  0  0  0
  201.3037  180.8766  145.2404 C   0  0  0  0  0  0  0  0  0  0  0  0
  201.1450  180.9007  146.6391 C   0  0  0  0  0  0  0  0  0  0  0  0
  199.4551  177.5038  147.2853 C   0  0  1  0  0  0  0  0  0  0  0  0
  197.9931  177.4328  147.0186 N   0  0  1  0  0  0  0  0  0  0  0  0
  197.1821  178.6439  147.2906 C   0  0  1  0  0  0  0  0  0  0  0  0
  197.1828  178.8973  148.7428 C   0  0  0  0  0  0  0  0  0  0  0  0
  197.2499  179.1195  149.9426 C   0  0  0  0  0  0  0  0  0  0  0  0
  197.3879  179.3990  151.3670 C   0  0  0  0  0  0  0  0  0  0  0  0
  198.3941  178.8230  152.1864 C   0  0  0  0  0  0  0  0  0  0  0  0
  198.4291  179.1578  153.5688 C   0  0  0  0  0  0  0  0  0  0  0  0
  197.4694  180.0724  154.0762 C   0  0  0  0  0  0  0  0  0  0  0  0
  196.5268  180.6152  153.2709 N   0  0  0  0  0  0  0  0  0  0  0  0
  196.4884  180.2930  151.9693 C   0  0  0  0  0  0  0  0  0  0  0  0
  197.5199  180.3770  155.4631 N   0  0  0  0  0  0  0  0  0  0  0  0
  197.2486  181.5573  156.0451 C   0  0  0  0  0  0  0  0  0  0  0  0
  196.8665  182.5578  155.4366 O   0  0  0  0  0  0  0  0  0  0  0  0
  197.5102  181.6229  157.5540 C   0  0  1  0  0  0  0  0  0  0  0  0
  196.7068  182.7012  158.2631 C   0  0  0  0  0  0  0  0  0  0  0  0
  197.3575  183.7347  158.9721 C   0  0  0  0  0  0  0  0  0  0  0  0
  196.6061  184.7368  159.6145 C   0  0  0  0  0  0  0  0  0  0  0  0
  195.2011  184.7101  159.5462 C   0  0  0  0  0  0  0  0  0  0  0  0
  194.4758  185.7041  160.1314 O   0  0  0  0  0  0  0  0  0  0  0  0
  194.5461  183.6766  158.8526 C   0  0  0  0  0  0  0  0  0  0  0  0
  195.2975  182.6683  158.2228 C   0  0  0  0  0  0  0  0  0  0  0  0
  199.4206  178.5804  154.4040 C   0  0  0  0  0  0  0  0  0  0  0  0
  200.3547  177.6713  153.8788 C   0  0  0  0  0  0  0  0  0  0  0  0
  200.3192  177.3355  152.5150 C   0  0  0  0  0  0  0  0  0  0  0  0
  199.3446  177.9063  151.6748 C   0  0  0  0  0  0  0  0  0  0  0  0
  200.1253  176.1633  146.9425 C   0  0  2  0  0  0  0  0  0  0  0  0
  197.8839  177.2169  146.0370 H   0  0  0  0  0  0  0  0  0  0  0  0
  199.9384  177.8297  144.5713 H   0  0  0  0  0  0  0  0  0  0  0  0
  200.9789  179.7340  143.4295 H   0  0  0  0  0  0  0  0  0  0  0  0
  201.7613  181.7128  144.7304 H   0  0  0  0  0  0  0  0  0  0  0  0
  201.4774  181.7584  147.2051 H   0  0  0  0  0  0  0  0  0  0  0  0
  199.5972  177.6372  148.3562 H   0  0  0  0  0  0  0  0  0  0  0  0
  197.5661  179.5081  146.7510 H   0  0  0  0  0  0  0  0  0  0  0  0
  196.1530  178.4758  146.9717 H   0  0  0  0  0  0  0  0  0  0  0  0
  195.7001  180.7605  151.3954 H   0  0  0  0  0  0  0  0  0  0  0  0
  197.8760  179.6507  156.0703 H   0  0  0  0  0  0  0  0  0  0  0  0
  197.2983  180.6611  158.0222 H   0  0  0  0  0  0  0  0  0  0  0  0
  198.5730  181.8153  157.6960 H   0  0  0  0  0  0  0  0  0  0  0  0
  198.4389  183.7740  159.0119 H   0  0  0  0  0  0  0  0  0  0  0  0
  197.1075  185.5441  160.1281 H   0  0  0  0  0  0  0  0  0  0  0  0
  193.6182  185.8114  159.7371 H   0  0  0  0  0  0  0  0  0  0  0  0
  193.4674  183.6607  158.7630 H   0  0  0  0  0  0  0  0  0  0  0  0
  194.7901  181.8846  157.6777 H   0  0  0  0  0  0  0  0  0  0  0  0
  199.4789  178.8025  155.4597 H   0  0  0  0  0  0  0  0  0  0  0  0
  201.1016  177.2312  154.5262 H   0  0  0  0  0  0  0  0  0  0  0  0
  201.0416  176.6392  152.1138 H   0  0  0  0  0  0  0  0  0  0  0  0
  199.3398  177.6227  150.6355 H   0  0  0  0  0  0  0  0  0  0  0  0
  201.1906  176.1927  147.1710 H   0  0  0  0  0  0  0  0  0  0  0  0
  200.0234  175.9099  145.8872 H   0  0  0  0  0  0  0  0  0  0  0  0
  199.6913  175.3467  147.5214 H   0  0  0  0  0  0  0  0  0  0  0  0
  197.6013  176.6666  147.5480 H   0  0  0  0  0  0  0  0  0  0  0  0
  1  2  1  0
  2  3  1  0
  2  7  2  0
  3  4  2  0
  3  8  1  0
  4  5  1  0
  4 36  1  0
  5  6  2  0
  5 37  1  0
  6  7  1  0
  6 38  1  0
  7 39  1  0
  8  9  1  0
  8 34  1  0
  8 40  1  1
  9 10  1  0
  9 35  1  6
  9 59  1  0
 10 11  1  0
 10 41  1  6
 10 42  1  0
 11 12  3  0
 12 13  1  0
 13 14  2  0
 13 18  1  0
 14 15  1  0
 14 33  1  0
 15 16  2  0
 15 30  1  0
 16 17  1  0
 16 19  1  0
 17 18  2  0
 18 43  1  0
 19 20  1  0
 19 44  1  0
 20 21  2  0
 20 22  1  0
 22 23  1  0
 22 45  1  1
 22 46  1  0
 23 24  1  0
 23 29  2  0
 24 25  2  0
 24 47  1  0
 25 26  1  0
 25 48  1  0
 26 27  1  0
 26 28  2  0
 27 49  1  0
 28 29  1  0
 28 50  1  0
 29 51  1  0
 30 31  2  0
 30 52  1  0
 31 32  1  0
 31 53  1  0
 32 33  2  0
 32 54  1  0
 33 55  1  0
 34 56  1  1
 34 57  1  0
 34 58  1  0
M  CHG  1   9   1
M  END
>  <s_epik_cmdline>  (323) 
J2VwaWtfcHl0aG9uJywgJy1waCcsICc3LjAwMDAwMCcsICctcGh0JywgJzIuMDAwMDAwJywgJy1tcycsICcxNicsICctdG4nLCAnOCcsICctbWEnLCAnMjAwJywgJy1pbWFlJywgJzxpbmZpbGUubWFlPicsICctb21hZScsICc8b3V0ZmlsZS5tYWU+Jw==

>  <s_epik_input>  (323) 
W2NIXTFbY0hdW2NIXVtjSF1jKGMxRilbQ0BIXShbQ0gzXSlbTkhdW0NIMl1DI0NjMltjSF1uYyhjKGMyMylbY0hdW2NIXVtjSF1bY0hdMylbTkhdQyg9TylbQ0gyXWM0W2NIXVtjSF1jKFtPSF0pW2NIXVtjSF00

>  <s_i_glide_gridfile>  (323) 
ATP-Grid

>  <s_lp_Force_Field>  (323) 
OPLS_2005

>  <s_lp_Variant>  (323) 
rxn503b____EMOL521529____EMOL7515103____EMOL317509298-4

>  <s_lp_label>  (323) 
2564_sdstereoexpander_2_neutralizer_1_epik_2_stereoizer_1

>  <s_m_source_file>  (323) 
ATP-VSW-LIGPREP-003-in.maegz

>  <s_sd_BIOSOLVEIT.INFINISEE\_QUERY\_NAME>  (323) 
Ref-Lig

>  <s_sd_BIOSOLVEIT.INFINISEE\_QUERY\_SMILES>  (323) 
S(c1nc2c(cc1C[NH2+]Cc3ccc(cc3)C[NH+](C)C)cccc2)Cc4ccccc4

>  <s_sd_BIOSOLVEIT.INFINISEE\_REACTION\_NAME>  (323) 
rxn503b

>  <s_sd_BIOSOLVEIT.INFINISEE\_REAGENT1\_NAME>  (323) 
EMOL521529

>  <s_sd_BIOSOLVEIT.INFINISEE\_REAGENT1\_SMILES>  (323) 
O=C(O)Cc1ccc(O)cc1

>  <s_sd_BIOSOLVEIT.INFINISEE\_REAGENT2\_NAME>  (323) 
EMOL7515103

>  <s_sd_BIOSOLVEIT.INFINISEE\_REAGENT2\_SMILES>  (323) 
Brc1c2c(c(nc1)N)cccc2

>  <s_sd_BIOSOLVEIT.INFINISEE\_REAGENT3\_NAME>  (323) 
EMOL317509298

>  <s_sd_BIOSOLVEIT.INFINISEE\_REAGENT3\_SMILES>  (323) 
Fc1c(cccc1)C(NCC#C)C

>  <s_sd_BIOSOLVEIT.INFINISEE\_SPACE>  (323) 
eXplore_7tr_2022-12

>  <s_vsw_compound_code>  (323) 
82019

>  <s_vsw_variant>  (323) 
82019-4

>  <r_epik_Charging_Adjusted_Penalty>  (323) 
1.2603147534363399

>  <r_epik_Ionization_Penalty>  (323) 
0.63190000000000002

>  <r_epik_Ionization_Penalty_Charging>  (323) 
0.63019999999999998

>  <r_epik_Ionization_Penalty_Neutral>  (323) 
0.0016999999999999999

>  <r_epik_State_Penalty>  (323) 
0.63019999999999998

>  <r_i_docking_score>  (323) 
-3.9297244266419402

>  <r_i_glide_ecoul>  (323) 
-9.4210672378540004

>  <r_i_glide_eff_state_penalty>  (323) 
0.63019999999999998

>  <r_i_glide_einternal>  (323) 
6.2335705757141104

>  <r_i_glide_emodel>  (323) 
-57.983737294655199

>  <r_i_glide_energy>  (323) 
-43.834324836731

>  <r_i_glide_erotb>  (323) 
0.77766732474872602

>  <r_i_glide_esite>  (323) 
-0.127266393835125

>  <r_i_glide_evdw>  (323) 
-34.413257598877003

>  <r_i_glide_gscore>  (323) 
-4.5599244266419401

>  <r_i_glide_hbond>  (323) 
-0.270903635485778

>  <r_i_glide_ligand_efficiency>  (323) 
-0.115580130195351

>  <r_i_glide_ligand_efficiency_ln>  (323) 
-0.86818635088180096

>  <r_i_glide_ligand_efficiency_sa>  (323) 
-0.37443475333391701

>  <r_i_glide_lipo>  (323) 
-1.4954765041750899

>  <r_i_glide_metal>  (323) 
-0

>  <r_i_glide_rewards>  (323) 
-0.310122252272726

>  <r_lp_Energy>  (323) 
24.539200000000001

>  <r_lp_tautomer_probability>  (323) 
0.999999999997365

>  <r_qp_ACxDN^.5/SA>  (323) 
0.012230400000000001

>  <r_qp_CIQPlogS>  (323) 
-6.2279999999999998

>  <r_qp_EA(eV)>  (323) 
1.198

>  <r_qp_FISA>  (323) 
132.697

>  <r_qp_FOSA>  (323) 
159.75800000000001

>  <r_qp_IP(eV)>  (323) 
8.4160000000000004

>  <r_qp_Jm>  (323) 
0.00015951279503834199

>  <r_qp_PISA>  (323) 
501.82900000000001

>  <r_qp_PSA>  (323) 
81.506

>  <r_qp_PercentHumanOralAbsorption>  (323) 
93.834999999999994

>  <r_qp_QPPCaco>  (323) 
136.28

>  <r_qp_QPPMDCK>  (323) 
81.722999999999999

>  <r_qp_QPlogBB>  (323) 
-1.042

>  <r_qp_QPlogHERG>  (323) 
-8.4489999999999998

>  <r_qp_QPlogKhsa>  (323) 
0.92000000000000004

>  <r_qp_QPlogKp>  (323) 
-3.3959999999999999

>  <r_qp_QPlogPC16>  (323) 
17.062000000000001

>  <r_qp_QPlogPo/w>  (323) 
4.899

>  <r_qp_QPlogPoct>  (323) 
25.507000000000001

>  <r_qp_QPlogPw>  (323) 
14.074

>  <r_qp_QPlogS>  (323) 
-6.0579999999999998

>  <r_qp_QPpolrz>  (323) 
51.399999999999999

>  <r_qp_SASA>  (323) 
814.30799999999999

>  <r_qp_SAamideO>  (323) 
0

>  <r_qp_SAfluorine>  (323) 
20.024000000000001

>  <r_qp_WPSA>  (323) 
20.024000000000001

>  <r_qp_accptHB>  (323) 
5.75

>  <r_qp_dip^2/V>  (323) 
0.049112599999999999

>  <r_qp_dipole>  (323) 
8.4760000000000009

>  <r_qp_donorHB>  (323) 
3

>  <r_qp_glob>  (323) 
0.76529400000000003

>  <r_qp_mol_MW>  (323) 
453.51499999999999

>  <r_qp_volume>  (323) 
1462.777

>  <r_sd_BIOSOLVEIT.INFINISEE\_FTREES\_SIMILARITY>  (323) 
0.91200000000000003

>  <r_sd_BIOSOLVEIT.LOGP>  (323) 
3.9367999999999999

>  <r_sd_BIOSOLVEIT.MOLECULAR\_WEIGHT>  (323) 
454.52300000000002

>  <r_sd_BIOSOLVEIT.TPSA>  (323) 
78.829999999999998

>  <i_epik_Tot_Q>  (323) 
1

>  <i_epik_Tot_abs_Q>  (323) 
1

>  <i_f3d_flags>  (323) 
0

>  <i_i_glide_confnum>  (323) 
8

>  <i_i_glide_lignum>  (323) 
1134

>  <i_i_glide_posenum>  (323) 
7

>  <i_i_glide_rotatable_bonds>  (323) 
10

>  <i_lp_mmshare_version>  (323) 
65135

>  <i_m_ct_format>  (323) 
2

>  <i_m_source_file_index>  (323) 
2564

>  <i_qp_#NandO>  (323) 
5

>  <i_qp_#acid>  (323) 
0

>  <i_qp_#amide>  (323) 
0

>  <i_qp_#amidine>  (323) 
0

>  <i_qp_#amine>  (323) 
1

>  <i_qp_#in34>  (323) 
0

>  <i_qp_#in56>  (323) 
22

>  <i_qp_#metab>  (323) 
7

>  <i_qp_#nonHatm>  (323) 
34

>  <i_qp_#noncon>  (323) 
0

>  <i_qp_#ringatoms>  (323) 
22

>  <i_qp_#rotor>  (323) 
9

>  <i_qp_#rtvFG>  (323) 
0

>  <i_qp_#stars>  (323) 
1

>  <i_qp_CNS>  (323) 
-2

>  <i_qp_HumanOralAbsorption>  (323) 
3

>  <i_qp_RuleOfFive>  (323) 
0

>  <i_qp_RuleOfThree>  (323) 
2

>  <i_sd_BIOSOLVEIT.INFINISEE\_RESULT\_RANK>  (323) 
37302

>  <i_sd_version>  (323) 
0

>  <b_lp_Chiralities_Consistent>  (323) 
1

>  <b_sd_chiral_flag>  (323) 
0

>  <canonical_id>  (323) 
ATP-HTVS-35C3F0A919D0

>  <compound_code>  (323) 
82019

>  <title>  (323) 
rxn503b____EMOL521529____EMOL7515103____EMOL317509298

>  <variant>  (323) 
82019-4

>  <source_file>  (323) 
运行/运行/ATP-VSW/ATP-VSW-DOCK_HTVS_1-003_lib/ATP-VSW-DOCK_HTVS_1-003_lib.mae

>  <canonical_smiles>  (323) 
C[C@H]([NH2+]CC#Cc1cnc(NC(=O)Cc2ccc(O)cc2)c2ccccc12)c1ccccc1F

>  <scaffold>  (323) 
O=C(Cc1ccccc1)Nc1ncc(C#CC[NH2+]Cc2ccccc2)c2ccccc12

>  <molecular_formula>  (323) 
C28H25FN3O2+

$$$$
ATP-HTVS-35F96912410D
     RDKit          3D

 54 57  0  0  0  0  0  0  0  0999 V2000
  194.2118  183.8391  159.3331 S   0  0  0  0  0  0  0  0  0  0  0  0
  195.1872  185.2400  159.7344 C   0  0  0  0  0  0  0  0  0  0  0  0
  196.4929  185.1329  159.1584 C   0  0  0  0  0  0  0  0  0  0  0  0
  197.3688  186.2322  159.3749 C   0  0  0  0  0  0  0  0  0  0  0  0
  196.9848  187.3568  160.1321 C   0  0  0  0  0  0  0  0  0  0  0  0
  195.7001  187.4200  160.6970 C   0  0  0  0  0  0  0  0  0  0  0  0
  194.7987  186.3612  160.4933 C   0  0  0  0  0  0  0  0  0  0  0  0
  196.6756  183.8801  158.4403 C   0  0  0  0  0  0  0  0  0  0  0  0
  195.5287  183.1196  158.4808 C   0  0  0  0  0  0  0  0  0  0  0  0
  197.9361  183.4555  157.7345 C   0  0  2  0  0  0  0  0  0  0  0  0
  197.9129  182.2853  156.8614 N   0  0  0  0  0  0  0  0  0  0  0  0
  197.1134  182.4570  155.6462 C   0  0  2  0  0  0  0  0  0  0  0  0
  196.9000  181.1481  155.0025 C   0  0  0  0  0  0  0  0  0  0  0  0
  196.7439  180.1200  154.4867 N   0  0  0  0  0  0  0  0  0  0  0  0
  197.7233  183.4617  154.6678 C   0  0  0  0  0  0  0  0  0  0  0  0
  197.4905  184.8456  154.8427 C   0  0  0  0  0  0  0  0  0  0  0  0
  198.0936  185.7810  153.9849 C   0  0  0  0  0  0  0  0  0  0  0  0
  198.8922  185.3441  152.9107 C   0  0  0  0  0  0  0  0  0  0  0  0
  199.4612  186.2459  152.0793 F   0  0  0  0  0  0  0  0  0  0  0  0
  199.1053  183.9688  152.7135 C   0  0  0  0  0  0  0  0  0  0  0  0
  198.5335  183.0314  153.5900 C   0  0  0  0  0  0  0  0  0  0  0  0
  199.0516  183.3570  158.6879 C   0  0  0  0  0  0  0  0  0  0  0  0
  200.0164  183.3909  159.4340 C   0  0  0  0  0  0  0  0  0  0  0  0
  201.1895  183.4958  160.3124 C   0  0  1  0  0  0  0  0  0  0  0  0
  202.1157  184.5419  159.8934 N   0  0  0  0  0  0  0  0  0  0  0  0
  202.9635  184.1402  158.7750 C   0  0  1  0  0  0  0  0  0  0  0  0
  203.9698  183.0633  159.1433 C   0  0  0  0  0  0  0  0  0  0  0  0
  203.9757  181.8374  158.4462 C   0  0  0  0  0  0  0  0  0  0  0  0
  204.8986  180.8326  158.7917 C   0  0  0  0  0  0  0  0  0  0  0  0
  205.8193  181.0479  159.8352 C   0  0  0  0  0  0  0  0  0  0  0  0
  205.8162  182.2712  160.5334 C   0  0  0  0  0  0  0  0  0  0  0  0
  204.8932  183.2774  160.1880 C   0  0  0  0  0  0  0  0  0  0  0  0
  197.5850  181.4671  157.3636 H   0  0  0  0  0  0  0  0  0  0  0  0
  201.6074  185.3838  159.6700 H   0  0  0  0  0  0  0  0  0  0  0  0
  198.3635  186.2105  158.9547 H   0  0  0  0  0  0  0  0  0  0  0  0
  197.6796  188.1741  160.2864 H   0  0  0  0  0  0  0  0  0  0  0  0
  195.4038  188.2920  161.2651 H   0  0  0  0  0  0  0  0  0  0  0  0
  193.8008  186.4089  160.8975 H   0  0  0  0  0  0  0  0  0  0  0  0
  195.3554  182.1536  158.0257 H   0  0  0  0  0  0  0  0  0  0  0  0
  198.2932  184.2958  157.1375 H   0  0  0  0  0  0  0  0  0  0  0  0
  196.1165  182.7999  155.9090 H   0  0  0  0  0  0  0  0  0  0  0  0
  196.8588  185.1964  155.6509 H   0  0  0  0  0  0  0  0  0  0  0  0
  197.9453  186.8345  154.1516 H   0  0  0  0  0  0  0  0  0  0  0  0
  199.7150  183.6266  151.8938 H   0  0  0  0  0  0  0  0  0  0  0  0
  198.7301  181.9770  153.4334 H   0  0  0  0  0  0  0  0  0  0  0  0
  200.8165  183.7403  161.3046 H   0  0  0  0  0  0  0  0  0  0  0  0
  201.6619  182.5168  160.3699 H   0  0  0  0  0  0  0  0  0  0  0  0
  202.3577  183.8219  157.9254 H   0  0  0  0  0  0  0  0  0  0  0  0
  203.5217  185.0172  158.4443 H   0  0  0  0  0  0  0  0  0  0  0  0
  203.2716  181.6613  157.6456 H   0  0  0  0  0  0  0  0  0  0  0  0
  204.9008  179.8961  158.2516 H   0  0  0  0  0  0  0  0  0  0  0  0
  206.5261  180.2755  160.0981 H   0  0  0  0  0  0  0  0  0  0  0  0
  206.5255  182.4384  161.3304 H   0  0  0  0  0  0  0  0  0  0  0  0
  204.8904  184.2141  160.7266 H   0  0  0  0  0  0  0  0  0  0  0  0
  1  2  1  0
  1  9  1  0
  2  3  1  0
  2  7  2  0
  3  4  2  0
  3  8  1  0
  4  5  1  0
  4 35  1  0
  5  6  2  0
  5 36  1  0
  6  7  1  0
  6 37  1  0
  7 38  1  0
  8  9  2  0
  8 10  1  0
  9 39  1  0
 10 11  1  0
 10 22  1  0
 10 40  1  6
 11 12  1  0
 11 33  1  0
 12 13  1  0
 12 15  1  0
 12 41  1  1
 13 14  3  0
 15 16  1  0
 15 21  2  0
 16 17  2  0
 16 42  1  0
 17 18  1  0
 17 43  1  0
 18 19  1  0
 18 20  2  0
 20 21  1  0
 20 44  1  0
 21 45  1  0
 22 23  3  0
 23 24  1  0
 24 25  1  0
 24 46  1  1
 24 47  1  0
 25 26  1  0
 25 34  1  0
 26 27  1  0
 26 48  1  6
 26 49  1  0
 27 28  2  0
 27 32  1  0
 28 29  1  0
 28 50  1  0
 29 30  2  0
 29 51  1  0
 30 31  1  0
 30 52  1  0
 31 32  2  0
 31 53  1  0
 32 54  1  0
M  END
>  <s_epik_cmdline>  (324) 
J2VwaWtfcHl0aG9uJywgJy1waCcsICc3LjAwMDAwMCcsICctcGh0JywgJzIuMDAwMDAwJywgJy1tcycsICcxNicsICctdG4nLCAnOCcsICctbWEnLCAnMjAwJywgJy1pbWFlJywgJzxpbmZpbGUubWFlPicsICctb21hZScsICc8b3V0ZmlsZS5tYWU+Jw==

>  <s_epik_input>  (324) 
W2NIXTFbY0hdYyhGKVtjSF1bY0hdYzFbQ0BASF0oQyNOKVtOSF1bQ0BASF0oYyhbY0hdczIpYyhjMjMpW2NIXVtjSF1bY0hdW2NIXTMpQyNDW0NIMl1bTkhdW0NIMl1jNFtjSF1bY0hdW2NIXVtjSF1bY0hdNA==

>  <s_i_glide_gridfile>  (324) 
ATP-Grid

>  <s_lp_Force_Field>  (324) 
OPLS_2005

>  <s_lp_Variant>  (324) 
rxn403____EMOL906257____EMOL514874____EMOL1197208-3

>  <s_lp_label>  (324) 
2674_sdstereoexpander_3_neutralizer_1_epik_1_stereoizer_1

>  <s_m_source_file>  (324) 
ATP-VSW-LIGPREP-002-in.maegz

>  <s_sd_BIOSOLVEIT.INFINISEE\_QUERY\_NAME>  (324) 
Ref-Lig

>  <s_sd_BIOSOLVEIT.INFINISEE\_QUERY\_SMILES>  (324) 
S(c1nc2c(cc1C[NH2+]Cc3ccc(cc3)C[NH+](C)C)cccc2)Cc4ccccc4

>  <s_sd_BIOSOLVEIT.INFINISEE\_REACTION\_NAME>  (324) 
rxn403

>  <s_sd_BIOSOLVEIT.INFINISEE\_REAGENT1\_NAME>  (324) 
EMOL906257

>  <s_sd_BIOSOLVEIT.INFINISEE\_REAGENT1\_SMILES>  (324) 
Fc1ccc(cc1)C(N)C#N

>  <s_sd_BIOSOLVEIT.INFINISEE\_REAGENT2\_NAME>  (324) 
EMOL514874

>  <s_sd_BIOSOLVEIT.INFINISEE\_REAGENT2\_SMILES>  (324) 
S1c2c(cccc2)C(=C1)C=O

>  <s_sd_BIOSOLVEIT.INFINISEE\_REAGENT3\_NAME>  (324) 
EMOL1197208

>  <s_sd_BIOSOLVEIT.INFINISEE\_REAGENT3\_SMILES>  (324) 
N(CC#C)Cc1ccccc1

>  <s_sd_BIOSOLVEIT.INFINISEE\_SPACE>  (324) 
eXplore_7tr_2022-12

>  <s_vsw_compound_code>  (324) 
85538

>  <s_vsw_variant>  (324) 
85538-3

>  <r_epik_Charging_Adjusted_Penalty>  (324) 
0.27825942392213598

>  <r_epik_Ionization_Penalty>  (324) 
0.27929999999999999

>  <r_epik_Ionization_Penalty_Charging>  (324) 
0

>  <r_epik_Ionization_Penalty_Neutral>  (324) 
0.27929999999999999

>  <r_epik_State_Penalty>  (324) 
0.27829999999999999

>  <r_i_docking_score>  (324) 
-3.6850978803676302

>  <r_i_glide_ecoul>  (324) 
-3.10424876213074

>  <r_i_glide_eff_state_penalty>  (324) 
0.27829999999999999

>  <r_i_glide_einternal>  (324) 
2.32659864425659

>  <r_i_glide_emodel>  (324) 
-46.654058208846898

>  <r_i_glide_energy>  (324) 
-37.848534345626803

>  <r_i_glide_erotb>  (324) 
0.61984170064038902

>  <r_i_glide_esite>  (324) 
-0.046555455158704198

>  <r_i_glide_evdw>  (324) 
-34.744285583496101

>  <r_i_glide_gscore>  (324) 
-3.96339788036763

>  <r_i_glide_hbond>  (324) 
0

>  <r_i_glide_ligand_efficiency>  (324) 
-0.115159308761488

>  <r_i_glide_ligand_efficiency_ln>  (324) 
-0.82519386738864597

>  <r_i_glide_ligand_efficiency_sa>  (324) 
-0.36560801532146803

>  <r_i_glide_lipo>  (324) 
-1.8774653379027899

>  <r_i_glide_metal>  (324) 
-0

>  <r_i_glide_rewards>  (324) 
-0.45636719445211299

>  <r_lp_Energy>  (324) 
23.145409999999998

>  <r_qp_ACxDN^.5/SA>  (324) 
0.0095516000000000004

>  <r_qp_CIQPlogS>  (324) 
-6.4260000000000002

>  <r_qp_EA(eV)>  (324) 
0.67500000000000004

>  <r_qp_FISA>  (324) 
98.376999999999995

>  <r_qp_FOSA>  (324) 
100.77500000000001

>  <r_qp_IP(eV)>  (324) 
8.7949999999999999

>  <r_qp_Jm>  (324) 
0.00030695556164927101

>  <r_qp_PISA>  (324) 
374.20499999999998

>  <r_qp_PSA>  (324) 
50.838000000000001

>  <r_qp_PercentHumanOralAbsorption>  (324) 
86.414000000000001

>  <r_qp_QPPCaco>  (324) 
71.909999999999997

>  <r_qp_QPPMDCK>  (324) 
113.61199999999999

>  <r_qp_QPlogBB>  (324) 
0.11

>  <r_qp_QPlogHERG>  (324) 
-6.944

>  <r_qp_QPlogKhsa>  (324) 
0.81499999999999995

>  <r_qp_QPlogKp>  (324) 
-5.1790000000000003

>  <r_qp_QPlogPC16>  (324) 
14.161

>  <r_qp_QPlogPo/w>  (324) 
4.4809999999999999

>  <r_qp_QPlogPoct>  (324) 
20.510000000000002

>  <r_qp_QPlogPw>  (324) 
9.7249999999999996

>  <r_qp_QPlogS>  (324) 
-3.976

>  <r_qp_QPpolrz>  (324) 
43.112000000000002

>  <r_qp_SASA>  (324) 
666.27200000000005

>  <r_qp_SAamideO>  (324) 
0

>  <r_qp_SAfluorine>  (324) 
42.024000000000001

>  <r_qp_WPSA>  (324) 
92.915000000000006

>  <r_qp_accptHB>  (324) 
4.5

>  <r_qp_dip^2/V>  (324) 
0.0267697

>  <r_qp_dipole>  (324) 
5.9039999999999999

>  <r_qp_donorHB>  (324) 
2

>  <r_qp_glob>  (324) 
0.86555800000000005

>  <r_qp_mol_MW>  (324) 
439.54899999999998

>  <r_qp_volume>  (324) 
1302.1890000000001

>  <r_sd_BIOSOLVEIT.INFINISEE\_FTREES\_SIMILARITY>  (324) 
0.90900000000000003

>  <r_sd_BIOSOLVEIT.LOGP>  (324) 
3.6767799999999999

>  <r_sd_BIOSOLVEIT.MOLECULAR\_WEIGHT>  (324) 
441.57100000000003

>  <r_sd_BIOSOLVEIT.TPSA>  (324) 
57.009999999999998

>  <i_epik_Tot_Q>  (324) 
0

>  <i_epik_Tot_abs_Q>  (324) 
0

>  <i_f3d_flags>  (324) 
0

>  <i_i_glide_confnum>  (324) 
14

>  <i_i_glide_lignum>  (324) 
1298

>  <i_i_glide_posenum>  (324) 
8

>  <i_i_glide_rotatable_bonds>  (324) 
9

>  <i_lp_mmshare_version>  (324) 
65135

>  <i_m_ct_format>  (324) 
2

>  <i_m_source_file_index>  (324) 
2674

>  <i_qp_#NandO>  (324) 
3

>  <i_qp_#acid>  (324) 
0

>  <i_qp_#amide>  (324) 
0

>  <i_qp_#amidine>  (324) 
0

>  <i_qp_#amine>  (324) 
2

>  <i_qp_#in34>  (324) 
0

>  <i_qp_#in56>  (324) 
21

>  <i_qp_#metab>  (324) 
7

>  <i_qp_#nonHatm>  (324) 
32

>  <i_qp_#noncon>  (324) 
0

>  <i_qp_#ringatoms>  (324) 
21

>  <i_qp_#rotor>  (324) 
10

>  <i_qp_#rtvFG>  (324) 
0

>  <i_qp_#stars>  (324) 
0

>  <i_qp_CNS>  (324) 
1

>  <i_qp_HumanOralAbsorption>  (324) 
3

>  <i_qp_RuleOfFive>  (324) 
0

>  <i_qp_RuleOfThree>  (324) 
1

>  <i_sd_BIOSOLVEIT.INFINISEE\_RESULT\_RANK>  (324) 
49421

>  <i_sd_version>  (324) 
0

>  <b_lp_Chiralities_Consistent>  (324) 
1

>  <b_sd_chiral_flag>  (324) 
0

>  <canonical_id>  (324) 
ATP-HTVS-35F96912410D

>  <compound_code>  (324) 
85538

>  <title>  (324) 
rxn403____EMOL906257____EMOL514874____EMOL1197208

>  <variant>  (324) 
85538-3

>  <source_file>  (324) 
运行/运行/ATP-VSW/ATP-VSW-DOCK_HTVS_1-002_lib.maegz

>  <canonical_smiles>  (324) 
N#C[C@@H](N[C@H](C#CCNCc1ccccc1)c1csc2ccccc12)c1ccc(F)cc1

>  <scaffold>  (324) 
C(#CC(NCc1ccccc1)c1csc2ccccc12)CNCc1ccccc1

>  <molecular_formula>  (324) 
C27H22FN3S

$$$$
ATP-HTVS-362E300BB66B
     RDKit          3D

 66 69  0  0  0  0  0  0  0  0999 V2000
  202.2071  174.6099  152.4623 Cl  0  0  0  0  0  0  0  0  0  0  0  0
  201.8324  175.3049  154.0035 C   0  0  0  0  0  0  0  0  0  0  0  0
  201.0044  176.4560  154.1875 C   0  0  0  0  0  0  0  0  0  0  0  0
  200.7701  176.9108  155.5062 C   0  0  0  0  0  0  0  0  0  0  0  0
  201.3505  176.2637  156.6135 C   0  0  0  0  0  0  0  0  0  0  0  0
  202.1706  175.1405  156.4205 C   0  0  0  0  0  0  0  0  0  0  0  0
  202.3999  174.6638  155.1194 C   0  0  0  0  0  0  0  0  0  0  0  0
  199.9104  178.0659  155.7138 C   0  0  0  0  0  0  0  0  0  0  0  0
  199.3460  178.7358  154.6939 C   0  0  0  0  0  0  0  0  0  0  0  0
  199.5700  178.3072  153.3393 N   0  0  0  0  0  0  0  0  0  0  0  0
  198.9714  179.0359  152.2505 C   0  0  0  0  0  0  0  0  0  0  0  0
  199.2804  180.3981  152.0531 C   0  0  0  0  0  0  0  0  0  0  0  0
  198.6356  181.1079  150.9885 C   0  0  0  0  0  0  0  0  0  0  0  0
  197.7666  180.4432  150.1069 C   0  0  0  0  0  0  0  0  0  0  0  0
  197.5109  179.0722  150.2729 C   0  0  0  0  0  0  0  0  0  0  0  0
  198.1087  178.3739  151.3458 C   0  0  0  0  0  0  0  0  0  0  0  0
  200.3599  177.2227  153.0410 C   0  0  0  0  0  0  0  0  0  0  0  0
  200.5668  176.8693  151.8793 O   0  0  0  0  0  0  0  0  0  0  0  0
  198.4124  179.9431  154.9615 C   0  0  2  0  0  0  0  0  0  0  0  0
  198.7473  180.6095  156.2418 N   0  0  1  0  0  0  0  0  0  0  0  0
  199.9665  181.4558  156.1708 C   0  0  1  0  0  0  0  0  0  0  0  0
  200.0175  182.4147  157.3431 C   0  0  0  0  0  0  0  0  0  0  0  0
  199.0066  183.3818  157.5178 C   0  0  0  0  0  0  0  0  0  0  0  0
  197.9881  183.4112  156.5919 O   0  0  0  0  0  0  0  0  0  0  0  0
  196.6814  183.7390  157.0372 C   0  0  1  0  0  0  0  0  0  0  0  0
  196.1183  182.6446  157.9599 C   0  0  1  0  0  0  0  0  0  0  0  0
  194.6487  182.7259  158.1294 N   0  0  1  0  0  0  0  0  0  0  0  0
  194.0821  181.4619  158.6523 C   0  0  2  0  0  0  0  0  0  0  0  0
  194.2413  183.8925  158.9640 C   0  0  2  0  0  0  0  0  0  0  0  0
  199.0693  184.2605  158.6268 C   0  0  0  0  0  0  0  0  0  0  0  0
  200.1142  184.1462  159.5598 C   0  0  0  0  0  0  0  0  0  0  0  0
  201.1021  183.1578  159.4004 C   0  0  0  0  0  0  0  0  0  0  0  0
  201.0639  182.2976  158.2898 C   0  0  0  0  0  0  0  0  0  0  0  0
  196.9293  179.5785  154.8944 C   0  0  2  0  0  0  0  0  0  0  0  0
  197.9802  181.2222  156.4869 H   0  0  0  0  0  0  0  0  0  0  0  0
  201.1667  176.6258  157.6158 H   0  0  0  0  0  0  0  0  0  0  0  0
  202.6240  174.6465  157.2673 H   0  0  0  0  0  0  0  0  0  0  0  0
  203.0245  173.7974  154.9730 H   0  0  0  0  0  0  0  0  0  0  0  0
  199.7485  178.3342  156.7471 H   0  0  0  0  0  0  0  0  0  0  0  0
  199.9895  180.9113  152.6506 H   0  0  0  0  0  0  0  0  0  0  0  0
  198.8367  182.1619  150.8687 H   0  0  0  0  0  0  0  0  0  0  0  0
  197.2937  180.9910  149.3048 H   0  0  0  0  0  0  0  0  0  0  0  0
  196.8642  178.5479  149.5888 H   0  0  0  0  0  0  0  0  0  0  0  0
  197.9008  177.3194  151.4595 H   0  0  0  0  0  0  0  0  0  0  0  0
  198.5434  180.7457  154.2084 H   0  0  0  0  0  0  0  0  0  0  0  0
  200.8446  180.8293  156.1664 H   0  0  0  0  0  0  0  0  0  0  0  0
  200.0056  182.0489  155.2463 H   0  0  0  0  0  0  0  0  0  0  0  0
  196.6264  184.7389  157.4753 H   0  0  0  0  0  0  0  0  0  0  0  0
  196.0714  183.7866  156.1350 H   0  0  0  0  0  0  0  0  0  0  0  0
  196.3455  181.6768  157.5026 H   0  0  0  0  0  0  0  0  0  0  0  0
  196.6221  182.6485  158.9337 H   0  0  0  0  0  0  0  0  0  0  0  0
  194.5606  181.1732  159.5931 H   0  0  0  0  0  0  0  0  0  0  0  0
  194.1983  180.6417  157.9378 H   0  0  0  0  0  0  0  0  0  0  0  0
  193.0119  181.5640  158.8302 H   0  0  0  0  0  0  0  0  0  0  0  0
  194.6226  183.7908  159.9827 H   0  0  0  0  0  0  0  0  0  0  0  0
  193.1541  183.9749  159.0135 H   0  0  0  0  0  0  0  0  0  0  0  0
  194.6123  184.8328  158.5592 H   0  0  0  0  0  0  0  0  0  0  0  0
  198.3328  185.0379  158.7705 H   0  0  0  0  0  0  0  0  0  0  0  0
  200.1623  184.8223  160.3998 H   0  0  0  0  0  0  0  0  0  0  0  0
  201.8914  183.0658  160.1299 H   0  0  0  0  0  0  0  0  0  0  0  0
  201.8222  181.5343  158.1830 H   0  0  0  0  0  0  0  0  0  0  0  0
  196.7017  179.0403  153.9666 H   0  0  0  0  0  0  0  0  0  0  0  0
  196.3227  180.4821  154.9066 H   0  0  0  0  0  0  0  0  0  0  0  0
  196.6151  178.9348  155.7248 H   0  0  0  0  0  0  0  0  0  0  0  0
  194.2457  182.8302  157.2162 H   0  0  0  0  0  0  0  0  0  0  0  0
  198.8342  179.9194  156.9681 H   0  0  0  0  0  0  0  0  0  0  0  0
  1  2  1  0
  2  3  2  0
  2  7  1  0
  3  4  1  0
  3 17  1  0
  4  5  2  0
  4  8  1  0
  5  6  1  0
  5 36  1  0
  6  7  2  0
  6 37  1  0
  7 38  1  0
  8  9  2  0
  8 39  1  0
  9 10  1  0
  9 19  1  0
 10 11  1  0
 10 17  1  0
 11 12  2  0
 11 16  1  0
 12 13  1  0
 12 40  1  0
 13 14  2  0
 13 41  1  0
 14 15  1  0
 14 42  1  0
 15 16  2  0
 15 43  1  0
 16 44  1  0
 17 18  2  0
 19 20  1  0
 19 34  1  0
 19 45  1  6
 20 21  1  0
 20 35  1  1
 20 66  1  0
 21 22  1  0
 21 46  1  1
 21 47  1  0
 22 23  1  0
 22 33  2  0
 23 24  1  0
 23 30  2  0
 24 25  1  0
 25 26  1  0
 25 48  1  1
 25 49  1  0
 26 27  1  0
 26 50  1  6
 26 51  1  0
 27 28  1  0
 27 29  1  0
 27 65  1  6
 28 52  1  1
 28 53  1  0
 28 54  1  0
 29 55  1  1
 29 56  1  0
 29 57  1  0
 30 31  1  0
 30 58  1  0
 31 32  2  0
 31 59  1  0
 32 33  1  0
 32 60  1  0
 33 61  1  0
 34 62  1  6
 34 63  1  0
 34 64  1  0
M  CHG  2  20   1  27   1
M  END
>  <s_epik_cmdline>  (325) 
J2VwaWtfcHl0aG9uJywgJy1waCcsICc3LjAwMDAwMCcsICctcGh0JywgJzIuMDAwMDAwJywgJy1tcycsICcxNicsICctdG4nLCAnOCcsICctbWEnLCAnMjAwJywgJy1pbWFlJywgJzxpbmZpbGUubWFlPicsICctb21hZScsICc8b3V0ZmlsZS5tYWU+Jw==

>  <s_epik_input>  (325) 
Q2xjMVtjSF1bY0hdW2NIXWMoYzEyKVtjSF1jKG4oYzI9TyktYzNbY0hdW2NIXVtjSF1bY0hdW2NIXTMpW0NAQEhdKFtDSDNdKVtOSF1bQ0gyXWM0YyhbY0hdW2NIXVtjSF1bY0hdNClPW0NIMl1bQ0gyXU4oW0NIM10pW0NIM10=

>  <s_i_glide_gridfile>  (325) 
ATP-Grid

>  <s_lp_Force_Field>  (325) 
OPLS_2005

>  <s_lp_Variant>  (325) 
a4____33703____436756-1

>  <s_lp_label>  (325) 
181_sdstereoexpander_1_neutralizer_1_epik_1_stereoizer_1

>  <s_m_source_file>  (325) 
ATP-VSW-LIGPREP-002-in.maegz

>  <s_sd_BIOSOLVEIT.INFINISEE\_QUERY\_NAME>  (325) 
Ref-Lig

>  <s_sd_BIOSOLVEIT.INFINISEE\_QUERY\_SMILES>  (325) 
S(c1nc2c(cc1C[NH2+]Cc3ccc(cc3)C[NH+](C)C)cccc2)Cc4ccccc4

>  <s_sd_BIOSOLVEIT.INFINISEE\_REACTION\_NAME>  (325) 
a4

>  <s_sd_BIOSOLVEIT.INFINISEE\_REAGENT1\_SMILES>  (325) 
[R1*]NC(C=1N(c2ccccc2)C(=O)c3c(Cl)cccc3C1)C

>  <s_sd_BIOSOLVEIT.INFINISEE\_REAGENT2\_SMILES>  (325) 
[R1*]Cc1c(OCCN(C)C)cccc1

>  <s_sd_BIOSOLVEIT.INFINISEE\_SPACE>  (325) 
FreedomSpace_5bn_2023-06

>  <s_vsw_compound_code>  (325) 
5762

>  <s_vsw_variant>  (325) 
5762-1

>  <r_epik_Charging_Adjusted_Penalty>  (325) 
0.79310994022399395

>  <r_epik_Ionization_Penalty>  (325) 
0.3982

>  <r_epik_Ionization_Penalty_Charging>  (325) 
0.3982

>  <r_epik_Ionization_Penalty_Neutral>  (325) 
0

>  <r_epik_State_Penalty>  (325) 
0.39489999999999997

>  <r_i_docking_score>  (325) 
-4.4415349771317603

>  <r_i_glide_ecoul>  (325) 
-11.080766677856399

>  <r_i_glide_eff_state_penalty>  (325) 
0.39489999999999997

>  <r_i_glide_einternal>  (325) 
6.1316680908203098

>  <r_i_glide_emodel>  (325) 
-64.517944081058602

>  <r_i_glide_energy>  (325) 
-45.037824630737298

>  <r_i_glide_erotb>  (325) 
0.70934640826811401

>  <r_i_glide_esite>  (325) 
-0.14931984743569501

>  <r_i_glide_evdw>  (325) 
-33.957057952880902

>  <r_i_glide_gscore>  (325) 
-4.8364349771317601

>  <r_i_glide_hbond>  (325) 
-0.20000000000000001

>  <r_i_glide_ligand_efficiency>  (325) 
-0.13063338168034599

>  <r_i_glide_ligand_efficiency_ln>  (325) 
-0.98125965728467901

>  <r_i_glide_ligand_efficiency_sa>  (325) 
-0.42320144443497998

>  <r_i_glide_lipo>  (325) 
-1.68666600227803

>  <r_i_glide_metal>  (325) 
-0

>  <r_i_glide_rewards>  (325) 
-0.149827636363636

>  <r_lp_Energy>  (325) 
59.750962999999999

>  <r_lp_tautomer_probability>  (325) 
1

>  <r_qp_ACxDN^.5/SA>  (325) 
0.0095405999999999998

>  <r_qp_CIQPlogS>  (325) 
-5.2089999999999996

>  <r_qp_EA(eV)>  (325) 
0.45800000000000002

>  <r_qp_FISA>  (325) 
33.899999999999999

>  <r_qp_FOSA>  (325) 
259.34500000000003

>  <r_qp_IP(eV)>  (325) 
8.5579999999999998

>  <r_qp_Jm>  (325) 
0.0052263334702502499

>  <r_qp_PISA>  (325) 
407.05399999999997

>  <r_qp_PSA>  (325) 
48.689999999999998

>  <r_qp_PercentHumanOralAbsorption>  (325) 
100

>  <r_qp_QPPCaco>  (325) 
293.91800000000001

>  <r_qp_QPPMDCK>  (325) 
341.88799999999998

>  <r_qp_QPlogBB>  (325) 
0.68700000000000006

>  <r_qp_QPlogHERG>  (325) 
-7.8689999999999998

>  <r_qp_QPlogKhsa>  (325) 
0.79900000000000004

>  <r_qp_QPlogKp>  (325) 
-4.0670000000000002

>  <r_qp_QPlogPC16>  (325) 
15.471

>  <r_qp_QPlogPo/w>  (325) 
4.8120000000000003

>  <r_qp_QPlogPoct>  (325) 
22.725000000000001

>  <r_qp_QPlogPw>  (325) 
11.409000000000001

>  <r_qp_QPlogS>  (325) 
-3.8919999999999999

>  <r_qp_QPpolrz>  (325) 
50.923999999999999

>  <r_qp_SASA>  (325) 
759.91200000000003

>  <r_qp_SAamideO>  (325) 
0

>  <r_qp_SAfluorine>  (325) 
0

>  <r_qp_WPSA>  (325) 
59.613

>  <r_qp_accptHB>  (325) 
7.25

>  <r_qp_dip^2/V>  (325) 
0.022746800000000001

>  <r_qp_dipole>  (325) 
5.758

>  <r_qp_donorHB>  (325) 
1

>  <r_qp_glob>  (325) 
0.81808700000000001

>  <r_qp_mol_MW>  (325) 
476.017

>  <r_qp_volume>  (325) 
1457.4590000000001

>  <r_sd_BIOSOLVEIT.INFINISEE\_FTREES\_SIMILARITY>  (325) 
0.92700000000000005

>  <r_sd_BIOSOLVEIT.LOGP>  (325) 
2.992

>  <r_sd_BIOSOLVEIT.MOLECULAR\_WEIGHT>  (325) 
478.03300000000002

>  <r_sd_BIOSOLVEIT.TPSA>  (325) 
52.280000000000001

>  <i_epik_Tot_Q>  (325) 
2

>  <i_epik_Tot_abs_Q>  (325) 
2

>  <i_f3d_flags>  (325) 
0

>  <i_i_glide_confnum>  (325) 
8

>  <i_i_glide_lignum>  (325) 
139

>  <i_i_glide_posenum>  (325) 
17

>  <i_i_glide_rotatable_bonds>  (325) 
9

>  <i_lp_mmshare_version>  (325) 
65135

>  <i_m_ct_format>  (325) 
2

>  <i_m_source_file_index>  (325) 
181

>  <i_qp_#NandO>  (325) 
5

>  <i_qp_#acid>  (325) 
0

>  <i_qp_#amide>  (325) 
0

>  <i_qp_#amidine>  (325) 
0

>  <i_qp_#amine>  (325) 
2

>  <i_qp_#in34>  (325) 
0

>  <i_qp_#in56>  (325) 
22

>  <i_qp_#metab>  (325) 
5

>  <i_qp_#nonHatm>  (325) 
34

>  <i_qp_#noncon>  (325) 
0

>  <i_qp_#ringatoms>  (325) 
22

>  <i_qp_#rotor>  (325) 
8

>  <i_qp_#rtvFG>  (325) 
0

>  <i_qp_#stars>  (325) 
0

>  <i_qp_CNS>  (325) 
2

>  <i_qp_HumanOralAbsorption>  (325) 
3

>  <i_qp_RuleOfFive>  (325) 
0

>  <i_qp_RuleOfThree>  (325) 
0

>  <i_sd_BIOSOLVEIT.INFINISEE\_REAGENT1\_NAME>  (325) 
33703

>  <i_sd_BIOSOLVEIT.INFINISEE\_REAGENT2\_NAME>  (325) 
436756

>  <i_sd_BIOSOLVEIT.INFINISEE\_RESULT\_RANK>  (325) 
6802

>  <i_sd_version>  (325) 
0

>  <b_lp_Chiralities_Consistent>  (325) 
1

>  <b_sd_chiral_flag>  (325) 
0

>  <canonical_id>  (325) 
ATP-HTVS-362E300BB66B

>  <compound_code>  (325) 
5762

>  <title>  (325) 
a4____33703____436756

>  <variant>  (325) 
5762-1

>  <source_file>  (325) 
运行/运行/ATP-VSW/ATP-VSW-DOCK_HTVS_1-002_lib.maegz

>  <canonical_smiles>  (325) 
C[C@@H]([NH2+]Cc1ccccc1OCC[NH+](C)C)c1cc2cccc(Cl)c2c(=O)n1-c1ccccc1

>  <scaffold>  (325) 
O=c1c2ccccc2cc(C[NH2+]Cc2ccccc2)n1-c1ccccc1

>  <molecular_formula>  (325) 
C28H32ClN3O2+2

$$$$
ATP-HTVS-3634D47351B0
     RDKit          3D

 55 58  0  0  0  0  0  0  0  0999 V2000
  200.5238  183.2080  153.6733 O   0  0  0  0  0  0  0  0  0  0  0  0
  199.5068  182.6815  154.1353 C   0  0  0  0  0  0  0  0  0  0  0  0
  198.2877  183.2413  154.3438 N   0  0  0  0  0  0  0  0  0  0  0  0
  197.2644  182.2902  154.8664 C   0  0  1  0  0  0  0  0  0  0  0  0
  198.0622  181.0064  154.8991 C   0  0  0  0  0  0  0  0  0  0  0  0
  199.3661  181.2526  154.4974 C   0  0  0  0  0  0  0  0  0  0  0  0
  200.3415  180.2372  154.4457 C   0  0  0  0  0  0  0  0  0  0  0  0
  199.9543  178.9429  154.8634 C   0  0  0  0  0  0  0  0  0  0  0  0
  198.6386  178.6971  155.3278 C   0  0  0  0  0  0  0  0  0  0  0  0
  197.6708  179.7252  155.3348 C   0  0  0  0  0  0  0  0  0  0  0  0
  196.8625  182.6696  156.2949 C   0  0  1  0  0  0  0  0  0  0  0  0
  195.7778  181.8452  156.8730 N   0  0  1  0  0  0  0  0  0  0  0  0
  195.5767  181.9091  158.3364 C   0  0  1  0  0  0  0  0  0  0  0  0
  195.8749  183.2861  158.9514 C   0  0  0  0  0  0  0  0  0  0  0  0
  197.2168  183.7505  159.0458 C   0  0  0  0  0  0  0  0  0  0  0  0
  197.4810  185.0938  159.4064 C   0  0  0  0  0  0  0  0  0  0  0  0
  196.4379  185.9394  159.8391 C   0  0  0  0  0  0  0  0  0  0  0  0
  195.1142  185.4451  159.8719 C   0  0  0  0  0  0  0  0  0  0  0  0
  194.8374  184.1408  159.4082 C   0  0  0  0  0  0  0  0  0  0  0  0
  198.9013  185.6232  159.2762 C   0  0  2  0  0  0  0  0  0  0  0  0
  194.1532  181.4077  158.6417 C   0  0  2  0  0  0  0  0  0  0  0  0
  197.9369  184.5979  153.9292 C   0  0  1  0  0  0  0  0  0  0  0  0
  197.6218  184.6681  152.4447 C   0  0  0  0  0  0  0  0  0  0  0  0
  198.2734  185.6083  151.6210 C   0  0  0  0  0  0  0  0  0  0  0  0
  197.9714  185.6618  150.2446 C   0  0  0  0  0  0  0  0  0  0  0  0
  197.0265  184.7774  149.6838 C   0  0  0  0  0  0  0  0  0  0  0  0
  196.3773  183.8409  150.5067 C   0  0  0  0  0  0  0  0  0  0  0  0
  196.6689  183.7950  151.8752 C   0  0  0  0  0  0  0  0  0  0  0  0
  194.9173  182.1047  156.4035 H   0  0  0  0  0  0  0  0  0  0  0  0
  196.4029  182.1672  154.2124 H   0  0  0  0  0  0  0  0  0  0  0  0
  201.3429  180.4347  154.0874 H   0  0  0  0  0  0  0  0  0  0  0  0
  200.6633  178.1296  154.8377 H   0  0  0  0  0  0  0  0  0  0  0  0
  198.3548  177.7138  155.6756 H   0  0  0  0  0  0  0  0  0  0  0  0
  196.6778  179.5231  155.7073 H   0  0  0  0  0  0  0  0  0  0  0  0
  197.7998  182.5833  156.8762 H   0  0  0  0  0  0  0  0  0  0  0  0
  196.5296  183.7107  156.3055 H   0  0  0  0  0  0  0  0  0  0  0  0
  196.2883  181.2209  158.7881 H   0  0  0  0  0  0  0  0  0  0  0  0
  198.0588  183.1188  158.7814 H   0  0  0  0  0  0  0  0  0  0  0  0
  196.6319  186.9648  160.1652 H   0  0  0  0  0  0  0  0  0  0  0  0
  194.2936  186.0505  160.2479 H   0  0  0  0  0  0  0  0  0  0  0  0
  193.7971  183.8382  159.4094 H   0  0  0  0  0  0  0  0  0  0  0  0
  198.9241  186.7165  159.2019 H   0  0  0  0  0  0  0  0  0  0  0  0
  199.3813  185.2259  158.3757 H   0  0  0  0  0  0  0  0  0  0  0  0
  199.4718  185.3007  160.1400 H   0  0  0  0  0  0  0  0  0  0  0  0
  193.9851  181.3918  159.7105 H   0  0  0  0  0  0  0  0  0  0  0  0
  193.9550  180.3957  158.2848 H   0  0  0  0  0  0  0  0  0  0  0  0
  193.3897  182.0296  158.1729 H   0  0  0  0  0  0  0  0  0  0  0  0
  197.0653  184.9570  154.4794 H   0  0  0  0  0  0  0  0  0  0  0  0
  198.7462  185.2951  154.1836 H   0  0  0  0  0  0  0  0  0  0  0  0
  198.9963  186.2935  152.0412 H   0  0  0  0  0  0  0  0  0  0  0  0
  198.4707  186.3801  149.6150 H   0  0  0  0  0  0  0  0  0  0  0  0
  196.7915  184.8136  148.6290 H   0  0  0  0  0  0  0  0  0  0  0  0
  195.6433  183.1549  150.1150 H   0  0  0  0  0  0  0  0  0  0  0  0
  196.1105  183.0856  152.4589 H   0  0  0  0  0  0  0  0  0  0  0  0
  195.9403  180.8637  156.6737 H   0  0  0  0  0  0  0  0  0  0  0  0
  1  2  2  0
  2  3  1  0
  2  6  1  0
  3  4  1  0
  3 22  1  0
  4  5  1  0
  4 11  1  0
  4 30  1  6
  5  6  1  0
  5 10  2  0
  6  7  2  0
  7  8  1  0
  7 31  1  0
  8  9  2  0
  8 32  1  0
  9 10  1  0
  9 33  1  0
 10 34  1  0
 11 12  1  0
 11 35  1  1
 11 36  1  0
 12 13  1  0
 12 29  1  6
 12 55  1  0
 13 14  1  0
 13 21  1  0
 13 37  1  1
 14 15  1  0
 14 19  2  0
 15 16  2  0
 15 38  1  0
 16 17  1  0
 16 20  1  0
 17 18  2  0
 17 39  1  0
 18 19  1  0
 18 40  1  0
 19 41  1  0
 20 42  1  6
 20 43  1  0
 20 44  1  0
 21 45  1  1
 21 46  1  0
 21 47  1  0
 22 23  1  0
 22 48  1  1
 22 49  1  0
 23 24  2  0
 23 28  1  0
 24 25  1  0
 24 50  1  0
 25 26  2  0
 25 51  1  0
 26 27  1  0
 26 52  1  0
 27 28  2  0
 27 53  1  0
 28 54  1  0
M  CHG  1  12   1
M  END
>  <s_epik_cmdline>  (326) 
J2VwaWtfcHl0aG9uJywgJy1waCcsICc3LjAwMDAwMCcsICctcGh0JywgJzIuMDAwMDAwJywgJy1tcycsICcxNicsICctdG4nLCAnOCcsICctbWEnLCAnMjAwJywgJy1pbWFlJywgJzxpbmZpbGUubWFlPicsICctb21hZScsICc8b3V0ZmlsZS5tYWU+Jw==

>  <s_epik_input>  (326) 
W2NIXTFbY0hdW2NIXVtjSF1bY0hdYzFbQ0gyXU4oQyg9TyljKGMyMylbY0hdW2NIXVtjSF1bY0hdMylbQ0BASF0yW0NIMl1bTkhdW0NASF0oW0NIM10pYzRbY0hdYyhbQ0gzXSlbY0hdW2NIXVtjSF00

>  <s_i_glide_gridfile>  (326) 
ATP-Grid

>  <s_lp_Force_Field>  (326) 
OPLS_2005

>  <s_lp_Variant>  (326) 
m_44daa____12219686____6202036-2

>  <s_lp_label>  (326) 
712_sdstereoexpander_2_neutralizer_1_epik_1_stereoizer_1

>  <s_m_source_file>  (326) 
ATP-VSW-LIGPREP-002-in.maegz

>  <s_sd_BIOSOLVEIT.INFINISEE\_QUERY\_NAME>  (326) 
Ref-Lig

>  <s_sd_BIOSOLVEIT.INFINISEE\_QUERY\_SMILES>  (326) 
S(c1nc2c(cc1C[NH2+]Cc3ccc(cc3)C[NH+](C)C)cccc2)Cc4ccccc4

>  <s_sd_BIOSOLVEIT.INFINISEE\_REACTION\_NAME>  (326) 
m_44daa

>  <s_sd_BIOSOLVEIT.INFINISEE\_REAGENT1\_SMILES>  (326) 
[R1*]NCC1N(C(=O)c2c1cccc2)Cc3ccccc3

>  <s_sd_BIOSOLVEIT.INFINISEE\_REAGENT2\_SMILES>  (326) 
[R1*]C(c1cc(ccc1)C)C

>  <s_sd_BIOSOLVEIT.INFINISEE\_SPACE>  (326) 
REALSpace_44bn_2023-08

>  <s_vsw_compound_code>  (326) 
22754

>  <s_vsw_variant>  (326) 
22754-2

>  <r_epik_Charging_Adjusted_Penalty>  (326) 
0.116679291136256

>  <r_epik_Ionization_Penalty>  (326) 
0.058299999999999998

>  <r_epik_Ionization_Penalty_Charging>  (326) 
0.058299999999999998

>  <r_epik_Ionization_Penalty_Neutral>  (326) 
0

>  <r_epik_State_Penalty>  (326) 
0.058299999999999998

>  <r_i_docking_score>  (326) 
-5.5201445102959603

>  <r_i_glide_ecoul>  (326) 
-11.8052625656128

>  <r_i_glide_eff_state_penalty>  (326) 
0.058299999999999998

>  <r_i_glide_einternal>  (326) 
5.5292439460754403

>  <r_i_glide_emodel>  (326) 
-64.622130022016705

>  <r_i_glide_energy>  (326) 
-44.635245323181202

>  <r_i_glide_erotb>  (326) 
0.83924340879109005

>  <r_i_glide_esite>  (326) 
-0.099981992265521305

>  <r_i_glide_evdw>  (326) 
-32.829982757568402

>  <r_i_glide_gscore>  (326) 
-5.5784445102959603

>  <r_i_glide_hbond>  (326) 
-0.30966107486411898

>  <r_i_glide_ligand_efficiency>  (326) 
-0.197148018224856

>  <r_i_glide_ligand_efficiency_ln>  (326) 
-1.27421143146188

>  <r_i_glide_ligand_efficiency_sa>  (326) 
-0.59865749730378903

>  <r_i_glide_lipo>  (326) 
-1.71958369287344

>  <r_i_glide_metal>  (326) 
-0

>  <r_i_glide_rewards>  (326) 
-0.87617263636363396

>  <r_lp_Energy>  (326) 
46.355015000000002

>  <r_qp_ACxDN^.5/SA>  (326) 
0.0066722999999999999

>  <r_qp_CIQPlogS>  (326) 
-5.0919999999999996

>  <r_qp_EA(eV)>  (326) 
0.13500000000000001

>  <r_qp_FISA>  (326) 
35.238999999999997

>  <r_qp_FOSA>  (326) 
236.929

>  <r_qp_IP(eV)>  (326) 
9.2100000000000009

>  <r_qp_Jm>  (326) 
0.0416687578108648

>  <r_qp_PISA>  (326) 
402.26400000000001

>  <r_qp_PSA>  (326) 
39.668999999999997

>  <r_qp_PercentHumanOralAbsorption>  (326) 
100

>  <r_qp_QPPCaco>  (326) 
1144.54

>  <r_qp_QPPMDCK>  (326) 
633.28999999999996

>  <r_qp_QPlogBB>  (326) 
0.26000000000000001

>  <r_qp_QPlogHERG>  (326) 
-6.9180000000000001

>  <r_qp_QPlogKhsa>  (326) 
0.88300000000000001

>  <r_qp_QPlogKp>  (326) 
-2.238

>  <r_qp_QPlogPC16>  (326) 
13.105

>  <r_qp_QPlogPo/w>  (326) 
4.9329999999999998

>  <r_qp_QPlogPoct>  (326) 
18.379000000000001

>  <r_qp_QPlogPw>  (326) 
8.8919999999999995

>  <r_qp_QPlogS>  (326) 
-4.7110000000000003

>  <r_qp_QPpolrz>  (326) 
43.723999999999997

>  <r_qp_SASA>  (326) 
674.43100000000004

>  <r_qp_SAamideO>  (326) 
0

>  <r_qp_SAfluorine>  (326) 
0

>  <r_qp_WPSA>  (326) 
0

>  <r_qp_accptHB>  (326) 
4.5

>  <r_qp_dip^2/V>  (326) 
0.016919199999999999

>  <r_qp_dipole>  (326) 
4.593

>  <r_qp_donorHB>  (326) 
1

>  <r_qp_glob>  (326) 
0.83057630000000005

>  <r_qp_mol_MW>  (326) 
370.49299999999999

>  <r_qp_volume>  (326) 
1246.6030000000001

>  <r_sd_BIOSOLVEIT.INFINISEE\_FTREES\_SIMILARITY>  (326) 
0.92900000000000005

>  <r_sd_BIOSOLVEIT.LOGP>  (326) 
4.0167200000000003

>  <r_sd_BIOSOLVEIT.MOLECULAR\_WEIGHT>  (326) 
371.50099999999998

>  <r_sd_BIOSOLVEIT.TPSA>  (326) 
36.920000000000002

>  <i_epik_Tot_Q>  (326) 
1

>  <i_epik_Tot_abs_Q>  (326) 
1

>  <i_f3d_flags>  (326) 
0

>  <i_i_glide_confnum>  (326) 
4

>  <i_i_glide_lignum>  (326) 
212

>  <i_i_glide_posenum>  (326) 
18

>  <i_i_glide_rotatable_bonds>  (326) 
6

>  <i_lp_mmshare_version>  (326) 
65135

>  <i_m_ct_format>  (326) 
2

>  <i_m_source_file_index>  (326) 
712

>  <i_qp_#NandO>  (326) 
3

>  <i_qp_#acid>  (326) 
0

>  <i_qp_#amide>  (326) 
0

>  <i_qp_#amidine>  (326) 
0

>  <i_qp_#amine>  (326) 
1

>  <i_qp_#in34>  (326) 
0

>  <i_qp_#in56>  (326) 
21

>  <i_qp_#metab>  (326) 
6

>  <i_qp_#nonHatm>  (326) 
28

>  <i_qp_#noncon>  (326) 
1

>  <i_qp_#ringatoms>  (326) 
21

>  <i_qp_#rotor>  (326) 
6

>  <i_qp_#rtvFG>  (326) 
0

>  <i_qp_#stars>  (326) 
0

>  <i_qp_CNS>  (326) 
1

>  <i_qp_HumanOralAbsorption>  (326) 
3

>  <i_qp_RuleOfFive>  (326) 
0

>  <i_qp_RuleOfThree>  (326) 
0

>  <i_sd_BIOSOLVEIT.INFINISEE\_REAGENT1\_NAME>  (326) 
12219686

>  <i_sd_BIOSOLVEIT.INFINISEE\_REAGENT2\_NAME>  (326) 
6202036

>  <i_sd_BIOSOLVEIT.INFINISEE\_RESULT\_RANK>  (326) 
5213

>  <i_sd_version>  (326) 
0

>  <b_lp_Chiralities_Consistent>  (326) 
1

>  <b_sd_chiral_flag>  (326) 
0

>  <canonical_id>  (326) 
ATP-HTVS-3634D47351B0

>  <compound_code>  (326) 
22754

>  <title>  (326) 
m_44daa____12219686____6202036

>  <variant>  (326) 
22754-2

>  <source_file>  (326) 
运行/运行/ATP-VSW/ATP-VSW-DOCK_HTVS_1-002_lib.maegz

>  <canonical_smiles>  (326) 
Cc1cccc([C@@H](C)[NH2+]C[C@@H]2c3ccccc3C(=O)N2Cc2ccccc2)c1

>  <scaffold>  (326) 
O=C1c2ccccc2C(C[NH2+]Cc2ccccc2)N1Cc1ccccc1

>  <molecular_formula>  (326) 
C25H27N2O+

$$$$
ATP-HTVS-3654BFD7575B
     RDKit          3D

 59 61  0  0  0  0  0  0  0  0999 V2000
  199.3536  186.0185  145.9358 Cl  0  0  0  0  0  0  0  0  0  0  0  0
  198.8764  185.4214  147.4801 C   0  0  0  0  0  0  0  0  0  0  0  0
  199.8119  185.3522  148.5273 C   0  0  0  0  0  0  0  0  0  0  0  0
  199.4222  184.8702  149.7934 C   0  0  0  0  0  0  0  0  0  0  0  0
  198.0986  184.4369  150.0098 C   0  0  0  0  0  0  0  0  0  0  0  0
  197.7192  183.9710  151.3002 N   0  0  0  0  0  0  0  0  0  0  0  0
  197.1645  182.7590  151.4552 C   0  0  0  0  0  0  0  0  0  0  0  0
  195.9518  182.6011  151.4386 O   0  0  0  0  0  0  0  0  0  0  0  0
  198.1133  181.6319  151.6953 C   0  0  0  0  0  0  0  0  0  0  0  0
  198.4147  181.0324  152.9657 C   0  0  0  0  0  0  0  0  0  0  0  0
  197.8540  181.4975  154.1775 N   0  0  0  0  0  0  0  0  0  0  0  0
  198.2014  180.9541  155.4826 C   0  0  1  0  0  0  0  0  0  0  0  0
  197.7109  181.8326  156.6174 C   0  0  0  0  0  0  0  0  0  0  0  0
  196.3478  181.8432  156.9702 C   0  0  0  0  0  0  0  0  0  0  0  0
  195.8921  182.6424  158.0366 C   0  0  0  0  0  0  0  0  0  0  0  0
  196.8008  183.4469  158.7570 C   0  0  0  0  0  0  0  0  0  0  0  0
  198.1670  183.4343  158.4051 C   0  0  0  0  0  0  0  0  0  0  0  0
  198.6167  182.6374  157.3342 C   0  0  0  0  0  0  0  0  0  0  0  0
  196.3170  184.3370  159.8921 C   0  0  1  0  0  0  0  0  0  0  0  0
  195.8136  185.6496  159.4065 N   0  0  2  0  0  0  0  0  0  0  0  0
  196.8213  186.4349  158.6481 C   0  0  2  0  0  0  0  0  0  0  0  0
  195.2202  186.4544  160.4957 C   0  0  2  0  0  0  0  0  0  0  0  0
  199.3037  179.9958  152.8545 C   0  0  0  0  0  0  0  0  0  0  0  0
  199.7949  179.7207  151.2052 S   0  0  0  0  0  0  0  0  0  0  0  0
  198.7906  181.0380  150.6570 C   0  0  0  0  0  0  0  0  0  0  0  0
  197.9482  184.8371  152.4646 C   0  0  1  0  0  0  0  0  0  0  0  0
  196.8457  184.7667  153.5541 C   0  0  1  0  0  0  0  0  0  0  0  0
  197.1515  185.6434  154.6895 N   0  0  2  0  0  0  0  0  0  0  0  0
  197.1565  184.5130  148.9546 C   0  0  0  0  0  0  0  0  0  0  0  0
  197.5464  185.0022  147.6921 C   0  0  0  0  0  0  0  0  0  0  0  0
  196.4209  185.5303  155.3725 H   0  0  0  0  0  0  0  0  0  0  0  0
  197.1738  186.6098  154.3861 H   0  0  0  0  0  0  0  0  0  0  0  0
  200.8328  185.6759  148.3643 H   0  0  0  0  0  0  0  0  0  0  0  0
  200.1451  184.8294  150.5926 H   0  0  0  0  0  0  0  0  0  0  0  0
  197.0674  182.1305  154.1539 H   0  0  0  0  0  0  0  0  0  0  0  0
  197.7800  179.9554  155.6003 H   0  0  0  0  0  0  0  0  0  0  0  0
  199.2830  180.8506  155.5627 H   0  0  0  0  0  0  0  0  0  0  0  0
  195.6417  181.2229  156.4362 H   0  0  0  0  0  0  0  0  0  0  0  0
  194.8381  182.6254  158.2851 H   0  0  0  0  0  0  0  0  0  0  0  0
  198.8777  184.0357  158.9498 H   0  0  0  0  0  0  0  0  0  0  0  0
  199.6663  182.6423  157.0690 H   0  0  0  0  0  0  0  0  0  0  0  0
  195.5286  183.8125  160.4373 H   0  0  0  0  0  0  0  0  0  0  0  0
  197.1270  184.4968  160.6053 H   0  0  0  0  0  0  0  0  0  0  0  0
  197.6788  186.6693  159.2802 H   0  0  0  0  0  0  0  0  0  0  0  0
  196.4020  187.3734  158.2862 H   0  0  0  0  0  0  0  0  0  0  0  0
  197.1873  185.9046  157.7699 H   0  0  0  0  0  0  0  0  0  0  0  0
  195.9557  186.6739  161.2722 H   0  0  0  0  0  0  0  0  0  0  0  0
  194.3772  185.9318  160.9504 H   0  0  0  0  0  0  0  0  0  0  0  0
  194.8528  187.4071  160.1133 H   0  0  0  0  0  0  0  0  0  0  0  0
  199.6863  179.3622  153.6438 H   0  0  0  0  0  0  0  0  0  0  0  0
  198.7562  181.2756  149.6028 H   0  0  0  0  0  0  0  0  0  0  0  0
  198.9257  184.5914  152.8839 H   0  0  0  0  0  0  0  0  0  0  0  0
  197.9991  185.8639  152.0990 H   0  0  0  0  0  0  0  0  0  0  0  0
  195.8799  185.0330  153.1382 H   0  0  0  0  0  0  0  0  0  0  0  0
  196.7199  183.7772  153.9787 H   0  0  0  0  0  0  0  0  0  0  0  0
  196.1263  184.2263  149.1116 H   0  0  0  0  0  0  0  0  0  0  0  0
  196.8226  185.0847  146.8983 H   0  0  0  0  0  0  0  0  0  0  0  0
  198.0319  185.3805  155.1017 H   0  0  0  0  0  0  0  0  0  0  0  0
  195.0562  185.4377  158.7715 H   0  0  0  0  0  0  0  0  0  0  0  0
  1  2  1  0
  2  3  1  0
  2 30  2  0
  3  4  2  0
  3 33  1  0
  4  5  1  0
  4 34  1  0
  5  6  1  0
  5 29  2  0
  6  7  1  0
  6 26  1  0
  7  8  2  0
  7  9  1  0
  9 10  1  0
  9 25  2  0
 10 11  1  0
 10 23  2  0
 11 12  1  0
 11 35  1  0
 12 13  1  0
 12 36  1  1
 12 37  1  0
 13 14  1  0
 13 18  2  0
 14 15  2  0
 14 38  1  0
 15 16  1  0
 15 39  1  0
 16 17  2  0
 16 19  1  0
 17 18  1  0
 17 40  1  0
 18 41  1  0
 19 20  1  0
 19 42  1  1
 19 43  1  0
 20 21  1  0
 20 22  1  0
 20 59  1  6
 21 44  1  1
 21 45  1  0
 21 46  1  0
 22 47  1  1
 22 48  1  0
 22 49  1  0
 23 24  1  0
 23 50  1  0
 24 25  1  0
 25 51  1  0
 26 27  1  0
 26 52  1  1
 26 53  1  0
 27 28  1  0
 27 54  1  6
 27 55  1  0
 28 31  1  1
 28 32  1  0
 28 58  1  0
 29 30  1  0
 29 56  1  0
 30 57  1  0
M  CHG  2  20   1  28   1
M  END
>  <s_epik_cmdline>  (327) 
J2VwaWtfcHl0aG9uJywgJy1waCcsICc3LjAwMDAwMCcsICctcGh0JywgJzIuMDAwMDAwJywgJy1tcycsICcxNicsICctdG4nLCAnOCcsICctbWEnLCAnMjAwJywgJy1pbWFlJywgJzxpbmZpbGUubWFlPicsICctb21hZScsICc8b3V0ZmlsZS5tYWU+Jw==

>  <s_epik_input>  (327) 
Q2xjMVtjSF1bY0hdYyhbY0hdW2NIXTEpTihbQ0gyXVtDSDJdW05IMl0pQyg9TyljMmMoW2NIXXNbY0hdMilbTkhdW0NIMl1jM1tjSF1bY0hdYyhbY0hdW2NIXTMpW0NIMl1OKFtDSDNdKVtDSDNd

>  <s_i_glide_gridfile>  (327) 
ATP-Grid

>  <s_lp_Force_Field>  (327) 
OPLS_2005

>  <s_lp_Variant>  (327) 
rxn512b____EMOL49832880____EMOL10439745____EMOL50155899-1

>  <s_lp_label>  (327) 
2545_sdstereoexpander_1_neutralizer_1_epik_1_stereoizer_1

>  <s_m_source_file>  (327) 
ATP-VSW-LIGPREP-001-in.maegz

>  <s_sd_BIOSOLVEIT.INFINISEE\_QUERY\_NAME>  (327) 
Ref-Lig

>  <s_sd_BIOSOLVEIT.INFINISEE\_QUERY\_SMILES>  (327) 
S(c1nc2c(cc1C[NH2+]Cc3ccc(cc3)C[NH+](C)C)cccc2)Cc4ccccc4

>  <s_sd_BIOSOLVEIT.INFINISEE\_REACTION\_NAME>  (327) 
rxn512b

>  <s_sd_BIOSOLVEIT.INFINISEE\_REAGENT1\_NAME>  (327) 
EMOL49832880

>  <s_sd_BIOSOLVEIT.INFINISEE\_REAGENT1\_SMILES>  (327) 
Clc1ccc(NCCN)cc1

>  <s_sd_BIOSOLVEIT.INFINISEE\_REAGENT2\_NAME>  (327) 
EMOL10439745

>  <s_sd_BIOSOLVEIT.INFINISEE\_REAGENT2\_SMILES>  (327) 
BrC=1C(C(=O)O)=CSC1

>  <s_sd_BIOSOLVEIT.INFINISEE\_REAGENT3\_NAME>  (327) 
EMOL50155899

>  <s_sd_BIOSOLVEIT.INFINISEE\_REAGENT3\_SMILES>  (327) 
N(Cc1ccc(cc1)CN)(C)C

>  <s_sd_BIOSOLVEIT.INFINISEE\_SPACE>  (327) 
eXplore_7tr_2022-12

>  <s_vsw_compound_code>  (327) 
81409

>  <s_vsw_variant>  (327) 
81409-1

>  <r_epik_Charging_Adjusted_Penalty>  (327) 
0.090303258902975497

>  <r_epik_Ionization_Penalty>  (327) 
0.045199999999999997

>  <r_epik_Ionization_Penalty_Charging>  (327) 
0.045199999999999997

>  <r_epik_Ionization_Penalty_Neutral>  (327) 
0

>  <r_epik_State_Penalty>  (327) 
0.045199999999999997

>  <r_i_docking_score>  (327) 
-3.71645058261148

>  <r_i_glide_ecoul>  (327) 
-5.9995012283325204

>  <r_i_glide_eff_state_penalty>  (327) 
0.045199999999999997

>  <r_i_glide_einternal>  (327) 
20.991867065429702

>  <r_i_glide_emodel>  (327) 
-41.859039719801601

>  <r_i_glide_energy>  (327) 
-38.807255744934103

>  <r_i_glide_erotb>  (327) 
0.80809397529168503

>  <r_i_glide_esite>  (327) 
-0.0100354698200596

>  <r_i_glide_evdw>  (327) 
-32.807754516601598

>  <r_i_glide_gscore>  (327) 
-3.7616505826114799

>  <r_i_glide_hbond>  (327) 
0

>  <r_i_glide_ligand_efficiency>  (327) 
-0.123881686087049

>  <r_i_glide_ligand_efficiency_ln>  (327) 
-0.84441806634173899

>  <r_i_glide_ligand_efficiency_sa>  (327) 
-0.38492920146564502

>  <r_i_glide_lipo>  (327) 
-1.5934112511534599

>  <r_i_glide_metal>  (327) 
-0

>  <r_i_glide_rewards>  (327) 
-0.42598492684969302

>  <r_lp_Energy>  (327) 
37.096955000000001

>  <r_lp_tautomer_probability>  (327) 
0.99999274205267796

>  <r_qp_ACxDN^.5/SA>  (327) 
0.0108825

>  <r_qp_CIQPlogS>  (327) 
-3.6299999999999999

>  <r_qp_EA(eV)>  (327) 
0.51900000000000002

>  <r_qp_FISA>  (327) 
93.355999999999995

>  <r_qp_FOSA>  (327) 
271.85199999999998

>  <r_qp_IP(eV)>  (327) 
8.1050000000000004

>  <r_qp_Jm>  (327) 
0.000759686918588386

>  <r_qp_PISA>  (327) 
291.25099999999998

>  <r_qp_PSA>  (327) 
69.366

>  <r_qp_PercentHumanOralAbsorption>  (327) 
73.840999999999994

>  <r_qp_QPPCaco>  (327) 
20.013000000000002

>  <r_qp_QPPMDCK>  (327) 
46.25

>  <r_qp_QPlogBB>  (327) 
0.035999999999999997

>  <r_qp_QPlogHERG>  (327) 
-8.6679999999999993

>  <r_qp_QPlogKhsa>  (327) 
0.78100000000000003

>  <r_qp_QPlogKp>  (327) 
-5.3789999999999996

>  <r_qp_QPlogPC16>  (327) 
15.477

>  <r_qp_QPlogPo/w>  (327) 
4.0309999999999997

>  <r_qp_QPlogPoct>  (327) 
22.045999999999999

>  <r_qp_QPlogPw>  (327) 
10.888

>  <r_qp_QPlogS>  (327) 
-3.387

>  <r_qp_QPpolrz>  (327) 
46.588000000000001

>  <r_qp_SASA>  (327) 
779.71600000000001

>  <r_qp_SAamideO>  (327) 
0

>  <r_qp_SAfluorine>  (327) 
0

>  <r_qp_WPSA>  (327) 
123.258

>  <r_qp_accptHB>  (327) 
6

>  <r_qp_dip^2/V>  (327) 
0.0158885

>  <r_qp_dipole>  (327) 
4.7309999999999999

>  <r_qp_donorHB>  (327) 
2

>  <r_qp_glob>  (327) 
0.77947379999999999

>  <r_qp_mol_MW>  (327) 
443.005

>  <r_qp_volume>  (327) 
1408.8320000000001

>  <r_sd_BIOSOLVEIT.INFINISEE\_FTREES\_SIMILARITY>  (327) 
0.91300000000000003

>  <r_sd_BIOSOLVEIT.LOGP>  (327) 
2.5468000000000002

>  <r_sd_BIOSOLVEIT.MOLECULAR\_WEIGHT>  (327) 
445.02699999999999

>  <r_sd_BIOSOLVEIT.TPSA>  (327) 
64.420000000000002

>  <i_epik_Tot_Q>  (327) 
2

>  <i_epik_Tot_abs_Q>  (327) 
2

>  <i_f3d_flags>  (327) 
0

>  <i_i_glide_confnum>  (327) 
3

>  <i_i_glide_lignum>  (327) 
1018

>  <i_i_glide_posenum>  (327) 
15

>  <i_i_glide_rotatable_bonds>  (327) 
10

>  <i_lp_mmshare_version>  (327) 
65135

>  <i_m_ct_format>  (327) 
2

>  <i_m_source_file_index>  (327) 
2545

>  <i_qp_#NandO>  (327) 
5

>  <i_qp_#acid>  (327) 
0

>  <i_qp_#amide>  (327) 
0

>  <i_qp_#amidine>  (327) 
0

>  <i_qp_#amine>  (327) 
3

>  <i_qp_#in34>  (327) 
0

>  <i_qp_#in56>  (327) 
17

>  <i_qp_#metab>  (327) 
7

>  <i_qp_#nonHatm>  (327) 
30

>  <i_qp_#noncon>  (327) 
0

>  <i_qp_#ringatoms>  (327) 
17

>  <i_qp_#rotor>  (327) 
10

>  <i_qp_#rtvFG>  (327) 
0

>  <i_qp_#stars>  (327) 
0

>  <i_qp_CNS>  (327) 
1

>  <i_qp_HumanOralAbsorption>  (327) 
2

>  <i_qp_RuleOfFive>  (327) 
0

>  <i_qp_RuleOfThree>  (327) 
2

>  <i_sd_BIOSOLVEIT.INFINISEE\_RESULT\_RANK>  (327) 
35131

>  <i_sd_version>  (327) 
0

>  <b_lp_Chiralities_Consistent>  (327) 
1

>  <b_sd_chiral_flag>  (327) 
0

>  <canonical_id>  (327) 
ATP-HTVS-3654BFD7575B

>  <compound_code>  (327) 
81409

>  <title>  (327) 
rxn512b____EMOL49832880____EMOL10439745____EMOL50155899

>  <variant>  (327) 
81409-1

>  <source_file>  (327) 
运行/运行/ATP-VSW/ATP-VSW-DOCK_HTVS_1-001_lib/ATP-VSW-DOCK_HTVS_1-001_lib

>  <canonical_smiles>  (327) 
C[NH+](C)Cc1ccc(CNc2cscc2C(=O)N(CC[NH3+])c2ccc(Cl)cc2)cc1

>  <scaffold>  (327) 
O=C(Nc1ccccc1)c1cscc1NCc1ccccc1

>  <molecular_formula>  (327) 
C23H29ClN4OS+2

$$$$
ATP-HTVS-366F4BAC4B87
     RDKit          3D

 63 66  0  0  0  0  0  0  0  0999 V2000
  199.7382  186.1570  154.5129 O   0  0  0  0  0  0  0  0  0  0  0  0
  198.9294  185.3084  154.1393 C   0  0  0  0  0  0  0  0  0  0  0  0
  198.5829  185.0642  152.8611 N   0  0  0  0  0  0  0  0  0  0  0  0
  199.2140  185.4752  151.6488 C   0  0  0  0  0  0  0  0  0  0  0  0
  200.2640  186.3249  151.6582 N   0  0  0  0  0  0  0  0  0  0  0  0
  200.8599  186.6760  150.5072 C   0  0  0  0  0  0  0  0  0  0  0  0
  200.4182  186.2195  149.2584 C   0  0  0  0  0  0  0  0  0  0  0  0
  199.3318  185.3203  149.1910 C   0  0  0  0  0  0  0  0  0  0  0  0
  198.9180  184.8361  147.8512 C   0  0  0  0  0  0  0  0  0  0  0  0
  199.8020  184.0952  147.0200 C   0  0  0  0  0  0  0  0  0  0  0  0
  201.0679  183.8315  147.5100 O   0  0  0  0  0  0  0  0  0  0  0  0
  201.9847  183.1361  146.6748 C   0  0  2  0  0  0  0  0  0  0  0  0
  199.3565  183.6478  145.7485 C   0  0  0  0  0  0  0  0  0  0  0  0
  198.0559  183.9276  145.3015 C   0  0  0  0  0  0  0  0  0  0  0  0
  197.1846  184.6636  146.1215 C   0  0  0  0  0  0  0  0  0  0  0  0
  197.6265  185.1429  147.3658 C   0  0  0  0  0  0  0  0  0  0  0  0
  198.7149  184.9284  150.4208 C   0  0  0  0  0  0  0  0  0  0  0  0
  197.5789  183.9442  150.4382 C   0  0  0  0  0  0  0  0  0  0  0  0
  196.4605  184.2480  150.0110 O   0  0  0  0  0  0  0  0  0  0  0  0
  197.8096  182.6191  151.0917 C   0  0  0  0  0  0  0  0  0  0  0  0
  196.6900  181.7981  151.3645 C   0  0  0  0  0  0  0  0  0  0  0  0
  196.8281  180.5828  152.0590 C   0  0  0  0  0  0  0  0  0  0  0  0
  198.1026  180.1710  152.4928 C   0  0  0  0  0  0  0  0  0  0  0  0
  199.2332  180.9675  152.2165 C   0  0  0  0  0  0  0  0  0  0  0  0
  199.0935  182.1778  151.5054 C   0  0  0  0  0  0  0  0  0  0  0  0
  198.1498  184.4948  155.1376 C   0  0  0  0  0  0  0  0  0  0  0  0
  197.7517  183.1641  154.8602 C   0  0  0  0  0  0  0  0  0  0  0  0
  197.0686  182.3973  155.8236 C   0  0  0  0  0  0  0  0  0  0  0  0
  196.8062  182.9398  157.1002 C   0  0  0  0  0  0  0  0  0  0  0  0
  197.2407  184.2485  157.3987 C   0  0  0  0  0  0  0  0  0  0  0  0
  197.9083  185.0177  156.4251 C   0  0  0  0  0  0  0  0  0  0  0  0
  196.0810  182.1148  158.1520 C   0  0  1  0  0  0  0  0  0  0  0  0
  194.6134  182.3879  158.1317 N   0  0  1  0  0  0  0  0  0  0  0  0
  193.8200  181.2627  158.6665 C   0  0  2  0  0  0  0  0  0  0  0  0
  194.2548  183.6630  158.8117 C   0  0  2  0  0  0  0  0  0  0  0  0
  197.8681  184.3619  152.7591 H   0  0  0  0  0  0  0  0  0  0  0  0
  201.6886  187.3671  150.5785 H   0  0  0  0  0  0  0  0  0  0  0  0
  200.9149  186.5571  148.3622 H   0  0  0  0  0  0  0  0  0  0  0  0
  202.9527  183.0810  147.1707 H   0  0  0  0  0  0  0  0  0  0  0  0
  202.1341  183.6490  145.7240 H   0  0  0  0  0  0  0  0  0  0  0  0
  201.6462  182.1165  146.4886 H   0  0  0  0  0  0  0  0  0  0  0  0
  199.9912  183.0676  145.0920 H   0  0  0  0  0  0  0  0  0  0  0  0
  197.7072  183.5621  144.3459 H   0  0  0  0  0  0  0  0  0  0  0  0
  196.1759  184.8700  145.8042 H   0  0  0  0  0  0  0  0  0  0  0  0
  196.9523  185.7418  147.9574 H   0  0  0  0  0  0  0  0  0  0  0  0
  195.6999  182.1153  151.0707 H   0  0  0  0  0  0  0  0  0  0  0  0
  195.9509  179.9871  152.2725 H   0  0  0  0  0  0  0  0  0  0  0  0
  198.2084  179.2498  153.0464 H   0  0  0  0  0  0  0  0  0  0  0  0
  200.2086  180.6642  152.5755 H   0  0  0  0  0  0  0  0  0  0  0  0
  199.9795  182.7726  151.3316 H   0  0  0  0  0  0  0  0  0  0  0  0
  197.9550  182.7006  153.9072 H   0  0  0  0  0  0  0  0  0  0  0  0
  196.7613  181.3860  155.5876 H   0  0  0  0  0  0  0  0  0  0  0  0
  197.0728  184.6785  158.3718 H   0  0  0  0  0  0  0  0  0  0  0  0
  198.2287  186.0209  156.6620 H   0  0  0  0  0  0  0  0  0  0  0  0
  196.2960  181.0690  157.9291 H   0  0  0  0  0  0  0  0  0  0  0  0
  196.4995  182.2871  159.1438 H   0  0  0  0  0  0  0  0  0  0  0  0
  194.1109  181.0365  159.6873 H   0  0  0  0  0  0  0  0  0  0  0  0
  193.9483  180.3673  158.0573 H   0  0  0  0  0  0  0  0  0  0  0  0
  192.7555  181.4868  158.6310 H   0  0  0  0  0  0  0  0  0  0  0  0
  194.5382  183.6437  159.8611 H   0  0  0  0  0  0  0  0  0  0  0  0
  193.1829  183.8485  158.7519 H   0  0  0  0  0  0  0  0  0  0  0  0
  194.7383  184.5190  158.3466 H   0  0  0  0  0  0  0  0  0  0  0  0
  194.3384  182.4834  157.1613 H   0  0  0  0  0  0  0  0  0  0  0  0
  1  2  2  0
  2  3  1  0
  2 26  1  0
  3  4  1  0
  3 36  1  0
  4  5  1  0
  4 17  2  0
  5  6  2  0
  6  7  1  0
  6 37  1  0
  7  8  2  0
  7 38  1  0
  8  9  1  0
  8 17  1  0
  9 10  1  0
  9 16  2  0
 10 11  1  0
 10 13  2  0
 11 12  1  0
 12 39  1  1
 12 40  1  0
 12 41  1  0
 13 14  1  0
 13 42  1  0
 14 15  2  0
 14 43  1  0
 15 16  1  0
 15 44  1  0
 16 45  1  0
 17 18  1  0
 18 19  2  0
 18 20  1  0
 20 21  2  0
 20 25  1  0
 21 22  1  0
 21 46  1  0
 22 23  2  0
 22 47  1  0
 23 24  1  0
 23 48  1  0
 24 25  2  0
 24 49  1  0
 25 50  1  0
 26 27  1  0
 26 31  2  0
 27 28  2  0
 27 51  1  0
 28 29  1  0
 28 52  1  0
 29 30  2  0
 29 32  1  0
 30 31  1  0
 30 53  1  0
 31 54  1  0
 32 33  1  0
 32 55  1  6
 32 56  1  0
 33 34  1  0
 33 35  1  0
 33 63  1  6
 34 57  1  1
 34 58  1  0
 34 59  1  0
 35 60  1  1
 35 61  1  0
 35 62  1  0
M  CHG  1  33   1
M  END
>  <s_epik_cmdline>  (328) 
J2VwaWtfcHl0aG9uJywgJy1waCcsICc3LjAwMDAwMCcsICctcGh0JywgJzIuMDAwMDAwJywgJy1tcycsICcxNicsICctdG4nLCAnOCcsICctbWEnLCAnMjAwJywgJy1pbWFlJywgJzxpbmZpbGUubWFlPicsICctb21hZScsICc8b3V0ZmlsZS5tYWU+Jw==

>  <s_epik_input>  (328) 
W0NIM11OKFtDSDNdKVtDSDJdYyhbY0hdW2NIXTEpW2NIXVtjSF1jMUMoPU8pW05IXWMybltjSF1bY0hdYygtYzNjKE9bQ0gzXSlbY0hdW2NIXVtjSF1bY0hdMyljMkMoPU8pYzRbY0hdW2NIXVtjSF1bY0hdW2NIXTQ=

>  <s_i_glide_gridfile>  (328) 
ATP-Grid

>  <s_lp_Force_Field>  (328) 
OPLS_2005

>  <s_lp_Variant>  (328) 
rxn501c____EMOL18624763____EMOL36251210____EMOL508816-1

>  <s_lp_label>  (328) 
2452_sdstereoexpander_1_neutralizer_1_epik_1_stereoizer_1

>  <s_m_source_file>  (328) 
ATP-VSW-LIGPREP-002-in.maegz

>  <s_sd_BIOSOLVEIT.INFINISEE\_QUERY\_NAME>  (328) 
Ref-Lig

>  <s_sd_BIOSOLVEIT.INFINISEE\_QUERY\_SMILES>  (328) 
S(c1nc2c(cc1C[NH2+]Cc3ccc(cc3)C[NH+](C)C)cccc2)Cc4ccccc4

>  <s_sd_BIOSOLVEIT.INFINISEE\_REACTION\_NAME>  (328) 
rxn501c

>  <s_sd_BIOSOLVEIT.INFINISEE\_REAGENT1\_NAME>  (328) 
EMOL18624763

>  <s_sd_BIOSOLVEIT.INFINISEE\_REAGENT1\_SMILES>  (328) 
O=C(O)c1ccc(cc1)CN(C)C

>  <s_sd_BIOSOLVEIT.INFINISEE\_REAGENT2\_NAME>  (328) 
EMOL36251210

>  <s_sd_BIOSOLVEIT.INFINISEE\_REAGENT2\_SMILES>  (328) 
Clc1c(c(ncc1)N)C(=O)c2ccccc2

>  <s_sd_BIOSOLVEIT.INFINISEE\_REAGENT3\_NAME>  (328) 
EMOL508816

>  <s_sd_BIOSOLVEIT.INFINISEE\_REAGENT3\_SMILES>  (328) 
O(c1c(cccc1)B(O)O)C

>  <s_sd_BIOSOLVEIT.INFINISEE\_SPACE>  (328) 
eXplore_7tr_2022-12

>  <s_vsw_compound_code>  (328) 
78434

>  <s_vsw_variant>  (328) 
78434-1

>  <r_epik_Charging_Adjusted_Penalty>  (328) 
0.10433640840748

>  <r_epik_Ionization_Penalty>  (328) 
0.052600000000000001

>  <r_epik_Ionization_Penalty_Charging>  (328) 
0.052200000000000003

>  <r_epik_Ionization_Penalty_Neutral>  (328) 
0.00050000000000000001

>  <r_epik_State_Penalty>  (328) 
0.052200000000000003

>  <r_i_docking_score>  (328) 
-4.0133852860949704

>  <r_i_glide_ecoul>  (328) 
-9.5557346343994105

>  <r_i_glide_eff_state_penalty>  (328) 
0.052200000000000003

>  <r_i_glide_einternal>  (328) 
1.80564820766449

>  <r_i_glide_emodel>  (328) 
-55.772668747131

>  <r_i_glide_energy>  (328) 
-41.762598037719698

>  <r_i_glide_erotb>  (328) 
0.64882283328308199

>  <r_i_glide_esite>  (328) 
-0.10000000000000001

>  <r_i_glide_evdw>  (328) 
-32.206863403320298

>  <r_i_glide_gscore>  (328) 
-4.0655852860949704

>  <r_i_glide_hbond>  (328) 
-0.20000000000000001

>  <r_i_glide_ligand_efficiency>  (328) 
-0.114668151031285

>  <r_i_glide_ligand_efficiency_ln>  (328) 
-0.881027142585183

>  <r_i_glide_ligand_efficiency_sa>  (328) 
-0.37508712524553101

>  <r_i_glide_lipo>  (328) 
-1.01091747595931

>  <r_i_glide_metal>  (328) 
-0

>  <r_i_glide_rewards>  (328) 
-0.35978727809280903

>  <r_lp_Energy>  (328) 
43.373176999999998

>  <r_lp_tautomer_probability>  (328) 
1

>  <r_qp_ACxDN^.5/SA>  (328) 
0

>  <r_qp_CIQPlogS>  (328) 
-5.9870000000000001

>  <r_qp_EA(eV)>  (328) 
0.70699999999999996

>  <r_qp_FISA>  (328) 
88.849999999999994

>  <r_qp_FOSA>  (328) 
243.85900000000001

>  <r_qp_IP(eV)>  (328) 
9.0120000000000005

>  <r_qp_Jm>  (328) 
0.0088436644524776693

>  <r_qp_PISA>  (328) 
458.00400000000002

>  <r_qp_PSA>  (328) 
78.111999999999995

>  <r_qp_PercentHumanOralAbsorption>  (328) 
100

>  <r_qp_QPPCaco>  (328) 
355.00599999999997

>  <r_qp_QPPMDCK>  (328) 
178.685

>  <r_qp_QPlogBB>  (328) 
-0.45300000000000001

>  <r_qp_QPlogHERG>  (328) 
-7.7290000000000001

>  <r_qp_QPlogKhsa>  (328) 
0.65700000000000003

>  <r_qp_QPlogKp>  (328) 
-2.8380000000000001

>  <r_qp_QPlogPC16>  (328) 
15.927

>  <r_qp_QPlogPo/w>  (328) 
4.8620000000000001

>  <r_qp_QPlogPoct>  (328) 
22.155000000000001

>  <r_qp_QPlogPw>  (328) 
10.718

>  <r_qp_QPlogS>  (328) 
-4.883

>  <r_qp_QPpolrz>  (328) 
52.604999999999997

>  <r_qp_SASA>  (328) 
790.71299999999997

>  <r_qp_SAamideO>  (328) 
0

>  <r_qp_SAfluorine>  (328) 
0

>  <r_qp_WPSA>  (328) 
0

>  <r_qp_accptHB>  (328) 
7.25

>  <r_qp_dip^2/V>  (328) 
0.046356899999999999

>  <r_qp_dipole>  (328) 
8.3030000000000008

>  <r_qp_donorHB>  (328) 
0

>  <r_qp_glob>  (328) 
0.79691440000000002

>  <r_qp_mol_MW>  (328) 
465.55099999999999

>  <r_qp_volume>  (328) 
1487.3

>  <r_sd_BIOSOLVEIT.INFINISEE\_FTREES\_SIMILARITY>  (328) 
0.91600000000000004

>  <r_sd_BIOSOLVEIT.LOGP>  (328) 
3.8849999999999998

>  <r_sd_BIOSOLVEIT.MOLECULAR\_WEIGHT>  (328) 
466.55799999999999

>  <r_sd_BIOSOLVEIT.TPSA>  (328) 
72.730000000000004

>  <i_epik_Tot_Q>  (328) 
1

>  <i_epik_Tot_abs_Q>  (328) 
1

>  <i_f3d_flags>  (328) 
0

>  <i_i_glide_confnum>  (328) 
4

>  <i_i_glide_lignum>  (328) 
1061

>  <i_i_glide_posenum>  (328) 
5

>  <i_i_glide_rotatable_bonds>  (328) 
9

>  <i_lp_mmshare_version>  (328) 
65135

>  <i_m_ct_format>  (328) 
2

>  <i_m_source_file_index>  (328) 
2452

>  <i_qp_#NandO>  (328) 
6

>  <i_qp_#acid>  (328) 
0

>  <i_qp_#amide>  (328) 
0

>  <i_qp_#amidine>  (328) 
0

>  <i_qp_#amine>  (328) 
1

>  <i_qp_#in34>  (328) 
0

>  <i_qp_#in56>  (328) 
24

>  <i_qp_#metab>  (328) 
4

>  <i_qp_#nonHatm>  (328) 
35

>  <i_qp_#noncon>  (328) 
0

>  <i_qp_#ringatoms>  (328) 
24

>  <i_qp_#rotor>  (328) 
8

>  <i_qp_#rtvFG>  (328) 
0

>  <i_qp_#stars>  (328) 
1

>  <i_qp_CNS>  (328) 
1

>  <i_qp_HumanOralAbsorption>  (328) 
3

>  <i_qp_RuleOfFive>  (328) 
0

>  <i_qp_RuleOfThree>  (328) 
0

>  <i_sd_BIOSOLVEIT.INFINISEE\_RESULT\_RANK>  (328) 
25761

>  <i_sd_version>  (328) 
0

>  <b_lp_Chiralities_Consistent>  (328) 
1

>  <b_sd_chiral_flag>  (328) 
0

>  <canonical_id>  (328) 
ATP-HTVS-366F4BAC4B87

>  <compound_code>  (328) 
78434

>  <title>  (328) 
rxn501c____EMOL18624763____EMOL36251210____EMOL508816

>  <variant>  (328) 
78434-1

>  <source_file>  (328) 
运行/运行/ATP-VSW/ATP-VSW-DOCK_HTVS_1-002_lib.maegz

>  <canonical_smiles>  (328) 
COc1ccccc1-c1ccnc(NC(=O)c2ccc(C[NH+](C)C)cc2)c1C(=O)c1ccccc1

>  <scaffold>  (328) 
O=C(Nc1nccc(-c2ccccc2)c1C(=O)c1ccccc1)c1ccccc1

>  <molecular_formula>  (328) 
C29H28N3O3+

$$$$
ATP-HTVS-3676162553B8
     RDKit          3D

 52 55  0  0  0  0  0  0  0  0999 V2000
  197.9046  183.0323  155.8161 S   0  0  0  0  0  0  0  0  0  0  0  0
  196.9728  183.5941  157.2142 C   0  0  0  0  0  0  0  0  0  0  0  0
  197.2708  184.8574  157.7666 C   0  0  0  0  0  0  0  0  0  0  0  0
  196.5432  185.3384  158.8719 C   0  0  0  0  0  0  0  0  0  0  0  0
  195.5161  184.5578  159.4321 C   0  0  0  0  0  0  0  0  0  0  0  0
  194.8180  185.0360  160.4892 F   0  0  0  0  0  0  0  0  0  0  0  0
  195.2196  183.2911  158.8893 C   0  0  0  0  0  0  0  0  0  0  0  0
  195.9480  182.8074  157.7830 C   0  0  0  0  0  0  0  0  0  0  0  0
  196.9643  181.7130  154.9935 C   0  0  1  0  0  0  0  0  0  0  0  0
  197.6498  181.3560  153.7003 C   0  0  0  0  0  0  0  0  0  0  0  0
  197.4398  181.9737  152.4194 C   0  0  0  0  0  0  0  0  0  0  0  0
  198.3152  181.3241  151.5166 C   0  0  0  0  0  0  0  0  0  0  0  0
  199.0536  180.3810  152.1955 O   0  0  0  0  0  0  0  0  0  0  0  0
  198.6374  180.4087  153.5080 C   0  0  0  0  0  0  0  0  0  0  0  0
  199.2595  179.4511  154.4421 C   0  0  0  0  0  0  0  0  0  0  0  0
  198.6064  178.9416  155.3488 O   0  0  0  0  0  0  0  0  0  0  0  0
  200.5654  179.2178  154.2529 N   0  0  0  0  0  0  0  0  0  0  0  0
  201.3858  178.3370  155.0842 C   0  0  1  0  0  0  0  0  0  0  0  0
  201.3266  176.8619  154.7052 C   0  0  0  0  0  0  0  0  0  0  0  0
  201.7768  175.8976  155.6320 C   0  0  0  0  0  0  0  0  0  0  0  0
  201.7337  174.5280  155.3087 C   0  0  0  0  0  0  0  0  0  0  0  0
  201.2330  174.1101  154.0562 C   0  0  0  0  0  0  0  0  0  0  0  0
  200.7942  175.0721  153.1247 C   0  0  0  0  0  0  0  0  0  0  0  0
  200.8427  176.4392  153.4456 C   0  0  0  0  0  0  0  0  0  0  0  0
  201.1499  172.6400  153.7064 C   0  0  1  0  0  0  0  0  0  0  0  0
  202.2742  172.2417  152.8505 N   0  0  2  0  0  0  0  0  0  0  0  0
  198.3839  181.6340  150.1473 C   0  0  0  0  0  0  0  0  0  0  0  0
  197.5532  182.6559  149.6464 C   0  0  0  0  0  0  0  0  0  0  0  0
  196.6825  183.3396  150.5188 C   0  0  0  0  0  0  0  0  0  0  0  0
  196.6221  183.0013  151.8874 C   0  0  0  0  0  0  0  0  0  0  0  0
  202.2521  171.2361  152.7178 H   0  0  0  0  0  0  0  0  0  0  0  0
  203.1335  172.4246  153.3504 H   0  0  0  0  0  0  0  0  0  0  0  0
  198.0551  185.4653  157.3405 H   0  0  0  0  0  0  0  0  0  0  0  0
  196.7654  186.3073  159.2933 H   0  0  0  0  0  0  0  0  0  0  0  0
  194.4325  182.6861  159.3137 H   0  0  0  0  0  0  0  0  0  0  0  0
  195.7069  181.8364  157.3774 H   0  0  0  0  0  0  0  0  0  0  0  0
  196.8671  180.8577  155.6644 H   0  0  0  0  0  0  0  0  0  0  0  0
  195.9593  182.0827  154.8033 H   0  0  0  0  0  0  0  0  0  0  0  0
  201.0116  179.6953  153.4826 H   0  0  0  0  0  0  0  0  0  0  0  0
  202.4229  178.6619  155.0097 H   0  0  0  0  0  0  0  0  0  0  0  0
  201.1129  178.4489  156.1353 H   0  0  0  0  0  0  0  0  0  0  0  0
  202.1563  176.2074  156.5974 H   0  0  0  0  0  0  0  0  0  0  0  0
  202.0794  173.8103  156.0370 H   0  0  0  0  0  0  0  0  0  0  0  0
  200.4026  174.7715  152.1646 H   0  0  0  0  0  0  0  0  0  0  0  0
  200.4968  177.1504  152.7114 H   0  0  0  0  0  0  0  0  0  0  0  0
  201.1830  172.0288  154.6068 H   0  0  0  0  0  0  0  0  0  0  0  0
  200.1991  172.4326  153.2114 H   0  0  0  0  0  0  0  0  0  0  0  0
  199.0669  181.1006  149.4987 H   0  0  0  0  0  0  0  0  0  0  0  0
  197.5885  182.9167  148.5988 H   0  0  0  0  0  0  0  0  0  0  0  0
  196.0549  184.1252  150.1301 H   0  0  0  0  0  0  0  0  0  0  0  0
  195.9488  183.5312  152.5397 H   0  0  0  0  0  0  0  0  0  0  0  0
  202.2668  172.7463  151.9771 H   0  0  0  0  0  0  0  0  0  0  0  0
  1  2  1  0
  1  9  1  0
  2  3  1  0
  2  8  2  0
  3  4  2  0
  3 33  1  0
  4  5  1  0
  4 34  1  0
  5  6  1  0
  5  7  2  0
  7  8  1  0
  7 35  1  0
  8 36  1  0
  9 10  1  0
  9 37  1  1
  9 38  1  0
 10 11  1  0
 10 14  2  0
 11 12  1  0
 11 30  2  0
 12 13  1  0
 12 27  2  0
 13 14  1  0
 14 15  1  0
 15 16  2  0
 15 17  1  0
 17 18  1  0
 17 39  1  0
 18 19  1  0
 18 40  1  1
 18 41  1  0
 19 20  1  0
 19 24  2  0
 20 21  2  0
 20 42  1  0
 21 22  1  0
 21 43  1  0
 22 23  2  0
 22 25  1  0
 23 24  1  0
 23 44  1  0
 24 45  1  0
 25 26  1  0
 25 46  1  1
 25 47  1  0
 26 31  1  6
 26 32  1  0
 26 52  1  0
 27 28  1  0
 27 48  1  0
 28 29  2  0
 28 49  1  0
 29 30  1  0
 29 50  1  0
 30 51  1  0
M  CHG  1  26   1
M  END
>  <s_epik_cmdline>  (329) 
J2VwaWtfcHl0aG9uJywgJy1waCcsICc3LjAwMDAwMCcsICctcGh0JywgJzIuMDAwMDAwJywgJy1tcycsICcxNicsICctdG4nLCAnOCcsICctbWEnLCAnMjAwJywgJy1pbWFlJywgJzxpbmZpbGUubWFlPicsICctb21hZScsICc8b3V0ZmlsZS5tYWU+Jw==

>  <s_epik_input>  (329) 
W2NIXTFbY0hdYyhGKVtjSF1bY0hdYzFTW0NIMl1jMmMob2MoYzIzKVtjSF1bY0hdW2NIXVtjSF0zKUMoPU8pW05IXVtDSDJdYzRbY0hdW2NIXWMoW2NIXVtjSF00KVtDSDJdW05IMl0=

>  <s_i_glide_gridfile>  (329) 
ATP-Grid

>  <s_lp_Force_Field>  (329) 
OPLS_2005

>  <s_lp_Variant>  (329) 
m_272430bbb____11579062____10044798-1

>  <s_lp_label>  (329) 
1946_sdstereoexpander_1_neutralizer_1_epik_1_stereoizer_1

>  <s_m_source_file>  (329) 
ATP-VSW-LIGPREP-001-in.maegz

>  <s_sd_BIOSOLVEIT.INFINISEE\_QUERY\_NAME>  (329) 
Ref-Lig

>  <s_sd_BIOSOLVEIT.INFINISEE\_QUERY\_SMILES>  (329) 
S(c1nc2c(cc1C[NH2+]Cc3ccc(cc3)C[NH+](C)C)cccc2)Cc4ccccc4

>  <s_sd_BIOSOLVEIT.INFINISEE\_REACTION\_NAME>  (329) 
m_272430bbb

>  <s_sd_BIOSOLVEIT.INFINISEE\_REAGENT1\_SMILES>  (329) 
[R1*]NCc1ccc(cc1)CN

>  <s_sd_BIOSOLVEIT.INFINISEE\_REAGENT2\_SMILES>  (329) 
[R1*]C(=O)C=1Oc2c(cccc2)C1CSc3ccc(F)cc3

>  <s_sd_BIOSOLVEIT.INFINISEE\_SPACE>  (329) 
REALSpace_44bn_2023-08

>  <s_vsw_compound_code>  (329) 
62241

>  <s_vsw_variant>  (329) 
62241-1

>  <r_epik_Charging_Adjusted_Penalty>  (329) 
0.054846296518064198

>  <r_epik_Ionization_Penalty>  (329) 
0.027400000000000001

>  <r_epik_Ionization_Penalty_Charging>  (329) 
0.027400000000000001

>  <r_epik_Ionization_Penalty_Neutral>  (329) 
0

>  <r_epik_State_Penalty>  (329) 
0.027400000000000001

>  <r_i_docking_score>  (329) 
-5.0132862173461801

>  <r_i_glide_ecoul>  (329) 
-7.8993473052978498

>  <r_i_glide_eff_state_penalty>  (329) 
0.027400000000000001

>  <r_i_glide_einternal>  (329) 
2.9885830879211399

>  <r_i_glide_emodel>  (329) 
-59.403300647984402

>  <r_i_glide_energy>  (329) 
-41.666730880737298

>  <r_i_glide_erotb>  (329) 
0.54612896789153798

>  <r_i_glide_esite>  (329) 
-0.114799213265618

>  <r_i_glide_evdw>  (329) 
-33.767383575439503

>  <r_i_glide_gscore>  (329) 
-5.0406862173461802

>  <r_i_glide_hbond>  (329) 
-0.066847408448806697

>  <r_i_glide_ligand_efficiency>  (329) 
-0.16710954057820601

>  <r_i_glide_ligand_efficiency_ln>  (329) 
-1.13907325270944

>  <r_i_glide_ligand_efficiency_sa>  (329) 
-0.51924819595092897

>  <r_i_glide_lipo>  (329) 
-1.2871951603242799

>  <r_i_glide_metal>  (329) 
-0

>  <r_i_glide_rewards>  (329) 
-1.2447021286323601

>  <r_lp_Energy>  (329) 
12.786267

>  <r_qp_ACxDN^.5/SA>  (329) 
0.0103094

>  <r_qp_CIQPlogS>  (329) 
-5.9630000000000001

>  <r_qp_EA(eV)>  (329) 
0.99299999999999999

>  <r_qp_FISA>  (329) 
98.623000000000005

>  <r_qp_FOSA>  (329) 
115.505

>  <r_qp_IP(eV)>  (329) 
8.4949999999999992

>  <r_qp_Jm>  (329) 
0.000744525700074451

>  <r_qp_PISA>  (329) 
473.68799999999999

>  <r_qp_PSA>  (329) 
71.245000000000005

>  <r_qp_PercentHumanOralAbsorption>  (329) 
100

>  <r_qp_QPPCaco>  (329) 
286.786

>  <r_qp_QPPMDCK>  (329) 
335.41500000000002

>  <r_qp_QPlogBB>  (329) 
-0.45900000000000002

>  <r_qp_QPlogHERG>  (329) 
-8.2230000000000008

>  <r_qp_QPlogKhsa>  (329) 
0.80800000000000005

>  <r_qp_QPlogKp>  (329) 
-2.9630000000000001

>  <r_qp_QPlogPC16>  (329) 
15.231

>  <r_qp_QPlogPo/w>  (329) 
4.899

>  <r_qp_QPlogPoct>  (329) 
22.917999999999999

>  <r_qp_QPlogPw>  (329) 
12.516999999999999

>  <r_qp_QPlogS>  (329) 
-5.7889999999999997

>  <r_qp_QPpolrz>  (329) 
46.186

>  <r_qp_SASA>  (329) 
756.02800000000002

>  <r_qp_SAamideO>  (329) 
0

>  <r_qp_SAfluorine>  (329) 
47.024999999999999

>  <r_qp_WPSA>  (329) 
68.212000000000003

>  <r_qp_accptHB>  (329) 
4.5

>  <r_qp_dip^2/V>  (329) 
0.039251599999999998

>  <r_qp_dipole>  (329) 
7.2069999999999999

>  <r_qp_donorHB>  (329) 
3

>  <r_qp_glob>  (329) 
0.77097249999999995

>  <r_qp_mol_MW>  (329) 
420.5

>  <r_qp_volume>  (329) 
1323.1769999999999

>  <r_sd_BIOSOLVEIT.INFINISEE\_FTREES\_SIMILARITY>  (329) 
0.90200000000000002

>  <r_sd_BIOSOLVEIT.LOGP>  (329) 
4.5361000000000002

>  <r_sd_BIOSOLVEIT.MOLECULAR\_WEIGHT>  (329) 
421.51299999999998

>  <r_sd_BIOSOLVEIT.TPSA>  (329) 
69.879999999999995

>  <i_epik_Tot_Q>  (329) 
1

>  <i_epik_Tot_abs_Q>  (329) 
1

>  <i_f3d_flags>  (329) 
0

>  <i_i_glide_confnum>  (329) 
4

>  <i_i_glide_lignum>  (329) 
597

>  <i_i_glide_posenum>  (329) 
14

>  <i_i_glide_rotatable_bonds>  (329) 
8

>  <i_lp_mmshare_version>  (329) 
65135

>  <i_m_ct_format>  (329) 
2

>  <i_m_source_file_index>  (329) 
1946

>  <i_qp_#NandO>  (329) 
4

>  <i_qp_#acid>  (329) 
0

>  <i_qp_#amide>  (329) 
0

>  <i_qp_#amidine>  (329) 
0

>  <i_qp_#amine>  (329) 
1

>  <i_qp_#in34>  (329) 
0

>  <i_qp_#in56>  (329) 
21

>  <i_qp_#metab>  (329) 
6

>  <i_qp_#nonHatm>  (329) 
30

>  <i_qp_#noncon>  (329) 
0

>  <i_qp_#ringatoms>  (329) 
21

>  <i_qp_#rotor>  (329) 
8

>  <i_qp_#rtvFG>  (329) 
0

>  <i_qp_#stars>  (329) 
1

>  <i_qp_CNS>  (329) 
0

>  <i_qp_HumanOralAbsorption>  (329) 
3

>  <i_qp_RuleOfFive>  (329) 
0

>  <i_qp_RuleOfThree>  (329) 
1

>  <i_sd_BIOSOLVEIT.INFINISEE\_REAGENT1\_NAME>  (329) 
11579062

>  <i_sd_BIOSOLVEIT.INFINISEE\_REAGENT2\_NAME>  (329) 
10044798

>  <i_sd_BIOSOLVEIT.INFINISEE\_RESULT\_RANK>  (329) 
87303

>  <i_sd_version>  (329) 
0

>  <b_lp_Chiralities_Consistent>  (329) 
1

>  <b_sd_chiral_flag>  (329) 
0

>  <canonical_id>  (329) 
ATP-HTVS-3676162553B8

>  <compound_code>  (329) 
62241

>  <title>  (329) 
m_272430bbb____11579062____10044798

>  <variant>  (329) 
62241-1

>  <source_file>  (329) 
运行/运行/ATP-VSW/ATP-VSW-DOCK_HTVS_1-001_lib/ATP-VSW-DOCK_HTVS_1-001_lib

>  <canonical_smiles>  (329) 
[NH3+]Cc1ccc(CNC(=O)c2oc3ccccc3c2CSc2ccc(F)cc2)cc1

>  <scaffold>  (329) 
O=C(NCc1ccccc1)c1oc2ccccc2c1CSc1ccccc1

>  <molecular_formula>  (329) 
C24H22FN2O2S+

$$$$
ATP-HTVS-368B62E0C748
     RDKit          3D

 45 48  0  0  0  0  0  0  0  0999 V2000
  199.6750  188.5693  157.0211 F   0  0  0  0  0  0  0  0  0  0  0  0
  198.9290  189.5433  157.6285 C   0  0  0  0  0  0  0  0  0  0  0  0
  198.2289  189.2943  158.8382 C   0  0  0  0  0  0  0  0  0  0  0  0
  197.5355  190.3536  159.4507 C   0  0  0  0  0  0  0  0  0  0  0  0
  196.8767  190.1519  160.6183 F   0  0  0  0  0  0  0  0  0  0  0  0
  197.5289  191.6361  158.8606 C   0  0  0  0  0  0  0  0  0  0  0  0
  198.2027  191.8608  157.6432 C   0  0  0  0  0  0  0  0  0  0  0  0
  198.8965  190.8139  157.0286 C   0  0  0  0  0  0  0  0  0  0  0  0
  198.2634  187.9209  159.4958 C   0  0  1  0  0  0  0  0  0  0  0  0
  197.4948  186.8925  158.7858 N   0  0  0  0  0  0  0  0  0  0  0  0
  197.9715  185.5364  159.1295 C   0  0  1  0  0  0  0  0  0  0  0  0
  197.0902  184.3999  158.5892 C   0  0  0  0  0  0  0  0  0  0  0  0
  195.7952  184.1856  159.1338 C   0  0  0  0  0  0  0  0  0  0  0  0
  195.2478  185.0425  160.1318 N   0  0  0  0  0  0  0  0  0  0  0  0
  195.3669  186.3686  160.1933 C   0  0  0  0  0  0  0  0  0  0  0  0
  194.9139  186.9975  161.1373 O   0  0  0  0  0  0  0  0  0  0  0  0
  196.0217  187.1034  159.0035 C   0  0  1  0  0  0  0  0  0  0  0  0
  195.0248  183.0782  158.7249 C   0  0  0  0  0  0  0  0  0  0  0  0
  195.5158  182.1957  157.7455 C   0  0  0  0  0  0  0  0  0  0  0  0
  196.7872  182.4033  157.1854 C   0  0  0  0  0  0  0  0  0  0  0  0
  197.5650  183.4942  157.6018 C   0  0  0  0  0  0  0  0  0  0  0  0
  199.4243  185.3257  158.6882 C   0  0  0  0  0  0  0  0  0  0  0  0
  200.3304  184.5634  159.4714 C   0  0  0  0  0  0  0  0  0  0  0  0
  201.6611  184.3796  159.0324 C   0  0  0  0  0  0  0  0  0  0  0  0
  202.0973  184.9662  157.8300 C   0  0  0  0  0  0  0  0  0  0  0  0
  201.1954  185.7035  157.0395 C   0  0  0  0  0  0  0  0  0  0  0  0
  199.8555  185.8343  157.4424 C   0  0  0  0  0  0  0  0  0  0  0  0
  196.9992  192.4429  159.3446 H   0  0  0  0  0  0  0  0  0  0  0  0
  198.1896  192.8452  157.1956 H   0  0  0  0  0  0  0  0  0  0  0  0
  199.4243  190.9748  156.0993 H   0  0  0  0  0  0  0  0  0  0  0  0
  199.3296  187.6978  159.5690 H   0  0  0  0  0  0  0  0  0  0  0  0
  197.9239  187.9698  160.5253 H   0  0  0  0  0  0  0  0  0  0  0  0
  197.9493  185.4535  160.2054 H   0  0  0  0  0  0  0  0  0  0  0  0
  194.6566  184.6044  160.8206 H   0  0  0  0  0  0  0  0  0  0  0  0
  195.7916  188.1754  159.0751 H   0  0  0  0  0  0  0  0  0  0  0  0
  195.5106  186.7843  158.1016 H   0  0  0  0  0  0  0  0  0  0  0  0
  194.0419  182.9027  159.1351 H   0  0  0  0  0  0  0  0  0  0  0  0
  194.9282  181.3664  157.4095 H   0  0  0  0  0  0  0  0  0  0  0  0
  197.1739  181.7273  156.4385 H   0  0  0  0  0  0  0  0  0  0  0  0
  198.5341  183.5743  157.1410 H   0  0  0  0  0  0  0  0  0  0  0  0
  199.9943  184.1043  160.3944 H   0  0  0  0  0  0  0  0  0  0  0  0
  202.3321  183.7770  159.6176 H   0  0  0  0  0  0  0  0  0  0  0  0
  203.1094  184.8350  157.4922 H   0  0  0  0  0  0  0  0  0  0  0  0
  201.5094  186.1624  156.1122 H   0  0  0  0  0  0  0  0  0  0  0  0
  199.1421  186.3354  156.8045 H   0  0  0  0  0  0  0  0  0  0  0  0
  1  2  1  0
  2  3  1  0
  2  8  2  0
  3  4  2  0
  3  9  1  0
  4  5  1  0
  4  6  1  0
  6  7  2  0
  6 28  1  0
  7  8  1  0
  7 29  1  0
  8 30  1  0
  9 10  1  0
  9 31  1  1
  9 32  1  0
 10 11  1  0
 10 17  1  0
 11 12  1  0
 11 22  1  0
 11 33  1  1
 12 13  1  0
 12 21  2  0
 13 14  1  0
 13 18  2  0
 14 15  1  0
 14 34  1  0
 15 16  2  0
 15 17  1  0
 17 35  1  1
 17 36  1  0
 18 19  1  0
 18 37  1  0
 19 20  2  0
 19 38  1  0
 20 21  1  0
 20 39  1  0
 21 40  1  0
 22 23  2  0
 22 27  1  0
 23 24  1  0
 23 41  1  0
 24 25  2  0
 24 42  1  0
 25 26  1  0
 25 43  1  0
 26 27  2  0
 26 44  1  0
 27 45  1  0
M  END
>  <s_epik_cmdline>  (330) 
J2VwaWtfcHl0aG9uJywgJy1waCcsICc3LjAwMDAwMCcsICctcGh0JywgJzIuMDAwMDAwJywgJy1tcycsICcxNicsICctdG4nLCAnOCcsICctbWEnLCAnMjAwJywgJy1pbWFlJywgJzxpbmZpbGUubWFlPicsICctb21hZScsICc8b3V0ZmlsZS5tYWU+Jw==

>  <s_epik_input>  (330) 
W2NIXTFbY0hdW2NIXVtjSF1bY0hdYzFbQ0BIXTJOKFtDSDJdYyhjM0YpYyhGKVtjSF1bY0hdW2NIXTMpW0NIMl1DKD1PKVtOSF1jKGMyNClbY0hdW2NIXVtjSF1bY0hdNA==

>  <s_i_glide_gridfile>  (330) 
ATP-Grid

>  <s_lp_Force_Field>  (330) 
OPLS_2005

>  <s_lp_Variant>  (330) 
m_2230bdc____17849930____9106708-1

>  <s_lp_label>  (330) 
925_sdstereoexpander_1_neutralizer_1_epik_1_stereoizer_1

>  <s_m_source_file>  (330) 
ATP-VSW-LIGPREP-001-in.maegz

>  <s_sd_BIOSOLVEIT.INFINISEE\_QUERY\_NAME>  (330) 
Ref-Lig

>  <s_sd_BIOSOLVEIT.INFINISEE\_QUERY\_SMILES>  (330) 
S(c1nc2c(cc1C[NH2+]Cc3ccc(cc3)C[NH+](C)C)cccc2)Cc4ccccc4

>  <s_sd_BIOSOLVEIT.INFINISEE\_REACTION\_NAME>  (330) 
m_2230bdc

>  <s_sd_BIOSOLVEIT.INFINISEE\_REAGENT1\_SMILES>  (330) 
[R1*]N1C(c2c(NC(=O)C1)cccc2)c3ccccc3

>  <s_sd_BIOSOLVEIT.INFINISEE\_REAGENT2\_SMILES>  (330) 
[R1*]Cc1c(F)cccc1F

>  <s_sd_BIOSOLVEIT.INFINISEE\_SPACE>  (330) 
REALSpace_44bn_2023-08

>  <s_vsw_compound_code>  (330) 
29569

>  <s_vsw_variant>  (330) 
29569-1

>  <r_epik_Charging_Adjusted_Penalty>  (330) 
0.0087634984339075902

>  <r_epik_Ionization_Penalty>  (330) 
0.0088000000000000005

>  <r_epik_Ionization_Penalty_Charging>  (330) 
0

>  <r_epik_Ionization_Penalty_Neutral>  (330) 
0.0088000000000000005

>  <r_epik_State_Penalty>  (330) 
0.0088000000000000005

>  <r_i_docking_score>  (330) 
-1.40309381742981

>  <r_i_glide_ecoul>  (330) 
0.25272327661514299

>  <r_i_glide_eff_state_penalty>  (330) 
0.0088000000000000005

>  <r_i_glide_einternal>  (330) 
0.512728631496429

>  <r_i_glide_emodel>  (330) 
-33.056361209890397

>  <r_i_glide_energy>  (330) 
-30.628988683223699

>  <r_i_glide_erotb>  (330) 
0.43435261575564199

>  <r_i_glide_esite>  (330) 
-0.022641169397232399

>  <r_i_glide_evdw>  (330) 
-30.881711959838899

>  <r_i_glide_gscore>  (330) 
-1.4118938174298099

>  <r_i_glide_hbond>  (330) 
0

>  <r_i_glide_ligand_efficiency>  (330) 
-0.051966437682585603

>  <r_i_glide_ligand_efficiency_ln>  (330) 
-0.32661710888823098

>  <r_i_glide_ligand_efficiency_sa>  (330) 
-0.15589931287648401

>  <r_i_glide_lipo>  (330) 
-0.97100430724443598

>  <r_i_glide_metal>  (330) 
-0

>  <r_i_glide_rewards>  (330) 
0.65357614995588598

>  <r_lp_Energy>  (330) 
39.252585000000003

>  <r_qp_ACxDN^.5/SA>  (330) 
0.0073451000000000002

>  <r_qp_CIQPlogS>  (330) 
-4.7220000000000004

>  <r_qp_EA(eV)>  (330) 
0.38500000000000001

>  <r_qp_FISA>  (330) 
55.235999999999997

>  <r_qp_FOSA>  (330) 
46.247

>  <r_qp_IP(eV)>  (330) 
8.9260000000000002

>  <r_qp_Jm>  (330) 
0.018849621281527

>  <r_qp_PISA>  (330) 
457.81299999999999

>  <r_qp_PSA>  (330) 
39.883000000000003

>  <r_qp_PercentHumanOralAbsorption>  (330) 
100

>  <r_qp_QPPCaco>  (330) 
739.59400000000005

>  <r_qp_QPPMDCK>  (330) 
774.33100000000002

>  <r_qp_QPlogBB>  (330) 
0.45300000000000001

>  <r_qp_QPlogHERG>  (330) 
-6.9930000000000003

>  <r_qp_QPlogKhsa>  (330) 
0.66300000000000003

>  <r_qp_QPlogKp>  (330) 
-2.7949999999999999

>  <r_qp_QPlogPC16>  (330) 
11.958

>  <r_qp_QPlogPo/w>  (330) 
4.1509999999999998

>  <r_qp_QPlogPoct>  (330) 
17.925000000000001

>  <r_qp_QPlogPw>  (330) 
10.157999999999999

>  <r_qp_QPlogS>  (330) 
-4.4909999999999997

>  <r_qp_QPpolrz>  (330) 
41.046999999999997

>  <r_qp_SASA>  (330) 
612.65499999999997

>  <r_qp_SAamideO>  (330) 
0

>  <r_qp_SAfluorine>  (330) 
53.359000000000002

>  <r_qp_WPSA>  (330) 
53.359000000000002

>  <r_qp_accptHB>  (330) 
4.5

>  <r_qp_dip^2/V>  (330) 
0.0096092

>  <r_qp_dipole>  (330) 
3.2549999999999999

>  <r_qp_donorHB>  (330) 
1

>  <r_qp_glob>  (330) 
0.84231489999999998

>  <r_qp_mol_MW>  (330) 
364.39400000000001

>  <r_qp_volume>  (330) 
1102.271

>  <r_sd_BIOSOLVEIT.INFINISEE\_FTREES\_SIMILARITY>  (330) 
0.91800000000000004

>  <r_sd_BIOSOLVEIT.LOGP>  (330) 
3.0914000000000001

>  <r_sd_BIOSOLVEIT.MOLECULAR\_WEIGHT>  (330) 
365.40100000000001

>  <r_sd_BIOSOLVEIT.TPSA>  (330) 
33.539999999999999

>  <i_epik_Tot_Q>  (330) 
0

>  <i_epik_Tot_abs_Q>  (330) 
0

>  <i_f3d_flags>  (330) 
0

>  <i_i_glide_confnum>  (330) 
5

>  <i_i_glide_lignum>  (330) 
178

>  <i_i_glide_posenum>  (330) 
5

>  <i_i_glide_rotatable_bonds>  (330) 
3

>  <i_lp_mmshare_version>  (330) 
65135

>  <i_m_ct_format>  (330) 
2

>  <i_m_source_file_index>  (330) 
925

>  <i_qp_#NandO>  (330) 
3

>  <i_qp_#acid>  (330) 
0

>  <i_qp_#amide>  (330) 
0

>  <i_qp_#amidine>  (330) 
0

>  <i_qp_#amine>  (330) 
1

>  <i_qp_#in34>  (330) 
0

>  <i_qp_#in56>  (330) 
18

>  <i_qp_#metab>  (330) 
7

>  <i_qp_#nonHatm>  (330) 
27

>  <i_qp_#noncon>  (330) 
2

>  <i_qp_#ringatoms>  (330) 
23

>  <i_qp_#rotor>  (330) 
2

>  <i_qp_#rtvFG>  (330) 
0

>  <i_qp_#stars>  (330) 
1

>  <i_qp_CNS>  (330) 
2

>  <i_qp_HumanOralAbsorption>  (330) 
3

>  <i_qp_RuleOfFive>  (330) 
0

>  <i_qp_RuleOfThree>  (330) 
1

>  <i_sd_BIOSOLVEIT.INFINISEE\_REAGENT1\_NAME>  (330) 
17849930

>  <i_sd_BIOSOLVEIT.INFINISEE\_REAGENT2\_NAME>  (330) 
9106708

>  <i_sd_BIOSOLVEIT.INFINISEE\_RESULT\_RANK>  (330) 
20417

>  <i_sd_version>  (330) 
0

>  <b_lp_Chiralities_Consistent>  (330) 
1

>  <b_sd_chiral_flag>  (330) 
0

>  <canonical_id>  (330) 
ATP-HTVS-368B62E0C748

>  <compound_code>  (330) 
29569

>  <title>  (330) 
m_2230bdc____17849930____9106708

>  <variant>  (330) 
29569-1

>  <source_file>  (330) 
运行/运行/ATP-VSW/ATP-VSW-DOCK_HTVS_1-001_lib/ATP-VSW-DOCK_HTVS_1-001_lib

>  <canonical_smiles>  (330) 
O=C1CN(Cc2c(F)cccc2F)[C@H](c2ccccc2)c2ccccc2N1

>  <scaffold>  (330) 
O=C1CN(Cc2ccccc2)C(c2ccccc2)c2ccccc2N1

>  <molecular_formula>  (330) 
C22H18F2N2O

$$$$
ATP-HTVS-369F0F09D6A7
     RDKit          3D

 63 66  0  0  0  0  0  0  0  0999 V2000
  199.8801  187.6045  155.5156 O   0  0  0  0  0  0  0  0  0  0  0  0
  199.0748  186.7352  155.8390 C   0  0  0  0  0  0  0  0  0  0  0  0
  198.2997  186.0554  154.9745 N   0  0  0  0  0  0  0  0  0  0  0  0
  198.3887  185.9940  153.5506 C   0  0  0  0  0  0  0  0  0  0  0  0
  197.7682  184.9148  152.8729 C   0  0  0  0  0  0  0  0  0  0  0  0
  197.0573  183.9422  153.5887 N   0  0  0  0  0  0  0  0  0  0  0  0
  197.6039  182.8807  154.3195 C   0  0  0  0  0  0  0  0  0  0  0  0
  198.9819  182.8231  154.6217 C   0  0  0  0  0  0  0  0  0  0  0  0
  199.5027  181.7436  155.3545 C   0  0  0  0  0  0  0  0  0  0  0  0
  198.6493  180.7112  155.7838 C   0  0  0  0  0  0  0  0  0  0  0  0
  197.2729  180.7619  155.4837 C   0  0  0  0  0  0  0  0  0  0  0  0
  196.7511  181.8446  154.7585 C   0  0  0  0  0  0  0  0  0  0  0  0
  199.2047  179.5608  156.5847 C   0  0  1  0  0  0  0  0  0  0  0  0
  199.1675  178.2258  155.8069 C   0  0  1  0  0  0  0  0  0  0  0  0
  199.5799  177.0811  156.6366 N   0  0  1  0  0  0  0  0  0  0  0  0
  200.9729  177.1104  157.1204 C   0  0  2  0  0  0  0  0  0  0  0  0
  197.8458  184.8512  151.4566 C   0  0  0  0  0  0  0  0  0  0  0  0
  198.5536  185.8799  150.7744 C   0  0  0  0  0  0  0  0  0  0  0  0
  199.1417  186.9001  151.4240 N   0  0  0  0  0  0  0  0  0  0  0  0
  199.0573  186.9573  152.7649 C   0  0  0  0  0  0  0  0  0  0  0  0
  198.6457  185.8281  149.3726 C   0  0  0  0  0  0  0  0  0  0  0  0
  198.0518  184.7860  148.6377 C   0  0  0  0  0  0  0  0  0  0  0  0
  197.3607  183.7639  149.3131 C   0  0  0  0  0  0  0  0  0  0  0  0
  197.2523  183.7978  150.7175 C   0  0  0  0  0  0  0  0  0  0  0  0
  198.9091  186.4188  157.3271 C   0  0  1  0  0  0  0  0  0  0  0  0
  197.5000  186.3586  157.7548 N   0  0  0  0  0  0  0  0  0  0  0  0
  196.8536  185.1517  158.1403 C   0  0  0  0  0  0  0  0  0  0  0  0
  195.5534  185.1743  158.7154 C   0  0  0  0  0  0  0  0  0  0  0  0
  194.8909  183.9919  159.1032 C   0  0  0  0  0  0  0  0  0  0  0  0
  195.5205  182.7474  158.9378 C   0  0  0  0  0  0  0  0  0  0  0  0
  196.8102  182.6986  158.3782 C   0  0  0  0  0  0  0  0  0  0  0  0
  197.4591  183.8767  157.9721 C   0  0  0  0  0  0  0  0  0  0  0  0
  196.7926  187.6388  157.8925 C   0  0  2  0  0  0  0  0  0  0  0  0
  198.9157  177.0903  157.4189 H   0  0  0  0  0  0  0  0  0  0  0  0
  197.6629  185.3807  155.3792 H   0  0  0  0  0  0  0  0  0  0  0  0
  196.0762  183.8208  153.3344 H   0  0  0  0  0  0  0  0  0  0  0  0
  199.6563  183.6052  154.3070 H   0  0  0  0  0  0  0  0  0  0  0  0
  200.5564  181.7158  155.5910 H   0  0  0  0  0  0  0  0  0  0  0  0
  196.6084  179.9786  155.8276 H   0  0  0  0  0  0  0  0  0  0  0  0
  195.6893  181.8728  154.5534 H   0  0  0  0  0  0  0  0  0  0  0  0
  200.2293  179.8118  156.8640 H   0  0  0  0  0  0  0  0  0  0  0  0
  198.6482  179.5113  157.5147 H   0  0  0  0  0  0  0  0  0  0  0  0
  198.1443  178.0215  155.4757 H   0  0  0  0  0  0  0  0  0  0  0  0
  199.7845  178.2856  154.9092 H   0  0  0  0  0  0  0  0  0  0  0  0
  201.1873  176.2261  157.7149 H   0  0  0  0  0  0  0  0  0  0  0  0
  201.1711  177.9714  157.7558 H   0  0  0  0  0  0  0  0  0  0  0  0
  201.6760  177.1378  156.2888 H   0  0  0  0  0  0  0  0  0  0  0  0
  199.5326  187.8281  153.1853 H   0  0  0  0  0  0  0  0  0  0  0  0
  199.1838  186.6095  148.8554 H   0  0  0  0  0  0  0  0  0  0  0  0
  198.1420  184.7614  147.5608 H   0  0  0  0  0  0  0  0  0  0  0  0
  196.9229  182.9522  148.7489 H   0  0  0  0  0  0  0  0  0  0  0  0
  196.7266  182.9982  151.2197 H   0  0  0  0  0  0  0  0  0  0  0  0
  199.4998  185.5297  157.5145 H   0  0  0  0  0  0  0  0  0  0  0  0
  199.3994  187.1971  157.9182 H   0  0  0  0  0  0  0  0  0  0  0  0
  195.0100  186.0970  158.8533 H   0  0  0  0  0  0  0  0  0  0  0  0
  193.8899  184.0456  159.5122 H   0  0  0  0  0  0  0  0  0  0  0  0
  195.0224  181.8295  159.2208 H   0  0  0  0  0  0  0  0  0  0  0  0
  197.2913  181.7425  158.2425 H   0  0  0  0  0  0  0  0  0  0  0  0
  198.4252  183.7357  157.5144 H   0  0  0  0  0  0  0  0  0  0  0  0
  195.9745  187.7156  157.1750 H   0  0  0  0  0  0  0  0  0  0  0  0
  197.4528  188.4871  157.7077 H   0  0  0  0  0  0  0  0  0  0  0  0
  196.3928  187.7926  158.8937 H   0  0  0  0  0  0  0  0  0  0  0  0
  199.4353  176.2367  156.1121 H   0  0  0  0  0  0  0  0  0  0  0  0
  1  2  2  0
  2  3  1  0
  2 25  1  0
  3  4  1  0
  3 35  1  0
  4  5  2  0
  4 20  1  0
  5  6  1  0
  5 17  1  0
  6  7  1  0
  6 36  1  0
  7  8  1  0
  7 12  2  0
  8  9  2  0
  8 37  1  0
  9 10  1  0
  9 38  1  0
 10 11  2  0
 10 13  1  0
 11 12  1  0
 11 39  1  0
 12 40  1  0
 13 14  1  0
 13 41  1  1
 13 42  1  0
 14 15  1  0
 14 43  1  6
 14 44  1  0
 15 16  1  0
 15 34  1  1
 15 63  1  0
 16 45  1  1
 16 46  1  0
 16 47  1  0
 17 18  1  0
 17 24  2  0
 18 19  1  0
 18 21  2  0
 19 20  2  0
 20 48  1  0
 21 22  1  0
 21 49  1  0
 22 23  2  0
 22 50  1  0
 23 24  1  0
 23 51  1  0
 24 52  1  0
 25 26  1  0
 25 53  1  6
 25 54  1  0
 26 27  1  0
 26 33  1  0
 27 28  2  0
 27 32  1  0
 28 29  1  0
 28 55  1  0
 29 30  2  0
 29 56  1  0
 30 31  1  0
 30 57  1  0
 31 32  2  0
 31 58  1  0
 32 59  1  0
 33 60  1  6
 33 61  1  0
 33 62  1  0
M  CHG  1  15   1
M  END
>  <s_epik_cmdline>  (331) 
J2VwaWtfcHl0aG9uJywgJy1waCcsICc3LjAwMDAwMCcsICctcGh0JywgJzIuMDAwMDAwJywgJy1tcycsICcxNicsICctdG4nLCAnOCcsICctbWEnLCAnMjAwJywgJy1pbWFlJywgJzxpbmZpbGUubWFlPicsICctb21hZScsICc8b3V0ZmlsZS5tYWU+Jw==

>  <s_epik_input>  (331) 
W2NIXTFbY0hdW2NIXVtjSF1bY0hdYzFOKFtDSDNdKVtDSDJdQyg9TylbTkhdYyhbY0hdbmMoYzIzKVtjSF1bY0hdW2NIXVtjSF0zKWMyW05IXWM0W2NIXVtjSF1jKFtjSF1bY0hdNClbQ0gyXVtDSDJdW05IXVtDSDNd

>  <s_i_glide_gridfile>  (331) 
ATP-Grid

>  <s_lp_Force_Field>  (331) 
OPLS_2005

>  <s_lp_Variant>  (331) 
rxn502b____EMOL31412043____EMOL30488121____EMOL38100949-2

>  <s_lp_label>  (331) 
2562_sdstereoexpander_1_neutralizer_1_epik_2_stereoizer_1

>  <s_m_source_file>  (331) 
ATP-VSW-LIGPREP-003-in.maegz

>  <s_sd_BIOSOLVEIT.INFINISEE\_QUERY\_NAME>  (331) 
Ref-Lig

>  <s_sd_BIOSOLVEIT.INFINISEE\_QUERY\_SMILES>  (331) 
S(c1nc2c(cc1C[NH2+]Cc3ccc(cc3)C[NH+](C)C)cccc2)Cc4ccccc4

>  <s_sd_BIOSOLVEIT.INFINISEE\_REACTION\_NAME>  (331) 
rxn502b

>  <s_sd_BIOSOLVEIT.INFINISEE\_REAGENT1\_NAME>  (331) 
EMOL31412043

>  <s_sd_BIOSOLVEIT.INFINISEE\_REAGENT1\_SMILES>  (331) 
O=C(O)CN(c1ccccc1)C

>  <s_sd_BIOSOLVEIT.INFINISEE\_REAGENT2\_NAME>  (331) 
EMOL30488121

>  <s_sd_BIOSOLVEIT.INFINISEE\_REAGENT2\_SMILES>  (331) 
Brc1c(N)cnc2c1cccc2

>  <s_sd_BIOSOLVEIT.INFINISEE\_REAGENT3\_NAME>  (331) 
EMOL38100949

>  <s_sd_BIOSOLVEIT.INFINISEE\_REAGENT3\_SMILES>  (331) 
N(CCc1ccc(N)cc1)C

>  <s_sd_BIOSOLVEIT.INFINISEE\_SPACE>  (331) 
eXplore_7tr_2022-12

>  <s_vsw_compound_code>  (331) 
81955

>  <s_vsw_variant>  (331) 
81955-2

>  <r_epik_Charging_Adjusted_Penalty>  (331) 
0.61599685840501905

>  <r_epik_Ionization_Penalty>  (331) 
0.61639999999999995

>  <r_epik_Ionization_Penalty_Charging>  (331) 
0.00050000000000000001

>  <r_epik_Ionization_Penalty_Neutral>  (331) 
0.61580000000000001

>  <r_epik_State_Penalty>  (331) 
0.61550000000000005

>  <r_i_docking_score>  (331) 
-4.5646148673201097

>  <r_i_glide_ecoul>  (331) 
-10.787967681884799

>  <r_i_glide_eff_state_penalty>  (331) 
0.61550000000000005

>  <r_i_glide_einternal>  (331) 
6.3559689521789604

>  <r_i_glide_emodel>  (331) 
-64.790532200689896

>  <r_i_glide_energy>  (331) 
-47.288002014160199

>  <r_i_glide_erotb>  (331) 
0.823013770814219

>  <r_i_glide_esite>  (331) 
-0.143209812130633

>  <r_i_glide_evdw>  (331) 
-36.500034332275398

>  <r_i_glide_gscore>  (331) 
-5.1801148673201096

>  <r_i_glide_hbond>  (331) 
-0.34584279578511801

>  <r_i_glide_ligand_efficiency>  (331) 
-0.13832166264606399

>  <r_i_glide_ligand_efficiency_ln>  (331) 
-1.01514671218109

>  <r_i_glide_ligand_efficiency_sa>  (331) 
-0.44367148100225101

>  <r_i_glide_lipo>  (331) 
-1.5306944105870901

>  <r_i_glide_metal>  (331) 
-0

>  <r_i_glide_rewards>  (331) 
-0.54018475073499495

>  <r_lp_Energy>  (331) 
36.349756999999997

>  <r_qp_ACxDN^.5/SA>  (331) 
0.013390300000000001

>  <r_qp_CIQPlogS>  (331) 
-5.6740000000000004

>  <r_qp_EA(eV)>  (331) 
1.1579999999999999

>  <r_qp_FISA>  (331) 
88.387

>  <r_qp_FOSA>  (331) 
267.55500000000001

>  <r_qp_IP(eV)>  (331) 
8.1219999999999999

>  <r_qp_Jm>  (331) 
0.00064320598264057199

>  <r_qp_PISA>  (331) 
484.84199999999998

>  <r_qp_PSA>  (331) 
73.465999999999994

>  <r_qp_PercentHumanOralAbsorption>  (331) 
100

>  <r_qp_QPPCaco>  (331) 
358.61700000000002

>  <r_qp_QPPMDCK>  (331) 
180.65000000000001

>  <r_qp_QPlogBB>  (331) 
-0.627

>  <r_qp_QPlogHERG>  (331) 
-8.6110000000000007

>  <r_qp_QPlogKhsa>  (331) 
0.84799999999999998

>  <r_qp_QPlogKp>  (331) 
-2.6389999999999998

>  <r_qp_QPlogPC16>  (331) 
17.131

>  <r_qp_QPlogPo/w>  (331) 
4.9729999999999999

>  <r_qp_QPlogPoct>  (331) 
25.675000000000001

>  <r_qp_QPlogPw>  (331) 
14.452999999999999

>  <r_qp_QPlogS>  (331) 
-6.1959999999999997

>  <r_qp_QPpolrz>  (331) 
52.320999999999998

>  <r_qp_SASA>  (331) 
840.78399999999999

>  <r_qp_SAamideO>  (331) 
0

>  <r_qp_SAfluorine>  (331) 
0

>  <r_qp_WPSA>  (331) 
0

>  <r_qp_accptHB>  (331) 
6.5

>  <r_qp_dip^2/V>  (331) 
0.0388878

>  <r_qp_dipole>  (331) 
7.6120000000000001

>  <r_qp_donorHB>  (331) 
3

>  <r_qp_glob>  (331) 
0.75031550000000002

>  <r_qp_mol_MW>  (331) 
439.55900000000003

>  <r_qp_volume>  (331) 
1489.8579999999999

>  <r_sd_BIOSOLVEIT.INFINISEE\_FTREES\_SIMILARITY>  (331) 
0.91200000000000003

>  <r_sd_BIOSOLVEIT.LOGP>  (331) 
3.7890000000000001

>  <r_sd_BIOSOLVEIT.MOLECULAR\_WEIGHT>  (331) 
440.56799999999998

>  <r_sd_BIOSOLVEIT.TPSA>  (331) 
73.870000000000005

>  <i_epik_Tot_Q>  (331) 
1

>  <i_epik_Tot_abs_Q>  (331) 
1

>  <i_f3d_flags>  (331) 
0

>  <i_i_glide_confnum>  (331) 
1

>  <i_i_glide_lignum>  (331) 
1131

>  <i_i_glide_posenum>  (331) 
15

>  <i_i_glide_rotatable_bonds>  (331) 
10

>  <i_lp_mmshare_version>  (331) 
65135

>  <i_m_ct_format>  (331) 
2

>  <i_m_source_file_index>  (331) 
2562

>  <i_qp_#NandO>  (331) 
6

>  <i_qp_#acid>  (331) 
0

>  <i_qp_#amide>  (331) 
0

>  <i_qp_#amidine>  (331) 
0

>  <i_qp_#amine>  (331) 
1

>  <i_qp_#in34>  (331) 
0

>  <i_qp_#in56>  (331) 
22

>  <i_qp_#metab>  (331) 
7

>  <i_qp_#nonHatm>  (331) 
33

>  <i_qp_#noncon>  (331) 
0

>  <i_qp_#ringatoms>  (331) 
22

>  <i_qp_#rotor>  (331) 
9

>  <i_qp_#rtvFG>  (331) 
0

>  <i_qp_#stars>  (331) 
1

>  <i_qp_CNS>  (331) 
0

>  <i_qp_HumanOralAbsorption>  (331) 
3

>  <i_qp_RuleOfFive>  (331) 
0

>  <i_qp_RuleOfThree>  (331) 
2

>  <i_sd_BIOSOLVEIT.INFINISEE\_RESULT\_RANK>  (331) 
37168

>  <i_sd_version>  (331) 
0

>  <b_lp_Chiralities_Consistent>  (331) 
1

>  <b_sd_chiral_flag>  (331) 
0

>  <canonical_id>  (331) 
ATP-HTVS-369F0F09D6A7

>  <compound_code>  (331) 
81955

>  <title>  (331) 
rxn502b____EMOL31412043____EMOL30488121____EMOL38100949

>  <variant>  (331) 
81955-2

>  <source_file>  (331) 
运行/运行/ATP-VSW/ATP-VSW-DOCK_HTVS_1-003_lib/ATP-VSW-DOCK_HTVS_1-003_lib.mae

>  <canonical_smiles>  (331) 
C[NH2+]CCc1ccc(Nc2c(NC(=O)CN(C)c3ccccc3)cnc3ccccc23)cc1

>  <scaffold>  (331) 
O=C(CNc1ccccc1)Nc1cnc2ccccc2c1Nc1ccccc1

>  <molecular_formula>  (331) 
C27H30N5O+

$$$$
ATP-HTVS-36CDFE25DCA8
     RDKit          3D

 55 57  0  0  0  0  0  0  0  0999 V2000
  199.1933  181.1129  150.0005 S   0  0  0  0  0  0  0  0  0  0  0  0
  198.0123  179.8203  149.9042 C   0  0  0  0  0  0  0  0  0  0  0  0
  198.4512  178.4721  149.5472 C   0  0  0  0  0  0  0  0  0  0  0  0
  197.9054  177.7337  148.4608 C   0  0  0  0  0  0  0  0  0  0  0  0
  196.8781  178.2664  147.5548 N   0  0  0  0  0  0  0  0  0  0  0  0
  195.8581  178.7293  148.0786 O   0  0  0  0  0  0  0  0  0  0  0  0
  197.0949  178.2014  146.3469 O   0  0  0  0  0  0  0  0  0  0  0  0
  198.3757  176.4320  148.1930 C   0  0  0  0  0  0  0  0  0  0  0  0
  199.3850  175.8502  148.9751 C   0  0  0  0  0  0  0  0  0  0  0  0
  199.9446  176.5745  150.0355 C   0  0  0  0  0  0  0  0  0  0  0  0
  199.4792  177.8770  150.3164 C   0  0  0  0  0  0  0  0  0  0  0  0
  196.7551  180.2650  150.2092 C   0  0  0  0  0  0  0  0  0  0  0  0
  196.7332  181.6674  150.5140 C   0  0  0  0  0  0  0  0  0  0  0  0
  197.9768  182.2523  150.4995 C   0  0  0  0  0  0  0  0  0  0  0  0
  198.3148  183.6621  150.8665 C   0  0  1  0  0  0  0  0  0  0  0  0
  198.1848  183.8587  152.3287 N   0  0  1  0  0  0  0  0  0  0  0  0
  198.8351  182.8453  153.2019 C   0  0  2  0  0  0  0  0  0  0  0  0
  198.0608  182.7004  154.5041 C   0  0  0  0  0  0  0  0  0  0  0  0
  197.3053  181.5315  154.7341 C   0  0  0  0  0  0  0  0  0  0  0  0
  196.6175  181.3634  155.9480 C   0  0  0  0  0  0  0  0  0  0  0  0
  196.6637  182.3617  156.9393 C   0  0  0  0  0  0  0  0  0  0  0  0
  197.3991  183.5425  156.6988 C   0  0  0  0  0  0  0  0  0  0  0  0
  198.0947  183.7112  155.4869 C   0  0  0  0  0  0  0  0  0  0  0  0
  195.9420  182.1541  158.2588 C   0  0  1  0  0  0  0  0  0  0  0  0
  194.4851  182.4405  158.1370 N   0  0  1  0  0  0  0  0  0  0  0  0
  193.6494  181.2598  158.4247 C   0  0  2  0  0  0  0  0  0  0  0  0
  194.0567  183.6339  158.8981 C   0  0  2  0  0  0  0  0  0  0  0  0
  200.3224  183.1703  153.4101 C   0  0  2  0  0  0  0  0  0  0  0  0
  198.5607  184.7680  152.5545 H   0  0  0  0  0  0  0  0  0  0  0  0
  197.9435  175.8793  147.3686 H   0  0  0  0  0  0  0  0  0  0  0  0
  199.7267  174.8530  148.7613 H   0  0  0  0  0  0  0  0  0  0  0  0
  200.7304  176.1323  150.6391 H   0  0  0  0  0  0  0  0  0  0  0  0
  199.9307  178.4099  151.1376 H   0  0  0  0  0  0  0  0  0  0  0  0
  195.8696  179.6587  150.2574 H   0  0  0  0  0  0  0  0  0  0  0  0
  195.8142  182.1764  150.7615 H   0  0  0  0  0  0  0  0  0  0  0  0
  199.3287  183.8937  150.5459 H   0  0  0  0  0  0  0  0  0  0  0  0
  197.6538  184.3576  150.3455 H   0  0  0  0  0  0  0  0  0  0  0  0
  198.7933  181.8528  152.7442 H   0  0  0  0  0  0  0  0  0  0  0  0
  197.2673  180.7372  153.9999 H   0  0  0  0  0  0  0  0  0  0  0  0
  196.0707  180.4492  156.1269 H   0  0  0  0  0  0  0  0  0  0  0  0
  197.4554  184.3134  157.4553 H   0  0  0  0  0  0  0  0  0  0  0  0
  198.6709  184.6092  155.3289 H   0  0  0  0  0  0  0  0  0  0  0  0
  196.1229  181.1325  158.6033 H   0  0  0  0  0  0  0  0  0  0  0  0
  196.4015  182.7834  159.0240 H   0  0  0  0  0  0  0  0  0  0  0  0
  193.7871  180.9502  159.4598 H   0  0  0  0  0  0  0  0  0  0  0  0
  193.9240  180.4362  157.7685 H   0  0  0  0  0  0  0  0  0  0  0  0
  192.5924  181.4639  158.2442 H   0  0  0  0  0  0  0  0  0  0  0  0
  194.2460  183.5056  159.9651 H   0  0  0  0  0  0  0  0  0  0  0  0
  192.9900  183.8253  158.7657 H   0  0  0  0  0  0  0  0  0  0  0  0
  194.5927  184.5248  158.5677 H   0  0  0  0  0  0  0  0  0  0  0  0
  200.7973  182.3910  154.0034 H   0  0  0  0  0  0  0  0  0  0  0  0
  200.4757  184.1240  153.9159 H   0  0  0  0  0  0  0  0  0  0  0  0
  200.8495  183.2135  152.4550 H   0  0  0  0  0  0  0  0  0  0  0  0
  194.2983  182.6370  157.1519 H   0  0  0  0  0  0  0  0  0  0  0  0
  197.1993  183.8685  152.5610 H   0  0  0  0  0  0  0  0  0  0  0  0
  1  2  1  0
  1 14  1  0
  2  3  1  0
  2 12  2  0
  3  4  1  0
  3 11  2  0
  4  5  1  0
  4  8  2  0
  5  6  1  0
  5  7  2  0
  8  9  1  0
  8 30  1  0
  9 10  2  0
  9 31  1  0
 10 11  1  0
 10 32  1  0
 11 33  1  0
 12 13  1  0
 12 34  1  0
 13 14  2  0
 13 35  1  0
 14 15  1  0
 15 16  1  0
 15 36  1  6
 15 37  1  0
 16 17  1  0
 16 29  1  1
 16 55  1  0
 17 18  1  0
 17 28  1  0
 17 38  1  6
 18 19  1  0
 18 23  2  0
 19 20  2  0
 19 39  1  0
 20 21  1  0
 20 40  1  0
 21 22  2  0
 21 24  1  0
 22 23  1  0
 22 41  1  0
 23 42  1  0
 24 25  1  0
 24 43  1  1
 24 44  1  0
 25 26  1  0
 25 27  1  0
 25 54  1  6
 26 45  1  1
 26 46  1  0
 26 47  1  0
 27 48  1  1
 27 49  1  0
 27 50  1  0
 28 51  1  1
 28 52  1  0
 28 53  1  0
M  CHG  4   5   1   6  -1  16   1  25   1
M  END
>  <s_epik_cmdline>  (332) 
J2VwaWtfcHl0aG9uJywgJy1waCcsICc3LjAwMDAwMCcsICctcGh0JywgJzIuMDAwMDAwJywgJy1tcycsICcxNicsICctdG4nLCAnOCcsICctbWEnLCAnMjAwJywgJy1pbWFlJywgJzxpbmZpbGUubWFlPicsICctb21hZScsICc8b3V0ZmlsZS5tYWU+Jw==

>  <s_epik_input>  (332) 
W2NIXTFbY0hdW2NIXVtjSF1jKFtOK10oW08tXSk9TyljMS1jMnNjKFtjSF1bY0hdMilbQ0gyXVtOSF1bQ0BASF0oW0NIM10pYzNbY0hdW2NIXWMoW2NIXVtjSF0zKVtDSDJdTihbQ0gzXSlbQ0gzXQ==

>  <s_i_glide_gridfile>  (332) 
ATP-Grid

>  <s_lp_Force_Field>  (332) 
OPLS_2005

>  <s_lp_Variant>  (332) 
m_270004beb____23853920____7548542-2

>  <s_lp_label>  (332) 
1528_sdstereoexpander_2_neutralizer_1_epik_1_stereoizer_1

>  <s_m_source_file>  (332) 
ATP-VSW-LIGPREP-002-in.maegz

>  <s_sd_BIOSOLVEIT.INFINISEE\_QUERY\_NAME>  (332) 
Ref-Lig

>  <s_sd_BIOSOLVEIT.INFINISEE\_QUERY\_SMILES>  (332) 
S(c1nc2c(cc1C[NH2+]Cc3ccc(cc3)C[NH+](C)C)cccc2)Cc4ccccc4

>  <s_sd_BIOSOLVEIT.INFINISEE\_REACTION\_NAME>  (332) 
m_270004beb

>  <s_sd_BIOSOLVEIT.INFINISEE\_REAGENT1\_SMILES>  (332) 
[R1*]NC(c1ccc(cc1)CN(C)C)C

>  <s_sd_BIOSOLVEIT.INFINISEE\_REAGENT2\_SMILES>  (332) 
[R1*]CC=1SC(c2c([N+]([O-])=O)cccc2)=CC1

>  <s_sd_BIOSOLVEIT.INFINISEE\_SPACE>  (332) 
REALSpace_44bn_2023-08

>  <s_vsw_compound_code>  (332) 
48866

>  <s_vsw_variant>  (332) 
48866-2

>  <r_epik_Charging_Adjusted_Penalty>  (332) 
0.27771382847655102

>  <r_epik_Ionization_Penalty>  (332) 
0.13919999999999999

>  <r_epik_Ionization_Penalty_Charging>  (332) 
0.13919999999999999

>  <r_epik_Ionization_Penalty_Neutral>  (332) 
0

>  <r_epik_State_Penalty>  (332) 
0.13850000000000001

>  <r_i_docking_score>  (332) 
-4.56079973996032

>  <r_i_glide_ecoul>  (332) 
-12.3124799728394

>  <r_i_glide_eff_state_penalty>  (332) 
0.13850000000000001

>  <r_i_glide_einternal>  (332) 
6.2641291618347203

>  <r_i_glide_emodel>  (332) 
-58.962530577821298

>  <r_i_glide_energy>  (332) 
-41.9828844070435

>  <r_i_glide_erotb>  (332) 
0.74322268203703001

>  <r_i_glide_esite>  (332) 
-0.10000000000000001

>  <r_i_glide_evdw>  (332) 
-29.670404434204102

>  <r_i_glide_gscore>  (332) 
-4.6992997399603196

>  <r_i_glide_hbond>  (332) 
-0.20000000000000001

>  <r_i_glide_ligand_efficiency>  (332) 
-0.16288570499858299

>  <r_i_glide_ligand_efficiency_ln>  (332) 
-1.052766490882

>  <r_i_glide_ligand_efficiency_sa>  (332) 
-0.49461693492550102

>  <r_i_glide_lipo>  (332) 
-0.95177675894608504

>  <r_i_glide_metal>  (332) 
-0

>  <r_i_glide_rewards>  (332) 
-0.86035344541515202

>  <r_lp_Energy>  (332) 
22.295112

>  <r_qp_ACxDN^.5/SA>  (332) 
0.0060581000000000003

>  <r_qp_CIQPlogS>  (332) 
-4.3810000000000002

>  <r_qp_EA(eV)>  (332) 
1.1679999999999999

>  <r_qp_FISA>  (332) 
89.036000000000001

>  <r_qp_FOSA>  (332) 
294.23399999999998

>  <r_qp_IP(eV)>  (332) 
9.0850000000000009

>  <r_qp_Jm>  (332) 
3.2869656933842299e-05

>  <r_qp_PISA>  (332) 
337.85599999999999

>  <r_qp_PSA>  (332) 
60.670000000000002

>  <r_qp_PercentHumanOralAbsorption>  (332) 
88.119

>  <r_qp_QPPCaco>  (332) 
88.180000000000007

>  <r_qp_QPPMDCK>  (332) 
57.667000000000002

>  <r_qp_QPlogBB>  (332) 
0.025999999999999999

>  <r_qp_QPlogHERG>  (332) 
-8.0909999999999993

>  <r_qp_QPlogKhsa>  (332) 
1.0309999999999999

>  <r_qp_QPlogKp>  (332) 
-5.423

>  <r_qp_QPlogPC16>  (332) 
13.984999999999999

>  <r_qp_QPlogPo/w>  (332) 
4.5010000000000003

>  <r_qp_QPlogPoct>  (332) 
19.135000000000002

>  <r_qp_QPlogPw>  (332) 
8.7710000000000008

>  <r_qp_QPlogS>  (332) 
-4.657

>  <r_qp_QPpolrz>  (332) 
45.459000000000003

>  <r_qp_SASA>  (332) 
742.803

>  <r_qp_SAamideO>  (332) 
0

>  <r_qp_SAfluorine>  (332) 
0

>  <r_qp_WPSA>  (332) 
21.675999999999998

>  <r_qp_accptHB>  (332) 
4.5

>  <r_qp_dip^2/V>  (332) 
0.023444400000000001

>  <r_qp_dipole>  (332) 
5.5659999999999998

>  <r_qp_donorHB>  (332) 
1

>  <r_qp_glob>  (332) 
0.78398540000000005

>  <r_qp_mol_MW>  (332) 
395.51799999999997

>  <r_qp_volume>  (332) 
1321.3710000000001

>  <r_sd_BIOSOLVEIT.INFINISEE\_FTREES\_SIMILARITY>  (332) 
0.90700000000000003

>  <r_sd_BIOSOLVEIT.LOGP>  (332) 
2.7924000000000002

>  <r_sd_BIOSOLVEIT.MOLECULAR\_WEIGHT>  (332) 
397.53899999999999

>  <r_sd_BIOSOLVEIT.TPSA>  (332) 
66.870000000000005

>  <i_epik_Tot_Q>  (332) 
2

>  <i_epik_Tot_abs_Q>  (332) 
4

>  <i_f3d_flags>  (332) 
0

>  <i_i_glide_confnum>  (332) 
4

>  <i_i_glide_lignum>  (332) 
528

>  <i_i_glide_posenum>  (332) 
13

>  <i_i_glide_rotatable_bonds>  (332) 
8

>  <i_lp_mmshare_version>  (332) 
65135

>  <i_m_ct_format>  (332) 
2

>  <i_m_source_file_index>  (332) 
1528

>  <i_qp_#NandO>  (332) 
5

>  <i_qp_#acid>  (332) 
0

>  <i_qp_#amide>  (332) 
0

>  <i_qp_#amidine>  (332) 
0

>  <i_qp_#amine>  (332) 
2

>  <i_qp_#in34>  (332) 
0

>  <i_qp_#in56>  (332) 
17

>  <i_qp_#metab>  (332) 
7

>  <i_qp_#nonHatm>  (332) 
28

>  <i_qp_#noncon>  (332) 
0

>  <i_qp_#ringatoms>  (332) 
17

>  <i_qp_#rotor>  (332) 
7

>  <i_qp_#rtvFG>  (332) 
0

>  <i_qp_#stars>  (332) 
0

>  <i_qp_CNS>  (332) 
1

>  <i_qp_HumanOralAbsorption>  (332) 
3

>  <i_qp_RuleOfFive>  (332) 
0

>  <i_qp_RuleOfThree>  (332) 
1

>  <i_sd_BIOSOLVEIT.INFINISEE\_REAGENT1\_NAME>  (332) 
23853920

>  <i_sd_BIOSOLVEIT.INFINISEE\_REAGENT2\_NAME>  (332) 
7548542

>  <i_sd_BIOSOLVEIT.INFINISEE\_RESULT\_RANK>  (332) 
61088

>  <i_sd_version>  (332) 
0

>  <b_lp_Chiralities_Consistent>  (332) 
1

>  <b_sd_chiral_flag>  (332) 
0

>  <canonical_id>  (332) 
ATP-HTVS-36CDFE25DCA8

>  <compound_code>  (332) 
48866

>  <title>  (332) 
m_270004beb____23853920____7548542

>  <variant>  (332) 
48866-2

>  <source_file>  (332) 
运行/运行/ATP-VSW/ATP-VSW-DOCK_HTVS_1-002_lib.maegz

>  <canonical_smiles>  (332) 
C[C@H]([NH2+]Cc1ccc(-c2ccccc2[N+](=O)[O-])s1)c1ccc(C[NH+](C)C)cc1

>  <scaffold>  (332) 
c1ccc(C[NH2+]Cc2ccc(-c3ccccc3)s2)cc1

>  <molecular_formula>  (332) 
C22H27N3O2S+2

$$$$
ATP-HTVS-37164D6EE04D
     RDKit          3D

 68 71  0  0  0  0  0  0  0  0999 V2000
  197.0540  180.8733  152.2685 S   0  0  0  0  0  0  0  0  0  0  0  0
  197.3767  179.6430  151.0475 C   0  0  0  0  0  0  0  0  0  0  0  0
  198.2979  178.6695  151.5764 C   0  0  0  0  0  0  0  0  0  0  0  0
  198.7149  178.8909  152.8966 N   0  0  0  0  0  0  0  0  0  0  0  0
  198.1622  180.0095  153.3700 C   0  0  0  0  0  0  0  0  0  0  0  0
  198.4913  180.4281  154.7039 N   0  0  0  0  0  0  0  0  0  0  0  0
  197.5094  180.9128  155.5285 C   0  0  0  0  0  0  0  0  0  0  0  0
  196.3188  180.9111  155.2525 O   0  0  0  0  0  0  0  0  0  0  0  0
  197.8652  181.4937  156.9077 C   0  0  1  0  0  0  0  0  0  0  0  0
  196.7303  181.4494  157.8627 N   0  0  1  0  0  0  0  0  0  0  0  0
  195.5963  182.3727  157.6151 C   0  0  2  0  0  0  0  0  0  0  0  0
  195.8712  183.7519  158.1845 C   0  0  0  0  0  0  0  0  0  0  0  0
  196.5886  184.6295  157.3635 C   0  0  0  0  0  0  0  0  0  0  0  0
  196.8808  185.9559  157.7561 C   0  0  0  0  0  0  0  0  0  0  0  0
  196.4278  186.4117  159.0019 C   0  0  0  0  0  0  0  0  0  0  0  0
  195.6566  185.5435  159.8042 C   0  0  0  0  0  0  0  0  0  0  0  0
  195.3669  184.2113  159.4196 C   0  0  0  0  0  0  0  0  0  0  0  0
  196.7945  187.8051  159.4449 C   0  0  1  0  0  0  0  0  0  0  0  0
  198.2564  188.0277  159.6808 N   0  0  1  0  0  0  0  0  0  0  0  0
  199.1722  187.5491  158.6115 C   0  0  2  0  0  0  0  0  0  0  0  0
  198.5227  189.4498  160.0269 C   0  0  2  0  0  0  0  0  0  0  0  0
  194.2901  181.7404  158.1670 C   0  0  2  0  0  0  0  0  0  0  0  0
  199.9287  180.3125  155.1289 C   0  0  1  0  0  0  0  0  0  0  0  0
  200.3729  178.9312  155.6528 C   0  0  0  0  0  0  0  0  0  0  0  0
  200.3787  178.6256  157.0375 C   0  0  0  0  0  0  0  0  0  0  0  0
  200.7721  177.3482  157.5017 C   0  0  0  0  0  0  0  0  0  0  0  0
  201.1482  176.3459  156.5827 C   0  0  0  0  0  0  0  0  0  0  0  0
  201.1485  176.6425  155.2014 C   0  0  0  0  0  0  0  0  0  0  0  0
  200.8076  177.9298  154.7511 C   0  0  0  0  0  0  0  0  0  0  0  0
  198.7233  177.6222  150.7223 C   0  0  0  0  0  0  0  0  0  0  0  0
  198.2515  177.5467  149.3914 C   0  0  0  0  0  0  0  0  0  0  0  0
  197.3353  178.5048  148.9042 C   0  0  0  0  0  0  0  0  0  0  0  0
  196.8893  179.5518  149.7313 C   0  0  0  0  0  0  0  0  0  0  0  0
  199.7180  176.5880  151.2354 C   0  0  2  0  0  0  0  0  0  0  0  0
  196.3420  180.4894  157.8069 H   0  0  0  0  0  0  0  0  0  0  0  0
  198.6538  180.8873  157.3280 H   0  0  0  0  0  0  0  0  0  0  0  0
  198.2697  182.5037  156.8050 H   0  0  0  0  0  0  0  0  0  0  0  0
  195.5339  182.5181  156.5277 H   0  0  0  0  0  0  0  0  0  0  0  0
  196.9800  184.2939  156.4196 H   0  0  0  0  0  0  0  0  0  0  0  0
  197.4803  186.6233  157.1011 H   0  0  0  0  0  0  0  0  0  0  0  0
  195.2397  185.8744  160.7595 H   0  0  0  0  0  0  0  0  0  0  0  0
  194.7334  183.6014  160.0400 H   0  0  0  0  0  0  0  0  0  0  0  0
  196.3816  188.5307  158.7435 H   0  0  0  0  0  0  0  0  0  0  0  0
  196.2794  187.9821  160.3839 H   0  0  0  0  0  0  0  0  0  0  0  0
  198.9113  188.0519  157.6750 H   0  0  0  0  0  0  0  0  0  0  0  0
  198.9980  186.5091  158.3767 H   0  0  0  0  0  0  0  0  0  0  0  0
  200.2171  187.8890  158.8154 H   0  0  0  0  0  0  0  0  0  0  0  0
  198.2312  190.1035  159.2152 H   0  0  0  0  0  0  0  0  0  0  0  0
  199.5852  189.5892  160.2012 H   0  0  0  0  0  0  0  0  0  0  0  0
  197.9645  189.7533  160.9290 H   0  0  0  0  0  0  0  0  0  0  0  0
  193.4506  182.4104  157.9194 H   0  0  0  0  0  0  0  0  0  0  0  0
  194.3004  181.5623  159.2336 H   0  0  0  0  0  0  0  0  0  0  0  0
  194.0761  180.7917  157.6741 H   0  0  0  0  0  0  0  0  0  0  0  0
  200.5491  180.5498  154.2520 H   0  0  0  0  0  0  0  0  0  0  0  0
  200.2104  181.0450  155.9031 H   0  0  0  0  0  0  0  0  0  0  0  0
  200.0781  179.3634  157.7745 H   0  0  0  0  0  0  0  0  0  0  0  0
  200.7874  177.1370  158.5630 H   0  0  0  0  0  0  0  0  0  0  0  0
  201.4663  175.3686  156.9206 H   0  0  0  0  0  0  0  0  0  0  0  0
  201.4231  175.8863  154.4681 H   0  0  0  0  0  0  0  0  0  0  0  0
  200.8721  178.1386  153.6951 H   0  0  0  0  0  0  0  0  0  0  0  0
  198.5902  176.7496  148.7541 H   0  0  0  0  0  0  0  0  0  0  0  0
  196.9782  178.4319  147.8895 H   0  0  0  0  0  0  0  0  0  0  0  0
  196.1986  180.3000  149.3819 H   0  0  0  0  0  0  0  0  0  0  0  0
  199.9370  175.8389  150.4806 H   0  0  0  0  0  0  0  0  0  0  0  0
  199.3274  176.0701  152.1130 H   0  0  0  0  0  0  0  0  0  0  0  0
  200.6646  177.0534  151.5164 H   0  0  0  0  0  0  0  0  0  0  0  0
  198.5024  187.5070  160.5144 H   0  0  0  0  0  0  0  0  0  0  0  0
  197.0658  181.5635  158.8126 H   0  0  0  0  0  0  0  0  0  0  0  0
  1  2  1  0
  1  5  1  0
  2  3  1  0
  2 33  2  0
  3  4  1  0
  3 30  2  0
  4  5  2  0
  5  6  1  0
  6  7  1  0
  6 23  1  0
  7  8  2  0
  7  9  1  0
  9 10  1  0
  9 36  1  1
  9 37  1  0
 10 11  1  0
 10 35  1  1
 10 68  1  0
 11 12  1  0
 11 22  1  0
 11 38  1  6
 12 13  1  0
 12 17  2  0
 13 14  2  0
 13 39  1  0
 14 15  1  0
 14 40  1  0
 15 16  2  0
 15 18  1  0
 16 17  1  0
 16 41  1  0
 17 42  1  0
 18 19  1  0
 18 43  1  6
 18 44  1  0
 19 20  1  0
 19 21  1  0
 19 67  1  1
 20 45  1  6
 20 46  1  0
 20 47  1  0
 21 48  1  6
 21 49  1  0
 21 50  1  0
 22 51  1  1
 22 52  1  0
 22 53  1  0
 23 24  1  0
 23 54  1  6
 23 55  1  0
 24 25  2  0
 24 29  1  0
 25 26  1  0
 25 56  1  0
 26 27  2  0
 26 57  1  0
 27 28  1  0
 27 58  1  0
 28 29  2  0
 28 59  1  0
 29 60  1  0
 30 31  1  0
 30 34  1  0
 31 32  2  0
 31 61  1  0
 32 33  1  0
 32 62  1  0
 33 63  1  0
 34 64  1  6
 34 65  1  0
 34 66  1  0
M  CHG  2  10   1  19   1
M  END
>  <s_epik_cmdline>  (333) 
J2VwaWtfcHl0aG9uJywgJy1waCcsICc3LjAwMDAwMCcsICctcGh0JywgJzIuMDAwMDAwJywgJy1tcycsICcxNicsICctdG4nLCAnOCcsICctbWEnLCAnMjAwJywgJy1pbWFlJywgJzxpbmZpbGUubWFlPicsICctb21hZScsICc8b3V0ZmlsZS5tYWU+Jw==

>  <s_epik_input>  (333) 
W2NIXTFbY0hdW2NIXVtjSF1bY0hdYzFbQ0gyXU4oYyhzMiluYyhjMjMpYyhbQ0gzXSlbY0hdW2NIXVtjSF0zKUMoPU8pW0NIMl1bTkhdW0NAQEhdKFtDSDNdKWM0W2NIXVtjSF1jKFtjSF1bY0hdNClbQ0gyXU4oW0NIM10pW0NIM10=

>  <s_i_glide_gridfile>  (333) 
ATP-Grid

>  <s_lp_Force_Field>  (333) 
OPLS_2005

>  <s_lp_Variant>  (333) 
m_2230bbb____22404674____7466350-2

>  <s_lp_label>  (333) 
1830_sdstereoexpander_2_neutralizer_1_epik_1_stereoizer_1

>  <s_m_source_file>  (333) 
ATP-VSW-LIGPREP-003-in.maegz

>  <s_sd_BIOSOLVEIT.INFINISEE\_QUERY\_NAME>  (333) 
Ref-Lig

>  <s_sd_BIOSOLVEIT.INFINISEE\_QUERY\_SMILES>  (333) 
S(c1nc2c(cc1C[NH2+]Cc3ccc(cc3)C[NH+](C)C)cccc2)Cc4ccccc4

>  <s_sd_BIOSOLVEIT.INFINISEE\_REACTION\_NAME>  (333) 
m_2230bbb

>  <s_sd_BIOSOLVEIT.INFINISEE\_REAGENT1\_SMILES>  (333) 
[R1*]NC(c1ccc(cc1)CN(C)C)C

>  <s_sd_BIOSOLVEIT.INFINISEE\_REAGENT2\_SMILES>  (333) 
[R1*]CC(=O)N(C=1Sc2c(N1)c(ccc2)C)Cc3ccccc3

>  <s_sd_BIOSOLVEIT.INFINISEE\_SPACE>  (333) 
REALSpace_44bn_2023-08

>  <s_vsw_compound_code>  (333) 
58531

>  <s_vsw_variant>  (333) 
58531-2

>  <r_epik_Charging_Adjusted_Penalty>  (333) 
0.51743013230077595

>  <r_epik_Ionization_Penalty>  (333) 
0.25890000000000002

>  <r_epik_Ionization_Penalty_Charging>  (333) 
0.25890000000000002

>  <r_epik_Ionization_Penalty_Neutral>  (333) 
0

>  <r_epik_State_Penalty>  (333) 
0.25850000000000001

>  <r_i_docking_score>  (333) 
-5.6229651697915601

>  <r_i_glide_ecoul>  (333) 
-12.6026821136475

>  <r_i_glide_eff_state_penalty>  (333) 
0.25850000000000001

>  <r_i_glide_einternal>  (333) 
9.2960977554321307

>  <r_i_glide_emodel>  (333) 
-73.587764618280502

>  <r_i_glide_energy>  (333) 
-49.394315719604499

>  <r_i_glide_erotb>  (333) 
0.80837346625270901

>  <r_i_glide_esite>  (333) 
-0.200844532820209

>  <r_i_glide_evdw>  (333) 
-36.791633605957003

>  <r_i_glide_gscore>  (333) 
-5.8814651697915599

>  <r_i_glide_hbond>  (333) 
-0.20000000000000001

>  <r_i_glide_ligand_efficiency>  (333) 
-0.165381328523281

>  <r_i_glide_ligand_efficiency_ln>  (333) 
-1.2422707248376801

>  <r_i_glide_ligand_efficiency_sa>  (333) 
-0.53577130296519604

>  <r_i_glide_lipo>  (333) 
-2.1612493786063598

>  <r_i_glide_metal>  (333) 
-0

>  <r_i_glide_rewards>  (333) 
-0.39776072727272599

>  <r_lp_Energy>  (333) 
27.607313000000001

>  <r_qp_ACxDN^.5/SA>  (333) 
0.010655599999999999

>  <r_qp_CIQPlogS>  (333) 
-4.7720000000000002

>  <r_qp_EA(eV)>  (333) 
1.3009999999999999

>  <r_qp_FISA>  (333) 
37.375999999999998

>  <r_qp_FOSA>  (333) 
344.31200000000001

>  <r_qp_IP(eV)>  (333) 
9.1660000000000004

>  <r_qp_Jm>  (333) 
0.020809072009164899

>  <r_qp_PISA>  (333) 
347.26499999999999

>  <r_qp_PSA>  (333) 
53.093000000000004

>  <r_qp_PercentHumanOralAbsorption>  (333) 
96.343000000000004

>  <r_qp_QPPCaco>  (333) 
272.43700000000001

>  <r_qp_QPPMDCK>  (333) 
195.554

>  <r_qp_QPlogBB>  (333) 
0.51600000000000001

>  <r_qp_QPlogHERG>  (333) 
-7.282

>  <r_qp_QPlogKhsa>  (333) 
0.67100000000000004

>  <r_qp_QPlogKp>  (333) 
-4.2460000000000004

>  <r_qp_QPlogPC16>  (333) 
14.949999999999999

>  <r_qp_QPlogPo/w>  (333) 
4.4080000000000004

>  <r_qp_QPlogPoct>  (333) 
22.978000000000002

>  <r_qp_QPlogPw>  (333) 
11.509

>  <r_qp_QPlogS>  (333) 
-3.1099999999999999

>  <r_qp_QPpolrz>  (333) 
50.634999999999998

>  <r_qp_SASA>  (333) 
750.77999999999997

>  <r_qp_SAamideO>  (333) 
0

>  <r_qp_SAfluorine>  (333) 
0

>  <r_qp_WPSA>  (333) 
21.827000000000002

>  <r_qp_accptHB>  (333) 
8

>  <r_qp_dip^2/V>  (333) 
0.034044199999999997

>  <r_qp_dipole>  (333) 
7.0999999999999996

>  <r_qp_donorHB>  (333) 
1

>  <r_qp_glob>  (333) 
0.83675750000000004

>  <r_qp_mol_MW>  (333) 
472.64699999999999

>  <r_qp_volume>  (333) 
1480.5419999999999

>  <r_sd_BIOSOLVEIT.INFINISEE\_FTREES\_SIMILARITY>  (333) 
0.90300000000000002

>  <r_sd_BIOSOLVEIT.LOGP>  (333) 
3.1070199999999999

>  <r_sd_BIOSOLVEIT.MOLECULAR\_WEIGHT>  (333) 
474.66899999999998

>  <r_sd_BIOSOLVEIT.TPSA>  (333) 
54.25

>  <i_epik_Tot_Q>  (333) 
2

>  <i_epik_Tot_abs_Q>  (333) 
2

>  <i_f3d_flags>  (333) 
0

>  <i_i_glide_confnum>  (333) 
6

>  <i_i_glide_lignum>  (333) 
678

>  <i_i_glide_posenum>  (333) 
18

>  <i_i_glide_rotatable_bonds>  (333) 
10

>  <i_lp_mmshare_version>  (333) 
65135

>  <i_m_ct_format>  (333) 
2

>  <i_m_source_file_index>  (333) 
1830

>  <i_qp_#NandO>  (333) 
5

>  <i_qp_#acid>  (333) 
0

>  <i_qp_#amide>  (333) 
0

>  <i_qp_#amidine>  (333) 
0

>  <i_qp_#amine>  (333) 
2

>  <i_qp_#in34>  (333) 
0

>  <i_qp_#in56>  (333) 
21

>  <i_qp_#metab>  (333) 
8

>  <i_qp_#nonHatm>  (333) 
34

>  <i_qp_#noncon>  (333) 
0

>  <i_qp_#ringatoms>  (333) 
21

>  <i_qp_#rotor>  (333) 
9

>  <i_qp_#rtvFG>  (333) 
0

>  <i_qp_#stars>  (333) 
0

>  <i_qp_CNS>  (333) 
2

>  <i_qp_HumanOralAbsorption>  (333) 
3

>  <i_qp_RuleOfFive>  (333) 
0

>  <i_qp_RuleOfThree>  (333) 
1

>  <i_sd_BIOSOLVEIT.INFINISEE\_REAGENT1\_NAME>  (333) 
22404674

>  <i_sd_BIOSOLVEIT.INFINISEE\_REAGENT2\_NAME>  (333) 
7466350

>  <i_sd_BIOSOLVEIT.INFINISEE\_RESULT\_RANK>  (333) 
79825

>  <i_sd_version>  (333) 
0

>  <b_lp_Chiralities_Consistent>  (333) 
1

>  <b_sd_chiral_flag>  (333) 
0

>  <canonical_id>  (333) 
ATP-HTVS-37164D6EE04D

>  <compound_code>  (333) 
58531

>  <title>  (333) 
m_2230bbb____22404674____7466350

>  <variant>  (333) 
58531-2

>  <source_file>  (333) 
运行/运行/ATP-VSW/ATP-VSW-DOCK_HTVS_1-003_lib/ATP-VSW-DOCK_HTVS_1-003_lib.mae

>  <canonical_smiles>  (333) 
Cc1cccc2sc(N(Cc3ccccc3)C(=O)C[NH2+][C@@H](C)c3ccc(C[NH+](C)C)cc3)nc12

>  <scaffold>  (333) 
O=C(C[NH2+]Cc1ccccc1)N(Cc1ccccc1)c1nc2ccccc2s1

>  <molecular_formula>  (333) 
C28H34N4OS+2

$$$$
ATP-HTVS-375881F1CECF
     RDKit          3D

 63 66  0  0  0  0  0  0  0  0999 V2000
  195.5450  178.6352  147.7342 O   0  0  0  0  0  0  0  0  0  0  0  0
  196.7146  178.2554  147.6626 C   0  0  0  0  0  0  0  0  0  0  0  0
  197.5905  178.2578  148.6812 N   0  0  0  0  0  0  0  0  0  0  0  0
  197.4789  178.8810  149.9486 C   0  0  0  0  0  0  0  0  0  0  0  0
  196.5591  179.8414  150.2079 N   0  0  0  0  0  0  0  0  0  0  0  0
  196.5179  180.4085  151.4321 C   0  0  0  0  0  0  0  0  0  0  0  0
  197.3795  180.0419  152.4868 C   0  0  0  0  0  0  0  0  0  0  0  0
  197.3150  180.6201  153.7613 N   0  0  0  0  0  0  0  0  0  0  0  0
  196.9244  182.0146  153.8997 C   0  0  1  0  0  0  0  0  0  0  0  0
  196.9824  182.5159  155.3286 C   0  0  0  0  0  0  0  0  0  0  0  0
  197.5429  183.7763  155.6104 C   0  0  0  0  0  0  0  0  0  0  0  0
  197.5738  184.2527  156.9329 C   0  0  0  0  0  0  0  0  0  0  0  0
  197.0140  183.4938  157.9834 C   0  0  0  0  0  0  0  0  0  0  0  0
  196.4513  182.2316  157.6936 C   0  0  0  0  0  0  0  0  0  0  0  0
  196.4326  181.7475  156.3723 C   0  0  0  0  0  0  0  0  0  0  0  0
  196.9940  184.0390  159.4077 C   0  0  1  0  0  0  0  0  0  0  0  0
  195.8542  184.9606  159.6739 N   0  0  2  0  0  0  0  0  0  0  0  0
  194.5238  184.3287  159.5092 C   0  0  2  0  0  0  0  0  0  0  0  0
  195.9488  186.2605  158.9681 C   0  0  2  0  0  0  0  0  0  0  0  0
  198.3291  179.0363  152.2295 C   0  0  0  0  0  0  0  0  0  0  0  0
  198.3955  178.4541  150.9443 C   0  0  0  0  0  0  0  0  0  0  0  0
  199.3671  177.4526  150.6997 N   0  0  0  0  0  0  0  0  0  0  0  0
  200.4110  177.5366  149.7911 C   0  0  0  0  0  0  0  0  0  0  0  0
  201.1241  176.3723  149.8519 C   0  0  0  0  0  0  0  0  0  0  0  0
  200.5219  175.5513  150.8452 C   0  0  0  0  0  0  0  0  0  0  0  0
  199.4523  176.2334  151.3525 C   0  0  0  0  0  0  0  0  0  0  0  0
  197.2281  177.6634  146.3516 C   0  0  1  0  0  0  0  0  0  0  0  0
  198.3219  178.5222  145.7394 C   0  0  0  0  0  0  0  0  0  0  0  0
  198.0179  179.4382  144.7063 C   0  0  0  0  0  0  0  0  0  0  0  0
  199.0344  180.2298  144.1404 C   0  0  0  0  0  0  0  0  0  0  0  0
  200.3622  180.1081  144.5995 C   0  0  0  0  0  0  0  0  0  0  0  0
  200.6731  179.1855  145.6187 C   0  0  0  0  0  0  0  0  0  0  0  0
  199.6570  178.3882  146.1771 C   0  0  0  0  0  0  0  0  0  0  0  0
  198.4626  177.7813  148.5159 H   0  0  0  0  0  0  0  0  0  0  0  0
  195.7642  181.1709  151.5571 H   0  0  0  0  0  0  0  0  0  0  0  0
  197.9144  180.2601  154.4898 H   0  0  0  0  0  0  0  0  0  0  0  0
  197.5902  182.6170  153.2810 H   0  0  0  0  0  0  0  0  0  0  0  0
  195.9149  182.1723  153.5280 H   0  0  0  0  0  0  0  0  0  0  0  0
  197.9256  184.3938  154.8096 H   0  0  0  0  0  0  0  0  0  0  0  0
  198.0001  185.2244  157.1292 H   0  0  0  0  0  0  0  0  0  0  0  0
  196.0026  181.6257  158.4688 H   0  0  0  0  0  0  0  0  0  0  0  0
  195.9656  180.7942  156.1600 H   0  0  0  0  0  0  0  0  0  0  0  0
  196.9520  183.2003  160.1062 H   0  0  0  0  0  0  0  0  0  0  0  0
  197.9353  184.5448  159.6176 H   0  0  0  0  0  0  0  0  0  0  0  0
  194.3350  184.0445  158.4733 H   0  0  0  0  0  0  0  0  0  0  0  0
  193.7283  185.0079  159.8112 H   0  0  0  0  0  0  0  0  0  0  0  0
  194.4442  183.4382  160.1289 H   0  0  0  0  0  0  0  0  0  0  0  0
  195.8843  186.1397  157.8848 H   0  0  0  0  0  0  0  0  0  0  0  0
  196.8928  186.7531  159.2094 H   0  0  0  0  0  0  0  0  0  0  0  0
  195.1413  186.9309  159.2716 H   0  0  0  0  0  0  0  0  0  0  0  0
  199.0123  178.7147  153.0044 H   0  0  0  0  0  0  0  0  0  0  0  0
  200.5544  178.4186  149.1822 H   0  0  0  0  0  0  0  0  0  0  0  0
  201.9941  176.1381  149.2562 H   0  0  0  0  0  0  0  0  0  0  0  0
  200.8398  174.5680  151.1604 H   0  0  0  0  0  0  0  0  0  0  0  0
  198.7460  175.9571  152.1229 H   0  0  0  0  0  0  0  0  0  0  0  0
  197.6193  176.6652  146.5444 H   0  0  0  0  0  0  0  0  0  0  0  0
  196.3921  177.5644  145.6555 H   0  0  0  0  0  0  0  0  0  0  0  0
  197.0077  179.5267  144.3381 H   0  0  0  0  0  0  0  0  0  0  0  0
  198.7992  180.9232  143.3446 H   0  0  0  0  0  0  0  0  0  0  0  0
  201.1452  180.7108  144.1602 H   0  0  0  0  0  0  0  0  0  0  0  0
  201.6917  179.0804  145.9647 H   0  0  0  0  0  0  0  0  0  0  0  0
  199.9099  177.6634  146.9370 H   0  0  0  0  0  0  0  0  0  0  0  0
  195.9322  185.1844  160.6544 H   0  0  0  0  0  0  0  0  0  0  0  0
  1  2  2  0
  2  3  1  0
  2 27  1  0
  3  4  1  0
  3 34  1  0
  4  5  1  0
  4 21  2  0
  5  6  2  0
  6  7  1  0
  6 35  1  0
  7  8  1  0
  7 20  2  0
  8  9  1  0
  8 36  1  0
  9 10  1  0
  9 37  1  6
  9 38  1  0
 10 11  1  0
 10 15  2  0
 11 12  2  0
 11 39  1  0
 12 13  1  0
 12 40  1  0
 13 14  2  0
 13 16  1  0
 14 15  1  0
 14 41  1  0
 15 42  1  0
 16 17  1  0
 16 43  1  1
 16 44  1  0
 17 18  1  0
 17 19  1  0
 17 63  1  1
 18 45  1  6
 18 46  1  0
 18 47  1  0
 19 48  1  6
 19 49  1  0
 19 50  1  0
 20 21  1  0
 20 51  1  0
 21 22  1  0
 22 23  1  0
 22 26  1  0
 23 24  2  0
 23 52  1  0
 24 25  1  0
 24 53  1  0
 25 26  2  0
 25 54  1  0
 26 55  1  0
 27 28  1  0
 27 56  1  1
 27 57  1  0
 28 29  2  0
 28 33  1  0
 29 30  1  0
 29 58  1  0
 30 31  2  0
 30 59  1  0
 31 32  1  0
 31 60  1  0
 32 33  2  0
 32 61  1  0
 33 62  1  0
M  CHG  1  17   1
M  END
>  <s_epik_cmdline>  (334) 
J2VwaWtfcHl0aG9uJywgJy1waCcsICc3LjAwMDAwMCcsICctcGh0JywgJzIuMDAwMDAwJywgJy1tcycsICcxNicsICctdG4nLCAnOCcsICctbWEnLCAnMjAwJywgJy1pbWFlJywgJzxpbmZpbGUubWFlPicsICctb21hZScsICc8b3V0ZmlsZS5tYWU+Jw==

>  <s_epik_input>  (334) 
W2NIXTFbY0hdW2NIXVtjSF1bY0hdYzFbQ0gyXUMoPU8pW05IXWMybltjSF1jKFtjSF1jMi1uM1tjSF1bY0hdW2NIXVtjSF0zKVtOSF1bQ0gyXWM0W2NIXVtjSF1jKFtjSF1bY0hdNClbQ0gyXU4oW0NIM10pW0NIM10=

>  <s_i_glide_gridfile>  (334) 
ATP-Grid

>  <s_lp_Force_Field>  (334) 
OPLS_2005

>  <s_lp_Variant>  (334) 
rxn502b____EMOL530620____EMOL4363915____EMOL50155899-1

>  <s_lp_label>  (334) 
2177_sdstereoexpander_1_neutralizer_1_epik_1_stereoizer_1

>  <s_m_source_file>  (334) 
ATP-VSW-LIGPREP-003-in.maegz

>  <s_sd_BIOSOLVEIT.INFINISEE\_QUERY\_NAME>  (334) 
Ref-Lig

>  <s_sd_BIOSOLVEIT.INFINISEE\_QUERY\_SMILES>  (334) 
S(c1nc2c(cc1C[NH2+]Cc3ccc(cc3)C[NH+](C)C)cccc2)Cc4ccccc4

>  <s_sd_BIOSOLVEIT.INFINISEE\_REACTION\_NAME>  (334) 
rxn502b

>  <s_sd_BIOSOLVEIT.INFINISEE\_REAGENT1\_NAME>  (334) 
EMOL530620

>  <s_sd_BIOSOLVEIT.INFINISEE\_REAGENT1\_SMILES>  (334) 
ClC(=O)Cc1ccccc1

>  <s_sd_BIOSOLVEIT.INFINISEE\_REAGENT2\_NAME>  (334) 
EMOL4363915

>  <s_sd_BIOSOLVEIT.INFINISEE\_REAGENT2\_SMILES>  (334) 
Brc1cnc(N)c(N2C=CC=C2)c1

>  <s_sd_BIOSOLVEIT.INFINISEE\_REAGENT3\_NAME>  (334) 
EMOL50155899

>  <s_sd_BIOSOLVEIT.INFINISEE\_REAGENT3\_SMILES>  (334) 
N(Cc1ccc(cc1)CN)(C)C

>  <s_sd_BIOSOLVEIT.INFINISEE\_SPACE>  (334) 
eXplore_7tr_2022-12

>  <s_vsw_compound_code>  (334) 
69635

>  <s_vsw_variant>  (334) 
69635-1

>  <r_epik_Charging_Adjusted_Penalty>  (334) 
0.078407994868761793

>  <r_epik_Ionization_Penalty>  (334) 
0.039300000000000002

>  <r_epik_Ionization_Penalty_Charging>  (334) 
0.039199999999999999

>  <r_epik_Ionization_Penalty_Neutral>  (334) 
0.0001

>  <r_epik_State_Penalty>  (334) 
0.039199999999999999

>  <r_i_docking_score>  (334) 
-3.4803615898834401

>  <r_i_glide_ecoul>  (334) 
-3.6247892379760702

>  <r_i_glide_eff_state_penalty>  (334) 
0.039199999999999999

>  <r_i_glide_einternal>  (334) 
2.6773297786712602

>  <r_i_glide_emodel>  (334) 
-51.337497120629799

>  <r_i_glide_energy>  (334) 
-41.604422569274902

>  <r_i_glide_erotb>  (334) 
0.823013770814219

>  <r_i_glide_esite>  (334) 
-0.0141539295153702

>  <r_i_glide_evdw>  (334) 
-37.9796333312988

>  <r_i_glide_gscore>  (334) 
-3.5195615898834398

>  <r_i_glide_hbond>  (334) 
0

>  <r_i_glide_ligand_efficiency>  (334) 
-0.105465502723741

>  <r_i_glide_ligand_efficiency_ln>  (334) 
-0.77401439724219401

>  <r_i_glide_ligand_efficiency_sa>  (334) 
-0.33828422022239601

>  <r_i_glide_lipo>  (334) 
-1.2411626044745401

>  <r_i_glide_metal>  (334) 
-0

>  <r_i_glide_rewards>  (334) 
-0.64455877444639498

>  <r_lp_Energy>  (334) 
24.487645000000001

>  <r_qp_ACxDN^.5/SA>  (334) 
0.011562599999999999

>  <r_qp_CIQPlogS>  (334) 
-5.8239999999999998

>  <r_qp_EA(eV)>  (334) 
0.55600000000000005

>  <r_qp_FISA>  (334) 
79.251000000000005

>  <r_qp_FOSA>  (334) 
267.28899999999999

>  <r_qp_IP(eV)>  (334) 
8.3390000000000004

>  <r_qp_Jm>  (334) 
0.0017308221301043001

>  <r_qp_PISA>  (334) 
448.47199999999998

>  <r_qp_PSA>  (334) 
64.721999999999994

>  <r_qp_PercentHumanOralAbsorption>  (334) 
100

>  <r_qp_QPPCaco>  (334) 
437.78199999999998

>  <r_qp_QPPMDCK>  (334) 
224.11600000000001

>  <r_qp_QPlogBB>  (334) 
-0.38400000000000001

>  <r_qp_QPlogHERG>  (334) 
-7.9269999999999996

>  <r_qp_QPlogKhsa>  (334) 
0.90100000000000002

>  <r_qp_QPlogKp>  (334) 
-2.6949999999999998

>  <r_qp_QPlogPC16>  (334) 
16.053000000000001

>  <r_qp_QPlogPo/w>  (334) 
4.9980000000000002

>  <r_qp_QPlogPoct>  (334) 
23.687999999999999

>  <r_qp_QPlogPw>  (334) 
12.789

>  <r_qp_QPlogS>  (334) 
-5.71

>  <r_qp_QPpolrz>  (334) 
51.305

>  <r_qp_SASA>  (334) 
795.01199999999994

>  <r_qp_SAamideO>  (334) 
0

>  <r_qp_SAfluorine>  (334) 
0

>  <r_qp_WPSA>  (334) 
0

>  <r_qp_accptHB>  (334) 
6.5

>  <r_qp_dip^2/V>  (334) 
0.019761899999999999

>  <r_qp_dipole>  (334) 
5.3659999999999997

>  <r_qp_donorHB>  (334) 
2

>  <r_qp_glob>  (334) 
0.7818349

>  <r_qp_mol_MW>  (334) 
439.55900000000003

>  <r_qp_volume>  (334) 
1457.087

>  <r_sd_BIOSOLVEIT.INFINISEE\_FTREES\_SIMILARITY>  (334) 
0.93799999999999994

>  <r_sd_BIOSOLVEIT.LOGP>  (334) 
3.3100999999999998

>  <r_sd_BIOSOLVEIT.MOLECULAR\_WEIGHT>  (334) 
440.56799999999998

>  <r_sd_BIOSOLVEIT.TPSA>  (334) 
63.390000000000001

>  <i_epik_Tot_Q>  (334) 
1

>  <i_epik_Tot_abs_Q>  (334) 
1

>  <i_f3d_flags>  (334) 
0

>  <i_i_glide_confnum>  (334) 
3

>  <i_i_glide_lignum>  (334) 
827

>  <i_i_glide_posenum>  (334) 
13

>  <i_i_glide_rotatable_bonds>  (334) 
10

>  <i_lp_mmshare_version>  (334) 
65135

>  <i_m_ct_format>  (334) 
2

>  <i_m_source_file_index>  (334) 
2177

>  <i_qp_#NandO>  (334) 
6

>  <i_qp_#acid>  (334) 
0

>  <i_qp_#amide>  (334) 
0

>  <i_qp_#amidine>  (334) 
0

>  <i_qp_#amine>  (334) 
1

>  <i_qp_#in34>  (334) 
0

>  <i_qp_#in56>  (334) 
23

>  <i_qp_#metab>  (334) 
7

>  <i_qp_#nonHatm>  (334) 
33

>  <i_qp_#noncon>  (334) 
0

>  <i_qp_#ringatoms>  (334) 
23

>  <i_qp_#rotor>  (334) 
8

>  <i_qp_#rtvFG>  (334) 
0

>  <i_qp_#stars>  (334) 
0

>  <i_qp_CNS>  (334) 
1

>  <i_qp_HumanOralAbsorption>  (334) 
3

>  <i_qp_RuleOfFive>  (334) 
0

>  <i_qp_RuleOfThree>  (334) 
2

>  <i_sd_BIOSOLVEIT.INFINISEE\_RESULT\_RANK>  (334) 
1824

>  <i_sd_version>  (334) 
0

>  <b_lp_Chiralities_Consistent>  (334) 
1

>  <b_sd_chiral_flag>  (334) 
0

>  <canonical_id>  (334) 
ATP-HTVS-375881F1CECF

>  <compound_code>  (334) 
69635

>  <title>  (334) 
rxn502b____EMOL530620____EMOL4363915____EMOL50155899

>  <variant>  (334) 
69635-1

>  <source_file>  (334) 
运行/运行/ATP-VSW/ATP-VSW-DOCK_HTVS_1-003_lib/ATP-VSW-DOCK_HTVS_1-003_lib.mae

>  <canonical_smiles>  (334) 
C[NH+](C)Cc1ccc(CNc2cnc(NC(=O)Cc3ccccc3)c(-n3cccc3)c2)cc1

>  <scaffold>  (334) 
O=C(Cc1ccccc1)Nc1ncc(NCc2ccccc2)cc1-n1cccc1

>  <molecular_formula>  (334) 
C27H30N5O+

$$$$
ATP-HTVS-37921E17B72D
     RDKit          3D

 56 59  0  0  0  0  0  0  0  0999 V2000
  199.0913  186.7359  152.9820 Cl  0  0  0  0  0  0  0  0  0  0  0  0
  198.2086  185.3126  152.3713 C   0  0  1  0  0  0  0  0  0  0  0  0
  198.2693  185.2130  150.8468 C   0  0  0  0  0  0  0  0  0  0  0  0
  197.1364  184.7684  150.1320 C   0  0  0  0  0  0  0  0  0  0  0  0
  197.1617  184.6752  148.7266 C   0  0  0  0  0  0  0  0  0  0  0  0
  198.3260  185.0190  148.0168 C   0  0  0  0  0  0  0  0  0  0  0  0
  199.4640  185.4613  148.7174 C   0  0  0  0  0  0  0  0  0  0  0  0
  199.4368  185.5577  150.1252 C   0  0  0  0  0  0  0  0  0  0  0  0
  198.7765  184.0400  153.0152 C   0  0  0  0  0  0  0  0  0  0  0  0
  199.9869  183.8246  152.9723 O   0  0  0  0  0  0  0  0  0  0  0  0
  197.8983  183.1881  153.5895 N   0  0  0  0  0  0  0  0  0  0  0  0
  198.2076  181.9062  154.1366 C   0  0  0  0  0  0  0  0  0  0  0  0
  197.8496  181.6268  155.4918 C   0  0  0  0  0  0  0  0  0  0  0  0
  197.2041  182.5787  156.3132 N   0  0  0  0  0  0  0  0  0  0  0  0
  196.0993  182.0915  157.1530 C   0  0  1  0  0  0  0  0  0  0  0  0
  196.3144  182.2306  158.6776 C   0  0  2  0  0  0  0  0  0  0  0  0
  195.3148  181.4412  159.2951 O   0  0  0  0  0  0  0  0  0  0  0  0
  196.3092  183.6805  159.1728 C   0  0  0  0  0  0  0  0  0  0  0  0
  195.1220  184.3051  159.6148 C   0  0  0  0  0  0  0  0  0  0  0  0
  195.1443  185.6271  160.1082 C   0  0  0  0  0  0  0  0  0  0  0  0
  196.3516  186.3498  160.1521 C   0  0  0  0  0  0  0  0  0  0  0  0
  197.5371  185.7363  159.6962 C   0  0  0  0  0  0  0  0  0  0  0  0
  197.5171  184.4112  159.2133 C   0  0  0  0  0  0  0  0  0  0  0  0
  196.3732  187.7733  160.6804 C   0  0  2  0  0  0  0  0  0  0  0  0
  198.1622  180.3448  155.9889 C   0  0  0  0  0  0  0  0  0  0  0  0
  198.7457  179.3782  155.2651 N   0  0  0  0  0  0  0  0  0  0  0  0
  199.0351  179.6039  153.9741 C   0  0  0  0  0  0  0  0  0  0  0  0
  198.7678  180.8543  153.3445 C   0  0  0  0  0  0  0  0  0  0  0  0
  199.0576  180.9897  151.9587 C   0  0  0  0  0  0  0  0  0  0  0  0
  199.6455  179.9355  151.2325 C   0  0  0  0  0  0  0  0  0  0  0  0
  199.9345  178.7167  151.8686 C   0  0  0  0  0  0  0  0  0  0  0  0
  199.6209  178.5604  153.2293 C   0  0  0  0  0  0  0  0  0  0  0  0
  197.1695  185.4457  152.6792 H   0  0  0  0  0  0  0  0  0  0  0  0
  196.2370  184.5007  150.6632 H   0  0  0  0  0  0  0  0  0  0  0  0
  196.2896  184.3405  148.1861 H   0  0  0  0  0  0  0  0  0  0  0  0
  198.3428  184.9410  146.9387 H   0  0  0  0  0  0  0  0  0  0  0  0
  200.3591  185.7235  148.1688 H   0  0  0  0  0  0  0  0  0  0  0  0
  200.3232  185.8981  150.6422 H   0  0  0  0  0  0  0  0  0  0  0  0
  196.9432  183.4971  153.6909 H   0  0  0  0  0  0  0  0  0  0  0  0
  197.0629  183.5010  155.9216 H   0  0  0  0  0  0  0  0  0  0  0  0
  195.1913  182.6422  156.9300 H   0  0  0  0  0  0  0  0  0  0  0  0
  195.8911  181.0495  156.8999 H   0  0  0  0  0  0  0  0  0  0  0  0
  197.2687  181.7850  158.9636 H   0  0  0  0  0  0  0  0  0  0  0  0
  195.3739  180.5648  158.9178 H   0  0  0  0  0  0  0  0  0  0  0  0
  194.1813  183.7742  159.5968 H   0  0  0  0  0  0  0  0  0  0  0  0
  194.2315  186.0867  160.4544 H   0  0  0  0  0  0  0  0  0  0  0  0
  198.4728  186.2786  159.7276 H   0  0  0  0  0  0  0  0  0  0  0  0
  198.4338  183.9434  158.8837 H   0  0  0  0  0  0  0  0  0  0  0  0
  197.3884  188.1160  160.8862 H   0  0  0  0  0  0  0  0  0  0  0  0
  195.8060  187.8477  161.6079 H   0  0  0  0  0  0  0  0  0  0  0  0
  195.9343  188.4561  159.9531 H   0  0  0  0  0  0  0  0  0  0  0  0
  197.9540  180.0550  157.0065 H   0  0  0  0  0  0  0  0  0  0  0  0
  198.8503  181.9069  151.4290 H   0  0  0  0  0  0  0  0  0  0  0  0
  199.8773  180.0653  150.1856 H   0  0  0  0  0  0  0  0  0  0  0  0
  200.3883  177.9082  151.3142 H   0  0  0  0  0  0  0  0  0  0  0  0
  199.8339  177.6205  153.7170 H   0  0  0  0  0  0  0  0  0  0  0  0
  1  2  1  0
  2  3  1  0
  2  9  1  0
  2 33  1  6
  3  4  2  0
  3  8  1  0
  4  5  1  0
  4 34  1  0
  5  6  2  0
  5 35  1  0
  6  7  1  0
  6 36  1  0
  7  8  2  0
  7 37  1  0
  8 38  1  0
  9 10  2  0
  9 11  1  0
 11 12  1  0
 11 39  1  0
 12 13  2  0
 12 28  1  0
 13 14  1  0
 13 25  1  0
 14 15  1  0
 14 40  1  0
 15 16  1  0
 15 41  1  6
 15 42  1  0
 16 17  1  0
 16 18  1  0
 16 43  1  6
 17 44  1  0
 18 19  1  0
 18 23  2  0
 19 20  2  0
 19 45  1  0
 20 21  1  0
 20 46  1  0
 21 22  2  0
 21 24  1  0
 22 23  1  0
 22 47  1  0
 23 48  1  0
 24 49  1  1
 24 50  1  0
 24 51  1  0
 25 26  2  0
 25 52  1  0
 26 27  1  0
 27 28  1  0
 27 32  2  0
 28 29  2  0
 29 30  1  0
 29 53  1  0
 30 31  2  0
 30 54  1  0
 31 32  1  0
 31 55  1  0
 32 56  1  0
M  END
>  <s_epik_cmdline>  (335) 
J2VwaWtfcHl0aG9uJywgJy1waCcsICc3LjAwMDAwMCcsICctcGh0JywgJzIuMDAwMDAwJywgJy1tcycsICcxNicsICctdG4nLCAnOCcsICctbWEnLCAnMjAwJywgJy1pbWFlJywgJzxpbmZpbGUubWFlPicsICctb21hZScsICc8b3V0ZmlsZS5tYWU+Jw==

>  <s_epik_input>  (335) 
W2NIXTFbY0hdW2NIXVtjSF1bY0hdYzFbQ0BIXShDbClDKD1PKVtOSF1jKGMoYzIzKVtjSF1bY0hdW2NIXVtjSF0zKWMoW2NIXW4yKVtOSF1bQ0gyXVtDQEhdKFtPSF0pYzRbY0hdW2NIXWMoW0NIM10pW2NIXVtjSF00

>  <s_i_glide_gridfile>  (335) 
ATP-Grid

>  <s_lp_Force_Field>  (335) 
OPLS_2005

>  <s_lp_Variant>  (335) 
rxn502b____EMOL480530____EMOL13728749____EMOL42769518-2

>  <s_lp_label>  (335) 
2258_sdstereoexpander_2_neutralizer_1_epik_1_stereoizer_1

>  <s_m_source_file>  (335) 
ATP-VSW-LIGPREP-001-in.maegz

>  <s_sd_BIOSOLVEIT.INFINISEE\_QUERY\_NAME>  (335) 
Ref-Lig

>  <s_sd_BIOSOLVEIT.INFINISEE\_QUERY\_SMILES>  (335) 
S(c1nc2c(cc1C[NH2+]Cc3ccc(cc3)C[NH+](C)C)cccc2)Cc4ccccc4

>  <s_sd_BIOSOLVEIT.INFINISEE\_REACTION\_NAME>  (335) 
rxn502b

>  <s_sd_BIOSOLVEIT.INFINISEE\_REAGENT1\_NAME>  (335) 
EMOL480530

>  <s_sd_BIOSOLVEIT.INFINISEE\_REAGENT1\_SMILES>  (335) 
ClC(=O)C(Cl)c1ccccc1

>  <s_sd_BIOSOLVEIT.INFINISEE\_REAGENT2\_NAME>  (335) 
EMOL13728749

>  <s_sd_BIOSOLVEIT.INFINISEE\_REAGENT2\_SMILES>  (335) 
Brc1c(N)c2c(nc1)cccc2

>  <s_sd_BIOSOLVEIT.INFINISEE\_REAGENT3\_NAME>  (335) 
EMOL42769518

>  <s_sd_BIOSOLVEIT.INFINISEE\_REAGENT3\_SMILES>  (335) 
OC(c1ccc(cc1)C)CN

>  <s_sd_BIOSOLVEIT.INFINISEE\_SPACE>  (335) 
eXplore_7tr_2022-12

>  <s_vsw_compound_code>  (335) 
72225

>  <s_vsw_variant>  (335) 
72225-2

>  <r_epik_Charging_Adjusted_Penalty>  (335) 
0.014477257238428701

>  <r_epik_Ionization_Penalty>  (335) 
0.014500000000000001

>  <r_epik_Ionization_Penalty_Charging>  (335) 
0

>  <r_epik_Ionization_Penalty_Neutral>  (335) 
0.014500000000000001

>  <r_epik_State_Penalty>  (335) 
0.014500000000000001

>  <r_i_docking_score>  (335) 
-4.6216926224568704

>  <r_i_glide_ecoul>  (335) 
-5.2747888565063503

>  <r_i_glide_eff_state_penalty>  (335) 
0.014500000000000001

>  <r_i_glide_einternal>  (335) 
2.3477978706359899

>  <r_i_glide_emodel>  (335) 
-52.269784995216298

>  <r_i_glide_energy>  (335) 
-40.685963630676298

>  <r_i_glide_erotb>  (335) 
0.70443697340007205

>  <r_i_glide_esite>  (335) 
-0.043226049839977798

>  <r_i_glide_evdw>  (335) 
-35.411174774169901

>  <r_i_glide_gscore>  (335) 
-4.6361926224568704

>  <r_i_glide_hbond>  (335) 
-0.16

>  <r_i_glide_ligand_efficiency>  (335) 
-0.14442789445177701

>  <r_i_glide_ligand_efficiency_ln>  (335) 
-1.0349229607508501

>  <r_i_glide_ligand_efficiency_sa>  (335) 
-0.45852998264289202

>  <r_i_glide_lipo>  (335) 
-2.2070380242870602

>  <r_i_glide_metal>  (335) 
-0

>  <r_i_glide_rewards>  (335) 
-0.36858845454545403

>  <r_lp_Energy>  (335) 
40.915832000000002

>  <r_qp_ACxDN^.5/SA>  (335) 
0.0156043

>  <r_qp_CIQPlogS>  (335) 
-6.9589999999999996

>  <r_qp_EA(eV)>  (335) 
0.81499999999999995

>  <r_qp_FISA>  (335) 
63.223999999999997

>  <r_qp_FOSA>  (335) 
132.06200000000001

>  <r_qp_IP(eV)>  (335) 
8.3539999999999992

>  <r_qp_Jm>  (335) 
0.92060217965616997

>  <r_qp_PISA>  (335) 
437.04199999999997

>  <r_qp_PSA>  (335) 
69.016000000000005

>  <r_qp_PercentHumanOralAbsorption>  (335) 
100

>  <r_qp_QPPCaco>  (335) 
2490.8629999999998

>  <r_qp_QPPMDCK>  (335) 
2683.8739999999998

>  <r_qp_QPlogBB>  (335) 
-0.379

>  <r_qp_QPlogHERG>  (335) 
-6.2009999999999996

>  <r_qp_QPlogKhsa>  (335) 
0.53800000000000003

>  <r_qp_QPlogKp>  (335) 
-0.377

>  <r_qp_QPlogPC16>  (335) 
14.94

>  <r_qp_QPlogPo/w>  (335) 
4.8849999999999998

>  <r_qp_QPlogPoct>  (335) 
23.186

>  <r_qp_QPlogPw>  (335) 
13.534000000000001

>  <r_qp_QPlogS>  (335) 
-5.3079999999999998

>  <r_qp_QPpolrz>  (335) 
45.207000000000001

>  <r_qp_SASA>  (335) 
688.18799999999999

>  <r_qp_SAamideO>  (335) 
0

>  <r_qp_SAfluorine>  (335) 
0

>  <r_qp_WPSA>  (335) 
55.860999999999997

>  <r_qp_accptHB>  (335) 
6.2000000000000002

>  <r_qp_dip^2/V>  (335) 
0.016431500000000002

>  <r_qp_dipole>  (335) 
4.6349999999999998

>  <r_qp_donorHB>  (335) 
3

>  <r_qp_glob>  (335) 
0.84024880000000002

>  <r_qp_mol_MW>  (335) 
445.947

>  <r_qp_volume>  (335) 
1307.4490000000001

>  <r_sd_BIOSOLVEIT.INFINISEE\_FTREES\_SIMILARITY>  (335) 
0.92600000000000005

>  <r_sd_BIOSOLVEIT.LOGP>  (335) 
5.6073199999999996

>  <r_sd_BIOSOLVEIT.MOLECULAR\_WEIGHT>  (335) 
445.94799999999998

>  <r_sd_BIOSOLVEIT.TPSA>  (335) 
74.25

>  <i_epik_Tot_Q>  (335) 
0

>  <i_epik_Tot_abs_Q>  (335) 
0

>  <i_f3d_flags>  (335) 
0

>  <i_i_glide_confnum>  (335) 
4

>  <i_i_glide_lignum>  (335) 
780

>  <i_i_glide_posenum>  (335) 
12

>  <i_i_glide_rotatable_bonds>  (335) 
9

>  <i_lp_mmshare_version>  (335) 
65135

>  <i_m_ct_format>  (335) 
2

>  <i_m_source_file_index>  (335) 
2258

>  <i_qp_#NandO>  (335) 
5

>  <i_qp_#acid>  (335) 
0

>  <i_qp_#amide>  (335) 
0

>  <i_qp_#amidine>  (335) 
0

>  <i_qp_#amine>  (335) 
0

>  <i_qp_#in34>  (335) 
0

>  <i_qp_#in56>  (335) 
22

>  <i_qp_#metab>  (335) 
7

>  <i_qp_#nonHatm>  (335) 
32

>  <i_qp_#noncon>  (335) 
0

>  <i_qp_#ringatoms>  (335) 
22

>  <i_qp_#rotor>  (335) 
8

>  <i_qp_#rtvFG>  (335) 
1

>  <i_qp_#stars>  (335) 
0

>  <i_qp_CNS>  (335) 
-1

>  <i_qp_HumanOralAbsorption>  (335) 
3

>  <i_qp_RuleOfFive>  (335) 
0

>  <i_qp_RuleOfThree>  (335) 
1

>  <i_sd_BIOSOLVEIT.INFINISEE\_RESULT\_RANK>  (335) 
8220

>  <i_sd_version>  (335) 
0

>  <b_lp_Chiralities_Consistent>  (335) 
1

>  <b_sd_chiral_flag>  (335) 
0

>  <canonical_id>  (335) 
ATP-HTVS-37921E17B72D

>  <compound_code>  (335) 
72225

>  <title>  (335) 
rxn502b____EMOL480530____EMOL13728749____EMOL42769518

>  <variant>  (335) 
72225-2

>  <source_file>  (335) 
运行/运行/ATP-VSW/ATP-VSW-DOCK_HTVS_1-001_lib/ATP-VSW-DOCK_HTVS_1-001_lib

>  <canonical_smiles>  (335) 
Cc1ccc([C@@H](O)CNc2cnc3ccccc3c2NC(=O)[C@@H](Cl)c2ccccc2)cc1

>  <scaffold>  (335) 
O=C(Cc1ccccc1)Nc1c(NCCc2ccccc2)cnc2ccccc12

>  <molecular_formula>  (335) 
C26H24ClN3O2

$$$$
ATP-HTVS-37A579E82C38
     RDKit          3D

 58 61  0  0  0  0  0  0  0  0999 V2000
  200.7473  177.2410  157.7399 Cl  0  0  0  0  0  0  0  0  0  0  0  0
  201.1645  176.8275  156.1143 C   0  0  0  0  0  0  0  0  0  0  0  0
  201.4714  177.8324  155.1702 C   0  0  0  0  0  0  0  0  0  0  0  0
  201.8175  177.4670  153.8508 C   0  0  0  0  0  0  0  0  0  0  0  0
  201.8301  176.1127  153.4653 C   0  0  0  0  0  0  0  0  0  0  0  0
  201.5191  175.1140  154.4071 C   0  0  0  0  0  0  0  0  0  0  0  0
  201.1962  175.4726  155.7300 C   0  0  0  0  0  0  0  0  0  0  0  0
  201.4073  179.3061  155.5412 C   0  0  1  0  0  0  0  0  0  0  0  0
  200.0601  179.8353  155.7561 N   0  0  0  0  0  0  0  0  0  0  0  0
  199.1077  179.9117  154.7236 C   0  0  0  0  0  0  0  0  0  0  0  0
  199.3859  179.3018  153.5498 N   0  0  0  0  0  0  0  0  0  0  0  0
  198.4703  179.3536  152.5592 C   0  0  0  0  0  0  0  0  0  0  0  0
  197.2609  180.0840  152.7256 C   0  0  0  0  0  0  0  0  0  0  0  0
  196.9917  180.7174  153.8910 N   0  0  0  0  0  0  0  0  0  0  0  0
  197.8967  180.6274  154.8960 C   0  0  0  0  0  0  0  0  0  0  0  0
  197.6277  181.3026  156.0984 N   0  0  0  0  0  0  0  0  0  0  0  0
  196.3068  181.8632  156.3473 C   0  0  1  0  0  0  0  0  0  0  0  0
  196.2487  182.8081  157.5321 C   0  0  0  0  0  0  0  0  0  0  0  0
  197.2091  183.8341  157.6938 C   0  0  0  0  0  0  0  0  0  0  0  0
  197.1729  184.6770  158.8283 C   0  0  0  0  0  0  0  0  0  0  0  0
  196.1568  184.4956  159.7874 C   0  0  0  0  0  0  0  0  0  0  0  0
  195.1595  183.5218  159.5853 C   0  0  0  0  0  0  0  0  0  0  0  0
  195.2109  182.6666  158.4675 C   0  0  0  0  0  0  0  0  0  0  0  0
  198.2325  185.7464  159.0451 C   0  0  1  0  0  0  0  0  0  0  0  0
  197.7688  187.1372  158.7550 N   0  0  2  0  0  0  0  0  0  0  0  0
  198.8743  188.1215  158.8109 C   0  0  2  0  0  0  0  0  0  0  0  0
  196.6218  187.5847  159.5865 C   0  0  2  0  0  0  0  0  0  0  0  0
  196.3397  180.1347  151.6598 C   0  0  0  0  0  0  0  0  0  0  0  0
  196.5837  179.4473  150.4555 C   0  0  0  0  0  0  0  0  0  0  0  0
  197.7628  178.6988  150.3030 C   0  0  0  0  0  0  0  0  0  0  0  0
  198.7006  178.6602  151.3507 C   0  0  0  0  0  0  0  0  0  0  0  0
  202.0399  178.2306  153.1208 H   0  0  0  0  0  0  0  0  0  0  0  0
  202.0680  175.8449  152.4463 H   0  0  0  0  0  0  0  0  0  0  0  0
  201.5240  174.0748  154.1138 H   0  0  0  0  0  0  0  0  0  0  0  0
  200.9643  174.7041  156.4507 H   0  0  0  0  0  0  0  0  0  0  0  0
  201.9871  179.4589  156.4543 H   0  0  0  0  0  0  0  0  0  0  0  0
  201.9008  179.8966  154.7726 H   0  0  0  0  0  0  0  0  0  0  0  0
  199.7608  179.9901  156.7086 H   0  0  0  0  0  0  0  0  0  0  0  0
  198.1056  180.9675  156.9207 H   0  0  0  0  0  0  0  0  0  0  0  0
  195.9494  182.4019  155.4684 H   0  0  0  0  0  0  0  0  0  0  0  0
  195.6167  181.0365  156.5144 H   0  0  0  0  0  0  0  0  0  0  0  0
  197.9777  183.9568  156.9382 H   0  0  0  0  0  0  0  0  0  0  0  0
  196.1234  185.0908  160.6826 H   0  0  0  0  0  0  0  0  0  0  0  0
  194.3548  183.4297  160.2988 H   0  0  0  0  0  0  0  0  0  0  0  0
  194.4445  181.9140  158.3324 H   0  0  0  0  0  0  0  0  0  0  0  0
  198.5986  185.6824  160.0723 H   0  0  0  0  0  0  0  0  0  0  0  0
  199.0919  185.5168  158.4074 H   0  0  0  0  0  0  0  0  0  0  0  0
  199.3347  188.1450  159.7991 H   0  0  0  0  0  0  0  0  0  0  0  0
  198.5025  189.1235  158.6014 H   0  0  0  0  0  0  0  0  0  0  0  0
  199.6504  187.9009  158.0782 H   0  0  0  0  0  0  0  0  0  0  0  0
  196.9074  187.5974  160.6396 H   0  0  0  0  0  0  0  0  0  0  0  0
  195.7537  186.9308  159.4705 H   0  0  0  0  0  0  0  0  0  0  0  0
  196.3170  188.6018  159.3173 H   0  0  0  0  0  0  0  0  0  0  0  0
  195.4309  180.7051  151.7762 H   0  0  0  0  0  0  0  0  0  0  0  0
  195.8637  179.4877  149.6518 H   0  0  0  0  0  0  0  0  0  0  0  0
  197.9508  178.1579  149.3864 H   0  0  0  0  0  0  0  0  0  0  0  0
  199.6036  178.0793  151.2367 H   0  0  0  0  0  0  0  0  0  0  0  0
  197.4408  187.1261  157.7993 H   0  0  0  0  0  0  0  0  0  0  0  0
  1  2  1  0
  2  3  1  0
  2  7  2  0
  3  4  2  0
  3  8  1  0
  4  5  1  0
  4 32  1  0
  5  6  2  0
  5 33  1  0
  6  7  1  0
  6 34  1  0
  7 35  1  0
  8  9  1  0
  8 36  1  1
  8 37  1  0
  9 10  1  0
  9 38  1  0
 10 11  2  0
 10 15  1  0
 11 12  1  0
 12 13  1  0
 12 31  2  0
 13 14  1  0
 13 28  2  0
 14 15  2  0
 15 16  1  0
 16 17  1  0
 16 39  1  0
 17 18  1  0
 17 40  1  6
 17 41  1  0
 18 19  2  0
 18 23  1  0
 19 20  1  0
 19 42  1  0
 20 21  2  0
 20 24  1  0
 21 22  1  0
 21 43  1  0
 22 23  2  0
 22 44  1  0
 23 45  1  0
 24 25  1  0
 24 46  1  1
 24 47  1  0
 25 26  1  0
 25 27  1  0
 25 58  1  6
 26 48  1  1
 26 49  1  0
 26 50  1  0
 27 51  1  1
 27 52  1  0
 27 53  1  0
 28 29  1  0
 28 54  1  0
 29 30  2  0
 29 55  1  0
 30 31  1  0
 30 56  1  0
 31 57  1  0
M  CHG  1  25   1
M  END
>  <s_epik_cmdline>  (336) 
J2VwaWtfcHl0aG9uJywgJy1waCcsICc3LjAwMDAwMCcsICctcGh0JywgJzIuMDAwMDAwJywgJy1tcycsICcxNicsICctdG4nLCAnOCcsICctbWEnLCAnMjAwJywgJy1pbWFlJywgJzxpbmZpbGUubWFlPicsICctb21hZScsICc8b3V0ZmlsZS5tYWU+Jw==

>  <s_epik_input>  (336) 
W2NIXTFbY0hdW2NIXVtjSF1jKGMxQ2wpW0NIMl1bTkhdYyhuMiljKG5jKGMyMylbY0hdW2NIXVtjSF1bY0hdMylbTkhdW0NIMl1jNFtjSF1jKFtjSF1bY0hdW2NIXTQpW0NIMl1OKFtDSDNdKVtDSDNd

>  <s_i_glide_gridfile>  (336) 
ATP-Grid

>  <s_lp_Force_Field>  (336) 
OPLS_2005

>  <s_lp_Variant>  (336) 
m_282030aaa____21930922____23157418____21940090-1

>  <s_lp_label>  (336) 
896_sdstereoexpander_1_neutralizer_1_epik_1_stereoizer_1

>  <s_m_source_file>  (336) 
ATP-VSW-LIGPREP-001-in.maegz

>  <s_sd_BIOSOLVEIT.INFINISEE\_QUERY\_NAME>  (336) 
Ref-Lig

>  <s_sd_BIOSOLVEIT.INFINISEE\_QUERY\_SMILES>  (336) 
S(c1nc2c(cc1C[NH2+]Cc3ccc(cc3)C[NH+](C)C)cccc2)Cc4ccccc4

>  <s_sd_BIOSOLVEIT.INFINISEE\_REACTION\_NAME>  (336) 
m_282030aaa

>  <s_sd_BIOSOLVEIT.INFINISEE\_REAGENT1\_SMILES>  (336) 
[R1*]NCc1c(Cl)cccc1

>  <s_sd_BIOSOLVEIT.INFINISEE\_REAGENT2\_SMILES>  (336) 
[R1*]c1nc2c(nc1[R2*])cccc2

>  <s_sd_BIOSOLVEIT.INFINISEE\_REAGENT3\_SMILES>  (336) 
[R2*]NCc1cc(ccc1)CN(C)C

>  <s_sd_BIOSOLVEIT.INFINISEE\_SPACE>  (336) 
REALSpace_44bn_2023-08

>  <s_vsw_compound_code>  (336) 
28641

>  <s_vsw_variant>  (336) 
28641-1

>  <r_epik_Charging_Adjusted_Penalty>  (336) 
0.088195370499548398

>  <r_epik_Ionization_Penalty>  (336) 
0.044499999999999998

>  <r_epik_Ionization_Penalty_Charging>  (336) 
0.0441

>  <r_epik_Ionization_Penalty_Neutral>  (336) 
0.00040000000000000002

>  <r_epik_State_Penalty>  (336) 
0.0441

>  <r_i_docking_score>  (336) 
-4.2556112838145896

>  <r_i_glide_ecoul>  (336) 
-3.6856541633606001

>  <r_i_glide_eff_state_penalty>  (336) 
0.0441

>  <r_i_glide_einternal>  (336) 
3.06616282463074

>  <r_i_glide_emodel>  (336) 
-55.187527173081001

>  <r_i_glide_energy>  (336) 
-42.167816638946498

>  <r_i_glide_erotb>  (336) 
0.74320230027251499

>  <r_i_glide_esite>  (336) 
-0.069973782625984193

>  <r_i_glide_evdw>  (336) 
-38.482162475585902

>  <r_i_glide_gscore>  (336) 
-4.2997112838145899

>  <r_i_glide_hbond>  (336) 
0

>  <r_i_glide_ligand_efficiency>  (336) 
-0.13727778334885801

>  <r_i_glide_ligand_efficiency_ln>  (336) 
-0.95977076332333

>  <r_i_glide_ligand_efficiency_sa>  (336) 
-0.43124177212165199

>  <r_i_glide_lipo>  (336) 
-2.0389477349959102

>  <r_i_glide_metal>  (336) 
-0

>  <r_i_glide_rewards>  (336) 
-0.45703581818181699

>  <r_lp_Energy>  (336) 
23.980906999999998

>  <r_qp_ACxDN^.5/SA>  (336) 
0.011346500000000001

>  <r_qp_CIQPlogS>  (336) 
-6.1870000000000003

>  <r_qp_EA(eV)>  (336) 
0.64500000000000002

>  <r_qp_FISA>  (336) 
34.395000000000003

>  <r_qp_FOSA>  (336) 
184.786

>  <r_qp_IP(eV)>  (336) 
8.0470000000000006

>  <r_qp_Jm>  (336) 
1.1005088046406499

>  <r_qp_PISA>  (336) 
359.435

>  <r_qp_PSA>  (336) 
45.171999999999997

>  <r_qp_PercentHumanOralAbsorption>  (336) 
100

>  <r_qp_QPPCaco>  (336) 
1165.809

>  <r_qp_QPPMDCK>  (336) 
1133.5360000000001

>  <r_qp_QPlogBB>  (336) 
0.311

>  <r_qp_QPlogHERG>  (336) 
-5.4690000000000003

>  <r_qp_QPlogKhsa>  (336) 
0.73499999999999999

>  <r_qp_QPlogKp>  (336) 
-2.1819999999999999

>  <r_qp_QPlogPC16>  (336) 
13.582000000000001

>  <r_qp_QPlogPo/w>  (336) 
4.8399999999999999

>  <r_qp_QPlogPoct>  (336) 
20.213999999999999

>  <r_qp_QPlogPw>  (336) 
10.003

>  <r_qp_QPlogS>  (336) 
-3.4119999999999999

>  <r_qp_QPpolrz>  (336) 
42.752000000000002

>  <r_qp_SASA>  (336) 
623.19299999999998

>  <r_qp_SAamideO>  (336) 
0

>  <r_qp_SAfluorine>  (336) 
0

>  <r_qp_WPSA>  (336) 
44.576000000000001

>  <r_qp_accptHB>  (336) 
5

>  <r_qp_dip^2/V>  (336) 
0.022524700000000002

>  <r_qp_dipole>  (336) 
5.3369999999999997

>  <r_qp_donorHB>  (336) 
2

>  <r_qp_glob>  (336) 
0.90751020000000004

>  <r_qp_mol_MW>  (336) 
431.96699999999998

>  <r_qp_volume>  (336) 
1264.6300000000001

>  <r_sd_BIOSOLVEIT.INFINISEE\_FTREES\_SIMILARITY>  (336) 
0.91900000000000004

>  <r_sd_BIOSOLVEIT.LOGP>  (336) 
4.1519000000000004

>  <r_sd_BIOSOLVEIT.MOLECULAR\_WEIGHT>  (336) 
432.976

>  <r_sd_BIOSOLVEIT.TPSA>  (336) 
54.280000000000001

>  <i_epik_Tot_Q>  (336) 
1

>  <i_epik_Tot_abs_Q>  (336) 
1

>  <i_f3d_flags>  (336) 
0

>  <i_i_glide_confnum>  (336) 
7

>  <i_i_glide_lignum>  (336) 
159

>  <i_i_glide_posenum>  (336) 
11

>  <i_i_glide_rotatable_bonds>  (336) 
8

>  <i_lp_mmshare_version>  (336) 
65135

>  <i_m_ct_format>  (336) 
2

>  <i_m_source_file_index>  (336) 
896

>  <i_qp_#NandO>  (336) 
5

>  <i_qp_#acid>  (336) 
0

>  <i_qp_#amide>  (336) 
0

>  <i_qp_#amidine>  (336) 
0

>  <i_qp_#amine>  (336) 
1

>  <i_qp_#in34>  (336) 
0

>  <i_qp_#in56>  (336) 
22

>  <i_qp_#metab>  (336) 
4

>  <i_qp_#nonHatm>  (336) 
31

>  <i_qp_#noncon>  (336) 
0

>  <i_qp_#ringatoms>  (336) 
22

>  <i_qp_#rotor>  (336) 
8

>  <i_qp_#rtvFG>  (336) 
0

>  <i_qp_#stars>  (336) 
0

>  <i_qp_CNS>  (336) 
1

>  <i_qp_HumanOralAbsorption>  (336) 
3

>  <i_qp_RuleOfFive>  (336) 
0

>  <i_qp_RuleOfThree>  (336) 
0

>  <i_sd_BIOSOLVEIT.INFINISEE\_REAGENT1\_NAME>  (336) 
21930922

>  <i_sd_BIOSOLVEIT.INFINISEE\_REAGENT2\_NAME>  (336) 
23157418

>  <i_sd_BIOSOLVEIT.INFINISEE\_REAGENT3\_NAME>  (336) 
21940090

>  <i_sd_BIOSOLVEIT.INFINISEE\_RESULT\_RANK>  (336) 
18506

>  <i_sd_version>  (336) 
0

>  <b_lp_Chiralities_Consistent>  (336) 
1

>  <b_sd_chiral_flag>  (336) 
0

>  <canonical_id>  (336) 
ATP-HTVS-37A579E82C38

>  <compound_code>  (336) 
28641

>  <title>  (336) 
m_282030aaa____21930922____23157418____21940090

>  <variant>  (336) 
28641-1

>  <source_file>  (336) 
运行/运行/ATP-VSW/ATP-VSW-DOCK_HTVS_1-001_lib/ATP-VSW-DOCK_HTVS_1-001_lib

>  <canonical_smiles>  (336) 
C[NH+](C)Cc1cccc(CNc2nc3ccccc3nc2NCc2ccccc2Cl)c1

>  <scaffold>  (336) 
c1ccc(CNc2nc3ccccc3nc2NCc2ccccc2)cc1

>  <molecular_formula>  (336) 
C25H27ClN5+

$$$$
ATP-HTVS-37D34080A09D
     RDKit          3D

 64 67  0  0  0  0  0  0  0  0999 V2000
  195.5266  184.6971  160.3526 N   0  0  0  0  0  0  0  0  0  0  0  0
  196.0921  183.7148  159.6112 C   0  0  0  0  0  0  0  0  0  0  0  0
  196.9594  183.9692  158.5107 C   0  0  0  0  0  0  0  0  0  0  0  0
  197.2122  185.3178  158.1380 C   0  0  0  0  0  0  0  0  0  0  0  0
  196.6984  186.3297  158.9712 C   0  0  0  0  0  0  0  0  0  0  0  0
  195.8574  185.9822  160.0626 C   0  0  0  0  0  0  0  0  0  0  0  0
  197.5330  182.8073  157.6918 C   0  0  2  0  0  0  0  0  0  0  0  0
  199.0064  182.8198  157.4651 N   0  0  0  0  0  0  0  0  0  0  0  0
  199.4993  181.6153  156.7879 C   0  0  2  0  0  0  0  0  0  0  0  0
  199.5413  183.9812  156.7503 C   0  0  2  0  0  0  0  0  0  0  0  0
  196.7269  182.7046  156.3717 C   0  0  1  0  0  0  0  0  0  0  0  0
  195.9463  181.4510  156.2705 N   0  0  1  0  0  0  0  0  0  0  0  0
  196.6263  180.2611  155.7306 C   0  0  1  0  0  0  0  0  0  0  0  0
  197.1418  180.5113  154.3231 C   0  0  0  0  0  0  0  0  0  0  0  0
  198.2204  179.9087  153.5978 C   0  0  0  0  0  0  0  0  0  0  0  0
  198.3683  180.4758  152.3917 N   0  0  0  0  0  0  0  0  0  0  0  0
  197.3889  181.3965  152.3004 N   0  0  0  0  0  0  0  0  0  0  0  0
  196.6409  181.4351  153.4477 C   0  0  0  0  0  0  0  0  0  0  0  0
  197.2315  182.2057  151.1086 C   0  0  1  0  0  0  0  0  0  0  0  0
  197.7743  183.6215  151.2719 C   0  0  0  0  0  0  0  0  0  0  0  0
  197.4709  184.4036  152.4134 C   0  0  0  0  0  0  0  0  0  0  0  0
  197.9778  185.7037  152.5460 C   0  0  0  0  0  0  0  0  0  0  0  0
  198.7740  186.2522  151.5264 C   0  0  0  0  0  0  0  0  0  0  0  0
  199.0713  185.4886  150.3802 C   0  0  0  0  0  0  0  0  0  0  0  0
  198.5768  184.1758  150.2521 C   0  0  0  0  0  0  0  0  0  0  0  0
  199.1506  178.8347  154.0108 C   0  0  0  0  0  0  0  0  0  0  0  0
  199.9836  178.2263  153.0377 C   0  0  0  0  0  0  0  0  0  0  0  0
  200.8397  177.1573  153.3899 C   0  0  0  0  0  0  0  0  0  0  0  0
  200.8721  176.6977  154.7269 C   0  0  0  0  0  0  0  0  0  0  0  0
  200.0549  177.3080  155.6949 C   0  0  0  0  0  0  0  0  0  0  0  0
  199.1938  178.3748  155.3645 C   0  0  0  0  0  0  0  0  0  0  0  0
  201.7875  175.5676  155.1388 C   0  0  2  0  0  0  0  0  0  0  0  0
  195.5621  181.1789  157.1663 H   0  0  0  0  0  0  0  0  0  0  0  0
  195.7890  182.6996  159.8596 H   0  0  0  0  0  0  0  0  0  0  0  0
  197.8018  185.5660  157.2746 H   0  0  0  0  0  0  0  0  0  0  0  0
  196.9508  187.3590  158.7570 H   0  0  0  0  0  0  0  0  0  0  0  0
  195.4099  186.7735  160.6592 H   0  0  0  0  0  0  0  0  0  0  0  0
  197.3282  181.8921  158.2689 H   0  0  0  0  0  0  0  0  0  0  0  0
  200.5873  181.6704  156.6557 H   0  0  0  0  0  0  0  0  0  0  0  0
  199.0983  181.5397  155.7711 H   0  0  0  0  0  0  0  0  0  0  0  0
  199.2699  180.6925  157.3390 H   0  0  0  0  0  0  0  0  0  0  0  0
  200.5856  183.8004  156.4519 H   0  0  0  0  0  0  0  0  0  0  0  0
  199.4334  184.8665  157.3730 H   0  0  0  0  0  0  0  0  0  0  0  0
  198.9858  184.1600  155.8337 H   0  0  0  0  0  0  0  0  0  0  0  0
  196.0337  183.5420  156.2546 H   0  0  0  0  0  0  0  0  0  0  0  0
  197.3745  182.8215  155.5070 H   0  0  0  0  0  0  0  0  0  0  0  0
  197.3855  180.0764  156.4805 H   0  0  0  0  0  0  0  0  0  0  0  0
  195.9465  179.4039  155.7254 H   0  0  0  0  0  0  0  0  0  0  0  0
  195.8476  182.1642  153.5772 H   0  0  0  0  0  0  0  0  0  0  0  0
  197.7192  181.6943  150.2769 H   0  0  0  0  0  0  0  0  0  0  0  0
  196.1661  182.2530  150.8846 H   0  0  0  0  0  0  0  0  0  0  0  0
  196.8439  184.0453  153.2121 H   0  0  0  0  0  0  0  0  0  0  0  0
  197.7298  186.2710  153.4317 H   0  0  0  0  0  0  0  0  0  0  0  0
  199.1447  187.2601  151.6291 H   0  0  0  0  0  0  0  0  0  0  0  0
  199.6848  185.9094  149.6006 H   0  0  0  0  0  0  0  0  0  0  0  0
  198.8166  183.5942  149.3715 H   0  0  0  0  0  0  0  0  0  0  0  0
  199.9674  178.5538  151.9921 H   0  0  0  0  0  0  0  0  0  0  0  0
  201.4652  176.7027  152.6345 H   0  0  0  0  0  0  0  0  0  0  0  0
  200.0571  176.9776  156.7227 H   0  0  0  0  0  0  0  0  0  0  0  0
  198.5974  178.7623  156.1567 H   0  0  0  0  0  0  0  0  0  0  0  0
  201.3034  174.9637  155.9097 H   0  0  0  0  0  0  0  0  0  0  0  0
  202.7089  175.9904  155.5439 H   0  0  0  0  0  0  0  0  0  0  0  0
  202.0098  174.9389  154.2765 H   0  0  0  0  0  0  0  0  0  0  0  0
  195.1392  181.6809  155.6905 H   0  0  0  0  0  0  0  0  0  0  0  0
  1  2  1  0
  1  6  2  0
  2  3  2  0
  2 34  1  0
  3  4  1  0
  3  7  1  0
  4  5  2  0
  4 35  1  0
  5  6  1  0
  5 36  1  0
  6 37  1  0
  7  8  1  0
  7 11  1  0
  7 38  1  1
  8  9  1  0
  8 10  1  0
  9 39  1  6
  9 40  1  0
  9 41  1  0
 10 42  1  6
 10 43  1  0
 10 44  1  0
 11 12  1  0
 11 45  1  1
 11 46  1  0
 12 13  1  0
 12 33  1  1
 12 64  1  0
 13 14  1  0
 13 47  1  1
 13 48  1  0
 14 15  1  0
 14 18  2  0
 15 16  2  0
 15 26  1  0
 16 17  1  0
 17 18  1  0
 17 19  1  0
 18 49  1  0
 19 20  1  0
 19 50  1  6
 19 51  1  0
 20 21  2  0
 20 25  1  0
 21 22  1  0
 21 52  1  0
 22 23  2  0
 22 53  1  0
 23 24  1  0
 23 54  1  0
 24 25  2  0
 24 55  1  0
 25 56  1  0
 26 27  1  0
 26 31  2  0
 27 28  2  0
 27 57  1  0
 28 29  1  0
 28 58  1  0
 29 30  2  0
 29 32  1  0
 30 31  1  0
 30 59  1  0
 31 60  1  0
 32 61  1  1
 32 62  1  0
 32 63  1  0
M  CHG  1  12   1
M  END
>  <s_epik_cmdline>  (337) 
J2VwaWtfcHl0aG9uJywgJy1waCcsICc3LjAwMDAwMCcsICctcGh0JywgJzIuMDAwMDAwJywgJy1tcycsICcxNicsICctdG4nLCAnOCcsICctbWEnLCAnMjAwJywgJy1pbWFlJywgJzxpbmZpbGUubWFlPicsICctb21hZScsICc8b3V0ZmlsZS5tYWU+Jw==

>  <s_epik_input>  (337) 
W2NIXTFbY0hdW2NIXW5bY0hdYzFbQ0BIXShOKFtDSDNdKVtDSDNdKVtDSDJdW05IXVtDSDJdYzJjKC1jM1tjSF1bY0hdYyhbQ0gzXSlbY0hdW2NIXTMpbm4oW2NIXTIpW0NIMl1jNFtjSF1bY0hdW2NIXVtjSF1bY0hdNA==

>  <s_i_glide_gridfile>  (337) 
ATP-Grid

>  <s_lp_Force_Field>  (337) 
OPLS_2005

>  <s_lp_Variant>  (337) 
m_270004bbb____8350152____7547626-2

>  <s_lp_label>  (337) 
1135_sdstereoexpander_2_neutralizer_1_epik_1_stereoizer_1

>  <s_m_source_file>  (337) 
ATP-VSW-LIGPREP-003-in.maegz

>  <s_sd_BIOSOLVEIT.INFINISEE\_QUERY\_NAME>  (337) 
Ref-Lig

>  <s_sd_BIOSOLVEIT.INFINISEE\_QUERY\_SMILES>  (337) 
S(c1nc2c(cc1C[NH2+]Cc3ccc(cc3)C[NH+](C)C)cccc2)Cc4ccccc4

>  <s_sd_BIOSOLVEIT.INFINISEE\_REACTION\_NAME>  (337) 
m_270004bbb

>  <s_sd_BIOSOLVEIT.INFINISEE\_REAGENT1\_SMILES>  (337) 
[R1*]NCC(N(C)C)c1cnccc1

>  <s_sd_BIOSOLVEIT.INFINISEE\_REAGENT2\_SMILES>  (337) 
[R1*]CC=1C(=NN(C1)Cc2ccccc2)c3ccc(cc3)C

>  <s_sd_BIOSOLVEIT.INFINISEE\_SPACE>  (337) 
REALSpace_44bn_2023-08

>  <s_vsw_compound_code>  (337) 
36291

>  <s_vsw_variant>  (337) 
36291-2

>  <r_epik_Charging_Adjusted_Penalty>  (337) 
0.15273197061539001

>  <r_epik_Ionization_Penalty>  (337) 
0.046100000000000002

>  <r_epik_Ionization_Penalty_Charging>  (337) 
0.041599999999999998

>  <r_epik_Ionization_Penalty_Neutral>  (337) 
0.0044999999999999997

>  <r_epik_State_Penalty>  (337) 
0.1111

>  <r_i_docking_score>  (337) 
-4.7346655043316304

>  <r_i_glide_ecoul>  (337) 
-12.526867866516101

>  <r_i_glide_eff_state_penalty>  (337) 
0.1111

>  <r_i_glide_einternal>  (337) 
13.775170326232899

>  <r_i_glide_emodel>  (337) 
-59.035219097450003

>  <r_i_glide_energy>  (337) 
-45.475651741027797

>  <r_i_glide_erotb>  (337) 
0.76349423317314502

>  <r_i_glide_esite>  (337) 
-0.083477231549487704

>  <r_i_glide_evdw>  (337) 
-32.948783874511697

>  <r_i_glide_gscore>  (337) 
-4.8457655043316299

>  <r_i_glide_hbond>  (337) 
-0.23015682518994701

>  <r_i_glide_ligand_efficiency>  (337) 
-0.147958297010363

>  <r_i_glide_ligand_efficiency_ln>  (337) 
-1.0602206685270601

>  <r_i_glide_ligand_efficiency_sa>  (337) 
-0.46973831210068501

>  <r_i_glide_lipo>  (337) 
-1.2628775142095701

>  <r_i_glide_metal>  (337) 
-0

>  <r_i_glide_rewards>  (337) 
-0.506278792852771

>  <r_lp_Energy>  (337) 
24.390681000000001

>  <r_lp_tautomer_probability>  (337) 
1

>  <r_qp_ACxDN^.5/SA>  (337) 
0.0086726000000000008

>  <r_qp_CIQPlogS>  (337) 
-4.5469999999999997

>  <r_qp_EA(eV)>  (337) 
0.16200000000000001

>  <r_qp_FISA>  (337) 
33.841000000000001

>  <r_qp_FOSA>  (337) 
319.84500000000003

>  <r_qp_IP(eV)>  (337) 
8.7279999999999998

>  <r_qp_Jm>  (337) 
0.0060594883571574798

>  <r_qp_PISA>  (337) 
395.803

>  <r_qp_PSA>  (337) 
45.060000000000002

>  <r_qp_PercentHumanOralAbsorption>  (337) 
100

>  <r_qp_QPPCaco>  (337) 
294.29899999999998

>  <r_qp_QPPMDCK>  (337) 
161.411

>  <r_qp_QPlogBB>  (337) 
0.54200000000000004

>  <r_qp_QPlogHERG>  (337) 
-7.8010000000000002

>  <r_qp_QPlogKhsa>  (337) 
0.88200000000000001

>  <r_qp_QPlogKp>  (337) 
-4.1059999999999999

>  <r_qp_QPlogPC16>  (337) 
14.724

>  <r_qp_QPlogPo/w>  (337) 
4.7190000000000003

>  <r_qp_QPlogPoct>  (337) 
21.390000000000001

>  <r_qp_QPlogPw>  (337) 
10.548

>  <r_qp_QPlogS>  (337) 
-3.7410000000000001

>  <r_qp_QPpolrz>  (337) 
49.715000000000003

>  <r_qp_SASA>  (337) 
749.48900000000003

>  <r_qp_SAamideO>  (337) 
0

>  <r_qp_SAfluorine>  (337) 
0

>  <r_qp_WPSA>  (337) 
0

>  <r_qp_accptHB>  (337) 
6.5

>  <r_qp_dip^2/V>  (337) 
0.0092718999999999996

>  <r_qp_dipole>  (337) 
3.641

>  <r_qp_donorHB>  (337) 
1

>  <r_qp_glob>  (337) 
0.81898230000000005

>  <r_qp_mol_MW>  (337) 
425.57499999999999

>  <r_qp_volume>  (337) 
1429.922

>  <r_sd_BIOSOLVEIT.INFINISEE\_FTREES\_SIMILARITY>  (337) 
0.91300000000000003

>  <r_sd_BIOSOLVEIT.LOGP>  (337) 
2.25102

>  <r_sd_BIOSOLVEIT.MOLECULAR\_WEIGHT>  (337) 
427.59300000000002

>  <r_sd_BIOSOLVEIT.TPSA>  (337) 
51.759999999999998

>  <i_epik_Tot_Q>  (337) 
1

>  <i_epik_Tot_abs_Q>  (337) 
1

>  <i_f3d_flags>  (337) 
0

>  <i_i_glide_confnum>  (337) 
9

>  <i_i_glide_lignum>  (337) 
444

>  <i_i_glide_posenum>  (337) 
3

>  <i_i_glide_rotatable_bonds>  (337) 
9

>  <i_lp_mmshare_version>  (337) 
65135

>  <i_m_ct_format>  (337) 
2

>  <i_m_source_file_index>  (337) 
1135

>  <i_qp_#NandO>  (337) 
5

>  <i_qp_#acid>  (337) 
0

>  <i_qp_#amide>  (337) 
0

>  <i_qp_#amidine>  (337) 
0

>  <i_qp_#amine>  (337) 
2

>  <i_qp_#in34>  (337) 
0

>  <i_qp_#in56>  (337) 
23

>  <i_qp_#metab>  (337) 
9

>  <i_qp_#nonHatm>  (337) 
32

>  <i_qp_#noncon>  (337) 
0

>  <i_qp_#ringatoms>  (337) 
23

>  <i_qp_#rotor>  (337) 
8

>  <i_qp_#rtvFG>  (337) 
0

>  <i_qp_#stars>  (337) 
1

>  <i_qp_CNS>  (337) 
2

>  <i_qp_HumanOralAbsorption>  (337) 
3

>  <i_qp_RuleOfFive>  (337) 
0

>  <i_qp_RuleOfThree>  (337) 
1

>  <i_sd_BIOSOLVEIT.INFINISEE\_REAGENT1\_NAME>  (337) 
8350152

>  <i_sd_BIOSOLVEIT.INFINISEE\_REAGENT2\_NAME>  (337) 
7547626

>  <i_sd_BIOSOLVEIT.INFINISEE\_RESULT\_RANK>  (337) 
35771

>  <i_sd_version>  (337) 
0

>  <b_lp_Chiralities_Consistent>  (337) 
1

>  <b_sd_chiral_flag>  (337) 
0

>  <canonical_id>  (337) 
ATP-HTVS-37D34080A09D

>  <compound_code>  (337) 
36291

>  <title>  (337) 
m_270004bbb____8350152____7547626

>  <variant>  (337) 
36291-2

>  <source_file>  (337) 
运行/运行/ATP-VSW/ATP-VSW-DOCK_HTVS_1-003_lib/ATP-VSW-DOCK_HTVS_1-003_lib.mae

>  <canonical_smiles>  (337) 
Cc1ccc(-c2nn(Cc3ccccc3)cc2C[NH2+]C[C@H](c2cccnc2)N(C)C)cc1

>  <scaffold>  (337) 
c1ccc(Cn2cc(C[NH2+]CCc3cccnc3)c(-c3ccccc3)n2)cc1

>  <molecular_formula>  (337) 
C27H32N5+

$$$$
ATP-HTVS-37EC6A305554
     RDKit          3D

 56 59  0  0  0  0  0  0  0  0999 V2000
  196.9602  182.8716  155.8537 O   0  0  0  0  0  0  0  0  0  0  0  0
  196.8274  181.8589  156.5455 C   0  0  0  0  0  0  0  0  0  0  0  0
  197.1515  180.6336  156.1274 N   0  0  0  0  0  0  0  0  0  0  0  0
  197.5776  180.2616  154.8283 C   0  0  0  0  0  0  0  0  0  0  0  0
  196.8277  180.5448  153.7295 N   0  0  0  0  0  0  0  0  0  0  0  0
  197.2188  180.1119  152.5121 C   0  0  0  0  0  0  0  0  0  0  0  0
  198.4105  179.3657  152.3374 C   0  0  0  0  0  0  0  0  0  0  0  0
  199.1978  179.0766  153.4653 C   0  0  0  0  0  0  0  0  0  0  0  0
  198.7843  179.5231  154.7346 C   0  0  0  0  0  0  0  0  0  0  0  0
  199.5634  179.2140  155.8655 N   0  0  0  0  0  0  0  0  0  0  0  0
  200.6005  180.0117  156.4010 C   0  0  0  0  0  0  0  0  0  0  0  0
  200.8557  181.2969  155.8607 C   0  0  0  0  0  0  0  0  0  0  0  0
  201.8826  182.1106  156.3874 C   0  0  0  0  0  0  0  0  0  0  0  0
  202.6621  181.6537  157.4679 C   0  0  0  0  0  0  0  0  0  0  0  0
  202.4181  180.3821  158.0113 C   0  0  0  0  0  0  0  0  0  0  0  0
  201.4076  179.5652  157.4777 C   0  0  0  0  0  0  0  0  0  0  0  0
  199.4217  177.8228  156.3015 C   0  0  1  0  0  0  0  0  0  0  0  0
  200.4007  176.9374  155.6545 C   0  0  0  0  0  0  0  0  0  0  0  0
  201.1665  176.2388  155.1432 N   0  0  0  0  0  0  0  0  0  0  0  0
  198.8096  178.9281  151.0580 C   0  0  0  0  0  0  0  0  0  0  0  0
  198.0244  179.2317  149.9349 C   0  0  0  0  0  0  0  0  0  0  0  0
  196.8345  179.9619  150.0924 C   0  0  0  0  0  0  0  0  0  0  0  0
  196.4377  180.3952  151.3733 C   0  0  0  0  0  0  0  0  0  0  0  0
  196.3091  181.9228  157.9896 C   0  0  1  0  0  0  0  0  0  0  0  0
  196.3837  183.3215  158.5778 C   0  0  0  0  0  0  0  0  0  0  0  0
  197.6307  183.9070  158.8817 C   0  0  0  0  0  0  0  0  0  0  0  0
  197.6981  185.2259  159.3688 C   0  0  0  0  0  0  0  0  0  0  0  0
  196.5147  185.9629  159.5866 C   0  0  0  0  0  0  0  0  0  0  0  0
  195.2681  185.3605  159.3072 C   0  0  0  0  0  0  0  0  0  0  0  0
  195.2008  184.0472  158.8085 C   0  0  0  0  0  0  0  0  0  0  0  0
  196.5764  187.3941  160.0961 C   0  0  1  0  0  0  0  0  0  0  0  0
  195.6693  187.6331  161.3118 C   0  0  2  0  0  0  0  0  0  0  0  0
  197.0195  179.8756  156.7944 H   0  0  0  0  0  0  0  0  0  0  0  0
  200.1105  178.5073  153.3602 H   0  0  0  0  0  0  0  0  0  0  0  0
  200.2693  181.6718  155.0346 H   0  0  0  0  0  0  0  0  0  0  0  0
  202.0769  183.0851  155.9624 H   0  0  0  0  0  0  0  0  0  0  0  0
  203.4507  182.2684  157.8767 H   0  0  0  0  0  0  0  0  0  0  0  0
  203.0096  180.0128  158.8339 H   0  0  0  0  0  0  0  0  0  0  0  0
  201.2867  178.5963  157.9363 H   0  0  0  0  0  0  0  0  0  0  0  0
  199.5458  177.7159  157.3780 H   0  0  0  0  0  0  0  0  0  0  0  0
  198.4209  177.4577  156.0660 H   0  0  0  0  0  0  0  0  0  0  0  0
  199.7278  178.3736  150.9322 H   0  0  0  0  0  0  0  0  0  0  0  0
  198.3401  178.9107  148.9503 H   0  0  0  0  0  0  0  0  0  0  0  0
  196.2392  180.2033  149.2257 H   0  0  0  0  0  0  0  0  0  0  0  0
  195.5334  180.9719  151.4921 H   0  0  0  0  0  0  0  0  0  0  0  0
  195.2849  181.5466  158.0273 H   0  0  0  0  0  0  0  0  0  0  0  0
  196.8889  181.2607  158.6291 H   0  0  0  0  0  0  0  0  0  0  0  0
  198.5430  183.3540  158.7107 H   0  0  0  0  0  0  0  0  0  0  0  0
  198.6607  185.6773  159.5586 H   0  0  0  0  0  0  0  0  0  0  0  0
  194.3510  185.9091  159.4398 H   0  0  0  0  0  0  0  0  0  0  0  0
  194.2369  183.6192  158.5692 H   0  0  0  0  0  0  0  0  0  0  0  0
  197.6014  187.6435  160.3710 H   0  0  0  0  0  0  0  0  0  0  0  0
  196.3042  188.0721  159.2853 H   0  0  0  0  0  0  0  0  0  0  0  0
  195.7680  188.6571  161.6721 H   0  0  0  0  0  0  0  0  0  0  0  0
  195.9352  186.9641  162.1289 H   0  0  0  0  0  0  0  0  0  0  0  0
  194.6178  187.4718  161.0752 H   0  0  0  0  0  0  0  0  0  0  0  0
  1  2  2  0
  2  3  1  0
  2 24  1  0
  3  4  1  0
  3 33  1  0
  4  5  2  0
  4  9  1  0
  5  6  1  0
  6  7  1  0
  6 23  2  0
  7  8  1  0
  7 20  2  0
  8  9  2  0
  8 34  1  0
  9 10  1  0
 10 11  1  0
 10 17  1  0
 11 12  2  0
 11 16  1  0
 12 13  1  0
 12 35  1  0
 13 14  2  0
 13 36  1  0
 14 15  1  0
 14 37  1  0
 15 16  2  0
 15 38  1  0
 16 39  1  0
 17 18  1  0
 17 40  1  1
 17 41  1  0
 18 19  3  0
 20 21  1  0
 20 42  1  0
 21 22  2  0
 21 43  1  0
 22 23  1  0
 22 44  1  0
 23 45  1  0
 24 25  1  0
 24 46  1  6
 24 47  1  0
 25 26  1  0
 25 30  2  0
 26 27  2  0
 26 48  1  0
 27 28  1  0
 27 49  1  0
 28 29  2  0
 28 31  1  0
 29 30  1  0
 29 50  1  0
 30 51  1  0
 31 32  1  0
 31 52  1  1
 31 53  1  0
 32 54  1  1
 32 55  1  0
 32 56  1  0
M  END
>  <s_epik_cmdline>  (338) 
J2VwaWtfcHl0aG9uJywgJy1waCcsICc3LjAwMDAwMCcsICctcGh0JywgJzIuMDAwMDAwJywgJy1tcycsICcxNicsICctdG4nLCAnOCcsICctbWEnLCAnMjAwJywgJy1pbWFlJywgJzxpbmZpbGUubWFlPicsICctb21hZScsICc8b3V0ZmlsZS5tYWU+Jw==

>  <s_epik_input>  (338) 
W2NIXTFbY0hdYyhbQ0gyXVtDSDNdKVtjSF1bY0hdYzFbQ0gyXUMoPU8pW05IXWMobjIpYyhbY0hdYyhjMjMpW2NIXVtjSF1bY0hdW2NIXTMpTihbQ0gyXUMjTiljNFtjSF1bY0hdW2NIXVtjSF1bY0hdNA==

>  <s_i_glide_gridfile>  (338) 
ATP-Grid

>  <s_lp_Force_Field>  (338) 
OPLS_2005

>  <s_lp_Variant>  (338) 
rxn502b____EMOL3891207____EMOL44466703____EMOL712348-1

>  <s_lp_label>  (338) 
2313_sdstereoexpander_1_neutralizer_1_epik_1_stereoizer_1

>  <s_m_source_file>  (338) 
ATP-VSW-LIGPREP-002-in.maegz

>  <s_sd_BIOSOLVEIT.INFINISEE\_QUERY\_NAME>  (338) 
Ref-Lig

>  <s_sd_BIOSOLVEIT.INFINISEE\_QUERY\_SMILES>  (338) 
S(c1nc2c(cc1C[NH2+]Cc3ccc(cc3)C[NH+](C)C)cccc2)Cc4ccccc4

>  <s_sd_BIOSOLVEIT.INFINISEE\_REACTION\_NAME>  (338) 
rxn502b

>  <s_sd_BIOSOLVEIT.INFINISEE\_REAGENT1\_NAME>  (338) 
EMOL3891207

>  <s_sd_BIOSOLVEIT.INFINISEE\_REAGENT1\_SMILES>  (338) 
O=C(O)Cc1ccc(cc1)CC

>  <s_sd_BIOSOLVEIT.INFINISEE\_REAGENT2\_NAME>  (338) 
EMOL44466703

>  <s_sd_BIOSOLVEIT.INFINISEE\_REAGENT2\_SMILES>  (338) 
Brc1c(nc2c(c1)cccc2)N

>  <s_sd_BIOSOLVEIT.INFINISEE\_REAGENT3\_NAME>  (338) 
EMOL712348

>  <s_sd_BIOSOLVEIT.INFINISEE\_REAGENT3\_SMILES>  (338) 
N#CCNc1ccccc1

>  <s_sd_BIOSOLVEIT.INFINISEE\_SPACE>  (338) 
eXplore_7tr_2022-12

>  <s_vsw_compound_code>  (338) 
73986

>  <s_vsw_variant>  (338) 
73986-1

>  <r_epik_Charging_Adjusted_Penalty>  (338) 
0.0025151655266492301

>  <r_epik_Ionization_Penalty>  (338) 
0.0016000000000000001

>  <r_epik_Ionization_Penalty_Charging>  (338) 
0

>  <r_epik_Ionization_Penalty_Neutral>  (338) 
0.0016000000000000001

>  <r_epik_State_Penalty>  (338) 
0.0025000000000000001

>  <r_i_docking_score>  (338) 
-4.7777888721119304

>  <r_i_glide_ecoul>  (338) 
-6.5549330711364702

>  <r_i_glide_eff_state_penalty>  (338) 
0.0025000000000000001

>  <r_i_glide_einternal>  (338) 
7.3480687141418501

>  <r_i_glide_emodel>  (338) 
-54.439584852017397

>  <r_i_glide_energy>  (338) 
-44.171136379241901

>  <r_i_glide_erotb>  (338) 
0.671614451574019

>  <r_i_glide_esite>  (338) 
-0.22035808874785701

>  <r_i_glide_evdw>  (338) 
-37.616203308105497

>  <r_i_glide_gscore>  (338) 
-4.7802888721119396

>  <r_i_glide_hbond>  (338) 
-0.12885321914900599

>  <r_i_glide_ligand_efficiency>  (338) 
-0.14930590225349799

>  <r_i_glide_ligand_efficiency_ln>  (338) 
-1.0698771660716799

>  <r_i_glide_ligand_efficiency_sa>  (338) 
-0.47401669205692198

>  <r_i_glide_lipo>  (338) 
-1.6394056025370101

>  <r_i_glide_metal>  (338) 
-0

>  <r_i_glide_rewards>  (338) 
-0.59923628717633604

>  <r_lp_Energy>  (338) 
26.394753999999999

>  <r_qp_ACxDN^.5/SA>  (338) 
0.0079769000000000003

>  <r_qp_CIQPlogS>  (338) 
-7.8860000000000001

>  <r_qp_EA(eV)>  (338) 
1.1639999999999999

>  <r_qp_FISA>  (338) 
110.06699999999999

>  <r_qp_FOSA>  (338) 
184.09299999999999

>  <r_qp_IP(eV)>  (338) 
8.7029999999999994

>  <r_qp_Jm>  (338) 
0.0054927615377204798

>  <r_qp_PISA>  (338) 
395.33499999999998

>  <r_qp_PSA>  (338) 
71.896000000000001

>  <r_qp_PercentHumanOralAbsorption>  (338) 
100

>  <r_qp_QPPCaco>  (338) 
895.64999999999998

>  <r_qp_QPPMDCK>  (338) 
439.15499999999997

>  <r_qp_QPlogBB>  (338) 
-0.95099999999999996

>  <r_qp_QPlogHERG>  (338) 
-5.9580000000000002

>  <r_qp_QPlogKhsa>  (338) 
0.79300000000000004

>  <r_qp_QPlogKp>  (338) 
-1.387

>  <r_qp_QPlogPC16>  (338) 
14.215999999999999

>  <r_qp_QPlogPo/w>  (338) 
4.9669999999999996

>  <r_qp_QPlogPoct>  (338) 
19.713000000000001

>  <r_qp_QPlogPw>  (338) 
9.9339999999999993

>  <r_qp_QPlogS>  (338) 
-6.4969999999999999

>  <r_qp_QPpolrz>  (338) 
45.213000000000001

>  <r_qp_SASA>  (338) 
689.49400000000003

>  <r_qp_SAamideO>  (338) 
0

>  <r_qp_SAfluorine>  (338) 
0

>  <r_qp_WPSA>  (338) 
0

>  <r_qp_accptHB>  (338) 
5.5

>  <r_qp_dip^2/V>  (338) 
0.0097175000000000004

>  <r_qp_dipole>  (338) 
3.5779999999999998

>  <r_qp_donorHB>  (338) 
1

>  <r_qp_glob>  (338) 
0.84296930000000003

>  <r_qp_mol_MW>  (338) 
420.51299999999998

>  <r_qp_volume>  (338) 
1317.547

>  <r_sd_BIOSOLVEIT.INFINISEE\_FTREES\_SIMILARITY>  (338) 
0.92200000000000004

>  <r_sd_BIOSOLVEIT.LOGP>  (338) 
5.6400800000000002

>  <r_sd_BIOSOLVEIT.MOLECULAR\_WEIGHT>  (338) 
420.51400000000001

>  <r_sd_BIOSOLVEIT.TPSA>  (338) 
69.019999999999996

>  <i_epik_Tot_Q>  (338) 
0

>  <i_epik_Tot_abs_Q>  (338) 
0

>  <i_f3d_flags>  (338) 
0

>  <i_i_glide_confnum>  (338) 
6

>  <i_i_glide_lignum>  (338) 
930

>  <i_i_glide_posenum>  (338) 
20

>  <i_i_glide_rotatable_bonds>  (338) 
8

>  <i_lp_mmshare_version>  (338) 
65135

>  <i_m_ct_format>  (338) 
2

>  <i_m_source_file_index>  (338) 
2313

>  <i_qp_#NandO>  (338) 
5

>  <i_qp_#acid>  (338) 
0

>  <i_qp_#amide>  (338) 
0

>  <i_qp_#amidine>  (338) 
0

>  <i_qp_#amine>  (338) 
0

>  <i_qp_#in34>  (338) 
0

>  <i_qp_#in56>  (338) 
22

>  <i_qp_#metab>  (338) 
5

>  <i_qp_#nonHatm>  (338) 
32

>  <i_qp_#noncon>  (338) 
0

>  <i_qp_#ringatoms>  (338) 
22

>  <i_qp_#rotor>  (338) 
8

>  <i_qp_#rtvFG>  (338) 
0

>  <i_qp_#stars>  (338) 
0

>  <i_qp_CNS>  (338) 
-1

>  <i_qp_HumanOralAbsorption>  (338) 
1

>  <i_qp_RuleOfFive>  (338) 
0

>  <i_qp_RuleOfThree>  (338) 
1

>  <i_sd_BIOSOLVEIT.INFINISEE\_RESULT\_RANK>  (338) 
12884

>  <i_sd_version>  (338) 
0

>  <b_lp_Chiralities_Consistent>  (338) 
1

>  <b_sd_chiral_flag>  (338) 
0

>  <canonical_id>  (338) 
ATP-HTVS-37EC6A305554

>  <compound_code>  (338) 
73986

>  <title>  (338) 
rxn502b____EMOL3891207____EMOL44466703____EMOL712348

>  <variant>  (338) 
73986-1

>  <source_file>  (338) 
运行/运行/ATP-VSW/ATP-VSW-DOCK_HTVS_1-002_lib.maegz

>  <canonical_smiles>  (338) 
CCc1ccc(CC(=O)Nc2nc3ccccc3cc2N(CC#N)c2ccccc2)cc1

>  <scaffold>  (338) 
O=C(Cc1ccccc1)Nc1nc2ccccc2cc1Nc1ccccc1

>  <molecular_formula>  (338) 
C27H24N4O

$$$$
ATP-HTVS-37F8BE6B2288
     RDKit          3D

 62 65  0  0  0  0  0  0  0  0999 V2000
  196.7342  187.9991  160.4457 F   0  0  0  0  0  0  0  0  0  0  0  0
  196.3138  186.7760  160.0568 C   0  0  0  0  0  0  0  0  0  0  0  0
  197.0606  186.0574  159.1051 C   0  0  0  0  0  0  0  0  0  0  0  0
  196.5791  184.8152  158.6034 C   0  0  0  0  0  0  0  0  0  0  0  0
  195.3870  184.2543  159.1501 C   0  0  0  0  0  0  0  0  0  0  0  0
  194.9155  183.0541  158.7522 N   0  0  0  0  0  0  0  0  0  0  0  0
  195.5607  182.3924  157.7697 C   0  0  0  0  0  0  0  0  0  0  0  0
  196.7100  182.8827  157.1130 C   0  0  0  0  0  0  0  0  0  0  0  0
  197.2508  184.1400  157.5503 C   0  0  0  0  0  0  0  0  0  0  0  0
  198.3909  184.7341  156.9490 N   0  0  0  0  0  0  0  0  0  0  0  0
  199.7231  184.3963  157.2901 C   0  0  0  0  0  0  0  0  0  0  0  0
  200.8602  184.8984  156.5903 C   0  0  0  0  0  0  0  0  0  0  0  0
  202.1647  184.5538  156.9930 C   0  0  0  0  0  0  0  0  0  0  0  0
  202.3793  183.6855  158.0789 C   0  0  0  0  0  0  0  0  0  0  0  0
  201.2750  183.1474  158.7640 C   0  0  0  0  0  0  0  0  0  0  0  0
  199.9705  183.5035  158.3733 C   0  0  0  0  0  0  0  0  0  0  0  0
  198.0985  185.6440  155.8104 C   0  0  1  0  0  0  0  0  0  0  0  0
  197.0879  186.6608  156.1113 C   0  0  0  0  0  0  0  0  0  0  0  0
  196.3014  187.4512  156.3639 N   0  0  0  0  0  0  0  0  0  0  0  0
  197.3269  182.0675  155.9966 C   0  0  0  0  0  0  0  0  0  0  0  0
  198.5317  182.0896  155.7815 O   0  0  0  0  0  0  0  0  0  0  0  0
  196.4485  181.4110  155.2076 N   0  0  0  0  0  0  0  0  0  0  0  0
  196.7764  180.8458  153.8982 C   0  0  1  0  0  0  0  0  0  0  0  0
  197.9458  179.8716  153.8509 C   0  0  0  0  0  0  0  0  0  0  0  0
  198.2333  179.0418  154.9584 C   0  0  0  0  0  0  0  0  0  0  0  0
  199.3586  178.1859  154.9351 C   0  0  0  0  0  0  0  0  0  0  0  0
  200.1657  178.1349  153.7775 C   0  0  0  0  0  0  0  0  0  0  0  0
  199.8628  178.9401  152.6611 C   0  0  0  0  0  0  0  0  0  0  0  0
  198.7537  179.8029  152.7000 C   0  0  0  0  0  0  0  0  0  0  0  0
  199.6895  177.3743  156.1654 C   0  0  1  0  0  0  0  0  0  0  0  0
  200.3194  178.1869  157.2326 N   0  0  1  0  0  0  0  0  0  0  0  0
  200.5081  177.4138  158.4709 C   0  0  2  0  0  0  0  0  0  0  0  0
  201.5825  178.8452  156.8052 C   0  0  2  0  0  0  0  0  0  0  0  0
  194.6878  184.9668  160.1392 C   0  0  0  0  0  0  0  0  0  0  0  0
  195.1377  186.2205  160.5930 C   0  0  0  0  0  0  0  0  0  0  0  0
  197.9524  186.5085  158.7145 H   0  0  0  0  0  0  0  0  0  0  0  0
  195.1054  181.4460  157.5050 H   0  0  0  0  0  0  0  0  0  0  0  0
  200.7596  185.5477  155.7323 H   0  0  0  0  0  0  0  0  0  0  0  0
  203.0128  184.9593  156.4697 H   0  0  0  0  0  0  0  0  0  0  0  0
  203.3851  183.4266  158.3860 H   0  0  0  0  0  0  0  0  0  0  0  0
  201.4240  182.4674  159.5885 H   0  0  0  0  0  0  0  0  0  0  0  0
  199.1464  183.0652  158.9151 H   0  0  0  0  0  0  0  0  0  0  0  0
  198.9415  186.2413  155.5063 H   0  0  0  0  0  0  0  0  0  0  0  0
  197.7570  185.0661  154.9504 H   0  0  0  0  0  0  0  0  0  0  0  0
  195.4698  181.4454  155.4520 H   0  0  0  0  0  0  0  0  0  0  0  0
  195.9171  180.3054  153.5119 H   0  0  0  0  0  0  0  0  0  0  0  0
  196.9538  181.6743  153.2083 H   0  0  0  0  0  0  0  0  0  0  0  0
  197.6189  179.0768  155.8405 H   0  0  0  0  0  0  0  0  0  0  0  0
  201.0324  177.4868  153.7529 H   0  0  0  0  0  0  0  0  0  0  0  0
  200.5010  178.9089  151.7877 H   0  0  0  0  0  0  0  0  0  0  0  0
  198.5440  180.4418  151.8473 H   0  0  0  0  0  0  0  0  0  0  0  0
  198.7547  176.9524  156.5390 H   0  0  0  0  0  0  0  0  0  0  0  0
  200.3278  176.5277  155.9004 H   0  0  0  0  0  0  0  0  0  0  0  0
  201.1336  176.5573  158.2732 H   0  0  0  0  0  0  0  0  0  0  0  0
  199.5563  177.0383  158.8484 H   0  0  0  0  0  0  0  0  0  0  0  0
  200.9628  178.0088  159.2623 H   0  0  0  0  0  0  0  0  0  0  0  0
  202.3072  178.0930  156.5036 H   0  0  0  0  0  0  0  0  0  0  0  0
  202.0165  179.4285  157.6157 H   0  0  0  0  0  0  0  0  0  0  0  0
  201.4370  179.5204  155.9654 H   0  0  0  0  0  0  0  0  0  0  0  0
  193.7499  184.5654  160.4916 H   0  0  0  0  0  0  0  0  0  0  0  0
  194.5763  186.7847  161.3238 H   0  0  0  0  0  0  0  0  0  0  0  0
  199.6450  178.9074  157.4474 H   0  0  0  0  0  0  0  0  0  0  0  0
  1  2  1  0
  2  3  1  0
  2 35  2  0
  3  4  2  0
  3 36  1  0
  4  5  1  0
  4  9  1  0
  5  6  1  0
  5 34  2  0
  6  7  2  0
  7  8  1  0
  7 37  1  0
  8  9  2  0
  8 20  1  0
  9 10  1  0
 10 11  1  0
 10 17  1  0
 11 12  2  0
 11 16  1  0
 12 13  1  0
 12 38  1  0
 13 14  2  0
 13 39  1  0
 14 15  1  0
 14 40  1  0
 15 16  2  0
 15 41  1  0
 16 42  1  0
 17 18  1  0
 17 43  1  6
 17 44  1  0
 18 19  3  0
 20 21  2  0
 20 22  1  0
 22 23  1  0
 22 45  1  0
 23 24  1  0
 23 46  1  6
 23 47  1  0
 24 25  2  0
 24 29  1  0
 25 26  1  0
 25 48  1  0
 26 27  2  0
 26 30  1  0
 27 28  1  0
 27 49  1  0
 28 29  2  0
 28 50  1  0
 29 51  1  0
 30 31  1  0
 30 52  1  1
 30 53  1  0
 31 32  1  0
 31 33  1  0
 31 62  1  1
 32 54  1  6
 32 55  1  0
 32 56  1  0
 33 57  1  6
 33 58  1  0
 33 59  1  0
 34 35  1  0
 34 60  1  0
 35 61  1  0
M  CHG  1  31   1
M  END
>  <s_epik_cmdline>  (339) 
J2VwaWtfcHl0aG9uJywgJy1waCcsICc3LjAwMDAwMCcsICctcGh0JywgJzIuMDAwMDAwJywgJy1tcycsICcxNicsICctdG4nLCAnOCcsICctbWEnLCAnMjAwJywgJy1pbWFlJywgJzxpbmZpbGUubWFlPicsICctb21hZScsICc8b3V0ZmlsZS5tYWU+Jw==

>  <s_epik_input>  (339) 
W2NIXTFbY0hdW2NIXVtjSF1bY0hdYzFOKFtDSDJdQyNOKWMyYyhbY0hdbmMoYzIzKVtjSF1bY0hdYyhGKVtjSF0zKUMoPU8pW05IXVtDSDJdYzRbY0hdYyhbY0hdW2NIXVtjSF00KVtDSDJdTihbQ0gzXSlbQ0gzXQ==

>  <s_i_glide_gridfile>  (339) 
ATP-Grid

>  <s_lp_Force_Field>  (339) 
OPLS_2005

>  <s_lp_Variant>  (339) 
rxn512c____EMOL712348____EMOL36725275____EMOL2873214-1

>  <s_lp_label>  (339) 
2155_sdstereoexpander_1_neutralizer_1_epik_1_stereoizer_1

>  <s_m_source_file>  (339) 
ATP-VSW-LIGPREP-001-in.maegz

>  <s_sd_BIOSOLVEIT.INFINISEE\_QUERY\_NAME>  (339) 
Ref-Lig

>  <s_sd_BIOSOLVEIT.INFINISEE\_QUERY\_SMILES>  (339) 
S(c1nc2c(cc1C[NH2+]Cc3ccc(cc3)C[NH+](C)C)cccc2)Cc4ccccc4

>  <s_sd_BIOSOLVEIT.INFINISEE\_REACTION\_NAME>  (339) 
rxn512c

>  <s_sd_BIOSOLVEIT.INFINISEE\_REAGENT1\_NAME>  (339) 
EMOL712348

>  <s_sd_BIOSOLVEIT.INFINISEE\_REAGENT1\_SMILES>  (339) 
N#CCNc1ccccc1

>  <s_sd_BIOSOLVEIT.INFINISEE\_REAGENT2\_NAME>  (339) 
EMOL36725275

>  <s_sd_BIOSOLVEIT.INFINISEE\_REAGENT2\_SMILES>  (339) 
Clc1c2c(ncc1C(=O)O)ccc(F)c2

>  <s_sd_BIOSOLVEIT.INFINISEE\_REAGENT3\_NAME>  (339) 
EMOL2873214

>  <s_sd_BIOSOLVEIT.INFINISEE\_REAGENT3\_SMILES>  (339) 
N(Cc1cc(ccc1)CN)(C)C

>  <s_sd_BIOSOLVEIT.INFINISEE\_SPACE>  (339) 
eXplore_7tr_2022-12

>  <s_vsw_compound_code>  (339) 
68929

>  <s_vsw_variant>  (339) 
68929-1

>  <r_epik_Charging_Adjusted_Penalty>  (339) 
0.090499947298345707

>  <r_epik_Ionization_Penalty>  (339) 
0.045499999999999999

>  <r_epik_Ionization_Penalty_Charging>  (339) 
0.045199999999999997

>  <r_epik_Ionization_Penalty_Neutral>  (339) 
0.00029999999999999997

>  <r_epik_State_Penalty>  (339) 
0.045199999999999997

>  <r_i_docking_score>  (339) 
-5.0475028442724099

>  <r_i_glide_ecoul>  (339) 
-9.7831993103027308

>  <r_i_glide_eff_state_penalty>  (339) 
0.045199999999999997

>  <r_i_glide_einternal>  (339) 
4.4284591674804696

>  <r_i_glide_emodel>  (339) 
-65.440120718394297

>  <r_i_glide_energy>  (339) 
-47.448291778564503

>  <r_i_glide_erotb>  (339) 
0.64379484313282997

>  <r_i_glide_esite>  (339) 
-0.1571559955847

>  <r_i_glide_evdw>  (339) 
-37.665092468261697

>  <r_i_glide_gscore>  (339) 
-5.0927028442724103

>  <r_i_glide_hbond>  (339) 
-0.24649992885055499

>  <r_i_glide_ligand_efficiency>  (339) 
-0.144214366979212

>  <r_i_glide_ligand_efficiency_ln>  (339) 
-1.10803889760777

>  <r_i_glide_ligand_efficiency_sa>  (339) 
-0.47173475671181297

>  <r_i_glide_lipo>  (339) 
-1.28222349279065

>  <r_i_glide_metal>  (339) 
-0

>  <r_i_glide_rewards>  (339) 
-0.69988375022083804

>  <r_lp_Energy>  (339) 
32.683140999999999

>  <r_qp_ACxDN^.5/SA>  (339) 
0.0092569999999999996

>  <r_qp_CIQPlogS>  (339) 
-6.9809999999999999

>  <r_qp_EA(eV)>  (339) 
1.6379999999999999

>  <r_qp_FISA>  (339) 
99.938999999999993

>  <r_qp_FOSA>  (339) 
254.69499999999999

>  <r_qp_IP(eV)>  (339) 
8.5649999999999995

>  <r_qp_Jm>  (339) 
7.6426658109973299e-05

>  <r_qp_PISA>  (339) 
411.28899999999999

>  <r_qp_PSA>  (339) 
75.591999999999999

>  <r_qp_PercentHumanOralAbsorption>  (339) 
100

>  <r_qp_QPPCaco>  (339) 
278.66500000000002

>  <r_qp_QPPMDCK>  (339) 
240.43100000000001

>  <r_qp_QPlogBB>  (339) 
-0.57199999999999995

>  <r_qp_QPlogHERG>  (339) 
-7.806

>  <r_qp_QPlogKhsa>  (339) 
0.76900000000000002

>  <r_qp_QPlogKp>  (339) 
-3.1110000000000002

>  <r_qp_QPlogPC16>  (339) 
15.739000000000001

>  <r_qp_QPlogPo/w>  (339) 
4.9000000000000004

>  <r_qp_QPlogPoct>  (339) 
23.536999999999999

>  <r_qp_QPlogPw>  (339) 
12.029

>  <r_qp_QPlogS>  (339) 
-6.6760000000000002

>  <r_qp_QPpolrz>  (339) 
51.585999999999999

>  <r_qp_SASA>  (339) 
810.20100000000002

>  <r_qp_SAamideO>  (339) 
0

>  <r_qp_SAfluorine>  (339) 
44.279000000000003

>  <r_qp_WPSA>  (339) 
44.279000000000003

>  <r_qp_accptHB>  (339) 
7.5

>  <r_qp_dip^2/V>  (339) 
0.052042199999999997

>  <r_qp_dipole>  (339) 
8.8030000000000008

>  <r_qp_donorHB>  (339) 
1

>  <r_qp_glob>  (339) 
0.77834820000000005

>  <r_qp_mol_MW>  (339) 
467.54500000000002

>  <r_qp_volume>  (339) 
1489.027

>  <r_sd_BIOSOLVEIT.INFINISEE\_FTREES\_SIMILARITY>  (339) 
0.94599999999999995

>  <r_sd_BIOSOLVEIT.LOGP>  (339) 
3.61008

>  <r_sd_BIOSOLVEIT.MOLECULAR\_WEIGHT>  (339) 
468.553

>  <r_sd_BIOSOLVEIT.TPSA>  (339) 
73.459999999999994

>  <i_epik_Tot_Q>  (339) 
1

>  <i_epik_Tot_abs_Q>  (339) 
1

>  <i_f3d_flags>  (339) 
0

>  <i_i_glide_confnum>  (339) 
8

>  <i_i_glide_lignum>  (339) 
677

>  <i_i_glide_posenum>  (339) 
11

>  <i_i_glide_rotatable_bonds>  (339) 
9

>  <i_lp_mmshare_version>  (339) 
65135

>  <i_m_ct_format>  (339) 
2

>  <i_m_source_file_index>  (339) 
2155

>  <i_qp_#NandO>  (339) 
6

>  <i_qp_#acid>  (339) 
0

>  <i_qp_#amide>  (339) 
0

>  <i_qp_#amidine>  (339) 
0

>  <i_qp_#amine>  (339) 
1

>  <i_qp_#in34>  (339) 
0

>  <i_qp_#in56>  (339) 
22

>  <i_qp_#metab>  (339) 
7

>  <i_qp_#nonHatm>  (339) 
35

>  <i_qp_#noncon>  (339) 
0

>  <i_qp_#ringatoms>  (339) 
22

>  <i_qp_#rotor>  (339) 
9

>  <i_qp_#rtvFG>  (339) 
0

>  <i_qp_#stars>  (339) 
1

>  <i_qp_CNS>  (339) 
1

>  <i_qp_HumanOralAbsorption>  (339) 
1

>  <i_qp_RuleOfFive>  (339) 
0

>  <i_qp_RuleOfThree>  (339) 
2

>  <i_sd_BIOSOLVEIT.INFINISEE\_RESULT\_RANK>  (339) 
511

>  <i_sd_version>  (339) 
0

>  <b_lp_Chiralities_Consistent>  (339) 
1

>  <b_sd_chiral_flag>  (339) 
0

>  <canonical_id>  (339) 
ATP-HTVS-37F8BE6B2288

>  <compound_code>  (339) 
68929

>  <title>  (339) 
rxn512c____EMOL712348____EMOL36725275____EMOL2873214

>  <variant>  (339) 
68929-1

>  <source_file>  (339) 
运行/运行/ATP-VSW/ATP-VSW-DOCK_HTVS_1-001_lib/ATP-VSW-DOCK_HTVS_1-001_lib

>  <canonical_smiles>  (339) 
C[NH+](C)Cc1cccc(CNC(=O)c2cnc3ccc(F)cc3c2N(CC#N)c2ccccc2)c1

>  <scaffold>  (339) 
O=C(NCc1ccccc1)c1cnc2ccccc2c1Nc1ccccc1

>  <molecular_formula>  (339) 
C28H27FN5O+

$$$$
ATP-HTVS-381C421540AF
     RDKit          3D

 62 65  0  0  0  0  0  0  0  0999 V2000
  201.0374  176.3464  157.0678 F   0  0  0  0  0  0  0  0  0  0  0  0
  201.7940  176.1269  155.9690 C   0  0  0  0  0  0  0  0  0  0  0  0
  202.0052  177.1552  155.0251 C   0  0  0  0  0  0  0  0  0  0  0  0
  202.8200  176.9072  153.9007 C   0  0  0  0  0  0  0  0  0  0  0  0
  203.4077  175.6402  153.7139 C   0  0  0  0  0  0  0  0  0  0  0  0
  203.1907  174.6126  154.6550 C   0  0  0  0  0  0  0  0  0  0  0  0
  202.3847  174.8653  155.7820 C   0  0  0  0  0  0  0  0  0  0  0  0
  203.8240  173.2470  154.4629 C   0  0  1  0  0  0  0  0  0  0  0  0
  203.4465  172.6411  153.2496 O   0  0  0  0  0  0  0  0  0  0  0  0
  201.3880  178.5277  155.2292 C   0  0  1  0  0  0  0  0  0  0  0  0
  201.9471  179.2329  156.3710 N   0  0  0  0  0  0  0  0  0  0  0  0
  201.5218  180.5225  156.7230 C   0  0  0  0  0  0  0  0  0  0  0  0
  200.6866  181.1729  155.8806 N   0  0  0  0  0  0  0  0  0  0  0  0
  200.3198  182.4042  156.2116 C   0  0  0  0  0  0  0  0  0  0  0  0
  200.6907  183.0798  157.2959 N   0  0  0  0  0  0  0  0  0  0  0  0
  201.4980  182.4546  158.1723 C   0  0  0  0  0  0  0  0  0  0  0  0
  201.9639  181.1413  157.9182 C   0  0  0  0  0  0  0  0  0  0  0  0
  202.8277  180.5056  158.8395 C   0  0  0  0  0  0  0  0  0  0  0  0
  203.2127  181.1659  160.0203 C   0  0  0  0  0  0  0  0  0  0  0  0
  202.7453  182.4658  160.2841 C   0  0  0  0  0  0  0  0  0  0  0  0
  201.8943  183.1035  159.3584 C   0  0  0  0  0  0  0  0  0  0  0  0
  199.4675  183.0179  155.3156 N   0  0  0  0  0  0  0  0  0  0  0  0
  198.7464  184.2633  155.5515 C   0  0  1  0  0  0  0  0  0  0  0  0
  197.9183  184.3041  156.8276 C   0  0  0  0  0  0  0  0  0  0  0  0
  197.0734  183.2268  157.1650 C   0  0  0  0  0  0  0  0  0  0  0  0
  196.3413  183.2491  158.3688 C   0  0  0  0  0  0  0  0  0  0  0  0
  196.4648  184.3538  159.2397 C   0  0  0  0  0  0  0  0  0  0  0  0
  195.7429  184.4069  160.3856 F   0  0  0  0  0  0  0  0  0  0  0  0
  197.2983  185.4349  158.8996 C   0  0  0  0  0  0  0  0  0  0  0  0
  198.0250  185.4110  157.6954 C   0  0  0  0  0  0  0  0  0  0  0  0
  195.4009  182.0993  158.7010 C   0  0  1  0  0  0  0  0  0  0  0  0
  194.0340  182.3066  158.1530 N   0  0  2  0  0  0  0  0  0  0  0  0
  193.3675  183.5362  158.6383 C   0  0  2  0  0  0  0  0  0  0  0  0
  193.1685  181.1083  158.2888 C   0  0  2  0  0  0  0  0  0  0  0  0
  202.9946  177.6874  153.1767 H   0  0  0  0  0  0  0  0  0  0  0  0
  204.0243  175.4543  152.8467 H   0  0  0  0  0  0  0  0  0  0  0  0
  202.2265  174.0958  156.5179 H   0  0  0  0  0  0  0  0  0  0  0  0
  204.9104  173.3437  154.4653 H   0  0  0  0  0  0  0  0  0  0  0  0
  203.5600  172.5772  155.2852 H   0  0  0  0  0  0  0  0  0  0  0  0
  203.5395  171.6764  153.3760 H   0  0  0  0  0  0  0  0  0  0  0  0
  201.5404  179.1357  154.3341 H   0  0  0  0  0  0  0  0  0  0  0  0
  200.3097  178.4172  155.3673 H   0  0  0  0  0  0  0  0  0  0  0  0
  202.6170  178.7338  156.9454 H   0  0  0  0  0  0  0  0  0  0  0  0
  203.1957  179.5099  158.6453 H   0  0  0  0  0  0  0  0  0  0  0  0
  203.8689  180.6742  160.7264 H   0  0  0  0  0  0  0  0  0  0  0  0
  203.0436  182.9800  161.1868 H   0  0  0  0  0  0  0  0  0  0  0  0
  201.5371  184.1027  159.5530 H   0  0  0  0  0  0  0  0  0  0  0  0
  199.2081  182.4582  154.5181 H   0  0  0  0  0  0  0  0  0  0  0  0
  199.4646  185.0855  155.5523 H   0  0  0  0  0  0  0  0  0  0  0  0
  198.0709  184.4366  154.7122 H   0  0  0  0  0  0  0  0  0  0  0  0
  196.9926  182.3779  156.4977 H   0  0  0  0  0  0  0  0  0  0  0  0
  197.3649  186.2891  159.5580 H   0  0  0  0  0  0  0  0  0  0  0  0
  198.6796  186.2347  157.4531 H   0  0  0  0  0  0  0  0  0  0  0  0
  195.8485  181.1872  158.3112 H   0  0  0  0  0  0  0  0  0  0  0  0
  195.3468  181.9541  159.7779 H   0  0  0  0  0  0  0  0  0  0  0  0
  193.2700  183.5458  159.7229 H   0  0  0  0  0  0  0  0  0  0  0  0
  192.3754  183.6112  158.1991 H   0  0  0  0  0  0  0  0  0  0  0  0
  193.9084  184.4416  158.3597 H   0  0  0  0  0  0  0  0  0  0  0  0
  193.0262  180.8339  159.3337 H   0  0  0  0  0  0  0  0  0  0  0  0
  193.5879  180.2466  157.7668 H   0  0  0  0  0  0  0  0  0  0  0  0
  192.1902  181.2944  157.8340 H   0  0  0  0  0  0  0  0  0  0  0  0
  194.1000  182.4413  157.1319 H   0  0  0  0  0  0  0  0  0  0  0  0
  1  2  1  0
  2  3  2  0
  2  7  1  0
  3  4  1  0
  3 10  1  0
  4  5  2  0
  4 35  1  0
  5  6  1  0
  5 36  1  0
  6  7  2  0
  6  8  1  0
  7 37  1  0
  8  9  1  0
  8 38  1  6
  8 39  1  0
  9 40  1  0
 10 11  1  0
 10 41  1  6
 10 42  1  0
 11 12  1  0
 11 43  1  0
 12 13  1  0
 12 17  2  0
 13 14  2  0
 14 15  1  0
 14 22  1  0
 15 16  2  0
 16 17  1  0
 16 21  1  0
 17 18  1  0
 18 19  2  0
 18 44  1  0
 19 20  1  0
 19 45  1  0
 20 21  2  0
 20 46  1  0
 21 47  1  0
 22 23  1  0
 22 48  1  0
 23 24  1  0
 23 49  1  1
 23 50  1  0
 24 25  2  0
 24 30  1  0
 25 26  1  0
 25 51  1  0
 26 27  2  0
 26 31  1  0
 27 28  1  0
 27 29  1  0
 29 30  2  0
 29 52  1  0
 30 53  1  0
 31 32  1  0
 31 54  1  6
 31 55  1  0
 32 33  1  0
 32 34  1  0
 32 62  1  6
 33 56  1  1
 33 57  1  0
 33 58  1  0
 34 59  1  1
 34 60  1  0
 34 61  1  0
M  CHG  1  32   1
M  END
>  <s_epik_cmdline>  (340) 
J2VwaWtfcHl0aG9uJywgJy1waCcsICc3LjAwMDAwMCcsICctcGh0JywgJzIuMDAwMDAwJywgJy1tcycsICcxNicsICctdG4nLCAnOCcsICctbWEnLCAnMjAwJywgJy1pbWFlJywgJzxpbmZpbGUubWFlPicsICctb21hZScsICc8b3V0ZmlsZS5tYWU+Jw==

>  <s_epik_input>  (340) 
W09IXVtDSDJdYyhbY0hdMSlbY0hdW2NIXWMoYzFGKVtDSDJdW05IXWMoYyhjMjMpW2NIXVtjSF1bY0hdW2NIXTMpbmMobjIpW05IXVtDSDJdYzRbY0hdYyhjKEYpW2NIXVtjSF00KVtDSDJdTihbQ0gzXSlbQ0gzXQ==

>  <s_i_glide_gridfile>  (340) 
ATP-Grid

>  <s_lp_Force_Field>  (340) 
OPLS_2005

>  <s_lp_Variant>  (340) 
m_282030aaa____21893406____22360182____21968946-3

>  <s_lp_label>  (340) 
2102_sdstereoexpander_1_neutralizer_1_epik_3_stereoizer_1

>  <s_m_source_file>  (340) 
ATP-VSW-LIGPREP-002-in.maegz

>  <s_sd_BIOSOLVEIT.INFINISEE\_QUERY\_NAME>  (340) 
Ref-Lig

>  <s_sd_BIOSOLVEIT.INFINISEE\_QUERY\_SMILES>  (340) 
S(c1nc2c(cc1C[NH2+]Cc3ccc(cc3)C[NH+](C)C)cccc2)Cc4ccccc4

>  <s_sd_BIOSOLVEIT.INFINISEE\_REACTION\_NAME>  (340) 
m_282030aaa

>  <s_sd_BIOSOLVEIT.INFINISEE\_REAGENT1\_SMILES>  (340) 
[R1*]NCc1c(F)cc(cc1)CO

>  <s_sd_BIOSOLVEIT.INFINISEE\_REAGENT2\_SMILES>  (340) 
[R2*]c1nc([R1*])c2c(n1)cccc2

>  <s_sd_BIOSOLVEIT.INFINISEE\_REAGENT3\_SMILES>  (340) 
[R2*]NCc1cc(c(F)cc1)CN(C)C

>  <s_sd_BIOSOLVEIT.INFINISEE\_SPACE>  (340) 
REALSpace_44bn_2023-08

>  <s_vsw_compound_code>  (340) 
67234

>  <s_vsw_variant>  (340) 
67234-3

>  <r_epik_Charging_Adjusted_Penalty>  (340) 
2.2337642006295599

>  <r_epik_Ionization_Penalty>  (340) 
2.4159999999999999

>  <r_epik_Ionization_Penalty_Charging>  (340) 
0.0516

>  <r_epik_Ionization_Penalty_Neutral>  (340) 
2.3645

>  <r_epik_State_Penalty>  (340) 
2.1821999999999999

>  <r_i_docking_score>  (340) 
-4.0956765545295202

>  <r_i_glide_ecoul>  (340) 
-17.996555328369102

>  <r_i_glide_eff_state_penalty>  (340) 
2.1821999999999999

>  <r_i_glide_einternal>  (340) 
1.0147498846054099

>  <r_i_glide_emodel>  (340) 
-77.008782347860205

>  <r_i_glide_energy>  (340) 
-49.276653289794901

>  <r_i_glide_erotb>  (340) 
0.74740309797938598

>  <r_i_glide_esite>  (340) 
-0.122322075348429

>  <r_i_glide_evdw>  (340) 
-31.280097961425799

>  <r_i_glide_gscore>  (340) 
-6.2778765545295201

>  <r_i_glide_hbond>  (340) 
-0.65600000000000003

>  <r_i_glide_ligand_efficiency>  (340) 
-0.120461075133221

>  <r_i_glide_ligand_efficiency_ln>  (340) 
-0.90484983073168701

>  <r_i_glide_ligand_efficiency_sa>  (340) 
-0.39024712013744001

>  <r_i_glide_lipo>  (340) 
-1.2289647677289299

>  <r_i_glide_metal>  (340) 
-0

>  <r_i_glide_rewards>  (340) 
-0.75450461210489095

>  <r_lp_Energy>  (340) 
15.528752000000001

>  <r_qp_ACxDN^.5/SA>  (340) 
0.014109500000000001

>  <r_qp_CIQPlogS>  (340) 
-6.0759999999999996

>  <r_qp_EA(eV)>  (340) 
0.56000000000000005

>  <r_qp_FISA>  (340) 
88.664000000000001

>  <r_qp_FOSA>  (340) 
294.64999999999998

>  <r_qp_IP(eV)>  (340) 
8.0009999999999994

>  <r_qp_Jm>  (340) 
0.00060030835612168403

>  <r_qp_PISA>  (340) 
372.48599999999999

>  <r_qp_PSA>  (340) 
70.185000000000002

>  <r_qp_PercentHumanOralAbsorption>  (340) 
100

>  <r_qp_QPPCaco>  (340) 
356.45100000000002

>  <r_qp_QPPMDCK>  (340) 
416.15800000000002

>  <r_qp_QPlogBB>  (340) 
-0.49099999999999999

>  <r_qp_QPlogHERG>  (340) 
-7.8630000000000004

>  <r_qp_QPlogKhsa>  (340) 
0.753

>  <r_qp_QPlogKp>  (340) 
-2.944

>  <r_qp_QPlogPC16>  (340) 
15.707000000000001

>  <r_qp_QPlogPo/w>  (340) 
4.96

>  <r_qp_QPlogPoct>  (340) 
25.294

>  <r_qp_QPlogPw>  (340) 
13.646000000000001

>  <r_qp_QPlogS>  (340) 
-5.944

>  <r_qp_QPpolrz>  (340) 
50.185000000000002

>  <r_qp_SASA>  (340) 
822.47799999999995

>  <r_qp_SAamideO>  (340) 
0

>  <r_qp_SAfluorine>  (340) 
66.677999999999997

>  <r_qp_WPSA>  (340) 
66.677999999999997

>  <r_qp_accptHB>  (340) 
6.7000000000000002

>  <r_qp_dip^2/V>  (340) 
0.044325400000000001

>  <r_qp_dipole>  (340) 
8.0980000000000008

>  <r_qp_donorHB>  (340) 
3

>  <r_qp_glob>  (340) 
0.76340079999999999

>  <r_qp_mol_MW>  (340) 
463.529

>  <r_qp_volume>  (340) 
1479.3399999999999

>  <r_sd_BIOSOLVEIT.INFINISEE\_FTREES\_SIMILARITY>  (340) 
0.90100000000000002

>  <r_sd_BIOSOLVEIT.LOGP>  (340) 
3.2690000000000001

>  <r_sd_BIOSOLVEIT.MOLECULAR\_WEIGHT>  (340) 
464.53699999999998

>  <r_sd_BIOSOLVEIT.TPSA>  (340) 
74.510000000000005

>  <i_epik_Tot_Q>  (340) 
1

>  <i_epik_Tot_abs_Q>  (340) 
1

>  <i_f3d_flags>  (340) 
0

>  <i_i_glide_confnum>  (340) 
10

>  <i_i_glide_lignum>  (340) 
756

>  <i_i_glide_posenum>  (340) 
3

>  <i_i_glide_rotatable_bonds>  (340) 
10

>  <i_lp_mmshare_version>  (340) 
65135

>  <i_m_ct_format>  (340) 
2

>  <i_m_source_file_index>  (340) 
2102

>  <i_qp_#NandO>  (340) 
6

>  <i_qp_#acid>  (340) 
0

>  <i_qp_#amide>  (340) 
0

>  <i_qp_#amidine>  (340) 
0

>  <i_qp_#amine>  (340) 
1

>  <i_qp_#in34>  (340) 
0

>  <i_qp_#in56>  (340) 
22

>  <i_qp_#metab>  (340) 
5

>  <i_qp_#nonHatm>  (340) 
34

>  <i_qp_#noncon>  (340) 
0

>  <i_qp_#ringatoms>  (340) 
22

>  <i_qp_#rotor>  (340) 
10

>  <i_qp_#rtvFG>  (340) 
0

>  <i_qp_#stars>  (340) 
0

>  <i_qp_CNS>  (340) 
0

>  <i_qp_HumanOralAbsorption>  (340) 
3

>  <i_qp_RuleOfFive>  (340) 
0

>  <i_qp_RuleOfThree>  (340) 
1

>  <i_sd_BIOSOLVEIT.INFINISEE\_REAGENT1\_NAME>  (340) 
21893406

>  <i_sd_BIOSOLVEIT.INFINISEE\_REAGENT2\_NAME>  (340) 
22360182

>  <i_sd_BIOSOLVEIT.INFINISEE\_REAGENT3\_NAME>  (340) 
21968946

>  <i_sd_BIOSOLVEIT.INFINISEE\_RESULT\_RANK>  (340) 
97394

>  <i_sd_version>  (340) 
0

>  <b_lp_Chiralities_Consistent>  (340) 
1

>  <b_sd_chiral_flag>  (340) 
0

>  <canonical_id>  (340) 
ATP-HTVS-381C421540AF

>  <compound_code>  (340) 
67234

>  <title>  (340) 
m_282030aaa____21893406____22360182____21968946

>  <variant>  (340) 
67234-3

>  <source_file>  (340) 
运行/运行/ATP-VSW/ATP-VSW-DOCK_HTVS_1-002_lib.maegz

>  <canonical_smiles>  (340) 
C[NH+](C)Cc1cc(CNc2nc(NCc3ccc(CO)cc3F)c3ccccc3n2)ccc1F

>  <scaffold>  (340) 
c1ccc(CNc2nc(NCc3ccccc3)c3ccccc3n2)cc1

>  <molecular_formula>  (340) 
C26H28F2N5O+

$$$$
ATP-HTVS-38928739B049
     RDKit          3D

 45 48  0  0  0  0  0  0  0  0999 V2000
  202.1790  184.7814  156.8515 Cl  0  0  0  0  0  0  0  0  0  0  0  0
  202.2112  183.8918  158.3375 C   0  0  0  0  0  0  0  0  0  0  0  0
  203.3883  183.1924  158.6826 C   0  0  0  0  0  0  0  0  0  0  0  0
  204.4309  183.1310  157.8103 F   0  0  0  0  0  0  0  0  0  0  0  0
  203.4733  182.5359  159.9309 C   0  0  0  0  0  0  0  0  0  0  0  0
  202.4116  182.6031  160.8582 C   0  0  0  0  0  0  0  0  0  0  0  0
  201.2404  183.2824  160.4968 C   0  0  0  0  0  0  0  0  0  0  0  0
  201.1267  183.9216  159.2453 C   0  0  0  0  0  0  0  0  0  0  0  0
  199.8964  184.7557  158.9908 C   0  0  1  0  0  0  0  0  0  0  0  0
  199.1684  184.4710  157.7583 N   0  0  0  0  0  0  0  0  0  0  0  0
  198.0211  185.3857  157.5697 C   0  0  2  0  0  0  0  0  0  0  0  0
  198.4052  186.8817  157.7113 C   0  0  0  0  0  0  0  0  0  0  0  0
  198.3612  187.8125  156.6386 C   0  0  0  0  0  0  0  0  0  0  0  0
  197.9758  187.4073  155.4001 F   0  0  0  0  0  0  0  0  0  0  0  0
  198.6989  189.1820  156.8455 C   0  0  0  0  0  0  0  0  0  0  0  0
  199.1057  189.6397  158.1244 C   0  0  0  0  0  0  0  0  0  0  0  0
  199.1424  188.7166  159.1943 C   0  0  0  0  0  0  0  0  0  0  0  0
  198.7655  187.3890  158.9929 C   0  0  0  0  0  0  0  0  0  0  0  0
  196.7549  185.0026  158.3585 C   0  0  0  0  0  0  0  0  0  0  0  0
  196.0605  183.7861  158.0599 C   0  0  0  0  0  0  0  0  0  0  0  0
  196.4928  182.8933  157.0200 N   0  0  0  0  0  0  0  0  0  0  0  0
  197.7557  182.5438  156.7472 C   0  0  0  0  0  0  0  0  0  0  0  0
  198.0529  181.8302  155.7797 O   0  0  0  0  0  0  0  0  0  0  0  0
  198.8615  183.0143  157.7041 C   0  0  1  0  0  0  0  0  0  0  0  0
  194.8714  183.4607  158.7457 C   0  0  0  0  0  0  0  0  0  0  0  0
  194.3737  184.2976  159.7655 C   0  0  0  0  0  0  0  0  0  0  0  0
  195.0704  185.4970  160.0595 C   0  0  0  0  0  0  0  0  0  0  0  0
  194.5136  186.5431  161.3096 Cl  0  0  0  0  0  0  0  0  0  0  0  0
  196.2098  185.8819  159.3438 C   0  0  0  0  0  0  0  0  0  0  0  0
  204.3516  181.9608  160.1775 H   0  0  0  0  0  0  0  0  0  0  0  0
  202.4580  182.1186  161.8295 H   0  0  0  0  0  0  0  0  0  0  0  0
  200.4567  183.3717  161.2268 H   0  0  0  0  0  0  0  0  0  0  0  0
  199.2024  184.7015  159.8343 H   0  0  0  0  0  0  0  0  0  0  0  0
  200.2788  185.7765  158.9828 H   0  0  0  0  0  0  0  0  0  0  0  0
  197.7645  185.2575  156.5221 H   0  0  0  0  0  0  0  0  0  0  0  0
  198.6401  189.8835  156.0075 H   0  0  0  0  0  0  0  0  0  0  0  0
  199.3833  190.6870  158.2935 H   0  0  0  0  0  0  0  0  0  0  0  0
  199.4255  189.0399  160.1859 H   0  0  0  0  0  0  0  0  0  0  0  0
  198.8273  186.6897  159.8421 H   0  0  0  0  0  0  0  0  0  0  0  0
  195.7553  182.4334  156.4841 H   0  0  0  0  0  0  0  0  0  0  0  0
  199.7679  182.4642  157.4577 H   0  0  0  0  0  0  0  0  0  0  0  0
  198.5620  182.6651  158.6946 H   0  0  0  0  0  0  0  0  0  0  0  0
  194.3197  182.5677  158.4842 H   0  0  0  0  0  0  0  0  0  0  0  0
  193.4356  184.1003  160.2962 H   0  0  0  0  0  0  0  0  0  0  0  0
  196.6472  186.8449  159.5905 H   0  0  0  0  0  0  0  0  0  0  0  0
  1  2  1  0
  2  3  2  0
  2  8  1  0
  3  4  1  0
  3  5  1  0
  5  6  2  0
  5 30  1  0
  6  7  1  0
  6 31  1  0
  7  8  2  0
  7 32  1  0
  8  9  1  0
  9 10  1  0
  9 33  1  1
  9 34  1  0
 10 11  1  0
 10 24  1  0
 11 12  1  0
 11 19  1  0
 11 35  1  6
 12 13  1  0
 12 18  2  0
 13 14  1  0
 13 15  2  0
 15 16  1  0
 15 36  1  0
 16 17  2  0
 16 37  1  0
 17 18  1  0
 17 38  1  0
 18 39  1  0
 19 20  2  0
 19 29  1  0
 20 21  1  0
 20 25  1  0
 21 22  1  0
 21 40  1  0
 22 23  2  0
 22 24  1  0
 24 41  1  6
 24 42  1  0
 25 26  2  0
 25 43  1  0
 26 27  1  0
 26 44  1  0
 27 28  1  0
 27 29  2  0
 29 45  1  0
M  END
>  <s_epik_cmdline>  (341) 
J2VwaWtfcHl0aG9uJywgJy1waCcsICc3LjAwMDAwMCcsICctcGh0JywgJzIuMDAwMDAwJywgJy1tcycsICcxNicsICctdG4nLCAnOCcsICctbWEnLCAnMjAwJywgJy1pbWFlJywgJzxpbmZpbGUubWFlPicsICctb21hZScsICc8b3V0ZmlsZS5tYWU+Jw==

>  <s_epik_input>  (341) 
Q2xjMWMoRilbY0hdW2NIXVtjSF1jMVtDSDJdTihbQ0BASF0yYzNjKEYpW2NIXVtjSF1bY0hdW2NIXTMpW0NIMl1DKD1PKVtOSF1jKGMyNClbY0hdW2NIXWMoQ2wpW2NIXTQ=

>  <s_i_glide_gridfile>  (341) 
ATP-Grid

>  <s_lp_Force_Field>  (341) 
OPLS_2005

>  <s_lp_Variant>  (341) 
m_2230bdc____14772912____8254050-2

>  <s_lp_label>  (341) 
1556_sdstereoexpander_3_neutralizer_1_epik_1_stereoizer_1

>  <s_m_source_file>  (341) 
ATP-VSW-LIGPREP-003-in.maegz

>  <s_sd_BIOSOLVEIT.INFINISEE\_QUERY\_NAME>  (341) 
Ref-Lig

>  <s_sd_BIOSOLVEIT.INFINISEE\_QUERY\_SMILES>  (341) 
S(c1nc2c(cc1C[NH2+]Cc3ccc(cc3)C[NH+](C)C)cccc2)Cc4ccccc4

>  <s_sd_BIOSOLVEIT.INFINISEE\_REACTION\_NAME>  (341) 
m_2230bdc

>  <s_sd_BIOSOLVEIT.INFINISEE\_REAGENT1\_SMILES>  (341) 
[R1*]N1C(c2c(F)cccc2)c3c(NC(=O)C1)ccc(Cl)c3

>  <s_sd_BIOSOLVEIT.INFINISEE\_REAGENT2\_SMILES>  (341) 
[R1*]Cc1c(Cl)c(F)ccc1

>  <s_sd_BIOSOLVEIT.INFINISEE\_SPACE>  (341) 
REALSpace_44bn_2023-08

>  <s_vsw_compound_code>  (341) 
49763

>  <s_vsw_variant>  (341) 
49763-2

>  <r_epik_Charging_Adjusted_Penalty>  (341) 
0.0045720550350946999

>  <r_epik_Ionization_Penalty>  (341) 
0.0045999999999999999

>  <r_epik_Ionization_Penalty_Charging>  (341) 
0

>  <r_epik_Ionization_Penalty_Neutral>  (341) 
0.0045999999999999999

>  <r_epik_State_Penalty>  (341) 
0.0045999999999999999

>  <r_i_docking_score>  (341) 
-1.7534710664753801

>  <r_i_glide_ecoul>  (341) 
-1.30769956111908

>  <r_i_glide_eff_state_penalty>  (341) 
0.0045999999999999999

>  <r_i_glide_einternal>  (341) 
0.74359178543090798

>  <r_i_glide_emodel>  (341) 
-35.2024452550815

>  <r_i_glide_energy>  (341) 
-31.835617423057599

>  <r_i_glide_erotb>  (341) 
0.318103201506231

>  <r_i_glide_esite>  (341) 
-0.084151037465908005

>  <r_i_glide_evdw>  (341) 
-30.527917861938501

>  <r_i_glide_gscore>  (341) 
-1.75807106647538

>  <r_i_glide_hbond>  (341) 
-0.0323274914236968

>  <r_i_glide_ligand_efficiency>  (341) 
-0.060464519533633701

>  <r_i_glide_ligand_efficiency_ln>  (341) 
-0.401500410033091

>  <r_i_glide_ligand_efficiency_sa>  (341) 
-0.18576616051168299

>  <r_i_glide_lipo>  (341) 
-1.8646348860372499

>  <r_i_glide_metal>  (341) 
-0

>  <r_i_glide_rewards>  (341) 
1.6274899742100299

>  <r_lp_Energy>  (341) 
54.895198000000001

>  <r_qp_ACxDN^.5/SA>  (341) 
0.0070992

>  <r_qp_CIQPlogS>  (341) 
-6.1369999999999996

>  <r_qp_EA(eV)>  (341) 
0.54400000000000004

>  <r_qp_FISA>  (341) 
67.536000000000001

>  <r_qp_FOSA>  (341) 
35.25

>  <r_qp_IP(eV)>  (341) 
9.4770000000000003

>  <r_qp_Jm>  (341) 
0.00070548951383952096

>  <r_qp_PISA>  (341) 
354.911

>  <r_qp_PSA>  (341) 
42.646000000000001

>  <r_qp_PercentHumanOralAbsorption>  (341) 
100

>  <r_qp_QPPCaco>  (341) 
565.39599999999996

>  <r_qp_QPPMDCK>  (341) 
2726.6700000000001

>  <r_qp_QPlogBB>  (341) 
0.64200000000000002

>  <r_qp_QPlogHERG>  (341) 
-6.4729999999999999

>  <r_qp_QPlogKhsa>  (341) 
0.83099999999999996

>  <r_qp_QPlogKp>  (341) 
-3.3849999999999998

>  <r_qp_QPlogPC16>  (341) 
12.507999999999999

>  <r_qp_QPlogPo/w>  (341) 
4.8049999999999997

>  <r_qp_QPlogPoct>  (341) 
19.088999999999999

>  <r_qp_QPlogPw>  (341) 
9.6359999999999992

>  <r_qp_QPlogS>  (341) 
-5.4039999999999999

>  <r_qp_QPpolrz>  (341) 
42.526000000000003

>  <r_qp_SASA>  (341) 
633.87199999999996

>  <r_qp_SAamideO>  (341) 
0

>  <r_qp_SAfluorine>  (341) 
72.061999999999998

>  <r_qp_WPSA>  (341) 
176.17400000000001

>  <r_qp_accptHB>  (341) 
4.5

>  <r_qp_dip^2/V>  (341) 
0.017932900000000002

>  <r_qp_dipole>  (341) 
4.5679999999999996

>  <r_qp_donorHB>  (341) 
1

>  <r_qp_glob>  (341) 
0.84414149999999999

>  <r_qp_mol_MW>  (341) 
433.28399999999999

>  <r_qp_volume>  (341) 
1163.798

>  <r_sd_BIOSOLVEIT.INFINISEE\_FTREES\_SIMILARITY>  (341) 
0.90600000000000003

>  <r_sd_BIOSOLVEIT.LOGP>  (341) 
4.3982000000000001

>  <r_sd_BIOSOLVEIT.MOLECULAR\_WEIGHT>  (341) 
434.291

>  <r_sd_BIOSOLVEIT.TPSA>  (341) 
33.539999999999999

>  <i_epik_Tot_Q>  (341) 
0

>  <i_epik_Tot_abs_Q>  (341) 
0

>  <i_f3d_flags>  (341) 
0

>  <i_i_glide_confnum>  (341) 
3

>  <i_i_glide_lignum>  (341) 
597

>  <i_i_glide_posenum>  (341) 
17

>  <i_i_glide_rotatable_bonds>  (341) 
3

>  <i_lp_mmshare_version>  (341) 
65135

>  <i_m_ct_format>  (341) 
2

>  <i_m_source_file_index>  (341) 
1556

>  <i_qp_#NandO>  (341) 
3

>  <i_qp_#acid>  (341) 
0

>  <i_qp_#amide>  (341) 
0

>  <i_qp_#amidine>  (341) 
0

>  <i_qp_#amine>  (341) 
1

>  <i_qp_#in34>  (341) 
0

>  <i_qp_#in56>  (341) 
18

>  <i_qp_#metab>  (341) 
6

>  <i_qp_#nonHatm>  (341) 
29

>  <i_qp_#noncon>  (341) 
2

>  <i_qp_#ringatoms>  (341) 
23

>  <i_qp_#rotor>  (341) 
2

>  <i_qp_#rtvFG>  (341) 
0

>  <i_qp_#stars>  (341) 
1

>  <i_qp_CNS>  (341) 
2

>  <i_qp_HumanOralAbsorption>  (341) 
3

>  <i_qp_RuleOfFive>  (341) 
0

>  <i_qp_RuleOfThree>  (341) 
0

>  <i_sd_BIOSOLVEIT.INFINISEE\_REAGENT1\_NAME>  (341) 
14772912

>  <i_sd_BIOSOLVEIT.INFINISEE\_REAGENT2\_NAME>  (341) 
8254050

>  <i_sd_BIOSOLVEIT.INFINISEE\_RESULT\_RANK>  (341) 
62774

>  <i_sd_version>  (341) 
0

>  <b_lp_Chiralities_Consistent>  (341) 
1

>  <b_sd_chiral_flag>  (341) 
0

>  <canonical_id>  (341) 
ATP-HTVS-38928739B049

>  <compound_code>  (341) 
49763

>  <title>  (341) 
m_2230bdc____14772912____8254050

>  <variant>  (341) 
49763-2

>  <source_file>  (341) 
运行/运行/ATP-VSW/ATP-VSW-DOCK_HTVS_1-003_lib/ATP-VSW-DOCK_HTVS_1-003_lib.mae

>  <canonical_smiles>  (341) 
O=C1CN(Cc2cccc(F)c2Cl)[C@H](c2ccccc2F)c2cc(Cl)ccc2N1

>  <scaffold>  (341) 
O=C1CN(Cc2ccccc2)C(c2ccccc2)c2ccccc2N1

>  <molecular_formula>  (341) 
C22H16Cl2F2N2O

$$$$
ATP-HTVS-389B4B823B19
     RDKit          3D

 54 57  0  0  0  0  0  0  0  0999 V2000
  196.1907  183.7585  150.6574 Cl  0  0  0  0  0  0  0  0  0  0  0  0
  197.3811  182.6483  150.0864 C   0  0  0  0  0  0  0  0  0  0  0  0
  197.7445  181.4603  150.7835 C   0  0  0  0  0  0  0  0  0  0  0  0
  198.5865  180.5253  150.1275 C   0  0  0  0  0  0  0  0  0  0  0  0
  198.9305  179.3563  150.7263 F   0  0  0  0  0  0  0  0  0  0  0  0
  199.0890  180.7953  148.8385 C   0  0  0  0  0  0  0  0  0  0  0  0
  198.7770  182.0048  148.1901 C   0  0  0  0  0  0  0  0  0  0  0  0
  197.9338  182.9310  148.8261 C   0  0  0  0  0  0  0  0  0  0  0  0
  199.3090  182.2887  146.8008 C   0  0  2  0  0  0  0  0  0  0  0  0
  197.2487  181.1514  152.1741 C   0  0  0  0  0  0  0  0  0  0  0  0
  196.7059  180.0732  152.4197 O   0  0  0  0  0  0  0  0  0  0  0  0
  197.4876  182.1166  153.0814 N   0  0  0  0  0  0  0  0  0  0  0  0
  197.2277  182.1414  154.4871 C   0  0  0  0  0  0  0  0  0  0  0  0
  197.3863  183.3562  155.2095 C   0  0  0  0  0  0  0  0  0  0  0  0
  197.7897  184.5419  154.5699 N   0  0  0  0  0  0  0  0  0  0  0  0
  199.2094  184.9196  154.6115 C   0  0  1  0  0  0  0  0  0  0  0  0
  200.0060  184.0589  153.7188 C   0  0  0  0  0  0  0  0  0  0  0  0
  200.6160  183.3817  153.0055 N   0  0  0  0  0  0  0  0  0  0  0  0
  199.4809  186.3935  154.3086 C   0  0  0  0  0  0  0  0  0  0  0  0
  199.4053  186.9027  152.9878 C   0  0  0  0  0  0  0  0  0  0  0  0
  199.6408  188.2663  152.7303 C   0  0  0  0  0  0  0  0  0  0  0  0
  199.9789  189.1340  153.7820 C   0  0  0  0  0  0  0  0  0  0  0  0
  200.0686  188.6353  155.0960 C   0  0  0  0  0  0  0  0  0  0  0  0
  199.8146  187.2735  155.3589 C   0  0  0  0  0  0  0  0  0  0  0  0
  196.8857  185.0951  153.5756 C   0  0  2  0  0  0  0  0  0  0  0  0
  197.1053  183.3918  156.6037 C   0  0  0  0  0  0  0  0  0  0  0  0
  196.7061  182.1867  157.2427 C   0  0  0  0  0  0  0  0  0  0  0  0
  196.6054  181.0605  156.5336 N   0  0  0  0  0  0  0  0  0  0  0  0
  196.8307  180.9827  155.2043 C   0  0  0  0  0  0  0  0  0  0  0  0
  196.4210  182.1722  158.6223 C   0  0  0  0  0  0  0  0  0  0  0  0
  196.5056  183.3515  159.3749 C   0  0  0  0  0  0  0  0  0  0  0  0
  196.8771  184.5569  158.7484 C   0  0  0  0  0  0  0  0  0  0  0  0
  197.1736  184.5774  157.3683 C   0  0  0  0  0  0  0  0  0  0  0  0
  199.7182  180.0672  148.3485 H   0  0  0  0  0  0  0  0  0  0  0  0
  197.6524  183.8452  148.3250 H   0  0  0  0  0  0  0  0  0  0  0  0
  198.8108  183.1504  146.3531 H   0  0  0  0  0  0  0  0  0  0  0  0
  199.1504  181.4285  146.1490 H   0  0  0  0  0  0  0  0  0  0  0  0
  200.3769  182.4961  146.8564 H   0  0  0  0  0  0  0  0  0  0  0  0
  197.8785  182.9653  152.7104 H   0  0  0  0  0  0  0  0  0  0  0  0
  199.5825  184.7100  155.6207 H   0  0  0  0  0  0  0  0  0  0  0  0
  199.1620  186.2617  152.1540 H   0  0  0  0  0  0  0  0  0  0  0  0
  199.5697  188.6470  151.7244 H   0  0  0  0  0  0  0  0  0  0  0  0
  200.1762  190.1763  153.5855 H   0  0  0  0  0  0  0  0  0  0  0  0
  200.3389  189.2965  155.9062 H   0  0  0  0  0  0  0  0  0  0  0  0
  199.8879  186.9019  156.3718 H   0  0  0  0  0  0  0  0  0  0  0  0
  195.9620  184.5295  153.4704 H   0  0  0  0  0  0  0  0  0  0  0  0
  197.3925  185.1119  152.6167 H   0  0  0  0  0  0  0  0  0  0  0  0
  196.6323  186.1155  153.8457 H   0  0  0  0  0  0  0  0  0  0  0  0
  196.6885  179.9973  154.7916 H   0  0  0  0  0  0  0  0  0  0  0  0
  196.1404  181.2408  159.0978 H   0  0  0  0  0  0  0  0  0  0  0  0
  196.2971  183.3219  160.4323 H   0  0  0  0  0  0  0  0  0  0  0  0
  196.9282  185.4638  159.3321 H   0  0  0  0  0  0  0  0  0  0  0  0
  197.4360  185.5162  156.9076 H   0  0  0  0  0  0  0  0  0  0  0  0
  196.2869  180.1865  157.0282 H   0  0  0  0  0  0  0  0  0  0  0  0
  1  2  1  0
  2  3  2  0
  2  8  1  0
  3  4  1  0
  3 10  1  0
  4  5  1  0
  4  6  2  0
  6  7  1  0
  6 34  1  0
  7  8  2  0
  7  9  1  0
  8 35  1  0
  9 36  1  6
  9 37  1  0
  9 38  1  0
 10 11  2  0
 10 12  1  0
 12 13  1  0
 12 39  1  0
 13 14  2  0
 13 29  1  0
 14 15  1  0
 14 26  1  0
 15 16  1  0
 15 25  1  0
 16 17  1  0
 16 19  1  0
 16 40  1  1
 17 18  3  0
 19 20  2  0
 19 24  1  0
 20 21  1  0
 20 41  1  0
 21 22  2  0
 21 42  1  0
 22 23  1  0
 22 43  1  0
 23 24  2  0
 23 44  1  0
 24 45  1  0
 25 46  1  6
 25 47  1  0
 25 48  1  0
 26 27  1  0
 26 33  2  0
 27 28  1  0
 27 30  2  0
 28 29  2  0
 28 54  1  0
 29 49  1  0
 30 31  1  0
 30 50  1  0
 31 32  2  0
 31 51  1  0
 32 33  1  0
 32 52  1  0
 33 53  1  0
M  CHG  1  28   1
M  END
>  <s_epik_cmdline>  (342) 
J2VwaWtfcHl0aG9uJywgJy1waCcsICc3LjAwMDAwMCcsICctcGh0JywgJzIuMDAwMDAwJywgJy1tcycsICcxNicsICctdG4nLCAnOCcsICctbWEnLCAnMjAwJywgJy1pbWFlJywgJzxpbmZpbGUubWFlPicsICctb21hZScsICc8b3V0ZmlsZS5tYWU+Jw==

>  <s_epik_input>  (342) 
W2NIXTFjKFtDSDNdKVtjSF1jKEYpYyhjMUNsKUMoPU8pW05IXWMoW2NIXW5jKGMyMylbY0hdW2NIXVtjSF1bY0hdMyljMk4oW0NIM10pW0NAQEhdKEMjTiljNFtjSF1bY0hdW2NIXVtjSF1bY0hdNA==

>  <s_i_glide_gridfile>  (342) 
ATP-Grid

>  <s_lp_Force_Field>  (342) 
OPLS_2005

>  <s_lp_Variant>  (342) 
rxn502b____EMOL50474468____EMOL30488121____EMOL24630243-1

>  <s_lp_label>  (342) 
2893_sdstereoexpander_1_neutralizer_1_epik_1_stereoizer_1

>  <s_m_source_file>  (342) 
ATP-VSW-LIGPREP-001-in.maegz

>  <s_sd_BIOSOLVEIT.INFINISEE\_QUERY\_NAME>  (342) 
Ref-Lig

>  <s_sd_BIOSOLVEIT.INFINISEE\_QUERY\_SMILES>  (342) 
S(c1nc2c(cc1C[NH2+]Cc3ccc(cc3)C[NH+](C)C)cccc2)Cc4ccccc4

>  <s_sd_BIOSOLVEIT.INFINISEE\_REACTION\_NAME>  (342) 
rxn502b

>  <s_sd_BIOSOLVEIT.INFINISEE\_REAGENT1\_NAME>  (342) 
EMOL50474468

>  <s_sd_BIOSOLVEIT.INFINISEE\_REAGENT1\_SMILES>  (342) 
Clc1c(c(F)cc(c1)C)C(=O)O

>  <s_sd_BIOSOLVEIT.INFINISEE\_REAGENT2\_NAME>  (342) 
EMOL30488121

>  <s_sd_BIOSOLVEIT.INFINISEE\_REAGENT2\_SMILES>  (342) 
Brc1c(N)cnc2c1cccc2

>  <s_sd_BIOSOLVEIT.INFINISEE\_REAGENT3\_NAME>  (342) 
EMOL24630243

>  <s_sd_BIOSOLVEIT.INFINISEE\_REAGENT3\_SMILES>  (342) 
N#CC(NC)c1ccccc1

>  <s_sd_BIOSOLVEIT.INFINISEE\_SPACE>  (342) 
eXplore_7tr_2022-12

>  <s_vsw_compound_code>  (342) 
92545

>  <s_vsw_variant>  (342) 
92545-1

>  <r_epik_Charging_Adjusted_Penalty>  (342) 
0.24711713607581701

>  <r_epik_Ionization_Penalty>  (342) 
0.12379999999999999

>  <r_epik_Ionization_Penalty_Charging>  (342) 
0.1236

>  <r_epik_Ionization_Penalty_Neutral>  (342) 
0.00020000000000000001

>  <r_epik_State_Penalty>  (342) 
0.1236

>  <r_i_docking_score>  (342) 
-3.6601927328919701

>  <r_i_glide_ecoul>  (342) 
-8.8422222137451207

>  <r_i_glide_eff_state_penalty>  (342) 
0.1236

>  <r_i_glide_einternal>  (342) 
1.2840301990509

>  <r_i_glide_emodel>  (342) 
-51.398392744217198

>  <r_i_glide_energy>  (342) 
-38.534315109252901

>  <r_i_glide_erotb>  (342) 
0.57082791200295302

>  <r_i_glide_esite>  (342) 
-0.108065612044589

>  <r_i_glide_evdw>  (342) 
-29.692092895507798

>  <r_i_glide_gscore>  (342) 
-3.7837927328919698

>  <r_i_glide_hbond>  (342) 
-0.16500062766618601

>  <r_i_glide_ligand_efficiency>  (342) 
-0.11091493129975701

>  <r_i_glide_ligand_efficiency_ln>  (342) 
-0.81400791233146397

>  <r_i_glide_ligand_efficiency_sa>  (342) 
-0.355763449438455

>  <r_i_glide_lipo>  (342) 
-0.71358636120873697

>  <r_i_glide_metal>  (342) 
-0

>  <r_i_glide_rewards>  (342) 
-0.55703006713825198

>  <r_lp_Energy>  (342) 
40.365516

>  <r_qp_ACxDN^.5/SA>  (342) 
0.0091774000000000005

>  <r_qp_CIQPlogS>  (342) 
-8.4689999999999994

>  <r_qp_EA(eV)>  (342) 
1.1060000000000001

>  <r_qp_FISA>  (342) 
97.677000000000007

>  <r_qp_FOSA>  (342) 
140.02600000000001

>  <r_qp_IP(eV)>  (342) 
8.6769999999999996

>  <r_qp_Jm>  (342) 
0.0075258766387448703

>  <r_qp_PISA>  (342) 
352.18400000000003

>  <r_qp_PSA>  (342) 
64.361999999999995

>  <r_qp_PercentHumanOralAbsorption>  (342) 
100

>  <r_qp_QPPCaco>  (342) 
1173.8910000000001

>  <r_qp_QPPMDCK>  (342) 
1317.075

>  <r_qp_QPlogBB>  (342) 
-0.5

>  <r_qp_QPlogHERG>  (342) 
-5.3029999999999999

>  <r_qp_QPlogKhsa>  (342) 
0.67900000000000005

>  <r_qp_QPlogKp>  (342) 
-1.5029999999999999

>  <r_qp_QPlogPC16>  (342) 
13.589

>  <r_qp_QPlogPo/w>  (342) 
4.7930000000000001

>  <r_qp_QPlogPoct>  (342) 
21.015999999999998

>  <r_qp_QPlogPw>  (342) 
10.426

>  <r_qp_QPlogS>  (342) 
-6.282

>  <r_qp_QPpolrz>  (342) 
44.469000000000001

>  <r_qp_SASA>  (342) 
653.779

>  <r_qp_SAamideO>  (342) 
0

>  <r_qp_SAfluorine>  (342) 
24.834

>  <r_qp_WPSA>  (342) 
63.892000000000003

>  <r_qp_accptHB>  (342) 
6

>  <r_qp_dip^2/V>  (342) 
0.079056600000000005

>  <r_qp_dipole>  (342) 
10.048

>  <r_qp_donorHB>  (342) 
1

>  <r_qp_glob>  (342) 
0.87075959999999997

>  <r_qp_mol_MW>  (342) 
458.92200000000003

>  <r_qp_volume>  (342) 
1277.162

>  <r_sd_BIOSOLVEIT.INFINISEE\_FTREES\_SIMILARITY>  (342) 
0.90400000000000003

>  <r_sd_BIOSOLVEIT.LOGP>  (342) 
6.2891000000000004

>  <r_sd_BIOSOLVEIT.MOLECULAR\_WEIGHT>  (342) 
458.92200000000003

>  <r_sd_BIOSOLVEIT.TPSA>  (342) 
69.019999999999996

>  <i_epik_Tot_Q>  (342) 
1

>  <i_epik_Tot_abs_Q>  (342) 
1

>  <i_f3d_flags>  (342) 
0

>  <i_i_glide_confnum>  (342) 
3

>  <i_i_glide_lignum>  (342) 
1335

>  <i_i_glide_posenum>  (342) 
18

>  <i_i_glide_rotatable_bonds>  (342) 
6

>  <i_lp_mmshare_version>  (342) 
65135

>  <i_m_ct_format>  (342) 
2

>  <i_m_source_file_index>  (342) 
2893

>  <i_qp_#NandO>  (342) 
5

>  <i_qp_#acid>  (342) 
0

>  <i_qp_#amide>  (342) 
0

>  <i_qp_#amidine>  (342) 
0

>  <i_qp_#amine>  (342) 
0

>  <i_qp_#in34>  (342) 
0

>  <i_qp_#in56>  (342) 
22

>  <i_qp_#metab>  (342) 
5

>  <i_qp_#nonHatm>  (342) 
33

>  <i_qp_#noncon>  (342) 
0

>  <i_qp_#ringatoms>  (342) 
22

>  <i_qp_#rotor>  (342) 
6

>  <i_qp_#rtvFG>  (342) 
0

>  <i_qp_#stars>  (342) 
0

>  <i_qp_CNS>  (342) 
0

>  <i_qp_HumanOralAbsorption>  (342) 
1

>  <i_qp_RuleOfFive>  (342) 
0

>  <i_qp_RuleOfThree>  (342) 
1

>  <i_sd_BIOSOLVEIT.INFINISEE\_RESULT\_RANK>  (342) 
73906

>  <i_sd_version>  (342) 
0

>  <b_lp_Chiralities_Consistent>  (342) 
1

>  <b_sd_chiral_flag>  (342) 
0

>  <canonical_id>  (342) 
ATP-HTVS-389B4B823B19

>  <compound_code>  (342) 
92545

>  <title>  (342) 
rxn502b____EMOL50474468____EMOL30488121____EMOL24630243

>  <variant>  (342) 
92545-1

>  <source_file>  (342) 
运行/运行/ATP-VSW/ATP-VSW-DOCK_HTVS_1-001_lib/ATP-VSW-DOCK_HTVS_1-001_lib

>  <canonical_smiles>  (342) 
Cc1cc(F)c(C(=O)Nc2c[nH+]c3ccccc3c2N(C)[C@@H](C#N)c2ccccc2)c(Cl)c1

>  <scaffold>  (342) 
O=C(Nc1c[nH+]c2ccccc2c1NCc1ccccc1)c1ccccc1

>  <molecular_formula>  (342) 
C26H21ClFN4O+

$$$$
ATP-HTVS-38AA30AE7592
     RDKit          3D

 56 59  0  0  0  0  0  0  0  0999 V2000
  202.4152  174.9882  156.7668 F   0  0  0  0  0  0  0  0  0  0  0  0
  201.5873  175.9389  156.2779 C   0  0  0  0  0  0  0  0  0  0  0  0
  201.1550  176.9838  157.1100 C   0  0  0  0  0  0  0  0  0  0  0  0
  200.3137  177.9966  156.5953 C   0  0  0  0  0  0  0  0  0  0  0  0
  199.8699  177.9613  155.2487 C   0  0  0  0  0  0  0  0  0  0  0  0
  198.9592  179.0085  154.7258 C   0  0  0  0  0  0  0  0  0  0  0  0
  198.8095  179.0938  153.3826 N   0  0  0  0  0  0  0  0  0  0  0  0
  198.0239  180.0003  152.7599 C   0  0  0  0  0  0  0  0  0  0  0  0
  197.3158  180.9574  153.5411 C   0  0  0  0  0  0  0  0  0  0  0  0
  197.4471  180.9388  154.9614 C   0  0  0  0  0  0  0  0  0  0  0  0
  196.8078  181.9021  155.7602 N   0  0  0  0  0  0  0  0  0  0  0  0
  196.8797  181.9166  157.2201 C   0  0  1  0  0  0  0  0  0  0  0  0
  196.4694  183.2983  157.7801 C   0  0  1  0  0  0  0  0  0  0  0  0
  196.4125  183.2689  159.2659 N   0  0  2  0  0  0  0  0  0  0  0  0
  195.3906  184.1624  159.8470 C   0  0  2  0  0  0  0  0  0  0  0  0
  197.7333  183.4388  159.9325 C   0  0  2  0  0  0  0  0  0  0  0  0
  197.3212  184.4661  157.2524 C   0  0  0  0  0  0  0  0  0  0  0  0
  196.8104  185.7850  157.2517 C   0  0  0  0  0  0  0  0  0  0  0  0
  197.5809  186.8741  156.7859 C   0  0  0  0  0  0  0  0  0  0  0  0
  198.8877  186.6577  156.3216 C   0  0  0  0  0  0  0  0  0  0  0  0
  199.6422  187.7021  155.8856 O   0  0  0  0  0  0  0  0  0  0  0  0
  199.4263  185.3526  156.3311 C   0  0  0  0  0  0  0  0  0  0  0  0
  198.6577  184.2644  156.7953 C   0  0  0  0  0  0  0  0  0  0  0  0
  198.2502  179.9229  155.5370 C   0  0  0  0  0  0  0  0  0  0  0  0
  196.5067  181.8993  152.8605 C   0  0  0  0  0  0  0  0  0  0  0  0
  196.3998  181.8884  151.4561 C   0  0  0  0  0  0  0  0  0  0  0  0
  197.1003  180.9309  150.7015 C   0  0  0  0  0  0  0  0  0  0  0  0
  197.9100  179.9783  151.3551 C   0  0  0  0  0  0  0  0  0  0  0  0
  200.3165  176.8939  154.4316 C   0  0  0  0  0  0  0  0  0  0  0  0
  201.1676  175.8917  154.9443 C   0  0  0  0  0  0  0  0  0  0  0  0
  201.4784  177.0327  158.1342 H   0  0  0  0  0  0  0  0  0  0  0  0
  200.0234  178.7875  157.2819 H   0  0  0  0  0  0  0  0  0  0  0  0
  196.2364  182.6165  155.3196 H   0  0  0  0  0  0  0  0  0  0  0  0
  196.2262  181.1222  157.5938 H   0  0  0  0  0  0  0  0  0  0  0  0
  197.8945  181.6984  157.5773 H   0  0  0  0  0  0  0  0  0  0  0  0
  195.4489  183.4437  157.4276 H   0  0  0  0  0  0  0  0  0  0  0  0
  195.5734  185.2139  159.6140 H   0  0  0  0  0  0  0  0  0  0  0  0
  195.3841  184.0621  160.9308 H   0  0  0  0  0  0  0  0  0  0  0  0
  194.3934  183.8855  159.4990 H   0  0  0  0  0  0  0  0  0  0  0  0
  198.1925  184.4151  159.7278 H   0  0  0  0  0  0  0  0  0  0  0  0
  198.4227  182.6556  159.6347 H   0  0  0  0  0  0  0  0  0  0  0  0
  197.5990  183.3692  161.0116 H   0  0  0  0  0  0  0  0  0  0  0  0
  195.8101  185.9963  157.6078 H   0  0  0  0  0  0  0  0  0  0  0  0
  197.1521  187.8681  156.8078 H   0  0  0  0  0  0  0  0  0  0  0  0
  199.1978  188.5358  155.9388 H   0  0  0  0  0  0  0  0  0  0  0  0
  200.4413  185.1970  155.9869 H   0  0  0  0  0  0  0  0  0  0  0  0
  199.1099  183.2743  156.7915 H   0  0  0  0  0  0  0  0  0  0  0  0
  198.3085  179.8279  156.6151 H   0  0  0  0  0  0  0  0  0  0  0  0
  195.9563  182.6504  153.4100 H   0  0  0  0  0  0  0  0  0  0  0  0
  195.7809  182.6222  150.9610 H   0  0  0  0  0  0  0  0  0  0  0  0
  197.0180  180.9160  149.6269 H   0  0  0  0  0  0  0  0  0  0  0  0
  198.4511  179.2526  150.7660 H   0  0  0  0  0  0  0  0  0  0  0  0
  200.0170  176.8077  153.3989 H   0  0  0  0  0  0  0  0  0  0  0  0
  201.4898  175.0800  154.3046 H   0  0  0  0  0  0  0  0  0  0  0  0
  199.3288  178.4393  152.8028 H   0  0  0  0  0  0  0  0  0  0  0  0
  196.1228  182.3288  159.4986 H   0  0  0  0  0  0  0  0  0  0  0  0
  1  2  1  0
  2  3  1  0
  2 30  2  0
  3  4  2  0
  3 31  1  0
  4  5  1  0
  4 32  1  0
  5  6  1  0
  5 29  2  0
  6  7  2  0
  6 24  1  0
  7  8  1  0
  7 55  1  0
  8  9  1  0
  8 28  2  0
  9 10  1  0
  9 25  2  0
 10 11  1  0
 10 24  2  0
 11 12  1  0
 11 33  1  0
 12 13  1  0
 12 34  1  1
 12 35  1  0
 13 14  1  0
 13 17  1  0
 13 36  1  6
 14 15  1  0
 14 16  1  0
 14 56  1  6
 15 37  1  1
 15 38  1  0
 15 39  1  0
 16 40  1  1
 16 41  1  0
 16 42  1  0
 17 18  1  0
 17 23  2  0
 18 19  2  0
 18 43  1  0
 19 20  1  0
 19 44  1  0
 20 21  1  0
 20 22  2  0
 21 45  1  0
 22 23  1  0
 22 46  1  0
 23 47  1  0
 24 48  1  0
 25 26  1  0
 25 49  1  0
 26 27  2  0
 26 50  1  0
 27 28  1  0
 27 51  1  0
 28 52  1  0
 29 30  1  0
 29 53  1  0
 30 54  1  0
M  CHG  2   7   1  14   1
M  END
>  <s_epik_cmdline>  (343) 
J2VwaWtfcHl0aG9uJywgJy1waCcsICc3LjAwMDAwMCcsICctcGh0JywgJzIuMDAwMDAwJywgJy1tcycsICcxNicsICctdG4nLCAnOCcsICctbWEnLCAnMjAwJywgJy1pbWFlJywgJzxpbmZpbGUubWFlPicsICctb21hZScsICc8b3V0ZmlsZS5tYWU+Jw==

>  <s_epik_input>  (343) 
RmMxW2NIXVtjSF1jKFtjSF1bY0hdMSktYyhuMilbY0hdYyhjKGMyMylbY0hdW2NIXVtjSF1bY0hdMylbTkhdW0NIMl1bQ0BASF0oTihbQ0gzXSlbQ0gzXSljNFtjSF1bY0hdYyhbT0hdKVtjSF1bY0hdNA==

>  <s_i_glide_gridfile>  (343) 
ATP-Grid

>  <s_lp_Force_Field>  (343) 
OPLS_2005

>  <s_lp_Variant>  (343) 
YAS_R004____OTV5753507____OTV1506397____OTV1000393-2

>  <s_lp_label>  (343) 
134_sdstereoexpander_2_neutralizer_1_epik_1_stereoizer_1

>  <s_m_source_file>  (343) 
ATP-VSW-LIGPREP-002-in.maegz

>  <s_sd_BIOSOLVEIT.INFINISEE\_QUERY\_NAME>  (343) 
Ref-Lig

>  <s_sd_BIOSOLVEIT.INFINISEE\_QUERY\_SMILES>  (343) 
S(c1nc2c(cc1C[NH2+]Cc3ccc(cc3)C[NH+](C)C)cccc2)Cc4ccccc4

>  <s_sd_BIOSOLVEIT.INFINISEE\_REACTION\_NAME>  (343) 
YAS_R004

>  <s_sd_BIOSOLVEIT.INFINISEE\_REAGENT1\_NAME>  (343) 
OTV5753507

>  <s_sd_BIOSOLVEIT.INFINISEE\_REAGENT1\_SMILES>  (343) 
Nc1ccccc1

>  <s_sd_BIOSOLVEIT.INFINISEE\_REAGENT2\_NAME>  (343) 
OTV1506397

>  <s_sd_BIOSOLVEIT.INFINISEE\_REAGENT2\_SMILES>  (343) 
Fc1ccc(cc1)C(=O)O

>  <s_sd_BIOSOLVEIT.INFINISEE\_REAGENT3\_NAME>  (343) 
OTV1000393

>  <s_sd_BIOSOLVEIT.INFINISEE\_REAGENT3\_SMILES>  (343) 
Oc1ccc(cc1)C(N(C)C)CN

>  <s_sd_BIOSOLVEIT.INFINISEE\_SPACE>  (343) 
CHEMriya_12bn_2022-01

>  <s_vsw_compound_code>  (343) 
4258

>  <s_vsw_variant>  (343) 
4258-2

>  <r_epik_Charging_Adjusted_Penalty>  (343) 
0.18583375495973201

>  <r_epik_Ionization_Penalty>  (343) 
0.097299999999999998

>  <r_epik_Ionization_Penalty_Charging>  (343) 
0.094600000000000004

>  <r_epik_Ionization_Penalty_Neutral>  (343) 
0.0027000000000000001

>  <r_epik_State_Penalty>  (343) 
0.091300000000000006

>  <r_i_docking_score>  (343) 
-4.8689567015256099

>  <r_i_glide_ecoul>  (343) 
-8.8656768798828107

>  <r_i_glide_eff_state_penalty>  (343) 
0.091300000000000006

>  <r_i_glide_einternal>  (343) 
4.3022933006286603

>  <r_i_glide_emodel>  (343) 
-57.027782747605798

>  <r_i_glide_energy>  (343) 
-40.528652191162102

>  <r_i_glide_erotb>  (343) 
0.60298830667589198

>  <r_i_glide_esite>  (343) 
-0.060741341118311303

>  <r_i_glide_evdw>  (343) 
-31.6629753112793

>  <r_i_glide_gscore>  (343) 
-4.9602567015256103

>  <r_i_glide_hbond>  (343) 
0

>  <r_i_glide_ligand_efficiency>  (343) 
-0.16229855671752

>  <r_i_glide_ligand_efficiency_ln>  (343) 
-1.1062800141189799

>  <r_i_glide_ligand_efficiency_sa>  (343) 
-0.50429935053033403

>  <r_i_glide_lipo>  (343) 
-1.4575009605284099

>  <r_i_glide_metal>  (343) 
-0

>  <r_i_glide_rewards>  (343) 
-1.13200240900839

>  <r_lp_Energy>  (343) 
38.483305999999999

>  <r_lp_tautomer_probability>  (343) 
0.999999999997365

>  <r_qp_ACxDN^.5/SA>  (343) 
0.0093974999999999996

>  <r_qp_CIQPlogS>  (343) 
-5.665

>  <r_qp_EA(eV)>  (343) 
0.79200000000000004

>  <r_qp_FISA>  (343) 
70.343999999999994

>  <r_qp_FOSA>  (343) 
155.95099999999999

>  <r_qp_IP(eV)>  (343) 
8.1620000000000008

>  <r_qp_Jm>  (343) 
0.0049454086106359802

>  <r_qp_PISA>  (343) 
441.46499999999997

>  <r_qp_PSA>  (343) 
47.109999999999999

>  <r_qp_PercentHumanOralAbsorption>  (343) 
100

>  <r_qp_QPPCaco>  (343) 
531.77700000000004

>  <r_qp_QPPMDCK>  (343) 
500.69499999999999

>  <r_qp_QPlogBB>  (343) 
-0.065000000000000002

>  <r_qp_QPlogHERG>  (343) 
-7.4950000000000001

>  <r_qp_QPlogKhsa>  (343) 
0.86599999999999999

>  <r_qp_QPlogKp>  (343) 
-2.6509999999999998

>  <r_qp_QPlogPC16>  (343) 
14.093999999999999

>  <r_qp_QPlogPo/w>  (343) 
4.9720000000000004

>  <r_qp_QPlogPoct>  (343) 
21.091999999999999

>  <r_qp_QPlogPw>  (343) 
11.000999999999999

>  <r_qp_QPlogS>  (343) 
-5.258

>  <r_qp_QPpolrz>  (343) 
45.652999999999999

>  <r_qp_SASA>  (343) 
714.82000000000005

>  <r_qp_SAamideO>  (343) 
0

>  <r_qp_SAfluorine>  (343) 
47.060000000000002

>  <r_qp_WPSA>  (343) 
47.060000000000002

>  <r_qp_accptHB>  (343) 
4.75

>  <r_qp_dip^2/V>  (343) 
0.023652400000000001

>  <r_qp_dipole>  (343) 
5.548

>  <r_qp_donorHB>  (343) 
2

>  <r_qp_glob>  (343) 
0.80648299999999995

>  <r_qp_mol_MW>  (343) 
401.48200000000003

>  <r_qp_volume>  (343) 
1301.4880000000001

>  <r_sd_BIOSOLVEIT.INFINISEE\_FTREES\_SIMILARITY>  (343) 
0.90400000000000003

>  <r_sd_BIOSOLVEIT.LOGP>  (343) 
4.0442

>  <r_sd_BIOSOLVEIT.MOLECULAR\_WEIGHT>  (343) 
402.49099999999999

>  <r_sd_BIOSOLVEIT.TPSA>  (343) 
49.590000000000003

>  <i_epik_Tot_Q>  (343) 
2

>  <i_epik_Tot_abs_Q>  (343) 
2

>  <i_f3d_flags>  (343) 
0

>  <i_i_glide_confnum>  (343) 
4

>  <i_i_glide_lignum>  (343) 
101

>  <i_i_glide_posenum>  (343) 
8

>  <i_i_glide_rotatable_bonds>  (343) 
7

>  <i_lp_mmshare_version>  (343) 
65135

>  <i_m_ct_format>  (343) 
2

>  <i_m_source_file_index>  (343) 
134

>  <i_qp_#NandO>  (343) 
4

>  <i_qp_#acid>  (343) 
0

>  <i_qp_#amide>  (343) 
0

>  <i_qp_#amidine>  (343) 
0

>  <i_qp_#amine>  (343) 
1

>  <i_qp_#in34>  (343) 
0

>  <i_qp_#in56>  (343) 
22

>  <i_qp_#metab>  (343) 
5

>  <i_qp_#nonHatm>  (343) 
30

>  <i_qp_#noncon>  (343) 
0

>  <i_qp_#ringatoms>  (343) 
22

>  <i_qp_#rotor>  (343) 
7

>  <i_qp_#rtvFG>  (343) 
0

>  <i_qp_#stars>  (343) 
0

>  <i_qp_CNS>  (343) 
1

>  <i_qp_HumanOralAbsorption>  (343) 
3

>  <i_qp_RuleOfFive>  (343) 
0

>  <i_qp_RuleOfThree>  (343) 
0

>  <i_sd_BIOSOLVEIT.INFINISEE\_RESULT\_RANK>  (343) 
76109

>  <i_sd_version>  (343) 
0

>  <b_lp_Chiralities_Consistent>  (343) 
1

>  <b_sd_chiral_flag>  (343) 
0

>  <canonical_id>  (343) 
ATP-HTVS-38AA30AE7592

>  <compound_code>  (343) 
4258

>  <title>  (343) 
YAS_R004____OTV5753507____OTV1506397____OTV1000393

>  <variant>  (343) 
4258-2

>  <source_file>  (343) 
运行/运行/ATP-VSW/ATP-VSW-DOCK_HTVS_1-002_lib.maegz

>  <canonical_smiles>  (343) 
C[NH+](C)[C@H](CNc1cc(-c2ccc(F)cc2)[nH+]c2ccccc12)c1ccc(O)cc1

>  <scaffold>  (343) 
c1ccc(CCNc2cc(-c3ccccc3)[nH+]c3ccccc23)cc1

>  <molecular_formula>  (343) 
C25H26FN3O+2

$$$$
ATP-HTVS-38B17C32C2B1
     RDKit          3D

 61 64  0  0  0  0  0  0  0  0999 V2000
  197.0622  178.6936  150.0618 O   0  0  0  0  0  0  0  0  0  0  0  0
  197.7131  179.7191  150.3426 C   0  0  0  0  0  0  0  0  0  0  0  0
  198.6392  180.2337  149.4733 N   0  0  0  0  0  0  0  0  0  0  0  0
  199.0333  179.5664  148.2706 C   0  0  0  0  0  0  0  0  0  0  0  0
  198.0984  178.9617  147.3864 C   0  0  0  0  0  0  0  0  0  0  0  0
  198.4404  178.3669  146.2209 N   0  0  0  0  0  0  0  0  0  0  0  0
  199.7429  178.3465  145.8746 C   0  0  0  0  0  0  0  0  0  0  0  0
  200.7551  178.9073  146.6689 C   0  0  0  0  0  0  0  0  0  0  0  0
  200.3924  179.5195  147.8874 C   0  0  0  0  0  0  0  0  0  0  0  0
  199.3943  181.4617  149.8234 C   0  0  2  0  0  0  0  0  0  0  0  0
  197.5809  180.3739  151.6389 C   0  0  0  0  0  0  0  0  0  0  0  0
  196.7955  181.6253  151.5713 C   0  0  0  0  0  0  0  0  0  0  0  0
  196.2586  182.0949  150.5874 O   0  0  0  0  0  0  0  0  0  0  0  0
  196.6917  182.2971  152.7519 N   0  0  0  0  0  0  0  0  0  0  0  0
  197.2014  181.8615  153.9860 C   0  0  0  0  0  0  0  0  0  0  0  0
  197.9185  180.6471  154.0650 C   0  0  0  0  0  0  0  0  0  0  0  0
  198.3849  180.2264  155.3331 C   0  0  0  0  0  0  0  0  0  0  0  0
  198.1321  181.0027  156.4779 C   0  0  0  0  0  0  0  0  0  0  0  0
  197.4226  182.2141  156.3854 C   0  0  0  0  0  0  0  0  0  0  0  0
  196.9611  182.6470  155.1303 C   0  0  0  0  0  0  0  0  0  0  0  0
  198.1255  179.8956  152.8030 C   0  0  0  0  0  0  0  0  0  0  0  0
  198.9327  178.7624  152.9586 N   0  0  0  0  0  0  0  0  0  0  0  0
  199.7153  178.0082  151.9848 C   0  0  1  0  0  0  0  0  0  0  0  0
  200.1793  176.6477  152.4609 C   0  0  0  0  0  0  0  0  0  0  0  0
  200.0829  175.5466  151.5804 C   0  0  0  0  0  0  0  0  0  0  0  0
  200.5053  174.2699  151.9971 C   0  0  0  0  0  0  0  0  0  0  0  0
  201.0164  174.0878  153.3049 C   0  0  0  0  0  0  0  0  0  0  0  0
  201.0872  175.1827  154.1861 C   0  0  0  0  0  0  0  0  0  0  0  0
  200.6815  176.4662  153.7625 C   0  0  0  0  0  0  0  0  0  0  0  0
  201.4994  172.7190  153.7581 C   0  0  1  0  0  0  0  0  0  0  0  0
  202.9671  172.6490  153.9821 N   0  0  2  0  0  0  0  0  0  0  0  0
  203.4314  173.3372  155.2036 C   0  0  2  0  0  0  0  0  0  0  0  0
  203.7455  173.0552  152.7891 C   0  0  2  0  0  0  0  0  0  0  0  0
  197.0366  178.9832  147.5852 H   0  0  0  0  0  0  0  0  0  0  0  0
  199.9890  177.8664  144.9363 H   0  0  0  0  0  0  0  0  0  0  0  0
  201.7885  178.8787  146.3546 H   0  0  0  0  0  0  0  0  0  0  0  0
  201.1648  179.9536  148.4982 H   0  0  0  0  0  0  0  0  0  0  0  0
  200.0479  181.8033  149.0102 H   0  0  0  0  0  0  0  0  0  0  0  0
  200.0118  181.3086  150.7108 H   0  0  0  0  0  0  0  0  0  0  0  0
  198.7270  182.3071  149.9905 H   0  0  0  0  0  0  0  0  0  0  0  0
  196.1862  183.1667  152.7437 H   0  0  0  0  0  0  0  0  0  0  0  0
  198.9239  179.2999  155.4713 H   0  0  0  0  0  0  0  0  0  0  0  0
  198.4691  180.6539  157.4403 H   0  0  0  0  0  0  0  0  0  0  0  0
  197.2122  182.7956  157.2688 H   0  0  0  0  0  0  0  0  0  0  0  0
  196.3955  183.5605  155.0538 H   0  0  0  0  0  0  0  0  0  0  0  0
  199.2222  178.5833  153.9088 H   0  0  0  0  0  0  0  0  0  0  0  0
  199.1252  177.8044  151.0933 H   0  0  0  0  0  0  0  0  0  0  0  0
  200.5810  178.6041  151.6888 H   0  0  0  0  0  0  0  0  0  0  0  0
  199.6763  175.6731  150.5815 H   0  0  0  0  0  0  0  0  0  0  0  0
  200.4300  173.4422  151.3084 H   0  0  0  0  0  0  0  0  0  0  0  0
  201.4726  175.0451  155.1917 H   0  0  0  0  0  0  0  0  0  0  0  0
  200.7660  177.3020  154.4414 H   0  0  0  0  0  0  0  0  0  0  0  0
  200.9622  172.4276  154.6640 H   0  0  0  0  0  0  0  0  0  0  0  0
  201.2320  171.9713  153.0128 H   0  0  0  0  0  0  0  0  0  0  0  0
  203.2136  174.4283  155.1729 H   0  0  0  0  0  0  0  0  0  0  0  0
  204.5023  173.1916  155.3289 H   0  0  0  0  0  0  0  0  0  0  0  0
  202.9297  172.9403  156.0795 H   0  0  0  0  0  0  0  0  0  0  0  0
  203.5868  174.1044  152.5300 H   0  0  0  0  0  0  0  0  0  0  0  0
  203.4713  172.4529  151.9182 H   0  0  0  0  0  0  0  0  0  0  0  0
  204.8162  172.9224  152.9548 H   0  0  0  0  0  0  0  0  0  0  0  0
  203.1454  171.6436  154.1252 H   0  0  0  0  0  0  0  0  0  0  0  0
  1  2  2  0
  2  3  1  0
  2 11  1  0
  3  4  1  0
  3 10  1  0
  4  5  2  0
  4  9  1  0
  5  6  1  0
  5 34  1  0
  6  7  2  0
  7  8  1  0
  7 35  1  0
  8  9  2  0
  8 36  1  0
  9 37  1  0
 10 38  1  6
 10 39  1  0
 10 40  1  0
 11 12  1  0
 11 21  2  0
 12 13  2  0
 12 14  1  0
 14 15  1  0
 14 41  1  0
 15 16  1  0
 15 20  2  0
 16 17  2  0
 16 21  1  0
 17 18  1  0
 17 42  1  0
 18 19  2  0
 18 43  1  0
 19 20  1  0
 19 44  1  0
 20 45  1  0
 21 22  1  0
 22 23  1  0
 22 46  1  0
 23 24  1  0
 23 47  1  6
 23 48  1  0
 24 25  1  0
 24 29  2  0
 25 26  2  0
 25 49  1  0
 26 27  1  0
 26 50  1  0
 27 28  2  0
 27 30  1  0
 28 29  1  0
 28 51  1  0
 29 52  1  0
 30 31  1  0
 30 53  1  1
 30 54  1  0
 31 32  1  0
 31 33  1  0
 31 61  1  1
 32 55  1  6
 32 56  1  0
 32 57  1  0
 33 58  1  6
 33 59  1  0
 33 60  1  0
M  CHG  1  31   1
M  END
>  <s_epik_cmdline>  (344) 
J2VwaWtfcHl0aG9uJywgJy1waCcsICc3LjAwMDAwMCcsICctcGh0JywgJzIuMDAwMDAwJywgJy1tcycsICcxNicsICctdG4nLCAnOCcsICctbWEnLCAnMjAwJywgJy1pbWFlJywgJzxpbmZpbGUubWFlPicsICctb21hZScsICc8b3V0ZmlsZS5tYWU+Jw==

>  <s_epik_input>  (344) 
W2NIXTFbY0hdW2NIXW5bY0hdYzFOKFtDSDNdKUMoPU8pYyhjKD1PKVtuSF0yKWMoYyhjMjMpW2NIXVtjSF1bY0hdW2NIXTMpW05IXVtDSDJdYzRbY0hdW2NIXWMoW2NIXVtjSF00KVtDSDJdTihbQ0gzXSlbQ0gzXQ==

>  <s_i_glide_gridfile>  (344) 
ATP-Grid

>  <s_lp_Force_Field>  (344) 
OPLS_2005

>  <s_lp_Variant>  (344) 
rxn512c____EMOL36086203____EMOL43362984____EMOL50155899-1

>  <s_lp_label>  (344) 
2823_sdstereoexpander_1_neutralizer_1_epik_1_stereoizer_1

>  <s_m_source_file>  (344) 
ATP-VSW-LIGPREP-001-in.maegz

>  <s_sd_BIOSOLVEIT.INFINISEE\_QUERY\_NAME>  (344) 
Ref-Lig

>  <s_sd_BIOSOLVEIT.INFINISEE\_QUERY\_SMILES>  (344) 
S(c1nc2c(cc1C[NH2+]Cc3ccc(cc3)C[NH+](C)C)cccc2)Cc4ccccc4

>  <s_sd_BIOSOLVEIT.INFINISEE\_REACTION\_NAME>  (344) 
rxn512c

>  <s_sd_BIOSOLVEIT.INFINISEE\_REAGENT1\_NAME>  (344) 
EMOL36086203

>  <s_sd_BIOSOLVEIT.INFINISEE\_REAGENT1\_SMILES>  (344) 
n1cc(NC)ccc1

>  <s_sd_BIOSOLVEIT.INFINISEE\_REAGENT2\_NAME>  (344) 
EMOL43362984

>  <s_sd_BIOSOLVEIT.INFINISEE\_REAGENT2\_SMILES>  (344) 
ClC=1c2c(NC(=O)C1C(=O)O)cccc2

>  <s_sd_BIOSOLVEIT.INFINISEE\_REAGENT3\_NAME>  (344) 
EMOL50155899

>  <s_sd_BIOSOLVEIT.INFINISEE\_REAGENT3\_SMILES>  (344) 
N(Cc1ccc(cc1)CN)(C)C

>  <s_sd_BIOSOLVEIT.INFINISEE\_SPACE>  (344) 
eXplore_7tr_2022-12

>  <s_vsw_compound_code>  (344) 
90305

>  <s_vsw_variant>  (344) 
90305-1

>  <r_epik_Charging_Adjusted_Penalty>  (344) 
0.078408839738149896

>  <r_epik_Ionization_Penalty>  (344) 
0.039699999999999999

>  <r_epik_Ionization_Penalty_Charging>  (344) 
0.039199999999999999

>  <r_epik_Ionization_Penalty_Neutral>  (344) 
0.00050000000000000001

>  <r_epik_State_Penalty>  (344) 
0.039199999999999999

>  <r_i_docking_score>  (344) 
-2.51345438485887

>  <r_i_glide_ecoul>  (344) 
-11.769517898559601

>  <r_i_glide_eff_state_penalty>  (344) 
0.039199999999999999

>  <r_i_glide_einternal>  (344) 
5.5856657028198198

>  <r_i_glide_emodel>  (344) 
-46.219419175204798

>  <r_i_glide_energy>  (344) 
-40.098316192627003

>  <r_i_glide_erotb>  (344) 
0.71431969347939805

>  <r_i_glide_esite>  (344) 
-0.14620270870749499

>  <r_i_glide_evdw>  (344) 
-28.328798294067401

>  <r_i_glide_gscore>  (344) 
-2.5526543848588701

>  <r_i_glide_hbond>  (344) 
-0.18855402286728501

>  <r_i_glide_ligand_efficiency>  (344) 
-0.076165284389662705

>  <r_i_glide_ligand_efficiency_ln>  (344) 
-0.55897924122230003

>  <r_i_glide_ligand_efficiency_sa>  (344) 
-0.24430276414900301

>  <r_i_glide_lipo>  (344) 
-0.80060109446463801

>  <r_i_glide_metal>  (344) 
-0

>  <r_i_glide_rewards>  (344) 
1.05025134718846

>  <r_lp_Energy>  (344) 
62.184677000000001

>  <r_qp_ACxDN^.5/SA>  (344) 
0

>  <r_qp_CIQPlogS>  (344) 
-5.0090000000000003

>  <r_qp_EA(eV)>  (344) 
0.86599999999999999

>  <r_qp_FISA>  (344) 
117.621

>  <r_qp_FOSA>  (344) 
257.64699999999999

>  <r_qp_IP(eV)>  (344) 
8.8510000000000009

>  <r_qp_Jm>  (344) 
0.0081411202850112802

>  <r_qp_PISA>  (344) 
380.87400000000002

>  <r_qp_PSA>  (344) 
85.638999999999996

>  <r_qp_PercentHumanOralAbsorption>  (344) 
89.046999999999997

>  <r_qp_QPPCaco>  (344) 
189.40899999999999

>  <r_qp_QPPMDCK>  (344) 
90.611999999999995

>  <r_qp_QPlogBB>  (344) 
-0.68300000000000005

>  <r_qp_QPlogHERG>  (344) 
-7.2969999999999997

>  <r_qp_QPlogKhsa>  (344) 
0.248

>  <r_qp_QPlogKp>  (344) 
-3.7360000000000002

>  <r_qp_QPlogPC16>  (344) 
14.787000000000001

>  <r_qp_QPlogPo/w>  (344) 
3.645

>  <r_qp_QPlogPoct>  (344) 
21.902000000000001

>  <r_qp_QPlogPw>  (344) 
11.265000000000001

>  <r_qp_QPlogS>  (344) 
-3.9980000000000002

>  <r_qp_QPpolrz>  (344) 
49.060000000000002

>  <r_qp_SASA>  (344) 
756.14200000000005

>  <r_qp_SAamideO>  (344) 
0

>  <r_qp_SAfluorine>  (344) 
0

>  <r_qp_WPSA>  (344) 
0

>  <r_qp_accptHB>  (344) 
8

>  <r_qp_dip^2/V>  (344) 
0.086249999999999993

>  <r_qp_dipole>  (344) 
10.993

>  <r_qp_donorHB>  (344) 
0

>  <r_qp_glob>  (344) 
0.80082359999999997

>  <r_qp_mol_MW>  (344) 
441.53199999999998

>  <r_qp_volume>  (344) 
1401.0799999999999

>  <r_sd_BIOSOLVEIT.INFINISEE\_FTREES\_SIMILARITY>  (344) 
0.90600000000000003

>  <r_sd_BIOSOLVEIT.LOGP>  (344) 
2.4563000000000001

>  <r_sd_BIOSOLVEIT.MOLECULAR\_WEIGHT>  (344) 
442.54000000000002

>  <r_sd_BIOSOLVEIT.TPSA>  (344) 
82.530000000000001

>  <i_epik_Tot_Q>  (344) 
1

>  <i_epik_Tot_abs_Q>  (344) 
1

>  <i_f3d_flags>  (344) 
0

>  <i_i_glide_confnum>  (344) 
6

>  <i_i_glide_lignum>  (344) 
1291

>  <i_i_glide_posenum>  (344) 
19

>  <i_i_glide_rotatable_bonds>  (344) 
8

>  <i_lp_mmshare_version>  (344) 
65135

>  <i_m_ct_format>  (344) 
2

>  <i_m_source_file_index>  (344) 
2823

>  <i_qp_#NandO>  (344) 
7

>  <i_qp_#acid>  (344) 
0

>  <i_qp_#amide>  (344) 
0

>  <i_qp_#amidine>  (344) 
0

>  <i_qp_#amine>  (344) 
1

>  <i_qp_#in34>  (344) 
0

>  <i_qp_#in56>  (344) 
22

>  <i_qp_#metab>  (344) 
8

>  <i_qp_#nonHatm>  (344) 
33

>  <i_qp_#noncon>  (344) 
0

>  <i_qp_#ringatoms>  (344) 
22

>  <i_qp_#rotor>  (344) 
7

>  <i_qp_#rtvFG>  (344) 
0

>  <i_qp_#stars>  (344) 
0

>  <i_qp_CNS>  (344) 
1

>  <i_qp_HumanOralAbsorption>  (344) 
3

>  <i_qp_RuleOfFive>  (344) 
0

>  <i_qp_RuleOfThree>  (344) 
1

>  <i_sd_BIOSOLVEIT.INFINISEE\_RESULT\_RANK>  (344) 
65838

>  <i_sd_version>  (344) 
0

>  <b_lp_Chiralities_Consistent>  (344) 
1

>  <b_sd_chiral_flag>  (344) 
0

>  <canonical_id>  (344) 
ATP-HTVS-38B17C32C2B1

>  <compound_code>  (344) 
90305

>  <title>  (344) 
rxn512c____EMOL36086203____EMOL43362984____EMOL50155899

>  <variant>  (344) 
90305-1

>  <source_file>  (344) 
运行/运行/ATP-VSW/ATP-VSW-DOCK_HTVS_1-001_lib/ATP-VSW-DOCK_HTVS_1-001_lib

>  <canonical_smiles>  (344) 
CN(C(=O)c1c(NCc2ccc(C[NH+](C)C)cc2)c2ccccc2[nH]c1=O)c1cccnc1

>  <scaffold>  (344) 
O=C(Nc1cccnc1)c1c(NCc2ccccc2)c2ccccc2[nH]c1=O

>  <molecular_formula>  (344) 
C26H28N5O2+

$$$$
ATP-HTVS-38BDED367A54
     RDKit          3D

 59 62  0  0  0  0  0  0  0  0999 V2000
  201.0515  175.8919  154.5273 O   0  0  0  0  0  0  0  0  0  0  0  0
  200.7892  176.3212  153.4002 C   0  0  0  0  0  0  0  0  0  0  0  0
  200.1092  177.4514  153.1625 N   0  0  0  0  0  0  0  0  0  0  0  0
  199.5468  178.3571  154.0994 C   0  0  0  0  0  0  0  0  0  0  0  0
  199.8538  178.3176  155.4180 N   0  0  0  0  0  0  0  0  0  0  0  0
  199.2558  179.2050  156.2398 C   0  0  0  0  0  0  0  0  0  0  0  0
  198.3389  180.1504  155.7418 C   0  0  0  0  0  0  0  0  0  0  0  0
  198.0157  180.2014  154.4308 N   0  0  0  0  0  0  0  0  0  0  0  0
  198.6171  179.3129  153.6063 C   0  0  0  0  0  0  0  0  0  0  0  0
  198.2389  179.4076  152.1815 C   0  0  0  0  0  0  0  0  0  0  0  0
  196.8817  179.4488  151.8066 C   0  0  0  0  0  0  0  0  0  0  0  0
  196.5143  179.5535  150.4498 C   0  0  0  0  0  0  0  0  0  0  0  0
  197.5072  179.5906  149.4533 C   0  0  0  0  0  0  0  0  0  0  0  0
  198.8636  179.5304  149.8083 C   0  0  0  0  0  0  0  0  0  0  0  0
  199.2261  179.4485  151.1663 C   0  0  0  0  0  0  0  0  0  0  0  0
  197.7284  181.1143  156.6306 C   0  0  0  0  0  0  0  0  0  0  0  0
  197.2169  181.9355  157.3634 C   0  0  0  0  0  0  0  0  0  0  0  0
  196.5982  182.9200  158.2309 C   0  0  0  0  0  0  0  0  0  0  0  0
  195.1979  182.9389  158.3950 C   0  0  0  0  0  0  0  0  0  0  0  0
  194.5987  183.9047  159.2237 C   0  0  0  0  0  0  0  0  0  0  0  0
  195.3953  184.8570  159.8949 C   0  0  0  0  0  0  0  0  0  0  0  0
  194.7814  185.8512  160.7578 C   0  0  0  0  0  0  0  0  0  0  0  0
  194.2926  186.6427  161.4512 N   0  0  0  0  0  0  0  0  0  0  0  0
  196.7967  184.8348  159.7293 C   0  0  0  0  0  0  0  0  0  0  0  0
  197.3963  183.8678  158.9018 C   0  0  0  0  0  0  0  0  0  0  0  0
  201.2139  175.5783  152.1599 C   0  0  0  0  0  0  0  0  0  0  0  0
  202.2796  174.6294  152.1523 C   0  0  0  0  0  0  0  0  0  0  0  0
  202.6420  173.9800  150.9438 C   0  0  0  0  0  0  0  0  0  0  0  0
  201.9595  174.2438  149.7425 C   0  0  0  0  0  0  0  0  0  0  0  0
  200.8906  175.1506  149.7386 C   0  0  0  0  0  0  0  0  0  0  0  0
  200.5108  175.7959  150.9334 C   0  0  0  0  0  0  0  0  0  0  0  0
  203.0685  174.2433  153.4051 C   0  0  1  0  0  0  0  0  0  0  0  0
  202.5213  173.0383  154.0856 N   0  0  1  0  0  0  0  0  0  0  0  0
  203.3149  172.6566  155.2730 C   0  0  2  0  0  0  0  0  0  0  0  0
  201.0732  173.0687  154.4206 C   0  0  2  0  0  0  0  0  0  0  0  0
  199.9132  177.6935  152.1824 H   0  0  0  0  0  0  0  0  0  0  0  0
  199.5187  179.1539  157.2929 H   0  0  0  0  0  0  0  0  0  0  0  0
  196.1144  179.4125  152.5670 H   0  0  0  0  0  0  0  0  0  0  0  0
  195.4730  179.6077  150.1820 H   0  0  0  0  0  0  0  0  0  0  0  0
  197.2295  179.6738  148.4126 H   0  0  0  0  0  0  0  0  0  0  0  0
  199.6322  179.5590  149.0502 H   0  0  0  0  0  0  0  0  0  0  0  0
  200.2760  179.4190  151.4165 H   0  0  0  0  0  0  0  0  0  0  0  0
  194.5815  182.2213  157.8680 H   0  0  0  0  0  0  0  0  0  0  0  0
  193.5227  183.9169  159.3352 H   0  0  0  0  0  0  0  0  0  0  0  0
  197.4181  185.5549  160.2439 H   0  0  0  0  0  0  0  0  0  0  0  0
  198.4709  183.8588  158.7784 H   0  0  0  0  0  0  0  0  0  0  0  0
  203.4524  173.2675  150.9238 H   0  0  0  0  0  0  0  0  0  0  0  0
  202.2454  173.7445  148.8185 H   0  0  0  0  0  0  0  0  0  0  0  0
  200.3543  175.3535  148.8198 H   0  0  0  0  0  0  0  0  0  0  0  0
  199.6648  176.4578  150.8588 H   0  0  0  0  0  0  0  0  0  0  0  0
  204.0997  174.0428  153.1104 H   0  0  0  0  0  0  0  0  0  0  0  0
  203.1707  175.0719  154.1034 H   0  0  0  0  0  0  0  0  0  0  0  0
  203.3018  173.4429  156.0314 H   0  0  0  0  0  0  0  0  0  0  0  0
  204.3507  172.4365  155.0061 H   0  0  0  0  0  0  0  0  0  0  0  0
  202.8962  171.7606  155.7286 H   0  0  0  0  0  0  0  0  0  0  0  0
  200.8724  173.7886  155.2126 H   0  0  0  0  0  0  0  0  0  0  0  0
  200.7355  172.0939  154.7621 H   0  0  0  0  0  0  0  0  0  0  0  0
  200.4582  173.3021  153.5502 H   0  0  0  0  0  0  0  0  0  0  0  0
  202.6548  172.2589  153.4473 H   0  0  0  0  0  0  0  0  0  0  0  0
  1  2  2  0
  2  3  1  0
  2 26  1  0
  3  4  1  0
  3 36  1  0
  4  5  1  0
  4  9  2  0
  5  6  2  0
  6  7  1  0
  6 37  1  0
  7  8  2  0
  7 16  1  0
  8  9  1  0
  9 10  1  0
 10 11  2  0
 10 15  1  0
 11 12  1  0
 11 38  1  0
 12 13  2  0
 12 39  1  0
 13 14  1  0
 13 40  1  0
 14 15  2  0
 14 41  1  0
 15 42  1  0
 16 17  3  0
 17 18  1  0
 18 19  1  0
 18 25  2  0
 19 20  2  0
 19 43  1  0
 20 21  1  0
 20 44  1  0
 21 22  1  0
 21 24  2  0
 22 23  3  0
 24 25  1  0
 24 45  1  0
 25 46  1  0
 26 27  1  0
 26 31  2  0
 27 28  2  0
 27 32  1  0
 28 29  1  0
 28 47  1  0
 29 30  2  0
 29 48  1  0
 30 31  1  0
 30 49  1  0
 31 50  1  0
 32 33  1  0
 32 51  1  6
 32 52  1  0
 33 34  1  0
 33 35  1  0
 33 59  1  6
 34 53  1  1
 34 54  1  0
 34 55  1  0
 35 56  1  1
 35 57  1  0
 35 58  1  0
M  CHG  1  33   1
M  END
>  <s_epik_cmdline>  (345) 
J2VwaWtfcHl0aG9uJywgJy1waCcsICc3LjAwMDAwMCcsICctcGh0JywgJzIuMDAwMDAwJywgJy1tcycsICcxNicsICctdG4nLCAnOCcsICctbWEnLCAnMjAwJywgJy1pbWFlJywgJzxpbmZpbGUubWFlPicsICctb21hZScsICc8b3V0ZmlsZS5tYWU+Jw==

>  <s_epik_input>  (345) 
W2NIXTFbY0hdW2NIXVtjSF1jKFtDSDJdTihbQ0gzXSlbQ0gzXSljMUMoPU8pW05IXWMybltjSF1jKG5jMi1jM1tjSF1bY0hdW2NIXVtjSF1bY0hdMylDI0NjNFtjSF1bY0hdYyhDI04pW2NIXVtjSF00

>  <s_i_glide_gridfile>  (345) 
ATP-Grid

>  <s_lp_Force_Field>  (345) 
OPLS_2005

>  <s_lp_Variant>  (345) 
rxn505a____EMOL5415347____EMOL313123100____EMOL523161-1

>  <s_lp_label>  (345) 
2948_sdstereoexpander_1_neutralizer_1_epik_1_stereoizer_1

>  <s_m_source_file>  (345) 
ATP-VSW-LIGPREP-003-in.maegz

>  <s_sd_BIOSOLVEIT.INFINISEE\_QUERY\_NAME>  (345) 
Ref-Lig

>  <s_sd_BIOSOLVEIT.INFINISEE\_QUERY\_SMILES>  (345) 
S(c1nc2c(cc1C[NH2+]Cc3ccc(cc3)C[NH+](C)C)cccc2)Cc4ccccc4

>  <s_sd_BIOSOLVEIT.INFINISEE\_REACTION\_NAME>  (345) 
rxn505a

>  <s_sd_BIOSOLVEIT.INFINISEE\_REAGENT1\_NAME>  (345) 
EMOL5415347

>  <s_sd_BIOSOLVEIT.INFINISEE\_REAGENT1\_SMILES>  (345) 
O=C(O)c1c(cccc1)CN(C)C

>  <s_sd_BIOSOLVEIT.INFINISEE\_REAGENT2\_NAME>  (345) 
EMOL313123100

>  <s_sd_BIOSOLVEIT.INFINISEE\_REAGENT2\_SMILES>  (345) 
n1c(C#C)cnc(N)c1c2ccccc2

>  <s_sd_BIOSOLVEIT.INFINISEE\_REAGENT3\_NAME>  (345) 
EMOL523161

>  <s_sd_BIOSOLVEIT.INFINISEE\_REAGENT3\_SMILES>  (345) 
Ic1ccc(C#N)cc1

>  <s_sd_BIOSOLVEIT.INFINISEE\_SPACE>  (345) 
eXplore_7tr_2022-12

>  <s_vsw_compound_code>  (345) 
94307

>  <s_vsw_variant>  (345) 
94307-1

>  <r_epik_Charging_Adjusted_Penalty>  (345) 
0.12133168554462501

>  <r_epik_Ionization_Penalty>  (345) 
0.063200000000000006

>  <r_epik_Ionization_Penalty_Charging>  (345) 
0.060699999999999997

>  <r_epik_Ionization_Penalty_Neutral>  (345) 
0.0025000000000000001

>  <r_epik_State_Penalty>  (345) 
0.060699999999999997

>  <r_i_docking_score>  (345) 
-4.4805402179743696

>  <r_i_glide_ecoul>  (345) 
-5.23531293869019

>  <r_i_glide_eff_state_penalty>  (345) 
0.060699999999999997

>  <r_i_glide_einternal>  (345) 
1.2436841726303101

>  <r_i_glide_emodel>  (345) 
-62.303114441497698

>  <r_i_glide_energy>  (345) 
-46.457934856414802

>  <r_i_glide_erotb>  (345) 
0.66964307052080296

>  <r_i_glide_esite>  (345) 
-0.086503114967013406

>  <r_i_glide_evdw>  (345) 
-41.222621917724602

>  <r_i_glide_gscore>  (345) 
-4.5412402179743703

>  <r_i_glide_hbond>  (345) 
-0.046494768553090003

>  <r_i_glide_ligand_efficiency>  (345) 
-0.128015434799268

>  <r_i_glide_ligand_efficiency_ln>  (345) 
-0.98357801807781398

>  <r_i_glide_ligand_efficiency_sa>  (345) 
-0.41874697545976503

>  <r_i_glide_lipo>  (345) 
-1.4116136091125999

>  <r_i_glide_metal>  (345) 
-0

>  <r_i_glide_rewards>  (345) 
-0.81984375917270602

>  <r_lp_Energy>  (345) 
35.985202000000001

>  <r_qp_ACxDN^.5/SA>  (345) 
0.0093802999999999994

>  <r_qp_CIQPlogS>  (345) 
-6.6920000000000002

>  <r_qp_EA(eV)>  (345) 
1.218

>  <r_qp_FISA>  (345) 
118.19199999999999

>  <r_qp_FOSA>  (345) 
163.51900000000001

>  <r_qp_IP(eV)>  (345) 
8.9559999999999995

>  <r_qp_Jm>  (345) 
2.9921321609099199e-05

>  <r_qp_PISA>  (345) 
571.14200000000005

>  <r_qp_PSA>  (345) 
81.965000000000003

>  <r_qp_PercentHumanOralAbsorption>  (345) 
95.662999999999997

>  <r_qp_QPPCaco>  (345) 
187.06299999999999

>  <r_qp_QPPMDCK>  (345) 
89.399000000000001

>  <r_qp_QPlogBB>  (345) 
-0.91600000000000004

>  <r_qp_QPlogHERG>  (345) 
-9.0039999999999996

>  <r_qp_QPlogKhsa>  (345) 
0.78900000000000003

>  <r_qp_QPlogKp>  (345) 
-2.98

>  <r_qp_QPlogPC16>  (345) 
17.824999999999999

>  <r_qp_QPlogPo/w>  (345) 
4.7910000000000004

>  <r_qp_QPlogPoct>  (345) 
25.228999999999999

>  <r_qp_QPlogPw>  (345) 
14.039999999999999

>  <r_qp_QPlogS>  (345) 
-7.2039999999999997

>  <r_qp_QPpolrz>  (345) 
55.213000000000001

>  <r_qp_SASA>  (345) 
852.85299999999995

>  <r_qp_SAamideO>  (345) 
0

>  <r_qp_SAfluorine>  (345) 
0

>  <r_qp_WPSA>  (345) 
0

>  <r_qp_accptHB>  (345) 
8

>  <r_qp_dip^2/V>  (345) 
0.060881699999999997

>  <r_qp_dipole>  (345) 
9.6370000000000005

>  <r_qp_donorHB>  (345) 
1

>  <r_qp_glob>  (345) 
0.75143530000000003

>  <r_qp_mol_MW>  (345) 
457.53399999999999

>  <r_qp_volume>  (345) 
1525.46

>  <r_sd_BIOSOLVEIT.INFINISEE\_FTREES\_SIMILARITY>  (345) 
0.90300000000000002

>  <r_sd_BIOSOLVEIT.LOGP>  (345) 
3.3118799999999999

>  <r_sd_BIOSOLVEIT.MOLECULAR\_WEIGHT>  (345) 
458.54300000000001

>  <r_sd_BIOSOLVEIT.TPSA>  (345) 
83.109999999999999

>  <i_epik_Tot_Q>  (345) 
1

>  <i_epik_Tot_abs_Q>  (345) 
1

>  <i_f3d_flags>  (345) 
0

>  <i_i_glide_confnum>  (345) 
5

>  <i_i_glide_lignum>  (345) 
1463

>  <i_i_glide_posenum>  (345) 
16

>  <i_i_glide_rotatable_bonds>  (345) 
8

>  <i_lp_mmshare_version>  (345) 
65135

>  <i_m_ct_format>  (345) 
2

>  <i_m_source_file_index>  (345) 
2948

>  <i_qp_#NandO>  (345) 
6

>  <i_qp_#acid>  (345) 
0

>  <i_qp_#amide>  (345) 
0

>  <i_qp_#amidine>  (345) 
0

>  <i_qp_#amine>  (345) 
1

>  <i_qp_#in34>  (345) 
0

>  <i_qp_#in56>  (345) 
24

>  <i_qp_#metab>  (345) 
3

>  <i_qp_#nonHatm>  (345) 
35

>  <i_qp_#noncon>  (345) 
0

>  <i_qp_#ringatoms>  (345) 
24

>  <i_qp_#rotor>  (345) 
8

>  <i_qp_#rtvFG>  (345) 
0

>  <i_qp_#stars>  (345) 
2

>  <i_qp_CNS>  (345) 
0

>  <i_qp_HumanOralAbsorption>  (345) 
1

>  <i_qp_RuleOfFive>  (345) 
0

>  <i_qp_RuleOfThree>  (345) 
1

>  <i_sd_BIOSOLVEIT.INFINISEE\_RESULT\_RANK>  (345) 
79952

>  <i_sd_version>  (345) 
0

>  <b_lp_Chiralities_Consistent>  (345) 
1

>  <b_sd_chiral_flag>  (345) 
0

>  <canonical_id>  (345) 
ATP-HTVS-38BDED367A54

>  <compound_code>  (345) 
94307

>  <title>  (345) 
rxn505a____EMOL5415347____EMOL313123100____EMOL523161

>  <variant>  (345) 
94307-1

>  <source_file>  (345) 
运行/运行/ATP-VSW/ATP-VSW-DOCK_HTVS_1-003_lib/ATP-VSW-DOCK_HTVS_1-003_lib.mae

>  <canonical_smiles>  (345) 
C[NH+](C)Cc1ccccc1C(=O)Nc1ncc(C#Cc2ccc(C#N)cc2)nc1-c1ccccc1

>  <scaffold>  (345) 
O=C(Nc1ncc(C#Cc2ccccc2)nc1-c1ccccc1)c1ccccc1

>  <molecular_formula>  (345) 
C29H24N5O+

$$$$
ATP-HTVS-391C9D64EC7D
     RDKit          3D

 49 51  0  0  0  0  0  0  0  0999 V2000
  197.5490  189.1537  160.5329 O   0  0  0  0  0  0  0  0  0  0  0  0
  196.7444  188.0440  160.5307 C   0  0  0  0  0  0  0  0  0  0  0  0
  197.1339  186.8932  159.8096 C   0  0  0  0  0  0  0  0  0  0  0  0
  196.3258  185.7282  159.7991 C   0  0  0  0  0  0  0  0  0  0  0  0
  196.7412  184.5092  159.0702 C   0  0  0  0  0  0  0  0  0  0  0  0
  195.8531  183.4403  158.7850 C   0  0  0  0  0  0  0  0  0  0  0  0
  196.2460  182.3156  158.1577 N   0  0  0  0  0  0  0  0  0  0  0  0
  197.5227  182.2553  157.7817 C   0  0  0  0  0  0  0  0  0  0  0  0
  198.4561  183.1834  157.9775 N   0  0  0  0  0  0  0  0  0  0  0  0
  198.0709  184.2979  158.6299 C   0  0  0  0  0  0  0  0  0  0  0  0
  197.9451  181.0291  157.0018 C   0  0  1  0  0  0  0  0  0  0  0  0
  196.9233  180.6507  156.0203 N   0  0  1  0  0  0  0  0  0  0  0  0
  196.6080  181.6712  154.9962 C   0  0  1  0  0  0  0  0  0  0  0  0
  196.9552  181.2089  153.5925 C   0  0  0  0  0  0  0  0  0  0  0  0
  197.1999  179.8462  153.2993 C   0  0  0  0  0  0  0  0  0  0  0  0
  197.5402  179.4539  151.9974 C   0  0  0  0  0  0  0  0  0  0  0  0
  197.6123  180.4073  150.9637 C   0  0  0  0  0  0  0  0  0  0  0  0
  197.3569  181.7661  151.2390 C   0  0  0  0  0  0  0  0  0  0  0  0
  197.0319  182.1632  152.5516 C   0  0  0  0  0  0  0  0  0  0  0  0
  197.9737  179.9531  149.5668 C   0  0  1  0  0  0  0  0  0  0  0  0
  196.9317  178.9890  148.9779 C   0  0  1  0  0  0  0  0  0  0  0  0
  197.3484  178.4233  147.6182 C   0  0  2  0  0  0  0  0  0  0  0  0
  195.1113  185.7625  160.5267 C   0  0  0  0  0  0  0  0  0  0  0  0
  194.7261  186.9050  161.2531 C   0  0  0  0  0  0  0  0  0  0  0  0
  195.5459  188.0496  161.2557 C   0  0  0  0  0  0  0  0  0  0  0  0
  197.2399  179.8080  155.5675 H   0  0  0  0  0  0  0  0  0  0  0  0
  198.1583  189.1960  161.2727 H   0  0  0  0  0  0  0  0  0  0  0  0
  198.0696  186.9396  159.2662 H   0  0  0  0  0  0  0  0  0  0  0  0
  194.7999  183.4707  159.0379 H   0  0  0  0  0  0  0  0  0  0  0  0
  198.8587  185.0241  158.7775 H   0  0  0  0  0  0  0  0  0  0  0  0
  198.8999  181.1980  156.4964 H   0  0  0  0  0  0  0  0  0  0  0  0
  198.0659  180.1967  157.6983 H   0  0  0  0  0  0  0  0  0  0  0  0
  195.5466  181.8724  155.0356 H   0  0  0  0  0  0  0  0  0  0  0  0
  197.1141  182.6284  155.1702 H   0  0  0  0  0  0  0  0  0  0  0  0
  197.1479  179.0697  154.0484 H   0  0  0  0  0  0  0  0  0  0  0  0
  197.7468  178.4104  151.8074 H   0  0  0  0  0  0  0  0  0  0  0  0
  197.4147  182.5088  150.4560 H   0  0  0  0  0  0  0  0  0  0  0  0
  196.8430  183.2080  152.7609 H   0  0  0  0  0  0  0  0  0  0  0  0
  198.0952  180.8183  148.9150 H   0  0  0  0  0  0  0  0  0  0  0  0
  198.9480  179.4638  149.6202 H   0  0  0  0  0  0  0  0  0  0  0  0
  196.7768  178.1531  149.6604 H   0  0  0  0  0  0  0  0  0  0  0  0
  195.9693  179.4955  148.8977 H   0  0  0  0  0  0  0  0  0  0  0  0
  196.6028  177.7167  147.2515 H   0  0  0  0  0  0  0  0  0  0  0  0
  198.2988  177.8946  147.6911 H   0  0  0  0  0  0  0  0  0  0  0  0
  197.4593  179.2158  146.8791 H   0  0  0  0  0  0  0  0  0  0  0  0
  194.4415  184.9139  160.5387 H   0  0  0  0  0  0  0  0  0  0  0  0
  193.7841  186.9096  161.7899 H   0  0  0  0  0  0  0  0  0  0  0  0
  195.2433  188.9341  161.7949 H   0  0  0  0  0  0  0  0  0  0  0  0
  196.1089  180.4239  156.5931 H   0  0  0  0  0  0  0  0  0  0  0  0
  1  2  1  0
  1 27  1  0
  2  3  2  0
  2 25  1  0
  3  4  1  0
  3 28  1  0
  4  5  1  0
  4 23  2  0
  5  6  2  0
  5 10  1  0
  6  7  1  0
  6 29  1  0
  7  8  2  0
  8  9  1  0
  8 11  1  0
  9 10  2  0
 10 30  1  0
 11 12  1  0
 11 31  1  6
 11 32  1  0
 12 13  1  0
 12 26  1  6
 12 49  1  0
 13 14  1  0
 13 33  1  6
 13 34  1  0
 14 15  1  0
 14 19  2  0
 15 16  2  0
 15 35  1  0
 16 17  1  0
 16 36  1  0
 17 18  2  0
 17 20  1  0
 18 19  1  0
 18 37  1  0
 19 38  1  0
 20 21  1  0
 20 39  1  6
 20 40  1  0
 21 22  1  0
 21 41  1  1
 21 42  1  0
 22 43  1  6
 22 44  1  0
 22 45  1  0
 23 24  1  0
 23 46  1  0
 24 25  2  0
 24 47  1  0
 25 48  1  0
M  CHG  1  12   1
M  END
>  <s_epik_cmdline>  (346) 
J2VwaWtfcHl0aG9uJywgJy1waCcsICc3LjAwMDAwMCcsICctcGh0JywgJzIuMDAwMDAwJywgJy1tcycsICcxNicsICctdG4nLCAnOCcsICctbWEnLCAnMjAwJywgJy1pbWFlJywgJzxpbmZpbGUubWFlPicsICctb21hZScsICc8b3V0ZmlsZS5tYWU+Jw==

>  <s_epik_input>  (346) 
W09IXWMxW2NIXWMoW2NIXVtjSF1bY0hdMSktYzJbY0hdbmMobltjSF0yKVtDSDJdW05IXVtDSDJdYzNbY0hdW2NIXWMoW2NIXVtjSF0zKVtDSDJdW0NIMl1bQ0gzXQ==

>  <s_i_glide_gridfile>  (346) 
ATP-Grid

>  <s_lp_Force_Field>  (346) 
OPLS_2005

>  <s_lp_Variant>  (346) 
WXDL_15E____QS1365____LN00190257____BT2076-1

>  <s_lp_label>  (346) 
643_sdstereoexpander_1_neutralizer_1_epik_1_stereoizer_1

>  <s_m_source_file>  (346) 
ATP-VSW-LIGPREP-003-in.maegz

>  <s_sd_BIOSOLVEIT.INFINISEE\_QUERY\_NAME>  (346) 
Ref-Lig

>  <s_sd_BIOSOLVEIT.INFINISEE\_QUERY\_SMILES>  (346) 
S(c1nc2c(cc1C[NH2+]Cc3ccc(cc3)C[NH+](C)C)cccc2)Cc4ccccc4

>  <s_sd_BIOSOLVEIT.INFINISEE\_REACTION\_NAME>  (346) 
WXDL_15E

>  <s_sd_BIOSOLVEIT.INFINISEE\_REAGENT1\_NAME>  (346) 
QS1365

>  <s_sd_BIOSOLVEIT.INFINISEE\_REAGENT1\_SMILES>  (346) 
O=Cc1ccc(cc1)CCC

>  <s_sd_BIOSOLVEIT.INFINISEE\_REAGENT2\_NAME>  (346) 
LN00190257

>  <s_sd_BIOSOLVEIT.INFINISEE\_REAGENT2\_SMILES>  (346) 
Brc1cnc(nc1)CNC(=O)OC(C)(C)C

>  <s_sd_BIOSOLVEIT.INFINISEE\_REAGENT3\_NAME>  (346) 
BT2076

>  <s_sd_BIOSOLVEIT.INFINISEE\_REAGENT3\_SMILES>  (346) 
O(C(C(O)(C)C)(C)C)B(O)c1cc(O)ccc1

>  <s_sd_BIOSOLVEIT.INFINISEE\_SPACE>  (346) 
GalaXi_12bn_2023-03

>  <s_vsw_compound_code>  (346) 
20547

>  <s_vsw_variant>  (346) 
20547-1

>  <r_epik_Charging_Adjusted_Penalty>  (346) 
0.443309647496412

>  <r_epik_Ionization_Penalty>  (346) 
0.22900000000000001

>  <r_epik_Ionization_Penalty_Charging>  (346) 
0.2261

>  <r_epik_Ionization_Penalty_Neutral>  (346) 
0.0028999999999999998

>  <r_epik_State_Penalty>  (346) 
0.2172

>  <r_i_docking_score>  (346) 
-5.3563590972155399

>  <r_i_glide_ecoul>  (346) 
-9.8132238388061506

>  <r_i_glide_eff_state_penalty>  (346) 
0.2172

>  <r_i_glide_einternal>  (346) 
12.2040414810181

>  <r_i_glide_emodel>  (346) 
-55.497513993991497

>  <r_i_glide_energy>  (346) 
-40.369025230407701

>  <r_i_glide_erotb>  (346) 
1.0117689745127301

>  <r_i_glide_esite>  (346) 
-0.141834847424953

>  <r_i_glide_evdw>  (346) 
-30.555801391601602

>  <r_i_glide_gscore>  (346) 
-5.57355909721554

>  <r_i_glide_hbond>  (346) 
-0.30396289775416602

>  <r_i_glide_ligand_efficiency>  (346) 
-0.21425436388862201

>  <r_i_glide_ligand_efficiency_ln>  (346) 
-1.2696176231692899

>  <r_i_glide_ligand_efficiency_sa>  (346) 
-0.62648355982765302

>  <r_i_glide_lipo>  (346) 
-1.78590277205724

>  <r_i_glide_metal>  (346) 
-0

>  <r_i_glide_rewards>  (346) 
-1.3538539090909101

>  <r_lp_Energy>  (346) 
6.600276

>  <r_lp_tautomer_probability>  (346) 
0.999999999997365

>  <r_qp_ACxDN^.5/SA>  (346) 
0.0086753999999999998

>  <r_qp_CIQPlogS>  (346) 
-4.2439999999999998

>  <r_qp_EA(eV)>  (346) 
0.89500000000000002

>  <r_qp_FISA>  (346) 
103.49299999999999

>  <r_qp_FOSA>  (346) 
238.34700000000001

>  <r_qp_IP(eV)>  (346) 
9.109

>  <r_qp_Jm>  (346) 
0.0023723375522210701

>  <r_qp_PISA>  (346) 
350.97300000000001

>  <r_qp_PSA>  (346) 
60.563000000000002

>  <r_qp_PercentHumanOralAbsorption>  (346) 
93.197999999999993

>  <r_qp_QPPCaco>  (346) 
257.85300000000001

>  <r_qp_QPPMDCK>  (346) 
126.47199999999999

>  <r_qp_QPlogBB>  (346) 
-0.64300000000000002

>  <r_qp_QPlogHERG>  (346) 
-7.4260000000000002

>  <r_qp_QPlogKhsa>  (346) 
0.60399999999999998

>  <r_qp_QPlogKp>  (346) 
-3.4849999999999999

>  <r_qp_QPlogPC16>  (346) 
12.984999999999999

>  <r_qp_QPlogPo/w>  (346) 
3.944

>  <r_qp_QPlogPoct>  (346) 
18.065999999999999

>  <r_qp_QPlogPw>  (346) 
9.8290000000000006

>  <r_qp_QPlogS>  (346) 
-4.6630000000000003

>  <r_qp_QPpolrz>  (346) 
39.700000000000003

>  <r_qp_SASA>  (346) 
692.81299999999999

>  <r_qp_SAamideO>  (346) 
0

>  <r_qp_SAfluorine>  (346) 
0

>  <r_qp_WPSA>  (346) 
0

>  <r_qp_accptHB>  (346) 
4.25

>  <r_qp_dip^2/V>  (346) 
0.0023151000000000001

>  <r_qp_dipole>  (346) 
1.6599999999999999

>  <r_qp_donorHB>  (346) 
2

>  <r_qp_glob>  (346) 
0.78404339999999995

>  <r_qp_mol_MW>  (346) 
333.43200000000002

>  <r_qp_volume>  (346) 
1190.384

>  <r_sd_BIOSOLVEIT.INFINISEE\_FTREES\_SIMILARITY>  (346) 
0.90100000000000002

>  <r_sd_BIOSOLVEIT.LOGP>  (346) 
3.0653000000000001

>  <r_sd_BIOSOLVEIT.MOLECULAR\_WEIGHT>  (346) 
334.44099999999997

>  <r_sd_BIOSOLVEIT.TPSA>  (346) 
62.619999999999997

>  <i_epik_Tot_Q>  (346) 
1

>  <i_epik_Tot_abs_Q>  (346) 
1

>  <i_f3d_flags>  (346) 
0

>  <i_i_glide_confnum>  (346) 
7

>  <i_i_glide_lignum>  (346) 
267

>  <i_i_glide_posenum>  (346) 
17

>  <i_i_glide_rotatable_bonds>  (346) 
8

>  <i_lp_mmshare_version>  (346) 
65135

>  <i_m_ct_format>  (346) 
2

>  <i_m_source_file_index>  (346) 
643

>  <i_qp_#NandO>  (346) 
4

>  <i_qp_#acid>  (346) 
0

>  <i_qp_#amide>  (346) 
0

>  <i_qp_#amidine>  (346) 
0

>  <i_qp_#amine>  (346) 
1

>  <i_qp_#in34>  (346) 
0

>  <i_qp_#in56>  (346) 
18

>  <i_qp_#metab>  (346) 
7

>  <i_qp_#nonHatm>  (346) 
25

>  <i_qp_#noncon>  (346) 
0

>  <i_qp_#ringatoms>  (346) 
18

>  <i_qp_#rotor>  (346) 
8

>  <i_qp_#rtvFG>  (346) 
0

>  <i_qp_#stars>  (346) 
0

>  <i_qp_CNS>  (346) 
1

>  <i_qp_HumanOralAbsorption>  (346) 
3

>  <i_qp_RuleOfFive>  (346) 
0

>  <i_qp_RuleOfThree>  (346) 
1

>  <i_sd_BIOSOLVEIT.INFINISEE\_RESULT\_RANK>  (346) 
98411

>  <i_sd_version>  (346) 
0

>  <b_lp_Chiralities_Consistent>  (346) 
1

>  <b_sd_chiral_flag>  (346) 
0

>  <canonical_id>  (346) 
ATP-HTVS-391C9D64EC7D

>  <compound_code>  (346) 
20547

>  <title>  (346) 
WXDL_15E____QS1365____LN00190257____BT2076

>  <variant>  (346) 
20547-1

>  <source_file>  (346) 
运行/运行/ATP-VSW/ATP-VSW-DOCK_HTVS_1-003_lib/ATP-VSW-DOCK_HTVS_1-003_lib.mae

>  <canonical_smiles>  (346) 
CCCc1ccc(C[NH2+]Cc2ncc(-c3cccc(O)c3)cn2)cc1

>  <scaffold>  (346) 
c1ccc(C[NH2+]Cc2ncc(-c3ccccc3)cn2)cc1

>  <molecular_formula>  (346) 
C21H24N3O+

$$$$
ATP-HTVS-394457ED9ABE
     RDKit          3D

 74 77  0  0  0  0  0  0  0  0999 V2000
  200.4809  182.8034  146.9183 O   0  0  0  0  0  0  0  0  0  0  0  0
  200.7680  184.1042  147.4014 C   0  0  1  0  0  0  0  0  0  0  0  0
  199.4578  184.8687  147.6952 C   0  0  1  0  0  0  0  0  0  0  0  0
  198.5946  184.3372  148.7624 N   0  0  0  0  0  0  0  0  0  0  0  0
  199.2971  184.4287  150.0527 C   0  0  1  0  0  0  0  0  0  0  0  0
  198.5762  183.6900  151.1507 C   0  0  0  0  0  0  0  0  0  0  0  0
  197.9942  184.4260  152.2146 C   0  0  0  0  0  0  0  0  0  0  0  0
  197.2643  183.7580  153.1930 C   0  0  0  0  0  0  0  0  0  0  0  0
  197.2335  182.3375  153.2471 C   0  0  0  0  0  0  0  0  0  0  0  0
  197.8566  181.6046  152.2192 C   0  0  0  0  0  0  0  0  0  0  0  0
  198.5228  182.2857  151.1738 C   0  0  0  0  0  0  0  0  0  0  0  0
  196.5336  181.6429  154.4074 C   0  0  1  0  0  0  0  0  0  0  0  0
  197.3306  181.6989  155.6674 N   0  0  2  0  0  0  0  0  0  0  0  0
  197.8222  183.0676  156.0020 C   0  0  1  0  0  0  0  0  0  0  0  0
  198.5588  183.1313  157.3018 C   0  0  0  0  0  0  0  0  0  0  0  0
  198.0725  183.4861  158.5904 C   0  0  0  0  0  0  0  0  0  0  0  0
  199.0459  183.4841  159.4879 N   0  0  0  0  0  0  0  0  0  0  0  0
  200.1653  183.1077  158.8221 N   0  0  0  0  0  0  0  0  0  0  0  0
  201.3904  182.9061  159.4997 C   0  0  0  0  0  0  0  0  0  0  0  0
  201.5491  183.3821  160.8177 C   0  0  0  0  0  0  0  0  0  0  0  0
  202.7617  183.2091  161.5005 C   0  0  0  0  0  0  0  0  0  0  0  0
  203.8325  182.5493  160.8737 C   0  0  0  0  0  0  0  0  0  0  0  0
  203.6814  182.0513  159.5651 C   0  0  0  0  0  0  0  0  0  0  0  0
  202.4615  182.2197  158.8799 C   0  0  0  0  0  0  0  0  0  0  0  0
  199.8970  182.9371  157.4855 C   0  0  0  0  0  0  0  0  0  0  0  0
  196.7035  183.8299  158.9745 C   0  0  0  0  0  0  0  0  0  0  0  0
  196.4718  184.8224  159.9476 C   0  0  0  0  0  0  0  0  0  0  0  0
  195.2424  185.2213  160.3341 N   0  0  0  0  0  0  0  0  0  0  0  0
  194.1797  184.6355  159.7453 C   0  0  0  0  0  0  0  0  0  0  0  0
  194.2883  183.6355  158.7636 C   0  0  0  0  0  0  0  0  0  0  0  0
  195.5736  183.2215  158.3752 C   0  0  0  0  0  0  0  0  0  0  0  0
  198.3881  180.6634  155.7145 C   0  0  2  0  0  0  0  0  0  0  0  0
  197.2882  185.0228  148.7614 C   0  0  1  0  0  0  0  0  0  0  0  0
  196.1826  184.4166  149.6592 C   0  0  2  0  0  0  0  0  0  0  0  0
  201.6401  182.0256  146.6828 C   0  0  1  0  0  0  0  0  0  0  0  0
  201.2223  180.6429  146.1764 C   0  0  2  0  0  0  0  0  0  0  0  0
  201.4173  184.0470  148.2814 H   0  0  0  0  0  0  0  0  0  0  0  0
  201.3465  184.6445  146.6567 H   0  0  0  0  0  0  0  0  0  0  0  0
  199.7043  185.8994  147.9278 H   0  0  0  0  0  0  0  0  0  0  0  0
  198.8939  184.9112  146.7678 H   0  0  0  0  0  0  0  0  0  0  0  0
  200.3036  183.9956  150.0058 H   0  0  0  0  0  0  0  0  0  0  0  0
  199.4459  185.4734  150.3357 H   0  0  0  0  0  0  0  0  0  0  0  0
  198.1061  185.5004  152.2652 H   0  0  0  0  0  0  0  0  0  0  0  0
  196.6970  184.3532  153.8979 H   0  0  0  0  0  0  0  0  0  0  0  0
  197.7871  180.5257  152.1987 H   0  0  0  0  0  0  0  0  0  0  0  0
  198.9756  181.7190  150.3694 H   0  0  0  0  0  0  0  0  0  0  0  0
  195.5605  182.0912  154.5714 H   0  0  0  0  0  0  0  0  0  0  0  0
  196.3334  180.6017  154.1486 H   0  0  0  0  0  0  0  0  0  0  0  0
  198.5178  183.4243  155.2421 H   0  0  0  0  0  0  0  0  0  0  0  0
  196.9824  183.7603  156.0156 H   0  0  0  0  0  0  0  0  0  0  0  0
  200.7420  183.8938  161.3162 H   0  0  0  0  0  0  0  0  0  0  0  0
  202.8567  183.5936  162.5041 H   0  0  0  0  0  0  0  0  0  0  0  0
  204.7668  182.4275  161.4008 H   0  0  0  0  0  0  0  0  0  0  0  0
  204.5051  181.5453  159.0846 H   0  0  0  0  0  0  0  0  0  0  0  0
  202.3712  181.8212  157.8793 H   0  0  0  0  0  0  0  0  0  0  0  0
  200.6577  182.6827  156.7647 H   0  0  0  0  0  0  0  0  0  0  0  0
  197.3056  185.3146  160.4245 H   0  0  0  0  0  0  0  0  0  0  0  0
  193.2107  184.9672  160.0853 H   0  0  0  0  0  0  0  0  0  0  0  0
  193.4084  183.1951  158.3126 H   0  0  0  0  0  0  0  0  0  0  0  0
  195.6580  182.4579  157.6146 H   0  0  0  0  0  0  0  0  0  0  0  0
  199.1451  180.8618  154.9555 H   0  0  0  0  0  0  0  0  0  0  0  0
  197.9677  179.6673  155.5549 H   0  0  0  0  0  0  0  0  0  0  0  0
  198.8730  180.6243  156.6863 H   0  0  0  0  0  0  0  0  0  0  0  0
  197.4386  186.0601  149.0359 H   0  0  0  0  0  0  0  0  0  0  0  0
  196.9278  185.0528  147.7504 H   0  0  0  0  0  0  0  0  0  0  0  0
  195.2384  184.9894  149.5362 H   0  0  0  0  0  0  0  0  0  0  0  0
  196.4323  184.3475  150.7141 H   0  0  0  0  0  0  0  0  0  0  0  0
  195.9515  183.4145  149.2970 H   0  0  0  0  0  0  0  0  0  0  0  0
  202.2831  182.5132  145.9504 H   0  0  0  0  0  0  0  0  0  0  0  0
  202.2141  181.9218  147.6036 H   0  0  0  0  0  0  0  0  0  0  0  0
  202.0935  180.0133  145.9909 H   0  0  0  0  0  0  0  0  0  0  0  0
  200.6643  180.7220  145.2448 H   0  0  0  0  0  0  0  0  0  0  0  0
  200.5926  180.1333  146.9052 H   0  0  0  0  0  0  0  0  0  0  0  0
  196.6799  181.4399  156.3959 H   0  0  0  0  0  0  0  0  0  0  0  0
  1  2  1  0
  1 35  1  0
  2  3  1  0
  2 37  1  1
  2 38  1  0
  3  4  1  0
  3 39  1  1
  3 40  1  0
  4  5  1  0
  4 33  1  0
  5  6  1  0
  5 41  1  6
  5 42  1  0
  6  7  1  0
  6 11  2  0
  7  8  2  0
  7 43  1  0
  8  9  1  0
  8 44  1  0
  9 10  2  0
  9 12  1  0
 10 11  1  0
 10 45  1  0
 11 46  1  0
 12 13  1  0
 12 47  1  1
 12 48  1  0
 13 14  1  0
 13 32  1  0
 13 74  1  1
 14 15  1  0
 14 49  1  6
 14 50  1  0
 15 16  1  0
 15 25  2  0
 16 17  2  0
 16 26  1  0
 17 18  1  0
 18 19  1  0
 18 25  1  0
 19 20  2  0
 19 24  1  0
 20 21  1  0
 20 51  1  0
 21 22  2  0
 21 52  1  0
 22 23  1  0
 22 53  1  0
 23 24  2  0
 23 54  1  0
 24 55  1  0
 25 56  1  0
 26 27  2  0
 26 31  1  0
 27 28  1  0
 27 57  1  0
 28 29  2  0
 29 30  1  0
 29 58  1  0
 30 31  2  0
 30 59  1  0
 31 60  1  0
 32 61  1  6
 32 62  1  0
 32 63  1  0
 33 34  1  0
 33 64  1  1
 33 65  1  0
 34 66  1  1
 34 67  1  0
 34 68  1  0
 35 36  1  0
 35 69  1  6
 35 70  1  0
 36 71  1  6
 36 72  1  0
 36 73  1  0
M  CHG  1  13   1
M  END
>  <s_epik_cmdline>  (347) 
J2VwaWtfcHl0aG9uJywgJy1waCcsICc3LjAwMDAwMCcsICctcGh0JywgJzIuMDAwMDAwJywgJy1tcycsICcxNicsICctdG4nLCAnOCcsICctbWEnLCAnMjAwJywgJy1pbWFlJywgJzxpbmZpbGUubWFlPicsICctb21hZScsICc8b3V0ZmlsZS5tYWU+Jw==

>  <s_epik_input>  (347) 
W0NIM11bQ0gyXU9bQ0gyXVtDSDJdTihbQ0gyXVtDSDNdKVtDSDJdYzFbY0hdW2NIXWMoW2NIXVtjSF0xKVtDSDJdTihbQ0gzXSlbQ0gyXWMyYygtYzNbY0hdbltjSF1bY0hdW2NIXTMpbm4oW2NIXTIpLWM0W2NIXVtjSF1bY0hdW2NIXVtjSF00

>  <s_i_glide_gridfile>  (347) 
ATP-Grid

>  <s_lp_Force_Field>  (347) 
OPLS_2005

>  <s_lp_Variant>  (347) 
m_270004bca____18336990____7547738-7

>  <s_lp_label>  (347) 
2097_sdstereoexpander_1_neutralizer_1_epik_3_stereoizer_1

>  <s_m_source_file>  (347) 
ATP-VSW-LIGPREP-001-in.maegz

>  <s_sd_BIOSOLVEIT.INFINISEE\_QUERY\_NAME>  (347) 
Ref-Lig

>  <s_sd_BIOSOLVEIT.INFINISEE\_QUERY\_SMILES>  (347) 
S(c1nc2c(cc1C[NH2+]Cc3ccc(cc3)C[NH+](C)C)cccc2)Cc4ccccc4

>  <s_sd_BIOSOLVEIT.INFINISEE\_REACTION\_NAME>  (347) 
m_270004bca

>  <s_sd_BIOSOLVEIT.INFINISEE\_REAGENT1\_SMILES>  (347) 
[R1*]N(Cc1ccc(cc1)CN(CCOCC)CC)C

>  <s_sd_BIOSOLVEIT.INFINISEE\_REAGENT2\_SMILES>  (347) 
[R1*]CC=1C(=NN(c2ccccc2)C1)c3cnccc3

>  <s_sd_BIOSOLVEIT.INFINISEE\_SPACE>  (347) 
REALSpace_44bn_2023-08

>  <s_vsw_compound_code>  (347) 
67073

>  <s_vsw_variant>  (347) 
67073-7

>  <r_epik_Charging_Adjusted_Penalty>  (347) 
1.6771002186213

>  <r_epik_Ionization_Penalty>  (347) 
1.4538

>  <r_epik_Ionization_Penalty_Charging>  (347) 
0.20000000000000001

>  <r_epik_Ionization_Penalty_Neutral>  (347) 
1.2538

>  <r_epik_State_Penalty>  (347) 
1.4771000000000001

>  <r_i_docking_score>  (347) 
-2.5375378903415799

>  <r_i_glide_ecoul>  (347) 
-7.4450364112854004

>  <r_i_glide_eff_state_penalty>  (347) 
1.4771000000000001

>  <r_i_glide_einternal>  (347) 
3.5520381927490199

>  <r_i_glide_emodel>  (347) 
-55.707770407371399

>  <r_i_glide_energy>  (347) 
-42.575266361236601

>  <r_i_glide_erotb>  (347) 
0.95109826122685304

>  <r_i_glide_esite>  (347) 
-0.039540590921069402

>  <r_i_glide_evdw>  (347) 
-35.1302299499512

>  <r_i_glide_gscore>  (347) 
-4.0146378903415796

>  <r_i_glide_hbond>  (347) 
0

>  <r_i_glide_ligand_efficiency>  (347) 
-0.070487163620599494

>  <r_i_glide_ligand_efficiency_ln>  (347) 
-0.55362221132139899

>  <r_i_glide_ligand_efficiency_sa>  (347) 
-0.23274348597813799

>  <r_i_glide_lipo>  (347) 
-1.64015361198187

>  <r_i_glide_metal>  (347) 
-0

>  <r_i_glide_rewards>  (347) 
-0.41277498947513203

>  <r_lp_Energy>  (347) 
26.451215999999999

>  <r_qp_ACxDN^.5/SA>  (347) 
0

>  <r_qp_CIQPlogS>  (347) 
-4.8230000000000004

>  <r_qp_EA(eV)>  (347) 
0.52500000000000002

>  <r_qp_FISA>  (347) 
33.259

>  <r_qp_FOSA>  (347) 
408.37599999999998

>  <r_qp_IP(eV)>  (347) 
8.75

>  <r_qp_Jm>  (347) 
0.039278032519605502

>  <r_qp_PISA>  (347) 
377.64100000000002

>  <r_qp_PSA>  (347) 
43.295999999999999

>  <r_qp_PercentHumanOralAbsorption>  (347) 
100

>  <r_qp_QPPCaco>  (347) 
298.06299999999999

>  <r_qp_QPPMDCK>  (347) 
163.643

>  <r_qp_QPlogBB>  (347) 
0.35399999999999998

>  <r_qp_QPlogHERG>  (347) 
-7.9710000000000001

>  <r_qp_QPlogKhsa>  (347) 
0.56499999999999995

>  <r_qp_QPlogKp>  (347) 
-3.871

>  <r_qp_QPlogPC16>  (347) 
15.819000000000001

>  <r_qp_QPlogPo/w>  (347) 
4.8129999999999997

>  <r_qp_QPlogPoct>  (347) 
22.175999999999998

>  <r_qp_QPlogPw>  (347) 
10.135999999999999

>  <r_qp_QPlogS>  (347) 
-3.2189999999999999

>  <r_qp_QPpolrz>  (347) 
53.902000000000001

>  <r_qp_SASA>  (347) 
819.27599999999995

>  <r_qp_SAamideO>  (347) 
0

>  <r_qp_SAfluorine>  (347) 
0

>  <r_qp_WPSA>  (347) 
0

>  <r_qp_accptHB>  (347) 
8.1999999999999993

>  <r_qp_dip^2/V>  (347) 
0.0089796000000000008

>  <r_qp_dipole>  (347) 
3.7749999999999999

>  <r_qp_donorHB>  (347) 
0

>  <r_qp_glob>  (347) 
0.80313469999999998

>  <r_qp_mol_MW>  (347) 
483.65499999999997

>  <r_qp_volume>  (347) 
1587.0119999999999

>  <r_sd_BIOSOLVEIT.INFINISEE\_FTREES\_SIMILARITY>  (347) 
0.90100000000000002

>  <r_sd_BIOSOLVEIT.LOGP>  (347) 
2.5905

>  <r_sd_BIOSOLVEIT.MOLECULAR\_WEIGHT>  (347) 
485.67200000000003

>  <r_sd_BIOSOLVEIT.TPSA>  (347) 
48.82

>  <i_epik_Tot_Q>  (347) 
1

>  <i_epik_Tot_abs_Q>  (347) 
1

>  <i_f3d_flags>  (347) 
0

>  <i_i_glide_confnum>  (347) 
8

>  <i_i_glide_lignum>  (347) 
655

>  <i_i_glide_posenum>  (347) 
20

>  <i_i_glide_rotatable_bonds>  (347) 
13

>  <i_lp_mmshare_version>  (347) 
65135

>  <i_m_ct_format>  (347) 
2

>  <i_m_source_file_index>  (347) 
2097

>  <i_qp_#NandO>  (347) 
6

>  <i_qp_#acid>  (347) 
0

>  <i_qp_#amide>  (347) 
0

>  <i_qp_#amidine>  (347) 
0

>  <i_qp_#amine>  (347) 
2

>  <i_qp_#in34>  (347) 
0

>  <i_qp_#in56>  (347) 
23

>  <i_qp_#metab>  (347) 
8

>  <i_qp_#nonHatm>  (347) 
36

>  <i_qp_#noncon>  (347) 
0

>  <i_qp_#ringatoms>  (347) 
23

>  <i_qp_#rotor>  (347) 
11

>  <i_qp_#rtvFG>  (347) 
0

>  <i_qp_#stars>  (347) 
0

>  <i_qp_CNS>  (347) 
1

>  <i_qp_HumanOralAbsorption>  (347) 
3

>  <i_qp_RuleOfFive>  (347) 
0

>  <i_qp_RuleOfThree>  (347) 
1

>  <i_sd_BIOSOLVEIT.INFINISEE\_REAGENT1\_NAME>  (347) 
18336990

>  <i_sd_BIOSOLVEIT.INFINISEE\_REAGENT2\_NAME>  (347) 
7547738

>  <i_sd_BIOSOLVEIT.INFINISEE\_RESULT\_RANK>  (347) 
97109

>  <i_sd_version>  (347) 
0

>  <b_lp_Chiralities_Consistent>  (347) 
1

>  <b_sd_chiral_flag>  (347) 
0

>  <canonical_id>  (347) 
ATP-HTVS-394457ED9ABE

>  <compound_code>  (347) 
67073

>  <title>  (347) 
m_270004bca____18336990____7547738

>  <variant>  (347) 
67073-7

>  <source_file>  (347) 
运行/运行/ATP-VSW/ATP-VSW-DOCK_HTVS_1-001_lib/ATP-VSW-DOCK_HTVS_1-001_lib

>  <canonical_smiles>  (347) 
CCOCCN(CC)Cc1ccc(C[N@@H+](C)Cc2cn(-c3ccccc3)nc2-c2cccnc2)cc1

>  <scaffold>  (347) 
c1ccc(C[NH2+]Cc2cn(-c3ccccc3)nc2-c2cccnc2)cc1

>  <molecular_formula>  (347) 
C30H38N5O+

$$$$
ATP-HTVS-3966CEFE893D
     RDKit          3D

 66 69  0  0  0  0  0  0  0  0999 V2000
  200.0089  187.6676  156.9438 O   0  0  0  0  0  0  0  0  0  0  0  0
  199.6860  188.0536  158.0718 C   0  0  0  0  0  0  0  0  0  0  0  0
  200.5098  188.8580  158.8237 N   0  0  0  0  0  0  0  0  0  0  0  0
  201.7308  189.3851  158.2829 C   0  0  0  0  0  0  0  0  0  0  0  0
  202.7218  188.5403  157.7183 C   0  0  0  0  0  0  0  0  0  0  0  0
  203.9328  189.0868  157.2533 C   0  0  0  0  0  0  0  0  0  0  0  0
  204.1791  190.4691  157.3399 C   0  0  0  0  0  0  0  0  0  0  0  0
  203.2059  191.3132  157.9003 C   0  0  0  0  0  0  0  0  0  0  0  0
  201.9949  190.7736  158.3605 C   0  0  0  0  0  0  0  0  0  0  0  0
  200.2024  189.3279  160.1878 C   0  0  1  0  0  0  0  0  0  0  0  0
  199.5045  190.6391  160.1839 C   0  0  0  0  0  0  0  0  0  0  0  0
  198.9623  191.6696  160.1619 N   0  0  0  0  0  0  0  0  0  0  0  0
  198.4009  187.5110  158.6208 C   0  0  0  0  0  0  0  0  0  0  0  0
  197.6994  188.2111  159.6048 N   0  0  0  0  0  0  0  0  0  0  0  0
  196.6094  187.5124  160.0470 C   0  0  0  0  0  0  0  0  0  0  0  0
  196.5300  186.3409  159.2551 C   0  0  0  0  0  0  0  0  0  0  0  0
  195.4353  185.4706  159.5390 C   0  0  0  0  0  0  0  0  0  0  0  0
  194.4966  185.7684  160.5439 C   0  0  0  0  0  0  0  0  0  0  0  0
  194.6540  186.9286  161.3596 C   0  0  0  0  0  0  0  0  0  0  0  0
  195.7210  187.7975  161.0841 C   0  0  0  0  0  0  0  0  0  0  0  0
  197.6803  186.3677  158.3477 C   0  0  0  0  0  0  0  0  0  0  0  0
  198.0446  185.3663  157.4477 N   0  0  0  0  0  0  0  0  0  0  0  0
  197.2270  184.1996  157.1233 C   0  0  1  0  0  0  0  0  0  0  0  0
  198.0646  183.0466  156.6641 C   0  0  0  0  0  0  0  0  0  0  0  0
  197.5740  182.2061  155.6561 C   0  0  0  0  0  0  0  0  0  0  0  0
  198.3143  181.0676  155.2905 C   0  0  0  0  0  0  0  0  0  0  0  0
  199.5370  180.7804  155.9323 C   0  0  0  0  0  0  0  0  0  0  0  0
  200.0267  181.6257  156.9387 C   0  0  0  0  0  0  0  0  0  0  0  0
  199.2822  182.7535  157.3165 C   0  0  0  0  0  0  0  0  0  0  0  0
  197.7466  180.1452  154.2425 C   0  0  1  0  0  0  0  0  0  0  0  0
  198.1785  180.4477  152.8664 N   0  0  0  0  0  0  0  0  0  0  0  0
  197.4517  179.6010  151.9134 C   0  0  1  0  0  0  0  0  0  0  0  0
  195.9465  179.8887  151.8631 C   0  0  2  0  0  0  0  0  0  0  0  0
  199.6298  180.2770  152.6961 C   0  0  1  0  0  0  0  0  0  0  0  0
  200.1325  178.8356  152.9750 C   0  0  2  0  0  0  0  0  0  0  0  0
  202.5656  187.4723  157.6614 H   0  0  0  0  0  0  0  0  0  0  0  0
  204.6877  188.4403  156.8276 H   0  0  0  0  0  0  0  0  0  0  0  0
  205.1024  190.8931  156.9763 H   0  0  0  0  0  0  0  0  0  0  0  0
  203.3703  192.3780  157.9716 H   0  0  0  0  0  0  0  0  0  0  0  0
  201.2891  191.4757  158.7729 H   0  0  0  0  0  0  0  0  0  0  0  0
  199.6287  188.6091  160.7461 H   0  0  0  0  0  0  0  0  0  0  0  0
  201.1354  189.4232  160.7681 H   0  0  0  0  0  0  0  0  0  0  0  0
  198.0255  189.0918  160.0140 H   0  0  0  0  0  0  0  0  0  0  0  0
  195.2361  184.5709  158.9661 H   0  0  0  0  0  0  0  0  0  0  0  0
  193.6662  185.1115  160.6917 H   0  0  0  0  0  0  0  0  0  0  0  0
  193.9218  187.1471  162.1268 H   0  0  0  0  0  0  0  0  0  0  0  0
  195.8481  188.6865  161.6971 H   0  0  0  0  0  0  0  0  0  0  0  0
  198.9695  185.4045  157.0302 H   0  0  0  0  0  0  0  0  0  0  0  0
  196.7519  183.8206  158.0148 H   0  0  0  0  0  0  0  0  0  0  0  0
  196.4725  184.4645  156.3742 H   0  0  0  0  0  0  0  0  0  0  0  0
  196.6180  182.4152  155.1895 H   0  0  0  0  0  0  0  0  0  0  0  0
  200.1045  179.9064  155.6632 H   0  0  0  0  0  0  0  0  0  0  0  0
  200.9630  181.4003  157.4265 H   0  0  0  0  0  0  0  0  0  0  0  0
  199.6403  183.3820  158.1186 H   0  0  0  0  0  0  0  0  0  0  0  0
  197.9574  179.1099  154.5032 H   0  0  0  0  0  0  0  0  0  0  0  0
  196.6735  180.2573  154.3621 H   0  0  0  0  0  0  0  0  0  0  0  0
  197.8673  179.7338  150.9117 H   0  0  0  0  0  0  0  0  0  0  0  0
  197.5869  178.5533  152.1772 H   0  0  0  0  0  0  0  0  0  0  0  0
  195.4402  179.1886  151.1916 H   0  0  0  0  0  0  0  0  0  0  0  0
  195.7376  180.9133  151.5441 H   0  0  0  0  0  0  0  0  0  0  0  0
  195.4864  179.7400  152.8370 H   0  0  0  0  0  0  0  0  0  0  0  0
  199.9228  180.5763  151.6859 H   0  0  0  0  0  0  0  0  0  0  0  0
  200.1530  180.9804  153.3479 H   0  0  0  0  0  0  0  0  0  0  0  0
  201.2148  178.7639  152.8691 H   0  0  0  0  0  0  0  0  0  0  0  0
  199.6876  178.1111  152.2911 H   0  0  0  0  0  0  0  0  0  0  0  0
  199.9055  178.4994  153.9868 H   0  0  0  0  0  0  0  0  0  0  0  0
  1  2  2  0
  2  3  1  0
  2 13  1  0
  3  4  1  0
  3 10  1  0
  4  5  2  0
  4  9  1  0
  5  6  1  0
  5 36  1  0
  6  7  2  0
  6 37  1  0
  7  8  1  0
  7 38  1  0
  8  9  2  0
  8 39  1  0
  9 40  1  0
 10 11  1  0
 10 41  1  1
 10 42  1  0
 11 12  3  0
 13 14  1  0
 13 21  2  0
 14 15  1  0
 14 43  1  0
 15 16  1  0
 15 20  2  0
 16 17  2  0
 16 21  1  0
 17 18  1  0
 17 44  1  0
 18 19  2  0
 18 45  1  0
 19 20  1  0
 19 46  1  0
 20 47  1  0
 21 22  1  0
 22 23  1  0
 22 48  1  0
 23 24  1  0
 23 49  1  1
 23 50  1  0
 24 25  2  0
 24 29  1  0
 25 26  1  0
 25 51  1  0
 26 27  2  0
 26 30  1  0
 27 28  1  0
 27 52  1  0
 28 29  2  0
 28 53  1  0
 29 54  1  0
 30 31  1  0
 30 55  1  1
 30 56  1  0
 31 32  1  0
 31 34  1  0
 32 33  1  0
 32 57  1  6
 32 58  1  0
 33 59  1  6
 33 60  1  0
 33 61  1  0
 34 35  1  0
 34 62  1  6
 34 63  1  0
 35 64  1  1
 35 65  1  0
 35 66  1  0
M  END
>  <s_epik_cmdline>  (348) 
J2VwaWtfcHl0aG9uJywgJy1waCcsICc3LjAwMDAwMCcsICctcGh0JywgJzIuMDAwMDAwJywgJy1tcycsICcxNicsICctdG4nLCAnOCcsICctbWEnLCAnMjAwJywgJy1pbWFlJywgJzxpbmZpbGUubWFlPicsICctb21hZScsICc8b3V0ZmlsZS5tYWU+Jw==

>  <s_epik_input>  (348) 
W2NIXTFbY0hdW2NIXVtjSF1bY0hdYzFOKFtDSDJdQyNOKUMoPU8pYyhbbkhdMiljKGMoYzIzKVtjSF1bY0hdW2NIXVtjSF0zKVtOSF1bQ0gyXWM0W2NIXWMoW2NIXVtjSF1bY0hdNClbQ0gyXU4oW0NIMl1bQ0gzXSlbQ0gyXVtDSDNd

>  <s_i_glide_gridfile>  (348) 
ATP-Grid

>  <s_lp_Force_Field>  (348) 
OPLS_2005

>  <s_lp_Variant>  (348) 
rxn512b____EMOL712348____EMOL719673____EMOL44153840-2

>  <s_lp_label>  (348) 
2273_sdstereoexpander_1_neutralizer_1_epik_2_stereoizer_1

>  <s_m_source_file>  (348) 
ATP-VSW-LIGPREP-001-in.maegz

>  <s_sd_BIOSOLVEIT.INFINISEE\_QUERY\_NAME>  (348) 
Ref-Lig

>  <s_sd_BIOSOLVEIT.INFINISEE\_QUERY\_SMILES>  (348) 
S(c1nc2c(cc1C[NH2+]Cc3ccc(cc3)C[NH+](C)C)cccc2)Cc4ccccc4

>  <s_sd_BIOSOLVEIT.INFINISEE\_REACTION\_NAME>  (348) 
rxn512b

>  <s_sd_BIOSOLVEIT.INFINISEE\_REAGENT1\_NAME>  (348) 
EMOL712348

>  <s_sd_BIOSOLVEIT.INFINISEE\_REAGENT1\_SMILES>  (348) 
N#CCNc1ccccc1

>  <s_sd_BIOSOLVEIT.INFINISEE\_REAGENT2\_NAME>  (348) 
EMOL719673

>  <s_sd_BIOSOLVEIT.INFINISEE\_REAGENT2\_SMILES>  (348) 
BrC=1c2c(NC1C(=O)O)cccc2

>  <s_sd_BIOSOLVEIT.INFINISEE\_REAGENT3\_NAME>  (348) 
EMOL44153840

>  <s_sd_BIOSOLVEIT.INFINISEE\_REAGENT3\_SMILES>  (348) 
N(Cc1cc(ccc1)CN)(CC)CC

>  <s_sd_BIOSOLVEIT.INFINISEE\_SPACE>  (348) 
eXplore_7tr_2022-12

>  <s_vsw_compound_code>  (348) 
72705

>  <s_vsw_variant>  (348) 
72705-2

>  <r_epik_Charging_Adjusted_Penalty>  (348) 
2.0928542298539901

>  <r_epik_Ionization_Penalty>  (348) 
2.0929000000000002

>  <r_epik_Ionization_Penalty_Charging>  (348) 
0

>  <r_epik_Ionization_Penalty_Neutral>  (348) 
2.0929000000000002

>  <r_epik_State_Penalty>  (348) 
2.0929000000000002

>  <r_i_docking_score>  (348) 
-0.81072535542725499

>  <r_i_glide_ecoul>  (348) 
-3.2820405960082999

>  <r_i_glide_eff_state_penalty>  (348) 
2.0929000000000002

>  <r_i_glide_einternal>  (348) 
5.7813034057617196

>  <r_i_glide_emodel>  (348) 
-33.275677927071101

>  <r_i_glide_energy>  (348) 
-29.975831031799299

>  <r_i_glide_erotb>  (348) 
0.74430652731626801

>  <r_i_glide_esite>  (348) 
-0.083185530243831601

>  <r_i_glide_evdw>  (348) 
-26.693790435791001

>  <r_i_glide_gscore>  (348) 
-2.90362535542726

>  <r_i_glide_hbond>  (348) 
0

>  <r_i_glide_ligand_efficiency>  (348) 
-0.023163581583635899

>  <r_i_glide_ligand_efficiency_ln>  (348) 
-0.17797220859610499

>  <r_i_glide_ligand_efficiency_sa>  (348) 
-0.075769611251740407

>  <r_i_glide_lipo>  (348) 
-1.50313260494526

>  <r_i_glide_metal>  (348) 
-0

>  <r_i_glide_rewards>  (348) 
-0.23461813636363499

>  <r_lp_Energy>  (348) 
47.023887000000002

>  <r_qp_ACxDN^.5/SA>  (348) 
0.0084255000000000007

>  <r_qp_CIQPlogS>  (348) 
-6.2450000000000001

>  <r_qp_EA(eV)>  (348) 
0.58899999999999997

>  <r_qp_FISA>  (348) 
73.844999999999999

>  <r_qp_FOSA>  (348) 
249.488

>  <r_qp_IP(eV)>  (348) 
7.5869999999999997

>  <r_qp_Jm>  (348) 
0.00044988608142839

>  <r_qp_PISA>  (348) 
448.13900000000001

>  <r_qp_PSA>  (348) 
77.689999999999998

>  <r_qp_PercentHumanOralAbsorption>  (348) 
92.947000000000003

>  <r_qp_QPPCaco>  (348) 
122.864

>  <r_qp_QPPMDCK>  (348) 
62.789000000000001

>  <r_qp_QPlogBB>  (348) 
-0.037999999999999999

>  <r_qp_QPlogHERG>  (348) 
-8.0690000000000008

>  <r_qp_QPlogKhsa>  (348) 
0.91900000000000004

>  <r_qp_QPlogKp>  (348) 
-4.3710000000000004

>  <r_qp_QPlogPC16>  (348) 
15.911

>  <r_qp_QPlogPo/w>  (348) 
4.8849999999999998

>  <r_qp_QPlogPoct>  (348) 
22.417999999999999

>  <r_qp_QPlogPw>  (348) 
10.567

>  <r_qp_QPlogS>  (348) 
-4.6440000000000001

>  <r_qp_QPpolrz>  (348) 
50.701999999999998

>  <r_qp_SASA>  (348) 
771.47199999999998

>  <r_qp_SAamideO>  (348) 
0

>  <r_qp_SAfluorine>  (348) 
0

>  <r_qp_WPSA>  (348) 
0

>  <r_qp_accptHB>  (348) 
6.5

>  <r_qp_dip^2/V>  (348) 
0.044164799999999997

>  <r_qp_dipole>  (348) 
8.1129999999999995

>  <r_qp_donorHB>  (348) 
1

>  <r_qp_glob>  (348) 
0.81786610000000004

>  <r_qp_mol_MW>  (348) 
465.59699999999998

>  <r_qp_volume>  (348) 
1490.24

>  <r_sd_BIOSOLVEIT.INFINISEE\_FTREES\_SIMILARITY>  (348) 
0.92500000000000004

>  <r_sd_BIOSOLVEIT.LOGP>  (348) 
4.3750799999999996

>  <r_sd_BIOSOLVEIT.MOLECULAR\_WEIGHT>  (348) 
466.60599999999999

>  <r_sd_BIOSOLVEIT.TPSA>  (348) 
76.359999999999999

>  <i_epik_Tot_Q>  (348) 
0

>  <i_epik_Tot_abs_Q>  (348) 
0

>  <i_f3d_flags>  (348) 
0

>  <i_i_glide_confnum>  (348) 
3

>  <i_i_glide_lignum>  (348) 
796

>  <i_i_glide_posenum>  (348) 
4

>  <i_i_glide_rotatable_bonds>  (348) 
11

>  <i_lp_mmshare_version>  (348) 
65135

>  <i_m_ct_format>  (348) 
2

>  <i_m_source_file_index>  (348) 
2273

>  <i_qp_#NandO>  (348) 
6

>  <i_qp_#acid>  (348) 
0

>  <i_qp_#amide>  (348) 
0

>  <i_qp_#amidine>  (348) 
0

>  <i_qp_#amine>  (348) 
2

>  <i_qp_#in34>  (348) 
0

>  <i_qp_#in56>  (348) 
21

>  <i_qp_#metab>  (348) 
7

>  <i_qp_#nonHatm>  (348) 
35

>  <i_qp_#noncon>  (348) 
0

>  <i_qp_#ringatoms>  (348) 
21

>  <i_qp_#rotor>  (348) 
11

>  <i_qp_#rtvFG>  (348) 
0

>  <i_qp_#stars>  (348) 
1

>  <i_qp_CNS>  (348) 
1

>  <i_qp_HumanOralAbsorption>  (348) 
3

>  <i_qp_RuleOfFive>  (348) 
0

>  <i_qp_RuleOfThree>  (348) 
1

>  <i_sd_BIOSOLVEIT.INFINISEE\_RESULT\_RANK>  (348) 
9501

>  <i_sd_version>  (348) 
0

>  <b_lp_Chiralities_Consistent>  (348) 
1

>  <b_sd_chiral_flag>  (348) 
0

>  <canonical_id>  (348) 
ATP-HTVS-3966CEFE893D

>  <compound_code>  (348) 
72705

>  <title>  (348) 
rxn512b____EMOL712348____EMOL719673____EMOL44153840

>  <variant>  (348) 
72705-2

>  <source_file>  (348) 
运行/运行/ATP-VSW/ATP-VSW-DOCK_HTVS_1-001_lib/ATP-VSW-DOCK_HTVS_1-001_lib

>  <canonical_smiles>  (348) 
CCN(CC)Cc1cccc(CNc2c(C(=O)N(CC#N)c3ccccc3)[nH]c3ccccc23)c1

>  <scaffold>  (348) 
O=C(Nc1ccccc1)c1[nH]c2ccccc2c1NCc1ccccc1

>  <molecular_formula>  (348) 
C29H31N5O

$$$$
ATP-HTVS-397149B089BD
     RDKit          3D

 60 64  0  0  0  0  0  0  0  0999 V2000
  197.1620  181.8128  153.0366 N   0  0  0  0  0  0  0  0  0  0  0  0
  196.7684  180.5626  153.3744 N   0  0  0  0  0  0  0  0  0  0  0  0
  196.6929  180.3972  154.7380 C   0  0  0  0  0  0  0  0  0  0  0  0
  197.0361  181.5866  155.3009 C   0  0  0  0  0  0  0  0  0  0  0  0
  197.3461  182.4481  154.1914 C   0  0  0  0  0  0  0  0  0  0  0  0
  197.8272  183.8504  154.1730 C   0  0  0  0  0  0  0  0  0  0  0  0
  197.4614  184.7825  155.1768 C   0  0  0  0  0  0  0  0  0  0  0  0
  197.9567  186.0971  155.1709 C   0  0  0  0  0  0  0  0  0  0  0  0
  198.7818  186.5381  154.1190 C   0  0  0  0  0  0  0  0  0  0  0  0
  199.1133  185.6462  153.0772 C   0  0  0  0  0  0  0  0  0  0  0  0
  198.6563  184.3071  153.1159 C   0  0  0  0  0  0  0  0  0  0  0  0
  197.5625  187.0294  156.2971 C   0  0  2  0  0  0  0  0  0  0  0  0
  197.1179  181.8878  156.7600 C   0  0  1  0  0  0  0  0  0  0  0  0
  195.8046  181.7723  157.4245 N   0  0  1  0  0  0  0  0  0  0  0  0
  195.8877  182.0583  158.8746 C   0  0  1  0  0  0  0  0  0  0  0  0
  196.0964  183.5238  159.2141 C   0  0  0  0  0  0  0  0  0  0  0  0
  197.3795  184.1330  159.1787 C   0  0  0  0  0  0  0  0  0  0  0  0
  197.5280  185.4822  159.4763 C   0  0  0  0  0  0  0  0  0  0  0  0
  198.8564  185.8996  159.3919 N   0  0  0  0  0  0  0  0  0  0  0  0
  199.6270  184.7498  158.8998 C   0  0  1  0  0  0  0  0  0  0  0  0
  198.7320  183.5069  158.8942 C   0  0  1  0  0  0  0  0  0  0  0  0
  196.4303  186.2887  159.8190 C   0  0  0  0  0  0  0  0  0  0  0  0
  195.1472  185.7079  159.8928 C   0  0  0  0  0  0  0  0  0  0  0  0
  194.9748  184.3302  159.5897 C   0  0  0  0  0  0  0  0  0  0  0  0
  196.4485  179.5961  152.3514 C   0  0  1  0  0  0  0  0  0  0  0  0
  197.6282  179.3831  151.4327 C   0  0  0  0  0  0  0  0  0  0  0  0
  198.7597  178.6717  151.8838 C   0  0  0  0  0  0  0  0  0  0  0  0
  199.8571  178.4840  151.0234 C   0  0  0  0  0  0  0  0  0  0  0  0
  199.8254  179.0114  149.7177 C   0  0  0  0  0  0  0  0  0  0  0  0
  198.6987  179.7303  149.2739 C   0  0  0  0  0  0  0  0  0  0  0  0
  197.6011  179.9193  150.1320 C   0  0  0  0  0  0  0  0  0  0  0  0
  195.1510  182.4313  156.9841 H   0  0  0  0  0  0  0  0  0  0  0  0
  196.3655  179.4766  155.2215 H   0  0  0  0  0  0  0  0  0  0  0  0
  196.7722  184.5218  155.9778 H   0  0  0  0  0  0  0  0  0  0  0  0
  199.1138  187.5736  154.0955 H   0  0  0  0  0  0  0  0  0  0  0  0
  199.7142  185.9972  152.2499 H   0  0  0  0  0  0  0  0  0  0  0  0
  198.9329  183.6406  152.3016 H   0  0  0  0  0  0  0  0  0  0  0  0
  197.6344  188.0742  155.9945 H   0  0  0  0  0  0  0  0  0  0  0  0
  198.2390  186.8882  157.1359 H   0  0  0  0  0  0  0  0  0  0  0  0
  196.5454  186.8255  156.6412 H   0  0  0  0  0  0  0  0  0  0  0  0
  197.8752  181.2620  157.2464 H   0  0  0  0  0  0  0  0  0  0  0  0
  197.3796  182.9375  156.8550 H   0  0  0  0  0  0  0  0  0  0  0  0
  194.9716  181.6836  159.3448 H   0  0  0  0  0  0  0  0  0  0  0  0
  196.7123  181.4643  159.2782 H   0  0  0  0  0  0  0  0  0  0  0  0
  199.0758  186.8307  159.0357 H   0  0  0  0  0  0  0  0  0  0  0  0
  199.9258  184.9592  157.8653 H   0  0  0  0  0  0  0  0  0  0  0  0
  200.5272  184.5581  159.4721 H   0  0  0  0  0  0  0  0  0  0  0  0
  198.9735  182.7857  159.6735 H   0  0  0  0  0  0  0  0  0  0  0  0
  198.9264  183.0798  157.8911 H   0  0  0  0  0  0  0  0  0  0  0  0
  196.5751  187.3400  160.0473 H   0  0  0  0  0  0  0  0  0  0  0  0
  194.3012  186.3134  160.1725 H   0  0  0  0  0  0  0  0  0  0  0  0
  193.9695  183.9129  159.6519 H   0  0  0  0  0  0  0  0  0  0  0  0
  196.1799  178.6609  152.8394 H   0  0  0  0  0  0  0  0  0  0  0  0
  195.5692  179.9542  151.8183 H   0  0  0  0  0  0  0  0  0  0  0  0
  198.7937  178.2767  152.8894 H   0  0  0  0  0  0  0  0  0  0  0  0
  200.7231  177.9366  151.3641 H   0  0  0  0  0  0  0  0  0  0  0  0
  200.6660  178.8652  149.0558 H   0  0  0  0  0  0  0  0  0  0  0  0
  198.6762  180.1386  148.2753 H   0  0  0  0  0  0  0  0  0  0  0  0
  196.7444  180.4838  149.7951 H   0  0  0  0  0  0  0  0  0  0  0  0
  195.4788  180.8106  157.3308 H   0  0  0  0  0  0  0  0  0  0  0  0
  1  2  1  0
  1  5  2  0
  2  3  1  0
  2 25  1  0
  3  4  2  0
  3 33  1  0
  4  5  1  0
  4 13  1  0
  5  6  1  0
  6  7  2  0
  6 11  1  0
  7  8  1  0
  7 34  1  0
  8  9  2  0
  8 12  1  0
  9 10  1  0
  9 35  1  0
 10 11  2  0
 10 36  1  0
 11 37  1  0
 12 38  1  6
 12 39  1  0
 12 40  1  0
 13 14  1  0
 13 41  1  1
 13 42  1  0
 14 15  1  0
 14 32  1  6
 14 60  1  0
 15 16  1  0
 15 43  1  1
 15 44  1  0
 16 17  1  0
 16 24  2  0
 17 18  2  0
 17 21  1  0
 18 19  1  0
 18 22  1  0
 19 20  1  0
 19 45  1  0
 20 21  1  0
 20 46  1  6
 20 47  1  0
 21 48  1  1
 21 49  1  0
 22 23  2  0
 22 50  1  0
 23 24  1  0
 23 51  1  0
 24 52  1  0
 25 26  1  0
 25 53  1  1
 25 54  1  0
 26 27  2  0
 26 31  1  0
 27 28  1  0
 27 55  1  0
 28 29  2  0
 28 56  1  0
 29 30  1  0
 29 57  1  0
 30 31  2  0
 30 58  1  0
 31 59  1  0
M  CHG  1  14   1
M  END
>  <s_epik_cmdline>  (349) 
J2VwaWtfcHl0aG9uJywgJy1waCcsICc3LjAwMDAwMCcsICctcGh0JywgJzIuMDAwMDAwJywgJy1tcycsICcxNicsICctdG4nLCAnOCcsICctbWEnLCAnMjAwJywgJy1pbWFlJywgJzxpbmZpbGUubWFlPicsICctb21hZScsICc8b3V0ZmlsZS5tYWU+Jw==

>  <s_epik_input>  (349) 
W2NIXTFbY0hdW2NIXVtjSF1bY0hdYzFbQ0gyXW4ybmMoLWMzW2NIXWMoW0NIM10pW2NIXVtjSF1bY0hdMyljKFtjSF0yKVtDSDJdW05IXVtDSDJdYzRbY0hdW2NIXVtjSF1jKGM0NSlbTkhdW0NIMl1bQ0gyXTU=

>  <s_i_glide_gridfile>  (349) 
ATP-Grid

>  <s_lp_Force_Field>  (349) 
OPLS_2005

>  <s_lp_Variant>  (349) 
m_270004bbb____25290078____7547616-1

>  <s_lp_label>  (349) 
1235_sdstereoexpander_1_neutralizer_1_epik_1_stereoizer_1

>  <s_m_source_file>  (349) 
ATP-VSW-LIGPREP-002-in.maegz

>  <s_sd_BIOSOLVEIT.INFINISEE\_QUERY\_NAME>  (349) 
Ref-Lig

>  <s_sd_BIOSOLVEIT.INFINISEE\_QUERY\_SMILES>  (349) 
S(c1nc2c(cc1C[NH2+]Cc3ccc(cc3)C[NH+](C)C)cccc2)Cc4ccccc4

>  <s_sd_BIOSOLVEIT.INFINISEE\_REACTION\_NAME>  (349) 
m_270004bbb

>  <s_sd_BIOSOLVEIT.INFINISEE\_REAGENT1\_SMILES>  (349) 
[R1*]NCc1c2c(NCC2)ccc1

>  <s_sd_BIOSOLVEIT.INFINISEE\_REAGENT2\_SMILES>  (349) 
[R1*]CC=1C(=NN(C1)Cc2ccccc2)c3cc(ccc3)C

>  <s_sd_BIOSOLVEIT.INFINISEE\_SPACE>  (349) 
REALSpace_44bn_2023-08

>  <s_vsw_compound_code>  (349) 
39490

>  <s_vsw_variant>  (349) 
39490-1

>  <r_epik_Charging_Adjusted_Penalty>  (349) 
0.11738782082475401

>  <r_epik_Ionization_Penalty>  (349) 
0.072300000000000003

>  <r_epik_Ionization_Penalty_Charging>  (349) 
0.071900000000000006

>  <r_epik_Ionization_Penalty_Neutral>  (349) 
0.00029999999999999997

>  <r_epik_State_Penalty>  (349) 
0.045499999999999999

>  <r_i_docking_score>  (349) 
-5.8538547321739598

>  <r_i_glide_ecoul>  (349) 
-10.941377639770501

>  <r_i_glide_eff_state_penalty>  (349) 
0.045499999999999999

>  <r_i_glide_einternal>  (349) 
2.1248359680175799

>  <r_i_glide_emodel>  (349) 
-68.457273675600405

>  <r_i_glide_energy>  (349) 
-45.254148483276403

>  <r_i_glide_erotb>  (349) 
0.70441942903900101

>  <r_i_glide_esite>  (349) 
-0.10000000000000001

>  <r_i_glide_evdw>  (349) 
-34.312770843505902

>  <r_i_glide_gscore>  (349) 
-5.8993547321739603

>  <r_i_glide_hbond>  (349) 
-0.35897297664204098

>  <r_i_glide_ligand_efficiency>  (349) 
-0.18883402361851501

>  <r_i_glide_ligand_efficiency_ln>  (349) 
-1.3202236412077499

>  <r_i_glide_ligand_efficiency_sa>  (349) 
-0.59319954762940796

>  <r_i_glide_lipo>  (349) 
-1.9427059602335199

>  <r_i_glide_metal>  (349) 
-0

>  <r_i_glide_rewards>  (349) 
-0.84525003619652705

>  <r_lp_Energy>  (349) 
25.619527999999999

>  <r_lp_tautomer_probability>  (349) 
1

>  <r_qp_ACxDN^.5/SA>  (349) 
0.0080178000000000003

>  <r_qp_CIQPlogS>  (349) 
-5.1539999999999999

>  <r_qp_EA(eV)>  (349) 
0.129

>  <r_qp_FISA>  (349) 
51.451000000000001

>  <r_qp_FOSA>  (349) 
267.85899999999998

>  <r_qp_IP(eV)>  (349) 
8.2149999999999999

>  <r_qp_Jm>  (349) 
0.00075806582628443805

>  <r_qp_PISA>  (349) 
386.22800000000001

>  <r_qp_PSA>  (349) 
45.409999999999997

>  <r_qp_PercentHumanOralAbsorption>  (349) 
96.335999999999999

>  <r_qp_QPPCaco>  (349) 
200.34899999999999

>  <r_qp_QPPMDCK>  (349) 
106.518

>  <r_qp_QPlogBB>  (349) 
0.499

>  <r_qp_QPlogHERG>  (349) 
-7.601

>  <r_qp_QPlogKhsa>  (349) 
1.129

>  <r_qp_QPlogKp>  (349) 
-4.6559999999999997

>  <r_qp_QPlogPC16>  (349) 
14.083

>  <r_qp_QPlogPo/w>  (349) 
4.8150000000000004

>  <r_qp_QPlogPoct>  (349) 
20.541

>  <r_qp_QPlogPw>  (349) 
9.9399999999999995

>  <r_qp_QPlogS>  (349) 
-4.0750000000000002

>  <r_qp_QPpolrz>  (349) 
46.865000000000002

>  <r_qp_SASA>  (349) 
705.53800000000001

>  <r_qp_SAamideO>  (349) 
0

>  <r_qp_SAfluorine>  (349) 
0

>  <r_qp_WPSA>  (349) 
0

>  <r_qp_accptHB>  (349) 
4

>  <r_qp_dip^2/V>  (349) 
0.0023619000000000001

>  <r_qp_dipole>  (349) 
1.772

>  <r_qp_donorHB>  (349) 
2

>  <r_qp_glob>  (349) 
0.82853319999999997

>  <r_qp_mol_MW>  (349) 
408.54500000000002

>  <r_qp_volume>  (349) 
1328.9179999999999

>  <r_sd_BIOSOLVEIT.INFINISEE\_FTREES\_SIMILARITY>  (349) 
0.91100000000000003

>  <r_sd_BIOSOLVEIT.LOGP>  (349) 
4.13842

>  <r_sd_BIOSOLVEIT.MOLECULAR\_WEIGHT>  (349) 
409.55399999999997

>  <r_sd_BIOSOLVEIT.TPSA>  (349) 
46.460000000000001

>  <i_epik_Tot_Q>  (349) 
1

>  <i_epik_Tot_abs_Q>  (349) 
1

>  <i_f3d_flags>  (349) 
0

>  <i_i_glide_confnum>  (349) 
7

>  <i_i_glide_lignum>  (349) 
430

>  <i_i_glide_posenum>  (349) 
16

>  <i_i_glide_rotatable_bonds>  (349) 
7

>  <i_lp_mmshare_version>  (349) 
65135

>  <i_m_ct_format>  (349) 
2

>  <i_m_source_file_index>  (349) 
1235

>  <i_qp_#NandO>  (349) 
4

>  <i_qp_#acid>  (349) 
0

>  <i_qp_#amide>  (349) 
0

>  <i_qp_#amidine>  (349) 
0

>  <i_qp_#amine>  (349) 
2

>  <i_qp_#in34>  (349) 
0

>  <i_qp_#in56>  (349) 
26

>  <i_qp_#metab>  (349) 
6

>  <i_qp_#nonHatm>  (349) 
31

>  <i_qp_#noncon>  (349) 
2

>  <i_qp_#ringatoms>  (349) 
26

>  <i_qp_#rotor>  (349) 
6

>  <i_qp_#rtvFG>  (349) 
0

>  <i_qp_#stars>  (349) 
0

>  <i_qp_CNS>  (349) 
2

>  <i_qp_HumanOralAbsorption>  (349) 
3

>  <i_qp_RuleOfFive>  (349) 
0

>  <i_qp_RuleOfThree>  (349) 
0

>  <i_sd_BIOSOLVEIT.INFINISEE\_REAGENT1\_NAME>  (349) 
25290078

>  <i_sd_BIOSOLVEIT.INFINISEE\_REAGENT2\_NAME>  (349) 
7547616

>  <i_sd_BIOSOLVEIT.INFINISEE\_RESULT\_RANK>  (349) 
42561

>  <i_sd_version>  (349) 
0

>  <b_lp_Chiralities_Consistent>  (349) 
1

>  <b_sd_chiral_flag>  (349) 
0

>  <canonical_id>  (349) 
ATP-HTVS-397149B089BD

>  <compound_code>  (349) 
39490

>  <title>  (349) 
m_270004bbb____25290078____7547616

>  <variant>  (349) 
39490-1

>  <source_file>  (349) 
运行/运行/ATP-VSW/ATP-VSW-DOCK_HTVS_1-002_lib.maegz

>  <canonical_smiles>  (349) 
Cc1cccc(-c2nn(Cc3ccccc3)cc2C[NH2+]Cc2cccc3c2CCN3)c1

>  <scaffold>  (349) 
c1ccc(Cn2cc(C[NH2+]Cc3cccc4c3CCN4)c(-c3ccccc3)n2)cc1

>  <molecular_formula>  (349) 
C27H29N4+

$$$$
ATP-HTVS-3991B5D40CBE
     RDKit          3D

 71 74  0  0  0  0  0  0  0  0999 V2000
  198.0515  184.6156  148.4191 O   0  0  0  0  0  0  0  0  0  0  0  0
  197.5357  184.4731  149.5385 C   0  0  0  0  0  0  0  0  0  0  0  0
  197.5590  185.3042  150.5610 O   0  0  0  0  0  0  0  0  0  0  0  0
  198.3375  186.5248  150.4644 C   0  0  2  0  0  0  0  0  0  0  0  0
  196.7239  183.2133  149.8807 C   0  0  1  0  0  0  0  0  0  0  0  0
  197.3526  182.3671  150.9243 N   0  0  0  0  0  0  0  0  0  0  0  0
  197.7356  181.0311  150.5072 C   0  0  0  0  0  0  0  0  0  0  0  0
  197.4616  179.8978  151.3216 C   0  0  0  0  0  0  0  0  0  0  0  0
  197.9153  178.6110  150.9368 C   0  0  0  0  0  0  0  0  0  0  0  0
  198.5612  178.4283  149.7047 C   0  0  0  0  0  0  0  0  0  0  0  0
  198.7756  179.5322  148.8643 C   0  0  0  0  0  0  0  0  0  0  0  0
  198.3763  180.8299  149.2650 C   0  0  0  0  0  0  0  0  0  0  0  0
  197.3977  182.8025  152.1944 C   0  0  0  0  0  0  0  0  0  0  0  0
  196.7849  183.8343  152.5583 O   0  0  0  0  0  0  0  0  0  0  0  0
  198.1369  182.0211  153.2301 C   0  0  0  0  0  0  0  0  0  0  0  0
  199.4574  181.6489  152.9901 N   0  0  0  0  0  0  0  0  0  0  0  0
  199.9427  180.8741  154.0384 C   0  0  0  0  0  0  0  0  0  0  0  0
  198.8712  180.7870  154.9889 C   0  0  0  0  0  0  0  0  0  0  0  0
  199.1501  180.0406  156.1662 C   0  0  0  0  0  0  0  0  0  0  0  0
  200.3964  179.4216  156.3778 C   0  0  0  0  0  0  0  0  0  0  0  0
  201.4129  179.5095  155.4068 C   0  0  0  0  0  0  0  0  0  0  0  0
  201.1868  180.2399  154.2242 C   0  0  0  0  0  0  0  0  0  0  0  0
  197.7540  181.5174  154.4396 C   0  0  0  0  0  0  0  0  0  0  0  0
  196.4605  181.6659  155.0240 N   0  0  0  0  0  0  0  0  0  0  0  0
  196.1894  181.5602  156.4402 C   0  0  1  0  0  0  0  0  0  0  0  0
  196.6557  182.7399  157.2844 C   0  0  0  0  0  0  0  0  0  0  0  0
  197.9570  183.2819  157.1575 C   0  0  0  0  0  0  0  0  0  0  0  0
  198.3591  184.3739  157.9398 C   0  0  0  0  0  0  0  0  0  0  0  0
  197.4772  184.9317  158.8769 C   0  0  0  0  0  0  0  0  0  0  0  0
  196.1754  184.3896  159.0217 C   0  0  0  0  0  0  0  0  0  0  0  0
  195.7675  183.3030  158.2199 C   0  0  0  0  0  0  0  0  0  0  0  0
  197.9516  186.0952  159.7225 C   0  0  1  0  0  0  0  0  0  0  0  0
  197.5182  187.4144  159.2637 N   0  0  0  0  0  0  0  0  0  0  0  0
  198.2596  188.4568  159.9745 C   0  0  1  0  0  0  0  0  0  0  0  0
  198.0689  189.8632  159.3797 C   0  0  2  0  0  0  0  0  0  0  0  0
  196.0585  187.5873  159.3538 C   0  0  1  0  0  0  0  0  0  0  0  0
  195.4802  187.4284  160.7808 C   0  0  2  0  0  0  0  0  0  0  0  0
  198.3002  187.0182  151.4327 H   0  0  0  0  0  0  0  0  0  0  0  0
  197.9152  187.2094  149.7548 H   0  0  0  0  0  0  0  0  0  0  0  0
  199.3696  186.3203  150.2254 H   0  0  0  0  0  0  0  0  0  0  0  0
  195.7327  183.5199  150.2118 H   0  0  0  0  0  0  0  0  0  0  0  0
  196.5941  182.6468  148.9669 H   0  0  0  0  0  0  0  0  0  0  0  0
  196.9429  179.9587  152.2537 H   0  0  0  0  0  0  0  0  0  0  0  0
  197.7648  177.7854  151.6107 H   0  0  0  0  0  0  0  0  0  0  0  0
  198.8846  177.4378  149.4135 H   0  0  0  0  0  0  0  0  0  0  0  0
  199.2638  179.3892  147.9133 H   0  0  0  0  0  0  0  0  0  0  0  0
  198.5874  181.6560  148.6054 H   0  0  0  0  0  0  0  0  0  0  0  0
  199.9531  181.8434  152.1351 H   0  0  0  0  0  0  0  0  0  0  0  0
  198.3927  179.9256  156.9459 H   0  0  0  0  0  0  0  0  0  0  0  0
  200.5580  178.8802  157.2972 H   0  0  0  0  0  0  0  0  0  0  0  0
  202.3666  179.0267  155.5823 H   0  0  0  0  0  0  0  0  0  0  0  0
  201.9526  180.3082  153.4636 H   0  0  0  0  0  0  0  0  0  0  0  0
  195.8047  182.2608  154.5380 H   0  0  0  0  0  0  0  0  0  0  0  0
  195.1107  181.4452  156.5630 H   0  0  0  0  0  0  0  0  0  0  0  0
  196.6476  180.6416  156.8325 H   0  0  0  0  0  0  0  0  0  0  0  0
  198.6826  182.8833  156.4704 H   0  0  0  0  0  0  0  0  0  0  0  0
  199.3548  184.7766  157.8184 H   0  0  0  0  0  0  0  0  0  0  0  0
  195.4663  184.7982  159.7222 H   0  0  0  0  0  0  0  0  0  0  0  0
  194.7684  182.9059  158.3218 H   0  0  0  0  0  0  0  0  0  0  0  0
  197.5978  185.9177  160.7446 H   0  0  0  0  0  0  0  0  0  0  0  0
  199.0552  186.0638  159.7072 H   0  0  0  0  0  0  0  0  0  0  0  0
  197.9834  188.4711  161.0244 H   0  0  0  0  0  0  0  0  0  0  0  0
  199.3277  188.2236  159.9397 H   0  0  0  0  0  0  0  0  0  0  0  0
  198.6800  190.5809  159.9294 H   0  0  0  0  0  0  0  0  0  0  0  0
  197.0417  190.2180  159.4563 H   0  0  0  0  0  0  0  0  0  0  0  0
  198.3680  189.8934  158.3313 H   0  0  0  0  0  0  0  0  0  0  0  0
  195.8086  188.5637  158.9580 H   0  0  0  0  0  0  0  0  0  0  0  0
  195.5798  186.9033  158.6522 H   0  0  0  0  0  0  0  0  0  0  0  0
  194.3875  187.5589  160.7838 H   0  0  0  0  0  0  0  0  0  0  0  0
  195.8723  188.1765  161.4683 H   0  0  0  0  0  0  0  0  0  0  0  0
  195.7072  186.4461  161.2137 H   0  0  0  0  0  0  0  0  0  0  0  0
  1  2  2  0
  2  3  1  0
  2  5  1  0
  3  4  1  0
  4 38  1  1
  4 39  1  0
  4 40  1  0
  5  6  1  0
  5 41  1  1
  5 42  1  0
  6  7  1  0
  6 13  1  0
  7  8  2  0
  7 12  1  0
  8  9  1  0
  8 43  1  0
  9 10  2  0
  9 44  1  0
 10 11  1  0
 10 45  1  0
 11 12  2  0
 11 46  1  0
 12 47  1  0
 13 14  2  0
 13 15  1  0
 15 16  1  0
 15 23  2  0
 16 17  1  0
 16 48  1  0
 17 18  1  0
 17 22  2  0
 18 19  2  0
 18 23  1  0
 19 20  1  0
 19 49  1  0
 20 21  2  0
 20 50  1  0
 21 22  1  0
 21 51  1  0
 22 52  1  0
 23 24  1  0
 24 25  1  0
 24 53  1  0
 25 26  1  0
 25 54  1  6
 25 55  1  0
 26 27  1  0
 26 31  2  0
 27 28  2  0
 27 56  1  0
 28 29  1  0
 28 57  1  0
 29 30  2  0
 29 32  1  0
 30 31  1  0
 30 58  1  0
 31 59  1  0
 32 33  1  0
 32 60  1  1
 32 61  1  0
 33 34  1  0
 33 36  1  0
 34 35  1  0
 34 62  1  1
 34 63  1  0
 35 64  1  1
 35 65  1  0
 35 66  1  0
 36 37  1  0
 36 67  1  6
 36 68  1  0
 37 69  1  6
 37 70  1  0
 37 71  1  0
M  END
>  <s_epik_Chemistry_Notes>  (350) 
This compound has an ester and may undergo hydrolysis at high or low pH.

>  <s_epik_cmdline>  (350) 
J2VwaWtfcHl0aG9uJywgJy1waCcsICc3LjAwMDAwMCcsICctcGh0JywgJzIuMDAwMDAwJywgJy1tcycsICcxNicsICctdG4nLCAnOCcsICctbWEnLCAnMjAwJywgJy1pbWFlJywgJzxpbmZpbGUubWFlPicsICctb21hZScsICc8b3V0ZmlsZS5tYWU+Jw==

>  <s_epik_input>  (350) 
W2NIXTFbY0hdW2NIXVtjSF1bY0hdYzFOKFtDSDJdQyg9TylPW0NIM10pQyg9TyljKFtuSF0yKWMoYyhjMjMpW2NIXVtjSF1bY0hdW2NIXTMpW05IXVtDSDJdYzRbY0hdW2NIXWMoW2NIXVtjSF00KVtDSDJdTihbQ0gyXVtDSDNdKVtDSDJdW0NIM10=

>  <s_i_glide_gridfile>  (350) 
ATP-Grid

>  <s_lp_Force_Field>  (350) 
OPLS_2005

>  <s_lp_Variant>  (350) 
rxn512b____EMOL300028928____EMOL719673____EMOL2868412-2

>  <s_lp_label>  (350) 
3000_sdstereoexpander_1_neutralizer_1_epik_2_stereoizer_1

>  <s_m_source_file>  (350) 
ATP-VSW-LIGPREP-001-in.maegz

>  <s_sd_BIOSOLVEIT.INFINISEE\_QUERY\_NAME>  (350) 
Ref-Lig

>  <s_sd_BIOSOLVEIT.INFINISEE\_QUERY\_SMILES>  (350) 
S(c1nc2c(cc1C[NH2+]Cc3ccc(cc3)C[NH+](C)C)cccc2)Cc4ccccc4

>  <s_sd_BIOSOLVEIT.INFINISEE\_REACTION\_NAME>  (350) 
rxn512b

>  <s_sd_BIOSOLVEIT.INFINISEE\_REAGENT1\_NAME>  (350) 
EMOL300028928

>  <s_sd_BIOSOLVEIT.INFINISEE\_REAGENT1\_SMILES>  (350) 
O=C(OC)CNc1ccccc1

>  <s_sd_BIOSOLVEIT.INFINISEE\_REAGENT2\_NAME>  (350) 
EMOL719673

>  <s_sd_BIOSOLVEIT.INFINISEE\_REAGENT2\_SMILES>  (350) 
BrC=1c2c(NC1C(=O)O)cccc2

>  <s_sd_BIOSOLVEIT.INFINISEE\_REAGENT3\_NAME>  (350) 
EMOL2868412

>  <s_sd_BIOSOLVEIT.INFINISEE\_REAGENT3\_SMILES>  (350) 
N(Cc1ccc(cc1)CN)(CC)CC

>  <s_sd_BIOSOLVEIT.INFINISEE\_SPACE>  (350) 
eXplore_7tr_2022-12

>  <s_vsw_compound_code>  (350) 
95969

>  <s_vsw_variant>  (350) 
95969-2

>  <r_epik_Charging_Adjusted_Penalty>  (350) 
2.1351563500723798

>  <r_epik_Ionization_Penalty>  (350) 
2.1352000000000002

>  <r_epik_Ionization_Penalty_Charging>  (350) 
0

>  <r_epik_Ionization_Penalty_Neutral>  (350) 
2.1352000000000002

>  <r_epik_State_Penalty>  (350) 
2.1352000000000002

>  <r_i_docking_score>  (350) 
-0.87688505514126702

>  <r_i_glide_ecoul>  (350) 
-1.850670337677

>  <r_i_glide_eff_state_penalty>  (350) 
2.1352000000000002

>  <r_i_glide_einternal>  (350) 
5.9168367385864302

>  <r_i_glide_emodel>  (350) 
-44.0840764976058

>  <r_i_glide_energy>  (350) 
-39.355396747589097

>  <r_i_glide_erotb>  (350) 
0.82082696915132003

>  <r_i_glide_esite>  (350) 
-0.074211341334261896

>  <r_i_glide_evdw>  (350) 
-37.504726409912102

>  <r_i_glide_gscore>  (350) 
-3.0120850551412701

>  <r_i_glide_hbond>  (350) 
0

>  <r_i_glide_ligand_efficiency>  (350) 
-0.023699596084899101

>  <r_i_glide_ligand_efficiency_ln>  (350) 
-0.19017581135778699

>  <r_i_glide_ligand_efficiency_sa>  (350) 
-0.078972311854229496

>  <r_i_glide_lipo>  (350) 
-1.31608750687169

>  <r_i_glide_metal>  (350) 
-0

>  <r_i_glide_rewards>  (350) 
-0.28977630493948398

>  <r_lp_Energy>  (350) 
44.523057000000001

>  <r_qp_ACxDN^.5/SA>  (350) 
0.0086945000000000008

>  <r_qp_CIQPlogS>  (350) 
-5.7160000000000002

>  <r_qp_EA(eV)>  (350) 
0.28699999999999998

>  <r_qp_FISA>  (350) 
99.331000000000003

>  <r_qp_FOSA>  (350) 
350.56200000000001

>  <r_qp_IP(eV)>  (350) 
7.5229999999999997

>  <r_qp_Jm>  (350) 
0.000304304015886005

>  <r_qp_PISA>  (350) 
355.21699999999998

>  <r_qp_PSA>  (350) 
89.123000000000005

>  <r_qp_PercentHumanOralAbsorption>  (350) 
88.290999999999997

>  <r_qp_QPPCaco>  (350) 
70.427000000000007

>  <r_qp_QPPMDCK>  (350) 
34.408000000000001

>  <r_qp_QPlogBB>  (350) 
-0.316

>  <r_qp_QPlogHERG>  (350) 
-7.7809999999999997

>  <r_qp_QPlogKhsa>  (350) 
1.002

>  <r_qp_QPlogKp>  (350) 
-5.1680000000000001

>  <r_qp_QPlogPC16>  (350) 
16.097000000000001

>  <r_qp_QPlogPo/w>  (350) 
4.8289999999999997

>  <r_qp_QPlogPoct>  (350) 
22.811

>  <r_qp_QPlogPw>  (350) 
10.682

>  <r_qp_QPlogS>  (350) 
-4.0469999999999997

>  <r_qp_QPpolrz>  (350) 
52.637999999999998

>  <r_qp_SASA>  (350) 
805.10900000000004

>  <r_qp_SAamideO>  (350) 
0

>  <r_qp_SAfluorine>  (350) 
0

>  <r_qp_WPSA>  (350) 
0

>  <r_qp_accptHB>  (350) 
7

>  <r_qp_dip^2/V>  (350) 
0.0065405999999999997

>  <r_qp_dipole>  (350) 
3.1949999999999998

>  <r_qp_donorHB>  (350) 
1

>  <r_qp_glob>  (350) 
0.80823860000000003

>  <r_qp_mol_MW>  (350) 
498.62400000000002

>  <r_qp_volume>  (350) 
1560.789

>  <r_sd_BIOSOLVEIT.INFINISEE\_FTREES\_SIMILARITY>  (350) 
0.90300000000000002

>  <r_sd_BIOSOLVEIT.LOGP>  (350) 
4.0244999999999997

>  <r_sd_BIOSOLVEIT.MOLECULAR\_WEIGHT>  (350) 
499.63200000000001

>  <r_sd_BIOSOLVEIT.TPSA>  (350) 
78.870000000000005

>  <i_epik_Tot_Q>  (350) 
0

>  <i_epik_Tot_abs_Q>  (350) 
0

>  <i_f3d_flags>  (350) 
0

>  <i_i_glide_confnum>  (350) 
21

>  <i_i_glide_lignum>  (350) 
1448

>  <i_i_glide_posenum>  (350) 
15

>  <i_i_glide_rotatable_bonds>  (350) 
13

>  <i_lp_mmshare_version>  (350) 
65135

>  <i_m_ct_format>  (350) 
2

>  <i_m_source_file_index>  (350) 
3000

>  <i_qp_#NandO>  (350) 
7

>  <i_qp_#acid>  (350) 
0

>  <i_qp_#amide>  (350) 
0

>  <i_qp_#amidine>  (350) 
0

>  <i_qp_#amine>  (350) 
2

>  <i_qp_#in34>  (350) 
0

>  <i_qp_#in56>  (350) 
21

>  <i_qp_#metab>  (350) 
7

>  <i_qp_#nonHatm>  (350) 
37

>  <i_qp_#noncon>  (350) 
0

>  <i_qp_#ringatoms>  (350) 
21

>  <i_qp_#rotor>  (350) 
11

>  <i_qp_#rtvFG>  (350) 
1

>  <i_qp_#stars>  (350) 
1

>  <i_qp_CNS>  (350) 
1

>  <i_qp_HumanOralAbsorption>  (350) 
3

>  <i_qp_RuleOfFive>  (350) 
0

>  <i_qp_RuleOfThree>  (350) 
1

>  <i_sd_BIOSOLVEIT.INFINISEE\_RESULT\_RANK>  (350) 
85627

>  <i_sd_version>  (350) 
0

>  <b_lp_Chiralities_Consistent>  (350) 
1

>  <b_sd_chiral_flag>  (350) 
0

>  <canonical_id>  (350) 
ATP-HTVS-3991B5D40CBE

>  <compound_code>  (350) 
95969

>  <title>  (350) 
rxn512b____EMOL300028928____EMOL719673____EMOL2868412

>  <variant>  (350) 
95969-2

>  <source_file>  (350) 
运行/运行/ATP-VSW/ATP-VSW-DOCK_HTVS_1-001_lib/ATP-VSW-DOCK_HTVS_1-001_lib

>  <canonical_smiles>  (350) 
CCN(CC)Cc1ccc(CNc2c(C(=O)N(CC(=O)OC)c3ccccc3)[nH]c3ccccc23)cc1

>  <scaffold>  (350) 
O=C(Nc1ccccc1)c1[nH]c2ccccc2c1NCc1ccccc1

>  <molecular_formula>  (350) 
C30H34N4O3

$$$$
ATP-HTVS-39B6454C3B57
     RDKit          3D

 65 68  0  0  0  0  0  0  0  0999 V2000
  197.1077  188.6543  159.7746 F   0  0  0  0  0  0  0  0  0  0  0  0
  196.7224  187.3770  159.5575 C   0  0  0  0  0  0  0  0  0  0  0  0
  197.2446  186.6622  158.4717 C   0  0  0  0  0  0  0  0  0  0  0  0
  196.8411  185.3305  158.2134 C   0  0  0  0  0  0  0  0  0  0  0  0
  195.8956  184.7061  159.0757 C   0  0  0  0  0  0  0  0  0  0  0  0
  195.4694  183.4411  158.8871 N   0  0  0  0  0  0  0  0  0  0  0  0
  195.9385  182.7465  157.8378 C   0  0  0  0  0  0  0  0  0  0  0  0
  196.8730  183.2665  156.9216 C   0  0  0  0  0  0  0  0  0  0  0  0
  197.3543  184.5927  157.1157 C   0  0  0  0  0  0  0  0  0  0  0  0
  198.3000  185.1572  156.2338 N   0  0  0  0  0  0  0  0  0  0  0  0
  197.8148  186.0889  155.2118 C   0  0  1  0  0  0  0  0  0  0  0  0
  198.3425  187.4514  155.4158 C   0  0  0  0  0  0  0  0  0  0  0  0
  198.7579  188.5210  155.5745 N   0  0  0  0  0  0  0  0  0  0  0  0
  198.0519  185.6004  153.7901 C   0  0  0  0  0  0  0  0  0  0  0  0
  199.1244  186.0964  153.0167 C   0  0  0  0  0  0  0  0  0  0  0  0
  199.3063  185.6612  151.6906 C   0  0  0  0  0  0  0  0  0  0  0  0
  198.4283  184.7136  151.1343 C   0  0  0  0  0  0  0  0  0  0  0  0
  197.3636  184.2056  151.9005 C   0  0  0  0  0  0  0  0  0  0  0  0
  197.1736  184.6539  153.2214 C   0  0  0  0  0  0  0  0  0  0  0  0
  199.6857  185.1722  156.6921 C   0  0  2  0  0  0  0  0  0  0  0  0
  197.3574  182.3994  155.7933 C   0  0  0  0  0  0  0  0  0  0  0  0
  198.5453  182.3815  155.4980 O   0  0  0  0  0  0  0  0  0  0  0  0
  196.3853  181.7217  155.1319 N   0  0  0  0  0  0  0  0  0  0  0  0
  196.5561  180.9432  153.8981 C   0  0  1  0  0  0  0  0  0  0  0  0
  197.7872  180.0663  153.8421 C   0  0  0  0  0  0  0  0  0  0  0  0
  198.0954  179.2236  154.9302 C   0  0  0  0  0  0  0  0  0  0  0  0
  199.2946  178.4791  154.9335 C   0  0  0  0  0  0  0  0  0  0  0  0
  200.1793  178.5909  153.8382 C   0  0  0  0  0  0  0  0  0  0  0  0
  199.8727  179.4339  152.7518 C   0  0  0  0  0  0  0  0  0  0  0  0
  198.6821  180.1786  152.7562 C   0  0  0  0  0  0  0  0  0  0  0  0
  199.6512  177.6169  156.1296 C   0  0  1  0  0  0  0  0  0  0  0  0
  200.0614  178.3792  157.3356 N   0  0  2  0  0  0  0  0  0  0  0  0
  200.9987  179.5071  157.0890 C   0  0  2  0  0  0  0  0  0  0  0  0
  200.5729  177.4959  158.3922 C   0  0  2  0  0  0  0  0  0  0  0  0
  195.3958  185.4375  160.1675 C   0  0  0  0  0  0  0  0  0  0  0  0
  195.8003  186.7607  160.4173 C   0  0  0  0  0  0  0  0  0  0  0  0
  197.9647  187.1735  157.8573 H   0  0  0  0  0  0  0  0  0  0  0  0
  195.5551  181.7404  157.7284 H   0  0  0  0  0  0  0  0  0  0  0  0
  196.7354  186.1923  155.3341 H   0  0  0  0  0  0  0  0  0  0  0  0
  199.8141  186.8198  153.4221 H   0  0  0  0  0  0  0  0  0  0  0  0
  200.1244  186.0591  151.1094 H   0  0  0  0  0  0  0  0  0  0  0  0
  198.5746  184.3779  150.1192 H   0  0  0  0  0  0  0  0  0  0  0  0
  196.6875  183.4784  151.4792 H   0  0  0  0  0  0  0  0  0  0  0  0
  196.3460  184.2666  153.8021 H   0  0  0  0  0  0  0  0  0  0  0  0
  199.8937  184.3171  157.3402 H   0  0  0  0  0  0  0  0  0  0  0  0
  199.9081  186.0804  157.2569 H   0  0  0  0  0  0  0  0  0  0  0  0
  200.3770  185.1206  155.8475 H   0  0  0  0  0  0  0  0  0  0  0  0
  195.4294  181.8976  155.4061 H   0  0  0  0  0  0  0  0  0  0  0  0
  195.7133  180.2705  153.7857 H   0  0  0  0  0  0  0  0  0  0  0  0
  196.5112  181.6216  153.0469 H   0  0  0  0  0  0  0  0  0  0  0  0
  197.4262  179.1824  155.7794 H   0  0  0  0  0  0  0  0  0  0  0  0
  201.1113  178.0435  153.8392 H   0  0  0  0  0  0  0  0  0  0  0  0
  200.5717  179.5377  151.9362 H   0  0  0  0  0  0  0  0  0  0  0  0
  198.4704  180.8575  151.9418 H   0  0  0  0  0  0  0  0  0  0  0  0
  198.7691  177.0314  156.3866 H   0  0  0  0  0  0  0  0  0  0  0  0
  200.4304  176.9102  155.8341 H   0  0  0  0  0  0  0  0  0  0  0  0
  201.9553  179.1348  156.7195 H   0  0  0  0  0  0  0  0  0  0  0  0
  201.1866  180.0504  158.0155 H   0  0  0  0  0  0  0  0  0  0  0  0
  200.6160  180.2373  156.3805 H   0  0  0  0  0  0  0  0  0  0  0  0
  201.4991  177.0152  158.0837 H   0  0  0  0  0  0  0  0  0  0  0  0
  199.8355  176.7283  158.6210 H   0  0  0  0  0  0  0  0  0  0  0  0
  200.7832  178.0246  159.3173 H   0  0  0  0  0  0  0  0  0  0  0  0
  194.6798  184.9666  160.8193 H   0  0  0  0  0  0  0  0  0  0  0  0
  195.4095  187.3074  161.2602 H   0  0  0  0  0  0  0  0  0  0  0  0
  199.1934  178.7481  157.7018 H   0  0  0  0  0  0  0  0  0  0  0  0
  1  2  1  0
  2  3  1  0
  2 36  2  0
  3  4  2  0
  3 37  1  0
  4  5  1  0
  4  9  1  0
  5  6  1  0
  5 35  2  0
  6  7  2  0
  7  8  1  0
  7 38  1  0
  8  9  2  0
  8 21  1  0
  9 10  1  0
 10 11  1  0
 10 20  1  0
 11 12  1  0
 11 14  1  0
 11 39  1  1
 12 13  3  0
 14 15  2  0
 14 19  1  0
 15 16  1  0
 15 40  1  0
 16 17  2  0
 16 41  1  0
 17 18  1  0
 17 42  1  0
 18 19  2  0
 18 43  1  0
 19 44  1  0
 20 45  1  1
 20 46  1  0
 20 47  1  0
 21 22  2  0
 21 23  1  0
 23 24  1  0
 23 48  1  0
 24 25  1  0
 24 49  1  6
 24 50  1  0
 25 26  2  0
 25 30  1  0
 26 27  1  0
 26 51  1  0
 27 28  2  0
 27 31  1  0
 28 29  1  0
 28 52  1  0
 29 30  2  0
 29 53  1  0
 30 54  1  0
 31 32  1  0
 31 55  1  1
 31 56  1  0
 32 33  1  0
 32 34  1  0
 32 65  1  1
 33 57  1  6
 33 58  1  0
 33 59  1  0
 34 60  1  6
 34 61  1  0
 34 62  1  0
 35 36  1  0
 35 63  1  0
 36 64  1  0
M  CHG  1  32   1
M  END
>  <s_epik_cmdline>  (351) 
J2VwaWtfcHl0aG9uJywgJy1waCcsICc3LjAwMDAwMCcsICctcGh0JywgJzIuMDAwMDAwJywgJy1tcycsICcxNicsICctdG4nLCAnOCcsICctbWEnLCAnMjAwJywgJy1pbWFlJywgJzxpbmZpbGUubWFlPicsICctb21hZScsICc8b3V0ZmlsZS5tYWU+Jw==

>  <s_epik_input>  (351) 
W2NIXTFbY0hdW2NIXWMoW0NIMl1OKFtDSDNdKVtDSDNdKVtjSF1jMVtDSDJdW05IXUMoPU8pYyhbY0hdbmMoYzIzKVtjSF1bY0hdYyhGKVtjSF0yKWMzTihbQ0gzXSlbQ0BASF0oQyNOKWM0W2NIXVtjSF1bY0hdW2NIXVtjSF00

>  <s_i_glide_gridfile>  (351) 
ATP-Grid

>  <s_lp_Force_Field>  (351) 
OPLS_2005

>  <s_lp_Variant>  (351) 
rxn512c____EMOL24630243____EMOL36725275____EMOL2873214-1

>  <s_lp_label>  (351) 
2158_sdstereoexpander_1_neutralizer_1_epik_1_stereoizer_1

>  <s_m_source_file>  (351) 
ATP-VSW-LIGPREP-003-in.maegz

>  <s_sd_BIOSOLVEIT.INFINISEE\_QUERY\_NAME>  (351) 
Ref-Lig

>  <s_sd_BIOSOLVEIT.INFINISEE\_QUERY\_SMILES>  (351) 
S(c1nc2c(cc1C[NH2+]Cc3ccc(cc3)C[NH+](C)C)cccc2)Cc4ccccc4

>  <s_sd_BIOSOLVEIT.INFINISEE\_REACTION\_NAME>  (351) 
rxn512c

>  <s_sd_BIOSOLVEIT.INFINISEE\_REAGENT1\_NAME>  (351) 
EMOL24630243

>  <s_sd_BIOSOLVEIT.INFINISEE\_REAGENT1\_SMILES>  (351) 
N#CC(NC)c1ccccc1

>  <s_sd_BIOSOLVEIT.INFINISEE\_REAGENT2\_NAME>  (351) 
EMOL36725275

>  <s_sd_BIOSOLVEIT.INFINISEE\_REAGENT2\_SMILES>  (351) 
Clc1c2c(ncc1C(=O)O)ccc(F)c2

>  <s_sd_BIOSOLVEIT.INFINISEE\_REAGENT3\_NAME>  (351) 
EMOL2873214

>  <s_sd_BIOSOLVEIT.INFINISEE\_REAGENT3\_SMILES>  (351) 
N(Cc1cc(ccc1)CN)(C)C

>  <s_sd_BIOSOLVEIT.INFINISEE\_SPACE>  (351) 
eXplore_7tr_2022-12

>  <s_vsw_compound_code>  (351) 
69027

>  <s_vsw_variant>  (351) 
69027-1

>  <r_epik_Charging_Adjusted_Penalty>  (351) 
0.133035616218346

>  <r_epik_Ionization_Penalty>  (351) 
0.087499999999999994

>  <r_epik_Ionization_Penalty_Charging>  (351) 
0.045199999999999997

>  <r_epik_Ionization_Penalty_Neutral>  (351) 
0.042299999999999997

>  <r_epik_State_Penalty>  (351) 
0.087800000000000003

>  <r_i_docking_score>  (351) 
-4.7740120789222997

>  <r_i_glide_ecoul>  (351) 
-9.7500581741333008

>  <r_i_glide_eff_state_penalty>  (351) 
0.087800000000000003

>  <r_i_glide_einternal>  (351) 
5.7937669754028303

>  <r_i_glide_emodel>  (351) 
-66.266834478471907

>  <r_i_glide_energy>  (351) 
-48.977902412414601

>  <r_i_glide_erotb>  (351) 
0.69717943793183001

>  <r_i_glide_esite>  (351) 
-0.18801184984186001

>  <r_i_glide_evdw>  (351) 
-39.2278442382812

>  <r_i_glide_gscore>  (351) 
-4.8618120789223003

>  <r_i_glide_hbond>  (351) 
-0.27213554928773298

>  <r_i_glide_ligand_efficiency>  (351) 
-0.132611446636731

>  <r_i_glide_ligand_efficiency_ln>  (351) 
-1.04156045671982

>  <r_i_glide_ligand_efficiency_sa>  (351) 
-0.43787334864211402

>  <r_i_glide_lipo>  (351) 
-1.2399405694197201

>  <r_i_glide_metal>  (351) 
-0

>  <r_i_glide_rewards>  (351) 
-0.43500261027076298

>  <r_lp_Energy>  (351) 
37.459494999999997

>  <r_qp_ACxDN^.5/SA>  (351) 
0.0099971999999999995

>  <r_qp_CIQPlogS>  (351) 
-7.0609999999999999

>  <r_qp_EA(eV)>  (351) 
1.524

>  <r_qp_FISA>  (351) 
103.65600000000001

>  <r_qp_FOSA>  (351) 
275.471

>  <r_qp_IP(eV)>  (351) 
9.0749999999999993

>  <r_qp_Jm>  (351) 
0.00013617247518829501

>  <r_qp_PISA>  (351) 
383.29599999999999

>  <r_qp_PSA>  (351) 
74.912999999999997

>  <r_qp_PercentHumanOralAbsorption>  (351) 
100

>  <r_qp_QPPCaco>  (351) 
256.93900000000002

>  <r_qp_QPPMDCK>  (351) 
202.953

>  <r_qp_QPlogBB>  (351) 
-0.57899999999999996

>  <r_qp_QPlogHERG>  (351) 
-7.3899999999999997

>  <r_qp_QPlogKhsa>  (351) 
0.73199999999999998

>  <r_qp_QPlogKp>  (351) 
-3.278

>  <r_qp_QPlogPC16>  (351) 
15.707000000000001

>  <r_qp_QPlogPo/w>  (351) 
4.75

>  <r_qp_QPlogPoct>  (351) 
23.867000000000001

>  <r_qp_QPlogPw>  (351) 
12.33

>  <r_qp_QPlogS>  (351) 
-6.2699999999999996

>  <r_qp_QPpolrz>  (351) 
52.203000000000003

>  <r_qp_SASA>  (351) 
800.22299999999996

>  <r_qp_SAamideO>  (351) 
0

>  <r_qp_SAfluorine>  (351) 
37.799999999999997

>  <r_qp_WPSA>  (351) 
37.799999999999997

>  <r_qp_accptHB>  (351) 
8

>  <r_qp_dip^2/V>  (351) 
0.037888100000000001

>  <r_qp_dipole>  (351) 
7.5670000000000002

>  <r_qp_donorHB>  (351) 
1

>  <r_qp_glob>  (351) 
0.79583040000000005

>  <r_qp_mol_MW>  (351) 
481.57100000000003

>  <r_qp_volume>  (351) 
1511.1220000000001

>  <r_sd_BIOSOLVEIT.INFINISEE\_FTREES\_SIMILARITY>  (351) 
0.94399999999999995

>  <r_sd_BIOSOLVEIT.LOGP>  (351) 
3.6494800000000001

>  <r_sd_BIOSOLVEIT.MOLECULAR\_WEIGHT>  (351) 
482.57999999999998

>  <r_sd_BIOSOLVEIT.TPSA>  (351) 
73.459999999999994

>  <i_epik_Tot_Q>  (351) 
1

>  <i_epik_Tot_abs_Q>  (351) 
1

>  <i_f3d_flags>  (351) 
0

>  <i_i_glide_confnum>  (351) 
3

>  <i_i_glide_lignum>  (351) 
809

>  <i_i_glide_posenum>  (351) 
13

>  <i_i_glide_rotatable_bonds>  (351) 
9

>  <i_lp_mmshare_version>  (351) 
65135

>  <i_m_ct_format>  (351) 
2

>  <i_m_source_file_index>  (351) 
2158

>  <i_qp_#NandO>  (351) 
6

>  <i_qp_#acid>  (351) 
0

>  <i_qp_#amide>  (351) 
0

>  <i_qp_#amidine>  (351) 
0

>  <i_qp_#amine>  (351) 
1

>  <i_qp_#in34>  (351) 
0

>  <i_qp_#in56>  (351) 
22

>  <i_qp_#metab>  (351) 
7

>  <i_qp_#nonHatm>  (351) 
36

>  <i_qp_#noncon>  (351) 
0

>  <i_qp_#ringatoms>  (351) 
22

>  <i_qp_#rotor>  (351) 
9

>  <i_qp_#rtvFG>  (351) 
0

>  <i_qp_#stars>  (351) 
0

>  <i_qp_CNS>  (351) 
1

>  <i_qp_HumanOralAbsorption>  (351) 
1

>  <i_qp_RuleOfFive>  (351) 
0

>  <i_qp_RuleOfThree>  (351) 
2

>  <i_sd_BIOSOLVEIT.INFINISEE\_RESULT\_RANK>  (351) 
668

>  <i_sd_version>  (351) 
0

>  <b_lp_Chiralities_Consistent>  (351) 
1

>  <b_sd_chiral_flag>  (351) 
0

>  <canonical_id>  (351) 
ATP-HTVS-39B6454C3B57

>  <compound_code>  (351) 
69027

>  <title>  (351) 
rxn512c____EMOL24630243____EMOL36725275____EMOL2873214

>  <variant>  (351) 
69027-1

>  <source_file>  (351) 
运行/运行/ATP-VSW/ATP-VSW-DOCK_HTVS_1-003_lib/ATP-VSW-DOCK_HTVS_1-003_lib.mae

>  <canonical_smiles>  (351) 
CN(c1c(C(=O)NCc2cccc(C[NH+](C)C)c2)cnc2ccc(F)cc12)[C@@H](C#N)c1ccccc1

>  <scaffold>  (351) 
O=C(NCc1ccccc1)c1cnc2ccccc2c1NCc1ccccc1

>  <molecular_formula>  (351) 
C29H29FN5O+

$$$$
ATP-HTVS-39C66FA1D927
     RDKit          3D

 65 69  0  0  0  0  0  0  0  0999 V2000
  201.5318  182.2987  156.5514 F   0  0  0  0  0  0  0  0  0  0  0  0
  201.4728  180.9595  156.3518 C   0  0  0  0  0  0  0  0  0  0  0  0
  201.3278  180.4324  155.0613 C   0  0  0  0  0  0  0  0  0  0  0  0
  201.2927  179.0300  154.8257 C   0  0  0  0  0  0  0  0  0  0  0  0
  201.3412  178.1315  155.9437 C   0  0  0  0  0  0  0  0  0  0  0  0
  201.2418  176.7298  155.8191 N   0  0  0  0  0  0  0  0  0  0  0  0
  200.2887  176.1015  154.9162 C   0  0  1  0  0  0  0  0  0  0  0  0
  201.0277  175.0781  154.0161 C   0  0  1  0  0  0  0  0  0  0  0  0
  201.7612  174.0900  154.8484 N   0  0  2  0  0  0  0  0  0  0  0  0
  202.7094  174.7565  155.7690 C   0  0  1  0  0  0  0  0  0  0  0  0
  201.9879  175.7886  156.6601 C   0  0  1  0  0  0  0  0  0  0  0  0
  202.4349  173.0807  154.0139 C   0  0  2  0  0  0  0  0  0  0  0  0
  201.4987  178.6903  157.2364 C   0  0  0  0  0  0  0  0  0  0  0  0
  201.5780  180.0857  157.4428 C   0  0  0  0  0  0  0  0  0  0  0  0
  201.2471  178.5586  153.3842 C   0  0  0  0  0  0  0  0  0  0  0  0
  201.9976  177.6769  152.9872 O   0  0  0  0  0  0  0  0  0  0  0  0
  200.3367  179.2404  152.6388 N   0  0  0  0  0  0  0  0  0  0  0  0
  199.5989  178.7988  151.5084 C   0  0  0  0  0  0  0  0  0  0  0  0
  198.4425  179.5311  151.1358 C   0  0  0  0  0  0  0  0  0  0  0  0
  198.0537  180.6917  151.8322 N   0  0  0  0  0  0  0  0  0  0  0  0
  197.8138  180.7549  153.2279 C   0  0  0  0  0  0  0  0  0  0  0  0
  197.3636  179.5908  153.9178 C   0  0  0  0  0  0  0  0  0  0  0  0
  197.1627  179.6487  155.3165 C   0  0  0  0  0  0  0  0  0  0  0  0
  197.3961  180.8353  156.0395 C   0  0  0  0  0  0  0  0  0  0  0  0
  197.8388  181.9840  155.3643 C   0  0  0  0  0  0  0  0  0  0  0  0
  198.0468  181.9440  153.9725 C   0  0  0  0  0  0  0  0  0  0  0  0
  198.4885  181.9162  151.1580 C   0  0  1  0  0  0  0  0  0  0  0  0
  199.9104  182.2101  151.4170 C   0  0  0  0  0  0  0  0  0  0  0  0
  201.0262  182.4366  151.6266 N   0  0  0  0  0  0  0  0  0  0  0  0
  197.6940  179.0751  150.0134 C   0  0  0  0  0  0  0  0  0  0  0  0
  198.1314  177.9221  149.3082 C   0  0  0  0  0  0  0  0  0  0  0  0
  199.2114  177.2162  149.7034 N   0  0  0  0  0  0  0  0  0  0  0  0
  199.9213  177.6455  150.7633 C   0  0  0  0  0  0  0  0  0  0  0  0
  197.4143  177.5008  148.1691 C   0  0  0  0  0  0  0  0  0  0  0  0
  196.2645  178.1914  147.7463 C   0  0  0  0  0  0  0  0  0  0  0  0
  195.8011  179.2863  148.4867 C   0  0  0  0  0  0  0  0  0  0  0  0
  196.5188  179.7490  149.5968 C   0  0  0  0  0  0  0  0  0  0  0  0
  201.2806  181.1443  154.2446 H   0  0  0  0  0  0  0  0  0  0  0  0
  199.5599  175.6042  155.5714 H   0  0  0  0  0  0  0  0  0  0  0  0
  199.7220  176.8188  154.3159 H   0  0  0  0  0  0  0  0  0  0  0  0
  200.3281  174.5515  153.3554 H   0  0  0  0  0  0  0  0  0  0  0  0
  201.7181  175.6232  153.3751 H   0  0  0  0  0  0  0  0  0  0  0  0
  203.2466  174.0346  156.3935 H   0  0  0  0  0  0  0  0  0  0  0  0
  203.4672  175.2922  155.1956 H   0  0  0  0  0  0  0  0  0  0  0  0
  202.7351  176.2538  157.2989 H   0  0  0  0  0  0  0  0  0  0  0  0
  201.3108  175.2729  157.3523 H   0  0  0  0  0  0  0  0  0  0  0  0
  203.2232  173.5441  153.4144 H   0  0  0  0  0  0  0  0  0  0  0  0
  201.7308  172.6118  153.3175 H   0  0  0  0  0  0  0  0  0  0  0  0
  202.8877  172.2871  154.6221 H   0  0  0  0  0  0  0  0  0  0  0  0
  201.5687  178.0527  158.1042 H   0  0  0  0  0  0  0  0  0  0  0  0
  201.7115  180.4873  158.4490 H   0  0  0  0  0  0  0  0  0  0  0  0
  199.9218  180.0684  153.0606 H   0  0  0  0  0  0  0  0  0  0  0  0
  197.1969  178.6451  153.4139 H   0  0  0  0  0  0  0  0  0  0  0  0
  196.8290  178.7655  155.8391 H   0  0  0  0  0  0  0  0  0  0  0  0
  197.2209  180.8637  157.1038 H   0  0  0  0  0  0  0  0  0  0  0  0
  198.0282  182.9053  155.9043 H   0  0  0  0  0  0  0  0  0  0  0  0
  198.4203  182.8492  153.5237 H   0  0  0  0  0  0  0  0  0  0  0  0
  198.3502  181.8370  150.0775 H   0  0  0  0  0  0  0  0  0  0  0  0
  197.8825  182.7640  151.4702 H   0  0  0  0  0  0  0  0  0  0  0  0
  200.7704  177.0182  150.9850 H   0  0  0  0  0  0  0  0  0  0  0  0
  197.7252  176.6166  147.6337 H   0  0  0  0  0  0  0  0  0  0  0  0
  195.7218  177.8526  146.8726 H   0  0  0  0  0  0  0  0  0  0  0  0
  194.9122  179.8017  148.1606 H   0  0  0  0  0  0  0  0  0  0  0  0
  196.1714  180.6380  150.1040 H   0  0  0  0  0  0  0  0  0  0  0  0
  201.0891  173.6067  155.4303 H   0  0  0  0  0  0  0  0  0  0  0  0
  1  2  1  0
  2  3  2  0
  2 14  1  0
  3  4  1  0
  3 38  1  0
  4  5  2  0
  4 15  1  0
  5  6  1  0
  5 13  1  0
  6  7  1  0
  6 11  1  0
  7  8  1  0
  7 39  1  1
  7 40  1  0
  8  9  1  0
  8 41  1  6
  8 42  1  0
  9 10  1  0
  9 12  1  0
  9 65  1  1
 10 11  1  0
 10 43  1  1
 10 44  1  0
 11 45  1  1
 11 46  1  0
 12 47  1  6
 12 48  1  0
 12 49  1  0
 13 14  2  0
 13 50  1  0
 14 51  1  0
 15 16  2  0
 15 17  1  0
 17 18  1  0
 17 52  1  0
 18 19  2  0
 18 33  1  0
 19 20  1  0
 19 30  1  0
 20 21  1  0
 20 27  1  0
 21 22  2  0
 21 26  1  0
 22 23  1  0
 22 53  1  0
 23 24  2  0
 23 54  1  0
 24 25  1  0
 24 55  1  0
 25 26  2  0
 25 56  1  0
 26 57  1  0
 27 28  1  0
 27 58  1  6
 27 59  1  0
 28 29  3  0
 30 31  1  0
 30 37  2  0
 31 32  1  0
 31 34  2  0
 32 33  2  0
 33 60  1  0
 34 35  1  0
 34 61  1  0
 35 36  2  0
 35 62  1  0
 36 37  1  0
 36 63  1  0
 37 64  1  0
M  CHG  1   9   1
M  END
>  <s_epik_cmdline>  (352) 
J2VwaWtfcHl0aG9uJywgJy1waCcsICc3LjAwMDAwMCcsICctcGh0JywgJzIuMDAwMDAwJywgJy1tcycsICcxNicsICctdG4nLCAnOCcsICctbWEnLCAnMjAwJywgJy1pbWFlJywgJzxpbmZpbGUubWFlPicsICctb21hZScsICc8b3V0ZmlsZS5tYWU+Jw==

>  <s_epik_input>  (352) 
W0NIMl0xW0NIMl1OKFtDSDNdKVtDSDJdW0NIMl1OMWMoW2NIXVtjSF0yKWMoW2NIXWMyRilDKD1PKVtOSF1jKFtjSF1uYyhjMzQpW2NIXVtjSF1bY0hdW2NIXTQpYzNOKFtDSDJdQyNOKWM1W2NIXVtjSF1bY0hdW2NIXVtjSF01

>  <s_i_glide_gridfile>  (352) 
ATP-Grid

>  <s_lp_Force_Field>  (352) 
OPLS_2005

>  <s_lp_Variant>  (352) 
rxn502b____EMOL30151713____EMOL30488121____EMOL712348-1

>  <s_lp_label>  (352) 
2864_sdstereoexpander_1_neutralizer_1_epik_1_stereoizer_1

>  <s_m_source_file>  (352) 
ATP-VSW-LIGPREP-003-in.maegz

>  <s_sd_BIOSOLVEIT.INFINISEE\_QUERY\_NAME>  (352) 
Ref-Lig

>  <s_sd_BIOSOLVEIT.INFINISEE\_QUERY\_SMILES>  (352) 
S(c1nc2c(cc1C[NH2+]Cc3ccc(cc3)C[NH+](C)C)cccc2)Cc4ccccc4

>  <s_sd_BIOSOLVEIT.INFINISEE\_REACTION\_NAME>  (352) 
rxn502b

>  <s_sd_BIOSOLVEIT.INFINISEE\_REAGENT1\_NAME>  (352) 
EMOL30151713

>  <s_sd_BIOSOLVEIT.INFINISEE\_REAGENT1\_SMILES>  (352) 
Fc1cc(c(N2CCN(CC2)C)cc1)C(=O)O

>  <s_sd_BIOSOLVEIT.INFINISEE\_REAGENT2\_NAME>  (352) 
EMOL30488121

>  <s_sd_BIOSOLVEIT.INFINISEE\_REAGENT2\_SMILES>  (352) 
Brc1c(N)cnc2c1cccc2

>  <s_sd_BIOSOLVEIT.INFINISEE\_REAGENT3\_NAME>  (352) 
EMOL712348

>  <s_sd_BIOSOLVEIT.INFINISEE\_REAGENT3\_SMILES>  (352) 
N#CCNc1ccccc1

>  <s_sd_BIOSOLVEIT.INFINISEE\_SPACE>  (352) 
eXplore_7tr_2022-12

>  <s_vsw_compound_code>  (352) 
91619

>  <s_vsw_variant>  (352) 
91619-1

>  <r_epik_Charging_Adjusted_Penalty>  (352) 
0.15377402812447699

>  <r_epik_Ionization_Penalty>  (352) 
0.084199999999999997

>  <r_epik_Ionization_Penalty_Charging>  (352) 
0.069599999999999995

>  <r_epik_Ionization_Penalty_Neutral>  (352) 
0.0146

>  <r_epik_State_Penalty>  (352) 
0.084199999999999997

>  <r_i_docking_score>  (352) 
-2.6583406950213599

>  <r_i_glide_ecoul>  (352) 
-4.2735290527343803

>  <r_i_glide_eff_state_penalty>  (352) 
0.084199999999999997

>  <r_i_glide_einternal>  (352) 
6.6587033271789604

>  <r_i_glide_emodel>  (352) 
-31.990506676952101

>  <r_i_glide_energy>  (352) 
-28.629945755004901

>  <r_i_glide_erotb>  (352) 
0.49805638631555599

>  <r_i_glide_esite>  (352) 
0

>  <r_i_glide_evdw>  (352) 
-24.356416702270501

>  <r_i_glide_gscore>  (352) 
-2.74254069502136

>  <r_i_glide_hbond>  (352) 
0

>  <r_i_glide_ligand_efficiency>  (352) 
-0.071847045811388094

>  <r_i_glide_ligand_efficiency_ln>  (352) 
-0.57653177640217002

>  <r_i_glide_ligand_efficiency_sa>  (352) 
-0.23941029574075201

>  <r_i_glide_lipo>  (352) 
-1.19379095610019

>  <r_i_glide_metal>  (352) 
-0

>  <r_i_glide_rewards>  (352) 
-0.18795593221304499

>  <r_lp_Energy>  (352) 
64.483171999999996

>  <r_qp_ACxDN^.5/SA>  (352) 
0.0112429

>  <r_qp_CIQPlogS>  (352) 
-7.2199999999999998

>  <r_qp_EA(eV)>  (352) 
1.238

>  <r_qp_FISA>  (352) 
104.06699999999999

>  <r_qp_FOSA>  (352) 
203.05099999999999

>  <r_qp_IP(eV)>  (352) 
8.8149999999999995

>  <r_qp_Jm>  (352) 
0.000230183427217471

>  <r_qp_PISA>  (352) 
401.94299999999998

>  <r_qp_PSA>  (352) 
74.451999999999998

>  <r_qp_PercentHumanOralAbsorption>  (352) 
95.700000000000003

>  <r_qp_QPPCaco>  (352) 
254.64400000000001

>  <r_qp_QPPMDCK>  (352) 
225.64099999999999

>  <r_qp_QPlogBB>  (352) 
-0.29299999999999998

>  <r_qp_QPlogHERG>  (352) 
-6.9370000000000003

>  <r_qp_QPlogKhsa>  (352) 
0.67800000000000005

>  <r_qp_QPlogKp>  (352) 
-3.508

>  <r_qp_QPlogPC16>  (352) 
15.332000000000001

>  <r_qp_QPlogPo/w>  (352) 
4.3879999999999999

>  <r_qp_QPlogPoct>  (352) 
24.763999999999999

>  <r_qp_QPlogPw>  (352) 
13.51

>  <r_qp_QPlogS>  (352) 
-5.8239999999999998

>  <r_qp_QPpolrz>  (352) 
52.911000000000001

>  <r_qp_SASA>  (352) 
756.03200000000004

>  <r_qp_SAamideO>  (352) 
0

>  <r_qp_SAfluorine>  (352) 
46.969999999999999

>  <r_qp_WPSA>  (352) 
46.969999999999999

>  <r_qp_accptHB>  (352) 
8.5

>  <r_qp_dip^2/V>  (352) 
0.0420033

>  <r_qp_dipole>  (352) 
7.8739999999999997

>  <r_qp_donorHB>  (352) 
1

>  <r_qp_glob>  (352) 
0.82933140000000005

>  <r_qp_mol_MW>  (352) 
494.56999999999999

>  <r_qp_volume>  (352) 
1476.232

>  <r_sd_BIOSOLVEIT.INFINISEE\_FTREES\_SIMILARITY>  (352) 
0.90500000000000003

>  <r_sd_BIOSOLVEIT.LOGP>  (352) 
3.6225800000000001

>  <r_sd_BIOSOLVEIT.MOLECULAR\_WEIGHT>  (352) 
495.57900000000001

>  <r_sd_BIOSOLVEIT.TPSA>  (352) 
76.700000000000003

>  <i_epik_Tot_Q>  (352) 
1

>  <i_epik_Tot_abs_Q>  (352) 
1

>  <i_f3d_flags>  (352) 
0

>  <i_i_glide_confnum>  (352) 
1

>  <i_i_glide_lignum>  (352) 
1387

>  <i_i_glide_posenum>  (352) 
10

>  <i_i_glide_rotatable_bonds>  (352) 
7

>  <i_lp_mmshare_version>  (352) 
65135

>  <i_m_ct_format>  (352) 
2

>  <i_m_source_file_index>  (352) 
2864

>  <i_qp_#NandO>  (352) 
7

>  <i_qp_#acid>  (352) 
0

>  <i_qp_#amide>  (352) 
0

>  <i_qp_#amidine>  (352) 
0

>  <i_qp_#amine>  (352) 
1

>  <i_qp_#in34>  (352) 
0

>  <i_qp_#in56>  (352) 
28

>  <i_qp_#metab>  (352) 
5

>  <i_qp_#nonHatm>  (352) 
37

>  <i_qp_#noncon>  (352) 
4

>  <i_qp_#ringatoms>  (352) 
28

>  <i_qp_#rotor>  (352) 
6

>  <i_qp_#rtvFG>  (352) 
0

>  <i_qp_#stars>  (352) 
0

>  <i_qp_CNS>  (352) 
1

>  <i_qp_HumanOralAbsorption>  (352) 
3

>  <i_qp_RuleOfFive>  (352) 
0

>  <i_qp_RuleOfThree>  (352) 
1

>  <i_sd_BIOSOLVEIT.INFINISEE\_RESULT\_RANK>  (352) 
70619

>  <i_sd_version>  (352) 
0

>  <b_lp_Chiralities_Consistent>  (352) 
1

>  <b_sd_chiral_flag>  (352) 
0

>  <canonical_id>  (352) 
ATP-HTVS-39C66FA1D927

>  <compound_code>  (352) 
91619

>  <title>  (352) 
rxn502b____EMOL30151713____EMOL30488121____EMOL712348

>  <variant>  (352) 
91619-1

>  <source_file>  (352) 
运行/运行/ATP-VSW/ATP-VSW-DOCK_HTVS_1-003_lib/ATP-VSW-DOCK_HTVS_1-003_lib.mae

>  <canonical_smiles>  (352) 
C[NH+]1CCN(c2ccc(F)cc2C(=O)Nc2cnc3ccccc3c2N(CC#N)c2ccccc2)CC1

>  <scaffold>  (352) 
O=C(Nc1cnc2ccccc2c1Nc1ccccc1)c1ccccc1N1CC[NH2+]CC1

>  <molecular_formula>  (352) 
C29H28FN6O+

$$$$
ATP-HTVS-3A2C3DD6A630
     RDKit          3D

 54 56  0  0  0  0  0  0  0  0999 V2000
  197.8155  181.8532  154.0559 S   0  0  0  0  0  0  0  0  0  0  0  0
  198.2392  180.8339  155.4112 C   0  0  0  0  0  0  0  0  0  0  0  0
  198.2338  181.5244  156.7246 C   0  0  0  0  0  0  0  0  0  0  0  0
  199.3216  181.7736  157.2477 O   0  0  0  0  0  0  0  0  0  0  0  0
  197.0381  181.8346  157.3007 N   0  0  0  0  0  0  0  0  0  0  0  0
  195.7642  181.4921  156.6543 C   0  0  1  0  0  0  0  0  0  0  0  0
  194.5816  181.4438  157.5353 C   0  0  0  0  0  0  0  0  0  0  0  0
  193.6419  181.4125  158.2163 N   0  0  0  0  0  0  0  0  0  0  0  0
  196.9487  182.4654  158.6360 C   0  0  1  0  0  0  0  0  0  0  0  0
  197.3533  183.9263  158.6736 C   0  0  0  0  0  0  0  0  0  0  0  0
  198.7052  184.2625  158.8627 C   0  0  0  0  0  0  0  0  0  0  0  0
  199.1024  185.6083  158.9090 C   0  0  0  0  0  0  0  0  0  0  0  0
  198.1378  186.6282  158.7867 C   0  0  0  0  0  0  0  0  0  0  0  0
  196.7789  186.2982  158.6081 C   0  0  0  0  0  0  0  0  0  0  0  0
  196.3834  184.9459  158.5435 C   0  0  0  0  0  0  0  0  0  0  0  0
  198.5972  179.5620  155.0007 C   0  0  0  0  0  0  0  0  0  0  0  0
  199.1315  178.5141  155.7968 N   0  0  0  0  0  0  0  0  0  0  0  0
  200.1012  177.5537  155.4637 C   0  0  0  0  0  0  0  0  0  0  0  0
  200.6229  176.7018  156.4744 C   0  0  0  0  0  0  0  0  0  0  0  0
  201.5932  175.7108  156.1750 C   0  0  0  0  0  0  0  0  0  0  0  0
  202.0392  175.5613  154.8364 C   0  0  0  0  0  0  0  0  0  0  0  0
  201.5343  176.4248  153.8354 C   0  0  0  0  0  0  0  0  0  0  0  0
  200.5770  177.4017  154.1315 C   0  0  0  0  0  0  0  0  0  0  0  0
  203.0591  174.4863  154.4559 C   0  0  1  0  0  0  0  0  0  0  0  0
  202.4792  173.3669  153.6537 N   0  0  1  0  0  0  0  0  0  0  0  0
  201.5459  172.5368  154.4392 C   0  0  2  0  0  0  0  0  0  0  0  0
  201.8871  173.7602  152.3439 C   0  0  2  0  0  0  0  0  0  0  0  0
  198.3661  179.3731  153.6005 C   0  0  0  0  0  0  0  0  0  0  0  0
  197.9802  180.5162  152.9544 C   0  0  0  0  0  0  0  0  0  0  0  0
  195.5552  182.2194  155.8775 H   0  0  0  0  0  0  0  0  0  0  0  0
  195.8338  180.5288  156.1605 H   0  0  0  0  0  0  0  0  0  0  0  0
  195.9498  182.3991  159.0870 H   0  0  0  0  0  0  0  0  0  0  0  0
  197.5513  181.8959  159.3223 H   0  0  0  0  0  0  0  0  0  0  0  0
  199.4517  183.4866  158.9774 H   0  0  0  0  0  0  0  0  0  0  0  0
  200.1489  185.8514  159.0405 H   0  0  0  0  0  0  0  0  0  0  0  0
  198.4446  187.6622  158.8327 H   0  0  0  0  0  0  0  0  0  0  0  0
  196.0385  187.0813  158.5249 H   0  0  0  0  0  0  0  0  0  0  0  0
  195.3422  184.6924  158.4114 H   0  0  0  0  0  0  0  0  0  0  0  0
  198.7843  178.4727  156.7505 H   0  0  0  0  0  0  0  0  0  0  0  0
  200.3038  176.8209  157.5042 H   0  0  0  0  0  0  0  0  0  0  0  0
  201.9971  175.0858  156.9695 H   0  0  0  0  0  0  0  0  0  0  0  0
  201.8828  176.3124  152.8196 H   0  0  0  0  0  0  0  0  0  0  0  0
  200.2295  178.0017  153.3270 H   0  0  0  0  0  0  0  0  0  0  0  0
  203.8653  174.9653  153.8888 H   0  0  0  0  0  0  0  0  0  0  0  0
  203.5271  174.0856  155.3608 H   0  0  0  0  0  0  0  0  0  0  0  0
  200.6739  173.1117  154.7562 H   0  0  0  0  0  0  0  0  0  0  0  0
  202.0451  172.1323  155.3234 H   0  0  0  0  0  0  0  0  0  0  0  0
  201.1987  171.6978  153.8385 H   0  0  0  0  0  0  0  0  0  0  0  0
  201.0214  174.4184  152.4797 H   0  0  0  0  0  0  0  0  0  0  0  0
  201.5747  172.8781  151.7690 H   0  0  0  0  0  0  0  0  0  0  0  0
  202.6193  174.2995  151.7455 H   0  0  0  0  0  0  0  0  0  0  0  0
  198.5112  178.4238  153.1279 H   0  0  0  0  0  0  0  0  0  0  0  0
  197.7978  180.6719  151.9050 H   0  0  0  0  0  0  0  0  0  0  0  0
  203.2552  172.7459  153.4427 H   0  0  0  0  0  0  0  0  0  0  0  0
  1  2  1  0
  1 29  1  0
  2  3  1  0
  2 16  2  0
  3  4  2  0
  3  5  1  0
  5  6  1  0
  5  9  1  0
  6  7  1  0
  6 30  1  6
  6 31  1  0
  7  8  3  0
  9 10  1  0
  9 32  1  1
  9 33  1  0
 10 11  2  0
 10 15  1  0
 11 12  1  0
 11 34  1  0
 12 13  2  0
 12 35  1  0
 13 14  1  0
 13 36  1  0
 14 15  2  0
 14 37  1  0
 15 38  1  0
 16 17  1  0
 16 28  1  0
 17 18  1  0
 17 39  1  0
 18 19  1  0
 18 23  2  0
 19 20  2  0
 19 40  1  0
 20 21  1  0
 20 41  1  0
 21 22  2  0
 21 24  1  0
 22 23  1  0
 22 42  1  0
 23 43  1  0
 24 25  1  0
 24 44  1  6
 24 45  1  0
 25 26  1  0
 25 27  1  0
 25 54  1  6
 26 46  1  1
 26 47  1  0
 26 48  1  0
 27 49  1  1
 27 50  1  0
 27 51  1  0
 28 29  2  0
 28 52  1  0
 29 53  1  0
M  CHG  1  25   1
M  END
>  <s_epik_cmdline>  (353) 
J2VwaWtfcHl0aG9uJywgJy1waCcsICc3LjAwMDAwMCcsICctcGh0JywgJzIuMDAwMDAwJywgJy1tcycsICcxNicsICctdG4nLCAnOCcsICctbWEnLCAnMjAwJywgJy1pbWFlJywgJzxpbmZpbGUubWFlPicsICctb21hZScsICc8b3V0ZmlsZS5tYWU+Jw==

>  <s_epik_input>  (353) 
W2NIXTFbY0hdW2NIXVtjSF1bY0hdYzFbQ0gyXU4oW0NIMl1DI04pQyg9TyljMnNbY0hdW2NIXWMyW05IXWMzW2NIXVtjSF1jKFtjSF1bY0hdMylbQ0gyXU4oW0NIM10pW0NIM10=

>  <s_i_glide_gridfile>  (353) 
ATP-Grid

>  <s_lp_Force_Field>  (353) 
OPLS_2005

>  <s_lp_Variant>  (353) 
rxn514b____EMOL300091282____EMOL1836585____EMOL2732950-1

>  <s_lp_label>  (353) 
3098_sdstereoexpander_1_neutralizer_1_epik_1_stereoizer_1

>  <s_m_source_file>  (353) 
ATP-VSW-LIGPREP-001-in.maegz

>  <s_sd_BIOSOLVEIT.INFINISEE\_QUERY\_NAME>  (353) 
Ref-Lig

>  <s_sd_BIOSOLVEIT.INFINISEE\_QUERY\_SMILES>  (353) 
S(c1nc2c(cc1C[NH2+]Cc3ccc(cc3)C[NH+](C)C)cccc2)Cc4ccccc4

>  <s_sd_BIOSOLVEIT.INFINISEE\_REACTION\_NAME>  (353) 
rxn514b

>  <s_sd_BIOSOLVEIT.INFINISEE\_REAGENT1\_NAME>  (353) 
EMOL300091282

>  <s_sd_BIOSOLVEIT.INFINISEE\_REAGENT1\_SMILES>  (353) 
N#CCNCc1ccccc1

>  <s_sd_BIOSOLVEIT.INFINISEE\_REAGENT2\_NAME>  (353) 
EMOL1836585

>  <s_sd_BIOSOLVEIT.INFINISEE\_REAGENT2\_SMILES>  (353) 
S1C(C(=O)O)=C(NC(=O)OC(C)(C)C)C=C1

>  <s_sd_BIOSOLVEIT.INFINISEE\_REAGENT3\_NAME>  (353) 
EMOL2732950

>  <s_sd_BIOSOLVEIT.INFINISEE\_REAGENT3\_SMILES>  (353) 
Brc1ccc(cc1)CN(C)C

>  <s_sd_BIOSOLVEIT.INFINISEE\_SPACE>  (353) 
eXplore_7tr_2022-12

>  <s_vsw_compound_code>  (353) 
99105

>  <s_vsw_variant>  (353) 
99105-1

>  <r_epik_Charging_Adjusted_Penalty>  (353) 
0.078320693119275198

>  <r_epik_Ionization_Penalty>  (353) 
0.039199999999999999

>  <r_epik_Ionization_Penalty_Charging>  (353) 
0.039199999999999999

>  <r_epik_Ionization_Penalty_Neutral>  (353) 
0

>  <r_epik_State_Penalty>  (353) 
0.039199999999999999

>  <r_i_docking_score>  (353) 
-4.7941407535944602

>  <r_i_glide_ecoul>  (353) 
-10.176715850830099

>  <r_i_glide_eff_state_penalty>  (353) 
0.039199999999999999

>  <r_i_glide_einternal>  (353) 
10.080374717712401

>  <r_i_glide_emodel>  (353) 
-53.801710883207797

>  <r_i_glide_energy>  (353) 
-41.938503265380902

>  <r_i_glide_erotb>  (353) 
0.71702498611315701

>  <r_i_glide_esite>  (353) 
-0.35607144070323898

>  <r_i_glide_evdw>  (353) 
-31.761787414550799

>  <r_i_glide_gscore>  (353) 
-4.8333407535944604

>  <r_i_glide_hbond>  (353) 
-0.15024971145133301

>  <r_i_glide_ligand_efficiency>  (353) 
-0.16531519839980899

>  <r_i_glide_ligand_efficiency_ln>  (353) 
-1.09773666365287

>  <r_i_glide_ligand_efficiency_sa>  (353) 
-0.507900665015243

>  <r_i_glide_lipo>  (353) 
-1.06038056647372

>  <r_i_glide_metal>  (353) 
-0

>  <r_i_glide_rewards>  (353) 
-0.86906727272727102

>  <r_lp_Energy>  (353) 
28.441569000000001

>  <r_lp_tautomer_probability>  (353) 
0.99999274205267796

>  <r_qp_ACxDN^.5/SA>  (353) 
0

>  <r_qp_CIQPlogS>  (353) 
-5.8520000000000003

>  <r_qp_EA(eV)>  (353) 
0.753

>  <r_qp_FISA>  (353) 
86.542000000000002

>  <r_qp_FOSA>  (353) 
216.96700000000001

>  <r_qp_IP(eV)>  (353) 
8.3010000000000002

>  <r_qp_Jm>  (353) 
0.0056161341896589804

>  <r_qp_PISA>  (353) 
360.56700000000001

>  <r_qp_PSA>  (353) 
63.151000000000003

>  <r_qp_PercentHumanOralAbsorption>  (353) 
100

>  <r_qp_QPPCaco>  (353) 
373.35399999999998

>  <r_qp_QPPMDCK>  (353) 
297.20400000000001

>  <r_qp_QPlogBB>  (353) 
-0.35199999999999998

>  <r_qp_QPlogHERG>  (353) 
-6.9080000000000004

>  <r_qp_QPlogKhsa>  (353) 
0.378

>  <r_qp_QPlogKp>  (353) 
-3.0430000000000001

>  <r_qp_QPlogPC16>  (353) 
13.617000000000001

>  <r_qp_QPlogPo/w>  (353) 
4.2270000000000003

>  <r_qp_QPlogPoct>  (353) 
18.145

>  <r_qp_QPlogPw>  (353) 
8.3819999999999997

>  <r_qp_QPlogS>  (353) 
-4.8150000000000004

>  <r_qp_QPpolrz>  (353) 
43.164000000000001

>  <r_qp_SASA>  (353) 
700.09500000000003

>  <r_qp_SAamideO>  (353) 
0

>  <r_qp_SAfluorine>  (353) 
0

>  <r_qp_WPSA>  (353) 
36.018999999999998

>  <r_qp_accptHB>  (353) 
6

>  <r_qp_dip^2/V>  (353) 
0.044120300000000001

>  <r_qp_dipole>  (353) 
7.5460000000000003

>  <r_qp_donorHB>  (353) 
0

>  <r_qp_glob>  (353) 
0.81888510000000003

>  <r_qp_mol_MW>  (353) 
404.529

>  <r_qp_volume>  (353) 
1290.6900000000001

>  <r_sd_BIOSOLVEIT.INFINISEE\_FTREES\_SIMILARITY>  (353) 
0.90100000000000002

>  <r_sd_BIOSOLVEIT.LOGP>  (353) 
3.3021799999999999

>  <r_sd_BIOSOLVEIT.MOLECULAR\_WEIGHT>  (353) 
405.54300000000001

>  <r_sd_BIOSOLVEIT.TPSA>  (353) 
60.57

>  <i_epik_Tot_Q>  (353) 
1

>  <i_epik_Tot_abs_Q>  (353) 
1

>  <i_f3d_flags>  (353) 
0

>  <i_i_glide_confnum>  (353) 
7

>  <i_i_glide_lignum>  (353) 
53

>  <i_i_glide_posenum>  (353) 
8

>  <i_i_glide_rotatable_bonds>  (353) 
9

>  <i_lp_mmshare_version>  (353) 
65135

>  <i_m_ct_format>  (353) 
2

>  <i_m_source_file_index>  (353) 
3098

>  <i_qp_#NandO>  (353) 
5

>  <i_qp_#acid>  (353) 
0

>  <i_qp_#amide>  (353) 
0

>  <i_qp_#amidine>  (353) 
0

>  <i_qp_#amine>  (353) 
1

>  <i_qp_#in34>  (353) 
0

>  <i_qp_#in56>  (353) 
17

>  <i_qp_#metab>  (353) 
6

>  <i_qp_#nonHatm>  (353) 
29

>  <i_qp_#noncon>  (353) 
0

>  <i_qp_#ringatoms>  (353) 
17

>  <i_qp_#rotor>  (353) 
9

>  <i_qp_#rtvFG>  (353) 
0

>  <i_qp_#stars>  (353) 
0

>  <i_qp_CNS>  (353) 
1

>  <i_qp_HumanOralAbsorption>  (353) 
3

>  <i_qp_RuleOfFive>  (353) 
0

>  <i_qp_RuleOfThree>  (353) 
0

>  <i_sd_BIOSOLVEIT.INFINISEE\_RESULT\_RANK>  (353) 
96666

>  <i_sd_version>  (353) 
0

>  <b_lp_Chiralities_Consistent>  (353) 
1

>  <b_sd_chiral_flag>  (353) 
0

>  <canonical_id>  (353) 
ATP-HTVS-3A2C3DD6A630

>  <compound_code>  (353) 
99105

>  <title>  (353) 
rxn514b____EMOL300091282____EMOL1836585____EMOL2732950

>  <variant>  (353) 
99105-1

>  <source_file>  (353) 
运行/运行/ATP-VSW/ATP-VSW-DOCK_HTVS_1-002_lib.maegz

>  <canonical_smiles>  (353) 
C[NH+](C)Cc1ccc(Nc2ccsc2C(=O)N(CC#N)Cc2ccccc2)cc1

>  <scaffold>  (353) 
O=C(NCc1ccccc1)c1sccc1Nc1ccccc1

>  <molecular_formula>  (353) 
C23H25N4OS+

$$$$
ATP-HTVS-3A4856D72337
     RDKit          3D

 69 72  0  0  0  0  0  0  0  0999 V2000
  201.5248  176.3121  151.4703 O   0  0  0  0  0  0  0  0  0  0  0  0
  201.0733  176.5456  152.5937 C   0  0  0  0  0  0  0  0  0  0  0  0
  200.0901  177.4225  152.8451 N   0  0  0  0  0  0  0  0  0  0  0  0
  199.1615  177.9866  151.9382 C   0  0  0  0  0  0  0  0  0  0  0  0
  198.9525  177.4481  150.7175 N   0  0  0  0  0  0  0  0  0  0  0  0
  198.0291  177.9674  149.8860 C   0  0  0  0  0  0  0  0  0  0  0  0
  197.2454  179.0802  150.2792 C   0  0  0  0  0  0  0  0  0  0  0  0
  197.4454  179.6550  151.5444 C   0  0  0  0  0  0  0  0  0  0  0  0
  198.4211  179.1052  152.4068 C   0  0  0  0  0  0  0  0  0  0  0  0
  198.6399  179.6375  153.6902 N   0  0  0  0  0  0  0  0  0  0  0  0
  198.3644  181.0324  153.9729 C   0  0  1  0  0  0  0  0  0  0  0  0
  198.9965  181.5258  155.2663 C   0  0  0  0  0  0  0  0  0  0  0  0
  198.2975  182.4638  156.0441 C   0  0  0  0  0  0  0  0  0  0  0  0
  198.8019  182.8704  157.2972 C   0  0  0  0  0  0  0  0  0  0  0  0
  200.0750  182.4229  157.7184 C   0  0  0  0  0  0  0  0  0  0  0  0
  200.8014  181.5190  156.9228 C   0  0  0  0  0  0  0  0  0  0  0  0
  200.2636  181.0616  155.7024 C   0  0  0  0  0  0  0  0  0  0  0  0
  197.9853  183.8098  158.1722 C   0  0  1  0  0  0  0  0  0  0  0  0
  196.8548  183.1479  158.8916 N   0  0  1  0  0  0  0  0  0  0  0  0
  196.2801  184.0516  159.9245 C   0  0  1  0  0  0  0  0  0  0  0  0
  195.5362  185.2710  159.3380 C   0  0  2  0  0  0  0  0  0  0  0  0
  195.8372  182.5365  157.9883 C   0  0  1  0  0  0  0  0  0  0  0  0
  194.6838  181.8405  158.7168 C   0  0  2  0  0  0  0  0  0  0  0  0
  196.2566  179.5948  149.4227 C   0  0  0  0  0  0  0  0  0  0  0  0
  196.0519  179.0113  148.1631 C   0  0  0  0  0  0  0  0  0  0  0  0
  196.8458  177.9281  147.7437 C   0  0  0  0  0  0  0  0  0  0  0  0
  197.8176  177.3987  148.6140 C   0  0  0  0  0  0  0  0  0  0  0  0
  201.5930  175.8424  153.8288 C   0  0  0  0  0  0  0  0  0  0  0  0
  202.0992  174.5019  153.8313 C   0  0  0  0  0  0  0  0  0  0  0  0
  202.6037  173.9504  155.0327 C   0  0  0  0  0  0  0  0  0  0  0  0
  202.5620  174.6647  156.2372 C   0  0  0  0  0  0  0  0  0  0  0  0
  201.9934  175.9406  156.2605 C   0  0  0  0  0  0  0  0  0  0  0  0
  201.5413  176.5338  155.0709 C   0  0  0  0  0  0  0  0  0  0  0  0
  202.1872  173.6067  152.6364 C   0  0  0  0  0  0  0  0  0  0  0  0
  202.7729  173.8953  151.5919 O   0  0  0  0  0  0  0  0  0  0  0  0
  201.5343  172.2390  152.7728 C   0  0  2  0  0  0  0  0  0  0  0  0
  199.9523  177.6838  153.8060 H   0  0  0  0  0  0  0  0  0  0  0  0
  196.8367  180.4901  151.8583 H   0  0  0  0  0  0  0  0  0  0  0  0
  199.2345  179.1665  154.3553 H   0  0  0  0  0  0  0  0  0  0  0  0
  198.7252  181.6557  153.1538 H   0  0  0  0  0  0  0  0  0  0  0  0
  197.2807  181.1576  154.0301 H   0  0  0  0  0  0  0  0  0  0  0  0
  197.3541  182.8413  155.6803 H   0  0  0  0  0  0  0  0  0  0  0  0
  200.4881  182.7541  158.6641 H   0  0  0  0  0  0  0  0  0  0  0  0
  201.7625  181.1615  157.2552 H   0  0  0  0  0  0  0  0  0  0  0  0
  200.8246  180.3462  155.1108 H   0  0  0  0  0  0  0  0  0  0  0  0
  198.6533  184.2572  158.9131 H   0  0  0  0  0  0  0  0  0  0  0  0
  197.6311  184.6296  157.5422 H   0  0  0  0  0  0  0  0  0  0  0  0
  195.5981  183.4876  160.5552 H   0  0  0  0  0  0  0  0  0  0  0  0
  197.0774  184.3904  160.5937 H   0  0  0  0  0  0  0  0  0  0  0  0
  195.1086  185.8916  160.1280 H   0  0  0  0  0  0  0  0  0  0  0  0
  194.7034  184.9733  158.7040 H   0  0  0  0  0  0  0  0  0  0  0  0
  196.1858  185.9155  158.7422 H   0  0  0  0  0  0  0  0  0  0  0  0
  195.4408  183.2863  157.3042 H   0  0  0  0  0  0  0  0  0  0  0  0
  196.3015  181.7543  157.3789 H   0  0  0  0  0  0  0  0  0  0  0  0
  194.0462  181.3544  157.9762 H   0  0  0  0  0  0  0  0  0  0  0  0
  194.0538  182.5039  159.3105 H   0  0  0  0  0  0  0  0  0  0  0  0
  195.0809  181.0484  159.3519 H   0  0  0  0  0  0  0  0  0  0  0  0
  195.6561  180.4288  149.7471 H   0  0  0  0  0  0  0  0  0  0  0  0
  195.2681  179.3857  147.5209 H   0  0  0  0  0  0  0  0  0  0  0  0
  196.6947  177.4791  146.7740 H   0  0  0  0  0  0  0  0  0  0  0  0
  198.3974  176.5386  148.3091 H   0  0  0  0  0  0  0  0  0  0  0  0
  203.0425  172.9618  155.0516 H   0  0  0  0  0  0  0  0  0  0  0  0
  202.9582  174.2378  157.1423 H   0  0  0  0  0  0  0  0  0  0  0  0
  201.9451  176.4972  157.1813 H   0  0  0  0  0  0  0  0  0  0  0  0
  201.1811  177.5485  155.1459 H   0  0  0  0  0  0  0  0  0  0  0  0
  201.6770  171.8277  153.7721 H   0  0  0  0  0  0  0  0  0  0  0  0
  201.9806  171.5405  152.0610 H   0  0  0  0  0  0  0  0  0  0  0  0
  200.4653  172.3015  152.5813 H   0  0  0  0  0  0  0  0  0  0  0  0
  197.2573  182.3716  159.3997 H   0  0  0  0  0  0  0  0  0  0  0  0
  1  2  2  0
  2  3  1  0
  2 28  1  0
  3  4  1  0
  3 37  1  0
  4  5  2  0
  4  9  1  0
  5  6  1  0
  6  7  1  0
  6 27  2  0
  7  8  1  0
  7 24  2  0
  8  9  2  0
  8 38  1  0
  9 10  1  0
 10 11  1  0
 10 39  1  0
 11 12  1  0
 11 40  1  6
 11 41  1  0
 12 13  2  0
 12 17  1  0
 13 14  1  0
 13 42  1  0
 14 15  2  0
 14 18  1  0
 15 16  1  0
 15 43  1  0
 16 17  2  0
 16 44  1  0
 17 45  1  0
 18 19  1  0
 18 46  1  1
 18 47  1  0
 19 20  1  0
 19 22  1  0
 19 69  1  1
 20 21  1  0
 20 48  1  1
 20 49  1  0
 21 50  1  1
 21 51  1  0
 21 52  1  0
 22 23  1  0
 22 53  1  6
 22 54  1  0
 23 55  1  6
 23 56  1  0
 23 57  1  0
 24 25  1  0
 24 58  1  0
 25 26  2  0
 25 59  1  0
 26 27  1  0
 26 60  1  0
 27 61  1  0
 28 29  1  0
 28 33  2  0
 29 30  2  0
 29 34  1  0
 30 31  1  0
 30 62  1  0
 31 32  2  0
 31 63  1  0
 32 33  1  0
 32 64  1  0
 33 65  1  0
 34 35  2  0
 34 36  1  0
 36 66  1  1
 36 67  1  0
 36 68  1  0
M  CHG  1  19   1
M  END
>  <s_epik_cmdline>  (354) 
J2VwaWtfcHl0aG9uJywgJy1waCcsICc3LjAwMDAwMCcsICctcGh0JywgJzIuMDAwMDAwJywgJy1tcycsICcxNicsICctdG4nLCAnOCcsICctbWEnLCAnMjAwJywgJy1pbWFlJywgJzxpbmZpbGUubWFlPicsICctb21hZScsICc8b3V0ZmlsZS5tYWU+Jw==

>  <s_epik_input>  (354) 
W2NIXTFbY0hdW2NIXVtjSF1jKEMoPU8pW0NIM10pYzFDKD1PKVtOSF1jKG4yKWMoW2NIXWMoYzIzKVtjSF1bY0hdW2NIXVtjSF0zKVtOSF1bQ0gyXWM0W2NIXWMoW2NIXVtjSF1bY0hdNClbQ0gyXU4oW0NIMl1bQ0gzXSlbQ0gyXVtDSDNd

>  <s_i_glide_gridfile>  (354) 
ATP-Grid

>  <s_lp_Force_Field>  (354) 
OPLS_2005

>  <s_lp_Variant>  (354) 
rxn502b____EMOL711278____EMOL44466703____EMOL44153840-1

>  <s_lp_label>  (354) 
2633_sdstereoexpander_1_neutralizer_1_epik_1_stereoizer_1

>  <s_m_source_file>  (354) 
ATP-VSW-LIGPREP-001-in.maegz

>  <s_sd_BIOSOLVEIT.INFINISEE\_QUERY\_NAME>  (354) 
Ref-Lig

>  <s_sd_BIOSOLVEIT.INFINISEE\_QUERY\_SMILES>  (354) 
S(c1nc2c(cc1C[NH2+]Cc3ccc(cc3)C[NH+](C)C)cccc2)Cc4ccccc4

>  <s_sd_BIOSOLVEIT.INFINISEE\_REACTION\_NAME>  (354) 
rxn502b

>  <s_sd_BIOSOLVEIT.INFINISEE\_REAGENT1\_NAME>  (354) 
EMOL711278

>  <s_sd_BIOSOLVEIT.INFINISEE\_REAGENT1\_SMILES>  (354) 
O=C(O)c1c(cccc1)C(=O)C

>  <s_sd_BIOSOLVEIT.INFINISEE\_REAGENT2\_NAME>  (354) 
EMOL44466703

>  <s_sd_BIOSOLVEIT.INFINISEE\_REAGENT2\_SMILES>  (354) 
Brc1c(nc2c(c1)cccc2)N

>  <s_sd_BIOSOLVEIT.INFINISEE\_REAGENT3\_NAME>  (354) 
EMOL44153840

>  <s_sd_BIOSOLVEIT.INFINISEE\_REAGENT3\_SMILES>  (354) 
N(Cc1cc(ccc1)CN)(CC)CC

>  <s_sd_BIOSOLVEIT.INFINISEE\_SPACE>  (354) 
eXplore_7tr_2022-12

>  <s_vsw_compound_code>  (354) 
84225

>  <s_vsw_variant>  (354) 
84225-1

>  <r_epik_Charging_Adjusted_Penalty>  (354) 
0.035901477740998201

>  <r_epik_Ionization_Penalty>  (354) 
0.017999999999999999

>  <r_epik_Ionization_Penalty_Charging>  (354) 
0.017999999999999999

>  <r_epik_Ionization_Penalty_Neutral>  (354) 
0.0001

>  <r_epik_State_Penalty>  (354) 
0.017999999999999999

>  <r_i_docking_score>  (354) 
-4.20593604890683

>  <r_i_glide_ecoul>  (354) 
-6.1988015174865696

>  <r_i_glide_eff_state_penalty>  (354) 
0.017999999999999999

>  <r_i_glide_einternal>  (354) 
8.1711149215698207

>  <r_i_glide_emodel>  (354) 
-55.142061264793099

>  <r_i_glide_energy>  (354) 
-43.071287631988497

>  <r_i_glide_erotb>  (354) 
0.699730791427293

>  <r_i_glide_esite>  (354) 
-0.0217164569836488

>  <r_i_glide_evdw>  (354) 
-36.872486114502003

>  <r_i_glide_gscore>  (354) 
-4.2239360489068298

>  <r_i_glide_hbond>  (354) 
0

>  <r_i_glide_ligand_efficiency>  (354) 
-0.116831556914079

>  <r_i_glide_ligand_efficiency_ln>  (354) 
-0.91762161461114

>  <r_i_glide_ligand_efficiency_sa>  (354) 
-0.385769300844576

>  <r_i_glide_lipo>  (354) 
-1.7658171694636999

>  <r_i_glide_metal>  (354) 
-0

>  <r_i_glide_rewards>  (354) 
-0.36268868053869102

>  <r_lp_Energy>  (354) 
43.927911000000002

>  <r_lp_tautomer_probability>  (354) 
0.99995000000000001

>  <r_qp_ACxDN^.5/SA>  (354) 
0.014178100000000001

>  <r_qp_CIQPlogS>  (354) 
-5.8090000000000002

>  <r_qp_EA(eV)>  (354) 
0.84199999999999997

>  <r_qp_FISA>  (354) 
85.537999999999997

>  <r_qp_FOSA>  (354) 
314.21699999999998

>  <r_qp_IP(eV)>  (354) 
8.1229999999999993

>  <r_qp_Jm>  (354) 
0.0028976488177321802

>  <r_qp_PISA>  (354) 
448.08699999999999

>  <r_qp_PSA>  (354) 
81.962000000000003

>  <r_qp_PercentHumanOralAbsorption>  (354) 
100

>  <r_qp_QPPCaco>  (354) 
381.62700000000001

>  <r_qp_QPPMDCK>  (354) 
193.21100000000001

>  <r_qp_QPlogBB>  (354) 
-0.59699999999999998

>  <r_qp_QPlogHERG>  (354) 
-8.0800000000000001

>  <r_qp_QPlogKhsa>  (354) 
0.73799999999999999

>  <r_qp_QPlogKp>  (354) 
-2.6200000000000001

>  <r_qp_QPlogPC16>  (354) 
17.245000000000001

>  <r_qp_QPlogPo/w>  (354) 
4.8680000000000003

>  <r_qp_QPlogPoct>  (354) 
26.613

>  <r_qp_QPlogPw>  (354) 
14.484999999999999

>  <r_qp_QPlogS>  (354) 
-5.5999999999999996

>  <r_qp_QPpolrz>  (354) 
54.752000000000002

>  <r_qp_SASA>  (354) 
847.84199999999998

>  <r_qp_SAamideO>  (354) 
0

>  <r_qp_SAfluorine>  (354) 
0

>  <r_qp_WPSA>  (354) 
0

>  <r_qp_accptHB>  (354) 
8.5

>  <r_qp_dip^2/V>  (354) 
0.069484299999999999

>  <r_qp_dipole>  (354) 
10.462999999999999

>  <r_qp_donorHB>  (354) 
2

>  <r_qp_glob>  (354) 
0.77229040000000004

>  <r_qp_mol_MW>  (354) 
480.608

>  <r_qp_volume>  (354) 
1575.4169999999999

>  <r_sd_BIOSOLVEIT.INFINISEE\_FTREES\_SIMILARITY>  (354) 
0.91000000000000003

>  <r_sd_BIOSOLVEIT.LOGP>  (354) 
4.7264999999999997

>  <r_sd_BIOSOLVEIT.MOLECULAR\_WEIGHT>  (354) 
481.61700000000002

>  <r_sd_BIOSOLVEIT.TPSA>  (354) 
75.530000000000001

>  <i_epik_Tot_Q>  (354) 
1

>  <i_epik_Tot_abs_Q>  (354) 
1

>  <i_f3d_flags>  (354) 
0

>  <i_i_glide_confnum>  (354) 
6

>  <i_i_glide_lignum>  (354) 
1126

>  <i_i_glide_posenum>  (354) 
4

>  <i_i_glide_rotatable_bonds>  (354) 
11

>  <i_lp_mmshare_version>  (354) 
65135

>  <i_m_ct_format>  (354) 
2

>  <i_m_source_file_index>  (354) 
2633

>  <i_qp_#NandO>  (354) 
6

>  <i_qp_#acid>  (354) 
0

>  <i_qp_#amide>  (354) 
0

>  <i_qp_#amidine>  (354) 
0

>  <i_qp_#amine>  (354) 
1

>  <i_qp_#in34>  (354) 
0

>  <i_qp_#in56>  (354) 
22

>  <i_qp_#metab>  (354) 
5

>  <i_qp_#nonHatm>  (354) 
36

>  <i_qp_#noncon>  (354) 
0

>  <i_qp_#ringatoms>  (354) 
22

>  <i_qp_#rotor>  (354) 
10

>  <i_qp_#rtvFG>  (354) 
0

>  <i_qp_#stars>  (354) 
0

>  <i_qp_CNS>  (354) 
1

>  <i_qp_HumanOralAbsorption>  (354) 
3

>  <i_qp_RuleOfFive>  (354) 
0

>  <i_qp_RuleOfThree>  (354) 
0

>  <i_sd_BIOSOLVEIT.INFINISEE\_RESULT\_RANK>  (354) 
44604

>  <i_sd_version>  (354) 
0

>  <b_lp_Chiralities_Consistent>  (354) 
1

>  <b_sd_chiral_flag>  (354) 
0

>  <canonical_id>  (354) 
ATP-HTVS-3A4856D72337

>  <compound_code>  (354) 
84225

>  <title>  (354) 
rxn502b____EMOL711278____EMOL44466703____EMOL44153840

>  <variant>  (354) 
84225-1

>  <source_file>  (354) 
运行/运行/ATP-VSW/ATP-VSW-DOCK_HTVS_1-001_lib/ATP-VSW-DOCK_HTVS_1-001_lib

>  <canonical_smiles>  (354) 
CC[NH+](CC)Cc1cccc(CNc2cc3ccccc3nc2NC(=O)c2ccccc2C(C)=O)c1

>  <scaffold>  (354) 
O=C(Nc1nc2ccccc2cc1NCc1ccccc1)c1ccccc1

>  <molecular_formula>  (354) 
C30H33N4O2+

$$$$
ATP-HTVS-3A71FF84034D
     RDKit          3D

 52 54  0  0  0  0  0  0  0  0999 V2000
  196.7705  181.5015  150.0694 F   0  0  0  0  0  0  0  0  0  0  0  0
  197.1656  182.7555  150.3946 C   0  0  0  0  0  0  0  0  0  0  0  0
  197.6310  183.0344  151.7006 C   0  0  0  0  0  0  0  0  0  0  0  0
  197.7115  181.9754  152.7224 C   0  0  0  0  0  0  0  0  0  0  0  0
  198.3648  180.7484  152.4672 C   0  0  0  0  0  0  0  0  0  0  0  0
  198.4686  179.7495  153.3701 N   0  0  0  0  0  0  0  0  0  0  0  0
  197.9086  179.9316  154.5849 C   0  0  0  0  0  0  0  0  0  0  0  0
  197.2344  181.1103  154.9500 C   0  0  0  0  0  0  0  0  0  0  0  0
  197.1344  182.1440  154.0009 C   0  0  0  0  0  0  0  0  0  0  0  0
  198.0406  178.7862  155.5688 C   0  0  1  0  0  0  0  0  0  0  0  0
  199.1465  179.0008  156.5289 N   0  0  1  0  0  0  0  0  0  0  0  0
  200.5109  178.8716  155.9675 C   0  0  1  0  0  0  0  0  0  0  0  0
  200.7678  177.4631  155.4524 C   0  0  0  0  0  0  0  0  0  0  0  0
  200.5416  177.1270  154.0993 C   0  0  0  0  0  0  0  0  0  0  0  0
  200.7534  175.8121  153.6496 C   0  0  0  0  0  0  0  0  0  0  0  0
  201.2121  174.8153  154.5460 C   0  0  0  0  0  0  0  0  0  0  0  0
  201.4225  175.1553  155.8975 C   0  0  0  0  0  0  0  0  0  0  0  0
  201.2219  176.4713  156.3457 C   0  0  0  0  0  0  0  0  0  0  0  0
  201.4755  173.3883  154.0720 C   0  0  1  0  0  0  0  0  0  0  0  0
  202.9249  173.0376  154.0177 N   0  0  1  0  0  0  0  0  0  0  0  0
  203.6331  173.6966  152.8994 C   0  0  2  0  0  0  0  0  0  0  0  0
  203.6602  173.2007  155.2938 C   0  0  2  0  0  0  0  0  0  0  0  0
  198.0170  184.3566  152.0125 C   0  0  0  0  0  0  0  0  0  0  0  0
  197.9510  185.3768  151.0444 C   0  0  0  0  0  0  0  0  0  0  0  0
  198.3353  186.6371  151.3588 F   0  0  0  0  0  0  0  0  0  0  0  0
  197.4836  185.0882  149.7489 C   0  0  0  0  0  0  0  0  0  0  0  0
  197.0945  183.7762  149.4253 C   0  0  0  0  0  0  0  0  0  0  0  0
  199.0261  179.9104  156.9438 H   0  0  0  0  0  0  0  0  0  0  0  0
  198.8371  180.5664  151.5120 H   0  0  0  0  0  0  0  0  0  0  0  0
  196.7877  181.2128  155.9278 H   0  0  0  0  0  0  0  0  0  0  0  0
  196.6107  183.0552  154.2518 H   0  0  0  0  0  0  0  0  0  0  0  0
  197.1127  178.6945  156.1313 H   0  0  0  0  0  0  0  0  0  0  0  0
  198.1617  177.8403  155.0455 H   0  0  0  0  0  0  0  0  0  0  0  0
  200.6693  179.5914  155.1581 H   0  0  0  0  0  0  0  0  0  0  0  0
  201.2442  179.1104  156.7420 H   0  0  0  0  0  0  0  0  0  0  0  0
  200.1872  177.8677  153.4012 H   0  0  0  0  0  0  0  0  0  0  0  0
  200.5635  175.5726  152.6052 H   0  0  0  0  0  0  0  0  0  0  0  0
  201.7196  174.4031  156.6031 H   0  0  0  0  0  0  0  0  0  0  0  0
  201.4162  176.7159  157.3835 H   0  0  0  0  0  0  0  0  0  0  0  0
  200.9407  172.6839  154.7196 H   0  0  0  0  0  0  0  0  0  0  0  0
  201.0356  173.2528  153.0800 H   0  0  0  0  0  0  0  0  0  0  0  0
  203.6424  174.7799  153.0284 H   0  0  0  0  0  0  0  0  0  0  0  0
  203.1633  173.4695  151.9403 H   0  0  0  0  0  0  0  0  0  0  0  0
  204.6672  173.3551  152.8504 H   0  0  0  0  0  0  0  0  0  0  0  0
  203.7043  174.2507  155.5941 H   0  0  0  0  0  0  0  0  0  0  0  0
  204.6790  172.8002  155.1902 H   0  0  0  0  0  0  0  0  0  0  0  0
  203.1683  172.6416  156.0874 H   0  0  0  0  0  0  0  0  0  0  0  0
  198.3805  184.5930  153.0021 H   0  0  0  0  0  0  0  0  0  0  0  0
  197.4243  185.8711  149.0074 H   0  0  0  0  0  0  0  0  0  0  0  0
  196.7349  183.5534  148.4306 H   0  0  0  0  0  0  0  0  0  0  0  0
  202.9572  172.0437  153.8221 H   0  0  0  0  0  0  0  0  0  0  0  0
  198.9697  178.3109  157.2549 H   0  0  0  0  0  0  0  0  0  0  0  0
  1  2  1  0
  2  3  2  0
  2 27  1  0
  3  4  1  0
  3 23  1  0
  4  5  1  0
  4  9  2  0
  5  6  2  0
  5 29  1  0
  6  7  1  0
  7  8  2  0
  7 10  1  0
  8  9  1  0
  8 30  1  0
  9 31  1  0
 10 11  1  0
 10 32  1  1
 10 33  1  0
 11 12  1  0
 11 28  1  1
 11 52  1  0
 12 13  1  0
 12 34  1  6
 12 35  1  0
 13 14  1  0
 13 18  2  0
 14 15  2  0
 14 36  1  0
 15 16  1  0
 15 37  1  0
 16 17  2  0
 16 19  1  0
 17 18  1  0
 17 38  1  0
 18 39  1  0
 19 20  1  0
 19 40  1  1
 19 41  1  0
 20 21  1  0
 20 22  1  0
 20 51  1  6
 21 42  1  1
 21 43  1  0
 21 44  1  0
 22 45  1  1
 22 46  1  0
 22 47  1  0
 23 24  2  0
 23 48  1  0
 24 25  1  0
 24 26  1  0
 26 27  2  0
 26 49  1  0
 27 50  1  0
M  CHG  2  11   1  20   1
M  END
>  <s_epik_cmdline>  (355) 
J2VwaWtfcHl0aG9uJywgJy1waCcsICc3LjAwMDAwMCcsICctcGh0JywgJzIuMDAwMDAwJywgJy1tcycsICcxNicsICctdG4nLCAnOCcsICctbWEnLCAnMjAwJywgJy1pbWFlJywgJzxpbmZpbGUubWFlPicsICctb21hZScsICc8b3V0ZmlsZS5tYWU+Jw==

>  <s_epik_input>  (355) 
W2NIXTFbY0hdYyhGKVtjSF1jKGMxRiktYzJbY0hdbmMoW2NIXVtjSF0yKVtDSDJdW05IXVtDSDJdYzNbY0hdW2NIXWMoW2NIXVtjSF0zKVtDSDJdTihbQ0gzXSlbQ0gzXQ==

>  <s_i_glide_gridfile>  (355) 
ATP-Grid

>  <s_lp_Force_Field>  (355) 
OPLS_2005

>  <s_lp_Variant>  (355) 
WXDL_15E____QS5063____LN00174727____BT3078-1

>  <s_lp_label>  (355) 
630_sdstereoexpander_1_neutralizer_1_epik_1_stereoizer_1

>  <s_m_source_file>  (355) 
ATP-VSW-LIGPREP-003-in.maegz

>  <s_sd_BIOSOLVEIT.INFINISEE\_QUERY\_NAME>  (355) 
Ref-Lig

>  <s_sd_BIOSOLVEIT.INFINISEE\_QUERY\_SMILES>  (355) 
S(c1nc2c(cc1C[NH2+]Cc3ccc(cc3)C[NH+](C)C)cccc2)Cc4ccccc4

>  <s_sd_BIOSOLVEIT.INFINISEE\_REACTION\_NAME>  (355) 
WXDL_15E

>  <s_sd_BIOSOLVEIT.INFINISEE\_REAGENT1\_NAME>  (355) 
QS5063

>  <s_sd_BIOSOLVEIT.INFINISEE\_REAGENT1\_SMILES>  (355) 
O=Cc1ccc(cc1)CN(C)C

>  <s_sd_BIOSOLVEIT.INFINISEE\_REAGENT2\_NAME>  (355) 
LN00174727

>  <s_sd_BIOSOLVEIT.INFINISEE\_REAGENT2\_SMILES>  (355) 
Brc1cnc(cc1)CNC(=O)OC(C)(C)C

>  <s_sd_BIOSOLVEIT.INFINISEE\_REAGENT3\_NAME>  (355) 
BT3078

>  <s_sd_BIOSOLVEIT.INFINISEE\_REAGENT3\_SMILES>  (355) 
Fc1c(cc(F)cc1)B2OC(C(O2)(C)C)(C)C

>  <s_sd_BIOSOLVEIT.INFINISEE\_SPACE>  (355) 
GalaXi_12bn_2023-03

>  <s_vsw_compound_code>  (355) 
20131

>  <s_vsw_variant>  (355) 
20131-1

>  <r_epik_Charging_Adjusted_Penalty>  (355) 
0.35411440254969201

>  <r_epik_Ionization_Penalty>  (355) 
0.17580000000000001

>  <r_epik_Ionization_Penalty_Charging>  (355) 
0.1757

>  <r_epik_Ionization_Penalty_Neutral>  (355) 
0

>  <r_epik_State_Penalty>  (355) 
0.1784

>  <r_i_docking_score>  (355) 
-5.6533775444270598

>  <r_i_glide_ecoul>  (355) 
-13.771244049072299

>  <r_i_glide_eff_state_penalty>  (355) 
0.1784

>  <r_i_glide_einternal>  (355) 
2.77666187286377

>  <r_i_glide_emodel>  (355) 
-64.293604175186402

>  <r_i_glide_energy>  (355) 
-39.9548664093018

>  <r_i_glide_erotb>  (355) 
0.84756034163008798

>  <r_i_glide_esite>  (355) 
-0.20000000000000001

>  <r_i_glide_evdw>  (355) 
-26.183622360229499

>  <r_i_glide_gscore>  (355) 
-5.8317775444270596

>  <r_i_glide_hbond>  (355) 
-0.334822201844169

>  <r_i_glide_ligand_efficiency>  (355) 
-0.209384353497298

>  <r_i_glide_ligand_efficiency_ln>  (355) 
-1.31601308912957

>  <r_i_glide_ligand_efficiency_sa>  (355) 
-0.62815305980179903

>  <r_i_glide_lipo>  (355) 
-1.36048479328771

>  <r_i_glide_metal>  (355) 
-0

>  <r_i_glide_rewards>  (355) 
-1.40916316555295

>  <r_lp_Energy>  (355) 
17.578310999999999

>  <r_qp_ACxDN^.5/SA>  (355) 
0.0062985999999999997

>  <r_qp_CIQPlogS>  (355) 
-3.8660000000000001

>  <r_qp_EA(eV)>  (355) 
0.88

>  <r_qp_FISA>  (355) 
32.091999999999999

>  <r_qp_FOSA>  (355) 
250.25299999999999

>  <r_qp_IP(eV)>  (355) 
9.0280000000000005

>  <r_qp_Jm>  (355) 
0.00069729129826175205

>  <r_qp_PISA>  (355) 
352.08999999999997

>  <r_qp_PSA>  (355) 
30.681000000000001

>  <r_qp_PercentHumanOralAbsorption>  (355) 
100

>  <r_qp_QPPCaco>  (355) 
305.75200000000001

>  <r_qp_QPPMDCK>  (355) 
461.49700000000001

>  <r_qp_QPlogBB>  (355) 
0.78700000000000003

>  <r_qp_QPlogHERG>  (355) 
-8.1609999999999996

>  <r_qp_QPlogKhsa>  (355) 
0.82299999999999995

>  <r_qp_QPlogKp>  (355) 
-4.3239999999999998

>  <r_qp_QPlogPC16>  (355) 
12.289999999999999

>  <r_qp_QPlogPo/w>  (355) 
4.6550000000000002

>  <r_qp_QPlogPoct>  (355) 
17.841000000000001

>  <r_qp_QPlogPw>  (355) 
8.4329999999999998

>  <r_qp_QPlogS>  (355) 
-4.3979999999999997

>  <r_qp_QPpolrz>  (355) 
42.585999999999999

>  <r_qp_SASA>  (355) 
714.44899999999996

>  <r_qp_SAamideO>  (355) 
0

>  <r_qp_SAfluorine>  (355) 
80.013000000000005

>  <r_qp_WPSA>  (355) 
80.013000000000005

>  <r_qp_accptHB>  (355) 
4.5

>  <r_qp_dip^2/V>  (355) 
0.0017788000000000001

>  <r_qp_dipole>  (355) 
1.4890000000000001

>  <r_qp_donorHB>  (355) 
1

>  <r_qp_glob>  (355) 
0.78387709999999999

>  <r_qp_mol_MW>  (355) 
367.44099999999997

>  <r_qp_volume>  (355) 
1246.182

>  <r_sd_BIOSOLVEIT.INFINISEE\_FTREES\_SIMILARITY>  (355) 
0.91100000000000003

>  <r_sd_BIOSOLVEIT.LOGP>  (355) 
1.9349000000000001

>  <r_sd_BIOSOLVEIT.MOLECULAR\_WEIGHT>  (355) 
369.45699999999999

>  <r_sd_BIOSOLVEIT.TPSA>  (355) 
33.939999999999998

>  <i_epik_Tot_Q>  (355) 
2

>  <i_epik_Tot_abs_Q>  (355) 
2

>  <i_f3d_flags>  (355) 
0

>  <i_i_glide_confnum>  (355) 
7

>  <i_i_glide_lignum>  (355) 
256

>  <i_i_glide_posenum>  (355) 
18

>  <i_i_glide_rotatable_bonds>  (355) 
7

>  <i_lp_mmshare_version>  (355) 
65135

>  <i_m_ct_format>  (355) 
2

>  <i_m_source_file_index>  (355) 
630

>  <i_qp_#NandO>  (355) 
3

>  <i_qp_#acid>  (355) 
0

>  <i_qp_#amide>  (355) 
0

>  <i_qp_#amidine>  (355) 
0

>  <i_qp_#amine>  (355) 
2

>  <i_qp_#in34>  (355) 
0

>  <i_qp_#in56>  (355) 
18

>  <i_qp_#metab>  (355) 
6

>  <i_qp_#nonHatm>  (355) 
27

>  <i_qp_#noncon>  (355) 
0

>  <i_qp_#ringatoms>  (355) 
18

>  <i_qp_#rotor>  (355) 
7

>  <i_qp_#rtvFG>  (355) 
0

>  <i_qp_#stars>  (355) 
0

>  <i_qp_CNS>  (355) 
2

>  <i_qp_HumanOralAbsorption>  (355) 
3

>  <i_qp_RuleOfFive>  (355) 
0

>  <i_qp_RuleOfThree>  (355) 
0

>  <i_sd_BIOSOLVEIT.INFINISEE\_RESULT\_RANK>  (355) 
40034

>  <i_sd_version>  (355) 
0

>  <b_lp_Chiralities_Consistent>  (355) 
1

>  <b_sd_chiral_flag>  (355) 
0

>  <canonical_id>  (355) 
ATP-HTVS-3A71FF84034D

>  <compound_code>  (355) 
20131

>  <title>  (355) 
WXDL_15E____QS5063____LN00174727____BT3078

>  <variant>  (355) 
20131-1

>  <source_file>  (355) 
运行/运行/ATP-VSW/ATP-VSW-DOCK_HTVS_1-003_lib/ATP-VSW-DOCK_HTVS_1-003_lib.mae

>  <canonical_smiles>  (355) 
C[NH+](C)Cc1ccc(C[NH2+]Cc2ccc(-c3cc(F)ccc3F)cn2)cc1

>  <scaffold>  (355) 
c1ccc(C[NH2+]Cc2ccc(-c3ccccc3)cn2)cc1

>  <molecular_formula>  (355) 
C22H25F2N3+2

$$$$
ATP-HTVS-3A7288617524
     RDKit          3D

 52 55  0  0  0  0  0  0  0  0999 V2000
  202.6167  182.2159  157.0789 Cl  0  0  0  0  0  0  0  0  0  0  0  0
  201.4680  180.9713  156.7601 C   0  0  0  0  0  0  0  0  0  0  0  0
  201.5293  179.8452  157.4926 N   0  0  0  0  0  0  0  0  0  0  0  0
  200.6317  178.8730  157.2448 C   0  0  0  0  0  0  0  0  0  0  0  0
  200.7358  177.4302  158.1637 Cl  0  0  0  0  0  0  0  0  0  0  0  0
  199.6268  178.9867  156.2661 C   0  0  0  0  0  0  0  0  0  0  0  0
  199.5702  180.1515  155.4767 C   0  0  0  0  0  0  0  0  0  0  0  0
  198.5590  180.3300  154.4160 C   0  0  0  0  0  0  0  0  0  0  0  0
  197.5797  181.3422  154.5262 C   0  0  0  0  0  0  0  0  0  0  0  0
  197.5506  182.1457  155.6798 N   0  0  0  0  0  0  0  0  0  0  0  0
  197.2905  183.4567  155.7670 C   0  0  0  0  0  0  0  0  0  0  0  0
  197.1547  184.2008  154.8066 O   0  0  0  0  0  0  0  0  0  0  0  0
  197.3509  183.9935  157.1673 C   0  0  0  0  0  0  0  0  0  0  0  0
  196.7284  183.3622  158.2898 C   0  0  0  0  0  0  0  0  0  0  0  0
  196.8766  183.9642  159.5675 C   0  0  0  0  0  0  0  0  0  0  0  0
  197.5270  185.1881  159.7284 C   0  0  0  0  0  0  0  0  0  0  0  0
  198.1347  185.8108  158.6285 C   0  0  0  0  0  0  0  0  0  0  0  0
  198.0418  185.2120  157.3589 C   0  0  0  0  0  0  0  0  0  0  0  0
  195.8208  182.1055  158.2204 C   0  0  1  0  0  0  0  0  0  0  0  0
  194.3584  182.4123  158.1582 N   0  0  2  0  0  0  0  0  0  0  0  0
  193.8888  183.5796  158.9417 C   0  0  2  0  0  0  0  0  0  0  0  0
  193.5665  181.1970  158.4169 C   0  0  2  0  0  0  0  0  0  0  0  0
  196.6066  181.4670  153.5221 C   0  0  0  0  0  0  0  0  0  0  0  0
  196.5586  180.6705  152.4319 N   0  0  0  0  0  0  0  0  0  0  0  0
  197.5183  179.7437  152.2792 C   0  0  0  0  0  0  0  0  0  0  0  0
  198.5411  179.5256  153.2472 C   0  0  0  0  0  0  0  0  0  0  0  0
  199.5297  178.5425  153.0268 C   0  0  0  0  0  0  0  0  0  0  0  0
  199.5205  177.7734  151.8518 C   0  0  0  0  0  0  0  0  0  0  0  0
  198.5168  177.9868  150.8883 C   0  0  0  0  0  0  0  0  0  0  0  0
  197.5325  178.9664  151.1031 C   0  0  0  0  0  0  0  0  0  0  0  0
  200.5094  181.1663  155.7501 C   0  0  0  0  0  0  0  0  0  0  0  0
  198.9064  178.1896  156.1335 H   0  0  0  0  0  0  0  0  0  0  0  0
  197.8103  181.6803  156.5444 H   0  0  0  0  0  0  0  0  0  0  0  0
  196.4162  183.5236  160.4377 H   0  0  0  0  0  0  0  0  0  0  0  0
  197.5455  185.6803  160.6874 H   0  0  0  0  0  0  0  0  0  0  0  0
  198.6619  186.7524  158.7512 H   0  0  0  0  0  0  0  0  0  0  0  0
  198.5112  185.7034  156.5157 H   0  0  0  0  0  0  0  0  0  0  0  0
  195.9704  181.4196  157.3837 H   0  0  0  0  0  0  0  0  0  0  0  0
  196.0606  181.5040  159.1084 H   0  0  0  0  0  0  0  0  0  0  0  0
  194.1214  183.4506  159.9966 H   0  0  0  0  0  0  0  0  0  0  0  0
  192.8183  183.7366  158.8386 H   0  0  0  0  0  0  0  0  0  0  0  0
  194.3631  184.5085  158.6194 H   0  0  0  0  0  0  0  0  0  0  0  0
  193.7578  180.8564  159.4268 H   0  0  0  0  0  0  0  0  0  0  0  0
  193.8378  180.3961  157.7337 H   0  0  0  0  0  0  0  0  0  0  0  0
  192.5065  181.3828  158.2859 H   0  0  0  0  0  0  0  0  0  0  0  0
  195.8056  182.1910  153.6130 H   0  0  0  0  0  0  0  0  0  0  0  0
  200.3144  178.3649  153.7453 H   0  0  0  0  0  0  0  0  0  0  0  0
  200.2809  177.0191  151.6959 H   0  0  0  0  0  0  0  0  0  0  0  0
  198.5060  177.3878  149.9851 H   0  0  0  0  0  0  0  0  0  0  0  0
  196.7699  179.1326  150.3528 H   0  0  0  0  0  0  0  0  0  0  0  0
  200.4903  182.0924  155.1941 H   0  0  0  0  0  0  0  0  0  0  0  0
  194.1620  182.6370  157.1714 H   0  0  0  0  0  0  0  0  0  0  0  0
  1  2  1  0
  2  3  1  0
  2 31  2  0
  3  4  2  0
  4  5  1  0
  4  6  1  0
  6  7  2  0
  6 32  1  0
  7  8  1  0
  7 31  1  0
  8  9  2  0
  8 26  1  0
  9 10  1  0
  9 23  1  0
 10 11  1  0
 10 33  1  0
 11 12  2  0
 11 13  1  0
 13 14  1  0
 13 18  2  0
 14 15  2  0
 14 19  1  0
 15 16  1  0
 15 34  1  0
 16 17  2  0
 16 35  1  0
 17 18  1  0
 17 36  1  0
 18 37  1  0
 19 20  1  0
 19 38  1  6
 19 39  1  0
 20 21  1  0
 20 22  1  0
 20 52  1  6
 21 40  1  1
 21 41  1  0
 21 42  1  0
 22 43  1  1
 22 44  1  0
 22 45  1  0
 23 24  2  0
 23 46  1  0
 24 25  1  0
 25 26  1  0
 25 30  2  0
 26 27  2  0
 27 28  1  0
 27 47  1  0
 28 29  2  0
 28 48  1  0
 29 30  1  0
 29 49  1  0
 30 50  1  0
 31 51  1  0
M  CHG  1  20   1
M  END
>  <s_epik_cmdline>  (356) 
J2VwaWtfcHl0aG9uJywgJy1waCcsICc3LjAwMDAwMCcsICctcGh0JywgJzIuMDAwMDAwJywgJy1tcycsICcxNicsICctdG4nLCAnOCcsICctbWEnLCAnMjAwJywgJy1pbWFlJywgJzxpbmZpbGUubWFlPicsICctb21hZScsICc8b3V0ZmlsZS5tYWU+Jw==

>  <s_epik_input>  (356) 
Q2xjMW5jKENsKVtjSF1jKFtjSF0xKS1jKGMoYzIzKVtjSF1bY0hdW2NIXVtjSF0zKWMoW2NIXW4yKVtOSF1DKD1PKWM0YyhbQ0gyXU4oW0NIM10pW0NIM10pW2NIXVtjSF1bY0hdW2NIXTQ=

>  <s_i_glide_gridfile>  (356) 
ATP-Grid

>  <s_lp_Force_Field>  (356) 
OPLS_2005

>  <s_lp_Variant>  (356) 
rxn501b____EMOL5415347____EMOL30488121____EMOL24586444-1

>  <s_lp_label>  (356) 
2993_sdstereoexpander_1_neutralizer_1_epik_1_stereoizer_1

>  <s_m_source_file>  (356) 
ATP-VSW-LIGPREP-002-in.maegz

>  <s_sd_BIOSOLVEIT.INFINISEE\_QUERY\_NAME>  (356) 
Ref-Lig

>  <s_sd_BIOSOLVEIT.INFINISEE\_QUERY\_SMILES>  (356) 
S(c1nc2c(cc1C[NH2+]Cc3ccc(cc3)C[NH+](C)C)cccc2)Cc4ccccc4

>  <s_sd_BIOSOLVEIT.INFINISEE\_REACTION\_NAME>  (356) 
rxn501b

>  <s_sd_BIOSOLVEIT.INFINISEE\_REAGENT1\_NAME>  (356) 
EMOL5415347

>  <s_sd_BIOSOLVEIT.INFINISEE\_REAGENT1\_SMILES>  (356) 
O=C(O)c1c(cccc1)CN(C)C

>  <s_sd_BIOSOLVEIT.INFINISEE\_REAGENT2\_NAME>  (356) 
EMOL30488121

>  <s_sd_BIOSOLVEIT.INFINISEE\_REAGENT2\_SMILES>  (356) 
Brc1c(N)cnc2c1cccc2

>  <s_sd_BIOSOLVEIT.INFINISEE\_REAGENT3\_NAME>  (356) 
EMOL24586444

>  <s_sd_BIOSOLVEIT.INFINISEE\_REAGENT3\_SMILES>  (356) 
Clc1nc(Cl)cc(c1)B(O)O

>  <s_sd_BIOSOLVEIT.INFINISEE\_SPACE>  (356) 
eXplore_7tr_2022-12

>  <s_vsw_compound_code>  (356) 
95746

>  <s_vsw_variant>  (356) 
95746-1

>  <r_epik_Charging_Adjusted_Penalty>  (356) 
0.120106230221407

>  <r_epik_Ionization_Penalty>  (356) 
0.060400000000000002

>  <r_epik_Ionization_Penalty_Charging>  (356) 
0.060100000000000001

>  <r_epik_Ionization_Penalty_Neutral>  (356) 
0.00040000000000000002

>  <r_epik_State_Penalty>  (356) 
0.060100000000000001

>  <r_i_docking_score>  (356) 
-4.1883518554010601

>  <r_i_glide_ecoul>  (356) 
-9.0250825881958008

>  <r_i_glide_eff_state_penalty>  (356) 
0.060100000000000001

>  <r_i_glide_einternal>  (356) 
3.3778452873229998

>  <r_i_glide_emodel>  (356) 
-61.924332727604401

>  <r_i_glide_energy>  (356) 
-46.169133186340297

>  <r_i_glide_erotb>  (356) 
0.490273206343664

>  <r_i_glide_esite>  (356) 
-0.151963591002647

>  <r_i_glide_evdw>  (356) 
-37.144050598144503

>  <r_i_glide_gscore>  (356) 
-4.2484518554010604

>  <r_i_glide_hbond>  (356) 
-0.20000000000000001

>  <r_i_glide_ligand_efficiency>  (356) 
-0.135108124367776

>  <r_i_glide_ligand_efficiency_ln>  (356) 
-0.94460170096214602

>  <r_i_glide_ligand_efficiency_sa>  (356) 
-0.42442604738399697

>  <r_i_glide_lipo>  (356) 
-0.85094523442366299

>  <r_i_glide_metal>  (356) 
-0

>  <r_i_glide_rewards>  (356) 
-0.32485131818181701

>  <r_lp_Energy>  (356) 
30.042294999999999

>  <r_qp_ACxDN^.5/SA>  (356) 
0.0091593999999999998

>  <r_qp_CIQPlogS>  (356) 
-6.0609999999999999

>  <r_qp_EA(eV)>  (356) 
1.4319999999999999

>  <r_qp_FISA>  (356) 
57.655000000000001

>  <r_qp_FOSA>  (356) 
137.958

>  <r_qp_IP(eV)>  (356) 
8.9640000000000004

>  <r_qp_Jm>  (356) 
0.0035271659165719798

>  <r_qp_PISA>  (356) 
385.76100000000002

>  <r_qp_PSA>  (356) 
58.738999999999997

>  <r_qp_PercentHumanOralAbsorption>  (356) 
100

>  <r_qp_QPPCaco>  (356) 
701.54999999999995

>  <r_qp_QPPMDCK>  (356) 
1881.722

>  <r_qp_QPlogBB>  (356) 
0.40500000000000003

>  <r_qp_QPlogHERG>  (356) 
-6.992

>  <r_qp_QPlogKhsa>  (356) 
0.71899999999999997

>  <r_qp_QPlogKp>  (356) 
-2.806

>  <r_qp_QPlogPC16>  (356) 
14.757

>  <r_qp_QPlogPo/w>  (356) 
4.8799999999999999

>  <r_qp_QPlogPoct>  (356) 
21.364000000000001

>  <r_qp_QPlogPw>  (356) 
11.252000000000001

>  <r_qp_QPlogS>  (356) 
-5.3010000000000002

>  <r_qp_QPpolrz>  (356) 
47.253999999999998

>  <r_qp_SASA>  (356) 
709.654

>  <r_qp_SAamideO>  (356) 
0

>  <r_qp_SAfluorine>  (356) 
0

>  <r_qp_WPSA>  (356) 
128.28

>  <r_qp_accptHB>  (356) 
6.5

>  <r_qp_dip^2/V>  (356) 
0.0114132

>  <r_qp_dipole>  (356) 
3.8849999999999998

>  <r_qp_donorHB>  (356) 
1

>  <r_qp_glob>  (356) 
0.82116089999999997

>  <r_qp_mol_MW>  (356) 
451.35399999999998

>  <r_qp_volume>  (356) 
1322.7090000000001

>  <r_sd_BIOSOLVEIT.INFINISEE\_FTREES\_SIMILARITY>  (356) 
0.90300000000000002

>  <r_sd_BIOSOLVEIT.LOGP>  (356) 
4.5004

>  <r_sd_BIOSOLVEIT.MOLECULAR\_WEIGHT>  (356) 
452.363

>  <r_sd_BIOSOLVEIT.TPSA>  (356) 
59.32

>  <i_epik_Tot_Q>  (356) 
1

>  <i_epik_Tot_abs_Q>  (356) 
1

>  <i_f3d_flags>  (356) 
0

>  <i_i_glide_confnum>  (356) 
3

>  <i_i_glide_lignum>  (356) 
57

>  <i_i_glide_posenum>  (356) 
20

>  <i_i_glide_rotatable_bonds>  (356) 
6

>  <i_lp_mmshare_version>  (356) 
65135

>  <i_m_ct_format>  (356) 
2

>  <i_m_source_file_index>  (356) 
2993

>  <i_qp_#NandO>  (356) 
5

>  <i_qp_#acid>  (356) 
0

>  <i_qp_#amide>  (356) 
0

>  <i_qp_#amidine>  (356) 
0

>  <i_qp_#amine>  (356) 
1

>  <i_qp_#in34>  (356) 
0

>  <i_qp_#in56>  (356) 
22

>  <i_qp_#metab>  (356) 
3

>  <i_qp_#nonHatm>  (356) 
31

>  <i_qp_#noncon>  (356) 
0

>  <i_qp_#ringatoms>  (356) 
22

>  <i_qp_#rotor>  (356) 
5

>  <i_qp_#rtvFG>  (356) 
0

>  <i_qp_#stars>  (356) 
0

>  <i_qp_CNS>  (356) 
1

>  <i_qp_HumanOralAbsorption>  (356) 
3

>  <i_qp_RuleOfFive>  (356) 
0

>  <i_qp_RuleOfThree>  (356) 
0

>  <i_sd_BIOSOLVEIT.INFINISEE\_RESULT\_RANK>  (356) 
85020

>  <i_sd_version>  (356) 
0

>  <b_lp_Chiralities_Consistent>  (356) 
1

>  <b_sd_chiral_flag>  (356) 
0

>  <canonical_id>  (356) 
ATP-HTVS-3A7288617524

>  <compound_code>  (356) 
95746

>  <title>  (356) 
rxn501b____EMOL5415347____EMOL30488121____EMOL24586444

>  <variant>  (356) 
95746-1

>  <source_file>  (356) 
运行/运行/ATP-VSW/ATP-VSW-DOCK_HTVS_1-003_lib/ATP-VSW-DOCK_HTVS_1-003_lib.mae

>  <canonical_smiles>  (356) 
C[NH+](C)Cc1ccccc1C(=O)Nc1cnc2ccccc2c1-c1cc(Cl)nc(Cl)c1

>  <scaffold>  (356) 
O=C(Nc1cnc2ccccc2c1-c1ccncc1)c1ccccc1

>  <molecular_formula>  (356) 
C24H21Cl2N4O+

$$$$
ATP-HTVS-3A96A568DDAE
     RDKit          3D

 54 57  0  0  0  0  0  0  0  0999 V2000
  204.5398  182.0641  157.2520 F   0  0  0  0  0  0  0  0  0  0  0  0
  203.9124  182.2385  158.4408 C   0  0  0  0  0  0  0  0  0  0  0  0
  203.7825  183.5306  158.9749 C   0  0  0  0  0  0  0  0  0  0  0  0
  203.1502  183.7288  160.2231 C   0  0  0  0  0  0  0  0  0  0  0  0
  202.6438  182.6162  160.9284 C   0  0  0  0  0  0  0  0  0  0  0  0
  202.7512  181.3258  160.3761 C   0  0  0  0  0  0  0  0  0  0  0  0
  203.3765  181.1348  159.1285 C   0  0  0  0  0  0  0  0  0  0  0  0
  203.0550  185.1287  160.8153 C   0  0  1  0  0  0  0  0  0  0  0  0
  202.3920  186.1696  159.8856 C   0  0  2  0  0  0  0  0  0  0  0  0
  202.6126  187.4943  160.4241 N   0  0  0  0  0  0  0  0  0  0  0  0
  200.9521  185.9398  159.7134 C   0  0  0  0  0  0  0  0  0  0  0  0
  199.7691  185.6817  159.5495 C   0  0  0  0  0  0  0  0  0  0  0  0
  198.3871  185.2692  159.3302 C   0  0  0  0  0  0  0  0  0  0  0  0
  198.0493  183.9946  158.8080 C   0  0  0  0  0  0  0  0  0  0  0  0
  199.0237  183.0475  158.3855 N   0  0  0  0  0  0  0  0  0  0  0  0
  199.7909  183.1450  157.2855 C   0  0  0  0  0  0  0  0  0  0  0  0
  200.1190  184.2046  156.7585 O   0  0  0  0  0  0  0  0  0  0  0  0
  200.3221  181.8421  156.7620 C   0  0  0  0  0  0  0  0  0  0  0  0
  201.6331  181.7670  156.2472 C   0  0  0  0  0  0  0  0  0  0  0  0
  202.1271  180.5496  155.7363 C   0  0  0  0  0  0  0  0  0  0  0  0
  201.2873  179.4146  155.6593 C   0  0  0  0  0  0  0  0  0  0  0  0
  199.9663  179.5016  156.1400 C   0  0  0  0  0  0  0  0  0  0  0  0
  199.4828  180.7049  156.6754 C   0  0  0  0  0  0  0  0  0  0  0  0
  201.7705  178.1001  155.0613 C   0  0  1  0  0  0  0  0  0  0  0  0
  201.6447  177.1284  155.9651 F   0  0  0  0  0  0  0  0  0  0  0  0
  201.0130  177.7994  154.0047 F   0  0  0  0  0  0  0  0  0  0  0  0
  203.0445  178.1626  154.6635 F   0  0  0  0  0  0  0  0  0  0  0  0
  196.6734  183.6372  158.7654 C   0  0  0  0  0  0  0  0  0  0  0  0
  195.7019  184.5888  159.1974 C   0  0  0  0  0  0  0  0  0  0  0  0
  196.0450  185.8058  159.6654 N   0  0  0  0  0  0  0  0  0  0  0  0
  197.3490  186.1348  159.7298 C   0  0  0  0  0  0  0  0  0  0  0  0
  194.3346  184.2361  159.1283 C   0  0  0  0  0  0  0  0  0  0  0  0
  193.9200  183.0010  158.6133 C   0  0  0  0  0  0  0  0  0  0  0  0
  194.8768  182.0584  158.2216 C   0  0  0  0  0  0  0  0  0  0  0  0
  196.2429  182.3695  158.2981 C   0  0  0  0  0  0  0  0  0  0  0  0
  203.6023  187.6875  160.4611 H   0  0  0  0  0  0  0  0  0  0  0  0
  202.2095  188.1792  159.7966 H   0  0  0  0  0  0  0  0  0  0  0  0
  204.1738  184.3664  158.4134 H   0  0  0  0  0  0  0  0  0  0  0  0
  202.1771  182.7463  161.8944 H   0  0  0  0  0  0  0  0  0  0  0  0
  202.3537  180.4744  160.9127 H   0  0  0  0  0  0  0  0  0  0  0  0
  203.4362  180.1490  158.6901 H   0  0  0  0  0  0  0  0  0  0  0  0
  202.5141  185.0941  161.7621 H   0  0  0  0  0  0  0  0  0  0  0  0
  204.0736  185.4305  161.0582 H   0  0  0  0  0  0  0  0  0  0  0  0
  202.8454  186.1463  158.8922 H   0  0  0  0  0  0  0  0  0  0  0  0
  198.8803  182.1060  158.7353 H   0  0  0  0  0  0  0  0  0  0  0  0
  202.2554  182.6542  156.2533 H   0  0  0  0  0  0  0  0  0  0  0  0
  203.1498  180.5061  155.3858 H   0  0  0  0  0  0  0  0  0  0  0  0
  199.3023  178.6538  156.0746 H   0  0  0  0  0  0  0  0  0  0  0  0
  198.4506  180.7321  156.9845 H   0  0  0  0  0  0  0  0  0  0  0  0
  197.5585  187.1172  160.1447 H   0  0  0  0  0  0  0  0  0  0  0  0
  193.5937  184.9612  159.4387 H   0  0  0  0  0  0  0  0  0  0  0  0
  192.8658  182.7672  158.5152 H   0  0  0  0  0  0  0  0  0  0  0  0
  194.5644  181.1012  157.8330 H   0  0  0  0  0  0  0  0  0  0  0  0
  196.9236  181.6001  157.9702 H   0  0  0  0  0  0  0  0  0  0  0  0
  1  2  1  0
  2  3  2  0
  2  7  1  0
  3  4  1  0
  3 38  1  0
  4  5  2  0
  4  8  1  0
  5  6  1  0
  5 39  1  0
  6  7  2  0
  6 40  1  0
  7 41  1  0
  8  9  1  0
  8 42  1  1
  8 43  1  0
  9 10  1  0
  9 11  1  0
  9 44  1  6
 10 36  1  0
 10 37  1  0
 11 12  3  0
 12 13  1  0
 13 14  2  0
 13 31  1  0
 14 15  1  0
 14 28  1  0
 15 16  1  0
 15 45  1  0
 16 17  2  0
 16 18  1  0
 18 19  1  0
 18 23  2  0
 19 20  2  0
 19 46  1  0
 20 21  1  0
 20 47  1  0
 21 22  2  0
 21 24  1  0
 22 23  1  0
 22 48  1  0
 23 49  1  0
 24 25  1  1
 24 26  1  0
 24 27  1  0
 28 29  1  0
 28 35  2  0
 29 30  1  0
 29 32  2  0
 30 31  2  0
 31 50  1  0
 32 33  1  0
 32 51  1  0
 33 34  2  0
 33 52  1  0
 34 35  1  0
 34 53  1  0
 35 54  1  0
M  END
>  <s_epik_cmdline>  (357) 
J2VwaWtfcHl0aG9uJywgJy1waCcsICc3LjAwMDAwMCcsICctcGh0JywgJzIuMDAwMDAwJywgJy1tcycsICcxNicsICctdG4nLCAnOCcsICctbWEnLCAnMjAwJywgJy1pbWFlJywgJzxpbmZpbGUubWFlPicsICctb21hZScsICc8b3V0ZmlsZS5tYWU+Jw==

>  <s_epik_input>  (357) 
RmMxW2NIXWMoW2NIXVtjSF1bY0hdMSlbQ0gyXVtDQEhdKFtOSDJdKUMjQ2MoW2NIXW5jKGMyMylbY0hdW2NIXVtjSF1bY0hdMyljMltOSF1DKD1PKWM0W2NIXVtjSF1jKEMoRikoRilGKVtjSF1bY0hdNA==

>  <s_i_glide_gridfile>  (357) 
ATP-Grid

>  <s_lp_Force_Field>  (357) 
OPLS_2005

>  <s_lp_Variant>  (357) 
rxn503b____EMOL487561____EMOL13728749____EMOL313110234-2

>  <s_lp_label>  (357) 
2785_sdstereoexpander_2_neutralizer_1_epik_1_stereoizer_1

>  <s_m_source_file>  (357) 
ATP-VSW-LIGPREP-001-in.maegz

>  <s_sd_BIOSOLVEIT.INFINISEE\_QUERY\_NAME>  (357) 
Ref-Lig

>  <s_sd_BIOSOLVEIT.INFINISEE\_QUERY\_SMILES>  (357) 
S(c1nc2c(cc1C[NH2+]Cc3ccc(cc3)C[NH+](C)C)cccc2)Cc4ccccc4

>  <s_sd_BIOSOLVEIT.INFINISEE\_REACTION\_NAME>  (357) 
rxn503b

>  <s_sd_BIOSOLVEIT.INFINISEE\_REAGENT1\_NAME>  (357) 
EMOL487561

>  <s_sd_BIOSOLVEIT.INFINISEE\_REAGENT1\_SMILES>  (357) 
FC(F)(F)c1ccc(cc1)C(=O)O

>  <s_sd_BIOSOLVEIT.INFINISEE\_REAGENT2\_NAME>  (357) 
EMOL13728749

>  <s_sd_BIOSOLVEIT.INFINISEE\_REAGENT2\_SMILES>  (357) 
Brc1c(N)c2c(nc1)cccc2

>  <s_sd_BIOSOLVEIT.INFINISEE\_REAGENT3\_NAME>  (357) 
EMOL313110234

>  <s_sd_BIOSOLVEIT.INFINISEE\_REAGENT3\_SMILES>  (357) 
Fc1cc(ccc1)CC(N)C#C

>  <s_sd_BIOSOLVEIT.INFINISEE\_SPACE>  (357) 
eXplore_7tr_2022-12

>  <s_vsw_compound_code>  (357) 
89089

>  <s_vsw_variant>  (357) 
89089-2

>  <r_epik_Charging_Adjusted_Penalty>  (357) 
0.26016307076515699

>  <r_epik_Ionization_Penalty>  (357) 
0.26090000000000002

>  <r_epik_Ionization_Penalty_Charging>  (357) 
0

>  <r_epik_Ionization_Penalty_Neutral>  (357) 
0.26090000000000002

>  <r_epik_State_Penalty>  (357) 
0.26019999999999999

>  <r_i_docking_score>  (357) 
-2.8724731162795698

>  <r_i_glide_ecoul>  (357) 
-2.7433934211731001

>  <r_i_glide_eff_state_penalty>  (357) 
0.26019999999999999

>  <r_i_glide_einternal>  (357) 
4.1484813690185502

>  <r_i_glide_emodel>  (357) 
-39.345911198348396

>  <r_i_glide_energy>  (357) 
-34.699364185333302

>  <r_i_glide_erotb>  (357) 
0.53317561552538495

>  <r_i_glide_esite>  (357) 
-0.0323643164701896

>  <r_i_glide_evdw>  (357) 
-31.955970764160199

>  <r_i_glide_gscore>  (357) 
-3.13267311627957

>  <r_i_glide_hbond>  (357) 
0

>  <r_i_glide_ligand_efficiency>  (357) 
-0.082070660465130493

>  <r_i_glide_ligand_efficiency_ln>  (357) 
-0.63057160012936297

>  <r_i_glide_ligand_efficiency_sa>  (357) 
-0.268458572184261

>  <r_i_glide_lipo>  (357) 
-1.46807554035342

>  <r_i_glide_metal>  (357) 
-0

>  <r_i_glide_rewards>  (357) 
-0.15610132359737

>  <r_lp_Energy>  (357) 
29.852239999999998

>  <r_qp_ACxDN^.5/SA>  (357) 
0.0114778

>  <r_qp_CIQPlogS>  (357) 
-7.1779999999999999

>  <r_qp_EA(eV)>  (357) 
1.3340000000000001

>  <r_qp_FISA>  (357) 
111.179

>  <r_qp_FOSA>  (357) 
50.042000000000002

>  <r_qp_IP(eV)>  (357) 
9.016

>  <r_qp_Jm>  (357) 
0.0014426651319651999

>  <r_qp_PISA>  (357) 
381.81200000000001

>  <r_qp_PSA>  (357) 
72.078999999999994

>  <r_qp_PercentHumanOralAbsorption>  (357) 
100

>  <r_qp_QPPCaco>  (357) 
218.017

>  <r_qp_QPPMDCK>  (357) 
586.69399999999996

>  <r_qp_QPlogBB>  (357) 
-0.151

>  <r_qp_QPlogHERG>  (357) 
-6.4980000000000002

>  <r_qp_QPlogKhsa>  (357) 
0.84899999999999998

>  <r_qp_QPlogKp>  (357) 
-3.6139999999999999

>  <r_qp_QPlogPC16>  (357) 
13.586

>  <r_qp_QPlogPo/w>  (357) 
4.8970000000000002

>  <r_qp_QPlogPoct>  (357) 
22.747

>  <r_qp_QPlogPw>  (357) 
12.037000000000001

>  <r_qp_QPlogS>  (357) 
-4.9059999999999997

>  <r_qp_QPpolrz>  (357) 
45.225999999999999

>  <r_qp_SASA>  (357) 
679.06700000000001

>  <r_qp_SAamideO>  (357) 
0

>  <r_qp_SAfluorine>  (357) 
136.03399999999999

>  <r_qp_WPSA>  (357) 
136.03399999999999

>  <r_qp_accptHB>  (357) 
4.5

>  <r_qp_dip^2/V>  (357) 
0.0056008999999999998

>  <r_qp_dipole>  (357) 
2.7040000000000002

>  <r_qp_donorHB>  (357) 
3

>  <r_qp_glob>  (357) 
0.85049929999999996

>  <r_qp_mol_MW>  (357) 
477.45999999999998

>  <r_qp_volume>  (357) 
1305.066

>  <r_sd_BIOSOLVEIT.INFINISEE\_FTREES\_SIMILARITY>  (357) 
0.90700000000000003

>  <r_sd_BIOSOLVEIT.LOGP>  (357) 
4.8497000000000003

>  <r_sd_BIOSOLVEIT.MOLECULAR\_WEIGHT>  (357) 
478.46699999999998

>  <r_sd_BIOSOLVEIT.TPSA>  (357) 
69.629999999999995

>  <i_epik_Tot_Q>  (357) 
0

>  <i_epik_Tot_abs_Q>  (357) 
0

>  <i_f3d_flags>  (357) 
0

>  <i_i_glide_confnum>  (357) 
4

>  <i_i_glide_lignum>  (357) 
1259

>  <i_i_glide_posenum>  (357) 
7

>  <i_i_glide_rotatable_bonds>  (357) 
8

>  <i_lp_mmshare_version>  (357) 
65135

>  <i_m_ct_format>  (357) 
2

>  <i_m_source_file_index>  (357) 
2785

>  <i_qp_#NandO>  (357) 
4

>  <i_qp_#acid>  (357) 
0

>  <i_qp_#amide>  (357) 
0

>  <i_qp_#amidine>  (357) 
0

>  <i_qp_#amine>  (357) 
1

>  <i_qp_#in34>  (357) 
0

>  <i_qp_#in56>  (357) 
22

>  <i_qp_#metab>  (357) 
5

>  <i_qp_#nonHatm>  (357) 
35

>  <i_qp_#noncon>  (357) 
0

>  <i_qp_#ringatoms>  (357) 
22

>  <i_qp_#rotor>  (357) 
7

>  <i_qp_#rtvFG>  (357) 
0

>  <i_qp_#stars>  (357) 
0

>  <i_qp_CNS>  (357) 
0

>  <i_qp_HumanOralAbsorption>  (357) 
3

>  <i_qp_RuleOfFive>  (357) 
0

>  <i_qp_RuleOfThree>  (357) 
0

>  <i_sd_BIOSOLVEIT.INFINISEE\_RESULT\_RANK>  (357) 
62193

>  <i_sd_version>  (357) 
0

>  <b_lp_Chiralities_Consistent>  (357) 
1

>  <b_sd_chiral_flag>  (357) 
0

>  <canonical_id>  (357) 
ATP-HTVS-3A96A568DDAE

>  <compound_code>  (357) 
89089

>  <title>  (357) 
rxn503b____EMOL487561____EMOL13728749____EMOL313110234

>  <variant>  (357) 
89089-2

>  <source_file>  (357) 
运行/运行/ATP-VSW/ATP-VSW-DOCK_HTVS_1-001_lib/ATP-VSW-DOCK_HTVS_1-001_lib

>  <canonical_smiles>  (357) 
N[C@H](C#Cc1cnc2ccccc2c1NC(=O)c1ccc(C(F)(F)F)cc1)Cc1cccc(F)c1

>  <scaffold>  (357) 
O=C(Nc1c(C#CCCc2ccccc2)cnc2ccccc12)c1ccccc1

>  <molecular_formula>  (357) 
C27H19F4N3O

$$$$
ATP-HTVS-3AF3BD852D4F
     RDKit          3D

 53 56  0  0  0  0  0  0  0  0999 V2000
  199.7246  183.4491  159.6753 Cl  0  0  0  0  0  0  0  0  0  0  0  0
  198.6613  184.1688  158.4430 C   0  0  2  0  0  0  0  0  0  0  0  0
  197.6352  185.0952  159.0968 C   0  0  0  0  0  0  0  0  0  0  0  0
  197.8208  186.4966  159.0255 C   0  0  0  0  0  0  0  0  0  0  0  0
  196.8770  187.3731  159.5931 C   0  0  0  0  0  0  0  0  0  0  0  0
  195.7316  186.8583  160.2281 C   0  0  0  0  0  0  0  0  0  0  0  0
  195.5467  185.4670  160.3170 C   0  0  0  0  0  0  0  0  0  0  0  0
  196.5151  184.5838  159.7853 C   0  0  0  0  0  0  0  0  0  0  0  0
  198.0641  183.0989  157.5071 C   0  0  0  0  0  0  0  0  0  0  0  0
  196.9642  182.5916  157.7420 O   0  0  0  0  0  0  0  0  0  0  0  0
  198.7996  182.7479  156.4428 N   0  0  0  0  0  0  0  0  0  0  0  0
  198.2989  181.9892  155.3624 C   0  0  0  0  0  0  0  0  0  0  0  0
  197.7697  182.6118  154.2874 N   0  0  0  0  0  0  0  0  0  0  0  0
  197.3408  181.8945  153.2330 C   0  0  0  0  0  0  0  0  0  0  0  0
  197.4372  180.4794  153.2069 C   0  0  0  0  0  0  0  0  0  0  0  0
  197.9850  179.8203  154.3181 C   0  0  0  0  0  0  0  0  0  0  0  0
  198.4321  180.5730  155.4202 C   0  0  0  0  0  0  0  0  0  0  0  0
  198.9841  179.9440  156.5472 N   0  0  0  0  0  0  0  0  0  0  0  0
  200.0929  179.0325  156.3080 C   0  0  1  0  0  0  0  0  0  0  0  0
  201.1253  179.2780  157.3201 C   0  0  0  0  0  0  0  0  0  0  0  0
  201.9457  179.4830  158.1214 N   0  0  0  0  0  0  0  0  0  0  0  0
  199.6325  177.5599  156.3273 C   0  0  1  0  0  0  0  0  0  0  0  0
  200.6570  176.6199  155.7397 C   0  0  0  0  0  0  0  0  0  0  0  0
  201.5468  175.9386  156.5917 C   0  0  0  0  0  0  0  0  0  0  0  0
  202.4748  175.0249  156.0596 C   0  0  0  0  0  0  0  0  0  0  0  0
  202.5180  174.8000  154.6692 C   0  0  0  0  0  0  0  0  0  0  0  0
  201.6358  175.4906  153.8143 C   0  0  0  0  0  0  0  0  0  0  0  0
  200.7075  176.4032  154.3488 C   0  0  0  0  0  0  0  0  0  0  0  0
  197.0084  179.7267  152.0940 C   0  0  0  0  0  0  0  0  0  0  0  0
  196.4660  180.3859  150.9788 C   0  0  0  0  0  0  0  0  0  0  0  0
  196.3700  181.7897  150.9838 C   0  0  0  0  0  0  0  0  0  0  0  0
  196.8043  182.5306  152.0979 C   0  0  0  0  0  0  0  0  0  0  0  0
  199.3252  184.7858  157.8416 H   0  0  0  0  0  0  0  0  0  0  0  0
  198.6959  186.9110  158.5366 H   0  0  0  0  0  0  0  0  0  0  0  0
  197.0216  188.4432  159.5329 H   0  0  0  0  0  0  0  0  0  0  0  0
  194.9915  187.5248  160.6460 H   0  0  0  0  0  0  0  0  0  0  0  0
  194.6674  185.0595  160.7863 H   0  0  0  0  0  0  0  0  0  0  0  0
  196.3700  183.5237  159.9050 H   0  0  0  0  0  0  0  0  0  0  0  0
  199.7532  183.0802  156.3603 H   0  0  0  0  0  0  0  0  0  0  0  0
  198.0696  178.7421  154.2941 H   0  0  0  0  0  0  0  0  0  0  0  0
  198.3254  179.6266  157.2521 H   0  0  0  0  0  0  0  0  0  0  0  0
  200.5520  179.2755  155.3466 H   0  0  0  0  0  0  0  0  0  0  0  0
  199.4398  177.2422  157.3498 H   0  0  0  0  0  0  0  0  0  0  0  0
  198.6969  177.4126  155.7920 H   0  0  0  0  0  0  0  0  0  0  0  0
  201.5062  176.1079  157.6560 H   0  0  0  0  0  0  0  0  0  0  0  0
  203.1474  174.4990  156.7217 H   0  0  0  0  0  0  0  0  0  0  0  0
  203.2292  174.0957  154.2599 H   0  0  0  0  0  0  0  0  0  0  0  0
  201.6669  175.3132  152.7482 H   0  0  0  0  0  0  0  0  0  0  0  0
  200.0224  176.9219  153.6938 H   0  0  0  0  0  0  0  0  0  0  0  0
  197.0859  178.6506  152.0980 H   0  0  0  0  0  0  0  0  0  0  0  0
  196.1312  179.8167  150.1261 H   0  0  0  0  0  0  0  0  0  0  0  0
  195.9521  182.3104  150.1323 H   0  0  0  0  0  0  0  0  0  0  0  0
  196.7166  183.6073  152.0883 H   0  0  0  0  0  0  0  0  0  0  0  0
  1  2  1  0
  2  3  1  0
  2  9  1  0
  2 33  1  6
  3  4  2  0
  3  8  1  0
  4  5  1  0
  4 34  1  0
  5  6  2  0
  5 35  1  0
  6  7  1  0
  6 36  1  0
  7  8  2  0
  7 37  1  0
  8 38  1  0
  9 10  2  0
  9 11  1  0
 11 12  1  0
 11 39  1  0
 12 13  2  0
 12 17  1  0
 13 14  1  0
 14 15  1  0
 14 32  2  0
 15 16  1  0
 15 29  2  0
 16 17  2  0
 16 40  1  0
 17 18  1  0
 18 19  1  0
 18 41  1  0
 19 20  1  0
 19 22  1  0
 19 42  1  6
 20 21  3  0
 22 23  1  0
 22 43  1  1
 22 44  1  0
 23 24  2  0
 23 28  1  0
 24 25  1  0
 24 45  1  0
 25 26  2  0
 25 46  1  0
 26 27  1  0
 26 47  1  0
 27 28  2  0
 27 48  1  0
 28 49  1  0
 29 30  1  0
 29 50  1  0
 30 31  2  0
 30 51  1  0
 31 32  1  0
 31 52  1  0
 32 53  1  0
M  END
>  <s_epik_cmdline>  (358) 
J2VwaWtfcHl0aG9uJywgJy1waCcsICc3LjAwMDAwMCcsICctcGh0JywgJzIuMDAwMDAwJywgJy1tcycsICcxNicsICctdG4nLCAnOCcsICctbWEnLCAnMjAwJywgJy1pbWFlJywgJzxpbmZpbGUubWFlPicsICctb21hZScsICc8b3V0ZmlsZS5tYWU+Jw==

>  <s_epik_input>  (358) 
W2NIXTFbY0hdW2NIXVtjSF1bY0hdYzFbQ0BASF0oQ2wpQyg9TylbTkhdYyhuMiljKFtjSF1jKGMyMylbY0hdW2NIXVtjSF1bY0hdMylbTkhdW0NAQEhdKEMjTilbQ0gyXWM0W2NIXVtjSF1bY0hdW2NIXVtjSF00

>  <s_i_glide_gridfile>  (358) 
ATP-Grid

>  <s_lp_Force_Field>  (358) 
OPLS_2005

>  <s_lp_Variant>  (358) 
rxn502b____EMOL480530____EMOL44466703____EMOL18628026-1

>  <s_lp_label>  (358) 
2837_sdstereoexpander_1_neutralizer_1_epik_1_stereoizer_1

>  <s_m_source_file>  (358) 
ATP-VSW-LIGPREP-001-in.maegz

>  <s_sd_BIOSOLVEIT.INFINISEE\_QUERY\_NAME>  (358) 
Ref-Lig

>  <s_sd_BIOSOLVEIT.INFINISEE\_QUERY\_SMILES>  (358) 
S(c1nc2c(cc1C[NH2+]Cc3ccc(cc3)C[NH+](C)C)cccc2)Cc4ccccc4

>  <s_sd_BIOSOLVEIT.INFINISEE\_REACTION\_NAME>  (358) 
rxn502b

>  <s_sd_BIOSOLVEIT.INFINISEE\_REAGENT1\_NAME>  (358) 
EMOL480530

>  <s_sd_BIOSOLVEIT.INFINISEE\_REAGENT1\_SMILES>  (358) 
ClC(=O)C(Cl)c1ccccc1

>  <s_sd_BIOSOLVEIT.INFINISEE\_REAGENT2\_NAME>  (358) 
EMOL44466703

>  <s_sd_BIOSOLVEIT.INFINISEE\_REAGENT2\_SMILES>  (358) 
Brc1c(nc2c(c1)cccc2)N

>  <s_sd_BIOSOLVEIT.INFINISEE\_REAGENT3\_NAME>  (358) 
EMOL18628026

>  <s_sd_BIOSOLVEIT.INFINISEE\_REAGENT3\_SMILES>  (358) 
N#CC(N)Cc1ccccc1

>  <s_sd_BIOSOLVEIT.INFINISEE\_SPACE>  (358) 
eXplore_7tr_2022-12

>  <s_vsw_compound_code>  (358) 
90753

>  <s_vsw_variant>  (358) 
90753-1

>  <r_epik_Charging_Adjusted_Penalty>  (358) 
0.010571278986270799

>  <r_epik_Ionization_Penalty>  (358) 
0.0016999999999999999

>  <r_epik_Ionization_Penalty_Charging>  (358) 
0

>  <r_epik_Ionization_Penalty_Neutral>  (358) 
0.0016999999999999999

>  <r_epik_State_Penalty>  (358) 
0.0106

>  <r_i_docking_score>  (358) 
-4.6008144987577602

>  <r_i_glide_ecoul>  (358) 
-0.077020339667797103

>  <r_i_glide_eff_state_penalty>  (358) 
0.0106

>  <r_i_glide_einternal>  (358) 
15.1665992736816

>  <r_i_glide_emodel>  (358) 
-44.807909633626501

>  <r_i_glide_energy>  (358) 
-40.018548659980297

>  <r_i_glide_erotb>  (358) 
0.61633613599688397

>  <r_i_glide_esite>  (358) 
-0.096039363877610598

>  <r_i_glide_evdw>  (358) 
-39.9415283203125

>  <r_i_glide_gscore>  (358) 
-4.6114144987577603

>  <r_i_glide_hbond>  (358) 
-0.067826936537790997

>  <r_i_glide_ligand_efficiency>  (358) 
-0.14377545308618001

>  <r_i_glide_ligand_efficiency_ln>  (358) 
-1.0302477797384599

>  <r_i_glide_ligand_efficiency_sa>  (358) 
-0.456458610425092

>  <r_i_glide_lipo>  (358) 
-2.5354473714150401

>  <r_i_glide_metal>  (358) 
-0

>  <r_i_glide_rewards>  (358) 
-0.51980749595841202

>  <r_lp_Energy>  (358) 
26.314278000000002

>  <r_qp_ACxDN^.5/SA>  (358) 
0.0121101

>  <r_qp_CIQPlogS>  (358) 
-8.0329999999999995

>  <r_qp_EA(eV)>  (358) 
1.01

>  <r_qp_FISA>  (358) 
110.114

>  <r_qp_FOSA>  (358) 
43.862000000000002

>  <r_qp_IP(eV)>  (358) 
8.7799999999999994

>  <r_qp_Jm>  (358) 
0.0077038403801215202

>  <r_qp_PISA>  (358) 
490.32799999999997

>  <r_qp_PSA>  (358) 
79.635000000000005

>  <r_qp_PercentHumanOralAbsorption>  (358) 
100

>  <r_qp_QPPCaco>  (358) 
894.73099999999999

>  <r_qp_QPPMDCK>  (358) 
893.221

>  <r_qp_QPlogBB>  (358) 
-0.84299999999999997

>  <r_qp_QPlogHERG>  (358) 
-6.6050000000000004

>  <r_qp_QPlogKhsa>  (358) 
0.66400000000000003

>  <r_qp_QPlogKp>  (358) 
-1.054

>  <r_qp_QPlogPC16>  (358) 
15.553000000000001

>  <r_qp_QPlogPo/w>  (358) 
4.9560000000000004

>  <r_qp_QPlogPoct>  (358) 
22.375

>  <r_qp_QPlogPw>  (358) 
12.584

>  <r_qp_QPlogS>  (358) 
-6.7039999999999997

>  <r_qp_QPpolrz>  (358) 
46.259

>  <r_qp_SASA>  (358) 
700.67899999999997

>  <r_qp_SAamideO>  (358) 
0

>  <r_qp_SAfluorine>  (358) 
0

>  <r_qp_WPSA>  (358) 
56.375

>  <r_qp_accptHB>  (358) 
6

>  <r_qp_dip^2/V>  (358) 
0.023246300000000001

>  <r_qp_dipole>  (358) 
5.5419999999999998

>  <r_qp_donorHB>  (358) 
2

>  <r_qp_glob>  (358) 
0.83097149999999997

>  <r_qp_mol_MW>  (358) 
440.93099999999998

>  <r_qp_volume>  (358) 
1321.0219999999999

>  <r_sd_BIOSOLVEIT.INFINISEE\_FTREES\_SIMILARITY>  (358) 
0.90600000000000003

>  <r_sd_BIOSOLVEIT.LOGP>  (358) 
5.7001799999999996

>  <r_sd_BIOSOLVEIT.MOLECULAR\_WEIGHT>  (358) 
440.93200000000002

>  <r_sd_BIOSOLVEIT.TPSA>  (358) 
77.810000000000002

>  <i_epik_Tot_Q>  (358) 
0

>  <i_epik_Tot_abs_Q>  (358) 
0

>  <i_f3d_flags>  (358) 
0

>  <i_i_glide_confnum>  (358) 
1

>  <i_i_glide_lignum>  (358) 
1305

>  <i_i_glide_posenum>  (358) 
3

>  <i_i_glide_rotatable_bonds>  (358) 
8

>  <i_lp_mmshare_version>  (358) 
65135

>  <i_m_ct_format>  (358) 
2

>  <i_m_source_file_index>  (358) 
2837

>  <i_qp_#NandO>  (358) 
5

>  <i_qp_#acid>  (358) 
0

>  <i_qp_#amide>  (358) 
0

>  <i_qp_#amidine>  (358) 
0

>  <i_qp_#amine>  (358) 
0

>  <i_qp_#in34>  (358) 
0

>  <i_qp_#in56>  (358) 
22

>  <i_qp_#metab>  (358) 
6

>  <i_qp_#nonHatm>  (358) 
32

>  <i_qp_#noncon>  (358) 
0

>  <i_qp_#ringatoms>  (358) 
22

>  <i_qp_#rotor>  (358) 
8

>  <i_qp_#rtvFG>  (358) 
1

>  <i_qp_#stars>  (358) 
2

>  <i_qp_CNS>  (358) 
-1

>  <i_qp_HumanOralAbsorption>  (358) 
1

>  <i_qp_RuleOfFive>  (358) 
0

>  <i_qp_RuleOfThree>  (358) 
1

>  <i_sd_BIOSOLVEIT.INFINISEE\_RESULT\_RANK>  (358) 
67172

>  <i_sd_version>  (358) 
0

>  <b_lp_Chiralities_Consistent>  (358) 
1

>  <b_sd_chiral_flag>  (358) 
0

>  <canonical_id>  (358) 
ATP-HTVS-3AF3BD852D4F

>  <compound_code>  (358) 
90753

>  <title>  (358) 
rxn502b____EMOL480530____EMOL44466703____EMOL18628026

>  <variant>  (358) 
90753-1

>  <source_file>  (358) 
运行/运行/ATP-VSW/ATP-VSW-DOCK_HTVS_1-001_lib/ATP-VSW-DOCK_HTVS_1-001_lib

>  <canonical_smiles>  (358) 
N#C[C@@H](Cc1ccccc1)Nc1cc2ccccc2nc1NC(=O)[C@H](Cl)c1ccccc1

>  <scaffold>  (358) 
O=C(Cc1ccccc1)Nc1nc2ccccc2cc1NCCc1ccccc1

>  <molecular_formula>  (358) 
C26H21ClN4O

$$$$
ATP-HTVS-3B1236037689
     RDKit          3D

 61 64  0  0  0  0  0  0  0  0999 V2000
  202.8410  173.8145  155.0627 Cl  0  0  0  0  0  0  0  0  0  0  0  0
  201.8681  175.2224  155.2803 C   0  0  0  0  0  0  0  0  0  0  0  0
  201.0907  175.7227  154.2186 C   0  0  0  0  0  0  0  0  0  0  0  0
  200.3071  176.8799  154.4037 C   0  0  0  0  0  0  0  0  0  0  0  0
  200.2837  177.5380  155.6602 C   0  0  0  0  0  0  0  0  0  0  0  0
  201.0795  177.0321  156.7106 C   0  0  0  0  0  0  0  0  0  0  0  0
  201.8579  175.8750  156.5240 C   0  0  0  0  0  0  0  0  0  0  0  0
  199.4781  178.7684  155.9065 C   0  0  0  0  0  0  0  0  0  0  0  0
  199.6581  179.5163  156.8710 O   0  0  0  0  0  0  0  0  0  0  0  0
  198.4214  179.1297  154.8596 C   0  0  1  0  0  0  0  0  0  0  0  0
  197.2944  179.8992  155.3779 N   0  0  0  0  0  0  0  0  0  0  0  0
  197.2269  181.2770  155.1082 C   0  0  0  0  0  0  0  0  0  0  0  0
  197.1825  181.7502  153.7663 C   0  0  0  0  0  0  0  0  0  0  0  0
  197.1987  180.7979  152.7094 N   0  0  0  0  0  0  0  0  0  0  0  0
  196.9510  180.9479  151.3975 C   0  0  0  0  0  0  0  0  0  0  0  0
  196.3805  181.9201  150.9018 O   0  0  0  0  0  0  0  0  0  0  0  0
  197.3844  179.7732  150.5583 C   0  0  0  0  0  0  0  0  0  0  0  0
  196.7189  179.4687  149.3497 C   0  0  0  0  0  0  0  0  0  0  0  0
  197.1556  178.4065  148.5303 C   0  0  0  0  0  0  0  0  0  0  0  0
  198.2782  177.6401  148.8990 C   0  0  0  0  0  0  0  0  0  0  0  0
  198.9541  177.9361  150.1006 C   0  0  0  0  0  0  0  0  0  0  0  0
  198.5204  179.0006  150.9145 C   0  0  0  0  0  0  0  0  0  0  0  0
  198.7722  176.5101  148.0092 C   0  0  1  0  0  0  0  0  0  0  0  0
  199.8790  176.9268  147.1103 N   0  0  2  0  0  0  0  0  0  0  0  0
  199.4598  177.8761  146.0502 C   0  0  2  0  0  0  0  0  0  0  0  0
  200.6092  175.7652  146.5531 C   0  0  2  0  0  0  0  0  0  0  0  0
  197.1819  183.1442  153.5313 C   0  0  0  0  0  0  0  0  0  0  0  0
  197.1933  184.0071  154.5683 N   0  0  0  0  0  0  0  0  0  0  0  0
  197.1809  183.6133  155.8597 C   0  0  0  0  0  0  0  0  0  0  0  0
  197.1900  182.2253  156.1690 C   0  0  0  0  0  0  0  0  0  0  0  0
  197.1679  181.8366  157.5335 C   0  0  0  0  0  0  0  0  0  0  0  0
  197.1271  182.8078  158.5551 C   0  0  0  0  0  0  0  0  0  0  0  0
  197.1154  184.1759  158.2347 C   0  0  0  0  0  0  0  0  0  0  0  0
  197.1515  184.5816  156.8867 C   0  0  0  0  0  0  0  0  0  0  0  0
  201.0932  175.2179  153.2635 H   0  0  0  0  0  0  0  0  0  0  0  0
  199.7233  177.2351  153.5671 H   0  0  0  0  0  0  0  0  0  0  0  0
  201.0894  177.5303  157.6687 H   0  0  0  0  0  0  0  0  0  0  0  0
  202.4640  175.4999  157.3348 H   0  0  0  0  0  0  0  0  0  0  0  0
  198.9758  179.6642  154.0794 H   0  0  0  0  0  0  0  0  0  0  0  0
  197.9956  178.2385  154.4251 H   0  0  0  0  0  0  0  0  0  0  0  0
  197.0662  179.6270  156.3382 H   0  0  0  0  0  0  0  0  0  0  0  0
  197.4908  179.8760  153.0006 H   0  0  0  0  0  0  0  0  0  0  0  0
  195.8635  180.0531  149.0500 H   0  0  0  0  0  0  0  0  0  0  0  0
  196.6366  178.1967  147.6073 H   0  0  0  0  0  0  0  0  0  0  0  0
  199.8257  177.3672  150.3912 H   0  0  0  0  0  0  0  0  0  0  0  0
  199.0864  179.2045  151.8112 H   0  0  0  0  0  0  0  0  0  0  0  0
  199.1112  175.7048  148.6622 H   0  0  0  0  0  0  0  0  0  0  0  0
  197.9501  176.1005  147.4249 H   0  0  0  0  0  0  0  0  0  0  0  0
  198.6981  177.4370  145.4035 H   0  0  0  0  0  0  0  0  0  0  0  0
  200.3078  178.1589  145.4252 H   0  0  0  0  0  0  0  0  0  0  0  0
  199.0628  178.7963  146.4804 H   0  0  0  0  0  0  0  0  0  0  0  0
  199.9563  175.1539  145.9303 H   0  0  0  0  0  0  0  0  0  0  0  0
  201.0021  175.1313  147.3497 H   0  0  0  0  0  0  0  0  0  0  0  0
  201.4543  176.0905  145.9449 H   0  0  0  0  0  0  0  0  0  0  0  0
  197.2093  183.5933  152.5474 H   0  0  0  0  0  0  0  0  0  0  0  0
  197.1628  180.7960  157.8225 H   0  0  0  0  0  0  0  0  0  0  0  0
  197.0950  182.4916  159.5879 H   0  0  0  0  0  0  0  0  0  0  0  0
  197.0751  184.9148  159.0233 H   0  0  0  0  0  0  0  0  0  0  0  0
  197.1419  185.6354  156.6550 H   0  0  0  0  0  0  0  0  0  0  0  0
  200.5421  177.4201  147.6906 H   0  0  0  0  0  0  0  0  0  0  0  0
  197.1927  185.0072  154.3672 H   0  0  0  0  0  0  0  0  0  0  0  0
  1  2  1  0
  2  3  1  0
  2  7  2  0
  3  4  2  0
  3 35  1  0
  4  5  1  0
  4 36  1  0
  5  6  2  0
  5  8  1  0
  6  7  1  0
  6 37  1  0
  7 38  1  0
  8  9  2  0
  8 10  1  0
 10 11  1  0
 10 39  1  6
 10 40  1  0
 11 12  1  0
 11 41  1  0
 12 13  2  0
 12 30  1  0
 13 14  1  0
 13 27  1  0
 14 15  1  0
 14 42  1  0
 15 16  2  0
 15 17  1  0
 17 18  1  0
 17 22  2  0
 18 19  2  0
 18 43  1  0
 19 20  1  0
 19 44  1  0
 20 21  2  0
 20 23  1  0
 21 22  1  0
 21 45  1  0
 22 46  1  0
 23 24  1  0
 23 47  1  1
 23 48  1  0
 24 25  1  0
 24 26  1  0
 24 60  1  1
 25 49  1  6
 25 50  1  0
 25 51  1  0
 26 52  1  6
 26 53  1  0
 26 54  1  0
 27 28  2  0
 27 55  1  0
 28 29  1  0
 28 61  1  0
 29 30  1  0
 29 34  2  0
 30 31  2  0
 31 32  1  0
 31 56  1  0
 32 33  2  0
 32 57  1  0
 33 34  1  0
 33 58  1  0
 34 59  1  0
M  CHG  2  24   1  28   1
M  END
>  <s_epik_cmdline>  (359) 
J2VwaWtfcHl0aG9uJywgJy1waCcsICc3LjAwMDAwMCcsICctcGh0JywgJzIuMDAwMDAwJywgJy1tcycsICcxNicsICctdG4nLCAnOCcsICctbWEnLCAnMjAwJywgJy1pbWFlJywgJzxpbmZpbGUubWFlPicsICctb21hZScsICc8b3V0ZmlsZS5tYWU+Jw==

>  <s_epik_input>  (359) 
Q2xjMVtjSF1bY0hdYyhbY0hdW2NIXTEpQyg9TylbQ0gyXVtOSF1jKGMoYzIzKVtjSF1bY0hdW2NIXVtjSF0zKWMoW2NIXW4yKVtOSF1DKD1PKWM0W2NIXVtjSF1jKFtjSF1bY0hdNClbQ0gyXU4oW0NIM10pW0NIM10=

>  <s_i_glide_gridfile>  (359) 
ATP-Grid

>  <s_lp_Force_Field>  (359) 
OPLS_2005

>  <s_lp_Variant>  (359) 
rxn502b____EMOL18624763____EMOL30488121____EMOL4851670-1

>  <s_lp_label>  (359) 
2597_sdstereoexpander_1_neutralizer_1_epik_1_stereoizer_1

>  <s_m_source_file>  (359) 
ATP-VSW-LIGPREP-001-in.maegz

>  <s_sd_BIOSOLVEIT.INFINISEE\_QUERY\_NAME>  (359) 
Ref-Lig

>  <s_sd_BIOSOLVEIT.INFINISEE\_QUERY\_SMILES>  (359) 
S(c1nc2c(cc1C[NH2+]Cc3ccc(cc3)C[NH+](C)C)cccc2)Cc4ccccc4

>  <s_sd_BIOSOLVEIT.INFINISEE\_REACTION\_NAME>  (359) 
rxn502b

>  <s_sd_BIOSOLVEIT.INFINISEE\_REAGENT1\_NAME>  (359) 
EMOL18624763

>  <s_sd_BIOSOLVEIT.INFINISEE\_REAGENT1\_SMILES>  (359) 
O=C(O)c1ccc(cc1)CN(C)C

>  <s_sd_BIOSOLVEIT.INFINISEE\_REAGENT2\_NAME>  (359) 
EMOL30488121

>  <s_sd_BIOSOLVEIT.INFINISEE\_REAGENT2\_SMILES>  (359) 
Brc1c(N)cnc2c1cccc2

>  <s_sd_BIOSOLVEIT.INFINISEE\_REAGENT3\_NAME>  (359) 
EMOL4851670

>  <s_sd_BIOSOLVEIT.INFINISEE\_REAGENT3\_SMILES>  (359) 
Clc1ccc(cc1)C(=O)CN

>  <s_sd_BIOSOLVEIT.INFINISEE\_SPACE>  (359) 
eXplore_7tr_2022-12

>  <s_vsw_compound_code>  (359) 
83073

>  <s_vsw_variant>  (359) 
83073-1

>  <r_epik_Charging_Adjusted_Penalty>  (359) 
0.34605436325460598

>  <r_epik_Ionization_Penalty>  (359) 
0.17319999999999999

>  <r_epik_Ionization_Penalty_Charging>  (359) 
0.17299999999999999

>  <r_epik_Ionization_Penalty_Neutral>  (359) 
0.00020000000000000001

>  <r_epik_State_Penalty>  (359) 
0.1731

>  <r_i_docking_score>  (359) 
-5.2146709315999198

>  <r_i_glide_ecoul>  (359) 
-10.826331138610801

>  <r_i_glide_eff_state_penalty>  (359) 
0.1731

>  <r_i_glide_einternal>  (359) 
3.3452200889587398

>  <r_i_glide_emodel>  (359) 
-74.249323262800999

>  <r_i_glide_energy>  (359) 
-51.379710197448702

>  <r_i_glide_erotb>  (359) 
0.62796208769491102

>  <r_i_glide_esite>  (359) 
-0.17881296384899301

>  <r_i_glide_evdw>  (359) 
-40.553379058837898

>  <r_i_glide_gscore>  (359) 
-5.3877709315999196

>  <r_i_glide_hbond>  (359) 
-0.14472945973745999

>  <r_i_glide_ligand_efficiency>  (359) 
-0.153372674458821

>  <r_i_glide_ligand_efficiency_ln>  (359) 
-1.1520670753556701

>  <r_i_glide_ligand_efficiency_sa>  (359) 
-0.49686792558624199

>  <r_i_glide_lipo>  (359) 
-1.5365853742792399

>  <r_i_glide_metal>  (359) 
-0

>  <r_i_glide_rewards>  (359) 
-0.50398659769561804

>  <r_lp_Energy>  (359) 
47.509075000000003

>  <r_lp_tautomer_probability>  (359) 
0.99990000499974996

>  <r_qp_ACxDN^.5/SA>  (359) 
0.015076300000000001

>  <r_qp_CIQPlogS>  (359) 
-5.657

>  <r_qp_EA(eV)>  (359) 
1.196

>  <r_qp_FISA>  (359) 
121.38800000000001

>  <r_qp_FOSA>  (359) 
195.00700000000001

>  <r_qp_IP(eV)>  (359) 
8.5169999999999995

>  <r_qp_Jm>  (359) 
0.00049903988250809704

>  <r_qp_PISA>  (359) 
409.66300000000001

>  <r_qp_PSA>  (359) 
87.058999999999997

>  <r_qp_PercentHumanOralAbsorption>  (359) 
91.120000000000005

>  <r_qp_QPPCaco>  (359) 
174.453

>  <r_qp_QPPMDCK>  (359) 
203.70699999999999

>  <r_qp_QPlogBB>  (359) 
-0.67800000000000005

>  <r_qp_QPlogHERG>  (359) 
-7.7850000000000001

>  <r_qp_QPlogKhsa>  (359) 
0.51600000000000001

>  <r_qp_QPlogKp>  (359) 
-3.6080000000000001

>  <r_qp_QPlogPC16>  (359) 
16.585000000000001

>  <r_qp_QPlogPo/w>  (359) 
4.1079999999999997

>  <r_qp_QPlogPoct>  (359) 
25.152999999999999

>  <r_qp_QPlogPw>  (359) 
14.811999999999999

>  <r_qp_QPlogS>  (359) 
-5.3689999999999998

>  <r_qp_QPpolrz>  (359) 
50.890000000000001

>  <r_qp_SASA>  (359) 
797.33100000000002

>  <r_qp_SAamideO>  (359) 
0

>  <r_qp_SAfluorine>  (359) 
0

>  <r_qp_WPSA>  (359) 
71.272999999999996

>  <r_qp_accptHB>  (359) 
8.5

>  <r_qp_dip^2/V>  (359) 
0.023000900000000001

>  <r_qp_dipole>  (359) 
5.7869999999999999

>  <r_qp_donorHB>  (359) 
2

>  <r_qp_glob>  (359) 
0.77916839999999998

>  <r_qp_mol_MW>  (359) 
472.97300000000001

>  <r_qp_volume>  (359) 
1455.9860000000001

>  <r_sd_BIOSOLVEIT.INFINISEE\_FTREES\_SIMILARITY>  (359) 
0.91100000000000003

>  <r_sd_BIOSOLVEIT.LOGP>  (359) 
4.0797999999999996

>  <r_sd_BIOSOLVEIT.MOLECULAR\_WEIGHT>  (359) 
473.98099999999999

>  <r_sd_BIOSOLVEIT.TPSA>  (359) 
75.530000000000001

>  <i_epik_Tot_Q>  (359) 
2

>  <i_epik_Tot_abs_Q>  (359) 
2

>  <i_f3d_flags>  (359) 
0

>  <i_i_glide_confnum>  (359) 
8

>  <i_i_glide_lignum>  (359) 
1079

>  <i_i_glide_posenum>  (359) 
12

>  <i_i_glide_rotatable_bonds>  (359) 
9

>  <i_lp_mmshare_version>  (359) 
65135

>  <i_m_ct_format>  (359) 
2

>  <i_m_source_file_index>  (359) 
2597

>  <i_qp_#NandO>  (359) 
6

>  <i_qp_#acid>  (359) 
0

>  <i_qp_#amide>  (359) 
0

>  <i_qp_#amidine>  (359) 
0

>  <i_qp_#amine>  (359) 
1

>  <i_qp_#in34>  (359) 
0

>  <i_qp_#in56>  (359) 
22

>  <i_qp_#metab>  (359) 
6

>  <i_qp_#nonHatm>  (359) 
34

>  <i_qp_#noncon>  (359) 
0

>  <i_qp_#ringatoms>  (359) 
22

>  <i_qp_#rotor>  (359) 
8

>  <i_qp_#rtvFG>  (359) 
0

>  <i_qp_#stars>  (359) 
0

>  <i_qp_CNS>  (359) 
1

>  <i_qp_HumanOralAbsorption>  (359) 
3

>  <i_qp_RuleOfFive>  (359) 
0

>  <i_qp_RuleOfThree>  (359) 
0

>  <i_sd_BIOSOLVEIT.INFINISEE\_RESULT\_RANK>  (359) 
41098

>  <i_sd_version>  (359) 
0

>  <b_lp_Chiralities_Consistent>  (359) 
1

>  <b_sd_chiral_flag>  (359) 
0

>  <canonical_id>  (359) 
ATP-HTVS-3B1236037689

>  <compound_code>  (359) 
83073

>  <title>  (359) 
rxn502b____EMOL18624763____EMOL30488121____EMOL4851670

>  <variant>  (359) 
83073-1

>  <source_file>  (359) 
运行/运行/ATP-VSW/ATP-VSW-DOCK_HTVS_1-001_lib/ATP-VSW-DOCK_HTVS_1-001_lib

>  <canonical_smiles>  (359) 
C[NH+](C)Cc1ccc(C(=O)Nc2c[nH+]c3ccccc3c2NCC(=O)c2ccc(Cl)cc2)cc1

>  <scaffold>  (359) 
O=C(CNc1c(NC(=O)c2ccccc2)c[nH+]c2ccccc12)c1ccccc1

>  <molecular_formula>  (359) 
C27H27ClN4O2+2

$$$$
ATP-HTVS-3B2E01AF7BF8
     RDKit          3D

 59 61  0  0  0  0  0  0  0  0999 V2000
  196.6694  179.7172  150.1460 S   0  0  0  0  0  0  0  0  0  0  0  0
  198.4157  179.9683  150.2061 C   0  0  0  0  0  0  0  0  0  0  0  0
  198.8693  180.0265  151.4756 N   0  0  0  0  0  0  0  0  0  0  0  0
  197.8719  179.9447  152.4228 C   0  0  0  0  0  0  0  0  0  0  0  0
  196.6099  179.7401  151.8871 C   0  0  0  0  0  0  0  0  0  0  0  0
  198.1991  180.1164  153.8863 C   0  0  1  0  0  0  0  0  0  0  0  0
  198.7506  178.8661  154.4584 N   0  0  1  0  0  0  0  0  0  0  0  0
  200.1807  178.6116  154.1322 C   0  0  1  0  0  0  0  0  0  0  0  0
  200.5090  177.1270  154.1065 C   0  0  0  0  0  0  0  0  0  0  0  0
  200.8374  176.4566  155.3032 C   0  0  0  0  0  0  0  0  0  0  0  0
  201.1400  175.0854  155.2887 C   0  0  0  0  0  0  0  0  0  0  0  0
  201.1485  174.3696  154.0704 C   0  0  0  0  0  0  0  0  0  0  0  0
  200.8242  175.0382  152.8735 C   0  0  0  0  0  0  0  0  0  0  0  0
  200.4997  176.4126  152.8900 C   0  0  0  0  0  0  0  0  0  0  0  0
  201.4964  172.8833  154.0565 C   0  0  1  0  0  0  0  0  0  0  0  0
  202.9567  172.6424  154.0327 N   0  0  1  0  0  0  0  0  0  0  0  0
  203.5830  173.0144  152.7461 C   0  0  2  0  0  0  0  0  0  0  0  0
  203.6748  173.2231  155.1843 C   0  0  2  0  0  0  0  0  0  0  0  0
  198.4869  178.7753  155.9095 C   0  0  2  0  0  0  0  0  0  0  0  0
  199.2909  180.2007  149.0284 C   0  0  1  0  0  0  0  0  0  0  0  0
  198.7376  181.2722  148.2598 O   0  0  0  0  0  0  0  0  0  0  0  0
  198.5892  182.5291  148.8114 C   0  0  0  0  0  0  0  0  0  0  0  0
  198.0343  183.5353  147.9884 C   0  0  0  0  0  0  0  0  0  0  0  0
  197.8022  184.8360  148.4947 C   0  0  0  0  0  0  0  0  0  0  0  0
  198.1079  185.1257  149.8428 C   0  0  0  0  0  0  0  0  0  0  0  0
  198.6655  184.1211  150.6635 C   0  0  0  0  0  0  0  0  0  0  0  0
  198.9407  182.8321  150.1640 C   0  0  0  0  0  0  0  0  0  0  0  0
  197.8955  186.5025  150.4129 C   0  0  2  0  0  0  0  0  0  0  0  0
  195.6611  179.6590  152.3918 H   0  0  0  0  0  0  0  0  0  0  0  0
  198.8983  180.9377  154.0491 H   0  0  0  0  0  0  0  0  0  0  0  0
  197.2968  180.3999  154.4250 H   0  0  0  0  0  0  0  0  0  0  0  0
  200.4630  179.0246  153.1667 H   0  0  0  0  0  0  0  0  0  0  0  0
  200.8259  179.1193  154.8559 H   0  0  0  0  0  0  0  0  0  0  0  0
  200.8711  176.9919  156.2407 H   0  0  0  0  0  0  0  0  0  0  0  0
  201.3714  174.5949  156.2225 H   0  0  0  0  0  0  0  0  0  0  0  0
  200.8310  174.5020  151.9359 H   0  0  0  0  0  0  0  0  0  0  0  0
  200.2685  176.9095  151.9567 H   0  0  0  0  0  0  0  0  0  0  0  0
  201.0568  172.3967  154.9259 H   0  0  0  0  0  0  0  0  0  0  0  0
  201.0303  172.4103  153.1861 H   0  0  0  0  0  0  0  0  0  0  0  0
  203.5153  174.0926  152.5723 H   0  0  0  0  0  0  0  0  0  0  0  0
  203.1008  172.5078  151.9103 H   0  0  0  0  0  0  0  0  0  0  0  0
  204.6389  172.7469  152.7334 H   0  0  0  0  0  0  0  0  0  0  0  0
  203.6291  174.3140  155.1790 H   0  0  0  0  0  0  0  0  0  0  0  0
  204.7336  172.9648  155.1497 H   0  0  0  0  0  0  0  0  0  0  0  0
  203.2570  172.8643  156.1280 H   0  0  0  0  0  0  0  0  0  0  0  0
  199.0353  179.5455  156.4543 H   0  0  0  0  0  0  0  0  0  0  0  0
  198.7809  177.8006  156.2998 H   0  0  0  0  0  0  0  0  0  0  0  0
  197.4248  178.8900  156.1292 H   0  0  0  0  0  0  0  0  0  0  0  0
  200.3085  180.4447  149.3430 H   0  0  0  0  0  0  0  0  0  0  0  0
  199.3394  179.2916  148.4261 H   0  0  0  0  0  0  0  0  0  0  0  0
  197.7807  183.3221  146.9579 H   0  0  0  0  0  0  0  0  0  0  0  0
  197.3974  185.6097  147.8465 H   0  0  0  0  0  0  0  0  0  0  0  0
  198.8959  184.3333  151.7000 H   0  0  0  0  0  0  0  0  0  0  0  0
  199.3773  182.1093  150.8224 H   0  0  0  0  0  0  0  0  0  0  0  0
  198.8451  187.0427  150.3733 H   0  0  0  0  0  0  0  0  0  0  0  0
  197.5815  186.4477  151.4601 H   0  0  0  0  0  0  0  0  0  0  0  0
  197.1386  187.0438  149.8434 H   0  0  0  0  0  0  0  0  0  0  0  0
  203.0695  171.6160  154.1313 H   0  0  0  0  0  0  0  0  0  0  0  0
  198.2195  178.1262  154.0224 H   0  0  0  0  0  0  0  0  0  0  0  0
  1  2  1  0
  1  5  1  0
  2  3  2  0
  2 20  1  0
  3  4  1  0
  4  5  2  0
  4  6  1  0
  5 29  1  0
  6  7  1  0
  6 30  1  6
  6 31  1  0
  7  8  1  0
  7 19  1  0
  7 59  1  6
  8  9  1  0
  8 32  1  6
  8 33  1  0
  9 10  1  0
  9 14  2  0
 10 11  2  0
 10 34  1  0
 11 12  1  0
 11 35  1  0
 12 13  2  0
 12 15  1  0
 13 14  1  0
 13 36  1  0
 14 37  1  0
 15 16  1  0
 15 38  1  1
 15 39  1  0
 16 17  1  0
 16 18  1  0
 16 58  1  1
 17 40  1  6
 17 41  1  0
 17 42  1  0
 18 43  1  1
 18 44  1  0
 18 45  1  0
 19 46  1  1
 19 47  1  0
 19 48  1  0
 20 21  1  0
 20 49  1  1
 20 50  1  0
 21 22  1  0
 22 23  1  0
 22 27  2  0
 23 24  2  0
 23 51  1  0
 24 25  1  0
 24 52  1  0
 25 26  2  0
 25 28  1  0
 26 27  1  0
 26 53  1  0
 27 54  1  0
 28 55  1  1
 28 56  1  0
 28 57  1  0
M  CHG  2   7   1  16   1
M  END
>  <s_epik_cmdline>  (360) 
J2VwaWtfcHl0aG9uJywgJy1waCcsICc3LjAwMDAwMCcsICctcGh0JywgJzIuMDAwMDAwJywgJy1tcycsICcxNicsICctdG4nLCAnOCcsICctbWEnLCAnMjAwJywgJy1pbWFlJywgJzxpbmZpbGUubWFlPicsICctb21hZScsICc8b3V0ZmlsZS5tYWU+Jw==

>  <s_epik_input>  (360) 
W2NIXTFbY0hdYyhbQ0gzXSlbY0hdW2NIXWMxT1tDSDJdYzJzW2NIXWMobjIpW0NIMl1OKFtDSDNdKVtDSDJdYzNbY0hdW2NIXWMoW2NIXVtjSF0zKVtDSDJdTihbQ0gzXSlbQ0gzXQ==

>  <s_i_glide_gridfile>  (360) 
ATP-Grid

>  <s_lp_Force_Field>  (360) 
OPLS_2005

>  <s_lp_Variant>  (360) 
m_2230bbc____7912878____804490-1

>  <s_lp_label>  (360) 
1216_sdstereoexpander_1_neutralizer_1_epik_1_stereoizer_1

>  <s_m_source_file>  (360) 
ATP-VSW-LIGPREP-001-in.maegz

>  <s_sd_BIOSOLVEIT.INFINISEE\_QUERY\_NAME>  (360) 
Ref-Lig

>  <s_sd_BIOSOLVEIT.INFINISEE\_QUERY\_SMILES>  (360) 
S(c1nc2c(cc1C[NH2+]Cc3ccc(cc3)C[NH+](C)C)cccc2)Cc4ccccc4

>  <s_sd_BIOSOLVEIT.INFINISEE\_REACTION\_NAME>  (360) 
m_2230bbc

>  <s_sd_BIOSOLVEIT.INFINISEE\_REAGENT1\_SMILES>  (360) 
[R1*]N(Cc1ccc(cc1)CN(C)C)C

>  <s_sd_BIOSOLVEIT.INFINISEE\_REAGENT2\_SMILES>  (360) 
[R1*]CC=1N=C(SC1)COc2ccc(cc2)C

>  <s_sd_BIOSOLVEIT.INFINISEE\_SPACE>  (360) 
REALSpace_44bn_2023-08

>  <s_vsw_compound_code>  (360) 
38881

>  <s_vsw_variant>  (360) 
38881-1

>  <r_epik_Charging_Adjusted_Penalty>  (360) 
0.77751334433939101

>  <r_epik_Ionization_Penalty>  (360) 
0.39050000000000001

>  <r_epik_Ionization_Penalty_Charging>  (360) 
0.39050000000000001

>  <r_epik_Ionization_Penalty_Neutral>  (360) 
0

>  <r_epik_State_Penalty>  (360) 
0.3871

>  <r_i_docking_score>  (360) 
-5.5567998286900302

>  <r_i_glide_ecoul>  (360) 
-16.067302703857401

>  <r_i_glide_eff_state_penalty>  (360) 
0.3871

>  <r_i_glide_einternal>  (360) 
3.1255638599395801

>  <r_i_glide_emodel>  (360) 
-67.015328383644501

>  <r_i_glide_energy>  (360) 
-42.099718093872099

>  <r_i_glide_erotb>  (360) 
0.99077050093686503

>  <r_i_glide_esite>  (360) 
-0.12638188112653201

>  <r_i_glide_evdw>  (360) 
-26.032415390014599

>  <r_i_glide_gscore>  (360) 
-5.9438998286900304

>  <r_i_glide_hbond>  (360) 
-0.16218693545254101

>  <r_i_glide_ligand_efficiency>  (360) 
-0.19845713673893001

>  <r_i_glide_ligand_efficiency_ln>  (360) 
-1.28267255519415

>  <r_i_glide_ligand_efficiency_sa>  (360) 
-0.602632752142089

>  <r_i_glide_lipo>  (360) 
-1.78605174705939

>  <r_i_glide_metal>  (360) 
-0

>  <r_i_glide_rewards>  (360) 
-1.1483335909090899

>  <r_lp_Energy>  (360) 
17.478097000000002

>  <r_lp_tautomer_probability>  (360) 
1

>  <r_qp_ACxDN^.5/SA>  (360) 
0

>  <r_qp_CIQPlogS>  (360) 
-3.4969999999999999

>  <r_qp_EA(eV)>  (360) 
0.57299999999999995

>  <r_qp_FISA>  (360) 
12.339

>  <r_qp_FOSA>  (360) 
387.839

>  <r_qp_IP(eV)>  (360) 
8.8949999999999996

>  <r_qp_Jm>  (360) 
0.137723233925413

>  <r_qp_PISA>  (360) 
267.565

>  <r_qp_PSA>  (360) 
28.059999999999999

>  <r_qp_PercentHumanOralAbsorption>  (360) 
100

>  <r_qp_QPPCaco>  (360) 
470.64299999999997

>  <r_qp_QPPMDCK>  (360) 
391.28399999999999

>  <r_qp_QPlogBB>  (360) 
0.77300000000000002

>  <r_qp_QPlogHERG>  (360) 
-6.9930000000000003

>  <r_qp_QPlogKhsa>  (360) 
0.375

>  <r_qp_QPlogKp>  (360) 
-4.0650000000000004

>  <r_qp_QPlogPC16>  (360) 
12.58

>  <r_qp_QPlogPo/w>  (360) 
4.1050000000000004

>  <r_qp_QPlogPoct>  (360) 
17.204000000000001

>  <r_qp_QPlogPw>  (360) 
7.4829999999999997

>  <r_qp_QPlogS>  (360) 
-2.3929999999999998

>  <r_qp_QPpolrz>  (360) 
43.165999999999997

>  <r_qp_SASA>  (360) 
697.71100000000001

>  <r_qp_SAamideO>  (360) 
0

>  <r_qp_SAfluorine>  (360) 
0

>  <r_qp_WPSA>  (360) 
29.968

>  <r_qp_accptHB>  (360) 
6.25

>  <r_qp_dip^2/V>  (360) 
0.0012930000000000001

>  <r_qp_dipole>  (360) 
1.3029999999999999

>  <r_qp_donorHB>  (360) 
0

>  <r_qp_glob>  (360) 
0.8311016

>  <r_qp_mol_MW>  (360) 
395.56200000000001

>  <r_qp_volume>  (360) 
1312.9449999999999

>  <r_sd_BIOSOLVEIT.INFINISEE\_FTREES\_SIMILARITY>  (360) 
0.91100000000000003

>  <r_sd_BIOSOLVEIT.LOGP>  (360) 
1.88992

>  <r_sd_BIOSOLVEIT.MOLECULAR\_WEIGHT>  (360) 
397.58300000000003

>  <i_epik_Tot_Q>  (360) 
2

>  <i_epik_Tot_abs_Q>  (360) 
2

>  <i_f3d_flags>  (360) 
0

>  <i_i_glide_confnum>  (360) 
10

>  <i_i_glide_lignum>  (360) 
323

>  <i_i_glide_posenum>  (360) 
3

>  <i_i_glide_rotatable_bonds>  (360) 
9

>  <i_lp_mmshare_version>  (360) 
65135

>  <i_m_ct_format>  (360) 
2

>  <i_m_source_file_index>  (360) 
1216

>  <i_qp_#NandO>  (360) 
4

>  <i_qp_#acid>  (360) 
0

>  <i_qp_#amide>  (360) 
0

>  <i_qp_#amidine>  (360) 
0

>  <i_qp_#amine>  (360) 
2

>  <i_qp_#in34>  (360) 
0

>  <i_qp_#in56>  (360) 
17

>  <i_qp_#metab>  (360) 
9

>  <i_qp_#nonHatm>  (360) 
28

>  <i_qp_#noncon>  (360) 
0

>  <i_qp_#ringatoms>  (360) 
17

>  <i_qp_#rotor>  (360) 
9

>  <i_qp_#rtvFG>  (360) 
0

>  <i_qp_#stars>  (360) 
1

>  <i_qp_CNS>  (360) 
2

>  <i_qp_HumanOralAbsorption>  (360) 
3

>  <i_qp_RuleOfFive>  (360) 
0

>  <i_qp_RuleOfThree>  (360) 
1

>  <i_sd_BIOSOLVEIT.INFINISEE\_REAGENT1\_NAME>  (360) 
7912878

>  <i_sd_BIOSOLVEIT.INFINISEE\_REAGENT2\_NAME>  (360) 
804490

>  <i_sd_BIOSOLVEIT.INFINISEE\_RESULT\_RANK>  (360) 
41266

>  <i_sd_BIOSOLVEIT.TPSA>  (360) 
31

>  <i_sd_version>  (360) 
0

>  <b_lp_Chiralities_Consistent>  (360) 
1

>  <b_sd_chiral_flag>  (360) 
0

>  <canonical_id>  (360) 
ATP-HTVS-3B2E01AF7BF8

>  <compound_code>  (360) 
38881

>  <title>  (360) 
m_2230bbc____7912878____804490

>  <variant>  (360) 
38881-1

>  <source_file>  (360) 
运行/运行/ATP-VSW/ATP-VSW-DOCK_HTVS_1-001_lib/ATP-VSW-DOCK_HTVS_1-001_lib

>  <canonical_smiles>  (360) 
Cc1ccc(OCc2nc(C[N@H+](C)Cc3ccc(C[NH+](C)C)cc3)cs2)cc1

>  <scaffold>  (360) 
c1ccc(C[NH2+]Cc2csc(COc3ccccc3)n2)cc1

>  <molecular_formula>  (360) 
C23H31N3OS+2

$$$$
ATP-HTVS-3B360A484FEF
     RDKit          3D

 64 67  0  0  0  0  0  0  0  0999 V2000
  200.6832  177.4474  158.0837 Cl  0  0  0  0  0  0  0  0  0  0  0  0
  200.8470  177.5220  156.3616 C   0  0  0  0  0  0  0  0  0  0  0  0
  201.0374  178.7382  155.6386 C   0  0  0  0  0  0  0  0  0  0  0  0
  200.9224  178.7089  154.2188 C   0  0  0  0  0  0  0  0  0  0  0  0
  200.7016  177.5028  153.5334 C   0  0  0  0  0  0  0  0  0  0  0  0
  200.6349  176.2897  154.2492 C   0  0  0  0  0  0  0  0  0  0  0  0
  200.7185  176.3141  155.6574 C   0  0  0  0  0  0  0  0  0  0  0  0
  201.2583  180.0938  156.3105 C   0  0  2  0  0  0  0  0  0  0  0  0
  202.6072  180.2469  156.9537 N   0  0  2  0  0  0  0  0  0  0  0  0
  202.7055  179.8958  158.3871 C   0  0  2  0  0  0  0  0  0  0  0  0
  203.2525  181.5647  156.6656 C   0  0  2  0  0  0  0  0  0  0  0  0
  200.0759  180.4782  157.2118 C   0  0  1  0  0  0  0  0  0  0  0  0
  198.8145  180.4618  156.5156 N   0  0  0  0  0  0  0  0  0  0  0  0
  198.4381  181.5291  155.6720 C   0  0  0  0  0  0  0  0  0  0  0  0
  197.6922  181.2998  154.4771 C   0  0  0  0  0  0  0  0  0  0  0  0
  197.5439  182.5471  153.8073 C   0  0  0  0  0  0  0  0  0  0  0  0
  198.1615  183.4857  154.6229 N   0  0  0  0  0  0  0  0  0  0  0  0
  198.6561  182.8920  155.7722 C   0  0  0  0  0  0  0  0  0  0  0  0
  199.3048  183.7508  156.7944 C   0  0  0  0  0  0  0  0  0  0  0  0
  200.3070  184.3841  156.4522 O   0  0  0  0  0  0  0  0  0  0  0  0
  198.7762  183.8542  158.0444 N   0  0  0  0  0  0  0  0  0  0  0  0
  197.3851  183.6272  158.3246 C   0  0  0  0  0  0  0  0  0  0  0  0
  196.8683  182.3077  158.2940 C   0  0  0  0  0  0  0  0  0  0  0  0
  195.4920  182.0945  158.5080 C   0  0  0  0  0  0  0  0  0  0  0  0
  194.6275  183.1556  158.8332 C   0  0  0  0  0  0  0  0  0  0  0  0
  195.1560  184.4620  158.9407 C   0  0  0  0  0  0  0  0  0  0  0  0
  196.5313  184.7122  158.6790 C   0  0  0  0  0  0  0  0  0  0  0  0
  199.6207  184.3088  159.1696 C   0  0  2  0  0  0  0  0  0  0  0  0
  200.1196  185.6894  159.0200 C   0  0  0  0  0  0  0  0  0  0  0  0
  200.5113  186.7715  158.9062 N   0  0  0  0  0  0  0  0  0  0  0  0
  200.7844  183.3300  159.4546 C   0  0  2  0  0  0  0  0  0  0  0  0
  196.8899  182.6391  152.5717 C   0  0  0  0  0  0  0  0  0  0  0  0
  196.3531  181.4757  151.9876 C   0  0  0  0  0  0  0  0  0  0  0  0
  196.4683  180.2309  152.6464 C   0  0  0  0  0  0  0  0  0  0  0  0
  197.1334  180.1504  153.8805 C   0  0  0  0  0  0  0  0  0  0  0  0
  200.9503  179.6317  153.6507 H   0  0  0  0  0  0  0  0  0  0  0  0
  200.5799  177.4984  152.4570 H   0  0  0  0  0  0  0  0  0  0  0  0
  200.4678  175.3545  153.7368 H   0  0  0  0  0  0  0  0  0  0  0  0
  200.6414  175.3891  156.2042 H   0  0  0  0  0  0  0  0  0  0  0  0
  201.2153  180.8285  155.5095 H   0  0  0  0  0  0  0  0  0  0  0  0
  202.0214  180.5293  158.9725 H   0  0  0  0  0  0  0  0  0  0  0  0
  203.7062  180.1534  158.7792 H   0  0  0  0  0  0  0  0  0  0  0  0
  202.4704  178.8725  158.4549 H   0  0  0  0  0  0  0  0  0  0  0  0
  202.6670  182.3708  157.1011 H   0  0  0  0  0  0  0  0  0  0  0  0
  203.3684  181.7603  155.5953 H   0  0  0  0  0  0  0  0  0  0  0  0
  204.2428  181.5859  157.1255 H   0  0  0  0  0  0  0  0  0  0  0  0
  199.9814  179.7706  158.0229 H   0  0  0  0  0  0  0  0  0  0  0  0
  200.2330  181.4482  157.6466 H   0  0  0  0  0  0  0  0  0  0  0  0
  198.3389  179.5765  156.4304 H   0  0  0  0  0  0  0  0  0  0  0  0
  198.2521  184.4762  154.4311 H   0  0  0  0  0  0  0  0  0  0  0  0
  197.4937  181.4579  158.1125 H   0  0  0  0  0  0  0  0  0  0  0  0
  195.1127  181.0894  158.4190 H   0  0  0  0  0  0  0  0  0  0  0  0
  193.5748  182.9507  158.9970 H   0  0  0  0  0  0  0  0  0  0  0  0
  194.4872  185.2715  159.2054 H   0  0  0  0  0  0  0  0  0  0  0  0
  196.9066  185.7284  158.7419 H   0  0  0  0  0  0  0  0  0  0  0  0
  199.0011  184.3200  160.0625 H   0  0  0  0  0  0  0  0  0  0  0  0
  201.3251  183.5851  160.3680 H   0  0  0  0  0  0  0  0  0  0  0  0
  201.5065  183.3447  158.6405 H   0  0  0  0  0  0  0  0  0  0  0  0
  200.4138  182.3148  159.5821 H   0  0  0  0  0  0  0  0  0  0  0  0
  196.8004  183.6004  152.0859 H   0  0  0  0  0  0  0  0  0  0  0  0
  195.8419  181.5385  151.0451 H   0  0  0  0  0  0  0  0  0  0  0  0
  196.0466  179.3390  152.2064 H   0  0  0  0  0  0  0  0  0  0  0  0
  197.2258  179.1990  154.3902 H   0  0  0  0  0  0  0  0  0  0  0  0
  203.1779  179.5638  156.4795 H   0  0  0  0  0  0  0  0  0  0  0  0
  1  2  1  0
  2  3  1  0
  2  7  2  0
  3  4  2  0
  3  8  1  0
  4  5  1  0
  4 36  1  0
  5  6  2  0
  5 37  1  0
  6  7  1  0
  6 38  1  0
  7 39  1  0
  8  9  1  0
  8 12  1  0
  8 40  1  6
  9 10  1  0
  9 11  1  0
  9 64  1  6
 10 41  1  1
 10 42  1  0
 10 43  1  0
 11 44  1  1
 11 45  1  0
 11 46  1  0
 12 13  1  0
 12 47  1  1
 12 48  1  0
 13 14  1  0
 13 49  1  0
 14 15  1  0
 14 18  2  0
 15 16  1  0
 15 35  2  0
 16 17  1  0
 16 32  2  0
 17 18  1  0
 17 50  1  0
 18 19  1  0
 19 20  2  0
 19 21  1  0
 21 22  1  0
 21 28  1  0
 22 23  2  0
 22 27  1  0
 23 24  1  0
 23 51  1  0
 24 25  2  0
 24 52  1  0
 25 26  1  0
 25 53  1  0
 26 27  2  0
 26 54  1  0
 27 55  1  0
 28 29  1  0
 28 31  1  0
 28 56  1  1
 29 30  3  0
 31 57  1  1
 31 58  1  0
 31 59  1  0
 32 33  1  0
 32 60  1  0
 33 34  2  0
 33 61  1  0
 34 35  1  0
 34 62  1  0
 35 63  1  0
M  CHG  1   9   1
M  END
>  <s_epik_cmdline>  (361) 
J2VwaWtfcHl0aG9uJywgJy1waCcsICc3LjAwMDAwMCcsICctcGh0JywgJzIuMDAwMDAwJywgJy1tcycsICcxNicsICctdG4nLCAnOCcsICctbWEnLCAnMjAwJywgJy1pbWFlJywgJzxpbmZpbGUubWFlPicsICctb21hZScsICc8b3V0ZmlsZS5tYWU+Jw==

>  <s_epik_input>  (361) 
W2NIXTFbY0hdW2NIXVtjSF1jKGMxQ2wpW0NASF0oTihbQ0gzXSlbQ0gzXSlbQ0gyXVtOSF1jMmMoW25IXWMoYzIzKVtjSF1bY0hdW2NIXVtjSF0zKUMoPU8pTihbQ0BIXShDI04pW0NIM10pYzRbY0hdW2NIXVtjSF1bY0hdW2NIXTQ=

>  <s_i_glide_gridfile>  (361) 
ATP-Grid

>  <s_lp_Force_Field>  (361) 
OPLS_2005

>  <s_lp_Variant>  (361) 
rxn512b____EMOL36790511____EMOL719673____EMOL932560-4

>  <s_lp_label>  (361) 
2672_sdstereoexpander_4_neutralizer_1_epik_1_stereoizer_1

>  <s_m_source_file>  (361) 
ATP-VSW-LIGPREP-002-in.maegz

>  <s_sd_BIOSOLVEIT.INFINISEE\_QUERY\_NAME>  (361) 
Ref-Lig

>  <s_sd_BIOSOLVEIT.INFINISEE\_QUERY\_SMILES>  (361) 
S(c1nc2c(cc1C[NH2+]Cc3ccc(cc3)C[NH+](C)C)cccc2)Cc4ccccc4

>  <s_sd_BIOSOLVEIT.INFINISEE\_REACTION\_NAME>  (361) 
rxn512b

>  <s_sd_BIOSOLVEIT.INFINISEE\_REAGENT1\_NAME>  (361) 
EMOL36790511

>  <s_sd_BIOSOLVEIT.INFINISEE\_REAGENT1\_SMILES>  (361) 
N#CC(Nc1ccccc1)C

>  <s_sd_BIOSOLVEIT.INFINISEE\_REAGENT2\_NAME>  (361) 
EMOL719673

>  <s_sd_BIOSOLVEIT.INFINISEE\_REAGENT2\_SMILES>  (361) 
BrC=1c2c(NC1C(=O)O)cccc2

>  <s_sd_BIOSOLVEIT.INFINISEE\_REAGENT3\_NAME>  (361) 
EMOL932560

>  <s_sd_BIOSOLVEIT.INFINISEE\_REAGENT3\_SMILES>  (361) 
Clc1c(cccc1)C(N(C)C)CN

>  <s_sd_BIOSOLVEIT.INFINISEE\_SPACE>  (361) 
eXplore_7tr_2022-12

>  <s_vsw_compound_code>  (361) 
85474

>  <s_vsw_variant>  (361) 
85474-4

>  <r_epik_Charging_Adjusted_Penalty>  (361) 
0.14021554942594799

>  <r_epik_Ionization_Penalty>  (361) 
0.070199999999999999

>  <r_epik_Ionization_Penalty_Charging>  (361) 
0.070099999999999996

>  <r_epik_Ionization_Penalty_Neutral>  (361) 
0.0001

>  <r_epik_State_Penalty>  (361) 
0.070099999999999996

>  <r_i_docking_score>  (361) 
-3.6013306121809099

>  <r_i_glide_ecoul>  (361) 
-5.0463929176330602

>  <r_i_glide_eff_state_penalty>  (361) 
0.070099999999999996

>  <r_i_glide_einternal>  (361) 
10.818876266479499

>  <r_i_glide_emodel>  (361) 
-47.681479468463003

>  <r_i_glide_energy>  (361) 
-41.9402756690979

>  <r_i_glide_erotb>  (361) 
0.51419168296608098

>  <r_i_glide_esite>  (361) 
-0.0824299883365575

>  <r_i_glide_evdw>  (361) 
-36.893882751464801

>  <r_i_glide_gscore>  (361) 
-3.6714306121809099

>  <r_i_glide_hbond>  (361) 
0

>  <r_i_glide_ligand_efficiency>  (361) 
-0.102895160348026

>  <r_i_glide_ligand_efficiency_ln>  (361) 
-0.79057199660028199

>  <r_i_glide_ligand_efficiency_sa>  (361) 
-0.33657689209699798

>  <r_i_glide_lipo>  (361) 
-1.09745498801555

>  <r_i_glide_metal>  (361) 
-0

>  <r_i_glide_rewards>  (361) 
-0.40408424357668299

>  <r_lp_Energy>  (361) 
42.880366000000002

>  <r_qp_ACxDN^.5/SA>  (361) 
0.0090059000000000007

>  <r_qp_CIQPlogS>  (361) 
-6.6639999999999997

>  <r_qp_EA(eV)>  (361) 
0.312

>  <r_qp_FISA>  (361) 
82.326999999999998

>  <r_qp_FOSA>  (361) 
208.66900000000001

>  <r_qp_IP(eV)>  (361) 
7.6619999999999999

>  <r_qp_Jm>  (361) 
0.000292691279366485

>  <r_qp_PISA>  (361) 
385.79500000000002

>  <r_qp_PSA>  (361) 
76.596000000000004

>  <r_qp_PercentHumanOralAbsorption>  (361) 
89.491

>  <r_qp_QPPCaco>  (361) 
102.092

>  <r_qp_QPPMDCK>  (361) 
90.622

>  <r_qp_QPlogBB>  (361) 
0.16800000000000001

>  <r_qp_QPlogHERG>  (361) 
-7.2599999999999998

>  <r_qp_QPlogKhsa>  (361) 
0.84699999999999998

>  <r_qp_QPlogKp>  (361) 
-4.9390000000000001

>  <r_qp_QPlogPC16>  (361) 
15.218999999999999

>  <r_qp_QPlogPo/w>  (361) 
4.5410000000000004

>  <r_qp_QPlogPoct>  (361) 
22.024999999999999

>  <r_qp_QPlogPw>  (361) 
10.538

>  <r_qp_QPlogS>  (361) 
-4.2809999999999997

>  <r_qp_QPpolrz>  (361) 
48.875999999999998

>  <r_qp_SASA>  (361) 
721.75

>  <r_qp_SAamideO>  (361) 
0

>  <r_qp_SAfluorine>  (361) 
0

>  <r_qp_WPSA>  (361) 
44.959000000000003

>  <r_qp_accptHB>  (361) 
6.5

>  <r_qp_dip^2/V>  (361) 
0.037110200000000003

>  <r_qp_dipole>  (361) 
7.2779999999999996

>  <r_qp_donorHB>  (361) 
1

>  <r_qp_glob>  (361) 
0.84945879999999996

>  <r_qp_mol_MW>  (361) 
486.01499999999999

>  <r_qp_volume>  (361) 
1427.403

>  <r_sd_BIOSOLVEIT.INFINISEE\_FTREES\_SIMILARITY>  (361) 
0.90900000000000003

>  <r_sd_BIOSOLVEIT.LOGP>  (361) 
4.67788

>  <r_sd_BIOSOLVEIT.MOLECULAR\_WEIGHT>  (361) 
487.024

>  <r_sd_BIOSOLVEIT.TPSA>  (361) 
76.359999999999999

>  <i_epik_Tot_Q>  (361) 
1

>  <i_epik_Tot_abs_Q>  (361) 
1

>  <i_f3d_flags>  (361) 
0

>  <i_i_glide_confnum>  (361) 
1

>  <i_i_glide_lignum>  (361) 
1292

>  <i_i_glide_posenum>  (361) 
1

>  <i_i_glide_rotatable_bonds>  (361) 
9

>  <i_lp_mmshare_version>  (361) 
65135

>  <i_m_ct_format>  (361) 
2

>  <i_m_source_file_index>  (361) 
2672

>  <i_qp_#NandO>  (361) 
6

>  <i_qp_#acid>  (361) 
0

>  <i_qp_#amide>  (361) 
0

>  <i_qp_#amidine>  (361) 
0

>  <i_qp_#amine>  (361) 
2

>  <i_qp_#in34>  (361) 
0

>  <i_qp_#in56>  (361) 
21

>  <i_qp_#metab>  (361) 
7

>  <i_qp_#nonHatm>  (361) 
35

>  <i_qp_#noncon>  (361) 
0

>  <i_qp_#ringatoms>  (361) 
21

>  <i_qp_#rotor>  (361) 
9

>  <i_qp_#rtvFG>  (361) 
0

>  <i_qp_#stars>  (361) 
1

>  <i_qp_CNS>  (361) 
1

>  <i_qp_HumanOralAbsorption>  (361) 
3

>  <i_qp_RuleOfFive>  (361) 
0

>  <i_qp_RuleOfThree>  (361) 
1

>  <i_sd_BIOSOLVEIT.INFINISEE\_RESULT\_RANK>  (361) 
49252

>  <i_sd_version>  (361) 
0

>  <b_lp_Chiralities_Consistent>  (361) 
1

>  <b_sd_chiral_flag>  (361) 
0

>  <canonical_id>  (361) 
ATP-HTVS-3B360A484FEF

>  <compound_code>  (361) 
85474

>  <title>  (361) 
rxn512b____EMOL36790511____EMOL719673____EMOL932560

>  <variant>  (361) 
85474-4

>  <source_file>  (361) 
运行/运行/ATP-VSW/ATP-VSW-DOCK_HTVS_1-002_lib.maegz

>  <canonical_smiles>  (361) 
C[C@@H](C#N)N(C(=O)c1[nH]c2ccccc2c1NC[C@H](c1ccccc1Cl)[NH+](C)C)c1ccccc1

>  <scaffold>  (361) 
O=C(Nc1ccccc1)c1[nH]c2ccccc2c1NCCc1ccccc1

>  <molecular_formula>  (361) 
C28H29ClN5O+

$$$$
ATP-HTVS-3B3954EE8C13
     RDKit          3D

 54 57  0  0  0  0  0  0  0  0999 V2000
  204.8174  180.4252  160.7350 F   0  0  0  0  0  0  0  0  0  0  0  0
  203.7612  181.0353  160.1488 C   0  0  0  0  0  0  0  0  0  0  0  0
  203.3596  180.6564  158.8546 C   0  0  0  0  0  0  0  0  0  0  0  0
  202.2597  181.2920  158.2478 C   0  0  0  0  0  0  0  0  0  0  0  0
  201.8418  180.8881  156.9187 C   0  0  0  0  0  0  0  0  0  0  0  0
  201.4594  180.5716  155.8069 C   0  0  0  0  0  0  0  0  0  0  0  0
  200.9300  180.2917  154.4958 C   0  0  0  0  0  0  0  0  0  0  0  0
  201.4181  180.8027  153.4891 O   0  0  0  0  0  0  0  0  0  0  0  0
  199.8873  179.4461  154.5025 N   0  0  0  0  0  0  0  0  0  0  0  0
  198.9498  179.3062  153.4413 C   0  0  0  0  0  0  0  0  0  0  0  0
  197.6212  179.7817  153.5950 C   0  0  0  0  0  0  0  0  0  0  0  0
  197.1719  180.4532  154.8051 C   0  0  0  0  0  0  0  0  0  0  0  0
  196.8472  181.0604  155.8200 C   0  0  0  0  0  0  0  0  0  0  0  0
  196.4887  181.7987  157.0387 C   0  0  2  0  0  0  0  0  0  0  0  0
  195.0990  181.4533  157.2979 N   0  0  2  0  0  0  0  0  0  0  0  0
  196.6408  183.3204  156.9296 C   0  0  1  0  0  0  0  0  0  0  0  0
  196.0819  184.1017  158.1274 C   0  0  0  0  0  0  0  0  0  0  0  0
  196.8976  185.0713  158.7570 C   0  0  0  0  0  0  0  0  0  0  0  0
  196.4077  185.7999  159.8690 C   0  0  0  0  0  0  0  0  0  0  0  0
  197.1615  186.7680  160.4401 F   0  0  0  0  0  0  0  0  0  0  0  0
  195.1233  185.5291  160.3871 C   0  0  0  0  0  0  0  0  0  0  0  0
  194.3178  184.5560  159.7611 C   0  0  0  0  0  0  0  0  0  0  0  0
  194.7768  183.8744  158.6314 C   0  0  0  0  0  0  0  0  0  0  0  0
  196.7294  179.6224  152.5157 C   0  0  0  0  0  0  0  0  0  0  0  0
  197.0707  179.0536  151.3444 N   0  0  0  0  0  0  0  0  0  0  0  0
  198.3347  178.6081  151.1783 C   0  0  0  0  0  0  0  0  0  0  0  0
  199.3146  178.7092  152.2064 C   0  0  0  0  0  0  0  0  0  0  0  0
  200.6201  178.2120  151.9785 C   0  0  0  0  0  0  0  0  0  0  0  0
  200.9680  177.6449  150.7421 C   0  0  0  0  0  0  0  0  0  0  0  0
  200.0067  177.5507  149.7223 C   0  0  0  0  0  0  0  0  0  0  0  0
  198.6990  178.0221  149.9470 C   0  0  0  0  0  0  0  0  0  0  0  0
  201.5597  182.3064  158.9344 C   0  0  0  0  0  0  0  0  0  0  0  0
  201.9626  182.6821  160.2313 C   0  0  0  0  0  0  0  0  0  0  0  0
  203.0635  182.0466  160.8369 C   0  0  0  0  0  0  0  0  0  0  0  0
  195.0817  180.4349  157.3471 H   0  0  0  0  0  0  0  0  0  0  0  0
  194.4890  181.7886  156.5418 H   0  0  0  0  0  0  0  0  0  0  0  0
  203.8964  179.8762  158.3327 H   0  0  0  0  0  0  0  0  0  0  0  0
  199.6306  179.0328  155.3841 H   0  0  0  0  0  0  0  0  0  0  0  0
  197.0924  181.3987  157.8500 H   0  0  0  0  0  0  0  0  0  0  0  0
  197.6990  183.5536  156.7937 H   0  0  0  0  0  0  0  0  0  0  0  0
  196.1404  183.6828  156.0398 H   0  0  0  0  0  0  0  0  0  0  0  0
  197.8886  185.3077  158.3718 H   0  0  0  0  0  0  0  0  0  0  0  0
  194.7332  186.0721  161.2443 H   0  0  0  0  0  0  0  0  0  0  0  0
  193.3226  184.3378  160.1301 H   0  0  0  0  0  0  0  0  0  0  0  0
  194.0575  183.2191  158.1666 H   0  0  0  0  0  0  0  0  0  0  0  0
  195.7099  179.9721  152.5860 H   0  0  0  0  0  0  0  0  0  0  0  0
  201.3844  178.2673  152.7388 H   0  0  0  0  0  0  0  0  0  0  0  0
  201.9789  177.2966  150.5783 H   0  0  0  0  0  0  0  0  0  0  0  0
  200.2744  177.1159  148.7701 H   0  0  0  0  0  0  0  0  0  0  0  0
  197.9654  177.9437  149.1566 H   0  0  0  0  0  0  0  0  0  0  0  0
  200.7134  182.7971  158.4748 H   0  0  0  0  0  0  0  0  0  0  0  0
  201.4288  183.4565  160.7625 H   0  0  0  0  0  0  0  0  0  0  0  0
  203.3735  182.3318  161.8310 H   0  0  0  0  0  0  0  0  0  0  0  0
  194.8054  181.8572  158.1838 H   0  0  0  0  0  0  0  0  0  0  0  0
  1  2  1  0
  2  3  2  0
  2 34  1  0
  3  4  1  0
  3 37  1  0
  4  5  1  0
  4 32  2  0
  5  6  3  0
  6  7  1  0
  7  8  2  0
  7  9  1  0
  9 10  1  0
  9 38  1  0
 10 11  2  0
 10 27  1  0
 11 12  1  0
 11 24  1  0
 12 13  3  0
 13 14  1  0
 14 15  1  0
 14 16  1  0
 14 39  1  1
 15 35  1  1
 15 36  1  0
 15 54  1  0
 16 17  1  0
 16 40  1  6
 16 41  1  0
 17 18  1  0
 17 23  2  0
 18 19  2  0
 18 42  1  0
 19 20  1  0
 19 21  1  0
 21 22  2  0
 21 43  1  0
 22 23  1  0
 22 44  1  0
 23 45  1  0
 24 25  2  0
 24 46  1  0
 25 26  1  0
 26 27  1  0
 26 31  2  0
 27 28  2  0
 28 29  1  0
 28 47  1  0
 29 30  2  0
 29 48  1  0
 30 31  1  0
 30 49  1  0
 31 50  1  0
 32 33  1  0
 32 51  1  0
 33 34  2  0
 33 52  1  0
 34 53  1  0
M  CHG  1  15   1
M  END
>  <s_epik_cmdline>  (362) 
J2VwaWtfcHl0aG9uJywgJy1waCcsICc3LjAwMDAwMCcsICctcGh0JywgJzIuMDAwMDAwJywgJy1tcycsICcxNicsICctdG4nLCAnOCcsICctbWEnLCAnMjAwJywgJy1pbWFlJywgJzxpbmZpbGUubWFlPicsICctb21hZScsICc8b3V0ZmlsZS5tYWU+Jw==

>  <s_epik_input>  (362) 
RmMxW2NIXWMoW2NIXVtjSF1bY0hdMSlDI0NDKD1PKVtOSF1jKGMoYzIzKVtjSF1bY0hdW2NIXVtjSF0zKWMoW2NIXW4yKUMjQ1tDQEhdKFtOSDJdKVtDSDJdYzRbY0hdYyhGKVtjSF1bY0hdW2NIXTQ=

>  <s_i_glide_gridfile>  (362) 
ATP-Grid

>  <s_lp_Force_Field>  (362) 
OPLS_2005

>  <s_lp_Variant>  (362) 
rxn503b____EMOL32279559____EMOL13728749____EMOL313110234-3

>  <s_lp_label>  (362) 
2654_sdstereoexpander_1_neutralizer_1_epik_2_stereoizer_1

>  <s_m_source_file>  (362) 
ATP-VSW-LIGPREP-001-in.maegz

>  <s_sd_BIOSOLVEIT.INFINISEE\_QUERY\_NAME>  (362) 
Ref-Lig

>  <s_sd_BIOSOLVEIT.INFINISEE\_QUERY\_SMILES>  (362) 
S(c1nc2c(cc1C[NH2+]Cc3ccc(cc3)C[NH+](C)C)cccc2)Cc4ccccc4

>  <s_sd_BIOSOLVEIT.INFINISEE\_REACTION\_NAME>  (362) 
rxn503b

>  <s_sd_BIOSOLVEIT.INFINISEE\_REAGENT1\_NAME>  (362) 
EMOL32279559

>  <s_sd_BIOSOLVEIT.INFINISEE\_REAGENT1\_SMILES>  (362) 
Fc1cc(C#CC(=O)O)ccc1

>  <s_sd_BIOSOLVEIT.INFINISEE\_REAGENT2\_NAME>  (362) 
EMOL13728749

>  <s_sd_BIOSOLVEIT.INFINISEE\_REAGENT2\_SMILES>  (362) 
Brc1c(N)c2c(nc1)cccc2

>  <s_sd_BIOSOLVEIT.INFINISEE\_REAGENT3\_NAME>  (362) 
EMOL313110234

>  <s_sd_BIOSOLVEIT.INFINISEE\_REAGENT3\_SMILES>  (362) 
Fc1cc(ccc1)CC(N)C#C

>  <s_sd_BIOSOLVEIT.INFINISEE\_SPACE>  (362) 
eXplore_7tr_2022-12

>  <s_vsw_compound_code>  (362) 
84897

>  <s_vsw_variant>  (362) 
84897-3

>  <r_epik_Charging_Adjusted_Penalty>  (362) 
1.22591159016581

>  <r_epik_Ionization_Penalty>  (362) 
0.61350000000000005

>  <r_epik_Ionization_Penalty_Charging>  (362) 
0.61299999999999999

>  <r_epik_Ionization_Penalty_Neutral>  (362) 
0.00059999999999999995

>  <r_epik_State_Penalty>  (362) 
0.61299999999999999

>  <r_i_docking_score>  (362) 
-6.32225078624524

>  <r_i_glide_ecoul>  (362) 
-16.886165618896499

>  <r_i_glide_eff_state_penalty>  (362) 
0.61299999999999999

>  <r_i_glide_einternal>  (362) 
5.7785072326660201

>  <r_i_glide_emodel>  (362) 
-74.573917103221106

>  <r_i_glide_energy>  (362) 
-47.807611465454102

>  <r_i_glide_erotb>  (362) 
0.58804509089820101

>  <r_i_glide_esite>  (362) 
-0.106434340225723

>  <r_i_glide_evdw>  (362) 
-30.921445846557599

>  <r_i_glide_gscore>  (362) 
-6.9352507862452404

>  <r_i_glide_hbond>  (362) 
-0.38375486728048502

>  <r_i_glide_ligand_efficiency>  (362) 
-0.18594855253662501

>  <r_i_glide_ligand_efficiency_ln>  (362) 
-1.3967625318094501

>  <r_i_glide_ligand_efficiency_sa>  (362) 
-0.60240112452002104

>  <r_i_glide_lipo>  (362) 
-1.996579390575

>  <r_i_glide_metal>  (362) 
-0

>  <r_i_glide_rewards>  (362) 
-0.95753014389987601

>  <r_lp_Energy>  (362) 
25.858775999999999

>  <r_qp_ACxDN^.5/SA>  (362) 
0.0109747

>  <r_qp_CIQPlogS>  (362) 
-6.649

>  <r_qp_EA(eV)>  (362) 
1.2969999999999999

>  <r_qp_FISA>  (362) 
117.901

>  <r_qp_FOSA>  (362) 
52.253999999999998

>  <r_qp_IP(eV)>  (362) 
8.9459999999999997

>  <r_qp_Jm>  (362) 
0.0021891366506051799

>  <r_qp_PISA>  (362) 
471.50999999999999

>  <r_qp_PSA>  (362) 
77.251000000000005

>  <r_qp_PercentHumanOralAbsorption>  (362) 
96.518000000000001

>  <r_qp_QPPCaco>  (362) 
188.25299999999999

>  <r_qp_QPPMDCK>  (362) 
213.678

>  <r_qp_QPlogBB>  (362) 
-0.495

>  <r_qp_QPlogHERG>  (362) 
-7.2699999999999996

>  <r_qp_QPlogKhsa>  (362) 
0.89700000000000002

>  <r_qp_QPlogKp>  (362) 
-3.3260000000000001

>  <r_qp_QPlogPC16>  (362) 
15.068

>  <r_qp_QPlogPo/w>  (362) 
4.9290000000000003

>  <r_qp_QPlogPoct>  (362) 
23.760000000000002

>  <r_qp_QPlogPw>  (362) 
12.523

>  <r_qp_QPlogS>  (362) 
-4.9880000000000004

>  <r_qp_QPpolrz>  (362) 
46.994

>  <r_qp_SASA>  (362) 
710.202

>  <r_qp_SAamideO>  (362) 
0

>  <r_qp_SAfluorine>  (362) 
68.537000000000006

>  <r_qp_WPSA>  (362) 
68.537000000000006

>  <r_qp_accptHB>  (362) 
4.5

>  <r_qp_dip^2/V>  (362) 
0.053341600000000003

>  <r_qp_dipole>  (362) 
8.4670000000000005

>  <r_qp_donorHB>  (362) 
3

>  <r_qp_glob>  (362) 
0.82925300000000002

>  <r_qp_mol_MW>  (362) 
451.47399999999999

>  <r_qp_volume>  (362) 
1343.865

>  <r_sd_BIOSOLVEIT.INFINISEE\_FTREES\_SIMILARITY>  (362) 
0.91000000000000003

>  <r_sd_BIOSOLVEIT.LOGP>  (362) 
3.7079

>  <r_sd_BIOSOLVEIT.MOLECULAR\_WEIGHT>  (362) 
452.48200000000003

>  <r_sd_BIOSOLVEIT.TPSA>  (362) 
69.629999999999995

>  <i_epik_Tot_Q>  (362) 
1

>  <i_epik_Tot_abs_Q>  (362) 
1

>  <i_f3d_flags>  (362) 
0

>  <i_i_glide_confnum>  (362) 
3

>  <i_i_glide_lignum>  (362) 
1154

>  <i_i_glide_posenum>  (362) 
1

>  <i_i_glide_rotatable_bonds>  (362) 
8

>  <i_lp_mmshare_version>  (362) 
65135

>  <i_m_ct_format>  (362) 
2

>  <i_m_source_file_index>  (362) 
2654

>  <i_qp_#NandO>  (362) 
4

>  <i_qp_#acid>  (362) 
0

>  <i_qp_#amide>  (362) 
0

>  <i_qp_#amidine>  (362) 
0

>  <i_qp_#amine>  (362) 
1

>  <i_qp_#in34>  (362) 
0

>  <i_qp_#in56>  (362) 
22

>  <i_qp_#metab>  (362) 
5

>  <i_qp_#nonHatm>  (362) 
34

>  <i_qp_#noncon>  (362) 
0

>  <i_qp_#ringatoms>  (362) 
22

>  <i_qp_#rotor>  (362) 
8

>  <i_qp_#rtvFG>  (362) 
0

>  <i_qp_#stars>  (362) 
1

>  <i_qp_CNS>  (362) 
0

>  <i_qp_HumanOralAbsorption>  (362) 
3

>  <i_qp_RuleOfFive>  (362) 
0

>  <i_qp_RuleOfThree>  (362) 
0

>  <i_sd_BIOSOLVEIT.INFINISEE\_RESULT\_RANK>  (362) 
46944

>  <i_sd_version>  (362) 
0

>  <b_lp_Chiralities_Consistent>  (362) 
1

>  <b_sd_chiral_flag>  (362) 
0

>  <canonical_id>  (362) 
ATP-HTVS-3B3954EE8C13

>  <compound_code>  (362) 
84897

>  <title>  (362) 
rxn503b____EMOL32279559____EMOL13728749____EMOL313110234

>  <variant>  (362) 
84897-3

>  <source_file>  (362) 
运行/运行/ATP-VSW/ATP-VSW-DOCK_HTVS_1-001_lib/ATP-VSW-DOCK_HTVS_1-001_lib

>  <canonical_smiles>  (362) 
[NH3+][C@@H](C#Cc1cnc2ccccc2c1NC(=O)C#Cc1cccc(F)c1)Cc1cccc(F)c1

>  <scaffold>  (362) 
O=C(C#Cc1ccccc1)Nc1c(C#CCCc2ccccc2)cnc2ccccc12

>  <molecular_formula>  (362) 
C28H20F2N3O+

$$$$
ATP-HTVS-3B500C8F5D3A
     RDKit          3D

 57 60  0  0  0  0  0  0  0  0999 V2000
  201.4223  181.6785  155.3344 O   0  0  0  0  0  0  0  0  0  0  0  0
  201.8001  181.1787  156.3935 C   0  0  0  0  0  0  0  0  0  0  0  0
  202.3199  179.9443  156.4903 N   0  0  0  0  0  0  0  0  0  0  0  0
  202.4560  178.9912  155.3910 C   0  0  1  0  0  0  0  0  0  0  0  0
  201.6360  177.7079  155.6304 C   0  0  1  0  0  0  0  0  0  0  0  0
  200.1794  177.9041  155.6726 C   0  0  0  0  0  0  0  0  0  0  0  0
  198.9681  178.0793  155.7281 C   0  0  0  0  0  0  0  0  0  0  0  0
  201.6418  181.9187  157.6933 C   0  0  0  0  0  0  0  0  0  0  0  0
  200.5578  182.8161  157.8708 C   0  0  0  0  0  0  0  0  0  0  0  0
  200.3947  183.5458  159.0849 C   0  0  0  0  0  0  0  0  0  0  0  0
  201.3445  183.3743  160.1058 C   0  0  0  0  0  0  0  0  0  0  0  0
  202.4374  182.4998  159.9362 C   0  0  0  0  0  0  0  0  0  0  0  0
  202.5936  181.7892  158.7293 C   0  0  0  0  0  0  0  0  0  0  0  0
  199.2172  184.4800  159.3417 C   0  0  1  0  0  0  0  0  0  0  0  0
  198.8381  185.2157  158.1340 N   0  0  0  0  0  0  0  0  0  0  0  0
  197.4251  185.6134  158.0916 C   0  0  2  0  0  0  0  0  0  0  0  0
  197.1190  186.7783  159.0429 C   0  0  0  0  0  0  0  0  0  0  0  0
  197.5828  188.0857  158.7367 C   0  0  0  0  0  0  0  0  0  0  0  0
  198.3877  188.3528  157.5951 N   0  0  0  0  0  0  0  0  0  0  0  0
  199.3886  187.5749  157.1327 C   0  0  0  0  0  0  0  0  0  0  0  0
  199.9857  187.8552  156.0937 O   0  0  0  0  0  0  0  0  0  0  0  0
  199.8128  186.3392  157.9601 C   0  0  1  0  0  0  0  0  0  0  0  0
  197.2216  189.1807  159.5588 C   0  0  0  0  0  0  0  0  0  0  0  0
  196.4034  188.9830  160.6932 C   0  0  0  0  0  0  0  0  0  0  0  0
  195.9804  187.6811  161.0159 C   0  0  0  0  0  0  0  0  0  0  0  0
  196.3496  186.5888  160.2146 C   0  0  0  0  0  0  0  0  0  0  0  0
  196.4724  184.4054  158.2633 C   0  0  0  0  0  0  0  0  0  0  0  0
  196.9424  183.0688  158.1962 C   0  0  0  0  0  0  0  0  0  0  0  0
  196.1105  181.9913  158.5836 C   0  0  0  0  0  0  0  0  0  0  0  0
  194.7637  182.2068  158.9045 C   0  0  0  0  0  0  0  0  0  0  0  0
  194.2498  183.5181  158.8699 C   0  0  0  0  0  0  0  0  0  0  0  0
  195.1086  184.6028  158.5441 C   0  0  0  0  0  0  0  0  0  0  0  0
  202.6140  179.6253  157.4018 H   0  0  0  0  0  0  0  0  0  0  0  0
  202.1900  179.4382  154.4316 H   0  0  0  0  0  0  0  0  0  0  0  0
  203.5127  178.7310  155.3234 H   0  0  0  0  0  0  0  0  0  0  0  0
  201.8348  176.9991  154.8275 H   0  0  0  0  0  0  0  0  0  0  0  0
  201.9436  177.2227  156.5575 H   0  0  0  0  0  0  0  0  0  0  0  0
  197.9170  178.2328  155.8093 H   0  0  0  0  0  0  0  0  0  0  0  0
  199.8313  182.8995  157.0728 H   0  0  0  0  0  0  0  0  0  0  0  0
  201.2068  183.9009  161.0408 H   0  0  0  0  0  0  0  0  0  0  0  0
  203.1652  182.4066  160.7319 H   0  0  0  0  0  0  0  0  0  0  0  0
  203.4599  181.1600  158.6067 H   0  0  0  0  0  0  0  0  0  0  0  0
  198.4292  183.8250  159.7198 H   0  0  0  0  0  0  0  0  0  0  0  0
  199.4540  185.1935  160.1234 H   0  0  0  0  0  0  0  0  0  0  0  0
  197.1918  185.9564  157.0792 H   0  0  0  0  0  0  0  0  0  0  0  0
  198.2616  189.2433  157.1295 H   0  0  0  0  0  0  0  0  0  0  0  0
  200.0818  186.7646  158.9330 H   0  0  0  0  0  0  0  0  0  0  0  0
  200.7528  185.9582  157.5614 H   0  0  0  0  0  0  0  0  0  0  0  0
  197.5735  190.1839  159.3467 H   0  0  0  0  0  0  0  0  0  0  0  0
  196.1278  189.8122  161.3432 H   0  0  0  0  0  0  0  0  0  0  0  0
  195.3307  187.5067  161.8646 H   0  0  0  0  0  0  0  0  0  0  0  0
  196.0124  185.6043  160.5177 H   0  0  0  0  0  0  0  0  0  0  0  0
  197.9789  182.8268  157.9591 H   0  0  0  0  0  0  0  0  0  0  0  0
  196.5679  181.0142  158.6581 H   0  0  0  0  0  0  0  0  0  0  0  0
  194.1498  181.3601  159.2071 H   0  0  0  0  0  0  0  0  0  0  0  0
  193.2265  183.7111  159.1554 H   0  0  0  0  0  0  0  0  0  0  0  0
  194.7039  185.5992  158.5460 H   0  0  0  0  0  0  0  0  0  0  0  0
  1  2  2  0
  2  3  1  0
  2  8  1  0
  3  4  1  0
  3 33  1  0
  4  5  1  0
  4 34  1  6
  4 35  1  0
  5  6  1  0
  5 36  1  6
  5 37  1  0
  6  7  3  0
  7 38  1  0
  8  9  2  0
  8 13  1  0
  9 10  1  0
  9 39  1  0
 10 11  2  0
 10 14  1  0
 11 12  1  0
 11 40  1  0
 12 13  2  0
 12 41  1  0
 13 42  1  0
 14 15  1  0
 14 43  1  1
 14 44  1  0
 15 16  1  0
 15 22  1  0
 16 17  1  0
 16 27  1  0
 16 45  1  6
 17 18  1  0
 17 26  2  0
 18 19  1  0
 18 23  2  0
 19 20  1  0
 19 46  1  0
 20 21  2  0
 20 22  1  0
 22 47  1  1
 22 48  1  0
 23 24  1  0
 23 49  1  0
 24 25  2  0
 24 50  1  0
 25 26  1  0
 25 51  1  0
 26 52  1  0
 27 28  2  0
 27 32  1  0
 28 29  1  0
 28 53  1  0
 29 30  2  0
 29 54  1  0
 30 31  1  0
 30 55  1  0
 31 32  2  0
 31 56  1  0
 32 57  1  0
M  END
>  <s_epik_cmdline>  (363) 
J2VwaWtfcHl0aG9uJywgJy1waCcsICc3LjAwMDAwMCcsICctcGh0JywgJzIuMDAwMDAwJywgJy1tcycsICcxNicsICctdG4nLCAnOCcsICctbWEnLCAnMjAwJywgJy1pbWFlJywgJzxpbmZpbGUubWFlPicsICctb21hZScsICc8b3V0ZmlsZS5tYWU+Jw==

>  <s_epik_input>  (363) 
W0NIXSNDW0NIMl1bQ0gyXVtOSF1DKD1PKWMxW2NIXWMoW2NIXVtjSF1bY0hdMSlbQ0gyXU4oW0NASF0yYzNbY0hdW2NIXVtjSF1bY0hdW2NIXTMpW0NIMl1DKD1PKVtOSF1jKGMyNClbY0hdW2NIXVtjSF1bY0hdNA==

>  <s_i_glide_gridfile>  (363) 
ATP-Grid

>  <s_lp_Force_Field>  (363) 
OPLS_2005

>  <s_lp_Variant>  (363) 
rxn512b____EMOL29781770____EMOL2730731____EMOL6185419-2

>  <s_lp_label>  (363) 
2421_sdstereoexpander_3_neutralizer_1_epik_1_stereoizer_1

>  <s_m_source_file>  (363) 
ATP-VSW-LIGPREP-002-in.maegz

>  <s_sd_BIOSOLVEIT.INFINISEE\_QUERY\_NAME>  (363) 
Ref-Lig

>  <s_sd_BIOSOLVEIT.INFINISEE\_QUERY\_SMILES>  (363) 
S(c1nc2c(cc1C[NH2+]Cc3ccc(cc3)C[NH+](C)C)cccc2)Cc4ccccc4

>  <s_sd_BIOSOLVEIT.INFINISEE\_REACTION\_NAME>  (363) 
rxn512b

>  <s_sd_BIOSOLVEIT.INFINISEE\_REAGENT1\_NAME>  (363) 
EMOL29781770

>  <s_sd_BIOSOLVEIT.INFINISEE\_REAGENT1\_SMILES>  (363) 
NCCC#C

>  <s_sd_BIOSOLVEIT.INFINISEE\_REAGENT2\_NAME>  (363) 
EMOL2730731

>  <s_sd_BIOSOLVEIT.INFINISEE\_REAGENT2\_SMILES>  (363) 
BrCc1cc(ccc1)C(=O)O

>  <s_sd_BIOSOLVEIT.INFINISEE\_REAGENT3\_NAME>  (363) 
EMOL6185419

>  <s_sd_BIOSOLVEIT.INFINISEE\_REAGENT3\_SMILES>  (363) 
O=C1Nc2c(cccc2)C(NC1)c3ccccc3

>  <s_sd_BIOSOLVEIT.INFINISEE\_SPACE>  (363) 
eXplore_7tr_2022-12

>  <s_vsw_compound_code>  (363) 
77442

>  <s_vsw_variant>  (363) 
77442-2

>  <r_epik_Charging_Adjusted_Penalty>  (363) 
0.0087634984339075902

>  <r_epik_Ionization_Penalty>  (363) 
0.0088000000000000005

>  <r_epik_Ionization_Penalty_Charging>  (363) 
0

>  <r_epik_Ionization_Penalty_Neutral>  (363) 
0.0088000000000000005

>  <r_epik_State_Penalty>  (363) 
0.0088000000000000005

>  <r_i_docking_score>  (363) 
-3.3589120722721

>  <r_i_glide_ecoul>  (363) 
-2.30721163749695

>  <r_i_glide_eff_state_penalty>  (363) 
0.0088000000000000005

>  <r_i_glide_einternal>  (363) 
10.285594940185501

>  <r_i_glide_emodel>  (363) 
-38.560239858231398

>  <r_i_glide_energy>  (363) 
-35.967570066451998

>  <r_i_glide_erotb>  (363) 
0.88404481986588901

>  <r_i_glide_esite>  (363) 
-0.018508478936883701

>  <r_i_glide_evdw>  (363) 
-33.660358428955099

>  <r_i_glide_gscore>  (363) 
-3.3677120722720999

>  <r_i_glide_hbond>  (363) 
0

>  <r_i_glide_ligand_efficiency>  (363) 
-0.104966002258503

>  <r_i_glide_ligand_efficiency_ln>  (363) 
-0.75215197346674401

>  <r_i_glide_ligand_efficiency_sa>  (363) 
-0.33324628442710802

>  <r_i_glide_lipo>  (363) 
-1.6816627225233201

>  <r_i_glide_metal>  (363) 
-0

>  <r_i_glide_rewards>  (363) 
-0.52248602360549501

>  <r_lp_Energy>  (363) 
55.728914000000003

>  <r_qp_ACxDN^.5/SA>  (363) 
0.0146833

>  <r_qp_CIQPlogS>  (363) 
-4.8470000000000004

>  <r_qp_EA(eV)>  (363) 
0.36299999999999999

>  <r_qp_FISA>  (363) 
99.469999999999999

>  <r_qp_FOSA>  (363) 
183.50999999999999

>  <r_qp_IP(eV)>  (363) 
9.4849999999999994

>  <r_qp_Jm>  (363) 
0.0022003466574661598

>  <r_qp_PISA>  (363) 
470.80000000000001

>  <r_qp_PSA>  (363) 
77.510999999999996

>  <r_qp_PercentHumanOralAbsorption>  (363) 
94.441000000000003

>  <r_qp_QPPCaco>  (363) 
281.52800000000002

>  <r_qp_QPPMDCK>  (363) 
139.06800000000001

>  <r_qp_QPlogBB>  (363) 
-0.46200000000000002

>  <r_qp_QPlogHERG>  (363) 
-7.899

>  <r_qp_QPlogKhsa>  (363) 
0.63300000000000001

>  <r_qp_QPlogKp>  (363) 
-3.181

>  <r_qp_QPlogPC16>  (363) 
15.586

>  <r_qp_QPlogPo/w>  (363) 
4.04

>  <r_qp_QPlogPoct>  (363) 
24.324000000000002

>  <r_qp_QPlogPw>  (363) 
14.645

>  <r_qp_QPlogS>  (363) 
-5.1040000000000001

>  <r_qp_QPpolrz>  (363) 
49.183999999999997

>  <r_qp_SASA>  (363) 
753.78099999999995

>  <r_qp_SAamideO>  (363) 
0

>  <r_qp_SAfluorine>  (363) 
0

>  <r_qp_WPSA>  (363) 
0

>  <r_qp_accptHB>  (363) 
7

>  <r_qp_dip^2/V>  (363) 
0.0320311

>  <r_qp_dipole>  (363) 
6.6159999999999997

>  <r_qp_donorHB>  (363) 
2.5

>  <r_qp_glob>  (363) 
0.79012640000000001

>  <r_qp_mol_MW>  (363) 
423.51299999999998

>  <r_qp_volume>  (363) 
1366.674

>  <r_sd_BIOSOLVEIT.INFINISEE\_FTREES\_SIMILARITY>  (363) 
0.91700000000000004

>  <r_sd_BIOSOLVEIT.LOGP>  (363) 
2.5663

>  <r_sd_BIOSOLVEIT.MOLECULAR\_WEIGHT>  (363) 
424.52100000000002

>  <r_sd_BIOSOLVEIT.TPSA>  (363) 
62.640000000000001

>  <i_epik_Tot_Q>  (363) 
0

>  <i_epik_Tot_abs_Q>  (363) 
0

>  <i_f3d_flags>  (363) 
0

>  <i_i_glide_confnum>  (363) 
4

>  <i_i_glide_lignum>  (363) 
1032

>  <i_i_glide_posenum>  (363) 
7

>  <i_i_glide_rotatable_bonds>  (363) 
8

>  <i_lp_mmshare_version>  (363) 
65135

>  <i_m_ct_format>  (363) 
2

>  <i_m_source_file_index>  (363) 
2421

>  <i_qp_#NandO>  (363) 
5

>  <i_qp_#acid>  (363) 
0

>  <i_qp_#amide>  (363) 
0

>  <i_qp_#amidine>  (363) 
0

>  <i_qp_#amine>  (363) 
1

>  <i_qp_#in34>  (363) 
0

>  <i_qp_#in56>  (363) 
18

>  <i_qp_#metab>  (363) 
8

>  <i_qp_#nonHatm>  (363) 
32

>  <i_qp_#noncon>  (363) 
2

>  <i_qp_#ringatoms>  (363) 
23

>  <i_qp_#rotor>  (363) 
6

>  <i_qp_#rtvFG>  (363) 
0

>  <i_qp_#stars>  (363) 
1

>  <i_qp_CNS>  (363) 
0

>  <i_qp_HumanOralAbsorption>  (363) 
3

>  <i_qp_RuleOfFive>  (363) 
0

>  <i_qp_RuleOfThree>  (363) 
1

>  <i_sd_BIOSOLVEIT.INFINISEE\_RESULT\_RANK>  (363) 
22517

>  <i_sd_version>  (363) 
0

>  <b_lp_Chiralities_Consistent>  (363) 
1

>  <b_sd_chiral_flag>  (363) 
0

>  <canonical_id>  (363) 
ATP-HTVS-3B500C8F5D3A

>  <compound_code>  (363) 
77442

>  <title>  (363) 
rxn512b____EMOL29781770____EMOL2730731____EMOL6185419

>  <variant>  (363) 
77442-2

>  <source_file>  (363) 
运行/运行/ATP-VSW/ATP-VSW-DOCK_HTVS_1-002_lib.maegz

>  <canonical_smiles>  (363) 
C#CCCNC(=O)c1cccc(CN2CC(=O)Nc3ccccc3[C@@H]2c2ccccc2)c1

>  <scaffold>  (363) 
O=C1CN(Cc2ccccc2)C(c2ccccc2)c2ccccc2N1

>  <molecular_formula>  (363) 
C27H25N3O2

$$$$
ATP-HTVS-3B52AE15A314
     RDKit          3D

 55 58  0  0  0  0  0  0  0  0999 V2000
  201.5127  178.6288  158.1545 F   0  0  0  0  0  0  0  0  0  0  0  0
  201.6401  177.6262  157.2867 C   0  0  1  0  0  0  0  0  0  0  0  0
  200.2893  177.0069  156.9463 C   0  0  1  0  0  0  0  0  0  0  0  0
  199.4230  177.9723  156.3068 N   0  0  0  0  0  0  0  0  0  0  0  0
  199.6036  178.5489  155.1177 C   0  0  0  0  0  0  0  0  0  0  0  0
  200.5305  178.2704  154.3546 O   0  0  0  0  0  0  0  0  0  0  0  0
  198.5410  179.5249  154.7139 C   0  0  0  0  0  0  0  0  0  0  0  0
  198.2459  179.7037  153.3466 C   0  0  0  0  0  0  0  0  0  0  0  0
  197.2474  180.6116  152.9469 C   0  0  0  0  0  0  0  0  0  0  0  0
  196.5701  181.3774  153.9081 C   0  0  0  0  0  0  0  0  0  0  0  0
  196.8519  181.2084  155.2744 C   0  0  0  0  0  0  0  0  0  0  0  0
  197.8419  180.2923  155.6798 C   0  0  0  0  0  0  0  0  0  0  0  0
  196.9069  180.7586  151.4803 C   0  0  1  0  0  0  0  0  0  0  0  0
  197.8962  181.5659  150.7453 N   0  0  0  0  0  0  0  0  0  0  0  0
  197.8923  181.2030  149.3159 C   0  0  1  0  0  0  0  0  0  0  0  0
  198.7230  182.1424  148.4151 C   0  0  0  0  0  0  0  0  0  0  0  0
  198.2898  183.4796  148.1864 C   0  0  0  0  0  0  0  0  0  0  0  0
  197.1367  184.0163  148.8217 N   0  0  0  0  0  0  0  0  0  0  0  0
  196.7472  183.7919  150.0876 C   0  0  0  0  0  0  0  0  0  0  0  0
  195.6743  184.2126  150.5064 O   0  0  0  0  0  0  0  0  0  0  0  0
  197.6963  183.0179  151.0223 C   0  0  1  0  0  0  0  0  0  0  0  0
  198.9819  184.2990  147.2623 C   0  0  0  0  0  0  0  0  0  0  0  0
  200.1229  183.8202  146.5934 C   0  0  0  0  0  0  0  0  0  0  0  0
  200.5668  182.5050  146.8274 C   0  0  0  0  0  0  0  0  0  0  0  0
  199.8700  181.6718  147.7215 C   0  0  0  0  0  0  0  0  0  0  0  0
  198.3053  179.7420  149.1130 C   0  0  0  0  0  0  0  0  0  0  0  0
  197.6526  178.9246  148.1640 C   0  0  0  0  0  0  0  0  0  0  0  0
  198.0620  177.5880  147.9711 C   0  0  0  0  0  0  0  0  0  0  0  0
  199.1278  177.0609  148.7242 C   0  0  0  0  0  0  0  0  0  0  0  0
  199.7820  177.8704  149.6721 C   0  0  0  0  0  0  0  0  0  0  0  0
  199.3789  179.2042  149.8581 C   0  0  0  0  0  0  0  0  0  0  0  0
  202.1443  178.0164  156.4011 H   0  0  0  0  0  0  0  0  0  0  0  0
  202.2807  176.8717  157.7423 H   0  0  0  0  0  0  0  0  0  0  0  0
  200.4053  176.1308  156.3036 H   0  0  0  0  0  0  0  0  0  0  0  0
  199.8020  176.6721  157.8641 H   0  0  0  0  0  0  0  0  0  0  0  0
  198.5842  178.2000  156.8420 H   0  0  0  0  0  0  0  0  0  0  0  0
  198.7824  179.1184  152.6112 H   0  0  0  0  0  0  0  0  0  0  0  0
  195.8088  182.0820  153.6023 H   0  0  0  0  0  0  0  0  0  0  0  0
  196.3067  181.7792  156.0061 H   0  0  0  0  0  0  0  0  0  0  0  0
  198.0487  180.1861  156.7335 H   0  0  0  0  0  0  0  0  0  0  0  0
  196.8383  179.7289  151.1263 H   0  0  0  0  0  0  0  0  0  0  0  0
  195.9031  181.1732  151.3491 H   0  0  0  0  0  0  0  0  0  0  0  0
  196.8578  181.2713  148.9789 H   0  0  0  0  0  0  0  0  0  0  0  0
  196.5747  184.6537  148.2766 H   0  0  0  0  0  0  0  0  0  0  0  0
  197.3759  183.1844  152.0520 H   0  0  0  0  0  0  0  0  0  0  0  0
  198.6717  183.5035  150.9712 H   0  0  0  0  0  0  0  0  0  0  0  0
  198.6419  185.3082  147.0785 H   0  0  0  0  0  0  0  0  0  0  0  0
  200.6627  184.4529  145.9032 H   0  0  0  0  0  0  0  0  0  0  0  0
  201.4352  182.1204  146.3181 H   0  0  0  0  0  0  0  0  0  0  0  0
  200.2440  180.6618  147.8313 H   0  0  0  0  0  0  0  0  0  0  0  0
  196.8397  179.3166  147.5697 H   0  0  0  0  0  0  0  0  0  0  0  0
  197.5708  176.9803  147.2309 H   0  0  0  0  0  0  0  0  0  0  0  0
  199.4581  176.0453  148.5685 H   0  0  0  0  0  0  0  0  0  0  0  0
  200.6120  177.4853  150.2500 H   0  0  0  0  0  0  0  0  0  0  0  0
  199.8931  179.8254  150.5775 H   0  0  0  0  0  0  0  0  0  0  0  0
  1  2  1  0
  2  3  1  0
  2 32  1  6
  2 33  1  0
  3  4  1  0
  3 34  1  6
  3 35  1  0
  4  5  1  0
  4 36  1  0
  5  6  2  0
  5  7  1  0
  7  8  2  0
  7 12  1  0
  8  9  1  0
  8 37  1  0
  9 10  2  0
  9 13  1  0
 10 11  1  0
 10 38  1  0
 11 12  2  0
 11 39  1  0
 12 40  1  0
 13 14  1  0
 13 41  1  6
 13 42  1  0
 14 15  1  0
 14 21  1  0
 15 16  1  0
 15 26  1  0
 15 43  1  6
 16 17  1  0
 16 25  2  0
 17 18  1  0
 17 22  2  0
 18 19  1  0
 18 44  1  0
 19 20  2  0
 19 21  1  0
 21 45  1  1
 21 46  1  0
 22 23  1  0
 22 47  1  0
 23 24  2  0
 23 48  1  0
 24 25  1  0
 24 49  1  0
 25 50  1  0
 26 27  2  0
 26 31  1  0
 27 28  1  0
 27 51  1  0
 28 29  2  0
 28 52  1  0
 29 30  1  0
 29 53  1  0
 30 31  2  0
 30 54  1  0
 31 55  1  0
M  END
>  <s_epik_cmdline>  (364) 
J2VwaWtfcHl0aG9uJywgJy1waCcsICc3LjAwMDAwMCcsICctcGh0JywgJzIuMDAwMDAwJywgJy1tcycsICcxNicsICctdG4nLCAnOCcsICctbWEnLCAnMjAwJywgJy1pbWFlJywgJzxpbmZpbGUubWFlPicsICctb21hZScsICc8b3V0ZmlsZS5tYWU+Jw==

>  <s_epik_input>  (364) 
RltDSDJdW0NIMl1bTkhdQyg9TyljMVtjSF1jKFtjSF1bY0hdW2NIXTEpW0NIMl1OKFtDQEBIXTJjM1tjSF1bY0hdW2NIXVtjSF1bY0hdMylbQ0gyXUMoPU8pW05IXWMoYzI0KVtjSF1bY0hdW2NIXVtjSF00

>  <s_i_glide_gridfile>  (364) 
ATP-Grid

>  <s_lp_Force_Field>  (364) 
OPLS_2005

>  <s_lp_Variant>  (364) 
rxn512b____EMOL507327____EMOL2730731____EMOL6185419-1

>  <s_lp_label>  (364) 
2316_sdstereoexpander_1_neutralizer_1_epik_1_stereoizer_1

>  <s_m_source_file>  (364) 
ATP-VSW-LIGPREP-001-in.maegz

>  <s_sd_BIOSOLVEIT.INFINISEE\_QUERY\_NAME>  (364) 
Ref-Lig

>  <s_sd_BIOSOLVEIT.INFINISEE\_QUERY\_SMILES>  (364) 
S(c1nc2c(cc1C[NH2+]Cc3ccc(cc3)C[NH+](C)C)cccc2)Cc4ccccc4

>  <s_sd_BIOSOLVEIT.INFINISEE\_REACTION\_NAME>  (364) 
rxn512b

>  <s_sd_BIOSOLVEIT.INFINISEE\_REAGENT1\_NAME>  (364) 
EMOL507327

>  <s_sd_BIOSOLVEIT.INFINISEE\_REAGENT1\_SMILES>  (364) 
FCCN

>  <s_sd_BIOSOLVEIT.INFINISEE\_REAGENT2\_NAME>  (364) 
EMOL2730731

>  <s_sd_BIOSOLVEIT.INFINISEE\_REAGENT2\_SMILES>  (364) 
BrCc1cc(ccc1)C(=O)O

>  <s_sd_BIOSOLVEIT.INFINISEE\_REAGENT3\_NAME>  (364) 
EMOL6185419

>  <s_sd_BIOSOLVEIT.INFINISEE\_REAGENT3\_SMILES>  (364) 
O=C1Nc2c(cccc2)C(NC1)c3ccccc3

>  <s_sd_BIOSOLVEIT.INFINISEE\_SPACE>  (364) 
eXplore_7tr_2022-12

>  <s_vsw_compound_code>  (364) 
74081

>  <s_vsw_variant>  (364) 
74081-1

>  <r_epik_Charging_Adjusted_Penalty>  (364) 
0.0087634984339075902

>  <r_epik_Ionization_Penalty>  (364) 
0.0088000000000000005

>  <r_epik_Ionization_Penalty_Charging>  (364) 
0

>  <r_epik_Ionization_Penalty_Neutral>  (364) 
0.0088000000000000005

>  <r_epik_State_Penalty>  (364) 
0.0088000000000000005

>  <r_i_docking_score>  (364) 
-3.9182720766905299

>  <r_i_glide_ecoul>  (364) 
-8.0085897445678693

>  <r_i_glide_eff_state_penalty>  (364) 
0.0088000000000000005

>  <r_i_glide_einternal>  (364) 
1.94276475906372

>  <r_i_glide_emodel>  (364) 
-41.416386066316797

>  <r_i_glide_energy>  (364) 
-33.486521720886202

>  <r_i_glide_erotb>  (364) 
0.68045092043761302

>  <r_i_glide_esite>  (364) 
-0.13217335536564601

>  <r_i_glide_evdw>  (364) 
-25.477931976318398

>  <r_i_glide_gscore>  (364) 
-3.9270720766905298

>  <r_i_glide_hbond>  (364) 
-0.388338030406777

>  <r_i_glide_ligand_efficiency>  (364) 
-0.12639587344163

>  <r_i_glide_ligand_efficiency_ln>  (364) 
-0.88369043391172897

>  <r_i_glide_ligand_efficiency_sa>  (364) 
-0.397057550917151

>  <r_i_glide_lipo>  (364) 
-0.73579766183707596

>  <r_i_glide_metal>  (364) 
-0

>  <r_i_glide_rewards>  (364) 
-0.87602888901754805

>  <r_lp_Energy>  (364) 
41.094607000000003

>  <r_qp_ACxDN^.5/SA>  (364) 
0.013408700000000001

>  <r_qp_CIQPlogS>  (364) 
-4.7629999999999999

>  <r_qp_EA(eV)>  (364) 
0.46500000000000002

>  <r_qp_FISA>  (364) 
101.163

>  <r_qp_FOSA>  (364) 
151.25299999999999

>  <r_qp_IP(eV)>  (364) 
9.1199999999999992

>  <r_qp_Jm>  (364) 
0.000486028423765917

>  <r_qp_PISA>  (364) 
438.40699999999998

>  <r_qp_PSA>  (364) 
78.628

>  <r_qp_PercentHumanOralAbsorption>  (364) 
93.944000000000003

>  <r_qp_QPPCaco>  (364) 
271.31299999999999

>  <r_qp_QPPMDCK>  (364) 
243.15199999999999

>  <r_qp_QPlogBB>  (364) 
-0.24099999999999999

>  <r_qp_QPlogHERG>  (364) 
-7.7320000000000002

>  <r_qp_QPlogKhsa>  (364) 
0.63900000000000001

>  <r_qp_QPlogKp>  (364) 
-3.5179999999999998

>  <r_qp_QPlogPC16>  (364) 
14.57

>  <r_qp_QPlogPo/w>  (364) 
4.0039999999999996

>  <r_qp_QPlogPoct>  (364) 
24.373999999999999

>  <r_qp_QPlogPw>  (364) 
14.125

>  <r_qp_QPlogS>  (364) 
-5.4160000000000004

>  <r_qp_QPpolrz>  (364) 
48.560000000000002

>  <r_qp_SASA>  (364) 
738.28700000000003

>  <r_qp_SAamideO>  (364) 
0

>  <r_qp_SAfluorine>  (364) 
47.463000000000001

>  <r_qp_WPSA>  (364) 
47.463000000000001

>  <r_qp_accptHB>  (364) 
7

>  <r_qp_dip^2/V>  (364) 
0.0864983

>  <r_qp_dipole>  (364) 
10.712999999999999

>  <r_qp_donorHB>  (364) 
2

>  <r_qp_glob>  (364) 
0.79090899999999997

>  <r_qp_mol_MW>  (364) 
417.48200000000003

>  <r_qp_volume>  (364) 
1326.721

>  <r_sd_BIOSOLVEIT.INFINISEE\_FTREES\_SIMILARITY>  (364) 
0.92200000000000004

>  <r_sd_BIOSOLVEIT.LOGP>  (364) 
2.5125000000000002

>  <r_sd_BIOSOLVEIT.MOLECULAR\_WEIGHT>  (364) 
418.49000000000001

>  <r_sd_BIOSOLVEIT.TPSA>  (364) 
62.640000000000001

>  <i_epik_Tot_Q>  (364) 
0

>  <i_epik_Tot_abs_Q>  (364) 
0

>  <i_f3d_flags>  (364) 
0

>  <i_i_glide_confnum>  (364) 
6

>  <i_i_glide_lignum>  (364) 
824

>  <i_i_glide_posenum>  (364) 
3

>  <i_i_glide_rotatable_bonds>  (364) 
7

>  <i_lp_mmshare_version>  (364) 
65135

>  <i_m_ct_format>  (364) 
2

>  <i_m_source_file_index>  (364) 
2316

>  <i_qp_#NandO>  (364) 
5

>  <i_qp_#acid>  (364) 
0

>  <i_qp_#amide>  (364) 
0

>  <i_qp_#amidine>  (364) 
0

>  <i_qp_#amine>  (364) 
1

>  <i_qp_#in34>  (364) 
0

>  <i_qp_#in56>  (364) 
18

>  <i_qp_#metab>  (364) 
7

>  <i_qp_#nonHatm>  (364) 
31

>  <i_qp_#noncon>  (364) 
2

>  <i_qp_#ringatoms>  (364) 
23

>  <i_qp_#rotor>  (364) 
4

>  <i_qp_#rtvFG>  (364) 
0

>  <i_qp_#stars>  (364) 
0

>  <i_qp_CNS>  (364) 
1

>  <i_qp_HumanOralAbsorption>  (364) 
3

>  <i_qp_RuleOfFive>  (364) 
0

>  <i_qp_RuleOfThree>  (364) 
1

>  <i_sd_BIOSOLVEIT.INFINISEE\_RESULT\_RANK>  (364) 
13038

>  <i_sd_version>  (364) 
0

>  <b_lp_Chiralities_Consistent>  (364) 
1

>  <b_sd_chiral_flag>  (364) 
0

>  <canonical_id>  (364) 
ATP-HTVS-3B52AE15A314

>  <compound_code>  (364) 
74081

>  <title>  (364) 
rxn512b____EMOL507327____EMOL2730731____EMOL6185419

>  <variant>  (364) 
74081-1

>  <source_file>  (364) 
运行/运行/ATP-VSW/ATP-VSW-DOCK_HTVS_1-001_lib/ATP-VSW-DOCK_HTVS_1-001_lib

>  <canonical_smiles>  (364) 
O=C1CN(Cc2cccc(C(=O)NCCF)c2)[C@H](c2ccccc2)c2ccccc2N1

>  <scaffold>  (364) 
O=C1CN(Cc2ccccc2)C(c2ccccc2)c2ccccc2N1

>  <molecular_formula>  (364) 
C25H24FN3O2

$$$$
ATP-HTVS-3B591F4F1DA1
     RDKit          3D

 56 59  0  0  0  0  0  0  0  0999 V2000
  199.9711  178.3359  150.8752 F   0  0  0  0  0  0  0  0  0  0  0  0
  198.7209  178.8307  150.6980 C   0  0  0  0  0  0  0  0  0  0  0  0
  197.9518  179.2832  151.8042 C   0  0  0  0  0  0  0  0  0  0  0  0
  198.4757  179.2487  153.1886 C   0  0  0  0  0  0  0  0  0  0  0  0
  199.4351  178.3419  153.4796 N   0  0  0  0  0  0  0  0  0  0  0  0
  199.9797  178.1733  154.6979 C   0  0  0  0  0  0  0  0  0  0  0  0
  199.5610  179.0052  155.7687 C   0  0  0  0  0  0  0  0  0  0  0  0
  198.5591  179.9887  155.5302 C   0  0  0  0  0  0  0  0  0  0  0  0
  198.1259  180.8483  156.5576 N   0  0  0  0  0  0  0  0  0  0  0  0
  196.7868  181.4363  156.4777 C   0  0  1  0  0  0  0  0  0  0  0  0
  196.4097  182.2301  157.7499 C   0  0  2  0  0  0  0  0  0  0  0  0
  194.9516  182.5711  157.7966 N   0  0  2  0  0  0  0  0  0  0  0  0
  194.6027  183.7280  158.6659 C   0  0  2  0  0  0  0  0  0  0  0  0
  194.0878  181.4182  158.1293 C   0  0  2  0  0  0  0  0  0  0  0  0
  197.2967  183.4693  157.8829 C   0  0  0  0  0  0  0  0  0  0  0  0
  197.3488  184.4258  156.8416 C   0  0  0  0  0  0  0  0  0  0  0  0
  198.1068  185.6023  156.9882 C   0  0  0  0  0  0  0  0  0  0  0  0
  198.8264  185.8316  158.1743 C   0  0  0  0  0  0  0  0  0  0  0  0
  199.5539  186.9773  158.3124 O   0  0  0  0  0  0  0  0  0  0  0  0
  198.7922  184.8794  159.2114 C   0  0  0  0  0  0  0  0  0  0  0  0
  198.0265  183.7043  159.0694 C   0  0  0  0  0  0  0  0  0  0  0  0
  198.0224  180.0936  154.2243 C   0  0  0  0  0  0  0  0  0  0  0  0
  200.1674  178.8236  157.0332 C   0  0  0  0  0  0  0  0  0  0  0  0
  201.1455  177.8257  157.2250 C   0  0  0  0  0  0  0  0  0  0  0  0
  201.5455  177.0057  156.1530 C   0  0  0  0  0  0  0  0  0  0  0  0
  200.9626  177.1795  154.8855 C   0  0  0  0  0  0  0  0  0  0  0  0
  196.6496  179.7795  151.5450 C   0  0  0  0  0  0  0  0  0  0  0  0
  196.1400  179.8381  150.2360 C   0  0  0  0  0  0  0  0  0  0  0  0
  196.9173  179.3876  149.1557 C   0  0  0  0  0  0  0  0  0  0  0  0
  198.2065  178.8835  149.3901 C   0  0  0  0  0  0  0  0  0  0  0  0
  198.3869  180.5443  157.4823 H   0  0  0  0  0  0  0  0  0  0  0  0
  196.7200  182.1002  155.6200 H   0  0  0  0  0  0  0  0  0  0  0  0
  196.0752  180.6388  156.2925 H   0  0  0  0  0  0  0  0  0  0  0  0
  196.6134  181.5938  158.6140 H   0  0  0  0  0  0  0  0  0  0  0  0
  194.8974  183.5325  159.6991 H   0  0  0  0  0  0  0  0  0  0  0  0
  193.5289  183.9145  158.6529 H   0  0  0  0  0  0  0  0  0  0  0  0
  195.0656  184.6631  158.3495 H   0  0  0  0  0  0  0  0  0  0  0  0
  194.3697  180.9719  159.0851 H   0  0  0  0  0  0  0  0  0  0  0  0
  194.1286  180.6556  157.3524 H   0  0  0  0  0  0  0  0  0  0  0  0
  193.0445  181.7293  158.1908 H   0  0  0  0  0  0  0  0  0  0  0  0
  196.7766  184.2873  155.9357 H   0  0  0  0  0  0  0  0  0  0  0  0
  198.1129  186.3410  156.1985 H   0  0  0  0  0  0  0  0  0  0  0  0
  199.9865  187.0566  159.1485 H   0  0  0  0  0  0  0  0  0  0  0  0
  199.3354  185.0564  160.1279 H   0  0  0  0  0  0  0  0  0  0  0  0
  197.9837  182.9980  159.8861 H   0  0  0  0  0  0  0  0  0  0  0  0
  197.2762  180.8386  154.0003 H   0  0  0  0  0  0  0  0  0  0  0  0
  199.8880  179.4339  157.8760 H   0  0  0  0  0  0  0  0  0  0  0  0
  201.6027  177.6969  158.1939 H   0  0  0  0  0  0  0  0  0  0  0  0
  202.3058  176.2525  156.3089 H   0  0  0  0  0  0  0  0  0  0  0  0
  201.2818  176.5513  154.0672 H   0  0  0  0  0  0  0  0  0  0  0  0
  196.0145  180.1241  152.3478 H   0  0  0  0  0  0  0  0  0  0  0  0
  195.1475  180.2249  150.0668 H   0  0  0  0  0  0  0  0  0  0  0  0
  196.5309  179.4316  148.1476 H   0  0  0  0  0  0  0  0  0  0  0  0
  198.8134  178.5423  148.5646 H   0  0  0  0  0  0  0  0  0  0  0  0
  199.7608  177.7477  152.7171 H   0  0  0  0  0  0  0  0  0  0  0  0
  194.6406  182.8112  156.8488 H   0  0  0  0  0  0  0  0  0  0  0  0
  1  2  1  0
  2  3  1  0
  2 30  2  0
  3  4  1  0
  3 27  2  0
  4  5  2  0
  4 22  1  0
  5  6  1  0
  5 55  1  0
  6  7  1  0
  6 26  2  0
  7  8  1  0
  7 23  2  0
  8  9  1  0
  8 22  2  0
  9 10  1  0
  9 31  1  0
 10 11  1  0
 10 32  1  6
 10 33  1  0
 11 12  1  0
 11 15  1  0
 11 34  1  1
 12 13  1  0
 12 14  1  0
 12 56  1  6
 13 35  1  1
 13 36  1  0
 13 37  1  0
 14 38  1  1
 14 39  1  0
 14 40  1  0
 15 16  1  0
 15 21  2  0
 16 17  2  0
 16 41  1  0
 17 18  1  0
 17 42  1  0
 18 19  1  0
 18 20  2  0
 19 43  1  0
 20 21  1  0
 20 44  1  0
 21 45  1  0
 22 46  1  0
 23 24  1  0
 23 47  1  0
 24 25  2  0
 24 48  1  0
 25 26  1  0
 25 49  1  0
 26 50  1  0
 27 28  1  0
 27 51  1  0
 28 29  2  0
 28 52  1  0
 29 30  1  0
 29 53  1  0
 30 54  1  0
M  CHG  2   5   1  12   1
M  END
>  <s_epik_cmdline>  (365) 
J2VwaWtfcHl0aG9uJywgJy1waCcsICc3LjAwMDAwMCcsICctcGh0JywgJzIuMDAwMDAwJywgJy1tcycsICcxNicsICctdG4nLCAnOCcsICctbWEnLCAnMjAwJywgJy1pbWFlJywgJzxpbmZpbGUubWFlPicsICctb21hZScsICc8b3V0ZmlsZS5tYWU+Jw==

>  <s_epik_input>  (365) 
W2NIXTFbY0hdW2NIXVtjSF1jKGMxRiktYyhuMilbY0hdYyhjKGMyMylbY0hdW2NIXVtjSF1bY0hdMylbTkhdW0NIMl1bQ0BIXShOKFtDSDNdKVtDSDNdKWM0W2NIXVtjSF1jKFtPSF0pW2NIXVtjSF00

>  <s_i_glide_gridfile>  (365) 
ATP-Grid

>  <s_lp_Force_Field>  (365) 
OPLS_2005

>  <s_lp_Variant>  (365) 
YAS_R004____OTV5753507____OTV1901890____OTV1000393-1

>  <s_lp_label>  (365) 
134_sdstereoexpander_1_neutralizer_1_epik_1_stereoizer_1

>  <s_m_source_file>  (365) 
ATP-VSW-LIGPREP-003-in.maegz

>  <s_sd_BIOSOLVEIT.INFINISEE\_QUERY\_NAME>  (365) 
Ref-Lig

>  <s_sd_BIOSOLVEIT.INFINISEE\_QUERY\_SMILES>  (365) 
S(c1nc2c(cc1C[NH2+]Cc3ccc(cc3)C[NH+](C)C)cccc2)Cc4ccccc4

>  <s_sd_BIOSOLVEIT.INFINISEE\_REACTION\_NAME>  (365) 
YAS_R004

>  <s_sd_BIOSOLVEIT.INFINISEE\_REAGENT1\_NAME>  (365) 
OTV5753507

>  <s_sd_BIOSOLVEIT.INFINISEE\_REAGENT1\_SMILES>  (365) 
Nc1ccccc1

>  <s_sd_BIOSOLVEIT.INFINISEE\_REAGENT2\_NAME>  (365) 
OTV1901890

>  <s_sd_BIOSOLVEIT.INFINISEE\_REAGENT2\_SMILES>  (365) 
Fc1c(cccc1)C(=O)O

>  <s_sd_BIOSOLVEIT.INFINISEE\_REAGENT3\_NAME>  (365) 
OTV1000393

>  <s_sd_BIOSOLVEIT.INFINISEE\_REAGENT3\_SMILES>  (365) 
Oc1ccc(cc1)C(N(C)C)CN

>  <s_sd_BIOSOLVEIT.INFINISEE\_SPACE>  (365) 
CHEMriya_12bn_2022-01

>  <s_vsw_compound_code>  (365) 
4259

>  <s_vsw_variant>  (365) 
4259-1

>  <r_epik_Charging_Adjusted_Penalty>  (365) 
0.14406433498639301

>  <r_epik_Ionization_Penalty>  (365) 
0.075800000000000006

>  <r_epik_Ionization_Penalty_Charging>  (365) 
0.073099999999999998

>  <r_epik_Ionization_Penalty_Neutral>  (365) 
0.0027000000000000001

>  <r_epik_State_Penalty>  (365) 
0.070999999999999994

>  <r_i_docking_score>  (365) 
-5.3761878315395597

>  <r_i_glide_ecoul>  (365) 
-14.118391036987299

>  <r_i_glide_eff_state_penalty>  (365) 
0.070999999999999994

>  <r_i_glide_einternal>  (365) 
2.05322170257568

>  <r_i_glide_emodel>  (365) 
-70.342892452085493

>  <r_i_glide_energy>  (365) 
-46.148328781127901

>  <r_i_glide_erotb>  (365) 
0.60298830667589198

>  <r_i_glide_esite>  (365) 
-0.17175506636259899

>  <r_i_glide_evdw>  (365) 
-32.029937744140597

>  <r_i_glide_gscore>  (365) 
-5.4471878315395603

>  <r_i_glide_hbond>  (365) 
-0.20000000000000001

>  <r_i_glide_ligand_efficiency>  (365) 
-0.17920626105131901

>  <r_i_glide_ligand_efficiency_ln>  (365) 
-1.2215284535839599

>  <r_i_glide_ligand_efficiency_sa>  (365) 
-0.55683551897780803

>  <r_i_glide_lipo>  (365) 
-1.29509703108597

>  <r_i_glide_metal>  (365) 
-0

>  <r_i_glide_rewards>  (365) 
-0.66406849801175305

>  <r_lp_Energy>  (365) 
38.033738999999997

>  <r_lp_tautomer_probability>  (365) 
0.999999999997365

>  <r_qp_ACxDN^.5/SA>  (365) 
0.0099331000000000003

>  <r_qp_CIQPlogS>  (365) 
-5.665

>  <r_qp_EA(eV)>  (365) 
0.81799999999999995

>  <r_qp_FISA>  (365) 
74.521000000000001

>  <r_qp_FOSA>  (365) 
158.297

>  <r_qp_IP(eV)>  (365) 
8.2579999999999991

>  <r_qp_Jm>  (365) 
0.017792516852711299

>  <r_qp_PISA>  (365) 
410.96800000000002

>  <r_qp_PSA>  (365) 
48.252000000000002

>  <r_qp_PercentHumanOralAbsorption>  (365) 
100

>  <r_qp_QPPCaco>  (365) 
485.41500000000002

>  <r_qp_QPPMDCK>  (365) 
377.49700000000001

>  <r_qp_QPlogBB>  (365) 
-0.094

>  <r_qp_QPlogHERG>  (365) 
-6.9009999999999998

>  <r_qp_QPlogKhsa>  (365) 
0.76900000000000002

>  <r_qp_QPlogKp>  (365) 
-2.8359999999999999

>  <r_qp_QPlogPC16>  (365) 
13.58

>  <r_qp_QPlogPo/w>  (365) 
4.6050000000000004

>  <r_qp_QPlogPoct>  (365) 
20.207000000000001

>  <r_qp_QPlogPw>  (365) 
10.724

>  <r_qp_QPlogS>  (365) 
-4.5179999999999998

>  <r_qp_QPpolrz>  (365) 
43.698999999999998

>  <r_qp_SASA>  (365) 
676.27200000000005

>  <r_qp_SAamideO>  (365) 
0

>  <r_qp_SAfluorine>  (365) 
32.485999999999997

>  <r_qp_WPSA>  (365) 
32.485999999999997

>  <r_qp_accptHB>  (365) 
4.75

>  <r_qp_dip^2/V>  (365) 
0.0089724000000000002

>  <r_qp_dipole>  (365) 
3.3620000000000001

>  <r_qp_donorHB>  (365) 
2

>  <r_qp_glob>  (365) 
0.83421020000000001

>  <r_qp_mol_MW>  (365) 
401.48200000000003

>  <r_qp_volume>  (365) 
1259.9349999999999

>  <r_sd_BIOSOLVEIT.INFINISEE\_FTREES\_SIMILARITY>  (365) 
0.90400000000000003

>  <r_sd_BIOSOLVEIT.LOGP>  (365) 
4.0442

>  <r_sd_BIOSOLVEIT.MOLECULAR\_WEIGHT>  (365) 
402.49099999999999

>  <r_sd_BIOSOLVEIT.TPSA>  (365) 
49.590000000000003

>  <i_epik_Tot_Q>  (365) 
2

>  <i_epik_Tot_abs_Q>  (365) 
2

>  <i_f3d_flags>  (365) 
0

>  <i_i_glide_confnum>  (365) 
3

>  <i_i_glide_lignum>  (365) 
179

>  <i_i_glide_posenum>  (365) 
4

>  <i_i_glide_rotatable_bonds>  (365) 
7

>  <i_lp_mmshare_version>  (365) 
65135

>  <i_m_ct_format>  (365) 
2

>  <i_m_source_file_index>  (365) 
134

>  <i_qp_#NandO>  (365) 
4

>  <i_qp_#acid>  (365) 
0

>  <i_qp_#amide>  (365) 
0

>  <i_qp_#amidine>  (365) 
0

>  <i_qp_#amine>  (365) 
1

>  <i_qp_#in34>  (365) 
0

>  <i_qp_#in56>  (365) 
22

>  <i_qp_#metab>  (365) 
5

>  <i_qp_#nonHatm>  (365) 
30

>  <i_qp_#noncon>  (365) 
0

>  <i_qp_#ringatoms>  (365) 
22

>  <i_qp_#rotor>  (365) 
7

>  <i_qp_#rtvFG>  (365) 
0

>  <i_qp_#stars>  (365) 
0

>  <i_qp_CNS>  (365) 
1

>  <i_qp_HumanOralAbsorption>  (365) 
3

>  <i_qp_RuleOfFive>  (365) 
0

>  <i_qp_RuleOfThree>  (365) 
0

>  <i_sd_BIOSOLVEIT.INFINISEE\_RESULT\_RANK>  (365) 
76110

>  <i_sd_version>  (365) 
0

>  <b_lp_Chiralities_Consistent>  (365) 
1

>  <b_sd_chiral_flag>  (365) 
0

>  <canonical_id>  (365) 
ATP-HTVS-3B591F4F1DA1

>  <compound_code>  (365) 
4259

>  <title>  (365) 
YAS_R004____OTV5753507____OTV1901890____OTV1000393

>  <variant>  (365) 
4259-1

>  <source_file>  (365) 
运行/运行/ATP-VSW/ATP-VSW-DOCK_HTVS_1-003_lib/ATP-VSW-DOCK_HTVS_1-003_lib.mae

>  <canonical_smiles>  (365) 
C[NH+](C)[C@@H](CNc1cc(-c2ccccc2F)[nH+]c2ccccc12)c1ccc(O)cc1

>  <scaffold>  (365) 
c1ccc(CCNc2cc(-c3ccccc3)[nH+]c3ccccc23)cc1

>  <molecular_formula>  (365) 
C25H26FN3O+2

$$$$
ATP-HTVS-3B615F85BA41
     RDKit          3D

 63 66  0  0  0  0  0  0  0  0999 V2000
  200.7027  180.2251  154.2931 O   0  0  0  0  0  0  0  0  0  0  0  0
  201.0561  179.7041  155.3497 C   0  0  0  0  0  0  0  0  0  0  0  0
  201.4155  180.3738  156.4641 N   0  0  0  0  0  0  0  0  0  0  0  0
  201.3190  181.7653  156.7591 C   0  0  0  0  0  0  0  0  0  0  0  0
  200.7659  182.6512  155.8938 N   0  0  0  0  0  0  0  0  0  0  0  0
  200.7028  183.9565  156.2125 C   0  0  0  0  0  0  0  0  0  0  0  0
  201.1785  184.4863  157.4270 C   0  0  0  0  0  0  0  0  0  0  0  0
  201.0602  185.8714  157.6798 N   0  0  0  0  0  0  0  0  0  0  0  0
  200.1162  186.3510  158.6963 C   0  0  1  0  0  0  0  0  0  0  0  0
  198.7724  185.6327  158.8123 C   0  0  0  0  0  0  0  0  0  0  0  0
  197.5936  186.2621  158.3611 C   0  0  0  0  0  0  0  0  0  0  0  0
  196.3526  185.6068  158.4760 C   0  0  0  0  0  0  0  0  0  0  0  0
  196.2781  184.3124  159.0404 C   0  0  0  0  0  0  0  0  0  0  0  0
  197.4525  183.7088  159.5418 C   0  0  0  0  0  0  0  0  0  0  0  0
  198.6883  184.3558  159.4099 C   0  0  0  0  0  0  0  0  0  0  0  0
  194.9621  183.5569  159.1115 C   0  0  1  0  0  0  0  0  0  0  0  0
  194.7974  182.4961  158.0676 N   0  0  2  0  0  0  0  0  0  0  0  0
  193.7113  181.5583  158.3966 C   0  0  2  0  0  0  0  0  0  0  0  0
  196.0295  181.7798  157.6624 C   0  0  2  0  0  0  0  0  0  0  0  0
  201.7535  183.5769  158.3518 C   0  0  0  0  0  0  0  0  0  0  0  0
  201.8195  182.1917  158.0226 C   0  0  0  0  0  0  0  0  0  0  0  0
  202.3808  181.2879  158.9644 C   0  0  0  0  0  0  0  0  0  0  0  0
  202.8451  181.7428  160.2135 C   0  0  0  0  0  0  0  0  0  0  0  0
  202.7701  183.1113  160.5314 C   0  0  0  0  0  0  0  0  0  0  0  0
  202.2503  184.0242  159.5995 C   0  0  0  0  0  0  0  0  0  0  0  0
  201.2041  178.2089  155.4528 C   0  0  0  0  0  0  0  0  0  0  0  0
  201.3901  177.4345  154.2821 C   0  0  0  0  0  0  0  0  0  0  0  0
  201.5030  176.0244  154.3464 C   0  0  0  0  0  0  0  0  0  0  0  0
  201.4221  175.3887  155.6055 C   0  0  0  0  0  0  0  0  0  0  0  0
  201.2237  176.1499  156.7719 C   0  0  0  0  0  0  0  0  0  0  0  0
  201.1064  177.5488  156.6980 C   0  0  0  0  0  0  0  0  0  0  0  0
  201.6944  175.2479  153.0863 C   0  0  0  0  0  0  0  0  0  0  0  0
  201.7394  175.7656  151.9708 O   0  0  0  0  0  0  0  0  0  0  0  0
  201.8411  173.7325  153.1987 C   0  0  2  0  0  0  0  0  0  0  0  0
  201.7812  179.7994  157.2061 H   0  0  0  0  0  0  0  0  0  0  0  0
  200.2351  184.5992  155.4789 H   0  0  0  0  0  0  0  0  0  0  0  0
  201.1191  186.4771  156.8677 H   0  0  0  0  0  0  0  0  0  0  0  0
  200.5766  186.3302  159.6829 H   0  0  0  0  0  0  0  0  0  0  0  0
  199.9158  187.4036  158.4850 H   0  0  0  0  0  0  0  0  0  0  0  0
  197.6496  187.2436  157.9111 H   0  0  0  0  0  0  0  0  0  0  0  0
  195.4583  186.0970  158.1049 H   0  0  0  0  0  0  0  0  0  0  0  0
  197.4264  182.7366  160.0037 H   0  0  0  0  0  0  0  0  0  0  0  0
  199.5669  183.8474  159.7807 H   0  0  0  0  0  0  0  0  0  0  0  0
  194.8846  183.1332  160.1166 H   0  0  0  0  0  0  0  0  0  0  0  0
  194.1295  184.2593  159.0217 H   0  0  0  0  0  0  0  0  0  0  0  0
  193.9310  181.0146  159.3161 H   0  0  0  0  0  0  0  0  0  0  0  0
  193.5763  180.8360  157.5916 H   0  0  0  0  0  0  0  0  0  0  0  0
  192.7735  182.0976  158.5150 H   0  0  0  0  0  0  0  0  0  0  0  0
  196.4631  181.2367  158.5097 H   0  0  0  0  0  0  0  0  0  0  0  0
  196.7845  182.4472  157.2361 H   0  0  0  0  0  0  0  0  0  0  0  0
  195.8006  181.0394  156.8861 H   0  0  0  0  0  0  0  0  0  0  0  0
  202.4642  180.2298  158.7651 H   0  0  0  0  0  0  0  0  0  0  0  0
  203.2643  181.0440  160.9293 H   0  0  0  0  0  0  0  0  0  0  0  0
  203.1193  183.4674  161.4899 H   0  0  0  0  0  0  0  0  0  0  0  0
  202.2334  185.0732  159.8560 H   0  0  0  0  0  0  0  0  0  0  0  0
  201.4463  177.9324  153.3240 H   0  0  0  0  0  0  0  0  0  0  0  0
  201.4956  174.3159  155.7011 H   0  0  0  0  0  0  0  0  0  0  0  0
  201.1479  175.6568  157.7289 H   0  0  0  0  0  0  0  0  0  0  0  0
  200.9338  178.0888  157.6190 H   0  0  0  0  0  0  0  0  0  0  0  0
  202.6963  173.4771  153.8239 H   0  0  0  0  0  0  0  0  0  0  0  0
  201.9992  173.2937  152.2141 H   0  0  0  0  0  0  0  0  0  0  0  0
  200.9442  173.2880  153.6300 H   0  0  0  0  0  0  0  0  0  0  0  0
  194.4847  182.9431  157.2090 H   0  0  0  0  0  0  0  0  0  0  0  0
  1  2  2  0
  2  3  1  0
  2 26  1  0
  3  4  1  0
  3 35  1  0
  4  5  1  0
  4 21  2  0
  5  6  2  0
  6  7  1  0
  6 36  1  0
  7  8  1  0
  7 20  2  0
  8  9  1  0
  8 37  1  0
  9 10  1  0
  9 38  1  1
  9 39  1  0
 10 11  1  0
 10 15  2  0
 11 12  2  0
 11 40  1  0
 12 13  1  0
 12 41  1  0
 13 14  2  0
 13 16  1  0
 14 15  1  0
 14 42  1  0
 15 43  1  0
 16 17  1  0
 16 44  1  1
 16 45  1  0
 17 18  1  0
 17 19  1  0
 17 63  1  6
 18 46  1  1
 18 47  1  0
 18 48  1  0
 19 49  1  1
 19 50  1  0
 19 51  1  0
 20 21  1  0
 20 25  1  0
 21 22  1  0
 22 23  2  0
 22 52  1  0
 23 24  1  0
 23 53  1  0
 24 25  2  0
 24 54  1  0
 25 55  1  0
 26 27  2  0
 26 31  1  0
 27 28  1  0
 27 56  1  0
 28 29  2  0
 28 32  1  0
 29 30  1  0
 29 57  1  0
 30 31  2  0
 30 58  1  0
 31 59  1  0
 32 33  2  0
 32 34  1  0
 34 60  1  1
 34 61  1  0
 34 62  1  0
M  CHG  1  17   1
M  END
>  <s_epik_cmdline>  (366) 
J2VwaWtfcHl0aG9uJywgJy1waCcsICc3LjAwMDAwMCcsICctcGh0JywgJzIuMDAwMDAwJywgJy1tcycsICcxNicsICctdG4nLCAnOCcsICctbWEnLCAnMjAwJywgJy1pbWFlJywgJzxpbmZpbGUubWFlPicsICctb21hZScsICc8b3V0ZmlsZS5tYWU+Jw==

>  <s_epik_input>  (366) 
W2NIXTFbY0hdW2NIXWMoQyg9TylbQ0gzXSlbY0hdYzFDKD1PKVtOSF1jKGMoYzIzKVtjSF1bY0hdW2NIXVtjSF0zKW5bY0hdYzJbTkhdW0NIMl1jNFtjSF1bY0hdYyhbY0hdW2NIXTQpW0NIMl1OKFtDSDNdKVtDSDNd

>  <s_i_glide_gridfile>  (366) 
ATP-Grid

>  <s_lp_Force_Field>  (366) 
OPLS_2005

>  <s_lp_Variant>  (366) 
rxn502c____EMOL492224____EMOL29936549____EMOL50155899-1

>  <s_lp_label>  (366) 
2312_sdstereoexpander_1_neutralizer_1_epik_1_stereoizer_1

>  <s_m_source_file>  (366) 
ATP-VSW-LIGPREP-001-in.maegz

>  <s_sd_BIOSOLVEIT.INFINISEE\_QUERY\_NAME>  (366) 
Ref-Lig

>  <s_sd_BIOSOLVEIT.INFINISEE\_QUERY\_SMILES>  (366) 
S(c1nc2c(cc1C[NH2+]Cc3ccc(cc3)C[NH+](C)C)cccc2)Cc4ccccc4

>  <s_sd_BIOSOLVEIT.INFINISEE\_REACTION\_NAME>  (366) 
rxn502c

>  <s_sd_BIOSOLVEIT.INFINISEE\_REAGENT1\_NAME>  (366) 
EMOL492224

>  <s_sd_BIOSOLVEIT.INFINISEE\_REAGENT1\_SMILES>  (366) 
O=C(O)c1cc(ccc1)C(=O)C

>  <s_sd_BIOSOLVEIT.INFINISEE\_REAGENT2\_NAME>  (366) 
EMOL29936549

>  <s_sd_BIOSOLVEIT.INFINISEE\_REAGENT2\_SMILES>  (366) 
Clc1c2c(c(nc1)N)cccc2

>  <s_sd_BIOSOLVEIT.INFINISEE\_REAGENT3\_NAME>  (366) 
EMOL50155899

>  <s_sd_BIOSOLVEIT.INFINISEE\_REAGENT3\_SMILES>  (366) 
N(Cc1ccc(cc1)CN)(C)C

>  <s_sd_BIOSOLVEIT.INFINISEE\_SPACE>  (366) 
eXplore_7tr_2022-12

>  <s_vsw_compound_code>  (366) 
73953

>  <s_vsw_variant>  (366) 
73953-1

>  <r_epik_Charging_Adjusted_Penalty>  (366) 
0.078407994868761793

>  <r_epik_Ionization_Penalty>  (366) 
0.039300000000000002

>  <r_epik_Ionization_Penalty_Charging>  (366) 
0.039199999999999999

>  <r_epik_Ionization_Penalty_Neutral>  (366) 
0.0001

>  <r_epik_State_Penalty>  (366) 
0.039199999999999999

>  <r_i_docking_score>  (366) 
-4.7879965770976396

>  <r_i_glide_ecoul>  (366) 
-8.1858186721801793

>  <r_i_glide_eff_state_penalty>  (366) 
0.039199999999999999

>  <r_i_glide_einternal>  (366) 
7.9995465278625497

>  <r_i_glide_emodel>  (366) 
-54.351707219961703

>  <r_i_glide_energy>  (366) 
-40.563172340393102

>  <r_i_glide_erotb>  (366) 
0.68308159863740003

>  <r_i_glide_esite>  (366) 
-0.10103908543786699

>  <r_i_glide_evdw>  (366) 
-32.377353668212898

>  <r_i_glide_gscore>  (366) 
-4.8271965770976397

>  <r_i_glide_hbond>  (366) 
-0.20000000000000001

>  <r_i_glide_ligand_efficiency>  (366) 
-0.140823428738166

>  <r_i_glide_ligand_efficiency_ln>  (366) 
-1.0578027426358501

>  <r_i_glide_ligand_efficiency_sa>  (366) 
-0.45621324110026401

>  <r_i_glide_lipo>  (366) 
-2.0003167299129898

>  <r_i_glide_metal>  (366) 
-0

>  <r_i_glide_rewards>  (366) 
-0.36218187614651498

>  <r_lp_Energy>  (366) 
36.651355000000002

>  <r_lp_tautomer_probability>  (366) 
0.99995000000000001

>  <r_qp_ACxDN^.5/SA>  (366) 
0.014360899999999999

>  <r_qp_CIQPlogS>  (366) 
-5.2510000000000003

>  <r_qp_EA(eV)>  (366) 
0.96699999999999997

>  <r_qp_FISA>  (366) 
128.785

>  <r_qp_FOSA>  (366) 
305.51799999999997

>  <r_qp_IP(eV)>  (366) 
7.8220000000000001

>  <r_qp_Jm>  (366) 
0.00014052653423245401

>  <r_qp_PISA>  (366) 
402.74900000000002

>  <r_qp_PSA>  (366) 
90.441000000000003

>  <r_qp_PercentHumanOralAbsorption>  (366) 
89.581999999999994

>  <r_qp_QPPCaco>  (366) 
148.434

>  <r_qp_QPPMDCK>  (366) 
69.623000000000005

>  <r_qp_QPlogBB>  (366) 
-1.0129999999999999

>  <r_qp_QPlogHERG>  (366) 
-8.0869999999999997

>  <r_qp_QPlogKhsa>  (366) 
0.625

>  <r_qp_QPlogKp>  (366) 
-3.7690000000000001

>  <r_qp_QPlogPC16>  (366) 
16.68

>  <r_qp_QPlogPo/w>  (366) 
4.0599999999999996

>  <r_qp_QPlogPoct>  (366) 
26.013999999999999

>  <r_qp_QPlogPw>  (366) 
14.885999999999999

>  <r_qp_QPlogS>  (366) 
-5.7389999999999999

>  <r_qp_QPpolrz>  (366) 
52.755000000000003

>  <r_qp_SASA>  (366) 
837.05200000000002

>  <r_qp_SAamideO>  (366) 
0

>  <r_qp_SAfluorine>  (366) 
0

>  <r_qp_WPSA>  (366) 
0

>  <r_qp_accptHB>  (366) 
8.5

>  <r_qp_dip^2/V>  (366) 
0.068915900000000002

>  <r_qp_dipole>  (366) 
10.182

>  <r_qp_donorHB>  (366) 
2

>  <r_qp_glob>  (366) 
0.75849909999999998

>  <r_qp_mol_MW>  (366) 
452.55500000000001

>  <r_qp_volume>  (366) 
1504.2280000000001

>  <r_sd_BIOSOLVEIT.INFINISEE\_FTREES\_SIMILARITY>  (366) 
0.92200000000000004

>  <r_sd_BIOSOLVEIT.LOGP>  (366) 
3.9462999999999999

>  <r_sd_BIOSOLVEIT.MOLECULAR\_WEIGHT>  (366) 
453.56299999999999

>  <r_sd_BIOSOLVEIT.TPSA>  (366) 
75.530000000000001

>  <i_epik_Tot_Q>  (366) 
1

>  <i_epik_Tot_abs_Q>  (366) 
1

>  <i_f3d_flags>  (366) 
0

>  <i_i_glide_confnum>  (366) 
5

>  <i_i_glide_lignum>  (366) 
822

>  <i_i_glide_posenum>  (366) 
15

>  <i_i_glide_rotatable_bonds>  (366) 
9

>  <i_lp_mmshare_version>  (366) 
65135

>  <i_m_ct_format>  (366) 
2

>  <i_m_source_file_index>  (366) 
2312

>  <i_qp_#NandO>  (366) 
6

>  <i_qp_#acid>  (366) 
0

>  <i_qp_#amide>  (366) 
0

>  <i_qp_#amidine>  (366) 
0

>  <i_qp_#amine>  (366) 
1

>  <i_qp_#in34>  (366) 
0

>  <i_qp_#in56>  (366) 
22

>  <i_qp_#metab>  (366) 
7

>  <i_qp_#nonHatm>  (366) 
34

>  <i_qp_#noncon>  (366) 
0

>  <i_qp_#ringatoms>  (366) 
22

>  <i_qp_#rotor>  (366) 
8

>  <i_qp_#rtvFG>  (366) 
0

>  <i_qp_#stars>  (366) 
1

>  <i_qp_CNS>  (366) 
-2

>  <i_qp_HumanOralAbsorption>  (366) 
3

>  <i_qp_RuleOfFive>  (366) 
0

>  <i_qp_RuleOfThree>  (366) 
2

>  <i_sd_BIOSOLVEIT.INFINISEE\_RESULT\_RANK>  (366) 
12753

>  <i_sd_version>  (366) 
0

>  <b_lp_Chiralities_Consistent>  (366) 
1

>  <b_sd_chiral_flag>  (366) 
0

>  <canonical_id>  (366) 
ATP-HTVS-3B615F85BA41

>  <compound_code>  (366) 
73953

>  <title>  (366) 
rxn502c____EMOL492224____EMOL29936549____EMOL50155899

>  <variant>  (366) 
73953-1

>  <source_file>  (366) 
运行/运行/ATP-VSW/ATP-VSW-DOCK_HTVS_1-001_lib/ATP-VSW-DOCK_HTVS_1-001_lib

>  <canonical_smiles>  (366) 
CC(=O)c1cccc(C(=O)Nc2ncc(NCc3ccc(C[NH+](C)C)cc3)c3ccccc23)c1

>  <scaffold>  (366) 
O=C(Nc1ncc(NCc2ccccc2)c2ccccc12)c1ccccc1

>  <molecular_formula>  (366) 
C28H29N4O2+

$$$$
ATP-HTVS-3B760C3B8D5C
     RDKit          3D

 63 66  0  0  0  0  0  0  0  0999 V2000
  198.0859  179.4553  155.0192 O   0  0  0  0  0  0  0  0  0  0  0  0
  197.5288  180.2064  154.2179 C   0  0  0  0  0  0  0  0  0  0  0  0
  197.1051  181.4505  154.5251 N   0  0  0  0  0  0  0  0  0  0  0  0
  197.2165  182.1646  155.7528 C   0  0  0  0  0  0  0  0  0  0  0  0
  197.1530  183.5819  155.7280 C   0  0  0  0  0  0  0  0  0  0  0  0
  197.0249  184.2573  154.5004 N   0  0  0  0  0  0  0  0  0  0  0  0
  198.2287  184.3111  153.6817 C   0  0  1  0  0  0  0  0  0  0  0  0
  197.9484  184.5008  152.1978 C   0  0  0  0  0  0  0  0  0  0  0  0
  198.3488  185.6707  151.5210 C   0  0  0  0  0  0  0  0  0  0  0  0
  198.1122  185.7881  150.1298 C   0  0  0  0  0  0  0  0  0  0  0  0
  197.4937  184.7302  149.4111 C   0  0  0  0  0  0  0  0  0  0  0  0
  197.0926  183.5667  150.0990 C   0  0  0  0  0  0  0  0  0  0  0  0
  197.3160  183.4635  151.4865 C   0  0  0  0  0  0  0  0  0  0  0  0
  197.2809  184.8354  147.9070 C   0  0  1  0  0  0  0  0  0  0  0  0
  198.3918  184.2404  147.1183 N   0  0  1  0  0  0  0  0  0  0  0  0
  198.1248  184.3212  145.6633 C   0  0  2  0  0  0  0  0  0  0  0  0
  199.7330  184.7813  147.4551 C   0  0  2  0  0  0  0  0  0  0  0  0
  197.2278  184.3029  156.9583 C   0  0  0  0  0  0  0  0  0  0  0  0
  197.3664  183.5780  158.1699 C   0  0  0  0  0  0  0  0  0  0  0  0
  197.4283  182.2361  158.1339 N   0  0  0  0  0  0  0  0  0  0  0  0
  197.3675  181.5117  156.9957 C   0  0  0  0  0  0  0  0  0  0  0  0
  197.4360  184.2462  159.4104 C   0  0  0  0  0  0  0  0  0  0  0  0
  197.3626  185.6504  159.4535 C   0  0  0  0  0  0  0  0  0  0  0  0
  197.2220  186.3855  158.2605 C   0  0  0  0  0  0  0  0  0  0  0  0
  197.1559  185.7163  157.0173 C   0  0  0  0  0  0  0  0  0  0  0  0
  197.3676  179.8307  152.7607 C   0  0  0  0  0  0  0  0  0  0  0  0
  198.3073  179.0000  152.0851 C   0  0  0  0  0  0  0  0  0  0  0  0
  199.3940  178.5259  152.7958 O   0  0  0  0  0  0  0  0  0  0  0  0
  200.2733  177.6076  152.1602 C   0  0  2  0  0  0  0  0  0  0  0  0
  198.1174  178.7201  150.7055 C   0  0  0  0  0  0  0  0  0  0  0  0
  197.0343  179.2637  149.9941 C   0  0  0  0  0  0  0  0  0  0  0  0
  196.1091  180.0804  150.6616 C   0  0  0  0  0  0  0  0  0  0  0  0
  196.2618  180.3269  152.0331 C   0  0  0  0  0  0  0  0  0  0  0  0
  196.7636  182.0093  153.7542 H   0  0  0  0  0  0  0  0  0  0  0  0
  196.1833  184.0153  153.9843 H   0  0  0  0  0  0  0  0  0  0  0  0
  198.8804  185.0964  154.0544 H   0  0  0  0  0  0  0  0  0  0  0  0
  198.7917  183.3778  153.7775 H   0  0  0  0  0  0  0  0  0  0  0  0
  198.8484  186.4562  152.0699 H   0  0  0  0  0  0  0  0  0  0  0  0
  198.4422  186.6780  149.6162 H   0  0  0  0  0  0  0  0  0  0  0  0
  196.6404  182.7474  149.5606 H   0  0  0  0  0  0  0  0  0  0  0  0
  197.0331  182.5819  152.0275 H   0  0  0  0  0  0  0  0  0  0  0  0
  196.3497  184.3269  147.6423 H   0  0  0  0  0  0  0  0  0  0  0  0
  197.1464  185.8831  147.6364 H   0  0  0  0  0  0  0  0  0  0  0  0
  198.0863  185.3626  145.3392 H   0  0  0  0  0  0  0  0  0  0  0  0
  197.1779  183.8451  145.4100 H   0  0  0  0  0  0  0  0  0  0  0  0
  198.9113  183.8211  145.0980 H   0  0  0  0  0  0  0  0  0  0  0  0
  199.7720  185.8591  147.2896 H   0  0  0  0  0  0  0  0  0  0  0  0
  200.5056  184.3121  146.8475 H   0  0  0  0  0  0  0  0  0  0  0  0
  199.9976  184.5842  148.4951 H   0  0  0  0  0  0  0  0  0  0  0  0
  197.4361  180.4412  157.1330 H   0  0  0  0  0  0  0  0  0  0  0  0
  197.5418  183.6887  160.3300 H   0  0  0  0  0  0  0  0  0  0  0  0
  197.4164  186.1650  160.4035 H   0  0  0  0  0  0  0  0  0  0  0  0
  197.1628  187.4623  158.3070 H   0  0  0  0  0  0  0  0  0  0  0  0
  197.0358  186.2978  156.1124 H   0  0  0  0  0  0  0  0  0  0  0  0
  201.0205  177.2817  152.8802 H   0  0  0  0  0  0  0  0  0  0  0  0
  200.7961  178.0790  151.3278 H   0  0  0  0  0  0  0  0  0  0  0  0
  199.7464  176.7199  151.8071 H   0  0  0  0  0  0  0  0  0  0  0  0
  198.8029  178.0907  150.1518 H   0  0  0  0  0  0  0  0  0  0  0  0
  196.9186  179.0742  148.9321 H   0  0  0  0  0  0  0  0  0  0  0  0
  195.2831  180.5302  150.1316 H   0  0  0  0  0  0  0  0  0  0  0  0
  195.5392  180.9485  152.5126 H   0  0  0  0  0  0  0  0  0  0  0  0
  198.4180  183.2583  147.3574 H   0  0  0  0  0  0  0  0  0  0  0  0
  197.5150  181.7204  159.0157 H   0  0  0  0  0  0  0  0  0  0  0  0
  1  2  2  0
  2  3  1  0
  2 26  1  0
  3  4  1  0
  3 34  1  0
  4  5  2  0
  4 21  1  0
  5  6  1  0
  5 18  1  0
  6  7  1  0
  6 35  1  0
  7  8  1  0
  7 36  1  1
  7 37  1  0
  8  9  1  0
  8 13  2  0
  9 10  2  0
  9 38  1  0
 10 11  1  0
 10 39  1  0
 11 12  2  0
 11 14  1  0
 12 13  1  0
 12 40  1  0
 13 41  1  0
 14 15  1  0
 14 42  1  1
 14 43  1  0
 15 16  1  0
 15 17  1  0
 15 62  1  1
 16 44  1  6
 16 45  1  0
 16 46  1  0
 17 47  1  1
 17 48  1  0
 17 49  1  0
 18 19  1  0
 18 25  2  0
 19 20  1  0
 19 22  2  0
 20 21  2  0
 20 63  1  0
 21 50  1  0
 22 23  1  0
 22 51  1  0
 23 24  2  0
 23 52  1  0
 24 25  1  0
 24 53  1  0
 25 54  1  0
 26 27  1  0
 26 33  2  0
 27 28  1  0
 27 30  2  0
 28 29  1  0
 29 55  1  1
 29 56  1  0
 29 57  1  0
 30 31  1  0
 30 58  1  0
 31 32  2  0
 31 59  1  0
 32 33  1  0
 32 60  1  0
 33 61  1  0
M  CHG  2  15   1  20   1
M  END
>  <s_epik_cmdline>  (367) 
J2VwaWtfcHl0aG9uJywgJy1waCcsICc3LjAwMDAwMCcsICctcGh0JywgJzIuMDAwMDAwJywgJy1tcycsICcxNicsICctdG4nLCAnOCcsICctbWEnLCAnMjAwJywgJy1pbWFlJywgJzxpbmZpbGUubWFlPicsICctb21hZScsICc8b3V0ZmlsZS5tYWU+Jw==

>  <s_epik_input>  (367) 
W2NIXTFbY0hdW2NIXVtjSF1jKE9bQ0gzXSljMUMoPU8pW05IXWMoW2NIXW5jKGMyMylbY0hdW2NIXVtjSF1bY0hdMyljMltOSF1bQ0gyXWM0W2NIXVtjSF1jKFtjSF1bY0hdNClbQ0gyXU4oW0NIM10pW0NIM10=

>  <s_i_glide_gridfile>  (367) 
ATP-Grid

>  <s_lp_Force_Field>  (367) 
OPLS_2005

>  <s_lp_Variant>  (367) 
rxn502b____EMOL485008____EMOL30488121____EMOL50155899-1

>  <s_lp_label>  (367) 
2245_sdstereoexpander_1_neutralizer_1_epik_1_stereoizer_1

>  <s_m_source_file>  (367) 
ATP-VSW-LIGPREP-003-in.maegz

>  <s_sd_BIOSOLVEIT.INFINISEE\_QUERY\_NAME>  (367) 
Ref-Lig

>  <s_sd_BIOSOLVEIT.INFINISEE\_QUERY\_SMILES>  (367) 
S(c1nc2c(cc1C[NH2+]Cc3ccc(cc3)C[NH+](C)C)cccc2)Cc4ccccc4

>  <s_sd_BIOSOLVEIT.INFINISEE\_REACTION\_NAME>  (367) 
rxn502b

>  <s_sd_BIOSOLVEIT.INFINISEE\_REAGENT1\_NAME>  (367) 
EMOL485008

>  <s_sd_BIOSOLVEIT.INFINISEE\_REAGENT1\_SMILES>  (367) 
O=C(O)c1c(OC)cccc1

>  <s_sd_BIOSOLVEIT.INFINISEE\_REAGENT2\_NAME>  (367) 
EMOL30488121

>  <s_sd_BIOSOLVEIT.INFINISEE\_REAGENT2\_SMILES>  (367) 
Brc1c(N)cnc2c1cccc2

>  <s_sd_BIOSOLVEIT.INFINISEE\_REAGENT3\_NAME>  (367) 
EMOL50155899

>  <s_sd_BIOSOLVEIT.INFINISEE\_REAGENT3\_SMILES>  (367) 
N(Cc1ccc(cc1)CN)(C)C

>  <s_sd_BIOSOLVEIT.INFINISEE\_SPACE>  (367) 
eXplore_7tr_2022-12

>  <s_vsw_compound_code>  (367) 
71811

>  <s_vsw_variant>  (367) 
71811-1

>  <r_epik_Charging_Adjusted_Penalty>  (367) 
0.24057739898594899

>  <r_epik_Ionization_Penalty>  (367) 
0.1203

>  <r_epik_Ionization_Penalty_Charging>  (367) 
0.1203

>  <r_epik_Ionization_Penalty_Neutral>  (367) 
0

>  <r_epik_State_Penalty>  (367) 
0.1203

>  <r_i_docking_score>  (367) 
-5.1444299487098197

>  <r_i_glide_ecoul>  (367) 
-7.7531895637512198

>  <r_i_glide_eff_state_penalty>  (367) 
0.1203

>  <r_i_glide_einternal>  (367) 
2.0867953300476101

>  <r_i_glide_emodel>  (367) 
-64.656197771882901

>  <r_i_glide_energy>  (367) 
-43.802311420440702

>  <r_i_glide_erotb>  (367) 
0.71426143273689402

>  <r_i_glide_esite>  (367) 
-0.11066882527589

>  <r_i_glide_evdw>  (367) 
-36.049121856689503

>  <r_i_glide_gscore>  (367) 
-5.26472994870982

>  <r_i_glide_hbond>  (367) 
-0.082790392079231098

>  <r_i_glide_ligand_efficiency>  (367) 
-0.15589181662757001

>  <r_i_glide_ligand_efficiency_ln>  (367) 
-1.14409458416034

>  <r_i_glide_ligand_efficiency_sa>  (367) 
-0.50002835301556103

>  <r_i_glide_lipo>  (367) 
-2.2034115003307999

>  <r_i_glide_metal>  (367) 
-0

>  <r_i_glide_rewards>  (367) 
-0.61668613636363501

>  <r_lp_Energy>  (367) 
46.923855000000003

>  <r_lp_tautomer_probability>  (367) 
1

>  <r_qp_ACxDN^.5/SA>  (367) 
0.013291600000000001

>  <r_qp_CIQPlogS>  (367) 
-5.4950000000000001

>  <r_qp_EA(eV)>  (367) 
0.94099999999999995

>  <r_qp_FISA>  (367) 
71.670000000000002

>  <r_qp_FOSA>  (367) 
285.15300000000002

>  <r_qp_IP(eV)>  (367) 
8.5069999999999997

>  <r_qp_Jm>  (367) 
0.0084524780660973405

>  <r_qp_PISA>  (367) 
414.56900000000002

>  <r_qp_PSA>  (367) 
66.768000000000001

>  <r_qp_PercentHumanOralAbsorption>  (367) 
100

>  <r_qp_QPPCaco>  (367) 
516.59799999999996

>  <r_qp_QPPMDCK>  (367) 
268.029

>  <r_qp_QPlogBB>  (367) 
-0.27200000000000002

>  <r_qp_QPlogHERG>  (367) 
-7.5199999999999996

>  <r_qp_QPlogKhsa>  (367) 
0.70699999999999996

>  <r_qp_QPlogKp>  (367) 
-2.6739999999999999

>  <r_qp_QPlogPC16>  (367) 
15.465

>  <r_qp_QPlogPo/w>  (367) 
4.5679999999999996

>  <r_qp_QPlogPoct>  (367) 
24.047999999999998

>  <r_qp_QPlogPw>  (367) 
13.189

>  <r_qp_QPlogS>  (367) 
-5.0430000000000001

>  <r_qp_QPpolrz>  (367) 
50.030000000000001

>  <r_qp_SASA>  (367) 
771.39200000000005

>  <r_qp_SAamideO>  (367) 
0

>  <r_qp_SAfluorine>  (367) 
0

>  <r_qp_WPSA>  (367) 
0

>  <r_qp_accptHB>  (367) 
7.25

>  <r_qp_dip^2/V>  (367) 
0.050993900000000002

>  <r_qp_dipole>  (367) 
8.5489999999999995

>  <r_qp_donorHB>  (367) 
2

>  <r_qp_glob>  (367) 
0.79699070000000005

>  <r_qp_mol_MW>  (367) 
440.54399999999998

>  <r_qp_volume>  (367) 
1433.326

>  <r_sd_BIOSOLVEIT.INFINISEE\_FTREES\_SIMILARITY>  (367) 
0.92700000000000005

>  <r_sd_BIOSOLVEIT.LOGP>  (367) 
3.7523

>  <r_sd_BIOSOLVEIT.MOLECULAR\_WEIGHT>  (367) 
441.55200000000002

>  <r_sd_BIOSOLVEIT.TPSA>  (367) 
67.689999999999998

>  <i_epik_Tot_Q>  (367) 
2

>  <i_epik_Tot_abs_Q>  (367) 
2

>  <i_f3d_flags>  (367) 
0

>  <i_i_glide_confnum>  (367) 
10

>  <i_i_glide_lignum>  (367) 
916

>  <i_i_glide_posenum>  (367) 
15

>  <i_i_glide_rotatable_bonds>  (367) 
9

>  <i_lp_mmshare_version>  (367) 
65135

>  <i_m_ct_format>  (367) 
2

>  <i_m_source_file_index>  (367) 
2245

>  <i_qp_#NandO>  (367) 
6

>  <i_qp_#acid>  (367) 
0

>  <i_qp_#amide>  (367) 
0

>  <i_qp_#amidine>  (367) 
0

>  <i_qp_#amine>  (367) 
1

>  <i_qp_#in34>  (367) 
0

>  <i_qp_#in56>  (367) 
22

>  <i_qp_#metab>  (367) 
7

>  <i_qp_#nonHatm>  (367) 
33

>  <i_qp_#noncon>  (367) 
0

>  <i_qp_#ringatoms>  (367) 
22

>  <i_qp_#rotor>  (367) 
8

>  <i_qp_#rtvFG>  (367) 
0

>  <i_qp_#stars>  (367) 
0

>  <i_qp_CNS>  (367) 
1

>  <i_qp_HumanOralAbsorption>  (367) 
3

>  <i_qp_RuleOfFive>  (367) 
0

>  <i_qp_RuleOfThree>  (367) 
1

>  <i_sd_BIOSOLVEIT.INFINISEE\_RESULT\_RANK>  (367) 
7292

>  <i_sd_version>  (367) 
0

>  <b_lp_Chiralities_Consistent>  (367) 
1

>  <b_sd_chiral_flag>  (367) 
0

>  <canonical_id>  (367) 
ATP-HTVS-3B760C3B8D5C

>  <compound_code>  (367) 
71811

>  <title>  (367) 
rxn502b____EMOL485008____EMOL30488121____EMOL50155899

>  <variant>  (367) 
71811-1

>  <source_file>  (367) 
运行/运行/ATP-VSW/ATP-VSW-DOCK_HTVS_1-003_lib/ATP-VSW-DOCK_HTVS_1-003_lib.mae

>  <canonical_smiles>  (367) 
COc1ccccc1C(=O)Nc1c[nH+]c2ccccc2c1NCc1ccc(C[NH+](C)C)cc1

>  <scaffold>  (367) 
O=C(Nc1c[nH+]c2ccccc2c1NCc1ccccc1)c1ccccc1

>  <molecular_formula>  (367) 
C27H30N4O2+2

$$$$
ATP-HTVS-3B9AE635146A
     RDKit          3D

 63 66  0  0  0  0  0  0  0  0999 V2000
  198.5508  180.0251  153.7843 N   0  0  0  0  0  0  0  0  0  0  0  0
  197.8191  180.9702  154.3981 C   0  0  0  0  0  0  0  0  0  0  0  0
  197.1176  181.8373  153.5485 N   0  0  0  0  0  0  0  0  0  0  0  0
  197.2524  183.2799  153.7112 C   0  0  1  0  0  0  0  0  0  0  0  0
  197.3793  184.0395  152.4049 C   0  0  0  0  0  0  0  0  0  0  0  0
  198.2271  185.1681  152.2634 C   0  0  0  0  0  0  0  0  0  0  0  0
  198.3152  185.8136  151.0040 C   0  0  0  0  0  0  0  0  0  0  0  0
  197.5557  185.3614  149.9100 C   0  0  0  0  0  0  0  0  0  0  0  0
  196.6834  184.2714  150.0643 C   0  0  0  0  0  0  0  0  0  0  0  0
  196.5892  183.6244  151.3104 C   0  0  0  0  0  0  0  0  0  0  0  0
  199.0723  185.7132  153.4163 C   0  0  1  0  0  0  0  0  0  0  0  0
  198.3323  186.6461  154.3155 N   0  0  2  0  0  0  0  0  0  0  0  0
  199.2554  187.4858  155.1163 C   0  0  2  0  0  0  0  0  0  0  0  0
  197.2940  186.0174  155.1628 C   0  0  2  0  0  0  0  0  0  0  0  0
  197.8162  181.1001  155.8266 C   0  0  0  0  0  0  0  0  0  0  0  0
  198.5399  180.2501  156.5788 N   0  0  0  0  0  0  0  0  0  0  0  0
  199.2747  179.3042  155.9572 C   0  0  0  0  0  0  0  0  0  0  0  0
  199.2930  179.1996  154.5341 C   0  0  0  0  0  0  0  0  0  0  0  0
  200.1091  178.2354  153.9234 C   0  0  0  0  0  0  0  0  0  0  0  0
  200.8683  177.3403  154.6981 C   0  0  0  0  0  0  0  0  0  0  0  0
  200.8236  177.4126  156.1029 C   0  0  0  0  0  0  0  0  0  0  0  0
  200.0246  178.3956  156.7169 C   0  0  0  0  0  0  0  0  0  0  0  0
  197.0974  182.1157  156.4675 N   0  0  0  0  0  0  0  0  0  0  0  0
  196.7432  182.0080  157.8855 C   0  0  1  0  0  0  0  0  0  0  0  0
  196.5866  183.3671  158.5358 C   0  0  0  0  0  0  0  0  0  0  0  0
  195.3328  183.8616  158.9659 C   0  0  0  0  0  0  0  0  0  0  0  0
  195.2639  185.1389  159.5645 C   0  0  0  0  0  0  0  0  0  0  0  0
  196.4271  185.9186  159.7309 C   0  0  0  0  0  0  0  0  0  0  0  0
  196.3469  187.1803  160.3206 N   0  0  0  0  0  0  0  0  0  0  0  0
  197.6706  185.4211  159.2952 C   0  0  0  0  0  0  0  0  0  0  0  0
  197.7447  184.1490  158.6984 C   0  0  0  0  0  0  0  0  0  0  0  0
  194.0590  183.0562  158.7939 C   0  0  2  0  0  0  0  0  0  0  0  0
  196.4266  181.4411  152.9173 H   0  0  0  0  0  0  0  0  0  0  0  0
  196.3797  183.6773  154.2145 H   0  0  0  0  0  0  0  0  0  0  0  0
  198.1022  183.4386  154.3707 H   0  0  0  0  0  0  0  0  0  0  0  0
  198.9774  186.6559  150.8610 H   0  0  0  0  0  0  0  0  0  0  0  0
  197.6361  185.8432  148.9474 H   0  0  0  0  0  0  0  0  0  0  0  0
  196.0910  183.9232  149.2279 H   0  0  0  0  0  0  0  0  0  0  0  0
  195.8992  182.8011  151.4133 H   0  0  0  0  0  0  0  0  0  0  0  0
  199.5675  184.9099  153.9675 H   0  0  0  0  0  0  0  0  0  0  0  0
  199.9050  186.2613  152.9680 H   0  0  0  0  0  0  0  0  0  0  0  0
  199.8519  186.8718  155.7926 H   0  0  0  0  0  0  0  0  0  0  0  0
  198.6950  188.1983  155.7208 H   0  0  0  0  0  0  0  0  0  0  0  0
  199.9378  188.0569  154.4888 H   0  0  0  0  0  0  0  0  0  0  0  0
  197.7393  185.2582  155.8127 H   0  0  0  0  0  0  0  0  0  0  0  0
  196.5147  185.5173  154.5554 H   0  0  0  0  0  0  0  0  0  0  0  0
  196.8265  186.7682  155.8263 H   0  0  0  0  0  0  0  0  0  0  0  0
  200.1524  178.1792  152.8449 H   0  0  0  0  0  0  0  0  0  0  0  0
  201.4863  176.5883  154.2223 H   0  0  0  0  0  0  0  0  0  0  0  0
  201.3925  176.7234  156.7097 H   0  0  0  0  0  0  0  0  0  0  0  0
  199.9675  178.4449  157.7977 H   0  0  0  0  0  0  0  0  0  0  0  0
  196.4103  182.6068  155.9104 H   0  0  0  0  0  0  0  0  0  0  0  0
  195.8337  181.4088  157.9766 H   0  0  0  0  0  0  0  0  0  0  0  0
  197.5046  181.4807  158.4663 H   0  0  0  0  0  0  0  0  0  0  0  0
  194.3073  185.5237  159.8893 H   0  0  0  0  0  0  0  0  0  0  0  0
  197.1782  187.7042  160.5503 H   0  0  0  0  0  0  0  0  0  0  0  0
  195.4824  187.5175  160.7150 H   0  0  0  0  0  0  0  0  0  0  0  0
  198.5698  186.0092  159.4173 H   0  0  0  0  0  0  0  0  0  0  0  0
  198.6978  183.7674  158.3634 H   0  0  0  0  0  0  0  0  0  0  0  0
  193.1927  183.5839  159.1984 H   0  0  0  0  0  0  0  0  0  0  0  0
  194.1424  182.1000  159.3084 H   0  0  0  0  0  0  0  0  0  0  0  0
  193.8714  182.8650  157.7382 H   0  0  0  0  0  0  0  0  0  0  0  0
  197.8088  187.2747  153.7295 H   0  0  0  0  0  0  0  0  0  0  0  0
  1  2  2  0
  1 18  1  0
  2  3  1  0
  2 15  1  0
  3  4  1  0
  3 33  1  0
  4  5  1  0
  4 34  1  1
  4 35  1  0
  5  6  1  0
  5 10  2  0
  6  7  2  0
  6 11  1  0
  7  8  1  0
  7 36  1  0
  8  9  2  0
  8 37  1  0
  9 10  1  0
  9 38  1  0
 10 39  1  0
 11 12  1  0
 11 40  1  1
 11 41  1  0
 12 13  1  0
 12 14  1  0
 12 63  1  6
 13 42  1  1
 13 43  1  0
 13 44  1  0
 14 45  1  1
 14 46  1  0
 14 47  1  0
 15 16  2  0
 15 23  1  0
 16 17  1  0
 17 18  1  0
 17 22  2  0
 18 19  2  0
 19 20  1  0
 19 48  1  0
 20 21  2  0
 20 49  1  0
 21 22  1  0
 21 50  1  0
 22 51  1  0
 23 24  1  0
 23 52  1  0
 24 25  1  0
 24 53  1  6
 24 54  1  0
 25 26  2  0
 25 31  1  0
 26 27  1  0
 26 32  1  0
 27 28  2  0
 27 55  1  0
 28 29  1  0
 28 30  1  0
 29 56  1  0
 29 57  1  0
 30 31  2  0
 30 58  1  0
 31 59  1  0
 32 60  1  1
 32 61  1  0
 32 62  1  0
M  CHG  1  12   1
M  END
>  <s_epik_cmdline>  (368) 
J2VwaWtfcHl0aG9uJywgJy1waCcsICc3LjAwMDAwMCcsICctcGh0JywgJzIuMDAwMDAwJywgJy1tcycsICcxNicsICctdG4nLCAnOCcsICctbWEnLCAnMjAwJywgJy1pbWFlJywgJzxpbmZpbGUubWFlPicsICctb21hZScsICc8b3V0ZmlsZS5tYWU+Jw==

>  <s_epik_input>  (368) 
W2NIXTFbY0hdW2NIXVtjSF1jKFtDSDJdTihbQ0gzXSlbQ0gzXSljMVtDSDJdW05IXWMobmMoYzIzKVtjSF1bY0hdW2NIXVtjSF0zKWMobjIpW05IXVtDSDJdYzRjKFtDSDNdKVtjSF1jKFtOSDJdKVtjSF1bY0hdNA==

>  <s_i_glide_gridfile>  (368) 
ATP-Grid

>  <s_lp_Force_Field>  (368) 
OPLS_2005

>  <s_lp_Variant>  (368) 
m_282030aaa____21927700____23157418____21977402-1

>  <s_lp_label>  (368) 
1997_sdstereoexpander_1_neutralizer_1_epik_1_stereoizer_1

>  <s_m_source_file>  (368) 
ATP-VSW-LIGPREP-002-in.maegz

>  <s_sd_BIOSOLVEIT.INFINISEE\_QUERY\_NAME>  (368) 
Ref-Lig

>  <s_sd_BIOSOLVEIT.INFINISEE\_QUERY\_SMILES>  (368) 
S(c1nc2c(cc1C[NH2+]Cc3ccc(cc3)C[NH+](C)C)cccc2)Cc4ccccc4

>  <s_sd_BIOSOLVEIT.INFINISEE\_REACTION\_NAME>  (368) 
m_282030aaa

>  <s_sd_BIOSOLVEIT.INFINISEE\_REAGENT1\_SMILES>  (368) 
[R1*]NCc1c(cccc1)CN(C)C

>  <s_sd_BIOSOLVEIT.INFINISEE\_REAGENT2\_SMILES>  (368) 
[R1*]c1nc2c(nc1[R2*])cccc2

>  <s_sd_BIOSOLVEIT.INFINISEE\_REAGENT3\_SMILES>  (368) 
[R2*]NCc1c(cc(N)cc1)C

>  <s_sd_BIOSOLVEIT.INFINISEE\_SPACE>  (368) 
REALSpace_44bn_2023-08

>  <s_vsw_compound_code>  (368) 
63874

>  <s_vsw_variant>  (368) 
63874-1

>  <r_epik_Charging_Adjusted_Penalty>  (368) 
0.10505632330023

>  <r_epik_Ionization_Penalty>  (368) 
0.067100000000000007

>  <r_epik_Ionization_Penalty_Charging>  (368) 
0.038300000000000001

>  <r_epik_Ionization_Penalty_Neutral>  (368) 
0.028799999999999999

>  <r_epik_State_Penalty>  (368) 
0.066699999999999995

>  <r_i_docking_score>  (368) 
-4.2693392124639198

>  <r_i_glide_ecoul>  (368) 
-6.3962931632995597

>  <r_i_glide_eff_state_penalty>  (368) 
0.066699999999999995

>  <r_i_glide_einternal>  (368) 
11.746314048767101

>  <r_i_glide_emodel>  (368) 
-56.1717994301912

>  <r_i_glide_energy>  (368) 
-46.040801525116002

>  <r_i_glide_erotb>  (368) 
0.76030325106258601

>  <r_i_glide_esite>  (368) 
-0.095966900220886706

>  <r_i_glide_evdw>  (368) 
-39.644508361816399

>  <r_i_glide_gscore>  (368) 
-4.3360392124639198

>  <r_i_glide_hbond>  (368) 
0

>  <r_i_glide_ligand_efficiency>  (368) 
-0.13341685038949699

>  <r_i_glide_ligand_efficiency_ln>  (368) 
-0.95602142746222796

>  <r_i_glide_ligand_efficiency_sa>  (368) 
-0.42357209682781399

>  <r_i_glide_lipo>  (368) 
-1.56482803435623

>  <r_i_glide_metal>  (368) 
-0

>  <r_i_glide_rewards>  (368) 
-0.49387813636363498

>  <r_lp_Energy>  (368) 
31.493231999999999

>  <r_qp_ACxDN^.5/SA>  (368) 
0.014081099999999999

>  <r_qp_CIQPlogS>  (368) 
-5.5439999999999996

>  <r_qp_EA(eV)>  (368) 
0.60999999999999999

>  <r_qp_FISA>  (368) 
82.980000000000004

>  <r_qp_FOSA>  (368) 
247.46899999999999

>  <r_qp_IP(eV)>  (368) 
7.8499999999999996

>  <r_qp_Jm>  (368) 
0.0033700703190210398

>  <r_qp_PISA>  (368) 
466.714

>  <r_qp_PSA>  (368) 
71.876999999999995

>  <r_qp_PercentHumanOralAbsorption>  (368) 
100

>  <r_qp_QPPCaco>  (368) 
403.54899999999998

>  <r_qp_QPPMDCK>  (368) 
205.23400000000001

>  <r_qp_QPlogBB>  (368) 
-0.503

>  <r_qp_QPlogHERG>  (368) 
-8.1329999999999991

>  <r_qp_QPlogKhsa>  (368) 
0.78200000000000003

>  <r_qp_QPlogKp>  (368) 
-2.6030000000000002

>  <r_qp_QPlogPC16>  (368) 
16.457000000000001

>  <r_qp_QPlogPo/w>  (368) 
4.8040000000000003

>  <r_qp_QPlogPoct>  (368) 
25.497

>  <r_qp_QPlogPw>  (368) 
14.428000000000001

>  <r_qp_QPlogS>  (368) 
-5.4989999999999997

>  <r_qp_QPpolrz>  (368) 
50.253

>  <r_qp_SASA>  (368) 
797.16300000000001

>  <r_qp_SAamideO>  (368) 
0

>  <r_qp_SAfluorine>  (368) 
0

>  <r_qp_WPSA>  (368) 
0

>  <r_qp_accptHB>  (368) 
6

>  <r_qp_dip^2/V>  (368) 
0.041175700000000003

>  <r_qp_dipole>  (368) 
7.7069999999999999

>  <r_qp_donorHB>  (368) 
3.5

>  <r_qp_glob>  (368) 
0.77451360000000002

>  <r_qp_mol_MW>  (368) 
426.56299999999999

>  <r_qp_volume>  (368) 
1442.5039999999999

>  <r_sd_BIOSOLVEIT.INFINISEE\_FTREES\_SIMILARITY>  (368) 
0.90200000000000002

>  <r_sd_BIOSOLVEIT.LOGP>  (368) 
3.3891200000000001

>  <r_sd_BIOSOLVEIT.MOLECULAR\_WEIGHT>  (368) 
427.57299999999998

>  <r_sd_BIOSOLVEIT.TPSA>  (368) 
80.299999999999997

>  <i_epik_Tot_Q>  (368) 
1

>  <i_epik_Tot_abs_Q>  (368) 
1

>  <i_f3d_flags>  (368) 
0

>  <i_i_glide_confnum>  (368) 
6

>  <i_i_glide_lignum>  (368) 
724

>  <i_i_glide_posenum>  (368) 
5

>  <i_i_glide_rotatable_bonds>  (368) 
8

>  <i_lp_mmshare_version>  (368) 
65135

>  <i_m_ct_format>  (368) 
2

>  <i_m_source_file_index>  (368) 
1997

>  <i_qp_#NandO>  (368) 
6

>  <i_qp_#acid>  (368) 
0

>  <i_qp_#amide>  (368) 
0

>  <i_qp_#amidine>  (368) 
0

>  <i_qp_#amine>  (368) 
1

>  <i_qp_#in34>  (368) 
0

>  <i_qp_#in56>  (368) 
22

>  <i_qp_#metab>  (368) 
7

>  <i_qp_#nonHatm>  (368) 
32

>  <i_qp_#noncon>  (368) 
0

>  <i_qp_#ringatoms>  (368) 
22

>  <i_qp_#rotor>  (368) 
9

>  <i_qp_#rtvFG>  (368) 
0

>  <i_qp_#stars>  (368) 
2

>  <i_qp_CNS>  (368) 
0

>  <i_qp_HumanOralAbsorption>  (368) 
3

>  <i_qp_RuleOfFive>  (368) 
0

>  <i_qp_RuleOfThree>  (368) 
1

>  <i_sd_BIOSOLVEIT.INFINISEE\_REAGENT1\_NAME>  (368) 
21927700

>  <i_sd_BIOSOLVEIT.INFINISEE\_REAGENT2\_NAME>  (368) 
23157418

>  <i_sd_BIOSOLVEIT.INFINISEE\_REAGENT3\_NAME>  (368) 
21977402

>  <i_sd_BIOSOLVEIT.INFINISEE\_RESULT\_RANK>  (368) 
90559

>  <i_sd_version>  (368) 
0

>  <b_lp_Chiralities_Consistent>  (368) 
1

>  <b_sd_chiral_flag>  (368) 
0

>  <canonical_id>  (368) 
ATP-HTVS-3B9AE635146A

>  <compound_code>  (368) 
63874

>  <title>  (368) 
m_282030aaa____21927700____23157418____21977402

>  <variant>  (368) 
63874-1

>  <source_file>  (368) 
运行/运行/ATP-VSW/ATP-VSW-DOCK_HTVS_1-002_lib.maegz

>  <canonical_smiles>  (368) 
Cc1cc(N)ccc1CNc1nc2ccccc2nc1NCc1ccccc1C[NH+](C)C

>  <scaffold>  (368) 
c1ccc(CNc2nc3ccccc3nc2NCc2ccccc2)cc1

>  <molecular_formula>  (368) 
C26H31N6+

$$$$
ATP-HTVS-3BC1681A99C2
     RDKit          3D

 52 54  0  0  0  0  0  0  0  0999 V2000
  196.3634  181.2493  151.7956 S   0  0  0  0  0  0  0  0  0  0  0  0
  197.1382  182.6289  152.5804 C   0  0  0  0  0  0  0  0  0  0  0  0
  197.3538  182.4273  153.8882 N   0  0  0  0  0  0  0  0  0  0  0  0
  196.8289  181.1979  154.3430 C   0  0  0  0  0  0  0  0  0  0  0  0
  196.3707  180.3905  153.3334 C   0  0  0  0  0  0  0  0  0  0  0  0
  196.8015  180.9341  155.8117 C   0  0  1  0  0  0  0  0  0  0  0  0
  196.0952  182.0120  156.5460 N   0  0  1  0  0  0  0  0  0  0  0  0
  195.8797  181.7097  157.9778 C   0  0  1  0  0  0  0  0  0  0  0  0
  195.6591  182.9762  158.7777 C   0  0  0  0  0  0  0  0  0  0  0  0
  196.7517  183.6612  159.3504 C   0  0  0  0  0  0  0  0  0  0  0  0
  196.5336  184.8318  160.0999 C   0  0  0  0  0  0  0  0  0  0  0  0
  195.2266  185.3236  160.3112 C   0  0  0  0  0  0  0  0  0  0  0  0
  195.0733  186.4680  161.1068 N   0  0  0  0  0  0  0  0  0  0  0  0
  193.7950  187.1418  161.3070 C   0  0  1  0  0  0  0  0  0  0  0  0
  193.2431  186.8976  162.7064 C   0  0  2  0  0  0  0  0  0  0  0  0
  194.1386  184.6294  159.7341 C   0  0  0  0  0  0  0  0  0  0  0  0
  194.3539  183.4701  158.9652 C   0  0  0  0  0  0  0  0  0  0  0  0
  197.5327  183.8445  151.9108 N   0  0  0  0  0  0  0  0  0  0  0  0
  197.8184  183.6962  150.5022 C   0  0  0  0  0  0  0  0  0  0  0  0
  198.5600  182.5827  150.0365 C   0  0  0  0  0  0  0  0  0  0  0  0
  198.7990  182.3972  148.6580 C   0  0  0  0  0  0  0  0  0  0  0  0
  198.3495  183.3475  147.7224 C   0  0  0  0  0  0  0  0  0  0  0  0
  197.6444  184.4778  148.1669 C   0  0  0  0  0  0  0  0  0  0  0  0
  197.3659  184.6430  149.5431 C   0  0  0  0  0  0  0  0  0  0  0  0
  197.7244  185.0522  152.5339 C   0  0  0  0  0  0  0  0  0  0  0  0
  198.1996  186.0297  151.9523 O   0  0  0  0  0  0  0  0  0  0  0  0
  197.3928  185.2598  154.0266 C   0  0  2  0  0  0  0  0  0  0  0  0
  196.6531  182.8517  156.4917 H   0  0  0  0  0  0  0  0  0  0  0  0
  195.9607  179.3837  153.4005 H   0  0  0  0  0  0  0  0  0  0  0  0
  196.3282  179.9801  155.9964 H   0  0  0  0  0  0  0  0  0  0  0  0
  197.8162  180.8646  156.1919 H   0  0  0  0  0  0  0  0  0  0  0  0
  195.0026  181.0678  158.0811 H   0  0  0  0  0  0  0  0  0  0  0  0
  196.7323  181.1771  158.4056 H   0  0  0  0  0  0  0  0  0  0  0  0
  197.7545  183.2807  159.2218 H   0  0  0  0  0  0  0  0  0  0  0  0
  197.3816  185.3417  160.5337 H   0  0  0  0  0  0  0  0  0  0  0  0
  195.8958  186.9156  161.4897 H   0  0  0  0  0  0  0  0  0  0  0  0
  193.9698  188.2105  161.2056 H   0  0  0  0  0  0  0  0  0  0  0  0
  193.0456  186.8843  160.5565 H   0  0  0  0  0  0  0  0  0  0  0  0
  192.2938  187.4149  162.8397 H   0  0  0  0  0  0  0  0  0  0  0  0
  193.9436  187.2716  163.4536 H   0  0  0  0  0  0  0  0  0  0  0  0
  193.0714  185.8391  162.8874 H   0  0  0  0  0  0  0  0  0  0  0  0
  193.1180  184.9402  159.8656 H   0  0  0  0  0  0  0  0  0  0  0  0
  193.5075  182.9488  158.5330 H   0  0  0  0  0  0  0  0  0  0  0  0
  198.9465  181.8441  150.7173 H   0  0  0  0  0  0  0  0  0  0  0  0
  199.3197  181.5066  148.3239 H   0  0  0  0  0  0  0  0  0  0  0  0
  198.5466  183.1988  146.6720 H   0  0  0  0  0  0  0  0  0  0  0  0
  197.3024  185.2128  147.4569 H   0  0  0  0  0  0  0  0  0  0  0  0
  196.8012  185.5180  149.8425 H   0  0  0  0  0  0  0  0  0  0  0  0
  198.1915  184.8556  154.6359 H   0  0  0  0  0  0  0  0  0  0  0  0
  196.4332  184.8322  154.2985 H   0  0  0  0  0  0  0  0  0  0  0  0
  197.3399  186.3293  154.2780 H   0  0  0  0  0  0  0  0  0  0  0  0
  195.1917  182.2299  156.1371 H   0  0  0  0  0  0  0  0  0  0  0  0
  1  2  1  0
  1  5  1  0
  2  3  2  0
  2 18  1  0
  3  4  1  0
  4  5  2  0
  4  6  1  0
  5 29  1  0
  6  7  1  0
  6 30  1  6
  6 31  1  0
  7  8  1  0
  7 28  1  1
  7 52  1  0
  8  9  1  0
  8 32  1  6
  8 33  1  0
  9 10  1  0
  9 17  2  0
 10 11  2  0
 10 34  1  0
 11 12  1  0
 11 35  1  0
 12 13  1  0
 12 16  2  0
 13 14  1  0
 13 36  1  0
 14 15  1  0
 14 37  1  1
 14 38  1  0
 15 39  1  6
 15 40  1  0
 15 41  1  0
 16 17  1  0
 16 42  1  0
 17 43  1  0
 18 19  1  0
 18 25  1  0
 19 20  2  0
 19 24  1  0
 20 21  1  0
 20 44  1  0
 21 22  2  0
 21 45  1  0
 22 23  1  0
 22 46  1  0
 23 24  2  0
 23 47  1  0
 24 48  1  0
 25 26  2  0
 25 27  1  0
 27 49  1  1
 27 50  1  0
 27 51  1  0
M  CHG  1   7   1
M  END
>  <s_epik_cmdline>  (369) 
J2VwaWtfcHl0aG9uJywgJy1waCcsICc3LjAwMDAwMCcsICctcGh0JywgJzIuMDAwMDAwJywgJy1tcycsICcxNicsICctdG4nLCAnOCcsICctbWEnLCAnMjAwJywgJy1pbWFlJywgJzxpbmZpbGUubWFlPicsICctb21hZScsICc8b3V0ZmlsZS5tYWU+Jw==

>  <s_epik_input>  (369) 
W2NIXTFbY0hdW2NIXVtjSF1bY0hdYzFOKEMoPU8pW0NIM10pYzJzW2NIXWMobjIpW0NIMl1bTkhdW0NIMl1jM1tjSF1bY0hdYyhbY0hdW2NIXTMpW05IXVtDSDJdW0NIM10=

>  <s_i_glide_gridfile>  (369) 
ATP-Grid

>  <s_lp_Force_Field>  (369) 
OPLS_2005

>  <s_lp_Variant>  (369) 
m_270004bbb____23868358____12209754-1

>  <s_lp_label>  (369) 
1106_sdstereoexpander_1_neutralizer_1_epik_1_stereoizer_1

>  <s_m_source_file>  (369) 
ATP-VSW-LIGPREP-003-in.maegz

>  <s_sd_BIOSOLVEIT.INFINISEE\_QUERY\_NAME>  (369) 
Ref-Lig

>  <s_sd_BIOSOLVEIT.INFINISEE\_QUERY\_SMILES>  (369) 
S(c1nc2c(cc1C[NH2+]Cc3ccc(cc3)C[NH+](C)C)cccc2)Cc4ccccc4

>  <s_sd_BIOSOLVEIT.INFINISEE\_REACTION\_NAME>  (369) 
m_270004bbb

>  <s_sd_BIOSOLVEIT.INFINISEE\_REAGENT1\_SMILES>  (369) 
[R1*]NCc1ccc(NCC)cc1

>  <s_sd_BIOSOLVEIT.INFINISEE\_REAGENT2\_SMILES>  (369) 
[R1*]CC=1N=C(SC1)N(c2ccccc2)C(=O)C

>  <s_sd_BIOSOLVEIT.INFINISEE\_SPACE>  (369) 
REALSpace_44bn_2023-08

>  <s_vsw_compound_code>  (369) 
35363

>  <s_vsw_variant>  (369) 
35363-1

>  <r_epik_Charging_Adjusted_Penalty>  (369) 
0.19328221626155101

>  <r_epik_Ionization_Penalty>  (369) 
0.12809999999999999

>  <r_epik_Ionization_Penalty_Charging>  (369) 
0.12770000000000001

>  <r_epik_Ionization_Penalty_Neutral>  (369) 
0.00040000000000000002

>  <r_epik_State_Penalty>  (369) 
0.065600000000000006

>  <r_i_docking_score>  (369) 
-5.5104870884683104

>  <r_i_glide_ecoul>  (369) 
-10.9346313476562

>  <r_i_glide_eff_state_penalty>  (369) 
0.065600000000000006

>  <r_i_glide_einternal>  (369) 
4.0592937469482404

>  <r_i_glide_emodel>  (369) 
-66.501652095837699

>  <r_i_glide_energy>  (369) 
-45.742820739746101

>  <r_i_glide_erotb>  (369) 
0.93355921433771205

>  <r_i_glide_esite>  (369) 
-0.094669211982351606

>  <r_i_glide_evdw>  (369) 
-34.808189392089801

>  <r_i_glide_gscore>  (369) 
-5.5760870884683102

>  <r_i_glide_hbond>  (369) 
-0.20000000000000001

>  <r_i_glide_ligand_efficiency>  (369) 
-0.20409211438771499

>  <r_i_glide_ligand_efficiency_ln>  (369) 
-1.2827505467156499

>  <r_i_glide_ligand_efficiency_sa>  (369) 
-0.61227634249049101

>  <r_i_glide_lipo>  (369) 
-2.00934013481496

>  <r_i_glide_metal>  (369) 
-0

>  <r_i_glide_rewards>  (369) 
-0.82503278425577597

>  <r_lp_Energy>  (369) 
28.794671999999998

>  <r_lp_tautomer_probability>  (369) 
1

>  <r_qp_ACxDN^.5/SA>  (369) 
0.0134182

>  <r_qp_CIQPlogS>  (369) 
-4.1040000000000001

>  <r_qp_EA(eV)>  (369) 
1.006

>  <r_qp_FISA>  (369) 
72.046999999999997

>  <r_qp_FOSA>  (369) 
274.12200000000001

>  <r_qp_IP(eV)>  (369) 
8.0660000000000007

>  <r_qp_Jm>  (369) 
0.0092309727798156101

>  <r_qp_PISA>  (369) 
353.03800000000001

>  <r_qp_PSA>  (369) 
66.486999999999995

>  <r_qp_PercentHumanOralAbsorption>  (369) 
100

>  <r_qp_QPPCaco>  (369) 
512.36300000000006

>  <r_qp_QPPMDCK>  (369) 
432.05500000000001

>  <r_qp_QPlogBB>  (369) 
-0.222

>  <r_qp_QPlogHERG>  (369) 
-7.5590000000000002

>  <r_qp_QPlogKhsa>  (369) 
0.36099999999999999

>  <r_qp_QPlogKp>  (369) 
-2.8980000000000001

>  <r_qp_QPlogPC16>  (369) 
14.039

>  <r_qp_QPlogPo/w>  (369) 
3.75

>  <r_qp_QPlogPoct>  (369) 
21.439

>  <r_qp_QPlogPw>  (369) 
12.459

>  <r_qp_QPlogS>  (369) 
-4.7169999999999996

>  <r_qp_QPpolrz>  (369) 
43.671999999999997

>  <r_qp_SASA>  (369) 
737.76499999999999

>  <r_qp_SAamideO>  (369) 
0

>  <r_qp_SAfluorine>  (369) 
0

>  <r_qp_WPSA>  (369) 
38.558

>  <r_qp_accptHB>  (369) 
7

>  <r_qp_dip^2/V>  (369) 
0.0366094

>  <r_qp_dipole>  (369) 
6.8700000000000001

>  <r_qp_donorHB>  (369) 
2

>  <r_qp_glob>  (369) 
0.77644420000000003

>  <r_qp_mol_MW>  (369) 
380.50700000000001

>  <r_qp_volume>  (369) 
1289.125

>  <r_sd_BIOSOLVEIT.INFINISEE\_FTREES\_SIMILARITY>  (369) 
0.91300000000000003

>  <r_sd_BIOSOLVEIT.LOGP>  (369) 
3.5230999999999999

>  <r_sd_BIOSOLVEIT.MOLECULAR\_WEIGHT>  (369) 
381.52100000000002

>  <r_sd_BIOSOLVEIT.TPSA>  (369) 
61.840000000000003

>  <i_epik_Tot_Q>  (369) 
1

>  <i_epik_Tot_abs_Q>  (369) 
1

>  <i_f3d_flags>  (369) 
0

>  <i_i_glide_confnum>  (369) 
3

>  <i_i_glide_lignum>  (369) 
428

>  <i_i_glide_posenum>  (369) 
11

>  <i_i_glide_rotatable_bonds>  (369) 
9

>  <i_lp_mmshare_version>  (369) 
65135

>  <i_m_ct_format>  (369) 
2

>  <i_m_source_file_index>  (369) 
1106

>  <i_qp_#NandO>  (369) 
5

>  <i_qp_#acid>  (369) 
0

>  <i_qp_#amide>  (369) 
0

>  <i_qp_#amidine>  (369) 
0

>  <i_qp_#amine>  (369) 
1

>  <i_qp_#in34>  (369) 
0

>  <i_qp_#in56>  (369) 
17

>  <i_qp_#metab>  (369) 
7

>  <i_qp_#nonHatm>  (369) 
27

>  <i_qp_#noncon>  (369) 
0

>  <i_qp_#ringatoms>  (369) 
17

>  <i_qp_#rotor>  (369) 
8

>  <i_qp_#rtvFG>  (369) 
0

>  <i_qp_#stars>  (369) 
0

>  <i_qp_CNS>  (369) 
1

>  <i_qp_HumanOralAbsorption>  (369) 
3

>  <i_qp_RuleOfFive>  (369) 
0

>  <i_qp_RuleOfThree>  (369) 
1

>  <i_sd_BIOSOLVEIT.INFINISEE\_REAGENT1\_NAME>  (369) 
23868358

>  <i_sd_BIOSOLVEIT.INFINISEE\_REAGENT2\_NAME>  (369) 
12209754

>  <i_sd_BIOSOLVEIT.INFINISEE\_RESULT\_RANK>  (369) 
33695

>  <i_sd_version>  (369) 
0

>  <b_lp_Chiralities_Consistent>  (369) 
1

>  <b_sd_chiral_flag>  (369) 
0

>  <canonical_id>  (369) 
ATP-HTVS-3BC1681A99C2

>  <compound_code>  (369) 
35363

>  <title>  (369) 
m_270004bbb____23868358____12209754

>  <variant>  (369) 
35363-1

>  <source_file>  (369) 
运行/运行/ATP-VSW/ATP-VSW-DOCK_HTVS_1-003_lib/ATP-VSW-DOCK_HTVS_1-003_lib.mae

>  <canonical_smiles>  (369) 
CCNc1ccc(C[NH2+]Cc2csc(N(C(C)=O)c3ccccc3)n2)cc1

>  <scaffold>  (369) 
c1ccc(C[NH2+]Cc2csc(Nc3ccccc3)n2)cc1

>  <molecular_formula>  (369) 
C21H25N4OS+

$$$$
ATP-HTVS-3BCB6D34D9FC
     RDKit          3D

 49 51  0  0  0  0  0  0  0  0999 V2000
  200.1587  180.3589  156.9150 Cl  0  0  0  0  0  0  0  0  0  0  0  0
  198.8352  180.4949  155.8219 C   0  0  0  0  0  0  0  0  0  0  0  0
  198.9713  179.7513  154.2576 S   0  0  0  0  0  0  0  0  0  0  0  0
  197.4361  180.4410  153.7790 C   0  0  0  0  0  0  0  0  0  0  0  0
  196.9592  180.1572  152.4180 C   0  0  0  0  0  0  0  0  0  0  0  0
  195.9467  179.4825  152.2838 O   0  0  0  0  0  0  0  0  0  0  0  0
  197.6645  180.6153  151.3552 N   0  0  0  0  0  0  0  0  0  0  0  0
  197.3323  180.1916  149.9823 C   0  0  1  0  0  0  0  0  0  0  0  0
  197.8001  178.7788  149.6147 C   0  0  0  0  0  0  0  0  0  0  0  0
  198.3834  177.9009  150.5655 C   0  0  0  0  0  0  0  0  0  0  0  0
  198.7727  176.6017  150.1961 C   0  0  0  0  0  0  0  0  0  0  0  0
  198.6156  176.1668  148.8672 C   0  0  0  0  0  0  0  0  0  0  0  0
  198.0608  177.0379  147.9115 C   0  0  0  0  0  0  0  0  0  0  0  0
  197.6473  178.3328  148.2834 C   0  0  0  0  0  0  0  0  0  0  0  0
  198.8054  181.5333  151.4815 C   0  0  2  0  0  0  0  0  0  0  0  0
  196.8248  181.0898  154.8209 C   0  0  0  0  0  0  0  0  0  0  0  0
  197.6478  181.1580  155.9895 C   0  0  0  0  0  0  0  0  0  0  0  0
  197.2825  181.8534  157.1546 N   0  0  0  0  0  0  0  0  0  0  0  0
  195.9624  182.4170  157.3814 C   0  0  1  0  0  0  0  0  0  0  0  0
  195.9676  183.5977  158.3347 C   0  0  0  0  0  0  0  0  0  0  0  0
  197.0850  184.4611  158.3879 C   0  0  0  0  0  0  0  0  0  0  0  0
  197.0891  185.5808  159.2480 C   0  0  0  0  0  0  0  0  0  0  0  0
  198.1827  186.4540  159.3334 N   0  0  0  0  0  0  0  0  0  0  0  0
  199.3460  186.2868  158.4749 C   0  0  2  0  0  0  0  0  0  0  0  0
  195.9548  185.8361  160.0435 C   0  0  0  0  0  0  0  0  0  0  0  0
  194.8294  184.9924  159.9751 C   0  0  0  0  0  0  0  0  0  0  0  0
  194.8337  183.8725  159.1215 C   0  0  0  0  0  0  0  0  0  0  0  0
  196.2507  180.2584  149.8158 H   0  0  0  0  0  0  0  0  0  0  0  0
  197.7682  180.8801  149.2528 H   0  0  0  0  0  0  0  0  0  0  0  0
  198.5441  178.1860  151.5931 H   0  0  0  0  0  0  0  0  0  0  0  0
  199.1936  175.9432  150.9385 H   0  0  0  0  0  0  0  0  0  0  0  0
  198.9201  175.1687  148.5873 H   0  0  0  0  0  0  0  0  0  0  0  0
  197.9427  176.7052  146.8899 H   0  0  0  0  0  0  0  0  0  0  0  0
  197.2125  178.9879  147.5379 H   0  0  0  0  0  0  0  0  0  0  0  0
  198.6431  182.2843  152.2590 H   0  0  0  0  0  0  0  0  0  0  0  0
  199.0241  182.0785  150.5612 H   0  0  0  0  0  0  0  0  0  0  0  0
  199.6973  180.9617  151.7392 H   0  0  0  0  0  0  0  0  0  0  0  0
  195.8413  181.5264  154.7494 H   0  0  0  0  0  0  0  0  0  0  0  0
  197.9191  181.8416  157.9402 H   0  0  0  0  0  0  0  0  0  0  0  0
  195.5546  182.7890  156.4480 H   0  0  0  0  0  0  0  0  0  0  0  0
  195.2927  181.6323  157.7493 H   0  0  0  0  0  0  0  0  0  0  0  0
  197.9338  184.2621  157.7522 H   0  0  0  0  0  0  0  0  0  0  0  0
  198.1260  187.2767  159.9194 H   0  0  0  0  0  0  0  0  0  0  0  0
  200.0553  187.0955  158.6497 H   0  0  0  0  0  0  0  0  0  0  0  0
  199.0620  186.3098  157.4216 H   0  0  0  0  0  0  0  0  0  0  0  0
  199.8535  185.3427  158.6802 H   0  0  0  0  0  0  0  0  0  0  0  0
  195.9420  186.6886  160.7071 H   0  0  0  0  0  0  0  0  0  0  0  0
  193.9538  185.2070  160.5673 H   0  0  0  0  0  0  0  0  0  0  0  0
  193.9628  183.2356  159.0568 H   0  0  0  0  0  0  0  0  0  0  0  0
  1  2  1  0
  2  3  1  0
  2 17  2  0
  3  4  1  0
  4  5  1  0
  4 16  2  0
  5  6  2  0
  5  7  1  0
  7  8  1  0
  7 15  1  0
  8  9  1  0
  8 28  1  1
  8 29  1  0
  9 10  2  0
  9 14  1  0
 10 11  1  0
 10 30  1  0
 11 12  2  0
 11 31  1  0
 12 13  1  0
 12 32  1  0
 13 14  2  0
 13 33  1  0
 14 34  1  0
 15 35  1  1
 15 36  1  0
 15 37  1  0
 16 17  1  0
 16 38  1  0
 17 18  1  0
 18 19  1  0
 18 39  1  0
 19 20  1  0
 19 40  1  6
 19 41  1  0
 20 21  1  0
 20 27  2  0
 21 22  2  0
 21 42  1  0
 22 23  1  0
 22 25  1  0
 23 24  1  0
 23 43  1  0
 24 44  1  6
 24 45  1  0
 24 46  1  0
 25 26  2  0
 25 47  1  0
 26 27  1  0
 26 48  1  0
 27 49  1  0
M  END
>  <s_epik_cmdline>  (370) 
J2VwaWtfcHl0aG9uJywgJy1waCcsICc3LjAwMDAwMCcsICctcGh0JywgJzIuMDAwMDAwJywgJy1tcycsICcxNicsICctdG4nLCAnOCcsICctbWEnLCAnMjAwJywgJy1pbWFlJywgJzxpbmZpbGUubWFlPicsICctb21hZScsICc8b3V0ZmlsZS5tYWU+Jw==

>  <s_epik_input>  (370) 
W2NIXTFbY0hdW2NIXVtjSF1bY0hdYzFbQ0gyXU4oW0NIM10pQyg9TyljKHNjMkNsKVtjSF1jMltOSF1bQ0gyXWMzW2NIXWMoW05IXVtDSDNdKVtjSF1bY0hdW2NIXTM=

>  <s_i_glide_gridfile>  (370) 
ATP-Grid

>  <s_lp_Force_Field>  (370) 
OPLS_2005

>  <s_lp_Variant>  (370) 
rxn512b____EMOL480996____EMOL44846536____EMOL45491381-1

>  <s_lp_label>  (370) 
2583_sdstereoexpander_1_neutralizer_1_epik_1_stereoizer_1

>  <s_m_source_file>  (370) 
ATP-VSW-LIGPREP-003-in.maegz

>  <s_sd_BIOSOLVEIT.INFINISEE\_QUERY\_NAME>  (370) 
Ref-Lig

>  <s_sd_BIOSOLVEIT.INFINISEE\_QUERY\_SMILES>  (370) 
S(c1nc2c(cc1C[NH2+]Cc3ccc(cc3)C[NH+](C)C)cccc2)Cc4ccccc4

>  <s_sd_BIOSOLVEIT.INFINISEE\_REACTION\_NAME>  (370) 
rxn512b

>  <s_sd_BIOSOLVEIT.INFINISEE\_REAGENT1\_NAME>  (370) 
EMOL480996

>  <s_sd_BIOSOLVEIT.INFINISEE\_REAGENT1\_SMILES>  (370) 
N(Cc1ccccc1)C

>  <s_sd_BIOSOLVEIT.INFINISEE\_REAGENT2\_NAME>  (370) 
EMOL44846536

>  <s_sd_BIOSOLVEIT.INFINISEE\_REAGENT2\_SMILES>  (370) 
BrC1=C(Cl)SC(C(=O)O)=C1

>  <s_sd_BIOSOLVEIT.INFINISEE\_REAGENT3\_NAME>  (370) 
EMOL45491381

>  <s_sd_BIOSOLVEIT.INFINISEE\_REAGENT3\_SMILES>  (370) 
N(c1cc(ccc1)CN)C

>  <s_sd_BIOSOLVEIT.INFINISEE\_SPACE>  (370) 
eXplore_7tr_2022-12

>  <s_vsw_compound_code>  (370) 
82627

>  <s_vsw_variant>  (370) 
82627-1

>  <r_epik_Charging_Adjusted_Penalty>  (370) 
0.0070496588372806297

>  <r_epik_Ionization_Penalty>  (370) 
0.0071999999999999998

>  <r_epik_Ionization_Penalty_Charging>  (370) 
0

>  <r_epik_Ionization_Penalty_Neutral>  (370) 
0.0071999999999999998

>  <r_epik_State_Penalty>  (370) 
0.0070000000000000001

>  <r_i_docking_score>  (370) 
-3.7709131260117701

>  <r_i_glide_ecoul>  (370) 
-0.060958836227655397

>  <r_i_glide_eff_state_penalty>  (370) 
0.0070000000000000001

>  <r_i_glide_einternal>  (370) 
5.6211781501770002

>  <r_i_glide_emodel>  (370) 
-42.985324281775704

>  <r_i_glide_energy>  (370) 
-36.577995274215901

>  <r_i_glide_erotb>  (370) 
0.73520649783041003

>  <r_i_glide_esite>  (370) 
-0.067102640145200093

>  <r_i_glide_evdw>  (370) 
-36.517036437988303

>  <r_i_glide_gscore>  (370) 
-3.7779131260117702

>  <r_i_glide_hbond>  (370) 
0

>  <r_i_glide_ligand_efficiency>  (370) 
-0.13966344911154699

>  <r_i_glide_ligand_efficiency_ln>  (370) 
-0.877806407373936

>  <r_i_glide_ligand_efficiency_sa>  (370) 
-0.41899034687433301

>  <r_i_glide_lipo>  (370) 
-1.77724472532489

>  <r_i_glide_metal>  (370) 
-0

>  <r_i_glide_rewards>  (370) 
-0.83377661103852796

>  <r_lp_Energy>  (370) 
25.154948999999998

>  <r_lp_tautomer_probability>  (370) 
0.99999274205267796

>  <r_qp_ACxDN^.5/SA>  (370) 
0.0096948999999999994

>  <r_qp_CIQPlogS>  (370) 
-5.2400000000000002

>  <r_qp_EA(eV)>  (370) 
0.61799999999999999

>  <r_qp_FISA>  (370) 
61.369999999999997

>  <r_qp_FOSA>  (370) 
206.26300000000001

>  <r_qp_IP(eV)>  (370) 
8.1059999999999999

>  <r_qp_Jm>  (370) 
0.0012372690366115901

>  <r_qp_PISA>  (370) 
351.64800000000002

>  <r_qp_PSA>  (370) 
52.853999999999999

>  <r_qp_PercentHumanOralAbsorption>  (370) 
100

>  <r_qp_QPPCaco>  (370) 
646.88300000000004

>  <r_qp_QPPMDCK>  (370) 
1370.127

>  <r_qp_QPlogBB>  (370) 
0.13500000000000001

>  <r_qp_QPlogHERG>  (370) 
-7.524

>  <r_qp_QPlogKhsa>  (370) 
0.72499999999999998

>  <r_qp_QPlogKp>  (370) 
-2.802

>  <r_qp_QPlogPC16>  (370) 
14.281000000000001

>  <r_qp_QPlogPo/w>  (370) 
4.8659999999999997

>  <r_qp_QPlogPoct>  (370) 
21.120999999999999

>  <r_qp_QPlogPw>  (370) 
10.632

>  <r_qp_QPlogS>  (370) 
-5.7069999999999999

>  <r_qp_QPpolrz>  (370) 
43.595999999999997

>  <r_qp_SASA>  (370) 
729.35900000000004

>  <r_qp_SAamideO>  (370) 
0

>  <r_qp_SAfluorine>  (370) 
0

>  <r_qp_WPSA>  (370) 
110.078

>  <r_qp_accptHB>  (370) 
5

>  <r_qp_dip^2/V>  (370) 
0.069495600000000005

>  <r_qp_dipole>  (370) 
9.4000000000000004

>  <r_qp_donorHB>  (370) 
2

>  <r_qp_glob>  (370) 
0.77822999999999998

>  <r_qp_mol_MW>  (370) 
399.93700000000001

>  <r_qp_volume>  (370) 
1271.5309999999999

>  <r_sd_BIOSOLVEIT.INFINISEE\_FTREES\_SIMILARITY>  (370) 
0.91100000000000003

>  <r_sd_BIOSOLVEIT.LOGP>  (370) 
5.3274999999999997

>  <r_sd_BIOSOLVEIT.MOLECULAR\_WEIGHT>  (370) 
399.94299999999998

>  <r_sd_BIOSOLVEIT.TPSA>  (370) 
44.369999999999997

>  <i_epik_Tot_Q>  (370) 
0

>  <i_epik_Tot_abs_Q>  (370) 
0

>  <i_f3d_flags>  (370) 
0

>  <i_i_glide_confnum>  (370) 
6

>  <i_i_glide_lignum>  (370) 
1165

>  <i_i_glide_posenum>  (370) 
8

>  <i_i_glide_rotatable_bonds>  (370) 
8

>  <i_lp_mmshare_version>  (370) 
65135

>  <i_m_ct_format>  (370) 
2

>  <i_m_source_file_index>  (370) 
2583

>  <i_qp_#NandO>  (370) 
4

>  <i_qp_#acid>  (370) 
0

>  <i_qp_#amide>  (370) 
0

>  <i_qp_#amidine>  (370) 
0

>  <i_qp_#amine>  (370) 
1

>  <i_qp_#in34>  (370) 
0

>  <i_qp_#in56>  (370) 
17

>  <i_qp_#metab>  (370) 
7

>  <i_qp_#nonHatm>  (370) 
27

>  <i_qp_#noncon>  (370) 
0

>  <i_qp_#ringatoms>  (370) 
17

>  <i_qp_#rotor>  (370) 
7

>  <i_qp_#rtvFG>  (370) 
0

>  <i_qp_#stars>  (370) 
0

>  <i_qp_CNS>  (370) 
1

>  <i_qp_HumanOralAbsorption>  (370) 
3

>  <i_qp_RuleOfFive>  (370) 
0

>  <i_qp_RuleOfThree>  (370) 
2

>  <i_sd_BIOSOLVEIT.INFINISEE\_RESULT\_RANK>  (370) 
39559

>  <i_sd_version>  (370) 
0

>  <b_lp_Chiralities_Consistent>  (370) 
1

>  <b_sd_chiral_flag>  (370) 
0

>  <canonical_id>  (370) 
ATP-HTVS-3BCB6D34D9FC

>  <compound_code>  (370) 
82627

>  <title>  (370) 
rxn512b____EMOL480996____EMOL44846536____EMOL45491381

>  <variant>  (370) 
82627-1

>  <source_file>  (370) 
运行/运行/ATP-VSW/ATP-VSW-DOCK_HTVS_1-003_lib/ATP-VSW-DOCK_HTVS_1-003_lib.mae

>  <canonical_smiles>  (370) 
CNc1cccc(CNc2cc(C(=O)N(C)Cc3ccccc3)sc2Cl)c1

>  <scaffold>  (370) 
O=C(NCc1ccccc1)c1cc(NCc2ccccc2)cs1

>  <molecular_formula>  (370) 
C21H22ClN3OS

$$$$
ATP-HTVS-3BEA167C6DE4
     RDKit          3D

 60 62  0  0  0  0  0  0  0  0999 V2000
  198.6535  187.9141  158.8177 Br  0  0  0  0  0  0  0  0  0  0  0  0
  198.6197  187.2544  157.0269 C   0  0  0  0  0  0  0  0  0  0  0  0
  197.9210  186.0717  156.6597 C   0  0  0  0  0  0  0  0  0  0  0  0
  197.9598  185.6519  155.3098 C   0  0  0  0  0  0  0  0  0  0  0  0
  198.7057  186.3603  154.3524 C   0  0  0  0  0  0  0  0  0  0  0  0
  199.3799  187.5364  154.7161 C   0  0  0  0  0  0  0  0  0  0  0  0
  199.3285  187.9852  156.0489 C   0  0  0  0  0  0  0  0  0  0  0  0
  197.1621  185.2673  157.6274 C   0  0  0  0  0  0  0  0  0  0  0  0
  196.2682  185.8625  158.3959 N   0  0  0  0  0  0  0  0  0  0  0  0
  195.7842  184.8957  159.1952 N   0  0  0  0  0  0  0  0  0  0  0  0
  196.3109  183.6638  158.8840 C   0  0  0  0  0  0  0  0  0  0  0  0
  197.2072  183.8564  157.8701 C   0  0  0  0  0  0  0  0  0  0  0  0
  198.0735  182.8202  157.2074 C   0  0  1  0  0  0  0  0  0  0  0  0
  197.5405  182.4357  155.8753 N   0  0  1  0  0  0  0  0  0  0  0  0
  198.5860  181.9233  154.9505 C   0  0  1  0  0  0  0  0  0  0  0  0
  199.2325  180.6450  155.4627 C   0  0  0  0  0  0  0  0  0  0  0  0
  200.4075  180.6878  156.2484 C   0  0  0  0  0  0  0  0  0  0  0  0
  200.9761  179.4957  156.7428 C   0  0  0  0  0  0  0  0  0  0  0  0
  200.3679  178.2536  156.4502 C   0  0  0  0  0  0  0  0  0  0  0  0
  199.1943  178.2166  155.6781 C   0  0  0  0  0  0  0  0  0  0  0  0
  198.6382  179.4024  155.1686 C   0  0  0  0  0  0  0  0  0  0  0  0
  200.9847  176.9527  156.9246 C   0  0  1  0  0  0  0  0  0  0  0  0
  201.9474  176.3802  155.9465 N   0  0  1  0  0  0  0  0  0  0  0  0
  202.4423  175.0517  156.3658 C   0  0  2  0  0  0  0  0  0  0  0  0
  201.4579  176.3394  154.5432 C   0  0  2  0  0  0  0  0  0  0  0  0
  196.3403  181.5728  155.9574 C   0  0  2  0  0  0  0  0  0  0  0  0
  194.8122  185.2309  160.2092 C   0  0  1  0  0  0  0  0  0  0  0  0
  195.1301  186.5515  160.9290 C   0  0  1  0  0  0  0  0  0  0  0  0
  194.1832  186.8275  162.0182 C   0  0  0  0  0  0  0  0  0  0  0  0
  193.4384  187.0397  162.8804 N   0  0  0  0  0  0  0  0  0  0  0  0
  197.3956  184.7932  154.9797 H   0  0  0  0  0  0  0  0  0  0  0  0
  198.7289  186.0105  153.3333 H   0  0  0  0  0  0  0  0  0  0  0  0
  199.9240  188.0976  153.9708 H   0  0  0  0  0  0  0  0  0  0  0  0
  199.8375  188.8979  156.3282 H   0  0  0  0  0  0  0  0  0  0  0  0
  196.0282  182.7661  159.4157 H   0  0  0  0  0  0  0  0  0  0  0  0
  199.0791  183.2259  157.0914 H   0  0  0  0  0  0  0  0  0  0  0  0
  198.1806  181.9253  157.8250 H   0  0  0  0  0  0  0  0  0  0  0  0
  198.1507  181.7572  153.9612 H   0  0  0  0  0  0  0  0  0  0  0  0
  199.3568  182.6834  154.8150 H   0  0  0  0  0  0  0  0  0  0  0  0
  200.8801  181.6325  156.4721 H   0  0  0  0  0  0  0  0  0  0  0  0
  201.8755  179.5403  157.3407 H   0  0  0  0  0  0  0  0  0  0  0  0
  198.7149  177.2770  155.4610 H   0  0  0  0  0  0  0  0  0  0  0  0
  197.7436  179.3524  154.5636 H   0  0  0  0  0  0  0  0  0  0  0  0
  201.4862  177.1180  157.8799 H   0  0  0  0  0  0  0  0  0  0  0  0
  200.1808  176.2426  157.1299 H   0  0  0  0  0  0  0  0  0  0  0  0
  201.6198  174.3386  156.4323 H   0  0  0  0  0  0  0  0  0  0  0  0
  202.9373  175.0935  157.3315 H   0  0  0  0  0  0  0  0  0  0  0  0
  203.1631  174.6644  155.6463 H   0  0  0  0  0  0  0  0  0  0  0  0
  200.5637  175.7200  154.4664 H   0  0  0  0  0  0  0  0  0  0  0  0
  202.2059  175.9154  153.8736 H   0  0  0  0  0  0  0  0  0  0  0  0
  201.2180  177.3284  154.1509 H   0  0  0  0  0  0  0  0  0  0  0  0
  196.5545  180.6256  156.4475 H   0  0  0  0  0  0  0  0  0  0  0  0
  195.9477  181.3714  154.9605 H   0  0  0  0  0  0  0  0  0  0  0  0
  195.5508  182.0613  156.5253 H   0  0  0  0  0  0  0  0  0  0  0  0
  193.8295  185.2651  159.7369 H   0  0  0  0  0  0  0  0  0  0  0  0
  194.8053  184.4162  160.9303 H   0  0  0  0  0  0  0  0  0  0  0  0
  196.1314  186.5198  161.3564 H   0  0  0  0  0  0  0  0  0  0  0  0
  195.1042  187.3968  160.2426 H   0  0  0  0  0  0  0  0  0  0  0  0
  202.7418  177.0091  155.9653 H   0  0  0  0  0  0  0  0  0  0  0  0
  197.2123  183.2846  155.4499 H   0  0  0  0  0  0  0  0  0  0  0  0
  1  2  1  0
  2  3  1  0
  2  7  2  0
  3  4  2  0
  3  8  1  0
  4  5  1  0
  4 31  1  0
  5  6  2  0
  5 32  1  0
  6  7  1  0
  6 33  1  0
  7 34  1  0
  8  9  2  0
  8 12  1  0
  9 10  1  0
 10 11  1  0
 10 27  1  0
 11 12  2  0
 11 35  1  0
 12 13  1  0
 13 14  1  0
 13 36  1  6
 13 37  1  0
 14 15  1  0
 14 26  1  0
 14 60  1  6
 15 16  1  0
 15 38  1  6
 15 39  1  0
 16 17  1  0
 16 21  2  0
 17 18  2  0
 17 40  1  0
 18 19  1  0
 18 41  1  0
 19 20  2  0
 19 22  1  0
 20 21  1  0
 20 42  1  0
 21 43  1  0
 22 23  1  0
 22 44  1  1
 22 45  1  0
 23 24  1  0
 23 25  1  0
 23 59  1  6
 24 46  1  1
 24 47  1  0
 24 48  1  0
 25 49  1  1
 25 50  1  0
 25 51  1  0
 26 52  1  1
 26 53  1  0
 26 54  1  0
 27 28  1  0
 27 55  1  6
 27 56  1  0
 28 29  1  0
 28 57  1  1
 28 58  1  0
 29 30  3  0
M  CHG  2  14   1  23   1
M  END
>  <s_epik_cmdline>  (371) 
J2VwaWtfcHl0aG9uJywgJy1waCcsICc3LjAwMDAwMCcsICctcGh0JywgJzIuMDAwMDAwJywgJy1tcycsICcxNicsICctdG4nLCAnOCcsICctbWEnLCAnMjAwJywgJy1pbWFlJywgJzxpbmZpbGUubWFlPicsICctb21hZScsICc8b3V0ZmlsZS5tYWU+Jw==

>  <s_epik_input>  (371) 
W2NIXTFbY0hdW2NIXVtjSF1jKGMxQnIpLWMybm4oW0NIMl1bQ0gyXUMjTilbY0hdYzJbQ0gyXU4oW0NIM10pW0NIMl1jM1tjSF1bY0hdYyhbY0hdW2NIXTMpW0NIMl1OKFtDSDNdKVtDSDNd

>  <s_i_glide_gridfile>  (371) 
ATP-Grid

>  <s_lp_Force_Field>  (371) 
OPLS_2005

>  <s_lp_Variant>  (371) 
m_270004bca____10206040____24715140-1

>  <s_lp_label>  (371) 
1921_sdstereoexpander_1_neutralizer_1_epik_1_stereoizer_1

>  <s_m_source_file>  (371) 
ATP-VSW-LIGPREP-002-in.maegz

>  <s_sd_BIOSOLVEIT.INFINISEE\_QUERY\_NAME>  (371) 
Ref-Lig

>  <s_sd_BIOSOLVEIT.INFINISEE\_QUERY\_SMILES>  (371) 
S(c1nc2c(cc1C[NH2+]Cc3ccc(cc3)C[NH+](C)C)cccc2)Cc4ccccc4

>  <s_sd_BIOSOLVEIT.INFINISEE\_REACTION\_NAME>  (371) 
m_270004bca

>  <s_sd_BIOSOLVEIT.INFINISEE\_REAGENT1\_SMILES>  (371) 
[R1*]N(Cc1ccc(cc1)CN(C)C)C

>  <s_sd_BIOSOLVEIT.INFINISEE\_REAGENT2\_SMILES>  (371) 
[R1*]CC=1C(=NN(C1)CCC#N)c2c(Br)cccc2

>  <s_sd_BIOSOLVEIT.INFINISEE\_SPACE>  (371) 
REALSpace_44bn_2023-08

>  <s_vsw_compound_code>  (371) 
61442

>  <s_vsw_variant>  (371) 
61442-1

>  <r_epik_Charging_Adjusted_Penalty>  (371) 
0.56484616120168696

>  <r_epik_Ionization_Penalty>  (371) 
0.28370000000000001

>  <r_epik_Ionization_Penalty_Charging>  (371) 
0.28370000000000001

>  <r_epik_Ionization_Penalty_Neutral>  (371) 
0

>  <r_epik_State_Penalty>  (371) 
0.28120000000000001

>  <r_i_docking_score>  (371) 
-5.2263250933733696

>  <r_i_glide_ecoul>  (371) 
-11.7701110839844

>  <r_i_glide_eff_state_penalty>  (371) 
0.28120000000000001

>  <r_i_glide_einternal>  (371) 
2.1706347465515101

>  <r_i_glide_emodel>  (371) 
-67.658165828441199

>  <r_i_glide_energy>  (371) 
-45.069080352783203

>  <r_i_glide_erotb>  (371) 
0.64407761400306396

>  <r_i_glide_esite>  (371) 
-0.030946532511054298

>  <r_i_glide_evdw>  (371) 
-33.2989692687988

>  <r_i_glide_gscore>  (371) 
-5.5075250933733697

>  <r_i_glide_hbond>  (371) 
-0.26195340166270797

>  <r_i_glide_ligand_efficiency>  (371) 
-0.174210836445779

>  <r_i_glide_ligand_efficiency_ln>  (371) 
-1.1874780065872901

>  <r_i_glide_ligand_efficiency_sa>  (371) 
-0.54131357328003105

>  <r_i_glide_lipo>  (371) 
-1.24930472714999

>  <r_i_glide_metal>  (371) 
-0

>  <r_i_glide_rewards>  (371) 
-1.17893292001508

>  <r_lp_Energy>  (371) 
19.787927

>  <r_lp_tautomer_probability>  (371) 
1

>  <r_qp_ACxDN^.5/SA>  (371) 
0

>  <r_qp_CIQPlogS>  (371) 
-5.6539999999999999

>  <r_qp_EA(eV)>  (371) 
0.189

>  <r_qp_FISA>  (371) 
87.129000000000005

>  <r_qp_FOSA>  (371) 
343.45499999999998

>  <r_qp_IP(eV)>  (371) 
9.0210000000000008

>  <r_qp_Jm>  (371) 
4.58264454710764e-05

>  <r_qp_PISA>  (371) 
306.27499999999998

>  <r_qp_PSA>  (371) 
50.648000000000003

>  <r_qp_PercentHumanOralAbsorption>  (371) 
86.040000000000006

>  <r_qp_QPPCaco>  (371) 
91.930000000000007

>  <r_qp_QPPMDCK>  (371) 
82.725999999999999

>  <r_qp_QPlogBB>  (371) 
-0.014

>  <r_qp_QPlogHERG>  (371) 
-7.9539999999999997

>  <r_qp_QPlogKhsa>  (371) 
0.51300000000000001

>  <r_qp_QPlogKp>  (371) 
-5.3070000000000004

>  <r_qp_QPlogPC16>  (371) 
14.717000000000001

>  <r_qp_QPlogPo/w>  (371) 
4.0910000000000002

>  <r_qp_QPlogPoct>  (371) 
20.062000000000001

>  <r_qp_QPlogPw>  (371) 
9.2070000000000007

>  <r_qp_QPlogS>  (371) 
-4.7000000000000002

>  <r_qp_QPpolrz>  (371) 
48.192999999999998

>  <r_qp_SASA>  (371) 
783.57500000000005

>  <r_qp_SAamideO>  (371) 
0

>  <r_qp_SAfluorine>  (371) 
0

>  <r_qp_WPSA>  (371) 
46.716000000000001

>  <r_qp_accptHB>  (371) 
7

>  <r_qp_dip^2/V>  (371) 
0.0268522

>  <r_qp_dipole>  (371) 
6.1950000000000003

>  <r_qp_donorHB>  (371) 
0

>  <r_qp_glob>  (371) 
0.78313520000000003

>  <r_qp_mol_MW>  (371) 
466.423

>  <r_qp_volume>  (371) 
1429.316

>  <r_sd_BIOSOLVEIT.INFINISEE\_FTREES\_SIMILARITY>  (371) 
0.90300000000000002

>  <r_sd_BIOSOLVEIT.LOGP>  (371) 
2.08568

>  <r_sd_BIOSOLVEIT.MOLECULAR\_WEIGHT>  (371) 
468.44

>  <r_sd_BIOSOLVEIT.TPSA>  (371) 
50.490000000000002

>  <i_epik_Tot_Q>  (371) 
2

>  <i_epik_Tot_abs_Q>  (371) 
2

>  <i_f3d_flags>  (371) 
0

>  <i_i_glide_confnum>  (371) 
10

>  <i_i_glide_lignum>  (371) 
683

>  <i_i_glide_posenum>  (371) 
13

>  <i_i_glide_rotatable_bonds>  (371) 
9

>  <i_lp_mmshare_version>  (371) 
65135

>  <i_m_ct_format>  (371) 
2

>  <i_m_source_file_index>  (371) 
1921

>  <i_qp_#NandO>  (371) 
5

>  <i_qp_#acid>  (371) 
0

>  <i_qp_#amide>  (371) 
0

>  <i_qp_#amidine>  (371) 
0

>  <i_qp_#amine>  (371) 
2

>  <i_qp_#in34>  (371) 
0

>  <i_qp_#in56>  (371) 
17

>  <i_qp_#metab>  (371) 
6

>  <i_qp_#nonHatm>  (371) 
30

>  <i_qp_#noncon>  (371) 
0

>  <i_qp_#ringatoms>  (371) 
17

>  <i_qp_#rotor>  (371) 
9

>  <i_qp_#rtvFG>  (371) 
0

>  <i_qp_#stars>  (371) 
0

>  <i_qp_CNS>  (371) 
1

>  <i_qp_HumanOralAbsorption>  (371) 
3

>  <i_qp_RuleOfFive>  (371) 
0

>  <i_qp_RuleOfThree>  (371) 
0

>  <i_sd_BIOSOLVEIT.INFINISEE\_REAGENT1\_NAME>  (371) 
10206040

>  <i_sd_BIOSOLVEIT.INFINISEE\_REAGENT2\_NAME>  (371) 
24715140

>  <i_sd_BIOSOLVEIT.INFINISEE\_RESULT\_RANK>  (371) 
85827

>  <i_sd_version>  (371) 
0

>  <b_lp_Chiralities_Consistent>  (371) 
1

>  <b_sd_chiral_flag>  (371) 
0

>  <canonical_id>  (371) 
ATP-HTVS-3BEA167C6DE4

>  <compound_code>  (371) 
61442

>  <title>  (371) 
m_270004bca____10206040____24715140

>  <variant>  (371) 
61442-1

>  <source_file>  (371) 
运行/运行/ATP-VSW/ATP-VSW-DOCK_HTVS_1-002_lib.maegz

>  <canonical_smiles>  (371) 
C[NH+](C)Cc1ccc(C[N@@H+](C)Cc2cn(CCC#N)nc2-c2ccccc2Br)cc1

>  <scaffold>  (371) 
c1ccc(C[NH2+]Cc2c[nH]nc2-c2ccccc2)cc1

>  <molecular_formula>  (371) 
C24H30BrN5+2

$$$$
ATP-HTVS-3BFEB00B17A1
     RDKit          3D

 57 60  0  0  0  0  0  0  0  0999 V2000
  200.6198  186.1389  156.7029 O   0  0  0  0  0  0  0  0  0  0  0  0
  200.0339  186.4104  157.7767 C   0  0  0  0  0  0  0  0  0  0  0  0
  200.5769  186.8284  158.8215 O   0  0  0  0  0  0  0  0  0  0  0  0
  198.5152  186.1810  157.8173 C   0  0  2  0  0  0  0  0  0  0  0  0
  197.6703  187.3829  157.6904 N   0  0  0  0  0  0  0  0  0  0  0  0
  198.1131  188.6211  158.2076 C   0  0  0  0  0  0  0  0  0  0  0  0
  197.5830  189.0920  159.4395 C   0  0  0  0  0  0  0  0  0  0  0  0
  196.6029  188.3034  160.1193 N   0  0  0  0  0  0  0  0  0  0  0  0
  195.8354  188.6591  161.1681 C   0  0  0  0  0  0  0  0  0  0  0  0
  195.8516  189.7785  161.6689 O   0  0  0  0  0  0  0  0  0  0  0  0
  194.8854  187.5798  161.7207 C   0  0  1  0  0  0  0  0  0  0  0  0
  193.5140  188.0974  162.1670 C   0  0  0  0  0  0  0  0  0  0  0  0
  192.3454  187.3671  161.8336 C   0  0  0  0  0  0  0  0  0  0  0  0
  191.0768  187.8314  162.2361 C   0  0  0  0  0  0  0  0  0  0  0  0
  190.9523  189.0344  162.9645 C   0  0  0  0  0  0  0  0  0  0  0  0
  192.1108  189.7532  163.3093 C   0  0  0  0  0  0  0  0  0  0  0  0
  193.3720  189.2781  162.9401 C   0  0  0  0  0  0  0  0  0  0  0  0
  198.0831  190.3070  159.9665 C   0  0  0  0  0  0  0  0  0  0  0  0
  199.0528  190.9898  159.3326 N   0  0  0  0  0  0  0  0  0  0  0  0
  199.5806  190.5950  158.1605 C   0  0  0  0  0  0  0  0  0  0  0  0
  199.0814  189.4201  157.5371 C   0  0  0  0  0  0  0  0  0  0  0  0
  199.6044  189.0600  156.2767 C   0  0  0  0  0  0  0  0  0  0  0  0
  200.6758  189.7740  155.7215 C   0  0  0  0  0  0  0  0  0  0  0  0
  201.1815  190.9126  156.3671 C   0  0  0  0  0  0  0  0  0  0  0  0
  200.6240  191.3418  157.5834 C   0  0  0  0  0  0  0  0  0  0  0  0
  198.1597  185.3201  159.0560 C   0  0  1  0  0  0  0  0  0  0  0  0
  197.0148  184.3466  158.8685 C   0  0  0  0  0  0  0  0  0  0  0  0
  197.2894  183.0096  158.5151 C   0  0  0  0  0  0  0  0  0  0  0  0
  196.2392  182.0767  158.4072 C   0  0  0  0  0  0  0  0  0  0  0  0
  194.9046  182.4719  158.6465 C   0  0  0  0  0  0  0  0  0  0  0  0
  193.8324  181.4981  158.5587 C   0  0  0  0  0  0  0  0  0  0  0  0
  192.9306  180.6613  158.5141 C   0  0  0  0  0  0  0  0  0  0  0  0
  194.6265  183.8178  158.9733 C   0  0  0  0  0  0  0  0  0  0  0  0
  195.6797  184.7514  159.0709 C   0  0  0  0  0  0  0  0  0  0  0  0
  198.2817  185.5910  156.9248 H   0  0  0  0  0  0  0  0  0  0  0  0
  196.7411  187.1609  157.9899 H   0  0  0  0  0  0  0  0  0  0  0  0
  196.4549  187.3664  159.7441 H   0  0  0  0  0  0  0  0  0  0  0  0
  194.7099  186.8339  160.9599 H   0  0  0  0  0  0  0  0  0  0  0  0
  195.3646  187.0416  162.5316 H   0  0  0  0  0  0  0  0  0  0  0  0
  192.4101  186.4443  161.2670 H   0  0  0  0  0  0  0  0  0  0  0  0
  190.1859  187.2703  161.9823 H   0  0  0  0  0  0  0  0  0  0  0  0
  189.9818  189.4068  163.2675 H   0  0  0  0  0  0  0  0  0  0  0  0
  192.0478  190.6881  163.8473 H   0  0  0  0  0  0  0  0  0  0  0  0
  194.2237  189.8611  163.2571 H   0  0  0  0  0  0  0  0  0  0  0  0
  197.8029  190.7766  160.8960 H   0  0  0  0  0  0  0  0  0  0  0  0
  199.2182  188.1796  155.7601 H   0  0  0  0  0  0  0  0  0  0  0  0
  201.1246  189.4087  154.8138 H   0  0  0  0  0  0  0  0  0  0  0  0
  202.0088  191.4586  155.9255 H   0  0  0  0  0  0  0  0  0  0  0  0
  201.0102  192.2225  158.0735 H   0  0  0  0  0  0  0  0  0  0  0  0
  199.0199  184.7197  159.3611 H   0  0  0  0  0  0  0  0  0  0  0  0
  197.9576  185.9598  159.9115 H   0  0  0  0  0  0  0  0  0  0  0  0
  198.3082  182.6837  158.3375 H   0  0  0  0  0  0  0  0  0  0  0  0
  196.4710  181.0520  158.1522 H   0  0  0  0  0  0  0  0  0  0  0  0
  192.1579  179.9374  158.4738 H   0  0  0  0  0  0  0  0  0  0  0  0
  193.6133  184.1357  159.1486 H   0  0  0  0  0  0  0  0  0  0  0  0
  195.4622  185.7730  159.2983 H   0  0  0  0  0  0  0  0  0  0  0  0
  199.4229  191.8316  159.7907 H   0  0  0  0  0  0  0  0  0  0  0  0
  1  2  1  0
  2  3  2  0
  2  4  1  0
  4  5  1  0
  4 26  1  0
  4 35  1  6
  5  6  1  0
  5 36  1  0
  6  7  2  0
  6 21  1  0
  7  8  1  0
  7 18  1  0
  8  9  1  0
  8 37  1  0
  9 10  2  0
  9 11  1  0
 11 12  1  0
 11 38  1  6
 11 39  1  0
 12 13  2  0
 12 17  1  0
 13 14  1  0
 13 40  1  0
 14 15  2  0
 14 41  1  0
 15 16  1  0
 15 42  1  0
 16 17  2  0
 16 43  1  0
 17 44  1  0
 18 19  2  0
 18 45  1  0
 19 20  1  0
 19 57  1  0
 20 21  1  0
 20 25  2  0
 21 22  2  0
 22 23  1  0
 22 46  1  0
 23 24  2  0
 23 47  1  0
 24 25  1  0
 24 48  1  0
 25 49  1  0
 26 27  1  0
 26 50  1  1
 26 51  1  0
 27 28  1  0
 27 34  2  0
 28 29  2  0
 28 52  1  0
 29 30  1  0
 29 53  1  0
 30 31  1  0
 30 33  2  0
 31 32  3  0
 32 54  1  0
 33 34  1  0
 33 55  1  0
 34 56  1  0
M  CHG  2   1  -1  19   1
M  END
>  <s_epik_cmdline>  (372) 
J2VwaWtfcHl0aG9uJywgJy1waCcsICc3LjAwMDAwMCcsICctcGh0JywgJzIuMDAwMDAwJywgJy1tcycsICcxNicsICctdG4nLCAnOCcsICctbWEnLCAnMjAwJywgJy1pbWFlJywgJzxpbmZpbGUubWFlPicsICctb21hZScsICc8b3V0ZmlsZS5tYWU+Jw==

>  <s_epik_input>  (372) 
W0NIXSNDYyhbY0hdW2NIXTEpW2NIXVtjSF1jMVtDSDJdW0NASF0oQyg9TylbT0hdKVtOSF1jKGMoYzIzKVtjSF1bY0hdW2NIXVtjSF0zKWMoW2NIXW4yKVtOSF1DKD1PKVtDSDJdYzRbY0hdW2NIXVtjSF1bY0hdW2NIXTQ=

>  <s_i_glide_gridfile>  (372) 
ATP-Grid

>  <s_lp_Force_Field>  (372) 
OPLS_2005

>  <s_lp_Variant>  (372) 
rxn502b____EMOL530620____EMOL30488121____EMOL49863303-1

>  <s_lp_label>  (372) 
3013_sdstereoexpander_1_neutralizer_1_epik_1_stereoizer_1

>  <s_m_source_file>  (372) 
ATP-VSW-LIGPREP-002-in.maegz

>  <s_sd_BIOSOLVEIT.INFINISEE\_QUERY\_NAME>  (372) 
Ref-Lig

>  <s_sd_BIOSOLVEIT.INFINISEE\_QUERY\_SMILES>  (372) 
S(c1nc2c(cc1C[NH2+]Cc3ccc(cc3)C[NH+](C)C)cccc2)Cc4ccccc4

>  <s_sd_BIOSOLVEIT.INFINISEE\_REACTION\_NAME>  (372) 
rxn502b

>  <s_sd_BIOSOLVEIT.INFINISEE\_REAGENT1\_NAME>  (372) 
EMOL530620

>  <s_sd_BIOSOLVEIT.INFINISEE\_REAGENT1\_SMILES>  (372) 
ClC(=O)Cc1ccccc1

>  <s_sd_BIOSOLVEIT.INFINISEE\_REAGENT2\_NAME>  (372) 
EMOL30488121

>  <s_sd_BIOSOLVEIT.INFINISEE\_REAGENT2\_SMILES>  (372) 
Brc1c(N)cnc2c1cccc2

>  <s_sd_BIOSOLVEIT.INFINISEE\_REAGENT3\_NAME>  (372) 
EMOL49863303

>  <s_sd_BIOSOLVEIT.INFINISEE\_REAGENT3\_SMILES>  (372) 
O=C(O)C(N)Cc1ccc(C#C)cc1

>  <s_sd_BIOSOLVEIT.INFINISEE\_SPACE>  (372) 
eXplore_7tr_2022-12

>  <s_vsw_compound_code>  (372) 
96386

>  <s_vsw_variant>  (372) 
96386-1

>  <r_epik_Charging_Adjusted_Penalty>  (372) 
0.051060405578501902

>  <r_epik_Ionization_Penalty>  (372) 
0.025600000000000001

>  <r_epik_Ionization_Penalty_Charging>  (372) 
0.025600000000000001

>  <r_epik_Ionization_Penalty_Neutral>  (372) 
0

>  <r_epik_State_Penalty>  (372) 
0.025399999999999999

>  <r_i_docking_score>  (372) 
-3.0569270592160902

>  <r_i_glide_ecoul>  (372) 
-0.35007184743881198

>  <r_i_glide_eff_state_penalty>  (372) 
0.025399999999999999

>  <r_i_glide_einternal>  (372) 
7.4536776542663601

>  <r_i_glide_emodel>  (372) 
-42.450641437532099

>  <r_i_glide_energy>  (372) 
-38.638100564479799

>  <r_i_glide_erotb>  (372) 
0.79351979515049897

>  <r_i_glide_esite>  (372) 
-0.022550234096992999

>  <r_i_glide_evdw>  (372) 
-38.288028717041001

>  <r_i_glide_gscore>  (372) 
-3.0823270592160901

>  <r_i_glide_hbond>  (372) 
0

>  <r_i_glide_ligand_efficiency>  (372) 
-0.089909619388708603

>  <r_i_glide_ligand_efficiency_ln>  (372) 
-0.675360931280507

>  <r_i_glide_ligand_efficiency_sa>  (372) 
-0.29127226367765002

>  <r_i_glide_lipo>  (372) 
-1.4517965028680599

>  <r_i_glide_metal>  (372) 
-0

>  <r_i_glide_rewards>  (372) 
-0.43458790443367001

>  <r_lp_Energy>  (372) 
21.327124000000001

>  <r_qp_ACxDN^.5/SA>  (372) 
0.0174039

>  <r_qp_CIQPlogS>  (372) 
-6.8650000000000002

>  <r_qp_EA(eV)>  (372) 
1.1379999999999999

>  <r_qp_FISA>  (372) 
113.145

>  <r_qp_FOSA>  (372) 
97.290000000000006

>  <r_qp_IP(eV)>  (372) 
8.6720000000000006

>  <r_qp_Jm>  (372) 
0.51139355219326199

>  <r_qp_PISA>  (372) 
488.28199999999998

>  <r_qp_PSA>  (372) 
95.140000000000001

>  <r_qp_PercentHumanOralAbsorption>  (372) 
100

>  <r_qp_QPPCaco>  (372) 
212.10300000000001

>  <r_qp_QPPMDCK>  (372) 
117.724

>  <r_qp_QPlogBB>  (372) 
-1.0429999999999999

>  <r_qp_QPlogHERG>  (372) 
-4.6100000000000003

>  <r_qp_QPlogKhsa>  (372) 
0.33900000000000002

>  <r_qp_QPlogKp>  (372) 
-1.0209999999999999

>  <r_qp_QPlogPC16>  (372) 
15.675000000000001

>  <r_qp_QPlogPo/w>  (372) 
4.9100000000000001

>  <r_qp_QPlogPoct>  (372) 
25.5

>  <r_qp_QPlogPw>  (372) 
15.035

>  <r_qp_QPlogS>  (372) 
-4.923

>  <r_qp_QPpolrz>  (372) 
46.423999999999999

>  <r_qp_SASA>  (372) 
698.71699999999998

>  <r_qp_SAamideO>  (372) 
0

>  <r_qp_SAfluorine>  (372) 
0

>  <r_qp_WPSA>  (372) 
0

>  <r_qp_accptHB>  (372) 
6.5

>  <r_qp_dip^2/V>  (372) 
0.086194800000000002

>  <r_qp_dipole>  (372) 
10.754

>  <r_qp_donorHB>  (372) 
3.5

>  <r_qp_glob>  (372) 
0.84197180000000005

>  <r_qp_mol_MW>  (372) 
449.50799999999998

>  <r_qp_volume>  (372) 
1341.6859999999999

>  <r_sd_BIOSOLVEIT.INFINISEE\_FTREES\_SIMILARITY>  (372) 
0.90200000000000002

>  <r_sd_BIOSOLVEIT.LOGP>  (372) 
3.1703999999999999

>  <r_sd_BIOSOLVEIT.MOLECULAR\_WEIGHT>  (372) 
448.5

>  <r_sd_BIOSOLVEIT.TPSA>  (372) 
94.150000000000006

>  <i_epik_Tot_Q>  (372) 
0

>  <i_epik_Tot_abs_Q>  (372) 
2

>  <i_f3d_flags>  (372) 
0

>  <i_i_glide_confnum>  (372) 
4

>  <i_i_glide_lignum>  (372) 
76

>  <i_i_glide_posenum>  (372) 
20

>  <i_i_glide_rotatable_bonds>  (372) 
10

>  <i_lp_mmshare_version>  (372) 
65135

>  <i_m_ct_format>  (372) 
2

>  <i_m_source_file_index>  (372) 
3013

>  <i_qp_#NandO>  (372) 
6

>  <i_qp_#acid>  (372) 
1

>  <i_qp_#amide>  (372) 
0

>  <i_qp_#amidine>  (372) 
0

>  <i_qp_#amine>  (372) 
0

>  <i_qp_#in34>  (372) 
0

>  <i_qp_#in56>  (372) 
22

>  <i_qp_#metab>  (372) 
6

>  <i_qp_#nonHatm>  (372) 
34

>  <i_qp_#noncon>  (372) 
0

>  <i_qp_#ringatoms>  (372) 
22

>  <i_qp_#rotor>  (372) 
9

>  <i_qp_#rtvFG>  (372) 
0

>  <i_qp_#stars>  (372) 
1

>  <i_qp_CNS>  (372) 
-2

>  <i_qp_HumanOralAbsorption>  (372) 
3

>  <i_qp_RuleOfFive>  (372) 
0

>  <i_qp_RuleOfThree>  (372) 
0

>  <i_sd_BIOSOLVEIT.INFINISEE\_RESULT\_RANK>  (372) 
87234

>  <i_sd_version>  (372) 
0

>  <b_lp_Chiralities_Consistent>  (372) 
1

>  <b_sd_chiral_flag>  (372) 
0

>  <canonical_id>  (372) 
ATP-HTVS-3BFEB00B17A1

>  <compound_code>  (372) 
96386

>  <title>  (372) 
rxn502b____EMOL530620____EMOL30488121____EMOL49863303

>  <variant>  (372) 
96386-1

>  <source_file>  (372) 
运行/运行/ATP-VSW/ATP-VSW-DOCK_HTVS_1-003_lib/ATP-VSW-DOCK_HTVS_1-003_lib.mae

>  <canonical_smiles>  (372) 
C#Cc1ccc(C[C@@H](Nc2c(NC(=O)Cc3ccccc3)c[nH+]c3ccccc23)C(=O)[O-])cc1

>  <scaffold>  (372) 
O=C(Cc1ccccc1)Nc1c[nH+]c2ccccc2c1NCCc1ccccc1

>  <molecular_formula>  (372) 
C28H23N3O3

$$$$
ATP-HTVS-3C30D082388E
     RDKit          3D

 53 56  0  0  0  0  0  0  0  0999 V2000
  193.9280  181.0392  158.3456 O   0  0  0  0  0  0  0  0  0  0  0  0
  194.6012  182.2539  158.0893 C   0  0  1  0  0  0  0  0  0  0  0  0
  195.4294  182.6078  159.3379 C   0  0  1  0  0  0  0  0  0  0  0  0
  196.3505  183.6990  159.0765 N   0  0  0  0  0  0  0  0  0  0  0  0
  196.2066  184.9793  159.6372 C   0  0  0  0  0  0  0  0  0  0  0  0
  197.2549  185.9364  159.5086 C   0  0  0  0  0  0  0  0  0  0  0  0
  197.1065  187.2327  160.0550 C   0  0  0  0  0  0  0  0  0  0  0  0
  195.9413  187.5870  160.7547 C   0  0  0  0  0  0  0  0  0  0  0  0
  194.9072  186.6452  160.8971 C   0  0  0  0  0  0  0  0  0  0  0  0
  195.0319  185.3655  160.3288 C   0  0  0  0  0  0  0  0  0  0  0  0
  198.5500  185.6270  158.7749 C   0  0  1  0  0  0  0  0  0  0  0  0
  198.3373  185.7287  157.3189 N   0  0  1  0  0  0  0  0  0  0  0  0
  199.5498  185.5103  156.5092 C   0  0  1  0  0  0  0  0  0  0  0  0
  199.2558  185.7093  155.0570 C   0  0  0  0  0  0  0  0  0  0  0  0
  199.6592  186.8541  154.3674 N   0  0  0  0  0  0  0  0  0  0  0  0
  199.2188  186.6906  153.0367 C   0  0  0  0  0  0  0  0  0  0  0  0
  198.5930  185.5263  152.8998 N   0  0  0  0  0  0  0  0  0  0  0  0
  198.5997  184.8978  154.1407 C   0  0  0  0  0  0  0  0  0  0  0  0
  197.9915  183.5554  154.2891 C   0  0  0  0  0  0  0  0  0  0  0  0
  197.7451  182.7423  153.1508 C   0  0  0  0  0  0  0  0  0  0  0  0
  197.1561  181.4672  153.2984 C   0  0  0  0  0  0  0  0  0  0  0  0
  196.8392  180.9690  154.5857 C   0  0  0  0  0  0  0  0  0  0  0  0
  197.1176  181.7416  155.7285 C   0  0  0  0  0  0  0  0  0  0  0  0
  197.6651  183.0320  155.5696 C   0  0  0  0  0  0  0  0  0  0  0  0
  199.5040  187.7340  152.1173 C   0  0  0  0  0  0  0  0  0  0  0  0
  200.1858  188.8539  152.5302 C   0  0  0  0  0  0  0  0  0  0  0  0
  200.6149  188.9705  153.8703 C   0  0  0  0  0  0  0  0  0  0  0  0
  200.3452  187.9663  154.7740 C   0  0  0  0  0  0  0  0  0  0  0  0
  197.6564  185.0311  157.0670 H   0  0  0  0  0  0  0  0  0  0  0  0
  194.5565  180.3322  158.1444 H   0  0  0  0  0  0  0  0  0  0  0  0
  195.2327  182.1175  157.2053 H   0  0  0  0  0  0  0  0  0  0  0  0
  193.8521  183.0524  157.9051 H   0  0  0  0  0  0  0  0  0  0  0  0
  194.7701  182.8151  160.1650 H   0  0  0  0  0  0  0  0  0  0  0  0
  196.0136  181.7403  159.6335 H   0  0  0  0  0  0  0  0  0  0  0  0
  197.2170  183.4225  158.6478 H   0  0  0  0  0  0  0  0  0  0  0  0
  197.8944  187.9691  159.9510 H   0  0  0  0  0  0  0  0  0  0  0  0
  195.8349  188.5773  161.1744 H   0  0  0  0  0  0  0  0  0  0  0  0
  194.0014  186.9102  161.4248 H   0  0  0  0  0  0  0  0  0  0  0  0
  194.1911  184.6991  160.4429 H   0  0  0  0  0  0  0  0  0  0  0  0
  199.3322  186.3239  159.0893 H   0  0  0  0  0  0  0  0  0  0  0  0
  198.9052  184.6282  159.0382 H   0  0  0  0  0  0  0  0  0  0  0  0
  200.3421  186.1768  156.8575 H   0  0  0  0  0  0  0  0  0  0  0  0
  199.9363  184.5028  156.6741 H   0  0  0  0  0  0  0  0  0  0  0  0
  198.0353  183.0839  152.1612 H   0  0  0  0  0  0  0  0  0  0  0  0
  196.9654  180.8550  152.4285 H   0  0  0  0  0  0  0  0  0  0  0  0
  196.3637  180.0097  154.7160 H   0  0  0  0  0  0  0  0  0  0  0  0
  196.8645  181.3983  156.7257 H   0  0  0  0  0  0  0  0  0  0  0  0
  197.7949  183.5957  156.4819 H   0  0  0  0  0  0  0  0  0  0  0  0
  199.1682  187.6211  151.0924 H   0  0  0  0  0  0  0  0  0  0  0  0
  200.3958  189.6467  151.8190 H   0  0  0  0  0  0  0  0  0  0  0  0
  201.1616  189.8481  154.1941 H   0  0  0  0  0  0  0  0  0  0  0  0
  200.6698  188.0278  155.8066 H   0  0  0  0  0  0  0  0  0  0  0  0
  197.9438  186.6370  157.1063 H   0  0  0  0  0  0  0  0  0  0  0  0
  1  2  1  0
  1 30  1  0
  2  3  1  0
  2 31  1  6
  2 32  1  0
  3  4  1  0
  3 33  1  1
  3 34  1  0
  4  5  1  0
  4 35  1  0
  5  6  1  0
  5 10  2  0
  6  7  2  0
  6 11  1  0
  7  8  1  0
  7 36  1  0
  8  9  2  0
  8 37  1  0
  9 10  1  0
  9 38  1  0
 10 39  1  0
 11 12  1  0
 11 40  1  1
 11 41  1  0
 12 13  1  0
 12 29  1  6
 12 53  1  0
 13 14  1  0
 13 42  1  1
 13 43  1  0
 14 15  1  0
 14 18  2  0
 15 16  1  0
 15 28  1  0
 16 17  2  0
 16 25  1  0
 17 18  1  0
 18 19  1  0
 19 20  2  0
 19 24  1  0
 20 21  1  0
 20 44  1  0
 21 22  2  0
 21 45  1  0
 22 23  1  0
 22 46  1  0
 23 24  2  0
 23 47  1  0
 24 48  1  0
 25 26  2  0
 25 49  1  0
 26 27  1  0
 26 50  1  0
 27 28  2  0
 27 51  1  0
 28 52  1  0
M  CHG  1  12   1
M  END
>  <s_epik_cmdline>  (373) 
J2VwaWtfcHl0aG9uJywgJy1waCcsICc3LjAwMDAwMCcsICctcGh0JywgJzIuMDAwMDAwJywgJy1tcycsICcxNicsICctdG4nLCAnOCcsICctbWEnLCAnMjAwJywgJy1pbWFlJywgJzxpbmZpbGUubWFlPicsICctb21hZScsICc8b3V0ZmlsZS5tYWU+Jw==

>  <s_epik_input>  (373) 
W09IXVtDSDJdW0NIMl1bTkhdYzFjKFtjSF1bY0hdW2NIXVtjSF0xKVtDSDJdW05IXVtDSDJdYzJjKG5jKG4yMylbY0hdW2NIXVtjSF1bY0hdMyktYzRbY0hdW2NIXVtjSF1bY0hdW2NIXTQ=

>  <s_i_glide_gridfile>  (373) 
ATP-Grid

>  <s_lp_Force_Field>  (373) 
OPLS_2005

>  <s_lp_Variant>  (373) 
m_270004bbb____25289968____24720750-1

>  <s_lp_label>  (373) 
1174_sdstereoexpander_1_neutralizer_1_epik_1_stereoizer_1

>  <s_m_source_file>  (373) 
ATP-VSW-LIGPREP-003-in.maegz

>  <s_sd_BIOSOLVEIT.INFINISEE\_QUERY\_NAME>  (373) 
Ref-Lig

>  <s_sd_BIOSOLVEIT.INFINISEE\_QUERY\_SMILES>  (373) 
S(c1nc2c(cc1C[NH2+]Cc3ccc(cc3)C[NH+](C)C)cccc2)Cc4ccccc4

>  <s_sd_BIOSOLVEIT.INFINISEE\_REACTION\_NAME>  (373) 
m_270004bbb

>  <s_sd_BIOSOLVEIT.INFINISEE\_REAGENT1\_SMILES>  (373) 
[R1*]NCc1c(NCCO)cccc1

>  <s_sd_BIOSOLVEIT.INFINISEE\_REAGENT2\_SMILES>  (373) 
[R1*]CC=1N2C(=NC1c3ccccc3)C=CC=C2

>  <s_sd_BIOSOLVEIT.INFINISEE\_SPACE>  (373) 
REALSpace_44bn_2023-08

>  <s_vsw_compound_code>  (373) 
37539

>  <s_vsw_variant>  (373) 
37539-1

>  <r_epik_Charging_Adjusted_Penalty>  (373) 
0.57690795446570997

>  <r_epik_Ionization_Penalty>  (373) 
0.26450000000000001

>  <r_epik_Ionization_Penalty_Charging>  (373) 
0.26450000000000001

>  <r_epik_Ionization_Penalty_Neutral>  (373) 
0

>  <r_epik_State_Penalty>  (373) 
0.31240000000000001

>  <r_i_docking_score>  (373) 
-3.8780340204195398

>  <r_i_glide_ecoul>  (373) 
-7.9537734985351598

>  <r_i_glide_eff_state_penalty>  (373) 
0.31240000000000001

>  <r_i_glide_einternal>  (373) 
1.8053735494613601

>  <r_i_glide_emodel>  (373) 
-52.240522084774

>  <r_i_glide_energy>  (373) 
-37.9460639953613

>  <r_i_glide_erotb>  (373) 
1.1084247616837699

>  <r_i_glide_esite>  (373) 
-0.00083062022959773201

>  <r_i_glide_evdw>  (373) 
-29.9922904968262

>  <r_i_glide_gscore>  (373) 
-4.1904340204195396

>  <r_i_glide_hbond>  (373) 
-0.16

>  <r_i_glide_ligand_efficiency>  (373) 
-0.138501215014984

>  <r_i_glide_ligand_efficiency_ln>  (373) 
-0.89516411593937195

>  <r_i_glide_ligand_efficiency_sa>  (373) 
-0.42057126163873598

>  <r_i_glide_lipo>  (373) 
-1.56232865587062

>  <r_i_glide_metal>  (373) 
-0

>  <r_i_glide_rewards>  (373) 
-0.88301895638151495

>  <r_lp_Energy>  (373) 
20.761507000000002

>  <r_qp_ACxDN^.5/SA>  (373) 
0.014891700000000001

>  <r_qp_CIQPlogS>  (373) 
-4.5819999999999999

>  <r_qp_EA(eV)>  (373) 
0.71099999999999997

>  <r_qp_FISA>  (373) 
50.899999999999999

>  <r_qp_FOSA>  (373) 
142.90000000000001

>  <r_qp_IP(eV)>  (373) 
8.1699999999999999

>  <r_qp_Jm>  (373) 
0.82030585740516904

>  <r_qp_PISA>  (373) 
469.16399999999999

>  <r_qp_PSA>  (373) 
58.506999999999998

>  <r_qp_PercentHumanOralAbsorption>  (373) 
100

>  <r_qp_QPPCaco>  (373) 
813.04300000000001

>  <r_qp_QPPMDCK>  (373) 
437.596

>  <r_qp_QPlogBB>  (373) 
-0.012

>  <r_qp_QPlogHERG>  (373) 
-7.2400000000000002

>  <r_qp_QPlogKhsa>  (373) 
0.371

>  <r_qp_QPlogKp>  (373) 
-2.0990000000000002

>  <r_qp_QPlogPC16>  (373) 
13.847

>  <r_qp_QPlogPo/w>  (373) 
3.8740000000000001

>  <r_qp_QPlogPoct>  (373) 
21.274000000000001

>  <r_qp_QPlogPw>  (373) 
13.096

>  <r_qp_QPlogS>  (373) 
-3.5579999999999998

>  <r_qp_QPpolrz>  (373) 
41.795999999999999

>  <r_qp_SASA>  (373) 
662.96400000000006

>  <r_qp_SAamideO>  (373) 
0

>  <r_qp_SAfluorine>  (373) 
0

>  <r_qp_WPSA>  (373) 
0

>  <r_qp_accptHB>  (373) 
5.7000000000000002

>  <r_qp_dip^2/V>  (373) 
0.0101543

>  <r_qp_dipole>  (373) 
3.512

>  <r_qp_donorHB>  (373) 
3

>  <r_qp_glob>  (373) 
0.83039189999999996

>  <r_qp_mol_MW>  (373) 
372.46899999999999

>  <r_qp_volume>  (373) 
1214.54

>  <r_sd_BIOSOLVEIT.INFINISEE\_FTREES\_SIMILARITY>  (373) 
0.91200000000000003

>  <r_sd_BIOSOLVEIT.LOGP>  (373) 
2.6690999999999998

>  <r_sd_BIOSOLVEIT.MOLECULAR\_WEIGHT>  (373) 
373.47800000000001

>  <r_sd_BIOSOLVEIT.TPSA>  (373) 
66.689999999999998

>  <i_epik_Tot_Q>  (373) 
1

>  <i_epik_Tot_abs_Q>  (373) 
1

>  <i_f3d_flags>  (373) 
0

>  <i_i_glide_confnum>  (373) 
10

>  <i_i_glide_lignum>  (373) 
460

>  <i_i_glide_posenum>  (373) 
7

>  <i_i_glide_rotatable_bonds>  (373) 
9

>  <i_lp_mmshare_version>  (373) 
65135

>  <i_m_ct_format>  (373) 
2

>  <i_m_source_file_index>  (373) 
1174

>  <i_qp_#NandO>  (373) 
5

>  <i_qp_#acid>  (373) 
0

>  <i_qp_#amide>  (373) 
0

>  <i_qp_#amidine>  (373) 
0

>  <i_qp_#amine>  (373) 
1

>  <i_qp_#in34>  (373) 
0

>  <i_qp_#in56>  (373) 
21

>  <i_qp_#metab>  (373) 
7

>  <i_qp_#nonHatm>  (373) 
28

>  <i_qp_#noncon>  (373) 
0

>  <i_qp_#ringatoms>  (373) 
21

>  <i_qp_#rotor>  (373) 
8

>  <i_qp_#rtvFG>  (373) 
0

>  <i_qp_#stars>  (373) 
1

>  <i_qp_CNS>  (373) 
0

>  <i_qp_HumanOralAbsorption>  (373) 
3

>  <i_qp_RuleOfFive>  (373) 
0

>  <i_qp_RuleOfThree>  (373) 
1

>  <i_sd_BIOSOLVEIT.INFINISEE\_REAGENT1\_NAME>  (373) 
25289968

>  <i_sd_BIOSOLVEIT.INFINISEE\_REAGENT2\_NAME>  (373) 
24720750

>  <i_sd_BIOSOLVEIT.INFINISEE\_RESULT\_RANK>  (373) 
38431

>  <i_sd_version>  (373) 
0

>  <b_lp_Chiralities_Consistent>  (373) 
1

>  <b_sd_chiral_flag>  (373) 
0

>  <canonical_id>  (373) 
ATP-HTVS-3C30D082388E

>  <compound_code>  (373) 
37539

>  <title>  (373) 
m_270004bbb____25289968____24720750

>  <variant>  (373) 
37539-1

>  <source_file>  (373) 
运行/运行/ATP-VSW/ATP-VSW-DOCK_HTVS_1-003_lib/ATP-VSW-DOCK_HTVS_1-003_lib.mae

>  <canonical_smiles>  (373) 
OCCNc1ccccc1C[NH2+]Cc1c(-c2ccccc2)nc2ccccn12

>  <scaffold>  (373) 
c1ccc(C[NH2+]Cc2c(-c3ccccc3)nc3ccccn23)cc1

>  <molecular_formula>  (373) 
C23H25N4O+

$$$$
ATP-HTVS-3C5237794D05
     RDKit          3D

 52 55  0  0  0  0  0  0  0  0999 V2000
  194.9332  186.9705  161.2501 Br  0  0  0  0  0  0  0  0  0  0  0  0
  195.2487  185.3890  160.2299 C   0  0  0  0  0  0  0  0  0  0  0  0
  196.5700  184.9539  160.0189 C   0  0  0  0  0  0  0  0  0  0  0  0
  196.8317  183.7450  159.3087 C   0  0  0  0  0  0  0  0  0  0  0  0
  198.1612  183.2779  159.0448 N   0  0  0  0  0  0  0  0  0  0  0  0
  199.3649  183.8394  159.1988 C   0  0  0  0  0  0  0  0  0  0  0  0
  199.5626  184.9643  159.6875 O   0  0  0  0  0  0  0  0  0  0  0  0
  200.5269  182.9818  158.7205 C   0  0  0  0  0  0  0  0  0  0  0  0
  201.6865  182.7406  159.5111 C   0  0  0  0  0  0  0  0  0  0  0  0
  202.7284  181.9336  158.9727 C   0  0  0  0  0  0  0  0  0  0  0  0
  202.6438  181.3595  157.7514 N   0  0  0  0  0  0  0  0  0  0  0  0
  201.5453  181.5781  156.9788 C   0  0  0  0  0  0  0  0  0  0  0  0
  201.5046  180.9130  155.6536 C   0  0  0  0  0  0  0  0  0  0  0  0
  200.2862  180.6807  154.9839 C   0  0  0  0  0  0  0  0  0  0  0  0
  200.1653  180.0997  153.7696 N   0  0  0  0  0  0  0  0  0  0  0  0
  201.2919  179.7142  153.1349 C   0  0  0  0  0  0  0  0  0  0  0  0
  202.5680  179.9247  153.6896 C   0  0  0  0  0  0  0  0  0  0  0  0
  202.6759  180.5270  154.9617 C   0  0  0  0  0  0  0  0  0  0  0  0
  200.4860  182.4052  157.4166 C   0  0  0  0  0  0  0  0  0  0  0  0
  203.8821  181.7008  159.7263 C   0  0  0  0  0  0  0  0  0  0  0  0
  204.0333  182.2405  161.0168 C   0  0  0  0  0  0  0  0  0  0  0  0
  202.9950  183.0232  161.5611 C   0  0  0  0  0  0  0  0  0  0  0  0
  201.8329  183.2697  160.8193 C   0  0  0  0  0  0  0  0  0  0  0  0
  195.7292  183.0193  158.7875 C   0  0  0  0  0  0  0  0  0  0  0  0
  194.4086  183.4563  159.0078 C   0  0  0  0  0  0  0  0  0  0  0  0
  194.1658  184.6387  159.7538 C   0  0  0  0  0  0  0  0  0  0  0  0
  195.9243  181.7886  157.8927 C   0  0  1  0  0  0  0  0  0  0  0  0
  196.1331  182.0879  156.4402 N   0  0  2  0  0  0  0  0  0  0  0  0
  196.6561  180.8738  155.7408 C   0  0  2  0  0  0  0  0  0  0  0  0
  197.0142  183.2689  156.1681 C   0  0  2  0  0  0  0  0  0  0  0  0
  197.3600  185.5858  160.3868 H   0  0  0  0  0  0  0  0  0  0  0  0
  198.2054  182.3520  158.6136 H   0  0  0  0  0  0  0  0  0  0  0  0
  199.3379  180.9769  155.4002 H   0  0  0  0  0  0  0  0  0  0  0  0
  201.1709  179.2433  152.1658 H   0  0  0  0  0  0  0  0  0  0  0  0
  203.4588  179.6181  153.1538 H   0  0  0  0  0  0  0  0  0  0  0  0
  203.6503  180.7079  155.3986 H   0  0  0  0  0  0  0  0  0  0  0  0
  199.7202  182.6011  156.7258 H   0  0  0  0  0  0  0  0  0  0  0  0
  204.6645  181.0837  159.2804 H   0  0  0  0  0  0  0  0  0  0  0  0
  204.9341  182.0438  161.5702 H   0  0  0  0  0  0  0  0  0  0  0  0
  203.0961  183.4385  162.5640 H   0  0  0  0  0  0  0  0  0  0  0  0
  201.0715  183.8713  161.3009 H   0  0  0  0  0  0  0  0  0  0  0  0
  193.5660  182.9197  158.5982 H   0  0  0  0  0  0  0  0  0  0  0  0
  193.1516  184.9666  159.9262 H   0  0  0  0  0  0  0  0  0  0  0  0
  196.7235  181.1645  158.3284 H   0  0  0  0  0  0  0  0  0  0  0  0
  195.0219  181.1697  157.9828 H   0  0  0  0  0  0  0  0  0  0  0  0
  197.5391  180.4527  156.2448 H   0  0  0  0  0  0  0  0  0  0  0  0
  196.9010  181.0975  154.7041 H   0  0  0  0  0  0  0  0  0  0  0  0
  196.0042  180.0132  155.7281 H   0  0  0  0  0  0  0  0  0  0  0  0
  197.9326  183.0621  156.6276 H   0  0  0  0  0  0  0  0  0  0  0  0
  196.5811  184.2094  156.5464 H   0  0  0  0  0  0  0  0  0  0  0  0
  197.1813  183.4238  155.0876 H   0  0  0  0  0  0  0  0  0  0  0  0
  195.1921  182.2650  156.0734 H   0  0  0  0  0  0  0  0  0  0  0  0
  1  2  1  0
  2  3  2  0
  2 26  1  0
  3  4  1  0
  3 31  1  0
  4  5  1  0
  4 24  2  0
  5  6  1  0
  5 32  1  0
  6  7  2  0
  6  8  1  0
  8  9  1  0
  8 19  2  0
  9 10  1  0
  9 23  2  0
 10 11  1  0
 10 20  2  0
 11 12  2  0
 12 13  1  0
 12 19  1  0
 13 14  2  0
 13 18  1  0
 14 15  1  0
 14 33  1  0
 15 16  2  0
 16 17  1  0
 16 34  1  0
 17 18  2  0
 17 35  1  0
 18 36  1  0
 19 37  1  0
 20 21  1  0
 20 38  1  0
 21 22  2  0
 21 39  1  0
 22 23  1  0
 22 40  1  0
 23 41  1  0
 24 25  1  0
 24 27  1  0
 25 26  2  0
 25 42  1  0
 26 43  1  0
 27 28  1  0
 27 44  1  1
 27 45  1  0
 28 29  1  0
 28 30  1  0
 28 52  1  6
 29 46  1  1
 29 47  1  0
 29 48  1  0
 30 49  1  1
 30 50  1  0
 30 51  1  0
M  CHG  1  28   1
M  END
>  <s_epik_cmdline>  (374) 
J2VwaWtfcHl0aG9uJywgJy1waCcsICc3LjAwMDAwMCcsICctcGh0JywgJzIuMDAwMDAwJywgJy1tcycsICcxNicsICctdG4nLCAnOCcsICctbWEnLCAnMjAwJywgJy1pbWFlJywgJzxpbmZpbGUubWFlPicsICctb21hZScsICc8b3V0ZmlsZS5tYWU+Jw==

>  <s_epik_input>  (374) 
W0NIM11OKFtDSDNdKVtDSDJdYyhbY0hdW2NIXTEpYyhbY0hdYzFCcilbTkhdQyg9TyljMltjSF1jKG5jKGMyMylbY0hdW2NIXVtjSF1bY0hdMyktYzRbY0hdbltjSF1bY0hdW2NIXTQ=

>  <s_i_glide_gridfile>  (374) 
ATP-Grid

>  <s_lp_Force_Field>  (374) 
OPLS_2005

>  <s_lp_Variant>  (374) 
m_22bce____20904800____24596716-1

>  <s_lp_label>  (374) 
1379_sdstereoexpander_1_neutralizer_1_epik_1_stereoizer_1

>  <s_m_source_file>  (374) 
ATP-VSW-LIGPREP-001-in.maegz

>  <s_sd_BIOSOLVEIT.INFINISEE\_QUERY\_NAME>  (374) 
Ref-Lig

>  <s_sd_BIOSOLVEIT.INFINISEE\_QUERY\_SMILES>  (374) 
S(c1nc2c(cc1C[NH2+]Cc3ccc(cc3)C[NH+](C)C)cccc2)Cc4ccccc4

>  <s_sd_BIOSOLVEIT.INFINISEE\_REACTION\_NAME>  (374) 
m_22bce

>  <s_sd_BIOSOLVEIT.INFINISEE\_REAGENT1\_SMILES>  (374) 
[R1*]Nc1c(ccc(Br)c1)CN(C)C

>  <s_sd_BIOSOLVEIT.INFINISEE\_REAGENT2\_SMILES>  (374) 
[R1*]C(=O)c1c2c(nc(c3cnccc3)c1)cccc2

>  <s_sd_BIOSOLVEIT.INFINISEE\_SPACE>  (374) 
REALSpace_44bn_2023-08

>  <s_vsw_compound_code>  (374) 
44097

>  <s_vsw_variant>  (374) 
44097-1

>  <r_epik_Charging_Adjusted_Penalty>  (374) 
0.109713718893598

>  <r_epik_Ionization_Penalty>  (374) 
0.057099999999999998

>  <r_epik_Ionization_Penalty_Charging>  (374) 
0.054899999999999997

>  <r_epik_Ionization_Penalty_Neutral>  (374) 
0.0023

>  <r_epik_State_Penalty>  (374) 
0.054899999999999997

>  <r_i_docking_score>  (374) 
-5.0772246755705597

>  <r_i_glide_ecoul>  (374) 
-9.9527311325073207

>  <r_i_glide_eff_state_penalty>  (374) 
0.054899999999999997

>  <r_i_glide_einternal>  (374) 
1.3481925725936901

>  <r_i_glide_emodel>  (374) 
-62.0071122460417

>  <r_i_glide_energy>  (374) 
-42.922118186950698

>  <r_i_glide_erotb>  (374) 
0.47112758779899

>  <r_i_glide_esite>  (374) 
-0.093930676945551003

>  <r_i_glide_evdw>  (374) 
-32.969387054443402

>  <r_i_glide_gscore>  (374) 
-5.1321246755705596

>  <r_i_glide_hbond>  (374) 
-0.20000000000000001

>  <r_i_glide_ligand_efficiency>  (374) 
-0.16924082251901901

>  <r_i_glide_ligand_efficiency_ln>  (374) 
-1.1536007670833199

>  <r_i_glide_ligand_efficiency_sa>  (374) 
-0.52587058446926604

>  <r_i_glide_lipo>  (374) 
-1.7682026030459099

>  <r_i_glide_metal>  (374) 
-0

>  <r_i_glide_rewards>  (374) 
-0.39973996077982799

>  <r_lp_Energy>  (374) 
33.930754

>  <r_qp_ACxDN^.5/SA>  (374) 
0.0099568999999999994

>  <r_qp_CIQPlogS>  (374) 
-6.0609999999999999

>  <r_qp_EA(eV)>  (374) 
1.3740000000000001

>  <r_qp_FISA>  (374) 
61.204999999999998

>  <r_qp_FOSA>  (374) 
142.69

>  <r_qp_IP(eV)>  (374) 
8.9900000000000002

>  <r_qp_Jm>  (374) 
0.014096754505940799

>  <r_qp_PISA>  (374) 
421.91899999999998

>  <r_qp_PSA>  (374) 
58.554000000000002

>  <r_qp_PercentHumanOralAbsorption>  (374) 
100

>  <r_qp_QPPCaco>  (374) 
649.22400000000005

>  <r_qp_QPPMDCK>  (374) 
908.71799999999996

>  <r_qp_QPlogBB>  (374) 
0.23499999999999999

>  <r_qp_QPlogHERG>  (374) 
-7.2729999999999997

>  <r_qp_QPlogKhsa>  (374) 
0.52000000000000002

>  <r_qp_QPlogKp>  (374) 
-2.7440000000000002

>  <r_qp_QPlogPC16>  (374) 
14.374000000000001

>  <r_qp_QPlogPo/w>  (374) 
4.2699999999999996

>  <r_qp_QPlogPoct>  (374) 
21.170000000000002

>  <r_qp_QPlogPw>  (374) 
11.981

>  <r_qp_QPlogS>  (374) 
-4.7709999999999999

>  <r_qp_QPpolrz>  (374) 
46.219000000000001

>  <r_qp_SASA>  (374) 
703.029

>  <r_qp_SAamideO>  (374) 
0

>  <r_qp_SAfluorine>  (374) 
0

>  <r_qp_WPSA>  (374) 
77.213999999999999

>  <r_qp_accptHB>  (374) 
7

>  <r_qp_dip^2/V>  (374) 
0.020005200000000001

>  <r_qp_dipole>  (374) 
5.077

>  <r_qp_donorHB>  (374) 
1

>  <r_qp_glob>  (374) 
0.81442559999999997

>  <r_qp_mol_MW>  (374) 
461.36000000000001

>  <r_qp_volume>  (374) 
1288.2170000000001

>  <r_sd_BIOSOLVEIT.INFINISEE\_FTREES\_SIMILARITY>  (374) 
0.90900000000000003

>  <r_sd_BIOSOLVEIT.LOGP>  (374) 
3.9561000000000002

>  <r_sd_BIOSOLVEIT.MOLECULAR\_WEIGHT>  (374) 
462.36900000000003

>  <r_sd_BIOSOLVEIT.TPSA>  (374) 
59.32

>  <i_epik_Tot_Q>  (374) 
1

>  <i_epik_Tot_abs_Q>  (374) 
1

>  <i_f3d_flags>  (374) 
0

>  <i_i_glide_confnum>  (374) 
1

>  <i_i_glide_lignum>  (374) 
363

>  <i_i_glide_posenum>  (374) 
6

>  <i_i_glide_rotatable_bonds>  (374) 
6

>  <i_lp_mmshare_version>  (374) 
65135

>  <i_m_ct_format>  (374) 
2

>  <i_m_source_file_index>  (374) 
1379

>  <i_qp_#NandO>  (374) 
5

>  <i_qp_#acid>  (374) 
0

>  <i_qp_#amide>  (374) 
0

>  <i_qp_#amidine>  (374) 
0

>  <i_qp_#amine>  (374) 
1

>  <i_qp_#in34>  (374) 
0

>  <i_qp_#in56>  (374) 
22

>  <i_qp_#metab>  (374) 
5

>  <i_qp_#nonHatm>  (374) 
30

>  <i_qp_#noncon>  (374) 
0

>  <i_qp_#ringatoms>  (374) 
22

>  <i_qp_#rotor>  (374) 
5

>  <i_qp_#rtvFG>  (374) 
0

>  <i_qp_#stars>  (374) 
0

>  <i_qp_CNS>  (374) 
1

>  <i_qp_HumanOralAbsorption>  (374) 
3

>  <i_qp_RuleOfFive>  (374) 
0

>  <i_qp_RuleOfThree>  (374) 
0

>  <i_sd_BIOSOLVEIT.INFINISEE\_REAGENT1\_NAME>  (374) 
20904800

>  <i_sd_BIOSOLVEIT.INFINISEE\_REAGENT2\_NAME>  (374) 
24596716

>  <i_sd_BIOSOLVEIT.INFINISEE\_RESULT\_RANK>  (374) 
51330

>  <i_sd_version>  (374) 
0

>  <b_lp_Chiralities_Consistent>  (374) 
1

>  <b_sd_chiral_flag>  (374) 
0

>  <canonical_id>  (374) 
ATP-HTVS-3C5237794D05

>  <compound_code>  (374) 
44097

>  <title>  (374) 
m_22bce____20904800____24596716

>  <variant>  (374) 
44097-1

>  <source_file>  (374) 
运行/运行/ATP-VSW/ATP-VSW-DOCK_HTVS_1-001_lib/ATP-VSW-DOCK_HTVS_1-001_lib

>  <canonical_smiles>  (374) 
C[NH+](C)Cc1ccc(Br)cc1NC(=O)c1cc(-c2cccnc2)nc2ccccc12

>  <scaffold>  (374) 
O=C(Nc1ccccc1)c1cc(-c2cccnc2)nc2ccccc12

>  <molecular_formula>  (374) 
C24H22BrN4O+

$$$$
ATP-HTVS-3D55EC2CCC26
     RDKit          3D

 59 61  0  0  0  0  0  0  0  0999 V2000
  193.2459  186.2504  161.7743 F   0  0  0  0  0  0  0  0  0  0  0  0
  194.3855  186.3417  161.0472 C   0  0  0  0  0  0  0  0  0  0  0  0
  195.1630  187.4375  161.2019 N   0  0  0  0  0  0  0  0  0  0  0  0
  196.2918  187.5578  160.4733 C   0  0  0  0  0  0  0  0  0  0  0  0
  196.7667  186.5640  159.5673 C   0  0  0  0  0  0  0  0  0  0  0  0
  198.0009  186.7278  158.8888 N   0  0  0  0  0  0  0  0  0  0  0  0
  199.1880  185.9773  159.0890 C   0  0  0  0  0  0  0  0  0  0  0  0
  200.4739  186.5718  158.9234 C   0  0  0  0  0  0  0  0  0  0  0  0
  201.6565  185.8171  159.1068 C   0  0  0  0  0  0  0  0  0  0  0  0
  201.5841  184.4467  159.4291 C   0  0  0  0  0  0  0  0  0  0  0  0
  200.3248  183.8498  159.6000 C   0  0  0  0  0  0  0  0  0  0  0  0
  199.1495  184.6092  159.4667 C   0  0  0  0  0  0  0  0  0  0  0  0
  198.0185  187.7188  157.7823 C   0  0  1  0  0  0  0  0  0  0  0  0
  196.8721  187.5858  156.8875 C   0  0  0  0  0  0  0  0  0  0  0  0
  195.9541  187.4950  156.1819 N   0  0  0  0  0  0  0  0  0  0  0  0
  195.9077  185.4079  159.3963 C   0  0  0  0  0  0  0  0  0  0  0  0
  194.7358  185.3157  160.1558 C   0  0  0  0  0  0  0  0  0  0  0  0
  196.1726  184.3322  158.3653 C   0  0  0  0  0  0  0  0  0  0  0  0
  196.6485  184.5907  157.2713 O   0  0  0  0  0  0  0  0  0  0  0  0
  195.9015  183.0654  158.7935 N   0  0  0  0  0  0  0  0  0  0  0  0
  196.1423  181.8038  158.0974 C   0  0  1  0  0  0  0  0  0  0  0  0
  197.1532  181.8565  156.9611 C   0  0  0  0  0  0  0  0  0  0  0  0
  196.7422  181.6508  155.6316 C   0  0  0  0  0  0  0  0  0  0  0  0
  197.6634  181.8465  154.5798 C   0  0  0  0  0  0  0  0  0  0  0  0
  198.9937  182.2393  154.8570 C   0  0  0  0  0  0  0  0  0  0  0  0
  199.3997  182.4313  156.1912 C   0  0  0  0  0  0  0  0  0  0  0  0
  198.4856  182.2114  157.2353 C   0  0  0  0  0  0  0  0  0  0  0  0
  197.2022  181.7071  153.1453 C   0  0  1  0  0  0  0  0  0  0  0  0
  196.6597  182.9715  152.5757 N   0  0  2  0  0  0  0  0  0  0  0  0
  196.3189  182.8152  151.1454 C   0  0  2  0  0  0  0  0  0  0  0  0
  197.5202  184.1594  152.7977 C   0  0  2  0  0  0  0  0  0  0  0  0
  197.0488  188.8600  160.7295 C   0  0  2  0  0  0  0  0  0  0  0  0
  200.5542  187.6297  158.6840 H   0  0  0  0  0  0  0  0  0  0  0  0
  202.6290  186.2864  159.0144 H   0  0  0  0  0  0  0  0  0  0  0  0
  202.4789  183.8385  159.5601 H   0  0  0  0  0  0  0  0  0  0  0  0
  200.2501  182.7994  159.8465 H   0  0  0  0  0  0  0  0  0  0  0  0
  198.2300  184.0883  159.6768 H   0  0  0  0  0  0  0  0  0  0  0  0
  197.9499  188.7370  158.1131 H   0  0  0  0  0  0  0  0  0  0  0  0
  198.9102  187.6338  157.1542 H   0  0  0  0  0  0  0  0  0  0  0  0
  194.0431  184.4715  160.0645 H   0  0  0  0  0  0  0  0  0  0  0  0
  195.5034  182.9777  159.7012 H   0  0  0  0  0  0  0  0  0  0  0  0
  196.4902  181.0704  158.8386 H   0  0  0  0  0  0  0  0  0  0  0  0
  195.1885  181.4271  157.7324 H   0  0  0  0  0  0  0  0  0  0  0  0
  195.7018  181.4292  155.4334 H   0  0  0  0  0  0  0  0  0  0  0  0
  199.6929  182.4495  154.0544 H   0  0  0  0  0  0  0  0  0  0  0  0
  200.3829  182.8206  156.4108 H   0  0  0  0  0  0  0  0  0  0  0  0
  198.7789  182.3448  158.2610 H   0  0  0  0  0  0  0  0  0  0  0  0
  198.0483  181.3551  152.5560 H   0  0  0  0  0  0  0  0  0  0  0  0
  196.4416  180.9254  153.1074 H   0  0  0  0  0  0  0  0  0  0  0  0
  197.1970  182.5442  150.5569 H   0  0  0  0  0  0  0  0  0  0  0  0
  195.9231  183.7470  150.7404 H   0  0  0  0  0  0  0  0  0  0  0  0
  195.5647  182.0416  151.0019 H   0  0  0  0  0  0  0  0  0  0  0  0
  198.4956  184.0143  152.3301 H   0  0  0  0  0  0  0  0  0  0  0  0
  197.6697  184.3688  153.8586 H   0  0  0  0  0  0  0  0  0  0  0  0
  197.0685  185.0533  152.3785 H   0  0  0  0  0  0  0  0  0  0  0  0
  197.9195  188.6211  161.3262 H   0  0  0  0  0  0  0  0  0  0  0  0
  196.4207  189.5505  161.3009 H   0  0  0  0  0  0  0  0  0  0  0  0
  197.3858  189.3730  159.8431 H   0  0  0  0  0  0  0  0  0  0  0  0
  195.7833  183.1668  153.0618 H   0  0  0  0  0  0  0  0  0  0  0  0
  1  2  1  0
  2  3  2  0
  2 17  1  0
  3  4  1  0
  4  5  2  0
  4 32  1  0
  5  6  1  0
  5 16  1  0
  6  7  1  0
  6 13  1  0
  7  8  2  0
  7 12  1  0
  8  9  1  0
  8 33  1  0
  9 10  2  0
  9 34  1  0
 10 11  1  0
 10 35  1  0
 11 12  2  0
 11 36  1  0
 12 37  1  0
 13 14  1  0
 13 38  1  1
 13 39  1  0
 14 15  3  0
 16 17  2  0
 16 18  1  0
 17 40  1  0
 18 19  2  0
 18 20  1  0
 20 21  1  0
 20 41  1  0
 21 22  1  0
 21 42  1  1
 21 43  1  0
 22 23  2  0
 22 27  1  0
 23 24  1  0
 23 44  1  0
 24 25  2  0
 24 28  1  0
 25 26  1  0
 25 45  1  0
 26 27  2  0
 26 46  1  0
 27 47  1  0
 28 29  1  0
 28 48  1  6
 28 49  1  0
 29 30  1  0
 29 31  1  0
 29 59  1  1
 30 50  1  6
 30 51  1  0
 30 52  1  0
 31 53  1  6
 31 54  1  0
 31 55  1  0
 32 56  1  1
 32 57  1  0
 32 58  1  0
M  CHG  1  29   1
M  END
>  <s_epik_cmdline>  (375) 
J2VwaWtfcHl0aG9uJywgJy1waCcsICc3LjAwMDAwMCcsICctcGh0JywgJzIuMDAwMDAwJywgJy1tcycsICcxNicsICctdG4nLCAnOCcsICctbWEnLCAnMjAwJywgJy1pbWFlJywgJzxpbmZpbGUubWFlPicsICctb21hZScsICc8b3V0ZmlsZS5tYWU+Jw==

>  <s_epik_input>  (375) 
W2NIXTFbY0hdW2NIXVtjSF1bY0hdYzFOKFtDSDJdQyNOKWMoYyhbQ0gzXSluYzJGKWMoW2NIXTIpQyg9TylbTkhdW0NIMl1jM1tjSF1jKFtjSF1bY0hdW2NIXTMpW0NIMl1OKFtDSDNdKVtDSDNd

>  <s_i_glide_gridfile>  (375) 
ATP-Grid

>  <s_lp_Force_Field>  (375) 
OPLS_2005

>  <s_lp_Variant>  (375) 
rxn512b____EMOL712348____EMOL337737221____EMOL2873214-1

>  <s_lp_label>  (375) 
2876_sdstereoexpander_1_neutralizer_1_epik_1_stereoizer_1

>  <s_m_source_file>  (375) 
ATP-VSW-LIGPREP-001-in.maegz

>  <s_sd_BIOSOLVEIT.INFINISEE\_QUERY\_NAME>  (375) 
Ref-Lig

>  <s_sd_BIOSOLVEIT.INFINISEE\_QUERY\_SMILES>  (375) 
S(c1nc2c(cc1C[NH2+]Cc3ccc(cc3)C[NH+](C)C)cccc2)Cc4ccccc4

>  <s_sd_BIOSOLVEIT.INFINISEE\_REACTION\_NAME>  (375) 
rxn512b

>  <s_sd_BIOSOLVEIT.INFINISEE\_REAGENT1\_NAME>  (375) 
EMOL712348

>  <s_sd_BIOSOLVEIT.INFINISEE\_REAGENT1\_SMILES>  (375) 
N#CCNc1ccccc1

>  <s_sd_BIOSOLVEIT.INFINISEE\_REAGENT2\_NAME>  (375) 
EMOL337737221

>  <s_sd_BIOSOLVEIT.INFINISEE\_REAGENT2\_SMILES>  (375) 
Brc1c(nc(F)cc1C(=O)O)C

>  <s_sd_BIOSOLVEIT.INFINISEE\_REAGENT3\_NAME>  (375) 
EMOL2873214

>  <s_sd_BIOSOLVEIT.INFINISEE\_REAGENT3\_SMILES>  (375) 
N(Cc1cc(ccc1)CN)(C)C

>  <s_sd_BIOSOLVEIT.INFINISEE\_SPACE>  (375) 
eXplore_7tr_2022-12

>  <s_vsw_compound_code>  (375) 
92001

>  <s_vsw_variant>  (375) 
92001-1

>  <r_epik_Charging_Adjusted_Penalty>  (375) 
0.090499947298345707

>  <r_epik_Ionization_Penalty>  (375) 
0.0453

>  <r_epik_Ionization_Penalty_Charging>  (375) 
0.045199999999999997

>  <r_epik_Ionization_Penalty_Neutral>  (375) 
0

>  <r_epik_State_Penalty>  (375) 
0.045199999999999997

>  <r_i_docking_score>  (375) 
-4.9674147442954597

>  <r_i_glide_ecoul>  (375) 
-8.3605508804321307

>  <r_i_glide_eff_state_penalty>  (375) 
0.045199999999999997

>  <r_i_glide_einternal>  (375) 
6.8924908638000497

>  <r_i_glide_emodel>  (375) 
-50.389290398092797

>  <r_i_glide_energy>  (375) 
-38.033242225647001

>  <r_i_glide_erotb>  (375) 
0.74461951042470897

>  <r_i_glide_esite>  (375) 
-0.072736496323676597

>  <r_i_glide_evdw>  (375) 
-29.672691345214801

>  <r_i_glide_gscore>  (375) 
-5.0126147442954601

>  <r_i_glide_hbond>  (375) 
-0.50999853621575397

>  <r_i_glide_ligand_efficiency>  (375) 
-0.155231710759233

>  <r_i_glide_ligand_efficiency_ln>  (375) 
-1.11233956785962

>  <r_i_glide_ligand_efficiency_sa>  (375) 
-0.49282996134672002

>  <r_i_glide_lipo>  (375) 
-1.48117423575659

>  <r_i_glide_metal>  (375) 
-0

>  <r_i_glide_rewards>  (375) 
-0.95560778709858196

>  <r_lp_Energy>  (375) 
23.790299999999998

>  <r_lp_tautomer_probability>  (375) 
1

>  <r_qp_ACxDN^.5/SA>  (375) 
0.010483900000000001

>  <r_qp_CIQPlogS>  (375) 
-6.0090000000000003

>  <r_qp_EA(eV)>  (375) 
1.081

>  <r_qp_FISA>  (375) 
59.241

>  <r_qp_FOSA>  (375) 
283.76799999999997

>  <r_qp_IP(eV)>  (375) 
8.5679999999999996

>  <r_qp_Jm>  (375) 
0.0088341729455519592

>  <r_qp_PISA>  (375) 
323.85199999999998

>  <r_qp_PSA>  (375) 
71.311999999999998

>  <r_qp_PercentHumanOralAbsorption>  (375) 
100

>  <r_qp_QPPCaco>  (375) 
677.66899999999998

>  <r_qp_QPPMDCK>  (375) 
662.78499999999997

>  <r_qp_QPlogBB>  (375) 
-0.034000000000000002

>  <r_qp_QPlogHERG>  (375) 
-6.5439999999999996

>  <r_qp_QPlogKhsa>  (375) 
0.45300000000000001

>  <r_qp_QPlogKp>  (375) 
-2.669

>  <r_qp_QPlogPC16>  (375) 
13.448

>  <r_qp_QPlogPo/w>  (375) 
4.3200000000000003

>  <r_qp_QPlogPoct>  (375) 
20.978000000000002

>  <r_qp_QPlogPw>  (375) 
10.93

>  <r_qp_QPlogS>  (375) 
-5.0199999999999996

>  <r_qp_QPpolrz>  (375) 
45.662999999999997

>  <r_qp_SASA>  (375) 
715.38099999999997

>  <r_qp_SAamideO>  (375) 
0

>  <r_qp_SAfluorine>  (375) 
48.520000000000003

>  <r_qp_WPSA>  (375) 
48.520000000000003

>  <r_qp_accptHB>  (375) 
7.5

>  <r_qp_dip^2/V>  (375) 
0.0258596

>  <r_qp_dipole>  (375) 
5.9340000000000002

>  <r_qp_donorHB>  (375) 
1

>  <r_qp_glob>  (375) 
0.83059709999999998

>  <r_qp_mol_MW>  (375) 
431.512

>  <r_qp_volume>  (375) 
1361.896

>  <r_sd_BIOSOLVEIT.INFINISEE\_FTREES\_SIMILARITY>  (375) 
0.90500000000000003

>  <r_sd_BIOSOLVEIT.LOGP>  (375) 
2.7652999999999999

>  <r_sd_BIOSOLVEIT.MOLECULAR\_WEIGHT>  (375) 
432.51999999999998

>  <r_sd_BIOSOLVEIT.TPSA>  (375) 
73.459999999999994

>  <i_epik_Tot_Q>  (375) 
1

>  <i_epik_Tot_abs_Q>  (375) 
1

>  <i_f3d_flags>  (375) 
0

>  <i_i_glide_confnum>  (375) 
10

>  <i_i_glide_lignum>  (375) 
1326

>  <i_i_glide_posenum>  (375) 
16

>  <i_i_glide_rotatable_bonds>  (375) 
9

>  <i_lp_mmshare_version>  (375) 
65135

>  <i_m_ct_format>  (375) 
2

>  <i_m_source_file_index>  (375) 
2876

>  <i_qp_#NandO>  (375) 
6

>  <i_qp_#acid>  (375) 
0

>  <i_qp_#amide>  (375) 
0

>  <i_qp_#amidine>  (375) 
0

>  <i_qp_#amine>  (375) 
1

>  <i_qp_#in34>  (375) 
0

>  <i_qp_#in56>  (375) 
18

>  <i_qp_#metab>  (375) 
7

>  <i_qp_#nonHatm>  (375) 
32

>  <i_qp_#noncon>  (375) 
0

>  <i_qp_#ringatoms>  (375) 
18

>  <i_qp_#rotor>  (375) 
9

>  <i_qp_#rtvFG>  (375) 
0

>  <i_qp_#stars>  (375) 
0

>  <i_qp_CNS>  (375) 
1

>  <i_qp_HumanOralAbsorption>  (375) 
3

>  <i_qp_RuleOfFive>  (375) 
0

>  <i_qp_RuleOfThree>  (375) 
1

>  <i_sd_BIOSOLVEIT.INFINISEE\_RESULT\_RANK>  (375) 
72013

>  <i_sd_version>  (375) 
0

>  <b_lp_Chiralities_Consistent>  (375) 
1

>  <b_sd_chiral_flag>  (375) 
0

>  <canonical_id>  (375) 
ATP-HTVS-3D55EC2CCC26

>  <compound_code>  (375) 
92001

>  <title>  (375) 
rxn512b____EMOL712348____EMOL337737221____EMOL2873214

>  <variant>  (375) 
92001-1

>  <source_file>  (375) 
运行/运行/ATP-VSW/ATP-VSW-DOCK_HTVS_1-001_lib/ATP-VSW-DOCK_HTVS_1-001_lib

>  <canonical_smiles>  (375) 
Cc1nc(F)cc(C(=O)NCc2cccc(C[NH+](C)C)c2)c1N(CC#N)c1ccccc1

>  <scaffold>  (375) 
O=C(NCc1ccccc1)c1ccncc1Nc1ccccc1

>  <molecular_formula>  (375) 
C25H27FN5O+

$$$$
ATP-HTVS-3D580430A1F8
     RDKit          3D

 70 73  0  0  0  0  0  0  0  0999 V2000
  199.3536  174.8921  152.0488 O   0  0  0  0  0  0  0  0  0  0  0  0
  199.5654  176.0566  151.8132 C   0  0  0  0  0  0  0  0  0  0  0  0
  200.1603  176.9417  152.6500 N   0  0  0  0  0  0  0  0  0  0  0  0
  200.4716  176.7641  154.0159 C   0  0  0  0  0  0  0  0  0  0  0  0
  199.8961  177.6376  155.0044 C   0  0  0  0  0  0  0  0  0  0  0  0
  199.0485  178.7325  154.6594 N   0  0  0  0  0  0  0  0  0  0  0  0
  199.8027  179.9221  154.2059 C   0  0  1  0  0  0  0  0  0  0  0  0
  200.7431  179.6806  153.0833 C   0  0  0  0  0  0  0  0  0  0  0  0
  201.4802  179.4746  152.2083 N   0  0  0  0  0  0  0  0  0  0  0  0
  198.9310  181.1214  153.8058 C   0  0  0  0  0  0  0  0  0  0  0  0
  198.1160  181.0723  152.6361 C   0  0  0  0  0  0  0  0  0  0  0  0
  197.2583  182.1544  152.3358 C   0  0  0  0  0  0  0  0  0  0  0  0
  197.1863  183.2729  153.1956 C   0  0  0  0  0  0  0  0  0  0  0  0
  198.0149  183.3298  154.3361 C   0  0  0  0  0  0  0  0  0  0  0  0
  198.8676  182.2420  154.6611 C   0  0  0  0  0  0  0  0  0  0  0  0
  197.9051  178.9232  155.5807 C   0  0  1  0  0  0  0  0  0  0  0  0
  196.7132  179.7839  155.0632 C   0  0  2  0  0  0  0  0  0  0  0  0
  200.2457  177.3737  156.3601 C   0  0  0  0  0  0  0  0  0  0  0  0
  201.1328  176.4029  156.6818 N   0  0  0  0  0  0  0  0  0  0  0  0
  201.7392  175.6103  155.7681 C   0  0  0  0  0  0  0  0  0  0  0  0
  201.4191  175.7813  154.3974 C   0  0  0  0  0  0  0  0  0  0  0  0
  202.1058  174.9778  153.4444 C   0  0  0  0  0  0  0  0  0  0  0  0
  203.0261  173.9940  153.8423 C   0  0  0  0  0  0  0  0  0  0  0  0
  203.3060  173.8120  155.2065 C   0  0  0  0  0  0  0  0  0  0  0  0
  202.6805  174.6363  156.1706 C   0  0  0  0  0  0  0  0  0  0  0  0
  199.0210  176.6926  150.5723 C   0  0  0  0  0  0  0  0  0  0  0  0
  198.3443  177.9312  150.6221 C   0  0  0  0  0  0  0  0  0  0  0  0
  197.7857  178.4887  149.4492 C   0  0  0  0  0  0  0  0  0  0  0  0
  197.8587  177.7847  148.2274 C   0  0  0  0  0  0  0  0  0  0  0  0
  197.3057  178.3999  147.1187 O   0  0  0  0  0  0  0  0  0  0  0  0
  197.7960  178.0286  145.8322 C   0  0  1  0  0  0  0  0  0  0  0  0
  199.3414  178.1495  145.7692 C   0  0  1  0  0  0  0  0  0  0  0  0
  199.8762  178.6495  144.4327 N   0  0  2  0  0  0  0  0  0  0  0  0
  201.3531  178.5446  144.4688 C   0  0  2  0  0  0  0  0  0  0  0  0
  199.4214  180.0226  144.1577 C   0  0  2  0  0  0  0  0  0  0  0  0
  198.5025  176.5231  148.1957 C   0  0  0  0  0  0  0  0  0  0  0  0
  199.0993  175.9844  149.3494 C   0  0  0  0  0  0  0  0  0  0  0  0
  200.4238  177.8529  152.2534 H   0  0  0  0  0  0  0  0  0  0  0  0
  200.4411  180.2249  155.0381 H   0  0  0  0  0  0  0  0  0  0  0  0
  198.1113  180.2394  151.9876 H   0  0  0  0  0  0  0  0  0  0  0  0
  196.5683  182.0532  151.5163 H   0  0  0  0  0  0  0  0  0  0  0  0
  196.4539  184.0395  153.0101 H   0  0  0  0  0  0  0  0  0  0  0  0
  197.9065  184.1334  155.0400 H   0  0  0  0  0  0  0  0  0  0  0  0
  199.4783  182.2734  155.5453 H   0  0  0  0  0  0  0  0  0  0  0  0
  197.5209  177.9402  155.8704 H   0  0  0  0  0  0  0  0  0  0  0  0
  198.2603  179.3619  156.5167 H   0  0  0  0  0  0  0  0  0  0  0  0
  195.8860  179.7496  155.7507 H   0  0  0  0  0  0  0  0  0  0  0  0
  196.3441  179.3793  154.1164 H   0  0  0  0  0  0  0  0  0  0  0  0
  196.9813  180.8239  154.9597 H   0  0  0  0  0  0  0  0  0  0  0  0
  199.8626  177.9255  157.2043 H   0  0  0  0  0  0  0  0  0  0  0  0
  201.9426  175.0927  152.3842 H   0  0  0  0  0  0  0  0  0  0  0  0
  203.4973  173.3677  153.0918 H   0  0  0  0  0  0  0  0  0  0  0  0
  204.0015  173.0392  155.5046 H   0  0  0  0  0  0  0  0  0  0  0  0
  202.9265  174.4915  157.2141 H   0  0  0  0  0  0  0  0  0  0  0  0
  198.2360  178.4200  151.5736 H   0  0  0  0  0  0  0  0  0  0  0  0
  197.2847  179.4507  149.4747 H   0  0  0  0  0  0  0  0  0  0  0  0
  197.4418  177.0287  145.5941 H   0  0  0  0  0  0  0  0  0  0  0  0
  197.2828  178.6794  145.1268 H   0  0  0  0  0  0  0  0  0  0  0  0
  199.7107  178.7917  146.5629 H   0  0  0  0  0  0  0  0  0  0  0  0
  199.7903  177.1761  145.9343 H   0  0  0  0  0  0  0  0  0  0  0  0
  201.8010  179.1707  145.2448 H   0  0  0  0  0  0  0  0  0  0  0  0
  201.7453  178.8625  143.4988 H   0  0  0  0  0  0  0  0  0  0  0  0
  201.6756  177.5185  144.6390 H   0  0  0  0  0  0  0  0  0  0  0  0
  199.7203  180.7261  144.9485 H   0  0  0  0  0  0  0  0  0  0  0  0
  198.3333  180.0902  144.0412 H   0  0  0  0  0  0  0  0  0  0  0  0
  199.8734  180.3536  143.2107 H   0  0  0  0  0  0  0  0  0  0  0  0
  198.5704  175.9381  147.2874 H   0  0  0  0  0  0  0  0  0  0  0  0
  199.5983  175.0282  149.3163 H   0  0  0  0  0  0  0  0  0  0  0  0
  199.5469  177.9900  143.7510 H   0  0  0  0  0  0  0  0  0  0  0  0
  201.3703  176.2686  157.6621 H   0  0  0  0  0  0  0  0  0  0  0  0
  1  2  2  0
  2  3  1  0
  2 26  1  0
  3  4  1  0
  3 38  1  0
  4  5  2  0
  4 21  1  0
  5  6  1  0
  5 18  1  0
  6  7  1  0
  6 16  1  0
  7  8  1  0
  7 10  1  0
  7 39  1  1
  8  9  3  0
 10 11  2  0
 10 15  1  0
 11 12  1  0
 11 40  1  0
 12 13  2  0
 12 41  1  0
 13 14  1  0
 13 42  1  0
 14 15  2  0
 14 43  1  0
 15 44  1  0
 16 17  1  0
 16 45  1  1
 16 46  1  0
 17 47  1  1
 17 48  1  0
 17 49  1  0
 18 19  2  0
 18 50  1  0
 19 20  1  0
 19 70  1  0
 20 21  1  0
 20 25  2  0
 21 22  2  0
 22 23  1  0
 22 51  1  0
 23 24  2  0
 23 52  1  0
 24 25  1  0
 24 53  1  0
 25 54  1  0
 26 27  1  0
 26 37  2  0
 27 28  2  0
 27 55  1  0
 28 29  1  0
 28 56  1  0
 29 30  1  0
 29 36  2  0
 30 31  1  0
 31 32  1  0
 31 57  1  6
 31 58  1  0
 32 33  1  0
 32 59  1  1
 32 60  1  0
 33 34  1  0
 33 35  1  0
 33 69  1  6
 34 61  1  1
 34 62  1  0
 34 63  1  0
 35 64  1  1
 35 65  1  0
 35 66  1  0
 36 37  1  0
 36 67  1  0
 37 68  1  0
M  CHG  2  19   1  33   1
M  END
>  <s_epik_cmdline>  (376) 
J2VwaWtfcHl0aG9uJywgJy1waCcsICc3LjAwMDAwMCcsICctcGh0JywgJzIuMDAwMDAwJywgJy1tcycsICcxNicsICctdG4nLCAnOCcsICctbWEnLCAnMjAwJywgJy1pbWFlJywgJzxpbmZpbGUubWFlPicsICctb21hZScsICc8b3V0ZmlsZS5tYWU+Jw==

>  <s_epik_input>  (376) 
W0NIM11OKFtDSDNdKVtDSDJdW0NIMl1PYyhbY0hdW2NIXTEpW2NIXVtjSF1jMUMoPU8pW05IXWMoYyhjMjMpW2NIXVtjSF1bY0hdW2NIXTMpYyhbY0hdbjIpTihbQ0gyXVtDSDNdKVtDQEBIXShDI04pYzRbY0hdW2NIXVtjSF1bY0hdW2NIXTQ=

>  <s_i_glide_gridfile>  (376) 
ATP-Grid

>  <s_lp_Force_Field>  (376) 
OPLS_2005

>  <s_lp_Variant>  (376) 
rxn502b____EMOL70144015____EMOL13728749____EMOL49839592-3

>  <s_lp_label>  (376) 
2795_sdstereoexpander_1_neutralizer_1_epik_2_stereoizer_1

>  <s_m_source_file>  (376) 
ATP-VSW-LIGPREP-002-in.maegz

>  <s_sd_BIOSOLVEIT.INFINISEE\_QUERY\_NAME>  (376) 
Ref-Lig

>  <s_sd_BIOSOLVEIT.INFINISEE\_QUERY\_SMILES>  (376) 
S(c1nc2c(cc1C[NH2+]Cc3ccc(cc3)C[NH+](C)C)cccc2)Cc4ccccc4

>  <s_sd_BIOSOLVEIT.INFINISEE\_REACTION\_NAME>  (376) 
rxn502b

>  <s_sd_BIOSOLVEIT.INFINISEE\_REAGENT1\_NAME>  (376) 
EMOL70144015

>  <s_sd_BIOSOLVEIT.INFINISEE\_REAGENT1\_SMILES>  (376) 
O=C(O)c1ccc(OCCN(C)C)cc1

>  <s_sd_BIOSOLVEIT.INFINISEE\_REAGENT2\_NAME>  (376) 
EMOL13728749

>  <s_sd_BIOSOLVEIT.INFINISEE\_REAGENT2\_SMILES>  (376) 
Brc1c(N)c2c(nc1)cccc2

>  <s_sd_BIOSOLVEIT.INFINISEE\_REAGENT3\_NAME>  (376) 
EMOL49839592

>  <s_sd_BIOSOLVEIT.INFINISEE\_REAGENT3\_SMILES>  (376) 
N#CC(NCC)c1ccccc1

>  <s_sd_BIOSOLVEIT.INFINISEE\_SPACE>  (376) 
eXplore_7tr_2022-12

>  <s_vsw_compound_code>  (376) 
89410

>  <s_vsw_variant>  (376) 
89410-3

>  <r_epik_Charging_Adjusted_Penalty>  (376) 
2.2430243132969898

>  <r_epik_Ionization_Penalty>  (376) 
1.1214999999999999

>  <r_epik_Ionization_Penalty_Charging>  (376) 
1.1214999999999999

>  <r_epik_Ionization_Penalty_Neutral>  (376) 
0

>  <r_epik_State_Penalty>  (376) 
1.1214999999999999

>  <r_i_docking_score>  (376) 
-4.0382832537715396

>  <r_i_glide_ecoul>  (376) 
-11.8793592453003

>  <r_i_glide_eff_state_penalty>  (376) 
1.1214999999999999

>  <r_i_glide_einternal>  (376) 
11.796776771545399

>  <r_i_glide_emodel>  (376) 
-64.890394057900707

>  <r_i_glide_energy>  (376) 
-46.415724754333503

>  <r_i_glide_erotb>  (376) 
0.74696114504003197

>  <r_i_glide_esite>  (376) 
-0.129127180326155

>  <r_i_glide_evdw>  (376) 
-34.536365509033203

>  <r_i_glide_gscore>  (376) 
-5.1597832537715398

>  <r_i_glide_hbond>  (376) 
-0.20000000000000001

>  <r_i_glide_ligand_efficiency>  (376) 
-0.10914279064247399

>  <r_i_glide_ligand_efficiency_ln>  (376) 
-0.87580896695159505

>  <r_i_glide_ligand_efficiency_sa>  (376) 
-0.36368799149072301

>  <r_i_glide_lipo>  (376) 
-1.3906208387532699

>  <r_i_glide_metal>  (376) 
-0

>  <r_i_glide_rewards>  (376) 
-0.67827421748544303

>  <r_lp_Energy>  (376) 
53.648651000000001

>  <r_lp_tautomer_probability>  (376) 
1

>  <r_qp_ACxDN^.5/SA>  (376) 
0.0101739

>  <r_qp_CIQPlogS>  (376) 
-6.9969999999999999

>  <r_qp_EA(eV)>  (376) 
1.1539999999999999

>  <r_qp_FISA>  (376) 
94.852000000000004

>  <r_qp_FOSA>  (376) 
306.58800000000002

>  <r_qp_IP(eV)>  (376) 
8.7479999999999993

>  <r_qp_Jm>  (376) 
0.000313469618845437

>  <r_qp_PISA>  (376) 
458.60300000000001

>  <r_qp_PSA>  (376) 
83.137

>  <r_qp_PercentHumanOralAbsorption>  (376) 
100

>  <r_qp_QPPCaco>  (376) 
311.40199999999999

>  <r_qp_QPPMDCK>  (376) 
155.08500000000001

>  <r_qp_QPlogBB>  (376) 
-0.76900000000000002

>  <r_qp_QPlogHERG>  (376) 
-8.1750000000000007

>  <r_qp_QPlogKhsa>  (376) 
0.71399999999999997

>  <r_qp_QPlogKp>  (376) 
-2.6589999999999998

>  <r_qp_QPlogPC16>  (376) 
17.411999999999999

>  <r_qp_QPlogPo/w>  (376) 
4.9820000000000002

>  <r_qp_QPlogPoct>  (376) 
24.817

>  <r_qp_QPlogPw>  (376) 
13.210000000000001

>  <r_qp_QPlogS>  (376) 
-6.5389999999999997

>  <r_qp_QPpolrz>  (376) 
55.225000000000001

>  <r_qp_SASA>  (376) 
860.04300000000001

>  <r_qp_SAamideO>  (376) 
0

>  <r_qp_SAfluorine>  (376) 
0

>  <r_qp_WPSA>  (376) 
0

>  <r_qp_accptHB>  (376) 
8.75

>  <r_qp_dip^2/V>  (376) 
0.020864000000000001

>  <r_qp_dipole>  (376) 
5.7789999999999999

>  <r_qp_donorHB>  (376) 
1

>  <r_qp_glob>  (376) 
0.76947359999999998

>  <r_qp_mol_MW>  (376) 
493.60700000000003

>  <r_qp_volume>  (376) 
1600.749

>  <r_sd_BIOSOLVEIT.INFINISEE\_FTREES\_SIMILARITY>  (376) 
0.90600000000000003

>  <r_sd_BIOSOLVEIT.LOGP>  (376) 
4.1015800000000002

>  <r_sd_BIOSOLVEIT.MOLECULAR\_WEIGHT>  (376) 
494.61599999999999

>  <r_sd_BIOSOLVEIT.TPSA>  (376) 
82.689999999999998

>  <i_epik_Tot_Q>  (376) 
2

>  <i_epik_Tot_abs_Q>  (376) 
2

>  <i_f3d_flags>  (376) 
0

>  <i_i_glide_confnum>  (376) 
11

>  <i_i_glide_lignum>  (376) 
1349

>  <i_i_glide_posenum>  (376) 
8

>  <i_i_glide_rotatable_bonds>  (376) 
11

>  <i_lp_mmshare_version>  (376) 
65135

>  <i_m_ct_format>  (376) 
2

>  <i_m_source_file_index>  (376) 
2795

>  <i_qp_#NandO>  (376) 
7

>  <i_qp_#acid>  (376) 
0

>  <i_qp_#amide>  (376) 
0

>  <i_qp_#amidine>  (376) 
0

>  <i_qp_#amine>  (376) 
1

>  <i_qp_#in34>  (376) 
0

>  <i_qp_#in56>  (376) 
22

>  <i_qp_#metab>  (376) 
6

>  <i_qp_#nonHatm>  (376) 
37

>  <i_qp_#noncon>  (376) 
0

>  <i_qp_#ringatoms>  (376) 
22

>  <i_qp_#rotor>  (376) 
11

>  <i_qp_#rtvFG>  (376) 
0

>  <i_qp_#stars>  (376) 
2

>  <i_qp_CNS>  (376) 
0

>  <i_qp_HumanOralAbsorption>  (376) 
1

>  <i_qp_RuleOfFive>  (376) 
0

>  <i_qp_RuleOfThree>  (376) 
1

>  <i_sd_BIOSOLVEIT.INFINISEE\_RESULT\_RANK>  (376) 
63237

>  <i_sd_version>  (376) 
0

>  <b_lp_Chiralities_Consistent>  (376) 
1

>  <b_sd_chiral_flag>  (376) 
0

>  <canonical_id>  (376) 
ATP-HTVS-3D580430A1F8

>  <compound_code>  (376) 
89410

>  <title>  (376) 
rxn502b____EMOL70144015____EMOL13728749____EMOL49839592

>  <variant>  (376) 
89410-3

>  <source_file>  (376) 
运行/运行/ATP-VSW/ATP-VSW-DOCK_HTVS_1-002_lib.maegz

>  <canonical_smiles>  (376) 
CCN(c1c[nH+]c2ccccc2c1NC(=O)c1ccc(OCC[NH+](C)C)cc1)[C@@H](C#N)c1ccccc1

>  <scaffold>  (376) 
O=C(Nc1c(NCc2ccccc2)c[nH+]c2ccccc12)c1ccccc1

>  <molecular_formula>  (376) 
C30H33N5O2+2

$$$$
ATP-HTVS-3D9456613EE7
     RDKit          3D

 66 69  0  0  0  0  0  0  0  0999 V2000
  199.0669  186.2977  152.7262 O   0  0  0  0  0  0  0  0  0  0  0  0
  198.2500  185.4987  152.2676 C   0  0  0  0  0  0  0  0  0  0  0  0
  197.5368  184.6333  153.0173 N   0  0  0  0  0  0  0  0  0  0  0  0
  197.4840  184.5236  154.4347 C   0  0  0  0  0  0  0  0  0  0  0  0
  197.1684  183.2700  155.0324 C   0  0  0  0  0  0  0  0  0  0  0  0
  197.0039  182.1386  154.2125 N   0  0  0  0  0  0  0  0  0  0  0  0
  197.9806  181.0742  154.3883 C   0  0  1  0  0  0  0  0  0  0  0  0
  198.1161  180.1982  153.1665 C   0  0  0  0  0  0  0  0  0  0  0  0
  196.9975  179.8719  152.3724 C   0  0  0  0  0  0  0  0  0  0  0  0
  197.1528  179.0426  151.2466 C   0  0  0  0  0  0  0  0  0  0  0  0
  198.4272  178.5264  150.9179 C   0  0  0  0  0  0  0  0  0  0  0  0
  199.5430  178.8536  151.7210 C   0  0  0  0  0  0  0  0  0  0  0  0
  199.3817  179.6764  152.8469 C   0  0  0  0  0  0  0  0  0  0  0  0
  198.5941  177.6161  149.7130 C   0  0  1  0  0  0  0  0  0  0  0  0
  199.3713  176.3895  150.0221 N   0  0  1  0  0  0  0  0  0  0  0  0
  198.8304  175.5865  151.1463 C   0  0  2  0  0  0  0  0  0  0  0  0
  199.5975  175.5630  148.8161 C   0  0  2  0  0  0  0  0  0  0  0  0
  197.0500  183.1970  156.4508 C   0  0  0  0  0  0  0  0  0  0  0  0
  197.3002  184.3661  157.2192 C   0  0  0  0  0  0  0  0  0  0  0  0
  197.5945  185.5288  156.5977 N   0  0  0  0  0  0  0  0  0  0  0  0
  197.6793  185.6530  155.2603 C   0  0  0  0  0  0  0  0  0  0  0  0
  197.2056  184.3431  158.6284 C   0  0  0  0  0  0  0  0  0  0  0  0
  196.8849  183.1402  159.2868 C   0  0  0  0  0  0  0  0  0  0  0  0
  196.6122  181.9821  158.5363 C   0  0  0  0  0  0  0  0  0  0  0  0
  196.6744  182.0071  157.1280 C   0  0  0  0  0  0  0  0  0  0  0  0
  198.0138  185.4593  150.7521 C   0  0  2  0  0  0  0  0  0  0  0  0
  196.8324  184.6349  150.4325 C   0  0  0  0  0  0  0  0  0  0  0  0
  195.9140  183.9776  150.1987 N   0  0  0  0  0  0  0  0  0  0  0  0
  199.2724  184.9864  149.9962 C   0  0  1  0  0  0  0  0  0  0  0  0
  199.2388  185.2843  148.5041 C   0  0  0  0  0  0  0  0  0  0  0  0
  200.2413  186.0915  147.9210 C   0  0  0  0  0  0  0  0  0  0  0  0
  200.2126  186.3675  146.5379 C   0  0  0  0  0  0  0  0  0  0  0  0
  199.1786  185.8481  145.7337 C   0  0  0  0  0  0  0  0  0  0  0  0
  198.1775  185.0454  146.3120 C   0  0  0  0  0  0  0  0  0  0  0  0
  198.2169  184.7515  147.6847 C   0  0  0  0  0  0  0  0  0  0  0  0
  196.9575  183.9725  152.5180 H   0  0  0  0  0  0  0  0  0  0  0  0
  196.8306  182.3317  153.2388 H   0  0  0  0  0  0  0  0  0  0  0  0
  198.9535  181.5095  154.6337 H   0  0  0  0  0  0  0  0  0  0  0  0
  197.6963  180.4078  155.2028 H   0  0  0  0  0  0  0  0  0  0  0  0
  196.0119  180.2346  152.6257 H   0  0  0  0  0  0  0  0  0  0  0  0
  196.2874  178.8094  150.6405 H   0  0  0  0  0  0  0  0  0  0  0  0
  200.5270  178.4669  151.4990 H   0  0  0  0  0  0  0  0  0  0  0  0
  200.2312  179.8930  153.4803 H   0  0  0  0  0  0  0  0  0  0  0  0
  197.6107  177.3417  149.3261 H   0  0  0  0  0  0  0  0  0  0  0  0
  199.0952  178.1884  148.9297 H   0  0  0  0  0  0  0  0  0  0  0  0
  197.8379  175.1993  150.9184 H   0  0  0  0  0  0  0  0  0  0  0  0
  198.7579  176.1679  152.0662 H   0  0  0  0  0  0  0  0  0  0  0  0
  199.4864  174.7410  151.3613 H   0  0  0  0  0  0  0  0  0  0  0  0
  198.6567  175.1831  148.4147 H   0  0  0  0  0  0  0  0  0  0  0  0
  200.2363  174.7098  149.0475 H   0  0  0  0  0  0  0  0  0  0  0  0
  200.0912  176.1406  148.0327 H   0  0  0  0  0  0  0  0  0  0  0  0
  197.8830  186.6501  154.8941 H   0  0  0  0  0  0  0  0  0  0  0  0
  197.3912  185.2380  159.2087 H   0  0  0  0  0  0  0  0  0  0  0  0
  196.8308  183.1049  160.3680 H   0  0  0  0  0  0  0  0  0  0  0  0
  196.3635  181.0568  159.0333 H   0  0  0  0  0  0  0  0  0  0  0  0
  196.4038  181.1009  156.6024 H   0  0  0  0  0  0  0  0  0  0  0  0
  197.7858  186.4845  150.4506 H   0  0  0  0  0  0  0  0  0  0  0  0
  200.1627  185.4467  150.4269 H   0  0  0  0  0  0  0  0  0  0  0  0
  199.4069  183.9097  150.1289 H   0  0  0  0  0  0  0  0  0  0  0  0
  201.0414  186.5010  148.5225 H   0  0  0  0  0  0  0  0  0  0  0  0
  200.9853  186.9772  146.0901 H   0  0  0  0  0  0  0  0  0  0  0  0
  199.1561  186.0605  144.6745 H   0  0  0  0  0  0  0  0  0  0  0  0
  197.3746  184.6443  145.7103 H   0  0  0  0  0  0  0  0  0  0  0  0
  197.4459  184.1078  148.0800 H   0  0  0  0  0  0  0  0  0  0  0  0
  200.2804  176.7101  150.3194 H   0  0  0  0  0  0  0  0  0  0  0  0
  197.7378  186.3613  157.1697 H   0  0  0  0  0  0  0  0  0  0  0  0
  1  2  2  0
  2  3  1  0
  2 26  1  0
  3  4  1  0
  3 36  1  0
  4  5  2  0
  4 21  1  0
  5  6  1  0
  5 18  1  0
  6  7  1  0
  6 37  1  0
  7  8  1  0
  7 38  1  1
  7 39  1  0
  8  9  1  0
  8 13  2  0
  9 10  2  0
  9 40  1  0
 10 11  1  0
 10 41  1  0
 11 12  2  0
 11 14  1  0
 12 13  1  0
 12 42  1  0
 13 43  1  0
 14 15  1  0
 14 44  1  6
 14 45  1  0
 15 16  1  0
 15 17  1  0
 15 65  1  1
 16 46  1  6
 16 47  1  0
 16 48  1  0
 17 49  1  6
 17 50  1  0
 17 51  1  0
 18 19  1  0
 18 25  2  0
 19 20  1  0
 19 22  2  0
 20 21  2  0
 20 66  1  0
 21 52  1  0
 22 23  1  0
 22 53  1  0
 23 24  2  0
 23 54  1  0
 24 25  1  0
 24 55  1  0
 25 56  1  0
 26 27  1  0
 26 29  1  0
 26 57  1  6
 27 28  3  0
 29 30  1  0
 29 58  1  1
 29 59  1  0
 30 31  2  0
 30 35  1  0
 31 32  1  0
 31 60  1  0
 32 33  2  0
 32 61  1  0
 33 34  1  0
 33 62  1  0
 34 35  2  0
 34 63  1  0
 35 64  1  0
M  CHG  2  15   1  20   1
M  END
>  <s_epik_cmdline>  (377) 
J2VwaWtfcHl0aG9uJywgJy1waCcsICc3LjAwMDAwMCcsICctcGh0JywgJzIuMDAwMDAwJywgJy1tcycsICcxNicsICctdG4nLCAnOCcsICctbWEnLCAnMjAwJywgJy1pbWFlJywgJzxpbmZpbGUubWFlPicsICctb21hZScsICc8b3V0ZmlsZS5tYWU+Jw==

>  <s_epik_input>  (377) 
W2NIXTFbY0hdW2NIXVtjSF1bY0hdYzFbQ0gyXVtDQEBIXShDI04pQyg9TylbTkhdYyhbY0hdbmMoYzIzKVtjSF1bY0hdW2NIXVtjSF0zKWMyW05IXVtDSDJdYzRbY0hdW2NIXWMoW2NIXVtjSF00KVtDSDJdTihbQ0gzXSlbQ0gzXQ==

>  <s_i_glide_gridfile>  (377) 
ATP-Grid

>  <s_lp_Force_Field>  (377) 
OPLS_2005

>  <s_lp_Variant>  (377) 
rxn502b____EMOL1843611____EMOL30488121____EMOL50155899-2

>  <s_lp_label>  (377) 
2233_sdstereoexpander_2_neutralizer_1_epik_1_stereoizer_1

>  <s_m_source_file>  (377) 
ATP-VSW-LIGPREP-003-in.maegz

>  <s_sd_BIOSOLVEIT.INFINISEE\_QUERY\_NAME>  (377) 
Ref-Lig

>  <s_sd_BIOSOLVEIT.INFINISEE\_QUERY\_SMILES>  (377) 
S(c1nc2c(cc1C[NH2+]Cc3ccc(cc3)C[NH+](C)C)cccc2)Cc4ccccc4

>  <s_sd_BIOSOLVEIT.INFINISEE\_REACTION\_NAME>  (377) 
rxn502b

>  <s_sd_BIOSOLVEIT.INFINISEE\_REAGENT1\_NAME>  (377) 
EMOL1843611

>  <s_sd_BIOSOLVEIT.INFINISEE\_REAGENT1\_SMILES>  (377) 
O=C(O)C(C#N)Cc1ccccc1

>  <s_sd_BIOSOLVEIT.INFINISEE\_REAGENT2\_NAME>  (377) 
EMOL30488121

>  <s_sd_BIOSOLVEIT.INFINISEE\_REAGENT2\_SMILES>  (377) 
Brc1c(N)cnc2c1cccc2

>  <s_sd_BIOSOLVEIT.INFINISEE\_REAGENT3\_NAME>  (377) 
EMOL50155899

>  <s_sd_BIOSOLVEIT.INFINISEE\_REAGENT3\_SMILES>  (377) 
N(Cc1ccc(cc1)CN)(C)C

>  <s_sd_BIOSOLVEIT.INFINISEE\_SPACE>  (377) 
eXplore_7tr_2022-12

>  <s_vsw_compound_code>  (377) 
71427

>  <s_vsw_variant>  (377) 
71427-2

>  <r_epik_Charging_Adjusted_Penalty>  (377) 
0.17669174272385399

>  <r_epik_Ionization_Penalty>  (377) 
0.088400000000000006

>  <r_epik_Ionization_Penalty_Charging>  (377) 
0.088300000000000003

>  <r_epik_Ionization_Penalty_Neutral>  (377) 
0

>  <r_epik_State_Penalty>  (377) 
0.088300000000000003

>  <r_i_docking_score>  (377) 
-4.9243387823105902

>  <r_i_glide_ecoul>  (377) 
-9.8047790527343803

>  <r_i_glide_eff_state_penalty>  (377) 
0.088300000000000003

>  <r_i_glide_einternal>  (377) 
4.8406281471252397

>  <r_i_glide_emodel>  (377) 
-63.929739816403803

>  <r_i_glide_energy>  (377) 
-46.784542083740199

>  <r_i_glide_erotb>  (377) 
0.74430652731626801

>  <r_i_glide_esite>  (377) 
-0.051476309172908699

>  <r_i_glide_evdw>  (377) 
-36.979763031005902

>  <r_i_glide_gscore>  (377) 
-5.0126387823105896

>  <r_i_glide_hbond>  (377) 
-0.0415892316444278

>  <r_i_glide_ligand_efficiency>  (377) 
-0.14069539378030299

>  <r_i_glide_ligand_efficiency_ln>  (377) 
-1.0810016525280699

>  <r_i_glide_ligand_efficiency_sa>  (377) 
-0.460223962048047

>  <r_i_glide_lipo>  (377) 
-1.8349898105278

>  <r_i_glide_metal>  (377) 
-0

>  <r_i_glide_rewards>  (377) 
-0.50918494882127596

>  <r_lp_Energy>  (377) 
36.433737999999998

>  <r_qp_ACxDN^.5/SA>  (377) 
0.0156125

>  <r_qp_CIQPlogS>  (377) 
-6.6639999999999997

>  <r_qp_EA(eV)>  (377) 
1.1000000000000001

>  <r_qp_FISA>  (377) 
116.633

>  <r_qp_FOSA>  (377) 
219.18299999999999

>  <r_qp_IP(eV)>  (377) 
8.673

>  <r_qp_Jm>  (377) 
0.0039243987228394801

>  <r_qp_PISA>  (377) 
388.83999999999997

>  <r_qp_PSA>  (377) 
83.668000000000006

>  <r_qp_PercentHumanOralAbsorption>  (377) 
90.867000000000004

>  <r_qp_QPPCaco>  (377) 
193.53800000000001

>  <r_qp_QPPMDCK>  (377) 
92.748999999999995

>  <r_qp_QPlogBB>  (377) 
-0.72699999999999998

>  <r_qp_QPlogHERG>  (377) 
-6.6020000000000003

>  <r_qp_QPlogKhsa>  (377) 
0.505

>  <r_qp_QPlogKp>  (377) 
-3.4020000000000001

>  <r_qp_QPlogPC16>  (377) 
15.4

>  <r_qp_QPlogPo/w>  (377) 
3.927

>  <r_qp_QPlogPoct>  (377) 
24.785

>  <r_qp_QPlogPw>  (377) 
13.505000000000001

>  <r_qp_QPlogS>  (377) 
-4.6710000000000003

>  <r_qp_QPpolrz>  (377) 
48.271999999999998

>  <r_qp_SASA>  (377) 
724.65700000000004

>  <r_qp_SAamideO>  (377) 
0

>  <r_qp_SAfluorine>  (377) 
0

>  <r_qp_WPSA>  (377) 
0

>  <r_qp_accptHB>  (377) 
8

>  <r_qp_dip^2/V>  (377) 
0.095695500000000003

>  <r_qp_dipole>  (377) 
11.688000000000001

>  <r_qp_donorHB>  (377) 
2

>  <r_qp_glob>  (377) 
0.84614279999999997

>  <r_qp_mol_MW>  (377) 
463.58100000000002

>  <r_qp_volume>  (377) 
1427.6320000000001

>  <r_sd_BIOSOLVEIT.INFINISEE\_FTREES\_SIMILARITY>  (377) 
0.92800000000000005

>  <r_sd_BIOSOLVEIT.LOGP>  (377) 
3.8123800000000001

>  <r_sd_BIOSOLVEIT.MOLECULAR\_WEIGHT>  (377) 
464.58999999999997

>  <r_sd_BIOSOLVEIT.TPSA>  (377) 
82.25

>  <i_epik_Tot_Q>  (377) 
2

>  <i_epik_Tot_abs_Q>  (377) 
2

>  <i_f3d_flags>  (377) 
0

>  <i_i_glide_confnum>  (377) 
8

>  <i_i_glide_lignum>  (377) 
902

>  <i_i_glide_posenum>  (377) 
12

>  <i_i_glide_rotatable_bonds>  (377) 
10

>  <i_lp_mmshare_version>  (377) 
65135

>  <i_m_ct_format>  (377) 
2

>  <i_m_source_file_index>  (377) 
2233

>  <i_qp_#NandO>  (377) 
6

>  <i_qp_#acid>  (377) 
0

>  <i_qp_#amide>  (377) 
0

>  <i_qp_#amidine>  (377) 
0

>  <i_qp_#amine>  (377) 
1

>  <i_qp_#in34>  (377) 
0

>  <i_qp_#in56>  (377) 
22

>  <i_qp_#metab>  (377) 
8

>  <i_qp_#nonHatm>  (377) 
35

>  <i_qp_#noncon>  (377) 
0

>  <i_qp_#ringatoms>  (377) 
22

>  <i_qp_#rotor>  (377) 
10

>  <i_qp_#rtvFG>  (377) 
0

>  <i_qp_#stars>  (377) 
0

>  <i_qp_CNS>  (377) 
0

>  <i_qp_HumanOralAbsorption>  (377) 
3

>  <i_qp_RuleOfFive>  (377) 
0

>  <i_qp_RuleOfThree>  (377) 
1

>  <i_sd_BIOSOLVEIT.INFINISEE\_RESULT\_RANK>  (377) 
6239

>  <i_sd_version>  (377) 
0

>  <b_lp_Chiralities_Consistent>  (377) 
1

>  <b_sd_chiral_flag>  (377) 
0

>  <canonical_id>  (377) 
ATP-HTVS-3D9456613EE7

>  <compound_code>  (377) 
71427

>  <title>  (377) 
rxn502b____EMOL1843611____EMOL30488121____EMOL50155899

>  <variant>  (377) 
71427-2

>  <source_file>  (377) 
运行/运行/ATP-VSW/ATP-VSW-DOCK_HTVS_1-003_lib/ATP-VSW-DOCK_HTVS_1-003_lib.mae

>  <canonical_smiles>  (377) 
C[NH+](C)Cc1ccc(CNc2c(NC(=O)[C@H](C#N)Cc3ccccc3)c[nH+]c3ccccc23)cc1

>  <scaffold>  (377) 
O=C(CCc1ccccc1)Nc1c[nH+]c2ccccc2c1NCc1ccccc1

>  <molecular_formula>  (377) 
C29H31N5O+2

$$$$
ATP-HTVS-3DA95123E47A
     RDKit          3D

 61 65  0  0  0  0  0  0  0  0999 V2000
  201.1564  175.0505  154.9292 F   0  0  0  0  0  0  0  0  0  0  0  0
  200.7601  176.2249  155.4732 C   0  0  0  0  0  0  0  0  0  0  0  0
  199.9513  177.0958  154.7212 C   0  0  0  0  0  0  0  0  0  0  0  0
  199.5234  178.3442  155.2466 C   0  0  0  0  0  0  0  0  0  0  0  0
  199.9473  178.6508  156.5645 C   0  0  0  0  0  0  0  0  0  0  0  0
  199.4569  179.8873  156.9260 O   0  0  0  0  0  0  0  0  0  0  0  0
  198.7157  180.3481  155.8683 C   0  0  0  0  0  0  0  0  0  0  0  0
  198.7365  179.4717  154.8006 C   0  0  0  0  0  0  0  0  0  0  0  0
  198.1357  179.5781  153.4613 C   0  0  0  0  0  0  0  0  0  0  0  0
  196.9255  180.2813  153.2726 C   0  0  0  0  0  0  0  0  0  0  0  0
  196.3474  180.3817  151.9945 C   0  0  0  0  0  0  0  0  0  0  0  0
  196.9494  179.7600  150.8875 C   0  0  0  0  0  0  0  0  0  0  0  0
  198.1578  179.0623  151.0609 C   0  0  0  0  0  0  0  0  0  0  0  0
  198.7621  178.9957  152.3315 C   0  0  0  0  0  0  0  0  0  0  0  0
  198.1256  181.7113  156.0296 C   0  0  1  0  0  0  0  0  0  0  0  0
  196.7369  181.7082  156.4818 N   0  0  0  0  0  0  0  0  0  0  0  0
  196.5643  181.8707  157.9161 C   0  0  1  0  0  0  0  0  0  0  0  0
  196.8483  183.2787  158.4122 C   0  0  0  0  0  0  0  0  0  0  0  0
  195.8017  184.2095  158.5450 C   0  0  0  0  0  0  0  0  0  0  0  0
  196.0740  185.5282  158.9602 C   0  0  0  0  0  0  0  0  0  0  0  0
  197.3985  185.9428  159.2401 C   0  0  0  0  0  0  0  0  0  0  0  0
  197.6851  187.2659  159.6288 N   0  0  0  0  0  0  0  0  0  0  0  0
  198.9410  187.9107  159.2511 C   0  0  1  0  0  0  0  0  0  0  0  0
  198.6606  189.2633  158.5792 C   0  0  1  0  0  0  0  0  0  0  0  0
  197.7515  190.0987  159.4050 N   0  0  2  0  0  0  0  0  0  0  0  0
  196.4753  189.4009  159.7053 C   0  0  1  0  0  0  0  0  0  0  0  0
  196.7330  188.0590  160.3993 C   0  0  1  0  0  0  0  0  0  0  0  0
  197.5200  191.4239  158.7889 C   0  0  2  0  0  0  0  0  0  0  0  0
  198.4404  184.9938  159.1122 C   0  0  0  0  0  0  0  0  0  0  0  0
  198.1641  183.6718  158.7231 C   0  0  0  0  0  0  0  0  0  0  0  0
  200.7496  177.7902  157.3420 C   0  0  0  0  0  0  0  0  0  0  0  0
  201.1526  176.5632  156.7816 C   0  0  0  0  0  0  0  0  0  0  0  0
  196.3174  180.8046  156.2860 H   0  0  0  0  0  0  0  0  0  0  0  0
  199.6546  176.7852  153.7325 H   0  0  0  0  0  0  0  0  0  0  0  0
  196.4181  180.7570  154.0992 H   0  0  0  0  0  0  0  0  0  0  0  0
  195.4280  180.9340  151.8721 H   0  0  0  0  0  0  0  0  0  0  0  0
  196.4962  179.8309  149.9087 H   0  0  0  0  0  0  0  0  0  0  0  0
  198.6363  178.5845  150.2191 H   0  0  0  0  0  0  0  0  0  0  0  0
  199.7130  178.4920  152.4148 H   0  0  0  0  0  0  0  0  0  0  0  0
  198.7715  182.3099  156.6665 H   0  0  0  0  0  0  0  0  0  0  0  0
  198.1494  182.2143  155.0605 H   0  0  0  0  0  0  0  0  0  0  0  0
  195.5237  181.6307  158.1375 H   0  0  0  0  0  0  0  0  0  0  0  0
  197.1541  181.1305  158.4483 H   0  0  0  0  0  0  0  0  0  0  0  0
  194.7869  183.9242  158.3062 H   0  0  0  0  0  0  0  0  0  0  0  0
  195.2423  186.2130  159.0287 H   0  0  0  0  0  0  0  0  0  0  0  0
  199.5618  188.0578  160.1338 H   0  0  0  0  0  0  0  0  0  0  0  0
  199.5376  187.3078  158.5677 H   0  0  0  0  0  0  0  0  0  0  0  0
  199.5992  189.7877  158.3909 H   0  0  0  0  0  0  0  0  0  0  0  0
  198.2021  189.0830  157.6043 H   0  0  0  0  0  0  0  0  0  0  0  0
  195.8299  190.0249  160.3267 H   0  0  0  0  0  0  0  0  0  0  0  0
  195.9406  189.2134  158.7763 H   0  0  0  0  0  0  0  0  0  0  0  0
  195.7923  187.5415  160.5822 H   0  0  0  0  0  0  0  0  0  0  0  0
  197.1516  188.2557  161.3836 H   0  0  0  0  0  0  0  0  0  0  0  0
  197.0680  191.3197  157.7993 H   0  0  0  0  0  0  0  0  0  0  0  0
  198.4540  191.9775  158.6783 H   0  0  0  0  0  0  0  0  0  0  0  0
  196.8479  192.0320  159.3948 H   0  0  0  0  0  0  0  0  0  0  0  0
  199.4662  185.2629  159.3136 H   0  0  0  0  0  0  0  0  0  0  0  0
  198.9817  182.9679  158.6543 H   0  0  0  0  0  0  0  0  0  0  0  0
  201.0355  178.0612  158.3477 H   0  0  0  0  0  0  0  0  0  0  0  0
  201.7684  175.8741  157.3365 H   0  0  0  0  0  0  0  0  0  0  0  0
  198.2195  190.2382  160.2930 H   0  0  0  0  0  0  0  0  0  0  0  0
  1  2  1  0
  2  3  1  0
  2 32  2  0
  3  4  2  0
  3 34  1  0
  4  5  1  0
  4  8  1  0
  5  6  1  0
  5 31  2  0
  6  7  1  0
  7  8  2  0
  7 15  1  0
  8  9  1  0
  9 10  2  0
  9 14  1  0
 10 11  1  0
 10 35  1  0
 11 12  2  0
 11 36  1  0
 12 13  1  0
 12 37  1  0
 13 14  2  0
 13 38  1  0
 14 39  1  0
 15 16  1  0
 15 40  1  1
 15 41  1  0
 16 17  1  0
 16 33  1  0
 17 18  1  0
 17 42  1  6
 17 43  1  0
 18 19  1  0
 18 30  2  0
 19 20  2  0
 19 44  1  0
 20 21  1  0
 20 45  1  0
 21 22  1  0
 21 29  2  0
 22 23  1  0
 22 27  1  0
 23 24  1  0
 23 46  1  1
 23 47  1  0
 24 25  1  0
 24 48  1  6
 24 49  1  0
 25 26  1  0
 25 28  1  0
 25 61  1  1
 26 27  1  0
 26 50  1  1
 26 51  1  0
 27 52  1  1
 27 53  1  0
 28 54  1  6
 28 55  1  0
 28 56  1  0
 29 30  1  0
 29 57  1  0
 30 58  1  0
 31 32  1  0
 31 59  1  0
 32 60  1  0
M  CHG  1  25   1
M  END
>  <s_epik_cmdline>  (378) 
J2VwaWtfcHl0aG9uJywgJy1waCcsICc3LjAwMDAwMCcsICctcGh0JywgJzIuMDAwMDAwJywgJy1tcycsICcxNicsICctdG4nLCAnOCcsICctbWEnLCAnMjAwJywgJy1pbWFlJywgJzxpbmZpbGUubWFlPicsICctb21hZScsICc8b3V0ZmlsZS5tYWU+Jw==

>  <s_epik_input>  (378) 
W2NIXTFbY0hdW2NIXVtjSF1bY0hdYzEtYzJjKG9jKGMyMylbY0hdW2NIXWMoRilbY0hdMylbQ0gyXVtOSF1bQ0gyXWM0W2NIXVtjSF1jKFtjSF1bY0hdNClONVtDSDJdW0NIMl1OKFtDSDNdKVtDSDJdW0NIMl01

>  <s_i_glide_gridfile>  (378) 
ATP-Grid

>  <s_lp_Force_Field>  (378) 
OPLS_2005

>  <s_lp_Variant>  (378) 
m_270004bbb____15722580____8300602-3

>  <s_lp_label>  (378) 
1782_sdstereoexpander_1_neutralizer_1_epik_3_stereoizer_1

>  <s_m_source_file>  (378) 
ATP-VSW-LIGPREP-001-in.maegz

>  <s_sd_BIOSOLVEIT.INFINISEE\_QUERY\_NAME>  (378) 
Ref-Lig

>  <s_sd_BIOSOLVEIT.INFINISEE\_QUERY\_SMILES>  (378) 
S(c1nc2c(cc1C[NH2+]Cc3ccc(cc3)C[NH+](C)C)cccc2)Cc4ccccc4

>  <s_sd_BIOSOLVEIT.INFINISEE\_REACTION\_NAME>  (378) 
m_270004bbb

>  <s_sd_BIOSOLVEIT.INFINISEE\_REAGENT1\_SMILES>  (378) 
[R1*]NCC=1Oc2c(cc(F)cc2)C1c3ccccc3

>  <s_sd_BIOSOLVEIT.INFINISEE\_REAGENT2\_SMILES>  (378) 
[R1*]Cc1ccc(N2CCN(CC2)C)cc1

>  <s_sd_BIOSOLVEIT.INFINISEE\_SPACE>  (378) 
REALSpace_44bn_2023-08

>  <s_vsw_compound_code>  (378) 
56993

>  <s_vsw_variant>  (378) 
56993-3

>  <r_epik_Charging_Adjusted_Penalty>  (378) 
1.9850331426863601

>  <r_epik_Ionization_Penalty>  (378) 
1.8645

>  <r_epik_Ionization_Penalty_Charging>  (378) 
0.053400000000000003

>  <r_epik_Ionization_Penalty_Neutral>  (378) 
1.8110999999999999

>  <r_epik_State_Penalty>  (378) 
1.9316

>  <r_i_docking_score>  (378) 
-2.79904934128025

>  <r_i_glide_ecoul>  (378) 
-6.4514474868774396

>  <r_i_glide_eff_state_penalty>  (378) 
1.9316

>  <r_i_glide_einternal>  (378) 
2.77456450462341

>  <r_i_glide_emodel>  (378) 
-57.465638614098403

>  <r_i_glide_energy>  (378) 
-43.622174263000502

>  <r_i_glide_erotb>  (378) 
0.64356299191117305

>  <r_i_glide_esite>  (378) 
-0.0055701802735587296

>  <r_i_glide_evdw>  (378) 
-37.170726776122997

>  <r_i_glide_gscore>  (378) 
-4.7306493412802499

>  <r_i_glide_hbond>  (378) 
-0.016695236808624201

>  <r_i_glide_ligand_efficiency>  (378) 
-0.087470291915007894

>  <r_i_glide_ligand_efficiency_ln>  (378) 
-0.62678344671601205

>  <r_i_glide_ligand_efficiency_sa>  (378) 
-0.277700866482886

>  <r_i_glide_lipo>  (378) 
-1.66797384029583

>  <r_i_glide_metal>  (378) 
-0

>  <r_i_glide_rewards>  (378) 
-0.857719613975647

>  <r_lp_Energy>  (378) 
40.939708000000003

>  <r_qp_ACxDN^.5/SA>  (378) 
0.0076242000000000002

>  <r_qp_CIQPlogS>  (378) 
-5.218

>  <r_qp_EA(eV)>  (378) 
0.72499999999999998

>  <r_qp_FISA>  (378) 
30.324000000000002

>  <r_qp_FOSA>  (378) 
258.32100000000003

>  <r_qp_IP(eV)>  (378) 
8.2550000000000008

>  <r_qp_Jm>  (378) 
0.0027573017106985701

>  <r_qp_PISA>  (378) 
320.29700000000003

>  <r_qp_PSA>  (378) 
32.286000000000001

>  <r_qp_PercentHumanOralAbsorption>  (378) 
100

>  <r_qp_QPPCaco>  (378) 
317.78899999999999

>  <r_qp_QPPMDCK>  (378) 
316.73700000000002

>  <r_qp_QPlogBB>  (378) 
0.96699999999999997

>  <r_qp_QPlogHERG>  (378) 
-6.6310000000000002

>  <r_qp_QPlogKhsa>  (378) 
0.96999999999999997

>  <r_qp_QPlogKp>  (378) 
-4.6909999999999998

>  <r_qp_QPlogPC16>  (378) 
12.488

>  <r_qp_QPlogPo/w>  (378) 
4.5339999999999998

>  <r_qp_QPlogPoct>  (378) 
19.378

>  <r_qp_QPlogPw>  (378) 
9.2059999999999995

>  <r_qp_QPlogS>  (378) 
-3.5009999999999999

>  <r_qp_QPpolrz>  (378) 
45.533999999999999

>  <r_qp_SASA>  (378) 
655.80499999999995

>  <r_qp_SAamideO>  (378) 
0

>  <r_qp_SAfluorine>  (378) 
46.863999999999997

>  <r_qp_WPSA>  (378) 
46.863999999999997

>  <r_qp_accptHB>  (378) 
5

>  <r_qp_dip^2/V>  (378) 
0.0015421

>  <r_qp_dipole>  (378) 
1.405

>  <r_qp_donorHB>  (378) 
1

>  <r_qp_glob>  (378) 
0.86903370000000002

>  <r_qp_mol_MW>  (378) 
429.536

>  <r_qp_volume>  (378) 
1279.2909999999999

>  <r_sd_BIOSOLVEIT.INFINISEE\_FTREES\_SIMILARITY>  (378) 
0.90400000000000003

>  <r_sd_BIOSOLVEIT.LOGP>  (378) 
2.8372000000000002

>  <r_sd_BIOSOLVEIT.MOLECULAR\_WEIGHT>  (378) 
431.55200000000002

>  <r_sd_BIOSOLVEIT.TPSA>  (378) 
37.43

>  <i_epik_Tot_Q>  (378) 
1

>  <i_epik_Tot_abs_Q>  (378) 
1

>  <i_f3d_flags>  (378) 
0

>  <i_i_glide_confnum>  (378) 
7

>  <i_i_glide_lignum>  (378) 
511

>  <i_i_glide_posenum>  (378) 
4

>  <i_i_glide_rotatable_bonds>  (378) 
6

>  <i_lp_mmshare_version>  (378) 
65135

>  <i_m_ct_format>  (378) 
2

>  <i_m_source_file_index>  (378) 
1782

>  <i_qp_#NandO>  (378) 
4

>  <i_qp_#acid>  (378) 
0

>  <i_qp_#amide>  (378) 
0

>  <i_qp_#amidine>  (378) 
0

>  <i_qp_#amine>  (378) 
2

>  <i_qp_#in34>  (378) 
0

>  <i_qp_#in56>  (378) 
27

>  <i_qp_#metab>  (378) 
5

>  <i_qp_#nonHatm>  (378) 
32

>  <i_qp_#noncon>  (378) 
4

>  <i_qp_#ringatoms>  (378) 
27

>  <i_qp_#rotor>  (378) 
4

>  <i_qp_#rtvFG>  (378) 
0

>  <i_qp_#stars>  (378) 
0

>  <i_qp_CNS>  (378) 
2

>  <i_qp_HumanOralAbsorption>  (378) 
3

>  <i_qp_RuleOfFive>  (378) 
0

>  <i_qp_RuleOfThree>  (378) 
0

>  <i_sd_BIOSOLVEIT.INFINISEE\_REAGENT1\_NAME>  (378) 
15722580

>  <i_sd_BIOSOLVEIT.INFINISEE\_REAGENT2\_NAME>  (378) 
8300602

>  <i_sd_BIOSOLVEIT.INFINISEE\_RESULT\_RANK>  (378) 
76590

>  <i_sd_version>  (378) 
0

>  <b_lp_Chiralities_Consistent>  (378) 
1

>  <b_sd_chiral_flag>  (378) 
0

>  <canonical_id>  (378) 
ATP-HTVS-3DA95123E47A

>  <compound_code>  (378) 
56993

>  <title>  (378) 
m_270004bbb____15722580____8300602

>  <variant>  (378) 
56993-3

>  <source_file>  (378) 
运行/运行/ATP-VSW/ATP-VSW-DOCK_HTVS_1-001_lib/ATP-VSW-DOCK_HTVS_1-001_lib

>  <canonical_smiles>  (378) 
C[NH+]1CCN(c2ccc(CNCc3oc4ccc(F)cc4c3-c3ccccc3)cc2)CC1

>  <scaffold>  (378) 
c1ccc(-c2c(CNCc3ccc(N4CC[NH2+]CC4)cc3)oc3ccccc23)cc1

>  <molecular_formula>  (378) 
C27H29FN3O+

$$$$
ATP-HTVS-3DABA9A3BF24
     RDKit          3D

 66 69  0  0  0  0  0  0  0  0999 V2000
  200.6998  187.0757  156.6768 S   0  0  0  0  0  0  0  0  0  0  0  0
  201.5369  188.3506  156.7993 O   0  0  0  0  0  0  0  0  0  0  0  0
  201.3968  185.8805  157.9228 C   0  0  1  0  0  0  0  0  0  0  0  0
  200.6450  184.5303  157.8999 C   0  0  2  0  0  0  0  0  0  0  0  0
  199.2823  184.6837  158.3437 N   0  0  0  0  0  0  0  0  0  0  0  0
  198.2665  183.7402  158.1508 C   0  0  0  0  0  0  0  0  0  0  0  0
  198.5372  182.6527  157.4258 N   0  0  0  0  0  0  0  0  0  0  0  0
  197.5907  181.7186  157.2466 C   0  0  0  0  0  0  0  0  0  0  0  0
  196.3682  181.8408  157.7557 N   0  0  0  0  0  0  0  0  0  0  0  0
  196.0174  182.9413  158.4424 C   0  0  0  0  0  0  0  0  0  0  0  0
  196.9785  183.9595  158.6758 C   0  0  0  0  0  0  0  0  0  0  0  0
  196.6011  185.1290  159.3896 C   0  0  0  0  0  0  0  0  0  0  0  0
  195.2933  185.2581  159.8798 C   0  0  0  0  0  0  0  0  0  0  0  0
  194.3489  184.2368  159.6684 C   0  0  0  0  0  0  0  0  0  0  0  0
  194.7144  183.0779  158.9496 C   0  0  0  0  0  0  0  0  0  0  0  0
  197.9135  180.5517  156.5711 N   0  0  0  0  0  0  0  0  0  0  0  0
  199.1010  180.4072  155.7480 C   0  0  1  0  0  0  0  0  0  0  0  0
  199.7592  179.0544  155.9080 C   0  0  0  0  0  0  0  0  0  0  0  0
  200.4246  178.7261  157.1098 C   0  0  0  0  0  0  0  0  0  0  0  0
  201.0390  177.4633  157.2462 C   0  0  0  0  0  0  0  0  0  0  0  0
  200.9713  176.5164  156.1970 C   0  0  0  0  0  0  0  0  0  0  0  0
  200.2490  176.8396  155.0295 C   0  0  0  0  0  0  0  0  0  0  0  0
  199.6848  178.1133  154.8658 C   0  0  0  0  0  0  0  0  0  0  0  0
  201.6637  175.1575  156.3291 C   0  0  1  0  0  0  0  0  0  0  0  0
  202.7955  174.9273  155.4207 N   0  0  0  0  0  0  0  0  0  0  0  0
  203.4588  173.6702  155.7594 C   0  0  2  0  0  0  0  0  0  0  0  0
  202.3672  174.8491  154.0242 C   0  0  2  0  0  0  0  0  0  0  0  0
  201.3860  183.5049  158.7417 C   0  0  0  0  0  0  0  0  0  0  0  0
  202.1024  182.4568  158.1173 C   0  0  0  0  0  0  0  0  0  0  0  0
  202.7692  181.4966  158.9040 C   0  0  0  0  0  0  0  0  0  0  0  0
  202.7261  181.5883  160.3115 C   0  0  0  0  0  0  0  0  0  0  0  0
  202.0088  182.6268  160.9363 C   0  0  0  0  0  0  0  0  0  0  0  0
  201.3467  183.5835  160.1516 C   0  0  0  0  0  0  0  0  0  0  0  0
  199.0260  187.4584  157.3935 C   0  0  2  0  0  0  0  0  0  0  0  0
  202.4427  185.7159  157.6568 H   0  0  0  0  0  0  0  0  0  0  0  0
  201.4034  186.3342  158.9092 H   0  0  0  0  0  0  0  0  0  0  0  0
  200.6239  184.1688  156.8701 H   0  0  0  0  0  0  0  0  0  0  0  0
  199.0481  185.5589  158.8407 H   0  0  0  0  0  0  0  0  0  0  0  0
  197.3004  185.9293  159.5607 H   0  0  0  0  0  0  0  0  0  0  0  0
  195.0051  186.1477  160.4262 H   0  0  0  0  0  0  0  0  0  0  0  0
  193.3453  184.3406  160.0514 H   0  0  0  0  0  0  0  0  0  0  0  0
  193.9895  182.2950  158.7888 H   0  0  0  0  0  0  0  0  0  0  0  0
  197.3007  179.7565  156.7170 H   0  0  0  0  0  0  0  0  0  0  0  0
  198.8182  180.5453  154.7003 H   0  0  0  0  0  0  0  0  0  0  0  0
  199.8604  181.1614  155.9591 H   0  0  0  0  0  0  0  0  0  0  0  0
  200.4548  179.4314  157.9304 H   0  0  0  0  0  0  0  0  0  0  0  0
  201.5526  177.2272  158.1659 H   0  0  0  0  0  0  0  0  0  0  0  0
  200.1554  176.1205  154.2265 H   0  0  0  0  0  0  0  0  0  0  0  0
  199.1948  178.3632  153.9360 H   0  0  0  0  0  0  0  0  0  0  0  0
  202.0118  175.0514  157.3567 H   0  0  0  0  0  0  0  0  0  0  0  0
  200.9162  174.3790  156.1832 H   0  0  0  0  0  0  0  0  0  0  0  0
  204.2718  173.4811  155.0541 H   0  0  0  0  0  0  0  0  0  0  0  0
  202.7702  172.8236  155.7001 H   0  0  0  0  0  0  0  0  0  0  0  0
  203.8947  173.6952  156.7622 H   0  0  0  0  0  0  0  0  0  0  0  0
  203.2031  174.5636  153.3733 H   0  0  0  0  0  0  0  0  0  0  0  0
  201.9626  175.7929  153.6957 H   0  0  0  0  0  0  0  0  0  0  0  0
  201.5930  174.0861  153.9251 H   0  0  0  0  0  0  0  0  0  0  0  0
  202.1186  182.3824  157.0411 H   0  0  0  0  0  0  0  0  0  0  0  0
  203.3113  180.6975  158.4224 H   0  0  0  0  0  0  0  0  0  0  0  0
  203.2429  180.8560  160.9153 H   0  0  0  0  0  0  0  0  0  0  0  0
  201.9584  182.6913  162.0160 H   0  0  0  0  0  0  0  0  0  0  0  0
  200.7800  184.3678  160.6320 H   0  0  0  0  0  0  0  0  0  0  0  0
  198.4085  186.5790  157.4250 H   0  0  0  0  0  0  0  0  0  0  0  0
  198.5260  188.2043  156.7723 H   0  0  0  0  0  0  0  0  0  0  0  0
  199.1620  187.8747  158.3934 H   0  0  0  0  0  0  0  0  0  0  0  0
  195.6813  181.0745  157.6497 H   0  0  0  0  0  0  0  0  0  0  0  0
  1  2  2  0
  1  3  1  1
  1 34  1  0
  3  4  1  0
  3 35  1  6
  3 36  1  0
  4  5  1  0
  4 28  1  0
  4 37  1  6
  5  6  1  0
  5 38  1  0
  6  7  2  0
  6 11  1  0
  7  8  1  0
  8  9  2  0
  8 16  1  0
  9 10  1  0
  9 66  1  0
 10 11  1  0
 10 15  2  0
 11 12  2  0
 12 13  1  0
 12 39  1  0
 13 14  2  0
 13 40  1  0
 14 15  1  0
 14 41  1  0
 15 42  1  0
 16 17  1  0
 16 43  1  0
 17 18  1  0
 17 44  1  6
 17 45  1  0
 18 19  1  0
 18 23  2  0
 19 20  2  0
 19 46  1  0
 20 21  1  0
 20 47  1  0
 21 22  2  0
 21 24  1  0
 22 23  1  0
 22 48  1  0
 23 49  1  0
 24 25  1  0
 24 50  1  1
 24 51  1  0
 25 26  1  0
 25 27  1  0
 26 52  1  6
 26 53  1  0
 26 54  1  0
 27 55  1  6
 27 56  1  0
 27 57  1  0
 28 29  2  0
 28 33  1  0
 29 30  1  0
 29 58  1  0
 30 31  2  0
 30 59  1  0
 31 32  1  0
 31 60  1  0
 32 33  2  0
 32 61  1  0
 33 62  1  0
 34 63  1  1
 34 64  1  0
 34 65  1  0
M  CHG  1   9   1
M  END
>  <s_epik_cmdline>  (379) 
J2VwaWtfcHl0aG9uJywgJy1waCcsICc3LjAwMDAwMCcsICctcGh0JywgJzIuMDAwMDAwJywgJy1tcycsICcxNicsICctdG4nLCAnOCcsICctbWEnLCAnMjAwJywgJy1pbWFlJywgJzxpbmZpbGUubWFlPicsICctb21hZScsICc8b3V0ZmlsZS5tYWU+Jw==

>  <s_epik_input>  (379) 
W2NIXTFbY0hdW2NIXVtjSF1bY0hdYzFbQ0BIXShbQ0gyXVtTQF0oPU8pW0NIM10pW05IXWMoYyhjMjMpW2NIXVtjSF1bY0hdW2NIXTMpbmMobjIpW05IXVtDSDJdYzRbY0hdW2NIXWMoW2NIXVtjSF00KVtDSDJdTihbQ0gzXSlbQ0gzXQ==

>  <s_i_glide_gridfile>  (379) 
ATP-Grid

>  <s_lp_Force_Field>  (379) 
OPLS_2005

>  <s_lp_Variant>  (379) 
m_282030aaa____21890430____22360182____21945542-5

>  <s_lp_label>  (379) 
1114_sdstereoexpander_1_neutralizer_1_epik_2_stereoizer_1

>  <s_m_source_file>  (379) 
ATP-VSW-LIGPREP-003-in.maegz

>  <s_sd_BIOSOLVEIT.INFINISEE\_QUERY\_NAME>  (379) 
Ref-Lig

>  <s_sd_BIOSOLVEIT.INFINISEE\_QUERY\_SMILES>  (379) 
S(c1nc2c(cc1C[NH2+]Cc3ccc(cc3)C[NH+](C)C)cccc2)Cc4ccccc4

>  <s_sd_BIOSOLVEIT.INFINISEE\_REACTION\_NAME>  (379) 
m_282030aaa

>  <s_sd_BIOSOLVEIT.INFINISEE\_REAGENT1\_SMILES>  (379) 
[R1*]NC(c1ccccc1)CS(=O)C

>  <s_sd_BIOSOLVEIT.INFINISEE\_REAGENT2\_SMILES>  (379) 
[R2*]c1nc([R1*])c2c(n1)cccc2

>  <s_sd_BIOSOLVEIT.INFINISEE\_REAGENT3\_SMILES>  (379) 
[R2*]NCc1ccc(cc1)CN(C)C

>  <s_sd_BIOSOLVEIT.INFINISEE\_SPACE>  (379) 
REALSpace_44bn_2023-08

>  <s_vsw_compound_code>  (379) 
35619

>  <s_vsw_variant>  (379) 
35619-5

>  <r_epik_Charging_Adjusted_Penalty>  (379) 
1.7137664266470101

>  <r_epik_Ionization_Penalty>  (379) 
1.6609

>  <r_epik_Ionization_Penalty_Charging>  (379) 
0.032399999999999998

>  <r_epik_Ionization_Penalty_Neutral>  (379) 
1.6285000000000001

>  <r_epik_State_Penalty>  (379) 
1.6814

>  <r_i_docking_score>  (379) 
-2.8623411664275902

>  <r_i_glide_ecoul>  (379) 
-1.2398999929428101

>  <r_i_glide_eff_state_penalty>  (379) 
1.6814

>  <r_i_glide_einternal>  (379) 
3.80161333084106

>  <r_i_glide_emodel>  (379) 
-55.245984639722501

>  <r_i_glide_energy>  (379) 
-39.674416899681098

>  <r_i_glide_erotb>  (379) 
0.71860914805283105

>  <r_i_glide_esite>  (379) 
-0.258961752120416

>  <r_i_glide_evdw>  (379) 
-38.434516906738303

>  <r_i_glide_gscore>  (379) 
-4.5437411664275897

>  <r_i_glide_hbond>  (379) 
-0.322565593475512

>  <r_i_glide_ligand_efficiency>  (379) 
-0.084186504894929196

>  <r_i_glide_ligand_efficiency_ln>  (379) 
-0.63237144961410696

>  <r_i_glide_ligand_efficiency_sa>  (379) 
-0.27273159444533401

>  <r_i_glide_lipo>  (379) 
-2.4002158518788899

>  <r_i_glide_metal>  (379) 
-0

>  <r_i_glide_rewards>  (379) 
-0.17289627272727201

>  <r_lp_Energy>  (379) 
16.023304

>  <r_qp_ACxDN^.5/SA>  (379) 
0.010970499999999999

>  <r_qp_CIQPlogS>  (379) 
-5.9000000000000004

>  <r_qp_EA(eV)>  (379) 
0.371

>  <r_qp_FISA>  (379) 
62.649999999999999

>  <r_qp_FOSA>  (379) 
286.24400000000003

>  <r_qp_IP(eV)>  (379) 
7.8579999999999997

>  <r_qp_Jm>  (379) 
4.2668559462511197

>  <r_qp_PISA>  (379) 
353.21899999999999

>  <r_qp_PSA>  (379) 
60.250999999999998

>  <r_qp_PercentHumanOralAbsorption>  (379) 
78.436000000000007

>  <r_qp_QPPCaco>  (379) 
25.042999999999999

>  <r_qp_QPPMDCK>  (379) 
466.84699999999998

>  <r_qp_QPlogBB>  (379) 
-0.16

>  <r_qp_QPlogHERG>  (379) 
-6.4569999999999999

>  <r_qp_QPlogKhsa>  (379) 
0.51700000000000002

>  <r_qp_QPlogKp>  (379) 
-2.532

>  <r_qp_QPlogPC16>  (379) 
14.817

>  <r_qp_QPlogPo/w>  (379) 
4.5179999999999998

>  <r_qp_QPlogPoct>  (379) 
22.376999999999999

>  <r_qp_QPlogPw>  (379) 
13.951000000000001

>  <r_qp_QPlogS>  (379) 
-2.5129999999999999

>  <r_qp_QPpolrz>  (379) 
48.314

>  <r_qp_SASA>  (379) 
729.22799999999995

>  <r_qp_SAamideO>  (379) 
0

>  <r_qp_SAfluorine>  (379) 
0

>  <r_qp_WPSA>  (379) 
27.114999999999998

>  <r_qp_accptHB>  (379) 
8

>  <r_qp_dip^2/V>  (379) 
0.039119899999999999

>  <r_qp_dipole>  (379) 
7.4980000000000002

>  <r_qp_donorHB>  (379) 
1

>  <r_qp_glob>  (379) 
0.844584

>  <r_qp_mol_MW>  (379) 
473.63499999999999

>  <r_qp_volume>  (379) 
1437.183

>  <r_sd_BIOSOLVEIT.INFINISEE\_FTREES\_SIMILARITY>  (379) 
0.91300000000000003

>  <r_sd_BIOSOLVEIT.LOGP>  (379) 
4.0686999999999998

>  <r_sd_BIOSOLVEIT.MOLECULAR\_WEIGHT>  (379) 
474.649

>  <r_sd_BIOSOLVEIT.TPSA>  (379) 
71.349999999999994

>  <i_epik_Tot_Q>  (379) 
1

>  <i_epik_Tot_abs_Q>  (379) 
1

>  <i_f3d_flags>  (379) 
0

>  <i_i_glide_confnum>  (379) 
6

>  <i_i_glide_lignum>  (379) 
430

>  <i_i_glide_posenum>  (379) 
13

>  <i_i_glide_rotatable_bonds>  (379) 
10

>  <i_lp_mmshare_version>  (379) 
65135

>  <i_m_ct_format>  (379) 
2

>  <i_m_source_file_index>  (379) 
1114

>  <i_qp_#NandO>  (379) 
6

>  <i_qp_#acid>  (379) 
0

>  <i_qp_#amide>  (379) 
0

>  <i_qp_#amidine>  (379) 
0

>  <i_qp_#amine>  (379) 
1

>  <i_qp_#in34>  (379) 
0

>  <i_qp_#in56>  (379) 
22

>  <i_qp_#metab>  (379) 
7

>  <i_qp_#nonHatm>  (379) 
34

>  <i_qp_#noncon>  (379) 
0

>  <i_qp_#ringatoms>  (379) 
22

>  <i_qp_#rotor>  (379) 
10

>  <i_qp_#rtvFG>  (379) 
0

>  <i_qp_#stars>  (379) 
1

>  <i_qp_CNS>  (379) 
1

>  <i_qp_HumanOralAbsorption>  (379) 
2

>  <i_qp_RuleOfFive>  (379) 
0

>  <i_qp_RuleOfThree>  (379) 
1

>  <i_sd_BIOSOLVEIT.INFINISEE\_REAGENT1\_NAME>  (379) 
21890430

>  <i_sd_BIOSOLVEIT.INFINISEE\_REAGENT2\_NAME>  (379) 
22360182

>  <i_sd_BIOSOLVEIT.INFINISEE\_REAGENT3\_NAME>  (379) 
21945542

>  <i_sd_BIOSOLVEIT.INFINISEE\_RESULT\_RANK>  (379) 
34340

>  <i_sd_version>  (379) 
0

>  <b_lp_Chiralities_Consistent>  (379) 
1

>  <b_sd_chiral_flag>  (379) 
0

>  <canonical_id>  (379) 
ATP-HTVS-3DABA9A3BF24

>  <compound_code>  (379) 
35619

>  <title>  (379) 
m_282030aaa____21890430____22360182____21945542

>  <variant>  (379) 
35619-5

>  <source_file>  (379) 
运行/运行/ATP-VSW/ATP-VSW-DOCK_HTVS_1-003_lib/ATP-VSW-DOCK_HTVS_1-003_lib.mae

>  <canonical_smiles>  (379) 
CN(C)Cc1ccc(CNc2nc(N[C@@H](C[S@@](C)=O)c3ccccc3)c3ccccc3[nH+]2)cc1

>  <scaffold>  (379) 
c1ccc(CNc2nc(NCc3ccccc3)c3ccccc3[nH+]2)cc1

>  <molecular_formula>  (379) 
C27H32N5OS+

$$$$
ATP-HTVS-3DB1B8B928B3
     RDKit          3D

 61 63  0  0  0  0  0  0  0  0999 V2000
  196.3813  189.2444  160.5618 F   0  0  0  0  0  0  0  0  0  0  0  0
  196.3515  188.0203  159.9887 C   0  0  0  0  0  0  0  0  0  0  0  0
  195.9584  186.9033  160.7462 C   0  0  0  0  0  0  0  0  0  0  0  0
  195.9408  185.6266  160.1562 C   0  0  0  0  0  0  0  0  0  0  0  0
  196.2989  185.4618  158.8013 C   0  0  0  0  0  0  0  0  0  0  0  0
  196.6689  186.5900  158.0379 C   0  0  0  0  0  0  0  0  0  0  0  0
  196.7056  187.8649  158.6349 C   0  0  0  0  0  0  0  0  0  0  0  0
  196.2733  184.0886  158.1583 C   0  0  1  0  0  0  0  0  0  0  0  0
  197.5307  183.3814  158.4230 N   0  0  0  0  0  0  0  0  0  0  0  0
  198.5433  183.5211  157.3705 C   0  0  1  0  0  0  0  0  0  0  0  0
  198.3623  182.6135  156.1559 C   0  0  0  0  0  0  0  0  0  0  0  0
  198.7647  181.2553  156.1949 C   0  0  0  0  0  0  0  0  0  0  0  0
  198.4072  180.3516  155.1599 C   0  0  0  0  0  0  0  0  0  0  0  0
  198.7238  179.0101  155.1764 O   0  0  0  0  0  0  0  0  0  0  0  0
  199.6642  178.5561  156.1288 C   0  0  2  0  0  0  0  0  0  0  0  0
  197.6144  180.8366  154.0861 C   0  0  0  0  0  0  0  0  0  0  0  0
  197.2678  179.9890  153.0438 O   0  0  0  0  0  0  0  0  0  0  0  0
  198.3930  179.6076  152.2628 C   0  0  1  0  0  0  0  0  0  0  0  0
  197.9786  179.0147  150.9339 C   0  0  0  0  0  0  0  0  0  0  0  0
  198.6085  177.8516  150.4416 C   0  0  0  0  0  0  0  0  0  0  0  0
  198.2163  177.3072  149.2033 C   0  0  0  0  0  0  0  0  0  0  0  0
  197.2006  177.9284  148.4513 C   0  0  0  0  0  0  0  0  0  0  0  0
  196.5785  179.0939  148.9381 C   0  0  0  0  0  0  0  0  0  0  0  0
  196.9676  179.6389  150.1765 C   0  0  0  0  0  0  0  0  0  0  0  0
  197.2040  182.1649  154.0241 C   0  0  0  0  0  0  0  0  0  0  0  0
  196.3381  182.5703  153.0308 O   0  0  0  0  0  0  0  0  0  0  0  0
  197.5863  183.0637  155.0534 C   0  0  0  0  0  0  0  0  0  0  0  0
  195.0302  183.2476  158.6295 C   0  0  1  0  0  0  0  0  0  0  0  0
  194.6885  182.0730  157.7852 N   0  0  1  0  0  0  0  0  0  0  0  0
  195.8436  181.4420  157.2440 C   0  0  2  0  0  0  0  0  0  0  0  0
  193.8195  181.0741  158.4333 C   0  0  2  0  0  0  0  0  0  0  0  0
  197.2999  182.4075  158.5774 H   0  0  0  0  0  0  0  0  0  0  0  0
  195.6980  187.0198  161.7873 H   0  0  0  0  0  0  0  0  0  0  0  0
  195.6593  184.7769  160.7598 H   0  0  0  0  0  0  0  0  0  0  0  0
  196.9344  186.4820  156.9956 H   0  0  0  0  0  0  0  0  0  0  0  0
  196.9925  188.7275  158.0526 H   0  0  0  0  0  0  0  0  0  0  0  0
  196.1804  184.2507  157.0894 H   0  0  0  0  0  0  0  0  0  0  0  0
  198.5601  184.5634  157.0521 H   0  0  0  0  0  0  0  0  0  0  0  0
  199.5047  183.2733  157.8182 H   0  0  0  0  0  0  0  0  0  0  0  0
  199.2295  180.8947  157.0856 H   0  0  0  0  0  0  0  0  0  0  0  0
  199.8924  177.5057  155.9435 H   0  0  0  0  0  0  0  0  0  0  0  0
  199.2539  178.6350  157.1341 H   0  0  0  0  0  0  0  0  0  0  0  0
  200.6021  179.1149  156.0761 H   0  0  0  0  0  0  0  0  0  0  0  0
  199.0392  180.4696  152.0728 H   0  0  0  0  0  0  0  0  0  0  0  0
  199.0036  178.8731  152.7887 H   0  0  0  0  0  0  0  0  0  0  0  0
  199.3897  177.3704  151.0125 H   0  0  0  0  0  0  0  0  0  0  0  0
  198.6893  176.4100  148.8322 H   0  0  0  0  0  0  0  0  0  0  0  0
  196.8904  177.5037  147.5074 H   0  0  0  0  0  0  0  0  0  0  0  0
  195.7901  179.5621  148.3696 H   0  0  0  0  0  0  0  0  0  0  0  0
  196.4888  180.5327  150.5517 H   0  0  0  0  0  0  0  0  0  0  0  0
  195.6222  183.1553  153.3232 H   0  0  0  0  0  0  0  0  0  0  0  0
  197.1402  184.0383  155.0692 H   0  0  0  0  0  0  0  0  0  0  0  0
  195.1711  182.9150  159.6626 H   0  0  0  0  0  0  0  0  0  0  0  0
  194.1434  183.8933  158.6116 H   0  0  0  0  0  0  0  0  0  0  0  0
  196.5566  181.0481  157.9796 H   0  0  0  0  0  0  0  0  0  0  0  0
  196.1137  182.1964  156.6037 H   0  0  0  0  0  0  0  0  0  0  0  0
  195.6274  180.6922  156.5039 H   0  0  0  0  0  0  0  0  0  0  0  0
  194.3599  180.6534  159.2858 H   0  0  0  0  0  0  0  0  0  0  0  0
  193.6054  180.2719  157.7248 H   0  0  0  0  0  0  0  0  0  0  0  0
  192.8821  181.5455  158.7388 H   0  0  0  0  0  0  0  0  0  0  0  0
  194.2066  182.4252  156.9492 H   0  0  0  0  0  0  0  0  0  0  0  0
  1  2  1  0
  2  3  1  0
  2  7  2  0
  3  4  2  0
  3 33  1  0
  4  5  1  0
  4 34  1  0
  5  6  2  0
  5  8  1  0
  6  7  1  0
  6 35  1  0
  7 36  1  0
  8  9  1  0
  8 28  1  0
  8 37  1  6
  9 10  1  0
  9 32  1  0
 10 11  1  0
 10 38  1  6
 10 39  1  0
 11 12  2  0
 11 27  1  0
 12 13  1  0
 12 40  1  0
 13 14  1  0
 13 16  2  0
 14 15  1  0
 15 41  1  6
 15 42  1  0
 15 43  1  0
 16 17  1  0
 16 25  1  0
 17 18  1  0
 18 19  1  0
 18 44  1  6
 18 45  1  0
 19 20  2  0
 19 24  1  0
 20 21  1  0
 20 46  1  0
 21 22  2  0
 21 47  1  0
 22 23  1  0
 22 48  1  0
 23 24  2  0
 23 49  1  0
 24 50  1  0
 25 26  1  0
 25 27  2  0
 26 51  1  0
 27 52  1  0
 28 29  1  0
 28 53  1  1
 28 54  1  0
 29 30  1  0
 29 31  1  0
 29 61  1  6
 30 55  1  1
 30 56  1  0
 30 57  1  0
 31 58  1  1
 31 59  1  0
 31 60  1  0
M  CHG  1  29   1
M  END
>  <s_epik_cmdline>  (380) 
J2VwaWtfcHl0aG9uJywgJy1waCcsICc3LjAwMDAwMCcsICctcGh0JywgJzIuMDAwMDAwJywgJy1tcycsICcxNicsICctdG4nLCAnOCcsICctbWEnLCAnMjAwJywgJy1pbWFlJywgJzxpbmZpbGUubWFlPicsICctb21hZScsICc8b3V0ZmlsZS5tYWU+Jw==

>  <s_epik_input>  (380) 
RmMxW2NIXVtjSF1jKFtjSF1bY0hdMSlbQ0BIXShbQ0gyXU4oW0NIM10pW0NIM10pW05IXVtDSDJdYzJbY0hdYyhPW0NIM10pYyhjKFtPSF0pW2NIXTIpT1tDSDJdYzNbY0hdW2NIXVtjSF1bY0hdW2NIXTM=

>  <s_i_glide_gridfile>  (380) 
ATP-Grid

>  <s_lp_Force_Field>  (380) 
OPLS_2005

>  <s_lp_Variant>  (380) 
m_270004beb____10209904____24720040-1

>  <s_lp_label>  (380) 
2127_sdstereoexpander_1_neutralizer_1_epik_1_stereoizer_1

>  <s_m_source_file>  (380) 
ATP-VSW-LIGPREP-002-in.maegz

>  <s_sd_BIOSOLVEIT.INFINISEE\_QUERY\_NAME>  (380) 
Ref-Lig

>  <s_sd_BIOSOLVEIT.INFINISEE\_QUERY\_SMILES>  (380) 
S(c1nc2c(cc1C[NH2+]Cc3ccc(cc3)C[NH+](C)C)cccc2)Cc4ccccc4

>  <s_sd_BIOSOLVEIT.INFINISEE\_REACTION\_NAME>  (380) 
m_270004beb

>  <s_sd_BIOSOLVEIT.INFINISEE\_REAGENT1\_SMILES>  (380) 
[R1*]NC(c1ccc(F)cc1)CN(C)C

>  <s_sd_BIOSOLVEIT.INFINISEE\_REAGENT2\_SMILES>  (380) 
[R1*]Cc1cc(OC)c(OCc2ccccc2)c(O)c1

>  <s_sd_BIOSOLVEIT.INFINISEE\_SPACE>  (380) 
REALSpace_44bn_2023-08

>  <s_vsw_compound_code>  (380) 
68034

>  <s_vsw_variant>  (380) 
68034-1

>  <r_epik_Charging_Adjusted_Penalty>  (380) 
0.29047849631547301

>  <r_epik_Ionization_Penalty>  (380) 
0.0356

>  <r_epik_Ionization_Penalty_Charging>  (380) 
0.023800000000000002

>  <r_epik_Ionization_Penalty_Neutral>  (380) 
0.0118

>  <r_epik_State_Penalty>  (380) 
0.26669999999999999

>  <r_i_docking_score>  (380) 
-5.0171286131589197

>  <r_i_glide_ecoul>  (380) 
-12.184094429016101

>  <r_i_glide_eff_state_penalty>  (380) 
0.26669999999999999

>  <r_i_glide_einternal>  (380) 
7.5340909957885698

>  <r_i_glide_emodel>  (380) 
-62.192055697184102

>  <r_i_glide_energy>  (380) 
-43.602435111999498

>  <r_i_glide_erotb>  (380) 
0.76694255321099902

>  <r_i_glide_esite>  (380) 
-0.10000000000000001

>  <r_i_glide_evdw>  (380) 
-31.418340682983398

>  <r_i_glide_gscore>  (380) 
-5.2838286131589198

>  <r_i_glide_hbond>  (380) 
-0.198134911772645

>  <r_i_glide_ligand_efficiency>  (380) 
-0.16184285848899699

>  <r_i_glide_ligand_efficiency_ln>  (380) 
-1.1315162587938701

>  <r_i_glide_ligand_efficiency_sa>  (380) 
-0.50841002380309697

>  <r_i_glide_lipo>  (380) 
-1.78581244559657

>  <r_i_glide_metal>  (380) 
-0

>  <r_i_glide_rewards>  (380) 
-0.56829261049911795

>  <r_lp_Energy>  (380) 
39.043686999999998

>  <r_lp_tautomer_probability>  (380) 
0.99999999996300004

>  <r_qp_ACxDN^.5/SA>  (380) 
0.010198799999999999

>  <r_qp_CIQPlogS>  (380) 
-4.4619999999999997

>  <r_qp_EA(eV)>  (380) 
0.13500000000000001

>  <r_qp_FISA>  (380) 
50.058

>  <r_qp_FOSA>  (380) 
301.69299999999998

>  <r_qp_IP(eV)>  (380) 
9.1069999999999993

>  <r_qp_Jm>  (380) 
0.00103176146400925

>  <r_qp_PISA>  (380) 
398.548

>  <r_qp_PSA>  (380) 
52.796999999999997

>  <r_qp_PercentHumanOralAbsorption>  (380) 
96.975999999999999

>  <r_qp_QPPCaco>  (380) 
206.53999999999999

>  <r_qp_QPPMDCK>  (380) 
199.19800000000001

>  <r_qp_QPlogBB>  (380) 
0.247

>  <r_qp_QPlogHERG>  (380) 
-8.6430000000000007

>  <r_qp_QPlogKhsa>  (380) 
0.81999999999999995

>  <r_qp_QPlogKp>  (380) 
-4.1070000000000002

>  <r_qp_QPlogPC16>  (380) 
14.967000000000001

>  <r_qp_QPlogPo/w>  (380) 
4.8840000000000003

>  <r_qp_QPlogPoct>  (380) 
21.695

>  <r_qp_QPlogPw>  (380) 
10.872

>  <r_qp_QPlogS>  (380) 
-4.5069999999999997

>  <r_qp_QPpolrz>  (380) 
47.582000000000001

>  <r_qp_SASA>  (380) 
797.31899999999996

>  <r_qp_SAamideO>  (380) 
0

>  <r_qp_SAfluorine>  (380) 
47.020000000000003

>  <r_qp_WPSA>  (380) 
47.020000000000003

>  <r_qp_accptHB>  (380) 
5.75

>  <r_qp_dip^2/V>  (380) 
0.0118063

>  <r_qp_dipole>  (380) 
4.0999999999999996

>  <r_qp_donorHB>  (380) 
2

>  <r_qp_glob>  (380) 
0.76776529999999998

>  <r_qp_mol_MW>  (380) 
424.51400000000001

>  <r_qp_volume>  (380) 
1424.1089999999999

>  <r_sd_BIOSOLVEIT.INFINISEE\_FTREES\_SIMILARITY>  (380) 
0.90100000000000002

>  <r_sd_BIOSOLVEIT.LOGP>  (380) 
2.0680999999999998

>  <r_sd_BIOSOLVEIT.MOLECULAR\_WEIGHT>  (380) 
426.529

>  <r_sd_BIOSOLVEIT.TPSA>  (380) 
59.740000000000002

>  <i_epik_Tot_Q>  (380) 
1

>  <i_epik_Tot_abs_Q>  (380) 
1

>  <i_f3d_flags>  (380) 
0

>  <i_i_glide_confnum>  (380) 
1

>  <i_i_glide_lignum>  (380) 
774

>  <i_i_glide_posenum>  (380) 
14

>  <i_i_glide_rotatable_bonds>  (380) 
11

>  <i_lp_mmshare_version>  (380) 
65135

>  <i_m_ct_format>  (380) 
2

>  <i_m_source_file_index>  (380) 
2127

>  <i_qp_#NandO>  (380) 
5

>  <i_qp_#acid>  (380) 
0

>  <i_qp_#amide>  (380) 
0

>  <i_qp_#amidine>  (380) 
0

>  <i_qp_#amine>  (380) 
2

>  <i_qp_#in34>  (380) 
0

>  <i_qp_#in56>  (380) 
18

>  <i_qp_#metab>  (380) 
8

>  <i_qp_#nonHatm>  (380) 
31

>  <i_qp_#noncon>  (380) 
0

>  <i_qp_#ringatoms>  (380) 
18

>  <i_qp_#rotor>  (380) 
11

>  <i_qp_#rtvFG>  (380) 
0

>  <i_qp_#stars>  (380) 
0

>  <i_qp_CNS>  (380) 
1

>  <i_qp_HumanOralAbsorption>  (380) 
3

>  <i_qp_RuleOfFive>  (380) 
0

>  <i_qp_RuleOfThree>  (380) 
1

>  <i_sd_BIOSOLVEIT.INFINISEE\_REAGENT1\_NAME>  (380) 
10209904

>  <i_sd_BIOSOLVEIT.INFINISEE\_REAGENT2\_NAME>  (380) 
24720040

>  <i_sd_BIOSOLVEIT.INFINISEE\_RESULT\_RANK>  (380) 
98906

>  <i_sd_version>  (380) 
0

>  <b_lp_Chiralities_Consistent>  (380) 
1

>  <b_sd_chiral_flag>  (380) 
0

>  <canonical_id>  (380) 
ATP-HTVS-3DB1B8B928B3

>  <compound_code>  (380) 
68034

>  <title>  (380) 
m_270004beb____10209904____24720040

>  <variant>  (380) 
68034-1

>  <source_file>  (380) 
运行/运行/ATP-VSW/ATP-VSW-DOCK_HTVS_1-002_lib.maegz

>  <canonical_smiles>  (380) 
COc1cc(CN[C@@H](C[NH+](C)C)c2ccc(F)cc2)cc(O)c1OCc1ccccc1

>  <scaffold>  (380) 
c1ccc(CNCc2ccc(OCc3ccccc3)cc2)cc1

>  <molecular_formula>  (380) 
C25H30FN2O3+

$$$$
ATP-HTVS-3DDAC51E87DA
     RDKit          3D

 62 65  0  0  0  0  0  0  0  0999 V2000
  197.7754  182.7859  156.6562 S   0  0  0  0  0  0  0  0  0  0  0  0
  199.3373  183.0832  157.3814 C   0  0  0  0  0  0  0  0  0  0  0  0
  200.2138  181.9642  157.1789 C   0  0  0  0  0  0  0  0  0  0  0  0
  201.5067  182.0785  157.7428 C   0  0  0  0  0  0  0  0  0  0  0  0
  201.9265  183.2340  158.4498 C   0  0  0  0  0  0  0  0  0  0  0  0
  201.0439  184.3138  158.6162 C   0  0  0  0  0  0  0  0  0  0  0  0
  199.7505  184.2411  158.0842 C   0  0  0  0  0  0  0  0  0  0  0  0
  199.5614  180.8949  156.4238 C   0  0  0  0  0  0  0  0  0  0  0  0
  200.2777  179.6973  156.1648 N   0  0  0  0  0  0  0  0  0  0  0  0
  199.6002  178.4049  156.2599 C   0  0  1  0  0  0  0  0  0  0  0  0
  200.4708  177.2404  155.9158 C   0  0  0  0  0  0  0  0  0  0  0  0
  201.2083  176.5915  156.9165 C   0  0  0  0  0  0  0  0  0  0  0  0
  201.9727  175.4612  156.5657 C   0  0  0  0  0  0  0  0  0  0  0  0
  202.0098  174.9854  155.2369 C   0  0  0  0  0  0  0  0  0  0  0  0
  202.8008  173.8723  154.9556 N   0  0  0  0  0  0  0  0  0  0  0  0
  202.7462  173.1888  153.6710 C   0  0  1  0  0  0  0  0  0  0  0  0
  201.3789  172.5388  153.3963 C   0  0  1  0  0  0  0  0  0  0  0  0
  201.5281  171.4327  152.5268 O   0  0  0  0  0  0  0  0  0  0  0  0
  201.2616  175.6503  154.2394 C   0  0  0  0  0  0  0  0  0  0  0  0
  200.4946  176.7638  154.5902 C   0  0  0  0  0  0  0  0  0  0  0  0
  198.2624  181.2200  156.0822 C   0  0  0  0  0  0  0  0  0  0  0  0
  197.2343  180.4095  155.2871 C   0  0  1  0  0  0  0  0  0  0  0  0
  197.2472  180.7668  153.8415 N   0  0  0  0  0  0  0  0  0  0  0  0
  197.9808  180.0446  152.9416 C   0  0  0  0  0  0  0  0  0  0  0  0
  198.6734  179.1228  153.3081 O   0  0  0  0  0  0  0  0  0  0  0  0
  197.9563  180.4000  151.4230 C   0  0  1  0  0  0  0  0  0  0  0  0
  197.9635  179.2039  150.4445 C   0  0  0  0  0  0  0  0  0  0  0  0
  198.7801  178.0661  150.6225 C   0  0  0  0  0  0  0  0  0  0  0  0
  198.7467  177.0004  149.7033 C   0  0  0  0  0  0  0  0  0  0  0  0
  197.9371  177.0837  148.5542 C   0  0  0  0  0  0  0  0  0  0  0  0
  197.1475  178.2290  148.3388 C   0  0  0  0  0  0  0  0  0  0  0  0
  197.1481  179.2827  149.2801 C   0  0  0  0  0  0  0  0  0  0  0  0
  196.5116  181.9654  153.4754 C   0  0  2  0  0  0  0  0  0  0  0  0
  202.2106  181.2651  157.6331 H   0  0  0  0  0  0  0  0  0  0  0  0
  202.9198  183.2902  158.8627 H   0  0  0  0  0  0  0  0  0  0  0  0
  201.3562  185.1982  159.1529 H   0  0  0  0  0  0  0  0  0  0  0  0
  199.0580  185.0614  158.2038 H   0  0  0  0  0  0  0  0  0  0  0  0
  201.2381  179.6840  156.4717 H   0  0  0  0  0  0  0  0  0  0  0  0
  199.1833  178.3129  157.2746 H   0  0  0  0  0  0  0  0  0  0  0  0
  198.8119  178.2478  155.5601 H   0  0  0  0  0  0  0  0  0  0  0  0
  201.1669  176.9612  157.9271 H   0  0  0  0  0  0  0  0  0  0  0  0
  202.5535  174.9826  157.3392 H   0  0  0  0  0  0  0  0  0  0  0  0
  203.3394  173.4685  155.7042 H   0  0  0  0  0  0  0  0  0  0  0  0
  203.0308  173.8750  152.8734 H   0  0  0  0  0  0  0  0  0  0  0  0
  203.5222  172.4295  153.7180 H   0  0  0  0  0  0  0  0  0  0  0  0
  200.9191  172.1904  154.3171 H   0  0  0  0  0  0  0  0  0  0  0  0
  200.6844  173.2343  152.9295 H   0  0  0  0  0  0  0  0  0  0  0  0
  202.1404  170.8348  152.9983 H   0  0  0  0  0  0  0  0  0  0  0  0
  201.2551  175.3451  153.2029 H   0  0  0  0  0  0  0  0  0  0  0  0
  199.9094  177.2151  153.8114 H   0  0  0  0  0  0  0  0  0  0  0  0
  197.3134  179.3560  155.4213 H   0  0  0  0  0  0  0  0  0  0  0  0
  196.2407  180.6396  155.6890 H   0  0  0  0  0  0  0  0  0  0  0  0
  197.0714  180.9645  151.1484 H   0  0  0  0  0  0  0  0  0  0  0  0
  198.8073  181.0450  151.1972 H   0  0  0  0  0  0  0  0  0  0  0  0
  199.4632  177.9714  151.4585 H   0  0  0  0  0  0  0  0  0  0  0  0
  199.3607  176.1345  149.8921 H   0  0  0  0  0  0  0  0  0  0  0  0
  197.9370  176.2635  147.8487 H   0  0  0  0  0  0  0  0  0  0  0  0
  196.5418  178.2969  147.4431 H   0  0  0  0  0  0  0  0  0  0  0  0
  196.5432  180.1583  149.0865 H   0  0  0  0  0  0  0  0  0  0  0  0
  195.7981  181.7537  152.6720 H   0  0  0  0  0  0  0  0  0  0  0  0
  197.2208  182.7542  153.1850 H   0  0  0  0  0  0  0  0  0  0  0  0
  195.9421  182.3086  154.3475 H   0  0  0  0  0  0  0  0  0  0  0  0
  1  2  1  0
  1 21  1  0
  2  3  1  0
  2  7  2  0
  3  4  2  0
  3  8  1  0
  4  5  1  0
  4 34  1  0
  5  6  2  0
  5 35  1  0
  6  7  1  0
  6 36  1  0
  7 37  1  0
  8  9  1  0
  8 21  2  0
  9 10  1  0
  9 38  1  0
 10 11  1  0
 10 39  1  1
 10 40  1  0
 11 12  1  0
 11 20  2  0
 12 13  2  0
 12 41  1  0
 13 14  1  0
 13 42  1  0
 14 15  1  0
 14 19  2  0
 15 16  1  0
 15 43  1  0
 16 17  1  0
 16 44  1  6
 16 45  1  0
 17 18  1  0
 17 46  1  1
 17 47  1  0
 18 48  1  0
 19 20  1  0
 19 49  1  0
 20 50  1  0
 21 22  1  0
 22 23  1  0
 22 51  1  6
 22 52  1  0
 23 24  1  0
 23 33  1  0
 24 25  2  0
 24 26  1  0
 26 27  1  0
 26 53  1  1
 26 54  1  0
 27 28  2  0
 27 32  1  0
 28 29  1  0
 28 55  1  0
 29 30  2  0
 29 56  1  0
 30 31  1  0
 30 57  1  0
 31 32  2  0
 31 58  1  0
 32 59  1  0
 33 60  1  6
 33 61  1  0
 33 62  1  0
M  END
>  <s_epik_cmdline>  (381) 
J2VwaWtfcHl0aG9uJywgJy1waCcsICc3LjAwMDAwMCcsICctcGh0JywgJzIuMDAwMDAwJywgJy1tcycsICcxNicsICctdG4nLCAnOCcsICctbWEnLCAnMjAwJywgJy1pbWFlJywgJzxpbmZpbGUubWFlPicsICctb21hZScsICc8b3V0ZmlsZS5tYWU+Jw==

>  <s_epik_input>  (381) 
W2NIXTFbY0hdW2NIXVtjSF1bY0hdYzFbQ0gyXUMoPU8pTihbQ0gzXSlbQ0gyXWMoczIpYyhjKGMyMylbY0hdW2NIXVtjSF1bY0hdMylbTkhdW0NIMl1jNFtjSF1bY0hdYyhbY0hdW2NIXTQpW05IXVtDSDJdW0NIMl1bT0hd

>  <s_i_glide_gridfile>  (381) 
ATP-Grid

>  <s_lp_Force_Field>  (381) 
OPLS_2005

>  <s_lp_Variant>  (381) 
rxn502c____EMOL530620____EMOL49259969____EMOL324170366-1

>  <s_lp_label>  (381) 
2267_sdstereoexpander_1_neutralizer_1_epik_1_stereoizer_1

>  <s_m_source_file>  (381) 
ATP-VSW-LIGPREP-002-in.maegz

>  <s_sd_BIOSOLVEIT.INFINISEE\_QUERY\_NAME>  (381) 
Ref-Lig

>  <s_sd_BIOSOLVEIT.INFINISEE\_QUERY\_SMILES>  (381) 
S(c1nc2c(cc1C[NH2+]Cc3ccc(cc3)C[NH+](C)C)cccc2)Cc4ccccc4

>  <s_sd_BIOSOLVEIT.INFINISEE\_REACTION\_NAME>  (381) 
rxn502c

>  <s_sd_BIOSOLVEIT.INFINISEE\_REAGENT1\_NAME>  (381) 
EMOL530620

>  <s_sd_BIOSOLVEIT.INFINISEE\_REAGENT1\_SMILES>  (381) 
ClC(=O)Cc1ccccc1

>  <s_sd_BIOSOLVEIT.INFINISEE\_REAGENT2\_NAME>  (381) 
EMOL49259969

>  <s_sd_BIOSOLVEIT.INFINISEE\_REAGENT2\_SMILES>  (381) 
ClC=1c2c(SC1CNC)cccc2

>  <s_sd_BIOSOLVEIT.INFINISEE\_REAGENT3\_NAME>  (381) 
EMOL324170366

>  <s_sd_BIOSOLVEIT.INFINISEE\_REAGENT3\_SMILES>  (381) 
OCCNc1ccc(cc1)CN

>  <s_sd_BIOSOLVEIT.INFINISEE\_SPACE>  (381) 
eXplore_7tr_2022-12

>  <s_vsw_compound_code>  (381) 
72514

>  <s_vsw_variant>  (381) 
72514-1

>  <r_epik_Charging_Adjusted_Penalty>  (381) 
0.0083718636805958195

>  <r_epik_Ionization_Penalty>  (381) 
0.0083999999999999995

>  <r_epik_Ionization_Penalty_Charging>  (381) 
0

>  <r_epik_Ionization_Penalty_Neutral>  (381) 
0.0083999999999999995

>  <r_epik_State_Penalty>  (381) 
0.0083999999999999995

>  <r_i_docking_score>  (381) 
-4.0084232576535701

>  <r_i_glide_ecoul>  (381) 
-6.9186997413635298

>  <r_i_glide_eff_state_penalty>  (381) 
0.0083999999999999995

>  <r_i_glide_einternal>  (381) 
3.1392478942871098

>  <r_i_glide_emodel>  (381) 
-53.405720944261098

>  <r_i_glide_energy>  (381) 
-42.969980716705301

>  <r_i_glide_erotb>  (381) 
0.95257980746683102

>  <r_i_glide_esite>  (381) 
-0.035794289255817603

>  <r_i_glide_evdw>  (381) 
-36.051280975341797

>  <r_i_glide_gscore>  (381) 
-4.0168232576535701

>  <r_i_glide_hbond>  (381) 
-0.16

>  <r_i_glide_ligand_efficiency>  (381) 
-0.121467371444047

>  <r_i_glide_ligand_efficiency_ln>  (381) 
-0.89145257799728195

>  <r_i_glide_ligand_efficiency_sa>  (381) 
-0.38961076342704498

>  <r_i_glide_lipo>  (381) 
-1.62493757235378

>  <r_i_glide_metal>  (381) 
-0

>  <r_i_glide_rewards>  (381) 
-0.30830219353918198

>  <r_lp_Energy>  (381) 
32.431488999999999

>  <r_qp_ACxDN^.5/SA>  (381) 
0.016225900000000001

>  <r_qp_CIQPlogS>  (381) 
-5.2969999999999997

>  <r_qp_EA(eV)>  (381) 
0.70299999999999996

>  <r_qp_FISA>  (381) 
107.601

>  <r_qp_FOSA>  (381) 
210.92400000000001

>  <r_qp_IP(eV)>  (381) 
8.2170000000000005

>  <r_qp_Jm>  (381) 
0.45061843275319402

>  <r_qp_PISA>  (381) 
367.47800000000001

>  <r_qp_PSA>  (381) 
69.945999999999998

>  <r_qp_PercentHumanOralAbsorption>  (381) 
86.057000000000002

>  <r_qp_QPPCaco>  (381) 
135.328

>  <r_qp_QPPMDCK>  (381) 
165.89400000000001

>  <r_qp_QPlogBB>  (381) 
-0.63800000000000001

>  <r_qp_QPlogHERG>  (381) 
-5.1740000000000004

>  <r_qp_QPlogKhsa>  (381) 
0.22800000000000001

>  <r_qp_QPlogKp>  (381) 
-3.2149999999999999

>  <r_qp_QPlogPC16>  (381) 
15.318

>  <r_qp_QPlogPo/w>  (381) 
3.5800000000000001

>  <r_qp_QPlogPoct>  (381) 
23.984999999999999

>  <r_qp_QPlogPw>  (381) 
15.49

>  <r_qp_QPlogS>  (381) 
-2.794

>  <r_qp_QPpolrz>  (381) 
46.014000000000003

>  <r_qp_SASA>  (381) 
715.20000000000005

>  <r_qp_SAamideO>  (381) 
30.280000000000001

>  <r_qp_SAfluorine>  (381) 
0

>  <r_qp_WPSA>  (381) 
29.196999999999999

>  <r_qp_accptHB>  (381) 
6.7000000000000002

>  <r_qp_dip^2/V>  (381) 
0.039946200000000001

>  <r_qp_dipole>  (381) 
7.4580000000000002

>  <r_qp_donorHB>  (381) 
3

>  <r_qp_glob>  (381) 
0.84314509999999998

>  <r_qp_mol_MW>  (381) 
459.60500000000002

>  <r_qp_volume>  (381) 
1392.347

>  <r_sd_BIOSOLVEIT.INFINISEE\_FTREES\_SIMILARITY>  (381) 
0.92500000000000004

>  <r_sd_BIOSOLVEIT.LOGP>  (381) 
5.1186999999999996

>  <r_sd_BIOSOLVEIT.MOLECULAR\_WEIGHT>  (381) 
459.61000000000001

>  <r_sd_BIOSOLVEIT.TPSA>  (381) 
64.599999999999994

>  <i_epik_Tot_Q>  (381) 
0

>  <i_epik_Tot_abs_Q>  (381) 
0

>  <i_f3d_flags>  (381) 
0

>  <i_i_glide_confnum>  (381) 
7

>  <i_i_glide_lignum>  (381) 
902

>  <i_i_glide_posenum>  (381) 
14

>  <i_i_glide_rotatable_bonds>  (381) 
12

>  <i_lp_mmshare_version>  (381) 
65135

>  <i_m_ct_format>  (381) 
2

>  <i_m_source_file_index>  (381) 
2267

>  <i_qp_#NandO>  (381) 
5

>  <i_qp_#acid>  (381) 
0

>  <i_qp_#amide>  (381) 
1

>  <i_qp_#amidine>  (381) 
0

>  <i_qp_#amine>  (381) 
1

>  <i_qp_#in34>  (381) 
0

>  <i_qp_#in56>  (381) 
21

>  <i_qp_#metab>  (381) 
8

>  <i_qp_#nonHatm>  (381) 
33

>  <i_qp_#noncon>  (381) 
0

>  <i_qp_#ringatoms>  (381) 
21

>  <i_qp_#rotor>  (381) 
11

>  <i_qp_#rtvFG>  (381) 
0

>  <i_qp_#stars>  (381) 
0

>  <i_qp_CNS>  (381) 
0

>  <i_qp_HumanOralAbsorption>  (381) 
3

>  <i_qp_RuleOfFive>  (381) 
0

>  <i_qp_RuleOfThree>  (381) 
1

>  <i_sd_BIOSOLVEIT.INFINISEE\_RESULT\_RANK>  (381) 
8944

>  <i_sd_version>  (381) 
0

>  <b_lp_Chiralities_Consistent>  (381) 
1

>  <b_sd_chiral_flag>  (381) 
0

>  <canonical_id>  (381) 
ATP-HTVS-3DDAC51E87DA

>  <compound_code>  (381) 
72514

>  <title>  (381) 
rxn502c____EMOL530620____EMOL49259969____EMOL324170366

>  <variant>  (381) 
72514-1

>  <source_file>  (381) 
运行/运行/ATP-VSW/ATP-VSW-DOCK_HTVS_1-002_lib.maegz

>  <canonical_smiles>  (381) 
CN(Cc1sc2ccccc2c1NCc1ccc(NCCO)cc1)C(=O)Cc1ccccc1

>  <scaffold>  (381) 
O=C(Cc1ccccc1)NCc1sc2ccccc2c1NCc1ccccc1

>  <molecular_formula>  (381) 
C27H29N3O2S

$$$$
ATP-HTVS-3E3A2065ACC9
     RDKit          3D

 52 55  0  0  0  0  0  0  0  0999 V2000
  201.8896  176.4345  156.7090 F   0  0  0  0  0  0  0  0  0  0  0  0
  201.1667  177.4313  156.1364 C   0  0  0  0  0  0  0  0  0  0  0  0
  201.1831  177.6012  154.7394 C   0  0  0  0  0  0  0  0  0  0  0  0
  200.4008  178.6122  154.1450 C   0  0  0  0  0  0  0  0  0  0  0  0
  199.6176  179.4922  154.9351 C   0  0  0  0  0  0  0  0  0  0  0  0
  199.6698  179.3580  156.3452 C   0  0  0  0  0  0  0  0  0  0  0  0
  200.4123  178.3125  156.9375 C   0  0  0  0  0  0  0  0  0  0  0  0
  198.7618  180.5134  154.3009 C   0  0  0  0  0  0  0  0  0  0  0  0
  199.1424  181.0476  153.1502 N   0  0  0  0  0  0  0  0  0  0  0  0
  198.1844  181.9364  152.7983 N   0  0  0  0  0  0  0  0  0  0  0  0
  198.2939  182.6988  151.5988 C   0  0  0  0  0  0  0  0  0  0  0  0
  197.1973  183.4627  151.1306 C   0  0  0  0  0  0  0  0  0  0  0  0
  197.3032  184.2179  149.9445 C   0  0  0  0  0  0  0  0  0  0  0  0
  198.5063  184.2179  149.2148 C   0  0  0  0  0  0  0  0  0  0  0  0
  199.6046  183.4628  149.6699 C   0  0  0  0  0  0  0  0  0  0  0  0
  199.4991  182.7078  150.8535 C   0  0  0  0  0  0  0  0  0  0  0  0
  197.1821  181.9565  153.7404 C   0  0  0  0  0  0  0  0  0  0  0  0
  197.5052  181.0590  154.7220 C   0  0  0  0  0  0  0  0  0  0  0  0
  196.6927  180.7015  155.9370 C   0  0  1  0  0  0  0  0  0  0  0  0
  196.1008  181.9200  156.5469 N   0  0  1  0  0  0  0  0  0  0  0  0
  195.8970  181.8357  158.0066 C   0  0  1  0  0  0  0  0  0  0  0  0
  195.9004  183.2152  158.6338 C   0  0  0  0  0  0  0  0  0  0  0  0
  197.0993  183.9595  158.7034 C   0  0  0  0  0  0  0  0  0  0  0  0
  197.1078  185.2373  159.2928 C   0  0  0  0  0  0  0  0  0  0  0  0
  198.2733  185.9461  159.3229 O   0  0  0  0  0  0  0  0  0  0  0  0
  195.9193  185.7745  159.8387 C   0  0  0  0  0  0  0  0  0  0  0  0
  194.7289  185.0232  159.7692 C   0  0  0  0  0  0  0  0  0  0  0  0
  194.7152  183.7548  159.1645 C   0  0  0  0  0  0  0  0  0  0  0  0
  195.9082  187.1440  160.4908 C   0  0  2  0  0  0  0  0  0  0  0  0
  196.7550  182.6701  156.3936 H   0  0  0  0  0  0  0  0  0  0  0  0
  201.8026  176.9559  154.1299 H   0  0  0  0  0  0  0  0  0  0  0  0
  200.4117  178.7108  153.0655 H   0  0  0  0  0  0  0  0  0  0  0  0
  199.1559  180.0338  156.9981 H   0  0  0  0  0  0  0  0  0  0  0  0
  200.3917  178.1925  158.0102 H   0  0  0  0  0  0  0  0  0  0  0  0
  196.2608  183.4786  151.6684 H   0  0  0  0  0  0  0  0  0  0  0  0
  196.4617  184.7968  149.5940 H   0  0  0  0  0  0  0  0  0  0  0  0
  198.5887  184.7955  148.3069 H   0  0  0  0  0  0  0  0  0  0  0  0
  200.5302  183.4609  149.1112 H   0  0  0  0  0  0  0  0  0  0  0  0
  200.3557  182.1381  151.1843 H   0  0  0  0  0  0  0  0  0  0  0  0
  196.3249  182.6073  153.6504 H   0  0  0  0  0  0  0  0  0  0  0  0
  195.9477  179.9659  155.6604 H   0  0  0  0  0  0  0  0  0  0  0  0
  197.2854  180.2085  156.6754 H   0  0  0  0  0  0  0  0  0  0  0  0
  194.9543  181.3308  158.2011 H   0  0  0  0  0  0  0  0  0  0  0  0
  196.6845  181.2689  158.5057 H   0  0  0  0  0  0  0  0  0  0  0  0
  198.0157  183.5563  158.2993 H   0  0  0  0  0  0  0  0  0  0  0  0
  198.1669  186.8162  159.6768 H   0  0  0  0  0  0  0  0  0  0  0  0
  193.8088  185.4238  160.1698 H   0  0  0  0  0  0  0  0  0  0  0  0
  193.7895  183.1956  159.1130 H   0  0  0  0  0  0  0  0  0  0  0  0
  194.9267  187.3820  160.9012 H   0  0  0  0  0  0  0  0  0  0  0  0
  196.1650  187.9166  159.7661 H   0  0  0  0  0  0  0  0  0  0  0  0
  196.6263  187.1811  161.3087 H   0  0  0  0  0  0  0  0  0  0  0  0
  195.2204  182.1990  156.1099 H   0  0  0  0  0  0  0  0  0  0  0  0
  1  2  1  0
  2  3  1  0
  2  7  2  0
  3  4  2  0
  3 31  1  0
  4  5  1  0
  4 32  1  0
  5  6  2  0
  5  8  1  0
  6  7  1  0
  6 33  1  0
  7 34  1  0
  8  9  2  0
  8 18  1  0
  9 10  1  0
 10 11  1  0
 10 17  1  0
 11 12  2  0
 11 16  1  0
 12 13  1  0
 12 35  1  0
 13 14  2  0
 13 36  1  0
 14 15  1  0
 14 37  1  0
 15 16  2  0
 15 38  1  0
 16 39  1  0
 17 18  2  0
 17 40  1  0
 18 19  1  0
 19 20  1  0
 19 41  1  6
 19 42  1  0
 20 21  1  0
 20 30  1  1
 20 52  1  0
 21 22  1  0
 21 43  1  6
 21 44  1  0
 22 23  2  0
 22 28  1  0
 23 24  1  0
 23 45  1  0
 24 25  1  0
 24 26  2  0
 25 46  1  0
 26 27  1  0
 26 29  1  0
 27 28  2  0
 27 47  1  0
 28 48  1  0
 29 49  1  1
 29 50  1  0
 29 51  1  0
M  CHG  1  20   1
M  END
>  <s_epik_cmdline>  (382) 
J2VwaWtfcHl0aG9uJywgJy1waCcsICc3LjAwMDAwMCcsICctcGh0JywgJzIuMDAwMDAwJywgJy1tcycsICcxNicsICctdG4nLCAnOCcsICctbWEnLCAnMjAwJywgJy1pbWFlJywgJzxpbmZpbGUubWFlPicsICctb21hZScsICc8b3V0ZmlsZS5tYWU+Jw==

>  <s_epik_input>  (382) 
RmMxW2NIXVtjSF1jKFtjSF1bY0hdMSktYzJubigtYzNbY0hdW2NIXVtjSF1bY0hdW2NIXTMpW2NIXWMyW0NIMl1bTkhdW0NIMl1jNFtjSF1jKFtPSF0pYyhbQ0gzXSlbY0hdW2NIXTQ=

>  <s_i_glide_gridfile>  (382) 
ATP-Grid

>  <s_lp_Force_Field>  (382) 
OPLS_2005

>  <s_lp_Variant>  (382) 
a4____241131____9264-1

>  <s_lp_label>  (382) 
450_sdstereoexpander_1_neutralizer_1_epik_1_stereoizer_1

>  <s_m_source_file>  (382) 
ATP-VSW-LIGPREP-002-in.maegz

>  <s_sd_BIOSOLVEIT.INFINISEE\_QUERY\_NAME>  (382) 
Ref-Lig

>  <s_sd_BIOSOLVEIT.INFINISEE\_QUERY\_SMILES>  (382) 
S(c1nc2c(cc1C[NH2+]Cc3ccc(cc3)C[NH+](C)C)cccc2)Cc4ccccc4

>  <s_sd_BIOSOLVEIT.INFINISEE\_REACTION\_NAME>  (382) 
a4

>  <s_sd_BIOSOLVEIT.INFINISEE\_REAGENT1\_SMILES>  (382) 
[R1*]NCC=1C(=NN(c2ccccc2)C1)c3ccc(F)cc3

>  <s_sd_BIOSOLVEIT.INFINISEE\_REAGENT2\_SMILES>  (382) 
[R1*]Cc1cc(O)c(cc1)C

>  <s_sd_BIOSOLVEIT.INFINISEE\_SPACE>  (382) 
FreedomSpace_5bn_2023-06

>  <s_vsw_compound_code>  (382) 
14370

>  <s_vsw_variant>  (382) 
14370-1

>  <r_epik_Charging_Adjusted_Penalty>  (382) 
0.17054924664982801

>  <r_epik_Ionization_Penalty>  (382) 
0.087300000000000003

>  <r_epik_Ionization_Penalty_Charging>  (382) 
0.085300000000000001

>  <r_epik_Ionization_Penalty_Neutral>  (382) 
0.002

>  <r_epik_State_Penalty>  (382) 
0.085300000000000001

>  <r_i_docking_score>  (382) 
-4.76204452470596

>  <r_i_glide_ecoul>  (382) 
-10.0300741195679

>  <r_i_glide_eff_state_penalty>  (382) 
0.085300000000000001

>  <r_i_glide_einternal>  (382) 
4.1353940963745099

>  <r_i_glide_emodel>  (382) 
-58.914069712881499

>  <r_i_glide_energy>  (382) 
-41.9241495132446

>  <r_i_glide_erotb>  (382) 
0.77472468987334497

>  <r_i_glide_esite>  (382) 
-0.103484473017644

>  <r_i_glide_evdw>  (382) 
-31.8940753936768

>  <r_i_glide_gscore>  (382) 
-4.8473445247059601

>  <r_i_glide_hbond>  (382) 
-0.20000000000000001

>  <r_i_glide_ligand_efficiency>  (382) 
-0.16420843188641199

>  <r_i_glide_ligand_efficiency_ln>  (382) 
-1.09038744112755

>  <r_i_glide_ligand_efficiency_sa>  (382) 
-0.50450032763784602

>  <r_i_glide_lipo>  (382) 
-1.45885160166992

>  <r_i_glide_metal>  (382) 
-0

>  <r_i_glide_rewards>  (382) 
-0.76051825227272596

>  <r_lp_Energy>  (382) 
12.459198000000001

>  <r_lp_tautomer_probability>  (382) 
0.999999999997365

>  <r_qp_ACxDN^.5/SA>  (382) 
0.0072002000000000003

>  <r_qp_CIQPlogS>  (382) 
-6.0030000000000001

>  <r_qp_EA(eV)>  (382) 
0.61299999999999999

>  <r_qp_FISA>  (382) 
65.915999999999997

>  <r_qp_FOSA>  (382) 
129.41200000000001

>  <r_qp_IP(eV)>  (382) 
8.8330000000000002

>  <r_qp_Jm>  (382) 
0.0125584315914389

>  <r_qp_PISA>  (382) 
412.83600000000001

>  <r_qp_PSA>  (382) 
49.710000000000001

>  <r_qp_PercentHumanOralAbsorption>  (382) 
100

>  <r_qp_QPPCaco>  (382) 
585.75800000000004

>  <r_qp_QPPMDCK>  (382) 
449.25

>  <r_qp_QPlogBB>  (382) 
0.13200000000000001

>  <r_qp_QPlogHERG>  (382) 
-6.5940000000000003

>  <r_qp_QPlogKhsa>  (382) 
0.95199999999999996

>  <r_qp_QPlogKp>  (382) 
-2.863

>  <r_qp_QPlogPC16>  (382) 
12.976000000000001

>  <r_qp_QPlogPo/w>  (382) 
4.851

>  <r_qp_QPlogPoct>  (382) 
19.132999999999999

>  <r_qp_QPlogPw>  (382) 
9.5500000000000007

>  <r_qp_QPlogS>  (382) 
-4.6269999999999998

>  <r_qp_QPpolrz>  (382) 
42.451000000000001

>  <r_qp_SASA>  (382) 
638.34400000000005

>  <r_qp_SAamideO>  (382) 
0

>  <r_qp_SAfluorine>  (382) 
30.18

>  <r_qp_WPSA>  (382) 
30.18

>  <r_qp_accptHB>  (382) 
3.25

>  <r_qp_dip^2/V>  (382) 
0.016679699999999999

>  <r_qp_dipole>  (382) 
4.4669999999999996

>  <r_qp_donorHB>  (382) 
2

>  <r_qp_glob>  (382) 
0.85372420000000004

>  <r_qp_mol_MW>  (382) 
387.45600000000002

>  <r_qp_volume>  (382) 
1196.2190000000001

>  <r_sd_BIOSOLVEIT.INFINISEE\_FTREES\_SIMILARITY>  (382) 
0.90600000000000003

>  <r_sd_BIOSOLVEIT.LOGP>  (382) 
3.9560200000000001

>  <r_sd_BIOSOLVEIT.MOLECULAR\_WEIGHT>  (382) 
388.464

>  <r_sd_BIOSOLVEIT.TPSA>  (382) 
54.659999999999997

>  <i_epik_Tot_Q>  (382) 
1

>  <i_epik_Tot_abs_Q>  (382) 
1

>  <i_f3d_flags>  (382) 
0

>  <i_i_glide_confnum>  (382) 
6

>  <i_i_glide_lignum>  (382) 
154

>  <i_i_glide_posenum>  (382) 
2

>  <i_i_glide_rotatable_bonds>  (382) 
7

>  <i_lp_mmshare_version>  (382) 
65135

>  <i_m_ct_format>  (382) 
2

>  <i_m_source_file_index>  (382) 
450

>  <i_qp_#NandO>  (382) 
4

>  <i_qp_#acid>  (382) 
0

>  <i_qp_#amide>  (382) 
0

>  <i_qp_#amidine>  (382) 
0

>  <i_qp_#amine>  (382) 
1

>  <i_qp_#in34>  (382) 
0

>  <i_qp_#in56>  (382) 
23

>  <i_qp_#metab>  (382) 
5

>  <i_qp_#nonHatm>  (382) 
29

>  <i_qp_#noncon>  (382) 
0

>  <i_qp_#ringatoms>  (382) 
23

>  <i_qp_#rotor>  (382) 
5

>  <i_qp_#rtvFG>  (382) 
0

>  <i_qp_#stars>  (382) 
0

>  <i_qp_CNS>  (382) 
1

>  <i_qp_HumanOralAbsorption>  (382) 
3

>  <i_qp_RuleOfFive>  (382) 
0

>  <i_qp_RuleOfThree>  (382) 
0

>  <i_sd_BIOSOLVEIT.INFINISEE\_REAGENT1\_NAME>  (382) 
241131

>  <i_sd_BIOSOLVEIT.INFINISEE\_REAGENT2\_NAME>  (382) 
9264

>  <i_sd_BIOSOLVEIT.INFINISEE\_RESULT\_RANK>  (382) 
62433

>  <i_sd_version>  (382) 
0

>  <b_lp_Chiralities_Consistent>  (382) 
1

>  <b_sd_chiral_flag>  (382) 
0

>  <canonical_id>  (382) 
ATP-HTVS-3E3A2065ACC9

>  <compound_code>  (382) 
14370

>  <title>  (382) 
a4____241131____9264

>  <variant>  (382) 
14370-1

>  <source_file>  (382) 
运行/运行/ATP-VSW/ATP-VSW-DOCK_HTVS_1-002_lib.maegz

>  <canonical_smiles>  (382) 
Cc1ccc(C[NH2+]Cc2cn(-c3ccccc3)nc2-c2ccc(F)cc2)cc1O

>  <scaffold>  (382) 
c1ccc(C[NH2+]Cc2cn(-c3ccccc3)nc2-c2ccccc2)cc1

>  <molecular_formula>  (382) 
C24H23FN3O+

$$$$
ATP-HTVS-3E4E6B1035DE
     RDKit          3D

 62 65  0  0  0  0  0  0  0  0999 V2000
  196.5153  181.7888  152.2404 O   0  0  0  0  0  0  0  0  0  0  0  0
  196.7436  180.6841  152.7972 C   0  0  0  0  0  0  0  0  0  0  0  0
  196.2983  179.5840  152.4247 O   0  0  0  0  0  0  0  0  0  0  0  0
  197.6472  180.7132  154.0417 C   0  0  1  0  0  0  0  0  0  0  0  0
  196.7981  180.5178  155.3300 C   0  0  1  0  0  0  0  0  0  0  0  0
  196.3129  181.7997  155.9058 N   0  0  1  0  0  0  0  0  0  0  0  0
  196.1525  181.7751  157.3838 C   0  0  1  0  0  0  0  0  0  0  0  0
  196.4150  183.1293  158.0127 C   0  0  0  0  0  0  0  0  0  0  0  0
  197.6517  183.7658  157.7997 C   0  0  0  0  0  0  0  0  0  0  0  0
  197.9156  185.0430  158.3628 C   0  0  0  0  0  0  0  0  0  0  0  0
  199.0723  185.7575  158.1142 O   0  0  0  0  0  0  0  0  0  0  0  0
  200.1973  185.0741  157.5615 C   0  0  1  0  0  0  0  0  0  0  0  0
  200.8499  184.1092  158.5582 C   0  0  0  0  0  0  0  0  0  0  0  0
  201.2566  182.8318  158.1076 C   0  0  0  0  0  0  0  0  0  0  0  0
  201.9561  181.9332  158.9702 C   0  0  0  0  0  0  0  0  0  0  0  0
  202.1743  182.3318  160.2931 C   0  0  0  0  0  0  0  0  0  0  0  0
  201.7486  183.5995  160.7857 C   0  0  0  0  0  0  0  0  0  0  0  0
  201.0959  184.4995  159.9083 C   0  0  0  0  0  0  0  0  0  0  0  0
  196.9382  185.6386  159.1969 C   0  0  0  0  0  0  0  0  0  0  0  0
  195.7108  184.9766  159.4321 C   0  0  0  0  0  0  0  0  0  0  0  0
  195.4424  183.7327  158.8355 C   0  0  0  0  0  0  0  0  0  0  0  0
  194.7446  185.5754  160.2603 C   0  0  0  0  0  0  0  0  0  0  0  0
  194.9887  186.8258  160.8546 C   0  0  0  0  0  0  0  0  0  0  0  0
  196.2039  187.4909  160.6158 C   0  0  0  0  0  0  0  0  0  0  0  0
  197.1782  186.8986  159.7902 C   0  0  0  0  0  0  0  0  0  0  0  0
  198.7380  179.6265  153.8692 C   0  0  1  0  0  0  0  0  0  0  0  0
  199.7257  179.5529  155.0227 C   0  0  0  0  0  0  0  0  0  0  0  0
  200.8749  180.3656  155.0247 C   0  0  0  0  0  0  0  0  0  0  0  0
  201.8360  180.2552  156.0492 C   0  0  0  0  0  0  0  0  0  0  0  0
  201.5951  179.3226  157.0989 C   0  0  0  0  0  0  0  0  0  0  0  0
  200.4141  178.5751  157.1377 C   0  0  0  0  0  0  0  0  0  0  0  0
  199.4877  178.6544  156.0783 C   0  0  0  0  0  0  0  0  0  0  0  0
  203.0794  181.1414  156.0089 C   0  0  2  0  0  0  0  0  0  0  0  0
  197.0107  182.4950  155.6859 H   0  0  0  0  0  0  0  0  0  0  0  0
  198.1643  181.6759  154.0764 H   0  0  0  0  0  0  0  0  0  0  0  0
  196.0123  179.8023  155.1519 H   0  0  0  0  0  0  0  0  0  0  0  0
  197.3739  180.0138  156.0974 H   0  0  0  0  0  0  0  0  0  0  0  0
  195.1513  181.4134  157.6062 H   0  0  0  0  0  0  0  0  0  0  0  0
  196.8546  181.0914  157.8673 H   0  0  0  0  0  0  0  0  0  0  0  0
  198.3801  183.2556  157.1804 H   0  0  0  0  0  0  0  0  0  0  0  0
  199.9182  184.5924  156.6140 H   0  0  0  0  0  0  0  0  0  0  0  0
  200.9390  185.8235  157.2595 H   0  0  0  0  0  0  0  0  0  0  0  0
  201.0170  182.5762  157.0883 H   0  0  0  0  0  0  0  0  0  0  0  0
  202.3289  180.9644  158.6675 H   0  0  0  0  0  0  0  0  0  0  0  0
  202.6719  181.6358  160.9466 H   0  0  0  0  0  0  0  0  0  0  0  0
  201.9435  183.8643  161.8114 H   0  0  0  0  0  0  0  0  0  0  0  0
  200.7844  185.4930  160.2573 H   0  0  0  0  0  0  0  0  0  0  0  0
  194.5031  183.2300  159.0159 H   0  0  0  0  0  0  0  0  0  0  0  0
  193.7978  185.0809  160.4226 H   0  0  0  0  0  0  0  0  0  0  0  0
  194.2346  187.2832  161.4783 H   0  0  0  0  0  0  0  0  0  0  0  0
  196.3917  188.4536  161.0726 H   0  0  0  0  0  0  0  0  0  0  0  0
  198.1100  187.4256  159.6362 H   0  0  0  0  0  0  0  0  0  0  0  0
  198.2875  178.6415  153.7594 H   0  0  0  0  0  0  0  0  0  0  0  0
  199.3012  179.8062  152.9483 H   0  0  0  0  0  0  0  0  0  0  0  0
  201.0164  181.0923  154.2310 H   0  0  0  0  0  0  0  0  0  0  0  0
  202.3236  179.1970  157.9037 H   0  0  0  0  0  0  0  0  0  0  0  0
  200.1663  177.9429  157.9814 H   0  0  0  0  0  0  0  0  0  0  0  0
  198.5850  178.0499  156.0967 H   0  0  0  0  0  0  0  0  0  0  0  0
  203.5848  181.1961  156.9762 H   0  0  0  0  0  0  0  0  0  0  0  0
  202.7942  182.1647  155.7431 H   0  0  0  0  0  0  0  0  0  0  0  0
  203.7892  180.7981  155.2552 H   0  0  0  0  0  0  0  0  0  0  0  0
  195.4315  182.1031  155.4906 H   0  0  0  0  0  0  0  0  0  0  0  0
  1  2  1  0
  2  3  2  0
  2  4  1  0
  4  5  1  0
  4 26  1  0
  4 35  1  1
  5  6  1  0
  5 36  1  6
  5 37  1  0
  6  7  1  0
  6 34  1  1
  6 62  1  0
  7  8  1  0
  7 38  1  6
  7 39  1  0
  8  9  1  0
  8 21  2  0
  9 10  2  0
  9 40  1  0
 10 11  1  0
 10 19  1  0
 11 12  1  0
 12 13  1  0
 12 41  1  6
 12 42  1  0
 13 14  2  0
 13 18  1  0
 14 15  1  0
 14 43  1  0
 15 16  2  0
 15 44  1  0
 16 17  1  0
 16 45  1  0
 17 18  2  0
 17 46  1  0
 18 47  1  0
 19 20  1  0
 19 25  2  0
 20 21  1  0
 20 22  2  0
 21 48  1  0
 22 23  1  0
 22 49  1  0
 23 24  2  0
 23 50  1  0
 24 25  1  0
 24 51  1  0
 25 52  1  0
 26 27  1  0
 26 53  1  6
 26 54  1  0
 27 28  1  0
 27 32  2  0
 28 29  2  0
 28 55  1  0
 29 30  1  0
 29 33  1  0
 30 31  2  0
 30 56  1  0
 31 32  1  0
 31 57  1  0
 32 58  1  0
 33 59  1  1
 33 60  1  0
 33 61  1  0
M  CHG  2   1  -1   6   1
M  END
>  <s_epik_cmdline>  (383) 
J2VwaWtfcHl0aG9uJywgJy1waCcsICc3LjAwMDAwMCcsICctcGh0JywgJzIuMDAwMDAwJywgJy1tcycsICcxNicsICctdG4nLCAnOCcsICctbWEnLCAnMjAwJywgJy1pbWFlJywgJzxpbmZpbGUubWFlPicsICctb21hZScsICc8b3V0ZmlsZS5tYWU+Jw==

>  <s_epik_input>  (383) 
W2NIXTFbY0hdW2NIXWMoW0NIM10pW2NIXWMxW0NIMl1bQ0BASF0oQyg9TylbT0hdKVtDSDJdW05IXVtDSDJdYyhbY0hdYyhjMjMpW2NIXVtjSF1bY0hdW2NIXTMpW2NIXWMyT1tDSDJdYzRbY0hdW2NIXVtjSF1bY0hdW2NIXTQ=

>  <s_i_glide_gridfile>  (383) 
ATP-Grid

>  <s_lp_Force_Field>  (383) 
OPLS_2005

>  <s_lp_Variant>  (383) 
m_271304bba____9304164____13059962-1

>  <s_lp_label>  (383) 
1580_sdstereoexpander_1_neutralizer_1_epik_1_stereoizer_1

>  <s_m_source_file>  (383) 
ATP-VSW-LIGPREP-003-in.maegz

>  <s_sd_BIOSOLVEIT.INFINISEE\_QUERY\_NAME>  (383) 
Ref-Lig

>  <s_sd_BIOSOLVEIT.INFINISEE\_QUERY\_SMILES>  (383) 
S(c1nc2c(cc1C[NH2+]Cc3ccc(cc3)C[NH+](C)C)cccc2)Cc4ccccc4

>  <s_sd_BIOSOLVEIT.INFINISEE\_REACTION\_NAME>  (383) 
m_271304bba

>  <s_sd_BIOSOLVEIT.INFINISEE\_REAGENT1\_SMILES>  (383) 
[R1*]NCC(C(=O)O)Cc1cc(ccc1)C

>  <s_sd_BIOSOLVEIT.INFINISEE\_REAGENT2\_SMILES>  (383) 
[R1*]Cc1cc(OCc2ccccc2)c3c(c1)cccc3

>  <s_sd_BIOSOLVEIT.INFINISEE\_SPACE>  (383) 
REALSpace_44bn_2023-08

>  <s_vsw_compound_code>  (383) 
50531

>  <s_vsw_variant>  (383) 
50531-1

>  <r_epik_Charging_Adjusted_Penalty>  (383) 
0.012419669830514001

>  <r_epik_Ionization_Penalty>  (383) 
0.0064000000000000003

>  <r_epik_Ionization_Penalty_Charging>  (383) 
0.0064000000000000003

>  <r_epik_Ionization_Penalty_Neutral>  (383) 
0

>  <r_epik_State_Penalty>  (383) 
0.0060000000000000001

>  <r_i_docking_score>  (383) 
-4.2509430529547396

>  <r_i_glide_ecoul>  (383) 
-5.3703737258911097

>  <r_i_glide_eff_state_penalty>  (383) 
0.0060000000000000001

>  <r_i_glide_einternal>  (383) 
10.563289642334

>  <r_i_glide_emodel>  (383) 
-49.5067934936272

>  <r_i_glide_energy>  (383) 
-39.547287940978997

>  <r_i_glide_erotb>  (383) 
0.92977261941215605

>  <r_i_glide_esite>  (383) 
-0.079872894888451701

>  <r_i_glide_evdw>  (383) 
-34.176914215087898

>  <r_i_glide_gscore>  (383) 
-4.2569430529547398

>  <r_i_glide_hbond>  (383) 
-0.20000000000000001

>  <r_i_glide_ligand_efficiency>  (383) 
-0.128816456150144

>  <r_i_glide_ligand_efficiency_ln>  (383) 
-0.94538772477196598

>  <r_i_glide_ligand_efficiency_sa>  (383) 
-0.41318320488842097

>  <r_i_glide_lipo>  (383) 
-1.89145678115504

>  <r_i_glide_metal>  (383) 
-0

>  <r_i_glide_rewards>  (383) 
-0.50098422668533704

>  <r_lp_Energy>  (383) 
14.742300999999999

>  <r_qp_ACxDN^.5/SA>  (383) 
0.0043309999999999998

>  <r_qp_CIQPlogS>  (383) 
-7.1459999999999999

>  <r_qp_EA(eV)>  (383) 
0.52400000000000002

>  <r_qp_FISA>  (383) 
99.593000000000004

>  <r_qp_FOSA>  (383) 
146.589

>  <r_qp_IP(eV)>  (383) 
8.2119999999999997

>  <r_qp_Jm>  (383) 
0.000238546542030769

>  <r_qp_PISA>  (383) 
504.22800000000001

>  <r_qp_PSA>  (383) 
66.114000000000004

>  <r_qp_PercentHumanOralAbsorption>  (383) 
88.472999999999999

>  <r_qp_QPPCaco>  (383) 
71.114999999999995

>  <r_qp_QPPMDCK>  (383) 
39.973999999999997

>  <r_qp_QPlogBB>  (383) 
-0.64800000000000002

>  <r_qp_QPlogHERG>  (383) 
-5.8970000000000002

>  <r_qp_QPlogKhsa>  (383) 
1.272

>  <r_qp_QPlogKp>  (383) 
-2.681

>  <r_qp_QPlogPC16>  (383) 
15.835000000000001

>  <r_qp_QPlogPo/w>  (383) 
4.8470000000000004

>  <r_qp_QPlogPoct>  (383) 
19.920999999999999

>  <r_qp_QPlogPw>  (383) 
8.0920000000000005

>  <r_qp_QPlogS>  (383) 
-6.5839999999999996

>  <r_qp_QPpolrz>  (383) 
48.838999999999999

>  <r_qp_SASA>  (383) 
750.40999999999997

>  <r_qp_SAamideO>  (383) 
0

>  <r_qp_SAfluorine>  (383) 
0

>  <r_qp_WPSA>  (383) 
0

>  <r_qp_accptHB>  (383) 
3.25

>  <r_qp_dip^2/V>  (383) 
0.023463600000000001

>  <r_qp_dipole>  (383) 
5.7610000000000001

>  <r_qp_donorHB>  (383) 
1

>  <r_qp_glob>  (383) 
0.811998

>  <r_qp_mol_MW>  (383) 
439.553

>  <r_qp_volume>  (383) 
1414.271

>  <r_sd_BIOSOLVEIT.INFINISEE\_FTREES\_SIMILARITY>  (383) 
0.90600000000000003

>  <r_sd_BIOSOLVEIT.LOGP>  (383) 
3.3994200000000001

>  <r_sd_BIOSOLVEIT.MOLECULAR\_WEIGHT>  (383) 
439.55200000000002

>  <r_sd_BIOSOLVEIT.TPSA>  (383) 
65.969999999999999

>  <i_epik_Tot_Q>  (383) 
0

>  <i_epik_Tot_abs_Q>  (383) 
2

>  <i_f3d_flags>  (383) 
0

>  <i_i_glide_confnum>  (383) 
3

>  <i_i_glide_lignum>  (383) 
603

>  <i_i_glide_posenum>  (383) 
5

>  <i_i_glide_rotatable_bonds>  (383) 
10

>  <i_lp_mmshare_version>  (383) 
65135

>  <i_m_ct_format>  (383) 
2

>  <i_m_source_file_index>  (383) 
1580

>  <i_qp_#NandO>  (383) 
4

>  <i_qp_#acid>  (383) 
1

>  <i_qp_#amide>  (383) 
0

>  <i_qp_#amidine>  (383) 
0

>  <i_qp_#amine>  (383) 
1

>  <i_qp_#in34>  (383) 
0

>  <i_qp_#in56>  (383) 
22

>  <i_qp_#metab>  (383) 
7

>  <i_qp_#nonHatm>  (383) 
33

>  <i_qp_#noncon>  (383) 
0

>  <i_qp_#ringatoms>  (383) 
22

>  <i_qp_#rotor>  (383) 
10

>  <i_qp_#rtvFG>  (383) 
0

>  <i_qp_#stars>  (383) 
2

>  <i_qp_CNS>  (383) 
0

>  <i_qp_HumanOralAbsorption>  (383) 
1

>  <i_qp_RuleOfFive>  (383) 
0

>  <i_qp_RuleOfThree>  (383) 
2

>  <i_sd_BIOSOLVEIT.INFINISEE\_REAGENT1\_NAME>  (383) 
9304164

>  <i_sd_BIOSOLVEIT.INFINISEE\_REAGENT2\_NAME>  (383) 
13059962

>  <i_sd_BIOSOLVEIT.INFINISEE\_RESULT\_RANK>  (383) 
64470

>  <i_sd_version>  (383) 
0

>  <b_lp_Chiralities_Consistent>  (383) 
1

>  <b_sd_chiral_flag>  (383) 
0

>  <canonical_id>  (383) 
ATP-HTVS-3E4E6B1035DE

>  <compound_code>  (383) 
50531

>  <title>  (383) 
m_271304bba____9304164____13059962

>  <variant>  (383) 
50531-1

>  <source_file>  (383) 
运行/运行/ATP-VSW/ATP-VSW-DOCK_HTVS_1-003_lib/ATP-VSW-DOCK_HTVS_1-003_lib.mae

>  <canonical_smiles>  (383) 
Cc1cccc(C[C@H](C[NH2+]Cc2cc(OCc3ccccc3)c3ccccc3c2)C(=O)[O-])c1

>  <scaffold>  (383) 
c1ccc(CCC[NH2+]Cc2cc(OCc3ccccc3)c3ccccc3c2)cc1

>  <molecular_formula>  (383) 
C29H29NO3

$$$$
ATP-HTVS-3E51FD2FD256
     RDKit          3D

 53 55  0  0  0  0  0  0  0  0999 V2000
  200.8687  186.5966  147.6533 Br  0  0  0  0  0  0  0  0  0  0  0  0
  199.5684  185.3812  148.3579 C   0  0  0  0  0  0  0  0  0  0  0  0
  199.4892  184.0575  147.8633 C   0  0  0  0  0  0  0  0  0  0  0  0
  198.5300  183.1652  148.3860 C   0  0  0  0  0  0  0  0  0  0  0  0
  197.6147  183.5895  149.3861 C   0  0  0  0  0  0  0  0  0  0  0  0
  196.7420  182.6746  149.9375 O   0  0  0  0  0  0  0  0  0  0  0  0
  196.8240  182.3682  151.2921 C   0  0  0  0  0  0  0  0  0  0  0  0
  196.3474  181.1215  151.6199 N   0  0  0  0  0  0  0  0  0  0  0  0
  196.3437  180.7382  152.9323 C   0  0  0  0  0  0  0  0  0  0  0  0
  196.7782  181.6298  153.9662 C   0  0  0  0  0  0  0  0  0  0  0  0
  197.2534  182.9312  153.6110 C   0  0  0  0  0  0  0  0  0  0  0  0
  197.3009  183.3065  152.2477 C   0  0  0  0  0  0  0  0  0  0  0  0
  196.7667  181.1965  155.4211 C   0  0  1  0  0  0  0  0  0  0  0  0
  195.9543  182.1266  156.2384 N   0  0  1  0  0  0  0  0  0  0  0  0
  195.7469  181.7401  157.6446 C   0  0  1  0  0  0  0  0  0  0  0  0
  195.4125  182.9285  158.5203 C   0  0  0  0  0  0  0  0  0  0  0  0
  196.4061  183.7730  159.0990 C   0  0  0  0  0  0  0  0  0  0  0  0
  196.0073  184.8729  159.8903 C   0  0  0  0  0  0  0  0  0  0  0  0
  194.6483  185.1160  160.1382 C   0  0  0  0  0  0  0  0  0  0  0  0
  194.2724  186.1758  160.8915 F   0  0  0  0  0  0  0  0  0  0  0  0
  193.6802  184.2682  159.5739 C   0  0  0  0  0  0  0  0  0  0  0  0
  194.0516  183.1929  158.7598 C   0  0  0  0  0  0  0  0  0  0  0  0
  197.9056  183.5465  158.9112 C   0  0  1  0  0  0  0  0  0  0  0  0
  198.3167  183.5136  157.4868 N   0  0  1  0  0  0  0  0  0  0  0  0
  197.9805  184.7473  156.7126 C   0  0  2  0  0  0  0  0  0  0  0  0
  199.7190  183.0933  157.2906 C   0  0  2  0  0  0  0  0  0  0  0  0
  197.6548  184.9345  149.8125 C   0  0  0  0  0  0  0  0  0  0  0  0
  198.6552  185.7989  149.3461 C   0  0  0  0  0  0  0  0  0  0  0  0
  196.3007  183.0640  156.2070 H   0  0  0  0  0  0  0  0  0  0  0  0
  200.1468  183.7354  147.0632 H   0  0  0  0  0  0  0  0  0  0  0  0
  198.4902  182.1419  148.0303 H   0  0  0  0  0  0  0  0  0  0  0  0
  195.9653  179.7293  153.1796 H   0  0  0  0  0  0  0  0  0  0  0  0
  197.5569  183.6314  154.3435 H   0  0  0  0  0  0  0  0  0  0  0  0
  197.6340  184.3029  152.0232 H   0  0  0  0  0  0  0  0  0  0  0  0
  196.4181  180.1588  155.5676 H   0  0  0  0  0  0  0  0  0  0  0  0
  197.7927  181.2550  155.7955 H   0  0  0  0  0  0  0  0  0  0  0  0
  194.8953  181.0380  157.6500 H   0  0  0  0  0  0  0  0  0  0  0  0
  196.6171  181.2330  158.0465 H   0  0  0  0  0  0  0  0  0  0  0  0
  196.7349  185.5426  160.3265 H   0  0  0  0  0  0  0  0  0  0  0  0
  192.6379  184.4891  159.7273 H   0  0  0  0  0  0  0  0  0  0  0  0
  193.2799  182.5869  158.3037 H   0  0  0  0  0  0  0  0  0  0  0  0
  198.4604  184.3731  159.3705 H   0  0  0  0  0  0  0  0  0  0  0  0
  198.1769  182.6237  159.4348 H   0  0  0  0  0  0  0  0  0  0  0  0
  198.4151  185.6346  157.1948 H   0  0  0  0  0  0  0  0  0  0  0  0
  196.8948  184.8831  156.6693 H   0  0  0  0  0  0  0  0  0  0  0  0
  198.3735  184.6723  155.7026 H   0  0  0  0  0  0  0  0  0  0  0  0
  200.4006  183.8519  157.6743 H   0  0  0  0  0  0  0  0  0  0  0  0
  199.9238  182.9409  156.2292 H   0  0  0  0  0  0  0  0  0  0  0  0
  199.9235  182.1390  157.7868 H   0  0  0  0  0  0  0  0  0  0  0  0
  196.9547  185.2660  150.5909 H   0  0  0  0  0  0  0  0  0  0  0  0
  198.7544  186.7938  149.7560 H   0  0  0  0  0  0  0  0  0  0  0  0
  197.8120  182.7201  157.1272 H   0  0  0  0  0  0  0  0  0  0  0  0
  194.9897  182.2406  155.8570 H   0  0  0  0  0  0  0  0  0  0  0  0
  1  2  1  0
  2  3  1  0
  2 28  2  0
  3  4  2  0
  3 30  1  0
  4  5  1  0
  4 31  1  0
  5  6  1  0
  5 27  2  0
  6  7  1  0
  7  8  1  0
  7 12  2  0
  8  9  2  0
  9 10  1  0
  9 32  1  0
 10 11  2  0
 10 13  1  0
 11 12  1  0
 11 33  1  0
 12 34  1  0
 13 14  1  0
 13 35  1  6
 13 36  1  0
 14 15  1  0
 14 29  1  1
 14 53  1  0
 15 16  1  0
 15 37  1  6
 15 38  1  0
 16 17  2  0
 16 22  1  0
 17 18  1  0
 17 23  1  0
 18 19  2  0
 18 39  1  0
 19 20  1  0
 19 21  1  0
 21 22  2  0
 21 40  1  0
 22 41  1  0
 23 24  1  0
 23 42  1  1
 23 43  1  0
 24 25  1  0
 24 26  1  0
 24 52  1  6
 25 44  1  1
 25 45  1  0
 25 46  1  0
 26 47  1  1
 26 48  1  0
 26 49  1  0
 27 28  1  0
 27 50  1  0
 28 51  1  0
M  CHG  2  14   1  24   1
M  END
>  <s_epik_cmdline>  (384) 
J2VwaWtfcHl0aG9uJywgJy1waCcsICc3LjAwMDAwMCcsICctcGh0JywgJzIuMDAwMDAwJywgJy1tcycsICcxNicsICctdG4nLCAnOCcsICctbWEnLCAnMjAwJywgJy1pbWFlJywgJzxpbmZpbGUubWFlPicsICctb21hZScsICc8b3V0ZmlsZS5tYWU+Jw==

>  <s_epik_input>  (384) 
QnJjMVtjSF1bY0hdYyhbY0hdW2NIXTEpT2MybltjSF1jKFtjSF1bY0hdMilbQ0gyXVtOSF1bQ0gyXWMzYyhbQ0gyXU4oW0NIM10pW0NIM10pW2NIXWMoRilbY0hdW2NIXTM=

>  <s_i_glide_gridfile>  (384) 
ATP-Grid

>  <s_lp_Force_Field>  (384) 
OPLS_2005

>  <s_lp_Variant>  (384) 
m_270004bbb____24792668____20640242-1

>  <s_lp_label>  (384) 
1752_sdstereoexpander_1_neutralizer_1_epik_1_stereoizer_1

>  <s_m_source_file>  (384) 
ATP-VSW-LIGPREP-001-in.maegz

>  <s_sd_BIOSOLVEIT.INFINISEE\_QUERY\_NAME>  (384) 
Ref-Lig

>  <s_sd_BIOSOLVEIT.INFINISEE\_QUERY\_SMILES>  (384) 
S(c1nc2c(cc1C[NH2+]Cc3ccc(cc3)C[NH+](C)C)cccc2)Cc4ccccc4

>  <s_sd_BIOSOLVEIT.INFINISEE\_REACTION\_NAME>  (384) 
m_270004bbb

>  <s_sd_BIOSOLVEIT.INFINISEE\_REAGENT1\_SMILES>  (384) 
[R1*]NCc1c(cc(F)cc1)CN(C)C

>  <s_sd_BIOSOLVEIT.INFINISEE\_REAGENT2\_SMILES>  (384) 
[R1*]Cc1cnc(Oc2ccc(Br)cc2)cc1

>  <s_sd_BIOSOLVEIT.INFINISEE\_SPACE>  (384) 
REALSpace_44bn_2023-08

>  <s_vsw_compound_code>  (384) 
56033

>  <s_vsw_variant>  (384) 
56033-1

>  <r_epik_Charging_Adjusted_Penalty>  (384) 
0.39555009598371998

>  <r_epik_Ionization_Penalty>  (384) 
0.19969999999999999

>  <r_epik_Ionization_Penalty_Charging>  (384) 
0.19969999999999999

>  <r_epik_Ionization_Penalty_Neutral>  (384) 
0

>  <r_epik_State_Penalty>  (384) 
0.19589999999999999

>  <r_i_docking_score>  (384) 
-4.9902626335405698

>  <r_i_glide_ecoul>  (384) 
-13.219362258911101

>  <r_i_glide_eff_state_penalty>  (384) 
0.19589999999999999

>  <r_i_glide_einternal>  (384) 
5.1181139945983896

>  <r_i_glide_emodel>  (384) 
-61.507930449897898

>  <r_i_glide_energy>  (384) 
-41.771369934082003

>  <r_i_glide_erotb>  (384) 
0.70324617524067201

>  <r_i_glide_esite>  (384) 
-0.090146896774835006

>  <r_i_glide_evdw>  (384) 
-28.552007675170898

>  <r_i_glide_gscore>  (384) 
-5.1861626335405697

>  <r_i_glide_hbond>  (384) 
-0.18250252399301001

>  <r_i_glide_ligand_efficiency>  (384) 
-0.178223665483592

>  <r_i_glide_ligand_efficiency_ln>  (384) 
-1.1518991362988

>  <r_i_glide_ligand_efficiency_sa>  (384) 
-0.54119201653361104

>  <r_i_glide_lipo>  (384) 
-1.3614933828951199

>  <r_i_glide_metal>  (384) 
-0

>  <r_i_glide_rewards>  (384) 
-0.84476128252305904

>  <r_lp_Energy>  (384) 
25.490235999999999

>  <r_lp_tautomer_probability>  (384) 
1

>  <r_qp_ACxDN^.5/SA>  (384) 
0.0071029999999999999

>  <r_qp_CIQPlogS>  (384) 
-5.2430000000000003

>  <r_qp_EA(eV)>  (384) 
0.22600000000000001

>  <r_qp_FISA>  (384) 
10.938000000000001

>  <r_qp_FOSA>  (384) 
203.75200000000001

>  <r_qp_IP(eV)>  (384) 
9.0050000000000008

>  <r_qp_Jm>  (384) 
0.0064148826433483002

>  <r_qp_PISA>  (384) 
364.892

>  <r_qp_PSA>  (384) 
34.091000000000001

>  <r_qp_PercentHumanOralAbsorption>  (384) 
100

>  <r_qp_QPPCaco>  (384) 
485.25799999999998

>  <r_qp_QPPMDCK>  (384) 
1330.02

>  <r_qp_QPlogBB>  (384) 
1.0720000000000001

>  <r_qp_QPlogHERG>  (384) 
-7.8390000000000004

>  <r_qp_QPlogKhsa>  (384) 
0.76300000000000001

>  <r_qp_QPlogKp>  (384) 
-3.7930000000000001

>  <r_qp_QPlogPC16>  (384) 
13.198

>  <r_qp_QPlogPo/w>  (384) 
4.9610000000000003

>  <r_qp_QPlogPoct>  (384) 
18.678000000000001

>  <r_qp_QPlogPw>  (384) 
8.6379999999999999

>  <r_qp_QPlogS>  (384) 
-4.048

>  <r_qp_QPpolrz>  (384) 
43.192

>  <r_qp_SASA>  (384) 
703.92999999999995

>  <r_qp_SAamideO>  (384) 
0

>  <r_qp_SAfluorine>  (384) 
46.957999999999998

>  <r_qp_WPSA>  (384) 
124.34699999999999

>  <r_qp_accptHB>  (384) 
5

>  <r_qp_dip^2/V>  (384) 
0.0120169

>  <r_qp_dipole>  (384) 
3.9129999999999998

>  <r_qp_donorHB>  (384) 
1

>  <r_qp_glob>  (384) 
0.80752159999999995

>  <r_qp_mol_MW>  (384) 
444.346

>  <r_qp_volume>  (384) 
1274.319

>  <r_sd_BIOSOLVEIT.INFINISEE\_FTREES\_SIMILARITY>  (384) 
0.90400000000000003

>  <r_sd_BIOSOLVEIT.LOGP>  (384) 
2.6836000000000002

>  <r_sd_BIOSOLVEIT.MOLECULAR\_WEIGHT>  (384) 
446.36200000000002

>  <r_sd_BIOSOLVEIT.TPSA>  (384) 
43.170000000000002

>  <i_epik_Tot_Q>  (384) 
2

>  <i_epik_Tot_abs_Q>  (384) 
2

>  <i_f3d_flags>  (384) 
0

>  <i_i_glide_confnum>  (384) 
4

>  <i_i_glide_lignum>  (384) 
497

>  <i_i_glide_posenum>  (384) 
18

>  <i_i_glide_rotatable_bonds>  (384) 
8

>  <i_lp_mmshare_version>  (384) 
65135

>  <i_m_ct_format>  (384) 
2

>  <i_m_source_file_index>  (384) 
1752

>  <i_qp_#NandO>  (384) 
4

>  <i_qp_#acid>  (384) 
0

>  <i_qp_#amide>  (384) 
0

>  <i_qp_#amidine>  (384) 
0

>  <i_qp_#amine>  (384) 
2

>  <i_qp_#in34>  (384) 
0

>  <i_qp_#in56>  (384) 
18

>  <i_qp_#metab>  (384) 
6

>  <i_qp_#nonHatm>  (384) 
28

>  <i_qp_#noncon>  (384) 
0

>  <i_qp_#ringatoms>  (384) 
18

>  <i_qp_#rotor>  (384) 
8

>  <i_qp_#rtvFG>  (384) 
0

>  <i_qp_#stars>  (384) 
0

>  <i_qp_CNS>  (384) 
2

>  <i_qp_HumanOralAbsorption>  (384) 
3

>  <i_qp_RuleOfFive>  (384) 
0

>  <i_qp_RuleOfThree>  (384) 
0

>  <i_sd_BIOSOLVEIT.INFINISEE\_REAGENT1\_NAME>  (384) 
24792668

>  <i_sd_BIOSOLVEIT.INFINISEE\_REAGENT2\_NAME>  (384) 
20640242

>  <i_sd_BIOSOLVEIT.INFINISEE\_RESULT\_RANK>  (384) 
74772

>  <i_sd_version>  (384) 
0

>  <b_lp_Chiralities_Consistent>  (384) 
1

>  <b_sd_chiral_flag>  (384) 
0

>  <canonical_id>  (384) 
ATP-HTVS-3E51FD2FD256

>  <compound_code>  (384) 
56033

>  <title>  (384) 
m_270004bbb____24792668____20640242

>  <variant>  (384) 
56033-1

>  <source_file>  (384) 
运行/运行/ATP-VSW/ATP-VSW-DOCK_HTVS_1-001_lib/ATP-VSW-DOCK_HTVS_1-001_lib

>  <canonical_smiles>  (384) 
C[NH+](C)Cc1cc(F)ccc1C[NH2+]Cc1ccc(Oc2ccc(Br)cc2)nc1

>  <scaffold>  (384) 
c1ccc(C[NH2+]Cc2ccc(Oc3ccccc3)nc2)cc1

>  <molecular_formula>  (384) 
C22H25BrFN3O+2

$$$$
ATP-HTVS-3E71027F124F
     RDKit          3D

 57 59  0  0  0  0  0  0  0  0999 V2000
  198.0065  183.3391  159.6293 O   0  0  0  0  0  0  0  0  0  0  0  0
  196.7453  183.8929  159.7086 C   0  0  0  0  0  0  0  0  0  0  0  0
  196.6002  185.1349  160.1388 N   0  0  0  0  0  0  0  0  0  0  0  0
  195.2616  185.3259  160.1159 N   0  0  0  0  0  0  0  0  0  0  0  0
  194.5954  184.2188  159.6479 C   0  0  0  0  0  0  0  0  0  0  0  0
  195.5263  183.2695  159.3525 C   0  0  0  0  0  0  0  0  0  0  0  0
  195.3185  181.8810  158.7853 C   0  0  1  0  0  0  0  0  0  0  0  0
  195.5599  181.8361  157.3535 N   0  0  1  0  0  0  0  0  0  0  0  0
  197.0006  181.9262  156.9592 C   0  0  1  0  0  0  0  0  0  0  0  0
  197.1404  182.4997  155.5630 C   0  0  0  0  0  0  0  0  0  0  0  0
  196.8739  181.7458  154.4075 C   0  0  0  0  0  0  0  0  0  0  0  0
  197.0220  182.3280  153.1203 C   0  0  0  0  0  0  0  0  0  0  0  0
  197.4188  183.6945  152.9739 C   0  0  0  0  0  0  0  0  0  0  0  0
  197.5166  184.3403  151.7149 N   0  0  0  0  0  0  0  0  0  0  0  0
  197.0016  183.6300  150.5315 C   0  0  1  0  0  0  0  0  0  0  0  0
  196.8428  184.5051  149.2916 C   0  0  1  0  0  0  0  0  0  0  0  0
  198.1331  184.9607  148.7226 C   0  0  0  0  0  0  0  0  0  0  0  0
  199.1003  185.3047  148.2591 N   0  0  0  0  0  0  0  0  0  0  0  0
  198.0554  185.7014  151.6451 C   0  0  2  0  0  0  0  0  0  0  0  0
  197.6987  184.4204  154.1680 C   0  0  0  0  0  0  0  0  0  0  0  0
  197.5427  183.8454  155.4313 C   0  0  0  0  0  0  0  0  0  0  0  0
  194.7300  186.5836  160.5904 C   0  0  2  0  0  0  0  0  0  0  0  0
  199.1059  184.2003  159.3801 C   0  0  1  0  0  0  0  0  0  0  0  0
  200.4120  183.4273  159.3482 C   0  0  0  0  0  0  0  0  0  0  0  0
  201.2495  183.4622  160.4750 C   0  0  0  0  0  0  0  0  0  0  0  0
  202.4462  182.7256  160.5070 C   0  0  0  0  0  0  0  0  0  0  0  0
  202.8217  181.9537  159.3912 C   0  0  0  0  0  0  0  0  0  0  0  0
  201.9924  181.9216  158.2510 C   0  0  0  0  0  0  0  0  0  0  0  0
  200.7891  182.6566  158.2231 C   0  0  0  0  0  0  0  0  0  0  0  0
  195.2154  180.9312  157.0370 H   0  0  0  0  0  0  0  0  0  0  0  0
  193.5131  184.1875  159.5769 H   0  0  0  0  0  0  0  0  0  0  0  0
  195.9321  181.1274  159.2822 H   0  0  0  0  0  0  0  0  0  0  0  0
  194.2973  181.5601  158.9413 H   0  0  0  0  0  0  0  0  0  0  0  0
  197.5730  182.5633  157.6153 H   0  0  0  0  0  0  0  0  0  0  0  0
  197.4210  180.9133  156.9743 H   0  0  0  0  0  0  0  0  0  0  0  0
  196.5577  180.7184  154.5081 H   0  0  0  0  0  0  0  0  0  0  0  0
  196.8175  181.6983  152.2652 H   0  0  0  0  0  0  0  0  0  0  0  0
  197.5993  182.7391  150.2936 H   0  0  0  0  0  0  0  0  0  0  0  0
  196.0085  183.2512  150.7691 H   0  0  0  0  0  0  0  0  0  0  0  0
  196.3474  183.9698  148.4873 H   0  0  0  0  0  0  0  0  0  0  0  0
  196.2348  185.3738  149.4996 H   0  0  0  0  0  0  0  0  0  0  0  0
  199.1255  185.6612  151.8900 H   0  0  0  0  0  0  0  0  0  0  0  0
  197.5927  186.3087  152.4418 H   0  0  0  0  0  0  0  0  0  0  0  0
  197.9159  186.1871  150.6814 H   0  0  0  0  0  0  0  0  0  0  0  0
  198.0370  185.4335  154.1708 H   0  0  0  0  0  0  0  0  0  0  0  0
  197.7385  184.4492  156.2957 H   0  0  0  0  0  0  0  0  0  0  0  0
  193.6363  186.5751  160.5442 H   0  0  0  0  0  0  0  0  0  0  0  0
  195.1249  187.3891  159.9738 H   0  0  0  0  0  0  0  0  0  0  0  0
  195.0496  186.7327  161.6205 H   0  0  0  0  0  0  0  0  0  0  0  0
  198.9402  184.6900  158.4269 H   0  0  0  0  0  0  0  0  0  0  0  0
  199.2179  185.0057  160.1146 H   0  0  0  0  0  0  0  0  0  0  0  0
  200.9636  184.0534  161.3263 H   0  0  0  0  0  0  0  0  0  0  0  0
  203.0735  182.7580  161.3841 H   0  0  0  0  0  0  0  0  0  0  0  0
  203.7491  181.3936  159.4085 H   0  0  0  0  0  0  0  0  0  0  0  0
  202.2890  181.3242  157.3987 H   0  0  0  0  0  0  0  0  0  0  0  0
  200.1596  182.6125  157.3483 H   0  0  0  0  0  0  0  0  0  0  0  0
  194.9957  182.5127  156.8453 H   0  0  0  0  0  0  0  0  0  0  0  0
  1  2  1  0
  1 23  1  0
  2  3  2  0
  2  6  1  0
  3  4  1  0
  4  5  1  0
  4 22  1  0
  5  6  2  0
  5 31  1  0
  6  7  1  0
  7  8  1  0
  7 32  1  1
  7 33  1  0
  8  9  1  0
  8 30  1  6
  8 57  1  0
  9 10  1  0
  9 34  1  1
  9 35  1  0
 10 11  1  0
 10 21  2  0
 11 12  2  0
 11 36  1  0
 12 13  1  0
 12 37  1  0
 13 14  1  0
 13 20  2  0
 14 15  1  0
 14 19  1  0
 15 16  1  0
 15 38  1  6
 15 39  1  0
 16 17  1  0
 16 40  1  6
 16 41  1  0
 17 18  3  0
 19 42  1  1
 19 43  1  0
 19 44  1  0
 20 21  1  0
 20 45  1  0
 21 46  1  0
 22 47  1  1
 22 48  1  0
 22 49  1  0
 23 24  1  0
 23 50  1  6
 23 51  1  0
 24 25  2  0
 24 29  1  0
 25 26  1  0
 25 52  1  0
 26 27  2  0
 26 53  1  0
 27 28  1  0
 27 54  1  0
 28 29  2  0
 28 55  1  0
 29 56  1  0
M  CHG  1   8   1
M  END
>  <s_epik_cmdline>  (385) 
J2VwaWtfcHl0aG9uJywgJy1waCcsICc3LjAwMDAwMCcsICctcGh0JywgJzIuMDAwMDAwJywgJy1tcycsICcxNicsICctdG4nLCAnOCcsICctbWEnLCAnMjAwJywgJy1pbWFlJywgJzxpbmZpbGUubWFlPicsICctb21hZScsICc8b3V0ZmlsZS5tYWU+Jw==

>  <s_epik_input>  (385) 
W2NIXTFbY0hdW2NIXVtjSF1bY0hdYzFbQ0gyXU9jMm5uKFtDSDNdKVtjSF1jMltDSDJdW05IXVtDSDJdYzNbY0hdW2NIXWMoW2NIXVtjSF0zKU4oW0NIM10pW0NIMl1bQ0gyXUMjTg==

>  <s_i_glide_gridfile>  (385) 
ATP-Grid

>  <s_lp_Force_Field>  (385) 
OPLS_2005

>  <s_lp_Variant>  (385) 
m_270004bbb____24792678____7547234-1

>  <s_lp_label>  (385) 
2115_sdstereoexpander_1_neutralizer_1_epik_1_stereoizer_1

>  <s_m_source_file>  (385) 
ATP-VSW-LIGPREP-002-in.maegz

>  <s_sd_BIOSOLVEIT.INFINISEE\_QUERY\_NAME>  (385) 
Ref-Lig

>  <s_sd_BIOSOLVEIT.INFINISEE\_QUERY\_SMILES>  (385) 
S(c1nc2c(cc1C[NH2+]Cc3ccc(cc3)C[NH+](C)C)cccc2)Cc4ccccc4

>  <s_sd_BIOSOLVEIT.INFINISEE\_REACTION\_NAME>  (385) 
m_270004bbb

>  <s_sd_BIOSOLVEIT.INFINISEE\_REAGENT1\_SMILES>  (385) 
[R1*]NCC=1C(OCc2ccccc2)=NN(C1)C

>  <s_sd_BIOSOLVEIT.INFINISEE\_REAGENT2\_SMILES>  (385) 
[R1*]Cc1ccc(N(CCC#N)C)cc1

>  <s_sd_BIOSOLVEIT.INFINISEE\_SPACE>  (385) 
REALSpace_44bn_2023-08

>  <s_vsw_compound_code>  (385) 
67650

>  <s_vsw_variant>  (385) 
67650-1

>  <r_epik_Charging_Adjusted_Penalty>  (385) 
0.17915153544208701

>  <r_epik_Ionization_Penalty>  (385) 
0.0843

>  <r_epik_Ionization_Penalty_Charging>  (385) 
0.083900000000000002

>  <r_epik_Ionization_Penalty_Neutral>  (385) 
0.00040000000000000002

>  <r_epik_State_Penalty>  (385) 
0.095299999999999996

>  <r_i_docking_score>  (385) 
-6.04277285789881

>  <r_i_glide_ecoul>  (385) 
-10.575646400451699

>  <r_i_glide_eff_state_penalty>  (385) 
0.095299999999999996

>  <r_i_glide_einternal>  (385) 
8.4638328552246094

>  <r_i_glide_emodel>  (385) 
-69.304390760695497

>  <r_i_glide_energy>  (385) 
-48.023030281066902

>  <r_i_glide_erotb>  (385) 
1.1511870808329501

>  <r_i_glide_esite>  (385) 
-0.10000000000000001

>  <r_i_glide_evdw>  (385) 
-37.447383880615199

>  <r_i_glide_gscore>  (385) 
-6.13807285789881

>  <r_i_glide_hbond>  (385) 
-0.30612948147359997

>  <r_i_glide_ligand_efficiency>  (385) 
-0.20837147785858001

>  <r_i_glide_ligand_efficiency_ln>  (385) 
-1.38364175296033

>  <r_i_glide_ligand_efficiency_sa>  (385) 
-0.64018319669937795

>  <r_i_glide_lipo>  (385) 
-1.8369099745997399

>  <r_i_glide_metal>  (385) 
-0

>  <r_i_glide_rewards>  (385) 
-1.58750432855991

>  <r_lp_Energy>  (385) 
15.865015

>  <r_lp_tautomer_probability>  (385) 
1

>  <r_qp_ACxDN^.5/SA>  (385) 
0.0067984999999999999

>  <r_qp_CIQPlogS>  (385) 
-5.9050000000000002

>  <r_qp_EA(eV)>  (385) 
-0.28899999999999998

>  <r_qp_FISA>  (385) 
95.391000000000005

>  <r_qp_FOSA>  (385) 
335.10899999999998

>  <r_qp_IP(eV)>  (385) 
8.2759999999999998

>  <r_qp_Jm>  (385) 
5.06059616604556e-05

>  <r_qp_PISA>  (385) 
378.49700000000001

>  <r_qp_PSA>  (385) 
65.483999999999995

>  <r_qp_PercentHumanOralAbsorption>  (385) 
100

>  <r_qp_QPPCaco>  (385) 
307.755

>  <r_qp_QPPMDCK>  (385) 
153.12299999999999

>  <r_qp_QPlogBB>  (385) 
-0.84099999999999997

>  <r_qp_QPlogHERG>  (385) 
-8.157

>  <r_qp_QPlogKhsa>  (385) 
0.84499999999999997

>  <r_qp_QPlogKp>  (385) 
-2.9510000000000001

>  <r_qp_QPlogPC16>  (385) 
15.103

>  <r_qp_QPlogPo/w>  (385) 
4.9880000000000004

>  <r_qp_QPlogPoct>  (385) 
19.399999999999999

>  <r_qp_QPlogPw>  (385) 
9.3450000000000006

>  <r_qp_QPlogS>  (385) 
-6.9359999999999999

>  <r_qp_QPpolrz>  (385) 
46.301000000000002

>  <r_qp_SASA>  (385) 
808.99800000000005

>  <r_qp_SAamideO>  (385) 
0

>  <r_qp_SAfluorine>  (385) 
0

>  <r_qp_WPSA>  (385) 
0

>  <r_qp_accptHB>  (385) 
5.5

>  <r_qp_dip^2/V>  (385) 
0.0044539999999999996

>  <r_qp_dipole>  (385) 
2.4940000000000002

>  <r_qp_donorHB>  (385) 
1

>  <r_qp_glob>  (385) 
0.74700809999999995

>  <r_qp_mol_MW>  (385) 
389.49900000000002

>  <r_qp_volume>  (385) 
1396.8869999999999

>  <r_sd_BIOSOLVEIT.INFINISEE\_FTREES\_SIMILARITY>  (385) 
0.90100000000000002

>  <r_sd_BIOSOLVEIT.LOGP>  (385) 
2.6125799999999999

>  <r_sd_BIOSOLVEIT.MOLECULAR\_WEIGHT>  (385) 
390.50799999999998

>  <r_sd_BIOSOLVEIT.TPSA>  (385) 
70.689999999999998

>  <i_epik_Tot_Q>  (385) 
1

>  <i_epik_Tot_abs_Q>  (385) 
1

>  <i_f3d_flags>  (385) 
0

>  <i_i_glide_confnum>  (385) 
9

>  <i_i_glide_lignum>  (385) 
759

>  <i_i_glide_posenum>  (385) 
13

>  <i_i_glide_rotatable_bonds>  (385) 
10

>  <i_lp_mmshare_version>  (385) 
65135

>  <i_m_ct_format>  (385) 
2

>  <i_m_source_file_index>  (385) 
2115

>  <i_qp_#NandO>  (385) 
6

>  <i_qp_#acid>  (385) 
0

>  <i_qp_#amide>  (385) 
0

>  <i_qp_#amidine>  (385) 
0

>  <i_qp_#amine>  (385) 
1

>  <i_qp_#in34>  (385) 
0

>  <i_qp_#in56>  (385) 
17

>  <i_qp_#metab>  (385) 
7

>  <i_qp_#nonHatm>  (385) 
29

>  <i_qp_#noncon>  (385) 
0

>  <i_qp_#ringatoms>  (385) 
17

>  <i_qp_#rotor>  (385) 
11

>  <i_qp_#rtvFG>  (385) 
0

>  <i_qp_#stars>  (385) 
2

>  <i_qp_CNS>  (385) 
0

>  <i_qp_HumanOralAbsorption>  (385) 
1

>  <i_qp_RuleOfFive>  (385) 
0

>  <i_qp_RuleOfThree>  (385) 
2

>  <i_sd_BIOSOLVEIT.INFINISEE\_REAGENT1\_NAME>  (385) 
24792678

>  <i_sd_BIOSOLVEIT.INFINISEE\_REAGENT2\_NAME>  (385) 
7547234

>  <i_sd_BIOSOLVEIT.INFINISEE\_RESULT\_RANK>  (385) 
98210

>  <i_sd_version>  (385) 
0

>  <b_lp_Chiralities_Consistent>  (385) 
1

>  <b_sd_chiral_flag>  (385) 
0

>  <canonical_id>  (385) 
ATP-HTVS-3E71027F124F

>  <compound_code>  (385) 
67650

>  <title>  (385) 
m_270004bbb____24792678____7547234

>  <variant>  (385) 
67650-1

>  <source_file>  (385) 
运行/运行/ATP-VSW/ATP-VSW-DOCK_HTVS_1-002_lib.maegz

>  <canonical_smiles>  (385) 
CN(CCC#N)c1ccc(C[NH2+]Cc2cn(C)nc2OCc2ccccc2)cc1

>  <scaffold>  (385) 
c1ccc(C[NH2+]Cc2c[nH]nc2OCc2ccccc2)cc1

>  <molecular_formula>  (385) 
C23H28N5O+

$$$$
ATP-HTVS-3E71DFC624D6
     RDKit          3D

 68 72  0  0  0  0  0  0  0  0999 V2000
  199.7272  180.9703  155.7443 O   0  0  0  0  0  0  0  0  0  0  0  0
  198.7846  180.2193  155.9622 C   0  0  0  0  0  0  0  0  0  0  0  0
  197.6507  180.6360  156.5382 N   0  0  0  0  0  0  0  0  0  0  0  0
  197.4086  181.9640  156.9941 C   0  0  0  0  0  0  0  0  0  0  0  0
  197.4908  183.1214  156.1579 C   0  0  0  0  0  0  0  0  0  0  0  0
  197.8617  182.9846  154.8230 N   0  0  0  0  0  0  0  0  0  0  0  0
  196.7275  182.9767  153.9160 C   0  0  1  0  0  0  0  0  0  0  0  0
  197.0967  182.5964  152.5069 C   0  0  0  0  0  0  0  0  0  0  0  0
  196.7238  183.4499  151.4534 C   0  0  0  0  0  0  0  0  0  0  0  0
  197.0575  183.1331  150.1228 C   0  0  0  0  0  0  0  0  0  0  0  0
  197.7426  181.9249  149.8484 C   0  0  0  0  0  0  0  0  0  0  0  0
  198.1178  181.0703  150.9037 C   0  0  0  0  0  0  0  0  0  0  0  0
  197.7904  181.4032  152.2304 C   0  0  0  0  0  0  0  0  0  0  0  0
  196.7043  184.1005  149.0004 C   0  0  1  0  0  0  0  0  0  0  0  0
  197.7880  185.0637  148.6744 N   0  0  2  0  0  0  0  0  0  0  0  0
  198.9715  184.4370  148.0392 C   0  0  2  0  0  0  0  0  0  0  0  0
  198.1528  185.9494  149.8039 C   0  0  2  0  0  0  0  0  0  0  0  0
  197.1710  184.3834  156.7199 C   0  0  0  0  0  0  0  0  0  0  0  0
  196.7540  184.4662  158.0791 C   0  0  0  0  0  0  0  0  0  0  0  0
  196.6909  183.3331  158.8151 N   0  0  0  0  0  0  0  0  0  0  0  0
  196.9760  182.1127  158.3158 C   0  0  0  0  0  0  0  0  0  0  0  0
  196.4040  185.7179  158.6308 C   0  0  0  0  0  0  0  0  0  0  0  0
  196.4686  186.8777  157.8340 C   0  0  0  0  0  0  0  0  0  0  0  0
  196.8937  186.7941  156.4938 C   0  0  0  0  0  0  0  0  0  0  0  0
  197.2600  185.5567  155.9459 C   0  0  0  0  0  0  0  0  0  0  0  0
  198.8742  178.7291  155.6041 C   0  0  1  0  0  0  0  0  0  0  0  0
  199.9599  178.3553  154.5504 C   0  0  1  0  0  0  0  0  0  0  0  0
  200.6171  177.0083  154.8094 C   0  0  0  0  0  0  0  0  0  0  0  0
  200.7156  176.0514  153.7684 C   0  0  0  0  0  0  0  0  0  0  0  0
  201.3389  174.8285  154.0635 C   0  0  0  0  0  0  0  0  0  0  0  0
  201.5163  173.7481  153.2611 O   0  0  0  0  0  0  0  0  0  0  0  0
  202.1929  172.7955  154.0440 C   0  0  1  0  0  0  0  0  0  0  0  0
  202.4083  173.3217  155.3276 O   0  0  0  0  0  0  0  0  0  0  0  0
  201.8689  174.5641  155.3086 C   0  0  0  0  0  0  0  0  0  0  0  0
  201.8100  175.4975  156.3510 C   0  0  0  0  0  0  0  0  0  0  0  0
  201.1915  176.7378  156.0777 C   0  0  0  0  0  0  0  0  0  0  0  0
  197.0126  179.9116  156.9135 H   0  0  0  0  0  0  0  0  0  0  0  0
  198.4187  182.1511  154.7474 H   0  0  0  0  0  0  0  0  0  0  0  0
  195.9548  182.2928  154.2698 H   0  0  0  0  0  0  0  0  0  0  0  0
  196.2870  183.9717  153.8931 H   0  0  0  0  0  0  0  0  0  0  0  0
  196.2126  184.3722  151.6798 H   0  0  0  0  0  0  0  0  0  0  0  0
  198.0134  181.6644  148.8359 H   0  0  0  0  0  0  0  0  0  0  0  0
  198.6651  180.1616  150.6925 H   0  0  0  0  0  0  0  0  0  0  0  0
  198.0832  180.7444  153.0354 H   0  0  0  0  0  0  0  0  0  0  0  0
  196.4510  183.5291  148.1096 H   0  0  0  0  0  0  0  0  0  0  0  0
  195.8044  184.6675  149.2615 H   0  0  0  0  0  0  0  0  0  0  0  0
  199.4857  183.7655  148.7243 H   0  0  0  0  0  0  0  0  0  0  0  0
  199.6961  185.1915  147.7330 H   0  0  0  0  0  0  0  0  0  0  0  0
  198.6804  183.8701  147.1545 H   0  0  0  0  0  0  0  0  0  0  0  0
  198.5691  185.3938  150.6438 H   0  0  0  0  0  0  0  0  0  0  0  0
  197.2782  186.5024  150.1533 H   0  0  0  0  0  0  0  0  0  0  0  0
  198.9177  186.6646  149.5033 H   0  0  0  0  0  0  0  0  0  0  0  0
  196.8902  181.2785  159.0073 H   0  0  0  0  0  0  0  0  0  0  0  0
  196.0819  185.8024  159.6547 H   0  0  0  0  0  0  0  0  0  0  0  0
  196.1928  187.8380  158.2465 H   0  0  0  0  0  0  0  0  0  0  0  0
  196.9401  187.6664  155.8647 H   0  0  0  0  0  0  0  0  0  0  0  0
  197.5791  185.5162  154.9188 H   0  0  0  0  0  0  0  0  0  0  0  0
  199.0630  178.2711  156.5642 H   0  0  0  0  0  0  0  0  0  0  0  0
  197.8986  178.3407  155.3031 H   0  0  0  0  0  0  0  0  0  0  0  0
  199.4801  178.3533  153.5705 H   0  0  0  0  0  0  0  0  0  0  0  0
  200.7939  179.0523  154.4553 H   0  0  0  0  0  0  0  0  0  0  0  0
  200.3039  176.2345  152.7865 H   0  0  0  0  0  0  0  0  0  0  0  0
  201.6014  171.8799  154.1129 H   0  0  0  0  0  0  0  0  0  0  0  0
  203.1568  172.5750  153.5850 H   0  0  0  0  0  0  0  0  0  0  0  0
  202.2205  175.2835  157.3247 H   0  0  0  0  0  0  0  0  0  0  0  0
  201.1741  177.4709  156.8688 H   0  0  0  0  0  0  0  0  0  0  0  0
  196.3933  183.4040  159.7868 H   0  0  0  0  0  0  0  0  0  0  0  0
  197.3797  185.6616  147.9686 H   0  0  0  0  0  0  0  0  0  0  0  0
  1  2  2  0
  2  3  1  0
  2 26  1  0
  3  4  1  0
  3 37  1  0
  4  5  2  0
  4 21  1  0
  5  6  1  0
  5 18  1  0
  6  7  1  0
  6 38  1  0
  7  8  1  0
  7 39  1  1
  7 40  1  0
  8  9  2  0
  8 13  1  0
  9 10  1  0
  9 41  1  0
 10 11  2  0
 10 14  1  0
 11 12  1  0
 11 42  1  0
 12 13  2  0
 12 43  1  0
 13 44  1  0
 14 15  1  0
 14 45  1  6
 14 46  1  0
 15 16  1  0
 15 17  1  0
 15 68  1  6
 16 47  1  1
 16 48  1  0
 16 49  1  0
 17 50  1  1
 17 51  1  0
 17 52  1  0
 18 19  1  0
 18 25  2  0
 19 20  1  0
 19 22  2  0
 20 21  2  0
 20 67  1  0
 21 53  1  0
 22 23  1  0
 22 54  1  0
 23 24  2  0
 23 55  1  0
 24 25  1  0
 24 56  1  0
 25 57  1  0
 26 27  1  0
 26 58  1  1
 26 59  1  0
 27 28  1  0
 27 60  1  6
 27 61  1  0
 28 29  2  0
 28 36  1  0
 29 30  1  0
 29 62  1  0
 30 31  1  0
 30 34  2  0
 31 32  1  0
 32 33  1  0
 32 63  1  1
 32 64  1  0
 33 34  1  0
 34 35  1  0
 35 36  2  0
 35 65  1  0
 36 66  1  0
M  CHG  2  15   1  20   1
M  END
>  <s_epik_Chemistry_Notes>  (386) 
This compound contains an acetal/aminal-like group ( X-CH(R)-Y where X, Y are N, S, or O) that may be acid/base labile, releasing an aldehyde.

>  <s_epik_cmdline>  (386) 
J2VwaWtfcHl0aG9uJywgJy1waCcsICc3LjAwMDAwMCcsICctcGh0JywgJzIuMDAwMDAwJywgJy1tcycsICcxNicsICctdG4nLCAnOCcsICctbWEnLCAnMjAwJywgJy1pbWFlJywgJzxpbmZpbGUubWFlPicsICctb21hZScsICc8b3V0ZmlsZS5tYWU+Jw==

>  <s_epik_input>  (386) 
TzFbQ0gyXU9jKGMxMilbY0hdW2NIXWMoW2NIXTIpW0NIMl1bQ0gyXUMoPU8pW05IXWMoW2NIXW5jKGMzNClbY0hdW2NIXVtjSF1bY0hdNCljM1tOSF1bQ0gyXWM1W2NIXWMoW2NIXVtjSF1bY0hdNSlbQ0gyXU4oW0NIM10pW0NIM10=

>  <s_i_glide_gridfile>  (386) 
ATP-Grid

>  <s_lp_Force_Field>  (386) 
OPLS_2005

>  <s_lp_Variant>  (386) 
rxn502b____EMOL527362____EMOL30488121____EMOL2873214-1

>  <s_lp_label>  (386) 
2578_sdstereoexpander_1_neutralizer_1_epik_1_stereoizer_1

>  <s_m_source_file>  (386) 
ATP-VSW-LIGPREP-001-in.maegz

>  <s_sd_BIOSOLVEIT.INFINISEE\_QUERY\_NAME>  (386) 
Ref-Lig

>  <s_sd_BIOSOLVEIT.INFINISEE\_QUERY\_SMILES>  (386) 
S(c1nc2c(cc1C[NH2+]Cc3ccc(cc3)C[NH+](C)C)cccc2)Cc4ccccc4

>  <s_sd_BIOSOLVEIT.INFINISEE\_REACTION\_NAME>  (386) 
rxn502b

>  <s_sd_BIOSOLVEIT.INFINISEE\_REAGENT1\_NAME>  (386) 
EMOL527362

>  <s_sd_BIOSOLVEIT.INFINISEE\_REAGENT1\_SMILES>  (386) 
O=C(O)CCc1cc2OCOc2cc1

>  <s_sd_BIOSOLVEIT.INFINISEE\_REAGENT2\_NAME>  (386) 
EMOL30488121

>  <s_sd_BIOSOLVEIT.INFINISEE\_REAGENT2\_SMILES>  (386) 
Brc1c(N)cnc2c1cccc2

>  <s_sd_BIOSOLVEIT.INFINISEE\_REAGENT3\_NAME>  (386) 
EMOL2873214

>  <s_sd_BIOSOLVEIT.INFINISEE\_REAGENT3\_SMILES>  (386) 
N(Cc1cc(ccc1)CN)(C)C

>  <s_sd_BIOSOLVEIT.INFINISEE\_SPACE>  (386) 
eXplore_7tr_2022-12

>  <s_vsw_compound_code>  (386) 
82465

>  <s_vsw_variant>  (386) 
82465-1

>  <r_epik_Charging_Adjusted_Penalty>  (386) 
0.136021231855606

>  <r_epik_Ionization_Penalty>  (386) 
0.068000000000000005

>  <r_epik_Ionization_Penalty_Charging>  (386) 
0.068000000000000005

>  <r_epik_Ionization_Penalty_Neutral>  (386) 
0

>  <r_epik_State_Penalty>  (386) 
0.068000000000000005

>  <r_i_docking_score>  (386) 
-5.6909371349362701

>  <r_i_glide_ecoul>  (386) 
-12.103090286254901

>  <r_i_glide_eff_state_penalty>  (386) 
0.068000000000000005

>  <r_i_glide_einternal>  (386) 
9.3676071166992205

>  <r_i_glide_emodel>  (386) 
-70.810713281867805

>  <r_i_glide_energy>  (386) 
-50.181444168090799

>  <r_i_glide_erotb>  (386) 
0.69188076633612405

>  <r_i_glide_esite>  (386) 
-0.26446107167720401

>  <r_i_glide_evdw>  (386) 
-38.078353881835902

>  <r_i_glide_gscore>  (386) 
-5.7589371349362697

>  <r_i_glide_hbond>  (386) 
-0.16

>  <r_i_glide_ligand_efficiency>  (386) 
-0.158081587081563

>  <r_i_glide_ligand_efficiency_ln>  (386) 
-1.2416087314898701

>  <r_i_glide_ligand_efficiency_sa>  (386) 
-0.52197389930962101

>  <r_i_glide_lipo>  (386) 
-1.9769031834742501

>  <r_i_glide_metal>  (386) 
-0

>  <r_i_glide_rewards>  (386) 
-0.33007240909090801

>  <r_lp_Energy>  (386) 
48.500070999999998

>  <r_lp_tautomer_probability>  (386) 
1

>  <r_qp_ACxDN^.5/SA>  (386) 
0.013412500000000001

>  <r_qp_CIQPlogS>  (386) 
-6.1589999999999998

>  <r_qp_EA(eV)>  (386) 
1.036

>  <r_qp_FISA>  (386) 
75.363

>  <r_qp_FOSA>  (386) 
330.755

>  <r_qp_IP(eV)>  (386) 
8.609

>  <r_qp_Jm>  (386) 
0.0017846765400105101

>  <r_qp_PISA>  (386) 
437.39999999999998

>  <r_qp_PSA>  (386) 
81.400999999999996

>  <r_qp_PercentHumanOralAbsorption>  (386) 
100

>  <r_qp_QPPCaco>  (386) 
476.57400000000001

>  <r_qp_QPPMDCK>  (386) 
245.655

>  <r_qp_QPlogBB>  (386) 
-0.439

>  <r_qp_QPlogHERG>  (386) 
-8.1500000000000004

>  <r_qp_QPlogKhsa>  (386) 
0.78100000000000003

>  <r_qp_QPlogKp>  (386) 
-2.5659999999999998

>  <r_qp_QPlogPC16>  (386) 
16.838000000000001

>  <r_qp_QPlogPo/w>  (386) 
4.9100000000000001

>  <r_qp_QPlogPoct>  (386) 
25.457000000000001

>  <r_qp_QPlogPw>  (386) 
14.061

>  <r_qp_QPlogS>  (386) 
-5.8659999999999997

>  <r_qp_QPpolrz>  (386) 
53.904000000000003

>  <r_qp_SASA>  (386) 
843.51800000000003

>  <r_qp_SAamideO>  (386) 
0

>  <r_qp_SAfluorine>  (386) 
0

>  <r_qp_WPSA>  (386) 
0

>  <r_qp_accptHB>  (386) 
8

>  <r_qp_dip^2/V>  (386) 
0.032892499999999998

>  <r_qp_dipole>  (386) 
7.1189999999999998

>  <r_qp_donorHB>  (386) 
2

>  <r_qp_glob>  (386) 
0.76480939999999997

>  <r_qp_mol_MW>  (386) 
482.58100000000002

>  <r_qp_volume>  (386) 
1540.721

>  <r_sd_BIOSOLVEIT.INFINISEE\_FTREES\_SIMILARITY>  (386) 
0.91200000000000003

>  <r_sd_BIOSOLVEIT.LOGP>  (386) 
3.7913999999999999

>  <r_sd_BIOSOLVEIT.MOLECULAR\_WEIGHT>  (386) 
483.589

>  <r_sd_BIOSOLVEIT.TPSA>  (386) 
76.920000000000002

>  <i_epik_Tot_Q>  (386) 
2

>  <i_epik_Tot_abs_Q>  (386) 
2

>  <i_f3d_flags>  (386) 
0

>  <i_i_glide_confnum>  (386) 
5

>  <i_i_glide_lignum>  (386) 
1045

>  <i_i_glide_posenum>  (386) 
10

>  <i_i_glide_rotatable_bonds>  (386) 
10

>  <i_lp_mmshare_version>  (386) 
65135

>  <i_m_ct_format>  (386) 
2

>  <i_m_source_file_index>  (386) 
2578

>  <i_qp_#NandO>  (386) 
7

>  <i_qp_#acid>  (386) 
0

>  <i_qp_#amide>  (386) 
0

>  <i_qp_#amidine>  (386) 
0

>  <i_qp_#amine>  (386) 
1

>  <i_qp_#in34>  (386) 
0

>  <i_qp_#in56>  (386) 
25

>  <i_qp_#metab>  (386) 
8

>  <i_qp_#nonHatm>  (386) 
36

>  <i_qp_#noncon>  (386) 
1

>  <i_qp_#ringatoms>  (386) 
25

>  <i_qp_#rotor>  (386) 
9

>  <i_qp_#rtvFG>  (386) 
1

>  <i_qp_#stars>  (386) 
0

>  <i_qp_CNS>  (386) 
1

>  <i_qp_HumanOralAbsorption>  (386) 
3

>  <i_qp_RuleOfFive>  (386) 
0

>  <i_qp_RuleOfThree>  (386) 
2

>  <i_sd_BIOSOLVEIT.INFINISEE\_RESULT\_RANK>  (386) 
38816

>  <i_sd_version>  (386) 
0

>  <b_lp_Chiralities_Consistent>  (386) 
1

>  <b_sd_chiral_flag>  (386) 
0

>  <canonical_id>  (386) 
ATP-HTVS-3E71DFC624D6

>  <compound_code>  (386) 
82465

>  <title>  (386) 
rxn502b____EMOL527362____EMOL30488121____EMOL2873214

>  <variant>  (386) 
82465-1

>  <source_file>  (386) 
运行/运行/ATP-VSW/ATP-VSW-DOCK_HTVS_1-001_lib/ATP-VSW-DOCK_HTVS_1-001_lib

>  <canonical_smiles>  (386) 
C[NH+](C)Cc1cccc(CNc2c(NC(=O)CCc3ccc4c(c3)OCO4)c[nH+]c3ccccc23)c1

>  <scaffold>  (386) 
O=C(CCc1ccc2c(c1)OCO2)Nc1c[nH+]c2ccccc2c1NCc1ccccc1

>  <molecular_formula>  (386) 
C29H32N4O3+2

$$$$
ATP-HTVS-3EAEA7611BE9
     RDKit          3D

 53 56  0  0  0  0  0  0  0  0999 V2000
  200.7329  177.4190  158.5484 N   0  0  0  0  0  0  0  0  0  0  0  0
  200.6200  177.4513  157.4095 C   0  0  0  0  0  0  0  0  0  0  0  0
  200.4515  177.5175  155.9577 C   0  0  0  0  0  0  0  0  0  0  0  0
  200.9592  176.5406  155.0747 C   0  0  0  0  0  0  0  0  0  0  0  0
  200.7247  176.6840  153.6825 C   0  0  0  0  0  0  0  0  0  0  0  0
  199.9672  177.7658  153.1902 C   0  0  0  0  0  0  0  0  0  0  0  0
  199.4427  178.7343  154.0819 C   0  0  0  0  0  0  0  0  0  0  0  0
  199.7487  178.6113  155.4645 C   0  0  0  0  0  0  0  0  0  0  0  0
  198.5932  179.8908  153.5446 C   0  0  1  0  0  0  0  0  0  0  0  0
  197.2393  180.1155  154.2557 C   0  0  1  0  0  0  0  0  0  0  0  0
  197.4650  180.3586  155.6729 N   0  0  0  0  0  0  0  0  0  0  0  0
  196.5903  181.3488  156.2334 C   0  0  1  0  0  0  0  0  0  0  0  0
  197.1647  182.7471  156.0946 C   0  0  0  0  0  0  0  0  0  0  0  0
  197.4436  183.2656  154.8837 N   0  0  0  0  0  0  0  0  0  0  0  0
  197.9101  184.5337  155.1697 C   0  0  0  0  0  0  0  0  0  0  0  0
  197.9621  184.7625  156.5986 C   0  0  0  0  0  0  0  0  0  0  0  0
  197.4736  183.5623  157.1469 N   0  0  0  0  0  0  0  0  0  0  0  0
  197.3588  183.2650  158.5962 C   0  0  1  0  0  0  0  0  0  0  0  0
  196.4980  184.2745  159.3421 C   0  0  0  0  0  0  0  0  0  0  0  0
  197.0917  185.4155  159.9109 C   0  0  0  0  0  0  0  0  0  0  0  0
  196.2966  186.4354  160.4560 C   0  0  0  0  0  0  0  0  0  0  0  0
  194.9113  186.2430  160.5914 C   0  0  0  0  0  0  0  0  0  0  0  0
  194.3237  185.0339  160.1530 C   0  0  0  0  0  0  0  0  0  0  0  0
  195.1041  184.0733  159.4711 C   0  0  0  0  0  0  0  0  0  0  0  0
  198.4295  185.9868  157.1089 C   0  0  0  0  0  0  0  0  0  0  0  0
  198.7920  187.0165  156.2356 C   0  0  0  0  0  0  0  0  0  0  0  0
  198.7491  186.8283  154.8287 C   0  0  0  0  0  0  0  0  0  0  0  0
  198.3201  185.5857  154.3027 C   0  0  0  0  0  0  0  0  0  0  0  0
  201.7843  175.3915  155.6036 C   0  0  2  0  0  0  0  0  0  0  0  0
  197.3718  179.4998  156.2364 H   0  0  0  0  0  0  0  0  0  0  0  0
  201.1331  175.9579  152.9921 H   0  0  0  0  0  0  0  0  0  0  0  0
  199.7853  177.8505  152.1213 H   0  0  0  0  0  0  0  0  0  0  0  0
  199.4469  179.3477  156.1959 H   0  0  0  0  0  0  0  0  0  0  0  0
  199.1914  180.8042  153.5716 H   0  0  0  0  0  0  0  0  0  0  0  0
  198.3762  179.7229  152.4885 H   0  0  0  0  0  0  0  0  0  0  0  0
  196.7179  180.9636  153.7799 H   0  0  0  0  0  0  0  0  0  0  0  0
  196.5865  179.2465  154.1389 H   0  0  0  0  0  0  0  0  0  0  0  0
  195.5676  181.3444  155.8161 H   0  0  0  0  0  0  0  0  0  0  0  0
  196.5078  181.0714  157.2874 H   0  0  0  0  0  0  0  0  0  0  0  0
  196.9150  182.2904  158.7859 H   0  0  0  0  0  0  0  0  0  0  0  0
  198.3628  183.2208  159.0265 H   0  0  0  0  0  0  0  0  0  0  0  0
  198.1685  185.5238  159.9097 H   0  0  0  0  0  0  0  0  0  0  0  0
  196.7580  187.3515  160.7843 H   0  0  0  0  0  0  0  0  0  0  0  0
  194.3060  186.9996  161.0798 H   0  0  0  0  0  0  0  0  0  0  0  0
  193.2601  184.8754  160.2679 H   0  0  0  0  0  0  0  0  0  0  0  0
  194.6422  183.1647  159.0900 H   0  0  0  0  0  0  0  0  0  0  0  0
  198.5271  186.2019  158.1618 H   0  0  0  0  0  0  0  0  0  0  0  0
  199.1098  187.9492  156.6603 H   0  0  0  0  0  0  0  0  0  0  0  0
  199.0575  187.6496  154.1806 H   0  0  0  0  0  0  0  0  0  0  0  0
  198.2896  185.4427  153.2179 H   0  0  0  0  0  0  0  0  0  0  0  0
  202.1521  174.7833  154.7791 H   0  0  0  0  0  0  0  0  0  0  0  0
  201.1685  174.7820  156.2684 H   0  0  0  0  0  0  0  0  0  0  0  0
  202.6344  175.7866  156.1689 H   0  0  0  0  0  0  0  0  0  0  0  0
  1  2  3  0
  2  3  1  0
  3  4  2  0
  3  8  1  0
  4  5  1  0
  4 29  1  0
  5  6  2  0
  5 31  1  0
  6  7  1  0
  6 32  1  0
  7  8  2  0
  7  9  1  0
  8 33  1  0
  9 10  1  0
  9 34  1  6
  9 35  1  0
 10 11  1  0
 10 36  1  6
 10 37  1  0
 11 12  1  0
 11 30  1  0
 12 13  1  0
 12 38  1  6
 12 39  1  0
 13 14  2  0
 13 17  1  0
 14 15  1  0
 15 16  1  0
 15 28  2  0
 16 17  1  0
 16 25  2  0
 17 18  1  0
 18 19  1  0
 18 40  1  6
 18 41  1  0
 19 20  2  0
 19 24  1  0
 20 21  1  0
 20 42  1  0
 21 22  2  0
 21 43  1  0
 22 23  1  0
 22 44  1  0
 23 24  2  0
 23 45  1  0
 24 46  1  0
 25 26  1  0
 25 47  1  0
 26 27  2  0
 26 48  1  0
 27 28  1  0
 27 49  1  0
 28 50  1  0
 29 51  1  6
 29 52  1  0
 29 53  1  0
M  END
>  <s_epik_cmdline>  (387) 
J2VwaWtfcHl0aG9uJywgJy1waCcsICc3LjAwMDAwMCcsICctcGh0JywgJzIuMDAwMDAwJywgJy1tcycsICcxNicsICctdG4nLCAnOCcsICctbWEnLCAnMjAwJywgJy1pbWFlJywgJzxpbmZpbGUubWFlPicsICctb21hZScsICc8b3V0ZmlsZS5tYWU+Jw==

>  <s_epik_input>  (387) 
TiNDYzFjKFtDSDNdKVtjSF1bY0hdYyhbY0hdMSlbQ0gyXVtDSDJdW05IXVtDSDJdYyhuMiluKGMoYzIzKVtjSF1bY0hdW2NIXVtjSF0zKVtDSDJdYzRbY0hdW2NIXVtjSF1bY0hdW2NIXTQ=

>  <s_i_glide_gridfile>  (387) 
ATP-Grid

>  <s_lp_Force_Field>  (387) 
OPLS_2005

>  <s_lp_Variant>  (387) 
m_270004bbb____16497484____24720860-2

>  <s_lp_label>  (387) 
1649_sdstereoexpander_1_neutralizer_1_epik_2_stereoizer_1

>  <s_m_source_file>  (387) 
ATP-VSW-LIGPREP-002-in.maegz

>  <s_sd_BIOSOLVEIT.INFINISEE\_QUERY\_NAME>  (387) 
Ref-Lig

>  <s_sd_BIOSOLVEIT.INFINISEE\_QUERY\_SMILES>  (387) 
S(c1nc2c(cc1C[NH2+]Cc3ccc(cc3)C[NH+](C)C)cccc2)Cc4ccccc4

>  <s_sd_BIOSOLVEIT.INFINISEE\_REACTION\_NAME>  (387) 
m_270004bbb

>  <s_sd_BIOSOLVEIT.INFINISEE\_REAGENT1\_SMILES>  (387) 
[R1*]NCCc1cc(C#N)c(cc1)C

>  <s_sd_BIOSOLVEIT.INFINISEE\_REAGENT2\_SMILES>  (387) 
[R1*]CC1=Nc2c(N1Cc3ccccc3)cccc2

>  <s_sd_BIOSOLVEIT.INFINISEE\_SPACE>  (387) 
REALSpace_44bn_2023-08

>  <s_vsw_compound_code>  (387) 
52738

>  <s_vsw_variant>  (387) 
52738-2

>  <r_epik_Charging_Adjusted_Penalty>  (387) 
1.45831763572622

>  <r_epik_Ionization_Penalty>  (387) 
1.5609

>  <r_epik_Ionization_Penalty_Charging>  (387) 
0

>  <r_epik_Ionization_Penalty_Neutral>  (387) 
1.5609

>  <r_epik_State_Penalty>  (387) 
1.4582999999999999

>  <r_i_docking_score>  (387) 
-2.4851684840836099

>  <r_i_glide_ecoul>  (387) 
-3.54641938209534

>  <r_i_glide_eff_state_penalty>  (387) 
1.4582999999999999

>  <r_i_glide_einternal>  (387) 
7.0779476165771502

>  <r_i_glide_emodel>  (387) 
-46.214893652091298

>  <r_i_glide_energy>  (387) 
-39.397608041763299

>  <r_i_glide_erotb>  (387) 
0.93809546486933104

>  <r_i_glide_esite>  (387) 
-0.055196012070218597

>  <r_i_glide_evdw>  (387) 
-35.851188659667997

>  <r_i_glide_gscore>  (387) 
-3.9434684840836098

>  <r_i_glide_hbond>  (387) 
-0.022416208241152299

>  <r_i_glide_ligand_efficiency>  (387) 
-0.085695464968400303

>  <r_i_glide_ligand_efficiency_ln>  (387) 
-0.56904056441976902

>  <r_i_glide_ligand_efficiency_sa>  (387) 
-0.26328361861187

>  <r_i_glide_lipo>  (387) 
-1.66455343379842

>  <r_i_glide_metal>  (387) 
-0

>  <r_i_glide_rewards>  (387) 
-0.81487595454545303

>  <r_lp_Energy>  (387) 
20.145903000000001

>  <r_qp_ACxDN^.5/SA>  (387) 
0.0060273999999999996

>  <r_qp_CIQPlogS>  (387) 
-6.3609999999999998

>  <r_qp_EA(eV)>  (387) 
0.55600000000000005

>  <r_qp_FISA>  (387) 
98.664000000000001

>  <r_qp_FOSA>  (387) 
195.48699999999999

>  <r_qp_IP(eV)>  (387) 
8.6289999999999996

>  <r_qp_Jm>  (387) 
7.1422846901681496e-05

>  <r_qp_PISA>  (387) 
452.44099999999997

>  <r_qp_PSA>  (387) 
53.975999999999999

>  <r_qp_PercentHumanOralAbsorption>  (387) 
100

>  <r_qp_QPPCaco>  (387) 
286.52699999999999

>  <r_qp_QPPMDCK>  (387) 
141.739

>  <r_qp_QPlogBB>  (387) 
-0.60699999999999998

>  <r_qp_QPlogHERG>  (387) 
-8.0079999999999991

>  <r_qp_QPlogKhsa>  (387) 
0.97199999999999998

>  <r_qp_QPlogKp>  (387) 
-3.0390000000000001

>  <r_qp_QPlogPC16>  (387) 
14.683999999999999

>  <r_qp_QPlogPo/w>  (387) 
4.9779999999999998

>  <r_qp_QPlogPoct>  (387) 
19.393000000000001

>  <r_qp_QPlogPw>  (387) 
9.3970000000000002

>  <r_qp_QPlogS>  (387) 
-6.6879999999999997

>  <r_qp_QPpolrz>  (387) 
45.704999999999998

>  <r_qp_SASA>  (387) 
746.59199999999998

>  <r_qp_SAamideO>  (387) 
0

>  <r_qp_SAfluorine>  (387) 
0

>  <r_qp_WPSA>  (387) 
0

>  <r_qp_accptHB>  (387) 
4.5

>  <r_qp_dip^2/V>  (387) 
0.031378299999999998

>  <r_qp_dipole>  (387) 
6.4269999999999996

>  <r_qp_donorHB>  (387) 
1

>  <r_qp_glob>  (387) 
0.77797810000000001

>  <r_qp_mol_MW>  (387) 
380.49099999999999

>  <r_qp_volume>  (387) 
1316.22

>  <r_sd_BIOSOLVEIT.INFINISEE\_FTREES\_SIMILARITY>  (387) 
0.90500000000000003

>  <r_sd_BIOSOLVEIT.LOGP>  (387) 
3.5708000000000002

>  <r_sd_BIOSOLVEIT.MOLECULAR\_WEIGHT>  (387) 
381.50099999999998

>  <r_sd_BIOSOLVEIT.TPSA>  (387) 
58.219999999999999

>  <i_epik_Tot_Q>  (387) 
0

>  <i_epik_Tot_abs_Q>  (387) 
0

>  <i_f3d_flags>  (387) 
0

>  <i_i_glide_confnum>  (387) 
2

>  <i_i_glide_lignum>  (387) 
571

>  <i_i_glide_posenum>  (387) 
20

>  <i_i_glide_rotatable_bonds>  (387) 
7

>  <i_lp_mmshare_version>  (387) 
65135

>  <i_m_ct_format>  (387) 
2

>  <i_m_source_file_index>  (387) 
1649

>  <i_qp_#NandO>  (387) 
4

>  <i_qp_#acid>  (387) 
0

>  <i_qp_#amide>  (387) 
0

>  <i_qp_#amidine>  (387) 
0

>  <i_qp_#amine>  (387) 
1

>  <i_qp_#in34>  (387) 
0

>  <i_qp_#in56>  (387) 
21

>  <i_qp_#metab>  (387) 
5

>  <i_qp_#nonHatm>  (387) 
29

>  <i_qp_#noncon>  (387) 
0

>  <i_qp_#ringatoms>  (387) 
21

>  <i_qp_#rotor>  (387) 
8

>  <i_qp_#rtvFG>  (387) 
0

>  <i_qp_#stars>  (387) 
2

>  <i_qp_CNS>  (387) 
1

>  <i_qp_HumanOralAbsorption>  (387) 
1

>  <i_qp_RuleOfFive>  (387) 
0

>  <i_qp_RuleOfThree>  (387) 
1

>  <i_sd_BIOSOLVEIT.INFINISEE\_REAGENT1\_NAME>  (387) 
16497484

>  <i_sd_BIOSOLVEIT.INFINISEE\_REAGENT2\_NAME>  (387) 
24720860

>  <i_sd_BIOSOLVEIT.INFINISEE\_RESULT\_RANK>  (387) 
68743

>  <i_sd_version>  (387) 
0

>  <b_lp_Chiralities_Consistent>  (387) 
1

>  <b_sd_chiral_flag>  (387) 
0

>  <canonical_id>  (387) 
ATP-HTVS-3EAEA7611BE9

>  <compound_code>  (387) 
52738

>  <title>  (387) 
m_270004bbb____16497484____24720860

>  <variant>  (387) 
52738-2

>  <source_file>  (387) 
运行/运行/ATP-VSW/ATP-VSW-DOCK_HTVS_1-002_lib.maegz

>  <canonical_smiles>  (387) 
Cc1ccc(CCNCc2nc3ccccc3n2Cc2ccccc2)cc1C#N

>  <scaffold>  (387) 
c1ccc(CCNCc2nc3ccccc3n2Cc2ccccc2)cc1

>  <molecular_formula>  (387) 
C25H24N4

$$$$
ATP-HTVS-3ED7BF8E1128
     RDKit          3D

 52 55  0  0  0  0  0  0  0  0999 V2000
  198.4679  183.4686  158.9497 Br  0  0  0  0  0  0  0  0  0  0  0  0
  196.6397  183.8999  159.2693 C   0  0  0  0  0  0  0  0  0  0  0  0
  195.5890  183.0987  158.7569 C   0  0  0  0  0  0  0  0  0  0  0  0
  194.2544  183.4796  158.9869 C   0  0  0  0  0  0  0  0  0  0  0  0
  193.2317  182.7329  158.5161 F   0  0  0  0  0  0  0  0  0  0  0  0
  193.9651  184.6320  159.7380 C   0  0  0  0  0  0  0  0  0  0  0  0
  195.0044  185.4253  160.2644 C   0  0  0  0  0  0  0  0  0  0  0  0
  196.3409  185.0525  160.0275 C   0  0  0  0  0  0  0  0  0  0  0  0
  194.6998  186.6715  161.0739 C   0  0  2  0  0  0  0  0  0  0  0  0
  195.8590  181.8324  157.9713 C   0  0  1  0  0  0  0  0  0  0  0  0
  195.9483  182.1218  156.5286 N   0  0  1  0  0  0  0  0  0  0  0  0
  196.7490  181.1811  155.7079 C   0  0  1  0  0  0  0  0  0  0  0  0
  196.9020  181.6617  154.2459 C   0  0  2  0  0  0  0  0  0  0  0  0
  197.7794  180.7747  153.4456 N   0  0  0  0  0  0  0  0  0  0  0  0
  198.9123  181.3860  153.0215 C   0  0  0  0  0  0  0  0  0  0  0  0
  199.8455  180.9109  152.3732 O   0  0  0  0  0  0  0  0  0  0  0  0
  198.8134  182.7959  153.4620 C   0  0  0  0  0  0  0  0  0  0  0  0
  197.6350  182.9833  154.1571 C   0  0  0  0  0  0  0  0  0  0  0  0
  197.2764  184.2505  154.6477 C   0  0  0  0  0  0  0  0  0  0  0  0
  198.1697  185.3221  154.4447 C   0  0  0  0  0  0  0  0  0  0  0  0
  199.3840  185.1245  153.7419 C   0  0  0  0  0  0  0  0  0  0  0  0
  199.7174  183.8480  153.2290 C   0  0  0  0  0  0  0  0  0  0  0  0
  197.3542  179.4256  153.0659 C   0  0  1  0  0  0  0  0  0  0  0  0
  197.3485  179.1511  151.5663 C   0  0  0  0  0  0  0  0  0  0  0  0
  198.3457  178.3317  150.9941 C   0  0  0  0  0  0  0  0  0  0  0  0
  198.3498  178.0694  149.6107 C   0  0  0  0  0  0  0  0  0  0  0  0
  197.3478  178.6236  148.7895 C   0  0  0  0  0  0  0  0  0  0  0  0
  196.3480  179.4382  149.3530 C   0  0  0  0  0  0  0  0  0  0  0  0
  196.3471  179.7027  150.7406 C   0  0  0  0  0  0  0  0  0  0  0  0
  194.9911  182.2350  156.1512 H   0  0  0  0  0  0  0  0  0  0  0  0
  192.9345  184.9173  159.9084 H   0  0  0  0  0  0  0  0  0  0  0  0
  197.1480  185.6518  160.4238 H   0  0  0  0  0  0  0  0  0  0  0  0
  195.4005  186.7880  161.9002 H   0  0  0  0  0  0  0  0  0  0  0  0
  193.6885  186.6467  161.4830 H   0  0  0  0  0  0  0  0  0  0  0  0
  194.7884  187.5502  160.4390 H   0  0  0  0  0  0  0  0  0  0  0  0
  196.7737  181.3529  158.3221 H   0  0  0  0  0  0  0  0  0  0  0  0
  195.0578  181.1169  158.1309 H   0  0  0  0  0  0  0  0  0  0  0  0
  197.7377  181.0900  156.1580 H   0  0  0  0  0  0  0  0  0  0  0  0
  196.2977  180.1915  155.7543 H   0  0  0  0  0  0  0  0  0  0  0  0
  195.9372  181.7552  153.7495 H   0  0  0  0  0  0  0  0  0  0  0  0
  196.3487  184.4213  155.1645 H   0  0  0  0  0  0  0  0  0  0  0  0
  197.9214  186.3011  154.8300 H   0  0  0  0  0  0  0  0  0  0  0  0
  200.0578  185.9571  153.5913 H   0  0  0  0  0  0  0  0  0  0  0  0
  200.6336  183.6844  152.6767 H   0  0  0  0  0  0  0  0  0  0  0  0
  198.0111  178.7117  153.5625 H   0  0  0  0  0  0  0  0  0  0  0  0
  196.3510  179.2308  153.4492 H   0  0  0  0  0  0  0  0  0  0  0  0
  199.1227  177.9019  151.6105 H   0  0  0  0  0  0  0  0  0  0  0  0
  199.1173  177.4438  149.1734 H   0  0  0  0  0  0  0  0  0  0  0  0
  197.3462  178.4202  147.7273 H   0  0  0  0  0  0  0  0  0  0  0  0
  195.5674  179.8357  148.7165 H   0  0  0  0  0  0  0  0  0  0  0  0
  195.5822  180.3316  151.1699 H   0  0  0  0  0  0  0  0  0  0  0  0
  196.4107  183.0112  156.4500 H   0  0  0  0  0  0  0  0  0  0  0  0
  1  2  1  0
  2  3  2  0
  2  8  1  0
  3  4  1  0
  3 10  1  0
  4  5  1  0
  4  6  2  0
  6  7  1  0
  6 31  1  0
  7  8  2  0
  7  9  1  0
  8 32  1  0
  9 33  1  1
  9 34  1  0
  9 35  1  0
 10 11  1  0
 10 36  1  1
 10 37  1  0
 11 12  1  0
 11 30  1  6
 11 52  1  0
 12 13  1  0
 12 38  1  1
 12 39  1  0
 13 14  1  0
 13 18  1  0
 13 40  1  6
 14 15  1  0
 14 23  1  0
 15 16  2  0
 15 17  1  0
 17 18  1  0
 17 22  2  0
 18 19  2  0
 19 20  1  0
 19 41  1  0
 20 21  2  0
 20 42  1  0
 21 22  1  0
 21 43  1  0
 22 44  1  0
 23 24  1  0
 23 45  1  1
 23 46  1  0
 24 25  2  0
 24 29  1  0
 25 26  1  0
 25 47  1  0
 26 27  2  0
 26 48  1  0
 27 28  1  0
 27 49  1  0
 28 29  2  0
 28 50  1  0
 29 51  1  0
M  CHG  1  11   1
M  END
>  <s_epik_cmdline>  (388) 
J2VwaWtfcHl0aG9uJywgJy1waCcsICc3LjAwMDAwMCcsICctcGh0JywgJzIuMDAwMDAwJywgJy1tcycsICcxNicsICctdG4nLCAnOCcsICctbWEnLCAnMjAwJywgJy1pbWFlJywgJzxpbmZpbGUubWFlPicsICctb21hZScsICc8b3V0ZmlsZS5tYWU+Jw==

>  <s_epik_input>  (388) 
W2NIXTFjKFtDSDNdKVtjSF1jKEYpYyhjMUJyKVtDSDJdW05IXVtDSDJdW0NAQEhdKGMoYzIzKVtjSF1bY0hdW2NIXVtjSF0zKU4oQzI9TylbQ0gyXWM0W2NIXVtjSF1bY0hdW2NIXVtjSF00

>  <s_i_glide_gridfile>  (388) 
ATP-Grid

>  <s_lp_Force_Field>  (388) 
OPLS_2005

>  <s_lp_Variant>  (388) 
m_270004bbb____12219716____16665050-1

>  <s_lp_label>  (388) 
1863_sdstereoexpander_1_neutralizer_1_epik_1_stereoizer_1

>  <s_m_source_file>  (388) 
ATP-VSW-LIGPREP-002-in.maegz

>  <s_sd_BIOSOLVEIT.INFINISEE\_QUERY\_NAME>  (388) 
Ref-Lig

>  <s_sd_BIOSOLVEIT.INFINISEE\_QUERY\_SMILES>  (388) 
S(c1nc2c(cc1C[NH2+]Cc3ccc(cc3)C[NH+](C)C)cccc2)Cc4ccccc4

>  <s_sd_BIOSOLVEIT.INFINISEE\_REACTION\_NAME>  (388) 
m_270004bbb

>  <s_sd_BIOSOLVEIT.INFINISEE\_REAGENT1\_SMILES>  (388) 
[R1*]NCC1N(C(=O)c2c1cccc2)Cc3ccccc3

>  <s_sd_BIOSOLVEIT.INFINISEE\_REAGENT2\_SMILES>  (388) 
[R1*]Cc1c(Br)cc(cc1F)C

>  <s_sd_BIOSOLVEIT.INFINISEE\_SPACE>  (388) 
REALSpace_44bn_2023-08

>  <s_vsw_compound_code>  (388) 
59586

>  <s_vsw_variant>  (388) 
59586-1

>  <r_epik_Charging_Adjusted_Penalty>  (388) 
0.16747110690698999

>  <r_epik_Ionization_Penalty>  (388) 
0.083699999999999997

>  <r_epik_Ionization_Penalty_Charging>  (388) 
0.083699999999999997

>  <r_epik_Ionization_Penalty_Neutral>  (388) 
0

>  <r_epik_State_Penalty>  (388) 
0.083699999999999997

>  <r_i_docking_score>  (388) 
-5.5842148119466097

>  <r_i_glide_ecoul>  (388) 
-10.9823875427246

>  <r_i_glide_eff_state_penalty>  (388) 
0.083699999999999997

>  <r_i_glide_einternal>  (388) 
2.4488677978515598

>  <r_i_glide_emodel>  (388) 
-65.477090049428199

>  <r_i_glide_energy>  (388) 
-44.424846649169901

>  <r_i_glide_erotb>  (388) 
0.58362610579929397

>  <r_i_glide_esite>  (388) 
-0.18496628594759301

>  <r_i_glide_evdw>  (388) 
-33.442459106445298

>  <r_i_glide_gscore>  (388) 
-5.6679148119466101

>  <r_i_glide_hbond>  (388) 
-0.20000000000000001

>  <r_i_glide_ligand_efficiency>  (388) 
-0.19255913144643499

>  <r_i_glide_ligand_efficiency_ln>  (388) 
-1.2786435884660201

>  <r_i_glide_ligand_efficiency_sa>  (388) 
-0.59160265881829999

>  <r_i_glide_lipo>  (388) 
-2.2358750655219

>  <r_i_glide_metal>  (388) 
-0

>  <r_i_glide_rewards>  (388) 
-0.31121847954545401

>  <r_lp_Energy>  (388) 
44.716686000000003

>  <r_qp_ACxDN^.5/SA>  (388) 
0.0070587000000000002

>  <r_qp_CIQPlogS>  (388) 
-6.7969999999999997

>  <r_qp_EA(eV)>  (388) 
0.377

>  <r_qp_FISA>  (388) 
35.218000000000004

>  <r_qp_FOSA>  (388) 
177.25700000000001

>  <r_qp_IP(eV)>  (388) 
9.2219999999999995

>  <r_qp_Jm>  (388) 
0.070182422080499005

>  <r_qp_PISA>  (388) 
348.54000000000002

>  <r_qp_PSA>  (388) 
38.898000000000003

>  <r_qp_PercentHumanOralAbsorption>  (388) 
100

>  <r_qp_QPPCaco>  (388) 
1145.0599999999999

>  <r_qp_QPPMDCK>  (388) 
1662.8240000000001

>  <r_qp_QPlogBB>  (388) 
0.47499999999999998

>  <r_qp_QPlogHERG>  (388) 
-6.093

>  <r_qp_QPlogKhsa>  (388) 
0.81999999999999995

>  <r_qp_QPlogKp>  (388) 
-2.427

>  <r_qp_QPlogPC16>  (388) 
12.589

>  <r_qp_QPlogPo/w>  (388) 
5

>  <r_qp_QPlogPoct>  (388) 
18.276

>  <r_qp_QPlogPw>  (388) 
8.4640000000000004

>  <r_qp_QPlogS>  (388) 
-4.383

>  <r_qp_QPpolrz>  (388) 
42.113

>  <r_qp_SASA>  (388) 
637.50800000000004

>  <r_qp_SAamideO>  (388) 
0

>  <r_qp_SAfluorine>  (388) 
32.887999999999998

>  <r_qp_WPSA>  (388) 
76.492999999999995

>  <r_qp_accptHB>  (388) 
4.5

>  <r_qp_dip^2/V>  (388) 
0.020078200000000001

>  <r_qp_dipole>  (388) 
4.9480000000000004

>  <r_qp_donorHB>  (388) 
1

>  <r_qp_glob>  (388) 
0.86574600000000002

>  <r_qp_mol_MW>  (388) 
453.35300000000001

>  <r_qp_volume>  (388) 
1219.1769999999999

>  <r_sd_BIOSOLVEIT.INFINISEE\_FTREES\_SIMILARITY>  (388) 
0.90300000000000002

>  <r_sd_BIOSOLVEIT.LOGP>  (388) 
4.3573199999999996

>  <r_sd_BIOSOLVEIT.MOLECULAR\_WEIGHT>  (388) 
454.36099999999999

>  <r_sd_BIOSOLVEIT.TPSA>  (388) 
36.920000000000002

>  <i_epik_Tot_Q>  (388) 
1

>  <i_epik_Tot_abs_Q>  (388) 
1

>  <i_f3d_flags>  (388) 
0

>  <i_i_glide_confnum>  (388) 
1

>  <i_i_glide_lignum>  (388) 
663

>  <i_i_glide_posenum>  (388) 
5

>  <i_i_glide_rotatable_bonds>  (388) 
6

>  <i_lp_mmshare_version>  (388) 
65135

>  <i_m_ct_format>  (388) 
2

>  <i_m_source_file_index>  (388) 
1863

>  <i_qp_#NandO>  (388) 
3

>  <i_qp_#acid>  (388) 
0

>  <i_qp_#amide>  (388) 
0

>  <i_qp_#amidine>  (388) 
0

>  <i_qp_#amine>  (388) 
1

>  <i_qp_#in34>  (388) 
0

>  <i_qp_#in56>  (388) 
21

>  <i_qp_#metab>  (388) 
5

>  <i_qp_#nonHatm>  (388) 
29

>  <i_qp_#noncon>  (388) 
1

>  <i_qp_#ringatoms>  (388) 
21

>  <i_qp_#rotor>  (388) 
6

>  <i_qp_#rtvFG>  (388) 
0

>  <i_qp_#stars>  (388) 
0

>  <i_qp_CNS>  (388) 
2

>  <i_qp_HumanOralAbsorption>  (388) 
3

>  <i_qp_RuleOfFive>  (388) 
0

>  <i_qp_RuleOfThree>  (388) 
0

>  <i_sd_BIOSOLVEIT.INFINISEE\_REAGENT1\_NAME>  (388) 
12219716

>  <i_sd_BIOSOLVEIT.INFINISEE\_REAGENT2\_NAME>  (388) 
16665050

>  <i_sd_BIOSOLVEIT.INFINISEE\_RESULT\_RANK>  (388) 
81947

>  <i_sd_version>  (388) 
0

>  <b_lp_Chiralities_Consistent>  (388) 
1

>  <b_sd_chiral_flag>  (388) 
0

>  <canonical_id>  (388) 
ATP-HTVS-3ED7BF8E1128

>  <compound_code>  (388) 
59586

>  <title>  (388) 
m_270004bbb____12219716____16665050

>  <variant>  (388) 
59586-1

>  <source_file>  (388) 
运行/运行/ATP-VSW/ATP-VSW-DOCK_HTVS_1-002_lib.maegz

>  <canonical_smiles>  (388) 
Cc1cc(F)c(C[NH2+]C[C@H]2c3ccccc3C(=O)N2Cc2ccccc2)c(Br)c1

>  <scaffold>  (388) 
O=C1c2ccccc2C(C[NH2+]Cc2ccccc2)N1Cc1ccccc1

>  <molecular_formula>  (388) 
C24H23BrFN2O+

$$$$
ATP-HTVS-3F61FE181838
     RDKit          3D

 68 72  0  0  0  0  0  0  0  0999 V2000
  199.5471  178.6154  150.9823 N   0  0  0  0  0  0  0  0  0  0  0  0
  199.0357  179.4497  151.9103 C   0  0  0  0  0  0  0  0  0  0  0  0
  197.7284  179.9857  151.8406 C   0  0  0  0  0  0  0  0  0  0  0  0
  196.9232  179.6090  150.7467 C   0  0  0  0  0  0  0  0  0  0  0  0
  197.4496  178.7388  149.7759 C   0  0  0  0  0  0  0  0  0  0  0  0
  198.7620  178.2589  149.9438 C   0  0  0  0  0  0  0  0  0  0  0  0
  197.1730  180.9295  152.9032 C   0  0  2  0  0  0  0  0  0  0  0  0
  197.6981  182.3222  152.6888 N   0  0  1  0  0  0  0  0  0  0  0  0
  197.4433  182.8874  151.3479 C   0  0  1  0  0  0  0  0  0  0  0  0
  197.6884  184.3929  151.4987 C   0  0  1  0  0  0  0  0  0  0  0  0
  197.5067  184.6964  152.9869 C   0  0  1  0  0  0  0  0  0  0  0  0
  197.1818  183.3566  153.6134 C   0  0  1  0  0  0  0  0  0  0  0  0
  197.5226  180.4054  154.3110 C   0  0  1  0  0  0  0  0  0  0  0  0
  196.6741  181.0035  155.3182 N   0  0  0  0  0  0  0  0  0  0  0  0
  197.2646  180.8562  156.6359 C   0  0  1  0  0  0  0  0  0  0  0  0
  198.2009  181.9866  156.9920 C   0  0  0  0  0  0  0  0  0  0  0  0
  197.9771  183.1790  157.7913 C   0  0  0  0  0  0  0  0  0  0  0  0
  199.1174  183.8493  157.9383 N   0  0  0  0  0  0  0  0  0  0  0  0
  200.0624  183.1517  157.2749 N   0  0  0  0  0  0  0  0  0  0  0  0
  199.5201  182.0446  156.6731 C   0  0  0  0  0  0  0  0  0  0  0  0
  201.4515  183.5889  157.2842 C   0  0  1  0  0  0  0  0  0  0  0  0
  202.1708  183.0923  158.5282 C   0  0  0  0  0  0  0  0  0  0  0  0
  201.9985  183.7628  159.7584 C   0  0  0  0  0  0  0  0  0  0  0  0
  202.6615  183.3060  160.9130 C   0  0  0  0  0  0  0  0  0  0  0  0
  203.4995  182.1762  160.8413 C   0  0  0  0  0  0  0  0  0  0  0  0
  203.6673  181.4985  159.6174 C   0  0  0  0  0  0  0  0  0  0  0  0
  203.0022  181.9535  158.4630 C   0  0  0  0  0  0  0  0  0  0  0  0
  196.7646  183.7108  158.4664 C   0  0  0  0  0  0  0  0  0  0  0  0
  196.8340  184.8859  159.2756 C   0  0  0  0  0  0  0  0  0  0  0  0
  195.6706  185.3962  159.9081 C   0  0  0  0  0  0  0  0  0  0  0  0
  194.4358  184.7292  159.7808 C   0  0  0  0  0  0  0  0  0  0  0  0
  194.3584  183.5784  158.9945 C   0  0  0  0  0  0  0  0  0  0  0  0
  195.4963  183.0748  158.3147 C   0  0  0  0  0  0  0  0  0  0  0  0
  195.7455  186.6717  160.7218 C   0  0  2  0  0  0  0  0  0  0  0  0
  196.5417  181.9862  155.1557 H   0  0  0  0  0  0  0  0  0  0  0  0
  199.7104  179.7145  152.7117 H   0  0  0  0  0  0  0  0  0  0  0  0
  195.9224  180.0006  150.6448 H   0  0  0  0  0  0  0  0  0  0  0  0
  196.8551  178.4341  148.9258 H   0  0  0  0  0  0  0  0  0  0  0  0
  199.1861  177.5729  149.2250 H   0  0  0  0  0  0  0  0  0  0  0  0
  196.0829  180.9260  152.7959 H   0  0  0  0  0  0  0  0  0  0  0  0
  198.0543  182.4275  150.5658 H   0  0  0  0  0  0  0  0  0  0  0  0
  196.3941  182.7102  151.1153 H   0  0  0  0  0  0  0  0  0  0  0  0
  198.7105  184.6306  151.2070 H   0  0  0  0  0  0  0  0  0  0  0  0
  197.0036  184.9662  150.8768 H   0  0  0  0  0  0  0  0  0  0  0  0
  198.4319  185.0632  153.4278 H   0  0  0  0  0  0  0  0  0  0  0  0
  196.7218  185.4154  153.2146 H   0  0  0  0  0  0  0  0  0  0  0  0
  196.1061  183.2184  153.6639 H   0  0  0  0  0  0  0  0  0  0  0  0
  197.6100  183.3376  154.6166 H   0  0  0  0  0  0  0  0  0  0  0  0
  197.3524  179.3318  154.3958 H   0  0  0  0  0  0  0  0  0  0  0  0
  198.5740  180.5963  154.5335 H   0  0  0  0  0  0  0  0  0  0  0  0
  196.4472  180.8682  157.3259 H   0  0  0  0  0  0  0  0  0  0  0  0
  197.7591  179.8710  156.7005 H   0  0  0  0  0  0  0  0  0  0  0  0
  200.1393  181.3527  156.1117 H   0  0  0  0  0  0  0  0  0  0  0  0
  201.9460  183.2063  156.3869 H   0  0  0  0  0  0  0  0  0  0  0  0
  201.4886  184.6801  157.2311 H   0  0  0  0  0  0  0  0  0  0  0  0
  201.3526  184.6273  159.8174 H   0  0  0  0  0  0  0  0  0  0  0  0
  202.5280  183.8241  161.8519 H   0  0  0  0  0  0  0  0  0  0  0  0
  204.0173  181.8346  161.7248 H   0  0  0  0  0  0  0  0  0  0  0  0
  204.3091  180.6315  159.5596 H   0  0  0  0  0  0  0  0  0  0  0  0
  203.1344  181.4263  157.5292 H   0  0  0  0  0  0  0  0  0  0  0  0
  197.7607  185.4371  159.3970 H   0  0  0  0  0  0  0  0  0  0  0  0
  193.5330  185.1112  160.2534 H   0  0  0  0  0  0  0  0  0  0  0  0
  193.4338  183.0543  158.8566 H   0  0  0  0  0  0  0  0  0  0  0  0
  195.2838  182.2440  157.6742 H   0  0  0  0  0  0  0  0  0  0  0  0
  194.7645  187.1588  160.7406 H   0  0  0  0  0  0  0  0  0  0  0  0
  196.4786  187.3606  160.2886 H   0  0  0  0  0  0  0  0  0  0  0  0
  196.0335  186.4239  161.7423 H   0  0  0  0  0  0  0  0  0  0  0  0
  198.7019  182.3115  152.8177 H   0  0  0  0  0  0  0  0  0  0  0  0
  1  2  1  0
  1  6  2  0
  2  3  2  0
  2 36  1  0
  3  4  1  0
  3  7  1  0
  4  5  2  0
  4 37  1  0
  5  6  1  0
  5 38  1  0
  6 39  1  0
  7  8  1  0
  7 13  1  0
  7 40  1  1
  8  9  1  0
  8 12  1  0
  8 68  1  1
  9 10  1  0
  9 41  1  6
  9 42  1  0
 10 11  1  0
 10 43  1  6
 10 44  1  0
 11 12  1  0
 11 45  1  1
 11 46  1  0
 12 47  1  1
 12 48  1  0
 13 14  1  0
 13 49  1  6
 13 50  1  0
 14 15  1  0
 14 35  1  0
 15 16  1  0
 15 51  1  1
 15 52  1  0
 16 17  1  0
 16 20  2  0
 17 18  2  0
 17 28  1  0
 18 19  1  0
 19 20  1  0
 19 21  1  0
 20 53  1  0
 21 22  1  0
 21 54  1  6
 21 55  1  0
 22 23  2  0
 22 27  1  0
 23 24  1  0
 23 56  1  0
 24 25  2  0
 24 57  1  0
 25 26  1  0
 25 58  1  0
 26 27  2  0
 26 59  1  0
 27 60  1  0
 28 29  2  0
 28 33  1  0
 29 30  1  0
 29 61  1  0
 30 31  2  0
 30 34  1  0
 31 32  1  0
 31 62  1  0
 32 33  2  0
 32 63  1  0
 33 64  1  0
 34 65  1  1
 34 66  1  0
 34 67  1  0
M  CHG  1   8   1
M  END
>  <s_epik_cmdline>  (389) 
J2VwaWtfcHl0aG9uJywgJy1waCcsICc3LjAwMDAwMCcsICctcGh0JywgJzIuMDAwMDAwJywgJy1tcycsICcxNicsICctdG4nLCAnOCcsICctbWEnLCAnMjAwJywgJy1pbWFlJywgJzxpbmZpbGUubWFlPicsICctb21hZScsICc8b3V0ZmlsZS5tYWU+Jw==

>  <s_epik_input>  (389) 
W2NIXTFbY0hdW2NIXW5bY0hdYzFbQ0BIXShOMltDSDJdW0NIMl1bQ0gyXVtDSDJdMilbQ0gyXVtOSF1bQ0gyXWMzYygtYzRbY0hdYyhbQ0gzXSlbY0hdW2NIXVtjSF00KW5uKFtjSF0zKVtDSDJdYzVbY0hdW2NIXVtjSF1bY0hdW2NIXTU=

>  <s_i_glide_gridfile>  (389) 
ATP-Grid

>  <s_lp_Force_Field>  (389) 
OPLS_2005

>  <s_lp_Variant>  (389) 
m_270004bbb____21668748____7547616-4

>  <s_lp_label>  (389) 
2047_sdstereoexpander_2_neutralizer_1_epik_2_stereoizer_1

>  <s_m_source_file>  (389) 
ATP-VSW-LIGPREP-001-in.maegz

>  <s_sd_BIOSOLVEIT.INFINISEE\_QUERY\_NAME>  (389) 
Ref-Lig

>  <s_sd_BIOSOLVEIT.INFINISEE\_QUERY\_SMILES>  (389) 
S(c1nc2c(cc1C[NH2+]Cc3ccc(cc3)C[NH+](C)C)cccc2)Cc4ccccc4

>  <s_sd_BIOSOLVEIT.INFINISEE\_REACTION\_NAME>  (389) 
m_270004bbb

>  <s_sd_BIOSOLVEIT.INFINISEE\_REAGENT1\_SMILES>  (389) 
[R1*]NCC(N1CCCC1)c2cnccc2

>  <s_sd_BIOSOLVEIT.INFINISEE\_REAGENT2\_SMILES>  (389) 
[R1*]CC=1C(=NN(C1)Cc2ccccc2)c3cc(ccc3)C

>  <s_sd_BIOSOLVEIT.INFINISEE\_SPACE>  (389) 
REALSpace_44bn_2023-08

>  <s_vsw_compound_code>  (389) 
65473

>  <s_vsw_variant>  (389) 
65473-4

>  <r_epik_Charging_Adjusted_Penalty>  (389) 
0.761798534010527

>  <r_epik_Ionization_Penalty>  (389) 
0.091399999999999995

>  <r_epik_Ionization_Penalty_Charging>  (389) 
0.063899999999999998

>  <r_epik_Ionization_Penalty_Neutral>  (389) 
0.0275

>  <r_epik_State_Penalty>  (389) 
0.69789999999999996

>  <r_i_docking_score>  (389) 
-3.1808080482773402

>  <r_i_glide_ecoul>  (389) 
-5.6871018409729004

>  <r_i_glide_eff_state_penalty>  (389) 
0.69789999999999996

>  <r_i_glide_einternal>  (389) 
3.5225758552551301

>  <r_i_glide_emodel>  (389) 
-49.970366568151

>  <r_i_glide_energy>  (389) 
-38.665964603424101

>  <r_i_glide_erotb>  (389) 
0.88157475745951397

>  <r_i_glide_esite>  (389) 
-0.0082844321471408095

>  <r_i_glide_evdw>  (389) 
-32.9788627624512

>  <r_i_glide_gscore>  (389) 
-3.8787080482773399

>  <r_i_glide_hbond>  (389) 
0

>  <r_i_glide_ligand_efficiency>  (389) 
-0.093553177890509903

>  <r_i_glide_ligand_efficiency_ln>  (389) 
-0.70272971650818095

>  <r_i_glide_ligand_efficiency_sa>  (389) 
-0.30307597878485598

>  <r_i_glide_lipo>  (389) 
-1.92690195932122

>  <r_i_glide_metal>  (389) 
-0

>  <r_i_glide_rewards>  (389) 
-0.32308799999999799

>  <r_lp_Energy>  (389) 
42.46951

>  <r_qp_ACxDN^.5/SA>  (389) 
0.0083207999999999997

>  <r_qp_CIQPlogS>  (389) 
-5.1189999999999998

>  <r_qp_EA(eV)>  (389) 
0.33100000000000002

>  <r_qp_FISA>  (389) 
50.783999999999999

>  <r_qp_FOSA>  (389) 
298.88299999999998

>  <r_qp_IP(eV)>  (389) 
8.9770000000000003

>  <r_qp_Jm>  (389) 
0.0011387973282232899

>  <r_qp_PISA>  (389) 
431.50799999999998

>  <r_qp_PSA>  (389) 
46.323

>  <r_qp_PercentHumanOralAbsorption>  (389) 
100

>  <r_qp_QPPCaco>  (389) 
203.28800000000001

>  <r_qp_QPPMDCK>  (389) 
108.208

>  <r_qp_QPlogBB>  (389) 
0.35799999999999998

>  <r_qp_QPlogHERG>  (389) 
-8.173

>  <r_qp_QPlogKhsa>  (389) 
1.032

>  <r_qp_QPlogKp>  (389) 
-4.2930000000000001

>  <r_qp_QPlogPC16>  (389) 
15.65

>  <r_qp_QPlogPo/w>  (389) 
4.9989999999999997

>  <r_qp_QPlogPoct>  (389) 
22.558

>  <r_qp_QPlogPw>  (389) 
10.981999999999999

>  <r_qp_QPlogS>  (389) 
-4.306

>  <r_qp_QPpolrz>  (389) 
52.337000000000003

>  <r_qp_SASA>  (389) 
781.17499999999995

>  <r_qp_SAamideO>  (389) 
0

>  <r_qp_SAfluorine>  (389) 
0

>  <r_qp_WPSA>  (389) 
0

>  <r_qp_accptHB>  (389) 
6.5

>  <r_qp_dip^2/V>  (389) 
0.019580500000000001

>  <r_qp_dipole>  (389) 
5.3959999999999999

>  <r_qp_donorHB>  (389) 
1

>  <r_qp_glob>  (389) 
0.80651379999999995

>  <r_qp_mol_MW>  (389) 
451.613

>  <r_qp_volume>  (389) 
1486.9369999999999

>  <r_sd_BIOSOLVEIT.INFINISEE\_FTREES\_SIMILARITY>  (389) 
0.90200000000000002

>  <r_sd_BIOSOLVEIT.LOGP>  (389) 
2.7852199999999998

>  <r_sd_BIOSOLVEIT.MOLECULAR\_WEIGHT>  (389) 
453.63099999999997

>  <r_sd_BIOSOLVEIT.TPSA>  (389) 
51.759999999999998

>  <i_epik_Tot_Q>  (389) 
1

>  <i_epik_Tot_abs_Q>  (389) 
1

>  <i_f3d_flags>  (389) 
0

>  <i_i_glide_confnum>  (389) 
12

>  <i_i_glide_lignum>  (389) 
629

>  <i_i_glide_posenum>  (389) 
6

>  <i_i_glide_rotatable_bonds>  (389) 
9

>  <i_lp_mmshare_version>  (389) 
65135

>  <i_m_ct_format>  (389) 
2

>  <i_m_source_file_index>  (389) 
2047

>  <i_qp_#NandO>  (389) 
5

>  <i_qp_#acid>  (389) 
0

>  <i_qp_#amide>  (389) 
0

>  <i_qp_#amidine>  (389) 
0

>  <i_qp_#amine>  (389) 
2

>  <i_qp_#in34>  (389) 
0

>  <i_qp_#in56>  (389) 
28

>  <i_qp_#metab>  (389) 
9

>  <i_qp_#nonHatm>  (389) 
34

>  <i_qp_#noncon>  (389) 
4

>  <i_qp_#ringatoms>  (389) 
28

>  <i_qp_#rotor>  (389) 
8

>  <i_qp_#rtvFG>  (389) 
0

>  <i_qp_#stars>  (389) 
1

>  <i_qp_CNS>  (389) 
1

>  <i_qp_HumanOralAbsorption>  (389) 
3

>  <i_qp_RuleOfFive>  (389) 
0

>  <i_qp_RuleOfThree>  (389) 
1

>  <i_sd_BIOSOLVEIT.INFINISEE\_REAGENT1\_NAME>  (389) 
21668748

>  <i_sd_BIOSOLVEIT.INFINISEE\_REAGENT2\_NAME>  (389) 
7547616

>  <i_sd_BIOSOLVEIT.INFINISEE\_RESULT\_RANK>  (389) 
93757

>  <i_sd_version>  (389) 
0

>  <b_lp_Chiralities_Consistent>  (389) 
1

>  <b_sd_chiral_flag>  (389) 
0

>  <canonical_id>  (389) 
ATP-HTVS-3F61FE181838

>  <compound_code>  (389) 
65473

>  <title>  (389) 
m_270004bbb____21668748____7547616

>  <variant>  (389) 
65473-4

>  <source_file>  (389) 
运行/运行/ATP-VSW/ATP-VSW-DOCK_HTVS_1-001_lib/ATP-VSW-DOCK_HTVS_1-001_lib

>  <canonical_smiles>  (389) 
Cc1cccc(-c2nn(Cc3ccccc3)cc2CNC[C@H](c2cccnc2)[NH+]2CCCC2)c1

>  <scaffold>  (389) 
c1ccc(Cn2cc(CNCC(c3cccnc3)[NH+]3CCCC3)c(-c3ccccc3)n2)cc1

>  <molecular_formula>  (389) 
C29H34N5+

$$$$
ATP-HTVS-3F7C0C4A7C85
     RDKit          3D

 62 65  0  0  0  0  0  0  0  0999 V2000
  202.3642  174.6371  156.1024 N   0  0  0  0  0  0  0  0  0  0  0  0
  201.9612  175.6794  155.8055 C   0  0  0  0  0  0  0  0  0  0  0  0
  201.4635  176.9889  155.4329 C   0  0  0  0  0  0  0  0  0  0  0  0
  200.1920  177.4089  155.8773 C   0  0  0  0  0  0  0  0  0  0  0  0
  199.7138  178.6812  155.5306 C   0  0  0  0  0  0  0  0  0  0  0  0
  200.5046  179.5561  154.7497 C   0  0  0  0  0  0  0  0  0  0  0  0
  201.7724  179.1287  154.2964 C   0  0  0  0  0  0  0  0  0  0  0  0
  202.2533  177.8513  154.6408 C   0  0  0  0  0  0  0  0  0  0  0  0
  199.9928  180.9381  154.3763 C   0  0  2  0  0  0  0  0  0  0  0  0
  199.2322  181.5934  155.4316 N   0  0  0  0  0  0  0  0  0  0  0  0
  199.9106  182.3122  156.4301 C   0  0  0  0  0  0  0  0  0  0  0  0
  200.7697  181.6434  157.2376 N   0  0  0  0  0  0  0  0  0  0  0  0
  201.3313  182.3275  158.2664 C   0  0  0  0  0  0  0  0  0  0  0  0
  201.0785  183.7222  158.4408 C   0  0  0  0  0  0  0  0  0  0  0  0
  200.2679  184.3925  157.5919 N   0  0  0  0  0  0  0  0  0  0  0  0
  199.6687  183.6930  156.6061 C   0  0  0  0  0  0  0  0  0  0  0  0
  198.8087  184.3671  155.7326 N   0  0  0  0  0  0  0  0  0  0  0  0
  198.0113  185.4742  156.2478 C   0  0  1  0  0  0  0  0  0  0  0  0
  197.2158  185.1337  157.4971 C   0  0  0  0  0  0  0  0  0  0  0  0
  196.5542  183.8915  157.5974 C   0  0  0  0  0  0  0  0  0  0  0  0
  195.8541  183.5478  158.7632 C   0  0  0  0  0  0  0  0  0  0  0  0
  195.8041  184.4700  159.8374 C   0  0  0  0  0  0  0  0  0  0  0  0
  196.4619  185.7121  159.7412 C   0  0  0  0  0  0  0  0  0  0  0  0
  197.1761  186.0416  158.5756 C   0  0  0  0  0  0  0  0  0  0  0  0
  195.1057  182.2157  158.8209 C   0  0  1  0  0  0  0  0  0  0  0  0
  193.7840  182.2556  158.1558 N   0  0  1  0  0  0  0  0  0  0  0  0
  193.0263  180.9928  158.2955 C   0  0  2  0  0  0  0  0  0  0  0  0
  192.9833  183.4409  158.5024 C   0  0  2  0  0  0  0  0  0  0  0  0
  201.6668  184.4095  159.5204 C   0  0  0  0  0  0  0  0  0  0  0  0
  202.4840  183.7447  160.4505 C   0  0  0  0  0  0  0  0  0  0  0  0
  202.7144  182.3684  160.2993 C   0  0  0  0  0  0  0  0  0  0  0  0
  202.1523  181.6715  159.2119 C   0  0  0  0  0  0  0  0  0  0  0  0
  199.1375  180.8599  153.1009 C   0  0  2  0  0  0  0  0  0  0  0  0
  199.5783  176.7695  156.4929 H   0  0  0  0  0  0  0  0  0  0  0  0
  198.7384  178.9788  155.8771 H   0  0  0  0  0  0  0  0  0  0  0  0
  202.3824  179.7824  153.6854 H   0  0  0  0  0  0  0  0  0  0  0  0
  203.2319  177.5382  154.3054 H   0  0  0  0  0  0  0  0  0  0  0  0
  200.8532  181.5728  154.1614 H   0  0  0  0  0  0  0  0  0  0  0  0
  198.2230  181.6080  155.3814 H   0  0  0  0  0  0  0  0  0  0  0  0
  198.3837  183.7780  155.0301 H   0  0  0  0  0  0  0  0  0  0  0  0
  198.6882  186.3028  156.4645 H   0  0  0  0  0  0  0  0  0  0  0  0
  197.3333  185.8250  155.4669 H   0  0  0  0  0  0  0  0  0  0  0  0
  196.5646  183.2032  156.7645 H   0  0  0  0  0  0  0  0  0  0  0  0
  195.2401  184.2466  160.7276 H   0  0  0  0  0  0  0  0  0  0  0  0
  196.4272  186.4173  160.5626 H   0  0  0  0  0  0  0  0  0  0  0  0
  197.7056  186.9831  158.5146 H   0  0  0  0  0  0  0  0  0  0  0  0
  195.7264  181.4252  158.4073 H   0  0  0  0  0  0  0  0  0  0  0  0
  194.9599  181.9730  159.8656 H   0  0  0  0  0  0  0  0  0  0  0  0
  192.7289  180.8012  159.3199 H   0  0  0  0  0  0  0  0  0  0  0  0
  193.6319  180.1578  157.9927 H   0  0  0  0  0  0  0  0  0  0  0  0
  192.1195  180.9912  157.6857 H   0  0  0  0  0  0  0  0  0  0  0  0
  192.7576  183.5558  159.5680 H   0  0  0  0  0  0  0  0  0  0  0  0
  192.0359  183.3664  157.9647 H   0  0  0  0  0  0  0  0  0  0  0  0
  193.4865  184.3347  158.1619 H   0  0  0  0  0  0  0  0  0  0  0  0
  201.4809  185.4680  159.6306 H   0  0  0  0  0  0  0  0  0  0  0  0
  202.9288  184.2922  161.2671 H   0  0  0  0  0  0  0  0  0  0  0  0
  203.3364  181.8516  161.0182 H   0  0  0  0  0  0  0  0  0  0  0  0
  202.3254  180.6070  159.1195 H   0  0  0  0  0  0  0  0  0  0  0  0
  199.7019  180.4265  152.2711 H   0  0  0  0  0  0  0  0  0  0  0  0
  198.8074  181.8540  152.7971 H   0  0  0  0  0  0  0  0  0  0  0  0
  198.2529  180.2387  153.2600 H   0  0  0  0  0  0  0  0  0  0  0  0
  193.9281  182.3589  157.1306 H   0  0  0  0  0  0  0  0  0  0  0  0
  1  2  3  0
  2  3  1  0
  3  4  1  0
  3  8  2  0
  4  5  2  0
  4 34  1  0
  5  6  1  0
  5 35  1  0
  6  7  2  0
  6  9  1  0
  7  8  1  0
  7 36  1  0
  8 37  1  0
  9 10  1  0
  9 33  1  0
  9 38  1  6
 10 11  1  0
 10 39  1  0
 11 12  2  0
 11 16  1  0
 12 13  1  0
 13 14  1  0
 13 32  2  0
 14 15  1  0
 14 29  2  0
 15 16  2  0
 16 17  1  0
 17 18  1  0
 17 40  1  0
 18 19  1  0
 18 41  1  1
 18 42  1  0
 19 20  2  0
 19 24  1  0
 20 21  1  0
 20 43  1  0
 21 22  2  0
 21 25  1  0
 22 23  1  0
 22 44  1  0
 23 24  2  0
 23 45  1  0
 24 46  1  0
 25 26  1  0
 25 47  1  6
 25 48  1  0
 26 27  1  0
 26 28  1  0
 26 62  1  6
 27 49  1  1
 27 50  1  0
 27 51  1  0
 28 52  1  1
 28 53  1  0
 28 54  1  0
 29 30  1  0
 29 55  1  0
 30 31  2  0
 30 56  1  0
 31 32  1  0
 31 57  1  0
 32 58  1  0
 33 59  1  6
 33 60  1  0
 33 61  1  0
M  CHG  1  26   1
M  END
>  <s_epik_cmdline>  (390) 
J2VwaWtfcHl0aG9uJywgJy1waCcsICc3LjAwMDAwMCcsICctcGh0JywgJzIuMDAwMDAwJywgJy1tcycsICcxNicsICctdG4nLCAnOCcsICctbWEnLCAnMjAwJywgJy1pbWFlJywgJzxpbmZpbGUubWFlPicsICctb21hZScsICc8b3V0ZmlsZS5tYWU+Jw==

>  <s_epik_input>  (390) 
TiNDYzFbY0hdW2NIXWMoW2NIXVtjSF0xKVtDQEBIXShbQ0gzXSlbTkhdYyhuMiljKG5jKGMyMylbY0hdW2NIXVtjSF1bY0hdMylbTkhdW0NIMl1jNFtjSF1jKFtjSF1bY0hdW2NIXTQpW0NIMl1OKFtDSDNdKVtDSDNd

>  <s_i_glide_gridfile>  (390) 
ATP-Grid

>  <s_lp_Force_Field>  (390) 
OPLS_2005

>  <s_lp_Variant>  (390) 
m_282030aaa____21928180____23157418____21940090-1

>  <s_lp_label>  (390) 
1391_sdstereoexpander_1_neutralizer_1_epik_1_stereoizer_1

>  <s_m_source_file>  (390) 
ATP-VSW-LIGPREP-003-in.maegz

>  <s_sd_BIOSOLVEIT.INFINISEE\_QUERY\_NAME>  (390) 
Ref-Lig

>  <s_sd_BIOSOLVEIT.INFINISEE\_QUERY\_SMILES>  (390) 
S(c1nc2c(cc1C[NH2+]Cc3ccc(cc3)C[NH+](C)C)cccc2)Cc4ccccc4

>  <s_sd_BIOSOLVEIT.INFINISEE\_REACTION\_NAME>  (390) 
m_282030aaa

>  <s_sd_BIOSOLVEIT.INFINISEE\_REAGENT1\_SMILES>  (390) 
[R1*]NC(c1ccc(C#N)cc1)C

>  <s_sd_BIOSOLVEIT.INFINISEE\_REAGENT2\_SMILES>  (390) 
[R1*]c1nc2c(nc1[R2*])cccc2

>  <s_sd_BIOSOLVEIT.INFINISEE\_REAGENT3\_SMILES>  (390) 
[R2*]NCc1cc(ccc1)CN(C)C

>  <s_sd_BIOSOLVEIT.INFINISEE\_SPACE>  (390) 
REALSpace_44bn_2023-08

>  <s_vsw_compound_code>  (390) 
44483

>  <s_vsw_variant>  (390) 
44483-1

>  <r_epik_Charging_Adjusted_Penalty>  (390) 
0.088195370499548398

>  <r_epik_Ionization_Penalty>  (390) 
0.044499999999999998

>  <r_epik_Ionization_Penalty_Charging>  (390) 
0.0441

>  <r_epik_Ionization_Penalty_Neutral>  (390) 
0.00040000000000000002

>  <r_epik_State_Penalty>  (390) 
0.0441

>  <r_i_docking_score>  (390) 
-4.5187091347224904

>  <r_i_glide_ecoul>  (390) 
-10.130506515502899

>  <r_i_glide_eff_state_penalty>  (390) 
0.0441

>  <r_i_glide_einternal>  (390) 
9.4178552627563494

>  <r_i_glide_emodel>  (390) 
-53.951970877989702

>  <r_i_glide_energy>  (390) 
-41.501123428344698

>  <r_i_glide_erotb>  (390) 
0.72912286497136403

>  <r_i_glide_esite>  (390) 
-0.104914333750965

>  <r_i_glide_evdw>  (390) 
-31.3706169128418

>  <r_i_glide_gscore>  (390) 
-4.5628091347224897

>  <r_i_glide_hbond>  (390) 
-0.20000000000000001

>  <r_i_glide_ligand_efficiency>  (390) 
-0.13693057984007501

>  <r_i_glide_ligand_efficiency_ln>  (390) 
-1.00493751493854

>  <r_i_glide_ligand_efficiency_sa>  (390) 
-0.43920953515137601

>  <r_i_glide_lipo>  (390) 
-1.2378193848197101

>  <r_i_glide_metal>  (390) 
-0

>  <r_i_glide_rewards>  (390) 
-0.66109145815564896

>  <r_lp_Energy>  (390) 
23.111552

>  <r_qp_ACxDN^.5/SA>  (390) 
0.0125889

>  <r_qp_CIQPlogS>  (390) 
-6.7039999999999997

>  <r_qp_EA(eV)>  (390) 
0.91600000000000004

>  <r_qp_FISA>  (390) 
96.072999999999993

>  <r_qp_FOSA>  (390) 
227.44

>  <r_qp_IP(eV)>  (390) 
8.3420000000000005

>  <r_qp_Jm>  (390) 
0.0014538794971665401

>  <r_qp_PISA>  (390) 
406.68400000000003

>  <r_qp_PSA>  (390) 
70.718000000000004

>  <r_qp_PercentHumanOralAbsorption>  (390) 
100

>  <r_qp_QPPCaco>  (390) 
303.21100000000001

>  <r_qp_QPPMDCK>  (390) 
150.68000000000001

>  <r_qp_QPlogBB>  (390) 
-0.50700000000000001

>  <r_qp_QPlogHERG>  (390) 
-6.9240000000000004

>  <r_qp_QPlogKhsa>  (390) 
0.75700000000000001

>  <r_qp_QPlogKp>  (390) 
-3.056

>  <r_qp_QPlogPC16>  (390) 
15.228

>  <r_qp_QPlogPo/w>  (390) 
4.5499999999999998

>  <r_qp_QPlogPoct>  (390) 
22.588999999999999

>  <r_qp_QPlogPw>  (390) 
12.243

>  <r_qp_QPlogS>  (390) 
-5.4219999999999997

>  <r_qp_QPpolrz>  (390) 
48.247

>  <r_qp_SASA>  (390) 
730.197

>  <r_qp_SAamideO>  (390) 
0

>  <r_qp_SAfluorine>  (390) 
0

>  <r_qp_WPSA>  (390) 
0

>  <r_qp_accptHB>  (390) 
6.5

>  <r_qp_dip^2/V>  (390) 
0.0034385000000000002

>  <r_qp_dipole>  (390) 
2.1989999999999998

>  <r_qp_donorHB>  (390) 
2

>  <r_qp_glob>  (390) 
0.83149859999999998

>  <r_qp_mol_MW>  (390) 
436.55799999999999

>  <r_qp_volume>  (390) 
1406.7090000000001

>  <r_sd_BIOSOLVEIT.INFINISEE\_FTREES\_SIMILARITY>  (390) 
0.90900000000000003

>  <r_sd_BIOSOLVEIT.LOGP>  (390) 
3.9311799999999999

>  <r_sd_BIOSOLVEIT.MOLECULAR\_WEIGHT>  (390) 
437.56799999999998

>  <r_sd_BIOSOLVEIT.TPSA>  (390) 
78.069999999999993

>  <i_epik_Tot_Q>  (390) 
1

>  <i_epik_Tot_abs_Q>  (390) 
1

>  <i_f3d_flags>  (390) 
0

>  <i_i_glide_confnum>  (390) 
3

>  <i_i_glide_lignum>  (390) 
535

>  <i_i_glide_posenum>  (390) 
7

>  <i_i_glide_rotatable_bonds>  (390) 
8

>  <i_lp_mmshare_version>  (390) 
65135

>  <i_m_ct_format>  (390) 
2

>  <i_m_source_file_index>  (390) 
1391

>  <i_qp_#NandO>  (390) 
6

>  <i_qp_#acid>  (390) 
0

>  <i_qp_#amide>  (390) 
0

>  <i_qp_#amidine>  (390) 
0

>  <i_qp_#amine>  (390) 
1

>  <i_qp_#in34>  (390) 
0

>  <i_qp_#in56>  (390) 
22

>  <i_qp_#metab>  (390) 
4

>  <i_qp_#nonHatm>  (390) 
33

>  <i_qp_#noncon>  (390) 
0

>  <i_qp_#ringatoms>  (390) 
22

>  <i_qp_#rotor>  (390) 
9

>  <i_qp_#rtvFG>  (390) 
0

>  <i_qp_#stars>  (390) 
0

>  <i_qp_CNS>  (390) 
1

>  <i_qp_HumanOralAbsorption>  (390) 
3

>  <i_qp_RuleOfFive>  (390) 
0

>  <i_qp_RuleOfThree>  (390) 
0

>  <i_sd_BIOSOLVEIT.INFINISEE\_REAGENT1\_NAME>  (390) 
21928180

>  <i_sd_BIOSOLVEIT.INFINISEE\_REAGENT2\_NAME>  (390) 
23157418

>  <i_sd_BIOSOLVEIT.INFINISEE\_REAGENT3\_NAME>  (390) 
21940090

>  <i_sd_BIOSOLVEIT.INFINISEE\_RESULT\_RANK>  (390) 
52089

>  <i_sd_version>  (390) 
0

>  <b_lp_Chiralities_Consistent>  (390) 
1

>  <b_sd_chiral_flag>  (390) 
0

>  <canonical_id>  (390) 
ATP-HTVS-3F7C0C4A7C85

>  <compound_code>  (390) 
44483

>  <title>  (390) 
m_282030aaa____21928180____23157418____21940090

>  <variant>  (390) 
44483-1

>  <source_file>  (390) 
运行/运行/ATP-VSW/ATP-VSW-DOCK_HTVS_1-003_lib/ATP-VSW-DOCK_HTVS_1-003_lib.mae

>  <canonical_smiles>  (390) 
C[C@@H](Nc1nc2ccccc2nc1NCc1cccc(C[NH+](C)C)c1)c1ccc(C#N)cc1

>  <scaffold>  (390) 
c1ccc(CNc2nc3ccccc3nc2NCc2ccccc2)cc1

>  <molecular_formula>  (390) 
C27H29N6+

$$$$
ATP-HTVS-3FE2C8D8A747
     RDKit          3D

 64 67  0  0  0  0  0  0  0  0999 V2000
  196.7083  179.8379  150.1237 Cl  0  0  0  0  0  0  0  0  0  0  0  0
  197.3130  181.2159  150.9710 C   0  0  0  0  0  0  0  0  0  0  0  0
  196.4997  181.8638  151.9166 C   0  0  0  0  0  0  0  0  0  0  0  0
  196.9646  183.0069  152.5812 C   0  0  0  0  0  0  0  0  0  0  0  0
  198.2641  183.5120  152.3374 C   0  0  0  0  0  0  0  0  0  0  0  0
  199.0878  182.8372  151.4022 C   0  0  0  0  0  0  0  0  0  0  0  0
  198.6105  181.7004  150.7147 C   0  0  0  0  0  0  0  0  0  0  0  0
  198.7721  184.7531  153.0753 C   0  0  1  0  0  0  0  0  0  0  0  0
  198.3448  186.0096  152.3866 N   0  0  1  0  0  0  0  0  0  0  0  0
  198.8153  187.2375  153.0596 C   0  0  2  0  0  0  0  0  0  0  0  0
  198.6831  186.0302  150.9413 C   0  0  2  0  0  0  0  0  0  0  0  0
  198.3486  184.7614  154.5685 C   0  0  1  0  0  0  0  0  0  0  0  0
  198.4887  183.4870  155.1317 N   0  0  0  0  0  0  0  0  0  0  0  0
  197.7788  182.9518  156.2072 C   0  0  0  0  0  0  0  0  0  0  0  0
  197.2407  183.7126  157.2673 C   0  0  0  0  0  0  0  0  0  0  0  0
  196.5487  182.8374  158.1464 C   0  0  0  0  0  0  0  0  0  0  0  0
  196.7479  181.5732  157.6065 N   0  0  0  0  0  0  0  0  0  0  0  0
  197.5132  181.5976  156.4600 C   0  0  0  0  0  0  0  0  0  0  0  0
  197.8058  180.3553  155.7237 C   0  0  0  0  0  0  0  0  0  0  0  0
  196.9436  179.9442  154.9403 O   0  0  0  0  0  0  0  0  0  0  0  0
  199.0171  179.7022  155.8792 N   0  0  0  0  0  0  0  0  0  0  0  0
  200.1509  180.3027  156.5179 C   0  0  0  0  0  0  0  0  0  0  0  0
  200.9317  179.5538  157.4801 C   0  0  0  0  0  0  0  0  0  0  0  0
  202.0940  180.1478  158.0071 C   0  0  0  0  0  0  0  0  0  0  0  0
  202.4656  181.5004  157.7491 C   0  0  0  0  0  0  0  0  0  0  0  0
  201.6513  182.2336  156.8377 C   0  0  0  0  0  0  0  0  0  0  0  0
  200.5886  181.6124  156.1668 C   0  0  0  0  0  0  0  0  0  0  0  0
  199.1318  178.3492  155.2863 C   0  0  2  0  0  0  0  0  0  0  0  0
  199.9843  177.3917  155.9918 C   0  0  0  0  0  0  0  0  0  0  0  0
  200.6807  176.6415  156.5624 N   0  0  0  0  0  0  0  0  0  0  0  0
  199.5843  178.3914  153.8098 C   0  0  2  0  0  0  0  0  0  0  0  0
  195.8516  183.3001  159.2721 C   0  0  0  0  0  0  0  0  0  0  0  0
  195.8575  184.6796  159.5743 C   0  0  0  0  0  0  0  0  0  0  0  0
  196.5712  185.5773  158.7560 C   0  0  0  0  0  0  0  0  0  0  0  0
  197.2560  185.1098  157.6243 C   0  0  0  0  0  0  0  0  0  0  0  0
  195.5159  181.4851  152.1345 H   0  0  0  0  0  0  0  0  0  0  0  0
  196.3173  183.4713  153.3155 H   0  0  0  0  0  0  0  0  0  0  0  0
  200.0869  183.1986  151.1923 H   0  0  0  0  0  0  0  0  0  0  0  0
  199.2345  181.2103  149.9831 H   0  0  0  0  0  0  0  0  0  0  0  0
  199.8615  184.7168  153.0382 H   0  0  0  0  0  0  0  0  0  0  0  0
  199.9025  187.2425  153.1608 H   0  0  0  0  0  0  0  0  0  0  0  0
  198.3764  187.3493  154.0524 H   0  0  0  0  0  0  0  0  0  0  0  0
  198.5219  188.1261  152.4950 H   0  0  0  0  0  0  0  0  0  0  0  0
  199.7630  185.9502  150.7954 H   0  0  0  0  0  0  0  0  0  0  0  0
  198.3401  186.9612  150.4780 H   0  0  0  0  0  0  0  0  0  0  0  0
  198.2006  185.2190  150.3941 H   0  0  0  0  0  0  0  0  0  0  0  0
  198.9676  185.4604  155.1392 H   0  0  0  0  0  0  0  0  0  0  0  0
  197.3051  185.0708  154.6718 H   0  0  0  0  0  0  0  0  0  0  0  0
  198.8910  182.7627  154.4957 H   0  0  0  0  0  0  0  0  0  0  0  0
  196.3204  180.6951  157.9221 H   0  0  0  0  0  0  0  0  0  0  0  0
  200.6493  178.5742  157.7952 H   0  0  0  0  0  0  0  0  0  0  0  0
  202.7131  179.5402  158.6639 H   0  0  0  0  0  0  0  0  0  0  0  0
  203.3348  181.9460  158.2129 H   0  0  0  0  0  0  0  0  0  0  0  0
  201.8943  183.2726  156.6182 H   0  0  0  0  0  0  0  0  0  0  0  0
  200.1579  182.1166  155.3573 H   0  0  0  0  0  0  0  0  0  0  0  0
  198.1629  177.8396  155.3314 H   0  0  0  0  0  0  0  0  0  0  0  0
  199.6186  177.3869  153.3895 H   0  0  0  0  0  0  0  0  0  0  0  0
  200.5835  178.8178  153.7101 H   0  0  0  0  0  0  0  0  0  0  0  0
  198.9010  178.9816  153.1975 H   0  0  0  0  0  0  0  0  0  0  0  0
  195.3105  182.6022  159.8869 H   0  0  0  0  0  0  0  0  0  0  0  0
  195.3228  185.0472  160.4365 H   0  0  0  0  0  0  0  0  0  0  0  0
  196.5820  186.6357  158.9849 H   0  0  0  0  0  0  0  0  0  0  0  0
  197.7972  185.8022  157.0072 H   0  0  0  0  0  0  0  0  0  0  0  0
  197.3404  186.0136  152.4516 H   0  0  0  0  0  0  0  0  0  0  0  0
  1  2  1  0
  2  3  1  0
  2  7  2  0
  3  4  2  0
  3 36  1  0
  4  5  1  0
  4 37  1  0
  5  6  2  0
  5  8  1  0
  6  7  1  0
  6 38  1  0
  7 39  1  0
  8  9  1  0
  8 12  1  0
  8 40  1  1
  9 10  1  0
  9 11  1  0
  9 64  1  6
 10 41  1  1
 10 42  1  0
 10 43  1  0
 11 44  1  1
 11 45  1  0
 11 46  1  0
 12 13  1  0
 12 47  1  1
 12 48  1  0
 13 14  1  0
 13 49  1  0
 14 15  1  0
 14 18  2  0
 15 16  1  0
 15 35  2  0
 16 17  1  0
 16 32  2  0
 17 18  1  0
 17 50  1  0
 18 19  1  0
 19 20  2  0
 19 21  1  0
 21 22  1  0
 21 28  1  0
 22 23  2  0
 22 27  1  0
 23 24  1  0
 23 51  1  0
 24 25  2  0
 24 52  1  0
 25 26  1  0
 25 53  1  0
 26 27  2  0
 26 54  1  0
 27 55  1  0
 28 29  1  0
 28 31  1  0
 28 56  1  6
 29 30  3  0
 31 57  1  6
 31 58  1  0
 31 59  1  0
 32 33  1  0
 32 60  1  0
 33 34  2  0
 33 61  1  0
 34 35  1  0
 34 62  1  0
 35 63  1  0
M  CHG  1   9   1
M  END
>  <s_epik_cmdline>  (391) 
J2VwaWtfcHl0aG9uJywgJy1waCcsICc3LjAwMDAwMCcsICctcGh0JywgJzIuMDAwMDAwJywgJy1tcycsICcxNicsICctdG4nLCAnOCcsICctbWEnLCAnMjAwJywgJy1pbWFlJywgJzxpbmZpbGUubWFlPicsICctb21hZScsICc8b3V0ZmlsZS5tYWU+Jw==

>  <s_epik_input>  (391) 
Q2xjMVtjSF1bY0hdYyhbY0hdW2NIXTEpW0NAQEhdKE4oW0NIM10pW0NIM10pW0NIMl1bTkhdYzJjKFtuSF1jKGMyMylbY0hdW2NIXVtjSF1bY0hdMylDKD1PKU4oW0NASF0oQyNOKVtDSDNdKWM0W2NIXVtjSF1bY0hdW2NIXVtjSF00

>  <s_i_glide_gridfile>  (391) 
ATP-Grid

>  <s_lp_Force_Field>  (391) 
OPLS_2005

>  <s_lp_Variant>  (391) 
rxn512b____EMOL36790511____EMOL719673____EMOL13081280-3

>  <s_lp_label>  (391) 
2672_sdstereoexpander_3_neutralizer_1_epik_1_stereoizer_1

>  <s_m_source_file>  (391) 
ATP-VSW-LIGPREP-001-in.maegz

>  <s_sd_BIOSOLVEIT.INFINISEE\_QUERY\_NAME>  (391) 
Ref-Lig

>  <s_sd_BIOSOLVEIT.INFINISEE\_QUERY\_SMILES>  (391) 
S(c1nc2c(cc1C[NH2+]Cc3ccc(cc3)C[NH+](C)C)cccc2)Cc4ccccc4

>  <s_sd_BIOSOLVEIT.INFINISEE\_REACTION\_NAME>  (391) 
rxn512b

>  <s_sd_BIOSOLVEIT.INFINISEE\_REAGENT1\_NAME>  (391) 
EMOL36790511

>  <s_sd_BIOSOLVEIT.INFINISEE\_REAGENT1\_SMILES>  (391) 
N#CC(Nc1ccccc1)C

>  <s_sd_BIOSOLVEIT.INFINISEE\_REAGENT2\_NAME>  (391) 
EMOL719673

>  <s_sd_BIOSOLVEIT.INFINISEE\_REAGENT2\_SMILES>  (391) 
BrC=1c2c(NC1C(=O)O)cccc2

>  <s_sd_BIOSOLVEIT.INFINISEE\_REAGENT3\_NAME>  (391) 
EMOL13081280

>  <s_sd_BIOSOLVEIT.INFINISEE\_REAGENT3\_SMILES>  (391) 
Clc1ccc(cc1)C(N(C)C)CN

>  <s_sd_BIOSOLVEIT.INFINISEE\_SPACE>  (391) 
eXplore_7tr_2022-12

>  <s_vsw_compound_code>  (391) 
85473

>  <s_vsw_variant>  (391) 
85473-3

>  <r_epik_Charging_Adjusted_Penalty>  (391) 
0.121933290021271

>  <r_epik_Ionization_Penalty>  (391) 
0.060999999999999999

>  <r_epik_Ionization_Penalty_Charging>  (391) 
0.060999999999999999

>  <r_epik_Ionization_Penalty_Neutral>  (391) 
0.0001

>  <r_epik_State_Penalty>  (391) 
0.060999999999999999

>  <r_i_docking_score>  (391) 
-3.8306209052710098

>  <r_i_glide_ecoul>  (391) 
-7.3960909843444798

>  <r_i_glide_eff_state_penalty>  (391) 
0.060999999999999999

>  <r_i_glide_einternal>  (391) 
5.9508700370788601

>  <r_i_glide_emodel>  (391) 
-54.286625320506602

>  <r_i_glide_energy>  (391) 
-44.008708477020299

>  <r_i_glide_erotb>  (391) 
0.51419168296608098

>  <r_i_glide_esite>  (391) 
-0.28467187552512901

>  <r_i_glide_evdw>  (391) 
-36.612617492675803

>  <r_i_glide_gscore>  (391) 
-3.8916209052710098

>  <r_i_glide_hbond>  (391) 
-0.16

>  <r_i_glide_ligand_efficiency>  (391) 
-0.10944631157917201

>  <r_i_glide_ligand_efficiency_ln>  (391) 
-0.840906304757437

>  <r_i_glide_ligand_efficiency_sa>  (391) 
-0.35800614215675403

>  <r_i_glide_lipo>  (391) 
-0.932565235881051

>  <r_i_glide_metal>  (391) 
-0

>  <r_i_glide_rewards>  (391) 
-0.088530954545454399

>  <r_lp_Energy>  (391) 
45.518562000000003

>  <r_qp_ACxDN^.5/SA>  (391) 
0.0085862999999999998

>  <r_qp_CIQPlogS>  (391) 
-6.6639999999999997

>  <r_qp_EA(eV)>  (391) 
0.53100000000000003

>  <r_qp_FISA>  (391) 
65.444000000000003

>  <r_qp_FOSA>  (391) 
223.964

>  <r_qp_IP(eV)>  (391) 
7.758

>  <r_qp_Jm>  (391) 
0.00015636743025501001

>  <r_qp_PISA>  (391) 
411.63799999999998

>  <r_qp_PSA>  (391) 
74.028999999999996

>  <r_qp_PercentHumanOralAbsorption>  (391) 
94.954999999999998

>  <r_qp_QPPCaco>  (391) 
147.602

>  <r_qp_QPPMDCK>  (391) 
155.10599999999999

>  <r_qp_QPlogBB>  (391) 
0.315

>  <r_qp_QPlogHERG>  (391) 
-7.7690000000000001

>  <r_qp_QPlogKhsa>  (391) 
0.94999999999999996

>  <r_qp_QPlogKp>  (391) 
-4.5369999999999999

>  <r_qp_QPlogPC16>  (391) 
15.778

>  <r_qp_QPlogPo/w>  (391) 
4.9850000000000003

>  <r_qp_QPlogPoct>  (391) 
22.789000000000001

>  <r_qp_QPlogPw>  (391) 
10.686999999999999

>  <r_qp_QPlogS>  (391) 
-4.9560000000000004

>  <r_qp_QPpolrz>  (391) 
50.798999999999999

>  <r_qp_SASA>  (391) 
757.02099999999996

>  <r_qp_SAamideO>  (391) 
0

>  <r_qp_SAfluorine>  (391) 
0

>  <r_qp_WPSA>  (391) 
55.975000000000001

>  <r_qp_accptHB>  (391) 
6.5

>  <r_qp_dip^2/V>  (391) 
0.048971300000000002

>  <r_qp_dipole>  (391) 
8.4819999999999993

>  <r_qp_donorHB>  (391) 
1

>  <r_qp_glob>  (391) 
0.82564309999999996

>  <r_qp_mol_MW>  (391) 
486.01499999999999

>  <r_qp_volume>  (391) 
1469.2750000000001

>  <r_sd_BIOSOLVEIT.INFINISEE\_FTREES\_SIMILARITY>  (391) 
0.90900000000000003

>  <r_sd_BIOSOLVEIT.LOGP>  (391) 
4.67788

>  <r_sd_BIOSOLVEIT.MOLECULAR\_WEIGHT>  (391) 
487.024

>  <r_sd_BIOSOLVEIT.TPSA>  (391) 
76.359999999999999

>  <i_epik_Tot_Q>  (391) 
1

>  <i_epik_Tot_abs_Q>  (391) 
1

>  <i_f3d_flags>  (391) 
0

>  <i_i_glide_confnum>  (391) 
3

>  <i_i_glide_lignum>  (391) 
1176

>  <i_i_glide_posenum>  (391) 
1

>  <i_i_glide_rotatable_bonds>  (391) 
9

>  <i_lp_mmshare_version>  (391) 
65135

>  <i_m_ct_format>  (391) 
2

>  <i_m_source_file_index>  (391) 
2672

>  <i_qp_#NandO>  (391) 
6

>  <i_qp_#acid>  (391) 
0

>  <i_qp_#amide>  (391) 
0

>  <i_qp_#amidine>  (391) 
0

>  <i_qp_#amine>  (391) 
2

>  <i_qp_#in34>  (391) 
0

>  <i_qp_#in56>  (391) 
21

>  <i_qp_#metab>  (391) 
6

>  <i_qp_#nonHatm>  (391) 
35

>  <i_qp_#noncon>  (391) 
0

>  <i_qp_#ringatoms>  (391) 
21

>  <i_qp_#rotor>  (391) 
9

>  <i_qp_#rtvFG>  (391) 
0

>  <i_qp_#stars>  (391) 
1

>  <i_qp_CNS>  (391) 
1

>  <i_qp_HumanOralAbsorption>  (391) 
3

>  <i_qp_RuleOfFive>  (391) 
0

>  <i_qp_RuleOfThree>  (391) 
0

>  <i_sd_BIOSOLVEIT.INFINISEE\_RESULT\_RANK>  (391) 
49251

>  <i_sd_version>  (391) 
0

>  <b_lp_Chiralities_Consistent>  (391) 
1

>  <b_sd_chiral_flag>  (391) 
0

>  <canonical_id>  (391) 
ATP-HTVS-3FE2C8D8A747

>  <compound_code>  (391) 
85473

>  <title>  (391) 
rxn512b____EMOL36790511____EMOL719673____EMOL13081280

>  <variant>  (391) 
85473-3

>  <source_file>  (391) 
运行/运行/ATP-VSW/ATP-VSW-DOCK_HTVS_1-001_lib/ATP-VSW-DOCK_HTVS_1-001_lib

>  <canonical_smiles>  (391) 
C[C@@H](C#N)N(C(=O)c1[nH]c2ccccc2c1NC[C@@H](c1ccc(Cl)cc1)[NH+](C)C)c1ccccc1

>  <scaffold>  (391) 
O=C(Nc1ccccc1)c1[nH]c2ccccc2c1NCCc1ccccc1

>  <molecular_formula>  (391) 
C28H29ClN5O+

$$$$
ATP-HTVS-3FE3F52D89A6
     RDKit          3D

 55 58  0  0  0  0  0  0  0  0999 V2000
  196.7549  180.6595  150.8949 S   0  0  0  0  0  0  0  0  0  0  0  0
  196.9313  180.9294  152.5985 C   0  0  0  0  0  0  0  0  0  0  0  0
  197.2594  182.2114  153.0908 C   0  0  0  0  0  0  0  0  0  0  0  0
  197.4035  182.4223  154.4816 C   0  0  0  0  0  0  0  0  0  0  0  0
  197.2326  181.3316  155.3687 C   0  0  0  0  0  0  0  0  0  0  0  0
  196.9034  180.0565  154.8745 C   0  0  0  0  0  0  0  0  0  0  0  0
  196.7552  179.8540  153.4885 C   0  0  0  0  0  0  0  0  0  0  0  0
  197.7773  183.7813  154.9990 C   0  0  0  0  0  0  0  0  0  0  0  0
  198.4321  184.5576  154.3025 O   0  0  0  0  0  0  0  0  0  0  0  0
  197.2820  184.0643  156.2201 N   0  0  0  0  0  0  0  0  0  0  0  0
  197.5249  185.1970  157.0449 C   0  0  0  0  0  0  0  0  0  0  0  0
  198.4934  186.0925  156.7482 N   0  0  0  0  0  0  0  0  0  0  0  0
  198.7080  187.1439  157.5562 C   0  0  0  0  0  0  0  0  0  0  0  0
  197.9804  187.3878  158.7395 C   0  0  0  0  0  0  0  0  0  0  0  0
  198.2724  188.4805  159.5824 N   0  0  0  0  0  0  0  0  0  0  0  0
  199.2852  189.4784  159.2601 C   0  0  1  0  0  0  0  0  0  0  0  0
  198.7496  190.6343  158.4327 C   0  0  0  0  0  0  0  0  0  0  0  0
  199.3521  190.9868  157.2089 C   0  0  0  0  0  0  0  0  0  0  0  0
  198.8579  192.0811  156.4673 C   0  0  0  0  0  0  0  0  0  0  0  0
  197.7541  192.8294  156.9283 C   0  0  0  0  0  0  0  0  0  0  0  0
  197.2834  193.8837  156.1289 N   0  0  0  0  0  0  0  0  0  0  0  0
  196.3017  194.8548  156.5954 C   0  0  1  0  0  0  0  0  0  0  0  0
  196.9863  196.1027  157.1757 C   0  0  1  0  0  0  0  0  0  0  0  0
  197.1625  197.0367  156.1343 O   0  0  0  0  0  0  0  0  0  0  0  0
  197.1568  192.4706  158.1581 C   0  0  0  0  0  0  0  0  0  0  0  0
  197.6487  191.3799  158.9007 C   0  0  0  0  0  0  0  0  0  0  0  0
  196.9555  186.4605  159.0644 C   0  0  0  0  0  0  0  0  0  0  0  0
  196.7254  185.3442  158.2117 C   0  0  0  0  0  0  0  0  0  0  0  0
  195.7022  184.4162  158.5420 C   0  0  0  0  0  0  0  0  0  0  0  0
  194.9194  184.5991  159.6944 C   0  0  0  0  0  0  0  0  0  0  0  0
  195.1454  185.7046  160.5328 C   0  0  0  0  0  0  0  0  0  0  0  0
  196.1574  186.6294  160.2212 C   0  0  0  0  0  0  0  0  0  0  0  0
  197.3973  183.0399  152.4105 H   0  0  0  0  0  0  0  0  0  0  0  0
  197.3493  181.4463  156.4384 H   0  0  0  0  0  0  0  0  0  0  0  0
  196.7723  179.2370  155.5665 H   0  0  0  0  0  0  0  0  0  0  0  0
  196.5101  178.8743  153.1101 H   0  0  0  0  0  0  0  0  0  0  0  0
  196.6680  183.3604  156.6020 H   0  0  0  0  0  0  0  0  0  0  0  0
  199.5050  187.7887  157.2227 H   0  0  0  0  0  0  0  0  0  0  0  0
  197.6994  188.6617  160.3962 H   0  0  0  0  0  0  0  0  0  0  0  0
  199.6559  189.8866  160.2025 H   0  0  0  0  0  0  0  0  0  0  0  0
  200.1551  189.0287  158.7736 H   0  0  0  0  0  0  0  0  0  0  0  0
  200.1945  190.4165  156.8320 H   0  0  0  0  0  0  0  0  0  0  0  0
  199.3312  192.3281  155.5295 H   0  0  0  0  0  0  0  0  0  0  0  0
  197.8670  194.1844  155.3640 H   0  0  0  0  0  0  0  0  0  0  0  0
  195.6477  195.1320  155.7649 H   0  0  0  0  0  0  0  0  0  0  0  0
  195.6311  194.4323  157.3419 H   0  0  0  0  0  0  0  0  0  0  0  0
  196.3498  196.5552  157.9328 H   0  0  0  0  0  0  0  0  0  0  0  0
  197.9357  195.8740  157.6645 H   0  0  0  0  0  0  0  0  0  0  0  0
  197.5782  197.8126  156.4814 H   0  0  0  0  0  0  0  0  0  0  0  0
  196.3132  193.0087  158.5565 H   0  0  0  0  0  0  0  0  0  0  0  0
  197.1802  191.1151  159.8373 H   0  0  0  0  0  0  0  0  0  0  0  0
  195.4811  183.5616  157.9206 H   0  0  0  0  0  0  0  0  0  0  0  0
  194.1362  183.8911  159.9234 H   0  0  0  0  0  0  0  0  0  0  0  0
  194.5312  185.8469  161.4113 H   0  0  0  0  0  0  0  0  0  0  0  0
  196.3056  187.4660  160.8861 H   0  0  0  0  0  0  0  0  0  0  0  0
  1  2  1  0
  2  3  2  0
  2  7  1  0
  3  4  1  0
  3 33  1  0
  4  5  2  0
  4  8  1  0
  5  6  1  0
  5 34  1  0
  6  7  2  0
  6 35  1  0
  7 36  1  0
  8  9  2  0
  8 10  1  0
 10 11  1  0
 10 37  1  0
 11 12  1  0
 11 28  2  0
 12 13  2  0
 13 14  1  0
 13 38  1  0
 14 15  1  0
 14 27  2  0
 15 16  1  0
 15 39  1  0
 16 17  1  0
 16 40  1  1
 16 41  1  0
 17 18  1  0
 17 26  2  0
 18 19  2  0
 18 42  1  0
 19 20  1  0
 19 43  1  0
 20 21  1  0
 20 25  2  0
 21 22  1  0
 21 44  1  0
 22 23  1  0
 22 45  1  6
 22 46  1  0
 23 24  1  0
 23 47  1  1
 23 48  1  0
 24 49  1  0
 25 26  1  0
 25 50  1  0
 26 51  1  0
 27 28  1  0
 27 32  1  0
 28 29  1  0
 29 30  2  0
 29 52  1  0
 30 31  1  0
 30 53  1  0
 31 32  2  0
 31 54  1  0
 32 55  1  0
M  CHG  1   1  -1
M  END
>  <s_epik_cmdline>  (392) 
J2VwaWtfcHl0aG9uJywgJy1waCcsICc3LjAwMDAwMCcsICctcGh0JywgJzIuMDAwMDAwJywgJy1tcycsICcxNicsICctdG4nLCAnOCcsICctbWEnLCAnMjAwJywgJy1pbWFlJywgJzxpbmZpbGUubWFlPicsICctb21hZScsICc8b3V0ZmlsZS5tYWU+Jw==

>  <s_epik_input>  (392) 
W1NIXWMxW2NIXWMoW2NIXVtjSF1bY0hdMSlDKD1PKVtOSF1jKGMoYzIzKVtjSF1bY0hdW2NIXVtjSF0zKW5bY0hdYzJbTkhdW0NIMl1jNFtjSF1bY0hdYyhbY0hdW2NIXTQpW05IXVtDSDJdW0NIMl1bT0hd

>  <s_i_glide_gridfile>  (392) 
ATP-Grid

>  <s_lp_Force_Field>  (392) 
OPLS_2005

>  <s_lp_Variant>  (392) 
rxn502b____EMOL509335____EMOL7515103____EMOL324170366-1

>  <s_lp_label>  (392) 
2445_sdstereoexpander_1_neutralizer_1_epik_1_stereoizer_1

>  <s_m_source_file>  (392) 
ATP-VSW-LIGPREP-002-in.maegz

>  <s_sd_BIOSOLVEIT.INFINISEE\_QUERY\_NAME>  (392) 
Ref-Lig

>  <s_sd_BIOSOLVEIT.INFINISEE\_QUERY\_SMILES>  (392) 
S(c1nc2c(cc1C[NH2+]Cc3ccc(cc3)C[NH+](C)C)cccc2)Cc4ccccc4

>  <s_sd_BIOSOLVEIT.INFINISEE\_REACTION\_NAME>  (392) 
rxn502b

>  <s_sd_BIOSOLVEIT.INFINISEE\_REAGENT1\_NAME>  (392) 
EMOL509335

>  <s_sd_BIOSOLVEIT.INFINISEE\_REAGENT1\_SMILES>  (392) 
Sc1cc(ccc1)C(=O)O

>  <s_sd_BIOSOLVEIT.INFINISEE\_REAGENT2\_NAME>  (392) 
EMOL7515103

>  <s_sd_BIOSOLVEIT.INFINISEE\_REAGENT2\_SMILES>  (392) 
Brc1c2c(c(nc1)N)cccc2

>  <s_sd_BIOSOLVEIT.INFINISEE\_REAGENT3\_NAME>  (392) 
EMOL324170366

>  <s_sd_BIOSOLVEIT.INFINISEE\_REAGENT3\_SMILES>  (392) 
OCCNc1ccc(cc1)CN

>  <s_sd_BIOSOLVEIT.INFINISEE\_SPACE>  (392) 
eXplore_7tr_2022-12

>  <s_vsw_compound_code>  (392) 
78210

>  <s_vsw_variant>  (392) 
78210-1

>  <r_epik_Charging_Adjusted_Penalty>  (392) 
0.039107006521490399

>  <r_epik_Ionization_Penalty>  (392) 
0.025700000000000001

>  <r_epik_Ionization_Penalty_Charging>  (392) 
0.0138

>  <r_epik_Ionization_Penalty_Neutral>  (392) 
0.0118

>  <r_epik_State_Penalty>  (392) 
0.0253

>  <r_i_docking_score>  (392) 
-2.78535707475528

>  <r_i_glide_ecoul>  (392) 
2.0369396209716801

>  <r_i_glide_eff_state_penalty>  (392) 
0.0253

>  <r_i_glide_einternal>  (392) 
7.5610990524292001

>  <r_i_glide_emodel>  (392) 
-39.988862038389598

>  <r_i_glide_energy>  (392) 
-36.9489650726318

>  <r_i_glide_erotb>  (392) 
0.91462113578919202

>  <r_i_glide_esite>  (392) 
-0.055136441176987197

>  <r_i_glide_evdw>  (392) 
-38.985904693603501

>  <r_i_glide_gscore>  (392) 
-2.8106570747552801

>  <r_i_glide_hbond>  (392) 
0

>  <r_i_glide_ligand_efficiency>  (392) 
-0.087042408586102599

>  <r_i_glide_ligand_efficiency_ln>  (392) 
-0.62371737500398206

>  <r_i_glide_ligand_efficiency_sa>  (392) 
-0.27634242159160699

>  <r_i_glide_lipo>  (392) 
-1.64144465965125

>  <r_i_glide_metal>  (392) 
-0

>  <r_i_glide_rewards>  (392) 
-0.38494281818181703

>  <r_lp_Energy>  (392) 
32.140149999999998

>  <r_qp_ACxDN^.5/SA>  (392) 
0.020772200000000001

>  <r_qp_CIQPlogS>  (392) 
-6.2030000000000003

>  <r_qp_EA(eV)>  (392) 
0.79100000000000004

>  <r_qp_FISA>  (392) 
134.28800000000001

>  <r_qp_FOSA>  (392) 
122.23099999999999

>  <r_qp_IP(eV)>  (392) 
7.5670000000000002

>  <r_qp_Jm>  (392) 
0.0073143818963123204

>  <r_qp_PISA>  (392) 
478.16199999999998

>  <r_qp_PSA>  (392) 
91.539000000000001

>  <r_qp_PercentHumanOralAbsorption>  (392) 
100

>  <r_qp_QPPCaco>  (392) 
527.76999999999998

>  <r_qp_QPPMDCK>  (392) 
658.649

>  <r_qp_QPlogBB>  (392) 
-1.4339999999999999

>  <r_qp_QPlogHERG>  (392) 
-7.8330000000000002

>  <r_qp_QPlogKhsa>  (392) 
0.26300000000000001

>  <r_qp_QPlogKp>  (392) 
-1.3500000000000001

>  <r_qp_QPlogPC16>  (392) 
17.66

>  <r_qp_QPlogPo/w>  (392) 
4.2030000000000003

>  <r_qp_QPlogPoct>  (392) 
28.908000000000001

>  <r_qp_QPlogPw>  (392) 
18.274999999999999

>  <r_qp_QPlogS>  (392) 
-6.4340000000000002

>  <r_qp_QPpolrz>  (392) 
48.732999999999997

>  <r_qp_SASA>  (392) 
812.13800000000003

>  <r_qp_SAamideO>  (392) 
0

>  <r_qp_SAfluorine>  (392) 
0

>  <r_qp_WPSA>  (392) 
77.456999999999994

>  <r_qp_accptHB>  (392) 
7.7000000000000002

>  <r_qp_dip^2/V>  (392) 
0.087708400000000006

>  <r_qp_dipole>  (392) 
11.151

>  <r_qp_donorHB>  (392) 
4.7999999999999998

>  <r_qp_glob>  (392) 
0.75153700000000001

>  <r_qp_mol_MW>  (392) 
444.55000000000001

>  <r_qp_volume>  (392) 
1417.826

>  <r_sd_BIOSOLVEIT.INFINISEE\_FTREES\_SIMILARITY>  (392) 
0.91600000000000004

>  <r_sd_BIOSOLVEIT.LOGP>  (392) 
5.1722999999999999

>  <r_sd_BIOSOLVEIT.MOLECULAR\_WEIGHT>  (392) 
444.55599999999998

>  <r_sd_BIOSOLVEIT.TPSA>  (392) 
86.280000000000001

>  <i_epik_Tot_Q>  (392) 
-1

>  <i_epik_Tot_abs_Q>  (392) 
1

>  <i_f3d_flags>  (392) 
0

>  <i_i_glide_confnum>  (392) 
7

>  <i_i_glide_lignum>  (392) 
1053

>  <i_i_glide_posenum>  (392) 
13

>  <i_i_glide_rotatable_bonds>  (392) 
10

>  <i_lp_mmshare_version>  (392) 
65135

>  <i_m_ct_format>  (392) 
2

>  <i_m_source_file_index>  (392) 
2445

>  <i_qp_#NandO>  (392) 
6

>  <i_qp_#acid>  (392) 
0

>  <i_qp_#amide>  (392) 
0

>  <i_qp_#amidine>  (392) 
0

>  <i_qp_#amine>  (392) 
0

>  <i_qp_#in34>  (392) 
0

>  <i_qp_#in56>  (392) 
22

>  <i_qp_#metab>  (392) 
9

>  <i_qp_#nonHatm>  (392) 
32

>  <i_qp_#noncon>  (392) 
0

>  <i_qp_#ringatoms>  (392) 
22

>  <i_qp_#rotor>  (392) 
10

>  <i_qp_#rtvFG>  (392) 
1

>  <i_qp_#stars>  (392) 
3

>  <i_qp_CNS>  (392) 
-2

>  <i_qp_HumanOralAbsorption>  (392) 
1

>  <i_qp_RuleOfFive>  (392) 
0

>  <i_qp_RuleOfThree>  (392) 
2

>  <i_sd_BIOSOLVEIT.INFINISEE\_RESULT\_RANK>  (392) 
24902

>  <i_sd_version>  (392) 
0

>  <b_lp_Chiralities_Consistent>  (392) 
1

>  <b_sd_chiral_flag>  (392) 
0

>  <canonical_id>  (392) 
ATP-HTVS-3FE3F52D89A6

>  <compound_code>  (392) 
78210

>  <title>  (392) 
rxn502b____EMOL509335____EMOL7515103____EMOL324170366

>  <variant>  (392) 
78210-1

>  <source_file>  (392) 
运行/运行/ATP-VSW/ATP-VSW-DOCK_HTVS_1-002_lib.maegz

>  <canonical_smiles>  (392) 
O=C(Nc1ncc(NCc2ccc(NCCO)cc2)c2ccccc12)c1cccc([S-])c1

>  <scaffold>  (392) 
O=C(Nc1ncc(NCc2ccccc2)c2ccccc12)c1ccccc1

>  <molecular_formula>  (392) 
C25H23N4O2S-

$$$$
ATP-HTVS-3FEB13A0176D
     RDKit          3D

 55 58  0  0  0  0  0  0  0  0999 V2000
  200.2948  178.8743  152.8432 S   0  0  0  0  0  0  0  0  0  0  0  0
  200.7305  177.5614  153.9081 C   0  0  0  0  0  0  0  0  0  0  0  0
  199.9988  177.6249  155.1339 C   0  0  0  0  0  0  0  0  0  0  0  0
  200.2626  176.6296  156.0948 C   0  0  0  0  0  0  0  0  0  0  0  0
  201.1966  175.6083  155.8493 C   0  0  0  0  0  0  0  0  0  0  0  0
  201.8952  175.5660  154.6297 C   0  0  0  0  0  0  0  0  0  0  0  0
  201.6665  176.5460  153.6550 C   0  0  0  0  0  0  0  0  0  0  0  0
  199.0829  178.7276  155.1621 C   0  0  0  0  0  0  0  0  0  0  0  0
  199.1299  179.4643  153.9975 C   0  0  0  0  0  0  0  0  0  0  0  0
  198.3562  180.6993  153.6708 C   0  0  1  0  0  0  0  0  0  0  0  0
  197.2598  180.4534  152.7505 N   0  0  0  0  0  0  0  0  0  0  0  0
  197.6008  180.7725  151.3700 C   0  0  1  0  0  0  0  0  0  0  0  0
  196.6791  180.0594  150.4796 C   0  0  0  0  0  0  0  0  0  0  0  0
  195.9497  179.5011  149.7786 N   0  0  0  0  0  0  0  0  0  0  0  0
  197.6125  182.2694  151.0427 C   0  0  0  0  0  0  0  0  0  0  0  0
  197.7094  182.6841  149.6956 C   0  0  0  0  0  0  0  0  0  0  0  0
  197.7005  184.0577  149.3732 C   0  0  0  0  0  0  0  0  0  0  0  0
  197.6211  185.0345  150.3867 C   0  0  0  0  0  0  0  0  0  0  0  0
  197.5450  184.6305  151.7290 C   0  0  0  0  0  0  0  0  0  0  0  0
  197.5216  183.2689  152.0465 C   0  0  0  0  0  0  0  0  0  0  0  0
  197.7917  181.2942  154.8631 C   0  0  0  0  0  0  0  0  0  0  0  0
  197.2725  181.7345  155.8682 C   0  0  0  0  0  0  0  0  0  0  0  0
  196.8674  182.2833  157.1552 C   0  0  1  0  0  0  0  0  0  0  0  0
  195.4949  181.8336  157.4337 N   0  0  1  0  0  0  0  0  0  0  0  0
  195.0167  182.1415  158.8067 C   0  0  1  0  0  0  0  0  0  0  0  0
  195.4011  183.5109  159.3634 C   0  0  0  0  0  0  0  0  0  0  0  0
  196.7534  183.9075  159.5110 C   0  0  0  0  0  0  0  0  0  0  0  0
  197.0786  185.2156  159.8502 C   0  0  0  0  0  0  0  0  0  0  0  0
  196.0724  186.1612  160.1979 C   0  0  0  0  0  0  0  0  0  0  0  0
  194.7172  185.7417  160.1689 C   0  0  0  0  0  0  0  0  0  0  0  0
  194.3705  184.4284  159.7326 C   0  0  0  0  0  0  0  0  0  0  0  0
  196.9202  179.5050  152.8521 H   0  0  0  0  0  0  0  0  0  0  0  0
  194.8612  182.2237  156.7301 H   0  0  0  0  0  0  0  0  0  0  0  0
  199.7097  176.6576  157.0247 H   0  0  0  0  0  0  0  0  0  0  0  0
  201.3650  174.8511  156.5985 H   0  0  0  0  0  0  0  0  0  0  0  0
  202.6082  174.7796  154.4460 H   0  0  0  0  0  0  0  0  0  0  0  0
  202.1983  176.5324  152.7153 H   0  0  0  0  0  0  0  0  0  0  0  0
  198.4499  178.9162  156.0277 H   0  0  0  0  0  0  0  0  0  0  0  0
  199.0465  181.4579  153.2930 H   0  0  0  0  0  0  0  0  0  0  0  0
  198.5835  180.3592  151.1618 H   0  0  0  0  0  0  0  0  0  0  0  0
  197.7768  181.9550  148.8974 H   0  0  0  0  0  0  0  0  0  0  0  0
  197.7512  184.3739  148.3452 H   0  0  0  0  0  0  0  0  0  0  0  0
  197.6122  186.0914  150.1581 H   0  0  0  0  0  0  0  0  0  0  0  0
  197.4867  185.3437  152.5400 H   0  0  0  0  0  0  0  0  0  0  0  0
  197.4243  183.0450  153.0907 H   0  0  0  0  0  0  0  0  0  0  0  0
  197.5720  181.8926  157.8958 H   0  0  0  0  0  0  0  0  0  0  0  0
  196.9588  183.3643  157.0671 H   0  0  0  0  0  0  0  0  0  0  0  0
  193.9327  182.0164  158.7727 H   0  0  0  0  0  0  0  0  0  0  0  0
  195.3675  181.3731  159.4911 H   0  0  0  0  0  0  0  0  0  0  0  0
  197.5780  183.2342  159.3571 H   0  0  0  0  0  0  0  0  0  0  0  0
  198.1037  185.5342  159.8261 H   0  0  0  0  0  0  0  0  0  0  0  0
  196.3448  187.1737  160.5145 H   0  0  0  0  0  0  0  0  0  0  0  0
  193.9214  186.4400  160.4856 H   0  0  0  0  0  0  0  0  0  0  0  0
  193.3130  184.1615  159.6628 H   0  0  0  0  0  0  0  0  0  0  0  0
  195.4980  180.8162  157.3351 H   0  0  0  0  0  0  0  0  0  0  0  0
  1  2  1  0
  1  9  1  0
  2  3  1  0
  2  7  2  0
  3  4  2  0
  3  8  1  0
  4  5  1  0
  4 34  1  0
  5  6  2  0
  5 35  1  0
  6  7  1  0
  6 36  1  0
  7 37  1  0
  8  9  2  0
  8 38  1  0
  9 10  1  0
 10 11  1  0
 10 21  1  0
 10 39  1  6
 11 12  1  0
 11 32  1  0
 12 13  1  0
 12 15  1  0
 12 40  1  6
 13 14  3  0
 15 16  2  0
 15 20  1  0
 16 17  1  0
 16 41  1  0
 17 18  2  0
 17 42  1  0
 18 19  1  0
 18 43  1  0
 19 20  2  0
 19 44  1  0
 20 45  1  0
 21 22  3  0
 22 23  1  0
 23 24  1  0
 23 46  1  1
 23 47  1  0
 24 25  1  0
 24 33  1  6
 24 55  1  0
 25 26  1  0
 25 48  1  6
 25 49  1  0
 26 27  2  0
 26 31  1  0
 27 28  1  0
 27 50  1  0
 28 29  2  0
 28 51  1  0
 29 30  1  0
 29 52  1  0
 30 31  2  0
 30 53  1  0
 31 54  1  0
M  CHG  1  24   1
M  END
>  <s_epik_cmdline>  (393) 
J2VwaWtfcHl0aG9uJywgJy1waCcsICc3LjAwMDAwMCcsICctcGh0JywgJzIuMDAwMDAwJywgJy1tcycsICcxNicsICctdG4nLCAnOCcsICctbWEnLCAnMjAwJywgJy1pbWFlJywgJzxpbmZpbGUubWFlPicsICctb21hZScsICc8b3V0ZmlsZS5tYWU+Jw==

>  <s_epik_input>  (393) 
W2NIXTFbY0hdW2NIXVtjSF1bY0hdYzFbQ0BIXShDI04pW05IXVtDQEhdKGMoczIpW2NIXWMoYzIzKVtjSF1bY0hdW2NIXVtjSF0zKUMjQ1tDSDJdW05IXVtDSDJdYzRbY0hdW2NIXVtjSF1bY0hdW2NIXTQ=

>  <s_i_glide_gridfile>  (393) 
ATP-Grid

>  <s_lp_Force_Field>  (393) 
OPLS_2005

>  <s_lp_Variant>  (393) 
rxn403____EMOL44390368____EMOL720244____EMOL1197208-6

>  <s_lp_label>  (393) 
2478_sdstereoexpander_2_neutralizer_1_epik_2_stereoizer_1

>  <s_m_source_file>  (393) 
ATP-VSW-LIGPREP-001-in.maegz

>  <s_sd_BIOSOLVEIT.INFINISEE\_QUERY\_NAME>  (393) 
Ref-Lig

>  <s_sd_BIOSOLVEIT.INFINISEE\_QUERY\_SMILES>  (393) 
S(c1nc2c(cc1C[NH2+]Cc3ccc(cc3)C[NH+](C)C)cccc2)Cc4ccccc4

>  <s_sd_BIOSOLVEIT.INFINISEE\_REACTION\_NAME>  (393) 
rxn403

>  <s_sd_BIOSOLVEIT.INFINISEE\_REAGENT1\_NAME>  (393) 
EMOL44390368

>  <s_sd_BIOSOLVEIT.INFINISEE\_REAGENT1\_SMILES>  (393) 
N#CC(N)c1ccccc1

>  <s_sd_BIOSOLVEIT.INFINISEE\_REAGENT2\_NAME>  (393) 
EMOL720244

>  <s_sd_BIOSOLVEIT.INFINISEE\_REAGENT2\_SMILES>  (393) 
S1c2c(cccc2)C=C1C=O

>  <s_sd_BIOSOLVEIT.INFINISEE\_REAGENT3\_NAME>  (393) 
EMOL1197208

>  <s_sd_BIOSOLVEIT.INFINISEE\_REAGENT3\_SMILES>  (393) 
N(CC#C)Cc1ccccc1

>  <s_sd_BIOSOLVEIT.INFINISEE\_SPACE>  (393) 
eXplore_7tr_2022-12

>  <s_vsw_compound_code>  (393) 
79265

>  <s_vsw_variant>  (393) 
79265-6

>  <r_epik_Charging_Adjusted_Penalty>  (393) 
0.99449727091298001

>  <r_epik_Ionization_Penalty>  (393) 
0.5

>  <r_epik_Ionization_Penalty_Charging>  (393) 
0.49719999999999998

>  <r_epik_Ionization_Penalty_Neutral>  (393) 
0.0027000000000000001

>  <r_epik_State_Penalty>  (393) 
0.49719999999999998

>  <r_i_docking_score>  (393) 
-6.1049705178208802

>  <r_i_glide_ecoul>  (393) 
-11.668799400329601

>  <r_i_glide_eff_state_penalty>  (393) 
0.49719999999999998

>  <r_i_glide_einternal>  (393) 
8.8885316848754901

>  <r_i_glide_emodel>  (393) 
-76.755817942427996

>  <r_i_glide_energy>  (393) 
-50.353110313415499

>  <r_i_glide_erotb>  (393) 
0.66570597144055599

>  <r_i_glide_esite>  (393) 
-0.10000000000000001

>  <r_i_glide_evdw>  (393) 
-38.684310913085902

>  <r_i_glide_gscore>  (393) 
-6.6021705178208796

>  <r_i_glide_hbond>  (393) 
-0.40000000000000002

>  <r_i_glide_ligand_efficiency>  (393) 
-0.196934532832932

>  <r_i_glide_ligand_efficiency_ln>  (393) 
-1.37685794664573

>  <r_i_glide_ligand_efficiency_sa>  (393) 
-0.61864633052096796

>  <r_i_glide_lipo>  (393) 
-2.1253093673666599

>  <r_i_glide_metal>  (393) 
-0

>  <r_i_glide_rewards>  (393) 
-0.95803166619103697

>  <r_lp_Energy>  (393) 
13.903465000000001

>  <r_qp_ACxDN^.5/SA>  (393) 
0.0086630000000000006

>  <r_qp_CIQPlogS>  (393) 
-6.0590000000000002

>  <r_qp_EA(eV)>  (393) 
0.80800000000000005

>  <r_qp_FISA>  (393) 
77.349999999999994

>  <r_qp_FOSA>  (393) 
106.485

>  <r_qp_IP(eV)>  (393) 
8.8640000000000008

>  <r_qp_Jm>  (393) 
0.000252097315531427

>  <r_qp_PISA>  (393) 
515.81399999999996

>  <r_qp_PSA>  (393) 
48.353000000000002

>  <r_qp_PercentHumanOralAbsorption>  (393) 
92.144999999999996

>  <r_qp_QPPCaco>  (393) 
113.812

>  <r_qp_QPPMDCK>  (393) 
89.850999999999999

>  <r_qp_QPlogBB>  (393) 
0.047

>  <r_qp_QPlogHERG>  (393) 
-8.6069999999999993

>  <r_qp_QPlogKhsa>  (393) 
0.91800000000000004

>  <r_qp_QPlogKp>  (393) 
-4.2930000000000001

>  <r_qp_QPlogPC16>  (393) 
15.682

>  <r_qp_QPlogPo/w>  (393) 
4.8499999999999996

>  <r_qp_QPlogPoct>  (393) 
21.155000000000001

>  <r_qp_QPlogPw>  (393) 
10.69

>  <r_qp_QPlogS>  (393) 
-4.9299999999999997

>  <r_qp_QPpolrz>  (393) 
46.417000000000002

>  <r_qp_SASA>  (393) 
734.61800000000005

>  <r_qp_SAamideO>  (393) 
0

>  <r_qp_SAfluorine>  (393) 
0

>  <r_qp_WPSA>  (393) 
34.969000000000001

>  <r_qp_accptHB>  (393) 
4.5

>  <r_qp_dip^2/V>  (393) 
0.018316200000000001

>  <r_qp_dipole>  (393) 
4.9740000000000002

>  <r_qp_donorHB>  (393) 
2

>  <r_qp_glob>  (393) 
0.80451700000000004

>  <r_qp_mol_MW>  (393) 
421.55900000000003

>  <r_qp_volume>  (393) 
1350.9749999999999

>  <r_sd_BIOSOLVEIT.INFINISEE\_FTREES\_SIMILARITY>  (393) 
0.91500000000000004

>  <r_sd_BIOSOLVEIT.LOGP>  (393) 
3.5376799999999999

>  <r_sd_BIOSOLVEIT.MOLECULAR\_WEIGHT>  (393) 
423.58100000000002

>  <r_sd_BIOSOLVEIT.TPSA>  (393) 
57.009999999999998

>  <i_epik_Tot_Q>  (393) 
1

>  <i_epik_Tot_abs_Q>  (393) 
1

>  <i_f3d_flags>  (393) 
0

>  <i_i_glide_confnum>  (393) 
7

>  <i_i_glide_lignum>  (393) 
972

>  <i_i_glide_posenum>  (393) 
3

>  <i_i_glide_rotatable_bonds>  (393) 
9

>  <i_lp_mmshare_version>  (393) 
65135

>  <i_m_ct_format>  (393) 
2

>  <i_m_source_file_index>  (393) 
2478

>  <i_qp_#NandO>  (393) 
3

>  <i_qp_#acid>  (393) 
0

>  <i_qp_#amide>  (393) 
0

>  <i_qp_#amidine>  (393) 
0

>  <i_qp_#amine>  (393) 
2

>  <i_qp_#in34>  (393) 
0

>  <i_qp_#in56>  (393) 
21

>  <i_qp_#metab>  (393) 
8

>  <i_qp_#nonHatm>  (393) 
31

>  <i_qp_#noncon>  (393) 
0

>  <i_qp_#ringatoms>  (393) 
21

>  <i_qp_#rotor>  (393) 
10

>  <i_qp_#rtvFG>  (393) 
0

>  <i_qp_#stars>  (393) 
1

>  <i_qp_CNS>  (393) 
1

>  <i_qp_HumanOralAbsorption>  (393) 
3

>  <i_qp_RuleOfFive>  (393) 
0

>  <i_qp_RuleOfThree>  (393) 
1

>  <i_sd_BIOSOLVEIT.INFINISEE\_RESULT\_RANK>  (393) 
28557

>  <i_sd_version>  (393) 
0

>  <b_lp_Chiralities_Consistent>  (393) 
1

>  <b_sd_chiral_flag>  (393) 
0

>  <canonical_id>  (393) 
ATP-HTVS-3FEB13A0176D

>  <compound_code>  (393) 
79265

>  <title>  (393) 
rxn403____EMOL44390368____EMOL720244____EMOL1197208

>  <variant>  (393) 
79265-6

>  <source_file>  (393) 
运行/运行/ATP-VSW/ATP-VSW-DOCK_HTVS_1-001_lib/ATP-VSW-DOCK_HTVS_1-001_lib

>  <canonical_smiles>  (393) 
N#C[C@H](N[C@@H](C#CC[NH2+]Cc1ccccc1)c1cc2ccccc2s1)c1ccccc1

>  <scaffold>  (393) 
C(#CC(NCc1ccccc1)c1cc2ccccc2s1)C[NH2+]Cc1ccccc1

>  <molecular_formula>  (393) 
C27H24N3S+

$$$$
ATP-HTVS-4019997F6E4F
     RDKit          3D

 67 70  0  0  0  0  0  0  0  0999 V2000
  198.6197  177.4069  151.1850 O   0  0  0  0  0  0  0  0  0  0  0  0
  198.8413  177.3484  149.8344 C   0  0  0  0  0  0  0  0  0  0  0  0
  198.9679  178.4918  149.0070 C   0  0  0  0  0  0  0  0  0  0  0  0
  199.1056  178.3463  147.6211 C   0  0  0  0  0  0  0  0  0  0  0  0
  199.1544  179.5388  146.7938 C   0  0  0  0  0  0  0  0  0  0  0  0
  199.1941  180.4953  146.1441 N   0  0  0  0  0  0  0  0  0  0  0  0
  199.1598  177.0576  147.0547 C   0  0  0  0  0  0  0  0  0  0  0  0
  199.0894  175.9139  147.8768 C   0  0  0  0  0  0  0  0  0  0  0  0
  198.9313  176.0599  149.2668 C   0  0  0  0  0  0  0  0  0  0  0  0
  198.6573  178.6707  151.8072 C   0  0  1  0  0  0  0  0  0  0  0  0
  197.2940  179.3967  151.6598 C   0  0  1  0  0  0  0  0  0  0  0  0
  197.3244  180.7901  152.0810 N   0  0  0  0  0  0  0  0  0  0  0  0
  197.6120  181.1818  153.3984 C   0  0  0  0  0  0  0  0  0  0  0  0
  197.9079  180.2201  154.2984 N   0  0  0  0  0  0  0  0  0  0  0  0
  198.2802  180.5793  155.5403 C   0  0  0  0  0  0  0  0  0  0  0  0
  198.3098  181.8551  155.9533 N   0  0  0  0  0  0  0  0  0  0  0  0
  198.0066  182.8474  155.0890 C   0  0  0  0  0  0  0  0  0  0  0  0
  197.6581  182.5442  153.7519 C   0  0  0  0  0  0  0  0  0  0  0  0
  197.3778  183.5956  152.8426 C   0  0  0  0  0  0  0  0  0  0  0  0
  197.4205  184.9255  153.2924 C   0  0  0  0  0  0  0  0  0  0  0  0
  197.7507  185.2154  154.6300 C   0  0  0  0  0  0  0  0  0  0  0  0
  198.0581  184.1744  155.5281 C   0  0  0  0  0  0  0  0  0  0  0  0
  198.7456  179.6040  156.4076 N   0  0  0  0  0  0  0  0  0  0  0  0
  199.1119  178.2578  156.0036 C   0  0  1  0  0  0  0  0  0  0  0  0
  200.4539  178.2367  155.2640 C   0  0  1  0  0  0  0  0  0  0  0  0
  200.8419  176.8361  154.8489 C   0  0  0  0  0  0  0  0  0  0  0  0
  200.7137  176.4285  153.5001 C   0  0  0  0  0  0  0  0  0  0  0  0
  201.0167  175.1142  153.1044 C   0  0  0  0  0  0  0  0  0  0  0  0
  201.5167  174.2075  154.0594 C   0  0  0  0  0  0  0  0  0  0  0  0
  201.6569  174.6245  155.4064 C   0  0  0  0  0  0  0  0  0  0  0  0
  201.3387  175.9294  155.8040 C   0  0  0  0  0  0  0  0  0  0  0  0
  201.9725  172.8241  153.6167 C   0  0  1  0  0  0  0  0  0  0  0  0
  203.4419  172.6762  153.4966 N   0  0  1  0  0  0  0  0  0  0  0  0
  203.9968  173.2104  152.2435 C   0  0  2  0  0  0  0  0  0  0  0  0
  204.2381  173.0904  154.6668 C   0  0  2  0  0  0  0  0  0  0  0  0
  198.9383  179.4904  149.4077 H   0  0  0  0  0  0  0  0  0  0  0  0
  199.2622  176.9645  145.9853 H   0  0  0  0  0  0  0  0  0  0  0  0
  199.1398  174.9273  147.4515 H   0  0  0  0  0  0  0  0  0  0  0  0
  198.8676  175.1889  149.9104 H   0  0  0  0  0  0  0  0  0  0  0  0
  198.7837  178.4191  152.8453 H   0  0  0  0  0  0  0  0  0  0  0  0
  199.5230  179.2752  151.5299 H   0  0  0  0  0  0  0  0  0  0  0  0
  196.9837  179.4078  150.6207 H   0  0  0  0  0  0  0  0  0  0  0  0
  196.5121  178.8395  152.2018 H   0  0  0  0  0  0  0  0  0  0  0  0
  197.0923  181.4844  151.4010 H   0  0  0  0  0  0  0  0  0  0  0  0
  197.1078  183.3976  151.8173 H   0  0  0  0  0  0  0  0  0  0  0  0
  197.1816  185.7356  152.6184 H   0  0  0  0  0  0  0  0  0  0  0  0
  197.7631  186.2429  154.9666 H   0  0  0  0  0  0  0  0  0  0  0  0
  198.3178  184.3992  156.5502 H   0  0  0  0  0  0  0  0  0  0  0  0
  198.8262  179.8286  157.3798 H   0  0  0  0  0  0  0  0  0  0  0  0
  199.1743  177.6496  156.9013 H   0  0  0  0  0  0  0  0  0  0  0  0
  198.3119  177.8165  155.4064 H   0  0  0  0  0  0  0  0  0  0  0  0
  200.4121  178.8873  154.3924 H   0  0  0  0  0  0  0  0  0  0  0  0
  201.2407  178.6367  155.9088 H   0  0  0  0  0  0  0  0  0  0  0  0
  200.4095  177.1261  152.7317 H   0  0  0  0  0  0  0  0  0  0  0  0
  200.8989  174.8500  152.0542 H   0  0  0  0  0  0  0  0  0  0  0  0
  202.0335  173.9596  156.1537 H   0  0  0  0  0  0  0  0  0  0  0  0
  201.5530  176.2643  156.8203 H   0  0  0  0  0  0  0  0  0  0  0  0
  201.5880  172.0955  154.3366 H   0  0  0  0  0  0  0  0  0  0  0  0
  201.4961  172.5804  152.6667 H   0  0  0  0  0  0  0  0  0  0  0  0
  203.8821  174.3118  152.1609 H   0  0  0  0  0  0  0  0  0  0  0  0
  203.5198  172.7697  151.3638 H   0  0  0  0  0  0  0  0  0  0  0  0
  205.0642  173.0005  152.1678 H   0  0  0  0  0  0  0  0  0  0  0  0
  204.2533  174.1780  154.8262 H   0  0  0  0  0  0  0  0  0  0  0  0
  205.3083  172.8043  154.5651 H   0  0  0  0  0  0  0  0  0  0  0  0
  203.8538  172.5969  155.5524 H   0  0  0  0  0  0  0  0  0  0  0  0
  198.5918  182.0909  156.9031 H   0  0  0  0  0  0  0  0  0  0  0  0
  203.5393  171.6275  153.4892 H   0  0  0  0  0  0  0  0  0  0  0  0
  1  2  1  0
  1 10  1  0
  2  3  1  0
  2  9  2  0
  3  4  2  0
  3 36  1  0
  4  5  1  0
  4  7  1  0
  5  6  3  0
  7  8  2  0
  7 37  1  0
  8  9  1  0
  8 38  1  0
  9 39  1  0
 10 11  1  0
 10 40  1  1
 10 41  1  0
 11 12  1  0
 11 42  1  6
 11 43  1  0
 12 13  1  0
 12 44  1  0
 13 14  2  0
 13 18  1  0
 14 15  1  0
 15 16  2  0
 15 23  1  0
 16 17  1  0
 16 66  1  0
 17 18  1  0
 17 22  2  0
 18 19  2  0
 19 20  1  0
 19 45  1  0
 20 21  2  0
 20 46  1  0
 21 22  1  0
 21 47  1  0
 22 48  1  0
 23 24  1  0
 23 49  1  0
 24 25  1  0
 24 50  1  1
 24 51  1  0
 25 26  1  0
 25 52  1  6
 25 53  1  0
 26 27  1  0
 26 31  2  0
 27 28  2  0
 27 54  1  0
 28 29  1  0
 28 55  1  0
 29 30  2  0
 29 32  1  0
 30 31  1  0
 30 56  1  0
 31 57  1  0
 32 33  1  0
 32 58  1  1
 32 59  1  0
 33 34  1  0
 33 35  1  0
 33 67  1  6
 34 60  1  1
 34 61  1  0
 34 62  1  0
 35 63  1  1
 35 64  1  0
 35 65  1  0
M  CHG  2  16   1  33   1
M  END
>  <s_epik_cmdline>  (394) 
J2VwaWtfcHl0aG9uJywgJy1waCcsICc3LjAwMDAwMCcsICctcGh0JywgJzIuMDAwMDAwJywgJy1tcycsICcxNicsICctdG4nLCAnOCcsICctbWEnLCAnMjAwJywgJy1pbWFlJywgJzxpbmZpbGUubWFlPicsICctb21hZScsICc8b3V0ZmlsZS5tYWU+Jw==

>  <s_epik_input>  (394) 
W2NIXTFbY0hdW2NIXWMoQyNOKVtjSF1jMU9bQ0gyXVtDSDJdW05IXWMoYyhjMjMpW2NIXVtjSF1bY0hdW2NIXTMpbmMobjIpW05IXVtDSDJdW0NIMl1jNFtjSF1bY0hdYyhbY0hdW2NIXTQpW0NIMl1OKFtDSDNdKVtDSDNd

>  <s_i_glide_gridfile>  (394) 
ATP-Grid

>  <s_lp_Force_Field>  (394) 
OPLS_2005

>  <s_lp_Variant>  (394) 
m_282030aaa____21926476____22360182____21967972-1

>  <s_lp_label>  (394) 
903_sdstereoexpander_1_neutralizer_1_epik_1_stereoizer_1

>  <s_m_source_file>  (394) 
ATP-VSW-LIGPREP-002-in.maegz

>  <s_sd_BIOSOLVEIT.INFINISEE\_QUERY\_NAME>  (394) 
Ref-Lig

>  <s_sd_BIOSOLVEIT.INFINISEE\_QUERY\_SMILES>  (394) 
S(c1nc2c(cc1C[NH2+]Cc3ccc(cc3)C[NH+](C)C)cccc2)Cc4ccccc4

>  <s_sd_BIOSOLVEIT.INFINISEE\_REACTION\_NAME>  (394) 
m_282030aaa

>  <s_sd_BIOSOLVEIT.INFINISEE\_REAGENT1\_SMILES>  (394) 
[R1*]NCCOc1cc(C#N)ccc1

>  <s_sd_BIOSOLVEIT.INFINISEE\_REAGENT2\_SMILES>  (394) 
[R2*]c1nc([R1*])c2c(n1)cccc2

>  <s_sd_BIOSOLVEIT.INFINISEE\_REAGENT3\_SMILES>  (394) 
[R2*]NCCc1ccc(cc1)CN(C)C

>  <s_sd_BIOSOLVEIT.INFINISEE\_SPACE>  (394) 
REALSpace_44bn_2023-08

>  <s_vsw_compound_code>  (394) 
28866

>  <s_vsw_variant>  (394) 
28866-1

>  <r_epik_Charging_Adjusted_Penalty>  (394) 
0.114673908890459

>  <r_epik_Ionization_Penalty>  (394) 
0.055199999999999999

>  <r_epik_Ionization_Penalty_Charging>  (394) 
0.055199999999999999

>  <r_epik_Ionization_Penalty_Neutral>  (394) 
0

>  <r_epik_State_Penalty>  (394) 
0.059499999999999997

>  <r_i_docking_score>  (394) 
-4.3688941885639103

>  <r_i_glide_ecoul>  (394) 
-9.5286540985107404

>  <r_i_glide_eff_state_penalty>  (394) 
0.059499999999999997

>  <r_i_glide_einternal>  (394) 
2.2081573009490998

>  <r_i_glide_emodel>  (394) 
-59.469133336034197

>  <r_i_glide_energy>  (394) 
-41.461938858032198

>  <r_i_glide_erotb>  (394) 
0.919535087352502

>  <r_i_glide_esite>  (394) 
-0.26583309805398297

>  <r_i_glide_evdw>  (394) 
-31.933284759521499

>  <r_i_glide_gscore>  (394) 
-4.4283941885639102

>  <r_i_glide_hbond>  (394) 
-0.20000000000000001

>  <r_i_glide_ligand_efficiency>  (394) 
-0.124825548244683

>  <r_i_glide_ligand_efficiency_ln>  (394) 
-0.95906923677209799

>  <r_i_glide_ligand_efficiency_sa>  (394) 
-0.408312645030106

>  <r_i_glide_lipo>  (394) 
-1.4169970978370201

>  <r_i_glide_metal>  (394) 
-0

>  <r_i_glide_rewards>  (394) 
-0.43913672727272601

>  <r_lp_Energy>  (394) 
12.259675

>  <r_qp_ACxDN^.5/SA>  (394) 
0.0134401

>  <r_qp_CIQPlogS>  (394) 
-7.016

>  <r_qp_EA(eV)>  (394) 
0.68000000000000005

>  <r_qp_FISA>  (394) 
75.215999999999994

>  <r_qp_FOSA>  (394) 
266.24799999999999

>  <r_qp_IP(eV)>  (394) 
8.1150000000000002

>  <r_qp_Jm>  (394) 
0.0123761379669749

>  <r_qp_PISA>  (394) 
421.404

>  <r_qp_PSA>  (394) 
78.167000000000002

>  <r_qp_PercentHumanOralAbsorption>  (394) 
100

>  <r_qp_QPPCaco>  (394) 
478.11099999999999

>  <r_qp_QPPMDCK>  (394) 
246.512

>  <r_qp_QPlogBB>  (394) 
-0.49399999999999999

>  <r_qp_QPlogHERG>  (394) 
-7.0659999999999998

>  <r_qp_QPlogKhsa>  (394) 
0.70899999999999996

>  <r_qp_QPlogKp>  (394) 
-2.3319999999999999

>  <r_qp_QPlogPC16>  (394) 
15.926

>  <r_qp_QPlogPo/w>  (394) 
4.9290000000000003

>  <r_qp_QPlogPoct>  (394) 
23.585000000000001

>  <r_qp_QPlogPw>  (394) 
12.356

>  <r_qp_QPlogS>  (394) 
-5.2450000000000001

>  <r_qp_QPpolrz>  (394) 
49.805

>  <r_qp_SASA>  (394) 
762.86800000000005

>  <r_qp_SAamideO>  (394) 
0

>  <r_qp_SAfluorine>  (394) 
0

>  <r_qp_WPSA>  (394) 
0

>  <r_qp_accptHB>  (394) 
7.25

>  <r_qp_dip^2/V>  (394) 
0.018586499999999999

>  <r_qp_dipole>  (394) 
5.2629999999999999

>  <r_qp_donorHB>  (394) 
2

>  <r_qp_glob>  (394) 
0.82709140000000003

>  <r_qp_mol_MW>  (394) 
466.58499999999998

>  <r_qp_volume>  (394) 
1490.24

>  <r_sd_BIOSOLVEIT.INFINISEE\_FTREES\_SIMILARITY>  (394) 
0.91900000000000004

>  <r_sd_BIOSOLVEIT.LOGP>  (394) 
3.29148

>  <r_sd_BIOSOLVEIT.MOLECULAR\_WEIGHT>  (394) 
467.59399999999999

>  <r_sd_BIOSOLVEIT.TPSA>  (394) 
87.299999999999997

>  <i_epik_Tot_Q>  (394) 
2

>  <i_epik_Tot_abs_Q>  (394) 
2

>  <i_f3d_flags>  (394) 
0

>  <i_i_glide_confnum>  (394) 
13

>  <i_i_glide_lignum>  (394) 
286

>  <i_i_glide_posenum>  (394) 
6

>  <i_i_glide_rotatable_bonds>  (394) 
11

>  <i_lp_mmshare_version>  (394) 
65135

>  <i_m_ct_format>  (394) 
2

>  <i_m_source_file_index>  (394) 
903

>  <i_qp_#NandO>  (394) 
7

>  <i_qp_#acid>  (394) 
0

>  <i_qp_#amide>  (394) 
0

>  <i_qp_#amidine>  (394) 
0

>  <i_qp_#amine>  (394) 
1

>  <i_qp_#in34>  (394) 
0

>  <i_qp_#in56>  (394) 
22

>  <i_qp_#metab>  (394) 
4

>  <i_qp_#nonHatm>  (394) 
35

>  <i_qp_#noncon>  (394) 
0

>  <i_qp_#ringatoms>  (394) 
22

>  <i_qp_#rotor>  (394) 
12

>  <i_qp_#rtvFG>  (394) 
0

>  <i_qp_#stars>  (394) 
0

>  <i_qp_CNS>  (394) 
1

>  <i_qp_HumanOralAbsorption>  (394) 
3

>  <i_qp_RuleOfFive>  (394) 
0

>  <i_qp_RuleOfThree>  (394) 
0

>  <i_sd_BIOSOLVEIT.INFINISEE\_REAGENT1\_NAME>  (394) 
21926476

>  <i_sd_BIOSOLVEIT.INFINISEE\_REAGENT2\_NAME>  (394) 
22360182

>  <i_sd_BIOSOLVEIT.INFINISEE\_REAGENT3\_NAME>  (394) 
21967972

>  <i_sd_BIOSOLVEIT.INFINISEE\_RESULT\_RANK>  (394) 
19002

>  <i_sd_version>  (394) 
0

>  <b_lp_Chiralities_Consistent>  (394) 
1

>  <b_sd_chiral_flag>  (394) 
0

>  <canonical_id>  (394) 
ATP-HTVS-4019997F6E4F

>  <compound_code>  (394) 
28866

>  <title>  (394) 
m_282030aaa____21926476____22360182____21967972

>  <variant>  (394) 
28866-1

>  <source_file>  (394) 
运行/运行/ATP-VSW/ATP-VSW-DOCK_HTVS_1-002_lib.maegz

>  <canonical_smiles>  (394) 
C[NH+](C)Cc1ccc(CCNc2nc(NCCOc3cccc(C#N)c3)c3ccccc3[nH+]2)cc1

>  <scaffold>  (394) 
c1ccc(CCNc2nc(NCCOc3ccccc3)c3ccccc3[nH+]2)cc1

>  <molecular_formula>  (394) 
C28H32N6O+2

$$$$
ATP-HTVS-403847D949CB
     RDKit          3D

 55 57  0  0  0  0  0  0  0  0999 V2000
  196.9191  179.8376  152.8684 Br  0  0  0  0  0  0  0  0  0  0  0  0
  197.1864  180.8985  154.4275 C   0  0  0  0  0  0  0  0  0  0  0  0
  196.9871  182.2859  154.3580 C   0  0  0  0  0  0  0  0  0  0  0  0
  197.1690  183.0855  155.5030 C   0  0  0  0  0  0  0  0  0  0  0  0
  197.5270  182.4988  156.7372 C   0  0  0  0  0  0  0  0  0  0  0  0
  197.7305  181.1024  156.7999 C   0  0  0  0  0  0  0  0  0  0  0  0
  197.5553  180.3022  155.6495 C   0  0  0  0  0  0  0  0  0  0  0  0
  197.7079  183.3665  157.9596 C   0  0  0  0  0  0  0  0  0  0  0  0
  198.7576  183.2959  158.5938 O   0  0  0  0  0  0  0  0  0  0  0  0
  196.6724  184.1747  158.3254 N   0  0  0  0  0  0  0  0  0  0  0  0
  196.9027  185.4422  158.9614 C   0  0  0  0  0  0  0  0  0  0  0  0
  197.9911  186.1943  158.6617 N   0  0  0  0  0  0  0  0  0  0  0  0
  198.1500  187.4101  159.2321 C   0  0  0  0  0  0  0  0  0  0  0  0
  197.2188  187.9599  160.1304 C   0  0  0  0  0  0  0  0  0  0  0  0
  196.0860  187.1985  160.4607 C   0  0  0  0  0  0  0  0  0  0  0  0
  195.1386  187.7472  161.3347 N   0  0  0  0  0  0  0  0  0  0  0  0
  194.0170  186.9671  161.8451 C   0  0  1  0  0  0  0  0  0  0  0  0
  192.9909  187.7605  162.6456 C   0  0  0  0  0  0  0  0  0  0  0  0
  192.6382  189.0689  162.2482 C   0  0  0  0  0  0  0  0  0  0  0  0
  191.6343  189.7781  162.9481 C   0  0  0  0  0  0  0  0  0  0  0  0
  191.0196  189.1881  164.0731 C   0  0  0  0  0  0  0  0  0  0  0  0
  191.3781  187.8859  164.4769 C   0  0  0  0  0  0  0  0  0  0  0  0
  192.3448  187.1639  163.7511 C   0  0  0  0  0  0  0  0  0  0  0  0
  191.2064  191.1573  162.4654 C   0  0  1  0  0  0  0  0  0  0  0  0
  190.1662  191.1188  161.3980 N   0  0  1  0  0  0  0  0  0  0  0  0
  189.7939  192.4782  160.9450 C   0  0  2  0  0  0  0  0  0  0  0  0
  190.5109  190.2555  160.2416 C   0  0  2  0  0  0  0  0  0  0  0  0
  195.9343  185.9231  159.8807 C   0  0  0  0  0  0  0  0  0  0  0  0
  195.2953  183.7075  158.1062 C   0  0  2  0  0  0  0  0  0  0  0  0
  196.6857  182.7413  153.4262 H   0  0  0  0  0  0  0  0  0  0  0  0
  197.0009  184.1488  155.4317 H   0  0  0  0  0  0  0  0  0  0  0  0
  197.9775  180.6186  157.7259 H   0  0  0  0  0  0  0  0  0  0  0  0
  197.6922  179.2329  155.7209 H   0  0  0  0  0  0  0  0  0  0  0  0
  199.0459  187.9634  158.9624 H   0  0  0  0  0  0  0  0  0  0  0  0
  197.4014  188.9344  160.5726 H   0  0  0  0  0  0  0  0  0  0  0  0
  195.3569  188.6231  161.7826 H   0  0  0  0  0  0  0  0  0  0  0  0
  193.4841  186.4756  161.0270 H   0  0  0  0  0  0  0  0  0  0  0  0
  194.4338  186.1845  162.4704 H   0  0  0  0  0  0  0  0  0  0  0  0
  193.1033  189.5127  161.3739 H   0  0  0  0  0  0  0  0  0  0  0  0
  190.2484  189.7121  164.6221 H   0  0  0  0  0  0  0  0  0  0  0  0
  190.8932  187.4365  165.3321 H   0  0  0  0  0  0  0  0  0  0  0  0
  192.5868  186.1556  164.0547 H   0  0  0  0  0  0  0  0  0  0  0  0
  190.8324  191.7287  163.3178 H   0  0  0  0  0  0  0  0  0  0  0  0
  192.0928  191.6884  162.1110 H   0  0  0  0  0  0  0  0  0  0  0  0
  190.6595  193.0003  160.5368 H   0  0  0  0  0  0  0  0  0  0  0  0
  189.3884  193.0771  161.7601 H   0  0  0  0  0  0  0  0  0  0  0  0
  189.0349  192.4318  160.1652 H   0  0  0  0  0  0  0  0  0  0  0  0
  191.4276  190.6109  159.7711 H   0  0  0  0  0  0  0  0  0  0  0  0
  189.7182  190.2714  159.4899 H   0  0  0  0  0  0  0  0  0  0  0  0
  190.6494  189.2136  160.5322 H   0  0  0  0  0  0  0  0  0  0  0  0
  195.0822  185.3079  160.1248 H   0  0  0  0  0  0  0  0  0  0  0  0
  194.5277  184.4720  158.2506 H   0  0  0  0  0  0  0  0  0  0  0  0
  195.0785  182.8666  158.7670 H   0  0  0  0  0  0  0  0  0  0  0  0
  195.1430  183.3543  157.0877 H   0  0  0  0  0  0  0  0  0  0  0  0
  189.3387  190.7178  161.8162 H   0  0  0  0  0  0  0  0  0  0  0  0
  1  2  1  0
  2  3  1  0
  2  7  2  0
  3  4  2  0
  3 30  1  0
  4  5  1  0
  4 31  1  0
  5  6  2  0
  5  8  1  0
  6  7  1  0
  6 32  1  0
  7 33  1  0
  8  9  2  0
  8 10  1  0
 10 11  1  0
 10 29  1  0
 11 12  1  0
 11 28  2  0
 12 13  2  0
 13 14  1  0
 13 34  1  0
 14 15  2  0
 14 35  1  0
 15 16  1  0
 15 28  1  0
 16 17  1  0
 16 36  1  0
 17 18  1  0
 17 37  1  6
 17 38  1  0
 18 19  2  0
 18 23  1  0
 19 20  1  0
 19 39  1  0
 20 21  2  0
 20 24  1  0
 21 22  1  0
 21 40  1  0
 22 23  2  0
 22 41  1  0
 23 42  1  0
 24 25  1  0
 24 43  1  1
 24 44  1  0
 25 26  1  0
 25 27  1  0
 25 55  1  1
 26 45  1  6
 26 46  1  0
 26 47  1  0
 27 48  1  6
 27 49  1  0
 27 50  1  0
 28 51  1  0
 29 52  1  1
 29 53  1  0
 29 54  1  0
M  CHG  1  25   1
M  END
>  <s_epik_cmdline>  (395) 
J2VwaWtfcHl0aG9uJywgJy1waCcsICc3LjAwMDAwMCcsICctcGh0JywgJzIuMDAwMDAwJywgJy1tcycsICcxNicsICctdG4nLCAnOCcsICctbWEnLCAnMjAwJywgJy1pbWFlJywgJzxpbmZpbGUubWFlPicsICctb21hZScsICc8b3V0ZmlsZS5tYWU+Jw==

>  <s_epik_input>  (395) 
QnJjMVtjSF1bY0hdYyhbY0hdW2NIXTEpQyg9TylOKFtDSDNdKWMybltjSF1bY0hdYyhbY0hdMilbTkhdW0NIMl1jM1tjSF1jKFtjSF1bY0hdW2NIXTMpW0NIMl1OKFtDSDNdKVtDSDNd

>  <s_i_glide_gridfile>  (395) 
ATP-Grid

>  <s_lp_Force_Field>  (395) 
OPLS_2005

>  <s_lp_Variant>  (395) 
rxn502a____EMOL478278____EMOL45981693____EMOL2873214-1

>  <s_lp_label>  (395) 
2977_sdstereoexpander_1_neutralizer_1_epik_1_stereoizer_1

>  <s_m_source_file>  (395) 
ATP-VSW-LIGPREP-001-in.maegz

>  <s_sd_BIOSOLVEIT.INFINISEE\_QUERY\_NAME>  (395) 
Ref-Lig

>  <s_sd_BIOSOLVEIT.INFINISEE\_QUERY\_SMILES>  (395) 
S(c1nc2c(cc1C[NH2+]Cc3ccc(cc3)C[NH+](C)C)cccc2)Cc4ccccc4

>  <s_sd_BIOSOLVEIT.INFINISEE\_REACTION\_NAME>  (395) 
rxn502a

>  <s_sd_BIOSOLVEIT.INFINISEE\_REAGENT1\_NAME>  (395) 
EMOL478278

>  <s_sd_BIOSOLVEIT.INFINISEE\_REAGENT1\_SMILES>  (395) 
Brc1ccc(cc1)C(=O)O

>  <s_sd_BIOSOLVEIT.INFINISEE\_REAGENT2\_NAME>  (395) 
EMOL45981693

>  <s_sd_BIOSOLVEIT.INFINISEE\_REAGENT2\_SMILES>  (395) 
Ic1cc(ncc1)NC

>  <s_sd_BIOSOLVEIT.INFINISEE\_REAGENT3\_NAME>  (395) 
EMOL2873214

>  <s_sd_BIOSOLVEIT.INFINISEE\_REAGENT3\_SMILES>  (395) 
N(Cc1cc(ccc1)CN)(C)C

>  <s_sd_BIOSOLVEIT.INFINISEE\_SPACE>  (395) 
eXplore_7tr_2022-12

>  <s_vsw_compound_code>  (395) 
95233

>  <s_vsw_variant>  (395) 
95233-1

>  <r_epik_Charging_Adjusted_Penalty>  (395) 
0.173155986569416

>  <r_epik_Ionization_Penalty>  (395) 
0.12909999999999999

>  <r_epik_Ionization_Penalty_Charging>  (395) 
0.0441

>  <r_epik_Ionization_Penalty_Neutral>  (395) 
0.085000000000000006

>  <r_epik_State_Penalty>  (395) 
0.12909999999999999

>  <r_i_docking_score>  (395) 
-4.8708621417247402

>  <r_i_glide_ecoul>  (395) 
-5.0534524917602504

>  <r_i_glide_eff_state_penalty>  (395) 
0.12909999999999999

>  <r_i_glide_einternal>  (395) 
9.1541919708252006

>  <r_i_glide_emodel>  (395) 
-60.135319377424601

>  <r_i_glide_energy>  (395) 
-46.203919410705602

>  <r_i_glide_erotb>  (395) 
0.68082045844649997

>  <r_i_glide_esite>  (395) 
-0.0117316631612634

>  <r_i_glide_evdw>  (395) 
-41.150466918945298

>  <r_i_glide_gscore>  (395) 
-4.9999621417247404

>  <r_i_glide_hbond>  (395) 
0

>  <r_i_glide_ligand_efficiency>  (395) 
-0.16796076350774999

>  <r_i_glide_ligand_efficiency_ln>  (395) 
-1.1153039160481699

>  <r_i_glide_ligand_efficiency_sa>  (395) 
-0.51602867920069395

>  <r_i_glide_lipo>  (395) 
-2.5180808020781802

>  <r_i_glide_metal>  (395) 
-0

>  <r_i_glide_rewards>  (395) 
-0.33542891522048901

>  <r_lp_Energy>  (395) 
34.431728

>  <r_lp_tautomer_probability>  (395) 
0.999999106000799

>  <r_qp_ACxDN^.5/SA>  (395) 
0.0096964000000000009

>  <r_qp_CIQPlogS>  (395) 
-5.6580000000000004

>  <r_qp_EA(eV)>  (395) 
0.39100000000000001

>  <r_qp_FISA>  (395) 
68.063999999999993

>  <r_qp_FOSA>  (395) 
288.12900000000002

>  <r_qp_IP(eV)>  (395) 
8.8149999999999995

>  <r_qp_Jm>  (395) 
0.0053631540790099004

>  <r_qp_PISA>  (395) 
288.33100000000002

>  <r_qp_PSA>  (395) 
57.429000000000002

>  <r_qp_PercentHumanOralAbsorption>  (395) 
100

>  <r_qp_QPPCaco>  (395) 
558.91999999999996

>  <r_qp_QPPMDCK>  (395) 
774.67499999999995

>  <r_qp_QPlogBB>  (395) 
0.040000000000000001

>  <r_qp_QPlogHERG>  (395) 
-6.6900000000000004

>  <r_qp_QPlogKhsa>  (395) 
0.55200000000000005

>  <r_qp_QPlogKp>  (395) 
-3.149

>  <r_qp_QPlogPC16>  (395) 
13.895

>  <r_qp_QPlogPo/w>  (395) 
4.343

>  <r_qp_QPlogPoct>  (395) 
20.945

>  <r_qp_QPlogPw>  (395) 
10.723000000000001

>  <r_qp_QPlogS>  (395) 
-4.7779999999999996

>  <r_qp_QPpolrz>  (395) 
45.423000000000002

>  <r_qp_SASA>  (395) 
721.91999999999996

>  <r_qp_SAamideO>  (395) 
0

>  <r_qp_SAfluorine>  (395) 
0

>  <r_qp_WPSA>  (395) 
77.396000000000001

>  <r_qp_accptHB>  (395) 
7

>  <r_qp_dip^2/V>  (395) 
0.041943000000000001

>  <r_qp_dipole>  (395) 
7.4749999999999996

>  <r_qp_donorHB>  (395) 
1

>  <r_qp_glob>  (395) 
0.81110539999999998

>  <r_qp_mol_MW>  (395) 
453.38099999999997

>  <r_qp_volume>  (395) 
1332.3

>  <r_sd_BIOSOLVEIT.INFINISEE\_FTREES\_SIMILARITY>  (395) 
0.90300000000000002

>  <r_sd_BIOSOLVEIT.LOGP>  (395) 
3.3773

>  <r_sd_BIOSOLVEIT.MOLECULAR\_WEIGHT>  (395) 
454.38900000000001

>  <r_sd_BIOSOLVEIT.TPSA>  (395) 
49.670000000000002

>  <i_epik_Tot_Q>  (395) 
1

>  <i_epik_Tot_abs_Q>  (395) 
1

>  <i_f3d_flags>  (395) 
0

>  <i_i_glide_confnum>  (395) 
5

>  <i_i_glide_lignum>  (395) 
1408

>  <i_i_glide_posenum>  (395) 
12

>  <i_i_glide_rotatable_bonds>  (395) 
8

>  <i_lp_mmshare_version>  (395) 
65135

>  <i_m_ct_format>  (395) 
2

>  <i_m_source_file_index>  (395) 
2977

>  <i_qp_#NandO>  (395) 
5

>  <i_qp_#acid>  (395) 
0

>  <i_qp_#amide>  (395) 
0

>  <i_qp_#amidine>  (395) 
0

>  <i_qp_#amine>  (395) 
1

>  <i_qp_#in34>  (395) 
0

>  <i_qp_#in56>  (395) 
18

>  <i_qp_#metab>  (395) 
7

>  <i_qp_#nonHatm>  (395) 
29

>  <i_qp_#noncon>  (395) 
0

>  <i_qp_#ringatoms>  (395) 
18

>  <i_qp_#rotor>  (395) 
7

>  <i_qp_#rtvFG>  (395) 
0

>  <i_qp_#stars>  (395) 
0

>  <i_qp_CNS>  (395) 
1

>  <i_qp_HumanOralAbsorption>  (395) 
3

>  <i_qp_RuleOfFive>  (395) 
0

>  <i_qp_RuleOfThree>  (395) 
1

>  <i_sd_BIOSOLVEIT.INFINISEE\_RESULT\_RANK>  (395) 
83237

>  <i_sd_version>  (395) 
0

>  <b_lp_Chiralities_Consistent>  (395) 
1

>  <b_sd_chiral_flag>  (395) 
0

>  <canonical_id>  (395) 
ATP-HTVS-403847D949CB

>  <compound_code>  (395) 
95233

>  <title>  (395) 
rxn502a____EMOL478278____EMOL45981693____EMOL2873214

>  <variant>  (395) 
95233-1

>  <source_file>  (395) 
运行/运行/ATP-VSW/ATP-VSW-DOCK_HTVS_1-001_lib/ATP-VSW-DOCK_HTVS_1-001_lib

>  <canonical_smiles>  (395) 
CN(C(=O)c1ccc(Br)cc1)c1cc(NCc2cccc(C[NH+](C)C)c2)ccn1

>  <scaffold>  (395) 
O=C(Nc1cc(NCc2ccccc2)ccn1)c1ccccc1

>  <molecular_formula>  (395) 
C23H26BrN4O+

$$$$
ATP-HTVS-4042CFA848C2
     RDKit          3D

 55 57  0  0  0  0  0  0  0  0999 V2000
  194.7294  186.6342  161.7191 Cl  0  0  0  0  0  0  0  0  0  0  0  0
  195.6350  186.3209  160.2836 C   0  0  0  0  0  0  0  0  0  0  0  0
  195.4794  185.0907  159.6202 C   0  0  0  0  0  0  0  0  0  0  0  0
  196.2036  184.8264  158.4500 C   0  0  0  0  0  0  0  0  0  0  0  0
  197.0983  185.7858  157.9221 C   0  0  0  0  0  0  0  0  0  0  0  0
  197.2542  187.0211  158.5945 C   0  0  0  0  0  0  0  0  0  0  0  0
  196.5246  187.2872  159.7712 C   0  0  0  0  0  0  0  0  0  0  0  0
  197.8883  185.5064  156.6458 C   0  0  1  0  0  0  0  0  0  0  0  0
  197.8631  184.0968  156.2446 N   0  0  0  0  0  0  0  0  0  0  0  0
  198.6622  183.1331  156.7451 C   0  0  0  0  0  0  0  0  0  0  0  0
  199.4341  183.3334  157.6820 O   0  0  0  0  0  0  0  0  0  0  0  0
  198.5701  181.8123  156.0800 C   0  0  0  0  0  0  0  0  0  0  0  0
  199.7118  180.5534  156.5328 S   0  0  0  0  0  0  0  0  0  0  0  0
  199.0231  179.4771  155.3490 C   0  0  0  0  0  0  0  0  0  0  0  0
  199.6736  177.8810  155.2080 Cl  0  0  0  0  0  0  0  0  0  0  0  0
  198.0125  180.0636  154.6298 C   0  0  0  0  0  0  0  0  0  0  0  0
  197.3450  179.4584  153.5397 N   0  0  0  0  0  0  0  0  0  0  0  0
  196.5102  180.1757  152.5866 C   0  0  1  0  0  0  0  0  0  0  0  0
  197.1175  181.4306  151.9896 C   0  0  0  0  0  0  0  0  0  0  0  0
  198.1241  181.3197  151.0138 C   0  0  0  0  0  0  0  0  0  0  0  0
  198.6858  182.4689  150.4510 C   0  0  0  0  0  0  0  0  0  0  0  0
  198.3251  183.7550  150.9119 C   0  0  0  0  0  0  0  0  0  0  0  0
  197.3242  183.8696  151.9022 C   0  0  0  0  0  0  0  0  0  0  0  0
  196.7107  182.7173  152.4023 C   0  0  0  0  0  0  0  0  0  0  0  0
  198.9870  185.0013  150.3491 C   0  0  1  0  0  0  0  0  0  0  0  0
  200.4202  185.1398  150.6380 N   0  0  0  0  0  0  0  0  0  0  0  0
  201.2154  184.0939  150.0066 C   0  0  2  0  0  0  0  0  0  0  0  0
  200.8930  186.4366  150.1525 C   0  0  2  0  0  0  0  0  0  0  0  0
  197.7050  181.3778  155.1081 C   0  0  0  0  0  0  0  0  0  0  0  0
  197.3991  186.3805  155.4773 C   0  0  2  0  0  0  0  0  0  0  0  0
  194.7976  184.3504  160.0074 H   0  0  0  0  0  0  0  0  0  0  0  0
  196.0443  183.8759  157.9641 H   0  0  0  0  0  0  0  0  0  0  0  0
  197.9335  187.7679  158.2061 H   0  0  0  0  0  0  0  0  0  0  0  0
  196.6509  188.2349  160.2784 H   0  0  0  0  0  0  0  0  0  0  0  0
  198.9288  185.7818  156.8366 H   0  0  0  0  0  0  0  0  0  0  0  0
  197.1837  183.8419  155.5414 H   0  0  0  0  0  0  0  0  0  0  0  0
  197.6408  178.5322  153.2702 H   0  0  0  0  0  0  0  0  0  0  0  0
  196.2635  179.5033  151.7643 H   0  0  0  0  0  0  0  0  0  0  0  0
  195.5615  180.4196  153.0701 H   0  0  0  0  0  0  0  0  0  0  0  0
  198.4632  180.3342  150.7324 H   0  0  0  0  0  0  0  0  0  0  0  0
  199.4365  182.3724  149.6765 H   0  0  0  0  0  0  0  0  0  0  0  0
  197.0283  184.8370  152.2894 H   0  0  0  0  0  0  0  0  0  0  0  0
  195.9408  182.8236  153.1464 H   0  0  0  0  0  0  0  0  0  0  0  0
  198.8152  185.0102  149.2748 H   0  0  0  0  0  0  0  0  0  0  0  0
  198.4596  185.8697  150.7421 H   0  0  0  0  0  0  0  0  0  0  0  0
  202.2860  184.3047  150.1180 H   0  0  0  0  0  0  0  0  0  0  0  0
  201.0133  184.0829  148.9388 H   0  0  0  0  0  0  0  0  0  0  0  0
  200.9726  183.1333  150.3981 H   0  0  0  0  0  0  0  0  0  0  0  0
  201.9633  186.5363  150.3386 H   0  0  0  0  0  0  0  0  0  0  0  0
  200.3981  187.2676  150.6593 H   0  0  0  0  0  0  0  0  0  0  0  0
  200.7299  186.5404  149.0795 H   0  0  0  0  0  0  0  0  0  0  0  0
  196.9109  181.9807  154.7037 H   0  0  0  0  0  0  0  0  0  0  0  0
  197.4910  187.4426  155.7128 H   0  0  0  0  0  0  0  0  0  0  0  0
  196.3507  186.1905  155.2427 H   0  0  0  0  0  0  0  0  0  0  0  0
  197.9793  186.2038  154.5695 H   0  0  0  0  0  0  0  0  0  0  0  0
  1  2  1  0
  2  3  1  0
  2  7  2  0
  3  4  2  0
  3 31  1  0
  4  5  1  0
  4 32  1  0
  5  6  2  0
  5  8  1  0
  6  7  1  0
  6 33  1  0
  7 34  1  0
  8  9  1  0
  8 30  1  0
  8 35  1  1
  9 10  1  0
  9 36  1  0
 10 11  2  0
 10 12  1  0
 12 13  1  0
 12 29  2  0
 13 14  1  0
 14 15  1  0
 14 16  2  0
 16 17  1  0
 16 29  1  0
 17 18  1  0
 17 37  1  0
 18 19  1  0
 18 38  1  6
 18 39  1  0
 19 20  1  0
 19 24  2  0
 20 21  2  0
 20 40  1  0
 21 22  1  0
 21 41  1  0
 22 23  2  0
 22 25  1  0
 23 24  1  0
 23 42  1  0
 24 43  1  0
 25 26  1  0
 25 44  1  6
 25 45  1  0
 26 27  1  0
 26 28  1  0
 27 46  1  6
 27 47  1  0
 27 48  1  0
 28 49  1  6
 28 50  1  0
 28 51  1  0
 29 52  1  0
 30 53  1  1
 30 54  1  0
 30 55  1  0
M  END
>  <s_epik_cmdline>  (396) 
J2VwaWtfcHl0aG9uJywgJy1waCcsICc3LjAwMDAwMCcsICctcGh0JywgJzIuMDAwMDAwJywgJy1tcycsICcxNicsICctdG4nLCAnOCcsICctbWEnLCAnMjAwJywgJy1pbWFlJywgJzxpbmZpbGUubWFlPicsICctb21hZScsICc8b3V0ZmlsZS5tYWU+Jw==

>  <s_epik_input>  (396) 
Q2xjMVtjSF1bY0hdYyhbY0hdW2NIXTEpW0NASF0oW0NIM10pW05IXUMoPU8pYzJzYyhDbCljKFtjSF0yKVtOSF1bQ0gyXWMzW2NIXVtjSF1jKFtjSF1bY0hdMylbQ0gyXU4oW0NIM10pW0NIM10=

>  <s_i_glide_gridfile>  (396) 
ATP-Grid

>  <s_lp_Force_Field>  (396) 
OPLS_2005

>  <s_lp_Variant>  (396) 
rxn512b____EMOL44815102____EMOL44846536____EMOL50155899-4

>  <s_lp_label>  (396) 
2863_sdstereoexpander_2_neutralizer_1_epik_2_stereoizer_1

>  <s_m_source_file>  (396) 
ATP-VSW-LIGPREP-003-in.maegz

>  <s_sd_BIOSOLVEIT.INFINISEE\_QUERY\_NAME>  (396) 
Ref-Lig

>  <s_sd_BIOSOLVEIT.INFINISEE\_QUERY\_SMILES>  (396) 
S(c1nc2c(cc1C[NH2+]Cc3ccc(cc3)C[NH+](C)C)cccc2)Cc4ccccc4

>  <s_sd_BIOSOLVEIT.INFINISEE\_REACTION\_NAME>  (396) 
rxn512b

>  <s_sd_BIOSOLVEIT.INFINISEE\_REAGENT1\_NAME>  (396) 
EMOL44815102

>  <s_sd_BIOSOLVEIT.INFINISEE\_REAGENT1\_SMILES>  (396) 
Clc1ccc(cc1)C(N)C

>  <s_sd_BIOSOLVEIT.INFINISEE\_REAGENT2\_NAME>  (396) 
EMOL44846536

>  <s_sd_BIOSOLVEIT.INFINISEE\_REAGENT2\_SMILES>  (396) 
BrC1=C(Cl)SC(C(=O)O)=C1

>  <s_sd_BIOSOLVEIT.INFINISEE\_REAGENT3\_NAME>  (396) 
EMOL50155899

>  <s_sd_BIOSOLVEIT.INFINISEE\_REAGENT3\_SMILES>  (396) 
N(Cc1ccc(cc1)CN)(C)C

>  <s_sd_BIOSOLVEIT.INFINISEE\_SPACE>  (396) 
eXplore_7tr_2022-12

>  <s_vsw_compound_code>  (396) 
91587

>  <s_vsw_variant>  (396) 
91587-4

>  <r_epik_Charging_Adjusted_Penalty>  (396) 
1.6155483608401799

>  <r_epik_Ionization_Penalty>  (396) 
1.6156999999999999

>  <r_epik_Ionization_Penalty_Charging>  (396) 
0

>  <r_epik_Ionization_Penalty_Neutral>  (396) 
1.6156999999999999

>  <r_epik_State_Penalty>  (396) 
1.6154999999999999

>  <r_i_docking_score>  (396) 
-1.47067840689923

>  <r_i_glide_ecoul>  (396) 
-1.8933564424514799

>  <r_i_glide_eff_state_penalty>  (396) 
1.6154999999999999

>  <r_i_glide_einternal>  (396) 
2.39850950241089

>  <r_i_glide_emodel>  (396) 
-40.945348474368998

>  <r_i_glide_energy>  (396) 
-35.141243100166299

>  <r_i_glide_erotb>  (396) 
0.659386776081757

>  <r_i_glide_esite>  (396) 
-0.013628925224602

>  <r_i_glide_evdw>  (396) 
-33.247886657714801

>  <r_i_glide_gscore>  (396) 
-3.0861784068992302

>  <r_i_glide_hbond>  (396) 
0

>  <r_i_glide_ligand_efficiency>  (396) 
-0.049022613563307602

>  <r_i_glide_ligand_efficiency_ln>  (396) 
-0.33415415837219498

>  <r_i_glide_ligand_efficiency_sa>  (396) 
-0.15232465821802901

>  <r_i_glide_lipo>  (396) 
-1.52941686759383

>  <r_i_glide_metal>  (396) 
-0

>  <r_i_glide_rewards>  (396) 
-0.25612159090908898

>  <r_lp_Energy>  (396) 
18.079366

>  <r_lp_tautomer_probability>  (396) 
0.99999274205267796

>  <r_qp_ACxDN^.5/SA>  (396) 
0.010874200000000001

>  <r_qp_CIQPlogS>  (396) 
-5.266

>  <r_qp_EA(eV)>  (396) 
0.753

>  <r_qp_FISA>  (396) 
53.582999999999998

>  <r_qp_FOSA>  (396) 
261.13900000000001

>  <r_qp_IP(eV)>  (396) 
8.4420000000000002

>  <r_qp_Jm>  (396) 
0.00028513511504128401

>  <r_qp_PISA>  (396) 
232.78100000000001

>  <r_qp_PSA>  (396) 
54.133000000000003

>  <r_qp_PercentHumanOralAbsorption>  (396) 
96.451999999999998

>  <r_qp_QPPCaco>  (396) 
191.23500000000001

>  <r_qp_QPPMDCK>  (396) 
840.79899999999998

>  <r_qp_QPlogBB>  (396) 
0.77400000000000002

>  <r_qp_QPlogHERG>  (396) 
-6.8090000000000002

>  <r_qp_QPlogKhsa>  (396) 
0.874

>  <r_qp_QPlogKp>  (396) 
-5.0439999999999996

>  <r_qp_QPlogPC16>  (396) 
14.521000000000001

>  <r_qp_QPlogPo/w>  (396) 
4.8970000000000002

>  <r_qp_QPlogPoct>  (396) 
21.527000000000001

>  <r_qp_QPlogPw>  (396) 
10.029

>  <r_qp_QPlogS>  (396) 
-4.1660000000000004

>  <r_qp_QPpolrz>  (396) 
45.587000000000003

>  <r_qp_SASA>  (396) 
715.28800000000001

>  <r_qp_SAamideO>  (396) 
0

>  <r_qp_SAfluorine>  (396) 
0

>  <r_qp_WPSA>  (396) 
167.78399999999999

>  <r_qp_accptHB>  (396) 
5.5

>  <r_qp_dip^2/V>  (396) 
0.0070810999999999999

>  <r_qp_dipole>  (396) 
3.1099999999999999

>  <r_qp_donorHB>  (396) 
2

>  <r_qp_glob>  (396) 
0.83224180000000003

>  <r_qp_mol_MW>  (396) 
462.43599999999998

>  <r_qp_volume>  (396) 
1365.6759999999999

>  <r_sd_BIOSOLVEIT.INFINISEE\_FTREES\_SIMILARITY>  (396) 
0.90500000000000003

>  <r_sd_BIOSOLVEIT.LOGP>  (396) 
4.8025000000000002

>  <r_sd_BIOSOLVEIT.MOLECULAR\_WEIGHT>  (396) 
463.44900000000001

>  <r_sd_BIOSOLVEIT.TPSA>  (396) 
45.57

>  <i_epik_Tot_Q>  (396) 
0

>  <i_epik_Tot_abs_Q>  (396) 
0

>  <i_f3d_flags>  (396) 
0

>  <i_i_glide_confnum>  (396) 
6

>  <i_i_glide_lignum>  (396) 
1386

>  <i_i_glide_posenum>  (396) 
5

>  <i_i_glide_rotatable_bonds>  (396) 
9

>  <i_lp_mmshare_version>  (396) 
65135

>  <i_m_ct_format>  (396) 
2

>  <i_m_source_file_index>  (396) 
2863

>  <i_qp_#NandO>  (396) 
4

>  <i_qp_#acid>  (396) 
0

>  <i_qp_#amide>  (396) 
0

>  <i_qp_#amidine>  (396) 
0

>  <i_qp_#amine>  (396) 
2

>  <i_qp_#in34>  (396) 
0

>  <i_qp_#in56>  (396) 
17

>  <i_qp_#metab>  (396) 
6

>  <i_qp_#nonHatm>  (396) 
30

>  <i_qp_#noncon>  (396) 
0

>  <i_qp_#ringatoms>  (396) 
17

>  <i_qp_#rotor>  (396) 
8

>  <i_qp_#rtvFG>  (396) 
0

>  <i_qp_#stars>  (396) 
0

>  <i_qp_CNS>  (396) 
2

>  <i_qp_HumanOralAbsorption>  (396) 
3

>  <i_qp_RuleOfFive>  (396) 
0

>  <i_qp_RuleOfThree>  (396) 
0

>  <i_sd_BIOSOLVEIT.INFINISEE\_RESULT\_RANK>  (396) 
70555

>  <i_sd_version>  (396) 
0

>  <b_lp_Chiralities_Consistent>  (396) 
1

>  <b_sd_chiral_flag>  (396) 
0

>  <canonical_id>  (396) 
ATP-HTVS-4042CFA848C2

>  <compound_code>  (396) 
91587

>  <title>  (396) 
rxn512b____EMOL44815102____EMOL44846536____EMOL50155899

>  <variant>  (396) 
91587-4

>  <source_file>  (396) 
运行/运行/ATP-VSW/ATP-VSW-DOCK_HTVS_1-003_lib/ATP-VSW-DOCK_HTVS_1-003_lib.mae

>  <canonical_smiles>  (396) 
C[C@H](NC(=O)c1cc(NCc2ccc(CN(C)C)cc2)c(Cl)s1)c1ccc(Cl)cc1

>  <scaffold>  (396) 
O=C(NCc1ccccc1)c1cc(NCc2ccccc2)cs1

>  <molecular_formula>  (396) 
C23H25Cl2N3OS

$$$$
ATP-HTVS-404DE520584C
     RDKit          3D

 59 62  0  0  0  0  0  0  0  0999 V2000
  198.8073  181.5927  152.9420 Cl  0  0  0  0  0  0  0  0  0  0  0  0
  199.3242  180.3556  154.0444 C   0  0  0  0  0  0  0  0  0  0  0  0
  200.0185  179.2497  153.5102 C   0  0  0  0  0  0  0  0  0  0  0  0
  200.2563  179.1783  152.1766 F   0  0  0  0  0  0  0  0  0  0  0  0
  200.4466  178.2017  154.3470 C   0  0  0  0  0  0  0  0  0  0  0  0
  200.2008  178.2609  155.7303 C   0  0  0  0  0  0  0  0  0  0  0  0
  199.5226  179.3648  156.2714 C   0  0  0  0  0  0  0  0  0  0  0  0
  199.0568  180.4113  155.4424 C   0  0  0  0  0  0  0  0  0  0  0  0
  198.3442  181.5783  156.0690 C   0  0  0  0  0  0  0  0  0  0  0  0
  198.5306  182.7251  155.6724 O   0  0  0  0  0  0  0  0  0  0  0  0
  197.5076  181.2834  157.0810 N   0  0  0  0  0  0  0  0  0  0  0  0
  196.6850  182.2041  157.7951 C   0  0  0  0  0  0  0  0  0  0  0  0
  197.1812  183.3627  158.4532 C   0  0  0  0  0  0  0  0  0  0  0  0
  198.5609  183.5994  158.4434 N   0  0  0  0  0  0  0  0  0  0  0  0
  199.2433  183.8095  159.7106 C   0  0  1  0  0  0  0  0  0  0  0  0
  200.7238  184.0532  159.6031 C   0  0  0  0  0  0  0  0  0  0  0  0
  201.6084  183.3016  160.3864 C   0  0  0  0  0  0  0  0  0  0  0  0
  202.9850  183.5865  160.3698 C   0  0  0  0  0  0  0  0  0  0  0  0
  203.4695  184.6479  159.5715 C   0  0  0  0  0  0  0  0  0  0  0  0
  202.5723  185.4217  158.8040 C   0  0  0  0  0  0  0  0  0  0  0  0
  201.1978  185.1192  158.8158 C   0  0  0  0  0  0  0  0  0  0  0  0
  203.9205  182.7228  161.1960 C   0  0  1  0  0  0  0  0  0  0  0  0
  204.4500  181.5816  160.4071 N   0  0  1  0  0  0  0  0  0  0  0  0
  205.5462  180.8893  161.1174 C   0  0  2  0  0  0  0  0  0  0  0  0
  203.4032  180.6331  159.9563 C   0  0  2  0  0  0  0  0  0  0  0  0
  196.2488  184.2240  159.1177 C   0  0  0  0  0  0  0  0  0  0  0  0
  194.8861  183.8301  159.1845 C   0  0  0  0  0  0  0  0  0  0  0  0
  194.4828  182.7066  158.5496 N   0  0  0  0  0  0  0  0  0  0  0  0
  195.3177  181.9064  157.8625 C   0  0  0  0  0  0  0  0  0  0  0  0
  193.9386  184.6348  159.8674 C   0  0  0  0  0  0  0  0  0  0  0  0
  194.3380  185.8102  160.5343 C   0  0  0  0  0  0  0  0  0  0  0  0
  195.6759  186.2250  160.4403 C   0  0  0  0  0  0  0  0  0  0  0  0
  196.6083  185.4780  159.6814 C   0  0  0  0  0  0  0  0  0  0  0  0
  200.9488  177.3471  153.9196 H   0  0  0  0  0  0  0  0  0  0  0  0
  200.5092  177.4492  156.3727 H   0  0  0  0  0  0  0  0  0  0  0  0
  199.3571  179.3816  157.3382 H   0  0  0  0  0  0  0  0  0  0  0  0
  197.3417  180.2979  157.2726 H   0  0  0  0  0  0  0  0  0  0  0  0
  199.0305  182.9643  157.8189 H   0  0  0  0  0  0  0  0  0  0  0  0
  198.9306  184.7572  160.1340 H   0  0  0  0  0  0  0  0  0  0  0  0
  198.9964  183.0417  160.4264 H   0  0  0  0  0  0  0  0  0  0  0  0
  201.2148  182.5172  161.0161 H   0  0  0  0  0  0  0  0  0  0  0  0
  204.5265  184.8677  159.5306 H   0  0  0  0  0  0  0  0  0  0  0  0
  202.9388  186.2510  158.2066 H   0  0  0  0  0  0  0  0  0  0  0  0
  200.5052  185.7423  158.2679 H   0  0  0  0  0  0  0  0  0  0  0  0
  204.7328  183.3618  161.5457 H   0  0  0  0  0  0  0  0  0  0  0  0
  203.4007  182.3543  162.0849 H   0  0  0  0  0  0  0  0  0  0  0  0
  205.2026  180.4643  162.0612 H   0  0  0  0  0  0  0  0  0  0  0  0
  206.3704  181.5720  161.3268 H   0  0  0  0  0  0  0  0  0  0  0  0
  205.9432  180.0765  160.5140 H   0  0  0  0  0  0  0  0  0  0  0  0
  202.8912  180.1962  160.8150 H   0  0  0  0  0  0  0  0  0  0  0  0
  203.8353  179.8347  159.3508 H   0  0  0  0  0  0  0  0  0  0  0  0
  202.6555  181.1055  159.3227 H   0  0  0  0  0  0  0  0  0  0  0  0
  194.8645  181.0419  157.3799 H   0  0  0  0  0  0  0  0  0  0  0  0
  192.8880  184.3731  159.8337 H   0  0  0  0  0  0  0  0  0  0  0  0
  193.6051  186.4341  161.0437 H   0  0  0  0  0  0  0  0  0  0  0  0
  196.0000  187.1445  160.9010 H   0  0  0  0  0  0  0  0  0  0  0  0
  197.5831  185.9182  159.5181 H   0  0  0  0  0  0  0  0  0  0  0  0
  204.8532  181.9803  159.5706 H   0  0  0  0  0  0  0  0  0  0  0  0
  193.4992  182.4518  158.5340 H   0  0  0  0  0  0  0  0  0  0  0  0
  1  2  1  0
  2  3  2  0
  2  8  1  0
  3  4  1  0
  3  5  1  0
  5  6  2  0
  5 34  1  0
  6  7  1  0
  6 35  1  0
  7  8  2  0
  7 36  1  0
  8  9  1  0
  9 10  2  0
  9 11  1  0
 11 12  1  0
 11 37  1  0
 12 13  2  0
 12 29  1  0
 13 14  1  0
 13 26  1  0
 14 15  1  0
 14 38  1  0
 15 16  1  0
 15 39  1  1
 15 40  1  0
 16 17  2  0
 16 21  1  0
 17 18  1  0
 17 41  1  0
 18 19  2  0
 18 22  1  0
 19 20  1  0
 19 42  1  0
 20 21  2  0
 20 43  1  0
 21 44  1  0
 22 23  1  0
 22 45  1  1
 22 46  1  0
 23 24  1  0
 23 25  1  0
 23 58  1  6
 24 47  1  1
 24 48  1  0
 24 49  1  0
 25 50  1  1
 25 51  1  0
 25 52  1  0
 26 27  1  0
 26 33  2  0
 27 28  1  0
 27 30  2  0
 28 29  2  0
 28 59  1  0
 29 53  1  0
 30 31  1  0
 30 54  1  0
 31 32  2  0
 31 55  1  0
 32 33  1  0
 32 56  1  0
 33 57  1  0
M  CHG  2  23   1  28   1
M  END
>  <s_epik_cmdline>  (397) 
J2VwaWtfcHl0aG9uJywgJy1waCcsICc3LjAwMDAwMCcsICctcGh0JywgJzIuMDAwMDAwJywgJy1tcycsICcxNicsICctdG4nLCAnOCcsICctbWEnLCAnMjAwJywgJy1pbWFlJywgJzxpbmZpbGUubWFlPicsICctb21hZScsICc8b3V0ZmlsZS5tYWU+Jw==

>  <s_epik_input>  (397) 
Q2xjMWMoRilbY0hdW2NIXVtjSF1jMUMoPU8pW05IXWMoW2NIXW5jKGMyMylbY0hdW2NIXVtjSF1bY0hdMyljMltOSF1bQ0gyXWM0W2NIXWMoW2NIXVtjSF1bY0hdNClbQ0gyXU4oW0NIM10pW0NIM10=

>  <s_i_glide_gridfile>  (397) 
ATP-Grid

>  <s_lp_Force_Field>  (397) 
OPLS_2005

>  <s_lp_Variant>  (397) 
rxn502b____EMOL908292____EMOL30488121____EMOL2873214-1

>  <s_lp_label>  (397) 
2242_sdstereoexpander_1_neutralizer_1_epik_1_stereoizer_1

>  <s_m_source_file>  (397) 
ATP-VSW-LIGPREP-001-in.maegz

>  <s_sd_BIOSOLVEIT.INFINISEE\_QUERY\_NAME>  (397) 
Ref-Lig

>  <s_sd_BIOSOLVEIT.INFINISEE\_QUERY\_SMILES>  (397) 
S(c1nc2c(cc1C[NH2+]Cc3ccc(cc3)C[NH+](C)C)cccc2)Cc4ccccc4

>  <s_sd_BIOSOLVEIT.INFINISEE\_REACTION\_NAME>  (397) 
rxn502b

>  <s_sd_BIOSOLVEIT.INFINISEE\_REAGENT1\_NAME>  (397) 
EMOL908292

>  <s_sd_BIOSOLVEIT.INFINISEE\_REAGENT1\_SMILES>  (397) 
Clc1c(F)cccc1C(=O)O

>  <s_sd_BIOSOLVEIT.INFINISEE\_REAGENT2\_NAME>  (397) 
EMOL30488121

>  <s_sd_BIOSOLVEIT.INFINISEE\_REAGENT2\_SMILES>  (397) 
Brc1c(N)cnc2c1cccc2

>  <s_sd_BIOSOLVEIT.INFINISEE\_REAGENT3\_NAME>  (397) 
EMOL2873214

>  <s_sd_BIOSOLVEIT.INFINISEE\_REAGENT3\_SMILES>  (397) 
N(Cc1cc(ccc1)CN)(C)C

>  <s_sd_BIOSOLVEIT.INFINISEE\_SPACE>  (397) 
eXplore_7tr_2022-12

>  <s_vsw_compound_code>  (397) 
71713

>  <s_vsw_variant>  (397) 
71713-1

>  <r_epik_Charging_Adjusted_Penalty>  (397) 
0.24490422870036299

>  <r_epik_Ionization_Penalty>  (397) 
0.12590000000000001

>  <r_epik_Ionization_Penalty_Charging>  (397) 
0.12520000000000001

>  <r_epik_Ionization_Penalty_Neutral>  (397) 
0.00080000000000000004

>  <r_epik_State_Penalty>  (397) 
0.1197

>  <r_i_docking_score>  (397) 
-4.7806938983217302

>  <r_i_glide_ecoul>  (397) 
-9.4338550567627006

>  <r_i_glide_eff_state_penalty>  (397) 
0.1197

>  <r_i_glide_einternal>  (397) 
5.4702649116516104

>  <r_i_glide_emodel>  (397) 
-59.826113764332497

>  <r_i_glide_energy>  (397) 
-40.8978786468506

>  <r_i_glide_erotb>  (397) 
0.65287121805677995

>  <r_i_glide_esite>  (397) 
-0.17733459663610299

>  <r_i_glide_evdw>  (397) 
-31.464023590087901

>  <r_i_glide_gscore>  (397) 
-4.9003938983217301

>  <r_i_glide_hbond>  (397) 
-0.094302264932000501

>  <r_i_glide_ligand_efficiency>  (397) 
-0.144869512070356

>  <r_i_glide_ligand_efficiency_ln>  (397) 
-1.06320156987851

>  <r_i_glide_ligand_efficiency_sa>  (397) 
-0.46467393279383201

>  <r_i_glide_lipo>  (397) 
-1.82945297360979

>  <r_i_glide_metal>  (397) 
-0

>  <r_i_glide_rewards>  (397) 
-0.46389584318181798

>  <r_lp_Energy>  (397) 
41.276211000000004

>  <r_qp_ACxDN^.5/SA>  (397) 
0.013014599999999999

>  <r_qp_CIQPlogS>  (397) 
-6.2350000000000003

>  <r_qp_EA(eV)>  (397) 
1.04

>  <r_qp_FISA>  (397) 
62.060000000000002

>  <r_qp_FOSA>  (397) 
177.74799999999999

>  <r_qp_IP(eV)>  (397) 
8.4659999999999993

>  <r_qp_Jm>  (397) 
0.015815170624013001

>  <r_qp_PISA>  (397) 
375.28500000000003

>  <r_qp_PSA>  (397) 
59.030999999999999

>  <r_qp_PercentHumanOralAbsorption>  (397) 
100

>  <r_qp_QPPCaco>  (397) 
637.21699999999998

>  <r_qp_QPPMDCK>  (397) 
1062.644

>  <r_qp_QPlogBB>  (397) 
0.17299999999999999

>  <r_qp_QPlogHERG>  (397) 
-6.6950000000000003

>  <r_qp_QPlogKhsa>  (397) 
0.69699999999999995

>  <r_qp_QPlogKp>  (397) 
-2.7320000000000002

>  <r_qp_QPlogPC16>  (397) 
14.353

>  <r_qp_QPlogPo/w>  (397) 
4.7469999999999999

>  <r_qp_QPlogPoct>  (397) 
22.774999999999999

>  <r_qp_QPlogPw>  (397) 
12.212999999999999

>  <r_qp_QPlogS>  (397) 
-4.7350000000000003

>  <r_qp_QPpolrz>  (397) 
46.969000000000001

>  <r_qp_SASA>  (397) 
706.31299999999999

>  <r_qp_SAamideO>  (397) 
0

>  <r_qp_SAfluorine>  (397) 
40.582000000000001

>  <r_qp_WPSA>  (397) 
91.218999999999994

>  <r_qp_accptHB>  (397) 
6.5

>  <r_qp_dip^2/V>  (397) 
0.027960700000000002

>  <r_qp_dipole>  (397) 
6.1440000000000001

>  <r_qp_donorHB>  (397) 
2

>  <r_qp_glob>  (397) 
0.83642859999999997

>  <r_qp_mol_MW>  (397) 
462.95299999999997

>  <r_qp_volume>  (397) 
1350.1780000000001

>  <r_sd_BIOSOLVEIT.INFINISEE\_FTREES\_SIMILARITY>  (397) 
0.92700000000000005

>  <r_sd_BIOSOLVEIT.LOGP>  (397) 
4.5362

>  <r_sd_BIOSOLVEIT.MOLECULAR\_WEIGHT>  (397) 
463.96199999999999

>  <r_sd_BIOSOLVEIT.TPSA>  (397) 
58.460000000000001

>  <i_epik_Tot_Q>  (397) 
2

>  <i_epik_Tot_abs_Q>  (397) 
2

>  <i_f3d_flags>  (397) 
0

>  <i_i_glide_confnum>  (397) 
2

>  <i_i_glide_lignum>  (397) 
764

>  <i_i_glide_posenum>  (397) 
7

>  <i_i_glide_rotatable_bonds>  (397) 
8

>  <i_lp_mmshare_version>  (397) 
65135

>  <i_m_ct_format>  (397) 
2

>  <i_m_source_file_index>  (397) 
2242

>  <i_qp_#NandO>  (397) 
5

>  <i_qp_#acid>  (397) 
0

>  <i_qp_#amide>  (397) 
0

>  <i_qp_#amidine>  (397) 
0

>  <i_qp_#amine>  (397) 
1

>  <i_qp_#in34>  (397) 
0

>  <i_qp_#in56>  (397) 
22

>  <i_qp_#metab>  (397) 
6

>  <i_qp_#nonHatm>  (397) 
33

>  <i_qp_#noncon>  (397) 
0

>  <i_qp_#ringatoms>  (397) 
22

>  <i_qp_#rotor>  (397) 
7

>  <i_qp_#rtvFG>  (397) 
0

>  <i_qp_#stars>  (397) 
0

>  <i_qp_CNS>  (397) 
1

>  <i_qp_HumanOralAbsorption>  (397) 
3

>  <i_qp_RuleOfFive>  (397) 
0

>  <i_qp_RuleOfThree>  (397) 
0

>  <i_sd_BIOSOLVEIT.INFINISEE\_RESULT\_RANK>  (397) 
6978

>  <i_sd_version>  (397) 
0

>  <b_lp_Chiralities_Consistent>  (397) 
1

>  <b_sd_chiral_flag>  (397) 
0

>  <canonical_id>  (397) 
ATP-HTVS-404DE520584C

>  <compound_code>  (397) 
71713

>  <title>  (397) 
rxn502b____EMOL908292____EMOL30488121____EMOL2873214

>  <variant>  (397) 
71713-1

>  <source_file>  (397) 
运行/运行/ATP-VSW/ATP-VSW-DOCK_HTVS_1-001_lib/ATP-VSW-DOCK_HTVS_1-001_lib

>  <canonical_smiles>  (397) 
C[NH+](C)Cc1cccc(CNc2c(NC(=O)c3cccc(F)c3Cl)c[nH+]c3ccccc23)c1

>  <scaffold>  (397) 
O=C(Nc1c[nH+]c2ccccc2c1NCc1ccccc1)c1ccccc1

>  <molecular_formula>  (397) 
C26H26ClFN4O+2

$$$$
ATP-HTVS-40806E2DA49D
     RDKit          3D

 55 58  0  0  0  0  0  0  0  0999 V2000
  197.6292  180.8440  155.8932 O   0  0  0  0  0  0  0  0  0  0  0  0
  197.2241  181.9927  155.7198 C   0  0  0  0  0  0  0  0  0  0  0  0
  196.9736  182.5526  154.5230 N   0  0  0  0  0  0  0  0  0  0  0  0
  197.1046  181.9890  153.2277 C   0  0  0  0  0  0  0  0  0  0  0  0
  197.0117  180.6569  153.0283 N   0  0  0  0  0  0  0  0  0  0  0  0
  197.1114  180.1583  151.7859 C   0  0  0  0  0  0  0  0  0  0  0  0
  197.3403  180.9462  150.6383 C   0  0  0  0  0  0  0  0  0  0  0  0
  197.4500  180.3710  149.3578 N   0  0  0  0  0  0  0  0  0  0  0  0
  197.9247  179.1054  148.9928 C   0  0  0  0  0  0  0  0  0  0  0  0
  198.7004  178.2926  149.8528 C   0  0  0  0  0  0  0  0  0  0  0  0
  199.1282  177.0204  149.4348 C   0  0  0  0  0  0  0  0  0  0  0  0
  198.8235  176.5592  148.1385 C   0  0  0  0  0  0  0  0  0  0  0  0
  198.0905  177.3807  147.2602 C   0  0  0  0  0  0  0  0  0  0  0  0
  197.6444  178.6422  147.6872 C   0  0  0  0  0  0  0  0  0  0  0  0
  199.3006  175.1917  147.6923 C   0  0  1  0  0  0  0  0  0  0  0  0
  200.3494  175.2718  146.6451 N   0  0  1  0  0  0  0  0  0  0  0  0
  201.5913  175.9390  147.1033 C   0  0  2  0  0  0  0  0  0  0  0  0
  200.6247  173.9487  146.0440 C   0  0  2  0  0  0  0  0  0  0  0  0
  197.4110  182.3492  150.8224 C   0  0  0  0  0  0  0  0  0  0  0  0
  197.2920  182.8844  152.1363 C   0  0  0  0  0  0  0  0  0  0  0  0
  197.3738  184.2885  152.3212 C   0  0  0  0  0  0  0  0  0  0  0  0
  197.5676  185.1427  151.2219 C   0  0  0  0  0  0  0  0  0  0  0  0
  197.6712  184.6192  149.9236 C   0  0  0  0  0  0  0  0  0  0  0  0
  197.6026  183.2286  149.7253 C   0  0  0  0  0  0  0  0  0  0  0  0
  196.9416  182.8949  156.8872 C   0  0  0  0  0  0  0  0  0  0  0  0
  197.1920  184.2876  156.8049 C   0  0  0  0  0  0  0  0  0  0  0  0
  196.9308  185.1286  157.9036 C   0  0  0  0  0  0  0  0  0  0  0  0
  196.4333  184.5870  159.1015 C   0  0  0  0  0  0  0  0  0  0  0  0
  196.1992  183.2015  159.2003 C   0  0  0  0  0  0  0  0  0  0  0  0
  196.4588  182.3584  158.1014 C   0  0  0  0  0  0  0  0  0  0  0  0
  196.6564  183.5095  154.5486 H   0  0  0  0  0  0  0  0  0  0  0  0
  196.9853  179.0873  151.7258 H   0  0  0  0  0  0  0  0  0  0  0  0
  197.2133  180.9770  148.5860 H   0  0  0  0  0  0  0  0  0  0  0  0
  198.9982  178.6285  150.8352 H   0  0  0  0  0  0  0  0  0  0  0  0
  199.6949  176.4058  150.1189 H   0  0  0  0  0  0  0  0  0  0  0  0
  197.8520  177.0458  146.2598 H   0  0  0  0  0  0  0  0  0  0  0  0
  197.0870  179.2567  146.9939 H   0  0  0  0  0  0  0  0  0  0  0  0
  199.6776  174.6330  148.5504 H   0  0  0  0  0  0  0  0  0  0  0  0
  198.4358  174.6449  147.3167 H   0  0  0  0  0  0  0  0  0  0  0  0
  202.0458  175.3983  147.9360 H   0  0  0  0  0  0  0  0  0  0  0  0
  201.4001  176.9629  147.4279 H   0  0  0  0  0  0  0  0  0  0  0  0
  202.3212  175.9909  146.2941 H   0  0  0  0  0  0  0  0  0  0  0  0
  201.0396  173.2617  146.7841 H   0  0  0  0  0  0  0  0  0  0  0  0
  201.3364  174.0372  145.2220 H   0  0  0  0  0  0  0  0  0  0  0  0
  199.7130  173.5029  145.6440 H   0  0  0  0  0  0  0  0  0  0  0  0
  197.2831  184.7428  153.2957 H   0  0  0  0  0  0  0  0  0  0  0  0
  197.6224  186.2101  151.3796 H   0  0  0  0  0  0  0  0  0  0  0  0
  197.8119  185.2872  149.0845 H   0  0  0  0  0  0  0  0  0  0  0  0
  197.7058  182.8531  148.7177 H   0  0  0  0  0  0  0  0  0  0  0  0
  197.5966  184.7247  155.9037 H   0  0  0  0  0  0  0  0  0  0  0  0
  197.1222  186.1861  157.8227 H   0  0  0  0  0  0  0  0  0  0  0  0
  196.2256  185.2358  159.9393 H   0  0  0  0  0  0  0  0  0  0  0  0
  195.8314  182.7824  160.1240 H   0  0  0  0  0  0  0  0  0  0  0  0
  196.2887  181.2945  158.1952 H   0  0  0  0  0  0  0  0  0  0  0  0
  199.9754  175.8501  145.9033 H   0  0  0  0  0  0  0  0  0  0  0  0
  1  2  2  0
  2  3  1  0
  2 25  1  0
  3  4  1  0
  3 31  1  0
  4  5  1  0
  4 20  2  0
  5  6  2  0
  6  7  1  0
  6 32  1  0
  7  8  1  0
  7 19  2  0
  8  9  1  0
  8 33  1  0
  9 10  1  0
  9 14  2  0
 10 11  2  0
 10 34  1  0
 11 12  1  0
 11 35  1  0
 12 13  2  0
 12 15  1  0
 13 14  1  0
 13 36  1  0
 14 37  1  0
 15 16  1  0
 15 38  1  1
 15 39  1  0
 16 17  1  0
 16 18  1  0
 16 55  1  6
 17 40  1  1
 17 41  1  0
 17 42  1  0
 18 43  1  1
 18 44  1  0
 18 45  1  0
 19 20  1  0
 19 24  1  0
 20 21  1  0
 21 22  2  0
 21 46  1  0
 22 23  1  0
 22 47  1  0
 23 24  2  0
 23 48  1  0
 24 49  1  0
 25 26  2  0
 25 30  1  0
 26 27  1  0
 26 50  1  0
 27 28  2  0
 27 51  1  0
 28 29  1  0
 28 52  1  0
 29 30  2  0
 29 53  1  0
 30 54  1  0
M  CHG  1  16   1
M  END
>  <s_epik_cmdline>  (398) 
J2VwaWtfcHl0aG9uJywgJy1waCcsICc3LjAwMDAwMCcsICctcGh0JywgJzIuMDAwMDAwJywgJy1tcycsICcxNicsICctdG4nLCAnOCcsICctbWEnLCAnMjAwJywgJy1pbWFlJywgJzxpbmZpbGUubWFlPicsICctb21hZScsICc8b3V0ZmlsZS5tYWU+Jw==

>  <s_epik_input>  (398) 
W2NIXTFbY0hdW2NIXVtjSF1bY0hdYzFDKD1PKVtOSF1jKGMoYzIzKVtjSF1bY0hdW2NIXVtjSF0zKW5bY0hdYzJbTkhdYzRbY0hdW2NIXWMoW2NIXVtjSF00KVtDSDJdTihbQ0gzXSlbQ0gzXQ==

>  <s_i_glide_gridfile>  (398) 
ATP-Grid

>  <s_lp_Force_Field>  (398) 
OPLS_2005

>  <s_lp_Variant>  (398) 
rxn502c____EMOL478180____EMOL29936549____EMOL2873068-1

>  <s_lp_label>  (398) 
2222_sdstereoexpander_1_neutralizer_1_epik_1_stereoizer_1

>  <s_m_source_file>  (398) 
ATP-VSW-LIGPREP-002-in.maegz

>  <s_sd_BIOSOLVEIT.INFINISEE\_QUERY\_NAME>  (398) 
Ref-Lig

>  <s_sd_BIOSOLVEIT.INFINISEE\_QUERY\_SMILES>  (398) 
S(c1nc2c(cc1C[NH2+]Cc3ccc(cc3)C[NH+](C)C)cccc2)Cc4ccccc4

>  <s_sd_BIOSOLVEIT.INFINISEE\_REACTION\_NAME>  (398) 
rxn502c

>  <s_sd_BIOSOLVEIT.INFINISEE\_REAGENT1\_NAME>  (398) 
EMOL478180

>  <s_sd_BIOSOLVEIT.INFINISEE\_REAGENT1\_SMILES>  (398) 
[O-]C(=O)c1ccccc1

>  <s_sd_BIOSOLVEIT.INFINISEE\_REAGENT2\_NAME>  (398) 
EMOL29936549

>  <s_sd_BIOSOLVEIT.INFINISEE\_REAGENT2\_SMILES>  (398) 
Clc1c2c(c(nc1)N)cccc2

>  <s_sd_BIOSOLVEIT.INFINISEE\_REAGENT3\_NAME>  (398) 
EMOL2873068

>  <s_sd_BIOSOLVEIT.INFINISEE\_REAGENT3\_SMILES>  (398) 
N(Cc1ccc(N)cc1)(C)C

>  <s_sd_BIOSOLVEIT.INFINISEE\_SPACE>  (398) 
eXplore_7tr_2022-12

>  <s_vsw_compound_code>  (398) 
71074

>  <s_vsw_variant>  (398) 
71074-1

>  <r_epik_Charging_Adjusted_Penalty>  (398) 
0.074139713783215794

>  <r_epik_Ionization_Penalty>  (398) 
0.037199999999999997

>  <r_epik_Ionization_Penalty_Charging>  (398) 
0.037100000000000001

>  <r_epik_Ionization_Penalty_Neutral>  (398) 
0.0001

>  <r_epik_State_Penalty>  (398) 
0.037100000000000001

>  <r_i_docking_score>  (398) 
-3.48778814053638

>  <r_i_glide_ecoul>  (398) 
-2.1336417198181201

>  <r_i_glide_eff_state_penalty>  (398) 
0.037100000000000001

>  <r_i_glide_einternal>  (398) 
1.82034122943878

>  <r_i_glide_emodel>  (398) 
-46.4799174318863

>  <r_i_glide_energy>  (398) 
-35.599191188812298

>  <r_i_glide_erotb>  (398) 
0.74336557954494098

>  <r_i_glide_esite>  (398) 
-0.0800591159868074

>  <r_i_glide_evdw>  (398) 
-33.465549468994098

>  <r_i_glide_gscore>  (398) 
-3.5248881405363801

>  <r_i_glide_hbond>  (398) 
0

>  <r_i_glide_ligand_efficiency>  (398) 
-0.11625960468454601

>  <r_i_glide_ligand_efficiency_ln>  (398) 
-0.79246346802541701

>  <r_i_glide_ligand_efficiency_sa>  (398) 
-0.36124562239561098

>  <r_i_glide_lipo>  (398) 
-1.4959540544902701

>  <r_i_glide_metal>  (398) 
-0

>  <r_i_glide_rewards>  (398) 
-0.69891681818181695

>  <r_lp_Energy>  (398) 
32.836984999999999

>  <r_qp_ACxDN^.5/SA>  (398) 
0.0111935

>  <r_qp_CIQPlogS>  (398) 
-5.0940000000000003

>  <r_qp_EA(eV)>  (398) 
1.0900000000000001

>  <r_qp_FISA>  (398) 
69.271000000000001

>  <r_qp_FOSA>  (398) 
180.98599999999999

>  <r_qp_IP(eV)>  (398) 
7.6980000000000004

>  <r_qp_Jm>  (398) 
0.00350106470162405

>  <r_qp_PISA>  (398) 
507.79899999999998

>  <r_qp_PSA>  (398) 
60.619999999999997

>  <r_qp_PercentHumanOralAbsorption>  (398) 
100

>  <r_qp_QPPCaco>  (398) 
544.38599999999997

>  <r_qp_QPPMDCK>  (398) 
283.64600000000002

>  <r_qp_QPlogBB>  (398) 
-0.17100000000000001

>  <r_qp_QPlogHERG>  (398) 
-8.3439999999999994

>  <r_qp_QPlogKhsa>  (398) 
0.75

>  <r_qp_QPlogKp>  (398) 
-2.4940000000000002

>  <r_qp_QPlogPC16>  (398) 
15.297000000000001

>  <r_qp_QPlogPo/w>  (398) 
4.569

>  <r_qp_QPlogPoct>  (398) 
22.646999999999998

>  <r_qp_QPlogPw>  (398) 
12.984

>  <r_qp_QPlogS>  (398) 
-5.5599999999999996

>  <r_qp_QPpolrz>  (398) 
48.279000000000003

>  <r_qp_SASA>  (398) 
758.05600000000004

>  <r_qp_SAamideO>  (398) 
0

>  <r_qp_SAfluorine>  (398) 
0

>  <r_qp_WPSA>  (398) 
0

>  <r_qp_accptHB>  (398) 
6

>  <r_qp_dip^2/V>  (398) 
0.038312100000000002

>  <r_qp_dipole>  (398) 
7.1520000000000001

>  <r_qp_donorHB>  (398) 
2

>  <r_qp_glob>  (398) 
0.77357120000000001

>  <r_qp_mol_MW>  (398) 
396.49099999999999

>  <r_qp_volume>  (398) 
1335.2260000000001

>  <r_sd_BIOSOLVEIT.INFINISEE\_FTREES\_SIMILARITY>  (398) 
0.92900000000000005

>  <r_sd_BIOSOLVEIT.LOGP>  (398) 
3.8752

>  <r_sd_BIOSOLVEIT.MOLECULAR\_WEIGHT>  (398) 
397.5

>  <r_sd_BIOSOLVEIT.TPSA>  (398) 
58.460000000000001

>  <i_epik_Tot_Q>  (398) 
1

>  <i_epik_Tot_abs_Q>  (398) 
1

>  <i_f3d_flags>  (398) 
0

>  <i_i_glide_confnum>  (398) 
3

>  <i_i_glide_lignum>  (398) 
861

>  <i_i_glide_posenum>  (398) 
17

>  <i_i_glide_rotatable_bonds>  (398) 
7

>  <i_lp_mmshare_version>  (398) 
65135

>  <i_m_ct_format>  (398) 
2

>  <i_m_source_file_index>  (398) 
2222

>  <i_qp_#NandO>  (398) 
5

>  <i_qp_#acid>  (398) 
0

>  <i_qp_#amide>  (398) 
0

>  <i_qp_#amidine>  (398) 
0

>  <i_qp_#amine>  (398) 
1

>  <i_qp_#in34>  (398) 
0

>  <i_qp_#in56>  (398) 
22

>  <i_qp_#metab>  (398) 
5

>  <i_qp_#nonHatm>  (398) 
30

>  <i_qp_#noncon>  (398) 
0

>  <i_qp_#ringatoms>  (398) 
22

>  <i_qp_#rotor>  (398) 
6

>  <i_qp_#rtvFG>  (398) 
0

>  <i_qp_#stars>  (398) 
2

>  <i_qp_CNS>  (398) 
1

>  <i_qp_HumanOralAbsorption>  (398) 
3

>  <i_qp_RuleOfFive>  (398) 
0

>  <i_qp_RuleOfThree>  (398) 
0

>  <i_sd_BIOSOLVEIT.INFINISEE\_RESULT\_RANK>  (398) 
5300

>  <i_sd_version>  (398) 
0

>  <b_lp_Chiralities_Consistent>  (398) 
1

>  <b_sd_chiral_flag>  (398) 
0

>  <canonical_id>  (398) 
ATP-HTVS-40806E2DA49D

>  <compound_code>  (398) 
71074

>  <title>  (398) 
rxn502c____EMOL478180____EMOL29936549____EMOL2873068

>  <variant>  (398) 
71074-1

>  <source_file>  (398) 
运行/运行/ATP-VSW/ATP-VSW-DOCK_HTVS_1-002_lib.maegz

>  <canonical_smiles>  (398) 
C[NH+](C)Cc1ccc(Nc2cnc(NC(=O)c3ccccc3)c3ccccc23)cc1

>  <scaffold>  (398) 
O=C(Nc1ncc(Nc2ccccc2)c2ccccc12)c1ccccc1

>  <molecular_formula>  (398) 
C25H25N4O+

$$$$
ATP-HTVS-40CB5FD4F4D8
     RDKit          3D

 52 54  0  0  0  0  0  0  0  0999 V2000
  199.5279  182.3649  152.6343 F   0  0  0  0  0  0  0  0  0  0  0  0
  198.5982  181.8919  153.5003 C   0  0  0  0  0  0  0  0  0  0  0  0
  198.3124  182.6357  154.5902 N   0  0  0  0  0  0  0  0  0  0  0  0
  197.3954  182.1909  155.4818 C   0  0  0  0  0  0  0  0  0  0  0  0
  197.0115  182.8949  156.6498 N   0  0  0  0  0  0  0  0  0  0  0  0
  197.4227  184.1043  157.0742 C   0  0  0  0  0  0  0  0  0  0  0  0
  198.3505  184.7422  156.5760 O   0  0  0  0  0  0  0  0  0  0  0  0
  196.6989  184.6464  158.2793 C   0  0  0  0  0  0  0  0  0  0  0  0
  197.2683  185.7055  159.0250 C   0  0  0  0  0  0  0  0  0  0  0  0
  196.5858  186.2570  160.1289 C   0  0  0  0  0  0  0  0  0  0  0  0
  195.3275  185.7532  160.5001 C   0  0  0  0  0  0  0  0  0  0  0  0
  194.6793  186.2728  161.5696 F   0  0  0  0  0  0  0  0  0  0  0  0
  194.7457  184.7086  159.7594 C   0  0  0  0  0  0  0  0  0  0  0  0
  195.4199  184.1621  158.6514 C   0  0  0  0  0  0  0  0  0  0  0  0
  196.7282  180.9689  155.2879 C   0  0  0  0  0  0  0  0  0  0  0  0
  197.0119  180.1906  154.1510 C   0  0  0  0  0  0  0  0  0  0  0  0
  197.9724  180.6521  153.2269 C   0  0  0  0  0  0  0  0  0  0  0  0
  198.3454  179.9181  152.0868 N   0  0  0  0  0  0  0  0  0  0  0  0
  197.3450  179.1385  151.3756 C   0  0  1  0  0  0  0  0  0  0  0  0
  197.9241  178.2904  150.2604 C   0  0  0  0  0  0  0  0  0  0  0  0
  197.6124  178.5668  148.9107 C   0  0  0  0  0  0  0  0  0  0  0  0
  198.1133  177.7377  147.8815 C   0  0  0  0  0  0  0  0  0  0  0  0
  198.8999  176.6155  148.2211 C   0  0  0  0  0  0  0  0  0  0  0  0
  199.2267  176.3516  149.5626 C   0  0  0  0  0  0  0  0  0  0  0  0
  198.7355  177.1852  150.5840 C   0  0  0  0  0  0  0  0  0  0  0  0
  197.7963  178.0354  146.4223 C   0  0  1  0  0  0  0  0  0  0  0  0
  198.8855  178.7887  145.7415 N   0  0  2  0  0  0  0  0  0  0  0  0
  198.4301  179.4065  144.4758 C   0  0  2  0  0  0  0  0  0  0  0  0
  200.1324  178.0095  145.5387 C   0  0  2  0  0  0  0  0  0  0  0  0
  196.2704  182.4624  157.1832 H   0  0  0  0  0  0  0  0  0  0  0  0
  198.2320  186.1125  158.7509 H   0  0  0  0  0  0  0  0  0  0  0  0
  197.0297  187.0679  160.6874 H   0  0  0  0  0  0  0  0  0  0  0  0
  193.7722  184.3304  160.0326 H   0  0  0  0  0  0  0  0  0  0  0  0
  194.9216  183.3815  158.0930 H   0  0  0  0  0  0  0  0  0  0  0  0
  196.0001  180.6152  156.0063 H   0  0  0  0  0  0  0  0  0  0  0  0
  196.5010  179.2505  154.0190 H   0  0  0  0  0  0  0  0  0  0  0  0
  199.0827  180.3118  151.5203 H   0  0  0  0  0  0  0  0  0  0  0  0
  196.8186  178.4657  152.0492 H   0  0  0  0  0  0  0  0  0  0  0  0
  196.5969  179.8195  150.9714 H   0  0  0  0  0  0  0  0  0  0  0  0
  196.9823  179.4116  148.6671 H   0  0  0  0  0  0  0  0  0  0  0  0
  199.2760  175.9543  147.4546 H   0  0  0  0  0  0  0  0  0  0  0  0
  199.8484  175.5030  149.8089 H   0  0  0  0  0  0  0  0  0  0  0  0
  198.9709  176.9709  151.6174 H   0  0  0  0  0  0  0  0  0  0  0  0
  197.5688  177.1094  145.8927 H   0  0  0  0  0  0  0  0  0  0  0  0
  196.8764  178.6235  146.3900 H   0  0  0  0  0  0  0  0  0  0  0  0
  198.1407  178.6431  143.7556 H   0  0  0  0  0  0  0  0  0  0  0  0
  199.2244  180.0040  144.0268 H   0  0  0  0  0  0  0  0  0  0  0  0
  197.5731  180.0628  144.6313 H   0  0  0  0  0  0  0  0  0  0  0  0
  199.9438  177.1166  144.9390 H   0  0  0  0  0  0  0  0  0  0  0  0
  200.5769  177.6958  146.4811 H   0  0  0  0  0  0  0  0  0  0  0  0
  200.8877  178.6068  145.0259 H   0  0  0  0  0  0  0  0  0  0  0  0
  199.1248  179.5507  146.3588 H   0  0  0  0  0  0  0  0  0  0  0  0
  1  2  1  0
  2  3  2  0
  2 17  1  0
  3  4  1  0
  4  5  1  0
  4 15  2  0
  5  6  1  0
  5 30  1  0
  6  7  2  0
  6  8  1  0
  8  9  1  0
  8 14  2  0
  9 10  2  0
  9 31  1  0
 10 11  1  0
 10 32  1  0
 11 12  1  0
 11 13  2  0
 13 14  1  0
 13 33  1  0
 14 34  1  0
 15 16  1  0
 15 35  1  0
 16 17  2  0
 16 36  1  0
 17 18  1  0
 18 19  1  0
 18 37  1  0
 19 20  1  0
 19 38  1  1
 19 39  1  0
 20 21  2  0
 20 25  1  0
 21 22  1  0
 21 40  1  0
 22 23  2  0
 22 26  1  0
 23 24  1  0
 23 41  1  0
 24 25  2  0
 24 42  1  0
 25 43  1  0
 26 27  1  0
 26 44  1  6
 26 45  1  0
 27 28  1  0
 27 29  1  0
 27 52  1  1
 28 46  1  6
 28 47  1  0
 28 48  1  0
 29 49  1  6
 29 50  1  0
 29 51  1  0
M  CHG  1  27   1
M  END
>  <s_epik_cmdline>  (399) 
J2VwaWtfcHl0aG9uJywgJy1waCcsICc3LjAwMDAwMCcsICctcGh0JywgJzIuMDAwMDAwJywgJy1tcycsICcxNicsICctdG4nLCAnOCcsICctbWEnLCAnMjAwJywgJy1pbWFlJywgJzxpbmZpbGUubWFlPicsICctb21hZScsICc8b3V0ZmlsZS5tYWU+Jw==

>  <s_epik_input>  (399) 
W2NIXTFbY0hdYyhGKVtjSF1bY0hdYzFDKD1PKVtOSF1jKG5jMkYpW2NIXVtjSF1jMltOSF1bQ0gyXWMzW2NIXWMoW2NIXVtjSF1bY0hdMylbQ0gyXU4oW0NIM10pW0NIM10=

>  <s_i_glide_gridfile>  (399) 
ATP-Grid

>  <s_lp_Force_Field>  (399) 
OPLS_2005

>  <s_lp_Variant>  (399) 
rxn502a____EMOL480289____EMOL44468894____EMOL2873214-1

>  <s_lp_label>  (399) 
2942_sdstereoexpander_1_neutralizer_1_epik_1_stereoizer_1

>  <s_m_source_file>  (399) 
ATP-VSW-LIGPREP-002-in.maegz

>  <s_sd_BIOSOLVEIT.INFINISEE\_QUERY\_NAME>  (399) 
Ref-Lig

>  <s_sd_BIOSOLVEIT.INFINISEE\_QUERY\_SMILES>  (399) 
S(c1nc2c(cc1C[NH2+]Cc3ccc(cc3)C[NH+](C)C)cccc2)Cc4ccccc4

>  <s_sd_BIOSOLVEIT.INFINISEE\_REACTION\_NAME>  (399) 
rxn502a

>  <s_sd_BIOSOLVEIT.INFINISEE\_REAGENT1\_NAME>  (399) 
EMOL480289

>  <s_sd_BIOSOLVEIT.INFINISEE\_REAGENT1\_SMILES>  (399) 
Fc1ccc(cc1)C(=O)O

>  <s_sd_BIOSOLVEIT.INFINISEE\_REAGENT2\_NAME>  (399) 
EMOL44468894

>  <s_sd_BIOSOLVEIT.INFINISEE\_REAGENT2\_SMILES>  (399) 
Ic1c(F)nc(N)cc1

>  <s_sd_BIOSOLVEIT.INFINISEE\_REAGENT3\_NAME>  (399) 
EMOL2873214

>  <s_sd_BIOSOLVEIT.INFINISEE\_REAGENT3\_SMILES>  (399) 
N(Cc1cc(ccc1)CN)(C)C

>  <s_sd_BIOSOLVEIT.INFINISEE\_SPACE>  (399) 
eXplore_7tr_2022-12

>  <s_vsw_compound_code>  (399) 
94114

>  <s_vsw_variant>  (399) 
94114-1

>  <r_epik_Charging_Adjusted_Penalty>  (399) 
0.088195370499548398

>  <r_epik_Ionization_Penalty>  (399) 
0.0441

>  <r_epik_Ionization_Penalty_Charging>  (399) 
0.0441

>  <r_epik_Ionization_Penalty_Neutral>  (399) 
0

>  <r_epik_State_Penalty>  (399) 
0.0441

>  <r_i_docking_score>  (399) 
-4.82706740620175

>  <r_i_glide_ecoul>  (399) 
-6.6941361427307102

>  <r_i_glide_eff_state_penalty>  (399) 
0.0441

>  <r_i_glide_einternal>  (399) 
1.80254054069519

>  <r_i_glide_emodel>  (399) 
-54.745248615938202

>  <r_i_glide_energy>  (399) 
-39.515055179595898

>  <r_i_glide_erotb>  (399) 
0.86746074049047694

>  <r_i_glide_esite>  (399) 
-0.081553753452854705

>  <r_i_glide_evdw>  (399) 
-32.820919036865199

>  <r_i_glide_gscore>  (399) 
-4.8711674062017503

>  <r_i_glide_hbond>  (399) 
0

>  <r_i_glide_ligand_efficiency>  (399) 
-0.16645060021385299

>  <r_i_glide_ligand_efficiency_ln>  (399) 
-1.10527603215207

>  <r_i_glide_ligand_efficiency_sa>  (399) 
-0.51138897910853098

>  <r_i_glide_lipo>  (399) 
-1.7905351363230699

>  <r_i_glide_metal>  (399) 
-0

>  <r_i_glide_rewards>  (399) 
-1.2213728836634401

>  <r_lp_Energy>  (399) 
24.492321

>  <r_lp_tautomer_probability>  (399) 
0.999999999999999

>  <r_qp_ACxDN^.5/SA>  (399) 
0.012511

>  <r_qp_CIQPlogS>  (399) 
-4.665

>  <r_qp_EA(eV)>  (399) 
0.65900000000000003

>  <r_qp_FISA>  (399) 
78.123999999999995

>  <r_qp_FOSA>  (399) 
223.934

>  <r_qp_IP(eV)>  (399) 
8.3450000000000006

>  <r_qp_Jm>  (399) 
0.00177422746252569

>  <r_qp_PISA>  (399) 
344.11599999999999

>  <r_qp_PSA>  (399) 
64.665999999999997

>  <r_qp_PercentHumanOralAbsorption>  (399) 
100

>  <r_qp_QPPCaco>  (399) 
448.69499999999999

>  <r_qp_QPPMDCK>  (399) 
703.40499999999997

>  <r_qp_QPlogBB>  (399) 
-0.10199999999999999

>  <r_qp_QPlogHERG>  (399) 
-7.4870000000000001

>  <r_qp_QPlogKhsa>  (399) 
0.48799999999999999

>  <r_qp_QPlogKp>  (399) 
-3.1379999999999999

>  <r_qp_QPlogPC16>  (399) 
13.132999999999999

>  <r_qp_QPlogPo/w>  (399) 
4.1459999999999999

>  <r_qp_QPlogPoct>  (399) 
21.812999999999999

>  <r_qp_QPlogPw>  (399) 
12.178000000000001

>  <r_qp_QPlogS>  (399) 
-5.2119999999999997

>  <r_qp_QPpolrz>  (399) 
44.093000000000004

>  <r_qp_SASA>  (399) 
734.74199999999996

>  <r_qp_SAamideO>  (399) 
0

>  <r_qp_SAfluorine>  (399) 
88.567999999999998

>  <r_qp_WPSA>  (399) 
88.567999999999998

>  <r_qp_accptHB>  (399) 
6.5

>  <r_qp_dip^2/V>  (399) 
0.050562500000000003

>  <r_qp_dipole>  (399) 
8.0630000000000006

>  <r_qp_donorHB>  (399) 
2

>  <r_qp_glob>  (399) 
0.77827559999999996

>  <r_qp_mol_MW>  (399) 
396.43900000000002

>  <r_qp_volume>  (399) 
1285.7449999999999

>  <r_sd_BIOSOLVEIT.INFINISEE\_FTREES\_SIMILARITY>  (399) 
0.90400000000000003

>  <r_sd_BIOSOLVEIT.LOGP>  (399) 
2.8687

>  <r_sd_BIOSOLVEIT.MOLECULAR\_WEIGHT>  (399) 
397.447

>  <r_sd_BIOSOLVEIT.TPSA>  (399) 
58.460000000000001

>  <i_epik_Tot_Q>  (399) 
1

>  <i_epik_Tot_abs_Q>  (399) 
1

>  <i_f3d_flags>  (399) 
0

>  <i_i_glide_confnum>  (399) 
1

>  <i_i_glide_lignum>  (399) 
10

>  <i_i_glide_posenum>  (399) 
2

>  <i_i_glide_rotatable_bonds>  (399) 
8

>  <i_lp_mmshare_version>  (399) 
65135

>  <i_m_ct_format>  (399) 
2

>  <i_m_source_file_index>  (399) 
2942

>  <i_qp_#NandO>  (399) 
5

>  <i_qp_#acid>  (399) 
0

>  <i_qp_#amide>  (399) 
0

>  <i_qp_#amidine>  (399) 
0

>  <i_qp_#amine>  (399) 
1

>  <i_qp_#in34>  (399) 
0

>  <i_qp_#in56>  (399) 
18

>  <i_qp_#metab>  (399) 
5

>  <i_qp_#nonHatm>  (399) 
29

>  <i_qp_#noncon>  (399) 
0

>  <i_qp_#ringatoms>  (399) 
18

>  <i_qp_#rotor>  (399) 
7

>  <i_qp_#rtvFG>  (399) 
0

>  <i_qp_#stars>  (399) 
0

>  <i_qp_CNS>  (399) 
1

>  <i_qp_HumanOralAbsorption>  (399) 
3

>  <i_qp_RuleOfFive>  (399) 
0

>  <i_qp_RuleOfThree>  (399) 
0

>  <i_sd_BIOSOLVEIT.INFINISEE\_RESULT\_RANK>  (399) 
79284

>  <i_sd_version>  (399) 
0

>  <b_lp_Chiralities_Consistent>  (399) 
1

>  <b_sd_chiral_flag>  (399) 
0

>  <canonical_id>  (399) 
ATP-HTVS-40CB5FD4F4D8

>  <compound_code>  (399) 
94114

>  <title>  (399) 
rxn502a____EMOL480289____EMOL44468894____EMOL2873214

>  <variant>  (399) 
94114-1

>  <source_file>  (399) 
运行/运行/ATP-VSW/ATP-VSW-DOCK_HTVS_1-003_lib/ATP-VSW-DOCK_HTVS_1-003_lib.mae

>  <canonical_smiles>  (399) 
C[NH+](C)Cc1cccc(CNc2ccc(NC(=O)c3ccc(F)cc3)nc2F)c1

>  <scaffold>  (399) 
O=C(Nc1ccc(NCc2ccccc2)cn1)c1ccccc1

>  <molecular_formula>  (399) 
C22H23F2N4O+

$$$$
ATP-HTVS-40E764CABCB1
     RDKit          3D

 42 45  0  0  0  0  0  0  0  0999 V2000
  196.3505  179.8453  149.9388 Cl  0  0  0  0  0  0  0  0  0  0  0  0
  196.6288  180.2817  151.5882 C   0  0  0  0  0  0  0  0  0  0  0  0
  196.9450  179.2856  152.5312 C   0  0  0  0  0  0  0  0  0  0  0  0
  197.1132  179.6217  153.8893 C   0  0  0  0  0  0  0  0  0  0  0  0
  197.0439  180.9653  154.3040 C   0  0  0  0  0  0  0  0  0  0  0  0
  196.7470  181.9685  153.3468 C   0  0  0  0  0  0  0  0  0  0  0  0
  196.5249  181.6242  151.9982 C   0  0  0  0  0  0  0  0  0  0  0  0
  197.2829  181.3174  155.7720 C   0  0  1  0  0  0  0  0  0  0  0  0
  198.6978  181.6740  156.1152 N   0  0  0  0  0  0  0  0  0  0  0  0
  199.0034  182.4643  157.1801 C   0  0  0  0  0  0  0  0  0  0  0  0
  200.1576  182.7297  157.5275 O   0  0  0  0  0  0  0  0  0  0  0  0
  197.8464  182.9958  157.9782 C   0  0  0  0  0  0  0  0  0  0  0  0
  196.5405  182.9315  157.4370 C   0  0  0  0  0  0  0  0  0  0  0  0
  196.3490  182.3478  156.1917 N   0  0  0  0  0  0  0  0  0  0  0  0
  195.4481  183.4612  158.1506 C   0  0  0  0  0  0  0  0  0  0  0  0
  195.6430  184.0518  159.4104 C   0  0  0  0  0  0  0  0  0  0  0  0
  196.9361  184.1099  159.9617 C   0  0  0  0  0  0  0  0  0  0  0  0
  198.0343  183.5864  159.2487 C   0  0  0  0  0  0  0  0  0  0  0  0
  199.7911  180.9953  155.3721 C   0  0  1  0  0  0  0  0  0  0  0  0
  200.1481  179.6058  155.8959 C   0  0  0  0  0  0  0  0  0  0  0  0
  200.8321  179.4667  157.1235 C   0  0  0  0  0  0  0  0  0  0  0  0
  201.1448  178.1869  157.6307 C   0  0  0  0  0  0  0  0  0  0  0  0
  200.7504  177.0331  156.9240 C   0  0  0  0  0  0  0  0  0  0  0  0
  200.0806  177.1661  155.6935 C   0  0  0  0  0  0  0  0  0  0  0  0
  199.8135  178.4447  155.1608 C   0  0  0  0  0  0  0  0  0  0  0  0
  197.0417  178.2590  152.2124 H   0  0  0  0  0  0  0  0  0  0  0  0
  197.3074  178.8471  154.6202 H   0  0  0  0  0  0  0  0  0  0  0  0
  196.6604  183.0043  153.6481 H   0  0  0  0  0  0  0  0  0  0  0  0
  196.2594  182.3906  151.2811 H   0  0  0  0  0  0  0  0  0  0  0  0
  197.0497  180.4295  156.3673 H   0  0  0  0  0  0  0  0  0  0  0  0
  195.3653  182.2626  155.8747 H   0  0  0  0  0  0  0  0  0  0  0  0
  194.4516  183.4158  157.7347 H   0  0  0  0  0  0  0  0  0  0  0  0
  194.7979  184.4558  159.9458 H   0  0  0  0  0  0  0  0  0  0  0  0
  197.0800  184.5546  160.9296 H   0  0  0  0  0  0  0  0  0  0  0  0
  199.0223  183.6408  159.6882 H   0  0  0  0  0  0  0  0  0  0  0  0
  199.5643  180.9333  154.3071 H   0  0  0  0  0  0  0  0  0  0  0  0
  200.6985  181.5967  155.3922 H   0  0  0  0  0  0  0  0  0  0  0  0
  201.1389  180.3406  157.6833 H   0  0  0  0  0  0  0  0  0  0  0  0
  201.6986  178.0898  158.5558 H   0  0  0  0  0  0  0  0  0  0  0  0
  200.9897  176.0518  157.3110 H   0  0  0  0  0  0  0  0  0  0  0  0
  199.7751  176.2818  155.1492 H   0  0  0  0  0  0  0  0  0  0  0  0
  199.3312  178.5186  154.1957 H   0  0  0  0  0  0  0  0  0  0  0  0
  1  2  1  0
  2  3  1  0
  2  7  2  0
  3  4  2  0
  3 26  1  0
  4  5  1  0
  4 27  1  0
  5  6  2  0
  5  8  1  0
  6  7  1  0
  6 28  1  0
  7 29  1  0
  8  9  1  0
  8 14  1  0
  8 30  1  1
  9 10  1  0
  9 19  1  0
 10 11  2  0
 10 12  1  0
 12 13  1  0
 12 18  2  0
 13 14  1  0
 13 15  2  0
 14 31  1  0
 15 16  1  0
 15 32  1  0
 16 17  2  0
 16 33  1  0
 17 18  1  0
 17 34  1  0
 18 35  1  0
 19 20  1  0
 19 36  1  6
 19 37  1  0
 20 21  2  0
 20 25  1  0
 21 22  1  0
 21 38  1  0
 22 23  2  0
 22 39  1  0
 23 24  1  0
 23 40  1  0
 24 25  2  0
 24 41  1  0
 25 42  1  0
M  END
>  <s_epik_Chemistry_Notes>  (400) 
This compound contains an acetal/aminal-like group ( X-CH(R)-Y where X, Y are N, S, or O) that may be acid/base labile, releasing an aldehyde.

>  <s_epik_cmdline>  (400) 
J2VwaWtfcHl0aG9uJywgJy1waCcsICc3LjAwMDAwMCcsICctcGh0JywgJzIuMDAwMDAwJywgJy1tcycsICcxNicsICctdG4nLCAnOCcsICctbWEnLCAnMjAwJywgJy1pbWFlJywgJzxpbmZpbGUubWFlPicsICctb21hZScsICc8b3V0ZmlsZS5tYWU+Jw==

>  <s_epik_input>  (400) 
W2NIXTFbY0hdW2NIXVtjSF1jKGMxMilbTkhdW0NAQEhdKGMoW2NIXVtjSF0zKVtjSF1bY0hdYzNDbClOKEMyPU8pW0NIMl1jNFtjSF1bY0hdW2NIXVtjSF1bY0hdNA==

>  <s_i_glide_gridfile>  (400) 
ATP-Grid

>  <s_lp_Force_Field>  (400) 
OPLS_2005

>  <s_lp_Variant>  (400) 
m_66bab____89518____10970556-1

>  <s_lp_label>  (400) 
1825_sdstereoexpander_1_neutralizer_1_epik_1_stereoizer_1

>  <s_m_source_file>  (400) 
ATP-VSW-LIGPREP-002-in.maegz

>  <s_sd_BIOSOLVEIT.INFINISEE\_QUERY\_NAME>  (400) 
Ref-Lig

>  <s_sd_BIOSOLVEIT.INFINISEE\_QUERY\_SMILES>  (400) 
S(c1nc2c(cc1C[NH2+]Cc3ccc(cc3)C[NH+](C)C)cccc2)Cc4ccccc4

>  <s_sd_BIOSOLVEIT.INFINISEE\_REACTION\_NAME>  (400) 
m_66bab

>  <s_sd_BIOSOLVEIT.INFINISEE\_REAGENT1\_SMILES>  (400) 
[R1*]N(C(=O)c1c(N[R2*])cccc1)Cc2ccccc2

>  <s_sd_BIOSOLVEIT.INFINISEE\_REAGENT2\_SMILES>  (400) 
[R1*]C1([R2*])CC(c2ccc(Cl)cc2)CCC1

>  <s_sd_BIOSOLVEIT.INFINISEE\_SPACE>  (400) 
REALSpace_44bn_2023-08

>  <s_vsw_compound_code>  (400) 
58370

>  <s_vsw_variant>  (400) 
58370-1

>  <r_epik_Charging_Adjusted_Penalty>  (400) 
0

>  <r_epik_Ionization_Penalty>  (400) 
0

>  <r_epik_Ionization_Penalty_Charging>  (400) 
0

>  <r_epik_Ionization_Penalty_Neutral>  (400) 
0

>  <r_epik_State_Penalty>  (400) 
-0

>  <r_i_docking_score>  (400) 
-4.2671466110497596

>  <r_i_glide_ecoul>  (400) 
-2.2772045135497998

>  <r_i_glide_eff_state_penalty>  (400) 
-0

>  <r_i_glide_einternal>  (400) 
2.12790727615356

>  <r_i_glide_emodel>  (400) 
-42.750448116341097

>  <r_i_glide_energy>  (400) 
-34.001861572265597

>  <r_i_glide_erotb>  (400) 
0.46946400384524201

>  <r_i_glide_esite>  (400) 
-0.16586820155439

>  <r_i_glide_evdw>  (400) 
-31.724657058715799

>  <r_i_glide_gscore>  (400) 
-4.2671466110497596

>  <r_i_glide_hbond>  (400) 
-0.16

>  <r_i_glide_ligand_efficiency>  (400) 
-0.17068586444198999

>  <r_i_glide_ligand_efficiency_ln>  (400) 
-1.0114416228837599

>  <r_i_glide_ligand_efficiency_sa>  (400) 
-0.499088494755076

>  <r_i_glide_lipo>  (400) 
-1.4521914742814399

>  <r_i_glide_metal>  (400) 
-0

>  <r_i_glide_rewards>  (400) 
-1.0307374090909101

>  <r_lp_Energy>  (400) 
28.234705999999999

>  <r_lp_tautomer_probability>  (400) 
1

>  <r_qp_ACxDN^.5/SA>  (400) 
0.0068897000000000003

>  <r_qp_CIQPlogS>  (400) 
-5.9550000000000001

>  <r_qp_EA(eV)>  (400) 
0.504

>  <r_qp_FISA>  (400) 
42.853000000000002

>  <r_qp_FOSA>  (400) 
41.268999999999998

>  <r_qp_IP(eV)>  (400) 
8.6370000000000005

>  <r_qp_Jm>  (400) 
0.35705695189570402

>  <r_qp_PISA>  (400) 
428.53300000000002

>  <r_qp_PSA>  (400) 
38.75

>  <r_qp_PercentHumanOralAbsorption>  (400) 
100

>  <r_qp_QPPCaco>  (400) 
3886.2240000000002

>  <r_qp_QPPMDCK>  (400) 
5053.7529999999997

>  <r_qp_QPlogBB>  (400) 
0.224

>  <r_qp_QPlogHERG>  (400) 
-5.8319999999999999

>  <r_qp_QPlogKhsa>  (400) 
0.626

>  <r_qp_QPlogKp>  (400) 
-0.60799999999999998

>  <r_qp_QPlogPC16>  (400) 
12.041

>  <r_qp_QPlogPo/w>  (400) 
4.6680000000000001

>  <r_qp_QPlogPoct>  (400) 
17.085000000000001

>  <r_qp_QPlogPw>  (400) 
9.3100000000000005

>  <r_qp_QPlogS>  (400) 
-5.3819999999999997

>  <r_qp_QPpolrz>  (400) 
38.679000000000002

>  <r_qp_SASA>  (400) 
580.57299999999998

>  <r_qp_SAamideO>  (400) 
0

>  <r_qp_SAfluorine>  (400) 
0

>  <r_qp_WPSA>  (400) 
67.918000000000006

>  <r_qp_accptHB>  (400) 
4

>  <r_qp_dip^2/V>  (400) 
0.027720600000000001

>  <r_qp_dipole>  (400) 
5.3949999999999996

>  <r_qp_donorHB>  (400) 
1

>  <r_qp_glob>  (400) 
0.86058659999999998

>  <r_qp_mol_MW>  (400) 
348.83100000000002

>  <r_qp_volume>  (400) 
1050.098

>  <r_sd_BIOSOLVEIT.INFINISEE\_FTREES\_SIMILARITY>  (400) 
0.90400000000000003

>  <r_sd_BIOSOLVEIT.LOGP>  (400) 
5.1067

>  <r_sd_BIOSOLVEIT.MOLECULAR\_WEIGHT>  (400) 
348.83100000000002

>  <r_sd_BIOSOLVEIT.TPSA>  (400) 
32.340000000000003

>  <i_epik_Tot_Q>  (400) 
0

>  <i_epik_Tot_abs_Q>  (400) 
0

>  <i_f3d_flags>  (400) 
0

>  <i_i_glide_confnum>  (400) 
2

>  <i_i_glide_lignum>  (400) 
643

>  <i_i_glide_posenum>  (400) 
19

>  <i_i_glide_rotatable_bonds>  (400) 
3

>  <i_lp_mmshare_version>  (400) 
65135

>  <i_m_ct_format>  (400) 
2

>  <i_m_source_file_index>  (400) 
1825

>  <i_qp_#NandO>  (400) 
3

>  <i_qp_#acid>  (400) 
0

>  <i_qp_#amide>  (400) 
0

>  <i_qp_#amidine>  (400) 
0

>  <i_qp_#amine>  (400) 
0

>  <i_qp_#in34>  (400) 
0

>  <i_qp_#in56>  (400) 
22

>  <i_qp_#metab>  (400) 
4

>  <i_qp_#nonHatm>  (400) 
25

>  <i_qp_#noncon>  (400) 
1

>  <i_qp_#ringatoms>  (400) 
22

>  <i_qp_#rotor>  (400) 
2

>  <i_qp_#rtvFG>  (400) 
0

>  <i_qp_#stars>  (400) 
0

>  <i_qp_CNS>  (400) 
1

>  <i_qp_HumanOralAbsorption>  (400) 
3

>  <i_qp_RuleOfFive>  (400) 
0

>  <i_qp_RuleOfThree>  (400) 
0

>  <i_sd_BIOSOLVEIT.INFINISEE\_REAGENT1\_NAME>  (400) 
89518

>  <i_sd_BIOSOLVEIT.INFINISEE\_REAGENT2\_NAME>  (400) 
10970556

>  <i_sd_BIOSOLVEIT.INFINISEE\_RESULT\_RANK>  (400) 
79470

>  <i_sd_version>  (400) 
0

>  <b_lp_Chiralities_Consistent>  (400) 
1

>  <b_sd_chiral_flag>  (400) 
0

>  <canonical_id>  (400) 
ATP-HTVS-40E764CABCB1

>  <compound_code>  (400) 
58370

>  <title>  (400) 
m_66bab____89518____10970556

>  <variant>  (400) 
58370-1

>  <source_file>  (400) 
运行/运行/ATP-VSW/ATP-VSW-DOCK_HTVS_1-002_lib.maegz

>  <canonical_smiles>  (400) 
O=C1c2ccccc2N[C@@H](c2ccc(Cl)cc2)N1Cc1ccccc1

>  <scaffold>  (400) 
O=C1c2ccccc2NC(c2ccccc2)N1Cc1ccccc1

>  <molecular_formula>  (400) 
C21H17ClN2O

$$$$
ATP-HTVS-410A75CF1522
     RDKit          3D

 66 69  0  0  0  0  0  0  0  0999 V2000
  197.1497  185.4263  148.1387 O   0  0  0  0  0  0  0  0  0  0  0  0
  196.9806  184.3983  149.0964 C   0  0  1  0  0  0  0  0  0  0  0  0
  197.7359  184.6445  150.3842 C   0  0  0  0  0  0  0  0  0  0  0  0
  198.9931  185.2877  150.3782 C   0  0  0  0  0  0  0  0  0  0  0  0
  199.6763  185.5078  151.5927 C   0  0  0  0  0  0  0  0  0  0  0  0
  199.1042  185.0945  152.8196 C   0  0  0  0  0  0  0  0  0  0  0  0
  197.8389  184.4589  152.8140 C   0  0  0  0  0  0  0  0  0  0  0  0
  197.1657  184.2260  151.6034 C   0  0  0  0  0  0  0  0  0  0  0  0
  199.8819  185.3056  154.1202 C   0  0  1  0  0  0  0  0  0  0  0  0
  199.1137  185.7265  155.2852 N   0  0  0  0  0  0  0  0  0  0  0  0
  198.2950  184.8998  156.0282 C   0  0  0  0  0  0  0  0  0  0  0  0
  198.2036  183.6111  155.7011 N   0  0  0  0  0  0  0  0  0  0  0  0
  197.3652  182.7998  156.3992 C   0  0  0  0  0  0  0  0  0  0  0  0
  197.2355  181.4621  155.9964 N   0  0  0  0  0  0  0  0  0  0  0  0
  197.7418  180.9904  154.7146 C   0  0  1  0  0  0  0  0  0  0  0  0
  196.6046  180.5478  153.7793 C   0  0  1  0  0  0  0  0  0  0  0  0
  197.0997  179.9239  152.4803 C   0  0  0  0  0  0  0  0  0  0  0  0
  196.3591  180.0830  151.2885 C   0  0  0  0  0  0  0  0  0  0  0  0
  196.8182  179.5163  150.0806 C   0  0  0  0  0  0  0  0  0  0  0  0
  198.0270  178.7871  150.0556 C   0  0  0  0  0  0  0  0  0  0  0  0
  198.7726  178.6426  151.2415 C   0  0  0  0  0  0  0  0  0  0  0  0
  198.3004  179.1809  152.4506 C   0  0  0  0  0  0  0  0  0  0  0  0
  198.5306  178.1487  148.7717 C   0  0  1  0  0  0  0  0  0  0  0  0
  198.1901  176.7030  148.6640 N   0  0  1  0  0  0  0  0  0  0  0  0
  198.6637  176.1305  147.3858 C   0  0  2  0  0  0  0  0  0  0  0  0
  198.6292  175.8776  149.8169 C   0  0  2  0  0  0  0  0  0  0  0  0
  196.6191  183.3021  157.4778 C   0  0  0  0  0  0  0  0  0  0  0  0
  196.7636  184.6790  157.7725 C   0  0  0  0  0  0  0  0  0  0  0  0
  197.5890  185.4498  157.0311 N   0  0  0  0  0  0  0  0  0  0  0  0
  196.0427  185.2620  158.8288 C   0  0  0  0  0  0  0  0  0  0  0  0
  195.1833  184.4599  159.6061 C   0  0  0  0  0  0  0  0  0  0  0  0
  195.0253  183.0899  159.3000 C   0  0  0  0  0  0  0  0  0  0  0  0
  195.7351  182.5098  158.2395 C   0  0  0  0  0  0  0  0  0  0  0  0
  196.3025  185.6089  147.7404 H   0  0  0  0  0  0  0  0  0  0  0  0
  195.9196  184.3070  149.3267 H   0  0  0  0  0  0  0  0  0  0  0  0
  197.3014  183.4500  148.6631 H   0  0  0  0  0  0  0  0  0  0  0  0
  199.4327  185.6158  149.4438 H   0  0  0  0  0  0  0  0  0  0  0  0
  200.6389  185.9928  151.5665 H   0  0  0  0  0  0  0  0  0  0  0  0
  197.3595  184.1138  153.7406 H   0  0  0  0  0  0  0  0  0  0  0  0
  196.2077  183.7294  151.6295 H   0  0  0  0  0  0  0  0  0  0  0  0
  200.4095  184.3842  154.3686 H   0  0  0  0  0  0  0  0  0  0  0  0
  200.6543  186.0518  153.9594 H   0  0  0  0  0  0  0  0  0  0  0  0
  199.1754  186.6938  155.5685 H   0  0  0  0  0  0  0  0  0  0  0  0
  196.6401  180.8319  156.5205 H   0  0  0  0  0  0  0  0  0  0  0  0
  198.3634  181.7230  154.1983 H   0  0  0  0  0  0  0  0  0  0  0  0
  198.3874  180.1571  154.9726 H   0  0  0  0  0  0  0  0  0  0  0  0
  195.9655  179.8295  154.2906 H   0  0  0  0  0  0  0  0  0  0  0  0
  195.9711  181.4054  153.5443 H   0  0  0  0  0  0  0  0  0  0  0  0
  195.4333  180.6403  151.2936 H   0  0  0  0  0  0  0  0  0  0  0  0
  196.2405  179.6413  149.1748 H   0  0  0  0  0  0  0  0  0  0  0  0
  199.6987  178.0902  151.2556 H   0  0  0  0  0  0  0  0  0  0  0  0
  198.8815  178.9903  153.3401 H   0  0  0  0  0  0  0  0  0  0  0  0
  198.0964  178.6821  147.9233 H   0  0  0  0  0  0  0  0  0  0  0  0
  199.6111  178.2901  148.7068 H   0  0  0  0  0  0  0  0  0  0  0  0
  199.7522  176.1611  147.3189 H   0  0  0  0  0  0  0  0  0  0  0  0
  198.2523  176.6796  146.5378 H   0  0  0  0  0  0  0  0  0  0  0  0
  198.3491  175.0906  147.2964 H   0  0  0  0  0  0  0  0  0  0  0  0
  199.7115  175.9346  149.9467 H   0  0  0  0  0  0  0  0  0  0  0  0
  198.3590  174.8316  149.6734 H   0  0  0  0  0  0  0  0  0  0  0  0
  198.1458  176.1785  150.7455 H   0  0  0  0  0  0  0  0  0  0  0  0
  196.1491  186.3092  159.0617 H   0  0  0  0  0  0  0  0  0  0  0  0
  194.6359  184.8981  160.4332 H   0  0  0  0  0  0  0  0  0  0  0  0
  194.3615  182.4720  159.8803 H   0  0  0  0  0  0  0  0  0  0  0  0
  195.5884  181.4596  158.0338 H   0  0  0  0  0  0  0  0  0  0  0  0
  197.6376  186.4428  157.2348 H   0  0  0  0  0  0  0  0  0  0  0  0
  197.1813  176.6470  148.6384 H   0  0  0  0  0  0  0  0  0  0  0  0
  1  2  1  0
  1 34  1  0
  2  3  1  0
  2 35  1  1
  2 36  1  0
  3  4  1  0
  3  8  2  0
  4  5  2  0
  4 37  1  0
  5  6  1  0
  5 38  1  0
  6  7  2  0
  6  9  1  0
  7  8  1  0
  7 39  1  0
  8 40  1  0
  9 10  1  0
  9 41  1  1
  9 42  1  0
 10 11  1  0
 10 43  1  0
 11 12  1  0
 11 29  2  0
 12 13  2  0
 13 14  1  0
 13 27  1  0
 14 15  1  0
 14 44  1  0
 15 16  1  0
 15 45  1  6
 15 46  1  0
 16 17  1  0
 16 47  1  1
 16 48  1  0
 17 18  1  0
 17 22  2  0
 18 19  2  0
 18 49  1  0
 19 20  1  0
 19 50  1  0
 20 21  2  0
 20 23  1  0
 21 22  1  0
 21 51  1  0
 22 52  1  0
 23 24  1  0
 23 53  1  6
 23 54  1  0
 24 25  1  0
 24 26  1  0
 24 66  1  6
 25 55  1  1
 25 56  1  0
 25 57  1  0
 26 58  1  1
 26 59  1  0
 26 60  1  0
 27 28  1  0
 27 33  2  0
 28 29  1  0
 28 30  2  0
 29 65  1  0
 30 31  1  0
 30 61  1  0
 31 32  2  0
 31 62  1  0
 32 33  1  0
 32 63  1  0
 33 64  1  0
M  CHG  2  24   1  29   1
M  END
>  <s_epik_cmdline>  (401) 
J2VwaWtfcHl0aG9uJywgJy1waCcsICc3LjAwMDAwMCcsICctcGh0JywgJzIuMDAwMDAwJywgJy1tcycsICcxNicsICctdG4nLCAnOCcsICctbWEnLCAnMjAwJywgJy1pbWFlJywgJzxpbmZpbGUubWFlPicsICctb21hZScsICc8b3V0ZmlsZS5tYWU+Jw==

>  <s_epik_input>  (401) 
W09IXVtDSDJdYzFbY0hdW2NIXWMoW2NIXVtjSF0xKVtDSDJdW05IXWMobmMoYzIzKVtjSF1bY0hdW2NIXVtjSF0zKW5jMltOSF1bQ0gyXVtDSDJdYzRbY0hdW2NIXWMoW2NIXVtjSF00KVtDSDJdTihbQ0gzXSlbQ0gzXQ==

>  <s_i_glide_gridfile>  (401) 
ATP-Grid

>  <s_lp_Force_Field>  (401) 
OPLS_2005

>  <s_lp_Variant>  (401) 
m_282030aaa____21926464____22360182____21953206-1

>  <s_lp_label>  (401) 
820_sdstereoexpander_1_neutralizer_1_epik_1_stereoizer_1

>  <s_m_source_file>  (401) 
ATP-VSW-LIGPREP-002-in.maegz

>  <s_sd_BIOSOLVEIT.INFINISEE\_QUERY\_NAME>  (401) 
Ref-Lig

>  <s_sd_BIOSOLVEIT.INFINISEE\_QUERY\_SMILES>  (401) 
S(c1nc2c(cc1C[NH2+]Cc3ccc(cc3)C[NH+](C)C)cccc2)Cc4ccccc4

>  <s_sd_BIOSOLVEIT.INFINISEE\_REACTION\_NAME>  (401) 
m_282030aaa

>  <s_sd_BIOSOLVEIT.INFINISEE\_REAGENT1\_SMILES>  (401) 
[R1*]NCCc1ccc(cc1)CN(C)C

>  <s_sd_BIOSOLVEIT.INFINISEE\_REAGENT2\_SMILES>  (401) 
[R2*]c1nc([R1*])c2c(n1)cccc2

>  <s_sd_BIOSOLVEIT.INFINISEE\_REAGENT3\_SMILES>  (401) 
[R2*]NCc1ccc(cc1)CO

>  <s_sd_BIOSOLVEIT.INFINISEE\_SPACE>  (401) 
REALSpace_44bn_2023-08

>  <s_vsw_compound_code>  (401) 
26210

>  <s_vsw_variant>  (401) 
26210-1

>  <r_epik_Charging_Adjusted_Penalty>  (401) 
0.115397305346272

>  <r_epik_Ionization_Penalty>  (401) 
0.054600000000000003

>  <r_epik_Ionization_Penalty_Charging>  (401) 
0.054600000000000003

>  <r_epik_Ionization_Penalty_Neutral>  (401) 
0

>  <r_epik_State_Penalty>  (401) 
0.0608

>  <r_i_docking_score>  (401) 
-4.9217258080341804

>  <r_i_glide_ecoul>  (401) 
-9.9164772033691406

>  <r_i_glide_eff_state_penalty>  (401) 
0.0608

>  <r_i_glide_einternal>  (401) 
4.5504713058471697

>  <r_i_glide_emodel>  (401) 
-63.732721491498097

>  <r_i_glide_energy>  (401) 
-44.795158386230497

>  <r_i_glide_erotb>  (401) 
0.91446350048116698

>  <r_i_glide_esite>  (401) 
-0.052949529876807802

>  <r_i_glide_evdw>  (401) 
-34.8786811828613

>  <r_i_glide_gscore>  (401) 
-4.9825258080341799

>  <r_i_glide_hbond>  (401) 
-0.35082468288110202

>  <r_i_glide_ligand_efficiency>  (401) 
-0.14914320630406599

>  <r_i_glide_ligand_efficiency_ln>  (401) 
-1.09456633637441

>  <r_i_glide_ligand_efficiency_sa>  (401) 
-0.47838195374838599

>  <r_i_glide_lipo>  (401) 
-1.86955133817184

>  <r_i_glide_metal>  (401) 
-0

>  <r_i_glide_rewards>  (401) 
-0.39225811793714899

>  <r_lp_Energy>  (401) 
21.962243000000001

>  <r_qp_ACxDN^.5/SA>  (401) 
0.0146549

>  <r_qp_CIQPlogS>  (401) 
-5.6399999999999997

>  <r_qp_EA(eV)>  (401) 
0.505

>  <r_qp_FISA>  (401) 
95.489999999999995

>  <r_qp_FOSA>  (401) 
330.19099999999997

>  <r_qp_IP(eV)>  (401) 
7.952

>  <r_qp_Jm>  (401) 
0.0048340661628952604

>  <r_qp_PISA>  (401) 
366.18700000000001

>  <r_qp_PSA>  (401) 
68.299999999999997

>  <r_qp_PercentHumanOralAbsorption>  (401) 
100

>  <r_qp_QPPCaco>  (401) 
307.08999999999997

>  <r_qp_QPPMDCK>  (401) 
152.76499999999999

>  <r_qp_QPlogBB>  (401) 
-0.71499999999999997

>  <r_qp_QPlogHERG>  (401) 
-7.3659999999999997

>  <r_qp_QPlogKhsa>  (401) 
0.72899999999999998

>  <r_qp_QPlogKp>  (401) 
-2.996

>  <r_qp_QPlogPC16>  (401) 
15.945

>  <r_qp_QPlogPo/w>  (401) 
4.6630000000000003

>  <r_qp_QPlogPoct>  (401) 
24.344000000000001

>  <r_qp_QPlogPw>  (401) 
13.332000000000001

>  <r_qp_QPlogS>  (401) 
-4.9649999999999999

>  <r_qp_QPpolrz>  (401) 
49.412999999999997

>  <r_qp_SASA>  (401) 
791.86800000000005

>  <r_qp_SAamideO>  (401) 
0

>  <r_qp_SAfluorine>  (401) 
0

>  <r_qp_WPSA>  (401) 
0

>  <r_qp_accptHB>  (401) 
6.7000000000000002

>  <r_qp_dip^2/V>  (401) 
0.0087655000000000007

>  <r_qp_dipole>  (401) 
3.5990000000000002

>  <r_qp_donorHB>  (401) 
3

>  <r_qp_glob>  (401) 
0.79228270000000001

>  <r_qp_mol_MW>  (401) 
441.57499999999999

>  <r_qp_volume>  (401) 
1477.5830000000001

>  <r_sd_BIOSOLVEIT.INFINISEE\_FTREES\_SIMILARITY>  (401) 
0.92200000000000004

>  <r_sd_BIOSOLVEIT.LOGP>  (401) 
3.0333000000000001

>  <r_sd_BIOSOLVEIT.MOLECULAR\_WEIGHT>  (401) 
442.584

>  <r_sd_BIOSOLVEIT.TPSA>  (401) 
74.510000000000005

>  <i_epik_Tot_Q>  (401) 
2

>  <i_epik_Tot_abs_Q>  (401) 
2

>  <i_f3d_flags>  (401) 
0

>  <i_i_glide_confnum>  (401) 
7

>  <i_i_glide_lignum>  (401) 
257

>  <i_i_glide_posenum>  (401) 
13

>  <i_i_glide_rotatable_bonds>  (401) 
11

>  <i_lp_mmshare_version>  (401) 
65135

>  <i_m_ct_format>  (401) 
2

>  <i_m_source_file_index>  (401) 
820

>  <i_qp_#NandO>  (401) 
6

>  <i_qp_#acid>  (401) 
0

>  <i_qp_#amide>  (401) 
0

>  <i_qp_#amidine>  (401) 
0

>  <i_qp_#amine>  (401) 
1

>  <i_qp_#in34>  (401) 
0

>  <i_qp_#in56>  (401) 
22

>  <i_qp_#metab>  (401) 
6

>  <i_qp_#nonHatm>  (401) 
33

>  <i_qp_#noncon>  (401) 
0

>  <i_qp_#ringatoms>  (401) 
22

>  <i_qp_#rotor>  (401) 
11

>  <i_qp_#rtvFG>  (401) 
0

>  <i_qp_#stars>  (401) 
0

>  <i_qp_CNS>  (401) 
-1

>  <i_qp_HumanOralAbsorption>  (401) 
3

>  <i_qp_RuleOfFive>  (401) 
0

>  <i_qp_RuleOfThree>  (401) 
0

>  <i_sd_BIOSOLVEIT.INFINISEE\_REAGENT1\_NAME>  (401) 
21926464

>  <i_sd_BIOSOLVEIT.INFINISEE\_REAGENT2\_NAME>  (401) 
22360182

>  <i_sd_BIOSOLVEIT.INFINISEE\_REAGENT3\_NAME>  (401) 
21953206

>  <i_sd_BIOSOLVEIT.INFINISEE\_RESULT\_RANK>  (401) 
12709

>  <i_sd_version>  (401) 
0

>  <b_lp_Chiralities_Consistent>  (401) 
1

>  <b_sd_chiral_flag>  (401) 
0

>  <canonical_id>  (401) 
ATP-HTVS-410A75CF1522

>  <compound_code>  (401) 
26210

>  <title>  (401) 
m_282030aaa____21926464____22360182____21953206

>  <variant>  (401) 
26210-1

>  <source_file>  (401) 
运行/运行/ATP-VSW/ATP-VSW-DOCK_HTVS_1-002_lib.maegz

>  <canonical_smiles>  (401) 
C[NH+](C)Cc1ccc(CCNc2nc(NCc3ccc(CO)cc3)[nH+]c3ccccc23)cc1

>  <scaffold>  (401) 
c1ccc(CCNc2nc(NCc3ccccc3)[nH+]c3ccccc23)cc1

>  <molecular_formula>  (401) 
C27H33N5O+2

$$$$
ATP-HTVS-41202D3CA1C8
     RDKit          3D

 56 58  0  0  0  0  0  0  0  0999 V2000
  195.2788  185.5376  159.8502 S   0  0  0  0  0  0  0  0  0  0  0  0
  196.4499  185.8167  158.5692 C   0  0  0  0  0  0  0  0  0  0  0  0
  196.8792  184.6824  157.9952 N   0  0  0  0  0  0  0  0  0  0  0  0
  196.3406  183.5441  158.5764 C   0  0  0  0  0  0  0  0  0  0  0  0
  195.4277  183.8173  159.5593 C   0  0  0  0  0  0  0  0  0  0  0  0
  196.8011  182.1961  158.1062 C   0  0  1  0  0  0  0  0  0  0  0  0
  195.9490  181.7114  156.9935 N   0  0  1  0  0  0  0  0  0  0  0  0
  196.5626  181.7113  155.6447 C   0  0  1  0  0  0  0  0  0  0  0  0
  197.8031  180.8413  155.5555 C   0  0  0  0  0  0  0  0  0  0  0  0
  197.6992  179.4928  155.1360 C   0  0  0  0  0  0  0  0  0  0  0  0
  198.8469  178.6678  155.0883 C   0  0  0  0  0  0  0  0  0  0  0  0
  200.0975  179.1720  155.4959 C   0  0  0  0  0  0  0  0  0  0  0  0
  200.2005  180.5244  155.8978 C   0  0  0  0  0  0  0  0  0  0  0  0
  199.0728  181.3656  155.8945 C   0  0  0  0  0  0  0  0  0  0  0  0
  201.3054  178.2524  155.5363 C   0  0  1  0  0  0  0  0  0  0  0  0
  201.3874  177.3864  156.7529 N   0  0  1  0  0  0  0  0  0  0  0  0
  200.1456  177.2715  157.5654 C   0  0  2  0  0  0  0  0  0  0  0  0
  201.9460  176.0541  156.4365 C   0  0  2  0  0  0  0  0  0  0  0  0
  196.9128  187.1613  158.1053 C   0  0  1  0  0  0  0  0  0  0  0  0
  197.0260  188.0082  159.2393 O   0  0  0  0  0  0  0  0  0  0  0  0
  197.4846  189.2864  159.0094 C   0  0  0  0  0  0  0  0  0  0  0  0
  197.9214  189.7269  157.7333 C   0  0  0  0  0  0  0  0  0  0  0  0
  198.3789  191.0433  157.5591 C   0  0  0  0  0  0  0  0  0  0  0  0
  198.4108  191.9384  158.6373 C   0  0  0  0  0  0  0  0  0  0  0  0
  197.9826  191.5111  159.9170 C   0  0  0  0  0  0  0  0  0  0  0  0
  197.5249  190.1864  160.0990 C   0  0  0  0  0  0  0  0  0  0  0  0
  198.9172  193.3465  158.4153 C   0  0  2  0  0  0  0  0  0  0  0  0
  195.6810  180.7658  157.2215 H   0  0  0  0  0  0  0  0  0  0  0  0
  194.8756  183.1152  160.1597 H   0  0  0  0  0  0  0  0  0  0  0  0
  197.8717  182.2294  157.8330 H   0  0  0  0  0  0  0  0  0  0  0  0
  196.6805  181.4884  158.9303 H   0  0  0  0  0  0  0  0  0  0  0  0
  195.8158  181.3392  154.9404 H   0  0  0  0  0  0  0  0  0  0  0  0
  196.7974  182.7302  155.3381 H   0  0  0  0  0  0  0  0  0  0  0  0
  196.7382  179.0626  154.9220 H   0  0  0  0  0  0  0  0  0  0  0  0
  198.7530  177.6372  154.7863 H   0  0  0  0  0  0  0  0  0  0  0  0
  201.1487  180.9133  156.2471 H   0  0  0  0  0  0  0  0  0  0  0  0
  199.1565  182.3931  156.2093 H   0  0  0  0  0  0  0  0  0  0  0  0
  201.3051  177.6569  154.6186 H   0  0  0  0  0  0  0  0  0  0  0  0
  202.2222  178.8483  155.4852 H   0  0  0  0  0  0  0  0  0  0  0  0
  199.3512  176.7901  156.9985 H   0  0  0  0  0  0  0  0  0  0  0  0
  199.7870  178.2397  157.9122 H   0  0  0  0  0  0  0  0  0  0  0  0
  200.3111  176.6628  158.4607 H   0  0  0  0  0  0  0  0  0  0  0  0
  201.3031  175.5289  155.7290 H   0  0  0  0  0  0  0  0  0  0  0  0
  202.0308  175.4477  157.3332 H   0  0  0  0  0  0  0  0  0  0  0  0
  202.9387  176.1531  155.9950 H   0  0  0  0  0  0  0  0  0  0  0  0
  197.8775  187.0547  157.6031 H   0  0  0  0  0  0  0  0  0  0  0  0
  196.1656  187.5492  157.4110 H   0  0  0  0  0  0  0  0  0  0  0  0
  197.9172  189.0824  156.8660 H   0  0  0  0  0  0  0  0  0  0  0  0
  198.7052  191.3604  156.5779 H   0  0  0  0  0  0  0  0  0  0  0  0
  198.0105  192.1922  160.7559 H   0  0  0  0  0  0  0  0  0  0  0  0
  197.2085  189.8531  161.0762 H   0  0  0  0  0  0  0  0  0  0  0  0
  198.3564  194.0687  159.0087 H   0  0  0  0  0  0  0  0  0  0  0  0
  198.8133  193.6176  157.3621 H   0  0  0  0  0  0  0  0  0  0  0  0
  199.9750  193.4059  158.6756 H   0  0  0  0  0  0  0  0  0  0  0  0
  202.0742  177.8368  157.3403 H   0  0  0  0  0  0  0  0  0  0  0  0
  195.0822  182.2408  156.9105 H   0  0  0  0  0  0  0  0  0  0  0  0
  1  2  1  0
  1  5  1  0
  2  3  2  0
  2 19  1  0
  3  4  1  0
  4  5  2  0
  4  6  1  0
  5 29  1  0
  6  7  1  0
  6 30  1  6
  6 31  1  0
  7  8  1  0
  7 28  1  1
  7 56  1  0
  8  9  1  0
  8 32  1  6
  8 33  1  0
  9 10  1  0
  9 14  2  0
 10 11  2  0
 10 34  1  0
 11 12  1  0
 11 35  1  0
 12 13  2  0
 12 15  1  0
 13 14  1  0
 13 36  1  0
 14 37  1  0
 15 16  1  0
 15 38  1  6
 15 39  1  0
 16 17  1  0
 16 18  1  0
 16 55  1  1
 17 40  1  6
 17 41  1  0
 17 42  1  0
 18 43  1  6
 18 44  1  0
 18 45  1  0
 19 20  1  0
 19 46  1  6
 19 47  1  0
 20 21  1  0
 21 22  1  0
 21 26  2  0
 22 23  2  0
 22 48  1  0
 23 24  1  0
 23 49  1  0
 24 25  2  0
 24 27  1  0
 25 26  1  0
 25 50  1  0
 26 51  1  0
 27 52  1  1
 27 53  1  0
 27 54  1  0
M  CHG  2   7   1  16   1
M  END
>  <s_epik_cmdline>  (402) 
J2VwaWtfcHl0aG9uJywgJy1waCcsICc3LjAwMDAwMCcsICctcGh0JywgJzIuMDAwMDAwJywgJy1tcycsICcxNicsICctdG4nLCAnOCcsICctbWEnLCAnMjAwJywgJy1pbWFlJywgJzxpbmZpbGUubWFlPicsICctb21hZScsICc8b3V0ZmlsZS5tYWU+Jw==

>  <s_epik_input>  (402) 
W2NIXTFbY0hdYyhbQ0gzXSlbY0hdW2NIXWMxT1tDSDJdYzJzW2NIXWMobjIpW0NIMl1bTkhdW0NIMl1jM1tjSF1bY0hdYyhbY0hdW2NIXTMpW0NIMl1OKFtDSDNdKVtDSDNd

>  <s_i_glide_gridfile>  (402) 
ATP-Grid

>  <s_lp_Force_Field>  (402) 
OPLS_2005

>  <s_lp_Variant>  (402) 
m_270004bbb____8288884____7548986-1

>  <s_lp_label>  (402) 
724_sdstereoexpander_1_neutralizer_1_epik_1_stereoizer_1

>  <s_m_source_file>  (402) 
ATP-VSW-LIGPREP-003-in.maegz

>  <s_sd_BIOSOLVEIT.INFINISEE\_QUERY\_NAME>  (402) 
Ref-Lig

>  <s_sd_BIOSOLVEIT.INFINISEE\_QUERY\_SMILES>  (402) 
S(c1nc2c(cc1C[NH2+]Cc3ccc(cc3)C[NH+](C)C)cccc2)Cc4ccccc4

>  <s_sd_BIOSOLVEIT.INFINISEE\_REACTION\_NAME>  (402) 
m_270004bbb

>  <s_sd_BIOSOLVEIT.INFINISEE\_REAGENT1\_SMILES>  (402) 
[R1*]NCc1ccc(cc1)CN(C)C

>  <s_sd_BIOSOLVEIT.INFINISEE\_REAGENT2\_SMILES>  (402) 
[R1*]CC=1N=C(SC1)COc2ccc(cc2)C

>  <s_sd_BIOSOLVEIT.INFINISEE\_SPACE>  (402) 
REALSpace_44bn_2023-08

>  <s_vsw_compound_code>  (402) 
23139

>  <s_vsw_variant>  (402) 
23139-1

>  <r_epik_Charging_Adjusted_Penalty>  (402) 
0.42435712099276002

>  <r_epik_Ionization_Penalty>  (402) 
0.21249999999999999

>  <r_epik_Ionization_Penalty_Charging>  (402) 
0.21249999999999999

>  <r_epik_Ionization_Penalty_Neutral>  (402) 
0

>  <r_epik_State_Penalty>  (402) 
0.21190000000000001

>  <r_i_docking_score>  (402) 
-5.44286236205763

>  <r_i_glide_ecoul>  (402) 
-14.6976165771484

>  <r_i_glide_eff_state_penalty>  (402) 
0.21190000000000001

>  <r_i_glide_einternal>  (402) 
11.818488121032701

>  <r_i_glide_emodel>  (402) 
-69.674238762042705

>  <r_i_glide_energy>  (402) 
-47.636150360107401

>  <r_i_glide_erotb>  (402) 
1.05679400597813

>  <r_i_glide_esite>  (402) 
-0.10000000000000001

>  <r_i_glide_evdw>  (402) 
-32.938533782958999

>  <r_i_glide_gscore>  (402) 
-5.6547623620576299

>  <r_i_glide_hbond>  (402) 
-0.36642054352875703

>  <r_i_glide_ligand_efficiency>  (402) 
-0.20158749489102301

>  <r_i_glide_ligand_efficiency_ln>  (402) 
-1.26700862528799

>  <r_i_glide_ligand_efficiency_sa>  (402) 
-0.60476248400867005

>  <r_i_glide_lipo>  (402) 
-1.1495972851504199

>  <r_i_glide_metal>  (402) 
-0

>  <r_i_glide_rewards>  (402) 
-1.24396936363636

>  <r_lp_Energy>  (402) 
15.677975

>  <r_lp_tautomer_probability>  (402) 
1

>  <r_qp_ACxDN^.5/SA>  (402) 
0.0074200999999999998

>  <r_qp_CIQPlogS>  (402) 
-3.5950000000000002

>  <r_qp_EA(eV)>  (402) 
0.73399999999999999

>  <r_qp_FISA>  (402) 
26.721

>  <r_qp_FOSA>  (402) 
375.084

>  <r_qp_IP(eV)>  (402) 
8.8970000000000002

>  <r_qp_Jm>  (402) 
0.00079712963240282503

>  <r_qp_PISA>  (402) 
323.12200000000001

>  <r_qp_PSA>  (402) 
38.229999999999997

>  <r_qp_PercentHumanOralAbsorption>  (402) 
100

>  <r_qp_QPPCaco>  (402) 
343.79599999999999

>  <r_qp_QPPMDCK>  (402) 
358.74799999999999

>  <r_qp_QPlogBB>  (402) 
0.63300000000000001

>  <r_qp_QPlogHERG>  (402) 
-8.4030000000000005

>  <r_qp_QPlogKhsa>  (402) 
0.73899999999999999

>  <r_qp_QPlogKp>  (402) 
-4.1349999999999998

>  <r_qp_QPlogPC16>  (402) 
13.984

>  <r_qp_QPlogPo/w>  (402) 
4.6280000000000001

>  <r_qp_QPlogPoct>  (402) 
18.957999999999998

>  <r_qp_QPlogPw>  (402) 
9.1240000000000006

>  <r_qp_QPlogS>  (402) 
-4.5449999999999999

>  <r_qp_QPpolrz>  (402) 
44.973999999999997

>  <r_qp_SASA>  (402) 
774.92499999999995

>  <r_qp_SAamideO>  (402) 
0

>  <r_qp_SAfluorine>  (402) 
0

>  <r_qp_WPSA>  (402) 
49.997

>  <r_qp_accptHB>  (402) 
5.75

>  <r_qp_dip^2/V>  (402) 
0.00055800000000000001

>  <r_qp_dipole>  (402) 
0.86599999999999999

>  <r_qp_donorHB>  (402) 
1

>  <r_qp_glob>  (402) 
0.76036800000000004

>  <r_qp_mol_MW>  (402) 
381.53500000000003

>  <r_qp_volume>  (402) 
1344.8630000000001

>  <r_sd_BIOSOLVEIT.INFINISEE\_FTREES\_SIMILARITY>  (402) 
0.92800000000000005

>  <r_sd_BIOSOLVEIT.LOGP>  (402) 
1.93862

>  <r_sd_BIOSOLVEIT.MOLECULAR\_WEIGHT>  (402) 
383.55599999999998

>  <r_sd_BIOSOLVEIT.TPSA>  (402) 
43.170000000000002

>  <i_epik_Tot_Q>  (402) 
2

>  <i_epik_Tot_abs_Q>  (402) 
2

>  <i_f3d_flags>  (402) 
0

>  <i_i_glide_confnum>  (402) 
9

>  <i_i_glide_lignum>  (402) 
302

>  <i_i_glide_posenum>  (402) 
4

>  <i_i_glide_rotatable_bonds>  (402) 
9

>  <i_lp_mmshare_version>  (402) 
65135

>  <i_m_ct_format>  (402) 
2

>  <i_m_source_file_index>  (402) 
724

>  <i_qp_#NandO>  (402) 
4

>  <i_qp_#acid>  (402) 
0

>  <i_qp_#amide>  (402) 
0

>  <i_qp_#amidine>  (402) 
0

>  <i_qp_#amine>  (402) 
2

>  <i_qp_#in34>  (402) 
0

>  <i_qp_#in56>  (402) 
17

>  <i_qp_#metab>  (402) 
9

>  <i_qp_#nonHatm>  (402) 
27

>  <i_qp_#noncon>  (402) 
0

>  <i_qp_#ringatoms>  (402) 
17

>  <i_qp_#rotor>  (402) 
9

>  <i_qp_#rtvFG>  (402) 
0

>  <i_qp_#stars>  (402) 
2

>  <i_qp_CNS>  (402) 
2

>  <i_qp_HumanOralAbsorption>  (402) 
3

>  <i_qp_RuleOfFive>  (402) 
0

>  <i_qp_RuleOfThree>  (402) 
1

>  <i_sd_BIOSOLVEIT.INFINISEE\_REAGENT1\_NAME>  (402) 
8288884

>  <i_sd_BIOSOLVEIT.INFINISEE\_REAGENT2\_NAME>  (402) 
7548986

>  <i_sd_BIOSOLVEIT.INFINISEE\_RESULT\_RANK>  (402) 
6054

>  <i_sd_version>  (402) 
0

>  <b_lp_Chiralities_Consistent>  (402) 
1

>  <b_sd_chiral_flag>  (402) 
0

>  <canonical_id>  (402) 
ATP-HTVS-41202D3CA1C8

>  <compound_code>  (402) 
23139

>  <title>  (402) 
m_270004bbb____8288884____7548986

>  <variant>  (402) 
23139-1

>  <source_file>  (402) 
运行/运行/ATP-VSW/ATP-VSW-DOCK_HTVS_1-003_lib/ATP-VSW-DOCK_HTVS_1-003_lib.mae

>  <canonical_smiles>  (402) 
Cc1ccc(OCc2nc(C[NH2+]Cc3ccc(C[NH+](C)C)cc3)cs2)cc1

>  <scaffold>  (402) 
c1ccc(C[NH2+]Cc2csc(COc3ccccc3)n2)cc1

>  <molecular_formula>  (402) 
C22H29N3OS+2

$$$$
ATP-HTVS-4128F66E5F96
     RDKit          3D

 61 64  0  0  0  0  0  0  0  0999 V2000
  199.6933  181.9435  149.5515 F   0  0  0  0  0  0  0  0  0  0  0  0
  198.9355  183.0215  149.2401 C   0  0  0  0  0  0  0  0  0  0  0  0
  199.1013  183.6433  147.9840 C   0  0  0  0  0  0  0  0  0  0  0  0
  200.0189  183.1720  147.1069 F   0  0  0  0  0  0  0  0  0  0  0  0
  198.3114  184.7536  147.6355 C   0  0  0  0  0  0  0  0  0  0  0  0
  197.3555  185.2394  148.5442 C   0  0  0  0  0  0  0  0  0  0  0  0
  197.1835  184.6196  149.7975 C   0  0  0  0  0  0  0  0  0  0  0  0
  197.9735  183.5038  150.1602 C   0  0  0  0  0  0  0  0  0  0  0  0
  197.7458  182.7713  151.4836 C   0  0  1  0  0  0  0  0  0  0  0  0
  197.4485  183.6872  152.5936 N   0  0  0  0  0  0  0  0  0  0  0  0
  197.3178  183.3159  153.9236 C   0  0  0  0  0  0  0  0  0  0  0  0
  197.1606  182.0337  154.2358 N   0  0  0  0  0  0  0  0  0  0  0  0
  196.9838  181.6294  155.4952 C   0  0  0  0  0  0  0  0  0  0  0  0
  196.8118  180.2572  155.7085 N   0  0  0  0  0  0  0  0  0  0  0  0
  197.6387  179.2891  155.0156 C   0  0  1  0  0  0  0  0  0  0  0  0
  199.1084  179.6575  154.9295 C   0  0  0  0  0  0  0  0  0  0  0  0
  199.9347  179.5709  156.0695 C   0  0  0  0  0  0  0  0  0  0  0  0
  201.2796  179.9916  155.9964 C   0  0  0  0  0  0  0  0  0  0  0  0
  201.7933  180.4851  154.7758 C   0  0  0  0  0  0  0  0  0  0  0  0
  200.9699  180.5645  153.6368 C   0  0  0  0  0  0  0  0  0  0  0  0
  199.6313  180.1473  153.7150 C   0  0  0  0  0  0  0  0  0  0  0  0
  202.1677  179.9443  157.2281 C   0  0  1  0  0  0  0  0  0  0  0  0
  201.9865  181.0813  158.1327 N   0  0  0  0  0  0  0  0  0  0  0  0
  202.8344  180.8956  159.3045 C   0  0  2  0  0  0  0  0  0  0  0  0
  202.3577  182.3379  157.4910 C   0  0  2  0  0  0  0  0  0  0  0  0
  196.9917  182.5760  156.5376 C   0  0  0  0  0  0  0  0  0  0  0  0
  197.2002  183.9279  156.1672 C   0  0  0  0  0  0  0  0  0  0  0  0
  197.3589  184.2684  154.8698 N   0  0  0  0  0  0  0  0  0  0  0  0
  197.2618  184.9296  157.1545 C   0  0  0  0  0  0  0  0  0  0  0  0
  197.1080  184.5799  158.5135 C   0  0  0  0  0  0  0  0  0  0  0  0
  196.8809  183.2346  158.8875 C   0  0  0  0  0  0  0  0  0  0  0  0
  196.8158  182.2334  157.8983 C   0  0  0  0  0  0  0  0  0  0  0  0
  196.6649  181.6756  151.2538 C   0  0  2  0  0  0  0  0  0  0  0  0
  198.4378  185.2279  146.6725 H   0  0  0  0  0  0  0  0  0  0  0  0
  196.7465  186.0890  148.2717 H   0  0  0  0  0  0  0  0  0  0  0  0
  196.4230  184.9999  150.4627 H   0  0  0  0  0  0  0  0  0  0  0  0
  198.6924  182.2956  151.7464 H   0  0  0  0  0  0  0  0  0  0  0  0
  197.5679  184.6714  152.4219 H   0  0  0  0  0  0  0  0  0  0  0  0
  196.4848  179.9269  156.6475 H   0  0  0  0  0  0  0  0  0  0  0  0
  197.5522  178.3450  155.5470 H   0  0  0  0  0  0  0  0  0  0  0  0
  197.2357  179.1233  154.0147 H   0  0  0  0  0  0  0  0  0  0  0  0
  199.5262  179.2057  157.0027 H   0  0  0  0  0  0  0  0  0  0  0  0
  202.8188  180.8171  154.7139 H   0  0  0  0  0  0  0  0  0  0  0  0
  201.3575  180.9591  152.7092 H   0  0  0  0  0  0  0  0  0  0  0  0
  198.9886  180.2334  152.8529 H   0  0  0  0  0  0  0  0  0  0  0  0
  201.9385  179.0229  157.7671 H   0  0  0  0  0  0  0  0  0  0  0  0
  203.2113  179.8631  156.9178 H   0  0  0  0  0  0  0  0  0  0  0  0
  202.7088  181.7236  160.0028 H   0  0  0  0  0  0  0  0  0  0  0  0
  203.8884  180.8412  159.0269 H   0  0  0  0  0  0  0  0  0  0  0  0
  202.5713  179.9786  159.8313 H   0  0  0  0  0  0  0  0  0  0  0  0
  202.2504  183.1717  158.1846 H   0  0  0  0  0  0  0  0  0  0  0  0
  201.7085  182.5484  156.6403 H   0  0  0  0  0  0  0  0  0  0  0  0
  203.3891  182.3163  157.1365 H   0  0  0  0  0  0  0  0  0  0  0  0
  197.4362  185.9569  156.8730 H   0  0  0  0  0  0  0  0  0  0  0  0
  197.1649  185.3555  159.2735 H   0  0  0  0  0  0  0  0  0  0  0  0
  196.7701  182.9692  159.9302 H   0  0  0  0  0  0  0  0  0  0  0  0
  196.6506  181.2079  158.2016 H   0  0  0  0  0  0  0  0  0  0  0  0
  196.9566  181.0225  150.4319 H   0  0  0  0  0  0  0  0  0  0  0  0
  195.7084  182.1364  151.0096 H   0  0  0  0  0  0  0  0  0  0  0  0
  196.4867  180.9947  152.0823 H   0  0  0  0  0  0  0  0  0  0  0  0
  197.4895  185.2527  154.6355 H   0  0  0  0  0  0  0  0  0  0  0  0
  1  2  1  0
  2  3  2  0
  2  8  1  0
  3  4  1  0
  3  5  1  0
  5  6  2  0
  5 34  1  0
  6  7  1  0
  6 35  1  0
  7  8  2  0
  7 36  1  0
  8  9  1  0
  9 10  1  0
  9 33  1  0
  9 37  1  1
 10 11  1  0
 10 38  1  0
 11 12  1  0
 11 28  2  0
 12 13  2  0
 13 14  1  0
 13 26  1  0
 14 15  1  0
 14 39  1  0
 15 16  1  0
 15 40  1  1
 15 41  1  0
 16 17  2  0
 16 21  1  0
 17 18  1  0
 17 42  1  0
 18 19  2  0
 18 22  1  0
 19 20  1  0
 19 43  1  0
 20 21  2  0
 20 44  1  0
 21 45  1  0
 22 23  1  0
 22 46  1  1
 22 47  1  0
 23 24  1  0
 23 25  1  0
 24 48  1  1
 24 49  1  0
 24 50  1  0
 25 51  1  1
 25 52  1  0
 25 53  1  0
 26 27  1  0
 26 32  2  0
 27 28  1  0
 27 29  2  0
 28 61  1  0
 29 30  1  0
 29 54  1  0
 30 31  2  0
 30 55  1  0
 31 32  1  0
 31 56  1  0
 32 57  1  0
 33 58  1  6
 33 59  1  0
 33 60  1  0
M  CHG  1  28   1
M  END
>  <s_epik_cmdline>  (403) 
J2VwaWtfcHl0aG9uJywgJy1waCcsICc3LjAwMDAwMCcsICctcGh0JywgJzIuMDAwMDAwJywgJy1tcycsICcxNicsICctdG4nLCAnOCcsICctbWEnLCAnMjAwJywgJy1pbWFlJywgJzxpbmZpbGUubWFlPicsICctb21hZScsICc8b3V0ZmlsZS5tYWU+Jw==

>  <s_epik_input>  (403) 
RmMxYyhGKVtjSF1bY0hdW2NIXWMxW0NASF0oW0NIM10pW05IXWMobmMoYzIzKVtjSF1bY0hdW2NIXVtjSF0zKW5jMltOSF1bQ0gyXWM0W2NIXWMoW2NIXVtjSF1bY0hdNClbQ0gyXU4oW0NIM10pW0NIM10=

>  <s_i_glide_gridfile>  (403) 
ATP-Grid

>  <s_lp_Force_Field>  (403) 
OPLS_2005

>  <s_lp_Variant>  (403) 
m_282030aaa____21892664____22360182____21940090-4

>  <s_lp_label>  (403) 
1081_sdstereoexpander_2_neutralizer_1_epik_2_stereoizer_1

>  <s_m_source_file>  (403) 
ATP-VSW-LIGPREP-002-in.maegz

>  <s_sd_BIOSOLVEIT.INFINISEE\_QUERY\_NAME>  (403) 
Ref-Lig

>  <s_sd_BIOSOLVEIT.INFINISEE\_QUERY\_SMILES>  (403) 
S(c1nc2c(cc1C[NH2+]Cc3ccc(cc3)C[NH+](C)C)cccc2)Cc4ccccc4

>  <s_sd_BIOSOLVEIT.INFINISEE\_REACTION\_NAME>  (403) 
m_282030aaa

>  <s_sd_BIOSOLVEIT.INFINISEE\_REAGENT1\_SMILES>  (403) 
[R1*]NC(c1c(F)c(F)ccc1)C

>  <s_sd_BIOSOLVEIT.INFINISEE\_REAGENT2\_SMILES>  (403) 
[R2*]c1nc([R1*])c2c(n1)cccc2

>  <s_sd_BIOSOLVEIT.INFINISEE\_REAGENT3\_SMILES>  (403) 
[R2*]NCc1cc(ccc1)CN(C)C

>  <s_sd_BIOSOLVEIT.INFINISEE\_SPACE>  (403) 
REALSpace_44bn_2023-08

>  <s_vsw_compound_code>  (403) 
34562

>  <s_vsw_variant>  (403) 
34562-4

>  <r_epik_Charging_Adjusted_Penalty>  (403) 
1.63403414879375

>  <r_epik_Ionization_Penalty>  (403) 
1.5858000000000001

>  <r_epik_Ionization_Penalty_Charging>  (403) 
0.0247

>  <r_epik_Ionization_Penalty_Neutral>  (403) 
1.5611999999999999

>  <r_epik_State_Penalty>  (403) 
1.6093

>  <r_i_docking_score>  (403) 
-1.59177629781537

>  <r_i_glide_ecoul>  (403) 
-6.5288748741149902

>  <r_i_glide_eff_state_penalty>  (403) 
1.6093

>  <r_i_glide_einternal>  (403) 
1.2189255952835101

>  <r_i_glide_emodel>  (403) 
-43.240480832069501

>  <r_i_glide_energy>  (403) 
-33.273034572601297

>  <r_i_glide_erotb>  (403) 
0.69706100735996501

>  <r_i_glide_esite>  (403) 
-0.151367088082348

>  <r_i_glide_evdw>  (403) 
-26.7441596984863

>  <r_i_glide_gscore>  (403) 
-3.2010762978153702

>  <r_i_glide_hbond>  (403) 
-0.16

>  <r_i_glide_ligand_efficiency>  (403) 
-0.0482356453883446

>  <r_i_glide_ligand_efficiency_ln>  (403) 
-0.35400280685755903

>  <r_i_glide_ligand_efficiency_sa>  (403) 
-0.15471748833229601

>  <r_i_glide_lipo>  (403) 
-0.91325246901082102

>  <r_i_glide_metal>  (403) 
-0

>  <r_i_glide_rewards>  (403) 
-0.35697853204060098

>  <r_lp_Energy>  (403) 
15.41621

>  <r_qp_ACxDN^.5/SA>  (403) 
0.010914699999999999

>  <r_qp_CIQPlogS>  (403) 
-6.5039999999999996

>  <r_qp_EA(eV)>  (403) 
0.747

>  <r_qp_FISA>  (403) 
42.887999999999998

>  <r_qp_FOSA>  (403) 
251.83799999999999

>  <r_qp_IP(eV)>  (403) 
8.2159999999999993

>  <r_qp_Jm>  (403) 
0.14452332699821999

>  <r_qp_PISA>  (403) 
291.14400000000001

>  <r_qp_PSA>  (403) 
46.914000000000001

>  <r_qp_PercentHumanOralAbsorption>  (403) 
100

>  <r_qp_QPPCaco>  (403) 
968.495

>  <r_qp_QPPMDCK>  (403) 
1155.3979999999999

>  <r_qp_QPlogBB>  (403) 
0.26800000000000002

>  <r_qp_QPlogHERG>  (403) 
-5.4800000000000004

>  <r_qp_QPlogKhsa>  (403) 
0.80300000000000005

>  <r_qp_QPlogKp>  (403) 
-2.5790000000000002

>  <r_qp_QPlogPC16>  (403) 
12.651999999999999

>  <r_qp_QPlogPo/w>  (403) 
4.944

>  <r_qp_QPlogPoct>  (403) 
20.213000000000001

>  <r_qp_QPlogPw>  (403) 
9.6609999999999996

>  <r_qp_QPlogS>  (403) 
-3.9119999999999999

>  <r_qp_QPpolrz>  (403) 
43.296999999999997

>  <r_qp_SASA>  (403) 
647.85000000000002

>  <r_qp_SAamideO>  (403) 
0

>  <r_qp_SAfluorine>  (403) 
61.979999999999997

>  <r_qp_WPSA>  (403) 
61.979999999999997

>  <r_qp_accptHB>  (403) 
5

>  <r_qp_dip^2/V>  (403) 
0.011415

>  <r_qp_dipole>  (403) 
3.8439999999999999

>  <r_qp_donorHB>  (403) 
2

>  <r_qp_glob>  (403) 
0.88668440000000004

>  <r_qp_mol_MW>  (403) 
447.52999999999997

>  <r_qp_volume>  (403) 
1294.546

>  <r_sd_BIOSOLVEIT.INFINISEE\_FTREES\_SIMILARITY>  (403) 
0.91400000000000003

>  <r_sd_BIOSOLVEIT.LOGP>  (403) 
4.3376999999999999

>  <r_sd_BIOSOLVEIT.MOLECULAR\_WEIGHT>  (403) 
448.53800000000001

>  <r_sd_BIOSOLVEIT.TPSA>  (403) 
54.280000000000001

>  <i_epik_Tot_Q>  (403) 
1

>  <i_epik_Tot_abs_Q>  (403) 
1

>  <i_f3d_flags>  (403) 
0

>  <i_i_glide_confnum>  (403) 
5

>  <i_i_glide_lignum>  (403) 
360

>  <i_i_glide_posenum>  (403) 
4

>  <i_i_glide_rotatable_bonds>  (403) 
8

>  <i_lp_mmshare_version>  (403) 
65135

>  <i_m_ct_format>  (403) 
2

>  <i_m_source_file_index>  (403) 
1081

>  <i_qp_#NandO>  (403) 
5

>  <i_qp_#acid>  (403) 
0

>  <i_qp_#amide>  (403) 
0

>  <i_qp_#amidine>  (403) 
0

>  <i_qp_#amine>  (403) 
1

>  <i_qp_#in34>  (403) 
0

>  <i_qp_#in56>  (403) 
22

>  <i_qp_#metab>  (403) 
5

>  <i_qp_#nonHatm>  (403) 
33

>  <i_qp_#noncon>  (403) 
0

>  <i_qp_#ringatoms>  (403) 
22

>  <i_qp_#rotor>  (403) 
8

>  <i_qp_#rtvFG>  (403) 
0

>  <i_qp_#stars>  (403) 
0

>  <i_qp_CNS>  (403) 
1

>  <i_qp_HumanOralAbsorption>  (403) 
3

>  <i_qp_RuleOfFive>  (403) 
0

>  <i_qp_RuleOfThree>  (403) 
0

>  <i_sd_BIOSOLVEIT.INFINISEE\_REAGENT1\_NAME>  (403) 
21892664

>  <i_sd_BIOSOLVEIT.INFINISEE\_REAGENT2\_NAME>  (403) 
22360182

>  <i_sd_BIOSOLVEIT.INFINISEE\_REAGENT3\_NAME>  (403) 
21940090

>  <i_sd_BIOSOLVEIT.INFINISEE\_RESULT\_RANK>  (403) 
32025

>  <i_sd_version>  (403) 
0

>  <b_lp_Chiralities_Consistent>  (403) 
1

>  <b_sd_chiral_flag>  (403) 
0

>  <canonical_id>  (403) 
ATP-HTVS-4128F66E5F96

>  <compound_code>  (403) 
34562

>  <title>  (403) 
m_282030aaa____21892664____22360182____21940090

>  <variant>  (403) 
34562-4

>  <source_file>  (403) 
运行/运行/ATP-VSW/ATP-VSW-DOCK_HTVS_1-002_lib.maegz

>  <canonical_smiles>  (403) 
C[C@H](Nc1nc(NCc2cccc(CN(C)C)c2)c2ccccc2[nH+]1)c1cccc(F)c1F

>  <scaffold>  (403) 
c1ccc(CNc2nc(NCc3ccccc3)c3ccccc3[nH+]2)cc1

>  <molecular_formula>  (403) 
C26H28F2N5+

$$$$
ATP-HTVS-418CD17BC8B0
     RDKit          3D

 57 60  0  0  0  0  0  0  0  0999 V2000
  200.4205  183.9255  158.6448 S   0  0  0  0  0  0  0  0  0  0  0  0
  201.5135  182.6774  159.1906 C   0  0  0  0  0  0  0  0  0  0  0  0
  201.9701  181.5713  158.3904 C   0  0  0  0  0  0  0  0  0  0  0  0
  203.0097  180.7605  158.9111 C   0  0  0  0  0  0  0  0  0  0  0  0
  203.5533  181.0003  160.1952 C   0  0  0  0  0  0  0  0  0  0  0  0
  203.0525  182.0464  160.9939 C   0  0  0  0  0  0  0  0  0  0  0  0
  202.0328  182.8702  160.4926 C   0  0  0  0  0  0  0  0  0  0  0  0
  201.4587  181.2145  157.0099 C   0  0  0  0  0  0  0  0  0  0  0  0
  202.2514  181.0183  156.0898 O   0  0  0  0  0  0  0  0  0  0  0  0
  200.1229  181.0783  156.9130 N   0  0  0  0  0  0  0  0  0  0  0  0
  199.3308  180.7394  155.7775 C   0  0  0  0  0  0  0  0  0  0  0  0
  199.8389  180.0635  154.7220 N   0  0  0  0  0  0  0  0  0  0  0  0
  199.0570  179.7378  153.6734 C   0  0  0  0  0  0  0  0  0  0  0  0
  197.6810  180.0770  153.6364 C   0  0  0  0  0  0  0  0  0  0  0  0
  197.1336  180.7748  154.7278 C   0  0  0  0  0  0  0  0  0  0  0  0
  197.9619  181.1307  155.8201 C   0  0  0  0  0  0  0  0  0  0  0  0
  197.4636  181.8804  156.9056 N   0  0  0  0  0  0  0  0  0  0  0  0
  196.1025  182.3972  156.8988 C   0  0  1  0  0  0  0  0  0  0  0  0
  195.8168  183.3695  158.0306 C   0  0  0  0  0  0  0  0  0  0  0  0
  196.7656  184.3553  158.3774 C   0  0  0  0  0  0  0  0  0  0  0  0
  196.5255  185.2369  159.4497 C   0  0  0  0  0  0  0  0  0  0  0  0
  195.2888  185.1821  160.1303 C   0  0  0  0  0  0  0  0  0  0  0  0
  194.3114  184.2483  159.7327 C   0  0  0  0  0  0  0  0  0  0  0  0
  194.5755  183.3309  158.6983 C   0  0  0  0  0  0  0  0  0  0  0  0
  197.5763  186.2506  159.8743 C   0  0  1  0  0  0  0  0  0  0  0  0
  197.6243  187.4540  159.0502 N   0  0  0  0  0  0  0  0  0  0  0  0
  198.7403  188.2847  159.4863 C   0  0  2  0  0  0  0  0  0  0  0  0
  196.3922  188.2173  159.1906 C   0  0  2  0  0  0  0  0  0  0  0  0
  196.8795  179.7295  152.5276 C   0  0  0  0  0  0  0  0  0  0  0  0
  197.4498  179.0366  151.4416 C   0  0  0  0  0  0  0  0  0  0  0  0
  198.8130  178.6875  151.4679 C   0  0  0  0  0  0  0  0  0  0  0  0
  199.6060  179.0415  152.5761 C   0  0  0  0  0  0  0  0  0  0  0  0
  203.4044  179.9471  158.3172 H   0  0  0  0  0  0  0  0  0  0  0  0
  204.3507  180.3700  160.5674 H   0  0  0  0  0  0  0  0  0  0  0  0
  203.4578  182.2335  161.9790 H   0  0  0  0  0  0  0  0  0  0  0  0
  201.6877  183.6768  161.1239 H   0  0  0  0  0  0  0  0  0  0  0  0
  199.6092  181.3349  157.7390 H   0  0  0  0  0  0  0  0  0  0  0  0
  196.0858  181.0367  154.7086 H   0  0  0  0  0  0  0  0  0  0  0  0
  198.0882  182.2847  157.5876 H   0  0  0  0  0  0  0  0  0  0  0  0
  195.9482  182.9403  155.9674 H   0  0  0  0  0  0  0  0  0  0  0  0
  195.3916  181.5683  156.9316 H   0  0  0  0  0  0  0  0  0  0  0  0
  197.6806  184.4328  157.8062 H   0  0  0  0  0  0  0  0  0  0  0  0
  195.0920  185.8693  160.9371 H   0  0  0  0  0  0  0  0  0  0  0  0
  193.3491  184.2401  160.2287 H   0  0  0  0  0  0  0  0  0  0  0  0
  193.8167  182.6209  158.3942 H   0  0  0  0  0  0  0  0  0  0  0  0
  197.4153  186.5107  160.9206 H   0  0  0  0  0  0  0  0  0  0  0  0
  198.5506  185.7725  159.8281 H   0  0  0  0  0  0  0  0  0  0  0  0
  198.8095  189.1879  158.8790 H   0  0  0  0  0  0  0  0  0  0  0  0
  199.6867  187.7511  159.3853 H   0  0  0  0  0  0  0  0  0  0  0  0
  198.6336  188.5879  160.5297 H   0  0  0  0  0  0  0  0  0  0  0  0
  196.4403  189.1375  158.6092 H   0  0  0  0  0  0  0  0  0  0  0  0
  196.2077  188.4726  160.2348 H   0  0  0  0  0  0  0  0  0  0  0  0
  195.5452  187.6403  158.8213 H   0  0  0  0  0  0  0  0  0  0  0  0
  195.8342  180.0011  152.5037 H   0  0  0  0  0  0  0  0  0  0  0  0
  196.8432  178.7729  150.5861 H   0  0  0  0  0  0  0  0  0  0  0  0
  199.2551  178.1532  150.6388 H   0  0  0  0  0  0  0  0  0  0  0  0
  200.6535  178.7767  152.6004 H   0  0  0  0  0  0  0  0  0  0  0  0
  1  2  1  0
  2  3  1  0
  2  7  2  0
  3  4  2  0
  3  8  1  0
  4  5  1  0
  4 33  1  0
  5  6  2  0
  5 34  1  0
  6  7  1  0
  6 35  1  0
  7 36  1  0
  8  9  2  0
  8 10  1  0
 10 11  1  0
 10 37  1  0
 11 12  2  0
 11 16  1  0
 12 13  1  0
 13 14  1  0
 13 32  2  0
 14 15  1  0
 14 29  2  0
 15 16  2  0
 15 38  1  0
 16 17  1  0
 17 18  1  0
 17 39  1  0
 18 19  1  0
 18 40  1  6
 18 41  1  0
 19 20  2  0
 19 24  1  0
 20 21  1  0
 20 42  1  0
 21 22  2  0
 21 25  1  0
 22 23  1  0
 22 43  1  0
 23 24  2  0
 23 44  1  0
 24 45  1  0
 25 26  1  0
 25 46  1  1
 25 47  1  0
 26 27  1  0
 26 28  1  0
 27 48  1  6
 27 49  1  0
 27 50  1  0
 28 51  1  6
 28 52  1  0
 28 53  1  0
 29 30  1  0
 29 54  1  0
 30 31  2  0
 30 55  1  0
 31 32  1  0
 31 56  1  0
 32 57  1  0
M  CHG  1   1  -1
M  END
>  <s_epik_cmdline>  (404) 
J2VwaWtfcHl0aG9uJywgJy1waCcsICc3LjAwMDAwMCcsICctcGh0JywgJzIuMDAwMDAwJywgJy1tcycsICcxNicsICctdG4nLCAnOCcsICctbWEnLCAnMjAwJywgJy1pbWFlJywgJzxpbmZpbGUubWFlPicsICctb21hZScsICc8b3V0ZmlsZS5tYWU+Jw==

>  <s_epik_input>  (404) 
W2NIXTFbY0hdW2NIXVtjSF1jKGMxW1NIXSlDKD1PKVtOSF1jKG4yKWMoW2NIXWMoYzIzKVtjSF1bY0hdW2NIXVtjSF0zKVtOSF1bQ0gyXWM0W2NIXWMoW2NIXVtjSF1bY0hdNClbQ0gyXU4oW0NIM10pW0NIM10=

>  <s_i_glide_gridfile>  (404) 
ATP-Grid

>  <s_lp_Force_Field>  (404) 
OPLS_2005

>  <s_lp_Variant>  (404) 
rxn502b____EMOL49828490____EMOL44466703____EMOL2873214-2

>  <s_lp_label>  (404) 
2207_sdstereoexpander_1_neutralizer_1_epik_2_stereoizer_1

>  <s_m_source_file>  (404) 
ATP-VSW-LIGPREP-003-in.maegz

>  <s_sd_BIOSOLVEIT.INFINISEE\_QUERY\_NAME>  (404) 
Ref-Lig

>  <s_sd_BIOSOLVEIT.INFINISEE\_QUERY\_SMILES>  (404) 
S(c1nc2c(cc1C[NH2+]Cc3ccc(cc3)C[NH+](C)C)cccc2)Cc4ccccc4

>  <s_sd_BIOSOLVEIT.INFINISEE\_REACTION\_NAME>  (404) 
rxn502b

>  <s_sd_BIOSOLVEIT.INFINISEE\_REAGENT1\_NAME>  (404) 
EMOL49828490

>  <s_sd_BIOSOLVEIT.INFINISEE\_REAGENT1\_SMILES>  (404) 
ClC(=O)c1c(S)cccc1

>  <s_sd_BIOSOLVEIT.INFINISEE\_REAGENT2\_NAME>  (404) 
EMOL44466703

>  <s_sd_BIOSOLVEIT.INFINISEE\_REAGENT2\_SMILES>  (404) 
Brc1c(nc2c(c1)cccc2)N

>  <s_sd_BIOSOLVEIT.INFINISEE\_REAGENT3\_NAME>  (404) 
EMOL2873214

>  <s_sd_BIOSOLVEIT.INFINISEE\_REAGENT3\_SMILES>  (404) 
N(Cc1cc(ccc1)CN)(C)C

>  <s_sd_BIOSOLVEIT.INFINISEE\_SPACE>  (404) 
eXplore_7tr_2022-12

>  <s_vsw_compound_code>  (404) 
70595

>  <s_vsw_variant>  (404) 
70595-2

>  <r_epik_Charging_Adjusted_Penalty>  (404) 
1.56164279666295

>  <r_epik_Ionization_Penalty>  (404) 
1.5617000000000001

>  <r_epik_Ionization_Penalty_Charging>  (404) 
0.00050000000000000001

>  <r_epik_Ionization_Penalty_Neutral>  (404) 
1.5611999999999999

>  <r_epik_State_Penalty>  (404) 
1.5610999999999999

>  <r_i_docking_score>  (404) 
-2.0114508828197502

>  <r_i_glide_ecoul>  (404) 
0.85087645053863503

>  <r_i_glide_eff_state_penalty>  (404) 
1.5610999999999999

>  <r_i_glide_einternal>  (404) 
1.6204296350479099

>  <r_i_glide_emodel>  (404) 
-43.378597778204899

>  <r_i_glide_energy>  (404) 
-36.990252852439902

>  <r_i_glide_erotb>  (404) 
0.71715318169643705

>  <r_i_glide_esite>  (404) 
-0.068211292789969902

>  <r_i_glide_evdw>  (404) 
-37.841129302978501

>  <r_i_glide_gscore>  (404) 
-3.5725508828197499

>  <r_i_glide_hbond>  (404) 
0

>  <r_i_glide_ligand_efficiency>  (404) 
-0.062857840088117303

>  <r_i_glide_ligand_efficiency_ln>  (404) 
-0.45041868274357799

>  <r_i_glide_ligand_efficiency_sa>  (404) 
-0.19956120273010999

>  <r_i_glide_lipo>  (404) 
-2.05698468571721

>  <r_i_glide_metal>  (404) 
-0

>  <r_i_glide_rewards>  (404) 
-0.40008308844088403

>  <r_lp_Energy>  (404) 
36.688181

>  <r_qp_ACxDN^.5/SA>  (404) 
0.0117179

>  <r_qp_CIQPlogS>  (404) 
-6.0179999999999998

>  <r_qp_EA(eV)>  (404) 
0.73499999999999999

>  <r_qp_FISA>  (404) 
63.563000000000002

>  <r_qp_FOSA>  (404) 
155.59299999999999

>  <r_qp_IP(eV)>  (404) 
8.1989999999999998

>  <r_qp_Jm>  (404) 
0.029977762387621801

>  <r_qp_PISA>  (404) 
464.56400000000002

>  <r_qp_PSA>  (404) 
60.713000000000001

>  <r_qp_PercentHumanOralAbsorption>  (404) 
100

>  <r_qp_QPPCaco>  (404) 
616.63900000000001

>  <r_qp_QPPMDCK>  (404) 
540.30600000000004

>  <r_qp_QPlogBB>  (404) 
-0.042000000000000003

>  <r_qp_QPlogHERG>  (404) 
-7.2919999999999998

>  <r_qp_QPlogKhsa>  (404) 
0.80400000000000005

>  <r_qp_QPlogKp>  (404) 
-2.3490000000000002

>  <r_qp_QPlogPC16>  (404) 
15.423999999999999

>  <r_qp_QPlogPo/w>  (404) 
4.9950000000000001

>  <r_qp_QPlogPoct>  (404) 
22.850000000000001

>  <r_qp_QPlogPw>  (404) 
12.143000000000001

>  <r_qp_QPlogS>  (404) 
-4.8200000000000003

>  <r_qp_QPpolrz>  (404) 
48.177

>  <r_qp_SASA>  (404) 
724.13

>  <r_qp_SAamideO>  (404) 
0

>  <r_qp_SAfluorine>  (404) 
0

>  <r_qp_WPSA>  (404) 
40.408999999999999

>  <r_qp_accptHB>  (404) 
6

>  <r_qp_dip^2/V>  (404) 
0.034596300000000003

>  <r_qp_dipole>  (404) 
6.8970000000000002

>  <r_qp_donorHB>  (404) 
2

>  <r_qp_glob>  (404) 
0.82585410000000004

>  <r_qp_mol_MW>  (404) 
442.57799999999997

>  <r_qp_volume>  (404) 
1375.0920000000001

>  <r_sd_BIOSOLVEIT.INFINISEE\_FTREES\_SIMILARITY>  (404) 
0.93100000000000005

>  <r_sd_BIOSOLVEIT.LOGP>  (404) 
4.4126000000000003

>  <r_sd_BIOSOLVEIT.MOLECULAR\_WEIGHT>  (404) 
443.59100000000001

>  <r_sd_BIOSOLVEIT.TPSA>  (404) 
58.460000000000001

>  <i_epik_Tot_Q>  (404) 
-1

>  <i_epik_Tot_abs_Q>  (404) 
1

>  <i_f3d_flags>  (404) 
0

>  <i_i_glide_confnum>  (404) 
10

>  <i_i_glide_lignum>  (404) 
864

>  <i_i_glide_posenum>  (404) 
11

>  <i_i_glide_rotatable_bonds>  (404) 
8

>  <i_lp_mmshare_version>  (404) 
65135

>  <i_m_ct_format>  (404) 
2

>  <i_m_source_file_index>  (404) 
2207

>  <i_qp_#NandO>  (404) 
5

>  <i_qp_#acid>  (404) 
0

>  <i_qp_#amide>  (404) 
0

>  <i_qp_#amidine>  (404) 
0

>  <i_qp_#amine>  (404) 
1

>  <i_qp_#in34>  (404) 
0

>  <i_qp_#in56>  (404) 
22

>  <i_qp_#metab>  (404) 
6

>  <i_qp_#nonHatm>  (404) 
32

>  <i_qp_#noncon>  (404) 
0

>  <i_qp_#ringatoms>  (404) 
22

>  <i_qp_#rotor>  (404) 
8

>  <i_qp_#rtvFG>  (404) 
1

>  <i_qp_#stars>  (404) 
1

>  <i_qp_CNS>  (404) 
1

>  <i_qp_HumanOralAbsorption>  (404) 
3

>  <i_qp_RuleOfFive>  (404) 
0

>  <i_qp_RuleOfThree>  (404) 
0

>  <i_sd_BIOSOLVEIT.INFINISEE\_RESULT\_RANK>  (404) 
4259

>  <i_sd_version>  (404) 
0

>  <b_lp_Chiralities_Consistent>  (404) 
1

>  <b_sd_chiral_flag>  (404) 
0

>  <canonical_id>  (404) 
ATP-HTVS-418CD17BC8B0

>  <compound_code>  (404) 
70595

>  <title>  (404) 
rxn502b____EMOL49828490____EMOL44466703____EMOL2873214

>  <variant>  (404) 
70595-2

>  <source_file>  (404) 
运行/运行/ATP-VSW/ATP-VSW-DOCK_HTVS_1-003_lib/ATP-VSW-DOCK_HTVS_1-003_lib.mae

>  <canonical_smiles>  (404) 
CN(C)Cc1cccc(CNc2cc3ccccc3nc2NC(=O)c2ccccc2[S-])c1

>  <scaffold>  (404) 
O=C(Nc1nc2ccccc2cc1NCc1ccccc1)c1ccccc1

>  <molecular_formula>  (404) 
C26H25N4OS-

$$$$
ATP-HTVS-41A031E7C6D2
     RDKit          3D

 62 65  0  0  0  0  0  0  0  0999 V2000
  202.0861  185.1333  156.6161 F   0  0  0  0  0  0  0  0  0  0  0  0
  202.0624  184.7400  157.9117 C   0  0  0  0  0  0  0  0  0  0  0  0
  201.6403  185.6309  158.9227 C   0  0  0  0  0  0  0  0  0  0  0  0
  201.5859  185.1872  160.2626 C   0  0  0  0  0  0  0  0  0  0  0  0
  201.9518  183.8675  160.5870 C   0  0  0  0  0  0  0  0  0  0  0  0
  202.3702  182.9823  159.5758 C   0  0  0  0  0  0  0  0  0  0  0  0
  202.4371  183.4239  158.2407 C   0  0  0  0  0  0  0  0  0  0  0  0
  201.1905  187.0439  158.5609 C   0  0  1  0  0  0  0  0  0  0  0  0
  199.8587  187.4050  159.0445 N   0  0  0  0  0  0  0  0  0  0  0  0
  198.7314  186.6010  159.0018 C   0  0  0  0  0  0  0  0  0  0  0  0
  198.7557  185.4444  158.3281 N   0  0  0  0  0  0  0  0  0  0  0  0
  197.6960  184.6130  158.3660 C   0  0  0  0  0  0  0  0  0  0  0  0
  197.7781  183.3794  157.6910 N   0  0  0  0  0  0  0  0  0  0  0  0
  199.0467  182.9046  157.1661 C   0  0  1  0  0  0  0  0  0  0  0  0
  199.0070  181.5582  156.4584 C   0  0  0  0  0  0  0  0  0  0  0  0
  200.1824  180.7806  156.4147 C   0  0  0  0  0  0  0  0  0  0  0  0
  200.2000  179.5333  155.7533 C   0  0  0  0  0  0  0  0  0  0  0  0
  199.0262  179.0706  155.1234 C   0  0  0  0  0  0  0  0  0  0  0  0
  197.8439  179.8320  155.1791 C   0  0  0  0  0  0  0  0  0  0  0  0
  197.8319  181.0764  155.8408 C   0  0  0  0  0  0  0  0  0  0  0  0
  201.4742  178.6963  155.7462 C   0  0  1  0  0  0  0  0  0  0  0  0
  201.5146  177.6833  156.8334 N   0  0  1  0  0  0  0  0  0  0  0  0
  201.2315  178.2301  158.1790 C   0  0  2  0  0  0  0  0  0  0  0  0
  200.6965  176.4848  156.5436 C   0  0  2  0  0  0  0  0  0  0  0  0
  196.5434  184.9764  159.0803 C   0  0  0  0  0  0  0  0  0  0  0  0
  196.5651  186.2191  159.7552 C   0  0  0  0  0  0  0  0  0  0  0  0
  197.6630  187.0007  159.6993 N   0  0  0  0  0  0  0  0  0  0  0  0
  195.4540  186.6521  160.4977 C   0  0  0  0  0  0  0  0  0  0  0  0
  194.2973  185.8477  160.5371 C   0  0  0  0  0  0  0  0  0  0  0  0
  194.2598  184.6171  159.8467 C   0  0  0  0  0  0  0  0  0  0  0  0
  195.3840  184.1695  159.1337 C   0  0  0  0  0  0  0  0  0  0  0  0
  202.2333  188.0674  159.0395 C   0  0  2  0  0  0  0  0  0  0  0  0
  201.2481  185.8525  161.0437 H   0  0  0  0  0  0  0  0  0  0  0  0
  201.8885  183.5309  161.6123 H   0  0  0  0  0  0  0  0  0  0  0  0
  202.6383  181.9659  159.8241 H   0  0  0  0  0  0  0  0  0  0  0  0
  202.7386  182.7442  157.4580 H   0  0  0  0  0  0  0  0  0  0  0  0
  201.1326  187.1176  157.4748 H   0  0  0  0  0  0  0  0  0  0  0  0
  199.7767  188.2792  159.5430 H   0  0  0  0  0  0  0  0  0  0  0  0
  197.0157  182.7184  157.7385 H   0  0  0  0  0  0  0  0  0  0  0  0
  199.4549  183.6304  156.4621 H   0  0  0  0  0  0  0  0  0  0  0  0
  199.7388  182.8432  158.0046 H   0  0  0  0  0  0  0  0  0  0  0  0
  201.0768  181.1354  156.9027 H   0  0  0  0  0  0  0  0  0  0  0  0
  199.0122  178.1160  154.6208 H   0  0  0  0  0  0  0  0  0  0  0  0
  196.9392  179.4568  154.7256 H   0  0  0  0  0  0  0  0  0  0  0  0
  196.9153  181.6515  155.8663 H   0  0  0  0  0  0  0  0  0  0  0  0
  201.5905  178.2123  154.7730 H   0  0  0  0  0  0  0  0  0  0  0  0
  202.3442  179.3492  155.8589 H   0  0  0  0  0  0  0  0  0  0  0  0
  200.2026  178.5849  158.2524 H   0  0  0  0  0  0  0  0  0  0  0  0
  201.9118  179.0536  158.4025 H   0  0  0  0  0  0  0  0  0  0  0  0
  201.3631  177.4669  158.9453 H   0  0  0  0  0  0  0  0  0  0  0  0
  199.6345  176.7266  156.4941 H   0  0  0  0  0  0  0  0  0  0  0  0
  200.8240  175.7455  157.3309 H   0  0  0  0  0  0  0  0  0  0  0  0
  200.9886  176.0188  155.6033 H   0  0  0  0  0  0  0  0  0  0  0  0
  195.4617  187.6043  161.0137 H   0  0  0  0  0  0  0  0  0  0  0  0
  193.4197  186.1862  161.0770 H   0  0  0  0  0  0  0  0  0  0  0  0
  193.3581  184.0211  159.8550 H   0  0  0  0  0  0  0  0  0  0  0  0
  195.3225  183.2225  158.6115 H   0  0  0  0  0  0  0  0  0  0  0  0
  203.2148  187.8427  158.6181 H   0  0  0  0  0  0  0  0  0  0  0  0
  202.3347  188.0517  160.1265 H   0  0  0  0  0  0  0  0  0  0  0  0
  201.9741  189.0858  158.7427 H   0  0  0  0  0  0  0  0  0  0  0  0
  197.6614  187.8755  160.2240 H   0  0  0  0  0  0  0  0  0  0  0  0
  202.4869  177.3926  156.8783 H   0  0  0  0  0  0  0  0  0  0  0  0
  1  2  1  0
  2  3  1  0
  2  7  2  0
  3  4  2  0
  3  8  1  0
  4  5  1  0
  4 33  1  0
  5  6  2  0
  5 34  1  0
  6  7  1  0
  6 35  1  0
  7 36  1  0
  8  9  1  0
  8 32  1  0
  8 37  1  6
  9 10  1  0
  9 38  1  0
 10 11  1  0
 10 27  2  0
 11 12  2  0
 12 13  1  0
 12 25  1  0
 13 14  1  0
 13 39  1  0
 14 15  1  0
 14 40  1  6
 14 41  1  0
 15 16  2  0
 15 20  1  0
 16 17  1  0
 16 42  1  0
 17 18  2  0
 17 21  1  0
 18 19  1  0
 18 43  1  0
 19 20  2  0
 19 44  1  0
 20 45  1  0
 21 22  1  0
 21 46  1  6
 21 47  1  0
 22 23  1  0
 22 24  1  0
 22 62  1  1
 23 48  1  6
 23 49  1  0
 23 50  1  0
 24 51  1  6
 24 52  1  0
 24 53  1  0
 25 26  1  0
 25 31  2  0
 26 27  1  0
 26 28  2  0
 27 61  1  0
 28 29  1  0
 28 54  1  0
 29 30  2  0
 29 55  1  0
 30 31  1  0
 30 56  1  0
 31 57  1  0
 32 58  1  6
 32 59  1  0
 32 60  1  0
M  CHG  2  22   1  27   1
M  END
>  <s_epik_cmdline>  (405) 
J2VwaWtfcHl0aG9uJywgJy1waCcsICc3LjAwMDAwMCcsICctcGh0JywgJzIuMDAwMDAwJywgJy1tcycsICcxNicsICctdG4nLCAnOCcsICctbWEnLCAnMjAwJywgJy1pbWFlJywgJzxpbmZpbGUubWFlPicsICctb21hZScsICc8b3V0ZmlsZS5tYWU+Jw==

>  <s_epik_input>  (405) 
W2NIXTFbY0hdW2NIXVtjSF1jKGMxRilbQ0BIXShbQ0gzXSlbTkhdYyhuYyhjMjMpW2NIXVtjSF1bY0hdW2NIXTMpbmMyW05IXVtDSDJdYzRbY0hdYyhbY0hdW2NIXVtjSF00KVtDSDJdTihbQ0gzXSlbQ0gzXQ==

>  <s_i_glide_gridfile>  (405) 
ATP-Grid

>  <s_lp_Force_Field>  (405) 
OPLS_2005

>  <s_lp_Variant>  (405) 
m_282030aaa____21931854____22360182____21940090-2

>  <s_lp_label>  (405) 
854_sdstereoexpander_2_neutralizer_1_epik_1_stereoizer_1

>  <s_m_source_file>  (405) 
ATP-VSW-LIGPREP-003-in.maegz

>  <s_sd_BIOSOLVEIT.INFINISEE\_QUERY\_NAME>  (405) 
Ref-Lig

>  <s_sd_BIOSOLVEIT.INFINISEE\_QUERY\_SMILES>  (405) 
S(c1nc2c(cc1C[NH2+]Cc3ccc(cc3)C[NH+](C)C)cccc2)Cc4ccccc4

>  <s_sd_BIOSOLVEIT.INFINISEE\_REACTION\_NAME>  (405) 
m_282030aaa

>  <s_sd_BIOSOLVEIT.INFINISEE\_REAGENT1\_SMILES>  (405) 
[R1*]NC(c1c(F)cccc1)C

>  <s_sd_BIOSOLVEIT.INFINISEE\_REAGENT2\_SMILES>  (405) 
[R2*]c1nc([R1*])c2c(n1)cccc2

>  <s_sd_BIOSOLVEIT.INFINISEE\_REAGENT3\_SMILES>  (405) 
[R2*]NCc1cc(ccc1)CN(C)C

>  <s_sd_BIOSOLVEIT.INFINISEE\_SPACE>  (405) 
REALSpace_44bn_2023-08

>  <s_vsw_compound_code>  (405) 
27299

>  <s_vsw_variant>  (405) 
27299-2

>  <r_epik_Charging_Adjusted_Penalty>  (405) 
0.14583012265176701

>  <r_epik_Ionization_Penalty>  (405) 
0.0688

>  <r_epik_Ionization_Penalty_Charging>  (405) 
0.0688

>  <r_epik_Ionization_Penalty_Neutral>  (405) 
0

>  <r_epik_State_Penalty>  (405) 
0.076999999999999999

>  <r_i_docking_score>  (405) 
-4.4499546398079497

>  <r_i_glide_ecoul>  (405) 
-8.3012847900390607

>  <r_i_glide_eff_state_penalty>  (405) 
0.076999999999999999

>  <r_i_glide_einternal>  (405) 
1.83752453327179

>  <r_i_glide_emodel>  (405) 
-54.259650078775501

>  <r_i_glide_energy>  (405) 
-38.253978729247997

>  <r_i_glide_erotb>  (405) 
0.74763904703761896

>  <r_i_glide_esite>  (405) 
-0.0124039112156585

>  <r_i_glide_evdw>  (405) 
-29.952693939208999

>  <r_i_glide_gscore>  (405) 
-4.5269546398079497

>  <r_i_glide_hbond>  (405) 
0

>  <r_i_glide_ligand_efficiency>  (405) 
-0.13906108249399801

>  <r_i_glide_ligand_efficiency_ln>  (405) 
-0.99646614503515796

>  <r_i_glide_ligand_efficiency_sa>  (405) 
-0.44149141676758802

>  <r_i_glide_lipo>  (405) 
-1.7307492452562501

>  <r_i_glide_metal>  (405) 
-0

>  <r_i_glide_rewards>  (405) 
-0.78861311490735297

>  <r_lp_Energy>  (405) 
15.746731

>  <r_qp_ACxDN^.5/SA>  (405) 
0.0104628

>  <r_qp_CIQPlogS>  (405) 
-6.1379999999999999

>  <r_qp_EA(eV)>  (405) 
0.59999999999999998

>  <r_qp_FISA>  (405) 
39.421999999999997

>  <r_qp_FOSA>  (405) 
272.983

>  <r_qp_IP(eV)>  (405) 
8.0350000000000001

>  <r_qp_Jm>  (405) 
0.111719284640239

>  <r_qp_PISA>  (405) 
338.34800000000001

>  <r_qp_PSA>  (405) 
45.542000000000002

>  <r_qp_PercentHumanOralAbsorption>  (405) 
100

>  <r_qp_QPPCaco>  (405) 
1044.623

>  <r_qp_QPPMDCK>  (405) 
787.19600000000003

>  <r_qp_QPlogBB>  (405) 
0.185

>  <r_qp_QPlogHERG>  (405) 
-6.1559999999999997

>  <r_qp_QPlogKhsa>  (405) 
0.84199999999999997

>  <r_qp_QPlogKp>  (405) 
-2.3490000000000002

>  <r_qp_QPlogPC16>  (405) 
13.351000000000001

>  <r_qp_QPlogPo/w>  (405) 
4.9939999999999998

>  <r_qp_QPlogPoct>  (405) 
20.373000000000001

>  <r_qp_QPlogPw>  (405) 
10.013

>  <r_qp_QPlogS>  (405) 
-4.2359999999999998

>  <r_qp_QPpolrz>  (405) 
44.558

>  <r_qp_SASA>  (405) 
675.82799999999997

>  <r_qp_SAamideO>  (405) 
0

>  <r_qp_SAfluorine>  (405) 
25.074999999999999

>  <r_qp_WPSA>  (405) 
25.074999999999999

>  <r_qp_accptHB>  (405) 
5

>  <r_qp_dip^2/V>  (405) 
0.0068718

>  <r_qp_dipole>  (405) 
3.0059999999999998

>  <r_qp_donorHB>  (405) 
2

>  <r_qp_glob>  (405) 
0.85881730000000001

>  <r_qp_mol_MW>  (405) 
429.53899999999999

>  <r_qp_volume>  (405) 
1314.7940000000001

>  <r_sd_BIOSOLVEIT.INFINISEE\_FTREES\_SIMILARITY>  (405) 
0.92100000000000004

>  <r_sd_BIOSOLVEIT.LOGP>  (405) 
4.1985999999999999

>  <r_sd_BIOSOLVEIT.MOLECULAR\_WEIGHT>  (405) 
430.548

>  <r_sd_BIOSOLVEIT.TPSA>  (405) 
54.280000000000001

>  <i_epik_Tot_Q>  (405) 
2

>  <i_epik_Tot_abs_Q>  (405) 
2

>  <i_f3d_flags>  (405) 
0

>  <i_i_glide_confnum>  (405) 
7

>  <i_i_glide_lignum>  (405) 
332

>  <i_i_glide_posenum>  (405) 
4

>  <i_i_glide_rotatable_bonds>  (405) 
8

>  <i_lp_mmshare_version>  (405) 
65135

>  <i_m_ct_format>  (405) 
2

>  <i_m_source_file_index>  (405) 
854

>  <i_qp_#NandO>  (405) 
5

>  <i_qp_#acid>  (405) 
0

>  <i_qp_#amide>  (405) 
0

>  <i_qp_#amidine>  (405) 
0

>  <i_qp_#amine>  (405) 
1

>  <i_qp_#in34>  (405) 
0

>  <i_qp_#in56>  (405) 
22

>  <i_qp_#metab>  (405) 
5

>  <i_qp_#nonHatm>  (405) 
32

>  <i_qp_#noncon>  (405) 
0

>  <i_qp_#ringatoms>  (405) 
22

>  <i_qp_#rotor>  (405) 
8

>  <i_qp_#rtvFG>  (405) 
0

>  <i_qp_#stars>  (405) 
0

>  <i_qp_CNS>  (405) 
1

>  <i_qp_HumanOralAbsorption>  (405) 
3

>  <i_qp_RuleOfFive>  (405) 
0

>  <i_qp_RuleOfThree>  (405) 
0

>  <i_sd_BIOSOLVEIT.INFINISEE\_REAGENT1\_NAME>  (405) 
21931854

>  <i_sd_BIOSOLVEIT.INFINISEE\_REAGENT2\_NAME>  (405) 
22360182

>  <i_sd_BIOSOLVEIT.INFINISEE\_REAGENT3\_NAME>  (405) 
21940090

>  <i_sd_BIOSOLVEIT.INFINISEE\_RESULT\_RANK>  (405) 
15279

>  <i_sd_version>  (405) 
0

>  <b_lp_Chiralities_Consistent>  (405) 
1

>  <b_sd_chiral_flag>  (405) 
0

>  <canonical_id>  (405) 
ATP-HTVS-41A031E7C6D2

>  <compound_code>  (405) 
27299

>  <title>  (405) 
m_282030aaa____21931854____22360182____21940090

>  <variant>  (405) 
27299-2

>  <source_file>  (405) 
运行/运行/ATP-VSW/ATP-VSW-DOCK_HTVS_1-003_lib/ATP-VSW-DOCK_HTVS_1-003_lib.mae

>  <canonical_smiles>  (405) 
C[C@H](Nc1nc(NCc2cccc(C[NH+](C)C)c2)c2ccccc2[nH+]1)c1ccccc1F

>  <scaffold>  (405) 
c1ccc(CNc2nc(NCc3ccccc3)c3ccccc3[nH+]2)cc1

>  <molecular_formula>  (405) 
C26H30FN5+2

$$$$
ATP-HTVS-41C13ED6AFFD
     RDKit          3D

 59 61  0  0  0  0  0  0  0  0999 V2000
  199.2373  190.5213  157.3751 O   0  0  0  0  0  0  0  0  0  0  0  0
  198.4459  189.6414  158.0809 C   0  0  0  0  0  0  0  0  0  0  0  0
  198.2988  189.6779  159.4969 C   0  0  0  0  0  0  0  0  0  0  0  0
  197.4626  188.7607  160.1522 C   0  0  0  0  0  0  0  0  0  0  0  0
  196.7582  187.7890  159.4281 C   0  0  0  0  0  0  0  0  0  0  0  0
  196.8969  187.7384  158.0206 C   0  0  0  0  0  0  0  0  0  0  0  0
  197.7450  188.6555  157.3588 C   0  0  0  0  0  0  0  0  0  0  0  0
  195.8605  186.8323  160.1854 C   0  0  1  0  0  0  0  0  0  0  0  0
  196.0477  185.4665  159.7497 N   0  0  0  0  0  0  0  0  0  0  0  0
  197.1536  184.7904  160.1343 N   0  0  0  0  0  0  0  0  0  0  0  0
  197.0487  183.5850  159.6737 N   0  0  0  0  0  0  0  0  0  0  0  0
  195.8923  183.4949  158.9152 C   0  0  0  0  0  0  0  0  0  0  0  0
  195.2426  184.6985  158.9474 C   0  0  0  0  0  0  0  0  0  0  0  0
  195.4789  182.2358  158.2270 C   0  0  1  0  0  0  0  0  0  0  0  0
  196.6619  181.4394  157.8697 N   0  0  1  0  0  0  0  0  0  0  0  0
  197.3913  181.9166  156.6782 C   0  0  1  0  0  0  0  0  0  0  0  0
  198.4240  180.9052  156.2285 C   0  0  0  0  0  0  0  0  0  0  0  0
  199.7946  181.1187  156.4773 C   0  0  0  0  0  0  0  0  0  0  0  0
  200.7425  180.1606  156.0697 C   0  0  0  0  0  0  0  0  0  0  0  0
  200.3248  178.9800  155.4220 C   0  0  0  0  0  0  0  0  0  0  0  0
  198.9510  178.7734  155.1739 C   0  0  0  0  0  0  0  0  0  0  0  0
  198.0013  179.7313  155.5737 C   0  0  0  0  0  0  0  0  0  0  0  0
  201.3349  177.9054  155.0423 C   0  0  1  0  0  0  0  0  0  0  0  0
  201.7499  177.0484  156.1842 N   0  0  1  0  0  0  0  0  0  0  0  0
  200.6836  176.7551  157.1719 C   0  0  2  0  0  0  0  0  0  0  0  0
  202.4306  175.8145  155.7312 C   0  0  2  0  0  0  0  0  0  0  0  0
  194.5172  181.4412  159.0924 C   0  0  2  0  0  0  0  0  0  0  0  0
  199.9021  191.5329  158.0938 C   0  0  2  0  0  0  0  0  0  0  0  0
  197.2822  181.4189  158.6668 H   0  0  0  0  0  0  0  0  0  0  0  0
  198.7946  190.3621  160.1767 H   0  0  0  0  0  0  0  0  0  0  0  0
  197.3960  188.8233  161.2290 H   0  0  0  0  0  0  0  0  0  0  0  0
  196.3627  186.9985  157.4427 H   0  0  0  0  0  0  0  0  0  0  0  0
  197.8622  188.6145  156.2857 H   0  0  0  0  0  0  0  0  0  0  0  0
  196.0805  186.8949  161.2533 H   0  0  0  0  0  0  0  0  0  0  0  0
  194.8221  187.1169  160.0412 H   0  0  0  0  0  0  0  0  0  0  0  0
  194.3111  185.0459  158.5164 H   0  0  0  0  0  0  0  0  0  0  0  0
  194.9139  182.4945  157.3388 H   0  0  0  0  0  0  0  0  0  0  0  0
  196.7172  182.0913  155.8372 H   0  0  0  0  0  0  0  0  0  0  0  0
  197.8612  182.8802  156.9082 H   0  0  0  0  0  0  0  0  0  0  0  0
  200.1236  182.0029  156.9993 H   0  0  0  0  0  0  0  0  0  0  0  0
  201.7894  180.3188  156.2887 H   0  0  0  0  0  0  0  0  0  0  0  0
  198.6190  177.8482  154.7290 H   0  0  0  0  0  0  0  0  0  0  0  0
  196.9472  179.5330  155.4193 H   0  0  0  0  0  0  0  0  0  0  0  0
  200.8846  177.2957  154.2572 H   0  0  0  0  0  0  0  0  0  0  0  0
  202.2252  178.3670  154.6047 H   0  0  0  0  0  0  0  0  0  0  0  0
  199.8426  176.2436  156.6922 H   0  0  0  0  0  0  0  0  0  0  0  0
  200.2983  177.6418  157.6704 H   0  0  0  0  0  0  0  0  0  0  0  0
  201.0880  176.1197  157.9653 H   0  0  0  0  0  0  0  0  0  0  0  0
  201.7556  175.1668  155.1689 H   0  0  0  0  0  0  0  0  0  0  0  0
  202.8074  175.2432  156.5795 H   0  0  0  0  0  0  0  0  0  0  0  0
  203.2837  176.0545  155.0927 H   0  0  0  0  0  0  0  0  0  0  0  0
  193.6422  182.0562  159.3090 H   0  0  0  0  0  0  0  0  0  0  0  0
  194.9836  181.1135  160.0240 H   0  0  0  0  0  0  0  0  0  0  0  0
  194.1224  180.5806  158.5627 H   0  0  0  0  0  0  0  0  0  0  0  0
  200.4990  192.2125  157.4472 H   0  0  0  0  0  0  0  0  0  0  0  0
  200.5941  191.1014  158.8085 H   0  0  0  0  0  0  0  0  0  0  0  0
  199.1882  192.1568  158.6205 H   0  0  0  0  0  0  0  0  0  0  0  0
  202.4612  177.5598  156.6906 H   0  0  0  0  0  0  0  0  0  0  0  0
  196.3459  180.4650  157.7161 H   0  0  0  0  0  0  0  0  0  0  0  0
  1  2  1  0
  1 28  1  0
  2  3  1  0
  2  7  2  0
  3  4  2  0
  3 30  1  0
  4  5  1  0
  4 31  1  0
  5  6  2  0
  5  8  1  0
  6  7  1  0
  6 32  1  0
  7 33  1  0
  8  9  1  0
  8 34  1  1
  8 35  1  0
  9 10  1  0
  9 13  1  0
 10 11  2  0
 11 12  1  0
 12 13  2  0
 12 14  1  0
 13 36  1  0
 14 15  1  0
 14 27  1  0
 14 37  1  6
 15 16  1  0
 15 29  1  1
 15 59  1  0
 16 17  1  0
 16 38  1  6
 16 39  1  0
 17 18  1  0
 17 22  2  0
 18 19  2  0
 18 40  1  0
 19 20  1  0
 19 41  1  0
 20 21  2  0
 20 23  1  0
 21 22  1  0
 21 42  1  0
 22 43  1  0
 23 24  1  0
 23 44  1  6
 23 45  1  0
 24 25  1  0
 24 26  1  0
 24 58  1  1
 25 46  1  6
 25 47  1  0
 25 48  1  0
 26 49  1  6
 26 50  1  0
 26 51  1  0
 27 52  1  1
 27 53  1  0
 27 54  1  0
 28 55  1  6
 28 56  1  0
 28 57  1  0
M  CHG  2  15   1  24   1
M  END
>  <s_epik_cmdline>  (406) 
J2VwaWtfcHl0aG9uJywgJy1waCcsICc3LjAwMDAwMCcsICctcGh0JywgJzIuMDAwMDAwJywgJy1tcycsICcxNicsICctdG4nLCAnOCcsICctbWEnLCAnMjAwJywgJy1pbWFlJywgJzxpbmZpbGUubWFlPicsICctb21hZScsICc8b3V0ZmlsZS5tYWU+Jw==

>  <s_epik_input>  (406) 
W0NIM11PYzFbY0hdW2NIXWMoW2NIXVtjSF0xKVtDSDJdbjJubmMoW2NIXTIpW0NASF0oW0NIM10pW05IXVtDSDJdYzNbY0hdW2NIXWMoW2NIXVtjSF0zKVtDSDJdTihbQ0gzXSlbQ0gzXQ==

>  <s_i_glide_gridfile>  (406) 
ATP-Grid

>  <s_lp_Force_Field>  (406) 
OPLS_2005

>  <s_lp_Variant>  (406) 
rxn207____EMOL44467252____EMOL50155899-2

>  <s_lp_label>  (406) 
2612_sdstereoexpander_2_neutralizer_1_epik_1_stereoizer_1

>  <s_m_source_file>  (406) 
ATP-VSW-LIGPREP-002-in.maegz

>  <s_sd_BIOSOLVEIT.INFINISEE\_QUERY\_NAME>  (406) 
Ref-Lig

>  <s_sd_BIOSOLVEIT.INFINISEE\_QUERY\_SMILES>  (406) 
S(c1nc2c(cc1C[NH2+]Cc3ccc(cc3)C[NH+](C)C)cccc2)Cc4ccccc4

>  <s_sd_BIOSOLVEIT.INFINISEE\_REACTION\_NAME>  (406) 
rxn207

>  <s_sd_BIOSOLVEIT.INFINISEE\_REAGENT1\_NAME>  (406) 
EMOL44467252

>  <s_sd_BIOSOLVEIT.INFINISEE\_REAGENT1\_SMILES>  (406) 
O=C(C=1N=NN(C1)Cc2ccc(OC)cc2)C

>  <s_sd_BIOSOLVEIT.INFINISEE\_REAGENT2\_NAME>  (406) 
EMOL50155899

>  <s_sd_BIOSOLVEIT.INFINISEE\_REAGENT2\_SMILES>  (406) 
N(Cc1ccc(cc1)CN)(C)C

>  <s_sd_BIOSOLVEIT.INFINISEE\_SPACE>  (406) 
eXplore_7tr_2022-12

>  <s_vsw_compound_code>  (406) 
83554

>  <s_vsw_variant>  (406) 
83554-2

>  <r_epik_Charging_Adjusted_Penalty>  (406) 
0.57844711612965305

>  <r_epik_Ionization_Penalty>  (406) 
0.28939999999999999

>  <r_epik_Ionization_Penalty_Charging>  (406) 
0.28939999999999999

>  <r_epik_Ionization_Penalty_Neutral>  (406) 
0

>  <r_epik_State_Penalty>  (406) 
0.28899999999999998

>  <r_i_docking_score>  (406) 
-5.7348506776624202

>  <r_i_glide_ecoul>  (406) 
-16.295394897460898

>  <r_i_glide_eff_state_penalty>  (406) 
0.28899999999999998

>  <r_i_glide_einternal>  (406) 
7.6610054969787598

>  <r_i_glide_emodel>  (406) 
-71.240436257425799

>  <r_i_glide_energy>  (406) 
-47.129726409912102

>  <r_i_glide_erotb>  (406) 
0.933563424691779

>  <r_i_glide_esite>  (406) 
-0.10675485234121

>  <r_i_glide_evdw>  (406) 
-30.8343315124512

>  <r_i_glide_gscore>  (406) 
-6.0238506776624199

>  <r_i_glide_hbond>  (406) 
-0.19186365995674101

>  <r_i_glide_ligand_efficiency>  (406) 
-0.204816095630801

>  <r_i_glide_ligand_efficiency_ln>  (406) 
-1.32377191893706

>  <r_i_glide_ligand_efficiency_sa>  (406) 
-0.62194229656430799

>  <r_i_glide_lipo>  (406) 
-1.08548602147937

>  <r_i_glide_metal>  (406) 
-0

>  <r_i_glide_rewards>  (406) 
-1.58728375833518

>  <r_lp_Energy>  (406) 
13.678241999999999

>  <r_lp_tautomer_probability>  (406) 
1

>  <r_qp_ACxDN^.5/SA>  (406) 
0.0102851

>  <r_qp_CIQPlogS>  (406) 
-3.1549999999999998

>  <r_qp_EA(eV)>  (406) 
0.28599999999999998

>  <r_qp_FISA>  (406) 
66.528000000000006

>  <r_qp_FOSA>  (406) 
378.54300000000001

>  <r_qp_IP(eV)>  (406) 
9.0250000000000004

>  <r_qp_Jm>  (406) 
0.029832449542159901

>  <r_qp_PISA>  (406) 
211.21700000000001

>  <r_qp_PSA>  (406) 
59.811999999999998

>  <r_qp_PercentHumanOralAbsorption>  (406) 
85.174000000000007

>  <r_qp_QPPCaco>  (406) 
144.15000000000001

>  <r_qp_QPPMDCK>  (406) 
74.625

>  <r_qp_QPlogBB>  (406) 
0.23899999999999999

>  <r_qp_QPlogHERG>  (406) 
-6.0060000000000002

>  <r_qp_QPlogKhsa>  (406) 
0.45100000000000001

>  <r_qp_QPlogKp>  (406) 
-5.2629999999999999

>  <r_qp_QPlogPC16>  (406) 
12.42

>  <r_qp_QPlogPo/w>  (406) 
3.3460000000000001

>  <r_qp_QPlogPoct>  (406) 
19.082000000000001

>  <r_qp_QPlogPw>  (406) 
9.3160000000000007

>  <r_qp_QPlogS>  (406) 
-1.8420000000000001

>  <r_qp_QPpolrz>  (406) 
41.911000000000001

>  <r_qp_SASA>  (406) 
656.28800000000001

>  <r_qp_SAamideO>  (406) 
0

>  <r_qp_SAfluorine>  (406) 
0

>  <r_qp_WPSA>  (406) 
0

>  <r_qp_accptHB>  (406) 
6.75

>  <r_qp_dip^2/V>  (406) 
0.0302493

>  <r_qp_dipole>  (406) 
6.2590000000000003

>  <r_qp_donorHB>  (406) 
1

>  <r_qp_glob>  (406) 
0.87549540000000003

>  <r_qp_mol_MW>  (406) 
379.50400000000002

>  <r_qp_volume>  (406) 
1295.0160000000001

>  <r_sd_BIOSOLVEIT.INFINISEE\_FTREES\_SIMILARITY>  (406) 
0.91100000000000003

>  <r_sd_BIOSOLVEIT.LOGP>  (406) 
0.80410000000000004

>  <r_sd_BIOSOLVEIT.MOLECULAR\_WEIGHT>  (406) 
381.52100000000002

>  <r_sd_BIOSOLVEIT.TPSA>  (406) 
60.990000000000002

>  <i_epik_Tot_Q>  (406) 
2

>  <i_epik_Tot_abs_Q>  (406) 
2

>  <i_f3d_flags>  (406) 
0

>  <i_i_glide_confnum>  (406) 
3

>  <i_i_glide_lignum>  (406) 
1193

>  <i_i_glide_posenum>  (406) 
14

>  <i_i_glide_rotatable_bonds>  (406) 
9

>  <i_lp_mmshare_version>  (406) 
65135

>  <i_m_ct_format>  (406) 
2

>  <i_m_source_file_index>  (406) 
2612

>  <i_qp_#NandO>  (406) 
6

>  <i_qp_#acid>  (406) 
0

>  <i_qp_#amide>  (406) 
0

>  <i_qp_#amidine>  (406) 
0

>  <i_qp_#amine>  (406) 
2

>  <i_qp_#in34>  (406) 
0

>  <i_qp_#in56>  (406) 
17

>  <i_qp_#metab>  (406) 
7

>  <i_qp_#nonHatm>  (406) 
28

>  <i_qp_#noncon>  (406) 
0

>  <i_qp_#ringatoms>  (406) 
17

>  <i_qp_#rotor>  (406) 
9

>  <i_qp_#rtvFG>  (406) 
0

>  <i_qp_#stars>  (406) 
0

>  <i_qp_CNS>  (406) 
1

>  <i_qp_HumanOralAbsorption>  (406) 
3

>  <i_qp_RuleOfFive>  (406) 
0

>  <i_qp_RuleOfThree>  (406) 
1

>  <i_sd_BIOSOLVEIT.INFINISEE\_RESULT\_RANK>  (406) 
42519

>  <i_sd_version>  (406) 
0

>  <b_lp_Chiralities_Consistent>  (406) 
1

>  <b_sd_chiral_flag>  (406) 
0

>  <canonical_id>  (406) 
ATP-HTVS-41C13ED6AFFD

>  <compound_code>  (406) 
83554

>  <title>  (406) 
rxn207____EMOL44467252____EMOL50155899

>  <variant>  (406) 
83554-2

>  <source_file>  (406) 
运行/运行/ATP-VSW/ATP-VSW-DOCK_HTVS_1-002_lib.maegz

>  <canonical_smiles>  (406) 
COc1ccc(Cn2cc([C@H](C)[NH2+]Cc3ccc(C[NH+](C)C)cc3)nn2)cc1

>  <scaffold>  (406) 
c1ccc(C[NH2+]Cc2cn(Cc3ccccc3)nn2)cc1

>  <molecular_formula>  (406) 
C22H31N5O+2

$$$$
ATP-HTVS-41DBD56D77D4
     RDKit          3D

 45 48  0  0  0  0  0  0  0  0999 V2000
  194.5469  186.5588  160.9931 I   0  0  0  0  0  0  0  0  0  0  0  0
  194.9703  184.8903  159.8013 C   0  0  0  0  0  0  0  0  0  0  0  0
  196.3040  184.5859  159.4608 C   0  0  0  0  0  0  0  0  0  0  0  0
  196.6126  183.4454  158.6864 C   0  0  0  0  0  0  0  0  0  0  0  0
  195.5528  182.5874  158.2695 C   0  0  0  0  0  0  0  0  0  0  0  0
  194.2135  182.9256  158.5784 C   0  0  0  0  0  0  0  0  0  0  0  0
  193.9287  184.0656  159.3421 C   0  0  0  0  0  0  0  0  0  0  0  0
  198.0614  183.1703  158.2603 C   0  0  1  0  0  0  0  0  0  0  0  0
  198.4798  183.7891  156.9642 N   0  0  0  0  0  0  0  0  0  0  0  0
  199.7800  184.0480  156.6691 C   0  0  0  0  0  0  0  0  0  0  0  0
  200.1647  184.5050  155.5883 O   0  0  0  0  0  0  0  0  0  0  0  0
  200.7858  183.7233  157.7366 C   0  0  0  0  0  0  0  0  0  0  0  0
  200.3435  183.4822  159.0575 C   0  0  0  0  0  0  0  0  0  0  0  0
  198.9840  183.5169  159.3428 N   0  0  0  0  0  0  0  0  0  0  0  0
  201.2789  183.2179  160.0798 C   0  0  0  0  0  0  0  0  0  0  0  0
  202.6587  183.1789  159.7916 C   0  0  0  0  0  0  0  0  0  0  0  0
  203.1053  183.4218  158.4780 C   0  0  0  0  0  0  0  0  0  0  0  0
  202.1757  183.6979  157.4552 C   0  0  0  0  0  0  0  0  0  0  0  0
  197.4818  183.9692  155.8902 C   0  0  1  0  0  0  0  0  0  0  0  0
  197.3449  182.7556  154.9659 C   0  0  0  0  0  0  0  0  0  0  0  0
  197.1739  181.4514  155.4939 C   0  0  0  0  0  0  0  0  0  0  0  0
  196.9131  180.3633  154.6390 C   0  0  0  0  0  0  0  0  0  0  0  0
  196.8996  180.5487  153.2433 C   0  0  0  0  0  0  0  0  0  0  0  0
  197.1383  181.8301  152.7020 C   0  0  0  0  0  0  0  0  0  0  0  0
  197.3394  182.9314  153.5612 C   0  0  0  0  0  0  0  0  0  0  0  0
  196.6673  179.3511  152.3451 C   0  0  2  0  0  0  0  0  0  0  0  0
  197.0905  185.2431  159.8019 H   0  0  0  0  0  0  0  0  0  0  0  0
  195.6941  181.6894  157.7072 H   0  0  0  0  0  0  0  0  0  0  0  0
  193.4220  182.2925  158.2051 H   0  0  0  0  0  0  0  0  0  0  0  0
  192.9056  184.3006  159.5837 H   0  0  0  0  0  0  0  0  0  0  0  0
  198.1668  182.0958  158.1384 H   0  0  0  0  0  0  0  0  0  0  0  0
  198.6955  183.1984  160.2563 H   0  0  0  0  0  0  0  0  0  0  0  0
  200.9492  183.0421  161.0943 H   0  0  0  0  0  0  0  0  0  0  0  0
  203.3698  182.9701  160.5763 H   0  0  0  0  0  0  0  0  0  0  0  0
  204.1652  183.4010  158.2556 H   0  0  0  0  0  0  0  0  0  0  0  0
  202.5337  183.8961  156.4525 H   0  0  0  0  0  0  0  0  0  0  0  0
  196.4997  184.1988  156.2854 H   0  0  0  0  0  0  0  0  0  0  0  0
  197.7068  184.8554  155.3021 H   0  0  0  0  0  0  0  0  0  0  0  0
  197.2213  181.2228  156.5294 H   0  0  0  0  0  0  0  0  0  0  0  0
  196.7237  179.3962  155.0842 H   0  0  0  0  0  0  0  0  0  0  0  0
  197.1733  181.9651  151.6311 H   0  0  0  0  0  0  0  0  0  0  0  0
  197.4971  183.9115  153.1415 H   0  0  0  0  0  0  0  0  0  0  0  0
  196.2465  179.6563  151.3901 H   0  0  0  0  0  0  0  0  0  0  0  0
  195.9768  178.6469  152.8090 H   0  0  0  0  0  0  0  0  0  0  0  0
  197.6118  178.8349  152.1737 H   0  0  0  0  0  0  0  0  0  0  0  0
  1  2  1  0
  2  3  2  0
  2  7  1  0
  3  4  1  0
  3 27  1  0
  4  5  2  0
  4  8  1  0
  5  6  1  0
  5 28  1  0
  6  7  2  0
  6 29  1  0
  7 30  1  0
  8  9  1  0
  8 14  1  0
  8 31  1  6
  9 10  1  0
  9 19  1  0
 10 11  2  0
 10 12  1  0
 12 13  1  0
 12 18  2  0
 13 14  1  0
 13 15  2  0
 14 32  1  0
 15 16  1  0
 15 33  1  0
 16 17  2  0
 16 34  1  0
 17 18  1  0
 17 35  1  0
 18 36  1  0
 19 20  1  0
 19 37  1  1
 19 38  1  0
 20 21  1  0
 20 25  2  0
 21 22  2  0
 21 39  1  0
 22 23  1  0
 22 40  1  0
 23 24  2  0
 23 26  1  0
 24 25  1  0
 24 41  1  0
 25 42  1  0
 26 43  1  6
 26 44  1  0
 26 45  1  0
M  END
>  <s_epik_Chemistry_Notes>  (407) 
This compound contains an acetal/aminal-like group ( X-CH(R)-Y where X, Y are N, S, or O) that may be acid/base labile, releasing an aldehyde.

>  <s_epik_cmdline>  (407) 
J2VwaWtfcHl0aG9uJywgJy1waCcsICc3LjAwMDAwMCcsICctcGh0JywgJzIuMDAwMDAwJywgJy1tcycsICcxNicsICctdG4nLCAnOCcsICctbWEnLCAnMjAwJywgJy1pbWFlJywgJzxpbmZpbGUubWFlPicsICctb21hZScsICc8b3V0ZmlsZS5tYWU+Jw==

>  <s_epik_input>  (407) 
W2NIXTFbY0hdW2NIXVtjSF1jKGMxMilbTkhdW0NAQEhdKGMoW2NIXWMzSSlbY0hdW2NIXVtjSF0zKU4oQzI9TylbQ0gyXWM0W2NIXVtjSF1jKFtDSDNdKVtjSF1bY0hdNA==

>  <s_i_glide_gridfile>  (407) 
ATP-Grid

>  <s_lp_Force_Field>  (407) 
OPLS_2005

>  <s_lp_Variant>  (407) 
m_66bab____89515____9985196-1

>  <s_lp_label>  (407) 
1763_sdstereoexpander_1_neutralizer_1_epik_1_stereoizer_1

>  <s_m_source_file>  (407) 
ATP-VSW-LIGPREP-002-in.maegz

>  <s_sd_BIOSOLVEIT.INFINISEE\_QUERY\_NAME>  (407) 
Ref-Lig

>  <s_sd_BIOSOLVEIT.INFINISEE\_QUERY\_SMILES>  (407) 
S(c1nc2c(cc1C[NH2+]Cc3ccc(cc3)C[NH+](C)C)cccc2)Cc4ccccc4

>  <s_sd_BIOSOLVEIT.INFINISEE\_REACTION\_NAME>  (407) 
m_66bab

>  <s_sd_BIOSOLVEIT.INFINISEE\_REAGENT1\_SMILES>  (407) 
[R1*]N(C(=O)c1c(N[R2*])cccc1)Cc2ccc(cc2)C

>  <s_sd_BIOSOLVEIT.INFINISEE\_REAGENT2\_SMILES>  (407) 
[R1*]C([R2*])c1cc(I)ccc1

>  <s_sd_BIOSOLVEIT.INFINISEE\_SPACE>  (407) 
REALSpace_44bn_2023-08

>  <s_vsw_compound_code>  (407) 
56386

>  <s_vsw_variant>  (407) 
56386-1

>  <r_epik_Charging_Adjusted_Penalty>  (407) 
0

>  <r_epik_Ionization_Penalty>  (407) 
0

>  <r_epik_Ionization_Penalty_Charging>  (407) 
0

>  <r_epik_Ionization_Penalty_Neutral>  (407) 
0

>  <r_epik_State_Penalty>  (407) 
-0

>  <r_i_docking_score>  (407) 
-3.3062698461268698

>  <r_i_glide_ecoul>  (407) 
-1.26779901981354

>  <r_i_glide_eff_state_penalty>  (407) 
-0

>  <r_i_glide_einternal>  (407) 
1.6840839385986299

>  <r_i_glide_emodel>  (407) 
-40.577844682731602

>  <r_i_glide_energy>  (407) 
-34.314715981483502

>  <r_i_glide_erotb>  (407) 
0.291872772427484

>  <r_i_glide_esite>  (407) 
-0.0034377390885504799

>  <r_i_glide_evdw>  (407) 
-33.046916961669901

>  <r_i_glide_gscore>  (407) 
-3.3062698461268698

>  <r_i_glide_hbond>  (407) 
0

>  <r_i_glide_ligand_efficiency>  (407) 
-0.12716422485103401

>  <r_i_glide_ligand_efficiency_ln>  (407) 
-0.77646662460666704

>  <r_i_glide_ligand_efficiency_sa>  (407) 
-0.37672351575412399

>  <r_i_glide_lipo>  (407) 
-1.44062233750119

>  <r_i_glide_metal>  (407) 
-0

>  <r_i_glide_rewards>  (407) 
-0.31156684090908998

>  <r_lp_Energy>  (407) 
26.754504000000001

>  <r_lp_tautomer_probability>  (407) 
1

>  <r_qp_ACxDN^.5/SA>  (407) 
0.0066182000000000003

>  <r_qp_CIQPlogS>  (407) 
-8.1289999999999996

>  <r_qp_EA(eV)>  (407) 
0.99199999999999999

>  <r_qp_FISA>  (407) 
43.261000000000003

>  <r_qp_FOSA>  (407) 
117.985

>  <r_qp_IP(eV)>  (407) 
8.6140000000000008

>  <r_qp_Jm>  (407) 
0.13250301262776301

>  <r_qp_PISA>  (407) 
384.66800000000001

>  <r_qp_PSA>  (407) 
38.838999999999999

>  <r_qp_PercentHumanOralAbsorption>  (407) 
100

>  <r_qp_QPPCaco>  (407) 
3851.6930000000002

>  <r_qp_QPPMDCK>  (407) 
4443.6419999999998

>  <r_qp_QPlogBB>  (407) 
0.19500000000000001

>  <r_qp_QPlogHERG>  (407) 
-5.6639999999999997

>  <r_qp_QPlogKhsa>  (407) 
0.78900000000000003

>  <r_qp_QPlogKp>  (407) 
-0.77000000000000002

>  <r_qp_QPlogPC16>  (407) 
12.221

>  <r_qp_QPlogPo/w>  (407) 
4.9589999999999996

>  <r_qp_QPlogPoct>  (407) 
17.800999999999998

>  <r_qp_QPlogPw>  (407) 
9.0679999999999996

>  <r_qp_QPlogS>  (407) 
-5.7649999999999997

>  <r_qp_QPpolrz>  (407) 
40.671999999999997

>  <r_qp_SASA>  (407) 
604.39700000000005

>  <r_qp_SAamideO>  (407) 
0

>  <r_qp_SAfluorine>  (407) 
0

>  <r_qp_WPSA>  (407) 
58.482999999999997

>  <r_qp_accptHB>  (407) 
4

>  <r_qp_dip^2/V>  (407) 
0.036646600000000001

>  <r_qp_dipole>  (407) 
6.3789999999999996

>  <r_qp_donorHB>  (407) 
1

>  <r_qp_glob>  (407) 
0.85799199999999998

>  <r_qp_mol_MW>  (407) 
454.30900000000003

>  <r_qp_volume>  (407) 
1110.3530000000001

>  <r_sd_BIOSOLVEIT.INFINISEE\_FTREES\_SIMILARITY>  (407) 
0.90400000000000003

>  <r_sd_BIOSOLVEIT.LOGP>  (407) 
5.36632

>  <r_sd_BIOSOLVEIT.MOLECULAR\_WEIGHT>  (407) 
454.30500000000001

>  <r_sd_BIOSOLVEIT.TPSA>  (407) 
32.340000000000003

>  <i_epik_Tot_Q>  (407) 
0

>  <i_epik_Tot_abs_Q>  (407) 
0

>  <i_f3d_flags>  (407) 
0

>  <i_i_glide_confnum>  (407) 
1

>  <i_i_glide_lignum>  (407) 
613

>  <i_i_glide_posenum>  (407) 
15

>  <i_i_glide_rotatable_bonds>  (407) 
3

>  <i_lp_mmshare_version>  (407) 
65135

>  <i_m_ct_format>  (407) 
2

>  <i_m_source_file_index>  (407) 
1763

>  <i_qp_#NandO>  (407) 
3

>  <i_qp_#acid>  (407) 
0

>  <i_qp_#amide>  (407) 
0

>  <i_qp_#amidine>  (407) 
0

>  <i_qp_#amine>  (407) 
0

>  <i_qp_#in34>  (407) 
0

>  <i_qp_#in56>  (407) 
22

>  <i_qp_#metab>  (407) 
6

>  <i_qp_#nonHatm>  (407) 
26

>  <i_qp_#noncon>  (407) 
1

>  <i_qp_#ringatoms>  (407) 
22

>  <i_qp_#rotor>  (407) 
2

>  <i_qp_#rtvFG>  (407) 
0

>  <i_qp_#stars>  (407) 
0

>  <i_qp_CNS>  (407) 
1

>  <i_qp_HumanOralAbsorption>  (407) 
3

>  <i_qp_RuleOfFive>  (407) 
0

>  <i_qp_RuleOfThree>  (407) 
1

>  <i_sd_BIOSOLVEIT.INFINISEE\_REAGENT1\_NAME>  (407) 
89515

>  <i_sd_BIOSOLVEIT.INFINISEE\_REAGENT2\_NAME>  (407) 
9985196

>  <i_sd_BIOSOLVEIT.INFINISEE\_RESULT\_RANK>  (407) 
75486

>  <i_sd_version>  (407) 
0

>  <b_lp_Chiralities_Consistent>  (407) 
1

>  <b_sd_chiral_flag>  (407) 
0

>  <canonical_id>  (407) 
ATP-HTVS-41DBD56D77D4

>  <compound_code>  (407) 
56386

>  <title>  (407) 
m_66bab____89515____9985196

>  <variant>  (407) 
56386-1

>  <source_file>  (407) 
运行/运行/ATP-VSW/ATP-VSW-DOCK_HTVS_1-002_lib.maegz

>  <canonical_smiles>  (407) 
Cc1ccc(CN2C(=O)c3ccccc3N[C@H]2c2cccc(I)c2)cc1

>  <scaffold>  (407) 
O=C1c2ccccc2NC(c2ccccc2)N1Cc1ccccc1

>  <molecular_formula>  (407) 
C22H19IN2O

$$$$
ATP-HTVS-41DE369552E3
     RDKit          3D

 56 59  0  0  0  0  0  0  0  0999 V2000
  199.3657  186.7342  152.3273 O   0  0  0  0  0  0  0  0  0  0  0  0
  198.7677  186.3269  153.3230 C   0  0  0  0  0  0  0  0  0  0  0  0
  198.0552  185.1869  153.3660 N   0  0  0  0  0  0  0  0  0  0  0  0
  197.9897  184.1241  152.4170 C   0  0  0  0  0  0  0  0  0  0  0  0
  197.6787  182.8124  152.8565 C   0  0  0  0  0  0  0  0  0  0  0  0
  197.4495  182.5509  154.2641 C   0  0  0  0  0  0  0  0  0  0  0  0
  197.2145  182.3714  155.4492 C   0  0  0  0  0  0  0  0  0  0  0  0
  196.9221  182.3663  156.8840 C   0  0  1  0  0  0  0  0  0  0  0  0
  195.5473  181.8431  157.0340 N   0  0  1  0  0  0  0  0  0  0  0  0
  194.9781  181.8414  158.3964 C   0  0  1  0  0  0  0  0  0  0  0  0
  195.1965  183.1633  159.1362 C   0  0  0  0  0  0  0  0  0  0  0  0
  196.4993  183.5332  159.5341 C   0  0  0  0  0  0  0  0  0  0  0  0
  196.7252  184.7958  160.1265 C   0  0  0  0  0  0  0  0  0  0  0  0
  195.6547  185.6510  160.4309 C   0  0  0  0  0  0  0  0  0  0  0  0
  194.3416  185.2751  160.0876 C   0  0  0  0  0  0  0  0  0  0  0  0
  194.1219  184.0500  159.4136 C   0  0  0  0  0  0  0  0  0  0  0  0
  193.5065  181.4117  158.3182 C   0  0  2  0  0  0  0  0  0  0  0  0
  197.5873  181.7580  151.9145 C   0  0  0  0  0  0  0  0  0  0  0  0
  197.8073  182.0745  150.5482 C   0  0  0  0  0  0  0  0  0  0  0  0
  198.0878  183.3270  150.1294 N   0  0  0  0  0  0  0  0  0  0  0  0
  198.1771  184.3195  151.0358 C   0  0  0  0  0  0  0  0  0  0  0  0
  197.7252  181.0421  149.5982 C   0  0  0  0  0  0  0  0  0  0  0  0
  197.4203  179.7217  149.9712 C   0  0  0  0  0  0  0  0  0  0  0  0
  197.2045  179.4111  151.3234 C   0  0  0  0  0  0  0  0  0  0  0  0
  197.2878  180.4223  152.2946 C   0  0  0  0  0  0  0  0  0  0  0  0
  198.7486  187.1162  154.6153 C   0  0  0  0  0  0  0  0  0  0  0  0
  199.1489  188.4818  154.6640 C   0  0  0  0  0  0  0  0  0  0  0  0
  199.5446  189.1624  153.5485 O   0  0  0  0  0  0  0  0  0  0  0  0
  199.1372  189.1812  155.8877 C   0  0  0  0  0  0  0  0  0  0  0  0
  198.7227  188.5466  157.0746 C   0  0  0  0  0  0  0  0  0  0  0  0
  198.3265  187.2004  157.0414 C   0  0  0  0  0  0  0  0  0  0  0  0
  198.3481  186.4924  155.8264 C   0  0  0  0  0  0  0  0  0  0  0  0
  194.8992  182.3427  156.4197 H   0  0  0  0  0  0  0  0  0  0  0  0
  197.6258  184.9920  154.2555 H   0  0  0  0  0  0  0  0  0  0  0  0
  197.6581  181.7536  157.4156 H   0  0  0  0  0  0  0  0  0  0  0  0
  197.0040  183.4112  157.2057 H   0  0  0  0  0  0  0  0  0  0  0  0
  195.5138  181.0780  158.9742 H   0  0  0  0  0  0  0  0  0  0  0  0
  197.3402  182.8597  159.4560 H   0  0  0  0  0  0  0  0  0  0  0  0
  197.7321  185.0883  160.3978 H   0  0  0  0  0  0  0  0  0  0  0  0
  195.8319  186.6207  160.8966 H   0  0  0  0  0  0  0  0  0  0  0  0
  193.5075  185.9249  160.2753 H   0  0  0  0  0  0  0  0  0  0  0  0
  193.1103  183.8434  159.0997 H   0  0  0  0  0  0  0  0  0  0  0  0
  193.0764  181.3490  159.3099 H   0  0  0  0  0  0  0  0  0  0  0  0
  193.3783  180.4298  157.8569 H   0  0  0  0  0  0  0  0  0  0  0  0
  192.9126  182.1117  157.7338 H   0  0  0  0  0  0  0  0  0  0  0  0
  198.3791  185.2975  150.6297 H   0  0  0  0  0  0  0  0  0  0  0  0
  197.9118  181.2823  148.5645 H   0  0  0  0  0  0  0  0  0  0  0  0
  197.3666  178.9509  149.2191 H   0  0  0  0  0  0  0  0  0  0  0  0
  196.9915  178.3959  151.6216 H   0  0  0  0  0  0  0  0  0  0  0  0
  197.1238  180.1410  153.3264 H   0  0  0  0  0  0  0  0  0  0  0  0
  199.5519  188.5999  152.7854 H   0  0  0  0  0  0  0  0  0  0  0  0
  199.4407  190.2168  155.9198 H   0  0  0  0  0  0  0  0  0  0  0  0
  198.7090  189.0891  158.0073 H   0  0  0  0  0  0  0  0  0  0  0  0
  198.0057  186.7032  157.9461 H   0  0  0  0  0  0  0  0  0  0  0  0
  198.0482  185.4568  155.8688 H   0  0  0  0  0  0  0  0  0  0  0  0
  195.5403  180.8679  156.7546 H   0  0  0  0  0  0  0  0  0  0  0  0
  1  2  2  0
  2  3  1  0
  2 26  1  0
  3  4  1  0
  3 34  1  0
  4  5  2  0
  4 21  1  0
  5  6  1  0
  5 18  1  0
  6  7  3  0
  7  8  1  0
  8  9  1  0
  8 35  1  1
  8 36  1  0
  9 10  1  0
  9 33  1  6
  9 56  1  0
 10 11  1  0
 10 17  1  0
 10 37  1  1
 11 12  2  0
 11 16  1  0
 12 13  1  0
 12 38  1  0
 13 14  2  0
 13 39  1  0
 14 15  1  0
 14 40  1  0
 15 16  2  0
 15 41  1  0
 16 42  1  0
 17 43  1  1
 17 44  1  0
 17 45  1  0
 18 19  1  0
 18 25  2  0
 19 20  1  0
 19 22  2  0
 20 21  2  0
 21 46  1  0
 22 23  1  0
 22 47  1  0
 23 24  2  0
 23 48  1  0
 24 25  1  0
 24 49  1  0
 25 50  1  0
 26 27  1  0
 26 32  2  0
 27 28  1  0
 27 29  2  0
 28 51  1  0
 29 30  1  0
 29 52  1  0
 30 31  2  0
 30 53  1  0
 31 32  1  0
 31 54  1  0
 32 55  1  0
M  CHG  1   9   1
M  END
>  <s_epik_cmdline>  (408) 
J2VwaWtfcHl0aG9uJywgJy1waCcsICc3LjAwMDAwMCcsICctcGh0JywgJzIuMDAwMDAwJywgJy1tcycsICcxNicsICctdG4nLCAnOCcsICctbWEnLCAnMjAwJywgJy1pbWFlJywgJzxpbmZpbGUubWFlPicsICctb21hZScsICc8b3V0ZmlsZS5tYWU+Jw==

>  <s_epik_input>  (408) 
W2NIXTFbY0hdW2NIXVtjSF1jKFtPSF0pYzFDKD1PKVtOSF1jKFtjSF1uYyhjMjMpW2NIXVtjSF1bY0hdW2NIXTMpYzJDI0NbQ0gyXVtOSF1bQ0BIXShbQ0gzXSljNFtjSF1bY0hdW2NIXVtjSF1bY0hdNA==

>  <s_i_glide_gridfile>  (408) 
ATP-Grid

>  <s_lp_Force_Field>  (408) 
OPLS_2005

>  <s_lp_Variant>  (408) 
rxn503b____EMOL478035____EMOL30488121____EMOL1468452-7

>  <s_lp_label>  (408) 
2851_sdstereoexpander_1_neutralizer_1_epik_4_stereoizer_1

>  <s_m_source_file>  (408) 
ATP-VSW-LIGPREP-001-in.maegz

>  <s_sd_BIOSOLVEIT.INFINISEE\_QUERY\_NAME>  (408) 
Ref-Lig

>  <s_sd_BIOSOLVEIT.INFINISEE\_QUERY\_SMILES>  (408) 
S(c1nc2c(cc1C[NH2+]Cc3ccc(cc3)C[NH+](C)C)cccc2)Cc4ccccc4

>  <s_sd_BIOSOLVEIT.INFINISEE\_REACTION\_NAME>  (408) 
rxn503b

>  <s_sd_BIOSOLVEIT.INFINISEE\_REAGENT1\_NAME>  (408) 
EMOL478035

>  <s_sd_BIOSOLVEIT.INFINISEE\_REAGENT1\_SMILES>  (408) 
O=C(O)c1c(O)cccc1

>  <s_sd_BIOSOLVEIT.INFINISEE\_REAGENT2\_NAME>  (408) 
EMOL30488121

>  <s_sd_BIOSOLVEIT.INFINISEE\_REAGENT2\_SMILES>  (408) 
Brc1c(N)cnc2c1cccc2

>  <s_sd_BIOSOLVEIT.INFINISEE\_REAGENT3\_NAME>  (408) 
EMOL1468452

>  <s_sd_BIOSOLVEIT.INFINISEE\_REAGENT3\_SMILES>  (408) 
N(C(c1ccccc1)C)CC#C

>  <s_sd_BIOSOLVEIT.INFINISEE\_SPACE>  (408) 
eXplore_7tr_2022-12

>  <s_vsw_compound_code>  (408) 
91201

>  <s_vsw_variant>  (408) 
91201-7

>  <r_epik_Charging_Adjusted_Penalty>  (408) 
1.66721592973831

>  <r_epik_Ionization_Penalty>  (408) 
1.0986

>  <r_epik_Ionization_Penalty_Charging>  (408) 
0.56859999999999999

>  <r_epik_Ionization_Penalty_Neutral>  (408) 
0.53000000000000003

>  <r_epik_State_Penalty>  (408) 
1.0986

>  <r_i_docking_score>  (408) 
-4.0735513303567901

>  <r_i_glide_ecoul>  (408) 
-11.795839309692401

>  <r_i_glide_eff_state_penalty>  (408) 
1.0986

>  <r_i_glide_einternal>  (408) 
7.5711517333984402

>  <r_i_glide_emodel>  (408) 
-63.845132561480099

>  <r_i_glide_energy>  (408) 
-46.074052810668903

>  <r_i_glide_erotb>  (408) 
0.77688040092706601

>  <r_i_glide_esite>  (408) 
-0.10903218181546501

>  <r_i_glide_evdw>  (408) 
-34.278213500976598

>  <r_i_glide_gscore>  (408) 
-5.1721513303567903

>  <r_i_glide_hbond>  (408) 
-0.32996650404657102

>  <r_i_glide_ligand_efficiency>  (408) 
-0.12729847907364999

>  <r_i_glide_ligand_efficiency_ln>  (408) 
-0.91217918368234296

>  <r_i_glide_ligand_efficiency_sa>  (408) 
-0.404147478724037

>  <r_i_glide_lipo>  (408) 
-1.4983262011918601

>  <r_i_glide_metal>  (408) 
-0

>  <r_i_glide_rewards>  (408) 
-0.52842027272727199

>  <r_lp_Energy>  (408) 
31.287946999999999

>  <r_lp_tautomer_probability>  (408) 
0.999999999997365

>  <r_qp_ACxDN^.5/SA>  (408) 
0.0095265000000000002

>  <r_qp_CIQPlogS>  (408) 
-6.0700000000000003

>  <r_qp_EA(eV)>  (408) 
1.105

>  <r_qp_FISA>  (408) 
115.836

>  <r_qp_FOSA>  (408) 
120.995

>  <r_qp_IP(eV)>  (408) 
8.5340000000000007

>  <r_qp_Jm>  (408) 
0.0040361553513432397

>  <r_qp_PISA>  (408) 
468.30799999999999

>  <r_qp_PSA>  (408) 
78.972999999999999

>  <r_qp_PercentHumanOralAbsorption>  (408) 
95.326999999999998

>  <r_qp_QPPCaco>  (408) 
196.93600000000001

>  <r_qp_QPPMDCK>  (408) 
94.510000000000005

>  <r_qp_QPlogBB>  (408) 
-0.64900000000000002

>  <r_qp_QPlogHERG>  (408) 
-7.2880000000000003

>  <r_qp_QPlogKhsa>  (408) 
0.89600000000000002

>  <r_qp_QPlogKp>  (408) 
-3.2989999999999999

>  <r_qp_QPlogPC16>  (408) 
15.077999999999999

>  <r_qp_QPlogPo/w>  (408) 
4.6660000000000004

>  <r_qp_QPlogPoct>  (408) 
21.866

>  <r_qp_QPlogPw>  (408) 
11.233000000000001

>  <r_qp_QPlogS>  (408) 
-4.7199999999999998

>  <r_qp_QPpolrz>  (408) 
46.189

>  <r_qp_SASA>  (408) 
705.13900000000001

>  <r_qp_SAamideO>  (408) 
0

>  <r_qp_SAfluorine>  (408) 
0

>  <r_qp_WPSA>  (408) 
0

>  <r_qp_accptHB>  (408) 
4.75

>  <r_qp_dip^2/V>  (408) 
0.059132799999999999

>  <r_qp_dipole>  (408) 
8.8499999999999996

>  <r_qp_donorHB>  (408) 
2

>  <r_qp_glob>  (408) 
0.82717269999999998

>  <r_qp_mol_MW>  (408) 
421.49799999999999

>  <r_qp_volume>  (408) 
1324.521

>  <r_sd_BIOSOLVEIT.INFINISEE\_FTREES\_SIMILARITY>  (408) 
0.90500000000000003

>  <r_sd_BIOSOLVEIT.LOGP>  (408) 
3.8687999999999998

>  <r_sd_BIOSOLVEIT.MOLECULAR\_WEIGHT>  (408) 
422.50599999999997

>  <r_sd_BIOSOLVEIT.TPSA>  (408) 
78.829999999999998

>  <i_epik_Tot_Q>  (408) 
1

>  <i_epik_Tot_abs_Q>  (408) 
1

>  <i_f3d_flags>  (408) 
0

>  <i_i_glide_confnum>  (408) 
6

>  <i_i_glide_lignum>  (408) 
1315

>  <i_i_glide_posenum>  (408) 
19

>  <i_i_glide_rotatable_bonds>  (408) 
9

>  <i_lp_mmshare_version>  (408) 
65135

>  <i_m_ct_format>  (408) 
2

>  <i_m_source_file_index>  (408) 
2851

>  <i_qp_#NandO>  (408) 
5

>  <i_qp_#acid>  (408) 
0

>  <i_qp_#amide>  (408) 
0

>  <i_qp_#amidine>  (408) 
0

>  <i_qp_#amine>  (408) 
1

>  <i_qp_#in34>  (408) 
0

>  <i_qp_#in56>  (408) 
22

>  <i_qp_#metab>  (408) 
6

>  <i_qp_#nonHatm>  (408) 
32

>  <i_qp_#noncon>  (408) 
0

>  <i_qp_#ringatoms>  (408) 
22

>  <i_qp_#rotor>  (408) 
8

>  <i_qp_#rtvFG>  (408) 
0

>  <i_qp_#stars>  (408) 
1

>  <i_qp_CNS>  (408) 
1

>  <i_qp_HumanOralAbsorption>  (408) 
3

>  <i_qp_RuleOfFive>  (408) 
0

>  <i_qp_RuleOfThree>  (408) 
0

>  <i_sd_BIOSOLVEIT.INFINISEE\_RESULT\_RANK>  (408) 
68898

>  <i_sd_version>  (408) 
0

>  <b_lp_Chiralities_Consistent>  (408) 
1

>  <b_sd_chiral_flag>  (408) 
0

>  <canonical_id>  (408) 
ATP-HTVS-41DE369552E3

>  <compound_code>  (408) 
91201

>  <title>  (408) 
rxn503b____EMOL478035____EMOL30488121____EMOL1468452

>  <variant>  (408) 
91201-7

>  <source_file>  (408) 
运行/运行/ATP-VSW/ATP-VSW-DOCK_HTVS_1-001_lib/ATP-VSW-DOCK_HTVS_1-001_lib

>  <canonical_smiles>  (408) 
C[C@@H]([NH2+]CC#Cc1c(NC(=O)c2ccccc2O)cnc2ccccc12)c1ccccc1

>  <scaffold>  (408) 
O=C(Nc1cnc2ccccc2c1C#CC[NH2+]Cc1ccccc1)c1ccccc1

>  <molecular_formula>  (408) 
C27H24N3O2+

$$$$
ATP-HTVS-41DF5C276515
     RDKit          3D

 55 58  0  0  0  0  0  0  0  0999 V2000
  196.8197  183.5134  160.4913 O   0  0  0  0  0  0  0  0  0  0  0  0
  196.5128  184.0286  159.4223 C   0  0  0  0  0  0  0  0  0  0  0  0
  197.2630  183.9724  158.3106 N   0  0  0  0  0  0  0  0  0  0  0  0
  198.6204  183.5605  158.1710 C   0  0  0  0  0  0  0  0  0  0  0  0
  199.1064  183.1940  156.8915 C   0  0  0  0  0  0  0  0  0  0  0  0
  198.2479  183.2512  155.7741 N   0  0  0  0  0  0  0  0  0  0  0  0
  197.7863  182.1442  155.0233 C   0  0  0  0  0  0  0  0  0  0  0  0
  197.9723  180.8270  155.5123 C   0  0  0  0  0  0  0  0  0  0  0  0
  197.5454  179.7138  154.7603 C   0  0  0  0  0  0  0  0  0  0  0  0
  196.9334  179.9005  153.5061 C   0  0  0  0  0  0  0  0  0  0  0  0
  196.7434  181.2010  153.0134 C   0  0  0  0  0  0  0  0  0  0  0  0
  197.1520  182.3110  153.7687 C   0  0  0  0  0  0  0  0  0  0  0  0
  197.7870  184.5970  155.4107 C   0  0  1  0  0  0  0  0  0  0  0  0
  198.4510  185.1183  154.2053 C   0  0  0  0  0  0  0  0  0  0  0  0
  198.9663  185.5265  153.2536 N   0  0  0  0  0  0  0  0  0  0  0  0
  200.4668  182.7927  156.7714 C   0  0  0  0  0  0  0  0  0  0  0  0
  201.2882  182.7985  157.9346 C   0  0  0  0  0  0  0  0  0  0  0  0
  200.8236  183.1979  159.1356 N   0  0  0  0  0  0  0  0  0  0  0  0
  199.5328  183.5618  159.2488 C   0  0  0  0  0  0  0  0  0  0  0  0
  202.6337  182.3857  157.8248 C   0  0  0  0  0  0  0  0  0  0  0  0
  203.1694  181.9729  156.5907 C   0  0  0  0  0  0  0  0  0  0  0  0
  202.3610  181.9785  155.4423 C   0  0  0  0  0  0  0  0  0  0  0  0
  201.0213  182.3934  155.5299 C   0  0  0  0  0  0  0  0  0  0  0  0
  195.2047  184.8164  159.3146 C   0  0  1  0  0  0  0  0  0  0  0  0
  195.3262  186.1561  160.0398 C   0  0  0  0  0  0  0  0  0  0  0  0
  194.3876  186.5105  161.0357 C   0  0  0  0  0  0  0  0  0  0  0  0
  194.4577  187.7605  161.7048 C   0  0  0  0  0  0  0  0  0  0  0  0
  193.5470  188.1710  162.6617 O   0  0  0  0  0  0  0  0  0  0  0  0
  192.4691  187.3046  162.9822 C   0  0  2  0  0  0  0  0  0  0  0  0
  195.4917  188.6627  161.3314 C   0  0  0  0  0  0  0  0  0  0  0  0
  195.5476  189.9189  161.8758 O   0  0  0  0  0  0  0  0  0  0  0  0
  196.4392  188.3060  160.3601 C   0  0  0  0  0  0  0  0  0  0  0  0
  196.3496  187.0657  159.7048 C   0  0  0  0  0  0  0  0  0  0  0  0
  196.8175  184.2636  157.4516 H   0  0  0  0  0  0  0  0  0  0  0  0
  198.4419  180.6477  156.4699 H   0  0  0  0  0  0  0  0  0  0  0  0
  197.6839  178.7166  155.1554 H   0  0  0  0  0  0  0  0  0  0  0  0
  196.5949  179.0497  152.9331 H   0  0  0  0  0  0  0  0  0  0  0  0
  196.2650  181.3617  152.0592 H   0  0  0  0  0  0  0  0  0  0  0  0
  196.9687  183.2838  153.3412 H   0  0  0  0  0  0  0  0  0  0  0  0
  196.7091  184.5936  155.2594 H   0  0  0  0  0  0  0  0  0  0  0  0
  197.9964  185.3303  156.1892 H   0  0  0  0  0  0  0  0  0  0  0  0
  199.2499  183.8869  160.2351 H   0  0  0  0  0  0  0  0  0  0  0  0
  203.2599  182.3870  158.7036 H   0  0  0  0  0  0  0  0  0  0  0  0
  204.2009  181.6524  156.5241 H   0  0  0  0  0  0  0  0  0  0  0  0
  202.7638  181.6601  154.4925 H   0  0  0  0  0  0  0  0  0  0  0  0
  200.4262  182.3926  154.6303 H   0  0  0  0  0  0  0  0  0  0  0  0
  194.9364  184.9948  158.2740 H   0  0  0  0  0  0  0  0  0  0  0  0
  194.4050  184.2140  159.7438 H   0  0  0  0  0  0  0  0  0  0  0  0
  193.5926  185.8147  161.2538 H   0  0  0  0  0  0  0  0  0  0  0  0
  191.8541  187.7735  163.7475 H   0  0  0  0  0  0  0  0  0  0  0  0
  192.8232  186.3564  163.3830 H   0  0  0  0  0  0  0  0  0  0  0  0
  191.8340  187.1174  162.1173 H   0  0  0  0  0  0  0  0  0  0  0  0
  196.3541  190.3550  161.6596 H   0  0  0  0  0  0  0  0  0  0  0  0
  197.2241  188.9966  160.0823 H   0  0  0  0  0  0  0  0  0  0  0  0
  197.0725  186.8289  158.9358 H   0  0  0  0  0  0  0  0  0  0  0  0
  1  2  2  0
  2  3  1  0
  2 24  1  0
  3  4  1  0
  3 34  1  0
  4  5  2  0
  4 19  1  0
  5  6  1  0
  5 16  1  0
  6  7  1  0
  6 13  1  0
  7  8  2  0
  7 12  1  0
  8  9  1  0
  8 35  1  0
  9 10  2  0
  9 36  1  0
 10 11  1  0
 10 37  1  0
 11 12  2  0
 11 38  1  0
 12 39  1  0
 13 14  1  0
 13 40  1  6
 13 41  1  0
 14 15  3  0
 16 17  1  0
 16 23  2  0
 17 18  1  0
 17 20  2  0
 18 19  2  0
 19 42  1  0
 20 21  1  0
 20 43  1  0
 21 22  2  0
 21 44  1  0
 22 23  1  0
 22 45  1  0
 23 46  1  0
 24 25  1  0
 24 47  1  6
 24 48  1  0
 25 26  2  0
 25 33  1  0
 26 27  1  0
 26 49  1  0
 27 28  1  0
 27 30  2  0
 28 29  1  0
 29 50  1  1
 29 51  1  0
 29 52  1  0
 30 31  1  0
 30 32  1  0
 31 53  1  0
 32 33  2  0
 32 54  1  0
 33 55  1  0
M  END
>  <s_epik_cmdline>  (409) 
J2VwaWtfcHl0aG9uJywgJy1waCcsICc3LjAwMDAwMCcsICctcGh0JywgJzIuMDAwMDAwJywgJy1tcycsICcxNicsICctdG4nLCAnOCcsICctbWEnLCAnMjAwJywgJy1pbWFlJywgJzxpbmZpbGUubWFlPicsICctb21hZScsICc8b3V0ZmlsZS5tYWU+Jw==

>  <s_epik_input>  (409) 
W2NIXTFbY0hdYyhbT0hdKWMoT1tDSDNdKVtjSF1jMVtDSDJdQyg9TylbTkhdYyhbY0hdbmMoYzIzKVtjSF1bY0hdW2NIXVtjSF0zKWMyTihbQ0gyXUMjTiljNFtjSF1bY0hdW2NIXVtjSF1bY0hdNA==

>  <s_i_glide_gridfile>  (409) 
ATP-Grid

>  <s_lp_Force_Field>  (409) 
OPLS_2005

>  <s_lp_Variant>  (409) 
rxn502b____EMOL518529____EMOL30488121____EMOL712348-1

>  <s_lp_label>  (409) 
2990_sdstereoexpander_1_neutralizer_1_epik_1_stereoizer_1

>  <s_m_source_file>  (409) 
ATP-VSW-LIGPREP-001-in.maegz

>  <s_sd_BIOSOLVEIT.INFINISEE\_QUERY\_NAME>  (409) 
Ref-Lig

>  <s_sd_BIOSOLVEIT.INFINISEE\_QUERY\_SMILES>  (409) 
S(c1nc2c(cc1C[NH2+]Cc3ccc(cc3)C[NH+](C)C)cccc2)Cc4ccccc4

>  <s_sd_BIOSOLVEIT.INFINISEE\_REACTION\_NAME>  (409) 
rxn502b

>  <s_sd_BIOSOLVEIT.INFINISEE\_REAGENT1\_NAME>  (409) 
EMOL518529

>  <s_sd_BIOSOLVEIT.INFINISEE\_REAGENT1\_SMILES>  (409) 
O=C(O)Cc1cc(OC)c(O)cc1

>  <s_sd_BIOSOLVEIT.INFINISEE\_REAGENT2\_NAME>  (409) 
EMOL30488121

>  <s_sd_BIOSOLVEIT.INFINISEE\_REAGENT2\_SMILES>  (409) 
Brc1c(N)cnc2c1cccc2

>  <s_sd_BIOSOLVEIT.INFINISEE\_REAGENT3\_NAME>  (409) 
EMOL712348

>  <s_sd_BIOSOLVEIT.INFINISEE\_REAGENT3\_SMILES>  (409) 
N#CCNc1ccccc1

>  <s_sd_BIOSOLVEIT.INFINISEE\_SPACE>  (409) 
eXplore_7tr_2022-12

>  <s_vsw_compound_code>  (409) 
95649

>  <s_vsw_variant>  (409) 
95649-1

>  <r_epik_Charging_Adjusted_Penalty>  (409) 
0.041911484852445099

>  <r_epik_Ionization_Penalty>  (409) 
0.043200000000000002

>  <r_epik_Ionization_Penalty_Charging>  (409) 
0

>  <r_epik_Ionization_Penalty_Neutral>  (409) 
0.043200000000000002

>  <r_epik_State_Penalty>  (409) 
0.0419

>  <r_i_docking_score>  (409) 
-3.5518564729931401

>  <r_i_glide_ecoul>  (409) 
-1.72135150432587

>  <r_i_glide_eff_state_penalty>  (409) 
0.0419

>  <r_i_glide_einternal>  (409) 
3.40995573997498

>  <r_i_glide_emodel>  (409) 
-42.3868348583919

>  <r_i_glide_energy>  (409) 
-34.952598452568097

>  <r_i_glide_erotb>  (409) 
0.62258947952274102

>  <r_i_glide_esite>  (409) 
-0.00408628223906367

>  <r_i_glide_evdw>  (409) 
-33.231246948242202

>  <r_i_glide_gscore>  (409) 
-3.5937564729931402

>  <r_i_glide_hbond>  (409) 
-0.066338278526819699

>  <r_i_glide_ligand_efficiency>  (409) 
-0.107632014333126

>  <r_i_glide_ligand_efficiency_ln>  (409) 
-0.78991448906509798

>  <r_i_glide_ligand_efficiency_sa>  (409) 
-0.34523338057773301

>  <r_i_glide_lipo>  (409) 
-1.5426943066763099

>  <r_i_glide_metal>  (409) 
-0

>  <r_i_glide_rewards>  (409) 
-0.68346201201270196

>  <r_lp_Energy>  (409) 
29.606535999999998

>  <r_lp_tautomer_probability>  (409) 
1

>  <r_qp_ACxDN^.5/SA>  (409) 
0.0155347

>  <r_qp_CIQPlogS>  (409) 
-7.5990000000000002

>  <r_qp_EA(eV)>  (409) 
1.3109999999999999

>  <r_qp_FISA>  (409) 
156.59999999999999

>  <r_qp_FOSA>  (409) 
132.417

>  <r_qp_IP(eV)>  (409) 
8.7010000000000005

>  <r_qp_Jm>  (409) 
0.0259879265230189

>  <r_qp_PISA>  (409) 
348.23500000000001

>  <r_qp_PSA>  (409) 
100.946

>  <r_qp_PercentHumanOralAbsorption>  (409) 
92.620000000000005

>  <r_qp_QPPCaco>  (409) 
324.23700000000002

>  <r_qp_QPPMDCK>  (409) 
146.43700000000001

>  <r_qp_QPlogBB>  (409) 
-1.306

>  <r_qp_QPlogHERG>  (409) 
-5.0229999999999997

>  <r_qp_QPlogKhsa>  (409) 
0.33500000000000002

>  <r_qp_QPlogKp>  (409) 
-2.3149999999999999

>  <r_qp_QPlogPC16>  (409) 
13.993

>  <r_qp_QPlogPo/w>  (409) 
3.5409999999999999

>  <r_qp_QPlogPoct>  (409) 
21.187000000000001

>  <r_qp_QPlogPw>  (409) 
12.525

>  <r_qp_QPlogS>  (409) 
-4.9119999999999999

>  <r_qp_QPpolrz>  (409) 
41.950000000000003

>  <r_qp_SASA>  (409) 
637.25199999999995

>  <r_qp_SAamideO>  (409) 
0

>  <r_qp_SAfluorine>  (409) 
0

>  <r_qp_WPSA>  (409) 
0

>  <r_qp_accptHB>  (409) 
7

>  <r_qp_dip^2/V>  (409) 
0.016182200000000001

>  <r_qp_dipole>  (409) 
4.5209999999999999

>  <r_qp_donorHB>  (409) 
2

>  <r_qp_glob>  (409) 
0.88687179999999999

>  <r_qp_mol_MW>  (409) 
438.48500000000001

>  <r_qp_volume>  (409) 
1263.3099999999999

>  <r_sd_BIOSOLVEIT.INFINISEE\_FTREES\_SIMILARITY>  (409) 
0.90300000000000002

>  <r_sd_BIOSOLVEIT.LOGP>  (409) 
4.7918799999999999

>  <r_sd_BIOSOLVEIT.MOLECULAR\_WEIGHT>  (409) 
438.48500000000001

>  <r_sd_BIOSOLVEIT.TPSA>  (409) 
98.480000000000004

>  <i_epik_Tot_Q>  (409) 
0

>  <i_epik_Tot_abs_Q>  (409) 
0

>  <i_f3d_flags>  (409) 
0

>  <i_i_glide_confnum>  (409) 
3

>  <i_i_glide_lignum>  (409) 
1429

>  <i_i_glide_posenum>  (409) 
3

>  <i_i_glide_rotatable_bonds>  (409) 
9

>  <i_lp_mmshare_version>  (409) 
65135

>  <i_m_ct_format>  (409) 
2

>  <i_m_source_file_index>  (409) 
2990

>  <i_qp_#NandO>  (409) 
7

>  <i_qp_#acid>  (409) 
0

>  <i_qp_#amide>  (409) 
0

>  <i_qp_#amidine>  (409) 
0

>  <i_qp_#amine>  (409) 
0

>  <i_qp_#in34>  (409) 
0

>  <i_qp_#in56>  (409) 
22

>  <i_qp_#metab>  (409) 
7

>  <i_qp_#nonHatm>  (409) 
33

>  <i_qp_#noncon>  (409) 
0

>  <i_qp_#ringatoms>  (409) 
22

>  <i_qp_#rotor>  (409) 
9

>  <i_qp_#rtvFG>  (409) 
0

>  <i_qp_#stars>  (409) 
0

>  <i_qp_CNS>  (409) 
-2

>  <i_qp_HumanOralAbsorption>  (409) 
3

>  <i_qp_RuleOfFive>  (409) 
0

>  <i_qp_RuleOfThree>  (409) 
1

>  <i_sd_BIOSOLVEIT.INFINISEE\_RESULT\_RANK>  (409) 
84756

>  <i_sd_version>  (409) 
0

>  <b_lp_Chiralities_Consistent>  (409) 
1

>  <b_sd_chiral_flag>  (409) 
0

>  <canonical_id>  (409) 
ATP-HTVS-41DF5C276515

>  <compound_code>  (409) 
95649

>  <title>  (409) 
rxn502b____EMOL518529____EMOL30488121____EMOL712348

>  <variant>  (409) 
95649-1

>  <source_file>  (409) 
运行/运行/ATP-VSW/ATP-VSW-DOCK_HTVS_1-001_lib/ATP-VSW-DOCK_HTVS_1-001_lib

>  <canonical_smiles>  (409) 
COc1cc(CC(=O)Nc2cnc3ccccc3c2N(CC#N)c2ccccc2)ccc1O

>  <scaffold>  (409) 
O=C(Cc1ccccc1)Nc1cnc2ccccc2c1Nc1ccccc1

>  <molecular_formula>  (409) 
C26H22N4O3

$$$$
ATP-HTVS-41EB9DEAB7C9
     RDKit          3D

 54 57  0  0  0  0  0  0  0  0999 V2000
  196.9162  182.2876  153.5477 S   0  0  0  0  0  0  0  0  0  0  0  0
  197.4310  180.8684  152.6751 C   0  0  0  0  0  0  0  0  0  0  0  0
  198.7737  180.5177  153.0192 C   0  0  0  0  0  0  0  0  0  0  0  0
  199.3897  179.4786  152.2621 C   0  0  0  0  0  0  0  0  0  0  0  0
  198.6900  178.7943  151.2403 C   0  0  0  0  0  0  0  0  0  0  0  0
  197.3396  179.1141  150.9757 C   0  0  0  0  0  0  0  0  0  0  0  0
  196.7149  180.1429  151.7100 C   0  0  0  0  0  0  0  0  0  0  0  0
  199.2697  181.3306  154.1162 C   0  0  0  0  0  0  0  0  0  0  0  0
  200.5910  181.1576  154.5830 N   0  0  0  0  0  0  0  0  0  0  0  0
  200.8343  180.7285  155.9540 C   0  0  2  0  0  0  0  0  0  0  0  0
  201.9807  181.4641  156.5196 C   0  0  0  0  0  0  0  0  0  0  0  0
  202.8804  182.0421  156.9631 N   0  0  0  0  0  0  0  0  0  0  0  0
  201.0395  179.2219  156.0905 C   0  0  0  0  0  0  0  0  0  0  0  0
  201.7362  178.4841  155.1041 C   0  0  0  0  0  0  0  0  0  0  0  0
  201.9278  177.0952  155.2502 C   0  0  0  0  0  0  0  0  0  0  0  0
  201.4358  176.4305  156.3887 C   0  0  0  0  0  0  0  0  0  0  0  0
  201.6240  175.0966  156.5314 F   0  0  0  0  0  0  0  0  0  0  0  0
  200.7469  177.1571  157.3760 C   0  0  0  0  0  0  0  0  0  0  0  0
  200.5483  178.5439  157.2276 C   0  0  0  0  0  0  0  0  0  0  0  0
  198.3278  182.2378  154.5619 C   0  0  0  0  0  0  0  0  0  0  0  0
  198.3734  183.2717  155.6272 C   0  0  0  0  0  0  0  0  0  0  0  0
  199.3242  184.0531  155.5729 O   0  0  0  0  0  0  0  0  0  0  0  0
  197.4337  183.3159  156.6189 N   0  0  0  0  0  0  0  0  0  0  0  0
  197.4001  184.4265  157.5484 C   0  0  0  0  0  0  0  0  0  0  0  0
  197.2743  184.2064  158.9444 C   0  0  0  0  0  0  0  0  0  0  0  0
  197.0139  185.2724  159.8191 C   0  0  0  0  0  0  0  0  0  0  0  0
  197.0130  186.6051  159.3602 C   0  0  0  0  0  0  0  0  0  0  0  0
  197.2561  186.8640  157.9909 C   0  0  0  0  0  0  0  0  0  0  0  0
  197.4272  185.7776  157.0872 C   0  0  0  0  0  0  0  0  0  0  0  0
  196.4200  182.2307  156.7187 C   0  0  1  0  0  0  0  0  0  0  0  0
  195.4260  182.3432  157.8809 C   0  0  1  0  0  0  0  0  0  0  0  0
  194.3071  181.4273  157.7290 N   0  0  2  0  0  0  0  0  0  0  0  0
  193.6688  181.5094  158.5152 H   0  0  0  0  0  0  0  0  0  0  0  0
  194.6779  180.4932  157.7019 H   0  0  0  0  0  0  0  0  0  0  0  0
  200.4299  179.2092  152.4555 H   0  0  0  0  0  0  0  0  0  0  0  0
  199.1893  178.0218  150.6638 H   0  0  0  0  0  0  0  0  0  0  0  0
  196.8014  178.6003  150.1780 H   0  0  0  0  0  0  0  0  0  0  0  0
  195.6926  180.4029  151.5044 H   0  0  0  0  0  0  0  0  0  0  0  0
  201.2092  180.6969  153.9324 H   0  0  0  0  0  0  0  0  0  0  0  0
  199.9705  181.0038  156.5571 H   0  0  0  0  0  0  0  0  0  0  0  0
  202.1492  178.9709  154.2342 H   0  0  0  0  0  0  0  0  0  0  0  0
  202.4635  176.5371  154.4972 H   0  0  0  0  0  0  0  0  0  0  0  0
  200.3662  176.6513  158.2498 H   0  0  0  0  0  0  0  0  0  0  0  0
  200.0121  179.0777  157.9961 H   0  0  0  0  0  0  0  0  0  0  0  0
  197.3383  183.2187  159.3704 H   0  0  0  0  0  0  0  0  0  0  0  0
  196.7761  185.0689  160.8479 H   0  0  0  0  0  0  0  0  0  0  0  0
  196.8754  187.4306  160.0622 H   0  0  0  0  0  0  0  0  0  0  0  0
  197.3252  187.8947  157.6322 H   0  0  0  0  0  0  0  0  0  0  0  0
  197.5407  186.0121  156.0304 H   0  0  0  0  0  0  0  0  0  0  0  0
  195.7962  182.2355  155.8348 H   0  0  0  0  0  0  0  0  0  0  0  0
  196.9189  181.2632  156.7510 H   0  0  0  0  0  0  0  0  0  0  0  0
  195.8397  182.0149  158.8307 H   0  0  0  0  0  0  0  0  0  0  0  0
  194.9436  183.3152  157.9202 H   0  0  0  0  0  0  0  0  0  0  0  0
  193.8244  181.6237  156.8631 H   0  0  0  0  0  0  0  0  0  0  0  0
  1  2  1  0
  1 20  1  0
  2  3  1  0
  2  7  2  0
  3  4  2  0
  3  8  1  0
  4  5  1  0
  4 35  1  0
  5  6  2  0
  5 36  1  0
  6  7  1  0
  6 37  1  0
  7 38  1  0
  8  9  1  0
  8 20  2  0
  9 10  1  0
  9 39  1  0
 10 11  1  0
 10 13  1  0
 10 40  1  1
 11 12  3  0
 13 14  1  0
 13 19  2  0
 14 15  2  0
 14 41  1  0
 15 16  1  0
 15 42  1  0
 16 17  1  0
 16 18  2  0
 18 19  1  0
 18 43  1  0
 19 44  1  0
 20 21  1  0
 21 22  2  0
 21 23  1  0
 23 24  1  0
 23 30  1  0
 24 25  2  0
 24 29  1  0
 25 26  1  0
 25 45  1  0
 26 27  2  0
 26 46  1  0
 27 28  1  0
 27 47  1  0
 28 29  2  0
 28 48  1  0
 29 49  1  0
 30 31  1  0
 30 50  1  6
 30 51  1  0
 31 32  1  0
 31 52  1  1
 31 53  1  0
 32 33  1  1
 32 34  1  0
 32 54  1  0
M  CHG  1  32   1
M  END
>  <s_epik_cmdline>  (410) 
J2VwaWtfcHl0aG9uJywgJy1waCcsICc3LjAwMDAwMCcsICctcGh0JywgJzIuMDAwMDAwJywgJy1tcycsICcxNicsICctdG4nLCAnOCcsICctbWEnLCAnMjAwJywgJy1pbWFlJywgJzxpbmZpbGUubWFlPicsICctb21hZScsICc8b3V0ZmlsZS5tYWU+Jw==

>  <s_epik_input>  (410) 
W2NIXTFbY0hdW2NIXVtjSF1bY0hdYzFOKFtDSDJdW0NIMl1bTkgyXSlDKD1PKWMoczIpYyhjKGMyMylbY0hdW2NIXVtjSF1bY0hdMylbTkhdW0NASF0oQyNOKWM0W2NIXVtjSF1jKEYpW2NIXVtjSF00

>  <s_i_glide_gridfile>  (410) 
ATP-Grid

>  <s_lp_Force_Field>  (410) 
OPLS_2005

>  <s_lp_Variant>  (410) 
rxn512c____EMOL530647____EMOL523944____EMOL906257-2

>  <s_lp_label>  (410) 
2866_sdstereoexpander_2_neutralizer_1_epik_1_stereoizer_1

>  <s_m_source_file>  (410) 
ATP-VSW-LIGPREP-003-in.maegz

>  <s_sd_BIOSOLVEIT.INFINISEE\_QUERY\_NAME>  (410) 
Ref-Lig

>  <s_sd_BIOSOLVEIT.INFINISEE\_QUERY\_SMILES>  (410) 
S(c1nc2c(cc1C[NH2+]Cc3ccc(cc3)C[NH+](C)C)cccc2)Cc4ccccc4

>  <s_sd_BIOSOLVEIT.INFINISEE\_REACTION\_NAME>  (410) 
rxn512c

>  <s_sd_BIOSOLVEIT.INFINISEE\_REAGENT1\_NAME>  (410) 
EMOL530647

>  <s_sd_BIOSOLVEIT.INFINISEE\_REAGENT1\_SMILES>  (410) 
N(c1ccccc1)CCN

>  <s_sd_BIOSOLVEIT.INFINISEE\_REAGENT2\_NAME>  (410) 
EMOL523944

>  <s_sd_BIOSOLVEIT.INFINISEE\_REAGENT2\_SMILES>  (410) 
ClC=1c2c(SC1C(=O)O)cccc2

>  <s_sd_BIOSOLVEIT.INFINISEE\_REAGENT3\_NAME>  (410) 
EMOL906257

>  <s_sd_BIOSOLVEIT.INFINISEE\_REAGENT3\_SMILES>  (410) 
Fc1ccc(cc1)C(N)C#N

>  <s_sd_BIOSOLVEIT.INFINISEE\_SPACE>  (410) 
eXplore_7tr_2022-12

>  <s_vsw_compound_code>  (410) 
91683

>  <s_vsw_variant>  (410) 
91683-2

>  <r_epik_Charging_Adjusted_Penalty>  (410) 
0.0059235088943602804

>  <r_epik_Ionization_Penalty>  (410) 
0.0068999999999999999

>  <r_epik_Ionization_Penalty_Charging>  (410) 
0.0058999999999999999

>  <r_epik_Ionization_Penalty_Neutral>  (410) 
0.001

>  <r_epik_State_Penalty>  (410) 
-0

>  <r_i_docking_score>  (410) 
-6.0052709115047502

>  <r_i_glide_ecoul>  (410) 
-13.3576202392578

>  <r_i_glide_eff_state_penalty>  (410) 
-0

>  <r_i_glide_einternal>  (410) 
10.272418022155801

>  <r_i_glide_emodel>  (410) 
-64.870083424456993

>  <r_i_glide_energy>  (410) 
-44.870967864990199

>  <r_i_glide_erotb>  (410) 
0.49392572361139198

>  <r_i_glide_esite>  (410) 
-0.119965972209683

>  <r_i_glide_evdw>  (410) 
-31.513347625732401

>  <r_i_glide_gscore>  (410) 
-6.0052709115047502

>  <r_i_glide_hbond>  (410) 
-0.377892250993625

>  <r_i_glide_ligand_efficiency>  (410) 
-0.187664715984523

>  <r_i_glide_ligand_efficiency_ln>  (410) 
-1.3447438545884101

>  <r_i_glide_ligand_efficiency_sa>  (410) 
-0.59579833445399799

>  <r_i_glide_lipo>  (410) 
-1.2412414886098799

>  <r_i_glide_metal>  (410) 
-0

>  <r_i_glide_rewards>  (410) 
-1.1807865061276499

>  <r_lp_Energy>  (410) 
43.310983

>  <r_lp_tautomer_probability>  (410) 
1

>  <r_qp_ACxDN^.5/SA>  (410) 
0.0110346

>  <r_qp_CIQPlogS>  (410) 
-6.1420000000000003

>  <r_qp_EA(eV)>  (410) 
1.0780000000000001

>  <r_qp_FISA>  (410) 
152.99199999999999

>  <r_qp_FOSA>  (410) 
63.091000000000001

>  <r_qp_IP(eV)>  (410) 
8.5999999999999996

>  <r_qp_Jm>  (410) 
1.10465219108175e-05

>  <r_qp_PISA>  (410) 
408.16000000000003

>  <r_qp_PSA>  (410) 
85.731999999999999

>  <r_qp_PercentHumanOralAbsorption>  (410) 
73.902000000000001

>  <r_qp_QPPCaco>  (410) 
21.821000000000002

>  <r_qp_QPPMDCK>  (410) 
26.818000000000001

>  <r_qp_QPlogBB>  (410) 
-0.44900000000000001

>  <r_qp_QPlogHERG>  (410) 
-7.6130000000000004

>  <r_qp_QPlogKhsa>  (410) 
0.76600000000000001

>  <r_qp_QPlogKp>  (410) 
-6.1619999999999999

>  <r_qp_QPlogPC16>  (410) 
14.984

>  <r_qp_QPlogPo/w>  (410) 
3.927

>  <r_qp_QPlogPoct>  (410) 
22.143999999999998

>  <r_qp_QPlogPw>  (410) 
11.622

>  <r_qp_QPlogS>  (410) 
-4.4420000000000002

>  <r_qp_QPpolrz>  (410) 
45.627000000000002

>  <r_qp_SASA>  (410) 
704.89099999999996

>  <r_qp_SAamideO>  (410) 
0

>  <r_qp_SAfluorine>  (410) 
47.018999999999998

>  <r_qp_WPSA>  (410) 
80.649000000000001

>  <r_qp_accptHB>  (410) 
5.5

>  <r_qp_dip^2/V>  (410) 
0.028420000000000001

>  <r_qp_dipole>  (410) 
6.173

>  <r_qp_donorHB>  (410) 
2

>  <r_qp_glob>  (410) 
0.83426359999999999

>  <r_qp_mol_MW>  (410) 
444.52499999999998

>  <r_qp_volume>  (410) 
1340.8810000000001

>  <r_sd_BIOSOLVEIT.INFINISEE\_FTREES\_SIMILARITY>  (410) 
0.90500000000000003

>  <r_sd_BIOSOLVEIT.LOGP>  (410) 
4.60588

>  <r_sd_BIOSOLVEIT.MOLECULAR\_WEIGHT>  (410) 
445.53899999999999

>  <r_sd_BIOSOLVEIT.TPSA>  (410) 
83.769999999999996

>  <i_epik_Tot_Q>  (410) 
1

>  <i_epik_Tot_abs_Q>  (410) 
1

>  <i_f3d_flags>  (410) 
0

>  <i_i_glide_confnum>  (410) 
2

>  <i_i_glide_lignum>  (410) 
1391

>  <i_i_glide_posenum>  (410) 
20

>  <i_i_glide_rotatable_bonds>  (410) 
8

>  <i_lp_mmshare_version>  (410) 
65135

>  <i_m_ct_format>  (410) 
2

>  <i_m_source_file_index>  (410) 
2866

>  <i_qp_#NandO>  (410) 
5

>  <i_qp_#acid>  (410) 
0

>  <i_qp_#amide>  (410) 
0

>  <i_qp_#amidine>  (410) 
0

>  <i_qp_#amine>  (410) 
2

>  <i_qp_#in34>  (410) 
0

>  <i_qp_#in56>  (410) 
21

>  <i_qp_#metab>  (410) 
6

>  <i_qp_#nonHatm>  (410) 
32

>  <i_qp_#noncon>  (410) 
0

>  <i_qp_#ringatoms>  (410) 
21

>  <i_qp_#rotor>  (410) 
9

>  <i_qp_#rtvFG>  (410) 
0

>  <i_qp_#stars>  (410) 
0

>  <i_qp_CNS>  (410) 
1

>  <i_qp_HumanOralAbsorption>  (410) 
2

>  <i_qp_RuleOfFive>  (410) 
0

>  <i_qp_RuleOfThree>  (410) 
1

>  <i_sd_BIOSOLVEIT.INFINISEE\_RESULT\_RANK>  (410) 
70843

>  <i_sd_version>  (410) 
0

>  <b_lp_Chiralities_Consistent>  (410) 
1

>  <b_sd_chiral_flag>  (410) 
0

>  <canonical_id>  (410) 
ATP-HTVS-41EB9DEAB7C9

>  <compound_code>  (410) 
91683

>  <title>  (410) 
rxn512c____EMOL530647____EMOL523944____EMOL906257

>  <variant>  (410) 
91683-2

>  <source_file>  (410) 
运行/运行/ATP-VSW/ATP-VSW-DOCK_HTVS_1-003_lib/ATP-VSW-DOCK_HTVS_1-003_lib.mae

>  <canonical_smiles>  (410) 
N#C[C@@H](Nc1c(C(=O)N(CC[NH3+])c2ccccc2)sc2ccccc12)c1ccc(F)cc1

>  <scaffold>  (410) 
O=C(Nc1ccccc1)c1sc2ccccc2c1NCc1ccccc1

>  <molecular_formula>  (410) 
C25H22FN4OS+

$$$$
ATP-HTVS-420A833C3906
     RDKit          3D

 45 48  0  0  0  0  0  0  0  0999 V2000
  198.9916  183.6010  158.1084 F   0  0  0  0  0  0  0  0  0  0  0  0
  197.6681  183.4374  158.3537 C   0  0  0  0  0  0  0  0  0  0  0  0
  197.0768  184.1067  159.4370 C   0  0  0  0  0  0  0  0  0  0  0  0
  197.8125  184.9922  160.1425 F   0  0  0  0  0  0  0  0  0  0  0  0
  195.7143  183.8740  159.7424 C   0  0  0  0  0  0  0  0  0  0  0  0
  194.9548  182.9567  158.9836 C   0  0  0  0  0  0  0  0  0  0  0  0
  195.5608  182.2783  157.8995 C   0  0  0  0  0  0  0  0  0  0  0  0
  196.9028  182.5486  157.5792 C   0  0  0  0  0  0  0  0  0  0  0  0
  197.5522  181.7733  156.4660 C   0  0  1  0  0  0  0  0  0  0  0  0
  198.2670  182.5511  155.4529 N   0  0  0  0  0  0  0  0  0  0  0  0
  198.8998  181.6772  154.4421 C   0  0  2  0  0  0  0  0  0  0  0  0
  197.9593  181.1741  153.3269 C   0  0  0  0  0  0  0  0  0  0  0  0
  197.3765  182.0969  152.4063 C   0  0  0  0  0  0  0  0  0  0  0  0
  197.6234  183.5065  152.4668 N   0  0  0  0  0  0  0  0  0  0  0  0
  197.6990  184.2569  153.5756 C   0  0  0  0  0  0  0  0  0  0  0  0
  197.9803  185.4550  153.5263 O   0  0  0  0  0  0  0  0  0  0  0  0
  197.3589  183.6086  154.9208 C   0  0  1  0  0  0  0  0  0  0  0  0
  196.5672  181.6251  151.3404 C   0  0  0  0  0  0  0  0  0  0  0  0
  196.3045  180.2438  151.2015 C   0  0  0  0  0  0  0  0  0  0  0  0
  196.8806  179.3382  152.1164 C   0  0  0  0  0  0  0  0  0  0  0  0
  197.7208  179.7841  153.1465 C   0  0  0  0  0  0  0  0  0  0  0  0
  199.7868  180.5538  155.0483 C   0  0  0  0  0  0  0  0  0  0  0  0
  199.1637  179.4893  155.7762 C   0  0  0  0  0  0  0  0  0  0  0  0
  199.9419  178.4705  156.3568 C   0  0  0  0  0  0  0  0  0  0  0  0
  201.3330  178.4425  156.1878 C   0  0  0  0  0  0  0  0  0  0  0  0
  201.9658  179.4588  155.4320 C   0  0  0  0  0  0  0  0  0  0  0  0
  201.1803  180.5143  154.8795 C   0  0  0  0  0  0  0  0  0  0  0  0
  195.2490  184.4211  160.5488 H   0  0  0  0  0  0  0  0  0  0  0  0
  193.9088  182.7717  159.1924 H   0  0  0  0  0  0  0  0  0  0  0  0
  194.9991  181.5579  157.3280 H   0  0  0  0  0  0  0  0  0  0  0  0
  198.2438  181.1333  156.9853 H   0  0  0  0  0  0  0  0  0  0  0  0
  196.8140  181.1107  156.0027 H   0  0  0  0  0  0  0  0  0  0  0  0
  199.6134  182.3363  153.9449 H   0  0  0  0  0  0  0  0  0  0  0  0
  197.6792  184.0079  151.5909 H   0  0  0  0  0  0  0  0  0  0  0  0
  196.3746  183.1709  154.7926 H   0  0  0  0  0  0  0  0  0  0  0  0
  197.2370  184.4074  155.6553 H   0  0  0  0  0  0  0  0  0  0  0  0
  196.1255  182.3218  150.6374 H   0  0  0  0  0  0  0  0  0  0  0  0
  195.6633  179.8660  150.4091 H   0  0  0  0  0  0  0  0  0  0  0  0
  196.6937  178.2812  152.0485 H   0  0  0  0  0  0  0  0  0  0  0  0
  198.1660  179.0200  153.7735 H   0  0  0  0  0  0  0  0  0  0  0  0
  198.0799  179.5059  155.9399 H   0  0  0  0  0  0  0  0  0  0  0  0
  199.4355  177.7055  156.9173 H   0  0  0  0  0  0  0  0  0  0  0  0
  201.9229  177.6312  156.6377 H   0  0  0  0  0  0  0  0  0  0  0  0
  203.0416  179.4279  155.2808 H   0  0  0  0  0  0  0  0  0  0  0  0
  201.6881  181.2873  154.2993 H   0  0  0  0  0  0  0  0  0  0  0  0
  1  2  1  0
  2  3  2  0
  2  8  1  0
  3  4  1  0
  3  5  1  0
  5  6  2  0
  5 28  1  0
  6  7  1  0
  6 29  1  0
  7  8  2  0
  7 30  1  0
  8  9  1  0
  9 10  1  0
  9 31  1  1
  9 32  1  0
 10 11  1  0
 10 17  1  0
 11 12  1  0
 11 22  1  0
 11 33  1  6
 12 13  1  0
 12 21  2  0
 13 14  1  0
 13 18  2  0
 14 15  1  0
 14 34  1  0
 15 16  2  0
 15 17  1  0
 17 35  1  6
 17 36  1  0
 18 19  1  0
 18 37  1  0
 19 20  2  0
 19 38  1  0
 20 21  1  0
 20 39  1  0
 21 40  1  0
 22 23  2  0
 22 27  1  0
 23 24  1  0
 23 41  1  0
 24 25  2  0
 24 42  1  0
 25 26  1  0
 25 43  1  0
 26 27  2  0
 26 44  1  0
 27 45  1  0
M  END
>  <s_epik_cmdline>  (411) 
J2VwaWtfcHl0aG9uJywgJy1waCcsICc3LjAwMDAwMCcsICctcGh0JywgJzIuMDAwMDAwJywgJy1tcycsICcxNicsICctdG4nLCAnOCcsICctbWEnLCAnMjAwJywgJy1pbWFlJywgJzxpbmZpbGUubWFlPicsICctb21hZScsICc8b3V0ZmlsZS5tYWU+Jw==

>  <s_epik_input>  (411) 
RmMxYyhGKVtjSF1bY0hdW2NIXWMxW0NIMl1OKFtDQEhdMmMzW2NIXVtjSF1bY0hdW2NIXVtjSF0zKVtDSDJdQyg9TylbTkhdYyhjMjQpW2NIXVtjSF1bY0hdW2NIXTQ=

>  <s_i_glide_gridfile>  (411) 
ATP-Grid

>  <s_lp_Force_Field>  (411) 
OPLS_2005

>  <s_lp_Variant>  (411) 
m_270004bda____24170338____7548896-2

>  <s_lp_label>  (411) 
925_sdstereoexpander_3_neutralizer_1_epik_1_stereoizer_1

>  <s_m_source_file>  (411) 
ATP-VSW-LIGPREP-002-in.maegz

>  <s_sd_BIOSOLVEIT.INFINISEE\_QUERY\_NAME>  (411) 
Ref-Lig

>  <s_sd_BIOSOLVEIT.INFINISEE\_QUERY\_SMILES>  (411) 
S(c1nc2c(cc1C[NH2+]Cc3ccc(cc3)C[NH+](C)C)cccc2)Cc4ccccc4

>  <s_sd_BIOSOLVEIT.INFINISEE\_REACTION\_NAME>  (411) 
m_270004bda

>  <s_sd_BIOSOLVEIT.INFINISEE\_REAGENT1\_SMILES>  (411) 
[R1*]N1C(c2c(NC(=O)C1)cccc2)c3ccccc3

>  <s_sd_BIOSOLVEIT.INFINISEE\_REAGENT2\_SMILES>  (411) 
[R1*]Cc1c(F)c(F)ccc1

>  <s_sd_BIOSOLVEIT.INFINISEE\_SPACE>  (411) 
REALSpace_44bn_2023-08

>  <s_vsw_compound_code>  (411) 
29570

>  <s_vsw_variant>  (411) 
29570-2

>  <r_epik_Charging_Adjusted_Penalty>  (411) 
0.0087634984339075902

>  <r_epik_Ionization_Penalty>  (411) 
0.0088000000000000005

>  <r_epik_Ionization_Penalty_Charging>  (411) 
0

>  <r_epik_Ionization_Penalty_Neutral>  (411) 
0.0088000000000000005

>  <r_epik_State_Penalty>  (411) 
0.0088000000000000005

>  <r_i_docking_score>  (411) 
-1.52740875756109

>  <r_i_glide_ecoul>  (411) 
-1.7898508310318

>  <r_i_glide_eff_state_penalty>  (411) 
0.0088000000000000005

>  <r_i_glide_einternal>  (411) 
0.162472069263458

>  <r_i_glide_emodel>  (411) 
-36.250619773048498

>  <r_i_glide_energy>  (411) 
-33.046623826026902

>  <r_i_glide_erotb>  (411) 
0.43435261575564199

>  <r_i_glide_esite>  (411) 
-0.029120765140863099

>  <r_i_glide_evdw>  (411) 
-31.256772994995099

>  <r_i_glide_gscore>  (411) 
-1.5362087575610901

>  <r_i_glide_hbond>  (411) 
0

>  <r_i_glide_ligand_efficiency>  (411) 
-0.056570694724484699

>  <r_i_glide_ligand_efficiency_ln>  (411) 
-0.35555557745882699

>  <r_i_glide_ligand_efficiency_sa>  (411) 
-0.16971208398700599

>  <r_i_glide_lipo>  (411) 
-0.93379297353227098

>  <r_i_glide_metal>  (411) 
-0

>  <r_i_glide_rewards>  (411) 
0.82366863976093097

>  <r_lp_Energy>  (411) 
52.746763999999999

>  <r_qp_ACxDN^.5/SA>  (411) 
0.0073886000000000004

>  <r_qp_CIQPlogS>  (411) 
-4.7220000000000004

>  <r_qp_EA(eV)>  (411) 
0.57299999999999995

>  <r_qp_FISA>  (411) 
61.603999999999999

>  <r_qp_FOSA>  (411) 
38.808

>  <r_qp_IP(eV)>  (411) 
9.5310000000000006

>  <r_qp_Jm>  (411) 
0.0106927674945683

>  <r_qp_PISA>  (411) 
431.93900000000002

>  <r_qp_PSA>  (411) 
40.747999999999998

>  <r_qp_PercentHumanOralAbsorption>  (411) 
100

>  <r_qp_QPPCaco>  (411) 
643.59000000000003

>  <r_qp_QPPMDCK>  (411) 
894.33500000000004

>  <r_qp_QPlogBB>  (411) 
0.45400000000000001

>  <r_qp_QPlogHERG>  (411) 
-6.8289999999999997

>  <r_qp_QPlogKhsa>  (411) 
0.65100000000000002

>  <r_qp_QPlogKp>  (411) 
-3.004

>  <r_qp_QPlogPC16>  (411) 
11.629

>  <r_qp_QPlogPo/w>  (411) 
4.1369999999999996

>  <r_qp_QPlogPoct>  (411) 
18.321999999999999

>  <r_qp_QPlogPw>  (411) 
10.025

>  <r_qp_QPlogS>  (411) 
-4.5289999999999999

>  <r_qp_QPpolrz>  (411) 
40.607999999999997

>  <r_qp_SASA>  (411) 
609.04700000000003

>  <r_qp_SAamideO>  (411) 
0

>  <r_qp_SAfluorine>  (411) 
76.695999999999998

>  <r_qp_WPSA>  (411) 
76.695999999999998

>  <r_qp_accptHB>  (411) 
4.5

>  <r_qp_dip^2/V>  (411) 
0.041512899999999998

>  <r_qp_dipole>  (411) 
6.75

>  <r_qp_donorHB>  (411) 
1

>  <r_qp_glob>  (411) 
0.84485180000000004

>  <r_qp_mol_MW>  (411) 
364.39400000000001

>  <r_qp_volume>  (411) 
1097.4880000000001

>  <r_sd_BIOSOLVEIT.INFINISEE\_FTREES\_SIMILARITY>  (411) 
0.91800000000000004

>  <r_sd_BIOSOLVEIT.LOGP>  (411) 
3.0914000000000001

>  <r_sd_BIOSOLVEIT.MOLECULAR\_WEIGHT>  (411) 
365.40100000000001

>  <r_sd_BIOSOLVEIT.TPSA>  (411) 
33.539999999999999

>  <i_epik_Tot_Q>  (411) 
0

>  <i_epik_Tot_abs_Q>  (411) 
0

>  <i_f3d_flags>  (411) 
0

>  <i_i_glide_confnum>  (411) 
6

>  <i_i_glide_lignum>  (411) 
291

>  <i_i_glide_posenum>  (411) 
17

>  <i_i_glide_rotatable_bonds>  (411) 
3

>  <i_lp_mmshare_version>  (411) 
65135

>  <i_m_ct_format>  (411) 
2

>  <i_m_source_file_index>  (411) 
925

>  <i_qp_#NandO>  (411) 
3

>  <i_qp_#acid>  (411) 
0

>  <i_qp_#amide>  (411) 
0

>  <i_qp_#amidine>  (411) 
0

>  <i_qp_#amine>  (411) 
1

>  <i_qp_#in34>  (411) 
0

>  <i_qp_#in56>  (411) 
18

>  <i_qp_#metab>  (411) 
7

>  <i_qp_#nonHatm>  (411) 
27

>  <i_qp_#noncon>  (411) 
2

>  <i_qp_#ringatoms>  (411) 
23

>  <i_qp_#rotor>  (411) 
2

>  <i_qp_#rtvFG>  (411) 
0

>  <i_qp_#stars>  (411) 
0

>  <i_qp_CNS>  (411) 
2

>  <i_qp_HumanOralAbsorption>  (411) 
3

>  <i_qp_RuleOfFive>  (411) 
0

>  <i_qp_RuleOfThree>  (411) 
1

>  <i_sd_BIOSOLVEIT.INFINISEE\_REAGENT1\_NAME>  (411) 
24170338

>  <i_sd_BIOSOLVEIT.INFINISEE\_REAGENT2\_NAME>  (411) 
7548896

>  <i_sd_BIOSOLVEIT.INFINISEE\_RESULT\_RANK>  (411) 
20418

>  <i_sd_version>  (411) 
0

>  <b_lp_Chiralities_Consistent>  (411) 
1

>  <b_sd_chiral_flag>  (411) 
0

>  <canonical_id>  (411) 
ATP-HTVS-420A833C3906

>  <compound_code>  (411) 
29570

>  <title>  (411) 
m_270004bda____24170338____7548896

>  <variant>  (411) 
29570-2

>  <source_file>  (411) 
运行/运行/ATP-VSW/ATP-VSW-DOCK_HTVS_1-002_lib.maegz

>  <canonical_smiles>  (411) 
O=C1CN(Cc2cccc(F)c2F)[C@@H](c2ccccc2)c2ccccc2N1

>  <scaffold>  (411) 
O=C1CN(Cc2ccccc2)C(c2ccccc2)c2ccccc2N1

>  <molecular_formula>  (411) 
C22H18F2N2O

$$$$
ATP-HTVS-425F81D77C05
     RDKit          3D

 64 67  0  0  0  0  0  0  0  0999 V2000
  197.6469  188.5933  156.7298 F   0  0  0  0  0  0  0  0  0  0  0  0
  197.5975  187.2427  156.8089 C   0  0  0  0  0  0  0  0  0  0  0  0
  196.8611  186.6242  157.8401 C   0  0  0  0  0  0  0  0  0  0  0  0
  196.9047  185.2245  158.0267 C   0  0  0  0  0  0  0  0  0  0  0  0
  197.5356  184.3863  157.0521 C   0  0  0  0  0  0  0  0  0  0  0  0
  197.4445  182.9685  157.1009 N   0  0  0  0  0  0  0  0  0  0  0  0
  197.8768  182.0840  156.0753 C   0  0  0  0  0  0  0  0  0  0  0  0
  199.1724  181.4839  156.0612 C   0  0  0  0  0  0  0  0  0  0  0  0
  199.5859  180.6760  155.0491 N   0  0  0  0  0  0  0  0  0  0  0  0
  198.7668  180.3996  154.0161 C   0  0  0  0  0  0  0  0  0  0  0  0
  197.4665  180.9551  153.9390 C   0  0  0  0  0  0  0  0  0  0  0  0
  197.0220  181.8004  154.9845 C   0  0  0  0  0  0  0  0  0  0  0  0
  196.6413  180.6726  152.8298 C   0  0  0  0  0  0  0  0  0  0  0  0
  197.0847  179.8154  151.8052 C   0  0  0  0  0  0  0  0  0  0  0  0
  198.3715  179.2531  151.8755 C   0  0  0  0  0  0  0  0  0  0  0  0
  199.2024  179.5502  152.9739 C   0  0  0  0  0  0  0  0  0  0  0  0
  200.0059  181.7839  157.1654 N   0  0  0  0  0  0  0  0  0  0  0  0
  201.3124  181.5137  157.3627 C   0  0  0  0  0  0  0  0  0  0  0  0
  202.0555  180.9693  156.5469 O   0  0  0  0  0  0  0  0  0  0  0  0
  201.8404  181.9046  158.7169 C   0  0  0  0  0  0  0  0  0  0  0  0
  202.9767  181.2529  159.2509 C   0  0  0  0  0  0  0  0  0  0  0  0
  203.4780  181.6093  160.5191 C   0  0  0  0  0  0  0  0  0  0  0  0
  202.8484  182.6249  161.2701 C   0  0  0  0  0  0  0  0  0  0  0  0
  201.7148  183.2757  160.7407 C   0  0  0  0  0  0  0  0  0  0  0  0
  201.2256  182.9346  159.4685 C   0  0  0  0  0  0  0  0  0  0  0  0
  203.3780  183.0099  162.6410 C   0  0  1  0  0  0  0  0  0  0  0  0
  203.5536  184.4723  162.7957 N   0  0  2  0  0  0  0  0  0  0  0  0
  204.5816  185.0426  161.8929 C   0  0  2  0  0  0  0  0  0  0  0  0
  203.7623  184.8657  164.2067 C   0  0  2  0  0  0  0  0  0  0  0  0
  196.7604  182.3095  158.2365 C   0  0  1  0  0  0  0  0  0  0  0  0
  195.2322  182.5389  158.3578 C   0  0  0  0  0  0  0  0  0  0  0  0
  194.7336  183.6311  158.6462 O   0  0  0  0  0  0  0  0  0  0  0  0
  194.4684  181.4464  158.1982 N   0  0  0  0  0  0  0  0  0  0  0  0
  193.1184  181.4881  158.1408 N   0  0  0  0  0  0  0  0  0  0  0  0
  198.2792  185.0094  156.0065 C   0  0  0  0  0  0  0  0  0  0  0  0
  198.3312  186.4254  155.9197 C   0  0  0  0  0  0  0  0  0  0  0  0
  196.2814  187.2048  158.5374 H   0  0  0  0  0  0  0  0  0  0  0  0
  196.4176  184.8628  158.9057 H   0  0  0  0  0  0  0  0  0  0  0  0
  196.0380  182.2476  154.9417 H   0  0  0  0  0  0  0  0  0  0  0  0
  195.6627  181.1146  152.7528 H   0  0  0  0  0  0  0  0  0  0  0  0
  196.4407  179.5950  150.9651 H   0  0  0  0  0  0  0  0  0  0  0  0
  198.7213  178.6019  151.0862 H   0  0  0  0  0  0  0  0  0  0  0  0
  200.1925  179.1206  153.0219 H   0  0  0  0  0  0  0  0  0  0  0  0
  199.5196  182.2677  157.9048 H   0  0  0  0  0  0  0  0  0  0  0  0
  203.4663  180.4656  158.6926 H   0  0  0  0  0  0  0  0  0  0  0  0
  204.3399  181.0880  160.9112 H   0  0  0  0  0  0  0  0  0  0  0  0
  201.2106  184.0463  161.3037 H   0  0  0  0  0  0  0  0  0  0  0  0
  200.3647  183.4699  159.0954 H   0  0  0  0  0  0  0  0  0  0  0  0
  202.6675  182.6465  163.3850 H   0  0  0  0  0  0  0  0  0  0  0  0
  204.3239  182.5059  162.8384 H   0  0  0  0  0  0  0  0  0  0  0  0
  205.5652  184.6175  162.1030 H   0  0  0  0  0  0  0  0  0  0  0  0
  204.6411  186.1255  162.0167 H   0  0  0  0  0  0  0  0  0  0  0  0
  204.3427  184.8478  160.8458 H   0  0  0  0  0  0  0  0  0  0  0  0
  204.6930  184.4479  164.5928 H   0  0  0  0  0  0  0  0  0  0  0  0
  202.9400  184.5125  164.8315 H   0  0  0  0  0  0  0  0  0  0  0  0
  203.8046  185.9515  164.3004 H   0  0  0  0  0  0  0  0  0  0  0  0
  197.0033  181.2411  158.1926 H   0  0  0  0  0  0  0  0  0  0  0  0
  197.2569  182.6259  159.1531 H   0  0  0  0  0  0  0  0  0  0  0  0
  194.8717  180.5073  158.1304 H   0  0  0  0  0  0  0  0  0  0  0  0
  192.7880  181.9227  158.9885 H   0  0  0  0  0  0  0  0  0  0  0  0
  192.9186  182.1416  157.3813 H   0  0  0  0  0  0  0  0  0  0  0  0
  198.8586  184.4202  155.2992 H   0  0  0  0  0  0  0  0  0  0  0  0
  198.9496  186.9016  155.1585 H   0  0  0  0  0  0  0  0  0  0  0  0
  202.6658  184.8722  162.5287 H   0  0  0  0  0  0  0  0  0  0  0  0
  1  2  1  0
  2  3  1  0
  2 36  2  0
  3  4  2  0
  3 37  1  0
  4  5  1  0
  4 38  1  0
  5  6  1  0
  5 35  2  0
  6  7  1  0
  6 30  1  0
  7  8  1  0
  7 12  2  0
  8  9  2  0
  8 17  1  0
  9 10  1  0
 10 11  1  0
 10 16  2  0
 11 12  1  0
 11 13  2  0
 12 39  1  0
 13 14  1  0
 13 40  1  0
 14 15  2  0
 14 41  1  0
 15 16  1  0
 15 42  1  0
 16 43  1  0
 17 18  1  0
 17 44  1  0
 18 19  2  0
 18 20  1  0
 20 21  1  0
 20 25  2  0
 21 22  2  0
 21 45  1  0
 22 23  1  0
 22 46  1  0
 23 24  2  0
 23 26  1  0
 24 25  1  0
 24 47  1  0
 25 48  1  0
 26 27  1  0
 26 49  1  1
 26 50  1  0
 27 28  1  0
 27 29  1  0
 27 64  1  6
 28 51  1  1
 28 52  1  0
 28 53  1  0
 29 54  1  1
 29 55  1  0
 29 56  1  0
 30 31  1  0
 30 57  1  6
 30 58  1  0
 31 32  2  0
 31 33  1  0
 33 34  1  0
 33 59  1  0
 34 60  1  0
 34 61  1  0
 35 36  1  0
 35 62  1  0
 36 63  1  0
M  CHG  1  27   1
M  END
>  <s_epik_cmdline>  (412) 
J2VwaWtfcHl0aG9uJywgJy1waCcsICc3LjAwMDAwMCcsICctcGh0JywgJzIuMDAwMDAwJywgJy1tcycsICcxNicsICctdG4nLCAnOCcsICctbWEnLCAnMjAwJywgJy1pbWFlJywgJzxpbmZpbGUubWFlPicsICctb21hZScsICc8b3V0ZmlsZS5tYWU+Jw==

>  <s_epik_input>  (412) 
RmMxW2NIXVtjSF1jKFtjSF1bY0hdMSlOKFtDSDJdQyg9TylbTkhdW05IMl0pYyhbY0hdYyhjMjMpW2NIXVtjSF1bY0hdW2NIXTMpYyhuMilbTkhdQyg9TyljNFtjSF1bY0hdYyhbY0hdW2NIXTQpW0NIMl1OKFtDSDNdKVtDSDNd

>  <s_i_glide_gridfile>  (412) 
ATP-Grid

>  <s_lp_Force_Field>  (412) 
OPLS_2005

>  <s_lp_Variant>  (412) 
rxn502b____EMOL18624763____EMOL44466703____EMOL2859841-1

>  <s_lp_label>  (412) 
2677_sdstereoexpander_1_neutralizer_1_epik_1_stereoizer_1

>  <s_m_source_file>  (412) 
ATP-VSW-LIGPREP-002-in.maegz

>  <s_sd_BIOSOLVEIT.INFINISEE\_QUERY\_NAME>  (412) 
Ref-Lig

>  <s_sd_BIOSOLVEIT.INFINISEE\_QUERY\_SMILES>  (412) 
S(c1nc2c(cc1C[NH2+]Cc3ccc(cc3)C[NH+](C)C)cccc2)Cc4ccccc4

>  <s_sd_BIOSOLVEIT.INFINISEE\_REACTION\_NAME>  (412) 
rxn502b

>  <s_sd_BIOSOLVEIT.INFINISEE\_REAGENT1\_NAME>  (412) 
EMOL18624763

>  <s_sd_BIOSOLVEIT.INFINISEE\_REAGENT1\_SMILES>  (412) 
O=C(O)c1ccc(cc1)CN(C)C

>  <s_sd_BIOSOLVEIT.INFINISEE\_REAGENT2\_NAME>  (412) 
EMOL44466703

>  <s_sd_BIOSOLVEIT.INFINISEE\_REAGENT2\_SMILES>  (412) 
Brc1c(nc2c(c1)cccc2)N

>  <s_sd_BIOSOLVEIT.INFINISEE\_REAGENT3\_NAME>  (412) 
EMOL2859841

>  <s_sd_BIOSOLVEIT.INFINISEE\_REAGENT3\_SMILES>  (412) 
Fc1ccc(NCC(=O)NN)cc1

>  <s_sd_BIOSOLVEIT.INFINISEE\_SPACE>  (412) 
eXplore_7tr_2022-12

>  <s_vsw_compound_code>  (412) 
85634

>  <s_vsw_variant>  (412) 
85634-1

>  <r_epik_Charging_Adjusted_Penalty>  (412) 
0.10433640840748

>  <r_epik_Ionization_Penalty>  (412) 
0.052200000000000003

>  <r_epik_Ionization_Penalty_Charging>  (412) 
0.052200000000000003

>  <r_epik_Ionization_Penalty_Neutral>  (412) 
0.0001

>  <r_epik_State_Penalty>  (412) 
0.052200000000000003

>  <r_i_docking_score>  (412) 
-4.6034082790524904

>  <r_i_glide_ecoul>  (412) 
-9.7850198745727504

>  <r_i_glide_eff_state_penalty>  (412) 
0.052200000000000003

>  <r_i_glide_einternal>  (412) 
5.0590696334838903

>  <r_i_glide_emodel>  (412) 
-61.714788821214398

>  <r_i_glide_energy>  (412) 
-46.948452949523897

>  <r_i_glide_erotb>  (412) 
0.68421773096689498

>  <r_i_glide_esite>  (412) 
-0.21818454747470301

>  <r_i_glide_evdw>  (412) 
-37.1634330749512

>  <r_i_glide_gscore>  (412) 
-4.6556082790524904

>  <r_i_glide_hbond>  (412) 
-0.28880055749139599

>  <r_i_glide_ligand_efficiency>  (412) 
-0.12787245219590301

>  <r_i_glide_ligand_efficiency_ln>  (412) 
-1.0043393167702499

>  <r_i_glide_ligand_efficiency_sa>  (412) 
-0.42222553378427502

>  <r_i_glide_lipo>  (412) 
-1.33069805586291

>  <r_i_glide_metal>  (412) 
-0

>  <r_i_glide_rewards>  (412) 
-0.17621821425690001

>  <r_lp_Energy>  (412) 
32.625332

>  <r_qp_ACxDN^.5/SA>  (412) 
0.022490900000000001

>  <r_qp_CIQPlogS>  (412) 
-5.585

>  <r_qp_EA(eV)>  (412) 
1.0209999999999999

>  <r_qp_FISA>  (412) 
157.298

>  <r_qp_FOSA>  (412) 
207.88300000000001

>  <r_qp_IP(eV)>  (412) 
8.4429999999999996

>  <r_qp_Jm>  (412) 
0.00041270649796703202

>  <r_qp_PISA>  (412) 
389.55500000000001

>  <r_qp_PSA>  (412) 
119.009

>  <r_qp_PercentHumanOralAbsorption>  (412) 
80.891000000000005

>  <r_qp_QPPCaco>  (412) 
79.643000000000001

>  <r_qp_QPPMDCK>  (412) 
63.130000000000003

>  <r_qp_QPlogBB>  (412) 
-1.1659999999999999

>  <r_qp_QPlogHERG>  (412) 
-7.5800000000000001

>  <r_qp_QPlogKhsa>  (412) 
0.371

>  <r_qp_QPlogKp>  (412) 
-4.2450000000000001

>  <r_qp_QPlogPC16>  (412) 
16.564

>  <r_qp_QPlogPo/w>  (412) 
3.4020000000000001

>  <r_qp_QPlogPoct>  (412) 
28.925999999999998

>  <r_qp_QPlogPw>  (412) 
18.119

>  <r_qp_QPlogS>  (412) 
-4.827

>  <r_qp_QPpolrz>  (412) 
51.149999999999999

>  <r_qp_SASA>  (412) 
800.32500000000005

>  <r_qp_SAamideO>  (412) 
0

>  <r_qp_SAfluorine>  (412) 
45.588999999999999

>  <r_qp_WPSA>  (412) 
45.588999999999999

>  <r_qp_accptHB>  (412) 
9

>  <r_qp_dip^2/V>  (412) 
0.057674900000000001

>  <r_qp_dipole>  (412) 
9.2490000000000006

>  <r_qp_donorHB>  (412) 
4

>  <r_qp_glob>  (412) 
0.78594079999999999

>  <r_qp_mol_MW>  (412) 
486.548

>  <r_qp_volume>  (412) 
1483.326

>  <r_sd_BIOSOLVEIT.INFINISEE\_FTREES\_SIMILARITY>  (412) 
0.90900000000000003

>  <r_sd_BIOSOLVEIT.LOGP>  (412) 
2.3986999999999998

>  <r_sd_BIOSOLVEIT.MOLECULAR\_WEIGHT>  (412) 
487.55599999999998

>  <r_sd_BIOSOLVEIT.TPSA>  (412) 
104.79000000000001

>  <i_epik_Tot_Q>  (412) 
1

>  <i_epik_Tot_abs_Q>  (412) 
1

>  <i_f3d_flags>  (412) 
0

>  <i_i_glide_confnum>  (412) 
10

>  <i_i_glide_lignum>  (412) 
1300

>  <i_i_glide_posenum>  (412) 
18

>  <i_i_glide_rotatable_bonds>  (412) 
10

>  <i_lp_mmshare_version>  (412) 
65135

>  <i_m_ct_format>  (412) 
2

>  <i_m_source_file_index>  (412) 
2677

>  <i_qp_#NandO>  (412) 
8

>  <i_qp_#acid>  (412) 
0

>  <i_qp_#amide>  (412) 
0

>  <i_qp_#amidine>  (412) 
0

>  <i_qp_#amine>  (412) 
1

>  <i_qp_#in34>  (412) 
0

>  <i_qp_#in56>  (412) 
22

>  <i_qp_#metab>  (412) 
4

>  <i_qp_#nonHatm>  (412) 
36

>  <i_qp_#noncon>  (412) 
0

>  <i_qp_#ringatoms>  (412) 
22

>  <i_qp_#rotor>  (412) 
9

>  <i_qp_#rtvFG>  (412) 
1

>  <i_qp_#stars>  (412) 
0

>  <i_qp_CNS>  (412) 
-2

>  <i_qp_HumanOralAbsorption>  (412) 
3

>  <i_qp_RuleOfFive>  (412) 
0

>  <i_qp_RuleOfThree>  (412) 
0

>  <i_sd_BIOSOLVEIT.INFINISEE\_RESULT\_RANK>  (412) 
49790

>  <i_sd_version>  (412) 
0

>  <b_lp_Chiralities_Consistent>  (412) 
1

>  <b_sd_chiral_flag>  (412) 
0

>  <canonical_id>  (412) 
ATP-HTVS-425F81D77C05

>  <compound_code>  (412) 
85634

>  <title>  (412) 
rxn502b____EMOL18624763____EMOL44466703____EMOL2859841

>  <variant>  (412) 
85634-1

>  <source_file>  (412) 
运行/运行/ATP-VSW/ATP-VSW-DOCK_HTVS_1-002_lib.maegz

>  <canonical_smiles>  (412) 
C[NH+](C)Cc1ccc(C(=O)Nc2nc3ccccc3cc2N(CC(=O)NN)c2ccc(F)cc2)cc1

>  <scaffold>  (412) 
O=C(Nc1nc2ccccc2cc1Nc1ccccc1)c1ccccc1

>  <molecular_formula>  (412) 
C27H28FN6O2+

$$$$
ATP-HTVS-429B4D57A2D0
     RDKit          3D

 54 56  0  0  0  0  0  0  0  0999 V2000
  198.1454  179.7679  154.7928 O   0  0  0  0  0  0  0  0  0  0  0  0
  197.2868  180.6635  154.8446 C   0  0  0  0  0  0  0  0  0  0  0  0
  197.1271  181.4880  155.8724 N   0  0  0  0  0  0  0  0  0  0  0  0
  197.8435  181.3888  157.1303 C   0  0  1  0  0  0  0  0  0  0  0  0
  197.6884  182.6471  157.9553 C   0  0  0  0  0  0  0  0  0  0  0  0
  196.4423  183.1410  158.4302 C   0  0  0  0  0  0  0  0  0  0  0  0
  196.4296  184.3584  159.1570 C   0  0  0  0  0  0  0  0  0  0  0  0
  197.5592  185.0553  159.4229 N   0  0  0  0  0  0  0  0  0  0  0  0
  198.7482  184.5738  158.9840 C   0  0  0  0  0  0  0  0  0  0  0  0
  199.8426  185.3477  159.3181 O   0  0  0  0  0  0  0  0  0  0  0  0
  201.1203  184.8508  158.9476 C   0  0  2  0  0  0  0  0  0  0  0  0
  198.8427  183.3791  158.2513 C   0  0  0  0  0  0  0  0  0  0  0  0
  195.1818  184.8547  159.6112 C   0  0  0  0  0  0  0  0  0  0  0  0
  193.9862  184.1653  159.3338 C   0  0  0  0  0  0  0  0  0  0  0  0
  194.0155  182.9570  158.6226 C   0  0  0  0  0  0  0  0  0  0  0  0
  195.2420  182.4360  158.1863 C   0  0  0  0  0  0  0  0  0  0  0  0
  196.3926  180.8887  153.8878 N   0  0  0  0  0  0  0  0  0  0  0  0
  196.3230  180.1386  152.6391 C   0  0  1  0  0  0  0  0  0  0  0  0
  196.8851  180.9168  151.4788 C   0  0  0  0  0  0  0  0  0  0  0  0
  196.5699  182.2899  151.2971 C   0  0  0  0  0  0  0  0  0  0  0  0
  197.1811  183.0110  150.2424 C   0  0  0  0  0  0  0  0  0  0  0  0
  196.7899  184.3593  150.0533 N   0  0  0  0  0  0  0  0  0  0  0  0
  197.3370  185.2418  149.0105 C   0  0  2  0  0  0  0  0  0  0  0  0
  197.2316  184.6579  147.5532 C   0  0  2  0  0  0  0  0  0  0  0  0
  198.7653  185.6929  149.3881 C   0  0  2  0  0  0  0  0  0  0  0  0
  198.1435  182.3702  149.3940 C   0  0  0  0  0  0  0  0  0  0  0  0
  198.3535  180.9856  149.5446 C   0  0  0  0  0  0  0  0  0  0  0  0
  197.7527  180.2384  150.5810 C   0  0  0  0  0  0  0  0  0  0  0  0
  196.3855  182.1793  155.8437 H   0  0  0  0  0  0  0  0  0  0  0  0
  197.5112  180.5291  157.7172 H   0  0  0  0  0  0  0  0  0  0  0  0
  198.8994  181.2245  156.9137 H   0  0  0  0  0  0  0  0  0  0  0  0
  201.9225  185.5345  159.2400 H   0  0  0  0  0  0  0  0  0  0  0  0
  201.2075  184.7112  157.8718 H   0  0  0  0  0  0  0  0  0  0  0  0
  201.3127  183.8969  159.4342 H   0  0  0  0  0  0  0  0  0  0  0  0
  199.7792  182.9679  157.8953 H   0  0  0  0  0  0  0  0  0  0  0  0
  195.1353  185.7883  160.1481 H   0  0  0  0  0  0  0  0  0  0  0  0
  193.0374  184.5601  159.6634 H   0  0  0  0  0  0  0  0  0  0  0  0
  193.1102  182.4213  158.3871 H   0  0  0  0  0  0  0  0  0  0  0  0
  195.2287  181.4984  157.6531 H   0  0  0  0  0  0  0  0  0  0  0  0
  195.6948  181.6108  154.0271 H   0  0  0  0  0  0  0  0  0  0  0  0
  196.8473  179.1794  152.7127 H   0  0  0  0  0  0  0  0  0  0  0  0
  195.2927  179.8867  152.3903 H   0  0  0  0  0  0  0  0  0  0  0  0
  195.8897  182.7848  151.9775 H   0  0  0  0  0  0  0  0  0  0  0  0
  196.2750  184.7987  150.7936 H   0  0  0  0  0  0  0  0  0  0  0  0
  196.7368  186.1320  149.0646 H   0  0  0  0  0  0  0  0  0  0  0  0
  197.5241  185.4547  146.8388 H   0  0  0  0  0  0  0  0  0  0  0  0
  196.1715  184.4182  147.3623 H   0  0  0  0  0  0  0  0  0  0  0  0
  197.8148  183.8029  147.3514 H   0  0  0  0  0  0  0  0  0  0  0  0
  199.1675  186.3878  148.6529 H   0  0  0  0  0  0  0  0  0  0  0  0
  199.4566  184.8552  149.4604 H   0  0  0  0  0  0  0  0  0  0  0  0
  198.7898  186.2091  150.3589 H   0  0  0  0  0  0  0  0  0  0  0  0
  198.7109  182.8842  148.6690 H   0  0  0  0  0  0  0  0  0  0  0  0
  199.0223  180.4904  148.8545 H   0  0  0  0  0  0  0  0  0  0  0  0
  198.0036  179.2034  150.7152 H   0  0  0  0  0  0  0  0  0  0  0  0
  1  2  2  0
  2  3  1  0
  2 17  1  0
  3  4  1  0
  3 29  1  0
  4  5  1  0
  4 30  1  1
  4 31  1  0
  5  6  1  0
  5 12  2  0
  6  7  1  0
  6 16  2  0
  7  8  1  0
  7 13  2  0
  8  9  2  0
  9 10  1  0
  9 12  1  0
 10 11  1  0
 11 32  1  1
 11 33  1  0
 11 34  1  0
 12 35  1  0
 13 14  1  0
 13 36  1  0
 14 15  2  0
 14 37  1  0
 15 16  1  0
 15 38  1  0
 16 39  1  0
 17 18  1  0
 17 40  1  0
 18 19  1  0
 18 41  1  1
 18 42  1  0
 19 20  1  0
 19 28  2  0
 20 21  2  0
 20 43  1  0
 21 22  1  0
 21 26  1  0
 22 23  1  0
 22 44  1  0
 23 24  1  0
 23 25  1  0
 23 45  1  6
 24 46  1  6
 24 47  1  0
 24 48  1  0
 25 49  1  6
 25 50  1  0
 25 51  1  0
 26 27  2  0
 26 52  1  0
 27 28  1  0
 27 53  1  0
 28 54  1  0
M  END
>  <s_epik_cmdline>  (413) 
J2VwaWtfcHl0aG9uJywgJy1waCcsICc3LjAwMDAwMCcsICctcGh0JywgJzIuMDAwMDAwJywgJy1tcycsICcxNicsICctdG4nLCAnOCcsICctbWEnLCAnMjAwJywgJy1pbWFlJywgJzxpbmZpbGUubWFlPicsICctb21hZScsICc8b3V0ZmlsZS5tYWU+Jw==

>  <s_epik_input>  (413) 
W0NIM11bQ0hdKFtDSDNdKVtOSF1jKFtjSF1bY0hdW2NIXTEpW2NIXWMxW0NIMl1bTkhdQyg9TylbTkhdW0NIMl1jMltjSF1jKE9bQ0gzXSluYyhjMjMpW2NIXVtjSF1bY0hdW2NIXTM=

>  <s_i_glide_gridfile>  (413) 
ATP-Grid

>  <s_lp_Force_Field>  (413) 
OPLS_2005

>  <s_lp_Variant>  (413) 
m_2708bba____6009228____6950696-1

>  <s_lp_label>  (413) 
1764_sdstereoexpander_1_neutralizer_1_epik_1_stereoizer_1

>  <s_m_source_file>  (413) 
ATP-VSW-LIGPREP-001-in.maegz

>  <s_sd_BIOSOLVEIT.INFINISEE\_QUERY\_NAME>  (413) 
Ref-Lig

>  <s_sd_BIOSOLVEIT.INFINISEE\_QUERY\_SMILES>  (413) 
S(c1nc2c(cc1C[NH2+]Cc3ccc(cc3)C[NH+](C)C)cccc2)Cc4ccccc4

>  <s_sd_BIOSOLVEIT.INFINISEE\_REACTION\_NAME>  (413) 
m_2708bba

>  <s_sd_BIOSOLVEIT.INFINISEE\_REAGENT1\_SMILES>  (413) 
[R1*]C(=O)NCc1c2c(nc(OC)c1)cccc2

>  <s_sd_BIOSOLVEIT.INFINISEE\_REAGENT2\_SMILES>  (413) 
[R1*]NCc1cc(NC(C)C)ccc1

>  <s_sd_BIOSOLVEIT.INFINISEE\_SPACE>  (413) 
REALSpace_44bn_2023-08

>  <s_vsw_compound_code>  (413) 
56417

>  <s_vsw_variant>  (413) 
56417-1

>  <r_epik_Charging_Adjusted_Penalty>  (413) 
0.0208078897606645

>  <r_epik_Ionization_Penalty>  (413) 
0.021000000000000001

>  <r_epik_Ionization_Penalty_Charging>  (413) 
0

>  <r_epik_Ionization_Penalty_Neutral>  (413) 
0.021000000000000001

>  <r_epik_State_Penalty>  (413) 
0.020799999999999999

>  <r_i_docking_score>  (413) 
-3.9335268545737199

>  <r_i_glide_ecoul>  (413) 
-2.59767389297485

>  <r_i_glide_eff_state_penalty>  (413) 
0.020799999999999999

>  <r_i_glide_einternal>  (413) 
6.7460160255432102

>  <r_i_glide_emodel>  (413) 
-45.759149049929803

>  <r_i_glide_energy>  (413) 
-39.135523319244399

>  <r_i_glide_erotb>  (413) 
0.94707247041769005

>  <r_i_glide_esite>  (413) 
-0.128986223125577

>  <r_i_glide_evdw>  (413) 
-36.537849426269503

>  <r_i_glide_gscore>  (413) 
-3.9543268545737198

>  <r_i_glide_hbond>  (413) 
0

>  <r_i_glide_ligand_efficiency>  (413) 
-0.140483101949061

>  <r_i_glide_ligand_efficiency_ln>  (413) 
-0.907973491402565

>  <r_i_glide_ligand_efficiency_sa>  (413) 
-0.42658943763957602

>  <r_i_glide_lipo>  (413) 
-1.7272384556970399

>  <r_i_glide_metal>  (413) 
-0

>  <r_i_glide_rewards>  (413) 
-0.82863109090908904

>  <r_lp_Energy>  (413) 
7.7050910000000004

>  <r_qp_ACxDN^.5/SA>  (413) 
0.0116217

>  <r_qp_CIQPlogS>  (413) 
-5.4039999999999999

>  <r_qp_EA(eV)>  (413) 
1.018

>  <r_qp_FISA>  (413) 
62.213999999999999

>  <r_qp_FOSA>  (413) 
278.851

>  <r_qp_IP(eV)>  (413) 
7.8799999999999999

>  <r_qp_Jm>  (413) 
7.6834761961923297

>  <r_qp_PISA>  (413) 
255.07900000000001

>  <r_qp_PSA>  (413) 
73.653999999999996

>  <r_qp_PercentHumanOralAbsorption>  (413) 
100

>  <r_qp_QPPCaco>  (413) 
1786.511

>  <r_qp_QPPMDCK>  (413) 
1358.655

>  <r_qp_QPlogBB>  (413) 
-0.373

>  <r_qp_QPlogHERG>  (413) 
-3.0339999999999998

>  <r_qp_QPlogKhsa>  (413) 
0.25600000000000001

>  <r_qp_QPlogKp>  (413) 
-1.095

>  <r_qp_QPlogPC16>  (413) 
12.065

>  <r_qp_QPlogPo/w>  (413) 
3.7959999999999998

>  <r_qp_QPlogPoct>  (413) 
19.663

>  <r_qp_QPlogPw>  (413) 
11.532999999999999

>  <r_qp_QPlogS>  (413) 
-3.597

>  <r_qp_QPpolrz>  (413) 
38.348999999999997

>  <r_qp_SASA>  (413) 
596.14400000000001

>  <r_qp_SAamideO>  (413) 
19.337

>  <r_qp_SAfluorine>  (413) 
0

>  <r_qp_WPSA>  (413) 
0

>  <r_qp_accptHB>  (413) 
4

>  <r_qp_dip^2/V>  (413) 
0.050178800000000003

>  <r_qp_dipole>  (413) 
7.641

>  <r_qp_donorHB>  (413) 
3

>  <r_qp_glob>  (413) 
0.89739210000000003

>  <r_qp_mol_MW>  (413) 
378.47300000000001

>  <r_qp_volume>  (413) 
1163.462

>  <r_sd_BIOSOLVEIT.INFINISEE\_FTREES\_SIMILARITY>  (413) 
0.90400000000000003

>  <r_sd_BIOSOLVEIT.LOGP>  (413) 
4.0631000000000004

>  <r_sd_BIOSOLVEIT.MOLECULAR\_WEIGHT>  (413) 
378.47300000000001

>  <r_sd_BIOSOLVEIT.TPSA>  (413) 
75.280000000000001

>  <i_epik_Tot_Q>  (413) 
0

>  <i_epik_Tot_abs_Q>  (413) 
0

>  <i_f3d_flags>  (413) 
0

>  <i_i_glide_confnum>  (413) 
4

>  <i_i_glide_lignum>  (413) 
503

>  <i_i_glide_posenum>  (413) 
13

>  <i_i_glide_rotatable_bonds>  (413) 
9

>  <i_lp_mmshare_version>  (413) 
65135

>  <i_m_ct_format>  (413) 
2

>  <i_m_source_file_index>  (413) 
1764

>  <i_qp_#NandO>  (413) 
6

>  <i_qp_#acid>  (413) 
0

>  <i_qp_#amide>  (413) 
1

>  <i_qp_#amidine>  (413) 
0

>  <i_qp_#amine>  (413) 
0

>  <i_qp_#in34>  (413) 
0

>  <i_qp_#in56>  (413) 
16

>  <i_qp_#metab>  (413) 
7

>  <i_qp_#nonHatm>  (413) 
28

>  <i_qp_#noncon>  (413) 
0

>  <i_qp_#ringatoms>  (413) 
16

>  <i_qp_#rotor>  (413) 
7

>  <i_qp_#rtvFG>  (413) 
0

>  <i_qp_#stars>  (413) 
1

>  <i_qp_CNS>  (413) 
-1

>  <i_qp_HumanOralAbsorption>  (413) 
3

>  <i_qp_RuleOfFive>  (413) 
0

>  <i_qp_RuleOfThree>  (413) 
1

>  <i_sd_BIOSOLVEIT.INFINISEE\_REAGENT1\_NAME>  (413) 
6009228

>  <i_sd_BIOSOLVEIT.INFINISEE\_REAGENT2\_NAME>  (413) 
6950696

>  <i_sd_BIOSOLVEIT.INFINISEE\_RESULT\_RANK>  (413) 
75565

>  <i_sd_version>  (413) 
0

>  <b_lp_Chiralities_Consistent>  (413) 
1

>  <b_sd_chiral_flag>  (413) 
0

>  <canonical_id>  (413) 
ATP-HTVS-429B4D57A2D0

>  <compound_code>  (413) 
56417

>  <title>  (413) 
m_2708bba____6009228____6950696

>  <variant>  (413) 
56417-1

>  <source_file>  (413) 
运行/运行/ATP-VSW/ATP-VSW-DOCK_HTVS_1-001_lib/ATP-VSW-DOCK_HTVS_1-001_lib

>  <canonical_smiles>  (413) 
COc1cc(CNC(=O)NCc2cccc(NC(C)C)c2)c2ccccc2n1

>  <scaffold>  (413) 
O=C(NCc1ccccc1)NCc1ccnc2ccccc12

>  <molecular_formula>  (413) 
C22H26N4O2

$$$$
ATP-HTVS-42E232F3C181
     RDKit          3D

 57 59  0  0  0  0  0  0  0  0999 V2000
  197.8582  183.6634  159.6530 O   0  0  0  0  0  0  0  0  0  0  0  0
  197.6244  184.8279  159.3215 C   0  0  0  0  0  0  0  0  0  0  0  0
  198.3761  185.5261  158.4077 N   0  0  0  0  0  0  0  0  0  0  0  0
  199.4923  184.9166  157.7511 C   0  0  0  0  0  0  0  0  0  0  0  0
  200.3759  184.1095  158.3884 N   0  0  0  0  0  0  0  0  0  0  0  0
  201.4063  183.5633  157.7079 C   0  0  0  0  0  0  0  0  0  0  0  0
  201.6430  183.7984  156.3329 C   0  0  0  0  0  0  0  0  0  0  0  0
  202.6721  183.1770  155.6111 N   0  0  0  0  0  0  0  0  0  0  0  0
  203.0227  181.8017  155.9497 C   0  0  1  0  0  0  0  0  0  0  0  0
  201.8595  180.8199  156.0429 C   0  0  0  0  0  0  0  0  0  0  0  0
  200.7800  180.8764  155.1324 C   0  0  0  0  0  0  0  0  0  0  0  0
  199.7039  179.9694  155.2420 C   0  0  0  0  0  0  0  0  0  0  0  0
  199.7213  178.9863  156.2523 C   0  0  0  0  0  0  0  0  0  0  0  0
  200.7980  178.9198  157.1548 C   0  0  0  0  0  0  0  0  0  0  0  0
  201.8629  179.8346  157.0513 C   0  0  0  0  0  0  0  0  0  0  0  0
  198.5328  180.0538  154.2804 C   0  0  1  0  0  0  0  0  0  0  0  0
  197.5305  181.0622  154.7062 N   0  0  1  0  0  0  0  0  0  0  0  0
  196.6321  181.4528  153.5992 C   0  0  2  0  0  0  0  0  0  0  0  0
  196.7708  180.6621  155.9117 C   0  0  2  0  0  0  0  0  0  0  0  0
  200.7685  184.6704  155.6694 C   0  0  0  0  0  0  0  0  0  0  0  0
  199.6812  185.2103  156.3718 C   0  0  0  0  0  0  0  0  0  0  0  0
  198.0108  186.9095  157.9856 C   0  0  2  0  0  0  0  0  0  0  0  0
  196.4167  185.5116  159.9361 C   0  0  0  0  0  0  0  0  0  0  0  0
  195.1103  184.9401  159.9258 C   0  0  0  0  0  0  0  0  0  0  0  0
  194.7969  183.6504  159.3131 C   0  0  0  0  0  0  0  0  0  0  0  0
  194.5276  182.5593  158.8233 C   0  0  0  0  0  0  0  0  0  0  0  0
  194.0427  185.6403  160.5298 C   0  0  0  0  0  0  0  0  0  0  0  0
  194.2439  186.8952  161.1380 C   0  0  0  0  0  0  0  0  0  0  0  0
  195.5358  187.4498  161.1572 C   0  0  0  0  0  0  0  0  0  0  0  0
  196.5828  186.7408  160.5918 C   0  0  0  0  0  0  0  0  0  0  0  0
  202.0559  182.9130  158.2783 H   0  0  0  0  0  0  0  0  0  0  0  0
  202.7636  183.4200  154.6358 H   0  0  0  0  0  0  0  0  0  0  0  0
  203.7152  181.4333  155.1915 H   0  0  0  0  0  0  0  0  0  0  0  0
  203.5773  181.8020  156.8889 H   0  0  0  0  0  0  0  0  0  0  0  0
  200.7765  181.6259  154.3547 H   0  0  0  0  0  0  0  0  0  0  0  0
  198.9035  178.2854  156.3531 H   0  0  0  0  0  0  0  0  0  0  0  0
  200.8042  178.1678  157.9304 H   0  0  0  0  0  0  0  0  0  0  0  0
  202.6859  179.7711  157.7485 H   0  0  0  0  0  0  0  0  0  0  0  0
  198.9288  180.3194  153.2991 H   0  0  0  0  0  0  0  0  0  0  0  0
  198.0618  179.0754  154.1673 H   0  0  0  0  0  0  0  0  0  0  0  0
  196.0384  180.6044  153.2551 H   0  0  0  0  0  0  0  0  0  0  0  0
  197.1980  181.8413  152.7526 H   0  0  0  0  0  0  0  0  0  0  0  0
  195.9463  182.2406  153.9225 H   0  0  0  0  0  0  0  0  0  0  0  0
  196.2213  179.7397  155.7320 H   0  0  0  0  0  0  0  0  0  0  0  0
  196.0553  181.4331  156.2017 H   0  0  0  0  0  0  0  0  0  0  0  0
  197.4307  180.5003  156.7641 H   0  0  0  0  0  0  0  0  0  0  0  0
  200.9024  184.9099  154.6220 H   0  0  0  0  0  0  0  0  0  0  0  0
  199.0064  185.8570  155.8317 H   0  0  0  0  0  0  0  0  0  0  0  0
  198.7853  187.3395  157.3429 H   0  0  0  0  0  0  0  0  0  0  0  0
  197.9337  187.6072  158.7957 H   0  0  0  0  0  0  0  0  0  0  0  0
  197.0874  186.8798  157.3972 H   0  0  0  0  0  0  0  0  0  0  0  0
  194.3060  181.6071  158.3817 H   0  0  0  0  0  0  0  0  0  0  0  0
  193.0508  185.2257  160.5153 H   0  0  0  0  0  0  0  0  0  0  0  0
  193.4114  187.4388  161.5757 H   0  0  0  0  0  0  0  0  0  0  0  0
  195.7053  188.4162  161.5972 H   0  0  0  0  0  0  0  0  0  0  0  0
  197.5792  187.1803  160.6769 H   0  0  0  0  0  0  0  0  0  0  0  0
  198.0483  181.8906  154.9632 H   0  0  0  0  0  0  0  0  0  0  0  0
  1  2  2  0
  2  3  1  0
  2 23  1  0
  3  4  1  0
  3 22  1  0
  4  5  1  0
  4 21  2  0
  5  6  2  0
  6  7  1  0
  6 31  1  0
  7  8  1  0
  7 20  2  0
  8  9  1  0
  8 32  1  0
  9 10  1  0
  9 33  1  6
  9 34  1  0
 10 11  2  0
 10 15  1  0
 11 12  1  0
 11 35  1  0
 12 13  2  0
 12 16  1  0
 13 14  1  0
 13 36  1  0
 14 15  2  0
 14 37  1  0
 15 38  1  0
 16 17  1  0
 16 39  1  6
 16 40  1  0
 17 18  1  0
 17 19  1  0
 17 57  1  1
 18 41  1  6
 18 42  1  0
 18 43  1  0
 19 44  1  6
 19 45  1  0
 19 46  1  0
 20 21  1  0
 20 47  1  0
 21 48  1  0
 22 49  1  6
 22 50  1  0
 22 51  1  0
 23 24  1  0
 23 30  2  0
 24 25  1  0
 24 27  2  0
 25 26  3  0
 26 52  1  0
 27 28  1  0
 27 53  1  0
 28 29  2  0
 28 54  1  0
 29 30  1  0
 29 55  1  0
 30 56  1  0
M  CHG  1  17   1
M  END
>  <s_epik_cmdline>  (414) 
J2VwaWtfcHl0aG9uJywgJy1waCcsICc3LjAwMDAwMCcsICctcGh0JywgJzIuMDAwMDAwJywgJy1tcycsICcxNicsICctdG4nLCAnOCcsICctbWEnLCAnMjAwJywgJy1pbWFlJywgJzxpbmZpbGUubWFlPicsICctb21hZScsICc8b3V0ZmlsZS5tYWU+Jw==

>  <s_epik_input>  (414) 
W2NIXTFbY0hdW2NIXVtjSF1jKEMjW0NIXSljMUMoPU8pTihbQ0gzXSljMm5bY0hdYyhbY0hdW2NIXTIpW05IXVtDSDJdYzNbY0hdYyhbY0hdW2NIXVtjSF0zKVtDSDJdTihbQ0gzXSlbQ0gzXQ==

>  <s_i_glide_gridfile>  (414) 
ATP-Grid

>  <s_lp_Force_Field>  (414) 
OPLS_2005

>  <s_lp_Variant>  (414) 
rxn502a____EMOL43450422____EMOL43618924____EMOL2873214-1

>  <s_lp_label>  (414) 
2983_sdstereoexpander_1_neutralizer_1_epik_1_stereoizer_1

>  <s_m_source_file>  (414) 
ATP-VSW-LIGPREP-001-in.maegz

>  <s_sd_BIOSOLVEIT.INFINISEE\_QUERY\_NAME>  (414) 
Ref-Lig

>  <s_sd_BIOSOLVEIT.INFINISEE\_QUERY\_SMILES>  (414) 
S(c1nc2c(cc1C[NH2+]Cc3ccc(cc3)C[NH+](C)C)cccc2)Cc4ccccc4

>  <s_sd_BIOSOLVEIT.INFINISEE\_REACTION\_NAME>  (414) 
rxn502a

>  <s_sd_BIOSOLVEIT.INFINISEE\_REAGENT1\_NAME>  (414) 
EMOL43450422

>  <s_sd_BIOSOLVEIT.INFINISEE\_REAGENT1\_SMILES>  (414) 
O=C(O)c1c(C#C)cccc1

>  <s_sd_BIOSOLVEIT.INFINISEE\_REAGENT2\_NAME>  (414) 
EMOL43618924

>  <s_sd_BIOSOLVEIT.INFINISEE\_REAGENT2\_SMILES>  (414) 
Ic1cnc(NC)cc1

>  <s_sd_BIOSOLVEIT.INFINISEE\_REAGENT3\_NAME>  (414) 
EMOL2873214

>  <s_sd_BIOSOLVEIT.INFINISEE\_REAGENT3\_SMILES>  (414) 
N(Cc1cc(ccc1)CN)(C)C

>  <s_sd_BIOSOLVEIT.INFINISEE\_SPACE>  (414) 
eXplore_7tr_2022-12

>  <s_vsw_compound_code>  (414) 
95425

>  <s_vsw_variant>  (414) 
95425-1

>  <r_epik_Charging_Adjusted_Penalty>  (414) 
0.088195370499548398

>  <r_epik_Ionization_Penalty>  (414) 
0.044200000000000003

>  <r_epik_Ionization_Penalty_Charging>  (414) 
0.0441

>  <r_epik_Ionization_Penalty_Neutral>  (414) 
0.0001

>  <r_epik_State_Penalty>  (414) 
0.0441

>  <r_i_docking_score>  (414) 
-3.8188437156814201

>  <r_i_glide_ecoul>  (414) 
-6.4809403419494602

>  <r_i_glide_eff_state_penalty>  (414) 
0.0441

>  <r_i_glide_einternal>  (414) 
3.79687452316284

>  <r_i_glide_emodel>  (414) 
-45.547897468982697

>  <r_i_glide_energy>  (414) 
-34.704966068267801

>  <r_i_glide_erotb>  (414) 
0.98217298905843797

>  <r_i_glide_esite>  (414) 
-0.027309215960783

>  <r_i_glide_evdw>  (414) 
-28.224025726318398

>  <r_i_glide_gscore>  (414) 
-3.8629437156814199

>  <r_i_glide_hbond>  (414) 
0

>  <r_i_glide_ligand_efficiency>  (414) 
-0.127294790522714

>  <r_i_glide_ligand_efficiency_ln>  (414) 
-0.86768290183777097

>  <r_i_glide_ligand_efficiency_sa>  (414) 
-0.39553451050233401

>  <r_i_glide_lipo>  (414) 
-1.2795586928099401

>  <r_i_glide_metal>  (414) 
-0

>  <r_i_glide_rewards>  (414) 
-1.15490645836079

>  <r_lp_Energy>  (414) 
36.099404999999997

>  <r_lp_tautomer_probability>  (414) 
0.999999999999999

>  <r_qp_ACxDN^.5/SA>  (414) 
0.013145499999999999

>  <r_qp_CIQPlogS>  (414) 
-4.5389999999999997

>  <r_qp_EA(eV)>  (414) 
0.28100000000000003

>  <r_qp_FISA>  (414) 
70.218999999999994

>  <r_qp_FOSA>  (414) 
297.87900000000002

>  <r_qp_IP(eV)>  (414) 
8.4849999999999994

>  <r_qp_Jm>  (414) 
0.246889325934816

>  <r_qp_PISA>  (414) 
284.08100000000002

>  <r_qp_PSA>  (414) 
55.625

>  <r_qp_PercentHumanOralAbsorption>  (414) 
96.563999999999993

>  <r_qp_QPPCaco>  (414) 
533.22900000000004

>  <r_qp_QPPMDCK>  (414) 
277.36799999999999

>  <r_qp_QPlogBB>  (414) 
-0.14099999999999999

>  <r_qp_QPlogHERG>  (414) 
-5.7430000000000003

>  <r_qp_QPlogKhsa>  (414) 
0.378

>  <r_qp_QPlogKp>  (414) 
-3.1070000000000002

>  <r_qp_QPlogPC16>  (414) 
12.826000000000001

>  <r_qp_QPlogPo/w>  (414) 
3.5539999999999998

>  <r_qp_QPlogPoct>  (414) 
20.361000000000001

>  <r_qp_QPlogPw>  (414) 
11.026

>  <r_qp_QPlogS>  (414) 
-3.101

>  <r_qp_QPpolrz>  (414) 
42.137

>  <r_qp_SASA>  (414) 
652.17899999999997

>  <r_qp_SAamideO>  (414) 
0

>  <r_qp_SAfluorine>  (414) 
0

>  <r_qp_WPSA>  (414) 
0

>  <r_qp_accptHB>  (414) 
7

>  <r_qp_dip^2/V>  (414) 
0.045416999999999999

>  <r_qp_dipole>  (414) 
7.5860000000000003

>  <r_qp_donorHB>  (414) 
1.5

>  <r_qp_glob>  (414) 
0.86836550000000001

>  <r_qp_mol_MW>  (414) 
398.50700000000001

>  <r_qp_volume>  (414) 
1267.232

>  <r_sd_BIOSOLVEIT.INFINISEE\_FTREES\_SIMILARITY>  (414) 
0.90300000000000002

>  <r_sd_BIOSOLVEIT.LOGP>  (414) 
2.5960999999999999

>  <r_sd_BIOSOLVEIT.MOLECULAR\_WEIGHT>  (414) 
399.51499999999999

>  <r_sd_BIOSOLVEIT.TPSA>  (414) 
49.670000000000002

>  <i_epik_Tot_Q>  (414) 
1

>  <i_epik_Tot_abs_Q>  (414) 
1

>  <i_f3d_flags>  (414) 
0

>  <i_i_glide_confnum>  (414) 
9

>  <i_i_glide_lignum>  (414) 
1417

>  <i_i_glide_posenum>  (414) 
1

>  <i_i_glide_rotatable_bonds>  (414) 
9

>  <i_lp_mmshare_version>  (414) 
65135

>  <i_m_ct_format>  (414) 
2

>  <i_m_source_file_index>  (414) 
2983

>  <i_qp_#NandO>  (414) 
5

>  <i_qp_#acid>  (414) 
0

>  <i_qp_#amide>  (414) 
0

>  <i_qp_#amidine>  (414) 
0

>  <i_qp_#amine>  (414) 
1

>  <i_qp_#in34>  (414) 
0

>  <i_qp_#in56>  (414) 
18

>  <i_qp_#metab>  (414) 
6

>  <i_qp_#nonHatm>  (414) 
30

>  <i_qp_#noncon>  (414) 
0

>  <i_qp_#ringatoms>  (414) 
18

>  <i_qp_#rotor>  (414) 
8

>  <i_qp_#rtvFG>  (414) 
0

>  <i_qp_#stars>  (414) 
0

>  <i_qp_CNS>  (414) 
1

>  <i_qp_HumanOralAbsorption>  (414) 
3

>  <i_qp_RuleOfFive>  (414) 
0

>  <i_qp_RuleOfThree>  (414) 
0

>  <i_sd_BIOSOLVEIT.INFINISEE\_RESULT\_RANK>  (414) 
83968

>  <i_sd_version>  (414) 
0

>  <b_lp_Chiralities_Consistent>  (414) 
1

>  <b_sd_chiral_flag>  (414) 
0

>  <canonical_id>  (414) 
ATP-HTVS-42E232F3C181

>  <compound_code>  (414) 
95425

>  <title>  (414) 
rxn502a____EMOL43450422____EMOL43618924____EMOL2873214

>  <variant>  (414) 
95425-1

>  <source_file>  (414) 
运行/运行/ATP-VSW/ATP-VSW-DOCK_HTVS_1-001_lib/ATP-VSW-DOCK_HTVS_1-001_lib

>  <canonical_smiles>  (414) 
C#Cc1ccccc1C(=O)N(C)c1ccc(NCc2cccc(C[NH+](C)C)c2)cn1

>  <scaffold>  (414) 
O=C(Nc1ccc(NCc2ccccc2)cn1)c1ccccc1

>  <molecular_formula>  (414) 
C25H27N4O+

$$$$
ATP-HTVS-4313C7EF8265
     RDKit          3D

 54 56  0  0  0  0  0  0  0  0999 V2000
  202.7258  180.8547  156.5258 Cl  0  0  0  0  0  0  0  0  0  0  0  0
  201.1190  180.3522  156.1453 C   0  0  0  0  0  0  0  0  0  0  0  0
  200.0645  181.4419  155.3005 S   0  0  0  0  0  0  0  0  0  0  0  0
  198.8495  180.1823  155.1233 C   0  0  0  0  0  0  0  0  0  0  0  0
  197.6568  180.5403  154.3067 C   0  0  0  0  0  0  0  0  0  0  0  0
  196.7301  181.1096  154.8608 O   0  0  0  0  0  0  0  0  0  0  0  0
  197.6469  180.2378  152.9720 N   0  0  0  0  0  0  0  0  0  0  0  0
  198.6516  179.4542  152.3181 C   0  0  0  0  0  0  0  0  0  0  0  0
  198.2457  178.4269  151.4002 C   0  0  0  0  0  0  0  0  0  0  0  0
  199.2104  177.6475  150.7305 C   0  0  0  0  0  0  0  0  0  0  0  0
  198.7814  176.6312  149.7591 C   0  0  0  0  0  0  0  0  0  0  0  0
  198.4434  175.8374  148.9960 N   0  0  0  0  0  0  0  0  0  0  0  0
  200.5916  177.8362  150.9769 C   0  0  0  0  0  0  0  0  0  0  0  0
  200.9761  178.8615  151.8858 C   0  0  0  0  0  0  0  0  0  0  0  0
  200.0418  179.6931  152.5279 C   0  0  0  0  0  0  0  0  0  0  0  0
  196.5268  180.7468  152.1568 C   0  0  2  0  0  0  0  0  0  0  0  0
  199.2192  179.0615  155.8244 C   0  0  0  0  0  0  0  0  0  0  0  0
  200.5372  179.1392  156.4003 C   0  0  0  0  0  0  0  0  0  0  0  0
  201.1500  178.0874  157.1126 N   0  0  0  0  0  0  0  0  0  0  0  0
  200.7017  176.7027  157.0822 C   0  0  1  0  0  0  0  0  0  0  0  0
  201.3066  175.9025  155.9436 C   0  0  0  0  0  0  0  0  0  0  0  0
  202.3905  175.0389  156.1992 C   0  0  0  0  0  0  0  0  0  0  0  0
  202.9592  174.2787  155.1579 C   0  0  0  0  0  0  0  0  0  0  0  0
  202.4506  174.3873  153.8485 C   0  0  0  0  0  0  0  0  0  0  0  0
  201.3809  175.2736  153.5904 C   0  0  0  0  0  0  0  0  0  0  0  0
  200.8069  176.0259  154.6333 C   0  0  0  0  0  0  0  0  0  0  0  0
  203.0281  173.5412  152.7215 C   0  0  1  0  0  0  0  0  0  0  0  0
  202.3406  172.2357  152.5485 N   0  0  2  0  0  0  0  0  0  0  0  0
  202.8290  171.5009  151.3626 C   0  0  2  0  0  0  0  0  0  0  0  0
  200.8610  172.3293  152.5436 C   0  0  2  0  0  0  0  0  0  0  0  0
  197.1914  178.2322  151.1857 H   0  0  0  0  0  0  0  0  0  0  0  0
  201.3398  177.2195  150.4713 H   0  0  0  0  0  0  0  0  0  0  0  0
  202.0264  179.0041  152.0758 H   0  0  0  0  0  0  0  0  0  0  0  0
  200.3881  180.5036  153.1448 H   0  0  0  0  0  0  0  0  0  0  0  0
  196.3880  180.2222  151.2159 H   0  0  0  0  0  0  0  0  0  0  0  0
  196.7143  181.7853  151.8903 H   0  0  0  0  0  0  0  0  0  0  0  0
  195.5685  180.6981  152.6694 H   0  0  0  0  0  0  0  0  0  0  0  0
  198.5932  178.1917  155.9096 H   0  0  0  0  0  0  0  0  0  0  0  0
  202.0551  178.2619  157.5383 H   0  0  0  0  0  0  0  0  0  0  0  0
  200.9748  176.2363  158.0295 H   0  0  0  0  0  0  0  0  0  0  0  0
  199.6135  176.6463  157.0360 H   0  0  0  0  0  0  0  0  0  0  0  0
  202.7781  174.9417  157.2020 H   0  0  0  0  0  0  0  0  0  0  0  0
  203.7660  173.5952  155.3798 H   0  0  0  0  0  0  0  0  0  0  0  0
  200.9665  175.3488  152.5980 H   0  0  0  0  0  0  0  0  0  0  0  0
  199.9586  176.6640  154.4259 H   0  0  0  0  0  0  0  0  0  0  0  0
  202.9637  174.1145  151.7902 H   0  0  0  0  0  0  0  0  0  0  0  0
  204.0924  173.3729  152.8976 H   0  0  0  0  0  0  0  0  0  0  0  0
  202.5993  172.0371  150.4387 H   0  0  0  0  0  0  0  0  0  0  0  0
  202.3600  170.5199  151.3021 H   0  0  0  0  0  0  0  0  0  0  0  0
  203.9055  171.3437  151.4083 H   0  0  0  0  0  0  0  0  0  0  0  0
  200.5234  172.9640  151.7186 H   0  0  0  0  0  0  0  0  0  0  0  0
  200.4702  172.7455  153.4711 H   0  0  0  0  0  0  0  0  0  0  0  0
  200.3969  171.3504  152.4309 H   0  0  0  0  0  0  0  0  0  0  0  0
  202.6096  171.6284  153.3317 H   0  0  0  0  0  0  0  0  0  0  0  0
  1  2  1  0
  2  3  1  0
  2 18  2  0
  3  4  1  0
  4  5  1  0
  4 17  2  0
  5  6  2  0
  5  7  1  0
  7  8  1  0
  7 16  1  0
  8  9  1  0
  8 15  2  0
  9 10  2  0
  9 31  1  0
 10 11  1  0
 10 13  1  0
 11 12  3  0
 13 14  2  0
 13 32  1  0
 14 15  1  0
 14 33  1  0
 15 34  1  0
 16 35  1  6
 16 36  1  0
 16 37  1  0
 17 18  1  0
 17 38  1  0
 18 19  1  0
 19 20  1  0
 19 39  1  0
 20 21  1  0
 20 40  1  1
 20 41  1  0
 21 22  1  0
 21 26  2  0
 22 23  2  0
 22 42  1  0
 23 24  1  0
 23 43  1  0
 24 25  2  0
 24 27  1  0
 25 26  1  0
 25 44  1  0
 26 45  1  0
 27 28  1  0
 27 46  1  6
 27 47  1  0
 28 29  1  0
 28 30  1  0
 28 54  1  1
 29 48  1  6
 29 49  1  0
 29 50  1  0
 30 51  1  6
 30 52  1  0
 30 53  1  0
M  CHG  1  28   1
M  END
>  <s_epik_cmdline>  (415) 
J2VwaWtfcHl0aG9uJywgJy1waCcsICc3LjAwMDAwMCcsICctcGh0JywgJzIuMDAwMDAwJywgJy1tcycsICcxNicsICctdG4nLCAnOCcsICctbWEnLCAnMjAwJywgJy1pbWFlJywgJzxpbmZpbGUubWFlPicsICctb21hZScsICc8b3V0ZmlsZS5tYWU+Jw==

>  <s_epik_input>  (415) 
W2NIXTFbY0hdW2NIXWMoQyNOKVtjSF1jMU4oW0NIM10pQyg9TyljKHNjMkNsKVtjSF1jMltOSF1bQ0gyXWMzW2NIXVtjSF1jKFtjSF1bY0hdMylbQ0gyXU4oW0NIM10pW0NIM10=

>  <s_i_glide_gridfile>  (415) 
ATP-Grid

>  <s_lp_Force_Field>  (415) 
OPLS_2005

>  <s_lp_Variant>  (415) 
rxn512b____EMOL31412115____EMOL44846536____EMOL50155899-1

>  <s_lp_label>  (415) 
2448_sdstereoexpander_1_neutralizer_1_epik_1_stereoizer_1

>  <s_m_source_file>  (415) 
ATP-VSW-LIGPREP-003-in.maegz

>  <s_sd_BIOSOLVEIT.INFINISEE\_QUERY\_NAME>  (415) 
Ref-Lig

>  <s_sd_BIOSOLVEIT.INFINISEE\_QUERY\_SMILES>  (415) 
S(c1nc2c(cc1C[NH2+]Cc3ccc(cc3)C[NH+](C)C)cccc2)Cc4ccccc4

>  <s_sd_BIOSOLVEIT.INFINISEE\_REACTION\_NAME>  (415) 
rxn512b

>  <s_sd_BIOSOLVEIT.INFINISEE\_REAGENT1\_NAME>  (415) 
EMOL31412115

>  <s_sd_BIOSOLVEIT.INFINISEE\_REAGENT1\_SMILES>  (415) 
N#Cc1cc(NC)ccc1

>  <s_sd_BIOSOLVEIT.INFINISEE\_REAGENT2\_NAME>  (415) 
EMOL44846536

>  <s_sd_BIOSOLVEIT.INFINISEE\_REAGENT2\_SMILES>  (415) 
BrC1=C(Cl)SC(C(=O)O)=C1

>  <s_sd_BIOSOLVEIT.INFINISEE\_REAGENT3\_NAME>  (415) 
EMOL50155899

>  <s_sd_BIOSOLVEIT.INFINISEE\_REAGENT3\_SMILES>  (415) 
N(Cc1ccc(cc1)CN)(C)C

>  <s_sd_BIOSOLVEIT.INFINISEE\_SPACE>  (415) 
eXplore_7tr_2022-12

>  <s_vsw_compound_code>  (415) 
78307

>  <s_vsw_variant>  (415) 
78307-1

>  <r_epik_Charging_Adjusted_Penalty>  (415) 
0.080189274810459593

>  <r_epik_Ionization_Penalty>  (415) 
0.0402

>  <r_epik_Ionization_Penalty_Charging>  (415) 
0.040099999999999997

>  <r_epik_Ionization_Penalty_Neutral>  (415) 
0.0001

>  <r_epik_State_Penalty>  (415) 
0.040099999999999997

>  <r_i_docking_score>  (415) 
-4.5153162294465101

>  <r_i_glide_ecoul>  (415) 
-7.3432168960571298

>  <r_i_glide_eff_state_penalty>  (415) 
0.040099999999999997

>  <r_i_glide_einternal>  (415) 
7.5678863525390598

>  <r_i_glide_emodel>  (415) 
-54.5943622284829

>  <r_i_glide_energy>  (415) 
-41.252900123596199

>  <r_i_glide_erotb>  (415) 
0.72185624816151595

>  <r_i_glide_esite>  (415) 
-0.113656300508303

>  <r_i_glide_evdw>  (415) 
-33.909683227539098

>  <r_i_glide_gscore>  (415) 
-4.5554162294465099

>  <r_i_glide_hbond>  (415) 
-0.33954353857519898

>  <r_i_glide_ligand_efficiency>  (415) 
-0.15051054098155001

>  <r_i_glide_ligand_efficiency_ln>  (415) 
-1.0259290456410399

>  <r_i_glide_ligand_efficiency_sa>  (415) 
-0.46767124489636003

>  <r_i_glide_lipo>  (415) 
-1.1104405999381599

>  <r_i_glide_metal>  (415) 
-0

>  <r_i_glide_rewards>  (415) 
-0.91666534280085099

>  <r_lp_Energy>  (415) 
37.260258

>  <r_lp_tautomer_probability>  (415) 
0.99999274205267796

>  <r_qp_ACxDN^.5/SA>  (415) 
0.0103733

>  <r_qp_CIQPlogS>  (415) 
-5.0529999999999999

>  <r_qp_EA(eV)>  (415) 
0.79700000000000004

>  <r_qp_FISA>  (415) 
124.376

>  <r_qp_FOSA>  (415) 
213.11699999999999

>  <r_qp_IP(eV)>  (415) 
8.4169999999999998

>  <r_qp_Jm>  (415) 
1.2283676660188801e-05

>  <r_qp_PISA>  (415) 
276.77499999999998

>  <r_qp_PSA>  (415) 
71.340000000000003

>  <r_qp_PercentHumanOralAbsorption>  (415) 
75.165999999999997

>  <r_qp_QPPCaco>  (415) 
40.761000000000003

>  <r_qp_QPPMDCK>  (415) 
75.102000000000004

>  <r_qp_QPlogBB>  (415) 
-0.12

>  <r_qp_QPlogHERG>  (415) 
-7.3860000000000001

>  <r_qp_QPlogKhsa>  (415) 
0.40200000000000002

>  <r_qp_QPlogKp>  (415) 
-6.194

>  <r_qp_QPlogPC16>  (415) 
14.428000000000001

>  <r_qp_QPlogPo/w>  (415) 
3.3130000000000002

>  <r_qp_QPlogPoct>  (415) 
21.244

>  <r_qp_QPlogPw>  (415) 
11.313000000000001

>  <r_qp_QPlogS>  (415) 
-4.359

>  <r_qp_QPpolrz>  (415) 
44.637

>  <r_qp_SASA>  (415) 
723.01300000000003

>  <r_qp_SAamideO>  (415) 
0

>  <r_qp_SAfluorine>  (415) 
0

>  <r_qp_WPSA>  (415) 
108.746

>  <r_qp_accptHB>  (415) 
7.5

>  <r_qp_dip^2/V>  (415) 
0.036707900000000002

>  <r_qp_dipole>  (415) 
6.9909999999999997

>  <r_qp_donorHB>  (415) 
1

>  <r_qp_glob>  (415) 
0.80953450000000005

>  <r_qp_mol_MW>  (415) 
438.97399999999999

>  <r_qp_volume>  (415) 
1331.45

>  <r_sd_BIOSOLVEIT.INFINISEE\_FTREES\_SIMILARITY>  (415) 
0.91600000000000004

>  <r_sd_BIOSOLVEIT.LOGP>  (415) 
3.8063799999999999

>  <r_sd_BIOSOLVEIT.MOLECULAR\_WEIGHT>  (415) 
439.988

>  <r_sd_BIOSOLVEIT.TPSA>  (415) 
60.57

>  <i_epik_Tot_Q>  (415) 
1

>  <i_epik_Tot_abs_Q>  (415) 
1

>  <i_f3d_flags>  (415) 
0

>  <i_i_glide_confnum>  (415) 
8

>  <i_i_glide_lignum>  (415) 
1051

>  <i_i_glide_posenum>  (415) 
20

>  <i_i_glide_rotatable_bonds>  (415) 
8

>  <i_lp_mmshare_version>  (415) 
65135

>  <i_m_ct_format>  (415) 
2

>  <i_m_source_file_index>  (415) 
2448

>  <i_qp_#NandO>  (415) 
5

>  <i_qp_#acid>  (415) 
0

>  <i_qp_#amide>  (415) 
0

>  <i_qp_#amidine>  (415) 
0

>  <i_qp_#amine>  (415) 
2

>  <i_qp_#in34>  (415) 
0

>  <i_qp_#in56>  (415) 
17

>  <i_qp_#metab>  (415) 
6

>  <i_qp_#nonHatm>  (415) 
30

>  <i_qp_#noncon>  (415) 
0

>  <i_qp_#ringatoms>  (415) 
17

>  <i_qp_#rotor>  (415) 
8

>  <i_qp_#rtvFG>  (415) 
0

>  <i_qp_#stars>  (415) 
0

>  <i_qp_CNS>  (415) 
1

>  <i_qp_HumanOralAbsorption>  (415) 
3

>  <i_qp_RuleOfFive>  (415) 
0

>  <i_qp_RuleOfThree>  (415) 
0

>  <i_sd_BIOSOLVEIT.INFINISEE\_RESULT\_RANK>  (415) 
25237

>  <i_sd_version>  (415) 
0

>  <b_lp_Chiralities_Consistent>  (415) 
1

>  <b_sd_chiral_flag>  (415) 
0

>  <canonical_id>  (415) 
ATP-HTVS-4313C7EF8265

>  <compound_code>  (415) 
78307

>  <title>  (415) 
rxn512b____EMOL31412115____EMOL44846536____EMOL50155899

>  <variant>  (415) 
78307-1

>  <source_file>  (415) 
运行/运行/ATP-VSW/ATP-VSW-DOCK_HTVS_1-003_lib/ATP-VSW-DOCK_HTVS_1-003_lib.mae

>  <canonical_smiles>  (415) 
CN(C(=O)c1cc(NCc2ccc(C[NH+](C)C)cc2)c(Cl)s1)c1cccc(C#N)c1

>  <scaffold>  (415) 
O=C(Nc1ccccc1)c1cc(NCc2ccccc2)cs1

>  <molecular_formula>  (415) 
C23H24ClN4OS+

$$$$
ATP-HTVS-43145D4CE45B
     RDKit          3D

 64 66  0  0  0  0  0  0  0  0999 V2000
  199.1980  182.8998  157.0028 O   0  0  0  0  0  0  0  0  0  0  0  0
  198.6896  184.0336  157.0326 C   0  0  0  0  0  0  0  0  0  0  0  0
  197.9552  184.4673  155.9608 N   0  0  0  0  0  0  0  0  0  0  0  0
  197.7695  183.6554  154.7880 C   0  0  0  0  0  0  0  0  0  0  0  0
  197.3136  182.3846  154.8530 N   0  0  0  0  0  0  0  0  0  0  0  0
  197.0481  181.7157  153.7220 C   0  0  0  0  0  0  0  0  0  0  0  0
  197.2450  182.2537  152.4234 C   0  0  0  0  0  0  0  0  0  0  0  0
  197.0255  181.5352  151.2284 N   0  0  0  0  0  0  0  0  0  0  0  0
  196.8818  180.0968  151.2944 C   0  0  1  0  0  0  0  0  0  0  0  0
  197.2579  179.4113  150.0034 C   0  0  0  0  0  0  0  0  0  0  0  0
  198.5511  178.8725  149.8359 C   0  0  0  0  0  0  0  0  0  0  0  0
  198.8915  178.2163  148.6439 C   0  0  0  0  0  0  0  0  0  0  0  0
  197.9598  178.1085  147.5945 C   0  0  0  0  0  0  0  0  0  0  0  0
  196.6557  178.6391  147.7717 C   0  0  0  0  0  0  0  0  0  0  0  0
  196.3143  179.2940  148.9560 C   0  0  0  0  0  0  0  0  0  0  0  0
  198.3417  177.4468  146.2759 C   0  0  1  0  0  0  0  0  0  0  0  0
  199.0125  178.3658  145.3198 N   0  0  2  0  0  0  0  0  0  0  0  0
  200.3648  178.7721  145.7469 C   0  0  2  0  0  0  0  0  0  0  0  0
  198.1794  179.5282  144.9380 C   0  0  2  0  0  0  0  0  0  0  0  0
  197.7221  183.5722  152.3541 C   0  0  0  0  0  0  0  0  0  0  0  0
  197.9977  184.2685  153.5362 C   0  0  0  0  0  0  0  0  0  0  0  0
  197.3838  185.8232  155.8887 C   0  0  2  0  0  0  0  0  0  0  0  0
  198.9226  184.8739  158.3405 C   0  0  1  0  0  0  0  0  0  0  0  0
  197.5797  185.2283  159.0289 C   0  0  0  0  0  0  0  0  0  0  0  0
  196.7163  184.2162  159.5526 C   0  0  0  0  0  0  0  0  0  0  0  0
  195.4703  184.5646  160.1314 C   0  0  0  0  0  0  0  0  0  0  0  0
  195.0684  185.9117  160.2314 C   0  0  0  0  0  0  0  0  0  0  0  0
  195.9198  186.9112  159.7417 C   0  0  0  0  0  0  0  0  0  0  0  0
  197.1566  186.5672  159.1548 C   0  0  0  0  0  0  0  0  0  0  0  0
  199.8214  184.0641  159.3302 C   0  0  2  0  0  0  0  0  0  0  0  0
  199.7487  186.1609  158.0194 C   0  0  2  0  0  0  0  0  0  0  0  0
  196.6627  180.7068  153.8578 H   0  0  0  0  0  0  0  0  0  0  0  0
  197.2880  181.9467  150.3531 H   0  0  0  0  0  0  0  0  0  0  0  0
  197.5010  179.6600  152.0830 H   0  0  0  0  0  0  0  0  0  0  0  0
  195.8457  179.8573  151.5372 H   0  0  0  0  0  0  0  0  0  0  0  0
  199.2851  178.9794  150.6261 H   0  0  0  0  0  0  0  0  0  0  0  0
  199.8932  177.8222  148.5277 H   0  0  0  0  0  0  0  0  0  0  0  0
  195.9297  178.5420  146.9783 H   0  0  0  0  0  0  0  0  0  0  0  0
  195.3222  179.7017  149.0818 H   0  0  0  0  0  0  0  0  0  0  0  0
  198.9935  176.6052  146.5150 H   0  0  0  0  0  0  0  0  0  0  0  0
  197.4397  177.0292  145.8069 H   0  0  0  0  0  0  0  0  0  0  0  0
  200.3365  179.3709  146.6606 H   0  0  0  0  0  0  0  0  0  0  0  0
  200.8525  179.3850  144.9875 H   0  0  0  0  0  0  0  0  0  0  0  0
  200.9937  177.8981  145.9301 H   0  0  0  0  0  0  0  0  0  0  0  0
  197.9743  180.1627  145.8026 H   0  0  0  0  0  0  0  0  0  0  0  0
  197.2277  179.2055  144.5156 H   0  0  0  0  0  0  0  0  0  0  0  0
  198.6850  180.1532  144.2003 H   0  0  0  0  0  0  0  0  0  0  0  0
  197.8817  184.0584  151.3937 H   0  0  0  0  0  0  0  0  0  0  0  0
  198.3559  185.2849  153.4668 H   0  0  0  0  0  0  0  0  0  0  0  0
  196.6956  185.9201  155.0139 H   0  0  0  0  0  0  0  0  0  0  0  0
  198.1383  186.5804  155.9311 H   0  0  0  0  0  0  0  0  0  0  0  0
  196.6572  185.9597  156.6924 H   0  0  0  0  0  0  0  0  0  0  0  0
  196.9725  183.1545  159.4845 H   0  0  0  0  0  0  0  0  0  0  0  0
  194.7926  183.8047  160.5160 H   0  0  0  0  0  0  0  0  0  0  0  0
  194.1152  186.2008  160.6534 H   0  0  0  0  0  0  0  0  0  0  0  0
  195.6327  187.9540  159.7553 H   0  0  0  0  0  0  0  0  0  0  0  0
  197.7280  187.3950  158.7695 H   0  0  0  0  0  0  0  0  0  0  0  0
  199.3631  183.1451  159.7072 H   0  0  0  0  0  0  0  0  0  0  0  0
  200.1064  184.6693  160.1947 H   0  0  0  0  0  0  0  0  0  0  0  0
  200.7600  183.7800  158.8579 H   0  0  0  0  0  0  0  0  0  0  0  0
  199.2834  186.8159  157.3240 H   0  0  0  0  0  0  0  0  0  0  0  0
  200.7575  185.8991  157.6428 H   0  0  0  0  0  0  0  0  0  0  0  0
  199.9916  186.6410  158.9821 H   0  0  0  0  0  0  0  0  0  0  0  0
  199.1467  177.8342  144.4586 H   0  0  0  0  0  0  0  0  0  0  0  0
  1  2  2  0
  2  3  1  0
 23  2  1  6
  3  4  1  0
  3 22  1  0
  4  5  1  0
  4 21  2  0
  5  6  2  0
  6  7  1  0
  6 32  1  0
  7  8  1  0
  7 20  2  0
  8  9  1  0
  8 33  1  0
  9 10  1  0
  9 34  1  1
  9 35  1  0
 10 11  1  0
 10 15  2  0
 11 12  2  0
 11 36  1  0
 12 13  1  0
 12 37  1  0
 13 14  2  0
 13 16  1  0
 14 15  1  0
 14 38  1  0
 15 39  1  0
 16 17  1  0
 16 40  1  1
 16 41  1  0
 17 18  1  0
 17 19  1  0
 17 64  1  6
 18 42  1  1
 18 43  1  0
 18 44  1  0
 19 45  1  1
 19 46  1  0
 19 47  1  0
 20 21  1  0
 20 48  1  0
 21 49  1  0
 22 50  1  6
 22 51  1  0
 22 52  1  0
 23 24  1  0
 23 30  1  0
 23 31  1  0
 24 25  2  0
 24 29  1  0
 25 26  1  0
 25 53  1  0
 26 27  2  0
 26 54  1  0
 27 28  1  0
 27 55  1  0
 28 29  2  0
 28 56  1  0
 29 57  1  0
 30 58  1  1
 30 59  1  0
 30 60  1  0
 31 61  1  6
 31 62  1  0
 31 63  1  0
M  CHG  1  17   1
M  END
>  <s_epik_cmdline>  (416) 
J2VwaWtfcHl0aG9uJywgJy1waCcsICc3LjAwMDAwMCcsICctcGh0JywgJzIuMDAwMDAwJywgJy1tcycsICcxNicsICctdG4nLCAnOCcsICctbWEnLCAnMjAwJywgJy1pbWFlJywgJzxpbmZpbGUubWFlPicsICctb21hZScsICc8b3V0ZmlsZS5tYWU+Jw==

>  <s_epik_input>  (416) 
W2NIXTFbY0hdW2NIXVtjSF1bY0hdYzFDKFtDSDNdKShbQ0gzXSlDKD1PKU4oW0NIM10pYzJuW2NIXWMoW2NIXVtjSF0yKVtOSF1bQ0gyXWMzW2NIXVtjSF1jKFtjSF1bY0hdMylbQ0gyXU4oW0NIM10pW0NIM10=

>  <s_i_glide_gridfile>  (416) 
ATP-Grid

>  <s_lp_Force_Field>  (416) 
OPLS_2005

>  <s_lp_Variant>  (416) 
rxn502a____EMOL882167____EMOL43618924____EMOL50155899-1

>  <s_lp_label>  (416) 
2913_sdstereoexpander_1_neutralizer_1_epik_1_stereoizer_1

>  <s_m_source_file>  (416) 
ATP-VSW-LIGPREP-003-in.maegz

>  <s_sd_BIOSOLVEIT.INFINISEE\_QUERY\_NAME>  (416) 
Ref-Lig

>  <s_sd_BIOSOLVEIT.INFINISEE\_QUERY\_SMILES>  (416) 
S(c1nc2c(cc1C[NH2+]Cc3ccc(cc3)C[NH+](C)C)cccc2)Cc4ccccc4

>  <s_sd_BIOSOLVEIT.INFINISEE\_REACTION\_NAME>  (416) 
rxn502a

>  <s_sd_BIOSOLVEIT.INFINISEE\_REAGENT1\_NAME>  (416) 
EMOL882167

>  <s_sd_BIOSOLVEIT.INFINISEE\_REAGENT1\_SMILES>  (416) 
O=C(O)C(c1ccccc1)(C)C

>  <s_sd_BIOSOLVEIT.INFINISEE\_REAGENT2\_NAME>  (416) 
EMOL43618924

>  <s_sd_BIOSOLVEIT.INFINISEE\_REAGENT2\_SMILES>  (416) 
Ic1cnc(NC)cc1

>  <s_sd_BIOSOLVEIT.INFINISEE\_REAGENT3\_NAME>  (416) 
EMOL50155899

>  <s_sd_BIOSOLVEIT.INFINISEE\_REAGENT3\_SMILES>  (416) 
N(Cc1ccc(cc1)CN)(C)C

>  <s_sd_BIOSOLVEIT.INFINISEE\_SPACE>  (416) 
eXplore_7tr_2022-12

>  <s_vsw_compound_code>  (416) 
93187

>  <s_vsw_variant>  (416) 
93187-1

>  <r_epik_Charging_Adjusted_Penalty>  (416) 
0.098688987526384206

>  <r_epik_Ionization_Penalty>  (416) 
0.059499999999999997

>  <r_epik_Ionization_Penalty_Charging>  (416) 
0.039199999999999999

>  <r_epik_Ionization_Penalty_Neutral>  (416) 
0.020299999999999999

>  <r_epik_State_Penalty>  (416) 
0.059499999999999997

>  <r_i_docking_score>  (416) 
-4.60812034415477

>  <r_i_glide_ecoul>  (416) 
-3.95584344863892

>  <r_i_glide_eff_state_penalty>  (416) 
0.059499999999999997

>  <r_i_glide_einternal>  (416) 
12.387890815734901

>  <r_i_glide_emodel>  (416) 
-44.977204287917502

>  <r_i_glide_energy>  (416) 
-37.080194950103802

>  <r_i_glide_erotb>  (416) 
0.79354665791498202

>  <r_i_glide_esite>  (416) 
-0.080719194601496902

>  <r_i_glide_evdw>  (416) 
-33.124351501464801

>  <r_i_glide_gscore>  (416) 
-4.6676203441547699

>  <r_i_glide_hbond>  (416) 
-0.20000000000000001

>  <r_i_glide_ligand_efficiency>  (416) 
-0.14864904335983101

>  <r_i_glide_ligand_efficiency_ln>  (416) 
-1.0392723595353399

>  <r_i_glide_ligand_efficiency_sa>  (416) 
-0.46696322827254799

>  <r_i_glide_lipo>  (416) 
-2.14380657873554

>  <r_i_glide_metal>  (416) 
-0

>  <r_i_glide_rewards>  (416) 
-0.78704713636363499

>  <r_lp_Energy>  (416) 
43.541840000000001

>  <r_lp_tautomer_probability>  (416) 
0.999999999999999

>  <r_qp_ACxDN^.5/SA>  (416) 
0.0093302000000000003

>  <r_qp_CIQPlogS>  (416) 
-4.9100000000000001

>  <r_qp_EA(eV)>  (416) 
0.23599999999999999

>  <r_qp_FISA>  (416) 
45.219000000000001

>  <r_qp_FOSA>  (416) 
378.577

>  <r_qp_IP(eV)>  (416) 
8.4860000000000007

>  <r_qp_Jm>  (416) 
0.022073782612616201

>  <r_qp_PISA>  (416) 
326.45699999999999

>  <r_qp_PSA>  (416) 
50.936

>  <r_qp_PercentHumanOralAbsorption>  (416) 
100

>  <r_qp_QPPCaco>  (416) 
920.43399999999997

>  <r_qp_QPPMDCK>  (416) 
500.392

>  <r_qp_QPlogBB>  (416) 
0.017999999999999999

>  <r_qp_QPlogHERG>  (416) 
-6.9189999999999996

>  <r_qp_QPlogKhsa>  (416) 
0.70099999999999996

>  <r_qp_QPlogKp>  (416) 
-2.4969999999999999

>  <r_qp_QPlogPC16>  (416) 
14.117000000000001

>  <r_qp_QPlogPo/w>  (416) 
4.7009999999999996

>  <r_qp_QPlogPoct>  (416) 
21.690000000000001

>  <r_qp_QPlogPw>  (416) 
10.648

>  <r_qp_QPlogS>  (416) 
-4.7779999999999996

>  <r_qp_QPpolrz>  (416) 
48.006999999999998

>  <r_qp_SASA>  (416) 
750.25199999999995

>  <r_qp_SAamideO>  (416) 
0

>  <r_qp_SAfluorine>  (416) 
0

>  <r_qp_WPSA>  (416) 
0

>  <r_qp_accptHB>  (416) 
7

>  <r_qp_dip^2/V>  (416) 
0.063505099999999995

>  <r_qp_dipole>  (416) 
9.4420000000000002

>  <r_qp_donorHB>  (416) 
1

>  <r_qp_glob>  (416) 
0.80815950000000003

>  <r_qp_mol_MW>  (416) 
416.565

>  <r_qp_volume>  (416) 
1403.8109999999999

>  <r_sd_BIOSOLVEIT.INFINISEE\_FTREES\_SIMILARITY>  (416) 
0.90400000000000003

>  <r_sd_BIOSOLVEIT.LOGP>  (416) 
3.2787999999999999

>  <r_sd_BIOSOLVEIT.MOLECULAR\_WEIGHT>  (416) 
417.57400000000001

>  <r_sd_BIOSOLVEIT.TPSA>  (416) 
49.670000000000002

>  <i_epik_Tot_Q>  (416) 
1

>  <i_epik_Tot_abs_Q>  (416) 
1

>  <i_f3d_flags>  (416) 
0

>  <i_i_glide_confnum>  (416) 
4

>  <i_i_glide_lignum>  (416) 
1428

>  <i_i_glide_posenum>  (416) 
18

>  <i_i_glide_rotatable_bonds>  (416) 
9

>  <i_lp_mmshare_version>  (416) 
65135

>  <i_m_ct_format>  (416) 
2

>  <i_m_source_file_index>  (416) 
2913

>  <i_qp_#NandO>  (416) 
5

>  <i_qp_#acid>  (416) 
0

>  <i_qp_#amide>  (416) 
0

>  <i_qp_#amidine>  (416) 
0

>  <i_qp_#amine>  (416) 
1

>  <i_qp_#in34>  (416) 
0

>  <i_qp_#in56>  (416) 
18

>  <i_qp_#metab>  (416) 
7

>  <i_qp_#nonHatm>  (416) 
31

>  <i_qp_#noncon>  (416) 
0

>  <i_qp_#ringatoms>  (416) 
18

>  <i_qp_#rotor>  (416) 
8

>  <i_qp_#rtvFG>  (416) 
0

>  <i_qp_#stars>  (416) 
0

>  <i_qp_CNS>  (416) 
1

>  <i_qp_HumanOralAbsorption>  (416) 
3

>  <i_qp_RuleOfFive>  (416) 
0

>  <i_qp_RuleOfThree>  (416) 
1

>  <i_sd_BIOSOLVEIT.INFINISEE\_RESULT\_RANK>  (416) 
76457

>  <i_sd_version>  (416) 
0

>  <b_lp_Chiralities_Consistent>  (416) 
1

>  <b_sd_chiral_flag>  (416) 
0

>  <canonical_id>  (416) 
ATP-HTVS-43145D4CE45B

>  <compound_code>  (416) 
93187

>  <title>  (416) 
rxn502a____EMOL882167____EMOL43618924____EMOL50155899

>  <variant>  (416) 
93187-1

>  <source_file>  (416) 
运行/运行/ATP-VSW/ATP-VSW-DOCK_HTVS_1-003_lib/ATP-VSW-DOCK_HTVS_1-003_lib.mae

>  <canonical_smiles>  (416) 
CN(C(=O)C(C)(C)c1ccccc1)c1ccc(NCc2ccc(C[NH+](C)C)cc2)cn1

>  <scaffold>  (416) 
O=C(Cc1ccccc1)Nc1ccc(NCc2ccccc2)cn1

>  <molecular_formula>  (416) 
C26H33N4O+

$$$$
ATP-HTVS-4322FF013EE1
     RDKit          3D

 60 63  0  0  0  0  0  0  0  0999 V2000
  201.9088  179.2128  153.3135 O   0  0  0  0  0  0  0  0  0  0  0  0
  200.7861  179.7176  153.3646 C   0  0  0  0  0  0  0  0  0  0  0  0
  199.6658  179.0969  152.9861 N   0  0  0  0  0  0  0  0  0  0  0  0
  199.5576  177.8425  152.3207 C   0  0  0  0  0  0  0  0  0  0  0  0
  200.0401  176.6174  152.8724 C   0  0  0  0  0  0  0  0  0  0  0  0
  200.6559  176.5243  154.1512 N   0  0  0  0  0  0  0  0  0  0  0  0
  200.2170  177.2556  155.1836 C   0  0  0  0  0  0  0  0  0  0  0  0
  199.9270  177.8620  156.1479 N   0  0  0  0  0  0  0  0  0  0  0  0
  201.6823  175.5681  154.4167 C   0  0  0  0  0  0  0  0  0  0  0  0
  201.9987  175.2136  155.7544 C   0  0  0  0  0  0  0  0  0  0  0  0
  202.9576  174.2307  156.0573 C   0  0  0  0  0  0  0  0  0  0  0  0
  203.6110  173.5569  155.0203 C   0  0  0  0  0  0  0  0  0  0  0  0
  203.3484  173.9235  153.6787 C   0  0  0  0  0  0  0  0  0  0  0  0
  202.4233  174.9523  153.3770 C   0  0  0  0  0  0  0  0  0  0  0  0
  199.8191  175.4446  152.1184 C   0  0  0  0  0  0  0  0  0  0  0  0
  199.2162  175.4286  150.9206 N   0  0  0  0  0  0  0  0  0  0  0  0
  198.7744  176.5634  150.3837 C   0  0  0  0  0  0  0  0  0  0  0  0
  198.8731  177.8168  151.0518 C   0  0  0  0  0  0  0  0  0  0  0  0
  198.3119  178.9781  150.4686 C   0  0  0  0  0  0  0  0  0  0  0  0
  197.6478  178.8982  149.2117 C   0  0  0  0  0  0  0  0  0  0  0  0
  197.5835  177.6658  148.5267 C   0  0  0  0  0  0  0  0  0  0  0  0
  198.1537  176.5223  149.1072 C   0  0  0  0  0  0  0  0  0  0  0  0
  200.6056  181.1369  153.8182 C   0  0  0  0  0  0  0  0  0  0  0  0
  199.6359  181.4887  154.8277 C   0  0  0  0  0  0  0  0  0  0  0  0
  198.8511  180.4726  155.3571 O   0  0  0  0  0  0  0  0  0  0  0  0
  197.9281  180.7860  156.4058 C   0  0  1  0  0  0  0  0  0  0  0  0
  196.6711  181.4813  155.8275 C   0  0  1  0  0  0  0  0  0  0  0  0
  195.9908  182.4358  156.7547 N   0  0  1  0  0  0  0  0  0  0  0  0
  195.4840  181.8288  157.9893 C   0  0  2  0  0  0  0  0  0  0  0  0
  196.7369  183.6855  157.0497 C   0  0  2  0  0  0  0  0  0  0  0  0
  199.5455  182.8405  155.2583 C   0  0  0  0  0  0  0  0  0  0  0  0
  200.3604  183.8153  154.6510 C   0  0  0  0  0  0  0  0  0  0  0  0
  201.3190  183.4890  153.6561 C   0  0  0  0  0  0  0  0  0  0  0  0
  201.4419  182.1402  153.2596 C   0  0  0  0  0  0  0  0  0  0  0  0
  198.8292  179.6728  152.9855 H   0  0  0  0  0  0  0  0  0  0  0  0
  201.4836  175.6710  156.5960 H   0  0  0  0  0  0  0  0  0  0  0  0
  203.1603  173.9810  157.0974 H   0  0  0  0  0  0  0  0  0  0  0  0
  204.3114  172.7469  155.2417 H   0  0  0  0  0  0  0  0  0  0  0  0
  203.8437  173.3919  152.8895 H   0  0  0  0  0  0  0  0  0  0  0  0
  202.2712  175.2492  152.3315 H   0  0  0  0  0  0  0  0  0  0  0  0
  200.1054  174.4631  152.5053 H   0  0  0  0  0  0  0  0  0  0  0  0
  198.3442  179.9375  150.9584 H   0  0  0  0  0  0  0  0  0  0  0  0
  197.2079  179.7791  148.7814 H   0  0  0  0  0  0  0  0  0  0  0  0
  197.0811  177.5874  147.5682 H   0  0  0  0  0  0  0  0  0  0  0  0
  198.0976  175.5730  148.5948 H   0  0  0  0  0  0  0  0  0  0  0  0
  197.6263  179.8614  156.9007 H   0  0  0  0  0  0  0  0  0  0  0  0
  198.4169  181.3653  157.1836 H   0  0  0  0  0  0  0  0  0  0  0  0
  196.8873  182.0168  154.9021 H   0  0  0  0  0  0  0  0  0  0  0  0
  195.9508  180.7228  155.5249 H   0  0  0  0  0  0  0  0  0  0  0  0
  196.2974  181.3915  158.5713 H   0  0  0  0  0  0  0  0  0  0  0  0
  194.7550  181.0509  157.7446 H   0  0  0  0  0  0  0  0  0  0  0  0
  194.9839  182.5674  158.6102 H   0  0  0  0  0  0  0  0  0  0  0  0
  197.6710  183.4584  157.5861 H   0  0  0  0  0  0  0  0  0  0  0  0
  196.1560  184.3887  157.6250 H   0  0  0  0  0  0  0  0  0  0  0  0
  197.0187  184.1887  156.1135 H   0  0  0  0  0  0  0  0  0  0  0  0
  198.8891  183.1552  156.0497 H   0  0  0  0  0  0  0  0  0  0  0  0
  200.2623  184.8456  154.9526 H   0  0  0  0  0  0  0  0  0  0  0  0
  201.9481  184.2440  153.2079 H   0  0  0  0  0  0  0  0  0  0  0  0
  202.1799  181.8457  152.5237 H   0  0  0  0  0  0  0  0  0  0  0  0
  195.1441  182.7072  156.2387 H   0  0  0  0  0  0  0  0  0  0  0  0
  1  2  2  0
  2  3  1  0
  2 23  1  0
  3  4  1  0
  3 35  1  0
  4  5  2  0
  4 18  1  0
  5  6  1  0
  5 15  1  0
  6  7  1  0
  6  9  1  0
  7  8  3  0
  9 10  2  0
  9 14  1  0
 10 11  1  0
 10 36  1  0
 11 12  2  0
 11 37  1  0
 12 13  1  0
 12 38  1  0
 13 14  2  0
 13 39  1  0
 14 40  1  0
 15 16  2  0
 15 41  1  0
 16 17  1  0
 17 18  1  0
 17 22  2  0
 18 19  2  0
 19 20  1  0
 19 42  1  0
 20 21  2  0
 20 43  1  0
 21 22  1  0
 21 44  1  0
 22 45  1  0
 23 24  1  0
 23 34  2  0
 24 25  1  0
 24 31  2  0
 25 26  1  0
 26 27  1  0
 26 46  1  1
 26 47  1  0
 27 28  1  0
 27 48  1  6
 27 49  1  0
 28 29  1  0
 28 30  1  0
 28 60  1  6
 29 50  1  1
 29 51  1  0
 29 52  1  0
 30 53  1  1
 30 54  1  0
 30 55  1  0
 31 32  1  0
 31 56  1  0
 32 33  2  0
 32 57  1  0
 33 34  1  0
 33 58  1  0
 34 59  1  0
M  CHG  1  28   1
M  END
>  <s_epik_cmdline>  (417) 
J2VwaWtfcHl0aG9uJywgJy1waCcsICc3LjAwMDAwMCcsICctcGh0JywgJzIuMDAwMDAwJywgJy1tcycsICcxNicsICctdG4nLCAnOCcsICctbWEnLCAnMjAwJywgJy1pbWFlJywgJzxpbmZpbGUubWFlPicsICctb21hZScsICc8b3V0ZmlsZS5tYWU+Jw==

>  <s_epik_input>  (417) 
W0NIM11OKFtDSDNdKVtDSDJdW0NIMl1PYyhbY0hdW2NIXVtjSF1bY0hdMSljMUMoPU8pW05IXWMoYyhjMjMpW2NIXVtjSF1bY0hdW2NIXTMpYyhbY0hdbjIpTihDI04pYzRbY0hdW2NIXVtjSF1bY0hdW2NIXTQ=

>  <s_i_glide_gridfile>  (417) 
ATP-Grid

>  <s_lp_Force_Field>  (417) 
OPLS_2005

>  <s_lp_Variant>  (417) 
rxn502b____EMOL1542108____EMOL13728749____EMOL36822768-1

>  <s_lp_label>  (417) 
2948_sdstereoexpander_1_neutralizer_1_epik_1_stereoizer_1

>  <s_m_source_file>  (417) 
ATP-VSW-LIGPREP-002-in.maegz

>  <s_sd_BIOSOLVEIT.INFINISEE\_QUERY\_NAME>  (417) 
Ref-Lig

>  <s_sd_BIOSOLVEIT.INFINISEE\_QUERY\_SMILES>  (417) 
S(c1nc2c(cc1C[NH2+]Cc3ccc(cc3)C[NH+](C)C)cccc2)Cc4ccccc4

>  <s_sd_BIOSOLVEIT.INFINISEE\_REACTION\_NAME>  (417) 
rxn502b

>  <s_sd_BIOSOLVEIT.INFINISEE\_REAGENT1\_NAME>  (417) 
EMOL1542108

>  <s_sd_BIOSOLVEIT.INFINISEE\_REAGENT1\_SMILES>  (417) 
O=C(O)c1c(OCCN(C)C)cccc1

>  <s_sd_BIOSOLVEIT.INFINISEE\_REAGENT2\_NAME>  (417) 
EMOL13728749

>  <s_sd_BIOSOLVEIT.INFINISEE\_REAGENT2\_SMILES>  (417) 
Brc1c(N)c2c(nc1)cccc2

>  <s_sd_BIOSOLVEIT.INFINISEE\_REAGENT3\_NAME>  (417) 
EMOL36822768

>  <s_sd_BIOSOLVEIT.INFINISEE\_REAGENT3\_SMILES>  (417) 
N#CNc1ccccc1

>  <s_sd_BIOSOLVEIT.INFINISEE\_SPACE>  (417) 
eXplore_7tr_2022-12

>  <s_vsw_compound_code>  (417) 
94306

>  <s_vsw_variant>  (417) 
94306-1

>  <r_epik_Charging_Adjusted_Penalty>  (417) 
0.0496117777815386

>  <r_epik_Ionization_Penalty>  (417) 
0.0253

>  <r_epik_Ionization_Penalty_Charging>  (417) 
0.024799999999999999

>  <r_epik_Ionization_Penalty_Neutral>  (417) 
0.00050000000000000001

>  <r_epik_State_Penalty>  (417) 
0.024799999999999999

>  <r_i_docking_score>  (417) 
-4.1309232549725303

>  <r_i_glide_ecoul>  (417) 
-7.4034619331359899

>  <r_i_glide_eff_state_penalty>  (417) 
0.024799999999999999

>  <r_i_glide_einternal>  (417) 
5.17464399337769

>  <r_i_glide_emodel>  (417) 
-50.793749052307298

>  <r_i_glide_energy>  (417) 
-38.862459659576402

>  <r_i_glide_erotb>  (417) 
0.78389329969259403

>  <r_i_glide_esite>  (417) 
-0.088939269591372203

>  <r_i_glide_evdw>  (417) 
-31.458997726440401

>  <r_i_glide_gscore>  (417) 
-4.1557232549725303

>  <r_i_glide_hbond>  (417) 
-0.20000000000000001

>  <r_i_glide_ligand_efficiency>  (417) 
-0.12149774279331001

>  <r_i_glide_ligand_efficiency_ln>  (417) 
-0.91263681549600595

>  <r_i_glide_ligand_efficiency_sa>  (417) 
-0.39360552091911699

>  <r_i_glide_lipo>  (417) 
-1.64353292696315

>  <r_i_glide_metal>  (417) 
-0

>  <r_i_glide_rewards>  (417) 
-0.323675181818181

>  <r_lp_Energy>  (417) 
45.416809999999998

>  <r_lp_tautomer_probability>  (417) 
1

>  <r_qp_ACxDN^.5/SA>  (417) 
0.0118957

>  <r_qp_CIQPlogS>  (417) 
-5.3479999999999999

>  <r_qp_EA(eV)>  (417) 
1.2649999999999999

>  <r_qp_FISA>  (417) 
69.927999999999997

>  <r_qp_FOSA>  (417) 
152.53800000000001

>  <r_qp_IP(eV)>  (417) 
8.4000000000000004

>  <r_qp_Jm>  (417) 
1.46098489827644

>  <r_qp_PISA>  (417) 
471.06400000000002

>  <r_qp_PSA>  (417) 
80.233000000000004

>  <r_qp_PercentHumanOralAbsorption>  (417) 
100

>  <r_qp_QPPCaco>  (417) 
536.62800000000004

>  <r_qp_QPPMDCK>  (417) 
279.279

>  <r_qp_QPlogBB>  (417) 
-0.218

>  <r_qp_QPlogHERG>  (417) 
-6.8520000000000003

>  <r_qp_QPlogKhsa>  (417) 
0.30099999999999999

>  <r_qp_QPlogKp>  (417) 
-2.347

>  <r_qp_QPlogPC16>  (417) 
14.808999999999999

>  <r_qp_QPlogPo/w>  (417) 
3.903

>  <r_qp_QPlogPoct>  (417) 
21.690999999999999

>  <r_qp_QPlogPw>  (417) 
12.673

>  <r_qp_QPlogS>  (417) 
-3.1429999999999998

>  <r_qp_QPpolrz>  (417) 
46.895000000000003

>  <r_qp_SASA>  (417) 
693.529

>  <r_qp_SAamideO>  (417) 
0

>  <r_qp_SAfluorine>  (417) 
0

>  <r_qp_WPSA>  (417) 
0

>  <r_qp_accptHB>  (417) 
8.25

>  <r_qp_dip^2/V>  (417) 
0.0059253999999999999

>  <r_qp_dipole>  (417) 
2.8359999999999999

>  <r_qp_donorHB>  (417) 
1

>  <r_qp_glob>  (417) 
0.85494859999999995

>  <r_qp_mol_MW>  (417) 
451.52699999999999

>  <r_qp_volume>  (417) 
1357.5619999999999

>  <r_sd_BIOSOLVEIT.INFINISEE\_FTREES\_SIMILARITY>  (417) 
0.90300000000000002

>  <r_sd_BIOSOLVEIT.LOGP>  (417) 
3.6295799999999998

>  <r_sd_BIOSOLVEIT.MOLECULAR\_WEIGHT>  (417) 
452.53500000000003

>  <r_sd_BIOSOLVEIT.TPSA>  (417) 
82.689999999999998

>  <i_epik_Tot_Q>  (417) 
1

>  <i_epik_Tot_abs_Q>  (417) 
1

>  <i_f3d_flags>  (417) 
0

>  <i_i_glide_confnum>  (417) 
5

>  <i_i_glide_lignum>  (417) 
12

>  <i_i_glide_posenum>  (417) 
10

>  <i_i_glide_rotatable_bonds>  (417) 
9

>  <i_lp_mmshare_version>  (417) 
65135

>  <i_m_ct_format>  (417) 
2

>  <i_m_source_file_index>  (417) 
2948

>  <i_qp_#NandO>  (417) 
7

>  <i_qp_#acid>  (417) 
0

>  <i_qp_#amide>  (417) 
0

>  <i_qp_#amidine>  (417) 
0

>  <i_qp_#amine>  (417) 
1

>  <i_qp_#in34>  (417) 
0

>  <i_qp_#in56>  (417) 
22

>  <i_qp_#metab>  (417) 
4

>  <i_qp_#nonHatm>  (417) 
34

>  <i_qp_#noncon>  (417) 
0

>  <i_qp_#ringatoms>  (417) 
22

>  <i_qp_#rotor>  (417) 
9

>  <i_qp_#rtvFG>  (417) 
0

>  <i_qp_#stars>  (417) 
1

>  <i_qp_CNS>  (417) 
1

>  <i_qp_HumanOralAbsorption>  (417) 
3

>  <i_qp_RuleOfFive>  (417) 
0

>  <i_qp_RuleOfThree>  (417) 
0

>  <i_sd_BIOSOLVEIT.INFINISEE\_RESULT\_RANK>  (417) 
79951

>  <i_sd_version>  (417) 
0

>  <b_lp_Chiralities_Consistent>  (417) 
1

>  <b_sd_chiral_flag>  (417) 
0

>  <canonical_id>  (417) 
ATP-HTVS-4322FF013EE1

>  <compound_code>  (417) 
94306

>  <title>  (417) 
rxn502b____EMOL1542108____EMOL13728749____EMOL36822768

>  <variant>  (417) 
94306-1

>  <source_file>  (417) 
运行/运行/ATP-VSW/ATP-VSW-DOCK_HTVS_1-003_lib/ATP-VSW-DOCK_HTVS_1-003_lib.mae

>  <canonical_smiles>  (417) 
C[NH+](C)CCOc1ccccc1C(=O)Nc1c(N(C#N)c2ccccc2)cnc2ccccc12

>  <scaffold>  (417) 
O=C(Nc1c(Nc2ccccc2)cnc2ccccc12)c1ccccc1

>  <molecular_formula>  (417) 
C27H26N5O2+

$$$$
ATP-HTVS-433854F3CEDF
     RDKit          3D

 61 64  0  0  0  0  0  0  0  0999 V2000
  196.7567  179.6111  153.3522 Cl  0  0  0  0  0  0  0  0  0  0  0  0
  196.7515  180.4327  151.7761 C   0  0  2  0  0  0  0  0  0  0  0  0
  197.1487  179.4881  150.6444 C   0  0  0  0  0  0  0  0  0  0  0  0
  196.4044  179.4873  149.4459 C   0  0  0  0  0  0  0  0  0  0  0  0
  196.7543  178.6328  148.3816 C   0  0  0  0  0  0  0  0  0  0  0  0
  197.8456  177.7540  148.5161 C   0  0  0  0  0  0  0  0  0  0  0  0
  198.5903  177.7400  149.7117 C   0  0  0  0  0  0  0  0  0  0  0  0
  198.2475  178.6074  150.7694 C   0  0  0  0  0  0  0  0  0  0  0  0
  197.6875  181.6443  151.8563 C   0  0  0  0  0  0  0  0  0  0  0  0
  198.7676  181.5522  152.4433 O   0  0  0  0  0  0  0  0  0  0  0  0
  197.2584  182.7812  151.2788 N   0  0  0  0  0  0  0  0  0  0  0  0
  198.0173  183.9756  151.1635 C   0  0  0  0  0  0  0  0  0  0  0  0
  198.3537  184.7643  152.3041 C   0  0  0  0  0  0  0  0  0  0  0  0
  197.9980  184.3786  153.6158 N   0  0  0  0  0  0  0  0  0  0  0  0
  198.5085  185.1185  154.7715 C   0  0  1  0  0  0  0  0  0  0  0  0
  198.2808  184.5156  156.1537 C   0  0  0  0  0  0  0  0  0  0  0  0
  197.3288  183.4959  156.3682 C   0  0  0  0  0  0  0  0  0  0  0  0
  197.1535  182.9441  157.6546 C   0  0  0  0  0  0  0  0  0  0  0  0
  197.9113  183.4341  158.7387 C   0  0  0  0  0  0  0  0  0  0  0  0
  198.8478  184.4631  158.5366 C   0  0  0  0  0  0  0  0  0  0  0  0
  199.0344  184.9993  157.2483 C   0  0  0  0  0  0  0  0  0  0  0  0
  196.1364  181.8367  157.8754 C   0  0  1  0  0  0  0  0  0  0  0  0
  194.7444  182.3327  158.0562 N   0  0  2  0  0  0  0  0  0  0  0  0
  194.6071  183.4731  158.9890 C   0  0  2  0  0  0  0  0  0  0  0  0
  193.8061  181.2422  158.3705 C   0  0  2  0  0  0  0  0  0  0  0  0
  199.0719  185.9582  152.0666 C   0  0  0  0  0  0  0  0  0  0  0  0
  199.4400  186.3796  150.8470 N   0  0  0  0  0  0  0  0  0  0  0  0
  199.1344  185.6394  149.7712 C   0  0  0  0  0  0  0  0  0  0  0  0
  198.4055  184.4228  149.8675 C   0  0  0  0  0  0  0  0  0  0  0  0
  198.1244  183.6875  148.6841 C   0  0  0  0  0  0  0  0  0  0  0  0
  198.5541  184.1582  147.4240 C   0  0  0  0  0  0  0  0  0  0  0  0
  199.2662  185.3654  147.3317 C   0  0  0  0  0  0  0  0  0  0  0  0
  199.5580  186.0844  148.5027 C   0  0  0  0  0  0  0  0  0  0  0  0
  195.7200  180.7584  151.6324 H   0  0  0  0  0  0  0  0  0  0  0  0
  195.5542  180.1423  149.3393 H   0  0  0  0  0  0  0  0  0  0  0  0
  196.1785  178.6360  147.4659 H   0  0  0  0  0  0  0  0  0  0  0  0
  198.1057  177.0903  147.7044 H   0  0  0  0  0  0  0  0  0  0  0  0
  199.4252  177.0604  149.8156 H   0  0  0  0  0  0  0  0  0  0  0  0
  198.8300  178.5848  151.6800 H   0  0  0  0  0  0  0  0  0  0  0  0
  196.4136  182.7350  150.7307 H   0  0  0  0  0  0  0  0  0  0  0  0
  197.6197  183.4533  153.7703 H   0  0  0  0  0  0  0  0  0  0  0  0
  199.5818  185.2304  154.6574 H   0  0  0  0  0  0  0  0  0  0  0  0
  198.0840  186.1230  154.7693 H   0  0  0  0  0  0  0  0  0  0  0  0
  196.7269  183.1394  155.5463 H   0  0  0  0  0  0  0  0  0  0  0  0
  197.7732  183.0253  159.7262 H   0  0  0  0  0  0  0  0  0  0  0  0
  199.4179  184.8427  159.3746 H   0  0  0  0  0  0  0  0  0  0  0  0
  199.7651  185.7872  157.1105 H   0  0  0  0  0  0  0  0  0  0  0  0
  196.1692  181.1654  157.0146 H   0  0  0  0  0  0  0  0  0  0  0  0
  196.4423  181.2498  158.7436 H   0  0  0  0  0  0  0  0  0  0  0  0
  194.9453  183.1950  159.9896 H   0  0  0  0  0  0  0  0  0  0  0  0
  193.5686  183.8004  159.0564 H   0  0  0  0  0  0  0  0  0  0  0  0
  195.1816  184.3410  158.6651 H   0  0  0  0  0  0  0  0  0  0  0  0
  194.0449  180.7876  159.3328 H   0  0  0  0  0  0  0  0  0  0  0  0
  193.8413  180.4735  157.6008 H   0  0  0  0  0  0  0  0  0  0  0  0
  192.7802  181.6095  158.4012 H   0  0  0  0  0  0  0  0  0  0  0  0
  199.3847  186.6226  152.8537 H   0  0  0  0  0  0  0  0  0  0  0  0
  197.5963  182.7454  148.7187 H   0  0  0  0  0  0  0  0  0  0  0  0
  198.3563  183.5892  146.5255 H   0  0  0  0  0  0  0  0  0  0  0  0
  199.6011  185.7324  146.3720 H   0  0  0  0  0  0  0  0  0  0  0  0
  200.1121  187.0098  148.4231 H   0  0  0  0  0  0  0  0  0  0  0  0
  194.4420  182.6477  157.1327 H   0  0  0  0  0  0  0  0  0  0  0  0
  1  2  1  0
  2  3  1  0
  2  9  1  0
  2 34  1  6
  3  4  2  0
  3  8  1  0
  4  5  1  0
  4 35  1  0
  5  6  2  0
  5 36  1  0
  6  7  1  0
  6 37  1  0
  7  8  2  0
  7 38  1  0
  8 39  1  0
  9 10  2  0
  9 11  1  0
 11 12  1  0
 11 40  1  0
 12 13  2  0
 12 29  1  0
 13 14  1  0
 13 26  1  0
 14 15  1  0
 14 41  1  0
 15 16  1  0
 15 42  1  6
 15 43  1  0
 16 17  2  0
 16 21  1  0
 17 18  1  0
 17 44  1  0
 18 19  2  0
 18 22  1  0
 19 20  1  0
 19 45  1  0
 20 21  2  0
 20 46  1  0
 21 47  1  0
 22 23  1  0
 22 48  1  6
 22 49  1  0
 23 24  1  0
 23 25  1  0
 23 61  1  6
 24 50  1  1
 24 51  1  0
 24 52  1  0
 25 53  1  1
 25 54  1  0
 25 55  1  0
 26 27  2  0
 26 56  1  0
 27 28  1  0
 28 29  1  0
 28 33  2  0
 29 30  2  0
 30 31  1  0
 30 57  1  0
 31 32  2  0
 31 58  1  0
 32 33  1  0
 32 59  1  0
 33 60  1  0
M  CHG  1  23   1
M  END
>  <s_epik_cmdline>  (418) 
J2VwaWtfcHl0aG9uJywgJy1waCcsICc3LjAwMDAwMCcsICctcGh0JywgJzIuMDAwMDAwJywgJy1tcycsICcxNicsICctdG4nLCAnOCcsICctbWEnLCAnMjAwJywgJy1pbWFlJywgJzxpbmZpbGUubWFlPicsICctb21hZScsICc8b3V0ZmlsZS5tYWU+Jw==

>  <s_epik_input>  (418) 
W2NIXTFbY0hdW2NIXVtjSF1bY0hdYzFbQ0BASF0oQ2wpQyg9TylbTkhdYyhjKGMyMylbY0hdW2NIXVtjSF1bY0hdMyljKFtjSF1uMilbTkhdW0NIMl1jNFtjSF1jKFtjSF1bY0hdW2NIXTQpW0NIMl1OKFtDSDNdKVtDSDNd

>  <s_i_glide_gridfile>  (418) 
ATP-Grid

>  <s_lp_Force_Field>  (418) 
OPLS_2005

>  <s_lp_Variant>  (418) 
rxn502b____EMOL480530____EMOL13728749____EMOL2873214-1

>  <s_lp_label>  (418) 
2161_sdstereoexpander_1_neutralizer_1_epik_1_stereoizer_1

>  <s_m_source_file>  (418) 
ATP-VSW-LIGPREP-003-in.maegz

>  <s_sd_BIOSOLVEIT.INFINISEE\_QUERY\_NAME>  (418) 
Ref-Lig

>  <s_sd_BIOSOLVEIT.INFINISEE\_QUERY\_SMILES>  (418) 
S(c1nc2c(cc1C[NH2+]Cc3ccc(cc3)C[NH+](C)C)cccc2)Cc4ccccc4

>  <s_sd_BIOSOLVEIT.INFINISEE\_REACTION\_NAME>  (418) 
rxn502b

>  <s_sd_BIOSOLVEIT.INFINISEE\_REAGENT1\_NAME>  (418) 
EMOL480530

>  <s_sd_BIOSOLVEIT.INFINISEE\_REAGENT1\_SMILES>  (418) 
ClC(=O)C(Cl)c1ccccc1

>  <s_sd_BIOSOLVEIT.INFINISEE\_REAGENT2\_NAME>  (418) 
EMOL13728749

>  <s_sd_BIOSOLVEIT.INFINISEE\_REAGENT2\_SMILES>  (418) 
Brc1c(N)c2c(nc1)cccc2

>  <s_sd_BIOSOLVEIT.INFINISEE\_REAGENT3\_NAME>  (418) 
EMOL2873214

>  <s_sd_BIOSOLVEIT.INFINISEE\_REAGENT3\_SMILES>  (418) 
N(Cc1cc(ccc1)CN)(C)C

>  <s_sd_BIOSOLVEIT.INFINISEE\_SPACE>  (418) 
eXplore_7tr_2022-12

>  <s_vsw_compound_code>  (418) 
69123

>  <s_vsw_variant>  (418) 
69123-1

>  <r_epik_Charging_Adjusted_Penalty>  (418) 
0.10390048416608599

>  <r_epik_Ionization_Penalty>  (418) 
0.059799999999999999

>  <r_epik_Ionization_Penalty_Charging>  (418) 
0.0441

>  <r_epik_Ionization_Penalty_Neutral>  (418) 
0.015699999999999999

>  <r_epik_State_Penalty>  (418) 
0.059799999999999999

>  <r_i_docking_score>  (418) 
-4.7528114153249499

>  <r_i_glide_ecoul>  (418) 
-9.4184131622314506

>  <r_i_glide_eff_state_penalty>  (418) 
0.059799999999999999

>  <r_i_glide_einternal>  (418) 
2.0614874362945601

>  <r_i_glide_emodel>  (418) 
-61.369189173706502

>  <r_i_glide_energy>  (418) 
-43.848871231079102

>  <r_i_glide_erotb>  (418) 
0.665786915641423

>  <r_i_glide_esite>  (418) 
-0.104874784541473

>  <r_i_glide_evdw>  (418) 
-34.430458068847699

>  <r_i_glide_gscore>  (418) 
-4.81261141532495

>  <r_i_glide_hbond>  (418) 
-0.20000000000000001

>  <r_i_glide_ligand_efficiency>  (418) 
-0.14402458834317999

>  <r_i_glide_ligand_efficiency_ln>  (418) 
-1.05700065002779

>  <r_i_glide_ligand_efficiency_sa>  (418) 
-0.46196381093584798

>  <r_i_glide_lipo>  (418) 
-1.7560131372416501

>  <r_i_glide_metal>  (418) 
-0

>  <r_i_glide_rewards>  (418) 
-0.28322553140615703

>  <r_lp_Energy>  (418) 
37.151839000000002

>  <r_qp_ACxDN^.5/SA>  (418) 
0.012690999999999999

>  <r_qp_CIQPlogS>  (418) 
-6.1550000000000002

>  <r_qp_EA(eV)>  (418) 
0.90100000000000002

>  <r_qp_FISA>  (418) 
49.668999999999997

>  <r_qp_FOSA>  (418) 
207.50899999999999

>  <r_qp_IP(eV)>  (418) 
8.2959999999999994

>  <r_qp_Jm>  (418) 
0.0466297495820149

>  <r_qp_PISA>  (418) 
413.07499999999999

>  <r_qp_PSA>  (418) 
53.817999999999998

>  <r_qp_PercentHumanOralAbsorption>  (418) 
100

>  <r_qp_QPPCaco>  (418) 
835.19500000000005

>  <r_qp_QPPMDCK>  (418) 
890.995

>  <r_qp_QPlogBB>  (418) 
0.13300000000000001

>  <r_qp_QPlogHERG>  (418) 
-6.9699999999999998

>  <r_qp_QPlogKhsa>  (418) 
0.748

>  <r_qp_QPlogKp>  (418) 
-2.274

>  <r_qp_QPlogPC16>  (418) 
15.159000000000001

>  <r_qp_QPlogPo/w>  (418) 
4.9630000000000001

>  <r_qp_QPlogPoct>  (418) 
22.795000000000002

>  <r_qp_QPlogPw>  (418) 
12.196

>  <r_qp_QPlogS>  (418) 
-4.7190000000000003

>  <r_qp_QPpolrz>  (418) 
48.177999999999997

>  <r_qp_SASA>  (418) 
724.32100000000003

>  <r_qp_SAamideO>  (418) 
0

>  <r_qp_SAfluorine>  (418) 
0

>  <r_qp_WPSA>  (418) 
54.067999999999998

>  <r_qp_accptHB>  (418) 
6.5

>  <r_qp_dip^2/V>  (418) 
0.0151635

>  <r_qp_dipole>  (418) 
4.5869999999999997

>  <r_qp_donorHB>  (418) 
2

>  <r_qp_glob>  (418) 
0.83055239999999997

>  <r_qp_mol_MW>  (418) 
458.98899999999998

>  <r_qp_volume>  (418) 
1387.3920000000001

>  <r_sd_BIOSOLVEIT.INFINISEE\_FTREES\_SIMILARITY>  (418) 
0.94299999999999995

>  <r_sd_BIOSOLVEIT.LOGP>  (418) 
4.4100000000000001

>  <r_sd_BIOSOLVEIT.MOLECULAR\_WEIGHT>  (418) 
459.99799999999999

>  <r_sd_BIOSOLVEIT.TPSA>  (418) 
58.460000000000001

>  <i_epik_Tot_Q>  (418) 
1

>  <i_epik_Tot_abs_Q>  (418) 
1

>  <i_f3d_flags>  (418) 
0

>  <i_i_glide_confnum>  (418) 
6

>  <i_i_glide_lignum>  (418) 
815

>  <i_i_glide_posenum>  (418) 
10

>  <i_i_glide_rotatable_bonds>  (418) 
9

>  <i_lp_mmshare_version>  (418) 
65135

>  <i_m_ct_format>  (418) 
2

>  <i_m_source_file_index>  (418) 
2161

>  <i_qp_#NandO>  (418) 
5

>  <i_qp_#acid>  (418) 
0

>  <i_qp_#amide>  (418) 
0

>  <i_qp_#amidine>  (418) 
0

>  <i_qp_#amine>  (418) 
1

>  <i_qp_#in34>  (418) 
0

>  <i_qp_#in56>  (418) 
22

>  <i_qp_#metab>  (418) 
8

>  <i_qp_#nonHatm>  (418) 
33

>  <i_qp_#noncon>  (418) 
0

>  <i_qp_#ringatoms>  (418) 
22

>  <i_qp_#rotor>  (418) 
8

>  <i_qp_#rtvFG>  (418) 
1

>  <i_qp_#stars>  (418) 
0

>  <i_qp_CNS>  (418) 
1

>  <i_qp_HumanOralAbsorption>  (418) 
3

>  <i_qp_RuleOfFive>  (418) 
0

>  <i_qp_RuleOfThree>  (418) 
1

>  <i_sd_BIOSOLVEIT.INFINISEE\_RESULT\_RANK>  (418) 
790

>  <i_sd_version>  (418) 
0

>  <b_lp_Chiralities_Consistent>  (418) 
1

>  <b_sd_chiral_flag>  (418) 
0

>  <canonical_id>  (418) 
ATP-HTVS-433854F3CEDF

>  <compound_code>  (418) 
69123

>  <title>  (418) 
rxn502b____EMOL480530____EMOL13728749____EMOL2873214

>  <variant>  (418) 
69123-1

>  <source_file>  (418) 
运行/运行/ATP-VSW/ATP-VSW-DOCK_HTVS_1-003_lib/ATP-VSW-DOCK_HTVS_1-003_lib.mae

>  <canonical_smiles>  (418) 
C[NH+](C)Cc1cccc(CNc2cnc3ccccc3c2NC(=O)[C@H](Cl)c2ccccc2)c1

>  <scaffold>  (418) 
O=C(Cc1ccccc1)Nc1c(NCc2ccccc2)cnc2ccccc12

>  <molecular_formula>  (418) 
C27H28ClN4O+

$$$$
ATP-HTVS-4340E5ABA707
     RDKit          3D

 53 56  0  0  0  0  0  0  0  0999 V2000
  200.0514  181.5554  152.8481 O   0  0  0  0  0  0  0  0  0  0  0  0
  199.1806  182.1891  153.4427 C   0  0  0  0  0  0  0  0  0  0  0  0
  198.0262  181.7391  153.9913 N   0  0  0  0  0  0  0  0  0  0  0  0
  197.2364  182.8036  154.6590 C   0  0  2  0  0  0  0  0  0  0  0  0
  198.0758  184.0314  154.3652 C   0  0  0  0  0  0  0  0  0  0  0  0
  199.2019  183.6523  153.6651 C   0  0  0  0  0  0  0  0  0  0  0  0
  200.1590  184.5874  153.2326 C   0  0  0  0  0  0  0  0  0  0  0  0
  199.9438  185.9478  153.5540 C   0  0  0  0  0  0  0  0  0  0  0  0
  198.8019  186.3379  154.2971 C   0  0  0  0  0  0  0  0  0  0  0  0
  197.8512  185.3777  154.7149 C   0  0  0  0  0  0  0  0  0  0  0  0
  197.1502  182.5825  156.1932 C   0  0  1  0  0  0  0  0  0  0  0  0
  195.9472  181.8363  156.6251 N   0  0  1  0  0  0  0  0  0  0  0  0
  195.6242  181.8685  158.0765 C   0  0  1  0  0  0  0  0  0  0  0  0
  195.9209  183.2234  158.7340 C   0  0  0  0  0  0  0  0  0  0  0  0
  197.2548  183.6802  158.8378 C   0  0  0  0  0  0  0  0  0  0  0  0
  197.5484  184.9472  159.3484 C   0  0  0  0  0  0  0  0  0  0  0  0
  198.9206  185.4327  159.3347 C   0  0  0  0  0  0  0  0  0  0  0  0
  200.0245  185.8040  159.3077 N   0  0  0  0  0  0  0  0  0  0  0  0
  196.5107  185.7867  159.8219 C   0  0  0  0  0  0  0  0  0  0  0  0
  195.1826  185.3349  159.7722 C   0  0  0  0  0  0  0  0  0  0  0  0
  194.8910  184.0661  159.2283 C   0  0  0  0  0  0  0  0  0  0  0  0
  194.1548  181.4359  158.2693 C   0  0  2  0  0  0  0  0  0  0  0  0
  197.5198  180.3701  153.9372 C   0  0  1  0  0  0  0  0  0  0  0  0
  197.3912  179.8443  152.5211 C   0  0  0  0  0  0  0  0  0  0  0  0
  196.3255  180.2783  151.7077 C   0  0  0  0  0  0  0  0  0  0  0  0
  196.2148  179.8129  150.3846 C   0  0  0  0  0  0  0  0  0  0  0  0
  197.1752  178.9218  149.8687 C   0  0  0  0  0  0  0  0  0  0  0  0
  198.2470  178.4963  150.6765 C   0  0  0  0  0  0  0  0  0  0  0  0
  198.3580  178.9603  151.9998 C   0  0  0  0  0  0  0  0  0  0  0  0
  195.1197  182.2305  156.1503 H   0  0  0  0  0  0  0  0  0  0  0  0
  196.2497  182.9218  154.1996 H   0  0  0  0  0  0  0  0  0  0  0  0
  201.0205  184.2777  152.6585 H   0  0  0  0  0  0  0  0  0  0  0  0
  200.6552  186.6943  153.2297 H   0  0  0  0  0  0  0  0  0  0  0  0
  198.6514  187.3827  154.5331 H   0  0  0  0  0  0  0  0  0  0  0  0
  196.9826  185.6839  155.2778 H   0  0  0  0  0  0  0  0  0  0  0  0
  198.0610  182.0895  156.5543 H   0  0  0  0  0  0  0  0  0  0  0  0
  197.1166  183.5636  156.6668 H   0  0  0  0  0  0  0  0  0  0  0  0
  196.2701  181.1343  158.5706 H   0  0  0  0  0  0  0  0  0  0  0  0
  198.0773  183.0376  158.5394 H   0  0  0  0  0  0  0  0  0  0  0  0
  196.7239  186.7852  160.2037 H   0  0  0  0  0  0  0  0  0  0  0  0
  194.3695  185.9553  160.1216 H   0  0  0  0  0  0  0  0  0  0  0  0
  193.8408  183.7886  159.1747 H   0  0  0  0  0  0  0  0  0  0  0  0
  193.8964  181.3974  159.3268 H   0  0  0  0  0  0  0  0  0  0  0  0
  193.9464  180.4406  157.8537 H   0  0  0  0  0  0  0  0  0  0  0  0
  193.4610  182.1119  157.7723 H   0  0  0  0  0  0  0  0  0  0  0  0
  198.1614  179.7141  154.5338 H   0  0  0  0  0  0  0  0  0  0  0  0
  196.5327  180.3202  154.3959 H   0  0  0  0  0  0  0  0  0  0  0  0
  195.5856  180.9630  152.0995 H   0  0  0  0  0  0  0  0  0  0  0  0
  195.3855  180.1263  149.7700 H   0  0  0  0  0  0  0  0  0  0  0  0
  197.0853  178.5522  148.8580 H   0  0  0  0  0  0  0  0  0  0  0  0
  198.9835  177.8127  150.2844 H   0  0  0  0  0  0  0  0  0  0  0  0
  199.1890  178.6465  152.6134 H   0  0  0  0  0  0  0  0  0  0  0  0
  195.9985  180.8584  156.3745 H   0  0  0  0  0  0  0  0  0  0  0  0
  1  2  2  0
  2  3  1  0
  2  6  1  0
  3  4  1  0
  3 23  1  0
  4  5  1  0
  4 11  1  0
  4 31  1  6
  5  6  1  0
  5 10  2  0
  6  7  2  0
  7  8  1  0
  7 32  1  0
  8  9  2  0
  8 33  1  0
  9 10  1  0
  9 34  1  0
 10 35  1  0
 11 12  1  0
 11 36  1  1
 11 37  1  0
 12 13  1  0
 12 30  1  6
 12 53  1  0
 13 14  1  0
 13 22  1  0
 13 38  1  1
 14 15  1  0
 14 21  2  0
 15 16  2  0
 15 39  1  0
 16 17  1  0
 16 19  1  0
 17 18  3  0
 19 20  2  0
 19 40  1  0
 20 21  1  0
 20 41  1  0
 21 42  1  0
 22 43  1  1
 22 44  1  0
 22 45  1  0
 23 24  1  0
 23 46  1  1
 23 47  1  0
 24 25  2  0
 24 29  1  0
 25 26  1  0
 25 48  1  0
 26 27  2  0
 26 49  1  0
 27 28  1  0
 27 50  1  0
 28 29  2  0
 28 51  1  0
 29 52  1  0
M  CHG  1  12   1
M  END
>  <s_epik_cmdline>  (419) 
J2VwaWtfcHl0aG9uJywgJy1waCcsICc3LjAwMDAwMCcsICctcGh0JywgJzIuMDAwMDAwJywgJy1tcycsICcxNicsICctdG4nLCAnOCcsICctbWEnLCAnMjAwJywgJy1pbWFlJywgJzxpbmZpbGUubWFlPicsICctb21hZScsICc8b3V0ZmlsZS5tYWU+Jw==

>  <s_epik_input>  (419) 
W2NIXTFbY0hdW2NIXVtjSF1bY0hdYzFbQ0gyXU4oQyg9TyljKGMyMylbY0hdW2NIXVtjSF1bY0hdMylbQ0BIXTJbQ0gyXVtOSF1bQ0BIXShbQ0gzXSljNFtjSF1jKEMjTilbY0hdW2NIXVtjSF00

>  <s_i_glide_gridfile>  (419) 
ATP-Grid

>  <s_lp_Force_Field>  (419) 
OPLS_2005

>  <s_lp_Variant>  (419) 
m_44daa____12219686____9164678-1

>  <s_lp_label>  (419) 
1427_sdstereoexpander_1_neutralizer_1_epik_1_stereoizer_1

>  <s_m_source_file>  (419) 
ATP-VSW-LIGPREP-003-in.maegz

>  <s_sd_BIOSOLVEIT.INFINISEE\_QUERY\_NAME>  (419) 
Ref-Lig

>  <s_sd_BIOSOLVEIT.INFINISEE\_QUERY\_SMILES>  (419) 
S(c1nc2c(cc1C[NH2+]Cc3ccc(cc3)C[NH+](C)C)cccc2)Cc4ccccc4

>  <s_sd_BIOSOLVEIT.INFINISEE\_REACTION\_NAME>  (419) 
m_44daa

>  <s_sd_BIOSOLVEIT.INFINISEE\_REAGENT1\_SMILES>  (419) 
[R1*]NCC1N(C(=O)c2c1cccc2)Cc3ccccc3

>  <s_sd_BIOSOLVEIT.INFINISEE\_REAGENT2\_SMILES>  (419) 
[R1*]C(c1cc(C#N)ccc1)C

>  <s_sd_BIOSOLVEIT.INFINISEE\_SPACE>  (419) 
REALSpace_44bn_2023-08

>  <s_vsw_compound_code>  (419) 
45635

>  <s_vsw_variant>  (419) 
45635-1

>  <r_epik_Charging_Adjusted_Penalty>  (419) 
0.15685215327056401

>  <r_epik_Ionization_Penalty>  (419) 
0.078399999999999997

>  <r_epik_Ionization_Penalty_Charging>  (419) 
0.078399999999999997

>  <r_epik_Ionization_Penalty_Neutral>  (419) 
0

>  <r_epik_State_Penalty>  (419) 
0.078399999999999997

>  <r_i_docking_score>  (419) 
-5.3742494244047503

>  <r_i_glide_ecoul>  (419) 
-11.1130533218384

>  <r_i_glide_eff_state_penalty>  (419) 
0.078399999999999997

>  <r_i_glide_einternal>  (419) 
14.155953407287599

>  <r_i_glide_emodel>  (419) 
-58.040761750341197

>  <r_i_glide_energy>  (419) 
-43.325299263000502

>  <r_i_glide_erotb>  (419) 
0.79658890916755698

>  <r_i_glide_esite>  (419) 
-0.099318275216236596

>  <r_i_glide_evdw>  (419) 
-32.212245941162102

>  <r_i_glide_gscore>  (419) 
-5.4526494244047496

>  <r_i_glide_hbond>  (419) 
-0.240013314107688

>  <r_i_glide_ligand_efficiency>  (419) 
-0.18531894566912899

>  <r_i_glide_ligand_efficiency_ln>  (419) 
-1.2305668389817801

>  <r_i_glide_ligand_efficiency_sa>  (419) 
-0.56935851425856099

>  <r_i_glide_lipo>  (419) 
-1.7447520262159899

>  <r_i_glide_metal>  (419) 
-0

>  <r_i_glide_rewards>  (419) 
-0.88758442269853099

>  <r_lp_Energy>  (419) 
47.779122999999998

>  <r_qp_ACxDN^.5/SA>  (419) 
0.0084948000000000003

>  <r_qp_CIQPlogS>  (419) 
-5.7169999999999996

>  <r_qp_EA(eV)>  (419) 
0.63700000000000001

>  <r_qp_FISA>  (419) 
105.85599999999999

>  <r_qp_FOSA>  (419) 
131.191

>  <r_qp_IP(eV)>  (419) 
9.3580000000000005

>  <r_qp_Jm>  (419) 
0.00066827832825063697

>  <r_qp_PISA>  (419) 
469.26299999999998

>  <r_qp_PSA>  (419) 
64.685000000000002

>  <r_qp_PercentHumanOralAbsorption>  (419) 
93.599999999999994

>  <r_qp_QPPCaco>  (419) 
244.88900000000001

>  <r_qp_QPPMDCK>  (419) 
119.613

>  <r_qp_QPlogBB>  (419) 
-0.54500000000000004

>  <r_qp_QPlogHERG>  (419) 
-7.6260000000000003

>  <r_qp_QPlogKhsa>  (419) 
0.61099999999999999

>  <r_qp_QPlogKp>  (419) 
-3.2080000000000002

>  <r_qp_QPlogPC16>  (419) 
14.404

>  <r_qp_QPlogPo/w>  (419) 
4.0810000000000004

>  <r_qp_QPlogPoct>  (419) 
19.920000000000002

>  <r_qp_QPlogPw>  (419) 
11.161

>  <r_qp_QPlogS>  (419) 
-5.5490000000000004

>  <r_qp_QPpolrz>  (419) 
45.000999999999998

>  <r_qp_SASA>  (419) 
706.31100000000004

>  <r_qp_SAamideO>  (419) 
0

>  <r_qp_SAfluorine>  (419) 
0

>  <r_qp_WPSA>  (419) 
0

>  <r_qp_accptHB>  (419) 
6

>  <r_qp_dip^2/V>  (419) 
0.013042099999999999

>  <r_qp_dipole>  (419) 
4.0839999999999996

>  <r_qp_donorHB>  (419) 
1

>  <r_qp_glob>  (419) 
0.80658790000000002

>  <r_qp_mol_MW>  (419) 
381.476

>  <r_qp_volume>  (419) 
1278.567

>  <r_sd_BIOSOLVEIT.INFINISEE\_FTREES\_SIMILARITY>  (419) 
0.90800000000000003

>  <r_sd_BIOSOLVEIT.LOGP>  (419) 
3.5799799999999999

>  <r_sd_BIOSOLVEIT.MOLECULAR\_WEIGHT>  (419) 
382.48500000000001

>  <r_sd_BIOSOLVEIT.TPSA>  (419) 
60.710000000000001

>  <i_epik_Tot_Q>  (419) 
1

>  <i_epik_Tot_abs_Q>  (419) 
1

>  <i_f3d_flags>  (419) 
0

>  <i_i_glide_confnum>  (419) 
4

>  <i_i_glide_lignum>  (419) 
551

>  <i_i_glide_posenum>  (419) 
16

>  <i_i_glide_rotatable_bonds>  (419) 
6

>  <i_lp_mmshare_version>  (419) 
65135

>  <i_m_ct_format>  (419) 
2

>  <i_m_source_file_index>  (419) 
1427

>  <i_qp_#NandO>  (419) 
4

>  <i_qp_#acid>  (419) 
0

>  <i_qp_#amide>  (419) 
0

>  <i_qp_#amidine>  (419) 
0

>  <i_qp_#amine>  (419) 
1

>  <i_qp_#in34>  (419) 
0

>  <i_qp_#in56>  (419) 
21

>  <i_qp_#metab>  (419) 
5

>  <i_qp_#nonHatm>  (419) 
29

>  <i_qp_#noncon>  (419) 
1

>  <i_qp_#ringatoms>  (419) 
21

>  <i_qp_#rotor>  (419) 
7

>  <i_qp_#rtvFG>  (419) 
0

>  <i_qp_#stars>  (419) 
1

>  <i_qp_CNS>  (419) 
1

>  <i_qp_HumanOralAbsorption>  (419) 
3

>  <i_qp_RuleOfFive>  (419) 
0

>  <i_qp_RuleOfThree>  (419) 
0

>  <i_sd_BIOSOLVEIT.INFINISEE\_REAGENT1\_NAME>  (419) 
12219686

>  <i_sd_BIOSOLVEIT.INFINISEE\_REAGENT2\_NAME>  (419) 
9164678

>  <i_sd_BIOSOLVEIT.INFINISEE\_RESULT\_RANK>  (419) 
54563

>  <i_sd_version>  (419) 
0

>  <b_lp_Chiralities_Consistent>  (419) 
1

>  <b_sd_chiral_flag>  (419) 
0

>  <canonical_id>  (419) 
ATP-HTVS-4340E5ABA707

>  <compound_code>  (419) 
45635

>  <title>  (419) 
m_44daa____12219686____9164678

>  <variant>  (419) 
45635-1

>  <source_file>  (419) 
运行/运行/ATP-VSW/ATP-VSW-DOCK_HTVS_1-003_lib/ATP-VSW-DOCK_HTVS_1-003_lib.mae

>  <canonical_smiles>  (419) 
C[C@@H]([NH2+]C[C@H]1c2ccccc2C(=O)N1Cc1ccccc1)c1cccc(C#N)c1

>  <scaffold>  (419) 
O=C1c2ccccc2C(C[NH2+]Cc2ccccc2)N1Cc1ccccc1

>  <molecular_formula>  (419) 
C25H24N3O+

$$$$
ATP-HTVS-4382948120BD
     RDKit          3D

 64 67  0  0  0  0  0  0  0  0999 V2000
  199.6698  180.9599  156.6005 O   0  0  0  0  0  0  0  0  0  0  0  0
  198.6363  180.7534  155.9621 C   0  0  0  0  0  0  0  0  0  0  0  0
  197.4325  181.2066  156.3475 N   0  0  0  0  0  0  0  0  0  0  0  0
  197.1845  182.2796  157.2507 C   0  0  0  0  0  0  0  0  0  0  0  0
  197.4538  183.6278  156.8892 C   0  0  0  0  0  0  0  0  0  0  0  0
  198.0269  183.9127  155.6291 N   0  0  0  0  0  0  0  0  0  0  0  0
  197.1638  184.6055  154.6814 C   0  0  1  0  0  0  0  0  0  0  0  0
  197.7435  184.7096  153.2862 C   0  0  0  0  0  0  0  0  0  0  0  0
  197.8899  183.5108  152.5176 C   0  0  0  0  0  0  0  0  0  0  0  0
  198.3266  183.5481  151.2197 C   0  0  0  0  0  0  0  0  0  0  0  0
  198.6240  184.8094  150.5874 C   0  0  0  0  0  0  0  0  0  0  0  0
  198.5094  185.9847  151.3378 C   0  0  0  0  0  0  0  0  0  0  0  0
  198.0793  185.9342  152.6965 C   0  0  0  0  0  0  0  0  0  0  0  0
  199.0241  184.7903  149.1284 C   0  0  1  0  0  0  0  0  0  0  0  0
  197.8870  185.0598  148.2024 N   0  0  1  0  0  0  0  0  0  0  0  0
  198.3723  185.4069  146.8498 C   0  0  2  0  0  0  0  0  0  0  0  0
  196.8636  183.9869  148.1557 C   0  0  2  0  0  0  0  0  0  0  0  0
  197.1048  184.6710  157.7973 C   0  0  0  0  0  0  0  0  0  0  0  0
  196.4696  184.3266  159.0275 C   0  0  0  0  0  0  0  0  0  0  0  0
  196.2263  183.0349  159.3065 N   0  0  0  0  0  0  0  0  0  0  0  0
  196.5469  182.0085  158.4835 C   0  0  0  0  0  0  0  0  0  0  0  0
  196.1083  185.3356  159.9533 C   0  0  0  0  0  0  0  0  0  0  0  0
  196.3633  186.6872  159.6610 C   0  0  0  0  0  0  0  0  0  0  0  0
  196.9846  187.0373  158.4488 C   0  0  0  0  0  0  0  0  0  0  0  0
  197.3657  186.0349  157.5386 C   0  0  0  0  0  0  0  0  0  0  0  0
  198.6394  179.9824  154.6617 C   0  0  0  0  0  0  0  0  0  0  0  0
  197.7252  180.3097  153.6220 C   0  0  0  0  0  0  0  0  0  0  0  0
  197.7575  179.6783  152.3481 C   0  0  0  0  0  0  0  0  0  0  0  0
  198.7349  178.6608  152.1523 C   0  0  0  0  0  0  0  0  0  0  0  0
  199.6095  178.2789  153.2011 C   0  0  0  0  0  0  0  0  0  0  0  0
  199.5830  178.9533  154.4414 C   0  0  0  0  0  0  0  0  0  0  0  0
  196.7906  180.0208  151.2411 C   0  0  0  0  0  0  0  0  0  0  0  0
  196.7326  179.3489  150.2002 O   0  0  0  0  0  0  0  0  0  0  0  0
  195.9799  181.3345  151.3682 C   0  0  2  0  0  0  0  0  0  0  0  0
  196.6274  180.8336  155.8680 H   0  0  0  0  0  0  0  0  0  0  0  0
  198.4516  183.0904  155.2248 H   0  0  0  0  0  0  0  0  0  0  0  0
  196.2000  184.0975  154.6767 H   0  0  0  0  0  0  0  0  0  0  0  0
  196.9476  185.6217  155.0057 H   0  0  0  0  0  0  0  0  0  0  0  0
  197.5729  182.5999  153.0054 H   0  0  0  0  0  0  0  0  0  0  0  0
  198.4312  182.6505  150.6185 H   0  0  0  0  0  0  0  0  0  0  0  0
  198.7571  186.9528  150.8891 H   0  0  0  0  0  0  0  0  0  0  0  0
  197.9760  186.8507  153.2859 H   0  0  0  0  0  0  0  0  0  0  0  0
  199.7921  185.5595  149.0192 H   0  0  0  0  0  0  0  0  0  0  0  0
  199.4844  183.8372  148.8638 H   0  0  0  0  0  0  0  0  0  0  0  0
  198.8928  184.5617  146.3924 H   0  0  0  0  0  0  0  0  0  0  0  0
  199.0718  186.2433  146.8979 H   0  0  0  0  0  0  0  0  0  0  0  0
  197.5465  185.6995  146.1984 H   0  0  0  0  0  0  0  0  0  0  0  0
  197.3046  183.0428  147.8417 H   0  0  0  0  0  0  0  0  0  0  0  0
  196.0745  184.2373  147.4430 H   0  0  0  0  0  0  0  0  0  0  0  0
  196.3881  183.8401  149.1250 H   0  0  0  0  0  0  0  0  0  0  0  0
  196.2825  181.0155  158.8262 H   0  0  0  0  0  0  0  0  0  0  0  0
  195.6416  185.0818  160.8926 H   0  0  0  0  0  0  0  0  0  0  0  0
  196.1010  187.4655  160.3644 H   0  0  0  0  0  0  0  0  0  0  0  0
  197.1949  188.0731  158.2188 H   0  0  0  0  0  0  0  0  0  0  0  0
  197.8846  186.3484  156.6456 H   0  0  0  0  0  0  0  0  0  0  0  0
  196.9735  181.0571  153.8338 H   0  0  0  0  0  0  0  0  0  0  0  0
  198.7508  178.1096  151.2185 H   0  0  0  0  0  0  0  0  0  0  0  0
  200.2814  177.4412  153.0569 H   0  0  0  0  0  0  0  0  0  0  0  0
  200.2639  178.6548  155.2319 H   0  0  0  0  0  0  0  0  0  0  0  0
  195.4628  181.4432  152.3336 H   0  0  0  0  0  0  0  0  0  0  0  0
  195.3420  181.5133  150.4897 H   0  0  0  0  0  0  0  0  0  0  0  0
  196.6818  182.1455  151.2964 H   0  0  0  0  0  0  0  0  0  0  0  0
  197.4140  185.8770  148.5609 H   0  0  0  0  0  0  0  0  0  0  0  0
  195.7836  182.7989  160.1955 H   0  0  0  0  0  0  0  0  0  0  0  0
  1  2  2  0
  2  3  1  0
  2 26  1  0
  3  4  1  0
  3 35  1  0
  4  5  2  0
  4 21  1  0
  5  6  1  0
  5 18  1  0
  6  7  1  0
  6 36  1  0
  7  8  1  0
  7 37  1  6
  7 38  1  0
  8  9  1  0
  8 13  2  0
  9 10  2  0
  9 39  1  0
 10 11  1  0
 10 40  1  0
 11 12  2  0
 11 14  1  0
 12 13  1  0
 12 41  1  0
 13 42  1  0
 14 15  1  0
 14 43  1  1
 14 44  1  0
 15 16  1  0
 15 17  1  0
 15 63  1  1
 16 45  1  6
 16 46  1  0
 16 47  1  0
 17 48  1  6
 17 49  1  0
 17 50  1  0
 18 19  1  0
 18 25  2  0
 19 20  1  0
 19 22  2  0
 20 21  2  0
 20 64  1  0
 21 51  1  0
 22 23  1  0
 22 52  1  0
 23 24  2  0
 23 53  1  0
 24 25  1  0
 24 54  1  0
 25 55  1  0
 26 27  2  0
 26 31  1  0
 27 28  1  0
 27 56  1  0
 28 29  2  0
 28 32  1  0
 29 30  1  0
 29 57  1  0
 30 31  2  0
 30 58  1  0
 31 59  1  0
 32 33  2  0
 32 34  1  0
 34 60  1  1
 34 61  1  0
 34 62  1  0
M  CHG  2  15   1  20   1
M  END
>  <s_epik_cmdline>  (420) 
J2VwaWtfcHl0aG9uJywgJy1waCcsICc3LjAwMDAwMCcsICctcGh0JywgJzIuMDAwMDAwJywgJy1tcycsICcxNicsICctdG4nLCAnOCcsICctbWEnLCAnMjAwJywgJy1pbWFlJywgJzxpbmZpbGUubWFlPicsICctb21hZScsICc8b3V0ZmlsZS5tYWU+Jw==

>  <s_epik_input>  (420) 
W2NIXTFbY0hdW2NIXWMoQyg9TylbQ0gzXSlbY0hdYzFDKD1PKVtOSF1jKFtjSF1uYyhjMjMpW2NIXVtjSF1bY0hdW2NIXTMpYzJbTkhdW0NIMl1jNFtjSF1bY0hdYyhbY0hdW2NIXTQpW0NIMl1OKFtDSDNdKVtDSDNd

>  <s_i_glide_gridfile>  (420) 
ATP-Grid

>  <s_lp_Force_Field>  (420) 
OPLS_2005

>  <s_lp_Variant>  (420) 
rxn502c____EMOL492224____EMOL44472687____EMOL50155899-1

>  <s_lp_label>  (420) 
2317_sdstereoexpander_1_neutralizer_1_epik_1_stereoizer_1

>  <s_m_source_file>  (420) 
ATP-VSW-LIGPREP-003-in.maegz

>  <s_sd_BIOSOLVEIT.INFINISEE\_QUERY\_NAME>  (420) 
Ref-Lig

>  <s_sd_BIOSOLVEIT.INFINISEE\_QUERY\_SMILES>  (420) 
S(c1nc2c(cc1C[NH2+]Cc3ccc(cc3)C[NH+](C)C)cccc2)Cc4ccccc4

>  <s_sd_BIOSOLVEIT.INFINISEE\_REACTION\_NAME>  (420) 
rxn502c

>  <s_sd_BIOSOLVEIT.INFINISEE\_REAGENT1\_NAME>  (420) 
EMOL492224

>  <s_sd_BIOSOLVEIT.INFINISEE\_REAGENT1\_SMILES>  (420) 
O=C(O)c1cc(ccc1)C(=O)C

>  <s_sd_BIOSOLVEIT.INFINISEE\_REAGENT2\_NAME>  (420) 
EMOL44472687

>  <s_sd_BIOSOLVEIT.INFINISEE\_REAGENT2\_SMILES>  (420) 
Clc1c(N)cnc2c1cccc2

>  <s_sd_BIOSOLVEIT.INFINISEE\_REAGENT3\_NAME>  (420) 
EMOL50155899

>  <s_sd_BIOSOLVEIT.INFINISEE\_REAGENT3\_SMILES>  (420) 
N(Cc1ccc(cc1)CN)(C)C

>  <s_sd_BIOSOLVEIT.INFINISEE\_SPACE>  (420) 
eXplore_7tr_2022-12

>  <s_vsw_compound_code>  (420) 
74115

>  <s_vsw_variant>  (420) 
74115-1

>  <r_epik_Charging_Adjusted_Penalty>  (420) 
0.24057739898594899

>  <r_epik_Ionization_Penalty>  (420) 
0.12039999999999999

>  <r_epik_Ionization_Penalty_Charging>  (420) 
0.1203

>  <r_epik_Ionization_Penalty_Neutral>  (420) 
0.0001

>  <r_epik_State_Penalty>  (420) 
0.1203

>  <r_i_docking_score>  (420) 
-4.8788040694841301

>  <r_i_glide_ecoul>  (420) 
-8.6199426651000994

>  <r_i_glide_eff_state_penalty>  (420) 
0.1203

>  <r_i_glide_einternal>  (420) 
7.6174983978271502

>  <r_i_glide_emodel>  (420) 
-61.025694619654402

>  <r_i_glide_energy>  (420) 
-44.213128089904799

>  <r_i_glide_erotb>  (420) 
0.68032817308906901

>  <r_i_glide_esite>  (420) 
-0.118035511942319

>  <r_i_glide_evdw>  (420) 
-35.593185424804702

>  <r_i_glide_gscore>  (420) 
-4.9991040694841304

>  <r_i_glide_hbond>  (420) 
0

>  <r_i_glide_ligand_efficiency>  (420) 
-0.143494237337769

>  <r_i_glide_ligand_efficiency_ln>  (420) 
-1.07786466476792

>  <r_i_glide_ligand_efficiency_sa>  (420) 
-0.46486562414832

>  <r_i_glide_lipo>  (420) 
-1.74622501744228

>  <r_i_glide_metal>  (420) 
-0

>  <r_i_glide_rewards>  (420) 
-0.74252104218335602

>  <r_lp_Energy>  (420) 
43.805765000000001

>  <r_lp_tautomer_probability>  (420) 
0.99995000000000001

>  <r_qp_ACxDN^.5/SA>  (420) 
0.015668700000000001

>  <r_qp_CIQPlogS>  (420) 
-5.2510000000000003

>  <r_qp_EA(eV)>  (420) 
1.0569999999999999

>  <r_qp_FISA>  (420) 
93.775999999999996

>  <r_qp_FOSA>  (420) 
243.26400000000001

>  <r_qp_IP(eV)>  (420) 
8.5869999999999997

>  <r_qp_Jm>  (420) 
0.012098578482824199

>  <r_qp_PISA>  (420) 
430.14600000000002

>  <r_qp_PSA>  (420) 
88.376999999999995

>  <r_qp_PercentHumanOralAbsorption>  (420) 
95.039000000000001

>  <r_qp_QPPCaco>  (420) 
318.80599999999998

>  <r_qp_QPPMDCK>  (420) 
159.07400000000001

>  <r_qp_QPlogBB>  (420) 
-0.48699999999999999

>  <r_qp_QPlogHERG>  (420) 
-7.4800000000000004

>  <r_qp_QPlogKhsa>  (420) 
0.497

>  <r_qp_QPlogKp>  (420) 
-3.0270000000000001

>  <r_qp_QPlogPC16>  (420) 
15.766

>  <r_qp_QPlogPo/w>  (420) 
3.9769999999999999

>  <r_qp_QPlogPoct>  (420) 
24.855

>  <r_qp_QPlogPw>  (420) 
14.666

>  <r_qp_QPlogS>  (420) 
-4.5460000000000003

>  <r_qp_QPpolrz>  (420) 
50.468000000000004

>  <r_qp_SASA>  (420) 
767.18499999999995

>  <r_qp_SAamideO>  (420) 
0

>  <r_qp_SAfluorine>  (420) 
0

>  <r_qp_WPSA>  (420) 
0

>  <r_qp_accptHB>  (420) 
8.5

>  <r_qp_dip^2/V>  (420) 
0.036910400000000003

>  <r_qp_dipole>  (420) 
7.2919999999999998

>  <r_qp_donorHB>  (420) 
2

>  <r_qp_glob>  (420) 
0.80405590000000005

>  <r_qp_mol_MW>  (420) 
452.55500000000001

>  <r_qp_volume>  (420) 
1440.5630000000001

>  <r_sd_BIOSOLVEIT.INFINISEE\_FTREES\_SIMILARITY>  (420) 
0.92200000000000004

>  <r_sd_BIOSOLVEIT.LOGP>  (420) 
3.9462999999999999

>  <r_sd_BIOSOLVEIT.MOLECULAR\_WEIGHT>  (420) 
453.56299999999999

>  <r_sd_BIOSOLVEIT.TPSA>  (420) 
75.530000000000001

>  <i_epik_Tot_Q>  (420) 
2

>  <i_epik_Tot_abs_Q>  (420) 
2

>  <i_f3d_flags>  (420) 
0

>  <i_i_glide_confnum>  (420) 
6

>  <i_i_glide_lignum>  (420) 
956

>  <i_i_glide_posenum>  (420) 
3

>  <i_i_glide_rotatable_bonds>  (420) 
9

>  <i_lp_mmshare_version>  (420) 
65135

>  <i_m_ct_format>  (420) 
2

>  <i_m_source_file_index>  (420) 
2317

>  <i_qp_#NandO>  (420) 
6

>  <i_qp_#acid>  (420) 
0

>  <i_qp_#amide>  (420) 
0

>  <i_qp_#amidine>  (420) 
0

>  <i_qp_#amine>  (420) 
1

>  <i_qp_#in34>  (420) 
0

>  <i_qp_#in56>  (420) 
22

>  <i_qp_#metab>  (420) 
6

>  <i_qp_#nonHatm>  (420) 
34

>  <i_qp_#noncon>  (420) 
0

>  <i_qp_#ringatoms>  (420) 
22

>  <i_qp_#rotor>  (420) 
8

>  <i_qp_#rtvFG>  (420) 
0

>  <i_qp_#stars>  (420) 
0

>  <i_qp_CNS>  (420) 
1

>  <i_qp_HumanOralAbsorption>  (420) 
3

>  <i_qp_RuleOfFive>  (420) 
0

>  <i_qp_RuleOfThree>  (420) 
0

>  <i_sd_BIOSOLVEIT.INFINISEE\_RESULT\_RANK>  (420) 
13104

>  <i_sd_version>  (420) 
0

>  <b_lp_Chiralities_Consistent>  (420) 
1

>  <b_sd_chiral_flag>  (420) 
0

>  <canonical_id>  (420) 
ATP-HTVS-4382948120BD

>  <compound_code>  (420) 
74115

>  <title>  (420) 
rxn502c____EMOL492224____EMOL44472687____EMOL50155899

>  <variant>  (420) 
74115-1

>  <source_file>  (420) 
运行/运行/ATP-VSW/ATP-VSW-DOCK_HTVS_1-003_lib/ATP-VSW-DOCK_HTVS_1-003_lib.mae

>  <canonical_smiles>  (420) 
CC(=O)c1cccc(C(=O)Nc2c[nH+]c3ccccc3c2NCc2ccc(C[NH+](C)C)cc2)c1

>  <scaffold>  (420) 
O=C(Nc1c[nH+]c2ccccc2c1NCc1ccccc1)c1ccccc1

>  <molecular_formula>  (420) 
C28H30N4O2+2

$$$$
ATP-HTVS-43D1BB82511C
     RDKit          3D

 67 71  0  0  0  0  0  0  0  0999 V2000
  195.8578  184.2508  160.1103 O   0  0  0  0  0  0  0  0  0  0  0  0
  196.3888  185.1202  159.4200 C   0  0  0  0  0  0  0  0  0  0  0  0
  196.9346  184.9146  158.2031 N   0  0  0  0  0  0  0  0  0  0  0  0
  197.0454  183.7109  157.4436 C   0  0  0  0  0  0  0  0  0  0  0  0
  197.8638  183.7045  156.2657 C   0  0  0  0  0  0  0  0  0  0  0  0
  198.5466  184.8646  155.8172 N   0  0  0  0  0  0  0  0  0  0  0  0
  197.8930  185.8028  154.8647 C   0  0  1  0  0  0  0  0  0  0  0  0
  198.5484  187.1313  154.9215 C   0  0  0  0  0  0  0  0  0  0  0  0
  199.0683  188.1699  154.9746 N   0  0  0  0  0  0  0  0  0  0  0  0
  197.7489  185.3093  153.4096 C   0  0  0  0  0  0  0  0  0  0  0  0
  196.9759  184.1633  153.1268 C   0  0  0  0  0  0  0  0  0  0  0  0
  196.9376  183.6148  151.8324 C   0  0  0  0  0  0  0  0  0  0  0  0
  197.5554  184.2818  150.7577 C   0  0  0  0  0  0  0  0  0  0  0  0
  198.2526  185.4833  151.0007 C   0  0  0  0  0  0  0  0  0  0  0  0
  198.3581  185.9878  152.3160 C   0  0  0  0  0  0  0  0  0  0  0  0
  199.6029  185.3346  156.7116 C   0  0  2  0  0  0  0  0  0  0  0  0
  197.9824  182.4741  155.5366 C   0  0  0  0  0  0  0  0  0  0  0  0
  197.2308  181.3548  155.9400 C   0  0  0  0  0  0  0  0  0  0  0  0
  196.4674  181.4406  157.0351 N   0  0  0  0  0  0  0  0  0  0  0  0
  196.3495  182.5363  157.8028 C   0  0  0  0  0  0  0  0  0  0  0  0
  197.2569  180.1487  155.2081 C   0  0  0  0  0  0  0  0  0  0  0  0
  198.0383  180.0633  154.0429 C   0  0  0  0  0  0  0  0  0  0  0  0
  198.8186  181.1573  153.6405 C   0  0  0  0  0  0  0  0  0  0  0  0
  198.8134  182.3468  154.4018 C   0  0  0  0  0  0  0  0  0  0  0  0
  196.4221  186.5462  159.9050 C   0  0  0  0  0  0  0  0  0  0  0  0
  197.4066  187.4533  159.4520 C   0  0  0  0  0  0  0  0  0  0  0  0
  197.4387  188.7885  159.9103 C   0  0  0  0  0  0  0  0  0  0  0  0
  196.4738  189.2208  160.8445 C   0  0  0  0  0  0  0  0  0  0  0  0
  195.5021  188.3197  161.3231 C   0  0  0  0  0  0  0  0  0  0  0  0
  195.4772  186.9882  160.8566 C   0  0  0  0  0  0  0  0  0  0  0  0
  198.5085  189.7401  159.4070 C   0  0  1  0  0  0  0  0  0  0  0  0
  199.7922  189.5292  160.1039 N   0  0  1  0  0  0  0  0  0  0  0  0
  200.4960  188.2864  159.7307 C   0  0  1  0  0  0  0  0  0  0  0  0
  201.9212  188.4744  160.2176 C   0  0  1  0  0  0  0  0  0  0  0  0
  202.1126  189.9953  160.3029 C   0  0  1  0  0  0  0  0  0  0  0  0
  200.7809  190.5940  159.8603 C   0  0  1  0  0  0  0  0  0  0  0  0
  197.3891  185.7158  157.7973 H   0  0  0  0  0  0  0  0  0  0  0  0
  196.8793  185.9871  155.2207 H   0  0  0  0  0  0  0  0  0  0  0  0
  196.4198  183.6502  153.9197 H   0  0  0  0  0  0  0  0  0  0  0  0
  196.4386  182.6721  151.6749 H   0  0  0  0  0  0  0  0  0  0  0  0
  197.5045  183.8635  149.7519 H   0  0  0  0  0  0  0  0  0  0  0  0
  198.7047  186.0226  150.1768 H   0  0  0  0  0  0  0  0  0  0  0  0
  198.9362  186.8993  152.4614 H   0  0  0  0  0  0  0  0  0  0  0  0
  199.8810  184.5910  157.4596 H   0  0  0  0  0  0  0  0  0  0  0  0
  199.2867  186.2327  157.2418 H   0  0  0  0  0  0  0  0  0  0  0  0
  200.4974  185.5963  156.1432 H   0  0  0  0  0  0  0  0  0  0  0  0
  195.7076  182.4015  158.6695 H   0  0  0  0  0  0  0  0  0  0  0  0
  196.6451  179.3094  155.5139 H   0  0  0  0  0  0  0  0  0  0  0  0
  198.0173  179.1630  153.4329 H   0  0  0  0  0  0  0  0  0  0  0  0
  199.3790  181.1226  152.7237 H   0  0  0  0  0  0  0  0  0  0  0  0
  199.4371  183.1772  154.0702 H   0  0  0  0  0  0  0  0  0  0  0  0
  198.1665  187.1329  158.7603 H   0  0  0  0  0  0  0  0  0  0  0  0
  196.4733  190.2432  161.1933 H   0  0  0  0  0  0  0  0  0  0  0  0
  194.7438  188.6615  162.0137 H   0  0  0  0  0  0  0  0  0  0  0  0
  194.7037  186.3173  161.2088 H   0  0  0  0  0  0  0  0  0  0  0  0
  198.6191  189.6149  158.3275 H   0  0  0  0  0  0  0  0  0  0  0  0
  198.1583  190.7624  159.5530 H   0  0  0  0  0  0  0  0  0  0  0  0
  200.0398  187.3867  160.1334 H   0  0  0  0  0  0  0  0  0  0  0  0
  200.4992  188.2048  158.6380 H   0  0  0  0  0  0  0  0  0  0  0  0
  202.0286  188.0259  161.2059 H   0  0  0  0  0  0  0  0  0  0  0  0
  202.6366  187.9909  159.5556 H   0  0  0  0  0  0  0  0  0  0  0  0
  202.3202  190.2800  161.3340 H   0  0  0  0  0  0  0  0  0  0  0  0
  202.9394  190.3427  159.6876 H   0  0  0  0  0  0  0  0  0  0  0  0
  200.8154  190.7859  158.7833 H   0  0  0  0  0  0  0  0  0  0  0  0
  200.5302  191.5288  160.3553 H   0  0  0  0  0  0  0  0  0  0  0  0
  199.6026  189.4912  161.1217 H   0  0  0  0  0  0  0  0  0  0  0  0
  195.9787  180.5497  157.3026 H   0  0  0  0  0  0  0  0  0  0  0  0
  1  2  2  0
  2  3  1  0
  2 25  1  0
  3  4  1  0
  3 37  1  0
  4  5  2  0
  4 20  1  0
  5  6  1  0
  5 17  1  0
  6  7  1  0
  6 16  1  0
  7  8  1  0
  7 10  1  0
  7 38  1  1
  8  9  3  0
 10 11  2  0
 10 15  1  0
 11 12  1  0
 11 39  1  0
 12 13  2  0
 12 40  1  0
 13 14  1  0
 13 41  1  0
 14 15  2  0
 14 42  1  0
 15 43  1  0
 16 44  1  1
 16 45  1  0
 16 46  1  0
 17 18  1  0
 17 24  2  0
 18 19  1  0
 18 21  2  0
 19 20  2  0
 19 67  1  0
 20 47  1  0
 21 22  1  0
 21 48  1  0
 22 23  2  0
 22 49  1  0
 23 24  1  0
 23 50  1  0
 24 51  1  0
 25 26  2  0
 25 30  1  0
 26 27  1  0
 26 52  1  0
 27 28  2  0
 27 31  1  0
 28 29  1  0
 28 53  1  0
 29 30  2  0
 29 54  1  0
 30 55  1  0
 31 32  1  0
 31 56  1  6
 31 57  1  0
 32 33  1  0
 32 36  1  0
 32 66  1  1
 33 34  1  0
 33 58  1  1
 33 59  1  0
 34 35  1  0
 34 60  1  1
 34 61  1  0
 35 36  1  0
 35 62  1  1
 35 63  1  0
 36 64  1  6
 36 65  1  0
M  CHG  2  19   1  32   1
M  END
>  <s_epik_cmdline>  (421) 
J2VwaWtfcHl0aG9uJywgJy1waCcsICc3LjAwMDAwMCcsICctcGh0JywgJzIuMDAwMDAwJywgJy1tcycsICcxNicsICctdG4nLCAnOCcsICctbWEnLCAnMjAwJywgJy1pbWFlJywgJzxpbmZpbGUubWFlPicsICctb21hZScsICc8b3V0ZmlsZS5tYWU+Jw==

>  <s_epik_input>  (421) 
W0NIMl0xW0NIMl1bQ0gyXVtDSDJdTjFbQ0gyXWMoW2NIXVtjSF1bY0hdMilbY0hdYzJDKD1PKVtOSF1jKFtjSF1uYyhjMzQpW2NIXVtjSF1bY0hdW2NIXTQpYzNOKFtDSDNdKVtDQEBIXShDI04pYzVbY0hdW2NIXVtjSF1bY0hdW2NIXTU=

>  <s_i_glide_gridfile>  (421) 
ATP-Grid

>  <s_lp_Force_Field>  (421) 
OPLS_2005

>  <s_lp_Variant>  (421) 
rxn502b____EMOL5849923____EMOL30488121____EMOL24630243-1

>  <s_lp_label>  (421) 
2766_sdstereoexpander_1_neutralizer_1_epik_1_stereoizer_1

>  <s_m_source_file>  (421) 
ATP-VSW-LIGPREP-001-in.maegz

>  <s_sd_BIOSOLVEIT.INFINISEE\_QUERY\_NAME>  (421) 
Ref-Lig

>  <s_sd_BIOSOLVEIT.INFINISEE\_QUERY\_SMILES>  (421) 
S(c1nc2c(cc1C[NH2+]Cc3ccc(cc3)C[NH+](C)C)cccc2)Cc4ccccc4

>  <s_sd_BIOSOLVEIT.INFINISEE\_REACTION\_NAME>  (421) 
rxn502b

>  <s_sd_BIOSOLVEIT.INFINISEE\_REAGENT1\_NAME>  (421) 
EMOL5849923

>  <s_sd_BIOSOLVEIT.INFINISEE\_REAGENT1\_SMILES>  (421) 
O=C(O)c1cc(ccc1)CN2CCCC2

>  <s_sd_BIOSOLVEIT.INFINISEE\_REAGENT2\_NAME>  (421) 
EMOL30488121

>  <s_sd_BIOSOLVEIT.INFINISEE\_REAGENT2\_SMILES>  (421) 
Brc1c(N)cnc2c1cccc2

>  <s_sd_BIOSOLVEIT.INFINISEE\_REAGENT3\_NAME>  (421) 
EMOL24630243

>  <s_sd_BIOSOLVEIT.INFINISEE\_REAGENT3\_SMILES>  (421) 
N#CC(NC)c1ccccc1

>  <s_sd_BIOSOLVEIT.INFINISEE\_SPACE>  (421) 
eXplore_7tr_2022-12

>  <s_vsw_compound_code>  (421) 
88481

>  <s_vsw_variant>  (421) 
88481-1

>  <r_epik_Charging_Adjusted_Penalty>  (421) 
0.27155656757440999

>  <r_epik_Ionization_Penalty>  (421) 
0.13550000000000001

>  <r_epik_Ionization_Penalty_Charging>  (421) 
0.13539999999999999

>  <r_epik_Ionization_Penalty_Neutral>  (421) 
0.0001

>  <r_epik_State_Penalty>  (421) 
0.1361

>  <r_i_docking_score>  (421) 
-5.5444931549808398

>  <r_i_glide_ecoul>  (421) 
-16.1931247711182

>  <r_i_glide_eff_state_penalty>  (421) 
0.1361

>  <r_i_glide_einternal>  (421) 
3.4194910526275599

>  <r_i_glide_emodel>  (421) 
-76.680023655519506

>  <r_i_glide_energy>  (421) 
-50.5794162750244

>  <r_i_glide_erotb>  (421) 
0.71050068705131797

>  <r_i_glide_esite>  (421) 
-0.19733368676458099

>  <r_i_glide_evdw>  (421) 
-34.3862915039062

>  <r_i_glide_gscore>  (421) 
-5.6805931549808397

>  <r_i_glide_hbond>  (421) 
-0.38635022803251001

>  <r_i_glide_ligand_efficiency>  (421) 
-0.15401369874946799

>  <r_i_glide_ligand_efficiency_ln>  (421) 
-1.2096586115227099

>  <r_i_glide_ligand_efficiency_sa>  (421) 
-0.50854202799645998

>  <r_i_glide_lipo>  (421) 
-1.0023573356464599

>  <r_i_glide_metal>  (421) 
-0

>  <r_i_glide_rewards>  (421) 
-0.65676930072557604

>  <r_lp_Energy>  (421) 
62.467956000000001

>  <r_qp_ACxDN^.5/SA>  (421) 
0.010528300000000001

>  <r_qp_CIQPlogS>  (421) 
-6.9800000000000004

>  <r_qp_EA(eV)>  (421) 
1.05

>  <r_qp_FISA>  (421) 
102.435

>  <r_qp_FOSA>  (421) 
272.89600000000002

>  <r_qp_IP(eV)>  (421) 
8.6379999999999999

>  <r_qp_Jm>  (421) 
0.00059339455270403295

>  <r_qp_PISA>  (421) 
384.52300000000002

>  <r_qp_PSA>  (421) 
72.582999999999998

>  <r_qp_PercentHumanOralAbsorption>  (421) 
95.659999999999997

>  <r_qp_QPPCaco>  (421) 
263.88

>  <r_qp_QPPMDCK>  (421) 
129.66999999999999

>  <r_qp_QPlogBB>  (421) 
-0.53400000000000003

>  <r_qp_QPlogHERG>  (421) 
-6.9930000000000003

>  <r_qp_QPlogKhsa>  (421) 
0.66100000000000003

>  <r_qp_QPlogKp>  (421) 
-3.347

>  <r_qp_QPlogPC16>  (421) 
15.426

>  <r_qp_QPlogPo/w>  (421) 
4.3339999999999996

>  <r_qp_QPlogPoct>  (421) 
23.759

>  <r_qp_QPlogPw>  (421) 
12.44

>  <r_qp_QPlogS>  (421) 
-5.5570000000000004

>  <r_qp_QPpolrz>  (421) 
50.984000000000002

>  <r_qp_SASA>  (421) 
759.85400000000004

>  <r_qp_SAamideO>  (421) 
0

>  <r_qp_SAfluorine>  (421) 
0

>  <r_qp_WPSA>  (421) 
0

>  <r_qp_accptHB>  (421) 
8

>  <r_qp_dip^2/V>  (421) 
0.0653971

>  <r_qp_dipole>  (421) 
9.7859999999999996

>  <r_qp_donorHB>  (421) 
1

>  <r_qp_glob>  (421) 
0.82072109999999998

>  <r_qp_mol_MW>  (421) 
475.59199999999998

>  <r_qp_volume>  (421) 
1464.338

>  <r_sd_BIOSOLVEIT.INFINISEE\_FTREES\_SIMILARITY>  (421) 
0.90700000000000003

>  <r_sd_BIOSOLVEIT.LOGP>  (421) 
4.3668800000000001

>  <r_sd_BIOSOLVEIT.MOLECULAR\_WEIGHT>  (421) 
476.601

>  <r_sd_BIOSOLVEIT.TPSA>  (421) 
73.459999999999994

>  <i_epik_Tot_Q>  (421) 
2

>  <i_epik_Tot_abs_Q>  (421) 
2

>  <i_f3d_flags>  (421) 
0

>  <i_i_glide_confnum>  (421) 
11

>  <i_i_glide_lignum>  (421) 
1247

>  <i_i_glide_posenum>  (421) 
13

>  <i_i_glide_rotatable_bonds>  (421) 
8

>  <i_lp_mmshare_version>  (421) 
65135

>  <i_m_ct_format>  (421) 
2

>  <i_m_source_file_index>  (421) 
2766

>  <i_qp_#NandO>  (421) 
6

>  <i_qp_#acid>  (421) 
0

>  <i_qp_#amide>  (421) 
0

>  <i_qp_#amidine>  (421) 
0

>  <i_qp_#amine>  (421) 
1

>  <i_qp_#in34>  (421) 
0

>  <i_qp_#in56>  (421) 
27

>  <i_qp_#metab>  (421) 
6

>  <i_qp_#nonHatm>  (421) 
36

>  <i_qp_#noncon>  (421) 
4

>  <i_qp_#ringatoms>  (421) 
27

>  <i_qp_#rotor>  (421) 
8

>  <i_qp_#rtvFG>  (421) 
0

>  <i_qp_#stars>  (421) 
0

>  <i_qp_CNS>  (421) 
1

>  <i_qp_HumanOralAbsorption>  (421) 
3

>  <i_qp_RuleOfFive>  (421) 
0

>  <i_qp_RuleOfThree>  (421) 
0

>  <i_sd_BIOSOLVEIT.INFINISEE\_RESULT\_RANK>  (421) 
59785

>  <i_sd_version>  (421) 
0

>  <b_lp_Chiralities_Consistent>  (421) 
1

>  <b_sd_chiral_flag>  (421) 
0

>  <canonical_id>  (421) 
ATP-HTVS-43D1BB82511C

>  <compound_code>  (421) 
88481

>  <title>  (421) 
rxn502b____EMOL5849923____EMOL30488121____EMOL24630243

>  <variant>  (421) 
88481-1

>  <source_file>  (421) 
运行/运行/ATP-VSW/ATP-VSW-DOCK_HTVS_1-001_lib/ATP-VSW-DOCK_HTVS_1-001_lib

>  <canonical_smiles>  (421) 
CN(c1c(NC(=O)c2cccc(C[NH+]3CCCC3)c2)c[nH+]c2ccccc12)[C@@H](C#N)c1ccccc1

>  <scaffold>  (421) 
O=C(Nc1c[nH+]c2ccccc2c1NCc1ccccc1)c1cccc(C[NH+]2CCCC2)c1

>  <molecular_formula>  (421) 
C30H31N5O+2

$$$$
ATP-HTVS-43DC0EBD36ED
     RDKit          3D

 54 56  0  0  0  0  0  0  0  0999 V2000
  191.0273  190.2066  165.5714 Cl  0  0  0  0  0  0  0  0  0  0  0  0
  191.8904  189.2855  164.3994 C   0  0  0  0  0  0  0  0  0  0  0  0
  191.6593  187.8976  164.2778 C   0  0  0  0  0  0  0  0  0  0  0  0
  192.3676  187.1454  163.3211 C   0  0  0  0  0  0  0  0  0  0  0  0
  193.3123  187.7589  162.4722 C   0  0  0  0  0  0  0  0  0  0  0  0
  193.5371  189.1554  162.5987 C   0  0  0  0  0  0  0  0  0  0  0  0
  192.8321  189.9065  163.5546 C   0  0  0  0  0  0  0  0  0  0  0  0
  194.0425  186.9622  161.4733 C   0  0  0  0  0  0  0  0  0  0  0  0
  195.6663  187.4059  160.9395 S   0  0  0  0  0  0  0  0  0  0  0  0
  195.7107  185.9931  159.9115 C   0  0  0  0  0  0  0  0  0  0  0  0
  194.5504  185.2649  160.0358 C   0  0  0  0  0  0  0  0  0  0  0  0
  193.6008  185.8706  160.8248 N   0  0  0  0  0  0  0  0  0  0  0  0
  194.1727  184.0114  159.3123 C   0  0  2  0  0  0  0  0  0  0  0  0
  196.8880  185.7252  159.0026 C   0  0  2  0  0  0  0  0  0  0  0  0
  197.9228  184.9884  159.7110 N   0  0  0  0  0  0  0  0  0  0  0  0
  199.2832  185.0852  159.1264 C   0  0  1  0  0  0  0  0  0  0  0  0
  199.6437  183.8101  158.3708 C   0  0  0  0  0  0  0  0  0  0  0  0
  198.8166  183.3362  157.3223 C   0  0  0  0  0  0  0  0  0  0  0  0
  199.2273  182.2441  156.5311 C   0  0  0  0  0  0  0  0  0  0  0  0
  200.4952  181.6617  156.7723 C   0  0  0  0  0  0  0  0  0  0  0  0
  201.3051  182.1136  157.8260 C   0  0  0  0  0  0  0  0  0  0  0  0
  200.8884  183.1917  158.6228 C   0  0  0  0  0  0  0  0  0  0  0  0
  198.3022  181.6868  155.4540 C   0  0  1  0  0  0  0  0  0  0  0  0
  197.7251  180.3516  155.7979 N   0  0  2  0  0  0  0  0  0  0  0  0
  198.7164  179.2437  155.8756 C   0  0  2  0  0  0  0  0  0  0  0  0
  196.6253  179.9913  154.8880 C   0  0  2  0  0  0  0  0  0  0  0  0
  197.4128  187.0455  158.3749 C   0  0  2  0  0  0  0  0  0  0  0  0
  197.6391  184.0115  159.7683 H   0  0  0  0  0  0  0  0  0  0  0  0
  190.9381  187.4203  164.9279 H   0  0  0  0  0  0  0  0  0  0  0  0
  192.1802  186.0800  163.2444 H   0  0  0  0  0  0  0  0  0  0  0  0
  194.2475  189.6554  161.9555 H   0  0  0  0  0  0  0  0  0  0  0  0
  193.0040  190.9754  163.6453 H   0  0  0  0  0  0  0  0  0  0  0  0
  194.3083  184.1282  158.2377 H   0  0  0  0  0  0  0  0  0  0  0  0
  193.1222  183.7627  159.4633 H   0  0  0  0  0  0  0  0  0  0  0  0
  194.7799  183.1682  159.6444 H   0  0  0  0  0  0  0  0  0  0  0  0
  196.5339  185.0960  158.1863 H   0  0  0  0  0  0  0  0  0  0  0  0
  199.4865  185.8693  158.4826 H   0  0  0  0  0  0  0  0  0  0  0  0
  199.9783  185.1548  159.9979 H   0  0  0  0  0  0  0  0  0  0  0  0
  197.8895  183.8433  157.0849 H   0  0  0  0  0  0  0  0  0  0  0  0
  200.8470  180.8199  156.1852 H   0  0  0  0  0  0  0  0  0  0  0  0
  202.2438  181.6134  158.0442 H   0  0  0  0  0  0  0  0  0  0  0  0
  201.5360  183.5853  159.3908 H   0  0  0  0  0  0  0  0  0  0  0  0
  197.4796  182.3947  155.3044 H   0  0  0  0  0  0  0  0  0  0  0  0
  198.8350  181.6498  154.4997 H   0  0  0  0  0  0  0  0  0  0  0  0
  199.2817  179.1743  154.9412 H   0  0  0  0  0  0  0  0  0  0  0  0
  198.2159  178.2799  156.0375 H   0  0  0  0  0  0  0  0  0  0  0  0
  199.4088  179.3844  156.7114 H   0  0  0  0  0  0  0  0  0  0  0  0
  196.9775  179.8689  153.8610 H   0  0  0  0  0  0  0  0  0  0  0  0
  195.8581  180.7658  154.8927 H   0  0  0  0  0  0  0  0  0  0  0  0
  196.1852  179.0507  155.2231 H   0  0  0  0  0  0  0  0  0  0  0  0
  196.5779  187.6360  157.9486 H   0  0  0  0  0  0  0  0  0  0  0  0
  198.1666  186.8572  157.6315 H   0  0  0  0  0  0  0  0  0  0  0  0
  197.8741  187.6561  159.1568 H   0  0  0  0  0  0  0  0  0  0  0  0
  197.2989  180.4207  156.7175 H   0  0  0  0  0  0  0  0  0  0  0  0
  1  2  1  0
  2  3  1  0
  2  7  2  0
  3  4  2  0
  3 29  1  0
  4  5  1  0
  4 30  1  0
  5  6  2  0
  5  8  1  0
  6  7  1  0
  6 31  1  0
  7 32  1  0
  8  9  1  0
  8 12  2  0
  9 10  1  0
 10 11  2  0
 10 14  1  0
 11 12  1  0
 11 13  1  0
 13 33  1  6
 13 34  1  0
 13 35  1  0
 14 15  1  0
 14 27  1  0
 14 36  1  6
 15 16  1  0
 15 28  1  0
 16 17  1  0
 16 37  1  6
 16 38  1  0
 17 18  2  0
 17 22  1  0
 18 19  1  0
 18 39  1  0
 19 20  2  0
 19 23  1  0
 20 21  1  0
 20 40  1  0
 21 22  2  0
 21 41  1  0
 22 42  1  0
 23 24  1  0
 23 43  1  6
 23 44  1  0
 24 25  1  0
 24 26  1  0
 24 54  1  1
 25 45  1  6
 25 46  1  0
 25 47  1  0
 26 48  1  6
 26 49  1  0
 26 50  1  0
 27 51  1  6
 27 52  1  0
 27 53  1  0
M  CHG  1  24   1
M  END
>  <s_epik_cmdline>  (422) 
J2VwaWtfcHl0aG9uJywgJy1waCcsICc3LjAwMDAwMCcsICctcGh0JywgJzIuMDAwMDAwJywgJy1tcycsICcxNicsICctdG4nLCAnOCcsICctbWEnLCAnMjAwJywgJy1pbWFlJywgJzxpbmZpbGUubWFlPicsICctb21hZScsICc8b3V0ZmlsZS5tYWU+Jw==

>  <s_epik_input>  (422) 
Q2xjMVtjSF1bY0hdYyhbY0hdW2NIXTEpLWMyc2MoYyhuMilbQ0gzXSlbQ0BASF0oW0NIM10pW05IXVtDSDJdYzNbY0hdYyhbY0hdW2NIXVtjSF0zKVtDSDJdTihbQ0gzXSlbQ0gzXQ==

>  <s_i_glide_gridfile>  (422) 
ATP-Grid

>  <s_lp_Force_Field>  (422) 
OPLS_2005

>  <s_lp_Variant>  (422) 
rxn207____EMOL722295____EMOL2873214-3

>  <s_lp_label>  (422) 
2352_sdstereoexpander_1_neutralizer_1_epik_2_stereoizer_1

>  <s_m_source_file>  (422) 
ATP-VSW-LIGPREP-001-in.maegz

>  <s_sd_BIOSOLVEIT.INFINISEE\_QUERY\_NAME>  (422) 
Ref-Lig

>  <s_sd_BIOSOLVEIT.INFINISEE\_QUERY\_SMILES>  (422) 
S(c1nc2c(cc1C[NH2+]Cc3ccc(cc3)C[NH+](C)C)cccc2)Cc4ccccc4

>  <s_sd_BIOSOLVEIT.INFINISEE\_REACTION\_NAME>  (422) 
rxn207

>  <s_sd_BIOSOLVEIT.INFINISEE\_REAGENT1\_NAME>  (422) 
EMOL722295

>  <s_sd_BIOSOLVEIT.INFINISEE\_REAGENT1\_SMILES>  (422) 
Clc1ccc(cc1)C=2SC(C(=O)C)=C(N2)C

>  <s_sd_BIOSOLVEIT.INFINISEE\_REAGENT2\_NAME>  (422) 
EMOL2873214

>  <s_sd_BIOSOLVEIT.INFINISEE\_REAGENT2\_SMILES>  (422) 
N(Cc1cc(ccc1)CN)(C)C

>  <s_sd_BIOSOLVEIT.INFINISEE\_SPACE>  (422) 
eXplore_7tr_2022-12

>  <s_vsw_compound_code>  (422) 
75233

>  <s_vsw_variant>  (422) 
75233-3

>  <r_epik_Charging_Adjusted_Penalty>  (422) 
0.66594977506660102

>  <r_epik_Ionization_Penalty>  (422) 
0.6119

>  <r_epik_Ionization_Penalty_Charging>  (422) 
0.044999999999999998

>  <r_epik_Ionization_Penalty_Neutral>  (422) 
0.56689999999999996

>  <r_epik_State_Penalty>  (422) 
0.62090000000000001

>  <r_i_docking_score>  (422) 
-4.6677838556131803

>  <r_i_glide_ecoul>  (422) 
-7.2956809997558603

>  <r_i_glide_eff_state_penalty>  (422) 
0.62090000000000001

>  <r_i_glide_einternal>  (422) 
9.1252803802490199

>  <r_i_glide_emodel>  (422) 
-55.959851906113897

>  <r_i_glide_energy>  (422) 
-41.398780822753899

>  <r_i_glide_erotb>  (422) 
0.73174119319227504

>  <r_i_glide_esite>  (422) 
-0.085011320290553

>  <r_i_glide_evdw>  (422) 
-34.103099822997997

>  <r_i_glide_gscore>  (422) 
-5.2886838556131801

>  <r_i_glide_hbond>  (422) 
-0.025693106280741999

>  <r_i_glide_ligand_efficiency>  (422) 
-0.17288088354122899

>  <r_i_glide_ligand_efficiency_ln>  (422) 
-1.0865831271555699

>  <r_i_glide_ligand_efficiency_sa>  (422) 
-0.51864265005389998

>  <r_i_glide_lipo>  (422) 
-2.2101356174845201

>  <r_i_glide_metal>  (422) 
-0

>  <r_i_glide_rewards>  (422) 
-0.900077863636362

>  <r_lp_Energy>  (422) 
14.407893

>  <r_qp_ACxDN^.5/SA>  (422) 
0.0068964999999999999

>  <r_qp_CIQPlogS>  (422) 
-4.2709999999999999

>  <r_qp_EA(eV)>  (422) 
1.1879999999999999

>  <r_qp_FISA>  (422) 
23.908000000000001

>  <r_qp_FOSA>  (422) 
342.21199999999999

>  <r_qp_IP(eV)>  (422) 
9.0329999999999995

>  <r_qp_Jm>  (422) 
0.00025792666344392302

>  <r_qp_PISA>  (422) 
265.58100000000002

>  <r_qp_PSA>  (422) 
28.849

>  <r_qp_PercentHumanOralAbsorption>  (422) 
100

>  <r_qp_QPPCaco>  (422) 
365.57900000000001

>  <r_qp_QPPMDCK>  (422) 
662.05100000000004

>  <r_qp_QPlogBB>  (422) 
0.97799999999999998

>  <r_qp_QPlogHERG>  (422) 
-7.516

>  <r_qp_QPlogKhsa>  (422) 
0.93999999999999995

>  <r_qp_QPlogKp>  (422) 
-4.5739999999999998

>  <r_qp_QPlogPC16>  (422) 
13.355

>  <r_qp_QPlogPo/w>  (422) 
4.8529999999999998

>  <r_qp_QPlogPoct>  (422) 
18.956

>  <r_qp_QPlogPw>  (422) 
8.532

>  <r_qp_QPlogS>  (422) 
-4.617

>  <r_qp_QPpolrz>  (422) 
44.914999999999999

>  <r_qp_SASA>  (422) 
725.00999999999999

>  <r_qp_SAamideO>  (422) 
0

>  <r_qp_SAfluorine>  (422) 
0

>  <r_qp_WPSA>  (422) 
93.308999999999997

>  <r_qp_accptHB>  (422) 
5

>  <r_qp_dip^2/V>  (422) 
0.0038539999999999998

>  <r_qp_dipole>  (422) 
2.246

>  <r_qp_donorHB>  (422) 
1

>  <r_qp_glob>  (422) 
0.79819110000000004

>  <r_qp_mol_MW>  (422) 
399.98000000000002

>  <r_qp_volume>  (422) 
1308.9670000000001

>  <r_sd_BIOSOLVEIT.INFINISEE\_FTREES\_SIMILARITY>  (422) 
0.92000000000000004

>  <r_sd_BIOSOLVEIT.LOGP>  (422) 
3.2410199999999998

>  <r_sd_BIOSOLVEIT.MOLECULAR\_WEIGHT>  (422) 
402.00200000000001

>  <r_sd_BIOSOLVEIT.TPSA>  (422) 
33.939999999999998

>  <i_epik_Tot_Q>  (422) 
1

>  <i_epik_Tot_abs_Q>  (422) 
1

>  <i_f3d_flags>  (422) 
0

>  <i_i_glide_confnum>  (422) 
1

>  <i_i_glide_lignum>  (422) 
850

>  <i_i_glide_posenum>  (422) 
12

>  <i_i_glide_rotatable_bonds>  (422) 
7

>  <i_lp_mmshare_version>  (422) 
65135

>  <i_m_ct_format>  (422) 
2

>  <i_m_source_file_index>  (422) 
2352

>  <i_qp_#NandO>  (422) 
3

>  <i_qp_#acid>  (422) 
0

>  <i_qp_#amide>  (422) 
0

>  <i_qp_#amidine>  (422) 
0

>  <i_qp_#amine>  (422) 
2

>  <i_qp_#in34>  (422) 
0

>  <i_qp_#in56>  (422) 
17

>  <i_qp_#metab>  (422) 
7

>  <i_qp_#nonHatm>  (422) 
27

>  <i_qp_#noncon>  (422) 
0

>  <i_qp_#ringatoms>  (422) 
17

>  <i_qp_#rotor>  (422) 
6

>  <i_qp_#rtvFG>  (422) 
0

>  <i_qp_#stars>  (422) 
0

>  <i_qp_CNS>  (422) 
2

>  <i_qp_HumanOralAbsorption>  (422) 
3

>  <i_qp_RuleOfFive>  (422) 
0

>  <i_qp_RuleOfThree>  (422) 
1

>  <i_sd_BIOSOLVEIT.INFINISEE\_RESULT\_RANK>  (422) 
16112

>  <i_sd_version>  (422) 
0

>  <b_lp_Chiralities_Consistent>  (422) 
1

>  <b_sd_chiral_flag>  (422) 
0

>  <canonical_id>  (422) 
ATP-HTVS-43DC0EBD36ED

>  <compound_code>  (422) 
75233

>  <title>  (422) 
rxn207____EMOL722295____EMOL2873214

>  <variant>  (422) 
75233-3

>  <source_file>  (422) 
运行/运行/ATP-VSW/ATP-VSW-DOCK_HTVS_1-001_lib/ATP-VSW-DOCK_HTVS_1-001_lib

>  <canonical_smiles>  (422) 
Cc1nc(-c2ccc(Cl)cc2)sc1[C@@H](C)NCc1cccc(C[NH+](C)C)c1

>  <scaffold>  (422) 
c1ccc(CNCc2cnc(-c3ccccc3)s2)cc1

>  <molecular_formula>  (422) 
C22H27ClN3S+

$$$$
ATP-HTVS-43DEA6C9D172
     RDKit          3D

 58 62  0  0  0  0  0  0  0  0999 V2000
  200.3792  180.6229  153.1123 O   0  0  0  0  0  0  0  0  0  0  0  0
  199.3684  181.1585  153.5675 C   0  0  0  0  0  0  0  0  0  0  0  0
  198.1423  180.6192  153.7458 N   0  0  0  0  0  0  0  0  0  0  0  0
  197.1741  181.5446  154.3900 C   0  0  2  0  0  0  0  0  0  0  0  0
  197.9790  182.8297  154.4413 C   0  0  0  0  0  0  0  0  0  0  0  0
  199.2615  182.5732  153.9886 C   0  0  0  0  0  0  0  0  0  0  0  0
  200.2449  183.5754  153.9252 C   0  0  0  0  0  0  0  0  0  0  0  0
  199.8816  184.8774  154.3371 C   0  0  0  0  0  0  0  0  0  0  0  0
  198.5659  185.1494  154.7865 C   0  0  0  0  0  0  0  0  0  0  0  0
  197.5946  184.1254  154.8364 C   0  0  0  0  0  0  0  0  0  0  0  0
  196.7754  181.0482  155.8074 C   0  0  1  0  0  0  0  0  0  0  0  0
  195.9559  182.0427  156.5327 N   0  0  1  0  0  0  0  0  0  0  0  0
  195.8623  181.8445  157.9937 C   0  0  1  0  0  0  0  0  0  0  0  0
  195.5355  183.1696  158.6679 C   0  0  0  0  0  0  0  0  0  0  0  0
  196.5497  184.1401  158.9193 C   0  0  0  0  0  0  0  0  0  0  0  0
  197.8622  183.9088  158.4669 N   0  0  0  0  0  0  0  0  0  0  0  0
  198.9271  184.8006  158.9143 C   0  0  1  0  0  0  0  0  0  0  0  0
  198.4695  186.2567  158.9755 C   0  0  1  0  0  0  0  0  0  0  0  0
  197.2458  186.4155  159.8806 C   0  0  1  0  0  0  0  0  0  0  0  0
  196.2028  185.3498  159.5997 C   0  0  0  0  0  0  0  0  0  0  0  0
  194.8804  185.5750  160.0171 C   0  0  0  0  0  0  0  0  0  0  0  0
  193.8963  184.6260  159.7306 C   0  0  0  0  0  0  0  0  0  0  0  0
  194.2130  183.4434  159.0516 C   0  0  0  0  0  0  0  0  0  0  0  0
  197.7512  179.2914  153.2843 C   0  0  1  0  0  0  0  0  0  0  0  0
  197.6262  179.1842  151.7739 C   0  0  0  0  0  0  0  0  0  0  0  0
  196.4677  179.6604  151.1283 C   0  0  0  0  0  0  0  0  0  0  0  0
  196.3455  179.5489  149.7308 C   0  0  0  0  0  0  0  0  0  0  0  0
  197.3774  178.9703  148.9686 C   0  0  0  0  0  0  0  0  0  0  0  0
  198.5390  178.5002  149.6083 C   0  0  0  0  0  0  0  0  0  0  0  0
  198.6619  178.6042  151.0103 C   0  0  0  0  0  0  0  0  0  0  0  0
  196.3792  182.9455  156.3905 H   0  0  0  0  0  0  0  0  0  0  0  0
  196.3007  181.6869  153.7470 H   0  0  0  0  0  0  0  0  0  0  0  0
  201.2385  183.3615  153.5593 H   0  0  0  0  0  0  0  0  0  0  0  0
  200.6072  185.6764  154.2941 H   0  0  0  0  0  0  0  0  0  0  0  0
  198.2971  186.1522  155.0854 H   0  0  0  0  0  0  0  0  0  0  0  0
  196.5903  184.3543  155.1543 H   0  0  0  0  0  0  0  0  0  0  0  0
  196.2283  180.1066  155.7373 H   0  0  0  0  0  0  0  0  0  0  0  0
  197.6868  180.8370  156.3721 H   0  0  0  0  0  0  0  0  0  0  0  0
  195.0905  181.1192  158.2361 H   0  0  0  0  0  0  0  0  0  0  0  0
  196.7942  181.4678  158.4128 H   0  0  0  0  0  0  0  0  0  0  0  0
  198.1533  182.9959  158.1279 H   0  0  0  0  0  0  0  0  0  0  0  0
  199.2983  184.4665  159.8806 H   0  0  0  0  0  0  0  0  0  0  0  0
  199.7412  184.7049  158.2043 H   0  0  0  0  0  0  0  0  0  0  0  0
  199.2750  186.8972  159.3198 H   0  0  0  0  0  0  0  0  0  0  0  0
  198.2141  186.5899  157.9695 H   0  0  0  0  0  0  0  0  0  0  0  0
  197.5296  186.3034  160.9231 H   0  0  0  0  0  0  0  0  0  0  0  0
  196.8187  187.4162  159.7793 H   0  0  0  0  0  0  0  0  0  0  0  0
  194.5958  186.4890  160.5141 H   0  0  0  0  0  0  0  0  0  0  0  0
  192.8679  184.8217  160.0094 H   0  0  0  0  0  0  0  0  0  0  0  0
  193.4294  182.7279  158.8463 H   0  0  0  0  0  0  0  0  0  0  0  0
  198.4649  178.5551  153.6629 H   0  0  0  0  0  0  0  0  0  0  0  0
  196.7877  179.0407  153.7178 H   0  0  0  0  0  0  0  0  0  0  0  0
  195.6634  180.0947  151.7032 H   0  0  0  0  0  0  0  0  0  0  0  0
  195.4464  179.8794  149.2359 H   0  0  0  0  0  0  0  0  0  0  0  0
  197.2810  178.8870  147.8958 H   0  0  0  0  0  0  0  0  0  0  0  0
  199.3315  178.0525  149.0223 H   0  0  0  0  0  0  0  0  0  0  0  0
  199.5540  178.2406  151.5012 H   0  0  0  0  0  0  0  0  0  0  0  0
  195.0034  182.1307  156.1461 H   0  0  0  0  0  0  0  0  0  0  0  0
  1  2  2  0
  2  3  1  0
  2  6  1  0
  3  4  1  0
  3 24  1  0
  4  5  1  0
  4 11  1  0
  4 32  1  6
  5  6  1  0
  5 10  2  0
  6  7  2  0
  7  8  1  0
  7 33  1  0
  8  9  2  0
  8 34  1  0
  9 10  1  0
  9 35  1  0
 10 36  1  0
 11 12  1  0
 11 37  1  6
 11 38  1  0
 12 13  1  0
 12 31  1  1
 12 58  1  0
 13 14  1  0
 13 39  1  6
 13 40  1  0
 14 15  1  0
 14 23  2  0
 15 16  1  0
 15 20  2  0
 16 17  1  0
 16 41  1  0
 17 18  1  0
 17 42  1  1
 17 43  1  0
 18 19  1  0
 18 44  1  1
 18 45  1  0
 19 20  1  0
 19 46  1  1
 19 47  1  0
 20 21  1  0
 21 22  2  0
 21 48  1  0
 22 23  1  0
 22 49  1  0
 23 50  1  0
 24 25  1  0
 24 51  1  1
 24 52  1  0
 25 26  2  0
 25 30  1  0
 26 27  1  0
 26 53  1  0
 27 28  2  0
 27 54  1  0
 28 29  1  0
 28 55  1  0
 29 30  2  0
 29 56  1  0
 30 57  1  0
M  CHG  1  12   1
M  END
>  <s_epik_cmdline>  (423) 
J2VwaWtfcHl0aG9uJywgJy1waCcsICc3LjAwMDAwMCcsICctcGh0JywgJzIuMDAwMDAwJywgJy1tcycsICcxNicsICctdG4nLCAnOCcsICctbWEnLCAnMjAwJywgJy1pbWFlJywgJzxpbmZpbGUubWFlPicsICctb21hZScsICc8b3V0ZmlsZS5tYWU+Jw==

>  <s_epik_input>  (423) 
W2NIXTFbY0hdW2NIXVtjSF1bY0hdYzFbQ0gyXU4oQyg9TyljKGMyMylbY0hdW2NIXVtjSF1bY0hdMylbQ0BIXTJbQ0gyXVtOSF1bQ0gyXWM0W2NIXVtjSF1bY0hdYyhjNDUpW0NIMl1bQ0gyXVtDSDJdW05IXTU=

>  <s_i_glide_gridfile>  (423) 
ATP-Grid

>  <s_lp_Force_Field>  (423) 
OPLS_2005

>  <s_lp_Variant>  (423) 
m_270004bbb____12219716____12296670-1

>  <s_lp_label>  (423) 
998_sdstereoexpander_1_neutralizer_1_epik_1_stereoizer_1

>  <s_m_source_file>  (423) 
ATP-VSW-LIGPREP-003-in.maegz

>  <s_sd_BIOSOLVEIT.INFINISEE\_QUERY\_NAME>  (423) 
Ref-Lig

>  <s_sd_BIOSOLVEIT.INFINISEE\_QUERY\_SMILES>  (423) 
S(c1nc2c(cc1C[NH2+]Cc3ccc(cc3)C[NH+](C)C)cccc2)Cc4ccccc4

>  <s_sd_BIOSOLVEIT.INFINISEE\_REACTION\_NAME>  (423) 
m_270004bbb

>  <s_sd_BIOSOLVEIT.INFINISEE\_REAGENT1\_SMILES>  (423) 
[R1*]NCC1N(C(=O)c2c1cccc2)Cc3ccccc3

>  <s_sd_BIOSOLVEIT.INFINISEE\_REAGENT2\_SMILES>  (423) 
[R1*]Cc1c2NCCCc2ccc1

>  <s_sd_BIOSOLVEIT.INFINISEE\_SPACE>  (423) 
REALSpace_44bn_2023-08

>  <s_vsw_compound_code>  (423) 
31907

>  <s_vsw_variant>  (423) 
31907-1

>  <r_epik_Charging_Adjusted_Penalty>  (423) 
0.0658118444833104

>  <r_epik_Ionization_Penalty>  (423) 
0.050500000000000003

>  <r_epik_Ionization_Penalty_Charging>  (423) 
0.050299999999999997

>  <r_epik_Ionization_Penalty_Neutral>  (423) 
0.00020000000000000001

>  <r_epik_State_Penalty>  (423) 
0.0155

>  <r_i_docking_score>  (423) 
-5.4091710485510198

>  <r_i_glide_ecoul>  (423) 
-10.8996686935425

>  <r_i_glide_eff_state_penalty>  (423) 
0.0155

>  <r_i_glide_einternal>  (423) 
2.9624109268188499

>  <r_i_glide_emodel>  (423) 
-59.096879576512698

>  <r_i_glide_energy>  (423) 
-40.100043296814

>  <r_i_glide_erotb>  (423) 
0.61659974599645295

>  <r_i_glide_esite>  (423) 
-0.095810919394737806

>  <r_i_glide_evdw>  (423) 
-29.200374603271499

>  <r_i_glide_gscore>  (423) 
-5.4246710485510201

>  <r_i_glide_hbond>  (423) 
-0.20000000000000001

>  <r_i_glide_ligand_efficiency>  (423) 
-0.18030570161836701

>  <r_i_glide_ligand_efficiency_ln>  (423) 
-1.2290225998699

>  <r_i_glide_ligand_efficiency_sa>  (423) 
-0.56025173644223303

>  <r_i_glide_lipo>  (423) 
-1.9585818864123401

>  <r_i_glide_metal>  (423) 
-0

>  <r_i_glide_rewards>  (423) 
-0.69190895454545298

>  <r_lp_Energy>  (423) 
44.831004999999998

>  <r_qp_ACxDN^.5/SA>  (423) 
0.0105185

>  <r_qp_CIQPlogS>  (423) 
-5.2229999999999999

>  <r_qp_EA(eV)>  (423) 
0.25

>  <r_qp_FISA>  (423) 
51.116

>  <r_qp_FOSA>  (423) 
238.91

>  <r_qp_IP(eV)>  (423) 
8.2240000000000002

>  <r_qp_Jm>  (423) 
0.00679413881866956

>  <r_qp_PISA>  (423) 
449.44900000000001

>  <r_qp_PSA>  (423) 
52.231000000000002

>  <r_qp_PercentHumanOralAbsorption>  (423) 
100

>  <r_qp_QPPCaco>  (423) 
809.22199999999998

>  <r_qp_QPPMDCK>  (423) 
435.37299999999999

>  <r_qp_QPlogBB>  (423) 
0.053999999999999999

>  <r_qp_QPlogHERG>  (423) 
-7.8029999999999999

>  <r_qp_QPlogKhsa>  (423) 
0.83099999999999996

>  <r_qp_QPlogKp>  (423) 
-2.3650000000000002

>  <r_qp_QPlogPC16>  (423) 
14.609999999999999

>  <r_qp_QPlogPo/w>  (423) 
4.7869999999999999

>  <r_qp_QPlogPoct>  (423) 
21.945

>  <r_qp_QPlogPw>  (423) 
11.927

>  <r_qp_QPlogS>  (423) 
-5.4020000000000001

>  <r_qp_QPpolrz>  (423) 
47.393999999999998

>  <r_qp_SASA>  (423) 
739.476

>  <r_qp_SAamideO>  (423) 
0

>  <r_qp_SAfluorine>  (423) 
0

>  <r_qp_WPSA>  (423) 
0

>  <r_qp_accptHB>  (423) 
5.5

>  <r_qp_dip^2/V>  (423) 
0.0374151

>  <r_qp_dipole>  (423) 
7.0460000000000003

>  <r_qp_donorHB>  (423) 
2

>  <r_qp_glob>  (423) 
0.78976539999999995

>  <r_qp_mol_MW>  (423) 
397.51900000000001

>  <r_qp_volume>  (423) 
1327.0440000000001

>  <r_sd_BIOSOLVEIT.INFINISEE\_FTREES\_SIMILARITY>  (423) 
0.91600000000000004

>  <r_sd_BIOSOLVEIT.LOGP>  (423) 
3.5053999999999998

>  <r_sd_BIOSOLVEIT.MOLECULAR\_WEIGHT>  (423) 
398.52699999999999

>  <r_sd_BIOSOLVEIT.TPSA>  (423) 
48.950000000000003

>  <i_epik_Tot_Q>  (423) 
1

>  <i_epik_Tot_abs_Q>  (423) 
1

>  <i_f3d_flags>  (423) 
0

>  <i_i_glide_confnum>  (423) 
2

>  <i_i_glide_lignum>  (423) 
372

>  <i_i_glide_posenum>  (423) 
13

>  <i_i_glide_rotatable_bonds>  (423) 
6

>  <i_lp_mmshare_version>  (423) 
65135

>  <i_m_ct_format>  (423) 
2

>  <i_m_source_file_index>  (423) 
998

>  <i_qp_#NandO>  (423) 
4

>  <i_qp_#acid>  (423) 
0

>  <i_qp_#amide>  (423) 
0

>  <i_qp_#amidine>  (423) 
0

>  <i_qp_#amine>  (423) 
1

>  <i_qp_#in34>  (423) 
0

>  <i_qp_#in56>  (423) 
25

>  <i_qp_#metab>  (423) 
7

>  <i_qp_#nonHatm>  (423) 
30

>  <i_qp_#noncon>  (423) 
4

>  <i_qp_#ringatoms>  (423) 
25

>  <i_qp_#rotor>  (423) 
6

>  <i_qp_#rtvFG>  (423) 
0

>  <i_qp_#stars>  (423) 
0

>  <i_qp_CNS>  (423) 
1

>  <i_qp_HumanOralAbsorption>  (423) 
3

>  <i_qp_RuleOfFive>  (423) 
0

>  <i_qp_RuleOfThree>  (423) 
1

>  <i_sd_BIOSOLVEIT.INFINISEE\_REAGENT1\_NAME>  (423) 
12219716

>  <i_sd_BIOSOLVEIT.INFINISEE\_REAGENT2\_NAME>  (423) 
12296670

>  <i_sd_BIOSOLVEIT.INFINISEE\_RESULT\_RANK>  (423) 
25819

>  <i_sd_version>  (423) 
0

>  <b_lp_Chiralities_Consistent>  (423) 
1

>  <b_sd_chiral_flag>  (423) 
0

>  <canonical_id>  (423) 
ATP-HTVS-43DEA6C9D172

>  <compound_code>  (423) 
31907

>  <title>  (423) 
m_270004bbb____12219716____12296670

>  <variant>  (423) 
31907-1

>  <source_file>  (423) 
运行/运行/ATP-VSW/ATP-VSW-DOCK_HTVS_1-003_lib/ATP-VSW-DOCK_HTVS_1-003_lib.mae

>  <canonical_smiles>  (423) 
O=C1c2ccccc2[C@H](C[NH2+]Cc2cccc3c2NCCC3)N1Cc1ccccc1

>  <scaffold>  (423) 
O=C1c2ccccc2C(C[NH2+]Cc2cccc3c2NCCC3)N1Cc1ccccc1

>  <molecular_formula>  (423) 
C26H28N3O+

$$$$
ATP-HTVS-43E54E69D2FC
     RDKit          3D

 45 48  0  0  0  0  0  0  0  0999 V2000
  198.9642  186.1885  153.9333 Cl  0  0  0  0  0  0  0  0  0  0  0  0
  199.4172  187.8125  154.3434 C   0  0  0  0  0  0  0  0  0  0  0  0
  199.6577  188.2399  155.6797 C   0  0  0  0  0  0  0  0  0  0  0  0
  200.0597  189.5764  155.9041 C   0  0  0  0  0  0  0  0  0  0  0  0
  200.2159  190.4750  154.8302 C   0  0  0  0  0  0  0  0  0  0  0  0
  199.9616  190.0456  153.5143 C   0  0  0  0  0  0  0  0  0  0  0  0
  200.1077  190.9120  152.4855 F   0  0  0  0  0  0  0  0  0  0  0  0
  199.5611  188.7177  153.2766 C   0  0  0  0  0  0  0  0  0  0  0  0
  199.5239  187.3153  156.8878 C   0  0  1  0  0  0  0  0  0  0  0  0
  198.1580  186.8769  157.1940 N   0  0  0  0  0  0  0  0  0  0  0  0
  198.1803  185.7535  158.1600 C   0  0  2  0  0  0  0  0  0  0  0  0
  198.8868  184.5258  157.5702 C   0  0  0  0  0  0  0  0  0  0  0  0
  199.7711  183.7243  158.3390 C   0  0  0  0  0  0  0  0  0  0  0  0
  200.0093  184.0169  159.6418 F   0  0  0  0  0  0  0  0  0  0  0  0
  200.3987  182.6071  157.7434 C   0  0  0  0  0  0  0  0  0  0  0  0
  200.1523  182.2852  156.3963 C   0  0  0  0  0  0  0  0  0  0  0  0
  199.2521  183.0625  155.6443 C   0  0  0  0  0  0  0  0  0  0  0  0
  198.5954  184.1518  156.2432 C   0  0  0  0  0  0  0  0  0  0  0  0
  196.7971  185.3509  158.6967 C   0  0  0  0  0  0  0  0  0  0  0  0
  196.0901  186.2299  159.5653 C   0  0  0  0  0  0  0  0  0  0  0  0
  196.6012  187.5089  159.9170 N   0  0  0  0  0  0  0  0  0  0  0  0
  197.2206  188.3767  159.0939 C   0  0  0  0  0  0  0  0  0  0  0  0
  197.6662  189.4380  159.5001 O   0  0  0  0  0  0  0  0  0  0  0  0
  197.2973  188.0331  157.5946 C   0  0  1  0  0  0  0  0  0  0  0  0
  194.8695  185.8200  160.1367 C   0  0  0  0  0  0  0  0  0  0  0  0
  194.3112  184.5677  159.8153 C   0  0  0  0  0  0  0  0  0  0  0  0
  194.9934  183.6971  158.9555 C   0  0  0  0  0  0  0  0  0  0  0  0
  194.3373  182.1456  158.5889 Cl  0  0  0  0  0  0  0  0  0  0  0  0
  196.2217  184.0852  158.4035 C   0  0  0  0  0  0  0  0  0  0  0  0
  200.2545  189.9121  156.9124 H   0  0  0  0  0  0  0  0  0  0  0  0
  200.5332  191.4961  155.0211 H   0  0  0  0  0  0  0  0  0  0  0  0
  199.3678  188.3878  152.2672 H   0  0  0  0  0  0  0  0  0  0  0  0
  200.1902  186.4811  156.6726 H   0  0  0  0  0  0  0  0  0  0  0  0
  199.9499  187.7912  157.7707 H   0  0  0  0  0  0  0  0  0  0  0  0
  198.7632  186.0781  159.0242 H   0  0  0  0  0  0  0  0  0  0  0  0
  201.0483  181.9814  158.3391 H   0  0  0  0  0  0  0  0  0  0  0  0
  200.6195  181.4292  155.9432 H   0  0  0  0  0  0  0  0  0  0  0  0
  199.0397  182.8280  154.6121 H   0  0  0  0  0  0  0  0  0  0  0  0
  197.8629  184.7131  155.6741 H   0  0  0  0  0  0  0  0  0  0  0  0
  196.4225  187.8442  160.8536 H   0  0  0  0  0  0  0  0  0  0  0  0
  197.5629  188.9454  157.0527 H   0  0  0  0  0  0  0  0  0  0  0  0
  196.2832  187.8118  157.2588 H   0  0  0  0  0  0  0  0  0  0  0  0
  194.3309  186.4758  160.8058 H   0  0  0  0  0  0  0  0  0  0  0  0
  193.3678  184.2612  160.2276 H   0  0  0  0  0  0  0  0  0  0  0  0
  196.6902  183.3538  157.7623 H   0  0  0  0  0  0  0  0  0  0  0  0
  1  2  1  0
  2  3  2  0
  2  8  1  0
  3  4  1  0
  3  9  1  0
  4  5  2  0
  4 30  1  0
  5  6  1  0
  5 31  1  0
  6  7  1  0
  6  8  2  0
  8 32  1  0
  9 10  1  0
  9 33  1  6
  9 34  1  0
 10 11  1  0
 10 24  1  0
 11 12  1  0
 11 19  1  0
 11 35  1  1
 12 13  1  0
 12 18  2  0
 13 14  1  0
 13 15  2  0
 15 16  1  0
 15 36  1  0
 16 17  2  0
 16 37  1  0
 17 18  1  0
 17 38  1  0
 18 39  1  0
 19 20  2  0
 19 29  1  0
 20 21  1  0
 20 25  1  0
 21 22  1  0
 21 40  1  0
 22 23  2  0
 22 24  1  0
 24 41  1  6
 24 42  1  0
 25 26  2  0
 25 43  1  0
 26 27  1  0
 26 44  1  0
 27 28  1  0
 27 29  2  0
 29 45  1  0
M  END
>  <s_epik_cmdline>  (424) 
J2VwaWtfcHl0aG9uJywgJy1waCcsICc3LjAwMDAwMCcsICctcGh0JywgJzIuMDAwMDAwJywgJy1tcycsICcxNicsICctdG4nLCAnOCcsICctbWEnLCAnMjAwJywgJy1pbWFlJywgJzxpbmZpbGUubWFlPicsICctb21hZScsICc8b3V0ZmlsZS5tYWU+Jw==

>  <s_epik_input>  (424) 
W2NIXTFbY0hdW2NIXVtjSF1jKEYpYzFbQ0BIXTJOKFtDSDJdYyhjM0NsKVtjSF1bY0hdYyhGKVtjSF0zKVtDSDJdQyg9TylbTkhdYyhjMjQpW2NIXVtjSF1jKENsKVtjSF00

>  <s_i_glide_gridfile>  (424) 
ATP-Grid

>  <s_lp_Force_Field>  (424) 
OPLS_2005

>  <s_lp_Variant>  (424) 
m_2230bdc____14772912____666388-2

>  <s_lp_label>  (424) 
1556_sdstereoexpander_3_neutralizer_1_epik_1_stereoizer_1

>  <s_m_source_file>  (424) 
ATP-VSW-LIGPREP-001-in.maegz

>  <s_sd_BIOSOLVEIT.INFINISEE\_QUERY\_NAME>  (424) 
Ref-Lig

>  <s_sd_BIOSOLVEIT.INFINISEE\_QUERY\_SMILES>  (424) 
S(c1nc2c(cc1C[NH2+]Cc3ccc(cc3)C[NH+](C)C)cccc2)Cc4ccccc4

>  <s_sd_BIOSOLVEIT.INFINISEE\_REACTION\_NAME>  (424) 
m_2230bdc

>  <s_sd_BIOSOLVEIT.INFINISEE\_REAGENT1\_SMILES>  (424) 
[R1*]N1C(c2c(F)cccc2)c3c(NC(=O)C1)ccc(Cl)c3

>  <s_sd_BIOSOLVEIT.INFINISEE\_REAGENT2\_SMILES>  (424) 
[R1*]Cc1c(Cl)cc(F)cc1

>  <s_sd_BIOSOLVEIT.INFINISEE\_SPACE>  (424) 
REALSpace_44bn_2023-08

>  <s_vsw_compound_code>  (424) 
49761

>  <s_vsw_variant>  (424) 
49761-2

>  <r_epik_Charging_Adjusted_Penalty>  (424) 
0.0045720550350946999

>  <r_epik_Ionization_Penalty>  (424) 
0.0045999999999999999

>  <r_epik_Ionization_Penalty_Charging>  (424) 
0

>  <r_epik_Ionization_Penalty_Neutral>  (424) 
0.0045999999999999999

>  <r_epik_State_Penalty>  (424) 
0.0045999999999999999

>  <r_i_docking_score>  (424) 
-1.47586439099717

>  <r_i_glide_ecoul>  (424) 
1.4484279155731199

>  <r_i_glide_eff_state_penalty>  (424) 
0.0045999999999999999

>  <r_i_glide_einternal>  (424) 
0.026060214266180999

>  <r_i_glide_emodel>  (424) 
-33.2876245176287

>  <r_i_glide_energy>  (424) 
-30.6318409442902

>  <r_i_glide_erotb>  (424) 
0.318103201506231

>  <r_i_glide_esite>  (424) 
0

>  <r_i_glide_evdw>  (424) 
-32.080268859863303

>  <r_i_glide_gscore>  (424) 
-1.48046439099717

>  <r_i_glide_hbond>  (424) 
0

>  <r_i_glide_ligand_efficiency>  (424) 
-0.050891875551626498

>  <r_i_glide_ligand_efficiency_ln>  (424) 
-0.33793552084648698

>  <r_i_glide_ligand_efficiency_sa>  (424) 
-0.15635596537247301

>  <r_i_glide_lipo>  (424) 
-1.39509205860409

>  <r_i_glide_metal>  (424) 
-0

>  <r_i_glide_rewards>  (424) 
0.98327372175788796

>  <r_lp_Energy>  (424) 
53.642161000000002

>  <r_qp_ACxDN^.5/SA>  (424) 
0.0070555000000000001

>  <r_qp_CIQPlogS>  (424) 
-6.1369999999999996

>  <r_qp_EA(eV)>  (424) 
0.55100000000000005

>  <r_qp_FISA>  (424) 
67.558000000000007

>  <r_qp_FOSA>  (424) 
35.514000000000003

>  <r_qp_IP(eV)>  (424) 
9.4879999999999995

>  <r_qp_Jm>  (424) 
0.00052090457132236104

>  <r_qp_PISA>  (424) 
349.14800000000002

>  <r_qp_PSA>  (424) 
42.628

>  <r_qp_PercentHumanOralAbsorption>  (424) 
100

>  <r_qp_QPPCaco>  (424) 
565.12300000000005

>  <r_qp_QPPMDCK>  (424) 
3068.4349999999999

>  <r_qp_QPlogBB>  (424) 
0.65900000000000003

>  <r_qp_QPlogHERG>  (424) 
-6.5049999999999999

>  <r_qp_QPlogKhsa>  (424) 
0.83799999999999997

>  <r_qp_QPlogKp>  (424) 
-3.4049999999999998

>  <r_qp_QPlogPC16>  (424) 
12.478

>  <r_qp_QPlogPo/w>  (424) 
4.8520000000000003

>  <r_qp_QPlogPoct>  (424) 
19.192

>  <r_qp_QPlogPw>  (424) 
9.609

>  <r_qp_QPlogS>  (424) 
-5.5149999999999997

>  <r_qp_QPpolrz>  (424) 
42.597999999999999

>  <r_qp_SASA>  (424) 
637.798

>  <r_qp_SAamideO>  (424) 
0

>  <r_qp_SAfluorine>  (424) 
78.106999999999999

>  <r_qp_WPSA>  (424) 
185.577

>  <r_qp_accptHB>  (424) 
4.5

>  <r_qp_dip^2/V>  (424) 
0.021811500000000001

>  <r_qp_dipole>  (424) 
5.0449999999999999

>  <r_qp_donorHB>  (424) 
1

>  <r_qp_glob>  (424) 
0.84046549999999998

>  <r_qp_mol_MW>  (424) 
433.28399999999999

>  <r_qp_volume>  (424) 
1166.963

>  <r_sd_BIOSOLVEIT.INFINISEE\_FTREES\_SIMILARITY>  (424) 
0.90600000000000003

>  <r_sd_BIOSOLVEIT.LOGP>  (424) 
4.3982000000000001

>  <r_sd_BIOSOLVEIT.MOLECULAR\_WEIGHT>  (424) 
434.291

>  <r_sd_BIOSOLVEIT.TPSA>  (424) 
33.539999999999999

>  <i_epik_Tot_Q>  (424) 
0

>  <i_epik_Tot_abs_Q>  (424) 
0

>  <i_f3d_flags>  (424) 
0

>  <i_i_glide_confnum>  (424) 
4

>  <i_i_glide_lignum>  (424) 
412

>  <i_i_glide_posenum>  (424) 
17

>  <i_i_glide_rotatable_bonds>  (424) 
3

>  <i_lp_mmshare_version>  (424) 
65135

>  <i_m_ct_format>  (424) 
2

>  <i_m_source_file_index>  (424) 
1556

>  <i_qp_#NandO>  (424) 
3

>  <i_qp_#acid>  (424) 
0

>  <i_qp_#amide>  (424) 
0

>  <i_qp_#amidine>  (424) 
0

>  <i_qp_#amine>  (424) 
1

>  <i_qp_#in34>  (424) 
0

>  <i_qp_#in56>  (424) 
18

>  <i_qp_#metab>  (424) 
6

>  <i_qp_#nonHatm>  (424) 
29

>  <i_qp_#noncon>  (424) 
2

>  <i_qp_#ringatoms>  (424) 
23

>  <i_qp_#rotor>  (424) 
2

>  <i_qp_#rtvFG>  (424) 
0

>  <i_qp_#stars>  (424) 
1

>  <i_qp_CNS>  (424) 
2

>  <i_qp_HumanOralAbsorption>  (424) 
3

>  <i_qp_RuleOfFive>  (424) 
0

>  <i_qp_RuleOfThree>  (424) 
0

>  <i_sd_BIOSOLVEIT.INFINISEE\_REAGENT1\_NAME>  (424) 
14772912

>  <i_sd_BIOSOLVEIT.INFINISEE\_REAGENT2\_NAME>  (424) 
666388

>  <i_sd_BIOSOLVEIT.INFINISEE\_RESULT\_RANK>  (424) 
62772

>  <i_sd_version>  (424) 
0

>  <b_lp_Chiralities_Consistent>  (424) 
1

>  <b_sd_chiral_flag>  (424) 
0

>  <canonical_id>  (424) 
ATP-HTVS-43E54E69D2FC

>  <compound_code>  (424) 
49761

>  <title>  (424) 
m_2230bdc____14772912____666388

>  <variant>  (424) 
49761-2

>  <source_file>  (424) 
运行/运行/ATP-VSW/ATP-VSW-DOCK_HTVS_1-001_lib/ATP-VSW-DOCK_HTVS_1-001_lib

>  <canonical_smiles>  (424) 
O=C1CN(Cc2ccc(F)cc2Cl)[C@H](c2ccccc2F)c2cc(Cl)ccc2N1

>  <scaffold>  (424) 
O=C1CN(Cc2ccccc2)C(c2ccccc2)c2ccccc2N1

>  <molecular_formula>  (424) 
C22H16Cl2F2N2O

$$$$
ATP-HTVS-440AFC8B752D
     RDKit          3D

 61 64  0  0  0  0  0  0  0  0999 V2000
  203.4037  176.8927  147.1784 Cl  0  0  0  0  0  0  0  0  0  0  0  0
  201.6996  177.1623  147.1545 C   0  0  0  0  0  0  0  0  0  0  0  0
  201.0069  177.2439  148.3769 C   0  0  0  0  0  0  0  0  0  0  0  0
  199.6040  177.4712  148.4100 C   0  0  0  0  0  0  0  0  0  0  0  0
  198.9169  177.6209  147.1687 C   0  0  0  0  0  0  0  0  0  0  0  0
  197.5151  177.8361  147.1028 N   0  0  0  0  0  0  0  0  0  0  0  0
  196.7901  178.6081  147.9152 C   0  0  0  0  0  0  0  0  0  0  0  0
  195.5660  178.6326  147.8436 O   0  0  0  0  0  0  0  0  0  0  0  0
  197.5290  179.4930  148.9373 C   0  0  1  0  0  0  0  0  0  0  0  0
  198.1962  178.7885  150.0651 N   0  0  0  0  0  0  0  0  0  0  0  0
  198.8176  177.4860  149.7358 C   0  0  2  0  0  0  0  0  0  0  0  0
  199.6859  176.9739  150.8947 C   0  0  0  0  0  0  0  0  0  0  0  0
  200.5830  177.8359  151.5769 C   0  0  0  0  0  0  0  0  0  0  0  0
  200.7079  179.1323  151.2113 F   0  0  0  0  0  0  0  0  0  0  0  0
  201.3811  177.3547  152.6332 C   0  0  0  0  0  0  0  0  0  0  0  0
  201.3138  176.0016  153.0070 C   0  0  0  0  0  0  0  0  0  0  0  0
  200.4322  175.1302  152.3378 C   0  0  0  0  0  0  0  0  0  0  0  0
  199.6205  175.6150  151.2883 C   0  0  0  0  0  0  0  0  0  0  0  0
  197.2867  178.6752  151.2174 C   0  0  1  0  0  0  0  0  0  0  0  0
  197.4570  179.7854  152.2330 C   0  0  0  0  0  0  0  0  0  0  0  0
  198.1372  179.5216  153.4424 C   0  0  0  0  0  0  0  0  0  0  0  0
  198.2606  180.5251  154.4173 C   0  0  0  0  0  0  0  0  0  0  0  0
  197.6875  181.8009  154.1997 C   0  0  0  0  0  0  0  0  0  0  0  0
  197.7437  182.8046  155.1321 O   0  0  0  0  0  0  0  0  0  0  0  0
  197.5205  182.4544  156.4906 C   0  0  1  0  0  0  0  0  0  0  0  0
  196.0022  182.4209  156.7329 C   0  0  1  0  0  0  0  0  0  0  0  0
  195.6165  181.8422  158.0426 N   0  0  1  0  0  0  0  0  0  0  0  0
  196.2501  182.5220  159.1972 C   0  0  2  0  0  0  0  0  0  0  0  0
  194.1472  181.7655  158.1826 C   0  0  2  0  0  0  0  0  0  0  0  0
  197.0534  182.0748  152.9735 C   0  0  0  0  0  0  0  0  0  0  0  0
  196.9277  181.0705  151.9971 C   0  0  0  0  0  0  0  0  0  0  0  0
  199.6227  177.5119  145.9484 C   0  0  0  0  0  0  0  0  0  0  0  0
  201.0109  177.2897  145.9379 C   0  0  0  0  0  0  0  0  0  0  0  0
  201.6017  177.1158  149.2655 H   0  0  0  0  0  0  0  0  0  0  0  0
  197.0158  177.3720  146.3610 H   0  0  0  0  0  0  0  0  0  0  0  0
  198.2989  180.0556  148.4044 H   0  0  0  0  0  0  0  0  0  0  0  0
  196.8286  180.2492  149.2955 H   0  0  0  0  0  0  0  0  0  0  0  0
  198.0124  176.7613  149.6089 H   0  0  0  0  0  0  0  0  0  0  0  0
  202.0672  178.0358  153.1225 H   0  0  0  0  0  0  0  0  0  0  0  0
  201.9481  175.6367  153.7978 H   0  0  0  0  0  0  0  0  0  0  0  0
  200.3883  174.0876  152.6180 H   0  0  0  0  0  0  0  0  0  0  0  0
  198.9569  174.9341  150.7653 H   0  0  0  0  0  0  0  0  0  0  0  0
  196.2419  178.6473  150.9037 H   0  0  0  0  0  0  0  0  0  0  0  0
  197.4521  177.7500  151.7521 H   0  0  0  0  0  0  0  0  0  0  0  0
  198.5595  178.5504  153.6529 H   0  0  0  0  0  0  0  0  0  0  0  0
  198.7986  180.2747  155.3249 H   0  0  0  0  0  0  0  0  0  0  0  0
  197.9640  181.5061  156.7785 H   0  0  0  0  0  0  0  0  0  0  0  0
  197.9989  183.2346  157.0893 H   0  0  0  0  0  0  0  0  0  0  0  0
  195.6010  183.4310  156.6282 H   0  0  0  0  0  0  0  0  0  0  0  0
  195.5516  181.7956  155.9606 H   0  0  0  0  0  0  0  0  0  0  0  0
  195.9730  183.5770  159.2222 H   0  0  0  0  0  0  0  0  0  0  0  0
  197.3353  182.4436  159.1758 H   0  0  0  0  0  0  0  0  0  0  0  0
  195.9383  182.0613  160.1282 H   0  0  0  0  0  0  0  0  0  0  0  0
  193.6987  182.7601  158.1616 H   0  0  0  0  0  0  0  0  0  0  0  0
  193.8862  181.2794  159.1198 H   0  0  0  0  0  0  0  0  0  0  0  0
  193.7118  181.1753  157.3731 H   0  0  0  0  0  0  0  0  0  0  0  0
  196.6256  183.0494  152.7924 H   0  0  0  0  0  0  0  0  0  0  0  0
  196.3914  181.2970  151.0831 H   0  0  0  0  0  0  0  0  0  0  0  0
  199.1004  177.6073  145.0091 H   0  0  0  0  0  0  0  0  0  0  0  0
  201.5396  177.2143  145.0010 H   0  0  0  0  0  0  0  0  0  0  0  0
  195.9132  180.8630  158.0353 H   0  0  0  0  0  0  0  0  0  0  0  0
  1  2  1  0
  2  3  2  0
  2 33  1  0
  3  4  1  0
  3 34  1  0
  4  5  2  0
  4 11  1  0
  5  6  1  0
  5 32  1  0
  6  7  1  0
  6 35  1  0
  7  8  2  0
  7  9  1  0
  9 10  1  0
  9 36  1  6
  9 37  1  0
 10 11  1  0
 10 19  1  0
 11 12  1  0
 11 38  1  6
 12 13  1  0
 12 18  2  0
 13 14  1  0
 13 15  2  0
 15 16  1  0
 15 39  1  0
 16 17  2  0
 16 40  1  0
 17 18  1  0
 17 41  1  0
 18 42  1  0
 19 20  1  0
 19 43  1  6
 19 44  1  0
 20 21  1  0
 20 31  2  0
 21 22  2  0
 21 45  1  0
 22 23  1  0
 22 46  1  0
 23 24  1  0
 23 30  2  0
 24 25  1  0
 25 26  1  0
 25 47  1  1
 25 48  1  0
 26 27  1  0
 26 49  1  1
 26 50  1  0
 27 28  1  0
 27 29  1  0
 27 61  1  6
 28 51  1  1
 28 52  1  0
 28 53  1  0
 29 54  1  1
 29 55  1  0
 29 56  1  0
 30 31  1  0
 30 57  1  0
 31 58  1  0
 32 33  2  0
 32 59  1  0
 33 60  1  0
M  CHG  1  27   1
M  END
>  <s_epik_cmdline>  (425) 
J2VwaWtfcHl0aG9uJywgJy1waCcsICc3LjAwMDAwMCcsICctcGh0JywgJzIuMDAwMDAwJywgJy1tcycsICcxNicsICctdG4nLCAnOCcsICctbWEnLCAnMjAwJywgJy1pbWFlJywgJzxpbmZpbGUubWFlPicsICctb21hZScsICc8b3V0ZmlsZS5tYWU+Jw==

>  <s_epik_input>  (425) 
Q2xjKFtjSF0xKVtjSF1bY0hdYyhjMTIpW05IXUMoPU8pW0NIMl1OKFtDQEBIXTJjM2MoRilbY0hdW2NIXVtjSF1bY0hdMylbQ0gyXWM0W2NIXVtjSF1jKFtjSF1bY0hdNClPW0NIMl1bQ0gyXU4oW0NIM10pW0NIM10=

>  <s_i_glide_gridfile>  (425) 
ATP-Grid

>  <s_lp_Force_Field>  (425) 
OPLS_2005

>  <s_lp_Variant>  (425) 
m_270004bda____24171218____7548352-2

>  <s_lp_label>  (425) 
990_sdstereoexpander_3_neutralizer_1_epik_1_stereoizer_1

>  <s_m_source_file>  (425) 
ATP-VSW-LIGPREP-002-in.maegz

>  <s_sd_BIOSOLVEIT.INFINISEE\_QUERY\_NAME>  (425) 
Ref-Lig

>  <s_sd_BIOSOLVEIT.INFINISEE\_QUERY\_SMILES>  (425) 
S(c1nc2c(cc1C[NH2+]Cc3ccc(cc3)C[NH+](C)C)cccc2)Cc4ccccc4

>  <s_sd_BIOSOLVEIT.INFINISEE\_REACTION\_NAME>  (425) 
m_270004bda

>  <s_sd_BIOSOLVEIT.INFINISEE\_REAGENT1\_SMILES>  (425) 
[R1*]N1C(c2c(F)cccc2)c3c(NC(=O)C1)ccc(Cl)c3

>  <s_sd_BIOSOLVEIT.INFINISEE\_REAGENT2\_SMILES>  (425) 
[R1*]Cc1ccc(OCCN(C)C)cc1

>  <s_sd_BIOSOLVEIT.INFINISEE\_SPACE>  (425) 
REALSpace_44bn_2023-08

>  <s_vsw_compound_code>  (425) 
31650

>  <s_vsw_variant>  (425) 
31650-2

>  <r_epik_Charging_Adjusted_Penalty>  (425) 
0.057010874531307099

>  <r_epik_Ionization_Penalty>  (425) 
0.032199999999999999

>  <r_epik_Ionization_Penalty_Charging>  (425) 
0.024799999999999999

>  <r_epik_Ionization_Penalty_Neutral>  (425) 
0.0074000000000000003

>  <r_epik_State_Penalty>  (425) 
0.032199999999999999

>  <r_i_docking_score>  (425) 
-2.03160493086571

>  <r_i_glide_ecoul>  (425) 
-8.8549947738647496

>  <r_i_glide_eff_state_penalty>  (425) 
0.032199999999999999

>  <r_i_glide_einternal>  (425) 
6.1468272209167498

>  <r_i_glide_emodel>  (425) 
-42.680675972756198

>  <r_i_glide_energy>  (425) 
-38.171648979186998

>  <r_i_glide_erotb>  (425) 
0.55091173246375202

>  <r_i_glide_esite>  (425) 
-0.10000000000000001

>  <r_i_glide_evdw>  (425) 
-29.316654205322301

>  <r_i_glide_gscore>  (425) 
-2.06380493086571

>  <r_i_glide_hbond>  (425) 
-0.21526346814869199

>  <r_i_glide_ligand_efficiency>  (425) 
-0.061563785783809298

>  <r_i_glide_ligand_efficiency_ln>  (425) 
-0.45181841753717

>  <r_i_glide_ligand_efficiency_sa>  (425) 
-0.19746795615592799

>  <r_i_glide_lipo>  (425) 
-0.79422080098437198

>  <r_i_glide_metal>  (425) 
-0

>  <r_i_glide_rewards>  (425) 
1.28884953214943

>  <r_lp_Energy>  (425) 
48.667910999999997

>  <r_lp_tautomer_probability>  (425) 
1

>  <r_qp_ACxDN^.5/SA>  (425) 
0.0093956999999999999

>  <r_qp_CIQPlogS>  (425) 
-4.6760000000000002

>  <r_qp_EA(eV)>  (425) 
0.61499999999999999

>  <r_qp_FISA>  (425) 
63.668999999999997

>  <r_qp_FOSA>  (425) 
279.64299999999997

>  <r_qp_IP(eV)>  (425) 
8.9250000000000007

>  <r_qp_Jm>  (425) 
0.00012900411876662501

>  <r_qp_PISA>  (425) 
344.44499999999999

>  <r_qp_PSA>  (425) 
52.414999999999999

>  <r_qp_PercentHumanOralAbsorption>  (425) 
91.843999999999994

>  <r_qp_QPPCaco>  (425) 
153.43700000000001

>  <r_qp_QPPMDCK>  (425) 
229.96899999999999

>  <r_qp_QPlogBB>  (425) 
0.53000000000000003

>  <r_qp_QPlogHERG>  (425) 
-7.9699999999999998

>  <r_qp_QPlogKhsa>  (425) 
0.78100000000000003

>  <r_qp_QPlogKp>  (425) 
-5.0289999999999999

>  <r_qp_QPlogPC16>  (425) 
15.023999999999999

>  <r_qp_QPlogPo/w>  (425) 
4.4020000000000001

>  <r_qp_QPlogPoct>  (425) 
22.536000000000001

>  <r_qp_QPlogPw>  (425) 
11.664

>  <r_qp_QPlogS>  (425) 
-4.5309999999999997

>  <r_qp_QPpolrz>  (425) 
50.283000000000001

>  <r_qp_SASA>  (425) 
771.63199999999995

>  <r_qp_SAamideO>  (425) 
0

>  <r_qp_SAfluorine>  (425) 
13.917999999999999

>  <r_qp_WPSA>  (425) 
83.876000000000005

>  <r_qp_accptHB>  (425) 
7.25

>  <r_qp_dip^2/V>  (425) 
0.017681499999999999

>  <r_qp_dipole>  (425) 
5.0179999999999998

>  <r_qp_donorHB>  (425) 
1

>  <r_qp_glob>  (425) 
0.79339269999999995

>  <r_qp_mol_MW>  (425) 
467.97000000000003

>  <r_qp_volume>  (425) 
1424.296

>  <r_sd_BIOSOLVEIT.INFINISEE\_FTREES\_SIMILARITY>  (425) 
0.91600000000000004

>  <r_sd_BIOSOLVEIT.LOGP>  (425) 
2.129

>  <r_sd_BIOSOLVEIT.MOLECULAR\_WEIGHT>  (425) 
469.98500000000001

>  <r_sd_BIOSOLVEIT.TPSA>  (425) 
47.210000000000001

>  <i_epik_Tot_Q>  (425) 
1

>  <i_epik_Tot_abs_Q>  (425) 
1

>  <i_f3d_flags>  (425) 
0

>  <i_i_glide_confnum>  (425) 
8

>  <i_i_glide_lignum>  (425) 
313

>  <i_i_glide_posenum>  (425) 
18

>  <i_i_glide_rotatable_bonds>  (425) 
7

>  <i_lp_mmshare_version>  (425) 
65135

>  <i_m_ct_format>  (425) 
2

>  <i_m_source_file_index>  (425) 
990

>  <i_qp_#NandO>  (425) 
5

>  <i_qp_#acid>  (425) 
0

>  <i_qp_#amide>  (425) 
0

>  <i_qp_#amidine>  (425) 
0

>  <i_qp_#amine>  (425) 
2

>  <i_qp_#in34>  (425) 
0

>  <i_qp_#in56>  (425) 
18

>  <i_qp_#metab>  (425) 
8

>  <i_qp_#nonHatm>  (425) 
33

>  <i_qp_#noncon>  (425) 
2

>  <i_qp_#ringatoms>  (425) 
23

>  <i_qp_#rotor>  (425) 
6

>  <i_qp_#rtvFG>  (425) 
0

>  <i_qp_#stars>  (425) 
0

>  <i_qp_CNS>  (425) 
2

>  <i_qp_HumanOralAbsorption>  (425) 
3

>  <i_qp_RuleOfFive>  (425) 
0

>  <i_qp_RuleOfThree>  (425) 
1

>  <i_sd_BIOSOLVEIT.INFINISEE\_REAGENT1\_NAME>  (425) 
24171218

>  <i_sd_BIOSOLVEIT.INFINISEE\_REAGENT2\_NAME>  (425) 
7548352

>  <i_sd_BIOSOLVEIT.INFINISEE\_RESULT\_RANK>  (425) 
25272

>  <i_sd_version>  (425) 
0

>  <b_lp_Chiralities_Consistent>  (425) 
1

>  <b_sd_chiral_flag>  (425) 
0

>  <canonical_id>  (425) 
ATP-HTVS-440AFC8B752D

>  <compound_code>  (425) 
31650

>  <title>  (425) 
m_270004bda____24171218____7548352

>  <variant>  (425) 
31650-2

>  <source_file>  (425) 
运行/运行/ATP-VSW/ATP-VSW-DOCK_HTVS_1-002_lib.maegz

>  <canonical_smiles>  (425) 
C[NH+](C)CCOc1ccc(CN2CC(=O)Nc3ccc(Cl)cc3[C@H]2c2ccccc2F)cc1

>  <scaffold>  (425) 
O=C1CN(Cc2ccccc2)C(c2ccccc2)c2ccccc2N1

>  <molecular_formula>  (425) 
C26H28ClFN3O2+

$$$$
ATP-HTVS-4415AB646F99
     RDKit          3D

 65 68  0  0  0  0  0  0  0  0999 V2000
  199.2969  182.9281  157.7498 O   0  0  0  0  0  0  0  0  0  0  0  0
  198.1162  183.2671  157.7127 C   0  0  0  0  0  0  0  0  0  0  0  0
  197.1553  182.5912  157.0909 N   0  0  0  0  0  0  0  0  0  0  0  0
  197.3066  181.2076  156.6696 C   0  0  1  0  0  0  0  0  0  0  0  0
  197.6269  181.0797  155.1931 C   0  0  0  0  0  0  0  0  0  0  0  0
  198.4475  180.0608  154.6460 C   0  0  0  0  0  0  0  0  0  0  0  0
  198.6215  179.9695  153.2292 C   0  0  0  0  0  0  0  0  0  0  0  0
  197.9444  180.8921  152.3643 C   0  0  0  0  0  0  0  0  0  0  0  0
  197.9848  180.7527  150.9511 N   0  0  0  0  0  0  0  0  0  0  0  0
  198.0467  181.9586  150.1311 C   0  0  1  0  0  0  0  0  0  0  0  0
  196.8653  182.8377  150.2244 C   0  0  0  0  0  0  0  0  0  0  0  0
  195.9401  183.5268  150.3306 N   0  0  0  0  0  0  0  0  0  0  0  0
  197.2505  179.5971  150.4260 C   0  0  1  0  0  0  0  0  0  0  0  0
  197.7166  179.0619  149.0760 C   0  0  0  0  0  0  0  0  0  0  0  0
  196.7707  178.7450  148.0784 C   0  0  0  0  0  0  0  0  0  0  0  0
  197.1937  178.2322  146.8370 C   0  0  0  0  0  0  0  0  0  0  0  0
  198.5612  178.0105  146.5902 C   0  0  0  0  0  0  0  0  0  0  0  0
  199.5081  178.3180  147.5843 C   0  0  0  0  0  0  0  0  0  0  0  0
  199.0887  178.8482  148.8185 C   0  0  0  0  0  0  0  0  0  0  0  0
  197.1553  181.9215  152.9427 C   0  0  0  0  0  0  0  0  0  0  0  0
  197.0072  181.9998  154.3239 C   0  0  0  0  0  0  0  0  0  0  0  0
  199.4764  178.9623  152.7153 C   0  0  0  0  0  0  0  0  0  0  0  0
  200.1241  178.0519  153.5699 C   0  0  0  0  0  0  0  0  0  0  0  0
  199.9294  178.1384  154.9551 C   0  0  0  0  0  0  0  0  0  0  0  0
  199.1002  179.1302  155.4886 C   0  0  0  0  0  0  0  0  0  0  0  0
  197.6573  184.5416  158.3771 C   0  0  0  0  0  0  0  0  0  0  0  0
  196.3103  184.7099  158.7867 C   0  0  0  0  0  0  0  0  0  0  0  0
  195.9185  185.9103  159.4380 C   0  0  0  0  0  0  0  0  0  0  0  0
  196.8800  186.9060  159.7273 C   0  0  0  0  0  0  0  0  0  0  0  0
  198.2261  186.6516  159.3912 C   0  0  0  0  0  0  0  0  0  0  0  0
  198.6082  185.5298  158.6901 C   0  0  0  0  0  0  0  0  0  0  0  0
  196.4582  188.2145  160.4041 C   0  0  1  0  0  0  0  0  0  0  0  0
  196.7913  189.4480  159.6716 N   0  0  0  0  0  0  0  0  0  0  0  0
  196.3239  190.6109  160.4285 C   0  0  2  0  0  0  0  0  0  0  0  0
  198.2218  189.6216  159.4738 C   0  0  2  0  0  0  0  0  0  0  0  0
  196.2590  183.0366  156.9489 H   0  0  0  0  0  0  0  0  0  0  0  0
  198.0349  180.7241  157.3138 H   0  0  0  0  0  0  0  0  0  0  0  0
  196.3484  180.7259  156.8121 H   0  0  0  0  0  0  0  0  0  0  0  0
  198.9184  182.5508  150.3980 H   0  0  0  0  0  0  0  0  0  0  0  0
  198.1456  181.7153  149.0666 H   0  0  0  0  0  0  0  0  0  0  0  0
  197.3007  178.7678  151.1271 H   0  0  0  0  0  0  0  0  0  0  0  0
  196.1987  179.8722  150.3614 H   0  0  0  0  0  0  0  0  0  0  0  0
  195.7179  178.9114  148.2520 H   0  0  0  0  0  0  0  0  0  0  0  0
  196.4689  177.9931  146.0744 H   0  0  0  0  0  0  0  0  0  0  0  0
  198.8829  177.5976  145.6442 H   0  0  0  0  0  0  0  0  0  0  0  0
  200.5583  178.1448  147.4020 H   0  0  0  0  0  0  0  0  0  0  0  0
  199.8309  179.0845  149.5644 H   0  0  0  0  0  0  0  0  0  0  0  0
  196.6030  182.6583  152.4082 H   0  0  0  0  0  0  0  0  0  0  0  0
  196.3608  182.7846  154.6908 H   0  0  0  0  0  0  0  0  0  0  0  0
  199.6545  178.8736  151.6564 H   0  0  0  0  0  0  0  0  0  0  0  0
  200.7615  177.2864  153.1620 H   0  0  0  0  0  0  0  0  0  0  0  0
  200.4114  177.4492  155.6233 H   0  0  0  0  0  0  0  0  0  0  0  0
  198.9860  179.1469  156.5578 H   0  0  0  0  0  0  0  0  0  0  0  0
  195.5665  183.9402  158.6318 H   0  0  0  0  0  0  0  0  0  0  0  0
  194.8817  186.0363  159.7314 H   0  0  0  0  0  0  0  0  0  0  0  0
  199.0196  187.3338  159.6858 H   0  0  0  0  0  0  0  0  0  0  0  0
  199.6465  185.4001  158.4015 H   0  0  0  0  0  0  0  0  0  0  0  0
  195.3790  188.1833  160.5785 H   0  0  0  0  0  0  0  0  0  0  0  0
  196.9117  188.2463  161.3917 H   0  0  0  0  0  0  0  0  0  0  0  0
  196.6078  191.5195  159.8915 H   0  0  0  0  0  0  0  0  0  0  0  0
  196.7852  190.6459  161.4188 H   0  0  0  0  0  0  0  0  0  0  0  0
  195.2339  190.6182  160.5509 H   0  0  0  0  0  0  0  0  0  0  0  0
  198.4712  190.5832  159.0405 H   0  0  0  0  0  0  0  0  0  0  0  0
  198.5785  188.8716  158.7896 H   0  0  0  0  0  0  0  0  0  0  0  0
  198.7382  189.5146  160.4252 H   0  0  0  0  0  0  0  0  0  0  0  0
  1  2  2  0
  2  3  1  0
  2 26  1  0
  3  4  1  0
  3 36  1  0
  4  5  1  0
  4 37  1  1
  4 38  1  0
  5  6  1  0
  5 21  2  0
  6  7  1  0
  6 25  2  0
  7  8  1  0
  7 22  2  0
  8  9  1  0
  8 20  2  0
  9 10  1  0
  9 13  1  0
 10 11  1  0
 10 39  1  1
 10 40  1  0
 11 12  3  0
 13 14  1  0
 13 41  1  1
 13 42  1  0
 14 15  2  0
 14 19  1  0
 15 16  1  0
 15 43  1  0
 16 17  2  0
 16 44  1  0
 17 18  1  0
 17 45  1  0
 18 19  2  0
 18 46  1  0
 19 47  1  0
 20 21  1  0
 20 48  1  0
 21 49  1  0
 22 23  1  0
 22 50  1  0
 23 24  2  0
 23 51  1  0
 24 25  1  0
 24 52  1  0
 25 53  1  0
 26 27  1  0
 26 31  2  0
 27 28  2  0
 27 54  1  0
 28 29  1  0
 28 55  1  0
 29 30  2  0
 29 32  1  0
 30 31  1  0
 30 56  1  0
 31 57  1  0
 32 33  1  0
 32 58  1  1
 32 59  1  0
 33 34  1  0
 33 35  1  0
 34 60  1  6
 34 61  1  0
 34 62  1  0
 35 63  1  6
 35 64  1  0
 35 65  1  0
M  END
>  <s_epik_cmdline>  (426) 
J2VwaWtfcHl0aG9uJywgJy1waCcsICc3LjAwMDAwMCcsICctcGh0JywgJzIuMDAwMDAwJywgJy1tcycsICcxNicsICctdG4nLCAnOCcsICctbWEnLCAnMjAwJywgJy1pbWFlJywgJzxpbmZpbGUubWFlPicsICctb21hZScsICc8b3V0ZmlsZS5tYWU+Jw==

>  <s_epik_input>  (426) 
W0NIM11OKFtDSDNdKVtDSDJdYyhbY0hdW2NIXTEpW2NIXVtjSF1jMUMoPU8pW05IXVtDSDJdYzJbY0hdW2NIXWMoYyhjMjMpW2NIXVtjSF1bY0hdW2NIXTMpTihbQ0gyXUMjTilbQ0gyXWM0W2NIXVtjSF1bY0hdW2NIXVtjSF00

>  <s_i_glide_gridfile>  (426) 
ATP-Grid

>  <s_lp_Force_Field>  (426) 
OPLS_2005

>  <s_lp_Variant>  (426) 
rxn502b____EMOL18624763____EMOL45476013____EMOL300091282-2

>  <s_lp_label>  (426) 
2579_sdstereoexpander_1_neutralizer_1_epik_2_stereoizer_1

>  <s_m_source_file>  (426) 
ATP-VSW-LIGPREP-001-in.maegz

>  <s_sd_BIOSOLVEIT.INFINISEE\_QUERY\_NAME>  (426) 
Ref-Lig

>  <s_sd_BIOSOLVEIT.INFINISEE\_QUERY\_SMILES>  (426) 
S(c1nc2c(cc1C[NH2+]Cc3ccc(cc3)C[NH+](C)C)cccc2)Cc4ccccc4

>  <s_sd_BIOSOLVEIT.INFINISEE\_REACTION\_NAME>  (426) 
rxn502b

>  <s_sd_BIOSOLVEIT.INFINISEE\_REAGENT1\_NAME>  (426) 
EMOL18624763

>  <s_sd_BIOSOLVEIT.INFINISEE\_REAGENT1\_SMILES>  (426) 
O=C(O)c1ccc(cc1)CN(C)C

>  <s_sd_BIOSOLVEIT.INFINISEE\_REAGENT2\_NAME>  (426) 
EMOL45476013

>  <s_sd_BIOSOLVEIT.INFINISEE\_REAGENT2\_SMILES>  (426) 
Brc1c2c(c(cc1)CN)cccc2

>  <s_sd_BIOSOLVEIT.INFINISEE\_REAGENT3\_NAME>  (426) 
EMOL300091282

>  <s_sd_BIOSOLVEIT.INFINISEE\_REAGENT3\_SMILES>  (426) 
N#CCNCc1ccccc1

>  <s_sd_BIOSOLVEIT.INFINISEE\_SPACE>  (426) 
eXplore_7tr_2022-12

>  <s_vsw_compound_code>  (426) 
82497

>  <s_vsw_variant>  (426) 
82497-2

>  <r_epik_Charging_Adjusted_Penalty>  (426) 
1.4542744615136101

>  <r_epik_Ionization_Penalty>  (426) 
1.4542999999999999

>  <r_epik_Ionization_Penalty_Charging>  (426) 
0

>  <r_epik_Ionization_Penalty_Neutral>  (426) 
1.4542999999999999

>  <r_epik_State_Penalty>  (426) 
1.4542999999999999

>  <r_i_docking_score>  (426) 
-1.99049961236672

>  <r_i_glide_ecoul>  (426) 
-4.3058366775512704

>  <r_i_glide_eff_state_penalty>  (426) 
1.4542999999999999

>  <r_i_glide_einternal>  (426) 
4.9369463920593297

>  <r_i_glide_emodel>  (426) 
-46.021928685890003

>  <r_i_glide_energy>  (426) 
-39.307702064514203

>  <r_i_glide_erotb>  (426) 
0.75313996262093097

>  <r_i_glide_esite>  (426) 
-0.045344297553360703

>  <r_i_glide_evdw>  (426) 
-35.001865386962898

>  <r_i_glide_gscore>  (426) 
-3.4447996123667202

>  <r_i_glide_hbond>  (426) 
0

>  <r_i_glide_ligand_efficiency>  (426) 
-0.056871417496192102

>  <r_i_glide_ligand_efficiency_ln>  (426) 
-0.43695884167321097

>  <r_i_glide_ligand_efficiency_sa>  (426) 
-0.18603017756399601

>  <r_i_glide_lipo>  (426) 
-1.35911589938653

>  <r_i_glide_metal>  (426) 
-0

>  <r_i_glide_rewards>  (426) 
-0.39751060706693098

>  <r_lp_Energy>  (426) 
34.025733000000002

>  <r_qp_ACxDN^.5/SA>  (426) 
0.0091418000000000003

>  <r_qp_CIQPlogS>  (426) 
-7.0860000000000003

>  <r_qp_EA(eV)>  (426) 
0.79400000000000004

>  <r_qp_FISA>  (426) 
93.277000000000001

>  <r_qp_FOSA>  (426) 
284.03199999999998

>  <r_qp_IP(eV)>  (426) 
8.359

>  <r_qp_Jm>  (426) 
0.00092325006031048601

>  <r_qp_PISA>  (426) 
388.40699999999998

>  <r_qp_PSA>  (426) 
68.826999999999998

>  <r_qp_PercentHumanOralAbsorption>  (426) 
100

>  <r_qp_QPPCaco>  (426) 
322.29500000000002

>  <r_qp_QPPMDCK>  (426) 
160.95699999999999

>  <r_qp_QPlogBB>  (426) 
-0.56899999999999995

>  <r_qp_QPlogHERG>  (426) 
-7.0449999999999999

>  <r_qp_QPlogKhsa>  (426) 
0.81599999999999995

>  <r_qp_QPlogKp>  (426) 
-2.9729999999999999

>  <r_qp_QPlogPC16>  (426) 
15.496

>  <r_qp_QPlogPo/w>  (426) 
4.9009999999999998

>  <r_qp_QPlogPoct>  (426) 
22.405000000000001

>  <r_qp_QPlogPw>  (426) 
10.992000000000001

>  <r_qp_QPlogS>  (426) 
-5.7270000000000003

>  <r_qp_QPpolrz>  (426) 
50.189

>  <r_qp_SASA>  (426) 
765.71600000000001

>  <r_qp_SAamideO>  (426) 
0

>  <r_qp_SAfluorine>  (426) 
0

>  <r_qp_WPSA>  (426) 
0

>  <r_qp_accptHB>  (426) 
7

>  <r_qp_dip^2/V>  (426) 
0.034446900000000003

>  <r_qp_dipole>  (426) 
7.1299999999999999

>  <r_qp_donorHB>  (426) 
1

>  <r_qp_glob>  (426) 
0.81861640000000002

>  <r_qp_mol_MW>  (426) 
462.59300000000002

>  <r_qp_volume>  (426) 
1475.6199999999999

>  <r_sd_BIOSOLVEIT.INFINISEE\_FTREES\_SIMILARITY>  (426) 
0.91200000000000003

>  <r_sd_BIOSOLVEIT.LOGP>  (426) 
3.94448

>  <r_sd_BIOSOLVEIT.MOLECULAR\_WEIGHT>  (426) 
463.60199999999998

>  <r_sd_BIOSOLVEIT.TPSA>  (426) 
60.57

>  <i_epik_Tot_Q>  (426) 
0

>  <i_epik_Tot_abs_Q>  (426) 
0

>  <i_f3d_flags>  (426) 
0

>  <i_i_glide_confnum>  (426) 
1

>  <i_i_glide_lignum>  (426) 
1048

>  <i_i_glide_posenum>  (426) 
7

>  <i_i_glide_rotatable_bonds>  (426) 
10

>  <i_lp_mmshare_version>  (426) 
65135

>  <i_m_ct_format>  (426) 
2

>  <i_m_source_file_index>  (426) 
2579

>  <i_qp_#NandO>  (426) 
5

>  <i_qp_#acid>  (426) 
0

>  <i_qp_#amide>  (426) 
0

>  <i_qp_#amidine>  (426) 
0

>  <i_qp_#amine>  (426) 
1

>  <i_qp_#in34>  (426) 
0

>  <i_qp_#in56>  (426) 
22

>  <i_qp_#metab>  (426) 
6

>  <i_qp_#nonHatm>  (426) 
35

>  <i_qp_#noncon>  (426) 
0

>  <i_qp_#ringatoms>  (426) 
22

>  <i_qp_#rotor>  (426) 
10

>  <i_qp_#rtvFG>  (426) 
0

>  <i_qp_#stars>  (426) 
0

>  <i_qp_CNS>  (426) 
1

>  <i_qp_HumanOralAbsorption>  (426) 
3

>  <i_qp_RuleOfFive>  (426) 
0

>  <i_qp_RuleOfThree>  (426) 
1

>  <i_sd_BIOSOLVEIT.INFINISEE\_RESULT\_RANK>  (426) 
38956

>  <i_sd_version>  (426) 
0

>  <b_lp_Chiralities_Consistent>  (426) 
1

>  <b_sd_chiral_flag>  (426) 
0

>  <canonical_id>  (426) 
ATP-HTVS-4415AB646F99

>  <compound_code>  (426) 
82497

>  <title>  (426) 
rxn502b____EMOL18624763____EMOL45476013____EMOL300091282

>  <variant>  (426) 
82497-2

>  <source_file>  (426) 
运行/运行/ATP-VSW/ATP-VSW-DOCK_HTVS_1-001_lib/ATP-VSW-DOCK_HTVS_1-001_lib

>  <canonical_smiles>  (426) 
CN(C)Cc1ccc(C(=O)NCc2ccc(N(CC#N)Cc3ccccc3)c3ccccc23)cc1

>  <scaffold>  (426) 
O=C(NCc1ccc(NCc2ccccc2)c2ccccc12)c1ccccc1

>  <molecular_formula>  (426) 
C30H30N4O

$$$$
ATP-HTVS-4418320CDB75
     RDKit          3D

 63 66  0  0  0  0  0  0  0  0999 V2000
  198.7469  179.0369  153.8242 O   0  0  0  0  0  0  0  0  0  0  0  0
  198.1277  179.7647  153.0450 C   0  0  0  0  0  0  0  0  0  0  0  0
  197.6671  180.9953  153.3310 N   0  0  0  0  0  0  0  0  0  0  0  0
  197.5981  181.6470  154.5871 C   0  0  0  0  0  0  0  0  0  0  0  0
  197.5766  180.9209  155.7188 N   0  0  0  0  0  0  0  0  0  0  0  0
  197.5928  181.5309  156.8935 C   0  0  0  0  0  0  0  0  0  0  0  0
  197.6194  182.9236  157.0214 C   0  0  0  0  0  0  0  0  0  0  0  0
  197.4898  183.7357  155.8703 C   0  0  0  0  0  0  0  0  0  0  0  0
  197.3401  185.1468  155.9431 N   0  0  0  0  0  0  0  0  0  0  0  0
  197.1166  186.0178  157.0253 C   0  0  0  0  0  0  0  0  0  0  0  0
  197.3815  187.3959  156.8493 C   0  0  0  0  0  0  0  0  0  0  0  0
  197.1784  188.3146  157.9164 C   0  0  0  0  0  0  0  0  0  0  0  0
  196.7605  187.8207  159.1779 C   0  0  0  0  0  0  0  0  0  0  0  0
  196.5423  188.6976  160.2482 N   0  0  0  0  0  0  0  0  0  0  0  0
  196.4996  186.4589  159.3574 C   0  0  0  0  0  0  0  0  0  0  0  0
  196.6084  185.5759  158.2744 C   0  0  0  0  0  0  0  0  0  0  0  0
  197.5397  183.0795  154.6043 C   0  0  0  0  0  0  0  0  0  0  0  0
  197.5610  183.8383  153.3037 C   0  0  0  0  0  0  0  0  0  0  0  0
  196.8053  183.5810  152.3582 O   0  0  0  0  0  0  0  0  0  0  0  0
  198.5981  184.9200  153.1499 C   0  0  0  0  0  0  0  0  0  0  0  0
  198.4276  185.9391  152.1811 C   0  0  0  0  0  0  0  0  0  0  0  0
  199.3631  186.9890  152.0650 C   0  0  0  0  0  0  0  0  0  0  0  0
  200.4901  187.0294  152.9095 C   0  0  0  0  0  0  0  0  0  0  0  0
  200.6859  186.0147  153.8614 C   0  0  0  0  0  0  0  0  0  0  0  0
  199.7569  184.9648  153.9749 C   0  0  0  0  0  0  0  0  0  0  0  0
  197.8568  179.3408  151.6304 C   0  0  0  0  0  0  0  0  0  0  0  0
  196.8774  180.0054  150.8508 C   0  0  0  0  0  0  0  0  0  0  0  0
  196.6807  179.6352  149.5061 C   0  0  0  0  0  0  0  0  0  0  0  0
  197.4276  178.5787  148.9430 C   0  0  0  0  0  0  0  0  0  0  0  0
  198.3600  177.8927  149.7466 C   0  0  0  0  0  0  0  0  0  0  0  0
  198.5978  178.2925  151.0712 C   0  0  0  0  0  0  0  0  0  0  0  0
  197.2501  178.2079  147.4738 C   0  0  1  0  0  0  0  0  0  0  0  0
  198.3438  178.7268  146.5945 N   0  0  1  0  0  0  0  0  0  0  0  0
  199.7057  178.2233  146.9213 C   0  0  2  0  0  0  0  0  0  0  0  0
  198.0494  178.5111  145.1571 C   0  0  2  0  0  0  0  0  0  0  0  0
  197.2928  181.5370  152.5516 H   0  0  0  0  0  0  0  0  0  0  0  0
  197.5638  180.9058  157.7553 H   0  0  0  0  0  0  0  0  0  0  0  0
  197.7512  183.3019  158.0300 H   0  0  0  0  0  0  0  0  0  0  0  0
  197.4983  185.6306  155.0970 H   0  0  0  0  0  0  0  0  0  0  0  0
  197.7053  187.7835  155.9008 H   0  0  0  0  0  0  0  0  0  0  0  0
  197.3128  189.3926  157.7521 H   0  0  0  0  0  0  0  0  0  0  0  0
  196.1809  188.3351  161.1268 H   0  0  0  0  0  0  0  0  0  0  0  0
  196.5950  189.7054  160.1509 H   0  0  0  0  0  0  0  0  0  0  0  0
  196.1758  186.0832  160.3123 H   0  0  0  0  0  0  0  0  0  0  0  0
  196.2597  184.5554  158.4517 H   0  0  0  0  0  0  0  0  0  0  0  0
  197.5581  185.9329  151.5367 H   0  0  0  0  0  0  0  0  0  0  0  0
  199.2101  187.7654  151.3332 H   0  0  0  0  0  0  0  0  0  0  0  0
  201.1984  187.8407  152.8268 H   0  0  0  0  0  0  0  0  0  0  0  0
  201.5386  186.0546  154.5268 H   0  0  0  0  0  0  0  0  0  0  0  0
  199.9412  184.2095  154.7229 H   0  0  0  0  0  0  0  0  0  0  0  0
  196.2640  180.8018  151.2427 H   0  0  0  0  0  0  0  0  0  0  0  0
  195.9474  180.1722  148.9271 H   0  0  0  0  0  0  0  0  0  0  0  0
  198.9053  177.0437  149.3658 H   0  0  0  0  0  0  0  0  0  0  0  0
  199.3848  177.8064  151.6369 H   0  0  0  0  0  0  0  0  0  0  0  0
  197.1639  177.1213  147.3826 H   0  0  0  0  0  0  0  0  0  0  0  0
  196.2931  178.6130  147.1330 H   0  0  0  0  0  0  0  0  0  0  0  0
  199.7156  177.1326  146.8779 H   0  0  0  0  0  0  0  0  0  0  0  0
  200.0405  178.5517  147.9131 H   0  0  0  0  0  0  0  0  0  0  0  0
  200.4575  178.6112  146.2247 H   0  0  0  0  0  0  0  0  0  0  0  0
  197.9475  177.4465  144.9403 H   0  0  0  0  0  0  0  0  0  0  0  0
  198.8664  178.8865  144.5377 H   0  0  0  0  0  0  0  0  0  0  0  0
  197.1331  179.0169  144.8408 H   0  0  0  0  0  0  0  0  0  0  0  0
  198.3656  179.7283  146.7270 H   0  0  0  0  0  0  0  0  0  0  0  0
  1  2  2  0
  2  3  1  0
  2 26  1  0
  3  4  1  0
  3 36  1  0
  4  5  1  0
  4 17  2  0
  5  6  2  0
  6  7  1  0
  6 37  1  0
  7  8  2  0
  7 38  1  0
  8  9  1  0
  8 17  1  0
  9 10  1  0
  9 39  1  0
 10 11  1  0
 10 16  2  0
 11 12  2  0
 11 40  1  0
 12 13  1  0
 12 41  1  0
 13 14  1  0
 13 15  2  0
 14 42  1  0
 14 43  1  0
 15 16  1  0
 15 44  1  0
 16 45  1  0
 17 18  1  0
 18 19  2  0
 18 20  1  0
 20 21  2  0
 20 25  1  0
 21 22  1  0
 21 46  1  0
 22 23  2  0
 22 47  1  0
 23 24  1  0
 23 48  1  0
 24 25  2  0
 24 49  1  0
 25 50  1  0
 26 27  1  0
 26 31  2  0
 27 28  2  0
 27 51  1  0
 28 29  1  0
 28 52  1  0
 29 30  2  0
 29 32  1  0
 30 31  1  0
 30 53  1  0
 31 54  1  0
 32 33  1  0
 32 55  1  1
 32 56  1  0
 33 34  1  0
 33 35  1  0
 33 63  1  6
 34 57  1  1
 34 58  1  0
 34 59  1  0
 35 60  1  1
 35 61  1  0
 35 62  1  0
M  CHG  1  33   1
M  END
>  <s_epik_cmdline>  (427) 
J2VwaWtfcHl0aG9uJywgJy1waCcsICc3LjAwMDAwMCcsICctcGh0JywgJzIuMDAwMDAwJywgJy1tcycsICcxNicsICctdG4nLCAnOCcsICctbWEnLCAnMjAwJywgJy1pbWFlJywgJzxpbmZpbGUubWFlPicsICctb21hZScsICc8b3V0ZmlsZS5tYWU+Jw==

>  <s_epik_input>  (427) 
W0NIM11OKFtDSDNdKVtDSDJdYyhbY0hdW2NIXTEpW2NIXVtjSF1jMUMoPU8pW05IXWMybltjSF1bY0hdYyhbTkhdYzNbY0hdW2NIXWMoW05IMl0pW2NIXVtjSF0zKWMyQyg9TyljNFtjSF1bY0hdW2NIXVtjSF1bY0hdNA==

>  <s_i_glide_gridfile>  (427) 
ATP-Grid

>  <s_lp_Force_Field>  (427) 
OPLS_2005

>  <s_lp_Variant>  (427) 
rxn502c____EMOL18624763____EMOL36251210____EMOL493827-1

>  <s_lp_label>  (427) 
2902_sdstereoexpander_1_neutralizer_1_epik_1_stereoizer_1

>  <s_m_source_file>  (427) 
ATP-VSW-LIGPREP-003-in.maegz

>  <s_sd_BIOSOLVEIT.INFINISEE\_QUERY\_NAME>  (427) 
Ref-Lig

>  <s_sd_BIOSOLVEIT.INFINISEE\_QUERY\_SMILES>  (427) 
S(c1nc2c(cc1C[NH2+]Cc3ccc(cc3)C[NH+](C)C)cccc2)Cc4ccccc4

>  <s_sd_BIOSOLVEIT.INFINISEE\_REACTION\_NAME>  (427) 
rxn502c

>  <s_sd_BIOSOLVEIT.INFINISEE\_REAGENT1\_NAME>  (427) 
EMOL18624763

>  <s_sd_BIOSOLVEIT.INFINISEE\_REAGENT1\_SMILES>  (427) 
O=C(O)c1ccc(cc1)CN(C)C

>  <s_sd_BIOSOLVEIT.INFINISEE\_REAGENT2\_NAME>  (427) 
EMOL36251210

>  <s_sd_BIOSOLVEIT.INFINISEE\_REAGENT2\_SMILES>  (427) 
Clc1c(c(ncc1)N)C(=O)c2ccccc2

>  <s_sd_BIOSOLVEIT.INFINISEE\_REAGENT3\_NAME>  (427) 
EMOL493827

>  <s_sd_BIOSOLVEIT.INFINISEE\_REAGENT3\_SMILES>  (427) 
Nc1ccc(N)cc1

>  <s_sd_BIOSOLVEIT.INFINISEE\_SPACE>  (427) 
eXplore_7tr_2022-12

>  <s_vsw_compound_code>  (427) 
92835

>  <s_vsw_variant>  (427) 
92835-1

>  <r_epik_Charging_Adjusted_Penalty>  (427) 
0.147887334695435

>  <r_epik_Ionization_Penalty>  (427) 
0.095899999999999999

>  <r_epik_Ionization_Penalty_Charging>  (427) 
0.052200000000000003

>  <r_epik_Ionization_Penalty_Neutral>  (427) 
0.043799999999999999

>  <r_epik_State_Penalty>  (427) 
0.095699999999999993

>  <r_i_docking_score>  (427) 
-3.5210865020671802

>  <r_i_glide_ecoul>  (427) 
-2.6087896823883101

>  <r_i_glide_eff_state_penalty>  (427) 
0.095699999999999993

>  <r_i_glide_einternal>  (427) 
3.46986651420593

>  <r_i_glide_emodel>  (427) 
-50.417750087440297

>  <r_i_glide_energy>  (427) 
-40.370352029800401

>  <r_i_glide_erotb>  (427) 
0.74150224561247002

>  <r_i_glide_esite>  (427) 
-0.026792126279781399

>  <r_i_glide_evdw>  (427) 
-37.761562347412102

>  <r_i_glide_gscore>  (427) 
-3.6167865020671801

>  <r_i_glide_hbond>  (427) 
0

>  <r_i_glide_ligand_efficiency>  (427) 
-0.100602471487634

>  <r_i_glide_ligand_efficiency_ln>  (427) 
-0.77295663350824895

>  <r_i_glide_ligand_efficiency_sa>  (427) 
-0.32907735481491202

>  <r_i_glide_lipo>  (427) 
-1.80777886152294

>  <r_i_glide_metal>  (427) 
-0

>  <r_i_glide_rewards>  (427) 
-0.24432119014808301

>  <r_lp_Energy>  (427) 
43.939622999999997

>  <r_qp_ACxDN^.5/SA>  (427) 
0.011087400000000001

>  <r_qp_CIQPlogS>  (427) 
-6.2460000000000004

>  <r_qp_EA(eV)>  (427) 
0.77700000000000002

>  <r_qp_FISA>  (427) 
154.63800000000001

>  <r_qp_FOSA>  (427) 
161.81399999999999

>  <r_qp_IP(eV)>  (427) 
7.6680000000000001

>  <r_qp_Jm>  (427) 
0.00048196598829788602

>  <r_qp_PISA>  (427) 
456.78699999999998

>  <r_qp_PSA>  (427) 
109.11499999999999

>  <r_qp_PercentHumanOralAbsorption>  (427) 
87.373999999999995

>  <r_qp_QPPCaco>  (427) 
84.403999999999996

>  <r_qp_QPPMDCK>  (427) 
37.823

>  <r_qp_QPlogBB>  (427) 
-1.163

>  <r_qp_QPlogHERG>  (427) 
-7.556

>  <r_qp_QPlogKhsa>  (427) 
0.82399999999999995

>  <r_qp_QPlogKp>  (427) 
-3.9590000000000001

>  <r_qp_QPlogPC16>  (427) 
16.486999999999998

>  <r_qp_QPlogPo/w>  (427) 
4.4320000000000004

>  <r_qp_QPlogPoct>  (427) 
23.963000000000001

>  <r_qp_QPlogPw>  (427) 
12.846

>  <r_qp_QPlogS>  (427) 
-5.0259999999999998

>  <r_qp_QPpolrz>  (427) 
51.110999999999997

>  <r_qp_SASA>  (427) 
773.23900000000003

>  <r_qp_SAamideO>  (427) 
0

>  <r_qp_SAfluorine>  (427) 
0

>  <r_qp_WPSA>  (427) 
0

>  <r_qp_accptHB>  (427) 
7

>  <r_qp_dip^2/V>  (427) 
0.042940800000000001

>  <r_qp_dipole>  (427) 
7.9349999999999996

>  <r_qp_donorHB>  (427) 
1.5

>  <r_qp_glob>  (427) 
0.80723840000000002

>  <r_qp_mol_MW>  (427) 
465.55399999999997

>  <r_qp_volume>  (427) 
1466.3109999999999

>  <r_sd_BIOSOLVEIT.INFINISEE\_FTREES\_SIMILARITY>  (427) 
0.90400000000000003

>  <r_sd_BIOSOLVEIT.LOGP>  (427) 
3.5352000000000001

>  <r_sd_BIOSOLVEIT.MOLECULAR\_WEIGHT>  (427) 
466.56200000000001

>  <r_sd_BIOSOLVEIT.TPSA>  (427) 
101.55

>  <i_epik_Tot_Q>  (427) 
1

>  <i_epik_Tot_abs_Q>  (427) 
1

>  <i_f3d_flags>  (427) 
0

>  <i_i_glide_confnum>  (427) 
5

>  <i_i_glide_lignum>  (427) 
1418

>  <i_i_glide_posenum>  (427) 
19

>  <i_i_glide_rotatable_bonds>  (427) 
9

>  <i_lp_mmshare_version>  (427) 
65135

>  <i_m_ct_format>  (427) 
2

>  <i_m_source_file_index>  (427) 
2902

>  <i_qp_#NandO>  (427) 
7

>  <i_qp_#acid>  (427) 
0

>  <i_qp_#amide>  (427) 
0

>  <i_qp_#amidine>  (427) 
0

>  <i_qp_#amine>  (427) 
1

>  <i_qp_#in34>  (427) 
0

>  <i_qp_#in56>  (427) 
24

>  <i_qp_#metab>  (427) 
6

>  <i_qp_#nonHatm>  (427) 
35

>  <i_qp_#noncon>  (427) 
0

>  <i_qp_#ringatoms>  (427) 
24

>  <i_qp_#rotor>  (427) 
9

>  <i_qp_#rtvFG>  (427) 
0

>  <i_qp_#stars>  (427) 
2

>  <i_qp_CNS>  (427) 
-2

>  <i_qp_HumanOralAbsorption>  (427) 
3

>  <i_qp_RuleOfFive>  (427) 
0

>  <i_qp_RuleOfThree>  (427) 
0

>  <i_sd_BIOSOLVEIT.INFINISEE\_RESULT\_RANK>  (427) 
75066

>  <i_sd_version>  (427) 
0

>  <b_lp_Chiralities_Consistent>  (427) 
1

>  <b_sd_chiral_flag>  (427) 
0

>  <canonical_id>  (427) 
ATP-HTVS-4418320CDB75

>  <compound_code>  (427) 
92835

>  <title>  (427) 
rxn502c____EMOL18624763____EMOL36251210____EMOL493827

>  <variant>  (427) 
92835-1

>  <source_file>  (427) 
运行/运行/ATP-VSW/ATP-VSW-DOCK_HTVS_1-003_lib/ATP-VSW-DOCK_HTVS_1-003_lib.mae

>  <canonical_smiles>  (427) 
C[NH+](C)Cc1ccc(C(=O)Nc2nccc(Nc3ccc(N)cc3)c2C(=O)c2ccccc2)cc1

>  <scaffold>  (427) 
O=C(Nc1nccc(Nc2ccccc2)c1C(=O)c1ccccc1)c1ccccc1

>  <molecular_formula>  (427) 
C28H28N5O2+

$$$$
ATP-HTVS-442C36D59863
     RDKit          3D

 65 69  0  0  0  0  0  0  0  0999 V2000
  196.7640  180.9905  153.3455 N   0  0  0  0  0  0  0  0  0  0  0  0
  197.0104  182.0939  152.5404 C   0  0  0  0  0  0  0  0  0  0  0  0
  197.2620  183.2562  153.3230 C   0  0  0  0  0  0  0  0  0  0  0  0
  197.1334  182.8185  154.6385 N   0  0  0  0  0  0  0  0  0  0  0  0
  197.3014  183.5396  155.8543 C   0  0  0  0  0  0  0  0  0  0  0  0
  196.3957  183.4080  156.9321 C   0  0  0  0  0  0  0  0  0  0  0  0
  196.6168  184.0824  158.1504 C   0  0  0  0  0  0  0  0  0  0  0  0
  197.7145  184.9552  158.2856 C   0  0  0  0  0  0  0  0  0  0  0  0
  198.5898  185.1458  157.1942 C   0  0  0  0  0  0  0  0  0  0  0  0
  198.3945  184.4304  155.9907 C   0  0  0  0  0  0  0  0  0  0  0  0
  196.8235  181.4891  154.5801 C   0  0  0  0  0  0  0  0  0  0  0  0
  196.6360  180.6130  155.7818 C   0  0  1  0  0  0  0  0  0  0  0  0
  197.9543  180.3425  156.5270 C   0  0  1  0  0  0  0  0  0  0  0  0
  198.5257  179.0446  156.1256 N   0  0  1  0  0  0  0  0  0  0  0  0
  199.9734  178.8987  156.3759 C   0  0  1  0  0  0  0  0  0  0  0  0
  200.4905  177.5817  155.8218 C   0  0  0  0  0  0  0  0  0  0  0  0
  200.3065  177.2638  154.4634 C   0  0  0  0  0  0  0  0  0  0  0  0
  200.8148  176.0523  153.9459 C   0  0  0  0  0  0  0  0  0  0  0  0
  201.5195  175.1526  154.7752 C   0  0  0  0  0  0  0  0  0  0  0  0
  202.0328  173.9505  154.2659 N   0  0  0  0  0  0  0  0  0  0  0  0
  201.3079  173.1751  153.2612 C   0  0  1  0  0  0  0  0  0  0  0  0
  202.2262  172.8605  152.0641 C   0  0  1  0  0  0  0  0  0  0  0  0
  203.5008  172.2528  152.5112 N   0  0  2  0  0  0  0  0  0  0  0  0
  204.2090  173.1066  153.4846 C   0  0  1  0  0  0  0  0  0  0  0  0
  203.3202  173.4171  154.7066 C   0  0  1  0  0  0  0  0  0  0  0  0
  204.3635  171.9101  151.3579 C   0  0  2  0  0  0  0  0  0  0  0  0
  201.6992  175.4846  156.1349 C   0  0  0  0  0  0  0  0  0  0  0  0
  201.1763  176.6857  156.6611 C   0  0  0  0  0  0  0  0  0  0  0  0
  197.5648  184.4964  152.7178 C   0  0  0  0  0  0  0  0  0  0  0  0
  197.6224  184.5834  151.3121 C   0  0  0  0  0  0  0  0  0  0  0  0
  197.3696  183.4436  150.5208 C   0  0  0  0  0  0  0  0  0  0  0  0
  197.0651  182.2064  151.1307 C   0  0  0  0  0  0  0  0  0  0  0  0
  198.0312  178.3501  156.6957 H   0  0  0  0  0  0  0  0  0  0  0  0
  195.5260  182.7855  156.8397 H   0  0  0  0  0  0  0  0  0  0  0  0
  195.9367  183.9259  158.9737 H   0  0  0  0  0  0  0  0  0  0  0  0
  197.8664  185.4971  159.2110 H   0  0  0  0  0  0  0  0  0  0  0  0
  199.4140  185.8500  157.2747 H   0  0  0  0  0  0  0  0  0  0  0  0
  199.0838  184.5820  155.1714 H   0  0  0  0  0  0  0  0  0  0  0  0
  195.8951  181.0477  156.4519 H   0  0  0  0  0  0  0  0  0  0  0  0
  196.2243  179.6517  155.4436 H   0  0  0  0  0  0  0  0  0  0  0  0
  198.6740  181.1445  156.3691 H   0  0  0  0  0  0  0  0  0  0  0  0
  197.7883  180.3046  157.6022 H   0  0  0  0  0  0  0  0  0  0  0  0
  200.5196  179.7165  155.8966 H   0  0  0  0  0  0  0  0  0  0  0  0
  200.1563  178.9671  157.4502 H   0  0  0  0  0  0  0  0  0  0  0  0
  199.7890  177.9442  153.7999 H   0  0  0  0  0  0  0  0  0  0  0  0
  200.6668  175.8398  152.8993 H   0  0  0  0  0  0  0  0  0  0  0  0
  200.9879  172.2405  153.7184 H   0  0  0  0  0  0  0  0  0  0  0  0
  200.3943  173.6750  152.9262 H   0  0  0  0  0  0  0  0  0  0  0  0
  201.7034  172.2161  151.3504 H   0  0  0  0  0  0  0  0  0  0  0  0
  202.4409  173.7924  151.5381 H   0  0  0  0  0  0  0  0  0  0  0  0
  205.1428  172.6362  153.8088 H   0  0  0  0  0  0  0  0  0  0  0  0
  204.4839  174.0459  153.0043 H   0  0  0  0  0  0  0  0  0  0  0  0
  203.8368  174.1208  155.3649 H   0  0  0  0  0  0  0  0  0  0  0  0
  203.1540  172.5047  155.2803 H   0  0  0  0  0  0  0  0  0  0  0  0
  204.6908  172.8151  150.8472 H   0  0  0  0  0  0  0  0  0  0  0  0
  203.8334  171.2925  150.6297 H   0  0  0  0  0  0  0  0  0  0  0  0
  205.2520  171.3637  151.6795 H   0  0  0  0  0  0  0  0  0  0  0  0
  202.2305  174.8222  156.7999 H   0  0  0  0  0  0  0  0  0  0  0  0
  201.3248  176.9188  157.7051 H   0  0  0  0  0  0  0  0  0  0  0  0
  197.7500  185.3719  153.3222 H   0  0  0  0  0  0  0  0  0  0  0  0
  197.8588  185.5261  150.8394 H   0  0  0  0  0  0  0  0  0  0  0  0
  197.4168  183.5147  149.4436 H   0  0  0  0  0  0  0  0  0  0  0  0
  196.8859  181.3300  150.5240 H   0  0  0  0  0  0  0  0  0  0  0  0
  198.3481  178.9052  155.1449 H   0  0  0  0  0  0  0  0  0  0  0  0
  203.2983  171.3774  153.0203 H   0  0  0  0  0  0  0  0  0  0  0  0
  1  2  1  0
  1 11  2  0
  2  3  1  0
  2 32  2  0
  3  4  1  0
  3 29  2  0
  4  5  1  0
  4 11  1  0
  5  6  2  0
  5 10  1  0
  6  7  1  0
  6 34  1  0
  7  8  2  0
  7 35  1  0
  8  9  1  0
  8 36  1  0
  9 10  2  0
  9 37  1  0
 10 38  1  0
 11 12  1  0
 12 13  1  0
 12 39  1  1
 12 40  1  0
 13 14  1  0
 13 41  1  1
 13 42  1  0
 14 15  1  0
 14 33  1  1
 14 64  1  0
 15 16  1  0
 15 43  1  6
 15 44  1  0
 16 17  1  0
 16 28  2  0
 17 18  2  0
 17 45  1  0
 18 19  1  0
 18 46  1  0
 19 20  1  0
 19 27  2  0
 20 21  1  0
 20 25  1  0
 21 22  1  0
 21 47  1  1
 21 48  1  0
 22 23  1  0
 22 49  1  6
 22 50  1  0
 23 24  1  0
 23 26  1  0
 23 65  1  1
 24 25  1  0
 24 51  1  1
 24 52  1  0
 25 53  1  1
 25 54  1  0
 26 55  1  6
 26 56  1  0
 26 57  1  0
 27 28  1  0
 27 58  1  0
 28 59  1  0
 29 30  1  0
 29 60  1  0
 30 31  2  0
 30 61  1  0
 31 32  1  0
 31 62  1  0
 32 63  1  0
M  CHG  2  14   1  23   1
M  END
>  <s_epik_cmdline>  (428) 
J2VwaWtfcHl0aG9uJywgJy1waCcsICc3LjAwMDAwMCcsICctcGh0JywgJzIuMDAwMDAwJywgJy1tcycsICcxNicsICctdG4nLCAnOCcsICctbWEnLCAnMjAwJywgJy1pbWFlJywgJzxpbmZpbGUubWFlPicsICctb21hZScsICc8b3V0ZmlsZS5tYWU+Jw==

>  <s_epik_input>  (428) 
W2NIXTFbY0hdW2NIXVtjSF1bY0hdYzEtbihjKGMyMylbY0hdW2NIXVtjSF1bY0hdMyljKG4yKVtDSDJdW0NIMl1bTkhdW0NIMl1jNFtjSF1bY0hdYyhbY0hdW2NIXTQpTjVbQ0gyXVtDSDJdTihbQ0gzXSlbQ0gyXVtDSDJdNQ==

>  <s_i_glide_gridfile>  (428) 
ATP-Grid

>  <s_lp_Force_Field>  (428) 
OPLS_2005

>  <s_lp_Variant>  (428) 
m_270004bbb____21660890____8300602-1

>  <s_lp_label>  (428) 
1551_sdstereoexpander_1_neutralizer_1_epik_1_stereoizer_1

>  <s_m_source_file>  (428) 
ATP-VSW-LIGPREP-002-in.maegz

>  <s_sd_BIOSOLVEIT.INFINISEE\_QUERY\_NAME>  (428) 
Ref-Lig

>  <s_sd_BIOSOLVEIT.INFINISEE\_QUERY\_SMILES>  (428) 
S(c1nc2c(cc1C[NH2+]Cc3ccc(cc3)C[NH+](C)C)cccc2)Cc4ccccc4

>  <s_sd_BIOSOLVEIT.INFINISEE\_REACTION\_NAME>  (428) 
m_270004bbb

>  <s_sd_BIOSOLVEIT.INFINISEE\_REAGENT1\_SMILES>  (428) 
[R1*]NCCC1=Nc2c(N1c3ccccc3)cccc2

>  <s_sd_BIOSOLVEIT.INFINISEE\_REAGENT2\_SMILES>  (428) 
[R1*]Cc1ccc(N2CCN(CC2)C)cc1

>  <s_sd_BIOSOLVEIT.INFINISEE\_SPACE>  (428) 
REALSpace_44bn_2023-08

>  <s_vsw_compound_code>  (428) 
49602

>  <s_vsw_variant>  (428) 
49602-1

>  <r_epik_Charging_Adjusted_Penalty>  (428) 
0.31884055362863301

>  <r_epik_Ionization_Penalty>  (428) 
0.1842

>  <r_epik_Ionization_Penalty_Charging>  (428) 
0.17100000000000001

>  <r_epik_Ionization_Penalty_Neutral>  (428) 
0.0132

>  <r_epik_State_Penalty>  (428) 
0.14779999999999999

>  <r_i_docking_score>  (428) 
-5.6375250103448797

>  <r_i_glide_ecoul>  (428) 
-16.872533798217798

>  <r_i_glide_eff_state_penalty>  (428) 
0.14779999999999999

>  <r_i_glide_einternal>  (428) 
9.7809638977050799

>  <r_i_glide_emodel>  (428) 
-72.826645391868496

>  <r_i_glide_energy>  (428) 
-49.2134685516357

>  <r_i_glide_erotb>  (428) 
0.760239253932252

>  <r_i_glide_esite>  (428) 
-0.264486795694507

>  <r_i_glide_evdw>  (428) 
-32.340934753417997

>  <r_i_glide_gscore>  (428) 
-5.7853250103448799

>  <r_i_glide_hbond>  (428) 
-0.40000000000000002

>  <r_i_glide_ligand_efficiency>  (428) 
-0.17617265657327799

>  <r_i_glide_ligand_efficiency_ln>  (428) 
-1.26239552294405

>  <r_i_glide_ligand_efficiency_sa>  (428) 
-0.559313320098762

>  <r_i_glide_lipo>  (428) 
-0.96314317945710004

>  <r_i_glide_metal>  (428) 
-0

>  <r_i_glide_rewards>  (428) 
-0.77000748172195999

>  <r_lp_Energy>  (428) 
41.938363000000003

>  <r_qp_ACxDN^.5/SA>  (428) 
0.0083823999999999999

>  <r_qp_CIQPlogS>  (428) 
-4.7309999999999999

>  <r_qp_EA(eV)>  (428) 
0.35899999999999999

>  <r_qp_FISA>  (428) 
44.054000000000002

>  <r_qp_FOSA>  (428) 
305.47000000000003

>  <r_qp_IP(eV)>  (428) 
8.4179999999999993

>  <r_qp_Jm>  (428) 
0.00131701890501222

>  <r_qp_PISA>  (428) 
366.26100000000002

>  <r_qp_PSA>  (428) 
39.091999999999999

>  <r_qp_PercentHumanOralAbsorption>  (428) 
95.700000000000003

>  <r_qp_QPPCaco>  (428) 
235.46899999999999

>  <r_qp_QPPMDCK>  (428) 
126.836

>  <r_qp_QPlogBB>  (428) 
0.63900000000000001

>  <r_qp_QPlogHERG>  (428) 
-7.3869999999999996

>  <r_qp_QPlogKhsa>  (428) 
0.97399999999999998

>  <r_qp_QPlogKp>  (428) 
-4.6859999999999999

>  <r_qp_QPlogPC16>  (428) 
14.07

>  <r_qp_QPlogPo/w>  (428) 
4.492

>  <r_qp_QPlogPoct>  (428) 
21.245000000000001

>  <r_qp_QPlogPw>  (428) 
10.504

>  <r_qp_QPlogS>  (428) 
-3.823

>  <r_qp_QPpolrz>  (428) 
49.200000000000003

>  <r_qp_SASA>  (428) 
715.78599999999994

>  <r_qp_SAamideO>  (428) 
0

>  <r_qp_SAfluorine>  (428) 
0

>  <r_qp_WPSA>  (428) 
0

>  <r_qp_accptHB>  (428) 
6

>  <r_qp_dip^2/V>  (428) 
0.020270799999999999

>  <r_qp_dipole>  (428) 
5.2809999999999997

>  <r_qp_donorHB>  (428) 
1

>  <r_qp_glob>  (428) 
0.8358392

>  <r_qp_mol_MW>  (428) 
425.57499999999999

>  <r_qp_volume>  (428) 
1375.9760000000001

>  <r_sd_BIOSOLVEIT.INFINISEE\_FTREES\_SIMILARITY>  (428) 
0.90600000000000003

>  <r_sd_BIOSOLVEIT.LOGP>  (428) 
1.6662999999999999

>  <r_sd_BIOSOLVEIT.MOLECULAR\_WEIGHT>  (428) 
427.59300000000002

>  <r_sd_BIOSOLVEIT.TPSA>  (428) 
42.109999999999999

>  <i_epik_Tot_Q>  (428) 
2

>  <i_epik_Tot_abs_Q>  (428) 
2

>  <i_f3d_flags>  (428) 
0

>  <i_i_glide_confnum>  (428) 
7

>  <i_i_glide_lignum>  (428) 
534

>  <i_i_glide_posenum>  (428) 
16

>  <i_i_glide_rotatable_bonds>  (428) 
7

>  <i_lp_mmshare_version>  (428) 
65135

>  <i_m_ct_format>  (428) 
2

>  <i_m_source_file_index>  (428) 
1551

>  <i_qp_#NandO>  (428) 
5

>  <i_qp_#acid>  (428) 
0

>  <i_qp_#amide>  (428) 
0

>  <i_qp_#amidine>  (428) 
0

>  <i_qp_#amine>  (428) 
2

>  <i_qp_#in34>  (428) 
0

>  <i_qp_#in56>  (428) 
27

>  <i_qp_#metab>  (428) 
4

>  <i_qp_#nonHatm>  (428) 
32

>  <i_qp_#noncon>  (428) 
4

>  <i_qp_#ringatoms>  (428) 
27

>  <i_qp_#rotor>  (428) 
5

>  <i_qp_#rtvFG>  (428) 
0

>  <i_qp_#stars>  (428) 
0

>  <i_qp_CNS>  (428) 
2

>  <i_qp_HumanOralAbsorption>  (428) 
3

>  <i_qp_RuleOfFive>  (428) 
0

>  <i_qp_RuleOfThree>  (428) 
0

>  <i_sd_BIOSOLVEIT.INFINISEE\_REAGENT1\_NAME>  (428) 
21660890

>  <i_sd_BIOSOLVEIT.INFINISEE\_REAGENT2\_NAME>  (428) 
8300602

>  <i_sd_BIOSOLVEIT.INFINISEE\_RESULT\_RANK>  (428) 
62417

>  <i_sd_version>  (428) 
0

>  <b_lp_Chiralities_Consistent>  (428) 
1

>  <b_sd_chiral_flag>  (428) 
0

>  <canonical_id>  (428) 
ATP-HTVS-442C36D59863

>  <compound_code>  (428) 
49602

>  <title>  (428) 
m_270004bbb____21660890____8300602

>  <variant>  (428) 
49602-1

>  <source_file>  (428) 
运行/运行/ATP-VSW/ATP-VSW-DOCK_HTVS_1-002_lib.maegz

>  <canonical_smiles>  (428) 
C[NH+]1CCN(c2ccc(C[NH2+]CCc3nc4ccccc4n3-c3ccccc3)cc2)CC1

>  <scaffold>  (428) 
c1ccc(-n2c(CC[NH2+]Cc3ccc(N4CC[NH2+]CC4)cc3)nc3ccccc32)cc1

>  <molecular_formula>  (428) 
C27H33N5+2

$$$$
ATP-HTVS-443BC3733DB7
     RDKit          3D

 55 58  0  0  0  0  0  0  0  0999 V2000
  195.9593  180.1002  151.2598 Cl  0  0  0  0  0  0  0  0  0  0  0  0
  197.2375  179.8528  152.4022 C   0  0  0  0  0  0  0  0  0  0  0  0
  198.3507  179.0379  152.0959 C   0  0  0  0  0  0  0  0  0  0  0  0
  198.4569  178.3738  150.8060 C   0  0  0  0  0  0  0  0  0  0  0  0
  198.5392  177.8488  149.7761 N   0  0  0  0  0  0  0  0  0  0  0  0
  199.3698  178.8632  153.0571 C   0  0  0  0  0  0  0  0  0  0  0  0
  199.2746  179.4896  154.3181 C   0  0  0  0  0  0  0  0  0  0  0  0
  198.1705  180.3174  154.6279 C   0  0  0  0  0  0  0  0  0  0  0  0
  197.1458  180.4713  153.6625 C   0  0  0  0  0  0  0  0  0  0  0  0
  198.0750  180.9902  155.9724 C   0  0  0  0  0  0  0  0  0  0  0  0
  198.7384  180.6033  156.9281 O   0  0  0  0  0  0  0  0  0  0  0  0
  197.3282  182.1055  155.9865 N   0  0  0  0  0  0  0  0  0  0  0  0
  197.0367  182.9422  157.0956 C   0  0  0  0  0  0  0  0  0  0  0  0
  197.1495  184.3457  156.9773 C   0  0  0  0  0  0  0  0  0  0  0  0
  197.6422  184.9386  155.7373 C   0  0  0  0  0  0  0  0  0  0  0  0
  197.9992  185.4442  154.6853 C   0  0  0  0  0  0  0  0  0  0  0  0
  198.3672  186.0409  153.3958 C   0  0  1  0  0  0  0  0  0  0  0  0
  199.6589  185.5588  152.9231 N   0  0  0  0  0  0  0  0  0  0  0  0
  199.9352  185.9899  151.5593 C   0  0  2  0  0  0  0  0  0  0  0  0
  199.0501  185.2680  150.5528 C   0  0  0  0  0  0  0  0  0  0  0  0
  199.2387  183.8970  150.2691 C   0  0  0  0  0  0  0  0  0  0  0  0
  198.4117  183.2383  149.3422 C   0  0  0  0  0  0  0  0  0  0  0  0
  198.6149  181.9285  149.0652 F   0  0  0  0  0  0  0  0  0  0  0  0
  197.3698  183.9402  148.7069 C   0  0  0  0  0  0  0  0  0  0  0  0
  197.1528  185.2968  149.0148 C   0  0  0  0  0  0  0  0  0  0  0  0
  197.9932  185.9625  149.9265 C   0  0  0  0  0  0  0  0  0  0  0  0
  201.4287  185.7648  151.2666 C   0  0  2  0  0  0  0  0  0  0  0  0
  196.7595  185.1599  158.0762 C   0  0  0  0  0  0  0  0  0  0  0  0
  196.2341  184.5165  159.2322 C   0  0  0  0  0  0  0  0  0  0  0  0
  196.1035  183.1778  159.3216 N   0  0  0  0  0  0  0  0  0  0  0  0
  196.5073  182.4053  158.2876 C   0  0  0  0  0  0  0  0  0  0  0  0
  195.8413  185.3226  160.3219 C   0  0  0  0  0  0  0  0  0  0  0  0
  195.9577  186.7231  160.2903 C   0  0  0  0  0  0  0  0  0  0  0  0
  196.4658  187.3533  159.1445 C   0  0  0  0  0  0  0  0  0  0  0  0
  196.8633  186.5740  158.0422 C   0  0  0  0  0  0  0  0  0  0  0  0
  200.4013  185.8595  153.5363 H   0  0  0  0  0  0  0  0  0  0  0  0
  200.2185  178.2298  152.8393 H   0  0  0  0  0  0  0  0  0  0  0  0
  200.0569  179.3335  155.0491 H   0  0  0  0  0  0  0  0  0  0  0  0
  196.2713  181.0715  153.8629 H   0  0  0  0  0  0  0  0  0  0  0  0
  196.9941  182.4297  155.0927 H   0  0  0  0  0  0  0  0  0  0  0  0
  197.5708  185.7783  152.6986 H   0  0  0  0  0  0  0  0  0  0  0  0
  198.3817  187.1268  153.5068 H   0  0  0  0  0  0  0  0  0  0  0  0
  199.7442  187.0660  151.4903 H   0  0  0  0  0  0  0  0  0  0  0  0
  200.0172  183.3343  150.7616 H   0  0  0  0  0  0  0  0  0  0  0  0
  196.7396  183.4403  147.9865 H   0  0  0  0  0  0  0  0  0  0  0  0
  196.3524  185.8391  148.5440 H   0  0  0  0  0  0  0  0  0  0  0  0
  197.8145  187.0059  150.1469 H   0  0  0  0  0  0  0  0  0  0  0  0
  201.6792  186.0884  150.2548 H   0  0  0  0  0  0  0  0  0  0  0  0
  201.7086  184.7147  151.3519 H   0  0  0  0  0  0  0  0  0  0  0  0
  202.0679  186.3183  151.9601 H   0  0  0  0  0  0  0  0  0  0  0  0
  196.3354  181.3443  158.3851 H   0  0  0  0  0  0  0  0  0  0  0  0
  195.4666  184.8414  161.2082 H   0  0  0  0  0  0  0  0  0  0  0  0
  195.6742  187.3180  161.1450 H   0  0  0  0  0  0  0  0  0  0  0  0
  196.5650  188.4305  159.1149 H   0  0  0  0  0  0  0  0  0  0  0  0
  197.2506  187.0931  157.1771 H   0  0  0  0  0  0  0  0  0  0  0  0
  1  2  1  0
  2  3  2  0
  2  9  1  0
  3  4  1  0
  3  6  1  0
  4  5  3  0
  6  7  2  0
  6 37  1  0
  7  8  1  0
  7 38  1  0
  8  9  2  0
  8 10  1  0
  9 39  1  0
 10 11  2  0
 10 12  1  0
 12 13  1  0
 12 40  1  0
 13 14  2  0
 13 31  1  0
 14 15  1  0
 14 28  1  0
 15 16  3  0
 16 17  1  0
 17 18  1  0
 17 41  1  6
 17 42  1  0
 18 19  1  0
 18 36  1  0
 19 20  1  0
 19 27  1  0
 19 43  1  1
 20 21  1  0
 20 26  2  0
 21 22  2  0
 21 44  1  0
 22 23  1  0
 22 24  1  0
 24 25  2  0
 24 45  1  0
 25 26  1  0
 25 46  1  0
 26 47  1  0
 27 48  1  6
 27 49  1  0
 27 50  1  0
 28 29  1  0
 28 35  2  0
 29 30  1  0
 29 32  2  0
 30 31  2  0
 31 51  1  0
 32 33  1  0
 32 52  1  0
 33 34  2  0
 33 53  1  0
 34 35  1  0
 34 54  1  0
 35 55  1  0
M  END
>  <s_epik_cmdline>  (429) 
J2VwaWtfcHl0aG9uJywgJy1waCcsICc3LjAwMDAwMCcsICctcGh0JywgJzIuMDAwMDAwJywgJy1tcycsICcxNicsICctdG4nLCAnOCcsICctbWEnLCAnMjAwJywgJy1pbWFlJywgJzxpbmZpbGUubWFlPicsICctb21hZScsICc8b3V0ZmlsZS5tYWU+Jw==

>  <s_epik_input>  (429) 
Q2xjMWMoQyNOKVtjSF1bY0hdYyhbY0hdMSlDKD1PKVtOSF1jKFtjSF1uYyhjMjMpW2NIXVtjSF1bY0hdW2NIXTMpYzJDI0NbQ0gyXVtOSF1bQ0BASF0oW0NIM10pYzRbY0hdYyhGKVtjSF1bY0hdW2NIXTQ=

>  <s_i_glide_gridfile>  (429) 
ATP-Grid

>  <s_lp_Force_Field>  (429) 
OPLS_2005

>  <s_lp_Variant>  (429) 
rxn503b____EMOL44596394____EMOL30488121____EMOL317509042-2

>  <s_lp_label>  (429) 
3040_sdstereoexpander_2_neutralizer_1_epik_1_stereoizer_1

>  <s_m_source_file>  (429) 
ATP-VSW-LIGPREP-002-in.maegz

>  <s_sd_BIOSOLVEIT.INFINISEE\_QUERY\_NAME>  (429) 
Ref-Lig

>  <s_sd_BIOSOLVEIT.INFINISEE\_QUERY\_SMILES>  (429) 
S(c1nc2c(cc1C[NH2+]Cc3ccc(cc3)C[NH+](C)C)cccc2)Cc4ccccc4

>  <s_sd_BIOSOLVEIT.INFINISEE\_REACTION\_NAME>  (429) 
rxn503b

>  <s_sd_BIOSOLVEIT.INFINISEE\_REAGENT1\_NAME>  (429) 
EMOL44596394

>  <s_sd_BIOSOLVEIT.INFINISEE\_REAGENT1\_SMILES>  (429) 
Clc1c(C#N)ccc(c1)C(=O)O

>  <s_sd_BIOSOLVEIT.INFINISEE\_REAGENT2\_NAME>  (429) 
EMOL30488121

>  <s_sd_BIOSOLVEIT.INFINISEE\_REAGENT2\_SMILES>  (429) 
Brc1c(N)cnc2c1cccc2

>  <s_sd_BIOSOLVEIT.INFINISEE\_REAGENT3\_NAME>  (429) 
EMOL317509042

>  <s_sd_BIOSOLVEIT.INFINISEE\_REAGENT3\_SMILES>  (429) 
Fc1cc(ccc1)C(NCC#C)C

>  <s_sd_BIOSOLVEIT.INFINISEE\_SPACE>  (429) 
eXplore_7tr_2022-12

>  <s_vsw_compound_code>  (429) 
97250

>  <s_vsw_variant>  (429) 
97250-2

>  <r_epik_Charging_Adjusted_Penalty>  (429) 
0.25225277160849602

>  <r_epik_Ionization_Penalty>  (429) 
0.25459999999999999

>  <r_epik_Ionization_Penalty_Charging>  (429) 
0

>  <r_epik_Ionization_Penalty_Neutral>  (429) 
0.25459999999999999

>  <r_epik_State_Penalty>  (429) 
0.25230000000000002

>  <r_i_docking_score>  (429) 
-3.7922614364407199

>  <r_i_glide_ecoul>  (429) 
-0.156284749507904

>  <r_i_glide_eff_state_penalty>  (429) 
0.25230000000000002

>  <r_i_glide_einternal>  (429) 
6.7494764328002903

>  <r_i_glide_emodel>  (429) 
-48.133762708795501

>  <r_i_glide_energy>  (429) 
-40.4806331992149

>  <r_i_glide_erotb>  (429) 
0.60919194948839805

>  <r_i_glide_esite>  (429) 
-0.087255028909589902

>  <r_i_glide_evdw>  (429) 
-40.324348449707003

>  <r_i_glide_gscore>  (429) 
-4.0445614364407199

>  <r_i_glide_hbond>  (429) 
0

>  <r_i_glide_ligand_efficiency>  (429) 
-0.10835032675544901

>  <r_i_glide_ligand_efficiency_ln>  (429) 
-0.83248555000664604

>  <r_i_glide_ligand_efficiency_sa>  (429) 
-0.35442110312764502

>  <r_i_glide_lipo>  (429) 
-2.2735920265674201

>  <r_i_glide_metal>  (429) 
-0

>  <r_i_glide_rewards>  (429) 
-0.25324619554056998

>  <r_lp_Energy>  (429) 
31.128121

>  <r_qp_ACxDN^.5/SA>  (429) 
0.012226600000000001

>  <r_qp_CIQPlogS>  (429) 
-7.6399999999999997

>  <r_qp_EA(eV)>  (429) 
1.45

>  <r_qp_FISA>  (429) 
128.595

>  <r_qp_FOSA>  (429) 
124.795

>  <r_qp_IP(eV)>  (429) 
8.8339999999999996

>  <r_qp_Jm>  (429) 
2.7796966605586699e-05

>  <r_qp_PISA>  (429) 
390.14299999999997

>  <r_qp_PSA>  (429) 
84.302000000000007

>  <r_qp_PercentHumanOralAbsorption>  (429) 
93.968000000000004

>  <r_qp_QPPCaco>  (429) 
149.05099999999999

>  <r_qp_QPPMDCK>  (429) 
274.14400000000001

>  <r_qp_QPlogBB>  (429) 
-0.55000000000000004

>  <r_qp_QPlogHERG>  (429) 
-7.1369999999999996

>  <r_qp_QPlogKhsa>  (429) 
0.82899999999999996

>  <r_qp_QPlogKp>  (429) 
-3.8100000000000001

>  <r_qp_QPlogPC16>  (429) 
15.656000000000001

>  <r_qp_QPlogPo/w>  (429) 
4.8029999999999999

>  <r_qp_QPlogPoct>  (429) 
24.248000000000001

>  <r_qp_QPlogPw>  (429) 
12.662000000000001

>  <r_qp_QPlogS>  (429) 
-6.4299999999999997

>  <r_qp_QPpolrz>  (429) 
49.348999999999997

>  <r_qp_SASA>  (429) 
751.83500000000004

>  <r_qp_SAamideO>  (429) 
0

>  <r_qp_SAfluorine>  (429) 
46.969000000000001

>  <r_qp_WPSA>  (429) 
108.30200000000001

>  <r_qp_accptHB>  (429) 
6.5

>  <r_qp_dip^2/V>  (429) 
0.050191100000000002

>  <r_qp_dipole>  (429) 
8.4489999999999998

>  <r_qp_donorHB>  (429) 
2

>  <r_qp_glob>  (429) 
0.81346339999999995

>  <r_qp_mol_MW>  (429) 
482.94400000000002

>  <r_qp_volume>  (429) 
1422.143

>  <r_sd_BIOSOLVEIT.INFINISEE\_FTREES\_SIMILARITY>  (429) 
0.90200000000000002

>  <r_sd_BIOSOLVEIT.LOGP>  (429) 
4.8273799999999998

>  <r_sd_BIOSOLVEIT.MOLECULAR\_WEIGHT>  (429) 
483.952

>  <r_sd_BIOSOLVEIT.TPSA>  (429) 
82.390000000000001

>  <i_epik_Tot_Q>  (429) 
0

>  <i_epik_Tot_abs_Q>  (429) 
0

>  <i_f3d_flags>  (429) 
0

>  <i_i_glide_confnum>  (429) 
7

>  <i_i_glide_lignum>  (429) 
100

>  <i_i_glide_posenum>  (429) 
16

>  <i_i_glide_rotatable_bonds>  (429) 
8

>  <i_lp_mmshare_version>  (429) 
65135

>  <i_m_ct_format>  (429) 
2

>  <i_m_source_file_index>  (429) 
3040

>  <i_qp_#NandO>  (429) 
5

>  <i_qp_#acid>  (429) 
0

>  <i_qp_#amide>  (429) 
0

>  <i_qp_#amidine>  (429) 
0

>  <i_qp_#amine>  (429) 
1

>  <i_qp_#in34>  (429) 
0

>  <i_qp_#in56>  (429) 
22

>  <i_qp_#metab>  (429) 
5

>  <i_qp_#nonHatm>  (429) 
35

>  <i_qp_#noncon>  (429) 
0

>  <i_qp_#ringatoms>  (429) 
22

>  <i_qp_#rotor>  (429) 
8

>  <i_qp_#rtvFG>  (429) 
0

>  <i_qp_#stars>  (429) 
0

>  <i_qp_CNS>  (429) 
1

>  <i_qp_HumanOralAbsorption>  (429) 
1

>  <i_qp_RuleOfFive>  (429) 
0

>  <i_qp_RuleOfThree>  (429) 
1

>  <i_sd_BIOSOLVEIT.INFINISEE\_RESULT\_RANK>  (429) 
89999

>  <i_sd_version>  (429) 
0

>  <b_lp_Chiralities_Consistent>  (429) 
1

>  <b_sd_chiral_flag>  (429) 
0

>  <canonical_id>  (429) 
ATP-HTVS-443BC3733DB7

>  <compound_code>  (429) 
97250

>  <title>  (429) 
rxn503b____EMOL44596394____EMOL30488121____EMOL317509042

>  <variant>  (429) 
97250-2

>  <source_file>  (429) 
运行/运行/ATP-VSW/ATP-VSW-DOCK_HTVS_1-003_lib/ATP-VSW-DOCK_HTVS_1-003_lib.mae

>  <canonical_smiles>  (429) 
C[C@H](NCC#Cc1c(NC(=O)c2ccc(C#N)c(Cl)c2)cnc2ccccc12)c1cccc(F)c1

>  <scaffold>  (429) 
O=C(Nc1cnc2ccccc2c1C#CCNCc1ccccc1)c1ccccc1

>  <molecular_formula>  (429) 
C28H20ClFN4O

$$$$
ATP-HTVS-445D8195943B
     RDKit          3D

 58 61  0  0  0  0  0  0  0  0999 V2000
  200.2585  175.0480  149.0760 F   0  0  0  0  0  0  0  0  0  0  0  0
  200.9155  175.0413  150.2592 C   0  0  0  0  0  0  0  0  0  0  0  0
  200.4518  175.8331  151.3248 C   0  0  0  0  0  0  0  0  0  0  0  0
  201.1314  175.8757  152.5702 C   0  0  0  0  0  0  0  0  0  0  0  0
  202.3007  175.0677  152.7284 C   0  0  0  0  0  0  0  0  0  0  0  0
  203.0989  175.0272  153.9584 C   0  0  0  0  0  0  0  0  0  0  0  0
  203.7318  174.9923  154.9272 N   0  0  0  0  0  0  0  0  0  0  0  0
  202.7475  174.2639  151.6559 C   0  0  0  0  0  0  0  0  0  0  0  0
  202.0638  174.2505  150.4264 C   0  0  0  0  0  0  0  0  0  0  0  0
  200.5642  176.7384  153.6802 C   0  0  0  0  0  0  0  0  0  0  0  0
  200.6522  176.4070  154.8608 O   0  0  0  0  0  0  0  0  0  0  0  0
  199.9721  177.8709  153.2510 N   0  0  0  0  0  0  0  0  0  0  0  0
  199.2406  178.8324  154.0005 C   0  0  0  0  0  0  0  0  0  0  0  0
  199.3934  178.9513  155.3369 N   0  0  0  0  0  0  0  0  0  0  0  0
  198.6898  179.8744  156.0153 C   0  0  0  0  0  0  0  0  0  0  0  0
  197.7970  180.7842  155.4041 C   0  0  0  0  0  0  0  0  0  0  0  0
  197.1102  181.7723  156.1421 N   0  0  0  0  0  0  0  0  0  0  0  0
  197.2951  181.8898  157.5794 C   0  0  1  0  0  0  0  0  0  0  0  0
  196.5008  183.0292  158.1684 C   0  0  0  0  0  0  0  0  0  0  0  0
  197.0504  184.3385  158.0462 C   0  0  0  0  0  0  0  0  0  0  0  0
  196.4067  185.4198  158.7252 C   0  0  0  0  0  0  0  0  0  0  0  0
  195.1443  185.2149  159.3712 C   0  0  0  0  0  0  0  0  0  0  0  0
  194.5703  183.9263  159.3549 C   0  0  0  0  0  0  0  0  0  0  0  0
  195.2366  182.8077  158.8070 C   0  0  0  0  0  0  0  0  0  0  0  0
  197.0346  186.8215  158.7224 C   0  0  1  0  0  0  0  0  0  0  0  0
  198.3889  186.9229  159.2928 N   0  0  0  0  0  0  0  0  0  0  0  0
  198.7874  188.3100  159.4686 C   0  0  2  0  0  0  0  0  0  0  0  0
  199.4222  186.2242  158.5027 C   0  0  2  0  0  0  0  0  0  0  0  0
  197.6239  180.6670  154.0035 C   0  0  0  0  0  0  0  0  0  0  0  0
  198.3501  179.6789  153.2833 C   0  0  0  0  0  0  0  0  0  0  0  0
  198.1707  179.5751  151.8781 C   0  0  0  0  0  0  0  0  0  0  0  0
  197.2920  180.4390  151.2006 C   0  0  0  0  0  0  0  0  0  0  0  0
  196.5838  181.4185  151.9137 C   0  0  0  0  0  0  0  0  0  0  0  0
  196.7491  181.5329  153.3035 C   0  0  0  0  0  0  0  0  0  0  0  0
  199.5528  176.4073  151.1488 H   0  0  0  0  0  0  0  0  0  0  0  0
  203.6299  173.6476  151.7683 H   0  0  0  0  0  0  0  0  0  0  0  0
  202.4161  173.6371  149.6091 H   0  0  0  0  0  0  0  0  0  0  0  0
  198.8858  179.8815  157.0759 H   0  0  0  0  0  0  0  0  0  0  0  0
  196.2891  182.2210  155.7542 H   0  0  0  0  0  0  0  0  0  0  0  0
  197.0581  180.9681  158.1020 H   0  0  0  0  0  0  0  0  0  0  0  0
  198.3602  182.0806  157.7533 H   0  0  0  0  0  0  0  0  0  0  0  0
  197.9305  184.4570  157.4810 H   0  0  0  0  0  0  0  0  0  0  0  0
  194.6026  186.0457  159.7868 H   0  0  0  0  0  0  0  0  0  0  0  0
  193.5751  183.7892  159.7672 H   0  0  0  0  0  0  0  0  0  0  0  0
  194.8189  181.8212  158.7895 H   0  0  0  0  0  0  0  0  0  0  0  0
  197.0518  187.2002  157.6952 H   0  0  0  0  0  0  0  0  0  0  0  0
  196.3732  187.5011  159.2718 H   0  0  0  0  0  0  0  0  0  0  0  0
  199.7997  188.3453  159.8846 H   0  0  0  0  0  0  0  0  0  0  0  0
  198.1338  188.8558  160.1536 H   0  0  0  0  0  0  0  0  0  0  0  0
  198.8057  188.8161  158.4974 H   0  0  0  0  0  0  0  0  0  0  0  0
  200.4407  186.4484  158.9145 H   0  0  0  0  0  0  0  0  0  0  0  0
  199.3694  186.6310  157.4644 H   0  0  0  0  0  0  0  0  0  0  0  0
  199.2893  185.1776  158.5327 H   0  0  0  0  0  0  0  0  0  0  0  0
  198.6958  178.8424  151.2845 H   0  0  0  0  0  0  0  0  0  0  0  0
  197.1654  180.3537  150.1309 H   0  0  0  0  0  0  0  0  0  0  0  0
  195.9091  182.0864  151.3984 H   0  0  0  0  0  0  0  0  0  0  0  0
  196.1833  182.2915  153.8208 H   0  0  0  0  0  0  0  0  0  0  0  0
  199.9396  177.9866  152.2548 H   0  0  0  0  0  0  0  0  0  0  0  0
  1  2  1  0
  2  3  2  0
  2  9  1  0
  3  4  1  0
  3 35  1  0
  4  5  2  0
  4 10  1  0
  5  6  1  0
  5  8  1  0
  6  7  3  0
  8  9  2  0
  8 36  1  0
  9 37  1  0
 10 11  2  0
 10 12  1  0
 12 13  1  0
 12 58  1  0
 13 14  1  0
 13 30  2  0
 14 15  2  0
 15 16  1  0
 15 38  1  0
 16 17  1  0
 16 29  2  0
 17 18  1  0
 17 39  1  0
 18 19  1  0
 18 40  1  1
 18 41  1  0
 19 20  2  0
 19 24  1  0
 20 21  1  0
 20 42  1  0
 21 22  2  0
 21 25  1  0
 22 23  1  0
 22 43  1  0
 23 24  2  0
 23 44  1  0
 24 45  1  0
 25 26  1  0
 25 46  1  6
 25 47  1  0
 26 27  1  0
 26 28  1  0
 27 48  1  1
 27 49  1  0
 27 50  1  0
 28 51  1  1
 28 52  1  0
 28 53  1  0
 29 30  1  0
 29 34  1  0
 30 31  1  0
 31 32  2  0
 31 54  1  0
 32 33  1  0
 32 55  1  0
 33 34  2  0
 33 56  1  0
 34 57  1  0
M  END
>  <s_epik_cmdline>  (430) 
J2VwaWtfcHl0aG9uJywgJy1waCcsICc3LjAwMDAwMCcsICctcGh0JywgJzIuMDAwMDAwJywgJy1tcycsICcxNicsICctdG4nLCAnOCcsICctbWEnLCAnMjAwJywgJy1pbWFlJywgJzxpbmZpbGUubWFlPicsICctb21hZScsICc8b3V0ZmlsZS5tYWU+Jw==

>  <s_epik_input>  (430) 
RmMxW2NIXWMoYyhDI04pW2NIXVtjSF0xKUMoPU8pW05IXWMoYyhjMjMpW2NIXVtjSF1bY0hdW2NIXTMpbltjSF1jMltOSF1bQ0gyXWM0W2NIXWMoW2NIXVtjSF1bY0hdNClbQ0gyXU4oW0NIM10pW0NIM10=

>  <s_i_glide_gridfile>  (430) 
ATP-Grid

>  <s_lp_Force_Field>  (430) 
OPLS_2005

>  <s_lp_Variant>  (430) 
rxn502b____EMOL43478294____EMOL7515103____EMOL2873214-1

>  <s_lp_label>  (430) 
2320_sdstereoexpander_1_neutralizer_1_epik_1_stereoizer_1

>  <s_m_source_file>  (430) 
ATP-VSW-LIGPREP-001-in.maegz

>  <s_sd_BIOSOLVEIT.INFINISEE\_QUERY\_NAME>  (430) 
Ref-Lig

>  <s_sd_BIOSOLVEIT.INFINISEE\_QUERY\_SMILES>  (430) 
S(c1nc2c(cc1C[NH2+]Cc3ccc(cc3)C[NH+](C)C)cccc2)Cc4ccccc4

>  <s_sd_BIOSOLVEIT.INFINISEE\_REACTION\_NAME>  (430) 
rxn502b

>  <s_sd_BIOSOLVEIT.INFINISEE\_REAGENT1\_NAME>  (430) 
EMOL43478294

>  <s_sd_BIOSOLVEIT.INFINISEE\_REAGENT1\_SMILES>  (430) 
Fc1cc(c(C#N)cc1)C(=O)O

>  <s_sd_BIOSOLVEIT.INFINISEE\_REAGENT2\_NAME>  (430) 
EMOL7515103

>  <s_sd_BIOSOLVEIT.INFINISEE\_REAGENT2\_SMILES>  (430) 
Brc1c2c(c(nc1)N)cccc2

>  <s_sd_BIOSOLVEIT.INFINISEE\_REAGENT3\_NAME>  (430) 
EMOL2873214

>  <s_sd_BIOSOLVEIT.INFINISEE\_REAGENT3\_SMILES>  (430) 
N(Cc1cc(ccc1)CN)(C)C

>  <s_sd_BIOSOLVEIT.INFINISEE\_SPACE>  (430) 
eXplore_7tr_2022-12

>  <s_vsw_compound_code>  (430) 
74209

>  <s_vsw_variant>  (430) 
74209-1

>  <r_epik_Charging_Adjusted_Penalty>  (430) 
0.0024287804579040499

>  <r_epik_Ionization_Penalty>  (430) 
1.5633999999999999

>  <r_epik_Ionization_Penalty_Charging>  (430) 
0

>  <r_epik_Ionization_Penalty_Neutral>  (430) 
1.5633999999999999

>  <r_epik_State_Penalty>  (430) 
0.0023999999999999998

>  <r_i_docking_score>  (430) 
-2.9989286806024098

>  <r_i_glide_ecoul>  (430) 
-1.67855596542358

>  <r_i_glide_eff_state_penalty>  (430) 
0.0023999999999999998

>  <r_i_glide_einternal>  (430) 
1.5936709642410301

>  <r_i_glide_emodel>  (430) 
-45.293376277131799

>  <r_i_glide_energy>  (430) 
-38.2174620628357

>  <r_i_glide_erotb>  (430) 
0.68320408713912195

>  <r_i_glide_esite>  (430) 
-0.068404641382101006

>  <r_i_glide_evdw>  (430) 
-36.538906097412102

>  <r_i_glide_gscore>  (430) 
-3.00132868060241

>  <r_i_glide_hbond>  (430) 
-0.095641071052288307

>  <r_i_glide_ligand_efficiency>  (430) 
-0.088203784723600298

>  <r_i_glide_ligand_efficiency_ln>  (430) 
-0.66254746264532705

>  <r_i_glide_ligand_efficiency_sa>  (430) 
-0.28574602157203299

>  <r_i_glide_lipo>  (430) 
-1.04419524129441

>  <r_i_glide_metal>  (430) 
-0

>  <r_i_glide_rewards>  (430) 
-0.39756311432858998

>  <r_lp_Energy>  (430) 
35.810101000000003

>  <r_qp_ACxDN^.5/SA>  (430) 
0.0135674

>  <r_qp_CIQPlogS>  (430) 
-6.4640000000000004

>  <r_qp_EA(eV)>  (430) 
1.077

>  <r_qp_FISA>  (430) 
128.334

>  <r_qp_FOSA>  (430) 
206.80500000000001

>  <r_qp_IP(eV)>  (430) 
7.8150000000000004

>  <r_qp_Jm>  (430) 
1.0061907324983799e-05

>  <r_qp_PISA>  (430) 
451.81799999999998

>  <r_qp_PSA>  (430) 
85.843999999999994

>  <r_qp_PercentHumanOralAbsorption>  (430) 
91.109999999999999

>  <r_qp_QPPCaco>  (430) 
149.90199999999999

>  <r_qp_QPPMDCK>  (430) 
127.197

>  <r_qp_QPlogBB>  (430) 
-0.92200000000000004

>  <r_qp_QPlogHERG>  (430) 
-8.4420000000000002

>  <r_qp_QPlogKhsa>  (430) 
0.63500000000000001

>  <r_qp_QPlogKp>  (430) 
-3.5880000000000001

>  <r_qp_QPlogPC16>  (430) 
16.486999999999998

>  <r_qp_QPlogPo/w>  (430) 
4.3079999999999998

>  <r_qp_QPlogPoct>  (430) 
25.641999999999999

>  <r_qp_QPlogPw>  (430) 
14.733000000000001

>  <r_qp_QPlogS>  (430) 
-7.0659999999999998

>  <r_qp_QPpolrz>  (430) 
51.996000000000002

>  <r_qp_SASA>  (430) 
833.89099999999996

>  <r_qp_SAamideO>  (430) 
0

>  <r_qp_SAfluorine>  (430) 
46.933999999999997

>  <r_qp_WPSA>  (430) 
46.933999999999997

>  <r_qp_accptHB>  (430) 
8

>  <r_qp_dip^2/V>  (430) 
0.061909600000000002

>  <r_qp_dipole>  (430) 
9.5510000000000002

>  <r_qp_donorHB>  (430) 
2

>  <r_qp_glob>  (430) 
0.75098819999999999

>  <r_qp_mol_MW>  (430) 
453.51799999999997

>  <r_qp_volume>  (430) 
1473.5540000000001

>  <r_sd_BIOSOLVEIT.INFINISEE\_FTREES\_SIMILARITY>  (430) 
0.92200000000000004

>  <r_sd_BIOSOLVEIT.LOGP>  (430) 
3.75448

>  <r_sd_BIOSOLVEIT.MOLECULAR\_WEIGHT>  (430) 
454.52699999999999

>  <r_sd_BIOSOLVEIT.TPSA>  (430) 
82.25

>  <i_epik_Tot_Q>  (430) 
0

>  <i_epik_Tot_abs_Q>  (430) 
0

>  <i_f3d_flags>  (430) 
0

>  <i_i_glide_confnum>  (430) 
1

>  <i_i_glide_lignum>  (430) 
829

>  <i_i_glide_posenum>  (430) 
2

>  <i_i_glide_rotatable_bonds>  (430) 
8

>  <i_lp_mmshare_version>  (430) 
65135

>  <i_m_ct_format>  (430) 
2

>  <i_m_source_file_index>  (430) 
2320

>  <i_qp_#NandO>  (430) 
6

>  <i_qp_#acid>  (430) 
0

>  <i_qp_#amide>  (430) 
0

>  <i_qp_#amidine>  (430) 
0

>  <i_qp_#amine>  (430) 
1

>  <i_qp_#in34>  (430) 
0

>  <i_qp_#in56>  (430) 
22

>  <i_qp_#metab>  (430) 
7

>  <i_qp_#nonHatm>  (430) 
34

>  <i_qp_#noncon>  (430) 
0

>  <i_qp_#ringatoms>  (430) 
22

>  <i_qp_#rotor>  (430) 
8

>  <i_qp_#rtvFG>  (430) 
0

>  <i_qp_#stars>  (430) 
3

>  <i_qp_CNS>  (430) 
0

>  <i_qp_HumanOralAbsorption>  (430) 
1

>  <i_qp_RuleOfFive>  (430) 
0

>  <i_qp_RuleOfThree>  (430) 
2

>  <i_sd_BIOSOLVEIT.INFINISEE\_RESULT\_RANK>  (430) 
13274

>  <i_sd_version>  (430) 
0

>  <b_lp_Chiralities_Consistent>  (430) 
1

>  <b_sd_chiral_flag>  (430) 
0

>  <canonical_id>  (430) 
ATP-HTVS-445D8195943B

>  <compound_code>  (430) 
74209

>  <title>  (430) 
rxn502b____EMOL43478294____EMOL7515103____EMOL2873214

>  <variant>  (430) 
74209-1

>  <source_file>  (430) 
运行/运行/ATP-VSW/ATP-VSW-DOCK_HTVS_1-001_lib/ATP-VSW-DOCK_HTVS_1-001_lib

>  <canonical_smiles>  (430) 
CN(C)Cc1cccc(CNc2cnc(NC(=O)c3cc(F)ccc3C#N)c3ccccc23)c1

>  <scaffold>  (430) 
O=C(Nc1ncc(NCc2ccccc2)c2ccccc12)c1ccccc1

>  <molecular_formula>  (430) 
C27H24FN5O

$$$$
ATP-HTVS-44A2C719C105
     RDKit          3D

 54 56  0  0  0  0  0  0  0  0999 V2000
  194.4767  184.1891  159.5995 S   0  0  0  0  0  0  0  0  0  0  0  0
  195.0546  183.1064  158.3653 C   0  0  0  0  0  0  0  0  0  0  0  0
  196.4132  183.1823  158.2291 C   0  0  0  0  0  0  0  0  0  0  0  0
  197.1665  182.4835  157.2582 N   0  0  0  0  0  0  0  0  0  0  0  0
  196.5221  181.8384  156.1214 C   0  0  1  0  0  0  0  0  0  0  0  0
  197.4706  181.0315  155.2531 C   0  0  0  0  0  0  0  0  0  0  0  0
  197.9955  179.8128  155.7286 C   0  0  0  0  0  0  0  0  0  0  0  0
  198.8671  179.0394  154.9321 C   0  0  0  0  0  0  0  0  0  0  0  0
  199.2159  179.4991  153.6465 C   0  0  0  0  0  0  0  0  0  0  0  0
  198.6944  180.7187  153.1663 C   0  0  0  0  0  0  0  0  0  0  0  0
  197.8231  181.4831  153.9676 C   0  0  0  0  0  0  0  0  0  0  0  0
  199.4042  177.7141  155.4566 C   0  0  1  0  0  0  0  0  0  0  0  0
  200.6805  177.8468  156.2045 N   0  0  1  0  0  0  0  0  0  0  0  0
  200.5468  178.5904  157.4811 C   0  0  2  0  0  0  0  0  0  0  0  0
  201.3621  176.5445  156.3982 C   0  0  2  0  0  0  0  0  0  0  0  0
  197.0289  184.0963  159.1728 C   0  0  0  0  0  0  0  0  0  0  0  0
  198.5002  184.3922  159.2417 C   0  0  0  0  0  0  0  0  0  0  0  0
  199.2959  183.4565  159.1798 O   0  0  0  0  0  0  0  0  0  0  0  0
  198.8984  185.7052  159.3074 N   0  0  0  0  0  0  0  0  0  0  0  0
  200.2949  186.0570  159.3380 C   0  0  0  0  0  0  0  0  0  0  0  0
  200.7771  187.1142  158.5256 C   0  0  0  0  0  0  0  0  0  0  0  0
  202.1245  187.5154  158.5874 C   0  0  0  0  0  0  0  0  0  0  0  0
  203.0162  186.8591  159.4558 C   0  0  0  0  0  0  0  0  0  0  0  0
  204.4140  187.2511  159.5017 C   0  0  0  0  0  0  0  0  0  0  0  0
  205.5291  187.5599  159.5363 N   0  0  0  0  0  0  0  0  0  0  0  0
  202.5528  185.8083  160.2730 C   0  0  0  0  0  0  0  0  0  0  0  0
  201.2020  185.4105  160.2144 C   0  0  0  0  0  0  0  0  0  0  0  0
  197.9367  186.8187  159.2895 C   0  0  2  0  0  0  0  0  0  0  0  0
  196.1028  184.6425  160.0238 C   0  0  0  0  0  0  0  0  0  0  0  0
  194.3427  182.5101  157.7940 H   0  0  0  0  0  0  0  0  0  0  0  0
  198.1600  182.6485  157.1993 H   0  0  0  0  0  0  0  0  0  0  0  0
  195.7223  181.1808  156.4672 H   0  0  0  0  0  0  0  0  0  0  0  0
  196.0546  182.6191  155.5214 H   0  0  0  0  0  0  0  0  0  0  0  0
  197.7148  179.4686  156.7107 H   0  0  0  0  0  0  0  0  0  0  0  0
  199.8717  178.9175  153.0144 H   0  0  0  0  0  0  0  0  0  0  0  0
  198.9568  181.0655  152.1796 H   0  0  0  0  0  0  0  0  0  0  0  0
  197.4241  182.4157  153.5927 H   0  0  0  0  0  0  0  0  0  0  0  0
  198.6655  177.2319  156.0934 H   0  0  0  0  0  0  0  0  0  0  0  0
  199.5506  177.0526  154.6005 H   0  0  0  0  0  0  0  0  0  0  0  0
  199.9425  178.0382  158.2025 H   0  0  0  0  0  0  0  0  0  0  0  0
  200.0927  179.5698  157.3365 H   0  0  0  0  0  0  0  0  0  0  0  0
  201.5282  178.7660  157.9205 H   0  0  0  0  0  0  0  0  0  0  0  0
  200.7834  175.8793  157.0414 H   0  0  0  0  0  0  0  0  0  0  0  0
  202.3416  176.6795  156.8560 H   0  0  0  0  0  0  0  0  0  0  0  0
  201.5227  176.0401  155.4449 H   0  0  0  0  0  0  0  0  0  0  0  0
  200.1122  187.6406  157.8595 H   0  0  0  0  0  0  0  0  0  0  0  0
  202.4627  188.3323  157.9637 H   0  0  0  0  0  0  0  0  0  0  0  0
  203.2254  185.3049  160.9527 H   0  0  0  0  0  0  0  0  0  0  0  0
  200.8699  184.6197  160.8714 H   0  0  0  0  0  0  0  0  0  0  0  0
  198.4418  187.7974  159.2971 H   0  0  0  0  0  0  0  0  0  0  0  0
  197.2841  186.7698  160.1367 H   0  0  0  0  0  0  0  0  0  0  0  0
  197.3558  186.7989  158.3575 H   0  0  0  0  0  0  0  0  0  0  0  0
  196.2933  185.3318  160.8410 H   0  0  0  0  0  0  0  0  0  0  0  0
  201.2870  178.4003  155.6158 H   0  0  0  0  0  0  0  0  0  0  0  0
  1  2  1  0
  1 29  1  0
  2  3  2  0
  2 30  1  0
  3  4  1  0
  3 16  1  0
  4  5  1  0
  4 31  1  0
  5  6  1  0
  5 32  1  1
  5 33  1  0
  6  7  2  0
  6 11  1  0
  7  8  1  0
  7 34  1  0
  8  9  2  0
  8 12  1  0
  9 10  1  0
  9 35  1  0
 10 11  2  0
 10 36  1  0
 11 37  1  0
 12 13  1  0
 12 38  1  1
 12 39  1  0
 13 14  1  0
 13 15  1  0
 13 54  1  6
 14 40  1  1
 14 41  1  0
 14 42  1  0
 15 43  1  1
 15 44  1  0
 15 45  1  0
 16 17  1  0
 16 29  2  0
 17 18  2  0
 17 19  1  0
 19 20  1  0
 19 28  1  0
 20 21  1  0
 20 27  2  0
 21 22  2  0
 21 46  1  0
 22 23  1  0
 22 47  1  0
 23 24  1  0
 23 26  2  0
 24 25  3  0
 26 27  1  0
 26 48  1  0
 27 49  1  0
 28 50  1  1
 28 51  1  0
 28 52  1  0
 29 53  1  0
M  CHG  1  13   1
M  END
>  <s_epik_cmdline>  (431) 
J2VwaWtfcHl0aG9uJywgJy1waCcsICc3LjAwMDAwMCcsICctcGh0JywgJzIuMDAwMDAwJywgJy1tcycsICcxNicsICctdG4nLCAnOCcsICctbWEnLCAnMjAwJywgJy1pbWFlJywgJzxpbmZpbGUubWFlPicsICctb21hZScsICc8b3V0ZmlsZS5tYWU+Jw==

>  <s_epik_input>  (431) 
TiNDYyhbY0hdW2NIXTEpW2NIXVtjSF1jMU4oW0NIM10pQyg9TyljMltjSF1zW2NIXWMyW05IXVtDSDJdYzNbY0hdYyhbY0hdW2NIXVtjSF0zKVtDSDJdTihbQ0gzXSlbQ0gzXQ==

>  <s_i_glide_gridfile>  (431) 
ATP-Grid

>  <s_lp_Force_Field>  (431) 
OPLS_2005

>  <s_lp_Variant>  (431) 
rxn512b____EMOL17281285____EMOL10439745____EMOL2873214-1

>  <s_lp_label>  (431) 
2573_sdstereoexpander_1_neutralizer_1_epik_1_stereoizer_1

>  <s_m_source_file>  (431) 
ATP-VSW-LIGPREP-003-in.maegz

>  <s_sd_BIOSOLVEIT.INFINISEE\_QUERY\_NAME>  (431) 
Ref-Lig

>  <s_sd_BIOSOLVEIT.INFINISEE\_QUERY\_SMILES>  (431) 
S(c1nc2c(cc1C[NH2+]Cc3ccc(cc3)C[NH+](C)C)cccc2)Cc4ccccc4

>  <s_sd_BIOSOLVEIT.INFINISEE\_REACTION\_NAME>  (431) 
rxn512b

>  <s_sd_BIOSOLVEIT.INFINISEE\_REAGENT1\_NAME>  (431) 
EMOL17281285

>  <s_sd_BIOSOLVEIT.INFINISEE\_REAGENT1\_SMILES>  (431) 
N#Cc1ccc(NC)cc1

>  <s_sd_BIOSOLVEIT.INFINISEE\_REAGENT2\_NAME>  (431) 
EMOL10439745

>  <s_sd_BIOSOLVEIT.INFINISEE\_REAGENT2\_SMILES>  (431) 
BrC=1C(C(=O)O)=CSC1

>  <s_sd_BIOSOLVEIT.INFINISEE\_REAGENT3\_NAME>  (431) 
EMOL2873214

>  <s_sd_BIOSOLVEIT.INFINISEE\_REAGENT3\_SMILES>  (431) 
N(Cc1cc(ccc1)CN)(C)C

>  <s_sd_BIOSOLVEIT.INFINISEE\_SPACE>  (431) 
eXplore_7tr_2022-12

>  <s_vsw_compound_code>  (431) 
82307

>  <s_vsw_variant>  (431) 
82307-1

>  <r_epik_Charging_Adjusted_Penalty>  (431) 
0.086140609825027206

>  <r_epik_Ionization_Penalty>  (431) 
0.043099999999999999

>  <r_epik_Ionization_Penalty_Charging>  (431) 
0.043099999999999999

>  <r_epik_Ionization_Penalty_Neutral>  (431) 
0

>  <r_epik_State_Penalty>  (431) 
0.043099999999999999

>  <r_i_docking_score>  (431) 
-3.8136580067321302

>  <r_i_glide_ecoul>  (431) 
-6.2948889732360804

>  <r_i_glide_eff_state_penalty>  (431) 
0.043099999999999999

>  <r_i_glide_einternal>  (431) 
1.9702342748642001

>  <r_i_glide_emodel>  (431) 
-50.440208391095901

>  <r_i_glide_energy>  (431) 
-38.876794338226297

>  <r_i_glide_erotb>  (431) 
0.83652915046535004

>  <r_i_glide_esite>  (431) 
-0.043051286195565003

>  <r_i_glide_evdw>  (431) 
-32.581905364990199

>  <r_i_glide_gscore>  (431) 
-3.8567580067321301

>  <r_i_glide_hbond>  (431) 
0

>  <r_i_glide_ligand_efficiency>  (431) 
-0.131505448508004

>  <r_i_glide_ligand_efficiency_ln>  (431) 
-0.87323097751863099

>  <r_i_glide_ligand_efficiency_sa>  (431) 
-0.40402640166701398

>  <r_i_glide_lipo>  (431) 
-1.0253286342016501

>  <r_i_glide_metal>  (431) 
-0

>  <r_i_glide_rewards>  (431) 
-1.0515786225653401

>  <r_lp_Energy>  (431) 
34.061132999999998

>  <r_lp_tautomer_probability>  (431) 
0.99999274205267796

>  <r_qp_ACxDN^.5/SA>  (431) 
0

>  <r_qp_CIQPlogS>  (431) 
-4.5720000000000001

>  <r_qp_EA(eV)>  (431) 
1.014

>  <r_qp_FISA>  (431) 
109.23699999999999

>  <r_qp_FOSA>  (431) 
232.15700000000001

>  <r_qp_IP(eV)>  (431) 
8.5069999999999997

>  <r_qp_Jm>  (431) 
0.0085231254879010905

>  <r_qp_PISA>  (431) 
217.387

>  <r_qp_PSA>  (431) 
70.728999999999999

>  <r_qp_PercentHumanOralAbsorption>  (431) 
73.233000000000004

>  <r_qp_QPPCaco>  (431) 
56.728999999999999

>  <r_qp_QPPMDCK>  (431) 
44.107999999999997

>  <r_qp_QPlogBB>  (431) 
0.10100000000000001

>  <r_qp_QPlogHERG>  (431) 
-5.4059999999999997

>  <r_qp_QPlogKhsa>  (431) 
0.021000000000000001

>  <r_qp_QPlogKp>  (431) 
-6.1239999999999997

>  <r_qp_QPlogPC16>  (431) 
12.082000000000001

>  <r_qp_QPlogPo/w>  (431) 
2.544

>  <r_qp_QPlogPoct>  (431) 
16.652999999999999

>  <r_qp_QPlogPw>  (431) 
8.0289999999999999

>  <r_qp_QPlogS>  (431) 
-1.552

>  <r_qp_QPpolrz>  (431) 
38.783000000000001

>  <r_qp_SASA>  (431) 
597.00599999999997

>  <r_qp_SAamideO>  (431) 
0

>  <r_qp_SAfluorine>  (431) 
0

>  <r_qp_WPSA>  (431) 
38.225000000000001

>  <r_qp_accptHB>  (431) 
6.5

>  <r_qp_dip^2/V>  (431) 
0.0099967000000000007

>  <r_qp_dipole>  (431) 
3.4630000000000001

>  <r_qp_donorHB>  (431) 
0

>  <r_qp_glob>  (431) 
0.91442239999999997

>  <r_qp_mol_MW>  (431) 
404.529

>  <r_qp_volume>  (431) 
1199.335

>  <r_sd_BIOSOLVEIT.INFINISEE\_FTREES\_SIMILARITY>  (431) 
0.91200000000000003

>  <r_sd_BIOSOLVEIT.LOGP>  (431) 
3.1529799999999999

>  <r_sd_BIOSOLVEIT.MOLECULAR\_WEIGHT>  (431) 
405.54300000000001

>  <r_sd_BIOSOLVEIT.TPSA>  (431) 
60.57

>  <i_epik_Tot_Q>  (431) 
1

>  <i_epik_Tot_abs_Q>  (431) 
1

>  <i_f3d_flags>  (431) 
0

>  <i_i_glide_confnum>  (431) 
8

>  <i_i_glide_lignum>  (431) 
1140

>  <i_i_glide_posenum>  (431) 
4

>  <i_i_glide_rotatable_bonds>  (431) 
8

>  <i_lp_mmshare_version>  (431) 
65135

>  <i_m_ct_format>  (431) 
2

>  <i_m_source_file_index>  (431) 
2573

>  <i_qp_#NandO>  (431) 
5

>  <i_qp_#acid>  (431) 
0

>  <i_qp_#amide>  (431) 
0

>  <i_qp_#amidine>  (431) 
0

>  <i_qp_#amine>  (431) 
2

>  <i_qp_#in34>  (431) 
0

>  <i_qp_#in56>  (431) 
17

>  <i_qp_#metab>  (431) 
5

>  <i_qp_#nonHatm>  (431) 
29

>  <i_qp_#noncon>  (431) 
0

>  <i_qp_#ringatoms>  (431) 
17

>  <i_qp_#rotor>  (431) 
8

>  <i_qp_#rtvFG>  (431) 
0

>  <i_qp_#stars>  (431) 
0

>  <i_qp_CNS>  (431) 
1

>  <i_qp_HumanOralAbsorption>  (431) 
3

>  <i_qp_RuleOfFive>  (431) 
0

>  <i_qp_RuleOfThree>  (431) 
0

>  <i_sd_BIOSOLVEIT.INFINISEE\_RESULT\_RANK>  (431) 
38155

>  <i_sd_version>  (431) 
0

>  <b_lp_Chiralities_Consistent>  (431) 
1

>  <b_sd_chiral_flag>  (431) 
0

>  <canonical_id>  (431) 
ATP-HTVS-44A2C719C105

>  <compound_code>  (431) 
82307

>  <title>  (431) 
rxn512b____EMOL17281285____EMOL10439745____EMOL2873214

>  <variant>  (431) 
82307-1

>  <source_file>  (431) 
运行/运行/ATP-VSW/ATP-VSW-DOCK_HTVS_1-003_lib/ATP-VSW-DOCK_HTVS_1-003_lib.mae

>  <canonical_smiles>  (431) 
CN(C(=O)c1cscc1NCc1cccc(C[NH+](C)C)c1)c1ccc(C#N)cc1

>  <scaffold>  (431) 
O=C(Nc1ccccc1)c1cscc1NCc1ccccc1

>  <molecular_formula>  (431) 
C23H25N4OS+

$$$$
ATP-HTVS-44A5767B4738
     RDKit          3D

 61 64  0  0  0  0  0  0  0  0999 V2000
  201.8659  175.7643  156.1193 S   0  0  0  0  0  0  0  0  0  0  0  0
  201.5943  174.8723  154.6009 C   0  0  0  0  0  0  0  0  0  0  0  0
  201.0203  175.5329  153.5117 C   0  0  0  0  0  0  0  0  0  0  0  0
  200.6334  174.8597  152.3418 C   0  0  0  0  0  0  0  0  0  0  0  0
  200.9887  173.5070  152.1799 C   0  0  0  0  0  0  0  0  0  0  0  0
  201.6928  172.8475  153.2319 C   0  0  0  0  0  0  0  0  0  0  0  0
  201.9719  173.5216  154.4610 C   0  0  0  0  0  0  0  0  0  0  0  0
  201.0809  177.4344  156.0114 C   0  0  1  0  0  0  0  0  0  0  0  0
  199.5279  177.3685  155.8893 C   0  0  1  0  0  0  0  0  0  0  0  0
  198.9110  178.6774  155.7339 N   0  0  0  0  0  0  0  0  0  0  0  0
  198.6332  179.2999  154.4899 C   0  0  0  0  0  0  0  0  0  0  0  0
  197.8429  180.4773  154.4321 C   0  0  0  0  0  0  0  0  0  0  0  0
  197.3501  181.0994  155.6214 N   0  0  0  0  0  0  0  0  0  0  0  0
  198.1138  181.6707  156.5554 C   0  0  0  0  0  0  0  0  0  0  0  0
  199.3492  181.5376  156.5984 O   0  0  0  0  0  0  0  0  0  0  0  0
  197.3751  182.5528  157.5294 C   0  0  0  0  0  0  0  0  0  0  0  0
  197.9668  183.6817  158.1666 C   0  0  0  0  0  0  0  0  0  0  0  0
  197.1954  184.4680  159.0481 C   0  0  0  0  0  0  0  0  0  0  0  0
  195.8421  184.1665  159.3030 C   0  0  0  0  0  0  0  0  0  0  0  0
  195.2504  183.0588  158.6804 C   0  0  0  0  0  0  0  0  0  0  0  0
  196.0057  182.2579  157.8141 C   0  0  0  0  0  0  0  0  0  0  0  0
  199.4146  184.1193  157.9140 C   0  0  1  0  0  0  0  0  0  0  0  0
  200.4200  183.4309  158.7257 N   0  0  0  0  0  0  0  0  0  0  0  0
  200.3062  183.7765  160.1359 C   0  0  2  0  0  0  0  0  0  0  0  0
  201.7483  183.8059  158.2590 C   0  0  2  0  0  0  0  0  0  0  0  0
  197.4959  181.0253  153.1642 C   0  0  0  0  0  0  0  0  0  0  0  0
  197.9826  180.3712  151.9985 C   0  0  0  0  0  0  0  0  0  0  0  0
  198.7479  179.2835  152.0583 N   0  0  0  0  0  0  0  0  0  0  0  0
  199.0610  178.7841  153.2469 C   0  0  0  0  0  0  0  0  0  0  0  0
  197.6854  180.8627  150.7141 C   0  0  0  0  0  0  0  0  0  0  0  0
  196.9192  182.0217  150.5711 C   0  0  0  0  0  0  0  0  0  0  0  0
  196.4399  182.6735  151.7234 C   0  0  0  0  0  0  0  0  0  0  0  0
  196.7220  182.1878  153.0163 C   0  0  0  0  0  0  0  0  0  0  0  0
  200.8895  176.6105  153.5933 H   0  0  0  0  0  0  0  0  0  0  0  0
  200.0922  175.3931  151.5718 H   0  0  0  0  0  0  0  0  0  0  0  0
  200.7568  172.9965  151.2390 H   0  0  0  0  0  0  0  0  0  0  0  0
  202.0195  171.8253  153.1042 H   0  0  0  0  0  0  0  0  0  0  0  0
  202.5196  173.0231  155.2721 H   0  0  0  0  0  0  0  0  0  0  0  0
  201.3686  178.0274  156.8922 H   0  0  0  0  0  0  0  0  0  0  0  0
  201.5222  177.9837  155.1785 H   0  0  0  0  0  0  0  0  0  0  0  0
  199.1336  176.7196  155.1078 H   0  0  0  0  0  0  0  0  0  0  0  0
  199.1482  176.9064  156.8056 H   0  0  0  0  0  0  0  0  0  0  0  0
  198.4230  178.9759  156.5754 H   0  0  0  0  0  0  0  0  0  0  0  0
  196.3574  181.2831  155.6745 H   0  0  0  0  0  0  0  0  0  0  0  0
  197.6416  185.3244  159.5271 H   0  0  0  0  0  0  0  0  0  0  0  0
  195.2577  184.7956  159.9581 H   0  0  0  0  0  0  0  0  0  0  0  0
  194.2061  182.8247  158.8382 H   0  0  0  0  0  0  0  0  0  0  0  0
  195.4903  181.4240  157.3693 H   0  0  0  0  0  0  0  0  0  0  0  0
  199.6388  183.9780  156.8573 H   0  0  0  0  0  0  0  0  0  0  0  0
  199.4908  185.1942  158.0734 H   0  0  0  0  0  0  0  0  0  0  0  0
  201.0825  183.2791  160.7207 H   0  0  0  0  0  0  0  0  0  0  0  0
  199.3451  183.4485  160.5301 H   0  0  0  0  0  0  0  0  0  0  0  0
  200.3954  184.8531  160.2929 H   0  0  0  0  0  0  0  0  0  0  0  0
  202.5220  183.2941  158.8329 H   0  0  0  0  0  0  0  0  0  0  0  0
  201.9137  184.8810  158.3458 H   0  0  0  0  0  0  0  0  0  0  0  0
  201.8796  183.5236  157.2138 H   0  0  0  0  0  0  0  0  0  0  0  0
  199.6145  177.8526  153.1496 H   0  0  0  0  0  0  0  0  0  0  0  0
  198.0832  180.3284  149.8575 H   0  0  0  0  0  0  0  0  0  0  0  0
  196.7223  182.3926  149.5762 H   0  0  0  0  0  0  0  0  0  0  0  0
  195.8449  183.5646  151.6374 H   0  0  0  0  0  0  0  0  0  0  0  0
  196.3435  182.7105  153.8869 H   0  0  0  0  0  0  0  0  0  0  0  0
  1  2  1  0
  1  8  1  0
  2  3  2  0
  2  7  1  0
  3  4  1  0
  3 34  1  0
  4  5  2  0
  4 35  1  0
  5  6  1  0
  5 36  1  0
  6  7  2  0
  6 37  1  0
  7 38  1  0
  8  9  1  0
  8 39  1  1
  8 40  1  0
  9 10  1  0
  9 41  1  6
  9 42  1  0
 10 11  1  0
 10 43  1  0
 11 12  2  0
 11 29  1  0
 12 13  1  0
 12 26  1  0
 13 14  1  0
 13 44  1  0
 14 15  2  0
 14 16  1  0
 16 17  1  0
 16 21  2  0
 17 18  2  0
 17 22  1  0
 18 19  1  0
 18 45  1  0
 19 20  2  0
 19 46  1  0
 20 21  1  0
 20 47  1  0
 21 48  1  0
 22 23  1  0
 22 49  1  6
 22 50  1  0
 23 24  1  0
 23 25  1  0
 24 51  1  1
 24 52  1  0
 24 53  1  0
 25 54  1  1
 25 55  1  0
 25 56  1  0
 26 27  1  0
 26 33  2  0
 27 28  1  0
 27 30  2  0
 28 29  2  0
 29 57  1  0
 30 31  1  0
 30 58  1  0
 31 32  2  0
 31 59  1  0
 32 33  1  0
 32 60  1  0
 33 61  1  0
M  END
>  <s_epik_cmdline>  (432) 
J2VwaWtfcHl0aG9uJywgJy1waCcsICc3LjAwMDAwMCcsICctcGh0JywgJzIuMDAwMDAwJywgJy1tcycsICcxNicsICctdG4nLCAnOCcsICctbWEnLCAnMjAwJywgJy1pbWFlJywgJzxpbmZpbGUubWFlPicsICctb21hZScsICc8b3V0ZmlsZS5tYWU+Jw==

>  <s_epik_input>  (432) 
W2NIXTFbY0hdW2NIXVtjSF1bY0hdYzFTW0NIMl1bQ0gyXVtOSF1jKFtjSF1uYyhjMjMpW2NIXVtjSF1bY0hdW2NIXTMpYzJbTkhdQyg9TyljNGMoW0NIMl1OKFtDSDNdKVtDSDNdKVtjSF1bY0hdW2NIXVtjSF00

>  <s_i_glide_gridfile>  (432) 
ATP-Grid

>  <s_lp_Force_Field>  (432) 
OPLS_2005

>  <s_lp_Variant>  (432) 
rxn502b____EMOL5415347____EMOL13728749____EMOL2866855-2

>  <s_lp_label>  (432) 
2341_sdstereoexpander_1_neutralizer_1_epik_2_stereoizer_1

>  <s_m_source_file>  (432) 
ATP-VSW-LIGPREP-002-in.maegz

>  <s_sd_BIOSOLVEIT.INFINISEE\_QUERY\_NAME>  (432) 
Ref-Lig

>  <s_sd_BIOSOLVEIT.INFINISEE\_QUERY\_SMILES>  (432) 
S(c1nc2c(cc1C[NH2+]Cc3ccc(cc3)C[NH+](C)C)cccc2)Cc4ccccc4

>  <s_sd_BIOSOLVEIT.INFINISEE\_REACTION\_NAME>  (432) 
rxn502b

>  <s_sd_BIOSOLVEIT.INFINISEE\_REAGENT1\_NAME>  (432) 
EMOL5415347

>  <s_sd_BIOSOLVEIT.INFINISEE\_REAGENT1\_SMILES>  (432) 
O=C(O)c1c(cccc1)CN(C)C

>  <s_sd_BIOSOLVEIT.INFINISEE\_REAGENT2\_NAME>  (432) 
EMOL13728749

>  <s_sd_BIOSOLVEIT.INFINISEE\_REAGENT2\_SMILES>  (432) 
Brc1c(N)c2c(nc1)cccc2

>  <s_sd_BIOSOLVEIT.INFINISEE\_REAGENT3\_NAME>  (432) 
EMOL2866855

>  <s_sd_BIOSOLVEIT.INFINISEE\_REAGENT3\_SMILES>  (432) 
S(c1ccccc1)CCN

>  <s_sd_BIOSOLVEIT.INFINISEE\_SPACE>  (432) 
eXplore_7tr_2022-12

>  <s_vsw_compound_code>  (432) 
74882

>  <s_vsw_variant>  (432) 
74882-2

>  <r_epik_Charging_Adjusted_Penalty>  (432) 
1.4069213605962401

>  <r_epik_Ionization_Penalty>  (432) 
1.4146000000000001

>  <r_epik_Ionization_Penalty_Charging>  (432) 
0

>  <r_epik_Ionization_Penalty_Neutral>  (432) 
1.4146000000000001

>  <r_epik_State_Penalty>  (432) 
1.4069

>  <r_i_docking_score>  (432) 
-2.2309058984789898

>  <r_i_glide_ecoul>  (432) 
-3.30094337463379

>  <r_i_glide_eff_state_penalty>  (432) 
1.4069

>  <r_i_glide_einternal>  (432) 
2.6390609741210902

>  <r_i_glide_emodel>  (432) 
-53.3838353375018

>  <r_i_glide_energy>  (432) 
-43.987031936645501

>  <r_i_glide_erotb>  (432) 
0.77120713838741795

>  <r_i_glide_esite>  (432) 
-0.189992956234319

>  <r_i_glide_evdw>  (432) 
-40.686088562011697

>  <r_i_glide_gscore>  (432) 
-3.6378058984789901

>  <r_i_glide_hbond>  (432) 
-0.054183855765461898

>  <r_i_glide_ligand_efficiency>  (432) 
-0.067603209044817897

>  <r_i_glide_ligand_efficiency_ln>  (432) 
-0.49614192080918201

>  <r_i_glide_ligand_efficiency_sa>  (432) 
-0.21683961357641099

>  <r_i_glide_lipo>  (432) 
-1.3395045178436999

>  <r_i_glide_metal>  (432) 
-0

>  <r_i_glide_rewards>  (432) 
-0.29588577272727101

>  <r_lp_Energy>  (432) 
35.622165000000003

>  <r_qp_ACxDN^.5/SA>  (432) 
0.014456200000000001

>  <r_qp_CIQPlogS>  (432) 
-5.9130000000000003

>  <r_qp_EA(eV)>  (432) 
0.83599999999999997

>  <r_qp_FISA>  (432) 
35.787999999999997

>  <r_qp_FOSA>  (432) 
178.58699999999999

>  <r_qp_IP(eV)>  (432) 
8.1440000000000001

>  <r_qp_Jm>  (432) 
1.4801792399597899

>  <r_qp_PISA>  (432) 
434.53699999999998

>  <r_qp_PSA>  (432) 
50.554000000000002

>  <r_qp_PercentHumanOralAbsorption>  (432) 
100

>  <r_qp_QPPCaco>  (432) 
1130.894

>  <r_qp_QPPMDCK>  (432) 
982.94500000000005

>  <r_qp_QPlogBB>  (432) 
0.19

>  <r_qp_QPlogHERG>  (432) 
-6.4909999999999997

>  <r_qp_QPlogKhsa>  (432) 
0.56599999999999995

>  <r_qp_QPlogKp>  (432) 
-1.847

>  <r_qp_QPlogPC16>  (432) 
14.800000000000001

>  <r_qp_QPlogPo/w>  (432) 
4.665

>  <r_qp_QPlogPoct>  (432) 
22.992999999999999

>  <r_qp_QPlogPw>  (432) 
12.417999999999999

>  <r_qp_QPlogS>  (432) 
-3.6419999999999999

>  <r_qp_QPpolrz>  (432) 
46.603000000000002

>  <r_qp_SASA>  (432) 
684.79399999999998

>  <r_qp_SAamideO>  (432) 
0

>  <r_qp_SAfluorine>  (432) 
0

>  <r_qp_WPSA>  (432) 
35.881

>  <r_qp_accptHB>  (432) 
7

>  <r_qp_dip^2/V>  (432) 
0.051815100000000003

>  <r_qp_dipole>  (432) 
8.391

>  <r_qp_donorHB>  (432) 
2

>  <r_qp_glob>  (432) 
0.86645479999999997

>  <r_qp_mol_MW>  (432) 
456.60399999999998

>  <r_qp_volume>  (432) 
1358.973

>  <r_sd_BIOSOLVEIT.INFINISEE\_FTREES\_SIMILARITY>  (432) 
0.92100000000000004

>  <r_sd_BIOSOLVEIT.LOGP>  (432) 
4.3357999999999999

>  <r_sd_BIOSOLVEIT.MOLECULAR\_WEIGHT>  (432) 
457.61799999999999

>  <r_sd_BIOSOLVEIT.TPSA>  (432) 
58.460000000000001

>  <i_epik_Tot_Q>  (432) 
0

>  <i_epik_Tot_abs_Q>  (432) 
0

>  <i_f3d_flags>  (432) 
0

>  <i_i_glide_confnum>  (432) 
7

>  <i_i_glide_lignum>  (432) 
946

>  <i_i_glide_posenum>  (432) 
3

>  <i_i_glide_rotatable_bonds>  (432) 
10

>  <i_lp_mmshare_version>  (432) 
65135

>  <i_m_ct_format>  (432) 
2

>  <i_m_source_file_index>  (432) 
2341

>  <i_qp_#NandO>  (432) 
5

>  <i_qp_#acid>  (432) 
0

>  <i_qp_#amide>  (432) 
0

>  <i_qp_#amidine>  (432) 
0

>  <i_qp_#amine>  (432) 
1

>  <i_qp_#in34>  (432) 
0

>  <i_qp_#in56>  (432) 
22

>  <i_qp_#metab>  (432) 
5

>  <i_qp_#nonHatm>  (432) 
33

>  <i_qp_#noncon>  (432) 
0

>  <i_qp_#ringatoms>  (432) 
22

>  <i_qp_#rotor>  (432) 
9

>  <i_qp_#rtvFG>  (432) 
0

>  <i_qp_#stars>  (432) 
0

>  <i_qp_CNS>  (432) 
1

>  <i_qp_HumanOralAbsorption>  (432) 
3

>  <i_qp_RuleOfFive>  (432) 
0

>  <i_qp_RuleOfThree>  (432) 
0

>  <i_sd_BIOSOLVEIT.INFINISEE\_RESULT\_RANK>  (432) 
15158

>  <i_sd_version>  (432) 
0

>  <b_lp_Chiralities_Consistent>  (432) 
1

>  <b_sd_chiral_flag>  (432) 
0

>  <canonical_id>  (432) 
ATP-HTVS-44A5767B4738

>  <compound_code>  (432) 
74882

>  <title>  (432) 
rxn502b____EMOL5415347____EMOL13728749____EMOL2866855

>  <variant>  (432) 
74882-2

>  <source_file>  (432) 
运行/运行/ATP-VSW/ATP-VSW-DOCK_HTVS_1-002_lib.maegz

>  <canonical_smiles>  (432) 
CN(C)Cc1ccccc1C(=O)Nc1c(NCCSc2ccccc2)cnc2ccccc12

>  <scaffold>  (432) 
O=C(Nc1c(NCCSc2ccccc2)cnc2ccccc12)c1ccccc1

>  <molecular_formula>  (432) 
C27H28N4OS

$$$$
ATP-HTVS-44ACC7CEC3D6
     RDKit          3D

 55 57  0  0  0  0  0  0  0  0999 V2000
  196.8480  179.5752  152.0209 Cl  0  0  0  0  0  0  0  0  0  0  0  0
  197.4502  181.1192  152.4909 C   0  0  0  0  0  0  0  0  0  0  0  0
  198.8015  181.2794  152.8442 C   0  0  0  0  0  0  0  0  0  0  0  0
  199.3035  182.5438  153.2035 C   0  0  0  0  0  0  0  0  0  0  0  0
  200.6626  182.6518  153.5148 N   0  0  0  0  0  0  0  0  0  0  0  0
  198.4271  183.6649  153.2288 C   0  0  0  0  0  0  0  0  0  0  0  0
  198.8918  184.9418  153.6882 N   0  0  0  0  0  0  0  0  0  0  0  0
  198.7299  186.0721  152.9229 C   0  0  0  0  0  0  0  0  0  0  0  0
  198.2306  186.0692  151.8013 O   0  0  0  0  0  0  0  0  0  0  0  0
  199.2292  187.3709  153.4506 C   0  0  0  0  0  0  0  0  0  0  0  0
  200.2109  188.2881  152.3323 S   0  0  0  0  0  0  0  0  0  0  0  0
  200.5103  189.5328  153.5193 C   0  0  0  0  0  0  0  0  0  0  0  0
  199.8540  189.2560  154.6893 C   0  0  0  0  0  0  0  0  0  0  0  0
  199.0842  188.0671  154.6309 C   0  0  0  0  0  0  0  0  0  0  0  0
  198.3035  187.6712  155.7313 N   0  0  0  0  0  0  0  0  0  0  0  0
  198.5574  188.0074  157.0926 C   0  0  1  0  0  0  0  0  0  0  0  0
  197.6895  187.2548  158.0962 C   0  0  0  0  0  0  0  0  0  0  0  0
  197.5722  185.8454  158.1009 C   0  0  0  0  0  0  0  0  0  0  0  0
  196.7528  185.1790  159.0303 C   0  0  0  0  0  0  0  0  0  0  0  0
  196.0555  185.9292  159.9942 C   0  0  0  0  0  0  0  0  0  0  0  0
  196.1691  187.3327  160.0090 C   0  0  0  0  0  0  0  0  0  0  0  0
  196.9844  187.9915  159.0689 C   0  0  0  0  0  0  0  0  0  0  0  0
  196.6147  183.6605  158.9774 C   0  0  1  0  0  0  0  0  0  0  0  0
  195.4719  183.2162  158.1315 N   0  0  1  0  0  0  0  0  0  0  0  0
  195.4452  181.7502  157.9754 C   0  0  2  0  0  0  0  0  0  0  0  0
  194.1573  183.7274  158.5842 C   0  0  2  0  0  0  0  0  0  0  0  0
  199.5949  184.9681  154.9915 C   0  0  2  0  0  0  0  0  0  0  0  0
  197.0693  183.4948  152.8833 C   0  0  0  0  0  0  0  0  0  0  0  0
  196.5862  182.2280  152.5120 C   0  0  0  0  0  0  0  0  0  0  0  0
  199.4659  180.4288  152.8250 H   0  0  0  0  0  0  0  0  0  0  0  0
  201.0425  183.5223  153.8630 H   0  0  0  0  0  0  0  0  0  0  0  0
  201.2729  181.8481  153.5717 H   0  0  0  0  0  0  0  0  0  0  0  0
  201.1071  190.3974  153.2669 H   0  0  0  0  0  0  0  0  0  0  0  0
  199.8944  189.8933  155.5729 H   0  0  0  0  0  0  0  0  0  0  0  0
  197.8192  186.7578  155.5980 H   0  0  0  0  0  0  0  0  0  0  0  0
  199.6066  187.8020  157.3112 H   0  0  0  0  0  0  0  0  0  0  0  0
  198.4065  189.0844  157.2417 H   0  0  0  0  0  0  0  0  0  0  0  0
  198.1062  185.2197  157.4120 H   0  0  0  0  0  0  0  0  0  0  0  0
  195.4106  185.4351  160.7048 H   0  0  0  0  0  0  0  0  0  0  0  0
  195.6176  187.9103  160.7334 H   0  0  0  0  0  0  0  0  0  0  0  0
  197.0687  189.0645  159.0931 H   0  0  0  0  0  0  0  0  0  0  0  0
  197.5373  183.2341  158.5756 H   0  0  0  0  0  0  0  0  0  0  0  0
  196.5148  183.2668  159.9898 H   0  0  0  0  0  0  0  0  0  0  0  0
  195.2905  181.2515  158.9334 H   0  0  0  0  0  0  0  0  0  0  0  0
  196.3838  181.3962  157.5499 H   0  0  0  0  0  0  0  0  0  0  0  0
  194.6436  181.4358  157.3061 H   0  0  0  0  0  0  0  0  0  0  0  0
  193.9479  183.4138  159.6065 H   0  0  0  0  0  0  0  0  0  0  0  0
  193.3530  183.3792  157.9352 H   0  0  0  0  0  0  0  0  0  0  0  0
  194.1291  184.8122  158.5519 H   0  0  0  0  0  0  0  0  0  0  0  0
  200.6067  185.4148  154.8937 H   0  0  0  0  0  0  0  0  0  0  0  0
  199.6809  183.9522  155.4345 H   0  0  0  0  0  0  0  0  0  0  0  0
  199.0069  185.5335  155.6643 H   0  0  0  0  0  0  0  0  0  0  0  0
  196.3752  184.3259  152.9319 H   0  0  0  0  0  0  0  0  0  0  0  0
  195.5448  182.1160  152.2563 H   0  0  0  0  0  0  0  0  0  0  0  0
  195.6153  183.5831  157.2025 H   0  0  0  0  0  0  0  0  0  0  0  0
  1  2  1  0
  2  3  2  0
  2 29  1  0
  3  4  1  0
  3 30  1  0
  4  5  1  0
  4  6  2  0
  5 31  1  0
  5 32  1  0
  6  7  1  0
  6 28  1  0
  7  8  1  0
  7 27  1  0
  8  9  2  0
  8 10  1  0
 10 11  1  0
 10 14  2  0
 11 12  1  0
 12 13  2  0
 12 33  1  0
 13 14  1  0
 13 34  1  0
 14 15  1  0
 15 16  1  0
 15 35  1  0
 16 17  1  0
 16 36  1  1
 16 37  1  0
 17 18  2  0
 17 22  1  0
 18 19  1  0
 18 38  1  0
 19 20  2  0
 19 23  1  0
 20 21  1  0
 20 39  1  0
 21 22  2  0
 21 40  1  0
 22 41  1  0
 23 24  1  0
 23 42  1  6
 23 43  1  0
 24 25  1  0
 24 26  1  0
 24 55  1  6
 25 44  1  1
 25 45  1  0
 25 46  1  0
 26 47  1  1
 26 48  1  0
 26 49  1  0
 27 50  1  6
 27 51  1  0
 27 52  1  0
 28 29  2  0
 28 53  1  0
 29 54  1  0
M  CHG  1  24   1
M  END
>  <s_epik_cmdline>  (433) 
J2VwaWtfcHl0aG9uJywgJy1waCcsICc3LjAwMDAwMCcsICctcGh0JywgJzIuMDAwMDAwJywgJy1tcycsICcxNicsICctdG4nLCAnOCcsICctbWEnLCAnMjAwJywgJy1pbWFlJywgJzxpbmZpbGUubWFlPicsICctb21hZScsICc8b3V0ZmlsZS5tYWU+Jw==

>  <s_epik_input>  (433) 
Q2xjMVtjSF1jKFtOSDJdKWMoW2NIXVtjSF0xKU4oW0NIM10pQyg9TyljMnNbY0hdW2NIXWMyW05IXVtDSDJdYzNbY0hdYyhbY0hdW2NIXVtjSF0zKVtDSDJdTihbQ0gzXSlbQ0gzXQ==

>  <s_i_glide_gridfile>  (433) 
ATP-Grid

>  <s_lp_Force_Field>  (433) 
OPLS_2005

>  <s_lp_Variant>  (433) 
rxn512b____EMOL10352850____EMOL525138____EMOL2873214-1

>  <s_lp_label>  (433) 
2608_sdstereoexpander_1_neutralizer_1_epik_1_stereoizer_1

>  <s_m_source_file>  (433) 
ATP-VSW-LIGPREP-001-in.maegz

>  <s_sd_BIOSOLVEIT.INFINISEE\_QUERY\_NAME>  (433) 
Ref-Lig

>  <s_sd_BIOSOLVEIT.INFINISEE\_QUERY\_SMILES>  (433) 
S(c1nc2c(cc1C[NH2+]Cc3ccc(cc3)C[NH+](C)C)cccc2)Cc4ccccc4

>  <s_sd_BIOSOLVEIT.INFINISEE\_REACTION\_NAME>  (433) 
rxn512b

>  <s_sd_BIOSOLVEIT.INFINISEE\_REAGENT1\_NAME>  (433) 
EMOL10352850

>  <s_sd_BIOSOLVEIT.INFINISEE\_REAGENT1\_SMILES>  (433) 
Clc1cc(N)c(NC)cc1

>  <s_sd_BIOSOLVEIT.INFINISEE\_REAGENT2\_NAME>  (433) 
EMOL525138

>  <s_sd_BIOSOLVEIT.INFINISEE\_REAGENT2\_SMILES>  (433) 
BrC1=C(SC=C1)C(=O)O

>  <s_sd_BIOSOLVEIT.INFINISEE\_REAGENT3\_NAME>  (433) 
EMOL2873214

>  <s_sd_BIOSOLVEIT.INFINISEE\_REAGENT3\_SMILES>  (433) 
N(Cc1cc(ccc1)CN)(C)C

>  <s_sd_BIOSOLVEIT.INFINISEE\_SPACE>  (433) 
eXplore_7tr_2022-12

>  <s_vsw_compound_code>  (433) 
83425

>  <s_vsw_variant>  (433) 
83425-1

>  <r_epik_Charging_Adjusted_Penalty>  (433) 
0.086140609825027206

>  <r_epik_Ionization_Penalty>  (433) 
0.043099999999999999

>  <r_epik_Ionization_Penalty_Charging>  (433) 
0.043099999999999999

>  <r_epik_Ionization_Penalty_Neutral>  (433) 
0.0001

>  <r_epik_State_Penalty>  (433) 
0.043099999999999999

>  <r_i_docking_score>  (433) 
-3.7779911940049402

>  <r_i_glide_ecoul>  (433) 
-6.6811780929565403

>  <r_i_glide_eff_state_penalty>  (433) 
0.043099999999999999

>  <r_i_glide_einternal>  (433) 
2.2312366962432901

>  <r_i_glide_emodel>  (433) 
-49.680496891433698

>  <r_i_glide_energy>  (433) 
-37.799624443054199

>  <r_i_glide_erotb>  (433) 
0.75256507117160198

>  <r_i_glide_esite>  (433) 
-0.053409732053234703

>  <r_i_glide_evdw>  (433) 
-31.118446350097699

>  <r_i_glide_gscore>  (433) 
-3.8210911940049401

>  <r_i_glide_hbond>  (433) 
0

>  <r_i_glide_ligand_efficiency>  (433) 
-0.13027555841396299

>  <r_i_glide_ligand_efficiency_ln>  (433) 
-0.86506418183643796

>  <r_i_glide_ligand_efficiency_sa>  (433) 
-0.40024778964158803

>  <r_i_glide_lipo>  (433) 
-1.4760293837409699

>  <r_i_glide_metal>  (433) 
-0

>  <r_i_glide_rewards>  (433) 
-0.48611811793396897

>  <r_lp_Energy>  (433) 
40.834660999999997

>  <r_lp_tautomer_probability>  (433) 
0.99999274205267796

>  <r_qp_ACxDN^.5/SA>  (433) 
0.0097599000000000002

>  <r_qp_CIQPlogS>  (433) 
-4.4340000000000002

>  <r_qp_EA(eV)>  (433) 
0.22700000000000001

>  <r_qp_FISA>  (433) 
76.004000000000005

>  <r_qp_FOSA>  (433) 
283.12299999999999

>  <r_qp_IP(eV)>  (433) 
8.0459999999999994

>  <r_qp_Jm>  (433) 
9.5397637013470803e-05

>  <r_qp_PISA>  (433) 
293.89699999999999

>  <r_qp_PSA>  (433) 
68.153999999999996

>  <r_qp_PercentHumanOralAbsorption>  (433) 
89.242999999999995

>  <r_qp_QPPCaco>  (433) 
117.206

>  <r_qp_QPPMDCK>  (433) 
210.38800000000001

>  <r_qp_QPlogBB>  (433) 
0.30099999999999999

>  <r_qp_QPlogHERG>  (433) 
-7.8659999999999997

>  <r_qp_QPlogKhsa>  (433) 
0.74099999999999999

>  <r_qp_QPlogKp>  (433) 
-5.242

>  <r_qp_QPlogPC16>  (433) 
14.525

>  <r_qp_QPlogPo/w>  (433) 
4.3150000000000004

>  <r_qp_QPlogPoct>  (433) 
20.645

>  <r_qp_QPlogPw>  (433) 
10.423999999999999

>  <r_qp_QPlogS>  (433) 
-4.4109999999999996

>  <r_qp_QPpolrz>  (433) 
45.582000000000001

>  <r_qp_SASA>  (433) 
752.92600000000004

>  <r_qp_SAamideO>  (433) 
0

>  <r_qp_SAfluorine>  (433) 
0

>  <r_qp_WPSA>  (433) 
99.902000000000001

>  <r_qp_accptHB>  (433) 
6

>  <r_qp_dip^2/V>  (433) 
0.0014028000000000001

>  <r_qp_dipole>  (433) 
1.377

>  <r_qp_donorHB>  (433) 
1.5

>  <r_qp_glob>  (433) 
0.78495769999999998

>  <r_qp_mol_MW>  (433) 
428.97899999999998

>  <r_qp_volume>  (433) 
1350.9849999999999

>  <r_sd_BIOSOLVEIT.INFINISEE\_FTREES\_SIMILARITY>  (433) 
0.91100000000000003

>  <r_sd_BIOSOLVEIT.LOGP>  (433) 
3.5169000000000001

>  <r_sd_BIOSOLVEIT.MOLECULAR\_WEIGHT>  (433) 
429.99200000000002

>  <r_sd_BIOSOLVEIT.TPSA>  (433) 
62.799999999999997

>  <i_epik_Tot_Q>  (433) 
1

>  <i_epik_Tot_abs_Q>  (433) 
1

>  <i_f3d_flags>  (433) 
0

>  <i_i_glide_confnum>  (433) 
7

>  <i_i_glide_lignum>  (433) 
1086

>  <i_i_glide_posenum>  (433) 
1

>  <i_i_glide_rotatable_bonds>  (433) 
8

>  <i_lp_mmshare_version>  (433) 
65135

>  <i_m_ct_format>  (433) 
2

>  <i_m_source_file_index>  (433) 
2608

>  <i_qp_#NandO>  (433) 
5

>  <i_qp_#acid>  (433) 
0

>  <i_qp_#amide>  (433) 
0

>  <i_qp_#amidine>  (433) 
0

>  <i_qp_#amine>  (433) 
2

>  <i_qp_#in34>  (433) 
0

>  <i_qp_#in56>  (433) 
17

>  <i_qp_#metab>  (433) 
7

>  <i_qp_#nonHatm>  (433) 
29

>  <i_qp_#noncon>  (433) 
0

>  <i_qp_#ringatoms>  (433) 
17

>  <i_qp_#rotor>  (433) 
8

>  <i_qp_#rtvFG>  (433) 
0

>  <i_qp_#stars>  (433) 
0

>  <i_qp_CNS>  (433) 
1

>  <i_qp_HumanOralAbsorption>  (433) 
3

>  <i_qp_RuleOfFive>  (433) 
0

>  <i_qp_RuleOfThree>  (433) 
1

>  <i_sd_BIOSOLVEIT.INFINISEE\_RESULT\_RANK>  (433) 
42217

>  <i_sd_version>  (433) 
0

>  <b_lp_Chiralities_Consistent>  (433) 
1

>  <b_sd_chiral_flag>  (433) 
0

>  <canonical_id>  (433) 
ATP-HTVS-44ACC7CEC3D6

>  <compound_code>  (433) 
83425

>  <title>  (433) 
rxn512b____EMOL10352850____EMOL525138____EMOL2873214

>  <variant>  (433) 
83425-1

>  <source_file>  (433) 
运行/运行/ATP-VSW/ATP-VSW-DOCK_HTVS_1-001_lib/ATP-VSW-DOCK_HTVS_1-001_lib

>  <canonical_smiles>  (433) 
CN(C(=O)c1sccc1NCc1cccc(C[NH+](C)C)c1)c1ccc(Cl)cc1N

>  <scaffold>  (433) 
O=C(Nc1ccccc1)c1sccc1NCc1ccccc1

>  <molecular_formula>  (433) 
C22H26ClN4OS+

$$$$
ATP-HTVS-44DE29768EEE
     RDKit          3D

 46 49  0  0  0  0  0  0  0  0999 V2000
  189.4721  190.6384  159.3116 O   0  0  0  0  0  0  0  0  0  0  0  0
  190.4088  190.6149  160.2887 C   0  0  0  0  0  0  0  0  0  0  0  0
  191.1055  191.7914  160.5548 C   0  0  0  0  0  0  0  0  0  0  0  0
  192.1620  191.7578  161.4735 C   0  0  0  0  0  0  0  0  0  0  0  0
  192.4871  190.5727  162.1686 C   0  0  0  0  0  0  0  0  0  0  0  0
  191.7367  189.4026  161.9225 C   0  0  0  0  0  0  0  0  0  0  0  0
  190.6962  189.4248  160.9768 C   0  0  0  0  0  0  0  0  0  0  0  0
  193.6607  190.5842  163.1499 C   0  0  1  0  0  0  0  0  0  0  0  0
  193.5138  189.6814  164.2192 O   0  0  0  0  0  0  0  0  0  0  0  0
  195.0128  190.3045  162.4801 C   0  0  1  0  0  0  0  0  0  0  0  0
  195.0141  189.0633  161.7233 N   0  0  0  0  0  0  0  0  0  0  0  0
  196.0265  188.6743  160.8862 C   0  0  0  0  0  0  0  0  0  0  0  0
  195.9430  187.4370  160.4049 N   0  0  0  0  0  0  0  0  0  0  0  0
  196.9055  187.0175  159.5517 C   0  0  0  0  0  0  0  0  0  0  0  0
  197.9866  187.8802  159.2114 C   0  0  0  0  0  0  0  0  0  0  0  0
  197.9576  189.1841  159.7781 C   0  0  0  0  0  0  0  0  0  0  0  0
  196.9648  189.5686  160.5983 N   0  0  0  0  0  0  0  0  0  0  0  0
  198.9921  190.0835  159.4619 C   0  0  0  0  0  0  0  0  0  0  0  0
  200.0548  189.7164  158.6162 C   0  0  0  0  0  0  0  0  0  0  0  0
  200.0898  188.4242  158.0708 C   0  0  0  0  0  0  0  0  0  0  0  0
  199.0743  187.5038  158.3798 C   0  0  0  0  0  0  0  0  0  0  0  0
  196.7397  185.6344  159.0229 C   0  0  0  0  0  0  0  0  0  0  0  0
  196.3938  184.5647  159.8828 C   0  0  0  0  0  0  0  0  0  0  0  0
  196.2605  183.2477  159.3943 C   0  0  0  0  0  0  0  0  0  0  0  0
  196.4807  182.9649  158.0350 C   0  0  0  0  0  0  0  0  0  0  0  0
  196.8323  184.0092  157.1649 C   0  0  0  0  0  0  0  0  0  0  0  0
  196.9368  185.3282  157.6514 C   0  0  0  0  0  0  0  0  0  0  0  0
  189.2006  191.5113  159.0308 H   0  0  0  0  0  0  0  0  0  0  0  0
  190.8660  192.6909  160.0119 H   0  0  0  0  0  0  0  0  0  0  0  0
  192.7422  192.6393  161.6004 H   0  0  0  0  0  0  0  0  0  0  0  0
  191.9950  188.4758  162.4156 H   0  0  0  0  0  0  0  0  0  0  0  0
  190.1483  188.5206  160.7631 H   0  0  0  0  0  0  0  0  0  0  0  0
  193.7013  191.5711  163.6045 H   0  0  0  0  0  0  0  0  0  0  0  0
  192.6694  189.8423  164.6057 H   0  0  0  0  0  0  0  0  0  0  0  0
  195.2251  191.1065  161.7819 H   0  0  0  0  0  0  0  0  0  0  0  0
  195.8282  190.3054  163.2148 H   0  0  0  0  0  0  0  0  0  0  0  0
  194.1886  188.4818  161.7391 H   0  0  0  0  0  0  0  0  0  0  0  0
  198.9739  191.0596  159.9158 H   0  0  0  0  0  0  0  0  0  0  0  0
  200.8504  190.4185  158.4050 H   0  0  0  0  0  0  0  0  0  0  0  0
  200.9022  188.1277  157.4237 H   0  0  0  0  0  0  0  0  0  0  0  0
  199.1823  186.5188  157.9553 H   0  0  0  0  0  0  0  0  0  0  0  0
  196.2399  184.7558  160.9336 H   0  0  0  0  0  0  0  0  0  0  0  0
  195.9871  182.4478  160.0629 H   0  0  0  0  0  0  0  0  0  0  0  0
  196.3658  181.9565  157.6604 H   0  0  0  0  0  0  0  0  0  0  0  0
  196.9981  183.8079  156.1181 H   0  0  0  0  0  0  0  0  0  0  0  0
  197.1768  186.1056  156.9462 H   0  0  0  0  0  0  0  0  0  0  0  0
  1  2  1  0
  1 28  1  0
  2  3  1  0
  2  7  2  0
  3  4  2  0
  3 29  1  0
  4  5  1  0
  4 30  1  0
  5  6  2  0
  5  8  1  0
  6  7  1  0
  6 31  1  0
  7 32  1  0
  8  9  1  0
  8 10  1  0
  8 33  1  1
  9 34  1  0
 10 11  1  0
 10 35  1  6
 10 36  1  0
 11 12  1  0
 11 37  1  0
 12 13  2  0
 12 17  1  0
 13 14  1  0
 14 15  2  0
 14 22  1  0
 15 16  1  0
 15 21  1  0
 16 17  2  0
 16 18  1  0
 18 19  2  0
 18 38  1  0
 19 20  1  0
 19 39  1  0
 20 21  2  0
 20 40  1  0
 21 41  1  0
 22 23  2  0
 22 27  1  0
 23 24  1  0
 23 42  1  0
 24 25  2  0
 24 43  1  0
 25 26  1  0
 25 44  1  0
 26 27  2  0
 26 45  1  0
 27 46  1  0
M  END
>  <s_epik_cmdline>  (434) 
J2VwaWtfcHl0aG9uJywgJy1waCcsICc3LjAwMDAwMCcsICctcGh0JywgJzIuMDAwMDAwJywgJy1tcycsICcxNicsICctdG4nLCAnOCcsICctbWEnLCAnMjAwJywgJy1pbWFlJywgJzxpbmZpbGUubWFlPicsICctb21hZScsICc8b3V0ZmlsZS5tYWU+Jw==

>  <s_epik_input>  (434) 
W09IXWMxW2NIXVtjSF1jKFtjSF1bY0hdMSlbQ0BASF0oW09IXSlbQ0gyXVtOSF1jKG5jKGMyMylbY0hdW2NIXVtjSF1bY0hdMyluYzItYzRbY0hdW2NIXVtjSF1bY0hdW2NIXTQ=

>  <s_i_glide_gridfile>  (434) 
ATP-Grid

>  <s_lp_Force_Field>  (434) 
OPLS_2005

>  <s_lp_Variant>  (434) 
a2____240755____48395-1

>  <s_lp_label>  (434) 
550_sdstereoexpander_1_neutralizer_1_epik_1_stereoizer_1

>  <s_m_source_file>  (434) 
ATP-VSW-LIGPREP-003-in.maegz

>  <s_sd_BIOSOLVEIT.INFINISEE\_QUERY\_NAME>  (434) 
Ref-Lig

>  <s_sd_BIOSOLVEIT.INFINISEE\_QUERY\_SMILES>  (434) 
S(c1nc2c(cc1C[NH2+]Cc3ccc(cc3)C[NH+](C)C)cccc2)Cc4ccccc4

>  <s_sd_BIOSOLVEIT.INFINISEE\_REACTION\_NAME>  (434) 
a2

>  <s_sd_BIOSOLVEIT.INFINISEE\_REAGENT1\_SMILES>  (434) 
[R1*]NCC(O)c1ccc(O)cc1

>  <s_sd_BIOSOLVEIT.INFINISEE\_REAGENT2\_SMILES>  (434) 
[R1*]c1nc(c2c(n1)cccc2)c3ccccc3

>  <s_sd_BIOSOLVEIT.INFINISEE\_SPACE>  (434) 
FreedomSpace_5bn_2023-06

>  <s_vsw_compound_code>  (434) 
17571

>  <s_vsw_variant>  (434) 
17571-1

>  <r_epik_Charging_Adjusted_Penalty>  (434) 
0.011083645536415099

>  <r_epik_Ionization_Penalty>  (434) 
0.011900000000000001

>  <r_epik_Ionization_Penalty_Charging>  (434) 
0

>  <r_epik_Ionization_Penalty_Neutral>  (434) 
0.011900000000000001

>  <r_epik_State_Penalty>  (434) 
0.0111

>  <r_i_docking_score>  (434) 
-5.6766942290558502

>  <r_i_glide_ecoul>  (434) 
-9.2831249237060494

>  <r_i_glide_eff_state_penalty>  (434) 
0.0111

>  <r_i_glide_einternal>  (434) 
8.4991226196289098

>  <r_i_glide_emodel>  (434) 
-44.028775682947298

>  <r_i_glide_energy>  (434) 
-35.454767227172901

>  <r_i_glide_erotb>  (434) 
0.74933188164988795

>  <r_i_glide_esite>  (434) 
-0.037628516608435102

>  <r_i_glide_evdw>  (434) 
-26.1716423034668

>  <r_i_glide_gscore>  (434) 
-5.6877942290558501

>  <r_i_glide_hbond>  (434) 
-0.85014803029209896

>  <r_i_glide_ligand_efficiency>  (434) 
-0.21024793440947601

>  <r_i_glide_ligand_efficiency_ln>  (434) 
-1.3214408289055699

>  <r_i_glide_ligand_efficiency_sa>  (434) 
-0.63074380253548501

>  <r_i_glide_lipo>  (434) 
-1.6469707960097799

>  <r_i_glide_metal>  (434) 
-0

>  <r_i_glide_rewards>  (434) 
-1.2013279140661799

>  <r_lp_Energy>  (434) 
17.675075

>  <r_lp_tautomer_probability>  (434) 
0.999999999997365

>  <r_qp_ACxDN^.5/SA>  (434) 
0.0131454

>  <r_qp_CIQPlogS>  (434) 
-5.6559999999999997

>  <r_qp_EA(eV)>  (434) 
0.875

>  <r_qp_FISA>  (434) 
113.372

>  <r_qp_FOSA>  (434) 
47.162999999999997

>  <r_qp_IP(eV)>  (434) 
8.2579999999999991

>  <r_qp_Jm>  (434) 
0.24764464231694

>  <r_qp_PISA>  (434) 
491.68299999999999

>  <r_qp_PSA>  (434) 
74.325000000000003

>  <r_qp_PercentHumanOralAbsorption>  (434) 
100

>  <r_qp_QPPCaco>  (434) 
833.28700000000003

>  <r_qp_QPPMDCK>  (434) 
406.19900000000001

>  <r_qp_QPlogBB>  (434) 
-0.99099999999999999

>  <r_qp_QPlogHERG>  (434) 
-6.8390000000000004

>  <r_qp_QPlogKhsa>  (434) 
0.36899999999999999

>  <r_qp_QPlogKp>  (434) 
-1.2050000000000001

>  <r_qp_QPlogPC16>  (434) 
13.903

>  <r_qp_QPlogPo/w>  (434) 
3.9039999999999999

>  <r_qp_QPlogPoct>  (434) 
20.561

>  <r_qp_QPlogPw>  (434) 
13.130000000000001

>  <r_qp_QPlogS>  (434) 
-4.9550000000000001

>  <r_qp_QPpolrz>  (434) 
40.326999999999998

>  <r_qp_SASA>  (434) 
652.21799999999996

>  <r_qp_SAamideO>  (434) 
0

>  <r_qp_SAfluorine>  (434) 
0

>  <r_qp_WPSA>  (434) 
0

>  <r_qp_accptHB>  (434) 
4.9500000000000002

>  <r_qp_dip^2/V>  (434) 
0.0026913000000000002

>  <r_qp_dipole>  (434) 
1.764

>  <r_qp_donorHB>  (434) 
3

>  <r_qp_glob>  (434) 
0.81692960000000003

>  <r_qp_mol_MW>  (434) 
357.411

>  <r_qp_volume>  (434) 
1156.4269999999999

>  <r_sd_BIOSOLVEIT.INFINISEE\_FTREES\_SIMILARITY>  (434) 
0.90300000000000002

>  <r_sd_BIOSOLVEIT.LOGP>  (434) 
4.1478999999999999

>  <r_sd_BIOSOLVEIT.MOLECULAR\_WEIGHT>  (434) 
357.411

>  <r_sd_BIOSOLVEIT.TPSA>  (434) 
78.269999999999996

>  <i_epik_Tot_Q>  (434) 
0

>  <i_epik_Tot_abs_Q>  (434) 
0

>  <i_f3d_flags>  (434) 
0

>  <i_i_glide_confnum>  (434) 
6

>  <i_i_glide_lignum>  (434) 
243

>  <i_i_glide_posenum>  (434) 
11

>  <i_i_glide_rotatable_bonds>  (434) 
7

>  <i_lp_mmshare_version>  (434) 
65135

>  <i_m_ct_format>  (434) 
2

>  <i_m_source_file_index>  (434) 
550

>  <i_qp_#NandO>  (434) 
5

>  <i_qp_#acid>  (434) 
0

>  <i_qp_#amide>  (434) 
0

>  <i_qp_#amidine>  (434) 
0

>  <i_qp_#amine>  (434) 
0

>  <i_qp_#in34>  (434) 
0

>  <i_qp_#in56>  (434) 
22

>  <i_qp_#metab>  (434) 
2

>  <i_qp_#nonHatm>  (434) 
27

>  <i_qp_#noncon>  (434) 
0

>  <i_qp_#ringatoms>  (434) 
22

>  <i_qp_#rotor>  (434) 
7

>  <i_qp_#rtvFG>  (434) 
0

>  <i_qp_#stars>  (434) 
1

>  <i_qp_CNS>  (434) 
-1

>  <i_qp_HumanOralAbsorption>  (434) 
3

>  <i_qp_RuleOfFive>  (434) 
0

>  <i_qp_RuleOfThree>  (434) 
0

>  <i_sd_BIOSOLVEIT.INFINISEE\_REAGENT1\_NAME>  (434) 
240755

>  <i_sd_BIOSOLVEIT.INFINISEE\_REAGENT2\_NAME>  (434) 
48395

>  <i_sd_BIOSOLVEIT.INFINISEE\_RESULT\_RANK>  (434) 
85102

>  <i_sd_version>  (434) 
0

>  <b_lp_Chiralities_Consistent>  (434) 
1

>  <b_sd_chiral_flag>  (434) 
0

>  <canonical_id>  (434) 
ATP-HTVS-44DE29768EEE

>  <compound_code>  (434) 
17571

>  <title>  (434) 
a2____240755____48395

>  <variant>  (434) 
17571-1

>  <source_file>  (434) 
运行/运行/ATP-VSW/ATP-VSW-DOCK_HTVS_1-003_lib/ATP-VSW-DOCK_HTVS_1-003_lib.mae

>  <canonical_smiles>  (434) 
Oc1ccc([C@@H](O)CNc2nc(-c3ccccc3)c3ccccc3n2)cc1

>  <scaffold>  (434) 
c1ccc(CCNc2nc(-c3ccccc3)c3ccccc3n2)cc1

>  <molecular_formula>  (434) 
C22H19N3O2

$$$$
ATP-HTVS-4503BC70E7F0
     RDKit          3D

 54 57  0  0  0  0  0  0  0  0999 V2000
  197.4144  184.5107  156.6162 F   0  0  0  0  0  0  0  0  0  0  0  0
  196.7738  184.9148  157.7308 C   0  0  0  0  0  0  0  0  0  0  0  0
  195.9857  184.0169  158.5096 C   0  0  0  0  0  0  0  0  0  0  0  0
  195.3560  184.5101  159.6734 C   0  0  0  0  0  0  0  0  0  0  0  0
  195.4888  185.8692  160.0414 C   0  0  0  0  0  0  0  0  0  0  0  0
  196.2551  186.7543  159.2596 C   0  0  0  0  0  0  0  0  0  0  0  0
  196.8956  186.2710  158.1116 C   0  0  0  0  0  0  0  0  0  0  0  0
  194.7865  186.3870  161.2726 C   0  0  2  0  0  0  0  0  0  0  0  0
  195.8345  182.5566  158.0561 C   0  0  2  0  0  0  0  0  0  0  0  0
  194.8403  181.8410  158.7733 O   0  0  0  0  0  0  0  0  0  0  0  0
  197.1457  181.7603  158.1953 C   0  0  1  0  0  0  0  0  0  0  0  0
  197.4928  181.0352  156.9626 N   0  0  1  0  0  0  0  0  0  0  0  0
  198.0885  181.8963  155.9217 C   0  0  1  0  0  0  0  0  0  0  0  0
  198.0591  181.0507  154.6947 C   0  0  0  0  0  0  0  0  0  0  0  0
  196.9299  180.9703  153.9978 N   0  0  0  0  0  0  0  0  0  0  0  0
  197.3007  180.2266  152.9050 C   0  0  0  0  0  0  0  0  0  0  0  0
  198.6652  179.8292  153.0010 C   0  0  0  0  0  0  0  0  0  0  0  0
  199.1260  180.3811  154.1949 N   0  0  0  0  0  0  0  0  0  0  0  0
  200.4764  180.2730  154.7306 C   0  0  1  0  0  0  0  0  0  0  0  0
  200.7181  178.9083  155.3457 C   0  0  0  0  0  0  0  0  0  0  0  0
  200.1039  178.5517  156.5667 C   0  0  0  0  0  0  0  0  0  0  0  0
  200.3474  177.2898  157.1392 C   0  0  0  0  0  0  0  0  0  0  0  0
  201.2060  176.3816  156.4983 C   0  0  0  0  0  0  0  0  0  0  0  0
  201.8199  176.7336  155.2789 C   0  0  0  0  0  0  0  0  0  0  0  0
  201.5724  177.9936  154.7027 C   0  0  0  0  0  0  0  0  0  0  0  0
  199.2631  179.0514  151.9973 C   0  0  0  0  0  0  0  0  0  0  0  0
  198.4957  178.6493  150.8849 C   0  0  0  0  0  0  0  0  0  0  0  0
  197.1456  179.0413  150.7742 C   0  0  0  0  0  0  0  0  0  0  0  0
  196.5464  179.8306  151.7771 C   0  0  0  0  0  0  0  0  0  0  0  0
  198.1098  180.2731  157.2004 H   0  0  0  0  0  0  0  0  0  0  0  0
  194.7516  183.8485  160.2787 H   0  0  0  0  0  0  0  0  0  0  0  0
  196.3512  187.7973  159.5274 H   0  0  0  0  0  0  0  0  0  0  0  0
  197.4827  186.9344  157.4986 H   0  0  0  0  0  0  0  0  0  0  0  0
  195.0030  187.4502  161.4188 H   0  0  0  0  0  0  0  0  0  0  0  0
  195.1373  185.8380  162.1495 H   0  0  0  0  0  0  0  0  0  0  0  0
  193.7028  186.2621  161.1674 H   0  0  0  0  0  0  0  0  0  0  0  0
  195.5033  182.5722  157.0147 H   0  0  0  0  0  0  0  0  0  0  0  0
  194.8346  180.9370  158.4965 H   0  0  0  0  0  0  0  0  0  0  0  0
  197.9797  182.3964  158.4998 H   0  0  0  0  0  0  0  0  0  0  0  0
  197.0543  181.0160  158.9819 H   0  0  0  0  0  0  0  0  0  0  0  0
  197.4559  182.7483  155.6963 H   0  0  0  0  0  0  0  0  0  0  0  0
  199.0897  182.2394  156.2034 H   0  0  0  0  0  0  0  0  0  0  0  0
  201.1936  180.4784  153.9304 H   0  0  0  0  0  0  0  0  0  0  0  0
  200.6657  181.0251  155.4908 H   0  0  0  0  0  0  0  0  0  0  0  0
  199.4492  179.2281  157.0899 H   0  0  0  0  0  0  0  0  0  0  0  0
  199.8725  177.0366  158.0782 H   0  0  0  0  0  0  0  0  0  0  0  0
  201.3956  175.4137  156.9357 H   0  0  0  0  0  0  0  0  0  0  0  0
  202.4864  176.0448  154.7848 H   0  0  0  0  0  0  0  0  0  0  0  0
  202.0566  178.2719  153.7773 H   0  0  0  0  0  0  0  0  0  0  0  0
  200.2989  178.7621  152.0919 H   0  0  0  0  0  0  0  0  0  0  0  0
  198.9496  178.0416  150.1163 H   0  0  0  0  0  0  0  0  0  0  0  0
  196.5715  178.7276  149.9174 H   0  0  0  0  0  0  0  0  0  0  0  0
  195.5078  180.1296  151.6959 H   0  0  0  0  0  0  0  0  0  0  0  0
  196.6593  180.5890  156.6113 H   0  0  0  0  0  0  0  0  0  0  0  0
  1  2  1  0
  2  3  2  0
  2  7  1  0
  3  4  1  0
  3  9  1  0
  4  5  2  0
  4 31  1  0
  5  6  1  0
  5  8  1  0
  6  7  2  0
  6 32  1  0
  7 33  1  0
  8 34  1  1
  8 35  1  0
  8 36  1  0
  9 10  1  0
  9 11  1  0
  9 37  1  6
 10 38  1  0
 11 12  1  0
 11 39  1  1
 11 40  1  0
 12 13  1  0
 12 30  1  1
 12 54  1  0
 13 14  1  0
 13 41  1  6
 13 42  1  0
 14 15  2  0
 14 18  1  0
 15 16  1  0
 16 17  1  0
 16 29  2  0
 17 18  1  0
 17 26  2  0
 18 19  1  0
 19 20  1  0
 19 43  1  6
 19 44  1  0
 20 21  2  0
 20 25  1  0
 21 22  1  0
 21 45  1  0
 22 23  2  0
 22 46  1  0
 23 24  1  0
 23 47  1  0
 24 25  2  0
 24 48  1  0
 25 49  1  0
 26 27  1  0
 26 50  1  0
 27 28  2  0
 27 51  1  0
 28 29  1  0
 28 52  1  0
 29 53  1  0
M  CHG  1  12   1
M  END
>  <s_epik_cmdline>  (435) 
J2VwaWtfcHl0aG9uJywgJy1waCcsICc3LjAwMDAwMCcsICctcGh0JywgJzIuMDAwMDAwJywgJy1tcycsICcxNicsICctdG4nLCAnOCcsICctbWEnLCAnMjAwJywgJy1pbWFlJywgJzxpbmZpbGUubWFlPicsICctb21hZScsICc8b3V0ZmlsZS5tYWU+Jw==

>  <s_epik_input>  (435) 
W2NIXTFbY0hdYyhbQ0gzXSlbY0hdYyhjMUYpW0NASF0oW09IXSlbQ0gyXVtOSF1bQ0gyXWMobjIpbihjKGMyMylbY0hdW2NIXVtjSF1bY0hdMylbQ0gyXWM0W2NIXVtjSF1bY0hdW2NIXVtjSF00

>  <s_i_glide_gridfile>  (435) 
ATP-Grid

>  <s_lp_Force_Field>  (435) 
OPLS_2005

>  <s_lp_Variant>  (435) 
m_270004bbb____21531152____24720860-4

>  <s_lp_label>  (435) 
1206_sdstereoexpander_2_neutralizer_1_epik_2_stereoizer_1

>  <s_m_source_file>  (435) 
ATP-VSW-LIGPREP-001-in.maegz

>  <s_sd_BIOSOLVEIT.INFINISEE\_QUERY\_NAME>  (435) 
Ref-Lig

>  <s_sd_BIOSOLVEIT.INFINISEE\_QUERY\_SMILES>  (435) 
S(c1nc2c(cc1C[NH2+]Cc3ccc(cc3)C[NH+](C)C)cccc2)Cc4ccccc4

>  <s_sd_BIOSOLVEIT.INFINISEE\_REACTION\_NAME>  (435) 
m_270004bbb

>  <s_sd_BIOSOLVEIT.INFINISEE\_REAGENT1\_SMILES>  (435) 
[R1*]NCC(O)c1c(F)ccc(c1)C

>  <s_sd_BIOSOLVEIT.INFINISEE\_REAGENT2\_SMILES>  (435) 
[R1*]CC1=Nc2c(N1Cc3ccccc3)cccc2

>  <s_sd_BIOSOLVEIT.INFINISEE\_SPACE>  (435) 
REALSpace_44bn_2023-08

>  <s_vsw_compound_code>  (435) 
38561

>  <s_vsw_variant>  (435) 
38561-4

>  <r_epik_Charging_Adjusted_Penalty>  (435) 
0.96858883619370695

>  <r_epik_Ionization_Penalty>  (435) 
0.4546

>  <r_epik_Ionization_Penalty_Charging>  (435) 
0.45379999999999998

>  <r_epik_Ionization_Penalty_Neutral>  (435) 
0.00089999999999999998

>  <r_epik_State_Penalty>  (435) 
0.51480000000000004

>  <r_i_docking_score>  (435) 
-4.9323847362685802

>  <r_i_glide_ecoul>  (435) 
-9.1430149078369105

>  <r_i_glide_eff_state_penalty>  (435) 
0.51480000000000004

>  <r_i_glide_einternal>  (435) 
7.5142321586608896

>  <r_i_glide_emodel>  (435) 
-61.730790773296199

>  <r_i_glide_energy>  (435) 
-44.3659343719482

>  <r_i_glide_erotb>  (435) 
0.89548353452000595

>  <r_i_glide_esite>  (435) 
-0.12617497521714

>  <r_i_glide_evdw>  (435) 
-35.2229194641113

>  <r_i_glide_gscore>  (435) 
-5.4471847362685804

>  <r_i_glide_hbond>  (435) 
-0.19453316636333001

>  <r_i_glide_ligand_efficiency>  (435) 
-0.17008223228512401

>  <r_i_glide_ligand_efficiency_ln>  (435) 
-1.12939103012032

>  <r_i_glide_ligand_efficiency_sa>  (435) 
-0.52254650341327102

>  <r_i_glide_lipo>  (435) 
-1.91758830391793

>  <r_i_glide_metal>  (435) 
-0

>  <r_i_glide_rewards>  (435) 
-0.97177361590908895

>  <r_lp_Energy>  (435) 
17.127320999999998

>  <r_qp_ACxDN^.5/SA>  (435) 
0.0106973

>  <r_qp_CIQPlogS>  (435) 
-5.3810000000000002

>  <r_qp_EA(eV)>  (435) 
0.17000000000000001

>  <r_qp_FISA>  (435) 
65.337999999999994

>  <r_qp_FOSA>  (435) 
175.03299999999999

>  <r_qp_IP(eV)>  (435) 
8.4979999999999993

>  <r_qp_Jm>  (435) 
0.244921518739841

>  <r_qp_PISA>  (435) 
349.24299999999999

>  <r_qp_PSA>  (435) 
47.271000000000001

>  <r_qp_PercentHumanOralAbsorption>  (435) 
100

>  <r_qp_QPPCaco>  (435) 
593.19600000000003

>  <r_qp_QPPMDCK>  (435) 
464.47800000000001

>  <r_qp_QPlogBB>  (435) 
-0.0050000000000000001

>  <r_qp_QPlogHERG>  (435) 
-5.8650000000000002

>  <r_qp_QPlogKhsa>  (435) 
0.60599999999999998

>  <r_qp_QPlogKp>  (435) 
-2.7879999999999998

>  <r_qp_QPlogPC16>  (435) 
12.609999999999999

>  <r_qp_QPlogPo/w>  (435) 
4.2759999999999998

>  <r_qp_QPlogPoct>  (435) 
19.071000000000002

>  <r_qp_QPlogPw>  (435) 
9.8399999999999999

>  <r_qp_QPlogS>  (435) 
-3.4140000000000001

>  <r_qp_QPpolrz>  (435) 
40.161000000000001

>  <r_qp_SASA>  (435) 
621.35500000000002

>  <r_qp_SAamideO>  (435) 
0

>  <r_qp_SAfluorine>  (435) 
31.742000000000001

>  <r_qp_WPSA>  (435) 
31.742000000000001

>  <r_qp_accptHB>  (435) 
4.7000000000000002

>  <r_qp_dip^2/V>  (435) 
0.0209331

>  <r_qp_dipole>  (435) 
5.0170000000000003

>  <r_qp_donorHB>  (435) 
2

>  <r_qp_glob>  (435) 
0.8800405

>  <r_qp_mol_MW>  (435) 
389.471

>  <r_qp_volume>  (435) 
1202.3099999999999

>  <r_sd_BIOSOLVEIT.INFINISEE\_FTREES\_SIMILARITY>  (435) 
0.91100000000000003

>  <r_sd_BIOSOLVEIT.LOGP>  (435) 
3.3291200000000001

>  <r_sd_BIOSOLVEIT.MOLECULAR\_WEIGHT>  (435) 
390.48000000000002

>  <r_sd_BIOSOLVEIT.TPSA>  (435) 
54.659999999999997

>  <i_epik_Tot_Q>  (435) 
1

>  <i_epik_Tot_abs_Q>  (435) 
1

>  <i_f3d_flags>  (435) 
0

>  <i_i_glide_confnum>  (435) 
10

>  <i_i_glide_lignum>  (435) 
313

>  <i_i_glide_posenum>  (435) 
2

>  <i_i_glide_rotatable_bonds>  (435) 
8

>  <i_lp_mmshare_version>  (435) 
65135

>  <i_m_ct_format>  (435) 
2

>  <i_m_source_file_index>  (435) 
1206

>  <i_qp_#NandO>  (435) 
4

>  <i_qp_#acid>  (435) 
0

>  <i_qp_#amide>  (435) 
0

>  <i_qp_#amidine>  (435) 
0

>  <i_qp_#amine>  (435) 
1

>  <i_qp_#in34>  (435) 
0

>  <i_qp_#in56>  (435) 
21

>  <i_qp_#metab>  (435) 
6

>  <i_qp_#nonHatm>  (435) 
29

>  <i_qp_#noncon>  (435) 
0

>  <i_qp_#ringatoms>  (435) 
21

>  <i_qp_#rotor>  (435) 
8

>  <i_qp_#rtvFG>  (435) 
0

>  <i_qp_#stars>  (435) 
0

>  <i_qp_CNS>  (435) 
1

>  <i_qp_HumanOralAbsorption>  (435) 
3

>  <i_qp_RuleOfFive>  (435) 
0

>  <i_qp_RuleOfThree>  (435) 
0

>  <i_sd_BIOSOLVEIT.INFINISEE\_REAGENT1\_NAME>  (435) 
21531152

>  <i_sd_BIOSOLVEIT.INFINISEE\_REAGENT2\_NAME>  (435) 
24720860

>  <i_sd_BIOSOLVEIT.INFINISEE\_RESULT\_RANK>  (435) 
40549

>  <i_sd_version>  (435) 
0

>  <b_lp_Chiralities_Consistent>  (435) 
1

>  <b_sd_chiral_flag>  (435) 
0

>  <canonical_id>  (435) 
ATP-HTVS-4503BC70E7F0

>  <compound_code>  (435) 
38561

>  <title>  (435) 
m_270004bbb____21531152____24720860

>  <variant>  (435) 
38561-4

>  <source_file>  (435) 
运行/运行/ATP-VSW/ATP-VSW-DOCK_HTVS_1-001_lib/ATP-VSW-DOCK_HTVS_1-001_lib

>  <canonical_smiles>  (435) 
Cc1ccc(F)c([C@H](O)C[NH2+]Cc2nc3ccccc3n2Cc2ccccc2)c1

>  <scaffold>  (435) 
c1ccc(CC[NH2+]Cc2nc3ccccc3n2Cc2ccccc2)cc1

>  <molecular_formula>  (435) 
C24H25FN3O+

$$$$
ATP-HTVS-450A55DE989E
     RDKit          3D

 61 64  0  0  0  0  0  0  0  0999 V2000
  194.8546  186.0461  160.8635 N   0  0  0  0  0  0  0  0  0  0  0  0
  195.2856  185.3886  160.0136 C   0  0  0  0  0  0  0  0  0  0  0  0
  195.8313  184.5664  158.9460 C   0  0  0  0  0  0  0  0  0  0  0  0
  195.3993  183.2370  158.7766 C   0  0  0  0  0  0  0  0  0  0  0  0
  195.9241  182.4430  157.7410 C   0  0  0  0  0  0  0  0  0  0  0  0
  196.8928  182.9591  156.8507 C   0  0  0  0  0  0  0  0  0  0  0  0
  197.3244  184.2973  157.0221 C   0  0  0  0  0  0  0  0  0  0  0  0
  196.7961  185.0951  158.0642 C   0  0  0  0  0  0  0  0  0  0  0  0
  197.4400  182.1109  155.6953 C   0  0  1  0  0  0  0  0  0  0  0  0
  197.5961  180.7069  156.0515 N   0  0  0  0  0  0  0  0  0  0  0  0
  198.5868  179.9286  155.4955 C   0  0  0  0  0  0  0  0  0  0  0  0
  199.4903  179.4589  156.3410 N   0  0  0  0  0  0  0  0  0  0  0  0
  200.5206  178.7549  155.8440 C   0  0  0  0  0  0  0  0  0  0  0  0
  201.5338  178.3531  156.7218 N   0  0  0  0  0  0  0  0  0  0  0  0
  201.7798  179.1425  157.9175 C   0  0  1  0  0  0  0  0  0  0  0  0
  202.2602  180.5602  157.6516 C   0  0  0  0  0  0  0  0  0  0  0  0
  201.3788  181.6406  157.8395 C   0  0  0  0  0  0  0  0  0  0  0  0
  201.8217  182.9663  157.6741 C   0  0  0  0  0  0  0  0  0  0  0  0
  200.9324  184.0086  157.9676 N   0  0  0  0  0  0  0  0  0  0  0  0
  201.4211  185.0294  158.8864 C   0  0  2  0  0  0  0  0  0  0  0  0
  201.6108  184.4557  160.3014 C   0  0  2  0  0  0  0  0  0  0  0  0
  200.4746  186.2323  158.8961 C   0  0  2  0  0  0  0  0  0  0  0  0
  203.1534  183.2040  157.2642 C   0  0  0  0  0  0  0  0  0  0  0  0
  204.0290  182.1254  157.0382 C   0  0  0  0  0  0  0  0  0  0  0  0
  203.5848  180.8050  157.2337 C   0  0  0  0  0  0  0  0  0  0  0  0
  200.5991  178.4609  154.4634 C   0  0  0  0  0  0  0  0  0  0  0  0
  199.5686  179.0022  153.6499 C   0  0  0  0  0  0  0  0  0  0  0  0
  198.5885  179.7628  154.1734 N   0  0  0  0  0  0  0  0  0  0  0  0
  199.5920  178.7395  152.2638 C   0  0  0  0  0  0  0  0  0  0  0  0
  200.6196  177.9655  151.6937 C   0  0  0  0  0  0  0  0  0  0  0  0
  201.6423  177.4386  152.5049 C   0  0  0  0  0  0  0  0  0  0  0  0
  201.6295  177.6826  153.8915 C   0  0  0  0  0  0  0  0  0  0  0  0
  196.5516  182.2453  154.4502 C   0  0  2  0  0  0  0  0  0  0  0  0
  194.6516  182.8170  159.4324 H   0  0  0  0  0  0  0  0  0  0  0  0
  195.5520  181.4345  157.6138 H   0  0  0  0  0  0  0  0  0  0  0  0
  198.0495  184.7270  156.3435 H   0  0  0  0  0  0  0  0  0  0  0  0
  197.1300  186.1163  158.1739 H   0  0  0  0  0  0  0  0  0  0  0  0
  198.4285  182.5075  155.4577 H   0  0  0  0  0  0  0  0  0  0  0  0
  197.4181  180.4901  157.0258 H   0  0  0  0  0  0  0  0  0  0  0  0
  202.3676  177.9081  156.3471 H   0  0  0  0  0  0  0  0  0  0  0  0
  200.8805  179.1304  158.5271 H   0  0  0  0  0  0  0  0  0  0  0  0
  202.5315  178.6516  158.5234 H   0  0  0  0  0  0  0  0  0  0  0  0
  200.3620  181.4391  158.1357 H   0  0  0  0  0  0  0  0  0  0  0  0
  199.9850  183.7029  158.1505 H   0  0  0  0  0  0  0  0  0  0  0  0
  202.3855  185.3965  158.5373 H   0  0  0  0  0  0  0  0  0  0  0  0
  201.9679  185.2195  160.9922 H   0  0  0  0  0  0  0  0  0  0  0  0
  202.3423  183.6464  160.3097 H   0  0  0  0  0  0  0  0  0  0  0  0
  200.6767  184.0567  160.6979 H   0  0  0  0  0  0  0  0  0  0  0  0
  200.8566  187.0175  159.5476 H   0  0  0  0  0  0  0  0  0  0  0  0
  199.4822  185.9582  159.2518 H   0  0  0  0  0  0  0  0  0  0  0  0
  200.3727  186.6568  157.8971 H   0  0  0  0  0  0  0  0  0  0  0  0
  203.5131  184.2099  157.1125 H   0  0  0  0  0  0  0  0  0  0  0  0
  205.0500  182.3184  156.7326 H   0  0  0  0  0  0  0  0  0  0  0  0
  204.2699  179.9823  157.0735 H   0  0  0  0  0  0  0  0  0  0  0  0
  198.8055  179.1454  151.6438 H   0  0  0  0  0  0  0  0  0  0  0  0
  200.6320  177.7862  150.6241 H   0  0  0  0  0  0  0  0  0  0  0  0
  202.4368  176.8553  152.0605 H   0  0  0  0  0  0  0  0  0  0  0  0
  202.4204  177.2636  154.4929 H   0  0  0  0  0  0  0  0  0  0  0  0
  196.4269  183.2829  154.1493 H   0  0  0  0  0  0  0  0  0  0  0  0
  195.5722  181.8362  154.6572 H   0  0  0  0  0  0  0  0  0  0  0  0
  196.9494  181.7134  153.5909 H   0  0  0  0  0  0  0  0  0  0  0  0
  1  2  3  0
  2  3  1  0
  3  4  1  0
  3  8  2  0
  4  5  2  0
  4 34  1  0
  5  6  1  0
  5 35  1  0
  6  7  2  0
  6  9  1  0
  7  8  1  0
  7 36  1  0
  8 37  1  0
  9 10  1  0
  9 33  1  0
  9 38  1  6
 10 11  1  0
 10 39  1  0
 11 12  2  0
 11 28  1  0
 12 13  1  0
 13 14  1  0
 13 26  2  0
 14 15  1  0
 14 40  1  0
 15 16  1  0
 15 41  1  1
 15 42  1  0
 16 17  1  0
 16 25  2  0
 17 18  2  0
 17 43  1  0
 18 19  1  0
 18 23  1  0
 19 20  1  0
 19 44  1  0
 20 21  1  0
 20 22  1  0
 20 45  1  6
 21 46  1  1
 21 47  1  0
 21 48  1  0
 22 49  1  1
 22 50  1  0
 22 51  1  0
 23 24  2  0
 23 52  1  0
 24 25  1  0
 24 53  1  0
 25 54  1  0
 26 27  1  0
 26 32  1  0
 27 28  2  0
 27 29  1  0
 29 30  2  0
 29 55  1  0
 30 31  1  0
 30 56  1  0
 31 32  2  0
 31 57  1  0
 32 58  1  0
 33 59  1  6
 33 60  1  0
 33 61  1  0
M  END
>  <s_epik_cmdline>  (436) 
J2VwaWtfcHl0aG9uJywgJy1waCcsICc3LjAwMDAwMCcsICctcGh0JywgJzIuMDAwMDAwJywgJy1tcycsICcxNicsICctdG4nLCAnOCcsICctbWEnLCAnMjAwJywgJy1pbWFlJywgJzxpbmZpbGUubWFlPicsICctb21hZScsICc8b3V0ZmlsZS5tYWU+Jw==

>  <s_epik_input>  (436) 
TiNDYzFbY0hdW2NIXWMoW2NIXVtjSF0xKVtDQEhdKFtDSDNdKVtOSF1jKG5jKGMyMylbY0hdW2NIXVtjSF1bY0hdMyluYzJbTkhdW0NIMl1jNFtjSF1jKFtOSF1bQ0hdKFtDSDNdKVtDSDNdKVtjSF1bY0hdW2NIXTQ=

>  <s_i_glide_gridfile>  (436) 
ATP-Grid

>  <s_lp_Force_Field>  (436) 
OPLS_2005

>  <s_lp_Variant>  (436) 
m_282030aaa____21928180____22360182____21960652-6

>  <s_lp_label>  (436) 
1530_sdstereoexpander_2_neutralizer_1_epik_3_stereoizer_1

>  <s_m_source_file>  (436) 
ATP-VSW-LIGPREP-002-in.maegz

>  <s_sd_BIOSOLVEIT.INFINISEE\_QUERY\_NAME>  (436) 
Ref-Lig

>  <s_sd_BIOSOLVEIT.INFINISEE\_QUERY\_SMILES>  (436) 
S(c1nc2c(cc1C[NH2+]Cc3ccc(cc3)C[NH+](C)C)cccc2)Cc4ccccc4

>  <s_sd_BIOSOLVEIT.INFINISEE\_REACTION\_NAME>  (436) 
m_282030aaa

>  <s_sd_BIOSOLVEIT.INFINISEE\_REAGENT1\_SMILES>  (436) 
[R1*]NC(c1ccc(C#N)cc1)C

>  <s_sd_BIOSOLVEIT.INFINISEE\_REAGENT2\_SMILES>  (436) 
[R2*]c1nc([R1*])c2c(n1)cccc2

>  <s_sd_BIOSOLVEIT.INFINISEE\_REAGENT3\_SMILES>  (436) 
[R2*]NCc1cc(NC(C)C)ccc1

>  <s_sd_BIOSOLVEIT.INFINISEE\_SPACE>  (436) 
REALSpace_44bn_2023-08

>  <s_vsw_compound_code>  (436) 
48930

>  <s_vsw_variant>  (436) 
48930-6

>  <r_epik_Charging_Adjusted_Penalty>  (436) 
2.2695177152366299

>  <r_epik_Ionization_Penalty>  (436) 
2.4759000000000002

>  <r_epik_Ionization_Penalty_Charging>  (436) 
0

>  <r_epik_Ionization_Penalty_Neutral>  (436) 
2.4759000000000002

>  <r_epik_State_Penalty>  (436) 
2.2694999999999999

>  <r_i_docking_score>  (436) 
-0.48521758218532501

>  <r_i_glide_ecoul>  (436) 
-3.7530686855316202

>  <r_i_glide_eff_state_penalty>  (436) 
2.2694999999999999

>  <r_i_glide_einternal>  (436) 
5.9882984161376998

>  <r_i_glide_emodel>  (436) 
-36.827657623369099

>  <r_i_glide_energy>  (436) 
-33.896083593368502

>  <r_i_glide_erotb>  (436) 
0.73217917209655603

>  <r_i_glide_esite>  (436) 
-0.13859854524364601

>  <r_i_glide_evdw>  (436) 
-30.1430149078369

>  <r_i_glide_gscore>  (436) 
-2.75471758218533

>  <r_i_glide_hbond>  (436) 
-0.13415976258512199

>  <r_i_glide_ligand_efficiency>  (436) 
-0.014703563096524999

>  <r_i_glide_ligand_efficiency_ln>  (436) 
-0.107909877955832

>  <r_i_glide_ligand_efficiency_sa>  (436) 
-0.047162183350396097

>  <r_i_glide_lipo>  (436) 
-0.35854401703272998

>  <r_i_glide_metal>  (436) 
-0

>  <r_i_glide_rewards>  (436) 
-0.78548338119879502

>  <r_lp_Energy>  (436) 
9.2048480000000001

>  <r_qp_ACxDN^.5/SA>  (436) 
0.0148212

>  <r_qp_CIQPlogS>  (436) 
-8.0289999999999999

>  <r_qp_EA(eV)>  (436) 
0.95899999999999996

>  <r_qp_FISA>  (436) 
107.76600000000001

>  <r_qp_FOSA>  (436) 
218.19200000000001

>  <r_qp_IP(eV)>  (436) 
8.3979999999999997

>  <r_qp_Jm>  (436) 
0.061020236860633598

>  <r_qp_PISA>  (436) 
316.78800000000001

>  <r_qp_PSA>  (436) 
80.195999999999998

>  <r_qp_PercentHumanOralAbsorption>  (436) 
100

>  <r_qp_QPPCaco>  (436) 
941.79100000000005

>  <r_qp_QPPMDCK>  (436) 
463.65800000000002

>  <r_qp_QPlogBB>  (436) 
-0.871

>  <r_qp_QPlogHERG>  (436) 
-4.7000000000000002

>  <r_qp_QPlogKhsa>  (436) 
0.63500000000000001

>  <r_qp_QPlogKp>  (436) 
-1.526

>  <r_qp_QPlogPC16>  (436) 
14.007999999999999

>  <r_qp_QPlogPo/w>  (436) 
4.5

>  <r_qp_QPlogPoct>  (436) 
22.119

>  <r_qp_QPlogPw>  (436) 
11.98

>  <r_qp_QPlogS>  (436) 
-5.3289999999999997

>  <r_qp_QPpolrz>  (436) 
43.234999999999999

>  <r_qp_SASA>  (436) 
642.74699999999996

>  <r_qp_SAamideO>  (436) 
0

>  <r_qp_SAfluorine>  (436) 
0

>  <r_qp_WPSA>  (436) 
0

>  <r_qp_accptHB>  (436) 
5.5

>  <r_qp_dip^2/V>  (436) 
0.021496700000000001

>  <r_qp_dipole>  (436) 
5.2919999999999998

>  <r_qp_donorHB>  (436) 
3

>  <r_qp_glob>  (436) 
0.89756639999999999

>  <r_qp_mol_MW>  (436) 
436.55799999999999

>  <r_qp_volume>  (436) 
1302.904

>  <r_sd_BIOSOLVEIT.INFINISEE\_FTREES\_SIMILARITY>  (436) 
0.90700000000000003

>  <r_sd_BIOSOLVEIT.LOGP>  (436) 
6.1069800000000001

>  <r_sd_BIOSOLVEIT.MOLECULAR\_WEIGHT>  (436) 
436.56

>  <r_sd_BIOSOLVEIT.TPSA>  (436) 
85.659999999999997

>  <i_epik_Tot_Q>  (436) 
0

>  <i_epik_Tot_abs_Q>  (436) 
0

>  <i_f3d_flags>  (436) 
0

>  <i_i_glide_confnum>  (436) 
8

>  <i_i_glide_lignum>  (436) 
533

>  <i_i_glide_posenum>  (436) 
16

>  <i_i_glide_rotatable_bonds>  (436) 
8

>  <i_lp_mmshare_version>  (436) 
65135

>  <i_m_ct_format>  (436) 
2

>  <i_m_source_file_index>  (436) 
1530

>  <i_qp_#NandO>  (436) 
6

>  <i_qp_#acid>  (436) 
0

>  <i_qp_#amide>  (436) 
0

>  <i_qp_#amidine>  (436) 
0

>  <i_qp_#amine>  (436) 
0

>  <i_qp_#in34>  (436) 
0

>  <i_qp_#in56>  (436) 
22

>  <i_qp_#metab>  (436) 
5

>  <i_qp_#nonHatm>  (436) 
33

>  <i_qp_#noncon>  (436) 
0

>  <i_qp_#ringatoms>  (436) 
22

>  <i_qp_#rotor>  (436) 
9

>  <i_qp_#rtvFG>  (436) 
0

>  <i_qp_#stars>  (436) 
0

>  <i_qp_CNS>  (436) 
-1

>  <i_qp_HumanOralAbsorption>  (436) 
3

>  <i_qp_RuleOfFive>  (436) 
0

>  <i_qp_RuleOfThree>  (436) 
0

>  <i_sd_BIOSOLVEIT.INFINISEE\_REAGENT1\_NAME>  (436) 
21928180

>  <i_sd_BIOSOLVEIT.INFINISEE\_REAGENT2\_NAME>  (436) 
22360182

>  <i_sd_BIOSOLVEIT.INFINISEE\_REAGENT3\_NAME>  (436) 
21960652

>  <i_sd_BIOSOLVEIT.INFINISEE\_RESULT\_RANK>  (436) 
61214

>  <i_sd_version>  (436) 
0

>  <b_lp_Chiralities_Consistent>  (436) 
1

>  <b_sd_chiral_flag>  (436) 
0

>  <canonical_id>  (436) 
ATP-HTVS-450A55DE989E

>  <compound_code>  (436) 
48930

>  <title>  (436) 
m_282030aaa____21928180____22360182____21960652

>  <variant>  (436) 
48930-6

>  <source_file>  (436) 
运行/运行/ATP-VSW/ATP-VSW-DOCK_HTVS_1-002_lib.maegz

>  <canonical_smiles>  (436) 
CC(C)Nc1cccc(CNc2nc(N[C@@H](C)c3ccc(C#N)cc3)nc3ccccc23)c1

>  <scaffold>  (436) 
c1ccc(CNc2nc(NCc3ccccc3)c3ccccc3n2)cc1

>  <molecular_formula>  (436) 
C27H28N6

$$$$
ATP-HTVS-458F3EB1794A
     RDKit          3D

 61 64  0  0  0  0  0  0  0  0999 V2000
  198.3898  177.2495  146.7475 F   0  0  0  0  0  0  0  0  0  0  0  0
  198.4698  177.2803  148.0995 C   0  0  0  0  0  0  0  0  0  0  0  0
  198.6926  176.0901  148.8135 C   0  0  0  0  0  0  0  0  0  0  0  0
  198.8432  174.9237  148.1471 F   0  0  0  0  0  0  0  0  0  0  0  0
  198.7648  176.1172  150.2211 C   0  0  0  0  0  0  0  0  0  0  0  0
  198.6321  177.3406  150.9079 C   0  0  0  0  0  0  0  0  0  0  0  0
  198.4195  178.5411  150.1983 C   0  0  0  0  0  0  0  0  0  0  0  0
  198.3324  178.5016  148.7865 C   0  0  0  0  0  0  0  0  0  0  0  0
  198.2787  179.8099  150.9161 C   0  0  0  0  0  0  0  0  0  0  0  0
  198.8838  180.8946  150.4718 N   0  0  0  0  0  0  0  0  0  0  0  0
  198.5115  181.8921  151.3056 N   0  0  0  0  0  0  0  0  0  0  0  0
  198.9924  183.2385  151.1150 C   0  0  0  0  0  0  0  0  0  0  0  0
  200.2039  183.4047  151.2541 O   0  0  0  0  0  0  0  0  0  0  0  0
  198.0541  184.4052  150.6786 C   0  0  2  0  0  0  0  0  0  0  0  0
  196.6604  184.0552  150.8945 N   0  0  0  0  0  0  0  0  0  0  0  0
  198.3406  184.7558  149.2040 C   0  0  0  0  0  0  0  0  0  0  0  0
  199.5556  185.3863  148.8371 C   0  0  0  0  0  0  0  0  0  0  0  0
  199.8219  185.7259  147.4972 C   0  0  0  0  0  0  0  0  0  0  0  0
  198.8810  185.4361  146.4948 C   0  0  0  0  0  0  0  0  0  0  0  0
  197.6711  184.8089  146.8380 C   0  0  0  0  0  0  0  0  0  0  0  0
  197.4025  184.4701  148.1773 C   0  0  0  0  0  0  0  0  0  0  0  0
  198.2561  185.6486  151.5761 C   0  0  2  0  0  0  0  0  0  0  0  0
  197.7133  181.4186  152.3426 C   0  0  0  0  0  0  0  0  0  0  0  0
  197.5391  180.0812  152.1043 C   0  0  0  0  0  0  0  0  0  0  0  0
  197.1743  182.2649  153.4683 C   0  0  1  0  0  0  0  0  0  0  0  0
  196.9173  181.4990  154.7778 C   0  0  1  0  0  0  0  0  0  0  0  0
  196.3524  182.3745  155.8206 N   0  0  1  0  0  0  0  0  0  0  0  0
  196.2196  181.7648  157.1444 C   0  0  1  0  0  0  0  0  0  0  0  0
  195.9269  182.8243  158.1859 C   0  0  0  0  0  0  0  0  0  0  0  0
  194.5957  183.1203  158.5345 C   0  0  0  0  0  0  0  0  0  0  0  0
  194.3183  184.1102  159.4972 C   0  0  0  0  0  0  0  0  0  0  0  0
  195.3697  184.8001  160.1223 C   0  0  0  0  0  0  0  0  0  0  0  0
  196.7030  184.5114  159.7768 C   0  0  0  0  0  0  0  0  0  0  0  0
  196.9847  183.5252  158.8094 C   0  0  0  0  0  0  0  0  0  0  0  0
  196.6351  183.0908  151.1916 H   0  0  0  0  0  0  0  0  0  0  0  0
  196.2985  184.5967  151.6642 H   0  0  0  0  0  0  0  0  0  0  0  0
  196.9161  183.2048  155.9039 H   0  0  0  0  0  0  0  0  0  0  0  0
  198.9387  175.1997  150.7627 H   0  0  0  0  0  0  0  0  0  0  0  0
  198.7146  177.3660  151.9856 H   0  0  0  0  0  0  0  0  0  0  0  0
  198.1647  179.4098  148.2281 H   0  0  0  0  0  0  0  0  0  0  0  0
  200.3042  185.6189  149.5792 H   0  0  0  0  0  0  0  0  0  0  0  0
  200.7515  186.2105  147.2403 H   0  0  0  0  0  0  0  0  0  0  0  0
  199.0903  185.6971  145.4677 H   0  0  0  0  0  0  0  0  0  0  0  0
  196.9384  184.5946  146.0737 H   0  0  0  0  0  0  0  0  0  0  0  0
  196.4571  183.9985  148.4021 H   0  0  0  0  0  0  0  0  0  0  0  0
  199.2715  186.0336  151.5221 H   0  0  0  0  0  0  0  0  0  0  0  0
  198.0611  185.4445  152.6300 H   0  0  0  0  0  0  0  0  0  0  0  0
  197.5999  186.4606  151.2633 H   0  0  0  0  0  0  0  0  0  0  0  0
  196.9590  179.3841  152.6873 H   0  0  0  0  0  0  0  0  0  0  0  0
  197.8436  183.1043  153.6701 H   0  0  0  0  0  0  0  0  0  0  0  0
  196.2319  182.6983  153.1452 H   0  0  0  0  0  0  0  0  0  0  0  0
  196.2239  180.6742  154.6186 H   0  0  0  0  0  0  0  0  0  0  0  0
  197.8608  181.0719  155.1248 H   0  0  0  0  0  0  0  0  0  0  0  0
  195.4074  181.0495  157.0886 H   0  0  0  0  0  0  0  0  0  0  0  0
  197.1345  181.2341  157.4217 H   0  0  0  0  0  0  0  0  0  0  0  0
  193.7819  182.5882  158.0625 H   0  0  0  0  0  0  0  0  0  0  0  0
  193.2920  184.3250  159.7575 H   0  0  0  0  0  0  0  0  0  0  0  0
  195.1503  185.5540  160.8714 H   0  0  0  0  0  0  0  0  0  0  0  0
  197.5084  185.0432  160.2630 H   0  0  0  0  0  0  0  0  0  0  0  0
  198.0119  183.3039  158.5665 H   0  0  0  0  0  0  0  0  0  0  0  0
  195.3964  182.6333  155.5663 H   0  0  0  0  0  0  0  0  0  0  0  0
  1  2  1  0
  2  3  2  0
  2  8  1  0
  3  4  1  0
  3  5  1  0
  5  6  2  0
  5 38  1  0
  6  7  1  0
  6 39  1  0
  7  8  2  0
  7  9  1  0
  8 40  1  0
  9 10  2  0
  9 24  1  0
 10 11  1  0
 11 12  1  0
 11 23  1  0
 12 13  2  0
 12 14  1  0
 14 15  1  6
 14 16  1  0
 14 22  1  0
 15 35  1  0
 15 36  1  0
 16 17  2  0
 16 21  1  0
 17 18  1  0
 17 41  1  0
 18 19  2  0
 18 42  1  0
 19 20  1  0
 19 43  1  0
 20 21  2  0
 20 44  1  0
 21 45  1  0
 22 46  1  1
 22 47  1  0
 22 48  1  0
 23 24  2  0
 23 25  1  0
 24 49  1  0
 25 26  1  0
 25 50  1  1
 25 51  1  0
 26 27  1  0
 26 52  1  6
 26 53  1  0
 27 28  1  0
 27 37  1  1
 27 61  1  0
 28 29  1  0
 28 54  1  6
 28 55  1  0
 29 30  2  0
 29 34  1  0
 30 31  1  0
 30 56  1  0
 31 32  2  0
 31 57  1  0
 32 33  1  0
 32 58  1  0
 33 34  2  0
 33 59  1  0
 34 60  1  0
M  CHG  1  27   1
M  END
>  <s_epik_cmdline>  (437) 
J2VwaWtfcHl0aG9uJywgJy1waCcsICc3LjAwMDAwMCcsICctcGh0JywgJzIuMDAwMDAwJywgJy1tcycsICcxNicsICctdG4nLCAnOCcsICctbWEnLCAnMjAwJywgJy1pbWFlJywgJzxpbmZpbGUubWFlPicsICctb21hZScsICc8b3V0ZmlsZS5tYWU+Jw==

>  <s_epik_input>  (437) 
RmMxYyhGKVtjSF1bY0hdYyhbY0hdMSktYzJubihDKD1PKVtDQEBdKFtOSDJdKShbQ0gzXSljM1tjSF1bY0hdW2NIXVtjSF1bY0hdMyljKFtjSF0yKVtDSDJdW0NIMl1bTkhdW0NIMl1jNFtjSF1bY0hdW2NIXVtjSF1bY0hdNA==

>  <s_i_glide_gridfile>  (437) 
ATP-Grid

>  <s_lp_Force_Field>  (437) 
OPLS_2005

>  <s_lp_Variant>  (437) 
Shen____49239300____722046____40180766-1

>  <s_lp_label>  (437) 
647_sdstereoexpander_1_neutralizer_1_epik_1_stereoizer_1

>  <s_m_source_file>  (437) 
ATP-VSW-LIGPREP-002-in.maegz

>  <s_sd_BIOSOLVEIT.INFINISEE\_QUERY\_NAME>  (437) 
Ref-Lig

>  <s_sd_BIOSOLVEIT.INFINISEE\_QUERY\_SMILES>  (437) 
S(c1nc2c(cc1C[NH2+]Cc3ccc(cc3)C[NH+](C)C)cccc2)Cc4ccccc4

>  <s_sd_BIOSOLVEIT.INFINISEE\_REACTION\_NAME>  (437) 
Shen

>  <s_sd_BIOSOLVEIT.INFINISEE\_REAGENT1\_SMILES>  (437) 
O=C(CCNCc1ccccc1)C

>  <s_sd_BIOSOLVEIT.INFINISEE\_REAGENT2\_SMILES>  (437) 
Fc1c(F)ccc(c1)C(=O)OCC

>  <s_sd_BIOSOLVEIT.INFINISEE\_REAGENT3\_SMILES>  (437) 
O=C(NN)C(N)(c1ccccc1)C

>  <s_sd_BIOSOLVEIT.INFINISEE\_SPACE>  (437) 
KnowledgeSpace_290tr_2019-05

>  <s_vsw_compound_code>  (437) 
20674

>  <s_vsw_variant>  (437) 
20674-1

>  <r_epik_Charging_Adjusted_Penalty>  (437) 
0.065241008616714599

>  <r_epik_Ionization_Penalty>  (437) 
0.035999999999999997

>  <r_epik_Ionization_Penalty_Charging>  (437) 
0.0293

>  <r_epik_Ionization_Penalty_Neutral>  (437) 
0.0067000000000000002

>  <r_epik_State_Penalty>  (437) 
0.035999999999999997

>  <r_i_docking_score>  (437) 
-5.6608194202415403

>  <r_i_glide_ecoul>  (437) 
-8.9296445846557599

>  <r_i_glide_eff_state_penalty>  (437) 
0.035999999999999997

>  <r_i_glide_einternal>  (437) 
18.164241790771499

>  <r_i_glide_emodel>  (437) 
-60.413031355010197

>  <r_i_glide_energy>  (437) 
-46.965006828308098

>  <r_i_glide_erotb>  (437) 
0.75629205684314305

>  <r_i_glide_esite>  (437) 
-0.093106591734599703

>  <r_i_glide_evdw>  (437) 
-38.035362243652301

>  <r_i_glide_gscore>  (437) 
-5.6968194202415399

>  <r_i_glide_hbond>  (437) 
-0.20000000000000001

>  <r_i_glide_ligand_efficiency>  (437) 
-0.16649468883063401

>  <r_i_glide_ligand_efficiency_ln>  (437) 
-1.25063379053784

>  <r_i_glide_ligand_efficiency_sa>  (437) 
-0.53937815815172896

>  <r_i_glide_lipo>  (437) 
-2.4882792149150599

>  <r_i_glide_metal>  (437) 
-0

>  <r_i_glide_rewards>  (437) 
-0.43051087055403803

>  <r_lp_Energy>  (437) 
29.414845

>  <r_qp_ACxDN^.5/SA>  (437) 
0.013340100000000001

>  <r_qp_CIQPlogS>  (437) 
-5.2880000000000003

>  <r_qp_EA(eV)>  (437) 
0.98399999999999999

>  <r_qp_FISA>  (437) 
62.097999999999999

>  <r_qp_FOSA>  (437) 
173.93799999999999

>  <r_qp_IP(eV)>  (437) 
9.3640000000000008

>  <r_qp_Jm>  (437) 
0.00043187667479959498

>  <r_qp_PISA>  (437) 
454.91899999999998

>  <r_qp_PSA>  (437) 
64.677000000000007

>  <r_qp_PercentHumanOralAbsorption>  (437) 
94.834999999999994

>  <r_qp_QPPCaco>  (437) 
158.78899999999999

>  <r_qp_QPPMDCK>  (437) 
251.62299999999999

>  <r_qp_QPlogBB>  (437) 
0.436

>  <r_qp_QPlogHERG>  (437) 
-8.5050000000000008

>  <r_qp_QPlogKhsa>  (437) 
0.88800000000000001

>  <r_qp_QPlogKp>  (437) 
-4.4189999999999996

>  <r_qp_QPlogPC16>  (437) 
15.449999999999999

>  <r_qp_QPlogPo/w>  (437) 
4.867

>  <r_qp_QPlogPoct>  (437) 
24.93

>  <r_qp_QPlogPw>  (437) 
13.680999999999999

>  <r_qp_QPlogS>  (437) 
-4.609

>  <r_qp_QPpolrz>  (437) 
50.822000000000003

>  <r_qp_SASA>  (437) 
779.02700000000004

>  <r_qp_SAamideO>  (437) 
0

>  <r_qp_SAfluorine>  (437) 
88.072000000000003

>  <r_qp_WPSA>  (437) 
88.072000000000003

>  <r_qp_accptHB>  (437) 
6

>  <r_qp_dip^2/V>  (437) 
0.0062085999999999999

>  <r_qp_dipole>  (437) 
2.9940000000000002

>  <r_qp_donorHB>  (437) 
3

>  <r_qp_glob>  (437) 
0.79290099999999997

>  <r_qp_mol_MW>  (437) 
460.52499999999998

>  <r_qp_volume>  (437) 
1443.4760000000001

>  <r_sd_BIOSOLVEIT.INFINISEE\_FTREES\_SIMILARITY>  (437) 
0.91200000000000003

>  <r_sd_BIOSOLVEIT.LOGP>  (437) 
2.9319000000000002

>  <r_sd_BIOSOLVEIT.MOLECULAR\_WEIGHT>  (437) 
462.541

>  <r_sd_BIOSOLVEIT.TPSA>  (437) 
79.140000000000001

>  <i_epik_Tot_Q>  (437) 
1

>  <i_epik_Tot_abs_Q>  (437) 
1

>  <i_f3d_flags>  (437) 
0

>  <i_i_glide_confnum>  (437) 
2

>  <i_i_glide_lignum>  (437) 
198

>  <i_i_glide_posenum>  (437) 
12

>  <i_i_glide_rotatable_bonds>  (437) 
9

>  <i_lp_mmshare_version>  (437) 
65135

>  <i_m_ct_format>  (437) 
2

>  <i_m_source_file_index>  (437) 
647

>  <i_qp_#NandO>  (437) 
5

>  <i_qp_#acid>  (437) 
0

>  <i_qp_#amide>  (437) 
0

>  <i_qp_#amidine>  (437) 
0

>  <i_qp_#amine>  (437) 
2

>  <i_qp_#in34>  (437) 
0

>  <i_qp_#in56>  (437) 
23

>  <i_qp_#metab>  (437) 
5

>  <i_qp_#nonHatm>  (437) 
34

>  <i_qp_#noncon>  (437) 
0

>  <i_qp_#ringatoms>  (437) 
23

>  <i_qp_#rotor>  (437) 
8

>  <i_qp_#rtvFG>  (437) 
0

>  <i_qp_#stars>  (437) 
1

>  <i_qp_CNS>  (437) 
1

>  <i_qp_HumanOralAbsorption>  (437) 
3

>  <i_qp_RuleOfFive>  (437) 
0

>  <i_qp_RuleOfThree>  (437) 
0

>  <i_sd_BIOSOLVEIT.INFINISEE\_REAGENT1\_NAME>  (437) 
49239300

>  <i_sd_BIOSOLVEIT.INFINISEE\_REAGENT2\_NAME>  (437) 
722046

>  <i_sd_BIOSOLVEIT.INFINISEE\_REAGENT3\_NAME>  (437) 
40180766

>  <i_sd_BIOSOLVEIT.INFINISEE\_RESULT\_RANK>  (437) 
36031

>  <i_sd_version>  (437) 
0

>  <b_lp_Chiralities_Consistent>  (437) 
1

>  <b_sd_chiral_flag>  (437) 
0

>  <canonical_id>  (437) 
ATP-HTVS-458F3EB1794A

>  <compound_code>  (437) 
20674

>  <title>  (437) 
Shen____49239300____722046____40180766

>  <variant>  (437) 
20674-1

>  <source_file>  (437) 
运行/运行/ATP-VSW/ATP-VSW-DOCK_HTVS_1-002_lib.maegz

>  <canonical_smiles>  (437) 
C[C@](N)(C(=O)n1nc(-c2ccc(F)c(F)c2)cc1CC[NH2+]Cc1ccccc1)c1ccccc1

>  <scaffold>  (437) 
O=C(Cc1ccccc1)n1nc(-c2ccccc2)cc1CC[NH2+]Cc1ccccc1

>  <molecular_formula>  (437) 
C27H27F2N4O+

$$$$
ATP-HTVS-45908092458F
     RDKit          3D

 68 71  0  0  0  0  0  0  0  0999 V2000
  197.3018  184.8357  156.2798 O   0  0  0  0  0  0  0  0  0  0  0  0
  198.2215  184.5502  157.0345 C   0  0  0  0  0  0  0  0  0  0  0  0
  198.6367  185.3263  158.0364 N   0  0  0  0  0  0  0  0  0  0  0  0
  198.0269  186.5986  158.4244 C   0  0  1  0  0  0  0  0  0  0  0  0
  196.7943  186.4623  159.3271 C   0  0  0  0  0  0  0  0  0  0  0  0
  196.4548  187.5251  160.1938 C   0  0  0  0  0  0  0  0  0  0  0  0
  195.3162  187.4352  161.0233 C   0  0  0  0  0  0  0  0  0  0  0  0
  194.4936  186.2954  160.9795 C   0  0  0  0  0  0  0  0  0  0  0  0
  194.8249  185.2321  160.1200 C   0  0  0  0  0  0  0  0  0  0  0  0
  195.9672  185.3100  159.2959 C   0  0  0  0  0  0  0  0  0  0  0  0
  198.9415  183.2014  156.9076 C   0  0  1  0  0  0  0  0  0  0  0  0
  198.2220  182.3231  156.0004 N   0  0  0  0  0  0  0  0  0  0  0  0
  198.5912  180.9742  155.8504 C   0  0  0  0  0  0  0  0  0  0  0  0
  199.5965  180.4994  156.6255 N   0  0  0  0  0  0  0  0  0  0  0  0
  199.9480  179.2051  156.4916 C   0  0  0  0  0  0  0  0  0  0  0  0
  199.2900  178.3649  155.5472 C   0  0  0  0  0  0  0  0  0  0  0  0
  198.3222  178.8589  154.7465 N   0  0  0  0  0  0  0  0  0  0  0  0
  197.9578  180.1553  154.8927 C   0  0  0  0  0  0  0  0  0  0  0  0
  196.9698  180.6630  154.0304 N   0  0  0  0  0  0  0  0  0  0  0  0
  196.8695  180.1192  152.6866 C   0  0  1  0  0  0  0  0  0  0  0  0
  198.0105  180.5920  151.7680 C   0  0  1  0  0  0  0  0  0  0  0  0
  198.0578  179.7939  150.4820 C   0  0  0  0  0  0  0  0  0  0  0  0
  199.2702  179.2012  150.0852 C   0  0  0  0  0  0  0  0  0  0  0  0
  199.3178  178.3685  148.9428 C   0  0  0  0  0  0  0  0  0  0  0  0
  198.1611  178.1880  148.1501 C   0  0  0  0  0  0  0  0  0  0  0  0
  196.9533  178.8090  148.5401 C   0  0  0  0  0  0  0  0  0  0  0  0
  196.8975  179.6103  149.7006 C   0  0  0  0  0  0  0  0  0  0  0  0
  198.2193  177.3183  146.8969 C   0  0  1  0  0  0  0  0  0  0  0  0
  198.8630  177.9706  145.7163 N   0  0  1  0  0  0  0  0  0  0  0  0
  198.0725  179.0861  145.1658 C   0  0  2  0  0  0  0  0  0  0  0  0
  200.2888  178.3359  145.9118 C   0  0  2  0  0  0  0  0  0  0  0  0
  199.6797  177.0138  155.4353 C   0  0  0  0  0  0  0  0  0  0  0  0
  200.7184  176.4911  156.2239 C   0  0  0  0  0  0  0  0  0  0  0  0
  201.3687  177.3228  157.1496 C   0  0  0  0  0  0  0  0  0  0  0  0
  200.9924  178.6692  157.2728 C   0  0  0  0  0  0  0  0  0  0  0  0
  199.4369  185.0230  158.5710 H   0  0  0  0  0  0  0  0  0  0  0  0
  198.7914  187.1783  158.9489 H   0  0  0  0  0  0  0  0  0  0  0  0
  197.7672  187.1868  157.5394 H   0  0  0  0  0  0  0  0  0  0  0  0
  197.0638  188.4211  160.2291 H   0  0  0  0  0  0  0  0  0  0  0  0
  195.0676  188.2563  161.6835 H   0  0  0  0  0  0  0  0  0  0  0  0
  193.6090  186.2277  161.5970 H   0  0  0  0  0  0  0  0  0  0  0  0
  194.2048  184.3536  160.0618 H   0  0  0  0  0  0  0  0  0  0  0  0
  196.1559  184.4662  158.6431 H   0  0  0  0  0  0  0  0  0  0  0  0
  199.9629  183.3531  156.5470 H   0  0  0  0  0  0  0  0  0  0  0  0
  198.9897  182.7420  157.8983 H   0  0  0  0  0  0  0  0  0  0  0  0
  197.3429  182.6641  155.6410 H   0  0  0  0  0  0  0  0  0  0  0  0
  196.7497  181.6445  154.1227 H   0  0  0  0  0  0  0  0  0  0  0  0
  196.8483  179.0298  152.7267 H   0  0  0  0  0  0  0  0  0  0  0  0
  195.9118  180.4190  152.2646 H   0  0  0  0  0  0  0  0  0  0  0  0
  197.9119  181.6571  151.5438 H   0  0  0  0  0  0  0  0  0  0  0  0
  198.9682  180.4824  152.2825 H   0  0  0  0  0  0  0  0  0  0  0  0
  200.1778  179.3685  150.6486 H   0  0  0  0  0  0  0  0  0  0  0  0
  200.2489  177.8967  148.6952 H   0  0  0  0  0  0  0  0  0  0  0  0
  196.0559  178.6852  147.9455 H   0  0  0  0  0  0  0  0  0  0  0  0
  195.9690  180.0831  149.9790 H   0  0  0  0  0  0  0  0  0  0  0  0
  198.7233  176.3850  147.1398 H   0  0  0  0  0  0  0  0  0  0  0  0
  197.2042  177.0386  146.6082 H   0  0  0  0  0  0  0  0  0  0  0  0
  197.9536  179.8864  145.8963 H   0  0  0  0  0  0  0  0  0  0  0  0
  197.0812  178.7407  144.8629 H   0  0  0  0  0  0  0  0  0  0  0  0
  198.5623  179.4976  144.2797 H   0  0  0  0  0  0  0  0  0  0  0  0
  200.4017  179.1567  146.6210 H   0  0  0  0  0  0  0  0  0  0  0  0
  200.7452  178.6423  144.9631 H   0  0  0  0  0  0  0  0  0  0  0  0
  200.8525  177.4780  146.2757 H   0  0  0  0  0  0  0  0  0  0  0  0
  199.1655  176.3747  154.7339 H   0  0  0  0  0  0  0  0  0  0  0  0
  201.0163  175.4592  156.1153 H   0  0  0  0  0  0  0  0  0  0  0  0
  202.1777  176.9326  157.7422 H   0  0  0  0  0  0  0  0  0  0  0  0
  201.5163  179.3023  157.9740 H   0  0  0  0  0  0  0  0  0  0  0  0
  198.8694  177.2787  144.9853 H   0  0  0  0  0  0  0  0  0  0  0  0
  1  2  2  0
  2  3  1  0
  2 11  1  0
  3  4  1  0
  3 36  1  0
  4  5  1  0
  4 37  1  1
  4 38  1  0
  5  6  2  0
  5 10  1  0
  6  7  1  0
  6 39  1  0
  7  8  2  0
  7 40  1  0
  8  9  1  0
  8 41  1  0
  9 10  2  0
  9 42  1  0
 10 43  1  0
 11 12  1  0
 11 44  1  6
 11 45  1  0
 12 13  1  0
 12 46  1  0
 13 14  2  0
 13 18  1  0
 14 15  1  0
 15 16  1  0
 15 35  2  0
 16 17  1  0
 16 32  2  0
 17 18  2  0
 18 19  1  0
 19 20  1  0
 19 47  1  0
 20 21  1  0
 20 48  1  1
 20 49  1  0
 21 22  1  0
 21 50  1  6
 21 51  1  0
 22 23  1  0
 22 27  2  0
 23 24  2  0
 23 52  1  0
 24 25  1  0
 24 53  1  0
 25 26  2  0
 25 28  1  0
 26 27  1  0
 26 54  1  0
 27 55  1  0
 28 29  1  0
 28 56  1  1
 28 57  1  0
 29 30  1  0
 29 31  1  0
 29 68  1  6
 30 58  1  1
 30 59  1  0
 30 60  1  0
 31 61  1  1
 31 62  1  0
 31 63  1  0
 32 33  1  0
 32 64  1  0
 33 34  2  0
 33 65  1  0
 34 35  1  0
 34 66  1  0
 35 67  1  0
M  CHG  1  29   1
M  END
>  <s_epik_cmdline>  (438) 
J2VwaWtfcHl0aG9uJywgJy1waCcsICc3LjAwMDAwMCcsICctcGh0JywgJzIuMDAwMDAwJywgJy1tcycsICcxNicsICctdG4nLCAnOCcsICctbWEnLCAnMjAwJywgJy1pbWFlJywgJzxpbmZpbGUubWFlPicsICctb21hZScsICc8b3V0ZmlsZS5tYWU+Jw==

>  <s_epik_input>  (438) 
W2NIXTFbY0hdW2NIXVtjSF1bY0hdYzFbQ0gyXVtOSF1DKD1PKVtDSDJdW05IXWMobjIpYyhuYyhjMjMpW2NIXVtjSF1bY0hdW2NIXTMpW05IXVtDSDJdW0NIMl1jNFtjSF1bY0hdYyhbY0hdW2NIXTQpW0NIMl1OKFtDSDNdKVtDSDNd

>  <s_i_glide_gridfile>  (438) 
ATP-Grid

>  <s_lp_Force_Field>  (438) 
OPLS_2005

>  <s_lp_Variant>  (438) 
m_282030aaa____21926464____23157418____21963750-1

>  <s_lp_label>  (438) 
1495_sdstereoexpander_1_neutralizer_1_epik_1_stereoizer_1

>  <s_m_source_file>  (438) 
ATP-VSW-LIGPREP-001-in.maegz

>  <s_sd_BIOSOLVEIT.INFINISEE\_QUERY\_NAME>  (438) 
Ref-Lig

>  <s_sd_BIOSOLVEIT.INFINISEE\_QUERY\_SMILES>  (438) 
S(c1nc2c(cc1C[NH2+]Cc3ccc(cc3)C[NH+](C)C)cccc2)Cc4ccccc4

>  <s_sd_BIOSOLVEIT.INFINISEE\_REACTION\_NAME>  (438) 
m_282030aaa

>  <s_sd_BIOSOLVEIT.INFINISEE\_REAGENT1\_SMILES>  (438) 
[R1*]NCCc1ccc(cc1)CN(C)C

>  <s_sd_BIOSOLVEIT.INFINISEE\_REAGENT2\_SMILES>  (438) 
[R1*]c1nc2c(nc1[R2*])cccc2

>  <s_sd_BIOSOLVEIT.INFINISEE\_REAGENT3\_SMILES>  (438) 
[R2*]NCC(=O)NCc1ccccc1

>  <s_sd_BIOSOLVEIT.INFINISEE\_SPACE>  (438) 
REALSpace_44bn_2023-08

>  <s_vsw_compound_code>  (438) 
47809

>  <s_vsw_variant>  (438) 
47809-1

>  <r_epik_Charging_Adjusted_Penalty>  (438) 
0.081936508424468604

>  <r_epik_Ionization_Penalty>  (438) 
0.041200000000000001

>  <r_epik_Ionization_Penalty_Charging>  (438) 
0.041000000000000002

>  <r_epik_Ionization_Penalty_Neutral>  (438) 
0.00020000000000000001

>  <r_epik_State_Penalty>  (438) 
0.041000000000000002

>  <r_i_docking_score>  (438) 
-4.6106026901131099

>  <r_i_glide_ecoul>  (438) 
-4.9598450660705602

>  <r_i_glide_eff_state_penalty>  (438) 
0.041000000000000002

>  <r_i_glide_einternal>  (438) 
5.2727031707763699

>  <r_i_glide_emodel>  (438) 
-57.811209425308199

>  <r_i_glide_energy>  (438) 
-42.583879947662403

>  <r_i_glide_erotb>  (438) 
0.91593774655956794

>  <r_i_glide_esite>  (438) 
-0.097174165213848904

>  <r_i_glide_evdw>  (438) 
-37.624034881591797

>  <r_i_glide_gscore>  (438) 
-4.6516026901131102

>  <r_i_glide_hbond>  (438) 
-0.069819427382234095

>  <r_i_glide_ligand_efficiency>  (438) 
-0.13173150543180301

>  <r_i_glide_ligand_efficiency_ln>  (438) 
-1.0121296172933101

>  <r_i_glide_ligand_efficiency_sa>  (438) 
-0.43090248889772698

>  <r_i_glide_lipo>  (438) 
-2.34263501065365

>  <r_i_glide_metal>  (438) 
-0

>  <r_i_glide_rewards>  (438) 
-0.43273332943278098

>  <r_lp_Energy>  (438) 
23.408829999999998

>  <r_qp_ACxDN^.5/SA>  (438) 
0.0135059

>  <r_qp_CIQPlogS>  (438) 
-5.5899999999999999

>  <r_qp_EA(eV)>  (438) 
0.76000000000000001

>  <r_qp_FISA>  (438) 
74.613

>  <r_qp_FOSA>  (438) 
335.53100000000001

>  <r_qp_IP(eV)>  (438) 
8.125

>  <r_qp_Jm>  (438) 
0.34313156409199103

>  <r_qp_PISA>  (438) 
339.52499999999998

>  <r_qp_PSA>  (438) 
82.004000000000005

>  <r_qp_PercentHumanOralAbsorption>  (438) 
95.905000000000001

>  <r_qp_QPPCaco>  (438) 
295.11599999999999

>  <r_qp_QPPMDCK>  (438) 
250.04300000000001

>  <r_qp_QPlogBB>  (438) 
-0.41799999999999998

>  <r_qp_QPlogHERG>  (438) 
-5.2110000000000003

>  <r_qp_QPlogKhsa>  (438) 
0.45000000000000001

>  <r_qp_QPlogKp>  (438) 
-2.7050000000000001

>  <r_qp_QPlogPC16>  (438) 
15.177

>  <r_qp_QPlogPo/w>  (438) 
4.2270000000000003

>  <r_qp_QPlogPoct>  (438) 
23.224

>  <r_qp_QPlogPw>  (438) 
13.859

>  <r_qp_QPlogS>  (438) 
-3.4300000000000002

>  <r_qp_QPpolrz>  (438) 
48.709000000000003

>  <r_qp_SASA>  (438) 
749.66999999999996

>  <r_qp_SAamideO>  (438) 
27.042000000000002

>  <r_qp_SAfluorine>  (438) 
0

>  <r_qp_WPSA>  (438) 
0

>  <r_qp_accptHB>  (438) 
6.75

>  <r_qp_dip^2/V>  (438) 
0.0198627

>  <r_qp_dipole>  (438) 
5.3970000000000002

>  <r_qp_donorHB>  (438) 
2.25

>  <r_qp_glob>  (438) 
0.83263359999999997

>  <r_qp_mol_MW>  (438) 
468.60000000000002

>  <r_qp_volume>  (438) 
1466.3530000000001

>  <r_sd_BIOSOLVEIT.INFINISEE\_FTREES\_SIMILARITY>  (438) 
0.90700000000000003

>  <r_sd_BIOSOLVEIT.LOGP>  (438) 
2.6572

>  <r_sd_BIOSOLVEIT.MOLECULAR\_WEIGHT>  (438) 
469.61000000000001

>  <r_sd_BIOSOLVEIT.TPSA>  (438) 
83.379999999999995

>  <i_epik_Tot_Q>  (438) 
1

>  <i_epik_Tot_abs_Q>  (438) 
1

>  <i_f3d_flags>  (438) 
0

>  <i_i_glide_confnum>  (438) 
1

>  <i_i_glide_lignum>  (438) 
383

>  <i_i_glide_posenum>  (438) 
7

>  <i_i_glide_rotatable_bonds>  (438) 
12

>  <i_lp_mmshare_version>  (438) 
65135

>  <i_m_ct_format>  (438) 
2

>  <i_m_source_file_index>  (438) 
1495

>  <i_qp_#NandO>  (438) 
7

>  <i_qp_#acid>  (438) 
0

>  <i_qp_#amide>  (438) 
1

>  <i_qp_#amidine>  (438) 
0

>  <i_qp_#amine>  (438) 
1

>  <i_qp_#in34>  (438) 
0

>  <i_qp_#in56>  (438) 
22

>  <i_qp_#metab>  (438) 
5

>  <i_qp_#nonHatm>  (438) 
35

>  <i_qp_#noncon>  (438) 
0

>  <i_qp_#ringatoms>  (438) 
22

>  <i_qp_#rotor>  (438) 
11

>  <i_qp_#rtvFG>  (438) 
0

>  <i_qp_#stars>  (438) 
0

>  <i_qp_CNS>  (438) 
0

>  <i_qp_HumanOralAbsorption>  (438) 
3

>  <i_qp_RuleOfFive>  (438) 
0

>  <i_qp_RuleOfThree>  (438) 
0

>  <i_sd_BIOSOLVEIT.INFINISEE\_REAGENT1\_NAME>  (438) 
21926464

>  <i_sd_BIOSOLVEIT.INFINISEE\_REAGENT2\_NAME>  (438) 
23157418

>  <i_sd_BIOSOLVEIT.INFINISEE\_REAGENT3\_NAME>  (438) 
21963750

>  <i_sd_BIOSOLVEIT.INFINISEE\_RESULT\_RANK>  (438) 
58965

>  <i_sd_version>  (438) 
0

>  <b_lp_Chiralities_Consistent>  (438) 
1

>  <b_sd_chiral_flag>  (438) 
0

>  <canonical_id>  (438) 
ATP-HTVS-45908092458F

>  <compound_code>  (438) 
47809

>  <title>  (438) 
m_282030aaa____21926464____23157418____21963750

>  <variant>  (438) 
47809-1

>  <source_file>  (438) 
运行/运行/ATP-VSW/ATP-VSW-DOCK_HTVS_1-001_lib/ATP-VSW-DOCK_HTVS_1-001_lib

>  <canonical_smiles>  (438) 
C[NH+](C)Cc1ccc(CCNc2nc3ccccc3nc2NCC(=O)NCc2ccccc2)cc1

>  <scaffold>  (438) 
O=C(CNc1nc2ccccc2nc1NCCc1ccccc1)NCc1ccccc1

>  <molecular_formula>  (438) 
C28H33N6O+

$$$$
ATP-HTVS-459B7E30FD80
     RDKit          3D

 57 60  0  0  0  0  0  0  0  0999 V2000
  200.7289  175.8848  152.0147 S   0  0  0  0  0  0  0  0  0  0  0  0
  201.3313  175.4485  153.6041 C   0  0  0  0  0  0  0  0  0  0  0  0
  200.9042  176.4003  154.5876 C   0  0  0  0  0  0  0  0  0  0  0  0
  201.3030  176.1184  155.9242 C   0  0  0  0  0  0  0  0  0  0  0  0
  202.1119  175.0185  156.2585 C   0  0  0  0  0  0  0  0  0  0  0  0
  202.5187  174.1081  155.2711 C   0  0  0  0  0  0  0  0  0  0  0  0
  202.1214  174.3234  153.9377 C   0  0  0  0  0  0  0  0  0  0  0  0
  200.1237  177.4861  153.9957 C   0  0  0  0  0  0  0  0  0  0  0  0
  199.6079  178.5518  154.7757 N   0  0  0  0  0  0  0  0  0  0  0  0
  200.3230  179.1711  155.8702 C   0  0  1  0  0  0  0  0  0  0  0  0
  199.7490  180.5183  156.2298 C   0  0  0  0  0  0  0  0  0  0  0  0
  198.3516  180.7161  156.2782 C   0  0  0  0  0  0  0  0  0  0  0  0
  197.8236  181.9642  156.6640 C   0  0  0  0  0  0  0  0  0  0  0  0
  198.7056  183.0151  157.0049 C   0  0  0  0  0  0  0  0  0  0  0  0
  200.0992  182.8100  156.9816 C   0  0  0  0  0  0  0  0  0  0  0  0
  200.6184  181.5642  156.5867 C   0  0  0  0  0  0  0  0  0  0  0  0
  196.3159  182.1671  156.7368 C   0  0  1  0  0  0  0  0  0  0  0  0
  195.7529  181.8382  158.0674 N   0  0  1  0  0  0  0  0  0  0  0  0
  196.3771  182.5753  159.1890 C   0  0  2  0  0  0  0  0  0  0  0  0
  194.2800  181.9574  158.1025 C   0  0  2  0  0  0  0  0  0  0  0  0
  199.9485  177.3178  152.6317 C   0  0  0  0  0  0  0  0  0  0  0  0
  199.2821  178.1535  151.5834 C   0  0  0  0  0  0  0  0  0  0  0  0
  199.2844  177.8317  150.3967 O   0  0  0  0  0  0  0  0  0  0  0  0
  198.6315  179.2384  152.0504 N   0  0  0  0  0  0  0  0  0  0  0  0
  198.2625  180.4323  151.3755 C   0  0  0  0  0  0  0  0  0  0  0  0
  197.4575  181.3564  152.0825 C   0  0  0  0  0  0  0  0  0  0  0  0
  197.0678  182.5672  151.4816 C   0  0  0  0  0  0  0  0  0  0  0  0
  197.4970  182.8703  150.1734 C   0  0  0  0  0  0  0  0  0  0  0  0
  197.0842  184.1116  149.5452 C   0  0  0  0  0  0  0  0  0  0  0  0
  196.7550  185.0972  149.0452 N   0  0  0  0  0  0  0  0  0  0  0  0
  198.3274  181.9695  149.4756 C   0  0  0  0  0  0  0  0  0  0  0  0
  198.7158  180.7602  150.0781 C   0  0  0  0  0  0  0  0  0  0  0  0
  201.0020  176.7421  156.7497 H   0  0  0  0  0  0  0  0  0  0  0  0
  202.3961  174.8621  157.2905 H   0  0  0  0  0  0  0  0  0  0  0  0
  203.1073  173.2404  155.5355 H   0  0  0  0  0  0  0  0  0  0  0  0
  202.4276  173.6187  153.1647 H   0  0  0  0  0  0  0  0  0  0  0  0
  199.0953  179.2764  154.3103 H   0  0  0  0  0  0  0  0  0  0  0  0
  200.2081  178.5959  156.7822 H   0  0  0  0  0  0  0  0  0  0  0  0
  201.3785  179.2532  155.6086 H   0  0  0  0  0  0  0  0  0  0  0  0
  197.6757  179.8978  156.0603 H   0  0  0  0  0  0  0  0  0  0  0  0
  198.3182  183.9755  157.3136 H   0  0  0  0  0  0  0  0  0  0  0  0
  200.7720  183.6062  157.2732 H   0  0  0  0  0  0  0  0  0  0  0  0
  201.6864  181.4018  156.5874 H   0  0  0  0  0  0  0  0  0  0  0  0
  196.0804  183.2020  156.4697 H   0  0  0  0  0  0  0  0  0  0  0  0
  195.8403  181.5335  155.9846 H   0  0  0  0  0  0  0  0  0  0  0  0
  196.2599  183.6568  159.0550 H   0  0  0  0  0  0  0  0  0  0  0  0
  197.4408  182.3552  159.2956 H   0  0  0  0  0  0  0  0  0  0  0  0
  195.9176  182.3066  160.1295 H   0  0  0  0  0  0  0  0  0  0  0  0
  193.9757  182.9918  157.9191 H   0  0  0  0  0  0  0  0  0  0  0  0
  193.8799  181.6510  159.0699 H   0  0  0  0  0  0  0  0  0  0  0  0
  193.8266  181.3273  157.3328 H   0  0  0  0  0  0  0  0  0  0  0  0
  198.4622  179.2393  153.0360 H   0  0  0  0  0  0  0  0  0  0  0  0
  197.1442  181.1490  153.0962 H   0  0  0  0  0  0  0  0  0  0  0  0
  196.4428  183.2594  152.0314 H   0  0  0  0  0  0  0  0  0  0  0  0
  198.6730  182.2005  148.4761 H   0  0  0  0  0  0  0  0  0  0  0  0
  199.3813  180.1078  149.5340 H   0  0  0  0  0  0  0  0  0  0  0  0
  195.9395  180.8329  158.1810 H   0  0  0  0  0  0  0  0  0  0  0  0
  1  2  1  0
  1 21  1  0
  2  3  1  0
  2  7  2  0
  3  4  2  0
  3  8  1  0
  4  5  1  0
  4 33  1  0
  5  6  2  0
  5 34  1  0
  6  7  1  0
  6 35  1  0
  7 36  1  0
  8  9  1  0
  8 21  2  0
  9 10  1  0
  9 37  1  0
 10 11  1  0
 10 38  1  1
 10 39  1  0
 11 12  2  0
 11 16  1  0
 12 13  1  0
 12 40  1  0
 13 14  2  0
 13 17  1  0
 14 15  1  0
 14 41  1  0
 15 16  2  0
 15 42  1  0
 16 43  1  0
 17 18  1  0
 17 44  1  6
 17 45  1  0
 18 19  1  0
 18 20  1  0
 18 57  1  1
 19 46  1  6
 19 47  1  0
 19 48  1  0
 20 49  1  6
 20 50  1  0
 20 51  1  0
 21 22  1  0
 22 23  2  0
 22 24  1  0
 24 25  1  0
 24 52  1  0
 25 26  1  0
 25 32  2  0
 26 27  2  0
 26 53  1  0
 27 28  1  0
 27 54  1  0
 28 29  1  0
 28 31  2  0
 29 30  3  0
 31 32  1  0
 31 55  1  0
 32 56  1  0
M  CHG  1  18   1
M  END
>  <s_epik_cmdline>  (439) 
J2VwaWtfcHl0aG9uJywgJy1waCcsICc3LjAwMDAwMCcsICctcGh0JywgJzIuMDAwMDAwJywgJy1tcycsICcxNicsICctdG4nLCAnOCcsICctbWEnLCAnMjAwJywgJy1pbWFlJywgJzxpbmZpbGUubWFlPicsICctb21hZScsICc8b3V0ZmlsZS5tYWU+Jw==

>  <s_epik_input>  (439) 
TiNDYyhbY0hdW2NIXTEpW2NIXVtjSF1jMVtOSF1DKD1PKWMoczIpYyhjKGMyMylbY0hdW2NIXVtjSF1bY0hdMylbTkhdW0NIMl1jNFtjSF1jKFtjSF1bY0hdW2NIXTQpW0NIMl1OKFtDSDNdKVtDSDNd

>  <s_i_glide_gridfile>  (439) 
ATP-Grid

>  <s_lp_Force_Field>  (439) 
OPLS_2005

>  <s_lp_Variant>  (439) 
rxn512c____EMOL476551____EMOL523944____EMOL2873214-1

>  <s_lp_label>  (439) 
2397_sdstereoexpander_1_neutralizer_1_epik_1_stereoizer_1

>  <s_m_source_file>  (439) 
ATP-VSW-LIGPREP-001-in.maegz

>  <s_sd_BIOSOLVEIT.INFINISEE\_QUERY\_NAME>  (439) 
Ref-Lig

>  <s_sd_BIOSOLVEIT.INFINISEE\_QUERY\_SMILES>  (439) 
S(c1nc2c(cc1C[NH2+]Cc3ccc(cc3)C[NH+](C)C)cccc2)Cc4ccccc4

>  <s_sd_BIOSOLVEIT.INFINISEE\_REACTION\_NAME>  (439) 
rxn512c

>  <s_sd_BIOSOLVEIT.INFINISEE\_REAGENT1\_NAME>  (439) 
EMOL476551

>  <s_sd_BIOSOLVEIT.INFINISEE\_REAGENT1\_SMILES>  (439) 
N#Cc1ccc(N)cc1

>  <s_sd_BIOSOLVEIT.INFINISEE\_REAGENT2\_NAME>  (439) 
EMOL523944

>  <s_sd_BIOSOLVEIT.INFINISEE\_REAGENT2\_SMILES>  (439) 
ClC=1c2c(SC1C(=O)O)cccc2

>  <s_sd_BIOSOLVEIT.INFINISEE\_REAGENT3\_NAME>  (439) 
EMOL2873214

>  <s_sd_BIOSOLVEIT.INFINISEE\_REAGENT3\_SMILES>  (439) 
N(Cc1cc(ccc1)CN)(C)C

>  <s_sd_BIOSOLVEIT.INFINISEE\_SPACE>  (439) 
eXplore_7tr_2022-12

>  <s_vsw_compound_code>  (439) 
76673

>  <s_vsw_variant>  (439) 
76673-1

>  <r_epik_Charging_Adjusted_Penalty>  (439) 
0.086140609825027206

>  <r_epik_Ionization_Penalty>  (439) 
0.043099999999999999

>  <r_epik_Ionization_Penalty_Charging>  (439) 
0.043099999999999999

>  <r_epik_Ionization_Penalty_Neutral>  (439) 
0.0001

>  <r_epik_State_Penalty>  (439) 
0.043099999999999999

>  <r_i_docking_score>  (439) 
-4.5937158473343098

>  <r_i_glide_ecoul>  (439) 
-8.98004055023193

>  <r_i_glide_eff_state_penalty>  (439) 
0.043099999999999999

>  <r_i_glide_einternal>  (439) 
3.2829844951629599

>  <r_i_glide_emodel>  (439) 
-60.788100326056401

>  <r_i_glide_energy>  (439) 
-43.990183830261202

>  <r_i_glide_erotb>  (439) 
0.71715318169643705

>  <r_i_glide_esite>  (439) 
-0.121335099262291

>  <r_i_glide_evdw>  (439) 
-35.010143280029297

>  <r_i_glide_gscore>  (439) 
-4.6368158473343097

>  <r_i_glide_hbond>  (439) 
-0.20000000000000001

>  <r_i_glide_ligand_efficiency>  (439) 
-0.14355362022919699

>  <r_i_glide_ligand_efficiency_ln>  (439) 
-1.02865819818282

>  <r_i_glide_ligand_efficiency_sa>  (439) 
-0.45575433500483398

>  <r_i_glide_lipo>  (439) 
-1.00283264348742

>  <r_i_glide_metal>  (439) 
-0

>  <r_i_glide_rewards>  (439) 
-0.93228803974478203

>  <r_lp_Energy>  (439) 
35.382959999999997

>  <r_qp_ACxDN^.5/SA>  (439) 
0.0074565999999999999

>  <r_qp_CIQPlogS>  (439) 
-5.9370000000000003

>  <r_qp_EA(eV)>  (439) 
1.1080000000000001

>  <r_qp_FISA>  (439) 
118.676

>  <r_qp_FOSA>  (439) 
195.506

>  <r_qp_IP(eV)>  (439) 
8.4450000000000003

>  <r_qp_Jm>  (439) 
1.2539440503179699e-06

>  <r_qp_PISA>  (439) 
454.49000000000001

>  <r_qp_PSA>  (439) 
77.695999999999998

>  <r_qp_PercentHumanOralAbsorption>  (439) 
83.195999999999998

>  <r_qp_QPPCaco>  (439) 
46.162999999999997

>  <r_qp_QPPMDCK>  (439) 
34.313000000000002

>  <r_qp_QPlogBB>  (439) 
-0.39400000000000002

>  <r_qp_QPlogHERG>  (439) 
-8.9960000000000004

>  <r_qp_QPlogKhsa>  (439) 
0.95999999999999996

>  <r_qp_QPlogKp>  (439) 
-5.4630000000000001

>  <r_qp_QPlogPC16>  (439) 
16.256

>  <r_qp_QPlogPo/w>  (439) 
4.5199999999999996

>  <r_qp_QPlogPoct>  (439) 
22.280999999999999

>  <r_qp_QPlogPw>  (439) 
11.177

>  <r_qp_QPlogS>  (439) 
-6.0830000000000002

>  <r_qp_QPpolrz>  (439) 
50.229999999999997

>  <r_qp_SASA>  (439) 
804.65099999999995

>  <r_qp_SAamideO>  (439) 
0

>  <r_qp_SAfluorine>  (439) 
0

>  <r_qp_WPSA>  (439) 
35.978999999999999

>  <r_qp_accptHB>  (439) 
6

>  <r_qp_dip^2/V>  (439) 
0.050252999999999999

>  <r_qp_dipole>  (439) 
8.4740000000000002

>  <r_qp_donorHB>  (439) 
1

>  <r_qp_glob>  (439) 
0.76243830000000001

>  <r_qp_mol_MW>  (439) 
440.56200000000001

>  <r_qp_volume>  (439) 
1428.798

>  <r_sd_BIOSOLVEIT.INFINISEE\_FTREES\_SIMILARITY>  (439) 
0.91800000000000004

>  <r_sd_BIOSOLVEIT.LOGP>  (439) 
4.2818800000000001

>  <r_sd_BIOSOLVEIT.MOLECULAR\_WEIGHT>  (439) 
441.57600000000002

>  <r_sd_BIOSOLVEIT.TPSA>  (439) 
69.359999999999999

>  <i_epik_Tot_Q>  (439) 
1

>  <i_epik_Tot_abs_Q>  (439) 
1

>  <i_f3d_flags>  (439) 
0

>  <i_i_glide_confnum>  (439) 
8

>  <i_i_glide_lignum>  (439) 
893

>  <i_i_glide_posenum>  (439) 
11

>  <i_i_glide_rotatable_bonds>  (439) 
8

>  <i_lp_mmshare_version>  (439) 
65135

>  <i_m_ct_format>  (439) 
2

>  <i_m_source_file_index>  (439) 
2397

>  <i_qp_#NandO>  (439) 
5

>  <i_qp_#acid>  (439) 
0

>  <i_qp_#amide>  (439) 
0

>  <i_qp_#amidine>  (439) 
0

>  <i_qp_#amine>  (439) 
2

>  <i_qp_#in34>  (439) 
0

>  <i_qp_#in56>  (439) 
21

>  <i_qp_#metab>  (439) 
5

>  <i_qp_#nonHatm>  (439) 
32

>  <i_qp_#noncon>  (439) 
0

>  <i_qp_#ringatoms>  (439) 
21

>  <i_qp_#rotor>  (439) 
8

>  <i_qp_#rtvFG>  (439) 
0

>  <i_qp_#stars>  (439) 
1

>  <i_qp_CNS>  (439) 
1

>  <i_qp_HumanOralAbsorption>  (439) 
3

>  <i_qp_RuleOfFive>  (439) 
0

>  <i_qp_RuleOfThree>  (439) 
1

>  <i_sd_BIOSOLVEIT.INFINISEE\_RESULT\_RANK>  (439) 
20184

>  <i_sd_version>  (439) 
0

>  <b_lp_Chiralities_Consistent>  (439) 
1

>  <b_sd_chiral_flag>  (439) 
0

>  <canonical_id>  (439) 
ATP-HTVS-459B7E30FD80

>  <compound_code>  (439) 
76673

>  <title>  (439) 
rxn512c____EMOL476551____EMOL523944____EMOL2873214

>  <variant>  (439) 
76673-1

>  <source_file>  (439) 
运行/运行/ATP-VSW/ATP-VSW-DOCK_HTVS_1-001_lib/ATP-VSW-DOCK_HTVS_1-001_lib

>  <canonical_smiles>  (439) 
C[NH+](C)Cc1cccc(CNc2c(C(=O)Nc3ccc(C#N)cc3)sc3ccccc23)c1

>  <scaffold>  (439) 
O=C(Nc1ccccc1)c1sc2ccccc2c1NCc1ccccc1

>  <molecular_formula>  (439) 
C26H25N4OS+

$$$$
ATP-HTVS-45A004EDB829
     RDKit          3D

 50 53  0  0  0  0  0  0  0  0999 V2000
  199.6335  179.9272  156.7406 Cl  0  0  0  0  0  0  0  0  0  0  0  0
  198.6525  180.0880  155.3166 C   0  0  0  0  0  0  0  0  0  0  0  0
  197.6285  181.0613  155.2136 C   0  0  0  0  0  0  0  0  0  0  0  0
  196.8970  181.2332  154.0938 N   0  0  0  0  0  0  0  0  0  0  0  0
  197.1435  180.4595  153.0254 C   0  0  0  0  0  0  0  0  0  0  0  0
  198.1428  179.4456  153.0428 C   0  0  0  0  0  0  0  0  0  0  0  0
  198.9190  179.2462  154.2204 C   0  0  0  0  0  0  0  0  0  0  0  0
  199.9760  178.2202  154.3306 C   0  0  0  0  0  0  0  0  0  0  0  0
  199.8885  177.1874  155.2947 C   0  0  0  0  0  0  0  0  0  0  0  0
  200.8888  176.2054  155.3855 C   0  0  0  0  0  0  0  0  0  0  0  0
  201.9890  176.2437  154.5085 C   0  0  0  0  0  0  0  0  0  0  0  0
  202.0932  177.2746  153.5549 C   0  0  0  0  0  0  0  0  0  0  0  0
  201.0992  178.2637  153.4797 C   0  0  0  0  0  0  0  0  0  0  0  0
  198.3373  178.6499  151.9011 C   0  0  0  0  0  0  0  0  0  0  0  0
  197.5622  178.8671  150.7540 C   0  0  0  0  0  0  0  0  0  0  0  0
  196.5814  179.8692  150.7282 C   0  0  0  0  0  0  0  0  0  0  0  0
  196.3748  180.6654  151.8613 C   0  0  0  0  0  0  0  0  0  0  0  0
  197.2953  182.0034  156.3387 C   0  0  1  0  0  0  0  0  0  0  0  0
  195.9296  181.8270  156.8597 N   0  0  1  0  0  0  0  0  0  0  0  0
  195.7134  182.2198  158.2785 C   0  0  1  0  0  0  0  0  0  0  0  0
  196.4388  183.5276  158.7092 C   0  0  0  0  0  0  0  0  0  0  0  0
  195.7340  184.7406  158.9966 C   0  0  0  0  0  0  0  0  0  0  0  0
  194.3762  184.7781  159.0040 F   0  0  0  0  0  0  0  0  0  0  0  0
  196.4390  185.9336  159.3106 C   0  0  0  0  0  0  0  0  0  0  0  0
  197.8593  185.9607  159.2863 C   0  0  0  0  0  0  0  0  0  0  0  0
  198.5498  184.7500  159.0172 C   0  0  0  0  0  0  0  0  0  0  0  0
  197.8597  183.5451  158.8204 C   0  0  0  0  0  0  0  0  0  0  0  0
  194.1829  182.2186  158.4937 C   0  0  1  0  0  0  0  0  0  0  0  0
  193.5751  180.9387  158.5112 O   0  0  0  0  0  0  0  0  0  0  0  0
  195.2361  182.2609  156.2521 H   0  0  0  0  0  0  0  0  0  0  0  0
  199.0491  177.1580  155.9780 H   0  0  0  0  0  0  0  0  0  0  0  0
  200.8099  175.4274  156.1305 H   0  0  0  0  0  0  0  0  0  0  0  0
  202.7550  175.4857  154.5698 H   0  0  0  0  0  0  0  0  0  0  0  0
  202.9267  177.3045  152.8707 H   0  0  0  0  0  0  0  0  0  0  0  0
  201.1791  179.0528  152.7467 H   0  0  0  0  0  0  0  0  0  0  0  0
  199.0636  177.8578  151.8973 H   0  0  0  0  0  0  0  0  0  0  0  0
  197.7258  178.2513  149.8957 H   0  0  0  0  0  0  0  0  0  0  0  0
  195.9838  180.0384  149.8517 H   0  0  0  0  0  0  0  0  0  0  0  0
  195.6311  181.4519  151.8791 H   0  0  0  0  0  0  0  0  0  0  0  0
  197.9584  181.7487  157.1583 H   0  0  0  0  0  0  0  0  0  0  0  0
  197.4805  183.0324  156.0327 H   0  0  0  0  0  0  0  0  0  0  0  0
  196.1456  181.4418  158.9137 H   0  0  0  0  0  0  0  0  0  0  0  0
  195.8548  186.8193  159.5825 H   0  0  0  0  0  0  0  0  0  0  0  0
  198.3805  186.8974  159.5163 H   0  0  0  0  0  0  0  0  0  0  0  0
  199.6264  184.7894  158.9480 H   0  0  0  0  0  0  0  0  0  0  0  0
  198.4706  182.6506  158.6716 H   0  0  0  0  0  0  0  0  0  0  0  0
  193.9689  182.6301  159.4680 H   0  0  0  0  0  0  0  0  0  0  0  0
  193.6753  182.8623  157.7670 H   0  0  0  0  0  0  0  0  0  0  0  0
  194.1627  180.2747  158.1437 H   0  0  0  0  0  0  0  0  0  0  0  0
  195.7394  180.8249  156.8229 H   0  0  0  0  0  0  0  0  0  0  0  0
  1  2  1  0
  2  3  1  0
  2  7  2  0
  3  4  2  0
  3 18  1  0
  4  5  1  0
  5  6  1  0
  5 17  2  0
  6  7  1  0
  6 14  2  0
  7  8  1  0
  8  9  2  0
  8 13  1  0
  9 10  1  0
  9 31  1  0
 10 11  2  0
 10 32  1  0
 11 12  1  0
 11 33  1  0
 12 13  2  0
 12 34  1  0
 13 35  1  0
 14 15  1  0
 14 36  1  0
 15 16  2  0
 15 37  1  0
 16 17  1  0
 16 38  1  0
 17 39  1  0
 18 19  1  0
 18 40  1  1
 18 41  1  0
 19 20  1  0
 19 30  1  6
 19 50  1  0
 20 21  1  0
 20 28  1  0
 20 42  1  1
 21 22  1  0
 21 27  2  0
 22 23  1  0
 22 24  2  0
 24 25  1  0
 24 43  1  0
 25 26  2  0
 25 44  1  0
 26 27  1  0
 26 45  1  0
 27 46  1  0
 28 29  1  0
 28 47  1  1
 28 48  1  0
 29 49  1  0
M  CHG  1  19   1
M  END
>  <s_epik_cmdline>  (440) 
J2VwaWtfcHl0aG9uJywgJy1waCcsICc3LjAwMDAwMCcsICctcGh0JywgJzIuMDAwMDAwJywgJy1tcycsICcxNicsICctdG4nLCAnOCcsICctbWEnLCAnMjAwJywgJy1pbWFlJywgJzxpbmZpbGUubWFlPicsICctb21hZScsICc8b3V0ZmlsZS5tYWU+Jw==

>  <s_epik_input>  (440) 
W2NIXTFbY0hdW2NIXVtjSF1bY0hdYzEtYyhjKGMyMylbY0hdW2NIXVtjSF1bY0hdMyljKENsKWMobjIpW0NIMl1bTkhdW0NASF0oW0NIMl1bT0hdKWM0YyhGKVtjSF1bY0hdW2NIXVtjSF00

>  <s_i_glide_gridfile>  (440) 
ATP-Grid

>  <s_lp_Force_Field>  (440) 
OPLS_2005

>  <s_lp_Variant>  (440) 
m_2230bbb____8627194____7471132-2

>  <s_lp_label>  (440) 
1102_sdstereoexpander_2_neutralizer_1_epik_1_stereoizer_1

>  <s_m_source_file>  (440) 
ATP-VSW-LIGPREP-002-in.maegz

>  <s_sd_BIOSOLVEIT.INFINISEE\_QUERY\_NAME>  (440) 
Ref-Lig

>  <s_sd_BIOSOLVEIT.INFINISEE\_QUERY\_SMILES>  (440) 
S(c1nc2c(cc1C[NH2+]Cc3ccc(cc3)C[NH+](C)C)cccc2)Cc4ccccc4

>  <s_sd_BIOSOLVEIT.INFINISEE\_REACTION\_NAME>  (440) 
m_2230bbb

>  <s_sd_BIOSOLVEIT.INFINISEE\_REAGENT1\_SMILES>  (440) 
[R1*]NC(c1c(F)cccc1)CO

>  <s_sd_BIOSOLVEIT.INFINISEE\_REAGENT2\_SMILES>  (440) 
[R1*]Cc1nc2c(c(c1Cl)c3ccccc3)cccc2

>  <s_sd_BIOSOLVEIT.INFINISEE\_SPACE>  (440) 
REALSpace_44bn_2023-08

>  <s_vsw_compound_code>  (440) 
35234

>  <s_vsw_variant>  (440) 
35234-2

>  <r_epik_Charging_Adjusted_Penalty>  (440) 
0.47872975795834399

>  <r_epik_Ionization_Penalty>  (440) 
0.2394

>  <r_epik_Ionization_Penalty_Charging>  (440) 
0.2394

>  <r_epik_Ionization_Penalty_Neutral>  (440) 
0

>  <r_epik_State_Penalty>  (440) 
0.2394

>  <r_i_docking_score>  (440) 
-5.6346268537964397

>  <r_i_glide_ecoul>  (440) 
-12.2735805511475

>  <r_i_glide_eff_state_penalty>  (440) 
0.2394

>  <r_i_glide_einternal>  (440) 
17.056259155273398

>  <r_i_glide_emodel>  (440) 
-62.932999187377398

>  <r_i_glide_energy>  (440) 
-46.013380050659201

>  <r_i_glide_erotb>  (440) 
0.59132777380499502

>  <r_i_glide_esite>  (440) 
-0.10000000000000001

>  <r_i_glide_evdw>  (440) 
-33.739799499511697

>  <r_i_glide_gscore>  (440) 
-5.8740268537964404

>  <r_i_glide_hbond>  (440) 
-0.55076729000575897

>  <r_i_glide_ligand_efficiency>  (440) 
-0.194297477717119

>  <r_i_glide_ligand_efficiency_ln>  (440) 
-1.29018666771055

>  <r_i_glide_ligand_efficiency_sa>  (440) 
-0.59694340930859602

>  <r_i_glide_lipo>  (440) 
-1.4205884262155399

>  <r_i_glide_metal>  (440) 
-0

>  <r_i_glide_rewards>  (440) 
-0.86597185373243402

>  <r_lp_Energy>  (440) 
19.453232

>  <r_qp_ACxDN^.5/SA>  (440) 
0.0086514999999999995

>  <r_qp_CIQPlogS>  (440) 
-5.9820000000000002

>  <r_qp_EA(eV)>  (440) 
1.0409999999999999

>  <r_qp_FISA>  (440) 
70.632000000000005

>  <r_qp_FOSA>  (440) 
76.756

>  <r_qp_IP(eV)>  (440) 
8.8979999999999997

>  <r_qp_Jm>  (440) 
0.0129861005336794

>  <r_qp_PISA>  (440) 
481.71600000000001

>  <r_qp_PSA>  (440) 
45.802999999999997

>  <r_qp_PercentHumanOralAbsorption>  (440) 
100

>  <r_qp_QPPCaco>  (440) 
528.43899999999996

>  <r_qp_QPPMDCK>  (440) 
566.91600000000005

>  <r_qp_QPlogBB>  (440) 
-0.033000000000000002

>  <r_qp_QPlogHERG>  (440) 
-7.5999999999999996

>  <r_qp_QPlogKhsa>  (440) 
0.79500000000000004

>  <r_qp_QPlogKp>  (440) 
-2.5150000000000001

>  <r_qp_QPlogPC16>  (440) 
14.035

>  <r_qp_QPlogPo/w>  (440) 
4.8730000000000002

>  <r_qp_QPlogPoct>  (440) 
20.106000000000002

>  <r_qp_QPlogPw>  (440) 
10.670999999999999

>  <r_qp_QPlogS>  (440) 
-4.9809999999999999

>  <r_qp_QPpolrz>  (440) 
43.469000000000001

>  <r_qp_SASA>  (440) 
686.55200000000002

>  <r_qp_SAamideO>  (440) 
0

>  <r_qp_SAfluorine>  (440) 
32.829000000000001

>  <r_qp_WPSA>  (440) 
57.448

>  <r_qp_accptHB>  (440) 
4.2000000000000002

>  <r_qp_dip^2/V>  (440) 
0.020397100000000001

>  <r_qp_dipole>  (440) 
5.024

>  <r_qp_donorHB>  (440) 
2

>  <r_qp_glob>  (440) 
0.81185779999999996

>  <r_qp_mol_MW>  (440) 
406.88600000000002

>  <r_qp_volume>  (440) 
1237.3209999999999

>  <r_sd_BIOSOLVEIT.INFINISEE\_FTREES\_SIMILARITY>  (440) 
0.91300000000000003

>  <r_sd_BIOSOLVEIT.LOGP>  (440) 
4.4912999999999998

>  <r_sd_BIOSOLVEIT.MOLECULAR\_WEIGHT>  (440) 
407.89400000000001

>  <r_sd_BIOSOLVEIT.TPSA>  (440) 
49.729999999999997

>  <i_epik_Tot_Q>  (440) 
1

>  <i_epik_Tot_abs_Q>  (440) 
1

>  <i_f3d_flags>  (440) 
0

>  <i_i_glide_confnum>  (440) 
5

>  <i_i_glide_lignum>  (440) 
365

>  <i_i_glide_posenum>  (440) 
9

>  <i_i_glide_rotatable_bonds>  (440) 
7

>  <i_lp_mmshare_version>  (440) 
65135

>  <i_m_ct_format>  (440) 
2

>  <i_m_source_file_index>  (440) 
1102

>  <i_qp_#NandO>  (440) 
3

>  <i_qp_#acid>  (440) 
0

>  <i_qp_#amide>  (440) 
0

>  <i_qp_#amidine>  (440) 
0

>  <i_qp_#amine>  (440) 
1

>  <i_qp_#in34>  (440) 
0

>  <i_qp_#in56>  (440) 
22

>  <i_qp_#metab>  (440) 
5

>  <i_qp_#nonHatm>  (440) 
29

>  <i_qp_#noncon>  (440) 
0

>  <i_qp_#ringatoms>  (440) 
22

>  <i_qp_#rotor>  (440) 
7

>  <i_qp_#rtvFG>  (440) 
0

>  <i_qp_#stars>  (440) 
1

>  <i_qp_CNS>  (440) 
1

>  <i_qp_HumanOralAbsorption>  (440) 
3

>  <i_qp_RuleOfFive>  (440) 
0

>  <i_qp_RuleOfThree>  (440) 
0

>  <i_sd_BIOSOLVEIT.INFINISEE\_REAGENT1\_NAME>  (440) 
8627194

>  <i_sd_BIOSOLVEIT.INFINISEE\_REAGENT2\_NAME>  (440) 
7471132

>  <i_sd_BIOSOLVEIT.INFINISEE\_RESULT\_RANK>  (440) 
33417

>  <i_sd_version>  (440) 
0

>  <b_lp_Chiralities_Consistent>  (440) 
1

>  <b_sd_chiral_flag>  (440) 
0

>  <canonical_id>  (440) 
ATP-HTVS-45A004EDB829

>  <compound_code>  (440) 
35234

>  <title>  (440) 
m_2230bbb____8627194____7471132

>  <variant>  (440) 
35234-2

>  <source_file>  (440) 
运行/运行/ATP-VSW/ATP-VSW-DOCK_HTVS_1-002_lib.maegz

>  <canonical_smiles>  (440) 
OC[C@@H]([NH2+]Cc1nc2ccccc2c(-c2ccccc2)c1Cl)c1ccccc1F

>  <scaffold>  (440) 
c1ccc(C[NH2+]Cc2cc(-c3ccccc3)c3ccccc3n2)cc1

>  <molecular_formula>  (440) 
C24H21ClFN2O+

$$$$
ATP-HTVS-45C9FDCE5200
     RDKit          3D

 55 58  0  0  0  0  0  0  0  0999 V2000
  201.6757  180.2075  154.2070 O   0  0  0  0  0  0  0  0  0  0  0  0
  200.7852  179.4476  154.5746 C   0  0  0  0  0  0  0  0  0  0  0  0
  199.8799  179.7000  155.5387 N   0  0  0  0  0  0  0  0  0  0  0  0
  199.6221  180.9326  156.2048 C   0  0  0  0  0  0  0  0  0  0  0  0
  198.3940  181.0543  156.8906 C   0  0  0  0  0  0  0  0  0  0  0  0
  198.0727  182.2446  157.5729 C   0  0  0  0  0  0  0  0  0  0  0  0
  198.9690  183.3294  157.5748 C   0  0  0  0  0  0  0  0  0  0  0  0
  200.1907  183.2203  156.8951 C   0  0  0  0  0  0  0  0  0  0  0  0
  200.5197  182.0322  156.2134 C   0  0  0  0  0  0  0  0  0  0  0  0
  196.7841  182.3327  158.3560 C   0  0  1  0  0  0  0  0  0  0  0  0
  195.5523  182.4382  157.4375 C   0  0  1  0  0  0  0  0  0  0  0  0
  194.2654  182.5164  158.1675 N   0  0  2  0  0  0  0  0  0  0  0  0
  194.1439  183.7030  159.0450 C   0  0  2  0  0  0  0  0  0  0  0  0
  193.9201  181.2556  158.8481 C   0  0  2  0  0  0  0  0  0  0  0  0
  200.5894  178.1472  153.8549 C   0  0  0  0  0  0  0  0  0  0  0  0
  201.0009  176.8898  154.3695 C   0  0  0  0  0  0  0  0  0  0  0  0
  200.7598  175.7368  153.5665 C   0  0  0  0  0  0  0  0  0  0  0  0
  200.1677  175.8083  152.3562 N   0  0  0  0  0  0  0  0  0  0  0  0
  199.7965  177.0051  151.8543 C   0  0  0  0  0  0  0  0  0  0  0  0
  199.1641  176.9863  150.5166 C   0  0  0  0  0  0  0  0  0  0  0  0
  198.3386  178.0466  150.0695 C   0  0  0  0  0  0  0  0  0  0  0  0
  197.7437  178.0953  148.8587 N   0  0  0  0  0  0  0  0  0  0  0  0
  197.9612  177.0710  148.0114 C   0  0  0  0  0  0  0  0  0  0  0  0
  198.7565  175.9598  148.3375 C   0  0  0  0  0  0  0  0  0  0  0  0
  199.3639  175.9194  149.6061 C   0  0  0  0  0  0  0  0  0  0  0  0
  199.9951  178.1959  152.5810 C   0  0  0  0  0  0  0  0  0  0  0  0
  201.1622  174.4780  154.0567 C   0  0  0  0  0  0  0  0  0  0  0  0
  201.8094  174.3499  155.2977 C   0  0  0  0  0  0  0  0  0  0  0  0
  202.0656  175.4904  156.0756 C   0  0  0  0  0  0  0  0  0  0  0  0
  201.6631  176.7568  155.6152 C   0  0  0  0  0  0  0  0  0  0  0  0
  199.2134  178.9619  155.7108 H   0  0  0  0  0  0  0  0  0  0  0  0
  197.6953  180.2265  156.9206 H   0  0  0  0  0  0  0  0  0  0  0  0
  198.7358  184.2346  158.1208 H   0  0  0  0  0  0  0  0  0  0  0  0
  200.8823  184.0451  156.9032 H   0  0  0  0  0  0  0  0  0  0  0  0
  201.4725  181.9985  155.7126 H   0  0  0  0  0  0  0  0  0  0  0  0
  196.7420  181.4467  158.9949 H   0  0  0  0  0  0  0  0  0  0  0  0
  196.8518  183.1999  159.0154 H   0  0  0  0  0  0  0  0  0  0  0  0
  195.6514  183.3290  156.8138 H   0  0  0  0  0  0  0  0  0  0  0  0
  195.5172  181.5862  156.7548 H   0  0  0  0  0  0  0  0  0  0  0  0
  194.8414  183.6706  159.8844 H   0  0  0  0  0  0  0  0  0  0  0  0
  193.1437  183.7894  159.4655 H   0  0  0  0  0  0  0  0  0  0  0  0
  194.3331  184.6203  158.4903 H   0  0  0  0  0  0  0  0  0  0  0  0
  194.6369  181.0381  159.6413 H   0  0  0  0  0  0  0  0  0  0  0  0
  193.9053  180.4323  158.1348 H   0  0  0  0  0  0  0  0  0  0  0  0
  192.9292  181.2902  159.2973 H   0  0  0  0  0  0  0  0  0  0  0  0
  198.1261  178.8949  150.7052 H   0  0  0  0  0  0  0  0  0  0  0  0
  197.4893  177.1399  147.0426 H   0  0  0  0  0  0  0  0  0  0  0  0
  198.9024  175.1577  147.6303 H   0  0  0  0  0  0  0  0  0  0  0  0
  199.9845  175.0729  149.8685 H   0  0  0  0  0  0  0  0  0  0  0  0
  199.7178  179.1556  152.1699 H   0  0  0  0  0  0  0  0  0  0  0  0
  200.9704  173.5978  153.4615 H   0  0  0  0  0  0  0  0  0  0  0  0
  202.1178  173.3743  155.6453 H   0  0  0  0  0  0  0  0  0  0  0  0
  202.5794  175.3931  157.0211 H   0  0  0  0  0  0  0  0  0  0  0  0
  201.8948  177.6173  156.2270 H   0  0  0  0  0  0  0  0  0  0  0  0
  193.5980  182.6369  157.4074 H   0  0  0  0  0  0  0  0  0  0  0  0
  1  2  2  0
  2  3  1  0
  2 15  1  0
  3  4  1  0
  3 31  1  0
  4  5  2  0
  4  9  1  0
  5  6  1  0
  5 32  1  0
  6  7  2  0
  6 10  1  0
  7  8  1  0
  7 33  1  0
  8  9  2  0
  8 34  1  0
  9 35  1  0
 10 11  1  0
 10 36  1  1
 10 37  1  0
 11 12  1  0
 11 38  1  6
 11 39  1  0
 12 13  1  0
 12 14  1  0
 12 55  1  6
 13 40  1  1
 13 41  1  0
 13 42  1  0
 14 43  1  1
 14 44  1  0
 14 45  1  0
 15 16  1  0
 15 26  2  0
 16 17  1  0
 16 30  2  0
 17 18  1  0
 17 27  2  0
 18 19  2  0
 19 20  1  0
 19 26  1  0
 20 21  2  0
 20 25  1  0
 21 22  1  0
 21 46  1  0
 22 23  2  0
 23 24  1  0
 23 47  1  0
 24 25  2  0
 24 48  1  0
 25 49  1  0
 26 50  1  0
 27 28  1  0
 27 51  1  0
 28 29  2  0
 28 52  1  0
 29 30  1  0
 29 53  1  0
 30 54  1  0
M  CHG  1  12   1
M  END
>  <s_epik_cmdline>  (441) 
J2VwaWtfcHl0aG9uJywgJy1waCcsICc3LjAwMDAwMCcsICctcGh0JywgJzIuMDAwMDAwJywgJy1tcycsICcxNicsICctdG4nLCAnOCcsICctbWEnLCAnMjAwJywgJy1pbWFlJywgJzxpbmZpbGUubWFlPicsICctb21hZScsICc8b3V0ZmlsZS5tYWU+Jw==

>  <s_epik_input>  (441) 
W0NIM11OKFtDSDNdKVtDSDJdW0NIMl1jKFtjSF1bY0hdW2NIXTEpW2NIXWMxW05IXUMoPU8pYzJbY0hdYyhuYyhjMjMpW2NIXVtjSF1bY0hdW2NIXTMpLWM0W2NIXW5bY0hdW2NIXVtjSF00

>  <s_i_glide_gridfile>  (441) 
ATP-Grid

>  <s_lp_Force_Field>  (441) 
OPLS_2005

>  <s_lp_Variant>  (441) 
m_22bbe____21011074____24596716-1

>  <s_lp_label>  (441) 
2112_sdstereoexpander_1_neutralizer_1_epik_1_stereoizer_1

>  <s_m_source_file>  (441) 
ATP-VSW-LIGPREP-002-in.maegz

>  <s_sd_BIOSOLVEIT.INFINISEE\_QUERY\_NAME>  (441) 
Ref-Lig

>  <s_sd_BIOSOLVEIT.INFINISEE\_QUERY\_SMILES>  (441) 
S(c1nc2c(cc1C[NH2+]Cc3ccc(cc3)C[NH+](C)C)cccc2)Cc4ccccc4

>  <s_sd_BIOSOLVEIT.INFINISEE\_REACTION\_NAME>  (441) 
m_22bbe

>  <s_sd_BIOSOLVEIT.INFINISEE\_REAGENT1\_SMILES>  (441) 
[R1*]Nc1cc(ccc1)CCN(C)C

>  <s_sd_BIOSOLVEIT.INFINISEE\_REAGENT2\_SMILES>  (441) 
[R1*]C(=O)c1c2c(nc(c3cnccc3)c1)cccc2

>  <s_sd_BIOSOLVEIT.INFINISEE\_SPACE>  (441) 
REALSpace_44bn_2023-08

>  <s_vsw_compound_code>  (441) 
67554

>  <s_vsw_variant>  (441) 
67554-1

>  <r_epik_Charging_Adjusted_Penalty>  (441) 
0.0083786032408328607

>  <r_epik_Ionization_Penalty>  (441) 
0.0044999999999999997

>  <r_epik_Ionization_Penalty_Charging>  (441) 
0.0041999999999999997

>  <r_epik_Ionization_Penalty_Neutral>  (441) 
0.00029999999999999997

>  <r_epik_State_Penalty>  (441) 
0.0041999999999999997

>  <r_i_docking_score>  (441) 
-4.7906905246556404

>  <r_i_glide_ecoul>  (441) 
-9.6781454086303693

>  <r_i_glide_eff_state_penalty>  (441) 
0.0041999999999999997

>  <r_i_glide_einternal>  (441) 
3.9639258384704599

>  <r_i_glide_emodel>  (441) 
-55.6425218259484

>  <r_i_glide_energy>  (441) 
-40.201804161071799

>  <r_i_glide_erotb>  (441) 
0.74336557954494098

>  <r_i_glide_esite>  (441) 
-0.12074030820835401

>  <r_i_glide_evdw>  (441) 
-30.523658752441399

>  <r_i_glide_gscore>  (441) 
-4.7948905246556404

>  <r_i_glide_hbond>  (441) 
-0.15742964087949299

>  <r_i_glide_ligand_efficiency>  (441) 
-0.159689684155188

>  <r_i_glide_ligand_efficiency_ln>  (441) 
-1.0884970859558201

>  <r_i_glide_ligand_efficiency_sa>  (441) 
-0.49619297690995501

>  <r_i_glide_lipo>  (441) 
-1.5832645880142899

>  <r_i_glide_metal>  (441) 
-0

>  <r_i_glide_rewards>  (441) 
-0.69891681818181695

>  <r_lp_Energy>  (441) 
37.729903999999998

>  <r_qp_ACxDN^.5/SA>  (441) 
0.0090828999999999997

>  <r_qp_CIQPlogS>  (441) 
-4.7439999999999998

>  <r_qp_EA(eV)>  (441) 
1.425

>  <r_qp_FISA>  (441) 
79.721000000000004

>  <r_qp_FOSA>  (441) 
208.77699999999999

>  <r_qp_IP(eV)>  (441) 
8.9770000000000003

>  <r_qp_Jm>  (441) 
0.0022653760591686101

>  <r_qp_PISA>  (441) 
482.18000000000001

>  <r_qp_PSA>  (441) 
61.578000000000003

>  <r_qp_PercentHumanOralAbsorption>  (441) 
100

>  <r_qp_QPPCaco>  (441) 
433.31700000000001

>  <r_qp_QPPMDCK>  (441) 
221.64599999999999

>  <r_qp_QPlogBB>  (441) 
-0.307

>  <r_qp_QPlogHERG>  (441) 
-8.3520000000000003

>  <r_qp_QPlogKhsa>  (441) 
0.61099999999999999

>  <r_qp_QPlogKp>  (441) 
-2.7770000000000001

>  <r_qp_QPlogPC16>  (441) 
15.121

>  <r_qp_QPlogPo/w>  (441) 
4.2649999999999997

>  <r_qp_QPlogPoct>  (441) 
21.550999999999998

>  <r_qp_QPlogPw>  (441) 
12.432

>  <r_qp_QPlogS>  (441) 
-5.4660000000000002

>  <r_qp_QPpolrz>  (441) 
48.520000000000003

>  <r_qp_SASA>  (441) 
770.678

>  <r_qp_SAamideO>  (441) 
0

>  <r_qp_SAfluorine>  (441) 
0

>  <r_qp_WPSA>  (441) 
0

>  <r_qp_accptHB>  (441) 
7

>  <r_qp_dip^2/V>  (441) 
0.020757899999999999

>  <r_qp_dipole>  (441) 
5.2889999999999997

>  <r_qp_donorHB>  (441) 
1

>  <r_qp_glob>  (441) 
0.76551360000000002

>  <r_qp_mol_MW>  (441) 
396.49099999999999

>  <r_qp_volume>  (441) 
1347.383

>  <r_sd_BIOSOLVEIT.INFINISEE\_FTREES\_SIMILARITY>  (441) 
0.90100000000000002

>  <r_sd_BIOSOLVEIT.LOGP>  (441) 
3.2361

>  <r_sd_BIOSOLVEIT.MOLECULAR\_WEIGHT>  (441) 
397.5

>  <r_sd_BIOSOLVEIT.TPSA>  (441) 
59.32

>  <i_epik_Tot_Q>  (441) 
1

>  <i_epik_Tot_abs_Q>  (441) 
1

>  <i_f3d_flags>  (441) 
0

>  <i_i_glide_confnum>  (441) 
5

>  <i_i_glide_lignum>  (441) 
758

>  <i_i_glide_posenum>  (441) 
17

>  <i_i_glide_rotatable_bonds>  (441) 
7

>  <i_lp_mmshare_version>  (441) 
65135

>  <i_m_ct_format>  (441) 
2

>  <i_m_source_file_index>  (441) 
2112

>  <i_qp_#NandO>  (441) 
5

>  <i_qp_#acid>  (441) 
0

>  <i_qp_#amide>  (441) 
0

>  <i_qp_#amidine>  (441) 
0

>  <i_qp_#amine>  (441) 
1

>  <i_qp_#in34>  (441) 
0

>  <i_qp_#in56>  (441) 
22

>  <i_qp_#metab>  (441) 
5

>  <i_qp_#nonHatm>  (441) 
30

>  <i_qp_#noncon>  (441) 
0

>  <i_qp_#ringatoms>  (441) 
22

>  <i_qp_#rotor>  (441) 
6

>  <i_qp_#rtvFG>  (441) 
0

>  <i_qp_#stars>  (441) 
1

>  <i_qp_CNS>  (441) 
1

>  <i_qp_HumanOralAbsorption>  (441) 
3

>  <i_qp_RuleOfFive>  (441) 
0

>  <i_qp_RuleOfThree>  (441) 
0

>  <i_sd_BIOSOLVEIT.INFINISEE\_REAGENT1\_NAME>  (441) 
21011074

>  <i_sd_BIOSOLVEIT.INFINISEE\_REAGENT2\_NAME>  (441) 
24596716

>  <i_sd_BIOSOLVEIT.INFINISEE\_RESULT\_RANK>  (441) 
97992

>  <i_sd_version>  (441) 
0

>  <b_lp_Chiralities_Consistent>  (441) 
1

>  <b_sd_chiral_flag>  (441) 
0

>  <canonical_id>  (441) 
ATP-HTVS-45C9FDCE5200

>  <compound_code>  (441) 
67554

>  <title>  (441) 
m_22bbe____21011074____24596716

>  <variant>  (441) 
67554-1

>  <source_file>  (441) 
运行/运行/ATP-VSW/ATP-VSW-DOCK_HTVS_1-002_lib.maegz

>  <canonical_smiles>  (441) 
C[NH+](C)CCc1cccc(NC(=O)c2cc(-c3cccnc3)nc3ccccc23)c1

>  <scaffold>  (441) 
O=C(Nc1ccccc1)c1cc(-c2cccnc2)nc2ccccc12

>  <molecular_formula>  (441) 
C25H25N4O+

$$$$
ATP-HTVS-45EC04A30F13
     RDKit          3D

 63 65  0  0  0  0  0  0  0  0999 V2000
  195.4813  187.0124  159.8237 O   0  0  0  0  0  0  0  0  0  0  0  0
  196.6446  187.3792  159.1764 C   0  0  0  0  0  0  0  0  0  0  0  0
  197.1016  188.7405  159.3243 C   0  0  0  0  0  0  0  0  0  0  0  0
  196.3579  189.6011  160.1105 O   0  0  0  0  0  0  0  0  0  0  0  0
  196.8855  190.9059  160.3200 C   0  0  2  0  0  0  0  0  0  0  0  0
  198.2807  189.1460  158.6263 C   0  0  0  0  0  0  0  0  0  0  0  0
  199.0335  188.2231  157.8637 C   0  0  0  0  0  0  0  0  0  0  0  0
  198.5532  186.8814  157.7218 C   0  0  0  0  0  0  0  0  0  0  0  0
  197.3331  186.4859  158.3229 C   0  0  0  0  0  0  0  0  0  0  0  0
  199.3555  185.8746  156.9065 C   0  0  1  0  0  0  0  0  0  0  0  0
  200.0474  184.8931  157.7698 N   0  0  0  0  0  0  0  0  0  0  0  0
  200.6675  183.7876  157.0154 C   0  0  1  0  0  0  0  0  0  0  0  0
  199.7268  182.7698  156.3666 C   0  0  0  0  0  0  0  0  0  0  0  0
  198.3342  182.9986  156.3308 C   0  0  0  0  0  0  0  0  0  0  0  0
  197.5014  182.1068  155.6404 C   0  0  0  0  0  0  0  0  0  0  0  0
  198.0306  180.9474  155.0235 C   0  0  0  0  0  0  0  0  0  0  0  0
  199.4138  180.6656  155.1283 C   0  0  0  0  0  0  0  0  0  0  0  0
  200.2665  181.5787  155.7931 C   0  0  0  0  0  0  0  0  0  0  0  0
  197.0843  180.0360  154.2797 C   0  0  1  0  0  0  0  0  0  0  0  0
  197.0064  180.4014  152.8411 N   0  0  2  0  0  0  0  0  0  0  0  0
  196.5679  181.7984  152.5729 C   0  0  2  0  0  0  0  0  0  0  0  0
  196.2098  179.4194  152.0755 C   0  0  2  0  0  0  0  0  0  0  0  0
  201.1152  185.5598  158.5288 C   0  0  2  0  0  0  0  0  0  0  0  0
  195.4852  185.8630  160.6788 C   0  0  1  0  0  0  0  0  0  0  0  0
  195.4095  184.5711  159.8900 C   0  0  0  0  0  0  0  0  0  0  0  0
  196.5796  183.8408  159.6308 C   0  0  0  0  0  0  0  0  0  0  0  0
  196.5254  182.6750  158.8488 C   0  0  0  0  0  0  0  0  0  0  0  0
  195.3139  182.2471  158.2849 C   0  0  0  0  0  0  0  0  0  0  0  0
  194.1227  182.9507  158.5409 C   0  0  0  0  0  0  0  0  0  0  0  0
  194.1750  184.0921  159.3841 C   0  0  0  0  0  0  0  0  0  0  0  0
  196.2068  191.4422  160.9799 H   0  0  0  0  0  0  0  0  0  0  0  0
  196.9639  191.4578  159.3786 H   0  0  0  0  0  0  0  0  0  0  0  0
  197.8658  190.8465  160.8005 H   0  0  0  0  0  0  0  0  0  0  0  0
  198.6549  190.1852  158.6491 H   0  0  0  0  0  0  0  0  0  0  0  0
  199.9333  188.5211  157.3363 H   0  0  0  0  0  0  0  0  0  0  0  0
  196.9087  185.5197  158.0975 H   0  0  0  0  0  0  0  0  0  0  0  0
  198.6610  185.3926  156.2526 H   0  0  0  0  0  0  0  0  0  0  0  0
  200.1474  186.3969  156.3366 H   0  0  0  0  0  0  0  0  0  0  0  0
  201.2994  184.2354  156.2541 H   0  0  0  0  0  0  0  0  0  0  0  0
  201.3446  183.2283  157.6543 H   0  0  0  0  0  0  0  0  0  0  0  0
  197.9076  183.8569  156.7888 H   0  0  0  0  0  0  0  0  0  0  0  0
  196.4471  182.3227  155.5724 H   0  0  0  0  0  0  0  0  0  0  0  0
  199.8222  179.7504  154.7039 H   0  0  0  0  0  0  0  0  0  0  0  0
  201.3218  181.3585  155.8704 H   0  0  0  0  0  0  0  0  0  0  0  0
  197.4285  179.0033  154.4052 H   0  0  0  0  0  0  0  0  0  0  0  0
  196.0957  180.1019  154.7468 H   0  0  0  0  0  0  0  0  0  0  0  0
  195.5740  181.9936  152.9766 H   0  0  0  0  0  0  0  0  0  0  0  0
  196.5430  181.9995  151.5018 H   0  0  0  0  0  0  0  0  0  0  0  0
  197.2491  182.5368  152.9970 H   0  0  0  0  0  0  0  0  0  0  0  0
  195.1731  179.4248  152.4077 H   0  0  0  0  0  0  0  0  0  0  0  0
  196.6101  178.4160  152.2128 H   0  0  0  0  0  0  0  0  0  0  0  0
  196.2318  179.6536  151.0129 H   0  0  0  0  0  0  0  0  0  0  0  0
  200.7253  186.3445  159.1804 H   0  0  0  0  0  0  0  0  0  0  0  0
  201.8157  186.0290  157.8391 H   0  0  0  0  0  0  0  0  0  0  0  0
  201.6963  184.8920  159.1774 H   0  0  0  0  0  0  0  0  0  0  0  0
  196.3561  185.8647  161.3530 H   0  0  0  0  0  0  0  0  0  0  0  0
  194.6194  185.9133  161.3398 H   0  0  0  0  0  0  0  0  0  0  0  0
  197.5367  184.1612  160.0485 H   0  0  0  0  0  0  0  0  0  0  0  0
  197.4475  182.1658  158.6229 H   0  0  0  0  0  0  0  0  0  0  0  0
  195.3079  181.4178  157.5729 H   0  0  0  0  0  0  0  0  0  0  0  0
  193.1971  182.6324  158.1001 H   0  0  0  0  0  0  0  0  0  0  0  0
  193.2668  184.6608  159.5482 H   0  0  0  0  0  0  0  0  0  0  0  0
  197.9588  180.3428  152.5085 H   0  0  0  0  0  0  0  0  0  0  0  0
  1  2  1  0
  1 24  1  0
  2  3  2  0
  2  9  1  0
  3  4  1  0
  3  6  1  0
  4  5  1  0
  5 31  1  1
  5 32  1  0
  5 33  1  0
  6  7  2  0
  6 34  1  0
  7  8  1  0
  7 35  1  0
  8  9  2  0
  8 10  1  0
  9 36  1  0
 10 11  1  0
 10 37  1  6
 10 38  1  0
 11 12  1  0
 11 23  1  0
 12 13  1  0
 12 39  1  6
 12 40  1  0
 13 14  1  0
 13 18  2  0
 14 15  2  0
 14 41  1  0
 15 16  1  0
 15 42  1  0
 16 17  2  0
 16 19  1  0
 17 18  1  0
 17 43  1  0
 18 44  1  0
 19 20  1  0
 19 45  1  6
 19 46  1  0
 20 21  1  0
 20 22  1  0
 20 63  1  6
 21 47  1  1
 21 48  1  0
 21 49  1  0
 22 50  1  1
 22 51  1  0
 22 52  1  0
 23 53  1  1
 23 54  1  0
 23 55  1  0
 24 25  1  0
 24 56  1  1
 24 57  1  0
 25 26  2  0
 25 30  1  0
 26 27  1  0
 26 58  1  0
 27 28  2  0
 27 59  1  0
 28 29  1  0
 28 60  1  0
 29 30  2  0
 29 61  1  0
 30 62  1  0
M  CHG  1  20   1
M  END
>  <s_epik_cmdline>  (442) 
J2VwaWtfcHl0aG9uJywgJy1waCcsICc3LjAwMDAwMCcsICctcGh0JywgJzIuMDAwMDAwJywgJy1tcycsICcxNicsICctdG4nLCAnOCcsICctbWEnLCAnMjAwJywgJy1pbWFlJywgJzxpbmZpbGUubWFlPicsICctb21hZScsICc8b3V0ZmlsZS5tYWU+Jw==

>  <s_epik_input>  (442) 
W2NIXTFbY0hdW2NIXVtjSF1bY0hdYzFbQ0gyXU9jMmMoT1tDSDNdKVtjSF1bY0hdYyhbY0hdMilbQ0gyXU4oW0NIM10pW0NIMl1jM1tjSF1bY0hdYyhbY0hdW2NIXTMpW0NIMl1OKFtDSDNdKVtDSDNd

>  <s_i_glide_gridfile>  (442) 
ATP-Grid

>  <s_lp_Force_Field>  (442) 
OPLS_2005

>  <s_lp_Variant>  (442) 
m_270004bca____10206040____7547108-3

>  <s_lp_label>  (442) 
1425_sdstereoexpander_1_neutralizer_1_epik_2_stereoizer_1

>  <s_m_source_file>  (442) 
ATP-VSW-LIGPREP-003-in.maegz

>  <s_sd_BIOSOLVEIT.INFINISEE\_QUERY\_NAME>  (442) 
Ref-Lig

>  <s_sd_BIOSOLVEIT.INFINISEE\_QUERY\_SMILES>  (442) 
S(c1nc2c(cc1C[NH2+]Cc3ccc(cc3)C[NH+](C)C)cccc2)Cc4ccccc4

>  <s_sd_BIOSOLVEIT.INFINISEE\_REACTION\_NAME>  (442) 
m_270004bca

>  <s_sd_BIOSOLVEIT.INFINISEE\_REAGENT1\_SMILES>  (442) 
[R1*]N(Cc1ccc(cc1)CN(C)C)C

>  <s_sd_BIOSOLVEIT.INFINISEE\_REAGENT2\_SMILES>  (442) 
[R1*]Cc1cc(OCc2ccccc2)c(OC)cc1

>  <s_sd_BIOSOLVEIT.INFINISEE\_SPACE>  (442) 
REALSpace_44bn_2023-08

>  <s_vsw_compound_code>  (442) 
45571

>  <s_vsw_variant>  (442) 
45571-3

>  <r_epik_Charging_Adjusted_Penalty>  (442) 
1.05800135818265

>  <r_epik_Ionization_Penalty>  (442) 
1.0274000000000001

>  <r_epik_Ionization_Penalty_Charging>  (442) 
0.045400000000000003

>  <r_epik_Ionization_Penalty_Neutral>  (442) 
0.98199999999999998

>  <r_epik_State_Penalty>  (442) 
1.0125999999999999

>  <r_i_docking_score>  (442) 
-2.71323008229637

>  <r_i_glide_ecoul>  (442) 
-4.6081519126892099

>  <r_i_glide_eff_state_penalty>  (442) 
1.0125999999999999

>  <r_i_glide_einternal>  (442) 
4.3520812988281197

>  <r_i_glide_emodel>  (442) 
-47.791199953436603

>  <r_i_glide_energy>  (442) 
-37.962224483489997

>  <r_i_glide_erotb>  (442) 
0.95596695552106303

>  <r_i_glide_esite>  (442) 
0

>  <r_i_glide_evdw>  (442) 
-33.354072570800803

>  <r_i_glide_gscore>  (442) 
-3.7258300822963699

>  <r_i_glide_hbond>  (442) 
0

>  <r_i_glide_ligand_efficiency>  (442) 
-0.090441002743212304

>  <r_i_glide_ligand_efficiency_ln>  (442) 
-0.61647543770729296

>  <r_i_glide_ligand_efficiency_sa>  (442) 
-0.28102122327616802

>  <r_i_glide_lipo>  (442) 
-1.6789098496467401

>  <r_i_glide_metal>  (442) 
-0

>  <r_i_glide_rewards>  (442) 
-0.64396077272727104

>  <r_lp_Energy>  (442) 
28.110569000000002

>  <r_lp_tautomer_probability>  (442) 
1

>  <r_qp_ACxDN^.5/SA>  (442) 
0

>  <r_qp_CIQPlogS>  (442) 
-4.0960000000000001

>  <r_qp_EA(eV)>  (442) 
-0.255

>  <r_qp_FISA>  (442) 
3.6400000000000001

>  <r_qp_FOSA>  (442) 
379.34500000000003

>  <r_qp_IP(eV)>  (442) 
8.5239999999999991

>  <r_qp_Jm>  (442) 
0.27606275066378599

>  <r_qp_PISA>  (442) 
316.73099999999999

>  <r_qp_PSA>  (442) 
24.495000000000001

>  <r_qp_PercentHumanOralAbsorption>  (442) 
100

>  <r_qp_QPPCaco>  (442) 
569.08900000000006

>  <r_qp_QPPMDCK>  (442) 
329.221

>  <r_qp_QPlogBB>  (442) 
0.72299999999999998

>  <r_qp_QPlogHERG>  (442) 
-7.085

>  <r_qp_QPlogKhsa>  (442) 
0.61099999999999999

>  <r_qp_QPlogKp>  (442) 
-3.6360000000000001

>  <r_qp_QPlogPC16>  (442) 
12.882999999999999

>  <r_qp_QPlogPo/w>  (442) 
4.649

>  <r_qp_QPlogPoct>  (442) 
17.032

>  <r_qp_QPlogPw>  (442) 
6.7939999999999996

>  <r_qp_QPlogS>  (442) 
-2.5299999999999998

>  <r_qp_QPpolrz>  (442) 
44.066000000000003

>  <r_qp_SASA>  (442) 
699.71600000000001

>  <r_qp_SAamideO>  (442) 
0

>  <r_qp_SAfluorine>  (442) 
0

>  <r_qp_WPSA>  (442) 
0

>  <r_qp_accptHB>  (442) 
5.5

>  <r_qp_dip^2/V>  (442) 
0.0024359

>  <r_qp_dipole>  (442) 
1.8069999999999999

>  <r_qp_donorHB>  (442) 
0

>  <r_qp_glob>  (442) 
0.83994970000000002

>  <r_qp_mol_MW>  (442) 
404.55099999999999

>  <r_qp_volume>  (442) 
1339.7239999999999

>  <r_sd_BIOSOLVEIT.INFINISEE\_FTREES\_SIMILARITY>  (442) 
0.90800000000000003

>  <r_sd_BIOSOLVEIT.LOGP>  (442) 
2.1335999999999999

>  <r_sd_BIOSOLVEIT.MOLECULAR\_WEIGHT>  (442) 
406.56700000000001

>  <r_sd_BIOSOLVEIT.TPSA>  (442) 
27.34

>  <i_epik_Tot_Q>  (442) 
1

>  <i_epik_Tot_abs_Q>  (442) 
1

>  <i_f3d_flags>  (442) 
0

>  <i_i_glide_confnum>  (442) 
6

>  <i_i_glide_lignum>  (442) 
550

>  <i_i_glide_posenum>  (442) 
20

>  <i_i_glide_rotatable_bonds>  (442) 
10

>  <i_lp_mmshare_version>  (442) 
65135

>  <i_m_ct_format>  (442) 
2

>  <i_m_source_file_index>  (442) 
1425

>  <i_qp_#NandO>  (442) 
4

>  <i_qp_#acid>  (442) 
0

>  <i_qp_#amide>  (442) 
0

>  <i_qp_#amidine>  (442) 
0

>  <i_qp_#amine>  (442) 
2

>  <i_qp_#in34>  (442) 
0

>  <i_qp_#in56>  (442) 
18

>  <i_qp_#metab>  (442) 
8

>  <i_qp_#nonHatm>  (442) 
30

>  <i_qp_#noncon>  (442) 
0

>  <i_qp_#ringatoms>  (442) 
18

>  <i_qp_#rotor>  (442) 
10

>  <i_qp_#rtvFG>  (442) 
0

>  <i_qp_#stars>  (442) 
1

>  <i_qp_CNS>  (442) 
2

>  <i_qp_HumanOralAbsorption>  (442) 
3

>  <i_qp_RuleOfFive>  (442) 
0

>  <i_qp_RuleOfThree>  (442) 
1

>  <i_sd_BIOSOLVEIT.INFINISEE\_REAGENT1\_NAME>  (442) 
10206040

>  <i_sd_BIOSOLVEIT.INFINISEE\_REAGENT2\_NAME>  (442) 
7547108

>  <i_sd_BIOSOLVEIT.INFINISEE\_RESULT\_RANK>  (442) 
54429

>  <i_sd_version>  (442) 
0

>  <b_lp_Chiralities_Consistent>  (442) 
1

>  <b_sd_chiral_flag>  (442) 
0

>  <canonical_id>  (442) 
ATP-HTVS-45EC04A30F13

>  <compound_code>  (442) 
45571

>  <title>  (442) 
m_270004bca____10206040____7547108

>  <variant>  (442) 
45571-3

>  <source_file>  (442) 
运行/运行/ATP-VSW/ATP-VSW-DOCK_HTVS_1-003_lib/ATP-VSW-DOCK_HTVS_1-003_lib.mae

>  <canonical_smiles>  (442) 
COc1ccc(CN(C)Cc2ccc(C[NH+](C)C)cc2)cc1OCc1ccccc1

>  <scaffold>  (442) 
c1ccc(CNCc2cccc(OCc3ccccc3)c2)cc1

>  <molecular_formula>  (442) 
C26H33N2O2+

$$$$
ATP-HTVS-461088EC3581
     RDKit          3D

 53 56  0  0  0  0  0  0  0  0999 V2000
  196.8606  186.4438  160.1153 Cl  0  0  0  0  0  0  0  0  0  0  0  0
  196.1306  185.0324  159.4319 C   0  0  0  0  0  0  0  0  0  0  0  0
  196.8118  184.0730  158.6180 C   0  0  0  0  0  0  0  0  0  0  0  0
  196.0692  182.9878  158.0958 C   0  0  0  0  0  0  0  0  0  0  0  0
  194.6968  182.8467  158.3768 C   0  0  0  0  0  0  0  0  0  0  0  0
  194.0366  183.8043  159.1599 C   0  0  0  0  0  0  0  0  0  0  0  0
  194.7574  184.8785  159.6994 C   0  0  0  0  0  0  0  0  0  0  0  0
  196.7316  182.0141  157.2386 C   0  0  0  0  0  0  0  0  0  0  0  0
  198.0449  182.1047  156.9356 C   0  0  0  0  0  0  0  0  0  0  0  0
  198.8219  183.1911  157.4506 N   0  0  0  0  0  0  0  0  0  0  0  0
  200.2063  183.3052  157.0979 C   0  0  0  0  0  0  0  0  0  0  0  0
  201.2081  183.1701  158.0893 C   0  0  0  0  0  0  0  0  0  0  0  0
  202.5703  183.2759  157.7472 C   0  0  0  0  0  0  0  0  0  0  0  0
  202.9457  183.5036  156.4110 C   0  0  0  0  0  0  0  0  0  0  0  0
  201.9559  183.6513  155.4196 C   0  0  0  0  0  0  0  0  0  0  0  0
  200.5921  183.5874  155.7677 C   0  0  0  0  0  0  0  0  0  0  0  0
  198.2894  184.1594  158.2626 C   0  0  0  0  0  0  0  0  0  0  0  0
  198.9698  185.0890  158.7020 O   0  0  0  0  0  0  0  0  0  0  0  0
  198.7415  181.0510  156.0479 C   0  0  2  0  0  0  0  0  0  0  0  0
  197.8115  180.3963  155.1329 N   0  0  0  0  0  0  0  0  0  0  0  0
  198.5111  179.6736  154.0749 C   0  0  1  0  0  0  0  0  0  0  0  0
  197.9027  179.8971  152.7025 C   0  0  0  0  0  0  0  0  0  0  0  0
  197.4127  181.1693  152.3346 C   0  0  0  0  0  0  0  0  0  0  0  0
  196.8410  181.3818  151.0576 C   0  0  0  0  0  0  0  0  0  0  0  0
  196.3383  182.5918  150.6332 O   0  0  0  0  0  0  0  0  0  0  0  0
  196.4554  183.7051  151.5096 C   0  0  2  0  0  0  0  0  0  0  0  0
  196.7796  180.3006  150.1532 C   0  0  0  0  0  0  0  0  0  0  0  0
  197.2925  179.0369  150.5024 C   0  0  0  0  0  0  0  0  0  0  0  0
  197.8612  178.8393  151.7740 C   0  0  0  0  0  0  0  0  0  0  0  0
  199.4777  179.9916  156.8904 C   0  0  2  0  0  0  0  0  0  0  0  0
  197.2365  179.7588  155.6737 H   0  0  0  0  0  0  0  0  0  0  0  0
  194.1419  182.0247  157.9481 H   0  0  0  0  0  0  0  0  0  0  0  0
  192.9742  183.7230  159.3270 H   0  0  0  0  0  0  0  0  0  0  0  0
  194.2454  185.6167  160.2948 H   0  0  0  0  0  0  0  0  0  0  0  0
  196.1221  181.2007  156.8684 H   0  0  0  0  0  0  0  0  0  0  0  0
  200.9323  182.9840  159.1207 H   0  0  0  0  0  0  0  0  0  0  0  0
  203.3260  183.1737  158.5123 H   0  0  0  0  0  0  0  0  0  0  0  0
  203.9910  183.5539  156.1406 H   0  0  0  0  0  0  0  0  0  0  0  0
  202.2379  183.8060  154.3878 H   0  0  0  0  0  0  0  0  0  0  0  0
  199.8428  183.7204  154.9990 H   0  0  0  0  0  0  0  0  0  0  0  0
  199.4633  181.5356  155.3992 H   0  0  0  0  0  0  0  0  0  0  0  0
  199.5541  179.9836  153.9836 H   0  0  0  0  0  0  0  0  0  0  0  0
  198.5268  178.6137  154.3239 H   0  0  0  0  0  0  0  0  0  0  0  0
  197.4850  181.9723  153.0529 H   0  0  0  0  0  0  0  0  0  0  0  0
  195.9890  184.5704  151.0420 H   0  0  0  0  0  0  0  0  0  0  0  0
  197.5019  183.9497  151.6957 H   0  0  0  0  0  0  0  0  0  0  0  0
  195.9539  183.5336  152.4628 H   0  0  0  0  0  0  0  0  0  0  0  0
  196.3460  180.4428  149.1764 H   0  0  0  0  0  0  0  0  0  0  0  0
  197.2544  178.2227  149.7964 H   0  0  0  0  0  0  0  0  0  0  0  0
  198.2629  177.8705  152.0370 H   0  0  0  0  0  0  0  0  0  0  0  0
  200.2144  180.4404  157.5544 H   0  0  0  0  0  0  0  0  0  0  0  0
  200.0207  179.2702  156.2771 H   0  0  0  0  0  0  0  0  0  0  0  0
  198.7663  179.4386  157.5030 H   0  0  0  0  0  0  0  0  0  0  0  0
  1  2  1  0
  2  3  2  0
  2  7  1  0
  3  4  1  0
  3 17  1  0
  4  5  2  0
  4  8  1  0
  5  6  1  0
  5 32  1  0
  6  7  2  0
  6 33  1  0
  7 34  1  0
  8  9  2  0
  8 35  1  0
  9 10  1  0
  9 19  1  0
 10 11  1  0
 10 17  1  0
 11 12  2  0
 11 16  1  0
 12 13  1  0
 12 36  1  0
 13 14  2  0
 13 37  1  0
 14 15  1  0
 14 38  1  0
 15 16  2  0
 15 39  1  0
 16 40  1  0
 17 18  2  0
 19 20  1  0
 19 30  1  0
 19 41  1  6
 20 21  1  0
 20 31  1  0
 21 22  1  0
 21 42  1  6
 21 43  1  0
 22 23  1  0
 22 29  2  0
 23 24  2  0
 23 44  1  0
 24 25  1  0
 24 27  1  0
 25 26  1  0
 26 45  1  6
 26 46  1  0
 26 47  1  0
 27 28  2  0
 27 48  1  0
 28 29  1  0
 28 49  1  0
 29 50  1  0
 30 51  1  1
 30 52  1  0
 30 53  1  0
M  END
>  <s_epik_cmdline>  (443) 
J2VwaWtfcHl0aG9uJywgJy1waCcsICc3LjAwMDAwMCcsICctcGh0JywgJzIuMDAwMDAwJywgJy1tcycsICcxNicsICctdG4nLCAnOCcsICctbWEnLCAnMjAwJywgJy1pbWFlJywgJzxpbmZpbGUubWFlPicsICctb21hZScsICc8b3V0ZmlsZS5tYWU+Jw==

>  <s_epik_input>  (443) 
Q2xjMVtjSF1bY0hdW2NIXWMoYzEyKVtjSF1jKG4oYzI9TyktYzNbY0hdW2NIXVtjSF1bY0hdW2NIXTMpW0NAQEhdKFtDSDNdKVtOSF1bQ0gyXWM0W2NIXWMoT1tDSDNdKVtjSF1bY0hdW2NIXTQ=

>  <s_i_glide_gridfile>  (443) 
ATP-Grid

>  <s_lp_Force_Field>  (443) 
OPLS_2005

>  <s_lp_Variant>  (443) 
a4____33703____58185-3

>  <s_lp_label>  (443) 
421_sdstereoexpander_1_neutralizer_1_epik_2_stereoizer_1

>  <s_m_source_file>  (443) 
ATP-VSW-LIGPREP-002-in.maegz

>  <s_sd_BIOSOLVEIT.INFINISEE\_QUERY\_NAME>  (443) 
Ref-Lig

>  <s_sd_BIOSOLVEIT.INFINISEE\_QUERY\_SMILES>  (443) 
S(c1nc2c(cc1C[NH2+]Cc3ccc(cc3)C[NH+](C)C)cccc2)Cc4ccccc4

>  <s_sd_BIOSOLVEIT.INFINISEE\_REACTION\_NAME>  (443) 
a4

>  <s_sd_BIOSOLVEIT.INFINISEE\_REAGENT1\_SMILES>  (443) 
[R1*]NC(C=1N(c2ccccc2)C(=O)c3c(Cl)cccc3C1)C

>  <s_sd_BIOSOLVEIT.INFINISEE\_REAGENT2\_SMILES>  (443) 
[R1*]Cc1cc(OC)ccc1

>  <s_sd_BIOSOLVEIT.INFINISEE\_SPACE>  (443) 
FreedomSpace_5bn_2023-06

>  <s_vsw_compound_code>  (443) 
13442

>  <s_vsw_variant>  (443) 
13442-3

>  <r_epik_Charging_Adjusted_Penalty>  (443) 
0.71998630484411996

>  <r_epik_Ionization_Penalty>  (443) 
0.71999999999999997

>  <r_epik_Ionization_Penalty_Charging>  (443) 
0

>  <r_epik_Ionization_Penalty_Neutral>  (443) 
0.71999999999999997

>  <r_epik_State_Penalty>  (443) 
0.71999999999999997

>  <r_i_docking_score>  (443) 
-2.4491593259198399

>  <r_i_glide_ecoul>  (443) 
-1.72525203227997

>  <r_i_glide_eff_state_penalty>  (443) 
0.71999999999999997

>  <r_i_glide_einternal>  (443) 
2.16765356063843

>  <r_i_glide_emodel>  (443) 
-40.597891757996798

>  <r_i_glide_energy>  (443) 
-34.399278521537802

>  <r_i_glide_erotb>  (443) 
0.56352594388051003

>  <r_i_glide_esite>  (443) 
-0.00357514834476815

>  <r_i_glide_evdw>  (443) 
-32.674026489257798

>  <r_i_glide_gscore>  (443) 
-3.1691593259198401

>  <r_i_glide_hbond>  (443) 
0

>  <r_i_glide_ligand_efficiency>  (443) 
-0.081638644197327997

>  <r_i_glide_ligand_efficiency_ln>  (443) 
-0.55647568457720298

>  <r_i_glide_ligand_efficiency_sa>  (443) 
-0.25367024870434501

>  <r_i_glide_lipo>  (443) 
-1.2837688557870599

>  <r_i_glide_metal>  (443) 
-0

>  <r_i_glide_rewards>  (443) 
-0.55285213636363495

>  <r_lp_Energy>  (443) 
51.365493000000001

>  <r_lp_tautomer_probability>  (443) 
1

>  <r_qp_ACxDN^.5/SA>  (443) 
0.0077850000000000003

>  <r_qp_CIQPlogS>  (443) 
-5.9059999999999997

>  <r_qp_EA(eV)>  (443) 
0.57699999999999996

>  <r_qp_FISA>  (443) 
39.445999999999998

>  <r_qp_FOSA>  (443) 
154.22999999999999

>  <r_qp_IP(eV)>  (443) 
8.6769999999999996

>  <r_qp_Jm>  (443) 
0.0266592081871861

>  <r_qp_PISA>  (443) 
421.08600000000001

>  <r_qp_PSA>  (443) 
46.633000000000003

>  <r_qp_PercentHumanOralAbsorption>  (443) 
100

>  <r_qp_QPPCaco>  (443) 
1044.0889999999999

>  <r_qp_QPPMDCK>  (443) 
1216.2909999999999

>  <r_qp_QPlogBB>  (443) 
0.432

>  <r_qp_QPlogHERG>  (443) 
-6.899

>  <r_qp_QPlogKhsa>  (443) 
0.81699999999999995

>  <r_qp_QPlogKp>  (443) 
-2.3460000000000001

>  <r_qp_QPlogPC16>  (443) 
13.821

>  <r_qp_QPlogPo/w>  (443) 
4.9349999999999996

>  <r_qp_QPlogPoct>  (443) 
19.818999999999999

>  <r_qp_QPlogPw>  (443) 
10.028

>  <r_qp_QPlogS>  (443) 
-4.851

>  <r_qp_QPpolrz>  (443) 
45.143999999999998

>  <r_qp_SASA>  (443) 
674.37300000000005

>  <r_qp_SAamideO>  (443) 
0

>  <r_qp_SAfluorine>  (443) 
0

>  <r_qp_WPSA>  (443) 
59.612000000000002

>  <r_qp_accptHB>  (443) 
5.25

>  <r_qp_dip^2/V>  (443) 
0.0259432

>  <r_qp_dipole>  (443) 
5.7210000000000001

>  <r_qp_donorHB>  (443) 
1

>  <r_qp_glob>  (443) 
0.83727770000000001

>  <r_qp_mol_MW>  (443) 
418.92200000000003

>  <r_qp_volume>  (443) 
1261.558

>  <r_sd_BIOSOLVEIT.INFINISEE\_FTREES\_SIMILARITY>  (443) 
0.90800000000000003

>  <r_sd_BIOSOLVEIT.LOGP>  (443) 
4.4772999999999996

>  <r_sd_BIOSOLVEIT.MOLECULAR\_WEIGHT>  (443) 
419.93000000000001

>  <r_sd_BIOSOLVEIT.TPSA>  (443) 
47.840000000000003

>  <i_epik_Tot_Q>  (443) 
0

>  <i_epik_Tot_abs_Q>  (443) 
0

>  <i_f3d_flags>  (443) 
0

>  <i_i_glide_confnum>  (443) 
2

>  <i_i_glide_lignum>  (443) 
153

>  <i_i_glide_posenum>  (443) 
17

>  <i_i_glide_rotatable_bonds>  (443) 
6

>  <i_lp_mmshare_version>  (443) 
65135

>  <i_m_ct_format>  (443) 
2

>  <i_m_source_file_index>  (443) 
421

>  <i_qp_#NandO>  (443) 
4

>  <i_qp_#acid>  (443) 
0

>  <i_qp_#amide>  (443) 
0

>  <i_qp_#amidine>  (443) 
0

>  <i_qp_#amine>  (443) 
1

>  <i_qp_#in34>  (443) 
0

>  <i_qp_#in56>  (443) 
22

>  <i_qp_#metab>  (443) 
4

>  <i_qp_#nonHatm>  (443) 
30

>  <i_qp_#noncon>  (443) 
0

>  <i_qp_#ringatoms>  (443) 
22

>  <i_qp_#rotor>  (443) 
5

>  <i_qp_#rtvFG>  (443) 
0

>  <i_qp_#stars>  (443) 
0

>  <i_qp_CNS>  (443) 
1

>  <i_qp_HumanOralAbsorption>  (443) 
3

>  <i_qp_RuleOfFive>  (443) 
0

>  <i_qp_RuleOfThree>  (443) 
0

>  <i_sd_BIOSOLVEIT.INFINISEE\_REAGENT1\_NAME>  (443) 
33703

>  <i_sd_BIOSOLVEIT.INFINISEE\_REAGENT2\_NAME>  (443) 
58185

>  <i_sd_BIOSOLVEIT.INFINISEE\_RESULT\_RANK>  (443) 
56426

>  <i_sd_version>  (443) 
0

>  <b_lp_Chiralities_Consistent>  (443) 
1

>  <b_sd_chiral_flag>  (443) 
0

>  <canonical_id>  (443) 
ATP-HTVS-461088EC3581

>  <compound_code>  (443) 
13442

>  <title>  (443) 
a4____33703____58185

>  <variant>  (443) 
13442-3

>  <source_file>  (443) 
运行/运行/ATP-VSW/ATP-VSW-DOCK_HTVS_1-002_lib.maegz

>  <canonical_smiles>  (443) 
COc1cccc(CN[C@H](C)c2cc3cccc(Cl)c3c(=O)n2-c2ccccc2)c1

>  <scaffold>  (443) 
O=c1c2ccccc2cc(CNCc2ccccc2)n1-c1ccccc1

>  <molecular_formula>  (443) 
C25H23ClN2O2

$$$$
ATP-HTVS-4630C8488F7C
     RDKit          3D

 61 64  0  0  0  0  0  0  0  0999 V2000
  197.6932  180.2446  149.6773 S   0  0  0  0  0  0  0  0  0  0  0  0
  197.5294  181.2071  151.1183 C   0  0  0  0  0  0  0  0  0  0  0  0
  196.9820  180.6736  152.3112 C   0  0  0  0  0  0  0  0  0  0  0  0
  196.9379  181.4726  153.4656 C   0  0  0  0  0  0  0  0  0  0  0  0
  197.3769  182.8088  153.4447 C   0  0  0  0  0  0  0  0  0  0  0  0
  197.9214  183.3525  152.2632 C   0  0  0  0  0  0  0  0  0  0  0  0
  197.9809  182.5514  151.0935 C   0  0  0  0  0  0  0  0  0  0  0  0
  198.3288  184.8016  152.2217 C   0  0  0  0  0  0  0  0  0  0  0  0
  198.1320  185.4774  151.2117 O   0  0  0  0  0  0  0  0  0  0  0  0
  198.9669  185.2521  153.3305 N   0  0  0  0  0  0  0  0  0  0  0  0
  199.2763  186.6162  153.6251 C   0  0  0  0  0  0  0  0  0  0  0  0
  198.7517  187.1880  154.8265 C   0  0  0  0  0  0  0  0  0  0  0  0
  197.9565  186.4488  155.7185 N   0  0  0  0  0  0  0  0  0  0  0  0
  198.0598  186.8157  157.1311 C   0  0  1  0  0  0  0  0  0  0  0  0
  197.1523  186.0859  158.0955 C   0  0  0  0  0  0  0  0  0  0  0  0
  197.2238  184.6893  158.2145 C   0  0  0  0  0  0  0  0  0  0  0  0
  196.3483  184.0083  159.0906 C   0  0  0  0  0  0  0  0  0  0  0  0
  195.4438  184.7516  159.8835 C   0  0  0  0  0  0  0  0  0  0  0  0
  195.4169  186.1603  159.8105 C   0  0  0  0  0  0  0  0  0  0  0  0
  196.2625  186.8232  158.9086 C   0  0  0  0  0  0  0  0  0  0  0  0
  196.3632  182.4839  159.1525 C   0  0  1  0  0  0  0  0  0  0  0  0
  195.5988  181.8380  158.0493 N   0  0  2  0  0  0  0  0  0  0  0  0
  196.0821  182.1955  156.7018 C   0  0  2  0  0  0  0  0  0  0  0  0
  194.1330  181.9873  158.1636 C   0  0  2  0  0  0  0  0  0  0  0  0
  199.0212  188.5615  155.0504 C   0  0  0  0  0  0  0  0  0  0  0  0
  199.7523  189.3302  154.2394 N   0  0  0  0  0  0  0  0  0  0  0  0
  200.3141  188.7805  153.1467 C   0  0  0  0  0  0  0  0  0  0  0  0
  200.1241  187.4117  152.8012 C   0  0  0  0  0  0  0  0  0  0  0  0
  200.8030  186.9086  151.6541 C   0  0  0  0  0  0  0  0  0  0  0  0
  201.6042  187.7569  150.8680 C   0  0  0  0  0  0  0  0  0  0  0  0
  201.7642  189.1139  151.2078 C   0  0  0  0  0  0  0  0  0  0  0  0
  201.1144  189.6110  152.3493 C   0  0  0  0  0  0  0  0  0  0  0  0
  196.4440  179.2576  152.4243 C   0  0  2  0  0  0  0  0  0  0  0  0
  196.5414  181.0191  154.3552 H   0  0  0  0  0  0  0  0  0  0  0  0
  197.2872  183.4170  154.3337 H   0  0  0  0  0  0  0  0  0  0  0  0
  198.4001  182.9827  150.1888 H   0  0  0  0  0  0  0  0  0  0  0  0
  199.0192  184.6089  154.1057 H   0  0  0  0  0  0  0  0  0  0  0  0
  197.0257  186.2655  155.3716 H   0  0  0  0  0  0  0  0  0  0  0  0
  199.0902  186.6483  157.4470 H   0  0  0  0  0  0  0  0  0  0  0  0
  197.8079  187.8658  157.2636 H   0  0  0  0  0  0  0  0  0  0  0  0
  197.9259  184.1501  157.5943 H   0  0  0  0  0  0  0  0  0  0  0  0
  194.7409  184.2421  160.5290 H   0  0  0  0  0  0  0  0  0  0  0  0
  194.7312  186.7344  160.4158 H   0  0  0  0  0  0  0  0  0  0  0  0
  196.2177  187.8989  158.8269 H   0  0  0  0  0  0  0  0  0  0  0  0
  197.4050  182.1499  159.1263 H   0  0  0  0  0  0  0  0  0  0  0  0
  195.9563  182.1670  160.1165 H   0  0  0  0  0  0  0  0  0  0  0  0
  195.9111  183.2445  156.4454 H   0  0  0  0  0  0  0  0  0  0  0  0
  195.5506  181.5822  155.9861 H   0  0  0  0  0  0  0  0  0  0  0  0
  197.1391  181.9577  156.5925 H   0  0  0  0  0  0  0  0  0  0  0  0
  193.8284  183.0334  158.1000 H   0  0  0  0  0  0  0  0  0  0  0  0
  193.7779  181.5707  159.1052 H   0  0  0  0  0  0  0  0  0  0  0  0
  193.6422  181.4309  157.3640 H   0  0  0  0  0  0  0  0  0  0  0  0
  198.5935  189.1105  155.8779 H   0  0  0  0  0  0  0  0  0  0  0  0
  200.7206  185.8699  151.3681 H   0  0  0  0  0  0  0  0  0  0  0  0
  202.0960  187.3628  149.9909 H   0  0  0  0  0  0  0  0  0  0  0  0
  202.3759  189.7695  150.6027 H   0  0  0  0  0  0  0  0  0  0  0  0
  201.2363  190.6470  152.6353 H   0  0  0  0  0  0  0  0  0  0  0  0
  196.0860  179.0698  153.4299 H   0  0  0  0  0  0  0  0  0  0  0  0
  197.2320  178.5338  152.2250 H   0  0  0  0  0  0  0  0  0  0  0  0
  195.6101  179.0874  151.7424 H   0  0  0  0  0  0  0  0  0  0  0  0
  195.7524  180.8295  158.1219 H   0  0  0  0  0  0  0  0  0  0  0  0
  1  2  1  0
  2  3  2  0
  2  7  1  0
  3  4  1  0
  3 33  1  0
  4  5  2  0
  4 34  1  0
  5  6  1  0
  5 35  1  0
  6  7  2  0
  6  8  1  0
  7 36  1  0
  8  9  2  0
  8 10  1  0
 10 11  1  0
 10 37  1  0
 11 12  2  0
 11 28  1  0
 12 13  1  0
 12 25  1  0
 13 14  1  0
 13 38  1  0
 14 15  1  0
 14 39  1  1
 14 40  1  0
 15 16  2  0
 15 20  1  0
 16 17  1  0
 16 41  1  0
 17 18  2  0
 17 21  1  0
 18 19  1  0
 18 42  1  0
 19 20  2  0
 19 43  1  0
 20 44  1  0
 21 22  1  0
 21 45  1  1
 21 46  1  0
 22 23  1  0
 22 24  1  0
 22 61  1  1
 23 47  1  6
 23 48  1  0
 23 49  1  0
 24 50  1  1
 24 51  1  0
 24 52  1  0
 25 26  2  0
 25 53  1  0
 26 27  1  0
 27 28  1  0
 27 32  2  0
 28 29  2  0
 29 30  1  0
 29 54  1  0
 30 31  2  0
 30 55  1  0
 31 32  1  0
 31 56  1  0
 32 57  1  0
 33 58  1  1
 33 59  1  0
 33 60  1  0
M  CHG  2   1  -1  22   1
M  END
>  <s_epik_cmdline>  (444) 
J2VwaWtfcHl0aG9uJywgJy1waCcsICc3LjAwMDAwMCcsICctcGh0JywgJzIuMDAwMDAwJywgJy1tcycsICcxNicsICctdG4nLCAnOCcsICctbWEnLCAnMjAwJywgJy1pbWFlJywgJzxpbmZpbGUubWFlPicsICctb21hZScsICc8b3V0ZmlsZS5tYWU+Jw==

>  <s_epik_input>  (444) 
W1NIXWMxYyhbQ0gzXSlbY0hdW2NIXWMoW2NIXTEpQyg9TylbTkhdYyhjKGMyMylbY0hdW2NIXVtjSF1bY0hdMyljKFtjSF1uMilbTkhdW0NIMl1jNFtjSF1jKFtjSF1bY0hdW2NIXTQpW0NIMl1OKFtDSDNdKVtDSDNd

>  <s_i_glide_gridfile>  (444) 
ATP-Grid

>  <s_lp_Force_Field>  (444) 
OPLS_2005

>  <s_lp_Variant>  (444) 
rxn502b____EMOL50253349____EMOL13728749____EMOL2873214-1

>  <s_lp_label>  (444) 
2408_sdstereoexpander_1_neutralizer_1_epik_1_stereoizer_1

>  <s_m_source_file>  (444) 
ATP-VSW-LIGPREP-001-in.maegz

>  <s_sd_BIOSOLVEIT.INFINISEE\_QUERY\_NAME>  (444) 
Ref-Lig

>  <s_sd_BIOSOLVEIT.INFINISEE\_QUERY\_SMILES>  (444) 
S(c1nc2c(cc1C[NH2+]Cc3ccc(cc3)C[NH+](C)C)cccc2)Cc4ccccc4

>  <s_sd_BIOSOLVEIT.INFINISEE\_REACTION\_NAME>  (444) 
rxn502b

>  <s_sd_BIOSOLVEIT.INFINISEE\_REAGENT1\_NAME>  (444) 
EMOL50253349

>  <s_sd_BIOSOLVEIT.INFINISEE\_REAGENT1\_SMILES>  (444) 
Sc1c(ccc(c1)C(=O)O)C

>  <s_sd_BIOSOLVEIT.INFINISEE\_REAGENT2\_NAME>  (444) 
EMOL13728749

>  <s_sd_BIOSOLVEIT.INFINISEE\_REAGENT2\_SMILES>  (444) 
Brc1c(N)c2c(nc1)cccc2

>  <s_sd_BIOSOLVEIT.INFINISEE\_REAGENT3\_NAME>  (444) 
EMOL2873214

>  <s_sd_BIOSOLVEIT.INFINISEE\_REAGENT3\_SMILES>  (444) 
N(Cc1cc(ccc1)CN)(C)C

>  <s_sd_BIOSOLVEIT.INFINISEE\_SPACE>  (444) 
eXplore_7tr_2022-12

>  <s_vsw_compound_code>  (444) 
77025

>  <s_vsw_variant>  (444) 
77025-1

>  <r_epik_Charging_Adjusted_Penalty>  (444) 
0.19715755512594799

>  <r_epik_Ionization_Penalty>  (444) 
0.122

>  <r_epik_Ionization_Penalty_Charging>  (444) 
0.082699999999999996

>  <r_epik_Ionization_Penalty_Neutral>  (444) 
0.039199999999999999

>  <r_epik_State_Penalty>  (444) 
0.1144

>  <r_i_docking_score>  (444) 
-4.3639736329261103

>  <r_i_glide_ecoul>  (444) 
-7.0378842353820801

>  <r_i_glide_eff_state_penalty>  (444) 
0.1144

>  <r_i_glide_einternal>  (444) 
4.7374758720397896

>  <r_i_glide_emodel>  (444) 
-54.6223748982855

>  <r_i_glide_energy>  (444) 
-40.578598499298103

>  <r_i_glide_erotb>  (444) 
0.67480624608899098

>  <r_i_glide_esite>  (444) 
-0.10000000000000001

>  <r_i_glide_evdw>  (444) 
-33.540714263916001

>  <r_i_glide_gscore>  (444) 
-4.4783736329261101

>  <r_i_glide_hbond>  (444) 
-0.20000000000000001

>  <r_i_glide_ligand_efficiency>  (444) 
-0.13224162524018501

>  <r_i_glide_ligand_efficiency_ln>  (444) 
-0.97052514051657701

>  <r_i_glide_ligand_efficiency_sa>  (444) 
-0.42416955231796499

>  <r_i_glide_lipo>  (444) 
-1.5634000890414701

>  <r_i_glide_metal>  (444) 
-0

>  <r_i_glide_rewards>  (444) 
-0.55706144147051795

>  <r_lp_Energy>  (444) 
30.850235000000001

>  <r_qp_ACxDN^.5/SA>  (444) 
0.0163529

>  <r_qp_CIQPlogS>  (444) 
-5.8460000000000001

>  <r_qp_EA(eV)>  (444) 
1.0389999999999999

>  <r_qp_FISA>  (444) 
67.876999999999995

>  <r_qp_FOSA>  (444) 
232.48500000000001

>  <r_qp_IP(eV)>  (444) 
8.5440000000000005

>  <r_qp_Jm>  (444) 
0.035150657042363802

>  <r_qp_PISA>  (444) 
365.16199999999998

>  <r_qp_PSA>  (444) 
58.557000000000002

>  <r_qp_PercentHumanOralAbsorption>  (444) 
100

>  <r_qp_QPPCaco>  (444) 
561.20699999999999

>  <r_qp_QPPMDCK>  (444) 
556.02599999999995

>  <r_qp_QPlogBB>  (444) 
-0.021000000000000001

>  <r_qp_QPlogHERG>  (444) 
-6.4160000000000004

>  <r_qp_QPlogKhsa>  (444) 
0.70299999999999996

>  <r_qp_QPlogKp>  (444) 
-2.7789999999999999

>  <r_qp_QPlogPC16>  (444) 
15.307

>  <r_qp_QPlogPo/w>  (444) 
4.6219999999999999

>  <r_qp_QPlogPoct>  (444) 
24.972000000000001

>  <r_qp_QPlogPw>  (444) 
13.637

>  <r_qp_QPlogS>  (444) 
-4.335

>  <r_qp_QPpolrz>  (444) 
48.792000000000002

>  <r_qp_SASA>  (444) 
716.27800000000002

>  <r_qp_SAamideO>  (444) 
0

>  <r_qp_SAfluorine>  (444) 
0

>  <r_qp_WPSA>  (444) 
50.755000000000003

>  <r_qp_accptHB>  (444) 
7

>  <r_qp_dip^2/V>  (444) 
0.046882100000000003

>  <r_qp_dipole>  (444) 
8.1419999999999995

>  <r_qp_donorHB>  (444) 
2.7999999999999998

>  <r_qp_glob>  (444) 
0.85065710000000005

>  <r_qp_mol_MW>  (444) 
456.60399999999998

>  <r_qp_volume>  (444) 
1414.1869999999999

>  <r_sd_BIOSOLVEIT.INFINISEE\_FTREES\_SIMILARITY>  (444) 
0.91800000000000004

>  <r_sd_BIOSOLVEIT.LOGP>  (444) 
4.7210200000000002

>  <r_sd_BIOSOLVEIT.MOLECULAR\_WEIGHT>  (444) 
457.61799999999999

>  <r_sd_BIOSOLVEIT.TPSA>  (444) 
58.460000000000001

>  <i_epik_Tot_Q>  (444) 
0

>  <i_epik_Tot_abs_Q>  (444) 
2

>  <i_f3d_flags>  (444) 
0

>  <i_i_glide_confnum>  (444) 
3

>  <i_i_glide_lignum>  (444) 
910

>  <i_i_glide_posenum>  (444) 
19

>  <i_i_glide_rotatable_bonds>  (444) 
8

>  <i_lp_mmshare_version>  (444) 
65135

>  <i_m_ct_format>  (444) 
2

>  <i_m_source_file_index>  (444) 
2408

>  <i_qp_#NandO>  (444) 
5

>  <i_qp_#acid>  (444) 
0

>  <i_qp_#amide>  (444) 
0

>  <i_qp_#amidine>  (444) 
0

>  <i_qp_#amine>  (444) 
1

>  <i_qp_#in34>  (444) 
0

>  <i_qp_#in56>  (444) 
22

>  <i_qp_#metab>  (444) 
8

>  <i_qp_#nonHatm>  (444) 
33

>  <i_qp_#noncon>  (444) 
0

>  <i_qp_#ringatoms>  (444) 
22

>  <i_qp_#rotor>  (444) 
8

>  <i_qp_#rtvFG>  (444) 
1

>  <i_qp_#stars>  (444) 
0

>  <i_qp_CNS>  (444) 
0

>  <i_qp_HumanOralAbsorption>  (444) 
3

>  <i_qp_RuleOfFive>  (444) 
0

>  <i_qp_RuleOfThree>  (444) 
1

>  <i_sd_BIOSOLVEIT.INFINISEE\_RESULT\_RANK>  (444) 
21298

>  <i_sd_version>  (444) 
0

>  <b_lp_Chiralities_Consistent>  (444) 
1

>  <b_sd_chiral_flag>  (444) 
0

>  <canonical_id>  (444) 
ATP-HTVS-4630C8488F7C

>  <compound_code>  (444) 
77025

>  <title>  (444) 
rxn502b____EMOL50253349____EMOL13728749____EMOL2873214

>  <variant>  (444) 
77025-1

>  <source_file>  (444) 
运行/运行/ATP-VSW/ATP-VSW-DOCK_HTVS_1-001_lib/ATP-VSW-DOCK_HTVS_1-001_lib

>  <canonical_smiles>  (444) 
Cc1ccc(C(=O)Nc2c(NCc3cccc(C[NH+](C)C)c3)cnc3ccccc23)cc1[S-]

>  <scaffold>  (444) 
O=C(Nc1c(NCc2ccccc2)cnc2ccccc12)c1ccccc1

>  <molecular_formula>  (444) 
C27H28N4OS

$$$$
ATP-HTVS-464A50F6807A
     RDKit          3D

 48 51  0  0  0  0  0  0  0  0999 V2000
  199.6810  181.3570  155.9262 O   0  0  0  0  0  0  0  0  0  0  0  0
  198.6179  180.7897  156.1846 C   0  0  0  0  0  0  0  0  0  0  0  0
  197.6324  181.2939  156.9468 N   0  0  0  0  0  0  0  0  0  0  0  0
  197.4968  182.6030  157.4908 C   0  0  0  0  0  0  0  0  0  0  0  0
  198.5115  183.4954  157.4638 N   0  0  0  0  0  0  0  0  0  0  0  0
  198.3359  184.7249  157.9670 C   0  0  0  0  0  0  0  0  0  0  0  0
  197.1161  185.1944  158.5057 C   0  0  0  0  0  0  0  0  0  0  0  0
  197.0243  186.5197  158.9956 N   0  0  0  0  0  0  0  0  0  0  0  0
  196.4634  186.7350  160.2089 C   0  0  0  0  0  0  0  0  0  0  0  0
  195.9245  186.9513  161.2087 N   0  0  0  0  0  0  0  0  0  0  0  0
  197.5745  187.6214  158.2981 C   0  0  0  0  0  0  0  0  0  0  0  0
  197.9004  188.8162  158.9891 C   0  0  0  0  0  0  0  0  0  0  0  0
  198.4796  189.9118  158.3196 C   0  0  0  0  0  0  0  0  0  0  0  0
  198.7522  189.8306  156.9415 C   0  0  0  0  0  0  0  0  0  0  0  0
  198.4276  188.6582  156.2334 C   0  0  0  0  0  0  0  0  0  0  0  0
  197.8172  187.5785  156.8985 C   0  0  0  0  0  0  0  0  0  0  0  0
  196.0348  184.2737  158.5301 C   0  0  0  0  0  0  0  0  0  0  0  0
  196.2306  182.9548  158.0316 C   0  0  0  0  0  0  0  0  0  0  0  0
  195.1530  182.0352  158.0397 C   0  0  0  0  0  0  0  0  0  0  0  0
  193.8975  182.4087  158.5347 C   0  0  0  0  0  0  0  0  0  0  0  0
  193.6946  183.7195  158.9865 C   0  0  0  0  0  0  0  0  0  0  0  0
  194.7470  184.6395  158.9887 C   0  0  0  0  0  0  0  0  0  0  0  0
  198.3540  179.4049  155.5955 C   0  0  1  0  0  0  0  0  0  0  0  0
  197.9953  179.5219  154.1197 C   0  0  0  0  0  0  0  0  0  0  0  0
  196.7723  180.1093  153.7259 C   0  0  0  0  0  0  0  0  0  0  0  0
  196.4352  180.1975  152.3620 C   0  0  0  0  0  0  0  0  0  0  0  0
  197.3132  179.6998  151.3836 C   0  0  0  0  0  0  0  0  0  0  0  0
  196.9706  179.7797  150.0653 O   0  0  0  0  0  0  0  0  0  0  0  0
  198.5402  179.1238  151.7690 C   0  0  0  0  0  0  0  0  0  0  0  0
  198.8824  179.0411  153.1333 C   0  0  0  0  0  0  0  0  0  0  0  0
  196.8488  180.6679  157.1125 H   0  0  0  0  0  0  0  0  0  0  0  0
  199.2061  185.3623  157.9156 H   0  0  0  0  0  0  0  0  0  0  0  0
  197.7343  188.9036  160.0559 H   0  0  0  0  0  0  0  0  0  0  0  0
  198.7235  190.8074  158.8736 H   0  0  0  0  0  0  0  0  0  0  0  0
  199.2048  190.6668  156.4289 H   0  0  0  0  0  0  0  0  0  0  0  0
  198.6405  188.5838  155.1749 H   0  0  0  0  0  0  0  0  0  0  0  0
  197.5663  186.7083  156.3097 H   0  0  0  0  0  0  0  0  0  0  0  0
  195.2267  181.0424  157.6316 H   0  0  0  0  0  0  0  0  0  0  0  0
  193.0825  181.6920  158.5158 H   0  0  0  0  0  0  0  0  0  0  0  0
  192.7218  184.0242  159.3533 H   0  0  0  0  0  0  0  0  0  0  0  0
  194.4921  185.6391  159.3094 H   0  0  0  0  0  0  0  0  0  0  0  0
  199.2415  178.7853  155.7370 H   0  0  0  0  0  0  0  0  0  0  0  0
  197.5386  178.9097  156.1212 H   0  0  0  0  0  0  0  0  0  0  0  0
  196.0862  180.4887  154.4706 H   0  0  0  0  0  0  0  0  0  0  0  0
  195.5012  180.6496  152.0659 H   0  0  0  0  0  0  0  0  0  0  0  0
  197.6497  179.4643  149.4888 H   0  0  0  0  0  0  0  0  0  0  0  0
  199.2285  178.7444  151.0273 H   0  0  0  0  0  0  0  0  0  0  0  0
  199.8238  178.5949  153.4206 H   0  0  0  0  0  0  0  0  0  0  0  0
  1  2  2  0
  2  3  1  0
  2 23  1  0
  3  4  1  0
  3 31  1  0
  4  5  1  0
  4 18  2  0
  5  6  2  0
  6  7  1  0
  6 32  1  0
  7  8  1  0
  7 17  2  0
  8  9  1  0
  8 11  1  0
  9 10  3  0
 11 12  2  0
 11 16  1  0
 12 13  1  0
 12 33  1  0
 13 14  2  0
 13 34  1  0
 14 15  1  0
 14 35  1  0
 15 16  2  0
 15 36  1  0
 16 37  1  0
 17 18  1  0
 17 22  1  0
 18 19  1  0
 19 20  2  0
 19 38  1  0
 20 21  1  0
 20 39  1  0
 21 22  2  0
 21 40  1  0
 22 41  1  0
 23 24  1  0
 23 42  1  6
 23 43  1  0
 24 25  1  0
 24 30  2  0
 25 26  2  0
 25 44  1  0
 26 27  1  0
 26 45  1  0
 27 28  1  0
 27 29  2  0
 28 46  1  0
 29 30  1  0
 29 47  1  0
 30 48  1  0
M  END
>  <s_epik_cmdline>  (445) 
J2VwaWtfcHl0aG9uJywgJy1waCcsICc3LjAwMDAwMCcsICctcGh0JywgJzIuMDAwMDAwJywgJy1tcycsICcxNicsICctdG4nLCAnOCcsICctbWEnLCAnMjAwJywgJy1pbWFlJywgJzxpbmZpbGUubWFlPicsICctb21hZScsICc8b3V0ZmlsZS5tYWU+Jw==

>  <s_epik_input>  (445) 
W2NIXTFbY0hdYyhbT0hdKVtjSF1bY0hdYzFbQ0gyXUMoPU8pW05IXWMoYyhjMjMpW2NIXVtjSF1bY0hdW2NIXTMpbltjSF1jMk4oQyNOKWM0W2NIXVtjSF1bY0hdW2NIXVtjSF00

>  <s_i_glide_gridfile>  (445) 
ATP-Grid

>  <s_lp_Force_Field>  (445) 
OPLS_2005

>  <s_lp_Variant>  (445) 
rxn502b____EMOL521529____EMOL7515103____EMOL36822768-1

>  <s_lp_label>  (445) 
2767_sdstereoexpander_1_neutralizer_1_epik_1_stereoizer_1

>  <s_m_source_file>  (445) 
ATP-VSW-LIGPREP-002-in.maegz

>  <s_sd_BIOSOLVEIT.INFINISEE\_QUERY\_NAME>  (445) 
Ref-Lig

>  <s_sd_BIOSOLVEIT.INFINISEE\_QUERY\_SMILES>  (445) 
S(c1nc2c(cc1C[NH2+]Cc3ccc(cc3)C[NH+](C)C)cccc2)Cc4ccccc4

>  <s_sd_BIOSOLVEIT.INFINISEE\_REACTION\_NAME>  (445) 
rxn502b

>  <s_sd_BIOSOLVEIT.INFINISEE\_REAGENT1\_NAME>  (445) 
EMOL521529

>  <s_sd_BIOSOLVEIT.INFINISEE\_REAGENT1\_SMILES>  (445) 
O=C(O)Cc1ccc(O)cc1

>  <s_sd_BIOSOLVEIT.INFINISEE\_REAGENT2\_NAME>  (445) 
EMOL7515103

>  <s_sd_BIOSOLVEIT.INFINISEE\_REAGENT2\_SMILES>  (445) 
Brc1c2c(c(nc1)N)cccc2

>  <s_sd_BIOSOLVEIT.INFINISEE\_REAGENT3\_NAME>  (445) 
EMOL36822768

>  <s_sd_BIOSOLVEIT.INFINISEE\_REAGENT3\_SMILES>  (445) 
N#CNc1ccccc1

>  <s_sd_BIOSOLVEIT.INFINISEE\_SPACE>  (445) 
eXplore_7tr_2022-12

>  <s_vsw_compound_code>  (445) 
88514

>  <s_vsw_variant>  (445) 
88514-1

>  <r_epik_Charging_Adjusted_Penalty>  (445) 
0

>  <r_epik_Ionization_Penalty>  (445) 
0.002

>  <r_epik_Ionization_Penalty_Charging>  (445) 
0

>  <r_epik_Ionization_Penalty_Neutral>  (445) 
0.002

>  <r_epik_State_Penalty>  (445) 
-0

>  <r_i_docking_score>  (445) 
-4.0729361307377996

>  <r_i_glide_ecoul>  (445) 
-5.7898879051208496

>  <r_i_glide_eff_state_penalty>  (445) 
-0

>  <r_i_glide_einternal>  (445) 
2.2977380752563499

>  <r_i_glide_emodel>  (445) 
-50.858590618049902

>  <r_i_glide_energy>  (445) 
-40.788999080658002

>  <r_i_glide_erotb>  (445) 
0.75379255704181103

>  <r_i_glide_esite>  (445) 
-0.12770624891481899

>  <r_i_glide_evdw>  (445) 
-34.999111175537102

>  <r_i_glide_gscore>  (445) 
-4.0729361307377996

>  <r_i_glide_hbond>  (445) 
0

>  <r_i_glide_ligand_efficiency>  (445) 
-0.13576453769126001

>  <r_i_glide_ligand_efficiency_ln>  (445) 
-0.92541546709718603

>  <r_i_glide_ligand_efficiency_sa>  (445) 
-0.42185198419181302

>  <r_i_glide_lipo>  (445) 
-1.0484269136256099

>  <r_i_glide_metal>  (445) 
-0

>  <r_i_glide_rewards>  (445) 
-1.03215678069419

>  <r_lp_Energy>  (445) 
29.595329

>  <r_lp_tautomer_probability>  (445) 
1

>  <r_qp_ACxDN^.5/SA>  (445) 
0.0125346

>  <r_qp_CIQPlogS>  (445) 
-6.0069999999999997

>  <r_qp_EA(eV)>  (445) 
1.4399999999999999

>  <r_qp_FISA>  (445) 
170.726

>  <r_qp_FOSA>  (445) 
42.694000000000003

>  <r_qp_IP(eV)>  (445) 
8.4510000000000005

>  <r_qp_Jm>  (445) 
0.0052085961446123397

>  <r_qp_PISA>  (445) 
491.73700000000002

>  <r_qp_PSA>  (445) 
95.326999999999998

>  <r_qp_PercentHumanOralAbsorption>  (445) 
91.603999999999999

>  <r_qp_QPPCaco>  (445) 
238.18100000000001

>  <r_qp_QPPMDCK>  (445) 
104.92100000000001

>  <r_qp_QPlogBB>  (445) 
-1.6499999999999999

>  <r_qp_QPlogHERG>  (445) 
-7.1589999999999998

>  <r_qp_QPlogKhsa>  (445) 
0.46100000000000002

>  <r_qp_QPlogKp>  (445) 
-2.262

>  <r_qp_QPlogPC16>  (445) 
15.028

>  <r_qp_QPlogPo/w>  (445) 
3.7770000000000001

>  <r_qp_QPlogPoct>  (445) 
21.869

>  <r_qp_QPlogPw>  (445) 
13.464

>  <r_qp_QPlogS>  (445) 
-5.6180000000000003

>  <r_qp_QPpolrz>  (445) 
44.198

>  <r_qp_SASA>  (445) 
705.15700000000004

>  <r_qp_SAamideO>  (445) 
0

>  <r_qp_SAfluorine>  (445) 
0

>  <r_qp_WPSA>  (445) 
0

>  <r_qp_accptHB>  (445) 
6.25

>  <r_qp_dip^2/V>  (445) 
0.037297900000000002

>  <r_qp_dipole>  (445) 
6.8369999999999997

>  <r_qp_donorHB>  (445) 
2

>  <r_qp_glob>  (445) 
0.79715990000000003

>  <r_qp_mol_MW>  (445) 
394.43200000000002

>  <r_qp_volume>  (445) 
1253.1400000000001

>  <r_sd_BIOSOLVEIT.INFINISEE\_FTREES\_SIMILARITY>  (445) 
0.90700000000000003

>  <r_sd_BIOSOLVEIT.LOGP>  (445) 
4.74078

>  <r_sd_BIOSOLVEIT.MOLECULAR\_WEIGHT>  (445) 
394.43200000000002

>  <r_sd_BIOSOLVEIT.TPSA>  (445) 
89.25

>  <i_epik_Tot_Q>  (445) 
0

>  <i_epik_Tot_abs_Q>  (445) 
0

>  <i_f3d_flags>  (445) 
0

>  <i_i_glide_confnum>  (445) 
5

>  <i_i_glide_lignum>  (445) 
1340

>  <i_i_glide_posenum>  (445) 
10

>  <i_i_glide_rotatable_bonds>  (445) 
7

>  <i_lp_mmshare_version>  (445) 
65135

>  <i_m_ct_format>  (445) 
2

>  <i_m_source_file_index>  (445) 
2767

>  <i_qp_#NandO>  (445) 
6

>  <i_qp_#acid>  (445) 
0

>  <i_qp_#amide>  (445) 
0

>  <i_qp_#amidine>  (445) 
0

>  <i_qp_#amine>  (445) 
0

>  <i_qp_#in34>  (445) 
0

>  <i_qp_#in56>  (445) 
22

>  <i_qp_#metab>  (445) 
4

>  <i_qp_#nonHatm>  (445) 
30

>  <i_qp_#noncon>  (445) 
0

>  <i_qp_#ringatoms>  (445) 
22

>  <i_qp_#rotor>  (445) 
7

>  <i_qp_#rtvFG>  (445) 
0

>  <i_qp_#stars>  (445) 
1

>  <i_qp_CNS>  (445) 
-2

>  <i_qp_HumanOralAbsorption>  (445) 
3

>  <i_qp_RuleOfFive>  (445) 
0

>  <i_qp_RuleOfThree>  (445) 
0

>  <i_sd_BIOSOLVEIT.INFINISEE\_RESULT\_RANK>  (445) 
59846

>  <i_sd_version>  (445) 
0

>  <b_lp_Chiralities_Consistent>  (445) 
1

>  <b_sd_chiral_flag>  (445) 
0

>  <canonical_id>  (445) 
ATP-HTVS-464A50F6807A

>  <compound_code>  (445) 
88514

>  <title>  (445) 
rxn502b____EMOL521529____EMOL7515103____EMOL36822768

>  <variant>  (445) 
88514-1

>  <source_file>  (445) 
运行/运行/ATP-VSW/ATP-VSW-DOCK_HTVS_1-002_lib.maegz

>  <canonical_smiles>  (445) 
N#CN(c1ccccc1)c1cnc(NC(=O)Cc2ccc(O)cc2)c2ccccc12

>  <scaffold>  (445) 
O=C(Cc1ccccc1)Nc1ncc(Nc2ccccc2)c2ccccc12

>  <molecular_formula>  (445) 
C24H18N4O2

$$$$
ATP-HTVS-464DF81034BD
     RDKit          3D

 55 58  0  0  0  0  0  0  0  0999 V2000
  197.6992  186.1316  158.8643 S   0  0  0  0  0  0  0  0  0  0  0  0
  196.6197  184.7505  158.9127 C   0  0  0  0  0  0  0  0  0  0  0  0
  196.9511  183.5673  158.3098 N   0  0  0  0  0  0  0  0  0  0  0  0
  196.0309  182.5874  158.4275 C   0  0  0  0  0  0  0  0  0  0  0  0
  194.8031  182.7407  159.0906 C   0  0  0  0  0  0  0  0  0  0  0  0
  194.4900  183.9828  159.6820 C   0  0  0  0  0  0  0  0  0  0  0  0
  195.4210  185.0522  159.6377 C   0  0  0  0  0  0  0  0  0  0  0  0
  195.4381  186.4091  160.1788 C   0  0  0  0  0  0  0  0  0  0  0  0
  194.4205  186.9920  160.9705 N   0  0  0  0  0  0  0  0  0  0  0  0
  193.0766  186.4758  161.1745 C   0  0  1  0  0  0  0  0  0  0  0  0
  192.2425  187.3384  162.0926 C   0  0  0  0  0  0  0  0  0  0  0  0
  191.3249  188.2754  161.5807 C   0  0  0  0  0  0  0  0  0  0  0  0
  190.5795  189.0746  162.4688 C   0  0  0  0  0  0  0  0  0  0  0  0
  190.7496  188.9293  163.8637 C   0  0  0  0  0  0  0  0  0  0  0  0
  191.6373  187.9673  164.3708 C   0  0  0  0  0  0  0  0  0  0  0  0
  192.3819  187.1769  163.4804 C   0  0  0  0  0  0  0  0  0  0  0  0
  189.6214  190.1168  161.9338 C   0  0  1  0  0  0  0  0  0  0  0  0
  190.3223  191.3372  161.4577 N   0  0  1  0  0  0  0  0  0  0  0  0
  189.3630  192.3298  160.9306 C   0  0  2  0  0  0  0  0  0  0  0  0
  191.2511  191.9380  162.4463 C   0  0  2  0  0  0  0  0  0  0  0  0
  196.5732  187.0938  159.7846 C   0  0  0  0  0  0  0  0  0  0  0  0
  196.9843  188.4927  160.0637 C   0  0  0  0  0  0  0  0  0  0  0  0
  196.6068  189.0460  161.0968 O   0  0  0  0  0  0  0  0  0  0  0  0
  197.6818  189.1033  159.0872 N   0  0  0  0  0  0  0  0  0  0  0  0
  198.1343  190.4518  159.0091 C   0  0  0  0  0  0  0  0  0  0  0  0
  198.2656  191.3057  160.1337 C   0  0  0  0  0  0  0  0  0  0  0  0
  198.7039  192.6322  159.9656 C   0  0  0  0  0  0  0  0  0  0  0  0
  198.7976  193.4436  161.0444 F   0  0  0  0  0  0  0  0  0  0  0  0
  199.0306  193.1186  158.6862 C   0  0  0  0  0  0  0  0  0  0  0  0
  198.9169  192.2731  157.5668 C   0  0  0  0  0  0  0  0  0  0  0  0
  198.4716  190.9470  157.7307 C   0  0  0  0  0  0  0  0  0  0  0  0
  196.2768  181.6380  157.9735 H   0  0  0  0  0  0  0  0  0  0  0  0
  194.1172  181.9106  159.1456 H   0  0  0  0  0  0  0  0  0  0  0  0
  193.5393  184.0918  160.1723 H   0  0  0  0  0  0  0  0  0  0  0  0
  194.5582  187.9645  161.2152 H   0  0  0  0  0  0  0  0  0  0  0  0
  192.5672  186.3632  160.2216 H   0  0  0  0  0  0  0  0  0  0  0  0
  193.1182  185.4967  161.6401 H   0  0  0  0  0  0  0  0  0  0  0  0
  191.2181  188.3892  160.5109 H   0  0  0  0  0  0  0  0  0  0  0  0
  190.1926  189.5515  164.5541 H   0  0  0  0  0  0  0  0  0  0  0  0
  191.7674  187.8472  165.4373 H   0  0  0  0  0  0  0  0  0  0  0  0
  193.0785  186.4458  163.8607 H   0  0  0  0  0  0  0  0  0  0  0  0
  189.0715  189.6852  161.0990 H   0  0  0  0  0  0  0  0  0  0  0  0
  188.8870  190.3713  162.7034 H   0  0  0  0  0  0  0  0  0  0  0  0
  188.6940  192.6868  161.7177 H   0  0  0  0  0  0  0  0  0  0  0  0
  188.7511  191.9034  160.1350 H   0  0  0  0  0  0  0  0  0  0  0  0
  189.8920  193.1854  160.5154 H   0  0  0  0  0  0  0  0  0  0  0  0
  190.7215  192.2287  163.3541 H   0  0  0  0  0  0  0  0  0  0  0  0
  191.7335  192.8212  162.0304 H   0  0  0  0  0  0  0  0  0  0  0  0
  192.0519  191.2466  162.7207 H   0  0  0  0  0  0  0  0  0  0  0  0
  197.8344  188.5492  158.2570 H   0  0  0  0  0  0  0  0  0  0  0  0
  198.0436  190.9685  161.1344 H   0  0  0  0  0  0  0  0  0  0  0  0
  199.3680  194.1407  158.5686 H   0  0  0  0  0  0  0  0  0  0  0  0
  199.1669  192.6425  156.5844 H   0  0  0  0  0  0  0  0  0  0  0  0
  198.3820  190.3133  156.8609 H   0  0  0  0  0  0  0  0  0  0  0  0
  190.8981  191.0380  160.6842 H   0  0  0  0  0  0  0  0  0  0  0  0
  1  2  1  0
  1 21  1  0
  2  3  1  0
  2  7  2  0
  3  4  2  0
  4  5  1  0
  4 32  1  0
  5  6  2  0
  5 33  1  0
  6  7  1  0
  6 34  1  0
  7  8  1  0
  8  9  1  0
  8 21  2  0
  9 10  1  0
  9 35  1  0
 10 11  1  0
 10 36  1  6
 10 37  1  0
 11 12  2  0
 11 16  1  0
 12 13  1  0
 12 38  1  0
 13 14  2  0
 13 17  1  0
 14 15  1  0
 14 39  1  0
 15 16  2  0
 15 40  1  0
 16 41  1  0
 17 18  1  0
 17 42  1  6
 17 43  1  0
 18 19  1  0
 18 20  1  0
 18 55  1  6
 19 44  1  1
 19 45  1  0
 19 46  1  0
 20 47  1  1
 20 48  1  0
 20 49  1  0
 21 22  1  0
 22 23  2  0
 22 24  1  0
 24 25  1  0
 24 50  1  0
 25 26  1  0
 25 31  2  0
 26 27  2  0
 26 51  1  0
 27 28  1  0
 27 29  1  0
 29 30  2  0
 29 52  1  0
 30 31  1  0
 30 53  1  0
 31 54  1  0
M  CHG  1  18   1
M  END
>  <s_epik_cmdline>  (446) 
J2VwaWtfcHl0aG9uJywgJy1waCcsICc3LjAwMDAwMCcsICctcGh0JywgJzIuMDAwMDAwJywgJy1tcycsICcxNicsICctdG4nLCAnOCcsICctbWEnLCAnMjAwJywgJy1pbWFlJywgJzxpbmZpbGUubWFlPicsICctb21hZScsICc8b3V0ZmlsZS5tYWU+Jw==

>  <s_epik_input>  (446) 
W2NIXTFbY0hdW2NIXWMoRilbY0hdYzFbTkhdQyg9TyljKHMyKWMoYyhjMjMpW2NIXVtjSF1bY0hdbjMpW05IXVtDSDJdYzRbY0hdYyhbY0hdW2NIXVtjSF00KVtDSDJdTihbQ0gzXSlbQ0gzXQ==

>  <s_i_glide_gridfile>  (446) 
ATP-Grid

>  <s_lp_Force_Field>  (446) 
OPLS_2005

>  <s_lp_Variant>  (446) 
rxn512c____EMOL511441____EMOL44845843____EMOL2873214-1

>  <s_lp_label>  (446) 
2907_sdstereoexpander_1_neutralizer_1_epik_1_stereoizer_1

>  <s_m_source_file>  (446) 
ATP-VSW-LIGPREP-002-in.maegz

>  <s_sd_BIOSOLVEIT.INFINISEE\_QUERY\_NAME>  (446) 
Ref-Lig

>  <s_sd_BIOSOLVEIT.INFINISEE\_QUERY\_SMILES>  (446) 
S(c1nc2c(cc1C[NH2+]Cc3ccc(cc3)C[NH+](C)C)cccc2)Cc4ccccc4

>  <s_sd_BIOSOLVEIT.INFINISEE\_REACTION\_NAME>  (446) 
rxn512c

>  <s_sd_BIOSOLVEIT.INFINISEE\_REAGENT1\_NAME>  (446) 
EMOL511441

>  <s_sd_BIOSOLVEIT.INFINISEE\_REAGENT1\_SMILES>  (446) 
Fc1cc(N)ccc1

>  <s_sd_BIOSOLVEIT.INFINISEE\_REAGENT2\_NAME>  (446) 
EMOL44845843

>  <s_sd_BIOSOLVEIT.INFINISEE\_REAGENT2\_SMILES>  (446) 
ClC=1c2c(SC1C(=O)O)nccc2

>  <s_sd_BIOSOLVEIT.INFINISEE\_REAGENT3\_NAME>  (446) 
EMOL2873214

>  <s_sd_BIOSOLVEIT.INFINISEE\_REAGENT3\_SMILES>  (446) 
N(Cc1cc(ccc1)CN)(C)C

>  <s_sd_BIOSOLVEIT.INFINISEE\_SPACE>  (446) 
eXplore_7tr_2022-12

>  <s_vsw_compound_code>  (446) 
92994

>  <s_vsw_variant>  (446) 
92994-1

>  <r_epik_Charging_Adjusted_Penalty>  (446) 
0.086140609825027206

>  <r_epik_Ionization_Penalty>  (446) 
0.043200000000000002

>  <r_epik_Ionization_Penalty_Charging>  (446) 
0.043099999999999999

>  <r_epik_Ionization_Penalty_Neutral>  (446) 
0.0001

>  <r_epik_State_Penalty>  (446) 
0.043099999999999999

>  <r_i_docking_score>  (446) 
-5.9427851521281001

>  <r_i_glide_ecoul>  (446) 
-4.0138216018676802

>  <r_i_glide_eff_state_penalty>  (446) 
0.043099999999999999

>  <r_i_glide_einternal>  (446) 
3.35696625709534

>  <r_i_glide_emodel>  (446) 
-69.384809373460598

>  <r_i_glide_energy>  (446) 
-48.601792335510297

>  <r_i_glide_erotb>  (446) 
0.73527169282447202

>  <r_i_glide_esite>  (446) 
-0.043219702085886103

>  <r_i_glide_evdw>  (446) 
-44.587970733642599

>  <r_i_glide_gscore>  (446) 
-5.9858851521281

>  <r_i_glide_hbond>  (446) 
0

>  <r_i_glide_ligand_efficiency>  (446) 
-0.191702746842842

>  <r_i_glide_ligand_efficiency_ln>  (446) 
-1.3402801762974701

>  <r_i_glide_ligand_efficiency_sa>  (446) 
-0.60221129925306005

>  <r_i_glide_lipo>  (446) 
-3.3322869862161402

>  <r_i_glide_metal>  (446) 
-0

>  <r_i_glide_rewards>  (446) 
-0.51417837968826197

>  <r_lp_Energy>  (446) 
37.414360000000002

>  <r_qp_ACxDN^.5/SA>  (446) 
0.0071709

>  <r_qp_CIQPlogS>  (446) 
-5.0170000000000003

>  <r_qp_EA(eV)>  (446) 
1.0309999999999999

>  <r_qp_FISA>  (446) 
61.322000000000003

>  <r_qp_FOSA>  (446) 
196.58600000000001

>  <r_qp_IP(eV)>  (446) 
8.1950000000000003

>  <r_qp_Jm>  (446) 
0.00011352740997769001

>  <r_qp_PISA>  (446) 
424.69299999999998

>  <r_qp_PSA>  (446) 
63.636000000000003

>  <r_qp_PercentHumanOralAbsorption>  (446) 
95.409000000000006

>  <r_qp_QPPCaco>  (446) 
161.505

>  <r_qp_QPPMDCK>  (446) 
244.63

>  <r_qp_QPlogBB>  (446) 
0.47299999999999998

>  <r_qp_QPlogHERG>  (446) 
-8.5779999999999994

>  <r_qp_QPlogKhsa>  (446) 
0.96599999999999997

>  <r_qp_QPlogKp>  (446) 
-4.6070000000000002

>  <r_qp_QPlogPC16>  (446) 
14.733000000000001

>  <r_qp_QPlogPo/w>  (446) 
4.9429999999999996

>  <r_qp_QPlogPoct>  (446) 
20.920999999999999

>  <r_qp_QPlogPw>  (446) 
10.238

>  <r_qp_QPlogS>  (446) 
-4.976

>  <r_qp_QPpolrz>  (446) 
48.414000000000001

>  <r_qp_SASA>  (446) 
766.98400000000004

>  <r_qp_SAamideO>  (446) 
0

>  <r_qp_SAfluorine>  (446) 
46.890000000000001

>  <r_qp_WPSA>  (446) 
84.384

>  <r_qp_accptHB>  (446) 
5.5

>  <r_qp_dip^2/V>  (446) 
0.016323899999999999

>  <r_qp_dipole>  (446) 
4.7370000000000001

>  <r_qp_donorHB>  (446) 
1

>  <r_qp_glob>  (446) 
0.77948399999999995

>  <r_qp_mol_MW>  (446) 
434.52999999999997

>  <r_qp_volume>  (446) 
1374.4949999999999

>  <r_sd_BIOSOLVEIT.INFINISEE\_FTREES\_SIMILARITY>  (446) 
0.90400000000000003

>  <r_sd_BIOSOLVEIT.LOGP>  (446) 
3.9443000000000001

>  <r_sd_BIOSOLVEIT.MOLECULAR\_WEIGHT>  (446) 
435.54399999999998

>  <r_sd_BIOSOLVEIT.TPSA>  (446) 
58.460000000000001

>  <i_epik_Tot_Q>  (446) 
1

>  <i_epik_Tot_abs_Q>  (446) 
1

>  <i_f3d_flags>  (446) 
0

>  <i_i_glide_confnum>  (446) 
9

>  <i_i_glide_lignum>  (446) 
1441

>  <i_i_glide_posenum>  (446) 
6

>  <i_i_glide_rotatable_bonds>  (446) 
8

>  <i_lp_mmshare_version>  (446) 
65135

>  <i_m_ct_format>  (446) 
2

>  <i_m_source_file_index>  (446) 
2907

>  <i_qp_#NandO>  (446) 
5

>  <i_qp_#acid>  (446) 
0

>  <i_qp_#amide>  (446) 
0

>  <i_qp_#amidine>  (446) 
0

>  <i_qp_#amine>  (446) 
2

>  <i_qp_#in34>  (446) 
0

>  <i_qp_#in56>  (446) 
21

>  <i_qp_#metab>  (446) 
7

>  <i_qp_#nonHatm>  (446) 
31

>  <i_qp_#noncon>  (446) 
0

>  <i_qp_#ringatoms>  (446) 
21

>  <i_qp_#rotor>  (446) 
7

>  <i_qp_#rtvFG>  (446) 
0

>  <i_qp_#stars>  (446) 
0

>  <i_qp_CNS>  (446) 
2

>  <i_qp_HumanOralAbsorption>  (446) 
3

>  <i_qp_RuleOfFive>  (446) 
0

>  <i_qp_RuleOfThree>  (446) 
1

>  <i_sd_BIOSOLVEIT.INFINISEE\_RESULT\_RANK>  (446) 
75642

>  <i_sd_version>  (446) 
0

>  <b_lp_Chiralities_Consistent>  (446) 
1

>  <b_sd_chiral_flag>  (446) 
0

>  <canonical_id>  (446) 
ATP-HTVS-464DF81034BD

>  <compound_code>  (446) 
92994

>  <title>  (446) 
rxn512c____EMOL511441____EMOL44845843____EMOL2873214

>  <variant>  (446) 
92994-1

>  <source_file>  (446) 
运行/运行/ATP-VSW/ATP-VSW-DOCK_HTVS_1-002_lib.maegz

>  <canonical_smiles>  (446) 
C[NH+](C)Cc1cccc(CNc2c(C(=O)Nc3cccc(F)c3)sc3ncccc23)c1

>  <scaffold>  (446) 
O=C(Nc1ccccc1)c1sc2ncccc2c1NCc1ccccc1

>  <molecular_formula>  (446) 
C24H24FN4OS+

$$$$
ATP-HTVS-4697491C32F9
     RDKit          3D

 69 72  0  0  0  0  0  0  0  0999 V2000
  197.2093  187.7338  159.2219 O   0  0  0  0  0  0  0  0  0  0  0  0
  197.7506  186.6705  158.9310 C   0  0  0  0  0  0  0  0  0  0  0  0
  198.4659  186.4663  157.8116 N   0  0  0  0  0  0  0  0  0  0  0  0
  198.8288  187.4064  156.8116 C   0  0  0  0  0  0  0  0  0  0  0  0
  199.1779  186.9236  155.5237 C   0  0  0  0  0  0  0  0  0  0  0  0
  199.1524  185.5415  155.2675 N   0  0  0  0  0  0  0  0  0  0  0  0
  200.3119  184.8237  155.7792 C   0  0  1  0  0  0  0  0  0  0  0  0
  200.2719  183.3241  155.5524 C   0  0  0  0  0  0  0  0  0  0  0  0
  199.1325  182.5625  155.8946 C   0  0  0  0  0  0  0  0  0  0  0  0
  199.1367  181.1627  155.7328 C   0  0  0  0  0  0  0  0  0  0  0  0
  200.2762  180.5181  155.2041 C   0  0  0  0  0  0  0  0  0  0  0  0
  201.4048  181.2809  154.8379 C   0  0  0  0  0  0  0  0  0  0  0  0
  201.4061  182.6760  155.0221 C   0  0  0  0  0  0  0  0  0  0  0  0
  200.2813  179.0164  154.9837 C   0  0  1  0  0  0  0  0  0  0  0  0
  200.9134  178.2813  156.1109 N   0  0  2  0  0  0  0  0  0  0  0  0
  201.6277  177.0555  155.6493 C   0  0  1  0  0  0  0  0  0  0  0  0
  200.6940  176.0078  155.0128 C   0  0  2  0  0  0  0  0  0  0  0  0
  199.9730  178.0685  157.2455 C   0  0  1  0  0  0  0  0  0  0  0  0
  200.6671  177.5555  158.5153 C   0  0  2  0  0  0  0  0  0  0  0  0
  199.5635  187.8559  154.5235 C   0  0  0  0  0  0  0  0  0  0  0  0
  199.5881  189.2415  154.8432 C   0  0  0  0  0  0  0  0  0  0  0  0
  199.2551  189.6458  156.0867 N   0  0  0  0  0  0  0  0  0  0  0  0
  198.8885  188.7967  157.0657 C   0  0  0  0  0  0  0  0  0  0  0  0
  199.9590  190.1966  153.8761 C   0  0  0  0  0  0  0  0  0  0  0  0
  200.3218  189.7800  152.5827 C   0  0  0  0  0  0  0  0  0  0  0  0
  200.3178  188.4109  152.2579 C   0  0  0  0  0  0  0  0  0  0  0  0
  199.9405  187.4545  153.2196 C   0  0  0  0  0  0  0  0  0  0  0  0
  197.6232  185.4700  159.8677 C   0  0  1  0  0  0  0  0  0  0  0  0
  196.5159  184.5252  159.4154 C   0  0  0  0  0  0  0  0  0  0  0  0
  195.1530  184.7511  159.7289 C   0  0  0  0  0  0  0  0  0  0  0  0
  194.7306  185.8771  160.5466 C   0  0  0  0  0  0  0  0  0  0  0  0
  194.3952  186.7676  161.2043 N   0  0  0  0  0  0  0  0  0  0  0  0
  194.1685  183.8428  159.2856 C   0  0  0  0  0  0  0  0  0  0  0  0
  194.5344  182.7107  158.5347 C   0  0  0  0  0  0  0  0  0  0  0  0
  195.8850  182.4796  158.2243 C   0  0  0  0  0  0  0  0  0  0  0  0
  196.8725  183.3760  158.6765 C   0  0  0  0  0  0  0  0  0  0  0  0
  198.7462  185.5139  157.6201 H   0  0  0  0  0  0  0  0  0  0  0  0
  198.9620  185.2970  154.3064 H   0  0  0  0  0  0  0  0  0  0  0  0
  201.2094  185.2315  155.3122 H   0  0  0  0  0  0  0  0  0  0  0  0
  200.4271  184.9893  156.8505 H   0  0  0  0  0  0  0  0  0  0  0  0
  198.2502  183.0519  156.2759 H   0  0  0  0  0  0  0  0  0  0  0  0
  198.2639  180.5875  156.0090 H   0  0  0  0  0  0  0  0  0  0  0  0
  202.2759  180.8020  154.4104 H   0  0  0  0  0  0  0  0  0  0  0  0
  202.2779  183.2467  154.7426 H   0  0  0  0  0  0  0  0  0  0  0  0
  199.2640  178.6591  154.8039 H   0  0  0  0  0  0  0  0  0  0  0  0
  200.8340  178.8344  154.0592 H   0  0  0  0  0  0  0  0  0  0  0  0
  202.3920  177.3653  154.9325 H   0  0  0  0  0  0  0  0  0  0  0  0
  202.1859  176.5967  156.4674 H   0  0  0  0  0  0  0  0  0  0  0  0
  201.2525  175.1345  154.6799 H   0  0  0  0  0  0  0  0  0  0  0  0
  200.1550  176.3955  154.1467 H   0  0  0  0  0  0  0  0  0  0  0  0
  199.9538  175.6517  155.7275 H   0  0  0  0  0  0  0  0  0  0  0  0
  199.4817  179.0123  157.4897 H   0  0  0  0  0  0  0  0  0  0  0  0
  199.1824  177.3852  156.9295 H   0  0  0  0  0  0  0  0  0  0  0  0
  199.9552  177.4594  159.3333 H   0  0  0  0  0  0  0  0  0  0  0  0
  201.4640  178.2245  158.8413 H   0  0  0  0  0  0  0  0  0  0  0  0
  201.0888  176.5681  158.3616 H   0  0  0  0  0  0  0  0  0  0  0  0
  198.6755  189.2592  158.0202 H   0  0  0  0  0  0  0  0  0  0  0  0
  199.9734  191.2524  154.1077 H   0  0  0  0  0  0  0  0  0  0  0  0
  200.6035  190.5075  151.8364 H   0  0  0  0  0  0  0  0  0  0  0  0
  200.6051  188.0933  151.2665 H   0  0  0  0  0  0  0  0  0  0  0  0
  199.9518  186.4122  152.9398 H   0  0  0  0  0  0  0  0  0  0  0  0
  198.5702  184.9332  159.8994 H   0  0  0  0  0  0  0  0  0  0  0  0
  197.4413  185.8297  160.8778 H   0  0  0  0  0  0  0  0  0  0  0  0
  193.1290  184.0093  159.5244 H   0  0  0  0  0  0  0  0  0  0  0  0
  193.7762  182.0246  158.1770 H   0  0  0  0  0  0  0  0  0  0  0  0
  196.1532  181.6089  157.6413 H   0  0  0  0  0  0  0  0  0  0  0  0
  197.9125  183.1735  158.4630 H   0  0  0  0  0  0  0  0  0  0  0  0
  201.6378  178.8931  156.4594 H   0  0  0  0  0  0  0  0  0  0  0  0
  199.2888  190.6428  156.3056 H   0  0  0  0  0  0  0  0  0  0  0  0
  1  2  2  0
  2  3  1  0
  2 28  1  0
  3  4  1  0
  3 37  1  0
  4  5  2  0
  4 23  1  0
  5  6  1  0
  5 20  1  0
  6  7  1  0
  6 38  1  0
  7  8  1  0
  7 39  1  6
  7 40  1  0
  8  9  1  0
  8 13  2  0
  9 10  2  0
  9 41  1  0
 10 11  1  0
 10 42  1  0
 11 12  2  0
 11 14  1  0
 12 13  1  0
 12 43  1  0
 13 44  1  0
 14 15  1  0
 14 45  1  6
 14 46  1  0
 15 16  1  0
 15 18  1  0
 15 68  1  1
 16 17  1  0
 16 47  1  6
 16 48  1  0
 17 49  1  6
 17 50  1  0
 17 51  1  0
 18 19  1  0
 18 52  1  1
 18 53  1  0
 19 54  1  1
 19 55  1  0
 19 56  1  0
 20 21  1  0
 20 27  2  0
 21 22  1  0
 21 24  2  0
 22 23  2  0
 22 69  1  0
 23 57  1  0
 24 25  1  0
 24 58  1  0
 25 26  2  0
 25 59  1  0
 26 27  1  0
 26 60  1  0
 27 61  1  0
 28 29  1  0
 28 62  1  1
 28 63  1  0
 29 30  1  0
 29 36  2  0
 30 31  1  0
 30 33  2  0
 31 32  3  0
 33 34  1  0
 33 64  1  0
 34 35  2  0
 34 65  1  0
 35 36  1  0
 35 66  1  0
 36 67  1  0
M  CHG  2  15   1  22   1
M  END
>  <s_epik_cmdline>  (447) 
J2VwaWtfcHl0aG9uJywgJy1waCcsICc3LjAwMDAwMCcsICctcGh0JywgJzIuMDAwMDAwJywgJy1tcycsICcxNicsICctdG4nLCAnOCcsICctbWEnLCAnMjAwJywgJy1pbWFlJywgJzxpbmZpbGUubWFlPicsICctb21hZScsICc8b3V0ZmlsZS5tYWU+Jw==

>  <s_epik_input>  (447) 
W2NIXTFbY0hdW2NIXVtjSF1jKEMjTiljMVtDSDJdQyg9TylbTkhdYyhbY0hdbmMoYzIzKVtjSF1bY0hdW2NIXVtjSF0zKWMyW05IXVtDSDJdYzRbY0hdW2NIXWMoW2NIXVtjSF00KVtDSDJdTihbQ0gyXVtDSDNdKVtDSDJdW0NIM10=

>  <s_i_glide_gridfile>  (447) 
ATP-Grid

>  <s_lp_Force_Field>  (447) 
OPLS_2005

>  <s_lp_Variant>  (447) 
rxn502b____EMOL3801098____EMOL30488121____EMOL2868412-1

>  <s_lp_label>  (447) 
2429_sdstereoexpander_1_neutralizer_1_epik_1_stereoizer_1

>  <s_m_source_file>  (447) 
ATP-VSW-LIGPREP-002-in.maegz

>  <s_sd_BIOSOLVEIT.INFINISEE\_QUERY\_NAME>  (447) 
Ref-Lig

>  <s_sd_BIOSOLVEIT.INFINISEE\_QUERY\_SMILES>  (447) 
S(c1nc2c(cc1C[NH2+]Cc3ccc(cc3)C[NH+](C)C)cccc2)Cc4ccccc4

>  <s_sd_BIOSOLVEIT.INFINISEE\_REACTION\_NAME>  (447) 
rxn502b

>  <s_sd_BIOSOLVEIT.INFINISEE\_REAGENT1\_NAME>  (447) 
EMOL3801098

>  <s_sd_BIOSOLVEIT.INFINISEE\_REAGENT1\_SMILES>  (447) 
O=C(O)Cc1c(C#N)cccc1

>  <s_sd_BIOSOLVEIT.INFINISEE\_REAGENT2\_NAME>  (447) 
EMOL30488121

>  <s_sd_BIOSOLVEIT.INFINISEE\_REAGENT2\_SMILES>  (447) 
Brc1c(N)cnc2c1cccc2

>  <s_sd_BIOSOLVEIT.INFINISEE\_REAGENT3\_NAME>  (447) 
EMOL2868412

>  <s_sd_BIOSOLVEIT.INFINISEE\_REAGENT3\_SMILES>  (447) 
N(Cc1ccc(cc1)CN)(CC)CC

>  <s_sd_BIOSOLVEIT.INFINISEE\_SPACE>  (447) 
eXplore_7tr_2022-12

>  <s_vsw_compound_code>  (447) 
77698

>  <s_vsw_variant>  (447) 
77698-1

>  <r_epik_Charging_Adjusted_Penalty>  (447) 
0.090875940661386101

>  <r_epik_Ionization_Penalty>  (447) 
0.045400000000000003

>  <r_epik_Ionization_Penalty_Charging>  (447) 
0.045400000000000003

>  <r_epik_Ionization_Penalty_Neutral>  (447) 
0

>  <r_epik_State_Penalty>  (447) 
0.045400000000000003

>  <r_i_docking_score>  (447) 
-4.2474975969623001

>  <r_i_glide_ecoul>  (447) 
-8.0883979797363299

>  <r_i_glide_eff_state_penalty>  (447) 
0.045400000000000003

>  <r_i_glide_einternal>  (447) 
2.89548540115356

>  <r_i_glide_emodel>  (447) 
-60.908278740400398

>  <r_i_glide_energy>  (447) 
-45.7945365905762

>  <r_i_glide_erotb>  (447) 
0.79318537510244302

>  <r_i_glide_esite>  (447) 
0

>  <r_i_glide_evdw>  (447) 
-37.706138610839801

>  <r_i_glide_gscore>  (447) 
-4.2928975969623

>  <r_i_glide_hbond>  (447) 
0

>  <r_i_glide_ligand_efficiency>  (447) 
-0.117986044360064

>  <r_i_glide_ligand_efficiency_ln>  (447) 
-0.92668922153357802

>  <r_i_glide_ligand_efficiency_sa>  (447) 
-0.389581334396428

>  <r_i_glide_lipo>  (447) 
-1.2463246955595899

>  <r_i_glide_metal>  (447) 
-0

>  <r_i_glide_rewards>  (447) 
-0.74119164900271595

>  <r_lp_Energy>  (447) 
41.050632

>  <r_qp_ACxDN^.5/SA>  (447) 
0.0147592

>  <r_qp_CIQPlogS>  (447) 
-6.9450000000000003

>  <r_qp_EA(eV)>  (447) 
1.056

>  <r_qp_FISA>  (447) 
119.58799999999999

>  <r_qp_FOSA>  (447) 
274.87200000000001

>  <r_qp_IP(eV)>  (447) 
8.6020000000000003

>  <r_qp_Jm>  (447) 
0.0011051771255915701

>  <r_qp_PISA>  (447) 
372.09300000000002

>  <r_qp_PSA>  (447) 
84.772999999999996

>  <r_qp_PercentHumanOralAbsorption>  (447) 
92.444000000000003

>  <r_qp_QPPCaco>  (447) 
181.44399999999999

>  <r_qp_QPPMDCK>  (447) 
86.5

>  <r_qp_QPlogBB>  (447) 
-0.874

>  <r_qp_QPlogHERG>  (447) 
-6.8719999999999999

>  <r_qp_QPlogKhsa>  (447) 
0.61899999999999999

>  <r_qp_QPlogKp>  (447) 
-3.419

>  <r_qp_QPlogPC16>  (447) 
15.933

>  <r_qp_QPlogPo/w>  (447) 
4.282

>  <r_qp_QPlogPoct>  (447) 
25.475000000000001

>  <r_qp_QPlogPw>  (447) 
13.291

>  <r_qp_QPlogS>  (447) 
-5.2160000000000002

>  <r_qp_QPpolrz>  (447) 
50.125999999999998

>  <r_qp_SASA>  (447) 
766.553

>  <r_qp_SAamideO>  (447) 
0

>  <r_qp_SAfluorine>  (447) 
0

>  <r_qp_WPSA>  (447) 
0

>  <r_qp_accptHB>  (447) 
8

>  <r_qp_dip^2/V>  (447) 
0.10674210000000001

>  <r_qp_dipole>  (447) 
12.628

>  <r_qp_donorHB>  (447) 
2

>  <r_qp_glob>  (447) 
0.8244998

>  <r_qp_mol_MW>  (447) 
477.608

>  <r_qp_volume>  (447) 
1494.0029999999999

>  <r_sd_BIOSOLVEIT.INFINISEE\_FTREES\_SIMILARITY>  (447) 
0.91700000000000004

>  <r_sd_BIOSOLVEIT.LOGP>  (447) 
4.3244800000000003

>  <r_sd_BIOSOLVEIT.MOLECULAR\_WEIGHT>  (447) 
478.61700000000002

>  <r_sd_BIOSOLVEIT.TPSA>  (447) 
82.25

>  <i_epik_Tot_Q>  (447) 
2

>  <i_epik_Tot_abs_Q>  (447) 
2

>  <i_f3d_flags>  (447) 
0

>  <i_i_glide_confnum>  (447) 
7

>  <i_i_glide_lignum>  (447) 
1040

>  <i_i_glide_posenum>  (447) 
9

>  <i_i_glide_rotatable_bonds>  (447) 
11

>  <i_lp_mmshare_version>  (447) 
65135

>  <i_m_ct_format>  (447) 
2

>  <i_m_source_file_index>  (447) 
2429

>  <i_qp_#NandO>  (447) 
6

>  <i_qp_#acid>  (447) 
0

>  <i_qp_#amide>  (447) 
0

>  <i_qp_#amidine>  (447) 
0

>  <i_qp_#amine>  (447) 
1

>  <i_qp_#in34>  (447) 
0

>  <i_qp_#in56>  (447) 
22

>  <i_qp_#metab>  (447) 
7

>  <i_qp_#nonHatm>  (447) 
36

>  <i_qp_#noncon>  (447) 
0

>  <i_qp_#ringatoms>  (447) 
22

>  <i_qp_#rotor>  (447) 
11

>  <i_qp_#rtvFG>  (447) 
0

>  <i_qp_#stars>  (447) 
1

>  <i_qp_CNS>  (447) 
0

>  <i_qp_HumanOralAbsorption>  (447) 
3

>  <i_qp_RuleOfFive>  (447) 
0

>  <i_qp_RuleOfThree>  (447) 
1

>  <i_sd_BIOSOLVEIT.INFINISEE\_RESULT\_RANK>  (447) 
23154

>  <i_sd_version>  (447) 
0

>  <b_lp_Chiralities_Consistent>  (447) 
1

>  <b_sd_chiral_flag>  (447) 
0

>  <canonical_id>  (447) 
ATP-HTVS-4697491C32F9

>  <compound_code>  (447) 
77698

>  <title>  (447) 
rxn502b____EMOL3801098____EMOL30488121____EMOL2868412

>  <variant>  (447) 
77698-1

>  <source_file>  (447) 
运行/运行/ATP-VSW/ATP-VSW-DOCK_HTVS_1-002_lib.maegz

>  <canonical_smiles>  (447) 
CC[NH+](CC)Cc1ccc(CNc2c(NC(=O)Cc3ccccc3C#N)c[nH+]c3ccccc23)cc1

>  <scaffold>  (447) 
O=C(Cc1ccccc1)Nc1c[nH+]c2ccccc2c1NCc1ccccc1

>  <molecular_formula>  (447) 
C30H33N5O+2

$$$$
ATP-HTVS-4697A006B393
     RDKit          3D

 58 61  0  0  0  0  0  0  0  0999 V2000
  200.3035  179.6787  154.6760 O   0  0  0  0  0  0  0  0  0  0  0  0
  199.6973  178.7764  155.2570 C   0  0  0  0  0  0  0  0  0  0  0  0
  200.1659  177.5285  155.4490 N   0  0  0  0  0  0  0  0  0  0  0  0
  201.4015  176.9675  155.0249 C   0  0  0  0  0  0  0  0  0  0  0  0
  201.5793  175.5832  155.2347 C   0  0  0  0  0  0  0  0  0  0  0  0
  202.7735  174.9455  154.8319 C   0  0  0  0  0  0  0  0  0  0  0  0
  203.7968  175.6994  154.2213 C   0  0  0  0  0  0  0  0  0  0  0  0
  203.6149  177.0731  153.9915 C   0  0  0  0  0  0  0  0  0  0  0  0
  202.4246  177.7087  154.3897 C   0  0  0  0  0  0  0  0  0  0  0  0
  202.9581  173.4567  155.0687 C   0  0  1  0  0  0  0  0  0  0  0  0
  202.4989  172.6593  153.9112 N   0  0  2  0  0  0  0  0  0  0  0  0
  203.2296  172.9692  152.6671 C   0  0  2  0  0  0  0  0  0  0  0  0
  201.0310  172.6609  153.7168 C   0  0  2  0  0  0  0  0  0  0  0  0
  198.3120  179.0603  155.8327 C   0  0  1  0  0  0  0  0  0  0  0  0
  197.7825  180.3599  155.3728 N   0  0  0  0  0  0  0  0  0  0  0  0
  197.4830  180.5330  154.0166 C   0  0  0  0  0  0  0  0  0  0  0  0
  197.0238  181.8582  153.8965 C   0  0  0  0  0  0  0  0  0  0  0  0
  197.0553  182.4172  155.1712 N   0  0  0  0  0  0  0  0  0  0  0  0
  197.5040  181.4987  156.0701 C   0  0  0  0  0  0  0  0  0  0  0  0
  197.6557  181.7214  157.5420 C   0  0  1  0  0  0  0  0  0  0  0  0
  196.6484  182.7046  158.1103 C   0  0  0  0  0  0  0  0  0  0  0  0
  195.2769  182.3700  158.1420 C   0  0  0  0  0  0  0  0  0  0  0  0
  194.3371  183.2759  158.6752 C   0  0  0  0  0  0  0  0  0  0  0  0
  194.7660  184.5166  159.1814 C   0  0  0  0  0  0  0  0  0  0  0  0
  196.1308  184.8595  159.1484 C   0  0  0  0  0  0  0  0  0  0  0  0
  197.0723  183.9523  158.6144 C   0  0  0  0  0  0  0  0  0  0  0  0
  196.6410  182.4020  152.6721 C   0  0  0  0  0  0  0  0  0  0  0  0
  196.7195  181.5530  151.5486 C   0  0  0  0  0  0  0  0  0  0  0  0
  197.1705  180.2220  151.6664 C   0  0  0  0  0  0  0  0  0  0  0  0
  197.5593  179.6844  152.9061 C   0  0  0  0  0  0  0  0  0  0  0  0
  199.5779  176.9270  156.0076 H   0  0  0  0  0  0  0  0  0  0  0  0
  200.7991  175.0055  155.7035 H   0  0  0  0  0  0  0  0  0  0  0  0
  204.7186  175.2256  153.9129 H   0  0  0  0  0  0  0  0  0  0  0  0
  204.3942  177.6501  153.5083 H   0  0  0  0  0  0  0  0  0  0  0  0
  202.3218  178.7644  154.1803 H   0  0  0  0  0  0  0  0  0  0  0  0
  204.0061  173.2357  155.2890 H   0  0  0  0  0  0  0  0  0  0  0  0
  202.3923  173.1770  155.9623 H   0  0  0  0  0  0  0  0  0  0  0  0
  203.0248  173.9937  152.3552 H   0  0  0  0  0  0  0  0  0  0  0  0
  202.9318  172.3036  151.8592 H   0  0  0  0  0  0  0  0  0  0  0  0
  204.3035  172.8617  152.8064 H   0  0  0  0  0  0  0  0  0  0  0  0
  200.6810  173.6733  153.5145 H   0  0  0  0  0  0  0  0  0  0  0  0
  200.5164  172.2860  154.5977 H   0  0  0  0  0  0  0  0  0  0  0  0
  200.7525  172.0288  152.8776 H   0  0  0  0  0  0  0  0  0  0  0  0
  197.5990  178.2805  155.5504 H   0  0  0  0  0  0  0  0  0  0  0  0
  198.3599  179.0545  156.9209 H   0  0  0  0  0  0  0  0  0  0  0  0
  197.5348  180.7737  158.0671 H   0  0  0  0  0  0  0  0  0  0  0  0
  198.6687  182.0659  157.7370 H   0  0  0  0  0  0  0  0  0  0  0  0
  194.9393  181.4195  157.7536 H   0  0  0  0  0  0  0  0  0  0  0  0
  193.2901  183.0154  158.6919 H   0  0  0  0  0  0  0  0  0  0  0  0
  194.0461  185.2095  159.5879 H   0  0  0  0  0  0  0  0  0  0  0  0
  196.4590  185.8126  159.5309 H   0  0  0  0  0  0  0  0  0  0  0  0
  198.1179  184.2230  158.5935 H   0  0  0  0  0  0  0  0  0  0  0  0
  196.2861  183.4192  152.5858 H   0  0  0  0  0  0  0  0  0  0  0  0
  196.4272  181.9284  150.5811 H   0  0  0  0  0  0  0  0  0  0  0  0
  197.2189  179.5999  150.7845 H   0  0  0  0  0  0  0  0  0  0  0  0
  197.9039  178.6622  152.9884 H   0  0  0  0  0  0  0  0  0  0  0  0
  202.7419  171.6690  154.1337 H   0  0  0  0  0  0  0  0  0  0  0  0
  196.7782  183.3571  155.4236 H   0  0  0  0  0  0  0  0  0  0  0  0
  1  2  2  0
  2  3  1  0
  2 14  1  0
  3  4  1  0
  3 31  1  0
  4  5  2  0
  4  9  1  0
  5  6  1  0
  5 32  1  0
  6  7  2  0
  6 10  1  0
  7  8  1  0
  7 33  1  0
  8  9  2  0
  8 34  1  0
  9 35  1  0
 10 11  1  0
 10 36  1  1
 10 37  1  0
 11 12  1  0
 11 13  1  0
 11 57  1  1
 12 38  1  6
 12 39  1  0
 12 40  1  0
 13 41  1  6
 13 42  1  0
 13 43  1  0
 14 15  1  0
 14 44  1  1
 14 45  1  0
 15 16  1  0
 15 19  1  0
 16 17  1  0
 16 30  2  0
 17 18  1  0
 17 27  2  0
 18 19  2  0
 18 58  1  0
 19 20  1  0
 20 21  1  0
 20 46  1  1
 20 47  1  0
 21 22  2  0
 21 26  1  0
 22 23  1  0
 22 48  1  0
 23 24  2  0
 23 49  1  0
 24 25  1  0
 24 50  1  0
 25 26  2  0
 25 51  1  0
 26 52  1  0
 27 28  1  0
 27 53  1  0
 28 29  2  0
 28 54  1  0
 29 30  1  0
 29 55  1  0
 30 56  1  0
M  CHG  2  11   1  18   1
M  END
>  <s_epik_cmdline>  (448) 
J2VwaWtfcHl0aG9uJywgJy1waCcsICc3LjAwMDAwMCcsICctcGh0JywgJzIuMDAwMDAwJywgJy1tcycsICcxNicsICctdG4nLCAnOCcsICctbWEnLCAnMjAwJywgJy1pbWFlJywgJzxpbmZpbGUubWFlPicsICctb21hZScsICc8b3V0ZmlsZS5tYWU+Jw==

>  <s_epik_input>  (448) 
W2NIXTFbY0hdW2NIXWMoW0NIMl1OKFtDSDNdKVtDSDNdKVtjSF1jMVtOSF1DKD1PKVtDSDJdbjJjKG5jKGMyMylbY0hdW2NIXVtjSF1bY0hdMylbQ0gyXWM0W2NIXVtjSF1bY0hdW2NIXVtjSF00

>  <s_i_glide_gridfile>  (448) 
ATP-Grid

>  <s_lp_Force_Field>  (448) 
OPLS_2005

>  <s_lp_Variant>  (448) 
m_11dba____625054____140639-2

>  <s_lp_label>  (448) 
1757_sdstereoexpander_1_neutralizer_1_epik_2_stereoizer_1

>  <s_m_source_file>  (448) 
ATP-VSW-LIGPREP-002-in.maegz

>  <s_sd_BIOSOLVEIT.INFINISEE\_QUERY\_NAME>  (448) 
Ref-Lig

>  <s_sd_BIOSOLVEIT.INFINISEE\_QUERY\_SMILES>  (448) 
S(c1nc2c(cc1C[NH2+]Cc3ccc(cc3)C[NH+](C)C)cccc2)Cc4ccccc4

>  <s_sd_BIOSOLVEIT.INFINISEE\_REACTION\_NAME>  (448) 
m_11dba

>  <s_sd_BIOSOLVEIT.INFINISEE\_REAGENT1\_SMILES>  (448) 
[R1*]Nc1cc(ccc1)CN(C)C

>  <s_sd_BIOSOLVEIT.INFINISEE\_REAGENT2\_SMILES>  (448) 
[R1*]C(=O)CN1c2c(N=C1Cc3ccccc3)cccc2

>  <s_sd_BIOSOLVEIT.INFINISEE\_SPACE>  (448) 
REALSpace_44bn_2023-08

>  <s_vsw_compound_code>  (448) 
56194

>  <s_vsw_variant>  (448) 
56194-2

>  <r_epik_Charging_Adjusted_Penalty>  (448) 
2.5325107124147701

>  <r_epik_Ionization_Penalty>  (448) 
1.2661

>  <r_epik_Ionization_Penalty_Charging>  (448) 
1.2661

>  <r_epik_Ionization_Penalty_Neutral>  (448) 
0

>  <r_epik_State_Penalty>  (448) 
1.2664

>  <r_i_docking_score>  (448) 
-4.0239516782235203

>  <r_i_glide_ecoul>  (448) 
-12.275636672973601

>  <r_i_glide_eff_state_penalty>  (448) 
1.2664

>  <r_i_glide_einternal>  (448) 
2.7527656555175799

>  <r_i_glide_emodel>  (448) 
-68.530905648423598

>  <r_i_glide_energy>  (448) 
-46.1909275054932

>  <r_i_glide_erotb>  (448) 
0.85551228446468197

>  <r_i_glide_esite>  (448) 
-0.30275400881189501

>  <r_i_glide_evdw>  (448) 
-33.915290832519503

>  <r_i_glide_gscore>  (448) 
-5.2903516782235203

>  <r_i_glide_hbond>  (448) 
-0.20000000000000001

>  <r_i_glide_ligand_efficiency>  (448) 
-0.13413172260745099

>  <r_i_glide_ligand_efficiency_ln>  (448) 
-0.91428566575758397

>  <r_i_glide_ligand_efficiency_sa>  (448) 
-0.41677844809294201

>  <r_i_glide_lipo>  (448) 
-0.97770004766792395

>  <r_i_glide_metal>  (448) 
-0

>  <r_i_glide_rewards>  (448) 
-1.1282998636363599

>  <r_lp_Energy>  (448) 
28.074186999999998

>  <r_qp_ACxDN^.5/SA>  (448) 
0.0081530999999999999

>  <r_qp_CIQPlogS>  (448) 
-5.1269999999999998

>  <r_qp_EA(eV)>  (448) 
0.224

>  <r_qp_FISA>  (448) 
53.716000000000001

>  <r_qp_FOSA>  (448) 
235.17699999999999

>  <r_qp_IP(eV)>  (448) 
8.5549999999999997

>  <r_qp_Jm>  (448) 
0.015834810975359302

>  <r_qp_PISA>  (448) 
447.02600000000001

>  <r_qp_PSA>  (448) 
56.143999999999998

>  <r_qp_PercentHumanOralAbsorption>  (448) 
100

>  <r_qp_QPPCaco>  (448) 
764.55700000000002

>  <r_qp_QPPMDCK>  (448) 
409.45800000000003

>  <r_qp_QPlogBB>  (448) 
-0.021999999999999999

>  <r_qp_QPlogHERG>  (448) 
-7.6529999999999996

>  <r_qp_QPlogKhsa>  (448) 
0.77200000000000002

>  <r_qp_QPlogKp>  (448) 
-2.3250000000000002

>  <r_qp_QPlogPC16>  (448) 
14.465999999999999

>  <r_qp_QPlogPo/w>  (448) 
4.7949999999999999

>  <r_qp_QPlogPoct>  (448) 
20.73

>  <r_qp_QPlogPw>  (448) 
10.727

>  <r_qp_QPlogS>  (448) 
-5.0759999999999996

>  <r_qp_QPpolrz>  (448) 
47.207000000000001

>  <r_qp_SASA>  (448) 
735.91899999999998

>  <r_qp_SAamideO>  (448) 
0

>  <r_qp_SAfluorine>  (448) 
0

>  <r_qp_WPSA>  (448) 
0

>  <r_qp_accptHB>  (448) 
6

>  <r_qp_dip^2/V>  (448) 
0.038572200000000001

>  <r_qp_dipole>  (448) 
7.1870000000000003

>  <r_qp_donorHB>  (448) 
1

>  <r_qp_glob>  (448) 
0.7983384

>  <r_qp_mol_MW>  (448) 
398.50700000000001

>  <r_qp_volume>  (448) 
1338.991

>  <r_sd_BIOSOLVEIT.INFINISEE\_FTREES\_SIMILARITY>  (448) 
0.90400000000000003

>  <r_sd_BIOSOLVEIT.LOGP>  (448) 
2.9102999999999999

>  <r_sd_BIOSOLVEIT.MOLECULAR\_WEIGHT>  (448) 
399.51499999999999

>  <r_sd_BIOSOLVEIT.TPSA>  (448) 
51.359999999999999

>  <i_epik_Tot_Q>  (448) 
2

>  <i_epik_Tot_abs_Q>  (448) 
2

>  <i_f3d_flags>  (448) 
0

>  <i_i_glide_confnum>  (448) 
7

>  <i_i_glide_lignum>  (448) 
611

>  <i_i_glide_posenum>  (448) 
1

>  <i_i_glide_rotatable_bonds>  (448) 
8

>  <i_lp_mmshare_version>  (448) 
65135

>  <i_m_ct_format>  (448) 
2

>  <i_m_source_file_index>  (448) 
1757

>  <i_qp_#NandO>  (448) 
5

>  <i_qp_#acid>  (448) 
0

>  <i_qp_#amide>  (448) 
0

>  <i_qp_#amidine>  (448) 
0

>  <i_qp_#amine>  (448) 
1

>  <i_qp_#in34>  (448) 
0

>  <i_qp_#in56>  (448) 
21

>  <i_qp_#metab>  (448) 
5

>  <i_qp_#nonHatm>  (448) 
30

>  <i_qp_#noncon>  (448) 
0

>  <i_qp_#ringatoms>  (448) 
21

>  <i_qp_#rotor>  (448) 
7

>  <i_qp_#rtvFG>  (448) 
0

>  <i_qp_#stars>  (448) 
0

>  <i_qp_CNS>  (448) 
1

>  <i_qp_HumanOralAbsorption>  (448) 
3

>  <i_qp_RuleOfFive>  (448) 
0

>  <i_qp_RuleOfThree>  (448) 
0

>  <i_sd_BIOSOLVEIT.INFINISEE\_REAGENT1\_NAME>  (448) 
625054

>  <i_sd_BIOSOLVEIT.INFINISEE\_REAGENT2\_NAME>  (448) 
140639

>  <i_sd_BIOSOLVEIT.INFINISEE\_RESULT\_RANK>  (448) 
75056

>  <i_sd_version>  (448) 
0

>  <b_lp_Chiralities_Consistent>  (448) 
1

>  <b_sd_chiral_flag>  (448) 
0

>  <canonical_id>  (448) 
ATP-HTVS-4697A006B393

>  <compound_code>  (448) 
56194

>  <title>  (448) 
m_11dba____625054____140639

>  <variant>  (448) 
56194-2

>  <source_file>  (448) 
运行/运行/ATP-VSW/ATP-VSW-DOCK_HTVS_1-002_lib.maegz

>  <canonical_smiles>  (448) 
C[NH+](C)Cc1cccc(NC(=O)Cn2c(Cc3ccccc3)[nH+]c3ccccc32)c1

>  <scaffold>  (448) 
O=C(Cn1c(Cc2ccccc2)[nH+]c2ccccc21)Nc1ccccc1

>  <molecular_formula>  (448) 
C25H28N4O+2

$$$$
ATP-HTVS-469EEFA86A0D
     RDKit          3D

 55 57  0  0  0  0  0  0  0  0999 V2000
  199.5130  179.0117  152.9743 O   0  0  0  0  0  0  0  0  0  0  0  0
  199.8098  178.9192  154.1671 C   0  0  0  0  0  0  0  0  0  0  0  0
  199.6158  179.9339  155.0526 N   0  0  0  0  0  0  0  0  0  0  0  0
  199.9656  179.8079  156.4131 C   0  0  0  0  0  0  0  0  0  0  0  0
  200.4901  178.6884  156.9369 C   0  0  0  0  0  0  0  0  0  0  0  0
  200.7339  177.5342  156.0763 C   0  0  0  0  0  0  0  0  0  0  0  0
  200.4090  177.6393  154.7041 C   0  0  0  0  0  0  0  0  0  0  0  0
  200.6536  176.5398  153.8512 C   0  0  0  0  0  0  0  0  0  0  0  0
  201.2166  175.3548  154.3648 C   0  0  0  0  0  0  0  0  0  0  0  0
  201.5401  175.2587  155.7315 C   0  0  0  0  0  0  0  0  0  0  0  0
  201.2934  176.3483  156.5868 C   0  0  0  0  0  0  0  0  0  0  0  0
  199.0101  181.2029  154.6074 C   0  0  1  0  0  0  0  0  0  0  0  0
  197.4663  181.1768  154.5514 C   0  0  2  0  0  0  0  0  0  0  0  0
  197.0243  182.4377  154.0739 O   0  0  0  0  0  0  0  0  0  0  0  0
  196.7747  180.8250  155.8924 C   0  0  1  0  0  0  0  0  0  0  0  0
  196.2860  182.0283  156.5891 N   0  0  1  0  0  0  0  0  0  0  0  0
  195.9479  181.8150  158.0104 C   0  0  1  0  0  0  0  0  0  0  0  0
  195.9524  183.1624  158.7433 C   0  0  0  0  0  0  0  0  0  0  0  0
  197.1476  183.8562  158.9965 C   0  0  0  0  0  0  0  0  0  0  0  0
  198.3835  183.3000  158.6024 N   0  0  0  0  0  0  0  0  0  0  0  0
  199.6162  184.0846  158.4574 C   0  0  2  0  0  0  0  0  0  0  0  0
  200.7331  183.2149  157.8151 C   0  0  2  0  0  0  0  0  0  0  0  0
  200.2413  184.6546  159.7670 C   0  0  2  0  0  0  0  0  0  0  0  0
  197.0501  185.1484  159.6257 C   0  0  0  0  0  0  0  0  0  0  0  0
  195.8092  185.6532  160.0499 C   0  0  0  0  0  0  0  0  0  0  0  0
  194.6480  184.9577  159.7680 C   0  0  0  0  0  0  0  0  0  0  0  0
  194.7010  183.7206  159.0892 C   0  0  0  0  0  0  0  0  0  0  0  0
  197.0019  182.7346  156.5220 H   0  0  0  0  0  0  0  0  0  0  0  0
  199.7395  180.6640  157.0255 H   0  0  0  0  0  0  0  0  0  0  0  0
  200.7130  178.6156  157.9928 H   0  0  0  0  0  0  0  0  0  0  0  0
  200.4105  176.5977  152.8002 H   0  0  0  0  0  0  0  0  0  0  0  0
  201.3976  174.5153  153.7100 H   0  0  0  0  0  0  0  0  0  0  0  0
  201.9689  174.3497  156.1265 H   0  0  0  0  0  0  0  0  0  0  0  0
  201.5409  176.2788  157.6346 H   0  0  0  0  0  0  0  0  0  0  0  0
  199.3164  182.0077  155.2646 H   0  0  0  0  0  0  0  0  0  0  0  0
  199.4147  181.4867  153.6333 H   0  0  0  0  0  0  0  0  0  0  0  0
  197.1723  180.4345  153.8100 H   0  0  0  0  0  0  0  0  0  0  0  0
  196.0784  182.4897  154.1067 H   0  0  0  0  0  0  0  0  0  0  0  0
  195.9290  180.1428  155.7262 H   0  0  0  0  0  0  0  0  0  0  0  0
  197.4259  180.2695  156.5530 H   0  0  0  0  0  0  0  0  0  0  0  0
  194.9485  181.3575  158.0698 H   0  0  0  0  0  0  0  0  0  0  0  0
  196.6649  181.1495  158.5015 H   0  0  0  0  0  0  0  0  0  0  0  0
  198.4015  182.3624  158.1575 H   0  0  0  0  0  0  0  0  0  0  0  0
  199.3641  184.8640  157.7167 H   0  0  0  0  0  0  0  0  0  0  0  0
  201.6341  183.8120  157.6635 H   0  0  0  0  0  0  0  0  0  0  0  0
  200.4777  182.8073  156.8376 H   0  0  0  0  0  0  0  0  0  0  0  0
  201.0068  182.3833  158.4689 H   0  0  0  0  0  0  0  0  0  0  0  0
  201.1179  185.2577  159.5183 H   0  0  0  0  0  0  0  0  0  0  0  0
  200.4401  183.8387  160.4713 H   0  0  0  0  0  0  0  0  0  0  0  0
  199.6472  185.3841  160.3203 H   0  0  0  0  0  0  0  0  0  0  0  0
  197.7939  185.8689  159.8029 H   0  0  0  0  0  0  0  0  0  0  0  0
  195.8431  186.6075  160.5381 H   0  0  0  0  0  0  0  0  0  0  0  0
  193.6857  185.4328  160.0521 H   0  0  0  0  0  0  0  0  0  0  0  0
  193.7645  183.2275  158.8528 H   0  0  0  0  0  0  0  0  0  0  0  0
  195.4423  182.3653  156.1382 H   0  0  0  0  0  0  0  0  0  0  0  0
  1  2  2  0
  2  3  1  0
  2  7  1  0
  3  4  1  0
  3 12  1  0
  4  5  2  0
  4 29  1  0
  5  6  1  0
  5 30  1  0
  6  7  1  0
  6 11  2  0
  7  8  2  0
  8  9  1  0
  8 31  1  0
  9 10  2  0
  9 32  1  0
 10 11  1  0
 10 33  1  0
 11 34  1  0
 12 13  1  0
 12 35  1  1
 12 36  1  0
 13 14  1  0
 13 15  1  0
 13 37  1  6
 14 38  1  0
 15 16  1  0
 15 39  1  6
 15 40  1  0
 16 17  1  0
 16 28  1  1
 16 55  1  0
 17 18  1  0
 17 41  1  6
 17 42  1  0
 18 19  1  0
 18 27  2  0
 19 20  1  0
 19 24  2  0
 20 21  1  0
 20 43  1  0
 21 22  1  0
 21 23  1  0
 21 44  1  6
 22 45  1  6
 22 46  1  0
 22 47  1  0
 23 48  1  6
 23 49  1  0
 23 50  1  0
 24 25  1  0
 24 51  1  0
 25 26  2  0
 25 52  1  0
 26 27  1  0
 26 53  1  0
 27 54  1  0
M  CHG  1  16   1
M  END
>  <s_epik_cmdline>  (449) 
J2VwaWtfcHl0aG9uJywgJy1waCcsICc3LjAwMDAwMCcsICctcGh0JywgJzIuMDAwMDAwJywgJy1tcycsICcxNicsICctdG4nLCAnOCcsICctbWEnLCAnMjAwJywgJy1pbWFlJywgJzxpbmZpbGUubWFlPicsICctb21hZScsICc8b3V0ZmlsZS5tYWU+Jw==

>  <s_epik_input>  (449) 
W2NIXTFbY0hdW2NIXVtjSF1jKGMxMiljKD1PKW4oW2NIXVtjSF0yKVtDSDJdW0NASF0oW09IXSlbQ0gyXVtOSF1bQ0gyXWMzYyhbTkhdW0NIXShbQ0gzXSlbQ0gzXSlbY0hdW2NIXVtjSF1bY0hdMw==

>  <s_i_glide_gridfile>  (449) 
ATP-Grid

>  <s_lp_Force_Field>  (449) 
OPLS_2005

>  <s_lp_Variant>  (449) 
m_270004bbb____24794128____24721958-1

>  <s_lp_label>  (449) 
1892_sdstereoexpander_1_neutralizer_1_epik_1_stereoizer_1

>  <s_m_source_file>  (449) 
ATP-VSW-LIGPREP-001-in.maegz

>  <s_sd_BIOSOLVEIT.INFINISEE\_QUERY\_NAME>  (449) 
Ref-Lig

>  <s_sd_BIOSOLVEIT.INFINISEE\_QUERY\_SMILES>  (449) 
S(c1nc2c(cc1C[NH2+]Cc3ccc(cc3)C[NH+](C)C)cccc2)Cc4ccccc4

>  <s_sd_BIOSOLVEIT.INFINISEE\_REACTION\_NAME>  (449) 
m_270004bbb

>  <s_sd_BIOSOLVEIT.INFINISEE\_REAGENT1\_SMILES>  (449) 
[R1*]NCC(O)CN1C(=O)c2c(cccc2)C=C1

>  <s_sd_BIOSOLVEIT.INFINISEE\_REAGENT2\_SMILES>  (449) 
[R1*]Cc1c(NC(C)C)cccc1

>  <s_sd_BIOSOLVEIT.INFINISEE\_SPACE>  (449) 
REALSpace_44bn_2023-08

>  <s_vsw_compound_code>  (449) 
60513

>  <s_vsw_variant>  (449) 
60513-1

>  <r_epik_Charging_Adjusted_Penalty>  (449) 
0.015675352069741001

>  <r_epik_Ionization_Penalty>  (449) 
0.0118

>  <r_epik_Ionization_Penalty_Charging>  (449) 
0.011599999999999999

>  <r_epik_Ionization_Penalty_Neutral>  (449) 
0.0001

>  <r_epik_State_Penalty>  (449) 
0.0040000000000000001

>  <r_i_docking_score>  (449) 
-5.1114067324416999

>  <r_i_glide_ecoul>  (449) 
-9.4532337188720703

>  <r_i_glide_eff_state_penalty>  (449) 
0.0040000000000000001

>  <r_i_glide_einternal>  (449) 
9.6465673446655291

>  <r_i_glide_emodel>  (449) 
-56.308568796597001

>  <r_i_glide_energy>  (449) 
-41.123004913330099

>  <r_i_glide_erotb>  (449) 
0.85988659730328199

>  <r_i_glide_esite>  (449) 
-0.102343189944717

>  <r_i_glide_evdw>  (449) 
-31.669771194458001

>  <r_i_glide_gscore>  (449) 
-5.1154067324416896

>  <r_i_glide_hbond>  (449) 
-0.20000000000000001

>  <r_i_glide_ligand_efficiency>  (449) 
-0.18931136046080399

>  <r_i_glide_ligand_efficiency_ln>  (449) 
-1.18985121918653

>  <r_i_glide_ligand_efficiency_sa>  (449) 
-0.56793408075847096

>  <r_i_glide_lipo>  (449) 
-1.7610898404283699

>  <r_i_glide_metal>  (449) 
-0

>  <r_i_glide_rewards>  (449) 
-0.91038668181818005

>  <r_lp_Energy>  (449) 
23.951229999999999

>  <r_qp_ACxDN^.5/SA>  (449) 
0.018067099999999999

>  <r_qp_CIQPlogS>  (449) 
-3.625

>  <r_qp_EA(eV)>  (449) 
0.56000000000000005

>  <r_qp_FISA>  (449) 
66.817999999999998

>  <r_qp_FOSA>  (449) 
239.333

>  <r_qp_IP(eV)>  (449) 
7.8860000000000001

>  <r_qp_Jm>  (449) 
0.333043317025912

>  <r_qp_PISA>  (449) 
384.09699999999998

>  <r_qp_PSA>  (449) 
70.218000000000004

>  <r_qp_PercentHumanOralAbsorption>  (449) 
95.269000000000005

>  <r_qp_QPPCaco>  (449) 
574.34000000000003

>  <r_qp_QPPMDCK>  (449) 
300.55200000000002

>  <r_qp_QPlogBB>  (449) 
-0.26200000000000001

>  <r_qp_QPlogHERG>  (449) 
-7.1920000000000002

>  <r_qp_QPlogKhsa>  (449) 
0.13600000000000001

>  <r_qp_QPlogKp>  (449) 
-2.5960000000000001

>  <r_qp_QPlogPC16>  (449) 
13.609

>  <r_qp_QPlogPo/w>  (449) 
3.2349999999999999

>  <r_qp_QPlogPoct>  (449) 
22.068000000000001

>  <r_qp_QPlogPw>  (449) 
13.948

>  <r_qp_QPlogS>  (449) 
-3.444

>  <r_qp_QPpolrz>  (449) 
41.323999999999998

>  <r_qp_SASA>  (449) 
690.24800000000005

>  <r_qp_SAamideO>  (449) 
0

>  <r_qp_SAfluorine>  (449) 
0

>  <r_qp_WPSA>  (449) 
0

>  <r_qp_accptHB>  (449) 
7.2000000000000002

>  <r_qp_dip^2/V>  (449) 
0.033819000000000002

>  <r_qp_dipole>  (449) 
6.4729999999999999

>  <r_qp_donorHB>  (449) 
3

>  <r_qp_glob>  (449) 
0.80828460000000002

>  <r_qp_mol_MW>  (449) 
365.47399999999999

>  <r_qp_volume>  (449) 
1239.0999999999999

>  <r_sd_BIOSOLVEIT.INFINISEE\_FTREES\_SIMILARITY>  (449) 
0.90300000000000002

>  <r_sd_BIOSOLVEIT.LOGP>  (449) 
1.9462999999999999

>  <r_sd_BIOSOLVEIT.MOLECULAR\_WEIGHT>  (449) 
366.48200000000003

>  <r_sd_BIOSOLVEIT.TPSA>  (449) 
70.870000000000005

>  <i_epik_Tot_Q>  (449) 
1

>  <i_epik_Tot_abs_Q>  (449) 
1

>  <i_f3d_flags>  (449) 
0

>  <i_i_glide_confnum>  (449) 
4

>  <i_i_glide_lignum>  (449) 
564

>  <i_i_glide_posenum>  (449) 
15

>  <i_i_glide_rotatable_bonds>  (449) 
9

>  <i_lp_mmshare_version>  (449) 
65135

>  <i_m_ct_format>  (449) 
2

>  <i_m_source_file_index>  (449) 
1892

>  <i_qp_#NandO>  (449) 
5

>  <i_qp_#acid>  (449) 
0

>  <i_qp_#amide>  (449) 
0

>  <i_qp_#amidine>  (449) 
0

>  <i_qp_#amine>  (449) 
1

>  <i_qp_#in34>  (449) 
0

>  <i_qp_#in56>  (449) 
16

>  <i_qp_#metab>  (449) 
7

>  <i_qp_#nonHatm>  (449) 
27

>  <i_qp_#noncon>  (449) 
0

>  <i_qp_#ringatoms>  (449) 
16

>  <i_qp_#rotor>  (449) 
9

>  <i_qp_#rtvFG>  (449) 
0

>  <i_qp_#stars>  (449) 
1

>  <i_qp_CNS>  (449) 
0

>  <i_qp_HumanOralAbsorption>  (449) 
3

>  <i_qp_RuleOfFive>  (449) 
0

>  <i_qp_RuleOfThree>  (449) 
1

>  <i_sd_BIOSOLVEIT.INFINISEE\_REAGENT1\_NAME>  (449) 
24794128

>  <i_sd_BIOSOLVEIT.INFINISEE\_REAGENT2\_NAME>  (449) 
24721958

>  <i_sd_BIOSOLVEIT.INFINISEE\_RESULT\_RANK>  (449) 
83741

>  <i_sd_version>  (449) 
0

>  <b_lp_Chiralities_Consistent>  (449) 
1

>  <b_sd_chiral_flag>  (449) 
0

>  <canonical_id>  (449) 
ATP-HTVS-469EEFA86A0D

>  <compound_code>  (449) 
60513

>  <title>  (449) 
m_270004bbb____24794128____24721958

>  <variant>  (449) 
60513-1

>  <source_file>  (449) 
运行/运行/ATP-VSW/ATP-VSW-DOCK_HTVS_1-001_lib/ATP-VSW-DOCK_HTVS_1-001_lib

>  <canonical_smiles>  (449) 
CC(C)Nc1ccccc1C[NH2+]C[C@@H](O)Cn1ccc2ccccc2c1=O

>  <scaffold>  (449) 
O=c1c2ccccc2ccn1CCC[NH2+]Cc1ccccc1

>  <molecular_formula>  (449) 
C22H28N3O2+

$$$$
ATP-HTVS-46A91AAE2D1D
     RDKit          3D

 51 54  0  0  0  0  0  0  0  0999 V2000
  201.1683  178.9395  157.3610 F   0  0  0  0  0  0  0  0  0  0  0  0
  200.9921  178.6312  156.0477 C   0  0  0  0  0  0  0  0  0  0  0  0
  200.6875  179.6367  155.1035 C   0  0  0  0  0  0  0  0  0  0  0  0
  200.5086  179.2942  153.7447 C   0  0  0  0  0  0  0  0  0  0  0  0
  200.2172  180.2458  152.8315 F   0  0  0  0  0  0  0  0  0  0  0  0
  200.6853  177.9664  153.3273 C   0  0  0  0  0  0  0  0  0  0  0  0
  200.9995  176.9674  154.2647 C   0  0  0  0  0  0  0  0  0  0  0  0
  201.1670  177.2995  155.6276 C   0  0  0  0  0  0  0  0  0  0  0  0
  201.4750  176.2266  156.6465 C   0  0  2  0  0  0  0  0  0  0  0  0
  200.4978  181.0830  155.5176 C   0  0  1  0  0  0  0  0  0  0  0  0
  199.4785  181.2169  156.6068 N   0  0  0  0  0  0  0  0  0  0  0  0
  199.0999  182.6366  156.8500 C   0  0  1  0  0  0  0  0  0  0  0  0
  197.8844  182.8657  157.7768 C   0  0  0  0  0  0  0  0  0  0  0  0
  196.5817  182.5074  157.3337 C   0  0  0  0  0  0  0  0  0  0  0  0
  196.3472  181.8931  156.0766 N   0  0  0  0  0  0  0  0  0  0  0  0
  197.1133  180.9108  155.5361 C   0  0  0  0  0  0  0  0  0  0  0  0
  196.8583  180.4489  154.4369 O   0  0  0  0  0  0  0  0  0  0  0  0
  198.2719  180.3457  156.3817 C   0  0  1  0  0  0  0  0  0  0  0  0
  195.4464  182.8085  158.1378 C   0  0  0  0  0  0  0  0  0  0  0  0
  195.5996  183.4650  159.3679 C   0  0  0  0  0  0  0  0  0  0  0  0
  196.8812  183.8390  159.8114 C   0  0  0  0  0  0  0  0  0  0  0  0
  198.0066  183.5392  159.0210 C   0  0  0  0  0  0  0  0  0  0  0  0
  200.2866  183.4833  157.3441 C   0  0  0  0  0  0  0  0  0  0  0  0
  200.4924  184.7875  156.8493 C   0  0  0  0  0  0  0  0  0  0  0  0
  201.5844  185.5547  157.3054 C   0  0  0  0  0  0  0  0  0  0  0  0
  202.4820  185.0096  158.2568 C   0  0  0  0  0  0  0  0  0  0  0  0
  202.2670  183.6997  158.7494 C   0  0  0  0  0  0  0  0  0  0  0  0
  201.1508  182.9674  158.3132 C   0  0  0  0  0  0  0  0  0  0  0  0
  201.9453  181.5927  155.8243 C   0  0  2  0  0  0  0  0  0  0  0  0
  200.5160  177.7201  152.2892 H   0  0  0  0  0  0  0  0  0  0  0  0
  201.0712  175.9378  153.9409 H   0  0  0  0  0  0  0  0  0  0  0  0
  201.6922  175.2693  156.1698 H   0  0  0  0  0  0  0  0  0  0  0  0
  200.6284  176.0958  157.3260 H   0  0  0  0  0  0  0  0  0  0  0  0
  202.3378  176.5161  157.2445 H   0  0  0  0  0  0  0  0  0  0  0  0
  200.1407  181.6425  154.6515 H   0  0  0  0  0  0  0  0  0  0  0  0
  198.8208  183.0813  155.8999 H   0  0  0  0  0  0  0  0  0  0  0  0
  195.4570  182.0799  155.6420 H   0  0  0  0  0  0  0  0  0  0  0  0
  198.5098  179.3621  155.9698 H   0  0  0  0  0  0  0  0  0  0  0  0
  197.8821  180.1167  157.3782 H   0  0  0  0  0  0  0  0  0  0  0  0
  194.4594  182.5268  157.8001 H   0  0  0  0  0  0  0  0  0  0  0  0
  194.7392  183.7005  159.9977 H   0  0  0  0  0  0  0  0  0  0  0  0
  197.0377  184.3507  160.7403 H   0  0  0  0  0  0  0  0  0  0  0  0
  198.9423  183.8879  159.4269 H   0  0  0  0  0  0  0  0  0  0  0  0
  199.8180  185.2166  156.1239 H   0  0  0  0  0  0  0  0  0  0  0  0
  201.7879  186.5219  156.8813 H   0  0  0  0  0  0  0  0  0  0  0  0
  203.3853  185.5276  158.5207 H   0  0  0  0  0  0  0  0  0  0  0  0
  202.9572  183.2491  159.4444 H   0  0  0  0  0  0  0  0  0  0  0  0
  200.9353  181.9980  158.7674 H   0  0  0  0  0  0  0  0  0  0  0  0
  202.6673  181.2385  155.0774 H   0  0  0  0  0  0  0  0  0  0  0  0
  202.3016  181.1720  156.7703 H   0  0  0  0  0  0  0  0  0  0  0  0
  202.0100  182.6839  155.9088 H   0  0  0  0  0  0  0  0  0  0  0  0
  1  2  1  0
  2  3  1  0
  2  8  2  0
  3  4  2  0
  3 10  1  0
  4  5  1  0
  4  6  1  0
  6  7  2  0
  6 30  1  0
  7  8  1  0
  7 31  1  0
  8  9  1  0
  9 32  1  6
  9 33  1  0
  9 34  1  0
 10 11  1  0
 10 29  1  0
 10 35  1  6
 11 12  1  0
 11 18  1  0
 12 13  1  0
 12 23  1  0
 12 36  1  6
 13 14  1  0
 13 22  2  0
 14 15  1  0
 14 19  2  0
 15 16  1  0
 15 37  1  0
 16 17  2  0
 16 18  1  0
 18 38  1  6
 18 39  1  0
 19 20  1  0
 19 40  1  0
 20 21  2  0
 20 41  1  0
 21 22  1  0
 21 42  1  0
 22 43  1  0
 23 24  2  0
 23 28  1  0
 24 25  1  0
 24 44  1  0
 25 26  2  0
 25 45  1  0
 26 27  1  0
 26 46  1  0
 27 28  2  0
 27 47  1  0
 28 48  1  0
 29 49  1  6
 29 50  1  0
 29 51  1  0
M  END
>  <s_epik_cmdline>  (450) 
J2VwaWtfcHl0aG9uJywgJy1waCcsICc3LjAwMDAwMCcsICctcGh0JywgJzIuMDAwMDAwJywgJy1tcycsICcxNicsICctdG4nLCAnOCcsICctbWEnLCAnMjAwJywgJy1pbWFlJywgJzxpbmZpbGUubWFlPicsICctb21hZScsICc8b3V0ZmlsZS5tYWU+Jw==

>  <s_epik_input>  (450) 
W0NIM11jMVtjSF1bY0hdYyhGKWMoYzFGKVtDQEhdKFtDSDNdKU4oW0NAQEhdMmMzW2NIXVtjSF1bY0hdW2NIXVtjSF0zKVtDSDJdQyg9TylbTkhdYyhjMjQpW2NIXVtjSF1bY0hdW2NIXTQ=

>  <s_i_glide_gridfile>  (450) 
ATP-Grid

>  <s_lp_Force_Field>  (450) 
OPLS_2005

>  <s_lp_Variant>  (450) 
rxn207____EMOL908924____EMOL6185419-2

>  <s_lp_label>  (450) 
2580_sdstereoexpander_2_neutralizer_1_epik_1_stereoizer_1

>  <s_m_source_file>  (450) 
ATP-VSW-LIGPREP-001-in.maegz

>  <s_sd_BIOSOLVEIT.INFINISEE\_QUERY\_NAME>  (450) 
Ref-Lig

>  <s_sd_BIOSOLVEIT.INFINISEE\_QUERY\_SMILES>  (450) 
S(c1nc2c(cc1C[NH2+]Cc3ccc(cc3)C[NH+](C)C)cccc2)Cc4ccccc4

>  <s_sd_BIOSOLVEIT.INFINISEE\_REACTION\_NAME>  (450) 
rxn207

>  <s_sd_BIOSOLVEIT.INFINISEE\_REAGENT1\_NAME>  (450) 
EMOL908924

>  <s_sd_BIOSOLVEIT.INFINISEE\_REAGENT1\_SMILES>  (450) 
Fc1c(c(F)ccc1C)C(=O)C

>  <s_sd_BIOSOLVEIT.INFINISEE\_REAGENT2\_NAME>  (450) 
EMOL6185419

>  <s_sd_BIOSOLVEIT.INFINISEE\_REAGENT2\_SMILES>  (450) 
O=C1Nc2c(cccc2)C(NC1)c3ccccc3

>  <s_sd_BIOSOLVEIT.INFINISEE\_SPACE>  (450) 
eXplore_7tr_2022-12

>  <s_vsw_compound_code>  (450) 
82529

>  <s_vsw_variant>  (450) 
82529-2

>  <r_epik_Charging_Adjusted_Penalty>  (450) 
0.0110116216243186

>  <r_epik_Ionization_Penalty>  (450) 
0.010999999999999999

>  <r_epik_Ionization_Penalty_Charging>  (450) 
0

>  <r_epik_Ionization_Penalty_Neutral>  (450) 
0.010999999999999999

>  <r_epik_State_Penalty>  (450) 
0.010999999999999999

>  <r_i_docking_score>  (450) 
-1.2300868217018901

>  <r_i_glide_ecoul>  (450) 
-1.8891032934188801

>  <r_i_glide_eff_state_penalty>  (450) 
0.010999999999999999

>  <r_i_glide_einternal>  (450) 
0.030838875100016601

>  <r_i_glide_emodel>  (450) 
-31.299474952535299

>  <r_i_glide_energy>  (450) 
-28.893434882164001

>  <r_i_glide_erotb>  (450) 
0.38032825411976801

>  <r_i_glide_esite>  (450) 
-0.153103622305575

>  <r_i_glide_evdw>  (450) 
-27.004331588745099

>  <r_i_glide_gscore>  (450) 
-1.24108682170189

>  <r_i_glide_hbond>  (450) 
-0.16

>  <r_i_glide_ligand_efficiency>  (450) 
-0.042416786955237498

>  <r_i_glide_ligand_efficiency_ln>  (450) 
-0.28165868985928

>  <r_i_glide_ligand_efficiency_sa>  (450) 
-0.130317808107835

>  <r_i_glide_lipo>  (450) 
-0.80534432026876202

>  <r_i_glide_metal>  (450) 
-0

>  <r_i_glide_rewards>  (450) 
1.1306149402027701

>  <r_lp_Energy>  (450) 
43.463107999999998

>  <r_qp_ACxDN^.5/SA>  (450) 
0.0068818000000000004

>  <r_qp_CIQPlogS>  (450) 
-5.2960000000000003

>  <r_qp_EA(eV)>  (450) 
0.314

>  <r_qp_FISA>  (450) 
56.481000000000002

>  <r_qp_FOSA>  (450) 
157.01499999999999

>  <r_qp_IP(eV)>  (450) 
8.9090000000000007

>  <r_qp_Jm>  (450) 
0.0024340738034181399

>  <r_qp_PISA>  (450) 
397.995

>  <r_qp_PSA>  (450) 
39.768000000000001

>  <r_qp_PercentHumanOralAbsorption>  (450) 
100

>  <r_qp_QPPCaco>  (450) 
719.77200000000005

>  <r_qp_QPPMDCK>  (450) 
654.91999999999996

>  <r_qp_QPlogBB>  (450) 
0.40400000000000003

>  <r_qp_QPlogHERG>  (450) 
-6.8440000000000003

>  <r_qp_QPlogKhsa>  (450) 
0.91800000000000004

>  <r_qp_QPlogKp>  (450) 
-3.0289999999999999

>  <r_qp_QPlogPC16>  (450) 
12.494999999999999

>  <r_qp_QPlogPo/w>  (450) 
4.6289999999999996

>  <r_qp_QPlogPoct>  (450) 
18.879000000000001

>  <r_qp_QPlogPw>  (450) 
9.8550000000000004

>  <r_qp_QPlogS>  (450) 
-5.1779999999999999

>  <r_qp_QPpolrz>  (450) 
44.274000000000001

>  <r_qp_SASA>  (450) 
653.899

>  <r_qp_SAamideO>  (450) 
0

>  <r_qp_SAfluorine>  (450) 
42.408999999999999

>  <r_qp_WPSA>  (450) 
42.408999999999999

>  <r_qp_accptHB>  (450) 
4.5

>  <r_qp_dip^2/V>  (450) 
0.0073201999999999998

>  <r_qp_dipole>  (450) 
2.96

>  <r_qp_donorHB>  (450) 
1

>  <r_qp_glob>  (450) 
0.83387

>  <r_qp_mol_MW>  (450) 
392.447

>  <r_qp_volume>  (450) 
1197.1980000000001

>  <r_sd_BIOSOLVEIT.INFINISEE\_FTREES\_SIMILARITY>  (450) 
0.91200000000000003

>  <r_sd_BIOSOLVEIT.LOGP>  (450) 
3.96082

>  <r_sd_BIOSOLVEIT.MOLECULAR\_WEIGHT>  (450) 
393.45499999999998

>  <r_sd_BIOSOLVEIT.TPSA>  (450) 
33.539999999999999

>  <i_epik_Tot_Q>  (450) 
0

>  <i_epik_Tot_abs_Q>  (450) 
0

>  <i_f3d_flags>  (450) 
0

>  <i_i_glide_confnum>  (450) 
2

>  <i_i_glide_lignum>  (450) 
1050

>  <i_i_glide_posenum>  (450) 
17

>  <i_i_glide_rotatable_bonds>  (450) 
3

>  <i_lp_mmshare_version>  (450) 
65135

>  <i_m_ct_format>  (450) 
2

>  <i_m_source_file_index>  (450) 
2580

>  <i_qp_#NandO>  (450) 
3

>  <i_qp_#acid>  (450) 
0

>  <i_qp_#amide>  (450) 
0

>  <i_qp_#amidine>  (450) 
0

>  <i_qp_#amine>  (450) 
1

>  <i_qp_#in34>  (450) 
0

>  <i_qp_#in56>  (450) 
18

>  <i_qp_#metab>  (450) 
9

>  <i_qp_#nonHatm>  (450) 
29

>  <i_qp_#noncon>  (450) 
2

>  <i_qp_#ringatoms>  (450) 
23

>  <i_qp_#rotor>  (450) 
2

>  <i_qp_#rtvFG>  (450) 
0

>  <i_qp_#stars>  (450) 
1

>  <i_qp_CNS>  (450) 
1

>  <i_qp_HumanOralAbsorption>  (450) 
3

>  <i_qp_RuleOfFive>  (450) 
0

>  <i_qp_RuleOfThree>  (450) 
1

>  <i_sd_BIOSOLVEIT.INFINISEE\_RESULT\_RANK>  (450) 
39192

>  <i_sd_version>  (450) 
0

>  <b_lp_Chiralities_Consistent>  (450) 
1

>  <b_sd_chiral_flag>  (450) 
0

>  <canonical_id>  (450) 
ATP-HTVS-46A91AAE2D1D

>  <compound_code>  (450) 
82529

>  <title>  (450) 
rxn207____EMOL908924____EMOL6185419

>  <variant>  (450) 
82529-2

>  <source_file>  (450) 
运行/运行/ATP-VSW/ATP-VSW-DOCK_HTVS_1-001_lib/ATP-VSW-DOCK_HTVS_1-001_lib

>  <canonical_smiles>  (450) 
Cc1ccc(F)c([C@H](C)N2CC(=O)Nc3ccccc3[C@H]2c2ccccc2)c1F

>  <scaffold>  (450) 
O=C1CN(Cc2ccccc2)C(c2ccccc2)c2ccccc2N1

>  <molecular_formula>  (450) 
C24H22F2N2O

$$$$
ATP-HTVS-46F5C2C02CE5
     RDKit          3D

 54 56  0  0  0  0  0  0  0  0999 V2000
  198.2576  185.0333  146.0392 Cl  0  0  0  0  0  0  0  0  0  0  0  0
  198.3126  184.9807  147.7589 C   0  0  0  0  0  0  0  0  0  0  0  0
  197.4481  184.1236  148.4619 C   0  0  0  0  0  0  0  0  0  0  0  0
  197.4903  184.0747  149.8643 C   0  0  0  0  0  0  0  0  0  0  0  0
  198.4045  184.8950  150.5669 C   0  0  0  0  0  0  0  0  0  0  0  0
  198.4583  184.9028  151.9823 N   0  0  0  0  0  0  0  0  0  0  0  0
  198.5613  183.7454  152.6798 C   0  0  0  0  0  0  0  0  0  0  0  0
  198.5079  182.6269  152.1562 O   0  0  0  0  0  0  0  0  0  0  0  0
  198.6532  183.8242  154.1543 C   0  0  0  0  0  0  0  0  0  0  0  0
  197.8000  182.5279  154.9670 S   0  0  0  0  0  0  0  0  0  0  0  0
  198.3210  183.1183  156.5135 C   0  0  0  0  0  0  0  0  0  0  0  0
  199.0325  184.2820  156.4176 C   0  0  0  0  0  0  0  0  0  0  0  0
  199.5606  185.0839  157.4628 N   0  0  0  0  0  0  0  0  0  0  0  0
  199.2210  184.9766  158.8887 C   0  0  1  0  0  0  0  0  0  0  0  0
  197.7335  184.8189  159.1829 C   0  0  0  0  0  0  0  0  0  0  0  0
  197.1817  183.5343  159.4177 C   0  0  0  0  0  0  0  0  0  0  0  0
  195.7760  183.3591  159.4535 C   0  0  0  0  0  0  0  0  0  0  0  0
  194.9355  184.4845  159.4524 C   0  0  0  0  0  0  0  0  0  0  0  0
  195.4937  185.7723  159.3260 C   0  0  0  0  0  0  0  0  0  0  0  0
  196.8807  185.9399  159.1753 C   0  0  0  0  0  0  0  0  0  0  0  0
  195.2043  181.9545  159.4333 C   0  0  1  0  0  0  0  0  0  0  0  0
  194.6828  181.4980  158.1276 N   0  0  2  0  0  0  0  0  0  0  0  0
  195.5301  181.8389  156.9829 C   0  0  2  0  0  0  0  0  0  0  0  0
  193.2394  181.7278  157.8990 C   0  0  2  0  0  0  0  0  0  0  0  0
  199.3166  184.6356  155.0644 C   0  0  0  0  0  0  0  0  0  0  0  0
  198.5008  186.2166  152.6405 C   0  0  1  0  0  0  0  0  0  0  0  0
  199.8773  186.6733  152.9238 C   0  0  0  0  0  0  0  0  0  0  0  0
  200.9584  187.0084  153.1763 N   0  0  0  0  0  0  0  0  0  0  0  0
  199.2665  185.7540  149.8588 C   0  0  0  0  0  0  0  0  0  0  0  0
  199.2218  185.7931  148.4589 C   0  0  0  0  0  0  0  0  0  0  0  0
  196.7500  183.5068  147.9197 H   0  0  0  0  0  0  0  0  0  0  0  0
  196.8159  183.4120  150.3898 H   0  0  0  0  0  0  0  0  0  0  0  0
  198.1036  182.5725  157.4089 H   0  0  0  0  0  0  0  0  0  0  0  0
  200.1526  185.8782  157.2260 H   0  0  0  0  0  0  0  0  0  0  0  0
  199.7740  184.1496  159.3410 H   0  0  0  0  0  0  0  0  0  0  0  0
  199.5630  185.8892  159.3899 H   0  0  0  0  0  0  0  0  0  0  0  0
  197.8250  182.6618  159.4802 H   0  0  0  0  0  0  0  0  0  0  0  0
  193.8634  184.3563  159.4869 H   0  0  0  0  0  0  0  0  0  0  0  0
  194.8353  186.6311  159.3206 H   0  0  0  0  0  0  0  0  0  0  0  0
  197.2901  186.9279  159.0114 H   0  0  0  0  0  0  0  0  0  0  0  0
  195.9511  181.2165  159.7427 H   0  0  0  0  0  0  0  0  0  0  0  0
  194.3424  181.8998  160.0874 H   0  0  0  0  0  0  0  0  0  0  0  0
  195.5752  182.9245  156.8661 H   0  0  0  0  0  0  0  0  0  0  0  0
  195.1688  181.4071  156.0497 H   0  0  0  0  0  0  0  0  0  0  0  0
  196.4907  181.3772  157.2082 H   0  0  0  0  0  0  0  0  0  0  0  0
  193.0521  182.8050  157.8830 H   0  0  0  0  0  0  0  0  0  0  0  0
  192.6753  181.2262  158.6923 H   0  0  0  0  0  0  0  0  0  0  0  0
  192.9275  181.2830  156.9440 H   0  0  0  0  0  0  0  0  0  0  0  0
  200.0159  185.4601  154.9095 H   0  0  0  0  0  0  0  0  0  0  0  0
  198.0569  186.9740  152.0105 H   0  0  0  0  0  0  0  0  0  0  0  0
  197.8827  186.2456  153.5476 H   0  0  0  0  0  0  0  0  0  0  0  0
  199.9690  186.3882  150.3777 H   0  0  0  0  0  0  0  0  0  0  0  0
  199.8798  186.4584  147.9240 H   0  0  0  0  0  0  0  0  0  0  0  0
  194.8015  180.5203  158.1438 H   0  0  0  0  0  0  0  0  0  0  0  0
  1  2  1  0
  2  3  1  0
  2 30  2  0
  3  4  2  0
  3 31  1  0
  4  5  1  0
  4 32  1  0
  5  6  1  0
  5 29  2  0
  6  7  1  0
  6 26  1  0
  7  8  2  0
  7  9  1  0
  9 10  1  0
  9 25  2  0
 10 11  1  0
 11 12  2  0
 11 33  1  0
 12 13  1  0
 12 25  1  0
 13 14  1  0
 13 34  1  0
 14 15  1  0
 14 35  1  1
 14 36  1  0
 15 16  2  0
 15 20  1  0
 16 17  1  0
 16 37  1  0
 17 18  2  0
 17 21  1  0
 18 19  1  0
 18 38  1  0
 19 20  2  0
 19 39  1  0
 20 40  1  0
 21 22  1  0
 21 41  1  1
 21 42  1  0
 22 23  1  0
 22 24  1  0
 22 54  1  1
 23 43  1  6
 23 44  1  0
 23 45  1  0
 24 46  1  6
 24 47  1  0
 24 48  1  0
 25 49  1  0
 26 27  1  0
 26 50  1  6
 26 51  1  0
 27 28  3  0
 29 30  1  0
 29 52  1  0
 30 53  1  0
M  CHG  1  22   1
M  END
>  <s_epik_cmdline>  (451) 
J2VwaWtfcHl0aG9uJywgJy1waCcsICc3LjAwMDAwMCcsICctcGh0JywgJzIuMDAwMDAwJywgJy1tcycsICcxNicsICctdG4nLCAnOCcsICctbWEnLCAnMjAwJywgJy1pbWFlJywgJzxpbmZpbGUubWFlPicsICctb21hZScsICc8b3V0ZmlsZS5tYWU+Jw==

>  <s_epik_input>  (451) 
Q2xjMVtjSF1bY0hdYyhbY0hdW2NIXTEpTihbQ0gyXUMjTilDKD1PKWMyc1tjSF1jKFtjSF0yKVtOSF1bQ0gyXWMzW2NIXWMoW2NIXVtjSF1bY0hdMylbQ0gyXU4oW0NIM10pW0NIM10=

>  <s_i_glide_gridfile>  (451) 
ATP-Grid

>  <s_lp_Force_Field>  (451) 
OPLS_2005

>  <s_lp_Variant>  (451) 
rxn512b____EMOL37359883____EMOL720738____EMOL2873214-1

>  <s_lp_label>  (451) 
2545_sdstereoexpander_1_neutralizer_1_epik_1_stereoizer_1

>  <s_m_source_file>  (451) 
ATP-VSW-LIGPREP-003-in.maegz

>  <s_sd_BIOSOLVEIT.INFINISEE\_QUERY\_NAME>  (451) 
Ref-Lig

>  <s_sd_BIOSOLVEIT.INFINISEE\_QUERY\_SMILES>  (451) 
S(c1nc2c(cc1C[NH2+]Cc3ccc(cc3)C[NH+](C)C)cccc2)Cc4ccccc4

>  <s_sd_BIOSOLVEIT.INFINISEE\_REACTION\_NAME>  (451) 
rxn512b

>  <s_sd_BIOSOLVEIT.INFINISEE\_REAGENT1\_NAME>  (451) 
EMOL37359883

>  <s_sd_BIOSOLVEIT.INFINISEE\_REAGENT1\_SMILES>  (451) 
Clc1ccc(NCC#N)cc1

>  <s_sd_BIOSOLVEIT.INFINISEE\_REAGENT2\_NAME>  (451) 
EMOL720738

>  <s_sd_BIOSOLVEIT.INFINISEE\_REAGENT2\_SMILES>  (451) 
BrC1=CSC(C(=O)O)=C1

>  <s_sd_BIOSOLVEIT.INFINISEE\_REAGENT3\_NAME>  (451) 
EMOL2873214

>  <s_sd_BIOSOLVEIT.INFINISEE\_REAGENT3\_SMILES>  (451) 
N(Cc1cc(ccc1)CN)(C)C

>  <s_sd_BIOSOLVEIT.INFINISEE\_SPACE>  (451) 
eXplore_7tr_2022-12

>  <s_vsw_compound_code>  (451) 
81411

>  <s_vsw_variant>  (451) 
81411-1

>  <r_epik_Charging_Adjusted_Penalty>  (451) 
0.086140609825027206

>  <r_epik_Ionization_Penalty>  (451) 
0.043099999999999999

>  <r_epik_Ionization_Penalty_Charging>  (451) 
0.043099999999999999

>  <r_epik_Ionization_Penalty_Neutral>  (451) 
0

>  <r_epik_State_Penalty>  (451) 
0.043099999999999999

>  <r_i_docking_score>  (451) 
-5.1524083945356498

>  <r_i_glide_ecoul>  (451) 
-10.539221763610801

>  <r_i_glide_eff_state_penalty>  (451) 
0.043099999999999999

>  <r_i_glide_einternal>  (451) 
5.0248565673828098

>  <r_i_glide_emodel>  (451) 
-53.938298810759598

>  <r_i_glide_energy>  (451) 
-37.978272438049302

>  <r_i_glide_erotb>  (451) 
0.72185624816151595

>  <r_i_glide_esite>  (451) 
-0.10000000000000001

>  <r_i_glide_evdw>  (451) 
-27.439050674438501

>  <r_i_glide_gscore>  (451) 
-5.1955083945356497

>  <r_i_glide_hbond>  (451) 
-0.20000000000000001

>  <r_i_glide_ligand_efficiency>  (451) 
-0.17174694648452199

>  <r_i_glide_ligand_efficiency_ln>  (451) 
-1.1706833272244199

>  <r_i_glide_ligand_efficiency_sa>  (451) 
-0.53365769430999799

>  <r_i_glide_lipo>  (451) 
-1.9817734680238901

>  <r_i_glide_metal>  (451) 
-0

>  <r_i_glide_rewards>  (451) 
-0.68275537640971795

>  <r_lp_Energy>  (451) 
33.031101999999997

>  <r_lp_tautomer_probability>  (451) 
0.99999274205267796

>  <r_qp_ACxDN^.5/SA>  (451) 
0.0104703

>  <r_qp_CIQPlogS>  (451) 
-5.0529999999999999

>  <r_qp_EA(eV)>  (451) 
0.65400000000000003

>  <r_qp_FISA>  (451) 
99.721000000000004

>  <r_qp_FOSA>  (451) 
231.11199999999999

>  <r_qp_IP(eV)>  (451) 
8.4079999999999995

>  <r_qp_Jm>  (451) 
9.5436214736147794e-05

>  <r_qp_PISA>  (451) 
284.35399999999998

>  <r_qp_PSA>  (451) 
71.668999999999997

>  <r_qp_PercentHumanOralAbsorption>  (451) 
80.381

>  <r_qp_QPPCaco>  (451) 
69.829999999999998

>  <r_qp_QPPMDCK>  (451) 
122.07299999999999

>  <r_qp_QPlogBB>  (451) 
0.073999999999999996

>  <r_qp_QPlogHERG>  (451) 
-7.2779999999999996

>  <r_qp_QPlogKhsa>  (451) 
0.374

>  <r_qp_QPlogKp>  (451) 
-5.617

>  <r_qp_QPlogPC16>  (451) 
14.262

>  <r_qp_QPlogPo/w>  (451) 
3.4889999999999999

>  <r_qp_QPlogPoct>  (451) 
21.010999999999999

>  <r_qp_QPlogPw>  (451) 
10.958

>  <r_qp_QPlogS>  (451) 
-4.0460000000000003

>  <r_qp_QPpolrz>  (451) 
44.197000000000003

>  <r_qp_SASA>  (451) 
716.31299999999999

>  <r_qp_SAamideO>  (451) 
0

>  <r_qp_SAfluorine>  (451) 
0

>  <r_qp_WPSA>  (451) 
101.125

>  <r_qp_accptHB>  (451) 
7.5

>  <r_qp_dip^2/V>  (451) 
0.041272299999999998

>  <r_qp_dipole>  (451) 
7.4219999999999997

>  <r_qp_donorHB>  (451) 
1

>  <r_qp_glob>  (451) 
0.81843639999999995

>  <r_qp_mol_MW>  (451) 
438.97399999999999

>  <r_qp_volume>  (451) 
1334.701

>  <r_sd_BIOSOLVEIT.INFINISEE\_FTREES\_SIMILARITY>  (451) 
0.91300000000000003

>  <r_sd_BIOSOLVEIT.LOGP>  (451) 
3.8284799999999999

>  <r_sd_BIOSOLVEIT.MOLECULAR\_WEIGHT>  (451) 
439.988

>  <r_sd_BIOSOLVEIT.TPSA>  (451) 
60.57

>  <i_epik_Tot_Q>  (451) 
1

>  <i_epik_Tot_abs_Q>  (451) 
1

>  <i_f3d_flags>  (451) 
0

>  <i_i_glide_confnum>  (451) 
5

>  <i_i_glide_lignum>  (451) 
1121

>  <i_i_glide_posenum>  (451) 
19

>  <i_i_glide_rotatable_bonds>  (451) 
9

>  <i_lp_mmshare_version>  (451) 
65135

>  <i_m_ct_format>  (451) 
2

>  <i_m_source_file_index>  (451) 
2545

>  <i_qp_#NandO>  (451) 
5

>  <i_qp_#acid>  (451) 
0

>  <i_qp_#amide>  (451) 
0

>  <i_qp_#amidine>  (451) 
0

>  <i_qp_#amine>  (451) 
2

>  <i_qp_#in34>  (451) 
0

>  <i_qp_#in56>  (451) 
17

>  <i_qp_#metab>  (451) 
6

>  <i_qp_#nonHatm>  (451) 
30

>  <i_qp_#noncon>  (451) 
0

>  <i_qp_#ringatoms>  (451) 
17

>  <i_qp_#rotor>  (451) 
9

>  <i_qp_#rtvFG>  (451) 
0

>  <i_qp_#stars>  (451) 
0

>  <i_qp_CNS>  (451) 
1

>  <i_qp_HumanOralAbsorption>  (451) 
3

>  <i_qp_RuleOfFive>  (451) 
0

>  <i_qp_RuleOfThree>  (451) 
0

>  <i_sd_BIOSOLVEIT.INFINISEE\_RESULT\_RANK>  (451) 
35133

>  <i_sd_version>  (451) 
0

>  <b_lp_Chiralities_Consistent>  (451) 
1

>  <b_sd_chiral_flag>  (451) 
0

>  <canonical_id>  (451) 
ATP-HTVS-46F5C2C02CE5

>  <compound_code>  (451) 
81411

>  <title>  (451) 
rxn512b____EMOL37359883____EMOL720738____EMOL2873214

>  <variant>  (451) 
81411-1

>  <source_file>  (451) 
运行/运行/ATP-VSW/ATP-VSW-DOCK_HTVS_1-003_lib/ATP-VSW-DOCK_HTVS_1-003_lib.mae

>  <canonical_smiles>  (451) 
C[NH+](C)Cc1cccc(CNc2csc(C(=O)N(CC#N)c3ccc(Cl)cc3)c2)c1

>  <scaffold>  (451) 
O=C(Nc1ccccc1)c1cc(NCc2ccccc2)cs1

>  <molecular_formula>  (451) 
C23H24ClN4OS+

$$$$
ATP-HTVS-471B66EC874A
     RDKit          3D

 50 53  0  0  0  0  0  0  0  0999 V2000
  198.6919  183.6215  159.2697 Cl  0  0  0  0  0  0  0  0  0  0  0  0
  196.9632  183.6145  159.1731 C   0  0  0  0  0  0  0  0  0  0  0  0
  196.1237  184.7307  159.4798 C   0  0  0  0  0  0  0  0  0  0  0  0
  194.7178  184.5652  159.3507 C   0  0  0  0  0  0  0  0  0  0  0  0
  194.1664  183.3477  158.9262 C   0  0  0  0  0  0  0  0  0  0  0  0
  195.0002  182.2589  158.6294 C   0  0  0  0  0  0  0  0  0  0  0  0
  196.3926  182.4004  158.7537 C   0  0  0  0  0  0  0  0  0  0  0  0
  196.6816  186.0643  159.9368 C   0  0  0  0  0  0  0  0  0  0  0  0
  197.8858  186.1977  160.1203 O   0  0  0  0  0  0  0  0  0  0  0  0
  195.7920  187.0662  160.1036 N   0  0  0  0  0  0  0  0  0  0  0  0
  196.0259  188.3653  160.6513 C   0  0  0  0  0  0  0  0  0  0  0  0
  197.0845  189.2209  160.2184 C   0  0  0  0  0  0  0  0  0  0  0  0
  197.9685  188.8724  159.1792 N   0  0  0  0  0  0  0  0  0  0  0  0
  197.4925  189.1389  157.8213 C   0  0  2  0  0  0  0  0  0  0  0  0
  197.0923  187.9006  157.1319 C   0  0  0  0  0  0  0  0  0  0  0  0
  196.7773  186.9313  156.5853 N   0  0  0  0  0  0  0  0  0  0  0  0
  198.4547  189.9631  156.9872 C   0  0  0  0  0  0  0  0  0  0  0  0
  199.4581  189.3514  156.2044 C   0  0  0  0  0  0  0  0  0  0  0  0
  200.3537  190.1468  155.4657 C   0  0  0  0  0  0  0  0  0  0  0  0
  200.2469  191.5515  155.5088 C   0  0  0  0  0  0  0  0  0  0  0  0
  199.2487  192.1630  156.2919 C   0  0  0  0  0  0  0  0  0  0  0  0
  198.3560  191.3682  157.0328 C   0  0  0  0  0  0  0  0  0  0  0  0
  199.3943  188.8995  159.4938 C   0  0  2  0  0  0  0  0  0  0  0  0
  197.2148  190.4846  160.8298 C   0  0  0  0  0  0  0  0  0  0  0  0
  196.3601  190.9686  161.7499 N   0  0  0  0  0  0  0  0  0  0  0  0
  195.3130  190.2019  162.1250 C   0  0  0  0  0  0  0  0  0  0  0  0
  195.1029  188.8861  161.6056 C   0  0  0  0  0  0  0  0  0  0  0  0
  193.9713  188.1366  162.0350 C   0  0  0  0  0  0  0  0  0  0  0  0
  193.0630  188.6732  162.9660 C   0  0  0  0  0  0  0  0  0  0  0  0
  193.2869  189.9522  163.5018 C   0  0  0  0  0  0  0  0  0  0  0  0
  194.4020  190.6998  163.0859 C   0  0  0  0  0  0  0  0  0  0  0  0
  194.0084  185.3585  159.5467 H   0  0  0  0  0  0  0  0  0  0  0  0
  193.0957  183.2553  158.8125 H   0  0  0  0  0  0  0  0  0  0  0  0
  194.5914  181.3138  158.3100 H   0  0  0  0  0  0  0  0  0  0  0  0
  197.0358  181.5602  158.5374 H   0  0  0  0  0  0  0  0  0  0  0  0
  194.8370  186.8208  159.9579 H   0  0  0  0  0  0  0  0  0  0  0  0
  196.5708  189.7208  157.8814 H   0  0  0  0  0  0  0  0  0  0  0  0
  199.5585  188.2763  156.1818 H   0  0  0  0  0  0  0  0  0  0  0  0
  201.1279  189.6771  154.8742 H   0  0  0  0  0  0  0  0  0  0  0  0
  200.9349  192.1612  154.9432 H   0  0  0  0  0  0  0  0  0  0  0  0
  199.1646  193.2386  156.3304 H   0  0  0  0  0  0  0  0  0  0  0  0
  197.5923  191.8300  157.6431 H   0  0  0  0  0  0  0  0  0  0  0  0
  199.5694  188.6338  160.5353 H   0  0  0  0  0  0  0  0  0  0  0  0
  199.8361  189.8788  159.3240 H   0  0  0  0  0  0  0  0  0  0  0  0
  199.9203  188.1687  158.8843 H   0  0  0  0  0  0  0  0  0  0  0  0
  198.0361  191.1269  160.5612 H   0  0  0  0  0  0  0  0  0  0  0  0
  193.7593  187.1549  161.6357 H   0  0  0  0  0  0  0  0  0  0  0  0
  192.1955  188.1042  163.2685 H   0  0  0  0  0  0  0  0  0  0  0  0
  192.6067  190.3603  164.2318 H   0  0  0  0  0  0  0  0  0  0  0  0
  194.5831  191.6751  163.5039 H   0  0  0  0  0  0  0  0  0  0  0  0
  1  2  1  0
  2  3  1  0
  2  7  2  0
  3  4  2  0
  3  8  1  0
  4  5  1  0
  4 32  1  0
  5  6  2  0
  5 33  1  0
  6  7  1  0
  6 34  1  0
  7 35  1  0
  8  9  2  0
  8 10  1  0
 10 11  1  0
 10 36  1  0
 11 12  2  0
 11 27  1  0
 12 13  1  0
 12 24  1  0
 13 14  1  0
 13 23  1  0
 14 15  1  0
 14 17  1  0
 14 37  1  1
 15 16  3  0
 17 18  2  0
 17 22  1  0
 18 19  1  0
 18 38  1  0
 19 20  2  0
 19 39  1  0
 20 21  1  0
 20 40  1  0
 21 22  2  0
 21 41  1  0
 22 42  1  0
 23 43  1  1
 23 44  1  0
 23 45  1  0
 24 25  2  0
 24 46  1  0
 25 26  1  0
 26 27  1  0
 26 31  2  0
 27 28  2  0
 28 29  1  0
 28 47  1  0
 29 30  2  0
 29 48  1  0
 30 31  1  0
 30 49  1  0
 31 50  1  0
M  END
>  <s_epik_cmdline>  (452) 
J2VwaWtfcHl0aG9uJywgJy1waCcsICc3LjAwMDAwMCcsICctcGh0JywgJzIuMDAwMDAwJywgJy1tcycsICcxNicsICctdG4nLCAnOCcsICctbWEnLCAnMjAwJywgJy1pbWFlJywgJzxpbmZpbGUubWFlPicsICctb21hZScsICc8b3V0ZmlsZS5tYWU+Jw==

>  <s_epik_input>  (452) 
W2NIXTFbY0hdW2NIXVtjSF1jKGMxQ2wpQyg9TylbTkhdYyhjKGMyMylbY0hdW2NIXVtjSF1bY0hdMyljKFtjSF1uMilOKFtDSDNdKVtDQEhdKEMjTiljNFtjSF1bY0hdW2NIXVtjSF1bY0hdNA==

>  <s_i_glide_gridfile>  (452) 
ATP-Grid

>  <s_lp_Force_Field>  (452) 
OPLS_2005

>  <s_lp_Variant>  (452) 
rxn502b____EMOL480988____EMOL13728749____EMOL24630243-2

>  <s_lp_label>  (452) 
2468_sdstereoexpander_2_neutralizer_1_epik_1_stereoizer_1

>  <s_m_source_file>  (452) 
ATP-VSW-LIGPREP-001-in.maegz

>  <s_sd_BIOSOLVEIT.INFINISEE\_QUERY\_NAME>  (452) 
Ref-Lig

>  <s_sd_BIOSOLVEIT.INFINISEE\_QUERY\_SMILES>  (452) 
S(c1nc2c(cc1C[NH2+]Cc3ccc(cc3)C[NH+](C)C)cccc2)Cc4ccccc4

>  <s_sd_BIOSOLVEIT.INFINISEE\_REACTION\_NAME>  (452) 
rxn502b

>  <s_sd_BIOSOLVEIT.INFINISEE\_REAGENT1\_NAME>  (452) 
EMOL480988

>  <s_sd_BIOSOLVEIT.INFINISEE\_REAGENT1\_SMILES>  (452) 
Clc1c(cccc1)C(=O)O

>  <s_sd_BIOSOLVEIT.INFINISEE\_REAGENT2\_NAME>  (452) 
EMOL13728749

>  <s_sd_BIOSOLVEIT.INFINISEE\_REAGENT2\_SMILES>  (452) 
Brc1c(N)c2c(nc1)cccc2

>  <s_sd_BIOSOLVEIT.INFINISEE\_REAGENT3\_NAME>  (452) 
EMOL24630243

>  <s_sd_BIOSOLVEIT.INFINISEE\_REAGENT3\_SMILES>  (452) 
N#CC(NC)c1ccccc1

>  <s_sd_BIOSOLVEIT.INFINISEE\_SPACE>  (452) 
eXplore_7tr_2022-12

>  <s_vsw_compound_code>  (452) 
78945

>  <s_vsw_variant>  (452) 
78945-2

>  <r_epik_Charging_Adjusted_Penalty>  (452) 
0.017305494174682499

>  <r_epik_Ionization_Penalty>  (452) 
0.017399999999999999

>  <r_epik_Ionization_Penalty_Charging>  (452) 
0

>  <r_epik_Ionization_Penalty_Neutral>  (452) 
0.017399999999999999

>  <r_epik_State_Penalty>  (452) 
0.017299999999999999

>  <r_i_docking_score>  (452) 
-3.7647982006621401

>  <r_i_glide_ecoul>  (452) 
-4.1875338554382298

>  <r_i_glide_eff_state_penalty>  (452) 
0.017299999999999999

>  <r_i_glide_einternal>  (452) 
6.3181786537170401

>  <r_i_glide_emodel>  (452) 
-40.275562001957297

>  <r_i_glide_energy>  (452) 
-35.363479137420697

>  <r_i_glide_erotb>  (452) 
0.65353376024180998

>  <r_i_glide_esite>  (452) 
-0.0097496540314964807

>  <r_i_glide_evdw>  (452) 
-31.175945281982401

>  <r_i_glide_gscore>  (452) 
-3.7820982006621402

>  <r_i_glide_hbond>  (452) 
0

>  <r_i_glide_ligand_efficiency>  (452) 
-0.12144510324716599

>  <r_i_glide_ligand_efficiency_ln>  (452) 
-0.84907737145788498

>  <r_i_glide_ligand_efficiency_sa>  (452) 
-0.38150529723162702

>  <r_i_glide_lipo>  (452) 
-1.2117368585566599

>  <r_i_glide_metal>  (452) 
-0

>  <r_i_glide_rewards>  (452) 
-1.02721810590094

>  <r_lp_Energy>  (452) 
41.405259999999998

>  <r_qp_ACxDN^.5/SA>  (452) 
0.0087609000000000003

>  <r_qp_CIQPlogS>  (452) 
-7.8129999999999997

>  <r_qp_EA(eV)>  (452) 
1.2090000000000001

>  <r_qp_FISA>  (452) 
98.290999999999997

>  <r_qp_FOSA>  (452) 
51.561

>  <r_qp_IP(eV)>  (452) 
8.7129999999999992

>  <r_qp_Jm>  (452) 
0.0087330314090313596

>  <r_qp_PISA>  (452) 
501.03800000000001

>  <r_qp_PSA>  (452) 
68.811000000000007

>  <r_qp_PercentHumanOralAbsorption>  (452) 
100

>  <r_qp_QPPCaco>  (452) 
1158.2529999999999

>  <r_qp_QPPMDCK>  (452) 
890.077

>  <r_qp_QPlogBB>  (452) 
-0.65800000000000003

>  <r_qp_QPlogHERG>  (452) 
-6.6189999999999998

>  <r_qp_QPlogKhsa>  (452) 
0.67500000000000004

>  <r_qp_QPlogKp>  (452) 
-0.98999999999999999

>  <r_qp_QPlogPC16>  (452) 
14.805

>  <r_qp_QPlogPo/w>  (452) 
4.8609999999999998

>  <r_qp_QPlogPoct>  (452) 
21.178999999999998

>  <r_qp_QPlogPw>  (452) 
11.507

>  <r_qp_QPlogS>  (452) 
-6.6989999999999998

>  <r_qp_QPpolrz>  (452) 
46.079000000000001

>  <r_qp_SASA>  (452) 
684.86500000000001

>  <r_qp_SAamideO>  (452) 
0

>  <r_qp_SAfluorine>  (452) 
0

>  <r_qp_WPSA>  (452) 
33.975000000000001

>  <r_qp_accptHB>  (452) 
6

>  <r_qp_dip^2/V>  (452) 
0.053325499999999998

>  <r_qp_dipole>  (452) 
8.2680000000000007

>  <r_qp_donorHB>  (452) 
1

>  <r_qp_glob>  (452) 
0.83328380000000002

>  <r_qp_mol_MW>  (452) 
426.904

>  <r_qp_volume>  (452) 
1281.885

>  <r_sd_BIOSOLVEIT.INFINISEE\_FTREES\_SIMILARITY>  (452) 
0.91500000000000004

>  <r_sd_BIOSOLVEIT.LOGP>  (452) 
5.8415800000000004

>  <r_sd_BIOSOLVEIT.MOLECULAR\_WEIGHT>  (452) 
426.90499999999997

>  <r_sd_BIOSOLVEIT.TPSA>  (452) 
69.019999999999996

>  <i_epik_Tot_Q>  (452) 
0

>  <i_epik_Tot_abs_Q>  (452) 
0

>  <i_f3d_flags>  (452) 
0

>  <i_i_glide_confnum>  (452) 
6

>  <i_i_glide_lignum>  (452) 
963

>  <i_i_glide_posenum>  (452) 
12

>  <i_i_glide_rotatable_bonds>  (452) 
6

>  <i_lp_mmshare_version>  (452) 
65135

>  <i_m_ct_format>  (452) 
2

>  <i_m_source_file_index>  (452) 
2468

>  <i_qp_#NandO>  (452) 
5

>  <i_qp_#acid>  (452) 
0

>  <i_qp_#amide>  (452) 
0

>  <i_qp_#amidine>  (452) 
0

>  <i_qp_#amine>  (452) 
0

>  <i_qp_#in34>  (452) 
0

>  <i_qp_#in56>  (452) 
22

>  <i_qp_#metab>  (452) 
4

>  <i_qp_#nonHatm>  (452) 
31

>  <i_qp_#noncon>  (452) 
0

>  <i_qp_#ringatoms>  (452) 
22

>  <i_qp_#rotor>  (452) 
6

>  <i_qp_#rtvFG>  (452) 
0

>  <i_qp_#stars>  (452) 
2

>  <i_qp_CNS>  (452) 
0

>  <i_qp_HumanOralAbsorption>  (452) 
1

>  <i_qp_RuleOfFive>  (452) 
0

>  <i_qp_RuleOfThree>  (452) 
1

>  <i_sd_BIOSOLVEIT.INFINISEE\_RESULT\_RANK>  (452) 
27578

>  <i_sd_version>  (452) 
0

>  <b_lp_Chiralities_Consistent>  (452) 
1

>  <b_sd_chiral_flag>  (452) 
0

>  <canonical_id>  (452) 
ATP-HTVS-471B66EC874A

>  <compound_code>  (452) 
78945

>  <title>  (452) 
rxn502b____EMOL480988____EMOL13728749____EMOL24630243

>  <variant>  (452) 
78945-2

>  <source_file>  (452) 
运行/运行/ATP-VSW/ATP-VSW-DOCK_HTVS_1-001_lib/ATP-VSW-DOCK_HTVS_1-001_lib

>  <canonical_smiles>  (452) 
CN(c1cnc2ccccc2c1NC(=O)c1ccccc1Cl)[C@H](C#N)c1ccccc1

>  <scaffold>  (452) 
O=C(Nc1c(NCc2ccccc2)cnc2ccccc12)c1ccccc1

>  <molecular_formula>  (452) 
C25H19ClN4O

$$$$
ATP-HTVS-471CA8009E10
     RDKit          3D

 50 53  0  0  0  0  0  0  0  0999 V2000
  200.2272  181.7683  146.6885 Cl  0  0  0  0  0  0  0  0  0  0  0  0
  199.0718  182.9565  147.2032 C   0  0  0  0  0  0  0  0  0  0  0  0
  198.6809  184.0657  146.4069 C   0  0  0  0  0  0  0  0  0  0  0  0
  199.3386  184.3709  144.8248 S   0  0  0  0  0  0  0  0  0  0  0  0
  197.7129  184.9677  146.9017 C   0  0  0  0  0  0  0  0  0  0  0  0
  197.1500  184.7817  148.1784 C   0  0  0  0  0  0  0  0  0  0  0  0
  197.5559  183.7063  148.9906 C   0  0  0  0  0  0  0  0  0  0  0  0
  198.5016  182.7892  148.4794 C   0  0  0  0  0  0  0  0  0  0  0  0
  196.9695  183.5212  150.3610 C   0  0  0  0  0  0  0  0  0  0  0  0
  195.7842  183.7806  150.5854 O   0  0  0  0  0  0  0  0  0  0  0  0
  197.8526  183.1111  151.2850 N   0  0  0  0  0  0  0  0  0  0  0  0
  197.5648  182.7593  152.6202 C   0  0  0  0  0  0  0  0  0  0  0  0
  197.6304  183.7056  153.5871 N   0  0  0  0  0  0  0  0  0  0  0  0
  197.4503  183.3619  154.8770 C   0  0  0  0  0  0  0  0  0  0  0  0
  197.1949  182.0224  155.2602 C   0  0  0  0  0  0  0  0  0  0  0  0
  197.1322  181.0285  154.2643 C   0  0  0  0  0  0  0  0  0  0  0  0
  197.3368  181.3836  152.9102 C   0  0  0  0  0  0  0  0  0  0  0  0
  197.2939  180.4053  151.8872 N   0  0  0  0  0  0  0  0  0  0  0  0
  198.5664  179.7144  151.6182 C   0  0  2  0  0  0  0  0  0  0  0  0
  199.6551  180.6593  151.2970 C   0  0  0  0  0  0  0  0  0  0  0  0
  200.5065  181.4042  151.0456 N   0  0  0  0  0  0  0  0  0  0  0  0
  198.4667  178.6441  150.5326 C   0  0  0  0  0  0  0  0  0  0  0  0
  198.0369  178.9669  149.2231 C   0  0  0  0  0  0  0  0  0  0  0  0
  197.9057  177.9578  148.2473 C   0  0  0  0  0  0  0  0  0  0  0  0
  198.2033  176.6218  148.5729 C   0  0  0  0  0  0  0  0  0  0  0  0
  198.6345  176.2951  149.8721 C   0  0  0  0  0  0  0  0  0  0  0  0
  198.7696  177.3031  150.8465 C   0  0  0  0  0  0  0  0  0  0  0  0
  196.0958  179.5686  151.9445 C   0  0  2  0  0  0  0  0  0  0  0  0
  197.0011  181.6856  156.6150 C   0  0  0  0  0  0  0  0  0  0  0  0
  197.0534  182.6827  157.6031 C   0  0  0  0  0  0  0  0  0  0  0  0
  197.3224  184.0138  157.2410 C   0  0  0  0  0  0  0  0  0  0  0  0
  197.5280  184.3407  155.8863 C   0  0  0  0  0  0  0  0  0  0  0  0
  197.3926  185.8164  146.3139 H   0  0  0  0  0  0  0  0  0  0  0  0
  196.4030  185.4809  148.5370 H   0  0  0  0  0  0  0  0  0  0  0  0
  198.8092  181.9323  149.0573 H   0  0  0  0  0  0  0  0  0  0  0  0
  198.8021  182.9457  150.9785 H   0  0  0  0  0  0  0  0  0  0  0  0
  196.9560  180.0027  154.5546 H   0  0  0  0  0  0  0  0  0  0  0  0
  198.8890  179.2356  152.5432 H   0  0  0  0  0  0  0  0  0  0  0  0
  197.7807  179.9809  148.9609 H   0  0  0  0  0  0  0  0  0  0  0  0
  197.5668  178.2024  147.2498 H   0  0  0  0  0  0  0  0  0  0  0  0
  198.0897  175.8463  147.8262 H   0  0  0  0  0  0  0  0  0  0  0  0
  198.8511  175.2656  150.1252 H   0  0  0  0  0  0  0  0  0  0  0  0
  199.0892  177.0392  151.8430 H   0  0  0  0  0  0  0  0  0  0  0  0
  195.2249  180.1636  152.2069 H   0  0  0  0  0  0  0  0  0  0  0  0
  196.2072  178.7679  152.6762 H   0  0  0  0  0  0  0  0  0  0  0  0
  195.8804  179.1103  150.9796 H   0  0  0  0  0  0  0  0  0  0  0  0
  196.7850  180.6681  156.9106 H   0  0  0  0  0  0  0  0  0  0  0  0
  196.8842  182.4225  158.6376 H   0  0  0  0  0  0  0  0  0  0  0  0
  197.3592  184.7835  157.9992 H   0  0  0  0  0  0  0  0  0  0  0  0
  197.7279  185.3657  155.6078 H   0  0  0  0  0  0  0  0  0  0  0  0
  1  2  1  0
  2  3  2  0
  2  8  1  0
  3  4  1  0
  3  5  1  0
  5  6  2  0
  5 33  1  0
  6  7  1  0
  6 34  1  0
  7  8  2  0
  7  9  1  0
  8 35  1  0
  9 10  2  0
  9 11  1  0
 11 12  1  0
 11 36  1  0
 12 13  2  0
 12 17  1  0
 13 14  1  0
 14 15  1  0
 14 32  2  0
 15 16  1  0
 15 29  2  0
 16 17  2  0
 16 37  1  0
 17 18  1  0
 18 19  1  0
 18 28  1  0
 19 20  1  0
 19 22  1  0
 19 38  1  1
 20 21  3  0
 22 23  2  0
 22 27  1  0
 23 24  1  0
 23 39  1  0
 24 25  2  0
 24 40  1  0
 25 26  1  0
 25 41  1  0
 26 27  2  0
 26 42  1  0
 27 43  1  0
 28 44  1  1
 28 45  1  0
 28 46  1  0
 29 30  1  0
 29 47  1  0
 30 31  2  0
 30 48  1  0
 31 32  1  0
 31 49  1  0
 32 50  1  0
M  CHG  1   4  -1
M  END
>  <s_epik_cmdline>  (453) 
J2VwaWtfcHl0aG9uJywgJy1waCcsICc3LjAwMDAwMCcsICctcGh0JywgJzIuMDAwMDAwJywgJy1tcycsICcxNicsICctdG4nLCAnOCcsICctbWEnLCAnMjAwJywgJy1pbWFlJywgJzxpbmZpbGUubWFlPicsICctb21hZScsICc8b3V0ZmlsZS5tYWU+Jw==

>  <s_epik_input>  (453) 
Q2xjMWMoW1NIXSlbY0hdW2NIXWMoW2NIXTEpQyg9TylbTkhdYyhuMiljKFtjSF1jKGMyMylbY0hdW2NIXVtjSF1bY0hdMylOKFtDSDNdKVtDQEhdKEMjTiljNFtjSF1bY0hdW2NIXVtjSF1bY0hdNA==

>  <s_i_glide_gridfile>  (453) 
ATP-Grid

>  <s_lp_Force_Field>  (453) 
OPLS_2005

>  <s_lp_Variant>  (453) 
rxn502b____EMOL31416150____EMOL44466703____EMOL24630243-2

>  <s_lp_label>  (453) 
2956_sdstereoexpander_2_neutralizer_1_epik_1_stereoizer_1

>  <s_m_source_file>  (453) 
ATP-VSW-LIGPREP-002-in.maegz

>  <s_sd_BIOSOLVEIT.INFINISEE\_QUERY\_NAME>  (453) 
Ref-Lig

>  <s_sd_BIOSOLVEIT.INFINISEE\_QUERY\_SMILES>  (453) 
S(c1nc2c(cc1C[NH2+]Cc3ccc(cc3)C[NH+](C)C)cccc2)Cc4ccccc4

>  <s_sd_BIOSOLVEIT.INFINISEE\_REACTION\_NAME>  (453) 
rxn502b

>  <s_sd_BIOSOLVEIT.INFINISEE\_REAGENT1\_NAME>  (453) 
EMOL31416150

>  <s_sd_BIOSOLVEIT.INFINISEE\_REAGENT1\_SMILES>  (453) 
Clc1c(S)ccc(c1)C(=O)O

>  <s_sd_BIOSOLVEIT.INFINISEE\_REAGENT2\_NAME>  (453) 
EMOL44466703

>  <s_sd_BIOSOLVEIT.INFINISEE\_REAGENT2\_SMILES>  (453) 
Brc1c(nc2c(c1)cccc2)N

>  <s_sd_BIOSOLVEIT.INFINISEE\_REAGENT3\_NAME>  (453) 
EMOL24630243

>  <s_sd_BIOSOLVEIT.INFINISEE\_REAGENT3\_SMILES>  (453) 
N#CC(NC)c1ccccc1

>  <s_sd_BIOSOLVEIT.INFINISEE\_SPACE>  (453) 
eXplore_7tr_2022-12

>  <s_vsw_compound_code>  (453) 
94562

>  <s_vsw_variant>  (453) 
94562-2

>  <r_epik_Charging_Adjusted_Penalty>  (453) 
0.00012783671214465099

>  <r_epik_Ionization_Penalty>  (453) 
0.0001

>  <r_epik_Ionization_Penalty_Charging>  (453) 
0.0001

>  <r_epik_Ionization_Penalty_Neutral>  (453) 
0

>  <r_epik_State_Penalty>  (453) 
-0

>  <r_i_docking_score>  (453) 
-3.9706051134744098

>  <r_i_glide_ecoul>  (453) 
-2.84868311882019

>  <r_i_glide_eff_state_penalty>  (453) 
-0

>  <r_i_glide_einternal>  (453) 
8.9666748046875

>  <r_i_glide_emodel>  (453) 
-43.268636582400397

>  <r_i_glide_energy>  (453) 
-38.655247449874899

>  <r_i_glide_erotb>  (453) 
0.57530056874915203

>  <r_i_glide_esite>  (453) 
0

>  <r_i_glide_evdw>  (453) 
-35.806564331054702

>  <r_i_glide_gscore>  (453) 
-3.9706051134744098

>  <r_i_glide_hbond>  (453) 
-0.088540292635544401

>  <r_i_glide_ligand_efficiency>  (453) 
-0.124081409796075

>  <r_i_glide_ligand_efficiency_ln>  (453) 
-0.88912671951449196

>  <r_i_glide_ligand_efficiency_sa>  (453) 
-0.39393392042488401

>  <r_i_glide_lipo>  (453) 
-1.7191372207220299

>  <r_i_glide_metal>  (453) 
-0

>  <r_i_glide_rewards>  (453) 
-0.52059748449022203

>  <r_lp_Energy>  (453) 
29.858260999999999

>  <r_lp_tautomer_probability>  (453) 
1

>  <r_qp_ACxDN^.5/SA>  (453) 
0.012775399999999999

>  <r_qp_CIQPlogS>  (453) 
-8.2189999999999994

>  <r_qp_EA(eV)>  (453) 
1.0880000000000001

>  <r_qp_FISA>  (453) 
96.391000000000005

>  <r_qp_FOSA>  (453) 
78.941999999999993

>  <r_qp_IP(eV)>  (453) 
8.7469999999999999

>  <r_qp_Jm>  (453) 
0.0044851549759218103

>  <r_qp_PISA>  (453) 
379.233

>  <r_qp_PSA>  (453) 
70.709999999999994

>  <r_qp_PercentHumanOralAbsorption>  (453) 
100

>  <r_qp_QPPCaco>  (453) 
1207.317

>  <r_qp_QPPMDCK>  (453) 
3049.462

>  <r_qp_QPlogBB>  (453) 
-0.44800000000000001

>  <r_qp_QPlogHERG>  (453) 
-5.8760000000000003

>  <r_qp_QPlogKhsa>  (453) 
0.57299999999999995

>  <r_qp_QPlogKp>  (453) 
-1.288

>  <r_qp_QPlogPC16>  (453) 
14.922000000000001

>  <r_qp_QPlogPo/w>  (453) 
4.8940000000000001

>  <r_qp_QPlogPoct>  (453) 
21.922999999999998

>  <r_qp_QPlogPw>  (453) 
12.137

>  <r_qp_QPlogS>  (453) 
-6.7220000000000004

>  <r_qp_QPpolrz>  (453) 
44.942999999999998

>  <r_qp_SASA>  (453) 
682.61199999999997

>  <r_qp_SAamideO>  (453) 
0

>  <r_qp_SAfluorine>  (453) 
0

>  <r_qp_WPSA>  (453) 
128.04599999999999

>  <r_qp_accptHB>  (453) 
6.5

>  <r_qp_dip^2/V>  (453) 
0.012064999999999999

>  <r_qp_dipole>  (453) 
3.9580000000000002

>  <r_qp_donorHB>  (453) 
1.8

>  <r_qp_glob>  (453) 
0.8432906

>  <r_qp_mol_MW>  (453) 
458.964

>  <r_qp_volume>  (453) 
1298.6120000000001

>  <r_sd_BIOSOLVEIT.INFINISEE\_FTREES\_SIMILARITY>  (453) 
0.90300000000000002

>  <r_sd_BIOSOLVEIT.LOGP>  (453) 
6.5104800000000003

>  <r_sd_BIOSOLVEIT.MOLECULAR\_WEIGHT>  (453) 
458.97000000000003

>  <r_sd_BIOSOLVEIT.TPSA>  (453) 
69.019999999999996

>  <i_epik_Tot_Q>  (453) 
-1

>  <i_epik_Tot_abs_Q>  (453) 
1

>  <i_f3d_flags>  (453) 
0

>  <i_i_glide_confnum>  (453) 
7

>  <i_i_glide_lignum>  (453) 
17

>  <i_i_glide_posenum>  (453) 
3

>  <i_i_glide_rotatable_bonds>  (453) 
6

>  <i_lp_mmshare_version>  (453) 
65135

>  <i_m_ct_format>  (453) 
2

>  <i_m_source_file_index>  (453) 
2956

>  <i_qp_#NandO>  (453) 
5

>  <i_qp_#acid>  (453) 
0

>  <i_qp_#amide>  (453) 
0

>  <i_qp_#amidine>  (453) 
0

>  <i_qp_#amine>  (453) 
0

>  <i_qp_#in34>  (453) 
0

>  <i_qp_#in56>  (453) 
22

>  <i_qp_#metab>  (453) 
4

>  <i_qp_#nonHatm>  (453) 
32

>  <i_qp_#noncon>  (453) 
0

>  <i_qp_#ringatoms>  (453) 
22

>  <i_qp_#rotor>  (453) 
7

>  <i_qp_#rtvFG>  (453) 
1

>  <i_qp_#stars>  (453) 
1

>  <i_qp_CNS>  (453) 
0

>  <i_qp_HumanOralAbsorption>  (453) 
1

>  <i_qp_RuleOfFive>  (453) 
0

>  <i_qp_RuleOfThree>  (453) 
1

>  <i_sd_BIOSOLVEIT.INFINISEE\_RESULT\_RANK>  (453) 
80729

>  <i_sd_version>  (453) 
0

>  <b_lp_Chiralities_Consistent>  (453) 
1

>  <b_sd_chiral_flag>  (453) 
0

>  <canonical_id>  (453) 
ATP-HTVS-471CA8009E10

>  <compound_code>  (453) 
94562

>  <title>  (453) 
rxn502b____EMOL31416150____EMOL44466703____EMOL24630243

>  <variant>  (453) 
94562-2

>  <source_file>  (453) 
运行/运行/ATP-VSW/ATP-VSW-DOCK_HTVS_1-003_lib/ATP-VSW-DOCK_HTVS_1-003_lib.mae

>  <canonical_smiles>  (453) 
CN(c1cc2ccccc2nc1NC(=O)c1ccc([S-])c(Cl)c1)[C@H](C#N)c1ccccc1

>  <scaffold>  (453) 
O=C(Nc1nc2ccccc2cc1NCc1ccccc1)c1ccccc1

>  <molecular_formula>  (453) 
C25H18ClN4OS-

$$$$
ATP-HTVS-472161FD1CB3
     RDKit          3D

 55 57  0  0  0  0  0  0  0  0999 V2000
  198.1496  187.8159  156.1237 Cl  0  0  0  0  0  0  0  0  0  0  0  0
  197.2732  187.4722  157.5633 C   0  0  0  0  0  0  0  0  0  0  0  0
  196.6447  186.2215  157.7102 C   0  0  0  0  0  0  0  0  0  0  0  0
  196.0322  185.8508  158.9360 C   0  0  0  0  0  0  0  0  0  0  0  0
  195.4867  184.5218  159.0983 N   0  0  0  0  0  0  0  0  0  0  0  0
  196.1672  183.3606  158.8469 C   0  0  0  0  0  0  0  0  0  0  0  0
  195.6146  182.2605  158.9417 O   0  0  0  0  0  0  0  0  0  0  0  0
  197.6026  183.3744  158.4074 C   0  0  0  0  0  0  0  0  0  0  0  0
  198.7787  184.1857  159.4215 S   0  0  0  0  0  0  0  0  0  0  0  0
  200.0553  183.9112  158.2881 C   0  0  0  0  0  0  0  0  0  0  0  0
  199.6368  183.1196  157.2628 C   0  0  0  0  0  0  0  0  0  0  0  0
  198.2385  182.8154  157.3165 C   0  0  0  0  0  0  0  0  0  0  0  0
  197.5954  182.0887  156.3004 N   0  0  0  0  0  0  0  0  0  0  0  0
  198.2796  181.2330  155.3418 C   0  0  1  0  0  0  0  0  0  0  0  0
  197.4849  181.0662  154.0776 C   0  0  0  0  0  0  0  0  0  0  0  0
  197.0371  182.2207  153.4134 C   0  0  0  0  0  0  0  0  0  0  0  0
  196.3725  182.1271  152.1783 C   0  0  0  0  0  0  0  0  0  0  0  0
  196.0942  180.8500  151.6407 C   0  0  0  0  0  0  0  0  0  0  0  0
  196.4985  179.6876  152.3317 C   0  0  0  0  0  0  0  0  0  0  0  0
  197.2058  179.7983  153.5420 C   0  0  0  0  0  0  0  0  0  0  0  0
  195.9975  183.4070  151.4243 C   0  0  1  0  0  0  0  0  0  0  0  0
  197.0823  184.0186  150.6425 N   0  0  0  0  0  0  0  0  0  0  0  0
  198.1902  184.4949  151.4643 C   0  0  2  0  0  0  0  0  0  0  0  0
  197.5732  183.1284  149.6007 C   0  0  2  0  0  0  0  0  0  0  0  0
  194.0827  184.3879  159.5202 C   0  0  2  0  0  0  0  0  0  0  0  0
  195.9784  186.8133  159.9851 C   0  0  0  0  0  0  0  0  0  0  0  0
  196.5637  188.0838  159.7983 C   0  0  0  0  0  0  0  0  0  0  0  0
  197.2094  188.4129  158.5994 C   0  0  0  0  0  0  0  0  0  0  0  0
  195.3523  186.5440  161.3459 C   0  0  2  0  0  0  0  0  0  0  0  0
  196.7172  185.5222  156.8875 H   0  0  0  0  0  0  0  0  0  0  0  0
  201.0324  184.3421  158.4432 H   0  0  0  0  0  0  0  0  0  0  0  0
  200.2954  182.8044  156.4707 H   0  0  0  0  0  0  0  0  0  0  0  0
  196.5917  181.9439  156.3641 H   0  0  0  0  0  0  0  0  0  0  0  0
  199.2309  181.6491  155.0330 H   0  0  0  0  0  0  0  0  0  0  0  0
  198.4908  180.2636  155.7952 H   0  0  0  0  0  0  0  0  0  0  0  0
  197.2634  183.1914  153.8379 H   0  0  0  0  0  0  0  0  0  0  0  0
  195.5677  180.7619  150.7029 H   0  0  0  0  0  0  0  0  0  0  0  0
  196.2767  178.7132  151.9252 H   0  0  0  0  0  0  0  0  0  0  0  0
  197.5466  178.9154  154.0659 H   0  0  0  0  0  0  0  0  0  0  0  0
  195.1730  183.1740  150.7441 H   0  0  0  0  0  0  0  0  0  0  0  0
  195.5994  184.1399  152.1276 H   0  0  0  0  0  0  0  0  0  0  0  0
  198.9347  185.0186  150.8714 H   0  0  0  0  0  0  0  0  0  0  0  0
  198.7225  183.6711  151.9428 H   0  0  0  0  0  0  0  0  0  0  0  0
  197.8265  185.1712  152.2390 H   0  0  0  0  0  0  0  0  0  0  0  0
  198.3473  183.6163  149.0165 H   0  0  0  0  0  0  0  0  0  0  0  0
  196.7708  182.8390  148.9274 H   0  0  0  0  0  0  0  0  0  0  0  0
  198.0075  182.2222  150.0284 H   0  0  0  0  0  0  0  0  0  0  0  0
  193.4803  183.8938  158.7588 H   0  0  0  0  0  0  0  0  0  0  0  0
  193.6048  185.3378  159.7309 H   0  0  0  0  0  0  0  0  0  0  0  0
  194.0201  183.8184  160.4425 H   0  0  0  0  0  0  0  0  0  0  0  0
  196.5352  188.8120  160.5965 H   0  0  0  0  0  0  0  0  0  0  0  0
  197.6910  189.3744  158.4780 H   0  0  0  0  0  0  0  0  0  0  0  0
  195.8831  187.0785  162.1252 H   0  0  0  0  0  0  0  0  0  0  0  0
  195.3818  185.4885  161.6103 H   0  0  0  0  0  0  0  0  0  0  0  0
  194.3108  186.8812  161.3569 H   0  0  0  0  0  0  0  0  0  0  0  0
  1  2  1  0
  2  3  2  0
  2 28  1  0
  3  4  1  0
  3 30  1  0
  4  5  1  0
  4 26  2  0
  5  6  1  0
  5 25  1  0
  6  7  2  0
  6  8  1  0
  8  9  1  0
  8 12  2  0
  9 10  1  0
 10 11  2  0
 10 31  1  0
 11 12  1  0
 11 32  1  0
 12 13  1  0
 13 14  1  0
 13 33  1  0
 14 15  1  0
 14 34  1  6
 14 35  1  0
 15 16  2  0
 15 20  1  0
 16 17  1  0
 16 36  1  0
 17 18  2  0
 17 21  1  0
 18 19  1  0
 18 37  1  0
 19 20  2  0
 19 38  1  0
 20 39  1  0
 21 22  1  0
 21 40  1  6
 21 41  1  0
 22 23  1  0
 22 24  1  0
 23 42  1  6
 23 43  1  0
 23 44  1  0
 24 45  1  6
 24 46  1  0
 24 47  1  0
 25 48  1  6
 25 49  1  0
 25 50  1  0
 26 27  1  0
 26 29  1  0
 27 28  2  0
 27 51  1  0
 28 52  1  0
 29 53  1  1
 29 54  1  0
 29 55  1  0
M  END
>  <s_epik_cmdline>  (454) 
J2VwaWtfcHl0aG9uJywgJy1waCcsICc3LjAwMDAwMCcsICctcGh0JywgJzIuMDAwMDAwJywgJy1tcycsICcxNicsICctdG4nLCAnOCcsICctbWEnLCAnMjAwJywgJy1pbWFlJywgJzxpbmZpbGUubWFlPicsICctb21hZScsICc8b3V0ZmlsZS5tYWU+Jw==

>  <s_epik_input>  (454) 
Q2xjMVtjSF1jKGMoW0NIM10pW2NIXVtjSF0xKU4oW0NIM10pQyg9TyljMnNbY0hdW2NIXWMyW05IXVtDSDJdYzNbY0hdYyhbY0hdW2NIXVtjSF0zKVtDSDJdTihbQ0gzXSlbQ0gzXQ==

>  <s_i_glide_gridfile>  (454) 
ATP-Grid

>  <s_lp_Force_Field>  (454) 
OPLS_2005

>  <s_lp_Variant>  (454) 
rxn512b____EMOL30099731____EMOL525138____EMOL2873214-2

>  <s_lp_label>  (454) 
2591_sdstereoexpander_1_neutralizer_1_epik_2_stereoizer_1

>  <s_m_source_file>  (454) 
ATP-VSW-LIGPREP-002-in.maegz

>  <s_sd_BIOSOLVEIT.INFINISEE\_QUERY\_NAME>  (454) 
Ref-Lig

>  <s_sd_BIOSOLVEIT.INFINISEE\_QUERY\_SMILES>  (454) 
S(c1nc2c(cc1C[NH2+]Cc3ccc(cc3)C[NH+](C)C)cccc2)Cc4ccccc4

>  <s_sd_BIOSOLVEIT.INFINISEE\_REACTION\_NAME>  (454) 
rxn512b

>  <s_sd_BIOSOLVEIT.INFINISEE\_REAGENT1\_NAME>  (454) 
EMOL30099731

>  <s_sd_BIOSOLVEIT.INFINISEE\_REAGENT1\_SMILES>  (454) 
Clc1cc(NC)c(cc1)C

>  <s_sd_BIOSOLVEIT.INFINISEE\_REAGENT2\_NAME>  (454) 
EMOL525138

>  <s_sd_BIOSOLVEIT.INFINISEE\_REAGENT2\_SMILES>  (454) 
BrC1=C(SC=C1)C(=O)O

>  <s_sd_BIOSOLVEIT.INFINISEE\_REAGENT3\_NAME>  (454) 
EMOL2873214

>  <s_sd_BIOSOLVEIT.INFINISEE\_REAGENT3\_SMILES>  (454) 
N(Cc1cc(ccc1)CN)(C)C

>  <s_sd_BIOSOLVEIT.INFINISEE\_SPACE>  (454) 
eXplore_7tr_2022-12

>  <s_vsw_compound_code>  (454) 
82882

>  <s_vsw_variant>  (454) 
82882-2

>  <r_epik_Charging_Adjusted_Penalty>  (454) 
1.5746020351915

>  <r_epik_Ionization_Penalty>  (454) 
1.5746

>  <r_epik_Ionization_Penalty_Charging>  (454) 
0

>  <r_epik_Ionization_Penalty_Neutral>  (454) 
1.5746

>  <r_epik_State_Penalty>  (454) 
1.5746

>  <r_i_docking_score>  (454) 
-2.60245460393226

>  <r_i_glide_ecoul>  (454) 
0.97986048460006703

>  <r_i_glide_eff_state_penalty>  (454) 
1.5746

>  <r_i_glide_einternal>  (454) 
4.3258032798767099

>  <r_i_glide_emodel>  (454) 
-46.664618630831903

>  <r_i_glide_energy>  (454) 
-38.626195728778796

>  <r_i_glide_erotb>  (454) 
0.75893301488146703

>  <r_i_glide_esite>  (454) 
-0.036193405482442903

>  <r_i_glide_evdw>  (454) 
-39.606056213378899

>  <r_i_glide_gscore>  (454) 
-4.1770546039322598

>  <r_i_glide_hbond>  (454) 
0

>  <r_i_glide_ligand_efficiency>  (454) 
-0.089739813928698703

>  <r_i_glide_ligand_efficiency_ln>  (454) 
-0.59589611174572599

>  <r_i_glide_ligand_efficiency_sa>  (454) 
-0.275709139957593

>  <r_i_glide_lipo>  (454) 
-2.2343614462444799

>  <r_i_glide_metal>  (454) 
-0

>  <r_i_glide_rewards>  (454) 
-0.83210902910786499

>  <r_lp_Energy>  (454) 
41.421868000000003

>  <r_lp_tautomer_probability>  (454) 
0.99999274205267796

>  <r_qp_ACxDN^.5/SA>  (454) 
0

>  <r_qp_CIQPlogS>  (454) 
-4.766

>  <r_qp_EA(eV)>  (454) 
0.34499999999999997

>  <r_qp_FISA>  (454) 
39.631999999999998

>  <r_qp_FOSA>  (454) 
268.19200000000001

>  <r_qp_IP(eV)>  (454) 
8.1790000000000003

>  <r_qp_Jm>  (454) 
0.0015731738135763701

>  <r_qp_PISA>  (454) 
293.78800000000001

>  <r_qp_PSA>  (454) 
42.969999999999999

>  <r_qp_PercentHumanOralAbsorption>  (454) 
100

>  <r_qp_QPPCaco>  (454) 
259.34100000000001

>  <r_qp_QPPMDCK>  (454) 
500.93599999999998

>  <r_qp_QPlogBB>  (454) 
0.80300000000000005

>  <r_qp_QPlogHERG>  (454) 
-7.1210000000000004

>  <r_qp_QPlogKhsa>  (454) 
0.83099999999999996

>  <r_qp_QPlogKp>  (454) 
-4.6680000000000001

>  <r_qp_QPlogPC16>  (454) 
13.568

>  <r_qp_QPlogPo/w>  (454) 
4.9059999999999997

>  <r_qp_QPlogPoct>  (454) 
18.167999999999999

>  <r_qp_QPlogPw>  (454) 
7.093

>  <r_qp_QPlogS>  (454) 
-3.7669999999999999

>  <r_qp_QPpolrz>  (454) 
45.198

>  <r_qp_SASA>  (454) 
702.23400000000004

>  <r_qp_SAamideO>  (454) 
0

>  <r_qp_SAfluorine>  (454) 
0

>  <r_qp_WPSA>  (454) 
100.622

>  <r_qp_accptHB>  (454) 
5

>  <r_qp_dip^2/V>  (454) 
0.0251042

>  <r_qp_dipole>  (454) 
5.7679999999999998

>  <r_qp_donorHB>  (454) 
0

>  <r_qp_glob>  (454) 
0.83095039999999998

>  <r_qp_mol_MW>  (454) 
427.99099999999999

>  <r_qp_volume>  (454) 
1325.3710000000001

>  <r_sd_BIOSOLVEIT.INFINISEE\_FTREES\_SIMILARITY>  (454) 
0.91100000000000003

>  <r_sd_BIOSOLVEIT.LOGP>  (454) 
4.2431200000000002

>  <r_sd_BIOSOLVEIT.MOLECULAR\_WEIGHT>  (454) 
429.00400000000002

>  <r_sd_BIOSOLVEIT.TPSA>  (454) 
36.780000000000001

>  <i_epik_Tot_Q>  (454) 
0

>  <i_epik_Tot_abs_Q>  (454) 
0

>  <i_f3d_flags>  (454) 
0

>  <i_i_glide_confnum>  (454) 
4

>  <i_i_glide_lignum>  (454) 
1171

>  <i_i_glide_posenum>  (454) 
17

>  <i_i_glide_rotatable_bonds>  (454) 
8

>  <i_lp_mmshare_version>  (454) 
65135

>  <i_m_ct_format>  (454) 
2

>  <i_m_source_file_index>  (454) 
2591

>  <i_qp_#NandO>  (454) 
4

>  <i_qp_#acid>  (454) 
0

>  <i_qp_#amide>  (454) 
0

>  <i_qp_#amidine>  (454) 
0

>  <i_qp_#amine>  (454) 
2

>  <i_qp_#in34>  (454) 
0

>  <i_qp_#in56>  (454) 
17

>  <i_qp_#metab>  (454) 
7

>  <i_qp_#nonHatm>  (454) 
29

>  <i_qp_#noncon>  (454) 
0

>  <i_qp_#ringatoms>  (454) 
17

>  <i_qp_#rotor>  (454) 
7

>  <i_qp_#rtvFG>  (454) 
0

>  <i_qp_#stars>  (454) 
0

>  <i_qp_CNS>  (454) 
2

>  <i_qp_HumanOralAbsorption>  (454) 
3

>  <i_qp_RuleOfFive>  (454) 
0

>  <i_qp_RuleOfThree>  (454) 
1

>  <i_sd_BIOSOLVEIT.INFINISEE\_RESULT\_RANK>  (454) 
40569

>  <i_sd_version>  (454) 
0

>  <b_lp_Chiralities_Consistent>  (454) 
1

>  <b_sd_chiral_flag>  (454) 
0

>  <canonical_id>  (454) 
ATP-HTVS-472161FD1CB3

>  <compound_code>  (454) 
82882

>  <title>  (454) 
rxn512b____EMOL30099731____EMOL525138____EMOL2873214

>  <variant>  (454) 
82882-2

>  <source_file>  (454) 
运行/运行/ATP-VSW/ATP-VSW-DOCK_HTVS_1-002_lib.maegz

>  <canonical_smiles>  (454) 
Cc1ccc(Cl)cc1N(C)C(=O)c1sccc1NCc1cccc(CN(C)C)c1

>  <scaffold>  (454) 
O=C(Nc1ccccc1)c1sccc1NCc1ccccc1

>  <molecular_formula>  (454) 
C23H26ClN3OS

$$$$
ATP-HTVS-47220BE834AE
     RDKit          3D

 62 65  0  0  0  0  0  0  0  0999 V2000
  197.1505  178.2766  147.2518 Cl  0  0  0  0  0  0  0  0  0  0  0  0
  197.8965  177.7843  148.7424 C   0  0  0  0  0  0  0  0  0  0  0  0
  198.1824  178.7605  149.7231 C   0  0  0  0  0  0  0  0  0  0  0  0
  198.7147  178.3438  150.9750 C   0  0  0  0  0  0  0  0  0  0  0  0
  198.9252  176.9457  151.2223 C   0  0  0  0  0  0  0  0  0  0  0  0
  198.7103  176.0108  150.1915 C   0  0  0  0  0  0  0  0  0  0  0  0
  198.1732  176.4144  148.9471 C   0  0  0  0  0  0  0  0  0  0  0  0
  199.0158  179.4041  152.0421 C   0  0  1  0  0  0  0  0  0  0  0  0
  197.8799  179.8255  152.8992 N   0  0  0  0  0  0  0  0  0  0  0  0
  198.1357  180.6074  154.0761 C   0  0  0  0  0  0  0  0  0  0  0  0
  198.9788  180.1661  155.1517 C   0  0  0  0  0  0  0  0  0  0  0  0
  199.2256  180.9351  156.2382 N   0  0  0  0  0  0  0  0  0  0  0  0
  198.6507  182.1432  156.3813 C   0  0  0  0  0  0  0  0  0  0  0  0
  197.7851  182.6595  155.3942 C   0  0  0  0  0  0  0  0  0  0  0  0
  197.5350  181.8889  154.2543 C   0  0  0  0  0  0  0  0  0  0  0  0
  197.1882  183.9308  155.5389 C   0  0  0  0  0  0  0  0  0  0  0  0
  197.4566  184.6987  156.6848 C   0  0  0  0  0  0  0  0  0  0  0  0
  198.3123  184.1941  157.6794 C   0  0  0  0  0  0  0  0  0  0  0  0
  198.9040  182.9269  157.5197 C   0  0  0  0  0  0  0  0  0  0  0  0
  199.5216  178.8539  155.0717 N   0  0  0  0  0  0  0  0  0  0  0  0
  200.5344  178.2987  155.7629 C   0  0  0  0  0  0  0  0  0  0  0  0
  201.1895  178.8606  156.6598 O   0  0  0  0  0  0  0  0  0  0  0  0
  200.9071  176.9077  155.3238 C   0  0  0  0  0  0  0  0  0  0  0  0
  200.7763  176.5279  153.9698 C   0  0  0  0  0  0  0  0  0  0  0  0
  201.0092  175.1973  153.5329 C   0  0  0  0  0  0  0  0  0  0  0  0
  201.4883  174.2497  154.4419 C   0  0  0  0  0  0  0  0  0  0  0  0
  201.6865  174.6670  155.7869 C   0  0  0  0  0  0  0  0  0  0  0  0
  201.4154  175.9652  156.2401 C   0  0  0  0  0  0  0  0  0  0  0  0
  201.8947  172.8412  153.9990 C   0  0  1  0  0  0  0  0  0  0  0  0
  203.3736  172.6519  153.8656 N   0  0  1  0  0  0  0  0  0  0  0  0
  203.9072  173.1251  152.5746 C   0  0  2  0  0  0  0  0  0  0  0  0
  204.1920  173.1259  155.0007 C   0  0  2  0  0  0  0  0  0  0  0  0
  196.5702  180.0051  152.2461 C   0  0  1  0  0  0  0  0  0  0  0  0
  196.4545  181.2651  151.4752 C   0  0  0  0  0  0  0  0  0  0  0  0
  196.3566  182.2467  150.8640 N   0  0  0  0  0  0  0  0  0  0  0  0
  197.9430  179.8138  149.5643 H   0  0  0  0  0  0  0  0  0  0  0  0
  199.1503  176.4892  152.1325 H   0  0  0  0  0  0  0  0  0  0  0  0
  198.9167  174.9859  150.4221 H   0  0  0  0  0  0  0  0  0  0  0  0
  197.9445  175.6436  148.2090 H   0  0  0  0  0  0  0  0  0  0  0  0
  199.8398  179.0513  152.6376 H   0  0  0  0  0  0  0  0  0  0  0  0
  199.4819  180.3018  151.5971 H   0  0  0  0  0  0  0  0  0  0  0  0
  196.8580  182.3537  153.5571 H   0  0  0  0  0  0  0  0  0  0  0  0
  196.5247  184.3188  154.7767 H   0  0  0  0  0  0  0  0  0  0  0  0
  196.9980  185.6686  156.8068 H   0  0  0  0  0  0  0  0  0  0  0  0
  198.5177  184.7717  158.5667 H   0  0  0  0  0  0  0  0  0  0  0  0
  199.5670  182.5375  158.2750 H   0  0  0  0  0  0  0  0  0  0  0  0
  199.1222  178.3251  154.3063 H   0  0  0  0  0  0  0  0  0  0  0  0
  200.5222  177.2994  153.2946 H   0  0  0  0  0  0  0  0  0  0  0  0
  200.8225  174.9239  152.5060 H   0  0  0  0  0  0  0  0  0  0  0  0
  202.1230  173.9965  156.5150 H   0  0  0  0  0  0  0  0  0  0  0  0
  201.6786  176.2834  157.2562 H   0  0  0  0  0  0  0  0  0  0  0  0
  201.4949  172.1243  154.7177 H   0  0  0  0  0  0  0  0  0  0  0  0
  201.4078  172.5996  153.0489 H   0  0  0  0  0  0  0  0  0  0  0  0
  203.7840  174.2090  152.4866 H   0  0  0  0  0  0  0  0  0  0  0  0
  203.3975  172.6519  151.7345 H   0  0  0  0  0  0  0  0  0  0  0  0
  204.9718  172.8971  152.4946 H   0  0  0  0  0  0  0  0  0  0  0  0
  204.1674  174.2133  155.0821 H   0  0  0  0  0  0  0  0  0  0  0  0
  205.2516  172.8947  154.8896 H   0  0  0  0  0  0  0  0  0  0  0  0
  203.8242  172.6702  155.9219 H   0  0  0  0  0  0  0  0  0  0  0  0
  196.3517  179.1895  151.5471 H   0  0  0  0  0  0  0  0  0  0  0  0
  195.7742  179.9353  152.9863 H   0  0  0  0  0  0  0  0  0  0  0  0
  203.4903  171.6220  153.9007 H   0  0  0  0  0  0  0  0  0  0  0  0
  1  2  1  0
  2  3  2  0
  2  7  1  0
  3  4  1  0
  3 36  1  0
  4  5  2  0
  4  8  1  0
  5  6  1  0
  5 37  1  0
  6  7  2  0
  6 38  1  0
  7 39  1  0
  8  9  1  0
  8 40  1  1
  8 41  1  0
  9 10  1  0
  9 33  1  0
 10 11  1  0
 10 15  2  0
 11 12  2  0
 11 20  1  0
 12 13  1  0
 13 14  1  0
 13 19  2  0
 14 15  1  0
 14 16  2  0
 15 42  1  0
 16 17  1  0
 16 43  1  0
 17 18  2  0
 17 44  1  0
 18 19  1  0
 18 45  1  0
 19 46  1  0
 20 21  1  0
 20 47  1  0
 21 22  2  0
 21 23  1  0
 23 24  1  0
 23 28  2  0
 24 25  2  0
 24 48  1  0
 25 26  1  0
 25 49  1  0
 26 27  2  0
 26 29  1  0
 27 28  1  0
 27 50  1  0
 28 51  1  0
 29 30  1  0
 29 52  1  1
 29 53  1  0
 30 31  1  0
 30 32  1  0
 30 62  1  6
 31 54  1  6
 31 55  1  0
 31 56  1  0
 32 57  1  1
 32 58  1  0
 32 59  1  0
 33 34  1  0
 33 60  1  6
 33 61  1  0
 34 35  3  0
M  CHG  1  30   1
M  END
>  <s_epik_cmdline>  (455) 
J2VwaWtfcHl0aG9uJywgJy1waCcsICc3LjAwMDAwMCcsICctcGh0JywgJzIuMDAwMDAwJywgJy1tcycsICcxNicsICctdG4nLCAnOCcsICctbWEnLCAnMjAwJywgJy1pbWFlJywgJzxpbmZpbGUubWFlPicsICctb21hZScsICc8b3V0ZmlsZS5tYWU+Jw==

>  <s_epik_input>  (455) 
Q2xjMVtjSF1jKFtjSF1bY0hdW2NIXTEpW0NIMl1OKFtDSDJdQyNOKWMoW2NIXWMoYzIzKVtjSF1bY0hdW2NIXVtjSF0zKWMobjIpW05IXUMoPU8pYzRbY0hdW2NIXWMoW2NIXVtjSF00KVtDSDJdTihbQ0gzXSlbQ0gzXQ==

>  <s_i_glide_gridfile>  (455) 
ATP-Grid

>  <s_lp_Force_Field>  (455) 
OPLS_2005

>  <s_lp_Variant>  (455) 
rxn502b____EMOL18624763____EMOL44466703____EMOL37358567-1

>  <s_lp_label>  (455) 
2440_sdstereoexpander_1_neutralizer_1_epik_1_stereoizer_1

>  <s_m_source_file>  (455) 
ATP-VSW-LIGPREP-003-in.maegz

>  <s_sd_BIOSOLVEIT.INFINISEE\_QUERY\_NAME>  (455) 
Ref-Lig

>  <s_sd_BIOSOLVEIT.INFINISEE\_QUERY\_SMILES>  (455) 
S(c1nc2c(cc1C[NH2+]Cc3ccc(cc3)C[NH+](C)C)cccc2)Cc4ccccc4

>  <s_sd_BIOSOLVEIT.INFINISEE\_REACTION\_NAME>  (455) 
rxn502b

>  <s_sd_BIOSOLVEIT.INFINISEE\_REAGENT1\_NAME>  (455) 
EMOL18624763

>  <s_sd_BIOSOLVEIT.INFINISEE\_REAGENT1\_SMILES>  (455) 
O=C(O)c1ccc(cc1)CN(C)C

>  <s_sd_BIOSOLVEIT.INFINISEE\_REAGENT2\_NAME>  (455) 
EMOL44466703

>  <s_sd_BIOSOLVEIT.INFINISEE\_REAGENT2\_SMILES>  (455) 
Brc1c(nc2c(c1)cccc2)N

>  <s_sd_BIOSOLVEIT.INFINISEE\_REAGENT3\_NAME>  (455) 
EMOL37358567

>  <s_sd_BIOSOLVEIT.INFINISEE\_REAGENT3\_SMILES>  (455) 
Clc1cc(ccc1)CNCC#N

>  <s_sd_BIOSOLVEIT.INFINISEE\_SPACE>  (455) 
eXplore_7tr_2022-12

>  <s_vsw_compound_code>  (455) 
78051

>  <s_vsw_variant>  (455) 
78051-1

>  <r_epik_Charging_Adjusted_Penalty>  (455) 
0.10433640840748

>  <r_epik_Ionization_Penalty>  (455) 
0.052200000000000003

>  <r_epik_Ionization_Penalty_Charging>  (455) 
0.052200000000000003

>  <r_epik_Ionization_Penalty_Neutral>  (455) 
0

>  <r_epik_State_Penalty>  (455) 
0.052200000000000003

>  <r_i_docking_score>  (455) 
-5.5580366440534803

>  <r_i_glide_ecoul>  (455) 
-10.794299125671399

>  <r_i_glide_eff_state_penalty>  (455) 
0.052200000000000003

>  <r_i_glide_einternal>  (455) 
3.3450231552124001

>  <r_i_glide_emodel>  (455) 
-65.145499253772002

>  <r_i_glide_energy>  (455) 
-46.554232597351103

>  <r_i_glide_erotb>  (455) 
0.60445950002288296

>  <r_i_glide_esite>  (455) 
-0.14343353841766901

>  <r_i_glide_evdw>  (455) 
-35.759933471679702

>  <r_i_glide_gscore>  (455) 
-5.6102366440534803

>  <r_i_glide_hbond>  (455) 
-0.16072713552696

>  <r_i_glide_ligand_efficiency>  (455) 
-0.15880104697295599

>  <r_i_glide_ligand_efficiency_ln>  (455) 
-1.2201123973469199

>  <r_i_glide_ligand_efficiency_sa>  (455) 
-0.519448754160307

>  <r_i_glide_lipo>  (455) 
-1.9490256573668601

>  <r_i_glide_metal>  (455) 
-0

>  <r_i_glide_rewards>  (455) 
-0.55436827033018099

>  <r_lp_Energy>  (455) 
30.333918000000001

>  <r_qp_ACxDN^.5/SA>  (455) 
0.0099701000000000008

>  <r_qp_CIQPlogS>  (455) 
-7.1109999999999998

>  <r_qp_EA(eV)>  (455) 
0.97399999999999998

>  <r_qp_FISA>  (455) 
95.109999999999999

>  <r_qp_FOSA>  (455) 
246.19300000000001

>  <r_qp_IP(eV)>  (455) 
8.7010000000000005

>  <r_qp_Jm>  (455) 
0.000148298591090649

>  <r_qp_PISA>  (455) 
394.73700000000002

>  <r_qp_PSA>  (455) 
74.180000000000007

>  <r_qp_PercentHumanOralAbsorption>  (455) 
100

>  <r_qp_QPPCaco>  (455) 
309.649

>  <r_qp_QPPMDCK>  (455) 
355.97199999999998

>  <r_qp_QPlogBB>  (455) 
-0.435

>  <r_qp_QPlogHERG>  (455) 
-7.5510000000000002

>  <r_qp_QPlogKhsa>  (455) 
0.69399999999999995

>  <r_qp_QPlogKp>  (455) 
-3.0800000000000001

>  <r_qp_QPlogPC16>  (455) 
16.364000000000001

>  <r_qp_QPlogPo/w>  (455) 
4.8479999999999999

>  <r_qp_QPlogPoct>  (455) 
23.827999999999999

>  <r_qp_QPlogPw>  (455) 
12.365

>  <r_qp_QPlogS>  (455) 
-6.4329999999999998

>  <r_qp_QPpolrz>  (455) 
51.808

>  <r_qp_SASA>  (455) 
802.39499999999998

>  <r_qp_SAamideO>  (455) 
0

>  <r_qp_SAfluorine>  (455) 
0

>  <r_qp_WPSA>  (455) 
66.355999999999995

>  <r_qp_accptHB>  (455) 
8

>  <r_qp_dip^2/V>  (455) 
0.039308200000000001

>  <r_qp_dipole>  (455) 
7.6749999999999998

>  <r_qp_donorHB>  (455) 
1

>  <r_qp_glob>  (455) 
0.78925809999999996

>  <r_qp_mol_MW>  (455) 
483.99900000000002

>  <r_qp_volume>  (455) 
1498.5239999999999

>  <r_sd_BIOSOLVEIT.INFINISEE\_FTREES\_SIMILARITY>  (455) 
0.91700000000000004

>  <r_sd_BIOSOLVEIT.LOGP>  (455) 
4.3151799999999998

>  <r_sd_BIOSOLVEIT.MOLECULAR\_WEIGHT>  (455) 
485.00799999999998

>  <r_sd_BIOSOLVEIT.TPSA>  (455) 
73.459999999999994

>  <i_epik_Tot_Q>  (455) 
1

>  <i_epik_Tot_abs_Q>  (455) 
1

>  <i_f3d_flags>  (455) 
0

>  <i_i_glide_confnum>  (455) 
3

>  <i_i_glide_lignum>  (455) 
1049

>  <i_i_glide_posenum>  (455) 
20

>  <i_i_glide_rotatable_bonds>  (455) 
9

>  <i_lp_mmshare_version>  (455) 
65135

>  <i_m_ct_format>  (455) 
2

>  <i_m_source_file_index>  (455) 
2440

>  <i_qp_#NandO>  (455) 
6

>  <i_qp_#acid>  (455) 
0

>  <i_qp_#amide>  (455) 
0

>  <i_qp_#amidine>  (455) 
0

>  <i_qp_#amine>  (455) 
1

>  <i_qp_#in34>  (455) 
0

>  <i_qp_#in56>  (455) 
22

>  <i_qp_#metab>  (455) 
5

>  <i_qp_#nonHatm>  (455) 
35

>  <i_qp_#noncon>  (455) 
0

>  <i_qp_#ringatoms>  (455) 
22

>  <i_qp_#rotor>  (455) 
9

>  <i_qp_#rtvFG>  (455) 
0

>  <i_qp_#stars>  (455) 
0

>  <i_qp_CNS>  (455) 
1

>  <i_qp_HumanOralAbsorption>  (455) 
1

>  <i_qp_RuleOfFive>  (455) 
0

>  <i_qp_RuleOfThree>  (455) 
1

>  <i_sd_BIOSOLVEIT.INFINISEE\_RESULT\_RANK>  (455) 
24319

>  <i_sd_version>  (455) 
0

>  <b_lp_Chiralities_Consistent>  (455) 
1

>  <b_sd_chiral_flag>  (455) 
0

>  <canonical_id>  (455) 
ATP-HTVS-47220BE834AE

>  <compound_code>  (455) 
78051

>  <title>  (455) 
rxn502b____EMOL18624763____EMOL44466703____EMOL37358567

>  <variant>  (455) 
78051-1

>  <source_file>  (455) 
运行/运行/ATP-VSW/ATP-VSW-DOCK_HTVS_1-003_lib/ATP-VSW-DOCK_HTVS_1-003_lib.mae

>  <canonical_smiles>  (455) 
C[NH+](C)Cc1ccc(C(=O)Nc2nc3ccccc3cc2N(CC#N)Cc2cccc(Cl)c2)cc1

>  <scaffold>  (455) 
O=C(Nc1nc2ccccc2cc1NCc1ccccc1)c1ccccc1

>  <molecular_formula>  (455) 
C28H27ClN5O+

$$$$
ATP-HTVS-47675EC0C4D5
     RDKit          3D

 67 70  0  0  0  0  0  0  0  0999 V2000
  199.6791  183.6445  159.7161 O   0  0  0  0  0  0  0  0  0  0  0  0
  199.0076  184.1381  158.7782 C   0  0  0  0  0  0  0  0  0  0  0  0
  199.3101  185.1376  158.1148 O   0  0  0  0  0  0  0  0  0  0  0  0
  197.7289  183.3849  158.3853 C   0  0  2  0  0  0  0  0  0  0  0  0
  198.1099  182.4604  157.3047 N   0  0  1  0  0  0  0  0  0  0  0  0
  197.1476  181.3709  157.0297 C   0  0  1  0  0  0  0  0  0  0  0  0
  197.5000  180.7108  155.7190 C   0  0  0  0  0  0  0  0  0  0  0  0
  198.4020  179.6331  155.7035 C   0  0  0  0  0  0  0  0  0  0  0  0
  198.7372  178.9966  154.4846 C   0  0  0  0  0  0  0  0  0  0  0  0
  199.5985  177.9232  154.3996 O   0  0  0  0  0  0  0  0  0  0  0  0
  200.1463  177.3852  155.5976 C   0  0  1  0  0  0  0  0  0  0  0  0
  201.0628  176.2056  155.3248 C   0  0  0  0  0  0  0  0  0  0  0  0
  201.1026  175.5991  154.0498 C   0  0  0  0  0  0  0  0  0  0  0  0
  201.9547  174.5048  153.8094 C   0  0  0  0  0  0  0  0  0  0  0  0
  202.7779  174.0113  154.8405 C   0  0  0  0  0  0  0  0  0  0  0  0
  202.7467  174.6157  156.1122 C   0  0  0  0  0  0  0  0  0  0  0  0
  201.8890  175.7078  156.3546 C   0  0  0  0  0  0  0  0  0  0  0  0
  198.1574  179.4497  153.2767 C   0  0  0  0  0  0  0  0  0  0  0  0
  198.5125  178.7737  152.1290 O   0  0  0  0  0  0  0  0  0  0  0  0
  197.8633  179.0951  150.9052 C   0  0  1  0  0  0  0  0  0  0  0  0
  198.1850  178.0892  149.8148 C   0  0  0  0  0  0  0  0  0  0  0  0
  197.9281  178.4086  148.4643 C   0  0  0  0  0  0  0  0  0  0  0  0
  198.2213  177.4777  147.4479 C   0  0  0  0  0  0  0  0  0  0  0  0
  198.7672  176.2227  147.7781 C   0  0  0  0  0  0  0  0  0  0  0  0
  199.0181  175.8961  149.1241 C   0  0  0  0  0  0  0  0  0  0  0  0
  198.7266  176.8254  150.1401 C   0  0  0  0  0  0  0  0  0  0  0  0
  197.2488  180.5374  153.3010 C   0  0  0  0  0  0  0  0  0  0  0  0
  196.9200  181.1614  154.5169 C   0  0  0  0  0  0  0  0  0  0  0  0
  196.5972  184.3393  157.9175 C   0  0  1  0  0  0  0  0  0  0  0  0
  196.0628  185.2562  159.0121 C   0  0  0  0  0  0  0  0  0  0  0  0
  194.7966  185.0317  159.6218 C   0  0  0  0  0  0  0  0  0  0  0  0
  194.3333  185.9151  160.6242 C   0  0  0  0  0  0  0  0  0  0  0  0
  195.1249  187.0025  161.0375 C   0  0  0  0  0  0  0  0  0  0  0  0
  196.3808  187.2196  160.4339 C   0  0  0  0  0  0  0  0  0  0  0  0
  196.8583  186.3623  159.4095 C   0  0  0  0  0  0  0  0  0  0  0  0
  193.9025  183.8655  159.2024 C   0  0  2  0  0  0  0  0  0  0  0  0
  198.2541  183.0148  156.4729 H   0  0  0  0  0  0  0  0  0  0  0  0
  197.3884  182.8042  159.2465 H   0  0  0  0  0  0  0  0  0  0  0  0
  197.1680  180.6522  157.8474 H   0  0  0  0  0  0  0  0  0  0  0  0
  196.1246  181.7352  156.9550 H   0  0  0  0  0  0  0  0  0  0  0  0
  198.8120  179.2940  156.6447 H   0  0  0  0  0  0  0  0  0  0  0  0
  200.7262  178.1530  156.1107 H   0  0  0  0  0  0  0  0  0  0  0  0
  199.3496  177.0567  156.2692 H   0  0  0  0  0  0  0  0  0  0  0  0
  200.4731  175.9623  153.2501 H   0  0  0  0  0  0  0  0  0  0  0  0
  201.9745  174.0447  152.8318 H   0  0  0  0  0  0  0  0  0  0  0  0
  203.4308  173.1706  154.6517 H   0  0  0  0  0  0  0  0  0  0  0  0
  203.3776  174.2388  156.9041 H   0  0  0  0  0  0  0  0  0  0  0  0
  201.8673  176.1662  157.3310 H   0  0  0  0  0  0  0  0  0  0  0  0
  196.7791  179.1051  151.0316 H   0  0  0  0  0  0  0  0  0  0  0  0
  198.1777  180.0867  150.5762 H   0  0  0  0  0  0  0  0  0  0  0  0
  197.5069  179.3687  148.2027 H   0  0  0  0  0  0  0  0  0  0  0  0
  198.0305  177.7247  146.4136 H   0  0  0  0  0  0  0  0  0  0  0  0
  198.9967  175.5111  146.9991 H   0  0  0  0  0  0  0  0  0  0  0  0
  199.4397  174.9343  149.3787 H   0  0  0  0  0  0  0  0  0  0  0  0
  198.9210  176.5582  151.1686 H   0  0  0  0  0  0  0  0  0  0  0  0
  196.7880  180.9094  152.3987 H   0  0  0  0  0  0  0  0  0  0  0  0
  196.2177  181.9825  154.5206 H   0  0  0  0  0  0  0  0  0  0  0  0
  196.9262  184.9511  157.0832 H   0  0  0  0  0  0  0  0  0  0  0  0
  195.7793  183.7616  157.5017 H   0  0  0  0  0  0  0  0  0  0  0  0
  193.3543  185.7652  161.0616 H   0  0  0  0  0  0  0  0  0  0  0  0
  194.7647  187.6746  161.8020 H   0  0  0  0  0  0  0  0  0  0  0  0
  196.9982  188.0429  160.7656 H   0  0  0  0  0  0  0  0  0  0  0  0
  197.8263  186.5198  158.9516 H   0  0  0  0  0  0  0  0  0  0  0  0
  192.9486  183.8828  159.7324 H   0  0  0  0  0  0  0  0  0  0  0  0
  194.3841  182.9058  159.4050 H   0  0  0  0  0  0  0  0  0  0  0  0
  193.6614  183.9114  158.1399 H   0  0  0  0  0  0  0  0  0  0  0  0
  198.9973  182.0563  157.5666 H   0  0  0  0  0  0  0  0  0  0  0  0
  1  2  1  0
  2  3  2  0
  2  4  1  0
  4  5  1  0
  4 29  1  0
  4 38  1  1
  5  6  1  0
  5 37  1  6
  5 67  1  0
  6  7  1  0
  6 39  1  1
  6 40  1  0
  7  8  2  0
  7 28  1  0
  8  9  1  0
  8 41  1  0
  9 10  1  0
  9 18  2  0
 10 11  1  0
 11 12  1  0
 11 42  1  1
 11 43  1  0
 12 13  2  0
 12 17  1  0
 13 14  1  0
 13 44  1  0
 14 15  2  0
 14 45  1  0
 15 16  1  0
 15 46  1  0
 16 17  2  0
 16 47  1  0
 17 48  1  0
 18 19  1  0
 18 27  1  0
 19 20  1  0
 20 21  1  0
 20 49  1  1
 20 50  1  0
 21 22  2  0
 21 26  1  0
 22 23  1  0
 22 51  1  0
 23 24  2  0
 23 52  1  0
 24 25  1  0
 24 53  1  0
 25 26  2  0
 25 54  1  0
 26 55  1  0
 27 28  2  0
 27 56  1  0
 28 57  1  0
 29 30  1  0
 29 58  1  6
 29 59  1  0
 30 31  1  0
 30 35  2  0
 31 32  2  0
 31 36  1  0
 32 33  1  0
 32 60  1  0
 33 34  2  0
 33 61  1  0
 34 35  1  0
 34 62  1  0
 35 63  1  0
 36 64  1  1
 36 65  1  0
 36 66  1  0
M  CHG  2   1  -1   5   1
M  END
>  <s_epik_cmdline>  (456) 
J2VwaWtfcHl0aG9uJywgJy1waCcsICc3LjAwMDAwMCcsICctcGh0JywgJzIuMDAwMDAwJywgJy1tcycsICcxNicsICctdG4nLCAnOCcsICctbWEnLCAnMjAwJywgJy1pbWFlJywgJzxpbmZpbGUubWFlPicsICctb21hZScsICc8b3V0ZmlsZS5tYWU+Jw==

>  <s_epik_input>  (456) 
W2NIXTFbY0hdW2NIXVtjSF1jKFtDSDNdKWMxW0NIMl1bQ0BIXShDKD1PKVtPSF0pW05IXVtDSDJdYzJbY0hdYyhPW0NIMl1jM1tjSF1bY0hdW2NIXVtjSF1bY0hdMyljKFtjSF1bY0hdMilPW0NIMl1jNFtjSF1bY0hdW2NIXVtjSF1bY0hdNA==

>  <s_i_glide_gridfile>  (456) 
ATP-Grid

>  <s_lp_Force_Field>  (456) 
OPLS_2005

>  <s_lp_Variant>  (456) 
m_271304bca____21474278____9304626-1

>  <s_lp_label>  (456) 
2121_sdstereoexpander_1_neutralizer_1_epik_1_stereoizer_1

>  <s_m_source_file>  (456) 
ATP-VSW-LIGPREP-003-in.maegz

>  <s_sd_BIOSOLVEIT.INFINISEE\_QUERY\_NAME>  (456) 
Ref-Lig

>  <s_sd_BIOSOLVEIT.INFINISEE\_QUERY\_SMILES>  (456) 
S(c1nc2c(cc1C[NH2+]Cc3ccc(cc3)C[NH+](C)C)cccc2)Cc4ccccc4

>  <s_sd_BIOSOLVEIT.INFINISEE\_REACTION\_NAME>  (456) 
m_271304bca

>  <s_sd_BIOSOLVEIT.INFINISEE\_REAGENT1\_SMILES>  (456) 
[R1*]NC(C(=O)O)Cc1c(cccc1)C

>  <s_sd_BIOSOLVEIT.INFINISEE\_REAGENT2\_SMILES>  (456) 
[R1*]Cc1cc(OCc2ccccc2)c(OCc3ccccc3)cc1

>  <s_sd_BIOSOLVEIT.INFINISEE\_SPACE>  (456) 
REALSpace_44bn_2023-08

>  <s_vsw_compound_code>  (456) 
67843

>  <s_vsw_variant>  (456) 
67843-1

>  <r_epik_Charging_Adjusted_Penalty>  (456) 
0.0436797991829369

>  <r_epik_Ionization_Penalty>  (456) 
0.0218

>  <r_epik_Ionization_Penalty_Charging>  (456) 
0.0218

>  <r_epik_Ionization_Penalty_Neutral>  (456) 
0

>  <r_epik_State_Penalty>  (456) 
0.0218

>  <r_i_docking_score>  (456) 
-5.4109022547372998

>  <r_i_glide_ecoul>  (456) 
-5.7621002197265598

>  <r_i_glide_eff_state_penalty>  (456) 
0.0218

>  <r_i_glide_einternal>  (456) 
2.5217690467834499

>  <r_i_glide_emodel>  (456) 
-70.302127331589304

>  <r_i_glide_energy>  (456) 
-50.137790679931598

>  <r_i_glide_erotb>  (456) 
0.96222655044854

>  <r_i_glide_esite>  (456) 
-0.0210751203965629

>  <r_i_glide_evdw>  (456) 
-44.375690460205099

>  <r_i_glide_gscore>  (456) 
-5.4327022547372996

>  <r_i_glide_hbond>  (456) 
0

>  <r_i_glide_ligand_efficiency>  (456) 
-0.150302840409369

>  <r_i_glide_ligand_efficiency_ln>  (456) 
-1.18051268629859

>  <r_i_glide_ligand_efficiency_sa>  (456) 
-0.49628904374113703

>  <r_i_glide_lipo>  (456) 
-2.83825296908446

>  <r_i_glide_metal>  (456) 
-0

>  <r_i_glide_rewards>  (456) 
-0.45250115973558003

>  <r_lp_Energy>  (456) 
24.333977000000001

>  <r_lp_tautomer_probability>  (456) 
1

>  <r_qp_ACxDN^.5/SA>  (456) 
0.0086767000000000007

>  <r_qp_CIQPlogS>  (456) 
-7.3200000000000003

>  <r_qp_EA(eV)>  (456) 
-0.107

>  <r_qp_FISA>  (456) 
94.971999999999994

>  <r_qp_FOSA>  (456) 
172.602

>  <r_qp_IP(eV)>  (456) 
8.7110000000000003

>  <r_qp_Jm>  (456) 
0.00068000154664708205

>  <r_qp_PISA>  (456) 
547.37300000000005

>  <r_qp_PSA>  (456) 
70.718999999999994

>  <r_qp_PercentHumanOralAbsorption>  (456) 
89.295000000000002

>  <r_qp_QPPCaco>  (456) 
78.664000000000001

>  <r_qp_QPPMDCK>  (456) 
44.579000000000001

>  <r_qp_QPlogBB>  (456) 
-0.76400000000000001

>  <r_qp_QPlogHERG>  (456) 
-6.383

>  <r_qp_QPlogKhsa>  (456) 
1.115

>  <r_qp_QPlogKp>  (456) 
-2.2519999999999998

>  <r_qp_QPlogPC16>  (456) 
17.626000000000001

>  <r_qp_QPlogPo/w>  (456) 
4.8540000000000001

>  <r_qp_QPlogPoct>  (456) 
23.734000000000002

>  <r_qp_QPlogPw>  (456) 
11.257

>  <r_qp_QPlogS>  (456) 
-6.5979999999999999

>  <r_qp_QPpolrz>  (456) 
53.386000000000003

>  <r_qp_SASA>  (456) 
814.947

>  <r_qp_SAamideO>  (456) 
0

>  <r_qp_SAfluorine>  (456) 
0

>  <r_qp_WPSA>  (456) 
0

>  <r_qp_accptHB>  (456) 
5

>  <r_qp_dip^2/V>  (456) 
0.014065599999999999

>  <r_qp_dipole>  (456) 
4.6689999999999996

>  <r_qp_donorHB>  (456) 
2

>  <r_qp_glob>  (456) 
0.79468159999999999

>  <r_qp_mol_MW>  (456) 
481.58999999999997

>  <r_qp_volume>  (456) 
1549.6600000000001

>  <r_sd_BIOSOLVEIT.INFINISEE\_FTREES\_SIMILARITY>  (456) 
0.90100000000000002

>  <r_sd_BIOSOLVEIT.LOGP>  (456) 
3.57762

>  <r_sd_BIOSOLVEIT.MOLECULAR\_WEIGHT>  (456) 
481.589

>  <r_sd_BIOSOLVEIT.TPSA>  (456) 
75.200000000000003

>  <i_epik_Tot_Q>  (456) 
0

>  <i_epik_Tot_abs_Q>  (456) 
2

>  <i_f3d_flags>  (456) 
0

>  <i_i_glide_confnum>  (456) 
19

>  <i_i_glide_lignum>  (456) 
785

>  <i_i_glide_posenum>  (456) 
2

>  <i_i_glide_rotatable_bonds>  (456) 
12

>  <i_lp_mmshare_version>  (456) 
65135

>  <i_m_ct_format>  (456) 
2

>  <i_m_source_file_index>  (456) 
2121

>  <i_qp_#NandO>  (456) 
5

>  <i_qp_#acid>  (456) 
1

>  <i_qp_#amide>  (456) 
0

>  <i_qp_#amidine>  (456) 
0

>  <i_qp_#amine>  (456) 
1

>  <i_qp_#in34>  (456) 
0

>  <i_qp_#in56>  (456) 
24

>  <i_qp_#metab>  (456) 
9

>  <i_qp_#nonHatm>  (456) 
36

>  <i_qp_#noncon>  (456) 
0

>  <i_qp_#ringatoms>  (456) 
24

>  <i_qp_#rotor>  (456) 
12

>  <i_qp_#rtvFG>  (456) 
0

>  <i_qp_#stars>  (456) 
3

>  <i_qp_CNS>  (456) 
-1

>  <i_qp_HumanOralAbsorption>  (456) 
1

>  <i_qp_RuleOfFive>  (456) 
0

>  <i_qp_RuleOfThree>  (456) 
2

>  <i_sd_BIOSOLVEIT.INFINISEE\_REAGENT1\_NAME>  (456) 
21474278

>  <i_sd_BIOSOLVEIT.INFINISEE\_REAGENT2\_NAME>  (456) 
9304626

>  <i_sd_BIOSOLVEIT.INFINISEE\_RESULT\_RANK>  (456) 
98532

>  <i_sd_version>  (456) 
0

>  <b_lp_Chiralities_Consistent>  (456) 
1

>  <b_sd_chiral_flag>  (456) 
0

>  <canonical_id>  (456) 
ATP-HTVS-47675EC0C4D5

>  <compound_code>  (456) 
67843

>  <title>  (456) 
m_271304bca____21474278____9304626

>  <variant>  (456) 
67843-1

>  <source_file>  (456) 
运行/运行/ATP-VSW/ATP-VSW-DOCK_HTVS_1-003_lib/ATP-VSW-DOCK_HTVS_1-003_lib.mae

>  <canonical_smiles>  (456) 
Cc1ccccc1C[C@@H]([NH2+]Cc1ccc(OCc2ccccc2)c(OCc2ccccc2)c1)C(=O)[O-]

>  <scaffold>  (456) 
c1ccc(CC[NH2+]Cc2ccc(OCc3ccccc3)c(OCc3ccccc3)c2)cc1

>  <molecular_formula>  (456) 
C31H31NO4

$$$$
ATP-HTVS-47A17AC8C7BD
     RDKit          3D

 56 59  0  0  0  0  0  0  0  0999 V2000
  200.0286  182.5189  157.5672 N   0  0  0  0  0  0  0  0  0  0  0  0
  200.2158  183.0566  158.7772 C   0  0  0  0  0  0  0  0  0  0  0  0
  199.2384  183.5587  159.5375 N   0  0  0  0  0  0  0  0  0  0  0  0
  197.9686  183.5168  159.0829 C   0  0  0  0  0  0  0  0  0  0  0  0
  197.6783  182.9729  157.8049 C   0  0  0  0  0  0  0  0  0  0  0  0
  198.7742  182.4693  157.0690 C   0  0  0  0  0  0  0  0  0  0  0  0
  198.5852  181.8738  155.8147 N   0  0  0  0  0  0  0  0  0  0  0  0
  199.4027  180.7180  155.4471 C   0  0  1  0  0  0  0  0  0  0  0  0
  198.9327  179.4187  156.1360 C   0  0  1  0  0  0  0  0  0  0  0  0
  197.5568  179.0881  155.7328 N   0  0  2  0  0  0  0  0  0  0  0  0
  199.8380  178.2245  155.8591 C   0  0  0  0  0  0  0  0  0  0  0  0
  200.1377  177.8390  154.5339 C   0  0  0  0  0  0  0  0  0  0  0  0
  200.9134  176.6895  154.2868 C   0  0  0  0  0  0  0  0  0  0  0  0
  201.4059  175.9130  155.3573 C   0  0  0  0  0  0  0  0  0  0  0  0
  201.1327  176.3175  156.6789 C   0  0  0  0  0  0  0  0  0  0  0  0
  200.3473  177.4598  156.9300 C   0  0  0  0  0  0  0  0  0  0  0  0
  202.2041  174.6403  155.0988 C   0  0  2  0  0  0  0  0  0  0  0  0
  203.5226  174.9317  154.3678 C   0  0  2  0  0  0  0  0  0  0  0  0
  201.3609  173.5920  154.3550 C   0  0  2  0  0  0  0  0  0  0  0  0
  196.3454  182.9350  157.3338 C   0  0  0  0  0  0  0  0  0  0  0  0
  195.3014  183.4214  158.1380 C   0  0  0  0  0  0  0  0  0  0  0  0
  195.5776  183.9526  159.4105 C   0  0  0  0  0  0  0  0  0  0  0  0
  196.9070  183.9995  159.8721 C   0  0  0  0  0  0  0  0  0  0  0  0
  201.5922  183.0503  159.3328 C   0  0  0  0  0  0  0  0  0  0  0  0
  201.8645  183.5980  160.6119 C   0  0  0  0  0  0  0  0  0  0  0  0
  203.1676  183.5760  161.1455 C   0  0  0  0  0  0  0  0  0  0  0  0
  204.2222  183.0078  160.4088 C   0  0  0  0  0  0  0  0  0  0  0  0
  203.9696  182.4587  159.1391 C   0  0  0  0  0  0  0  0  0  0  0  0
  202.6662  182.4799  158.6053 C   0  0  0  0  0  0  0  0  0  0  0  0
  197.2915  178.2947  156.3116 H   0  0  0  0  0  0  0  0  0  0  0  0
  197.5022  178.8804  154.7464 H   0  0  0  0  0  0  0  0  0  0  0  0
  197.6478  181.9196  155.4448 H   0  0  0  0  0  0  0  0  0  0  0  0
  199.3542  180.6070  154.3656 H   0  0  0  0  0  0  0  0  0  0  0  0
  200.4505  180.9081  155.6761 H   0  0  0  0  0  0  0  0  0  0  0  0
  198.9187  179.5852  157.2173 H   0  0  0  0  0  0  0  0  0  0  0  0
  199.7630  178.4052  153.6940 H   0  0  0  0  0  0  0  0  0  0  0  0
  201.1218  176.3975  153.2689 H   0  0  0  0  0  0  0  0  0  0  0  0
  201.5011  175.7343  157.5102 H   0  0  0  0  0  0  0  0  0  0  0  0
  200.1182  177.7314  157.9518 H   0  0  0  0  0  0  0  0  0  0  0  0
  202.4665  174.2069  156.0656 H   0  0  0  0  0  0  0  0  0  0  0  0
  204.1297  175.6435  154.9275 H   0  0  0  0  0  0  0  0  0  0  0  0
  203.3499  175.3497  153.3760 H   0  0  0  0  0  0  0  0  0  0  0  0
  204.1098  174.0207  154.2436 H   0  0  0  0  0  0  0  0  0  0  0  0
  200.4634  173.3389  154.9201 H   0  0  0  0  0  0  0  0  0  0  0  0
  201.9212  172.6685  154.1999 H   0  0  0  0  0  0  0  0  0  0  0  0
  201.0441  173.9496  153.3749 H   0  0  0  0  0  0  0  0  0  0  0  0
  196.0870  182.5392  156.3628 H   0  0  0  0  0  0  0  0  0  0  0  0
  194.2857  183.3830  157.7681 H   0  0  0  0  0  0  0  0  0  0  0  0
  194.7709  184.3240  160.0264 H   0  0  0  0  0  0  0  0  0  0  0  0
  197.1197  184.3995  160.8507 H   0  0  0  0  0  0  0  0  0  0  0  0
  201.0775  184.0393  161.2059 H   0  0  0  0  0  0  0  0  0  0  0  0
  203.3545  183.9977  162.1222 H   0  0  0  0  0  0  0  0  0  0  0  0
  205.2228  182.9945  160.8153 H   0  0  0  0  0  0  0  0  0  0  0  0
  204.7764  182.0216  158.5698 H   0  0  0  0  0  0  0  0  0  0  0  0
  202.5027  182.0470  157.6291 H   0  0  0  0  0  0  0  0  0  0  0  0
  196.9288  179.8304  156.0082 H   0  0  0  0  0  0  0  0  0  0  0  0
  1  2  2  0
  1  6  1  0
  2  3  1  0
  2 24  1  0
  3  4  2  0
  4  5  1  0
  4 23  1  0
  5  6  2  0
  5 20  1  0
  6  7  1  0
  7  8  1  0
  7 32  1  0
  8  9  1  0
  8 33  1  6
  8 34  1  0
  9 10  1  0
  9 11  1  0
  9 35  1  1
 10 30  1  1
 10 31  1  0
 10 56  1  0
 11 12  1  0
 11 16  2  0
 12 13  2  0
 12 36  1  0
 13 14  1  0
 13 37  1  0
 14 15  2  0
 14 17  1  0
 15 16  1  0
 15 38  1  0
 16 39  1  0
 17 18  1  0
 17 19  1  0
 17 40  1  1
 18 41  1  1
 18 42  1  0
 18 43  1  0
 19 44  1  1
 19 45  1  0
 19 46  1  0
 20 21  2  0
 20 47  1  0
 21 22  1  0
 21 48  1  0
 22 23  2  0
 22 49  1  0
 23 50  1  0
 24 25  2  0
 24 29  1  0
 25 26  1  0
 25 51  1  0
 26 27  2  0
 26 52  1  0
 27 28  1  0
 27 53  1  0
 28 29  2  0
 28 54  1  0
 29 55  1  0
M  CHG  1  10   1
M  END
>  <s_epik_cmdline>  (457) 
J2VwaWtfcHl0aG9uJywgJy1waCcsICc3LjAwMDAwMCcsICctcGh0JywgJzIuMDAwMDAwJywgJy1tcycsICcxNicsICctdG4nLCAnOCcsICctbWEnLCAnMjAwJywgJy1pbWFlJywgJzxpbmZpbGUubWFlPicsICctb21hZScsICc8b3V0ZmlsZS5tYWU+Jw==

>  <s_epik_input>  (457) 
W2NIXTFbY0hdW2NIXVtjSF1bY0hdYzEtYyhuMiluYyhjKGMyMylbY0hdW2NIXVtjSF1bY0hdMylbTkhdW0NIMl1bQ0BASF0oW05IMl0pYzRbY0hdW2NIXWMoW2NIXVtjSF00KVtDSF0oW0NIM10pW0NIM10=

>  <s_i_glide_gridfile>  (457) 
ATP-Grid

>  <s_lp_Force_Field>  (457) 
OPLS_2005

>  <s_lp_Variant>  (457) 
m_270166bbb____16815452____16818234-2

>  <s_lp_label>  (457) 
1284_sdstereoexpander_2_neutralizer_1_epik_1_stereoizer_1

>  <s_m_source_file>  (457) 
ATP-VSW-LIGPREP-003-in.maegz

>  <s_sd_BIOSOLVEIT.INFINISEE\_QUERY\_NAME>  (457) 
Ref-Lig

>  <s_sd_BIOSOLVEIT.INFINISEE\_QUERY\_SMILES>  (457) 
S(c1nc2c(cc1C[NH2+]Cc3ccc(cc3)C[NH+](C)C)cccc2)Cc4ccccc4

>  <s_sd_BIOSOLVEIT.INFINISEE\_REACTION\_NAME>  (457) 
m_270166bbb

>  <s_sd_BIOSOLVEIT.INFINISEE\_REAGENT1\_SMILES>  (457) 
[R1*]NCC(N)c1ccc(cc1)C(C)C

>  <s_sd_BIOSOLVEIT.INFINISEE\_REAGENT2\_SMILES>  (457) 
[R1*]c1nc(nc2c1cccc2)c3ccccc3

>  <s_sd_BIOSOLVEIT.INFINISEE\_SPACE>  (457) 
REALSpace_44bn_2023-08

>  <s_vsw_compound_code>  (457) 
41059

>  <s_vsw_variant>  (457) 
41059-2

>  <r_epik_Charging_Adjusted_Penalty>  (457) 
0.0488181022923182

>  <r_epik_Ionization_Penalty>  (457) 
0.026800000000000001

>  <r_epik_Ionization_Penalty_Charging>  (457) 
0.024400000000000002

>  <r_epik_Ionization_Penalty_Neutral>  (457) 
0.0023999999999999998

>  <r_epik_State_Penalty>  (457) 
0.024400000000000002

>  <r_i_docking_score>  (457) 
-5.0080116053513999

>  <r_i_glide_ecoul>  (457) 
-9.5848531723022496

>  <r_i_glide_eff_state_penalty>  (457) 
0.024400000000000002

>  <r_i_glide_einternal>  (457) 
4.3103070259094203

>  <r_i_glide_emodel>  (457) 
-57.175930136089001

>  <r_i_glide_energy>  (457) 
-40.732327461242697

>  <r_i_glide_erotb>  (457) 
0.66062745090574204

>  <r_i_glide_esite>  (457) 
-0.11434919986107001

>  <r_i_glide_evdw>  (457) 
-31.147474288940401

>  <r_i_glide_gscore>  (457) 
-5.0324116053513999

>  <r_i_glide_hbond>  (457) 
-0.17688430881122699

>  <r_i_glide_ligand_efficiency>  (457) 
-0.17269005535694501

>  <r_i_glide_ligand_efficiency_ln>  (457) 
-1.1467076654083499

>  <r_i_glide_ligand_efficiency_sa>  (457) 
-0.53055856210624597

>  <r_i_glide_lipo>  (457) 
-1.53832079133905

>  <r_i_glide_metal>  (457) 
-0

>  <r_i_glide_rewards>  (457) 
-0.86838306595343895

>  <r_lp_Energy>  (457) 
13.103524999999999

>  <r_lp_tautomer_probability>  (457) 
0.99997800024199801

>  <r_qp_ACxDN^.5/SA>  (457) 
0.0097522000000000008

>  <r_qp_CIQPlogS>  (457) 
-5.6139999999999999

>  <r_qp_EA(eV)>  (457) 
1.0309999999999999

>  <r_qp_FISA>  (457) 
71.302000000000007

>  <r_qp_FOSA>  (457) 
176.00800000000001

>  <r_qp_IP(eV)>  (457) 
8.5079999999999991

>  <r_qp_Jm>  (457) 
0.126438114291168

>  <r_qp_PISA>  (457) 
374.30900000000003

>  <r_qp_PSA>  (457) 
50.744999999999997

>  <r_qp_PercentHumanOralAbsorption>  (457) 
100

>  <r_qp_QPPCaco>  (457) 
520.76700000000005

>  <r_qp_QPPMDCK>  (457) 
270.36799999999999

>  <r_qp_QPlogBB>  (457) 
-0.070999999999999994

>  <r_qp_QPlogHERG>  (457) 
-5.9550000000000001

>  <r_qp_QPlogKhsa>  (457) 
0.75600000000000001

>  <r_qp_QPlogKp>  (457) 
-2.9060000000000001

>  <r_qp_QPlogPC16>  (457) 
13.305

>  <r_qp_QPlogPo/w>  (457) 
4.415

>  <r_qp_QPlogPoct>  (457) 
20.012

>  <r_qp_QPlogPw>  (457) 
10.542999999999999

>  <r_qp_QPlogS>  (457) 
-3.5750000000000002

>  <r_qp_QPpolrz>  (457) 
41.223999999999997

>  <r_qp_SASA>  (457) 
621.61900000000003

>  <r_qp_SAamideO>  (457) 
0

>  <r_qp_SAfluorine>  (457) 
0

>  <r_qp_WPSA>  (457) 
0

>  <r_qp_accptHB>  (457) 
3.5

>  <r_qp_dip^2/V>  (457) 
0.0069325999999999997

>  <r_qp_dipole>  (457) 
2.8929999999999998

>  <r_qp_donorHB>  (457) 
3

>  <r_qp_glob>  (457) 
0.8818762

>  <r_qp_mol_MW>  (457) 
382.50700000000001

>  <r_qp_volume>  (457) 
1206.8420000000001

>  <r_sd_BIOSOLVEIT.INFINISEE\_FTREES\_SIMILARITY>  (457) 
0.91000000000000003

>  <r_sd_BIOSOLVEIT.LOGP>  (457) 
4.8152999999999997

>  <r_sd_BIOSOLVEIT.MOLECULAR\_WEIGHT>  (457) 
383.51600000000002

>  <r_sd_BIOSOLVEIT.TPSA>  (457) 
65.450000000000003

>  <i_epik_Tot_Q>  (457) 
1

>  <i_epik_Tot_abs_Q>  (457) 
1

>  <i_f3d_flags>  (457) 
0

>  <i_i_glide_confnum>  (457) 
6

>  <i_i_glide_lignum>  (457) 
519

>  <i_i_glide_posenum>  (457) 
6

>  <i_i_glide_rotatable_bonds>  (457) 
6

>  <i_lp_mmshare_version>  (457) 
65135

>  <i_m_ct_format>  (457) 
2

>  <i_m_source_file_index>  (457) 
1284

>  <i_qp_#NandO>  (457) 
4

>  <i_qp_#acid>  (457) 
0

>  <i_qp_#amide>  (457) 
0

>  <i_qp_#amidine>  (457) 
0

>  <i_qp_#amine>  (457) 
1

>  <i_qp_#in34>  (457) 
0

>  <i_qp_#in56>  (457) 
22

>  <i_qp_#metab>  (457) 
4

>  <i_qp_#nonHatm>  (457) 
29

>  <i_qp_#noncon>  (457) 
0

>  <i_qp_#ringatoms>  (457) 
22

>  <i_qp_#rotor>  (457) 
7

>  <i_qp_#rtvFG>  (457) 
0

>  <i_qp_#stars>  (457) 
0

>  <i_qp_CNS>  (457) 
0

>  <i_qp_HumanOralAbsorption>  (457) 
3

>  <i_qp_RuleOfFive>  (457) 
0

>  <i_qp_RuleOfThree>  (457) 
0

>  <i_sd_BIOSOLVEIT.INFINISEE\_REAGENT1\_NAME>  (457) 
16815452

>  <i_sd_BIOSOLVEIT.INFINISEE\_REAGENT2\_NAME>  (457) 
16818234

>  <i_sd_BIOSOLVEIT.INFINISEE\_RESULT\_RANK>  (457) 
45687

>  <i_sd_version>  (457) 
0

>  <b_lp_Chiralities_Consistent>  (457) 
1

>  <b_sd_chiral_flag>  (457) 
0

>  <canonical_id>  (457) 
ATP-HTVS-47A17AC8C7BD

>  <compound_code>  (457) 
41059

>  <title>  (457) 
m_270166bbb____16815452____16818234

>  <variant>  (457) 
41059-2

>  <source_file>  (457) 
运行/运行/ATP-VSW/ATP-VSW-DOCK_HTVS_1-003_lib/ATP-VSW-DOCK_HTVS_1-003_lib.mae

>  <canonical_smiles>  (457) 
CC(C)c1ccc([C@H]([NH3+])CNc2nc(-c3ccccc3)nc3ccccc23)cc1

>  <scaffold>  (457) 
c1ccc(CCNc2nc(-c3ccccc3)nc3ccccc23)cc1

>  <molecular_formula>  (457) 
C25H27N4+

$$$$
ATP-HTVS-47BAC8FD9A9F
     RDKit          3D

 58 61  0  0  0  0  0  0  0  0999 V2000
  199.1645  186.6429  151.1472 S   0  0  0  0  0  0  0  0  0  0  0  0
  199.7576  187.8111  152.3125 C   0  0  0  0  0  0  0  0  0  0  0  0
  199.3845  187.4363  153.6505 C   0  0  0  0  0  0  0  0  0  0  0  0
  199.8468  188.3075  154.6789 C   0  0  0  0  0  0  0  0  0  0  0  0
  200.5660  189.4907  154.3957 C   0  0  0  0  0  0  0  0  0  0  0  0
  200.9092  189.8309  153.0790 C   0  0  0  0  0  0  0  0  0  0  0  0
  200.5162  188.9762  152.0298 C   0  0  0  0  0  0  0  0  0  0  0  0
  198.5840  186.2030  153.6639 C   0  0  0  0  0  0  0  0  0  0  0  0
  198.0466  185.6330  154.8375 N   0  0  0  0  0  0  0  0  0  0  0  0
  197.5645  186.4290  155.9557 C   0  0  1  0  0  0  0  0  0  0  0  0
  197.3941  185.5800  157.1973 C   0  0  0  0  0  0  0  0  0  0  0  0
  196.7798  184.3140  157.1495 C   0  0  0  0  0  0  0  0  0  0  0  0
  196.6309  183.5583  158.3271 C   0  0  0  0  0  0  0  0  0  0  0  0
  197.1165  184.0672  159.5517 C   0  0  0  0  0  0  0  0  0  0  0  0
  197.7410  185.3274  159.5919 C   0  0  0  0  0  0  0  0  0  0  0  0
  197.8914  186.0759  158.4144 C   0  0  0  0  0  0  0  0  0  0  0  0
  195.8593  182.2460  158.2843 C   0  0  1  0  0  0  0  0  0  0  0  0
  194.3904  182.4441  158.1388 N   0  0  1  0  0  0  0  0  0  0  0  0
  193.6507  181.1990  158.4084 C   0  0  2  0  0  0  0  0  0  0  0  0
  193.8351  183.5896  158.9032 C   0  0  2  0  0  0  0  0  0  0  0  0
  198.4263  185.6821  152.3934 C   0  0  0  0  0  0  0  0  0  0  0  0
  197.7151  184.4782  151.8659 C   0  0  0  0  0  0  0  0  0  0  0  0
  197.3610  184.4194  150.6854 O   0  0  0  0  0  0  0  0  0  0  0  0
  197.5213  183.4966  152.7735 N   0  0  0  0  0  0  0  0  0  0  0  0
  197.0933  182.1493  152.6115 C   0  0  0  0  0  0  0  0  0  0  0  0
  197.1254  181.3000  153.7539 C   0  0  0  0  0  0  0  0  0  0  0  0
  197.5384  181.7493  155.0143 N   0  0  0  0  0  0  0  0  0  0  0  0
  196.7563  179.9433  153.6224 C   0  0  0  0  0  0  0  0  0  0  0  0
  196.3569  179.4305  152.3765 C   0  0  0  0  0  0  0  0  0  0  0  0
  196.3199  180.2653  151.2496 C   0  0  0  0  0  0  0  0  0  0  0  0
  196.6781  181.6159  151.3681 C   0  0  0  0  0  0  0  0  0  0  0  0
  199.6778  188.0840  155.7143 H   0  0  0  0  0  0  0  0  0  0  0  0
  200.8671  190.1235  155.2185 H   0  0  0  0  0  0  0  0  0  0  0  0
  201.4893  190.7209  152.8805 H   0  0  0  0  0  0  0  0  0  0  0  0
  200.7967  189.2104  151.0058 H   0  0  0  0  0  0  0  0  0  0  0  0
  197.4095  184.8734  154.6743 H   0  0  0  0  0  0  0  0  0  0  0  0
  198.2471  187.2170  156.2368 H   0  0  0  0  0  0  0  0  0  0  0  0
  196.5974  186.8690  155.6694 H   0  0  0  0  0  0  0  0  0  0  0  0
  196.3600  183.9417  156.2282 H   0  0  0  0  0  0  0  0  0  0  0  0
  196.9722  183.5242  160.4795 H   0  0  0  0  0  0  0  0  0  0  0  0
  198.0925  185.7481  160.5246 H   0  0  0  0  0  0  0  0  0  0  0  0
  198.3969  187.0290  158.4476 H   0  0  0  0  0  0  0  0  0  0  0  0
  196.2286  181.6386  157.4539 H   0  0  0  0  0  0  0  0  0  0  0  0
  196.0854  181.6807  159.2009 H   0  0  0  0  0  0  0  0  0  0  0  0
  193.8413  180.8695  159.4265 H   0  0  0  0  0  0  0  0  0  0  0  0
  193.9406  180.4088  157.7289 H   0  0  0  0  0  0  0  0  0  0  0  0
  192.5816  181.3353  158.2809 H   0  0  0  0  0  0  0  0  0  0  0  0
  194.0319  183.4450  159.9696 H   0  0  0  0  0  0  0  0  0  0  0  0
  192.7554  183.6913  158.7491 H   0  0  0  0  0  0  0  0  0  0  0  0
  194.2619  184.5529  158.6078 H   0  0  0  0  0  0  0  0  0  0  0  0
  197.8480  183.7082  153.6960 H   0  0  0  0  0  0  0  0  0  0  0  0
  197.6662  181.0720  155.7588 H   0  0  0  0  0  0  0  0  0  0  0  0
  198.0191  182.6232  155.1565 H   0  0  0  0  0  0  0  0  0  0  0  0
  196.7806  179.2851  154.4806 H   0  0  0  0  0  0  0  0  0  0  0  0
  196.0639  178.3958  152.2799 H   0  0  0  0  0  0  0  0  0  0  0  0
  196.0136  179.8873  150.2849 H   0  0  0  0  0  0  0  0  0  0  0  0
  196.6390  182.2060  150.4664 H   0  0  0  0  0  0  0  0  0  0  0  0
  194.2003  182.6459  157.1538 H   0  0  0  0  0  0  0  0  0  0  0  0
  1  2  1  0
  1 21  1  0
  2  3  1  0
  2  7  2  0
  3  4  2  0
  3  8  1  0
  4  5  1  0
  4 32  1  0
  5  6  2  0
  5 33  1  0
  6  7  1  0
  6 34  1  0
  7 35  1  0
  8  9  1  0
  8 21  2  0
  9 10  1  0
  9 36  1  0
 10 11  1  0
 10 37  1  1
 10 38  1  0
 11 12  2  0
 11 16  1  0
 12 13  1  0
 12 39  1  0
 13 14  2  0
 13 17  1  0
 14 15  1  0
 14 40  1  0
 15 16  2  0
 15 41  1  0
 16 42  1  0
 17 18  1  0
 17 43  1  6
 17 44  1  0
 18 19  1  0
 18 20  1  0
 18 58  1  6
 19 45  1  1
 19 46  1  0
 19 47  1  0
 20 48  1  1
 20 49  1  0
 20 50  1  0
 21 22  1  0
 22 23  2  0
 22 24  1  0
 24 25  1  0
 24 51  1  0
 25 26  1  0
 25 31  2  0
 26 27  1  0
 26 28  2  0
 27 52  1  0
 27 53  1  0
 28 29  1  0
 28 54  1  0
 29 30  2  0
 29 55  1  0
 30 31  1  0
 30 56  1  0
 31 57  1  0
M  CHG  1  18   1
M  END
>  <s_epik_cmdline>  (458) 
J2VwaWtfcHl0aG9uJywgJy1waCcsICc3LjAwMDAwMCcsICctcGh0JywgJzIuMDAwMDAwJywgJy1tcycsICcxNicsICctdG4nLCAnOCcsICctbWEnLCAnMjAwJywgJy1pbWFlJywgJzxpbmZpbGUubWFlPicsICctb21hZScsICc8b3V0ZmlsZS5tYWU+Jw==

>  <s_epik_input>  (458) 
W2NIXTFbY0hdW2NIXVtjSF1jKFtOSDJdKWMxW05IXUMoPU8pYyhzMiljKGMoYzIzKVtjSF1bY0hdW2NIXVtjSF0zKVtOSF1bQ0gyXWM0W2NIXWMoW2NIXVtjSF1bY0hdNClbQ0gyXU4oW0NIM10pW0NIM10=

>  <s_i_glide_gridfile>  (458) 
ATP-Grid

>  <s_lp_Force_Field>  (458) 
OPLS_2005

>  <s_lp_Variant>  (458) 
rxn512c____EMOL493903____EMOL523944____EMOL2873214-1

>  <s_lp_label>  (458) 
2295_sdstereoexpander_1_neutralizer_1_epik_1_stereoizer_1

>  <s_m_source_file>  (458) 
ATP-VSW-LIGPREP-001-in.maegz

>  <s_sd_BIOSOLVEIT.INFINISEE\_QUERY\_NAME>  (458) 
Ref-Lig

>  <s_sd_BIOSOLVEIT.INFINISEE\_QUERY\_SMILES>  (458) 
S(c1nc2c(cc1C[NH2+]Cc3ccc(cc3)C[NH+](C)C)cccc2)Cc4ccccc4

>  <s_sd_BIOSOLVEIT.INFINISEE\_REACTION\_NAME>  (458) 
rxn512c

>  <s_sd_BIOSOLVEIT.INFINISEE\_REAGENT1\_NAME>  (458) 
EMOL493903

>  <s_sd_BIOSOLVEIT.INFINISEE\_REAGENT1\_SMILES>  (458) 
Nc1c(N)cccc1

>  <s_sd_BIOSOLVEIT.INFINISEE\_REAGENT2\_NAME>  (458) 
EMOL523944

>  <s_sd_BIOSOLVEIT.INFINISEE\_REAGENT2\_SMILES>  (458) 
ClC=1c2c(SC1C(=O)O)cccc2

>  <s_sd_BIOSOLVEIT.INFINISEE\_REAGENT3\_NAME>  (458) 
EMOL2873214

>  <s_sd_BIOSOLVEIT.INFINISEE\_REAGENT3\_SMILES>  (458) 
N(Cc1cc(ccc1)CN)(C)C

>  <s_sd_BIOSOLVEIT.INFINISEE\_SPACE>  (458) 
eXplore_7tr_2022-12

>  <s_vsw_compound_code>  (458) 
73409

>  <s_vsw_variant>  (458) 
73409-1

>  <r_epik_Charging_Adjusted_Penalty>  (458) 
0.086140609825027206

>  <r_epik_Ionization_Penalty>  (458) 
0.043700000000000003

>  <r_epik_Ionization_Penalty_Charging>  (458) 
0.043099999999999999

>  <r_epik_Ionization_Penalty_Neutral>  (458) 
0.00069999999999999999

>  <r_epik_State_Penalty>  (458) 
0.043099999999999999

>  <r_i_docking_score>  (458) 
-4.6952770336703997

>  <r_i_glide_ecoul>  (458) 
-8.5323133468627894

>  <r_i_glide_eff_state_penalty>  (458) 
0.043099999999999999

>  <r_i_glide_einternal>  (458) 
3.7731812000274698

>  <r_i_glide_emodel>  (458) 
-60.472490936297

>  <r_i_glide_energy>  (458) 
-43.903025627136202

>  <r_i_glide_erotb>  (458) 
0.74755813993047004

>  <r_i_glide_esite>  (458) 
-0.14543780089142899

>  <r_i_glide_evdw>  (458) 
-35.370712280273402

>  <r_i_glide_gscore>  (458) 
-4.7383770336703996

>  <r_i_glide_hbond>  (458) 
-0.20000000000000001

>  <r_i_glide_ligand_efficiency>  (458) 
-0.151460549473239

>  <r_i_glide_ligand_efficiency_ln>  (458) 
-1.05892886405287

>  <r_i_glide_ligand_efficiency_sa>  (458) 
-0.475795239171176

>  <r_i_glide_lipo>  (458) 
-1.57852521993849

>  <r_i_glide_metal>  (458) 
-0

>  <r_i_glide_rewards>  (458) 
-0.51358953672785301

>  <r_lp_Energy>  (458) 
36.574666000000001

>  <r_qp_ACxDN^.5/SA>  (458) 
0.011205700000000001

>  <r_qp_CIQPlogS>  (458) 
-4.8090000000000002

>  <r_qp_EA(eV)>  (458) 
0.91400000000000003

>  <r_qp_FISA>  (458) 
94.995999999999995

>  <r_qp_FOSA>  (458) 
195.857

>  <r_qp_IP(eV)>  (458) 
8.077

>  <r_qp_Jm>  (458) 
0.000111473336905179

>  <r_qp_PISA>  (458) 
453.44299999999998

>  <r_qp_PSA>  (458) 
75.951999999999998

>  <r_qp_PercentHumanOralAbsorption>  (458) 
86.256

>  <r_qp_QPPCaco>  (458) 
77.420000000000002

>  <r_qp_QPPMDCK>  (458) 
56.895000000000003

>  <r_qp_QPlogBB>  (458) 
-0.098000000000000004

>  <r_qp_QPlogHERG>  (458) 
-8.7850000000000001

>  <r_qp_QPlogKhsa>  (458) 
0.85799999999999998

>  <r_qp_QPlogKp>  (458) 
-5.0300000000000002

>  <r_qp_QPlogPC16>  (458) 
15.922000000000001

>  <r_qp_QPlogPo/w>  (458) 
4.3559999999999999

>  <r_qp_QPlogPoct>  (458) 
23.077000000000002

>  <r_qp_QPlogPw>  (458) 
12.643000000000001

>  <r_qp_QPlogS>  (458) 
-4.5570000000000004

>  <r_qp_QPpolrz>  (458) 
48.561

>  <r_qp_SASA>  (458) 
776.05600000000004

>  <r_qp_SAamideO>  (458) 
0

>  <r_qp_SAfluorine>  (458) 
0

>  <r_qp_WPSA>  (458) 
31.760000000000002

>  <r_qp_accptHB>  (458) 
5.5

>  <r_qp_dip^2/V>  (458) 
0.0179314

>  <r_qp_dipole>  (458) 
4.9880000000000004

>  <r_qp_donorHB>  (458) 
2.5

>  <r_qp_glob>  (458) 
0.77516660000000004

>  <r_qp_mol_MW>  (458) 
430.56700000000001

>  <r_qp_volume>  (458) 
1387.3440000000001

>  <r_sd_BIOSOLVEIT.INFINISEE\_FTREES\_SIMILARITY>  (458) 
0.92300000000000004

>  <r_sd_BIOSOLVEIT.LOGP>  (458) 
3.9923999999999999

>  <r_sd_BIOSOLVEIT.MOLECULAR\_WEIGHT>  (458) 
431.57999999999998

>  <r_sd_BIOSOLVEIT.TPSA>  (458) 
71.590000000000003

>  <i_epik_Tot_Q>  (458) 
1

>  <i_epik_Tot_abs_Q>  (458) 
1

>  <i_f3d_flags>  (458) 
0

>  <i_i_glide_confnum>  (458) 
8

>  <i_i_glide_lignum>  (458) 
815

>  <i_i_glide_posenum>  (458) 
15

>  <i_i_glide_rotatable_bonds>  (458) 
8

>  <i_lp_mmshare_version>  (458) 
65135

>  <i_m_ct_format>  (458) 
2

>  <i_m_source_file_index>  (458) 
2295

>  <i_qp_#NandO>  (458) 
5

>  <i_qp_#acid>  (458) 
0

>  <i_qp_#amide>  (458) 
0

>  <i_qp_#amidine>  (458) 
0

>  <i_qp_#amine>  (458) 
2

>  <i_qp_#in34>  (458) 
0

>  <i_qp_#in56>  (458) 
21

>  <i_qp_#metab>  (458) 
8

>  <i_qp_#nonHatm>  (458) 
31

>  <i_qp_#noncon>  (458) 
0

>  <i_qp_#ringatoms>  (458) 
21

>  <i_qp_#rotor>  (458) 
8

>  <i_qp_#rtvFG>  (458) 
0

>  <i_qp_#stars>  (458) 
1

>  <i_qp_CNS>  (458) 
0

>  <i_qp_HumanOralAbsorption>  (458) 
3

>  <i_qp_RuleOfFive>  (458) 
0

>  <i_qp_RuleOfThree>  (458) 
1

>  <i_sd_BIOSOLVEIT.INFINISEE\_RESULT\_RANK>  (458) 
11265

>  <i_sd_version>  (458) 
0

>  <b_lp_Chiralities_Consistent>  (458) 
1

>  <b_sd_chiral_flag>  (458) 
0

>  <canonical_id>  (458) 
ATP-HTVS-47BAC8FD9A9F

>  <compound_code>  (458) 
73409

>  <title>  (458) 
rxn512c____EMOL493903____EMOL523944____EMOL2873214

>  <variant>  (458) 
73409-1

>  <source_file>  (458) 
运行/运行/ATP-VSW/ATP-VSW-DOCK_HTVS_1-001_lib/ATP-VSW-DOCK_HTVS_1-001_lib

>  <canonical_smiles>  (458) 
C[NH+](C)Cc1cccc(CNc2c(C(=O)Nc3ccccc3N)sc3ccccc23)c1

>  <scaffold>  (458) 
O=C(Nc1ccccc1)c1sc2ccccc2c1NCc1ccccc1

>  <molecular_formula>  (458) 
C25H27N4OS+

$$$$
ATP-HTVS-4862FE6420AB
     RDKit          3D

 67 70  0  0  0  0  0  0  0  0999 V2000
  200.4359  181.3063  155.3662 O   0  0  0  0  0  0  0  0  0  0  0  0
  200.3509  180.4234  156.2238 C   0  0  0  0  0  0  0  0  0  0  0  0
  201.0736  180.4274  157.3381 N   0  0  0  0  0  0  0  0  0  0  0  0
  202.1118  181.3513  157.6626 C   0  0  0  0  0  0  0  0  0  0  0  0
  201.8348  182.7226  157.9686 C   0  0  0  0  0  0  0  0  0  0  0  0
  200.5124  183.1695  157.9837 N   0  0  0  0  0  0  0  0  0  0  0  0
  199.9991  183.5904  159.3013 C   0  0  1  0  0  0  0  0  0  0  0  0
  198.6576  184.2944  159.1909 C   0  0  0  0  0  0  0  0  0  0  0  0
  197.4769  183.5288  159.3443 C   0  0  0  0  0  0  0  0  0  0  0  0
  196.2180  184.1167  159.1615 C   0  0  0  0  0  0  0  0  0  0  0  0
  196.1274  185.5137  158.9058 C   0  0  0  0  0  0  0  0  0  0  0  0
  197.3068  186.2832  158.7533 C   0  0  0  0  0  0  0  0  0  0  0  0
  198.5677  185.6659  158.8644 C   0  0  0  0  0  0  0  0  0  0  0  0
  194.9853  183.2302  159.2281 C   0  0  1  0  0  0  0  0  0  0  0  0
  194.7817  182.3534  158.0179 N   0  0  1  0  0  0  0  0  0  0  0  0
  195.9949  181.7089  157.4456 C   0  0  2  0  0  0  0  0  0  0  0  0
  193.7232  181.3600  158.2526 C   0  0  2  0  0  0  0  0  0  0  0  0
  202.9320  183.5657  158.3073 C   0  0  0  0  0  0  0  0  0  0  0  0
  204.2350  183.0231  158.4153 C   0  0  0  0  0  0  0  0  0  0  0  0
  204.4310  181.7118  158.1239 N   0  0  0  0  0  0  0  0  0  0  0  0
  203.4297  180.8998  157.7345 C   0  0  0  0  0  0  0  0  0  0  0  0
  205.3374  183.8213  158.8099 C   0  0  0  0  0  0  0  0  0  0  0  0
  205.1231  185.1822  159.1194 C   0  0  0  0  0  0  0  0  0  0  0  0
  203.8319  185.7359  159.0001 C   0  0  0  0  0  0  0  0  0  0  0  0
  202.7378  184.9448  158.5674 C   0  0  0  0  0  0  0  0  0  0  0  0
  199.3573  179.2608  156.0363 C   0  0  1  0  0  0  0  0  0  0  0  0
  200.0895  177.9562  155.7631 C   0  0  0  0  0  0  0  0  0  0  0  0
  200.8117  177.2932  156.7835 C   0  0  0  0  0  0  0  0  0  0  0  0
  201.4995  176.0969  156.5072 C   0  0  0  0  0  0  0  0  0  0  0  0
  201.4481  175.5272  155.2207 C   0  0  0  0  0  0  0  0  0  0  0  0
  200.7253  176.1949  154.1973 C   0  0  0  0  0  0  0  0  0  0  0  0
  200.0551  177.4014  154.4701 C   0  0  0  0  0  0  0  0  0  0  0  0
  202.1464  174.2406  154.9621 C   0  0  0  0  0  0  0  0  0  0  0  0
  202.9555  173.7467  155.7519 O   0  0  0  0  0  0  0  0  0  0  0  0
  201.8105  173.5015  153.6719 C   0  0  2  0  0  0  0  0  0  0  0  0
  200.9560  179.6333  157.9650 H   0  0  0  0  0  0  0  0  0  0  0  0
  199.9302  182.4993  157.4978 H   0  0  0  0  0  0  0  0  0  0  0  0
  199.8688  182.6706  159.9091 H   0  0  0  0  0  0  0  0  0  0  0  0
  200.7030  184.3059  159.7833 H   0  0  0  0  0  0  0  0  0  0  0  0
  197.6010  182.5062  159.6409 H   0  0  0  0  0  0  0  0  0  0  0  0
  195.1618  185.9832  158.7590 H   0  0  0  0  0  0  0  0  0  0  0  0
  197.2396  187.3420  158.5303 H   0  0  0  0  0  0  0  0  0  0  0  0
  199.4739  186.2493  158.7025 H   0  0  0  0  0  0  0  0  0  0  0  0
  195.0738  182.6186  160.1200 H   0  0  0  0  0  0  0  0  0  0  0  0
  194.1015  183.8598  159.3723 H   0  0  0  0  0  0  0  0  0  0  0  0
  196.4638  181.0715  158.1980 H   0  0  0  0  0  0  0  0  0  0  0  0
  196.7256  182.4446  157.0957 H   0  0  0  0  0  0  0  0  0  0  0  0
  195.7275  181.0600  156.5949 H   0  0  0  0  0  0  0  0  0  0  0  0
  194.0140  180.6675  159.0387 H   0  0  0  0  0  0  0  0  0  0  0  0
  193.5566  180.7865  157.3419 H   0  0  0  0  0  0  0  0  0  0  0  0
  192.7751  181.8267  158.5198 H   0  0  0  0  0  0  0  0  0  0  0  0
  203.7243  179.8882  157.5092 H   0  0  0  0  0  0  0  0  0  0  0  0
  206.3382  183.4181  158.8688 H   0  0  0  0  0  0  0  0  0  0  0  0
  205.9529  185.8140  159.4224 H   0  0  0  0  0  0  0  0  0  0  0  0
  203.6612  186.7729  159.2431 H   0  0  0  0  0  0  0  0  0  0  0  0
  201.7470  185.3683  158.4599 H   0  0  0  0  0  0  0  0  0  0  0  0
  198.7509  179.1634  156.9339 H   0  0  0  0  0  0  0  0  0  0  0  0
  198.6595  179.4853  155.2288 H   0  0  0  0  0  0  0  0  0  0  0  0
  200.8559  177.7023  157.7792 H   0  0  0  0  0  0  0  0  0  0  0  0
  202.0688  175.6140  157.2934 H   0  0  0  0  0  0  0  0  0  0  0  0
  200.6535  175.8086  153.1934 H   0  0  0  0  0  0  0  0  0  0  0  0
  199.5119  177.8926  153.6751 H   0  0  0  0  0  0  0  0  0  0  0  0
  200.7502  173.2510  153.6534 H   0  0  0  0  0  0  0  0  0  0  0  0
  202.3835  172.5788  153.5796 H   0  0  0  0  0  0  0  0  0  0  0  0
  202.0310  174.1224  152.8049 H   0  0  0  0  0  0  0  0  0  0  0  0
  205.3664  181.3207  158.1841 H   0  0  0  0  0  0  0  0  0  0  0  0
  194.4209  182.9108  157.2525 H   0  0  0  0  0  0  0  0  0  0  0  0
  1  2  2  0
  2  3  1  0
  2 26  1  0
  3  4  1  0
  3 36  1  0
  4  5  2  0
  4 21  1  0
  5  6  1  0
  5 18  1  0
  6  7  1  0
  6 37  1  0
  7  8  1  0
  7 38  1  1
  7 39  1  0
  8  9  2  0
  8 13  1  0
  9 10  1  0
  9 40  1  0
 10 11  2  0
 10 14  1  0
 11 12  1  0
 11 41  1  0
 12 13  2  0
 12 42  1  0
 13 43  1  0
 14 15  1  0
 14 44  1  1
 14 45  1  0
 15 16  1  0
 15 17  1  0
 15 67  1  6
 16 46  1  1
 16 47  1  0
 16 48  1  0
 17 49  1  1
 17 50  1  0
 17 51  1  0
 18 19  1  0
 18 25  2  0
 19 20  1  0
 19 22  2  0
 20 21  2  0
 20 66  1  0
 21 52  1  0
 22 23  1  0
 22 53  1  0
 23 24  2  0
 23 54  1  0
 24 25  1  0
 24 55  1  0
 25 56  1  0
 26 27  1  0
 26 57  1  1
 26 58  1  0
 27 28  1  0
 27 32  2  0
 28 29  2  0
 28 59  1  0
 29 30  1  0
 29 60  1  0
 30 31  2  0
 30 33  1  0
 31 32  1  0
 31 61  1  0
 32 62  1  0
 33 34  2  0
 33 35  1  0
 35 63  1  1
 35 64  1  0
 35 65  1  0
M  CHG  2  15   1  20   1
M  END
>  <s_epik_cmdline>  (459) 
J2VwaWtfcHl0aG9uJywgJy1waCcsICc3LjAwMDAwMCcsICctcGh0JywgJzIuMDAwMDAwJywgJy1tcycsICcxNicsICctdG4nLCAnOCcsICctbWEnLCAnMjAwJywgJy1pbWFlJywgJzxpbmZpbGUubWFlPicsICctb21hZScsICc8b3V0ZmlsZS5tYWU+Jw==

>  <s_epik_input>  (459) 
W2NIXTFbY0hdYyhDKD1PKVtDSDNdKVtjSF1bY0hdYzFbQ0gyXUMoPU8pW05IXWMoW2NIXW5jKGMyMylbY0hdW2NIXVtjSF1bY0hdMyljMltOSF1bQ0gyXWM0W2NIXWMoW2NIXVtjSF1bY0hdNClbQ0gyXU4oW0NIM10pW0NIM10=

>  <s_i_glide_gridfile>  (459) 
ATP-Grid

>  <s_lp_Force_Field>  (459) 
OPLS_2005

>  <s_lp_Variant>  (459) 
rxn502b____EMOL20754534____EMOL30488121____EMOL2873214-1

>  <s_lp_label>  (459) 
2279_sdstereoexpander_1_neutralizer_1_epik_1_stereoizer_1

>  <s_m_source_file>  (459) 
ATP-VSW-LIGPREP-002-in.maegz

>  <s_sd_BIOSOLVEIT.INFINISEE\_QUERY\_NAME>  (459) 
Ref-Lig

>  <s_sd_BIOSOLVEIT.INFINISEE\_QUERY\_SMILES>  (459) 
S(c1nc2c(cc1C[NH2+]Cc3ccc(cc3)C[NH+](C)C)cccc2)Cc4ccccc4

>  <s_sd_BIOSOLVEIT.INFINISEE\_REACTION\_NAME>  (459) 
rxn502b

>  <s_sd_BIOSOLVEIT.INFINISEE\_REAGENT1\_NAME>  (459) 
EMOL20754534

>  <s_sd_BIOSOLVEIT.INFINISEE\_REAGENT1\_SMILES>  (459) 
O=C(O)Cc1ccc(cc1)C(=O)C

>  <s_sd_BIOSOLVEIT.INFINISEE\_REAGENT2\_NAME>  (459) 
EMOL30488121

>  <s_sd_BIOSOLVEIT.INFINISEE\_REAGENT2\_SMILES>  (459) 
Brc1c(N)cnc2c1cccc2

>  <s_sd_BIOSOLVEIT.INFINISEE\_REAGENT3\_NAME>  (459) 
EMOL2873214

>  <s_sd_BIOSOLVEIT.INFINISEE\_REAGENT3\_SMILES>  (459) 
N(Cc1cc(ccc1)CN)(C)C

>  <s_sd_BIOSOLVEIT.INFINISEE\_SPACE>  (459) 
eXplore_7tr_2022-12

>  <s_vsw_compound_code>  (459) 
72898

>  <s_vsw_variant>  (459) 
72898-1

>  <r_epik_Charging_Adjusted_Penalty>  (459) 
0.147232245651675

>  <r_epik_Ionization_Penalty>  (459) 
0.073599999999999999

>  <r_epik_Ionization_Penalty_Charging>  (459) 
0.073599999999999999

>  <r_epik_Ionization_Penalty_Neutral>  (459) 
0

>  <r_epik_State_Penalty>  (459) 
0.073599999999999999

>  <r_i_docking_score>  (459) 
-5.0432066631394896

>  <r_i_glide_ecoul>  (459) 
-12.637625694274901

>  <r_i_glide_eff_state_penalty>  (459) 
0.073599999999999999

>  <r_i_glide_einternal>  (459) 
8.5647153854370099

>  <r_i_glide_emodel>  (459) 
-65.532440607898707

>  <r_i_glide_energy>  (459) 
-47.113589286804199

>  <r_i_glide_erotb>  (459) 
0.73563751996300997

>  <r_i_glide_esite>  (459) 
-0.109699524254457

>  <r_i_glide_evdw>  (459) 
-34.475963592529297

>  <r_i_glide_gscore>  (459) 
-5.1168066631394904

>  <r_i_glide_hbond>  (459) 
-0.18035782581535201

>  <r_i_glide_ligand_efficiency>  (459) 
-0.144091618946843

>  <r_i_glide_ligand_efficiency_ln>  (459) 
-1.1070957905004899

>  <r_i_glide_ligand_efficiency_sa>  (459) 
-0.47133323975896402

>  <r_i_glide_lipo>  (459) 
-1.4993216640328499

>  <r_i_glide_metal>  (459) 
-0

>  <r_i_glide_rewards>  (459) 
-0.44362313523214097

>  <r_lp_Energy>  (459) 
42.388010000000001

>  <r_lp_tautomer_probability>  (459) 
0.99995000000000001

>  <r_qp_ACxDN^.5/SA>  (459) 
0.016349800000000001

>  <r_qp_CIQPlogS>  (459) 
-5.5300000000000002

>  <r_qp_EA(eV)>  (459) 
1.0269999999999999

>  <r_qp_FISA>  (459) 
118.28

>  <r_qp_FOSA>  (459) 
258.245

>  <r_qp_IP(eV)>  (459) 
8.5899999999999999

>  <r_qp_Jm>  (459) 
0.015454765650560901

>  <r_qp_PISA>  (459) 
358.70100000000002

>  <r_qp_PSA>  (459) 
91.116

>  <r_qp_PercentHumanOralAbsorption>  (459) 
90.515000000000001

>  <r_qp_QPPCaco>  (459) 
186.70500000000001

>  <r_qp_QPPMDCK>  (459) 
89.213999999999999

>  <r_qp_QPlogBB>  (459) 
-0.67600000000000005

>  <r_qp_QPlogHERG>  (459) 
-6.4199999999999999

>  <r_qp_QPlogKhsa>  (459) 
0.55500000000000005

>  <r_qp_QPlogKp>  (459) 
-3.6339999999999999

>  <r_qp_QPlogPC16>  (459) 
15.516

>  <r_qp_QPlogPo/w>  (459) 
3.9140000000000001

>  <r_qp_QPlogPoct>  (459) 
25.225999999999999

>  <r_qp_QPlogPw>  (459) 
14.048999999999999

>  <r_qp_QPlogS>  (459) 
-3.8460000000000001

>  <r_qp_QPpolrz>  (459) 
50.130000000000003

>  <r_qp_SASA>  (459) 
735.226

>  <r_qp_SAamideO>  (459) 
0

>  <r_qp_SAfluorine>  (459) 
0

>  <r_qp_WPSA>  (459) 
0

>  <r_qp_accptHB>  (459) 
8.5

>  <r_qp_dip^2/V>  (459) 
0.0592156

>  <r_qp_dipole>  (459) 
9.3149999999999995

>  <r_qp_donorHB>  (459) 
2

>  <r_qp_glob>  (459) 
0.84854419999999997

>  <r_qp_mol_MW>  (459) 
466.58199999999999

>  <r_qp_volume>  (459) 
1465.1949999999999

>  <r_sd_BIOSOLVEIT.INFINISEE\_FTREES\_SIMILARITY>  (459) 
0.92400000000000004

>  <r_sd_BIOSOLVEIT.LOGP>  (459) 
3.8752

>  <r_sd_BIOSOLVEIT.MOLECULAR\_WEIGHT>  (459) 
467.58999999999997

>  <r_sd_BIOSOLVEIT.TPSA>  (459) 
75.530000000000001

>  <i_epik_Tot_Q>  (459) 
2

>  <i_epik_Tot_abs_Q>  (459) 
2

>  <i_f3d_flags>  (459) 
0

>  <i_i_glide_confnum>  (459) 
8

>  <i_i_glide_lignum>  (459) 
910

>  <i_i_glide_posenum>  (459) 
10

>  <i_i_glide_rotatable_bonds>  (459) 
10

>  <i_lp_mmshare_version>  (459) 
65135

>  <i_m_ct_format>  (459) 
2

>  <i_m_source_file_index>  (459) 
2279

>  <i_qp_#NandO>  (459) 
6

>  <i_qp_#acid>  (459) 
0

>  <i_qp_#amide>  (459) 
0

>  <i_qp_#amidine>  (459) 
0

>  <i_qp_#amine>  (459) 
1

>  <i_qp_#in34>  (459) 
0

>  <i_qp_#in56>  (459) 
22

>  <i_qp_#metab>  (459) 
7

>  <i_qp_#nonHatm>  (459) 
35

>  <i_qp_#noncon>  (459) 
0

>  <i_qp_#ringatoms>  (459) 
22

>  <i_qp_#rotor>  (459) 
9

>  <i_qp_#rtvFG>  (459) 
0

>  <i_qp_#stars>  (459) 
0

>  <i_qp_CNS>  (459) 
1

>  <i_qp_HumanOralAbsorption>  (459) 
3

>  <i_qp_RuleOfFive>  (459) 
0

>  <i_qp_RuleOfThree>  (459) 
1

>  <i_sd_BIOSOLVEIT.INFINISEE\_RESULT\_RANK>  (459) 
10086

>  <i_sd_version>  (459) 
0

>  <b_lp_Chiralities_Consistent>  (459) 
1

>  <b_sd_chiral_flag>  (459) 
0

>  <canonical_id>  (459) 
ATP-HTVS-4862FE6420AB

>  <compound_code>  (459) 
72898

>  <title>  (459) 
rxn502b____EMOL20754534____EMOL30488121____EMOL2873214

>  <variant>  (459) 
72898-1

>  <source_file>  (459) 
运行/运行/ATP-VSW/ATP-VSW-DOCK_HTVS_1-002_lib.maegz

>  <canonical_smiles>  (459) 
CC(=O)c1ccc(CC(=O)Nc2c[nH+]c3ccccc3c2NCc2cccc(C[NH+](C)C)c2)cc1

>  <scaffold>  (459) 
O=C(Cc1ccccc1)Nc1c[nH+]c2ccccc2c1NCc1ccccc1

>  <molecular_formula>  (459) 
C29H32N4O2+2

$$$$
ATP-HTVS-48C487957C1E
     RDKit          3D

 50 53  0  0  0  0  0  0  0  0999 V2000
  197.0175  183.3771  151.4071 Cl  0  0  0  0  0  0  0  0  0  0  0  0
  197.0672  182.3554  152.8017 C   0  0  0  0  0  0  0  0  0  0  0  0
  197.1489  182.8960  154.1044 C   0  0  0  0  0  0  0  0  0  0  0  0
  197.2185  184.6586  154.3093 S   0  0  0  0  0  0  0  0  0  0  0  0
  198.2106  184.9200  155.7878 C   0  0  1  0  0  0  0  0  0  0  0  0
  198.2833  186.3621  156.1705 C   0  0  0  0  0  0  0  0  0  0  0  0
  199.0230  187.3522  155.4219 C   0  0  0  0  0  0  0  0  0  0  0  0
  198.9375  188.6580  155.9983 C   0  0  0  0  0  0  0  0  0  0  0  0
  197.9273  188.6440  157.4253 S   0  0  0  0  0  0  0  0  0  0  0  0
  197.6746  186.9271  157.2731 C   0  0  0  0  0  0  0  0  0  0  0  0
  196.8002  186.3657  158.3339 C   0  0  0  0  0  0  0  0  0  0  0  0
  195.7095  186.9051  158.5227 O   0  0  0  0  0  0  0  0  0  0  0  0
  197.2166  185.2910  159.0654 N   0  0  0  0  0  0  0  0  0  0  0  0
  198.5660  184.8277  159.0378 C   0  0  0  0  0  0  0  0  0  0  0  0
  198.8351  183.4789  158.7055 C   0  0  0  0  0  0  0  0  0  0  0  0
  200.1631  183.0410  158.5782 C   0  0  0  0  0  0  0  0  0  0  0  0
  201.2326  183.9010  158.8897 C   0  0  0  0  0  0  0  0  0  0  0  0
  200.9705  185.2291  159.2754 C   0  0  0  0  0  0  0  0  0  0  0  0
  199.6427  185.6907  159.3357 C   0  0  0  0  0  0  0  0  0  0  0  0
  196.2751  184.5904  159.9630 C   0  0  1  0  0  0  0  0  0  0  0  0
  195.0268  183.9976  159.2663 C   0  0  0  0  0  0  0  0  0  0  0  0
  193.9148  184.2155  159.7272 O   0  0  0  0  0  0  0  0  0  0  0  0
  195.2085  183.3344  158.1285 N   0  0  0  0  0  0  0  0  0  0  0  0
  199.5953  189.7641  155.4312 C   0  0  0  0  0  0  0  0  0  0  0  0
  200.3464  189.5958  154.2543 C   0  0  0  0  0  0  0  0  0  0  0  0
  200.4460  188.3246  153.6598 C   0  0  0  0  0  0  0  0  0  0  0  0
  199.7952  187.2236  154.2465 C   0  0  0  0  0  0  0  0  0  0  0  0
  197.1661  182.0223  155.2219 C   0  0  0  0  0  0  0  0  0  0  0  0
  197.1339  180.6289  155.0369 C   0  0  0  0  0  0  0  0  0  0  0  0
  197.0681  180.0975  153.7366 C   0  0  0  0  0  0  0  0  0  0  0  0
  197.0320  180.9580  152.6228 C   0  0  0  0  0  0  0  0  0  0  0  0
  197.7032  184.3621  156.5505 H   0  0  0  0  0  0  0  0  0  0  0  0
  199.2139  184.5045  155.6356 H   0  0  0  0  0  0  0  0  0  0  0  0
  198.0287  182.7964  158.4861 H   0  0  0  0  0  0  0  0  0  0  0  0
  200.3617  182.0341  158.2513 H   0  0  0  0  0  0  0  0  0  0  0  0
  202.2497  183.5488  158.7939 H   0  0  0  0  0  0  0  0  0  0  0  0
  201.7891  185.8915  159.5000 H   0  0  0  0  0  0  0  0  0  0  0  0
  199.4588  186.7211  159.6211 H   0  0  0  0  0  0  0  0  0  0  0  0
  196.7729  183.7718  160.4896 H   0  0  0  0  0  0  0  0  0  0  0  0
  195.9634  185.2801  160.7448 H   0  0  0  0  0  0  0  0  0  0  0  0
  196.1309  183.1902  157.7568 H   0  0  0  0  0  0  0  0  0  0  0  0
  194.4041  183.0121  157.5840 H   0  0  0  0  0  0  0  0  0  0  0  0
  199.5024  190.7353  155.9009 H   0  0  0  0  0  0  0  0  0  0  0  0
  200.8455  190.4417  153.8079 H   0  0  0  0  0  0  0  0  0  0  0  0
  201.0167  188.1877  152.7513 H   0  0  0  0  0  0  0  0  0  0  0  0
  199.8684  186.2523  153.7793 H   0  0  0  0  0  0  0  0  0  0  0  0
  197.1985  182.3689  156.2410 H   0  0  0  0  0  0  0  0  0  0  0  0
  197.1422  179.9660  155.8922 H   0  0  0  0  0  0  0  0  0  0  0  0
  197.0292  179.0302  153.5930 H   0  0  0  0  0  0  0  0  0  0  0  0
  196.9675  180.5482  151.6240 H   0  0  0  0  0  0  0  0  0  0  0  0
  1  2  1  0
  2  3  1  0
  2 31  2  0
  3  4  1  0
  3 28  2  0
  4  5  1  0
  5  6  1  0
  5 32  1  1
  5 33  1  0
  6  7  1  0
  6 10  2  0
  7  8  1  0
  7 27  2  0
  8  9  1  0
  8 24  2  0
  9 10  1  0
 10 11  1  0
 11 12  2  0
 11 13  1  0
 13 14  1  0
 13 20  1  0
 14 15  2  0
 14 19  1  0
 15 16  1  0
 15 34  1  0
 16 17  2  0
 16 35  1  0
 17 18  1  0
 17 36  1  0
 18 19  2  0
 18 37  1  0
 19 38  1  0
 20 21  1  0
 20 39  1  1
 20 40  1  0
 21 22  2  0
 21 23  1  0
 23 41  1  0
 23 42  1  0
 24 25  1  0
 24 43  1  0
 25 26  2  0
 25 44  1  0
 26 27  1  0
 26 45  1  0
 27 46  1  0
 28 29  1  0
 28 47  1  0
 29 30  2  0
 29 48  1  0
 30 31  1  0
 30 49  1  0
 31 50  1  0
M  END
>  <s_epik_cmdline>  (460) 
J2VwaWtfcHl0aG9uJywgJy1waCcsICc3LjAwMDAwMCcsICctcGh0JywgJzIuMDAwMDAwJywgJy1tcycsICcxNicsICctdG4nLCAnOCcsICctbWEnLCAnMjAwJywgJy1pbWFlJywgJzxpbmZpbGUubWFlPicsICctb21hZScsICc8b3V0ZmlsZS5tYWU+Jw==

>  <s_epik_input>  (460) 
W2NIXTFbY0hdW2NIXVtjSF1jKGMxQ2wpU1tDSDJdYzJjKHNjKGMyMylbY0hdW2NIXVtjSF1bY0hdMylDKD1PKU4oW0NIMl1DKD1PKVtOSDJdKWM0W2NIXVtjSF1bY0hdW2NIXVtjSF00

>  <s_i_glide_gridfile>  (460) 
ATP-Grid

>  <s_lp_Force_Field>  (460) 
OPLS_2005

>  <s_lp_Variant>  (460) 
m_11bca____235000____2768258-1

>  <s_lp_label>  (460) 
2090_sdstereoexpander_1_neutralizer_1_epik_1_stereoizer_1

>  <s_m_source_file>  (460) 
ATP-VSW-LIGPREP-001-in.maegz

>  <s_sd_BIOSOLVEIT.INFINISEE\_QUERY\_NAME>  (460) 
Ref-Lig

>  <s_sd_BIOSOLVEIT.INFINISEE\_QUERY\_SMILES>  (460) 
S(c1nc2c(cc1C[NH2+]Cc3ccc(cc3)C[NH+](C)C)cccc2)Cc4ccccc4

>  <s_sd_BIOSOLVEIT.INFINISEE\_REACTION\_NAME>  (460) 
m_11bca

>  <s_sd_BIOSOLVEIT.INFINISEE\_REAGENT1\_SMILES>  (460) 
[R1*]N(c1ccccc1)CC(=O)N

>  <s_sd_BIOSOLVEIT.INFINISEE\_REAGENT2\_SMILES>  (460) 
[R1*]C(=O)C=1Sc2c(cccc2)C1CSc3c(Cl)cccc3

>  <s_sd_BIOSOLVEIT.INFINISEE\_SPACE>  (460) 
REALSpace_44bn_2023-08

>  <s_vsw_compound_code>  (460) 
66849

>  <s_vsw_variant>  (460) 
66849-1

>  <r_epik_Charging_Adjusted_Penalty>  (460) 
0

>  <r_epik_Ionization_Penalty>  (460) 
0

>  <r_epik_Ionization_Penalty_Charging>  (460) 
0

>  <r_epik_Ionization_Penalty_Neutral>  (460) 
0

>  <r_epik_State_Penalty>  (460) 
-0

>  <r_i_docking_score>  (460) 
-3.8395846393057602

>  <r_i_glide_ecoul>  (460) 
-3.3650102615356401

>  <r_i_glide_eff_state_penalty>  (460) 
-0

>  <r_i_glide_einternal>  (460) 
6.6561980247497603

>  <r_i_glide_emodel>  (460) 
-49.134406325803297

>  <r_i_glide_energy>  (460) 
-41.981862068176298

>  <r_i_glide_erotb>  (460) 
0.64767398259669995

>  <r_i_glide_esite>  (460) 
-0.053933295972398702

>  <r_i_glide_evdw>  (460) 
-38.616851806640597

>  <r_i_glide_gscore>  (460) 
-3.8395846393057602

>  <r_i_glide_hbond>  (460) 
-0.103848634455647

>  <r_i_glide_ligand_efficiency>  (460) 
-0.123857569009863

>  <r_i_glide_ligand_efficiency_ln>  (460) 
-0.86594400530111404

>  <r_i_glide_ligand_efficiency_sa>  (460) 
-0.38908377049444598

>  <r_i_glide_lipo>  (460) 
-0.99033189448423697

>  <r_i_glide_metal>  (460) 
-0

>  <r_i_glide_rewards>  (460) 
-0.90355066742779799

>  <r_lp_Energy>  (460) 
33.897609000000003

>  <r_lp_tautomer_probability>  (460) 
1

>  <r_qp_ACxDN^.5/SA>  (460) 
0.0128828

>  <r_qp_CIQPlogS>  (460) 
-6.859

>  <r_qp_EA(eV)>  (460) 
0.83699999999999997

>  <r_qp_FISA>  (460) 
72.578000000000003

>  <r_qp_FOSA>  (460) 
45.088000000000001

>  <r_qp_IP(eV)>  (460) 
8.4619999999999997

>  <r_qp_Jm>  (460) 
0.55572637576828199

>  <r_qp_PISA>  (460) 
439.26299999999998

>  <r_qp_PSA>  (460) 
73.132000000000005

>  <r_qp_PercentHumanOralAbsorption>  (460) 
100

>  <r_qp_QPPCaco>  (460) 
1965.8009999999999

>  <r_qp_QPPMDCK>  (460) 
3838.0259999999998

>  <r_qp_QPlogBB>  (460) 
-0.25700000000000001

>  <r_qp_QPlogHERG>  (460) 
-4.4580000000000002

>  <r_qp_QPlogKhsa>  (460) 
0.28699999999999998

>  <r_qp_QPlogKp>  (460) 
-0.63800000000000001

>  <r_qp_QPlogPC16>  (460) 
14.837999999999999

>  <r_qp_QPlogPo/w>  (460) 
4.4420000000000002

>  <r_qp_QPlogPoct>  (460) 
22.131

>  <r_qp_QPlogPw>  (460) 
12.247999999999999

>  <r_qp_QPlogS>  (460) 
-5.2869999999999999

>  <r_qp_QPpolrz>  (460) 
44.603000000000002

>  <r_qp_SASA>  (460) 
658.65200000000004

>  <r_qp_SAamideO>  (460) 
1.7709999999999999

>  <r_qp_SAfluorine>  (460) 
0

>  <r_qp_WPSA>  (460) 
101.723

>  <r_qp_accptHB>  (460) 
6

>  <r_qp_dip^2/V>  (460) 
0.040411099999999998

>  <r_qp_dipole>  (460) 
7.1799999999999997

>  <r_qp_donorHB>  (460) 
2

>  <r_qp_glob>  (460) 
0.86369079999999998

>  <r_qp_mol_MW>  (460) 
466.99900000000002

>  <r_qp_volume>  (460) 
1275.7739999999999

>  <r_sd_BIOSOLVEIT.INFINISEE\_FTREES\_SIMILARITY>  (460) 
0.90100000000000002

>  <r_sd_BIOSOLVEIT.LOGP>  (460) 
5.9790999999999999

>  <r_sd_BIOSOLVEIT.MOLECULAR\_WEIGHT>  (460) 
467.00900000000001

>  <r_sd_BIOSOLVEIT.TPSA>  (460) 
63.399999999999999

>  <i_epik_Tot_Q>  (460) 
0

>  <i_epik_Tot_abs_Q>  (460) 
0

>  <i_f3d_flags>  (460) 
0

>  <i_i_glide_confnum>  (460) 
9

>  <i_i_glide_lignum>  (460) 
654

>  <i_i_glide_posenum>  (460) 
1

>  <i_i_glide_rotatable_bonds>  (460) 
8

>  <i_lp_mmshare_version>  (460) 
65135

>  <i_m_ct_format>  (460) 
2

>  <i_m_source_file_index>  (460) 
2090

>  <i_qp_#NandO>  (460) 
4

>  <i_qp_#acid>  (460) 
0

>  <i_qp_#amide>  (460) 
1

>  <i_qp_#amidine>  (460) 
0

>  <i_qp_#amine>  (460) 
0

>  <i_qp_#in34>  (460) 
0

>  <i_qp_#in56>  (460) 
21

>  <i_qp_#metab>  (460) 
5

>  <i_qp_#nonHatm>  (460) 
31

>  <i_qp_#noncon>  (460) 
0

>  <i_qp_#ringatoms>  (460) 
21

>  <i_qp_#rotor>  (460) 
7

>  <i_qp_#rtvFG>  (460) 
0

>  <i_qp_#stars>  (460) 
0

>  <i_qp_CNS>  (460) 
0

>  <i_qp_HumanOralAbsorption>  (460) 
3

>  <i_qp_RuleOfFive>  (460) 
0

>  <i_qp_RuleOfThree>  (460) 
0

>  <i_sd_BIOSOLVEIT.INFINISEE\_REAGENT1\_NAME>  (460) 
235000

>  <i_sd_BIOSOLVEIT.INFINISEE\_REAGENT2\_NAME>  (460) 
2768258

>  <i_sd_BIOSOLVEIT.INFINISEE\_RESULT\_RANK>  (460) 
96683

>  <i_sd_version>  (460) 
0

>  <b_lp_Chiralities_Consistent>  (460) 
1

>  <b_sd_chiral_flag>  (460) 
0

>  <canonical_id>  (460) 
ATP-HTVS-48C487957C1E

>  <compound_code>  (460) 
66849

>  <title>  (460) 
m_11bca____235000____2768258

>  <variant>  (460) 
66849-1

>  <source_file>  (460) 
运行/运行/ATP-VSW/ATP-VSW-DOCK_HTVS_1-001_lib/ATP-VSW-DOCK_HTVS_1-001_lib

>  <canonical_smiles>  (460) 
NC(=O)CN(C(=O)c1sc2ccccc2c1CSc1ccccc1Cl)c1ccccc1

>  <scaffold>  (460) 
O=C(Nc1ccccc1)c1sc2ccccc2c1CSc1ccccc1

>  <molecular_formula>  (460) 
C24H19ClN2O2S2

$$$$
ATP-HTVS-48ECC7021683
     RDKit          3D

 53 55  0  0  0  0  0  0  0  0999 V2000
  198.3753  184.2150  144.5532 Cl  0  0  0  0  0  0  0  0  0  0  0  0
  198.6094  184.6816  146.1946 C   0  0  0  0  0  0  0  0  0  0  0  0
  197.6614  184.3201  147.1673 C   0  0  0  0  0  0  0  0  0  0  0  0
  197.8500  184.6870  148.5117 C   0  0  0  0  0  0  0  0  0  0  0  0
  198.9981  185.4285  148.8810 C   0  0  0  0  0  0  0  0  0  0  0  0
  199.9418  185.7950  147.9054 C   0  0  0  0  0  0  0  0  0  0  0  0
  199.7487  185.4223  146.5622 C   0  0  0  0  0  0  0  0  0  0  0  0
  196.7964  184.2772  149.5170 C   0  0  1  0  0  0  0  0  0  0  0  0
  197.1398  184.6159  150.8857 N   0  0  0  0  0  0  0  0  0  0  0  0
  197.1689  183.7569  151.8917 C   0  0  0  0  0  0  0  0  0  0  0  0
  196.9633  182.5442  151.7637 O   0  0  0  0  0  0  0  0  0  0  0  0
  197.4769  184.3451  153.1958 C   0  0  0  0  0  0  0  0  0  0  0  0
  197.5712  183.2064  154.5116 S   0  0  0  0  0  0  0  0  0  0  0  0
  198.0005  184.4540  155.6240 C   0  0  0  0  0  0  0  0  0  0  0  0
  197.9676  185.6983  155.0539 C   0  0  0  0  0  0  0  0  0  0  0  0
  198.1676  186.9419  155.7079 N   0  0  0  0  0  0  0  0  0  0  0  0
  198.1619  187.2200  157.1372 C   0  0  1  0  0  0  0  0  0  0  0  0
  198.0605  186.0165  158.0415 C   0  0  0  0  0  0  0  0  0  0  0  0
  196.8139  185.3472  158.1774 C   0  0  0  0  0  0  0  0  0  0  0  0
  196.7138  184.1386  158.8994 C   0  0  0  0  0  0  0  0  0  0  0  0
  197.8723  183.6102  159.5110 C   0  0  0  0  0  0  0  0  0  0  0  0
  199.1174  184.2580  159.3745 C   0  0  0  0  0  0  0  0  0  0  0  0
  199.2148  185.4625  158.6476 C   0  0  0  0  0  0  0  0  0  0  0  0
  195.3942  183.3909  158.9748 C   0  0  1  0  0  0  0  0  0  0  0  0
  195.1532  182.4163  157.8664 N   0  0  1  0  0  0  0  0  0  0  0  0
  196.3551  181.6871  157.3960 C   0  0  2  0  0  0  0  0  0  0  0  0
  194.0646  181.4714  158.2061 C   0  0  2  0  0  0  0  0  0  0  0  0
  197.7068  185.6367  153.6358 C   0  0  0  0  0  0  0  0  0  0  0  0
  196.7841  183.7594  146.8816 H   0  0  0  0  0  0  0  0  0  0  0  0
  199.1736  185.7281  149.9041 H   0  0  0  0  0  0  0  0  0  0  0  0
  200.8144  186.3615  148.1912 H   0  0  0  0  0  0  0  0  0  0  0  0
  200.4762  185.7026  145.8156 H   0  0  0  0  0  0  0  0  0  0  0  0
  195.8595  184.7829  149.2941 H   0  0  0  0  0  0  0  0  0  0  0  0
  196.6073  183.2050  149.4222 H   0  0  0  0  0  0  0  0  0  0  0  0
  197.3580  185.5773  151.1066 H   0  0  0  0  0  0  0  0  0  0  0  0
  198.2141  184.2013  156.6493 H   0  0  0  0  0  0  0  0  0  0  0  0
  198.1347  187.7651  155.1298 H   0  0  0  0  0  0  0  0  0  0  0  0
  199.0554  187.7851  157.4090 H   0  0  0  0  0  0  0  0  0  0  0  0
  197.3259  187.9058  157.3608 H   0  0  0  0  0  0  0  0  0  0  0  0
  195.9583  185.7820  157.7243 H   0  0  0  0  0  0  0  0  0  0  0  0
  197.8283  182.6595  159.9992 H   0  0  0  0  0  0  0  0  0  0  0  0
  200.0056  183.7897  159.7568 H   0  0  0  0  0  0  0  0  0  0  0  0
  200.1665  185.9191  158.4959 H   0  0  0  0  0  0  0  0  0  0  0  0
  195.3654  182.8581  159.9279 H   0  0  0  0  0  0  0  0  0  0  0  0
  194.5624  184.1071  158.9912 H   0  0  0  0  0  0  0  0  0  0  0  0
  196.8002  181.0896  158.1963 H   0  0  0  0  0  0  0  0  0  0  0  0
  197.1131  182.3744  157.0384 H   0  0  0  0  0  0  0  0  0  0  0  0
  196.1143  181.0318  156.5565 H   0  0  0  0  0  0  0  0  0  0  0  0
  194.3485  180.8306  159.0381 H   0  0  0  0  0  0  0  0  0  0  0  0
  193.8405  180.8034  157.3813 H   0  0  0  0  0  0  0  0  0  0  0  0
  193.1456  181.9997  158.4526 H   0  0  0  0  0  0  0  0  0  0  0  0
  197.6801  186.5219  153.0049 H   0  0  0  0  0  0  0  0  0  0  0  0
  194.8043  182.9255  157.0544 H   0  0  0  0  0  0  0  0  0  0  0  0
  1  2  1  0
  2  3  2  0
  2  7  1  0
  3  4  1  0
  3 29  1  0
  4  5  2  0
  4  8  1  0
  5  6  1  0
  5 30  1  0
  6  7  2  0
  6 31  1  0
  7 32  1  0
  8  9  1  0
  8 33  1  6
  8 34  1  0
  9 10  1  0
  9 35  1  0
 10 11  2  0
 10 12  1  0
 12 13  1  0
 12 28  2  0
 13 14  1  0
 14 15  2  0
 14 36  1  0
 15 16  1  0
 15 28  1  0
 16 17  1  0
 16 37  1  0
 17 18  1  0
 17 38  1  1
 17 39  1  0
 18 19  2  0
 18 23  1  0
 19 20  1  0
 19 40  1  0
 20 21  2  0
 20 24  1  0
 21 22  1  0
 21 41  1  0
 22 23  2  0
 22 42  1  0
 23 43  1  0
 24 25  1  0
 24 44  1  1
 24 45  1  0
 25 26  1  0
 25 27  1  0
 25 53  1  6
 26 46  1  1
 26 47  1  0
 26 48  1  0
 27 49  1  1
 27 50  1  0
 27 51  1  0
 28 52  1  0
M  CHG  1  25   1
M  END
>  <s_epik_cmdline>  (461) 
J2VwaWtfcHl0aG9uJywgJy1waCcsICc3LjAwMDAwMCcsICctcGh0JywgJzIuMDAwMDAwJywgJy1tcycsICcxNicsICctdG4nLCAnOCcsICctbWEnLCAnMjAwJywgJy1pbWFlJywgJzxpbmZpbGUubWFlPicsICctb21hZScsICc8b3V0ZmlsZS5tYWU+Jw==

>  <s_epik_input>  (461) 
Q2xjMVtjSF1jKFtjSF1bY0hdW2NIXTEpW0NIMl1bTkhdQyg9TyljMnNbY0hdYyhbY0hdMilbTkhdW0NIMl1jM1tjSF1jKFtjSF1bY0hdW2NIXTMpW0NIMl1OKFtDSDNdKVtDSDNd

>  <s_i_glide_gridfile>  (461) 
ATP-Grid

>  <s_lp_Force_Field>  (461) 
OPLS_2005

>  <s_lp_Variant>  (461) 
rxn512b____EMOL480127____EMOL720738____EMOL2873214-1

>  <s_lp_label>  (461) 
3002_sdstereoexpander_1_neutralizer_1_epik_1_stereoizer_1

>  <s_m_source_file>  (461) 
ATP-VSW-LIGPREP-001-in.maegz

>  <s_sd_BIOSOLVEIT.INFINISEE\_QUERY\_NAME>  (461) 
Ref-Lig

>  <s_sd_BIOSOLVEIT.INFINISEE\_QUERY\_SMILES>  (461) 
S(c1nc2c(cc1C[NH2+]Cc3ccc(cc3)C[NH+](C)C)cccc2)Cc4ccccc4

>  <s_sd_BIOSOLVEIT.INFINISEE\_REACTION\_NAME>  (461) 
rxn512b

>  <s_sd_BIOSOLVEIT.INFINISEE\_REAGENT1\_NAME>  (461) 
EMOL480127

>  <s_sd_BIOSOLVEIT.INFINISEE\_REAGENT1\_SMILES>  (461) 
Clc1cc(ccc1)CN

>  <s_sd_BIOSOLVEIT.INFINISEE\_REAGENT2\_NAME>  (461) 
EMOL720738

>  <s_sd_BIOSOLVEIT.INFINISEE\_REAGENT2\_SMILES>  (461) 
BrC1=CSC(C(=O)O)=C1

>  <s_sd_BIOSOLVEIT.INFINISEE\_REAGENT3\_NAME>  (461) 
EMOL2873214

>  <s_sd_BIOSOLVEIT.INFINISEE\_REAGENT3\_SMILES>  (461) 
N(Cc1cc(ccc1)CN)(C)C

>  <s_sd_BIOSOLVEIT.INFINISEE\_SPACE>  (461) 
eXplore_7tr_2022-12

>  <s_vsw_compound_code>  (461) 
96033

>  <s_vsw_variant>  (461) 
96033-1

>  <r_epik_Charging_Adjusted_Penalty>  (461) 
0.086140609825027206

>  <r_epik_Ionization_Penalty>  (461) 
0.043099999999999999

>  <r_epik_Ionization_Penalty_Charging>  (461) 
0.043099999999999999

>  <r_epik_Ionization_Penalty_Neutral>  (461) 
0

>  <r_epik_State_Penalty>  (461) 
0.043099999999999999

>  <r_i_docking_score>  (461) 
-4.4065612235387697

>  <r_i_glide_ecoul>  (461) 
-7.3565378189086896

>  <r_i_glide_eff_state_penalty>  (461) 
0.043099999999999999

>  <r_i_glide_einternal>  (461) 
3.5312929153442401

>  <r_i_glide_emodel>  (461) 
-54.589186468416699

>  <r_i_glide_energy>  (461) 
-40.220971107482903

>  <r_i_glide_erotb>  (461) 
0.80253046032591502

>  <r_i_glide_esite>  (461) 
-0.090742425429855306

>  <r_i_glide_evdw>  (461) 
-32.864433288574197

>  <r_i_glide_gscore>  (461) 
-4.4496612235387696

>  <r_i_glide_hbond>  (461) 
-0.17923005326570701

>  <r_i_glide_ligand_efficiency>  (461) 
-0.157377186554956

>  <r_i_glide_ligand_efficiency_ln>  (461) 
-1.0171637126522799

>  <r_i_glide_ligand_efficiency_sa>  (461) 
-0.47788982858679002

>  <r_i_glide_lipo>  (461) 
-1.6557811860859299

>  <r_i_glide_metal>  (461) 
-0

>  <r_i_glide_rewards>  (461) 
-0.57973568181818103

>  <r_lp_Energy>  (461) 
15.168841

>  <r_lp_tautomer_probability>  (461) 
0.99999274205267796

>  <r_qp_ACxDN^.5/SA>  (461) 
0.010249299999999999

>  <r_qp_CIQPlogS>  (461) 
-4.2850000000000001

>  <r_qp_EA(eV)>  (461) 
0.61799999999999999

>  <r_qp_FISA>  (461) 
63.350999999999999

>  <r_qp_FOSA>  (461) 
269.86799999999999

>  <r_qp_IP(eV)>  (461) 
8.3960000000000008

>  <r_qp_Jm>  (461) 
9.6562187120102793e-05

>  <r_qp_PISA>  (461) 
312.86900000000003

>  <r_qp_PSA>  (461) 
55.008000000000003

>  <r_qp_PercentHumanOralAbsorption>  (461) 
92.472999999999999

>  <r_qp_QPPCaco>  (461) 
154.506

>  <r_qp_QPPMDCK>  (461) 
333.75

>  <r_qp_QPlogBB>  (461) 
0.44900000000000001

>  <r_qp_QPlogHERG>  (461) 
-8.141

>  <r_qp_QPlogKhsa>  (461) 
0.76400000000000001

>  <r_qp_QPlogKp>  (461) 
-4.9420000000000002

>  <r_qp_QPlogPC16>  (461) 
14.696

>  <r_qp_QPlogPo/w>  (461) 
4.5

>  <r_qp_QPlogPoct>  (461) 
21.431999999999999

>  <r_qp_QPlogPw>  (461) 
10.726000000000001

>  <r_qp_QPlogS>  (461) 
-4.6900000000000004

>  <r_qp_QPpolrz>  (461) 
45.215000000000003

>  <r_qp_SASA>  (461) 
758.89599999999996

>  <r_qp_SAamideO>  (461) 
0

>  <r_qp_SAfluorine>  (461) 
0

>  <r_qp_WPSA>  (461) 
112.809

>  <r_qp_accptHB>  (461) 
5.5

>  <r_qp_dip^2/V>  (461) 
0.036813699999999998

>  <r_qp_dipole>  (461) 
7.016

>  <r_qp_donorHB>  (461) 
2

>  <r_qp_glob>  (461) 
0.773509

>  <r_qp_mol_MW>  (461) 
413.964

>  <r_qp_volume>  (461) 
1337.2840000000001

>  <r_sd_BIOSOLVEIT.INFINISEE\_FTREES\_SIMILARITY>  (461) 
0.90300000000000002

>  <r_sd_BIOSOLVEIT.LOGP>  (461) 
3.5880999999999998

>  <r_sd_BIOSOLVEIT.MOLECULAR\_WEIGHT>  (461) 
414.97800000000001

>  <r_sd_BIOSOLVEIT.TPSA>  (461) 
45.57

>  <i_epik_Tot_Q>  (461) 
1

>  <i_epik_Tot_abs_Q>  (461) 
1

>  <i_f3d_flags>  (461) 
0

>  <i_i_glide_confnum>  (461) 
7

>  <i_i_glide_lignum>  (461) 
1451

>  <i_i_glide_posenum>  (461) 
2

>  <i_i_glide_rotatable_bonds>  (461) 
9

>  <i_lp_mmshare_version>  (461) 
65135

>  <i_m_ct_format>  (461) 
2

>  <i_m_source_file_index>  (461) 
3002

>  <i_qp_#NandO>  (461) 
4

>  <i_qp_#acid>  (461) 
0

>  <i_qp_#amide>  (461) 
0

>  <i_qp_#amidine>  (461) 
0

>  <i_qp_#amine>  (461) 
2

>  <i_qp_#in34>  (461) 
0

>  <i_qp_#in56>  (461) 
17

>  <i_qp_#metab>  (461) 
6

>  <i_qp_#nonHatm>  (461) 
28

>  <i_qp_#noncon>  (461) 
0

>  <i_qp_#ringatoms>  (461) 
17

>  <i_qp_#rotor>  (461) 
8

>  <i_qp_#rtvFG>  (461) 
0

>  <i_qp_#stars>  (461) 
0

>  <i_qp_CNS>  (461) 
1

>  <i_qp_HumanOralAbsorption>  (461) 
3

>  <i_qp_RuleOfFive>  (461) 
0

>  <i_qp_RuleOfThree>  (461) 
0

>  <i_sd_BIOSOLVEIT.INFINISEE\_RESULT\_RANK>  (461) 
85790

>  <i_sd_version>  (461) 
0

>  <b_lp_Chiralities_Consistent>  (461) 
1

>  <b_sd_chiral_flag>  (461) 
0

>  <canonical_id>  (461) 
ATP-HTVS-48ECC7021683

>  <compound_code>  (461) 
96033

>  <title>  (461) 
rxn512b____EMOL480127____EMOL720738____EMOL2873214

>  <variant>  (461) 
96033-1

>  <source_file>  (461) 
运行/运行/ATP-VSW/ATP-VSW-DOCK_HTVS_1-001_lib/ATP-VSW-DOCK_HTVS_1-001_lib

>  <canonical_smiles>  (461) 
C[NH+](C)Cc1cccc(CNc2csc(C(=O)NCc3cccc(Cl)c3)c2)c1

>  <scaffold>  (461) 
O=C(NCc1ccccc1)c1cc(NCc2ccccc2)cs1

>  <molecular_formula>  (461) 
C22H25ClN3OS+

$$$$
ATP-HTVS-491BAB709F49
     RDKit          3D

 66 70  0  0  0  0  0  0  0  0999 V2000
  201.9001  185.0822  157.6810 O   0  0  0  0  0  0  0  0  0  0  0  0
  200.7475  184.6553  157.7755 C   0  0  0  0  0  0  0  0  0  0  0  0
  199.6780  185.3716  158.1749 N   0  0  0  0  0  0  0  0  0  0  0  0
  199.6154  186.7320  158.5810 C   0  0  0  0  0  0  0  0  0  0  0  0
  200.7309  187.4853  158.7419 N   0  0  0  0  0  0  0  0  0  0  0  0
  200.6353  188.7812  159.1017 C   0  0  0  0  0  0  0  0  0  0  0  0
  199.3810  189.3898  159.3437 C   0  0  0  0  0  0  0  0  0  0  0  0
  198.2172  188.6209  159.2116 C   0  0  0  0  0  0  0  0  0  0  0  0
  198.3158  187.2701  158.8108 C   0  0  0  0  0  0  0  0  0  0  0  0
  197.1418  186.5119  158.6093 N   0  0  0  0  0  0  0  0  0  0  0  0
  196.7112  185.6825  159.7399 C   0  0  1  0  0  0  0  0  0  0  0  0
  195.8575  186.4457  160.6696 C   0  0  0  0  0  0  0  0  0  0  0  0
  195.1793  187.0425  161.3923 N   0  0  0  0  0  0  0  0  0  0  0  0
  196.0289  184.3864  159.3271 C   0  0  0  0  0  0  0  0  0  0  0  0
  196.7994  183.2269  159.1087 C   0  0  0  0  0  0  0  0  0  0  0  0
  196.1750  182.0291  158.7115 C   0  0  0  0  0  0  0  0  0  0  0  0
  194.7820  181.9752  158.5372 C   0  0  0  0  0  0  0  0  0  0  0  0
  194.0084  183.1278  158.7615 C   0  0  0  0  0  0  0  0  0  0  0  0
  194.6254  184.3221  159.1635 C   0  0  0  0  0  0  0  0  0  0  0  0
  196.1078  187.2278  157.8656 C   0  0  2  0  0  0  0  0  0  0  0  0
  199.2944  190.7486  159.7249 C   0  0  0  0  0  0  0  0  0  0  0  0
  200.4666  191.5083  159.8694 C   0  0  0  0  0  0  0  0  0  0  0  0
  201.7196  190.9184  159.6295 C   0  0  0  0  0  0  0  0  0  0  0  0
  201.7988  189.5650  159.2406 C   0  0  0  0  0  0  0  0  0  0  0  0
  200.4566  183.2126  157.4737 C   0  0  0  0  0  0  0  0  0  0  0  0
  201.4060  182.2239  157.8131 C   0  0  0  0  0  0  0  0  0  0  0  0
  201.1311  180.8669  157.5778 C   0  0  0  0  0  0  0  0  0  0  0  0
  199.9257  180.4808  156.9354 C   0  0  0  0  0  0  0  0  0  0  0  0
  198.9883  181.4733  156.5808 C   0  0  0  0  0  0  0  0  0  0  0  0
  199.2462  182.8313  156.8480 C   0  0  0  0  0  0  0  0  0  0  0  0
  199.6165  179.0151  156.6726 C   0  0  1  0  0  0  0  0  0  0  0  0
  200.4839  178.4522  155.6066 N   0  0  1  0  0  0  0  0  0  0  0  0
  201.9005  178.2731  155.9738 C   0  0  1  0  0  0  0  0  0  0  0  0
  202.4720  177.3515  154.9044 C   0  0  1  0  0  0  0  0  0  0  0  0
  201.2651  176.6088  154.3266 C   0  0  1  0  0  0  0  0  0  0  0  0
  200.0578  177.1330  155.1124 C   0  0  1  0  0  0  0  0  0  0  0  0
  198.7906  184.8919  158.1773 H   0  0  0  0  0  0  0  0  0  0  0  0
  197.2562  189.0795  159.4037 H   0  0  0  0  0  0  0  0  0  0  0  0
  197.5881  185.4153  160.3256 H   0  0  0  0  0  0  0  0  0  0  0  0
  197.8716  183.2438  159.2505 H   0  0  0  0  0  0  0  0  0  0  0  0
  196.7563  181.1340  158.5477 H   0  0  0  0  0  0  0  0  0  0  0  0
  194.3141  181.0492  158.2368 H   0  0  0  0  0  0  0  0  0  0  0  0
  192.9382  183.0909  158.6261 H   0  0  0  0  0  0  0  0  0  0  0  0
  194.0071  185.1894  159.3372 H   0  0  0  0  0  0  0  0  0  0  0  0
  196.5369  187.9159  157.1346 H   0  0  0  0  0  0  0  0  0  0  0  0
  195.4964  187.8125  158.5502 H   0  0  0  0  0  0  0  0  0  0  0  0
  195.4542  186.5444  157.3342 H   0  0  0  0  0  0  0  0  0  0  0  0
  198.3337  191.1982  159.9206 H   0  0  0  0  0  0  0  0  0  0  0  0
  200.4052  192.5420  160.1820 H   0  0  0  0  0  0  0  0  0  0  0  0
  202.6231  191.5002  159.7498 H   0  0  0  0  0  0  0  0  0  0  0  0
  202.7610  189.1143  159.0600 H   0  0  0  0  0  0  0  0  0  0  0  0
  202.3396  182.5042  158.2817 H   0  0  0  0  0  0  0  0  0  0  0  0
  201.8469  180.1334  157.9139 H   0  0  0  0  0  0  0  0  0  0  0  0
  198.0424  181.2033  156.1306 H   0  0  0  0  0  0  0  0  0  0  0  0
  198.4925  183.5675  156.5937 H   0  0  0  0  0  0  0  0  0  0  0  0
  199.6764  178.4497  157.6051 H   0  0  0  0  0  0  0  0  0  0  0  0
  198.5692  178.9395  156.3658 H   0  0  0  0  0  0  0  0  0  0  0  0
  202.4739  179.2037  156.0108 H   0  0  0  0  0  0  0  0  0  0  0  0
  201.9558  177.7829  156.9517 H   0  0  0  0  0  0  0  0  0  0  0  0
  202.9510  177.9570  154.1350 H   0  0  0  0  0  0  0  0  0  0  0  0
  203.2308  176.6884  155.3159 H   0  0  0  0  0  0  0  0  0  0  0  0
  201.1657  176.8461  153.2651 H   0  0  0  0  0  0  0  0  0  0  0  0
  201.3635  175.5294  154.4208 H   0  0  0  0  0  0  0  0  0  0  0  0
  199.8476  176.4816  155.9649 H   0  0  0  0  0  0  0  0  0  0  0  0
  199.1520  177.1994  154.5033 H   0  0  0  0  0  0  0  0  0  0  0  0
  200.4505  179.0892  154.8249 H   0  0  0  0  0  0  0  0  0  0  0  0
  1  2  2  0
  2  3  1  0
  2 25  1  0
  3  4  1  0
  3 37  1  0
  4  5  2  0
  4  9  1  0
  5  6  1  0
  6  7  1  0
  6 24  2  0
  7  8  1  0
  7 21  2  0
  8  9  2  0
  8 38  1  0
  9 10  1  0
 10 11  1  0
 10 20  1  0
 11 12  1  0
 11 14  1  0
 11 39  1  1
 12 13  3  0
 14 15  2  0
 14 19  1  0
 15 16  1  0
 15 40  1  0
 16 17  2  0
 16 41  1  0
 17 18  1  0
 17 42  1  0
 18 19  2  0
 18 43  1  0
 19 44  1  0
 20 45  1  6
 20 46  1  0
 20 47  1  0
 21 22  1  0
 21 48  1  0
 22 23  2  0
 22 49  1  0
 23 24  1  0
 23 50  1  0
 24 51  1  0
 25 26  1  0
 25 30  2  0
 26 27  2  0
 26 52  1  0
 27 28  1  0
 27 53  1  0
 28 29  2  0
 28 31  1  0
 29 30  1  0
 29 54  1  0
 30 55  1  0
 31 32  1  0
 31 56  1  1
 31 57  1  0
 32 33  1  0
 32 36  1  0
 32 66  1  6
 33 34  1  0
 33 58  1  1
 33 59  1  0
 34 35  1  0
 34 60  1  6
 34 61  1  0
 35 36  1  0
 35 62  1  6
 35 63  1  0
 36 64  1  1
 36 65  1  0
M  CHG  1  32   1
M  END
>  <s_epik_cmdline>  (462) 
J2VwaWtfcHl0aG9uJywgJy1waCcsICc3LjAwMDAwMCcsICctcGh0JywgJzIuMDAwMDAwJywgJy1tcycsICcxNicsICctdG4nLCAnOCcsICctbWEnLCAnMjAwJywgJy1pbWFlJywgJzxpbmZpbGUubWFlPicsICctb21hZScsICc8b3V0ZmlsZS5tYWU+Jw==

>  <s_epik_input>  (462) 
W0NIMl0xW0NIMl1bQ0gyXVtDSDJdTjFbQ0gyXWMoW2NIXVtjSF0yKVtjSF1bY0hdYzJDKD1PKVtOSF1jKG4zKWMoW2NIXWMoYzM0KVtjSF1bY0hdW2NIXVtjSF00KU4oW0NIM10pW0NAQEhdKEMjTiljNVtjSF1bY0hdW2NIXVtjSF1bY0hdNQ==

>  <s_i_glide_gridfile>  (462) 
ATP-Grid

>  <s_lp_Force_Field>  (462) 
OPLS_2005

>  <s_lp_Variant>  (462) 
rxn502b____EMOL36726524____EMOL44466703____EMOL24630243-1

>  <s_lp_label>  (462) 
2766_sdstereoexpander_1_neutralizer_1_epik_1_stereoizer_1

>  <s_m_source_file>  (462) 
ATP-VSW-LIGPREP-002-in.maegz

>  <s_sd_BIOSOLVEIT.INFINISEE\_QUERY\_NAME>  (462) 
Ref-Lig

>  <s_sd_BIOSOLVEIT.INFINISEE\_QUERY\_SMILES>  (462) 
S(c1nc2c(cc1C[NH2+]Cc3ccc(cc3)C[NH+](C)C)cccc2)Cc4ccccc4

>  <s_sd_BIOSOLVEIT.INFINISEE\_REACTION\_NAME>  (462) 
rxn502b

>  <s_sd_BIOSOLVEIT.INFINISEE\_REAGENT1\_NAME>  (462) 
EMOL36726524

>  <s_sd_BIOSOLVEIT.INFINISEE\_REAGENT1\_SMILES>  (462) 
O=C(O)c1ccc(cc1)CN2CCCC2

>  <s_sd_BIOSOLVEIT.INFINISEE\_REAGENT2\_NAME>  (462) 
EMOL44466703

>  <s_sd_BIOSOLVEIT.INFINISEE\_REAGENT2\_SMILES>  (462) 
Brc1c(nc2c(c1)cccc2)N

>  <s_sd_BIOSOLVEIT.INFINISEE\_REAGENT3\_NAME>  (462) 
EMOL24630243

>  <s_sd_BIOSOLVEIT.INFINISEE\_REAGENT3\_SMILES>  (462) 
N#CC(NC)c1ccccc1

>  <s_sd_BIOSOLVEIT.INFINISEE\_SPACE>  (462) 
eXplore_7tr_2022-12

>  <s_vsw_compound_code>  (462) 
88482

>  <s_vsw_variant>  (462) 
88482-1

>  <r_epik_Charging_Adjusted_Penalty>  (462) 
0.022571123181499501

>  <r_epik_Ionization_Penalty>  (462) 
0.011299999999999999

>  <r_epik_Ionization_Penalty_Charging>  (462) 
0.011299999999999999

>  <r_epik_Ionization_Penalty_Neutral>  (462) 
0

>  <r_epik_State_Penalty>  (462) 
0.011299999999999999

>  <r_i_docking_score>  (462) 
-4.1581716311490702

>  <r_i_glide_ecoul>  (462) 
-7.1841807365417498

>  <r_i_glide_eff_state_penalty>  (462) 
0.011299999999999999

>  <r_i_glide_einternal>  (462) 
4.97975826263428

>  <r_i_glide_emodel>  (462) 
-54.633532620741299

>  <r_i_glide_energy>  (462) 
-41.375148296356201

>  <r_i_glide_erotb>  (462) 
0.71324797024618902

>  <r_i_glide_esite>  (462) 
-0.0148780675536416

>  <r_i_glide_evdw>  (462) 
-34.190967559814503

>  <r_i_glide_gscore>  (462) 
-4.1694716311490696

>  <r_i_glide_hbond>  (462) 
0

>  <r_i_glide_ligand_efficiency>  (462) 
-0.115504767531919

>  <r_i_glide_ligand_efficiency_ln>  (462) 
-0.90720070910183404

>  <r_i_glide_ligand_efficiency_sa>  (462) 
-0.38138833883530998

>  <r_i_glide_lipo>  (462) 
-1.11325063839282

>  <r_i_glide_metal>  (462) 
-0

>  <r_i_glide_rewards>  (462) 
-0.96741540697681405

>  <r_lp_Energy>  (462) 
56.685974999999999

>  <r_qp_ACxDN^.5/SA>  (462) 
0.0097303000000000008

>  <r_qp_CIQPlogS>  (462) 
-6.9800000000000004

>  <r_qp_EA(eV)>  (462) 
1.0029999999999999

>  <r_qp_FISA>  (462) 
108.53

>  <r_qp_FOSA>  (462) 
275.25599999999997

>  <r_qp_IP(eV)>  (462) 
8.7810000000000006

>  <r_qp_Jm>  (462) 
5.61730933352152e-05

>  <r_qp_PISA>  (462) 
438.39100000000002

>  <r_qp_PSA>  (462) 
75.527000000000001

>  <r_qp_PercentHumanOralAbsorption>  (462) 
100

>  <r_qp_QPPCaco>  (462) 
230.99799999999999

>  <r_qp_QPPMDCK>  (462) 
112.29600000000001

>  <r_qp_QPlogBB>  (462) 
-0.69899999999999995

>  <r_qp_QPlogHERG>  (462) 
-7.8520000000000003

>  <r_qp_QPlogKhsa>  (462) 
0.83799999999999997

>  <r_qp_QPlogKp>  (462) 
-3.27

>  <r_qp_QPlogPC16>  (462) 
16.684999999999999

>  <r_qp_QPlogPo/w>  (462) 
4.7960000000000003

>  <r_qp_QPlogPoct>  (462) 
24.045999999999999

>  <r_qp_QPlogPw>  (462) 
12.997999999999999

>  <r_qp_QPlogS>  (462) 
-6.6580000000000004

>  <r_qp_QPpolrz>  (462) 
54.420000000000002

>  <r_qp_SASA>  (462) 
822.17700000000002

>  <r_qp_SAamideO>  (462) 
0

>  <r_qp_SAfluorine>  (462) 
0

>  <r_qp_WPSA>  (462) 
0

>  <r_qp_accptHB>  (462) 
8

>  <r_qp_dip^2/V>  (462) 
0.0011037

>  <r_qp_dipole>  (462) 
1.3029999999999999

>  <r_qp_donorHB>  (462) 
1

>  <r_qp_glob>  (462) 
0.78350779999999998

>  <r_qp_mol_MW>  (462) 
475.59199999999998

>  <r_qp_volume>  (462) 
1537.3240000000001

>  <r_sd_BIOSOLVEIT.INFINISEE\_FTREES\_SIMILARITY>  (462) 
0.90700000000000003

>  <r_sd_BIOSOLVEIT.LOGP>  (462) 
4.3668800000000001

>  <r_sd_BIOSOLVEIT.MOLECULAR\_WEIGHT>  (462) 
476.601

>  <r_sd_BIOSOLVEIT.TPSA>  (462) 
73.459999999999994

>  <i_epik_Tot_Q>  (462) 
1

>  <i_epik_Tot_abs_Q>  (462) 
1

>  <i_f3d_flags>  (462) 
0

>  <i_i_glide_confnum>  (462) 
6

>  <i_i_glide_lignum>  (462) 
1336

>  <i_i_glide_posenum>  (462) 
17

>  <i_i_glide_rotatable_bonds>  (462) 
8

>  <i_lp_mmshare_version>  (462) 
65135

>  <i_m_ct_format>  (462) 
2

>  <i_m_source_file_index>  (462) 
2766

>  <i_qp_#NandO>  (462) 
6

>  <i_qp_#acid>  (462) 
0

>  <i_qp_#amide>  (462) 
0

>  <i_qp_#amidine>  (462) 
0

>  <i_qp_#amine>  (462) 
1

>  <i_qp_#in34>  (462) 
0

>  <i_qp_#in56>  (462) 
27

>  <i_qp_#metab>  (462) 
5

>  <i_qp_#nonHatm>  (462) 
36

>  <i_qp_#noncon>  (462) 
4

>  <i_qp_#ringatoms>  (462) 
27

>  <i_qp_#rotor>  (462) 
8

>  <i_qp_#rtvFG>  (462) 
0

>  <i_qp_#stars>  (462) 
1

>  <i_qp_CNS>  (462) 
1

>  <i_qp_HumanOralAbsorption>  (462) 
1

>  <i_qp_RuleOfFive>  (462) 
0

>  <i_qp_RuleOfThree>  (462) 
1

>  <i_sd_BIOSOLVEIT.INFINISEE\_RESULT\_RANK>  (462) 
59786

>  <i_sd_version>  (462) 
0

>  <b_lp_Chiralities_Consistent>  (462) 
1

>  <b_sd_chiral_flag>  (462) 
0

>  <canonical_id>  (462) 
ATP-HTVS-491BAB709F49

>  <compound_code>  (462) 
88482

>  <title>  (462) 
rxn502b____EMOL36726524____EMOL44466703____EMOL24630243

>  <variant>  (462) 
88482-1

>  <source_file>  (462) 
运行/运行/ATP-VSW/ATP-VSW-DOCK_HTVS_1-002_lib.maegz

>  <canonical_smiles>  (462) 
CN(c1cc2ccccc2nc1NC(=O)c1ccc(C[NH+]2CCCC2)cc1)[C@@H](C#N)c1ccccc1

>  <scaffold>  (462) 
O=C(Nc1nc2ccccc2cc1NCc1ccccc1)c1ccc(C[NH+]2CCCC2)cc1

>  <molecular_formula>  (462) 
C30H30N5O+

$$$$
ATP-HTVS-4920657FA6C2
     RDKit          3D

 61 64  0  0  0  0  0  0  0  0999 V2000
  196.6052  181.3116  150.4860 O   0  0  0  0  0  0  0  0  0  0  0  0
  196.9879  180.2336  150.9326 C   0  0  0  0  0  0  0  0  0  0  0  0
  197.5077  179.2062  150.1092 N   0  0  0  0  0  0  0  0  0  0  0  0
  198.3687  178.3209  150.5372 C   0  0  0  0  0  0  0  0  0  0  0  0
  198.9957  178.2047  151.7785 N   0  0  0  0  0  0  0  0  0  0  0  0
  199.7282  177.0139  151.8571 C   0  0  0  0  0  0  0  0  0  0  0  0
  199.6473  176.4141  150.6143 C   0  0  0  0  0  0  0  0  0  0  0  0
  198.8265  177.2124  149.8138 N   0  0  0  0  0  0  0  0  0  0  0  0
  198.2373  176.6672  148.5959 C   0  0  1  0  0  0  0  0  0  0  0  0
  198.5450  177.4631  147.3470 C   0  0  0  0  0  0  0  0  0  0  0  0
  197.4930  177.9279  146.5309 C   0  0  0  0  0  0  0  0  0  0  0  0
  197.7725  178.6549  145.3567 C   0  0  0  0  0  0  0  0  0  0  0  0
  199.1071  178.9293  145.0025 C   0  0  0  0  0  0  0  0  0  0  0  0
  200.1608  178.4613  145.8112 C   0  0  0  0  0  0  0  0  0  0  0  0
  199.8799  177.7292  146.9813 C   0  0  0  0  0  0  0  0  0  0  0  0
  200.3161  175.1917  150.3742 C   0  0  0  0  0  0  0  0  0  0  0  0
  201.0302  174.6137  151.4522 C   0  0  0  0  0  0  0  0  0  0  0  0
  201.0596  175.2309  152.7338 C   0  0  0  0  0  0  0  0  0  0  0  0
  200.3883  176.4534  152.9507 C   0  0  0  0  0  0  0  0  0  0  0  0
  196.8638  179.9336  152.2322 N   0  0  0  0  0  0  0  0  0  0  0  0
  196.5075  180.8384  153.3249 C   0  0  1  0  0  0  0  0  0  0  0  0
  197.7695  181.3702  154.0060 C   0  0  1  0  0  0  0  0  0  0  0  0
  197.4140  182.2940  155.1476 C   0  0  0  0  0  0  0  0  0  0  0  0
  196.7305  181.7893  156.2688 C   0  0  0  0  0  0  0  0  0  0  0  0
  196.3600  182.6533  157.3151 C   0  0  0  0  0  0  0  0  0  0  0  0
  196.7454  184.0115  157.2879 C   0  0  0  0  0  0  0  0  0  0  0  0
  197.4307  184.5149  156.1587 C   0  0  0  0  0  0  0  0  0  0  0  0
  197.7532  183.6594  155.0890 C   0  0  0  0  0  0  0  0  0  0  0  0
  196.4524  184.9261  158.4749 C   0  0  1  0  0  0  0  0  0  0  0  0
  197.3812  184.7806  159.6002 N   0  0  0  0  0  0  0  0  0  0  0  0
  197.3823  183.4368  160.1573 C   0  0  2  0  0  0  0  0  0  0  0  0
  198.7347  185.1771  159.2348 C   0  0  2  0  0  0  0  0  0  0  0  0
  198.5408  175.6384  148.4170 H   0  0  0  0  0  0  0  0  0  0  0  0
  197.1598  176.6359  148.7416 H   0  0  0  0  0  0  0  0  0  0  0  0
  196.4667  177.7162  146.7919 H   0  0  0  0  0  0  0  0  0  0  0  0
  196.9667  178.9838  144.7164 H   0  0  0  0  0  0  0  0  0  0  0  0
  199.3186  179.4657  144.0886 H   0  0  0  0  0  0  0  0  0  0  0  0
  201.1838  178.6509  145.5213 H   0  0  0  0  0  0  0  0  0  0  0  0
  200.6902  177.3644  147.5961 H   0  0  0  0  0  0  0  0  0  0  0  0
  200.3039  174.7138  149.4060 H   0  0  0  0  0  0  0  0  0  0  0  0
  201.5652  173.6886  151.2962 H   0  0  0  0  0  0  0  0  0  0  0  0
  201.6095  174.7742  153.5468 H   0  0  0  0  0  0  0  0  0  0  0  0
  200.3897  176.9357  153.9191 H   0  0  0  0  0  0  0  0  0  0  0  0
  197.1098  178.9999  152.5111 H   0  0  0  0  0  0  0  0  0  0  0  0
  195.8683  181.6631  153.0137 H   0  0  0  0  0  0  0  0  0  0  0  0
  195.9434  180.2258  154.0231 H   0  0  0  0  0  0  0  0  0  0  0  0
  198.3876  180.5707  154.4092 H   0  0  0  0  0  0  0  0  0  0  0  0
  198.3881  181.9126  153.2913 H   0  0  0  0  0  0  0  0  0  0  0  0
  196.4712  180.7419  156.3463 H   0  0  0  0  0  0  0  0  0  0  0  0
  195.8079  182.2433  158.1496 H   0  0  0  0  0  0  0  0  0  0  0  0
  197.7143  185.5601  156.1187 H   0  0  0  0  0  0  0  0  0  0  0  0
  198.2717  184.0613  154.2300 H   0  0  0  0  0  0  0  0  0  0  0  0
  196.4512  185.9705  158.1438 H   0  0  0  0  0  0  0  0  0  0  0  0
  195.4341  184.7348  158.8186 H   0  0  0  0  0  0  0  0  0  0  0  0
  198.0068  183.3835  161.0339 H   0  0  0  0  0  0  0  0  0  0  0  0
  197.7995  182.7029  159.4707 H   0  0  0  0  0  0  0  0  0  0  0  0
  196.3769  183.1317  160.4438 H   0  0  0  0  0  0  0  0  0  0  0  0
  199.4176  185.0441  160.0733 H   0  0  0  0  0  0  0  0  0  0  0  0
  198.7662  186.2278  158.9387 H   0  0  0  0  0  0  0  0  0  0  0  0
  199.1169  184.5777  158.4079 H   0  0  0  0  0  0  0  0  0  0  0  0
  198.9459  178.7962  152.5904 H   0  0  0  0  0  0  0  0  0  0  0  0
  1  2  2  0
  2  3  1  0
  2 20  1  0
  3  4  2  0
  4  5  1  0
  4  8  1  0
  5  6  1  0
  5 61  1  0
  6  7  1  0
  6 19  2  0
  7  8  1  0
  7 16  2  0
  8  9  1  0
  9 10  1  0
  9 33  1  6
  9 34  1  0
 10 11  2  0
 10 15  1  0
 11 12  1  0
 11 35  1  0
 12 13  2  0
 12 36  1  0
 13 14  1  0
 13 37  1  0
 14 15  2  0
 14 38  1  0
 15 39  1  0
 16 17  1  0
 16 40  1  0
 17 18  2  0
 17 41  1  0
 18 19  1  0
 18 42  1  0
 19 43  1  0
 20 21  1  0
 20 44  1  0
 21 22  1  0
 21 45  1  6
 21 46  1  0
 22 23  1  0
 22 47  1  1
 22 48  1  0
 23 24  1  0
 23 28  2  0
 24 25  2  0
 24 49  1  0
 25 26  1  0
 25 50  1  0
 26 27  2  0
 26 29  1  0
 27 28  1  0
 27 51  1  0
 28 52  1  0
 29 30  1  0
 29 53  1  6
 29 54  1  0
 30 31  1  0
 30 32  1  0
 31 55  1  1
 31 56  1  0
 31 57  1  0
 32 58  1  1
 32 59  1  0
 32 60  1  0
M  END
>  <s_epik_cmdline>  (463) 
J2VwaWtfcHl0aG9uJywgJy1waCcsICc3LjAwMDAwMCcsICctcGh0JywgJzIuMDAwMDAwJywgJy1tcycsICcxNicsICctdG4nLCAnOCcsICctbWEnLCAnMjAwJywgJy1pbWFlJywgJzxpbmZpbGUubWFlPicsICctb21hZScsICc8b3V0ZmlsZS5tYWU+Jw==

>  <s_epik_input>  (463) 
W0NIM11OKFtDSDNdKVtDSDJdYyhbY0hdW2NIXTEpW2NIXVtjSF1jMVtDSDJdW0NIMl1bTkhdQyg9TylbTkhdYyhuMiluKGMoYzIzKVtjSF1bY0hdW2NIXVtjSF0zKVtDSDJdYzRbY0hdW2NIXVtjSF1bY0hdW2NIXTQ=

>  <s_i_glide_gridfile>  (463) 
ATP-Grid

>  <s_lp_Force_Field>  (463) 
OPLS_2005

>  <s_lp_Variant>  (463) 
m_2430bbb____22529248____15775634-1

>  <s_lp_label>  (463) 
1477_sdstereoexpander_1_neutralizer_1_epik_1_stereoizer_1

>  <s_m_source_file>  (463) 
ATP-VSW-LIGPREP-002-in.maegz

>  <s_sd_BIOSOLVEIT.INFINISEE\_QUERY\_NAME>  (463) 
Ref-Lig

>  <s_sd_BIOSOLVEIT.INFINISEE\_QUERY\_SMILES>  (463) 
S(c1nc2c(cc1C[NH2+]Cc3ccc(cc3)C[NH+](C)C)cccc2)Cc4ccccc4

>  <s_sd_BIOSOLVEIT.INFINISEE\_REACTION\_NAME>  (463) 
m_2430bbb

>  <s_sd_BIOSOLVEIT.INFINISEE\_REAGENT1\_SMILES>  (463) 
[R1*]C(=O)NC1=Nc2c(N1Cc3ccccc3)cccc2

>  <s_sd_BIOSOLVEIT.INFINISEE\_REAGENT2\_SMILES>  (463) 
[R1*]NCCc1ccc(cc1)CN(C)C

>  <s_sd_BIOSOLVEIT.INFINISEE\_SPACE>  (463) 
REALSpace_44bn_2023-08

>  <s_vsw_compound_code>  (463) 
47234

>  <s_vsw_variant>  (463) 
47234-1

>  <r_epik_Charging_Adjusted_Penalty>  (463) 
1.5702341495676699

>  <r_epik_Ionization_Penalty>  (463) 
3.1556000000000002

>  <r_epik_Ionization_Penalty_Charging>  (463) 
1.5691999999999999

>  <r_epik_Ionization_Penalty_Neutral>  (463) 
1.5864

>  <r_epik_State_Penalty>  (463) 
0.001

>  <r_i_docking_score>  (463) 
-3.04995452842007

>  <r_i_glide_ecoul>  (463) 
-1.7032206058502199

>  <r_i_glide_eff_state_penalty>  (463) 
0.001

>  <r_i_glide_einternal>  (463) 
4.2725987434387198

>  <r_i_glide_emodel>  (463) 
-41.741040616538498

>  <r_i_glide_energy>  (463) 
-36.573642969131498

>  <r_i_glide_erotb>  (463) 
0.869003293372824

>  <r_i_glide_esite>  (463) 
0

>  <r_i_glide_evdw>  (463) 
-34.8704223632812

>  <r_i_glide_gscore>  (463) 
-3.0509545284200699

>  <r_i_glide_hbond>  (463) 
0

>  <r_i_glide_ligand_efficiency>  (463) 
-0.095311079013127201

>  <r_i_glide_ligand_efficiency_ln>  (463) 
-0.68296795753370598

>  <r_i_glide_ligand_efficiency_sa>  (463) 
-0.30259381382975498

>  <r_i_glide_lipo>  (463) 
-1.0235596372042299

>  <r_i_glide_metal>  (463) 
-0

>  <r_i_glide_rewards>  (463) 
-0.89739397554707101

>  <r_lp_Energy>  (463) 
41.280800999999997

>  <r_qp_ACxDN^.5/SA>  (463) 
0.0075604000000000001

>  <r_qp_CIQPlogS>  (463) 
-6.3280000000000003

>  <r_qp_EA(eV)>  (463) 
0.23200000000000001

>  <r_qp_FISA>  (463) 
72.716999999999999

>  <r_qp_FOSA>  (463) 
220.06

>  <r_qp_IP(eV)>  (463) 
8.3119999999999994

>  <r_qp_Jm>  (463) 
0.67379408380305195

>  <r_qp_PISA>  (463) 
302.43299999999999

>  <r_qp_PSA>  (463) 
65.894999999999996

>  <r_qp_PercentHumanOralAbsorption>  (463) 
100

>  <r_qp_QPPCaco>  (463) 
504.92500000000001

>  <r_qp_QPPMDCK>  (463) 
261.48899999999998

>  <r_qp_QPlogBB>  (463) 
-0.123

>  <r_qp_QPlogHERG>  (463) 
-4.593

>  <r_qp_QPlogKhsa>  (463) 
0.81599999999999995

>  <r_qp_QPlogKp>  (463) 
-2.9929999999999999

>  <r_qp_QPlogPC16>  (463) 
12.946999999999999

>  <r_qp_QPlogPo/w>  (463) 
4.6440000000000001

>  <r_qp_QPlogPoct>  (463) 
18.797000000000001

>  <r_qp_QPlogPw>  (463) 
7.6150000000000002

>  <r_qp_QPlogS>  (463) 
-2.8100000000000001

>  <r_qp_QPpolrz>  (463) 
41.142000000000003

>  <r_qp_SASA>  (463) 
595.21000000000004

>  <r_qp_SAamideO>  (463) 
0

>  <r_qp_SAfluorine>  (463) 
0

>  <r_qp_WPSA>  (463) 
0

>  <r_qp_accptHB>  (463) 
4.5

>  <r_qp_dip^2/V>  (463) 
0.089051900000000003

>  <r_qp_dipole>  (463) 
10.568

>  <r_qp_donorHB>  (463) 
1

>  <r_qp_glob>  (463) 
0.9448607

>  <r_qp_mol_MW>  (463) 
427.548

>  <r_qp_volume>  (463) 
1254.0329999999999

>  <r_sd_BIOSOLVEIT.INFINISEE\_FTREES\_SIMILARITY>  (463) 
0.90700000000000003

>  <r_sd_BIOSOLVEIT.LOGP>  (463) 
3.0933000000000002

>  <r_sd_BIOSOLVEIT.MOLECULAR\_WEIGHT>  (463) 
428.55700000000002

>  <r_sd_BIOSOLVEIT.TPSA>  (463) 
63.390000000000001

>  <i_epik_Tot_Q>  (463) 
0

>  <i_epik_Tot_abs_Q>  (463) 
0

>  <i_f3d_flags>  (463) 
0

>  <i_i_glide_confnum>  (463) 
14

>  <i_i_glide_lignum>  (463) 
507

>  <i_i_glide_posenum>  (463) 
10

>  <i_i_glide_rotatable_bonds>  (463) 
9

>  <i_lp_mmshare_version>  (463) 
65135

>  <i_m_ct_format>  (463) 
2

>  <i_m_source_file_index>  (463) 
1477

>  <i_qp_#NandO>  (463) 
6

>  <i_qp_#acid>  (463) 
0

>  <i_qp_#amide>  (463) 
0

>  <i_qp_#amidine>  (463) 
0

>  <i_qp_#amine>  (463) 
1

>  <i_qp_#in34>  (463) 
0

>  <i_qp_#in56>  (463) 
21

>  <i_qp_#metab>  (463) 
4

>  <i_qp_#nonHatm>  (463) 
32

>  <i_qp_#noncon>  (463) 
0

>  <i_qp_#ringatoms>  (463) 
21

>  <i_qp_#rotor>  (463) 
9

>  <i_qp_#rtvFG>  (463) 
0

>  <i_qp_#stars>  (463) 
0

>  <i_qp_CNS>  (463) 
1

>  <i_qp_HumanOralAbsorption>  (463) 
3

>  <i_qp_RuleOfFive>  (463) 
0

>  <i_qp_RuleOfThree>  (463) 
0

>  <i_sd_BIOSOLVEIT.INFINISEE\_REAGENT1\_NAME>  (463) 
22529248

>  <i_sd_BIOSOLVEIT.INFINISEE\_REAGENT2\_NAME>  (463) 
15775634

>  <i_sd_BIOSOLVEIT.INFINISEE\_RESULT\_RANK>  (463) 
57843

>  <i_sd_version>  (463) 
0

>  <b_lp_Chiralities_Consistent>  (463) 
1

>  <b_sd_chiral_flag>  (463) 
0

>  <canonical_id>  (463) 
ATP-HTVS-4920657FA6C2

>  <compound_code>  (463) 
47234

>  <title>  (463) 
m_2430bbb____22529248____15775634

>  <variant>  (463) 
47234-1

>  <source_file>  (463) 
运行/运行/ATP-VSW/ATP-VSW-DOCK_HTVS_1-002_lib.maegz

>  <canonical_smiles>  (463) 
CN(C)Cc1ccc(CCNC(=O)/N=c2\[nH]c3ccccc3n2Cc2ccccc2)cc1

>  <scaffold>  (463) 
O=C(N=c1[nH]c2ccccc2n1Cc1ccccc1)NCCc1ccccc1

>  <molecular_formula>  (463) 
C26H29N5O

$$$$
ATP-HTVS-494FFDA3E05A
     RDKit          3D

 54 57  0  0  0  0  0  0  0  0999 V2000
  197.2385  186.7041  156.7319 O   0  0  0  0  0  0  0  0  0  0  0  0
  197.5423  185.5460  156.4318 C   0  0  0  0  0  0  0  0  0  0  0  0
  198.2352  185.2203  155.3006 N   0  0  0  0  0  0  0  0  0  0  0  0
  198.6970  186.2159  154.3726 C   0  0  0  0  0  0  0  0  0  0  0  0
  199.3273  187.4048  154.8230 C   0  0  0  0  0  0  0  0  0  0  0  0
  199.7749  188.3742  153.9062 C   0  0  0  0  0  0  0  0  0  0  0  0
  199.6194  188.1638  152.5253 C   0  0  0  0  0  0  0  0  0  0  0  0
  199.0141  186.9826  152.0608 C   0  0  0  0  0  0  0  0  0  0  0  0
  198.5514  186.0174  152.9758 C   0  0  0  0  0  0  0  0  0  0  0  0
  198.5026  183.8756  154.9762 C   0  0  0  0  0  0  0  0  0  0  0  0
  198.1205  182.8270  155.7277 C   0  0  0  0  0  0  0  0  0  0  0  0
  197.3433  183.0630  156.9726 C   0  0  0  0  0  0  0  0  0  0  0  0
  197.0914  184.4142  157.3335 C   0  0  0  0  0  0  0  0  0  0  0  0
  196.3485  184.7020  158.5044 C   0  0  0  0  0  0  0  0  0  0  0  0
  195.8453  183.6661  159.3119 C   0  0  0  0  0  0  0  0  0  0  0  0
  196.0627  182.3303  158.9337 C   0  0  0  0  0  0  0  0  0  0  0  0
  196.7949  182.0328  157.7755 C   0  0  0  0  0  0  0  0  0  0  0  0
  198.5418  181.4911  155.3050 C   0  0  0  0  0  0  0  0  0  0  0  0
  198.4676  181.0914  154.1437 O   0  0  0  0  0  0  0  0  0  0  0  0
  199.0992  180.7871  156.3094 N   0  0  0  0  0  0  0  0  0  0  0  0
  199.6487  179.4777  156.2939 C   0  0  0  0  0  0  0  0  0  0  0  0
  200.5588  179.1456  157.3206 C   0  0  0  0  0  0  0  0  0  0  0  0
  201.1329  177.8625  157.3849 C   0  0  0  0  0  0  0  0  0  0  0  0
  200.7975  176.8931  156.4178 C   0  0  0  0  0  0  0  0  0  0  0  0
  199.8737  177.2123  155.4013 C   0  0  0  0  0  0  0  0  0  0  0  0
  199.3006  178.4950  155.3384 C   0  0  0  0  0  0  0  0  0  0  0  0
  201.4248  175.5119  156.4669 C   0  0  1  0  0  0  0  0  0  0  0  0
  202.7413  175.4557  155.7876 N   0  0  1  0  0  0  0  0  0  0  0  0
  203.4124  174.1526  155.9994 C   0  0  2  0  0  0  0  0  0  0  0  0
  202.6932  175.8206  154.3511 C   0  0  2  0  0  0  0  0  0  0  0  0
  199.4758  187.5866  155.8784 H   0  0  0  0  0  0  0  0  0  0  0  0
  200.2372  189.2794  154.2683 H   0  0  0  0  0  0  0  0  0  0  0  0
  199.9612  188.9094  151.8222 H   0  0  0  0  0  0  0  0  0  0  0  0
  198.8910  186.8199  151.0008 H   0  0  0  0  0  0  0  0  0  0  0  0
  198.0683  185.1292  152.5896 H   0  0  0  0  0  0  0  0  0  0  0  0
  199.0975  183.7371  154.0851 H   0  0  0  0  0  0  0  0  0  0  0  0
  196.1407  185.7268  158.7796 H   0  0  0  0  0  0  0  0  0  0  0  0
  195.2753  183.8958  160.2006 H   0  0  0  0  0  0  0  0  0  0  0  0
  195.6765  181.5199  159.5349 H   0  0  0  0  0  0  0  0  0  0  0  0
  196.9090  180.9911  157.5201 H   0  0  0  0  0  0  0  0  0  0  0  0
  199.1592  181.2708  157.1923 H   0  0  0  0  0  0  0  0  0  0  0  0
  200.8233  179.8761  158.0704 H   0  0  0  0  0  0  0  0  0  0  0  0
  201.8373  177.6354  158.1736 H   0  0  0  0  0  0  0  0  0  0  0  0
  199.6002  176.4781  154.6592 H   0  0  0  0  0  0  0  0  0  0  0  0
  198.5799  178.6951  154.5603 H   0  0  0  0  0  0  0  0  0  0  0  0
  201.5431  175.2313  157.5141 H   0  0  0  0  0  0  0  0  0  0  0  0
  200.7513  174.7820  156.0211 H   0  0  0  0  0  0  0  0  0  0  0  0
  202.8421  173.3372  155.5503 H   0  0  0  0  0  0  0  0  0  0  0  0
  203.5314  173.9343  157.0612 H   0  0  0  0  0  0  0  0  0  0  0  0
  204.4055  174.1482  155.5506 H   0  0  0  0  0  0  0  0  0  0  0  0
  202.0378  175.1443  153.7983 H   0  0  0  0  0  0  0  0  0  0  0  0
  203.6862  175.7724  153.9011 H   0  0  0  0  0  0  0  0  0  0  0  0
  202.3342  176.8400  154.2034 H   0  0  0  0  0  0  0  0  0  0  0  0
  203.2983  176.1676  156.2460 H   0  0  0  0  0  0  0  0  0  0  0  0
  1  2  2  0
  2  3  1  0
  2 13  1  0
  3  4  1  0
  3 10  1  0
  4  5  2  0
  4  9  1  0
  5  6  1  0
  5 31  1  0
  6  7  2  0
  6 32  1  0
  7  8  1  0
  7 33  1  0
  8  9  2  0
  8 34  1  0
  9 35  1  0
 10 11  2  0
 10 36  1  0
 11 12  1  0
 11 18  1  0
 12 13  1  0
 12 17  2  0
 13 14  2  0
 14 15  1  0
 14 37  1  0
 15 16  2  0
 15 38  1  0
 16 17  1  0
 16 39  1  0
 17 40  1  0
 18 19  2  0
 18 20  1  0
 20 21  1  0
 20 41  1  0
 21 22  1  0
 21 26  2  0
 22 23  2  0
 22 42  1  0
 23 24  1  0
 23 43  1  0
 24 25  2  0
 24 27  1  0
 25 26  1  0
 25 44  1  0
 26 45  1  0
 27 28  1  0
 27 46  1  1
 27 47  1  0
 28 29  1  0
 28 30  1  0
 28 54  1  1
 29 48  1  6
 29 49  1  0
 29 50  1  0
 30 51  1  6
 30 52  1  0
 30 53  1  0
M  CHG  1  28   1
M  END
>  <s_epik_cmdline>  (464) 
J2VwaWtfcHl0aG9uJywgJy1waCcsICc3LjAwMDAwMCcsICctcGh0JywgJzIuMDAwMDAwJywgJy1tcycsICcxNicsICctdG4nLCAnOCcsICctbWEnLCAnMjAwJywgJy1pbWFlJywgJzxpbmZpbGUubWFlPicsICctb21hZScsICc8b3V0ZmlsZS5tYWU+Jw==

>  <s_epik_input>  (464) 
W2NIXTFbY0hdW2NIXVtjSF1bY0hdYzEtbihjKD1PKWMoYzIzKVtjSF1bY0hdW2NIXVtjSF0zKVtjSF1jMkMoPU8pW05IXWM0W2NIXVtjSF1jKFtjSF1bY0hdNClbQ0gyXU4oW0NIM10pW0NIM10=

>  <s_i_glide_gridfile>  (464) 
ATP-Grid

>  <s_lp_Force_Field>  (464) 
OPLS_2005

>  <s_lp_Variant>  (464) 
rxn101____EMOL2873068____EMOL31508813-1

>  <s_lp_label>  (464) 
2495_sdstereoexpander_1_neutralizer_1_epik_1_stereoizer_1

>  <s_m_source_file>  (464) 
ATP-VSW-LIGPREP-002-in.maegz

>  <s_sd_BIOSOLVEIT.INFINISEE\_QUERY\_NAME>  (464) 
Ref-Lig

>  <s_sd_BIOSOLVEIT.INFINISEE\_QUERY\_SMILES>  (464) 
S(c1nc2c(cc1C[NH2+]Cc3ccc(cc3)C[NH+](C)C)cccc2)Cc4ccccc4

>  <s_sd_BIOSOLVEIT.INFINISEE\_REACTION\_NAME>  (464) 
rxn101

>  <s_sd_BIOSOLVEIT.INFINISEE\_REAGENT1\_NAME>  (464) 
EMOL2873068

>  <s_sd_BIOSOLVEIT.INFINISEE\_REAGENT1\_SMILES>  (464) 
N(Cc1ccc(N)cc1)(C)C

>  <s_sd_BIOSOLVEIT.INFINISEE\_REAGENT2\_NAME>  (464) 
EMOL31508813

>  <s_sd_BIOSOLVEIT.INFINISEE\_REAGENT2\_SMILES>  (464) 
O=C1N(c2ccccc2)C=C(c3c1cccc3)C(=O)O

>  <s_sd_BIOSOLVEIT.INFINISEE\_SPACE>  (464) 
eXplore_7tr_2022-12

>  <s_vsw_compound_code>  (464) 
79810

>  <s_vsw_variant>  (464) 
79810-1

>  <r_epik_Charging_Adjusted_Penalty>  (464) 
0.092285975541052306

>  <r_epik_Ionization_Penalty>  (464) 
0.046199999999999998

>  <r_epik_Ionization_Penalty_Charging>  (464) 
0.046100000000000002

>  <r_epik_Ionization_Penalty_Neutral>  (464) 
0

>  <r_epik_State_Penalty>  (464) 
0.046100000000000002

>  <r_i_docking_score>  (464) 
-3.7164150915890399

>  <r_i_glide_ecoul>  (464) 
-3.2243230342864999

>  <r_i_glide_eff_state_penalty>  (464) 
0.046100000000000002

>  <r_i_glide_einternal>  (464) 
0.79845511913299605

>  <r_i_glide_emodel>  (464) 
-50.286147601681698

>  <r_i_glide_energy>  (464) 
-38.810783147811897

>  <r_i_glide_erotb>  (464) 
0.61671964623376696

>  <r_i_glide_esite>  (464) 
-0.046927529946925998

>  <r_i_glide_evdw>  (464) 
-35.586460113525398

>  <r_i_glide_gscore>  (464) 
-3.76251509158904

>  <r_i_glide_hbond>  (464) 
0

>  <r_i_glide_ligand_efficiency>  (464) 
-0.12388050305296799

>  <r_i_glide_ligand_efficiency_ln>  (464) 
-0.84441000239473396

>  <r_i_glide_ligand_efficiency_sa>  (464) 
-0.38492552550369602

>  <r_i_glide_lipo>  (464) 
-1.3489368805476101

>  <r_i_glide_metal>  (464) 
-0

>  <r_i_glide_rewards>  (464) 
-0.72039886650902196

>  <r_lp_Energy>  (464) 
54.42745

>  <r_qp_ACxDN^.5/SA>  (464) 
0.010058299999999999

>  <r_qp_CIQPlogS>  (464) 
-4.5629999999999997

>  <r_qp_EA(eV)>  (464) 
0.76600000000000001

>  <r_qp_FISA>  (464) 
79.981999999999999

>  <r_qp_FOSA>  (464) 
180.12

>  <r_qp_IP(eV)>  (464) 
8.7420000000000009

>  <r_qp_Jm>  (464) 
0.0030493932948523501

>  <r_qp_PISA>  (464) 
485.548

>  <r_qp_PSA>  (464) 
65.896000000000001

>  <r_qp_PercentHumanOralAbsorption>  (464) 
96.652000000000001

>  <r_qp_QPPCaco>  (464) 
430.85300000000001

>  <r_qp_QPPMDCK>  (464) 
220.28399999999999

>  <r_qp_QPlogBB>  (464) 
-0.159

>  <r_qp_QPlogHERG>  (464) 
-8.1620000000000008

>  <r_qp_QPlogKhsa>  (464) 
0.50900000000000001

>  <r_qp_QPlogKp>  (464) 
-2.9620000000000002

>  <r_qp_QPlogPC16>  (464) 
14.766999999999999

>  <r_qp_QPlogPo/w>  (464) 
3.8519999999999999

>  <r_qp_QPlogPoct>  (464) 
21.832000000000001

>  <r_qp_QPlogPw>  (464) 
13.33

>  <r_qp_QPlogS>  (464) 
-5.1529999999999996

>  <r_qp_QPpolrz>  (464) 
48.518999999999998

>  <r_qp_SASA>  (464) 
745.64999999999998

>  <r_qp_SAamideO>  (464) 
0

>  <r_qp_SAfluorine>  (464) 
0

>  <r_qp_WPSA>  (464) 
0

>  <r_qp_accptHB>  (464) 
7.5

>  <r_qp_dip^2/V>  (464) 
0.012309799999999999

>  <r_qp_dipole>  (464) 
4.0229999999999997

>  <r_qp_donorHB>  (464) 
1

>  <r_qp_glob>  (464) 
0.77826790000000001

>  <r_qp_mol_MW>  (464) 
397.476

>  <r_qp_volume>  (464) 
1314.4649999999999

>  <r_sd_BIOSOLVEIT.INFINISEE\_FTREES\_SIMILARITY>  (464) 
0.91400000000000003

>  <r_sd_BIOSOLVEIT.LOGP>  (464) 
2.8875000000000002

>  <r_sd_BIOSOLVEIT.MOLECULAR\_WEIGHT>  (464) 
398.48399999999998

>  <r_sd_BIOSOLVEIT.TPSA>  (464) 
55.539999999999999

>  <i_epik_Tot_Q>  (464) 
1

>  <i_epik_Tot_abs_Q>  (464) 
1

>  <i_f3d_flags>  (464) 
0

>  <i_i_glide_confnum>  (464) 
5

>  <i_i_glide_lignum>  (464) 
1088

>  <i_i_glide_posenum>  (464) 
7

>  <i_i_glide_rotatable_bonds>  (464) 
6

>  <i_lp_mmshare_version>  (464) 
65135

>  <i_m_ct_format>  (464) 
2

>  <i_m_source_file_index>  (464) 
2495

>  <i_qp_#NandO>  (464) 
5

>  <i_qp_#acid>  (464) 
0

>  <i_qp_#amide>  (464) 
0

>  <i_qp_#amidine>  (464) 
0

>  <i_qp_#amine>  (464) 
1

>  <i_qp_#in34>  (464) 
0

>  <i_qp_#in56>  (464) 
22

>  <i_qp_#metab>  (464) 
2

>  <i_qp_#nonHatm>  (464) 
30

>  <i_qp_#noncon>  (464) 
0

>  <i_qp_#ringatoms>  (464) 
22

>  <i_qp_#rotor>  (464) 
4

>  <i_qp_#rtvFG>  (464) 
0

>  <i_qp_#stars>  (464) 
1

>  <i_qp_CNS>  (464) 
1

>  <i_qp_HumanOralAbsorption>  (464) 
3

>  <i_qp_RuleOfFive>  (464) 
0

>  <i_qp_RuleOfThree>  (464) 
0

>  <i_sd_BIOSOLVEIT.INFINISEE\_RESULT\_RANK>  (464) 
30081

>  <i_sd_version>  (464) 
0

>  <b_lp_Chiralities_Consistent>  (464) 
1

>  <b_sd_chiral_flag>  (464) 
0

>  <canonical_id>  (464) 
ATP-HTVS-494FFDA3E05A

>  <compound_code>  (464) 
79810

>  <title>  (464) 
rxn101____EMOL2873068____EMOL31508813

>  <variant>  (464) 
79810-1

>  <source_file>  (464) 
运行/运行/ATP-VSW/ATP-VSW-DOCK_HTVS_1-002_lib.maegz

>  <canonical_smiles>  (464) 
C[NH+](C)Cc1ccc(NC(=O)c2cn(-c3ccccc3)c(=O)c3ccccc23)cc1

>  <scaffold>  (464) 
O=C(Nc1ccccc1)c1cn(-c2ccccc2)c(=O)c2ccccc12

>  <molecular_formula>  (464) 
C25H24N3O2+

$$$$
ATP-HTVS-4991CDEEDD30
     RDKit          3D

 59 62  0  0  0  0  0  0  0  0999 V2000
  197.1833  183.6630  154.2653 O   0  0  0  0  0  0  0  0  0  0  0  0
  197.4921  183.9399  152.9506 C   0  0  0  0  0  0  0  0  0  0  0  0
  197.2743  182.7821  152.1660 C   0  0  0  0  0  0  0  0  0  0  0  0
  197.5670  182.8916  150.7818 C   0  0  0  0  0  0  0  0  0  0  0  0
  198.0441  184.1096  150.2394 C   0  0  0  0  0  0  0  0  0  0  0  0
  198.2406  185.2442  151.0603 C   0  0  0  0  0  0  0  0  0  0  0  0
  197.9577  185.1556  152.4375 C   0  0  0  0  0  0  0  0  0  0  0  0
  196.7989  181.7745  153.0703 C   0  0  0  0  0  0  0  0  0  0  0  0
  196.7543  182.3653  154.3165 C   0  0  0  0  0  0  0  0  0  0  0  0
  196.3502  181.8344  155.6640 C   0  0  1  0  0  0  0  0  0  0  0  0
  197.2191  180.7350  156.1356 N   0  0  1  0  0  0  0  0  0  0  0  0
  198.6653  181.0554  156.2665 C   0  0  1  0  0  0  0  0  0  0  0  0
  199.5437  179.9349  155.7413 C   0  0  0  0  0  0  0  0  0  0  0  0
  200.8512  180.2128  155.2894 C   0  0  0  0  0  0  0  0  0  0  0  0
  201.6835  179.1680  154.8389 C   0  0  0  0  0  0  0  0  0  0  0  0
  201.2008  177.8357  154.8209 C   0  0  0  0  0  0  0  0  0  0  0  0
  199.8831  177.5755  155.2234 C   0  0  0  0  0  0  0  0  0  0  0  0
  199.0700  178.6091  155.7166 C   0  0  0  0  0  0  0  0  0  0  0  0
  202.0907  176.6752  154.3931 C   0  0  1  0  0  0  0  0  0  0  0  0
  202.6929  175.9205  155.5309 N   0  0  1  0  0  0  0  0  0  0  0  0
  201.7358  175.4358  156.5541 C   0  0  2  0  0  0  0  0  0  0  0  0
  203.5446  174.8055  155.0521 C   0  0  2  0  0  0  0  0  0  0  0  0
  196.3246  182.8182  156.7530 C   0  0  0  0  0  0  0  0  0  0  0  0
  196.3365  183.6934  157.6198 C   0  0  0  0  0  0  0  0  0  0  0  0
  196.3359  184.7562  158.5900 C   0  0  0  0  0  0  0  0  0  0  0  0
  197.3184  185.7701  158.5482 C   0  0  0  0  0  0  0  0  0  0  0  0
  197.3075  186.7967  159.5130 C   0  0  0  0  0  0  0  0  0  0  0  0
  198.2669  187.7697  159.4875 O   0  0  0  0  0  0  0  0  0  0  0  0
  196.3099  186.8110  160.5089 C   0  0  0  0  0  0  0  0  0  0  0  0
  195.3194  185.8085  160.5364 C   0  0  0  0  0  0  0  0  0  0  0  0
  195.3355  184.7781  159.5782 C   0  0  0  0  0  0  0  0  0  0  0  0
  196.8416  180.3688  157.0022 H   0  0  0  0  0  0  0  0  0  0  0  0
  197.4316  182.0359  150.1357 H   0  0  0  0  0  0  0  0  0  0  0  0
  198.2691  184.1786  149.1799 H   0  0  0  0  0  0  0  0  0  0  0  0
  198.6089  186.1697  150.6457 H   0  0  0  0  0  0  0  0  0  0  0  0
  198.0907  186.0014  153.0938 H   0  0  0  0  0  0  0  0  0  0  0  0
  196.5333  180.7599  152.8082 H   0  0  0  0  0  0  0  0  0  0  0  0
  195.3450  181.4416  155.5852 H   0  0  0  0  0  0  0  0  0  0  0  0
  198.9426  181.9398  155.6921 H   0  0  0  0  0  0  0  0  0  0  0  0
  198.8999  181.2835  157.3101 H   0  0  0  0  0  0  0  0  0  0  0  0
  201.2313  181.2252  155.3131 H   0  0  0  0  0  0  0  0  0  0  0  0
  202.6998  179.3903  154.5403 H   0  0  0  0  0  0  0  0  0  0  0  0
  199.4796  176.5780  155.2359 H   0  0  0  0  0  0  0  0  0  0  0  0
  198.1025  178.3288  156.1112 H   0  0  0  0  0  0  0  0  0  0  0  0
  201.5035  175.9987  153.7611 H   0  0  0  0  0  0  0  0  0  0  0  0
  202.8881  177.0679  153.7568 H   0  0  0  0  0  0  0  0  0  0  0  0
  200.9991  174.7748  156.0959 H   0  0  0  0  0  0  0  0  0  0  0  0
  201.2283  176.2404  157.0814 H   0  0  0  0  0  0  0  0  0  0  0  0
  202.2659  174.8797  157.3323 H   0  0  0  0  0  0  0  0  0  0  0  0
  202.9627  174.0804  154.4780 H   0  0  0  0  0  0  0  0  0  0  0  0
  203.9827  174.2638  155.8902 H   0  0  0  0  0  0  0  0  0  0  0  0
  204.3586  175.1614  154.4174 H   0  0  0  0  0  0  0  0  0  0  0  0
  198.0845  185.7624  157.7842 H   0  0  0  0  0  0  0  0  0  0  0  0
  198.2548  188.3439  160.2410 H   0  0  0  0  0  0  0  0  0  0  0  0
  196.2944  187.5882  161.2596 H   0  0  0  0  0  0  0  0  0  0  0  0
  194.5511  185.8230  161.2956 H   0  0  0  0  0  0  0  0  0  0  0  0
  194.5815  184.0054  159.5901 H   0  0  0  0  0  0  0  0  0  0  0  0
  203.2909  176.5786  156.0170 H   0  0  0  0  0  0  0  0  0  0  0  0
  197.1237  179.9791  155.4714 H   0  0  0  0  0  0  0  0  0  0  0  0
  1  2  1  0
  1  9  1  0
  2  3  1  0
  2  7  2  0
  3  4  2  0
  3  8  1  0
  4  5  1  0
  4 33  1  0
  5  6  2  0
  5 34  1  0
  6  7  1  0
  6 35  1  0
  7 36  1  0
  8  9  2  0
  8 37  1  0
  9 10  1  0
 10 11  1  0
 10 23  1  0
 10 38  1  6
 11 12  1  0
 11 32  1  1
 11 59  1  0
 12 13  1  0
 12 39  1  6
 12 40  1  0
 13 14  1  0
 13 18  2  0
 14 15  2  0
 14 41  1  0
 15 16  1  0
 15 42  1  0
 16 17  2  0
 16 19  1  0
 17 18  1  0
 17 43  1  0
 18 44  1  0
 19 20  1  0
 19 45  1  6
 19 46  1  0
 20 21  1  0
 20 22  1  0
 20 58  1  1
 21 47  1  6
 21 48  1  0
 21 49  1  0
 22 50  1  6
 22 51  1  0
 22 52  1  0
 23 24  3  0
 24 25  1  0
 25 26  2  0
 25 31  1  0
 26 27  1  0
 26 53  1  0
 27 28  1  0
 27 29  2  0
 28 54  1  0
 29 30  1  0
 29 55  1  0
 30 31  2  0
 30 56  1  0
 31 57  1  0
M  CHG  2  11   1  20   1
M  END
>  <s_epik_cmdline>  (465) 
J2VwaWtfcHl0aG9uJywgJy1waCcsICc3LjAwMDAwMCcsICctcGh0JywgJzIuMDAwMDAwJywgJy1tcycsICcxNicsICctdG4nLCAnOCcsICctbWEnLCAnMjAwJywgJy1pbWFlJywgJzxpbmZpbGUubWFlPicsICctb21hZScsICc8b3V0ZmlsZS5tYWU+Jw==

>  <s_epik_input>  (465) 
W2NIXTFbY0hdW2NIXWMoW09IXSlbY0hdYzFDI0NbQ0BASF0oYyhvMilbY0hdYyhjMjMpW2NIXVtjSF1bY0hdW2NIXTMpW05IXVtDSDJdYzRbY0hdW2NIXWMoW2NIXVtjSF00KVtDSDJdTihbQ0gzXSlbQ0gzXQ==

>  <s_i_glide_gridfile>  (465) 
ATP-Grid

>  <s_lp_Force_Field>  (465) 
OPLS_2005

>  <s_lp_Variant>  (465) 
rxn403____EMOL50155899____EMOL514739____EMOL525215-4

>  <s_lp_label>  (465) 
2388_sdstereoexpander_2_neutralizer_1_epik_2_stereoizer_1

>  <s_m_source_file>  (465) 
ATP-VSW-LIGPREP-001-in.maegz

>  <s_sd_BIOSOLVEIT.INFINISEE\_QUERY\_NAME>  (465) 
Ref-Lig

>  <s_sd_BIOSOLVEIT.INFINISEE\_QUERY\_SMILES>  (465) 
S(c1nc2c(cc1C[NH2+]Cc3ccc(cc3)C[NH+](C)C)cccc2)Cc4ccccc4

>  <s_sd_BIOSOLVEIT.INFINISEE\_REACTION\_NAME>  (465) 
rxn403

>  <s_sd_BIOSOLVEIT.INFINISEE\_REAGENT1\_NAME>  (465) 
EMOL50155899

>  <s_sd_BIOSOLVEIT.INFINISEE\_REAGENT1\_SMILES>  (465) 
N(Cc1ccc(cc1)CN)(C)C

>  <s_sd_BIOSOLVEIT.INFINISEE\_REAGENT2\_NAME>  (465) 
EMOL514739

>  <s_sd_BIOSOLVEIT.INFINISEE\_REAGENT2\_SMILES>  (465) 
O=CC=1Oc2c(cccc2)C1

>  <s_sd_BIOSOLVEIT.INFINISEE\_REAGENT3\_NAME>  (465) 
EMOL525215

>  <s_sd_BIOSOLVEIT.INFINISEE\_REAGENT3\_SMILES>  (465) 
Oc1cc(C#C)ccc1

>  <s_sd_BIOSOLVEIT.INFINISEE\_SPACE>  (465) 
eXplore_7tr_2022-12

>  <s_vsw_compound_code>  (465) 
76385

>  <s_vsw_variant>  (465) 
76385-4

>  <r_epik_Charging_Adjusted_Penalty>  (465) 
1.75019663018703

>  <r_epik_Ionization_Penalty>  (465) 
0.87639999999999996

>  <r_epik_Ionization_Penalty_Charging>  (465) 
0.87460000000000004

>  <r_epik_Ionization_Penalty_Neutral>  (465) 
0.0016999999999999999

>  <r_epik_State_Penalty>  (465) 
0.87560000000000004

>  <r_i_docking_score>  (465) 
-4.9310958908126903

>  <r_i_glide_ecoul>  (465) 
-12.8935699462891

>  <r_i_glide_eff_state_penalty>  (465) 
0.87560000000000004

>  <r_i_glide_einternal>  (465) 
10.216556549072299

>  <r_i_glide_emodel>  (465) 
-66.577338032902702

>  <r_i_glide_energy>  (465) 
-45.451877593994098

>  <r_i_glide_erotb>  (465) 
0.69527243203223199

>  <r_i_glide_esite>  (465) 
-0.10000000000000001

>  <r_i_glide_evdw>  (465) 
-32.558307647705099

>  <r_i_glide_gscore>  (465) 
-5.8066958908126898

>  <r_i_glide_hbond>  (465) 
-0.183733153358248

>  <r_i_glide_ligand_efficiency>  (465) 
-0.15906760938105399

>  <r_i_glide_ligand_efficiency_ln>  (465) 
-1.1121132433184999

>  <r_i_glide_ligand_efficiency_sa>  (465) 
-0.49969190995981799

>  <r_i_glide_lipo>  (465) 
-1.60985306788533

>  <r_i_glide_metal>  (465) 
-0

>  <r_i_glide_rewards>  (465) 
-1.0464312272727301

>  <r_lp_Energy>  (465) 
15.983404

>  <r_qp_ACxDN^.5/SA>  (465) 
0.0084729000000000002

>  <r_qp_CIQPlogS>  (465) 
-4.7400000000000002

>  <r_qp_EA(eV)>  (465) 
0.28499999999999998

>  <r_qp_FISA>  (465) 
73.072000000000003

>  <r_qp_FOSA>  (465) 
229.65899999999999

>  <r_qp_IP(eV)>  (465) 
8.8290000000000006

>  <r_qp_Jm>  (465) 
0.000208357513803881

>  <r_qp_PISA>  (465) 
490.09199999999998

>  <r_qp_PSA>  (465) 
47.829999999999998

>  <r_qp_PercentHumanOralAbsorption>  (465) 
93.554000000000002

>  <r_qp_QPPCaco>  (465) 
124.95699999999999

>  <r_qp_QPPMDCK>  (465) 
63.945999999999998

>  <r_qp_QPlogBB>  (465) 
-0.01

>  <r_qp_QPlogHERG>  (465) 
-9.0950000000000006

>  <r_qp_QPlogKhsa>  (465) 
1.054

>  <r_qp_QPlogKp>  (465) 
-4.4009999999999998

>  <r_qp_QPlogPC16>  (465) 
15.945

>  <r_qp_QPlogPo/w>  (465) 
4.9669999999999996

>  <r_qp_QPlogPoct>  (465) 
21.696999999999999

>  <r_qp_QPlogPw>  (465) 
11.081

>  <r_qp_QPlogS>  (465) 
-4.8940000000000001

>  <r_qp_QPpolrz>  (465) 
49.149999999999999

>  <r_qp_SASA>  (465) 
792.82299999999998

>  <r_qp_SAamideO>  (465) 
0

>  <r_qp_SAfluorine>  (465) 
0

>  <r_qp_WPSA>  (465) 
0

>  <r_qp_accptHB>  (465) 
4.75

>  <r_qp_dip^2/V>  (465) 
0.0049639999999999997

>  <r_qp_dipole>  (465) 
2.645

>  <r_qp_donorHB>  (465) 
2

>  <r_qp_glob>  (465) 
0.76677459999999997

>  <r_qp_mol_MW>  (465) 
410.51499999999999

>  <r_qp_volume>  (465) 
1409.348

>  <r_sd_BIOSOLVEIT.INFINISEE\_FTREES\_SIMILARITY>  (465) 
0.91900000000000004

>  <r_sd_BIOSOLVEIT.LOGP>  (465) 
2.6393

>  <r_sd_BIOSOLVEIT.MOLECULAR\_WEIGHT>  (465) 
412.52999999999997

>  <r_sd_BIOSOLVEIT.TPSA>  (465) 
54.420000000000002

>  <i_epik_Tot_Q>  (465) 
2

>  <i_epik_Tot_abs_Q>  (465) 
2

>  <i_f3d_flags>  (465) 
0

>  <i_i_glide_confnum>  (465) 
2

>  <i_i_glide_lignum>  (465) 
886

>  <i_i_glide_posenum>  (465) 
8

>  <i_i_glide_rotatable_bonds>  (465) 
9

>  <i_lp_mmshare_version>  (465) 
65135

>  <i_m_ct_format>  (465) 
2

>  <i_m_source_file_index>  (465) 
2388

>  <i_qp_#NandO>  (465) 
4

>  <i_qp_#acid>  (465) 
0

>  <i_qp_#amide>  (465) 
0

>  <i_qp_#amidine>  (465) 
0

>  <i_qp_#amine>  (465) 
2

>  <i_qp_#in34>  (465) 
0

>  <i_qp_#in56>  (465) 
21

>  <i_qp_#metab>  (465) 
7

>  <i_qp_#nonHatm>  (465) 
31

>  <i_qp_#noncon>  (465) 
0

>  <i_qp_#ringatoms>  (465) 
21

>  <i_qp_#rotor>  (465) 
9

>  <i_qp_#rtvFG>  (465) 
0

>  <i_qp_#stars>  (465) 
1

>  <i_qp_CNS>  (465) 
1

>  <i_qp_HumanOralAbsorption>  (465) 
3

>  <i_qp_RuleOfFive>  (465) 
0

>  <i_qp_RuleOfThree>  (465) 
1

>  <i_sd_BIOSOLVEIT.INFINISEE\_RESULT\_RANK>  (465) 
19151

>  <i_sd_version>  (465) 
0

>  <b_lp_Chiralities_Consistent>  (465) 
1

>  <b_sd_chiral_flag>  (465) 
0

>  <canonical_id>  (465) 
ATP-HTVS-4991CDEEDD30

>  <compound_code>  (465) 
76385

>  <title>  (465) 
rxn403____EMOL50155899____EMOL514739____EMOL525215

>  <variant>  (465) 
76385-4

>  <source_file>  (465) 
运行/运行/ATP-VSW/ATP-VSW-DOCK_HTVS_1-001_lib/ATP-VSW-DOCK_HTVS_1-001_lib

>  <canonical_smiles>  (465) 
C[NH+](C)Cc1ccc(C[NH2+][C@@H](C#Cc2cccc(O)c2)c2cc3ccccc3o2)cc1

>  <scaffold>  (465) 
C(#CC([NH2+]Cc1ccccc1)c1cc2ccccc2o1)c1ccccc1

>  <molecular_formula>  (465) 
C27H28N2O2+2

$$$$
ATP-HTVS-49CF595ADD5C
     RDKit          3D

 51 54  0  0  0  0  0  0  0  0999 V2000
  201.9823  177.7534  151.7760 O   0  0  0  0  0  0  0  0  0  0  0  0
  201.2325  177.8096  152.7476 C   0  0  0  0  0  0  0  0  0  0  0  0
  200.0857  178.5071  152.9028 N   0  0  0  0  0  0  0  0  0  0  0  0
  199.4873  178.2583  154.1828 N   0  0  0  0  0  0  0  0  0  0  0  0
  200.3388  177.3542  154.8420 C   0  0  0  0  0  0  0  0  0  0  0  0
  201.3940  177.0507  154.0038 C   0  0  0  0  0  0  0  0  0  0  0  0
  202.4243  176.1688  154.3765 C   0  0  0  0  0  0  0  0  0  0  0  0
  202.3575  175.6042  155.6710 C   0  0  0  0  0  0  0  0  0  0  0  0
  201.2927  175.9334  156.5454 C   0  0  0  0  0  0  0  0  0  0  0  0
  200.2597  176.8128  156.1377 C   0  0  0  0  0  0  0  0  0  0  0  0
  198.7531  179.2630  154.8333 C   0  0  0  0  0  0  0  0  0  0  0  0
  197.4575  179.6012  154.3881 C   0  0  0  0  0  0  0  0  0  0  0  0
  196.7722  180.6978  154.9648 C   0  0  0  0  0  0  0  0  0  0  0  0
  197.3493  181.4012  156.0350 C   0  0  0  0  0  0  0  0  0  0  0  0
  198.6258  181.0370  156.5069 C   0  0  0  0  0  0  0  0  0  0  0  0
  199.3162  179.9610  155.9212 C   0  0  0  0  0  0  0  0  0  0  0  0
  196.5919  182.5500  156.6800 C   0  0  1  0  0  0  0  0  0  0  0  0
  195.7711  182.1033  157.8350 N   0  0  1  0  0  0  0  0  0  0  0  0
  196.5662  181.5104  158.9322 C   0  0  2  0  0  0  0  0  0  0  0  0
  194.9035  183.1876  158.3524 C   0  0  2  0  0  0  0  0  0  0  0  0
  199.4469  179.3404  151.8634 C   0  0  1  0  0  0  0  0  0  0  0  0
  198.8970  178.5763  150.6615 C   0  0  0  0  0  0  0  0  0  0  0  0
  198.4519  179.3190  149.5473 C   0  0  0  0  0  0  0  0  0  0  0  0
  197.9657  178.6676  148.3980 C   0  0  0  0  0  0  0  0  0  0  0  0
  197.9301  177.2607  148.3513 C   0  0  0  0  0  0  0  0  0  0  0  0
  198.3493  176.5066  149.4645 C   0  0  0  0  0  0  0  0  0  0  0  0
  198.8081  177.1629  150.6247 C   0  0  0  0  0  0  0  0  0  0  0  0
  203.2397  175.9427  153.7033 H   0  0  0  0  0  0  0  0  0  0  0  0
  203.1379  174.9380  156.0119 H   0  0  0  0  0  0  0  0  0  0  0  0
  201.2705  175.5174  157.5394 H   0  0  0  0  0  0  0  0  0  0  0  0
  199.4457  177.0639  156.8049 H   0  0  0  0  0  0  0  0  0  0  0  0
  196.9847  179.0519  153.5948 H   0  0  0  0  0  0  0  0  0  0  0  0
  195.8074  180.9856  154.5759 H   0  0  0  0  0  0  0  0  0  0  0  0
  199.0794  181.5652  157.3287 H   0  0  0  0  0  0  0  0  0  0  0  0
  200.2906  179.6958  156.3082 H   0  0  0  0  0  0  0  0  0  0  0  0
  197.2996  183.3194  156.9846 H   0  0  0  0  0  0  0  0  0  0  0  0
  195.9472  183.0012  155.9249 H   0  0  0  0  0  0  0  0  0  0  0  0
  197.2674  182.2382  159.3335 H   0  0  0  0  0  0  0  0  0  0  0  0
  197.1425  180.6369  158.6168 H   0  0  0  0  0  0  0  0  0  0  0  0
  195.9007  181.1785  159.7261 H   0  0  0  0  0  0  0  0  0  0  0  0
  195.5025  184.0200  158.7245 H   0  0  0  0  0  0  0  0  0  0  0  0
  194.2729  182.8274  159.1663 H   0  0  0  0  0  0  0  0  0  0  0  0
  194.2419  183.5829  157.5905 H   0  0  0  0  0  0  0  0  0  0  0  0
  198.6153  179.9524  152.2135 H   0  0  0  0  0  0  0  0  0  0  0  0
  200.1961  180.0585  151.5138 H   0  0  0  0  0  0  0  0  0  0  0  0
  198.4840  180.3990  149.5785 H   0  0  0  0  0  0  0  0  0  0  0  0
  197.6414  179.2485  147.5448 H   0  0  0  0  0  0  0  0  0  0  0  0
  197.5773  176.7588  147.4615 H   0  0  0  0  0  0  0  0  0  0  0  0
  198.3080  175.4257  149.4379 H   0  0  0  0  0  0  0  0  0  0  0  0
  199.0927  176.5474  151.4643 H   0  0  0  0  0  0  0  0  0  0  0  0
  195.1856  181.3479  157.4975 H   0  0  0  0  0  0  0  0  0  0  0  0
  1  2  2  0
  2  3  1  0
  2  6  1  0
  3  4  1  0
  3 21  1  0
  4  5  1  0
  4 11  1  0
  5  6  1  0
  5 10  2  0
  6  7  2  0
  7  8  1  0
  7 28  1  0
  8  9  2  0
  8 29  1  0
  9 10  1  0
  9 30  1  0
 10 31  1  0
 11 12  1  0
 11 16  2  0
 12 13  2  0
 12 32  1  0
 13 14  1  0
 13 33  1  0
 14 15  2  0
 14 17  1  0
 15 16  1  0
 15 34  1  0
 16 35  1  0
 17 18  1  0
 17 36  1  1
 17 37  1  0
 18 19  1  0
 18 20  1  0
 18 51  1  6
 19 38  1  1
 19 39  1  0
 19 40  1  0
 20 41  1  1
 20 42  1  0
 20 43  1  0
 21 22  1  0
 21 44  1  1
 21 45  1  0
 22 23  2  0
 22 27  1  0
 23 24  1  0
 23 46  1  0
 24 25  2  0
 24 47  1  0
 25 26  1  0
 25 48  1  0
 26 27  2  0
 26 49  1  0
 27 50  1  0
M  CHG  1  18   1
M  END
>  <s_epik_cmdline>  (466) 
J2VwaWtfcHl0aG9uJywgJy1waCcsICc3LjAwMDAwMCcsICctcGh0JywgJzIuMDAwMDAwJywgJy1tcycsICcxNicsICctdG4nLCAnOCcsICctbWEnLCAnMjAwJywgJy1pbWFlJywgJzxpbmZpbGUubWFlPicsICctb21hZScsICc8b3V0ZmlsZS5tYWU+Jw==

>  <s_epik_input>  (466) 
W2NIXTFbY0hdW2NIXVtjSF1bY0hdYzFbQ0gyXW4oYyg9TyljKGMyMylbY0hdW2NIXVtjSF1bY0hdMyluMi1jNFtjSF1bY0hdYyhbY0hdW2NIXTQpW0NIMl1OKFtDSDNdKVtDSDNd

>  <s_i_glide_gridfile>  (466) 
ATP-Grid

>  <s_lp_Force_Field>  (466) 
OPLS_2005

>  <s_lp_Variant>  (466) 
N-ArylationHeterocycle____821571____76754741-1

>  <s_lp_label>  (466) 
652_sdstereoexpander_1_neutralizer_1_epik_1_stereoizer_1

>  <s_m_source_file>  (466) 
ATP-VSW-LIGPREP-002-in.maegz

>  <s_sd_BIOSOLVEIT.INFINISEE\_QUERY\_NAME>  (466) 
Ref-Lig

>  <s_sd_BIOSOLVEIT.INFINISEE\_QUERY\_SMILES>  (466) 
S(c1nc2c(cc1C[NH2+]Cc3ccc(cc3)C[NH+](C)C)cccc2)Cc4ccccc4

>  <s_sd_BIOSOLVEIT.INFINISEE\_REACTION\_NAME>  (466) 
N-ArylationHeterocycle

>  <s_sd_BIOSOLVEIT.INFINISEE\_REAGENT1\_SMILES>  (466) 
OB(O)c1ccc(cc1)CN(C)C

>  <s_sd_BIOSOLVEIT.INFINISEE\_REAGENT2\_SMILES>  (466) 
O=C1N(Nc2c1cccc2)Cc3ccccc3

>  <s_sd_BIOSOLVEIT.INFINISEE\_SPACE>  (466) 
KnowledgeSpace_290tr_2019-05

>  <s_vsw_compound_code>  (466) 
20834

>  <s_vsw_variant>  (466) 
20834-1

>  <r_epik_Charging_Adjusted_Penalty>  (466) 
0.11443793256294101

>  <r_epik_Ionization_Penalty>  (466) 
0.057200000000000001

>  <r_epik_Ionization_Penalty_Charging>  (466) 
0.057200000000000001

>  <r_epik_Ionization_Penalty_Neutral>  (466) 
0

>  <r_epik_State_Penalty>  (466) 
0.057200000000000001

>  <r_i_docking_score>  (466) 
-4.0748802338123697

>  <r_i_glide_ecoul>  (466) 
-6.8391137123107901

>  <r_i_glide_eff_state_penalty>  (466) 
0.057200000000000001

>  <r_i_glide_einternal>  (466) 
0.28290390968322798

>  <r_i_glide_emodel>  (466) 
-48.3863676554856

>  <r_i_glide_energy>  (466) 
-34.496929645538302

>  <r_i_glide_erotb>  (466) 
0.596337630261489

>  <r_i_glide_esite>  (466) 
-0.110451708590662

>  <r_i_glide_evdw>  (466) 
-27.6578159332275

>  <r_i_glide_gscore>  (466) 
-4.1320802338123697

>  <r_i_glide_hbond>  (466) 
-0.0331583938599447

>  <r_i_glide_ligand_efficiency>  (466) 
-0.15092149014119899

>  <r_i_glide_ligand_efficiency_ln>  (466) 
-0.94856493878049097

>  <r_i_glide_ligand_efficiency_sa>  (466) 
-0.45276446992618502

>  <r_i_glide_lipo>  (466) 
-0.98590630425771997

>  <r_i_glide_metal>  (466) 
-0

>  <r_i_glide_rewards>  (466) 
-1.1901436038575399

>  <r_lp_Energy>  (466) 
42.733891999999997

>  <r_qp_ACxDN^.5/SA>  (466) 
0

>  <r_qp_CIQPlogS>  (466) 
-4.0919999999999996

>  <r_qp_EA(eV)>  (466) 
0.39200000000000002

>  <r_qp_FISA>  (466) 
46.006

>  <r_qp_FOSA>  (466) 
183.15199999999999

>  <r_qp_IP(eV)>  (466) 
8.4239999999999995

>  <r_qp_Jm>  (466) 
1.2173333993329201

>  <r_qp_PISA>  (466) 
380.77999999999997

>  <r_qp_PSA>  (466) 
39.503999999999998

>  <r_qp_PercentHumanOralAbsorption>  (466) 
100

>  <r_qp_QPPCaco>  (466) 
904.74400000000003

>  <r_qp_QPPMDCK>  (466) 
491.178

>  <r_qp_QPlogBB>  (466) 
0.317

>  <r_qp_QPlogHERG>  (466) 
-6.1630000000000003

>  <r_qp_QPlogKhsa>  (466) 
0.185

>  <r_qp_QPlogKp>  (466) 
-2.7050000000000001

>  <r_qp_QPlogPC16>  (466) 
11.973000000000001

>  <r_qp_QPlogPo/w>  (466) 
3.4830000000000001

>  <r_qp_QPlogPoct>  (466) 
17.268999999999998

>  <r_qp_QPlogPw>  (466) 
9.1180000000000003

>  <r_qp_QPlogS>  (466) 
-2.7629999999999999

>  <r_qp_QPpolrz>  (466) 
40.981999999999999

>  <r_qp_SASA>  (466) 
609.93899999999996

>  <r_qp_SAamideO>  (466) 
0

>  <r_qp_SAfluorine>  (466) 
0

>  <r_qp_WPSA>  (466) 
0

>  <r_qp_accptHB>  (466) 
6

>  <r_qp_dip^2/V>  (466) 
0.038358700000000003

>  <r_qp_dipole>  (466) 
6.6449999999999996

>  <r_qp_donorHB>  (466) 
0

>  <r_qp_glob>  (466) 
0.87088239999999995

>  <r_qp_mol_MW>  (466) 
357.45400000000001

>  <r_qp_volume>  (466) 
1151.1210000000001

>  <r_sd_BIOSOLVEIT.INFINISEE\_FTREES\_SIMILARITY>  (466) 
0.90500000000000003

>  <r_sd_BIOSOLVEIT.LOGP>  (466) 
2.4849999999999999

>  <r_sd_BIOSOLVEIT.MOLECULAR\_WEIGHT>  (466) 
358.46300000000002

>  <r_sd_BIOSOLVEIT.TPSA>  (466) 
31.370000000000001

>  <i_epik_Tot_Q>  (466) 
1

>  <i_epik_Tot_abs_Q>  (466) 
1

>  <i_f3d_flags>  (466) 
0

>  <i_i_glide_confnum>  (466) 
6

>  <i_i_glide_lignum>  (466) 
204

>  <i_i_glide_posenum>  (466) 
10

>  <i_i_glide_rotatable_bonds>  (466) 
5

>  <i_lp_mmshare_version>  (466) 
65135

>  <i_m_ct_format>  (466) 
2

>  <i_m_source_file_index>  (466) 
652

>  <i_qp_#NandO>  (466) 
4

>  <i_qp_#acid>  (466) 
0

>  <i_qp_#amide>  (466) 
0

>  <i_qp_#amidine>  (466) 
0

>  <i_qp_#amine>  (466) 
1

>  <i_qp_#in34>  (466) 
0

>  <i_qp_#in56>  (466) 
21

>  <i_qp_#metab>  (466) 
3

>  <i_qp_#nonHatm>  (466) 
27

>  <i_qp_#noncon>  (466) 
0

>  <i_qp_#ringatoms>  (466) 
21

>  <i_qp_#rotor>  (466) 
4

>  <i_qp_#rtvFG>  (466) 
1

>  <i_qp_#stars>  (466) 
0

>  <i_qp_CNS>  (466) 
1

>  <i_qp_HumanOralAbsorption>  (466) 
3

>  <i_qp_RuleOfFive>  (466) 
0

>  <i_qp_RuleOfThree>  (466) 
0

>  <i_sd_BIOSOLVEIT.INFINISEE\_REAGENT1\_NAME>  (466) 
821571

>  <i_sd_BIOSOLVEIT.INFINISEE\_REAGENT2\_NAME>  (466) 
76754741

>  <i_sd_BIOSOLVEIT.INFINISEE\_RESULT\_RANK>  (466) 
71197

>  <i_sd_version>  (466) 
0

>  <b_lp_Chiralities_Consistent>  (466) 
1

>  <b_sd_chiral_flag>  (466) 
0

>  <canonical_id>  (466) 
ATP-HTVS-49CF595ADD5C

>  <compound_code>  (466) 
20834

>  <title>  (466) 
N-ArylationHeterocycle____821571____76754741

>  <variant>  (466) 
20834-1

>  <source_file>  (466) 
运行/运行/ATP-VSW/ATP-VSW-DOCK_HTVS_1-002_lib.maegz

>  <canonical_smiles>  (466) 
C[NH+](C)Cc1ccc(-n2c3ccccc3c(=O)n2Cc2ccccc2)cc1

>  <scaffold>  (466) 
O=c1c2ccccc2n(-c2ccccc2)n1Cc1ccccc1

>  <molecular_formula>  (466) 
C23H24N3O+

$$$$
ATP-HTVS-49D68E9248AF
     RDKit          3D

 55 58  0  0  0  0  0  0  0  0999 V2000
  193.9603  183.4045  158.9847 O   0  0  0  0  0  0  0  0  0  0  0  0
  194.4782  182.3659  158.5844 C   0  0  0  0  0  0  0  0  0  0  0  0
  193.7173  181.3036  158.3239 N   0  0  0  0  0  0  0  0  0  0  0  0
  196.0050  182.2264  158.3753 C   0  0  1  0  0  0  0  0  0  0  0  0
  196.3429  181.4790  157.1472 N   0  0  1  0  0  0  0  0  0  0  0  0
  197.7293  181.6372  156.6278 C   0  0  1  0  0  0  0  0  0  0  0  0
  197.9106  180.8383  155.3686 C   0  0  0  0  0  0  0  0  0  0  0  0
  198.6604  179.6533  155.4137 C   0  0  0  0  0  0  0  0  0  0  0  0
  198.9098  178.9200  154.2400 C   0  0  0  0  0  0  0  0  0  0  0  0
  199.6799  177.7749  154.2324 O   0  0  0  0  0  0  0  0  0  0  0  0
  200.1538  177.2628  155.4742 C   0  0  1  0  0  0  0  0  0  0  0  0
  201.0805  176.0824  155.2628 C   0  0  0  0  0  0  0  0  0  0  0  0
  201.8864  175.6206  156.3224 C   0  0  0  0  0  0  0  0  0  0  0  0
  202.7556  174.5349  156.1253 C   0  0  0  0  0  0  0  0  0  0  0  0
  202.8207  173.9014  154.8696 C   0  0  0  0  0  0  0  0  0  0  0  0
  202.0177  174.3614  153.8089 C   0  0  0  0  0  0  0  0  0  0  0  0
  201.1479  175.4520  154.0031 C   0  0  0  0  0  0  0  0  0  0  0  0
  198.3561  179.3698  153.0112 C   0  0  0  0  0  0  0  0  0  0  0  0
  197.5748  180.5609  152.9750 C   0  0  0  0  0  0  0  0  0  0  0  0
  197.3603  181.2891  154.1551 C   0  0  0  0  0  0  0  0  0  0  0  0
  197.0245  181.0076  151.7480 C   0  0  0  0  0  0  0  0  0  0  0  0
  197.2249  180.2609  150.5744 C   0  0  0  0  0  0  0  0  0  0  0  0
  197.9832  179.0746  150.6088 C   0  0  0  0  0  0  0  0  0  0  0  0
  198.5494  178.6419  151.8275 C   0  0  0  0  0  0  0  0  0  0  0  0
  196.5928  183.6035  158.3952 C   0  0  0  0  0  0  0  0  0  0  0  0
  196.7280  184.3539  157.2060 C   0  0  0  0  0  0  0  0  0  0  0  0
  197.3024  185.6155  157.1669 C   0  0  0  0  0  0  0  0  0  0  0  0
  197.7082  186.2236  158.3660 C   0  0  0  0  0  0  0  0  0  0  0  0
  197.5443  185.5296  159.5815 C   0  0  0  0  0  0  0  0  0  0  0  0
  197.0099  184.2305  159.5887 C   0  0  0  0  0  0  0  0  0  0  0  0
  196.1651  180.4403  157.3276 H   0  0  0  0  0  0  0  0  0  0  0  0
  192.7157  181.4201  158.4093 H   0  0  0  0  0  0  0  0  0  0  0  0
  194.1221  180.4068  158.0479 H   0  0  0  0  0  0  0  0  0  0  0  0
  196.4073  181.6623  159.2119 H   0  0  0  0  0  0  0  0  0  0  0  0
  198.0059  182.6446  156.3287 H   0  0  0  0  0  0  0  0  0  0  0  0
  198.4513  181.2897  157.3857 H   0  0  0  0  0  0  0  0  0  0  0  0
  199.0668  179.3598  156.3680 H   0  0  0  0  0  0  0  0  0  0  0  0
  200.7185  178.0203  156.0218 H   0  0  0  0  0  0  0  0  0  0  0  0
  199.3145  176.9541  156.1035 H   0  0  0  0  0  0  0  0  0  0  0  0
  201.8349  176.1036  157.2896 H   0  0  0  0  0  0  0  0  0  0  0  0
  203.3670  174.1768  156.9440 H   0  0  0  0  0  0  0  0  0  0  0  0
  203.4763  173.0558  154.7161 H   0  0  0  0  0  0  0  0  0  0  0  0
  202.0643  173.8828  152.8425 H   0  0  0  0  0  0  0  0  0  0  0  0
  200.5444  175.7928  153.1772 H   0  0  0  0  0  0  0  0  0  0  0  0
  196.7988  182.2139  154.1207 H   0  0  0  0  0  0  0  0  0  0  0  0
  196.4377  181.9186  151.7084 H   0  0  0  0  0  0  0  0  0  0  0  0
  196.8001  180.5939  149.6340 H   0  0  0  0  0  0  0  0  0  0  0  0
  198.1437  178.4979  149.7146 H   0  0  0  0  0  0  0  0  0  0  0  0
  199.1305  177.7261  151.8448 H   0  0  0  0  0  0  0  0  0  0  0  0
  196.3438  183.9182  156.2786 H   0  0  0  0  0  0  0  0  0  0  0  0
  197.3882  186.1258  156.2156 H   0  0  0  0  0  0  0  0  0  0  0  0
  198.1549  187.2217  158.3360 H   0  0  0  0  0  0  0  0  0  0  0  0
  197.8569  186.0057  160.5149 H   0  0  0  0  0  0  0  0  0  0  0  0
  196.9152  183.7009  160.5352 H   0  0  0  0  0  0  0  0  0  0  0  0
  195.7019  181.7685  156.4413 H   0  0  0  0  0  0  0  0  0  0  0  0
  1  2  2  0
  2  3  1  0
  2  4  1  0
  3 32  1  0
  3 33  1  0
  4  5  1  0
  4 25  1  0
  4 34  1  1
  5  6  1  0
  5 31  1  1
  5 55  1  0
  6  7  1  0
  6 35  1  6
  6 36  1  0
  7  8  1  0
  7 20  2  0
  8  9  2  0
  8 37  1  0
  9 10  1  0
  9 18  1  0
 10 11  1  0
 11 12  1  0
 11 38  1  1
 11 39  1  0
 12 13  2  0
 12 17  1  0
 13 14  1  0
 13 40  1  0
 14 15  2  0
 14 41  1  0
 15 16  1  0
 15 42  1  0
 16 17  2  0
 16 43  1  0
 17 44  1  0
 18 19  1  0
 18 24  2  0
 19 20  1  0
 19 21  2  0
 20 45  1  0
 21 22  1  0
 21 46  1  0
 22 23  2  0
 22 47  1  0
 23 24  1  0
 23 48  1  0
 24 49  1  0
 25 26  2  0
 25 30  1  0
 26 27  1  0
 26 50  1  0
 27 28  2  0
 27 51  1  0
 28 29  1  0
 28 52  1  0
 29 30  2  0
 29 53  1  0
 30 54  1  0
M  CHG  1   5   1
M  END
>  <s_epik_cmdline>  (467) 
J2VwaWtfcHl0aG9uJywgJy1waCcsICc3LjAwMDAwMCcsICctcGh0JywgJzIuMDAwMDAwJywgJy1tcycsICcxNicsICctdG4nLCAnOCcsICctbWEnLCAnMjAwJywgJy1pbWFlJywgJzxpbmZpbGUubWFlPicsICctb21hZScsICc8b3V0ZmlsZS5tYWU+Jw==

>  <s_epik_input>  (467) 
W2NIXTFbY0hdW2NIXVtjSF1bY0hdYzFbQ0BASF0oQyg9TylbTkgyXSlbTkhdW0NIMl1jKFtjSF1jKGMyMylbY0hdW2NIXVtjSF1bY0hdMylbY0hdYzJPW0NIMl1jNFtjSF1bY0hdW2NIXVtjSF1bY0hdNA==

>  <s_i_glide_gridfile>  (467) 
ATP-Grid

>  <s_lp_Force_Field>  (467) 
OPLS_2005

>  <s_lp_Variant>  (467) 
m_270004beb____8289658____8127862-4

>  <s_lp_label>  (467) 
1399_sdstereoexpander_2_neutralizer_1_epik_2_stereoizer_1

>  <s_m_source_file>  (467) 
ATP-VSW-LIGPREP-003-in.maegz

>  <s_sd_BIOSOLVEIT.INFINISEE\_QUERY\_NAME>  (467) 
Ref-Lig

>  <s_sd_BIOSOLVEIT.INFINISEE\_QUERY\_SMILES>  (467) 
S(c1nc2c(cc1C[NH2+]Cc3ccc(cc3)C[NH+](C)C)cccc2)Cc4ccccc4

>  <s_sd_BIOSOLVEIT.INFINISEE\_REACTION\_NAME>  (467) 
m_270004beb

>  <s_sd_BIOSOLVEIT.INFINISEE\_REAGENT1\_SMILES>  (467) 
[R1*]NC(c1ccccc1)C(=O)N

>  <s_sd_BIOSOLVEIT.INFINISEE\_REAGENT2\_SMILES>  (467) 
[R1*]Cc1cc(OCc2ccccc2)c3c(c1)cccc3

>  <s_sd_BIOSOLVEIT.INFINISEE\_SPACE>  (467) 
REALSpace_44bn_2023-08

>  <s_vsw_compound_code>  (467) 
44739

>  <s_vsw_variant>  (467) 
44739-4

>  <r_epik_Charging_Adjusted_Penalty>  (467) 
1.86145831274405

>  <r_epik_Ionization_Penalty>  (467) 
0.93069999999999997

>  <r_epik_Ionization_Penalty_Charging>  (467) 
0.93069999999999997

>  <r_epik_Ionization_Penalty_Neutral>  (467) 
0

>  <r_epik_State_Penalty>  (467) 
0.93069999999999997

>  <r_i_docking_score>  (467) 
-5.7046514491807203

>  <r_i_glide_ecoul>  (467) 
-15.3816919326782

>  <r_i_glide_eff_state_penalty>  (467) 
0.93069999999999997

>  <r_i_glide_einternal>  (467) 
7.2495903968811

>  <r_i_glide_emodel>  (467) 
-82.036373296510007

>  <r_i_glide_energy>  (467) 
-53.4200792312622

>  <r_i_glide_erotb>  (467) 
0.74337668207228103

>  <r_i_glide_esite>  (467) 
-0.27940129357196403

>  <r_i_glide_evdw>  (467) 
-38.038387298583999

>  <r_i_glide_gscore>  (467) 
-6.6353514491807202

>  <r_i_glide_hbond>  (467) 
-0.342957250920644

>  <r_i_glide_ligand_efficiency>  (467) 
-0.190155048306024

>  <r_i_glide_ligand_efficiency_ln>  (467) 
-1.2961589664098001

>  <r_i_glide_ligand_efficiency_sa>  (467) 
-0.59085594659783203

>  <r_i_glide_lipo>  (467) 
-1.6232571137476499

>  <r_i_glide_metal>  (467) 
-0

>  <r_i_glide_rewards>  (467) 
-0.92393931818181696

>  <r_lp_Energy>  (467) 
22.393961000000001

>  <r_qp_ACxDN^.5/SA>  (467) 
0.0108682

>  <r_qp_CIQPlogS>  (467) 
-4.8099999999999996

>  <r_qp_EA(eV)>  (467) 
0.46100000000000002

>  <r_qp_FISA>  (467) 
92.302000000000007

>  <r_qp_FOSA>  (467) 
69.963999999999999

>  <r_qp_IP(eV)>  (467) 
8.1329999999999991

>  <r_qp_Jm>  (467) 
0.046905417916034697

>  <r_qp_PISA>  (467) 
594.73299999999995

>  <r_qp_PSA>  (467) 
67.215000000000003

>  <r_qp_PercentHumanOralAbsorption>  (467) 
92.331999999999994

>  <r_qp_QPPCaco>  (467) 
196.93199999999999

>  <r_qp_QPPMDCK>  (467) 
164.703

>  <r_qp_QPlogBB>  (467) 
-0.55000000000000004

>  <r_qp_QPlogHERG>  (467) 
-7.3920000000000003

>  <r_qp_QPlogKhsa>  (467) 
0.46700000000000003

>  <r_qp_QPlogKp>  (467) 
-2.4199999999999999

>  <r_qp_QPlogPC16>  (467) 
16.263000000000002

>  <r_qp_QPlogPo/w>  (467) 
4.1539999999999999

>  <r_qp_QPlogPoct>  (467) 
23.201000000000001

>  <r_qp_QPlogPw>  (467) 
15.597

>  <r_qp_QPlogS>  (467) 
-4.5069999999999997

>  <r_qp_QPpolrz>  (467) 
47.662999999999997

>  <r_qp_SASA>  (467) 
756.99900000000002

>  <r_qp_SAamideO>  (467) 
28.038

>  <r_qp_SAfluorine>  (467) 
0

>  <r_qp_WPSA>  (467) 
0

>  <r_qp_accptHB>  (467) 
4.75

>  <r_qp_dip^2/V>  (467) 
0.024077600000000001

>  <r_qp_dipole>  (467) 
5.6609999999999996

>  <r_qp_donorHB>  (467) 
3

>  <r_qp_glob>  (467) 
0.77309300000000003

>  <r_qp_mol_MW>  (467) 
396.488

>  <r_qp_volume>  (467) 
1331.1990000000001

>  <r_sd_BIOSOLVEIT.INFINISEE\_FTREES\_SIMILARITY>  (467) 
0.90800000000000003

>  <r_sd_BIOSOLVEIT.LOGP>  (467) 
3.7088000000000001

>  <r_sd_BIOSOLVEIT.MOLECULAR\_WEIGHT>  (467) 
397.49599999999998

>  <r_sd_BIOSOLVEIT.TPSA>  (467) 
68.930000000000007

>  <i_epik_Tot_Q>  (467) 
1

>  <i_epik_Tot_abs_Q>  (467) 
1

>  <i_f3d_flags>  (467) 
0

>  <i_i_glide_confnum>  (467) 
3

>  <i_i_glide_lignum>  (467) 
548

>  <i_i_glide_posenum>  (467) 
8

>  <i_i_glide_rotatable_bonds>  (467) 
8

>  <i_lp_mmshare_version>  (467) 
65135

>  <i_m_ct_format>  (467) 
2

>  <i_m_source_file_index>  (467) 
1399

>  <i_qp_#NandO>  (467) 
4

>  <i_qp_#acid>  (467) 
0

>  <i_qp_#amide>  (467) 
1

>  <i_qp_#amidine>  (467) 
0

>  <i_qp_#amine>  (467) 
1

>  <i_qp_#in34>  (467) 
0

>  <i_qp_#in56>  (467) 
22

>  <i_qp_#metab>  (467) 
7

>  <i_qp_#nonHatm>  (467) 
30

>  <i_qp_#noncon>  (467) 
0

>  <i_qp_#ringatoms>  (467) 
22

>  <i_qp_#rotor>  (467) 
8

>  <i_qp_#rtvFG>  (467) 
0

>  <i_qp_#stars>  (467) 
1

>  <i_qp_CNS>  (467) 
0

>  <i_qp_HumanOralAbsorption>  (467) 
3

>  <i_qp_RuleOfFive>  (467) 
0

>  <i_qp_RuleOfThree>  (467) 
1

>  <i_sd_BIOSOLVEIT.INFINISEE\_REAGENT1\_NAME>  (467) 
8289658

>  <i_sd_BIOSOLVEIT.INFINISEE\_REAGENT2\_NAME>  (467) 
8127862

>  <i_sd_BIOSOLVEIT.INFINISEE\_RESULT\_RANK>  (467) 
52567

>  <i_sd_version>  (467) 
0

>  <b_lp_Chiralities_Consistent>  (467) 
1

>  <b_sd_chiral_flag>  (467) 
0

>  <canonical_id>  (467) 
ATP-HTVS-49D68E9248AF

>  <compound_code>  (467) 
44739

>  <title>  (467) 
m_270004beb____8289658____8127862

>  <variant>  (467) 
44739-4

>  <source_file>  (467) 
运行/运行/ATP-VSW/ATP-VSW-DOCK_HTVS_1-003_lib/ATP-VSW-DOCK_HTVS_1-003_lib.mae

>  <canonical_smiles>  (467) 
NC(=O)[C@@H]([NH2+]Cc1cc(OCc2ccccc2)c2ccccc2c1)c1ccccc1

>  <scaffold>  (467) 
c1ccc(C[NH2+]Cc2cc(OCc3ccccc3)c3ccccc3c2)cc1

>  <molecular_formula>  (467) 
C26H25N2O2+

$$$$
ATP-HTVS-4A1EB194D3B6
     RDKit          3D

 52 55  0  0  0  0  0  0  0  0999 V2000
  199.8439  185.5345  159.3339 Br  0  0  0  0  0  0  0  0  0  0  0  0
  198.0596  184.9018  159.1689 C   0  0  0  0  0  0  0  0  0  0  0  0
  197.8108  183.7068  158.4735 C   0  0  0  0  0  0  0  0  0  0  0  0
  196.4977  183.2092  158.3393 C   0  0  0  0  0  0  0  0  0  0  0  0
  195.4216  183.9351  158.9180 C   0  0  0  0  0  0  0  0  0  0  0  0
  195.6814  185.1315  159.6221 C   0  0  0  0  0  0  0  0  0  0  0  0
  196.9957  185.6168  159.7436 C   0  0  0  0  0  0  0  0  0  0  0  0
  193.9882  183.4545  158.8173 C   0  0  2  0  0  0  0  0  0  0  0  0
  196.3119  181.9039  157.5721 C   0  0  1  0  0  0  0  0  0  0  0  0
  196.3501  182.1662  156.1218 N   0  0  1  0  0  0  0  0  0  0  0  0
  197.1101  181.2001  155.2992 C   0  0  1  0  0  0  0  0  0  0  0  0
  197.0552  181.5668  153.7896 C   0  0  2  0  0  0  0  0  0  0  0  0
  197.9359  180.6895  152.9749 N   0  0  0  0  0  0  0  0  0  0  0  0
  198.9684  181.3549  152.3991 C   0  0  0  0  0  0  0  0  0  0  0  0
  199.8828  180.9118  151.7068 O   0  0  0  0  0  0  0  0  0  0  0  0
  198.7719  182.7858  152.7267 C   0  0  0  0  0  0  0  0  0  0  0  0
  197.6497  182.9319  153.5177 C   0  0  0  0  0  0  0  0  0  0  0  0
  197.2210  184.2045  153.9378 C   0  0  0  0  0  0  0  0  0  0  0  0
  197.9887  185.3258  153.5639 C   0  0  0  0  0  0  0  0  0  0  0  0
  199.1421  185.1729  152.7564 C   0  0  0  0  0  0  0  0  0  0  0  0
  199.5462  183.8888  152.3183 C   0  0  0  0  0  0  0  0  0  0  0  0
  197.6284  179.2695  152.7820 C   0  0  1  0  0  0  0  0  0  0  0  0
  197.5926  178.8094  151.3276 C   0  0  0  0  0  0  0  0  0  0  0  0
  198.3790  177.7116  150.9152 C   0  0  0  0  0  0  0  0  0  0  0  0
  198.3547  177.2782  149.5751 C   0  0  0  0  0  0  0  0  0  0  0  0
  197.5448  177.9436  148.6367 C   0  0  0  0  0  0  0  0  0  0  0  0
  196.7540  179.0338  149.0425 C   0  0  0  0  0  0  0  0  0  0  0  0
  196.7773  179.4715  150.3840 C   0  0  0  0  0  0  0  0  0  0  0  0
  195.3859  182.2333  155.7883 H   0  0  0  0  0  0  0  0  0  0  0  0
  198.6438  183.1652  158.0495 H   0  0  0  0  0  0  0  0  0  0  0  0
  194.8738  185.6861  160.0766 H   0  0  0  0  0  0  0  0  0  0  0  0
  197.1888  186.5325  160.2847 H   0  0  0  0  0  0  0  0  0  0  0  0
  193.2971  184.1475  159.3020 H   0  0  0  0  0  0  0  0  0  0  0  0
  193.8941  182.4847  159.3033 H   0  0  0  0  0  0  0  0  0  0  0  0
  193.6873  183.3627  157.7749 H   0  0  0  0  0  0  0  0  0  0  0  0
  197.0940  181.2039  157.8717 H   0  0  0  0  0  0  0  0  0  0  0  0
  195.3608  181.4322  157.8080 H   0  0  0  0  0  0  0  0  0  0  0  0
  198.1484  181.1972  155.6349 H   0  0  0  0  0  0  0  0  0  0  0  0
  196.7081  180.2029  155.4888 H   0  0  0  0  0  0  0  0  0  0  0  0
  196.0378  181.5226  153.4043 H   0  0  0  0  0  0  0  0  0  0  0  0
  196.3367  184.3505  154.5333 H   0  0  0  0  0  0  0  0  0  0  0  0
  197.6850  186.3040  153.9014 H   0  0  0  0  0  0  0  0  0  0  0  0
  199.7151  186.0449  152.4724 H   0  0  0  0  0  0  0  0  0  0  0  0
  200.4157  183.7555  151.6898 H   0  0  0  0  0  0  0  0  0  0  0  0
  198.3668  178.6876  153.3345 H   0  0  0  0  0  0  0  0  0  0  0  0
  196.6625  179.0425  153.2319 H   0  0  0  0  0  0  0  0  0  0  0  0
  199.0105  177.1947  151.6213 H   0  0  0  0  0  0  0  0  0  0  0  0
  198.9569  176.4351  149.2662 H   0  0  0  0  0  0  0  0  0  0  0  0
  197.5223  177.6064  147.6083 H   0  0  0  0  0  0  0  0  0  0  0  0
  196.1196  179.5247  148.3189 H   0  0  0  0  0  0  0  0  0  0  0  0
  196.1744  180.3117  150.6903 H   0  0  0  0  0  0  0  0  0  0  0  0
  196.7872  183.0686  155.9883 H   0  0  0  0  0  0  0  0  0  0  0  0
  1  2  1  0
  2  3  2  0
  2  7  1  0
  3  4  1  0
  3 30  1  0
  4  5  2  0
  4  9  1  0
  5  6  1  0
  5  8  1  0
  6  7  2  0
  6 31  1  0
  7 32  1  0
  8 33  1  1
  8 34  1  0
  8 35  1  0
  9 10  1  0
  9 36  1  1
  9 37  1  0
 10 11  1  0
 10 29  1  6
 10 52  1  0
 11 12  1  0
 11 38  1  1
 11 39  1  0
 12 13  1  0
 12 17  1  0
 12 40  1  6
 13 14  1  0
 13 22  1  0
 14 15  2  0
 14 16  1  0
 16 17  1  0
 16 21  2  0
 17 18  2  0
 18 19  1  0
 18 41  1  0
 19 20  2  0
 19 42  1  0
 20 21  1  0
 20 43  1  0
 21 44  1  0
 22 23  1  0
 22 45  1  1
 22 46  1  0
 23 24  2  0
 23 28  1  0
 24 25  1  0
 24 47  1  0
 25 26  2  0
 25 48  1  0
 26 27  1  0
 26 49  1  0
 27 28  2  0
 27 50  1  0
 28 51  1  0
M  CHG  1  10   1
M  END
>  <s_epik_cmdline>  (468) 
J2VwaWtfcHl0aG9uJywgJy1waCcsICc3LjAwMDAwMCcsICctcGh0JywgJzIuMDAwMDAwJywgJy1tcycsICcxNicsICctdG4nLCAnOCcsICctbWEnLCAnMjAwJywgJy1pbWFlJywgJzxpbmZpbGUubWFlPicsICctb21hZScsICc8b3V0ZmlsZS5tYWU+Jw==

>  <s_epik_input>  (468) 
QnJjMVtjSF1jKGMoW0NIM10pW2NIXVtjSF0xKVtDSDJdW05IXVtDSDJdW0NAQEhdKGMoYzIzKVtjSF1bY0hdW2NIXVtjSF0zKU4oQzI9TylbQ0gyXWM0W2NIXVtjSF1bY0hdW2NIXVtjSF00

>  <s_i_glide_gridfile>  (468) 
ATP-Grid

>  <s_lp_Force_Field>  (468) 
OPLS_2005

>  <s_lp_Variant>  (468) 
a4____241569____63347-1

>  <s_lp_label>  (468) 
368_sdstereoexpander_1_neutralizer_1_epik_1_stereoizer_1

>  <s_m_source_file>  (468) 
ATP-VSW-LIGPREP-003-in.maegz

>  <s_sd_BIOSOLVEIT.INFINISEE\_QUERY\_NAME>  (468) 
Ref-Lig

>  <s_sd_BIOSOLVEIT.INFINISEE\_QUERY\_SMILES>  (468) 
S(c1nc2c(cc1C[NH2+]Cc3ccc(cc3)C[NH+](C)C)cccc2)Cc4ccccc4

>  <s_sd_BIOSOLVEIT.INFINISEE\_REACTION\_NAME>  (468) 
a4

>  <s_sd_BIOSOLVEIT.INFINISEE\_REAGENT1\_SMILES>  (468) 
[R1*]NCC1N(C(=O)c2c1cccc2)Cc3ccccc3

>  <s_sd_BIOSOLVEIT.INFINISEE\_REAGENT2\_SMILES>  (468) 
[R1*]Cc1c(ccc(Br)c1)C

>  <s_sd_BIOSOLVEIT.INFINISEE\_SPACE>  (468) 
FreedomSpace_5bn_2023-06

>  <s_vsw_compound_code>  (468) 
11747

>  <s_vsw_variant>  (468) 
11747-1

>  <r_epik_Charging_Adjusted_Penalty>  (468) 
0.130617929058545

>  <r_epik_Ionization_Penalty>  (468) 
0.065299999999999997

>  <r_epik_Ionization_Penalty_Charging>  (468) 
0.065299999999999997

>  <r_epik_Ionization_Penalty_Neutral>  (468) 
0

>  <r_epik_State_Penalty>  (468) 
0.065299999999999997

>  <r_i_docking_score>  (468) 
-4.8577963658563403

>  <r_i_glide_ecoul>  (468) 
-9.84802150726318

>  <r_i_glide_eff_state_penalty>  (468) 
0.065299999999999997

>  <r_i_glide_einternal>  (468) 
3.9052884578704798

>  <r_i_glide_emodel>  (468) 
-58.770982437344003

>  <r_i_glide_energy>  (468) 
-42.042448997497601

>  <r_i_glide_erotb>  (468) 
0.62807066704547299

>  <r_i_glide_esite>  (468) 
-0.087214364679563297

>  <r_i_glide_evdw>  (468) 
-32.194427490234403

>  <r_i_glide_gscore>  (468) 
-4.92309636585634

>  <r_i_glide_hbond>  (468) 
-0.20000000000000001

>  <r_i_glide_ligand_efficiency>  (468) 
-0.17349272735201199

>  <r_i_glide_ligand_efficiency_ln>  (468) 
-1.1213220323386499

>  <r_i_glide_ligand_efficiency_sa>  (468) 
-0.52682610199258695

>  <r_i_glide_lipo>  (468) 
-1.7343989857017901

>  <r_i_glide_metal>  (468) 
-0

>  <r_i_glide_rewards>  (468) 
-0.44262908191926698

>  <r_lp_Energy>  (468) 
45.975320000000004

>  <r_qp_ACxDN^.5/SA>  (468) 
0.0070818000000000001

>  <r_qp_CIQPlogS>  (468) 
-6.4249999999999998

>  <r_qp_EA(eV)>  (468) 
0.20399999999999999

>  <r_qp_FISA>  (468) 
39.177999999999997

>  <r_qp_FOSA>  (468) 
161.02500000000001

>  <r_qp_IP(eV)>  (468) 
9.266

>  <r_qp_Jm>  (468) 
0.095785666218823298

>  <r_qp_PISA>  (468) 
378.10899999999998

>  <r_qp_PSA>  (468) 
39.609000000000002

>  <r_qp_PercentHumanOralAbsorption>  (468) 
100

>  <r_qp_QPPCaco>  (468) 
1050.21

>  <r_qp_QPPMDCK>  (468) 
1186.126

>  <r_qp_QPlogBB>  (468) 
0.39100000000000001

>  <r_qp_QPlogHERG>  (468) 
-6.2590000000000003

>  <r_qp_QPlogKhsa>  (468) 
0.79400000000000004

>  <r_qp_QPlogKp>  (468) 
-2.3959999999999999

>  <r_qp_QPlogPC16>  (468) 
13.050000000000001

>  <r_qp_QPlogPo/w>  (468) 
4.8739999999999997

>  <r_qp_QPlogPoct>  (468) 
18.385000000000002

>  <r_qp_QPlogPw>  (468) 
8.6799999999999997

>  <r_qp_QPlogS>  (468) 
-4.2610000000000001

>  <r_qp_QPpolrz>  (468) 
42.027000000000001

>  <r_qp_SASA>  (468) 
635.43200000000002

>  <r_qp_SAamideO>  (468) 
0

>  <r_qp_SAfluorine>  (468) 
0

>  <r_qp_WPSA>  (468) 
57.119999999999997

>  <r_qp_accptHB>  (468) 
4.5

>  <r_qp_dip^2/V>  (468) 
0.033069599999999998

>  <r_qp_dipole>  (468) 
6.3259999999999996

>  <r_qp_donorHB>  (468) 
1

>  <r_qp_glob>  (468) 
0.86418779999999995

>  <r_qp_mol_MW>  (468) 
435.36200000000002

>  <r_qp_volume>  (468) 
1209.953

>  <r_sd_BIOSOLVEIT.INFINISEE\_FTREES\_SIMILARITY>  (468) 
0.91000000000000003

>  <r_sd_BIOSOLVEIT.LOGP>  (468) 
4.2182199999999996

>  <r_sd_BIOSOLVEIT.MOLECULAR\_WEIGHT>  (468) 
436.37099999999998

>  <r_sd_BIOSOLVEIT.TPSA>  (468) 
36.920000000000002

>  <i_epik_Tot_Q>  (468) 
1

>  <i_epik_Tot_abs_Q>  (468) 
1

>  <i_f3d_flags>  (468) 
0

>  <i_i_glide_confnum>  (468) 
2

>  <i_i_glide_lignum>  (468) 
223

>  <i_i_glide_posenum>  (468) 
20

>  <i_i_glide_rotatable_bonds>  (468) 
6

>  <i_lp_mmshare_version>  (468) 
65135

>  <i_m_ct_format>  (468) 
2

>  <i_m_source_file_index>  (468) 
368

>  <i_qp_#NandO>  (468) 
3

>  <i_qp_#acid>  (468) 
0

>  <i_qp_#amide>  (468) 
0

>  <i_qp_#amidine>  (468) 
0

>  <i_qp_#amine>  (468) 
1

>  <i_qp_#in34>  (468) 
0

>  <i_qp_#in56>  (468) 
21

>  <i_qp_#metab>  (468) 
5

>  <i_qp_#nonHatm>  (468) 
28

>  <i_qp_#noncon>  (468) 
1

>  <i_qp_#ringatoms>  (468) 
21

>  <i_qp_#rotor>  (468) 
6

>  <i_qp_#rtvFG>  (468) 
0

>  <i_qp_#stars>  (468) 
0

>  <i_qp_CNS>  (468) 
1

>  <i_qp_HumanOralAbsorption>  (468) 
3

>  <i_qp_RuleOfFive>  (468) 
0

>  <i_qp_RuleOfThree>  (468) 
0

>  <i_sd_BIOSOLVEIT.INFINISEE\_REAGENT1\_NAME>  (468) 
241569

>  <i_sd_BIOSOLVEIT.INFINISEE\_REAGENT2\_NAME>  (468) 
63347

>  <i_sd_BIOSOLVEIT.INFINISEE\_RESULT\_RANK>  (468) 
45621

>  <i_sd_version>  (468) 
0

>  <b_lp_Chiralities_Consistent>  (468) 
1

>  <b_sd_chiral_flag>  (468) 
0

>  <canonical_id>  (468) 
ATP-HTVS-4A1EB194D3B6

>  <compound_code>  (468) 
11747

>  <title>  (468) 
a4____241569____63347

>  <variant>  (468) 
11747-1

>  <source_file>  (468) 
运行/运行/ATP-VSW/ATP-VSW-DOCK_HTVS_1-003_lib/ATP-VSW-DOCK_HTVS_1-003_lib.mae

>  <canonical_smiles>  (468) 
Cc1ccc(Br)cc1C[NH2+]C[C@H]1c2ccccc2C(=O)N1Cc1ccccc1

>  <scaffold>  (468) 
O=C1c2ccccc2C(C[NH2+]Cc2ccccc2)N1Cc1ccccc1

>  <molecular_formula>  (468) 
C24H24BrN2O+

$$$$
ATP-HTVS-4A28AAEEA14A
     RDKit          3D

 59 62  0  0  0  0  0  0  0  0999 V2000
  197.9098  188.0724  156.5291 Cl  0  0  0  0  0  0  0  0  0  0  0  0
  197.3652  186.7390  157.4863 C   0  0  0  0  0  0  0  0  0  0  0  0
  197.3334  185.4007  156.9916 C   0  0  0  0  0  0  0  0  0  0  0  0
  196.8446  184.3878  157.8672 C   0  0  0  0  0  0  0  0  0  0  0  0
  196.4279  184.6837  159.1765 C   0  0  0  0  0  0  0  0  0  0  0  0
  196.0179  183.6897  159.9964 F   0  0  0  0  0  0  0  0  0  0  0  0
  196.4444  186.0020  159.6428 C   0  0  0  0  0  0  0  0  0  0  0  0
  196.9022  187.0306  158.7946 C   0  0  0  0  0  0  0  0  0  0  0  0
  197.8324  185.0321  155.6099 C   0  0  0  0  0  0  0  0  0  0  0  0
  198.7782  185.6191  155.0854 O   0  0  0  0  0  0  0  0  0  0  0  0
  197.1441  184.0430  155.0091 N   0  0  0  0  0  0  0  0  0  0  0  0
  197.3553  183.4259  153.7409 C   0  0  0  0  0  0  0  0  0  0  0  0
  196.9263  182.0828  153.5112 C   0  0  0  0  0  0  0  0  0  0  0  0
  196.3743  181.3313  154.5633 N   0  0  0  0  0  0  0  0  0  0  0  0
  197.0889  180.1376  155.0167 C   0  0  1  0  0  0  0  0  0  0  0  0
  198.4608  180.3888  155.6134 C   0  0  0  0  0  0  0  0  0  0  0  0
  199.4844  179.4476  155.4306 C   0  0  0  0  0  0  0  0  0  0  0  0
  200.7411  179.6474  156.0476 C   0  0  0  0  0  0  0  0  0  0  0  0
  200.9818  180.8042  156.8294 C   0  0  0  0  0  0  0  0  0  0  0  0
  199.9653  181.7594  156.9724 C   0  0  0  0  0  0  0  0  0  0  0  0
  198.7110  181.5333  156.3883 C   0  0  0  0  0  0  0  0  0  0  0  0
  201.8151  178.5879  155.9421 C   0  0  1  0  0  0  0  0  0  0  0  0
  201.5309  177.3665  156.7515 N   0  0  1  0  0  0  0  0  0  0  0  0
  200.9148  177.6206  158.0827 C   0  0  2  0  0  0  0  0  0  0  0  0
  200.8038  176.3277  155.9881 C   0  0  2  0  0  0  0  0  0  0  0  0
  197.0754  181.5274  152.2048 C   0  0  0  0  0  0  0  0  0  0  0  0
  197.7104  182.2957  151.1969 C   0  0  0  0  0  0  0  0  0  0  0  0
  198.1128  183.5568  151.4695 N   0  0  0  0  0  0  0  0  0  0  0  0
  197.9424  184.1415  152.6727 C   0  0  0  0  0  0  0  0  0  0  0  0
  197.9176  181.7729  149.9010 C   0  0  0  0  0  0  0  0  0  0  0  0
  197.4913  180.4654  149.5990 C   0  0  0  0  0  0  0  0  0  0  0  0
  196.8249  179.7032  150.5732 C   0  0  0  0  0  0  0  0  0  0  0  0
  196.5932  180.2343  151.8562 C   0  0  0  0  0  0  0  0  0  0  0  0
  196.7398  183.3552  157.5870 H   0  0  0  0  0  0  0  0  0  0  0  0
  196.1098  186.2263  160.6435 H   0  0  0  0  0  0  0  0  0  0  0  0
  196.9023  188.0543  159.1441 H   0  0  0  0  0  0  0  0  0  0  0  0
  196.4147  183.6360  155.5811 H   0  0  0  0  0  0  0  0  0  0  0  0
  195.9576  181.8603  155.3187 H   0  0  0  0  0  0  0  0  0  0  0  0
  196.4439  179.6365  155.7311 H   0  0  0  0  0  0  0  0  0  0  0  0
  197.2250  179.4104  154.2243 H   0  0  0  0  0  0  0  0  0  0  0  0
  199.2828  178.5654  154.8384 H   0  0  0  0  0  0  0  0  0  0  0  0
  201.9308  180.9516  157.3263 H   0  0  0  0  0  0  0  0  0  0  0  0
  200.1208  182.6360  157.5801 H   0  0  0  0  0  0  0  0  0  0  0  0
  197.9200  182.2314  156.5333 H   0  0  0  0  0  0  0  0  0  0  0  0
  201.9705  178.3456  154.8849 H   0  0  0  0  0  0  0  0  0  0  0  0
  202.7515  179.0351  156.2889 H   0  0  0  0  0  0  0  0  0  0  0  0
  199.9267  178.0799  158.0043 H   0  0  0  0  0  0  0  0  0  0  0  0
  201.5467  178.2849  158.6737 H   0  0  0  0  0  0  0  0  0  0  0  0
  200.7673  176.6983  158.6452 H   0  0  0  0  0  0  0  0  0  0  0  0
  199.7850  176.6344  155.7479 H   0  0  0  0  0  0  0  0  0  0  0  0
  200.7527  175.4174  156.5773 H   0  0  0  0  0  0  0  0  0  0  0  0
  201.3231  176.0857  155.0593 H   0  0  0  0  0  0  0  0  0  0  0  0
  198.2839  185.1696  152.7285 H   0  0  0  0  0  0  0  0  0  0  0  0
  198.4000  182.3591  149.1340 H   0  0  0  0  0  0  0  0  0  0  0  0
  197.6549  180.0560  148.6109 H   0  0  0  0  0  0  0  0  0  0  0  0
  196.4886  178.7059  150.3317 H   0  0  0  0  0  0  0  0  0  0  0  0
  196.0308  179.6364  152.5551 H   0  0  0  0  0  0  0  0  0  0  0  0
  202.4582  177.0041  156.9360 H   0  0  0  0  0  0  0  0  0  0  0  0
  198.5549  184.0989  150.7246 H   0  0  0  0  0  0  0  0  0  0  0  0
  1  2  1  0
  2  3  2  0
  2  8  1  0
  3  4  1  0
  3  9  1  0
  4  5  2  0
  4 34  1  0
  5  6  1  0
  5  7  1  0
  7  8  2  0
  7 35  1  0
  8 36  1  0
  9 10  2  0
  9 11  1  0
 11 12  1  0
 11 37  1  0
 12 13  2  0
 12 29  1  0
 13 14  1  0
 13 26  1  0
 14 15  1  0
 14 38  1  0
 15 16  1  0
 15 39  1  1
 15 40  1  0
 16 17  2  0
 16 21  1  0
 17 18  1  0
 17 41  1  0
 18 19  2  0
 18 22  1  0
 19 20  1  0
 19 42  1  0
 20 21  2  0
 20 43  1  0
 21 44  1  0
 22 23  1  0
 22 45  1  6
 22 46  1  0
 23 24  1  0
 23 25  1  0
 23 58  1  1
 24 47  1  6
 24 48  1  0
 24 49  1  0
 25 50  1  6
 25 51  1  0
 25 52  1  0
 26 27  1  0
 26 33  2  0
 27 28  1  0
 27 30  2  0
 28 29  2  0
 28 59  1  0
 29 53  1  0
 30 31  1  0
 30 54  1  0
 31 32  2  0
 31 55  1  0
 32 33  1  0
 32 56  1  0
 33 57  1  0
M  CHG  2  23   1  28   1
M  END
>  <s_epik_cmdline>  (469) 
J2VwaWtfcHl0aG9uJywgJy1waCcsICc3LjAwMDAwMCcsICctcGh0JywgJzIuMDAwMDAwJywgJy1tcycsICcxNicsICctdG4nLCAnOCcsICctbWEnLCAnMjAwJywgJy1pbWFlJywgJzxpbmZpbGUubWFlPicsICctb21hZScsICc8b3V0ZmlsZS5tYWU+Jw==

>  <s_epik_input>  (469) 
W2NIXTFbY0hdYyhGKVtjSF1jKGMxQ2wpQyg9TylbTkhdYyhbY0hdbmMoYzIzKVtjSF1bY0hdW2NIXVtjSF0zKWMyW05IXVtDSDJdYzRbY0hdYyhbY0hdW2NIXVtjSF00KVtDSDJdTihbQ0gzXSlbQ0gzXQ==

>  <s_i_glide_gridfile>  (469) 
ATP-Grid

>  <s_lp_Force_Field>  (469) 
OPLS_2005

>  <s_lp_Variant>  (469) 
rxn502b____EMOL906848____EMOL30488121____EMOL2873214-1

>  <s_lp_label>  (469) 
2242_sdstereoexpander_1_neutralizer_1_epik_1_stereoizer_1

>  <s_m_source_file>  (469) 
ATP-VSW-LIGPREP-002-in.maegz

>  <s_sd_BIOSOLVEIT.INFINISEE\_QUERY\_NAME>  (469) 
Ref-Lig

>  <s_sd_BIOSOLVEIT.INFINISEE\_QUERY\_SMILES>  (469) 
S(c1nc2c(cc1C[NH2+]Cc3ccc(cc3)C[NH+](C)C)cccc2)Cc4ccccc4

>  <s_sd_BIOSOLVEIT.INFINISEE\_REACTION\_NAME>  (469) 
rxn502b

>  <s_sd_BIOSOLVEIT.INFINISEE\_REAGENT1\_NAME>  (469) 
EMOL906848

>  <s_sd_BIOSOLVEIT.INFINISEE\_REAGENT1\_SMILES>  (469) 
Clc1c(cc(F)cc1)C(=O)O

>  <s_sd_BIOSOLVEIT.INFINISEE\_REAGENT2\_NAME>  (469) 
EMOL30488121

>  <s_sd_BIOSOLVEIT.INFINISEE\_REAGENT2\_SMILES>  (469) 
Brc1c(N)cnc2c1cccc2

>  <s_sd_BIOSOLVEIT.INFINISEE\_REAGENT3\_NAME>  (469) 
EMOL2873214

>  <s_sd_BIOSOLVEIT.INFINISEE\_REAGENT3\_SMILES>  (469) 
N(Cc1cc(ccc1)CN)(C)C

>  <s_sd_BIOSOLVEIT.INFINISEE\_SPACE>  (469) 
eXplore_7tr_2022-12

>  <s_vsw_compound_code>  (469) 
71714

>  <s_vsw_variant>  (469) 
71714-1

>  <r_epik_Charging_Adjusted_Penalty>  (469) 
0.24490422870036299

>  <r_epik_Ionization_Penalty>  (469) 
0.12590000000000001

>  <r_epik_Ionization_Penalty_Charging>  (469) 
0.12520000000000001

>  <r_epik_Ionization_Penalty_Neutral>  (469) 
0.00080000000000000004

>  <r_epik_State_Penalty>  (469) 
0.1197

>  <r_i_docking_score>  (469) 
-5.0854547511590802

>  <r_i_glide_ecoul>  (469) 
-10.6879539489746

>  <r_i_glide_eff_state_penalty>  (469) 
0.1197

>  <r_i_glide_einternal>  (469) 
4.6755266189575204

>  <r_i_glide_emodel>  (469) 
-65.264332929259098

>  <r_i_glide_energy>  (469) 
-46.691062927246101

>  <r_i_glide_erotb>  (469) 
0.65287121805677995

>  <r_i_glide_esite>  (469) 
-0.0547832102128483

>  <r_i_glide_evdw>  (469) 
-36.003108978271499

>  <r_i_glide_gscore>  (469) 
-5.2051547511590801

>  <r_i_glide_hbond>  (469) 
0

>  <r_i_glide_ligand_efficiency>  (469) 
-0.154104689429063

>  <r_i_glide_ligand_efficiency_ln>  (469) 
-1.13097880558229

>  <r_i_glide_ligand_efficiency_sa>  (469) 
-0.49429608118096102

>  <r_i_glide_lipo>  (469) 
-1.57776212861313

>  <r_i_glide_metal>  (469) 
-0

>  <r_i_glide_rewards>  (469) 
-0.82213208913011204

>  <r_lp_Energy>  (469) 
39.408076999999999

>  <r_qp_ACxDN^.5/SA>  (469) 
0.0130204

>  <r_qp_CIQPlogS>  (469) 
-6.2350000000000003

>  <r_qp_EA(eV)>  (469) 
1.046

>  <r_qp_FISA>  (469) 
62.063000000000002

>  <r_qp_FOSA>  (469) 
174.548

>  <r_qp_IP(eV)>  (469) 
8.4719999999999995

>  <r_qp_Jm>  (469) 
0.0172598439961032

>  <r_qp_PISA>  (469) 
381.01799999999997

>  <r_qp_PSA>  (469) 
59.067999999999998

>  <r_qp_PercentHumanOralAbsorption>  (469) 
100

>  <r_qp_QPPCaco>  (469) 
637.173

>  <r_qp_QPPMDCK>  (469) 
1025.021

>  <r_qp_QPlogBB>  (469) 
0.16600000000000001

>  <r_qp_QPlogHERG>  (469) 
-6.7220000000000004

>  <r_qp_QPlogKhsa>  (469) 
0.69399999999999995

>  <r_qp_QPlogKp>  (469) 
-2.7120000000000002

>  <r_qp_QPlogPC16>  (469) 
14.452

>  <r_qp_QPlogPo/w>  (469) 
4.7370000000000001

>  <r_qp_QPlogPoct>  (469) 
22.821000000000002

>  <r_qp_QPlogPw>  (469) 
12.250999999999999

>  <r_qp_QPlogS>  (469) 
-4.7169999999999996

>  <r_qp_QPpolrz>  (469) 
46.990000000000002

>  <r_qp_SASA>  (469) 
705.99699999999996

>  <r_qp_SAamideO>  (469) 
0

>  <r_qp_SAfluorine>  (469) 
34.177999999999997

>  <r_qp_WPSA>  (469) 
88.367999999999995

>  <r_qp_accptHB>  (469) 
6.5

>  <r_qp_dip^2/V>  (469) 
0.031177300000000002

>  <r_qp_dipole>  (469) 
6.4859999999999998

>  <r_qp_donorHB>  (469) 
2

>  <r_qp_glob>  (469) 
0.83645210000000003

>  <r_qp_mol_MW>  (469) 
462.95299999999997

>  <r_qp_volume>  (469) 
1349.3309999999999

>  <r_sd_BIOSOLVEIT.INFINISEE\_FTREES\_SIMILARITY>  (469) 
0.92700000000000005

>  <r_sd_BIOSOLVEIT.LOGP>  (469) 
4.5362

>  <r_sd_BIOSOLVEIT.MOLECULAR\_WEIGHT>  (469) 
463.96199999999999

>  <r_sd_BIOSOLVEIT.TPSA>  (469) 
58.460000000000001

>  <i_epik_Tot_Q>  (469) 
2

>  <i_epik_Tot_abs_Q>  (469) 
2

>  <i_f3d_flags>  (469) 
0

>  <i_i_glide_confnum>  (469) 
11

>  <i_i_glide_lignum>  (469) 
884

>  <i_i_glide_posenum>  (469) 
6

>  <i_i_glide_rotatable_bonds>  (469) 
8

>  <i_lp_mmshare_version>  (469) 
65135

>  <i_m_ct_format>  (469) 
2

>  <i_m_source_file_index>  (469) 
2242

>  <i_qp_#NandO>  (469) 
5

>  <i_qp_#acid>  (469) 
0

>  <i_qp_#amide>  (469) 
0

>  <i_qp_#amidine>  (469) 
0

>  <i_qp_#amine>  (469) 
1

>  <i_qp_#in34>  (469) 
0

>  <i_qp_#in56>  (469) 
22

>  <i_qp_#metab>  (469) 
6

>  <i_qp_#nonHatm>  (469) 
33

>  <i_qp_#noncon>  (469) 
0

>  <i_qp_#ringatoms>  (469) 
22

>  <i_qp_#rotor>  (469) 
7

>  <i_qp_#rtvFG>  (469) 
0

>  <i_qp_#stars>  (469) 
0

>  <i_qp_CNS>  (469) 
1

>  <i_qp_HumanOralAbsorption>  (469) 
3

>  <i_qp_RuleOfFive>  (469) 
0

>  <i_qp_RuleOfThree>  (469) 
0

>  <i_sd_BIOSOLVEIT.INFINISEE\_RESULT\_RANK>  (469) 
6979

>  <i_sd_version>  (469) 
0

>  <b_lp_Chiralities_Consistent>  (469) 
1

>  <b_sd_chiral_flag>  (469) 
0

>  <canonical_id>  (469) 
ATP-HTVS-4A28AAEEA14A

>  <compound_code>  (469) 
71714

>  <title>  (469) 
rxn502b____EMOL906848____EMOL30488121____EMOL2873214

>  <variant>  (469) 
71714-1

>  <source_file>  (469) 
运行/运行/ATP-VSW/ATP-VSW-DOCK_HTVS_1-002_lib.maegz

>  <canonical_smiles>  (469) 
C[NH+](C)Cc1cccc(CNc2c(NC(=O)c3cc(F)ccc3Cl)c[nH+]c3ccccc23)c1

>  <scaffold>  (469) 
O=C(Nc1c[nH+]c2ccccc2c1NCc1ccccc1)c1ccccc1

>  <molecular_formula>  (469) 
C26H26ClFN4O+2

$$$$
ATP-HTVS-4A3DC7D9F888
     RDKit          3D

 68 71  0  0  0  0  0  0  0  0999 V2000
  199.6800  181.8011  156.9427 O   0  0  0  0  0  0  0  0  0  0  0  0
  199.3294  181.7343  155.7658 C   0  0  0  0  0  0  0  0  0  0  0  0
  199.4538  180.6364  154.9851 N   0  0  0  0  0  0  0  0  0  0  0  0
  199.9453  179.3416  155.3008 C   0  0  0  0  0  0  0  0  0  0  0  0
  200.1737  178.4004  154.2518 C   0  0  0  0  0  0  0  0  0  0  0  0
  199.8529  178.7413  152.9177 N   0  0  0  0  0  0  0  0  0  0  0  0
  198.4244  178.8667  152.6103 C   0  0  1  0  0  0  0  0  0  0  0  0
  197.9813  180.2424  152.1319 C   0  0  0  0  0  0  0  0  0  0  0  0
  196.9367  180.9102  152.8149 C   0  0  0  0  0  0  0  0  0  0  0  0
  196.5926  182.2051  152.4189 C   0  0  0  0  0  0  0  0  0  0  0  0
  197.2177  182.8313  151.2933 C   0  0  0  0  0  0  0  0  0  0  0  0
  196.7384  184.0974  150.9024 N   0  0  0  0  0  0  0  0  0  0  0  0
  197.3255  184.8482  149.7933 C   0  0  1  0  0  0  0  0  0  0  0  0
  197.3193  184.0756  148.4500 C   0  0  1  0  0  0  0  0  0  0  0  0
  197.4737  184.9623  147.3646 O   0  0  0  0  0  0  0  0  0  0  0  0
  198.2766  182.1528  150.6446 C   0  0  0  0  0  0  0  0  0  0  0  0
  198.6421  180.8658  151.0194 C   0  0  0  0  0  0  0  0  0  0  0  0
  200.7283  177.1297  154.5642 C   0  0  0  0  0  0  0  0  0  0  0  0
  200.9815  176.8001  155.9243 C   0  0  0  0  0  0  0  0  0  0  0  0
  200.6871  177.7031  156.8820 N   0  0  0  0  0  0  0  0  0  0  0  0
  200.1833  178.9210  156.6331 C   0  0  0  0  0  0  0  0  0  0  0  0
  201.5414  175.5688  156.2790 C   0  0  0  0  0  0  0  0  0  0  0  0
  201.8830  174.6282  155.2842 C   0  0  0  0  0  0  0  0  0  0  0  0
  201.6547  174.9439  153.9311 C   0  0  0  0  0  0  0  0  0  0  0  0
  201.0752  176.1780  153.5694 C   0  0  0  0  0  0  0  0  0  0  0  0
  198.7880  182.9458  155.0606 C   0  0  0  0  0  0  0  0  0  0  0  0
  197.6893  183.7149  155.5539 C   0  0  0  0  0  0  0  0  0  0  0  0
  197.2647  184.8255  154.7933 C   0  0  0  0  0  0  0  0  0  0  0  0
  197.8852  185.2056  153.5917 C   0  0  0  0  0  0  0  0  0  0  0  0
  198.9819  184.4592  153.1152 C   0  0  0  0  0  0  0  0  0  0  0  0
  199.4388  183.3444  153.8581 C   0  0  0  0  0  0  0  0  0  0  0  0
  196.9402  183.3666  156.8558 C   0  0  1  0  0  0  0  0  0  0  0  0
  195.9562  182.2276  156.7831 N   0  0  2  0  0  0  0  0  0  0  0  0
  195.3266  181.9390  158.0917 C   0  0  2  0  0  0  0  0  0  0  0  0
  196.5338  180.9922  156.2100 C   0  0  2  0  0  0  0  0  0  0  0  0
  199.1085  180.7476  154.0402 H   0  0  0  0  0  0  0  0  0  0  0  0
  200.3884  179.5180  152.5673 H   0  0  0  0  0  0  0  0  0  0  0  0
  198.1481  178.1449  151.8294 H   0  0  0  0  0  0  0  0  0  0  0  0
  197.8279  178.6848  153.5074 H   0  0  0  0  0  0  0  0  0  0  0  0
  196.4481  180.4367  153.6624 H   0  0  0  0  0  0  0  0  0  0  0  0
  195.8312  182.7492  152.9953 H   0  0  0  0  0  0  0  0  0  0  0  0
  196.1003  184.5828  151.5053 H   0  0  0  0  0  0  0  0  0  0  0  0
  196.7612  185.7784  149.7196 H   0  0  0  0  0  0  0  0  0  0  0  0
  198.3402  185.1783  150.0385 H   0  0  0  0  0  0  0  0  0  0  0  0
  198.0544  183.3090  148.3981 H   0  0  0  0  0  0  0  0  0  0  0  0
  196.3442  183.5698  148.3900 H   0  0  0  0  0  0  0  0  0  0  0  0
  196.7026  185.5307  147.2671 H   0  0  0  0  0  0  0  0  0  0  0  0
  198.8649  182.6248  149.8449 H   0  0  0  0  0  0  0  0  0  0  0  0
  199.4056  180.3083  150.4925 H   0  0  0  0  0  0  0  0  0  0  0  0
  199.9936  179.5090  157.5170 H   0  0  0  0  0  0  0  0  0  0  0  0
  201.7356  175.3228  157.3174 H   0  0  0  0  0  0  0  0  0  0  0  0
  202.3205  173.6825  155.5595 H   0  0  0  0  0  0  0  0  0  0  0  0
  201.9286  174.2197  153.1733 H   0  0  0  0  0  0  0  0  0  0  0  0
  200.9229  176.3970  152.5216 H   0  0  0  0  0  0  0  0  0  0  0  0
  196.3748  185.3728  155.0861 H   0  0  0  0  0  0  0  0  0  0  0  0
  197.4910  186.0350  153.0128 H   0  0  0  0  0  0  0  0  0  0  0  0
  199.4269  184.7173  152.1586 H   0  0  0  0  0  0  0  0  0  0  0  0
  200.2007  182.7342  153.3755 H   0  0  0  0  0  0  0  0  0  0  0  0
  197.6640  183.2038  157.6546 H   0  0  0  0  0  0  0  0  0  0  0  0
  196.3824  184.2552  157.1430 H   0  0  0  0  0  0  0  0  0  0  0  0
  196.0947  181.6712  158.8304 H   0  0  0  0  0  0  0  0  0  0  0  0
  194.6597  181.0679  157.9927 H   0  0  0  0  0  0  0  0  0  0  0  0
  194.7213  182.7832  158.4720 H   0  0  0  0  0  0  0  0  0  0  0  0
  197.3361  180.6273  156.8941 H   0  0  0  0  0  0  0  0  0  0  0  0
  196.8789  181.2595  155.2458 H   0  0  0  0  0  0  0  0  0  0  0  0
  195.7908  180.2292  156.0546 H   0  0  0  0  0  0  0  0  0  0  0  0
  195.1840  182.5105  156.1945 H   0  0  0  0  0  0  0  0  0  0  0  0
  200.8720  177.4458  157.8512 H   0  0  0  0  0  0  0  0  0  0  0  0
  1  2  2  0
  2  3  1  0
  2 26  1  0
  3  4  1  0
  3 36  1  0
  4  5  2  0
  4 21  1  0
  5  6  1  0
  5 18  1  0
  6  7  1  0
  6 37  1  0
  7  8  1  0
  7 38  1  6
  7 39  1  0
  8  9  1  0
  8 17  2  0
  9 10  2  0
  9 40  1  0
 10 11  1  0
 10 41  1  0
 11 12  1  0
 11 16  2  0
 12 13  1  0
 12 42  1  0
 13 14  1  0
 13 43  1  6
 13 44  1  0
 14 15  1  0
 14 45  1  1
 14 46  1  0
 15 47  1  0
 16 17  1  0
 16 48  1  0
 17 49  1  0
 18 19  1  0
 18 25  2  0
 19 20  1  0
 19 22  2  0
 20 21  2  0
 20 68  1  0
 21 50  1  0
 22 23  1  0
 22 51  1  0
 23 24  2  0
 23 52  1  0
 24 25  1  0
 24 53  1  0
 25 54  1  0
 26 27  1  0
 26 31  2  0
 27 28  2  0
 27 32  1  0
 28 29  1  0
 28 55  1  0
 29 30  2  0
 29 56  1  0
 30 31  1  0
 30 57  1  0
 31 58  1  0
 32 33  1  0
 32 59  1  1
 32 60  1  0
 33 34  1  0
 33 35  1  0
 33 67  1  6
 34 61  1  1
 34 62  1  0
 34 63  1  0
 35 64  1  1
 35 65  1  0
 35 66  1  0
M  CHG  2  20   1  33   1
M  END
>  <s_epik_cmdline>  (470) 
J2VwaWtfcHl0aG9uJywgJy1waCcsICc3LjAwMDAwMCcsICctcGh0JywgJzIuMDAwMDAwJywgJy1tcycsICcxNicsICctdG4nLCAnOCcsICctbWEnLCAnMjAwJywgJy1pbWFlJywgJzxpbmZpbGUubWFlPicsICctb21hZScsICc8b3V0ZmlsZS5tYWU+Jw==

>  <s_epik_input>  (470) 
W2NIXTFbY0hdW2NIXVtjSF1jKFtDSDJdTihbQ0gzXSlbQ0gzXSljMUMoPU8pW05IXWMoW2NIXW5jKGMyMylbY0hdW2NIXVtjSF1bY0hdMyljMltOSF1bQ0gyXWM0W2NIXVtjSF1jKFtjSF1bY0hdNClbTkhdW0NIMl1bQ0gyXVtPSF0=

>  <s_i_glide_gridfile>  (470) 
ATP-Grid

>  <s_lp_Force_Field>  (470) 
OPLS_2005

>  <s_lp_Variant>  (470) 
rxn502b____EMOL5415347____EMOL30488121____EMOL324170366-1

>  <s_lp_label>  (470) 
2994_sdstereoexpander_1_neutralizer_1_epik_1_stereoizer_1

>  <s_m_source_file>  (470) 
ATP-VSW-LIGPREP-001-in.maegz

>  <s_sd_BIOSOLVEIT.INFINISEE\_QUERY\_NAME>  (470) 
Ref-Lig

>  <s_sd_BIOSOLVEIT.INFINISEE\_QUERY\_SMILES>  (470) 
S(c1nc2c(cc1C[NH2+]Cc3ccc(cc3)C[NH+](C)C)cccc2)Cc4ccccc4

>  <s_sd_BIOSOLVEIT.INFINISEE\_REACTION\_NAME>  (470) 
rxn502b

>  <s_sd_BIOSOLVEIT.INFINISEE\_REAGENT1\_NAME>  (470) 
EMOL5415347

>  <s_sd_BIOSOLVEIT.INFINISEE\_REAGENT1\_SMILES>  (470) 
O=C(O)c1c(cccc1)CN(C)C

>  <s_sd_BIOSOLVEIT.INFINISEE\_REAGENT2\_NAME>  (470) 
EMOL30488121

>  <s_sd_BIOSOLVEIT.INFINISEE\_REAGENT2\_SMILES>  (470) 
Brc1c(N)cnc2c1cccc2

>  <s_sd_BIOSOLVEIT.INFINISEE\_REAGENT3\_NAME>  (470) 
EMOL324170366

>  <s_sd_BIOSOLVEIT.INFINISEE\_REAGENT3\_SMILES>  (470) 
OCCNc1ccc(cc1)CN

>  <s_sd_BIOSOLVEIT.INFINISEE\_SPACE>  (470) 
eXplore_7tr_2022-12

>  <s_vsw_compound_code>  (470) 
95777

>  <s_vsw_variant>  (470) 
95777-1

>  <r_epik_Charging_Adjusted_Penalty>  (470) 
0.29611538226666401

>  <r_epik_Ionization_Penalty>  (470) 
0.15559999999999999

>  <r_epik_Ionization_Penalty_Charging>  (470) 
0.1434

>  <r_epik_Ionization_Penalty_Neutral>  (470) 
0.012200000000000001

>  <r_epik_State_Penalty>  (470) 
0.1527

>  <r_i_docking_score>  (470) 
-4.7733503577170504

>  <r_i_glide_ecoul>  (470) 
-12.941404342651399

>  <r_i_glide_eff_state_penalty>  (470) 
0.1527

>  <r_i_glide_einternal>  (470) 
7.2862744331359899

>  <r_i_glide_emodel>  (470) 
-64.277682862545404

>  <r_i_glide_energy>  (470) 
-44.171298980712898

>  <r_i_glide_erotb>  (470) 
0.90888782618001795

>  <r_i_glide_esite>  (470) 
-0.100829056751134

>  <r_i_glide_evdw>  (470) 
-31.229894638061499

>  <r_i_glide_gscore>  (470) 
-4.9260503577170498

>  <r_i_glide_hbond>  (470) 
-0.46575753228088901

>  <r_i_glide_ligand_efficiency>  (470) 
-0.136381438791916

>  <r_i_glide_ligand_efficiency_ln>  (470) 
-1.04785634232225

>  <r_i_glide_ligand_efficiency_sa>  (470) 
-0.44611272923858702

>  <r_i_glide_lipo>  (470) 
-1.3469683933824499

>  <r_i_glide_metal>  (470) 
-0

>  <r_i_glide_rewards>  (470) 
-0.41867781818181599

>  <r_lp_Energy>  (470) 
50.433205999999998

>  <r_qp_ACxDN^.5/SA>  (470) 
0.024248100000000002

>  <r_qp_CIQPlogS>  (470) 
-5.1859999999999999

>  <r_qp_EA(eV)>  (470) 
0.93700000000000006

>  <r_qp_FISA>  (470) 
123.509

>  <r_qp_FOSA>  (470) 
210.52000000000001

>  <r_qp_IP(eV)>  (470) 
8.3729999999999993

>  <r_qp_Jm>  (470) 
0.060110050808881502

>  <r_qp_PISA>  (470) 
424.79399999999998

>  <r_qp_PSA>  (470) 
92.997

>  <r_qp_PercentHumanOralAbsorption>  (470) 
86.007999999999996

>  <r_qp_QPPCaco>  (470) 
166.55699999999999

>  <r_qp_QPPMDCK>  (470) 
78.855000000000004

>  <r_qp_QPlogBB>  (470) 
-0.93100000000000005

>  <r_qp_QPlogHERG>  (470) 
-7.226

>  <r_qp_QPlogKhsa>  (470) 
0.22500000000000001

>  <r_qp_QPlogKp>  (470) 
-3.306

>  <r_qp_QPlogPC16>  (470) 
16.463000000000001

>  <r_qp_QPlogPo/w>  (470) 
3.2959999999999998

>  <r_qp_QPlogPoct>  (470) 
28.119

>  <r_qp_QPlogPw>  (470) 
17.768999999999998

>  <r_qp_QPlogS>  (470) 
-3.5870000000000002

>  <r_qp_QPpolrz>  (470) 
49.054000000000002

>  <r_qp_SASA>  (470) 
758.82399999999996

>  <r_qp_SAamideO>  (470) 
0

>  <r_qp_SAfluorine>  (470) 
0

>  <r_qp_WPSA>  (470) 
0

>  <r_qp_accptHB>  (470) 
9.1999999999999993

>  <r_qp_dip^2/V>  (470) 
0.063376699999999994

>  <r_qp_dipole>  (470) 
9.6020000000000003

>  <r_qp_donorHB>  (470) 
4

>  <r_qp_glob>  (470) 
0.81819509999999995

>  <r_qp_mol_MW>  (470) 
469.58499999999998

>  <r_qp_volume>  (470) 
1454.6189999999999

>  <r_sd_BIOSOLVEIT.INFINISEE\_FTREES\_SIMILARITY>  (470) 
0.90300000000000002

>  <r_sd_BIOSOLVEIT.LOGP>  (470) 
3.1478999999999999

>  <r_sd_BIOSOLVEIT.MOLECULAR\_WEIGHT>  (470) 
470.59399999999999

>  <r_sd_BIOSOLVEIT.TPSA>  (470) 
90.719999999999999

>  <i_epik_Tot_Q>  (470) 
2

>  <i_epik_Tot_abs_Q>  (470) 
2

>  <i_f3d_flags>  (470) 
0

>  <i_i_glide_confnum>  (470) 
25

>  <i_i_glide_lignum>  (470) 
1439

>  <i_i_glide_posenum>  (470) 
1

>  <i_i_glide_rotatable_bonds>  (470) 
12

>  <i_lp_mmshare_version>  (470) 
65135

>  <i_m_ct_format>  (470) 
2

>  <i_m_source_file_index>  (470) 
2994

>  <i_qp_#NandO>  (470) 
7

>  <i_qp_#acid>  (470) 
0

>  <i_qp_#amide>  (470) 
0

>  <i_qp_#amidine>  (470) 
0

>  <i_qp_#amine>  (470) 
1

>  <i_qp_#in34>  (470) 
0

>  <i_qp_#in56>  (470) 
22

>  <i_qp_#metab>  (470) 
9

>  <i_qp_#nonHatm>  (470) 
35

>  <i_qp_#noncon>  (470) 
0

>  <i_qp_#ringatoms>  (470) 
22

>  <i_qp_#rotor>  (470) 
11

>  <i_qp_#rtvFG>  (470) 
0

>  <i_qp_#stars>  (470) 
1

>  <i_qp_CNS>  (470) 
-1

>  <i_qp_HumanOralAbsorption>  (470) 
3

>  <i_qp_RuleOfFive>  (470) 
0

>  <i_qp_RuleOfThree>  (470) 
1

>  <i_sd_BIOSOLVEIT.INFINISEE\_RESULT\_RANK>  (470) 
85077

>  <i_sd_version>  (470) 
0

>  <b_lp_Chiralities_Consistent>  (470) 
1

>  <b_sd_chiral_flag>  (470) 
0

>  <canonical_id>  (470) 
ATP-HTVS-4A3DC7D9F888

>  <compound_code>  (470) 
95777

>  <title>  (470) 
rxn502b____EMOL5415347____EMOL30488121____EMOL324170366

>  <variant>  (470) 
95777-1

>  <source_file>  (470) 
运行/运行/ATP-VSW/ATP-VSW-DOCK_HTVS_1-001_lib/ATP-VSW-DOCK_HTVS_1-001_lib

>  <canonical_smiles>  (470) 
C[NH+](C)Cc1ccccc1C(=O)Nc1c[nH+]c2ccccc2c1NCc1ccc(NCCO)cc1

>  <scaffold>  (470) 
O=C(Nc1c[nH+]c2ccccc2c1NCc1ccccc1)c1ccccc1

>  <molecular_formula>  (470) 
C28H33N5O2+2

$$$$
ATP-HTVS-4A7957865725
     RDKit          3D

 53 56  0  0  0  0  0  0  0  0999 V2000
  199.7235  175.8859  149.0909 Br  0  0  0  0  0  0  0  0  0  0  0  0
  200.1341  176.3554  150.8909 C   0  0  0  0  0  0  0  0  0  0  0  0
  199.4160  177.3565  151.4156 N   0  0  0  0  0  0  0  0  0  0  0  0
  199.6039  177.7567  152.6792 C   0  0  0  0  0  0  0  0  0  0  0  0
  198.7767  178.7781  153.1863 N   0  0  0  0  0  0  0  0  0  0  0  0
  197.9684  179.7359  152.5233 C   0  0  0  0  0  0  0  0  0  0  0  0
  197.7666  181.0125  153.1206 C   0  0  0  0  0  0  0  0  0  0  0  0
  197.0391  182.0096  152.4092 C   0  0  0  0  0  0  0  0  0  0  0  0
  196.8685  183.3029  152.9082 N   0  0  0  0  0  0  0  0  0  0  0  0
  196.4682  181.7217  151.1568 C   0  0  0  0  0  0  0  0  0  0  0  0
  196.6347  180.4572  150.5859 C   0  0  0  0  0  0  0  0  0  0  0  0
  197.3573  179.4733  151.2681 C   0  0  0  0  0  0  0  0  0  0  0  0
  198.3401  181.3295  154.5118 C   0  0  1  0  0  0  0  0  0  0  0  0
  197.4668  180.8753  155.6346 N   0  0  1  0  0  0  0  0  0  0  0  0
  198.1695  180.9263  156.9326 C   0  0  2  0  0  0  0  0  0  0  0  0
  196.1656  181.5818  155.7048 C   0  0  2  0  0  0  0  0  0  0  0  0
  200.5641  177.1530  153.5169 C   0  0  0  0  0  0  0  0  0  0  0  0
  201.3541  176.1060  152.9641 C   0  0  0  0  0  0  0  0  0  0  0  0
  201.1293  175.6990  151.6214 C   0  0  0  0  0  0  0  0  0  0  0  0
  201.9056  174.6711  151.0474 C   0  0  0  0  0  0  0  0  0  0  0  0
  202.9153  174.0419  151.7983 C   0  0  0  0  0  0  0  0  0  0  0  0
  203.1449  174.4367  153.1347 C   0  0  0  0  0  0  0  0  0  0  0  0
  202.3687  175.4664  153.7139 C   0  0  0  0  0  0  0  0  0  0  0  0
  200.7593  177.6163  154.9057 C   0  0  0  0  0  0  0  0  0  0  0  0
  201.3541  178.8693  155.1633 C   0  0  0  0  0  0  0  0  0  0  0  0
  201.5485  179.3184  156.4831 C   0  0  0  0  0  0  0  0  0  0  0  0
  201.1476  178.5112  157.5634 C   0  0  0  0  0  0  0  0  0  0  0  0
  200.5450  177.2643  157.3215 C   0  0  0  0  0  0  0  0  0  0  0  0
  200.3476  176.8220  155.9979 C   0  0  0  0  0  0  0  0  0  0  0  0
  198.9671  178.9274  154.1692 H   0  0  0  0  0  0  0  0  0  0  0  0
  196.0573  183.7923  152.5559 H   0  0  0  0  0  0  0  0  0  0  0  0
  196.9169  183.4326  153.9105 H   0  0  0  0  0  0  0  0  0  0  0  0
  195.8957  182.4655  150.6207 H   0  0  0  0  0  0  0  0  0  0  0  0
  196.2370  180.2242  149.6131 H   0  0  0  0  0  0  0  0  0  0  0  0
  197.3945  178.5387  150.7436 H   0  0  0  0  0  0  0  0  0  0  0  0
  199.3280  180.8792  154.6029 H   0  0  0  0  0  0  0  0  0  0  0  0
  198.5359  182.3978  154.6109 H   0  0  0  0  0  0  0  0  0  0  0  0
  198.4416  181.9478  157.1985 H   0  0  0  0  0  0  0  0  0  0  0  0
  199.0711  180.3245  156.9009 H   0  0  0  0  0  0  0  0  0  0  0  0
  197.5451  180.5249  157.7334 H   0  0  0  0  0  0  0  0  0  0  0  0
  196.3066  182.6547  155.8440 H   0  0  0  0  0  0  0  0  0  0  0  0
  195.5647  181.2125  156.5369 H   0  0  0  0  0  0  0  0  0  0  0  0
  195.5788  181.4362  154.7984 H   0  0  0  0  0  0  0  0  0  0  0  0
  201.7509  174.3573  150.0281 H   0  0  0  0  0  0  0  0  0  0  0  0
  203.5153  173.2551  151.3611 H   0  0  0  0  0  0  0  0  0  0  0  0
  203.9223  173.9503  153.7200 H   0  0  0  0  0  0  0  0  0  0  0  0
  202.5730  175.7577  154.7359 H   0  0  0  0  0  0  0  0  0  0  0  0
  201.6723  179.4928  154.3406 H   0  0  0  0  0  0  0  0  0  0  0  0
  202.0184  180.2759  156.6692 H   0  0  0  0  0  0  0  0  0  0  0  0
  201.3143  178.8447  158.5761 H   0  0  0  0  0  0  0  0  0  0  0  0
  200.2336  176.6467  158.1544 H   0  0  0  0  0  0  0  0  0  0  0  0
  199.8852  175.8637  155.8242 H   0  0  0  0  0  0  0  0  0  0  0  0
  197.2412  179.9009  155.4860 H   0  0  0  0  0  0  0  0  0  0  0  0
  1  2  1  0
  2  3  1  0
  2 19  2  0
  3  4  2  0
  4  5  1  0
  4 17  1  0
  5  6  1  0
  5 30  1  0
  6  7  1  0
  6 12  2  0
  7  8  2  0
  7 13  1  0
  8  9  1  0
  8 10  1  0
  9 31  1  0
  9 32  1  0
 10 11  2  0
 10 33  1  0
 11 12  1  0
 11 34  1  0
 12 35  1  0
 13 14  1  0
 13 36  1  1
 13 37  1  0
 14 15  1  0
 14 16  1  0
 14 53  1  6
 15 38  1  1
 15 39  1  0
 15 40  1  0
 16 41  1  1
 16 42  1  0
 16 43  1  0
 17 18  2  0
 17 24  1  0
 18 19  1  0
 18 23  1  0
 19 20  1  0
 20 21  2  0
 20 44  1  0
 21 22  1  0
 21 45  1  0
 22 23  2  0
 22 46  1  0
 23 47  1  0
 24 25  2  0
 24 29  1  0
 25 26  1  0
 25 48  1  0
 26 27  2  0
 26 49  1  0
 27 28  1  0
 27 50  1  0
 28 29  2  0
 28 51  1  0
 29 52  1  0
M  CHG  1  14   1
M  END
>  <s_epik_cmdline>  (471) 
J2VwaWtfcHl0aG9uJywgJy1waCcsICc3LjAwMDAwMCcsICctcGh0JywgJzIuMDAwMDAwJywgJy1tcycsICcxNicsICctdG4nLCAnOCcsICctbWEnLCAnMjAwJywgJy1pbWFlJywgJzxpbmZpbGUubWFlPicsICctb21hZScsICc8b3V0ZmlsZS5tYWU+Jw==

>  <s_epik_input>  (471) 
W2NIXTFbY0hdW2NIXVtjSF1jKGMxMiljKEJyKW5jKFtOSF1jM2MoW0NIMl1OKFtDSDNdKVtDSDNdKWMoW05IMl0pW2NIXVtjSF1bY0hdMyljMi1jNFtjSF1bY0hdW2NIXVtjSF1bY0hdNA==

>  <s_i_glide_gridfile>  (471) 
ATP-Grid

>  <s_lp_Force_Field>  (471) 
OPLS_2005

>  <s_lp_Variant>  (471) 
rxn102b____EMOL37561843____EMOL27480028-1

>  <s_lp_label>  (471) 
2709_sdstereoexpander_1_neutralizer_1_epik_1_stereoizer_1

>  <s_m_source_file>  (471) 
ATP-VSW-LIGPREP-001-in.maegz

>  <s_sd_BIOSOLVEIT.INFINISEE\_QUERY\_NAME>  (471) 
Ref-Lig

>  <s_sd_BIOSOLVEIT.INFINISEE\_QUERY\_SMILES>  (471) 
S(c1nc2c(cc1C[NH2+]Cc3ccc(cc3)C[NH+](C)C)cccc2)Cc4ccccc4

>  <s_sd_BIOSOLVEIT.INFINISEE\_REACTION\_NAME>  (471) 
rxn102b

>  <s_sd_BIOSOLVEIT.INFINISEE\_REAGENT1\_NAME>  (471) 
EMOL37561843

>  <s_sd_BIOSOLVEIT.INFINISEE\_REAGENT1\_SMILES>  (471) 
Brc1c(c(N)ccc1)CN(C)C

>  <s_sd_BIOSOLVEIT.INFINISEE\_REAGENT2\_NAME>  (471) 
EMOL27480028

>  <s_sd_BIOSOLVEIT.INFINISEE\_REAGENT2\_SMILES>  (471) 
Brc1nc(N)c(c2c1cccc2)c3ccccc3

>  <s_sd_BIOSOLVEIT.INFINISEE\_SPACE>  (471) 
eXplore_7tr_2022-12

>  <s_vsw_compound_code>  (471) 
86657

>  <s_vsw_variant>  (471) 
86657-1

>  <r_epik_Charging_Adjusted_Penalty>  (471) 
0.071144492930970499

>  <r_epik_Ionization_Penalty>  (471) 
0.0356

>  <r_epik_Ionization_Penalty_Charging>  (471) 
0.0356

>  <r_epik_Ionization_Penalty_Neutral>  (471) 
0

>  <r_epik_State_Penalty>  (471) 
0.0356

>  <r_i_docking_score>  (471) 
-3.4701022120986802

>  <r_i_glide_ecoul>  (471) 
-5.68351125717163

>  <r_i_glide_eff_state_penalty>  (471) 
0.0356

>  <r_i_glide_einternal>  (471) 
1.1220006942748999

>  <r_i_glide_emodel>  (471) 
-43.891005976252501

>  <r_i_glide_energy>  (471) 
-33.776668071746798

>  <r_i_glide_erotb>  (471) 
0.39856712618553403

>  <r_i_glide_esite>  (471) 
-0.13181048501312401

>  <r_i_glide_evdw>  (471) 
-28.093156814575199

>  <r_i_glide_gscore>  (471) 
-3.5057022120986798

>  <r_i_glide_hbond>  (471) 
-0.035511391022156703

>  <r_i_glide_ligand_efficiency>  (471) 
-0.11965869696891999

>  <r_i_glide_ligand_efficiency_ln>  (471) 
-0.79456541237084499

>  <r_i_glide_ligand_efficiency_sa>  (471) 
-0.36762942762461698

>  <r_i_glide_lipo>  (471) 
-0.90279584203533403

>  <r_i_glide_metal>  (471) 
-0

>  <r_i_glide_rewards>  (471) 
-0.57696709090909004

>  <r_lp_Energy>  (471) 
30.388007999999999

>  <r_qp_ACxDN^.5/SA>  (471) 
0.0105863

>  <r_qp_CIQPlogS>  (471) 
-6.6319999999999997

>  <r_qp_EA(eV)>  (471) 
1.024

>  <r_qp_FISA>  (471) 
48.058

>  <r_qp_FOSA>  (471) 
127.34999999999999

>  <r_qp_IP(eV)>  (471) 
7.8319999999999999

>  <r_qp_Jm>  (471) 
0.032446995213561501

>  <r_qp_PISA>  (471) 
427.91199999999998

>  <r_qp_PSA>  (471) 
44.840000000000003

>  <r_qp_PercentHumanOralAbsorption>  (471) 
100

>  <r_qp_QPPCaco>  (471) 
865.09299999999996

>  <r_qp_QPPMDCK>  (471) 
1114.319

>  <r_qp_QPlogBB>  (471) 
0.309

>  <r_qp_QPlogHERG>  (471) 
-6.9829999999999997

>  <r_qp_QPlogKhsa>  (471) 
0.78000000000000003

>  <r_qp_QPlogKp>  (471) 
-2.3839999999999999

>  <r_qp_QPlogPC16>  (471) 
14.215

>  <r_qp_QPlogPo/w>  (471) 
4.8700000000000001

>  <r_qp_QPlogPoct>  (471) 
21.158999999999999

>  <r_qp_QPlogPw>  (471) 
11.369

>  <r_qp_QPlogS>  (471) 
-4.7549999999999999

>  <r_qp_QPpolrz>  (471) 
44.031999999999996

>  <r_qp_SASA>  (471) 
672.10599999999999

>  <r_qp_SAamideO>  (471) 
0

>  <r_qp_SAfluorine>  (471) 
0

>  <r_qp_WPSA>  (471) 
68.786000000000001

>  <r_qp_accptHB>  (471) 
4.5

>  <r_qp_dip^2/V>  (471) 
0.0190367

>  <r_qp_dipole>  (471) 
4.875

>  <r_qp_donorHB>  (471) 
2.5

>  <r_qp_glob>  (471) 
0.83414920000000004

>  <r_qp_mol_MW>  (471) 
447.37599999999998

>  <r_qp_volume>  (471) 
1248.172

>  <r_sd_BIOSOLVEIT.INFINISEE\_FTREES\_SIMILARITY>  (471) 
0.90800000000000003

>  <r_sd_BIOSOLVEIT.LOGP>  (471) 
4.6345999999999998

>  <r_sd_BIOSOLVEIT.MOLECULAR\_WEIGHT>  (471) 
448.38600000000002

>  <r_sd_BIOSOLVEIT.TPSA>  (471) 
55.380000000000003

>  <i_epik_Tot_Q>  (471) 
1

>  <i_epik_Tot_abs_Q>  (471) 
1

>  <i_f3d_flags>  (471) 
0

>  <i_i_glide_confnum>  (471) 
6

>  <i_i_glide_lignum>  (471) 
1206

>  <i_i_glide_posenum>  (471) 
6

>  <i_i_glide_rotatable_bonds>  (471) 
5

>  <i_lp_mmshare_version>  (471) 
65135

>  <i_m_ct_format>  (471) 
2

>  <i_m_source_file_index>  (471) 
2709

>  <i_qp_#NandO>  (471) 
4

>  <i_qp_#acid>  (471) 
0

>  <i_qp_#amide>  (471) 
0

>  <i_qp_#amidine>  (471) 
0

>  <i_qp_#amine>  (471) 
1

>  <i_qp_#in34>  (471) 
0

>  <i_qp_#in56>  (471) 
22

>  <i_qp_#metab>  (471) 
5

>  <i_qp_#nonHatm>  (471) 
29

>  <i_qp_#noncon>  (471) 
0

>  <i_qp_#ringatoms>  (471) 
22

>  <i_qp_#rotor>  (471) 
6

>  <i_qp_#rtvFG>  (471) 
0

>  <i_qp_#stars>  (471) 
1

>  <i_qp_CNS>  (471) 
1

>  <i_qp_HumanOralAbsorption>  (471) 
3

>  <i_qp_RuleOfFive>  (471) 
0

>  <i_qp_RuleOfThree>  (471) 
0

>  <i_sd_BIOSOLVEIT.INFINISEE\_RESULT\_RANK>  (471) 
53707

>  <i_sd_version>  (471) 
0

>  <b_lp_Chiralities_Consistent>  (471) 
1

>  <b_sd_chiral_flag>  (471) 
0

>  <canonical_id>  (471) 
ATP-HTVS-4A7957865725

>  <compound_code>  (471) 
86657

>  <title>  (471) 
rxn102b____EMOL37561843____EMOL27480028

>  <variant>  (471) 
86657-1

>  <source_file>  (471) 
运行/运行/ATP-VSW/ATP-VSW-DOCK_HTVS_1-001_lib/ATP-VSW-DOCK_HTVS_1-001_lib

>  <canonical_smiles>  (471) 
C[NH+](C)Cc1c(N)cccc1Nc1nc(Br)c2ccccc2c1-c1ccccc1

>  <scaffold>  (471) 
c1ccc(Nc2ncc3ccccc3c2-c2ccccc2)cc1

>  <molecular_formula>  (471) 
C24H24BrN4+

$$$$
ATP-HTVS-4AC739BE8539
     RDKit          3D

 66 69  0  0  0  0  0  0  0  0999 V2000
  201.1502  186.6481  159.8667 Cl  0  0  0  0  0  0  0  0  0  0  0  0
  201.5908  184.9954  160.1637 C   0  0  0  0  0  0  0  0  0  0  0  0
  202.5555  184.6821  161.1570 C   0  0  0  0  0  0  0  0  0  0  0  0
  203.1484  185.7126  162.0028 C   0  0  0  0  0  0  0  0  0  0  0  0
  203.6154  186.5293  162.6745 N   0  0  0  0  0  0  0  0  0  0  0  0
  202.9713  183.3463  161.3411 C   0  0  0  0  0  0  0  0  0  0  0  0
  202.4393  182.3206  160.5381 C   0  0  0  0  0  0  0  0  0  0  0  0
  201.4839  182.6321  159.5542 C   0  0  0  0  0  0  0  0  0  0  0  0
  201.0417  183.9574  159.3666 C   0  0  0  0  0  0  0  0  0  0  0  0
  200.0523  184.2271  158.2705 C   0  0  0  0  0  0  0  0  0  0  0  0
  200.2131  183.8689  157.1039 O   0  0  0  0  0  0  0  0  0  0  0  0
  198.7347  185.0097  158.5632 N   0  0  0  0  0  0  0  0  0  0  0  0
  197.5358  184.4841  158.6133 C   0  0  0  0  0  0  0  0  0  0  0  0
  197.0546  183.2942  157.9534 C   0  0  0  0  0  0  0  0  0  0  0  0
  197.8646  182.5580  157.1028 N   0  0  0  0  0  0  0  0  0  0  0  0
  197.6081  181.2646  156.4907 C   0  0  1  0  0  0  0  0  0  0  0  0
  198.8393  180.7579  155.7715 C   0  0  0  0  0  0  0  0  0  0  0  0
  199.4493  179.5551  156.1748 C   0  0  0  0  0  0  0  0  0  0  0  0
  200.6194  179.0985  155.5306 C   0  0  0  0  0  0  0  0  0  0  0  0
  201.1918  179.8701  154.4962 C   0  0  0  0  0  0  0  0  0  0  0  0
  200.5689  181.0584  154.0763 C   0  0  0  0  0  0  0  0  0  0  0  0
  199.3980  181.5071  154.7164 C   0  0  0  0  0  0  0  0  0  0  0  0
  201.2655  177.7877  155.9533 C   0  0  1  0  0  0  0  0  0  0  0  0
  200.8282  176.6310  155.1198 N   0  0  1  0  0  0  0  0  0  0  0  0
  201.2183  176.7400  153.6812 C   0  0  1  0  0  0  0  0  0  0  0  0
  200.5334  175.7014  152.7872 C   0  0  2  0  0  0  0  0  0  0  0  0
  201.1958  175.3267  155.7422 C   0  0  1  0  0  0  0  0  0  0  0  0
  202.6997  175.0041  155.6623 C   0  0  2  0  0  0  0  0  0  0  0  0
  195.7715  182.9027  158.1534 C   0  0  0  0  0  0  0  0  0  0  0  0
  194.8688  183.5717  158.9539 N   0  0  0  0  0  0  0  0  0  0  0  0
  195.2323  184.7519  159.5973 C   0  0  0  0  0  0  0  0  0  0  0  0
  196.5557  185.2491  159.4552 C   0  0  0  0  0  0  0  0  0  0  0  0
  196.8989  186.4525  160.1273 C   0  0  0  0  0  0  0  0  0  0  0  0
  195.9486  187.1365  160.9123 C   0  0  0  0  0  0  0  0  0  0  0  0
  194.6408  186.6340  161.0372 C   0  0  0  0  0  0  0  0  0  0  0  0
  194.2862  185.4425  160.3818 C   0  0  0  0  0  0  0  0  0  0  0  0
  203.7038  183.1012  162.0983 H   0  0  0  0  0  0  0  0  0  0  0  0
  202.7659  181.2963  160.6753 H   0  0  0  0  0  0  0  0  0  0  0  0
  201.0964  181.8384  158.9308 H   0  0  0  0  0  0  0  0  0  0  0  0
  198.7781  182.9350  156.8869 H   0  0  0  0  0  0  0  0  0  0  0  0
  197.3136  180.5573  157.2689 H   0  0  0  0  0  0  0  0  0  0  0  0
  196.7725  181.3229  155.7855 H   0  0  0  0  0  0  0  0  0  0  0  0
  199.0174  178.9814  156.9831 H   0  0  0  0  0  0  0  0  0  0  0  0
  202.0959  179.5421  154.0021 H   0  0  0  0  0  0  0  0  0  0  0  0
  200.9914  181.6221  153.2553 H   0  0  0  0  0  0  0  0  0  0  0  0
  198.9335  182.4286  154.3931 H   0  0  0  0  0  0  0  0  0  0  0  0
  202.3502  177.8942  155.9262 H   0  0  0  0  0  0  0  0  0  0  0  0
  200.9980  177.6013  156.9976 H   0  0  0  0  0  0  0  0  0  0  0  0
  200.9164  177.7037  153.2698 H   0  0  0  0  0  0  0  0  0  0  0  0
  202.3035  176.6895  153.5767 H   0  0  0  0  0  0  0  0  0  0  0  0
  200.8246  175.8586  151.7490 H   0  0  0  0  0  0  0  0  0  0  0  0
  199.4511  175.8177  152.8388 H   0  0  0  0  0  0  0  0  0  0  0  0
  200.7875  174.6736  153.0446 H   0  0  0  0  0  0  0  0  0  0  0  0
  200.8867  175.3345  156.7903 H   0  0  0  0  0  0  0  0  0  0  0  0
  200.6278  174.5167  155.2846 H   0  0  0  0  0  0  0  0  0  0  0  0
  202.9293  174.0633  156.1646 H   0  0  0  0  0  0  0  0  0  0  0  0
  203.2928  175.7822  156.1362 H   0  0  0  0  0  0  0  0  0  0  0  0
  203.0486  174.9015  154.6364 H   0  0  0  0  0  0  0  0  0  0  0  0
  195.3384  182.0300  157.6806 H   0  0  0  0  0  0  0  0  0  0  0  0
  197.8859  186.8847  160.0758 H   0  0  0  0  0  0  0  0  0  0  0  0
  196.2251  188.0530  161.4190 H   0  0  0  0  0  0  0  0  0  0  0  0
  193.9088  187.1681  161.6294 H   0  0  0  0  0  0  0  0  0  0  0  0
  193.2764  185.0674  160.4674 H   0  0  0  0  0  0  0  0  0  0  0  0
  199.8170  176.6701  155.1484 H   0  0  0  0  0  0  0  0  0  0  0  0
  193.9122  183.2397  159.0017 H   0  0  0  0  0  0  0  0  0  0  0  0
  198.8875  185.9189  158.9810 H   0  0  0  0  0  0  0  0  0  0  0  0
  1  2  1  0
  2  3  2  0
  2  9  1  0
  3  4  1  0
  3  6  1  0
  4  5  3  0
  6  7  2  0
  6 37  1  0
  7  8  1  0
  7 38  1  0
  8  9  2  0
  8 39  1  0
  9 10  1  0
 10 11  2  0
 10 12  1  0
 12 13  2  0
 12 66  1  0
 13 14  1  0
 13 32  1  0
 14 15  1  0
 14 29  2  0
 15 16  1  0
 15 40  1  0
 16 17  1  0
 16 41  1  1
 16 42  1  0
 17 18  2  0
 17 22  1  0
 18 19  1  0
 18 43  1  0
 19 20  2  0
 19 23  1  0
 20 21  1  0
 20 44  1  0
 21 22  2  0
 21 45  1  0
 22 46  1  0
 23 24  1  0
 23 47  1  1
 23 48  1  0
 24 25  1  0
 24 27  1  0
 24 64  1  6
 25 26  1  0
 25 49  1  6
 25 50  1  0
 26 51  1  6
 26 52  1  0
 26 53  1  0
 27 28  1  0
 27 54  1  1
 27 55  1  0
 28 56  1  1
 28 57  1  0
 28 58  1  0
 29 30  1  0
 29 59  1  0
 30 31  1  0
 30 65  1  0
 31 32  1  0
 31 36  2  0
 32 33  2  0
 33 34  1  0
 33 60  1  0
 34 35  2  0
 34 61  1  0
 35 36  1  0
 35 62  1  0
 36 63  1  0
M  CHG  2  12   1  24   1
M  END
>  <s_epik_Chemistry_Notes>  (472) 
This compound has an imine and may undergo hydrolysis.

>  <s_epik_cmdline>  (472) 
J2VwaWtfcHl0aG9uJywgJy1waCcsICc3LjAwMDAwMCcsICctcGh0JywgJzIuMDAwMDAwJywgJy1tcycsICcxNicsICctdG4nLCAnOCcsICctbWEnLCAnMjAwJywgJy1pbWFlJywgJzxpbmZpbGUubWFlPicsICctb21hZScsICc8b3V0ZmlsZS5tYWU+Jw==

>  <s_epik_input>  (472) 
Q2xjMWMoQyNOKVtjSF1bY0hdW2NIXWMxQyg9TylbTkhdYyhjKGMyMylbY0hdW2NIXVtjSF1bY0hdMyljKFtjSF1uMilbTkhdW0NIMl1jNFtjSF1jKFtjSF1bY0hdW2NIXTQpW0NIMl1OKFtDSDJdW0NIM10pW0NIMl1bQ0gzXQ==

>  <s_i_glide_gridfile>  (472) 
ATP-Grid

>  <s_lp_Force_Field>  (472) 
OPLS_2005

>  <s_lp_Variant>  (472) 
rxn502b____EMOL49863568____EMOL13728749____EMOL44153840-2

>  <s_lp_label>  (472) 
2625_sdstereoexpander_1_neutralizer_1_epik_2_stereoizer_1

>  <s_m_source_file>  (472) 
ATP-VSW-LIGPREP-002-in.maegz

>  <s_sd_BIOSOLVEIT.INFINISEE\_QUERY\_NAME>  (472) 
Ref-Lig

>  <s_sd_BIOSOLVEIT.INFINISEE\_QUERY\_SMILES>  (472) 
S(c1nc2c(cc1C[NH2+]Cc3ccc(cc3)C[NH+](C)C)cccc2)Cc4ccccc4

>  <s_sd_BIOSOLVEIT.INFINISEE\_REACTION\_NAME>  (472) 
rxn502b

>  <s_sd_BIOSOLVEIT.INFINISEE\_REAGENT1\_NAME>  (472) 
EMOL49863568

>  <s_sd_BIOSOLVEIT.INFINISEE\_REAGENT1\_SMILES>  (472) 
Clc1c(C#N)cccc1C(=O)O

>  <s_sd_BIOSOLVEIT.INFINISEE\_REAGENT2\_NAME>  (472) 
EMOL13728749

>  <s_sd_BIOSOLVEIT.INFINISEE\_REAGENT2\_SMILES>  (472) 
Brc1c(N)c2c(nc1)cccc2

>  <s_sd_BIOSOLVEIT.INFINISEE\_REAGENT3\_NAME>  (472) 
EMOL44153840

>  <s_sd_BIOSOLVEIT.INFINISEE\_REAGENT3\_SMILES>  (472) 
N(Cc1cc(ccc1)CN)(CC)CC

>  <s_sd_BIOSOLVEIT.INFINISEE\_SPACE>  (472) 
eXplore_7tr_2022-12

>  <s_vsw_compound_code>  (472) 
83970

>  <s_vsw_variant>  (472) 
83970-2

>  <r_epik_Charging_Adjusted_Penalty>  (472) 
1.0856167242753201

>  <r_epik_Ionization_Penalty>  (472) 
0.27329999999999999

>  <r_epik_Ionization_Penalty_Charging>  (472) 
0.017999999999999999

>  <r_epik_Ionization_Penalty_Neutral>  (472) 
0.25530000000000003

>  <r_epik_State_Penalty>  (472) 
1.0677000000000001

>  <r_i_docking_score>  (472) 
-2.7746790877587499

>  <r_i_glide_ecoul>  (472) 
-7.6239519119262704

>  <r_i_glide_eff_state_penalty>  (472) 
1.0677000000000001

>  <r_i_glide_einternal>  (472) 
4.9597883224487296

>  <r_i_glide_emodel>  (472) 
-62.154168239811199

>  <r_i_glide_energy>  (472) 
-48.141102790832498

>  <r_i_glide_erotb>  (472) 
0.57159519599847097

>  <r_i_glide_esite>  (472) 
-0.023483389108614899

>  <r_i_glide_evdw>  (472) 
-40.5171508789062

>  <r_i_glide_gscore>  (472) 
-3.8423790877587498

>  <r_i_glide_hbond>  (472) 
0

>  <r_i_glide_ligand_efficiency>  (472) 
-0.077074419104409694

>  <r_i_glide_ligand_efficiency_ln>  (472) 
-0.60536001378306903

>  <r_i_glide_ligand_efficiency_sa>  (472) 
-0.25449412432958002

>  <r_i_glide_lipo>  (472) 
-2.3576533214661302

>  <r_i_glide_metal>  (472) 
-0

>  <r_i_glide_rewards>  (472) 
1.1366127575517699

>  <r_lp_Energy>  (472) 
47.775995999999999

>  <r_qp_ACxDN^.5/SA>  (472) 
0.0133942

>  <r_qp_CIQPlogS>  (472) 
-7.3550000000000004

>  <r_qp_EA(eV)>  (472) 
0.88

>  <r_qp_FISA>  (472) 
119.789

>  <r_qp_FOSA>  (472) 
275.55500000000001

>  <r_qp_IP(eV)>  (472) 
7.383

>  <r_qp_Jm>  (472) 
6.0944501435407402e-05

>  <r_qp_PISA>  (472) 
423.81299999999999

>  <r_qp_PSA>  (472) 
81.341999999999999

>  <r_qp_PercentHumanOralAbsorption>  (472) 
95.977999999999994

>  <r_qp_QPPCaco>  (472) 
180.65100000000001

>  <r_qp_QPPMDCK>  (472) 
118.78

>  <r_qp_QPlogBB>  (472) 
-0.96999999999999997

>  <r_qp_QPlogHERG>  (472) 
-7.931

>  <r_qp_QPlogKhsa>  (472) 
0.78800000000000003

>  <r_qp_QPlogKp>  (472) 
-3.2410000000000001

>  <r_qp_QPlogPC16>  (472) 
17.456

>  <r_qp_QPlogPo/w>  (472) 
4.891

>  <r_qp_QPlogPoct>  (472) 
25.423999999999999

>  <r_qp_QPlogPw>  (472) 
13.840999999999999

>  <r_qp_QPlogS>  (472) 
-6.6719999999999997

>  <r_qp_QPpolrz>  (472) 
53.770000000000003

>  <r_qp_SASA>  (472) 
844.67399999999998

>  <r_qp_SAamideO>  (472) 
0

>  <r_qp_SAfluorine>  (472) 
0

>  <r_qp_WPSA>  (472) 
25.516999999999999

>  <r_qp_accptHB>  (472) 
8

>  <r_qp_dip^2/V>  (472) 
0.0104777

>  <r_qp_dipole>  (472) 
4.0590000000000002

>  <r_qp_donorHB>  (472) 
2

>  <r_qp_glob>  (472) 
0.77429590000000004

>  <r_qp_mol_MW>  (472) 
498.02600000000001

>  <r_qp_volume>  (472) 
1572.702

>  <r_sd_BIOSOLVEIT.INFINISEE\_FTREES\_SIMILARITY>  (472) 
0.91100000000000003

>  <r_sd_BIOSOLVEIT.LOGP>  (472) 
5.0489800000000002

>  <r_sd_BIOSOLVEIT.MOLECULAR\_WEIGHT>  (472) 
499.03500000000003

>  <r_sd_BIOSOLVEIT.TPSA>  (472) 
82.25

>  <i_epik_Tot_Q>  (472) 
2

>  <i_epik_Tot_abs_Q>  (472) 
2

>  <i_f3d_flags>  (472) 
0

>  <i_i_glide_confnum>  (472) 
2

>  <i_i_glide_lignum>  (472) 
1219

>  <i_i_glide_posenum>  (472) 
12

>  <i_i_glide_rotatable_bonds>  (472) 
9

>  <i_lp_mmshare_version>  (472) 
65135

>  <i_m_ct_format>  (472) 
2

>  <i_m_source_file_index>  (472) 
2625

>  <i_qp_#NandO>  (472) 
6

>  <i_qp_#acid>  (472) 
0

>  <i_qp_#amide>  (472) 
0

>  <i_qp_#amidine>  (472) 
0

>  <i_qp_#amine>  (472) 
1

>  <i_qp_#in34>  (472) 
0

>  <i_qp_#in56>  (472) 
22

>  <i_qp_#metab>  (472) 
7

>  <i_qp_#nonHatm>  (472) 
36

>  <i_qp_#noncon>  (472) 
0

>  <i_qp_#ringatoms>  (472) 
22

>  <i_qp_#rotor>  (472) 
11

>  <i_qp_#rtvFG>  (472) 
0

>  <i_qp_#stars>  (472) 
2

>  <i_qp_CNS>  (472) 
0

>  <i_qp_HumanOralAbsorption>  (472) 
1

>  <i_qp_RuleOfFive>  (472) 
0

>  <i_qp_RuleOfThree>  (472) 
2

>  <i_sd_BIOSOLVEIT.INFINISEE\_RESULT\_RANK>  (472) 
43863

>  <i_sd_version>  (472) 
0

>  <b_lp_Chiralities_Consistent>  (472) 
1

>  <b_sd_chiral_flag>  (472) 
0

>  <canonical_id>  (472) 
ATP-HTVS-4AC739BE8539

>  <compound_code>  (472) 
83970

>  <title>  (472) 
rxn502b____EMOL49863568____EMOL13728749____EMOL44153840

>  <variant>  (472) 
83970-2

>  <source_file>  (472) 
运行/运行/ATP-VSW/ATP-VSW-DOCK_HTVS_1-002_lib.maegz

>  <canonical_smiles>  (472) 
CC[NH+](CC)Cc1cccc(CNc2c[nH]c3ccccc3/c2=[NH+]/C(=O)c2cccc(C#N)c2Cl)c1

>  <scaffold>  (472) 
O=C([NH+]=c1c(NCc2ccccc2)c[nH]c2ccccc12)c1ccccc1

>  <molecular_formula>  (472) 
C29H30ClN5O+2

$$$$
ATP-HTVS-4AC96F3AF657
     RDKit          3D

 59 62  0  0  0  0  0  0  0  0999 V2000
  200.2733  180.8407  153.1750 O   0  0  0  0  0  0  0  0  0  0  0  0
  199.1865  181.3803  153.5720 C   0  0  0  0  0  0  0  0  0  0  0  0
  198.0468  180.7981  153.8762 N   0  0  0  0  0  0  0  0  0  0  0  0
  197.0595  181.6913  154.5854 C   0  0  2  0  0  0  0  0  0  0  0  0
  197.8213  183.0199  154.5055 C   0  0  0  0  0  0  0  0  0  0  0  0
  199.0701  182.7964  153.9562 C   0  0  0  0  0  0  0  0  0  0  0  0
  200.0327  183.8442  153.8539 C   0  0  0  0  0  0  0  0  0  0  0  0
  199.6174  185.1327  154.2317 C   0  0  0  0  0  0  0  0  0  0  0  0
  198.3166  185.3709  154.7331 C   0  0  0  0  0  0  0  0  0  0  0  0
  197.4013  184.3127  154.9046 C   0  0  0  0  0  0  0  0  0  0  0  0
  196.6487  181.2471  156.0445 C   0  0  1  0  0  0  0  0  0  0  0  0
  195.9106  182.2466  156.7879 N   0  0  1  0  0  0  0  0  0  0  0  0
  195.7751  182.0025  158.2445 C   0  0  1  0  0  0  0  0  0  0  0  0
  195.7388  183.3306  158.9970 C   0  0  0  0  0  0  0  0  0  0  0  0
  196.9074  184.0753  159.3180 C   0  0  0  0  0  0  0  0  0  0  0  0
  196.7635  185.2983  160.0299 C   0  0  0  0  0  0  0  0  0  0  0  0
  195.4928  185.7775  160.3965 C   0  0  0  0  0  0  0  0  0  0  0  0
  194.3488  185.0371  160.0658 C   0  0  0  0  0  0  0  0  0  0  0  0
  194.4725  183.8267  159.3627 C   0  0  0  0  0  0  0  0  0  0  0  0
  198.3292  183.6313  159.0101 C   0  0  0  0  0  0  0  0  0  0  0  0
  199.2306  183.8026  159.7135 O   0  0  0  0  0  0  0  0  0  0  0  0
  198.4671  183.0351  157.7824 N   0  0  0  0  0  0  0  0  0  0  0  0
  199.7320  182.4805  157.2909 C   0  0  1  0  0  0  0  0  0  0  0  0
  199.6358  181.1080  156.6236 C   0  0  2  0  0  0  0  0  0  0  0  0
  197.6938  179.3888  153.5983 C   0  0  1  0  0  0  0  0  0  0  0  0
  197.5178  179.1916  152.1117 C   0  0  0  0  0  0  0  0  0  0  0  0
  196.4176  179.7971  151.4659 C   0  0  0  0  0  0  0  0  0  0  0  0
  196.2408  179.6438  150.0810 C   0  0  0  0  0  0  0  0  0  0  0  0
  197.1584  178.8885  149.3302 C   0  0  0  0  0  0  0  0  0  0  0  0
  198.2648  178.2903  149.9632 C   0  0  0  0  0  0  0  0  0  0  0  0
  198.4489  178.4447  151.3522 C   0  0  0  0  0  0  0  0  0  0  0  0
  196.3233  183.1645  156.6517 H   0  0  0  0  0  0  0  0  0  0  0  0
  196.1481  181.7527  153.9996 H   0  0  0  0  0  0  0  0  0  0  0  0
  201.0142  183.6472  153.4760 H   0  0  0  0  0  0  0  0  0  0  0  0
  200.3020  185.9681  154.1026 H   0  0  0  0  0  0  0  0  0  0  0  0
  198.0121  186.3827  154.9847 H   0  0  0  0  0  0  0  0  0  0  0  0
  196.4146  184.4898  155.2843 H   0  0  0  0  0  0  0  0  0  0  0  0
  196.2375  180.2503  156.0925 H   0  0  0  0  0  0  0  0  0  0  0  0
  197.3864  181.1451  156.7631 H   0  0  0  0  0  0  0  0  0  0  0  0
  194.8639  181.4326  158.4086 H   0  0  0  0  0  0  0  0  0  0  0  0
  196.5807  181.3795  158.6509 H   0  0  0  0  0  0  0  0  0  0  0  0
  197.6303  185.8827  160.3017 H   0  0  0  0  0  0  0  0  0  0  0  0
  195.3945  186.7113  160.9318 H   0  0  0  0  0  0  0  0  0  0  0  0
  193.3675  185.4000  160.3378 H   0  0  0  0  0  0  0  0  0  0  0  0
  193.5812  183.2671  159.1165 H   0  0  0  0  0  0  0  0  0  0  0  0
  197.6450  182.9326  157.2260 H   0  0  0  0  0  0  0  0  0  0  0  0
  200.1629  183.2037  156.6040 H   0  0  0  0  0  0  0  0  0  0  0  0
  200.3929  182.2796  158.1187 H   0  0  0  0  0  0  0  0  0  0  0  0
  200.4713  180.7242  156.0775 H   0  0  0  0  0  0  0  0  0  0  0  0
  199.0176  181.3411  155.8740 H   0  0  0  0  0  0  0  0  0  0  0  0
  199.0945  180.3131  157.1650 H   0  0  0  0  0  0  0  0  0  0  0  0
  198.4474  178.7182  153.9950 H   0  0  0  0  0  0  0  0  0  0  0  0
  196.7639  179.1394  154.0945 H   0  0  0  0  0  0  0  0  0  0  0  0
  195.7127  180.3794  152.0399 H   0  0  0  0  0  0  0  0  0  0  0  0
  195.3903  180.0988  149.6007 H   0  0  0  0  0  0  0  0  0  0  0  0
  197.0149  178.7651  148.2671 H   0  0  0  0  0  0  0  0  0  0  0  0
  198.9704  177.7144  149.3882 H   0  0  0  0  0  0  0  0  0  0  0  0
  199.3096  177.9899  151.8229 H   0  0  0  0  0  0  0  0  0  0  0  0
  194.9688  182.2750  156.3604 H   0  0  0  0  0  0  0  0  0  0  0  0
  1  2  2  0
  2  3  1  0
  2  6  1  0
  3  4  1  0
  3 25  1  0
  4  5  1  0
  4 11  1  0
  4 33  1  6
  5  6  1  0
  5 10  2  0
  6  7  2  0
  7  8  1  0
  7 34  1  0
  8  9  2  0
  8 35  1  0
  9 10  1  0
  9 36  1  0
 10 37  1  0
 11 12  1  0
 11 38  1  6
 11 39  1  0
 12 13  1  0
 12 32  1  1
 12 59  1  0
 13 14  1  0
 13 40  1  6
 13 41  1  0
 14 15  1  0
 14 19  2  0
 15 16  2  0
 15 20  1  0
 16 17  1  0
 16 42  1  0
 17 18  2  0
 17 43  1  0
 18 19  1  0
 18 44  1  0
 19 45  1  0
 20 21  2  0
 20 22  1  0
 22 23  1  0
 22 46  1  0
 23 24  1  0
 23 47  1  6
 23 48  1  0
 24 49  1  6
 24 50  1  0
 24 51  1  0
 25 26  1  0
 25 52  1  1
 25 53  1  0
 26 27  2  0
 26 31  1  0
 27 28  1  0
 27 54  1  0
 28 29  2  0
 28 55  1  0
 29 30  1  0
 29 56  1  0
 30 31  2  0
 30 57  1  0
 31 58  1  0
M  CHG  1  12   1
M  END
>  <s_epik_cmdline>  (473) 
J2VwaWtfcHl0aG9uJywgJy1waCcsICc3LjAwMDAwMCcsICctcGh0JywgJzIuMDAwMDAwJywgJy1tcycsICcxNicsICctdG4nLCAnOCcsICctbWEnLCAnMjAwJywgJy1pbWFlJywgJzxpbmZpbGUubWFlPicsICctb21hZScsICc8b3V0ZmlsZS5tYWU+Jw==

>  <s_epik_input>  (473) 
W2NIXTFbY0hdW2NIXVtjSF1bY0hdYzFbQ0gyXU4oQyg9TyljKGMyMylbY0hdW2NIXVtjSF1bY0hdMylbQ0BIXTJbQ0gyXVtOSF1bQ0gyXWM0YyhbY0hdW2NIXVtjSF1bY0hdNClDKD1PKVtOSF1bQ0gyXVtDSDNd

>  <s_i_glide_gridfile>  (473) 
ATP-Grid

>  <s_lp_Force_Field>  (473) 
OPLS_2005

>  <s_lp_Variant>  (473) 
m_270004bbb____12219716____13607588-1

>  <s_lp_label>  (473) 
808_sdstereoexpander_1_neutralizer_1_epik_1_stereoizer_1

>  <s_m_source_file>  (473) 
ATP-VSW-LIGPREP-002-in.maegz

>  <s_sd_BIOSOLVEIT.INFINISEE\_QUERY\_NAME>  (473) 
Ref-Lig

>  <s_sd_BIOSOLVEIT.INFINISEE\_QUERY\_SMILES>  (473) 
S(c1nc2c(cc1C[NH2+]Cc3ccc(cc3)C[NH+](C)C)cccc2)Cc4ccccc4

>  <s_sd_BIOSOLVEIT.INFINISEE\_REACTION\_NAME>  (473) 
m_270004bbb

>  <s_sd_BIOSOLVEIT.INFINISEE\_REAGENT1\_SMILES>  (473) 
[R1*]NCC1N(C(=O)c2c1cccc2)Cc3ccccc3

>  <s_sd_BIOSOLVEIT.INFINISEE\_REAGENT2\_SMILES>  (473) 
[R1*]Cc1c(cccc1)C(=O)NCC

>  <s_sd_BIOSOLVEIT.INFINISEE\_SPACE>  (473) 
REALSpace_44bn_2023-08

>  <s_vsw_compound_code>  (473) 
25826

>  <s_vsw_variant>  (473) 
25826-1

>  <r_epik_Charging_Adjusted_Penalty>  (473) 
0.13247585575026699

>  <r_epik_Ionization_Penalty>  (473) 
0.066199999999999995

>  <r_epik_Ionization_Penalty_Charging>  (473) 
0.066199999999999995

>  <r_epik_Ionization_Penalty_Neutral>  (473) 
0

>  <r_epik_State_Penalty>  (473) 
0.066199999999999995

>  <r_i_docking_score>  (473) 
-5.3770154945092896

>  <r_i_glide_ecoul>  (473) 
-12.173190116882299

>  <r_i_glide_eff_state_penalty>  (473) 
0.066199999999999995

>  <r_i_glide_einternal>  (473) 
4.29156541824341

>  <r_i_glide_emodel>  (473) 
-65.838575155308703

>  <r_i_glide_energy>  (473) 
-45.599730491638198

>  <r_i_glide_erotb>  (473) 
0.91898710632484704

>  <r_i_glide_esite>  (473) 
-0.10452256200158

>  <r_i_glide_evdw>  (473) 
-33.426540374755902

>  <r_i_glide_gscore>  (473) 
-5.4432154945092996

>  <r_i_glide_hbond>  (473) 
-0.20000000000000001

>  <r_i_glide_ligand_efficiency>  (473) 
-0.173452112726106

>  <r_i_glide_ligand_efficiency_ln>  (473) 
-1.21268177974673

>  <r_i_glide_ligand_efficiency_sa>  (473) 
-0.54487911041049897

>  <r_i_glide_lipo>  (473) 
-1.83989060931361

>  <r_i_glide_metal>  (473) 
-0

>  <r_i_glide_rewards>  (473) 
-0.72048389324880802

>  <r_lp_Energy>  (473) 
41.279586000000002

>  <r_qp_ACxDN^.5/SA>  (473) 
0.0137357

>  <r_qp_CIQPlogS>  (473) 
-4.9290000000000003

>  <r_qp_EA(eV)>  (473) 
0.29599999999999999

>  <r_qp_FISA>  (473) 
71.549000000000007

>  <r_qp_FOSA>  (473) 
196.13399999999999

>  <r_qp_IP(eV)>  (473) 
9.3409999999999993

>  <r_qp_Jm>  (473) 
0.066413625955102196

>  <r_qp_PISA>  (473) 
453.03100000000001

>  <r_qp_PSA>  (473) 
72.784999999999997

>  <r_qp_PercentHumanOralAbsorption>  (473) 
100

>  <r_qp_QPPCaco>  (473) 
517.96100000000001

>  <r_qp_QPPMDCK>  (473) 
268.79300000000001

>  <r_qp_QPlogBB>  (473) 
-0.23899999999999999

>  <r_qp_QPlogHERG>  (473) 
-7.415

>  <r_qp_QPlogKhsa>  (473) 
0.51700000000000002

>  <r_qp_QPlogKp>  (473) 
-2.5369999999999999

>  <r_qp_QPlogPC16>  (473) 
14.805999999999999

>  <r_qp_QPlogPo/w>  (473) 
4.1340000000000003

>  <r_qp_QPlogPoct>  (473) 
23.07

>  <r_qp_QPlogPw>  (473) 
13.081

>  <r_qp_QPlogS>  (473) 
-4.2569999999999997

>  <r_qp_QPpolrz>  (473) 
46.587000000000003

>  <r_qp_SASA>  (473) 
720.71400000000006

>  <r_qp_SAamideO>  (473) 
0

>  <r_qp_SAfluorine>  (473) 
0

>  <r_qp_WPSA>  (473) 
0

>  <r_qp_accptHB>  (473) 
7

>  <r_qp_dip^2/V>  (473) 
0.069507100000000002

>  <r_qp_dipole>  (473) 
9.6440000000000001

>  <r_qp_donorHB>  (473) 
2

>  <r_qp_glob>  (473) 
0.81482560000000004

>  <r_qp_mol_MW>  (473) 
413.51799999999997

>  <r_qp_volume>  (473) 
1338.117

>  <r_sd_BIOSOLVEIT.INFINISEE\_FTREES\_SIMILARITY>  (473) 
0.92300000000000004

>  <r_sd_BIOSOLVEIT.LOGP>  (473) 
2.8969999999999998

>  <r_sd_BIOSOLVEIT.MOLECULAR\_WEIGHT>  (473) 
414.52600000000001

>  <r_sd_BIOSOLVEIT.TPSA>  (473) 
66.019999999999996

>  <i_epik_Tot_Q>  (473) 
1

>  <i_epik_Tot_abs_Q>  (473) 
1

>  <i_f3d_flags>  (473) 
0

>  <i_i_glide_confnum>  (473) 
3

>  <i_i_glide_lignum>  (473) 
253

>  <i_i_glide_posenum>  (473) 
11

>  <i_i_glide_rotatable_bonds>  (473) 
9

>  <i_lp_mmshare_version>  (473) 
65135

>  <i_m_ct_format>  (473) 
2

>  <i_m_source_file_index>  (473) 
808

>  <i_qp_#NandO>  (473) 
5

>  <i_qp_#acid>  (473) 
0

>  <i_qp_#amide>  (473) 
0

>  <i_qp_#amidine>  (473) 
0

>  <i_qp_#amine>  (473) 
1

>  <i_qp_#in34>  (473) 
0

>  <i_qp_#in56>  (473) 
21

>  <i_qp_#metab>  (473) 
4

>  <i_qp_#nonHatm>  (473) 
31

>  <i_qp_#noncon>  (473) 
1

>  <i_qp_#ringatoms>  (473) 
21

>  <i_qp_#rotor>  (473) 
8

>  <i_qp_#rtvFG>  (473) 
0

>  <i_qp_#stars>  (473) 
1

>  <i_qp_CNS>  (473) 
1

>  <i_qp_HumanOralAbsorption>  (473) 
3

>  <i_qp_RuleOfFive>  (473) 
0

>  <i_qp_RuleOfThree>  (473) 
0

>  <i_sd_BIOSOLVEIT.INFINISEE\_REAGENT1\_NAME>  (473) 
12219716

>  <i_sd_BIOSOLVEIT.INFINISEE\_REAGENT2\_NAME>  (473) 
13607588

>  <i_sd_BIOSOLVEIT.INFINISEE\_RESULT\_RANK>  (473) 
11948

>  <i_sd_version>  (473) 
0

>  <b_lp_Chiralities_Consistent>  (473) 
1

>  <b_sd_chiral_flag>  (473) 
0

>  <canonical_id>  (473) 
ATP-HTVS-4AC96F3AF657

>  <compound_code>  (473) 
25826

>  <title>  (473) 
m_270004bbb____12219716____13607588

>  <variant>  (473) 
25826-1

>  <source_file>  (473) 
运行/运行/ATP-VSW/ATP-VSW-DOCK_HTVS_1-002_lib.maegz

>  <canonical_smiles>  (473) 
CCNC(=O)c1ccccc1C[NH2+]C[C@H]1c2ccccc2C(=O)N1Cc1ccccc1

>  <scaffold>  (473) 
O=C1c2ccccc2C(C[NH2+]Cc2ccccc2)N1Cc1ccccc1

>  <molecular_formula>  (473) 
C26H28N3O2+

$$$$
ATP-HTVS-4AF467728185
     RDKit          3D

 52 55  0  0  0  0  0  0  0  0999 V2000
  199.3684  184.3670  153.7421 O   0  0  0  0  0  0  0  0  0  0  0  0
  198.3051  184.6607  154.2869 C   0  0  0  0  0  0  0  0  0  0  0  0
  197.1585  183.9888  154.0831 N   0  0  0  0  0  0  0  0  0  0  0  0
  197.0131  182.8150  153.2323 C   0  0  1  0  0  0  0  0  0  0  0  0
  197.6634  181.5676  153.8105 C   0  0  0  0  0  0  0  0  0  0  0  0
  198.9442  181.1665  153.3727 C   0  0  0  0  0  0  0  0  0  0  0  0
  199.5513  180.0165  153.9150 C   0  0  0  0  0  0  0  0  0  0  0  0
  198.8820  179.2595  154.8974 C   0  0  0  0  0  0  0  0  0  0  0  0
  197.6048  179.6638  155.3353 C   0  0  0  0  0  0  0  0  0  0  0  0
  197.0010  180.8194  154.8030 C   0  0  0  0  0  0  0  0  0  0  0  0
  199.5292  178.0200  155.4896 C   0  0  1  0  0  0  0  0  0  0  0  0
  199.8118  178.2090  156.9258 N   0  0  1  0  0  0  0  0  0  0  0  0
  200.7958  177.2604  157.4775 C   0  0  2  0  0  0  0  0  0  0  0  0
  198.1939  185.8195  155.2448 C   0  0  0  0  0  0  0  0  0  0  0  0
  198.7993  187.0903  155.0256 C   0  0  0  0  0  0  0  0  0  0  0  0
  198.6009  188.1011  156.0109 C   0  0  0  0  0  0  0  0  0  0  0  0
  197.8795  187.8861  157.1314 N   0  0  0  0  0  0  0  0  0  0  0  0
  197.3301  186.6757  157.3700 C   0  0  0  0  0  0  0  0  0  0  0  0
  196.5828  186.5256  158.6481 C   0  0  0  0  0  0  0  0  0  0  0  0
  195.7648  185.3999  158.9095 C   0  0  0  0  0  0  0  0  0  0  0  0
  195.0721  185.3062  160.1296 C   0  0  0  0  0  0  0  0  0  0  0  0
  195.1417  186.2394  161.0981 N   0  0  0  0  0  0  0  0  0  0  0  0
  195.9191  187.3156  160.8640 C   0  0  0  0  0  0  0  0  0  0  0  0
  196.6558  187.4961  159.6792 C   0  0  0  0  0  0  0  0  0  0  0  0
  197.4789  185.6222  156.4450 C   0  0  0  0  0  0  0  0  0  0  0  0
  199.1726  189.3752  155.8098 C   0  0  0  0  0  0  0  0  0  0  0  0
  199.9379  189.6629  154.6646 C   0  0  0  0  0  0  0  0  0  0  0  0
  200.1345  188.6664  153.6944 C   0  0  0  0  0  0  0  0  0  0  0  0
  199.5658  187.3924  153.8698 C   0  0  0  0  0  0  0  0  0  0  0  0
  200.1369  179.1514  157.0704 H   0  0  0  0  0  0  0  0  0  0  0  0
  196.3221  184.3131  154.5489 H   0  0  0  0  0  0  0  0  0  0  0  0
  195.9480  182.6224  153.0991 H   0  0  0  0  0  0  0  0  0  0  0  0
  197.4137  183.0275  152.2409 H   0  0  0  0  0  0  0  0  0  0  0  0
  199.4668  181.7471  152.6274 H   0  0  0  0  0  0  0  0  0  0  0  0
  200.5328  179.7245  153.5684 H   0  0  0  0  0  0  0  0  0  0  0  0
  197.0955  179.0921  156.0983 H   0  0  0  0  0  0  0  0  0  0  0  0
  196.0279  181.1286  155.1586 H   0  0  0  0  0  0  0  0  0  0  0  0
  198.8802  177.1541  155.3498 H   0  0  0  0  0  0  0  0  0  0  0  0
  200.4579  177.8119  154.9550 H   0  0  0  0  0  0  0  0  0  0  0  0
  200.9397  177.4395  158.5447 H   0  0  0  0  0  0  0  0  0  0  0  0
  201.7630  177.3697  156.9839 H   0  0  0  0  0  0  0  0  0  0  0  0
  200.4539  176.2353  157.3387 H   0  0  0  0  0  0  0  0  0  0  0  0
  195.6291  184.6064  158.1909 H   0  0  0  0  0  0  0  0  0  0  0  0
  194.4372  184.4539  160.3180 H   0  0  0  0  0  0  0  0  0  0  0  0
  195.9629  188.0539  161.6525 H   0  0  0  0  0  0  0  0  0  0  0  0
  197.2621  188.3847  159.5704 H   0  0  0  0  0  0  0  0  0  0  0  0
  197.0623  184.6485  156.6508 H   0  0  0  0  0  0  0  0  0  0  0  0
  199.0051  190.1453  156.5483 H   0  0  0  0  0  0  0  0  0  0  0  0
  200.3555  190.6495  154.5226 H   0  0  0  0  0  0  0  0  0  0  0  0
  200.7125  188.8787  152.8064 H   0  0  0  0  0  0  0  0  0  0  0  0
  199.7393  186.6627  153.0941 H   0  0  0  0  0  0  0  0  0  0  0  0
  198.9244  178.0938  157.4286 H   0  0  0  0  0  0  0  0  0  0  0  0
  1  2  2  0
  2  3  1  0
  2 14  1  0
  3  4  1  0
  3 31  1  0
  4  5  1  0
  4 32  1  6
  4 33  1  0
  5  6  1  0
  5 10  2  0
  6  7  2  0
  6 34  1  0
  7  8  1  0
  7 35  1  0
  8  9  2  0
  8 11  1  0
  9 10  1  0
  9 36  1  0
 10 37  1  0
 11 12  1  0
 11 38  1  1
 11 39  1  0
 12 13  1  0
 12 30  1  6
 12 52  1  0
 13 40  1  1
 13 41  1  0
 13 42  1  0
 14 15  1  0
 14 25  2  0
 15 16  1  0
 15 29  2  0
 16 17  1  0
 16 26  2  0
 17 18  2  0
 18 19  1  0
 18 25  1  0
 19 20  2  0
 19 24  1  0
 20 21  1  0
 20 43  1  0
 21 22  2  0
 21 44  1  0
 22 23  1  0
 23 24  2  0
 23 45  1  0
 24 46  1  0
 25 47  1  0
 26 27  1  0
 26 48  1  0
 27 28  2  0
 27 49  1  0
 28 29  1  0
 28 50  1  0
 29 51  1  0
M  CHG  1  12   1
M  END
>  <s_epik_cmdline>  (474) 
J2VwaWtfcHl0aG9uJywgJy1waCcsICc3LjAwMDAwMCcsICctcGh0JywgJzIuMDAwMDAwJywgJy1tcycsICcxNicsICctdG4nLCAnOCcsICctbWEnLCAnMjAwJywgJy1pbWFlJywgJzxpbmZpbGUubWFlPicsICctb21hZScsICc8b3V0ZmlsZS5tYWU+Jw==

>  <s_epik_input>  (474) 
W2NIXTFbY0hdbltjSF1bY0hdYzEtYyhuYyhjMjMpW2NIXVtjSF1bY0hdW2NIXTMpW2NIXWMyQyg9TylbTkhdW0NIMl1jNFtjSF1bY0hdYyhbY0hdW2NIXTQpW0NIMl1bTkhdW0NIM10=

>  <s_i_glide_gridfile>  (474) 
ATP-Grid

>  <s_lp_Force_Field>  (474) 
OPLS_2005

>  <s_lp_Variant>  (474) 
m_270006bbb____11615466____8405570-1

>  <s_lp_label>  (474) 
1926_sdstereoexpander_1_neutralizer_1_epik_1_stereoizer_1

>  <s_m_source_file>  (474) 
ATP-VSW-LIGPREP-002-in.maegz

>  <s_sd_BIOSOLVEIT.INFINISEE\_QUERY\_NAME>  (474) 
Ref-Lig

>  <s_sd_BIOSOLVEIT.INFINISEE\_QUERY\_SMILES>  (474) 
S(c1nc2c(cc1C[NH2+]Cc3ccc(cc3)C[NH+](C)C)cccc2)Cc4ccccc4

>  <s_sd_BIOSOLVEIT.INFINISEE\_REACTION\_NAME>  (474) 
m_270006bbb

>  <s_sd_BIOSOLVEIT.INFINISEE\_REAGENT1\_SMILES>  (474) 
[R1*]NCc1ccc(cc1)CNC

>  <s_sd_BIOSOLVEIT.INFINISEE\_REAGENT2\_SMILES>  (474) 
[R1*]C(=O)c1c2c(nc(c3ccncc3)c1)cccc2

>  <s_sd_BIOSOLVEIT.INFINISEE\_SPACE>  (474) 
REALSpace_44bn_2023-08

>  <s_vsw_compound_code>  (474) 
61602

>  <s_vsw_variant>  (474) 
61602-1

>  <r_epik_Charging_Adjusted_Penalty>  (474) 
0.037032497907446803

>  <r_epik_Ionization_Penalty>  (474) 
0.023199999999999998

>  <r_epik_Ionization_Penalty_Charging>  (474) 
0.018499999999999999

>  <r_epik_Ionization_Penalty_Neutral>  (474) 
0.0047000000000000002

>  <r_epik_State_Penalty>  (474) 
0.018499999999999999

>  <r_i_docking_score>  (474) 
-5.0736909948387003

>  <r_i_glide_ecoul>  (474) 
-10.887286186218301

>  <r_i_glide_eff_state_penalty>  (474) 
0.018499999999999999

>  <r_i_glide_einternal>  (474) 
2.45971608161926

>  <r_i_glide_emodel>  (474) 
-61.110804140679399

>  <r_i_glide_energy>  (474) 
-42.934584617614703

>  <r_i_glide_erotb>  (474) 
0.79291257533905701

>  <r_i_glide_esite>  (474) 
-0.13002512763767099

>  <r_i_glide_evdw>  (474) 
-32.047298431396499

>  <r_i_glide_gscore>  (474) 
-5.0921909948386999

>  <r_i_glide_hbond>  (474) 
-0.20000000000000001

>  <r_i_glide_ligand_efficiency>  (474) 
-0.17495486189098999

>  <r_i_glide_ligand_efficiency_ln>  (474) 
-1.1617465801153199

>  <r_i_glide_ligand_efficiency_sa>  (474) 
-0.537516765319905

>  <r_i_glide_lipo>  (474) 
-1.51413269324424

>  <r_i_glide_metal>  (474) 
-0

>  <r_i_glide_rewards>  (474) 
-0.80548789979328095

>  <r_lp_Energy>  (474) 
18.268640999999999

>  <r_qp_ACxDN^.5/SA>  (474) 
0.0125272

>  <r_qp_CIQPlogS>  (474) 
-4.6280000000000001

>  <r_qp_EA(eV)>  (474) 
1.343

>  <r_qp_FISA>  (474) 
90.912000000000006

>  <r_qp_FOSA>  (474) 
177.11199999999999

>  <r_qp_IP(eV)>  (474) 
9.0869999999999997

>  <r_qp_Jm>  (474) 
0.0037145602771765898

>  <r_qp_PISA>  (474) 
465.76999999999998

>  <r_qp_PSA>  (474) 
71.397000000000006

>  <r_qp_PercentHumanOralAbsorption>  (474) 
94.894999999999996

>  <r_qp_QPPCaco>  (474) 
339.38

>  <r_qp_QPPMDCK>  (474) 
170.19900000000001

>  <r_qp_QPlogBB>  (474) 
-0.39700000000000002

>  <r_qp_QPlogHERG>  (474) 
-8.0449999999999999

>  <r_qp_QPlogKhsa>  (474) 
0.53400000000000003

>  <r_qp_QPlogKp>  (474) 
-3.0409999999999999

>  <r_qp_QPlogPC16>  (474) 
14.659000000000001

>  <r_qp_QPlogPo/w>  (474) 
3.8690000000000002

>  <r_qp_QPlogPoct>  (474) 
21.798999999999999

>  <r_qp_QPlogPw>  (474) 
13.279999999999999

>  <r_qp_QPlogS>  (474) 
-4.9720000000000004

>  <r_qp_QPpolrz>  (474) 
45.935000000000002

>  <r_qp_SASA>  (474) 
733.79399999999998

>  <r_qp_SAamideO>  (474) 
0

>  <r_qp_SAfluorine>  (474) 
0

>  <r_qp_WPSA>  (474) 
0

>  <r_qp_accptHB>  (474) 
6.5

>  <r_qp_dip^2/V>  (474) 
0.012578499999999999

>  <r_qp_dipole>  (474) 
4.0229999999999997

>  <r_qp_donorHB>  (474) 
2

>  <r_qp_glob>  (474) 
0.77966939999999996

>  <r_qp_mol_MW>  (474) 
382.464

>  <r_qp_volume>  (474) 
1286.7059999999999

>  <r_sd_BIOSOLVEIT.INFINISEE\_FTREES\_SIMILARITY>  (474) 
0.90300000000000002

>  <r_sd_BIOSOLVEIT.LOGP>  (474) 
2.9199999999999999

>  <r_sd_BIOSOLVEIT.MOLECULAR\_WEIGHT>  (474) 
383.47300000000001

>  <r_sd_BIOSOLVEIT.TPSA>  (474) 
71.489999999999995

>  <i_epik_Tot_Q>  (474) 
1

>  <i_epik_Tot_abs_Q>  (474) 
1

>  <i_f3d_flags>  (474) 
0

>  <i_i_glide_confnum>  (474) 
5

>  <i_i_glide_lignum>  (474) 
697

>  <i_i_glide_posenum>  (474) 
6

>  <i_i_glide_rotatable_bonds>  (474) 
7

>  <i_lp_mmshare_version>  (474) 
65135

>  <i_m_ct_format>  (474) 
2

>  <i_m_source_file_index>  (474) 
1926

>  <i_qp_#NandO>  (474) 
5

>  <i_qp_#acid>  (474) 
0

>  <i_qp_#amide>  (474) 
0

>  <i_qp_#amidine>  (474) 
0

>  <i_qp_#amine>  (474) 
1

>  <i_qp_#in34>  (474) 
0

>  <i_qp_#in56>  (474) 
22

>  <i_qp_#metab>  (474) 
5

>  <i_qp_#nonHatm>  (474) 
29

>  <i_qp_#noncon>  (474) 
0

>  <i_qp_#ringatoms>  (474) 
22

>  <i_qp_#rotor>  (474) 
6

>  <i_qp_#rtvFG>  (474) 
0

>  <i_qp_#stars>  (474) 
1

>  <i_qp_CNS>  (474) 
1

>  <i_qp_HumanOralAbsorption>  (474) 
3

>  <i_qp_RuleOfFive>  (474) 
0

>  <i_qp_RuleOfThree>  (474) 
0

>  <i_sd_BIOSOLVEIT.INFINISEE\_REAGENT1\_NAME>  (474) 
11615466

>  <i_sd_BIOSOLVEIT.INFINISEE\_REAGENT2\_NAME>  (474) 
8405570

>  <i_sd_BIOSOLVEIT.INFINISEE\_RESULT\_RANK>  (474) 
86139

>  <i_sd_version>  (474) 
0

>  <b_lp_Chiralities_Consistent>  (474) 
1

>  <b_sd_chiral_flag>  (474) 
0

>  <canonical_id>  (474) 
ATP-HTVS-4AF467728185

>  <compound_code>  (474) 
61602

>  <title>  (474) 
m_270006bbb____11615466____8405570

>  <variant>  (474) 
61602-1

>  <source_file>  (474) 
运行/运行/ATP-VSW/ATP-VSW-DOCK_HTVS_1-002_lib.maegz

>  <canonical_smiles>  (474) 
C[NH2+]Cc1ccc(CNC(=O)c2cc(-c3ccncc3)nc3ccccc23)cc1

>  <scaffold>  (474) 
O=C(NCc1ccccc1)c1cc(-c2ccncc2)nc2ccccc12

>  <molecular_formula>  (474) 
C24H23N4O+

$$$$
ATP-HTVS-4AF9C9C46A6A
     RDKit          3D

 65 68  0  0  0  0  0  0  0  0999 V2000
  197.2043  183.6656  155.6534 O   0  0  0  0  0  0  0  0  0  0  0  0
  197.1662  182.7320  156.4610 C   0  0  0  0  0  0  0  0  0  0  0  0
  197.5134  182.8573  157.7446 N   0  0  0  0  0  0  0  0  0  0  0  0
  198.0016  184.0784  158.3860 C   0  0  1  0  0  0  0  0  0  0  0  0
  196.9489  184.8216  159.1915 C   0  0  0  0  0  0  0  0  0  0  0  0
  197.2728  186.0859  159.7324 C   0  0  0  0  0  0  0  0  0  0  0  0
  196.3325  186.8106  160.4799 C   0  0  0  0  0  0  0  0  0  0  0  0
  195.0388  186.3007  160.6914 C   0  0  0  0  0  0  0  0  0  0  0  0
  194.1841  187.0626  161.4537 O   0  0  0  0  0  0  0  0  0  0  0  0
  192.8279  186.6535  161.5373 C   0  0  2  0  0  0  0  0  0  0  0  0
  194.6996  185.0435  160.1247 C   0  0  0  0  0  0  0  0  0  0  0  0
  195.6462  184.3068  159.3880 C   0  0  0  0  0  0  0  0  0  0  0  0
  199.2415  183.7198  159.2304 C   0  0  1  0  0  0  0  0  0  0  0  0
  200.3092  183.0337  158.4537 N   0  0  1  0  0  0  0  0  0  0  0  0
  200.7816  183.7922  157.2679 C   0  0  2  0  0  0  0  0  0  0  0  0
  201.4382  182.6268  159.3221 C   0  0  2  0  0  0  0  0  0  0  0  0
  196.7656  181.3132  156.0325 C   0  0  1  0  0  0  0  0  0  0  0  0
  197.7139  180.8002  155.0298 N   0  0  0  0  0  0  0  0  0  0  0  0
  198.8298  179.9842  155.3031 C   0  0  0  0  0  0  0  0  0  0  0  0
  199.4007  179.8003  153.9989 C   0  0  0  0  0  0  0  0  0  0  0  0
  198.7452  180.4848  153.0354 N   0  0  0  0  0  0  0  0  0  0  0  0
  197.7314  181.0189  153.6947 C   0  0  0  0  0  0  0  0  0  0  0  0
  196.7067  181.8764  152.9721 C   0  0  1  0  0  0  0  0  0  0  0  0
  196.0730  181.1085  151.9601 O   0  0  0  0  0  0  0  0  0  0  0  0
  196.7645  180.7319  150.8208 C   0  0  0  0  0  0  0  0  0  0  0  0
  196.1600  179.7617  149.9945 C   0  0  0  0  0  0  0  0  0  0  0  0
  196.8571  179.1804  148.9135 C   0  0  0  0  0  0  0  0  0  0  0  0
  198.1986  179.5578  148.6736 C   0  0  0  0  0  0  0  0  0  0  0  0
  198.7935  180.5407  149.4773 C   0  0  0  0  0  0  0  0  0  0  0  0
  198.0637  181.1681  150.4843 C   0  0  0  0  0  0  0  0  0  0  0  0
  200.5391  178.9724  153.9250 C   0  0  0  0  0  0  0  0  0  0  0  0
  201.1331  178.3558  155.0687 C   0  0  0  0  0  0  0  0  0  0  0  0
  200.5504  178.5835  156.3532 C   0  0  0  0  0  0  0  0  0  0  0  0
  199.3886  179.4006  156.4910 C   0  0  0  0  0  0  0  0  0  0  0  0
  197.3950  182.0305  158.3156 H   0  0  0  0  0  0  0  0  0  0  0  0
  198.2744  184.8128  157.6240 H   0  0  0  0  0  0  0  0  0  0  0  0
  198.2517  186.5147  159.5742 H   0  0  0  0  0  0  0  0  0  0  0  0
  196.6073  187.7689  160.9033 H   0  0  0  0  0  0  0  0  0  0  0  0
  192.2743  187.3635  162.1487 H   0  0  0  0  0  0  0  0  0  0  0  0
  192.7494  185.6799  162.0186 H   0  0  0  0  0  0  0  0  0  0  0  0
  192.3532  186.6205  160.5546 H   0  0  0  0  0  0  0  0  0  0  0  0
  193.7213  184.6106  160.2497 H   0  0  0  0  0  0  0  0  0  0  0  0
  195.3492  183.3535  158.9776 H   0  0  0  0  0  0  0  0  0  0  0  0
  199.6490  184.6082  159.7099 H   0  0  0  0  0  0  0  0  0  0  0  0
  198.9108  183.0564  160.0347 H   0  0  0  0  0  0  0  0  0  0  0  0
  201.2045  184.7537  157.5661 H   0  0  0  0  0  0  0  0  0  0  0  0
  199.9880  183.9742  156.5427 H   0  0  0  0  0  0  0  0  0  0  0  0
  201.5438  183.2245  156.7318 H   0  0  0  0  0  0  0  0  0  0  0  0
  201.9221  183.4971  159.7676 H   0  0  0  0  0  0  0  0  0  0  0  0
  202.1841  182.0829  158.7447 H   0  0  0  0  0  0  0  0  0  0  0  0
  201.1155  181.9749  160.1347 H   0  0  0  0  0  0  0  0  0  0  0  0
  196.7443  180.6407  156.8992 H   0  0  0  0  0  0  0  0  0  0  0  0
  195.7480  181.3220  155.6166 H   0  0  0  0  0  0  0  0  0  0  0  0
  195.9414  182.2482  153.6394 H   0  0  0  0  0  0  0  0  0  0  0  0
  197.1867  182.7562  152.5673 H   0  0  0  0  0  0  0  0  0  0  0  0
  195.1562  179.4039  150.2474 H   0  0  0  0  0  0  0  0  0  0  0  0
  196.3749  178.4547  148.2708 H   0  0  0  0  0  0  0  0  0  0  0  0
  198.7722  179.0905  147.8630 H   0  0  0  0  0  0  0  0  0  0  0  0
  199.8463  180.7700  149.3717 H   0  0  0  0  0  0  0  0  0  0  0  0
  198.5692  181.9436  151.0880 H   0  0  0  0  0  0  0  0  0  0  0  0
  200.9689  178.8174  152.9566 H   0  0  0  0  0  0  0  0  0  0  0  0
  202.0012  177.7162  154.9495 H   0  0  0  0  0  0  0  0  0  0  0  0
  200.9699  178.0856  157.2201 H   0  0  0  0  0  0  0  0  0  0  0  0
  198.8964  179.5352  157.4615 H   0  0  0  0  0  0  0  0  0  0  0  0
  199.8934  182.1850  158.0917 H   0  0  0  0  0  0  0  0  0  0  0  0
  1  2  2  0
  2  3  1  0
  2 17  1  0
  3  4  1  0
  3 35  1  0
  4  5  1  0
  4 13  1  0
  4 36  1  6
  5  6  1  0
  5 12  2  0
  6  7  2  0
  6 37  1  0
  7  8  1  0
  7 38  1  0
  8  9  1  0
  8 11  2  0
  9 10  1  0
 10 39  1  1
 10 40  1  0
 10 41  1  0
 11 12  1  0
 11 42  1  0
 12 43  1  0
 13 14  1  0
 13 44  1  1
 13 45  1  0
 14 15  1  0
 14 16  1  0
 14 65  1  6
 15 46  1  1
 15 47  1  0
 15 48  1  0
 16 49  1  1
 16 50  1  0
 16 51  1  0
 17 18  1  0
 17 52  1  1
 17 53  1  0
 18 19  1  0
 18 22  1  0
 19 20  1  0
 19 34  2  0
 20 21  1  0
 20 31  2  0
 21 22  2  0
 22 23  1  0
 23 24  1  0
 23 54  1  1
 23 55  1  0
 24 25  1  0
 25 26  2  0
 25 30  1  0
 26 27  1  0
 26 56  1  0
 27 28  2  0
 27 57  1  0
 28 29  1  0
 28 58  1  0
 29 30  2  0
 29 59  1  0
 30 60  1  0
 31 32  1  0
 31 61  1  0
 32 33  2  0
 32 62  1  0
 33 34  1  0
 33 63  1  0
 34 64  1  0
M  CHG  1  14   1
M  END
>  <s_epik_cmdline>  (475) 
J2VwaWtfcHl0aG9uJywgJy1waCcsICc3LjAwMDAwMCcsICctcGh0JywgJzIuMDAwMDAwJywgJy1tcycsICcxNicsICctdG4nLCAnOCcsICctbWEnLCAnMjAwJywgJy1pbWFlJywgJzxpbmZpbGUubWFlPicsICctb21hZScsICc8b3V0ZmlsZS5tYWU+Jw==

>  <s_epik_input>  (475) 
W0NIM11PYyhbY0hdW2NIXTEpW2NIXVtjSF1jMVtDQEBIXShbQ0gyXU4oW0NIM10pW0NIM10pW05IXUMoPU8pW0NIMl1uMmMobmMoYzIzKVtjSF1bY0hdW2NIXVtjSF0zKVtDSDJdT2M0W2NIXVtjSF1bY0hdW2NIXVtjSF00

>  <s_i_glide_gridfile>  (475) 
ATP-Grid

>  <s_lp_Force_Field>  (475) 
OPLS_2005

>  <s_lp_Variant>  (475) 
m_527bcb____9985270____214828-2

>  <s_lp_label>  (475) 
1591_sdstereoexpander_2_neutralizer_1_epik_1_stereoizer_1

>  <s_m_source_file>  (475) 
ATP-VSW-LIGPREP-002-in.maegz

>  <s_sd_BIOSOLVEIT.INFINISEE\_QUERY\_NAME>  (475) 
Ref-Lig

>  <s_sd_BIOSOLVEIT.INFINISEE\_QUERY\_SMILES>  (475) 
S(c1nc2c(cc1C[NH2+]Cc3ccc(cc3)C[NH+](C)C)cccc2)Cc4ccccc4

>  <s_sd_BIOSOLVEIT.INFINISEE\_REACTION\_NAME>  (475) 
m_527bcb

>  <s_sd_BIOSOLVEIT.INFINISEE\_REAGENT1\_SMILES>  (475) 
[R1*]NC(c1ccc(OC)cc1)CN(C)C

>  <s_sd_BIOSOLVEIT.INFINISEE\_REAGENT2\_SMILES>  (475) 
[R1*]C(=O)CN1c2c(N=C1COc3ccccc3)cccc2

>  <s_sd_BIOSOLVEIT.INFINISEE\_SPACE>  (475) 
REALSpace_44bn_2023-08

>  <s_vsw_compound_code>  (475) 
50882

>  <s_vsw_variant>  (475) 
50882-2

>  <r_epik_Charging_Adjusted_Penalty>  (475) 
0.040174073078464503

>  <r_epik_Ionization_Penalty>  (475) 
0.030700000000000002

>  <r_epik_Ionization_Penalty_Charging>  (475) 
0.0091000000000000004

>  <r_epik_Ionization_Penalty_Neutral>  (475) 
0.021499999999999998

>  <r_epik_State_Penalty>  (475) 
0.031

>  <r_i_docking_score>  (475) 
-4.3303417967051603

>  <r_i_glide_ecoul>  (475) 
-5.4137196540832502

>  <r_i_glide_eff_state_penalty>  (475) 
0.031

>  <r_i_glide_einternal>  (475) 
7.0373253822326696

>  <r_i_glide_emodel>  (475) 
-55.0834739626182

>  <r_i_glide_energy>  (475) 
-43.8613247871399

>  <r_i_glide_erotb>  (475) 
0.85747139830141095

>  <r_i_glide_esite>  (475) 
-0.10374202303615

>  <r_i_glide_evdw>  (475) 
-38.447605133056598

>  <r_i_glide_gscore>  (475) 
-4.36134179670516

>  <r_i_glide_hbond>  (475) 
0

>  <r_i_glide_ligand_efficiency>  (475) 
-0.12736299402074

>  <r_i_glide_ligand_efficiency_ln>  (475) 
-0.95669396486537694

>  <r_i_glide_ligand_efficiency_sa>  (475) 
-0.41260665799062302

>  <r_i_glide_lipo>  (475) 
-2.1049059672051098

>  <r_i_glide_metal>  (475) 
-0

>  <r_i_glide_rewards>  (475) 
-0.275726999999999

>  <r_lp_Energy>  (475) 
31.261486999999999

>  <r_lp_tautomer_probability>  (475) 
1

>  <r_qp_ACxDN^.5/SA>  (475) 
0.0097140000000000004

>  <r_qp_CIQPlogS>  (475) 
-5.0979999999999999

>  <r_qp_EA(eV)>  (475) 
0.22700000000000001

>  <r_qp_FISA>  (475) 
51.006

>  <r_qp_FOSA>  (475) 
260.548

>  <r_qp_IP(eV)>  (475) 
8.6620000000000008

>  <r_qp_Jm>  (475) 
0.81028279165776995

>  <r_qp_PISA>  (475) 
460.53100000000001

>  <r_qp_PSA>  (475) 
65.733999999999995

>  <r_qp_PercentHumanOralAbsorption>  (475) 
100

>  <r_qp_QPPCaco>  (475) 
512.24000000000001

>  <r_qp_QPPMDCK>  (475) 
436.50400000000002

>  <r_qp_QPlogBB>  (475) 
-0.16900000000000001

>  <r_qp_QPlogHERG>  (475) 
-6.2839999999999998

>  <r_qp_QPlogKhsa>  (475) 
0.308

>  <r_qp_QPlogKp>  (475) 
-1.9399999999999999

>  <r_qp_QPlogPC16>  (475) 
15.534000000000001

>  <r_qp_QPlogPo/w>  (475) 
4.2590000000000003

>  <r_qp_QPlogPoct>  (475) 
22.146000000000001

>  <r_qp_QPlogPw>  (475) 
13.558999999999999

>  <r_qp_QPlogS>  (475) 
-3.8130000000000002

>  <r_qp_QPpolrz>  (475) 
49.804000000000002

>  <r_qp_SASA>  (475) 
772.08500000000004

>  <r_qp_SAamideO>  (475) 
25.079999999999998

>  <r_qp_SAfluorine>  (475) 
0

>  <r_qp_WPSA>  (475) 
0

>  <r_qp_accptHB>  (475) 
7.5

>  <r_qp_dip^2/V>  (475) 
0.0189573

>  <r_qp_dipole>  (475) 
5.2409999999999997

>  <r_qp_donorHB>  (475) 
1

>  <r_qp_glob>  (475) 
0.80199229999999999

>  <r_qp_mol_MW>  (475) 
458.55900000000003

>  <r_qp_volume>  (475) 
1448.7909999999999

>  <r_sd_BIOSOLVEIT.INFINISEE\_FTREES\_SIMILARITY>  (475) 
0.90600000000000003

>  <r_sd_BIOSOLVEIT.LOGP>  (475) 
2.6259000000000001

>  <r_sd_BIOSOLVEIT.MOLECULAR\_WEIGHT>  (475) 
459.56700000000001

>  <r_sd_BIOSOLVEIT.TPSA>  (475) 
69.819999999999993

>  <i_epik_Tot_Q>  (475) 
1

>  <i_epik_Tot_abs_Q>  (475) 
1

>  <i_f3d_flags>  (475) 
0

>  <i_i_glide_confnum>  (475) 
14

>  <i_i_glide_lignum>  (475) 
555

>  <i_i_glide_posenum>  (475) 
18

>  <i_i_glide_rotatable_bonds>  (475) 
11

>  <i_lp_mmshare_version>  (475) 
65135

>  <i_m_ct_format>  (475) 
2

>  <i_m_source_file_index>  (475) 
1591

>  <i_qp_#NandO>  (475) 
7

>  <i_qp_#acid>  (475) 
0

>  <i_qp_#amide>  (475) 
1

>  <i_qp_#amidine>  (475) 
0

>  <i_qp_#amine>  (475) 
1

>  <i_qp_#in34>  (475) 
0

>  <i_qp_#in56>  (475) 
21

>  <i_qp_#metab>  (475) 
6

>  <i_qp_#nonHatm>  (475) 
34

>  <i_qp_#noncon>  (475) 
0

>  <i_qp_#ringatoms>  (475) 
21

>  <i_qp_#rotor>  (475) 
10

>  <i_qp_#rtvFG>  (475) 
0

>  <i_qp_#stars>  (475) 
1

>  <i_qp_CNS>  (475) 
1

>  <i_qp_HumanOralAbsorption>  (475) 
3

>  <i_qp_RuleOfFive>  (475) 
0

>  <i_qp_RuleOfThree>  (475) 
0

>  <i_sd_BIOSOLVEIT.INFINISEE\_REAGENT1\_NAME>  (475) 
9985270

>  <i_sd_BIOSOLVEIT.INFINISEE\_REAGENT2\_NAME>  (475) 
214828

>  <i_sd_BIOSOLVEIT.INFINISEE\_RESULT\_RANK>  (475) 
65181

>  <i_sd_version>  (475) 
0

>  <b_lp_Chiralities_Consistent>  (475) 
1

>  <b_sd_chiral_flag>  (475) 
0

>  <canonical_id>  (475) 
ATP-HTVS-4AF9C9C46A6A

>  <compound_code>  (475) 
50882

>  <title>  (475) 
m_527bcb____9985270____214828

>  <variant>  (475) 
50882-2

>  <source_file>  (475) 
运行/运行/ATP-VSW/ATP-VSW-DOCK_HTVS_1-002_lib.maegz

>  <canonical_smiles>  (475) 
COc1ccc([C@@H](C[NH+](C)C)NC(=O)Cn2c(COc3ccccc3)nc3ccccc32)cc1

>  <scaffold>  (475) 
O=C(Cn1c(COc2ccccc2)nc2ccccc21)NCc1ccccc1

>  <molecular_formula>  (475) 
C27H31N4O3+

$$$$
ATP-HTVS-4B144E96CFBE
     RDKit          3D

 58 61  0  0  0  0  0  0  0  0999 V2000
  198.5235  183.1366  152.8973 F   0  0  0  0  0  0  0  0  0  0  0  0
  198.0948  183.8569  151.8323 C   0  0  0  0  0  0  0  0  0  0  0  0
  198.3936  185.2358  151.7193 C   0  0  0  0  0  0  0  0  0  0  0  0
  197.9670  185.9535  150.5825 C   0  0  0  0  0  0  0  0  0  0  0  0
  197.2243  185.3047  149.5785 C   0  0  0  0  0  0  0  0  0  0  0  0
  196.9055  183.9385  149.7104 C   0  0  0  0  0  0  0  0  0  0  0  0
  197.3364  183.2177  150.8397 C   0  0  0  0  0  0  0  0  0  0  0  0
  199.1716  185.9494  152.8101 C   0  0  1  0  0  0  0  0  0  0  0  0
  198.3992  186.0309  154.1327 C   0  0  0  0  0  0  0  0  0  0  0  0
  197.5085  185.2150  154.3964 O   0  0  0  0  0  0  0  0  0  0  0  0
  198.7841  187.0421  154.9442 N   0  0  0  0  0  0  0  0  0  0  0  0
  198.2756  187.3495  156.2387 C   0  0  0  0  0  0  0  0  0  0  0  0
  197.2594  186.6317  156.7604 N   0  0  0  0  0  0  0  0  0  0  0  0
  196.7596  186.9342  157.9460 C   0  0  0  0  0  0  0  0  0  0  0  0
  197.2925  187.9345  158.7953 C   0  0  0  0  0  0  0  0  0  0  0  0
  196.8649  188.1192  160.1253 N   0  0  0  0  0  0  0  0  0  0  0  0
  195.8470  187.3197  160.8067 C   0  0  1  0  0  0  0  0  0  0  0  0
  195.7689  185.8577  160.4100 C   0  0  0  0  0  0  0  0  0  0  0  0
  194.5454  185.2243  160.1588 C   0  0  0  0  0  0  0  0  0  0  0  0
  194.5053  183.9053  159.6790 C   0  0  0  0  0  0  0  0  0  0  0  0
  195.6906  183.1996  159.4098 C   0  0  0  0  0  0  0  0  0  0  0  0
  196.9230  183.8271  159.6268 C   0  0  0  0  0  0  0  0  0  0  0  0
  196.9699  185.1384  160.1020 C   0  0  0  0  0  0  0  0  0  0  0  0
  195.6501  181.8335  158.7981 C   0  0  1  0  0  0  0  0  0  0  0  0
  195.5557  181.7824  157.3121 N   0  0  1  0  0  0  0  0  0  0  0  0
  196.6567  182.5273  156.6183 C   0  0  2  0  0  0  0  0  0  0  0  0
  198.3240  188.7367  158.2398 C   0  0  0  0  0  0  0  0  0  0  0  0
  198.8205  188.4511  156.9413 C   0  0  0  0  0  0  0  0  0  0  0  0
  199.8162  189.2756  156.3504 C   0  0  0  0  0  0  0  0  0  0  0  0
  200.3210  190.3765  157.0612 C   0  0  0  0  0  0  0  0  0  0  0  0
  199.8659  190.6441  158.3656 C   0  0  0  0  0  0  0  0  0  0  0  0
  198.8847  189.8179  158.9596 C   0  0  0  0  0  0  0  0  0  0  0  0
  195.5406  180.8175  157.0624 H   0  0  0  0  0  0  0  0  0  0  0  0
  198.1952  187.0035  150.4787 H   0  0  0  0  0  0  0  0  0  0  0  0
  196.8892  185.8496  148.7069 H   0  0  0  0  0  0  0  0  0  0  0  0
  196.3408  183.4375  148.9367 H   0  0  0  0  0  0  0  0  0  0  0  0
  197.0933  182.1732  150.9535 H   0  0  0  0  0  0  0  0  0  0  0  0
  200.1144  185.4365  152.9862 H   0  0  0  0  0  0  0  0  0  0  0  0
  199.4221  186.9591  152.4887 H   0  0  0  0  0  0  0  0  0  0  0  0
  199.4886  187.6794  154.5743 H   0  0  0  0  0  0  0  0  0  0  0  0
  195.9437  186.2742  158.2377 H   0  0  0  0  0  0  0  0  0  0  0  0
  197.3348  188.7825  160.7137 H   0  0  0  0  0  0  0  0  0  0  0  0
  195.9526  187.4183  161.8877 H   0  0  0  0  0  0  0  0  0  0  0  0
  194.8873  187.7680  160.5724 H   0  0  0  0  0  0  0  0  0  0  0  0
  193.6323  185.7613  160.3435 H   0  0  0  0  0  0  0  0  0  0  0  0
  193.5414  183.4604  159.4605 H   0  0  0  0  0  0  0  0  0  0  0  0
  197.8493  183.3846  159.3089 H   0  0  0  0  0  0  0  0  0  0  0  0
  197.9387  185.6183  160.3008 H   0  0  0  0  0  0  0  0  0  0  0  0
  196.5447  181.2796  159.1029 H   0  0  0  0  0  0  0  0  0  0  0  0
  194.7947  181.2908  159.2235 H   0  0  0  0  0  0  0  0  0  0  0  0
  196.5131  182.4759  155.5507 H   0  0  0  0  0  0  0  0  0  0  0  0
  197.6046  182.0675  156.8776 H   0  0  0  0  0  0  0  0  0  0  0  0
  196.6940  183.5645  156.8829 H   0  0  0  0  0  0  0  0  0  0  0  0
  200.1787  189.0826  155.3454 H   0  0  0  0  0  0  0  0  0  0  0  0
  201.0666  190.9928  156.5931 H   0  0  0  0  0  0  0  0  0  0  0  0
  200.2664  191.5000  158.9020 H   0  0  0  0  0  0  0  0  0  0  0  0
  198.5614  190.0707  159.9608 H   0  0  0  0  0  0  0  0  0  0  0  0
  194.6770  182.2400  157.0140 H   0  0  0  0  0  0  0  0  0  0  0  0
  1  2  1  0
  2  3  1  0
  2  7  2  0
  3  4  2  0
  3  8  1  0
  4  5  1  0
  4 34  1  0
  5  6  2  0
  5 35  1  0
  6  7  1  0
  6 36  1  0
  7 37  1  0
  8  9  1  0
  8 38  1  1
  8 39  1  0
  9 10  2  0
  9 11  1  0
 11 12  1  0
 11 40  1  0
 12 13  1  0
 12 28  2  0
 13 14  2  0
 14 15  1  0
 14 41  1  0
 15 16  1  0
 15 27  2  0
 16 17  1  0
 16 42  1  0
 17 18  1  0
 17 43  1  1
 17 44  1  0
 18 19  1  0
 18 23  2  0
 19 20  2  0
 19 45  1  0
 20 21  1  0
 20 46  1  0
 21 22  2  0
 21 24  1  0
 22 23  1  0
 22 47  1  0
 23 48  1  0
 24 25  1  0
 24 49  1  6
 24 50  1  0
 25 26  1  0
 25 33  1  6
 25 58  1  0
 26 51  1  6
 26 52  1  0
 26 53  1  0
 27 28  1  0
 27 32  1  0
 28 29  1  0
 29 30  2  0
 29 54  1  0
 30 31  1  0
 30 55  1  0
 31 32  2  0
 31 56  1  0
 32 57  1  0
M  CHG  1  25   1
M  END
>  <s_epik_cmdline>  (476) 
J2VwaWtfcHl0aG9uJywgJy1waCcsICc3LjAwMDAwMCcsICctcGh0JywgJzIuMDAwMDAwJywgJy1tcycsICcxNicsICctdG4nLCAnOCcsICctbWEnLCAnMjAwJywgJy1pbWFlJywgJzxpbmZpbGUubWFlPicsICctb21hZScsICc8b3V0ZmlsZS5tYWU+Jw==

>  <s_epik_input>  (476) 
W2NIXTFbY0hdW2NIXVtjSF1jKGMxRilbQ0gyXUMoPU8pW05IXWMoYyhjMjMpW2NIXVtjSF1bY0hdW2NIXTMpbltjSF1jMltOSF1bQ0gyXWM0W2NIXVtjSF1jKFtjSF1bY0hdNClbQ0gyXVtOSF1bQ0gzXQ==

>  <s_i_glide_gridfile>  (476) 
ATP-Grid

>  <s_lp_Force_Field>  (476) 
OPLS_2005

>  <s_lp_Variant>  (476) 
rxn502b____EMOL488417____EMOL7515103____EMOL108753565-1

>  <s_lp_label>  (476) 
2360_sdstereoexpander_1_neutralizer_1_epik_1_stereoizer_1

>  <s_m_source_file>  (476) 
ATP-VSW-LIGPREP-002-in.maegz

>  <s_sd_BIOSOLVEIT.INFINISEE\_QUERY\_NAME>  (476) 
Ref-Lig

>  <s_sd_BIOSOLVEIT.INFINISEE\_QUERY\_SMILES>  (476) 
S(c1nc2c(cc1C[NH2+]Cc3ccc(cc3)C[NH+](C)C)cccc2)Cc4ccccc4

>  <s_sd_BIOSOLVEIT.INFINISEE\_REACTION\_NAME>  (476) 
rxn502b

>  <s_sd_BIOSOLVEIT.INFINISEE\_REAGENT1\_NAME>  (476) 
EMOL488417

>  <s_sd_BIOSOLVEIT.INFINISEE\_REAGENT1\_SMILES>  (476) 
Fc1c(cccc1)CC(=O)O

>  <s_sd_BIOSOLVEIT.INFINISEE\_REAGENT2\_NAME>  (476) 
EMOL7515103

>  <s_sd_BIOSOLVEIT.INFINISEE\_REAGENT2\_SMILES>  (476) 
Brc1c2c(c(nc1)N)cccc2

>  <s_sd_BIOSOLVEIT.INFINISEE\_REAGENT3\_NAME>  (476) 
EMOL108753565

>  <s_sd_BIOSOLVEIT.INFINISEE\_REAGENT3\_SMILES>  (476) 
N(Cc1ccc(cc1)CN)C

>  <s_sd_BIOSOLVEIT.INFINISEE\_SPACE>  (476) 
eXplore_7tr_2022-12

>  <s_vsw_compound_code>  (476) 
75490

>  <s_vsw_variant>  (476) 
75490-1

>  <r_epik_Charging_Adjusted_Penalty>  (476) 
0.0548732525571793

>  <r_epik_Ionization_Penalty>  (476) 
0.032899999999999999

>  <r_epik_Ionization_Penalty_Charging>  (476) 
0.016

>  <r_epik_Ionization_Penalty_Neutral>  (476) 
0.017000000000000001

>  <r_epik_State_Penalty>  (476) 
0.038899999999999997

>  <r_i_docking_score>  (476) 
-6.0984706894425598

>  <r_i_glide_ecoul>  (476) 
-10.1344766616821

>  <r_i_glide_eff_state_penalty>  (476) 
0.038899999999999997

>  <r_i_glide_einternal>  (476) 
2.3081412315368701

>  <r_i_glide_emodel>  (476) 
-70.1814095711037

>  <r_i_glide_energy>  (476) 
-45.950623512268102

>  <r_i_glide_erotb>  (476) 
0.75408111517189202

>  <r_i_glide_esite>  (476) 
-0.11632007091351

>  <r_i_glide_evdw>  (476) 
-35.816146850585902

>  <r_i_glide_gscore>  (476) 
-6.1373706894425597

>  <r_i_glide_hbond>  (476) 
-0.35653222605842699

>  <r_i_glide_ligand_efficiency>  (476) 
-0.19057720904507999

>  <r_i_glide_ligand_efficiency_ln>  (476) 
-1.36561382539868

>  <r_i_glide_ligand_efficiency_sa>  (476) 
-0.60504492353967199

>  <r_i_glide_lipo>  (476) 
-2.4020018681336301

>  <r_i_glide_metal>  (476) 
-0

>  <r_i_glide_rewards>  (476) 
-0.70561879772727099

>  <r_lp_Energy>  (476) 
26.973071999999998

>  <r_qp_ACxDN^.5/SA>  (476) 
0.0128053

>  <r_qp_CIQPlogS>  (476) 
-5.6369999999999996

>  <r_qp_EA(eV)>  (476) 
0.84899999999999998

>  <r_qp_FISA>  (476) 
78.816000000000003

>  <r_qp_FOSA>  (476) 
196.84999999999999

>  <r_qp_IP(eV)>  (476) 
7.6719999999999997

>  <r_qp_Jm>  (476) 
0.00094809853415485997

>  <r_qp_PISA>  (476) 
501.851

>  <r_qp_PSA>  (476) 
70.757999999999996

>  <r_qp_PercentHumanOralAbsorption>  (476) 
100

>  <r_qp_QPPCaco>  (476) 
441.96699999999998

>  <r_qp_QPPMDCK>  (476) 
347.88099999999997

>  <r_qp_QPlogBB>  (476) 
-0.35999999999999999

>  <r_qp_QPlogHERG>  (476) 
-8.6280000000000001

>  <r_qp_QPlogKhsa>  (476) 
0.80800000000000005

>  <r_qp_QPlogKp>  (476) 
-2.4990000000000001

>  <r_qp_QPlogPC16>  (476) 
16.300000000000001

>  <r_qp_QPlogPo/w>  (476) 
4.9770000000000003

>  <r_qp_QPlogPoct>  (476) 
25.283999999999999

>  <r_qp_QPlogPw>  (476) 
14.173

>  <r_qp_QPlogS>  (476) 
-6.1559999999999997

>  <r_qp_QPpolrz>  (476) 
50.488999999999997

>  <r_qp_SASA>  (476) 
811.55999999999995

>  <r_qp_SAamideO>  (476) 
0

>  <r_qp_SAfluorine>  (476) 
34.043999999999997

>  <r_qp_WPSA>  (476) 
34.043999999999997

>  <r_qp_accptHB>  (476) 
6

>  <r_qp_dip^2/V>  (476) 
0.063325900000000004

>  <r_qp_dipole>  (476) 
9.4960000000000004

>  <r_qp_donorHB>  (476) 
3

>  <r_qp_glob>  (476) 
0.7542451

>  <r_qp_mol_MW>  (476) 
428.50799999999998

>  <r_qp_volume>  (476) 
1423.9739999999999

>  <r_sd_BIOSOLVEIT.INFINISEE\_FTREES\_SIMILARITY>  (476) 
0.92000000000000004

>  <r_sd_BIOSOLVEIT.LOGP>  (476) 
3.8603999999999998

>  <r_sd_BIOSOLVEIT.MOLECULAR\_WEIGHT>  (476) 
429.51600000000002

>  <r_sd_BIOSOLVEIT.TPSA>  (476) 
70.629999999999995

>  <i_epik_Tot_Q>  (476) 
1

>  <i_epik_Tot_abs_Q>  (476) 
1

>  <i_f3d_flags>  (476) 
0

>  <i_i_glide_confnum>  (476) 
5

>  <i_i_glide_lignum>  (476) 
964

>  <i_i_glide_posenum>  (476) 
12

>  <i_i_glide_rotatable_bonds>  (476) 
9

>  <i_lp_mmshare_version>  (476) 
65135

>  <i_m_ct_format>  (476) 
2

>  <i_m_source_file_index>  (476) 
2360

>  <i_qp_#NandO>  (476) 
5

>  <i_qp_#acid>  (476) 
0

>  <i_qp_#amide>  (476) 
0

>  <i_qp_#amidine>  (476) 
0

>  <i_qp_#amine>  (476) 
1

>  <i_qp_#in34>  (476) 
0

>  <i_qp_#in56>  (476) 
22

>  <i_qp_#metab>  (476) 
8

>  <i_qp_#nonHatm>  (476) 
32

>  <i_qp_#noncon>  (476) 
0

>  <i_qp_#ringatoms>  (476) 
22

>  <i_qp_#rotor>  (476) 
8

>  <i_qp_#rtvFG>  (476) 
0

>  <i_qp_#stars>  (476) 
2

>  <i_qp_CNS>  (476) 
0

>  <i_qp_HumanOralAbsorption>  (476) 
3

>  <i_qp_RuleOfFive>  (476) 
0

>  <i_qp_RuleOfThree>  (476) 
2

>  <i_sd_BIOSOLVEIT.INFINISEE\_RESULT\_RANK>  (476) 
16763

>  <i_sd_version>  (476) 
0

>  <b_lp_Chiralities_Consistent>  (476) 
1

>  <b_sd_chiral_flag>  (476) 
0

>  <canonical_id>  (476) 
ATP-HTVS-4B144E96CFBE

>  <compound_code>  (476) 
75490

>  <title>  (476) 
rxn502b____EMOL488417____EMOL7515103____EMOL108753565

>  <variant>  (476) 
75490-1

>  <source_file>  (476) 
运行/运行/ATP-VSW/ATP-VSW-DOCK_HTVS_1-002_lib.maegz

>  <canonical_smiles>  (476) 
C[NH2+]Cc1ccc(CNc2cnc(NC(=O)Cc3ccccc3F)c3ccccc23)cc1

>  <scaffold>  (476) 
O=C(Cc1ccccc1)Nc1ncc(NCc2ccccc2)c2ccccc12

>  <molecular_formula>  (476) 
C26H26FN4O+

$$$$
ATP-HTVS-4B5D35D2395E
     RDKit          3D

 65 68  0  0  0  0  0  0  0  0999 V2000
  196.7405  178.3324  148.2854 N   0  0  0  0  0  0  0  0  0  0  0  0
  197.3401  179.0965  148.9102 C   0  0  0  0  0  0  0  0  0  0  0  0
  198.0791  180.0710  149.6812 C   0  0  0  0  0  0  0  0  0  0  0  0
  197.3780  181.0681  150.3942 C   0  0  0  0  0  0  0  0  0  0  0  0
  198.0501  182.0482  151.1483 C   0  0  0  0  0  0  0  0  0  0  0  0
  199.4647  182.0548  151.1410 C   0  0  0  0  0  0  0  0  0  0  0  0
  200.1653  181.0467  150.4610 C   0  0  0  0  0  0  0  0  0  0  0  0
  199.4815  180.0387  149.7407 C   0  0  0  0  0  0  0  0  0  0  0  0
  197.2833  182.9823  152.0799 C   0  0  2  0  0  0  0  0  0  0  0  0
  196.8098  182.3500  153.3431 N   0  0  0  0  0  0  0  0  0  0  0  0
  197.6226  181.5786  154.1948 C   0  0  0  0  0  0  0  0  0  0  0  0
  198.6457  180.9311  153.5926 N   0  0  0  0  0  0  0  0  0  0  0  0
  199.3830  180.1059  154.3550 C   0  0  0  0  0  0  0  0  0  0  0  0
  199.1701  179.8980  155.7769 C   0  0  0  0  0  0  0  0  0  0  0  0
  198.1809  180.6247  156.3735 N   0  0  0  0  0  0  0  0  0  0  0  0
  197.4040  181.4494  155.6250 C   0  0  0  0  0  0  0  0  0  0  0  0
  196.4353  182.2269  156.2996 N   0  0  0  0  0  0  0  0  0  0  0  0
  195.9926  181.8368  157.6238 C   0  0  1  0  0  0  0  0  0  0  0  0
  195.6893  183.0397  158.4758 C   0  0  0  0  0  0  0  0  0  0  0  0
  196.7252  183.9519  158.7749 C   0  0  0  0  0  0  0  0  0  0  0  0
  196.4476  185.0922  159.5544 C   0  0  0  0  0  0  0  0  0  0  0  0
  195.1477  185.2761  160.0569 C   0  0  0  0  0  0  0  0  0  0  0  0
  194.1195  184.3736  159.7418 C   0  0  0  0  0  0  0  0  0  0  0  0
  194.3816  183.2496  158.9399 C   0  0  0  0  0  0  0  0  0  0  0  0
  197.5095  186.1328  159.8267 C   0  0  1  0  0  0  0  0  0  0  0  0
  197.7398  187.0630  158.6887 N   0  0  1  0  0  0  0  0  0  0  0  0
  196.5199  187.6628  158.0637 C   0  0  1  0  0  0  0  0  0  0  0  0
  196.5981  187.5916  156.5360 C   0  0  2  0  0  0  0  0  0  0  0  0
  198.7359  188.0992  159.0511 C   0  0  2  0  0  0  0  0  0  0  0  0
  199.9934  178.9783  156.4740 C   0  0  0  0  0  0  0  0  0  0  0  0
  201.0361  178.2826  155.7999 C   0  0  0  0  0  0  0  0  0  0  0  0
  201.2610  178.4799  154.4216 C   0  0  0  0  0  0  0  0  0  0  0  0
  200.4338  179.3758  153.7390 C   0  0  0  0  0  0  0  0  0  0  0  0
  196.0805  183.6110  151.3358 C   0  0  2  0  0  0  0  0  0  0  0  0
  196.2906  180.9736  150.4460 H   0  0  0  0  0  0  0  0  0  0  0  0
  200.0056  182.7528  151.7383 H   0  0  0  0  0  0  0  0  0  0  0  0
  201.2419  180.9329  150.6250 H   0  0  0  0  0  0  0  0  0  0  0  0
  200.0271  179.2013  149.3186 H   0  0  0  0  0  0  0  0  0  0  0  0
  197.9570  183.8170  152.3257 H   0  0  0  0  0  0  0  0  0  0  0  0
  195.9374  182.7489  153.7012 H   0  0  0  0  0  0  0  0  0  0  0  0
  195.6873  182.6105  155.7595 H   0  0  0  0  0  0  0  0  0  0  0  0
  195.1008  181.2281  157.5200 H   0  0  0  0  0  0  0  0  0  0  0  0
  196.7010  181.2514  158.2168 H   0  0  0  0  0  0  0  0  0  0  0  0
  197.7142  183.7637  158.3744 H   0  0  0  0  0  0  0  0  0  0  0  0
  194.9025  186.1459  160.6398 H   0  0  0  0  0  0  0  0  0  0  0  0
  193.1156  184.5561  160.0851 H   0  0  0  0  0  0  0  0  0  0  0  0
  193.5927  182.5587  158.6762 H   0  0  0  0  0  0  0  0  0  0  0  0
  197.2054  186.6951  160.7086 H   0  0  0  0  0  0  0  0  0  0  0  0
  198.4484  185.6301  160.0771 H   0  0  0  0  0  0  0  0  0  0  0  0
  195.5838  187.1598  158.3143 H   0  0  0  0  0  0  0  0  0  0  0  0
  196.3698  188.6890  158.4120 H   0  0  0  0  0  0  0  0  0  0  0  0
  195.6234  187.8471  156.1250 H   0  0  0  0  0  0  0  0  0  0  0  0
  196.8025  186.5809  156.1801 H   0  0  0  0  0  0  0  0  0  0  0  0
  197.3597  188.2609  156.1323 H   0  0  0  0  0  0  0  0  0  0  0  0
  198.3594  188.7362  159.8517 H   0  0  0  0  0  0  0  0  0  0  0  0
  198.9640  188.7373  158.1973 H   0  0  0  0  0  0  0  0  0  0  0  0
  199.6711  187.6614  159.4044 H   0  0  0  0  0  0  0  0  0  0  0  0
  199.8200  178.7975  157.5072 H   0  0  0  0  0  0  0  0  0  0  0  0
  201.6725  177.5715  156.3076 H   0  0  0  0  0  0  0  0  0  0  0  0
  202.0312  177.9660  153.8677 H   0  0  0  0  0  0  0  0  0  0  0  0
  200.5903  179.5351  152.6786 H   0  0  0  0  0  0  0  0  0  0  0  0
  196.3697  184.0284  150.3765 H   0  0  0  0  0  0  0  0  0  0  0  0
  195.5933  184.3873  151.9375 H   0  0  0  0  0  0  0  0  0  0  0  0
  195.3126  182.8640  151.1577 H   0  0  0  0  0  0  0  0  0  0  0  0
  198.1632  186.4907  157.9703 H   0  0  0  0  0  0  0  0  0  0  0  0
  1  2  3  0
  2  3  1  0
  3  4  2  0
  3  8  1  0
  4  5  1  0
  4 35  1  0
  5  6  2  0
  5  9  1  0
  6  7  1  0
  6 36  1  0
  7  8  2  0
  7 37  1  0
  8 38  1  0
  9 10  1  0
  9 34  1  0
  9 39  1  1
 10 11  1  0
 10 40  1  0
 11 12  2  0
 11 16  1  0
 12 13  1  0
 13 14  1  0
 13 33  2  0
 14 15  1  0
 14 30  2  0
 15 16  2  0
 16 17  1  0
 17 18  1  0
 17 41  1  0
 18 19  1  0
 18 42  1  6
 18 43  1  0
 19 20  2  0
 19 24  1  0
 20 21  1  0
 20 44  1  0
 21 22  2  0
 21 25  1  0
 22 23  1  0
 22 45  1  0
 23 24  2  0
 23 46  1  0
 24 47  1  0
 25 26  1  0
 25 48  1  1
 25 49  1  0
 26 27  1  0
 26 29  1  0
 26 65  1  6
 27 28  1  0
 27 50  1  1
 27 51  1  0
 28 52  1  6
 28 53  1  0
 28 54  1  0
 29 55  1  1
 29 56  1  0
 29 57  1  0
 30 31  1  0
 30 58  1  0
 31 32  2  0
 31 59  1  0
 32 33  1  0
 32 60  1  0
 33 61  1  0
 34 62  1  6
 34 63  1  0
 34 64  1  0
M  CHG  1  26   1
M  END
>  <s_epik_cmdline>  (477) 
J2VwaWtfcHl0aG9uJywgJy1waCcsICc3LjAwMDAwMCcsICctcGh0JywgJzIuMDAwMDAwJywgJy1tcycsICcxNicsICctdG4nLCAnOCcsICctbWEnLCAnMjAwJywgJy1pbWFlJywgJzxpbmZpbGUubWFlPicsICctb21hZScsICc8b3V0ZmlsZS5tYWU+Jw==

>  <s_epik_input>  (477) 
TiNDYzFbY0hdYyhbY0hdW2NIXVtjSF0xKVtDQEBIXShbQ0gzXSlbTkhdYyhuMiljKG5jKGMyMylbY0hdW2NIXVtjSF1bY0hdMylbTkhdW0NIMl1jNFtjSF1jKFtjSF1bY0hdW2NIXTQpW0NIMl1OKFtDSDNdKVtDSDJdW0NIM10=

>  <s_i_glide_gridfile>  (477) 
ATP-Grid

>  <s_lp_Force_Field>  (477) 
OPLS_2005

>  <s_lp_Variant>  (477) 
m_282030aaa____21930070____23157418____21958062-1

>  <s_lp_label>  (477) 
1920_sdstereoexpander_1_neutralizer_1_epik_1_stereoizer_1

>  <s_m_source_file>  (477) 
ATP-VSW-LIGPREP-001-in.maegz

>  <s_sd_BIOSOLVEIT.INFINISEE\_QUERY\_NAME>  (477) 
Ref-Lig

>  <s_sd_BIOSOLVEIT.INFINISEE\_QUERY\_SMILES>  (477) 
S(c1nc2c(cc1C[NH2+]Cc3ccc(cc3)C[NH+](C)C)cccc2)Cc4ccccc4

>  <s_sd_BIOSOLVEIT.INFINISEE\_REACTION\_NAME>  (477) 
m_282030aaa

>  <s_sd_BIOSOLVEIT.INFINISEE\_REAGENT1\_SMILES>  (477) 
[R1*]NCc1cc(ccc1)CN(CC)C

>  <s_sd_BIOSOLVEIT.INFINISEE\_REAGENT2\_SMILES>  (477) 
[R1*]c1nc2c(nc1[R2*])cccc2

>  <s_sd_BIOSOLVEIT.INFINISEE\_REAGENT3\_SMILES>  (477) 
[R2*]NC(c1cc(C#N)ccc1)C

>  <s_sd_BIOSOLVEIT.INFINISEE\_SPACE>  (477) 
REALSpace_44bn_2023-08

>  <s_vsw_compound_code>  (477) 
61409

>  <s_vsw_variant>  (477) 
61409-1

>  <r_epik_Charging_Adjusted_Penalty>  (477) 
0.0564066539916546

>  <r_epik_Ionization_Penalty>  (477) 
0.028500000000000001

>  <r_epik_Ionization_Penalty_Charging>  (477) 
0.028199999999999999

>  <r_epik_Ionization_Penalty_Neutral>  (477) 
0.00029999999999999997

>  <r_epik_State_Penalty>  (477) 
0.028199999999999999

>  <r_i_docking_score>  (477) 
-4.2490280522368904

>  <r_i_glide_ecoul>  (477) 
-5.1002621650695801

>  <r_i_glide_eff_state_penalty>  (477) 
0.028199999999999999

>  <r_i_glide_einternal>  (477) 
8.2113285064697301

>  <r_i_glide_emodel>  (477) 
-52.801335749407599

>  <r_i_glide_energy>  (477) 
-43.347801685333302

>  <r_i_glide_erotb>  (477) 
0.78686906560223202

>  <r_i_glide_esite>  (477) 
-0.12864569809280299

>  <r_i_glide_evdw>  (477) 
-38.2475395202637

>  <r_i_glide_gscore>  (477) 
-4.2772280522368904

>  <r_i_glide_hbond>  (477) 
-0.24989951403928101

>  <r_i_glide_ligand_efficiency>  (477) 
-0.12497141330108499

>  <r_i_glide_ligand_efficiency_ln>  (477) 
-0.93872947793905803

>  <r_i_glide_ligand_efficiency_sa>  (477) 
-0.40485886487662798

>  <r_i_glide_lipo>  (477) 
-1.51940705964256

>  <r_i_glide_metal>  (477) 
-0

>  <r_i_glide_rewards>  (477) 
-0.48872854529086102

>  <r_lp_Energy>  (477) 
23.108698

>  <r_qp_ACxDN^.5/SA>  (477) 
0.01358

>  <r_qp_CIQPlogS>  (477) 
-6.9859999999999998

>  <r_qp_EA(eV)>  (477) 
0.76800000000000002

>  <r_qp_FISA>  (477) 
96.872

>  <r_qp_FOSA>  (477) 
250.565

>  <r_qp_IP(eV)>  (477) 
8.1519999999999992

>  <r_qp_Jm>  (477) 
0.0114581390786858

>  <r_qp_PISA>  (477) 
329.47000000000003

>  <r_qp_PSA>  (477) 
68.878

>  <r_qp_PercentHumanOralAbsorption>  (477) 
96.426000000000002

>  <r_qp_QPPCaco>  (477) 
297.964

>  <r_qp_QPPMDCK>  (477) 
147.864

>  <r_qp_QPlogBB>  (477) 
-0.46700000000000003

>  <r_qp_QPlogHERG>  (477) 
-5.702

>  <r_qp_QPlogKhsa>  (477) 
0.67100000000000004

>  <r_qp_QPlogKp>  (477) 
-3.2469999999999999

>  <r_qp_QPlogPC16>  (477) 
14.394

>  <r_qp_QPlogPo/w>  (477) 
4.3040000000000003

>  <r_qp_QPlogPoct>  (477) 
22.475000000000001

>  <r_qp_QPlogPw>  (477) 
11.374000000000001

>  <r_qp_QPlogS>  (477) 
-4.3479999999999999

>  <r_qp_QPpolrz>  (477) 
45.674999999999997

>  <r_qp_SASA>  (477) 
676.90700000000004

>  <r_qp_SAamideO>  (477) 
0

>  <r_qp_SAfluorine>  (477) 
0

>  <r_qp_WPSA>  (477) 
0

>  <r_qp_accptHB>  (477) 
6.5

>  <r_qp_dip^2/V>  (477) 
0.057463500000000001

>  <r_qp_dipole>  (477) 
8.8949999999999996

>  <r_qp_donorHB>  (477) 
2

>  <r_qp_glob>  (477) 
0.8842449

>  <r_qp_mol_MW>  (477) 
450.58499999999998

>  <r_qp_volume>  (477) 
1376.9069999999999

>  <r_sd_BIOSOLVEIT.INFINISEE\_FTREES\_SIMILARITY>  (477) 
0.90300000000000002

>  <r_sd_BIOSOLVEIT.LOGP>  (477) 
4.3212799999999998

>  <r_sd_BIOSOLVEIT.MOLECULAR\_WEIGHT>  (477) 
451.59500000000003

>  <r_sd_BIOSOLVEIT.TPSA>  (477) 
78.069999999999993

>  <i_epik_Tot_Q>  (477) 
1

>  <i_epik_Tot_abs_Q>  (477) 
1

>  <i_f3d_flags>  (477) 
0

>  <i_i_glide_confnum>  (477) 
6

>  <i_i_glide_lignum>  (477) 
578

>  <i_i_glide_posenum>  (477) 
12

>  <i_i_glide_rotatable_bonds>  (477) 
9

>  <i_lp_mmshare_version>  (477) 
65135

>  <i_m_ct_format>  (477) 
2

>  <i_m_source_file_index>  (477) 
1920

>  <i_qp_#NandO>  (477) 
6

>  <i_qp_#acid>  (477) 
0

>  <i_qp_#amide>  (477) 
0

>  <i_qp_#amidine>  (477) 
0

>  <i_qp_#amine>  (477) 
1

>  <i_qp_#in34>  (477) 
0

>  <i_qp_#in56>  (477) 
22

>  <i_qp_#metab>  (477) 
5

>  <i_qp_#nonHatm>  (477) 
34

>  <i_qp_#noncon>  (477) 
0

>  <i_qp_#ringatoms>  (477) 
22

>  <i_qp_#rotor>  (477) 
10

>  <i_qp_#rtvFG>  (477) 
0

>  <i_qp_#stars>  (477) 
0

>  <i_qp_CNS>  (477) 
1

>  <i_qp_HumanOralAbsorption>  (477) 
3

>  <i_qp_RuleOfFive>  (477) 
0

>  <i_qp_RuleOfThree>  (477) 
0

>  <i_sd_BIOSOLVEIT.INFINISEE\_REAGENT1\_NAME>  (477) 
21930070

>  <i_sd_BIOSOLVEIT.INFINISEE\_REAGENT2\_NAME>  (477) 
23157418

>  <i_sd_BIOSOLVEIT.INFINISEE\_REAGENT3\_NAME>  (477) 
21958062

>  <i_sd_BIOSOLVEIT.INFINISEE\_RESULT\_RANK>  (477) 
85744

>  <i_sd_version>  (477) 
0

>  <b_lp_Chiralities_Consistent>  (477) 
1

>  <b_sd_chiral_flag>  (477) 
0

>  <canonical_id>  (477) 
ATP-HTVS-4B5D35D2395E

>  <compound_code>  (477) 
61409

>  <title>  (477) 
m_282030aaa____21930070____23157418____21958062

>  <variant>  (477) 
61409-1

>  <source_file>  (477) 
运行/运行/ATP-VSW/ATP-VSW-DOCK_HTVS_1-001_lib/ATP-VSW-DOCK_HTVS_1-001_lib

>  <canonical_smiles>  (477) 
CC[N@@H+](C)Cc1cccc(CNc2nc3ccccc3nc2N[C@H](C)c2cccc(C#N)c2)c1

>  <scaffold>  (477) 
c1ccc(CNc2nc3ccccc3nc2NCc2ccccc2)cc1

>  <molecular_formula>  (477) 
C28H31N6+

$$$$
ATP-HTVS-4B689B6ED6C6
     RDKit          3D

 55 57  0  0  0  0  0  0  0  0999 V2000
  197.3118  182.8219  153.9611 Br  0  0  0  0  0  0  0  0  0  0  0  0
  197.4068  181.2250  152.9235 C   0  0  0  0  0  0  0  0  0  0  0  0
  198.4919  180.3156  153.0106 C   0  0  0  0  0  0  0  0  0  0  0  0
  198.5414  179.2132  152.1290 C   0  0  0  0  0  0  0  0  0  0  0  0
  197.5067  178.9951  151.2027 C   0  0  0  0  0  0  0  0  0  0  0  0
  196.4098  179.8749  151.1503 C   0  0  0  0  0  0  0  0  0  0  0  0
  196.3647  180.9872  152.0107 C   0  0  0  0  0  0  0  0  0  0  0  0
  199.6166  180.5103  153.9849 C   0  0  0  0  0  0  0  0  0  0  0  0
  200.7412  180.7398  153.5422 O   0  0  0  0  0  0  0  0  0  0  0  0
  199.3394  180.3892  155.3077 N   0  0  0  0  0  0  0  0  0  0  0  0
  200.3483  180.6659  156.2725 C   0  0  0  0  0  0  0  0  0  0  0  0
  200.9667  179.6379  156.9045 N   0  0  0  0  0  0  0  0  0  0  0  0
  201.9155  179.9039  157.8264 C   0  0  0  0  0  0  0  0  0  0  0  0
  202.2906  181.2098  158.1831 C   0  0  0  0  0  0  0  0  0  0  0  0
  201.6509  182.2838  157.5441 C   0  0  0  0  0  0  0  0  0  0  0  0
  200.6563  182.0260  156.5702 C   0  0  0  0  0  0  0  0  0  0  0  0
  200.0027  183.0782  155.9019 N   0  0  0  0  0  0  0  0  0  0  0  0
  199.6432  184.2988  156.6121 C   0  0  1  0  0  0  0  0  0  0  0  0
  198.5958  184.1481  157.7025 C   0  0  0  0  0  0  0  0  0  0  0  0
  197.6477  183.0976  157.6915 C   0  0  0  0  0  0  0  0  0  0  0  0
  196.6763  182.9871  158.7124 C   0  0  0  0  0  0  0  0  0  0  0  0
  196.6628  183.9354  159.7510 C   0  0  0  0  0  0  0  0  0  0  0  0
  197.5645  185.0180  159.7311 C   0  0  0  0  0  0  0  0  0  0  0  0
  198.5406  185.1154  158.7238 C   0  0  0  0  0  0  0  0  0  0  0  0
  195.6618  181.8563  158.6933 C   0  0  1  0  0  0  0  0  0  0  0  0
  194.3317  182.2430  158.1381 N   0  0  2  0  0  0  0  0  0  0  0  0
  193.7823  183.5233  158.6384 C   0  0  2  0  0  0  0  0  0  0  0  0
  193.3488  181.1425  158.2466 C   0  0  2  0  0  0  0  0  0  0  0  0
  198.0691  179.8445  155.8036 C   0  0  2  0  0  0  0  0  0  0  0  0
  199.3764  178.5279  152.1581 H   0  0  0  0  0  0  0  0  0  0  0  0
  197.5533  178.1523  150.5296 H   0  0  0  0  0  0  0  0  0  0  0  0
  195.6041  179.7141  150.4497 H   0  0  0  0  0  0  0  0  0  0  0  0
  195.5471  181.6875  151.9705 H   0  0  0  0  0  0  0  0  0  0  0  0
  202.3680  179.0501  158.3078 H   0  0  0  0  0  0  0  0  0  0  0  0
  203.0570  181.3833  158.9236 H   0  0  0  0  0  0  0  0  0  0  0  0
  201.9334  183.2957  157.8014 H   0  0  0  0  0  0  0  0  0  0  0  0
  199.3410  182.8088  155.1923 H   0  0  0  0  0  0  0  0  0  0  0  0
  200.5343  184.7660  157.0375 H   0  0  0  0  0  0  0  0  0  0  0  0
  199.2631  185.0055  155.8708 H   0  0  0  0  0  0  0  0  0  0  0  0
  197.6499  182.3742  156.8863 H   0  0  0  0  0  0  0  0  0  0  0  0
  195.9508  183.8590  160.5580 H   0  0  0  0  0  0  0  0  0  0  0  0
  197.5178  185.7637  160.5090 H   0  0  0  0  0  0  0  0  0  0  0  0
  199.2303  185.9458  158.7301 H   0  0  0  0  0  0  0  0  0  0  0  0
  196.0885  181.0465  158.1007 H   0  0  0  0  0  0  0  0  0  0  0  0
  195.5547  181.4614  159.7092 H   0  0  0  0  0  0  0  0  0  0  0  0
  193.6117  183.4811  159.7160 H   0  0  0  0  0  0  0  0  0  0  0  0
  192.8209  183.7292  158.1585 H   0  0  0  0  0  0  0  0  0  0  0  0
  194.4269  184.3753  158.4180 H   0  0  0  0  0  0  0  0  0  0  0  0
  193.1483  180.9034  159.2934 H   0  0  0  0  0  0  0  0  0  0  0  0
  193.6883  180.2397  157.7520 H   0  0  0  0  0  0  0  0  0  0  0  0
  192.4081  181.4328  157.7784 H   0  0  0  0  0  0  0  0  0  0  0  0
  198.1080  179.6878  156.8855 H   0  0  0  0  0  0  0  0  0  0  0  0
  197.8276  178.8831  155.3404 H   0  0  0  0  0  0  0  0  0  0  0  0
  197.2404  180.5295  155.6166 H   0  0  0  0  0  0  0  0  0  0  0  0
  194.4297  182.3908  157.1344 H   0  0  0  0  0  0  0  0  0  0  0  0
  1  2  1  0
  2  3  1  0
  2  7  2  0
  3  4  2  0
  3  8  1  0
  4  5  1  0
  4 30  1  0
  5  6  2  0
  5 31  1  0
  6  7  1  0
  6 32  1  0
  7 33  1  0
  8  9  2  0
  8 10  1  0
 10 11  1  0
 10 29  1  0
 11 12  1  0
 11 16  2  0
 12 13  2  0
 13 14  1  0
 13 34  1  0
 14 15  2  0
 14 35  1  0
 15 16  1  0
 15 36  1  0
 16 17  1  0
 17 18  1  0
 17 37  1  0
 18 19  1  0
 18 38  1  1
 18 39  1  0
 19 20  2  0
 19 24  1  0
 20 21  1  0
 20 40  1  0
 21 22  2  0
 21 25  1  0
 22 23  1  0
 22 41  1  0
 23 24  2  0
 23 42  1  0
 24 43  1  0
 25 26  1  0
 25 44  1  6
 25 45  1  0
 26 27  1  0
 26 28  1  0
 26 55  1  6
 27 46  1  1
 27 47  1  0
 27 48  1  0
 28 49  1  1
 28 50  1  0
 28 51  1  0
 29 52  1  1
 29 53  1  0
 29 54  1  0
M  CHG  1  26   1
M  END
>  <s_epik_cmdline>  (478) 
J2VwaWtfcHl0aG9uJywgJy1waCcsICc3LjAwMDAwMCcsICctcGh0JywgJzIuMDAwMDAwJywgJy1tcycsICcxNicsICctdG4nLCAnOCcsICctbWEnLCAnMjAwJywgJy1pbWFlJywgJzxpbmZpbGUubWFlPicsICctb21hZScsICc8b3V0ZmlsZS5tYWU+Jw==

>  <s_epik_input>  (478) 
W2NIXTFbY0hdW2NIXVtjSF1jKGMxQnIpQyg9TylOKFtDSDNdKWMybltjSF1bY0hdW2NIXWMyW05IXVtDSDJdYzNbY0hdYyhbY0hdW2NIXVtjSF0zKVtDSDJdTihbQ0gzXSlbQ0gzXQ==

>  <s_i_glide_gridfile>  (478) 
ATP-Grid

>  <s_lp_Force_Field>  (478) 
OPLS_2005

>  <s_lp_Variant>  (478) 
rxn502a____EMOL481226____EMOL45980405____EMOL2873214-1

>  <s_lp_label>  (478) 
2977_sdstereoexpander_1_neutralizer_1_epik_1_stereoizer_1

>  <s_m_source_file>  (478) 
ATP-VSW-LIGPREP-002-in.maegz

>  <s_sd_BIOSOLVEIT.INFINISEE\_QUERY\_NAME>  (478) 
Ref-Lig

>  <s_sd_BIOSOLVEIT.INFINISEE\_QUERY\_SMILES>  (478) 
S(c1nc2c(cc1C[NH2+]Cc3ccc(cc3)C[NH+](C)C)cccc2)Cc4ccccc4

>  <s_sd_BIOSOLVEIT.INFINISEE\_REACTION\_NAME>  (478) 
rxn502a

>  <s_sd_BIOSOLVEIT.INFINISEE\_REAGENT1\_NAME>  (478) 
EMOL481226

>  <s_sd_BIOSOLVEIT.INFINISEE\_REAGENT1\_SMILES>  (478) 
Brc1c(cccc1)C(=O)O

>  <s_sd_BIOSOLVEIT.INFINISEE\_REAGENT2\_NAME>  (478) 
EMOL45980405

>  <s_sd_BIOSOLVEIT.INFINISEE\_REAGENT2\_SMILES>  (478) 
Ic1c(nccc1)NC

>  <s_sd_BIOSOLVEIT.INFINISEE\_REAGENT3\_NAME>  (478) 
EMOL2873214

>  <s_sd_BIOSOLVEIT.INFINISEE\_REAGENT3\_SMILES>  (478) 
N(Cc1cc(ccc1)CN)(C)C

>  <s_sd_BIOSOLVEIT.INFINISEE\_SPACE>  (478) 
eXplore_7tr_2022-12

>  <s_vsw_compound_code>  (478) 
95234

>  <s_vsw_variant>  (478) 
95234-1

>  <r_epik_Charging_Adjusted_Penalty>  (478) 
0.088195370499548398

>  <r_epik_Ionization_Penalty>  (478) 
0.044200000000000003

>  <r_epik_Ionization_Penalty_Charging>  (478) 
0.0441

>  <r_epik_Ionization_Penalty_Neutral>  (478) 
0.0001

>  <r_epik_State_Penalty>  (478) 
0.0441

>  <r_i_docking_score>  (478) 
-3.7559567972479302

>  <r_i_glide_ecoul>  (478) 
-8.6762552261352504

>  <r_i_glide_eff_state_penalty>  (478) 
0.0441

>  <r_i_glide_einternal>  (478) 
4.5573563575744602

>  <r_i_glide_emodel>  (478) 
-52.2439926947416

>  <r_i_glide_energy>  (478) 
-40.789669990539601

>  <r_i_glide_erotb>  (478) 
0.68082045844649997

>  <r_i_glide_esite>  (478) 
-0.116832252141005

>  <r_i_glide_evdw>  (478) 
-32.113414764404297

>  <r_i_glide_gscore>  (478) 
-3.80005679724793

>  <r_i_glide_hbond>  (478) 
-0.186493971122074

>  <r_i_glide_ligand_efficiency>  (478) 
-0.12951575162923901

>  <r_i_glide_ligand_efficiency_ln>  (478) 
-0.86001886372317504

>  <r_i_glide_ligand_efficiency_sa>  (478) 
-0.39791342247522898

>  <r_i_glide_lipo>  (478) 
-0.95941523756357605

>  <r_i_glide_metal>  (478) 
-0

>  <r_i_glide_rewards>  (478) 
-0.31102677272727203

>  <r_lp_Energy>  (478) 
35.840031000000003

>  <r_lp_tautomer_probability>  (478) 
0.999999999999999

>  <r_qp_ACxDN^.5/SA>  (478) 
0.010378200000000001

>  <r_qp_CIQPlogS>  (478) 
-5.6580000000000004

>  <r_qp_EA(eV)>  (478) 
0.496

>  <r_qp_FISA>  (478) 
27.971

>  <r_qp_FOSA>  (478) 
223.13900000000001

>  <r_qp_IP(eV)>  (478) 
8.609

>  <r_qp_Jm>  (478) 
0.66179718875627103

>  <r_qp_PISA>  (478) 
386.42399999999998

>  <r_qp_PSA>  (478) 
53.024000000000001

>  <r_qp_PercentHumanOralAbsorption>  (478) 
100

>  <r_qp_QPPCaco>  (478) 
1341.3900000000001

>  <r_qp_QPPMDCK>  (478) 
1198.3109999999999

>  <r_qp_QPlogBB>  (478) 
0.376

>  <r_qp_QPlogHERG>  (478) 
-6.452

>  <r_qp_QPlogKhsa>  (478) 
0.49199999999999999

>  <r_qp_QPlogKp>  (478) 
-2.0640000000000001

>  <r_qp_QPlogPC16>  (478) 
13.689

>  <r_qp_QPlogPo/w>  (478) 
4.4100000000000001

>  <r_qp_QPlogPoct>  (478) 
20.59

>  <r_qp_QPlogPw>  (478) 
10.989000000000001

>  <r_qp_QPlogS>  (478) 
-3.7709999999999999

>  <r_qp_QPpolrz>  (478) 
45.125999999999998

>  <r_qp_SASA>  (478) 
674.49400000000003

>  <r_qp_SAamideO>  (478) 
0

>  <r_qp_SAfluorine>  (478) 
0

>  <r_qp_WPSA>  (478) 
36.960000000000001

>  <r_qp_accptHB>  (478) 
7

>  <r_qp_dip^2/V>  (478) 
0.028860500000000001

>  <r_qp_dipole>  (478) 
6.1289999999999996

>  <r_qp_donorHB>  (478) 
1

>  <r_qp_glob>  (478) 
0.85469039999999996

>  <r_qp_mol_MW>  (478) 
453.38099999999997

>  <r_qp_volume>  (478) 
1301.4649999999999

>  <r_sd_BIOSOLVEIT.INFINISEE\_FTREES\_SIMILARITY>  (478) 
0.90300000000000002

>  <r_sd_BIOSOLVEIT.LOGP>  (478) 
3.3773

>  <r_sd_BIOSOLVEIT.MOLECULAR\_WEIGHT>  (478) 
454.38900000000001

>  <r_sd_BIOSOLVEIT.TPSA>  (478) 
49.670000000000002

>  <i_epik_Tot_Q>  (478) 
1

>  <i_epik_Tot_abs_Q>  (478) 
1

>  <i_f3d_flags>  (478) 
0

>  <i_i_glide_confnum>  (478) 
2

>  <i_i_glide_lignum>  (478) 
30

>  <i_i_glide_posenum>  (478) 
5

>  <i_i_glide_rotatable_bonds>  (478) 
8

>  <i_lp_mmshare_version>  (478) 
65135

>  <i_m_ct_format>  (478) 
2

>  <i_m_source_file_index>  (478) 
2977

>  <i_qp_#NandO>  (478) 
5

>  <i_qp_#acid>  (478) 
0

>  <i_qp_#amide>  (478) 
0

>  <i_qp_#amidine>  (478) 
0

>  <i_qp_#amine>  (478) 
1

>  <i_qp_#in34>  (478) 
0

>  <i_qp_#in56>  (478) 
18

>  <i_qp_#metab>  (478) 
8

>  <i_qp_#nonHatm>  (478) 
29

>  <i_qp_#noncon>  (478) 
0

>  <i_qp_#ringatoms>  (478) 
18

>  <i_qp_#rotor>  (478) 
7

>  <i_qp_#rtvFG>  (478) 
0

>  <i_qp_#stars>  (478) 
0

>  <i_qp_CNS>  (478) 
1

>  <i_qp_HumanOralAbsorption>  (478) 
3

>  <i_qp_RuleOfFive>  (478) 
0

>  <i_qp_RuleOfThree>  (478) 
1

>  <i_sd_BIOSOLVEIT.INFINISEE\_RESULT\_RANK>  (478) 
83238

>  <i_sd_version>  (478) 
0

>  <b_lp_Chiralities_Consistent>  (478) 
1

>  <b_sd_chiral_flag>  (478) 
0

>  <canonical_id>  (478) 
ATP-HTVS-4B689B6ED6C6

>  <compound_code>  (478) 
95234

>  <title>  (478) 
rxn502a____EMOL481226____EMOL45980405____EMOL2873214

>  <variant>  (478) 
95234-1

>  <source_file>  (478) 
运行/运行/ATP-VSW/ATP-VSW-DOCK_HTVS_1-003_lib/ATP-VSW-DOCK_HTVS_1-003_lib.mae

>  <canonical_smiles>  (478) 
CN(C(=O)c1ccccc1Br)c1ncccc1NCc1cccc(C[NH+](C)C)c1

>  <scaffold>  (478) 
O=C(Nc1ncccc1NCc1ccccc1)c1ccccc1

>  <molecular_formula>  (478) 
C23H26BrN4O+

$$$$
ATP-HTVS-4B898DE9EBD2
     RDKit          3D

 59 62  0  0  0  0  0  0  0  0999 V2000
  195.9114  187.1057  159.0649 F   0  0  0  0  0  0  0  0  0  0  0  0
  196.4283  185.8565  158.9249 C   0  0  0  0  0  0  0  0  0  0  0  0
  195.5667  184.7582  158.6122 C   0  0  0  0  0  0  0  0  0  0  0  0
  196.1093  183.4444  158.4942 C   0  0  0  0  0  0  0  0  0  0  0  0
  197.4868  183.2224  158.7482 C   0  0  0  0  0  0  0  0  0  0  0  0
  198.3242  184.3170  159.0095 C   0  0  0  0  0  0  0  0  0  0  0  0
  197.8118  185.6324  159.1033 C   0  0  0  0  0  0  0  0  0  0  0  0
  195.2011  182.2660  158.0995 C   0  0  1  0  0  0  0  0  0  0  0  0
  195.6818  181.4400  156.9464 N   0  0  1  0  0  0  0  0  0  0  0  0
  197.1090  181.5352  156.5962 C   0  0  1  0  0  0  0  0  0  0  0  0
  197.2928  180.9298  155.2914 C   0  0  0  0  0  0  0  0  0  0  0  0
  197.5287  180.4681  154.2004 C   0  0  0  0  0  0  0  0  0  0  0  0
  197.7367  179.8795  152.8955 C   0  0  0  0  0  0  0  0  0  0  0  0
  198.8789  179.1196  152.5645 C   0  0  0  0  0  0  0  0  0  0  0  0
  198.9350  178.5680  151.2631 C   0  0  0  0  0  0  0  0  0  0  0  0
  197.8485  178.7994  150.3667 C   0  0  0  0  0  0  0  0  0  0  0  0
  196.7671  179.5334  150.7278 N   0  0  0  0  0  0  0  0  0  0  0  0
  196.7189  180.0615  151.9544 C   0  0  0  0  0  0  0  0  0  0  0  0
  197.9524  178.2296  149.0768 N   0  0  0  0  0  0  0  0  0  0  0  0
  197.0752  178.2606  148.0580 C   0  0  0  0  0  0  0  0  0  0  0  0
  195.9475  178.7513  148.1136 O   0  0  0  0  0  0  0  0  0  0  0  0
  197.5448  177.5989  146.7609 C   0  0  1  0  0  0  0  0  0  0  0  0
  198.5838  178.4526  146.0543 C   0  0  0  0  0  0  0  0  0  0  0  0
  198.2041  179.2955  144.9881 C   0  0  0  0  0  0  0  0  0  0  0  0
  199.1674  180.0817  144.3277 C   0  0  0  0  0  0  0  0  0  0  0  0
  200.5174  180.0283  144.7298 C   0  0  0  0  0  0  0  0  0  0  0  0
  201.5138  180.8370  144.0485 C   0  0  0  0  0  0  0  0  0  0  0  0
  202.3082  181.4814  143.5080 N   0  0  0  0  0  0  0  0  0  0  0  0
  200.8999  179.1865  145.7937 C   0  0  0  0  0  0  0  0  0  0  0  0
  199.9367  178.3986  146.4515 C   0  0  0  0  0  0  0  0  0  0  0  0
  200.0731  177.8035  150.8992 C   0  0  0  0  0  0  0  0  0  0  0  0
  201.1206  177.5960  151.8137 C   0  0  0  0  0  0  0  0  0  0  0  0
  201.0576  178.1407  153.1049 C   0  0  0  0  0  0  0  0  0  0  0  0
  199.9388  178.9020  153.4849 C   0  0  0  0  0  0  0  0  0  0  0  0
  194.8562  181.4073  159.2989 C   0  0  2  0  0  0  0  0  0  0  0  0
  195.5262  180.4468  157.1815 H   0  0  0  0  0  0  0  0  0  0  0  0
  194.5122  184.9570  158.4441 H   0  0  0  0  0  0  0  0  0  0  0  0
  197.8919  182.2198  158.7348 H   0  0  0  0  0  0  0  0  0  0  0  0
  199.3850  184.1470  159.0963 H   0  0  0  0  0  0  0  0  0  0  0  0
  198.4854  186.4713  159.3245 H   0  0  0  0  0  0  0  0  0  0  0  0
  194.2394  182.6903  157.8347 H   0  0  0  0  0  0  0  0  0  0  0  0
  197.4518  182.5775  156.5304 H   0  0  0  0  0  0  0  0  0  0  0  0
  197.7443  181.0371  157.3414 H   0  0  0  0  0  0  0  0  0  0  0  0
  195.8383  180.6448  152.2019 H   0  0  0  0  0  0  0  0  0  0  0  0
  198.8191  177.7562  148.8881 H   0  0  0  0  0  0  0  0  0  0  0  0
  197.9563  176.6128  146.9762 H   0  0  0  0  0  0  0  0  0  0  0  0
  196.6907  177.4374  146.1027 H   0  0  0  0  0  0  0  0  0  0  0  0
  197.1736  179.3371  144.6661 H   0  0  0  0  0  0  0  0  0  0  0  0
  198.8648  180.7187  143.5091 H   0  0  0  0  0  0  0  0  0  0  0  0
  201.9320  179.1377  146.1091 H   0  0  0  0  0  0  0  0  0  0  0  0
  200.2428  177.7513  147.2598 H   0  0  0  0  0  0  0  0  0  0  0  0
  200.1668  177.3653  149.9232 H   0  0  0  0  0  0  0  0  0  0  0  0
  201.9780  177.0124  151.5169 H   0  0  0  0  0  0  0  0  0  0  0  0
  201.8647  177.9774  153.8028 H   0  0  0  0  0  0  0  0  0  0  0  0
  199.9156  179.3094  154.4860 H   0  0  0  0  0  0  0  0  0  0  0  0
  194.4178  182.0388  160.0602 H   0  0  0  0  0  0  0  0  0  0  0  0
  195.7393  180.9304  159.7089 H   0  0  0  0  0  0  0  0  0  0  0  0
  194.1240  180.6414  159.0431 H   0  0  0  0  0  0  0  0  0  0  0  0
  195.1233  181.7069  156.1294 H   0  0  0  0  0  0  0  0  0  0  0  0
  1  2  1  0
  2  3  2  0
  2  7  1  0
  3  4  1  0
  3 37  1  0
  4  5  2  0
  4  8  1  0
  5  6  1  0
  5 38  1  0
  6  7  2  0
  6 39  1  0
  7 40  1  0
  8  9  1  0
  8 35  1  0
  8 41  1  6
  9 10  1  0
  9 36  1  1
  9 59  1  0
 10 11  1  0
 10 42  1  6
 10 43  1  0
 11 12  3  0
 12 13  1  0
 13 14  2  0
 13 18  1  0
 14 15  1  0
 14 34  1  0
 15 16  2  0
 15 31  1  0
 16 17  1  0
 16 19  1  0
 17 18  2  0
 18 44  1  0
 19 20  1  0
 19 45  1  0
 20 21  2  0
 20 22  1  0
 22 23  1  0
 22 46  1  1
 22 47  1  0
 23 24  1  0
 23 30  2  0
 24 25  2  0
 24 48  1  0
 25 26  1  0
 25 49  1  0
 26 27  1  0
 26 29  2  0
 27 28  3  0
 29 30  1  0
 29 50  1  0
 30 51  1  0
 31 32  2  0
 31 52  1  0
 32 33  1  0
 32 53  1  0
 33 34  2  0
 33 54  1  0
 34 55  1  0
 35 56  1  1
 35 57  1  0
 35 58  1  0
M  CHG  1   9   1
M  END
>  <s_epik_cmdline>  (479) 
J2VwaWtfcHl0aG9uJywgJy1waCcsICc3LjAwMDAwMCcsICctcGh0JywgJzIuMDAwMDAwJywgJy1tcycsICcxNicsICctdG4nLCAnOCcsICctbWEnLCAnMjAwJywgJy1pbWFlJywgJzxpbmZpbGUubWFlPicsICctb21hZScsICc8b3V0ZmlsZS5tYWU+Jw==

>  <s_epik_input>  (479) 
RmMxW2NIXWMoW2NIXVtjSF1bY0hdMSlbQ0BIXShbQ0gzXSlbTkhdW0NIMl1DI0NjMltjSF1uYyhjKGMyMylbY0hdW2NIXVtjSF1bY0hdMylbTkhdQyg9TylbQ0gyXWM0W2NIXVtjSF1jKEMjTilbY0hdW2NIXTQ=

>  <s_i_glide_gridfile>  (479) 
ATP-Grid

>  <s_lp_Force_Field>  (479) 
OPLS_2005

>  <s_lp_Variant>  (479) 
rxn503b____EMOL525400____EMOL7515103____EMOL317509042-4

>  <s_lp_label>  (479) 
2750_sdstereoexpander_2_neutralizer_1_epik_2_stereoizer_1

>  <s_m_source_file>  (479) 
ATP-VSW-LIGPREP-003-in.maegz

>  <s_sd_BIOSOLVEIT.INFINISEE\_QUERY\_NAME>  (479) 
Ref-Lig

>  <s_sd_BIOSOLVEIT.INFINISEE\_QUERY\_SMILES>  (479) 
S(c1nc2c(cc1C[NH2+]Cc3ccc(cc3)C[NH+](C)C)cccc2)Cc4ccccc4

>  <s_sd_BIOSOLVEIT.INFINISEE\_REACTION\_NAME>  (479) 
rxn503b

>  <s_sd_BIOSOLVEIT.INFINISEE\_REAGENT1\_NAME>  (479) 
EMOL525400

>  <s_sd_BIOSOLVEIT.INFINISEE\_REAGENT1\_SMILES>  (479) 
O=C(O)Cc1ccc(C#N)cc1

>  <s_sd_BIOSOLVEIT.INFINISEE\_REAGENT2\_NAME>  (479) 
EMOL7515103

>  <s_sd_BIOSOLVEIT.INFINISEE\_REAGENT2\_SMILES>  (479) 
Brc1c2c(c(nc1)N)cccc2

>  <s_sd_BIOSOLVEIT.INFINISEE\_REAGENT3\_NAME>  (479) 
EMOL317509042

>  <s_sd_BIOSOLVEIT.INFINISEE\_REAGENT3\_SMILES>  (479) 
Fc1cc(ccc1)C(NCC#C)C

>  <s_sd_BIOSOLVEIT.INFINISEE\_SPACE>  (479) 
eXplore_7tr_2022-12

>  <s_vsw_compound_code>  (479) 
87971

>  <s_vsw_variant>  (479) 
87971-4

>  <r_epik_Charging_Adjusted_Penalty>  (479) 
1.25515797441685

>  <r_epik_Ionization_Penalty>  (479) 
0.62809999999999999

>  <r_epik_Ionization_Penalty_Charging>  (479) 
0.62760000000000005

>  <r_epik_Ionization_Penalty_Neutral>  (479) 
0.00050000000000000001

>  <r_epik_State_Penalty>  (479) 
0.62760000000000005

>  <r_i_docking_score>  (479) 
-4.5337690678731004

>  <r_i_glide_ecoul>  (479) 
-13.733966827392599

>  <r_i_glide_eff_state_penalty>  (479) 
0.62760000000000005

>  <r_i_glide_einternal>  (479) 
6.1677870750427202

>  <r_i_glide_emodel>  (479) 
-65.444663768931207

>  <r_i_glide_energy>  (479) 
-46.5938720703125

>  <r_i_glide_erotb>  (479) 
0.75035871410553501

>  <r_i_glide_esite>  (479) 
-0.10266451399845

>  <r_i_glide_evdw>  (479) 
-32.859905242919901

>  <r_i_glide_gscore>  (479) 
-5.1613690678731103

>  <r_i_glide_hbond>  (479) 
-0.34273115185949998

>  <r_i_glide_ligand_efficiency>  (479) 
-0.12953625908208899

>  <r_i_glide_ligand_efficiency_ln>  (479) 
-0.99526293198126103

>  <r_i_glide_ligand_efficiency_sa>  (479) 
-0.42372169252912201

>  <r_i_glide_lipo>  (479) 
-0.87116234981842999

>  <r_i_glide_metal>  (479) 
-0

>  <r_i_glide_rewards>  (479) 
-0.89207948004737903

>  <r_lp_Energy>  (479) 
24.896971000000001

>  <r_qp_ACxDN^.5/SA>  (479) 
0.011461000000000001

>  <r_qp_CIQPlogS>  (479) 
-7.2270000000000003

>  <r_qp_EA(eV)>  (479) 
1.1990000000000001

>  <r_qp_FISA>  (479) 
145.29300000000001

>  <r_qp_FOSA>  (479) 
184.321

>  <r_qp_IP(eV)>  (479) 
8.4130000000000003

>  <r_qp_Jm>  (479) 
9.4160013283478992e-06

>  <r_qp_PISA>  (479) 
435.75299999999999

>  <r_qp_PSA>  (479) 
83.879000000000005

>  <r_qp_PercentHumanOralAbsorption>  (479) 
90.831000000000003

>  <r_qp_QPPCaco>  (479) 
103.511

>  <r_qp_QPPMDCK>  (479) 
74.912999999999997

>  <r_qp_QPlogBB>  (479) 
-1.083

>  <r_qp_QPlogHERG>  (479) 
-7.899

>  <r_qp_QPlogKhsa>  (479) 
0.89400000000000002

>  <r_qp_QPlogKp>  (479) 
-3.8610000000000002

>  <r_qp_QPlogPC16>  (479) 
16.329999999999998

>  <r_qp_QPlogPo/w>  (479) 
4.7519999999999998

>  <r_qp_QPlogPoct>  (479) 
24.393999999999998

>  <r_qp_QPlogPw>  (479) 
12.961

>  <r_qp_QPlogS>  (479) 
-6.8310000000000004

>  <r_qp_QPpolrz>  (479) 
51.091000000000001

>  <r_qp_SASA>  (479) 
802.06100000000004

>  <r_qp_SAamideO>  (479) 
0

>  <r_qp_SAfluorine>  (479) 
36.694000000000003

>  <r_qp_WPSA>  (479) 
36.694000000000003

>  <r_qp_accptHB>  (479) 
6.5

>  <r_qp_dip^2/V>  (479) 
0.0438343

>  <r_qp_dipole>  (479) 
8.0289999999999999

>  <r_qp_donorHB>  (479) 
2

>  <r_qp_glob>  (479) 
0.77982750000000001

>  <r_qp_mol_MW>  (479) 
462.52499999999998

>  <r_qp_volume>  (479) 
1470.826

>  <r_sd_BIOSOLVEIT.INFINISEE\_FTREES\_SIMILARITY>  (479) 
0.90700000000000003

>  <r_sd_BIOSOLVEIT.LOGP>  (479) 
4.1028799999999999

>  <r_sd_BIOSOLVEIT.MOLECULAR\_WEIGHT>  (479) 
463.53399999999999

>  <r_sd_BIOSOLVEIT.TPSA>  (479) 
82.390000000000001

>  <i_epik_Tot_Q>  (479) 
1

>  <i_epik_Tot_abs_Q>  (479) 
1

>  <i_f3d_flags>  (479) 
0

>  <i_i_glide_confnum>  (479) 
6

>  <i_i_glide_lignum>  (479) 
1312

>  <i_i_glide_posenum>  (479) 
14

>  <i_i_glide_rotatable_bonds>  (479) 
9

>  <i_lp_mmshare_version>  (479) 
65135

>  <i_m_ct_format>  (479) 
2

>  <i_m_source_file_index>  (479) 
2750

>  <i_qp_#NandO>  (479) 
5

>  <i_qp_#acid>  (479) 
0

>  <i_qp_#amide>  (479) 
0

>  <i_qp_#amidine>  (479) 
0

>  <i_qp_#amine>  (479) 
1

>  <i_qp_#in34>  (479) 
0

>  <i_qp_#in56>  (479) 
22

>  <i_qp_#metab>  (479) 
6

>  <i_qp_#nonHatm>  (479) 
35

>  <i_qp_#noncon>  (479) 
0

>  <i_qp_#ringatoms>  (479) 
22

>  <i_qp_#rotor>  (479) 
9

>  <i_qp_#rtvFG>  (479) 
0

>  <i_qp_#stars>  (479) 
1

>  <i_qp_CNS>  (479) 
-2

>  <i_qp_HumanOralAbsorption>  (479) 
1

>  <i_qp_RuleOfFive>  (479) 
0

>  <i_qp_RuleOfThree>  (479) 
1

>  <i_sd_BIOSOLVEIT.INFINISEE\_RESULT\_RANK>  (479) 
58263

>  <i_sd_version>  (479) 
0

>  <b_lp_Chiralities_Consistent>  (479) 
1

>  <b_sd_chiral_flag>  (479) 
0

>  <canonical_id>  (479) 
ATP-HTVS-4B898DE9EBD2

>  <compound_code>  (479) 
87971

>  <title>  (479) 
rxn503b____EMOL525400____EMOL7515103____EMOL317509042

>  <variant>  (479) 
87971-4

>  <source_file>  (479) 
运行/运行/ATP-VSW/ATP-VSW-DOCK_HTVS_1-003_lib/ATP-VSW-DOCK_HTVS_1-003_lib.mae

>  <canonical_smiles>  (479) 
C[C@H]([NH2+]CC#Cc1cnc(NC(=O)Cc2ccc(C#N)cc2)c2ccccc12)c1cccc(F)c1

>  <scaffold>  (479) 
O=C(Cc1ccccc1)Nc1ncc(C#CC[NH2+]Cc2ccccc2)c2ccccc12

>  <molecular_formula>  (479) 
C29H24FN4O+

$$$$
ATP-HTVS-4BBA1A792A2F
     RDKit          3D

 59 62  0  0  0  0  0  0  0  0999 V2000
  197.2965  178.6396  148.2048 O   0  0  0  0  0  0  0  0  0  0  0  0
  198.2056  177.9846  148.7146 C   0  0  0  0  0  0  0  0  0  0  0  0
  198.5903  178.0473  149.9990 N   0  0  0  0  0  0  0  0  0  0  0  0
  198.2092  178.9807  151.0176 C   0  0  0  0  0  0  0  0  0  0  0  0
  197.3132  179.9646  150.7836 N   0  0  0  0  0  0  0  0  0  0  0  0
  197.0206  180.8497  151.7574 C   0  0  0  0  0  0  0  0  0  0  0  0
  197.5570  180.7845  153.0620 C   0  0  0  0  0  0  0  0  0  0  0  0
  197.1394  181.7206  154.0259 N   0  0  0  0  0  0  0  0  0  0  0  0
  198.1137  182.6148  154.6637 C   0  0  1  0  0  0  0  0  0  0  0  0
  197.6380  183.0892  156.0332 C   0  0  0  0  0  0  0  0  0  0  0  0
  196.6618  182.3749  156.7759 C   0  0  0  0  0  0  0  0  0  0  0  0
  196.2315  182.8487  158.0307 C   0  0  0  0  0  0  0  0  0  0  0  0
  196.7821  184.0284  158.5699 C   0  0  0  0  0  0  0  0  0  0  0  0
  197.7768  184.7201  157.8546 C   0  0  0  0  0  0  0  0  0  0  0  0
  198.2001  184.2519  156.5951 C   0  0  0  0  0  0  0  0  0  0  0  0
  195.1682  182.0825  158.7791 C   0  0  1  0  0  0  0  0  0  0  0  0
  193.8351  182.1725  158.1401 N   0  0  2  0  0  0  0  0  0  0  0  0
  193.1248  183.4046  158.5207 C   0  0  2  0  0  0  0  0  0  0  0  0
  193.0063  180.9625  158.3028 C   0  0  2  0  0  0  0  0  0  0  0  0
  198.4602  179.7295  153.3452 C   0  0  0  0  0  0  0  0  0  0  0  0
  198.8287  178.8346  152.2965 C   0  0  0  0  0  0  0  0  0  0  0  0
  199.7711  177.7960  152.5623 C   0  0  0  0  0  0  0  0  0  0  0  0
  200.3305  177.6484  153.8532 C   0  0  0  0  0  0  0  0  0  0  0  0
  199.9288  178.5244  154.8864 C   0  0  0  0  0  0  0  0  0  0  0  0
  198.9803  179.5359  154.6465 C   0  0  0  0  0  0  0  0  0  0  0  0
  199.0862  177.1111  147.8656 C   0  0  0  0  0  0  0  0  0  0  0  0
  199.5240  177.5978  146.6084 C   0  0  0  0  0  0  0  0  0  0  0  0
  200.3509  176.8253  145.7712 C   0  0  0  0  0  0  0  0  0  0  0  0
  200.7510  177.3037  144.5721 O   0  0  0  0  0  0  0  0  0  0  0  0
  200.7445  175.5404  146.1995 C   0  0  0  0  0  0  0  0  0  0  0  0
  200.3167  175.0299  147.4518 C   0  0  0  0  0  0  0  0  0  0  0  0
  199.4969  175.8217  148.2890 C   0  0  0  0  0  0  0  0  0  0  0  0
  199.3604  177.4420  150.2439 H   0  0  0  0  0  0  0  0  0  0  0  0
  196.3169  181.6322  151.5026 H   0  0  0  0  0  0  0  0  0  0  0  0
  196.1757  182.0397  154.0065 H   0  0  0  0  0  0  0  0  0  0  0  0
  199.0871  182.1199  154.7985 H   0  0  0  0  0  0  0  0  0  0  0  0
  198.2594  183.4953  154.0218 H   0  0  0  0  0  0  0  0  0  0  0  0
  196.2315  181.4454  156.4133 H   0  0  0  0  0  0  0  0  0  0  0  0
  196.4628  184.4023  159.5308 H   0  0  0  0  0  0  0  0  0  0  0  0
  198.2272  185.6061  158.2669 H   0  0  0  0  0  0  0  0  0  0  0  0
  198.9712  184.7705  156.0536 H   0  0  0  0  0  0  0  0  0  0  0  0
  195.5169  181.0404  158.8684 H   0  0  0  0  0  0  0  0  0  0  0  0
  195.1034  182.4362  159.8017 H   0  0  0  0  0  0  0  0  0  0  0  0
  192.9562  183.4993  159.5980 H   0  0  0  0  0  0  0  0  0  0  0  0
  192.1547  183.3862  158.0408 H   0  0  0  0  0  0  0  0  0  0  0  0
  193.6666  184.2915  158.1816 H   0  0  0  0  0  0  0  0  0  0  0  0
  192.7716  180.7865  159.3477 H   0  0  0  0  0  0  0  0  0  0  0  0
  193.5390  180.0888  157.9471 H   0  0  0  0  0  0  0  0  0  0  0  0
  192.0737  181.0263  157.7444 H   0  0  0  0  0  0  0  0  0  0  0  0
  200.0618  177.0612  151.8154 H   0  0  0  0  0  0  0  0  0  0  0  0
  201.0309  176.8372  154.0630 H   0  0  0  0  0  0  0  0  0  0  0  0
  200.3389  178.4019  155.8798 H   0  0  0  0  0  0  0  0  0  0  0  0
  198.6392  180.1421  155.4731 H   0  0  0  0  0  0  0  0  0  0  0  0
  199.2072  178.5720  146.2679 H   0  0  0  0  0  0  0  0  0  0  0  0
  200.1229  177.0652  143.8480 H   0  0  0  0  0  0  0  0  0  0  0  0
  201.3622  174.9324  145.5659 H   0  0  0  0  0  0  0  0  0  0  0  0
  200.6100  174.0465  147.7676 H   0  0  0  0  0  0  0  0  0  0  0  0
  199.1715  175.4245  149.2443 H   0  0  0  0  0  0  0  0  0  0  0  0
  193.9488  182.2649  157.1264 H   0  0  0  0  0  0  0  0  0  0  0  0
  1  2  2  0
  2  3  1  0
  2 26  1  0
  3  4  1  0
  3 33  1  0
  4  5  1  0
  4 21  2  0
  5  6  2  0
  6  7  1  0
  6 34  1  0
  7  8  1  0
  7 20  2  0
  8  9  1  0
  8 35  1  0
  9 10  1  0
  9 36  1  1
  9 37  1  0
 10 11  2  0
 10 15  1  0
 11 12  1  0
 11 38  1  0
 12 13  2  0
 12 16  1  0
 13 14  1  0
 13 39  1  0
 14 15  2  0
 14 40  1  0
 15 41  1  0
 16 17  1  0
 16 42  1  1
 16 43  1  0
 17 18  1  0
 17 19  1  0
 17 59  1  6
 18 44  1  1
 18 45  1  0
 18 46  1  0
 19 47  1  1
 19 48  1  0
 19 49  1  0
 20 21  1  0
 20 25  1  0
 21 22  1  0
 22 23  2  0
 22 50  1  0
 23 24  1  0
 23 51  1  0
 24 25  2  0
 24 52  1  0
 25 53  1  0
 26 27  1  0
 26 32  2  0
 27 28  2  0
 27 54  1  0
 28 29  1  0
 28 30  1  0
 29 55  1  0
 30 31  2  0
 30 56  1  0
 31 32  1  0
 31 57  1  0
 32 58  1  0
M  CHG  1  17   1
M  END
>  <s_epik_cmdline>  (480) 
J2VwaWtfcHl0aG9uJywgJy1waCcsICc3LjAwMDAwMCcsICctcGh0JywgJzIuMDAwMDAwJywgJy1tcycsICcxNicsICctdG4nLCAnOCcsICctbWEnLCAnMjAwJywgJy1pbWFlJywgJzxpbmZpbGUubWFlPicsICctb21hZScsICc8b3V0ZmlsZS5tYWU+Jw==

>  <s_epik_input>  (480) 
W2NIXTFbY0hdW2NIXWMoW09IXSlbY0hdYzFDKD1PKVtOSF1jKGMoYzIzKVtjSF1bY0hdW2NIXVtjSF0zKW5bY0hdYzJbTkhdW0NIMl1jNFtjSF1jKFtjSF1bY0hdW2NIXTQpW0NIMl1OKFtDSDNdKVtDSDNd

>  <s_i_glide_gridfile>  (480) 
ATP-Grid

>  <s_lp_Force_Field>  (480) 
OPLS_2005

>  <s_lp_Variant>  (480) 
rxn502b____EMOL519605____EMOL7515103____EMOL2873214-1

>  <s_lp_label>  (480) 
2205_sdstereoexpander_1_neutralizer_1_epik_1_stereoizer_1

>  <s_m_source_file>  (480) 
ATP-VSW-LIGPREP-001-in.maegz

>  <s_sd_BIOSOLVEIT.INFINISEE\_QUERY\_NAME>  (480) 
Ref-Lig

>  <s_sd_BIOSOLVEIT.INFINISEE\_QUERY\_SMILES>  (480) 
S(c1nc2c(cc1C[NH2+]Cc3ccc(cc3)C[NH+](C)C)cccc2)Cc4ccccc4

>  <s_sd_BIOSOLVEIT.INFINISEE\_REACTION\_NAME>  (480) 
rxn502b

>  <s_sd_BIOSOLVEIT.INFINISEE\_REAGENT1\_NAME>  (480) 
EMOL519605

>  <s_sd_BIOSOLVEIT.INFINISEE\_REAGENT1\_SMILES>  (480) 
O=C(O)c1cc(O)ccc1

>  <s_sd_BIOSOLVEIT.INFINISEE\_REAGENT2\_NAME>  (480) 
EMOL7515103

>  <s_sd_BIOSOLVEIT.INFINISEE\_REAGENT2\_SMILES>  (480) 
Brc1c2c(c(nc1)N)cccc2

>  <s_sd_BIOSOLVEIT.INFINISEE\_REAGENT3\_NAME>  (480) 
EMOL2873214

>  <s_sd_BIOSOLVEIT.INFINISEE\_REAGENT3\_SMILES>  (480) 
N(Cc1cc(ccc1)CN)(C)C

>  <s_sd_BIOSOLVEIT.INFINISEE\_SPACE>  (480) 
eXplore_7tr_2022-12

>  <s_vsw_compound_code>  (480) 
70529

>  <s_vsw_variant>  (480) 
70529-1

>  <r_epik_Charging_Adjusted_Penalty>  (480) 
0.093184281917767703

>  <r_epik_Ionization_Penalty>  (480) 
0.049200000000000001

>  <r_epik_Ionization_Penalty_Charging>  (480) 
0.0441

>  <r_epik_Ionization_Penalty_Neutral>  (480) 
0.0051000000000000004

>  <r_epik_State_Penalty>  (480) 
0.049099999999999998

>  <r_i_docking_score>  (480) 
-4.75445047012433

>  <r_i_glide_ecoul>  (480) 
-16.841814041137699

>  <r_i_glide_eff_state_penalty>  (480) 
0.049099999999999998

>  <r_i_glide_einternal>  (480) 
13.620659828186

>  <r_i_glide_emodel>  (480) 
-58.347868187991601

>  <r_i_glide_energy>  (480) 
-45.573488235473597

>  <r_i_glide_erotb>  (480) 
0.76045252336906599

>  <r_i_glide_esite>  (480) 
-0.12315115997329799

>  <r_i_glide_evdw>  (480) 
-28.731674194335898

>  <r_i_glide_gscore>  (480) 
-4.8035504701243301

>  <r_i_glide_hbond>  (480) 
-0.32994303851300599

>  <r_i_glide_ligand_efficiency>  (480) 
-0.14857657719138501

>  <r_i_glide_ligand_efficiency_ln>  (480) 
-1.06465106168585

>  <r_i_glide_ligand_efficiency_sa>  (480) 
-0.471701229317949

>  <r_i_glide_lipo>  (480) 
-0.52698333357476301

>  <r_i_glide_metal>  (480) 
-0

>  <r_i_glide_rewards>  (480) 
-0.62106964554488198

>  <r_lp_Energy>  (480) 
30.510023

>  <r_lp_tautomer_probability>  (480) 
0.999999999997365

>  <r_qp_ACxDN^.5/SA>  (480) 
0.015662499999999999

>  <r_qp_CIQPlogS>  (480) 
-5.1429999999999998

>  <r_qp_EA(eV)>  (480) 
0.80300000000000005

>  <r_qp_FISA>  (480) 
121.672

>  <r_qp_FOSA>  (480) 
210.20400000000001

>  <r_qp_IP(eV)>  (480) 
7.6130000000000004

>  <r_qp_Jm>  (480) 
0.00059646859311966705

>  <r_qp_PISA>  (480) 
469.87

>  <r_qp_PSA>  (480) 
83.216999999999999

>  <r_qp_PercentHumanOralAbsorption>  (480) 
90.478999999999999

>  <r_qp_QPPCaco>  (480) 
173.37200000000001

>  <r_qp_QPPMDCK>  (480) 
82.349000000000004

>  <r_qp_QPlogBB>  (480) 
-0.91700000000000004

>  <r_qp_QPlogHERG>  (480) 
-8.3469999999999995

>  <r_qp_QPlogKhsa>  (480) 
0.58699999999999997

>  <r_qp_QPlogKp>  (480) 
-3.4009999999999998

>  <r_qp_QPlogPC16>  (480) 
16.507000000000001

>  <r_qp_QPlogPo/w>  (480) 
4.0069999999999997

>  <r_qp_QPlogPoct>  (480) 
25.707000000000001

>  <r_qp_QPlogPw>  (480) 
15.443

>  <r_qp_QPlogS>  (480) 
-5.4530000000000003

>  <r_qp_QPpolrz>  (480) 
50.037999999999997

>  <r_qp_SASA>  (480) 
801.74599999999998

>  <r_qp_SAamideO>  (480) 
0

>  <r_qp_SAfluorine>  (480) 
0

>  <r_qp_WPSA>  (480) 
0

>  <r_qp_accptHB>  (480) 
7.25

>  <r_qp_dip^2/V>  (480) 
0.0541267

>  <r_qp_dipole>  (480) 
8.7680000000000007

>  <r_qp_donorHB>  (480) 
3

>  <r_qp_glob>  (480) 
0.76216980000000001

>  <r_qp_mol_MW>  (480) 
426.517

>  <r_qp_volume>  (480) 
1420.317

>  <r_sd_BIOSOLVEIT.INFINISEE\_FTREES\_SIMILARITY>  (480) 
0.93100000000000005

>  <r_sd_BIOSOLVEIT.LOGP>  (480) 
3.4493

>  <r_sd_BIOSOLVEIT.MOLECULAR\_WEIGHT>  (480) 
427.52499999999998

>  <r_sd_BIOSOLVEIT.TPSA>  (480) 
78.689999999999998

>  <i_epik_Tot_Q>  (480) 
1

>  <i_epik_Tot_abs_Q>  (480) 
1

>  <i_f3d_flags>  (480) 
0

>  <i_i_glide_confnum>  (480) 
9

>  <i_i_glide_lignum>  (480) 
729

>  <i_i_glide_posenum>  (480) 
14

>  <i_i_glide_rotatable_bonds>  (480) 
9

>  <i_lp_mmshare_version>  (480) 
65135

>  <i_m_ct_format>  (480) 
2

>  <i_m_source_file_index>  (480) 
2205

>  <i_qp_#NandO>  (480) 
6

>  <i_qp_#acid>  (480) 
0

>  <i_qp_#amide>  (480) 
0

>  <i_qp_#amidine>  (480) 
0

>  <i_qp_#amine>  (480) 
1

>  <i_qp_#in34>  (480) 
0

>  <i_qp_#in56>  (480) 
22

>  <i_qp_#metab>  (480) 
8

>  <i_qp_#nonHatm>  (480) 
32

>  <i_qp_#noncon>  (480) 
0

>  <i_qp_#ringatoms>  (480) 
22

>  <i_qp_#rotor>  (480) 
8

>  <i_qp_#rtvFG>  (480) 
0

>  <i_qp_#stars>  (480) 
2

>  <i_qp_CNS>  (480) 
-1

>  <i_qp_HumanOralAbsorption>  (480) 
3

>  <i_qp_RuleOfFive>  (480) 
0

>  <i_qp_RuleOfThree>  (480) 
1

>  <i_sd_BIOSOLVEIT.INFINISEE\_RESULT\_RANK>  (480) 
4130

>  <i_sd_version>  (480) 
0

>  <b_lp_Chiralities_Consistent>  (480) 
1

>  <b_sd_chiral_flag>  (480) 
0

>  <canonical_id>  (480) 
ATP-HTVS-4BBA1A792A2F

>  <compound_code>  (480) 
70529

>  <title>  (480) 
rxn502b____EMOL519605____EMOL7515103____EMOL2873214

>  <variant>  (480) 
70529-1

>  <source_file>  (480) 
运行/运行/ATP-VSW/ATP-VSW-DOCK_HTVS_1-001_lib/ATP-VSW-DOCK_HTVS_1-001_lib

>  <canonical_smiles>  (480) 
C[NH+](C)Cc1cccc(CNc2cnc(NC(=O)c3cccc(O)c3)c3ccccc23)c1

>  <scaffold>  (480) 
O=C(Nc1ncc(NCc2ccccc2)c2ccccc12)c1ccccc1

>  <molecular_formula>  (480) 
C26H27N4O2+

$$$$
ATP-HTVS-4BCACD3FB587
     RDKit          3D

 65 68  0  0  0  0  0  0  0  0999 V2000
  197.6831  180.7167  150.8458 O   0  0  0  0  0  0  0  0  0  0  0  0
  197.1985  181.1176  151.9005 C   0  0  0  0  0  0  0  0  0  0  0  0
  197.4780  180.6062  153.1173 N   0  0  0  0  0  0  0  0  0  0  0  0
  198.4091  179.5829  153.4787 C   0  0  0  0  0  0  0  0  0  0  0  0
  198.6641  179.3493  154.8551 C   0  0  0  0  0  0  0  0  0  0  0  0
  197.9929  180.1057  155.8316 N   0  0  0  0  0  0  0  0  0  0  0  0
  198.6474  181.3623  156.1648 C   0  0  1  0  0  0  0  0  0  0  0  0
  197.8757  182.2310  157.1436 C   0  0  0  0  0  0  0  0  0  0  0  0
  196.4645  182.2495  157.1380 C   0  0  0  0  0  0  0  0  0  0  0  0
  195.7606  183.0551  158.0488 C   0  0  0  0  0  0  0  0  0  0  0  0
  196.4591  183.8551  158.9764 C   0  0  0  0  0  0  0  0  0  0  0  0
  197.8710  183.8259  158.9973 C   0  0  0  0  0  0  0  0  0  0  0  0
  198.5734  183.0377  158.0687 C   0  0  0  0  0  0  0  0  0  0  0  0
  195.6926  184.7523  159.9317 C   0  0  1  0  0  0  0  0  0  0  0  0
  196.1556  186.1646  159.9031 N   0  0  1  0  0  0  0  0  0  0  0  0
  196.1489  186.7745  158.5521 C   0  0  2  0  0  0  0  0  0  0  0  0
  195.4403  187.0018  160.8906 C   0  0  2  0  0  0  0  0  0  0  0  0
  199.6020  178.3446  155.2172 C   0  0  0  0  0  0  0  0  0  0  0  0
  200.2224  177.5907  154.1822 C   0  0  0  0  0  0  0  0  0  0  0  0
  199.9524  177.8028  152.8795 N   0  0  0  0  0  0  0  0  0  0  0  0
  199.0783  178.7650  152.5377 C   0  0  0  0  0  0  0  0  0  0  0  0
  201.1485  176.5831  154.5215 C   0  0  0  0  0  0  0  0  0  0  0  0
  201.4779  176.3222  155.8631 C   0  0  0  0  0  0  0  0  0  0  0  0
  200.8783  177.0768  156.8861 C   0  0  0  0  0  0  0  0  0  0  0  0
  199.9491  178.0813  156.5655 C   0  0  0  0  0  0  0  0  0  0  0  0
  196.2027  182.2766  151.8524 C   0  0  1  0  0  0  0  0  0  0  0  0
  196.9457  183.6066  151.7851 C   0  0  0  0  0  0  0  0  0  0  0  0
  197.2576  184.2104  150.5398 C   0  0  0  0  0  0  0  0  0  0  0  0
  196.8632  183.5570  149.3891 O   0  0  0  0  0  0  0  0  0  0  0  0
  197.2281  184.1138  148.1344 C   0  0  2  0  0  0  0  0  0  0  0  0
  197.9615  185.4427  150.5311 C   0  0  0  0  0  0  0  0  0  0  0  0
  198.3495  186.0538  151.7381 C   0  0  0  0  0  0  0  0  0  0  0  0
  198.0435  185.4452  152.9681 C   0  0  0  0  0  0  0  0  0  0  0  0
  197.3421  184.2267  152.9900 C   0  0  0  0  0  0  0  0  0  0  0  0
  197.0134  181.0339  153.9067 H   0  0  0  0  0  0  0  0  0  0  0  0
  197.7317  179.5764  156.6648 H   0  0  0  0  0  0  0  0  0  0  0  0
  199.6429  181.1593  156.5711 H   0  0  0  0  0  0  0  0  0  0  0  0
  198.7997  181.9385  155.2501 H   0  0  0  0  0  0  0  0  0  0  0  0
  195.9017  181.6523  156.4346 H   0  0  0  0  0  0  0  0  0  0  0  0
  194.6805  183.0625  158.0062 H   0  0  0  0  0  0  0  0  0  0  0  0
  198.4294  184.4237  159.7066 H   0  0  0  0  0  0  0  0  0  0  0  0
  199.6538  183.0274  158.0814 H   0  0  0  0  0  0  0  0  0  0  0  0
  194.6273  184.7125  159.6995 H   0  0  0  0  0  0  0  0  0  0  0  0
  195.8126  184.3410  160.9323 H   0  0  0  0  0  0  0  0  0  0  0  0
  195.1482  186.7841  158.1270 H   0  0  0  0  0  0  0  0  0  0  0  0
  196.7980  186.2386  157.8604 H   0  0  0  0  0  0  0  0  0  0  0  0
  196.5101  187.8021  158.5912 H   0  0  0  0  0  0  0  0  0  0  0  0
  194.3784  187.0689  160.6488 H   0  0  0  0  0  0  0  0  0  0  0  0
  195.8478  188.0133  160.9132 H   0  0  0  0  0  0  0  0  0  0  0  0
  195.5317  186.5918  161.8967 H   0  0  0  0  0  0  0  0  0  0  0  0
  198.9232  178.8350  151.4733 H   0  0  0  0  0  0  0  0  0  0  0  0
  201.6056  176.0076  153.7320 H   0  0  0  0  0  0  0  0  0  0  0  0
  202.1953  175.5502  156.1067 H   0  0  0  0  0  0  0  0  0  0  0  0
  201.1322  176.8898  157.9187 H   0  0  0  0  0  0  0  0  0  0  0  0
  199.4922  178.6373  157.3737 H   0  0  0  0  0  0  0  0  0  0  0  0
  195.5632  182.1559  150.9772 H   0  0  0  0  0  0  0  0  0  0  0  0
  195.5503  182.2420  152.7222 H   0  0  0  0  0  0  0  0  0  0  0  0
  196.9008  183.4510  147.3342 H   0  0  0  0  0  0  0  0  0  0  0  0
  198.3095  184.2229  148.0414 H   0  0  0  0  0  0  0  0  0  0  0  0
  196.7489  185.0804  147.9781 H   0  0  0  0  0  0  0  0  0  0  0  0
  198.2139  185.9451  149.6083 H   0  0  0  0  0  0  0  0  0  0  0  0
  198.8755  186.9977  151.7196 H   0  0  0  0  0  0  0  0  0  0  0  0
  198.3356  185.9180  153.8953 H   0  0  0  0  0  0  0  0  0  0  0  0
  197.1082  183.7619  153.9374 H   0  0  0  0  0  0  0  0  0  0  0  0
  197.1232  186.1459  160.1924 H   0  0  0  0  0  0  0  0  0  0  0  0
  1  2  2  0
  2  3  1  0
  2 26  1  0
  3  4  1  0
  3 35  1  0
  4  5  2  0
  4 21  1  0
  5  6  1  0
  5 18  1  0
  6  7  1  0
  6 36  1  0
  7  8  1  0
  7 37  1  1
  7 38  1  0
  8  9  1  0
  8 13  2  0
  9 10  2  0
  9 39  1  0
 10 11  1  0
 10 40  1  0
 11 12  2  0
 11 14  1  0
 12 13  1  0
 12 41  1  0
 13 42  1  0
 14 15  1  0
 14 43  1  6
 14 44  1  0
 15 16  1  0
 15 17  1  0
 15 65  1  1
 16 45  1  6
 16 46  1  0
 16 47  1  0
 17 48  1  6
 17 49  1  0
 17 50  1  0
 18 19  1  0
 18 25  2  0
 19 20  1  0
 19 22  2  0
 20 21  2  0
 21 51  1  0
 22 23  1  0
 22 52  1  0
 23 24  2  0
 23 53  1  0
 24 25  1  0
 24 54  1  0
 25 55  1  0
 26 27  1  0
 26 56  1  6
 26 57  1  0
 27 28  1  0
 27 34  2  0
 28 29  1  0
 28 31  2  0
 29 30  1  0
 30 58  1  6
 30 59  1  0
 30 60  1  0
 31 32  1  0
 31 61  1  0
 32 33  2  0
 32 62  1  0
 33 34  1  0
 33 63  1  0
 34 64  1  0
M  CHG  1  15   1
M  END
>  <s_epik_cmdline>  (481) 
J2VwaWtfcHl0aG9uJywgJy1waCcsICc3LjAwMDAwMCcsICctcGh0JywgJzIuMDAwMDAwJywgJy1tcycsICcxNicsICctdG4nLCAnOCcsICctbWEnLCAnMjAwJywgJy1pbWFlJywgJzxpbmZpbGUubWFlPicsICctb21hZScsICc8b3V0ZmlsZS5tYWU+Jw==

>  <s_epik_input>  (481) 
W2NIXTFbY0hdW2NIXVtjSF1jKE9bQ0gzXSljMVtDSDJdQyg9TylbTkhdYyhbY0hdbmMoYzIzKVtjSF1bY0hdW2NIXVtjSF0zKWMyW05IXVtDSDJdYzRbY0hdW2NIXWMoW2NIXVtjSF00KVtDSDJdTihbQ0gzXSlbQ0gzXQ==

>  <s_i_glide_gridfile>  (481) 
ATP-Grid

>  <s_lp_Force_Field>  (481) 
OPLS_2005

>  <s_lp_Variant>  (481) 
rxn502b____EMOL32280493____EMOL30488121____EMOL50155899-3

>  <s_lp_label>  (481) 
2224_sdstereoexpander_1_neutralizer_1_epik_3_stereoizer_1

>  <s_m_source_file>  (481) 
ATP-VSW-LIGPREP-003-in.maegz

>  <s_sd_BIOSOLVEIT.INFINISEE\_QUERY\_NAME>  (481) 
Ref-Lig

>  <s_sd_BIOSOLVEIT.INFINISEE\_QUERY\_SMILES>  (481) 
S(c1nc2c(cc1C[NH2+]Cc3ccc(cc3)C[NH+](C)C)cccc2)Cc4ccccc4

>  <s_sd_BIOSOLVEIT.INFINISEE\_REACTION\_NAME>  (481) 
rxn502b

>  <s_sd_BIOSOLVEIT.INFINISEE\_REAGENT1\_NAME>  (481) 
EMOL32280493

>  <s_sd_BIOSOLVEIT.INFINISEE\_REAGENT1\_SMILES>  (481) 
ClC(=O)Cc1c(OC)cccc1

>  <s_sd_BIOSOLVEIT.INFINISEE\_REAGENT2\_NAME>  (481) 
EMOL30488121

>  <s_sd_BIOSOLVEIT.INFINISEE\_REAGENT2\_SMILES>  (481) 
Brc1c(N)cnc2c1cccc2

>  <s_sd_BIOSOLVEIT.INFINISEE\_REAGENT3\_NAME>  (481) 
EMOL50155899

>  <s_sd_BIOSOLVEIT.INFINISEE\_REAGENT3\_SMILES>  (481) 
N(Cc1ccc(cc1)CN)(C)C

>  <s_sd_BIOSOLVEIT.INFINISEE\_SPACE>  (481) 
eXplore_7tr_2022-12

>  <s_vsw_compound_code>  (481) 
71139

>  <s_vsw_variant>  (481) 
71139-3

>  <r_epik_Charging_Adjusted_Penalty>  (481) 
1.87015547861156

>  <r_epik_Ionization_Penalty>  (481) 
1.831

>  <r_epik_Ionization_Penalty_Charging>  (481) 
0.039199999999999999

>  <r_epik_Ionization_Penalty_Neutral>  (481) 
1.7917000000000001

>  <r_epik_State_Penalty>  (481) 
1.831

>  <r_i_docking_score>  (481) 
-2.63140354448131

>  <r_i_glide_ecoul>  (481) 
-4.6160759925842303

>  <r_i_glide_eff_state_penalty>  (481) 
1.831

>  <r_i_glide_einternal>  (481) 
2.65814232826233

>  <r_i_glide_emodel>  (481) 
-61.540148087551799

>  <r_i_glide_energy>  (481) 
-47.2421746253967

>  <r_i_glide_erotb>  (481) 
0.77439018997812004

>  <r_i_glide_esite>  (481) 
-0.086158171109165793

>  <r_i_glide_evdw>  (481) 
-42.6260986328125

>  <r_i_glide_gscore>  (481) 
-4.4624035444813099

>  <r_i_glide_hbond>  (481) 
-0.052309470282401398

>  <r_i_glide_ligand_efficiency>  (481) 
-0.077394221896509199

>  <r_i_glide_ligand_efficiency_ln>  (481) 
-0.58135085134528897

>  <r_i_glide_ligand_efficiency_sa>  (481) 
-0.25072723431190103

>  <r_i_glide_lipo>  (481) 
-1.9223057653336399

>  <r_i_glide_metal>  (481) 
-0

>  <r_i_glide_rewards>  (481) 
-0.352303997205969

>  <r_lp_Energy>  (481) 
32.935726000000003

>  <r_qp_ACxDN^.5/SA>  (481) 
0.013556199999999999

>  <r_qp_CIQPlogS>  (481) 
-5.7759999999999998

>  <r_qp_EA(eV)>  (481) 
0.92800000000000005

>  <r_qp_FISA>  (481) 
68.081000000000003

>  <r_qp_FOSA>  (481) 
251.88800000000001

>  <r_qp_IP(eV)>  (481) 
8.4800000000000004

>  <r_qp_Jm>  (481) 
0.039920664910381397

>  <r_qp_PISA>  (481) 
436.36799999999999

>  <r_qp_PSA>  (481) 
68.602000000000004

>  <r_qp_PercentHumanOralAbsorption>  (481) 
100

>  <r_qp_QPPCaco>  (481) 
558.71600000000001

>  <r_qp_QPPMDCK>  (481) 
291.72500000000002

>  <r_qp_QPlogBB>  (481) 
-0.26300000000000001

>  <r_qp_QPlogHERG>  (481) 
-7.3310000000000004

>  <r_qp_QPlogKhsa>  (481) 
0.69299999999999995

>  <r_qp_QPlogKp>  (481) 
-2.4359999999999999

>  <r_qp_QPlogPC16>  (481) 
15.574999999999999

>  <r_qp_QPlogPo/w>  (481) 
4.6689999999999996

>  <r_qp_QPlogPoct>  (481) 
24.222000000000001

>  <r_qp_QPlogPw>  (481) 
13.055999999999999

>  <r_qp_QPlogS>  (481) 
-4.6210000000000004

>  <r_qp_QPpolrz>  (481) 
49.837000000000003

>  <r_qp_SASA>  (481) 
756.33699999999999

>  <r_qp_SAamideO>  (481) 
0

>  <r_qp_SAfluorine>  (481) 
0

>  <r_qp_WPSA>  (481) 
0

>  <r_qp_accptHB>  (481) 
7.25

>  <r_qp_dip^2/V>  (481) 
0.063367400000000004

>  <r_qp_dipole>  (481) 
9.5500000000000007

>  <r_qp_donorHB>  (481) 
2

>  <r_qp_glob>  (481) 
0.81513340000000001

>  <r_qp_mol_MW>  (481) 
454.57100000000003

>  <r_qp_volume>  (481) 
1439.356

>  <r_sd_BIOSOLVEIT.INFINISEE\_FTREES\_SIMILARITY>  (481) 
0.92900000000000005

>  <r_sd_BIOSOLVEIT.LOGP>  (481) 
3.6812

>  <r_sd_BIOSOLVEIT.MOLECULAR\_WEIGHT>  (481) 
455.57900000000001

>  <r_sd_BIOSOLVEIT.TPSA>  (481) 
67.689999999999998

>  <i_epik_Tot_Q>  (481) 
1

>  <i_epik_Tot_abs_Q>  (481) 
1

>  <i_f3d_flags>  (481) 
0

>  <i_i_glide_confnum>  (481) 
14

>  <i_i_glide_lignum>  (481) 
892

>  <i_i_glide_posenum>  (481) 
12

>  <i_i_glide_rotatable_bonds>  (481) 
10

>  <i_lp_mmshare_version>  (481) 
65135

>  <i_m_ct_format>  (481) 
2

>  <i_m_source_file_index>  (481) 
2224

>  <i_qp_#NandO>  (481) 
6

>  <i_qp_#acid>  (481) 
0

>  <i_qp_#amide>  (481) 
0

>  <i_qp_#amidine>  (481) 
0

>  <i_qp_#amine>  (481) 
1

>  <i_qp_#in34>  (481) 
0

>  <i_qp_#in56>  (481) 
22

>  <i_qp_#metab>  (481) 
8

>  <i_qp_#nonHatm>  (481) 
34

>  <i_qp_#noncon>  (481) 
0

>  <i_qp_#ringatoms>  (481) 
22

>  <i_qp_#rotor>  (481) 
9

>  <i_qp_#rtvFG>  (481) 
0

>  <i_qp_#stars>  (481) 
0

>  <i_qp_CNS>  (481) 
1

>  <i_qp_HumanOralAbsorption>  (481) 
3

>  <i_qp_RuleOfFive>  (481) 
0

>  <i_qp_RuleOfThree>  (481) 
1

>  <i_sd_BIOSOLVEIT.INFINISEE\_RESULT\_RANK>  (481) 
5455

>  <i_sd_version>  (481) 
0

>  <b_lp_Chiralities_Consistent>  (481) 
1

>  <b_sd_chiral_flag>  (481) 
0

>  <canonical_id>  (481) 
ATP-HTVS-4BCACD3FB587

>  <compound_code>  (481) 
71139

>  <title>  (481) 
rxn502b____EMOL32280493____EMOL30488121____EMOL50155899

>  <variant>  (481) 
71139-3

>  <source_file>  (481) 
运行/运行/ATP-VSW/ATP-VSW-DOCK_HTVS_1-003_lib/ATP-VSW-DOCK_HTVS_1-003_lib.mae

>  <canonical_smiles>  (481) 
COc1ccccc1CC(=O)Nc1cnc2ccccc2c1NCc1ccc(C[NH+](C)C)cc1

>  <scaffold>  (481) 
O=C(Cc1ccccc1)Nc1cnc2ccccc2c1NCc1ccccc1

>  <molecular_formula>  (481) 
C28H31N4O2+

$$$$
ATP-HTVS-4BE062240422
     RDKit          3D

 67 70  0  0  0  0  0  0  0  0999 V2000
  199.3219  178.9211  146.5874 O   0  0  0  0  0  0  0  0  0  0  0  0
  198.1439  178.7268  146.2847 C   0  0  0  0  0  0  0  0  0  0  0  0
  197.5871  179.0129  145.0997 O   0  0  0  0  0  0  0  0  0  0  0  0
  198.3763  179.6182  144.0897 C   0  0  2  0  0  0  0  0  0  0  0  0
  197.1400  178.1158  147.2645 C   0  0  1  0  0  0  0  0  0  0  0  0
  197.4161  178.4710  148.7155 C   0  0  0  0  0  0  0  0  0  0  0  0
  198.4419  177.8219  149.4267 C   0  0  0  0  0  0  0  0  0  0  0  0
  198.6816  178.1386  150.7783 C   0  0  0  0  0  0  0  0  0  0  0  0
  197.9046  179.1215  151.4375 C   0  0  0  0  0  0  0  0  0  0  0  0
  196.8520  179.7471  150.7244 C   0  0  0  0  0  0  0  0  0  0  0  0
  196.6218  179.4337  149.3716 C   0  0  0  0  0  0  0  0  0  0  0  0
  198.1852  179.4471  152.8839 C   0  0  0  0  0  0  0  0  0  0  0  0
  198.8549  178.6863  153.5848 O   0  0  0  0  0  0  0  0  0  0  0  0
  197.7372  180.6542  153.2748 N   0  0  0  0  0  0  0  0  0  0  0  0
  197.7777  181.2492  154.5634 C   0  0  0  0  0  0  0  0  0  0  0  0
  197.8921  180.5077  155.6871 N   0  0  0  0  0  0  0  0  0  0  0  0
  197.8279  181.1067  156.8900 C   0  0  0  0  0  0  0  0  0  0  0  0
  197.7360  182.5010  157.0711 C   0  0  0  0  0  0  0  0  0  0  0  0
  197.7568  183.0291  158.3830 N   0  0  0  0  0  0  0  0  0  0  0  0
  198.9027  183.8339  158.8285 C   0  0  1  0  0  0  0  0  0  0  0  0
  200.2168  183.6398  158.0820 C   0  0  0  0  0  0  0  0  0  0  0  0
  201.0312  182.5317  158.3837 C   0  0  0  0  0  0  0  0  0  0  0  0
  202.1593  182.2324  157.5932 C   0  0  0  0  0  0  0  0  0  0  0  0
  202.5297  183.1100  156.5488 C   0  0  0  0  0  0  0  0  0  0  0  0
  201.7501  184.2518  156.2747 C   0  0  0  0  0  0  0  0  0  0  0  0
  200.6012  184.5199  157.0453 C   0  0  0  0  0  0  0  0  0  0  0  0
  202.9058  180.9281  157.8192 C   0  0  1  0  0  0  0  0  0  0  0  0
  202.3503  179.8015  157.0230 N   0  0  1  0  0  0  0  0  0  0  0  0
  201.0252  179.3295  157.4835 C   0  0  2  0  0  0  0  0  0  0  0  0
  202.3853  180.0191  155.5575 C   0  0  2  0  0  0  0  0  0  0  0  0
  197.6411  183.2944  155.8979 C   0  0  0  0  0  0  0  0  0  0  0  0
  197.6558  182.6662  154.6199 C   0  0  0  0  0  0  0  0  0  0  0  0
  197.5632  183.4674  153.4491 C   0  0  0  0  0  0  0  0  0  0  0  0
  197.4808  184.8690  153.5454 C   0  0  0  0  0  0  0  0  0  0  0  0
  197.4824  185.4859  154.8089 C   0  0  0  0  0  0  0  0  0  0  0  0
  197.5376  184.7029  155.9749 C   0  0  0  0  0  0  0  0  0  0  0  0
  197.7674  179.7997  143.2038 H   0  0  0  0  0  0  0  0  0  0  0  0
  199.2122  178.9773  143.8077 H   0  0  0  0  0  0  0  0  0  0  0  0
  198.7741  180.5757  144.4326 H   0  0  0  0  0  0  0  0  0  0  0  0
  196.1338  178.4402  146.9980 H   0  0  0  0  0  0  0  0  0  0  0  0
  197.1625  177.0397  147.1516 H   0  0  0  0  0  0  0  0  0  0  0  0
  199.0468  177.0702  148.9417 H   0  0  0  0  0  0  0  0  0  0  0  0
  199.4824  177.6402  151.3038 H   0  0  0  0  0  0  0  0  0  0  0  0
  196.2106  180.4878  151.1831 H   0  0  0  0  0  0  0  0  0  0  0  0
  195.8205  179.9176  148.8390 H   0  0  0  0  0  0  0  0  0  0  0  0
  197.3148  181.2261  152.5619 H   0  0  0  0  0  0  0  0  0  0  0  0
  197.8974  180.4419  157.7334 H   0  0  0  0  0  0  0  0  0  0  0  0
  197.4085  182.3972  159.0973 H   0  0  0  0  0  0  0  0  0  0  0  0
  198.6322  184.8888  158.8051 H   0  0  0  0  0  0  0  0  0  0  0  0
  199.0797  183.6045  159.8818 H   0  0  0  0  0  0  0  0  0  0  0  0
  200.7488  181.8530  159.1759 H   0  0  0  0  0  0  0  0  0  0  0  0
  203.3851  182.8916  155.9262 H   0  0  0  0  0  0  0  0  0  0  0  0
  202.0013  184.8940  155.4429 H   0  0  0  0  0  0  0  0  0  0  0  0
  199.9975  185.3814  156.7986 H   0  0  0  0  0  0  0  0  0  0  0  0
  203.9543  181.0798  157.5613 H   0  0  0  0  0  0  0  0  0  0  0  0
  202.8939  180.6732  158.8817 H   0  0  0  0  0  0  0  0  0  0  0  0
  200.2765  180.1149  157.3894 H   0  0  0  0  0  0  0  0  0  0  0  0
  201.0799  179.0111  158.5245 H   0  0  0  0  0  0  0  0  0  0  0  0
  200.6728  178.4822  156.8884 H   0  0  0  0  0  0  0  0  0  0  0  0
  201.7122  180.8217  155.2468 H   0  0  0  0  0  0  0  0  0  0  0  0
  202.0815  179.1209  155.0208 H   0  0  0  0  0  0  0  0  0  0  0  0
  203.3964  180.2725  155.2376 H   0  0  0  0  0  0  0  0  0  0  0  0
  197.5632  183.0370  152.4579 H   0  0  0  0  0  0  0  0  0  0  0  0
  197.4106  185.4795  152.6526 H   0  0  0  0  0  0  0  0  0  0  0  0
  197.4315  186.5618  154.8888 H   0  0  0  0  0  0  0  0  0  0  0  0
  197.5114  185.1948  156.9337 H   0  0  0  0  0  0  0  0  0  0  0  0
  202.9767  179.0208  157.1955 H   0  0  0  0  0  0  0  0  0  0  0  0
  1  2  2  0
  2  3  1  0
  2  5  1  0
  3  4  1  0
  4 37  1  6
  4 38  1  0
  4 39  1  0
  5  6  1  0
  5 40  1  6
  5 41  1  0
  6  7  1  0
  6 11  2  0
  7  8  2  0
  7 42  1  0
  8  9  1  0
  8 43  1  0
  9 10  2  0
  9 12  1  0
 10 11  1  0
 10 44  1  0
 11 45  1  0
 12 13  2  0
 12 14  1  0
 14 15  1  0
 14 46  1  0
 15 16  1  0
 15 32  2  0
 16 17  2  0
 17 18  1  0
 17 47  1  0
 18 19  1  0
 18 31  2  0
 19 20  1  0
 19 48  1  0
 20 21  1  0
 20 49  1  1
 20 50  1  0
 21 22  2  0
 21 26  1  0
 22 23  1  0
 22 51  1  0
 23 24  2  0
 23 27  1  0
 24 25  1  0
 24 52  1  0
 25 26  2  0
 25 53  1  0
 26 54  1  0
 27 28  1  0
 27 55  1  6
 27 56  1  0
 28 29  1  0
 28 30  1  0
 28 67  1  6
 29 57  1  1
 29 58  1  0
 29 59  1  0
 30 60  1  1
 30 61  1  0
 30 62  1  0
 31 32  1  0
 31 36  1  0
 32 33  1  0
 33 34  2  0
 33 63  1  0
 34 35  1  0
 34 64  1  0
 35 36  2  0
 35 65  1  0
 36 66  1  0
M  CHG  1  28   1
M  END
>  <s_epik_Chemistry_Notes>  (482) 
This compound has an ester and may undergo hydrolysis at high or low pH.

>  <s_epik_cmdline>  (482) 
J2VwaWtfcHl0aG9uJywgJy1waCcsICc3LjAwMDAwMCcsICctcGh0JywgJzIuMDAwMDAwJywgJy1tcycsICcxNicsICctdG4nLCAnOCcsICctbWEnLCAnMjAwJywgJy1pbWFlJywgJzxpbmZpbGUubWFlPicsICctb21hZScsICc8b3V0ZmlsZS5tYWU+Jw==

>  <s_epik_input>  (482) 
W0NIM11PQyg9TylbQ0gyXWMxW2NIXVtjSF1jKFtjSF1bY0hdMSlDKD1PKVtOSF1jKGMoYzIzKVtjSF1bY0hdW2NIXVtjSF0zKW5bY0hdYzJbTkhdW0NIMl1jNFtjSF1jKFtjSF1bY0hdW2NIXTQpW0NIMl1OKFtDSDNdKVtDSDNd

>  <s_i_glide_gridfile>  (482) 
ATP-Grid

>  <s_lp_Force_Field>  (482) 
OPLS_2005

>  <s_lp_Variant>  (482) 
rxn502b____EMOL50897851____EMOL7515103____EMOL2873214-1

>  <s_lp_label>  (482) 
2527_sdstereoexpander_1_neutralizer_1_epik_1_stereoizer_1

>  <s_m_source_file>  (482) 
ATP-VSW-LIGPREP-001-in.maegz

>  <s_sd_BIOSOLVEIT.INFINISEE\_QUERY\_NAME>  (482) 
Ref-Lig

>  <s_sd_BIOSOLVEIT.INFINISEE\_QUERY\_SMILES>  (482) 
S(c1nc2c(cc1C[NH2+]Cc3ccc(cc3)C[NH+](C)C)cccc2)Cc4ccccc4

>  <s_sd_BIOSOLVEIT.INFINISEE\_REACTION\_NAME>  (482) 
rxn502b

>  <s_sd_BIOSOLVEIT.INFINISEE\_REAGENT1\_NAME>  (482) 
EMOL50897851

>  <s_sd_BIOSOLVEIT.INFINISEE\_REAGENT1\_SMILES>  (482) 
O=C(O)c1ccc(cc1)CC(=O)OC

>  <s_sd_BIOSOLVEIT.INFINISEE\_REAGENT2\_NAME>  (482) 
EMOL7515103

>  <s_sd_BIOSOLVEIT.INFINISEE\_REAGENT2\_SMILES>  (482) 
Brc1c2c(c(nc1)N)cccc2

>  <s_sd_BIOSOLVEIT.INFINISEE\_REAGENT3\_NAME>  (482) 
EMOL2873214

>  <s_sd_BIOSOLVEIT.INFINISEE\_REAGENT3\_SMILES>  (482) 
N(Cc1cc(ccc1)CN)(C)C

>  <s_sd_BIOSOLVEIT.INFINISEE\_SPACE>  (482) 
eXplore_7tr_2022-12

>  <s_vsw_compound_code>  (482) 
80833

>  <s_vsw_variant>  (482) 
80833-1

>  <r_epik_Charging_Adjusted_Penalty>  (482) 
0.088195370499548398

>  <r_epik_Ionization_Penalty>  (482) 
0.044200000000000003

>  <r_epik_Ionization_Penalty_Charging>  (482) 
0.0441

>  <r_epik_Ionization_Penalty_Neutral>  (482) 
0.0001

>  <r_epik_State_Penalty>  (482) 
0.0441

>  <r_i_docking_score>  (482) 
-3.6018127813699299

>  <r_i_glide_ecoul>  (482) 
-8.4622755050659197

>  <r_i_glide_eff_state_penalty>  (482) 
0.0441

>  <r_i_glide_einternal>  (482) 
6.6042098999023402

>  <r_i_glide_emodel>  (482) 
-51.680341390345603

>  <r_i_glide_energy>  (482) 
-41.359450340271003

>  <r_i_glide_erotb>  (482) 
0.78133539457566803

>  <r_i_glide_esite>  (482) 
-0.044432742283061703

>  <r_i_glide_evdw>  (482) 
-32.897174835205099

>  <r_i_glide_gscore>  (482) 
-3.6459127813699301

>  <r_i_glide_hbond>  (482) 
0

>  <r_i_glide_ligand_efficiency>  (482) 
-0.100050355038054

>  <r_i_glide_ligand_efficiency_ln>  (482) 
-0.78581823915909299

>  <r_i_glide_ligand_efficiency_sa>  (482) 
-0.33035899316711498

>  <r_i_glide_lipo>  (482) 
-1.0970313174187001

>  <r_i_glide_metal>  (482) 
-0

>  <r_i_glide_rewards>  (482) 
-0.37158404872369799

>  <r_lp_Energy>  (482) 
30.717686

>  <r_qp_ACxDN^.5/SA>  (482) 
0.015303799999999999

>  <r_qp_CIQPlogS>  (482) 
-5.8479999999999999

>  <r_qp_EA(eV)>  (482) 
0.85299999999999998

>  <r_qp_FISA>  (482) 
116.027

>  <r_qp_FOSA>  (482) 
301.38200000000001

>  <r_qp_IP(eV)>  (482) 
7.8330000000000002

>  <r_qp_Jm>  (482) 
0.0026946832074486999

>  <r_qp_PISA>  (482) 
368.06900000000002

>  <r_qp_PSA>  (482) 
99.156000000000006

>  <r_qp_PercentHumanOralAbsorption>  (482) 
92.477000000000004

>  <r_qp_QPPCaco>  (482) 
196.11799999999999

>  <r_qp_QPPMDCK>  (482) 
94.085999999999999

>  <r_qp_QPlogBB>  (482) 
-0.75900000000000001

>  <r_qp_QPlogHERG>  (482) 
-7.0839999999999996

>  <r_qp_QPlogKhsa>  (482) 
0.63900000000000001

>  <r_qp_QPlogKp>  (482) 
-3.5600000000000001

>  <r_qp_QPlogPC16>  (482) 
16.073

>  <r_qp_QPlogPo/w>  (482) 
4.1840000000000002

>  <r_qp_QPlogPoct>  (482) 
25.323

>  <r_qp_QPlogPw>  (482) 
14.218999999999999

>  <r_qp_QPlogS>  (482) 
-4.6929999999999996

>  <r_qp_QPpolrz>  (482) 
51.996000000000002

>  <r_qp_SASA>  (482) 
785.47799999999995

>  <r_qp_SAamideO>  (482) 
0

>  <r_qp_SAfluorine>  (482) 
0

>  <r_qp_WPSA>  (482) 
0

>  <r_qp_accptHB>  (482) 
8.5

>  <r_qp_dip^2/V>  (482) 
0.029532599999999999

>  <r_qp_dipole>  (482) 
6.6769999999999996

>  <r_qp_donorHB>  (482) 
2

>  <r_qp_glob>  (482) 
0.81022289999999997

>  <r_qp_mol_MW>  (482) 
482.58100000000002

>  <r_qp_volume>  (482) 
1509.5930000000001

>  <r_sd_BIOSOLVEIT.INFINISEE\_FTREES\_SIMILARITY>  (482) 
0.91300000000000003

>  <r_sd_BIOSOLVEIT.LOGP>  (482) 
3.4592000000000001

>  <r_sd_BIOSOLVEIT.MOLECULAR\_WEIGHT>  (482) 
483.589

>  <r_sd_BIOSOLVEIT.TPSA>  (482) 
84.760000000000005

>  <i_epik_Tot_Q>  (482) 
1

>  <i_epik_Tot_abs_Q>  (482) 
1

>  <i_f3d_flags>  (482) 
0

>  <i_i_glide_confnum>  (482) 
11

>  <i_i_glide_lignum>  (482) 
1001

>  <i_i_glide_posenum>  (482) 
7

>  <i_i_glide_rotatable_bonds>  (482) 
11

>  <i_lp_mmshare_version>  (482) 
65135

>  <i_m_ct_format>  (482) 
2

>  <i_m_source_file_index>  (482) 
2527

>  <i_qp_#NandO>  (482) 
7

>  <i_qp_#acid>  (482) 
0

>  <i_qp_#amide>  (482) 
0

>  <i_qp_#amidine>  (482) 
0

>  <i_qp_#amine>  (482) 
1

>  <i_qp_#in34>  (482) 
0

>  <i_qp_#in56>  (482) 
22

>  <i_qp_#metab>  (482) 
8

>  <i_qp_#nonHatm>  (482) 
36

>  <i_qp_#noncon>  (482) 
0

>  <i_qp_#ringatoms>  (482) 
22

>  <i_qp_#rotor>  (482) 
9

>  <i_qp_#rtvFG>  (482) 
1

>  <i_qp_#stars>  (482) 
1

>  <i_qp_CNS>  (482) 
0

>  <i_qp_HumanOralAbsorption>  (482) 
3

>  <i_qp_RuleOfFive>  (482) 
0

>  <i_qp_RuleOfThree>  (482) 
1

>  <i_sd_BIOSOLVEIT.INFINISEE\_RESULT\_RANK>  (482) 
33428

>  <i_sd_version>  (482) 
0

>  <b_lp_Chiralities_Consistent>  (482) 
1

>  <b_sd_chiral_flag>  (482) 
0

>  <canonical_id>  (482) 
ATP-HTVS-4BE062240422

>  <compound_code>  (482) 
80833

>  <title>  (482) 
rxn502b____EMOL50897851____EMOL7515103____EMOL2873214

>  <variant>  (482) 
80833-1

>  <source_file>  (482) 
运行/运行/ATP-VSW/ATP-VSW-DOCK_HTVS_1-001_lib/ATP-VSW-DOCK_HTVS_1-001_lib

>  <canonical_smiles>  (482) 
COC(=O)Cc1ccc(C(=O)Nc2ncc(NCc3cccc(C[NH+](C)C)c3)c3ccccc23)cc1

>  <scaffold>  (482) 
O=C(Nc1ncc(NCc2ccccc2)c2ccccc12)c1ccccc1

>  <molecular_formula>  (482) 
C29H31N4O3+

$$$$
ATP-HTVS-4BFDBDCB8AC3
     RDKit          3D

 58 60  0  0  0  0  0  0  0  0999 V2000
  201.3918  174.2579  150.8147 O   0  0  0  0  0  0  0  0  0  0  0  0
  200.7952  175.0302  151.5674 C   0  0  0  0  0  0  0  0  0  0  0  0
  201.4331  175.6987  152.5677 N   0  0  0  0  0  0  0  0  0  0  0  0
  200.8427  176.7251  153.3452 C   0  0  0  0  0  0  0  0  0  0  0  0
  200.4122  177.8651  152.7493 N   0  0  0  0  0  0  0  0  0  0  0  0
  199.7290  178.7569  153.4895 C   0  0  0  0  0  0  0  0  0  0  0  0
  199.5359  178.6506  154.8786 C   0  0  0  0  0  0  0  0  0  0  0  0
  198.8412  179.6252  155.6244 N   0  0  0  0  0  0  0  0  0  0  0  0
  198.8991  181.0179  155.1716 C   0  0  1  0  0  0  0  0  0  0  0  0
  198.2444  182.0258  156.1117 C   0  0  0  0  0  0  0  0  0  0  0  0
  197.1492  181.6538  156.9196 C   0  0  0  0  0  0  0  0  0  0  0  0
  196.5729  182.5715  157.8231 C   0  0  0  0  0  0  0  0  0  0  0  0
  197.0701  183.8883  157.8893 C   0  0  0  0  0  0  0  0  0  0  0  0
  198.1424  184.2767  157.0632 C   0  0  0  0  0  0  0  0  0  0  0  0
  198.7301  183.3499  156.1799 C   0  0  0  0  0  0  0  0  0  0  0  0
  195.4668  182.1180  158.7625 C   0  0  1  0  0  0  0  0  0  0  0  0
  194.1132  182.3316  158.2035 N   0  0  1  0  0  0  0  0  0  0  0  0
  193.2355  181.1510  158.2855 C   0  0  2  0  0  0  0  0  0  0  0  0
  193.4545  183.5840  158.6163 C   0  0  2  0  0  0  0  0  0  0  0  0
  200.0686  177.5076  155.5238 C   0  0  0  0  0  0  0  0  0  0  0  0
  200.7207  176.5246  154.7346 C   0  0  0  0  0  0  0  0  0  0  0  0
  202.8314  175.3986  152.8677 C   0  0  2  0  0  0  0  0  0  0  0  0
  199.2695  175.2069  151.3364 C   0  0  1  0  0  0  0  0  0  0  0  0
  198.9160  176.2483  150.2729 C   0  0  0  0  0  0  0  0  0  0  0  0
  198.5735  177.5633  150.6516 C   0  0  0  0  0  0  0  0  0  0  0  0
  198.4049  178.5787  149.7060 C   0  0  0  0  0  0  0  0  0  0  0  0
  198.3595  178.2500  148.3353 C   0  0  0  0  0  0  0  0  0  0  0  0
  198.5547  176.9018  147.9463 C   0  0  0  0  0  0  0  0  0  0  0  0
  198.8710  175.9018  148.8996 C   0  0  0  0  0  0  0  0  0  0  0  0
  199.2281  179.5209  152.9192 H   0  0  0  0  0  0  0  0  0  0  0  0
  198.7563  179.4760  156.6249 H   0  0  0  0  0  0  0  0  0  0  0  0
  199.9440  181.3081  155.0280 H   0  0  0  0  0  0  0  0  0  0  0  0
  198.4152  181.1172  154.1988 H   0  0  0  0  0  0  0  0  0  0  0  0
  196.7646  180.6455  156.8646 H   0  0  0  0  0  0  0  0  0  0  0  0
  196.6456  184.5982  158.5843 H   0  0  0  0  0  0  0  0  0  0  0  0
  198.5243  185.2843  157.1175 H   0  0  0  0  0  0  0  0  0  0  0  0
  199.5578  183.6576  155.5585 H   0  0  0  0  0  0  0  0  0  0  0  0
  195.6141  181.0576  158.9742 H   0  0  0  0  0  0  0  0  0  0  0  0
  195.5408  182.6374  159.7182 H   0  0  0  0  0  0  0  0  0  0  0  0
  193.0202  180.9352  159.3291 H   0  0  0  0  0  0  0  0  0  0  0  0
  193.7043  180.2754  157.8393 H   0  0  0  0  0  0  0  0  0  0  0  0
  192.2989  181.3128  157.7468 H   0  0  0  0  0  0  0  0  0  0  0  0
  193.3091  183.5922  159.6918 H   0  0  0  0  0  0  0  0  0  0  0  0
  192.4747  183.6580  158.1435 H   0  0  0  0  0  0  0  0  0  0  0  0
  194.0389  184.4629  158.3391 H   0  0  0  0  0  0  0  0  0  0  0  0
  200.0123  177.4129  156.6060 H   0  0  0  0  0  0  0  0  0  0  0  0
  201.1335  175.6412  155.2145 H   0  0  0  0  0  0  0  0  0  0  0  0
  203.2254  176.1225  153.5838 H   0  0  0  0  0  0  0  0  0  0  0  0
  203.4635  175.4561  151.9752 H   0  0  0  0  0  0  0  0  0  0  0  0
  202.9337  174.4031  153.3116 H   0  0  0  0  0  0  0  0  0  0  0  0
  198.8513  174.2412  151.0468 H   0  0  0  0  0  0  0  0  0  0  0  0
  198.7831  175.4360  152.2770 H   0  0  0  0  0  0  0  0  0  0  0  0
  198.4356  177.8139  151.6905 H   0  0  0  0  0  0  0  0  0  0  0  0
  198.2597  179.5913  150.0461 H   0  0  0  0  0  0  0  0  0  0  0  0
  198.1227  179.0270  147.6090 H   0  0  0  0  0  0  0  0  0  0  0  0
  198.4659  176.6340  146.8998 H   0  0  0  0  0  0  0  0  0  0  0  0
  199.0272  174.8660  148.5935 H   0  0  0  0  0  0  0  0  0  0  0  0
  194.2317  182.4479  157.2121 H   0  0  0  0  0  0  0  0  0  0  0  0
  1  2  2  0
  2  3  1  0
  2 23  1  0
  3  4  1  0
  3 22  1  0
  4  5  1  0
  4 21  2  0
  5  6  2  0
  6  7  1  0
  6 30  1  0
  7  8  1  0
  7 20  2  0
  8  9  1  0
  8 31  1  0
  9 10  1  0
  9 32  1  6
  9 33  1  0
 10 11  2  0
 10 15  1  0
 11 12  1  0
 11 34  1  0
 12 13  2  0
 12 16  1  0
 13 14  1  0
 13 35  1  0
 14 15  2  0
 14 36  1  0
 15 37  1  0
 16 17  1  0
 16 38  1  1
 16 39  1  0
 17 18  1  0
 17 19  1  0
 17 58  1  6
 18 40  1  1
 18 41  1  0
 18 42  1  0
 19 43  1  1
 19 44  1  0
 19 45  1  0
 20 21  1  0
 20 46  1  0
 21 47  1  0
 22 48  1  1
 22 49  1  0
 22 50  1  0
 23 24  1  0
 23 51  1  6
 23 52  1  0
 24 25  2  0
 24 29  1  0
 25 26  1  0
 25 53  1  0
 26 27  2  0
 26 54  1  0
 27 28  1  0
 27 55  1  0
 28 29  2  0
 28 56  1  0
 29 57  1  0
M  CHG  1  17   1
M  END
>  <s_epik_cmdline>  (483) 
J2VwaWtfcHl0aG9uJywgJy1waCcsICc3LjAwMDAwMCcsICctcGh0JywgJzIuMDAwMDAwJywgJy1tcycsICcxNicsICctdG4nLCAnOCcsICctbWEnLCAnMjAwJywgJy1pbWFlJywgJzxpbmZpbGUubWFlPicsICctb21hZScsICc8b3V0ZmlsZS5tYWU+Jw==

>  <s_epik_input>  (483) 
W2NIXTFbY0hdW2NIXVtjSF1bY0hdYzFbQ0gyXUMoPU8pTihbQ0gzXSljMm5bY0hdYyhbY0hdW2NIXTIpW05IXVtDSDJdYzNbY0hdYyhbY0hdW2NIXVtjSF0zKVtDSDJdTihbQ0gzXSlbQ0gzXQ==

>  <s_i_glide_gridfile>  (483) 
ATP-Grid

>  <s_lp_Force_Field>  (483) 
OPLS_2005

>  <s_lp_Variant>  (483) 
rxn502a____EMOL530620____EMOL43618924____EMOL2873214-1

>  <s_lp_label>  (483) 
2559_sdstereoexpander_1_neutralizer_1_epik_1_stereoizer_1

>  <s_m_source_file>  (483) 
ATP-VSW-LIGPREP-001-in.maegz

>  <s_sd_BIOSOLVEIT.INFINISEE\_QUERY\_NAME>  (483) 
Ref-Lig

>  <s_sd_BIOSOLVEIT.INFINISEE\_QUERY\_SMILES>  (483) 
S(c1nc2c(cc1C[NH2+]Cc3ccc(cc3)C[NH+](C)C)cccc2)Cc4ccccc4

>  <s_sd_BIOSOLVEIT.INFINISEE\_REACTION\_NAME>  (483) 
rxn502a

>  <s_sd_BIOSOLVEIT.INFINISEE\_REAGENT1\_NAME>  (483) 
EMOL530620

>  <s_sd_BIOSOLVEIT.INFINISEE\_REAGENT1\_SMILES>  (483) 
ClC(=O)Cc1ccccc1

>  <s_sd_BIOSOLVEIT.INFINISEE\_REAGENT2\_NAME>  (483) 
EMOL43618924

>  <s_sd_BIOSOLVEIT.INFINISEE\_REAGENT2\_SMILES>  (483) 
Ic1cnc(NC)cc1

>  <s_sd_BIOSOLVEIT.INFINISEE\_REAGENT3\_NAME>  (483) 
EMOL2873214

>  <s_sd_BIOSOLVEIT.INFINISEE\_REAGENT3\_SMILES>  (483) 
N(Cc1cc(ccc1)CN)(C)C

>  <s_sd_BIOSOLVEIT.INFINISEE\_SPACE>  (483) 
eXplore_7tr_2022-12

>  <s_vsw_compound_code>  (483) 
81857

>  <s_vsw_variant>  (483) 
81857-1

>  <r_epik_Charging_Adjusted_Penalty>  (483) 
0.100995747078099

>  <r_epik_Ionization_Penalty>  (483) 
0.056899999999999999

>  <r_epik_Ionization_Penalty_Charging>  (483) 
0.0441

>  <r_epik_Ionization_Penalty_Neutral>  (483) 
0.012800000000000001

>  <r_epik_State_Penalty>  (483) 
0.056899999999999999

>  <r_i_docking_score>  (483) 
-4.0902853474727303

>  <r_i_glide_ecoul>  (483) 
-7.9791235923767099

>  <r_i_glide_eff_state_penalty>  (483) 
0.056899999999999999

>  <r_i_glide_einternal>  (483) 
3.59344553947449

>  <r_i_glide_emodel>  (483) 
-52.263770852500699

>  <r_i_glide_energy>  (483) 
-39.168017864227302

>  <r_i_glide_erotb>  (483) 
0.89945080978840697

>  <r_i_glide_esite>  (483) 
-0.159080038254376

>  <r_i_glide_evdw>  (483) 
-31.1888942718506

>  <r_i_glide_gscore>  (483) 
-4.14718534747273

>  <r_i_glide_hbond>  (483) 
-0.20000000000000001

>  <r_i_glide_ligand_efficiency>  (483) 
-0.14104432232664599

>  <r_i_glide_ligand_efficiency_ln>  (483) 
-0.93657162388410897

>  <r_i_glide_ligand_efficiency_sa>  (483) 
-0.43333284416522599

>  <r_i_glide_lipo>  (483) 
-1.04295881099737

>  <r_i_glide_metal>  (483) 
-0

>  <r_i_glide_rewards>  (483) 
-0.88828405556035095

>  <r_lp_Energy>  (483) 
33.229309000000001

>  <r_lp_tautomer_probability>  (483) 
0.999999999999999

>  <r_qp_ACxDN^.5/SA>  (483) 
0.0099053000000000006

>  <r_qp_CIQPlogS>  (483) 
-4.3440000000000003

>  <r_qp_EA(eV)>  (483) 
0.058999999999999997

>  <r_qp_FISA>  (483) 
65.647999999999996

>  <r_qp_FOSA>  (483) 
251.43100000000001

>  <r_qp_IP(eV)>  (483) 
8.3179999999999996

>  <r_qp_Jm>  (483) 
0.084633869525303204

>  <r_qp_PISA>  (483) 
389.61200000000002

>  <r_qp_PSA>  (483) 
57.848999999999997

>  <r_qp_PercentHumanOralAbsorption>  (483) 
100

>  <r_qp_QPPCaco>  (483) 
589.19799999999998

>  <r_qp_QPPMDCK>  (483) 
308.96499999999997

>  <r_qp_QPlogBB>  (483) 
-0.17399999999999999

>  <r_qp_QPlogHERG>  (483) 
-7.056

>  <r_qp_QPlogKhsa>  (483) 
0.44700000000000001

>  <r_qp_QPlogKp>  (483) 
-2.6509999999999998

>  <r_qp_QPlogPC16>  (483) 
13.804

>  <r_qp_QPlogPo/w>  (483) 
4.0309999999999997

>  <r_qp_QPlogPoct>  (483) 
20.395

>  <r_qp_QPlogPw>  (483) 
11.111000000000001

>  <r_qp_QPlogS>  (483) 
-4.0099999999999998

>  <r_qp_QPpolrz>  (483) 
44.762

>  <r_qp_SASA>  (483) 
706.69100000000003

>  <r_qp_SAamideO>  (483) 
0

>  <r_qp_SAfluorine>  (483) 
0

>  <r_qp_WPSA>  (483) 
0

>  <r_qp_accptHB>  (483) 
7

>  <r_qp_dip^2/V>  (483) 
0.036471900000000002

>  <r_qp_dipole>  (483) 
6.9059999999999997

>  <r_qp_donorHB>  (483) 
1

>  <r_qp_glob>  (483) 
0.81832570000000004

>  <r_qp_mol_MW>  (483) 
388.51100000000002

>  <r_qp_volume>  (483) 
1307.634

>  <r_sd_BIOSOLVEIT.INFINISEE\_FTREES\_SIMILARITY>  (483) 
0.91200000000000003

>  <r_sd_BIOSOLVEIT.LOGP>  (483) 
2.5436999999999999

>  <r_sd_BIOSOLVEIT.MOLECULAR\_WEIGHT>  (483) 
389.51999999999998

>  <r_sd_BIOSOLVEIT.TPSA>  (483) 
49.670000000000002

>  <i_epik_Tot_Q>  (483) 
1

>  <i_epik_Tot_abs_Q>  (483) 
1

>  <i_f3d_flags>  (483) 
0

>  <i_i_glide_confnum>  (483) 
5

>  <i_i_glide_lignum>  (483) 
1025

>  <i_i_glide_posenum>  (483) 
14

>  <i_i_glide_rotatable_bonds>  (483) 
9

>  <i_lp_mmshare_version>  (483) 
65135

>  <i_m_ct_format>  (483) 
2

>  <i_m_source_file_index>  (483) 
2559

>  <i_qp_#NandO>  (483) 
5

>  <i_qp_#acid>  (483) 
0

>  <i_qp_#amide>  (483) 
0

>  <i_qp_#amidine>  (483) 
0

>  <i_qp_#amine>  (483) 
1

>  <i_qp_#in34>  (483) 
0

>  <i_qp_#in56>  (483) 
18

>  <i_qp_#metab>  (483) 
7

>  <i_qp_#nonHatm>  (483) 
29

>  <i_qp_#noncon>  (483) 
0

>  <i_qp_#ringatoms>  (483) 
18

>  <i_qp_#rotor>  (483) 
8

>  <i_qp_#rtvFG>  (483) 
0

>  <i_qp_#stars>  (483) 
0

>  <i_qp_CNS>  (483) 
1

>  <i_qp_HumanOralAbsorption>  (483) 
3

>  <i_qp_RuleOfFive>  (483) 
0

>  <i_qp_RuleOfThree>  (483) 
1

>  <i_sd_BIOSOLVEIT.INFINISEE\_RESULT\_RANK>  (483) 
36796

>  <i_sd_version>  (483) 
0

>  <b_lp_Chiralities_Consistent>  (483) 
1

>  <b_sd_chiral_flag>  (483) 
0

>  <canonical_id>  (483) 
ATP-HTVS-4BFDBDCB8AC3

>  <compound_code>  (483) 
81857

>  <title>  (483) 
rxn502a____EMOL530620____EMOL43618924____EMOL2873214

>  <variant>  (483) 
81857-1

>  <source_file>  (483) 
运行/运行/ATP-VSW/ATP-VSW-DOCK_HTVS_1-001_lib/ATP-VSW-DOCK_HTVS_1-001_lib

>  <canonical_smiles>  (483) 
CN(C(=O)Cc1ccccc1)c1ccc(NCc2cccc(C[NH+](C)C)c2)cn1

>  <scaffold>  (483) 
O=C(Cc1ccccc1)Nc1ccc(NCc2ccccc2)cn1

>  <molecular_formula>  (483) 
C24H29N4O+

$$$$
ATP-HTVS-4C04B46E023C
     RDKit          3D

 66 69  0  0  0  0  0  0  0  0999 V2000
  200.5226  173.1178  152.2275 O   0  0  0  0  0  0  0  0  0  0  0  0
  201.6819  173.5964  152.8824 C   0  0  1  0  0  0  0  0  0  0  0  0
  201.4409  174.8611  153.7155 C   0  0  0  0  0  0  0  0  0  0  0  0
  202.0118  175.0382  155.0033 C   0  0  0  0  0  0  0  0  0  0  0  0
  201.7288  176.2126  155.7444 C   0  0  0  0  0  0  0  0  0  0  0  0
  200.8959  177.2279  155.2108 C   0  0  0  0  0  0  0  0  0  0  0  0
  200.3573  177.0579  153.9225 C   0  0  0  0  0  0  0  0  0  0  0  0
  200.6381  175.8962  153.1790 C   0  0  0  0  0  0  0  0  0  0  0  0
  200.5414  178.4754  156.0093 C   0  0  1  0  0  0  0  0  0  0  0  0
  201.6683  179.1016  156.6837 N   0  0  0  0  0  0  0  0  0  0  0  0
  201.6463  180.3359  157.3101 C   0  0  0  0  0  0  0  0  0  0  0  0
  200.5789  181.1395  157.2191 N   0  0  0  0  0  0  0  0  0  0  0  0
  200.5637  182.3237  157.8575 C   0  0  0  0  0  0  0  0  0  0  0  0
  199.3570  183.0272  157.7916 N   0  0  0  0  0  0  0  0  0  0  0  0
  198.7162  183.4120  159.0468 C   0  0  1  0  0  0  0  0  0  0  0  0
  197.1888  183.4409  159.0031 C   0  0  0  0  0  0  0  0  0  0  0  0
  196.4152  184.5562  159.4431 C   0  0  0  0  0  0  0  0  0  0  0  0
  194.9983  184.4746  159.3869 C   0  0  0  0  0  0  0  0  0  0  0  0
  194.3564  183.3252  158.8772 C   0  0  0  0  0  0  0  0  0  0  0  0
  195.1277  182.2394  158.4205 C   0  0  0  0  0  0  0  0  0  0  0  0
  196.5320  182.3002  158.4843 C   0  0  0  0  0  0  0  0  0  0  0  0
  197.0270  185.8534  159.9752 C   0  0  1  0  0  0  0  0  0  0  0  0
  197.2551  186.8990  158.9343 N   0  0  2  0  0  0  0  0  0  0  0  0
  198.2353  186.5495  157.8748 C   0  0  2  0  0  0  0  0  0  0  0  0
  197.5847  188.2126  159.5259 C   0  0  2  0  0  0  0  0  0  0  0  0
  201.6963  182.7797  158.5804 C   0  0  0  0  0  0  0  0  0  0  0  0
  202.8033  181.8956  158.6185 C   0  0  0  0  0  0  0  0  0  0  0  0
  202.7494  180.6936  157.9870 N   0  0  0  0  0  0  0  0  0  0  0  0
  204.0010  182.2853  159.2758 C   0  0  0  0  0  0  0  0  0  0  0  0
  204.0728  183.5463  159.9081 C   0  0  0  0  0  0  0  0  0  0  0  0
  202.9579  184.4067  159.8873 C   0  0  0  0  0  0  0  0  0  0  0  0
  201.7816  184.0427  159.2072 C   0  0  0  0  0  0  0  0  0  0  0  0
  202.9153  173.9879  155.6206 C   0  0  2  0  0  0  0  0  0  0  0  0
  200.2810  173.7137  151.5363 H   0  0  0  0  0  0  0  0  0  0  0  0
  202.0378  172.7592  153.4806 H   0  0  0  0  0  0  0  0  0  0  0  0
  202.4511  173.8094  152.1397 H   0  0  0  0  0  0  0  0  0  0  0  0
  202.1487  176.3248  156.7310 H   0  0  0  0  0  0  0  0  0  0  0  0
  199.7079  177.8176  153.4998 H   0  0  0  0  0  0  0  0  0  0  0  0
  200.1994  175.8004  152.1950 H   0  0  0  0  0  0  0  0  0  0  0  0
  200.0847  179.2158  155.3492 H   0  0  0  0  0  0  0  0  0  0  0  0
  199.7836  178.2127  156.7495 H   0  0  0  0  0  0  0  0  0  0  0  0
  202.5175  178.5522  156.7695 H   0  0  0  0  0  0  0  0  0  0  0  0
  198.7198  182.6657  157.0837 H   0  0  0  0  0  0  0  0  0  0  0  0
  199.0280  182.7702  159.8858 H   0  0  0  0  0  0  0  0  0  0  0  0
  199.0365  184.4272  159.2605 H   0  0  0  0  0  0  0  0  0  0  0  0
  194.3870  185.2985  159.7171 H   0  0  0  0  0  0  0  0  0  0  0  0
  193.2789  183.2827  158.8092 H   0  0  0  0  0  0  0  0  0  0  0  0
  194.6514  181.3554  158.0048 H   0  0  0  0  0  0  0  0  0  0  0  0
  197.0927  181.4421  158.1267 H   0  0  0  0  0  0  0  0  0  0  0  0
  196.3230  186.2392  160.7192 H   0  0  0  0  0  0  0  0  0  0  0  0
  197.9592  185.6970  160.5153 H   0  0  0  0  0  0  0  0  0  0  0  0
  199.2314  186.4460  158.3013 H   0  0  0  0  0  0  0  0  0  0  0  0
  198.2831  187.3153  157.0966 H   0  0  0  0  0  0  0  0  0  0  0  0
  197.9760  185.6262  157.3741 H   0  0  0  0  0  0  0  0  0  0  0  0
  198.5199  188.1754  160.0962 H   0  0  0  0  0  0  0  0  0  0  0  0
  196.7975  188.5760  160.1947 H   0  0  0  0  0  0  0  0  0  0  0  0
  197.7175  188.9566  158.7346 H   0  0  0  0  0  0  0  0  0  0  0  0
  204.8773  181.6409  159.2534 H   0  0  0  0  0  0  0  0  0  0  0  0
  204.9965  183.8675  160.3979 H   0  0  0  0  0  0  0  0  0  0  0  0
  203.0127  185.3740  160.3571 H   0  0  0  0  0  0  0  0  0  0  0  0
  200.9988  184.7822  159.1517 H   0  0  0  0  0  0  0  0  0  0  0  0
  203.3082  174.3080  156.5840 H   0  0  0  0  0  0  0  0  0  0  0  0
  203.7607  173.7794  154.9664 H   0  0  0  0  0  0  0  0  0  0  0  0
  202.3670  173.0608  155.7761 H   0  0  0  0  0  0  0  0  0  0  0  0
  203.5589  180.0705  158.0008 H   0  0  0  0  0  0  0  0  0  0  0  0
  196.3575  187.0025  158.4834 H   0  0  0  0  0  0  0  0  0  0  0  0
  1  2  1  0
  1 34  1  0
  2  3  1  0
  2 35  1  1
  2 36  1  0
  3  4  2  0
  3  8  1  0
  4  5  1  0
  4 33  1  0
  5  6  2  0
  5 37  1  0
  6  7  1  0
  6  9  1  0
  7  8  2  0
  7 38  1  0
  8 39  1  0
  9 10  1  0
  9 40  1  6
  9 41  1  0
 10 11  1  0
 10 42  1  0
 11 12  1  0
 11 28  2  0
 12 13  2  0
 13 14  1  0
 13 26  1  0
 14 15  1  0
 14 43  1  0
 15 16  1  0
 15 44  1  1
 15 45  1  0
 16 17  1  0
 16 21  2  0
 17 18  2  0
 17 22  1  0
 18 19  1  0
 18 46  1  0
 19 20  2  0
 19 47  1  0
 20 21  1  0
 20 48  1  0
 21 49  1  0
 22 23  1  0
 22 50  1  1
 22 51  1  0
 23 24  1  0
 23 25  1  0
 23 66  1  6
 24 52  1  1
 24 53  1  0
 24 54  1  0
 25 55  1  1
 25 56  1  0
 25 57  1  0
 26 27  1  0
 26 32  2  0
 27 28  1  0
 27 29  2  0
 28 65  1  0
 29 30  1  0
 29 58  1  0
 30 31  2  0
 30 59  1  0
 31 32  1  0
 31 60  1  0
 32 61  1  0
 33 62  1  1
 33 63  1  0
 33 64  1  0
M  CHG  2  23   1  28   1
M  END
>  <s_epik_cmdline>  (484) 
J2VwaWtfcHl0aG9uJywgJy1waCcsICc3LjAwMDAwMCcsICctcGh0JywgJzIuMDAwMDAwJywgJy1tcycsICcxNicsICctdG4nLCAnOCcsICctbWEnLCAnMjAwJywgJy1pbWFlJywgJzxpbmZpbGUubWFlPicsICctb21hZScsICc8b3V0ZmlsZS5tYWU+Jw==

>  <s_epik_input>  (484) 
W09IXVtDSDJdYzFjKFtDSDNdKVtjSF1jKFtjSF1bY0hdMSlbQ0gyXVtOSF1jKG5jKGMyMylbY0hdW2NIXVtjSF1bY0hdMyluYzJbTkhdW0NIMl1jNGMoW0NIMl1OKFtDSDNdKVtDSDNdKVtjSF1bY0hdW2NIXVtjSF00

>  <s_i_glide_gridfile>  (484) 
ATP-Grid

>  <s_lp_Force_Field>  (484) 
OPLS_2005

>  <s_lp_Variant>  (484) 
m_282030aaa____21892234____22360182____21973156-1

>  <s_lp_label>  (484) 
2099_sdstereoexpander_1_neutralizer_1_epik_1_stereoizer_1

>  <s_m_source_file>  (484) 
ATP-VSW-LIGPREP-003-in.maegz

>  <s_sd_BIOSOLVEIT.INFINISEE\_QUERY\_NAME>  (484) 
Ref-Lig

>  <s_sd_BIOSOLVEIT.INFINISEE\_QUERY\_SMILES>  (484) 
S(c1nc2c(cc1C[NH2+]Cc3ccc(cc3)C[NH+](C)C)cccc2)Cc4ccccc4

>  <s_sd_BIOSOLVEIT.INFINISEE\_REACTION\_NAME>  (484) 
m_282030aaa

>  <s_sd_BIOSOLVEIT.INFINISEE\_REAGENT1\_SMILES>  (484) 
[R1*]NCc1cc(c(cc1)CO)C

>  <s_sd_BIOSOLVEIT.INFINISEE\_REAGENT2\_SMILES>  (484) 
[R2*]c1nc([R1*])c2c(n1)cccc2

>  <s_sd_BIOSOLVEIT.INFINISEE\_REAGENT3\_SMILES>  (484) 
[R2*]NCc1c(cccc1)CN(C)C

>  <s_sd_BIOSOLVEIT.INFINISEE\_SPACE>  (484) 
REALSpace_44bn_2023-08

>  <s_vsw_compound_code>  (484) 
67139

>  <s_vsw_variant>  (484) 
67139-1

>  <r_epik_Charging_Adjusted_Penalty>  (484) 
0.11797810958357299

>  <r_epik_Ionization_Penalty>  (484) 
0.055

>  <r_epik_Ionization_Penalty_Charging>  (484) 
0.055

>  <r_epik_Ionization_Penalty_Neutral>  (484) 
0

>  <r_epik_State_Penalty>  (484) 
0.063

>  <r_i_docking_score>  (484) 
-4.00518449043666

>  <r_i_glide_ecoul>  (484) 
-6.1935081481933603

>  <r_i_glide_eff_state_penalty>  (484) 
0.063

>  <r_i_glide_einternal>  (484) 
8.1373929977416992

>  <r_i_glide_emodel>  (484) 
-51.491318900869203

>  <r_i_glide_energy>  (484) 
-39.797401428222699

>  <r_i_glide_erotb>  (484) 
0.81285644487214903

>  <r_i_glide_esite>  (484) 
-0.017970901247283899

>  <r_i_glide_evdw>  (484) 
-33.603893280029297

>  <r_i_glide_gscore>  (484) 
-4.0681844904366598

>  <r_i_glide_hbond>  (484) 
0

>  <r_i_glide_ligand_efficiency>  (484) 
-0.121369226982929

>  <r_i_glide_ligand_efficiency_ln>  (484) 
-0.89073229293768197

>  <r_i_glide_ligand_efficiency_sa>  (484) 
-0.38929596169907599

>  <r_i_glide_lipo>  (484) 
-1.8637445837723601

>  <r_i_glide_metal>  (484) 
-0

>  <r_i_glide_rewards>  (484) 
-0.39010456405869498

>  <r_lp_Energy>  (484) 
16.252645999999999

>  <r_qp_ACxDN^.5/SA>  (484) 
0.0164972

>  <r_qp_CIQPlogS>  (484) 
-5.6399999999999997

>  <r_qp_EA(eV)>  (484) 
0.53200000000000003

>  <r_qp_FISA>  (484) 
66.968999999999994

>  <r_qp_FOSA>  (484) 
254.69999999999999

>  <r_qp_IP(eV)>  (484) 
7.968

>  <r_qp_Jm>  (484) 
0.31451483825693299

>  <r_qp_PISA>  (484) 
381.76900000000001

>  <r_qp_PSA>  (484) 
66.483999999999995

>  <r_qp_PercentHumanOralAbsorption>  (484) 
100

>  <r_qp_QPPCaco>  (484) 
572.44200000000001

>  <r_qp_QPPMDCK>  (484) 
299.47899999999998

>  <r_qp_QPlogBB>  (484) 
-0.253

>  <r_qp_QPlogHERG>  (484) 
-6.4480000000000004

>  <r_qp_QPlogKhsa>  (484) 
0.57799999999999996

>  <r_qp_QPlogKp>  (484) 
-2.5110000000000001

>  <r_qp_QPlogPC16>  (484) 
14.837999999999999

>  <r_qp_QPlogPo/w>  (484) 
4.3470000000000004

>  <r_qp_QPlogPoct>  (484) 
23.445

>  <r_qp_QPlogPw>  (484) 
13.252000000000001

>  <r_qp_QPlogS>  (484) 
-3.6360000000000001

>  <r_qp_QPpolrz>  (484) 
46.436999999999998

>  <r_qp_SASA>  (484) 
703.43700000000001

>  <r_qp_SAamideO>  (484) 
0

>  <r_qp_SAfluorine>  (484) 
0

>  <r_qp_WPSA>  (484) 
0

>  <r_qp_accptHB>  (484) 
6.7000000000000002

>  <r_qp_dip^2/V>  (484) 
0.0080175000000000003

>  <r_qp_dipole>  (484) 
3.3300000000000001

>  <r_qp_donorHB>  (484) 
3

>  <r_qp_glob>  (484) 
0.8535971

>  <r_qp_mol_MW>  (484) 
441.57499999999999

>  <r_qp_volume>  (484) 
1383.471

>  <r_sd_BIOSOLVEIT.INFINISEE\_FTREES\_SIMILARITY>  (484) 
0.90100000000000002

>  <r_sd_BIOSOLVEIT.LOGP>  (484) 
3.29922

>  <r_sd_BIOSOLVEIT.MOLECULAR\_WEIGHT>  (484) 
442.584

>  <r_sd_BIOSOLVEIT.TPSA>  (484) 
74.510000000000005

>  <i_epik_Tot_Q>  (484) 
2

>  <i_epik_Tot_abs_Q>  (484) 
2

>  <i_f3d_flags>  (484) 
0

>  <i_i_glide_confnum>  (484) 
8

>  <i_i_glide_lignum>  (484) 
776

>  <i_i_glide_posenum>  (484) 
14

>  <i_i_glide_rotatable_bonds>  (484) 
10

>  <i_lp_mmshare_version>  (484) 
65135

>  <i_m_ct_format>  (484) 
2

>  <i_m_source_file_index>  (484) 
2099

>  <i_qp_#NandO>  (484) 
6

>  <i_qp_#acid>  (484) 
0

>  <i_qp_#amide>  (484) 
0

>  <i_qp_#amidine>  (484) 
0

>  <i_qp_#amine>  (484) 
1

>  <i_qp_#in34>  (484) 
0

>  <i_qp_#in56>  (484) 
22

>  <i_qp_#metab>  (484) 
7

>  <i_qp_#nonHatm>  (484) 
33

>  <i_qp_#noncon>  (484) 
0

>  <i_qp_#ringatoms>  (484) 
22

>  <i_qp_#rotor>  (484) 
10

>  <i_qp_#rtvFG>  (484) 
0

>  <i_qp_#stars>  (484) 
0

>  <i_qp_CNS>  (484) 
0

>  <i_qp_HumanOralAbsorption>  (484) 
3

>  <i_qp_RuleOfFive>  (484) 
0

>  <i_qp_RuleOfThree>  (484) 
1

>  <i_sd_BIOSOLVEIT.INFINISEE\_REAGENT1\_NAME>  (484) 
21892234

>  <i_sd_BIOSOLVEIT.INFINISEE\_REAGENT2\_NAME>  (484) 
22360182

>  <i_sd_BIOSOLVEIT.INFINISEE\_REAGENT3\_NAME>  (484) 
21973156

>  <i_sd_BIOSOLVEIT.INFINISEE\_RESULT\_RANK>  (484) 
97237

>  <i_sd_version>  (484) 
0

>  <b_lp_Chiralities_Consistent>  (484) 
1

>  <b_sd_chiral_flag>  (484) 
0

>  <canonical_id>  (484) 
ATP-HTVS-4C04B46E023C

>  <compound_code>  (484) 
67139

>  <title>  (484) 
m_282030aaa____21892234____22360182____21973156

>  <variant>  (484) 
67139-1

>  <source_file>  (484) 
运行/运行/ATP-VSW/ATP-VSW-DOCK_HTVS_1-003_lib/ATP-VSW-DOCK_HTVS_1-003_lib.mae

>  <canonical_smiles>  (484) 
Cc1cc(CNc2nc(NCc3ccccc3C[NH+](C)C)c3ccccc3[nH+]2)ccc1CO

>  <scaffold>  (484) 
c1ccc(CNc2nc(NCc3ccccc3)c3ccccc3[nH+]2)cc1

>  <molecular_formula>  (484) 
C27H33N5O+2

$$$$
ATP-HTVS-4C091C5F609D
     RDKit          3D

 63 66  0  0  0  0  0  0  0  0999 V2000
  200.2981  177.2589  151.7220 S   0  0  0  0  0  0  0  0  0  0  0  0
  200.7116  176.3139  153.1357 C   0  0  0  0  0  0  0  0  0  0  0  0
  200.5245  177.0764  154.3313 C   0  0  0  0  0  0  0  0  0  0  0  0
  200.8265  176.4254  155.5500 C   0  0  0  0  0  0  0  0  0  0  0  0
  201.2968  175.0994  155.5873 C   0  0  0  0  0  0  0  0  0  0  0  0
  201.4722  174.3751  154.3959 C   0  0  0  0  0  0  0  0  0  0  0  0
  201.1774  174.9851  153.1645 C   0  0  0  0  0  0  0  0  0  0  0  0
  200.0605  178.4245  154.0607 C   0  0  0  0  0  0  0  0  0  0  0  0
  199.8649  179.3006  155.1577 N   0  0  0  0  0  0  0  0  0  0  0  0
  199.9774  180.7545  155.0471 C   0  0  1  0  0  0  0  0  0  0  0  0
  199.2700  181.5214  156.1859 C   0  0  0  0  0  0  0  0  0  0  0  0
  198.0792  181.0627  156.7269 C   0  0  0  0  0  0  0  0  0  0  0  0
  197.4660  181.8023  157.6779 C   0  0  0  0  0  0  0  0  0  0  0  0
  197.9693  183.0133  158.1893 C   0  0  0  0  0  0  0  0  0  0  0  0
  199.1723  183.4745  157.6588 C   0  0  0  0  0  0  0  0  0  0  0  0
  199.8339  182.7476  156.6270 C   0  0  0  0  0  0  0  0  0  0  0  0
  197.2513  183.8066  159.2916 C   0  0  1  0  0  0  0  0  0  0  0  0
  195.9560  184.4007  158.8696 N   0  0  2  0  0  0  0  0  0  0  0  0
  195.2311  185.0828  159.9590 C   0  0  1  0  0  0  0  0  0  0  0  0
  195.8686  186.4218  160.3517 C   0  0  2  0  0  0  0  0  0  0  0  0
  195.0508  183.4459  158.1673 C   0  0  1  0  0  0  0  0  0  0  0  0
  194.7100  182.1989  159.0175 C   0  0  2  0  0  0  0  0  0  0  0  0
  199.8527  178.6328  152.7034 C   0  0  0  0  0  0  0  0  0  0  0  0
  199.3738  179.7887  151.8923 C   0  0  0  0  0  0  0  0  0  0  0  0
  200.0313  180.1016  150.8859 O   0  0  0  0  0  0  0  0  0  0  0  0
  198.2268  180.4191  152.2836 N   0  0  0  0  0  0  0  0  0  0  0  0
  197.5254  179.9713  153.3468 C   0  0  0  0  0  0  0  0  0  0  0  0
  196.8977  179.6236  154.2159 N   0  0  0  0  0  0  0  0  0  0  0  0
  197.7535  181.6016  151.6456 C   0  0  0  0  0  0  0  0  0  0  0  0
  197.6784  181.6949  150.2325 C   0  0  0  0  0  0  0  0  0  0  0  0
  197.1541  182.8461  149.6259 C   0  0  0  0  0  0  0  0  0  0  0  0
  196.6819  183.9063  150.4180 C   0  0  0  0  0  0  0  0  0  0  0  0
  196.7311  183.8199  151.8201 C   0  0  0  0  0  0  0  0  0  0  0  0
  197.2552  182.6707  152.4349 C   0  0  0  0  0  0  0  0  0  0  0  0
  200.6985  176.9616  156.4796 H   0  0  0  0  0  0  0  0  0  0  0  0
  201.5176  174.6392  156.5372 H   0  0  0  0  0  0  0  0  0  0  0  0
  201.8258  173.3552  154.4259 H   0  0  0  0  0  0  0  0  0  0  0  0
  201.3089  174.4390  152.2408 H   0  0  0  0  0  0  0  0  0  0  0  0
  199.9263  178.9057  156.0924 H   0  0  0  0  0  0  0  0  0  0  0  0
  201.0260  181.0486  155.0251 H   0  0  0  0  0  0  0  0  0  0  0  0
  199.5318  181.1538  154.1500 H   0  0  0  0  0  0  0  0  0  0  0  0
  197.5801  180.1603  156.4677 H   0  0  0  0  0  0  0  0  0  0  0  0
  196.5625  181.2996  157.9157 H   0  0  0  0  0  0  0  0  0  0  0  0
  199.6449  184.4160  158.0220 H   0  0  0  0  0  0  0  0  0  0  0  0
  200.7680  183.1012  156.2033 H   0  0  0  0  0  0  0  0  0  0  0  0
  197.1132  183.1846  160.1763 H   0  0  0  0  0  0  0  0  0  0  0  0
  197.9222  184.6230  159.6239 H   0  0  0  0  0  0  0  0  0  0  0  0
  194.1984  185.2814  159.6597 H   0  0  0  0  0  0  0  0  0  0  0  0
  195.1671  184.4271  160.8312 H   0  0  0  0  0  0  0  0  0  0  0  0
  195.2803  186.9143  161.1277 H   0  0  0  0  0  0  0  0  0  0  0  0
  195.9171  187.0945  159.4947 H   0  0  0  0  0  0  0  0  0  0  0  0
  196.8776  186.2918  160.7435 H   0  0  0  0  0  0  0  0  0  0  0  0
  194.1260  183.9206  157.8722 H   0  0  0  0  0  0  0  0  0  0  0  0
  195.4937  183.2086  157.1805 H   0  0  0  0  0  0  0  0  0  0  0  0
  194.1389  181.4755  158.4347 H   0  0  0  0  0  0  0  0  0  0  0  0
  194.3089  182.4985  159.9105 H   0  0  0  0  0  0  0  0  0  0  0  0
  195.5703  181.6433  159.4565 H   0  0  0  0  0  0  0  0  0  0  0  0
  198.0191  180.8724  149.6244 H   0  0  0  0  0  0  0  0  0  0  0  0
  197.1177  182.8966  148.5538 H   0  0  0  0  0  0  0  0  0  0  0  0
  196.2766  184.7848  149.9368 H   0  0  0  0  0  0  0  0  0  0  0  0
  196.3523  184.6284  152.4278 H   0  0  0  0  0  0  0  0  0  0  0  0
  197.2746  182.6206  153.5173 H   0  0  0  0  0  0  0  0  0  0  0  0
  196.1810  185.1131  158.1877 H   0  0  0  0  0  0  0  0  0  0  0  0
  1  2  1  0
  1 23  1  0
  2  3  1  0
  2  7  2  0
  3  4  2  0
  3  8  1  0
  4  5  1  0
  4 35  1  0
  5  6  2  0
  5 36  1  0
  6  7  1  0
  6 37  1  0
  7 38  1  0
  8  9  1  0
  8 23  2  0
  9 10  1  0
  9 39  1  0
 10 11  1  0
 10 40  1  6
 10 41  1  0
 11 12  1  0
 11 16  2  0
 12 13  2  0
 12 42  1  0
 13 14  1  0
 13 43  1  0
 14 15  2  0
 14 17  1  0
 15 16  1  0
 15 44  1  0
 16 45  1  0
 17 18  1  0
 17 46  1  1
 17 47  1  0
 18 19  1  0
 18 21  1  0
 18 63  1  6
 19 20  1  0
 19 48  1  6
 19 49  1  0
 20 50  1  1
 20 51  1  0
 20 52  1  0
 21 22  1  0
 21 53  1  6
 21 54  1  0
 22 55  1  6
 22 56  1  0
 22 57  1  0
 23 24  1  0
 24 25  2  0
 24 26  1  0
 26 27  1  0
 26 29  1  0
 27 28  3  0
 29 30  2  0
 29 34  1  0
 30 31  1  0
 30 58  1  0
 31 32  2  0
 31 59  1  0
 32 33  1  0
 32 60  1  0
 33 34  2  0
 33 61  1  0
 34 62  1  0
M  CHG  1  18   1
M  END
>  <s_epik_cmdline>  (485) 
J2VwaWtfcHl0aG9uJywgJy1waCcsICc3LjAwMDAwMCcsICctcGh0JywgJzIuMDAwMDAwJywgJy1tcycsICcxNicsICctdG4nLCAnOCcsICctbWEnLCAnMjAwJywgJy1pbWFlJywgJzxpbmZpbGUubWFlPicsICctb21hZScsICc8b3V0ZmlsZS5tYWU+Jw==

>  <s_epik_input>  (485) 
W2NIXTFbY0hdW2NIXVtjSF1bY0hdYzFOKEMjTilDKD1PKWMoczIpYyhjKGMyMylbY0hdW2NIXVtjSF1bY0hdMylbTkhdW0NIMl1jNFtjSF1bY0hdYyhbY0hdW2NIXTQpW0NIMl1OKFtDSDJdW0NIM10pW0NIMl1bQ0gzXQ==

>  <s_i_glide_gridfile>  (485) 
ATP-Grid

>  <s_lp_Force_Field>  (485) 
OPLS_2005

>  <s_lp_Variant>  (485) 
rxn512c____EMOL36822768____EMOL523944____EMOL2868412-1

>  <s_lp_label>  (485) 
2337_sdstereoexpander_1_neutralizer_1_epik_1_stereoizer_1

>  <s_m_source_file>  (485) 
ATP-VSW-LIGPREP-002-in.maegz

>  <s_sd_BIOSOLVEIT.INFINISEE\_QUERY\_NAME>  (485) 
Ref-Lig

>  <s_sd_BIOSOLVEIT.INFINISEE\_QUERY\_SMILES>  (485) 
S(c1nc2c(cc1C[NH2+]Cc3ccc(cc3)C[NH+](C)C)cccc2)Cc4ccccc4

>  <s_sd_BIOSOLVEIT.INFINISEE\_REACTION\_NAME>  (485) 
rxn512c

>  <s_sd_BIOSOLVEIT.INFINISEE\_REAGENT1\_NAME>  (485) 
EMOL36822768

>  <s_sd_BIOSOLVEIT.INFINISEE\_REAGENT1\_SMILES>  (485) 
N#CNc1ccccc1

>  <s_sd_BIOSOLVEIT.INFINISEE\_REAGENT2\_NAME>  (485) 
EMOL523944

>  <s_sd_BIOSOLVEIT.INFINISEE\_REAGENT2\_SMILES>  (485) 
ClC=1c2c(SC1C(=O)O)cccc2

>  <s_sd_BIOSOLVEIT.INFINISEE\_REAGENT3\_NAME>  (485) 
EMOL2868412

>  <s_sd_BIOSOLVEIT.INFINISEE\_REAGENT3\_SMILES>  (485) 
N(Cc1ccc(cc1)CN)(CC)CC

>  <s_sd_BIOSOLVEIT.INFINISEE\_SPACE>  (485) 
eXplore_7tr_2022-12

>  <s_vsw_compound_code>  (485) 
74754

>  <s_vsw_variant>  (485) 
74754-1

>  <r_epik_Charging_Adjusted_Penalty>  (485) 
0.032576954484029398

>  <r_epik_Ionization_Penalty>  (485) 
0.016899999999999998

>  <r_epik_Ionization_Penalty_Charging>  (485) 
0.016299999999999999

>  <r_epik_Ionization_Penalty_Neutral>  (485) 
0.00059999999999999995

>  <r_epik_State_Penalty>  (485) 
0.016299999999999999

>  <r_i_docking_score>  (485) 
-3.8216657529419602

>  <r_i_glide_ecoul>  (485) 
-4.4245724678039604

>  <r_i_glide_eff_state_penalty>  (485) 
0.016299999999999999

>  <r_i_glide_einternal>  (485) 
4.3820152282714799

>  <r_i_glide_emodel>  (485) 
-50.422599207886101

>  <r_i_glide_energy>  (485) 
-39.871708393096903

>  <r_i_glide_erotb>  (485) 
0.73269087368339403

>  <r_i_glide_esite>  (485) 
-0.0169380994240741

>  <r_i_glide_evdw>  (485) 
-35.447135925292997

>  <r_i_glide_gscore>  (485) 
-3.83796575294196

>  <r_i_glide_hbond>  (485) 
0

>  <r_i_glide_ligand_efficiency>  (485) 
-0.112401933910058

>  <r_i_glide_ligand_efficiency_ln>  (485) 
-0.84431315891834302

>  <r_i_glide_ligand_efficiency_sa>  (485) 
-0.364138631153407

>  <r_i_glide_lipo>  (485) 
-1.671030399173

>  <r_i_glide_metal>  (485) 
-0

>  <r_i_glide_rewards>  (485) 
-0.44664546159304402

>  <r_lp_Energy>  (485) 
49.162073999999997

>  <r_qp_ACxDN^.5/SA>  (485) 
0

>  <r_qp_CIQPlogS>  (485) 
-5.1719999999999997

>  <r_qp_EA(eV)>  (485) 
0.86599999999999999

>  <r_qp_FISA>  (485) 
90.588999999999999

>  <r_qp_FOSA>  (485) 
278.94

>  <r_qp_IP(eV)>  (485) 
8.3369999999999997

>  <r_qp_Jm>  (485) 
0.000343999603919098

>  <r_qp_PISA>  (485) 
409.25299999999999

>  <r_qp_PSA>  (485) 
62.497

>  <r_qp_PercentHumanOralAbsorption>  (485) 
89.816999999999993

>  <r_qp_QPPCaco>  (485) 
85.239999999999995

>  <r_qp_QPPMDCK>  (485) 
62.341000000000001

>  <r_qp_QPlogBB>  (485) 
-0.152

>  <r_qp_QPlogHERG>  (485) 
-8.4459999999999997

>  <r_qp_QPlogKhsa>  (485) 
0.81100000000000005

>  <r_qp_QPlogKp>  (485) 
-4.9119999999999999

>  <r_qp_QPlogPC16>  (485) 
16.013000000000002

>  <r_qp_QPlogPo/w>  (485) 
4.8360000000000003

>  <r_qp_QPlogPoct>  (485) 
21.597000000000001

>  <r_qp_QPlogPw>  (485) 
9.2750000000000004

>  <r_qp_QPlogS>  (485) 
-4.2220000000000004

>  <r_qp_QPpolrz>  (485) 
51.393999999999998

>  <r_qp_SASA>  (485) 
809.54499999999996

>  <r_qp_SAamideO>  (485) 
0

>  <r_qp_SAfluorine>  (485) 
0

>  <r_qp_WPSA>  (485) 
30.762

>  <r_qp_accptHB>  (485) 
6.5

>  <r_qp_dip^2/V>  (485) 
0.069709599999999997

>  <r_qp_dipole>  (485) 
10.228

>  <r_qp_donorHB>  (485) 
0

>  <r_qp_glob>  (485) 
0.78306469999999995

>  <r_qp_mol_MW>  (485) 
468.61500000000001

>  <r_qp_volume>  (485) 
1500.758

>  <r_sd_BIOSOLVEIT.INFINISEE\_FTREES\_SIMILARITY>  (485) 
0.92100000000000004

>  <r_sd_BIOSOLVEIT.LOGP>  (485) 
5.0659799999999997

>  <r_sd_BIOSOLVEIT.MOLECULAR\_WEIGHT>  (485) 
469.62900000000002

>  <r_sd_BIOSOLVEIT.TPSA>  (485) 
60.57

>  <i_epik_Tot_Q>  (485) 
1

>  <i_epik_Tot_abs_Q>  (485) 
1

>  <i_f3d_flags>  (485) 
0

>  <i_i_glide_confnum>  (485) 
5

>  <i_i_glide_lignum>  (485) 
944

>  <i_i_glide_posenum>  (485) 
3

>  <i_i_glide_rotatable_bonds>  (485) 
10

>  <i_lp_mmshare_version>  (485) 
65135

>  <i_m_ct_format>  (485) 
2

>  <i_m_source_file_index>  (485) 
2337

>  <i_qp_#NandO>  (485) 
5

>  <i_qp_#acid>  (485) 
0

>  <i_qp_#amide>  (485) 
0

>  <i_qp_#amidine>  (485) 
0

>  <i_qp_#amine>  (485) 
2

>  <i_qp_#in34>  (485) 
0

>  <i_qp_#in56>  (485) 
21

>  <i_qp_#metab>  (485) 
6

>  <i_qp_#nonHatm>  (485) 
34

>  <i_qp_#noncon>  (485) 
0

>  <i_qp_#ringatoms>  (485) 
21

>  <i_qp_#rotor>  (485) 
10

>  <i_qp_#rtvFG>  (485) 
0

>  <i_qp_#stars>  (485) 
0

>  <i_qp_CNS>  (485) 
1

>  <i_qp_HumanOralAbsorption>  (485) 
3

>  <i_qp_RuleOfFive>  (485) 
0

>  <i_qp_RuleOfThree>  (485) 
0

>  <i_sd_BIOSOLVEIT.INFINISEE\_RESULT\_RANK>  (485) 
14764

>  <i_sd_version>  (485) 
0

>  <b_lp_Chiralities_Consistent>  (485) 
1

>  <b_sd_chiral_flag>  (485) 
0

>  <canonical_id>  (485) 
ATP-HTVS-4C091C5F609D

>  <compound_code>  (485) 
74754

>  <title>  (485) 
rxn512c____EMOL36822768____EMOL523944____EMOL2868412

>  <variant>  (485) 
74754-1

>  <source_file>  (485) 
运行/运行/ATP-VSW/ATP-VSW-DOCK_HTVS_1-002_lib.maegz

>  <canonical_smiles>  (485) 
CC[NH+](CC)Cc1ccc(CNc2c(C(=O)N(C#N)c3ccccc3)sc3ccccc23)cc1

>  <scaffold>  (485) 
O=C(Nc1ccccc1)c1sc2ccccc2c1NCc1ccccc1

>  <molecular_formula>  (485) 
C28H29N4OS+

$$$$
ATP-HTVS-4C511AF0E5BD
     RDKit          3D

 56 58  0  0  0  0  0  0  0  0999 V2000
  196.7595  181.1543  153.7423 S   0  0  0  0  0  0  0  0  0  0  0  0
  197.7099  179.8661  153.0518 C   0  0  0  0  0  0  0  0  0  0  0  0
  197.5146  179.4684  151.6613 C   0  0  0  0  0  0  0  0  0  0  0  0
  198.4879  178.6455  151.0547 C   0  0  0  0  0  0  0  0  0  0  0  0
  198.3530  178.2223  149.7201 C   0  0  0  0  0  0  0  0  0  0  0  0
  197.2280  178.6237  148.9543 C   0  0  0  0  0  0  0  0  0  0  0  0
  197.0168  178.2447  147.6528 O   0  0  0  0  0  0  0  0  0  0  0  0
  197.9754  177.3895  147.0572 C   0  0  2  0  0  0  0  0  0  0  0  0
  196.2590  179.4508  149.5618 C   0  0  0  0  0  0  0  0  0  0  0  0
  196.3961  179.8638  150.8975 C   0  0  0  0  0  0  0  0  0  0  0  0
  198.6052  179.3592  153.9626 C   0  0  0  0  0  0  0  0  0  0  0  0
  198.5181  179.9926  155.2301 C   0  0  0  0  0  0  0  0  0  0  0  0
  197.5741  180.9859  155.2691 C   0  0  0  0  0  0  0  0  0  0  0  0
  197.2526  181.8428  156.4358 C   0  0  1  0  0  0  0  0  0  0  0  0
  195.8496  181.6784  156.8887 N   0  0  1  0  0  0  0  0  0  0  0  0
  195.5975  181.8650  158.3319 C   0  0  1  0  0  0  0  0  0  0  0  0
  195.9138  183.2799  158.8235 C   0  0  0  0  0  0  0  0  0  0  0  0
  197.2648  183.6736  159.0025 C   0  0  0  0  0  0  0  0  0  0  0  0
  197.5803  184.9882  159.3845 C   0  0  0  0  0  0  0  0  0  0  0  0
  196.5517  185.9090  159.6658 C   0  0  0  0  0  0  0  0  0  0  0  0
  195.2057  185.5130  159.5439 C   0  0  0  0  0  0  0  0  0  0  0  0
  194.8853  184.2126  159.1078 C   0  0  0  0  0  0  0  0  0  0  0  0
  196.8913  187.3226  160.0796 C   0  0  1  0  0  0  0  0  0  0  0  0
  196.7944  188.2841  158.9821 N   0  0  0  0  0  0  0  0  0  0  0  0
  196.9839  189.6237  159.5184 C   0  0  2  0  0  0  0  0  0  0  0  0
  197.8290  188.0359  157.9824 C   0  0  2  0  0  0  0  0  0  0  0  0
  194.1560  181.4120  158.6360 C   0  0  2  0  0  0  0  0  0  0  0  0
  195.2084  182.2419  156.3375 H   0  0  0  0  0  0  0  0  0  0  0  0
  199.3613  178.3274  151.6014 H   0  0  0  0  0  0  0  0  0  0  0  0
  199.1384  177.5916  149.3234 H   0  0  0  0  0  0  0  0  0  0  0  0
  197.7074  177.1518  146.0141 H   0  0  0  0  0  0  0  0  0  0  0  0
  198.0265  176.4436  147.6021 H   0  0  0  0  0  0  0  0  0  0  0  0
  198.9594  177.8653  147.0412 H   0  0  0  0  0  0  0  0  0  0  0  0
  195.4065  179.7573  148.9857 H   0  0  0  0  0  0  0  0  0  0  0  0
  195.6229  180.4915  151.3344 H   0  0  0  0  0  0  0  0  0  0  0  0
  199.3150  178.5675  153.7793 H   0  0  0  0  0  0  0  0  0  0  0  0
  199.1548  179.6985  156.0516 H   0  0  0  0  0  0  0  0  0  0  0  0
  197.9317  181.5482  157.2361 H   0  0  0  0  0  0  0  0  0  0  0  0
  197.4563  182.8860  156.1964 H   0  0  0  0  0  0  0  0  0  0  0  0
  196.2643  181.1837  158.8624 H   0  0  0  0  0  0  0  0  0  0  0  0
  198.0860  182.9893  158.8254 H   0  0  0  0  0  0  0  0  0  0  0  0
  198.6134  185.2938  159.4556 H   0  0  0  0  0  0  0  0  0  0  0  0
  194.4050  186.2073  159.7558 H   0  0  0  0  0  0  0  0  0  0  0  0
  193.8394  183.9722  158.9954 H   0  0  0  0  0  0  0  0  0  0  0  0
  196.2030  187.6008  160.8807 H   0  0  0  0  0  0  0  0  0  0  0  0
  197.8975  187.3546  160.5085 H   0  0  0  0  0  0  0  0  0  0  0  0
  196.9430  190.3625  158.7171 H   0  0  0  0  0  0  0  0  0  0  0  0
  197.9476  189.7168  160.0258 H   0  0  0  0  0  0  0  0  0  0  0  0
  196.1955  189.8636  160.2345 H   0  0  0  0  0  0  0  0  0  0  0  0
  197.7764  188.7728  157.1786 H   0  0  0  0  0  0  0  0  0  0  0  0
  197.7140  187.0534  157.5236 H   0  0  0  0  0  0  0  0  0  0  0  0
  198.8224  188.0895  158.4292 H   0  0  0  0  0  0  0  0  0  0  0  0
  193.9712  181.4636  159.7058 H   0  0  0  0  0  0  0  0  0  0  0  0
  193.9579  180.3728  158.3559 H   0  0  0  0  0  0  0  0  0  0  0  0
  193.4114  182.0114  158.1099 H   0  0  0  0  0  0  0  0  0  0  0  0
  195.6214  180.7097  156.7489 H   0  0  0  0  0  0  0  0  0  0  0  0
  1  2  1  0
  1 13  1  0
  2  3  1  0
  2 11  2  0
  3  4  1  0
  3 10  2  0
  4  5  2  0
  4 29  1  0
  5  6  1  0
  5 30  1  0
  6  7  1  0
  6  9  2  0
  7  8  1  0
  8 31  1  6
  8 32  1  0
  8 33  1  0
  9 10  1  0
  9 34  1  0
 10 35  1  0
 11 12  1  0
 11 36  1  0
 12 13  2  0
 12 37  1  0
 13 14  1  0
 14 15  1  0
 14 38  1  1
 14 39  1  0
 15 16  1  0
 15 28  1  6
 15 56  1  0
 16 17  1  0
 16 27  1  0
 16 40  1  1
 17 18  1  0
 17 22  2  0
 18 19  2  0
 18 41  1  0
 19 20  1  0
 19 42  1  0
 20 21  2  0
 20 23  1  0
 21 22  1  0
 21 43  1  0
 22 44  1  0
 23 24  1  0
 23 45  1  1
 23 46  1  0
 24 25  1  0
 24 26  1  0
 25 47  1  6
 25 48  1  0
 25 49  1  0
 26 50  1  6
 26 51  1  0
 26 52  1  0
 27 53  1  1
 27 54  1  0
 27 55  1  0
M  CHG  1  15   1
M  END
>  <s_epik_cmdline>  (486) 
J2VwaWtfcHl0aG9uJywgJy1waCcsICc3LjAwMDAwMCcsICctcGh0JywgJzIuMDAwMDAwJywgJy1tcycsICcxNicsICctdG4nLCAnOCcsICctbWEnLCAnMjAwJywgJy1pbWFlJywgJzxpbmZpbGUubWFlPicsICctb21hZScsICc8b3V0ZmlsZS5tYWU+Jw==

>  <s_epik_input>  (486) 
W0NIM11PYyhbY0hdW2NIXTEpW2NIXVtjSF1jMS1jMnNjKFtjSF1bY0hdMilbQ0gyXVtOSF1bQ0BIXShbQ0gzXSljM1tjSF1bY0hdYyhbY0hdW2NIXTMpW0NIMl1OKFtDSDNdKVtDSDNd

>  <s_i_glide_gridfile>  (486) 
ATP-Grid

>  <s_lp_Force_Field>  (486) 
OPLS_2005

>  <s_lp_Variant>  (486) 
m_269862dba____7199298____10542750-5

>  <s_lp_label>  (486) 
1158_sdstereoexpander_1_neutralizer_1_epik_3_stereoizer_1

>  <s_m_source_file>  (486) 
ATP-VSW-LIGPREP-003-in.maegz

>  <s_sd_BIOSOLVEIT.INFINISEE\_QUERY\_NAME>  (486) 
Ref-Lig

>  <s_sd_BIOSOLVEIT.INFINISEE\_QUERY\_SMILES>  (486) 
S(c1nc2c(cc1C[NH2+]Cc3ccc(cc3)C[NH+](C)C)cccc2)Cc4ccccc4

>  <s_sd_BIOSOLVEIT.INFINISEE\_REACTION\_NAME>  (486) 
m_269862dba

>  <s_sd_BIOSOLVEIT.INFINISEE\_REAGENT1\_SMILES>  (486) 
[R1*]NCC=1SC(c2ccc(OC)cc2)=CC1

>  <s_sd_BIOSOLVEIT.INFINISEE\_REAGENT2\_SMILES>  (486) 
[R1*]C(c1ccc(cc1)CN(C)C)C

>  <s_sd_BIOSOLVEIT.INFINISEE\_SPACE>  (486) 
REALSpace_44bn_2023-08

>  <s_vsw_compound_code>  (486) 
37027

>  <s_vsw_variant>  (486) 
37027-5

>  <r_epik_Charging_Adjusted_Penalty>  (486) 
1.6271945189551

>  <r_epik_Ionization_Penalty>  (486) 
1.5307999999999999

>  <r_epik_Ionization_Penalty_Charging>  (486) 
0.073899999999999993

>  <r_epik_Ionization_Penalty_Neutral>  (486) 
1.4570000000000001

>  <r_epik_State_Penalty>  (486) 
1.5532999999999999

>  <r_i_docking_score>  (486) 
-4.7037509502349897

>  <r_i_glide_ecoul>  (486) 
-10.7291774749756

>  <r_i_glide_eff_state_penalty>  (486) 
1.5532999999999999

>  <r_i_glide_einternal>  (486) 
7.52720069885254

>  <r_i_glide_emodel>  (486) 
-68.551820855462594

>  <r_i_glide_energy>  (486) 
-46.708963394165004

>  <r_i_glide_erotb>  (486) 
0.80004416625804897

>  <r_i_glide_esite>  (486) 
-0.10000000000000001

>  <r_i_glide_evdw>  (486) 
-35.979785919189503

>  <r_i_glide_gscore>  (486) 
-6.2570509502349898

>  <r_i_glide_hbond>  (486) 
-0.347769148140532

>  <r_i_glide_ligand_efficiency>  (486) 
-0.17421299815685201

>  <r_i_glide_ligand_efficiency_ln>  (486) 
-1.09495567381963

>  <r_i_glide_ligand_efficiency_sa>  (486) 
-0.52263899389637702

>  <r_i_glide_lipo>  (486) 
-2.1683815966012401

>  <r_i_glide_metal>  (486) 
-0

>  <r_i_glide_rewards>  (486) 
-1.0325784545454499

>  <r_lp_Energy>  (486) 
18.340167999999998

>  <r_qp_ACxDN^.5/SA>  (486) 
0.0058196000000000003

>  <r_qp_CIQPlogS>  (486) 
-4.1740000000000004

>  <r_qp_EA(eV)>  (486) 
0.80100000000000005

>  <r_qp_FISA>  (486) 
17.326000000000001

>  <r_qp_FOSA>  (486) 
391.31999999999999

>  <r_qp_IP(eV)>  (486) 
8.702

>  <r_qp_Jm>  (486) 
0.00058717712110236298

>  <r_qp_PISA>  (486) 
293.70699999999999

>  <r_qp_PSA>  (486) 
27.077000000000002

>  <r_qp_PercentHumanOralAbsorption>  (486) 
100

>  <r_qp_QPPCaco>  (486) 
422.08699999999999

>  <r_qp_QPPMDCK>  (486) 
339.06999999999999

>  <r_qp_QPlogBB>  (486) 
0.82199999999999995

>  <r_qp_QPlogHERG>  (486) 
-7.8029999999999999

>  <r_qp_QPlogKhsa>  (486) 
1.0249999999999999

>  <r_qp_QPlogKp>  (486) 
-4.2569999999999997

>  <r_qp_QPlogPC16>  (486) 
12.991

>  <r_qp_QPlogPo/w>  (486) 
4.9409999999999998

>  <r_qp_QPlogPoct>  (486) 
17.873999999999999

>  <r_qp_QPlogPw>  (486) 
7.7089999999999996

>  <r_qp_QPlogS>  (486) 
-4.5540000000000003

>  <r_qp_QPpolrz>  (486) 
44.180999999999997

>  <r_qp_SASA>  (486) 
730.29600000000005

>  <r_qp_SAamideO>  (486) 
0

>  <r_qp_SAfluorine>  (486) 
0

>  <r_qp_WPSA>  (486) 
27.943999999999999

>  <r_qp_accptHB>  (486) 
4.25

>  <r_qp_dip^2/V>  (486) 
0.0016758999999999999

>  <r_qp_dipole>  (486) 
1.476

>  <r_qp_donorHB>  (486) 
1

>  <r_qp_glob>  (486) 
0.78878239999999999

>  <r_qp_mol_MW>  (486) 
380.54700000000003

>  <r_qp_volume>  (486) 
1299.98

>  <r_sd_BIOSOLVEIT.INFINISEE\_FTREES\_SIMILARITY>  (486) 
0.91200000000000003

>  <r_sd_BIOSOLVEIT.LOGP>  (486) 
2.8927999999999998

>  <r_sd_BIOSOLVEIT.MOLECULAR\_WEIGHT>  (486) 
382.56799999999998

>  <r_sd_BIOSOLVEIT.TPSA>  (486) 
30.280000000000001

>  <i_epik_Tot_Q>  (486) 
1

>  <i_epik_Tot_abs_Q>  (486) 
1

>  <i_f3d_flags>  (486) 
0

>  <i_i_glide_confnum>  (486) 
8

>  <i_i_glide_lignum>  (486) 
452

>  <i_i_glide_posenum>  (486) 
17

>  <i_i_glide_rotatable_bonds>  (486) 
8

>  <i_lp_mmshare_version>  (486) 
65135

>  <i_m_ct_format>  (486) 
2

>  <i_m_source_file_index>  (486) 
1158

>  <i_qp_#NandO>  (486) 
3

>  <i_qp_#acid>  (486) 
0

>  <i_qp_#amide>  (486) 
0

>  <i_qp_#amidine>  (486) 
0

>  <i_qp_#amine>  (486) 
2

>  <i_qp_#in34>  (486) 
0

>  <i_qp_#in56>  (486) 
17

>  <i_qp_#metab>  (486) 
7

>  <i_qp_#nonHatm>  (486) 
27

>  <i_qp_#noncon>  (486) 
0

>  <i_qp_#ringatoms>  (486) 
17

>  <i_qp_#rotor>  (486) 
7

>  <i_qp_#rtvFG>  (486) 
0

>  <i_qp_#stars>  (486) 
0

>  <i_qp_CNS>  (486) 
2

>  <i_qp_HumanOralAbsorption>  (486) 
3

>  <i_qp_RuleOfFive>  (486) 
0

>  <i_qp_RuleOfThree>  (486) 
1

>  <i_sd_BIOSOLVEIT.INFINISEE\_REAGENT1\_NAME>  (486) 
7199298

>  <i_sd_BIOSOLVEIT.INFINISEE\_REAGENT2\_NAME>  (486) 
10542750

>  <i_sd_BIOSOLVEIT.INFINISEE\_RESULT\_RANK>  (486) 
37375

>  <i_sd_version>  (486) 
0

>  <b_lp_Chiralities_Consistent>  (486) 
1

>  <b_sd_chiral_flag>  (486) 
0

>  <canonical_id>  (486) 
ATP-HTVS-4C511AF0E5BD

>  <compound_code>  (486) 
37027

>  <title>  (486) 
m_269862dba____7199298____10542750

>  <variant>  (486) 
37027-5

>  <source_file>  (486) 
运行/运行/ATP-VSW/ATP-VSW-DOCK_HTVS_1-003_lib/ATP-VSW-DOCK_HTVS_1-003_lib.mae

>  <canonical_smiles>  (486) 
COc1ccc(-c2ccc(C[NH2+][C@H](C)c3ccc(CN(C)C)cc3)s2)cc1

>  <scaffold>  (486) 
c1ccc(C[NH2+]Cc2ccc(-c3ccccc3)s2)cc1

>  <molecular_formula>  (486) 
C23H29N2OS+

$$$$
ATP-HTVS-4C6C1EFD2AA2
     RDKit          3D

 59 62  0  0  0  0  0  0  0  0999 V2000
  198.7476  176.6389  149.4478 S   0  0  0  0  0  0  0  0  0  0  0  0
  198.2222  178.0623  150.3117 C   0  0  0  0  0  0  0  0  0  0  0  0
  197.2538  178.9404  149.7752 C   0  0  0  0  0  0  0  0  0  0  0  0
  196.7058  178.7396  148.5454 F   0  0  0  0  0  0  0  0  0  0  0  0
  196.8308  180.0568  150.5217 C   0  0  0  0  0  0  0  0  0  0  0  0
  197.3473  180.3143  151.8129 C   0  0  0  0  0  0  0  0  0  0  0  0
  198.3414  179.4405  152.3280 C   0  0  0  0  0  0  0  0  0  0  0  0
  198.7696  178.3167  151.5893 C   0  0  0  0  0  0  0  0  0  0  0  0
  196.9126  181.5638  152.5275 C   0  0  0  0  0  0  0  0  0  0  0  0
  196.3555  182.4807  151.9135 O   0  0  0  0  0  0  0  0  0  0  0  0
  197.1305  181.5533  153.8589 N   0  0  0  0  0  0  0  0  0  0  0  0
  197.1602  182.6384  154.7911 C   0  0  0  0  0  0  0  0  0  0  0  0
  197.3346  182.3600  156.1779 C   0  0  0  0  0  0  0  0  0  0  0  0
  197.5047  181.0324  156.6579 N   0  0  0  0  0  0  0  0  0  0  0  0
  198.5839  180.1780  156.1524 C   0  0  1  0  0  0  0  0  0  0  0  0
  199.9197  180.8797  155.8996 C   0  0  0  0  0  0  0  0  0  0  0  0
  200.8644  180.9453  156.9452 C   0  0  0  0  0  0  0  0  0  0  0  0
  202.1106  181.5928  156.7490 C   0  0  0  0  0  0  0  0  0  0  0  0
  202.3750  182.2428  155.5131 C   0  0  0  0  0  0  0  0  0  0  0  0
  201.4507  182.1376  154.4649 C   0  0  0  0  0  0  0  0  0  0  0  0
  200.2257  181.4682  154.6469 C   0  0  0  0  0  0  0  0  0  0  0  0
  203.1632  181.6082  157.8366 C   0  0  1  0  0  0  0  0  0  0  0  0
  204.2755  180.6336  157.5972 N   0  0  2  0  0  0  0  0  0  0  0  0
  205.2208  180.6331  158.7283 C   0  0  2  0  0  0  0  0  0  0  0  0
  204.9927  180.7708  156.3021 C   0  0  2  0  0  0  0  0  0  0  0  0
  197.3658  183.4520  157.0963 C   0  0  0  0  0  0  0  0  0  0  0  0
  197.2742  184.7816  156.5923 C   0  0  0  0  0  0  0  0  0  0  0  0
  197.1609  184.9829  155.2666 N   0  0  0  0  0  0  0  0  0  0  0  0
  197.1207  183.9886  154.3660 C   0  0  0  0  0  0  0  0  0  0  0  0
  197.2796  185.8900  157.4607 C   0  0  0  0  0  0  0  0  0  0  0  0
  197.3769  185.6972  158.8500 C   0  0  0  0  0  0  0  0  0  0  0  0
  197.4788  184.3894  159.3687 C   0  0  0  0  0  0  0  0  0  0  0  0
  197.4827  183.2746  158.5005 C   0  0  0  0  0  0  0  0  0  0  0  0
  196.1026  180.7320  150.0993 H   0  0  0  0  0  0  0  0  0  0  0  0
  198.8286  179.5726  153.2780 H   0  0  0  0  0  0  0  0  0  0  0  0
  199.5146  177.6641  152.0103 H   0  0  0  0  0  0  0  0  0  0  0  0
  197.4571  180.6789  154.2432 H   0  0  0  0  0  0  0  0  0  0  0  0
  196.6517  180.5039  156.8673 H   0  0  0  0  0  0  0  0  0  0  0  0
  198.7371  179.3692  156.8786 H   0  0  0  0  0  0  0  0  0  0  0  0
  198.2333  179.6702  155.2551 H   0  0  0  0  0  0  0  0  0  0  0  0
  200.6422  180.4550  157.8937 H   0  0  0  0  0  0  0  0  0  0  0  0
  203.2988  182.7925  155.3455 H   0  0  0  0  0  0  0  0  0  0  0  0
  201.6782  182.5560  153.5031 H   0  0  0  0  0  0  0  0  0  0  0  0
  199.5798  181.4261  153.7863 H   0  0  0  0  0  0  0  0  0  0  0  0
  203.5518  182.6243  157.9367 H   0  0  0  0  0  0  0  0  0  0  0  0
  202.6672  181.3717  158.7880 H   0  0  0  0  0  0  0  0  0  0  0  0
  205.6894  181.6102  158.8453 H   0  0  0  0  0  0  0  0  0  0  0  0
  206.0104  179.9051  158.5441 H   0  0  0  0  0  0  0  0  0  0  0  0
  204.7325  180.3665  159.6694 H   0  0  0  0  0  0  0  0  0  0  0  0
  205.3914  181.7785  156.2173 H   0  0  0  0  0  0  0  0  0  0  0  0
  204.3414  180.5753  155.4467 H   0  0  0  0  0  0  0  0  0  0  0  0
  205.8388  180.0803  156.2550 H   0  0  0  0  0  0  0  0  0  0  0  0
  197.0364  184.3178  153.3359 H   0  0  0  0  0  0  0  0  0  0  0  0
  197.1883  186.8964  157.0732 H   0  0  0  0  0  0  0  0  0  0  0  0
  197.3775  186.5503  159.5154 H   0  0  0  0  0  0  0  0  0  0  0  0
  197.5377  184.2459  160.4369 H   0  0  0  0  0  0  0  0  0  0  0  0
  197.5405  182.2840  158.9264 H   0  0  0  0  0  0  0  0  0  0  0  0
  203.8687  179.7081  157.5751 H   0  0  0  0  0  0  0  0  0  0  0  0
  197.0924  185.9501  154.9249 H   0  0  0  0  0  0  0  0  0  0  0  0
  1  2  1  0
  2  3  2  0
  2  8  1  0
  3  4  1  0
  3  5  1  0
  5  6  2  0
  5 34  1  0
  6  7  1  0
  6  9  1  0
  7  8  2  0
  7 35  1  0
  8 36  1  0
  9 10  2  0
  9 11  1  0
 11 12  1  0
 11 37  1  0
 12 13  2  0
 12 29  1  0
 13 14  1  0
 13 26  1  0
 14 15  1  0
 14 38  1  0
 15 16  1  0
 15 39  1  1
 15 40  1  0
 16 17  2  0
 16 21  1  0
 17 18  1  0
 17 41  1  0
 18 19  2  0
 18 22  1  0
 19 20  1  0
 19 42  1  0
 20 21  2  0
 20 43  1  0
 21 44  1  0
 22 23  1  0
 22 45  1  1
 22 46  1  0
 23 24  1  0
 23 25  1  0
 23 58  1  6
 24 47  1  1
 24 48  1  0
 24 49  1  0
 25 50  1  6
 25 51  1  0
 25 52  1  0
 26 27  1  0
 26 33  2  0
 27 28  1  0
 27 30  2  0
 28 29  2  0
 28 59  1  0
 29 53  1  0
 30 31  1  0
 30 54  1  0
 31 32  2  0
 31 55  1  0
 32 33  1  0
 32 56  1  0
 33 57  1  0
M  CHG  3   1  -1  23   1  28   1
M  END
>  <s_epik_cmdline>  (487) 
J2VwaWtfcHl0aG9uJywgJy1waCcsICc3LjAwMDAwMCcsICctcGh0JywgJzIuMDAwMDAwJywgJy1tcycsICcxNicsICctdG4nLCAnOCcsICctbWEnLCAnMjAwJywgJy1pbWFlJywgJzxpbmZpbGUubWFlPicsICctb21hZScsICc8b3V0ZmlsZS5tYWU+Jw==

>  <s_epik_input>  (487) 
W1NIXWMxYyhGKVtjSF1jKFtjSF1bY0hdMSlDKD1PKVtOSF1jKFtjSF1uYyhjMjMpW2NIXVtjSF1bY0hdW2NIXTMpYzJbTkhdW0NIMl1jNFtjSF1jKFtjSF1bY0hdW2NIXTQpW0NIMl1OKFtDSDNdKVtDSDNd

>  <s_i_glide_gridfile>  (487) 
ATP-Grid

>  <s_lp_Force_Field>  (487) 
OPLS_2005

>  <s_lp_Variant>  (487) 
rxn502b____EMOL39304293____EMOL30488121____EMOL2873214-1

>  <s_lp_label>  (487) 
2253_sdstereoexpander_1_neutralizer_1_epik_1_stereoizer_1

>  <s_m_source_file>  (487) 
ATP-VSW-LIGPREP-001-in.maegz

>  <s_sd_BIOSOLVEIT.INFINISEE\_QUERY\_NAME>  (487) 
Ref-Lig

>  <s_sd_BIOSOLVEIT.INFINISEE\_QUERY\_SMILES>  (487) 
S(c1nc2c(cc1C[NH2+]Cc3ccc(cc3)C[NH+](C)C)cccc2)Cc4ccccc4

>  <s_sd_BIOSOLVEIT.INFINISEE\_REACTION\_NAME>  (487) 
rxn502b

>  <s_sd_BIOSOLVEIT.INFINISEE\_REAGENT1\_NAME>  (487) 
EMOL39304293

>  <s_sd_BIOSOLVEIT.INFINISEE\_REAGENT1\_SMILES>  (487) 
Sc1c(F)cc(cc1)C(=O)O

>  <s_sd_BIOSOLVEIT.INFINISEE\_REAGENT2\_NAME>  (487) 
EMOL30488121

>  <s_sd_BIOSOLVEIT.INFINISEE\_REAGENT2\_SMILES>  (487) 
Brc1c(N)cnc2c1cccc2

>  <s_sd_BIOSOLVEIT.INFINISEE\_REAGENT3\_NAME>  (487) 
EMOL2873214

>  <s_sd_BIOSOLVEIT.INFINISEE\_REAGENT3\_SMILES>  (487) 
N(Cc1cc(ccc1)CN)(C)C

>  <s_sd_BIOSOLVEIT.INFINISEE\_SPACE>  (487) 
eXplore_7tr_2022-12

>  <s_vsw_compound_code>  (487) 
72065

>  <s_vsw_variant>  (487) 
72065-1

>  <r_epik_Charging_Adjusted_Penalty>  (487) 
0.24525247488139201

>  <r_epik_Ionization_Penalty>  (487) 
0.1255

>  <r_epik_Ionization_Penalty_Charging>  (487) 
0.1255

>  <r_epik_Ionization_Penalty_Neutral>  (487) 
0

>  <r_epik_State_Penalty>  (487) 
0.1197

>  <r_i_docking_score>  (487) 
-3.9503569591684

>  <r_i_glide_ecoul>  (487) 
-9.8259601593017596

>  <r_i_glide_eff_state_penalty>  (487) 
0.1197

>  <r_i_glide_einternal>  (487) 
5.2163572311401403

>  <r_i_glide_emodel>  (487) 
-50.489392549016898

>  <r_i_glide_energy>  (487) 
-39.086000442504897

>  <r_i_glide_erotb>  (487) 
0.661627676205372

>  <r_i_glide_esite>  (487) 
-0.159453399473209

>  <r_i_glide_evdw>  (487) 
-29.2600402832031

>  <r_i_glide_gscore>  (487) 
-4.0700569591683999

>  <r_i_glide_hbond>  (487) 
-0.16

>  <r_i_glide_ligand_efficiency>  (487) 
-0.119707786641467

>  <r_i_glide_ligand_efficiency_ln>  (487) 
-0.87853893386538395

>  <r_i_glide_ligand_efficiency_sa>  (487) 
-0.38396683477280602

>  <r_i_glide_lipo>  (487) 
-0.82561563901213697

>  <r_i_glide_metal>  (487) 
-0

>  <r_i_glide_rewards>  (487) 
-0.64971955883300503

>  <r_lp_Energy>  (487) 
39.332357999999999

>  <r_qp_ACxDN^.5/SA>  (487) 
0.0164709

>  <r_qp_CIQPlogS>  (487) 
-5.9249999999999998

>  <r_qp_EA(eV)>  (487) 
1.167

>  <r_qp_FISA>  (487) 
52.454999999999998

>  <r_qp_FOSA>  (487) 
166.965

>  <r_qp_IP(eV)>  (487) 
8.7249999999999996

>  <r_qp_Jm>  (487) 
0.047532004391095797

>  <r_qp_PISA>  (487) 
376.334

>  <r_qp_PSA>  (487) 
60.453000000000003

>  <r_qp_PercentHumanOralAbsorption>  (487) 
100

>  <r_qp_QPPCaco>  (487) 
785.90700000000004

>  <r_qp_QPPMDCK>  (487) 
1808.23

>  <r_qp_QPlogBB>  (487) 
0.25700000000000001

>  <r_qp_QPlogHERG>  (487) 
-6.7770000000000001

>  <r_qp_QPlogKhsa>  (487) 
0.52900000000000003

>  <r_qp_QPlogKp>  (487) 
-2.4550000000000001

>  <r_qp_QPlogPC16>  (487) 
14.667999999999999

>  <r_qp_QPlogPo/w>  (487) 
4.5910000000000002

>  <r_qp_QPlogPoct>  (487) 
23.879999999999999

>  <r_qp_QPlogPw>  (487) 
13.619

>  <r_qp_QPlogS>  (487) 
-4.5309999999999997

>  <r_qp_QPpolrz>  (487) 
46.427999999999997

>  <r_qp_SASA>  (487) 
711.14599999999996

>  <r_qp_SAamideO>  (487) 
0

>  <r_qp_SAfluorine>  (487) 
40.865000000000002

>  <r_qp_WPSA>  (487) 
115.392

>  <r_qp_accptHB>  (487) 
7

>  <r_qp_dip^2/V>  (487) 
0.016296399999999999

>  <r_qp_dipole>  (487) 
4.6950000000000003

>  <r_qp_donorHB>  (487) 
2.7999999999999998

>  <r_qp_glob>  (487) 
0.83167670000000005

>  <r_qp_mol_MW>  (487) 
460.56799999999998

>  <r_qp_volume>  (487) 
1352.453

>  <r_sd_BIOSOLVEIT.INFINISEE\_FTREES\_SIMILARITY>  (487) 
0.92600000000000005

>  <r_sd_BIOSOLVEIT.LOGP>  (487) 
4.5517000000000003

>  <r_sd_BIOSOLVEIT.MOLECULAR\_WEIGHT>  (487) 
461.58100000000002

>  <r_sd_BIOSOLVEIT.TPSA>  (487) 
58.460000000000001

>  <i_epik_Tot_Q>  (487) 
1

>  <i_epik_Tot_abs_Q>  (487) 
3

>  <i_f3d_flags>  (487) 
0

>  <i_i_glide_confnum>  (487) 
10

>  <i_i_glide_lignum>  (487) 
774

>  <i_i_glide_posenum>  (487) 
8

>  <i_i_glide_rotatable_bonds>  (487) 
8

>  <i_lp_mmshare_version>  (487) 
65135

>  <i_m_ct_format>  (487) 
2

>  <i_m_source_file_index>  (487) 
2253

>  <i_qp_#NandO>  (487) 
5

>  <i_qp_#acid>  (487) 
0

>  <i_qp_#amide>  (487) 
0

>  <i_qp_#amidine>  (487) 
0

>  <i_qp_#amine>  (487) 
1

>  <i_qp_#in34>  (487) 
0

>  <i_qp_#in56>  (487) 
22

>  <i_qp_#metab>  (487) 
7

>  <i_qp_#nonHatm>  (487) 
33

>  <i_qp_#noncon>  (487) 
0

>  <i_qp_#ringatoms>  (487) 
22

>  <i_qp_#rotor>  (487) 
8

>  <i_qp_#rtvFG>  (487) 
1

>  <i_qp_#stars>  (487) 
0

>  <i_qp_CNS>  (487) 
1

>  <i_qp_HumanOralAbsorption>  (487) 
3

>  <i_qp_RuleOfFive>  (487) 
0

>  <i_qp_RuleOfThree>  (487) 
1

>  <i_sd_BIOSOLVEIT.INFINISEE\_RESULT\_RANK>  (487) 
7863

>  <i_sd_version>  (487) 
0

>  <b_lp_Chiralities_Consistent>  (487) 
1

>  <b_sd_chiral_flag>  (487) 
0

>  <canonical_id>  (487) 
ATP-HTVS-4C6C1EFD2AA2

>  <compound_code>  (487) 
72065

>  <title>  (487) 
rxn502b____EMOL39304293____EMOL30488121____EMOL2873214

>  <variant>  (487) 
72065-1

>  <source_file>  (487) 
运行/运行/ATP-VSW/ATP-VSW-DOCK_HTVS_1-001_lib/ATP-VSW-DOCK_HTVS_1-001_lib

>  <canonical_smiles>  (487) 
C[NH+](C)Cc1cccc(CNc2c(NC(=O)c3ccc([S-])c(F)c3)c[nH+]c3ccccc23)c1

>  <scaffold>  (487) 
O=C(Nc1c[nH+]c2ccccc2c1NCc1ccccc1)c1ccccc1

>  <molecular_formula>  (487) 
C26H26FN4OS+

$$$$
ATP-HTVS-4CC80B7019B2
     RDKit          3D

 55 57  0  0  0  0  0  0  0  0999 V2000
  197.5046  184.3558  147.7456 Cl  0  0  0  0  0  0  0  0  0  0  0  0
  197.6379  183.8203  149.3806 C   0  0  0  0  0  0  0  0  0  0  0  0
  196.6197  184.1149  150.3073 C   0  0  0  0  0  0  0  0  0  0  0  0
  196.7369  183.6807  151.6469 C   0  0  0  0  0  0  0  0  0  0  0  0
  197.8690  182.9541  152.0762 C   0  0  0  0  0  0  0  0  0  0  0  0
  198.8756  182.6563  151.1312 C   0  0  0  0  0  0  0  0  0  0  0  0
  198.7662  183.0848  149.7912 C   0  0  0  0  0  0  0  0  0  0  0  0
  197.9721  182.4967  153.4577 C   0  0  0  0  0  0  0  0  0  0  0  0
  199.2403  181.4311  153.9766 S   0  0  0  0  0  0  0  0  0  0  0  0
  198.4560  181.2232  155.5171 C   0  0  0  0  0  0  0  0  0  0  0  0
  197.3835  182.0890  155.6227 C   0  0  0  0  0  0  0  0  0  0  0  0
  197.1261  182.7863  154.4430 N   0  0  0  0  0  0  0  0  0  0  0  0
  196.5271  182.3205  156.8303 C   0  0  2  0  0  0  0  0  0  0  0  0
  198.9739  180.2409  156.5303 C   0  0  1  0  0  0  0  0  0  0  0  0
  199.1737  178.8725  155.9764 N   0  0  1  0  0  0  0  0  0  0  0  0
  200.3495  178.6832  155.0757 C   0  0  1  0  0  0  0  0  0  0  0  0
  200.6402  177.2348  154.8191 C   0  0  0  0  0  0  0  0  0  0  0  0
  200.4899  176.7090  153.5192 C   0  0  0  0  0  0  0  0  0  0  0  0
  200.7478  175.3401  153.2799 C   0  0  0  0  0  0  0  0  0  0  0  0
  201.1229  174.5112  154.3428 C   0  0  0  0  0  0  0  0  0  0  0  0
  201.3134  175.0529  155.6344 C   0  0  0  0  0  0  0  0  0  0  0  0
  201.0866  176.4117  155.8748 C   0  0  0  0  0  0  0  0  0  0  0  0
  201.3459  173.0137  154.1095 C   0  0  1  0  0  0  0  0  0  0  0  0
  202.7681  172.6413  154.0037 N   0  0  1  0  0  0  0  0  0  0  0  0
  203.3100  172.8763  152.6524 C   0  0  2  0  0  0  0  0  0  0  0  0
  203.6500  173.1674  155.0489 C   0  0  2  0  0  0  0  0  0  0  0  0
  200.2226  180.7566  157.2678 C   0  0  2  0  0  0  0  0  0  0  0  0
  199.2328  178.2445  156.7697 H   0  0  0  0  0  0  0  0  0  0  0  0
  195.7471  184.6766  149.9923 H   0  0  0  0  0  0  0  0  0  0  0  0
  195.9498  183.9124  152.3481 H   0  0  0  0  0  0  0  0  0  0  0  0
  199.7520  182.0925  151.4015 H   0  0  0  0  0  0  0  0  0  0  0  0
  199.5504  182.8554  149.0815 H   0  0  0  0  0  0  0  0  0  0  0  0
  196.0425  181.4046  157.1732 H   0  0  0  0  0  0  0  0  0  0  0  0
  195.7377  183.0428  156.6229 H   0  0  0  0  0  0  0  0  0  0  0  0
  197.1161  182.7189  157.6597 H   0  0  0  0  0  0  0  0  0  0  0  0
  198.1930  180.1050  157.2808 H   0  0  0  0  0  0  0  0  0  0  0  0
  200.1454  179.1135  154.0973 H   0  0  0  0  0  0  0  0  0  0  0  0
  201.2601  179.1411  155.4647 H   0  0  0  0  0  0  0  0  0  0  0  0
  200.1821  177.3464  152.7045 H   0  0  0  0  0  0  0  0  0  0  0  0
  200.6171  174.9623  152.2699 H   0  0  0  0  0  0  0  0  0  0  0  0
  201.6046  174.4308  156.4687 H   0  0  0  0  0  0  0  0  0  0  0  0
  201.2495  176.8278  156.8611 H   0  0  0  0  0  0  0  0  0  0  0  0
  200.8781  172.4846  154.9309 H   0  0  0  0  0  0  0  0  0  0  0  0
  200.7914  172.7103  153.2310 H   0  0  0  0  0  0  0  0  0  0  0  0
  203.3070  173.9508  152.4334 H   0  0  0  0  0  0  0  0  0  0  0  0
  202.7228  172.3790  151.8849 H   0  0  0  0  0  0  0  0  0  0  0  0
  204.3369  172.5254  152.5721 H   0  0  0  0  0  0  0  0  0  0  0  0
  203.6949  174.2680  154.9979 H   0  0  0  0  0  0  0  0  0  0  0  0
  204.6771  172.8154  154.9368 H   0  0  0  0  0  0  0  0  0  0  0  0
  203.2917  172.8958  156.0479 H   0  0  0  0  0  0  0  0  0  0  0  0
  200.0052  181.7007  157.7623 H   0  0  0  0  0  0  0  0  0  0  0  0
  201.0617  180.9328  156.5989 H   0  0  0  0  0  0  0  0  0  0  0  0
  200.5508  180.0512  158.0274 H   0  0  0  0  0  0  0  0  0  0  0  0
  202.8024  171.6075  154.1300 H   0  0  0  0  0  0  0  0  0  0  0  0
  198.3296  178.6054  155.4935 H   0  0  0  0  0  0  0  0  0  0  0  0
  1  2  1  0
  2  3  1  0
  2  7  2  0
  3  4  2  0
  3 29  1  0
  4  5  1  0
  4 30  1  0
  5  6  2  0
  5  8  1  0
  6  7  1  0
  6 31  1  0
  7 32  1  0
  8  9  1  0
  8 12  2  0
  9 10  1  0
 10 11  2  0
 10 14  1  0
 11 12  1  0
 11 13  1  0
 13 33  1  1
 13 34  1  0
 13 35  1  0
 14 15  1  0
 14 27  1  0
 14 36  1  1
 15 16  1  0
 15 28  1  1
 15 55  1  0
 16 17  1  0
 16 37  1  6
 16 38  1  0
 17 18  1  0
 17 22  2  0
 18 19  2  0
 18 39  1  0
 19 20  1  0
 19 40  1  0
 20 21  2  0
 20 23  1  0
 21 22  1  0
 21 41  1  0
 22 42  1  0
 23 24  1  0
 23 43  1  1
 23 44  1  0
 24 25  1  0
 24 26  1  0
 24 54  1  1
 25 45  1  6
 25 46  1  0
 25 47  1  0
 26 48  1  1
 26 49  1  0
 26 50  1  0
 27 51  1  1
 27 52  1  0
 27 53  1  0
M  CHG  2  15   1  24   1
M  END
>  <s_epik_cmdline>  (488) 
J2VwaWtfcHl0aG9uJywgJy1waCcsICc3LjAwMDAwMCcsICctcGh0JywgJzIuMDAwMDAwJywgJy1tcycsICcxNicsICctdG4nLCAnOCcsICctbWEnLCAnMjAwJywgJy1pbWFlJywgJzxpbmZpbGUubWFlPicsICctb21hZScsICc8b3V0ZmlsZS5tYWU+Jw==

>  <s_epik_input>  (488) 
Q2xjMVtjSF1bY0hdYyhbY0hdW2NIXTEpLWMyc2MoYyhuMilbQ0gzXSlbQ0BIXShbQ0gzXSlbTkhdW0NIMl1jM1tjSF1bY0hdYyhbY0hdW2NIXTMpW0NIMl1OKFtDSDNdKVtDSDNd

>  <s_i_glide_gridfile>  (488) 
ATP-Grid

>  <s_lp_Force_Field>  (488) 
OPLS_2005

>  <s_lp_Variant>  (488) 
rxn207____EMOL722295____EMOL50155899-2

>  <s_lp_label>  (488) 
2352_sdstereoexpander_2_neutralizer_1_epik_1_stereoizer_1

>  <s_m_source_file>  (488) 
ATP-VSW-LIGPREP-002-in.maegz

>  <s_sd_BIOSOLVEIT.INFINISEE\_QUERY\_NAME>  (488) 
Ref-Lig

>  <s_sd_BIOSOLVEIT.INFINISEE\_QUERY\_SMILES>  (488) 
S(c1nc2c(cc1C[NH2+]Cc3ccc(cc3)C[NH+](C)C)cccc2)Cc4ccccc4

>  <s_sd_BIOSOLVEIT.INFINISEE\_REACTION\_NAME>  (488) 
rxn207

>  <s_sd_BIOSOLVEIT.INFINISEE\_REAGENT1\_NAME>  (488) 
EMOL722295

>  <s_sd_BIOSOLVEIT.INFINISEE\_REAGENT1\_SMILES>  (488) 
Clc1ccc(cc1)C=2SC(C(=O)C)=C(N2)C

>  <s_sd_BIOSOLVEIT.INFINISEE\_REAGENT2\_NAME>  (488) 
EMOL50155899

>  <s_sd_BIOSOLVEIT.INFINISEE\_REAGENT2\_SMILES>  (488) 
N(Cc1ccc(cc1)CN)(C)C

>  <s_sd_BIOSOLVEIT.INFINISEE\_SPACE>  (488) 
eXplore_7tr_2022-12

>  <s_vsw_compound_code>  (488) 
75234

>  <s_vsw_variant>  (488) 
75234-2

>  <r_epik_Charging_Adjusted_Penalty>  (488) 
0.65671604310473597

>  <r_epik_Ionization_Penalty>  (488) 
0.32850000000000001

>  <r_epik_Ionization_Penalty_Charging>  (488) 
0.32850000000000001

>  <r_epik_Ionization_Penalty_Neutral>  (488) 
0

>  <r_epik_State_Penalty>  (488) 
0.32819999999999999

>  <r_i_docking_score>  (488) 
-5.1458392016738701

>  <r_i_glide_ecoul>  (488) 
-15.995048522949199

>  <r_i_glide_eff_state_penalty>  (488) 
0.32819999999999999

>  <r_i_glide_einternal>  (488) 
4.2236375808715803

>  <r_i_glide_emodel>  (488) 
-63.8969530238085

>  <r_i_glide_energy>  (488) 
-42.049762725830099

>  <r_i_glide_erotb>  (488) 
0.72844092093338197

>  <r_i_glide_esite>  (488) 
-0.18382067137654401

>  <r_i_glide_evdw>  (488) 
-26.054714202880898

>  <r_i_glide_gscore>  (488) 
-5.4740392016738699

>  <r_i_glide_hbond>  (488) 
-0.221599973134916

>  <r_i_glide_ligand_efficiency>  (488) 
-0.19058663709903201

>  <r_i_glide_ligand_efficiency_ln>  (488) 
-1.1978665303601601

>  <r_i_glide_ligand_efficiency_sa>  (488) 
-0.57175991066895404

>  <r_i_glide_lipo>  (488) 
-1.20186094405482

>  <r_i_glide_metal>  (488) 
-0

>  <r_i_glide_rewards>  (488) 
-0.893205545454544

>  <r_lp_Energy>  (488) 
11.047668

>  <r_qp_ACxDN^.5/SA>  (488) 
0.0077863999999999997

>  <r_qp_CIQPlogS>  (488) 
-4.2709999999999999

>  <r_qp_EA(eV)>  (488) 
1.008

>  <r_qp_FISA>  (488) 
22.779

>  <r_qp_FOSA>  (488) 
341.334

>  <r_qp_IP(eV)>  (488) 
8.9399999999999995

>  <r_qp_Jm>  (488) 
0.0047155953355470202

>  <r_qp_PISA>  (488) 
190.40100000000001

>  <r_qp_PSA>  (488) 
28.815999999999999

>  <r_qp_PercentHumanOralAbsorption>  (488) 
100

>  <r_qp_QPPCaco>  (488) 
374.70600000000002

>  <r_qp_QPPMDCK>  (488) 
632.95000000000005

>  <r_qp_QPlogBB>  (488) 
1.012

>  <r_qp_QPlogHERG>  (488) 
-6.0519999999999996

>  <r_qp_QPlogKhsa>  (488) 
0.76100000000000001

>  <r_qp_QPlogKp>  (488) 
-4.8179999999999996

>  <r_qp_QPlogPC16>  (488) 
12.042999999999999

>  <r_qp_QPlogPo/w>  (488) 
4.3029999999999999

>  <r_qp_QPlogPoct>  (488) 
17.838999999999999

>  <r_qp_QPlogPw>  (488) 
7.8109999999999999

>  <r_qp_QPlogS>  (488) 
-3.1110000000000002

>  <r_qp_QPpolrz>  (488) 
41.203000000000003

>  <r_qp_SASA>  (488) 
642.14599999999996

>  <r_qp_SAamideO>  (488) 
0

>  <r_qp_SAfluorine>  (488) 
0

>  <r_qp_WPSA>  (488) 
87.632000000000005

>  <r_qp_accptHB>  (488) 
5

>  <r_qp_dip^2/V>  (488) 
0.0102804

>  <r_qp_dipole>  (488) 
3.5619999999999998

>  <r_qp_donorHB>  (488) 
1

>  <r_qp_glob>  (488) 
0.86651860000000003

>  <r_qp_mol_MW>  (488) 
399.98000000000002

>  <r_qp_volume>  (488) 
1234.155

>  <r_sd_BIOSOLVEIT.INFINISEE\_FTREES\_SIMILARITY>  (488) 
0.92000000000000004

>  <r_sd_BIOSOLVEIT.LOGP>  (488) 
3.2410199999999998

>  <r_sd_BIOSOLVEIT.MOLECULAR\_WEIGHT>  (488) 
402.00200000000001

>  <r_sd_BIOSOLVEIT.TPSA>  (488) 
33.939999999999998

>  <i_epik_Tot_Q>  (488) 
2

>  <i_epik_Tot_abs_Q>  (488) 
2

>  <i_f3d_flags>  (488) 
0

>  <i_i_glide_confnum>  (488) 
2

>  <i_i_glide_lignum>  (488) 
949

>  <i_i_glide_posenum>  (488) 
15

>  <i_i_glide_rotatable_bonds>  (488) 
7

>  <i_lp_mmshare_version>  (488) 
65135

>  <i_m_ct_format>  (488) 
2

>  <i_m_source_file_index>  (488) 
2352

>  <i_qp_#NandO>  (488) 
3

>  <i_qp_#acid>  (488) 
0

>  <i_qp_#amide>  (488) 
0

>  <i_qp_#amidine>  (488) 
0

>  <i_qp_#amine>  (488) 
2

>  <i_qp_#in34>  (488) 
0

>  <i_qp_#in56>  (488) 
17

>  <i_qp_#metab>  (488) 
7

>  <i_qp_#nonHatm>  (488) 
27

>  <i_qp_#noncon>  (488) 
0

>  <i_qp_#ringatoms>  (488) 
17

>  <i_qp_#rotor>  (488) 
6

>  <i_qp_#rtvFG>  (488) 
0

>  <i_qp_#stars>  (488) 
0

>  <i_qp_CNS>  (488) 
2

>  <i_qp_HumanOralAbsorption>  (488) 
3

>  <i_qp_RuleOfFive>  (488) 
0

>  <i_qp_RuleOfThree>  (488) 
1

>  <i_sd_BIOSOLVEIT.INFINISEE\_RESULT\_RANK>  (488) 
16113

>  <i_sd_version>  (488) 
0

>  <b_lp_Chiralities_Consistent>  (488) 
1

>  <b_sd_chiral_flag>  (488) 
0

>  <canonical_id>  (488) 
ATP-HTVS-4CC80B7019B2

>  <compound_code>  (488) 
75234

>  <title>  (488) 
rxn207____EMOL722295____EMOL50155899

>  <variant>  (488) 
75234-2

>  <source_file>  (488) 
运行/运行/ATP-VSW/ATP-VSW-DOCK_HTVS_1-002_lib.maegz

>  <canonical_smiles>  (488) 
Cc1nc(-c2ccc(Cl)cc2)sc1[C@H](C)[NH2+]Cc1ccc(C[NH+](C)C)cc1

>  <scaffold>  (488) 
c1ccc(C[NH2+]Cc2cnc(-c3ccccc3)s2)cc1

>  <molecular_formula>  (488) 
C22H28ClN3S+2

$$$$
ATP-HTVS-4CFD3E435A48
     RDKit          3D

 58 61  0  0  0  0  0  0  0  0999 V2000
  201.1613  177.4262  157.9226 N   0  0  0  0  0  0  0  0  0  0  0  0
  200.7011  176.6243  156.9428 C   0  0  0  0  0  0  0  0  0  0  0  0
  200.0621  177.1163  155.7952 C   0  0  0  0  0  0  0  0  0  0  0  0
  199.9524  178.5146  155.6240 C   0  0  0  0  0  0  0  0  0  0  0  0
  200.5009  179.3527  156.6181 C   0  0  0  0  0  0  0  0  0  0  0  0
  201.1014  178.7533  157.7371 C   0  0  0  0  0  0  0  0  0  0  0  0
  199.2583  179.0741  154.4546 C   0  0  0  0  0  0  0  0  0  0  0  0
  199.2310  178.3945  153.3184 N   0  0  0  0  0  0  0  0  0  0  0  0
  198.4668  179.1043  152.4516 N   0  0  0  0  0  0  0  0  0  0  0  0
  198.1925  178.6191  151.1430 C   0  0  0  0  0  0  0  0  0  0  0  0
  198.7311  177.3841  150.7027 C   0  0  0  0  0  0  0  0  0  0  0  0
  198.4658  176.9088  149.4040 C   0  0  0  0  0  0  0  0  0  0  0  0
  197.6560  177.6576  148.5311 C   0  0  0  0  0  0  0  0  0  0  0  0
  197.1035  178.8764  148.9637 C   0  0  0  0  0  0  0  0  0  0  0  0
  197.3658  179.3550  150.2627 C   0  0  0  0  0  0  0  0  0  0  0  0
  198.0496  180.2760  153.0479 C   0  0  0  0  0  0  0  0  0  0  0  0
  198.5233  180.2935  154.3277 C   0  0  0  0  0  0  0  0  0  0  0  0
  198.2739  181.3630  155.3481 C   0  0  1  0  0  0  0  0  0  0  0  0
  197.5833  180.7964  156.5353 N   0  0  1  0  0  0  0  0  0  0  0  0
  197.2553  181.7871  157.5751 C   0  0  1  0  0  0  0  0  0  0  0  0
  196.0884  182.6829  157.1349 C   0  0  1  0  0  0  0  0  0  0  0  0
  195.7262  183.7064  158.1799 C   0  0  0  0  0  0  0  0  0  0  0  0
  196.5988  184.7728  158.4662 C   0  0  0  0  0  0  0  0  0  0  0  0
  196.2311  185.7449  159.4198 C   0  0  0  0  0  0  0  0  0  0  0  0
  194.9805  185.6730  160.0889 C   0  0  0  0  0  0  0  0  0  0  0  0
  194.5898  186.6520  161.0344 N   0  0  0  0  0  0  0  0  0  0  0  0
  195.4835  187.7675  161.3196 C   0  0  2  0  0  0  0  0  0  0  0  0
  193.2201  186.6994  161.5387 C   0  0  2  0  0  0  0  0  0  0  0  0
  194.1149  184.6041  159.7517 C   0  0  0  0  0  0  0  0  0  0  0  0
  194.4846  183.6224  158.8228 C   0  0  0  0  0  0  0  0  0  0  0  0
  196.7247  180.3217  156.2964 H   0  0  0  0  0  0  0  0  0  0  0  0
  200.8604  175.5631  157.0809 H   0  0  0  0  0  0  0  0  0  0  0  0
  199.6807  176.4209  155.0598 H   0  0  0  0  0  0  0  0  0  0  0  0
  200.5118  180.4286  156.5478 H   0  0  0  0  0  0  0  0  0  0  0  0
  201.5510  179.3619  158.5078 H   0  0  0  0  0  0  0  0  0  0  0  0
  199.3545  176.7892  151.3541 H   0  0  0  0  0  0  0  0  0  0  0  0
  198.8846  175.9672  149.0761 H   0  0  0  0  0  0  0  0  0  0  0  0
  197.4526  177.2941  147.5330 H   0  0  0  0  0  0  0  0  0  0  0  0
  196.4720  179.4375  148.2911 H   0  0  0  0  0  0  0  0  0  0  0  0
  196.9174  180.2895  150.5620 H   0  0  0  0  0  0  0  0  0  0  0  0
  197.4463  181.0127  152.5411 H   0  0  0  0  0  0  0  0  0  0  0  0
  199.2089  181.8471  155.6449 H   0  0  0  0  0  0  0  0  0  0  0  0
  197.6742  182.1604  154.8923 H   0  0  0  0  0  0  0  0  0  0  0  0
  196.9549  181.2388  158.4692 H   0  0  0  0  0  0  0  0  0  0  0  0
  198.1379  182.3749  157.8398 H   0  0  0  0  0  0  0  0  0  0  0  0
  196.2984  183.2354  156.2156 H   0  0  0  0  0  0  0  0  0  0  0  0
  195.2219  182.0452  156.9479 H   0  0  0  0  0  0  0  0  0  0  0  0
  197.5398  184.8635  157.9401 H   0  0  0  0  0  0  0  0  0  0  0  0
  196.9326  186.5514  159.5985 H   0  0  0  0  0  0  0  0  0  0  0  0
  196.3476  187.3949  161.8424 H   0  0  0  0  0  0  0  0  0  0  0  0
  194.9980  188.5164  161.9478 H   0  0  0  0  0  0  0  0  0  0  0  0
  195.8126  188.2738  160.4104 H   0  0  0  0  0  0  0  0  0  0  0  0
  192.9234  185.7668  162.0203 H   0  0  0  0  0  0  0  0  0  0  0  0
  192.5166  186.9093  160.7342 H   0  0  0  0  0  0  0  0  0  0  0  0
  193.1080  187.4816  162.2883 H   0  0  0  0  0  0  0  0  0  0  0  0
  193.1428  184.5105  160.2097 H   0  0  0  0  0  0  0  0  0  0  0  0
  193.7917  182.8287  158.5746 H   0  0  0  0  0  0  0  0  0  0  0  0
  198.1749  180.1000  156.9623 H   0  0  0  0  0  0  0  0  0  0  0  0
  1  2  2  0
  1  6  1  0
  2  3  1  0
  2 32  1  0
  3  4  2  0
  3 33  1  0
  4  5  1  0
  4  7  1  0
  5  6  2  0
  5 34  1  0
  6 35  1  0
  7  8  2  0
  7 17  1  0
  8  9  1  0
  9 10  1  0
  9 16  1  0
 10 11  2  0
 10 15  1  0
 11 12  1  0
 11 36  1  0
 12 13  2  0
 12 37  1  0
 13 14  1  0
 13 38  1  0
 14 15  2  0
 14 39  1  0
 15 40  1  0
 16 17  2  0
 16 41  1  0
 17 18  1  0
 18 19  1  0
 18 42  1  1
 18 43  1  0
 19 20  1  0
 19 31  1  6
 19 58  1  0
 20 21  1  0
 20 44  1  1
 20 45  1  0
 21 22  1  0
 21 46  1  6
 21 47  1  0
 22 23  1  0
 22 30  2  0
 23 24  2  0
 23 48  1  0
 24 25  1  0
 24 49  1  0
 25 26  1  0
 25 29  2  0
 26 27  1  0
 26 28  1  0
 27 50  1  1
 27 51  1  0
 27 52  1  0
 28 53  1  1
 28 54  1  0
 28 55  1  0
 29 30  1  0
 29 56  1  0
 30 57  1  0
M  CHG  1  19   1
M  END
>  <s_epik_cmdline>  (489) 
J2VwaWtfcHl0aG9uJywgJy1waCcsICc3LjAwMDAwMCcsICctcGh0JywgJzIuMDAwMDAwJywgJy1tcycsICcxNicsICctdG4nLCAnOCcsICctbWEnLCAnMjAwJywgJy1pbWFlJywgJzxpbmZpbGUubWFlPicsICctb21hZScsICc8b3V0ZmlsZS5tYWU+Jw==

>  <s_epik_input>  (489) 
W2NIXTFbY0hdbltjSF1bY0hdYzEtYzJubigtYzNbY0hdW2NIXVtjSF1bY0hdW2NIXTMpW2NIXWMyW0NIMl1bTkhdW0NIMl1bQ0gyXWM0W2NIXVtjSF1jKE4oW0NIM10pW0NIM10pW2NIXVtjSF00

>  <s_i_glide_gridfile>  (489) 
ATP-Grid

>  <s_lp_Force_Field>  (489) 
OPLS_2005

>  <s_lp_Variant>  (489) 
m_270004bbb____8292808____7547806-1

>  <s_lp_label>  (489) 
1883_sdstereoexpander_1_neutralizer_1_epik_1_stereoizer_1

>  <s_m_source_file>  (489) 
ATP-VSW-LIGPREP-003-in.maegz

>  <s_sd_BIOSOLVEIT.INFINISEE\_QUERY\_NAME>  (489) 
Ref-Lig

>  <s_sd_BIOSOLVEIT.INFINISEE\_QUERY\_SMILES>  (489) 
S(c1nc2c(cc1C[NH2+]Cc3ccc(cc3)C[NH+](C)C)cccc2)Cc4ccccc4

>  <s_sd_BIOSOLVEIT.INFINISEE\_REACTION\_NAME>  (489) 
m_270004bbb

>  <s_sd_BIOSOLVEIT.INFINISEE\_REAGENT1\_SMILES>  (489) 
[R1*]NCCc1ccc(N(C)C)cc1

>  <s_sd_BIOSOLVEIT.INFINISEE\_REAGENT2\_SMILES>  (489) 
[R1*]CC=1C(=NN(c2ccccc2)C1)c3ccncc3

>  <s_sd_BIOSOLVEIT.INFINISEE\_SPACE>  (489) 
REALSpace_44bn_2023-08

>  <s_vsw_compound_code>  (489) 
60227

>  <s_vsw_variant>  (489) 
60227-1

>  <r_epik_Charging_Adjusted_Penalty>  (489) 
0.00493297282503529

>  <r_epik_Ionization_Penalty>  (489) 
0.012

>  <r_epik_Ionization_Penalty_Charging>  (489) 
0.0048999999999999998

>  <r_epik_Ionization_Penalty_Neutral>  (489) 
0.0071000000000000004

>  <r_epik_State_Penalty>  (489) 
-0

>  <r_i_docking_score>  (489) 
-5.6486937622162303

>  <r_i_glide_ecoul>  (489) 
-8.0705471038818395

>  <r_i_glide_eff_state_penalty>  (489) 
-0

>  <r_i_glide_einternal>  (489) 
1.9958846569061299

>  <r_i_glide_emodel>  (489) 
-67.078515194227805

>  <r_i_glide_energy>  (489) 
-45.515176773071303

>  <r_i_glide_erotb>  (489) 
0.86322678206867198

>  <r_i_glide_esite>  (489) 
-0.098862918546497605

>  <r_i_glide_evdw>  (489) 
-37.444629669189503

>  <r_i_glide_gscore>  (489) 
-5.6486937622162303

>  <r_i_glide_hbond>  (489) 
-0.049003369901414399

>  <r_i_glide_ligand_efficiency>  (489) 
-0.188289792073874

>  <r_i_glide_ligand_efficiency_ln>  (489) 
-1.28344477022363

>  <r_i_glide_ligand_efficiency_sa>  (489) 
-0.58506016180793396

>  <r_i_glide_lipo>  (489) 
-2.0007278670706299

>  <r_i_glide_metal>  (489) 
-0

>  <r_i_glide_rewards>  (489) 
-1.2805128397246199

>  <r_lp_Energy>  (489) 
17.129491999999999

>  <r_lp_tautomer_probability>  (489) 
1

>  <r_qp_ACxDN^.5/SA>  (489) 
0.0074822999999999999

>  <r_qp_CIQPlogS>  (489) 
-5.6289999999999996

>  <r_qp_EA(eV)>  (489) 
0.63500000000000001

>  <r_qp_FISA>  (489) 
27.686

>  <r_qp_FOSA>  (489) 
232.97300000000001

>  <r_qp_IP(eV)>  (489) 
7.774

>  <r_qp_Jm>  (489) 
0.127769022586572

>  <r_qp_PISA>  (489) 
407.58499999999998

>  <r_qp_PSA>  (489) 
39.524999999999999

>  <r_qp_PercentHumanOralAbsorption>  (489) 
100

>  <r_qp_QPPCaco>  (489) 
1349.7560000000001

>  <r_qp_QPPMDCK>  (489) 
756.86800000000005

>  <r_qp_QPlogBB>  (489) 
0.34699999999999998

>  <r_qp_QPlogHERG>  (489) 
-6.5819999999999999

>  <r_qp_QPlogKhsa>  (489) 
0.88

>  <r_qp_QPlogKp>  (489) 
-2.0800000000000001

>  <r_qp_QPlogPC16>  (489) 
13.381

>  <r_qp_QPlogPo/w>  (489) 
4.9980000000000002

>  <r_qp_QPlogPoct>  (489) 
19.061

>  <r_qp_QPlogPw>  (489) 
9.3539999999999992

>  <r_qp_QPlogS>  (489) 
-4.4119999999999999

>  <r_qp_QPpolrz>  (489) 
45.090000000000003

>  <r_qp_SASA>  (489) 
668.24300000000005

>  <r_qp_SAamideO>  (489) 
0

>  <r_qp_SAfluorine>  (489) 
0

>  <r_qp_WPSA>  (489) 
0

>  <r_qp_accptHB>  (489) 
5

>  <r_qp_dip^2/V>  (489) 
0.0067754

>  <r_qp_dipole>  (489) 
2.944

>  <r_qp_donorHB>  (489) 
1

>  <r_qp_glob>  (489) 
0.85293180000000002

>  <r_qp_mol_MW>  (489) 
397.52199999999999

>  <r_qp_volume>  (489) 
1279.4580000000001

>  <r_sd_BIOSOLVEIT.INFINISEE\_FTREES\_SIMILARITY>  (489) 
0.90300000000000002

>  <r_sd_BIOSOLVEIT.LOGP>  (489) 
3.3064

>  <r_sd_BIOSOLVEIT.MOLECULAR\_WEIGHT>  (489) 
398.53100000000001

>  <r_sd_BIOSOLVEIT.TPSA>  (489) 
50.560000000000002

>  <i_epik_Tot_Q>  (489) 
1

>  <i_epik_Tot_abs_Q>  (489) 
1

>  <i_f3d_flags>  (489) 
0

>  <i_i_glide_confnum>  (489) 
9

>  <i_i_glide_lignum>  (489) 
710

>  <i_i_glide_posenum>  (489) 
10

>  <i_i_glide_rotatable_bonds>  (489) 
8

>  <i_lp_mmshare_version>  (489) 
65135

>  <i_m_ct_format>  (489) 
2

>  <i_m_source_file_index>  (489) 
1883

>  <i_qp_#NandO>  (489) 
5

>  <i_qp_#acid>  (489) 
0

>  <i_qp_#amide>  (489) 
0

>  <i_qp_#amidine>  (489) 
0

>  <i_qp_#amine>  (489) 
1

>  <i_qp_#in34>  (489) 
0

>  <i_qp_#in56>  (489) 
23

>  <i_qp_#metab>  (489) 
7

>  <i_qp_#nonHatm>  (489) 
30

>  <i_qp_#noncon>  (489) 
0

>  <i_qp_#ringatoms>  (489) 
23

>  <i_qp_#rotor>  (489) 
6

>  <i_qp_#rtvFG>  (489) 
0

>  <i_qp_#stars>  (489) 
1

>  <i_qp_CNS>  (489) 
1

>  <i_qp_HumanOralAbsorption>  (489) 
3

>  <i_qp_RuleOfFive>  (489) 
0

>  <i_qp_RuleOfThree>  (489) 
1

>  <i_sd_BIOSOLVEIT.INFINISEE\_REAGENT1\_NAME>  (489) 
8292808

>  <i_sd_BIOSOLVEIT.INFINISEE\_REAGENT2\_NAME>  (489) 
7547806

>  <i_sd_BIOSOLVEIT.INFINISEE\_RESULT\_RANK>  (489) 
83205

>  <i_sd_version>  (489) 
0

>  <b_lp_Chiralities_Consistent>  (489) 
1

>  <b_sd_chiral_flag>  (489) 
0

>  <canonical_id>  (489) 
ATP-HTVS-4CFD3E435A48

>  <compound_code>  (489) 
60227

>  <title>  (489) 
m_270004bbb____8292808____7547806

>  <variant>  (489) 
60227-1

>  <source_file>  (489) 
运行/运行/ATP-VSW/ATP-VSW-DOCK_HTVS_1-003_lib/ATP-VSW-DOCK_HTVS_1-003_lib.mae

>  <canonical_smiles>  (489) 
CN(C)c1ccc(CC[NH2+]Cc2cn(-c3ccccc3)nc2-c2ccncc2)cc1

>  <scaffold>  (489) 
c1ccc(CC[NH2+]Cc2cn(-c3ccccc3)nc2-c2ccncc2)cc1

>  <molecular_formula>  (489) 
C25H28N5+

$$$$
ATP-HTVS-4D1ED9B826E8
     RDKit          3D

 62 65  0  0  0  0  0  0  0  0999 V2000
  196.8186  180.3076  150.5565 F   0  0  0  0  0  0  0  0  0  0  0  0
  197.4094  180.0455  151.7477 C   0  0  0  0  0  0  0  0  0  0  0  0
  198.8062  179.8944  151.8241 C   0  0  0  0  0  0  0  0  0  0  0  0
  199.4151  179.6094  153.0608 C   0  0  0  0  0  0  0  0  0  0  0  0
  198.6332  179.4426  154.2282 C   0  0  0  0  0  0  0  0  0  0  0  0
  197.2358  179.6210  154.1475 C   0  0  0  0  0  0  0  0  0  0  0  0
  196.6271  179.9136  152.9087 C   0  0  0  0  0  0  0  0  0  0  0  0
  199.2888  179.0783  155.5662 C   0  0  1  0  0  0  0  0  0  0  0  0
  200.4175  178.1390  155.4076 N   0  0  0  0  0  0  0  0  0  0  0  0
  201.0376  177.7693  156.6795 C   0  0  2  0  0  0  0  0  0  0  0  0
  199.9573  176.8923  154.7988 C   0  0  2  0  0  0  0  0  0  0  0  0
  199.7236  180.3794  156.2847 C   0  0  1  0  0  0  0  0  0  0  0  0
  198.5780  181.1631  156.7196 N   0  0  0  0  0  0  0  0  0  0  0  0
  198.3428  182.4536  156.4297 C   0  0  0  0  0  0  0  0  0  0  0  0
  198.9659  183.0142  155.5299 O   0  0  0  0  0  0  0  0  0  0  0  0
  197.3423  183.0773  157.3125 C   0  0  0  0  0  0  0  0  0  0  0  0
  197.4446  184.4305  157.7245 N   0  0  0  0  0  0  0  0  0  0  0  0
  196.5273  184.9651  158.6778 C   0  0  0  0  0  0  0  0  0  0  0  0
  195.4368  184.1618  159.1130 C   0  0  0  0  0  0  0  0  0  0  0  0
  194.4860  184.6662  160.0237 C   0  0  0  0  0  0  0  0  0  0  0  0
  194.5990  185.9670  160.5360 C   0  0  0  0  0  0  0  0  0  0  0  0
  195.6728  186.7730  160.1341 C   0  0  0  0  0  0  0  0  0  0  0  0
  196.6197  186.2770  159.2206 C   0  0  0  0  0  0  0  0  0  0  0  0
  195.2717  182.7778  158.6158 C   0  0  0  0  0  0  0  0  0  0  0  0
  194.3246  182.0593  158.9317 O   0  0  0  0  0  0  0  0  0  0  0  0
  196.3149  182.2892  157.7239 C   0  0  0  0  0  0  0  0  0  0  0  0
  198.3655  185.4321  157.1444 C   0  0  1  0  0  0  0  0  0  0  0  0
  197.6500  186.3552  156.1344 C   0  0  1  0  0  0  0  0  0  0  0  0
  198.5840  187.3946  155.5515 C   0  0  0  0  0  0  0  0  0  0  0  0
  199.1499  187.2090  154.2723 C   0  0  0  0  0  0  0  0  0  0  0  0
  200.0280  188.1750  153.7413 C   0  0  0  0  0  0  0  0  0  0  0  0
  200.3405  189.3288  154.4869 C   0  0  0  0  0  0  0  0  0  0  0  0
  199.7731  189.5183  155.7621 C   0  0  0  0  0  0  0  0  0  0  0  0
  198.8932  188.5546  156.2911 C   0  0  0  0  0  0  0  0  0  0  0  0
  199.4128  179.9860  150.9345 H   0  0  0  0  0  0  0  0  0  0  0  0
  200.4861  179.4866  153.1076 H   0  0  0  0  0  0  0  0  0  0  0  0
  196.6219  179.5102  155.0328 H   0  0  0  0  0  0  0  0  0  0  0  0
  195.5556  180.0251  152.8415 H   0  0  0  0  0  0  0  0  0  0  0  0
  198.5337  178.5859  156.1774 H   0  0  0  0  0  0  0  0  0  0  0  0
  201.7843  176.9890  156.5289 H   0  0  0  0  0  0  0  0  0  0  0  0
  200.2952  177.3985  157.3868 H   0  0  0  0  0  0  0  0  0  0  0  0
  201.5726  178.6000  157.1379 H   0  0  0  0  0  0  0  0  0  0  0  0
  200.7876  176.1937  154.6864 H   0  0  0  0  0  0  0  0  0  0  0  0
  199.5490  177.0521  153.8004 H   0  0  0  0  0  0  0  0  0  0  0  0
  199.1850  176.4194  155.4059 H   0  0  0  0  0  0  0  0  0  0  0  0
  200.2707  180.1976  157.2080 H   0  0  0  0  0  0  0  0  0  0  0  0
  200.4042  180.9379  155.6395 H   0  0  0  0  0  0  0  0  0  0  0  0
  197.9760  180.7062  157.3918 H   0  0  0  0  0  0  0  0  0  0  0  0
  193.6464  184.0616  160.3361 H   0  0  0  0  0  0  0  0  0  0  0  0
  193.8563  186.3508  161.2239 H   0  0  0  0  0  0  0  0  0  0  0  0
  195.7603  187.7822  160.5136 H   0  0  0  0  0  0  0  0  0  0  0  0
  197.4040  186.9660  158.9601 H   0  0  0  0  0  0  0  0  0  0  0  0
  196.2048  181.2589  157.4153 H   0  0  0  0  0  0  0  0  0  0  0  0
  198.8507  186.0073  157.9314 H   0  0  0  0  0  0  0  0  0  0  0  0
  199.2327  184.9982  156.6590 H   0  0  0  0  0  0  0  0  0  0  0  0
  197.2236  185.7552  155.3322 H   0  0  0  0  0  0  0  0  0  0  0  0
  196.8080  186.8774  156.5830 H   0  0  0  0  0  0  0  0  0  0  0  0
  198.9176  186.3243  153.6971 H   0  0  0  0  0  0  0  0  0  0  0  0
  200.4634  188.0304  152.7625 H   0  0  0  0  0  0  0  0  0  0  0  0
  201.0169  190.0672  154.0823 H   0  0  0  0  0  0  0  0  0  0  0  0
  200.0116  190.4023  156.3353 H   0  0  0  0  0  0  0  0  0  0  0  0
  198.4632  188.7035  157.2708 H   0  0  0  0  0  0  0  0  0  0  0  0
  1  2  1  0
  2  3  1  0
  2  7  2  0
  3  4  2  0
  3 35  1  0
  4  5  1  0
  4 36  1  0
  5  6  2  0
  5  8  1  0
  6  7  1  0
  6 37  1  0
  7 38  1  0
  8  9  1  0
  8 12  1  0
  8 39  1  1
  9 10  1  0
  9 11  1  0
 10 40  1  6
 10 41  1  0
 10 42  1  0
 11 43  1  6
 11 44  1  0
 11 45  1  0
 12 13  1  0
 12 46  1  1
 12 47  1  0
 13 14  1  0
 13 48  1  0
 14 15  2  0
 14 16  1  0
 16 17  1  0
 16 26  2  0
 17 18  1  0
 17 27  1  0
 18 19  1  0
 18 23  2  0
 19 20  2  0
 19 24  1  0
 20 21  1  0
 20 49  1  0
 21 22  2  0
 21 50  1  0
 22 23  1  0
 22 51  1  0
 23 52  1  0
 24 25  2  0
 24 26  1  0
 26 53  1  0
 27 28  1  0
 27 54  1  1
 27 55  1  0
 28 29  1  0
 28 56  1  6
 28 57  1  0
 29 30  2  0
 29 34  1  0
 30 31  1  0
 30 58  1  0
 31 32  2  0
 31 59  1  0
 32 33  1  0
 32 60  1  0
 33 34  2  0
 33 61  1  0
 34 62  1  0
M  END
>  <s_epik_cmdline>  (490) 
J2VwaWtfcHl0aG9uJywgJy1waCcsICc3LjAwMDAwMCcsICctcGh0JywgJzIuMDAwMDAwJywgJy1tcycsICcxNicsICctdG4nLCAnOCcsICctbWEnLCAnMjAwJywgJy1pbWFlJywgJzxpbmZpbGUubWFlPicsICctb21hZScsICc8b3V0ZmlsZS5tYWU+Jw==

>  <s_epik_input>  (490) 
RmMxW2NIXVtjSF1jKFtjSF1bY0hdMSlbQ0BASF0oTihbQ0gzXSlbQ0gzXSlbQ0gyXVtOSF1DKD1PKWMoW2NIXWMoPU8pYyhjMjMpW2NIXVtjSF1bY0hdW2NIXTMpbjJbQ0gyXVtDSDJdYzRbY0hdW2NIXVtjSF1bY0hdW2NIXTQ=

>  <s_i_glide_gridfile>  (490) 
ATP-Grid

>  <s_lp_Force_Field>  (490) 
OPLS_2005

>  <s_lp_Variant>  (490) 
YAS_R012____OTV5753507____OTV2889217____OTV7020431351-3

>  <s_lp_label>  (490) 
139_sdstereoexpander_1_neutralizer_1_epik_2_stereoizer_1

>  <s_m_source_file>  (490) 
ATP-VSW-LIGPREP-003-in.maegz

>  <s_sd_BIOSOLVEIT.INFINISEE\_QUERY\_NAME>  (490) 
Ref-Lig

>  <s_sd_BIOSOLVEIT.INFINISEE\_QUERY\_SMILES>  (490) 
S(c1nc2c(cc1C[NH2+]Cc3ccc(cc3)C[NH+](C)C)cccc2)Cc4ccccc4

>  <s_sd_BIOSOLVEIT.INFINISEE\_REACTION\_NAME>  (490) 
YAS_R012

>  <s_sd_BIOSOLVEIT.INFINISEE\_REAGENT1\_NAME>  (490) 
OTV5753507

>  <s_sd_BIOSOLVEIT.INFINISEE\_REAGENT1\_SMILES>  (490) 
Nc1ccccc1

>  <s_sd_BIOSOLVEIT.INFINISEE\_REAGENT2\_NAME>  (490) 
OTV2889217

>  <s_sd_BIOSOLVEIT.INFINISEE\_REAGENT2\_SMILES>  (490) 
BrCCc1ccccc1

>  <s_sd_BIOSOLVEIT.INFINISEE\_REAGENT3\_NAME>  (490) 
OTV7020431351

>  <s_sd_BIOSOLVEIT.INFINISEE\_REAGENT3\_SMILES>  (490) 
Fc1ccc(cc1)C(N(C)C)CN

>  <s_sd_BIOSOLVEIT.INFINISEE\_SPACE>  (490) 
CHEMriya_12bn_2022-01

>  <s_vsw_compound_code>  (490) 
4419

>  <s_vsw_variant>  (490) 
4419-3

>  <r_epik_Charging_Adjusted_Penalty>  (490) 
0.86454023899884203

>  <r_epik_Ionization_Penalty>  (490) 
0.86460000000000004

>  <r_epik_Ionization_Penalty_Charging>  (490) 
0

>  <r_epik_Ionization_Penalty_Neutral>  (490) 
0.86460000000000004

>  <r_epik_State_Penalty>  (490) 
0.86450000000000005

>  <r_i_docking_score>  (490) 
-3.0940199040860299

>  <r_i_glide_ecoul>  (490) 
-3.3002254962921098

>  <r_i_glide_eff_state_penalty>  (490) 
0.86450000000000005

>  <r_i_glide_einternal>  (490) 
3.7105398178100599

>  <r_i_glide_emodel>  (490) 
-50.391558380940403

>  <r_i_glide_energy>  (490) 
-41.363358736038201

>  <r_i_glide_erotb>  (490) 
0.67229575424047305

>  <r_i_glide_esite>  (490) 
-0.060612250000755499

>  <r_i_glide_evdw>  (490) 
-38.063133239746101

>  <r_i_glide_gscore>  (490) 
-3.9585199040860299

>  <r_i_glide_hbond>  (490) 
0

>  <r_i_glide_ligand_efficiency>  (490) 
-0.091000585414295093

>  <r_i_glide_ligand_efficiency_ln>  (490) 
-0.68355578113133297

>  <r_i_glide_ligand_efficiency_sa>  (490) 
-0.29480657008477901

>  <r_i_glide_lipo>  (490) 
-1.7017959282184201

>  <r_i_glide_metal>  (490) 
-0

>  <r_i_glide_rewards>  (490) 
-0.47021699367620601

>  <r_lp_Energy>  (490) 
29.007704

>  <r_qp_ACxDN^.5/SA>  (490) 
0.0097423000000000006

>  <r_qp_CIQPlogS>  (490) 
-5.9829999999999997

>  <r_qp_EA(eV)>  (490) 
0.68400000000000005

>  <r_qp_FISA>  (490) 
70.427999999999997

>  <r_qp_FOSA>  (490) 
199.09

>  <r_qp_IP(eV)>  (490) 
8.5679999999999996

>  <r_qp_Jm>  (490) 
0.035918882497240401

>  <r_qp_PISA>  (490) 
403.75

>  <r_qp_PSA>  (490) 
63.704000000000001

>  <r_qp_PercentHumanOralAbsorption>  (490) 
100

>  <r_qp_QPPCaco>  (490) 
530.79700000000003

>  <r_qp_QPPMDCK>  (490) 
488.38400000000001

>  <r_qp_QPlogBB>  (490) 
-0.080000000000000002

>  <r_qp_QPlogHERG>  (490) 
-6.8330000000000002

>  <r_qp_QPlogKhsa>  (490) 
0.66400000000000003

>  <r_qp_QPlogKp>  (490) 
-2.6899999999999999

>  <r_qp_QPlogPC16>  (490) 
14.305

>  <r_qp_QPlogPo/w>  (490) 
4.6840000000000002

>  <r_qp_QPlogPoct>  (490) 
21.832000000000001

>  <r_qp_QPlogPw>  (490) 
11.284000000000001

>  <r_qp_QPlogS>  (490) 
-4.415

>  <r_qp_QPpolrz>  (490) 
47.988999999999997

>  <r_qp_SASA>  (490) 
718.51300000000003

>  <r_qp_SAamideO>  (490) 
0

>  <r_qp_SAfluorine>  (490) 
45.244999999999997

>  <r_qp_WPSA>  (490) 
45.244999999999997

>  <r_qp_accptHB>  (490) 
7

>  <r_qp_dip^2/V>  (490) 
0.031147000000000001

>  <r_qp_dipole>  (490) 
6.5679999999999996

>  <r_qp_donorHB>  (490) 
1

>  <r_qp_glob>  (490) 
0.83626279999999997

>  <r_qp_mol_MW>  (490) 
457.54599999999999

>  <r_qp_volume>  (490) 
1384.9000000000001

>  <r_sd_BIOSOLVEIT.INFINISEE\_FTREES\_SIMILARITY>  (490) 
0.90400000000000003

>  <r_sd_BIOSOLVEIT.LOGP>  (490) 
2.9569999999999999

>  <r_sd_BIOSOLVEIT.MOLECULAR\_WEIGHT>  (490) 
458.55399999999997

>  <r_sd_BIOSOLVEIT.TPSA>  (490) 
53.850000000000001

>  <i_epik_Tot_Q>  (490) 
0

>  <i_epik_Tot_abs_Q>  (490) 
0

>  <i_f3d_flags>  (490) 
0

>  <i_i_glide_confnum>  (490) 
3

>  <i_i_glide_lignum>  (490) 
186

>  <i_i_glide_posenum>  (490) 
8

>  <i_i_glide_rotatable_bonds>  (490) 
9

>  <i_lp_mmshare_version>  (490) 
65135

>  <i_m_ct_format>  (490) 
2

>  <i_m_source_file_index>  (490) 
139

>  <i_qp_#NandO>  (490) 
5

>  <i_qp_#acid>  (490) 
0

>  <i_qp_#amide>  (490) 
0

>  <i_qp_#amidine>  (490) 
0

>  <i_qp_#amine>  (490) 
1

>  <i_qp_#in34>  (490) 
0

>  <i_qp_#in56>  (490) 
22

>  <i_qp_#metab>  (490) 
5

>  <i_qp_#nonHatm>  (490) 
34

>  <i_qp_#noncon>  (490) 
0

>  <i_qp_#ringatoms>  (490) 
22

>  <i_qp_#rotor>  (490) 
8

>  <i_qp_#rtvFG>  (490) 
0

>  <i_qp_#stars>  (490) 
0

>  <i_qp_CNS>  (490) 
1

>  <i_qp_HumanOralAbsorption>  (490) 
3

>  <i_qp_RuleOfFive>  (490) 
0

>  <i_qp_RuleOfThree>  (490) 
0

>  <i_sd_BIOSOLVEIT.INFINISEE\_RESULT\_RANK>  (490) 
79506

>  <i_sd_version>  (490) 
0

>  <b_lp_Chiralities_Consistent>  (490) 
1

>  <b_sd_chiral_flag>  (490) 
0

>  <canonical_id>  (490) 
ATP-HTVS-4D1ED9B826E8

>  <compound_code>  (490) 
4419

>  <title>  (490) 
YAS_R012____OTV5753507____OTV2889217____OTV7020431351

>  <variant>  (490) 
4419-3

>  <source_file>  (490) 
运行/运行/ATP-VSW/ATP-VSW-DOCK_HTVS_1-003_lib/ATP-VSW-DOCK_HTVS_1-003_lib.mae

>  <canonical_smiles>  (490) 
CN(C)[C@@H](CNC(=O)c1cc(=O)c2ccccc2n1CCc1ccccc1)c1ccc(F)cc1

>  <scaffold>  (490) 
O=C(NCCc1ccccc1)c1cc(=O)c2ccccc2n1CCc1ccccc1

>  <molecular_formula>  (490) 
C28H28FN3O2

$$$$
ATP-HTVS-4D974321991D
     RDKit          3D

 62 65  0  0  0  0  0  0  0  0999 V2000
  202.9182  187.4640  162.1697 F   0  0  0  0  0  0  0  0  0  0  0  0
  202.4001  186.6179  161.2442 C   0  0  0  0  0  0  0  0  0  0  0  0
  202.4617  185.2271  161.4395 C   0  0  0  0  0  0  0  0  0  0  0  0
  201.8997  184.3427  160.4810 C   0  0  0  0  0  0  0  0  0  0  0  0
  201.2708  184.8761  159.3252 C   0  0  0  0  0  0  0  0  0  0  0  0
  201.2749  186.2635  159.1043 C   0  0  0  0  0  0  0  0  0  0  0  0
  201.7902  187.1366  160.0883 C   0  0  0  0  0  0  0  0  0  0  0  0
  200.5705  184.0075  158.2822 C   0  0  1  0  0  0  0  0  0  0  0  0
  199.2368  183.5155  158.6330 N   0  0  0  0  0  0  0  0  0  0  0  0
  198.1296  184.3605  158.8824 C   0  0  0  0  0  0  0  0  0  0  0  0
  198.3186  185.6757  159.1388 N   0  0  0  0  0  0  0  0  0  0  0  0
  197.2819  186.4899  159.4282 C   0  0  0  0  0  0  0  0  0  0  0  0
  196.0389  186.0284  159.4776 N   0  0  0  0  0  0  0  0  0  0  0  0
  195.7718  184.7386  159.1990 C   0  0  0  0  0  0  0  0  0  0  0  0
  196.8153  183.8320  158.8800 C   0  0  0  0  0  0  0  0  0  0  0  0
  196.4964  182.4944  158.5645 C   0  0  0  0  0  0  0  0  0  0  0  0
  195.1471  182.0718  158.5567 C   0  0  0  0  0  0  0  0  0  0  0  0
  194.1185  182.9822  158.8666 C   0  0  0  0  0  0  0  0  0  0  0  0
  194.4268  184.3126  159.2107 C   0  0  0  0  0  0  0  0  0  0  0  0
  197.4975  187.8303  159.6727 N   0  0  0  0  0  0  0  0  0  0  0  0
  198.7441  188.5219  159.4355 C   0  0  1  0  0  0  0  0  0  0  0  0
  198.6028  189.9882  159.1420 C   0  0  0  0  0  0  0  0  0  0  0  0
  197.6973  190.4036  158.1450 C   0  0  0  0  0  0  0  0  0  0  0  0
  197.5780  191.7664  157.8275 C   0  0  0  0  0  0  0  0  0  0  0  0
  198.3659  192.7328  158.4805 C   0  0  0  0  0  0  0  0  0  0  0  0
  198.1597  194.0471  158.1226 O   0  0  0  0  0  0  0  0  0  0  0  0
  198.9378  195.0459  158.7647 C   0  0  2  0  0  0  0  0  0  0  0  0
  199.3067  192.3027  159.4610 C   0  0  0  0  0  0  0  0  0  0  0  0
  199.4222  190.9345  159.7757 C   0  0  0  0  0  0  0  0  0  0  0  0
  201.9995  182.8409  160.7162 C   0  0  1  0  0  0  0  0  0  0  0  0
  203.2497  182.2603  160.2171 N   0  0  0  0  0  0  0  0  0  0  0  0
  203.1709  180.8096  160.2965 C   0  0  2  0  0  0  0  0  0  0  0  0
  204.4033  182.6988  160.9991 C   0  0  2  0  0  0  0  0  0  0  0  0
  202.9464  184.8420  162.3277 H   0  0  0  0  0  0  0  0  0  0  0  0
  200.8259  186.6459  158.1971 H   0  0  0  0  0  0  0  0  0  0  0  0
  201.7095  188.2034  159.9641 H   0  0  0  0  0  0  0  0  0  0  0  0
  200.4778  184.5661  157.3507 H   0  0  0  0  0  0  0  0  0  0  0  0
  201.2062  183.1545  158.0489 H   0  0  0  0  0  0  0  0  0  0  0  0
  199.0293  182.5682  158.3453 H   0  0  0  0  0  0  0  0  0  0  0  0
  197.2315  181.7448  158.3025 H   0  0  0  0  0  0  0  0  0  0  0  0
  194.8802  181.0606  158.2966 H   0  0  0  0  0  0  0  0  0  0  0  0
  193.0858  182.6498  158.8337 H   0  0  0  0  0  0  0  0  0  0  0  0
  193.6240  185.0076  159.4284 H   0  0  0  0  0  0  0  0  0  0  0  0
  196.6969  188.3905  159.9435 H   0  0  0  0  0  0  0  0  0  0  0  0
  199.4113  188.3782  160.2890 H   0  0  0  0  0  0  0  0  0  0  0  0
  199.2169  188.1198  158.5364 H   0  0  0  0  0  0  0  0  0  0  0  0
  197.1198  189.6770  157.6003 H   0  0  0  0  0  0  0  0  0  0  0  0
  196.8744  192.0666  157.0626 H   0  0  0  0  0  0  0  0  0  0  0  0
  198.6410  196.0217  158.3821 H   0  0  0  0  0  0  0  0  0  0  0  0
  200.0007  194.9169  158.5565 H   0  0  0  0  0  0  0  0  0  0  0  0
  198.7770  195.0544  159.8438 H   0  0  0  0  0  0  0  0  0  0  0  0
  199.9432  193.0084  159.9824 H   0  0  0  0  0  0  0  0  0  0  0  0
  200.1588  190.6082  160.5033 H   0  0  0  0  0  0  0  0  0  0  0  0
  201.8742  182.6492  161.7837 H   0  0  0  0  0  0  0  0  0  0  0  0
  201.1623  182.3372  160.2248 H   0  0  0  0  0  0  0  0  0  0  0  0
  204.0926  180.3508  159.9309 H   0  0  0  0  0  0  0  0  0  0  0  0
  202.3488  180.4323  159.6848 H   0  0  0  0  0  0  0  0  0  0  0  0
  203.0107  180.4903  161.3273 H   0  0  0  0  0  0  0  0  0  0  0  0
  205.3218  182.2241  160.6491 H   0  0  0  0  0  0  0  0  0  0  0  0
  204.2679  182.4491  162.0523 H   0  0  0  0  0  0  0  0  0  0  0  0
  204.5621  183.7743  160.9167 H   0  0  0  0  0  0  0  0  0  0  0  0
  195.2548  186.6407  159.6851 H   0  0  0  0  0  0  0  0  0  0  0  0
  1  2  1  0
  2  3  2  0
  2  7  1  0
  3  4  1  0
  3 34  1  0
  4  5  2  0
  4 30  1  0
  5  6  1  0
  5  8  1  0
  6  7  2  0
  6 35  1  0
  7 36  1  0
  8  9  1  0
  8 37  1  6
  8 38  1  0
  9 10  1  0
  9 39  1  0
 10 11  2  0
 10 15  1  0
 11 12  1  0
 12 13  2  0
 12 20  1  0
 13 14  1  0
 13 62  1  0
 14 15  1  0
 14 19  2  0
 15 16  2  0
 16 17  1  0
 16 40  1  0
 17 18  2  0
 17 41  1  0
 18 19  1  0
 18 42  1  0
 19 43  1  0
 20 21  1  0
 20 44  1  0
 21 22  1  0
 21 45  1  1
 21 46  1  0
 22 23  1  0
 22 29  2  0
 23 24  2  0
 23 47  1  0
 24 25  1  0
 24 48  1  0
 25 26  1  0
 25 28  2  0
 26 27  1  0
 27 49  1  6
 27 50  1  0
 27 51  1  0
 28 29  1  0
 28 52  1  0
 29 53  1  0
 30 31  1  0
 30 54  1  1
 30 55  1  0
 31 32  1  0
 31 33  1  0
 32 56  1  6
 32 57  1  0
 32 58  1  0
 33 59  1  6
 33 60  1  0
 33 61  1  0
M  CHG  1  13   1
M  END
>  <s_epik_cmdline>  (491) 
J2VwaWtfcHl0aG9uJywgJy1waCcsICc3LjAwMDAwMCcsICctcGh0JywgJzIuMDAwMDAwJywgJy1tcycsICcxNicsICctdG4nLCAnOCcsICctbWEnLCAnMjAwJywgJy1pbWFlJywgJzxpbmZpbGUubWFlPicsICctb21hZScsICc8b3V0ZmlsZS5tYWU+Jw==

>  <s_epik_input>  (491) 
RmMxW2NIXWMoW0NIMl1OKFtDSDNdKVtDSDNdKWMoW2NIXVtjSF0xKVtDSDJdW05IXWMoYyhjMjMpW2NIXVtjSF1bY0hdW2NIXTMpbmMobjIpW05IXVtDSDJdYzRbY0hdW2NIXWMoT1tDSDNdKVtjSF1bY0hdNA==

>  <s_i_glide_gridfile>  (491) 
ATP-Grid

>  <s_lp_Force_Field>  (491) 
OPLS_2005

>  <s_lp_Variant>  (491) 
m_282030aaa____21930914____22360182____21974936-2

>  <s_lp_label>  (491) 
1614_sdstereoexpander_1_neutralizer_1_epik_2_stereoizer_1

>  <s_m_source_file>  (491) 
ATP-VSW-LIGPREP-003-in.maegz

>  <s_sd_BIOSOLVEIT.INFINISEE\_QUERY\_NAME>  (491) 
Ref-Lig

>  <s_sd_BIOSOLVEIT.INFINISEE\_QUERY\_SMILES>  (491) 
S(c1nc2c(cc1C[NH2+]Cc3ccc(cc3)C[NH+](C)C)cccc2)Cc4ccccc4

>  <s_sd_BIOSOLVEIT.INFINISEE\_REACTION\_NAME>  (491) 
m_282030aaa

>  <s_sd_BIOSOLVEIT.INFINISEE\_REAGENT1\_SMILES>  (491) 
[R1*]NCc1ccc(OC)cc1

>  <s_sd_BIOSOLVEIT.INFINISEE\_REAGENT2\_SMILES>  (491) 
[R2*]c1nc([R1*])c2c(n1)cccc2

>  <s_sd_BIOSOLVEIT.INFINISEE\_REAGENT3\_SMILES>  (491) 
[R2*]NCc1c(cc(F)cc1)CN(C)C

>  <s_sd_BIOSOLVEIT.INFINISEE\_SPACE>  (491) 
REALSpace_44bn_2023-08

>  <s_vsw_compound_code>  (491) 
51619

>  <s_vsw_variant>  (491) 
51619-2

>  <r_epik_Charging_Adjusted_Penalty>  (491) 
1.5949937469368001

>  <r_epik_Ionization_Penalty>  (491) 
1.5719000000000001

>  <r_epik_Ionization_Penalty_Charging>  (491) 
0.0167

>  <r_epik_Ionization_Penalty_Neutral>  (491) 
1.5551999999999999

>  <r_epik_State_Penalty>  (491) 
1.5783

>  <r_i_docking_score>  (491) 
-2.1615553702046602

>  <r_i_glide_ecoul>  (491) 
-5.5025496482849103

>  <r_i_glide_eff_state_penalty>  (491) 
1.5783

>  <r_i_glide_einternal>  (491) 
2.5367016792297399

>  <r_i_glide_emodel>  (491) 
-49.7809690158686

>  <r_i_glide_energy>  (491) 
-38.206902980804401

>  <r_i_glide_erotb>  (491) 
0.70271985211889498

>  <r_i_glide_esite>  (491) 
-0.00107866779557291

>  <r_i_glide_evdw>  (491) 
-32.704353332519503

>  <r_i_glide_gscore>  (491) 
-3.7398553702046602

>  <r_i_glide_hbond>  (491) 
0

>  <r_i_glide_ligand_efficiency>  (491) 
-0.065501677884989604

>  <r_i_glide_ligand_efficiency_ln>  (491) 
-0.48071872239878899

>  <r_i_glide_ligand_efficiency_sa>  (491) 
-0.21009888024356199

>  <r_i_glide_lipo>  (491) 
-1.3712733205019401

>  <r_i_glide_metal>  (491) 
-0

>  <r_i_glide_rewards>  (491) 
-0.609623120157328

>  <r_lp_Energy>  (491) 
21.363267

>  <r_lp_tautomer_probability>  (491) 
1

>  <r_qp_ACxDN^.5/SA>  (491) 
0.0118412

>  <r_qp_CIQPlogS>  (491) 
-6.1740000000000004

>  <r_qp_EA(eV)>  (491) 
0.73799999999999999

>  <r_qp_FISA>  (491) 
49.393000000000001

>  <r_qp_FOSA>  (491) 
290.13

>  <r_qp_IP(eV)>  (491) 
8.1869999999999994

>  <r_qp_Jm>  (491) 
0.139209069724853

>  <r_qp_PISA>  (491) 
323.84699999999998

>  <r_qp_PSA>  (491) 
53.421999999999997

>  <r_qp_PercentHumanOralAbsorption>  (491) 
100

>  <r_qp_QPPCaco>  (491) 
840.23800000000006

>  <r_qp_QPPMDCK>  (491) 
608.84199999999998

>  <r_qp_QPlogBB>  (491) 
0.025000000000000001

>  <r_qp_QPlogHERG>  (491) 
-6.1689999999999996

>  <r_qp_QPlogKhsa>  (491) 
0.71699999999999997

>  <r_qp_QPlogKp>  (491) 
-2.488

>  <r_qp_QPlogPC16>  (491) 
13.505000000000001

>  <r_qp_QPlogPo/w>  (491) 
4.7279999999999998

>  <r_qp_QPlogPoct>  (491) 
20.856999999999999

>  <r_qp_QPlogPw>  (491) 
10.526

>  <r_qp_QPlogS>  (491) 
-4.0179999999999998

>  <r_qp_QPpolrz>  (491) 
44.578000000000003

>  <r_qp_SASA>  (491) 
686.73500000000001

>  <r_qp_SAamideO>  (491) 
0

>  <r_qp_SAfluorine>  (491) 
23.364000000000001

>  <r_qp_WPSA>  (491) 
23.364000000000001

>  <r_qp_accptHB>  (491) 
5.75

>  <r_qp_dip^2/V>  (491) 
0.014144199999999999

>  <r_qp_dipole>  (491) 
4.3449999999999998

>  <r_qp_donorHB>  (491) 
2

>  <r_qp_glob>  (491) 
0.85372559999999997

>  <r_qp_mol_MW>  (491) 
445.53800000000001

>  <r_qp_volume>  (491) 
1334.7909999999999

>  <r_sd_BIOSOLVEIT.INFINISEE\_FTREES\_SIMILARITY>  (491) 
0.90600000000000003

>  <r_sd_BIOSOLVEIT.LOGP>  (491) 
3.6461999999999999

>  <r_sd_BIOSOLVEIT.MOLECULAR\_WEIGHT>  (491) 
446.54700000000003

>  <r_sd_BIOSOLVEIT.TPSA>  (491) 
63.509999999999998

>  <i_epik_Tot_Q>  (491) 
1

>  <i_epik_Tot_abs_Q>  (491) 
1

>  <i_f3d_flags>  (491) 
0

>  <i_i_glide_confnum>  (491) 
9

>  <i_i_glide_lignum>  (491) 
611

>  <i_i_glide_posenum>  (491) 
20

>  <i_i_glide_rotatable_bonds>  (491) 
9

>  <i_lp_mmshare_version>  (491) 
65135

>  <i_m_ct_format>  (491) 
2

>  <i_m_source_file_index>  (491) 
1614

>  <i_qp_#NandO>  (491) 
6

>  <i_qp_#acid>  (491) 
0

>  <i_qp_#amide>  (491) 
0

>  <i_qp_#amidine>  (491) 
0

>  <i_qp_#amine>  (491) 
1

>  <i_qp_#in34>  (491) 
0

>  <i_qp_#in56>  (491) 
22

>  <i_qp_#metab>  (491) 
5

>  <i_qp_#nonHatm>  (491) 
33

>  <i_qp_#noncon>  (491) 
0

>  <i_qp_#ringatoms>  (491) 
22

>  <i_qp_#rotor>  (491) 
9

>  <i_qp_#rtvFG>  (491) 
0

>  <i_qp_#stars>  (491) 
0

>  <i_qp_CNS>  (491) 
1

>  <i_qp_HumanOralAbsorption>  (491) 
3

>  <i_qp_RuleOfFive>  (491) 
0

>  <i_qp_RuleOfThree>  (491) 
0

>  <i_sd_BIOSOLVEIT.INFINISEE\_REAGENT1\_NAME>  (491) 
21930914

>  <i_sd_BIOSOLVEIT.INFINISEE\_REAGENT2\_NAME>  (491) 
22360182

>  <i_sd_BIOSOLVEIT.INFINISEE\_REAGENT3\_NAME>  (491) 
21974936

>  <i_sd_BIOSOLVEIT.INFINISEE\_RESULT\_RANK>  (491) 
66734

>  <i_sd_version>  (491) 
0

>  <b_lp_Chiralities_Consistent>  (491) 
1

>  <b_sd_chiral_flag>  (491) 
0

>  <canonical_id>  (491) 
ATP-HTVS-4D974321991D

>  <compound_code>  (491) 
51619

>  <title>  (491) 
m_282030aaa____21930914____22360182____21974936

>  <variant>  (491) 
51619-2

>  <source_file>  (491) 
运行/运行/ATP-VSW/ATP-VSW-DOCK_HTVS_1-003_lib/ATP-VSW-DOCK_HTVS_1-003_lib.mae

>  <canonical_smiles>  (491) 
COc1ccc(CNc2nc(NCc3ccc(F)cc3CN(C)C)c3ccccc3[nH+]2)cc1

>  <scaffold>  (491) 
c1ccc(CNc2nc(NCc3ccccc3)c3ccccc3[nH+]2)cc1

>  <molecular_formula>  (491) 
C26H29FN5O+

$$$$
ATP-HTVS-4DC88D9567D5
     RDKit          3D

 63 66  0  0  0  0  0  0  0  0999 V2000
  198.7964  180.9361  155.4712 O   0  0  0  0  0  0  0  0  0  0  0  0
  199.6161  181.4916  156.2006 C   0  0  0  0  0  0  0  0  0  0  0  0
  199.2975  182.2519  157.2631 N   0  0  0  0  0  0  0  0  0  0  0  0
  198.0276  182.6384  157.7789 C   0  0  0  0  0  0  0  0  0  0  0  0
  197.9649  183.7335  158.6958 C   0  0  0  0  0  0  0  0  0  0  0  0
  199.1295  184.4401  159.0906 N   0  0  0  0  0  0  0  0  0  0  0  0
  199.3527  185.7733  158.5065 C   0  0  1  0  0  0  0  0  0  0  0  0
  200.6027  186.3792  159.0116 C   0  0  0  0  0  0  0  0  0  0  0  0
  201.5836  186.8481  159.4101 N   0  0  0  0  0  0  0  0  0  0  0  0
  199.2395  185.8283  156.9877 C   0  0  0  0  0  0  0  0  0  0  0  0
  197.9643  185.8666  156.3756 C   0  0  0  0  0  0  0  0  0  0  0  0
  197.8492  185.8878  154.9745 C   0  0  0  0  0  0  0  0  0  0  0  0
  199.0056  185.9100  154.1733 C   0  0  0  0  0  0  0  0  0  0  0  0
  200.2774  185.8911  154.7768 C   0  0  0  0  0  0  0  0  0  0  0  0
  200.3947  185.8434  156.1768 C   0  0  0  0  0  0  0  0  0  0  0  0
  200.2401  183.6701  159.6515 C   0  0  2  0  0  0  0  0  0  0  0  0
  196.6873  184.1401  159.1839 C   0  0  0  0  0  0  0  0  0  0  0  0
  195.5260  183.4394  158.7520 C   0  0  0  0  0  0  0  0  0  0  0  0
  195.6482  182.3934  157.9079 N   0  0  0  0  0  0  0  0  0  0  0  0
  196.8334  181.9636  157.4280 C   0  0  0  0  0  0  0  0  0  0  0  0
  194.2507  183.8333  159.2040 C   0  0  0  0  0  0  0  0  0  0  0  0
  194.1156  184.9270  160.0798 C   0  0  0  0  0  0  0  0  0  0  0  0
  195.2510  185.6359  160.5031 C   0  0  0  0  0  0  0  0  0  0  0  0
  196.5293  185.2322  160.0775 C   0  0  0  0  0  0  0  0  0  0  0  0
  201.1041  181.3087  156.0043 C   0  0  0  0  0  0  0  0  0  0  0  0
  201.6723  180.0809  155.5462 C   0  0  0  0  0  0  0  0  0  0  0  0
  203.0759  179.9800  155.3879 C   0  0  0  0  0  0  0  0  0  0  0  0
  203.9210  181.0671  155.6703 C   0  0  0  0  0  0  0  0  0  0  0  0
  203.3690  182.2761  156.1202 C   0  0  0  0  0  0  0  0  0  0  0  0
  201.9758  182.3970  156.2745 C   0  0  0  0  0  0  0  0  0  0  0  0
  200.8411  178.8369  155.2368 C   0  0  1  0  0  0  0  0  0  0  0  0
  200.2052  178.2260  156.4346 N   0  0  2  0  0  0  0  0  0  0  0  0
  201.1378  177.9559  157.5539 C   0  0  2  0  0  0  0  0  0  0  0  0
  199.4314  177.0238  156.0711 C   0  0  2  0  0  0  0  0  0  0  0  0
  200.0840  182.6618  157.7490 H   0  0  0  0  0  0  0  0  0  0  0  0
  198.5930  186.4602  158.8703 H   0  0  0  0  0  0  0  0  0  0  0  0
  197.0627  185.8733  156.9722 H   0  0  0  0  0  0  0  0  0  0  0  0
  196.8701  185.9023  154.5140 H   0  0  0  0  0  0  0  0  0  0  0  0
  198.9162  185.9489  153.0986 H   0  0  0  0  0  0  0  0  0  0  0  0
  201.1695  185.9155  154.1682 H   0  0  0  0  0  0  0  0  0  0  0  0
  201.3811  185.8261  156.6205 H   0  0  0  0  0  0  0  0  0  0  0  0
  199.9413  182.6570  159.9265 H   0  0  0  0  0  0  0  0  0  0  0  0
  200.6389  184.1474  160.5461 H   0  0  0  0  0  0  0  0  0  0  0  0
  201.0552  183.5904  158.9318 H   0  0  0  0  0  0  0  0  0  0  0  0
  196.7612  181.0964  156.7848 H   0  0  0  0  0  0  0  0  0  0  0  0
  193.3694  183.3087  158.8651 H   0  0  0  0  0  0  0  0  0  0  0  0
  193.1358  185.2368  160.4127 H   0  0  0  0  0  0  0  0  0  0  0  0
  195.1423  186.4931  161.1534 H   0  0  0  0  0  0  0  0  0  0  0  0
  197.3743  185.7912  160.4506 H   0  0  0  0  0  0  0  0  0  0  0  0
  203.5234  179.0549  155.0572 H   0  0  0  0  0  0  0  0  0  0  0  0
  204.9913  180.9678  155.5411 H   0  0  0  0  0  0  0  0  0  0  0  0
  204.0157  183.1132  156.3337 H   0  0  0  0  0  0  0  0  0  0  0  0
  201.5953  183.3476  156.6173 H   0  0  0  0  0  0  0  0  0  0  0  0
  200.0930  179.0728  154.4804 H   0  0  0  0  0  0  0  0  0  0  0  0
  201.4832  178.0909  154.7710 H   0  0  0  0  0  0  0  0  0  0  0  0
  201.9266  177.2686  157.2480 H   0  0  0  0  0  0  0  0  0  0  0  0
  200.6063  177.5097  158.3962 H   0  0  0  0  0  0  0  0  0  0  0  0
  201.6053  178.8699  157.9209 H   0  0  0  0  0  0  0  0  0  0  0  0
  200.0736  176.2323  155.6802 H   0  0  0  0  0  0  0  0  0  0  0  0
  198.6992  177.2843  155.3075 H   0  0  0  0  0  0  0  0  0  0  0  0
  198.8972  176.6341  156.9311 H   0  0  0  0  0  0  0  0  0  0  0  0
  199.5135  178.8807  156.7778 H   0  0  0  0  0  0  0  0  0  0  0  0
  194.8052  181.9021  157.5941 H   0  0  0  0  0  0  0  0  0  0  0  0
  1  2  2  0
  2  3  1  0
  2 25  1  0
  3  4  1  0
  3 35  1  0
  4  5  2  0
  4 20  1  0
  5  6  1  0
  5 17  1  0
  6  7  1  0
  6 16  1  0
  7  8  1  0
  7 10  1  0
  7 36  1  1
  8  9  3  0
 10 11  2  0
 10 15  1  0
 11 12  1  0
 11 37  1  0
 12 13  2  0
 12 38  1  0
 13 14  1  0
 13 39  1  0
 14 15  2  0
 14 40  1  0
 15 41  1  0
 16 42  1  1
 16 43  1  0
 16 44  1  0
 17 18  1  0
 17 24  2  0
 18 19  1  0
 18 21  2  0
 19 20  2  0
 19 63  1  0
 20 45  1  0
 21 22  1  0
 21 46  1  0
 22 23  2  0
 22 47  1  0
 23 24  1  0
 23 48  1  0
 24 49  1  0
 25 26  1  0
 25 30  2  0
 26 27  2  0
 26 31  1  0
 27 28  1  0
 27 50  1  0
 28 29  2  0
 28 51  1  0
 29 30  1  0
 29 52  1  0
 30 53  1  0
 31 32  1  0
 31 54  1  6
 31 55  1  0
 32 33  1  0
 32 34  1  0
 32 62  1  1
 33 56  1  6
 33 57  1  0
 33 58  1  0
 34 59  1  6
 34 60  1  0
 34 61  1  0
M  CHG  2  19   1  32   1
M  END
>  <s_epik_cmdline>  (492) 
J2VwaWtfcHl0aG9uJywgJy1waCcsICc3LjAwMDAwMCcsICctcGh0JywgJzIuMDAwMDAwJywgJy1tcycsICcxNicsICctdG4nLCAnOCcsICctbWEnLCAnMjAwJywgJy1pbWFlJywgJzxpbmZpbGUubWFlPicsICctb21hZScsICc8b3V0ZmlsZS5tYWU+Jw==

>  <s_epik_input>  (492) 
W2NIXTFbY0hdW2NIXVtjSF1jKFtDSDJdTihbQ0gzXSlbQ0gzXSljMUMoPU8pW05IXWMoW2NIXW5jKGMyMylbY0hdW2NIXVtjSF1bY0hdMyljMk4oW0NIM10pW0NAQEhdKEMjTiljNFtjSF1bY0hdW2NIXVtjSF1bY0hdNA==

>  <s_i_glide_gridfile>  (492) 
ATP-Grid

>  <s_lp_Force_Field>  (492) 
OPLS_2005

>  <s_lp_Variant>  (492) 
rxn502b____EMOL5415347____EMOL30488121____EMOL24630243-1

>  <s_lp_label>  (492) 
2188_sdstereoexpander_1_neutralizer_1_epik_1_stereoizer_1

>  <s_m_source_file>  (492) 
ATP-VSW-LIGPREP-002-in.maegz

>  <s_sd_BIOSOLVEIT.INFINISEE\_QUERY\_NAME>  (492) 
Ref-Lig

>  <s_sd_BIOSOLVEIT.INFINISEE\_QUERY\_SMILES>  (492) 
S(c1nc2c(cc1C[NH2+]Cc3ccc(cc3)C[NH+](C)C)cccc2)Cc4ccccc4

>  <s_sd_BIOSOLVEIT.INFINISEE\_REACTION\_NAME>  (492) 
rxn502b

>  <s_sd_BIOSOLVEIT.INFINISEE\_REAGENT1\_NAME>  (492) 
EMOL5415347

>  <s_sd_BIOSOLVEIT.INFINISEE\_REAGENT1\_SMILES>  (492) 
O=C(O)c1c(cccc1)CN(C)C

>  <s_sd_BIOSOLVEIT.INFINISEE\_REAGENT2\_NAME>  (492) 
EMOL30488121

>  <s_sd_BIOSOLVEIT.INFINISEE\_REAGENT2\_SMILES>  (492) 
Brc1c(N)cnc2c1cccc2

>  <s_sd_BIOSOLVEIT.INFINISEE\_REAGENT3\_NAME>  (492) 
EMOL24630243

>  <s_sd_BIOSOLVEIT.INFINISEE\_REAGENT3\_SMILES>  (492) 
N#CC(NC)c1ccccc1

>  <s_sd_BIOSOLVEIT.INFINISEE\_SPACE>  (492) 
eXplore_7tr_2022-12

>  <s_vsw_compound_code>  (492) 
69986

>  <s_vsw_variant>  (492) 
69986-1

>  <r_epik_Charging_Adjusted_Penalty>  (492) 
0.37214195120601201

>  <r_epik_Ionization_Penalty>  (492) 
0.18609999999999999

>  <r_epik_Ionization_Penalty_Charging>  (492) 
0.18590000000000001

>  <r_epik_Ionization_Penalty_Neutral>  (492) 
0.00020000000000000001

>  <r_epik_State_Penalty>  (492) 
0.1862

>  <r_i_docking_score>  (492) 
-4.57272995839587

>  <r_i_glide_ecoul>  (492) 
-8.8001337051391602

>  <r_i_glide_eff_state_penalty>  (492) 
0.1862

>  <r_i_glide_einternal>  (492) 
2.6181976795196502

>  <r_i_glide_emodel>  (492) 
-57.649067115949002

>  <r_i_glide_energy>  (492) 
-39.069481849670403

>  <r_i_glide_erotb>  (492) 
0.68857471245351898

>  <r_i_glide_esite>  (492) 
-0.137144681041526

>  <r_i_glide_evdw>  (492) 
-30.2693481445312

>  <r_i_glide_gscore>  (492) 
-4.7589299583958704

>  <r_i_glide_hbond>  (492) 
0

>  <r_i_glide_ligand_efficiency>  (492) 
-0.13449205759987801

>  <r_i_glide_ligand_efficiency_ln>  (492) 
-1.0102443085405

>  <r_i_glide_ligand_efficiency_sa>  (492) 
-0.43570205646651

>  <r_i_glide_lipo>  (492) 
-1.5821452094956701

>  <r_i_glide_metal>  (492) 
-0

>  <r_i_glide_rewards>  (492) 
-0.89472731731475397

>  <r_lp_Energy>  (492) 
44.755747

>  <r_qp_ACxDN^.5/SA>  (492) 
0.0113238

>  <r_qp_CIQPlogS>  (492) 
-6.4109999999999996

>  <r_qp_EA(eV)>  (492) 
1.141

>  <r_qp_FISA>  (492) 
96.388000000000005

>  <r_qp_FOSA>  (492) 
199.59399999999999

>  <r_qp_IP(eV)>  (492) 
8.6639999999999997

>  <r_qp_Jm>  (492) 
0.0076526293908456798

>  <r_qp_PISA>  (492) 
410.49599999999998

>  <r_qp_PSA>  (492) 
69.278000000000006

>  <r_qp_PercentHumanOralAbsorption>  (492) 
93.808000000000007

>  <r_qp_QPPCaco>  (492) 
301.13200000000001

>  <r_qp_QPPMDCK>  (492) 
149.56399999999999

>  <r_qp_QPlogBB>  (492) 
-0.41899999999999998

>  <r_qp_QPlogHERG>  (492) 
-6.7169999999999996

>  <r_qp_QPlogKhsa>  (492) 
0.42899999999999999

>  <r_qp_QPlogKp>  (492) 
-3.1440000000000001

>  <r_qp_QPlogPC16>  (492) 
14.707000000000001

>  <r_qp_QPlogPo/w>  (492) 
3.8420000000000001

>  <r_qp_QPlogPoct>  (492) 
21.815999999999999

>  <r_qp_QPlogPw>  (492) 
12.446999999999999

>  <r_qp_QPlogS>  (492) 
-4.625

>  <r_qp_QPpolrz>  (492) 
47.555999999999997

>  <r_qp_SASA>  (492) 
706.47799999999995

>  <r_qp_SAamideO>  (492) 
0

>  <r_qp_SAfluorine>  (492) 
0

>  <r_qp_WPSA>  (492) 
0

>  <r_qp_accptHB>  (492) 
8

>  <r_qp_dip^2/V>  (492) 
0.0054279999999999997

>  <r_qp_dipole>  (492) 
2.7290000000000001

>  <r_qp_donorHB>  (492) 
1

>  <r_qp_glob>  (492) 
0.84541880000000003

>  <r_qp_mol_MW>  (492) 
449.55399999999997

>  <r_qp_volume>  (492) 
1372.4870000000001

>  <r_sd_BIOSOLVEIT.INFINISEE\_FTREES\_SIMILARITY>  (492) 
0.93500000000000005

>  <r_sd_BIOSOLVEIT.LOGP>  (492) 
3.8326799999999999

>  <r_sd_BIOSOLVEIT.MOLECULAR\_WEIGHT>  (492) 
450.56299999999999

>  <r_sd_BIOSOLVEIT.TPSA>  (492) 
73.459999999999994

>  <i_epik_Tot_Q>  (492) 
2

>  <i_epik_Tot_abs_Q>  (492) 
2

>  <i_f3d_flags>  (492) 
0

>  <i_i_glide_confnum>  (492) 
5

>  <i_i_glide_lignum>  (492) 
816

>  <i_i_glide_posenum>  (492) 
2

>  <i_i_glide_rotatable_bonds>  (492) 
8

>  <i_lp_mmshare_version>  (492) 
65135

>  <i_m_ct_format>  (492) 
2

>  <i_m_source_file_index>  (492) 
2188

>  <i_qp_#NandO>  (492) 
6

>  <i_qp_#acid>  (492) 
0

>  <i_qp_#amide>  (492) 
0

>  <i_qp_#amidine>  (492) 
0

>  <i_qp_#amine>  (492) 
1

>  <i_qp_#in34>  (492) 
0

>  <i_qp_#in56>  (492) 
22

>  <i_qp_#metab>  (492) 
6

>  <i_qp_#nonHatm>  (492) 
34

>  <i_qp_#noncon>  (492) 
0

>  <i_qp_#ringatoms>  (492) 
22

>  <i_qp_#rotor>  (492) 
8

>  <i_qp_#rtvFG>  (492) 
0

>  <i_qp_#stars>  (492) 
0

>  <i_qp_CNS>  (492) 
1

>  <i_qp_HumanOralAbsorption>  (492) 
3

>  <i_qp_RuleOfFive>  (492) 
0

>  <i_qp_RuleOfThree>  (492) 
0

>  <i_sd_BIOSOLVEIT.INFINISEE\_RESULT\_RANK>  (492) 
2598

>  <i_sd_version>  (492) 
0

>  <b_lp_Chiralities_Consistent>  (492) 
1

>  <b_sd_chiral_flag>  (492) 
0

>  <canonical_id>  (492) 
ATP-HTVS-4DC88D9567D5

>  <compound_code>  (492) 
69986

>  <title>  (492) 
rxn502b____EMOL5415347____EMOL30488121____EMOL24630243

>  <variant>  (492) 
69986-1

>  <source_file>  (492) 
运行/运行/ATP-VSW/ATP-VSW-DOCK_HTVS_1-002_lib.maegz

>  <canonical_smiles>  (492) 
CN(c1c(NC(=O)c2ccccc2C[NH+](C)C)c[nH+]c2ccccc12)[C@@H](C#N)c1ccccc1

>  <scaffold>  (492) 
O=C(Nc1c[nH+]c2ccccc2c1NCc1ccccc1)c1ccccc1

>  <molecular_formula>  (492) 
C28H29N5O+2

$$$$
ATP-HTVS-4DE86EAA2D32
     RDKit          3D

 65 68  0  0  0  0  0  0  0  0999 V2000
  197.5410  181.9405  153.3526 O   0  0  0  0  0  0  0  0  0  0  0  0
  198.5903  181.0746  153.1809 N   0  0  0  0  0  0  0  0  0  0  0  0
  198.7766  179.9382  153.8906 C   0  0  0  0  0  0  0  0  0  0  0  0
  199.8709  179.3697  153.3500 N   0  0  0  0  0  0  0  0  0  0  0  0
  200.4374  180.1633  152.3807 C   0  0  0  0  0  0  0  0  0  0  0  0
  199.6218  181.2708  152.3059 C   0  0  0  0  0  0  0  0  0  0  0  0
  197.9934  179.4385  155.0897 C   0  0  1  0  0  0  0  0  0  0  0  0
  198.5661  178.2564  155.7313 N   0  0  0  0  0  0  0  0  0  0  0  0
  199.9907  178.3034  156.0122 C   0  0  1  0  0  0  0  0  0  0  0  0
  200.6034  176.9532  155.6872 C   0  0  0  0  0  0  0  0  0  0  0  0
  201.4469  176.3662  156.6471 C   0  0  0  0  0  0  0  0  0  0  0  0
  202.0536  175.1115  156.4225 C   0  0  0  0  0  0  0  0  0  0  0  0
  201.7879  174.4073  155.2280 C   0  0  0  0  0  0  0  0  0  0  0  0
  200.9300  174.9850  154.2662 C   0  0  0  0  0  0  0  0  0  0  0  0
  200.3705  176.2609  154.4690 C   0  0  0  0  0  0  0  0  0  0  0  0
  202.4158  173.0432  154.9872 C   0  0  1  0  0  0  0  0  0  0  0  0
  203.4047  173.0290  153.8736 N   0  0  2  0  0  0  0  0  0  0  0  0
  204.5865  173.8839  154.1520 C   0  0  2  0  0  0  0  0  0  0  0  0
  202.8405  173.3183  152.5278 C   0  0  2  0  0  0  0  0  0  0  0  0
  197.7408  180.5039  156.0958 C   0  0  0  0  0  0  0  0  0  0  0  0
  197.4948  181.3431  156.9001 C   0  0  0  0  0  0  0  0  0  0  0  0
  197.1791  182.3938  157.8843 C   0  0  0  0  0  0  0  0  0  0  0  0
  195.8745  182.5383  158.3882 C   0  0  0  0  0  0  0  0  0  0  0  0
  195.6297  183.5539  159.3332 C   0  0  0  0  0  0  0  0  0  0  0  0
  196.5857  184.3953  159.7816 N   0  0  0  0  0  0  0  0  0  0  0  0
  197.8343  184.2499  159.2903 C   0  0  0  0  0  0  0  0  0  0  0  0
  198.1835  183.2682  158.3401 C   0  0  0  0  0  0  0  0  0  0  0  0
  196.5375  181.7184  152.3715 C   0  0  1  0  0  0  0  0  0  0  0  0
  196.8504  182.4366  151.0717 C   0  0  0  0  0  0  0  0  0  0  0  0
  197.7014  181.8461  150.1126 C   0  0  0  0  0  0  0  0  0  0  0  0
  198.0630  182.5428  148.9474 C   0  0  0  0  0  0  0  0  0  0  0  0
  197.5263  183.8199  148.7062 C   0  0  0  0  0  0  0  0  0  0  0  0
  196.6505  184.4036  149.6442 C   0  0  0  0  0  0  0  0  0  0  0  0
  196.3249  183.7211  150.8342 C   0  0  0  0  0  0  0  0  0  0  0  0
  198.0648  178.1474  156.6353 H   0  0  0  0  0  0  0  0  0  0  0  0
  201.3392  179.9057  151.8961 H   0  0  0  0  0  0  0  0  0  0  0  0
  199.7225  182.1600  151.6810 H   0  0  0  0  0  0  0  0  0  0  0  0
  197.0121  179.1852  154.6928 H   0  0  0  0  0  0  0  0  0  0  0  0
  200.5542  178.9866  155.4140 H   0  0  0  0  0  0  0  0  0  0  0  0
  200.1709  178.6037  157.0419 H   0  0  0  0  0  0  0  0  0  0  0  0
  201.6157  176.9101  157.5677 H   0  0  0  0  0  0  0  0  0  0  0  0
  202.6795  174.7006  157.2083 H   0  0  0  0  0  0  0  0  0  0  0  0
  200.6418  174.4394  153.3743 H   0  0  0  0  0  0  0  0  0  0  0  0
  199.7444  176.6587  153.6803 H   0  0  0  0  0  0  0  0  0  0  0  0
  202.9165  172.7159  155.9044 H   0  0  0  0  0  0  0  0  0  0  0  0
  201.6320  172.3121  154.8043 H   0  0  0  0  0  0  0  0  0  0  0  0
  204.2999  174.9353  154.2468 H   0  0  0  0  0  0  0  0  0  0  0  0
  205.3116  173.8110  153.3387 H   0  0  0  0  0  0  0  0  0  0  0  0
  205.0828  173.5841  155.0755 H   0  0  0  0  0  0  0  0  0  0  0  0
  202.5038  174.3447  152.4466 H   0  0  0  0  0  0  0  0  0  0  0  0
  202.0062  172.6421  152.3253 H   0  0  0  0  0  0  0  0  0  0  0  0
  203.5911  173.2026  151.7425 H   0  0  0  0  0  0  0  0  0  0  0  0
  195.0778  181.8830  158.0617 H   0  0  0  0  0  0  0  0  0  0  0  0
  194.6391  183.6917  159.7421 H   0  0  0  0  0  0  0  0  0  0  0  0
  198.5816  184.9353  159.6622 H   0  0  0  0  0  0  0  0  0  0  0  0
  199.2006  183.1895  157.9822 H   0  0  0  0  0  0  0  0  0  0  0  0
  196.3930  180.6525  152.1817 H   0  0  0  0  0  0  0  0  0  0  0  0
  195.5865  182.0897  152.7568 H   0  0  0  0  0  0  0  0  0  0  0  0
  198.1208  180.8639  150.2780 H   0  0  0  0  0  0  0  0  0  0  0  0
  198.7580  182.0956  148.2496 H   0  0  0  0  0  0  0  0  0  0  0  0
  197.7710  184.3403  147.7910 H   0  0  0  0  0  0  0  0  0  0  0  0
  196.2169  185.3708  149.4385 H   0  0  0  0  0  0  0  0  0  0  0  0
  195.6667  184.1758  151.5632 H   0  0  0  0  0  0  0  0  0  0  0  0
  203.7180  172.0610  153.8440 H   0  0  0  0  0  0  0  0  0  0  0  0
  200.2929  178.5126  153.7240 H   0  0  0  0  0  0  0  0  0  0  0  0
  1  2  1  0
  1 28  1  0
  2  3  1  0
  2  6  1  0
  3  4  2  0
  3  7  1  0
  4  5  1  0
  4 65  1  0
  5  6  2  0
  5 36  1  0
  6 37  1  0
  7  8  1  0
  7 20  1  0
  7 38  1  6
  8  9  1  0
  8 35  1  0
  9 10  1  0
  9 39  1  6
  9 40  1  0
 10 11  1  0
 10 15  2  0
 11 12  2  0
 11 41  1  0
 12 13  1  0
 12 42  1  0
 13 14  2  0
 13 16  1  0
 14 15  1  0
 14 43  1  0
 15 44  1  0
 16 17  1  0
 16 45  1  1
 16 46  1  0
 17 18  1  0
 17 19  1  0
 17 64  1  6
 18 47  1  1
 18 48  1  0
 18 49  1  0
 19 50  1  1
 19 51  1  0
 19 52  1  0
 20 21  3  0
 21 22  1  0
 22 23  2  0
 22 27  1  0
 23 24  1  0
 23 53  1  0
 24 25  2  0
 24 54  1  0
 25 26  1  0
 26 27  2  0
 26 55  1  0
 27 56  1  0
 28 29  1  0
 28 57  1  6
 28 58  1  0
 29 30  2  0
 29 34  1  0
 30 31  1  0
 30 59  1  0
 31 32  2  0
 31 60  1  0
 32 33  1  0
 32 61  1  0
 33 34  2  0
 33 62  1  0
 34 63  1  0
M  CHG  2   4   1  17   1
M  END
>  <s_epik_cmdline>  (493) 
J2VwaWtfcHl0aG9uJywgJy1waCcsICc3LjAwMDAwMCcsICctcGh0JywgJzIuMDAwMDAwJywgJy1tcycsICcxNicsICctdG4nLCAnOCcsICctbWEnLCAnMjAwJywgJy1pbWFlJywgJzxpbmZpbGUubWFlPicsICctb21hZScsICc8b3V0ZmlsZS5tYWU+Jw==

>  <s_epik_input>  (493) 
W2NIXTFbY0hdW2NIXVtjSF1bY0hdYzFbQ0gyXU9uMmMobltjSF1bY0hdMilbQ0BIXShDI0NjM1tjSF1bY0hdbltjSF1bY0hdMylbTkhdW0NIMl1jNFtjSF1bY0hdYyhbY0hdW2NIXTQpW0NIMl1OKFtDSDNdKVtDSDNd

>  <s_i_glide_gridfile>  (493) 
ATP-Grid

>  <s_lp_Force_Field>  (493) 
OPLS_2005

>  <s_lp_Variant>  (493) 
rxn403____EMOL50155899____EMOL4867949____EMOL517880-2

>  <s_lp_label>  (493) 
2377_sdstereoexpander_2_neutralizer_1_epik_1_stereoizer_1

>  <s_m_source_file>  (493) 
ATP-VSW-LIGPREP-002-in.maegz

>  <s_sd_BIOSOLVEIT.INFINISEE\_QUERY\_NAME>  (493) 
Ref-Lig

>  <s_sd_BIOSOLVEIT.INFINISEE\_QUERY\_SMILES>  (493) 
S(c1nc2c(cc1C[NH2+]Cc3ccc(cc3)C[NH+](C)C)cccc2)Cc4ccccc4

>  <s_sd_BIOSOLVEIT.INFINISEE\_REACTION\_NAME>  (493) 
rxn403

>  <s_sd_BIOSOLVEIT.INFINISEE\_REAGENT1\_NAME>  (493) 
EMOL50155899

>  <s_sd_BIOSOLVEIT.INFINISEE\_REAGENT1\_SMILES>  (493) 
N(Cc1ccc(cc1)CN)(C)C

>  <s_sd_BIOSOLVEIT.INFINISEE\_REAGENT2\_NAME>  (493) 
EMOL4867949

>  <s_sd_BIOSOLVEIT.INFINISEE\_REAGENT2\_SMILES>  (493) 
O=CC1=NC=CN1OCc2ccccc2

>  <s_sd_BIOSOLVEIT.INFINISEE\_REAGENT3\_NAME>  (493) 
EMOL517880

>  <s_sd_BIOSOLVEIT.INFINISEE\_REAGENT3\_SMILES>  (493) 
n1ccc(C#C)cc1

>  <s_sd_BIOSOLVEIT.INFINISEE\_SPACE>  (493) 
eXplore_7tr_2022-12

>  <s_vsw_compound_code>  (493) 
76034

>  <s_vsw_variant>  (493) 
76034-2

>  <r_epik_Charging_Adjusted_Penalty>  (493) 
0.46222728777016198

>  <r_epik_Ionization_Penalty>  (493) 
0.4385

>  <r_epik_Ionization_Penalty_Charging>  (493) 
0.043900000000000002

>  <r_epik_Ionization_Penalty_Neutral>  (493) 
0.39460000000000001

>  <r_epik_State_Penalty>  (493) 
0.41839999999999999

>  <r_i_docking_score>  (493) 
-5.4090444260251802

>  <r_i_glide_ecoul>  (493) 
-13.9478511810303

>  <r_i_glide_eff_state_penalty>  (493) 
0.41839999999999999

>  <r_i_glide_einternal>  (493) 
7.4873943328857404

>  <r_i_glide_emodel>  (493) 
-71.751966441894794

>  <r_i_glide_energy>  (493) 
-49.552556991577099

>  <r_i_glide_erotb>  (493) 
0.87816611409644896

>  <r_i_glide_esite>  (493) 
-0.107306470603379

>  <r_i_glide_evdw>  (493) 
-35.604705810546903

>  <r_i_glide_gscore>  (493) 
-5.8274444260251803

>  <r_i_glide_hbond>  (493) 
-0.35900186459707201

>  <r_i_glide_ligand_efficiency>  (493) 
-0.15908954194191699

>  <r_i_glide_ligand_efficiency_ln>  (493) 
-1.1950096322660599

>  <r_i_glide_ligand_efficiency_sa>  (493) 
-0.51538835692904805

>  <r_i_glide_lipo>  (493) 
-1.8253799645120199

>  <r_i_glide_metal>  (493) 
-0

>  <r_i_glide_rewards>  (493) 
-0.54150927272727101

>  <r_lp_Energy>  (493) 
20.664445000000001

>  <r_lp_tautomer_probability>  (493) 
1

>  <r_qp_ACxDN^.5/SA>  (493) 
0.0097870000000000006

>  <r_qp_CIQPlogS>  (493) 
-4.1769999999999996

>  <r_qp_EA(eV)>  (493) 
0.34799999999999998

>  <r_qp_FISA>  (493) 
67.778000000000006

>  <r_qp_FOSA>  (493) 
211.851

>  <r_qp_IP(eV)>  (493) 
9.0199999999999996

>  <r_qp_Jm>  (493) 
0.00128613761710441

>  <r_qp_PISA>  (493) 
609.30600000000004

>  <r_qp_PSA>  (493) 
55.683999999999997

>  <r_qp_PercentHumanOralAbsorption>  (493) 
92.367999999999995

>  <r_qp_QPPCaco>  (493) 
140.26900000000001

>  <r_qp_QPPMDCK>  (493) 
72.456000000000003

>  <r_qp_QPlogBB>  (493) 
-0.14099999999999999

>  <r_qp_QPlogHERG>  (493) 
-10.191000000000001

>  <r_qp_QPlogKhsa>  (493) 
0.61499999999999999

>  <r_qp_QPlogKp>  (493) 
-3.6909999999999998

>  <r_qp_QPlogPC16>  (493) 
18.309000000000001

>  <r_qp_QPlogPo/w>  (493) 
4.6109999999999998

>  <r_qp_QPlogPoct>  (493) 
24.815999999999999

>  <r_qp_QPlogPw>  (493) 
14.071999999999999

>  <r_qp_QPlogS>  (493) 
-4.8540000000000001

>  <r_qp_QPpolrz>  (493) 
55.341999999999999

>  <r_qp_SASA>  (493) 
888.93499999999995

>  <r_qp_SAamideO>  (493) 
0

>  <r_qp_SAfluorine>  (493) 
0

>  <r_qp_WPSA>  (493) 
0

>  <r_qp_accptHB>  (493) 
8.6999999999999993

>  <r_qp_dip^2/V>  (493) 
0.027402599999999999

>  <r_qp_dipole>  (493) 
6.5540000000000003

>  <r_qp_donorHB>  (493) 
1

>  <r_qp_glob>  (493) 
0.73418640000000002

>  <r_qp_mol_MW>  (493) 
451.56999999999999

>  <r_qp_volume>  (493) 
1567.7139999999999

>  <r_sd_BIOSOLVEIT.INFINISEE\_FTREES\_SIMILARITY>  (493) 
0.91900000000000004

>  <r_sd_BIOSOLVEIT.LOGP>  (493) 
1.4077999999999999

>  <r_sd_BIOSOLVEIT.MOLECULAR\_WEIGHT>  (493) 
453.58699999999999

>  <r_sd_BIOSOLVEIT.TPSA>  (493) 
60.990000000000002

>  <i_epik_Tot_Q>  (493) 
2

>  <i_epik_Tot_abs_Q>  (493) 
2

>  <i_f3d_flags>  (493) 
0

>  <i_i_glide_confnum>  (493) 
6

>  <i_i_glide_lignum>  (493) 
982

>  <i_i_glide_posenum>  (493) 
9

>  <i_i_glide_rotatable_bonds>  (493) 
11

>  <i_lp_mmshare_version>  (493) 
65135

>  <i_m_ct_format>  (493) 
2

>  <i_m_source_file_index>  (493) 
2377

>  <i_qp_#NandO>  (493) 
6

>  <i_qp_#acid>  (493) 
0

>  <i_qp_#amide>  (493) 
0

>  <i_qp_#amidine>  (493) 
0

>  <i_qp_#amine>  (493) 
2

>  <i_qp_#in34>  (493) 
0

>  <i_qp_#in56>  (493) 
23

>  <i_qp_#metab>  (493) 
8

>  <i_qp_#nonHatm>  (493) 
34

>  <i_qp_#noncon>  (493) 
0

>  <i_qp_#ringatoms>  (493) 
23

>  <i_qp_#rotor>  (493) 
11

>  <i_qp_#rtvFG>  (493) 
1

>  <i_qp_#stars>  (493) 
3

>  <i_qp_CNS>  (493) 
1

>  <i_qp_HumanOralAbsorption>  (493) 
3

>  <i_qp_RuleOfFive>  (493) 
0

>  <i_qp_RuleOfThree>  (493) 
1

>  <i_sd_BIOSOLVEIT.INFINISEE\_RESULT\_RANK>  (493) 
18221

>  <i_sd_version>  (493) 
0

>  <b_lp_Chiralities_Consistent>  (493) 
1

>  <b_sd_chiral_flag>  (493) 
0

>  <canonical_id>  (493) 
ATP-HTVS-4DE86EAA2D32

>  <compound_code>  (493) 
76034

>  <title>  (493) 
rxn403____EMOL50155899____EMOL4867949____EMOL517880

>  <variant>  (493) 
76034-2

>  <source_file>  (493) 
运行/运行/ATP-VSW/ATP-VSW-DOCK_HTVS_1-002_lib.maegz

>  <canonical_smiles>  (493) 
C[NH+](C)Cc1ccc(CN[C@@H](C#Cc2ccncc2)c2[nH+]ccn2OCc2ccccc2)cc1

>  <scaffold>  (493) 
C(#CC(NCc1ccccc1)c1[nH+]ccn1OCc1ccccc1)c1ccncc1

>  <molecular_formula>  (493) 
C28H31N5O+2

$$$$
ATP-HTVS-4E16F03E37A9
     RDKit          3D

 66 69  0  0  0  0  0  0  0  0999 V2000
  200.1190  178.1499  152.1662 S   0  0  0  0  0  0  0  0  0  0  0  0
  198.6524  178.8633  151.5491 C   0  0  0  0  0  0  0  0  0  0  0  0
  197.9274  179.5488  152.5856 C   0  0  0  0  0  0  0  0  0  0  0  0
  196.7160  180.1626  152.1422 C   0  0  0  0  0  0  0  0  0  0  0  0
  196.2732  180.1177  150.7994 C   0  0  0  0  0  0  0  0  0  0  0  0
  197.0106  179.4332  149.8304 C   0  0  0  0  0  0  0  0  0  0  0  0
  198.2054  178.7984  150.2068 C   0  0  0  0  0  0  0  0  0  0  0  0
  198.6219  179.4470  153.8810 C   0  0  0  0  0  0  0  0  0  0  0  0
  198.1905  180.0160  155.1007 N   0  0  0  0  0  0  0  0  0  0  0  0
  196.9541  180.7423  155.3312 C   0  0  1  0  0  0  0  0  0  0  0  0
  197.1103  181.9637  156.1955 C   0  0  0  0  0  0  0  0  0  0  0  0
  197.2083  181.8278  157.5856 C   0  0  0  0  0  0  0  0  0  0  0  0
  197.3567  182.9829  158.3832 C   0  0  0  0  0  0  0  0  0  0  0  0
  197.3992  184.2630  157.7845 C   0  0  0  0  0  0  0  0  0  0  0  0
  197.3090  184.3878  156.3811 C   0  0  0  0  0  0  0  0  0  0  0  0
  197.1654  183.2337  155.5928 C   0  0  0  0  0  0  0  0  0  0  0  0
  197.5432  185.5044  158.6477 C   0  0  1  0  0  0  0  0  0  0  0  0
  196.2321  186.0743  159.0476 N   0  0  2  0  0  0  0  0  0  0  0  0
  196.4001  187.3620  159.7567 C   0  0  2  0  0  0  0  0  0  0  0  0
  195.3732  185.1364  159.8112 C   0  0  2  0  0  0  0  0  0  0  0  0
  199.7977  178.7285  153.7748 C   0  0  0  0  0  0  0  0  0  0  0  0
  200.8094  178.4382  154.8572 C   0  0  1  0  0  0  0  0  0  0  0  0
  200.9959  177.0127  155.1270 N   0  0  0  0  0  0  0  0  0  0  0  0
  201.9878  176.2753  154.5517 C   0  0  0  0  0  0  0  0  0  0  0  0
  202.7674  176.8043  153.7475 O   0  0  0  0  0  0  0  0  0  0  0  0
  202.1730  174.7777  154.8957 C   0  0  2  0  0  0  0  0  0  0  0  0
  203.3193  174.6080  155.7002 O   0  0  0  0  0  0  0  0  0  0  0  0
  202.2216  173.9141  153.6393 C   0  0  0  0  0  0  0  0  0  0  0  0
  203.3735  173.9172  152.8220 C   0  0  0  0  0  0  0  0  0  0  0  0
  203.4300  173.1113  151.6673 C   0  0  0  0  0  0  0  0  0  0  0  0
  202.3357  172.2915  151.3270 C   0  0  0  0  0  0  0  0  0  0  0  0
  201.1889  172.2784  152.1424 C   0  0  0  0  0  0  0  0  0  0  0  0
  201.1311  173.0854  153.2925 C   0  0  0  0  0  0  0  0  0  0  0  0
  200.0548  176.4592  156.1043 C   0  0  2  0  0  0  0  0  0  0  0  0
  196.0494  180.6994  152.8089 H   0  0  0  0  0  0  0  0  0  0  0  0
  195.3553  180.6157  150.5352 H   0  0  0  0  0  0  0  0  0  0  0  0
  196.6637  179.3913  148.8073 H   0  0  0  0  0  0  0  0  0  0  0  0
  198.7950  178.2582  149.4722 H   0  0  0  0  0  0  0  0  0  0  0  0
  198.6261  179.6774  155.9439 H   0  0  0  0  0  0  0  0  0  0  0  0
  196.5266  181.1652  154.4026 H   0  0  0  0  0  0  0  0  0  0  0  0
  196.2039  180.0646  155.7389 H   0  0  0  0  0  0  0  0  0  0  0  0
  197.1555  180.8584  158.0450 H   0  0  0  0  0  0  0  0  0  0  0  0
  197.4170  182.8725  159.4590 H   0  0  0  0  0  0  0  0  0  0  0  0
  197.3342  185.3560  155.8965 H   0  0  0  0  0  0  0  0  0  0  0  0
  197.0784  183.3297  154.5200 H   0  0  0  0  0  0  0  0  0  0  0  0
  198.1377  185.2530  159.5244 H   0  0  0  0  0  0  0  0  0  0  0  0
  198.1114  186.2485  158.0844 H   0  0  0  0  0  0  0  0  0  0  0  0
  196.9440  187.2264  160.6927 H   0  0  0  0  0  0  0  0  0  0  0  0
  195.4338  187.8038  159.9953 H   0  0  0  0  0  0  0  0  0  0  0  0
  196.9495  188.0802  159.1462 H   0  0  0  0  0  0  0  0  0  0  0  0
  195.8661  184.8168  160.7308 H   0  0  0  0  0  0  0  0  0  0  0  0
  195.1238  184.2499  159.2290 H   0  0  0  0  0  0  0  0  0  0  0  0
  194.4225  185.6044  160.0724 H   0  0  0  0  0  0  0  0  0  0  0  0
  201.7631  178.9211  154.6032 H   0  0  0  0  0  0  0  0  0  0  0  0
  200.5219  178.9162  155.7896 H   0  0  0  0  0  0  0  0  0  0  0  0
  201.3632  174.3617  155.5036 H   0  0  0  0  0  0  0  0  0  0  0  0
  203.3406  173.7027  155.9786 H   0  0  0  0  0  0  0  0  0  0  0  0
  204.2136  174.5431  153.0807 H   0  0  0  0  0  0  0  0  0  0  0  0
  204.3125  173.1250  151.0466 H   0  0  0  0  0  0  0  0  0  0  0  0
  202.3804  171.6727  150.4441 H   0  0  0  0  0  0  0  0  0  0  0  0
  200.3547  171.6386  151.8886 H   0  0  0  0  0  0  0  0  0  0  0  0
  200.2475  173.0507  153.9145 H   0  0  0  0  0  0  0  0  0  0  0  0
  199.6187  175.5412  155.7362 H   0  0  0  0  0  0  0  0  0  0  0  0
  199.2094  177.1308  156.2916 H   0  0  0  0  0  0  0  0  0  0  0  0
  200.5683  176.2765  157.0477 H   0  0  0  0  0  0  0  0  0  0  0  0
  195.7382  186.2694  158.1875 H   0  0  0  0  0  0  0  0  0  0  0  0
  1  2  1  0
  1 21  1  0
  2  3  1  0
  2  7  2  0
  3  4  2  0
  3  8  1  0
  4  5  1  0
  4 35  1  0
  5  6  2  0
  5 36  1  0
  6  7  1  0
  6 37  1  0
  7 38  1  0
  8  9  1  0
  8 21  2  0
  9 10  1  0
  9 39  1  0
 10 11  1  0
 10 40  1  6
 10 41  1  0
 11 12  1  0
 11 16  2  0
 12 13  2  0
 12 42  1  0
 13 14  1  0
 13 43  1  0
 14 15  2  0
 14 17  1  0
 15 16  1  0
 15 44  1  0
 16 45  1  0
 17 18  1  0
 17 46  1  1
 17 47  1  0
 18 19  1  0
 18 20  1  0
 18 66  1  6
 19 48  1  1
 19 49  1  0
 19 50  1  0
 20 51  1  1
 20 52  1  0
 20 53  1  0
 21 22  1  0
 22 23  1  0
 22 54  1  6
 22 55  1  0
 23 24  1  0
 23 34  1  0
 24 25  2  0
 24 26  1  0
 26 27  1  0
 26 28  1  0
 26 56  1  1
 27 57  1  0
 28 29  2  0
 28 33  1  0
 29 30  1  0
 29 58  1  0
 30 31  2  0
 30 59  1  0
 31 32  1  0
 31 60  1  0
 32 33  2  0
 32 61  1  0
 33 62  1  0
 34 63  1  6
 34 64  1  0
 34 65  1  0
M  CHG  1  18   1
M  END
>  <s_epik_cmdline>  (494) 
J2VwaWtfcHl0aG9uJywgJy1waCcsICc3LjAwMDAwMCcsICctcGh0JywgJzIuMDAwMDAwJywgJy1tcycsICcxNicsICctdG4nLCAnOCcsICctbWEnLCAnMjAwJywgJy1pbWFlJywgJzxpbmZpbGUubWFlPicsICctb21hZScsICc8b3V0ZmlsZS5tYWU+Jw==

>  <s_epik_input>  (494) 
W2NIXTFbY0hdW2NIXVtjSF1bY0hdYzFbQ0BASF0oW09IXSlDKD1PKU4oW0NIM10pW0NIMl1jKHMyKWMoYyhjMjMpW2NIXVtjSF1bY0hdW2NIXTMpW05IXVtDSDJdYzRbY0hdW2NIXWMoW2NIXVtjSF00KVtDSDJdTihbQ0gzXSlbQ0gzXQ==

>  <s_i_glide_gridfile>  (494) 
ATP-Grid

>  <s_lp_Force_Field>  (494) 
OPLS_2005

>  <s_lp_Variant>  (494) 
rxn502c____EMOL300009321____EMOL49259969____EMOL50155899-1

>  <s_lp_label>  (494) 
2197_sdstereoexpander_1_neutralizer_1_epik_1_stereoizer_1

>  <s_m_source_file>  (494) 
ATP-VSW-LIGPREP-003-in.maegz

>  <s_sd_BIOSOLVEIT.INFINISEE\_QUERY\_NAME>  (494) 
Ref-Lig

>  <s_sd_BIOSOLVEIT.INFINISEE\_QUERY\_SMILES>  (494) 
S(c1nc2c(cc1C[NH2+]Cc3ccc(cc3)C[NH+](C)C)cccc2)Cc4ccccc4

>  <s_sd_BIOSOLVEIT.INFINISEE\_REACTION\_NAME>  (494) 
rxn502c

>  <s_sd_BIOSOLVEIT.INFINISEE\_REAGENT1\_NAME>  (494) 
EMOL300009321

>  <s_sd_BIOSOLVEIT.INFINISEE\_REAGENT1\_SMILES>  (494) 
O=C(O)C(O)c1ccccc1

>  <s_sd_BIOSOLVEIT.INFINISEE\_REAGENT2\_NAME>  (494) 
EMOL49259969

>  <s_sd_BIOSOLVEIT.INFINISEE\_REAGENT2\_SMILES>  (494) 
ClC=1c2c(SC1CNC)cccc2

>  <s_sd_BIOSOLVEIT.INFINISEE\_REAGENT3\_NAME>  (494) 
EMOL50155899

>  <s_sd_BIOSOLVEIT.INFINISEE\_REAGENT3\_SMILES>  (494) 
N(Cc1ccc(cc1)CN)(C)C

>  <s_sd_BIOSOLVEIT.INFINISEE\_SPACE>  (494) 
eXplore_7tr_2022-12

>  <s_vsw_compound_code>  (494) 
70275

>  <s_vsw_variant>  (494) 
70275-1

>  <r_epik_Charging_Adjusted_Penalty>  (494) 
0.080189274810459593

>  <r_epik_Ionization_Penalty>  (494) 
0.0419

>  <r_epik_Ionization_Penalty_Charging>  (494) 
0.040099999999999997

>  <r_epik_Ionization_Penalty_Neutral>  (494) 
0.0018

>  <r_epik_State_Penalty>  (494) 
0.040099999999999997

>  <r_i_docking_score>  (494) 
-3.5140952018029301

>  <r_i_glide_ecoul>  (494) 
-4.3260188102722203

>  <r_i_glide_eff_state_penalty>  (494) 
0.040099999999999997

>  <r_i_glide_einternal>  (494) 
2.73507475852966

>  <r_i_glide_emodel>  (494) 
-52.762927959722198

>  <r_i_glide_energy>  (494) 
-42.731708049774198

>  <r_i_glide_erotb>  (494) 
0.71861827111113896

>  <r_i_glide_esite>  (494) 
-0.045707088466032803

>  <r_i_glide_evdw>  (494) 
-38.405689239502003

>  <r_i_glide_gscore>  (494) 
-3.5541952018029299

>  <r_i_glide_hbond>  (494) 
0

>  <r_i_glide_ligand_efficiency>  (494) 
-0.103355741229498

>  <r_i_glide_ligand_efficiency_ln>  (494) 
-0.77636219710998999

>  <r_i_glide_ligand_efficiency_sa>  (494) 
-0.33483247862328303

>  <r_i_glide_lipo>  (494) 
-1.44352092444302

>  <r_i_glide_metal>  (494) 
-0

>  <r_i_glide_rewards>  (494) 
-0.21439817648908399

>  <r_lp_Energy>  (494) 
35.036633999999999

>  <r_qp_ACxDN^.5/SA>  (494) 
0.013392899999999999

>  <r_qp_CIQPlogS>  (494) 
-4.234

>  <r_qp_EA(eV)>  (494) 
0.67600000000000005

>  <r_qp_FISA>  (494) 
71.253

>  <r_qp_FOSA>  (494) 
277.81400000000002

>  <r_qp_IP(eV)>  (494) 
8.0790000000000006

>  <r_qp_Jm>  (494) 
0.0078589336247846999

>  <r_qp_PISA>  (494) 
441.815

>  <r_qp_PSA>  (494) 
60.582000000000001

>  <r_qp_PercentHumanOralAbsorption>  (494) 
83.814999999999998

>  <r_qp_QPPCaco>  (494) 
82.572000000000003

>  <r_qp_QPPMDCK>  (494) 
88.311000000000007

>  <r_qp_QPlogBB>  (494) 
0.041000000000000002

>  <r_qp_QPlogHERG>  (494) 
-7.202

>  <r_qp_QPlogKhsa>  (494) 
0.42199999999999999

>  <r_qp_QPlogKp>  (494) 
-4.4409999999999998

>  <r_qp_QPlogPC16>  (494) 
16.620999999999999

>  <r_qp_QPlogPo/w>  (494) 
3.8530000000000002

>  <r_qp_QPlogPoct>  (494) 
24.762

>  <r_qp_QPlogPw>  (494) 
15.314

>  <r_qp_QPlogS>  (494) 
-3.339

>  <r_qp_QPpolrz>  (494) 
52.279000000000003

>  <r_qp_SASA>  (494) 
813.07399999999996

>  <r_qp_SAamideO>  (494) 
24.77

>  <r_qp_SAfluorine>  (494) 
0

>  <r_qp_WPSA>  (494) 
22.190000000000001

>  <r_qp_accptHB>  (494) 
7.7000000000000002

>  <r_qp_dip^2/V>  (494) 
0.023878199999999999

>  <r_qp_dipole>  (494) 
6.0149999999999997

>  <r_qp_donorHB>  (494) 
2

>  <r_qp_glob>  (494) 
0.78462849999999995

>  <r_qp_mol_MW>  (494) 
473.63200000000001

>  <r_qp_volume>  (494) 
1515.107

>  <r_sd_BIOSOLVEIT.INFINISEE\_FTREES\_SIMILARITY>  (494) 
0.93300000000000005

>  <r_sd_BIOSOLVEIT.LOGP>  (494) 
3.8498999999999999

>  <r_sd_BIOSOLVEIT.MOLECULAR\_WEIGHT>  (494) 
474.64499999999998

>  <r_sd_BIOSOLVEIT.TPSA>  (494) 
57.009999999999998

>  <i_epik_Tot_Q>  (494) 
1

>  <i_epik_Tot_abs_Q>  (494) 
1

>  <i_f3d_flags>  (494) 
0

>  <i_i_glide_confnum>  (494) 
7

>  <i_i_glide_lignum>  (494) 
842

>  <i_i_glide_posenum>  (494) 
15

>  <i_i_glide_rotatable_bonds>  (494) 
11

>  <i_lp_mmshare_version>  (494) 
65135

>  <i_m_ct_format>  (494) 
2

>  <i_m_source_file_index>  (494) 
2197

>  <i_qp_#NandO>  (494) 
5

>  <i_qp_#acid>  (494) 
0

>  <i_qp_#amide>  (494) 
1

>  <i_qp_#amidine>  (494) 
0

>  <i_qp_#amine>  (494) 
2

>  <i_qp_#in34>  (494) 
0

>  <i_qp_#in56>  (494) 
21

>  <i_qp_#metab>  (494) 
8

>  <i_qp_#nonHatm>  (494) 
34

>  <i_qp_#noncon>  (494) 
0

>  <i_qp_#ringatoms>  (494) 
21

>  <i_qp_#rotor>  (494) 
10

>  <i_qp_#rtvFG>  (494) 
0

>  <i_qp_#stars>  (494) 
0

>  <i_qp_CNS>  (494) 
1

>  <i_qp_HumanOralAbsorption>  (494) 
2

>  <i_qp_RuleOfFive>  (494) 
0

>  <i_qp_RuleOfThree>  (494) 
1

>  <i_sd_BIOSOLVEIT.INFINISEE\_RESULT\_RANK>  (494) 
3351

>  <i_sd_version>  (494) 
0

>  <b_lp_Chiralities_Consistent>  (494) 
1

>  <b_sd_chiral_flag>  (494) 
0

>  <canonical_id>  (494) 
ATP-HTVS-4E16F03E37A9

>  <compound_code>  (494) 
70275

>  <title>  (494) 
rxn502c____EMOL300009321____EMOL49259969____EMOL50155899

>  <variant>  (494) 
70275-1

>  <source_file>  (494) 
运行/运行/ATP-VSW/ATP-VSW-DOCK_HTVS_1-003_lib/ATP-VSW-DOCK_HTVS_1-003_lib.mae

>  <canonical_smiles>  (494) 
CN(Cc1sc2ccccc2c1NCc1ccc(C[NH+](C)C)cc1)C(=O)[C@H](O)c1ccccc1

>  <scaffold>  (494) 
O=C(Cc1ccccc1)NCc1sc2ccccc2c1NCc1ccccc1

>  <molecular_formula>  (494) 
C28H32N3O2S+

$$$$
ATP-HTVS-4E652792F62F
     RDKit          3D

 55 57  0  0  0  0  0  0  0  0999 V2000
  200.5332  177.4039  155.7162 Cl  0  0  0  0  0  0  0  0  0  0  0  0
  199.4509  178.6717  155.2921 C   0  0  0  0  0  0  0  0  0  0  0  0
  199.1646  179.0341  153.6176 S   0  0  0  0  0  0  0  0  0  0  0  0
  198.0604  180.3249  154.0621 C   0  0  0  0  0  0  0  0  0  0  0  0
  197.4269  181.0889  152.9672 C   0  0  0  0  0  0  0  0  0  0  0  0
  197.0531  182.2462  153.1571 O   0  0  0  0  0  0  0  0  0  0  0  0
  197.2483  180.4360  151.8074 N   0  0  0  0  0  0  0  0  0  0  0  0
  196.5700  180.9617  150.6301 C   0  0  2  0  0  0  0  0  0  0  0  0
  196.4317  179.9018  149.6105 C   0  0  0  0  0  0  0  0  0  0  0  0
  196.3595  179.0385  148.7500 C   0  0  0  0  0  0  0  0  0  0  0  0
  197.2556  182.2035  150.0630 C   0  0  0  0  0  0  0  0  0  0  0  0
  198.5488  182.1245  149.5004 C   0  0  0  0  0  0  0  0  0  0  0  0
  199.1798  183.2775  148.9959 C   0  0  0  0  0  0  0  0  0  0  0  0
  198.5239  184.5231  149.0558 C   0  0  0  0  0  0  0  0  0  0  0  0
  197.2391  184.6125  149.6246 C   0  0  0  0  0  0  0  0  0  0  0  0
  196.6098  183.4582  150.1324 C   0  0  0  0  0  0  0  0  0  0  0  0
  197.9764  180.4724  155.4294 C   0  0  0  0  0  0  0  0  0  0  0  0
  197.2228  181.4594  156.0989 N   0  0  0  0  0  0  0  0  0  0  0  0
  197.5114  181.8037  157.4799 C   0  0  1  0  0  0  0  0  0  0  0  0
  196.5584  182.7842  158.1234 C   0  0  0  0  0  0  0  0  0  0  0  0
  197.0634  183.9420  158.7453 C   0  0  0  0  0  0  0  0  0  0  0  0
  196.2000  184.8223  159.4297 C   0  0  0  0  0  0  0  0  0  0  0  0
  194.8152  184.5477  159.4691 C   0  0  0  0  0  0  0  0  0  0  0  0
  194.3041  183.4019  158.8310 C   0  0  0  0  0  0  0  0  0  0  0  0
  195.1740  182.5146  158.1694 C   0  0  0  0  0  0  0  0  0  0  0  0
  196.7666  186.0387  160.1331 C   0  0  1  0  0  0  0  0  0  0  0  0
  196.4646  187.3064  159.4251 N   0  0  1  0  0  0  0  0  0  0  0  0
  196.8193  188.4890  160.2455 C   0  0  2  0  0  0  0  0  0  0  0  0
  197.0458  187.3829  158.0628 C   0  0  2  0  0  0  0  0  0  0  0  0
  198.7649  179.5029  156.1333 C   0  0  0  0  0  0  0  0  0  0  0  0
  197.5650  179.4790  151.7582 H   0  0  0  0  0  0  0  0  0  0  0  0
  195.5511  181.2165  150.9283 H   0  0  0  0  0  0  0  0  0  0  0  0
  196.3434  178.2851  147.9939 H   0  0  0  0  0  0  0  0  0  0  0  0
  199.0691  181.1796  149.4603 H   0  0  0  0  0  0  0  0  0  0  0  0
  200.1670  183.2103  148.5648 H   0  0  0  0  0  0  0  0  0  0  0  0
  199.0066  185.4113  148.6695 H   0  0  0  0  0  0  0  0  0  0  0  0
  196.7400  185.5710  149.6762 H   0  0  0  0  0  0  0  0  0  0  0  0
  195.6328  183.5356  150.5860 H   0  0  0  0  0  0  0  0  0  0  0  0
  196.7371  182.1495  155.5309 H   0  0  0  0  0  0  0  0  0  0  0  0
  197.4842  180.9111  158.1047 H   0  0  0  0  0  0  0  0  0  0  0  0
  198.5214  182.2091  157.5184 H   0  0  0  0  0  0  0  0  0  0  0  0
  198.1264  184.1355  158.7083 H   0  0  0  0  0  0  0  0  0  0  0  0
  194.1372  185.2181  159.9754 H   0  0  0  0  0  0  0  0  0  0  0  0
  193.2419  183.1997  158.8425 H   0  0  0  0  0  0  0  0  0  0  0  0
  194.7824  181.6251  157.6945 H   0  0  0  0  0  0  0  0  0  0  0  0
  196.3367  186.0722  161.1361 H   0  0  0  0  0  0  0  0  0  0  0  0
  197.8464  185.9276  160.2480 H   0  0  0  0  0  0  0  0  0  0  0  0
  197.8938  188.5408  160.4246 H   0  0  0  0  0  0  0  0  0  0  0  0
  196.3233  188.4553  161.2156 H   0  0  0  0  0  0  0  0  0  0  0  0
  196.5122  189.4100  159.7528 H   0  0  0  0  0  0  0  0  0  0  0  0
  198.1338  187.3222  158.0968 H   0  0  0  0  0  0  0  0  0  0  0  0
  196.7729  188.3213  157.5799 H   0  0  0  0  0  0  0  0  0  0  0  0
  196.6802  186.5761  157.4267 H   0  0  0  0  0  0  0  0  0  0  0  0
  198.8047  179.4321  157.2084 H   0  0  0  0  0  0  0  0  0  0  0  0
  195.4611  187.3266  159.3055 H   0  0  0  0  0  0  0  0  0  0  0  0
  1  2  1  0
  2  3  1  0
  2 30  2  0
  3  4  1  0
  4  5  1  0
  4 17  2  0
  5  6  2  0
  5  7  1  0
  7  8  1  0
  7 31  1  0
  8  9  1  0
  8 11  1  0
  8 32  1  1
  9 10  3  0
 10 33  1  0
 11 12  2  0
 11 16  1  0
 12 13  1  0
 12 34  1  0
 13 14  2  0
 13 35  1  0
 14 15  1  0
 14 36  1  0
 15 16  2  0
 15 37  1  0
 16 38  1  0
 17 18  1  0
 17 30  1  0
 18 19  1  0
 18 39  1  0
 19 20  1  0
 19 40  1  1
 19 41  1  0
 20 21  2  0
 20 25  1  0
 21 22  1  0
 21 42  1  0
 22 23  2  0
 22 26  1  0
 23 24  1  0
 23 43  1  0
 24 25  2  0
 24 44  1  0
 25 45  1  0
 26 27  1  0
 26 46  1  1
 26 47  1  0
 27 28  1  0
 27 29  1  0
 27 55  1  6
 28 48  1  1
 28 49  1  0
 28 50  1  0
 29 51  1  1
 29 52  1  0
 29 53  1  0
 30 54  1  0
M  CHG  1  27   1
M  END
>  <s_epik_cmdline>  (495) 
J2VwaWtfcHl0aG9uJywgJy1waCcsICc3LjAwMDAwMCcsICctcGh0JywgJzIuMDAwMDAwJywgJy1tcycsICcxNicsICctdG4nLCAnOCcsICctbWEnLCAnMjAwJywgJy1pbWFlJywgJzxpbmZpbGUubWFlPicsICctb21hZScsICc8b3V0ZmlsZS5tYWU+Jw==

>  <s_epik_input>  (495) 
W2NIXTFbY0hdW2NIXWMoW0NIMl1OKFtDSDNdKVtDSDNdKVtjSF1jMVtDSDJdW05IXWMoW2NIXTIpYyhzYzJDbClDKD1PKVtOSF1bQ0BIXShDI1tDSF0pYzNbY0hdW2NIXVtjSF1bY0hdW2NIXTM=

>  <s_i_glide_gridfile>  (495) 
ATP-Grid

>  <s_lp_Force_Field>  (495) 
OPLS_2005

>  <s_lp_Variant>  (495) 
rxn512b____EMOL50241152____EMOL49851977____EMOL2873214-1

>  <s_lp_label>  (495) 
2655_sdstereoexpander_1_neutralizer_1_epik_1_stereoizer_1

>  <s_m_source_file>  (495) 
ATP-VSW-LIGPREP-003-in.maegz

>  <s_sd_BIOSOLVEIT.INFINISEE\_QUERY\_NAME>  (495) 
Ref-Lig

>  <s_sd_BIOSOLVEIT.INFINISEE\_QUERY\_SMILES>  (495) 
S(c1nc2c(cc1C[NH2+]Cc3ccc(cc3)C[NH+](C)C)cccc2)Cc4ccccc4

>  <s_sd_BIOSOLVEIT.INFINISEE\_REACTION\_NAME>  (495) 
rxn512b

>  <s_sd_BIOSOLVEIT.INFINISEE\_REAGENT1\_NAME>  (495) 
EMOL50241152

>  <s_sd_BIOSOLVEIT.INFINISEE\_REAGENT1\_SMILES>  (495) 
NC(C#C)c1ccccc1

>  <s_sd_BIOSOLVEIT.INFINISEE\_REAGENT2\_NAME>  (495) 
EMOL49851977

>  <s_sd_BIOSOLVEIT.INFINISEE\_REAGENT2\_SMILES>  (495) 
BrC1=C(SC(Cl)=C1)C(=O)O

>  <s_sd_BIOSOLVEIT.INFINISEE\_REAGENT3\_NAME>  (495) 
EMOL2873214

>  <s_sd_BIOSOLVEIT.INFINISEE\_REAGENT3\_SMILES>  (495) 
N(Cc1cc(ccc1)CN)(C)C

>  <s_sd_BIOSOLVEIT.INFINISEE\_SPACE>  (495) 
eXplore_7tr_2022-12

>  <s_vsw_compound_code>  (495) 
84931

>  <s_vsw_variant>  (495) 
84931-1

>  <r_epik_Charging_Adjusted_Penalty>  (495) 
0.086140609825027206

>  <r_epik_Ionization_Penalty>  (495) 
0.043099999999999999

>  <r_epik_Ionization_Penalty_Charging>  (495) 
0.043099999999999999

>  <r_epik_Ionization_Penalty_Neutral>  (495) 
0.0001

>  <r_epik_State_Penalty>  (495) 
0.043099999999999999

>  <r_i_docking_score>  (495) 
-3.9678935903791501

>  <r_i_glide_ecoul>  (495) 
-2.4331970214843799

>  <r_i_glide_eff_state_penalty>  (495) 
0.043099999999999999

>  <r_i_glide_einternal>  (495) 
4.3866505622863796

>  <r_i_glide_emodel>  (495) 
-56.2205361315999

>  <r_i_glide_energy>  (495) 
-42.917873382568402

>  <r_i_glide_erotb>  (495) 
0.82835110067554896

>  <r_i_glide_esite>  (495) 
-0.057871607482735302

>  <r_i_glide_evdw>  (495) 
-40.484676361083999

>  <r_i_glide_gscore>  (495) 
-4.01099359037915

>  <r_i_glide_hbond>  (495) 
0

>  <r_i_glide_ligand_efficiency>  (495) 
-0.13226311967930501

>  <r_i_glide_ligand_efficiency_ln>  (495) 
-0.90154865739755496

>  <r_i_glide_ligand_efficiency_sa>  (495) 
-0.41097226434047002

>  <r_i_glide_lipo>  (495) 
-1.9763063032042001

>  <r_i_glide_metal>  (495) 
-0

>  <r_i_glide_rewards>  (495) 
-0.415953409090908

>  <r_lp_Energy>  (495) 
14.245495

>  <r_lp_tautomer_probability>  (495) 
0.99999274205267796

>  <r_qp_ACxDN^.5/SA>  (495) 
0.0081747999999999994

>  <r_qp_CIQPlogS>  (495) 
-5.2089999999999996

>  <r_qp_EA(eV)>  (495) 
0.72999999999999998

>  <r_qp_FISA>  (495) 
36.585999999999999

>  <r_qp_FOSA>  (495) 
199.68899999999999

>  <r_qp_IP(eV)>  (495) 
8.5980000000000008

>  <r_qp_Jm>  (495) 
0.010049043821447799

>  <r_qp_PISA>  (495) 
338.98599999999999

>  <r_qp_PSA>  (495) 
48.786999999999999

>  <r_qp_PercentHumanOralAbsorption>  (495) 
100

>  <r_qp_QPPCaco>  (495) 
277.17500000000001

>  <r_qp_QPPMDCK>  (495) 
526.86699999999996

>  <r_qp_QPlogBB>  (495) 
0.72699999999999998

>  <r_qp_QPlogHERG>  (495) 
-6.952

>  <r_qp_QPlogKhsa>  (495) 
0.88500000000000001

>  <r_qp_QPlogKp>  (495) 
-4.2610000000000001

>  <r_qp_QPlogPC16>  (495) 
13.958

>  <r_qp_QPlogPo/w>  (495) 
4.9690000000000003

>  <r_qp_QPlogPoct>  (495) 
19.221

>  <r_qp_QPlogPw>  (495) 
8.5749999999999993

>  <r_qp_QPlogS>  (495) 
-3.379

>  <r_qp_QPpolrz>  (495) 
43.356000000000002

>  <r_qp_SASA>  (495) 
674.18600000000004

>  <r_qp_SAamideO>  (495) 
0

>  <r_qp_SAfluorine>  (495) 
0

>  <r_qp_WPSA>  (495) 
98.924000000000007

>  <r_qp_accptHB>  (495) 
4.5

>  <r_qp_dip^2/V>  (495) 
0.0045794

>  <r_qp_dipole>  (495) 
2.4409999999999998

>  <r_qp_donorHB>  (495) 
1.5

>  <r_qp_glob>  (495) 
0.85471739999999996

>  <r_qp_mol_MW>  (495) 
437.98599999999999

>  <r_qp_volume>  (495) 
1300.636

>  <r_sd_BIOSOLVEIT.INFINISEE\_FTREES\_SIMILARITY>  (495) 
0.91000000000000003

>  <r_sd_BIOSOLVEIT.LOGP>  (495) 
3.7624

>  <r_sd_BIOSOLVEIT.TPSA>  (495) 
45.57

>  <i_epik_Tot_Q>  (495) 
1

>  <i_epik_Tot_abs_Q>  (495) 
1

>  <i_f3d_flags>  (495) 
0

>  <i_i_glide_confnum>  (495) 
9

>  <i_i_glide_lignum>  (495) 
1237

>  <i_i_glide_posenum>  (495) 
12

>  <i_i_glide_rotatable_bonds>  (495) 
10

>  <i_lp_mmshare_version>  (495) 
65135

>  <i_m_ct_format>  (495) 
2

>  <i_m_source_file_index>  (495) 
2655

>  <i_qp_#NandO>  (495) 
4

>  <i_qp_#acid>  (495) 
0

>  <i_qp_#amide>  (495) 
0

>  <i_qp_#amidine>  (495) 
0

>  <i_qp_#amine>  (495) 
2

>  <i_qp_#in34>  (495) 
0

>  <i_qp_#in56>  (495) 
17

>  <i_qp_#metab>  (495) 
7

>  <i_qp_#nonHatm>  (495) 
30

>  <i_qp_#noncon>  (495) 
0

>  <i_qp_#ringatoms>  (495) 
17

>  <i_qp_#rotor>  (495) 
9

>  <i_qp_#rtvFG>  (495) 
0

>  <i_qp_#stars>  (495) 
0

>  <i_qp_CNS>  (495) 
2

>  <i_qp_HumanOralAbsorption>  (495) 
3

>  <i_qp_RuleOfFive>  (495) 
0

>  <i_qp_RuleOfThree>  (495) 
1

>  <i_sd_BIOSOLVEIT.INFINISEE\_RESULT\_RANK>  (495) 
47046

>  <i_sd_BIOSOLVEIT.MOLECULAR\_WEIGHT>  (495) 
439

>  <i_sd_version>  (495) 
0

>  <b_lp_Chiralities_Consistent>  (495) 
1

>  <b_sd_chiral_flag>  (495) 
0

>  <canonical_id>  (495) 
ATP-HTVS-4E652792F62F

>  <compound_code>  (495) 
84931

>  <title>  (495) 
rxn512b____EMOL50241152____EMOL49851977____EMOL2873214

>  <variant>  (495) 
84931-1

>  <source_file>  (495) 
运行/运行/ATP-VSW/ATP-VSW-DOCK_HTVS_1-003_lib/ATP-VSW-DOCK_HTVS_1-003_lib.mae

>  <canonical_smiles>  (495) 
C#C[C@@H](NC(=O)c1sc(Cl)cc1NCc1cccc(C[NH+](C)C)c1)c1ccccc1

>  <scaffold>  (495) 
O=C(NCc1ccccc1)c1sccc1NCc1ccccc1

>  <molecular_formula>  (495) 
C24H25ClN3OS+

$$$$
ATP-HTVS-4E825B07A9DF
     RDKit          3D

 58 61  0  0  0  0  0  0  0  0999 V2000
  200.5587  181.1650  157.2114 F   0  0  0  0  0  0  0  0  0  0  0  0
  199.6293  180.6732  156.3515 C   0  0  0  0  0  0  0  0  0  0  0  0
  198.3302  181.2206  156.3039 C   0  0  0  0  0  0  0  0  0  0  0  0
  197.9258  182.3336  157.2034 C   0  0  0  0  0  0  0  0  0  0  0  0
  196.6369  182.3121  157.6407 N   0  0  0  0  0  0  0  0  0  0  0  0
  196.2001  183.2870  158.4576 C   0  0  0  0  0  0  0  0  0  0  0  0
  197.0654  184.3162  158.9424 C   0  0  0  0  0  0  0  0  0  0  0  0
  198.4269  184.3078  158.5116 C   0  0  0  0  0  0  0  0  0  0  0  0
  198.7990  183.3289  157.5792 C   0  0  0  0  0  0  0  0  0  0  0  0
  199.4398  185.3463  158.9607 C   0  0  0  0  0  0  0  0  0  0  0  0
  199.1486  186.5169  158.8231 O   0  0  0  0  0  0  0  0  0  0  0  0
  200.6169  184.9118  159.5199 N   0  0  0  0  0  0  0  0  0  0  0  0
  201.5766  185.8469  160.0569 C   0  0  0  0  0  0  0  0  0  0  0  0
  201.9509  187.0204  159.3661 C   0  0  0  0  0  0  0  0  0  0  0  0
  202.9189  187.8948  159.9052 C   0  0  0  0  0  0  0  0  0  0  0  0
  203.2916  189.0429  159.2048 N   0  0  0  0  0  0  0  0  0  0  0  0
  203.5257  187.6022  161.1417 C   0  0  0  0  0  0  0  0  0  0  0  0
  203.1673  186.4317  161.8342 C   0  0  0  0  0  0  0  0  0  0  0  0
  202.1965  185.5680  161.2982 C   0  0  0  0  0  0  0  0  0  0  0  0
  200.9185  183.4766  159.7218 C   0  0  2  0  0  0  0  0  0  0  0  0
  196.5382  185.2995  159.8275 C   0  0  0  0  0  0  0  0  0  0  0  0
  195.1803  185.2902  160.1796 C   0  0  0  0  0  0  0  0  0  0  0  0
  194.3272  184.2950  159.6725 C   0  0  0  0  0  0  0  0  0  0  0  0
  194.8417  183.3040  158.8237 C   0  0  0  0  0  0  0  0  0  0  0  0
  197.4228  180.7072  155.3498 C   0  0  0  0  0  0  0  0  0  0  0  0
  197.8032  179.6698  154.4818 C   0  0  0  0  0  0  0  0  0  0  0  0
  199.0897  179.1035  154.5729 C   0  0  0  0  0  0  0  0  0  0  0  0
  200.0092  179.5861  155.5220 C   0  0  0  0  0  0  0  0  0  0  0  0
  201.3973  178.9529  155.6570 C   0  0  1  0  0  0  0  0  0  0  0  0
  201.5400  178.0194  156.8116 N   0  0  2  0  0  0  0  0  0  0  0  0
  200.7723  176.7679  156.6484 C   0  0  2  0  0  0  0  0  0  0  0  0
  201.2789  178.6293  158.1338 C   0  0  2  0  0  0  0  0  0  0  0  0
  199.8250  183.3509  157.1813 H   0  0  0  0  0  0  0  0  0  0  0  0
  201.5191  187.2603  158.4022 H   0  0  0  0  0  0  0  0  0  0  0  0
  203.8596  189.7518  159.6487 H   0  0  0  0  0  0  0  0  0  0  0  0
  202.7589  189.3417  158.4003 H   0  0  0  0  0  0  0  0  0  0  0  0
  204.2684  188.2608  161.5653 H   0  0  0  0  0  0  0  0  0  0  0  0
  203.6365  186.1884  162.7778 H   0  0  0  0  0  0  0  0  0  0  0  0
  201.9466  184.6794  161.8577 H   0  0  0  0  0  0  0  0  0  0  0  0
  201.9118  183.3299  160.1629 H   0  0  0  0  0  0  0  0  0  0  0  0
  200.9146  182.9245  158.8107 H   0  0  0  0  0  0  0  0  0  0  0  0
  200.2030  183.0452  160.4442 H   0  0  0  0  0  0  0  0  0  0  0  0
  197.1544  186.0853  160.2348 H   0  0  0  0  0  0  0  0  0  0  0  0
  194.7860  186.0529  160.8378 H   0  0  0  0  0  0  0  0  0  0  0  0
  193.2765  184.2887  159.9335 H   0  0  0  0  0  0  0  0  0  0  0  0
  194.1891  182.5417  158.4111 H   0  0  0  0  0  0  0  0  0  0  0  0
  196.4308  181.1329  155.2861 H   0  0  0  0  0  0  0  0  0  0  0  0
  197.0967  179.3139  153.7478 H   0  0  0  0  0  0  0  0  0  0  0  0
  199.3578  178.2869  153.9093 H   0  0  0  0  0  0  0  0  0  0  0  0
  201.6210  178.4014  154.7380 H   0  0  0  0  0  0  0  0  0  0  0  0
  202.1558  179.7352  155.7130 H   0  0  0  0  0  0  0  0  0  0  0  0
  199.6977  176.9654  156.6117 H   0  0  0  0  0  0  0  0  0  0  0  0
  200.9574  176.0990  157.4869 H   0  0  0  0  0  0  0  0  0  0  0  0
  201.0571  176.2445  155.7352 H   0  0  0  0  0  0  0  0  0  0  0  0
  200.2348  178.9477  158.1620 H   0  0  0  0  0  0  0  0  0  0  0  0
  201.9311  179.4914  158.2859 H   0  0  0  0  0  0  0  0  0  0  0  0
  201.4438  177.9324  158.9543 H   0  0  0  0  0  0  0  0  0  0  0  0
  202.5295  177.7655  156.8449 H   0  0  0  0  0  0  0  0  0  0  0  0
  1  2  1  0
  2  3  2  0
  2 28  1  0
  3  4  1  0
  3 25  1  0
  4  5  2  0
  4  9  1  0
  5  6  1  0
  6  7  1  0
  6 24  2  0
  7  8  1  0
  7 21  2  0
  8  9  2  0
  8 10  1  0
  9 33  1  0
 10 11  2  0
 10 12  1  0
 12 13  1  0
 12 20  1  0
 13 14  1  0
 13 19  2  0
 14 15  2  0
 14 34  1  0
 15 16  1  0
 15 17  1  0
 16 35  1  0
 16 36  1  0
 17 18  2  0
 17 37  1  0
 18 19  1  0
 18 38  1  0
 19 39  1  0
 20 40  1  1
 20 41  1  0
 20 42  1  0
 21 22  1  0
 21 43  1  0
 22 23  2  0
 22 44  1  0
 23 24  1  0
 23 45  1  0
 24 46  1  0
 25 26  2  0
 25 47  1  0
 26 27  1  0
 26 48  1  0
 27 28  2  0
 27 49  1  0
 28 29  1  0
 29 30  1  0
 29 50  1  6
 29 51  1  0
 30 31  1  0
 30 32  1  0
 30 58  1  1
 31 52  1  6
 31 53  1  0
 31 54  1  0
 32 55  1  6
 32 56  1  0
 32 57  1  0
M  CHG  1  30   1
M  END
>  <s_epik_cmdline>  (496) 
J2VwaWtfcHl0aG9uJywgJy1waCcsICc3LjAwMDAwMCcsICctcGh0JywgJzIuMDAwMDAwJywgJy1tcycsICcxNicsICctdG4nLCAnOCcsICctbWEnLCAnMjAwJywgJy1pbWFlJywgJzxpbmZpbGUubWFlPicsICctb21hZScsICc8b3V0ZmlsZS5tYWU+Jw==

>  <s_epik_input>  (496) 
W0NIM11OKFtDSDNdKVtDSDJdYzFbY0hdW2NIXVtjSF1jKGMxRiktYyhuMilbY0hdYyhjKGMyMylbY0hdW2NIXVtjSF1bY0hdMylDKD1PKU4oW0NIM10pYzRbY0hdYyhbTkgyXSlbY0hdW2NIXVtjSF00

>  <s_i_glide_gridfile>  (496) 
ATP-Grid

>  <s_lp_Force_Field>  (496) 
OPLS_2005

>  <s_lp_Variant>  (496) 
WXDL_14____AG3393____LN00173385____BT3166-1

>  <s_lp_label>  (496) 
639_sdstereoexpander_1_neutralizer_1_epik_1_stereoizer_1

>  <s_m_source_file>  (496) 
ATP-VSW-LIGPREP-002-in.maegz

>  <s_sd_BIOSOLVEIT.INFINISEE\_QUERY\_NAME>  (496) 
Ref-Lig

>  <s_sd_BIOSOLVEIT.INFINISEE\_QUERY\_SMILES>  (496) 
S(c1nc2c(cc1C[NH2+]Cc3ccc(cc3)C[NH+](C)C)cccc2)Cc4ccccc4

>  <s_sd_BIOSOLVEIT.INFINISEE\_REACTION\_NAME>  (496) 
WXDL_14

>  <s_sd_BIOSOLVEIT.INFINISEE\_REAGENT1\_NAME>  (496) 
AG3393

>  <s_sd_BIOSOLVEIT.INFINISEE\_REAGENT1\_SMILES>  (496) 
N(c1cc(N)ccc1)C

>  <s_sd_BIOSOLVEIT.INFINISEE\_REAGENT2\_NAME>  (496) 
LN00173385

>  <s_sd_BIOSOLVEIT.INFINISEE\_REAGENT2\_SMILES>  (496) 
Brc1nc2c(c(c1)C(=O)O)cccc2

>  <s_sd_BIOSOLVEIT.INFINISEE\_REAGENT3\_NAME>  (496) 
BT3166

>  <s_sd_BIOSOLVEIT.INFINISEE\_REAGENT3\_SMILES>  (496) 
Fc1c(cccc1B(O)O)CN(C)C

>  <s_sd_BIOSOLVEIT.INFINISEE\_SPACE>  (496) 
GalaXi_12bn_2023-03

>  <s_vsw_compound_code>  (496) 
20418

>  <s_vsw_variant>  (496) 
20418-1

>  <r_epik_Charging_Adjusted_Penalty>  (496) 
0.109732165272034

>  <r_epik_Ionization_Penalty>  (496) 
0.055500000000000001

>  <r_epik_Ionization_Penalty_Charging>  (496) 
0.054899999999999997

>  <r_epik_Ionization_Penalty_Neutral>  (496) 
0.00059999999999999995

>  <r_epik_State_Penalty>  (496) 
0.054899999999999997

>  <r_i_docking_score>  (496) 
-4.5475822687243399

>  <r_i_glide_ecoul>  (496) 
-5.8395648002624503

>  <r_i_glide_eff_state_penalty>  (496) 
0.054899999999999997

>  <r_i_glide_einternal>  (496) 
3.00186967849731

>  <r_i_glide_emodel>  (496) 
-55.159824810832497

>  <r_i_glide_energy>  (496) 
-41.037482738494901

>  <r_i_glide_erotb>  (496) 
0.538629367979923

>  <r_i_glide_esite>  (496) 
-0.00269313753006436

>  <r_i_glide_evdw>  (496) 
-35.197917938232401

>  <r_i_glide_gscore>  (496) 
-4.6024822687243399

>  <r_i_glide_hbond>  (496) 
0

>  <r_i_glide_ligand_efficiency>  (496) 
-0.14211194589763601

>  <r_i_glide_ligand_efficiency_ln>  (496) 
-1.01832763237819

>  <r_i_glide_ligand_efficiency_sa>  (496) 
-0.45117730430908898

>  <r_i_glide_lipo>  (496) 
-1.5509901262708801

>  <r_i_glide_metal>  (496) 
-0

>  <r_i_glide_rewards>  (496) 
-0.95159775595233298

>  <r_lp_Energy>  (496) 
48.374693000000001

>  <r_qp_ACxDN^.5/SA>  (496) 
0.0117129

>  <r_qp_CIQPlogS>  (496) 
-5.3789999999999996

>  <r_qp_EA(eV)>  (496) 
1.099

>  <r_qp_FISA>  (496) 
97.135999999999996

>  <r_qp_FOSA>  (496) 
249.06800000000001

>  <r_qp_IP(eV)>  (496) 
8.4359999999999999

>  <r_qp_Jm>  (496) 
0.0018204624835373999

>  <r_qp_PISA>  (496) 
367.98899999999998

>  <r_qp_PSA>  (496) 
67.665999999999997

>  <r_qp_PercentHumanOralAbsorption>  (496) 
95.033000000000001

>  <r_qp_QPPCaco>  (496) 
296.25200000000001

>  <r_qp_QPPMDCK>  (496) 
183.82400000000001

>  <r_qp_QPlogBB>  (496) 
-0.34899999999999998

>  <r_qp_QPlogHERG>  (496) 
-7.125

>  <r_qp_QPlogKhsa>  (496) 
0.64500000000000002

>  <r_qp_QPlogKp>  (496) 
-3.5

>  <r_qp_QPlogPC16>  (496) 
14.301

>  <r_qp_QPlogPo/w>  (496) 
4.0730000000000004

>  <r_qp_QPlogPoct>  (496) 
22.309000000000001

>  <r_qp_QPlogPw>  (496) 
12.419

>  <r_qp_QPlogS>  (496) 
-4.8719999999999999

>  <r_qp_QPpolrz>  (496) 
47.598999999999997

>  <r_qp_SASA>  (496) 
731.94399999999996

>  <r_qp_SAamideO>  (496) 
0

>  <r_qp_SAfluorine>  (496) 
17.751000000000001

>  <r_qp_WPSA>  (496) 
17.751000000000001

>  <r_qp_accptHB>  (496) 
7

>  <r_qp_dip^2/V>  (496) 
0.032648200000000002

>  <r_qp_dipole>  (496) 
6.6429999999999998

>  <r_qp_donorHB>  (496) 
1.5

>  <r_qp_glob>  (496) 
0.80771219999999999

>  <r_qp_mol_MW>  (496) 
428.50799999999998

>  <r_qp_volume>  (496) 
1351.6179999999999

>  <r_sd_BIOSOLVEIT.INFINISEE\_FTREES\_SIMILARITY>  (496) 
0.90300000000000002

>  <r_sd_BIOSOLVEIT.LOGP>  (496) 
3.5442

>  <r_sd_BIOSOLVEIT.MOLECULAR\_WEIGHT>  (496) 
429.51600000000002

>  <r_sd_BIOSOLVEIT.TPSA>  (496) 
63.659999999999997

>  <i_epik_Tot_Q>  (496) 
1

>  <i_epik_Tot_abs_Q>  (496) 
1

>  <i_f3d_flags>  (496) 
0

>  <i_i_glide_confnum>  (496) 
3

>  <i_i_glide_lignum>  (496) 
191

>  <i_i_glide_posenum>  (496) 
1

>  <i_i_glide_rotatable_bonds>  (496) 
6

>  <i_lp_mmshare_version>  (496) 
65135

>  <i_m_ct_format>  (496) 
2

>  <i_m_source_file_index>  (496) 
639

>  <i_qp_#NandO>  (496) 
5

>  <i_qp_#acid>  (496) 
0

>  <i_qp_#amide>  (496) 
0

>  <i_qp_#amidine>  (496) 
0

>  <i_qp_#amine>  (496) 
1

>  <i_qp_#in34>  (496) 
0

>  <i_qp_#in56>  (496) 
22

>  <i_qp_#metab>  (496) 
5

>  <i_qp_#nonHatm>  (496) 
32

>  <i_qp_#noncon>  (496) 
0

>  <i_qp_#ringatoms>  (496) 
22

>  <i_qp_#rotor>  (496) 
6

>  <i_qp_#rtvFG>  (496) 
0

>  <i_qp_#stars>  (496) 
0

>  <i_qp_CNS>  (496) 
1

>  <i_qp_HumanOralAbsorption>  (496) 
3

>  <i_qp_RuleOfFive>  (496) 
0

>  <i_qp_RuleOfThree>  (496) 
0

>  <i_sd_BIOSOLVEIT.INFINISEE\_RESULT\_RANK>  (496) 
83417

>  <i_sd_version>  (496) 
0

>  <b_lp_Chiralities_Consistent>  (496) 
1

>  <b_sd_chiral_flag>  (496) 
0

>  <canonical_id>  (496) 
ATP-HTVS-4E825B07A9DF

>  <compound_code>  (496) 
20418

>  <title>  (496) 
WXDL_14____AG3393____LN00173385____BT3166

>  <variant>  (496) 
20418-1

>  <source_file>  (496) 
运行/运行/ATP-VSW/ATP-VSW-DOCK_HTVS_1-002_lib.maegz

>  <canonical_smiles>  (496) 
CN(C(=O)c1cc(-c2cccc(C[NH+](C)C)c2F)nc2ccccc12)c1cccc(N)c1

>  <scaffold>  (496) 
O=C(Nc1ccccc1)c1cc(-c2ccccc2)nc2ccccc12

>  <molecular_formula>  (496) 
C26H26FN4O+

$$$$
ATP-HTVS-4E9E59A3DA5E
     RDKit          3D

 62 65  0  0  0  0  0  0  0  0999 V2000
  197.5041  185.6695  159.2474 S   0  0  0  0  0  0  0  0  0  0  0  0
  196.1392  184.5910  159.0481 C   0  0  0  0  0  0  0  0  0  0  0  0
  196.5297  183.3943  158.3659 C   0  0  0  0  0  0  0  0  0  0  0  0
  195.5177  182.4304  158.1371 C   0  0  0  0  0  0  0  0  0  0  0  0
  194.1862  182.6449  158.5321 C   0  0  0  0  0  0  0  0  0  0  0  0
  193.8316  183.8352  159.1879 C   0  0  0  0  0  0  0  0  0  0  0  0
  194.8122  184.8065  159.4610 C   0  0  0  0  0  0  0  0  0  0  0  0
  197.9369  183.4045  158.0059 C   0  0  0  0  0  0  0  0  0  0  0  0
  198.4740  182.3096  157.3044 N   0  0  0  0  0  0  0  0  0  0  0  0
  199.0272  182.5060  155.9815 C   0  0  1  0  0  0  0  0  0  0  0  0
  198.2113  181.8069  154.9225 C   0  0  0  0  0  0  0  0  0  0  0  0
  198.2179  180.3979  154.8568 C   0  0  0  0  0  0  0  0  0  0  0  0
  197.4854  179.7405  153.8515 C   0  0  0  0  0  0  0  0  0  0  0  0
  196.7511  180.4794  152.8978 C   0  0  0  0  0  0  0  0  0  0  0  0
  196.7236  181.8890  152.9970 C   0  0  0  0  0  0  0  0  0  0  0  0
  197.4491  182.5522  154.0051 C   0  0  0  0  0  0  0  0  0  0  0  0
  196.0359  179.7623  151.7542 C   0  0  1  0  0  0  0  0  0  0  0  0
  196.8781  179.4588  150.5892 N   0  0  0  0  0  0  0  0  0  0  0  0
  197.4163  180.6676  149.9759 C   0  0  2  0  0  0  0  0  0  0  0  0
  197.9628  178.5354  150.8972 C   0  0  2  0  0  0  0  0  0  0  0  0
  198.5864  184.5307  158.4811 C   0  0  0  0  0  0  0  0  0  0  0  0
  200.0004  184.9935  158.4670 C   0  0  0  0  0  0  0  0  0  0  0  0
  200.2340  186.1547  158.1229 O   0  0  0  0  0  0  0  0  0  0  0  0
  200.9824  184.1621  158.9146 N   0  0  0  0  0  0  0  0  0  0  0  0
  202.3767  184.6296  159.0118 C   0  0  2  0  0  0  0  0  0  0  0  0
  203.2398  183.9739  158.0128 C   0  0  0  0  0  0  0  0  0  0  0  0
  203.9193  183.4635  157.2310 N   0  0  0  0  0  0  0  0  0  0  0  0
  202.9375  184.5532  160.4290 C   0  0  0  0  0  0  0  0  0  0  0  0
  203.6133  183.3996  160.8921 C   0  0  0  0  0  0  0  0  0  0  0  0
  204.0788  183.3331  162.2185 C   0  0  0  0  0  0  0  0  0  0  0  0
  203.9032  184.4322  163.0827 C   0  0  0  0  0  0  0  0  0  0  0  0
  203.2483  185.5885  162.6230 C   0  0  0  0  0  0  0  0  0  0  0  0
  202.7578  185.6463  161.3057 C   0  0  0  0  0  0  0  0  0  0  0  0
  200.7515  182.7625  159.3133 C   0  0  2  0  0  0  0  0  0  0  0  0
  195.7678  181.5052  157.6344 H   0  0  0  0  0  0  0  0  0  0  0  0
  193.4446  181.8945  158.3123 H   0  0  0  0  0  0  0  0  0  0  0  0
  192.8002  184.0194  159.4607 H   0  0  0  0  0  0  0  0  0  0  0  0
  194.5360  185.7324  159.9558 H   0  0  0  0  0  0  0  0  0  0  0  0
  197.9422  181.4512  157.3756 H   0  0  0  0  0  0  0  0  0  0  0  0
  199.1166  183.5680  155.7434 H   0  0  0  0  0  0  0  0  0  0  0  0
  200.0399  182.1013  155.9789 H   0  0  0  0  0  0  0  0  0  0  0  0
  198.8079  179.8158  155.5491 H   0  0  0  0  0  0  0  0  0  0  0  0
  197.5205  178.6654  153.7973 H   0  0  0  0  0  0  0  0  0  0  0  0
  196.1708  182.4765  152.2803 H   0  0  0  0  0  0  0  0  0  0  0  0
  197.4424  183.6334  154.0554 H   0  0  0  0  0  0  0  0  0  0  0  0
  195.5855  178.8409  152.1301 H   0  0  0  0  0  0  0  0  0  0  0  0
  195.1940  180.3756  151.4301 H   0  0  0  0  0  0  0  0  0  0  0  0
  197.9818  180.4229  149.0773 H   0  0  0  0  0  0  0  0  0  0  0  0
  198.0855  181.2034  150.6501 H   0  0  0  0  0  0  0  0  0  0  0  0
  196.6176  181.3461  149.6809 H   0  0  0  0  0  0  0  0  0  0  0  0
  198.5151  178.2705  149.9916 H   0  0  0  0  0  0  0  0  0  0  0  0
  197.5636  177.6127  151.3156 H   0  0  0  0  0  0  0  0  0  0  0  0
  198.6719  178.9613  151.6113 H   0  0  0  0  0  0  0  0  0  0  0  0
  202.4784  185.6820  158.7271 H   0  0  0  0  0  0  0  0  0  0  0  0
  203.7575  182.5501  160.2415 H   0  0  0  0  0  0  0  0  0  0  0  0
  204.5594  182.4339  162.5770 H   0  0  0  0  0  0  0  0  0  0  0  0
  204.2576  184.3798  164.1013 H   0  0  0  0  0  0  0  0  0  0  0  0
  203.1046  186.4291  163.2852 H   0  0  0  0  0  0  0  0  0  0  0  0
  202.2319  186.5290  160.9677 H   0  0  0  0  0  0  0  0  0  0  0  0
  200.8484  182.1152  158.4407 H   0  0  0  0  0  0  0  0  0  0  0  0
  199.7598  182.6384  159.7451 H   0  0  0  0  0  0  0  0  0  0  0  0
  201.4435  182.3808  160.0633 H   0  0  0  0  0  0  0  0  0  0  0  0
  1  2  1  0
  1 21  1  0
  2  3  1  0
  2  7  2  0
  3  4  2  0
  3  8  1  0
  4  5  1  0
  4 35  1  0
  5  6  2  0
  5 36  1  0
  6  7  1  0
  6 37  1  0
  7 38  1  0
  8  9  1  0
  8 21  2  0
  9 10  1  0
  9 39  1  0
 10 11  1  0
 10 40  1  6
 10 41  1  0
 11 12  1  0
 11 16  2  0
 12 13  2  0
 12 42  1  0
 13 14  1  0
 13 43  1  0
 14 15  2  0
 14 17  1  0
 15 16  1  0
 15 44  1  0
 16 45  1  0
 17 18  1  0
 17 46  1  1
 17 47  1  0
 18 19  1  0
 18 20  1  0
 19 48  1  6
 19 49  1  0
 19 50  1  0
 20 51  1  6
 20 52  1  0
 20 53  1  0
 21 22  1  0
 22 23  2  0
 22 24  1  0
 24 25  1  0
 24 34  1  0
 25 26  1  0
 25 28  1  0
 25 54  1  6
 26 27  3  0
 28 29  2  0
 28 33  1  0
 29 30  1  0
 29 55  1  0
 30 31  2  0
 30 56  1  0
 31 32  1  0
 31 57  1  0
 32 33  2  0
 32 58  1  0
 33 59  1  0
 34 60  1  6
 34 61  1  0
 34 62  1  0
M  END
>  <s_epik_cmdline>  (497) 
J2VwaWtfcHl0aG9uJywgJy1waCcsICc3LjAwMDAwMCcsICctcGh0JywgJzIuMDAwMDAwJywgJy1tcycsICcxNicsICctdG4nLCAnOCcsICctbWEnLCAnMjAwJywgJy1pbWFlJywgJzxpbmZpbGUubWFlPicsICctb21hZScsICc8b3V0ZmlsZS5tYWU+Jw==

>  <s_epik_input>  (497) 
W2NIXTFbY0hdW2NIXVtjSF1bY0hdYzFbQ0BASF0oQyNOKU4oW0NIM10pQyg9TyljKHMyKWMoYyhjMjMpW2NIXVtjSF1bY0hdW2NIXTMpW05IXVtDSDJdYzRbY0hdW2NIXWMoW2NIXVtjSF00KVtDSDJdTihbQ0gzXSlbQ0gzXQ==

>  <s_i_glide_gridfile>  (497) 
ATP-Grid

>  <s_lp_Force_Field>  (497) 
OPLS_2005

>  <s_lp_Variant>  (497) 
rxn512c____EMOL24630243____EMOL523944____EMOL50155899-4

>  <s_lp_label>  (497) 
2164_sdstereoexpander_2_neutralizer_1_epik_2_stereoizer_1

>  <s_m_source_file>  (497) 
ATP-VSW-LIGPREP-002-in.maegz

>  <s_sd_BIOSOLVEIT.INFINISEE\_QUERY\_NAME>  (497) 
Ref-Lig

>  <s_sd_BIOSOLVEIT.INFINISEE\_QUERY\_SMILES>  (497) 
S(c1nc2c(cc1C[NH2+]Cc3ccc(cc3)C[NH+](C)C)cccc2)Cc4ccccc4

>  <s_sd_BIOSOLVEIT.INFINISEE\_REACTION\_NAME>  (497) 
rxn512c

>  <s_sd_BIOSOLVEIT.INFINISEE\_REAGENT1\_NAME>  (497) 
EMOL24630243

>  <s_sd_BIOSOLVEIT.INFINISEE\_REAGENT1\_SMILES>  (497) 
N#CC(NC)c1ccccc1

>  <s_sd_BIOSOLVEIT.INFINISEE\_REAGENT2\_NAME>  (497) 
EMOL523944

>  <s_sd_BIOSOLVEIT.INFINISEE\_REAGENT2\_SMILES>  (497) 
ClC=1c2c(SC1C(=O)O)cccc2

>  <s_sd_BIOSOLVEIT.INFINISEE\_REAGENT3\_NAME>  (497) 
EMOL50155899

>  <s_sd_BIOSOLVEIT.INFINISEE\_REAGENT3\_SMILES>  (497) 
N(Cc1ccc(cc1)CN)(C)C

>  <s_sd_BIOSOLVEIT.INFINISEE\_SPACE>  (497) 
eXplore_7tr_2022-12

>  <s_vsw_compound_code>  (497) 
69218

>  <s_vsw_variant>  (497) 
69218-4

>  <r_epik_Charging_Adjusted_Penalty>  (497) 
1.6155483608401799

>  <r_epik_Ionization_Penalty>  (497) 
1.6157999999999999

>  <r_epik_Ionization_Penalty_Charging>  (497) 
0

>  <r_epik_Ionization_Penalty_Neutral>  (497) 
1.6157999999999999

>  <r_epik_State_Penalty>  (497) 
1.6154999999999999

>  <r_i_docking_score>  (497) 
-1.45009554591698

>  <r_i_glide_ecoul>  (497) 
-1.65020084381104

>  <r_i_glide_eff_state_penalty>  (497) 
1.6154999999999999

>  <r_i_glide_einternal>  (497) 
7.2240037918090803

>  <r_i_glide_emodel>  (497) 
-42.560974095579802

>  <r_i_glide_energy>  (497) 
-38.866677284240701

>  <r_i_glide_erotb>  (497) 
0.643622345981545

>  <r_i_glide_esite>  (497) 
-0.016610820731811301

>  <r_i_glide_evdw>  (497) 
-37.216476440429702

>  <r_i_glide_gscore>  (497) 
-3.0655955459169801

>  <r_i_glide_hbond>  (497) 
0

>  <r_i_glide_ligand_efficiency>  (497) 
-0.0426498689975583

>  <r_i_glide_ligand_efficiency_ln>  (497) 
-0.32036677989541101

>  <r_i_glide_ligand_efficiency_sa>  (497) 
-0.138169018765017

>  <r_i_glide_lipo>  (497) 
-1.3218638911990701

>  <r_i_glide_metal>  (497) 
-0

>  <r_i_glide_rewards>  (497) 
-0.26238923137450698

>  <r_lp_Energy>  (497) 
35.225997

>  <r_qp_ACxDN^.5/SA>  (497) 
0

>  <r_qp_CIQPlogS>  (497) 
-6.1719999999999997

>  <r_qp_EA(eV)>  (497) 
0.81999999999999995

>  <r_qp_FISA>  (497) 
81.013999999999996

>  <r_qp_FOSA>  (497) 
253.42400000000001

>  <r_qp_IP(eV)>  (497) 
8.282

>  <r_qp_Jm>  (497) 
0.00019102360300397999

>  <r_qp_PISA>  (497) 
396.142

>  <r_qp_PSA>  (497) 
61.731000000000002

>  <r_qp_PercentHumanOralAbsorption>  (497) 
91.090999999999994

>  <r_qp_QPPCaco>  (497) 
105.06100000000001

>  <r_qp_QPPMDCK>  (497) 
79.873999999999995

>  <r_qp_QPlogBB>  (497) 
0.10299999999999999

>  <r_qp_QPlogHERG>  (497) 
-7.7199999999999998

>  <r_qp_QPlogKhsa>  (497) 
0.80200000000000005

>  <r_qp_QPlogKp>  (497) 
-4.8780000000000001

>  <r_qp_QPlogPC16>  (497) 
15.509

>  <r_qp_QPlogPo/w>  (497) 
4.7759999999999998

>  <r_qp_QPlogPoct>  (497) 
21.643999999999998

>  <r_qp_QPlogPw>  (497) 
9.2300000000000004

>  <r_qp_QPlogS>  (497) 
-4.5119999999999996

>  <r_qp_QPpolrz>  (497) 
51.189999999999998

>  <r_qp_SASA>  (497) 
763.07500000000005

>  <r_qp_SAamideO>  (497) 
0

>  <r_qp_SAfluorine>  (497) 
0

>  <r_qp_WPSA>  (497) 
32.494

>  <r_qp_accptHB>  (497) 
6.5

>  <r_qp_dip^2/V>  (497) 
0.066340899999999994

>  <r_qp_dipole>  (497) 
9.9179999999999993

>  <r_qp_donorHB>  (497) 
0

>  <r_qp_glob>  (497) 
0.8240942

>  <r_qp_mol_MW>  (497) 
468.61500000000001

>  <r_qp_volume>  (497) 
1482.752

>  <r_sd_BIOSOLVEIT.INFINISEE\_FTREES\_SIMILARITY>  (497) 
0.94199999999999995

>  <r_sd_BIOSOLVEIT.LOGP>  (497) 
4.4947800000000004

>  <r_sd_BIOSOLVEIT.MOLECULAR\_WEIGHT>  (497) 
469.62900000000002

>  <r_sd_BIOSOLVEIT.TPSA>  (497) 
60.57

>  <i_epik_Tot_Q>  (497) 
0

>  <i_epik_Tot_abs_Q>  (497) 
0

>  <i_f3d_flags>  (497) 
0

>  <i_i_glide_confnum>  (497) 
2

>  <i_i_glide_lignum>  (497) 
799

>  <i_i_glide_posenum>  (497) 
13

>  <i_i_glide_rotatable_bonds>  (497) 
9

>  <i_lp_mmshare_version>  (497) 
65135

>  <i_m_ct_format>  (497) 
2

>  <i_m_source_file_index>  (497) 
2164

>  <i_qp_#NandO>  (497) 
5

>  <i_qp_#acid>  (497) 
0

>  <i_qp_#amide>  (497) 
0

>  <i_qp_#amidine>  (497) 
0

>  <i_qp_#amine>  (497) 
2

>  <i_qp_#in34>  (497) 
0

>  <i_qp_#in56>  (497) 
21

>  <i_qp_#metab>  (497) 
7

>  <i_qp_#nonHatm>  (497) 
34

>  <i_qp_#noncon>  (497) 
0

>  <i_qp_#ringatoms>  (497) 
21

>  <i_qp_#rotor>  (497) 
9

>  <i_qp_#rtvFG>  (497) 
0

>  <i_qp_#stars>  (497) 
0

>  <i_qp_CNS>  (497) 
1

>  <i_qp_HumanOralAbsorption>  (497) 
3

>  <i_qp_RuleOfFive>  (497) 
0

>  <i_qp_RuleOfThree>  (497) 
1

>  <i_sd_BIOSOLVEIT.INFINISEE\_RESULT\_RANK>  (497) 
1011

>  <i_sd_version>  (497) 
0

>  <b_lp_Chiralities_Consistent>  (497) 
1

>  <b_sd_chiral_flag>  (497) 
0

>  <canonical_id>  (497) 
ATP-HTVS-4E9E59A3DA5E

>  <compound_code>  (497) 
69218

>  <title>  (497) 
rxn512c____EMOL24630243____EMOL523944____EMOL50155899

>  <variant>  (497) 
69218-4

>  <source_file>  (497) 
运行/运行/ATP-VSW/ATP-VSW-DOCK_HTVS_1-002_lib.maegz

>  <canonical_smiles>  (497) 
CN(C)Cc1ccc(CNc2c(C(=O)N(C)[C@H](C#N)c3ccccc3)sc3ccccc23)cc1

>  <scaffold>  (497) 
O=C(NCc1ccccc1)c1sc2ccccc2c1NCc1ccccc1

>  <molecular_formula>  (497) 
C28H28N4OS

$$$$
ATP-HTVS-4EA46F6E6AE0
     RDKit          3D

 69 72  0  0  0  0  0  0  0  0999 V2000
  194.1451  183.4631  158.8429 S   0  0  0  0  0  0  0  0  0  0  0  0
  195.5140  184.5378  159.0781 C   0  0  0  0  0  0  0  0  0  0  0  0
  196.7259  183.9352  158.6149 C   0  0  0  0  0  0  0  0  0  0  0  0
  197.9107  184.7043  158.7630 C   0  0  0  0  0  0  0  0  0  0  0  0
  197.8938  185.9988  159.3241 C   0  0  0  0  0  0  0  0  0  0  0  0
  196.6826  186.5625  159.7612 C   0  0  0  0  0  0  0  0  0  0  0  0
  195.4927  185.8286  159.6370 C   0  0  0  0  0  0  0  0  0  0  0  0
  196.4928  182.6096  158.0683 C   0  0  0  0  0  0  0  0  0  0  0  0
  195.1719  182.2532  158.1469 C   0  0  0  0  0  0  0  0  0  0  0  0
  197.5505  181.7075  157.5223 C   0  0  1  0  0  0  0  0  0  0  0  0
  197.8605  181.9433  156.0291 C   0  0  1  0  0  0  0  0  0  0  0  0
  199.0204  181.1419  155.5808 N   0  0  0  0  0  0  0  0  0  0  0  0
  200.2248  180.9964  156.1580 C   0  0  0  0  0  0  0  0  0  0  0  0
  200.5216  181.4298  157.2666 O   0  0  0  0  0  0  0  0  0  0  0  0
  201.2887  180.2697  155.3320 C   0  0  1  0  0  0  0  0  0  0  0  0
  201.0755  178.7708  155.4050 C   0  0  0  0  0  0  0  0  0  0  0  0
  201.4124  178.0626  156.5779 C   0  0  0  0  0  0  0  0  0  0  0  0
  201.2336  176.6683  156.6347 C   0  0  0  0  0  0  0  0  0  0  0  0
  200.7198  175.9815  155.5204 C   0  0  0  0  0  0  0  0  0  0  0  0
  200.3661  176.6891  154.3561 C   0  0  0  0  0  0  0  0  0  0  0  0
  200.5402  178.0832  154.2977 C   0  0  0  0  0  0  0  0  0  0  0  0
  196.5939  181.7186  155.1396 C   0  0  1  0  0  0  0  0  0  0  0  0
  196.9039  181.3889  153.6909 C   0  0  0  0  0  0  0  0  0  0  0  0
  196.4200  180.4047  153.1328 O   0  0  0  0  0  0  0  0  0  0  0  0
  197.7977  182.1933  153.1083 N   0  0  0  0  0  0  0  0  0  0  0  0
  198.5455  181.8382  151.9285 C   0  0  1  0  0  0  0  0  0  0  0  0
  198.1655  182.6720  150.7399 C   0  0  0  0  0  0  0  0  0  0  0  0
  199.0013  182.5985  149.6049 C   0  0  0  0  0  0  0  0  0  0  0  0
  198.7351  183.3663  148.4895 C   0  0  0  0  0  0  0  0  0  0  0  0
  197.5762  184.2060  148.4351 C   0  0  0  0  0  0  0  0  0  0  0  0
  196.7299  184.2912  149.5659 C   0  0  0  0  0  0  0  0  0  0  0  0
  197.0354  183.5250  150.7214 C   0  0  0  0  0  0  0  0  0  0  0  0
  197.2349  185.0340  147.1992 C   0  0  1  0  0  0  0  0  0  0  0  0
  198.3007  185.1258  146.1957 N   0  0  0  0  0  0  0  0  0  0  0  0
  198.5238  183.8428  145.4915 C   0  0  2  0  0  0  0  0  0  0  0  0
  199.5094  185.7356  146.7683 C   0  0  2  0  0  0  0  0  0  0  0  0
  198.8536  184.2920  158.4323 H   0  0  0  0  0  0  0  0  0  0  0  0
  198.8106  186.5630  159.4173 H   0  0  0  0  0  0  0  0  0  0  0  0
  196.6664  187.5551  160.1899 H   0  0  0  0  0  0  0  0  0  0  0  0
  194.5519  186.2489  159.9585 H   0  0  0  0  0  0  0  0  0  0  0  0
  194.7515  181.3177  157.8032 H   0  0  0  0  0  0  0  0  0  0  0  0
  198.4302  181.9014  158.1254 H   0  0  0  0  0  0  0  0  0  0  0  0
  197.3005  180.6535  157.6806 H   0  0  0  0  0  0  0  0  0  0  0  0
  198.1473  182.9920  155.9082 H   0  0  0  0  0  0  0  0  0  0  0  0
  198.9276  180.7698  154.6482 H   0  0  0  0  0  0  0  0  0  0  0  0
  201.2669  180.6272  154.2994 H   0  0  0  0  0  0  0  0  0  0  0  0
  202.2642  180.5278  155.7447 H   0  0  0  0  0  0  0  0  0  0  0  0
  201.8282  178.5825  157.4303 H   0  0  0  0  0  0  0  0  0  0  0  0
  201.5011  176.1263  157.5283 H   0  0  0  0  0  0  0  0  0  0  0  0
  200.5813  174.9121  155.5652 H   0  0  0  0  0  0  0  0  0  0  0  0
  199.9588  176.1656  153.5063 H   0  0  0  0  0  0  0  0  0  0  0  0
  200.2725  178.6234  153.4022 H   0  0  0  0  0  0  0  0  0  0  0  0
  195.9955  180.9000  155.5358 H   0  0  0  0  0  0  0  0  0  0  0  0
  195.9489  182.5985  155.1746 H   0  0  0  0  0  0  0  0  0  0  0  0
  198.0635  183.0528  153.5686 H   0  0  0  0  0  0  0  0  0  0  0  0
  199.6147  181.9690  152.1229 H   0  0  0  0  0  0  0  0  0  0  0  0
  198.4176  180.7908  151.6409 H   0  0  0  0  0  0  0  0  0  0  0  0
  199.8855  181.9782  149.5835 H   0  0  0  0  0  0  0  0  0  0  0  0
  199.4571  183.2920  147.7176 H   0  0  0  0  0  0  0  0  0  0  0  0
  195.8669  184.9438  149.5688 H   0  0  0  0  0  0  0  0  0  0  0  0
  196.3805  183.6068  151.5831 H   0  0  0  0  0  0  0  0  0  0  0  0
  196.3442  184.6301  146.7189 H   0  0  0  0  0  0  0  0  0  0  0  0
  196.9373  186.0455  147.5051 H   0  0  0  0  0  0  0  0  0  0  0  0
  199.3417  183.9710  144.7760 H   0  0  0  0  0  0  0  0  0  0  0  0
  197.6135  183.5479  144.9607 H   0  0  0  0  0  0  0  0  0  0  0  0
  198.7801  183.0356  146.1307 H   0  0  0  0  0  0  0  0  0  0  0  0
  200.3061  185.8157  146.0156 H   0  0  0  0  0  0  0  0  0  0  0  0
  199.9256  185.1571  147.6001 H   0  0  0  0  0  0  0  0  0  0  0  0
  199.3034  186.7385  147.1861 H   0  0  0  0  0  0  0  0  0  0  0  0
  1  2  1  0
  1  9  1  0
  2  3  1  0
  2  7  2  0
  3  4  2  0
  3  8  1  0
  4  5  1  0
  4 37  1  0
  5  6  2  0
  5 38  1  0
  6  7  1  0
  6 39  1  0
  7 40  1  0
  8  9  2  0
  8 10  1  0
  9 41  1  0
 10 11  1  0
 10 42  1  1
 10 43  1  0
 11 12  1  0
 11 22  1  0
 11 44  1  1
 12 13  1  0
 12 45  1  0
 13 14  2  0
 13 15  1  0
 15 16  1  0
 15 46  1  6
 15 47  1  0
 16 17  2  0
 16 21  1  0
 17 18  1  0
 17 48  1  0
 18 19  2  0
 18 49  1  0
 19 20  1  0
 19 50  1  0
 20 21  2  0
 20 51  1  0
 21 52  1  0
 22 23  1  0
 22 53  1  1
 22 54  1  0
 23 24  2  0
 23 25  1  0
 25 26  1  0
 25 55  1  0
 26 27  1  0
 26 56  1  1
 26 57  1  0
 27 28  1  0
 27 32  2  0
 28 29  2  0
 28 58  1  0
 29 30  1  0
 29 59  1  0
 30 31  2  0
 30 33  1  0
 31 32  1  0
 31 60  1  0
 32 61  1  0
 33 34  1  0
 33 62  1  6
 33 63  1  0
 34 35  1  0
 34 36  1  0
 35 64  1  6
 35 65  1  0
 35 66  1  0
 36 67  1  6
 36 68  1  0
 36 69  1  0
M  END
>  <s_epik_cmdline>  (498) 
J2VwaWtfcHl0aG9uJywgJy1waCcsICc3LjAwMDAwMCcsICctcGh0JywgJzIuMDAwMDAwJywgJy1tcycsICcxNicsICctdG4nLCAnOCcsICctbWEnLCAnMjAwJywgJy1pbWFlJywgJzxpbmZpbGUubWFlPicsICctb21hZScsICc8b3V0ZmlsZS5tYWU+Jw==

>  <s_epik_input>  (498) 
W2NIXTFbY0hdW2NIXVtjSF1bY0hdYzFbQ0gyXUMoPU8pW05IXVtDQEhdKFtDSDJdYyhbY0hdczIpYyhjMjMpW2NIXVtjSF1bY0hdW2NIXTMpW0NIMl1DKD1PKVtOSF1bQ0gyXWM0W2NIXVtjSF1jKFtjSF1bY0hdNClbQ0gyXU4oW0NIM10pW0NIM10=

>  <s_i_glide_gridfile>  (498) 
ATP-Grid

>  <s_lp_Force_Field>  (498) 
OPLS_2005

>  <s_lp_Variant>  (498) 
WXCD001____AK00809____LN00144600____SB0092-3

>  <s_lp_label>  (498) 
640_sdstereoexpander_1_neutralizer_1_epik_2_stereoizer_1

>  <s_m_source_file>  (498) 
ATP-VSW-LIGPREP-002-in.maegz

>  <s_sd_BIOSOLVEIT.INFINISEE\_QUERY\_NAME>  (498) 
Ref-Lig

>  <s_sd_BIOSOLVEIT.INFINISEE\_QUERY\_SMILES>  (498) 
S(c1nc2c(cc1C[NH2+]Cc3ccc(cc3)C[NH+](C)C)cccc2)Cc4ccccc4

>  <s_sd_BIOSOLVEIT.INFINISEE\_REACTION\_NAME>  (498) 
WXCD001

>  <s_sd_BIOSOLVEIT.INFINISEE\_REAGENT1\_NAME>  (498) 
AK00809

>  <s_sd_BIOSOLVEIT.INFINISEE\_REAGENT1\_SMILES>  (498) 
N(Cc1ccc(cc1)CN)(C)C

>  <s_sd_BIOSOLVEIT.INFINISEE\_REAGENT2\_NAME>  (498) 
LN00144600

>  <s_sd_BIOSOLVEIT.INFINISEE\_REAGENT2\_SMILES>  (498) 
S1c2c(cccc2)C(=C1)CC(NC(=O)OC(C)(C)C)CC(=O)O

>  <s_sd_BIOSOLVEIT.INFINISEE\_REAGENT3\_NAME>  (498) 
SB0092

>  <s_sd_BIOSOLVEIT.INFINISEE\_REAGENT3\_SMILES>  (498) 
O=C(O)Cc1ccccc1

>  <s_sd_BIOSOLVEIT.INFINISEE\_SPACE>  (498) 
GalaXi_12bn_2023-03

>  <s_vsw_compound_code>  (498) 
20450

>  <s_vsw_variant>  (498) 
20450-3

>  <r_epik_Charging_Adjusted_Penalty>  (498) 
1.55087698650699

>  <r_epik_Ionization_Penalty>  (498) 
1.5508999999999999

>  <r_epik_Ionization_Penalty_Charging>  (498) 
0

>  <r_epik_Ionization_Penalty_Neutral>  (498) 
1.5508999999999999

>  <r_epik_State_Penalty>  (498) 
1.5508999999999999

>  <r_i_docking_score>  (498) 
-2.2445913824872301

>  <r_i_glide_ecoul>  (498) 
-1.59990298748016

>  <r_i_glide_eff_state_penalty>  (498) 
1.5508999999999999

>  <r_i_glide_einternal>  (498) 
13.1862545013428

>  <r_i_glide_emodel>  (498) 
-48.299997331301903

>  <r_i_glide_energy>  (498) 
-44.071018099784901

>  <r_i_glide_erotb>  (498) 
0.81766197312475297

>  <r_i_glide_esite>  (498) 
-0.052107413384892498

>  <r_i_glide_evdw>  (498) 
-42.471115112304702

>  <r_i_glide_gscore>  (498) 
-3.7954913824872301

>  <r_i_glide_hbond>  (498) 
0

>  <r_i_glide_ligand_efficiency>  (498) 
-0.062349760624645402

>  <r_i_glide_ligand_efficiency_ln>  (498) 
-0.48970919780758898

>  <r_i_glide_ligand_efficiency_sa>  (498) 
-0.20587437332265601

>  <r_i_glide_lipo>  (498) 
-2.19524055667166

>  <r_i_glide_metal>  (498) 
-0

>  <r_i_glide_rewards>  (498) 
-0.0022641818181807901

>  <r_lp_Energy>  (498) 
11.751856999999999

>  <r_qp_ACxDN^.5/SA>  (498) 
0.0078971000000000006

>  <r_qp_CIQPlogS>  (498) 
-5.9189999999999996

>  <r_qp_EA(eV)>  (498) 
0.58099999999999996

>  <r_qp_FISA>  (498) 
69.281000000000006

>  <r_qp_FOSA>  (498) 
269.92099999999999

>  <r_qp_IP(eV)>  (498) 
8.6780000000000008

>  <r_qp_Jm>  (498) 
0.42498497848292699

>  <r_qp_PISA>  (498) 
382.21800000000002

>  <r_qp_PSA>  (498) 
71.728999999999999

>  <r_qp_PercentHumanOralAbsorption>  (498) 
100

>  <r_qp_QPPCaco>  (498) 
250.113

>  <r_qp_QPPMDCK>  (498) 
460.00099999999998

>  <r_qp_QPlogBB>  (498) 
-0.25600000000000001

>  <r_qp_QPlogHERG>  (498) 
-3.8599999999999999

>  <r_qp_QPlogKhsa>  (498) 
0.49099999999999999

>  <r_qp_QPlogKp>  (498) 
-2.456

>  <r_qp_QPlogPC16>  (498) 
15.907999999999999

>  <r_qp_QPlogPo/w>  (498) 
4.7169999999999996

>  <r_qp_QPlogPoct>  (498) 
22.443000000000001

>  <r_qp_QPlogPw>  (498) 
12.718999999999999

>  <r_qp_QPlogS>  (498) 
-3.6139999999999999

>  <r_qp_QPpolrz>  (498) 
51.514000000000003

>  <r_qp_SASA>  (498) 
759.77200000000005

>  <r_qp_SAamideO>  (498) 
42.420999999999999

>  <r_qp_SAfluorine>  (498) 
0

>  <r_qp_WPSA>  (498) 
38.351999999999997

>  <r_qp_accptHB>  (498) 
6

>  <r_qp_dip^2/V>  (498) 
0.030587799999999998

>  <r_qp_dipole>  (498) 
6.8330000000000002

>  <r_qp_donorHB>  (498) 
1

>  <r_qp_glob>  (498) 
0.84378779999999998

>  <r_qp_mol_MW>  (498) 
499.67000000000002

>  <r_qp_volume>  (498) 
1526.2550000000001

>  <r_sd_BIOSOLVEIT.INFINISEE\_FTREES\_SIMILARITY>  (498) 
0.90200000000000002

>  <r_sd_BIOSOLVEIT.LOGP>  (498) 
3.5223

>  <r_sd_BIOSOLVEIT.MOLECULAR\_WEIGHT>  (498) 
500.68299999999999

>  <r_sd_BIOSOLVEIT.TPSA>  (498) 
62.640000000000001

>  <i_epik_Tot_Q>  (498) 
0

>  <i_epik_Tot_abs_Q>  (498) 
0

>  <i_f3d_flags>  (498) 
0

>  <i_i_glide_confnum>  (498) 
15

>  <i_i_glide_lignum>  (498) 
193

>  <i_i_glide_posenum>  (498) 
20

>  <i_i_glide_rotatable_bonds>  (498) 
13

>  <i_lp_mmshare_version>  (498) 
65135

>  <i_m_ct_format>  (498) 
2

>  <i_m_source_file_index>  (498) 
640

>  <i_qp_#NandO>  (498) 
5

>  <i_qp_#acid>  (498) 
0

>  <i_qp_#amide>  (498) 
2

>  <i_qp_#amidine>  (498) 
0

>  <i_qp_#amine>  (498) 
1

>  <i_qp_#in34>  (498) 
0

>  <i_qp_#in56>  (498) 
21

>  <i_qp_#metab>  (498) 
7

>  <i_qp_#nonHatm>  (498) 
36

>  <i_qp_#noncon>  (498) 
0

>  <i_qp_#ringatoms>  (498) 
21

>  <i_qp_#rotor>  (498) 
11

>  <i_qp_#rtvFG>  (498) 
0

>  <i_qp_#stars>  (498) 
0

>  <i_qp_CNS>  (498) 
1

>  <i_qp_HumanOralAbsorption>  (498) 
3

>  <i_qp_RuleOfFive>  (498) 
0

>  <i_qp_RuleOfThree>  (498) 
1

>  <i_sd_BIOSOLVEIT.INFINISEE\_RESULT\_RANK>  (498) 
87627

>  <i_sd_version>  (498) 
0

>  <b_lp_Chiralities_Consistent>  (498) 
1

>  <b_sd_chiral_flag>  (498) 
0

>  <canonical_id>  (498) 
ATP-HTVS-4EA46F6E6AE0

>  <compound_code>  (498) 
20450

>  <title>  (498) 
WXCD001____AK00809____LN00144600____SB0092

>  <variant>  (498) 
20450-3

>  <source_file>  (498) 
运行/运行/ATP-VSW/ATP-VSW-DOCK_HTVS_1-002_lib.maegz

>  <canonical_smiles>  (498) 
CN(C)Cc1ccc(CNC(=O)C[C@@H](Cc2csc3ccccc23)NC(=O)Cc2ccccc2)cc1

>  <scaffold>  (498) 
O=C(CC(Cc1csc2ccccc12)NC(=O)Cc1ccccc1)NCc1ccccc1

>  <molecular_formula>  (498) 
C30H33N3O2S

$$$$
ATP-HTVS-4EF6126AB2D8
     RDKit          3D

 63 66  0  0  0  0  0  0  0  0999 V2000
  199.8543  183.4445  159.0467 S   0  0  0  0  0  0  0  0  0  0  0  0
  200.9439  182.2689  158.2996 C   0  0  0  0  0  0  0  0  0  0  0  0
  200.3690  181.7271  157.0984 C   0  0  0  0  0  0  0  0  0  0  0  0
  201.1546  180.7411  156.4346 C   0  0  0  0  0  0  0  0  0  0  0  0
  202.3770  180.2822  156.9278 C   0  0  0  0  0  0  0  0  0  0  0  0
  202.9149  180.8335  158.1005 C   0  0  0  0  0  0  0  0  0  0  0  0
  202.2009  181.8378  158.7801 C   0  0  0  0  0  0  0  0  0  0  0  0
  199.0543  182.3228  156.8325 C   0  0  0  0  0  0  0  0  0  0  0  0
  198.2619  181.9222  155.6135 N   0  0  1  0  0  0  0  0  0  0  0  0
  199.0037  182.0711  154.3364 C   0  0  1  0  0  0  0  0  0  0  0  0
  198.0749  182.2330  153.1585 C   0  0  0  0  0  0  0  0  0  0  0  0
  197.5285  181.0910  152.5267 C   0  0  0  0  0  0  0  0  0  0  0  0
  196.6512  181.2330  151.4405 C   0  0  0  0  0  0  0  0  0  0  0  0
  196.3514  182.5237  150.9613 C   0  0  0  0  0  0  0  0  0  0  0  0
  196.9127  183.6605  151.5717 C   0  0  0  0  0  0  0  0  0  0  0  0
  197.7716  183.5176  152.6752 C   0  0  0  0  0  0  0  0  0  0  0  0
  196.0294  180.0026  150.8069 C   0  0  2  0  0  0  0  0  0  0  0  0
  197.4666  180.6616  155.7632 C   0  0  1  0  0  0  0  0  0  0  0  0
  198.2801  179.3540  155.7456 C   0  0  2  0  0  0  0  0  0  0  0  0
  198.6588  183.2282  157.7910 C   0  0  0  0  0  0  0  0  0  0  0  0
  197.4695  184.1248  157.8961 C   0  0  0  0  0  0  0  0  0  0  0  0
  197.2794  184.9335  156.9945 O   0  0  0  0  0  0  0  0  0  0  0  0
  196.6166  183.9777  158.9478 N   0  0  0  0  0  0  0  0  0  0  0  0
  196.0715  185.1588  159.6038 C   0  0  0  0  0  0  0  0  0  0  0  0
  196.8718  186.3189  159.8031 C   0  0  0  0  0  0  0  0  0  0  0  0
  196.3822  187.4390  160.5233 C   0  0  0  0  0  0  0  0  0  0  0  0
  195.0814  187.4293  161.0654 C   0  0  0  0  0  0  0  0  0  0  0  0
  194.2771  186.2989  160.8706 C   0  0  0  0  0  0  0  0  0  0  0  0
  194.7451  185.1707  160.1652 C   0  0  0  0  0  0  0  0  0  0  0  0
  196.2588  182.6292  159.4352 C   0  0  1  0  0  0  0  0  0  0  0  0
  194.8196  182.1342  159.0372 C   0  0  1  0  0  0  0  0  0  0  0  0
  194.7472  181.5248  157.7293 N   0  0  2  0  0  0  0  0  0  0  0  0
  193.7918  181.2817  157.5411 H   0  0  0  0  0  0  0  0  0  0  0  0
  195.3161  180.6775  157.6796 H   0  0  0  0  0  0  0  0  0  0  0  0
  200.8228  180.2483  155.5399 H   0  0  0  0  0  0  0  0  0  0  0  0
  202.8937  179.4898  156.4027 H   0  0  0  0  0  0  0  0  0  0  0  0
  203.8630  180.4636  158.4575 H   0  0  0  0  0  0  0  0  0  0  0  0
  202.6153  182.2579  159.6851 H   0  0  0  0  0  0  0  0  0  0  0  0
  199.6716  182.9334  154.4046 H   0  0  0  0  0  0  0  0  0  0  0  0
  199.6369  181.2186  154.1120 H   0  0  0  0  0  0  0  0  0  0  0  0
  197.7630  180.0987  152.8829 H   0  0  0  0  0  0  0  0  0  0  0  0
  195.6814  182.6537  150.1406 H   0  0  0  0  0  0  0  0  0  0  0  0
  196.6841  184.6426  151.1938 H   0  0  0  0  0  0  0  0  0  0  0  0
  198.2023  184.3951  153.1406 H   0  0  0  0  0  0  0  0  0  0  0  0
  195.7014  180.2116  149.7899 H   0  0  0  0  0  0  0  0  0  0  0  0
  195.1675  179.6721  151.3868 H   0  0  0  0  0  0  0  0  0  0  0  0
  196.7482  179.1833  150.7692 H   0  0  0  0  0  0  0  0  0  0  0  0
  196.9260  180.6979  156.7056 H   0  0  0  0  0  0  0  0  0  0  0  0
  196.6919  180.6244  154.9980 H   0  0  0  0  0  0  0  0  0  0  0  0
  197.6376  178.4801  155.8553 H   0  0  0  0  0  0  0  0  0  0  0  0
  198.9496  179.3100  156.6039 H   0  0  0  0  0  0  0  0  0  0  0  0
  198.8443  179.2193  154.8232 H   0  0  0  0  0  0  0  0  0  0  0  0
  197.8937  186.3549  159.4595 H   0  0  0  0  0  0  0  0  0  0  0  0
  197.0118  188.2994  160.6878 H   0  0  0  0  0  0  0  0  0  0  0  0
  194.6870  188.2758  161.5956 H   0  0  0  0  0  0  0  0  0  0  0  0
  193.2631  186.2683  161.2449 H   0  0  0  0  0  0  0  0  0  0  0  0
  194.0257  184.3757  160.1462 H   0  0  0  0  0  0  0  0  0  0  0  0
  196.9737  181.8536  159.1691 H   0  0  0  0  0  0  0  0  0  0  0  0
  196.3397  182.6983  160.5101 H   0  0  0  0  0  0  0  0  0  0  0  0
  194.5152  181.3505  159.7481 H   0  0  0  0  0  0  0  0  0  0  0  0
  194.0336  182.8653  158.9364 H   0  0  0  0  0  0  0  0  0  0  0  0
  194.9712  182.2146  157.0208 H   0  0  0  0  0  0  0  0  0  0  0  0
  197.5498  182.6377  155.5173 H   0  0  0  0  0  0  0  0  0  0  0  0
  1  2  1  0
  1 20  1  0
  2  3  1  0
  2  7  2  0
  3  4  2  0
  3  8  1  0
  4  5  1  0
  4 35  1  0
  5  6  2  0
  5 36  1  0
  6  7  1  0
  6 37  1  0
  7 38  1  0
  8  9  1  0
  8 20  2  0
  9 10  1  0
  9 18  1  0
  9 63  1  6
 10 11  1  0
 10 39  1  1
 10 40  1  0
 11 12  1  0
 11 16  2  0
 12 13  2  0
 12 41  1  0
 13 14  1  0
 13 17  1  0
 14 15  2  0
 14 42  1  0
 15 16  1  0
 15 43  1  0
 16 44  1  0
 17 45  1  6
 17 46  1  0
 17 47  1  0
 18 19  1  0
 18 48  1  1
 18 49  1  0
 19 50  1  1
 19 51  1  0
 19 52  1  0
 20 21  1  0
 21 22  2  0
 21 23  1  0
 23 24  1  0
 23 30  1  0
 24 25  2  0
 24 29  1  0
 25 26  1  0
 25 53  1  0
 26 27  2  0
 26 54  1  0
 27 28  1  0
 27 55  1  0
 28 29  2  0
 28 56  1  0
 29 57  1  0
 30 31  1  0
 30 58  1  6
 30 59  1  0
 31 32  1  0
 31 60  1  1
 31 61  1  0
 32 33  1  6
 32 34  1  0
 32 62  1  0
M  CHG  2   9   1  32   1
M  END
>  <s_epik_cmdline>  (499) 
J2VwaWtfcHl0aG9uJywgJy1waCcsICc3LjAwMDAwMCcsICctcGh0JywgJzIuMDAwMDAwJywgJy1tcycsICcxNicsICctdG4nLCAnOCcsICctbWEnLCAnMjAwJywgJy1pbWFlJywgJzxpbmZpbGUubWFlPicsICctb21hZScsICc8b3V0ZmlsZS5tYWU+Jw==

>  <s_epik_input>  (499) 
W2NIXTFbY0hdW2NIXVtjSF1bY0hdYzFOKFtDSDJdW0NIMl1bTkgyXSlDKD1PKWMoczIpYyhjKGMyMylbY0hdW2NIXVtjSF1bY0hdMylOKFtDSDJdW0NIM10pW0NIMl1jNFtjSF1jKFtDSDNdKVtjSF1bY0hdW2NIXTQ=

>  <s_i_glide_gridfile>  (499) 
ATP-Grid

>  <s_lp_Force_Field>  (499) 
OPLS_2005

>  <s_lp_Variant>  (499) 
rxn512c____EMOL530647____EMOL523944____EMOL31407295-2

>  <s_lp_label>  (499) 
2803_sdstereoexpander_1_neutralizer_1_epik_2_stereoizer_1

>  <s_m_source_file>  (499) 
ATP-VSW-LIGPREP-002-in.maegz

>  <s_sd_BIOSOLVEIT.INFINISEE\_QUERY\_NAME>  (499) 
Ref-Lig

>  <s_sd_BIOSOLVEIT.INFINISEE\_QUERY\_SMILES>  (499) 
S(c1nc2c(cc1C[NH2+]Cc3ccc(cc3)C[NH+](C)C)cccc2)Cc4ccccc4

>  <s_sd_BIOSOLVEIT.INFINISEE\_REACTION\_NAME>  (499) 
rxn512c

>  <s_sd_BIOSOLVEIT.INFINISEE\_REAGENT1\_NAME>  (499) 
EMOL530647

>  <s_sd_BIOSOLVEIT.INFINISEE\_REAGENT1\_SMILES>  (499) 
N(c1ccccc1)CCN

>  <s_sd_BIOSOLVEIT.INFINISEE\_REAGENT2\_NAME>  (499) 
EMOL523944

>  <s_sd_BIOSOLVEIT.INFINISEE\_REAGENT2\_SMILES>  (499) 
ClC=1c2c(SC1C(=O)O)cccc2

>  <s_sd_BIOSOLVEIT.INFINISEE\_REAGENT3\_NAME>  (499) 
EMOL31407295

>  <s_sd_BIOSOLVEIT.INFINISEE\_REAGENT3\_SMILES>  (499) 
N(Cc1cc(ccc1)C)CC

>  <s_sd_BIOSOLVEIT.INFINISEE\_SPACE>  (499) 
eXplore_7tr_2022-12

>  <s_vsw_compound_code>  (499) 
89666

>  <s_vsw_variant>  (499) 
89666-2

>  <r_epik_Charging_Adjusted_Penalty>  (499) 
2.5642301349191898

>  <r_epik_Ionization_Penalty>  (499) 
1.3258000000000001

>  <r_epik_Ionization_Penalty_Charging>  (499) 
1.3258000000000001

>  <r_epik_Ionization_Penalty_Neutral>  (499) 
0

>  <r_epik_State_Penalty>  (499) 
1.2384999999999999

>  <r_i_docking_score>  (499) 
-5.7249321129203299

>  <r_i_glide_ecoul>  (499) 
-16.057113647460898

>  <r_i_glide_eff_state_penalty>  (499) 
1.2384999999999999

>  <r_i_glide_einternal>  (499) 
21.724596023559599

>  <r_i_glide_emodel>  (499) 
-75.827685934168898

>  <r_i_glide_energy>  (499) 
-51.480220794677699

>  <r_i_glide_erotb>  (499) 
0.49374902695039102

>  <r_i_glide_esite>  (499) 
-0.117616438547592

>  <r_i_glide_evdw>  (499) 
-35.423107147216797

>  <r_i_glide_gscore>  (499) 
-6.96343211292033

>  <r_i_glide_hbond>  (499) 
-0.28734243931609099

>  <r_i_glide_ligand_efficiency>  (499) 
-0.17890412852876

>  <r_i_glide_ligand_efficiency_ln>  (499) 
-1.2819683558383199

>  <r_i_glide_ligand_efficiency_sa>  (499) 
-0.567985202999854

>  <r_i_glide_lipo>  (499) 
-1.8370128292824499

>  <r_i_glide_metal>  (499) 
-0

>  <r_i_glide_rewards>  (499) 
-1.03548702824461

>  <r_lp_Energy>  (499) 
52.950767999999997

>  <r_qp_ACxDN^.5/SA>  (499) 
0.010148300000000001

>  <r_qp_CIQPlogS>  (499) 
-5.3159999999999998

>  <r_qp_EA(eV)>  (499) 
0.872

>  <r_qp_FISA>  (499) 
46.915999999999997

>  <r_qp_FOSA>  (499) 
257.22800000000001

>  <r_qp_IP(eV)>  (499) 
8.8079999999999998

>  <r_qp_Jm>  (499) 
0.014648101716448101

>  <r_qp_PISA>  (499) 
378.80900000000003

>  <r_qp_PSA>  (499) 
50.802

>  <r_qp_PercentHumanOralAbsorption>  (499) 
96.856999999999999

>  <r_qp_QPPCaco>  (499) 
221.20400000000001

>  <r_qp_QPPMDCK>  (499) 
141.13200000000001

>  <r_qp_QPlogBB>  (499) 
0.42599999999999999

>  <r_qp_QPlogHERG>  (499) 
-7.1120000000000001

>  <r_qp_QPlogKhsa>  (499) 
0.94899999999999995

>  <r_qp_QPlogKp>  (499) 
-4.3109999999999999

>  <r_qp_QPlogPC16>  (499) 
14.436

>  <r_qp_QPlogPo/w>  (499) 
4.7729999999999997

>  <r_qp_QPlogPoct>  (499) 
21.271999999999998

>  <r_qp_QPlogPw>  (499) 
10.166

>  <r_qp_QPlogS>  (499) 
-3.1699999999999999

>  <r_qp_QPpolrz>  (499) 
46.552999999999997

>  <r_qp_SASA>  (499) 
696.77499999999998

>  <r_qp_SAamideO>  (499) 
0

>  <r_qp_SAfluorine>  (499) 
0

>  <r_qp_WPSA>  (499) 
13.821999999999999

>  <r_qp_accptHB>  (499) 
5

>  <r_qp_dip^2/V>  (499) 
0.0193025

>  <r_qp_dipole>  (499) 
5.1440000000000001

>  <r_qp_donorHB>  (499) 
2

>  <r_qp_glob>  (499) 
0.85657649999999996

>  <r_qp_mol_MW>  (499) 
443.60599999999999

>  <r_qp_volume>  (499) 
1371.011

>  <r_sd_BIOSOLVEIT.INFINISEE\_FTREES\_SIMILARITY>  (499) 
0.90600000000000003

>  <r_sd_BIOSOLVEIT.LOGP>  (499) 
5.1249200000000004

>  <r_sd_BIOSOLVEIT.MOLECULAR\_WEIGHT>  (499) 
444.61900000000003

>  <r_sd_BIOSOLVEIT.TPSA>  (499) 
51.189999999999998

>  <i_epik_Tot_Q>  (499) 
2

>  <i_epik_Tot_abs_Q>  (499) 
2

>  <i_f3d_flags>  (499) 
0

>  <i_i_glide_confnum>  (499) 
7

>  <i_i_glide_lignum>  (499) 
1358

>  <i_i_glide_posenum>  (499) 
17

>  <i_i_glide_rotatable_bonds>  (499) 
9

>  <i_lp_mmshare_version>  (499) 
65135

>  <i_m_ct_format>  (499) 
2

>  <i_m_source_file_index>  (499) 
2803

>  <i_qp_#NandO>  (499) 
4

>  <i_qp_#acid>  (499) 
0

>  <i_qp_#amide>  (499) 
0

>  <i_qp_#amidine>  (499) 
0

>  <i_qp_#amine>  (499) 
2

>  <i_qp_#in34>  (499) 
0

>  <i_qp_#in56>  (499) 
21

>  <i_qp_#metab>  (499) 
7

>  <i_qp_#nonHatm>  (499) 
32

>  <i_qp_#noncon>  (499) 
0

>  <i_qp_#ringatoms>  (499) 
21

>  <i_qp_#rotor>  (499) 
9

>  <i_qp_#rtvFG>  (499) 
0

>  <i_qp_#stars>  (499) 
0

>  <i_qp_CNS>  (499) 
1

>  <i_qp_HumanOralAbsorption>  (499) 
3

>  <i_qp_RuleOfFive>  (499) 
0

>  <i_qp_RuleOfThree>  (499) 
1

>  <i_sd_BIOSOLVEIT.INFINISEE\_RESULT\_RANK>  (499) 
63825

>  <i_sd_version>  (499) 
0

>  <b_lp_Chiralities_Consistent>  (499) 
1

>  <b_sd_chiral_flag>  (499) 
0

>  <canonical_id>  (499) 
ATP-HTVS-4EF6126AB2D8

>  <compound_code>  (499) 
89666

>  <title>  (499) 
rxn512c____EMOL530647____EMOL523944____EMOL31407295

>  <variant>  (499) 
89666-2

>  <source_file>  (499) 
运行/运行/ATP-VSW/ATP-VSW-DOCK_HTVS_1-002_lib.maegz

>  <canonical_smiles>  (499) 
CC[N@H+](Cc1cccc(C)c1)c1c(C(=O)N(CC[NH3+])c2ccccc2)sc2ccccc12

>  <scaffold>  (499) 
O=C(Nc1ccccc1)c1sc2ccccc2c1[NH2+]Cc1ccccc1

>  <molecular_formula>  (499) 
C27H31N3OS+2

$$$$
ATP-HTVS-4F22ABB48DC5
     RDKit          3D

 65 68  0  0  0  0  0  0  0  0999 V2000
  201.0042  178.1143  156.9586 S   0  0  0  0  0  0  0  0  0  0  0  0
  201.3185  176.6196  156.0870 C   0  0  0  0  0  0  0  0  0  0  0  0
  200.7830  176.6793  154.7680 C   0  0  0  0  0  0  0  0  0  0  0  0
  200.9843  175.5299  153.9584 C   0  0  0  0  0  0  0  0  0  0  0  0
  201.6637  174.3880  154.4202 C   0  0  0  0  0  0  0  0  0  0  0  0
  202.1889  174.3645  155.7233 C   0  0  0  0  0  0  0  0  0  0  0  0
  202.0078  175.4843  156.5457 C   0  0  0  0  0  0  0  0  0  0  0  0
  200.1212  177.9491  154.4897 C   0  0  0  0  0  0  0  0  0  0  0  0
  199.5527  178.1498  153.2116 N   0  0  0  0  0  0  0  0  0  0  0  0
  198.9242  179.3890  152.7628 C   0  0  1  0  0  0  0  0  0  0  0  0
  198.6951  179.4165  151.2836 C   0  0  0  0  0  0  0  0  0  0  0  0
  197.3701  179.3925  150.7733 C   0  0  0  0  0  0  0  0  0  0  0  0
  197.1688  179.4541  149.3808 C   0  0  0  0  0  0  0  0  0  0  0  0
  198.3061  179.5463  148.5425 C   0  0  0  0  0  0  0  0  0  0  0  0
  199.6089  179.5526  149.0493 C   0  0  0  0  0  0  0  0  0  0  0  0
  199.7996  179.4870  150.4329 C   0  0  0  0  0  0  0  0  0  0  0  0
  198.1814  179.6082  147.0452 C   0  0  1  0  0  0  0  0  0  0  0  0
  198.4937  178.3293  146.3865 N   0  0  1  0  0  0  0  0  0  0  0  0
  197.7308  177.1860  146.9645 C   0  0  2  0  0  0  0  0  0  0  0  0
  198.3313  178.4203  144.9253 C   0  0  2  0  0  0  0  0  0  0  0  0
  200.1817  178.7992  155.5802 C   0  0  0  0  0  0  0  0  0  0  0  0
  199.6885  180.1709  155.8250 C   0  0  0  0  0  0  0  0  0  0  0  0
  200.5088  181.1011  155.8275 O   0  0  0  0  0  0  0  0  0  0  0  0
  198.3593  180.3644  156.0395 N   0  0  0  0  0  0  0  0  0  0  0  0
  197.8539  181.5788  156.6163 C   0  0  0  0  0  0  0  0  0  0  0  0
  198.0629  182.8428  156.0031 C   0  0  0  0  0  0  0  0  0  0  0  0
  197.5118  184.0105  156.5819 C   0  0  0  0  0  0  0  0  0  0  0  0
  196.7456  183.9618  157.7724 C   0  0  0  0  0  0  0  0  0  0  0  0
  196.5373  182.7056  158.3770 C   0  0  0  0  0  0  0  0  0  0  0  0
  197.1055  181.5511  157.8263 C   0  0  0  0  0  0  0  0  0  0  0  0
  196.1776  185.1870  158.3950 C   0  0  0  0  0  0  0  0  0  0  0  0
  196.2144  186.2911  157.8555 O   0  0  0  0  0  0  0  0  0  0  0  0
  195.6216  184.9488  159.6027 O   0  0  0  0  0  0  0  0  0  0  0  0
  195.0596  186.0164  160.3364 C   0  0  2  0  0  0  0  0  0  0  0  0
  197.3878  179.2983  155.7261 C   0  0  2  0  0  0  0  0  0  0  0  0
  200.5922  175.5221  152.9567 H   0  0  0  0  0  0  0  0  0  0  0  0
  201.7837  173.5151  153.7896 H   0  0  0  0  0  0  0  0  0  0  0  0
  202.7095  173.4976  156.0947 H   0  0  0  0  0  0  0  0  0  0  0  0
  202.4223  175.4588  157.5332 H   0  0  0  0  0  0  0  0  0  0  0  0
  199.6060  177.3846  152.5553 H   0  0  0  0  0  0  0  0  0  0  0  0
  197.9313  179.5014  153.1414 H   0  0  0  0  0  0  0  0  0  0  0  0
  199.5168  180.2560  153.0623 H   0  0  0  0  0  0  0  0  0  0  0  0
  196.5226  179.3433  151.4354 H   0  0  0  0  0  0  0  0  0  0  0  0
  196.1588  179.4423  148.9918 H   0  0  0  0  0  0  0  0  0  0  0  0
  200.4467  179.6167  148.3786 H   0  0  0  0  0  0  0  0  0  0  0  0
  200.8008  179.5087  150.8348 H   0  0  0  0  0  0  0  0  0  0  0  0
  197.1709  179.7406  146.7896 H   0  0  0  0  0  0  0  0  0  0  0  0
  198.7302  180.4538  146.6205 H   0  0  0  0  0  0  0  0  0  0  0  0
  196.6626  177.3556  146.7428 H   0  0  0  0  0  0  0  0  0  0  0  0
  197.8820  177.0640  148.0396 H   0  0  0  0  0  0  0  0  0  0  0  0
  198.0723  176.2223  146.5489 H   0  0  0  0  0  0  0  0  0  0  0  0
  197.2923  178.5811  144.5980 H   0  0  0  0  0  0  0  0  0  0  0  0
  198.7104  177.4715  144.5612 H   0  0  0  0  0  0  0  0  0  0  0  0
  198.9241  179.2377  144.5021 H   0  0  0  0  0  0  0  0  0  0  0  0
  198.6396  182.8963  155.0935 H   0  0  0  0  0  0  0  0  0  0  0  0
  197.6839  184.9556  156.0977 H   0  0  0  0  0  0  0  0  0  0  0  0
  195.9545  182.5705  159.2795 H   0  0  0  0  0  0  0  0  0  0  0  0
  196.9214  180.6661  158.3758 H   0  0  0  0  0  0  0  0  0  0  0  0
  194.6724  185.6500  161.2867 H   0  0  0  0  0  0  0  0  0  0  0  0
  194.2407  186.4765  159.7861 H   0  0  0  0  0  0  0  0  0  0  0  0
  195.8149  186.7754  160.5407 H   0  0  0  0  0  0  0  0  0  0  0  0
  196.4332  179.5889  156.1480 H   0  0  0  0  0  0  0  0  0  0  0  0
  197.6788  178.3036  156.1357 H   0  0  0  0  0  0  0  0  0  0  0  0
  197.1592  179.1298  154.6977 H   0  0  0  0  0  0  0  0  0  0  0  0
  199.4732  178.1573  146.5530 H   0  0  0  0  0  0  0  0  0  0  0  0
  1  2  1  0
  1 21  1  0
  2  3  1  0
  2  7  2  0
  3  4  2  0
  3  8  1  0
  4  5  1  0
  4 36  1  0
  5  6  2  0
  5 37  1  0
  6  7  1  0
  6 38  1  0
  7 39  1  0
  8  9  1  0
  8 21  2  0
  9 10  1  0
  9 40  1  0
 10 11  1  0
 10 41  1  1
 10 42  1  0
 11 12  1  0
 11 16  2  0
 12 13  2  0
 12 43  1  0
 13 14  1  0
 13 44  1  0
 14 15  2  0
 14 17  1  0
 15 16  1  0
 15 45  1  0
 16 46  1  0
 17 18  1  0
 17 47  1  1
 17 48  1  0
 18 19  1  0
 18 20  1  0
 18 65  1  6
 19 49  1  1
 19 50  1  0
 19 51  1  0
 20 52  1  1
 20 53  1  0
 20 54  1  0
 21 22  1  0
 22 23  2  0
 22 24  1  0
 24 25  1  0
 24 35  1  0
 25 26  1  0
 25 30  2  0
 26 27  2  0
 26 55  1  0
 27 28  1  0
 27 56  1  0
 28 29  2  0
 28 31  1  0
 29 30  1  0
 29 57  1  0
 30 58  1  0
 31 32  2  0
 31 33  1  0
 33 34  1  0
 34 59  1  1
 34 60  1  0
 34 61  1  0
 35 62  1  1
 35 63  1  0
 35 64  1  0
M  CHG  1  18   1
M  END
>  <s_epik_Chemistry_Notes>  (500) 
This compound has an ester and may undergo hydrolysis at high or low pH.

>  <s_epik_cmdline>  (500) 
J2VwaWtfcHl0aG9uJywgJy1waCcsICc3LjAwMDAwMCcsICctcGh0JywgJzIuMDAwMDAwJywgJy1tcycsICcxNicsICctdG4nLCAnOCcsICctbWEnLCAnMjAwJywgJy1pbWFlJywgJzxpbmZpbGUubWFlPicsICctb21hZScsICc8b3V0ZmlsZS5tYWU+Jw==

>  <s_epik_input>  (500) 
W0NIM11PQyg9TyljKFtjSF1bY0hdMSlbY0hdW2NIXWMxTihbQ0gzXSlDKD1PKWMoczIpYyhjKGMyMylbY0hdW2NIXVtjSF1bY0hdMylbTkhdW0NIMl1jNFtjSF1bY0hdYyhbY0hdW2NIXTQpW0NIMl1OKFtDSDNdKVtDSDNd

>  <s_i_glide_gridfile>  (500) 
ATP-Grid

>  <s_lp_Force_Field>  (500) 
OPLS_2005

>  <s_lp_Variant>  (500) 
rxn512c____EMOL884318____EMOL523944____EMOL50155899-1

>  <s_lp_label>  (500) 
2238_sdstereoexpander_1_neutralizer_1_epik_1_stereoizer_1

>  <s_m_source_file>  (500) 
ATP-VSW-LIGPREP-002-in.maegz

>  <s_sd_BIOSOLVEIT.INFINISEE\_QUERY\_NAME>  (500) 
Ref-Lig

>  <s_sd_BIOSOLVEIT.INFINISEE\_QUERY\_SMILES>  (500) 
S(c1nc2c(cc1C[NH2+]Cc3ccc(cc3)C[NH+](C)C)cccc2)Cc4ccccc4

>  <s_sd_BIOSOLVEIT.INFINISEE\_REACTION\_NAME>  (500) 
rxn512c

>  <s_sd_BIOSOLVEIT.INFINISEE\_REAGENT1\_NAME>  (500) 
EMOL884318

>  <s_sd_BIOSOLVEIT.INFINISEE\_REAGENT1\_SMILES>  (500) 
O=C(OC)c1ccc(NC)cc1

>  <s_sd_BIOSOLVEIT.INFINISEE\_REAGENT2\_NAME>  (500) 
EMOL523944

>  <s_sd_BIOSOLVEIT.INFINISEE\_REAGENT2\_SMILES>  (500) 
ClC=1c2c(SC1C(=O)O)cccc2

>  <s_sd_BIOSOLVEIT.INFINISEE\_REAGENT3\_NAME>  (500) 
EMOL50155899

>  <s_sd_BIOSOLVEIT.INFINISEE\_REAGENT3\_SMILES>  (500) 
N(Cc1ccc(cc1)CN)(C)C

>  <s_sd_BIOSOLVEIT.INFINISEE\_SPACE>  (500) 
eXplore_7tr_2022-12

>  <s_vsw_compound_code>  (500) 
71586

>  <s_vsw_variant>  (500) 
71586-1

>  <r_epik_Charging_Adjusted_Penalty>  (500) 
0.080189274810459593

>  <r_epik_Ionization_Penalty>  (500) 
0.040099999999999997

>  <r_epik_Ionization_Penalty_Charging>  (500) 
0.040099999999999997

>  <r_epik_Ionization_Penalty_Neutral>  (500) 
0

>  <r_epik_State_Penalty>  (500) 
0.040099999999999997

>  <r_i_docking_score>  (500) 
-3.1548967699007302

>  <r_i_glide_ecoul>  (500) 
-5.3839869499206499

>  <r_i_glide_eff_state_penalty>  (500) 
0.040099999999999997

>  <r_i_glide_einternal>  (500) 
7.2985515594482404

>  <r_i_glide_emodel>  (500) 
-31.951149271405601

>  <r_i_glide_energy>  (500) 
-26.959336757659901

>  <r_i_glide_erotb>  (500) 
0.68146946619163995

>  <r_i_glide_esite>  (500) 
-0.099546643127218504

>  <r_i_glide_evdw>  (500) 
-21.5753498077393

>  <r_i_glide_gscore>  (500) 
-3.19499676990073

>  <r_i_glide_hbond>  (500) 
0

>  <r_i_glide_ligand_efficiency>  (500) 
-0.090139907711449405

>  <r_i_glide_ligand_efficiency_ln>  (500) 
-0.69256986015448496

>  <r_i_glide_ligand_efficiency_sa>  (500) 
-0.29485361496899498

>  <r_i_glide_lipo>  (500) 
-1.68498009681962

>  <r_i_glide_metal>  (500) 
-0

>  <r_i_glide_rewards>  (500) 
-0.20557396327046401

>  <r_lp_Energy>  (500) 
51.004427

>  <r_qp_ACxDN^.5/SA>  (500) 
0

>  <r_qp_CIQPlogS>  (500) 
-5.3440000000000003

>  <r_qp_EA(eV)>  (500) 
0.68700000000000006

>  <r_qp_FISA>  (500) 
92.010999999999996

>  <r_qp_FOSA>  (500) 
363.82900000000001

>  <r_qp_IP(eV)>  (500) 
7.9710000000000001

>  <r_qp_Jm>  (500) 
1.3764629700341399e-05

>  <r_qp_PISA>  (500) 
379.88900000000001

>  <r_qp_PSA>  (500) 
76.650999999999996

>  <r_qp_PercentHumanOralAbsorption>  (500) 
90.522999999999996

>  <r_qp_QPPCaco>  (500) 
82.634

>  <r_qp_QPPMDCK>  (500) 
58.689

>  <r_qp_QPlogBB>  (500) 
-0.124

>  <r_qp_QPlogHERG>  (500) 
-8.7430000000000003

>  <r_qp_QPlogKhsa>  (500) 
0.96599999999999997

>  <r_qp_QPlogKp>  (500) 
-5.234

>  <r_qp_QPlogPC16>  (500) 
16.652000000000001

>  <r_qp_QPlogPo/w>  (500) 
4.9980000000000002

>  <r_qp_QPlogPoct>  (500) 
22.594999999999999

>  <r_qp_QPlogPw>  (500) 
10.15

>  <r_qp_QPlogS>  (500) 
-5.3150000000000004

>  <r_qp_QPpolrz>  (500) 
55.204000000000001

>  <r_qp_SASA>  (500) 
864.36599999999999

>  <r_qp_SAamideO>  (500) 
0

>  <r_qp_SAfluorine>  (500) 
0

>  <r_qp_WPSA>  (500) 
28.637

>  <r_qp_accptHB>  (500) 
7

>  <r_qp_dip^2/V>  (500) 
0.0331604

>  <r_qp_dipole>  (500) 
7.2169999999999996

>  <r_qp_donorHB>  (500) 
0

>  <r_qp_glob>  (500) 
0.7560772

>  <r_qp_mol_MW>  (500) 
487.61500000000001

>  <r_qp_volume>  (500) 
1570.8979999999999

>  <r_sd_BIOSOLVEIT.INFINISEE\_FTREES\_SIMILARITY>  (500) 
0.92700000000000005

>  <r_sd_BIOSOLVEIT.LOGP>  (500) 
4.2210999999999999

>  <r_sd_BIOSOLVEIT.MOLECULAR\_WEIGHT>  (500) 
488.62799999999999

>  <r_sd_BIOSOLVEIT.TPSA>  (500) 
63.079999999999998

>  <i_epik_Tot_Q>  (500) 
1

>  <i_epik_Tot_abs_Q>  (500) 
1

>  <i_f3d_flags>  (500) 
0

>  <i_i_glide_confnum>  (500) 
1

>  <i_i_glide_lignum>  (500) 
879

>  <i_i_glide_posenum>  (500) 
1

>  <i_i_glide_rotatable_bonds>  (500) 
10

>  <i_lp_mmshare_version>  (500) 
65135

>  <i_m_ct_format>  (500) 
2

>  <i_m_source_file_index>  (500) 
2238

>  <i_qp_#NandO>  (500) 
6

>  <i_qp_#acid>  (500) 
0

>  <i_qp_#amide>  (500) 
0

>  <i_qp_#amidine>  (500) 
0

>  <i_qp_#amine>  (500) 
2

>  <i_qp_#in34>  (500) 
0

>  <i_qp_#in56>  (500) 
21

>  <i_qp_#metab>  (500) 
6

>  <i_qp_#nonHatm>  (500) 
35

>  <i_qp_#noncon>  (500) 
0

>  <i_qp_#ringatoms>  (500) 
21

>  <i_qp_#rotor>  (500) 
8

>  <i_qp_#rtvFG>  (500) 
1

>  <i_qp_#stars>  (500) 
0

>  <i_qp_CNS>  (500) 
1

>  <i_qp_HumanOralAbsorption>  (500) 
3

>  <i_qp_RuleOfFive>  (500) 
0

>  <i_qp_RuleOfThree>  (500) 
0

>  <i_sd_BIOSOLVEIT.INFINISEE\_RESULT\_RANK>  (500) 
6705

>  <i_sd_version>  (500) 
0

>  <b_lp_Chiralities_Consistent>  (500) 
1

>  <b_sd_chiral_flag>  (500) 
0

>  <canonical_id>  (500) 
ATP-HTVS-4F22ABB48DC5

>  <compound_code>  (500) 
71586

>  <title>  (500) 
rxn512c____EMOL884318____EMOL523944____EMOL50155899

>  <variant>  (500) 
71586-1

>  <source_file>  (500) 
运行/运行/ATP-VSW/ATP-VSW-DOCK_HTVS_1-002_lib.maegz

>  <canonical_smiles>  (500) 
COC(=O)c1ccc(N(C)C(=O)c2sc3ccccc3c2NCc2ccc(C[NH+](C)C)cc2)cc1

>  <scaffold>  (500) 
O=C(Nc1ccccc1)c1sc2ccccc2c1NCc1ccccc1

>  <molecular_formula>  (500) 
C28H30N3O3S+

$$$$
ATP-HTVS-4F450E2E91A2
     RDKit          3D

 59 62  0  0  0  0  0  0  0  0999 V2000
  199.2220  182.0570  147.8266 Cl  0  0  0  0  0  0  0  0  0  0  0  0
  198.0366  182.6408  148.9429 C   0  0  0  0  0  0  0  0  0  0  0  0
  197.4007  183.8932  148.7719 C   0  0  0  0  0  0  0  0  0  0  0  0
  197.7094  184.7473  147.6343 C   0  0  0  0  0  0  0  0  0  0  0  0
  197.9548  185.4261  146.7304 N   0  0  0  0  0  0  0  0  0  0  0  0
  196.4391  184.3219  149.7126 C   0  0  0  0  0  0  0  0  0  0  0  0
  196.1032  183.5069  150.8117 C   0  0  0  0  0  0  0  0  0  0  0  0
  196.7267  182.2528  150.9668 C   0  0  0  0  0  0  0  0  0  0  0  0
  197.6980  181.8293  150.0409 C   0  0  0  0  0  0  0  0  0  0  0  0
  196.3449  181.3332  152.1012 C   0  0  1  0  0  0  0  0  0  0  0  0
  196.7437  181.8369  153.4058 N   0  0  0  0  0  0  0  0  0  0  0  0
  197.5539  181.0433  154.2282 C   0  0  0  0  0  0  0  0  0  0  0  0
  198.4183  180.1945  153.6284 N   0  0  0  0  0  0  0  0  0  0  0  0
  199.2048  179.4180  154.4055 C   0  0  0  0  0  0  0  0  0  0  0  0
  199.1547  179.5267  155.8257 C   0  0  0  0  0  0  0  0  0  0  0  0
  198.3278  180.4202  156.4169 N   0  0  0  0  0  0  0  0  0  0  0  0
  197.4922  181.1458  155.6405 C   0  0  0  0  0  0  0  0  0  0  0  0
  196.6237  182.0535  156.2785 N   0  0  0  0  0  0  0  0  0  0  0  0
  196.1065  181.7192  157.6054 C   0  0  1  0  0  0  0  0  0  0  0  0
  195.7282  182.9226  158.4498 C   0  0  0  0  0  0  0  0  0  0  0  0
  196.7039  183.7861  159.0264 C   0  0  0  0  0  0  0  0  0  0  0  0
  196.2819  184.8548  159.8382 C   0  0  0  0  0  0  0  0  0  0  0  0
  194.9174  185.0793  160.0793 C   0  0  0  0  0  0  0  0  0  0  0  0
  194.5404  186.1059  160.8744 F   0  0  0  0  0  0  0  0  0  0  0  0
  193.9558  184.2349  159.4977 C   0  0  0  0  0  0  0  0  0  0  0  0
  194.3612  183.1636  158.6844 C   0  0  0  0  0  0  0  0  0  0  0  0
  198.2015  183.6016  158.8102 C   0  0  1  0  0  0  0  0  0  0  0  0
  198.5928  183.6602  157.3832 N   0  0  1  0  0  0  0  0  0  0  0  0
  198.1736  184.8940  156.6760 C   0  0  2  0  0  0  0  0  0  0  0  0
  200.0093  183.3091  157.1449 C   0  0  2  0  0  0  0  0  0  0  0  0
  199.9729  178.6843  156.6077 C   0  0  0  0  0  0  0  0  0  0  0  0
  200.8291  177.7382  156.0080 C   0  0  0  0  0  0  0  0  0  0  0  0
  200.8709  177.6266  154.6055 C   0  0  0  0  0  0  0  0  0  0  0  0
  200.0600  178.4637  153.8152 C   0  0  0  0  0  0  0  0  0  0  0  0
  195.9476  185.2731  149.5743 H   0  0  0  0  0  0  0  0  0  0  0  0
  195.3589  183.8341  151.5259 H   0  0  0  0  0  0  0  0  0  0  0  0
  198.1745  180.8679  150.1697 H   0  0  0  0  0  0  0  0  0  0  0  0
  195.2646  181.2413  152.1155 H   0  0  0  0  0  0  0  0  0  0  0  0
  196.7145  180.3269  151.8905 H   0  0  0  0  0  0  0  0  0  0  0  0
  196.0560  182.4276  153.8500 H   0  0  0  0  0  0  0  0  0  0  0  0
  195.9518  182.5429  155.6993 H   0  0  0  0  0  0  0  0  0  0  0  0
  195.2115  181.1210  157.4378 H   0  0  0  0  0  0  0  0  0  0  0  0
  196.7844  181.1009  158.2019 H   0  0  0  0  0  0  0  0  0  0  0  0
  197.0089  185.5078  160.2970 H   0  0  0  0  0  0  0  0  0  0  0  0
  192.9089  184.4178  159.6810 H   0  0  0  0  0  0  0  0  0  0  0  0
  193.6098  182.5152  158.2524 H   0  0  0  0  0  0  0  0  0  0  0  0
  198.7555  184.3695  159.3601 H   0  0  0  0  0  0  0  0  0  0  0  0
  198.4909  182.6386  159.2428 H   0  0  0  0  0  0  0  0  0  0  0  0
  198.6478  185.7872  157.0927 H   0  0  0  0  0  0  0  0  0  0  0  0
  197.0913  185.0180  156.7263 H   0  0  0  0  0  0  0  0  0  0  0  0
  198.4191  184.8192  155.6161 H   0  0  0  0  0  0  0  0  0  0  0  0
  200.6837  184.0488  157.5758 H   0  0  0  0  0  0  0  0  0  0  0  0
  200.2081  183.2429  156.0792 H   0  0  0  0  0  0  0  0  0  0  0  0
  200.2445  182.3381  157.5737 H   0  0  0  0  0  0  0  0  0  0  0  0
  199.9124  178.7375  157.6867 H   0  0  0  0  0  0  0  0  0  0  0  0
  201.4531  177.0970  156.6196 H   0  0  0  0  0  0  0  0  0  0  0  0
  201.5269  176.9060  154.1353 H   0  0  0  0  0  0  0  0  0  0  0  0
  200.0873  178.3774  152.7392 H   0  0  0  0  0  0  0  0  0  0  0  0
  198.0268  182.9241  156.9615 H   0  0  0  0  0  0  0  0  0  0  0  0
  1  2  1  0
  2  3  2  0
  2  9  1  0
  3  4  1  0
  3  6  1  0
  4  5  3  0
  6  7  2  0
  6 35  1  0
  7  8  1  0
  7 36  1  0
  8  9  2  0
  8 10  1  0
  9 37  1  0
 10 11  1  0
 10 38  1  1
 10 39  1  0
 11 12  1  0
 11 40  1  0
 12 13  2  0
 12 17  1  0
 13 14  1  0
 14 15  1  0
 14 34  2  0
 15 16  1  0
 15 31  2  0
 16 17  2  0
 17 18  1  0
 18 19  1  0
 18 41  1  0
 19 20  1  0
 19 42  1  6
 19 43  1  0
 20 21  2  0
 20 26  1  0
 21 22  1  0
 21 27  1  0
 22 23  2  0
 22 44  1  0
 23 24  1  0
 23 25  1  0
 25 26  2  0
 25 45  1  0
 26 46  1  0
 27 28  1  0
 27 47  1  1
 27 48  1  0
 28 29  1  0
 28 30  1  0
 28 59  1  6
 29 49  1  1
 29 50  1  0
 29 51  1  0
 30 52  1  1
 30 53  1  0
 30 54  1  0
 31 32  1  0
 31 55  1  0
 32 33  2  0
 32 56  1  0
 33 34  1  0
 33 57  1  0
 34 58  1  0
M  CHG  1  28   1
M  END
>  <s_epik_cmdline>  (501) 
J2VwaWtfcHl0aG9uJywgJy1waCcsICc3LjAwMDAwMCcsICctcGh0JywgJzIuMDAwMDAwJywgJy1tcycsICcxNicsICctdG4nLCAnOCcsICctbWEnLCAnMjAwJywgJy1pbWFlJywgJzxpbmZpbGUubWFlPicsICctb21hZScsICc8b3V0ZmlsZS5tYWU+Jw==

>  <s_epik_input>  (501) 
Q2xjMWMoQyNOKVtjSF1bY0hdYyhbY0hdMSlbQ0gyXVtOSF1jKG4yKWMobmMoYzIzKVtjSF1bY0hdW2NIXVtjSF0zKVtOSF1bQ0gyXWM0YyhbQ0gyXU4oW0NIM10pW0NIM10pW2NIXWMoRilbY0hdW2NIXTQ=

>  <s_i_glide_gridfile>  (501) 
ATP-Grid

>  <s_lp_Force_Field>  (501) 
OPLS_2005

>  <s_lp_Variant>  (501) 
m_282030aaa____21898562____23157418____21974936-1

>  <s_lp_label>  (501) 
2144_sdstereoexpander_1_neutralizer_1_epik_1_stereoizer_1

>  <s_m_source_file>  (501) 
ATP-VSW-LIGPREP-003-in.maegz

>  <s_sd_BIOSOLVEIT.INFINISEE\_QUERY\_NAME>  (501) 
Ref-Lig

>  <s_sd_BIOSOLVEIT.INFINISEE\_QUERY\_SMILES>  (501) 
S(c1nc2c(cc1C[NH2+]Cc3ccc(cc3)C[NH+](C)C)cccc2)Cc4ccccc4

>  <s_sd_BIOSOLVEIT.INFINISEE\_REACTION\_NAME>  (501) 
m_282030aaa

>  <s_sd_BIOSOLVEIT.INFINISEE\_REAGENT1\_SMILES>  (501) 
[R1*]NCc1cc(Cl)c(C#N)cc1

>  <s_sd_BIOSOLVEIT.INFINISEE\_REAGENT2\_SMILES>  (501) 
[R1*]c1nc2c(nc1[R2*])cccc2

>  <s_sd_BIOSOLVEIT.INFINISEE\_REAGENT3\_SMILES>  (501) 
[R2*]NCc1c(cc(F)cc1)CN(C)C

>  <s_sd_BIOSOLVEIT.INFINISEE\_SPACE>  (501) 
REALSpace_44bn_2023-08

>  <s_vsw_compound_code>  (501) 
68579

>  <s_vsw_variant>  (501) 
68579-1

>  <r_epik_Charging_Adjusted_Penalty>  (501) 
0.089121335212406394

>  <r_epik_Ionization_Penalty>  (501) 
0.044900000000000002

>  <r_epik_Ionization_Penalty_Charging>  (501) 
0.044600000000000001

>  <r_epik_Ionization_Penalty_Neutral>  (501) 
0.00040000000000000002

>  <r_epik_State_Penalty>  (501) 
0.044600000000000001

>  <r_i_docking_score>  (501) 
-4.9457723187917999

>  <r_i_glide_ecoul>  (501) 
-7.2333626747131303

>  <r_i_glide_eff_state_penalty>  (501) 
0.044600000000000001

>  <r_i_glide_einternal>  (501) 
3.5407693386077899

>  <r_i_glide_emodel>  (501) 
-64.922486007977497

>  <r_i_glide_energy>  (501) 
-48.578611850738497

>  <r_i_glide_erotb>  (501) 
0.62558742253208399

>  <r_i_glide_esite>  (501) 
-0.113287839787098

>  <r_i_glide_evdw>  (501) 
-41.345249176025398

>  <r_i_glide_gscore>  (501) 
-4.9903723187917999

>  <r_i_glide_hbond>  (501) 
-0.041413962343122397

>  <r_i_glide_ligand_efficiency>  (501) 
-0.14546389172917101

>  <r_i_glide_ligand_efficiency_ln>  (501) 
-1.0926598294357499

>  <r_i_glide_ligand_efficiency_sa>  (501) 
-0.47124653975164299

>  <r_i_glide_lipo>  (501) 
-1.66250460082047

>  <r_i_glide_metal>  (501) 
-0

>  <r_i_glide_rewards>  (501) 
-0.64648647836495998

>  <r_lp_Energy>  (501) 
25.278527

>  <r_qp_ACxDN^.5/SA>  (501) 
0.0133937

>  <r_qp_CIQPlogS>  (501) 
-7.4779999999999998

>  <r_qp_EA(eV)>  (501) 
1.0860000000000001

>  <r_qp_FISA>  (501) 
94.444000000000003

>  <r_qp_FOSA>  (501) 
219.76499999999999

>  <r_qp_IP(eV)>  (501) 
8.5419999999999998

>  <r_qp_Jm>  (501) 
0.00147809457594583

>  <r_qp_PISA>  (501) 
284.74299999999999

>  <r_qp_PSA>  (501) 
69.480000000000004

>  <r_qp_PercentHumanOralAbsorption>  (501) 
100

>  <r_qp_QPPCaco>  (501) 
314.185

>  <r_qp_QPPMDCK>  (501) 
471.37400000000002

>  <r_qp_QPlogBB>  (501) 
-0.19700000000000001

>  <r_qp_QPlogHERG>  (501) 
-5.7140000000000004

>  <r_qp_QPlogKhsa>  (501) 
0.69299999999999995

>  <r_qp_QPlogKp>  (501) 
-3.456

>  <r_qp_QPlogPC16>  (501) 
14.202999999999999

>  <r_qp_QPlogPo/w>  (501) 
4.5650000000000004

>  <r_qp_QPlogPoct>  (501) 
22.687999999999999

>  <r_qp_QPlogPw>  (501) 
11.327

>  <r_qp_QPlogS>  (501) 
-5.0510000000000002

>  <r_qp_QPpolrz>  (501) 
45.720999999999997

>  <r_qp_SASA>  (501) 
686.32299999999998

>  <r_qp_SAamideO>  (501) 
0

>  <r_qp_SAfluorine>  (501) 
32.090000000000003

>  <r_qp_WPSA>  (501) 
87.370999999999995

>  <r_qp_accptHB>  (501) 
6.5

>  <r_qp_dip^2/V>  (501) 
0.047988099999999999

>  <r_qp_dipole>  (501) 
8.1159999999999997

>  <r_qp_donorHB>  (501) 
2

>  <r_qp_glob>  (501) 
0.8703303

>  <r_qp_mol_MW>  (501) 
474.96699999999998

>  <r_qp_volume>  (501) 
1372.6869999999999

>  <r_sd_BIOSOLVEIT.INFINISEE\_FTREES\_SIMILARITY>  (501) 
0.90100000000000002

>  <r_sd_BIOSOLVEIT.LOGP>  (501) 
4.1626799999999999

>  <r_sd_BIOSOLVEIT.MOLECULAR\_WEIGHT>  (501) 
475.97699999999998

>  <r_sd_BIOSOLVEIT.TPSA>  (501) 
78.069999999999993

>  <i_epik_Tot_Q>  (501) 
1

>  <i_epik_Tot_abs_Q>  (501) 
1

>  <i_f3d_flags>  (501) 
0

>  <i_i_glide_confnum>  (501) 
5

>  <i_i_glide_lignum>  (501) 
799

>  <i_i_glide_posenum>  (501) 
13

>  <i_i_glide_rotatable_bonds>  (501) 
8

>  <i_lp_mmshare_version>  (501) 
65135

>  <i_m_ct_format>  (501) 
2

>  <i_m_source_file_index>  (501) 
2144

>  <i_qp_#NandO>  (501) 
6

>  <i_qp_#acid>  (501) 
0

>  <i_qp_#amide>  (501) 
0

>  <i_qp_#amidine>  (501) 
0

>  <i_qp_#amine>  (501) 
1

>  <i_qp_#in34>  (501) 
0

>  <i_qp_#in56>  (501) 
22

>  <i_qp_#metab>  (501) 
4

>  <i_qp_#nonHatm>  (501) 
34

>  <i_qp_#noncon>  (501) 
0

>  <i_qp_#ringatoms>  (501) 
22

>  <i_qp_#rotor>  (501) 
9

>  <i_qp_#rtvFG>  (501) 
0

>  <i_qp_#stars>  (501) 
0

>  <i_qp_CNS>  (501) 
1

>  <i_qp_HumanOralAbsorption>  (501) 
3

>  <i_qp_RuleOfFive>  (501) 
0

>  <i_qp_RuleOfThree>  (501) 
0

>  <i_sd_BIOSOLVEIT.INFINISEE\_REAGENT1\_NAME>  (501) 
21898562

>  <i_sd_BIOSOLVEIT.INFINISEE\_REAGENT2\_NAME>  (501) 
23157418

>  <i_sd_BIOSOLVEIT.INFINISEE\_REAGENT3\_NAME>  (501) 
21974936

>  <i_sd_BIOSOLVEIT.INFINISEE\_RESULT\_RANK>  (501) 
99993

>  <i_sd_version>  (501) 
0

>  <b_lp_Chiralities_Consistent>  (501) 
1

>  <b_sd_chiral_flag>  (501) 
0

>  <canonical_id>  (501) 
ATP-HTVS-4F450E2E91A2

>  <compound_code>  (501) 
68579

>  <title>  (501) 
m_282030aaa____21898562____23157418____21974936

>  <variant>  (501) 
68579-1

>  <source_file>  (501) 
运行/运行/ATP-VSW/ATP-VSW-DOCK_HTVS_1-003_lib/ATP-VSW-DOCK_HTVS_1-003_lib.mae

>  <canonical_smiles>  (501) 
C[NH+](C)Cc1cc(F)ccc1CNc1nc2ccccc2nc1NCc1ccc(C#N)c(Cl)c1

>  <scaffold>  (501) 
c1ccc(CNc2nc3ccccc3nc2NCc2ccccc2)cc1

>  <molecular_formula>  (501) 
C26H25ClFN6+

$$$$
ATP-HTVS-4F5A90394674
     RDKit          3D

 58 60  0  0  0  0  0  0  0  0999 V2000
  201.4729  178.6108  153.4470 Cl  0  0  0  0  0  0  0  0  0  0  0  0
  201.1212  179.6910  154.7500 C   0  0  0  0  0  0  0  0  0  0  0  0
  200.2772  180.8117  154.5671 C   0  0  0  0  0  0  0  0  0  0  0  0
  200.0180  181.6656  155.6629 C   0  0  0  0  0  0  0  0  0  0  0  0
  200.5921  181.4209  156.9268 C   0  0  0  0  0  0  0  0  0  0  0  0
  201.4411  180.3126  157.0993 C   0  0  0  0  0  0  0  0  0  0  0  0
  201.7004  179.4505  156.0141 C   0  0  0  0  0  0  0  0  0  0  0  0
  199.6495  181.1119  153.2089 C   0  0  1  0  0  0  0  0  0  0  0  0
  198.3062  180.3600  153.0177 C   0  0  0  0  0  0  0  0  0  0  0  0
  198.1409  179.2955  153.6098 O   0  0  0  0  0  0  0  0  0  0  0  0
  197.3350  180.8603  152.2061 N   0  0  0  0  0  0  0  0  0  0  0  0
  197.4474  182.0852  151.4989 C   0  0  0  0  0  0  0  0  0  0  0  0
  197.4420  183.3368  152.1622 C   0  0  0  0  0  0  0  0  0  0  0  0
  197.3380  183.3826  153.5594 N   0  0  0  0  0  0  0  0  0  0  0  0
  197.6865  184.5762  154.3145 C   0  0  1  0  0  0  0  0  0  0  0  0
  197.5735  184.3936  155.8223 C   0  0  0  0  0  0  0  0  0  0  0  0
  196.7562  183.3872  156.3826 C   0  0  0  0  0  0  0  0  0  0  0  0
  196.6609  183.2337  157.7796 C   0  0  0  0  0  0  0  0  0  0  0  0
  197.3990  184.0824  158.6315 C   0  0  0  0  0  0  0  0  0  0  0  0
  198.2212  185.0806  158.0787 C   0  0  0  0  0  0  0  0  0  0  0  0
  198.3129  185.2368  156.6824 C   0  0  0  0  0  0  0  0  0  0  0  0
  195.7704  182.1442  158.3394 C   0  0  1  0  0  0  0  0  0  0  0  0
  194.3262  182.4190  158.1368 N   0  0  1  0  0  0  0  0  0  0  0  0
  193.4955  181.2209  158.3457 C   0  0  2  0  0  0  0  0  0  0  0  0
  193.8438  183.5903  158.8773 C   0  0  2  0  0  0  0  0  0  0  0  0
  197.5310  184.5025  151.3649 C   0  0  0  0  0  0  0  0  0  0  0  0
  197.5839  184.4876  150.0151 N   0  0  0  0  0  0  0  0  0  0  0  0
  197.5553  183.2919  149.3985 C   0  0  0  0  0  0  0  0  0  0  0  0
  197.4901  182.0663  150.0867 C   0  0  0  0  0  0  0  0  0  0  0  0
  196.0960  180.0923  152.0305 C   0  0  2  0  0  0  0  0  0  0  0  0
  199.3814  182.5268  155.5428 H   0  0  0  0  0  0  0  0  0  0  0  0
  200.3846  182.0823  157.7559 H   0  0  0  0  0  0  0  0  0  0  0  0
  201.8892  180.1143  158.0631 H   0  0  0  0  0  0  0  0  0  0  0  0
  202.3548  178.5945  156.1501 H   0  0  0  0  0  0  0  0  0  0  0  0
  199.5534  182.1951  153.1593 H   0  0  0  0  0  0  0  0  0  0  0  0
  200.3297  180.8234  152.3978 H   0  0  0  0  0  0  0  0  0  0  0  0
  197.3707  182.5151  154.0642 H   0  0  0  0  0  0  0  0  0  0  0  0
  198.7203  184.8158  154.0679 H   0  0  0  0  0  0  0  0  0  0  0  0
  197.0652  185.4280  154.0230 H   0  0  0  0  0  0  0  0  0  0  0  0
  196.1762  182.7348  155.7529 H   0  0  0  0  0  0  0  0  0  0  0  0
  197.3393  183.9632  159.7045 H   0  0  0  0  0  0  0  0  0  0  0  0
  198.7936  185.7248  158.7295 H   0  0  0  0  0  0  0  0  0  0  0  0
  198.9546  185.9968  156.2689 H   0  0  0  0  0  0  0  0  0  0  0  0
  196.0693  181.2226  157.8407 H   0  0  0  0  0  0  0  0  0  0  0  0
  195.9778  181.9872  159.4050 H   0  0  0  0  0  0  0  0  0  0  0  0
  193.5548  180.8756  159.3792 H   0  0  0  0  0  0  0  0  0  0  0  0
  193.8139  180.3983  157.7093 H   0  0  0  0  0  0  0  0  0  0  0  0
  192.4487  181.4205  158.1144 H   0  0  0  0  0  0  0  0  0  0  0  0
  193.9815  183.4654  159.9568 H   0  0  0  0  0  0  0  0  0  0  0  0
  192.7823  183.7686  158.6951 H   0  0  0  0  0  0  0  0  0  0  0  0
  194.3725  184.5017  158.5925 H   0  0  0  0  0  0  0  0  0  0  0  0
  197.5508  185.4889  151.8085 H   0  0  0  0  0  0  0  0  0  0  0  0
  197.5921  183.3095  148.3200 H   0  0  0  0  0  0  0  0  0  0  0  0
  197.4752  181.1362  149.5419 H   0  0  0  0  0  0  0  0  0  0  0  0
  195.4182  180.5700  151.3202 H   0  0  0  0  0  0  0  0  0  0  0  0
  195.5682  180.0206  152.9822 H   0  0  0  0  0  0  0  0  0  0  0  0
  196.2842  179.0735  151.6769 H   0  0  0  0  0  0  0  0  0  0  0  0
  194.1941  182.6436  157.1284 H   0  0  0  0  0  0  0  0  0  0  0  0
  1  2  1  0
  2  3  1  0
  2  7  2  0
  3  4  2  0
  3  8  1  0
  4  5  1  0
  4 31  1  0
  5  6  2  0
  5 32  1  0
  6  7  1  0
  6 33  1  0
  7 34  1  0
  8  9  1  0
  8 35  1  1
  8 36  1  0
  9 10  2  0
  9 11  1  0
 11 12  1  0
 11 30  1  0
 12 13  1  0
 12 29  2  0
 13 14  1  0
 13 26  2  0
 14 15  1  0
 14 37  1  0
 15 16  1  0
 15 38  1  1
 15 39  1  0
 16 17  2  0
 16 21  1  0
 17 18  1  0
 17 40  1  0
 18 19  2  0
 18 22  1  0
 19 20  1  0
 19 41  1  0
 20 21  2  0
 20 42  1  0
 21 43  1  0
 22 23  1  0
 22 44  1  6
 22 45  1  0
 23 24  1  0
 23 25  1  0
 23 58  1  6
 24 46  1  1
 24 47  1  0
 24 48  1  0
 25 49  1  1
 25 50  1  0
 25 51  1  0
 26 27  1  0
 26 52  1  0
 27 28  2  0
 28 29  1  0
 28 53  1  0
 29 54  1  0
 30 55  1  6
 30 56  1  0
 30 57  1  0
M  CHG  1  23   1
M  END
>  <s_epik_cmdline>  (502) 
J2VwaWtfcHl0aG9uJywgJy1waCcsICc3LjAwMDAwMCcsICctcGh0JywgJzIuMDAwMDAwJywgJy1tcycsICcxNicsICctdG4nLCAnOCcsICctbWEnLCAnMjAwJywgJy1pbWFlJywgJzxpbmZpbGUubWFlPicsICctb21hZScsICc8b3V0ZmlsZS5tYWU+Jw==

>  <s_epik_input>  (502) 
W2NIXTFbY0hdW2NIXVtjSF1jKGMxQ2wpW0NIMl1DKD1PKU4oW0NIM10pYzJjKFtjSF1uW2NIXVtjSF0yKVtOSF1bQ0gyXWMzW2NIXWMoW2NIXVtjSF1bY0hdMylbQ0gyXU4oW0NIM10pW0NIM10=

>  <s_i_glide_gridfile>  (502) 
ATP-Grid

>  <s_lp_Force_Field>  (502) 
OPLS_2005

>  <s_lp_Variant>  (502) 
rxn502a____EMOL486955____EMOL81846330____EMOL2873214-1

>  <s_lp_label>  (502) 
2991_sdstereoexpander_1_neutralizer_1_epik_1_stereoizer_1

>  <s_m_source_file>  (502) 
ATP-VSW-LIGPREP-001-in.maegz

>  <s_sd_BIOSOLVEIT.INFINISEE\_QUERY\_NAME>  (502) 
Ref-Lig

>  <s_sd_BIOSOLVEIT.INFINISEE\_QUERY\_SMILES>  (502) 
S(c1nc2c(cc1C[NH2+]Cc3ccc(cc3)C[NH+](C)C)cccc2)Cc4ccccc4

>  <s_sd_BIOSOLVEIT.INFINISEE\_REACTION\_NAME>  (502) 
rxn502a

>  <s_sd_BIOSOLVEIT.INFINISEE\_REAGENT1\_NAME>  (502) 
EMOL486955

>  <s_sd_BIOSOLVEIT.INFINISEE\_REAGENT1\_SMILES>  (502) 
Clc1c(cccc1)CC(=O)O

>  <s_sd_BIOSOLVEIT.INFINISEE\_REAGENT2\_NAME>  (502) 
EMOL81846330

>  <s_sd_BIOSOLVEIT.INFINISEE\_REAGENT2\_SMILES>  (502) 
Ic1c(NC)ccnc1

>  <s_sd_BIOSOLVEIT.INFINISEE\_REAGENT3\_NAME>  (502) 
EMOL2873214

>  <s_sd_BIOSOLVEIT.INFINISEE\_REAGENT3\_SMILES>  (502) 
N(Cc1cc(ccc1)CN)(C)C

>  <s_sd_BIOSOLVEIT.INFINISEE\_SPACE>  (502) 
eXplore_7tr_2022-12

>  <s_vsw_compound_code>  (502) 
95681

>  <s_vsw_variant>  (502) 
95681-1

>  <r_epik_Charging_Adjusted_Penalty>  (502) 
0.122807326054597

>  <r_epik_Ionization_Penalty>  (502) 
0.078700000000000006

>  <r_epik_Ionization_Penalty_Charging>  (502) 
0.0441

>  <r_epik_Ionization_Penalty_Neutral>  (502) 
0.034599999999999999

>  <r_epik_State_Penalty>  (502) 
0.078700000000000006

>  <r_i_docking_score>  (502) 
-3.6226882602500701

>  <r_i_glide_ecoul>  (502) 
-9.3570680618286097

>  <r_i_glide_eff_state_penalty>  (502) 
0.078700000000000006

>  <r_i_glide_einternal>  (502) 
1.7772858142852801

>  <r_i_glide_emodel>  (502) 
-51.337002578085702

>  <r_i_glide_energy>  (502) 
-39.4622640609741

>  <r_i_glide_erotb>  (502) 
0.77204884370101701

>  <r_i_glide_esite>  (502) 
-0.13169517091149599

>  <r_i_glide_evdw>  (502) 
-30.105195999145501

>  <r_i_glide_gscore>  (502) 
-3.7013882602500701

>  <r_i_glide_hbond>  (502) 
-0.20000000000000001

>  <r_i_glide_ligand_efficiency>  (502) 
-0.12075627534166899

>  <r_i_glide_ligand_efficiency_ln>  (502) 
-0.82311424507889797

>  <r_i_glide_ligand_efficiency_sa>  (502) 
-0.37521782361415101

>  <r_i_glide_lipo>  (502) 
-0.67005322889600905

>  <r_i_glide_metal>  (502) 
-0

>  <r_i_glide_rewards>  (502) 
-0.56286869491201197

>  <r_lp_Energy>  (502) 
30.045065999999998

>  <r_lp_tautomer_probability>  (502) 
0.999999999999999

>  <r_qp_ACxDN^.5/SA>  (502) 
0.0122039

>  <r_qp_CIQPlogS>  (502) 
-4.8360000000000003

>  <r_qp_EA(eV)>  (502) 
0.32700000000000001

>  <r_qp_FISA>  (502) 
53.927999999999997

>  <r_qp_FOSA>  (502) 
249.69

>  <r_qp_IP(eV)>  (502) 
8.5980000000000008

>  <r_qp_Jm>  (502) 
2.4089087911048201

>  <r_qp_PISA>  (502) 
272.95100000000002

>  <r_qp_PSA>  (502) 
52.838999999999999

>  <r_qp_PercentHumanOralAbsorption>  (502) 
100

>  <r_qp_QPPCaco>  (502) 
761.01999999999998

>  <r_qp_QPPMDCK>  (502) 
657.86599999999999

>  <r_qp_QPlogBB>  (502) 
0.14000000000000001

>  <r_qp_QPlogHERG>  (502) 
-5.0010000000000003

>  <r_qp_QPlogKhsa>  (502) 
0.23200000000000001

>  <r_qp_QPlogKp>  (502) 
-2.8460000000000001

>  <r_qp_QPlogPC16>  (502) 
12.685

>  <r_qp_QPlogPo/w>  (502) 
3.5739999999999998

>  <r_qp_QPlogPoct>  (502) 
19.324000000000002

>  <r_qp_QPlogPw>  (502) 
10.522

>  <r_qp_QPlogS>  (502) 
-2.3980000000000001

>  <r_qp_QPpolrz>  (502) 
41.158999999999999

>  <r_qp_SASA>  (502) 
614.55799999999999

>  <r_qp_SAamideO>  (502) 
0

>  <r_qp_SAfluorine>  (502) 
0

>  <r_qp_WPSA>  (502) 
37.988999999999997

>  <r_qp_accptHB>  (502) 
7.5

>  <r_qp_dip^2/V>  (502) 
0.01133

>  <r_qp_dipole>  (502) 
3.7559999999999998

>  <r_qp_donorHB>  (502) 
1

>  <r_qp_glob>  (502) 
0.91093519999999994

>  <r_qp_mol_MW>  (502) 
422.95600000000002

>  <r_qp_volume>  (502) 
1245.4559999999999

>  <r_sd_BIOSOLVEIT.INFINISEE\_FTREES\_SIMILARITY>  (502) 
0.90300000000000002

>  <r_sd_BIOSOLVEIT.LOGP>  (502) 
3.1970999999999998

>  <r_sd_BIOSOLVEIT.MOLECULAR\_WEIGHT>  (502) 
423.96499999999997

>  <r_sd_BIOSOLVEIT.TPSA>  (502) 
49.670000000000002

>  <i_epik_Tot_Q>  (502) 
1

>  <i_epik_Tot_abs_Q>  (502) 
1

>  <i_f3d_flags>  (502) 
0

>  <i_i_glide_confnum>  (502) 
7

>  <i_i_glide_lignum>  (502) 
1431

>  <i_i_glide_posenum>  (502) 
16

>  <i_i_glide_rotatable_bonds>  (502) 
9

>  <i_lp_mmshare_version>  (502) 
65135

>  <i_m_ct_format>  (502) 
2

>  <i_m_source_file_index>  (502) 
2991

>  <i_qp_#NandO>  (502) 
5

>  <i_qp_#acid>  (502) 
0

>  <i_qp_#amide>  (502) 
0

>  <i_qp_#amidine>  (502) 
0

>  <i_qp_#amine>  (502) 
1

>  <i_qp_#in34>  (502) 
0

>  <i_qp_#in56>  (502) 
18

>  <i_qp_#metab>  (502) 
9

>  <i_qp_#nonHatm>  (502) 
30

>  <i_qp_#noncon>  (502) 
0

>  <i_qp_#ringatoms>  (502) 
18

>  <i_qp_#rotor>  (502) 
8

>  <i_qp_#rtvFG>  (502) 
0

>  <i_qp_#stars>  (502) 
1

>  <i_qp_CNS>  (502) 
1

>  <i_qp_HumanOralAbsorption>  (502) 
3

>  <i_qp_RuleOfFive>  (502) 
0

>  <i_qp_RuleOfThree>  (502) 
1

>  <i_sd_BIOSOLVEIT.INFINISEE\_RESULT\_RANK>  (502) 
84891

>  <i_sd_version>  (502) 
0

>  <b_lp_Chiralities_Consistent>  (502) 
1

>  <b_sd_chiral_flag>  (502) 
0

>  <canonical_id>  (502) 
ATP-HTVS-4F5A90394674

>  <compound_code>  (502) 
95681

>  <title>  (502) 
rxn502a____EMOL486955____EMOL81846330____EMOL2873214

>  <variant>  (502) 
95681-1

>  <source_file>  (502) 
运行/运行/ATP-VSW/ATP-VSW-DOCK_HTVS_1-001_lib/ATP-VSW-DOCK_HTVS_1-001_lib

>  <canonical_smiles>  (502) 
CN(C(=O)Cc1ccccc1Cl)c1ccncc1NCc1cccc(C[NH+](C)C)c1

>  <scaffold>  (502) 
O=C(Cc1ccccc1)Nc1ccncc1NCc1ccccc1

>  <molecular_formula>  (502) 
C24H28ClN4O+

$$$$
ATP-HTVS-4F9099514318
     RDKit          3D

 59 62  0  0  0  0  0  0  0  0999 V2000
  197.4760  178.7813  150.2396 O   0  0  0  0  0  0  0  0  0  0  0  0
  197.6318  179.4446  151.2690 C   0  0  0  0  0  0  0  0  0  0  0  0
  196.9767  180.6247  151.4827 N   0  0  0  0  0  0  0  0  0  0  0  0
  196.7735  181.4325  152.6397 C   0  0  0  0  0  0  0  0  0  0  0  0
  196.2759  180.9323  153.8375 N   0  0  0  0  0  0  0  0  0  0  0  0
  196.5253  181.6257  154.9632 C   0  0  0  0  0  0  0  0  0  0  0  0
  196.8676  182.9857  154.8826 C   0  0  0  0  0  0  0  0  0  0  0  0
  197.1619  183.5659  153.6956 N   0  0  0  0  0  0  0  0  0  0  0  0
  197.1944  182.7642  152.6014 C   0  0  0  0  0  0  0  0  0  0  0  0
  197.5700  183.4469  151.3464 C   0  0  0  0  0  0  0  0  0  0  0  0
  198.9199  183.6421  150.9906 C   0  0  0  0  0  0  0  0  0  0  0  0
  199.2549  184.3009  149.7929 C   0  0  0  0  0  0  0  0  0  0  0  0
  198.2399  184.7738  148.9397 C   0  0  0  0  0  0  0  0  0  0  0  0
  196.8895  184.5862  149.2889 C   0  0  0  0  0  0  0  0  0  0  0  0
  196.5582  183.9231  150.4854 C   0  0  0  0  0  0  0  0  0  0  0  0
  196.7988  183.8265  156.0596 C   0  0  0  0  0  0  0  0  0  0  0  0
  196.7534  184.5464  157.0415 C   0  0  0  0  0  0  0  0  0  0  0  0
  196.7258  185.4213  158.1986 C   0  0  0  0  0  0  0  0  0  0  0  0
  197.7030  186.4274  158.3440 C   0  0  0  0  0  0  0  0  0  0  0  0
  197.6805  187.2739  159.4697 C   0  0  0  0  0  0  0  0  0  0  0  0
  198.6308  188.2422  159.6134 O   0  0  0  0  0  0  0  0  0  0  0  0
  196.6810  187.1164  160.4500 C   0  0  0  0  0  0  0  0  0  0  0  0
  195.7045  186.1125  160.3057 C   0  0  0  0  0  0  0  0  0  0  0  0
  195.7254  185.2656  159.1806 C   0  0  0  0  0  0  0  0  0  0  0  0
  198.6242  178.9604  152.2931 C   0  0  0  0  0  0  0  0  0  0  0  0
  198.7133  179.5133  153.5752 C   0  0  0  0  0  0  0  0  0  0  0  0
  199.5492  179.1916  154.6092 C   0  0  0  0  0  0  0  0  0  0  0  0
  200.4614  178.2004  154.3422 C   0  0  0  0  0  0  0  0  0  0  0  0
  200.4721  177.5999  153.0646 C   0  0  0  0  0  0  0  0  0  0  0  0
  199.5660  177.9667  152.0489 C   0  0  0  0  0  0  0  0  0  0  0  0
  201.4233  177.8116  155.4151 C   0  0  1  0  0  0  0  0  0  0  0  0
  200.7874  176.9552  156.4445 N   0  0  2  0  0  0  0  0  0  0  0  0
  200.3022  177.7148  157.6205 C   0  0  2  0  0  0  0  0  0  0  0  0
  201.6606  175.8312  156.8416 C   0  0  2  0  0  0  0  0  0  0  0  0
  196.5614  181.0364  150.6647 H   0  0  0  0  0  0  0  0  0  0  0  0
  196.3485  181.1314  155.9266 H   0  0  0  0  0  0  0  0  0  0  0  0
  199.7043  183.2868  151.6409 H   0  0  0  0  0  0  0  0  0  0  0  0
  200.2927  184.4457  149.5302 H   0  0  0  0  0  0  0  0  0  0  0  0
  198.4975  185.2807  148.0209 H   0  0  0  0  0  0  0  0  0  0  0  0
  196.1095  184.9506  148.6364 H   0  0  0  0  0  0  0  0  0  0  0  0
  195.5183  183.7873  150.7465 H   0  0  0  0  0  0  0  0  0  0  0  0
  198.4728  186.5518  157.5957 H   0  0  0  0  0  0  0  0  0  0  0  0
  198.5913  188.6903  160.4478 H   0  0  0  0  0  0  0  0  0  0  0  0
  196.6642  187.7610  161.3176 H   0  0  0  0  0  0  0  0  0  0  0  0
  194.9397  185.9916  161.0577 H   0  0  0  0  0  0  0  0  0  0  0  0
  194.9710  184.4988  159.0753 H   0  0  0  0  0  0  0  0  0  0  0  0
  198.2957  180.3494  153.8842 H   0  0  0  0  0  0  0  0  0  0  0  0
  199.4599  179.7425  155.5392 H   0  0  0  0  0  0  0  0  0  0  0  0
  201.1949  176.8351  152.8570 H   0  0  0  0  0  0  0  0  0  0  0  0
  199.6061  177.5038  151.0935 H   0  0  0  0  0  0  0  0  0  0  0  0
  202.2323  177.2722  154.9263 H   0  0  0  0  0  0  0  0  0  0  0  0
  201.8721  178.6943  155.8716 H   0  0  0  0  0  0  0  0  0  0  0  0
  201.1234  178.2253  158.1257 H   0  0  0  0  0  0  0  0  0  0  0  0
  199.8251  177.0474  158.3388 H   0  0  0  0  0  0  0  0  0  0  0  0
  199.5603  178.4603  157.3351 H   0  0  0  0  0  0  0  0  0  0  0  0
  202.5743  176.1930  157.3074 H   0  0  0  0  0  0  0  0  0  0  0  0
  201.9344  175.2279  155.9762 H   0  0  0  0  0  0  0  0  0  0  0  0
  201.1535  175.1801  157.5489 H   0  0  0  0  0  0  0  0  0  0  0  0
  199.9726  176.5424  156.0124 H   0  0  0  0  0  0  0  0  0  0  0  0
  1  2  2  0
  2  3  1  0
  2 25  1  0
  3  4  1  0
  3 35  1  0
  4  5  1  0
  4  9  2  0
  5  6  2  0
  6  7  1  0
  6 36  1  0
  7  8  2  0
  7 16  1  0
  8  9  1  0
  9 10  1  0
 10 11  2  0
 10 15  1  0
 11 12  1  0
 11 37  1  0
 12 13  2  0
 12 38  1  0
 13 14  1  0
 13 39  1  0
 14 15  2  0
 14 40  1  0
 15 41  1  0
 16 17  3  0
 17 18  1  0
 18 19  2  0
 18 24  1  0
 19 20  1  0
 19 42  1  0
 20 21  1  0
 20 22  2  0
 21 43  1  0
 22 23  1  0
 22 44  1  0
 23 24  2  0
 23 45  1  0
 24 46  1  0
 25 26  1  0
 25 30  2  0
 26 27  2  0
 26 47  1  0
 27 28  1  0
 27 48  1  0
 28 29  2  0
 28 31  1  0
 29 30  1  0
 29 49  1  0
 30 50  1  0
 31 32  1  0
 31 51  1  6
 31 52  1  0
 32 33  1  0
 32 34  1  0
 32 59  1  6
 33 53  1  1
 33 54  1  0
 33 55  1  0
 34 56  1  1
 34 57  1  0
 34 58  1  0
M  CHG  1  32   1
M  END
>  <s_epik_cmdline>  (503) 
J2VwaWtfcHl0aG9uJywgJy1waCcsICc3LjAwMDAwMCcsICctcGh0JywgJzIuMDAwMDAwJywgJy1tcycsICcxNicsICctdG4nLCAnOCcsICctbWEnLCAnMjAwJywgJy1pbWFlJywgJzxpbmZpbGUubWFlPicsICctb21hZScsICc8b3V0ZmlsZS5tYWU+Jw==

>  <s_epik_input>  (503) 
W0NIM11OKFtDSDNdKVtDSDJdYyhbY0hdW2NIXTEpW2NIXVtjSF1jMUMoPU8pW05IXWMybltjSF1jKG5jMi1jM1tjSF1bY0hdW2NIXVtjSF1bY0hdMylDI0NjNFtjSF1jKFtPSF0pW2NIXVtjSF1bY0hdNA==

>  <s_i_glide_gridfile>  (503) 
ATP-Grid

>  <s_lp_Force_Field>  (503) 
OPLS_2005

>  <s_lp_Variant>  (503) 
rxn505a____EMOL18624763____EMOL313123100____EMOL539496-1

>  <s_lp_label>  (503) 
2747_sdstereoexpander_1_neutralizer_1_epik_1_stereoizer_1

>  <s_m_source_file>  (503) 
ATP-VSW-LIGPREP-003-in.maegz

>  <s_sd_BIOSOLVEIT.INFINISEE\_QUERY\_NAME>  (503) 
Ref-Lig

>  <s_sd_BIOSOLVEIT.INFINISEE\_QUERY\_SMILES>  (503) 
S(c1nc2c(cc1C[NH2+]Cc3ccc(cc3)C[NH+](C)C)cccc2)Cc4ccccc4

>  <s_sd_BIOSOLVEIT.INFINISEE\_REACTION\_NAME>  (503) 
rxn505a

>  <s_sd_BIOSOLVEIT.INFINISEE\_REAGENT1\_NAME>  (503) 
EMOL18624763

>  <s_sd_BIOSOLVEIT.INFINISEE\_REAGENT1\_SMILES>  (503) 
O=C(O)c1ccc(cc1)CN(C)C

>  <s_sd_BIOSOLVEIT.INFINISEE\_REAGENT2\_NAME>  (503) 
EMOL313123100

>  <s_sd_BIOSOLVEIT.INFINISEE\_REAGENT2\_SMILES>  (503) 
n1c(C#C)cnc(N)c1c2ccccc2

>  <s_sd_BIOSOLVEIT.INFINISEE\_REAGENT3\_NAME>  (503) 
EMOL539496

>  <s_sd_BIOSOLVEIT.INFINISEE\_REAGENT3\_SMILES>  (503) 
Ic1cc(O)ccc1

>  <s_sd_BIOSOLVEIT.INFINISEE\_SPACE>  (503) 
eXplore_7tr_2022-12

>  <s_vsw_compound_code>  (503) 
87875

>  <s_vsw_variant>  (503) 
87875-1

>  <r_epik_Charging_Adjusted_Penalty>  (503) 
0.104909384607527

>  <r_epik_Ionization_Penalty>  (503) 
0.055399999999999998

>  <r_epik_Ionization_Penalty_Charging>  (503) 
0.052499999999999998

>  <r_epik_Ionization_Penalty_Neutral>  (503) 
0.0030000000000000001

>  <r_epik_State_Penalty>  (503) 
0.052499999999999998

>  <r_i_docking_score>  (503) 
-2.2419012364359299

>  <r_i_glide_ecoul>  (503) 
-7.3765058517456099

>  <r_i_glide_eff_state_penalty>  (503) 
0.052499999999999998

>  <r_i_glide_einternal>  (503) 
9.5820522308349592

>  <r_i_glide_emodel>  (503) 
-43.456322709770099

>  <r_i_glide_energy>  (503) 
-40.2909383773804

>  <r_i_glide_erotb>  (503) 
0.69426473046080095

>  <r_i_glide_esite>  (503) 
0

>  <r_i_glide_evdw>  (503) 
-32.914432525634801

>  <r_i_glide_gscore>  (503) 
-2.2944012364359301

>  <r_i_glide_hbond>  (503) 
0

>  <r_i_glide_ligand_efficiency>  (503) 
-0.065938271659880296

>  <r_i_glide_ligand_efficiency_ln>  (503) 
-0.49529886632838299

>  <r_i_glide_ligand_efficiency_sa>  (503) 
-0.21361440277409499

>  <r_i_glide_lipo>  (503) 
-1.57297731156509

>  <r_i_glide_metal>  (503) 
-0

>  <r_i_glide_rewards>  (503) 
1.3365088487119401

>  <r_lp_Energy>  (503) 
33.137042000000001

>  <r_qp_ACxDN^.5/SA>  (503) 
0.012068799999999999

>  <r_qp_CIQPlogS>  (503) 
-5.7750000000000004

>  <r_qp_EA(eV)>  (503) 
0.998

>  <r_qp_FISA>  (503) 
129.47900000000001

>  <r_qp_FOSA>  (503) 
180.535

>  <r_qp_IP(eV)>  (503) 
8.8260000000000005

>  <r_qp_Jm>  (503) 
8.9270149958927401e-05

>  <r_qp_PISA>  (503) 
539.53700000000003

>  <r_qp_PSA>  (503) 
83.959999999999994

>  <r_qp_PercentHumanOralAbsorption>  (503) 
93.063000000000002

>  <r_qp_QPPCaco>  (503) 
146.202

>  <r_qp_QPPMDCK>  (503) 
68.492999999999995

>  <r_qp_QPlogBB>  (503) 
-1.0760000000000001

>  <r_qp_QPlogHERG>  (503) 
-8.9589999999999996

>  <r_qp_QPlogKhsa>  (503) 
0.83799999999999997

>  <r_qp_QPlogKp>  (503) 
-3.2999999999999998

>  <r_qp_QPlogPC16>  (503) 
17.693999999999999

>  <r_qp_QPlogPo/w>  (503) 
4.6740000000000004

>  <r_qp_QPlogPoct>  (503) 
25.093

>  <r_qp_QPlogPw>  (503) 
14.619999999999999

>  <r_qp_QPlogS>  (503) 
-6.4009999999999998

>  <r_qp_QPpolrz>  (503) 
53.767000000000003

>  <r_qp_SASA>  (503) 
849.55100000000004

>  <r_qp_SAamideO>  (503) 
0

>  <r_qp_SAfluorine>  (503) 
0

>  <r_qp_WPSA>  (503) 
0

>  <r_qp_accptHB>  (503) 
7.25

>  <r_qp_dip^2/V>  (503) 
0.014343699999999999

>  <r_qp_dipole>  (503) 
4.6340000000000003

>  <r_qp_donorHB>  (503) 
2

>  <r_qp_glob>  (503) 
0.74490420000000002

>  <r_qp_mol_MW>  (503) 
448.52300000000002

>  <r_qp_volume>  (503) 
1496.8820000000001

>  <r_sd_BIOSOLVEIT.INFINISEE\_FTREES\_SIMILARITY>  (503) 
0.90700000000000003

>  <r_sd_BIOSOLVEIT.LOGP>  (503) 
3.1457999999999999

>  <r_sd_BIOSOLVEIT.MOLECULAR\_WEIGHT>  (503) 
449.53199999999998

>  <r_sd_BIOSOLVEIT.TPSA>  (503) 
79.549999999999997

>  <i_epik_Tot_Q>  (503) 
1

>  <i_epik_Tot_abs_Q>  (503) 
1

>  <i_f3d_flags>  (503) 
0

>  <i_i_glide_confnum>  (503) 
1

>  <i_i_glide_lignum>  (503) 
1302

>  <i_i_glide_posenum>  (503) 
2

>  <i_i_glide_rotatable_bonds>  (503) 
9

>  <i_lp_mmshare_version>  (503) 
65135

>  <i_m_ct_format>  (503) 
2

>  <i_m_source_file_index>  (503) 
2747

>  <i_qp_#NandO>  (503) 
6

>  <i_qp_#acid>  (503) 
0

>  <i_qp_#amide>  (503) 
0

>  <i_qp_#amidine>  (503) 
0

>  <i_qp_#amine>  (503) 
1

>  <i_qp_#in34>  (503) 
0

>  <i_qp_#in56>  (503) 
24

>  <i_qp_#metab>  (503) 
4

>  <i_qp_#nonHatm>  (503) 
34

>  <i_qp_#noncon>  (503) 
0

>  <i_qp_#ringatoms>  (503) 
24

>  <i_qp_#rotor>  (503) 
8

>  <i_qp_#rtvFG>  (503) 
0

>  <i_qp_#stars>  (503) 
2

>  <i_qp_CNS>  (503) 
-2

>  <i_qp_HumanOralAbsorption>  (503) 
1

>  <i_qp_RuleOfFive>  (503) 
0

>  <i_qp_RuleOfThree>  (503) 
1

>  <i_sd_BIOSOLVEIT.INFINISEE\_RESULT\_RANK>  (503) 
57817

>  <i_sd_version>  (503) 
0

>  <b_lp_Chiralities_Consistent>  (503) 
1

>  <b_sd_chiral_flag>  (503) 
0

>  <canonical_id>  (503) 
ATP-HTVS-4F9099514318

>  <compound_code>  (503) 
87875

>  <title>  (503) 
rxn505a____EMOL18624763____EMOL313123100____EMOL539496

>  <variant>  (503) 
87875-1

>  <source_file>  (503) 
运行/运行/ATP-VSW/ATP-VSW-DOCK_HTVS_1-003_lib/ATP-VSW-DOCK_HTVS_1-003_lib.mae

>  <canonical_smiles>  (503) 
C[NH+](C)Cc1ccc(C(=O)Nc2ncc(C#Cc3cccc(O)c3)nc2-c2ccccc2)cc1

>  <scaffold>  (503) 
O=C(Nc1ncc(C#Cc2ccccc2)nc1-c1ccccc1)c1ccccc1

>  <molecular_formula>  (503) 
C28H25N4O2+

$$$$
ATP-HTVS-4F9E5F08F37F
     RDKit          3D

 56 59  0  0  0  0  0  0  0  0999 V2000
  197.3696  186.9928  159.6324 F   0  0  0  0  0  0  0  0  0  0  0  0
  197.5809  185.7107  159.2616 C   0  0  0  0  0  0  0  0  0  0  0  0
  196.5023  184.9252  158.8065 C   0  0  0  0  0  0  0  0  0  0  0  0
  196.7240  183.5802  158.4242 C   0  0  0  0  0  0  0  0  0  0  0  0
  198.0136  183.0365  158.5247 C   0  0  0  0  0  0  0  0  0  0  0  0
  199.1020  183.8332  158.9484 C   0  0  0  0  0  0  0  0  0  0  0  0
  198.8794  185.1661  159.3243 C   0  0  0  0  0  0  0  0  0  0  0  0
  195.5771  182.7421  157.8626 C   0  0  1  0  0  0  0  0  0  0  0  0
  195.9533  181.9477  156.6681 N   0  0  1  0  0  0  0  0  0  0  0  0
  196.7679  182.6601  155.6477 C   0  0  1  0  0  0  0  0  0  0  0  0
  196.9294  181.7310  154.5269 C   0  0  0  0  0  0  0  0  0  0  0  0
  197.1596  180.9542  153.6195 C   0  0  0  0  0  0  0  0  0  0  0  0
  197.4915  180.0257  152.5545 C   0  0  0  0  0  0  0  0  0  0  0  0
  198.5347  179.0683  152.6740 C   0  0  0  0  0  0  0  0  0  0  0  0
  198.8256  178.2369  151.6456 N   0  0  0  0  0  0  0  0  0  0  0  0
  198.1344  178.3109  150.4865 C   0  0  0  0  0  0  0  0  0  0  0  0
  197.0842  179.2444  150.3031 C   0  0  0  0  0  0  0  0  0  0  0  0
  196.7585  180.1127  151.3578 C   0  0  0  0  0  0  0  0  0  0  0  0
  196.3682  179.3006  149.0917 C   0  0  0  0  0  0  0  0  0  0  0  0
  196.6909  178.4189  148.0465 C   0  0  0  0  0  0  0  0  0  0  0  0
  197.7249  177.4807  148.2149 C   0  0  0  0  0  0  0  0  0  0  0  0
  198.4368  177.4319  149.4291 C   0  0  0  0  0  0  0  0  0  0  0  0
  199.2509  179.0435  153.9071 N   0  0  0  0  0  0  0  0  0  0  0  0
  200.3400  178.3294  154.2485 C   0  0  0  0  0  0  0  0  0  0  0  0
  200.8537  177.4298  153.5879 O   0  0  0  0  0  0  0  0  0  0  0  0
  200.9103  178.7120  155.5762 C   0  0  0  0  0  0  0  0  0  0  0  0
  201.7241  179.8656  155.7534 C   0  0  0  0  0  0  0  0  0  0  0  0
  202.0903  180.7557  154.6538 C   0  0  0  0  0  0  0  0  0  0  0  0
  202.3827  181.4628  153.7857 N   0  0  0  0  0  0  0  0  0  0  0  0
  202.2288  180.1816  157.0306 C   0  0  0  0  0  0  0  0  0  0  0  0
  201.9405  179.3601  158.1313 C   0  0  0  0  0  0  0  0  0  0  0  0
  201.1405  178.2061  157.9527 C   0  0  0  0  0  0  0  0  0  0  0  0
  200.6286  177.8842  156.6896 C   0  0  0  0  0  0  0  0  0  0  0  0
  194.9635  181.8360  158.9349 C   0  0  2  0  0  0  0  0  0  0  0  0
  196.4040  181.0916  156.9733 H   0  0  0  0  0  0  0  0  0  0  0  0
  195.5179  185.3653  158.7309 H   0  0  0  0  0  0  0  0  0  0  0  0
  198.2011  182.0319  158.1813 H   0  0  0  0  0  0  0  0  0  0  0  0
  200.0963  183.4126  158.9470 H   0  0  0  0  0  0  0  0  0  0  0  0
  199.7106  185.7755  159.6501 H   0  0  0  0  0  0  0  0  0  0  0  0
  194.8039  183.4305  157.5294 H   0  0  0  0  0  0  0  0  0  0  0  0
  196.3116  183.5857  155.2990 H   0  0  0  0  0  0  0  0  0  0  0  0
  197.7807  182.9065  155.9513 H   0  0  0  0  0  0  0  0  0  0  0  0
  195.9651  180.8422  151.2515 H   0  0  0  0  0  0  0  0  0  0  0  0
  195.5531  179.9948  148.9699 H   0  0  0  0  0  0  0  0  0  0  0  0
  196.1346  178.4412  147.1206 H   0  0  0  0  0  0  0  0  0  0  0  0
  197.9584  176.7932  147.4137 H   0  0  0  0  0  0  0  0  0  0  0  0
  199.2261  176.7078  149.5550 H   0  0  0  0  0  0  0  0  0  0  0  0
  198.9214  179.6921  154.6070 H   0  0  0  0  0  0  0  0  0  0  0  0
  202.8553  181.0514  157.1826 H   0  0  0  0  0  0  0  0  0  0  0  0
  202.3317  179.6033  159.1008 H   0  0  0  0  0  0  0  0  0  0  0  0
  200.9183  177.5726  158.8004 H   0  0  0  0  0  0  0  0  0  0  0  0
  200.0178  177.0004  156.5674 H   0  0  0  0  0  0  0  0  0  0  0  0
  194.6369  182.4507  159.7654 H   0  0  0  0  0  0  0  0  0  0  0  0
  195.6870  181.1083  159.2963 H   0  0  0  0  0  0  0  0  0  0  0  0
  194.0946  181.2985  158.5521 H   0  0  0  0  0  0  0  0  0  0  0  0
  195.0677  181.7052  156.2295 H   0  0  0  0  0  0  0  0  0  0  0  0
  1  2  1  0
  2  3  2  0
  2  7  1  0
  3  4  1  0
  3 36  1  0
  4  5  2  0
  4  8  1  0
  5  6  1  0
  5 37  1  0
  6  7  2  0
  6 38  1  0
  7 39  1  0
  8  9  1  0
  8 34  1  0
  8 40  1  6
  9 10  1  0
  9 35  1  1
  9 56  1  0
 10 11  1  0
 10 41  1  6
 10 42  1  0
 11 12  3  0
 12 13  1  0
 13 14  1  0
 13 18  2  0
 14 15  2  0
 14 23  1  0
 15 16  1  0
 16 17  1  0
 16 22  2  0
 17 18  1  0
 17 19  2  0
 18 43  1  0
 19 20  1  0
 19 44  1  0
 20 21  2  0
 20 45  1  0
 21 22  1  0
 21 46  1  0
 22 47  1  0
 23 24  1  0
 23 48  1  0
 24 25  2  0
 24 26  1  0
 26 27  1  0
 26 33  2  0
 27 28  1  0
 27 30  2  0
 28 29  3  0
 30 31  1  0
 30 49  1  0
 31 32  2  0
 31 50  1  0
 32 33  1  0
 32 51  1  0
 33 52  1  0
 34 53  1  1
 34 54  1  0
 34 55  1  0
M  CHG  1   9   1
M  END
>  <s_epik_cmdline>  (504) 
J2VwaWtfcHl0aG9uJywgJy1waCcsICc3LjAwMDAwMCcsICctcGh0JywgJzIuMDAwMDAwJywgJy1tcycsICcxNicsICctdG4nLCAnOCcsICctbWEnLCAnMjAwJywgJy1pbWFlJywgJzxpbmZpbGUubWFlPicsICctb21hZScsICc8b3V0ZmlsZS5tYWU+Jw==

>  <s_epik_input>  (504) 
RmMxW2NIXWMoW2NIXVtjSF1bY0hdMSlbQ0BIXShbQ0gzXSlbTkhdW0NIMl1DI0NjKFtjSF1jKGMyMylbY0hdW2NIXVtjSF1bY0hdMyljKG4yKVtOSF1DKD1PKWM0YyhDI04pW2NIXVtjSF1bY0hdW2NIXTQ=

>  <s_i_glide_gridfile>  (504) 
ATP-Grid

>  <s_lp_Force_Field>  (504) 
OPLS_2005

>  <s_lp_Variant>  (504) 
rxn503b____EMOL43467976____EMOL44466703____EMOL317509042-4

>  <s_lp_label>  (504) 
2800_sdstereoexpander_2_neutralizer_1_epik_2_stereoizer_1

>  <s_m_source_file>  (504) 
ATP-VSW-LIGPREP-003-in.maegz

>  <s_sd_BIOSOLVEIT.INFINISEE\_QUERY\_NAME>  (504) 
Ref-Lig

>  <s_sd_BIOSOLVEIT.INFINISEE\_QUERY\_SMILES>  (504) 
S(c1nc2c(cc1C[NH2+]Cc3ccc(cc3)C[NH+](C)C)cccc2)Cc4ccccc4

>  <s_sd_BIOSOLVEIT.INFINISEE\_REACTION\_NAME>  (504) 
rxn503b

>  <s_sd_BIOSOLVEIT.INFINISEE\_REAGENT1\_NAME>  (504) 
EMOL43467976

>  <s_sd_BIOSOLVEIT.INFINISEE\_REAGENT1\_SMILES>  (504) 
ClC(=O)c1c(C#N)cccc1

>  <s_sd_BIOSOLVEIT.INFINISEE\_REAGENT2\_NAME>  (504) 
EMOL44466703

>  <s_sd_BIOSOLVEIT.INFINISEE\_REAGENT2\_SMILES>  (504) 
Brc1c(nc2c(c1)cccc2)N

>  <s_sd_BIOSOLVEIT.INFINISEE\_REAGENT3\_NAME>  (504) 
EMOL317509042

>  <s_sd_BIOSOLVEIT.INFINISEE\_REAGENT3\_SMILES>  (504) 
Fc1cc(ccc1)C(NCC#C)C

>  <s_sd_BIOSOLVEIT.INFINISEE\_SPACE>  (504) 
eXplore_7tr_2022-12

>  <s_vsw_compound_code>  (504) 
89571

>  <s_vsw_variant>  (504) 
89571-4

>  <r_epik_Charging_Adjusted_Penalty>  (504) 
1.2241436293268599

>  <r_epik_Ionization_Penalty>  (504) 
0.63129999999999997

>  <r_epik_Ionization_Penalty_Charging>  (504) 
0.62760000000000005

>  <r_epik_Ionization_Penalty_Neutral>  (504) 
0.0037000000000000002

>  <r_epik_State_Penalty>  (504) 
0.59660000000000002

>  <r_i_docking_score>  (504) 
-4.3077129247582002

>  <r_i_glide_ecoul>  (504) 
-9.0678014755249006

>  <r_i_glide_eff_state_penalty>  (504) 
0.59660000000000002

>  <r_i_glide_einternal>  (504) 
6.7739710807800302

>  <r_i_glide_emodel>  (504) 
-59.017081148189199

>  <r_i_glide_energy>  (504) 
-43.395201683044398

>  <r_i_glide_erotb>  (504) 
0.69433441786033301

>  <r_i_glide_esite>  (504) 
-0.10099055537551101

>  <r_i_glide_evdw>  (504) 
-34.327400207519503

>  <r_i_glide_gscore>  (504) 
-4.9043129247582096

>  <r_i_glide_hbond>  (504) 
-0.17913409095941099

>  <r_i_glide_ligand_efficiency>  (504) 
-0.12669743896347699

>  <r_i_glide_ligand_efficiency_ln>  (504) 
-0.95169461233393504

>  <r_i_glide_ligand_efficiency_sa>  (504) 
-0.41045051797524701

>  <r_i_glide_lipo>  (504) 
-1.7023149740280501

>  <r_i_glide_metal>  (504) 
-0

>  <r_i_glide_rewards>  (504) 
-0.53966749055085805

>  <r_lp_Energy>  (504) 
27.656696

>  <r_qp_ACxDN^.5/SA>  (504) 
0.011957000000000001

>  <r_qp_CIQPlogS>  (504) 
-6.944

>  <r_qp_EA(eV)>  (504) 
1.089

>  <r_qp_FISA>  (504) 
112.515

>  <r_qp_FOSA>  (504) 
114.61

>  <r_qp_IP(eV)>  (504) 
8.7799999999999994

>  <r_qp_Jm>  (504) 
0.00011211269289768

>  <r_qp_PISA>  (504) 
494.70400000000001

>  <r_qp_PSA>  (504) 
82.846000000000004

>  <r_qp_PercentHumanOralAbsorption>  (504) 
96.328999999999994

>  <r_qp_QPPCaco>  (504) 
211.74799999999999

>  <r_qp_QPPMDCK>  (504) 
184.82300000000001

>  <r_qp_QPlogBB>  (504) 
-0.59899999999999998

>  <r_qp_QPlogHERG>  (504) 
-7.9729999999999999

>  <r_qp_QPlogKhsa>  (504) 
0.79500000000000004

>  <r_qp_QPlogKp>  (504) 
-3.145

>  <r_qp_QPlogPC16>  (504) 
15.859999999999999

>  <r_qp_QPlogPo/w>  (504) 
4.7400000000000002

>  <r_qp_QPlogPoct>  (504) 
24.210000000000001

>  <r_qp_QPlogPw>  (504) 
13.282999999999999

>  <r_qp_QPlogS>  (504) 
-6.4569999999999999

>  <r_qp_QPpolrz>  (504) 
50.037999999999997

>  <r_qp_SASA>  (504) 
768.78700000000003

>  <r_qp_SAamideO>  (504) 
0

>  <r_qp_SAfluorine>  (504) 
46.957999999999998

>  <r_qp_WPSA>  (504) 
46.957999999999998

>  <r_qp_accptHB>  (504) 
6.5

>  <r_qp_dip^2/V>  (504) 
0.052882499999999999

>  <r_qp_dipole>  (504) 
8.6489999999999991

>  <r_qp_donorHB>  (504) 
2

>  <r_qp_glob>  (504) 
0.79263289999999997

>  <r_qp_mol_MW>  (504) 
448.49799999999999

>  <r_qp_volume>  (504) 
1414.3910000000001

>  <r_sd_BIOSOLVEIT.INFINISEE\_FTREES\_SIMILARITY>  (504) 
0.90600000000000003

>  <r_sd_BIOSOLVEIT.LOGP>  (504) 
4.1739800000000002

>  <r_sd_BIOSOLVEIT.MOLECULAR\_WEIGHT>  (504) 
449.50700000000001

>  <r_sd_BIOSOLVEIT.TPSA>  (504) 
82.390000000000001

>  <i_epik_Tot_Q>  (504) 
1

>  <i_epik_Tot_abs_Q>  (504) 
1

>  <i_f3d_flags>  (504) 
0

>  <i_i_glide_confnum>  (504) 
3

>  <i_i_glide_lignum>  (504) 
1334

>  <i_i_glide_posenum>  (504) 
20

>  <i_i_glide_rotatable_bonds>  (504) 
8

>  <i_lp_mmshare_version>  (504) 
65135

>  <i_m_ct_format>  (504) 
2

>  <i_m_source_file_index>  (504) 
2800

>  <i_qp_#NandO>  (504) 
5

>  <i_qp_#acid>  (504) 
0

>  <i_qp_#amide>  (504) 
0

>  <i_qp_#amidine>  (504) 
0

>  <i_qp_#amine>  (504) 
1

>  <i_qp_#in34>  (504) 
0

>  <i_qp_#in56>  (504) 
22

>  <i_qp_#metab>  (504) 
4

>  <i_qp_#nonHatm>  (504) 
34

>  <i_qp_#noncon>  (504) 
0

>  <i_qp_#ringatoms>  (504) 
22

>  <i_qp_#rotor>  (504) 
8

>  <i_qp_#rtvFG>  (504) 
0

>  <i_qp_#stars>  (504) 
1

>  <i_qp_CNS>  (504) 
1

>  <i_qp_HumanOralAbsorption>  (504) 
1

>  <i_qp_RuleOfFive>  (504) 
0

>  <i_qp_RuleOfThree>  (504) 
1

>  <i_sd_BIOSOLVEIT.INFINISEE\_RESULT\_RANK>  (504) 
63661

>  <i_sd_version>  (504) 
0

>  <b_lp_Chiralities_Consistent>  (504) 
1

>  <b_sd_chiral_flag>  (504) 
0

>  <canonical_id>  (504) 
ATP-HTVS-4F9E5F08F37F

>  <compound_code>  (504) 
89571

>  <title>  (504) 
rxn503b____EMOL43467976____EMOL44466703____EMOL317509042

>  <variant>  (504) 
89571-4

>  <source_file>  (504) 
运行/运行/ATP-VSW/ATP-VSW-DOCK_HTVS_1-003_lib/ATP-VSW-DOCK_HTVS_1-003_lib.mae

>  <canonical_smiles>  (504) 
C[C@H]([NH2+]CC#Cc1cc2ccccc2nc1NC(=O)c1ccccc1C#N)c1cccc(F)c1

>  <scaffold>  (504) 
O=C(Nc1nc2ccccc2cc1C#CC[NH2+]Cc1ccccc1)c1ccccc1

>  <molecular_formula>  (504) 
C28H22FN4O+

$$$$
ATP-HTVS-4FCAA645F202
     RDKit          3D

 48 51  0  0  0  0  0  0  0  0999 V2000
  199.0697  186.2095  151.2982 F   0  0  0  0  0  0  0  0  0  0  0  0
  199.0148  186.6297  152.5831 C   0  0  0  0  0  0  0  0  0  0  0  0
  198.4022  185.8247  153.5641 C   0  0  0  0  0  0  0  0  0  0  0  0
  198.3483  186.2617  154.9026 C   0  0  0  0  0  0  0  0  0  0  0  0
  198.9172  187.5025  155.2655 C   0  0  0  0  0  0  0  0  0  0  0  0
  199.5207  188.3102  154.2770 C   0  0  0  0  0  0  0  0  0  0  0  0
  199.5716  187.8731  152.9391 C   0  0  0  0  0  0  0  0  0  0  0  0
  198.8650  187.9751  156.7057 C   0  0  1  0  0  0  0  0  0  0  0  0
  197.4886  188.2105  157.1396 N   0  0  0  0  0  0  0  0  0  0  0  0
  197.3481  188.8684  158.3757 C   0  0  0  0  0  0  0  0  0  0  0  0
  196.8155  188.1603  159.4919 C   0  0  0  0  0  0  0  0  0  0  0  0
  196.4425  186.7897  159.3438 N   0  0  0  0  0  0  0  0  0  0  0  0
  195.6645  186.0262  160.1296 C   0  0  0  0  0  0  0  0  0  0  0  0
  195.0849  186.3984  161.1541 O   0  0  0  0  0  0  0  0  0  0  0  0
  195.4600  184.6466  159.5876 C   0  0  0  0  0  0  0  0  0  0  0  0
  196.5669  183.8138  159.3074 C   0  0  0  0  0  0  0  0  0  0  0  0
  196.3632  182.5191  158.7939 C   0  0  0  0  0  0  0  0  0  0  0  0
  195.0583  182.0625  158.5362 C   0  0  0  0  0  0  0  0  0  0  0  0
  193.9574  182.9010  158.7818 C   0  0  0  0  0  0  0  0  0  0  0  0
  194.1531  184.1765  159.3379 C   0  0  0  0  0  0  0  0  0  0  0  0
  196.7264  188.8340  160.7337 C   0  0  0  0  0  0  0  0  0  0  0  0
  197.1368  190.1151  160.8441 N   0  0  0  0  0  0  0  0  0  0  0  0
  197.6325  190.8349  159.8134 C   0  0  0  0  0  0  0  0  0  0  0  0
  197.7342  190.2324  158.5333 C   0  0  0  0  0  0  0  0  0  0  0  0
  198.2047  191.0252  157.4533 C   0  0  0  0  0  0  0  0  0  0  0  0
  198.6183  192.3562  157.6603 C   0  0  0  0  0  0  0  0  0  0  0  0
  198.5382  192.9302  158.9406 C   0  0  0  0  0  0  0  0  0  0  0  0
  198.0374  192.1738  160.0155 C   0  0  0  0  0  0  0  0  0  0  0  0
  199.5459  187.0315  157.6112 C   0  0  0  0  0  0  0  0  0  0  0  0
  200.0722  186.2931  158.3267 N   0  0  0  0  0  0  0  0  0  0  0  0
  197.9740  184.8710  153.2921 H   0  0  0  0  0  0  0  0  0  0  0  0
  197.8730  185.6394  155.6452 H   0  0  0  0  0  0  0  0  0  0  0  0
  199.9494  189.2669  154.5390 H   0  0  0  0  0  0  0  0  0  0  0  0
  200.0452  188.4850  152.1857 H   0  0  0  0  0  0  0  0  0  0  0  0
  199.4621  188.8838  156.7712 H   0  0  0  0  0  0  0  0  0  0  0  0
  196.8996  187.3994  157.0269 H   0  0  0  0  0  0  0  0  0  0  0  0
  196.7574  186.3199  158.5113 H   0  0  0  0  0  0  0  0  0  0  0  0
  197.5740  184.1575  159.5056 H   0  0  0  0  0  0  0  0  0  0  0  0
  197.2002  181.8616  158.6085 H   0  0  0  0  0  0  0  0  0  0  0  0
  194.8967  181.0692  158.1450 H   0  0  0  0  0  0  0  0  0  0  0  0
  192.9669  182.5348  158.5519 H   0  0  0  0  0  0  0  0  0  0  0  0
  193.2935  184.7955  159.5558 H   0  0  0  0  0  0  0  0  0  0  0  0
  196.3756  188.3964  161.6550 H   0  0  0  0  0  0  0  0  0  0  0  0
  198.2392  190.6310  156.4482 H   0  0  0  0  0  0  0  0  0  0  0  0
  198.9853  192.9430  156.8294 H   0  0  0  0  0  0  0  0  0  0  0  0
  198.8400  193.9578  159.0938 H   0  0  0  0  0  0  0  0  0  0  0  0
  197.9673  192.6449  160.9828 H   0  0  0  0  0  0  0  0  0  0  0  0
  197.1043  190.5385  161.7701 H   0  0  0  0  0  0  0  0  0  0  0  0
  1  2  1  0
  2  3  1  0
  2  7  2  0
  3  4  2  0
  3 31  1  0
  4  5  1  0
  4 32  1  0
  5  6  2  0
  5  8  1  0
  6  7  1  0
  6 33  1  0
  7 34  1  0
  8  9  1  0
  8 29  1  0
  8 35  1  6
  9 10  1  0
  9 36  1  0
 10 11  2  0
 10 24  1  0
 11 12  1  0
 11 21  1  0
 12 13  1  0
 12 37  1  0
 13 14  2  0
 13 15  1  0
 15 16  2  0
 15 20  1  0
 16 17  1  0
 16 38  1  0
 17 18  2  0
 17 39  1  0
 18 19  1  0
 18 40  1  0
 19 20  2  0
 19 41  1  0
 20 42  1  0
 21 22  2  0
 21 43  1  0
 22 23  1  0
 22 48  1  0
 23 24  1  0
 23 28  2  0
 24 25  2  0
 25 26  1  0
 25 44  1  0
 26 27  2  0
 26 45  1  0
 27 28  1  0
 27 46  1  0
 28 47  1  0
 29 30  3  0
M  CHG  1  22   1
M  END
>  <s_epik_cmdline>  (505) 
J2VwaWtfcHl0aG9uJywgJy1waCcsICc3LjAwMDAwMCcsICctcGh0JywgJzIuMDAwMDAwJywgJy1tcycsICcxNicsICctdG4nLCAnOCcsICctbWEnLCAnMjAwJywgJy1pbWFlJywgJzxpbmZpbGUubWFlPicsICctb21hZScsICc8b3V0ZmlsZS5tYWU+Jw==

>  <s_epik_input>  (505) 
RmMxW2NIXVtjSF1jKFtjSF1bY0hdMSlbQ0BIXShDI04pW05IXWMoYyhjMjMpW2NIXVtjSF1bY0hdW2NIXTMpYyhbY0hdbjIpW05IXUMoPU8pYzRbY0hdW2NIXVtjSF1bY0hdW2NIXTQ=

>  <s_i_glide_gridfile>  (505) 
ATP-Grid

>  <s_lp_Force_Field>  (505) 
OPLS_2005

>  <s_lp_Variant>  (505) 
rxn502c____EMOL478180____EMOL44472687____EMOL906257-1

>  <s_lp_label>  (505) 
3049_sdstereoexpander_1_neutralizer_1_epik_1_stereoizer_1

>  <s_m_source_file>  (505) 
ATP-VSW-LIGPREP-001-in.maegz

>  <s_sd_BIOSOLVEIT.INFINISEE\_QUERY\_NAME>  (505) 
Ref-Lig

>  <s_sd_BIOSOLVEIT.INFINISEE\_QUERY\_SMILES>  (505) 
S(c1nc2c(cc1C[NH2+]Cc3ccc(cc3)C[NH+](C)C)cccc2)Cc4ccccc4

>  <s_sd_BIOSOLVEIT.INFINISEE\_REACTION\_NAME>  (505) 
rxn502c

>  <s_sd_BIOSOLVEIT.INFINISEE\_REAGENT1\_NAME>  (505) 
EMOL478180

>  <s_sd_BIOSOLVEIT.INFINISEE\_REAGENT1\_SMILES>  (505) 
[O-]C(=O)c1ccccc1

>  <s_sd_BIOSOLVEIT.INFINISEE\_REAGENT2\_NAME>  (505) 
EMOL44472687

>  <s_sd_BIOSOLVEIT.INFINISEE\_REAGENT2\_SMILES>  (505) 
Clc1c(N)cnc2c1cccc2

>  <s_sd_BIOSOLVEIT.INFINISEE\_REAGENT3\_NAME>  (505) 
EMOL906257

>  <s_sd_BIOSOLVEIT.INFINISEE\_REAGENT3\_SMILES>  (505) 
Fc1ccc(cc1)C(N)C#N

>  <s_sd_BIOSOLVEIT.INFINISEE\_SPACE>  (505) 
eXplore_7tr_2022-12

>  <s_vsw_compound_code>  (505) 
97537

>  <s_vsw_variant>  (505) 
97537-1

>  <r_epik_Charging_Adjusted_Penalty>  (505) 
0.58770670483153997

>  <r_epik_Ionization_Penalty>  (505) 
0.2414

>  <r_epik_Ionization_Penalty_Charging>  (505) 
0.24010000000000001

>  <r_epik_Ionization_Penalty_Neutral>  (505) 
0.0012999999999999999

>  <r_epik_State_Penalty>  (505) 
0.34760000000000002

>  <r_i_docking_score>  (505) 
-3.8870498655274601

>  <r_i_glide_ecoul>  (505) 
-3.4401123523712198

>  <r_i_glide_eff_state_penalty>  (505) 
0.34760000000000002

>  <r_i_glide_einternal>  (505) 
1.89639019966125

>  <r_i_glide_emodel>  (505) 
-52.467385769717097

>  <r_i_glide_energy>  (505) 
-38.496619462966898

>  <r_i_glide_erotb>  (505) 
0.74359399535096604

>  <r_i_glide_esite>  (505) 
-0.0617435183400106

>  <r_i_glide_evdw>  (505) 
-35.056507110595703

>  <r_i_glide_gscore>  (505) 
-4.2346498655274596

>  <r_i_glide_hbond>  (505) 
0

>  <r_i_glide_ligand_efficiency>  (505) 
-0.12956832885091499

>  <r_i_glide_ligand_efficiency_ln>  (505) 
-0.88318008224831701

>  <r_i_glide_ligand_efficiency_sa>  (505) 
-0.40259892269124398

>  <r_i_glide_lipo>  (505) 
-1.24076055894876

>  <r_i_glide_metal>  (505) 
-0

>  <r_i_glide_rewards>  (505) 
-1.4068975752041899

>  <r_lp_Energy>  (505) 
37.159433

>  <r_qp_ACxDN^.5/SA>  (505) 
0.012668799999999999

>  <r_qp_CIQPlogS>  (505) 
-7.1399999999999997

>  <r_qp_EA(eV)>  (505) 
1.2549999999999999

>  <r_qp_FISA>  (505) 
115.404

>  <r_qp_FOSA>  (505) 
4.6050000000000004

>  <r_qp_IP(eV)>  (505) 
8.7710000000000008

>  <r_qp_Jm>  (505) 
0.0069117989611435296

>  <r_qp_PISA>  (505) 
502.75099999999998

>  <r_qp_PSA>  (505) 
80.016999999999996

>  <r_qp_PercentHumanOralAbsorption>  (505) 
100

>  <r_qp_QPPCaco>  (505) 
797.11599999999999

>  <r_qp_QPPMDCK>  (505) 
700.62099999999998

>  <r_qp_QPlogBB>  (505) 
-0.82399999999999995

>  <r_qp_QPlogHERG>  (505) 
-6.8250000000000002

>  <r_qp_QPlogKhsa>  (505) 
0.45800000000000002

>  <r_qp_QPlogKp>  (505) 
-1.2989999999999999

>  <r_qp_QPlogPC16>  (505) 
13.992000000000001

>  <r_qp_QPlogPo/w>  (505) 
4.2160000000000002

>  <r_qp_QPlogPoct>  (505) 
21.664999999999999

>  <r_qp_QPlogPw>  (505) 
13.068

>  <r_qp_QPlogS>  (505) 
-6.4589999999999996

>  <r_qp_QPpolrz>  (505) 
43.323999999999998

>  <r_qp_SASA>  (505) 
669.77999999999997

>  <r_qp_SAamideO>  (505) 
0

>  <r_qp_SAfluorine>  (505) 
47.020000000000003

>  <r_qp_WPSA>  (505) 
47.020000000000003

>  <r_qp_accptHB>  (505) 
6

>  <r_qp_dip^2/V>  (505) 
0.047400499999999998

>  <r_qp_dipole>  (505) 
7.5810000000000004

>  <r_qp_donorHB>  (505) 
2

>  <r_qp_glob>  (505) 
0.8210771

>  <r_qp_mol_MW>  (505) 
396.423

>  <r_qp_volume>  (505) 
1212.626

>  <r_sd_BIOSOLVEIT.INFINISEE\_FTREES\_SIMILARITY>  (505) 
0.90200000000000002

>  <r_sd_BIOSOLVEIT.LOGP>  (505) 
5.3029799999999998

>  <r_sd_BIOSOLVEIT.MOLECULAR\_WEIGHT>  (505) 
396.423

>  <r_sd_BIOSOLVEIT.TPSA>  (505) 
77.810000000000002

>  <i_epik_Tot_Q>  (505) 
1

>  <i_epik_Tot_abs_Q>  (505) 
1

>  <i_f3d_flags>  (505) 
0

>  <i_i_glide_confnum>  (505) 
6

>  <i_i_glide_lignum>  (505) 
22

>  <i_i_glide_posenum>  (505) 
20

>  <i_i_glide_rotatable_bonds>  (505) 
6

>  <i_lp_mmshare_version>  (505) 
65135

>  <i_m_ct_format>  (505) 
2

>  <i_m_source_file_index>  (505) 
3049

>  <i_qp_#NandO>  (505) 
5

>  <i_qp_#acid>  (505) 
0

>  <i_qp_#amide>  (505) 
0

>  <i_qp_#amidine>  (505) 
0

>  <i_qp_#amine>  (505) 
0

>  <i_qp_#in34>  (505) 
0

>  <i_qp_#in56>  (505) 
22

>  <i_qp_#metab>  (505) 
4

>  <i_qp_#nonHatm>  (505) 
30

>  <i_qp_#noncon>  (505) 
0

>  <i_qp_#ringatoms>  (505) 
22

>  <i_qp_#rotor>  (505) 
6

>  <i_qp_#rtvFG>  (505) 
0

>  <i_qp_#stars>  (505) 
1

>  <i_qp_CNS>  (505) 
-1

>  <i_qp_HumanOralAbsorption>  (505) 
1

>  <i_qp_RuleOfFive>  (505) 
0

>  <i_qp_RuleOfThree>  (505) 
1

>  <i_sd_BIOSOLVEIT.INFINISEE\_RESULT\_RANK>  (505) 
91068

>  <i_sd_version>  (505) 
0

>  <b_lp_Chiralities_Consistent>  (505) 
1

>  <b_sd_chiral_flag>  (505) 
0

>  <canonical_id>  (505) 
ATP-HTVS-4FCAA645F202

>  <compound_code>  (505) 
97537

>  <title>  (505) 
rxn502c____EMOL478180____EMOL44472687____EMOL906257

>  <variant>  (505) 
97537-1

>  <source_file>  (505) 
运行/运行/ATP-VSW/ATP-VSW-DOCK_HTVS_1-002_lib.maegz

>  <canonical_smiles>  (505) 
N#C[C@H](Nc1c(NC(=O)c2ccccc2)c[nH+]c2ccccc12)c1ccc(F)cc1

>  <scaffold>  (505) 
O=C(Nc1c[nH+]c2ccccc2c1NCc1ccccc1)c1ccccc1

>  <molecular_formula>  (505) 
C24H18FN4O+

$$$$
ATP-HTVS-4FDD59ABF895
     RDKit          3D

 57 60  0  0  0  0  0  0  0  0999 V2000
  199.6836  185.4574  157.6547 O   0  0  0  0  0  0  0  0  0  0  0  0
  198.7314  184.6849  157.7631 C   0  0  0  0  0  0  0  0  0  0  0  0
  197.6261  184.9804  158.5236 N   0  0  0  0  0  0  0  0  0  0  0  0
  196.5326  184.0730  158.6962 C   0  0  0  0  0  0  0  0  0  0  0  0
  195.2110  184.5362  158.5414 C   0  0  0  0  0  0  0  0  0  0  0  0
  194.1114  183.6796  158.6536 C   0  0  0  0  0  0  0  0  0  0  0  0
  194.3147  182.3053  158.9188 C   0  0  0  0  0  0  0  0  0  0  0  0
  195.6219  181.8309  159.1203 C   0  0  0  0  0  0  0  0  0  0  0  0
  196.7121  182.7037  159.0291 C   0  0  0  0  0  0  0  0  0  0  0  0
  197.5758  186.2971  159.2202 C   0  0  2  0  0  0  0  0  0  0  0  0
  196.4770  186.4261  160.3201 C   0  0  2  0  0  0  0  0  0  0  0  0
  197.4680  187.4961  158.2538 C   0  0  2  0  0  0  0  0  0  0  0  0
  198.8258  183.3292  157.0814 C   0  0  0  0  0  0  0  0  0  0  0  0
  199.9361  182.4393  157.2737 C   0  0  0  0  0  0  0  0  0  0  0  0
  199.8716  181.1328  156.6887 C   0  0  0  0  0  0  0  0  0  0  0  0
  198.8070  180.7108  155.9799 N   0  0  0  0  0  0  0  0  0  0  0  0
  197.7871  181.5693  155.7659 C   0  0  0  0  0  0  0  0  0  0  0  0
  197.7785  182.8870  156.2446 C   0  0  0  0  0  0  0  0  0  0  0  0
  196.5776  181.0188  155.0217 C   0  0  1  0  0  0  0  0  0  0  0  0
  196.8613  181.0292  153.5223 C   0  0  0  0  0  0  0  0  0  0  0  0
  197.5129  180.1040  153.0390 O   0  0  0  0  0  0  0  0  0  0  0  0
  196.3722  182.0723  152.8257 N   0  0  0  0  0  0  0  0  0  0  0  0
  196.6900  182.4962  151.5047 C   0  0  0  0  0  0  0  0  0  0  0  0
  196.0994  183.6988  151.0675 C   0  0  0  0  0  0  0  0  0  0  0  0
  196.3800  184.2181  149.7870 C   0  0  0  0  0  0  0  0  0  0  0  0
  197.2578  183.5317  148.9279 C   0  0  0  0  0  0  0  0  0  0  0  0
  197.8499  182.3277  149.3497 C   0  0  0  0  0  0  0  0  0  0  0  0
  197.5681  181.8082  150.6275 C   0  0  0  0  0  0  0  0  0  0  0  0
  200.9468  180.2357  156.8828 C   0  0  0  0  0  0  0  0  0  0  0  0
  202.0686  180.5859  157.6491 C   0  0  0  0  0  0  0  0  0  0  0  0
  202.1167  181.8475  158.2628 C   0  0  0  0  0  0  0  0  0  0  0  0
  201.0587  182.7618  158.0834 C   0  0  0  0  0  0  0  0  0  0  0  0
  195.0614  185.5886  158.3033 H   0  0  0  0  0  0  0  0  0  0  0  0
  193.1018  184.0594  158.5316 H   0  0  0  0  0  0  0  0  0  0  0  0
  193.4626  181.6159  158.9886 H   0  0  0  0  0  0  0  0  0  0  0  0
  195.7913  180.7819  159.3333 H   0  0  0  0  0  0  0  0  0  0  0  0
  197.7045  182.2898  159.2337 H   0  0  0  0  0  0  0  0  0  0  0  0
  198.5350  186.3824  159.7349 H   0  0  0  0  0  0  0  0  0  0  0  0
  196.6506  187.2855  160.9925 H   0  0  0  0  0  0  0  0  0  0  0  0
  196.5236  185.5509  160.9772 H   0  0  0  0  0  0  0  0  0  0  0  0
  195.4881  186.4562  159.8461 H   0  0  0  0  0  0  0  0  0  0  0  0
  197.5412  188.4383  158.7948 H   0  0  0  0  0  0  0  0  0  0  0  0
  196.5278  187.4886  157.7050 H   0  0  0  0  0  0  0  0  0  0  0  0
  198.2686  187.5221  157.5134 H   0  0  0  0  0  0  0  0  0  0  0  0
  196.9204  183.5086  156.0414 H   0  0  0  0  0  0  0  0  0  0  0  0
  196.3562  179.9981  155.3512 H   0  0  0  0  0  0  0  0  0  0  0  0
  195.6944  181.6132  155.2490 H   0  0  0  0  0  0  0  0  0  0  0  0
  195.7454  182.6906  153.3340 H   0  0  0  0  0  0  0  0  0  0  0  0
  195.4411  184.2425  151.7312 H   0  0  0  0  0  0  0  0  0  0  0  0
  195.9224  185.1384  149.4534 H   0  0  0  0  0  0  0  0  0  0  0  0
  197.4641  183.9207  147.9429 H   0  0  0  0  0  0  0  0  0  0  0  0
  198.5237  181.7964  148.6939 H   0  0  0  0  0  0  0  0  0  0  0  0
  198.0644  180.8896  150.9010 H   0  0  0  0  0  0  0  0  0  0  0  0
  200.8930  179.2555  156.4308 H   0  0  0  0  0  0  0  0  0  0  0  0
  202.8849  179.8884  157.7642 H   0  0  0  0  0  0  0  0  0  0  0  0
  202.9721  182.1236  158.8620 H   0  0  0  0  0  0  0  0  0  0  0  0
  201.1377  183.7088  158.5918 H   0  0  0  0  0  0  0  0  0  0  0  0
  1  2  2  0
  2  3  1  0
  2 13  1  0
  3  4  1  0
  3 10  1  0
  4  5  2  0
  4  9  1  0
  5  6  1  0
  5 33  1  0
  6  7  2  0
  6 34  1  0
  7  8  1  0
  7 35  1  0
  8  9  2  0
  8 36  1  0
  9 37  1  0
 10 11  1  0
 10 12  1  0
 10 38  1  1
 11 39  1  1
 11 40  1  0
 11 41  1  0
 12 42  1  1
 12 43  1  0
 12 44  1  0
 13 14  1  0
 13 18  2  0
 14 15  1  0
 14 32  2  0
 15 16  1  0
 15 29  2  0
 16 17  2  0
 17 18  1  0
 17 19  1  0
 18 45  1  0
 19 20  1  0
 19 46  1  1
 19 47  1  0
 20 21  2  0
 20 22  1  0
 22 23  1  0
 22 48  1  0
 23 24  2  0
 23 28  1  0
 24 25  1  0
 24 49  1  0
 25 26  2  0
 25 50  1  0
 26 27  1  0
 26 51  1  0
 27 28  2  0
 27 52  1  0
 28 53  1  0
 29 30  1  0
 29 54  1  0
 30 31  2  0
 30 55  1  0
 31 32  1  0
 31 56  1  0
 32 57  1  0
M  END
>  <s_epik_cmdline>  (506) 
J2VwaWtfcHl0aG9uJywgJy1waCcsICc3LjAwMDAwMCcsICctcGh0JywgJzIuMDAwMDAwJywgJy1tcycsICcxNicsICctdG4nLCAnOCcsICctbWEnLCAnMjAwJywgJy1pbWFlJywgJzxpbmZpbGUubWFlPicsICctb21hZScsICc8b3V0ZmlsZS5tYWU+Jw==

>  <s_epik_input>  (506) 
W2NIXTFbY0hdW2NIXVtjSF1bY0hdYzFOKFtDSF0oW0NIM10pW0NIM10pQyg9TyljMltjSF1jKG5jKGMyMylbY0hdW2NIXVtjSF1bY0hdMylbQ0gyXUMoPU8pW05IXWM0W2NIXVtjSF1bY0hdW2NIXVtjSF00

>  <s_i_glide_gridfile>  (506) 
ATP-Grid

>  <s_lp_Force_Field>  (506) 
OPLS_2005

>  <s_lp_Variant>  (506) 
YAS_R016____OTV5753507____OTV1220423____OTV2848234-1

>  <s_lp_label>  (506) 
156_sdstereoexpander_1_neutralizer_1_epik_1_stereoizer_1

>  <s_m_source_file>  (506) 
ATP-VSW-LIGPREP-001-in.maegz

>  <s_sd_BIOSOLVEIT.INFINISEE\_QUERY\_NAME>  (506) 
Ref-Lig

>  <s_sd_BIOSOLVEIT.INFINISEE\_QUERY\_SMILES>  (506) 
S(c1nc2c(cc1C[NH2+]Cc3ccc(cc3)C[NH+](C)C)cccc2)Cc4ccccc4

>  <s_sd_BIOSOLVEIT.INFINISEE\_REACTION\_NAME>  (506) 
YAS_R016

>  <s_sd_BIOSOLVEIT.INFINISEE\_REAGENT1\_NAME>  (506) 
OTV5753507

>  <s_sd_BIOSOLVEIT.INFINISEE\_REAGENT1\_SMILES>  (506) 
Nc1ccccc1

>  <s_sd_BIOSOLVEIT.INFINISEE\_REAGENT2\_NAME>  (506) 
OTV1220423

>  <s_sd_BIOSOLVEIT.INFINISEE\_REAGENT2\_SMILES>  (506) 
N(c1ccccc1)C(C)C

>  <s_sd_BIOSOLVEIT.INFINISEE\_REAGENT3\_NAME>  (506) 
OTV2848234

>  <s_sd_BIOSOLVEIT.INFINISEE\_REAGENT3\_SMILES>  (506) 
O=C(Nc1ccccc1)CC(=O)C

>  <s_sd_BIOSOLVEIT.INFINISEE\_SPACE>  (506) 
CHEMriya_12bn_2022-01

>  <s_vsw_compound_code>  (506) 
4961

>  <s_vsw_variant>  (506) 
4961-1

>  <r_epik_Charging_Adjusted_Penalty>  (506) 
0.0069666095764290698

>  <r_epik_Ionization_Penalty>  (506) 
0.0070000000000000001

>  <r_epik_Ionization_Penalty_Charging>  (506) 
0

>  <r_epik_Ionization_Penalty_Neutral>  (506) 
0.0070000000000000001

>  <r_epik_State_Penalty>  (506) 
0.0070000000000000001

>  <r_i_docking_score>  (506) 
-3.70166899493297

>  <r_i_glide_ecoul>  (506) 
-2.8702943325042698

>  <r_i_glide_eff_state_penalty>  (506) 
0.0070000000000000001

>  <r_i_glide_einternal>  (506) 
2.8099303245544398

>  <r_i_glide_emodel>  (506) 
-46.523050188256803

>  <r_i_glide_energy>  (506) 
-38.215818166732802

>  <r_i_glide_erotb>  (506) 
0.66303361489941703

>  <r_i_glide_esite>  (506) 
-0.073382301403079803

>  <r_i_glide_evdw>  (506) 
-35.345523834228501

>  <r_i_glide_gscore>  (506) 
-3.7086689949329701

>  <r_i_glide_hbond>  (506) 
-0.16

>  <r_i_glide_ligand_efficiency>  (506) 
-0.11567715609165501

>  <r_i_glide_ligand_efficiency_ln>  (506) 
-0.828904591651348

>  <r_i_glide_ligand_efficiency_sa>  (506) 
-0.3672520781129

>  <r_i_glide_lipo>  (506) 
-1.3217638112474499

>  <r_i_glide_metal>  (506) 
-0

>  <r_i_glide_rewards>  (506) 
-0.61873615559478901

>  <r_lp_Energy>  (506) 
48.908636999999999

>  <r_qp_ACxDN^.5/SA>  (506) 
0.0097949000000000005

>  <r_qp_CIQPlogS>  (506) 
-6.5410000000000004

>  <r_qp_EA(eV)>  (506) 
1.202

>  <r_qp_FISA>  (506) 
62.401000000000003

>  <r_qp_FOSA>  (506) 
188.46899999999999

>  <r_qp_IP(eV)>  (506) 
8.9329999999999998

>  <r_qp_Jm>  (506) 
0.99399864647561798

>  <r_qp_PISA>  (506) 
412.74299999999999

>  <r_qp_PSA>  (506) 
68.329999999999998

>  <r_qp_PercentHumanOralAbsorption>  (506) 
100

>  <r_qp_QPPCaco>  (506) 
2536.009

>  <r_qp_QPPMDCK>  (506) 
1352.662

>  <r_qp_QPlogBB>  (506) 
-0.35199999999999998

>  <r_qp_QPlogHERG>  (506) 
-5.657

>  <r_qp_QPlogKhsa>  (506) 
0.63

>  <r_qp_QPlogKp>  (506) 
-0.64000000000000001

>  <r_qp_QPlogPC16>  (506) 
13.821

>  <r_qp_QPlogPo/w>  (506) 
4.7770000000000001

>  <r_qp_QPlogPoct>  (506) 
20.591999999999999

>  <r_qp_QPlogPw>  (506) 
11.092000000000001

>  <r_qp_QPlogS>  (506) 
-4.9900000000000002

>  <r_qp_QPpolrz>  (506) 
45.838999999999999

>  <r_qp_SASA>  (506) 
663.61300000000006

>  <r_qp_SAamideO>  (506) 
0

>  <r_qp_SAfluorine>  (506) 
0

>  <r_qp_WPSA>  (506) 
0

>  <r_qp_accptHB>  (506) 
6.5

>  <r_qp_dip^2/V>  (506) 
0.022665299999999999

>  <r_qp_dipole>  (506) 
5.4219999999999997

>  <r_qp_donorHB>  (506) 
1

>  <r_qp_glob>  (506) 
0.86669099999999999

>  <r_qp_mol_MW>  (506) 
423.51299999999998

>  <r_qp_volume>  (506) 
1296.944

>  <r_sd_BIOSOLVEIT.INFINISEE\_FTREES\_SIMILARITY>  (506) 
0.90200000000000002

>  <r_sd_BIOSOLVEIT.LOGP>  (506) 
5.4711999999999996

>  <r_sd_BIOSOLVEIT.MOLECULAR\_WEIGHT>  (506) 
423.51400000000001

>  <r_sd_BIOSOLVEIT.TPSA>  (506) 
62.299999999999997

>  <i_epik_Tot_Q>  (506) 
0

>  <i_epik_Tot_abs_Q>  (506) 
0

>  <i_f3d_flags>  (506) 
0

>  <i_i_glide_confnum>  (506) 
7

>  <i_i_glide_lignum>  (506) 
35

>  <i_i_glide_posenum>  (506) 
9

>  <i_i_glide_rotatable_bonds>  (506) 
8

>  <i_lp_mmshare_version>  (506) 
65135

>  <i_m_ct_format>  (506) 
2

>  <i_m_source_file_index>  (506) 
156

>  <i_qp_#NandO>  (506) 
5

>  <i_qp_#acid>  (506) 
0

>  <i_qp_#amide>  (506) 
0

>  <i_qp_#amidine>  (506) 
0

>  <i_qp_#amine>  (506) 
0

>  <i_qp_#in34>  (506) 
0

>  <i_qp_#in56>  (506) 
22

>  <i_qp_#metab>  (506) 
3

>  <i_qp_#nonHatm>  (506) 
32

>  <i_qp_#noncon>  (506) 
0

>  <i_qp_#ringatoms>  (506) 
22

>  <i_qp_#rotor>  (506) 
6

>  <i_qp_#rtvFG>  (506) 
0

>  <i_qp_#stars>  (506) 
0

>  <i_qp_CNS>  (506) 
0

>  <i_qp_HumanOralAbsorption>  (506) 
3

>  <i_qp_RuleOfFive>  (506) 
0

>  <i_qp_RuleOfThree>  (506) 
0

>  <i_sd_BIOSOLVEIT.INFINISEE\_RESULT\_RANK>  (506) 
91218

>  <i_sd_version>  (506) 
0

>  <b_lp_Chiralities_Consistent>  (506) 
1

>  <b_sd_chiral_flag>  (506) 
0

>  <canonical_id>  (506) 
ATP-HTVS-4FDD59ABF895

>  <compound_code>  (506) 
4961

>  <title>  (506) 
YAS_R016____OTV5753507____OTV1220423____OTV2848234

>  <variant>  (506) 
4961-1

>  <source_file>  (506) 
运行/运行/ATP-VSW/ATP-VSW-DOCK_HTVS_1-001_lib/ATP-VSW-DOCK_HTVS_1-001_lib

>  <canonical_smiles>  (506) 
CC(C)N(C(=O)c1cc(CC(=O)Nc2ccccc2)nc2ccccc12)c1ccccc1

>  <scaffold>  (506) 
O=C(Cc1cc(C(=O)Nc2ccccc2)c2ccccc2n1)Nc1ccccc1

>  <molecular_formula>  (506) 
C27H25N3O2

$$$$
ATP-HTVS-505E03B882A0
     RDKit          3D

 49 51  0  0  0  0  0  0  0  0999 V2000
  193.5295  181.2614  158.4668 F   0  0  0  0  0  0  0  0  0  0  0  0
  194.3705  182.2802  158.7653 C   0  0  0  0  0  0  0  0  0  0  0  0
  195.7435  182.0338  158.9422 C   0  0  0  0  0  0  0  0  0  0  0  0
  196.6065  183.0709  159.3290 C   0  0  0  0  0  0  0  0  0  0  0  0
  196.1231  184.3915  159.4498 C   0  0  0  0  0  0  0  0  0  0  0  0
  196.9773  185.4328  159.7294 O   0  0  0  0  0  0  0  0  0  0  0  0
  197.3186  186.2734  158.6889 C   0  0  0  0  0  0  0  0  0  0  0  0
  196.9122  187.5538  158.8432 N   0  0  0  0  0  0  0  0  0  0  0  0
  197.2603  188.4521  157.8964 C   0  0  0  0  0  0  0  0  0  0  0  0
  198.0032  188.1213  156.7477 C   0  0  0  0  0  0  0  0  0  0  0  0
  198.4299  186.7905  156.5900 C   0  0  0  0  0  0  0  0  0  0  0  0
  198.1091  185.8395  157.5887 C   0  0  0  0  0  0  0  0  0  0  0  0
  198.5535  184.5134  157.5251 N   0  0  0  0  0  0  0  0  0  0  0  0
  199.4349  184.0197  156.4826 C   0  0  1  0  0  0  0  0  0  0  0  0
  199.7652  182.5504  156.6604 C   0  0  0  0  0  0  0  0  0  0  0  0
  198.7567  181.5676  156.5667 C   0  0  0  0  0  0  0  0  0  0  0  0
  199.0750  180.2062  156.7382 C   0  0  0  0  0  0  0  0  0  0  0  0
  200.4088  179.8063  156.9776 C   0  0  0  0  0  0  0  0  0  0  0  0
  201.4132  180.7920  157.0897 C   0  0  0  0  0  0  0  0  0  0  0  0
  201.0886  182.1557  156.9392 C   0  0  0  0  0  0  0  0  0  0  0  0
  200.7543  178.3340  157.1770 C   0  0  1  0  0  0  0  0  0  0  0  0
  200.8130  177.5476  155.9169 N   0  0  2  0  0  0  0  0  0  0  0  0
  201.8553  178.0108  154.9717 C   0  0  2  0  0  0  0  0  0  0  0  0
  199.4965  177.3761  155.2619 C   0  0  2  0  0  0  0  0  0  0  0  0
  194.7434  184.6386  159.2795 C   0  0  0  0  0  0  0  0  0  0  0  0
  193.8716  183.5842  158.9350 C   0  0  0  0  0  0  0  0  0  0  0  0
  196.1412  181.0379  158.8173 H   0  0  0  0  0  0  0  0  0  0  0  0
  197.6474  182.8489  159.5097 H   0  0  0  0  0  0  0  0  0  0  0  0
  196.9293  189.4668  158.0565 H   0  0  0  0  0  0  0  0  0  0  0  0
  198.2439  188.8707  156.0059 H   0  0  0  0  0  0  0  0  0  0  0  0
  199.0125  186.5212  155.7161 H   0  0  0  0  0  0  0  0  0  0  0  0
  198.1857  183.8461  158.1867 H   0  0  0  0  0  0  0  0  0  0  0  0
  198.9716  184.1416  155.5016 H   0  0  0  0  0  0  0  0  0  0  0  0
  200.3575  184.6067  156.4867 H   0  0  0  0  0  0  0  0  0  0  0  0
  197.7274  181.8441  156.3861 H   0  0  0  0  0  0  0  0  0  0  0  0
  198.2825  179.4696  156.7039 H   0  0  0  0  0  0  0  0  0  0  0  0
  202.4369  180.5107  157.3075 H   0  0  0  0  0  0  0  0  0  0  0  0
  201.8605  182.9004  157.0493 H   0  0  0  0  0  0  0  0  0  0  0  0
  201.7199  178.2530  157.6794 H   0  0  0  0  0  0  0  0  0  0  0  0
  200.0298  177.8896  157.8617 H   0  0  0  0  0  0  0  0  0  0  0  0
  201.6159  178.9926  154.5615 H   0  0  0  0  0  0  0  0  0  0  0  0
  201.9485  177.3136  154.1391 H   0  0  0  0  0  0  0  0  0  0  0  0
  202.8289  178.0759  155.4566 H   0  0  0  0  0  0  0  0  0  0  0  0
  199.1426  178.3061  154.8170 H   0  0  0  0  0  0  0  0  0  0  0  0
  198.7508  177.0397  155.9833 H   0  0  0  0  0  0  0  0  0  0  0  0
  199.5559  176.6389  154.4601 H   0  0  0  0  0  0  0  0  0  0  0  0
  194.3504  185.6404  159.3829 H   0  0  0  0  0  0  0  0  0  0  0  0
  192.8166  183.7765  158.7920 H   0  0  0  0  0  0  0  0  0  0  0  0
  201.0936  176.6216  156.2064 H   0  0  0  0  0  0  0  0  0  0  0  0
  1  2  1  0
  2  3  1  0
  2 26  2  0
  3  4  2  0
  3 27  1  0
  4  5  1  0
  4 28  1  0
  5  6  1  0
  5 25  2  0
  6  7  1  0
  7  8  1  0
  7 12  2  0
  8  9  2  0
  9 10  1  0
  9 29  1  0
 10 11  2  0
 10 30  1  0
 11 12  1  0
 11 31  1  0
 12 13  1  0
 13 14  1  0
 13 32  1  0
 14 15  1  0
 14 33  1  6
 14 34  1  0
 15 16  1  0
 15 20  2  0
 16 17  2  0
 16 35  1  0
 17 18  1  0
 17 36  1  0
 18 19  2  0
 18 21  1  0
 19 20  1  0
 19 37  1  0
 20 38  1  0
 21 22  1  0
 21 39  1  1
 21 40  1  0
 22 23  1  0
 22 24  1  0
 22 49  1  1
 23 41  1  6
 23 42  1  0
 23 43  1  0
 24 44  1  6
 24 45  1  0
 24 46  1  0
 25 26  1  0
 25 47  1  0
 26 48  1  0
M  CHG  1  22   1
M  END
>  <s_epik_cmdline>  (507) 
J2VwaWtfcHl0aG9uJywgJy1waCcsICc3LjAwMDAwMCcsICctcGh0JywgJzIuMDAwMDAwJywgJy1tcycsICcxNicsICctdG4nLCAnOCcsICctbWEnLCAnMjAwJywgJy1pbWFlJywgJzxpbmZpbGUubWFlPicsICctb21hZScsICc8b3V0ZmlsZS5tYWU+Jw==

>  <s_epik_input>  (507) 
RmMxW2NIXVtjSF1jKFtjSF1bY0hdMSlPYzJuW2NIXVtjSF1bY0hdYzJbTkhdW0NIMl1jM1tjSF1bY0hdYyhbY0hdW2NIXTMpW0NIMl1OKFtDSDNdKVtDSDNd

>  <s_i_glide_gridfile>  (507) 
ATP-Grid

>  <s_lp_Force_Field>  (507) 
OPLS_2005

>  <s_lp_Variant>  (507) 
a4____332543____18622-1

>  <s_lp_label>  (507) 
364_sdstereoexpander_1_neutralizer_1_epik_1_stereoizer_1

>  <s_m_source_file>  (507) 
ATP-VSW-LIGPREP-001-in.maegz

>  <s_sd_BIOSOLVEIT.INFINISEE\_QUERY\_NAME>  (507) 
Ref-Lig

>  <s_sd_BIOSOLVEIT.INFINISEE\_QUERY\_SMILES>  (507) 
S(c1nc2c(cc1C[NH2+]Cc3ccc(cc3)C[NH+](C)C)cccc2)Cc4ccccc4

>  <s_sd_BIOSOLVEIT.INFINISEE\_REACTION\_NAME>  (507) 
a4

>  <s_sd_BIOSOLVEIT.INFINISEE\_REAGENT1\_SMILES>  (507) 
[R1*]Nc1c(Oc2ccc(F)cc2)nccc1

>  <s_sd_BIOSOLVEIT.INFINISEE\_REAGENT2\_SMILES>  (507) 
[R1*]Cc1ccc(cc1)CN(C)C

>  <s_sd_BIOSOLVEIT.INFINISEE\_SPACE>  (507) 
FreedomSpace_5bn_2023-06

>  <s_vsw_compound_code>  (507) 
11617

>  <s_vsw_variant>  (507) 
11617-1

>  <r_epik_Charging_Adjusted_Penalty>  (507) 
0.078407994868761793

>  <r_epik_Ionization_Penalty>  (507) 
0.039199999999999999

>  <r_epik_Ionization_Penalty_Charging>  (507) 
0.039199999999999999

>  <r_epik_Ionization_Penalty_Neutral>  (507) 
0

>  <r_epik_State_Penalty>  (507) 
0.039199999999999999

>  <r_i_docking_score>  (507) 
-3.8043462444061502

>  <r_i_glide_ecoul>  (507) 
-6.5040206909179696

>  <r_i_glide_eff_state_penalty>  (507) 
0.039199999999999999

>  <r_i_glide_einternal>  (507) 
2.0341262817382799

>  <r_i_glide_emodel>  (507) 
-46.4807046028738

>  <r_i_glide_energy>  (507) 
-35.6723117828369

>  <r_i_glide_erotb>  (507) 
0.92194187740807798

>  <r_i_glide_esite>  (507) 
-0.086203458113666601

>  <r_i_glide_evdw>  (507) 
-29.168291091918899

>  <r_i_glide_gscore>  (507) 
-3.8435462444061499

>  <r_i_glide_hbond>  (507) 
0

>  <r_i_glide_ligand_efficiency>  (507) 
-0.14632100940023601

>  <r_i_glide_ligand_efficiency_ln>  (507) 
-0.89343823242059095

>  <r_i_glide_ligand_efficiency_sa>  (507) 
-0.43347541460283001

>  <r_i_glide_lipo>  (507) 
-1.0140753441032799

>  <r_i_glide_metal>  (507) 
-0

>  <r_i_glide_rewards>  (507) 
-1.23119166136364

>  <r_lp_Energy>  (507) 
22.267164999999999

>  <r_lp_tautomer_probability>  (507) 
1

>  <r_qp_ACxDN^.5/SA>  (507) 
0.006705

>  <r_qp_CIQPlogS>  (507) 
-4.5880000000000001

>  <r_qp_EA(eV)>  (507) 
0.27900000000000003

>  <r_qp_FISA>  (507) 
28.405999999999999

>  <r_qp_FOSA>  (507) 
206.32900000000001

>  <r_qp_IP(eV)>  (507) 
8.3350000000000009

>  <r_qp_Jm>  (507) 
0.061713237439667799

>  <r_qp_PISA>  (507) 
389.38400000000001

>  <r_qp_PSA>  (507) 
36.323999999999998

>  <r_qp_PercentHumanOralAbsorption>  (507) 
100

>  <r_qp_QPPCaco>  (507) 
1328.6900000000001

>  <r_qp_QPPMDCK>  (507) 
1346.5070000000001

>  <r_qp_QPlogBB>  (507) 
0.36399999999999999

>  <r_qp_QPlogHERG>  (507) 
-7.2599999999999998

>  <r_qp_QPlogKhsa>  (507) 
0.65500000000000003

>  <r_qp_QPlogKp>  (507) 
-2.0619999999999998

>  <r_qp_QPlogPC16>  (507) 
12.077999999999999

>  <r_qp_QPlogPo/w>  (507) 
4.726

>  <r_qp_QPlogPoct>  (507) 
17.213000000000001

>  <r_qp_QPlogPw>  (507) 
8.5459999999999994

>  <r_qp_QPlogS>  (507) 
-4.694

>  <r_qp_QPpolrz>  (507) 
40.383000000000003

>  <r_qp_SASA>  (507) 
671.13900000000001

>  <r_qp_SAamideO>  (507) 
0

>  <r_qp_SAfluorine>  (507) 
47.018999999999998

>  <r_qp_WPSA>  (507) 
47.018999999999998

>  <r_qp_accptHB>  (507) 
4.5

>  <r_qp_dip^2/V>  (507) 
0.015492499999999999

>  <r_qp_dipole>  (507) 
4.2800000000000002

>  <r_qp_donorHB>  (507) 
1

>  <r_qp_glob>  (507) 
0.80566950000000004

>  <r_qp_mol_MW>  (507) 
351.423

>  <r_qp_volume>  (507) 
1182.2429999999999

>  <r_sd_BIOSOLVEIT.INFINISEE\_FTREES\_SIMILARITY>  (507) 
0.91000000000000003

>  <r_sd_BIOSOLVEIT.LOGP>  (507) 
3.2696000000000001

>  <r_sd_BIOSOLVEIT.MOLECULAR\_WEIGHT>  (507) 
352.43099999999998

>  <r_sd_BIOSOLVEIT.TPSA>  (507) 
38.590000000000003

>  <i_epik_Tot_Q>  (507) 
1

>  <i_epik_Tot_abs_Q>  (507) 
1

>  <i_f3d_flags>  (507) 
0

>  <i_i_glide_confnum>  (507) 
1

>  <i_i_glide_lignum>  (507) 
49

>  <i_i_glide_posenum>  (507) 
10

>  <i_i_glide_rotatable_bonds>  (507) 
7

>  <i_lp_mmshare_version>  (507) 
65135

>  <i_m_ct_format>  (507) 
2

>  <i_m_source_file_index>  (507) 
364

>  <i_qp_#NandO>  (507) 
4

>  <i_qp_#acid>  (507) 
0

>  <i_qp_#amide>  (507) 
0

>  <i_qp_#amidine>  (507) 
0

>  <i_qp_#amine>  (507) 
1

>  <i_qp_#in34>  (507) 
0

>  <i_qp_#in56>  (507) 
18

>  <i_qp_#metab>  (507) 
7

>  <i_qp_#nonHatm>  (507) 
26

>  <i_qp_#noncon>  (507) 
0

>  <i_qp_#ringatoms>  (507) 
18

>  <i_qp_#rotor>  (507) 
7

>  <i_qp_#rtvFG>  (507) 
0

>  <i_qp_#stars>  (507) 
0

>  <i_qp_CNS>  (507) 
1

>  <i_qp_HumanOralAbsorption>  (507) 
3

>  <i_qp_RuleOfFive>  (507) 
0

>  <i_qp_RuleOfThree>  (507) 
1

>  <i_sd_BIOSOLVEIT.INFINISEE\_REAGENT1\_NAME>  (507) 
332543

>  <i_sd_BIOSOLVEIT.INFINISEE\_REAGENT2\_NAME>  (507) 
18622

>  <i_sd_BIOSOLVEIT.INFINISEE\_RESULT\_RANK>  (507) 
44700

>  <i_sd_version>  (507) 
0

>  <b_lp_Chiralities_Consistent>  (507) 
1

>  <b_sd_chiral_flag>  (507) 
0

>  <canonical_id>  (507) 
ATP-HTVS-505E03B882A0

>  <compound_code>  (507) 
11617

>  <title>  (507) 
a4____332543____18622

>  <variant>  (507) 
11617-1

>  <source_file>  (507) 
运行/运行/ATP-VSW/ATP-VSW-DOCK_HTVS_1-001_lib/ATP-VSW-DOCK_HTVS_1-001_lib

>  <canonical_smiles>  (507) 
C[NH+](C)Cc1ccc(CNc2cccnc2Oc2ccc(F)cc2)cc1

>  <scaffold>  (507) 
c1ccc(CNc2cccnc2Oc2ccccc2)cc1

>  <molecular_formula>  (507) 
C21H23FN3O+

$$$$
ATP-HTVS-507C96D672B3
     RDKit          3D

 65 68  0  0  0  0  0  0  0  0999 V2000
  199.7949  181.1694  152.0510 O   0  0  0  0  0  0  0  0  0  0  0  0
  198.9205  181.6310  152.7834 C   0  0  0  0  0  0  0  0  0  0  0  0
  197.8822  180.9944  153.3732 N   0  0  0  0  0  0  0  0  0  0  0  0
  197.0513  181.8826  154.2170 C   0  0  2  0  0  0  0  0  0  0  0  0
  197.7040  183.2359  153.9760 C   0  0  0  0  0  0  0  0  0  0  0  0
  198.7976  183.0588  153.1498 C   0  0  0  0  0  0  0  0  0  0  0  0
  199.6097  184.1331  152.7429 C   0  0  0  0  0  0  0  0  0  0  0  0
  199.2825  185.4215  153.2239 C   0  0  0  0  0  0  0  0  0  0  0  0
  198.1659  185.6072  154.0756 C   0  0  0  0  0  0  0  0  0  0  0  0
  197.3534  184.5152  154.4504 C   0  0  0  0  0  0  0  0  0  0  0  0
  197.1029  181.4844  155.7152 C   0  0  1  0  0  0  0  0  0  0  0  0
  196.3365  182.4228  156.5618 N   0  0  1  0  0  0  0  0  0  0  0  0
  196.6092  182.3261  158.0136 C   0  0  1  0  0  0  0  0  0  0  0  0
  196.1062  183.5588  158.7471 C   0  0  0  0  0  0  0  0  0  0  0  0
  196.9212  184.7037  158.8735 C   0  0  0  0  0  0  0  0  0  0  0  0
  196.4594  185.8558  159.5536 C   0  0  0  0  0  0  0  0  0  0  0  0
  197.3248  186.9525  159.5765 O   0  0  0  0  0  0  0  0  0  0  0  0
  196.9170  188.1922  160.1482 C   0  0  1  0  0  0  0  0  0  0  0  0
  197.6603  189.2940  159.3958 C   0  0  1  0  0  0  0  0  0  0  0  0
  199.1055  189.4014  159.7328 N   0  0  2  0  0  0  0  0  0  0  0  0
  199.6814  190.6752  159.2600 C   0  0  2  0  0  0  0  0  0  0  0  0
  199.9309  188.2526  159.2825 C   0  0  2  0  0  0  0  0  0  0  0  0
  195.1776  185.8356  160.1485 C   0  0  0  0  0  0  0  0  0  0  0  0
  194.3609  184.7102  160.0048 C   0  0  0  0  0  0  0  0  0  0  0  0
  194.8118  183.5683  159.3098 C   0  0  0  0  0  0  0  0  0  0  0  0
  197.5117  179.5945  153.1458 C   0  0  1  0  0  0  0  0  0  0  0  0
  197.4158  179.2057  151.6757 C   0  0  0  0  0  0  0  0  0  0  0  0
  196.4218  179.7842  150.8568 C   0  0  0  0  0  0  0  0  0  0  0  0
  196.3468  179.4411  149.4893 C   0  0  0  0  0  0  0  0  0  0  0  0
  197.2632  178.5276  148.9374 C   0  0  0  0  0  0  0  0  0  0  0  0
  198.2570  177.9508  149.7504 C   0  0  0  0  0  0  0  0  0  0  0  0
  198.3321  178.2883  151.1147 C   0  0  0  0  0  0  0  0  0  0  0  0
  196.6086  183.3488  156.2852 H   0  0  0  0  0  0  0  0  0  0  0  0
  196.0249  181.9009  153.8452 H   0  0  0  0  0  0  0  0  0  0  0  0
  200.4514  183.9787  152.0827 H   0  0  0  0  0  0  0  0  0  0  0  0
  199.8816  186.2722  152.9353 H   0  0  0  0  0  0  0  0  0  0  0  0
  197.9223  186.5943  154.4341 H   0  0  0  0  0  0  0  0  0  0  0  0
  196.4900  184.6792  155.0732 H   0  0  0  0  0  0  0  0  0  0  0  0
  196.7048  180.4771  155.8799 H   0  0  0  0  0  0  0  0  0  0  0  0
  198.1515  181.4604  156.0365 H   0  0  0  0  0  0  0  0  0  0  0  0
  196.1422  181.4258  158.4172 H   0  0  0  0  0  0  0  0  0  0  0  0
  197.6875  182.2313  158.1960 H   0  0  0  0  0  0  0  0  0  0  0  0
  197.9181  184.7120  158.4429 H   0  0  0  0  0  0  0  0  0  0  0  0
  195.8524  188.4146  160.0220 H   0  0  0  0  0  0  0  0  0  0  0  0
  197.1294  188.2186  161.2130 H   0  0  0  0  0  0  0  0  0  0  0  0
  197.5209  189.1759  158.3118 H   0  0  0  0  0  0  0  0  0  0  0  0
  197.1707  190.2302  159.6597 H   0  0  0  0  0  0  0  0  0  0  0  0
  199.6334  190.7471  158.1683 H   0  0  0  0  0  0  0  0  0  0  0  0
  200.7304  190.7489  159.5547 H   0  0  0  0  0  0  0  0  0  0  0  0
  199.1604  191.5366  159.6819 H   0  0  0  0  0  0  0  0  0  0  0  0
  199.8505  188.1294  158.2008 H   0  0  0  0  0  0  0  0  0  0  0  0
  199.6432  187.3017  159.7391 H   0  0  0  0  0  0  0  0  0  0  0  0
  200.9850  188.4042  159.5403 H   0  0  0  0  0  0  0  0  0  0  0  0
  194.7892  186.6674  160.7034 H   0  0  0  0  0  0  0  0  0  0  0  0
  193.3755  184.7237  160.4281 H   0  0  0  0  0  0  0  0  0  0  0  0
  194.1711  182.7034  159.2164 H   0  0  0  0  0  0  0  0  0  0  0  0
  198.2345  178.9476  153.6564 H   0  0  0  0  0  0  0  0  0  0  0  0
  196.5466  179.3959  153.6112 H   0  0  0  0  0  0  0  0  0  0  0  0
  195.7191  180.4890  151.2760 H   0  0  0  0  0  0  0  0  0  0  0  0
  195.5737  179.8515  148.8644 H   0  0  0  0  0  0  0  0  0  0  0  0
  197.1961  178.2603  147.8913 H   0  0  0  0  0  0  0  0  0  0  0  0
  198.9576  177.2471  149.3239 H   0  0  0  0  0  0  0  0  0  0  0  0
  199.1057  177.8483  151.7288 H   0  0  0  0  0  0  0  0  0  0  0  0
  199.1559  189.4331  160.7458 H   0  0  0  0  0  0  0  0  0  0  0  0
  195.3483  182.3263  156.3776 H   0  0  0  0  0  0  0  0  0  0  0  0
  1  2  2  0
  2  3  1  0
  2  6  1  0
  3  4  1  0
  3 26  1  0
  4  5  1  0
  4 11  1  0
  4 34  1  6
  5  6  1  0
  5 10  2  0
  6  7  2  0
  7  8  1  0
  7 35  1  0
  8  9  2  0
  8 36  1  0
  9 10  1  0
  9 37  1  0
 10 38  1  0
 11 12  1  0
 11 39  1  6
 11 40  1  0
 12 13  1  0
 12 33  1  6
 12 65  1  0
 13 14  1  0
 13 41  1  1
 13 42  1  0
 14 15  1  0
 14 25  2  0
 15 16  2  0
 15 43  1  0
 16 17  1  0
 16 23  1  0
 17 18  1  0
 18 19  1  0
 18 44  1  1
 18 45  1  0
 19 20  1  0
 19 46  1  6
 19 47  1  0
 20 21  1  0
 20 22  1  0
 20 64  1  1
 21 48  1  6
 21 49  1  0
 21 50  1  0
 22 51  1  6
 22 52  1  0
 22 53  1  0
 23 24  2  0
 23 54  1  0
 24 25  1  0
 24 55  1  0
 25 56  1  0
 26 27  1  0
 26 57  1  1
 26 58  1  0
 27 28  2  0
 27 32  1  0
 28 29  1  0
 28 59  1  0
 29 30  2  0
 29 60  1  0
 30 31  1  0
 30 61  1  0
 31 32  2  0
 31 62  1  0
 32 63  1  0
M  CHG  2  12   1  20   1
M  END
>  <s_epik_cmdline>  (508) 
J2VwaWtfcHl0aG9uJywgJy1waCcsICc3LjAwMDAwMCcsICctcGh0JywgJzIuMDAwMDAwJywgJy1tcycsICcxNicsICctdG4nLCAnOCcsICctbWEnLCAnMjAwJywgJy1pbWFlJywgJzxpbmZpbGUubWFlPicsICctb21hZScsICc8b3V0ZmlsZS5tYWU+Jw==

>  <s_epik_input>  (508) 
W2NIXTFbY0hdW2NIXVtjSF1bY0hdYzFbQ0gyXU4oQyg9TyljKGMyMylbY0hdW2NIXVtjSF1bY0hdMylbQ0BIXTJbQ0gyXVtOSF1bQ0gyXWM0W2NIXWMoW2NIXVtjSF1bY0hdNClPW0NIMl1bQ0gyXU4oW0NIM10pW0NIM10=

>  <s_i_glide_gridfile>  (508) 
ATP-Grid

>  <s_lp_Force_Field>  (508) 
OPLS_2005

>  <s_lp_Variant>  (508) 
a4____241569____182810-1

>  <s_lp_label>  (508) 
175_sdstereoexpander_1_neutralizer_1_epik_1_stereoizer_1

>  <s_m_source_file>  (508) 
ATP-VSW-LIGPREP-002-in.maegz

>  <s_sd_BIOSOLVEIT.INFINISEE\_QUERY\_NAME>  (508) 
Ref-Lig

>  <s_sd_BIOSOLVEIT.INFINISEE\_QUERY\_SMILES>  (508) 
S(c1nc2c(cc1C[NH2+]Cc3ccc(cc3)C[NH+](C)C)cccc2)Cc4ccccc4

>  <s_sd_BIOSOLVEIT.INFINISEE\_REACTION\_NAME>  (508) 
a4

>  <s_sd_BIOSOLVEIT.INFINISEE\_REAGENT1\_SMILES>  (508) 
[R1*]NCC1N(C(=O)c2c1cccc2)Cc3ccccc3

>  <s_sd_BIOSOLVEIT.INFINISEE\_REAGENT2\_SMILES>  (508) 
[R1*]Cc1cc(OCCN(C)C)ccc1

>  <s_sd_BIOSOLVEIT.INFINISEE\_SPACE>  (508) 
FreedomSpace_5bn_2023-06

>  <s_vsw_compound_code>  (508) 
5570

>  <s_vsw_variant>  (508) 
5570-1

>  <r_epik_Charging_Adjusted_Penalty>  (508) 
0.179457584077403

>  <r_epik_Ionization_Penalty>  (508) 
0.089899999999999994

>  <r_epik_Ionization_Penalty_Charging>  (508) 
0.089899999999999994

>  <r_epik_Ionization_Penalty_Neutral>  (508) 
0

>  <r_epik_State_Penalty>  (508) 
0.089599999999999999

>  <r_i_docking_score>  (508) 
-5.7181325796471896

>  <r_i_glide_ecoul>  (508) 
-13.589296340942401

>  <r_i_glide_eff_state_penalty>  (508) 
0.089599999999999999

>  <r_i_glide_einternal>  (508) 
5.0153121948242196

>  <r_i_glide_emodel>  (508) 
-72.228452735634093

>  <r_i_glide_energy>  (508) 
-47.175481796264599

>  <r_i_glide_erotb>  (508) 
0.961163370027871

>  <r_i_glide_esite>  (508) 
-0.17126938974978201

>  <r_i_glide_evdw>  (508) 
-33.586185455322301

>  <r_i_glide_gscore>  (508) 
-5.8077325796471904

>  <r_i_glide_hbond>  (508) 
-0.40000000000000002

>  <r_i_glide_ligand_efficiency>  (508) 
-0.17869164311397501

>  <r_i_glide_ligand_efficiency_ln>  (508) 
-1.28044575499019

>  <r_i_glide_ligand_efficiency_sa>  (508) 
-0.56731060385871601

>  <r_i_glide_lipo>  (508) 
-2.0133534269268898

>  <r_i_glide_metal>  (508) 
-0

>  <r_i_glide_rewards>  (508) 
-0.46656940909090799

>  <r_lp_Energy>  (508) 
59.726692

>  <r_lp_tautomer_probability>  (508) 
1

>  <r_qp_ACxDN^.5/SA>  (508) 
0.0090375000000000004

>  <r_qp_CIQPlogS>  (508) 
-4.1379999999999999

>  <r_qp_EA(eV)>  (508) 
0.26700000000000002

>  <r_qp_FISA>  (508) 
42.273000000000003

>  <r_qp_FOSA>  (508) 
321.00200000000001

>  <r_qp_IP(eV)>  (508) 
9.1440000000000001

>  <r_qp_Jm>  (508) 
0.0045467747234914403

>  <r_qp_PISA>  (508) 
438.94200000000001

>  <r_qp_PSA>  (508) 
53.509999999999998

>  <r_qp_PercentHumanOralAbsorption>  (508) 
96.718999999999994

>  <r_qp_QPPCaco>  (508) 
244.80799999999999

>  <r_qp_QPPMDCK>  (508) 
132.28200000000001

>  <r_qp_QPlogBB>  (508) 
0.29299999999999998

>  <r_qp_QPlogHERG>  (508) 
-8.6549999999999994

>  <r_qp_QPlogKhsa>  (508) 
0.72499999999999998

>  <r_qp_QPlogKp>  (508) 
-3.9169999999999998

>  <r_qp_QPlogPC16>  (508) 
15.622999999999999

>  <r_qp_QPlogPo/w>  (508) 
4.6139999999999999

>  <r_qp_QPlogPoct>  (508) 
22.199999999999999

>  <r_qp_QPlogPw>  (508) 
11.323

>  <r_qp_QPlogS>  (508) 
-4.0579999999999998

>  <r_qp_QPpolrz>  (508) 
50.393000000000001

>  <r_qp_SASA>  (508) 
802.21699999999998

>  <r_qp_SAamideO>  (508) 
0

>  <r_qp_SAfluorine>  (508) 
0

>  <r_qp_WPSA>  (508) 
0

>  <r_qp_accptHB>  (508) 
7.25

>  <r_qp_dip^2/V>  (508) 
0.031234700000000001

>  <r_qp_dipole>  (508) 
6.7729999999999997

>  <r_qp_donorHB>  (508) 
1

>  <r_qp_glob>  (508) 
0.77891589999999999

>  <r_qp_mol_MW>  (508) 
429.56099999999998

>  <r_qp_volume>  (508) 
1468.6759999999999

>  <r_sd_BIOSOLVEIT.INFINISEE\_FTREES\_SIMILARITY>  (508) 
0.93200000000000005

>  <r_sd_BIOSOLVEIT.LOGP>  (508) 
1.6706000000000001

>  <r_sd_BIOSOLVEIT.MOLECULAR\_WEIGHT>  (508) 
431.577

>  <r_sd_BIOSOLVEIT.TPSA>  (508) 
50.590000000000003

>  <i_epik_Tot_Q>  (508) 
2

>  <i_epik_Tot_abs_Q>  (508) 
2

>  <i_f3d_flags>  (508) 
0

>  <i_i_glide_confnum>  (508) 
13

>  <i_i_glide_lignum>  (508) 
131

>  <i_i_glide_posenum>  (508) 
12

>  <i_i_glide_rotatable_bonds>  (508) 
10

>  <i_lp_mmshare_version>  (508) 
65135

>  <i_m_ct_format>  (508) 
2

>  <i_m_source_file_index>  (508) 
175

>  <i_qp_#NandO>  (508) 
5

>  <i_qp_#acid>  (508) 
0

>  <i_qp_#amide>  (508) 
0

>  <i_qp_#amidine>  (508) 
0

>  <i_qp_#amine>  (508) 
2

>  <i_qp_#in34>  (508) 
0

>  <i_qp_#in56>  (508) 
21

>  <i_qp_#metab>  (508) 
6

>  <i_qp_#nonHatm>  (508) 
32

>  <i_qp_#noncon>  (508) 
1

>  <i_qp_#ringatoms>  (508) 
21

>  <i_qp_#rotor>  (508) 
10

>  <i_qp_#rtvFG>  (508) 
0

>  <i_qp_#stars>  (508) 
0

>  <i_qp_CNS>  (508) 
1

>  <i_qp_HumanOralAbsorption>  (508) 
3

>  <i_qp_RuleOfFive>  (508) 
0

>  <i_qp_RuleOfThree>  (508) 
0

>  <i_sd_BIOSOLVEIT.INFINISEE\_REAGENT1\_NAME>  (508) 
241569

>  <i_sd_BIOSOLVEIT.INFINISEE\_REAGENT2\_NAME>  (508) 
182810

>  <i_sd_BIOSOLVEIT.INFINISEE\_RESULT\_RANK>  (508) 
3851

>  <i_sd_version>  (508) 
0

>  <b_lp_Chiralities_Consistent>  (508) 
1

>  <b_sd_chiral_flag>  (508) 
0

>  <canonical_id>  (508) 
ATP-HTVS-507C96D672B3

>  <compound_code>  (508) 
5570

>  <title>  (508) 
a4____241569____182810

>  <variant>  (508) 
5570-1

>  <source_file>  (508) 
运行/运行/ATP-VSW/ATP-VSW-DOCK_HTVS_1-002_lib.maegz

>  <canonical_smiles>  (508) 
C[NH+](C)CCOc1cccc(C[NH2+]C[C@H]2c3ccccc3C(=O)N2Cc2ccccc2)c1

>  <scaffold>  (508) 
O=C1c2ccccc2C(C[NH2+]Cc2ccccc2)N1Cc1ccccc1

>  <molecular_formula>  (508) 
C27H33N3O2+2

$$$$
ATP-HTVS-508A27B63548
     RDKit          3D

 65 68  0  0  0  0  0  0  0  0999 V2000
  198.1611  190.2248  159.3943 N   0  0  0  0  0  0  0  0  0  0  0  0
  197.6281  189.1985  159.3964 C   0  0  0  0  0  0  0  0  0  0  0  0
  196.9540  187.9108  159.3861 C   0  0  0  0  0  0  0  0  0  0  0  0
  196.9625  187.1495  158.2048 C   0  0  0  0  0  0  0  0  0  0  0  0
  196.2844  185.9259  158.1545 C   0  0  0  0  0  0  0  0  0  0  0  0
  195.6534  185.4003  159.3079 C   0  0  0  0  0  0  0  0  0  0  0  0
  195.6374  186.1748  160.4894 C   0  0  0  0  0  0  0  0  0  0  0  0
  196.2794  187.4303  160.5274 C   0  0  0  0  0  0  0  0  0  0  0  0
  195.0299  183.9970  159.3260 C   0  0  2  0  0  0  0  0  0  0  0  0
  195.4834  183.0572  158.3008 N   0  0  0  0  0  0  0  0  0  0  0  0
  196.8543  182.8452  158.0513 C   0  0  0  0  0  0  0  0  0  0  0  0
  197.7571  183.2197  158.9925 N   0  0  0  0  0  0  0  0  0  0  0  0
  199.0655  183.2225  158.6654 C   0  0  0  0  0  0  0  0  0  0  0  0
  199.5025  182.7212  157.4085 C   0  0  0  0  0  0  0  0  0  0  0  0
  198.6035  182.3416  156.4841 N   0  0  0  0  0  0  0  0  0  0  0  0
  197.2830  182.4253  156.7712 C   0  0  0  0  0  0  0  0  0  0  0  0
  196.3610  182.1367  155.7493 N   0  0  0  0  0  0  0  0  0  0  0  0
  196.7989  182.0651  154.3586 C   0  0  1  0  0  0  0  0  0  0  0  0
  197.5760  180.8184  153.9486 C   0  0  0  0  0  0  0  0  0  0  0  0
  197.9298  179.8111  154.8758 C   0  0  0  0  0  0  0  0  0  0  0  0
  198.7749  178.7621  154.4961 C   0  0  0  0  0  0  0  0  0  0  0  0
  199.2032  178.6447  153.1568 C   0  0  0  0  0  0  0  0  0  0  0  0
  198.8026  179.6045  152.2083 C   0  0  0  0  0  0  0  0  0  0  0  0
  198.0045  180.6948  152.6100 C   0  0  0  0  0  0  0  0  0  0  0  0
  199.2160  177.7728  155.5459 C   0  0  1  0  0  0  0  0  0  0  0  0
  200.2287  178.3148  156.4900 N   0  0  1  0  0  0  0  0  0  0  0  0
  200.6505  177.3354  157.5254 C   0  0  1  0  0  0  0  0  0  0  0  0
  201.3189  176.0665  156.9455 C   0  0  2  0  0  0  0  0  0  0  0  0
  201.3869  178.9851  155.8420 C   0  0  2  0  0  0  0  0  0  0  0  0
  200.8814  182.6176  157.1363 C   0  0  0  0  0  0  0  0  0  0  0  0
  201.8403  183.0450  158.0806 C   0  0  0  0  0  0  0  0  0  0  0  0
  201.4051  183.6123  159.2948 C   0  0  0  0  0  0  0  0  0  0  0  0
  200.0321  183.6998  159.5749 C   0  0  0  0  0  0  0  0  0  0  0  0
  193.5083  184.1037  159.2926 C   0  0  2  0  0  0  0  0  0  0  0  0
  197.5002  187.4785  157.3251 H   0  0  0  0  0  0  0  0  0  0  0  0
  196.3264  185.3797  157.2224 H   0  0  0  0  0  0  0  0  0  0  0  0
  195.1508  185.7929  161.3774 H   0  0  0  0  0  0  0  0  0  0  0  0
  196.2731  188.0109  161.4364 H   0  0  0  0  0  0  0  0  0  0  0  0
  195.3094  183.5273  160.2700 H   0  0  0  0  0  0  0  0  0  0  0  0
  194.8342  182.8541  157.5479 H   0  0  0  0  0  0  0  0  0  0  0  0
  195.3523  182.2564  155.8950 H   0  0  0  0  0  0  0  0  0  0  0  0
  195.9229  182.1713  153.7172 H   0  0  0  0  0  0  0  0  0  0  0  0
  197.4295  182.9348  154.1623 H   0  0  0  0  0  0  0  0  0  0  0  0
  197.6144  179.8436  155.9114 H   0  0  0  0  0  0  0  0  0  0  0  0
  199.8307  177.8189  152.8499 H   0  0  0  0  0  0  0  0  0  0  0  0
  199.1217  179.5146  151.1800 H   0  0  0  0  0  0  0  0  0  0  0  0
  197.7335  181.4540  151.8866 H   0  0  0  0  0  0  0  0  0  0  0  0
  198.3475  177.4572  156.1170 H   0  0  0  0  0  0  0  0  0  0  0  0
  199.5853  176.9064  155.0066 H   0  0  0  0  0  0  0  0  0  0  0  0
  201.3251  177.8311  158.2293 H   0  0  0  0  0  0  0  0  0  0  0  0
  199.7792  177.0483  158.1162 H   0  0  0  0  0  0  0  0  0  0  0  0
  201.6053  175.3866  157.7264 H   0  0  0  0  0  0  0  0  0  0  0  0
  202.2128  176.2990  156.3664 H   0  0  0  0  0  0  0  0  0  0  0  0
  200.6531  175.4945  156.3053 H   0  0  0  0  0  0  0  0  0  0  0  0
  201.9467  178.2881  155.2155 H   0  0  0  0  0  0  0  0  0  0  0  0
  202.0712  179.3940  156.5897 H   0  0  0  0  0  0  0  0  0  0  0  0
  201.0759  179.8163  155.2051 H   0  0  0  0  0  0  0  0  0  0  0  0
  201.2174  182.1922  156.2018 H   0  0  0  0  0  0  0  0  0  0  0  0
  202.8985  182.9471  157.8774 H   0  0  0  0  0  0  0  0  0  0  0  0
  202.1262  183.9535  160.0264 H   0  0  0  0  0  0  0  0  0  0  0  0
  199.7146  184.1290  160.5045 H   0  0  0  0  0  0  0  0  0  0  0  0
  193.1470  184.7084  160.1214 H   0  0  0  0  0  0  0  0  0  0  0  0
  193.0331  183.1287  159.3239 H   0  0  0  0  0  0  0  0  0  0  0  0
  193.2030  184.5755  158.3706 H   0  0  0  0  0  0  0  0  0  0  0  0
  199.7401  179.0447  156.9996 H   0  0  0  0  0  0  0  0  0  0  0  0
  1  2  3  0
  2  3  1  0
  3  4  1  0
  3  8  2  0
  4  5  2  0
  4 35  1  0
  5  6  1  0
  5 36  1  0
  6  7  2  0
  6  9  1  0
  7  8  1  0
  7 37  1  0
  8 38  1  0
  9 10  1  0
  9 34  1  0
  9 39  1  1
 10 11  1  0
 10 40  1  0
 11 12  2  0
 11 16  1  0
 12 13  1  0
 13 14  1  0
 13 33  2  0
 14 15  1  0
 14 30  2  0
 15 16  2  0
 16 17  1  0
 17 18  1  0
 17 41  1  0
 18 19  1  0
 18 42  1  6
 18 43  1  0
 19 20  2  0
 19 24  1  0
 20 21  1  0
 20 44  1  0
 21 22  2  0
 21 25  1  0
 22 23  1  0
 22 45  1  0
 23 24  2  0
 23 46  1  0
 24 47  1  0
 25 26  1  0
 25 48  1  1
 25 49  1  0
 26 27  1  0
 26 29  1  0
 26 65  1  1
 27 28  1  0
 27 50  1  1
 27 51  1  0
 28 52  1  1
 28 53  1  0
 28 54  1  0
 29 55  1  6
 29 56  1  0
 29 57  1  0
 30 31  1  0
 30 58  1  0
 31 32  2  0
 31 59  1  0
 32 33  1  0
 32 60  1  0
 33 61  1  0
 34 62  1  1
 34 63  1  0
 34 64  1  0
M  CHG  1  26   1
M  END
>  <s_epik_cmdline>  (509) 
J2VwaWtfcHl0aG9uJywgJy1waCcsICc3LjAwMDAwMCcsICctcGh0JywgJzIuMDAwMDAwJywgJy1tcycsICcxNicsICctdG4nLCAnOCcsICctbWEnLCAnMjAwJywgJy1pbWFlJywgJzxpbmZpbGUubWFlPicsICctb21hZScsICc8b3V0ZmlsZS5tYWU+Jw==

>  <s_epik_input>  (509) 
TiNDYzFbY0hdW2NIXWMoW2NIXVtjSF0xKVtDQEBIXShbQ0gzXSlbTkhdYyhuMiljKG5jKGMyMylbY0hdW2NIXVtjSF1bY0hdMylbTkhdW0NIMl1jNFtjSF1jKFtjSF1bY0hdW2NIXTQpW0NIMl1OKFtDSDNdKVtDSDJdW0NIM10=

>  <s_i_glide_gridfile>  (509) 
ATP-Grid

>  <s_lp_Force_Field>  (509) 
OPLS_2005

>  <s_lp_Variant>  (509) 
m_282030aaa____21928180____23157418____21950844-1

>  <s_lp_label>  (509) 
1920_sdstereoexpander_1_neutralizer_1_epik_1_stereoizer_1

>  <s_m_source_file>  (509) 
ATP-VSW-LIGPREP-003-in.maegz

>  <s_sd_BIOSOLVEIT.INFINISEE\_QUERY\_NAME>  (509) 
Ref-Lig

>  <s_sd_BIOSOLVEIT.INFINISEE\_QUERY\_SMILES>  (509) 
S(c1nc2c(cc1C[NH2+]Cc3ccc(cc3)C[NH+](C)C)cccc2)Cc4ccccc4

>  <s_sd_BIOSOLVEIT.INFINISEE\_REACTION\_NAME>  (509) 
m_282030aaa

>  <s_sd_BIOSOLVEIT.INFINISEE\_REAGENT1\_SMILES>  (509) 
[R1*]NC(c1ccc(C#N)cc1)C

>  <s_sd_BIOSOLVEIT.INFINISEE\_REAGENT2\_SMILES>  (509) 
[R1*]c1nc2c(nc1[R2*])cccc2

>  <s_sd_BIOSOLVEIT.INFINISEE\_REAGENT3\_SMILES>  (509) 
[R2*]NCc1cc(ccc1)CN(CC)C

>  <s_sd_BIOSOLVEIT.INFINISEE\_SPACE>  (509) 
REALSpace_44bn_2023-08

>  <s_vsw_compound_code>  (509) 
61411

>  <s_vsw_variant>  (509) 
61411-1

>  <r_epik_Charging_Adjusted_Penalty>  (509) 
0.0564066539916546

>  <r_epik_Ionization_Penalty>  (509) 
0.0286

>  <r_epik_Ionization_Penalty_Charging>  (509) 
0.028199999999999999

>  <r_epik_Ionization_Penalty_Neutral>  (509) 
0.00040000000000000002

>  <r_epik_State_Penalty>  (509) 
0.028199999999999999

>  <r_i_docking_score>  (509) 
-5.15063493037038

>  <r_i_glide_ecoul>  (509) 
-8.3912506103515607

>  <r_i_glide_eff_state_penalty>  (509) 
0.028199999999999999

>  <r_i_glide_einternal>  (509) 
6.0657582283020002

>  <r_i_glide_emodel>  (509) 
-61.825715821522202

>  <r_i_glide_energy>  (509) 
-44.979328155517599

>  <r_i_glide_erotb>  (509) 
0.78686906560223202

>  <r_i_glide_esite>  (509) 
-0.181676063432545

>  <r_i_glide_evdw>  (509) 
-36.588077545166001

>  <r_i_glide_gscore>  (509) 
-5.17883493037038

>  <r_i_glide_hbond>  (509) 
-0.215805852204312

>  <r_i_glide_ligand_efficiency>  (509) 
-0.15148926265795201

>  <r_i_glide_ligand_efficiency_ln>  (509) 
-1.13791972653507

>  <r_i_glide_ligand_efficiency_sa>  (509) 
-0.49076640249665399

>  <r_i_glide_lipo>  (509) 
-1.92503474788836

>  <r_i_glide_metal>  (509) 
-0

>  <r_i_glide_rewards>  (509) 
-0.55509586363636199

>  <r_lp_Energy>  (509) 
21.503845999999999

>  <r_qp_ACxDN^.5/SA>  (509) 
0.014205300000000001

>  <r_qp_CIQPlogS>  (509) 
-6.9859999999999998

>  <r_qp_EA(eV)>  (509) 
0.89700000000000002

>  <r_qp_FISA>  (509) 
100.827

>  <r_qp_FOSA>  (509) 
254.476

>  <r_qp_IP(eV)>  (509) 
8.3710000000000004

>  <r_qp_Jm>  (509) 
0.0226815849562528

>  <r_qp_PISA>  (509) 
291.80700000000002

>  <r_qp_PSA>  (509) 
70.209999999999994

>  <r_qp_PercentHumanOralAbsorption>  (509) 
94.088999999999999

>  <r_qp_QPPCaco>  (509) 
273.30900000000003

>  <r_qp_QPPMDCK>  (509) 
134.685

>  <r_qp_QPlogBB>  (509) 
-0.45500000000000002

>  <r_qp_QPlogHERG>  (509) 
-5.133

>  <r_qp_QPlogKhsa>  (509) 
0.59099999999999997

>  <r_qp_QPlogKp>  (509) 
-3.452

>  <r_qp_QPlogPC16>  (509) 
13.882999999999999

>  <r_qp_QPlogPo/w>  (509) 
4.0190000000000001

>  <r_qp_QPlogPoct>  (509) 
21.43

>  <r_qp_QPlogPw>  (509) 
11.073

>  <r_qp_QPlogS>  (509) 
-3.8460000000000001

>  <r_qp_QPpolrz>  (509) 
43.838999999999999

>  <r_qp_SASA>  (509) 
647.11000000000001

>  <r_qp_SAamideO>  (509) 
0

>  <r_qp_SAfluorine>  (509) 
0

>  <r_qp_WPSA>  (509) 
0

>  <r_qp_accptHB>  (509) 
6.5

>  <r_qp_dip^2/V>  (509) 
0.026181599999999999

>  <r_qp_dipole>  (509) 
5.923

>  <r_qp_donorHB>  (509) 
2

>  <r_qp_glob>  (509) 
0.90835849999999996

>  <r_qp_mol_MW>  (509) 
450.58499999999998

>  <r_qp_volume>  (509) 
1340.0029999999999

>  <r_sd_BIOSOLVEIT.INFINISEE\_FTREES\_SIMILARITY>  (509) 
0.90300000000000002

>  <r_sd_BIOSOLVEIT.LOGP>  (509) 
4.3212799999999998

>  <r_sd_BIOSOLVEIT.MOLECULAR\_WEIGHT>  (509) 
451.59500000000003

>  <r_sd_BIOSOLVEIT.TPSA>  (509) 
78.069999999999993

>  <i_epik_Tot_Q>  (509) 
1

>  <i_epik_Tot_abs_Q>  (509) 
1

>  <i_f3d_flags>  (509) 
0

>  <i_i_glide_confnum>  (509) 
5

>  <i_i_glide_lignum>  (509) 
720

>  <i_i_glide_posenum>  (509) 
9

>  <i_i_glide_rotatable_bonds>  (509) 
9

>  <i_lp_mmshare_version>  (509) 
65135

>  <i_m_ct_format>  (509) 
2

>  <i_m_source_file_index>  (509) 
1920

>  <i_qp_#NandO>  (509) 
6

>  <i_qp_#acid>  (509) 
0

>  <i_qp_#amide>  (509) 
0

>  <i_qp_#amidine>  (509) 
0

>  <i_qp_#amine>  (509) 
1

>  <i_qp_#in34>  (509) 
0

>  <i_qp_#in56>  (509) 
22

>  <i_qp_#metab>  (509) 
4

>  <i_qp_#nonHatm>  (509) 
34

>  <i_qp_#noncon>  (509) 
0

>  <i_qp_#ringatoms>  (509) 
22

>  <i_qp_#rotor>  (509) 
10

>  <i_qp_#rtvFG>  (509) 
0

>  <i_qp_#stars>  (509) 
0

>  <i_qp_CNS>  (509) 
1

>  <i_qp_HumanOralAbsorption>  (509) 
3

>  <i_qp_RuleOfFive>  (509) 
0

>  <i_qp_RuleOfThree>  (509) 
0

>  <i_sd_BIOSOLVEIT.INFINISEE\_REAGENT1\_NAME>  (509) 
21928180

>  <i_sd_BIOSOLVEIT.INFINISEE\_REAGENT2\_NAME>  (509) 
23157418

>  <i_sd_BIOSOLVEIT.INFINISEE\_REAGENT3\_NAME>  (509) 
21950844

>  <i_sd_BIOSOLVEIT.INFINISEE\_RESULT\_RANK>  (509) 
85746

>  <i_sd_version>  (509) 
0

>  <b_lp_Chiralities_Consistent>  (509) 
1

>  <b_sd_chiral_flag>  (509) 
0

>  <canonical_id>  (509) 
ATP-HTVS-508A27B63548

>  <compound_code>  (509) 
61411

>  <title>  (509) 
m_282030aaa____21928180____23157418____21950844

>  <variant>  (509) 
61411-1

>  <source_file>  (509) 
运行/运行/ATP-VSW/ATP-VSW-DOCK_HTVS_1-003_lib/ATP-VSW-DOCK_HTVS_1-003_lib.mae

>  <canonical_smiles>  (509) 
CC[N@@H+](C)Cc1cccc(CNc2nc3ccccc3nc2N[C@H](C)c2ccc(C#N)cc2)c1

>  <scaffold>  (509) 
c1ccc(CNc2nc3ccccc3nc2NCc2ccccc2)cc1

>  <molecular_formula>  (509) 
C28H31N6+

$$$$
ATP-HTVS-50911053B2F5
     RDKit          3D

 56 59  0  0  0  0  0  0  0  0999 V2000
  197.9496  186.1688  150.5027 Br  0  0  0  0  0  0  0  0  0  0  0  0
  197.2019  184.8483  149.2027 C   0  0  1  0  0  0  0  0  0  0  0  0
  198.0789  184.8558  147.9546 C   0  0  0  0  0  0  0  0  0  0  0  0
  197.4898  184.6811  146.6851 C   0  0  0  0  0  0  0  0  0  0  0  0
  198.2942  184.6362  145.5311 C   0  0  0  0  0  0  0  0  0  0  0  0
  199.6905  184.7769  145.6374 C   0  0  0  0  0  0  0  0  0  0  0  0
  200.2858  184.9413  146.9021 C   0  0  0  0  0  0  0  0  0  0  0  0
  199.4847  184.9757  148.0553 C   0  0  0  0  0  0  0  0  0  0  0  0
  197.1024  183.4444  149.8284 C   0  0  0  0  0  0  0  0  0  0  0  0
  196.1238  183.1673  150.5157 O   0  0  0  0  0  0  0  0  0  0  0  0
  198.1353  182.5954  149.6082 N   0  0  0  0  0  0  0  0  0  0  0  0
  198.2095  181.2278  149.9833 C   0  0  0  0  0  0  0  0  0  0  0  0
  198.2607  180.2794  149.0109 N   0  0  0  0  0  0  0  0  0  0  0  0
  198.4190  178.9753  149.3414 C   0  0  0  0  0  0  0  0  0  0  0  0
  198.5631  178.5799  150.6980 C   0  0  0  0  0  0  0  0  0  0  0  0
  198.5727  179.5525  151.7050 C   0  0  0  0  0  0  0  0  0  0  0  0
  198.3567  180.9012  151.3573 C   0  0  0  0  0  0  0  0  0  0  0  0
  198.3432  181.9094  152.3359 N   0  0  0  0  0  0  0  0  0  0  0  0
  197.9422  181.8550  153.6759 C   0  0  0  0  0  0  0  0  0  0  0  0
  198.1176  183.0189  154.4610 C   0  0  0  0  0  0  0  0  0  0  0  0
  197.7909  183.0172  155.8331 C   0  0  0  0  0  0  0  0  0  0  0  0
  197.2950  181.8237  156.4028 C   0  0  0  0  0  0  0  0  0  0  0  0
  196.9237  181.8001  157.8542 N   0  0  1  0  0  0  0  0  0  0  0  0
  195.6931  182.5484  158.1740 C   0  0  1  0  0  0  0  0  0  0  0  0
  194.4426  181.6555  158.1399 C   0  0  1  0  0  0  0  0  0  0  0  0
  193.2935  182.4676  158.1364 O   0  0  0  0  0  0  0  0  0  0  0  0
  197.1022  180.6636  155.6330 C   0  0  0  0  0  0  0  0  0  0  0  0
  197.3758  180.6917  154.2580 C   0  0  0  0  0  0  0  0  0  0  0  0
  198.6986  177.2246  151.0549 C   0  0  0  0  0  0  0  0  0  0  0  0
  198.7150  176.2260  150.0735 C   0  0  0  0  0  0  0  0  0  0  0  0
  198.6015  176.5974  148.7201 C   0  0  0  0  0  0  0  0  0  0  0  0
  198.4550  177.9594  148.3574 C   0  0  0  0  0  0  0  0  0  0  0  0
  196.1924  185.1869  148.9352 H   0  0  0  0  0  0  0  0  0  0  0  0
  196.4179  184.5685  146.5946 H   0  0  0  0  0  0  0  0  0  0  0  0
  197.8362  184.4952  144.5638 H   0  0  0  0  0  0  0  0  0  0  0  0
  200.3074  184.7526  144.7510 H   0  0  0  0  0  0  0  0  0  0  0  0
  201.3588  185.0314  146.9929 H   0  0  0  0  0  0  0  0  0  0  0  0
  199.9655  185.0752  149.0170 H   0  0  0  0  0  0  0  0  0  0  0  0
  198.8682  182.9312  149.0042 H   0  0  0  0  0  0  0  0  0  0  0  0
  198.7548  179.2591  152.7233 H   0  0  0  0  0  0  0  0  0  0  0  0
  198.4332  182.8418  151.9660 H   0  0  0  0  0  0  0  0  0  0  0  0
  198.5008  183.9261  154.0185 H   0  0  0  0  0  0  0  0  0  0  0  0
  197.9056  183.9134  156.4264 H   0  0  0  0  0  0  0  0  0  0  0  0
  196.7529  180.8368  158.1324 H   0  0  0  0  0  0  0  0  0  0  0  0
  195.8031  182.9798  159.1695 H   0  0  0  0  0  0  0  0  0  0  0  0
  195.5769  183.3841  157.4791 H   0  0  0  0  0  0  0  0  0  0  0  0
  194.4287  181.0408  157.2410 H   0  0  0  0  0  0  0  0  0  0  0  0
  194.4307  180.9699  158.9888 H   0  0  0  0  0  0  0  0  0  0  0  0
  193.1493  182.7082  157.1931 H   0  0  0  0  0  0  0  0  0  0  0  0
  196.7396  179.7555  156.0909 H   0  0  0  0  0  0  0  0  0  0  0  0
  197.1574  179.8143  153.6878 H   0  0  0  0  0  0  0  0  0  0  0  0
  198.7661  176.9521  152.0953 H   0  0  0  0  0  0  0  0  0  0  0  0
  198.8202  175.1876  150.3628 H   0  0  0  0  0  0  0  0  0  0  0  0
  198.6308  175.8245  147.9629 H   0  0  0  0  0  0  0  0  0  0  0  0
  198.3857  178.2144  147.3113 H   0  0  0  0  0  0  0  0  0  0  0  0
  197.6826  182.1546  158.4158 H   0  0  0  0  0  0  0  0  0  0  0  0
  1  2  1  0
  2  3  1  0
  2  9  1  0
  2 33  1  6
  3  4  2  0
  3  8  1  0
  4  5  1  0
  4 34  1  0
  5  6  2  0
  5 35  1  0
  6  7  1  0
  6 36  1  0
  7  8  2  0
  7 37  1  0
  8 38  1  0
  9 10  2  0
  9 11  1  0
 11 12  1  0
 11 39  1  0
 12 13  2  0
 12 17  1  0
 13 14  1  0
 14 15  1  0
 14 32  2  0
 15 16  1  0
 15 29  2  0
 16 17  2  0
 16 40  1  0
 17 18  1  0
 18 19  1  0
 18 41  1  0
 19 20  1  0
 19 28  2  0
 20 21  2  0
 20 42  1  0
 21 22  1  0
 21 43  1  0
 22 23  1  0
 22 27  2  0
 23 24  1  0
 23 44  1  1
 23 56  1  0
 24 25  1  0
 24 45  1  1
 24 46  1  0
 25 26  1  0
 25 47  1  6
 25 48  1  0
 26 49  1  0
 27 28  1  0
 27 50  1  0
 28 51  1  0
 29 30  1  0
 29 52  1  0
 30 31  2  0
 30 53  1  0
 31 32  1  0
 31 54  1  0
 32 55  1  0
M  CHG  1  23   1
M  END
>  <s_epik_cmdline>  (510) 
J2VwaWtfcHl0aG9uJywgJy1waCcsICc3LjAwMDAwMCcsICctcGh0JywgJzIuMDAwMDAwJywgJy1tcycsICcxNicsICctdG4nLCAnOCcsICctbWEnLCAnMjAwJywgJy1pbWFlJywgJzxpbmZpbGUubWFlPicsICctb21hZScsICc8b3V0ZmlsZS5tYWU+Jw==

>  <s_epik_input>  (510) 
W2NIXTFbY0hdW2NIXVtjSF1bY0hdYzFbQ0BIXShCcilDKD1PKVtOSF1jKG4yKWMoW2NIXWMoYzIzKVtjSF1bY0hdW2NIXVtjSF0zKVtOSF1jNFtjSF1bY0hdYyhbY0hdW2NIXTQpW05IXVtDSDJdW0NIMl1bT0hd

>  <s_i_glide_gridfile>  (510) 
ATP-Grid

>  <s_lp_Force_Field>  (510) 
OPLS_2005

>  <s_lp_Variant>  (510) 
rxn502b____EMOL535380____EMOL44466703____EMOL8314610-4

>  <s_lp_label>  (510) 
2493_sdstereoexpander_2_neutralizer_1_epik_2_stereoizer_1

>  <s_m_source_file>  (510) 
ATP-VSW-LIGPREP-001-in.maegz

>  <s_sd_BIOSOLVEIT.INFINISEE\_QUERY\_NAME>  (510) 
Ref-Lig

>  <s_sd_BIOSOLVEIT.INFINISEE\_QUERY\_SMILES>  (510) 
S(c1nc2c(cc1C[NH2+]Cc3ccc(cc3)C[NH+](C)C)cccc2)Cc4ccccc4

>  <s_sd_BIOSOLVEIT.INFINISEE\_REACTION\_NAME>  (510) 
rxn502b

>  <s_sd_BIOSOLVEIT.INFINISEE\_REAGENT1\_NAME>  (510) 
EMOL535380

>  <s_sd_BIOSOLVEIT.INFINISEE\_REAGENT1\_SMILES>  (510) 
BrC(c1ccccc1)C(=O)O

>  <s_sd_BIOSOLVEIT.INFINISEE\_REAGENT2\_NAME>  (510) 
EMOL44466703

>  <s_sd_BIOSOLVEIT.INFINISEE\_REAGENT2\_SMILES>  (510) 
Brc1c(nc2c(c1)cccc2)N

>  <s_sd_BIOSOLVEIT.INFINISEE\_REAGENT3\_NAME>  (510) 
EMOL8314610

>  <s_sd_BIOSOLVEIT.INFINISEE\_REAGENT3\_SMILES>  (510) 
OCCNc1ccc(N)cc1

>  <s_sd_BIOSOLVEIT.INFINISEE\_SPACE>  (510) 
eXplore_7tr_2022-12

>  <s_vsw_compound_code>  (510) 
79745

>  <s_vsw_variant>  (510) 
79745-4

>  <r_epik_Charging_Adjusted_Penalty>  (510) 
3.69565669898545

>  <r_epik_Ionization_Penalty>  (510) 
1.8496999999999999

>  <r_epik_Ionization_Penalty_Charging>  (510) 
1.8478000000000001

>  <r_epik_Ionization_Penalty_Neutral>  (510) 
0.0018

>  <r_epik_State_Penalty>  (510) 
1.8478000000000001

>  <r_i_docking_score>  (510) 
-3.7385898589577198

>  <r_i_glide_ecoul>  (510) 
-12.8797454833984

>  <r_i_glide_eff_state_penalty>  (510) 
1.8478000000000001

>  <r_i_glide_einternal>  (510) 
12.2233743667603

>  <r_i_glide_emodel>  (510) 
-64.891809037950296

>  <r_i_glide_energy>  (510) 
-47.594245910644503

>  <r_i_glide_erotb>  (510) 
0.67195920542512

>  <r_i_glide_esite>  (510) 
-0.095828205703480801

>  <r_i_glide_evdw>  (510) 
-34.714500427246101

>  <r_i_glide_gscore>  (510) 
-5.5863898589577197

>  <r_i_glide_hbond>  (510) 
-0.33778820438101897

>  <r_i_glide_ligand_efficiency>  (510) 
-0.11683093309242901

>  <r_i_glide_ligand_efficiency_ln>  (510) 
-0.83717217953123202

>  <r_i_glide_ligand_efficiency_sa>  (510) 
-0.37091509175819798

>  <r_i_glide_lipo>  (510) 
-1.6854693230461999

>  <r_i_glide_metal>  (510) 
-0

>  <r_i_glide_rewards>  (510) 
-0.47157648738007801

>  <r_lp_Energy>  (510) 
28.784998000000002

>  <r_qp_ACxDN^.5/SA>  (510) 
0.016731900000000001

>  <r_qp_CIQPlogS>  (510) 
-7.5640000000000001

>  <r_qp_EA(eV)>  (510) 
1.159

>  <r_qp_FISA>  (510) 
122.768

>  <r_qp_FOSA>  (510) 
111.28700000000001

>  <r_qp_IP(eV)>  (510) 
8.1229999999999993

>  <r_qp_Jm>  (510) 
0.00766999850869419

>  <r_qp_PISA>  (510) 
516.20500000000004

>  <r_qp_PSA>  (510) 
91.001999999999995

>  <r_qp_PercentHumanOralAbsorption>  (510) 
100

>  <r_qp_QPPCaco>  (510) 
678.72000000000003

>  <r_qp_QPPMDCK>  (510) 
616.10900000000004

>  <r_qp_QPlogBB>  (510) 
-1.2649999999999999

>  <r_qp_QPlogHERG>  (510) 
-7.8479999999999999

>  <r_qp_QPlogKhsa>  (510) 
0.54400000000000004

>  <r_qp_QPlogKp>  (510) 
-1.1000000000000001

>  <r_qp_QPlogPC16>  (510) 
17.396000000000001

>  <r_qp_QPlogPo/w>  (510) 
4.7670000000000003

>  <r_qp_QPlogPoct>  (510) 
26.515000000000001

>  <r_qp_QPlogPw>  (510) 
16.483000000000001

>  <r_qp_QPlogS>  (510) 
-6.7069999999999999

>  <r_qp_QPpolrz>  (510) 
49.704999999999998

>  <r_qp_SASA>  (510) 
800.86800000000005

>  <r_qp_SAamideO>  (510) 
0

>  <r_qp_SAfluorine>  (510) 
0

>  <r_qp_WPSA>  (510) 
50.607999999999997

>  <r_qp_accptHB>  (510) 
6.7000000000000002

>  <r_qp_dip^2/V>  (510) 
0.015606699999999999

>  <r_qp_dipole>  (510) 
4.7030000000000003

>  <r_qp_donorHB>  (510) 
4

>  <r_qp_glob>  (510) 
0.76181239999999995

>  <r_qp_mol_MW>  (510) 
491.38600000000002

>  <r_qp_volume>  (510) 
1416.9860000000001

>  <r_sd_BIOSOLVEIT.INFINISEE\_FTREES\_SIMILARITY>  (510) 
0.91400000000000003

>  <r_sd_BIOSOLVEIT.LOGP>  (510) 
5.4573

>  <r_sd_BIOSOLVEIT.MOLECULAR\_WEIGHT>  (510) 
491.387

>  <r_sd_BIOSOLVEIT.TPSA>  (510) 
86.280000000000001

>  <i_epik_Tot_Q>  (510) 
1

>  <i_epik_Tot_abs_Q>  (510) 
1

>  <i_f3d_flags>  (510) 
0

>  <i_i_glide_confnum>  (510) 
9

>  <i_i_glide_lignum>  (510) 
981

>  <i_i_glide_posenum>  (510) 
20

>  <i_i_glide_rotatable_bonds>  (510) 
10

>  <i_lp_mmshare_version>  (510) 
65135

>  <i_m_ct_format>  (510) 
2

>  <i_m_source_file_index>  (510) 
2493

>  <i_qp_#NandO>  (510) 
6

>  <i_qp_#acid>  (510) 
0

>  <i_qp_#amide>  (510) 
0

>  <i_qp_#amidine>  (510) 
0

>  <i_qp_#amine>  (510) 
0

>  <i_qp_#in34>  (510) 
0

>  <i_qp_#in56>  (510) 
22

>  <i_qp_#metab>  (510) 
6

>  <i_qp_#nonHatm>  (510) 
32

>  <i_qp_#noncon>  (510) 
0

>  <i_qp_#ringatoms>  (510) 
22

>  <i_qp_#rotor>  (510) 
9

>  <i_qp_#rtvFG>  (510) 
1

>  <i_qp_#stars>  (510) 
2

>  <i_qp_CNS>  (510) 
-2

>  <i_qp_HumanOralAbsorption>  (510) 
1

>  <i_qp_RuleOfFive>  (510) 
0

>  <i_qp_RuleOfThree>  (510) 
1

>  <i_sd_BIOSOLVEIT.INFINISEE\_RESULT\_RANK>  (510) 
29860

>  <i_sd_version>  (510) 
0

>  <b_lp_Chiralities_Consistent>  (510) 
1

>  <b_sd_chiral_flag>  (510) 
0

>  <canonical_id>  (510) 
ATP-HTVS-50911053B2F5

>  <compound_code>  (510) 
79745

>  <title>  (510) 
rxn502b____EMOL535380____EMOL44466703____EMOL8314610

>  <variant>  (510) 
79745-4

>  <source_file>  (510) 
运行/运行/ATP-VSW/ATP-VSW-DOCK_HTVS_1-001_lib/ATP-VSW-DOCK_HTVS_1-001_lib

>  <canonical_smiles>  (510) 
O=C(Nc1nc2ccccc2cc1Nc1ccc([NH2+]CCO)cc1)[C@@H](Br)c1ccccc1

>  <scaffold>  (510) 
O=C(Cc1ccccc1)Nc1nc2ccccc2cc1Nc1ccccc1

>  <molecular_formula>  (510) 
C25H24BrN4O2+

$$$$
ATP-HTVS-50DD7346FE25
     RDKit          3D

 53 55  0  0  0  0  0  0  0  0999 V2000
  200.6324  183.0868  151.7661 S   0  0  0  0  0  0  0  0  0  0  0  0
  199.1750  182.1470  151.5292 C   0  0  0  0  0  0  0  0  0  0  0  0
  199.0275  181.4426  150.2326 C   0  0  0  0  0  0  0  0  0  0  0  0
  199.8756  181.5438  149.3470 O   0  0  0  0  0  0  0  0  0  0  0  0
  197.9369  180.6731  150.1123 N   0  0  0  0  0  0  0  0  0  0  0  0
  197.6833  179.7405  149.0106 C   0  0  1  0  0  0  0  0  0  0  0  0
  198.1734  178.3199  149.2776 C   0  0  0  0  0  0  0  0  0  0  0  0
  198.4029  177.4521  148.1842 C   0  0  0  0  0  0  0  0  0  0  0  0
  198.8570  176.1339  148.4037 C   0  0  0  0  0  0  0  0  0  0  0  0
  199.0861  175.3094  147.3563 F   0  0  0  0  0  0  0  0  0  0  0  0
  199.0757  175.6759  149.7153 C   0  0  0  0  0  0  0  0  0  0  0  0
  198.8360  176.5253  150.8081 C   0  0  0  0  0  0  0  0  0  0  0  0
  198.3859  177.8387  150.5916 C   0  0  0  0  0  0  0  0  0  0  0  0
  198.3679  182.2038  152.6394 C   0  0  0  0  0  0  0  0  0  0  0  0
  198.9048  183.0190  153.6830 C   0  0  0  0  0  0  0  0  0  0  0  0
  198.1884  183.1993  154.8791 N   0  0  0  0  0  0  0  0  0  0  0  0
  198.6557  184.0661  155.9517 C   0  0  1  0  0  0  0  0  0  0  0  0
  197.7364  184.1273  157.1621 C   0  0  0  0  0  0  0  0  0  0  0  0
  196.9072  183.0422  157.5091 C   0  0  0  0  0  0  0  0  0  0  0  0
  196.0565  183.1223  158.6281 C   0  0  0  0  0  0  0  0  0  0  0  0
  196.0508  184.2846  159.4295 C   0  0  0  0  0  0  0  0  0  0  0  0
  196.8899  185.3662  159.0988 C   0  0  0  0  0  0  0  0  0  0  0  0
  197.7280  185.2877  157.9702 C   0  0  0  0  0  0  0  0  0  0  0  0
  195.1363  181.9556  158.9369 C   0  0  1  0  0  0  0  0  0  0  0  0
  193.8930  181.9788  158.1338 N   0  0  2  0  0  0  0  0  0  0  0  0
  193.1029  183.2115  158.3134 C   0  0  2  0  0  0  0  0  0  0  0  0
  193.0423  180.7786  158.3148 C   0  0  2  0  0  0  0  0  0  0  0  0
  200.1242  183.5557  153.3666 C   0  0  0  0  0  0  0  0  0  0  0  0
  197.3098  180.6272  150.8990 H   0  0  0  0  0  0  0  0  0  0  0  0
  196.6064  179.7002  148.8515 H   0  0  0  0  0  0  0  0  0  0  0  0
  198.1182  180.1072  148.0785 H   0  0  0  0  0  0  0  0  0  0  0  0
  198.2412  177.7880  147.1704 H   0  0  0  0  0  0  0  0  0  0  0  0
  199.4298  174.6681  149.8820 H   0  0  0  0  0  0  0  0  0  0  0  0
  199.0040  176.1682  151.8147 H   0  0  0  0  0  0  0  0  0  0  0  0
  198.2129  178.4636  151.4561 H   0  0  0  0  0  0  0  0  0  0  0  0
  197.4216  181.6967  152.7422 H   0  0  0  0  0  0  0  0  0  0  0  0
  197.2436  182.8506  154.9406 H   0  0  0  0  0  0  0  0  0  0  0  0
  199.6427  183.7383  156.2807 H   0  0  0  0  0  0  0  0  0  0  0  0
  198.7688  185.0736  155.5506 H   0  0  0  0  0  0  0  0  0  0  0  0
  196.9124  182.1317  156.9258 H   0  0  0  0  0  0  0  0  0  0  0  0
  195.3992  184.3604  160.2877 H   0  0  0  0  0  0  0  0  0  0  0  0
  196.8852  186.2605  159.7076 H   0  0  0  0  0  0  0  0  0  0  0  0
  198.3685  186.1217  157.7247 H   0  0  0  0  0  0  0  0  0  0  0  0
  195.7018  181.0443  158.7967 H   0  0  0  0  0  0  0  0  0  0  0  0
  194.8611  181.9931  159.9860 H   0  0  0  0  0  0  0  0  0  0  0  0
  192.8113  183.4077  159.3336 H   0  0  0  0  0  0  0  0  0  0  0  0
  192.1898  183.0803  157.7355 H   0  0  0  0  0  0  0  0  0  0  0  0
  193.6363  184.0997  157.9799 H   0  0  0  0  0  0  0  0  0  0  0  0
  192.6725  180.7048  159.3351 H   0  0  0  0  0  0  0  0  0  0  0  0
  193.5508  179.8468  158.1334 H   0  0  0  0  0  0  0  0  0  0  0  0
  192.1884  180.7956  157.6353 H   0  0  0  0  0  0  0  0  0  0  0  0
  200.7565  184.1989  153.9612 H   0  0  0  0  0  0  0  0  0  0  0  0
  194.1510  182.0174  157.1424 H   0  0  0  0  0  0  0  0  0  0  0  0
  1  2  1  0
  1 28  1  0
  2  3  1  0
  2 14  2  0
  3  4  2  0
  3  5  1  0
  5  6  1  0
  5 29  1  0
  6  7  1  0
  6 30  1  6
  6 31  1  0
  7  8  1  0
  7 13  2  0
  8  9  2  0
  8 32  1  0
  9 10  1  0
  9 11  1  0
 11 12  2  0
 11 33  1  0
 12 13  1  0
 12 34  1  0
 13 35  1  0
 14 15  1  0
 14 36  1  0
 15 16  1  0
 15 28  2  0
 16 17  1  0
 16 37  1  0
 17 18  1  0
 17 38  1  1
 17 39  1  0
 18 19  2  0
 18 23  1  0
 19 20  1  0
 19 40  1  0
 20 21  2  0
 20 24  1  0
 21 22  1  0
 21 41  1  0
 22 23  2  0
 22 42  1  0
 23 43  1  0
 24 25  1  0
 24 44  1  1
 24 45  1  0
 25 26  1  0
 25 27  1  0
 25 53  1  6
 26 46  1  1
 26 47  1  0
 26 48  1  0
 27 49  1  1
 27 50  1  0
 27 51  1  0
 28 52  1  0
M  CHG  1  25   1
M  END
>  <s_epik_cmdline>  (511) 
J2VwaWtfcHl0aG9uJywgJy1waCcsICc3LjAwMDAwMCcsICctcGh0JywgJzIuMDAwMDAwJywgJy1tcycsICcxNicsICctdG4nLCAnOCcsICctbWEnLCAnMjAwJywgJy1pbWFlJywgJzxpbmZpbGUubWFlPicsICctb21hZScsICc8b3V0ZmlsZS5tYWU+Jw==

>  <s_epik_input>  (511) 
W2NIXTFbY0hdW2NIXWMoW0NIMl1OKFtDSDNdKVtDSDNdKVtjSF1jMVtDSDJdW05IXWMoW2NIXTIpW2NIXXNjMkMoPU8pW05IXVtDSDJdYzNbY0hdYyhGKVtjSF1bY0hdW2NIXTM=

>  <s_i_glide_gridfile>  (511) 
ATP-Grid

>  <s_lp_Force_Field>  (511) 
OPLS_2005

>  <s_lp_Variant>  (511) 
rxn512b____EMOL480026____EMOL720738____EMOL2873214-1

>  <s_lp_label>  (511) 
2798_sdstereoexpander_1_neutralizer_1_epik_1_stereoizer_1

>  <s_m_source_file>  (511) 
ATP-VSW-LIGPREP-001-in.maegz

>  <s_sd_BIOSOLVEIT.INFINISEE\_QUERY\_NAME>  (511) 
Ref-Lig

>  <s_sd_BIOSOLVEIT.INFINISEE\_QUERY\_SMILES>  (511) 
S(c1nc2c(cc1C[NH2+]Cc3ccc(cc3)C[NH+](C)C)cccc2)Cc4ccccc4

>  <s_sd_BIOSOLVEIT.INFINISEE\_REACTION\_NAME>  (511) 
rxn512b

>  <s_sd_BIOSOLVEIT.INFINISEE\_REAGENT1\_NAME>  (511) 
EMOL480026

>  <s_sd_BIOSOLVEIT.INFINISEE\_REAGENT1\_SMILES>  (511) 
Fc1cc(ccc1)CN

>  <s_sd_BIOSOLVEIT.INFINISEE\_REAGENT2\_NAME>  (511) 
EMOL720738

>  <s_sd_BIOSOLVEIT.INFINISEE\_REAGENT2\_SMILES>  (511) 
BrC1=CSC(C(=O)O)=C1

>  <s_sd_BIOSOLVEIT.INFINISEE\_REAGENT3\_NAME>  (511) 
EMOL2873214

>  <s_sd_BIOSOLVEIT.INFINISEE\_REAGENT3\_SMILES>  (511) 
N(Cc1cc(ccc1)CN)(C)C

>  <s_sd_BIOSOLVEIT.INFINISEE\_SPACE>  (511) 
eXplore_7tr_2022-12

>  <s_vsw_compound_code>  (511) 
89505

>  <s_vsw_variant>  (511) 
89505-1

>  <r_epik_Charging_Adjusted_Penalty>  (511) 
0.086140609825027206

>  <r_epik_Ionization_Penalty>  (511) 
0.043099999999999999

>  <r_epik_Ionization_Penalty_Charging>  (511) 
0.043099999999999999

>  <r_epik_Ionization_Penalty_Neutral>  (511) 
0

>  <r_epik_State_Penalty>  (511) 
0.043099999999999999

>  <r_i_docking_score>  (511) 
-4.0370977250743296

>  <r_i_glide_ecoul>  (511) 
-8.4509115219116193

>  <r_i_glide_eff_state_penalty>  (511) 
0.043099999999999999

>  <r_i_glide_einternal>  (511) 
1.4884511232376101

>  <r_i_glide_emodel>  (511) 
-49.199102724808398

>  <r_i_glide_energy>  (511) 
-35.113526344299302

>  <r_i_glide_erotb>  (511) 
0.86324828570185597

>  <r_i_glide_esite>  (511) 
-0.102727334596971

>  <r_i_glide_evdw>  (511) 
-26.662614822387699

>  <r_i_glide_gscore>  (511) 
-4.0801977250743304

>  <r_i_glide_hbond>  (511) 
-0.157298702610007

>  <r_i_glide_ligand_efficiency>  (511) 
-0.14418206160979699

>  <r_i_glide_ligand_efficiency_ln>  (511) 
-0.93188068928700196

>  <r_i_glide_ligand_efficiency_sa>  (511) 
-0.43782165774030501

>  <r_i_glide_lipo>  (511) 
-1.2432133713279601

>  <r_i_glide_metal>  (511) 
-0

>  <r_i_glide_rewards>  (511) 
-0.83943913283511795

>  <r_lp_Energy>  (511) 
13.045617

>  <r_lp_tautomer_probability>  (511) 
0.99999274205267796

>  <r_qp_ACxDN^.5/SA>  (511) 
0.0108659

>  <r_qp_CIQPlogS>  (511) 
-3.9540000000000002

>  <r_qp_EA(eV)>  (511) 
0.54000000000000004

>  <r_qp_FISA>  (511) 
59.18

>  <r_qp_FOSA>  (511) 
255.02500000000001

>  <r_qp_IP(eV)>  (511) 
8.1959999999999997

>  <r_qp_Jm>  (511) 
0.00091837395144874498

>  <r_qp_PISA>  (511) 
320.45299999999997

>  <r_qp_PSA>  (511) 
54.654000000000003

>  <r_qp_PercentHumanOralAbsorption>  (511) 
91.213999999999999

>  <r_qp_QPPCaco>  (511) 
169.23699999999999

>  <r_qp_QPPMDCK>  (511) 
247.11099999999999

>  <r_qp_QPlogBB>  (511) 
0.46500000000000002

>  <r_qp_QPlogHERG>  (511) 
-7.71

>  <r_qp_QPlogKhsa>  (511) 
0.66600000000000004

>  <r_qp_QPlogKp>  (511) 
-4.8380000000000001

>  <r_qp_QPlogPC16>  (511) 
13.347

>  <r_qp_QPlogPo/w>  (511) 
4.1639999999999997

>  <r_qp_QPlogPoct>  (511) 
20.875

>  <r_qp_QPlogPw>  (511) 
10.635

>  <r_qp_QPlogS>  (511) 
-3.798

>  <r_qp_QPpolrz>  (511) 
43.567999999999998

>  <r_qp_SASA>  (511) 
715.83500000000004

>  <r_qp_SAamideO>  (511) 
0

>  <r_qp_SAfluorine>  (511) 
46.963999999999999

>  <r_qp_WPSA>  (511) 
81.177000000000007

>  <r_qp_accptHB>  (511) 
5.5

>  <r_qp_dip^2/V>  (511) 
0.041455699999999998

>  <r_qp_dipole>  (511) 
7.3250000000000002

>  <r_qp_donorHB>  (511) 
2

>  <r_qp_glob>  (511) 
0.80237610000000004

>  <r_qp_mol_MW>  (511) 
397.50900000000001

>  <r_qp_volume>  (511) 
1294.3119999999999

>  <r_sd_BIOSOLVEIT.INFINISEE\_FTREES\_SIMILARITY>  (511) 
0.90600000000000003

>  <r_sd_BIOSOLVEIT.LOGP>  (511) 
3.0737999999999999

>  <r_sd_BIOSOLVEIT.MOLECULAR\_WEIGHT>  (511) 
398.52300000000002

>  <r_sd_BIOSOLVEIT.TPSA>  (511) 
45.57

>  <i_epik_Tot_Q>  (511) 
1

>  <i_epik_Tot_abs_Q>  (511) 
1

>  <i_f3d_flags>  (511) 
0

>  <i_i_glide_confnum>  (511) 
4

>  <i_i_glide_lignum>  (511) 
1270

>  <i_i_glide_posenum>  (511) 
14

>  <i_i_glide_rotatable_bonds>  (511) 
9

>  <i_lp_mmshare_version>  (511) 
65135

>  <i_m_ct_format>  (511) 
2

>  <i_m_source_file_index>  (511) 
2798

>  <i_qp_#NandO>  (511) 
4

>  <i_qp_#acid>  (511) 
0

>  <i_qp_#amide>  (511) 
0

>  <i_qp_#amidine>  (511) 
0

>  <i_qp_#amine>  (511) 
2

>  <i_qp_#in34>  (511) 
0

>  <i_qp_#in56>  (511) 
17

>  <i_qp_#metab>  (511) 
6

>  <i_qp_#nonHatm>  (511) 
28

>  <i_qp_#noncon>  (511) 
0

>  <i_qp_#ringatoms>  (511) 
17

>  <i_qp_#rotor>  (511) 
8

>  <i_qp_#rtvFG>  (511) 
0

>  <i_qp_#stars>  (511) 
0

>  <i_qp_CNS>  (511) 
2

>  <i_qp_HumanOralAbsorption>  (511) 
3

>  <i_qp_RuleOfFive>  (511) 
0

>  <i_qp_RuleOfThree>  (511) 
0

>  <i_sd_BIOSOLVEIT.INFINISEE\_RESULT\_RANK>  (511) 
63562

>  <i_sd_version>  (511) 
0

>  <b_lp_Chiralities_Consistent>  (511) 
1

>  <b_sd_chiral_flag>  (511) 
0

>  <canonical_id>  (511) 
ATP-HTVS-50DD7346FE25

>  <compound_code>  (511) 
89505

>  <title>  (511) 
rxn512b____EMOL480026____EMOL720738____EMOL2873214

>  <variant>  (511) 
89505-1

>  <source_file>  (511) 
运行/运行/ATP-VSW/ATP-VSW-DOCK_HTVS_1-001_lib/ATP-VSW-DOCK_HTVS_1-001_lib

>  <canonical_smiles>  (511) 
C[NH+](C)Cc1cccc(CNc2csc(C(=O)NCc3cccc(F)c3)c2)c1

>  <scaffold>  (511) 
O=C(NCc1ccccc1)c1cc(NCc2ccccc2)cs1

>  <molecular_formula>  (511) 
C22H25FN3OS+

$$$$
ATP-HTVS-510C24ACBA66
     RDKit          3D

 62 65  0  0  0  0  0  0  0  0999 V2000
  197.7773  188.8579  157.8610 O   0  0  0  0  0  0  0  0  0  0  0  0
  197.8195  187.8233  157.2017 C   0  0  0  0  0  0  0  0  0  0  0  0
  198.2178  187.8322  155.9123 N   0  0  0  0  0  0  0  0  0  0  0  0
  198.2038  186.7796  154.9399 C   0  0  0  0  0  0  0  0  0  0  0  0
  197.3517  185.7417  155.0300 N   0  0  0  0  0  0  0  0  0  0  0  0
  197.4796  184.7727  154.0947 C   0  0  0  0  0  0  0  0  0  0  0  0
  198.4159  184.8398  153.0657 C   0  0  0  0  0  0  0  0  0  0  0  0
  199.2435  185.8957  152.9273 N   0  0  0  0  0  0  0  0  0  0  0  0
  199.1258  186.8800  153.8576 C   0  0  0  0  0  0  0  0  0  0  0  0
  200.0590  188.0035  153.6730 C   0  0  0  0  0  0  0  0  0  0  0  0
  200.0050  188.7542  152.4809 C   0  0  0  0  0  0  0  0  0  0  0  0
  200.8437  189.8669  152.2762 C   0  0  0  0  0  0  0  0  0  0  0  0
  201.7596  190.2450  153.2749 C   0  0  0  0  0  0  0  0  0  0  0  0
  201.8264  189.5147  154.4787 C   0  0  0  0  0  0  0  0  0  0  0  0
  200.9827  188.3974  154.6712 C   0  0  0  0  0  0  0  0  0  0  0  0
  198.5042  183.7764  152.0813 C   0  0  0  0  0  0  0  0  0  0  0  0
  198.4867  182.8996  151.2128 C   0  0  0  0  0  0  0  0  0  0  0  0
  198.4970  181.8558  150.2031 C   0  0  0  0  0  0  0  0  0  0  0  0
  197.6385  180.7243  150.2863 C   0  0  0  0  0  0  0  0  0  0  0  0
  196.7293  180.5878  151.3470 N   0  0  0  0  0  0  0  0  0  0  0  0
  195.9513  179.4612  151.6500 N   0  0  0  0  0  0  0  0  0  0  0  0
  197.7139  179.7419  149.2776 C   0  0  0  0  0  0  0  0  0  0  0  0
  198.6162  179.8850  148.2072 C   0  0  0  0  0  0  0  0  0  0  0  0
  199.4584  181.0074  148.1283 C   0  0  0  0  0  0  0  0  0  0  0  0
  199.4017  181.9916  149.1262 C   0  0  0  0  0  0  0  0  0  0  0  0
  197.3912  186.5200  157.8293 C   0  0  0  0  0  0  0  0  0  0  0  0
  196.2810  186.4640  158.7041 C   0  0  0  0  0  0  0  0  0  0  0  0
  195.8215  185.2094  159.1924 C   0  0  0  0  0  0  0  0  0  0  0  0
  196.5135  184.0307  158.8230 C   0  0  0  0  0  0  0  0  0  0  0  0
  197.6550  184.1040  158.0150 C   0  0  0  0  0  0  0  0  0  0  0  0
  198.1292  185.3471  157.5627 C   0  0  0  0  0  0  0  0  0  0  0  0
  196.0319  182.6605  159.2619 C   0  0  1  0  0  0  0  0  0  0  0  0
  195.3724  181.8812  158.1870 N   0  0  1  0  0  0  0  0  0  0  0  0
  193.9151  182.0757  158.1297 C   0  0  2  0  0  0  0  0  0  0  0  0
  195.9983  181.9138  156.8419 C   0  0  2  0  0  0  0  0  0  0  0  0
  198.6651  188.6898  155.6385 H   0  0  0  0  0  0  0  0  0  0  0  0
  196.9088  183.8860  154.2616 H   0  0  0  0  0  0  0  0  0  0  0  0
  199.2931  188.4678  151.7224 H   0  0  0  0  0  0  0  0  0  0  0  0
  200.7834  190.4179  151.3452 H   0  0  0  0  0  0  0  0  0  0  0  0
  202.4090  191.0904  153.1161 H   0  0  0  0  0  0  0  0  0  0  0  0
  202.5296  189.8052  155.2499 H   0  0  0  0  0  0  0  0  0  0  0  0
  201.0443  187.8522  155.6054 H   0  0  0  0  0  0  0  0  0  0  0  0
  196.6870  181.3616  152.0006 H   0  0  0  0  0  0  0  0  0  0  0  0
  196.5297  178.7711  152.1268 H   0  0  0  0  0  0  0  0  0  0  0  0
  195.1908  179.7295  152.2716 H   0  0  0  0  0  0  0  0  0  0  0  0
  197.0702  178.8821  149.3152 H   0  0  0  0  0  0  0  0  0  0  0  0
  198.6539  179.1326  147.4346 H   0  0  0  0  0  0  0  0  0  0  0  0
  200.1457  181.1189  147.3077 H   0  0  0  0  0  0  0  0  0  0  0  0
  200.0513  182.8552  149.0720 H   0  0  0  0  0  0  0  0  0  0  0  0
  195.7157  187.3530  158.9503 H   0  0  0  0  0  0  0  0  0  0  0  0
  194.9471  185.1537  159.8342 H   0  0  0  0  0  0  0  0  0  0  0  0
  198.1938  183.2386  157.6670 H   0  0  0  0  0  0  0  0  0  0  0  0
  198.9942  185.3693  156.9022 H   0  0  0  0  0  0  0  0  0  0  0  0
  196.9155  182.1364  159.6235 H   0  0  0  0  0  0  0  0  0  0  0  0
  195.3674  182.7849  160.1202 H   0  0  0  0  0  0  0  0  0  0  0  0
  193.7026  183.1103  157.8507 H   0  0  0  0  0  0  0  0  0  0  0  0
  193.4559  181.8676  159.0904 H   0  0  0  0  0  0  0  0  0  0  0  0
  193.4613  181.4048  157.3958 H   0  0  0  0  0  0  0  0  0  0  0  0
  195.9439  182.9269  156.4419 H   0  0  0  0  0  0  0  0  0  0  0  0
  195.5157  181.2486  156.1293 H   0  0  0  0  0  0  0  0  0  0  0  0
  197.0379  181.5951  156.8993 H   0  0  0  0  0  0  0  0  0  0  0  0
  195.4886  180.8932  158.4475 H   0  0  0  0  0  0  0  0  0  0  0  0
  1  2  2  0
  2  3  1  0
  2 26  1  0
  3  4  1  0
  3 36  1  0
  4  5  1  0
  4  9  2  0
  5  6  2  0
  6  7  1  0
  6 37  1  0
  7  8  2  0
  7 16  1  0
  8  9  1  0
  9 10  1  0
 10 11  2  0
 10 15  1  0
 11 12  1  0
 11 38  1  0
 12 13  2  0
 12 39  1  0
 13 14  1  0
 13 40  1  0
 14 15  2  0
 14 41  1  0
 15 42  1  0
 16 17  3  0
 17 18  1  0
 18 19  1  0
 18 25  2  0
 19 20  1  0
 19 22  2  0
 20 21  1  0
 20 43  1  0
 21 44  1  0
 21 45  1  0
 22 23  1  0
 22 46  1  0
 23 24  2  0
 23 47  1  0
 24 25  1  0
 24 48  1  0
 25 49  1  0
 26 27  1  0
 26 31  2  0
 27 28  2  0
 27 50  1  0
 28 29  1  0
 28 51  1  0
 29 30  2  0
 29 32  1  0
 30 31  1  0
 30 52  1  0
 31 53  1  0
 32 33  1  0
 32 54  1  1
 32 55  1  0
 33 34  1  0
 33 35  1  0
 33 62  1  1
 34 56  1  6
 34 57  1  0
 34 58  1  0
 35 59  1  6
 35 60  1  0
 35 61  1  0
M  CHG  1  33   1
M  END
>  <s_epik_cmdline>  (512) 
J2VwaWtfcHl0aG9uJywgJy1waCcsICc3LjAwMDAwMCcsICctcGh0JywgJzIuMDAwMDAwJywgJy1tcycsICcxNicsICctdG4nLCAnOCcsICctbWEnLCAnMjAwJywgJy1pbWFlJywgJzxpbmZpbGUubWFlPicsICctb21hZScsICc8b3V0ZmlsZS5tYWU+Jw==

>  <s_epik_input>  (512) 
W0NIM11OKFtDSDNdKVtDSDJdYyhbY0hdW2NIXTEpW2NIXVtjSF1jMUMoPU8pW05IXWMybltjSF1jKG5jMi1jM1tjSF1bY0hdW2NIXVtjSF1bY0hdMylDI0NjNGMoW05IXVtOSDJdKVtjSF1bY0hdW2NIXVtjSF00

>  <s_i_glide_gridfile>  (512) 
ATP-Grid

>  <s_lp_Force_Field>  (512) 
OPLS_2005

>  <s_lp_Variant>  (512) 
rxn505a____EMOL18624763____EMOL313123100____EMOL49780033-1

>  <s_lp_label>  (512) 
2964_sdstereoexpander_1_neutralizer_1_epik_1_stereoizer_1

>  <s_m_source_file>  (512) 
ATP-VSW-LIGPREP-001-in.maegz

>  <s_sd_BIOSOLVEIT.INFINISEE\_QUERY\_NAME>  (512) 
Ref-Lig

>  <s_sd_BIOSOLVEIT.INFINISEE\_QUERY\_SMILES>  (512) 
S(c1nc2c(cc1C[NH2+]Cc3ccc(cc3)C[NH+](C)C)cccc2)Cc4ccccc4

>  <s_sd_BIOSOLVEIT.INFINISEE\_REACTION\_NAME>  (512) 
rxn505a

>  <s_sd_BIOSOLVEIT.INFINISEE\_REAGENT1\_NAME>  (512) 
EMOL18624763

>  <s_sd_BIOSOLVEIT.INFINISEE\_REAGENT1\_SMILES>  (512) 
O=C(O)c1ccc(cc1)CN(C)C

>  <s_sd_BIOSOLVEIT.INFINISEE\_REAGENT2\_NAME>  (512) 
EMOL313123100

>  <s_sd_BIOSOLVEIT.INFINISEE\_REAGENT2\_SMILES>  (512) 
n1c(C#C)cnc(N)c1c2ccccc2

>  <s_sd_BIOSOLVEIT.INFINISEE\_REAGENT3\_NAME>  (512) 
EMOL49780033

>  <s_sd_BIOSOLVEIT.INFINISEE\_REAGENT3\_SMILES>  (512) 
Ic1c(NN)cccc1

>  <s_sd_BIOSOLVEIT.INFINISEE\_SPACE>  (512) 
eXplore_7tr_2022-12

>  <s_vsw_compound_code>  (512) 
94817

>  <s_vsw_variant>  (512) 
94817-1

>  <r_epik_Charging_Adjusted_Penalty>  (512) 
0.104909384607527

>  <r_epik_Ionization_Penalty>  (512) 
0.0567

>  <r_epik_Ionization_Penalty_Charging>  (512) 
0.052499999999999998

>  <r_epik_Ionization_Penalty_Neutral>  (512) 
0.0041999999999999997

>  <r_epik_State_Penalty>  (512) 
0.052499999999999998

>  <r_i_docking_score>  (512) 
-2.1650264460571398

>  <r_i_glide_ecoul>  (512) 
-8.1872329711914098

>  <r_i_glide_eff_state_penalty>  (512) 
0.052499999999999998

>  <r_i_glide_einternal>  (512) 
7.1334280967712402

>  <r_i_glide_emodel>  (512) 
-45.034770843567998

>  <r_i_glide_energy>  (512) 
-40.184864044189503

>  <r_i_glide_erotb>  (512) 
0.65649129522407701

>  <r_i_glide_esite>  (512) 
-0.10000000000000001

>  <r_i_glide_evdw>  (512) 
-31.997631072998001

>  <r_i_glide_gscore>  (512) 
-2.21752644605714

>  <r_i_glide_hbond>  (512) 
-0.186595737469092

>  <r_i_glide_ligand_efficiency>  (512) 
-0.061857898458775297

>  <r_i_glide_ligand_efficiency_ln>  (512) 
-0.47527135508263701

>  <r_i_glide_ligand_efficiency_sa>  (512) 
-0.202341287427769

>  <r_i_glide_lipo>  (512) 
-0.95572101271024101

>  <r_i_glide_metal>  (512) 
-0

>  <r_i_glide_rewards>  (512) 
1.1962655082267299

>  <r_lp_Energy>  (512) 
40.405244000000003

>  <r_qp_ACxDN^.5/SA>  (512) 
0.0184146

>  <r_qp_CIQPlogS>  (512) 
-4.5519999999999996

>  <r_qp_EA(eV)>  (512) 
0.97199999999999998

>  <r_qp_FISA>  (512) 
156.458

>  <r_qp_FOSA>  (512) 
180.696

>  <r_qp_IP(eV)>  (512) 
8.0470000000000006

>  <r_qp_Jm>  (512) 
1.12307599126489e-05

>  <r_qp_PISA>  (512) 
531.72299999999996

>  <r_qp_PSA>  (512) 
102.651

>  <r_qp_PercentHumanOralAbsorption>  (512) 
71.084000000000003

>  <r_qp_QPPCaco>  (512) 
20.231000000000002

>  <r_qp_QPPMDCK>  (512) 
8.9350000000000005

>  <r_qp_QPlogBB>  (512) 
-1.0760000000000001

>  <r_qp_QPlogHERG>  (512) 
-9.6929999999999996

>  <r_qp_QPlogKhsa>  (512) 
0.625

>  <r_qp_QPlogKp>  (512) 
-5.7910000000000004

>  <r_qp_QPlogPC16>  (512) 
18.718

>  <r_qp_QPlogPo/w>  (512) 
3.5459999999999998

>  <r_qp_QPlogPoct>  (512) 
28.876999999999999

>  <r_qp_QPlogPw>  (512) 
18.244

>  <r_qp_QPlogS>  (512) 
-4.8239999999999998

>  <r_qp_QPpolrz>  (512) 
54.756999999999998

>  <r_qp_SASA>  (512) 
868.87599999999998

>  <r_qp_SAamideO>  (512) 
0

>  <r_qp_SAfluorine>  (512) 
0

>  <r_qp_WPSA>  (512) 
0

>  <r_qp_accptHB>  (512) 
8

>  <r_qp_dip^2/V>  (512) 
0.0173192

>  <r_qp_dipole>  (512) 
5.1639999999999997

>  <r_qp_donorHB>  (512) 
4

>  <r_qp_glob>  (512) 
0.74210860000000001

>  <r_qp_mol_MW>  (512) 
462.553

>  <r_qp_volume>  (512) 
1539.538

>  <r_sd_BIOSOLVEIT.INFINISEE\_FTREES\_SIMILARITY>  (512) 
0.90300000000000002

>  <r_sd_BIOSOLVEIT.LOGP>  (512) 
2.7258

>  <r_sd_BIOSOLVEIT.MOLECULAR\_WEIGHT>  (512) 
463.56200000000001

>  <r_sd_BIOSOLVEIT.TPSA>  (512) 
97.370000000000005

>  <i_epik_Tot_Q>  (512) 
1

>  <i_epik_Tot_abs_Q>  (512) 
1

>  <i_f3d_flags>  (512) 
0

>  <i_i_glide_confnum>  (512) 
1

>  <i_i_glide_lignum>  (512) 
1402

>  <i_i_glide_posenum>  (512) 
3

>  <i_i_glide_rotatable_bonds>  (512) 
9

>  <i_lp_mmshare_version>  (512) 
65135

>  <i_m_ct_format>  (512) 
2

>  <i_m_source_file_index>  (512) 
2964

>  <i_qp_#NandO>  (512) 
7

>  <i_qp_#acid>  (512) 
0

>  <i_qp_#amide>  (512) 
0

>  <i_qp_#amidine>  (512) 
0

>  <i_qp_#amine>  (512) 
2

>  <i_qp_#in34>  (512) 
0

>  <i_qp_#in56>  (512) 
24

>  <i_qp_#metab>  (512) 
4

>  <i_qp_#nonHatm>  (512) 
35

>  <i_qp_#noncon>  (512) 
0

>  <i_qp_#ringatoms>  (512) 
24

>  <i_qp_#rotor>  (512) 
9

>  <i_qp_#rtvFG>  (512) 
1

>  <i_qp_#stars>  (512) 
3

>  <i_qp_CNS>  (512) 
-2

>  <i_qp_HumanOralAbsorption>  (512) 
2

>  <i_qp_RuleOfFive>  (512) 
0

>  <i_qp_RuleOfThree>  (512) 
1

>  <i_sd_BIOSOLVEIT.INFINISEE\_RESULT\_RANK>  (512) 
81887

>  <i_sd_version>  (512) 
0

>  <b_lp_Chiralities_Consistent>  (512) 
1

>  <b_sd_chiral_flag>  (512) 
0

>  <canonical_id>  (512) 
ATP-HTVS-510C24ACBA66

>  <compound_code>  (512) 
94817

>  <title>  (512) 
rxn505a____EMOL18624763____EMOL313123100____EMOL49780033

>  <variant>  (512) 
94817-1

>  <source_file>  (512) 
运行/运行/ATP-VSW/ATP-VSW-DOCK_HTVS_1-001_lib/ATP-VSW-DOCK_HTVS_1-001_lib

>  <canonical_smiles>  (512) 
C[NH+](C)Cc1ccc(C(=O)Nc2ncc(C#Cc3ccccc3NN)nc2-c2ccccc2)cc1

>  <scaffold>  (512) 
O=C(Nc1ncc(C#Cc2ccccc2)nc1-c1ccccc1)c1ccccc1

>  <molecular_formula>  (512) 
C28H27N6O+

$$$$
ATP-HTVS-512766A3F074
     RDKit          3D

 59 62  0  0  0  0  0  0  0  0999 V2000
  203.0159  185.2854  157.7049 O   0  0  0  0  0  0  0  0  0  0  0  0
  202.4658  184.2158  157.7601 C   0  0  0  0  0  0  0  0  0  0  0  0
  203.1871  183.0819  157.7182 N   0  0  0  0  0  0  0  0  0  0  0  0
  202.8060  181.8814  157.0861 C   0  0  0  0  0  0  0  0  0  0  0  0
  201.6880  181.2047  157.4511 N   0  0  0  0  0  0  0  0  0  0  0  0
  201.4024  180.0524  156.8105 C   0  0  0  0  0  0  0  0  0  0  0  0
  202.2346  179.5462  155.7878 C   0  0  0  0  0  0  0  0  0  0  0  0
  203.3317  180.2234  155.3842 N   0  0  0  0  0  0  0  0  0  0  0  0
  203.6329  181.3686  156.0409 C   0  0  0  0  0  0  0  0  0  0  0  0
  204.8531  182.0397  155.5529 C   0  0  0  0  0  0  0  0  0  0  0  0
  204.9041  182.5843  154.2475 C   0  0  0  0  0  0  0  0  0  0  0  0
  206.0692  183.2249  153.7794 C   0  0  0  0  0  0  0  0  0  0  0  0
  207.1994  183.3217  154.6123 C   0  0  0  0  0  0  0  0  0  0  0  0
  207.1647  182.7737  155.9080 C   0  0  0  0  0  0  0  0  0  0  0  0
  205.9981  182.1360  156.3725 C   0  0  0  0  0  0  0  0  0  0  0  0
  201.9292  178.2719  155.1627 C   0  0  0  0  0  0  0  0  0  0  0  0
  201.6784  177.1981  154.6265 C   0  0  0  0  0  0  0  0  0  0  0  0
  201.3980  175.9351  153.9701 C   0  0  0  0  0  0  0  0  0  0  0  0
  201.6088  174.7161  154.6510 C   0  0  0  0  0  0  0  0  0  0  0  0
  201.3486  173.4902  154.0049 C   0  0  0  0  0  0  0  0  0  0  0  0
  200.8802  173.4828  152.6796 C   0  0  0  0  0  0  0  0  0  0  0  0
  200.6512  172.2967  152.0449 O   0  0  0  0  0  0  0  0  0  0  0  0
  200.6590  174.6951  151.9965 C   0  0  0  0  0  0  0  0  0  0  0  0
  200.9201  175.9210  152.6414 C   0  0  0  0  0  0  0  0  0  0  0  0
  200.9590  184.1349  157.8366 C   0  0  0  0  0  0  0  0  0  0  0  0
  200.1452  184.5712  156.7636 C   0  0  0  0  0  0  0  0  0  0  0  0
  198.7496  184.4194  156.8622 C   0  0  0  0  0  0  0  0  0  0  0  0
  198.1754  183.8592  158.0264 C   0  0  0  0  0  0  0  0  0  0  0  0
  199.0011  183.4659  159.1013 C   0  0  0  0  0  0  0  0  0  0  0  0
  200.3912  183.6039  158.9941 C   0  0  0  0  0  0  0  0  0  0  0  0
  196.6790  183.6776  158.1460 C   0  0  1  0  0  0  0  0  0  0  0  0
  196.2421  182.2682  157.9624 N   0  0  2  0  0  0  0  0  0  0  0  0
  196.5023  181.7590  156.5952 C   0  0  2  0  0  0  0  0  0  0  0  0
  194.8301  182.0882  158.3665 C   0  0  2  0  0  0  0  0  0  0  0  0
  204.1963  183.2703  157.7242 H   0  0  0  0  0  0  0  0  0  0  0  0
  200.5096  179.5312  157.1306 H   0  0  0  0  0  0  0  0  0  0  0  0
  204.0418  182.5125  153.6007 H   0  0  0  0  0  0  0  0  0  0  0  0
  206.0949  183.6451  152.7838 H   0  0  0  0  0  0  0  0  0  0  0  0
  208.0948  183.8133  154.2546 H   0  0  0  0  0  0  0  0  0  0  0  0
  208.0335  182.8404  156.5456 H   0  0  0  0  0  0  0  0  0  0  0  0
  205.9842  181.7032  157.3605 H   0  0  0  0  0  0  0  0  0  0  0  0
  201.9796  174.7187  155.6660 H   0  0  0  0  0  0  0  0  0  0  0  0
  201.5198  172.5526  154.5184 H   0  0  0  0  0  0  0  0  0  0  0  0
  200.4127  172.4287  151.1377 H   0  0  0  0  0  0  0  0  0  0  0  0
  200.2960  174.6961  150.9777 H   0  0  0  0  0  0  0  0  0  0  0  0
  200.7600  176.8482  152.1100 H   0  0  0  0  0  0  0  0  0  0  0  0
  200.5910  184.9849  155.8693 H   0  0  0  0  0  0  0  0  0  0  0  0
  198.1225  184.7225  156.0388 H   0  0  0  0  0  0  0  0  0  0  0  0
  198.5794  183.0401  160.0001 H   0  0  0  0  0  0  0  0  0  0  0  0
  201.0405  183.2751  159.7958 H   0  0  0  0  0  0  0  0  0  0  0  0
  196.3789  184.0397  159.1340 H   0  0  0  0  0  0  0  0  0  0  0  0
  196.1804  184.3210  157.4180 H   0  0  0  0  0  0  0  0  0  0  0  0
  195.9524  182.3302  155.8458 H   0  0  0  0  0  0  0  0  0  0  0  0
  196.2019  180.7183  156.5003 H   0  0  0  0  0  0  0  0  0  0  0  0
  197.5645  181.7927  156.3529 H   0  0  0  0  0  0  0  0  0  0  0  0
  194.1628  182.6747  157.7412 H   0  0  0  0  0  0  0  0  0  0  0  0
  194.6881  182.3869  159.4080 H   0  0  0  0  0  0  0  0  0  0  0  0
  194.5351  181.0395  158.2891 H   0  0  0  0  0  0  0  0  0  0  0  0
  196.7906  181.6886  158.5867 H   0  0  0  0  0  0  0  0  0  0  0  0
  1  2  2  0
  2  3  1  0
  2 25  1  0
  3  4  1  0
  3 35  1  0
  4  5  1  0
  4  9  2  0
  5  6  2  0
  6  7  1  0
  6 36  1  0
  7  8  2  0
  7 16  1  0
  8  9  1  0
  9 10  1  0
 10 11  2  0
 10 15  1  0
 11 12  1  0
 11 37  1  0
 12 13  2  0
 12 38  1  0
 13 14  1  0
 13 39  1  0
 14 15  2  0
 14 40  1  0
 15 41  1  0
 16 17  3  0
 17 18  1  0
 18 19  1  0
 18 24  2  0
 19 20  2  0
 19 42  1  0
 20 21  1  0
 20 43  1  0
 21 22  1  0
 21 23  2  0
 22 44  1  0
 23 24  1  0
 23 45  1  0
 24 46  1  0
 25 26  1  0
 25 30  2  0
 26 27  2  0
 26 47  1  0
 27 28  1  0
 27 48  1  0
 28 29  2  0
 28 31  1  0
 29 30  1  0
 29 49  1  0
 30 50  1  0
 31 32  1  0
 31 51  1  1
 31 52  1  0
 32 33  1  0
 32 34  1  0
 32 59  1  1
 33 53  1  6
 33 54  1  0
 33 55  1  0
 34 56  1  6
 34 57  1  0
 34 58  1  0
M  CHG  1  32   1
M  END
>  <s_epik_cmdline>  (513) 
J2VwaWtfcHl0aG9uJywgJy1waCcsICc3LjAwMDAwMCcsICctcGh0JywgJzIuMDAwMDAwJywgJy1tcycsICcxNicsICctdG4nLCAnOCcsICctbWEnLCAnMjAwJywgJy1pbWFlJywgJzxpbmZpbGUubWFlPicsICctb21hZScsICc8b3V0ZmlsZS5tYWU+Jw==

>  <s_epik_input>  (513) 
W0NIM11OKFtDSDNdKVtDSDJdYyhbY0hdW2NIXTEpW2NIXVtjSF1jMUMoPU8pW05IXWMybltjSF1jKG5jMi1jM1tjSF1bY0hdW2NIXVtjSF1bY0hdMylDI0NjNFtjSF1bY0hdYyhbT0hdKVtjSF1bY0hdNA==

>  <s_i_glide_gridfile>  (513) 
ATP-Grid

>  <s_lp_Force_Field>  (513) 
OPLS_2005

>  <s_lp_Variant>  (513) 
rxn505b____EMOL18624763____EMOL313123100____EMOL485990-1

>  <s_lp_label>  (513) 
2747_sdstereoexpander_1_neutralizer_1_epik_1_stereoizer_1

>  <s_m_source_file>  (513) 
ATP-VSW-LIGPREP-002-in.maegz

>  <s_sd_BIOSOLVEIT.INFINISEE\_QUERY\_NAME>  (513) 
Ref-Lig

>  <s_sd_BIOSOLVEIT.INFINISEE\_QUERY\_SMILES>  (513) 
S(c1nc2c(cc1C[NH2+]Cc3ccc(cc3)C[NH+](C)C)cccc2)Cc4ccccc4

>  <s_sd_BIOSOLVEIT.INFINISEE\_REACTION\_NAME>  (513) 
rxn505b

>  <s_sd_BIOSOLVEIT.INFINISEE\_REAGENT1\_NAME>  (513) 
EMOL18624763

>  <s_sd_BIOSOLVEIT.INFINISEE\_REAGENT1\_SMILES>  (513) 
O=C(O)c1ccc(cc1)CN(C)C

>  <s_sd_BIOSOLVEIT.INFINISEE\_REAGENT2\_NAME>  (513) 
EMOL313123100

>  <s_sd_BIOSOLVEIT.INFINISEE\_REAGENT2\_SMILES>  (513) 
n1c(C#C)cnc(N)c1c2ccccc2

>  <s_sd_BIOSOLVEIT.INFINISEE\_REAGENT3\_NAME>  (513) 
EMOL485990

>  <s_sd_BIOSOLVEIT.INFINISEE\_REAGENT3\_SMILES>  (513) 
Brc1ccc(O)cc1

>  <s_sd_BIOSOLVEIT.INFINISEE\_SPACE>  (513) 
eXplore_7tr_2022-12

>  <s_vsw_compound_code>  (513) 
87874

>  <s_vsw_variant>  (513) 
87874-1

>  <r_epik_Charging_Adjusted_Penalty>  (513) 
0.104909384607527

>  <r_epik_Ionization_Penalty>  (513) 
0.0557

>  <r_epik_Ionization_Penalty_Charging>  (513) 
0.052499999999999998

>  <r_epik_Ionization_Penalty_Neutral>  (513) 
0.0033

>  <r_epik_State_Penalty>  (513) 
0.052499999999999998

>  <r_i_docking_score>  (513) 
-2.0530759663912201

>  <r_i_glide_ecoul>  (513) 
-8.3288383483886701

>  <r_i_glide_eff_state_penalty>  (513) 
0.052499999999999998

>  <r_i_glide_einternal>  (513) 
14.012976646423301

>  <r_i_glide_emodel>  (513) 
-32.109593606808403

>  <r_i_glide_energy>  (513) 
-31.972406387329102

>  <r_i_glide_erotb>  (513) 
0.69426473046080095

>  <r_i_glide_esite>  (513) 
-0.077162696653746005

>  <r_i_glide_evdw>  (513) 
-23.643568038940401

>  <r_i_glide_gscore>  (513) 
-2.1055759663912199

>  <r_i_glide_hbond>  (513) 
-0.470471943386706

>  <r_i_glide_ligand_efficiency>  (513) 
-0.0603845872468005

>  <r_i_glide_ligand_efficiency_ln>  (513) 
-0.45358206780608101

>  <r_i_glide_ligand_efficiency_sa>  (513) 
-0.195622621230059

>  <r_i_glide_lipo>  (513) 
-0.78466733603918404

>  <r_i_glide_metal>  (513) 
-0

>  <r_i_glide_rewards>  (513) 
0.96396543343294006

>  <r_lp_Energy>  (513) 
33.924320999999999

>  <r_qp_ACxDN^.5/SA>  (513) 
0.012061000000000001

>  <r_qp_CIQPlogS>  (513) 
-5.7750000000000004

>  <r_qp_EA(eV)>  (513) 
0.96199999999999997

>  <r_qp_FISA>  (513) 
129.65000000000001

>  <r_qp_FOSA>  (513) 
180.63200000000001

>  <r_qp_IP(eV)>  (513) 
8.6859999999999999

>  <r_qp_Jm>  (513) 
8.6888061311217603e-05

>  <r_qp_PISA>  (513) 
539.81500000000005

>  <r_qp_PSA>  (513) 
83.995000000000005

>  <r_qp_PercentHumanOralAbsorption>  (513) 
93.055999999999997

>  <r_qp_QPPCaco>  (513) 
145.65600000000001

>  <r_qp_QPPMDCK>  (513) 
68.215999999999994

>  <r_qp_QPlogBB>  (513) 
-1.079

>  <r_qp_QPlogHERG>  (513) 
-8.9640000000000004

>  <r_qp_QPlogKhsa>  (513) 
0.83999999999999997

>  <r_qp_QPlogKp>  (513) 
-3.302

>  <r_qp_QPlogPC16>  (513) 
17.706

>  <r_qp_QPlogPo/w>  (513) 
4.6779999999999999

>  <r_qp_QPlogPoct>  (513) 
25.103999999999999

>  <r_qp_QPlogPw>  (513) 
14.624000000000001

>  <r_qp_QPlogS>  (513) 
-6.4109999999999996

>  <r_qp_QPpolrz>  (513) 
53.801000000000002

>  <r_qp_SASA>  (513) 
850.09699999999998

>  <r_qp_SAamideO>  (513) 
0

>  <r_qp_SAfluorine>  (513) 
0

>  <r_qp_WPSA>  (513) 
0

>  <r_qp_accptHB>  (513) 
7.25

>  <r_qp_dip^2/V>  (513) 
0.0142524

>  <r_qp_dipole>  (513) 
4.6200000000000001

>  <r_qp_donorHB>  (513) 
2

>  <r_qp_glob>  (513) 
0.74468509999999999

>  <r_qp_mol_MW>  (513) 
448.52300000000002

>  <r_qp_volume>  (513) 
1497.663

>  <r_sd_BIOSOLVEIT.INFINISEE\_FTREES\_SIMILARITY>  (513) 
0.90700000000000003

>  <r_sd_BIOSOLVEIT.LOGP>  (513) 
3.1457999999999999

>  <r_sd_BIOSOLVEIT.MOLECULAR\_WEIGHT>  (513) 
449.53199999999998

>  <r_sd_BIOSOLVEIT.TPSA>  (513) 
79.549999999999997

>  <i_epik_Tot_Q>  (513) 
1

>  <i_epik_Tot_abs_Q>  (513) 
1

>  <i_f3d_flags>  (513) 
0

>  <i_i_glide_confnum>  (513) 
1

>  <i_i_glide_lignum>  (513) 
1327

>  <i_i_glide_posenum>  (513) 
9

>  <i_i_glide_rotatable_bonds>  (513) 
9

>  <i_lp_mmshare_version>  (513) 
65135

>  <i_m_ct_format>  (513) 
2

>  <i_m_source_file_index>  (513) 
2747

>  <i_qp_#NandO>  (513) 
6

>  <i_qp_#acid>  (513) 
0

>  <i_qp_#amide>  (513) 
0

>  <i_qp_#amidine>  (513) 
0

>  <i_qp_#amine>  (513) 
1

>  <i_qp_#in34>  (513) 
0

>  <i_qp_#in56>  (513) 
24

>  <i_qp_#metab>  (513) 
4

>  <i_qp_#nonHatm>  (513) 
34

>  <i_qp_#noncon>  (513) 
0

>  <i_qp_#ringatoms>  (513) 
24

>  <i_qp_#rotor>  (513) 
8

>  <i_qp_#rtvFG>  (513) 
0

>  <i_qp_#stars>  (513) 
2

>  <i_qp_CNS>  (513) 
-2

>  <i_qp_HumanOralAbsorption>  (513) 
1

>  <i_qp_RuleOfFive>  (513) 
0

>  <i_qp_RuleOfThree>  (513) 
1

>  <i_sd_BIOSOLVEIT.INFINISEE\_RESULT\_RANK>  (513) 
57816

>  <i_sd_version>  (513) 
0

>  <b_lp_Chiralities_Consistent>  (513) 
1

>  <b_sd_chiral_flag>  (513) 
0

>  <canonical_id>  (513) 
ATP-HTVS-512766A3F074

>  <compound_code>  (513) 
87874

>  <title>  (513) 
rxn505b____EMOL18624763____EMOL313123100____EMOL485990

>  <variant>  (513) 
87874-1

>  <source_file>  (513) 
运行/运行/ATP-VSW/ATP-VSW-DOCK_HTVS_1-002_lib.maegz

>  <canonical_smiles>  (513) 
C[NH+](C)Cc1ccc(C(=O)Nc2ncc(C#Cc3ccc(O)cc3)nc2-c2ccccc2)cc1

>  <scaffold>  (513) 
O=C(Nc1ncc(C#Cc2ccccc2)nc1-c1ccccc1)c1ccccc1

>  <molecular_formula>  (513) 
C28H25N4O2+

$$$$
ATP-HTVS-512BF8EF5FA0
     RDKit          3D

 61 64  0  0  0  0  0  0  0  0999 V2000
  196.8373  185.0075  159.3182 N   0  0  0  0  0  0  0  0  0  0  0  0
  196.6163  183.7605  158.8437 C   0  0  0  0  0  0  0  0  0  0  0  0
  195.5109  183.0691  159.3445 N   0  0  0  0  0  0  0  0  0  0  0  0
  194.1749  183.5308  158.9927 C   0  0  1  0  0  0  0  0  0  0  0  0
  193.7118  184.6277  159.8565 C   0  0  0  0  0  0  0  0  0  0  0  0
  193.3423  185.5694  160.5420 C   0  0  0  0  0  0  0  0  0  0  0  0
  192.8665  186.6911  161.3470 C   0  0  0  0  0  0  0  0  0  0  0  0
  193.5405  187.0572  162.5252 C   0  0  0  0  0  0  0  0  0  0  0  0
  193.1438  188.0647  163.3331 N   0  0  0  0  0  0  0  0  0  0  0  0
  192.0543  188.7736  162.9636 C   0  0  0  0  0  0  0  0  0  0  0  0
  191.3117  188.5000  161.8029 C   0  0  0  0  0  0  0  0  0  0  0  0
  191.7250  187.4385  160.9820 C   0  0  0  0  0  0  0  0  0  0  0  0
  197.4717  183.1641  157.8926 C   0  0  0  0  0  0  0  0  0  0  0  0
  198.5474  183.8312  157.4099 N   0  0  0  0  0  0  0  0  0  0  0  0
  198.7894  185.0763  157.8879 C   0  0  0  0  0  0  0  0  0  0  0  0
  197.9222  185.6782  158.8510 C   0  0  0  0  0  0  0  0  0  0  0  0
  198.2074  186.9816  159.3128 C   0  0  0  0  0  0  0  0  0  0  0  0
  199.3243  187.6944  158.8343 C   0  0  0  0  0  0  0  0  0  0  0  0
  200.1750  187.1020  157.8878 C   0  0  0  0  0  0  0  0  0  0  0  0
  199.9098  185.8015  157.4273 C   0  0  0  0  0  0  0  0  0  0  0  0
  197.2411  181.8578  157.4503 N   0  0  0  0  0  0  0  0  0  0  0  0
  197.5874  181.4820  156.0902 C   0  0  1  0  0  0  0  0  0  0  0  0
  196.5762  182.0257  155.0606 C   0  0  1  0  0  0  0  0  0  0  0  0
  196.7760  181.4208  153.6768 C   0  0  0  0  0  0  0  0  0  0  0  0
  196.9190  182.2399  152.5349 C   0  0  0  0  0  0  0  0  0  0  0  0
  197.0819  181.6595  151.2566 C   0  0  0  0  0  0  0  0  0  0  0  0
  197.0923  180.2558  151.1084 C   0  0  0  0  0  0  0  0  0  0  0  0
  196.8981  179.4468  152.2475 C   0  0  0  0  0  0  0  0  0  0  0  0
  196.7482  180.0221  153.5167 C   0  0  0  0  0  0  0  0  0  0  0  0
  197.3044  179.6357  149.7318 C   0  0  1  0  0  0  0  0  0  0  0  0
  197.9514  178.3194  149.7414 N   0  0  0  0  0  0  0  0  0  0  0  0
  197.9379  177.7406  148.4069 C   0  0  2  0  0  0  0  0  0  0  0  0
  199.3356  178.4243  150.2029 C   0  0  2  0  0  0  0  0  0  0  0  0
  195.6491  182.3779  160.0690 H   0  0  0  0  0  0  0  0  0  0  0  0
  194.1250  183.8399  157.9445 H   0  0  0  0  0  0  0  0  0  0  0  0
  193.4844  182.6931  159.0997 H   0  0  0  0  0  0  0  0  0  0  0  0
  194.4176  186.5168  162.8428 H   0  0  0  0  0  0  0  0  0  0  0  0
  191.7765  189.5943  163.6117 H   0  0  0  0  0  0  0  0  0  0  0  0
  190.4577  189.1019  161.5344 H   0  0  0  0  0  0  0  0  0  0  0  0
  191.1725  187.2103  160.0804 H   0  0  0  0  0  0  0  0  0  0  0  0
  197.5642  187.4492  160.0461 H   0  0  0  0  0  0  0  0  0  0  0  0
  199.5281  188.6897  159.1954 H   0  0  0  0  0  0  0  0  0  0  0  0
  201.0284  187.6462  157.5120 H   0  0  0  0  0  0  0  0  0  0  0  0
  200.5655  185.3457  156.7022 H   0  0  0  0  0  0  0  0  0  0  0  0
  196.4563  181.3486  157.8526 H   0  0  0  0  0  0  0  0  0  0  0  0
  198.6064  181.7909  155.8377 H   0  0  0  0  0  0  0  0  0  0  0  0
  197.5792  180.3918  156.1044 H   0  0  0  0  0  0  0  0  0  0  0  0
  195.5561  181.7924  155.3685 H   0  0  0  0  0  0  0  0  0  0  0  0
  196.6480  183.1137  155.0045 H   0  0  0  0  0  0  0  0  0  0  0  0
  196.8912  183.3163  152.6335 H   0  0  0  0  0  0  0  0  0  0  0  0
  197.2044  182.2965  150.3943 H   0  0  0  0  0  0  0  0  0  0  0  0
  196.8937  178.3704  152.1662 H   0  0  0  0  0  0  0  0  0  0  0  0
  196.6111  179.3749  154.3701 H   0  0  0  0  0  0  0  0  0  0  0  0
  196.3206  179.5438  149.2688 H   0  0  0  0  0  0  0  0  0  0  0  0
  197.8838  180.3204  149.1080 H   0  0  0  0  0  0  0  0  0  0  0  0
  198.3962  176.7518  148.4167 H   0  0  0  0  0  0  0  0  0  0  0  0
  198.4809  178.3636  147.6962 H   0  0  0  0  0  0  0  0  0  0  0  0
  196.9154  177.6204  148.0502 H   0  0  0  0  0  0  0  0  0  0  0  0
  199.8105  177.4422  150.2236 H   0  0  0  0  0  0  0  0  0  0  0  0
  199.3913  178.8187  151.2182 H   0  0  0  0  0  0  0  0  0  0  0  0
  199.9251  179.0808  149.5610 H   0  0  0  0  0  0  0  0  0  0  0  0
  1  2  2  0
  1 16  1  0
  2  3  1  0
  2 13  1  0
  3  4  1  0
  3 34  1  0
  4  5  1  0
  4 35  1  6
  4 36  1  0
  5  6  3  0
  6  7  1  0
  7  8  2  0
  7 12  1  0
  8  9  1  0
  8 37  1  0
  9 10  2  0
 10 11  1  0
 10 38  1  0
 11 12  2  0
 11 39  1  0
 12 40  1  0
 13 14  2  0
 13 21  1  0
 14 15  1  0
 15 16  1  0
 15 20  2  0
 16 17  2  0
 17 18  1  0
 17 41  1  0
 18 19  2  0
 18 42  1  0
 19 20  1  0
 19 43  1  0
 20 44  1  0
 21 22  1  0
 21 45  1  0
 22 23  1  0
 22 46  1  6
 22 47  1  0
 23 24  1  0
 23 48  1  1
 23 49  1  0
 24 25  1  0
 24 29  2  0
 25 26  2  0
 25 50  1  0
 26 27  1  0
 26 51  1  0
 27 28  2  0
 27 30  1  0
 28 29  1  0
 28 52  1  0
 29 53  1  0
 30 31  1  0
 30 54  1  6
 30 55  1  0
 31 32  1  0
 31 33  1  0
 32 56  1  1
 32 57  1  0
 32 58  1  0
 33 59  1  1
 33 60  1  0
 33 61  1  0
M  END
>  <s_epik_cmdline>  (514) 
J2VwaWtfcHl0aG9uJywgJy1waCcsICc3LjAwMDAwMCcsICctcGh0JywgJzIuMDAwMDAwJywgJy1tcycsICcxNicsICctdG4nLCAnOCcsICctbWEnLCAnMjAwJywgJy1pbWFlJywgJzxpbmZpbGUubWFlPicsICctb21hZScsICc8b3V0ZmlsZS5tYWU+Jw==

>  <s_epik_input>  (514) 
W2NIXTFbY0hdW2NIXW5bY0hdYzFDI0NbQ0gyXVtOSF1jKG5jKGMyMylbY0hdW2NIXVtjSF1bY0hdMyljKG4yKVtOSF1bQ0gyXVtDSDJdYzRbY0hdW2NIXWMoW2NIXVtjSF00KVtDSDJdTihbQ0gzXSlbQ0gzXQ==

>  <s_i_glide_gridfile>  (514) 
ATP-Grid

>  <s_lp_Force_Field>  (514) 
OPLS_2005

>  <s_lp_Variant>  (514) 
m_282030aaa____21926464____23157418____21966774-2

>  <s_lp_label>  (514) 
1588_sdstereoexpander_1_neutralizer_1_epik_2_stereoizer_1

>  <s_m_source_file>  (514) 
ATP-VSW-LIGPREP-001-in.maegz

>  <s_sd_BIOSOLVEIT.INFINISEE\_QUERY\_NAME>  (514) 
Ref-Lig

>  <s_sd_BIOSOLVEIT.INFINISEE\_QUERY\_SMILES>  (514) 
S(c1nc2c(cc1C[NH2+]Cc3ccc(cc3)C[NH+](C)C)cccc2)Cc4ccccc4

>  <s_sd_BIOSOLVEIT.INFINISEE\_REACTION\_NAME>  (514) 
m_282030aaa

>  <s_sd_BIOSOLVEIT.INFINISEE\_REAGENT1\_SMILES>  (514) 
[R1*]NCCc1ccc(cc1)CN(C)C

>  <s_sd_BIOSOLVEIT.INFINISEE\_REAGENT2\_SMILES>  (514) 
[R1*]c1nc2c(nc1[R2*])cccc2

>  <s_sd_BIOSOLVEIT.INFINISEE\_REAGENT3\_SMILES>  (514) 
[R2*]NCC#Cc1cnccc1

>  <s_sd_BIOSOLVEIT.INFINISEE\_SPACE>  (514) 
REALSpace_44bn_2023-08

>  <s_vsw_compound_code>  (514) 
50785

>  <s_vsw_variant>  (514) 
50785-2

>  <r_epik_Charging_Adjusted_Penalty>  (514) 
1.6032092271001199

>  <r_epik_Ionization_Penalty>  (514) 
1.6059000000000001

>  <r_epik_Ionization_Penalty_Charging>  (514) 
0

>  <r_epik_Ionization_Penalty_Neutral>  (514) 
1.6059000000000001

>  <r_epik_State_Penalty>  (514) 
1.6032

>  <r_i_docking_score>  (514) 
-2.3079930550032199

>  <r_i_glide_ecoul>  (514) 
-3.4396755695343

>  <r_i_glide_eff_state_penalty>  (514) 
1.6032

>  <r_i_glide_einternal>  (514) 
10.5800228118896

>  <r_i_glide_emodel>  (514) 
-47.4611176857711

>  <r_i_glide_energy>  (514) 
-42.140202760696397

>  <r_i_glide_erotb>  (514) 
0.83677619668177805

>  <r_i_glide_esite>  (514) 
-0.071376030265382001

>  <r_i_glide_evdw>  (514) 
-38.700527191162102

>  <r_i_glide_gscore>  (514) 
-3.9111930550032201

>  <r_i_glide_hbond>  (514) 
-0.087555465830292195

>  <r_i_glide_ligand_efficiency>  (514) 
-0.069939183484946196

>  <r_i_glide_ligand_efficiency_ln>  (514) 
-0.513285705284236

>  <r_i_glide_ligand_efficiency_sa>  (514) 
-0.22433233177838199

>  <r_i_glide_lipo>  (514) 
-1.7054561060556199

>  <r_i_glide_metal>  (514) 
-0

>  <r_i_glide_rewards>  (514) 
-0.43260395454545297

>  <r_lp_Energy>  (514) 
25.150272000000001

>  <r_qp_ACxDN^.5/SA>  (514) 
0.0121715

>  <r_qp_CIQPlogS>  (514) 
-5.7039999999999997

>  <r_qp_EA(eV)>  (514) 
0.68799999999999994

>  <r_qp_FISA>  (514) 
53.344000000000001

>  <r_qp_FOSA>  (514) 
273.52499999999998

>  <r_qp_IP(eV)>  (514) 
8.0899999999999999

>  <r_qp_Jm>  (514) 
0.071185091794708499

>  <r_qp_PISA>  (514) 
428.37

>  <r_qp_PSA>  (514) 
59.573

>  <r_qp_PercentHumanOralAbsorption>  (514) 
100

>  <r_qp_QPPCaco>  (514) 
770.79700000000003

>  <r_qp_QPPMDCK>  (514) 
413.072

>  <r_qp_QPlogBB>  (514) 
-0.185

>  <r_qp_QPlogHERG>  (514) 
-7.4009999999999998

>  <r_qp_QPlogKhsa>  (514) 
0.73099999999999998

>  <r_qp_QPlogKp>  (514) 
-2.0960000000000001

>  <r_qp_QPlogPC16>  (514) 
15.253

>  <r_qp_QPlogPo/w>  (514) 
4.9299999999999997

>  <r_qp_QPlogPoct>  (514) 
22.52

>  <r_qp_QPlogPw>  (514) 
11.939

>  <r_qp_QPlogS>  (514) 
-4.6920000000000002

>  <r_qp_QPpolrz>  (514) 
48.286999999999999

>  <r_qp_SASA>  (514) 
755.23900000000003

>  <r_qp_SAamideO>  (514) 
0

>  <r_qp_SAfluorine>  (514) 
0

>  <r_qp_WPSA>  (514) 
0

>  <r_qp_accptHB>  (514) 
6.5

>  <r_qp_dip^2/V>  (514) 
0.019891099999999998

>  <r_qp_dipole>  (514) 
5.3120000000000003

>  <r_qp_donorHB>  (514) 
2

>  <r_qp_glob>  (514) 
0.80844110000000002

>  <r_qp_mol_MW>  (514) 
436.55799999999999

>  <r_qp_volume>  (514) 
1418.5730000000001

>  <r_sd_BIOSOLVEIT.INFINISEE\_FTREES\_SIMILARITY>  (514) 
0.90600000000000003

>  <r_sd_BIOSOLVEIT.LOGP>  (514) 
2.7875000000000001

>  <r_sd_BIOSOLVEIT.MOLECULAR\_WEIGHT>  (514) 
437.56799999999998

>  <r_sd_BIOSOLVEIT.TPSA>  (514) 
67.170000000000002

>  <i_epik_Tot_Q>  (514) 
0

>  <i_epik_Tot_abs_Q>  (514) 
0

>  <i_f3d_flags>  (514) 
0

>  <i_i_glide_confnum>  (514) 
5

>  <i_i_glide_lignum>  (514) 
423

>  <i_i_glide_posenum>  (514) 
5

>  <i_i_glide_rotatable_bonds>  (514) 
10

>  <i_lp_mmshare_version>  (514) 
65135

>  <i_m_ct_format>  (514) 
2

>  <i_m_source_file_index>  (514) 
1588

>  <i_qp_#NandO>  (514) 
6

>  <i_qp_#acid>  (514) 
0

>  <i_qp_#amide>  (514) 
0

>  <i_qp_#amidine>  (514) 
0

>  <i_qp_#amine>  (514) 
1

>  <i_qp_#in34>  (514) 
0

>  <i_qp_#in56>  (514) 
22

>  <i_qp_#metab>  (514) 
6

>  <i_qp_#nonHatm>  (514) 
33

>  <i_qp_#noncon>  (514) 
0

>  <i_qp_#ringatoms>  (514) 
22

>  <i_qp_#rotor>  (514) 
10

>  <i_qp_#rtvFG>  (514) 
0

>  <i_qp_#stars>  (514) 
0

>  <i_qp_CNS>  (514) 
1

>  <i_qp_HumanOralAbsorption>  (514) 
3

>  <i_qp_RuleOfFive>  (514) 
0

>  <i_qp_RuleOfThree>  (514) 
0

>  <i_sd_BIOSOLVEIT.INFINISEE\_REAGENT1\_NAME>  (514) 
21926464

>  <i_sd_BIOSOLVEIT.INFINISEE\_REAGENT2\_NAME>  (514) 
23157418

>  <i_sd_BIOSOLVEIT.INFINISEE\_REAGENT3\_NAME>  (514) 
21966774

>  <i_sd_BIOSOLVEIT.INFINISEE\_RESULT\_RANK>  (514) 
64981

>  <i_sd_version>  (514) 
0

>  <b_lp_Chiralities_Consistent>  (514) 
1

>  <b_sd_chiral_flag>  (514) 
0

>  <canonical_id>  (514) 
ATP-HTVS-512BF8EF5FA0

>  <compound_code>  (514) 
50785

>  <title>  (514) 
m_282030aaa____21926464____23157418____21966774

>  <variant>  (514) 
50785-2

>  <source_file>  (514) 
运行/运行/ATP-VSW/ATP-VSW-DOCK_HTVS_1-001_lib/ATP-VSW-DOCK_HTVS_1-001_lib

>  <canonical_smiles>  (514) 
CN(C)Cc1ccc(CCNc2nc3ccccc3nc2NCC#Cc2cccnc2)cc1

>  <scaffold>  (514) 
C(#Cc1cccnc1)CNc1nc2ccccc2nc1NCCc1ccccc1

>  <molecular_formula>  (514) 
C27H28N6

$$$$
ATP-HTVS-512DB2E888C1
     RDKit          3D

 56 59  0  0  0  0  0  0  0  0999 V2000
  196.4550  189.1700  160.8858 S   0  0  0  0  0  0  0  0  0  0  0  0
  197.7264  189.7741  159.7239 C   0  0  1  0  0  0  0  0  0  0  0  0
  198.0949  188.8621  158.5560 C   0  0  0  0  0  0  0  0  0  0  0  0
  199.4668  188.6522  158.2193 C   0  0  0  0  0  0  0  0  0  0  0  0
  199.8312  187.7064  157.2299 C   0  0  0  0  0  0  0  0  0  0  0  0
  198.8526  187.0339  156.4686 C   0  0  0  0  0  0  0  0  0  0  0  0
  197.4952  187.2927  156.7455 C   0  0  0  0  0  0  0  0  0  0  0  0
  197.1213  188.2334  157.7322 C   0  0  0  0  0  0  0  0  0  0  0  0
  199.2656  185.9910  155.4681 C   0  0  0  0  0  0  0  0  0  0  0  0
  200.4197  185.9785  155.0369 O   0  0  0  0  0  0  0  0  0  0  0  0
  198.3424  185.0600  155.1551 N   0  0  0  0  0  0  0  0  0  0  0  0
  198.4741  183.9610  154.2515 C   0  0  0  0  0  0  0  0  0  0  0  0
  197.6883  182.7940  154.4064 C   0  0  0  0  0  0  0  0  0  0  0  0
  196.7756  182.6919  155.5631 C   0  0  0  0  0  0  0  0  0  0  0  0
  196.0941  182.6485  156.5568 C   0  0  0  0  0  0  0  0  0  0  0  0
  195.2509  182.6109  157.7944 C   0  0  1  0  0  0  0  0  0  0  0  0
  194.4345  181.4217  157.7410 N   0  0  2  0  0  0  0  0  0  0  0  0
  196.1442  182.6190  159.0704 C   0  0  1  0  0  0  0  0  0  0  0  0
  197.0843  183.8161  159.1745 C   0  0  0  0  0  0  0  0  0  0  0  0
  198.4830  183.6300  159.0063 C   0  0  0  0  0  0  0  0  0  0  0  0
  199.3289  184.7298  159.1761 C   0  0  0  0  0  0  0  0  0  0  0  0
  200.6590  184.6108  158.9510 F   0  0  0  0  0  0  0  0  0  0  0  0
  198.7790  185.9608  159.5564 C   0  0  0  0  0  0  0  0  0  0  0  0
  197.3945  186.1014  159.6872 C   0  0  0  0  0  0  0  0  0  0  0  0
  196.5278  185.0670  159.4519 C   0  0  0  0  0  0  0  0  0  0  0  0
  197.8301  181.7231  153.4906 C   0  0  0  0  0  0  0  0  0  0  0  0
  198.7733  181.8682  152.4323 C   0  0  0  0  0  0  0  0  0  0  0  0
  199.5100  182.9850  152.2761 N   0  0  0  0  0  0  0  0  0  0  0  0
  199.3587  183.9962  153.1495 C   0  0  0  0  0  0  0  0  0  0  0  0
  198.9426  180.8130  151.5129 C   0  0  0  0  0  0  0  0  0  0  0  0
  198.1969  179.6272  151.6206 C   0  0  0  0  0  0  0  0  0  0  0  0
  197.2646  179.4871  152.6602 C   0  0  0  0  0  0  0  0  0  0  0  0
  197.0847  180.5207  153.5945 C   0  0  0  0  0  0  0  0  0  0  0  0
  193.9072  181.5428  156.8780 H   0  0  0  0  0  0  0  0  0  0  0  0
  193.8498  181.3941  158.5547 H   0  0  0  0  0  0  0  0  0  0  0  0
  195.4509  188.9818  160.0091 H   0  0  0  0  0  0  0  0  0  0  0  0
  197.3208  190.7151  159.3479 H   0  0  0  0  0  0  0  0  0  0  0  0
  198.6151  189.9712  160.3324 H   0  0  0  0  0  0  0  0  0  0  0  0
  200.2289  189.0677  158.8434 H   0  0  0  0  0  0  0  0  0  0  0  0
  200.8658  187.4648  157.1086 H   0  0  0  0  0  0  0  0  0  0  0  0
  196.7152  186.7215  156.2787 H   0  0  0  0  0  0  0  0  0  0  0  0
  196.0758  188.3144  157.9924 H   0  0  0  0  0  0  0  0  0  0  0  0
  197.4631  185.1084  155.6466 H   0  0  0  0  0  0  0  0  0  0  0  0
  194.6331  183.5244  157.7755 H   0  0  0  0  0  0  0  0  0  0  0  0
  195.4971  182.6689  159.9496 H   0  0  0  0  0  0  0  0  0  0  0  0
  196.7422  181.7108  159.1331 H   0  0  0  0  0  0  0  0  0  0  0  0
  198.9053  182.6494  158.7693 H   0  0  0  0  0  0  0  0  0  0  0  0
  199.4487  186.7793  159.7398 H   0  0  0  0  0  0  0  0  0  0  0  0
  196.9492  187.0360  159.8866 H   0  0  0  0  0  0  0  0  0  0  0  0
  195.4614  185.2303  159.5053 H   0  0  0  0  0  0  0  0  0  0  0  0
  199.9713  184.8592  152.9382 H   0  0  0  0  0  0  0  0  0  0  0  0
  199.6582  180.9215  150.7108 H   0  0  0  0  0  0  0  0  0  0  0  0
  198.3420  178.8288  150.9077 H   0  0  0  0  0  0  0  0  0  0  0  0
  196.6852  178.5842  152.7443 H   0  0  0  0  0  0  0  0  0  0  0  0
  196.3643  180.3696  154.3854 H   0  0  0  0  0  0  0  0  0  0  0  0
  195.0565  180.5354  157.6944 H   0  0  0  0  0  0  0  0  0  0  0  0
  1  2  1  0
  1 36  1  0
  2  3  1  0
  2 37  1  6
  2 38  1  0
  3  4  1  0
  3  8  2  0
  4  5  2  0
  4 39  1  0
  5  6  1  0
  5 40  1  0
  6  7  2  0
  6  9  1  0
  7  8  1  0
  7 41  1  0
  8 42  1  0
  9 10  2  0
  9 11  1  0
 11 12  1  0
 11 43  1  0
 12 13  2  0
 12 29  1  0
 13 14  1  0
 13 26  1  0
 14 15  3  0
 15 16  1  0
 16 17  1  0
 16 18  1  0
 16 44  1  1
 17 34  1  6
 17 35  1  0
 17 56  1  0
 18 19  1  0
 18 45  1  1
 18 46  1  0
 19 20  1  0
 19 25  2  0
 20 21  2  0
 20 47  1  0
 21 22  1  0
 21 23  1  0
 23 24  2  0
 23 48  1  0
 24 25  1  0
 24 49  1  0
 25 50  1  0
 26 27  1  0
 26 33  2  0
 27 28  1  0
 27 30  2  0
 28 29  2  0
 29 51  1  0
 30 31  1  0
 30 52  1  0
 31 32  2  0
 31 53  1  0
 32 33  1  0
 32 54  1  0
 33 55  1  0
M  CHG  1  17   1
M  END
>  <s_epik_cmdline>  (515) 
J2VwaWtfcHl0aG9uJywgJy1waCcsICc3LjAwMDAwMCcsICctcGh0JywgJzIuMDAwMDAwJywgJy1tcycsICcxNicsICctdG4nLCAnOCcsICctbWEnLCAnMjAwJywgJy1pbWFlJywgJzxpbmZpbGUubWFlPicsICctb21hZScsICc8b3V0ZmlsZS5tYWU+Jw==

>  <s_epik_input>  (515) 
W1NIXVtDSDJdYzFbY0hdW2NIXWMoW2NIXVtjSF0xKUMoPU8pW05IXWMoW2NIXW5jKGMyMylbY0hdW2NIXVtjSF1bY0hdMyljMkMjQ1tDQEBIXShbTkgyXSlbQ0gyXWM0W2NIXWMoRilbY0hdW2NIXVtjSF00

>  <s_i_glide_gridfile>  (515) 
ATP-Grid

>  <s_lp_Force_Field>  (515) 
OPLS_2005

>  <s_lp_Variant>  (515) 
rxn503b____EMOL1959427____EMOL30488121____EMOL313110234-4

>  <s_lp_label>  (515) 
3042_sdstereoexpander_2_neutralizer_1_epik_2_stereoizer_1

>  <s_m_source_file>  (515) 
ATP-VSW-LIGPREP-001-in.maegz

>  <s_sd_BIOSOLVEIT.INFINISEE\_QUERY\_NAME>  (515) 
Ref-Lig

>  <s_sd_BIOSOLVEIT.INFINISEE\_QUERY\_SMILES>  (515) 
S(c1nc2c(cc1C[NH2+]Cc3ccc(cc3)C[NH+](C)C)cccc2)Cc4ccccc4

>  <s_sd_BIOSOLVEIT.INFINISEE\_REACTION\_NAME>  (515) 
rxn503b

>  <s_sd_BIOSOLVEIT.INFINISEE\_REAGENT1\_NAME>  (515) 
EMOL1959427

>  <s_sd_BIOSOLVEIT.INFINISEE\_REAGENT1\_SMILES>  (515) 
SCc1ccc(cc1)C(=O)O

>  <s_sd_BIOSOLVEIT.INFINISEE\_REAGENT2\_NAME>  (515) 
EMOL30488121

>  <s_sd_BIOSOLVEIT.INFINISEE\_REAGENT2\_SMILES>  (515) 
Brc1c(N)cnc2c1cccc2

>  <s_sd_BIOSOLVEIT.INFINISEE\_REAGENT3\_NAME>  (515) 
EMOL313110234

>  <s_sd_BIOSOLVEIT.INFINISEE\_REAGENT3\_SMILES>  (515) 
Fc1cc(ccc1)CC(N)C#C

>  <s_sd_BIOSOLVEIT.INFINISEE\_SPACE>  (515) 
eXplore_7tr_2022-12

>  <s_vsw_compound_code>  (515) 
97313

>  <s_vsw_variant>  (515) 
97313-4

>  <r_epik_Charging_Adjusted_Penalty>  (515) 
1.2305992786340401

>  <r_epik_Ionization_Penalty>  (515) 
0.61770000000000003

>  <r_epik_Ionization_Penalty_Charging>  (515) 
0.61299999999999999

>  <r_epik_Ionization_Penalty_Neutral>  (515) 
0.0047999999999999996

>  <r_epik_State_Penalty>  (515) 
0.61760000000000004

>  <r_i_docking_score>  (515) 
-5.1701970504328303

>  <r_i_glide_ecoul>  (515) 
-13.613130569458001

>  <r_i_glide_eff_state_penalty>  (515) 
0.61760000000000004

>  <r_i_glide_einternal>  (515) 
4.8965506553649902

>  <r_i_glide_emodel>  (515) 
-61.2953224045838

>  <r_i_glide_energy>  (515) 
-40.342191696166999

>  <r_i_glide_erotb>  (515) 
0.47245477193160201

>  <r_i_glide_esite>  (515) 
-0.10000000000000001

>  <r_i_glide_evdw>  (515) 
-26.729061126708999

>  <r_i_glide_gscore>  (515) 
-5.7877970504328298

>  <r_i_glide_hbond>  (515) 
-0.65993379220950499

>  <r_i_glide_ligand_efficiency>  (515) 
-0.156672637891904

>  <r_i_glide_ligand_efficiency_ln>  (515) 
-1.1498250541686299

>  <r_i_glide_ligand_efficiency_sa>  (515) 
-0.50253286402358399

>  <r_i_glide_lipo>  (515) 
-1.1589550553896

>  <r_i_glide_metal>  (515) 
-0

>  <r_i_glide_rewards>  (515) 
-0.96294033301118098

>  <r_lp_Energy>  (515) 
25.945754000000001

>  <r_qp_ACxDN^.5/SA>  (515) 
0.0144212

>  <r_qp_CIQPlogS>  (515) 
-6.4400000000000004

>  <r_qp_EA(eV)>  (515) 
1.194

>  <r_qp_FISA>  (515) 
104.129

>  <r_qp_FOSA>  (515) 
99.558999999999997

>  <r_qp_IP(eV)>  (515) 
8.6899999999999995

>  <r_qp_Jm>  (515) 
0.022575349628982

>  <r_qp_PISA>  (515) 
384.18599999999998

>  <r_qp_PSA>  (515) 
71.635999999999996

>  <r_qp_PercentHumanOralAbsorption>  (515) 
96.162999999999997

>  <r_qp_QPPCaco>  (515) 
254.297

>  <r_qp_QPPMDCK>  (515) 
377.99299999999999

>  <r_qp_QPlogBB>  (515) 
-0.307

>  <r_qp_QPlogHERG>  (515) 
-6.383

>  <r_qp_QPlogKhsa>  (515) 
0.63500000000000001

>  <r_qp_QPlogKp>  (515) 
-3.2839999999999998

>  <r_qp_QPlogPC16>  (515) 
14.895

>  <r_qp_QPlogPo/w>  (515) 
4.4690000000000003

>  <r_qp_QPlogPoct>  (515) 
24.288

>  <r_qp_QPlogPw>  (515) 
13.202999999999999

>  <r_qp_QPlogS>  (515) 
-4.0209999999999999

>  <r_qp_QPpolrz>  (515) 
44.311999999999998

>  <r_qp_SASA>  (515) 
675.86500000000001

>  <r_qp_SAamideO>  (515) 
0

>  <r_qp_SAfluorine>  (515) 
30.878

>  <r_qp_WPSA>  (515) 
87.989999999999995

>  <r_qp_accptHB>  (515) 
5

>  <r_qp_dip^2/V>  (515) 
0.058862400000000002

>  <r_qp_dipole>  (515) 
8.7940000000000005

>  <r_qp_donorHB>  (515) 
3.7999999999999998

>  <r_qp_glob>  (515) 
0.85830919999999999

>  <r_qp_mol_MW>  (515) 
455.54899999999998

>  <r_qp_volume>  (515) 
1313.7360000000001

>  <r_sd_BIOSOLVEIT.INFINISEE\_FTREES\_SIMILARITY>  (515) 
0.90200000000000002

>  <r_sd_BIOSOLVEIT.LOGP>  (515) 
4.6409000000000002

>  <r_sd_BIOSOLVEIT.MOLECULAR\_WEIGHT>  (515) 
456.56200000000001

>  <r_sd_BIOSOLVEIT.TPSA>  (515) 
69.629999999999995

>  <i_epik_Tot_Q>  (515) 
1

>  <i_epik_Tot_abs_Q>  (515) 
1

>  <i_f3d_flags>  (515) 
0

>  <i_i_glide_confnum>  (515) 
6

>  <i_i_glide_lignum>  (515) 
21

>  <i_i_glide_posenum>  (515) 
2

>  <i_i_glide_rotatable_bonds>  (515) 
9

>  <i_lp_mmshare_version>  (515) 
65135

>  <i_m_ct_format>  (515) 
2

>  <i_m_source_file_index>  (515) 
3042

>  <i_qp_#NandO>  (515) 
4

>  <i_qp_#acid>  (515) 
0

>  <i_qp_#amide>  (515) 
0

>  <i_qp_#amidine>  (515) 
0

>  <i_qp_#amine>  (515) 
1

>  <i_qp_#in34>  (515) 
0

>  <i_qp_#in56>  (515) 
22

>  <i_qp_#metab>  (515) 
7

>  <i_qp_#nonHatm>  (515) 
33

>  <i_qp_#noncon>  (515) 
0

>  <i_qp_#ringatoms>  (515) 
22

>  <i_qp_#rotor>  (515) 
9

>  <i_qp_#rtvFG>  (515) 
1

>  <i_qp_#stars>  (515) 
0

>  <i_qp_CNS>  (515) 
0

>  <i_qp_HumanOralAbsorption>  (515) 
3

>  <i_qp_RuleOfFive>  (515) 
0

>  <i_qp_RuleOfThree>  (515) 
1

>  <i_sd_BIOSOLVEIT.INFINISEE\_RESULT\_RANK>  (515) 
90206

>  <i_sd_version>  (515) 
0

>  <b_lp_Chiralities_Consistent>  (515) 
1

>  <b_sd_chiral_flag>  (515) 
0

>  <canonical_id>  (515) 
ATP-HTVS-512DB2E888C1

>  <compound_code>  (515) 
97313

>  <title>  (515) 
rxn503b____EMOL1959427____EMOL30488121____EMOL313110234

>  <variant>  (515) 
97313-4

>  <source_file>  (515) 
运行/运行/ATP-VSW/ATP-VSW-DOCK_HTVS_1-002_lib.maegz

>  <canonical_smiles>  (515) 
[NH3+][C@H](C#Cc1c(NC(=O)c2ccc(CS)cc2)cnc2ccccc12)Cc1cccc(F)c1

>  <scaffold>  (515) 
O=C(Nc1cnc2ccccc2c1C#CCCc1ccccc1)c1ccccc1

>  <molecular_formula>  (515) 
C27H23FN3OS+

$$$$
ATP-HTVS-514A7FD93F10
     RDKit          3D

 55 58  0  0  0  0  0  0  0  0999 V2000
  199.1458  181.4101  153.9812 O   0  0  0  0  0  0  0  0  0  0  0  0
  199.7051  181.0703  155.0374 C   0  0  0  0  0  0  0  0  0  0  0  0
  200.9166  181.3301  155.3140 O   0  0  0  0  0  0  0  0  0  0  0  0
  198.8581  180.2851  156.0948 C   0  0  1  0  0  0  0  0  0  0  0  0
  197.6816  181.0409  156.5673 N   0  0  0  0  0  0  0  0  0  0  0  0
  197.8024  182.1965  157.3448 C   0  0  0  0  0  0  0  0  0  0  0  0
  199.0447  182.7335  157.4467 N   0  0  0  0  0  0  0  0  0  0  0  0
  199.2229  183.8512  158.1510 C   0  0  0  0  0  0  0  0  0  0  0  0
  200.5451  184.2885  158.1533 N   0  0  0  0  0  0  0  0  0  0  0  0
  198.1891  184.5416  158.8422 C   0  0  0  0  0  0  0  0  0  0  0  0
  196.8889  183.9780  158.7621 C   0  0  0  0  0  0  0  0  0  0  0  0
  196.6861  182.7958  158.0029 C   0  0  0  0  0  0  0  0  0  0  0  0
  195.3938  182.2365  157.9047 C   0  0  0  0  0  0  0  0  0  0  0  0
  194.3114  182.8251  158.5688 C   0  0  0  0  0  0  0  0  0  0  0  0
  194.5108  183.9893  159.3385 C   0  0  0  0  0  0  0  0  0  0  0  0
  195.7904  184.5709  159.4306 C   0  0  0  0  0  0  0  0  0  0  0  0
  198.5282  185.7811  159.6386 C   0  0  1  0  0  0  0  0  0  0  0  0
  198.3300  187.0723  158.8741 C   0  0  0  0  0  0  0  0  0  0  0  0
  199.1414  187.3813  157.7590 C   0  0  0  0  0  0  0  0  0  0  0  0
  198.9539  188.5847  157.0565 C   0  0  0  0  0  0  0  0  0  0  0  0
  197.9583  189.4862  157.4766 C   0  0  0  0  0  0  0  0  0  0  0  0
  197.1478  189.1826  158.5840 C   0  0  0  0  0  0  0  0  0  0  0  0
  197.3314  187.9788  159.2872 C   0  0  0  0  0  0  0  0  0  0  0  0
  198.4453  178.9047  155.5138 C   0  0  1  0  0  0  0  0  0  0  0  0
  199.5923  177.9001  155.3318 C   0  0  0  0  0  0  0  0  0  0  0  0
  200.2048  177.6430  154.0745 C   0  0  0  0  0  0  0  0  0  0  0  0
  201.2866  176.7395  153.9972 C   0  0  0  0  0  0  0  0  0  0  0  0
  201.7571  176.0706  155.1406 C   0  0  0  0  0  0  0  0  0  0  0  0
  201.1450  176.3034  156.3844 C   0  0  0  0  0  0  0  0  0  0  0  0
  200.0679  177.2132  156.4762 C   0  0  0  0  0  0  0  0  0  0  0  0
  199.7627  178.3185  152.7860 C   0  0  2  0  0  0  0  0  0  0  0  0
  199.4344  180.0791  156.9884 H   0  0  0  0  0  0  0  0  0  0  0  0
  196.8622  180.4697  156.7418 H   0  0  0  0  0  0  0  0  0  0  0  0
  200.8779  185.1111  158.6208 H   0  0  0  0  0  0  0  0  0  0  0  0
  201.1920  183.7798  157.5704 H   0  0  0  0  0  0  0  0  0  0  0  0
  195.1972  181.3674  157.2977 H   0  0  0  0  0  0  0  0  0  0  0  0
  193.3284  182.3901  158.4658 H   0  0  0  0  0  0  0  0  0  0  0  0
  193.6680  184.4506  159.8478 H   0  0  0  0  0  0  0  0  0  0  0  0
  195.9114  185.4761  160.0050 H   0  0  0  0  0  0  0  0  0  0  0  0
  197.9175  185.8011  160.5262 H   0  0  0  0  0  0  0  0  0  0  0  0
  199.5525  185.7369  159.9833 H   0  0  0  0  0  0  0  0  0  0  0  0
  199.9150  186.7077  157.4206 H   0  0  0  0  0  0  0  0  0  0  0  0
  199.5732  188.8043  156.2006 H   0  0  0  0  0  0  0  0  0  0  0  0
  197.8114  190.4074  156.9403 H   0  0  0  0  0  0  0  0  0  0  0  0
  196.3735  189.8680  158.8989 H   0  0  0  0  0  0  0  0  0  0  0  0
  196.7126  187.7500  160.1447 H   0  0  0  0  0  0  0  0  0  0  0  0
  197.7039  178.4133  156.1349 H   0  0  0  0  0  0  0  0  0  0  0  0
  197.8621  179.0558  154.6007 H   0  0  0  0  0  0  0  0  0  0  0  0
  201.7629  176.5668  153.0433 H   0  0  0  0  0  0  0  0  0  0  0  0
  202.5855  175.3805  155.0561 H   0  0  0  0  0  0  0  0  0  0  0  0
  201.5003  175.7788  157.2620 H   0  0  0  0  0  0  0  0  0  0  0  0
  199.5958  177.3770  157.4376 H   0  0  0  0  0  0  0  0  0  0  0  0
  200.1971  177.8382  151.9047 H   0  0  0  0  0  0  0  0  0  0  0  0
  200.1262  179.3461  152.7648 H   0  0  0  0  0  0  0  0  0  0  0  0
  198.6793  178.3073  152.6639 H   0  0  0  0  0  0  0  0  0  0  0  0
  1  2  1  0
  2  3  2  0
  2  4  1  0
  4  5  1  0
  4 24  1  0
  4 32  1  1
  5  6  1  0
  5 33  1  0
  6  7  1  0
  6 12  2  0
  7  8  2  0
  8  9  1  0
  8 10  1  0
  9 34  1  0
  9 35  1  0
 10 11  2  0
 10 17  1  0
 11 12  1  0
 11 16  1  0
 12 13  1  0
 13 14  2  0
 13 36  1  0
 14 15  1  0
 14 37  1  0
 15 16  2  0
 15 38  1  0
 16 39  1  0
 17 18  1  0
 17 40  1  1
 17 41  1  0
 18 19  2  0
 18 23  1  0
 19 20  1  0
 19 42  1  0
 20 21  2  0
 20 43  1  0
 21 22  1  0
 21 44  1  0
 22 23  2  0
 22 45  1  0
 23 46  1  0
 24 25  1  0
 24 47  1  1
 24 48  1  0
 25 26  1  0
 25 30  2  0
 26 27  2  0
 26 31  1  0
 27 28  1  0
 27 49  1  0
 28 29  2  0
 28 50  1  0
 29 30  1  0
 29 51  1  0
 30 52  1  0
 31 53  1  6
 31 54  1  0
 31 55  1  0
M  CHG  1   1  -1
M  END
>  <s_epik_cmdline>  (516) 
J2VwaWtfcHl0aG9uJywgJy1waCcsICc3LjAwMDAwMCcsICctcGh0JywgJzIuMDAwMDAwJywgJy1tcycsICcxNicsICctdG4nLCAnOCcsICctbWEnLCAnMjAwJywgJy1pbWFlJywgJzxpbmZpbGUubWFlPicsICctb21hZScsICc8b3V0ZmlsZS5tYWU+Jw==

>  <s_epik_input>  (516) 
W2NIXTFbY0hdW2NIXVtjSF1jKFtDSDNdKWMxW0NIMl1bQ0BASF0oQyg9TylbT0hdKVtOSF1jKGMoYzIzKVtjSF1bY0hdW2NIXVtjSF0zKW5jKFtOSDJdKWMyW0NIMl1jNFtjSF1bY0hdW2NIXVtjSF1bY0hdNA==

>  <s_i_glide_gridfile>  (516) 
ATP-Grid

>  <s_lp_Force_Field>  (516) 
OPLS_2005

>  <s_lp_Variant>  (516) 
rxn102b____EMOL723898____EMOL6283223-2

>  <s_lp_label>  (516) 
2817_sdstereoexpander_2_neutralizer_1_epik_1_stereoizer_1

>  <s_m_source_file>  (516) 
ATP-VSW-LIGPREP-003-in.maegz

>  <s_sd_BIOSOLVEIT.INFINISEE\_QUERY\_NAME>  (516) 
Ref-Lig

>  <s_sd_BIOSOLVEIT.INFINISEE\_QUERY\_SMILES>  (516) 
S(c1nc2c(cc1C[NH2+]Cc3ccc(cc3)C[NH+](C)C)cccc2)Cc4ccccc4

>  <s_sd_BIOSOLVEIT.INFINISEE\_REACTION\_NAME>  (516) 
rxn102b

>  <s_sd_BIOSOLVEIT.INFINISEE\_REAGENT1\_NAME>  (516) 
EMOL723898

>  <s_sd_BIOSOLVEIT.INFINISEE\_REAGENT1\_SMILES>  (516) 
Brc1nc(N)c(c2c1cccc2)Cc3ccccc3

>  <s_sd_BIOSOLVEIT.INFINISEE\_REAGENT2\_NAME>  (516) 
EMOL6283223

>  <s_sd_BIOSOLVEIT.INFINISEE\_REAGENT2\_SMILES>  (516) 
O=C(O)C(N)Cc1c(cccc1)C

>  <s_sd_BIOSOLVEIT.INFINISEE\_SPACE>  (516) 
eXplore_7tr_2022-12

>  <s_vsw_compound_code>  (516) 
90115

>  <s_vsw_variant>  (516) 
90115-2

>  <r_epik_Charging_Adjusted_Penalty>  (516) 
0.14678464508453901

>  <r_epik_Ionization_Penalty>  (516) 
0.14729999999999999

>  <r_epik_Ionization_Penalty_Charging>  (516) 
0.00029999999999999997

>  <r_epik_Ionization_Penalty_Neutral>  (516) 
0.1469

>  <r_epik_State_Penalty>  (516) 
0.1464

>  <r_i_docking_score>  (516) 
-3.1913453030727199

>  <r_i_glide_ecoul>  (516) 
-1.0377383232116699

>  <r_i_glide_eff_state_penalty>  (516) 
0.1464

>  <r_i_glide_einternal>  (516) 
1.7624094486236599

>  <r_i_glide_emodel>  (516) 
-39.327040263966303

>  <r_i_glide_energy>  (516) 
-34.173549175262501

>  <r_i_glide_erotb>  (516) 
0.70150695381360995

>  <r_i_glide_esite>  (516) 
-0.085041678384467301

>  <r_i_glide_evdw>  (516) 
-33.135810852050803

>  <r_i_glide_gscore>  (516) 
-3.3377453030727202

>  <r_i_glide_hbond>  (516) 
-0.13499289647905399

>  <r_i_glide_ligand_efficiency>  (516) 
-0.102946622679765

>  <r_i_glide_ligand_efficiency_ln>  (516) 
-0.71974616883074305

>  <r_i_glide_ligand_efficiency_sa>  (516) 
-0.32339452834507398

>  <r_i_glide_lipo>  (516) 
-1.39645498184761

>  <r_i_glide_metal>  (516) 
-0

>  <r_i_glide_rewards>  (516) 
-0.61031140909090797

>  <r_lp_Energy>  (516) 
14.881428

>  <r_qp_ACxDN^.5/SA>  (516) 
0.0098337000000000008

>  <r_qp_CIQPlogS>  (516) 
-7.3029999999999999

>  <r_qp_EA(eV)>  (516) 
0.79400000000000004

>  <r_qp_FISA>  (516) 
138.482

>  <r_qp_FOSA>  (516) 
117.599

>  <r_qp_IP(eV)>  (516) 
7.8410000000000002

>  <r_qp_Jm>  (516) 
0.211837459370738

>  <r_qp_PISA>  (516) 
339.73000000000002

>  <r_qp_PSA>  (516) 
88.335999999999999

>  <r_qp_PercentHumanOralAbsorption>  (516) 
93.102999999999994

>  <r_qp_QPPCaco>  (516) 
121.976

>  <r_qp_QPPMDCK>  (516) 
64.738

>  <r_qp_QPlogBB>  (516) 
-1.024

>  <r_qp_QPlogHERG>  (516) 
-2.7400000000000002

>  <r_qp_QPlogKhsa>  (516) 
0.54100000000000004

>  <r_qp_QPlogKp>  (516) 
-2.1070000000000002

>  <r_qp_QPlogPC16>  (516) 
13.576000000000001

>  <r_qp_QPlogPo/w>  (516) 
4.9219999999999997

>  <r_qp_QPlogPoct>  (516) 
20.385999999999999

>  <r_qp_QPlogPw>  (516) 
10.602

>  <r_qp_QPlogS>  (516) 
-4.181

>  <r_qp_QPpolrz>  (516) 
39.756

>  <r_qp_SASA>  (516) 
595.81100000000004

>  <r_qp_SAamideO>  (516) 
0

>  <r_qp_SAfluorine>  (516) 
0

>  <r_qp_WPSA>  (516) 
0

>  <r_qp_accptHB>  (516) 
3.25

>  <r_qp_dip^2/V>  (516) 
0.029818299999999999

>  <r_qp_dipole>  (516) 
5.968

>  <r_qp_donorHB>  (516) 
3.25

>  <r_qp_glob>  (516) 
0.91377319999999995

>  <r_qp_mol_MW>  (516) 
411.50200000000001

>  <r_qp_volume>  (516) 
1194.463

>  <r_sd_BIOSOLVEIT.INFINISEE\_FTREES\_SIMILARITY>  (516) 
0.90600000000000003

>  <r_sd_BIOSOLVEIT.LOGP>  (516) 
3.4893200000000002

>  <r_sd_BIOSOLVEIT.MOLECULAR\_WEIGHT>  (516) 
410.495

>  <r_sd_BIOSOLVEIT.TPSA>  (516) 
91.069999999999993

>  <i_epik_Tot_Q>  (516) 
-1

>  <i_epik_Tot_abs_Q>  (516) 
1

>  <i_f3d_flags>  (516) 
0

>  <i_i_glide_confnum>  (516) 
5

>  <i_i_glide_lignum>  (516) 
1342

>  <i_i_glide_posenum>  (516) 
6

>  <i_i_glide_rotatable_bonds>  (516) 
7

>  <i_lp_mmshare_version>  (516) 
65135

>  <i_m_ct_format>  (516) 
2

>  <i_m_source_file_index>  (516) 
2817

>  <i_qp_#NandO>  (516) 
5

>  <i_qp_#acid>  (516) 
1

>  <i_qp_#amide>  (516) 
0

>  <i_qp_#amidine>  (516) 
0

>  <i_qp_#amine>  (516) 
0

>  <i_qp_#in34>  (516) 
0

>  <i_qp_#in56>  (516) 
22

>  <i_qp_#metab>  (516) 
5

>  <i_qp_#nonHatm>  (516) 
31

>  <i_qp_#noncon>  (516) 
0

>  <i_qp_#ringatoms>  (516) 
22

>  <i_qp_#rotor>  (516) 
8

>  <i_qp_#rtvFG>  (516) 
0

>  <i_qp_#stars>  (516) 
1

>  <i_qp_CNS>  (516) 
-2

>  <i_qp_HumanOralAbsorption>  (516) 
3

>  <i_qp_RuleOfFive>  (516) 
0

>  <i_qp_RuleOfThree>  (516) 
0

>  <i_sd_BIOSOLVEIT.INFINISEE\_RESULT\_RANK>  (516) 
65340

>  <i_sd_version>  (516) 
0

>  <b_lp_Chiralities_Consistent>  (516) 
1

>  <b_sd_chiral_flag>  (516) 
0

>  <canonical_id>  (516) 
ATP-HTVS-514A7FD93F10

>  <compound_code>  (516) 
90115

>  <title>  (516) 
rxn102b____EMOL723898____EMOL6283223

>  <variant>  (516) 
90115-2

>  <source_file>  (516) 
运行/运行/ATP-VSW/ATP-VSW-DOCK_HTVS_1-003_lib/ATP-VSW-DOCK_HTVS_1-003_lib.mae

>  <canonical_smiles>  (516) 
Cc1ccccc1C[C@H](Nc1nc(N)c(Cc2ccccc2)c2ccccc12)C(=O)[O-]

>  <scaffold>  (516) 
c1ccc(CCNc2ncc(Cc3ccccc3)c3ccccc23)cc1

>  <molecular_formula>  (516) 
C26H24N3O2-

$$$$
ATP-HTVS-515F0CC44DE0
     RDKit          3D

 57 60  0  0  0  0  0  0  0  0999 V2000
  198.3508  182.6358  157.4030 Cl  0  0  0  0  0  0  0  0  0  0  0  0
  196.8770  183.2008  158.1140 C   0  0  0  0  0  0  0  0  0  0  0  0
  196.6332  184.5718  158.4026 C   0  0  0  0  0  0  0  0  0  0  0  0
  195.3875  184.9379  158.9729 C   0  0  0  0  0  0  0  0  0  0  0  0
  194.3983  183.9704  159.2298 C   0  0  0  0  0  0  0  0  0  0  0  0
  194.6483  182.6182  158.9301 C   0  0  0  0  0  0  0  0  0  0  0  0
  195.8852  182.2395  158.3818 C   0  0  0  0  0  0  0  0  0  0  0  0
  197.6642  185.6213  158.1043 C   0  0  0  0  0  0  0  0  0  0  0  0
  198.8605  185.4403  158.3486 O   0  0  0  0  0  0  0  0  0  0  0  0
  197.1886  186.7324  157.5217 N   0  0  0  0  0  0  0  0  0  0  0  0
  197.9987  187.6691  156.8357 C   0  0  0  0  0  0  0  0  0  0  0  0
  198.4589  187.3747  155.5274 C   0  0  0  0  0  0  0  0  0  0  0  0
  198.1241  186.1550  154.9200 N   0  0  0  0  0  0  0  0  0  0  0  0
  198.3840  185.8926  153.5127 C   0  0  1  0  0  0  0  0  0  0  0  0
  197.8037  184.5756  153.0289 C   0  0  0  0  0  0  0  0  0  0  0  0
  197.5472  183.5187  153.9306 C   0  0  0  0  0  0  0  0  0  0  0  0
  196.9997  182.3093  153.4713 C   0  0  0  0  0  0  0  0  0  0  0  0
  196.7173  182.1343  152.1014 C   0  0  0  0  0  0  0  0  0  0  0  0
  196.9728  183.1905  151.2008 C   0  0  0  0  0  0  0  0  0  0  0  0
  197.5266  184.4003  151.6580 C   0  0  0  0  0  0  0  0  0  0  0  0
  196.1958  180.7960  151.5936 C   0  0  1  0  0  0  0  0  0  0  0  0
  197.2307  179.8295  151.2104 N   0  0  0  0  0  0  0  0  0  0  0  0
  198.0687  180.3248  150.1234 C   0  0  2  0  0  0  0  0  0  0  0  0
  198.0570  179.4321  152.3445 C   0  0  2  0  0  0  0  0  0  0  0  0
  199.2417  188.3517  154.8766 C   0  0  0  0  0  0  0  0  0  0  0  0
  199.5555  189.5420  155.4206 N   0  0  0  0  0  0  0  0  0  0  0  0
  199.1139  189.8319  156.6624 C   0  0  0  0  0  0  0  0  0  0  0  0
  198.3183  188.9222  157.4146 C   0  0  0  0  0  0  0  0  0  0  0  0
  197.8755  189.2719  158.7133 C   0  0  0  0  0  0  0  0  0  0  0  0
  198.2356  190.5112  159.2728 C   0  0  0  0  0  0  0  0  0  0  0  0
  199.0286  191.4107  158.5368 C   0  0  0  0  0  0  0  0  0  0  0  0
  199.4599  191.0674  157.2422 C   0  0  0  0  0  0  0  0  0  0  0  0
  195.1729  185.9741  159.2115 H   0  0  0  0  0  0  0  0  0  0  0  0
  193.4491  184.2690  159.6469 H   0  0  0  0  0  0  0  0  0  0  0  0
  193.8983  181.8662  159.1099 H   0  0  0  0  0  0  0  0  0  0  0  0
  196.0749  181.2007  158.1582 H   0  0  0  0  0  0  0  0  0  0  0  0
  196.1898  186.8413  157.4326 H   0  0  0  0  0  0  0  0  0  0  0  0
  197.5180  185.5096  155.4086 H   0  0  0  0  0  0  0  0  0  0  0  0
  197.9539  186.6918  152.9069 H   0  0  0  0  0  0  0  0  0  0  0  0
  199.4614  185.8874  153.3415 H   0  0  0  0  0  0  0  0  0  0  0  0
  197.7898  183.6075  154.9773 H   0  0  0  0  0  0  0  0  0  0  0  0
  196.8232  181.5114  154.1768 H   0  0  0  0  0  0  0  0  0  0  0  0
  196.7738  183.0583  150.1479 H   0  0  0  0  0  0  0  0  0  0  0  0
  197.7519  185.1896  150.9508 H   0  0  0  0  0  0  0  0  0  0  0  0
  195.5560  180.3543  152.3623 H   0  0  0  0  0  0  0  0  0  0  0  0
  195.5502  180.9744  150.7304 H   0  0  0  0  0  0  0  0  0  0  0  0
  198.7930  179.5686  149.8168 H   0  0  0  0  0  0  0  0  0  0  0  0
  198.6301  181.2147  150.4145 H   0  0  0  0  0  0  0  0  0  0  0  0
  197.4567  180.5728  149.2554 H   0  0  0  0  0  0  0  0  0  0  0  0
  198.7725  178.6650  152.0503 H   0  0  0  0  0  0  0  0  0  0  0  0
  197.4396  179.0226  153.1449 H   0  0  0  0  0  0  0  0  0  0  0  0
  198.6254  180.2706  152.7496 H   0  0  0  0  0  0  0  0  0  0  0  0
  199.6029  188.1935  153.8728 H   0  0  0  0  0  0  0  0  0  0  0  0
  197.2723  188.5973  159.3021 H   0  0  0  0  0  0  0  0  0  0  0  0
  197.9253  190.7595  160.2780 H   0  0  0  0  0  0  0  0  0  0  0  0
  199.3319  192.3517  158.9729 H   0  0  0  0  0  0  0  0  0  0  0  0
  200.0795  191.7503  156.6772 H   0  0  0  0  0  0  0  0  0  0  0  0
  1  2  1  0
  2  3  1  0
  2  7  2  0
  3  4  2  0
  3  8  1  0
  4  5  1  0
  4 33  1  0
  5  6  2  0
  5 34  1  0
  6  7  1  0
  6 35  1  0
  7 36  1  0
  8  9  2  0
  8 10  1  0
 10 11  1  0
 10 37  1  0
 11 12  2  0
 11 28  1  0
 12 13  1  0
 12 25  1  0
 13 14  1  0
 13 38  1  0
 14 15  1  0
 14 39  1  6
 14 40  1  0
 15 16  1  0
 15 20  2  0
 16 17  2  0
 16 41  1  0
 17 18  1  0
 17 42  1  0
 18 19  2  0
 18 21  1  0
 19 20  1  0
 19 43  1  0
 20 44  1  0
 21 22  1  0
 21 45  1  1
 21 46  1  0
 22 23  1  0
 22 24  1  0
 23 47  1  6
 23 48  1  0
 23 49  1  0
 24 50  1  6
 24 51  1  0
 24 52  1  0
 25 26  2  0
 25 53  1  0
 26 27  1  0
 27 28  1  0
 27 32  2  0
 28 29  2  0
 29 30  1  0
 29 54  1  0
 30 31  2  0
 30 55  1  0
 31 32  1  0
 31 56  1  0
 32 57  1  0
M  END
>  <s_epik_cmdline>  (517) 
J2VwaWtfcHl0aG9uJywgJy1waCcsICc3LjAwMDAwMCcsICctcGh0JywgJzIuMDAwMDAwJywgJy1tcycsICcxNicsICctdG4nLCAnOCcsICctbWEnLCAnMjAwJywgJy1pbWFlJywgJzxpbmZpbGUubWFlPicsICctb21hZScsICc8b3V0ZmlsZS5tYWU+Jw==

>  <s_epik_input>  (517) 
W2NIXTFbY0hdW2NIXVtjSF1jKGMxQ2wpQyg9TylbTkhdYyhjKGMyMylbY0hdW2NIXVtjSF1bY0hdMyljKFtjSF1uMilbTkhdW0NIMl1jNFtjSF1bY0hdYyhbY0hdW2NIXTQpW0NIMl1OKFtDSDNdKVtDSDNd

>  <s_i_glide_gridfile>  (517) 
ATP-Grid

>  <s_lp_Force_Field>  (517) 
OPLS_2005

>  <s_lp_Variant>  (517) 
rxn502b____EMOL480988____EMOL13728749____EMOL50155899-3

>  <s_lp_label>  (517) 
2192_sdstereoexpander_1_neutralizer_1_epik_3_stereoizer_1

>  <s_m_source_file>  (517) 
ATP-VSW-LIGPREP-001-in.maegz

>  <s_sd_BIOSOLVEIT.INFINISEE\_QUERY\_NAME>  (517) 
Ref-Lig

>  <s_sd_BIOSOLVEIT.INFINISEE\_QUERY\_SMILES>  (517) 
S(c1nc2c(cc1C[NH2+]Cc3ccc(cc3)C[NH+](C)C)cccc2)Cc4ccccc4

>  <s_sd_BIOSOLVEIT.INFINISEE\_REACTION\_NAME>  (517) 
rxn502b

>  <s_sd_BIOSOLVEIT.INFINISEE\_REAGENT1\_NAME>  (517) 
EMOL480988

>  <s_sd_BIOSOLVEIT.INFINISEE\_REAGENT1\_SMILES>  (517) 
Clc1c(cccc1)C(=O)O

>  <s_sd_BIOSOLVEIT.INFINISEE\_REAGENT2\_NAME>  (517) 
EMOL13728749

>  <s_sd_BIOSOLVEIT.INFINISEE\_REAGENT2\_SMILES>  (517) 
Brc1c(N)c2c(nc1)cccc2

>  <s_sd_BIOSOLVEIT.INFINISEE\_REAGENT3\_NAME>  (517) 
EMOL50155899

>  <s_sd_BIOSOLVEIT.INFINISEE\_REAGENT3\_SMILES>  (517) 
N(Cc1ccc(cc1)CN)(C)C

>  <s_sd_BIOSOLVEIT.INFINISEE\_SPACE>  (517) 
eXplore_7tr_2022-12

>  <s_vsw_compound_code>  (517) 
70113

>  <s_vsw_variant>  (517) 
70113-3

>  <r_epik_Charging_Adjusted_Penalty>  (517) 
1.6676485341667899

>  <r_epik_Ionization_Penalty>  (517) 
1.6677

>  <r_epik_Ionization_Penalty_Charging>  (517) 
0

>  <r_epik_Ionization_Penalty_Neutral>  (517) 
1.6677

>  <r_epik_State_Penalty>  (517) 
1.6676

>  <r_i_docking_score>  (517) 
-1.1196438599020899

>  <r_i_glide_ecoul>  (517) 
-1.1182734966278101

>  <r_i_glide_eff_state_penalty>  (517) 
1.6676

>  <r_i_glide_einternal>  (517) 
5.3061060905456499

>  <r_i_glide_emodel>  (517) 
-40.591326002027202

>  <r_i_glide_energy>  (517) 
-36.955118894576998

>  <r_i_glide_erotb>  (517) 
0.70727177587421097

>  <r_i_glide_esite>  (517) 
-0.0034621165221785698

>  <r_i_glide_evdw>  (517) 
-35.836845397949197

>  <r_i_glide_gscore>  (517) 
-2.7872438599020901

>  <r_i_glide_hbond>  (517) 
0

>  <r_i_glide_ligand_efficiency>  (517) 
-0.034988870621940303

>  <r_i_glide_ligand_efficiency_ln>  (517) 
-0.250718780571002

>  <r_i_glide_ligand_efficiency_sa>  (517) 
-0.111082739936567

>  <r_i_glide_lipo>  (517) 
-1.07267071778178

>  <r_i_glide_metal>  (517) 
-0

>  <r_i_glide_rewards>  (517) 
-0.45879950708071099

>  <r_lp_Energy>  (517) 
40.111288000000002

>  <r_qp_ACxDN^.5/SA>  (517) 
0.0118817

>  <r_qp_CIQPlogS>  (517) 
-5.8730000000000002

>  <r_qp_EA(eV)>  (517) 
0.873

>  <r_qp_FISA>  (517) 
57.268000000000001

>  <r_qp_FOSA>  (517) 
207.66200000000001

>  <r_qp_IP(eV)>  (517) 
8.093

>  <r_qp_Jm>  (517) 
0.0052686002228172898

>  <r_qp_PISA>  (517) 
476.59800000000001

>  <r_qp_PSA>  (517) 
58.764000000000003

>  <r_qp_PercentHumanOralAbsorption>  (517) 
100

>  <r_qp_QPPCaco>  (517) 
707.50599999999997

>  <r_qp_QPPMDCK>  (517) 
564.697

>  <r_qp_QPlogBB>  (517) 
-0.0040000000000000001

>  <r_qp_QPlogHERG>  (517) 
-8.0419999999999998

>  <r_qp_QPlogKhsa>  (517) 
0.79700000000000004

>  <r_qp_QPlogKp>  (517) 
-2.2869999999999999

>  <r_qp_QPlogPC16>  (517) 
15.804

>  <r_qp_QPlogPo/w>  (517) 
4.96

>  <r_qp_QPlogPoct>  (517) 
23.571999999999999

>  <r_qp_QPlogPw>  (517) 
13.010999999999999

>  <r_qp_QPlogS>  (517) 
-5.6399999999999997

>  <r_qp_QPpolrz>  (517) 
50.006999999999998

>  <r_qp_SASA>  (517) 
773.65800000000002

>  <r_qp_SAamideO>  (517) 
0

>  <r_qp_SAfluorine>  (517) 
0

>  <r_qp_WPSA>  (517) 
32.130000000000003

>  <r_qp_accptHB>  (517) 
6.5

>  <r_qp_dip^2/V>  (517) 
0.035904699999999998

>  <r_qp_dipole>  (517) 
7.0949999999999998

>  <r_qp_donorHB>  (517) 
2

>  <r_qp_glob>  (517) 
0.78299770000000002

>  <r_qp_mol_MW>  (517) 
444.96300000000002

>  <r_qp_volume>  (517) 
1401.8979999999999

>  <r_sd_BIOSOLVEIT.INFINISEE\_FTREES\_SIMILARITY>  (517) 
0.93400000000000005

>  <r_sd_BIOSOLVEIT.LOGP>  (517) 
4.3971

>  <r_sd_BIOSOLVEIT.MOLECULAR\_WEIGHT>  (517) 
445.971

>  <r_sd_BIOSOLVEIT.TPSA>  (517) 
58.460000000000001

>  <i_epik_Tot_Q>  (517) 
0

>  <i_epik_Tot_abs_Q>  (517) 
0

>  <i_f3d_flags>  (517) 
0

>  <i_i_glide_confnum>  (517) 
6

>  <i_i_glide_lignum>  (517) 
711

>  <i_i_glide_posenum>  (517) 
15

>  <i_i_glide_rotatable_bonds>  (517) 
8

>  <i_lp_mmshare_version>  (517) 
65135

>  <i_m_ct_format>  (517) 
2

>  <i_m_source_file_index>  (517) 
2192

>  <i_qp_#NandO>  (517) 
5

>  <i_qp_#acid>  (517) 
0

>  <i_qp_#amide>  (517) 
0

>  <i_qp_#amidine>  (517) 
0

>  <i_qp_#amine>  (517) 
1

>  <i_qp_#in34>  (517) 
0

>  <i_qp_#in56>  (517) 
22

>  <i_qp_#metab>  (517) 
6

>  <i_qp_#nonHatm>  (517) 
32

>  <i_qp_#noncon>  (517) 
0

>  <i_qp_#ringatoms>  (517) 
22

>  <i_qp_#rotor>  (517) 
7

>  <i_qp_#rtvFG>  (517) 
0

>  <i_qp_#stars>  (517) 
1

>  <i_qp_CNS>  (517) 
1

>  <i_qp_HumanOralAbsorption>  (517) 
3

>  <i_qp_RuleOfFive>  (517) 
0

>  <i_qp_RuleOfThree>  (517) 
0

>  <i_sd_BIOSOLVEIT.INFINISEE\_RESULT\_RANK>  (517) 
2865

>  <i_sd_version>  (517) 
0

>  <b_lp_Chiralities_Consistent>  (517) 
1

>  <b_sd_chiral_flag>  (517) 
0

>  <canonical_id>  (517) 
ATP-HTVS-515F0CC44DE0

>  <compound_code>  (517) 
70113

>  <title>  (517) 
rxn502b____EMOL480988____EMOL13728749____EMOL50155899

>  <variant>  (517) 
70113-3

>  <source_file>  (517) 
运行/运行/ATP-VSW/ATP-VSW-DOCK_HTVS_1-001_lib/ATP-VSW-DOCK_HTVS_1-001_lib

>  <canonical_smiles>  (517) 
CN(C)Cc1ccc(CNc2cnc3ccccc3c2NC(=O)c2ccccc2Cl)cc1

>  <scaffold>  (517) 
O=C(Nc1c(NCc2ccccc2)cnc2ccccc12)c1ccccc1

>  <molecular_formula>  (517) 
C26H25ClN4O

$$$$
ATP-HTVS-51861E5F66D2
     RDKit          3D

 59 62  0  0  0  0  0  0  0  0999 V2000
  198.5413  185.3289  159.1281 N   0  0  0  0  0  0  0  0  0  0  0  0
  197.6152  186.2404  159.4341 C   0  0  0  0  0  0  0  0  0  0  0  0
  196.3089  185.9583  159.4894 N   0  0  0  0  0  0  0  0  0  0  0  0
  195.8764  184.7206  159.1988 C   0  0  0  0  0  0  0  0  0  0  0  0
  196.7907  183.7100  158.8497 C   0  0  0  0  0  0  0  0  0  0  0  0
  198.1538  184.0721  158.8231 C   0  0  0  0  0  0  0  0  0  0  0  0
  199.1303  183.1373  158.4616 N   0  0  0  0  0  0  0  0  0  0  0  0
  200.5402  183.4845  158.3327 C   0  0  1  0  0  0  0  0  0  0  0  0
  201.3868  182.4655  157.5801 C   0  0  0  0  0  0  0  0  0  0  0  0
  200.8316  181.2687  157.0723 C   0  0  0  0  0  0  0  0  0  0  0  0
  201.6356  180.3389  156.3821 C   0  0  0  0  0  0  0  0  0  0  0  0
  203.0045  180.6106  156.1828 C   0  0  0  0  0  0  0  0  0  0  0  0
  203.5638  181.8024  156.6773 C   0  0  0  0  0  0  0  0  0  0  0  0
  202.7606  182.7254  157.3754 C   0  0  0  0  0  0  0  0  0  0  0  0
  201.0229  179.0511  155.8656 C   0  0  1  0  0  0  0  0  0  0  0  0
  200.2988  178.2891  156.9209 N   0  0  2  0  0  0  0  0  0  0  0  0
  201.1319  177.9589  158.1010 C   0  0  2  0  0  0  0  0  0  0  0  0
  199.6320  177.0907  156.3667 C   0  0  2  0  0  0  0  0  0  0  0  0
  196.3054  182.4143  158.5385 C   0  0  0  0  0  0  0  0  0  0  0  0
  194.9191  182.1554  158.5756 C   0  0  0  0  0  0  0  0  0  0  0  0
  194.0197  183.1851  158.9031 C   0  0  0  0  0  0  0  0  0  0  0  0
  194.5010  184.4582  159.2504 C   0  0  0  0  0  0  0  0  0  0  0  0
  198.0335  187.5343  159.6874 N   0  0  0  0  0  0  0  0  0  0  0  0
  197.1408  188.5953  160.1333 C   0  0  1  0  0  0  0  0  0  0  0  0
  197.5965  189.9728  159.7147 C   0  0  0  0  0  0  0  0  0  0  0  0
  198.4425  190.6458  160.5223 N   0  0  0  0  0  0  0  0  0  0  0  0
  198.9138  191.8841  160.2485 C   0  0  0  0  0  0  0  0  0  0  0  0
  198.5152  192.5322  159.0632 C   0  0  0  0  0  0  0  0  0  0  0  0
  197.6288  191.8657  158.1873 C   0  0  0  0  0  0  0  0  0  0  0  0
  197.1691  190.5732  158.5143 C   0  0  0  0  0  0  0  0  0  0  0  0
  198.8348  182.2145  158.1721 H   0  0  0  0  0  0  0  0  0  0  0  0
  200.6258  184.4434  157.8214 H   0  0  0  0  0  0  0  0  0  0  0  0
  200.9565  183.6104  159.3319 H   0  0  0  0  0  0  0  0  0  0  0  0
  199.7891  181.0379  157.2158 H   0  0  0  0  0  0  0  0  0  0  0  0
  203.6302  179.9066  155.6549 H   0  0  0  0  0  0  0  0  0  0  0  0
  204.6122  182.0086  156.5210 H   0  0  0  0  0  0  0  0  0  0  0  0
  203.2030  183.6385  157.7512 H   0  0  0  0  0  0  0  0  0  0  0  0
  200.3288  179.3054  155.0625 H   0  0  0  0  0  0  0  0  0  0  0  0
  201.7953  178.4182  155.4257 H   0  0  0  0  0  0  0  0  0  0  0  0
  201.9532  177.3219  157.8015 H   0  0  0  0  0  0  0  0  0  0  0  0
  200.5474  177.4290  158.8517 H   0  0  0  0  0  0  0  0  0  0  0  0
  201.5357  178.8543  158.5722 H   0  0  0  0  0  0  0  0  0  0  0  0
  200.3560  176.3776  155.9763 H   0  0  0  0  0  0  0  0  0  0  0  0
  198.9402  177.3654  155.5703 H   0  0  0  0  0  0  0  0  0  0  0  0
  199.0657  176.5963  157.1479 H   0  0  0  0  0  0  0  0  0  0  0  0
  196.9633  181.5979  158.2740 H   0  0  0  0  0  0  0  0  0  0  0  0
  194.5506  181.1613  158.3447 H   0  0  0  0  0  0  0  0  0  0  0  0
  192.9538  182.9855  158.9196 H   0  0  0  0  0  0  0  0  0  0  0  0
  193.7995  185.2282  159.5192 H   0  0  0  0  0  0  0  0  0  0  0  0
  199.0350  187.7059  159.6767 H   0  0  0  0  0  0  0  0  0  0  0  0
  196.1500  188.4462  159.7184 H   0  0  0  0  0  0  0  0  0  0  0  0
  197.0375  188.5527  161.2222 H   0  0  0  0  0  0  0  0  0  0  0  0
  199.5879  192.3103  160.9811 H   0  0  0  0  0  0  0  0  0  0  0  0
  198.8775  193.5117  158.8377 H   0  0  0  0  0  0  0  0  0  0  0  0
  197.3060  192.3417  157.2763 H   0  0  0  0  0  0  0  0  0  0  0  0
  196.4976  190.0674  157.8563 H   0  0  0  0  0  0  0  0  0  0  0  0
  195.6290  186.6783  159.7213 H   0  0  0  0  0  0  0  0  0  0  0  0
  199.5526  178.8811  157.2587 H   0  0  0  0  0  0  0  0  0  0  0  0
  198.7550  190.1959  161.4274 H   0  0  0  0  0  0  0  0  0  0  0  0
  1  2  1  0
  1  6  2  0
  2  3  2  0
  2 23  1  0
  3  4  1  0
  3 57  1  0
  4  5  1  0
  4 22  2  0
  5  6  1  0
  5 19  2  0
  6  7  1  0
  7  8  1  0
  7 31  1  0
  8  9  1  0
  8 32  1  6
  8 33  1  0
  9 10  2  0
  9 14  1  0
 10 11  1  0
 10 34  1  0
 11 12  2  0
 11 15  1  0
 12 13  1  0
 12 35  1  0
 13 14  2  0
 13 36  1  0
 14 37  1  0
 15 16  1  0
 15 38  1  6
 15 39  1  0
 16 17  1  0
 16 18  1  0
 16 58  1  1
 17 40  1  6
 17 41  1  0
 17 42  1  0
 18 43  1  6
 18 44  1  0
 18 45  1  0
 19 20  1  0
 19 46  1  0
 20 21  2  0
 20 47  1  0
 21 22  1  0
 21 48  1  0
 22 49  1  0
 23 24  1  0
 23 50  1  0
 24 25  1  0
 24 51  1  6
 24 52  1  0
 25 26  1  0
 25 30  2  0
 26 27  2  0
 26 59  1  0
 27 28  1  0
 27 53  1  0
 28 29  2  0
 28 54  1  0
 29 30  1  0
 29 55  1  0
 30 56  1  0
M  CHG  3   3   1  16   1  26   1
M  END
>  <s_epik_cmdline>  (518) 
J2VwaWtfcHl0aG9uJywgJy1waCcsICc3LjAwMDAwMCcsICctcGh0JywgJzIuMDAwMDAwJywgJy1tcycsICcxNicsICctdG4nLCAnOCcsICctbWEnLCAnMjAwJywgJy1pbWFlJywgJzxpbmZpbGUubWFlPicsICctb21hZScsICc8b3V0ZmlsZS5tYWU+Jw==

>  <s_epik_input>  (518) 
W2NIXTFbY0hdW2NIXVtjSF1uYzFbQ0gyXVtOSF1jKG4yKW5jKGMoYzIzKVtjSF1bY0hdW2NIXVtjSF0zKVtOSF1bQ0gyXWM0W2NIXWMoW2NIXVtjSF1bY0hdNClbQ0gyXU4oW0NIM10pW0NIM10=

>  <s_i_glide_gridfile>  (518) 
ATP-Grid

>  <s_lp_Force_Field>  (518) 
OPLS_2005

>  <s_lp_Variant>  (518) 
m_282030aaa____21930964____22360182____21940090-2

>  <s_lp_label>  (518) 
2124_sdstereoexpander_1_neutralizer_1_epik_2_stereoizer_1

>  <s_m_source_file>  (518) 
ATP-VSW-LIGPREP-002-in.maegz

>  <s_sd_BIOSOLVEIT.INFINISEE\_QUERY\_NAME>  (518) 
Ref-Lig

>  <s_sd_BIOSOLVEIT.INFINISEE\_QUERY\_SMILES>  (518) 
S(c1nc2c(cc1C[NH2+]Cc3ccc(cc3)C[NH+](C)C)cccc2)Cc4ccccc4

>  <s_sd_BIOSOLVEIT.INFINISEE\_REACTION\_NAME>  (518) 
m_282030aaa

>  <s_sd_BIOSOLVEIT.INFINISEE\_REAGENT1\_SMILES>  (518) 
[R1*]NCc1ncccc1

>  <s_sd_BIOSOLVEIT.INFINISEE\_REAGENT2\_SMILES>  (518) 
[R2*]c1nc([R1*])c2c(n1)cccc2

>  <s_sd_BIOSOLVEIT.INFINISEE\_REAGENT3\_SMILES>  (518) 
[R2*]NCc1cc(ccc1)CN(C)C

>  <s_sd_BIOSOLVEIT.INFINISEE\_SPACE>  (518) 
REALSpace_44bn_2023-08

>  <s_vsw_compound_code>  (518) 
67938

>  <s_vsw_variant>  (518) 
67938-2

>  <r_epik_Charging_Adjusted_Penalty>  (518) 
1.8371582289967601

>  <r_epik_Ionization_Penalty>  (518) 
0.85360000000000003

>  <r_epik_Ionization_Penalty_Charging>  (518) 
0.8448

>  <r_epik_Ionization_Penalty_Neutral>  (518) 
0.0088000000000000005

>  <r_epik_State_Penalty>  (518) 
0.99239999999999995

>  <r_i_docking_score>  (518) 
-4.8680569157075402

>  <r_i_glide_ecoul>  (518) 
-17.958574295043899

>  <r_i_glide_eff_state_penalty>  (518) 
0.99239999999999995

>  <r_i_glide_einternal>  (518) 
4.4357995986938503

>  <r_i_glide_emodel>  (518) 
-73.899679242316395

>  <r_i_glide_energy>  (518) 
-46.105541229247997

>  <r_i_glide_erotb>  (518) 
0.85163704729867995

>  <r_i_glide_esite>  (518) 
-0.14605497228418399

>  <r_i_glide_evdw>  (518) 
-28.146966934204102

>  <r_i_glide_gscore>  (518) 
-5.8604569157075401

>  <r_i_glide_hbond>  (518) 
-0.18125828072258901

>  <r_i_glide_ligand_efficiency>  (518) 
-0.16226856385691801

>  <r_i_glide_ligand_efficiency_ln>  (518) 
-1.1060755729771601

>  <r_i_glide_ligand_efficiency_sa>  (518) 
-0.50420615573903005

>  <r_i_glide_lipo>  (518) 
-1.1995883388887201

>  <r_i_glide_metal>  (518) 
-0

>  <r_i_glide_rewards>  (518) 
-1.08405788014393

>  <r_lp_Energy>  (518) 
24.392927

>  <r_qp_ACxDN^.5/SA>  (518) 
0.011321100000000001

>  <r_qp_CIQPlogS>  (518) 
-5.1340000000000003

>  <r_qp_EA(eV)>  (518) 
0.52100000000000002

>  <r_qp_FISA>  (518) 
57.588999999999999

>  <r_qp_FOSA>  (518) 
239.97

>  <r_qp_IP(eV)>  (518) 
7.9249999999999998

>  <r_qp_Jm>  (518) 
0.017051562740285499

>  <r_qp_PISA>  (518) 
451.94999999999999

>  <r_qp_PSA>  (518) 
58.433999999999997

>  <r_qp_PercentHumanOralAbsorption>  (518) 
100

>  <r_qp_QPPCaco>  (518) 
702.553

>  <r_qp_QPPMDCK>  (518) 
373.68700000000001

>  <r_qp_QPlogBB>  (518) 
-0.14199999999999999

>  <r_qp_QPlogHERG>  (518) 
-7.8789999999999996

>  <r_qp_QPlogKhsa>  (518) 
0.69699999999999995

>  <r_qp_QPlogKp>  (518) 
-2.2829999999999999

>  <r_qp_QPlogPC16>  (518) 
14.85

>  <r_qp_QPlogPo/w>  (518) 
4.6479999999999997

>  <r_qp_QPlogPoct>  (518) 
21.472000000000001

>  <r_qp_QPlogPw>  (518) 
12.063000000000001

>  <r_qp_QPlogS>  (518) 
-5.085

>  <r_qp_QPpolrz>  (518) 
46.816000000000003

>  <r_qp_SASA>  (518) 
749.50999999999999

>  <r_qp_SAamideO>  (518) 
0

>  <r_qp_SAfluorine>  (518) 
0

>  <r_qp_WPSA>  (518) 
0

>  <r_qp_accptHB>  (518) 
6

>  <r_qp_dip^2/V>  (518) 
0.0011659999999999999

>  <r_qp_dipole>  (518) 
1.252

>  <r_qp_donorHB>  (518) 
2

>  <r_qp_glob>  (518) 
0.78585260000000001

>  <r_qp_mol_MW>  (518) 
398.50999999999999

>  <r_qp_volume>  (518) 
1344.095

>  <r_sd_BIOSOLVEIT.INFINISEE\_FTREES\_SIMILARITY>  (518) 
0.90100000000000002

>  <r_sd_BIOSOLVEIT.LOGP>  (518) 
2.8935

>  <r_sd_BIOSOLVEIT.MOLECULAR\_WEIGHT>  (518) 
399.51900000000001

>  <r_sd_BIOSOLVEIT.TPSA>  (518) 
67.170000000000002

>  <i_epik_Tot_Q>  (518) 
3

>  <i_epik_Tot_abs_Q>  (518) 
3

>  <i_f3d_flags>  (518) 
0

>  <i_i_glide_confnum>  (518) 
3

>  <i_i_glide_lignum>  (518) 
770

>  <i_i_glide_posenum>  (518) 
16

>  <i_i_glide_rotatable_bonds>  (518) 
8

>  <i_lp_mmshare_version>  (518) 
65135

>  <i_m_ct_format>  (518) 
2

>  <i_m_source_file_index>  (518) 
2124

>  <i_qp_#NandO>  (518) 
6

>  <i_qp_#acid>  (518) 
0

>  <i_qp_#amide>  (518) 
0

>  <i_qp_#amidine>  (518) 
0

>  <i_qp_#amine>  (518) 
1

>  <i_qp_#in34>  (518) 
0

>  <i_qp_#in56>  (518) 
22

>  <i_qp_#metab>  (518) 
6

>  <i_qp_#nonHatm>  (518) 
30

>  <i_qp_#noncon>  (518) 
0

>  <i_qp_#ringatoms>  (518) 
22

>  <i_qp_#rotor>  (518) 
8

>  <i_qp_#rtvFG>  (518) 
0

>  <i_qp_#stars>  (518) 
1

>  <i_qp_CNS>  (518) 
1

>  <i_qp_HumanOralAbsorption>  (518) 
3

>  <i_qp_RuleOfFive>  (518) 
0

>  <i_qp_RuleOfThree>  (518) 
0

>  <i_sd_BIOSOLVEIT.INFINISEE\_REAGENT1\_NAME>  (518) 
21930964

>  <i_sd_BIOSOLVEIT.INFINISEE\_REAGENT2\_NAME>  (518) 
22360182

>  <i_sd_BIOSOLVEIT.INFINISEE\_REAGENT3\_NAME>  (518) 
21940090

>  <i_sd_BIOSOLVEIT.INFINISEE\_RESULT\_RANK>  (518) 
98697

>  <i_sd_version>  (518) 
0

>  <b_lp_Chiralities_Consistent>  (518) 
1

>  <b_sd_chiral_flag>  (518) 
0

>  <canonical_id>  (518) 
ATP-HTVS-51861E5F66D2

>  <compound_code>  (518) 
67938

>  <title>  (518) 
m_282030aaa____21930964____22360182____21940090

>  <variant>  (518) 
67938-2

>  <source_file>  (518) 
运行/运行/ATP-VSW/ATP-VSW-DOCK_HTVS_1-002_lib.maegz

>  <canonical_smiles>  (518) 
C[NH+](C)Cc1cccc(CNc2nc(NCc3cccc[nH+]3)[nH+]c3ccccc23)c1

>  <scaffold>  (518) 
c1ccc(CNc2nc(NCc3cccc[nH+]3)[nH+]c3ccccc23)cc1

>  <molecular_formula>  (518) 
C24H29N6+3

$$$$
ATP-HTVS-518A2BC6902B
     RDKit          3D

 52 54  0  0  0  0  0  0  0  0999 V2000
  198.7493  186.2924  152.1871 Br  0  0  0  0  0  0  0  0  0  0  0  0
  197.9688  184.5618  152.0610 C   0  0  0  0  0  0  0  0  0  0  0  0
  198.2234  183.5971  153.0542 C   0  0  0  0  0  0  0  0  0  0  0  0
  197.6502  182.3055  152.9664 C   0  0  0  0  0  0  0  0  0  0  0  0
  197.9146  181.3348  153.9688 N   0  0  0  0  0  0  0  0  0  0  0  0
  197.3314  180.1078  153.9286 N   0  0  0  0  0  0  0  0  0  0  0  0
  197.7640  179.4317  154.9431 N   0  0  0  0  0  0  0  0  0  0  0  0
  198.6363  180.2226  155.6851 C   0  0  0  0  0  0  0  0  0  0  0  0
  198.7529  181.4346  155.0686 C   0  0  0  0  0  0  0  0  0  0  0  0
  199.3302  179.7176  156.9168 C   0  0  1  0  0  0  0  0  0  0  0  0
  199.9217  178.3722  156.7179 N   0  0  1  0  0  0  0  0  0  0  0  0
  200.9544  178.3307  155.6375 C   0  0  1  0  0  0  0  0  0  0  0  0
  201.2131  176.9220  155.1368 C   0  0  0  0  0  0  0  0  0  0  0  0
  200.7192  176.4838  153.8910 C   0  0  0  0  0  0  0  0  0  0  0  0
  200.9712  175.1626  153.4532 C   0  0  0  0  0  0  0  0  0  0  0  0
  201.6825  174.2651  154.2815 C   0  0  0  0  0  0  0  0  0  0  0  0
  202.1368  174.7048  155.5460 C   0  0  0  0  0  0  0  0  0  0  0  0
  201.9632  176.0315  155.9354 C   0  0  0  0  0  0  0  0  0  0  0  0
  201.9920  172.8391  153.8352 C   0  0  1  0  0  0  0  0  0  0  0  0
  203.4017  172.6803  153.3842 N   0  0  2  0  0  0  0  0  0  0  0  0
  204.4387  173.1194  154.3354 C   0  0  2  0  0  0  0  0  0  0  0  0
  203.6386  173.1745  152.0210 C   0  0  2  0  0  0  0  0  0  0  0  0
  200.3598  177.7858  158.0112 C   0  0  2  0  0  0  0  0  0  0  0  0
  196.8223  181.9977  151.8599 C   0  0  0  0  0  0  0  0  0  0  0  0
  196.5744  182.9632  150.8664 C   0  0  0  0  0  0  0  0  0  0  0  0
  197.1439  184.2445  150.9675 C   0  0  0  0  0  0  0  0  0  0  0  0
  198.8643  183.8694  153.8781 H   0  0  0  0  0  0  0  0  0  0  0  0
  199.3370  182.3096  155.3155 H   0  0  0  0  0  0  0  0  0  0  0  0
  200.1098  180.4126  157.2276 H   0  0  0  0  0  0  0  0  0  0  0  0
  198.6089  179.6793  157.7294 H   0  0  0  0  0  0  0  0  0  0  0  0
  200.6346  178.9118  154.7708 H   0  0  0  0  0  0  0  0  0  0  0  0
  201.8856  178.7932  155.9715 H   0  0  0  0  0  0  0  0  0  0  0  0
  200.1582  177.1554  153.2559 H   0  0  0  0  0  0  0  0  0  0  0  0
  200.6131  174.8478  152.4800 H   0  0  0  0  0  0  0  0  0  0  0  0
  202.6568  174.0278  156.2103 H   0  0  0  0  0  0  0  0  0  0  0  0
  202.3860  176.3632  156.8717 H   0  0  0  0  0  0  0  0  0  0  0  0
  201.7917  172.1604  154.6615 H   0  0  0  0  0  0  0  0  0  0  0  0
  201.3015  172.5569  153.0386 H   0  0  0  0  0  0  0  0  0  0  0  0
  204.4293  174.2073  154.4794 H   0  0  0  0  0  0  0  0  0  0  0  0
  205.4417  172.8534  153.9939 H   0  0  0  0  0  0  0  0  0  0  0  0
  204.2888  172.6440  155.3067 H   0  0  0  0  0  0  0  0  0  0  0  0
  203.5158  174.2592  151.9604 H   0  0  0  0  0  0  0  0  0  0  0  0
  202.9557  172.7188  151.3044 H   0  0  0  0  0  0  0  0  0  0  0  0
  204.6548  172.9405  151.6953 H   0  0  0  0  0  0  0  0  0  0  0  0
  201.2289  178.3204  158.3998 H   0  0  0  0  0  0  0  0  0  0  0  0
  200.6183  176.7307  157.9283 H   0  0  0  0  0  0  0  0  0  0  0  0
  199.5686  177.8611  158.7604 H   0  0  0  0  0  0  0  0  0  0  0  0
  196.3693  181.0229  151.7538 H   0  0  0  0  0  0  0  0  0  0  0  0
  195.9489  182.7192  150.0219 H   0  0  0  0  0  0  0  0  0  0  0  0
  196.9472  184.9848  150.2061 H   0  0  0  0  0  0  0  0  0  0  0  0
  203.5187  171.6344  153.3592 H   0  0  0  0  0  0  0  0  0  0  0  0
  199.1314  177.8188  156.4134 H   0  0  0  0  0  0  0  0  0  0  0  0
  1  2  1  0
  2  3  2  0
  2 26  1  0
  3  4  1  0
  3 27  1  0
  4  5  1  0
  4 24  2  0
  5  6  1  0
  5  9  1  0
  6  7  2  0
  7  8  1  0
  8  9  2  0
  8 10  1  0
  9 28  1  0
 10 11  1  0
 10 29  1  1
 10 30  1  0
 11 12  1  0
 11 23  1  0
 11 52  1  6
 12 13  1  0
 12 31  1  6
 12 32  1  0
 13 14  1  0
 13 18  2  0
 14 15  2  0
 14 33  1  0
 15 16  1  0
 15 34  1  0
 16 17  2  0
 16 19  1  0
 17 18  1  0
 17 35  1  0
 18 36  1  0
 19 20  1  0
 19 37  1  1
 19 38  1  0
 20 21  1  0
 20 22  1  0
 20 51  1  6
 21 39  1  1
 21 40  1  0
 21 41  1  0
 22 42  1  1
 22 43  1  0
 22 44  1  0
 23 45  1  1
 23 46  1  0
 23 47  1  0
 24 25  1  0
 24 48  1  0
 25 26  2  0
 25 49  1  0
 26 50  1  0
M  CHG  2  11   1  20   1
M  END
>  <s_epik_cmdline>  (519) 
J2VwaWtfcHl0aG9uJywgJy1waCcsICc3LjAwMDAwMCcsICctcGh0JywgJzIuMDAwMDAwJywgJy1tcycsICcxNicsICctdG4nLCAnOCcsICctbWEnLCAnMjAwJywgJy1pbWFlJywgJzxpbmZpbGUubWFlPicsICctb21hZScsICc8b3V0ZmlsZS5tYWU+Jw==

>  <s_epik_input>  (519) 
QnJjMVtjSF1jKFtjSF1bY0hdW2NIXTEpLW4ybm5jKFtjSF0yKVtDSDJdTihbQ0gzXSlbQ0gyXWMzW2NIXVtjSF1jKFtjSF1bY0hdMylbQ0gyXU4oW0NIM10pW0NIM10=

>  <s_i_glide_gridfile>  (519) 
ATP-Grid

>  <s_lp_Force_Field>  (519) 
OPLS_2005

>  <s_lp_Variant>  (519) 
m_274952bba____12996510____12611784____19964910-2

>  <s_lp_label>  (519) 
1659_sdstereoexpander_1_neutralizer_1_epik_2_stereoizer_1

>  <s_m_source_file>  (519) 
ATP-VSW-LIGPREP-001-in.maegz

>  <s_sd_BIOSOLVEIT.INFINISEE\_QUERY\_NAME>  (519) 
Ref-Lig

>  <s_sd_BIOSOLVEIT.INFINISEE\_QUERY\_SMILES>  (519) 
S(c1nc2c(cc1C[NH2+]Cc3ccc(cc3)C[NH+](C)C)cccc2)Cc4ccccc4

>  <s_sd_BIOSOLVEIT.INFINISEE\_REACTION\_NAME>  (519) 
m_274952bba

>  <s_sd_BIOSOLVEIT.INFINISEE\_REAGENT1\_SMILES>  (519) 
[R1*]N(Cc1ccc(cc1)CN(C)C)C

>  <s_sd_BIOSOLVEIT.INFINISEE\_REAGENT2\_SMILES>  (519) 
[R2*]C(=C[R3*])C[R1*]

>  <s_sd_BIOSOLVEIT.INFINISEE\_REAGENT3\_SMILES>  (519) 
[R2*]N=NN([R3*])c1cc(Br)ccc1

>  <s_sd_BIOSOLVEIT.INFINISEE\_SPACE>  (519) 
REALSpace_44bn_2023-08

>  <s_vsw_compound_code>  (519) 
53057

>  <s_vsw_variant>  (519) 
53057-2

>  <r_epik_Charging_Adjusted_Penalty>  (519) 
1.3767577133437701

>  <r_epik_Ionization_Penalty>  (519) 
0.69099999999999995

>  <r_epik_Ionization_Penalty_Charging>  (519) 
0.69099999999999995

>  <r_epik_Ionization_Penalty_Neutral>  (519) 
0

>  <r_epik_State_Penalty>  (519) 
0.68579999999999997

>  <r_i_docking_score>  (519) 
-4.5355620125902201

>  <r_i_glide_ecoul>  (519) 
-13.7761878967285

>  <r_i_glide_eff_state_penalty>  (519) 
0.68579999999999997

>  <r_i_glide_einternal>  (519) 
2.63289141654968

>  <r_i_glide_emodel>  (519) 
-62.4803626942508

>  <r_i_glide_energy>  (519) 
-41.941572189331097

>  <r_i_glide_erotb>  (519) 
0.68375359711388495

>  <r_i_glide_esite>  (519) 
-0.28129748596096898

>  <r_i_glide_evdw>  (519) 
-28.1653842926025

>  <r_i_glide_gscore>  (519) 
-5.2213620125902196

>  <r_i_glide_hbond>  (519) 
-0.20241671917224499

>  <r_i_glide_ligand_efficiency>  (519) 
-0.174444692791932

>  <r_i_glide_ligand_efficiency_ln>  (519) 
-1.06516185626399

>  <r_i_glide_ligand_efficiency_sa>  (519) 
-0.51679171598937601

>  <r_i_glide_lipo>  (519) 
-0.92641723270421505

>  <r_i_glide_metal>  (519) 
-0

>  <r_i_glide_rewards>  (519) 
-1.02028677272727

>  <r_lp_Energy>  (519) 
15.971315000000001

>  <r_lp_tautomer_probability>  (519) 
1

>  <r_qp_ACxDN^.5/SA>  (519) 
0

>  <r_qp_CIQPlogS>  (519) 
-4.0119999999999996

>  <r_qp_EA(eV)>  (519) 
0.99299999999999999

>  <r_qp_FISA>  (519) 
41.466000000000001

>  <r_qp_FOSA>  (519) 
308.834

>  <r_qp_IP(eV)>  (519) 
8.9169999999999998

>  <r_qp_Jm>  (519) 
0.0018649012171071801

>  <r_qp_PISA>  (519) 
286.18000000000001

>  <r_qp_PSA>  (519) 
42.261000000000003

>  <r_qp_PercentHumanOralAbsorption>  (519) 
92.337999999999994

>  <r_qp_QPPCaco>  (519) 
249.15799999999999

>  <r_qp_QPPMDCK>  (519) 
357.27699999999999

>  <r_qp_QPlogBB>  (519) 
0.74299999999999999

>  <r_qp_QPlogHERG>  (519) 
-7.7809999999999997

>  <r_qp_QPlogKhsa>  (519) 
0.39800000000000002

>  <r_qp_QPlogKp>  (519) 
-4.8250000000000002

>  <r_qp_QPlogPC16>  (519) 
12.791

>  <r_qp_QPlogPo/w>  (519) 
3.843

>  <r_qp_QPlogPoct>  (519) 
17.414999999999999

>  <r_qp_QPlogPw>  (519) 
8.2789999999999999

>  <r_qp_QPlogS>  (519) 
-3.5219999999999998

>  <r_qp_QPpolrz>  (519) 
42.909999999999997

>  <r_qp_SASA>  (519) 
713.74099999999999

>  <r_qp_SAamideO>  (519) 
0

>  <r_qp_SAfluorine>  (519) 
0

>  <r_qp_WPSA>  (519) 
77.260999999999996

>  <r_qp_accptHB>  (519) 
6

>  <r_qp_dip^2/V>  (519) 
0.0109502

>  <r_qp_dipole>  (519) 
3.706

>  <r_qp_donorHB>  (519) 
0

>  <r_qp_glob>  (519) 
0.78791750000000005

>  <r_qp_mol_MW>  (519) 
414.34699999999998

>  <r_qp_volume>  (519) 
1253.962

>  <r_sd_BIOSOLVEIT.INFINISEE\_FTREES\_SIMILARITY>  (519) 
0.90500000000000003

>  <r_sd_BIOSOLVEIT.LOGP>  (519) 
0.88919999999999999

>  <r_sd_BIOSOLVEIT.MOLECULAR\_WEIGHT>  (519) 
416.36399999999998

>  <r_sd_BIOSOLVEIT.TPSA>  (519) 
39.590000000000003

>  <i_epik_Tot_Q>  (519) 
2

>  <i_epik_Tot_abs_Q>  (519) 
2

>  <i_f3d_flags>  (519) 
0

>  <i_i_glide_confnum>  (519) 
5

>  <i_i_glide_lignum>  (519) 
447

>  <i_i_glide_posenum>  (519) 
14

>  <i_i_glide_rotatable_bonds>  (519) 
7

>  <i_lp_mmshare_version>  (519) 
65135

>  <i_m_ct_format>  (519) 
2

>  <i_m_source_file_index>  (519) 
1659

>  <i_qp_#NandO>  (519) 
5

>  <i_qp_#acid>  (519) 
0

>  <i_qp_#amide>  (519) 
0

>  <i_qp_#amidine>  (519) 
0

>  <i_qp_#amine>  (519) 
2

>  <i_qp_#in34>  (519) 
0

>  <i_qp_#in56>  (519) 
17

>  <i_qp_#metab>  (519) 
5

>  <i_qp_#nonHatm>  (519) 
26

>  <i_qp_#noncon>  (519) 
0

>  <i_qp_#ringatoms>  (519) 
17

>  <i_qp_#rotor>  (519) 
6

>  <i_qp_#rtvFG>  (519) 
0

>  <i_qp_#stars>  (519) 
0

>  <i_qp_CNS>  (519) 
2

>  <i_qp_HumanOralAbsorption>  (519) 
3

>  <i_qp_RuleOfFive>  (519) 
0

>  <i_qp_RuleOfThree>  (519) 
0

>  <i_sd_BIOSOLVEIT.INFINISEE\_REAGENT1\_NAME>  (519) 
12996510

>  <i_sd_BIOSOLVEIT.INFINISEE\_REAGENT2\_NAME>  (519) 
12611784

>  <i_sd_BIOSOLVEIT.INFINISEE\_REAGENT3\_NAME>  (519) 
19964910

>  <i_sd_BIOSOLVEIT.INFINISEE\_RESULT\_RANK>  (519) 
69367

>  <i_sd_version>  (519) 
0

>  <b_lp_Chiralities_Consistent>  (519) 
1

>  <b_sd_chiral_flag>  (519) 
0

>  <canonical_id>  (519) 
ATP-HTVS-518A2BC6902B

>  <compound_code>  (519) 
53057

>  <title>  (519) 
m_274952bba____12996510____12611784____19964910

>  <variant>  (519) 
53057-2

>  <source_file>  (519) 
运行/运行/ATP-VSW/ATP-VSW-DOCK_HTVS_1-001_lib/ATP-VSW-DOCK_HTVS_1-001_lib

>  <canonical_smiles>  (519) 
C[NH+](C)Cc1ccc(C[N@@H+](C)Cc2cn(-c3cccc(Br)c3)nn2)cc1

>  <scaffold>  (519) 
c1ccc(C[NH2+]Cc2cn(-c3ccccc3)nn2)cc1

>  <molecular_formula>  (519) 
C20H26BrN5+2

$$$$
ATP-HTVS-5192BC4864D4
     RDKit          3D

 68 71  0  0  0  0  0  0  0  0999 V2000
  195.5294  183.2611  157.9211 O   0  0  0  0  0  0  0  0  0  0  0  0
  196.6956  183.3151  158.3023 C   0  0  0  0  0  0  0  0  0  0  0  0
  197.7707  182.9418  157.5844 N   0  0  0  0  0  0  0  0  0  0  0  0
  197.8538  182.2914  156.3194 C   0  0  0  0  0  0  0  0  0  0  0  0
  196.7464  181.8400  155.6940 N   0  0  0  0  0  0  0  0  0  0  0  0
  196.8622  181.2111  154.5125 C   0  0  0  0  0  0  0  0  0  0  0  0
  198.0840  181.0079  153.8446 C   0  0  0  0  0  0  0  0  0  0  0  0
  198.1356  180.3986  152.5759 N   0  0  0  0  0  0  0  0  0  0  0  0
  196.9812  179.6903  152.0496 C   0  0  1  0  0  0  0  0  0  0  0  0
  197.2435  179.0914  150.6832 C   0  0  0  0  0  0  0  0  0  0  0  0
  196.4267  179.4388  149.5932 C   0  0  0  0  0  0  0  0  0  0  0  0
  196.6865  178.8794  148.3282 C   0  0  0  0  0  0  0  0  0  0  0  0
  197.7549  177.9720  148.1413 C   0  0  0  0  0  0  0  0  0  0  0  0
  198.5259  177.5823  149.2520 C   0  0  0  0  0  0  0  0  0  0  0  0
  198.2926  178.1667  150.5186 C   0  0  0  0  0  0  0  0  0  0  0  0
  198.0566  177.4325  146.7425 C   0  0  1  0  0  0  0  0  0  0  0  0
  199.2759  178.0303  146.1028 N   0  0  1  0  0  0  0  0  0  0  0  0
  199.1109  179.4653  145.7501 C   0  0  1  0  0  0  0  0  0  0  0  0
  198.2289  179.6708  144.5097 C   0  0  2  0  0  0  0  0  0  0  0  0
  200.5606  177.7739  146.8254 C   0  0  1  0  0  0  0  0  0  0  0  0
  200.8720  176.2615  146.9731 C   0  0  2  0  0  0  0  0  0  0  0  0
  199.2613  181.4614  154.4913 C   0  0  0  0  0  0  0  0  0  0  0  0
  199.1462  182.1155  155.7567 C   0  0  0  0  0  0  0  0  0  0  0  0
  200.3304  182.5616  156.4021 C   0  0  0  0  0  0  0  0  0  0  0  0
  201.5897  182.3712  155.8105 C   0  0  0  0  0  0  0  0  0  0  0  0
  201.6902  181.7312  154.5618 C   0  0  0  0  0  0  0  0  0  0  0  0
  200.5306  181.2787  153.9073 C   0  0  0  0  0  0  0  0  0  0  0  0
  196.9942  183.8482  159.7033 C   0  0  1  0  0  0  0  0  0  0  0  0
  198.2781  183.4420  160.1213 O   0  0  0  0  0  0  0  0  0  0  0  0
  196.8216  185.3615  159.7358 C   0  0  0  0  0  0  0  0  0  0  0  0
  195.7329  185.9238  160.4354 C   0  0  0  0  0  0  0  0  0  0  0  0
  195.5644  187.3223  160.4863 C   0  0  0  0  0  0  0  0  0  0  0  0
  196.4705  188.1623  159.8182 C   0  0  0  0  0  0  0  0  0  0  0  0
  197.5538  187.6126  159.1094 C   0  0  0  0  0  0  0  0  0  0  0  0
  197.7358  186.2146  159.0726 C   0  0  0  0  0  0  0  0  0  0  0  0
  198.6566  183.1093  158.0412 H   0  0  0  0  0  0  0  0  0  0  0  0
  195.9231  180.8921  154.0870 H   0  0  0  0  0  0  0  0  0  0  0  0
  198.9820  180.4192  152.0266 H   0  0  0  0  0  0  0  0  0  0  0  0
  196.7229  178.8646  152.7112 H   0  0  0  0  0  0  0  0  0  0  0  0
  196.1190  180.3540  151.9836 H   0  0  0  0  0  0  0  0  0  0  0  0
  195.6243  180.1489  149.7231 H   0  0  0  0  0  0  0  0  0  0  0  0
  196.0654  179.1594  147.4823 H   0  0  0  0  0  0  0  0  0  0  0  0
  199.3044  176.8391  149.1844 H   0  0  0  0  0  0  0  0  0  0  0  0
  198.9361  177.9049  151.3477 H   0  0  0  0  0  0  0  0  0  0  0  0
  198.1240  176.3481  146.8135 H   0  0  0  0  0  0  0  0  0  0  0  0
  197.1860  177.5971  146.0998 H   0  0  0  0  0  0  0  0  0  0  0  0
  198.7090  180.0270  146.5958 H   0  0  0  0  0  0  0  0  0  0  0  0
  200.0859  179.9100  145.5386 H   0  0  0  0  0  0  0  0  0  0  0  0
  198.1556  180.7297  144.2603 H   0  0  0  0  0  0  0  0  0  0  0  0
  197.2111  179.3085  144.6572 H   0  0  0  0  0  0  0  0  0  0  0  0
  198.6436  179.1542  143.6424 H   0  0  0  0  0  0  0  0  0  0  0  0
  201.3969  178.2098  146.2532 H   0  0  0  0  0  0  0  0  0  0  0  0
  200.5468  178.2898  147.7959 H   0  0  0  0  0  0  0  0  0  0  0  0
  201.7682  176.1107  147.5765 H   0  0  0  0  0  0  0  0  0  0  0  0
  201.0470  175.8036  145.9997 H   0  0  0  0  0  0  0  0  0  0  0  0
  200.0876  175.6779  147.4556 H   0  0  0  0  0  0  0  0  0  0  0  0
  200.3016  183.0566  157.3605 H   0  0  0  0  0  0  0  0  0  0  0  0
  202.4807  182.7131  156.3110 H   0  0  0  0  0  0  0  0  0  0  0  0
  202.6633  181.5815  154.1070 H   0  0  0  0  0  0  0  0  0  0  0  0
  200.6393  180.7808  152.9563 H   0  0  0  0  0  0  0  0  0  0  0  0
  196.2812  183.3932  160.3830 H   0  0  0  0  0  0  0  0  0  0  0  0
  198.2358  182.4952  160.2443 H   0  0  0  0  0  0  0  0  0  0  0  0
  195.0181  185.2826  160.9333 H   0  0  0  0  0  0  0  0  0  0  0  0
  194.7312  187.7462  161.0205 H   0  0  0  0  0  0  0  0  0  0  0  0
  196.3229  189.2310  159.8372 H   0  0  0  0  0  0  0  0  0  0  0  0
  198.2436  188.2597  158.5930 H   0  0  0  0  0  0  0  0  0  0  0  0
  198.5723  185.7971  158.5331 H   0  0  0  0  0  0  0  0  0  0  0  0
  199.3762  177.5683  145.2054 H   0  0  0  0  0  0  0  0  0  0  0  0
  1  2  2  0
  2  3  1  0
  2 28  1  0
  3  4  1  0
  3 36  1  0
  4  5  1  0
  4 23  2  0
  5  6  2  0
  6  7  1  0
  6 37  1  0
  7  8  1  0
  7 22  2  0
  8  9  1  0
  8 38  1  0
  9 10  1  0
  9 39  1  1
  9 40  1  0
 10 11  1  0
 10 15  2  0
 11 12  2  0
 11 41  1  0
 12 13  1  0
 12 42  1  0
 13 14  2  0
 13 16  1  0
 14 15  1  0
 14 43  1  0
 15 44  1  0
 16 17  1  0
 16 45  1  1
 16 46  1  0
 17 18  1  0
 17 20  1  0
 17 68  1  6
 18 19  1  0
 18 47  1  1
 18 48  1  0
 19 49  1  6
 19 50  1  0
 19 51  1  0
 20 21  1  0
 20 52  1  6
 20 53  1  0
 21 54  1  1
 21 55  1  0
 21 56  1  0
 22 23  1  0
 22 27  1  0
 23 24  1  0
 24 25  2  0
 24 57  1  0
 25 26  1  0
 25 58  1  0
 26 27  2  0
 26 59  1  0
 27 60  1  0
 28 29  1  0
 28 30  1  0
 28 61  1  1
 29 62  1  0
 30 31  2  0
 30 35  1  0
 31 32  1  0
 31 63  1  0
 32 33  2  0
 32 64  1  0
 33 34  1  0
 33 65  1  0
 34 35  2  0
 34 66  1  0
 35 67  1  0
M  CHG  1  17   1
M  END
>  <s_epik_cmdline>  (520) 
J2VwaWtfcHl0aG9uJywgJy1waCcsICc3LjAwMDAwMCcsICctcGh0JywgJzIuMDAwMDAwJywgJy1tcycsICcxNicsICctdG4nLCAnOCcsICctbWEnLCAnMjAwJywgJy1pbWFlJywgJzxpbmZpbGUubWFlPicsICctb21hZScsICc8b3V0ZmlsZS5tYWU+Jw==

>  <s_epik_input>  (520) 
W2NIXTFbY0hdW2NIXVtjSF1bY0hdYzFbQ0BIXShbT0hdKUMoPU8pW05IXWMoYyhjMjMpW2NIXVtjSF1bY0hdW2NIXTMpbltjSF1jMltOSF1bQ0gyXWM0W2NIXVtjSF1jKFtjSF1bY0hdNClbQ0gyXU4oW0NIMl1bQ0gzXSlbQ0gyXVtDSDNd

>  <s_i_glide_gridfile>  (520) 
ATP-Grid

>  <s_lp_Force_Field>  (520) 
OPLS_2005

>  <s_lp_Variant>  (520) 
rxn502c____EMOL300009321____EMOL29936549____EMOL2868412-2

>  <s_lp_label>  (520) 
2204_sdstereoexpander_2_neutralizer_1_epik_1_stereoizer_1

>  <s_m_source_file>  (520) 
ATP-VSW-LIGPREP-001-in.maegz

>  <s_sd_BIOSOLVEIT.INFINISEE\_QUERY\_NAME>  (520) 
Ref-Lig

>  <s_sd_BIOSOLVEIT.INFINISEE\_QUERY\_SMILES>  (520) 
S(c1nc2c(cc1C[NH2+]Cc3ccc(cc3)C[NH+](C)C)cccc2)Cc4ccccc4

>  <s_sd_BIOSOLVEIT.INFINISEE\_REACTION\_NAME>  (520) 
rxn502c

>  <s_sd_BIOSOLVEIT.INFINISEE\_REAGENT1\_NAME>  (520) 
EMOL300009321

>  <s_sd_BIOSOLVEIT.INFINISEE\_REAGENT1\_SMILES>  (520) 
O=C(O)C(O)c1ccccc1

>  <s_sd_BIOSOLVEIT.INFINISEE\_REAGENT2\_NAME>  (520) 
EMOL29936549

>  <s_sd_BIOSOLVEIT.INFINISEE\_REAGENT2\_SMILES>  (520) 
Clc1c2c(c(nc1)N)cccc2

>  <s_sd_BIOSOLVEIT.INFINISEE\_REAGENT3\_NAME>  (520) 
EMOL2868412

>  <s_sd_BIOSOLVEIT.INFINISEE\_REAGENT3\_SMILES>  (520) 
N(Cc1ccc(cc1)CN)(CC)CC

>  <s_sd_BIOSOLVEIT.INFINISEE\_SPACE>  (520) 
eXplore_7tr_2022-12

>  <s_vsw_compound_code>  (520) 
70497

>  <s_vsw_variant>  (520) 
70497-2

>  <r_epik_Charging_Adjusted_Penalty>  (520) 
0.130498268995622

>  <r_epik_Ionization_Penalty>  (520) 
0.080600000000000005

>  <r_epik_Ionization_Penalty_Charging>  (520) 
0.015900000000000001

>  <r_epik_Ionization_Penalty_Neutral>  (520) 
0.064699999999999994

>  <r_epik_State_Penalty>  (520) 
0.11459999999999999

>  <r_i_docking_score>  (520) 
-4.5583110180253898

>  <r_i_glide_ecoul>  (520) 
-4.6837677955627397

>  <r_i_glide_eff_state_penalty>  (520) 
0.11459999999999999

>  <r_i_glide_einternal>  (520) 
4.7044196128845197

>  <r_i_glide_emodel>  (520) 
-56.599233723588199

>  <r_i_glide_energy>  (520) 
-41.511896610260003

>  <r_i_glide_erotb>  (520) 
0.732759591757009

>  <r_i_glide_esite>  (520) 
-0.066084356581716602

>  <r_i_glide_evdw>  (520) 
-36.828128814697301

>  <r_i_glide_gscore>  (520) 
-4.6729110180253901

>  <r_i_glide_hbond>  (520) 
-0.24229873129208199

>  <r_i_glide_ligand_efficiency>  (520) 
-0.13023745765786801

>  <r_i_glide_ligand_efficiency_ln>  (520) 
-1.00065043471892

>  <r_i_glide_ligand_efficiency_sa>  (520) 
-0.42601535956438802

>  <r_i_glide_lipo>  (520) 
-2.1210290027484202

>  <r_i_glide_metal>  (520) 
-0

>  <r_i_glide_rewards>  (520) 
-0.432286909090908

>  <r_lp_Energy>  (520) 
37.602061999999997

>  <r_qp_ACxDN^.5/SA>  (520) 
0.016119700000000001

>  <r_qp_CIQPlogS>  (520) 
-5.617

>  <r_qp_EA(eV)>  (520) 
0.86099999999999999

>  <r_qp_FISA>  (520) 
97.643000000000001

>  <r_qp_FOSA>  (520) 
288.97300000000001

>  <r_qp_IP(eV)>  (520) 
7.6859999999999999

>  <r_qp_Jm>  (520) 
0.00117675947483661

>  <r_qp_PISA>  (520) 
494.46699999999998

>  <r_qp_PSA>  (520) 
79.762

>  <r_qp_PercentHumanOralAbsorption>  (520) 
100

>  <r_qp_QPPCaco>  (520) 
292.99099999999999

>  <r_qp_QPPMDCK>  (520) 
145.19900000000001

>  <r_qp_QPlogBB>  (520) 
-0.86699999999999999

>  <r_qp_QPlogHERG>  (520) 
-8.7050000000000001

>  <r_qp_QPlogKhsa>  (520) 
0.71399999999999997

>  <r_qp_QPlogKp>  (520) 
-2.5840000000000001

>  <r_qp_QPlogPC16>  (520) 
18.228000000000002

>  <r_qp_QPlogPo/w>  (520) 
4.8579999999999997

>  <r_qp_QPlogPoct>  (520) 
27.619

>  <r_qp_QPlogPw>  (520) 
15.911

>  <r_qp_QPlogS>  (520) 
-6.016

>  <r_qp_QPpolrz>  (520) 
55.085000000000001

>  <r_qp_SASA>  (520) 
881.08299999999997

>  <r_qp_SAamideO>  (520) 
0

>  <r_qp_SAfluorine>  (520) 
0

>  <r_qp_WPSA>  (520) 
0

>  <r_qp_accptHB>  (520) 
8.1999999999999993

>  <r_qp_dip^2/V>  (520) 
0.042645500000000003

>  <r_qp_dipole>  (520) 
8.2309999999999999

>  <r_qp_donorHB>  (520) 
3

>  <r_qp_glob>  (520) 
0.74732350000000003

>  <r_qp_mol_MW>  (520) 
468.59699999999998

>  <r_qp_volume>  (520) 
1588.6949999999999

>  <r_sd_BIOSOLVEIT.INFINISEE\_FTREES\_SIMILARITY>  (520) 
0.93200000000000005

>  <r_sd_BIOSOLVEIT.LOGP>  (520) 
3.9437000000000002

>  <r_sd_BIOSOLVEIT.MOLECULAR\_WEIGHT>  (520) 
469.60599999999999

>  <r_sd_BIOSOLVEIT.TPSA>  (520) 
78.689999999999998

>  <i_epik_Tot_Q>  (520) 
1

>  <i_epik_Tot_abs_Q>  (520) 
1

>  <i_f3d_flags>  (520) 
0

>  <i_i_glide_confnum>  (520) 
13

>  <i_i_glide_lignum>  (520) 
724

>  <i_i_glide_posenum>  (520) 
2

>  <i_i_glide_rotatable_bonds>  (520) 
12

>  <i_lp_mmshare_version>  (520) 
65135

>  <i_m_ct_format>  (520) 
2

>  <i_m_source_file_index>  (520) 
2204

>  <i_qp_#NandO>  (520) 
6

>  <i_qp_#acid>  (520) 
0

>  <i_qp_#amide>  (520) 
0

>  <i_qp_#amidine>  (520) 
0

>  <i_qp_#amine>  (520) 
1

>  <i_qp_#in34>  (520) 
0

>  <i_qp_#in56>  (520) 
22

>  <i_qp_#metab>  (520) 
9

>  <i_qp_#nonHatm>  (520) 
35

>  <i_qp_#noncon>  (520) 
0

>  <i_qp_#ringatoms>  (520) 
22

>  <i_qp_#rotor>  (520) 
11

>  <i_qp_#rtvFG>  (520) 
0

>  <i_qp_#stars>  (520) 
5

>  <i_qp_CNS>  (520) 
-1

>  <i_qp_HumanOralAbsorption>  (520) 
3

>  <i_qp_RuleOfFive>  (520) 
0

>  <i_qp_RuleOfThree>  (520) 
2

>  <i_sd_BIOSOLVEIT.INFINISEE\_RESULT\_RANK>  (520) 
4066

>  <i_sd_version>  (520) 
0

>  <b_lp_Chiralities_Consistent>  (520) 
1

>  <b_sd_chiral_flag>  (520) 
0

>  <canonical_id>  (520) 
ATP-HTVS-5192BC4864D4

>  <compound_code>  (520) 
70497

>  <title>  (520) 
rxn502c____EMOL300009321____EMOL29936549____EMOL2868412

>  <variant>  (520) 
70497-2

>  <source_file>  (520) 
运行/运行/ATP-VSW/ATP-VSW-DOCK_HTVS_1-001_lib/ATP-VSW-DOCK_HTVS_1-001_lib

>  <canonical_smiles>  (520) 
CC[NH+](CC)Cc1ccc(CNc2cnc(NC(=O)[C@@H](O)c3ccccc3)c3ccccc23)cc1

>  <scaffold>  (520) 
O=C(Cc1ccccc1)Nc1ncc(NCc2ccccc2)c2ccccc12

>  <molecular_formula>  (520) 
C29H33N4O2+

$$$$
ATP-HTVS-51A8EA31A006
     RDKit          3D

 61 64  0  0  0  0  0  0  0  0999 V2000
  196.9014  179.4918  151.4583 O   0  0  0  0  0  0  0  0  0  0  0  0
  198.0194  179.8238  151.9101 C   0  0  0  0  0  0  0  0  0  0  0  0
  198.5667  181.0448  151.6790 N   0  0  0  0  0  0  0  0  0  0  0  0
  197.8300  182.0740  150.9931 C   0  0  0  0  0  0  0  0  0  0  0  0
  198.2303  182.4997  149.7732 N   0  0  0  0  0  0  0  0  0  0  0  0
  197.5614  183.5021  149.1662 C   0  0  0  0  0  0  0  0  0  0  0  0
  196.4581  184.1649  149.7334 C   0  0  0  0  0  0  0  0  0  0  0  0
  196.0395  183.7495  151.0052 C   0  0  0  0  0  0  0  0  0  0  0  0
  196.7122  182.6908  151.6339 C   0  0  0  0  0  0  0  0  0  0  0  0
  200.0096  181.3159  152.0056 C   0  0  2  0  0  0  0  0  0  0  0  0
  198.8361  178.9263  152.7277 C   0  0  0  0  0  0  0  0  0  0  0  0
  199.5415  177.8925  151.9169 C   0  0  0  0  0  0  0  0  0  0  0  0
  199.4880  177.7810  150.6925 O   0  0  0  0  0  0  0  0  0  0  0  0
  200.2998  177.0336  152.6200 N   0  0  0  0  0  0  0  0  0  0  0  0
  200.4650  177.0292  154.0228 C   0  0  0  0  0  0  0  0  0  0  0  0
  199.8013  178.0094  154.8002 C   0  0  0  0  0  0  0  0  0  0  0  0
  199.9514  177.9661  156.2065 C   0  0  0  0  0  0  0  0  0  0  0  0
  200.7636  176.9910  156.8189 C   0  0  0  0  0  0  0  0  0  0  0  0
  201.4313  176.0349  156.0323 C   0  0  0  0  0  0  0  0  0  0  0  0
  201.2817  176.0517  154.6331 C   0  0  0  0  0  0  0  0  0  0  0  0
  198.9764  179.0134  154.0898 C   0  0  0  0  0  0  0  0  0  0  0  0
  198.4282  179.9857  154.9435 N   0  0  0  0  0  0  0  0  0  0  0  0
  198.2879  181.4162  154.6953 C   0  0  1  0  0  0  0  0  0  0  0  0
  197.9010  182.2486  155.8815 C   0  0  0  0  0  0  0  0  0  0  0  0
  196.9538  181.7790  156.7958 C   0  0  0  0  0  0  0  0  0  0  0  0
  196.5422  182.6129  157.8503 C   0  0  0  0  0  0  0  0  0  0  0  0
  197.1232  183.8922  157.9970 C   0  0  0  0  0  0  0  0  0  0  0  0
  198.0992  184.3453  157.0950 C   0  0  0  0  0  0  0  0  0  0  0  0
  198.4820  183.5263  156.0233 C   0  0  0  0  0  0  0  0  0  0  0  0
  195.4594  182.1082  158.7555 C   0  0  1  0  0  0  0  0  0  0  0  0
  194.1324  182.3234  158.1485 N   0  0  2  0  0  0  0  0  0  0  0  0
  193.4954  183.5689  158.6059 C   0  0  2  0  0  0  0  0  0  0  0  0
  193.2443  181.1519  158.2708 C   0  0  2  0  0  0  0  0  0  0  0  0
  197.9090  183.7850  148.1878 H   0  0  0  0  0  0  0  0  0  0  0  0
  195.9464  184.9518  149.2023 H   0  0  0  0  0  0  0  0  0  0  0  0
  195.2027  184.2273  151.4987 H   0  0  0  0  0  0  0  0  0  0  0  0
  196.3454  182.4167  152.6111 H   0  0  0  0  0  0  0  0  0  0  0  0
  200.2476  182.3766  151.7986 H   0  0  0  0  0  0  0  0  0  0  0  0
  200.6608  180.6562  151.4020 H   0  0  0  0  0  0  0  0  0  0  0  0
  200.2734  181.1274  153.0184 H   0  0  0  0  0  0  0  0  0  0  0  0
  200.8186  176.3408  152.0962 H   0  0  0  0  0  0  0  0  0  0  0  0
  199.4480  178.6693  156.8542 H   0  0  0  0  0  0  0  0  0  0  0  0
  200.8711  176.9797  157.8930 H   0  0  0  0  0  0  0  0  0  0  0  0
  202.0552  175.2887  156.5052 H   0  0  0  0  0  0  0  0  0  0  0  0
  201.7941  175.3125  154.0347 H   0  0  0  0  0  0  0  0  0  0  0  0
  198.5289  179.7565  155.9297 H   0  0  0  0  0  0  0  0  0  0  0  0
  199.1826  181.8846  154.3916 H   0  0  0  0  0  0  0  0  0  0  0  0
  197.4718  181.5390  153.9759 H   0  0  0  0  0  0  0  0  0  0  0  0
  196.5446  180.7852  156.6508 H   0  0  0  0  0  0  0  0  0  0  0  0
  196.8094  184.5308  158.8021 H   0  0  0  0  0  0  0  0  0  0  0  0
  198.5427  185.3263  157.1975 H   0  0  0  0  0  0  0  0  0  0  0  0
  199.2127  183.8811  155.3091 H   0  0  0  0  0  0  0  0  0  0  0  0
  195.6535  181.0612  158.9402 H   0  0  0  0  0  0  0  0  0  0  0  0
  195.5529  182.5851  159.7378 H   0  0  0  0  0  0  0  0  0  0  0  0
  193.3433  183.5674  159.6856 H   0  0  0  0  0  0  0  0  0  0  0  0
  192.5203  183.6743  158.1450 H   0  0  0  0  0  0  0  0  0  0  0  0
  194.0981  184.4460  158.3678 H   0  0  0  0  0  0  0  0  0  0  0  0
  193.0416  180.9330  159.3221 H   0  0  0  0  0  0  0  0  0  0  0  0
  193.6918  180.2654  157.8265 H   0  0  0  0  0  0  0  0  0  0  0  0
  192.3007  181.3200  157.7546 H   0  0  0  0  0  0  0  0  0  0  0  0
  194.2458  182.4441  157.1248 H   0  0  0  0  0  0  0  0  0  0  0  0
  1  2  2  0
  2  3  1  0
  2 11  1  0
  3  4  1  0
  3 10  1  0
  4  5  1  0
  4  9  2  0
  5  6  2  0
  6  7  1  0
  6 34  1  0
  7  8  2  0
  7 35  1  0
  8  9  1  0
  8 36  1  0
  9 37  1  0
 10 38  1  6
 10 39  1  0
 10 40  1  0
 11 12  1  0
 11 21  2  0
 12 13  2  0
 12 14  1  0
 14 15  1  0
 14 41  1  0
 15 16  1  0
 15 20  2  0
 16 17  2  0
 16 21  1  0
 17 18  1  0
 17 42  1  0
 18 19  2  0
 18 43  1  0
 19 20  1  0
 19 44  1  0
 20 45  1  0
 21 22  1  0
 22 23  1  0
 22 46  1  0
 23 24  1  0
 23 47  1  6
 23 48  1  0
 24 25  2  0
 24 29  1  0
 25 26  1  0
 25 49  1  0
 26 27  2  0
 26 30  1  0
 27 28  1  0
 27 50  1  0
 28 29  2  0
 28 51  1  0
 29 52  1  0
 30 31  1  0
 30 53  1  1
 30 54  1  0
 31 32  1  0
 31 33  1  0
 31 61  1  6
 32 55  1  1
 32 56  1  0
 32 57  1  0
 33 58  1  1
 33 59  1  0
 33 60  1  0
M  CHG  1  31   1
M  END
>  <s_epik_cmdline>  (521) 
J2VwaWtfcHl0aG9uJywgJy1waCcsICc3LjAwMDAwMCcsICctcGh0JywgJzIuMDAwMDAwJywgJy1tcycsICcxNicsICctdG4nLCAnOCcsICctbWEnLCAnMjAwJywgJy1pbWFlJywgJzxpbmZpbGUubWFlPicsICctb21hZScsICc8b3V0ZmlsZS5tYWU+Jw==

>  <s_epik_input>  (521) 
W2NIXTFbY0hdW2NIXVtjSF1uYzFOKFtDSDNdKUMoPU8pYyhjKD1PKVtuSF0yKWMoYyhjMjMpW2NIXVtjSF1bY0hdW2NIXTMpW05IXVtDSDJdYzRbY0hdYyhbY0hdW2NIXVtjSF00KVtDSDJdTihbQ0gzXSlbQ0gzXQ==

>  <s_i_glide_gridfile>  (521) 
ATP-Grid

>  <s_lp_Force_Field>  (521) 
OPLS_2005

>  <s_lp_Variant>  (521) 
rxn512c____EMOL488509____EMOL43362984____EMOL2873214-1

>  <s_lp_label>  (521) 
2823_sdstereoexpander_1_neutralizer_1_epik_1_stereoizer_1

>  <s_m_source_file>  (521) 
ATP-VSW-LIGPREP-003-in.maegz

>  <s_sd_BIOSOLVEIT.INFINISEE\_QUERY\_NAME>  (521) 
Ref-Lig

>  <s_sd_BIOSOLVEIT.INFINISEE\_QUERY\_SMILES>  (521) 
S(c1nc2c(cc1C[NH2+]Cc3ccc(cc3)C[NH+](C)C)cccc2)Cc4ccccc4

>  <s_sd_BIOSOLVEIT.INFINISEE\_REACTION\_NAME>  (521) 
rxn512c

>  <s_sd_BIOSOLVEIT.INFINISEE\_REAGENT1\_NAME>  (521) 
EMOL488509

>  <s_sd_BIOSOLVEIT.INFINISEE\_REAGENT1\_SMILES>  (521) 
n1c(NC)cccc1

>  <s_sd_BIOSOLVEIT.INFINISEE\_REAGENT2\_NAME>  (521) 
EMOL43362984

>  <s_sd_BIOSOLVEIT.INFINISEE\_REAGENT2\_SMILES>  (521) 
ClC=1c2c(NC(=O)C1C(=O)O)cccc2

>  <s_sd_BIOSOLVEIT.INFINISEE\_REAGENT3\_NAME>  (521) 
EMOL2873214

>  <s_sd_BIOSOLVEIT.INFINISEE\_REAGENT3\_SMILES>  (521) 
N(Cc1cc(ccc1)CN)(C)C

>  <s_sd_BIOSOLVEIT.INFINISEE\_SPACE>  (521) 
eXplore_7tr_2022-12

>  <s_vsw_compound_code>  (521) 
90307

>  <s_vsw_variant>  (521) 
90307-1

>  <r_epik_Charging_Adjusted_Penalty>  (521) 
0.110226356994652

>  <r_epik_Ionization_Penalty>  (521) 
0.066100000000000006

>  <r_epik_Ionization_Penalty_Charging>  (521) 
0.0441

>  <r_epik_Ionization_Penalty_Neutral>  (521) 
0.022100000000000002

>  <r_epik_State_Penalty>  (521) 
0.066100000000000006

>  <r_i_docking_score>  (521) 
-2.0732333351914498

>  <r_i_glide_ecoul>  (521) 
-8.4669923782348597

>  <r_i_glide_eff_state_penalty>  (521) 
0.066100000000000006

>  <r_i_glide_einternal>  (521) 
8.7135601043701207

>  <r_i_glide_emodel>  (521) 
-49.325332908792198

>  <r_i_glide_energy>  (521) 
-45.0631265640259

>  <r_i_glide_erotb>  (521) 
0.71431969347939805

>  <r_i_glide_esite>  (521) 
-0.13363848849426599

>  <r_i_glide_evdw>  (521) 
-36.596134185791001

>  <r_i_glide_gscore>  (521) 
-2.1393333351914499

>  <r_i_glide_hbond>  (521) 
-0.20000000000000001

>  <r_i_glide_ligand_efficiency>  (521) 
-0.062825252581559105

>  <r_i_glide_ligand_efficiency_ln>  (521) 
-0.46107635911887401

>  <r_i_glide_ligand_efficiency_sa>  (521) 
-0.20151415421114499

>  <r_i_glide_lipo>  (521) 
-0.79572579566004698

>  <r_i_glide_metal>  (521) 
-0

>  <r_i_glide_rewards>  (521) 
1.3755668215082399

>  <r_lp_Energy>  (521) 
53.084960000000002

>  <r_qp_ACxDN^.5/SA>  (521) 
0

>  <r_qp_CIQPlogS>  (521) 
-5.2409999999999997

>  <r_qp_EA(eV)>  (521) 
0.77900000000000003

>  <r_qp_FISA>  (521) 
63.670000000000002

>  <r_qp_FOSA>  (521) 
245.524

>  <r_qp_IP(eV)>  (521) 
8.4399999999999995

>  <r_qp_Jm>  (521) 
0.52919137342191702

>  <r_qp_PISA>  (521) 
392.00299999999999

>  <r_qp_PSA>  (521) 
81.447999999999993

>  <r_qp_PercentHumanOralAbsorption>  (521) 
100

>  <r_qp_QPPCaco>  (521) 
615.20299999999997

>  <r_qp_QPPMDCK>  (521) 
323.73000000000002

>  <r_qp_QPlogBB>  (521) 
-0.058000000000000003

>  <r_qp_QPlogHERG>  (521) 
-6.6779999999999999

>  <r_qp_QPlogKhsa>  (521) 
0.23300000000000001

>  <r_qp_QPlogKp>  (521) 
-2.7029999999999998

>  <r_qp_QPlogPC16>  (521) 
13.923

>  <r_qp_QPlogPo/w>  (521) 
3.9399999999999999

>  <r_qp_QPlogPoct>  (521) 
20.608000000000001

>  <r_qp_QPlogPw>  (521) 
10.349

>  <r_qp_QPlogS>  (521) 
-3.2189999999999999

>  <r_qp_QPpolrz>  (521) 
47.113999999999997

>  <r_qp_SASA>  (521) 
701.19799999999998

>  <r_qp_SAamideO>  (521) 
0

>  <r_qp_SAfluorine>  (521) 
0

>  <r_qp_WPSA>  (521) 
0

>  <r_qp_accptHB>  (521) 
7.5

>  <r_qp_dip^2/V>  (521) 
0.067633799999999994

>  <r_qp_dipole>  (521) 
9.5549999999999997

>  <r_qp_donorHB>  (521) 
0

>  <r_qp_glob>  (521) 
0.84237700000000004

>  <r_qp_mol_MW>  (521) 
441.53199999999998

>  <r_qp_volume>  (521) 
1349.8099999999999

>  <r_sd_BIOSOLVEIT.INFINISEE\_FTREES\_SIMILARITY>  (521) 
0.90600000000000003

>  <r_sd_BIOSOLVEIT.LOGP>  (521) 
2.4563000000000001

>  <r_sd_BIOSOLVEIT.MOLECULAR\_WEIGHT>  (521) 
442.54000000000002

>  <r_sd_BIOSOLVEIT.TPSA>  (521) 
82.530000000000001

>  <i_epik_Tot_Q>  (521) 
1

>  <i_epik_Tot_abs_Q>  (521) 
1

>  <i_f3d_flags>  (521) 
0

>  <i_i_glide_confnum>  (521) 
7

>  <i_i_glide_lignum>  (521) 
1345

>  <i_i_glide_posenum>  (521) 
14

>  <i_i_glide_rotatable_bonds>  (521) 
8

>  <i_lp_mmshare_version>  (521) 
65135

>  <i_m_ct_format>  (521) 
2

>  <i_m_source_file_index>  (521) 
2823

>  <i_qp_#NandO>  (521) 
7

>  <i_qp_#acid>  (521) 
0

>  <i_qp_#amide>  (521) 
0

>  <i_qp_#amidine>  (521) 
0

>  <i_qp_#amine>  (521) 
1

>  <i_qp_#in34>  (521) 
0

>  <i_qp_#in56>  (521) 
22

>  <i_qp_#metab>  (521) 
7

>  <i_qp_#nonHatm>  (521) 
33

>  <i_qp_#noncon>  (521) 
0

>  <i_qp_#ringatoms>  (521) 
22

>  <i_qp_#rotor>  (521) 
7

>  <i_qp_#rtvFG>  (521) 
0

>  <i_qp_#stars>  (521) 
0

>  <i_qp_CNS>  (521) 
1

>  <i_qp_HumanOralAbsorption>  (521) 
3

>  <i_qp_RuleOfFive>  (521) 
0

>  <i_qp_RuleOfThree>  (521) 
1

>  <i_sd_BIOSOLVEIT.INFINISEE\_RESULT\_RANK>  (521) 
65840

>  <i_sd_version>  (521) 
0

>  <b_lp_Chiralities_Consistent>  (521) 
1

>  <b_sd_chiral_flag>  (521) 
0

>  <canonical_id>  (521) 
ATP-HTVS-51A8EA31A006

>  <compound_code>  (521) 
90307

>  <title>  (521) 
rxn512c____EMOL488509____EMOL43362984____EMOL2873214

>  <variant>  (521) 
90307-1

>  <source_file>  (521) 
运行/运行/ATP-VSW/ATP-VSW-DOCK_HTVS_1-003_lib/ATP-VSW-DOCK_HTVS_1-003_lib.mae

>  <canonical_smiles>  (521) 
CN(C(=O)c1c(NCc2cccc(C[NH+](C)C)c2)c2ccccc2[nH]c1=O)c1ccccn1

>  <scaffold>  (521) 
O=C(Nc1ccccn1)c1c(NCc2ccccc2)c2ccccc2[nH]c1=O

>  <molecular_formula>  (521) 
C26H28N5O2+

$$$$
ATP-HTVS-51D7DCB6F8E8
     RDKit          3D

 53 56  0  0  0  0  0  0  0  0999 V2000
  203.1559  180.9070  159.9333 F   0  0  0  0  0  0  0  0  0  0  0  0
  202.3836  182.0199  159.8990 C   0  0  0  0  0  0  0  0  0  0  0  0
  201.5088  182.2380  158.8182 C   0  0  0  0  0  0  0  0  0  0  0  0
  200.6607  183.3744  158.7994 C   0  0  0  0  0  0  0  0  0  0  0  0
  200.7734  184.3240  159.8390 C   0  0  0  0  0  0  0  0  0  0  0  0
  201.6660  184.1155  160.9062 C   0  0  0  0  0  0  0  0  0  0  0  0
  202.4646  182.9581  160.9420 C   0  0  0  0  0  0  0  0  0  0  0  0
  199.7276  183.6432  157.6470 C   0  0  0  0  0  0  0  0  0  0  0  0
  199.2930  184.7787  157.4488 O   0  0  0  0  0  0  0  0  0  0  0  0
  199.3709  182.5585  156.9334 N   0  0  0  0  0  0  0  0  0  0  0  0
  198.6057  182.4701  155.7265 C   0  0  0  0  0  0  0  0  0  0  0  0
  198.2895  181.1816  155.2138 C   0  0  0  0  0  0  0  0  0  0  0  0
  198.7849  180.0532  155.9012 N   0  0  0  0  0  0  0  0  0  0  0  0
  199.5919  179.0086  155.4186 C   0  0  0  0  0  0  0  0  0  0  0  0
  200.0037  178.8949  154.0724 C   0  0  0  0  0  0  0  0  0  0  0  0
  200.7474  177.7761  153.6467 C   0  0  0  0  0  0  0  0  0  0  0  0
  201.1803  176.8080  154.5742 C   0  0  0  0  0  0  0  0  0  0  0  0
  201.9502  175.7505  154.0817 N   0  0  0  0  0  0  0  0  0  0  0  0
  202.5988  174.8077  154.9804 C   0  0  1  0  0  0  0  0  0  0  0  0
  202.8620  173.4816  154.2816 C   0  0  1  0  0  0  0  0  0  0  0  0
  203.5289  172.6362  155.1923 O   0  0  0  0  0  0  0  0  0  0  0  0
  200.8193  176.9501  155.9376 C   0  0  0  0  0  0  0  0  0  0  0  0
  200.0132  178.0311  156.3449 C   0  0  0  0  0  0  0  0  0  0  0  0
  197.5130  181.0811  154.0187 C   0  0  0  0  0  0  0  0  0  0  0  0
  197.1539  182.2736  153.3275 C   0  0  0  0  0  0  0  0  0  0  0  0
  197.5133  183.4687  153.8416 N   0  0  0  0  0  0  0  0  0  0  0  0
  198.2011  183.6098  154.9938 C   0  0  0  0  0  0  0  0  0  0  0  0
  196.4407  182.2263  152.1170 C   0  0  0  0  0  0  0  0  0  0  0  0
  196.0918  180.9844  151.5592 C   0  0  0  0  0  0  0  0  0  0  0  0
  196.3990  179.7957  152.2431 C   0  0  0  0  0  0  0  0  0  0  0  0
  197.0742  179.8467  153.4821 C   0  0  0  0  0  0  0  0  0  0  0  0
  201.4881  181.4943  158.0341 H   0  0  0  0  0  0  0  0  0  0  0  0
  200.1597  185.2153  159.8282 H   0  0  0  0  0  0  0  0  0  0  0  0
  201.7314  184.8475  161.6982 H   0  0  0  0  0  0  0  0  0  0  0  0
  203.1438  182.7987  161.7653 H   0  0  0  0  0  0  0  0  0  0  0  0
  199.7466  181.6797  157.2586 H   0  0  0  0  0  0  0  0  0  0  0  0
  198.6448  180.0415  156.9057 H   0  0  0  0  0  0  0  0  0  0  0  0
  199.7422  179.6279  153.3203 H   0  0  0  0  0  0  0  0  0  0  0  0
  200.9837  177.6873  152.5957 H   0  0  0  0  0  0  0  0  0  0  0  0
  202.3057  175.8207  153.1374 H   0  0  0  0  0  0  0  0  0  0  0  0
  203.5280  175.2663  155.3312 H   0  0  0  0  0  0  0  0  0  0  0  0
  201.9917  174.5824  155.8522 H   0  0  0  0  0  0  0  0  0  0  0  0
  201.9197  173.0170  153.9907 H   0  0  0  0  0  0  0  0  0  0  0  0
  203.4843  173.5981  153.3958 H   0  0  0  0  0  0  0  0  0  0  0  0
  203.5306  171.7510  154.8334 H   0  0  0  0  0  0  0  0  0  0  0  0
  201.1294  176.2621  156.7060 H   0  0  0  0  0  0  0  0  0  0  0  0
  199.7115  178.0929  157.3840 H   0  0  0  0  0  0  0  0  0  0  0  0
  198.4204  184.6358  155.2494 H   0  0  0  0  0  0  0  0  0  0  0  0
  196.1622  183.1404  151.6116 H   0  0  0  0  0  0  0  0  0  0  0  0
  195.5604  180.9400  150.6114 H   0  0  0  0  0  0  0  0  0  0  0  0
  196.1174  178.8417  151.8279 H   0  0  0  0  0  0  0  0  0  0  0  0
  197.2616  178.9173  154.0036 H   0  0  0  0  0  0  0  0  0  0  0  0
  197.2422  184.3131  153.3355 H   0  0  0  0  0  0  0  0  0  0  0  0
  1  2  1  0
  2  3  2  0
  2  7  1  0
  3  4  1  0
  3 32  1  0
  4  5  2  0
  4  8  1  0
  5  6  1  0
  5 33  1  0
  6  7  2  0
  6 34  1  0
  7 35  1  0
  8  9  2  0
  8 10  1  0
 10 11  1  0
 10 36  1  0
 11 12  2  0
 11 27  1  0
 12 13  1  0
 12 24  1  0
 13 14  1  0
 13 37  1  0
 14 15  1  0
 14 23  2  0
 15 16  2  0
 15 38  1  0
 16 17  1  0
 16 39  1  0
 17 18  1  0
 17 22  2  0
 18 19  1  0
 18 40  1  0
 19 20  1  0
 19 41  1  1
 19 42  1  0
 20 21  1  0
 20 43  1  6
 20 44  1  0
 21 45  1  0
 22 23  1  0
 22 46  1  0
 23 47  1  0
 24 25  1  0
 24 31  2  0
 25 26  1  0
 25 28  2  0
 26 27  2  0
 26 53  1  0
 27 48  1  0
 28 29  1  0
 28 49  1  0
 29 30  2  0
 29 50  1  0
 30 31  1  0
 30 51  1  0
 31 52  1  0
M  CHG  1  26   1
M  END
>  <s_epik_cmdline>  (522) 
J2VwaWtfcHl0aG9uJywgJy1waCcsICc3LjAwMDAwMCcsICctcGh0JywgJzIuMDAwMDAwJywgJy1tcycsICcxNicsICctdG4nLCAnOCcsICctbWEnLCAnMjAwJywgJy1pbWFlJywgJzxpbmZpbGUubWFlPicsICctb21hZScsICc8b3V0ZmlsZS5tYWU+Jw==

>  <s_epik_input>  (522) 
W2NIXTFbY0hdW2NIXVtjSF1jKGMxMiluW2NIXWMoW05IXUMoPU8pYyhbY0hdYzNGKVtjSF1bY0hdW2NIXTMpYzJbTkhdYzRbY0hdW2NIXWMoW2NIXVtjSF00KVtOSF1bQ0gyXVtDSDJdW09IXQ==

>  <s_i_glide_gridfile>  (522) 
ATP-Grid

>  <s_lp_Force_Field>  (522) 
OPLS_2005

>  <s_lp_Variant>  (522) 
rxn502b____EMOL511643____EMOL30488121____EMOL8314610-2

>  <s_lp_label>  (522) 
2682_sdstereoexpander_1_neutralizer_1_epik_2_stereoizer_1

>  <s_m_source_file>  (522) 
ATP-VSW-LIGPREP-001-in.maegz

>  <s_sd_BIOSOLVEIT.INFINISEE\_QUERY\_NAME>  (522) 
Ref-Lig

>  <s_sd_BIOSOLVEIT.INFINISEE\_QUERY\_SMILES>  (522) 
S(c1nc2c(cc1C[NH2+]Cc3ccc(cc3)C[NH+](C)C)cccc2)Cc4ccccc4

>  <s_sd_BIOSOLVEIT.INFINISEE\_REACTION\_NAME>  (522) 
rxn502b

>  <s_sd_BIOSOLVEIT.INFINISEE\_REAGENT1\_NAME>  (522) 
EMOL511643

>  <s_sd_BIOSOLVEIT.INFINISEE\_REAGENT1\_SMILES>  (522) 
Fc1cc(ccc1)C(=O)O

>  <s_sd_BIOSOLVEIT.INFINISEE\_REAGENT2\_NAME>  (522) 
EMOL30488121

>  <s_sd_BIOSOLVEIT.INFINISEE\_REAGENT2\_SMILES>  (522) 
Brc1c(N)cnc2c1cccc2

>  <s_sd_BIOSOLVEIT.INFINISEE\_REAGENT3\_NAME>  (522) 
EMOL8314610

>  <s_sd_BIOSOLVEIT.INFINISEE\_REAGENT3\_SMILES>  (522) 
OCCNc1ccc(N)cc1

>  <s_sd_BIOSOLVEIT.INFINISEE\_SPACE>  (522) 
eXplore_7tr_2022-12

>  <s_vsw_compound_code>  (522) 
85793

>  <s_vsw_variant>  (522) 
85793-2

>  <r_epik_Charging_Adjusted_Penalty>  (522) 
1.3410464729848599

>  <r_epik_Ionization_Penalty>  (522) 
0.68400000000000005

>  <r_epik_Ionization_Penalty_Charging>  (522) 
0.65710000000000002

>  <r_epik_Ionization_Penalty_Neutral>  (522) 
0.026800000000000001

>  <r_epik_State_Penalty>  (522) 
0.68389999999999995

>  <r_i_docking_score>  (522) 
-3.9712523099921202

>  <r_i_glide_ecoul>  (522) 
-9.4723758697509801

>  <r_i_glide_eff_state_penalty>  (522) 
0.68389999999999995

>  <r_i_glide_einternal>  (522) 
2.0638110637664799

>  <r_i_glide_emodel>  (522) 
-53.591487605551599

>  <r_i_glide_energy>  (522) 
-40.062334060668903

>  <r_i_glide_erotb>  (522) 
0.90734595745804103

>  <r_i_glide_esite>  (522) 
-0.086363641570930794

>  <r_i_glide_evdw>  (522) 
-30.589958190918001

>  <r_i_glide_gscore>  (522) 
-4.6551523099921202

>  <r_i_glide_hbond>  (522) 
-0.16

>  <r_i_glide_ligand_efficiency>  (522) 
-0.12810491322555201

>  <r_i_glide_ligand_efficiency_ln>  (522) 
-0.89563910017039405

>  <r_i_glide_ligand_efficiency_sa>  (522) 
-0.40242629542238501

>  <r_i_glide_lipo>  (522) 
-1.2972680669551999

>  <r_i_glide_metal>  (522) 
-0

>  <r_i_glide_rewards>  (522) 
-1.06851226891548

>  <r_lp_Energy>  (522) 
44.221525

>  <r_qp_ACxDN^.5/SA>  (522) 
0.018226900000000001

>  <r_qp_CIQPlogS>  (522) 
-6.093

>  <r_qp_EA(eV)>  (522) 
1.052

>  <r_qp_FISA>  (522) 
143.27099999999999

>  <r_qp_FOSA>  (522) 
93.480000000000004

>  <r_qp_IP(eV)>  (522) 
7.6900000000000004

>  <r_qp_Jm>  (522) 
0.012213629630198199

>  <r_qp_PISA>  (522) 
454.94099999999997

>  <r_qp_PSA>  (522) 
91.867000000000004

>  <r_qp_PercentHumanOralAbsorption>  (522) 
96.697000000000003

>  <r_qp_QPPCaco>  (522) 
433.77199999999999

>  <r_qp_QPPMDCK>  (522) 
347.13400000000001

>  <r_qp_QPlogBB>  (522) 
-1.3620000000000001

>  <r_qp_QPlogHERG>  (522) 
-7.1820000000000004

>  <r_qp_QPlogKhsa>  (522) 
0.32100000000000001

>  <r_qp_QPlogKp>  (522) 
-1.7889999999999999

>  <r_qp_QPlogPC16>  (522) 
15.263999999999999

>  <r_qp_QPlogPo/w>  (522) 
3.851

>  <r_qp_QPlogPoct>  (522) 
25.530999999999999

>  <r_qp_QPlogPw>  (522) 
16.265999999999998

>  <r_qp_QPlogS>  (522) 
-5.7430000000000003

>  <r_qp_QPpolrz>  (522) 
45.213000000000001

>  <r_qp_SASA>  (522) 
735.17899999999997

>  <r_qp_SAamideO>  (522) 
0

>  <r_qp_SAfluorine>  (522) 
43.487000000000002

>  <r_qp_WPSA>  (522) 
43.487000000000002

>  <r_qp_accptHB>  (522) 
6.7000000000000002

>  <r_qp_dip^2/V>  (522) 
0.0526188

>  <r_qp_dipole>  (522) 
8.2810000000000006

>  <r_qp_donorHB>  (522) 
4

>  <r_qp_glob>  (522) 
0.78488740000000001

>  <r_qp_mol_MW>  (522) 
416.45400000000001

>  <r_qp_volume>  (522) 
1303.326

>  <r_sd_BIOSOLVEIT.INFINISEE\_FTREES\_SIMILARITY>  (522) 
0.90900000000000003

>  <r_sd_BIOSOLVEIT.LOGP>  (522) 
4.774

>  <r_sd_BIOSOLVEIT.MOLECULAR\_WEIGHT>  (522) 
416.45400000000001

>  <r_sd_BIOSOLVEIT.TPSA>  (522) 
86.280000000000001

>  <i_epik_Tot_Q>  (522) 
1

>  <i_epik_Tot_abs_Q>  (522) 
1

>  <i_f3d_flags>  (522) 
0

>  <i_i_glide_confnum>  (522) 
6

>  <i_i_glide_lignum>  (522) 
1186

>  <i_i_glide_posenum>  (522) 
11

>  <i_i_glide_rotatable_bonds>  (522) 
9

>  <i_lp_mmshare_version>  (522) 
65135

>  <i_m_ct_format>  (522) 
2

>  <i_m_source_file_index>  (522) 
2682

>  <i_qp_#NandO>  (522) 
6

>  <i_qp_#acid>  (522) 
0

>  <i_qp_#amide>  (522) 
0

>  <i_qp_#amidine>  (522) 
0

>  <i_qp_#amine>  (522) 
0

>  <i_qp_#in34>  (522) 
0

>  <i_qp_#in56>  (522) 
22

>  <i_qp_#metab>  (522) 
6

>  <i_qp_#nonHatm>  (522) 
31

>  <i_qp_#noncon>  (522) 
0

>  <i_qp_#ringatoms>  (522) 
22

>  <i_qp_#rotor>  (522) 
8

>  <i_qp_#rtvFG>  (522) 
0

>  <i_qp_#stars>  (522) 
2

>  <i_qp_CNS>  (522) 
-2

>  <i_qp_HumanOralAbsorption>  (522) 
3

>  <i_qp_RuleOfFive>  (522) 
0

>  <i_qp_RuleOfThree>  (522) 
1

>  <i_sd_BIOSOLVEIT.INFINISEE\_RESULT\_RANK>  (522) 
50471

>  <i_sd_version>  (522) 
0

>  <b_lp_Chiralities_Consistent>  (522) 
1

>  <b_sd_chiral_flag>  (522) 
0

>  <canonical_id>  (522) 
ATP-HTVS-51D7DCB6F8E8

>  <compound_code>  (522) 
85793

>  <title>  (522) 
rxn502b____EMOL511643____EMOL30488121____EMOL8314610

>  <variant>  (522) 
85793-2

>  <source_file>  (522) 
运行/运行/ATP-VSW/ATP-VSW-DOCK_HTVS_1-001_lib/ATP-VSW-DOCK_HTVS_1-001_lib

>  <canonical_smiles>  (522) 
O=C(Nc1c[nH+]c2ccccc2c1Nc1ccc(NCCO)cc1)c1cccc(F)c1

>  <scaffold>  (522) 
O=C(Nc1c[nH+]c2ccccc2c1Nc1ccccc1)c1ccccc1

>  <molecular_formula>  (522) 
C24H22FN4O2+

$$$$
ATP-HTVS-51FD2328387A
     RDKit          3D

 62 65  0  0  0  0  0  0  0  0999 V2000
  200.6773  177.4117  155.7842 O   0  0  0  0  0  0  0  0  0  0  0  0
  201.1226  176.1923  155.3156 C   0  0  0  0  0  0  0  0  0  0  0  0
  201.9963  175.4616  156.1518 C   0  0  0  0  0  0  0  0  0  0  0  0
  202.5503  174.2336  155.7342 C   0  0  0  0  0  0  0  0  0  0  0  0
  202.2235  173.7103  154.4671 C   0  0  0  0  0  0  0  0  0  0  0  0
  201.3517  174.4280  153.6279 C   0  0  0  0  0  0  0  0  0  0  0  0
  200.8002  175.6547  154.0438 C   0  0  0  0  0  0  0  0  0  0  0  0
  199.6767  178.1280  155.0694 C   0  0  1  0  0  0  0  0  0  0  0  0
  199.7414  179.6100  155.3638 C   0  0  0  0  0  0  0  0  0  0  0  0
  200.5867  180.3602  154.6261 N   0  0  0  0  0  0  0  0  0  0  0  0
  200.7178  181.6921  154.7540 C   0  0  0  0  0  0  0  0  0  0  0  0
  201.6241  182.3695  153.9163 C   0  0  0  0  0  0  0  0  0  0  0  0
  202.3445  181.6858  152.9736 O   0  0  0  0  0  0  0  0  0  0  0  0
  201.7807  183.7637  154.0569 C   0  0  0  0  0  0  0  0  0  0  0  0
  201.0313  184.4582  155.0284 C   0  0  0  0  0  0  0  0  0  0  0  0
  200.1120  183.7755  155.8485 C   0  0  0  0  0  0  0  0  0  0  0  0
  199.9341  182.3788  155.7153 C   0  0  0  0  0  0  0  0  0  0  0  0
  199.0021  181.6402  156.4943 C   0  0  0  0  0  0  0  0  0  0  0  0
  198.1800  182.2762  157.4356 N   0  0  0  0  0  0  0  0  0  0  0  0
  196.7361  182.0842  157.2936 C   0  0  1  0  0  0  0  0  0  0  0  0
  195.9294  182.8415  158.3784 C   0  0  2  0  0  0  0  0  0  0  0  0
  194.4462  182.7719  158.1380 N   0  0  1  0  0  0  0  0  0  0  0  0
  193.8722  181.4219  158.3352 C   0  0  2  0  0  0  0  0  0  0  0  0
  193.6514  183.7919  158.8665 C   0  0  2  0  0  0  0  0  0  0  0  0
  196.4242  184.2813  158.5628 C   0  0  0  0  0  0  0  0  0  0  0  0
  196.7704  185.0806  157.4513 C   0  0  0  0  0  0  0  0  0  0  0  0
  197.1022  186.4331  157.6178 C   0  0  0  0  0  0  0  0  0  0  0  0
  197.0725  187.0104  158.9009 C   0  0  0  0  0  0  0  0  0  0  0  0
  196.7454  186.2176  160.0175 C   0  0  0  0  0  0  0  0  0  0  0  0
  196.4352  184.8563  159.8531 C   0  0  0  0  0  0  0  0  0  0  0  0
  197.3840  188.4798  159.0722 C   0  0  2  0  0  0  0  0  0  0  0  0
  198.9214  180.2396  156.3228 C   0  0  0  0  0  0  0  0  0  0  0  0
  202.2596  175.8517  157.1278 H   0  0  0  0  0  0  0  0  0  0  0  0
  203.2161  173.6832  156.3870 H   0  0  0  0  0  0  0  0  0  0  0  0
  202.6355  172.7613  154.1429 H   0  0  0  0  0  0  0  0  0  0  0  0
  201.1003  174.0395  152.6521 H   0  0  0  0  0  0  0  0  0  0  0  0
  200.1327  176.1422  153.3528 H   0  0  0  0  0  0  0  0  0  0  0  0
  199.7787  178.0843  153.9931 H   0  0  0  0  0  0  0  0  0  0  0  0
  198.6967  177.7300  155.3335 H   0  0  0  0  0  0  0  0  0  0  0  0
  202.4718  184.2963  153.4204 H   0  0  0  0  0  0  0  0  0  0  0  0
  201.1547  185.5239  155.1378 H   0  0  0  0  0  0  0  0  0  0  0  0
  199.5582  184.3365  156.5810 H   0  0  0  0  0  0  0  0  0  0  0  0
  198.4335  183.2280  157.6498 H   0  0  0  0  0  0  0  0  0  0  0  0
  196.4611  182.4244  156.2935 H   0  0  0  0  0  0  0  0  0  0  0  0
  196.4798  181.0326  157.3326 H   0  0  0  0  0  0  0  0  0  0  0  0
  196.1391  182.3331  159.3272 H   0  0  0  0  0  0  0  0  0  0  0  0
  194.0890  181.0336  159.3324 H   0  0  0  0  0  0  0  0  0  0  0  0
  194.2474  180.7254  157.5899 H   0  0  0  0  0  0  0  0  0  0  0  0
  192.7894  181.4490  158.2099 H   0  0  0  0  0  0  0  0  0  0  0  0
  193.8139  183.7114  159.9422 H   0  0  0  0  0  0  0  0  0  0  0  0
  192.5848  183.7008  158.6638 H   0  0  0  0  0  0  0  0  0  0  0  0
  193.9484  184.7979  158.5746 H   0  0  0  0  0  0  0  0  0  0  0  0
  196.7560  184.6738  156.4490 H   0  0  0  0  0  0  0  0  0  0  0  0
  197.3419  187.0308  156.7513 H   0  0  0  0  0  0  0  0  0  0  0  0
  196.6990  186.6600  161.0018 H   0  0  0  0  0  0  0  0  0  0  0  0
  196.1540  184.2659  160.7153 H   0  0  0  0  0  0  0  0  0  0  0  0
  197.6961  188.6978  160.0947 H   0  0  0  0  0  0  0  0  0  0  0  0
  196.5038  189.0808  158.8414 H   0  0  0  0  0  0  0  0  0  0  0  0
  198.1909  188.7754  158.4014 H   0  0  0  0  0  0  0  0  0  0  0  0
  198.2463  179.6432  156.9243 H   0  0  0  0  0  0  0  0  0  0  0  0
  201.1872  179.9532  153.9060 H   0  0  0  0  0  0  0  0  0  0  0  0
  194.2812  182.9595  157.1403 H   0  0  0  0  0  0  0  0  0  0  0  0
  1  2  1  0
  1  8  1  0
  2  3  2  0
  2  7  1  0
  3  4  1  0
  3 33  1  0
  4  5  2  0
  4 34  1  0
  5  6  1  0
  5 35  1  0
  6  7  2  0
  6 36  1  0
  7 37  1  0
  8  9  1  0
  8 38  1  6
  8 39  1  0
  9 10  2  0
  9 32  1  0
 10 11  1  0
 10 61  1  0
 11 12  2  0
 11 17  1  0
 12 13  1  0
 12 14  1  0
 14 15  2  0
 14 40  1  0
 15 16  1  0
 15 41  1  0
 16 17  2  0
 16 42  1  0
 17 18  1  0
 18 19  1  0
 18 32  2  0
 19 20  1  0
 19 43  1  0
 20 21  1  0
 20 44  1  6
 20 45  1  0
 21 22  1  0
 21 25  1  0
 21 46  1  1
 22 23  1  0
 22 24  1  0
 22 62  1  6
 23 47  1  1
 23 48  1  0
 23 49  1  0
 24 50  1  1
 24 51  1  0
 24 52  1  0
 25 26  1  0
 25 30  2  0
 26 27  2  0
 26 53  1  0
 27 28  1  0
 27 54  1  0
 28 29  2  0
 28 31  1  0
 29 30  1  0
 29 55  1  0
 30 56  1  0
 31 57  1  1
 31 58  1  0
 31 59  1  0
 32 60  1  0
M  CHG  3  10   1  13  -1  22   1
M  END
>  <s_epik_cmdline>  (523) 
J2VwaWtfcHl0aG9uJywgJy1waCcsICc3LjAwMDAwMCcsICctcGh0JywgJzIuMDAwMDAwJywgJy1tcycsICcxNicsICctdG4nLCAnOCcsICctbWEnLCAnMjAwJywgJy1pbWFlJywgJzxpbmZpbGUubWFlPicsICctb21hZScsICc8b3V0ZmlsZS5tYWU+Jw==

>  <s_epik_input>  (523) 
W2NIXTFbY0hdW2NIXVtjSF1bY0hdYzFPW0NIMl1jKG4yKVtjSF1jKGMoYzIzKVtjSF1bY0hdW2NIXWMzW09IXSlbTkhdW0NIMl1bQ0BIXShOKFtDSDNdKVtDSDNdKWM0W2NIXVtjSF1jKFtDSDNdKVtjSF1bY0hdNA==

>  <s_i_glide_gridfile>  (523) 
ATP-Grid

>  <s_lp_Force_Field>  (523) 
OPLS_2005

>  <s_lp_Variant>  (523) 
YAS_R004____OTV998841____OTV7113231893____OTV7020410266-5

>  <s_lp_label>  (523) 
17_sdstereoexpander_1_neutralizer_1_epik_3_stereoizer_1

>  <s_m_source_file>  (523) 
ATP-VSW-LIGPREP-003-in.maegz

>  <s_sd_BIOSOLVEIT.INFINISEE\_QUERY\_NAME>  (523) 
Ref-Lig

>  <s_sd_BIOSOLVEIT.INFINISEE\_QUERY\_SMILES>  (523) 
S(c1nc2c(cc1C[NH2+]Cc3ccc(cc3)C[NH+](C)C)cccc2)Cc4ccccc4

>  <s_sd_BIOSOLVEIT.INFINISEE\_REACTION\_NAME>  (523) 
YAS_R004

>  <s_sd_BIOSOLVEIT.INFINISEE\_REAGENT1\_NAME>  (523) 
OTV998841

>  <s_sd_BIOSOLVEIT.INFINISEE\_REAGENT1\_SMILES>  (523) 
Oc1c(N)cccc1

>  <s_sd_BIOSOLVEIT.INFINISEE\_REAGENT2\_NAME>  (523) 
OTV7113231893

>  <s_sd_BIOSOLVEIT.INFINISEE\_REAGENT2\_SMILES>  (523) 
O=C(O)COc1ccccc1

>  <s_sd_BIOSOLVEIT.INFINISEE\_REAGENT3\_NAME>  (523) 
OTV7020410266

>  <s_sd_BIOSOLVEIT.INFINISEE\_REAGENT3\_SMILES>  (523) 
N(C(c1ccc(cc1)C)CN)(C)C

>  <s_sd_BIOSOLVEIT.INFINISEE\_SPACE>  (523) 
CHEMriya_12bn_2022-01

>  <s_vsw_compound_code>  (523) 
515

>  <s_vsw_variant>  (523) 
515-5

>  <r_epik_Charging_Adjusted_Penalty>  (523) 
2.61981024628018

>  <r_epik_Ionization_Penalty>  (523) 
1.296

>  <r_epik_Ionization_Penalty_Charging>  (523) 
1.296

>  <r_epik_Ionization_Penalty_Neutral>  (523) 
0

>  <r_epik_State_Penalty>  (523) 
1.3238000000000001

>  <r_i_docking_score>  (523) 
-3.6691773748348799

>  <r_i_glide_ecoul>  (523) 
-10.629941940307599

>  <r_i_glide_eff_state_penalty>  (523) 
1.3238000000000001

>  <r_i_glide_einternal>  (523) 
4.9500808715820304

>  <r_i_glide_emodel>  (523) 
-59.225407712358603

>  <r_i_glide_energy>  (523) 
-41.643743515014599

>  <r_i_glide_erotb>  (523) 
0.75715341956563198

>  <r_i_glide_esite>  (523) 
-0.121548517466237

>  <r_i_glide_evdw>  (523) 
-31.013801574706999

>  <r_i_glide_gscore>  (523) 
-4.9929773748348802

>  <r_i_glide_hbond>  (523) 
-0.20000000000000001

>  <r_i_glide_ligand_efficiency>  (523) 
-0.11466179296359

>  <r_i_glide_ligand_efficiency_ln>  (523) 
-0.82162883222327199

>  <r_i_glide_ligand_efficiency_sa>  (523) 
-0.36402850112138302

>  <r_i_glide_lipo>  (523) 
-1.7962145435164201

>  <r_i_glide_metal>  (523) 
-0

>  <r_i_glide_rewards>  (523) 
-0.48718636363636197

>  <r_lp_Energy>  (523) 
29.951426999999999

>  <r_lp_tautomer_probability>  (523) 
1

>  <r_qp_ACxDN^.5/SA>  (523) 
0.010859199999999999

>  <r_qp_CIQPlogS>  (523) 
-5.9059999999999997

>  <r_qp_EA(eV)>  (523) 
0.67000000000000004

>  <r_qp_FISA>  (523) 
63.256

>  <r_qp_FOSA>  (523) 
259.91899999999998

>  <r_qp_IP(eV)>  (523) 
8.1379999999999999

>  <r_qp_Jm>  (523) 
0.0420280612025224

>  <r_qp_PISA>  (523) 
393.10000000000002

>  <r_qp_PSA>  (523) 
55.725000000000001

>  <r_qp_PercentHumanOralAbsorption>  (523) 
100

>  <r_qp_QPPCaco>  (523) 
620.78499999999997

>  <r_qp_QPPMDCK>  (523) 
326.90699999999998

>  <r_qp_QPlogBB>  (523) 
-0.193

>  <r_qp_QPlogHERG>  (523) 
-6.8929999999999998

>  <r_qp_QPlogKhsa>  (523) 
0.81899999999999995

>  <r_qp_QPlogKp>  (523) 
-2.4990000000000001

>  <r_qp_QPlogPC16>  (523) 
14.505000000000001

>  <r_qp_QPlogPo/w>  (523) 
4.8769999999999998

>  <r_qp_QPlogPoct>  (523) 
21.251000000000001

>  <r_qp_QPlogPw>  (523) 
10.907999999999999

>  <r_qp_QPlogS>  (523) 
-4.508

>  <r_qp_QPpolrz>  (523) 
46.310000000000002

>  <r_qp_SASA>  (523) 
716.27499999999998

>  <r_qp_SAamideO>  (523) 
0

>  <r_qp_SAfluorine>  (523) 
0

>  <r_qp_WPSA>  (523) 
0

>  <r_qp_accptHB>  (523) 
5.5

>  <r_qp_dip^2/V>  (523) 
0.0102258

>  <r_qp_dipole>  (523) 
3.7309999999999999

>  <r_qp_donorHB>  (523) 
2

>  <r_qp_glob>  (523) 
0.82941969999999998

>  <r_qp_mol_MW>  (523) 
427.54500000000002

>  <r_qp_volume>  (523) 
1361.549

>  <r_sd_BIOSOLVEIT.INFINISEE\_FTREES\_SIMILARITY>  (523) 
0.93200000000000005

>  <r_sd_BIOSOLVEIT.LOGP>  (523) 
4.1255199999999999

>  <r_sd_BIOSOLVEIT.MOLECULAR\_WEIGHT>  (523) 
428.553

>  <r_sd_BIOSOLVEIT.TPSA>  (523) 
58.82

>  <i_epik_Tot_Q>  (523) 
1

>  <i_epik_Tot_abs_Q>  (523) 
3

>  <i_f3d_flags>  (523) 
0

>  <i_i_glide_confnum>  (523) 
2

>  <i_i_glide_lignum>  (523) 
162

>  <i_i_glide_posenum>  (523) 
1

>  <i_i_glide_rotatable_bonds>  (523) 
8

>  <i_lp_mmshare_version>  (523) 
65135

>  <i_m_ct_format>  (523) 
2

>  <i_m_source_file_index>  (523) 
17

>  <i_qp_#NandO>  (523) 
5

>  <i_qp_#acid>  (523) 
0

>  <i_qp_#amide>  (523) 
0

>  <i_qp_#amidine>  (523) 
0

>  <i_qp_#amine>  (523) 
1

>  <i_qp_#in34>  (523) 
0

>  <i_qp_#in56>  (523) 
22

>  <i_qp_#metab>  (523) 
8

>  <i_qp_#nonHatm>  (523) 
32

>  <i_qp_#noncon>  (523) 
0

>  <i_qp_#ringatoms>  (523) 
22

>  <i_qp_#rotor>  (523) 
9

>  <i_qp_#rtvFG>  (523) 
0

>  <i_qp_#stars>  (523) 
0

>  <i_qp_CNS>  (523) 
1

>  <i_qp_HumanOralAbsorption>  (523) 
3

>  <i_qp_RuleOfFive>  (523) 
0

>  <i_qp_RuleOfThree>  (523) 
1

>  <i_sd_BIOSOLVEIT.INFINISEE\_RESULT\_RANK>  (523) 
3607

>  <i_sd_version>  (523) 
0

>  <b_lp_Chiralities_Consistent>  (523) 
1

>  <b_sd_chiral_flag>  (523) 
0

>  <canonical_id>  (523) 
ATP-HTVS-51FD2328387A

>  <compound_code>  (523) 
515

>  <title>  (523) 
YAS_R004____OTV998841____OTV7113231893____OTV7020410266

>  <variant>  (523) 
515-5

>  <source_file>  (523) 
运行/运行/ATP-VSW/ATP-VSW-DOCK_HTVS_1-003_lib/ATP-VSW-DOCK_HTVS_1-003_lib.mae

>  <canonical_smiles>  (523) 
Cc1ccc([C@H](CNc2cc(COc3ccccc3)[nH+]c3c([O-])cccc23)[NH+](C)C)cc1

>  <scaffold>  (523) 
c1ccc(CCNc2cc(COc3ccccc3)[nH+]c3ccccc23)cc1

>  <molecular_formula>  (523) 
C27H30N3O2+

$$$$
ATP-HTVS-523F9B5BEE3B
     RDKit          3D

 66 69  0  0  0  0  0  0  0  0999 V2000
  199.3952  184.0481  153.7829 O   0  0  0  0  0  0  0  0  0  0  0  0
  198.2906  184.3760  153.3510 C   0  0  0  0  0  0  0  0  0  0  0  0
  197.1963  183.5995  153.4815 N   0  0  0  0  0  0  0  0  0  0  0  0
  197.2276  182.1969  153.7072 C   0  0  0  0  0  0  0  0  0  0  0  0
  197.1835  181.6814  155.0232 C   0  0  0  0  0  0  0  0  0  0  0  0
  197.1341  182.5447  156.1339 N   0  0  0  0  0  0  0  0  0  0  0  0
  196.6808  182.0215  157.4230 C   0  0  1  0  0  0  0  0  0  0  0  0
  196.0280  183.0654  158.3074 C   0  0  0  0  0  0  0  0  0  0  0  0
  196.7924  184.0982  158.8790 C   0  0  0  0  0  0  0  0  0  0  0  0
  196.1696  185.0914  159.6640 C   0  0  0  0  0  0  0  0  0  0  0  0
  194.7794  185.0279  159.8967 C   0  0  0  0  0  0  0  0  0  0  0  0
  194.0208  183.9848  159.3339 C   0  0  0  0  0  0  0  0  0  0  0  0
  194.6410  183.0078  158.5375 C   0  0  0  0  0  0  0  0  0  0  0  0
  196.9875  186.2439  160.2202 C   0  0  1  0  0  0  0  0  0  0  0  0
  196.9039  187.4604  159.3706 N   0  0  1  0  0  0  0  0  0  0  0  0
  197.5769  188.6296  159.9882 C   0  0  2  0  0  0  0  0  0  0  0  0
  197.3693  187.2385  157.9784 C   0  0  2  0  0  0  0  0  0  0  0  0
  197.1701  180.2793  155.1582 C   0  0  0  0  0  0  0  0  0  0  0  0
  197.1639  179.4339  154.1127 N   0  0  0  0  0  0  0  0  0  0  0  0
  197.1841  179.9010  152.8517 C   0  0  0  0  0  0  0  0  0  0  0  0
  197.2386  181.2953  152.6037 C   0  0  0  0  0  0  0  0  0  0  0  0
  197.3329  181.7737  151.2664 C   0  0  0  0  0  0  0  0  0  0  0  0
  197.3042  180.8578  150.1839 C   0  0  0  0  0  0  0  0  0  0  0  0
  197.2334  179.4696  150.4100 C   0  0  0  0  0  0  0  0  0  0  0  0
  197.1835  179.0146  151.7431 C   0  0  0  0  0  0  0  0  0  0  0  0
  198.1012  185.7397  152.6679 C   0  0  1  0  0  0  0  0  0  0  0  0
  198.1318  185.5825  151.1504 C   0  0  0  0  0  0  0  0  0  0  0  0
  197.1052  184.8993  150.4791 C   0  0  0  0  0  0  0  0  0  0  0  0
  197.1488  184.6727  149.0965 C   0  0  0  0  0  0  0  0  0  0  0  0
  198.2333  185.1606  148.3443 C   0  0  0  0  0  0  0  0  0  0  0  0
  199.2788  185.8463  149.0127 C   0  0  0  0  0  0  0  0  0  0  0  0
  199.2288  186.0504  150.4069 C   0  0  0  0  0  0  0  0  0  0  0  0
  198.2479  184.9797  146.8631 C   0  0  0  0  0  0  0  0  0  0  0  0
  197.3478  184.4226  146.2308 O   0  0  0  0  0  0  0  0  0  0  0  0
  199.4351  185.5679  146.1072 C   0  0  2  0  0  0  0  0  0  0  0  0
  196.2917  183.9882  153.2473 H   0  0  0  0  0  0  0  0  0  0  0  0
  196.9874  183.5248  155.9582 H   0  0  0  0  0  0  0  0  0  0  0  0
  195.9507  181.2281  157.2681 H   0  0  0  0  0  0  0  0  0  0  0  0
  197.5307  181.5826  157.9520 H   0  0  0  0  0  0  0  0  0  0  0  0
  197.8527  184.1350  158.6832 H   0  0  0  0  0  0  0  0  0  0  0  0
  194.2777  185.7896  160.4802 H   0  0  0  0  0  0  0  0  0  0  0  0
  192.9528  183.9449  159.4902 H   0  0  0  0  0  0  0  0  0  0  0  0
  194.0497  182.2199  158.0880 H   0  0  0  0  0  0  0  0  0  0  0  0
  196.6330  186.4703  161.2276 H   0  0  0  0  0  0  0  0  0  0  0  0
  198.0279  185.9320  160.3123 H   0  0  0  0  0  0  0  0  0  0  0  0
  198.6407  188.4460  160.1393 H   0  0  0  0  0  0  0  0  0  0  0  0
  197.1366  188.8785  160.9539 H   0  0  0  0  0  0  0  0  0  0  0  0
  197.4819  189.5056  159.3466 H   0  0  0  0  0  0  0  0  0  0  0  0
  198.4307  186.9832  157.9633 H   0  0  0  0  0  0  0  0  0  0  0  0
  197.2162  188.1285  157.3670 H   0  0  0  0  0  0  0  0  0  0  0  0
  196.8224  186.4359  157.4825 H   0  0  0  0  0  0  0  0  0  0  0  0
  197.1555  179.7714  156.1211 H   0  0  0  0  0  0  0  0  0  0  0  0
  197.4913  182.8265  151.0721 H   0  0  0  0  0  0  0  0  0  0  0  0
  197.3904  181.2574  149.1806 H   0  0  0  0  0  0  0  0  0  0  0  0
  197.2651  178.7922  149.5720 H   0  0  0  0  0  0  0  0  0  0  0  0
  197.1717  177.9582  151.9281 H   0  0  0  0  0  0  0  0  0  0  0  0
  197.1501  186.1700  152.9666 H   0  0  0  0  0  0  0  0  0  0  0  0
  198.8875  186.4295  153.0025 H   0  0  0  0  0  0  0  0  0  0  0  0
  196.2366  184.5637  151.0336 H   0  0  0  0  0  0  0  0  0  0  0  0
  196.3702  184.0903  148.6271 H   0  0  0  0  0  0  0  0  0  0  0  0
  200.1196  186.2628  148.4838 H   0  0  0  0  0  0  0  0  0  0  0  0
  200.0582  186.5614  150.9010 H   0  0  0  0  0  0  0  0  0  0  0  0
  200.3605  185.1203  146.4655 H   0  0  0  0  0  0  0  0  0  0  0  0
  199.4829  186.6432  146.2744 H   0  0  0  0  0  0  0  0  0  0  0  0
  199.3466  185.3865  145.0410 H   0  0  0  0  0  0  0  0  0  0  0  0
  195.9233  187.6958  159.3142 H   0  0  0  0  0  0  0  0  0  0  0  0
  1  2  2  0
  2  3  1  0
  2 26  1  0
  3  4  1  0
  3 36  1  0
  4  5  2  0
  4 21  1  0
  5  6  1  0
  5 18  1  0
  6  7  1  0
  6 37  1  0
  7  8  1  0
  7 38  1  6
  7 39  1  0
  8  9  2  0
  8 13  1  0
  9 10  1  0
  9 40  1  0
 10 11  2  0
 10 14  1  0
 11 12  1  0
 11 41  1  0
 12 13  2  0
 12 42  1  0
 13 43  1  0
 14 15  1  0
 14 44  1  1
 14 45  1  0
 15 16  1  0
 15 17  1  0
 15 66  1  6
 16 46  1  1
 16 47  1  0
 16 48  1  0
 17 49  1  1
 17 50  1  0
 17 51  1  0
 18 19  2  0
 18 52  1  0
 19 20  1  0
 20 21  1  0
 20 25  2  0
 21 22  2  0
 22 23  1  0
 22 53  1  0
 23 24  2  0
 23 54  1  0
 24 25  1  0
 24 55  1  0
 25 56  1  0
 26 27  1  0
 26 57  1  6
 26 58  1  0
 27 28  1  0
 27 32  2  0
 28 29  2  0
 28 59  1  0
 29 30  1  0
 29 60  1  0
 30 31  2  0
 30 33  1  0
 31 32  1  0
 31 61  1  0
 32 62  1  0
 33 34  2  0
 33 35  1  0
 35 63  1  1
 35 64  1  0
 35 65  1  0
M  CHG  1  15   1
M  END
>  <s_epik_cmdline>  (524) 
J2VwaWtfcHl0aG9uJywgJy1waCcsICc3LjAwMDAwMCcsICctcGh0JywgJzIuMDAwMDAwJywgJy1tcycsICcxNicsICctdG4nLCAnOCcsICctbWEnLCAnMjAwJywgJy1pbWFlJywgJzxpbmZpbGUubWFlPicsICctb21hZScsICc8b3V0ZmlsZS5tYWU+Jw==

>  <s_epik_input>  (524) 
W2NIXTFbY0hdYyhDKD1PKVtDSDNdKVtjSF1bY0hdYzFbQ0gyXUMoPU8pW05IXWMoYyhjMjMpW2NIXVtjSF1bY0hdW2NIXTMpYyhbY0hdbjIpW05IXVtDSDJdYzRbY0hdYyhbY0hdW2NIXVtjSF00KVtDSDJdTihbQ0gzXSlbQ0gzXQ==

>  <s_i_glide_gridfile>  (524) 
ATP-Grid

>  <s_lp_Force_Field>  (524) 
OPLS_2005

>  <s_lp_Variant>  (524) 
rxn502b____EMOL20754534____EMOL13728749____EMOL2873214-1

>  <s_lp_label>  (524) 
2279_sdstereoexpander_1_neutralizer_1_epik_1_stereoizer_1

>  <s_m_source_file>  (524) 
ATP-VSW-LIGPREP-003-in.maegz

>  <s_sd_BIOSOLVEIT.INFINISEE\_QUERY\_NAME>  (524) 
Ref-Lig

>  <s_sd_BIOSOLVEIT.INFINISEE\_QUERY\_SMILES>  (524) 
S(c1nc2c(cc1C[NH2+]Cc3ccc(cc3)C[NH+](C)C)cccc2)Cc4ccccc4

>  <s_sd_BIOSOLVEIT.INFINISEE\_REACTION\_NAME>  (524) 
rxn502b

>  <s_sd_BIOSOLVEIT.INFINISEE\_REAGENT1\_NAME>  (524) 
EMOL20754534

>  <s_sd_BIOSOLVEIT.INFINISEE\_REAGENT1\_SMILES>  (524) 
O=C(O)Cc1ccc(cc1)C(=O)C

>  <s_sd_BIOSOLVEIT.INFINISEE\_REAGENT2\_NAME>  (524) 
EMOL13728749

>  <s_sd_BIOSOLVEIT.INFINISEE\_REAGENT2\_SMILES>  (524) 
Brc1c(N)c2c(nc1)cccc2

>  <s_sd_BIOSOLVEIT.INFINISEE\_REAGENT3\_NAME>  (524) 
EMOL2873214

>  <s_sd_BIOSOLVEIT.INFINISEE\_REAGENT3\_SMILES>  (524) 
N(Cc1cc(ccc1)CN)(C)C

>  <s_sd_BIOSOLVEIT.INFINISEE\_SPACE>  (524) 
eXplore_7tr_2022-12

>  <s_vsw_compound_code>  (524) 
72899

>  <s_vsw_variant>  (524) 
72899-1

>  <r_epik_Charging_Adjusted_Penalty>  (524) 
0.107032603248838

>  <r_epik_Ionization_Penalty>  (524) 
0.062899999999999998

>  <r_epik_Ionization_Penalty_Charging>  (524) 
0.0441

>  <r_epik_Ionization_Penalty_Neutral>  (524) 
0.018800000000000001

>  <r_epik_State_Penalty>  (524) 
0.062899999999999998

>  <r_i_docking_score>  (524) 
-4.9808663462541496

>  <r_i_glide_ecoul>  (524) 
-4.6412978172302202

>  <r_i_glide_eff_state_penalty>  (524) 
0.062899999999999998

>  <r_i_glide_einternal>  (524) 
4.7058634757995597

>  <r_i_glide_emodel>  (524) 
-62.811890261809602

>  <r_i_glide_energy>  (524) 
-46.974416255950899

>  <r_i_glide_erotb>  (524) 
0.738532489157951

>  <r_i_glide_esite>  (524) 
-0.071324080412800195

>  <r_i_glide_evdw>  (524) 
-42.333118438720703

>  <r_i_glide_gscore>  (524) 
-5.0437663462541504

>  <r_i_glide_hbond>  (524) 
-0.046098143012779098

>  <r_i_glide_ligand_efficiency>  (524) 
-0.142310467035833

>  <r_i_glide_ligand_efficiency_ln>  (524) 
-1.0934107073753701

>  <r_i_glide_ligand_efficiency_sa>  (524) 
-0.46550697375643701

>  <r_i_glide_lipo>  (524) 
-2.34701261495292

>  <r_i_glide_metal>  (524) 
-0

>  <r_i_glide_rewards>  (524) 
-0.50501340251304105

>  <r_lp_Energy>  (524) 
30.476821999999999

>  <r_lp_tautomer_probability>  (524) 
0.99995000000000001

>  <r_qp_ACxDN^.5/SA>  (524) 
0.017683999999999998

>  <r_qp_CIQPlogS>  (524) 
-5.5300000000000002

>  <r_qp_EA(eV)>  (524) 
0.85399999999999998

>  <r_qp_FISA>  (524) 
88.228999999999999

>  <r_qp_FOSA>  (524) 
249.18199999999999

>  <r_qp_IP(eV)>  (524) 
8.3230000000000004

>  <r_qp_Jm>  (524) 
0.400925091701824

>  <r_qp_PISA>  (524) 
342.34399999999999

>  <r_qp_PSA>  (524) 
91.049999999999997

>  <r_qp_PercentHumanOralAbsorption>  (524) 
95.543999999999997

>  <r_qp_QPPCaco>  (524) 
359.84899999999999

>  <r_qp_QPPMDCK>  (524) 
181.321

>  <r_qp_QPlogBB>  (524) 
-0.30499999999999999

>  <r_qp_QPlogHERG>  (524) 
-5.492

>  <r_qp_QPlogKhsa>  (524) 
0.497

>  <r_qp_QPlogKp>  (524) 
-3.1379999999999999

>  <r_qp_QPlogPC16>  (524) 
14.834

>  <r_qp_QPlogPo/w>  (524) 
3.9020000000000001

>  <r_qp_QPlogPoct>  (524) 
24.039999999999999

>  <r_qp_QPlogPw>  (524) 
13.6

>  <r_qp_QPlogS>  (524) 
-2.9279999999999999

>  <r_qp_QPpolrz>  (524) 
48.378

>  <r_qp_SASA>  (524) 
679.755

>  <r_qp_SAamideO>  (524) 
0

>  <r_qp_SAfluorine>  (524) 
0

>  <r_qp_WPSA>  (524) 
0

>  <r_qp_accptHB>  (524) 
8.5

>  <r_qp_dip^2/V>  (524) 
0.016414399999999999

>  <r_qp_dipole>  (524) 
4.8369999999999997

>  <r_qp_donorHB>  (524) 
2

>  <r_qp_glob>  (524) 
0.90105829999999998

>  <r_qp_mol_MW>  (524) 
466.58199999999999

>  <r_qp_volume>  (524) 
1425.3150000000001

>  <r_sd_BIOSOLVEIT.INFINISEE\_FTREES\_SIMILARITY>  (524) 
0.92400000000000004

>  <r_sd_BIOSOLVEIT.LOGP>  (524) 
3.8752

>  <r_sd_BIOSOLVEIT.MOLECULAR\_WEIGHT>  (524) 
467.58999999999997

>  <r_sd_BIOSOLVEIT.TPSA>  (524) 
75.530000000000001

>  <i_epik_Tot_Q>  (524) 
1

>  <i_epik_Tot_abs_Q>  (524) 
1

>  <i_f3d_flags>  (524) 
0

>  <i_i_glide_confnum>  (524) 
10

>  <i_i_glide_lignum>  (524) 
931

>  <i_i_glide_posenum>  (524) 
17

>  <i_i_glide_rotatable_bonds>  (524) 
10

>  <i_lp_mmshare_version>  (524) 
65135

>  <i_m_ct_format>  (524) 
2

>  <i_m_source_file_index>  (524) 
2279

>  <i_qp_#NandO>  (524) 
6

>  <i_qp_#acid>  (524) 
0

>  <i_qp_#amide>  (524) 
0

>  <i_qp_#amidine>  (524) 
0

>  <i_qp_#amine>  (524) 
1

>  <i_qp_#in34>  (524) 
0

>  <i_qp_#in56>  (524) 
22

>  <i_qp_#metab>  (524) 
7

>  <i_qp_#nonHatm>  (524) 
35

>  <i_qp_#noncon>  (524) 
0

>  <i_qp_#ringatoms>  (524) 
22

>  <i_qp_#rotor>  (524) 
9

>  <i_qp_#rtvFG>  (524) 
0

>  <i_qp_#stars>  (524) 
0

>  <i_qp_CNS>  (524) 
1

>  <i_qp_HumanOralAbsorption>  (524) 
3

>  <i_qp_RuleOfFive>  (524) 
0

>  <i_qp_RuleOfThree>  (524) 
1

>  <i_sd_BIOSOLVEIT.INFINISEE\_RESULT\_RANK>  (524) 
10087

>  <i_sd_version>  (524) 
0

>  <b_lp_Chiralities_Consistent>  (524) 
1

>  <b_sd_chiral_flag>  (524) 
0

>  <canonical_id>  (524) 
ATP-HTVS-523F9B5BEE3B

>  <compound_code>  (524) 
72899

>  <title>  (524) 
rxn502b____EMOL20754534____EMOL13728749____EMOL2873214

>  <variant>  (524) 
72899-1

>  <source_file>  (524) 
运行/运行/ATP-VSW/ATP-VSW-DOCK_HTVS_1-003_lib/ATP-VSW-DOCK_HTVS_1-003_lib.mae

>  <canonical_smiles>  (524) 
CC(=O)c1ccc(CC(=O)Nc2c(NCc3cccc(C[NH+](C)C)c3)cnc3ccccc23)cc1

>  <scaffold>  (524) 
O=C(Cc1ccccc1)Nc1c(NCc2ccccc2)cnc2ccccc12

>  <molecular_formula>  (524) 
C29H31N4O2+

$$$$
ATP-HTVS-52495E42CB55
     RDKit          3D

 63 66  0  0  0  0  0  0  0  0999 V2000
  197.1874  186.6470  149.8202 F   0  0  0  0  0  0  0  0  0  0  0  0
  197.7797  185.4594  149.5766 C   0  0  0  0  0  0  0  0  0  0  0  0
  198.2387  184.6585  150.6458 C   0  0  0  0  0  0  0  0  0  0  0  0
  198.8527  183.4192  150.3350 C   0  0  0  0  0  0  0  0  0  0  0  0
  199.0018  183.0051  148.9926 C   0  0  0  0  0  0  0  0  0  0  0  0
  198.5538  183.8216  147.9372 C   0  0  0  0  0  0  0  0  0  0  0  0
  198.7600  183.4387  146.5503 C   0  0  0  0  0  0  0  0  0  0  0  0
  198.9290  183.1364  145.4451 N   0  0  0  0  0  0  0  0  0  0  0  0
  197.9236  185.0451  148.2381 C   0  0  0  0  0  0  0  0  0  0  0  0
  198.0375  185.0819  152.1055 C   0  0  2  0  0  0  0  0  0  0  0  0
  199.3049  185.3080  152.8013 N   0  0  0  0  0  0  0  0  0  0  0  0
  199.4754  185.7604  154.1240 C   0  0  0  0  0  0  0  0  0  0  0  0
  198.4181  185.7591  154.9316 N   0  0  0  0  0  0  0  0  0  0  0  0
  198.5944  186.0964  156.2594 C   0  0  0  0  0  0  0  0  0  0  0  0
  197.4568  186.0146  157.0639 N   0  0  0  0  0  0  0  0  0  0  0  0
  197.4642  185.1214  158.2457 C   0  0  1  0  0  0  0  0  0  0  0  0
  196.3475  185.4771  159.2212 C   0  0  0  0  0  0  0  0  0  0  0  0
  195.1118  184.7947  159.2045 C   0  0  0  0  0  0  0  0  0  0  0  0
  194.1020  185.1779  160.1493 C   0  0  0  0  0  0  0  0  0  0  0  0
  194.3098  186.2301  161.0428 C   0  0  0  0  0  0  0  0  0  0  0  0
  195.5376  186.9160  161.0543 C   0  0  0  0  0  0  0  0  0  0  0  0
  196.5393  186.5445  160.1318 C   0  0  0  0  0  0  0  0  0  0  0  0
  194.7834  183.6875  158.2142 C   0  0  1  0  0  0  0  0  0  0  0  0
  194.7492  182.3660  158.8716 N   0  0  2  0  0  0  0  0  0  0  0  0
  196.0933  181.8528  159.2001 C   0  0  2  0  0  0  0  0  0  0  0  0
  193.9613  181.3833  158.1055 C   0  0  2  0  0  0  0  0  0  0  0  0
  199.8463  186.4891  156.7272 C   0  0  0  0  0  0  0  0  0  0  0  0
  200.9256  186.4932  155.8148 C   0  0  0  0  0  0  0  0  0  0  0  0
  200.7020  186.1154  154.5179 N   0  0  0  0  0  0  0  0  0  0  0  0
  202.2082  186.9160  156.2104 C   0  0  0  0  0  0  0  0  0  0  0  0
  202.4240  187.3318  157.5527 C   0  0  0  0  0  0  0  0  0  0  0  0
  201.3540  187.3300  158.4793 C   0  0  0  0  0  0  0  0  0  0  0  0
  200.0644  186.9449  158.0622 C   0  0  0  0  0  0  0  0  0  0  0  0
  197.0995  184.0634  152.8142 C   0  0  2  0  0  0  0  0  0  0  0  0
  199.1841  182.7638  151.1277 H   0  0  0  0  0  0  0  0  0  0  0  0
  199.4633  182.0496  148.7755 H   0  0  0  0  0  0  0  0  0  0  0  0
  197.5659  185.6800  147.4401 H   0  0  0  0  0  0  0  0  0  0  0  0
  197.5512  186.0592  152.1104 H   0  0  0  0  0  0  0  0  0  0  0  0
  200.1445  185.2926  152.2341 H   0  0  0  0  0  0  0  0  0  0  0  0
  196.5995  185.9789  156.5382 H   0  0  0  0  0  0  0  0  0  0  0  0
  197.3973  184.0791  157.9336 H   0  0  0  0  0  0  0  0  0  0  0  0
  198.3868  185.1739  158.8308 H   0  0  0  0  0  0  0  0  0  0  0  0
  193.1499  184.6599  160.1534 H   0  0  0  0  0  0  0  0  0  0  0  0
  193.5358  186.5162  161.7497 H   0  0  0  0  0  0  0  0  0  0  0  0
  195.7212  187.7111  161.7645 H   0  0  0  0  0  0  0  0  0  0  0  0
  197.4778  187.0776  160.1629 H   0  0  0  0  0  0  0  0  0  0  0  0
  193.7981  183.9178  157.8160 H   0  0  0  0  0  0  0  0  0  0  0  0
  195.4482  183.6401  157.3451 H   0  0  0  0  0  0  0  0  0  0  0  0
  196.6897  181.6808  158.3025 H   0  0  0  0  0  0  0  0  0  0  0  0
  195.9799  180.9083  159.7326 H   0  0  0  0  0  0  0  0  0  0  0  0
  196.6332  182.5585  159.8334 H   0  0  0  0  0  0  0  0  0  0  0  0
  194.4310  181.1960  157.1395 H   0  0  0  0  0  0  0  0  0  0  0  0
  192.9423  181.7362  157.9394 H   0  0  0  0  0  0  0  0  0  0  0  0
  193.9067  180.4400  158.6444 H   0  0  0  0  0  0  0  0  0  0  0  0
  203.0229  186.9749  155.4978 H   0  0  0  0  0  0  0  0  0  0  0  0
  203.4176  187.6789  157.8714 H   0  0  0  0  0  0  0  0  0  0  0  0
  201.5070  187.6513  159.4997 H   0  0  0  0  0  0  0  0  0  0  0  0
  199.2559  187.0626  158.7685 H   0  0  0  0  0  0  0  0  0  0  0  0
  196.1903  183.9195  152.2297 H   0  0  0  0  0  0  0  0  0  0  0  0
  196.7909  184.3590  153.8269 H   0  0  0  0  0  0  0  0  0  0  0  0
  197.5986  183.1000  152.8991 H   0  0  0  0  0  0  0  0  0  0  0  0
  201.4986  186.1408  153.8860 H   0  0  0  0  0  0  0  0  0  0  0  0
  194.2672  182.5030  159.7478 H   0  0  0  0  0  0  0  0  0  0  0  0
  1  2  1  0
  2  3  2  0
  2  9  1  0
  3  4  1  0
  3 10  1  0
  4  5  2  0
  4 35  1  0
  5  6  1  0
  5 36  1  0
  6  7  1  0
  6  9  2  0
  7  8  3  0
  9 37  1  0
 10 11  1  0
 10 34  1  0
 10 38  1  6
 11 12  1  0
 11 39  1  0
 12 13  1  0
 12 29  2  0
 13 14  2  0
 14 15  1  0
 14 27  1  0
 15 16  1  0
 15 40  1  0
 16 17  1  0
 16 41  1  6
 16 42  1  0
 17 18  1  0
 17 22  2  0
 18 19  2  0
 18 23  1  0
 19 20  1  0
 19 43  1  0
 20 21  2  0
 20 44  1  0
 21 22  1  0
 21 45  1  0
 22 46  1  0
 23 24  1  0
 23 47  1  6
 23 48  1  0
 24 25  1  0
 24 26  1  0
 24 63  1  1
 25 49  1  6
 25 50  1  0
 25 51  1  0
 26 52  1  6
 26 53  1  0
 26 54  1  0
 27 28  1  0
 27 33  2  0
 28 29  1  0
 28 30  2  0
 29 62  1  0
 30 31  1  0
 30 55  1  0
 31 32  2  0
 31 56  1  0
 32 33  1  0
 32 57  1  0
 33 58  1  0
 34 59  1  6
 34 60  1  0
 34 61  1  0
M  CHG  2  24   1  29   1
M  END
>  <s_epik_cmdline>  (525) 
J2VwaWtfcHl0aG9uJywgJy1waCcsICc3LjAwMDAwMCcsICctcGh0JywgJzIuMDAwMDAwJywgJy1tcycsICcxNicsICctdG4nLCAnOCcsICctbWEnLCAnMjAwJywgJy1pbWFlJywgJzxpbmZpbGUubWFlPicsICctb21hZScsICc8b3V0ZmlsZS5tYWU+Jw==

>  <s_epik_input>  (525) 
TiNDYyhbY0hdMSlbY0hdW2NIXWMoYzFGKVtDQEBIXShbQ0gzXSlbTkhdYyhuYyhjMjMpW2NIXVtjSF1bY0hdW2NIXTMpbmMyW05IXVtDSDJdYzRjKFtDSDJdTihbQ0gzXSlbQ0gzXSlbY0hdW2NIXVtjSF1bY0hdNA==

>  <s_i_glide_gridfile>  (525) 
ATP-Grid

>  <s_lp_Force_Field>  (525) 
OPLS_2005

>  <s_lp_Variant>  (525) 
m_282030aaa____21916804____22360182____21973156-1

>  <s_lp_label>  (525) 
1705_sdstereoexpander_1_neutralizer_1_epik_1_stereoizer_1

>  <s_m_source_file>  (525) 
ATP-VSW-LIGPREP-001-in.maegz

>  <s_sd_BIOSOLVEIT.INFINISEE\_QUERY\_NAME>  (525) 
Ref-Lig

>  <s_sd_BIOSOLVEIT.INFINISEE\_QUERY\_SMILES>  (525) 
S(c1nc2c(cc1C[NH2+]Cc3ccc(cc3)C[NH+](C)C)cccc2)Cc4ccccc4

>  <s_sd_BIOSOLVEIT.INFINISEE\_REACTION\_NAME>  (525) 
m_282030aaa

>  <s_sd_BIOSOLVEIT.INFINISEE\_REAGENT1\_SMILES>  (525) 
[R1*]NC(c1c(F)cc(C#N)cc1)C

>  <s_sd_BIOSOLVEIT.INFINISEE\_REAGENT2\_SMILES>  (525) 
[R2*]c1nc([R1*])c2c(n1)cccc2

>  <s_sd_BIOSOLVEIT.INFINISEE\_REAGENT3\_SMILES>  (525) 
[R2*]NCc1c(cccc1)CN(C)C

>  <s_sd_BIOSOLVEIT.INFINISEE\_SPACE>  (525) 
REALSpace_44bn_2023-08

>  <s_vsw_compound_code>  (525) 
54529

>  <s_vsw_variant>  (525) 
54529-1

>  <r_epik_Charging_Adjusted_Penalty>  (525) 
0.109290254466403

>  <r_epik_Ionization_Penalty>  (525) 
0.051900000000000002

>  <r_epik_Ionization_Penalty_Charging>  (525) 
0.051900000000000002

>  <r_epik_Ionization_Penalty_Neutral>  (525) 
0

>  <r_epik_State_Penalty>  (525) 
0.0574

>  <r_i_docking_score>  (525) 
-4.2463937300530796

>  <r_i_glide_ecoul>  (525) 
-6.0268683433532697

>  <r_i_glide_eff_state_penalty>  (525) 
0.0574

>  <r_i_glide_einternal>  (525) 
8.5164766311645508

>  <r_i_glide_emodel>  (525) 
-47.777235769072902

>  <r_i_glide_energy>  (525) 
-34.748248577117899

>  <r_i_glide_erotb>  (525) 
0.67492909152656

>  <r_i_glide_esite>  (525) 
-0.067076905821549598

>  <r_i_glide_evdw>  (525) 
-28.721380233764599

>  <r_i_glide_gscore>  (525) 
-4.30379373005308

>  <r_i_glide_hbond>  (525) 
0

>  <r_i_glide_ligand_efficiency>  (525) 
-0.12489393323685501

>  <r_i_glide_ligand_efficiency_ln>  (525) 
-0.93814748227841904

>  <r_i_glide_ligand_efficiency_sa>  (525) 
-0.40460785954647999

>  <r_i_glide_lipo>  (525) 
-1.76546548624044

>  <r_i_glide_metal>  (525) 
-0

>  <r_i_glide_rewards>  (525) 
-0.80608116632642202

>  <r_lp_Energy>  (525) 
19.683985

>  <r_qp_ACxDN^.5/SA>  (525) 
0.0125991

>  <r_qp_CIQPlogS>  (525) 
-7.0659999999999998

>  <r_qp_EA(eV)>  (525) 
0.86899999999999999

>  <r_qp_FISA>  (525) 
93.945999999999998

>  <r_qp_FOSA>  (525) 
220.22399999999999

>  <r_qp_IP(eV)>  (525) 
8.1859999999999999

>  <r_qp_Jm>  (525) 
0.0013488620579488401

>  <r_qp_PISA>  (525) 
398.90300000000002

>  <r_qp_PSA>  (525) 
70.337999999999994

>  <r_qp_PercentHumanOralAbsorption>  (525) 
100

>  <r_qp_QPPCaco>  (525) 
317.62200000000001

>  <r_qp_QPPMDCK>  (525) 
195.172

>  <r_qp_QPlogBB>  (525) 
-0.44600000000000001

>  <r_qp_QPlogHERG>  (525) 
-6.8869999999999996

>  <r_qp_QPlogKhsa>  (525) 
0.753

>  <r_qp_QPlogKp>  (525) 
-3.044

>  <r_qp_QPlogPC16>  (525) 
15.035

>  <r_qp_QPlogPo/w>  (525) 
4.6079999999999997

>  <r_qp_QPlogPoct>  (525) 
22.664000000000001

>  <r_qp_QPlogPw>  (525) 
12.18

>  <r_qp_QPlogS>  (525) 
-5.4829999999999997

>  <r_qp_QPpolrz>  (525) 
48.101999999999997

>  <r_qp_SASA>  (525) 
729.60500000000002

>  <r_qp_SAamideO>  (525) 
0

>  <r_qp_SAfluorine>  (525) 
16.533000000000001

>  <r_qp_WPSA>  (525) 
16.533000000000001

>  <r_qp_accptHB>  (525) 
6.5

>  <r_qp_dip^2/V>  (525) 
0.0083794000000000004

>  <r_qp_dipole>  (525) 
3.431

>  <r_qp_donorHB>  (525) 
2

>  <r_qp_glob>  (525) 
0.83147420000000005

>  <r_qp_mol_MW>  (525) 
454.54899999999998

>  <r_qp_volume>  (525) 
1404.9390000000001

>  <r_sd_BIOSOLVEIT.INFINISEE\_FTREES\_SIMILARITY>  (525) 
0.90500000000000003

>  <r_sd_BIOSOLVEIT.LOGP>  (525) 
4.0702800000000003

>  <r_sd_BIOSOLVEIT.MOLECULAR\_WEIGHT>  (525) 
455.55799999999999

>  <r_sd_BIOSOLVEIT.TPSA>  (525) 
78.069999999999993

>  <i_epik_Tot_Q>  (525) 
2

>  <i_epik_Tot_abs_Q>  (525) 
2

>  <i_f3d_flags>  (525) 
0

>  <i_i_glide_confnum>  (525) 
3

>  <i_i_glide_lignum>  (525) 
473

>  <i_i_glide_posenum>  (525) 
13

>  <i_i_glide_rotatable_bonds>  (525) 
8

>  <i_lp_mmshare_version>  (525) 
65135

>  <i_m_ct_format>  (525) 
2

>  <i_m_source_file_index>  (525) 
1705

>  <i_qp_#NandO>  (525) 
6

>  <i_qp_#acid>  (525) 
0

>  <i_qp_#amide>  (525) 
0

>  <i_qp_#amidine>  (525) 
0

>  <i_qp_#amine>  (525) 
1

>  <i_qp_#in34>  (525) 
0

>  <i_qp_#in56>  (525) 
22

>  <i_qp_#metab>  (525) 
4

>  <i_qp_#nonHatm>  (525) 
34

>  <i_qp_#noncon>  (525) 
0

>  <i_qp_#ringatoms>  (525) 
22

>  <i_qp_#rotor>  (525) 
9

>  <i_qp_#rtvFG>  (525) 
0

>  <i_qp_#stars>  (525) 
0

>  <i_qp_CNS>  (525) 
1

>  <i_qp_HumanOralAbsorption>  (525) 
3

>  <i_qp_RuleOfFive>  (525) 
0

>  <i_qp_RuleOfThree>  (525) 
0

>  <i_sd_BIOSOLVEIT.INFINISEE\_REAGENT1\_NAME>  (525) 
21916804

>  <i_sd_BIOSOLVEIT.INFINISEE\_REAGENT2\_NAME>  (525) 
22360182

>  <i_sd_BIOSOLVEIT.INFINISEE\_REAGENT3\_NAME>  (525) 
21973156

>  <i_sd_BIOSOLVEIT.INFINISEE\_RESULT\_RANK>  (525) 
72018

>  <i_sd_version>  (525) 
0

>  <b_lp_Chiralities_Consistent>  (525) 
1

>  <b_sd_chiral_flag>  (525) 
0

>  <canonical_id>  (525) 
ATP-HTVS-52495E42CB55

>  <compound_code>  (525) 
54529

>  <title>  (525) 
m_282030aaa____21916804____22360182____21973156

>  <variant>  (525) 
54529-1

>  <source_file>  (525) 
运行/运行/ATP-VSW/ATP-VSW-DOCK_HTVS_1-001_lib/ATP-VSW-DOCK_HTVS_1-001_lib

>  <canonical_smiles>  (525) 
C[C@@H](Nc1nc(NCc2ccccc2C[NH+](C)C)c2ccccc2[nH+]1)c1ccc(C#N)cc1F

>  <scaffold>  (525) 
c1ccc(CNc2nc(NCc3ccccc3)c3ccccc3[nH+]2)cc1

>  <molecular_formula>  (525) 
C27H29FN6+2

$$$$
ATP-HTVS-524A2C000135
     RDKit          3D

 55 58  0  0  0  0  0  0  0  0999 V2000
  193.6097  181.1487  158.5437 F   0  0  0  0  0  0  0  0  0  0  0  0
  194.4404  182.2251  158.6666 C   0  0  0  0  0  0  0  0  0  0  0  0
  193.9005  183.4975  158.9384 C   0  0  0  0  0  0  0  0  0  0  0  0
  194.7733  184.6044  159.0637 C   0  0  0  0  0  0  0  0  0  0  0  0
  196.1711  184.4829  158.8780 C   0  0  0  0  0  0  0  0  0  0  0  0
  196.7031  183.1926  158.6169 C   0  0  0  0  0  0  0  0  0  0  0  0
  195.8334  182.0816  158.5291 C   0  0  0  0  0  0  0  0  0  0  0  0
  197.0581  185.6697  158.9365 C   0  0  0  0  0  0  0  0  0  0  0  0
  196.5747  186.8288  159.5383 N   0  0  0  0  0  0  0  0  0  0  0  0
  197.5404  187.7414  159.4666 C   0  0  0  0  0  0  0  0  0  0  0  0
  198.6698  187.1885  158.8227 N   0  0  0  0  0  0  0  0  0  0  0  0
  198.3437  185.8818  158.4902 C   0  0  0  0  0  0  0  0  0  0  0  0
  199.3118  184.9931  157.7525 C   0  0  1  0  0  0  0  0  0  0  0  0
  199.0467  185.0145  156.3201 N   0  0  0  0  0  0  0  0  0  0  0  0
  199.6793  183.8985  155.6299 C   0  0  1  0  0  0  0  0  0  0  0  0
  198.8651  182.6080  155.5938 C   0  0  0  0  0  0  0  0  0  0  0  0
  199.5333  181.3652  155.5366 C   0  0  0  0  0  0  0  0  0  0  0  0
  198.8078  180.1527  155.5506 C   0  0  0  0  0  0  0  0  0  0  0  0
  197.4001  180.1904  155.5858 C   0  0  0  0  0  0  0  0  0  0  0  0
  196.7279  181.4245  155.6014 C   0  0  0  0  0  0  0  0  0  0  0  0
  197.4526  182.6282  155.6056 C   0  0  0  0  0  0  0  0  0  0  0  0
  199.5324  178.8147  155.5429 C   0  0  1  0  0  0  0  0  0  0  0  0
  199.9242  178.3399  156.8938 N   0  0  2  0  0  0  0  0  0  0  0  0
  200.8950  179.2396  157.5702 C   0  0  2  0  0  0  0  0  0  0  0  0
  200.4470  176.9571  156.8633 C   0  0  2  0  0  0  0  0  0  0  0  0
  199.8125  187.9116  158.6230 C   0  0  0  0  0  0  0  0  0  0  0  0
  199.8918  189.2071  159.0656 C   0  0  0  0  0  0  0  0  0  0  0  0
  201.0329  189.9133  158.8754 F   0  0  0  0  0  0  0  0  0  0  0  0
  198.7893  189.8052  159.7186 C   0  0  0  0  0  0  0  0  0  0  0  0
  197.6243  189.0882  159.9132 C   0  0  0  0  0  0  0  0  0  0  0  0
  199.3396  185.8854  155.8804 H   0  0  0  0  0  0  0  0  0  0  0  0
  192.8341  183.6091  159.0690 H   0  0  0  0  0  0  0  0  0  0  0  0
  194.3505  185.5753  159.2971 H   0  0  0  0  0  0  0  0  0  0  0  0
  197.7621  183.0295  158.4558 H   0  0  0  0  0  0  0  0  0  0  0  0
  196.2657  181.1152  158.3157 H   0  0  0  0  0  0  0  0  0  0  0  0
  200.3451  185.3498  157.9012 H   0  0  0  0  0  0  0  0  0  0  0  0
  199.2627  183.9829  158.1342 H   0  0  0  0  0  0  0  0  0  0  0  0
  199.8200  184.1776  154.5901 H   0  0  0  0  0  0  0  0  0  0  0  0
  200.6677  183.7219  156.0528 H   0  0  0  0  0  0  0  0  0  0  0  0
  200.6134  181.3462  155.5154 H   0  0  0  0  0  0  0  0  0  0  0  0
  196.8201  179.2765  155.6768 H   0  0  0  0  0  0  0  0  0  0  0  0
  195.6503  181.4496  155.6780 H   0  0  0  0  0  0  0  0  0  0  0  0
  196.9109  183.5593  155.6783 H   0  0  0  0  0  0  0  0  0  0  0  0
  198.8754  178.0778  155.0772 H   0  0  0  0  0  0  0  0  0  0  0  0
  200.4107  178.8910  154.9000 H   0  0  0  0  0  0  0  0  0  0  0  0
  201.8112  179.3344  156.9795 H   0  0  0  0  0  0  0  0  0  0  0  0
  201.1796  178.8588  158.5513 H   0  0  0  0  0  0  0  0  0  0  0  0
  200.4932  180.2417  157.7297 H   0  0  0  0  0  0  0  0  0  0  0  0
  201.3297  176.8771  156.2258 H   0  0  0  0  0  0  0  0  0  0  0  0
  199.6915  176.2656  156.4892 H   0  0  0  0  0  0  0  0  0  0  0  0
  200.7334  176.6337  157.8647 H   0  0  0  0  0  0  0  0  0  0  0  0
  200.6374  187.4243  158.1186 H   0  0  0  0  0  0  0  0  0  0  0  0
  198.8673  190.8230  160.0866 H   0  0  0  0  0  0  0  0  0  0  0  0
  196.7783  189.5349  160.4300 H   0  0  0  0  0  0  0  0  0  0  0  0
  199.0628  178.2932  157.4356 H   0  0  0  0  0  0  0  0  0  0  0  0
  1  2  1  0
  2  3  1  0
  2  7  2  0
  3  4  2  0
  3 32  1  0
  4  5  1  0
  4 33  1  0
  5  6  2  0
  5  8  1  0
  6  7  1  0
  6 34  1  0
  7 35  1  0
  8  9  1  0
  8 12  2  0
  9 10  2  0
 10 11  1  0
 10 30  1  0
 11 12  1  0
 11 26  1  0
 12 13  1  0
 13 14  1  0
 13 36  1  6
 13 37  1  0
 14 15  1  0
 14 31  1  0
 15 16  1  0
 15 38  1  6
 15 39  1  0
 16 17  2  0
 16 21  1  0
 17 18  1  0
 17 40  1  0
 18 19  2  0
 18 22  1  0
 19 20  1  0
 19 41  1  0
 20 21  2  0
 20 42  1  0
 21 43  1  0
 22 23  1  0
 22 44  1  6
 22 45  1  0
 23 24  1  0
 23 25  1  0
 23 55  1  1
 24 46  1  6
 24 47  1  0
 24 48  1  0
 25 49  1  6
 25 50  1  0
 25 51  1  0
 26 27  2  0
 26 52  1  0
 27 28  1  0
 27 29  1  0
 29 30  2  0
 29 53  1  0
 30 54  1  0
M  CHG  1  23   1
M  END
>  <s_epik_cmdline>  (526) 
J2VwaWtfcHl0aG9uJywgJy1waCcsICc3LjAwMDAwMCcsICctcGh0JywgJzIuMDAwMDAwJywgJy1tcycsICcxNicsICctdG4nLCAnOCcsICctbWEnLCAnMjAwJywgJy1pbWFlJywgJzxpbmZpbGUubWFlPicsICctb21hZScsICc8b3V0ZmlsZS5tYWU+Jw==

>  <s_epik_input>  (526) 
RmMxW2NIXVtjSF1jKFtjSF1bY0hdMSktYyhuMiljKG4oYzIzKVtjSF1jKEYpW2NIXVtjSF0zKVtDSDJdW05IXVtDSDJdYzRbY0hdYyhbY0hdW2NIXVtjSF00KVtDSDJdTihbQ0gzXSlbQ0gzXQ==

>  <s_i_glide_gridfile>  (526) 
ATP-Grid

>  <s_lp_Force_Field>  (526) 
OPLS_2005

>  <s_lp_Variant>  (526) 
m_270004bbb____8349656____13425708-2

>  <s_lp_label>  (526) 
1015_sdstereoexpander_1_neutralizer_1_epik_2_stereoizer_1

>  <s_m_source_file>  (526) 
ATP-VSW-LIGPREP-002-in.maegz

>  <s_sd_BIOSOLVEIT.INFINISEE\_QUERY\_NAME>  (526) 
Ref-Lig

>  <s_sd_BIOSOLVEIT.INFINISEE\_QUERY\_SMILES>  (526) 
S(c1nc2c(cc1C[NH2+]Cc3ccc(cc3)C[NH+](C)C)cccc2)Cc4ccccc4

>  <s_sd_BIOSOLVEIT.INFINISEE\_REACTION\_NAME>  (526) 
m_270004bbb

>  <s_sd_BIOSOLVEIT.INFINISEE\_REAGENT1\_SMILES>  (526) 
[R1*]NCc1cc(ccc1)CN(C)C

>  <s_sd_BIOSOLVEIT.INFINISEE\_REAGENT2\_SMILES>  (526) 
[R1*]CC=1N2C(=NC1c3ccc(F)cc3)C=CC(F)=C2

>  <s_sd_BIOSOLVEIT.INFINISEE\_SPACE>  (526) 
REALSpace_44bn_2023-08

>  <s_vsw_compound_code>  (526) 
32450

>  <s_vsw_variant>  (526) 
32450-2

>  <r_epik_Charging_Adjusted_Penalty>  (526) 
0.58087307599634097

>  <r_epik_Ionization_Penalty>  (526) 
0.52790000000000004

>  <r_epik_Ionization_Penalty_Charging>  (526) 
0.055

>  <r_epik_Ionization_Penalty_Neutral>  (526) 
0.47299999999999998

>  <r_epik_State_Penalty>  (526) 
0.52590000000000003

>  <r_i_docking_score>  (526) 
-3.3397277840647699

>  <r_i_glide_ecoul>  (526) 
-7.5497016906738299

>  <r_i_glide_eff_state_penalty>  (526) 
0.52590000000000003

>  <r_i_glide_einternal>  (526) 
1.32682573795319

>  <r_i_glide_emodel>  (526) 
-52.175499009611499

>  <r_i_glide_energy>  (526) 
-39.6565551757812

>  <r_i_glide_erotb>  (526) 
0.71087658288724598

>  <r_i_glide_esite>  (526) 
-0.184864918774724

>  <r_i_glide_evdw>  (526) 
-32.106853485107401

>  <r_i_glide_gscore>  (526) 
-3.8656277840647699

>  <r_i_glide_hbond>  (526) 
-0.20000000000000001

>  <r_i_glide_ligand_efficiency>  (526) 
-0.111324259468826

>  <r_i_glide_ligand_efficiency_ln>  (526) 
-0.75882254178827302

>  <r_i_glide_ligand_efficiency_sa>  (526) 
-0.34591035733060699

>  <r_i_glide_lipo>  (526) 
-0.67662471982553996

>  <r_i_glide_metal>  (526) 
-0

>  <r_i_glide_rewards>  (526) 
-0.77721680049530695

>  <r_lp_Energy>  (526) 
18.687933000000001

>  <r_qp_ACxDN^.5/SA>  (526) 
0.0075629

>  <r_qp_CIQPlogS>  (526) 
-4.6440000000000001

>  <r_qp_EA(eV)>  (526) 
0.997

>  <r_qp_FISA>  (526) 
37.189999999999998

>  <r_qp_FOSA>  (526) 
211.02099999999999

>  <r_qp_IP(eV)>  (526) 
8.9629999999999992

>  <r_qp_Jm>  (526) 
0.0040675914871688996

>  <r_qp_PISA>  (526) 
332.44799999999998

>  <r_qp_PSA>  (526) 
34.969999999999999

>  <r_qp_PercentHumanOralAbsorption>  (526) 
96.284999999999997

>  <r_qp_QPPCaco>  (526) 
273.54300000000001

>  <r_qp_QPPMDCK>  (526) 
411.50099999999998

>  <r_qp_QPlogBB>  (526) 
0.84999999999999998

>  <r_qp_QPlogHERG>  (526) 
-7.0640000000000001

>  <r_qp_QPlogKhsa>  (526) 
0.77900000000000003

>  <r_qp_QPlogKp>  (526) 
-4.5830000000000002

>  <r_qp_QPlogPC16>  (526) 
12.074

>  <r_qp_QPlogPo/w>  (526) 
4.3929999999999998

>  <r_qp_QPlogPoct>  (526) 
18.651

>  <r_qp_QPlogPw>  (526) 
8.9190000000000005

>  <r_qp_QPlogS>  (526) 
-3.4169999999999998

>  <r_qp_QPpolrz>  (526) 
42.932000000000002

>  <r_qp_SASA>  (526) 
661.12099999999998

>  <r_qp_SAamideO>  (526) 
0

>  <r_qp_SAfluorine>  (526) 
80.462000000000003

>  <r_qp_WPSA>  (526) 
80.462000000000003

>  <r_qp_accptHB>  (526) 
5

>  <r_qp_dip^2/V>  (526) 
0.0113668

>  <r_qp_dipole>  (526) 
3.7599999999999998

>  <r_qp_donorHB>  (526) 
1

>  <r_qp_glob>  (526) 
0.84587610000000002

>  <r_qp_mol_MW>  (526) 
406.47699999999998

>  <r_qp_volume>  (526) 
1243.4659999999999

>  <r_sd_BIOSOLVEIT.INFINISEE\_FTREES\_SIMILARITY>  (526) 
0.91500000000000004

>  <r_sd_BIOSOLVEIT.LOGP>  (526) 
2.1876000000000002

>  <r_sd_BIOSOLVEIT.MOLECULAR\_WEIGHT>  (526) 
408.49299999999999

>  <r_sd_BIOSOLVEIT.TPSA>  (526) 
38.869999999999997

>  <i_epik_Tot_Q>  (526) 
1

>  <i_epik_Tot_abs_Q>  (526) 
1

>  <i_f3d_flags>  (526) 
0

>  <i_i_glide_confnum>  (526) 
8

>  <i_i_glide_lignum>  (526) 
323

>  <i_i_glide_posenum>  (526) 
19

>  <i_i_glide_rotatable_bonds>  (526) 
7

>  <i_lp_mmshare_version>  (526) 
65135

>  <i_m_ct_format>  (526) 
2

>  <i_m_source_file_index>  (526) 
1015

>  <i_qp_#NandO>  (526) 
4

>  <i_qp_#acid>  (526) 
0

>  <i_qp_#amide>  (526) 
0

>  <i_qp_#amidine>  (526) 
0

>  <i_qp_#amine>  (526) 
2

>  <i_qp_#in34>  (526) 
0

>  <i_qp_#in56>  (526) 
21

>  <i_qp_#metab>  (526) 
5

>  <i_qp_#nonHatm>  (526) 
30

>  <i_qp_#noncon>  (526) 
0

>  <i_qp_#ringatoms>  (526) 
21

>  <i_qp_#rotor>  (526) 
6

>  <i_qp_#rtvFG>  (526) 
0

>  <i_qp_#stars>  (526) 
0

>  <i_qp_CNS>  (526) 
2

>  <i_qp_HumanOralAbsorption>  (526) 
3

>  <i_qp_RuleOfFive>  (526) 
0

>  <i_qp_RuleOfThree>  (526) 
0

>  <i_sd_BIOSOLVEIT.INFINISEE\_REAGENT1\_NAME>  (526) 
8349656

>  <i_sd_BIOSOLVEIT.INFINISEE\_REAGENT2\_NAME>  (526) 
13425708

>  <i_sd_BIOSOLVEIT.INFINISEE\_RESULT\_RANK>  (526) 
27072

>  <i_sd_version>  (526) 
0

>  <b_lp_Chiralities_Consistent>  (526) 
1

>  <b_sd_chiral_flag>  (526) 
0

>  <canonical_id>  (526) 
ATP-HTVS-524A2C000135

>  <compound_code>  (526) 
32450

>  <title>  (526) 
m_270004bbb____8349656____13425708

>  <variant>  (526) 
32450-2

>  <source_file>  (526) 
运行/运行/ATP-VSW/ATP-VSW-DOCK_HTVS_1-002_lib.maegz

>  <canonical_smiles>  (526) 
C[NH+](C)Cc1cccc(CNCc2c(-c3ccc(F)cc3)nc3ccc(F)cn23)c1

>  <scaffold>  (526) 
c1ccc(CNCc2c(-c3ccccc3)nc3ccccn23)cc1

>  <molecular_formula>  (526) 
C24H25F2N4+

$$$$
ATP-HTVS-52625044C5D9
     RDKit          3D

 61 64  0  0  0  0  0  0  0  0999 V2000
  196.3468  179.6574  149.7423 Br  0  0  0  0  0  0  0  0  0  0  0  0
  197.0926  180.1682  151.4157 C   0  0  0  0  0  0  0  0  0  0  0  0
  196.7012  179.5027  152.5930 C   0  0  0  0  0  0  0  0  0  0  0  0
  197.2412  179.8859  153.8372 C   0  0  0  0  0  0  0  0  0  0  0  0
  198.1813  180.9430  153.9058 C   0  0  0  0  0  0  0  0  0  0  0  0
  198.5780  181.5952  152.7208 C   0  0  0  0  0  0  0  0  0  0  0  0
  198.0359  181.2085  151.4794 C   0  0  0  0  0  0  0  0  0  0  0  0
  198.7959  181.3722  155.2285 C   0  0  1  0  0  0  0  0  0  0  0  0
  197.8020  181.4733  156.2936 N   0  0  0  0  0  0  0  0  0  0  0  0
  197.9905  182.3349  157.3848 C   0  0  0  0  0  0  0  0  0  0  0  0
  199.2473  182.7059  157.6961 N   0  0  0  0  0  0  0  0  0  0  0  0
  199.4061  183.5087  158.7598 C   0  0  0  0  0  0  0  0  0  0  0  0
  198.4371  184.0055  159.5181 N   0  0  0  0  0  0  0  0  0  0  0  0
  197.1675  183.6830  159.2134 C   0  0  0  0  0  0  0  0  0  0  0  0
  196.8803  182.8103  158.1216 C   0  0  0  0  0  0  0  0  0  0  0  0
  195.5477  182.4796  157.8054 C   0  0  0  0  0  0  0  0  0  0  0  0
  194.4917  183.0340  158.5385 C   0  0  0  0  0  0  0  0  0  0  0  0
  194.7592  183.9126  159.6067 C   0  0  0  0  0  0  0  0  0  0  0  0
  196.0927  184.2228  159.9417 C   0  0  0  0  0  0  0  0  0  0  0  0
  200.6752  183.8832  159.1083 N   0  0  0  0  0  0  0  0  0  0  0  0
  201.8610  183.6563  158.2860 C   0  0  1  0  0  0  0  0  0  0  0  0
  203.1611  184.2641  158.7987 C   0  0  0  0  0  0  0  0  0  0  0  0
  203.2709  184.7564  160.1247 C   0  0  0  0  0  0  0  0  0  0  0  0
  204.4910  185.2659  160.6080 C   0  0  0  0  0  0  0  0  0  0  0  0
  205.6064  185.3403  159.7392 C   0  0  0  0  0  0  0  0  0  0  0  0
  205.4967  184.8808  158.4123 C   0  0  0  0  0  0  0  0  0  0  0  0
  204.2798  184.3413  157.9473 C   0  0  0  0  0  0  0  0  0  0  0  0
  204.5947  185.7523  162.0484 C   0  0  1  0  0  0  0  0  0  0  0  0
  204.7995  184.6460  163.0290 N   0  0  1  0  0  0  0  0  0  0  0  0
  205.2369  185.1517  164.3511 C   0  0  2  0  0  0  0  0  0  0  0  0
  203.6308  183.7373  163.1776 C   0  0  2  0  0  0  0  0  0  0  0  0
  199.9633  180.4361  155.6019 C   0  0  2  0  0  0  0  0  0  0  0  0
  195.9846  178.6975  152.5369 H   0  0  0  0  0  0  0  0  0  0  0  0
  196.9370  179.3666  154.7366 H   0  0  0  0  0  0  0  0  0  0  0  0
  199.3028  182.3952  152.7628 H   0  0  0  0  0  0  0  0  0  0  0  0
  198.3484  181.7141  150.5772 H   0  0  0  0  0  0  0  0  0  0  0  0
  199.1896  182.3796  155.0767 H   0  0  0  0  0  0  0  0  0  0  0  0
  196.8597  181.1652  156.0952 H   0  0  0  0  0  0  0  0  0  0  0  0
  195.3056  181.8269  156.9807 H   0  0  0  0  0  0  0  0  0  0  0  0
  193.4742  182.7923  158.2638 H   0  0  0  0  0  0  0  0  0  0  0  0
  193.9370  184.3401  160.1617 H   0  0  0  0  0  0  0  0  0  0  0  0
  196.3017  184.9007  160.7610 H   0  0  0  0  0  0  0  0  0  0  0  0
  200.7312  184.5660  159.8534 H   0  0  0  0  0  0  0  0  0  0  0  0
  202.0002  182.5810  158.1482 H   0  0  0  0  0  0  0  0  0  0  0  0
  201.6617  184.0717  157.3004 H   0  0  0  0  0  0  0  0  0  0  0  0
  202.4128  184.7270  160.7750 H   0  0  0  0  0  0  0  0  0  0  0  0
  206.5508  185.7475  160.0805 H   0  0  0  0  0  0  0  0  0  0  0  0
  206.3456  184.9478  157.7448 H   0  0  0  0  0  0  0  0  0  0  0  0
  204.2103  183.9814  156.9275 H   0  0  0  0  0  0  0  0  0  0  0  0
  205.4325  186.4515  162.1109 H   0  0  0  0  0  0  0  0  0  0  0  0
  203.7041  186.3323  162.3082 H   0  0  0  0  0  0  0  0  0  0  0  0
  204.5138  185.8573  164.7658 H   0  0  0  0  0  0  0  0  0  0  0  0
  206.2046  185.6498  164.2875 H   0  0  0  0  0  0  0  0  0  0  0  0
  205.3362  184.3288  165.0606 H   0  0  0  0  0  0  0  0  0  0  0  0
  202.7623  184.3127  163.4959 H   0  0  0  0  0  0  0  0  0  0  0  0
  203.8241  182.9643  163.9311 H   0  0  0  0  0  0  0  0  0  0  0  0
  203.3887  183.2061  162.2513 H   0  0  0  0  0  0  0  0  0  0  0  0
  200.7169  180.4386  154.8170 H   0  0  0  0  0  0  0  0  0  0  0  0
  199.6276  179.4082  155.7352 H   0  0  0  0  0  0  0  0  0  0  0  0
  200.4718  180.7285  156.5190 H   0  0  0  0  0  0  0  0  0  0  0  0
  205.5649  184.0909  162.6701 H   0  0  0  0  0  0  0  0  0  0  0  0
  1  2  1  0
  2  3  1  0
  2  7  2  0
  3  4  2  0
  3 33  1  0
  4  5  1  0
  4 34  1  0
  5  6  2  0
  5  8  1  0
  6  7  1  0
  6 35  1  0
  7 36  1  0
  8  9  1  0
  8 32  1  0
  8 37  1  6
  9 10  1  0
  9 38  1  0
 10 11  1  0
 10 15  2  0
 11 12  2  0
 12 13  1  0
 12 20  1  0
 13 14  2  0
 14 15  1  0
 14 19  1  0
 15 16  1  0
 16 17  2  0
 16 39  1  0
 17 18  1  0
 17 40  1  0
 18 19  2  0
 18 41  1  0
 19 42  1  0
 20 21  1  0
 20 43  1  0
 21 22  1  0
 21 44  1  6
 21 45  1  0
 22 23  2  0
 22 27  1  0
 23 24  1  0
 23 46  1  0
 24 25  2  0
 24 28  1  0
 25 26  1  0
 25 47  1  0
 26 27  2  0
 26 48  1  0
 27 49  1  0
 28 29  1  0
 28 50  1  6
 28 51  1  0
 29 30  1  0
 29 31  1  0
 29 61  1  6
 30 52  1  1
 30 53  1  0
 30 54  1  0
 31 55  1  1
 31 56  1  0
 31 57  1  0
 32 58  1  6
 32 59  1  0
 32 60  1  0
M  CHG  1  29   1
M  END
>  <s_epik_cmdline>  (527) 
J2VwaWtfcHl0aG9uJywgJy1waCcsICc3LjAwMDAwMCcsICctcGh0JywgJzIuMDAwMDAwJywgJy1tcycsICcxNicsICctdG4nLCAnOCcsICctbWEnLCAnMjAwJywgJy1pbWFlJywgJzxpbmZpbGUubWFlPicsICctb21hZScsICc8b3V0ZmlsZS5tYWU+Jw==

>  <s_epik_input>  (527) 
QnJjMVtjSF1bY0hdYyhbY0hdW2NIXTEpW0NASF0oW0NIM10pW05IXWMoYyhjMjMpW2NIXVtjSF1bY0hdW2NIXTMpbmMobjIpW05IXVtDSDJdYzRbY0hdYyhbY0hdW2NIXVtjSF00KVtDSDJdTihbQ0gzXSlbQ0gzXQ==

>  <s_i_glide_gridfile>  (527) 
ATP-Grid

>  <s_lp_Force_Field>  (527) 
OPLS_2005

>  <s_lp_Variant>  (527) 
m_282030aaa____21931890____22360182____21940090-6

>  <s_lp_label>  (527) 
995_sdstereoexpander_2_neutralizer_1_epik_3_stereoizer_1

>  <s_m_source_file>  (527) 
ATP-VSW-LIGPREP-001-in.maegz

>  <s_sd_BIOSOLVEIT.INFINISEE\_QUERY\_NAME>  (527) 
Ref-Lig

>  <s_sd_BIOSOLVEIT.INFINISEE\_QUERY\_SMILES>  (527) 
S(c1nc2c(cc1C[NH2+]Cc3ccc(cc3)C[NH+](C)C)cccc2)Cc4ccccc4

>  <s_sd_BIOSOLVEIT.INFINISEE\_REACTION\_NAME>  (527) 
m_282030aaa

>  <s_sd_BIOSOLVEIT.INFINISEE\_REAGENT1\_SMILES>  (527) 
[R1*]NC(c1ccc(Br)cc1)C

>  <s_sd_BIOSOLVEIT.INFINISEE\_REAGENT2\_SMILES>  (527) 
[R2*]c1nc([R1*])c2c(n1)cccc2

>  <s_sd_BIOSOLVEIT.INFINISEE\_REAGENT3\_SMILES>  (527) 
[R2*]NCc1cc(ccc1)CN(C)C

>  <s_sd_BIOSOLVEIT.INFINISEE\_SPACE>  (527) 
REALSpace_44bn_2023-08

>  <s_vsw_compound_code>  (527) 
31809

>  <s_vsw_variant>  (527) 
31809-6

>  <r_epik_Charging_Adjusted_Penalty>  (527) 
2.0426570331089402

>  <r_epik_Ionization_Penalty>  (527) 
2.1640000000000001

>  <r_epik_Ionization_Penalty_Charging>  (527) 
0.0441

>  <r_epik_Ionization_Penalty_Neutral>  (527) 
2.1198999999999999

>  <r_epik_State_Penalty>  (527) 
1.9985999999999999

>  <r_i_docking_score>  (527) 
-0.87209279101218495

>  <r_i_glide_ecoul>  (527) 
-4.2027430534362802

>  <r_i_glide_eff_state_penalty>  (527) 
1.9985999999999999

>  <r_i_glide_einternal>  (527) 
1.7593414783477801

>  <r_i_glide_emodel>  (527) 
-42.544441901409897

>  <r_i_glide_energy>  (527) 
-35.337069988250697

>  <r_i_glide_erotb>  (527) 
0.59002890183745804

>  <r_i_glide_esite>  (527) 
-0.0471444482220875

>  <r_i_glide_evdw>  (527) 
-31.134326934814499

>  <r_i_glide_gscore>  (527) 
-2.87069279101219

>  <r_i_glide_hbond>  (527) 
0

>  <r_i_glide_ligand_efficiency>  (527) 
-0.027252899719130801

>  <r_i_glide_ligand_efficiency_ln>  (527) 
-0.19528534825927299

>  <r_i_glide_ligand_efficiency_sa>  (527) 
-0.086522563266709304

>  <r_i_glide_lipo>  (527) 
-1.05015458721251

>  <r_i_glide_metal>  (527) 
-0

>  <r_i_glide_rewards>  (527) 
-0.17629485265887801

>  <r_lp_Energy>  (527) 
7.2425790000000001

>  <r_qp_ACxDN^.5/SA>  (527) 
0.011329499999999999

>  <r_qp_CIQPlogS>  (527) 
-7.3810000000000002

>  <r_qp_EA(eV)>  (527) 
0.80300000000000005

>  <r_qp_FISA>  (527) 
40.466000000000001

>  <r_qp_FOSA>  (527) 
239.30000000000001

>  <r_qp_IP(eV)>  (527) 
8.2669999999999995

>  <r_qp_Jm>  (527) 
0.51004336785946003

>  <r_qp_PISA>  (527) 
293.30000000000001

>  <r_qp_PSA>  (527) 
46.066000000000003

>  <r_qp_PercentHumanOralAbsorption>  (527) 
100

>  <r_qp_QPPCaco>  (527) 
1021.087

>  <r_qp_QPPMDCK>  (527) 
1065.9549999999999

>  <r_qp_QPlogBB>  (527) 
0.28499999999999998

>  <r_qp_QPlogHERG>  (527) 
-4.9850000000000003

>  <r_qp_QPlogKhsa>  (527) 
0.80600000000000005

>  <r_qp_QPlogKp>  (527) 
-2.5270000000000001

>  <r_qp_QPlogPC16>  (527) 
13.436999999999999

>  <r_qp_QPlogPo/w>  (527) 
4.9059999999999997

>  <r_qp_QPlogPoct>  (527) 
20.09

>  <r_qp_QPlogPw>  (527) 
9.5990000000000002

>  <r_qp_QPlogS>  (527) 
-3.456

>  <r_qp_QPpolrz>  (527) 
43.112000000000002

>  <r_qp_SASA>  (527) 
624.12699999999995

>  <r_qp_SAamideO>  (527) 
0

>  <r_qp_SAfluorine>  (527) 
0

>  <r_qp_WPSA>  (527) 
51.061

>  <r_qp_accptHB>  (527) 
5

>  <r_qp_dip^2/V>  (527) 
0.0039966999999999997

>  <r_qp_dipole>  (527) 
2.27

>  <r_qp_donorHB>  (527) 
2

>  <r_qp_glob>  (527) 
0.91794209999999998

>  <r_qp_mol_MW>  (527) 
490.44499999999999

>  <r_qp_volume>  (527) 
1289.3920000000001

>  <r_sd_BIOSOLVEIT.INFINISEE\_FTREES\_SIMILARITY>  (527) 
0.91600000000000004

>  <r_sd_BIOSOLVEIT.LOGP>  (527) 
4.8220000000000001

>  <r_sd_BIOSOLVEIT.MOLECULAR\_WEIGHT>  (527) 
491.45400000000001

>  <r_sd_BIOSOLVEIT.TPSA>  (527) 
54.280000000000001

>  <i_epik_Tot_Q>  (527) 
1

>  <i_epik_Tot_abs_Q>  (527) 
1

>  <i_f3d_flags>  (527) 
0

>  <i_i_glide_confnum>  (527) 
8

>  <i_i_glide_lignum>  (527) 
206

>  <i_i_glide_posenum>  (527) 
11

>  <i_i_glide_rotatable_bonds>  (527) 
8

>  <i_lp_mmshare_version>  (527) 
65135

>  <i_m_ct_format>  (527) 
2

>  <i_m_source_file_index>  (527) 
995

>  <i_qp_#NandO>  (527) 
5

>  <i_qp_#acid>  (527) 
0

>  <i_qp_#amide>  (527) 
0

>  <i_qp_#amidine>  (527) 
0

>  <i_qp_#amine>  (527) 
1

>  <i_qp_#in34>  (527) 
0

>  <i_qp_#in56>  (527) 
22

>  <i_qp_#metab>  (527) 
4

>  <i_qp_#nonHatm>  (527) 
32

>  <i_qp_#noncon>  (527) 
0

>  <i_qp_#ringatoms>  (527) 
22

>  <i_qp_#rotor>  (527) 
8

>  <i_qp_#rtvFG>  (527) 
0

>  <i_qp_#stars>  (527) 
0

>  <i_qp_CNS>  (527) 
1

>  <i_qp_HumanOralAbsorption>  (527) 
3

>  <i_qp_RuleOfFive>  (527) 
0

>  <i_qp_RuleOfThree>  (527) 
0

>  <i_sd_BIOSOLVEIT.INFINISEE\_REAGENT1\_NAME>  (527) 
21931890

>  <i_sd_BIOSOLVEIT.INFINISEE\_REAGENT2\_NAME>  (527) 
22360182

>  <i_sd_BIOSOLVEIT.INFINISEE\_REAGENT3\_NAME>  (527) 
21940090

>  <i_sd_BIOSOLVEIT.INFINISEE\_RESULT\_RANK>  (527) 
25599

>  <i_sd_version>  (527) 
0

>  <b_lp_Chiralities_Consistent>  (527) 
1

>  <b_sd_chiral_flag>  (527) 
0

>  <canonical_id>  (527) 
ATP-HTVS-52625044C5D9

>  <compound_code>  (527) 
31809

>  <title>  (527) 
m_282030aaa____21931890____22360182____21940090

>  <variant>  (527) 
31809-6

>  <source_file>  (527) 
运行/运行/ATP-VSW/ATP-VSW-DOCK_HTVS_1-001_lib/ATP-VSW-DOCK_HTVS_1-001_lib

>  <canonical_smiles>  (527) 
C[C@H](Nc1nc(NCc2cccc(C[NH+](C)C)c2)nc2ccccc12)c1ccc(Br)cc1

>  <scaffold>  (527) 
c1ccc(CNc2nc(NCc3ccccc3)c3ccccc3n2)cc1

>  <molecular_formula>  (527) 
C26H29BrN5+

$$$$
ATP-HTVS-52816E9DAB39
     RDKit          3D

 66 69  0  0  0  0  0  0  0  0999 V2000
  193.1292  186.7375  162.6137 O   0  0  0  0  0  0  0  0  0  0  0  0
  193.6908  187.7223  162.1338 C   0  0  0  0  0  0  0  0  0  0  0  0
  194.7798  187.6727  161.3504 N   0  0  0  0  0  0  0  0  0  0  0  0
  195.1999  186.6185  160.4773 C   0  0  0  0  0  0  0  0  0  0  0  0
  194.6445  185.3964  160.5249 N   0  0  0  0  0  0  0  0  0  0  0  0
  195.0016  184.4523  159.6338 C   0  0  0  0  0  0  0  0  0  0  0  0
  195.9649  184.6675  158.6303 C   0  0  0  0  0  0  0  0  0  0  0  0
  196.2889  183.6101  157.7584 N   0  0  0  0  0  0  0  0  0  0  0  0
  197.6819  183.1756  157.6738 C   0  0  1  0  0  0  0  0  0  0  0  0
  197.9866  182.2721  156.4903 C   0  0  0  0  0  0  0  0  0  0  0  0
  197.2095  182.2920  155.3132 C   0  0  0  0  0  0  0  0  0  0  0  0
  197.5175  181.4245  154.2462 C   0  0  0  0  0  0  0  0  0  0  0  0
  198.6231  180.5526  154.3344 C   0  0  0  0  0  0  0  0  0  0  0  0
  199.4175  180.5479  155.4952 C   0  0  0  0  0  0  0  0  0  0  0  0
  199.0973  181.4064  156.5641 C   0  0  0  0  0  0  0  0  0  0  0  0
  196.6148  181.3698  153.0343 C   0  0  1  0  0  0  0  0  0  0  0  0
  197.3047  181.5530  151.7515 N   0  0  0  0  0  0  0  0  0  0  0  0
  197.8780  182.9067  151.6409 C   0  0  1  0  0  0  0  0  0  0  0  0
  196.8436  184.0585  151.6963 C   0  0  2  0  0  0  0  0  0  0  0  0
  196.4148  181.2592  150.6281 C   0  0  1  0  0  0  0  0  0  0  0  0
  195.9449  179.7962  150.5911 C   0  0  2  0  0  0  0  0  0  0  0  0
  196.5417  185.9542  158.5418 C   0  0  0  0  0  0  0  0  0  0  0  0
  196.1738  186.9548  159.4897 C   0  0  0  0  0  0  0  0  0  0  0  0
  196.7476  188.2551  159.4071 C   0  0  0  0  0  0  0  0  0  0  0  0
  197.6940  188.5470  158.4104 C   0  0  0  0  0  0  0  0  0  0  0  0
  198.0562  187.5573  157.4753 C   0  0  0  0  0  0  0  0  0  0  0  0
  197.4675  186.2798  157.5188 C   0  0  0  0  0  0  0  0  0  0  0  0
  193.1652  189.1422  162.4335 C   0  0  1  0  0  0  0  0  0  0  0  0
  192.8064  189.3435  163.9000 C   0  0  0  0  0  0  0  0  0  0  0  0
  191.7272  188.6345  164.4739 C   0  0  0  0  0  0  0  0  0  0  0  0
  191.4225  188.7875  165.8371 C   0  0  0  0  0  0  0  0  0  0  0  0
  192.1776  189.6661  166.6376 C   0  0  0  0  0  0  0  0  0  0  0  0
  193.2331  190.4027  166.0656 C   0  0  0  0  0  0  0  0  0  0  0  0
  193.5464  190.2478  164.7012 C   0  0  0  0  0  0  0  0  0  0  0  0
  195.2458  188.5504  161.1894 H   0  0  0  0  0  0  0  0  0  0  0  0
  194.5083  183.5045  159.7400 H   0  0  0  0  0  0  0  0  0  0  0  0
  195.6066  182.8682  157.6684 H   0  0  0  0  0  0  0  0  0  0  0  0
  198.3548  184.0157  157.6027 H   0  0  0  0  0  0  0  0  0  0  0  0
  197.9018  182.6161  158.5941 H   0  0  0  0  0  0  0  0  0  0  0  0
  196.3608  182.9543  155.2127 H   0  0  0  0  0  0  0  0  0  0  0  0
  198.8431  179.8601  153.5312 H   0  0  0  0  0  0  0  0  0  0  0  0
  200.2658  179.8784  155.5760 H   0  0  0  0  0  0  0  0  0  0  0  0
  199.7199  181.4137  157.4416 H   0  0  0  0  0  0  0  0  0  0  0  0
  196.1571  180.3771  153.0824 H   0  0  0  0  0  0  0  0  0  0  0  0
  195.8083  182.0931  153.1381 H   0  0  0  0  0  0  0  0  0  0  0  0
  198.6040  183.0542  152.4396 H   0  0  0  0  0  0  0  0  0  0  0  0
  198.4629  182.9800  150.7187 H   0  0  0  0  0  0  0  0  0  0  0  0
  197.3214  185.0231  151.5122 H   0  0  0  0  0  0  0  0  0  0  0  0
  196.3649  184.1310  152.6734 H   0  0  0  0  0  0  0  0  0  0  0  0
  196.0557  183.9551  150.9510 H   0  0  0  0  0  0  0  0  0  0  0  0
  195.5491  181.9106  150.6758 H   0  0  0  0  0  0  0  0  0  0  0  0
  196.9290  181.4936  149.6993 H   0  0  0  0  0  0  0  0  0  0  0  0
  195.2961  179.6269  149.7267 H   0  0  0  0  0  0  0  0  0  0  0  0
  195.3804  179.5247  151.4864 H   0  0  0  0  0  0  0  0  0  0  0  0
  196.7942  179.1203  150.5051 H   0  0  0  0  0  0  0  0  0  0  0  0
  196.4537  189.0523  160.0735 H   0  0  0  0  0  0  0  0  0  0  0  0
  198.1259  189.5412  158.3584 H   0  0  0  0  0  0  0  0  0  0  0  0
  198.7992  187.7864  156.7229 H   0  0  0  0  0  0  0  0  0  0  0  0
  197.7162  185.5393  156.7814 H   0  0  0  0  0  0  0  0  0  0  0  0
  193.8999  189.8920  162.1315 H   0  0  0  0  0  0  0  0  0  0  0  0
  192.2835  189.3390  161.8270 H   0  0  0  0  0  0  0  0  0  0  0  0
  191.1492  187.9461  163.8741 H   0  0  0  0  0  0  0  0  0  0  0  0
  190.6207  188.2131  166.2747 H   0  0  0  0  0  0  0  0  0  0  0  0
  191.9555  189.7632  167.6915 H   0  0  0  0  0  0  0  0  0  0  0  0
  193.8146  191.0722  166.6790 H   0  0  0  0  0  0  0  0  0  0  0  0
  194.3600  190.8158  164.2754 H   0  0  0  0  0  0  0  0  0  0  0  0
  1  2  2  0
  2  3  1  0
  2 28  1  0
  3  4  1  0
  3 35  1  0
  4  5  1  0
  4 23  2  0
  5  6  2  0
  6  7  1  0
  6 36  1  0
  7  8  1  0
  7 22  2  0
  8  9  1  0
  8 37  1  0
  9 10  1  0
  9 38  1  6
  9 39  1  0
 10 11  2  0
 10 15  1  0
 11 12  1  0
 11 40  1  0
 12 13  2  0
 12 16  1  0
 13 14  1  0
 13 41  1  0
 14 15  2  0
 14 42  1  0
 15 43  1  0
 16 17  1  0
 16 44  1  6
 16 45  1  0
 17 18  1  0
 17 20  1  0
 18 19  1  0
 18 46  1  1
 18 47  1  0
 19 48  1  6
 19 49  1  0
 19 50  1  0
 20 21  1  0
 20 51  1  1
 20 52  1  0
 21 53  1  6
 21 54  1  0
 21 55  1  0
 22 23  1  0
 22 27  1  0
 23 24  1  0
 24 25  2  0
 24 56  1  0
 25 26  1  0
 25 57  1  0
 26 27  2  0
 26 58  1  0
 27 59  1  0
 28 29  1  0
 28 60  1  6
 28 61  1  0
 29 30  2  0
 29 34  1  0
 30 31  1  0
 30 62  1  0
 31 32  2  0
 31 63  1  0
 32 33  1  0
 32 64  1  0
 33 34  2  0
 33 65  1  0
 34 66  1  0
M  END
>  <s_epik_cmdline>  (528) 
J2VwaWtfcHl0aG9uJywgJy1waCcsICc3LjAwMDAwMCcsICctcGh0JywgJzIuMDAwMDAwJywgJy1tcycsICcxNicsICctdG4nLCAnOCcsICctbWEnLCAnMjAwJywgJy1pbWFlJywgJzxpbmZpbGUubWFlPicsICctb21hZScsICc8b3V0ZmlsZS5tYWU+Jw==

>  <s_epik_input>  (528) 
W2NIXTFbY0hdW2NIXVtjSF1bY0hdYzFbQ0gyXUMoPU8pW05IXWMoYyhjMjMpW2NIXVtjSF1bY0hdW2NIXTMpbltjSF1jMltOSF1bQ0gyXWM0W2NIXWMoW2NIXVtjSF1bY0hdNClbQ0gyXU4oW0NIMl1bQ0gzXSlbQ0gyXVtDSDNd

>  <s_i_glide_gridfile>  (528) 
ATP-Grid

>  <s_lp_Force_Field>  (528) 
OPLS_2005

>  <s_lp_Variant>  (528) 
rxn502b____EMOL530620____EMOL7515103____EMOL44153840-2

>  <s_lp_label>  (528) 
2195_sdstereoexpander_1_neutralizer_1_epik_2_stereoizer_1

>  <s_m_source_file>  (528) 
ATP-VSW-LIGPREP-001-in.maegz

>  <s_sd_BIOSOLVEIT.INFINISEE\_QUERY\_NAME>  (528) 
Ref-Lig

>  <s_sd_BIOSOLVEIT.INFINISEE\_QUERY\_SMILES>  (528) 
S(c1nc2c(cc1C[NH2+]Cc3ccc(cc3)C[NH+](C)C)cccc2)Cc4ccccc4

>  <s_sd_BIOSOLVEIT.INFINISEE\_REACTION\_NAME>  (528) 
rxn502b

>  <s_sd_BIOSOLVEIT.INFINISEE\_REAGENT1\_NAME>  (528) 
EMOL530620

>  <s_sd_BIOSOLVEIT.INFINISEE\_REAGENT1\_SMILES>  (528) 
ClC(=O)Cc1ccccc1

>  <s_sd_BIOSOLVEIT.INFINISEE\_REAGENT2\_NAME>  (528) 
EMOL7515103

>  <s_sd_BIOSOLVEIT.INFINISEE\_REAGENT2\_SMILES>  (528) 
Brc1c2c(c(nc1)N)cccc2

>  <s_sd_BIOSOLVEIT.INFINISEE\_REAGENT3\_NAME>  (528) 
EMOL44153840

>  <s_sd_BIOSOLVEIT.INFINISEE\_REAGENT3\_SMILES>  (528) 
N(Cc1cc(ccc1)CN)(CC)CC

>  <s_sd_BIOSOLVEIT.INFINISEE\_SPACE>  (528) 
eXplore_7tr_2022-12

>  <s_vsw_compound_code>  (528) 
70209

>  <s_vsw_variant>  (528) 
70209-2

>  <r_epik_Charging_Adjusted_Penalty>  (528) 
2.1036425677255801

>  <r_epik_Ionization_Penalty>  (528) 
2.0977000000000001

>  <r_epik_Ionization_Penalty_Charging>  (528) 
0

>  <r_epik_Ionization_Penalty_Neutral>  (528) 
2.0977000000000001

>  <r_epik_State_Penalty>  (528) 
2.1036000000000001

>  <r_i_docking_score>  (528) 
-3.3963025853751101

>  <r_i_glide_ecoul>  (528) 
-5.7871327400207502

>  <r_i_glide_eff_state_penalty>  (528) 
2.1036000000000001

>  <r_i_glide_einternal>  (528) 
10.454306602478001

>  <r_i_glide_emodel>  (528) 
-63.4590406022389

>  <r_i_glide_energy>  (528) 
-51.488594532012897

>  <r_i_glide_erotb>  (528) 
0.78369501378532902

>  <r_i_glide_esite>  (528) 
-0.033164623805506298

>  <r_i_glide_evdw>  (528) 
-45.701461791992202

>  <r_i_glide_gscore>  (528) 
-5.4999025853751098

>  <r_i_glide_hbond>  (528) 
-0.158585864209767

>  <r_i_glide_ligand_efficiency>  (528) 
-0.099891252511032605

>  <r_i_glide_ligand_efficiency_ln>  (528) 
-0.75033850417010595

>  <r_i_glide_ligand_efficiency_sa>  (528) 
-0.323608880098743

>  <r_i_glide_lipo>  (528) 
-2.5083147613277799

>  <r_i_glide_metal>  (528) 
-0

>  <r_i_glide_rewards>  (528) 
-0.43038934921466498

>  <r_lp_Energy>  (528) 
30.011202999999998

>  <r_qp_ACxDN^.5/SA>  (528) 
0.0133042

>  <r_qp_CIQPlogS>  (528) 
-6.0259999999999998

>  <r_qp_EA(eV)>  (528) 
0.85399999999999998

>  <r_qp_FISA>  (528) 
65.113

>  <r_qp_FOSA>  (528) 
230.12200000000001

>  <r_qp_IP(eV)>  (528) 
7.8179999999999996

>  <r_qp_Jm>  (528) 
0.43784778423380299

>  <r_qp_PISA>  (528) 
395.70600000000002

>  <r_qp_PSA>  (528) 
60.219999999999999

>  <r_qp_PercentHumanOralAbsorption>  (528) 
100

>  <r_qp_QPPCaco>  (528) 
596.12099999999998

>  <r_qp_QPPMDCK>  (528) 
312.89100000000002

>  <r_qp_QPlogBB>  (528) 
-0.20100000000000001

>  <r_qp_QPlogHERG>  (528) 
-6.0830000000000002

>  <r_qp_QPlogKhsa>  (528) 
0.75600000000000001

>  <r_qp_QPlogKp>  (528) 
-2.4279999999999999

>  <r_qp_QPlogPC16>  (528) 
14.913

>  <r_qp_QPlogPo/w>  (528) 
4.8070000000000004

>  <r_qp_QPlogPoct>  (528) 
22.84

>  <r_qp_QPlogPw>  (528) 
11.641999999999999

>  <r_qp_QPlogS>  (528) 
-3.5859999999999999

>  <r_qp_QPpolrz>  (528) 
47.646000000000001

>  <r_qp_SASA>  (528) 
690.94100000000003

>  <r_qp_SAamideO>  (528) 
0

>  <r_qp_SAfluorine>  (528) 
0

>  <r_qp_WPSA>  (528) 
0

>  <r_qp_accptHB>  (528) 
6.5

>  <r_qp_dip^2/V>  (528) 
0.037240099999999998

>  <r_qp_dipole>  (528) 
7.2469999999999999

>  <r_qp_donorHB>  (528) 
2

>  <r_qp_glob>  (528) 
0.88025169999999997

>  <r_qp_mol_MW>  (528) 
452.59800000000001

>  <r_qp_volume>  (528) 
1410.3409999999999

>  <r_sd_BIOSOLVEIT.INFINISEE\_FTREES\_SIMILARITY>  (528) 
0.93400000000000005

>  <r_sd_BIOSOLVEIT.LOGP>  (528) 
4.4527999999999999

>  <r_sd_BIOSOLVEIT.MOLECULAR\_WEIGHT>  (528) 
453.60700000000003

>  <r_sd_BIOSOLVEIT.TPSA>  (528) 
58.460000000000001

>  <i_epik_Tot_Q>  (528) 
0

>  <i_epik_Tot_abs_Q>  (528) 
0

>  <i_f3d_flags>  (528) 
0

>  <i_i_glide_confnum>  (528) 
7

>  <i_i_glide_lignum>  (528) 
713

>  <i_i_glide_posenum>  (528) 
18

>  <i_i_glide_rotatable_bonds>  (528) 
11

>  <i_lp_mmshare_version>  (528) 
65135

>  <i_m_ct_format>  (528) 
2

>  <i_m_source_file_index>  (528) 
2195

>  <i_qp_#NandO>  (528) 
5

>  <i_qp_#acid>  (528) 
0

>  <i_qp_#amide>  (528) 
0

>  <i_qp_#amidine>  (528) 
0

>  <i_qp_#amine>  (528) 
1

>  <i_qp_#in34>  (528) 
0

>  <i_qp_#in56>  (528) 
22

>  <i_qp_#metab>  (528) 
8

>  <i_qp_#nonHatm>  (528) 
34

>  <i_qp_#noncon>  (528) 
0

>  <i_qp_#ringatoms>  (528) 
22

>  <i_qp_#rotor>  (528) 
10

>  <i_qp_#rtvFG>  (528) 
0

>  <i_qp_#stars>  (528) 
1

>  <i_qp_CNS>  (528) 
1

>  <i_qp_HumanOralAbsorption>  (528) 
3

>  <i_qp_RuleOfFive>  (528) 
0

>  <i_qp_RuleOfThree>  (528) 
1

>  <i_sd_BIOSOLVEIT.INFINISEE\_RESULT\_RANK>  (528) 
3110

>  <i_sd_version>  (528) 
0

>  <b_lp_Chiralities_Consistent>  (528) 
1

>  <b_sd_chiral_flag>  (528) 
0

>  <canonical_id>  (528) 
ATP-HTVS-52816E9DAB39

>  <compound_code>  (528) 
70209

>  <title>  (528) 
rxn502b____EMOL530620____EMOL7515103____EMOL44153840

>  <variant>  (528) 
70209-2

>  <source_file>  (528) 
运行/运行/ATP-VSW/ATP-VSW-DOCK_HTVS_1-001_lib/ATP-VSW-DOCK_HTVS_1-001_lib

>  <canonical_smiles>  (528) 
CCN(CC)Cc1cccc(CNc2cnc(NC(=O)Cc3ccccc3)c3ccccc23)c1

>  <scaffold>  (528) 
O=C(Cc1ccccc1)Nc1ncc(NCc2ccccc2)c2ccccc12

>  <molecular_formula>  (528) 
C29H32N4O

$$$$
ATP-HTVS-52B20567BA88
     RDKit          3D

 50 53  0  0  0  0  0  0  0  0999 V2000
  193.9486  181.0363  158.2098 O   0  0  0  0  0  0  0  0  0  0  0  0
  194.5251  182.1831  158.6794 C   0  0  0  0  0  0  0  0  0  0  0  0
  193.7522  183.3295  158.9214 C   0  0  0  0  0  0  0  0  0  0  0  0
  194.3402  184.4799  159.4556 C   0  0  0  0  0  0  0  0  0  0  0  0
  195.7225  184.5187  159.7008 C   0  0  0  0  0  0  0  0  0  0  0  0
  196.4927  183.3543  159.4897 C   0  0  0  0  0  0  0  0  0  0  0  0
  195.9073  182.1983  158.9364 C   0  0  0  0  0  0  0  0  0  0  0  0
  196.3808  185.8197  160.1236 C   0  0  2  0  0  0  0  0  0  0  0  0
  195.6389  186.5024  161.1227 O   0  0  0  0  0  0  0  0  0  0  0  0
  196.6224  186.8189  158.9531 C   0  0  1  0  0  0  0  0  0  0  0  0
  196.9341  186.2508  157.6369 N   0  0  0  0  0  0  0  0  0  0  0  0
  197.9349  185.2849  157.4640 C   0  0  0  0  0  0  0  0  0  0  0  0
  198.9424  185.2111  158.3631 N   0  0  0  0  0  0  0  0  0  0  0  0
  199.8316  184.1907  158.2535 C   0  0  0  0  0  0  0  0  0  0  0  0
  199.7393  183.2667  157.1693 C   0  0  0  0  0  0  0  0  0  0  0  0
  198.7253  183.3384  156.2731 N   0  0  0  0  0  0  0  0  0  0  0  0
  197.8261  184.3325  156.4245 C   0  0  0  0  0  0  0  0  0  0  0  0
  200.7441  182.2273  156.8734 C   0  0  0  0  0  0  0  0  0  0  0  0
  202.1032  182.5762  156.6897 C   0  0  0  0  0  0  0  0  0  0  0  0
  203.0759  181.5919  156.4287 C   0  0  0  0  0  0  0  0  0  0  0  0
  202.6988  180.2391  156.3448 C   0  0  0  0  0  0  0  0  0  0  0  0
  201.3530  179.8740  156.5365 C   0  0  0  0  0  0  0  0  0  0  0  0
  200.3835  180.8624  156.7959 C   0  0  0  0  0  0  0  0  0  0  0  0
  200.8425  184.1207  159.3416 C   0  0  0  0  0  0  0  0  0  0  0  0
  201.3376  185.3104  159.9247 C   0  0  0  0  0  0  0  0  0  0  0  0
  202.3262  185.2761  160.9266 C   0  0  0  0  0  0  0  0  0  0  0  0
  202.8427  184.0445  161.3673 C   0  0  0  0  0  0  0  0  0  0  0  0
  202.3473  182.8480  160.8229 C   0  0  0  0  0  0  0  0  0  0  0  0
  201.3459  182.8902  159.8349 C   0  0  0  0  0  0  0  0  0  0  0  0
  194.5830  180.3349  158.0795 H   0  0  0  0  0  0  0  0  0  0  0  0
  192.6991  183.3257  158.6822 H   0  0  0  0  0  0  0  0  0  0  0  0
  193.7377  185.3542  159.6424 H   0  0  0  0  0  0  0  0  0  0  0  0
  197.5517  183.3311  159.6945 H   0  0  0  0  0  0  0  0  0  0  0  0
  196.5183  181.3295  158.7274 H   0  0  0  0  0  0  0  0  0  0  0  0
  197.3408  185.5655  160.5660 H   0  0  0  0  0  0  0  0  0  0  0  0
  194.8172  186.7882  160.7537 H   0  0  0  0  0  0  0  0  0  0  0  0
  195.7052  187.3938  158.8036 H   0  0  0  0  0  0  0  0  0  0  0  0
  197.3885  187.5425  159.2334 H   0  0  0  0  0  0  0  0  0  0  0  0
  196.1813  186.2520  156.9646 H   0  0  0  0  0  0  0  0  0  0  0  0
  196.9940  184.3358  155.7335 H   0  0  0  0  0  0  0  0  0  0  0  0
  202.4074  183.6106  156.7624 H   0  0  0  0  0  0  0  0  0  0  0  0
  204.1117  181.8726  156.3013 H   0  0  0  0  0  0  0  0  0  0  0  0
  203.4405  179.4807  156.1386 H   0  0  0  0  0  0  0  0  0  0  0  0
  201.0644  178.8340  156.4909 H   0  0  0  0  0  0  0  0  0  0  0  0
  199.3546  180.5694  156.9498 H   0  0  0  0  0  0  0  0  0  0  0  0
  200.9651  186.2696  159.5939 H   0  0  0  0  0  0  0  0  0  0  0  0
  202.6899  186.2004  161.3501 H   0  0  0  0  0  0  0  0  0  0  0  0
  203.6039  184.0168  162.1334 H   0  0  0  0  0  0  0  0  0  0  0  0
  202.7334  181.8959  161.1555 H   0  0  0  0  0  0  0  0  0  0  0  0
  200.9890  181.9471  159.4521 H   0  0  0  0  0  0  0  0  0  0  0  0
  1  2  1  0
  1 30  1  0
  2  3  1  0
  2  7  2  0
  3  4  2  0
  3 31  1  0
  4  5  1  0
  4 32  1  0
  5  6  2  0
  5  8  1  0
  6  7  1  0
  6 33  1  0
  7 34  1  0
  8  9  1  0
  8 10  1  0
  8 35  1  1
  9 36  1  0
 10 11  1  0
 10 37  1  6
 10 38  1  0
 11 12  1  0
 11 39  1  0
 12 13  2  0
 12 17  1  0
 13 14  1  0
 14 15  2  0
 14 24  1  0
 15 16  1  0
 15 18  1  0
 16 17  2  0
 17 40  1  0
 18 19  2  0
 18 23  1  0
 19 20  1  0
 19 41  1  0
 20 21  2  0
 20 42  1  0
 21 22  1  0
 21 43  1  0
 22 23  2  0
 22 44  1  0
 23 45  1  0
 24 25  2  0
 24 29  1  0
 25 26  1  0
 25 46  1  0
 26 27  2  0
 26 47  1  0
 27 28  1  0
 27 48  1  0
 28 29  2  0
 28 49  1  0
 29 50  1  0
M  END
>  <s_epik_cmdline>  (529) 
J2VwaWtfcHl0aG9uJywgJy1waCcsICc3LjAwMDAwMCcsICctcGh0JywgJzIuMDAwMDAwJywgJy1tcycsICcxNicsICctdG4nLCAnOCcsICctbWEnLCAnMjAwJywgJy1pbWFlJywgJzxpbmZpbGUubWFlPicsICctb21hZScsICc8b3V0ZmlsZS5tYWU+Jw==

>  <s_epik_input>  (529) 
W09IXWMxW2NIXVtjSF1jKFtjSF1bY0hdMSlbQ0BIXShbT0hdKVtDSDJdW05IXWMybmMoLWMzW2NIXVtjSF1bY0hdW2NIXVtjSF0zKWMobltjSF0yKS1jNFtjSF1bY0hdW2NIXVtjSF1bY0hdNA==

>  <s_i_glide_gridfile>  (529) 
ATP-Grid

>  <s_lp_Force_Field>  (529) 
OPLS_2005

>  <s_lp_Variant>  (529) 
a2____240755____114735-2

>  <s_lp_label>  (529) 
394_sdstereoexpander_2_neutralizer_1_epik_1_stereoizer_1

>  <s_m_source_file>  (529) 
ATP-VSW-LIGPREP-001-in.maegz

>  <s_sd_BIOSOLVEIT.INFINISEE\_QUERY\_NAME>  (529) 
Ref-Lig

>  <s_sd_BIOSOLVEIT.INFINISEE\_QUERY\_SMILES>  (529) 
S(c1nc2c(cc1C[NH2+]Cc3ccc(cc3)C[NH+](C)C)cccc2)Cc4ccccc4

>  <s_sd_BIOSOLVEIT.INFINISEE\_REACTION\_NAME>  (529) 
a2

>  <s_sd_BIOSOLVEIT.INFINISEE\_REAGENT1\_SMILES>  (529) 
[R1*]NCC(O)c1ccc(O)cc1

>  <s_sd_BIOSOLVEIT.INFINISEE\_REAGENT2\_SMILES>  (529) 
[R1*]c1nc(c(nc1)c2ccccc2)c3ccccc3

>  <s_sd_BIOSOLVEIT.INFINISEE\_SPACE>  (529) 
FreedomSpace_5bn_2023-06

>  <s_vsw_compound_code>  (529) 
12577

>  <s_vsw_variant>  (529) 
12577-2

>  <r_epik_Charging_Adjusted_Penalty>  (529) 
0.00060180312891447505

>  <r_epik_Ionization_Penalty>  (529) 
0.00069999999999999999

>  <r_epik_Ionization_Penalty_Charging>  (529) 
0

>  <r_epik_Ionization_Penalty_Neutral>  (529) 
0.00069999999999999999

>  <r_epik_State_Penalty>  (529) 
0.00059999999999999995

>  <r_i_docking_score>  (529) 
-4.5026772769619798

>  <r_i_glide_ecoul>  (529) 
-6.8928556442260698

>  <r_i_glide_eff_state_penalty>  (529) 
0.00059999999999999995

>  <r_i_glide_einternal>  (529) 
3.36972260475159

>  <r_i_glide_emodel>  (529) 
-47.390066579153803

>  <r_i_glide_energy>  (529) 
-37.751116752624498

>  <r_i_glide_erotb>  (529) 
0.79299852948418303

>  <r_i_glide_esite>  (529) 
0

>  <r_i_glide_evdw>  (529) 
-30.858261108398398

>  <r_i_glide_gscore>  (529) 
-4.5032772769619802

>  <r_i_glide_hbond>  (529) 
-0.16

>  <r_i_glide_ligand_efficiency>  (529) 
-0.15526473368834401

>  <r_i_glide_ligand_efficiency_ln>  (529) 
-1.0309989183801

>  <r_i_glide_ligand_efficiency_sa>  (529) 
-0.47702245321090703

>  <r_i_glide_lipo>  (529) 
-1.76472376802869

>  <r_i_glide_metal>  (529) 
-0

>  <r_i_glide_rewards>  (529) 
-0.79471063636363504

>  <r_lp_Energy>  (529) 
37.409354999999998

>  <r_lp_tautomer_probability>  (529) 
0.99999990127737304

>  <r_qp_ACxDN^.5/SA>  (529) 
0.012201999999999999

>  <r_qp_CIQPlogS>  (529) 
-6.2889999999999997

>  <r_qp_EA(eV)>  (529) 
0.39000000000000001

>  <r_qp_FISA>  (529) 
115.608

>  <r_qp_FOSA>  (529) 
43.606000000000002

>  <r_qp_IP(eV)>  (529) 
8.3759999999999994

>  <r_qp_Jm>  (529) 
0.16664554385308999

>  <r_qp_PISA>  (529) 
543.42899999999997

>  <r_qp_PSA>  (529) 
73.831999999999994

>  <r_qp_PercentHumanOralAbsorption>  (529) 
100

>  <r_qp_QPPCaco>  (529) 
793.57100000000003

>  <r_qp_QPPMDCK>  (529) 
385.31299999999999

>  <r_qp_QPlogBB>  (529) 
-1.1830000000000001

>  <r_qp_QPlogHERG>  (529) 
-7.3579999999999997

>  <r_qp_QPlogKhsa>  (529) 
0.52500000000000002

>  <r_qp_QPlogKp>  (529) 
-0.872

>  <r_qp_QPlogPC16>  (529) 
15.226000000000001

>  <r_qp_QPlogPo/w>  (529) 
4.5389999999999997

>  <r_qp_QPlogPoct>  (529) 
21.829999999999998

>  <r_qp_QPlogPw>  (529) 
13.177

>  <r_qp_QPlogS>  (529) 
-5.4900000000000002

>  <r_qp_QPpolrz>  (529) 
43.414999999999999

>  <r_qp_SASA>  (529) 
702.64300000000003

>  <r_qp_SAamideO>  (529) 
0

>  <r_qp_SAfluorine>  (529) 
0

>  <r_qp_WPSA>  (529) 
0

>  <r_qp_accptHB>  (529) 
4.9500000000000002

>  <r_qp_dip^2/V>  (529) 
0.017331599999999999

>  <r_qp_dipole>  (529) 
4.6609999999999996

>  <r_qp_donorHB>  (529) 
3

>  <r_qp_glob>  (529) 
0.80009620000000004

>  <r_qp_mol_MW>  (529) 
383.44900000000001

>  <r_qp_volume>  (529) 
1253.337

>  <r_sd_BIOSOLVEIT.INFINISEE\_FTREES\_SIMILARITY>  (529) 
0.90900000000000003

>  <r_sd_BIOSOLVEIT.LOGP>  (529) 
4.6616999999999997

>  <r_sd_BIOSOLVEIT.MOLECULAR\_WEIGHT>  (529) 
383.44900000000001

>  <r_sd_BIOSOLVEIT.TPSA>  (529) 
78.269999999999996

>  <i_epik_Tot_Q>  (529) 
0

>  <i_epik_Tot_abs_Q>  (529) 
0

>  <i_f3d_flags>  (529) 
0

>  <i_i_glide_confnum>  (529) 
7

>  <i_i_glide_lignum>  (529) 
52

>  <i_i_glide_posenum>  (529) 
20

>  <i_i_glide_rotatable_bonds>  (529) 
8

>  <i_lp_mmshare_version>  (529) 
65135

>  <i_m_ct_format>  (529) 
2

>  <i_m_source_file_index>  (529) 
394

>  <i_qp_#NandO>  (529) 
5

>  <i_qp_#acid>  (529) 
0

>  <i_qp_#amide>  (529) 
0

>  <i_qp_#amidine>  (529) 
0

>  <i_qp_#amine>  (529) 
0

>  <i_qp_#in34>  (529) 
0

>  <i_qp_#in56>  (529) 
24

>  <i_qp_#metab>  (529) 
3

>  <i_qp_#nonHatm>  (529) 
29

>  <i_qp_#noncon>  (529) 
0

>  <i_qp_#ringatoms>  (529) 
24

>  <i_qp_#rotor>  (529) 
9

>  <i_qp_#rtvFG>  (529) 
0

>  <i_qp_#stars>  (529) 
1

>  <i_qp_CNS>  (529) 
-2

>  <i_qp_HumanOralAbsorption>  (529) 
3

>  <i_qp_RuleOfFive>  (529) 
0

>  <i_qp_RuleOfThree>  (529) 
0

>  <i_sd_BIOSOLVEIT.INFINISEE\_REAGENT1\_NAME>  (529) 
240755

>  <i_sd_BIOSOLVEIT.INFINISEE\_REAGENT2\_NAME>  (529) 
114735

>  <i_sd_BIOSOLVEIT.INFINISEE\_RESULT\_RANK>  (529) 
51281

>  <i_sd_version>  (529) 
0

>  <b_lp_Chiralities_Consistent>  (529) 
1

>  <b_sd_chiral_flag>  (529) 
0

>  <canonical_id>  (529) 
ATP-HTVS-52B20567BA88

>  <compound_code>  (529) 
12577

>  <title>  (529) 
a2____240755____114735

>  <variant>  (529) 
12577-2

>  <source_file>  (529) 
运行/运行/ATP-VSW/ATP-VSW-DOCK_HTVS_1-001_lib/ATP-VSW-DOCK_HTVS_1-001_lib

>  <canonical_smiles>  (529) 
Oc1ccc([C@H](O)CNc2cnc(-c3ccccc3)c(-c3ccccc3)n2)cc1

>  <scaffold>  (529) 
c1ccc(CCNc2cnc(-c3ccccc3)c(-c3ccccc3)n2)cc1

>  <molecular_formula>  (529) 
C24H21N3O2

$$$$
ATP-HTVS-52BA94C773EB
     RDKit          3D

 56 59  0  0  0  0  0  0  0  0999 V2000
  200.6169  177.6022  158.5107 Cl  0  0  0  0  0  0  0  0  0  0  0  0
  201.2335  178.7768  157.4031 C   0  0  0  0  0  0  0  0  0  0  0  0
  202.1519  179.7849  157.7868 C   0  0  0  0  0  0  0  0  0  0  0  0
  202.6212  180.7083  156.8258 C   0  0  0  0  0  0  0  0  0  0  0  0
  203.5669  181.7463  157.2167 C   0  0  0  0  0  0  0  0  0  0  0  0
  204.3181  182.5705  157.5283 N   0  0  0  0  0  0  0  0  0  0  0  0
  202.1759  180.6176  155.4874 C   0  0  0  0  0  0  0  0  0  0  0  0
  201.2672  179.6053  155.1004 C   0  0  0  0  0  0  0  0  0  0  0  0
  200.8097  178.6901  156.0697 C   0  0  0  0  0  0  0  0  0  0  0  0
  200.7709  179.5091  153.6882 C   0  0  0  0  0  0  0  0  0  0  0  0
  201.5048  179.7684  152.7380 O   0  0  0  0  0  0  0  0  0  0  0  0
  199.4685  179.1783  153.5852 N   0  0  0  0  0  0  0  0  0  0  0  0
  198.6623  179.2603  152.4192 C   0  0  0  0  0  0  0  0  0  0  0  0
  198.9045  178.4812  151.3406 N   0  0  0  0  0  0  0  0  0  0  0  0
  198.0807  178.5390  150.2686 C   0  0  0  0  0  0  0  0  0  0  0  0
  196.9568  179.4140  150.2333 C   0  0  0  0  0  0  0  0  0  0  0  0
  196.6914  180.2203  151.3453 C   0  0  0  0  0  0  0  0  0  0  0  0
  197.5452  180.1506  152.4586 C   0  0  0  0  0  0  0  0  0  0  0  0
  197.2234  180.9973  153.5945 C   0  0  0  0  0  0  0  0  0  0  0  0
  197.0029  181.7133  154.5558 C   0  0  0  0  0  0  0  0  0  0  0  0
  196.8902  182.5368  155.7618 C   0  0  1  0  0  0  0  0  0  0  0  0
  195.9480  181.8389  156.6722 N   0  0  1  0  0  0  0  0  0  0  0  0
  195.5262  182.5796  157.8858 C   0  0  2  0  0  0  0  0  0  0  0  0
  196.5993  183.4726  158.4914 C   0  0  0  0  0  0  0  0  0  0  0  0
  196.2514  184.7239  159.0560 C   0  0  0  0  0  0  0  0  0  0  0  0
  194.9472  185.1056  159.1218 F   0  0  0  0  0  0  0  0  0  0  0  0
  197.2538  185.5939  159.5362 C   0  0  0  0  0  0  0  0  0  0  0  0
  198.6049  185.2142  159.4438 C   0  0  0  0  0  0  0  0  0  0  0  0
  198.9503  183.9562  158.9083 C   0  0  0  0  0  0  0  0  0  0  0  0
  197.9513  183.0834  158.4579 C   0  0  0  0  0  0  0  0  0  0  0  0
  194.9506  181.6267  158.9351 C   0  0  2  0  0  0  0  0  0  0  0  0
  196.1105  179.4521  149.1144 C   0  0  0  0  0  0  0  0  0  0  0  0
  196.3716  178.6355  148.0078 C   0  0  0  0  0  0  0  0  0  0  0  0
  197.4642  177.7588  148.0357 C   0  0  0  0  0  0  0  0  0  0  0  0
  198.3065  177.7080  149.1619 C   0  0  0  0  0  0  0  0  0  0  0  0
  195.0954  181.6476  156.1715 H   0  0  0  0  0  0  0  0  0  0  0  0
  202.5193  179.8339  158.8034 H   0  0  0  0  0  0  0  0  0  0  0  0
  202.5324  181.3293  154.7526 H   0  0  0  0  0  0  0  0  0  0  0  0
  200.1273  177.8947  155.8174 H   0  0  0  0  0  0  0  0  0  0  0  0
  198.9695  179.0619  154.4532 H   0  0  0  0  0  0  0  0  0  0  0  0
  195.8348  180.8863  151.3496 H   0  0  0  0  0  0  0  0  0  0  0  0
  197.8938  182.6030  156.2080 H   0  0  0  0  0  0  0  0  0  0  0  0
  196.5246  183.5255  155.4769 H   0  0  0  0  0  0  0  0  0  0  0  0
  194.7206  183.2288  157.5656 H   0  0  0  0  0  0  0  0  0  0  0  0
  196.9808  186.5341  159.9882 H   0  0  0  0  0  0  0  0  0  0  0  0
  199.3829  185.8788  159.8025 H   0  0  0  0  0  0  0  0  0  0  0  0
  199.9929  183.6746  158.8156 H   0  0  0  0  0  0  0  0  0  0  0  0
  198.2147  182.1389  157.9976 H   0  0  0  0  0  0  0  0  0  0  0  0
  194.5733  182.1906  159.7856 H   0  0  0  0  0  0  0  0  0  0  0  0
  195.7187  180.9458  159.3070 H   0  0  0  0  0  0  0  0  0  0  0  0
  194.1224  181.0352  158.5358 H   0  0  0  0  0  0  0  0  0  0  0  0
  195.2408  180.0940  149.1235 H   0  0  0  0  0  0  0  0  0  0  0  0
  195.7095  178.6382  147.1540 H   0  0  0  0  0  0  0  0  0  0  0  0
  197.6481  177.1055  147.1924 H   0  0  0  0  0  0  0  0  0  0  0  0
  199.1408  177.0257  149.1723 H   0  0  0  0  0  0  0  0  0  0  0  0
  196.3315  180.9508  156.9593 H   0  0  0  0  0  0  0  0  0  0  0  0
  1  2  1  0
  2  3  2  0
  2  9  1  0
  3  4  1  0
  3 37  1  0
  4  5  1  0
  4  7  2  0
  5  6  3  0
  7  8  1  0
  7 38  1  0
  8  9  2  0
  8 10  1  0
  9 39  1  0
 10 11  2  0
 10 12  1  0
 12 13  1  0
 12 40  1  0
 13 14  2  0
 13 18  1  0
 14 15  1  0
 15 16  1  0
 15 35  2  0
 16 17  1  0
 16 32  2  0
 17 18  2  0
 17 41  1  0
 18 19  1  0
 19 20  3  0
 20 21  1  0
 21 22  1  0
 21 42  1  1
 21 43  1  0
 22 23  1  0
 22 36  1  6
 22 56  1  0
 23 24  1  0
 23 31  1  0
 23 44  1  6
 24 25  1  0
 24 30  2  0
 25 26  1  0
 25 27  2  0
 27 28  1  0
 27 45  1  0
 28 29  2  0
 28 46  1  0
 29 30  1  0
 29 47  1  0
 30 48  1  0
 31 49  1  1
 31 50  1  0
 31 51  1  0
 32 33  1  0
 32 52  1  0
 33 34  2  0
 33 53  1  0
 34 35  1  0
 34 54  1  0
 35 55  1  0
M  CHG  1  22   1
M  END
>  <s_epik_cmdline>  (530) 
J2VwaWtfcHl0aG9uJywgJy1waCcsICc3LjAwMDAwMCcsICctcGh0JywgJzIuMDAwMDAwJywgJy1tcycsICcxNicsICctdG4nLCAnOCcsICctbWEnLCAnMjAwJywgJy1pbWFlJywgJzxpbmZpbGUubWFlPicsICctb21hZScsICc8b3V0ZmlsZS5tYWU+Jw==

>  <s_epik_input>  (530) 
Q2xjMVtjSF1jKEMjTilbY0hdYyhbY0hdMSlDKD1PKVtOSF1jKG4yKWMoW2NIXWMoYzIzKVtjSF1bY0hdW2NIXVtjSF0zKUMjQ1tDSDJdW05IXVtDQEBIXShbQ0gzXSljNGMoRilbY0hdW2NIXVtjSF1bY0hdNA==

>  <s_i_glide_gridfile>  (530) 
ATP-Grid

>  <s_lp_Force_Field>  (530) 
OPLS_2005

>  <s_lp_Variant>  (530) 
rxn503b____EMOL14063046____EMOL44466703____EMOL317509298-4

>  <s_lp_label>  (530) 
3037_sdstereoexpander_2_neutralizer_1_epik_2_stereoizer_1

>  <s_m_source_file>  (530) 
ATP-VSW-LIGPREP-001-in.maegz

>  <s_sd_BIOSOLVEIT.INFINISEE\_QUERY\_NAME>  (530) 
Ref-Lig

>  <s_sd_BIOSOLVEIT.INFINISEE\_QUERY\_SMILES>  (530) 
S(c1nc2c(cc1C[NH2+]Cc3ccc(cc3)C[NH+](C)C)cccc2)Cc4ccccc4

>  <s_sd_BIOSOLVEIT.INFINISEE\_REACTION\_NAME>  (530) 
rxn503b

>  <s_sd_BIOSOLVEIT.INFINISEE\_REAGENT1\_NAME>  (530) 
EMOL14063046

>  <s_sd_BIOSOLVEIT.INFINISEE\_REAGENT1\_SMILES>  (530) 
Clc1cc(C#N)cc(c1)C(=O)O

>  <s_sd_BIOSOLVEIT.INFINISEE\_REAGENT2\_NAME>  (530) 
EMOL44466703

>  <s_sd_BIOSOLVEIT.INFINISEE\_REAGENT2\_SMILES>  (530) 
Brc1c(nc2c(c1)cccc2)N

>  <s_sd_BIOSOLVEIT.INFINISEE\_REAGENT3\_NAME>  (530) 
EMOL317509298

>  <s_sd_BIOSOLVEIT.INFINISEE\_REAGENT3\_SMILES>  (530) 
Fc1c(cccc1)C(NCC#C)C

>  <s_sd_BIOSOLVEIT.INFINISEE\_SPACE>  (530) 
eXplore_7tr_2022-12

>  <s_vsw_compound_code>  (530) 
97153

>  <s_vsw_variant>  (530) 
97153-4

>  <r_epik_Charging_Adjusted_Penalty>  (530) 
1.2603147534363399

>  <r_epik_Ionization_Penalty>  (530) 
0.63060000000000005

>  <r_epik_Ionization_Penalty_Charging>  (530) 
0.63019999999999998

>  <r_epik_Ionization_Penalty_Neutral>  (530) 
0.00050000000000000001

>  <r_epik_State_Penalty>  (530) 
0.63019999999999998

>  <r_i_docking_score>  (530) 
-4.2421269347608801

>  <r_i_glide_ecoul>  (530) 
-10.105970382690399

>  <r_i_glide_eff_state_penalty>  (530) 
0.63019999999999998

>  <r_i_glide_einternal>  (530) 
11.684343338012701

>  <r_i_glide_emodel>  (530) 
-55.771484666312801

>  <r_i_glide_energy>  (530) 
-43.144029617309599

>  <r_i_glide_erotb>  (530) 
0.60687381611611402

>  <r_i_glide_esite>  (530) 
-0.098025636751749995

>  <r_i_glide_evdw>  (530) 
-33.038059234619098

>  <r_i_glide_gscore>  (530) 
-4.8723269347608804

>  <r_i_glide_hbond>  (530) 
-0.24463437635083601

>  <r_i_glide_ligand_efficiency>  (530) 
-0.12120362670745401

>  <r_i_glide_ligand_efficiency_ln>  (530) 
-0.93124101111471902

>  <r_i_glide_ligand_efficiency_sa>  (530) 
-0.39646509952556802

>  <r_i_glide_lipo>  (530) 
-1.62011730341538

>  <r_i_glide_metal>  (530) 
-0

>  <r_i_glide_rewards>  (530) 
-0.34862491522450101

>  <r_lp_Energy>  (530) 
23.913909

>  <r_qp_ACxDN^.5/SA>  (530) 
0.0118476

>  <r_qp_CIQPlogS>  (530) 
-7.6399999999999997

>  <r_qp_EA(eV)>  (530) 
1.081

>  <r_qp_FISA>  (530) 
127.35899999999999

>  <r_qp_FOSA>  (530) 
86.608000000000004

>  <r_qp_IP(eV)>  (530) 
8.7780000000000005

>  <r_qp_Jm>  (530) 
3.1835137471619099e-05

>  <r_qp_PISA>  (530) 
482.84899999999999

>  <r_qp_PSA>  (530) 
84.305999999999997

>  <r_qp_PercentHumanOralAbsorption>  (530) 
94.778000000000006

>  <r_qp_QPPCaco>  (530) 
153.12899999999999

>  <r_qp_QPPMDCK>  (530) 
195.21600000000001

>  <r_qp_QPlogBB>  (530) 
-0.67100000000000004

>  <r_qp_QPlogHERG>  (530) 
-7.883

>  <r_qp_QPlogKhsa>  (530) 
0.86299999999999999

>  <r_qp_QPlogKp>  (530) 
-3.46

>  <r_qp_QPlogPC16>  (530) 
16.577999999999999

>  <r_qp_QPlogPo/w>  (530) 
4.9059999999999997

>  <r_qp_QPlogPoct>  (530) 
25.257999999999999

>  <r_qp_QPlogPw>  (530) 
13.332000000000001

>  <r_qp_QPlogS>  (530) 
-6.7210000000000001

>  <r_qp_QPpolrz>  (530) 
50.933

>  <r_qp_SASA>  (530) 
775.88599999999997

>  <r_qp_SAamideO>  (530) 
0

>  <r_qp_SAfluorine>  (530) 
28.576000000000001

>  <r_qp_WPSA>  (530) 
79.069000000000003

>  <r_qp_accptHB>  (530) 
6.5

>  <r_qp_dip^2/V>  (530) 
0.089440900000000004

>  <r_qp_dipole>  (530) 
11.347

>  <r_qp_donorHB>  (530) 
2

>  <r_qp_glob>  (530) 
0.79468000000000005

>  <r_qp_mol_MW>  (530) 
482.94400000000002

>  <r_qp_volume>  (530) 
1439.586

>  <r_sd_BIOSOLVEIT.INFINISEE\_FTREES\_SIMILARITY>  (530) 
0.90200000000000002

>  <r_sd_BIOSOLVEIT.LOGP>  (530) 
4.8273799999999998

>  <r_sd_BIOSOLVEIT.MOLECULAR\_WEIGHT>  (530) 
483.952

>  <r_sd_BIOSOLVEIT.TPSA>  (530) 
82.390000000000001

>  <i_epik_Tot_Q>  (530) 
1

>  <i_epik_Tot_abs_Q>  (530) 
1

>  <i_f3d_flags>  (530) 
0

>  <i_i_glide_confnum>  (530) 
3

>  <i_i_glide_lignum>  (530) 
17

>  <i_i_glide_posenum>  (530) 
3

>  <i_i_glide_rotatable_bonds>  (530) 
8

>  <i_lp_mmshare_version>  (530) 
65135

>  <i_m_ct_format>  (530) 
2

>  <i_m_source_file_index>  (530) 
3037

>  <i_qp_#NandO>  (530) 
5

>  <i_qp_#acid>  (530) 
0

>  <i_qp_#amide>  (530) 
0

>  <i_qp_#amidine>  (530) 
0

>  <i_qp_#amine>  (530) 
1

>  <i_qp_#in34>  (530) 
0

>  <i_qp_#in56>  (530) 
22

>  <i_qp_#metab>  (530) 
4

>  <i_qp_#nonHatm>  (530) 
35

>  <i_qp_#noncon>  (530) 
0

>  <i_qp_#ringatoms>  (530) 
22

>  <i_qp_#rotor>  (530) 
8

>  <i_qp_#rtvFG>  (530) 
0

>  <i_qp_#stars>  (530) 
2

>  <i_qp_CNS>  (530) 
1

>  <i_qp_HumanOralAbsorption>  (530) 
1

>  <i_qp_RuleOfFive>  (530) 
0

>  <i_qp_RuleOfThree>  (530) 
1

>  <i_sd_BIOSOLVEIT.INFINISEE\_RESULT\_RANK>  (530) 
89902

>  <i_sd_version>  (530) 
0

>  <b_lp_Chiralities_Consistent>  (530) 
1

>  <b_sd_chiral_flag>  (530) 
0

>  <canonical_id>  (530) 
ATP-HTVS-52BA94C773EB

>  <compound_code>  (530) 
97153

>  <title>  (530) 
rxn503b____EMOL14063046____EMOL44466703____EMOL317509298

>  <variant>  (530) 
97153-4

>  <source_file>  (530) 
运行/运行/ATP-VSW/ATP-VSW-DOCK_HTVS_1-002_lib.maegz

>  <canonical_smiles>  (530) 
C[C@H]([NH2+]CC#Cc1cc2ccccc2nc1NC(=O)c1cc(Cl)cc(C#N)c1)c1ccccc1F

>  <scaffold>  (530) 
O=C(Nc1nc2ccccc2cc1C#CC[NH2+]Cc1ccccc1)c1ccccc1

>  <molecular_formula>  (530) 
C28H21ClFN4O+

$$$$
ATP-HTVS-52CC222D68E9
     RDKit          3D

 55 57  0  0  0  0  0  0  0  0999 V2000
  199.5995  189.8137  154.8692 F   0  0  0  0  0  0  0  0  0  0  0  0
  198.9965  189.0065  155.7734 C   0  0  0  0  0  0  0  0  0  0  0  0
  198.3999  189.5341  156.9304 C   0  0  0  0  0  0  0  0  0  0  0  0
  197.7696  188.7695  157.8419 N   0  0  0  0  0  0  0  0  0  0  0  0
  197.7231  187.4265  157.6715 C   0  0  0  0  0  0  0  0  0  0  0  0
  197.0982  186.5745  158.6194 N   0  0  0  0  0  0  0  0  0  0  0  0
  196.3269  186.8872  159.6727 C   0  0  0  0  0  0  0  0  0  0  0  0
  196.0094  188.0263  160.0094 O   0  0  0  0  0  0  0  0  0  0  0  0
  195.8738  185.7146  160.5376 C   0  0  1  0  0  0  0  0  0  0  0  0
  195.5493  184.4745  159.7273 C   0  0  0  0  0  0  0  0  0  0  0  0
  196.5662  183.5645  159.3680 C   0  0  0  0  0  0  0  0  0  0  0  0
  196.2480  182.4240  158.6082 C   0  0  0  0  0  0  0  0  0  0  0  0
  194.9279  182.2149  158.1703 C   0  0  0  0  0  0  0  0  0  0  0  0
  193.9065  183.1068  158.5372 C   0  0  0  0  0  0  0  0  0  0  0  0
  194.2184  184.2358  159.3287 C   0  0  0  0  0  0  0  0  0  0  0  0
  198.3233  186.7888  156.5477 C   0  0  0  0  0  0  0  0  0  0  0  0
  198.3026  185.3832  156.4064 N   0  0  0  0  0  0  0  0  0  0  0  0
  199.1977  184.7253  155.4714 C   0  0  1  0  0  0  0  0  0  0  0  0
  199.2097  183.2104  155.5649 C   0  0  0  0  0  0  0  0  0  0  0  0
  200.4151  182.5231  155.3291 C   0  0  0  0  0  0  0  0  0  0  0  0
  200.4587  181.1151  155.3962 C   0  0  0  0  0  0  0  0  0  0  0  0
  199.3147  180.3847  155.7712 C   0  0  0  0  0  0  0  0  0  0  0  0
  198.0953  181.0737  155.9874 C   0  0  0  0  0  0  0  0  0  0  0  0
  198.0414  182.4772  155.8700 C   0  0  0  0  0  0  0  0  0  0  0  0
  199.3985  178.8746  155.9487 C   0  0  1  0  0  0  0  0  0  0  0  0
  199.9609  178.4539  157.2655 N   0  0  1  0  0  0  0  0  0  0  0  0
  200.1082  176.9946  157.3580 C   0  0  2  0  0  0  0  0  0  0  0  0
  201.2357  179.1165  157.6523 C   0  0  2  0  0  0  0  0  0  0  0  0
  198.9462  187.6142  155.5753 C   0  0  0  0  0  0  0  0  0  0  0  0
  198.4116  190.5993  157.1208 H   0  0  0  0  0  0  0  0  0  0  0  0
  197.2413  185.5909  158.4624 H   0  0  0  0  0  0  0  0  0  0  0  0
  196.6978  185.4930  161.2043 H   0  0  0  0  0  0  0  0  0  0  0  0
  195.0130  186.0039  161.1437 H   0  0  0  0  0  0  0  0  0  0  0  0
  197.5937  183.7374  159.6540 H   0  0  0  0  0  0  0  0  0  0  0  0
  197.0274  181.7259  158.3385 H   0  0  0  0  0  0  0  0  0  0  0  0
  194.6978  181.3616  157.5485 H   0  0  0  0  0  0  0  0  0  0  0  0
  192.8932  182.9338  158.2098 H   0  0  0  0  0  0  0  0  0  0  0  0
  193.4316  184.9125  159.6302 H   0  0  0  0  0  0  0  0  0  0  0  0
  197.9209  184.7875  157.1282 H   0  0  0  0  0  0  0  0  0  0  0  0
  198.9132  184.9762  154.4505 H   0  0  0  0  0  0  0  0  0  0  0  0
  200.2083  185.1000  155.6371 H   0  0  0  0  0  0  0  0  0  0  0  0
  201.3228  183.0720  155.1072 H   0  0  0  0  0  0  0  0  0  0  0  0
  201.3893  180.6167  155.1917 H   0  0  0  0  0  0  0  0  0  0  0  0
  197.2028  180.5265  156.2740 H   0  0  0  0  0  0  0  0  0  0  0  0
  197.1089  182.9915  156.0445 H   0  0  0  0  0  0  0  0  0  0  0  0
  198.3969  178.4419  155.8462 H   0  0  0  0  0  0  0  0  0  0  0  0
  199.9912  178.4495  155.1333 H   0  0  0  0  0  0  0  0  0  0  0  0
  200.7819  176.6001  156.5973 H   0  0  0  0  0  0  0  0  0  0  0  0
  199.1388  176.5173  157.2338 H   0  0  0  0  0  0  0  0  0  0  0  0
  200.4966  176.7105  158.3357 H   0  0  0  0  0  0  0  0  0  0  0  0
  201.9973  178.9113  156.9012 H   0  0  0  0  0  0  0  0  0  0  0  0
  201.6176  178.7265  158.6001 H   0  0  0  0  0  0  0  0  0  0  0  0
  201.1380  180.1942  157.7672 H   0  0  0  0  0  0  0  0  0  0  0  0
  199.3981  187.2063  154.6854 H   0  0  0  0  0  0  0  0  0  0  0  0
  199.2439  178.6834  157.9401 H   0  0  0  0  0  0  0  0  0  0  0  0
  1  2  1  0
  2  3  1  0
  2 29  2  0
  3  4  2  0
  3 30  1  0
  4  5  1  0
  5  6  1  0
  5 16  2  0
  6  7  1  0
  6 31  1  0
  7  8  2  0
  7  9  1  0
  9 10  1  0
  9 32  1  1
  9 33  1  0
 10 11  2  0
 10 15  1  0
 11 12  1  0
 11 34  1  0
 12 13  2  0
 12 35  1  0
 13 14  1  0
 13 36  1  0
 14 15  2  0
 14 37  1  0
 15 38  1  0
 16 17  1  0
 16 29  1  0
 17 18  1  0
 17 39  1  0
 18 19  1  0
 18 40  1  6
 18 41  1  0
 19 20  1  0
 19 24  2  0
 20 21  2  0
 20 42  1  0
 21 22  1  0
 21 43  1  0
 22 23  2  0
 22 25  1  0
 23 24  1  0
 23 44  1  0
 24 45  1  0
 25 26  1  0
 25 46  1  6
 25 47  1  0
 26 27  1  0
 26 28  1  0
 26 55  1  1
 27 48  1  6
 27 49  1  0
 27 50  1  0
 28 51  1  6
 28 52  1  0
 28 53  1  0
 29 54  1  0
M  CHG  1  26   1
M  END
>  <s_epik_cmdline>  (531) 
J2VwaWtfcHl0aG9uJywgJy1waCcsICc3LjAwMDAwMCcsICctcGh0JywgJzIuMDAwMDAwJywgJy1tcycsICcxNicsICctdG4nLCAnOCcsICctbWEnLCAnMjAwJywgJy1pbWFlJywgJzxpbmZpbGUubWFlPicsICctb21hZScsICc8b3V0ZmlsZS5tYWU+Jw==

>  <s_epik_input>  (531) 
W2NIXTFbY0hdW2NIXVtjSF1bY0hdYzFbQ0gyXUMoPU8pW05IXWMobltjSF1jMkYpYyhbY0hdMilbTkhdW0NIMl1jM1tjSF1bY0hdYyhbY0hdW2NIXTMpW0NIMl1OKFtDSDNdKVtDSDNd

>  <s_i_glide_gridfile>  (531) 
ATP-Grid

>  <s_lp_Force_Field>  (531) 
OPLS_2005

>  <s_lp_Variant>  (531) 
rxn502a____EMOL530620____EMOL729060____EMOL50155899-1

>  <s_lp_label>  (531) 
2563_sdstereoexpander_1_neutralizer_1_epik_1_stereoizer_1

>  <s_m_source_file>  (531) 
ATP-VSW-LIGPREP-003-in.maegz

>  <s_sd_BIOSOLVEIT.INFINISEE\_QUERY\_NAME>  (531) 
Ref-Lig

>  <s_sd_BIOSOLVEIT.INFINISEE\_QUERY\_SMILES>  (531) 
S(c1nc2c(cc1C[NH2+]Cc3ccc(cc3)C[NH+](C)C)cccc2)Cc4ccccc4

>  <s_sd_BIOSOLVEIT.INFINISEE\_REACTION\_NAME>  (531) 
rxn502a

>  <s_sd_BIOSOLVEIT.INFINISEE\_REAGENT1\_NAME>  (531) 
EMOL530620

>  <s_sd_BIOSOLVEIT.INFINISEE\_REAGENT1\_SMILES>  (531) 
ClC(=O)Cc1ccccc1

>  <s_sd_BIOSOLVEIT.INFINISEE\_REAGENT2\_NAME>  (531) 
EMOL729060

>  <s_sd_BIOSOLVEIT.INFINISEE\_REAGENT2\_SMILES>  (531) 
Ic1c(ncc(F)c1)N

>  <s_sd_BIOSOLVEIT.INFINISEE\_REAGENT3\_NAME>  (531) 
EMOL50155899

>  <s_sd_BIOSOLVEIT.INFINISEE\_REAGENT3\_SMILES>  (531) 
N(Cc1ccc(cc1)CN)(C)C

>  <s_sd_BIOSOLVEIT.INFINISEE\_SPACE>  (531) 
eXplore_7tr_2022-12

>  <s_vsw_compound_code>  (531) 
81987

>  <s_vsw_variant>  (531) 
81987-1

>  <r_epik_Charging_Adjusted_Penalty>  (531) 
0.078407994868761793

>  <r_epik_Ionization_Penalty>  (531) 
0.039399999999999998

>  <r_epik_Ionization_Penalty_Charging>  (531) 
0.039199999999999999

>  <r_epik_Ionization_Penalty_Neutral>  (531) 
0.00020000000000000001

>  <r_epik_State_Penalty>  (531) 
0.039199999999999999

>  <r_i_docking_score>  (531) 
-4.3596902359632503

>  <r_i_glide_ecoul>  (531) 
-6.8942375183105504

>  <r_i_glide_eff_state_penalty>  (531) 
0.039199999999999999

>  <r_i_glide_einternal>  (531) 
2.20463299751282

>  <r_i_glide_emodel>  (531) 
-51.436983337961202

>  <r_i_glide_energy>  (531) 
-38.083471298217802

>  <r_i_glide_erotb>  (531) 
0.88323764948961403

>  <r_i_glide_esite>  (531) 
-0.089046938911139101

>  <r_i_glide_evdw>  (531) 
-31.189233779907202

>  <r_i_glide_gscore>  (531) 
-4.3988902359632496

>  <r_i_glide_hbond>  (531) 
-0.107426489551777

>  <r_i_glide_ligand_efficiency>  (531) 
-0.15033414606769799

>  <r_i_glide_ligand_efficiency_ln>  (531) 
-0.99825851182990599

>  <r_i_glide_ligand_efficiency_sa>  (531) 
-0.46187412592048099

>  <r_i_glide_lipo>  (531) 
-1.2099512702089199

>  <r_i_glide_metal>  (531) 
-0

>  <r_i_glide_rewards>  (531) 
-1.2821058700390799

>  <r_lp_Energy>  (531) 
21.974383

>  <r_lp_tautomer_probability>  (531) 
0.999999999999999

>  <r_qp_ACxDN^.5/SA>  (531) 
0.0126765

>  <r_qp_CIQPlogS>  (531) 
-4.5860000000000003

>  <r_qp_EA(eV)>  (531) 
0.33800000000000002

>  <r_qp_FISA>  (531) 
62.012999999999998

>  <r_qp_FOSA>  (531) 
254.46799999999999

>  <r_qp_IP(eV)>  (531) 
8.5069999999999997

>  <r_qp_Jm>  (531) 
0.0161927684374986

>  <r_qp_PISA>  (531) 
361.755

>  <r_qp_PSA>  (531) 
63.204000000000001

>  <r_qp_PercentHumanOralAbsorption>  (531) 
100

>  <r_qp_QPPCaco>  (531) 
637.875

>  <r_qp_QPPMDCK>  (531) 
608.37300000000005

>  <r_qp_QPlogBB>  (531) 
-0.049000000000000002

>  <r_qp_QPlogHERG>  (531) 
-7.1980000000000004

>  <r_qp_QPlogKhsa>  (531) 
0.54300000000000004

>  <r_qp_QPlogKp>  (531) 
-2.6829999999999998

>  <r_qp_QPlogPC16>  (531) 
13.632999999999999

>  <r_qp_QPlogPo/w>  (531) 
4.3310000000000004

>  <r_qp_QPlogPoct>  (531) 
21.890000000000001

>  <r_qp_QPlogPw>  (531) 
11.93

>  <r_qp_QPlogS>  (531) 
-4.702

>  <r_qp_QPpolrz>  (531) 
44.872

>  <r_qp_SASA>  (531) 
725.14999999999998

>  <r_qp_SAamideO>  (531) 
0

>  <r_qp_SAfluorine>  (531) 
46.914999999999999

>  <r_qp_WPSA>  (531) 
46.914999999999999

>  <r_qp_accptHB>  (531) 
6.5

>  <r_qp_dip^2/V>  (531) 
0.049144599999999997

>  <r_qp_dipole>  (531) 
8.0449999999999999

>  <r_qp_donorHB>  (531) 
2

>  <r_qp_glob>  (531) 
0.80131609999999998

>  <r_qp_mol_MW>  (531) 
392.47500000000002

>  <r_qp_volume>  (531) 
1317.0419999999999

>  <r_sd_BIOSOLVEIT.INFINISEE\_FTREES\_SIMILARITY>  (531) 
0.91200000000000003

>  <r_sd_BIOSOLVEIT.LOGP>  (531) 
2.6585000000000001

>  <r_sd_BIOSOLVEIT.MOLECULAR\_WEIGHT>  (531) 
393.483

>  <r_sd_BIOSOLVEIT.TPSA>  (531) 
58.460000000000001

>  <i_epik_Tot_Q>  (531) 
1

>  <i_epik_Tot_abs_Q>  (531) 
1

>  <i_f3d_flags>  (531) 
0

>  <i_i_glide_confnum>  (531) 
9

>  <i_i_glide_lignum>  (531) 
1132

>  <i_i_glide_posenum>  (531) 
12

>  <i_i_glide_rotatable_bonds>  (531) 
9

>  <i_lp_mmshare_version>  (531) 
65135

>  <i_m_ct_format>  (531) 
2

>  <i_m_source_file_index>  (531) 
2563

>  <i_qp_#NandO>  (531) 
5

>  <i_qp_#acid>  (531) 
0

>  <i_qp_#amide>  (531) 
0

>  <i_qp_#amidine>  (531) 
0

>  <i_qp_#amine>  (531) 
1

>  <i_qp_#in34>  (531) 
0

>  <i_qp_#in56>  (531) 
18

>  <i_qp_#metab>  (531) 
8

>  <i_qp_#nonHatm>  (531) 
29

>  <i_qp_#noncon>  (531) 
0

>  <i_qp_#ringatoms>  (531) 
18

>  <i_qp_#rotor>  (531) 
8

>  <i_qp_#rtvFG>  (531) 
0

>  <i_qp_#stars>  (531) 
0

>  <i_qp_CNS>  (531) 
1

>  <i_qp_HumanOralAbsorption>  (531) 
3

>  <i_qp_RuleOfFive>  (531) 
0

>  <i_qp_RuleOfThree>  (531) 
1

>  <i_sd_BIOSOLVEIT.INFINISEE\_RESULT\_RANK>  (531) 
37235

>  <i_sd_version>  (531) 
0

>  <b_lp_Chiralities_Consistent>  (531) 
1

>  <b_sd_chiral_flag>  (531) 
0

>  <canonical_id>  (531) 
ATP-HTVS-52CC222D68E9

>  <compound_code>  (531) 
81987

>  <title>  (531) 
rxn502a____EMOL530620____EMOL729060____EMOL50155899

>  <variant>  (531) 
81987-1

>  <source_file>  (531) 
运行/运行/ATP-VSW/ATP-VSW-DOCK_HTVS_1-003_lib/ATP-VSW-DOCK_HTVS_1-003_lib.mae

>  <canonical_smiles>  (531) 
C[NH+](C)Cc1ccc(CNc2cc(F)cnc2NC(=O)Cc2ccccc2)cc1

>  <scaffold>  (531) 
O=C(Cc1ccccc1)Nc1ncccc1NCc1ccccc1

>  <molecular_formula>  (531) 
C23H26FN4O+

$$$$
ATP-HTVS-52D7AA6D1B75
     RDKit          3D

 56 58  0  0  0  0  0  0  0  0999 V2000
  198.8628  181.9351  152.9105 S   0  0  0  0  0  0  0  0  0  0  0  0
  198.4215  180.2613  153.1488 C   0  0  0  0  0  0  0  0  0  0  0  0
  198.0242  179.9901  154.3927 N   0  0  0  0  0  0  0  0  0  0  0  0
  198.0952  181.0966  155.2387 C   0  0  0  0  0  0  0  0  0  0  0  0
  198.5492  182.2254  154.5945 C   0  0  0  0  0  0  0  0  0  0  0  0
  197.7439  180.9234  156.6768 C   0  0  1  0  0  0  0  0  0  0  0  0
  196.6175  181.8106  157.0814 N   0  0  1  0  0  0  0  0  0  0  0  0
  196.3253  181.7420  158.5286 C   0  0  1  0  0  0  0  0  0  0  0  0
  195.9792  183.1145  159.0751 C   0  0  0  0  0  0  0  0  0  0  0  0
  196.9511  184.0713  159.4699 C   0  0  0  0  0  0  0  0  0  0  0  0
  196.5273  185.3305  159.9677 C   0  0  0  0  0  0  0  0  0  0  0  0
  195.1566  185.6182  160.0995 C   0  0  0  0  0  0  0  0  0  0  0  0
  194.2013  184.6601  159.7318 C   0  0  0  0  0  0  0  0  0  0  0  0
  194.6081  183.4219  159.2070 C   0  0  0  0  0  0  0  0  0  0  0  0
  198.4525  183.8108  159.3992 C   0  0  1  0  0  0  0  0  0  0  0  0
  198.9691  183.7883  158.0038 N   0  0  2  0  0  0  0  0  0  0  0  0
  200.3479  183.2621  157.9150 C   0  0  2  0  0  0  0  0  0  0  0  0
  198.7916  185.0748  157.2798 C   0  0  2  0  0  0  0  0  0  0  0  0
  198.5867  179.2458  152.0892 C   0  0  1  0  0  0  0  0  0  0  0  0
  197.6602  179.5716  151.0607 O   0  0  0  0  0  0  0  0  0  0  0  0
  197.8859  179.1007  149.7866 C   0  0  0  0  0  0  0  0  0  0  0  0
  196.7744  179.0363  148.9194 C   0  0  0  0  0  0  0  0  0  0  0  0
  196.9298  178.6130  147.5827 C   0  0  0  0  0  0  0  0  0  0  0  0
  198.2090  178.2826  147.0931 C   0  0  0  0  0  0  0  0  0  0  0  0
  199.3250  178.3577  147.9488 C   0  0  0  0  0  0  0  0  0  0  0  0
  199.1642  178.7564  149.2905 C   0  0  0  0  0  0  0  0  0  0  0  0
  198.3952  177.8570  145.6528 C   0  0  2  0  0  0  0  0  0  0  0  0
  196.7852  182.7647  156.8025 H   0  0  0  0  0  0  0  0  0  0  0  0
  198.7410  183.2185  154.9669 H   0  0  0  0  0  0  0  0  0  0  0  0
  197.5270  179.8810  156.8967 H   0  0  0  0  0  0  0  0  0  0  0  0
  198.6290  181.1253  157.2761 H   0  0  0  0  0  0  0  0  0  0  0  0
  195.4827  181.0714  158.6738 H   0  0  0  0  0  0  0  0  0  0  0  0
  197.1412  181.3170  159.1098 H   0  0  0  0  0  0  0  0  0  0  0  0
  197.2479  186.0785  160.2647 H   0  0  0  0  0  0  0  0  0  0  0  0
  194.8442  186.5751  160.4862 H   0  0  0  0  0  0  0  0  0  0  0  0
  193.1520  184.8800  159.8379 H   0  0  0  0  0  0  0  0  0  0  0  0
  193.8532  182.7027  158.9238 H   0  0  0  0  0  0  0  0  0  0  0  0
  198.9760  184.5757  159.9683 H   0  0  0  0  0  0  0  0  0  0  0  0
  198.6584  182.8627  159.8952 H   0  0  0  0  0  0  0  0  0  0  0  0
  201.0747  183.9220  158.3865 H   0  0  0  0  0  0  0  0  0  0  0  0
  200.6281  183.1265  156.8710 H   0  0  0  0  0  0  0  0  0  0  0  0
  200.4191  182.2824  158.3881 H   0  0  0  0  0  0  0  0  0  0  0  0
  199.3608  185.8795  157.7395 H   0  0  0  0  0  0  0  0  0  0  0  0
  197.7456  185.3730  157.2485 H   0  0  0  0  0  0  0  0  0  0  0  0
  199.1179  184.9893  156.2458 H   0  0  0  0  0  0  0  0  0  0  0  0
  199.6438  179.2956  151.8122 H   0  0  0  0  0  0  0  0  0  0  0  0
  198.3552  178.2591  152.4930 H   0  0  0  0  0  0  0  0  0  0  0  0
  195.7839  179.3059  149.2628 H   0  0  0  0  0  0  0  0  0  0  0  0
  196.0745  178.5503  146.9208 H   0  0  0  0  0  0  0  0  0  0  0  0
  200.3105  178.1233  147.5749 H   0  0  0  0  0  0  0  0  0  0  0  0
  200.0551  178.8252  149.8958 H   0  0  0  0  0  0  0  0  0  0  0  0
  199.2710  177.2176  145.5403 H   0  0  0  0  0  0  0  0  0  0  0  0
  198.5216  178.7171  144.9973 H   0  0  0  0  0  0  0  0  0  0  0  0
  197.5077  177.3213  145.3323 H   0  0  0  0  0  0  0  0  0  0  0  0
  198.4072  183.1057  157.5249 H   0  0  0  0  0  0  0  0  0  0  0  0
  195.7843  181.5117  156.5860 H   0  0  0  0  0  0  0  0  0  0  0  0
  1  2  1  0
  1  5  1  0
  2  3  2  0
  2 19  1  0
  3  4  1  0
  4  5  2  0
  4  6  1  0
  5 29  1  0
  6  7  1  0
  6 30  1  6
  6 31  1  0
  7  8  1  0
  7 28  1  6
  7 56  1  0
  8  9  1  0
  8 32  1  6
  8 33  1  0
  9 10  1  0
  9 14  2  0
 10 11  2  0
 10 15  1  0
 11 12  1  0
 11 34  1  0
 12 13  2  0
 12 35  1  0
 13 14  1  0
 13 36  1  0
 14 37  1  0
 15 16  1  0
 15 38  1  1
 15 39  1  0
 16 17  1  0
 16 18  1  0
 16 55  1  6
 17 40  1  1
 17 41  1  0
 17 42  1  0
 18 43  1  1
 18 44  1  0
 18 45  1  0
 19 20  1  0
 19 46  1  6
 19 47  1  0
 20 21  1  0
 21 22  1  0
 21 26  2  0
 22 23  2  0
 22 48  1  0
 23 24  1  0
 23 49  1  0
 24 25  2  0
 24 27  1  0
 25 26  1  0
 25 50  1  0
 26 51  1  0
 27 52  1  1
 27 53  1  0
 27 54  1  0
M  CHG  2   7   1  16   1
M  END
>  <s_epik_cmdline>  (532) 
J2VwaWtfcHl0aG9uJywgJy1waCcsICc3LjAwMDAwMCcsICctcGh0JywgJzIuMDAwMDAwJywgJy1tcycsICcxNicsICctdG4nLCAnOCcsICctbWEnLCAnMjAwJywgJy1pbWFlJywgJzxpbmZpbGUubWFlPicsICctb21hZScsICc8b3V0ZmlsZS5tYWU+Jw==

>  <s_epik_input>  (532) 
W2NIXTFbY0hdYyhbQ0gzXSlbY0hdW2NIXWMxT1tDSDJdYzJzW2NIXWMobjIpW0NIMl1bTkhdW0NIMl1jM2MoW0NIMl1OKFtDSDNdKVtDSDNdKVtjSF1bY0hdW2NIXVtjSF0z

>  <s_i_glide_gridfile>  (532) 
ATP-Grid

>  <s_lp_Force_Field>  (532) 
OPLS_2005

>  <s_lp_Variant>  (532) 
m_270004bbb____8353320____7548986-1

>  <s_lp_label>  (532) 
724_sdstereoexpander_1_neutralizer_1_epik_1_stereoizer_1

>  <s_m_source_file>  (532) 
ATP-VSW-LIGPREP-002-in.maegz

>  <s_sd_BIOSOLVEIT.INFINISEE\_QUERY\_NAME>  (532) 
Ref-Lig

>  <s_sd_BIOSOLVEIT.INFINISEE\_QUERY\_SMILES>  (532) 
S(c1nc2c(cc1C[NH2+]Cc3ccc(cc3)C[NH+](C)C)cccc2)Cc4ccccc4

>  <s_sd_BIOSOLVEIT.INFINISEE\_REACTION\_NAME>  (532) 
m_270004bbb

>  <s_sd_BIOSOLVEIT.INFINISEE\_REAGENT1\_SMILES>  (532) 
[R1*]NCc1c(cccc1)CN(C)C

>  <s_sd_BIOSOLVEIT.INFINISEE\_REAGENT2\_SMILES>  (532) 
[R1*]CC=1N=C(SC1)COc2ccc(cc2)C

>  <s_sd_BIOSOLVEIT.INFINISEE\_SPACE>  (532) 
REALSpace_44bn_2023-08

>  <s_vsw_compound_code>  (532) 
23138

>  <s_vsw_variant>  (532) 
23138-1

>  <r_epik_Charging_Adjusted_Penalty>  (532) 
0.49843931718293

>  <r_epik_Ionization_Penalty>  (532) 
0.25130000000000002

>  <r_epik_Ionization_Penalty_Charging>  (532) 
0.25130000000000002

>  <r_epik_Ionization_Penalty_Neutral>  (532) 
0

>  <r_epik_State_Penalty>  (532) 
0.24709999999999999

>  <r_i_docking_score>  (532) 
-4.3219330691039897

>  <r_i_glide_ecoul>  (532) 
-10.0490055084229

>  <r_i_glide_eff_state_penalty>  (532) 
0.24709999999999999

>  <r_i_glide_einternal>  (532) 
4.5835523605346697

>  <r_i_glide_emodel>  (532) 
-53.303366872081199

>  <r_i_glide_energy>  (532) 
-37.495489120483398

>  <r_i_glide_erotb>  (532) 
1.05679400597813

>  <r_i_glide_esite>  (532) 
-0.092953663397459793

>  <r_i_glide_evdw>  (532) 
-27.446483612060501

>  <r_i_glide_gscore>  (532) 
-4.5690330691039902

>  <r_i_glide_hbond>  (532) 
0

>  <r_i_glide_ligand_efficiency>  (532) 
-0.16007159515200001

>  <r_i_glide_ligand_efficiency_ln>  (532) 
-1.0060747658520699

>  <r_i_glide_ligand_efficiency_sa>  (532) 
-0.48021478492842901

>  <r_i_glide_lipo>  (532) 
-1.6342290411818401

>  <r_i_glide_metal>  (532) 
-0

>  <r_i_glide_rewards>  (532) 
-1.0189693636363599

>  <r_lp_Energy>  (532) 
17.253588000000001

>  <r_lp_tautomer_probability>  (532) 
1

>  <r_qp_ACxDN^.5/SA>  (532) 
0.0092411999999999998

>  <r_qp_CIQPlogS>  (532) 
-3.5950000000000002

>  <r_qp_EA(eV)>  (532) 
0.78900000000000003

>  <r_qp_FISA>  (532) 
18.077000000000002

>  <r_qp_FOSA>  (532) 
306.642

>  <r_qp_IP(eV)>  (532) 
8.8819999999999997

>  <r_qp_Jm>  (532) 
0.35666226542852603

>  <r_qp_PISA>  (532) 
253.33699999999999

>  <r_qp_PSA>  (532) 
34.880000000000003

>  <r_qp_PercentHumanOralAbsorption>  (532) 
96.007999999999996

>  <r_qp_QPPCaco>  (532) 
415.21499999999997

>  <r_qp_QPPMDCK>  (532) 
408.709

>  <r_qp_QPlogBB>  (532) 
0.77200000000000002

>  <r_qp_QPlogHERG>  (532) 
-6.085

>  <r_qp_QPlogKhsa>  (532) 
0.42899999999999999

>  <r_qp_QPlogKp>  (532) 
-4.2210000000000001

>  <r_qp_QPlogPC16>  (532) 
11.973000000000001

>  <r_qp_QPlogPo/w>  (532) 
3.7919999999999998

>  <r_qp_QPlogPoct>  (532) 
17.140999999999998

>  <r_qp_QPlogPw>  (532) 
8.2210000000000001

>  <r_qp_QPlogS>  (532) 
-1.8080000000000001

>  <r_qp_QPpolrz>  (532) 
38.951000000000001

>  <r_qp_SASA>  (532) 
622.21600000000001

>  <r_qp_SAamideO>  (532) 
0

>  <r_qp_SAfluorine>  (532) 
0

>  <r_qp_WPSA>  (532) 
44.159999999999997

>  <r_qp_accptHB>  (532) 
5.75

>  <r_qp_dip^2/V>  (532) 
0.0011207000000000001

>  <r_qp_dipole>  (532) 
1.165

>  <r_qp_donorHB>  (532) 
1

>  <r_qp_glob>  (532) 
0.88306169999999995

>  <r_qp_mol_MW>  (532) 
381.53500000000003

>  <r_qp_volume>  (532) 
1211.018

>  <r_sd_BIOSOLVEIT.INFINISEE\_FTREES\_SIMILARITY>  (532) 
0.92800000000000005

>  <r_sd_BIOSOLVEIT.LOGP>  (532) 
1.93862

>  <r_sd_BIOSOLVEIT.MOLECULAR\_WEIGHT>  (532) 
383.55599999999998

>  <r_sd_BIOSOLVEIT.TPSA>  (532) 
43.170000000000002

>  <i_epik_Tot_Q>  (532) 
2

>  <i_epik_Tot_abs_Q>  (532) 
2

>  <i_f3d_flags>  (532) 
0

>  <i_i_glide_confnum>  (532) 
3

>  <i_i_glide_lignum>  (532) 
223

>  <i_i_glide_posenum>  (532) 
15

>  <i_i_glide_rotatable_bonds>  (532) 
9

>  <i_lp_mmshare_version>  (532) 
65135

>  <i_m_ct_format>  (532) 
2

>  <i_m_source_file_index>  (532) 
724

>  <i_qp_#NandO>  (532) 
4

>  <i_qp_#acid>  (532) 
0

>  <i_qp_#amide>  (532) 
0

>  <i_qp_#amidine>  (532) 
0

>  <i_qp_#amine>  (532) 
2

>  <i_qp_#in34>  (532) 
0

>  <i_qp_#in56>  (532) 
17

>  <i_qp_#metab>  (532) 
9

>  <i_qp_#nonHatm>  (532) 
27

>  <i_qp_#noncon>  (532) 
0

>  <i_qp_#ringatoms>  (532) 
17

>  <i_qp_#rotor>  (532) 
9

>  <i_qp_#rtvFG>  (532) 
0

>  <i_qp_#stars>  (532) 
1

>  <i_qp_CNS>  (532) 
2

>  <i_qp_HumanOralAbsorption>  (532) 
3

>  <i_qp_RuleOfFive>  (532) 
0

>  <i_qp_RuleOfThree>  (532) 
1

>  <i_sd_BIOSOLVEIT.INFINISEE\_REAGENT1\_NAME>  (532) 
8353320

>  <i_sd_BIOSOLVEIT.INFINISEE\_REAGENT2\_NAME>  (532) 
7548986

>  <i_sd_BIOSOLVEIT.INFINISEE\_RESULT\_RANK>  (532) 
6053

>  <i_sd_version>  (532) 
0

>  <b_lp_Chiralities_Consistent>  (532) 
1

>  <b_sd_chiral_flag>  (532) 
0

>  <canonical_id>  (532) 
ATP-HTVS-52D7AA6D1B75

>  <compound_code>  (532) 
23138

>  <title>  (532) 
m_270004bbb____8353320____7548986

>  <variant>  (532) 
23138-1

>  <source_file>  (532) 
运行/运行/ATP-VSW/ATP-VSW-DOCK_HTVS_1-002_lib.maegz

>  <canonical_smiles>  (532) 
Cc1ccc(OCc2nc(C[NH2+]Cc3ccccc3C[NH+](C)C)cs2)cc1

>  <scaffold>  (532) 
c1ccc(C[NH2+]Cc2csc(COc3ccccc3)n2)cc1

>  <molecular_formula>  (532) 
C22H29N3OS+2

$$$$
ATP-HTVS-52F407909F9A
     RDKit          3D

 51 54  0  0  0  0  0  0  0  0999 V2000
  199.1361  179.5027  156.5653 O   0  0  0  0  0  0  0  0  0  0  0  0
  198.4166  180.4878  155.8404 C   0  0  2  0  0  0  0  0  0  0  0  0
  198.0836  180.0317  154.4279 C   0  0  0  0  0  0  0  0  0  0  0  0
  196.8511  180.3884  153.8478 C   0  0  0  0  0  0  0  0  0  0  0  0
  196.5587  180.0246  152.5186 C   0  0  0  0  0  0  0  0  0  0  0  0
  197.4892  179.2970  151.7317 C   0  0  0  0  0  0  0  0  0  0  0  0
  197.1994  178.9492  150.3891 N   0  0  0  0  0  0  0  0  0  0  0  0
  198.1331  178.1320  149.6215 C   0  0  2  0  0  0  0  0  0  0  0  0
  196.0951  179.5948  149.6910 C   0  0  2  0  0  0  0  0  0  0  0  0
  198.7171  178.9305  152.3381 C   0  0  0  0  0  0  0  0  0  0  0  0
  199.0136  179.2965  153.6657 C   0  0  0  0  0  0  0  0  0  0  0  0
  199.2237  181.8075  155.7998 C   0  0  1  0  0  0  0  0  0  0  0  0
  199.2690  182.5256  157.1465 C   0  0  0  0  0  0  0  0  0  0  0  0
  200.4039  182.5346  158.0022 C   0  0  0  0  0  0  0  0  0  0  0  0
  200.2965  183.2106  159.2549 C   0  0  0  0  0  0  0  0  0  0  0  0
  199.1642  183.8320  159.6441 N   0  0  0  0  0  0  0  0  0  0  0  0
  198.0790  183.8225  158.8394 C   0  0  0  0  0  0  0  0  0  0  0  0
  196.8642  184.4850  159.3708 C   0  0  0  0  0  0  0  0  0  0  0  0
  197.0599  185.6626  160.0107 N   0  0  0  0  0  0  0  0  0  0  0  0
  195.9955  186.3133  160.5237 C   0  0  0  0  0  0  0  0  0  0  0  0
  194.6810  185.8328  160.4210 C   0  0  0  0  0  0  0  0  0  0  0  0
  194.4632  184.6278  159.7319 C   0  0  0  0  0  0  0  0  0  0  0  0
  195.5714  183.9396  159.1989 C   0  0  0  0  0  0  0  0  0  0  0  0
  198.0996  183.1877  157.5836 C   0  0  0  0  0  0  0  0  0  0  0  0
  201.3995  183.2013  160.1374 C   0  0  0  0  0  0  0  0  0  0  0  0
  202.5962  182.5421  159.8035 C   0  0  0  0  0  0  0  0  0  0  0  0
  202.6959  181.8726  158.5712 C   0  0  0  0  0  0  0  0  0  0  0  0
  201.6070  181.8595  157.6787 C   0  0  0  0  0  0  0  0  0  0  0  0
  198.5159  178.9073  156.9823 H   0  0  0  0  0  0  0  0  0  0  0  0
  197.4749  180.6570  156.3664 H   0  0  0  0  0  0  0  0  0  0  0  0
  196.1270  180.9519  154.4206 H   0  0  0  0  0  0  0  0  0  0  0  0
  195.5931  180.3118  152.1296 H   0  0  0  0  0  0  0  0  0  0  0  0
  198.1717  177.1234  150.0327 H   0  0  0  0  0  0  0  0  0  0  0  0
  199.1371  178.5583  149.6322 H   0  0  0  0  0  0  0  0  0  0  0  0
  197.8313  178.0520  148.5757 H   0  0  0  0  0  0  0  0  0  0  0  0
  196.2821  180.6659  149.6185 H   0  0  0  0  0  0  0  0  0  0  0  0
  195.1502  179.4368  150.2106 H   0  0  0  0  0  0  0  0  0  0  0  0
  195.9766  179.2017  148.6806 H   0  0  0  0  0  0  0  0  0  0  0  0
  199.4549  178.3516  151.8064 H   0  0  0  0  0  0  0  0  0  0  0  0
  199.9662  179.0162  154.0926 H   0  0  0  0  0  0  0  0  0  0  0  0
  200.2084  181.6347  155.3660 H   0  0  0  0  0  0  0  0  0  0  0  0
  198.7347  182.5016  155.1119 H   0  0  0  0  0  0  0  0  0  0  0  0
  196.1986  187.2411  161.0386 H   0  0  0  0  0  0  0  0  0  0  0  0
  193.8522  186.3841  160.8408 H   0  0  0  0  0  0  0  0  0  0  0  0
  193.4635  184.2402  159.6068 H   0  0  0  0  0  0  0  0  0  0  0  0
  195.4344  183.0068  158.6716 H   0  0  0  0  0  0  0  0  0  0  0  0
  197.2071  183.2016  156.9735 H   0  0  0  0  0  0  0  0  0  0  0  0
  201.3097  183.6927  161.0987 H   0  0  0  0  0  0  0  0  0  0  0  0
  203.4262  182.5332  160.4961 H   0  0  0  0  0  0  0  0  0  0  0  0
  203.6036  181.3456  158.3165 H   0  0  0  0  0  0  0  0  0  0  0  0
  201.7197  181.3036  156.7601 H   0  0  0  0  0  0  0  0  0  0  0  0
  1  2  1  0
  1 29  1  0
  2  3  1  0
  2 12  1  0
  2 30  1  1
  3  4  1  0
  3 11  2  0
  4  5  2  0
  4 31  1  0
  5  6  1  0
  5 32  1  0
  6  7  1  0
  6 10  2  0
  7  8  1  0
  7  9  1  0
  8 33  1  1
  8 34  1  0
  8 35  1  0
  9 36  1  6
  9 37  1  0
  9 38  1  0
 10 11  1  0
 10 39  1  0
 11 40  1  0
 12 13  1  0
 12 41  1  6
 12 42  1  0
 13 14  1  0
 13 24  2  0
 14 15  1  0
 14 28  2  0
 15 16  1  0
 15 25  2  0
 16 17  2  0
 17 18  1  0
 17 24  1  0
 18 19  1  0
 18 23  2  0
 19 20  2  0
 20 21  1  0
 20 43  1  0
 21 22  2  0
 21 44  1  0
 22 23  1  0
 22 45  1  0
 23 46  1  0
 24 47  1  0
 25 26  1  0
 25 48  1  0
 26 27  2  0
 26 49  1  0
 27 28  1  0
 27 50  1  0
 28 51  1  0
M  END
>  <s_epik_cmdline>  (533) 
J2VwaWtfcHl0aG9uJywgJy1waCcsICc3LjAwMDAwMCcsICctcGh0JywgJzIuMDAwMDAwJywgJy1tcycsICcxNicsICctdG4nLCAnOCcsICctbWEnLCAnMjAwJywgJy1pbWFlJywgJzxpbmZpbGUubWFlPicsICctb21hZScsICc8b3V0ZmlsZS5tYWU+Jw==

>  <s_epik_input>  (533) 
W0NIM11OKFtDSDNdKWMoW2NIXVtjSF0xKVtjSF1bY0hdYzFbQ0BASF0oW09IXSlbQ0gyXWMyW2NIXWMobmMoYzIzKVtjSF1bY0hdW2NIXVtjSF0zKS1jNG5bY0hdW2NIXVtjSF1bY0hdNA==

>  <s_i_glide_gridfile>  (533) 
ATP-Grid

>  <s_lp_Force_Field>  (533) 
OPLS_2005

>  <s_lp_Variant>  (533) 
rxn112____EMOL300011657____EMOL193759265-2

>  <s_lp_label>  (533) 
2782_sdstereoexpander_2_neutralizer_1_epik_1_stereoizer_1

>  <s_m_source_file>  (533) 
ATP-VSW-LIGPREP-002-in.maegz

>  <s_sd_BIOSOLVEIT.INFINISEE\_QUERY\_NAME>  (533) 
Ref-Lig

>  <s_sd_BIOSOLVEIT.INFINISEE\_QUERY\_SMILES>  (533) 
S(c1nc2c(cc1C[NH2+]Cc3ccc(cc3)C[NH+](C)C)cccc2)Cc4ccccc4

>  <s_sd_BIOSOLVEIT.INFINISEE\_REACTION\_NAME>  (533) 
rxn112

>  <s_sd_BIOSOLVEIT.INFINISEE\_REAGENT1\_NAME>  (533) 
EMOL300011657

>  <s_sd_BIOSOLVEIT.INFINISEE\_REAGENT1\_SMILES>  (533) 
O=C(O)c1c2c(nc(c3ncccc3)c1)cccc2

>  <s_sd_BIOSOLVEIT.INFINISEE\_REAGENT2\_NAME>  (533) 
EMOL193759265

>  <s_sd_BIOSOLVEIT.INFINISEE\_REAGENT2\_SMILES>  (533) 
OC(c1ccc(N(C)C)cc1)CN

>  <s_sd_BIOSOLVEIT.INFINISEE\_SPACE>  (533) 
eXplore_7tr_2022-12

>  <s_vsw_compound_code>  (533) 
88994

>  <s_vsw_variant>  (533) 
88994-2

>  <r_epik_Charging_Adjusted_Penalty>  (533) 
0.0062688797445392

>  <r_epik_Ionization_Penalty>  (533) 
0.0155

>  <r_epik_Ionization_Penalty_Charging>  (533) 
0

>  <r_epik_Ionization_Penalty_Neutral>  (533) 
0.0155

>  <r_epik_State_Penalty>  (533) 
0.0063

>  <r_i_docking_score>  (533) 
-5.2271096919535402

>  <r_i_glide_ecoul>  (533) 
-6.3536353111267099

>  <r_i_glide_eff_state_penalty>  (533) 
0.0063

>  <r_i_glide_einternal>  (533) 
5.5943956375122097

>  <r_i_glide_emodel>  (533) 
-49.141583068117399

>  <r_i_glide_energy>  (533) 
-38.809392452239997

>  <r_i_glide_erotb>  (533) 
0.56501805263999105

>  <r_i_glide_esite>  (533) 
0

>  <r_i_glide_evdw>  (533) 
-32.455757141113303

>  <r_i_glide_gscore>  (533) 
-5.2334096919535398

>  <r_i_glide_hbond>  (533) 
-0.16

>  <r_i_glide_ligand_efficiency>  (533) 
-0.186682488998341

>  <r_i_glide_ligand_efficiency_ln>  (533) 
-1.20657039151232

>  <r_i_glide_ligand_efficiency_sa>  (533) 
-0.56687798670501

>  <r_i_glide_lipo>  (533) 
-2.0672165357461001

>  <r_i_glide_metal>  (533) 
-0

>  <r_i_glide_rewards>  (533) 
-0.99537805512276301

>  <r_lp_Energy>  (533) 
22.344752

>  <r_qp_ACxDN^.5/SA>  (533) 
0.0073585999999999999

>  <r_qp_CIQPlogS>  (533) 
-6.1639999999999997

>  <r_qp_EA(eV)>  (533) 
1.0229999999999999

>  <r_qp_FISA>  (533) 
59.042999999999999

>  <r_qp_FOSA>  (533) 
175.559

>  <r_qp_IP(eV)>  (533) 
7.9690000000000003

>  <r_qp_Jm>  (533) 
0.55276784314725702

>  <r_qp_PISA>  (533) 
404.10500000000002

>  <r_qp_PSA>  (533) 
45.164000000000001

>  <r_qp_PercentHumanOralAbsorption>  (533) 
100

>  <r_qp_QPPCaco>  (533) 
2728.9200000000001

>  <r_qp_QPPMDCK>  (533) 
1464.2139999999999

>  <r_qp_QPlogBB>  (533) 
-0.33700000000000002

>  <r_qp_QPlogHERG>  (533) 
-5.8170000000000002

>  <r_qp_QPlogKhsa>  (533) 
0.71899999999999997

>  <r_qp_QPlogKp>  (533) 
-0.60799999999999998

>  <r_qp_QPlogPC16>  (533) 
12.853999999999999

>  <r_qp_QPlogPo/w>  (533) 
4.915

>  <r_qp_QPlogPoct>  (533) 
17.917000000000002

>  <r_qp_QPlogPw>  (533) 
9.1769999999999996

>  <r_qp_QPlogS>  (533) 
-5.2169999999999996

>  <r_qp_QPpolrz>  (533) 
41.811

>  <r_qp_SASA>  (533) 
638.70799999999997

>  <r_qp_SAamideO>  (533) 
0

>  <r_qp_SAfluorine>  (533) 
0

>  <r_qp_WPSA>  (533) 
0

>  <r_qp_accptHB>  (533) 
4.7000000000000002

>  <r_qp_dip^2/V>  (533) 
0.0099474000000000003

>  <r_qp_dipole>  (533) 
3.4529999999999998

>  <r_qp_donorHB>  (533) 
1

>  <r_qp_glob>  (533) 
0.85426000000000002

>  <r_qp_mol_MW>  (533) 
369.46499999999997

>  <r_qp_volume>  (533) 
1198.3699999999999

>  <r_sd_BIOSOLVEIT.INFINISEE\_FTREES\_SIMILARITY>  (533) 
0.90700000000000003

>  <r_sd_BIOSOLVEIT.LOGP>  (533) 
4.6388999999999996

>  <r_sd_BIOSOLVEIT.MOLECULAR\_WEIGHT>  (533) 
369.46600000000001

>  <r_sd_BIOSOLVEIT.TPSA>  (533) 
49.25

>  <i_epik_Tot_Q>  (533) 
0

>  <i_epik_Tot_abs_Q>  (533) 
0

>  <i_f3d_flags>  (533) 
0

>  <i_i_glide_confnum>  (533) 
4

>  <i_i_glide_lignum>  (533) 
1342

>  <i_i_glide_posenum>  (533) 
16

>  <i_i_glide_rotatable_bonds>  (533) 
6

>  <i_lp_mmshare_version>  (533) 
65135

>  <i_m_ct_format>  (533) 
2

>  <i_m_source_file_index>  (533) 
2782

>  <i_qp_#NandO>  (533) 
4

>  <i_qp_#acid>  (533) 
0

>  <i_qp_#amide>  (533) 
0

>  <i_qp_#amidine>  (533) 
0

>  <i_qp_#amine>  (533) 
0

>  <i_qp_#in34>  (533) 
0

>  <i_qp_#in56>  (533) 
22

>  <i_qp_#metab>  (533) 
5

>  <i_qp_#nonHatm>  (533) 
28

>  <i_qp_#noncon>  (533) 
0

>  <i_qp_#ringatoms>  (533) 
22

>  <i_qp_#rotor>  (533) 
6

>  <i_qp_#rtvFG>  (533) 
0

>  <i_qp_#stars>  (533) 
0

>  <i_qp_CNS>  (533) 
0

>  <i_qp_HumanOralAbsorption>  (533) 
3

>  <i_qp_RuleOfFive>  (533) 
0

>  <i_qp_RuleOfThree>  (533) 
0

>  <i_sd_BIOSOLVEIT.INFINISEE\_RESULT\_RANK>  (533) 
61881

>  <i_sd_version>  (533) 
0

>  <b_lp_Chiralities_Consistent>  (533) 
1

>  <b_sd_chiral_flag>  (533) 
0

>  <canonical_id>  (533) 
ATP-HTVS-52F407909F9A

>  <compound_code>  (533) 
88994

>  <title>  (533) 
rxn112____EMOL300011657____EMOL193759265

>  <variant>  (533) 
88994-2

>  <source_file>  (533) 
运行/运行/ATP-VSW/ATP-VSW-DOCK_HTVS_1-002_lib.maegz

>  <canonical_smiles>  (533) 
CN(C)c1ccc([C@@H](O)Cc2cc(-c3ccccn3)nc3ccccc23)cc1

>  <scaffold>  (533) 
c1ccc(CCc2cc(-c3ccccn3)nc3ccccc23)cc1

>  <molecular_formula>  (533) 
C24H23N3O

$$$$
ATP-HTVS-53075BACB2C6
     RDKit          3D

 54 56  0  0  0  0  0  0  0  0999 V2000
  200.3413  189.8925  152.5607 Cl  0  0  0  0  0  0  0  0  0  0  0  0
  199.7072  188.4029  153.1286 C   0  0  0  0  0  0  0  0  0  0  0  0
  199.4359  187.1186  151.9938 S   0  0  0  0  0  0  0  0  0  0  0  0
  198.8098  186.0925  153.2704 C   0  0  0  0  0  0  0  0  0  0  0  0
  198.3639  184.7539  152.8499 C   0  0  0  0  0  0  0  0  0  0  0  0
  198.7135  184.3018  151.7639 O   0  0  0  0  0  0  0  0  0  0  0  0
  197.5520  184.0923  153.7016 N   0  0  0  0  0  0  0  0  0  0  0  0
  196.9222  182.7783  153.4527 C   0  0  1  0  0  0  0  0  0  0  0  0
  196.5676  182.6168  152.0339 C   0  0  0  0  0  0  0  0  0  0  0  0
  196.2906  182.4852  150.9196 N   0  0  0  0  0  0  0  0  0  0  0  0
  197.7731  181.5886  153.9105 C   0  0  0  0  0  0  0  0  0  0  0  0
  199.1162  181.4909  153.5386 C   0  0  0  0  0  0  0  0  0  0  0  0
  199.9111  180.4140  153.9913 C   0  0  0  0  0  0  0  0  0  0  0  0
  199.3694  179.4635  154.8904 C   0  0  0  0  0  0  0  0  0  0  0  0
  200.1414  178.4257  155.3336 F   0  0  0  0  0  0  0  0  0  0  0  0
  198.0315  179.5625  155.2774 C   0  0  0  0  0  0  0  0  0  0  0  0
  197.2378  180.5453  154.6971 C   0  0  0  0  0  0  0  0  0  0  0  0
  198.8694  186.7203  154.4908 C   0  0  0  0  0  0  0  0  0  0  0  0
  198.4909  186.1700  155.7275 N   0  0  0  0  0  0  0  0  0  0  0  0
  197.1810  186.5291  156.2527 C   0  0  1  0  0  0  0  0  0  0  0  0
  196.9244  185.9677  157.6338 C   0  0  0  0  0  0  0  0  0  0  0  0
  197.0318  184.6197  157.8632 C   0  0  0  0  0  0  0  0  0  0  0  0
  196.5544  183.9732  159.0372 C   0  0  0  0  0  0  0  0  0  0  0  0
  196.1920  184.8160  160.1163 C   0  0  0  0  0  0  0  0  0  0  0  0
  196.2544  186.2144  159.9628 C   0  0  0  0  0  0  0  0  0  0  0  0
  196.5681  186.7994  158.7171 C   0  0  0  0  0  0  0  0  0  0  0  0
  196.4218  182.4807  159.1472 C   0  0  1  0  0  0  0  0  0  0  0  0
  195.5937  181.8466  158.0678 N   0  0  1  0  0  0  0  0  0  0  0  0
  194.1395  182.0829  158.1993 C   0  0  2  0  0  0  0  0  0  0  0  0
  196.0009  182.2030  156.7298 C   0  0  2  0  0  0  0  0  0  0  0  0
  199.3731  188.0535  154.4081 C   0  0  0  0  0  0  0  0  0  0  0  0
  197.3280  184.5614  154.5671 H   0  0  0  0  0  0  0  0  0  0  0  0
  195.9771  182.7839  153.9876 H   0  0  0  0  0  0  0  0  0  0  0  0
  199.5583  182.2204  152.8438 H   0  0  0  0  0  0  0  0  0  0  0  0
  200.9354  180.3081  153.6373 H   0  0  0  0  0  0  0  0  0  0  0  0
  197.6082  178.8848  155.9935 H   0  0  0  0  0  0  0  0  0  0  0  0
  196.2016  180.4567  154.9249 H   0  0  0  0  0  0  0  0  0  0  0  0
  198.7206  185.1941  155.8426 H   0  0  0  0  0  0  0  0  0  0  0  0
  197.0726  187.6169  156.2668 H   0  0  0  0  0  0  0  0  0  0  0  0
  196.4143  186.1654  155.5481 H   0  0  0  0  0  0  0  0  0  0  0  0
  197.4587  184.0638  157.0315 H   0  0  0  0  0  0  0  0  0  0  0  0
  195.9198  184.3729  161.0663 H   0  0  0  0  0  0  0  0  0  0  0  0
  196.0474  186.8584  160.8177 H   0  0  0  0  0  0  0  0  0  0  0  0
  196.5929  187.8752  158.5922 H   0  0  0  0  0  0  0  0  0  0  0  0
  197.4164  182.0278  159.1430 H   0  0  0  0  0  0  0  0  0  0  0  0
  195.9608  182.1817  160.1171 H   0  0  0  0  0  0  0  0  0  0  0  0
  193.9242  183.1344  158.1052 H   0  0  0  0  0  0  0  0  0  0  0  0
  193.7731  181.6914  159.1593 H   0  0  0  0  0  0  0  0  0  0  0  0
  193.6144  181.5348  157.4007 H   0  0  0  0  0  0  0  0  0  0  0  0
  195.7703  183.1960  156.4268 H   0  0  0  0  0  0  0  0  0  0  0  0
  195.3647  181.6957  156.0450 H   0  0  0  0  0  0  0  0  0  0  0  0
  197.0613  182.0049  156.6426 H   0  0  0  0  0  0  0  0  0  0  0  0
  199.4771  188.6923  155.2706 H   0  0  0  0  0  0  0  0  0  0  0  0
  195.7184  180.8451  158.1410 H   0  0  0  0  0  0  0  0  0  0  0  0
  1  2  1  0
  2  3  1  0
  2 31  2  0
  3  4  1  0
  4  5  1  0
  4 18  2  0
  5  6  2  0
  5  7  1  0
  7  8  1  0
  7 32  1  0
  8  9  1  0
  8 11  1  0
  8 33  1  1
  9 10  3  0
 11 12  1  0
 11 17  2  0
 12 13  2  0
 12 34  1  0
 13 14  1  0
 13 35  1  0
 14 15  1  0
 14 16  2  0
 16 17  1  0
 16 36  1  0
 17 37  1  0
 18 19  1  0
 18 31  1  0
 19 20  1  0
 19 38  1  0
 20 21  1  0
 20 39  1  1
 20 40  1  0
 21 22  2  0
 21 26  1  0
 22 23  1  0
 22 41  1  0
 23 24  2  0
 23 27  1  0
 24 25  1  0
 24 42  1  0
 25 26  2  0
 25 43  1  0
 26 44  1  0
 27 28  1  0
 27 45  1  1
 27 46  1  0
 28 29  1  0
 28 30  1  0
 28 54  1  6
 29 47  1  1
 29 48  1  0
 29 49  1  0
 30 50  1  1
 30 51  1  0
 30 52  1  0
 31 53  1  0
M  CHG  1  28   1
M  END
>  <s_epik_cmdline>  (534) 
J2VwaWtfcHl0aG9uJywgJy1waCcsICc3LjAwMDAwMCcsICctcGh0JywgJzIuMDAwMDAwJywgJy1tcycsICcxNicsICctdG4nLCAnOCcsICctbWEnLCAnMjAwJywgJy1pbWFlJywgJzxpbmZpbGUubWFlPicsICctb21hZScsICc8b3V0ZmlsZS5tYWU+Jw==

>  <s_epik_input>  (534) 
W2NIXTFbY0hdW2NIXWMoW0NIMl1OKFtDSDNdKVtDSDNdKVtjSF1jMVtDSDJdW05IXWMoW2NIXTIpYyhzYzJDbClDKD1PKVtOSF1bQ0BASF0oQyNOKWMzW2NIXVtjSF1jKEYpW2NIXVtjSF0z

>  <s_i_glide_gridfile>  (534) 
ATP-Grid

>  <s_lp_Force_Field>  (534) 
OPLS_2005

>  <s_lp_Variant>  (534) 
rxn512b____EMOL906257____EMOL49851977____EMOL2873214-1

>  <s_lp_label>  (534) 
2922_sdstereoexpander_1_neutralizer_1_epik_1_stereoizer_1

>  <s_m_source_file>  (534) 
ATP-VSW-LIGPREP-003-in.maegz

>  <s_sd_BIOSOLVEIT.INFINISEE\_QUERY\_NAME>  (534) 
Ref-Lig

>  <s_sd_BIOSOLVEIT.INFINISEE\_QUERY\_SMILES>  (534) 
S(c1nc2c(cc1C[NH2+]Cc3ccc(cc3)C[NH+](C)C)cccc2)Cc4ccccc4

>  <s_sd_BIOSOLVEIT.INFINISEE\_REACTION\_NAME>  (534) 
rxn512b

>  <s_sd_BIOSOLVEIT.INFINISEE\_REAGENT1\_NAME>  (534) 
EMOL906257

>  <s_sd_BIOSOLVEIT.INFINISEE\_REAGENT1\_SMILES>  (534) 
Fc1ccc(cc1)C(N)C#N

>  <s_sd_BIOSOLVEIT.INFINISEE\_REAGENT2\_NAME>  (534) 
EMOL49851977

>  <s_sd_BIOSOLVEIT.INFINISEE\_REAGENT2\_SMILES>  (534) 
BrC1=C(SC(Cl)=C1)C(=O)O

>  <s_sd_BIOSOLVEIT.INFINISEE\_REAGENT3\_NAME>  (534) 
EMOL2873214

>  <s_sd_BIOSOLVEIT.INFINISEE\_REAGENT3\_SMILES>  (534) 
N(Cc1cc(ccc1)CN)(C)C

>  <s_sd_BIOSOLVEIT.INFINISEE\_SPACE>  (534) 
eXplore_7tr_2022-12

>  <s_vsw_compound_code>  (534) 
93475

>  <s_vsw_variant>  (534) 
93475-1

>  <r_epik_Charging_Adjusted_Penalty>  (534) 
0.086140609825027206

>  <r_epik_Ionization_Penalty>  (534) 
0.043200000000000002

>  <r_epik_Ionization_Penalty_Charging>  (534) 
0.043099999999999999

>  <r_epik_Ionization_Penalty_Neutral>  (534) 
0.0001

>  <r_epik_State_Penalty>  (534) 
0.043099999999999999

>  <r_i_docking_score>  (534) 
-4.80489479019906

>  <r_i_glide_ecoul>  (534) 
-10.8324241638184

>  <r_i_glide_eff_state_penalty>  (534) 
0.043099999999999999

>  <r_i_glide_einternal>  (534) 
8.4424982070922905

>  <r_i_glide_emodel>  (534) 
-60.141986773500697

>  <r_i_glide_energy>  (534) 
-43.367271423339801

>  <r_i_glide_erotb>  (534) 
0.67113942638989199

>  <r_i_glide_esite>  (534) 
-0.181535588235027

>  <r_i_glide_evdw>  (534) 
-32.534847259521499

>  <r_i_glide_gscore>  (534) 
-4.8479947901990599

>  <r_i_glide_hbond>  (534) 
-0.20000000000000001

>  <r_i_glide_ligand_efficiency>  (534) 
-0.15499660613545299

>  <r_i_glide_ligand_efficiency_ln>  (534) 
-1.0836510275308699

>  <r_i_glide_ligand_efficiency_sa>  (534) 
-0.48690333914290301

>  <r_i_glide_lipo>  (534) 
-1.3523052775056099

>  <r_i_glide_metal>  (534) 
-0

>  <r_i_glide_rewards>  (534) 
-0.53368736329948796

>  <r_lp_Energy>  (534) 
17.351694999999999

>  <r_lp_tautomer_probability>  (534) 
0.99999274205267796

>  <r_qp_ACxDN^.5/SA>  (534) 
0.0084463000000000003

>  <r_qp_CIQPlogS>  (534) 
-6.0330000000000004

>  <r_qp_EA(eV)>  (534) 
0.95999999999999996

>  <r_qp_FISA>  (534) 
90.382999999999996

>  <r_qp_FOSA>  (534) 
180.34399999999999

>  <r_qp_IP(eV)>  (534) 
8.8190000000000008

>  <r_qp_Jm>  (534) 
3.0021363851804401e-05

>  <r_qp_PISA>  (534) 
286.233

>  <r_qp_PSA>  (534) 
76.959000000000003

>  <r_qp_PercentHumanOralAbsorption>  (534) 
87.587999999999994

>  <r_qp_QPPCaco>  (534) 
85.623999999999995

>  <r_qp_QPPMDCK>  (534) 
294.28500000000003

>  <r_qp_QPlogBB>  (534) 
0.317

>  <r_qp_QPlogHERG>  (534) 
-7.1219999999999999

>  <r_qp_QPlogKhsa>  (534) 
0.71099999999999997

>  <r_qp_QPlogKp>  (534) 
-5.4379999999999997

>  <r_qp_QPlogPC16>  (534) 
13.994999999999999

>  <r_qp_QPlogPo/w>  (534) 
4.4489999999999998

>  <r_qp_QPlogPoct>  (534) 
20.131

>  <r_qp_QPlogPw>  (534) 
9.4329999999999998

>  <r_qp_QPlogS>  (534) 
-4.7439999999999998

>  <r_qp_QPpolrz>  (534) 
44.540999999999997

>  <r_qp_SASA>  (534) 
710.37300000000005

>  <r_qp_SAamideO>  (534) 
0

>  <r_qp_SAfluorine>  (534) 
47.029000000000003

>  <r_qp_WPSA>  (534) 
153.41300000000001

>  <r_qp_accptHB>  (534) 
6

>  <r_qp_dip^2/V>  (534) 
0.0081326999999999997

>  <r_qp_dipole>  (534) 
3.3050000000000002

>  <r_qp_donorHB>  (534) 
1

>  <r_qp_glob>  (534) 
0.8286308

>  <r_qp_mol_MW>  (534) 
456.964

>  <r_qp_volume>  (534) 
1342.8389999999999

>  <r_sd_BIOSOLVEIT.INFINISEE\_FTREES\_SIMILARITY>  (534) 
0.90400000000000003

>  <r_sd_BIOSOLVEIT.LOGP>  (534) 
3.7918799999999999

>  <r_sd_BIOSOLVEIT.MOLECULAR\_WEIGHT>  (534) 
457.97800000000001

>  <r_sd_BIOSOLVEIT.TPSA>  (534) 
69.359999999999999

>  <i_epik_Tot_Q>  (534) 
1

>  <i_epik_Tot_abs_Q>  (534) 
1

>  <i_f3d_flags>  (534) 
0

>  <i_i_glide_confnum>  (534) 
6

>  <i_i_glide_lignum>  (534) 
1431

>  <i_i_glide_posenum>  (534) 
14

>  <i_i_glide_rotatable_bonds>  (534) 
9

>  <i_lp_mmshare_version>  (534) 
65135

>  <i_m_ct_format>  (534) 
2

>  <i_m_source_file_index>  (534) 
2922

>  <i_qp_#NandO>  (534) 
5

>  <i_qp_#acid>  (534) 
0

>  <i_qp_#amide>  (534) 
0

>  <i_qp_#amidine>  (534) 
0

>  <i_qp_#amine>  (534) 
2

>  <i_qp_#in34>  (534) 
0

>  <i_qp_#in56>  (534) 
17

>  <i_qp_#metab>  (534) 
6

>  <i_qp_#nonHatm>  (534) 
31

>  <i_qp_#noncon>  (534) 
0

>  <i_qp_#ringatoms>  (534) 
17

>  <i_qp_#rotor>  (534) 
9

>  <i_qp_#rtvFG>  (534) 
0

>  <i_qp_#stars>  (534) 
0

>  <i_qp_CNS>  (534) 
1

>  <i_qp_HumanOralAbsorption>  (534) 
3

>  <i_qp_RuleOfFive>  (534) 
0

>  <i_qp_RuleOfThree>  (534) 
0

>  <i_sd_BIOSOLVEIT.INFINISEE\_RESULT\_RANK>  (534) 
77237

>  <i_sd_version>  (534) 
0

>  <b_lp_Chiralities_Consistent>  (534) 
1

>  <b_sd_chiral_flag>  (534) 
0

>  <canonical_id>  (534) 
ATP-HTVS-53075BACB2C6

>  <compound_code>  (534) 
93475

>  <title>  (534) 
rxn512b____EMOL906257____EMOL49851977____EMOL2873214

>  <variant>  (534) 
93475-1

>  <source_file>  (534) 
运行/运行/ATP-VSW/ATP-VSW-DOCK_HTVS_1-003_lib/ATP-VSW-DOCK_HTVS_1-003_lib.mae

>  <canonical_smiles>  (534) 
C[NH+](C)Cc1cccc(CNc2cc(Cl)sc2C(=O)N[C@@H](C#N)c2ccc(F)cc2)c1

>  <scaffold>  (534) 
O=C(NCc1ccccc1)c1sccc1NCc1ccccc1

>  <molecular_formula>  (534) 
C23H23ClFN4OS+

$$$$
ATP-HTVS-531A4B252985
     RDKit          3D

 63 66  0  0  0  0  0  0  0  0999 V2000
  203.2739  173.5590  155.7310 Cl  0  0  0  0  0  0  0  0  0  0  0  0
  202.1581  174.7953  155.2737 C   0  0  0  0  0  0  0  0  0  0  0  0
  201.6514  174.8322  153.9534 C   0  0  0  0  0  0  0  0  0  0  0  0
  200.7616  175.8561  153.5743 C   0  0  0  0  0  0  0  0  0  0  0  0
  200.3782  176.8333  154.5181 C   0  0  0  0  0  0  0  0  0  0  0  0
  200.8637  176.7800  155.8405 C   0  0  0  0  0  0  0  0  0  0  0  0
  201.7612  175.7643  156.2209 C   0  0  0  0  0  0  0  0  0  0  0  0
  200.2172  175.9272  152.1577 C   0  0  1  0  0  0  0  0  0  0  0  0
  200.6064  177.1101  151.3981 N   0  0  0  0  0  0  0  0  0  0  0  0
  199.8313  177.4146  150.2573 C   0  0  0  0  0  0  0  0  0  0  0  0
  198.6595  178.2316  150.3720 C   0  0  0  0  0  0  0  0  0  0  0  0
  198.2871  178.7629  151.6505 N   0  0  0  0  0  0  0  0  0  0  0  0
  197.1751  179.4566  151.9854 C   0  0  0  0  0  0  0  0  0  0  0  0
  196.1635  179.5396  151.2901 O   0  0  0  0  0  0  0  0  0  0  0  0
  197.2460  180.1944  153.2936 C   0  0  0  0  0  0  0  0  0  0  0  0
  196.7065  181.4971  153.3947 C   0  0  0  0  0  0  0  0  0  0  0  0
  196.7798  182.1961  154.6164 C   0  0  0  0  0  0  0  0  0  0  0  0
  197.4026  181.6087  155.7405 C   0  0  0  0  0  0  0  0  0  0  0  0
  197.9247  180.3050  155.6438 C   0  0  0  0  0  0  0  0  0  0  0  0
  197.8191  179.5938  154.4358 C   0  0  0  0  0  0  0  0  0  0  0  0
  197.4775  182.3606  157.0561 C   0  0  1  0  0  0  0  0  0  0  0  0
  196.5207  181.8578  158.0753 N   0  0  1  0  0  0  0  0  0  0  0  0
  196.6559  182.5942  159.3483 C   0  0  2  0  0  0  0  0  0  0  0  0
  195.1173  181.8573  157.6213 C   0  0  2  0  0  0  0  0  0  0  0  0
  197.9236  178.5287  149.1929 C   0  0  0  0  0  0  0  0  0  0  0  0
  198.3327  178.0713  147.9938 N   0  0  0  0  0  0  0  0  0  0  0  0
  199.4272  177.2968  147.8276 C   0  0  0  0  0  0  0  0  0  0  0  0
  200.1999  176.9113  148.9737 C   0  0  0  0  0  0  0  0  0  0  0  0
  201.3069  176.0454  148.7920 C   0  0  0  0  0  0  0  0  0  0  0  0
  201.6761  175.6671  147.4895 C   0  0  0  0  0  0  0  0  0  0  0  0
  200.9280  176.0685  146.3551 C   0  0  0  0  0  0  0  0  0  0  0  0
  199.7890  176.8788  146.5262 C   0  0  0  0  0  0  0  0  0  0  0  0
  201.9067  177.7748  151.5962 C   0  0  1  0  0  0  0  0  0  0  0  0
  202.9749  177.2699  150.7312 C   0  0  0  0  0  0  0  0  0  0  0  0
  203.8177  176.8514  150.0269 N   0  0  0  0  0  0  0  0  0  0  0  0
  201.9700  174.0876  153.2350 H   0  0  0  0  0  0  0  0  0  0  0  0
  199.7420  177.6313  154.2062 H   0  0  0  0  0  0  0  0  0  0  0  0
  200.5596  177.5278  156.5576 H   0  0  0  0  0  0  0  0  0  0  0  0
  202.1529  175.7347  157.2296 H   0  0  0  0  0  0  0  0  0  0  0  0
  200.5256  175.0401  151.6035 H   0  0  0  0  0  0  0  0  0  0  0  0
  199.1270  175.8786  152.2096 H   0  0  0  0  0  0  0  0  0  0  0  0
  198.9869  178.6789  152.3753 H   0  0  0  0  0  0  0  0  0  0  0  0
  196.2172  181.9569  152.5466 H   0  0  0  0  0  0  0  0  0  0  0  0
  196.3479  183.1872  154.6822 H   0  0  0  0  0  0  0  0  0  0  0  0
  198.3769  179.8311  156.5014 H   0  0  0  0  0  0  0  0  0  0  0  0
  198.1436  178.5753  154.4039 H   0  0  0  0  0  0  0  0  0  0  0  0
  198.4965  182.2699  157.4395 H   0  0  0  0  0  0  0  0  0  0  0  0
  197.3017  183.4256  156.8755 H   0  0  0  0  0  0  0  0  0  0  0  0
  196.3992  183.6480  159.2262 H   0  0  0  0  0  0  0  0  0  0  0  0
  197.6756  182.5424  159.7301 H   0  0  0  0  0  0  0  0  0  0  0  0
  195.9833  182.1787  160.0973 H   0  0  0  0  0  0  0  0  0  0  0  0
  194.7852  182.8506  157.3494 H   0  0  0  0  0  0  0  0  0  0  0  0
  194.4561  181.4547  158.3944 H   0  0  0  0  0  0  0  0  0  0  0  0
  195.0123  181.1963  156.7591 H   0  0  0  0  0  0  0  0  0  0  0  0
  197.0333  179.1431  149.1496 H   0  0  0  0  0  0  0  0  0  0  0  0
  201.9003  175.6971  149.6171 H   0  0  0  0  0  0  0  0  0  0  0  0
  202.5581  175.0635  147.3457 H   0  0  0  0  0  0  0  0  0  0  0  0
  201.2078  175.7384  145.3598 H   0  0  0  0  0  0  0  0  0  0  0  0
  199.1912  177.1426  145.6595 H   0  0  0  0  0  0  0  0  0  0  0  0
  201.8298  178.8450  151.4193 H   0  0  0  0  0  0  0  0  0  0  0  0
  202.2776  177.6427  152.6106 H   0  0  0  0  0  0  0  0  0  0  0  0
  196.7405  180.8789  158.2397 H   0  0  0  0  0  0  0  0  0  0  0  0
  197.7768  178.3141  147.1725 H   0  0  0  0  0  0  0  0  0  0  0  0
  1  2  1  0
  2  3  2  0
  2  7  1  0
  3  4  1  0
  3 36  1  0
  4  5  2  0
  4  8  1  0
  5  6  1  0
  5 37  1  0
  6  7  2  0
  6 38  1  0
  7 39  1  0
  8  9  1  0
  8 40  1  6
  8 41  1  0
  9 10  1  0
  9 33  1  0
 10 11  2  0
 10 28  1  0
 11 12  1  0
 11 25  1  0
 12 13  1  0
 12 42  1  0
 13 14  2  0
 13 15  1  0
 15 16  1  0
 15 20  2  0
 16 17  2  0
 16 43  1  0
 17 18  1  0
 17 44  1  0
 18 19  2  0
 18 21  1  0
 19 20  1  0
 19 45  1  0
 20 46  1  0
 21 22  1  0
 21 47  1  1
 21 48  1  0
 22 23  1  0
 22 24  1  0
 22 62  1  1
 23 49  1  6
 23 50  1  0
 23 51  1  0
 24 52  1  6
 24 53  1  0
 24 54  1  0
 25 26  2  0
 25 55  1  0
 26 27  1  0
 26 63  1  0
 27 28  1  0
 27 32  2  0
 28 29  2  0
 29 30  1  0
 29 56  1  0
 30 31  2  0
 30 57  1  0
 31 32  1  0
 31 58  1  0
 32 59  1  0
 33 34  1  0
 33 60  1  6
 33 61  1  0
 34 35  3  0
M  CHG  2  22   1  26   1
M  END
>  <s_epik_cmdline>  (535) 
J2VwaWtfcHl0aG9uJywgJy1waCcsICc3LjAwMDAwMCcsICctcGh0JywgJzIuMDAwMDAwJywgJy1tcycsICcxNicsICctdG4nLCAnOCcsICctbWEnLCAnMjAwJywgJy1pbWFlJywgJzxpbmZpbGUubWFlPicsICctb21hZScsICc8b3V0ZmlsZS5tYWU+Jw==

>  <s_epik_input>  (535) 
Q2xjMVtjSF1jKFtjSF1bY0hdW2NIXTEpW0NIMl1OKFtDSDJdQyNOKWMoYyhjMjMpW2NIXVtjSF1bY0hdW2NIXTMpYyhbY0hdbjIpW05IXUMoPU8pYzRbY0hdW2NIXWMoW2NIXVtjSF00KVtDSDJdTihbQ0gzXSlbQ0gzXQ==

>  <s_i_glide_gridfile>  (535) 
ATP-Grid

>  <s_lp_Force_Field>  (535) 
OPLS_2005

>  <s_lp_Variant>  (535) 
rxn502b____EMOL18624763____EMOL30488121____EMOL37358567-1

>  <s_lp_label>  (535) 
2440_sdstereoexpander_1_neutralizer_1_epik_1_stereoizer_1

>  <s_m_source_file>  (535) 
ATP-VSW-LIGPREP-001-in.maegz

>  <s_sd_BIOSOLVEIT.INFINISEE\_QUERY\_NAME>  (535) 
Ref-Lig

>  <s_sd_BIOSOLVEIT.INFINISEE\_QUERY\_SMILES>  (535) 
S(c1nc2c(cc1C[NH2+]Cc3ccc(cc3)C[NH+](C)C)cccc2)Cc4ccccc4

>  <s_sd_BIOSOLVEIT.INFINISEE\_REACTION\_NAME>  (535) 
rxn502b

>  <s_sd_BIOSOLVEIT.INFINISEE\_REAGENT1\_NAME>  (535) 
EMOL18624763

>  <s_sd_BIOSOLVEIT.INFINISEE\_REAGENT1\_SMILES>  (535) 
O=C(O)c1ccc(cc1)CN(C)C

>  <s_sd_BIOSOLVEIT.INFINISEE\_REAGENT2\_NAME>  (535) 
EMOL30488121

>  <s_sd_BIOSOLVEIT.INFINISEE\_REAGENT2\_SMILES>  (535) 
Brc1c(N)cnc2c1cccc2

>  <s_sd_BIOSOLVEIT.INFINISEE\_REAGENT3\_NAME>  (535) 
EMOL37358567

>  <s_sd_BIOSOLVEIT.INFINISEE\_REAGENT3\_SMILES>  (535) 
Clc1cc(ccc1)CNCC#N

>  <s_sd_BIOSOLVEIT.INFINISEE\_SPACE>  (535) 
eXplore_7tr_2022-12

>  <s_vsw_compound_code>  (535) 
78049

>  <s_vsw_variant>  (535) 
78049-1

>  <r_epik_Charging_Adjusted_Penalty>  (535) 
0.42496845387631299

>  <r_epik_Ionization_Penalty>  (535) 
0.21240000000000001

>  <r_epik_Ionization_Penalty_Charging>  (535) 
0.21240000000000001

>  <r_epik_Ionization_Penalty_Neutral>  (535) 
0

>  <r_epik_State_Penalty>  (535) 
0.21260000000000001

>  <r_i_docking_score>  (535) 
-4.3066981691611002

>  <r_i_glide_ecoul>  (535) 
-9.3834886550903303

>  <r_i_glide_eff_state_penalty>  (535) 
0.21260000000000001

>  <r_i_glide_einternal>  (535) 
2.9819080829620401

>  <r_i_glide_emodel>  (535) 
-62.223905480507803

>  <r_i_glide_energy>  (535) 
-43.943840980529799

>  <r_i_glide_erotb>  (535) 
0.60216837884552799

>  <r_i_glide_esite>  (535) 
-0.10000000000000001

>  <r_i_glide_evdw>  (535) 
-34.560352325439503

>  <r_i_glide_gscore>  (535) 
-4.5192981691611003

>  <r_i_glide_hbond>  (535) 
-0.104795727210996

>  <r_i_glide_ligand_efficiency>  (535) 
-0.123048519118889

>  <r_i_glide_ligand_efficiency_ln>  (535) 
-0.945415830146903

>  <r_i_glide_ligand_efficiency_sa>  (535) 
-0.40249986493138401

>  <r_i_glide_lipo>  (535) 
-1.24890121618241

>  <r_i_glide_metal>  (535) 
-0

>  <r_i_glide_rewards>  (535) 
-0.53222869007770102

>  <r_lp_Energy>  (535) 
36.605941000000001

>  <r_qp_ACxDN^.5/SA>  (535) 
0.010821600000000001

>  <r_qp_CIQPlogS>  (535) 
-7.1109999999999998

>  <r_qp_EA(eV)>  (535) 
1.135

>  <r_qp_FISA>  (535) 
113.786

>  <r_qp_FOSA>  (535) 
217.20699999999999

>  <r_qp_IP(eV)>  (535) 
8.7330000000000005

>  <r_qp_Jm>  (535) 
0.00092047784802112202

>  <r_qp_PISA>  (535) 
368.803

>  <r_qp_PSA>  (535) 
72.899000000000001

>  <r_qp_PercentHumanOralAbsorption>  (535) 
92.686999999999998

>  <r_qp_QPPCaco>  (535) 
205.953

>  <r_qp_QPPMDCK>  (535) 
163.19200000000001

>  <r_qp_QPlogBB>  (535) 
-0.58699999999999997

>  <r_qp_QPlogHERG>  (535) 
-6.7830000000000004

>  <r_qp_QPlogKhsa>  (535) 
0.52200000000000002

>  <r_qp_QPlogKp>  (535) 
-3.516

>  <r_qp_QPlogPC16>  (535) 
15.318

>  <r_qp_QPlogPo/w>  (535) 
4.1550000000000002

>  <r_qp_QPlogPoct>  (535) 
22.805

>  <r_qp_QPlogPw>  (535) 
12.154

>  <r_qp_QPlogS>  (535) 
-5.2050000000000001

>  <r_qp_QPpolrz>  (535) 
48.688000000000002

>  <r_qp_SASA>  (535) 
739.26400000000001

>  <r_qp_SAamideO>  (535) 
0

>  <r_qp_SAfluorine>  (535) 
0

>  <r_qp_WPSA>  (535) 
39.468000000000004

>  <r_qp_accptHB>  (535) 
8

>  <r_qp_dip^2/V>  (535) 
0.038816900000000001

>  <r_qp_dipole>  (535) 
7.4420000000000002

>  <r_qp_donorHB>  (535) 
1

>  <r_qp_glob>  (535) 
0.82908029999999999

>  <r_qp_mol_MW>  (535) 
483.99900000000002

>  <r_qp_volume>  (535) 
1426.7470000000001

>  <r_sd_BIOSOLVEIT.INFINISEE\_FTREES\_SIMILARITY>  (535) 
0.91700000000000004

>  <r_sd_BIOSOLVEIT.LOGP>  (535) 
4.3151799999999998

>  <r_sd_BIOSOLVEIT.MOLECULAR\_WEIGHT>  (535) 
485.00799999999998

>  <r_sd_BIOSOLVEIT.TPSA>  (535) 
73.459999999999994

>  <i_epik_Tot_Q>  (535) 
2

>  <i_epik_Tot_abs_Q>  (535) 
2

>  <i_f3d_flags>  (535) 
0

>  <i_i_glide_confnum>  (535) 
6

>  <i_i_glide_lignum>  (535) 
949

>  <i_i_glide_posenum>  (535) 
1

>  <i_i_glide_rotatable_bonds>  (535) 
9

>  <i_lp_mmshare_version>  (535) 
65135

>  <i_m_ct_format>  (535) 
2

>  <i_m_source_file_index>  (535) 
2440

>  <i_qp_#NandO>  (535) 
6

>  <i_qp_#acid>  (535) 
0

>  <i_qp_#amide>  (535) 
0

>  <i_qp_#amidine>  (535) 
0

>  <i_qp_#amine>  (535) 
1

>  <i_qp_#in34>  (535) 
0

>  <i_qp_#in56>  (535) 
22

>  <i_qp_#metab>  (535) 
6

>  <i_qp_#nonHatm>  (535) 
35

>  <i_qp_#noncon>  (535) 
0

>  <i_qp_#ringatoms>  (535) 
22

>  <i_qp_#rotor>  (535) 
9

>  <i_qp_#rtvFG>  (535) 
0

>  <i_qp_#stars>  (535) 
0

>  <i_qp_CNS>  (535) 
1

>  <i_qp_HumanOralAbsorption>  (535) 
3

>  <i_qp_RuleOfFive>  (535) 
0

>  <i_qp_RuleOfThree>  (535) 
0

>  <i_sd_BIOSOLVEIT.INFINISEE\_RESULT\_RANK>  (535) 
24317

>  <i_sd_version>  (535) 
0

>  <b_lp_Chiralities_Consistent>  (535) 
1

>  <b_sd_chiral_flag>  (535) 
0

>  <canonical_id>  (535) 
ATP-HTVS-531A4B252985

>  <compound_code>  (535) 
78049

>  <title>  (535) 
rxn502b____EMOL18624763____EMOL30488121____EMOL37358567

>  <variant>  (535) 
78049-1

>  <source_file>  (535) 
运行/运行/ATP-VSW/ATP-VSW-DOCK_HTVS_1-001_lib/ATP-VSW-DOCK_HTVS_1-001_lib

>  <canonical_smiles>  (535) 
C[NH+](C)Cc1ccc(C(=O)Nc2c[nH+]c3ccccc3c2N(CC#N)Cc2cccc(Cl)c2)cc1

>  <scaffold>  (535) 
O=C(Nc1c[nH+]c2ccccc2c1NCc1ccccc1)c1ccccc1

>  <molecular_formula>  (535) 
C28H28ClN5O+2

$$$$
ATP-HTVS-531EE93584A6
     RDKit          3D

 48 51  0  0  0  0  0  0  0  0999 V2000
  198.7640  179.3951  150.5155 F   0  0  0  0  0  0  0  0  0  0  0  0
  198.0438  180.2220  151.3100 C   0  0  0  0  0  0  0  0  0  0  0  0
  198.1409  180.1132  152.7165 C   0  0  0  0  0  0  0  0  0  0  0  0
  198.9526  179.1774  153.2491 N   0  0  0  0  0  0  0  0  0  0  0  0
  199.0687  179.0490  154.5894 C   0  0  0  0  0  0  0  0  0  0  0  0
  199.9919  177.9857  155.0854 C   0  0  0  0  0  0  0  0  0  0  0  0
  200.5787  177.2066  154.1396 N   0  0  0  0  0  0  0  0  0  0  0  0
  201.4274  176.2298  154.5156 C   0  0  0  0  0  0  0  0  0  0  0  0
  201.7447  175.9568  155.8560 C   0  0  0  0  0  0  0  0  0  0  0  0
  201.1464  176.7529  156.8472 C   0  0  0  0  0  0  0  0  0  0  0  0
  200.2625  177.7743  156.4614 C   0  0  0  0  0  0  0  0  0  0  0  0
  198.3550  179.8994  155.4593 C   0  0  0  0  0  0  0  0  0  0  0  0
  197.5020  180.9045  154.9405 C   0  0  0  0  0  0  0  0  0  0  0  0
  196.7923  181.7859  155.7802 N   0  0  0  0  0  0  0  0  0  0  0  0
  196.9746  181.7963  157.2303 C   0  0  1  0  0  0  0  0  0  0  0  0
  195.7521  182.3719  157.9776 C   0  0  1  0  0  0  0  0  0  0  0  0
  195.4495  181.4384  158.9855 O   0  0  0  0  0  0  0  0  0  0  0  0
  195.9548  183.7894  158.5212 C   0  0  0  0  0  0  0  0  0  0  0  0
  196.7430  184.7382  157.8253 C   0  0  0  0  0  0  0  0  0  0  0  0
  196.8927  186.0491  158.3219 C   0  0  0  0  0  0  0  0  0  0  0  0
  196.2562  186.4330  159.5167 C   0  0  0  0  0  0  0  0  0  0  0  0
  195.4741  185.4955  160.2178 C   0  0  0  0  0  0  0  0  0  0  0  0
  195.3252  184.1875  159.7224 C   0  0  0  0  0  0  0  0  0  0  0  0
  196.4118  187.8427  160.0471 C   0  0  2  0  0  0  0  0  0  0  0  0
  197.3864  181.0019  153.5300 C   0  0  0  0  0  0  0  0  0  0  0  0
  196.5454  181.9648  152.9191 C   0  0  0  0  0  0  0  0  0  0  0  0
  196.4665  182.0618  151.5183 C   0  0  0  0  0  0  0  0  0  0  0  0
  197.2179  181.1888  150.7131 C   0  0  0  0  0  0  0  0  0  0  0  0
  201.8735  175.6540  153.7171 H   0  0  0  0  0  0  0  0  0  0  0  0
  202.4297  175.1641  156.1190 H   0  0  0  0  0  0  0  0  0  0  0  0
  201.3493  176.5909  157.8954 H   0  0  0  0  0  0  0  0  0  0  0  0
  199.8023  178.3600  157.2444 H   0  0  0  0  0  0  0  0  0  0  0  0
  198.4598  179.7524  156.5177 H   0  0  0  0  0  0  0  0  0  0  0  0
  196.0513  182.3636  155.4012 H   0  0  0  0  0  0  0  0  0  0  0  0
  197.1521  180.7905  157.6100 H   0  0  0  0  0  0  0  0  0  0  0  0
  197.8909  182.3394  157.4588 H   0  0  0  0  0  0  0  0  0  0  0  0
  194.8686  182.3865  157.3354 H   0  0  0  0  0  0  0  0  0  0  0  0
  195.4997  180.5578  158.5906 H   0  0  0  0  0  0  0  0  0  0  0  0
  197.2272  184.4759  156.8925 H   0  0  0  0  0  0  0  0  0  0  0  0
  197.4880  186.7612  157.7688 H   0  0  0  0  0  0  0  0  0  0  0  0
  194.9794  185.7790  161.1345 H   0  0  0  0  0  0  0  0  0  0  0  0
  194.7096  183.4890  160.2703 H   0  0  0  0  0  0  0  0  0  0  0  0
  195.5399  188.1407  160.6283 H   0  0  0  0  0  0  0  0  0  0  0  0
  196.5288  188.5544  159.2290 H   0  0  0  0  0  0  0  0  0  0  0  0
  197.2900  187.9070  160.6893 H   0  0  0  0  0  0  0  0  0  0  0  0
  195.9460  182.6432  153.5077 H   0  0  0  0  0  0  0  0  0  0  0  0
  195.8309  182.8114  151.0676 H   0  0  0  0  0  0  0  0  0  0  0  0
  197.1661  181.2554  149.6368 H   0  0  0  0  0  0  0  0  0  0  0  0
  1  2  1  0
  2  3  2  0
  2 28  1  0
  3  4  1  0
  3 25  1  0
  4  5  2  0
  5  6  1  0
  5 12  1  0
  6  7  1  0
  6 11  2  0
  7  8  2  0
  8  9  1  0
  8 29  1  0
  9 10  2  0
  9 30  1  0
 10 11  1  0
 10 31  1  0
 11 32  1  0
 12 13  2  0
 12 33  1  0
 13 14  1  0
 13 25  1  0
 14 15  1  0
 14 34  1  0
 15 16  1  0
 15 35  1  1
 15 36  1  0
 16 17  1  0
 16 18  1  0
 16 37  1  6
 17 38  1  0
 18 19  1  0
 18 23  2  0
 19 20  2  0
 19 39  1  0
 20 21  1  0
 20 40  1  0
 21 22  2  0
 21 24  1  0
 22 23  1  0
 22 41  1  0
 23 42  1  0
 24 43  1  1
 24 44  1  0
 24 45  1  0
 25 26  2  0
 26 27  1  0
 26 46  1  0
 27 28  2  0
 27 47  1  0
 28 48  1  0
M  END
>  <s_epik_cmdline>  (536) 
J2VwaWtfcHl0aG9uJywgJy1waCcsICc3LjAwMDAwMCcsICctcGh0JywgJzIuMDAwMDAwJywgJy1tcycsICcxNicsICctdG4nLCAnOCcsICctbWEnLCAnMjAwJywgJy1pbWFlJywgJzxpbmZpbGUubWFlPicsICctb21hZScsICc8b3V0ZmlsZS5tYWU+Jw==

>  <s_epik_input>  (536) 
W2NIXTFbY0hdW2NIXVtjSF1uYzEtYyhuMilbY0hdYyhjKGMyMylbY0hdW2NIXVtjSF1jM0YpW05IXVtDSDJdW0NAQEhdKFtPSF0pYzRbY0hdW2NIXWMoW0NIM10pW2NIXVtjSF00

>  <s_i_glide_gridfile>  (536) 
ATP-Grid

>  <s_lp_Force_Field>  (536) 
OPLS_2005

>  <s_lp_Variant>  (536) 
YAS_R004____OTV2825775____OTV1051744____OTV1055862-2

>  <s_lp_label>  (536) 
62_sdstereoexpander_2_neutralizer_1_epik_1_stereoizer_1

>  <s_m_source_file>  (536) 
ATP-VSW-LIGPREP-003-in.maegz

>  <s_sd_BIOSOLVEIT.INFINISEE\_QUERY\_NAME>  (536) 
Ref-Lig

>  <s_sd_BIOSOLVEIT.INFINISEE\_QUERY\_SMILES>  (536) 
S(c1nc2c(cc1C[NH2+]Cc3ccc(cc3)C[NH+](C)C)cccc2)Cc4ccccc4

>  <s_sd_BIOSOLVEIT.INFINISEE\_REACTION\_NAME>  (536) 
YAS_R004

>  <s_sd_BIOSOLVEIT.INFINISEE\_REAGENT1\_NAME>  (536) 
OTV2825775

>  <s_sd_BIOSOLVEIT.INFINISEE\_REAGENT1\_SMILES>  (536) 
Fc1c(N)cccc1

>  <s_sd_BIOSOLVEIT.INFINISEE\_REAGENT2\_NAME>  (536) 
OTV1051744

>  <s_sd_BIOSOLVEIT.INFINISEE\_REAGENT2\_SMILES>  (536) 
O=C(O)c1ncccc1

>  <s_sd_BIOSOLVEIT.INFINISEE\_REAGENT3\_NAME>  (536) 
OTV1055862

>  <s_sd_BIOSOLVEIT.INFINISEE\_REAGENT3\_SMILES>  (536) 
OC(c1ccc(cc1)C)CN

>  <s_sd_BIOSOLVEIT.INFINISEE\_SPACE>  (536) 
CHEMriya_12bn_2022-01

>  <s_vsw_compound_code>  (536) 
1955

>  <s_vsw_variant>  (536) 
1955-2

>  <r_epik_Charging_Adjusted_Penalty>  (536) 
0.0081014906290531805

>  <r_epik_Ionization_Penalty>  (536) 
0.0137

>  <r_epik_Ionization_Penalty_Charging>  (536) 
0

>  <r_epik_Ionization_Penalty_Neutral>  (536) 
0.0137

>  <r_epik_State_Penalty>  (536) 
0.0080999999999999996

>  <r_i_docking_score>  (536) 
-4.7641134837132197

>  <r_i_glide_ecoul>  (536) 
-6.45935106277466

>  <r_i_glide_eff_state_penalty>  (536) 
0.0080999999999999996

>  <r_i_glide_einternal>  (536) 
9.8504142761230504

>  <r_i_glide_emodel>  (536) 
-49.986130894296402

>  <r_i_glide_energy>  (536) 
-41.067730426788302

>  <r_i_glide_erotb>  (536) 
0.69292476262771296

>  <r_i_glide_esite>  (536) 
-0.058666392730472798

>  <r_i_glide_evdw>  (536) 
-34.6083793640137

>  <r_i_glide_gscore>  (536) 
-4.7722134837132204

>  <r_i_glide_hbond>  (536) 
-0.16

>  <r_i_glide_ligand_efficiency>  (536) 
-0.17014691013261499

>  <r_i_glide_ligand_efficiency_ln>  (536) 
-1.0996972724910801

>  <r_i_glide_ligand_efficiency_sa>  (536) 
-0.51666623033353898

>  <r_i_glide_lipo>  (536) 
-1.66574222690583

>  <r_i_glide_metal>  (536) 
-0

>  <r_i_glide_rewards>  (536) 
-0.88140799908774603

>  <r_lp_Energy>  (536) 
27.069642999999999

>  <r_qp_ACxDN^.5/SA>  (536) 
0.0098042000000000008

>  <r_qp_CIQPlogS>  (536) 
-6.1669999999999998

>  <r_qp_EA(eV)>  (536) 
0.86399999999999999

>  <r_qp_FISA>  (536) 
63.093000000000004

>  <r_qp_FOSA>  (536) 
134.358

>  <r_qp_IP(eV)>  (536) 
8.0440000000000005

>  <r_qp_Jm>  (536) 
0.11092158224840901

>  <r_qp_PISA>  (536) 
441.17000000000002

>  <r_qp_PSA>  (536) 
49.515000000000001

>  <r_qp_PercentHumanOralAbsorption>  (536) 
100

>  <r_qp_QPPCaco>  (536) 
2497.9769999999999

>  <r_qp_QPPMDCK>  (536) 
2185.6370000000002

>  <r_qp_QPlogBB>  (536) 
-0.34799999999999998

>  <r_qp_QPlogHERG>  (536) 
-6.7619999999999996

>  <r_qp_QPlogKhsa>  (536) 
0.65300000000000002

>  <r_qp_QPlogKp>  (536) 
-0.55200000000000005

>  <r_qp_QPlogPC16>  (536) 
13.16

>  <r_qp_QPlogPo/w>  (536) 
4.9189999999999996

>  <r_qp_QPlogPoct>  (536) 
20.045999999999999

>  <r_qp_QPlogPw>  (536) 
11.029999999999999

>  <r_qp_QPlogS>  (536) 
-5.9749999999999996

>  <r_qp_QPpolrz>  (536) 
42.344000000000001

>  <r_qp_SASA>  (536) 
677.95699999999999

>  <r_qp_SAamideO>  (536) 
0

>  <r_qp_SAfluorine>  (536) 
39.335999999999999

>  <r_qp_WPSA>  (536) 
39.335999999999999

>  <r_qp_accptHB>  (536) 
4.7000000000000002

>  <r_qp_dip^2/V>  (536) 
0.0390538

>  <r_qp_dipole>  (536) 
6.8540000000000001

>  <r_qp_donorHB>  (536) 
2

>  <r_qp_glob>  (536) 
0.80679820000000002

>  <r_qp_mol_MW>  (536) 
373.42899999999997

>  <r_qp_volume>  (536) 
1202.827

>  <r_sd_BIOSOLVEIT.INFINISEE\_FTREES\_SIMILARITY>  (536) 
0.91500000000000004

>  <r_sd_BIOSOLVEIT.LOGP>  (536) 
4.8898200000000003

>  <r_sd_BIOSOLVEIT.MOLECULAR\_WEIGHT>  (536) 
373.42899999999997

>  <r_sd_BIOSOLVEIT.TPSA>  (536) 
58.039999999999999

>  <i_epik_Tot_Q>  (536) 
0

>  <i_epik_Tot_abs_Q>  (536) 
0

>  <i_f3d_flags>  (536) 
0

>  <i_i_glide_confnum>  (536) 
5

>  <i_i_glide_lignum>  (536) 
171

>  <i_i_glide_posenum>  (536) 
19

>  <i_i_glide_rotatable_bonds>  (536) 
6

>  <i_lp_mmshare_version>  (536) 
65135

>  <i_m_ct_format>  (536) 
2

>  <i_m_source_file_index>  (536) 
62

>  <i_qp_#NandO>  (536) 
4

>  <i_qp_#acid>  (536) 
0

>  <i_qp_#amide>  (536) 
0

>  <i_qp_#amidine>  (536) 
0

>  <i_qp_#amine>  (536) 
0

>  <i_qp_#in34>  (536) 
0

>  <i_qp_#in56>  (536) 
22

>  <i_qp_#metab>  (536) 
5

>  <i_qp_#nonHatm>  (536) 
28

>  <i_qp_#noncon>  (536) 
0

>  <i_qp_#ringatoms>  (536) 
22

>  <i_qp_#rotor>  (536) 
6

>  <i_qp_#rtvFG>  (536) 
0

>  <i_qp_#stars>  (536) 
0

>  <i_qp_CNS>  (536) 
0

>  <i_qp_HumanOralAbsorption>  (536) 
3

>  <i_qp_RuleOfFive>  (536) 
0

>  <i_qp_RuleOfThree>  (536) 
1

>  <i_sd_BIOSOLVEIT.INFINISEE\_RESULT\_RANK>  (536) 
29398

>  <i_sd_version>  (536) 
0

>  <b_lp_Chiralities_Consistent>  (536) 
1

>  <b_sd_chiral_flag>  (536) 
0

>  <canonical_id>  (536) 
ATP-HTVS-531EE93584A6

>  <compound_code>  (536) 
1955

>  <title>  (536) 
YAS_R004____OTV2825775____OTV1051744____OTV1055862

>  <variant>  (536) 
1955-2

>  <source_file>  (536) 
运行/运行/ATP-VSW/ATP-VSW-DOCK_HTVS_1-003_lib/ATP-VSW-DOCK_HTVS_1-003_lib.mae

>  <canonical_smiles>  (536) 
Cc1ccc([C@H](O)CNc2cc(-c3ccccn3)nc3c(F)cccc23)cc1

>  <scaffold>  (536) 
c1ccc(CCNc2cc(-c3ccccn3)nc3ccccc23)cc1

>  <molecular_formula>  (536) 
C23H20FN3O

$$$$
ATP-HTVS-532EC38BED39
     RDKit          3D

 69 72  0  0  0  0  0  0  0  0999 V2000
  200.3426  179.7274  155.0578 O   0  0  0  0  0  0  0  0  0  0  0  0
  199.5527  179.4255  155.9463 C   0  0  0  0  0  0  0  0  0  0  0  0
  199.1494  178.1727  156.1264 N   0  0  0  0  0  0  0  0  0  0  0  0
  198.9920  180.4906  156.8851 C   0  0  1  0  0  0  0  0  0  0  0  0
  198.3653  181.7125  156.1960 C   0  0  1  0  0  0  0  0  0  0  0  0
  197.4697  181.3342  155.0978 N   0  0  0  0  0  0  0  0  0  0  0  0
  197.4732  182.0358  153.8735 C   0  0  0  0  0  0  0  0  0  0  0  0
  197.6876  183.3588  153.8997 N   0  0  0  0  0  0  0  0  0  0  0  0
  197.7080  184.0649  152.7712 C   0  0  0  0  0  0  0  0  0  0  0  0
  197.5358  183.5200  151.5710 N   0  0  0  0  0  0  0  0  0  0  0  0
  197.3229  182.1829  151.4588 C   0  0  0  0  0  0  0  0  0  0  0  0
  197.2895  181.3954  152.6406 C   0  0  0  0  0  0  0  0  0  0  0  0
  197.0845  179.9924  152.5208 C   0  0  0  0  0  0  0  0  0  0  0  0
  196.8936  179.4110  151.2520 C   0  0  0  0  0  0  0  0  0  0  0  0
  196.9000  180.2171  150.0894 C   0  0  0  0  0  0  0  0  0  0  0  0
  197.1322  181.6113  150.1885 C   0  0  0  0  0  0  0  0  0  0  0  0
  197.9535  185.4243  152.8548 N   0  0  0  0  0  0  0  0  0  0  0  0
  197.9473  186.1647  154.0926 C   0  0  1  0  0  0  0  0  0  0  0  0
  198.9173  185.6463  155.1585 C   0  0  1  0  0  0  0  0  0  0  0  0
  198.8639  186.5054  156.3717 C   0  0  0  0  0  0  0  0  0  0  0  0
  200.0305  187.1244  156.8290 C   0  0  0  0  0  0  0  0  0  0  0  0
  200.0163  187.8333  158.0341 C   0  0  0  0  0  0  0  0  0  0  0  0
  198.8234  187.9364  158.7775 C   0  0  0  0  0  0  0  0  0  0  0  0
  197.6500  187.2763  158.3465 C   0  0  0  0  0  0  0  0  0  0  0  0
  197.6697  186.5775  157.1274 C   0  0  0  0  0  0  0  0  0  0  0  0
  198.8087  188.7630  160.0422 C   0  0  1  0  0  0  0  0  0  0  0  0
  198.5306  190.1867  159.7578 N   0  0  2  0  0  0  0  0  0  0  0  0
  197.1468  190.4186  159.2855 C   0  0  2  0  0  0  0  0  0  0  0  0
  199.5407  190.8160  158.8738 C   0  0  2  0  0  0  0  0  0  0  0  0
  197.6890  182.5658  157.2787 C   0  0  0  0  0  0  0  0  0  0  0  0
  196.3464  182.3362  157.6552 C   0  0  0  0  0  0  0  0  0  0  0  0
  195.7415  183.1665  158.6181 C   0  0  0  0  0  0  0  0  0  0  0  0
  196.4809  184.1968  159.2288 C   0  0  0  0  0  0  0  0  0  0  0  0
  197.8440  184.3806  158.9221 C   0  0  0  0  0  0  0  0  0  0  0  0
  198.4268  183.5852  157.9196 C   0  0  0  0  0  0  0  0  0  0  0  0
  199.4981  177.4403  155.5432 H   0  0  0  0  0  0  0  0  0  0  0  0
  198.4856  177.9482  156.8905 H   0  0  0  0  0  0  0  0  0  0  0  0
  198.2533  180.0183  157.5296 H   0  0  0  0  0  0  0  0  0  0  0  0
  199.8063  180.8150  157.5299 H   0  0  0  0  0  0  0  0  0  0  0  0
  199.1911  182.2951  155.7722 H   0  0  0  0  0  0  0  0  0  0  0  0
  197.1491  180.3713  155.1091 H   0  0  0  0  0  0  0  0  0  0  0  0
  197.0768  179.3546  153.3921 H   0  0  0  0  0  0  0  0  0  0  0  0
  196.7580  178.3411  151.1664 H   0  0  0  0  0  0  0  0  0  0  0  0
  196.7440  179.7647  149.1074 H   0  0  0  0  0  0  0  0  0  0  0  0
  197.1519  182.2202  149.2909 H   0  0  0  0  0  0  0  0  0  0  0  0
  197.8596  185.9529  152.0038 H   0  0  0  0  0  0  0  0  0  0  0  0
  198.2224  187.1889  153.8741 H   0  0  0  0  0  0  0  0  0  0  0  0
  196.9324  186.1805  154.4818 H   0  0  0  0  0  0  0  0  0  0  0  0
  198.6503  184.6705  155.5431 H   0  0  0  0  0  0  0  0  0  0  0  0
  199.9353  185.5634  154.7725 H   0  0  0  0  0  0  0  0  0  0  0  0
  200.9607  186.9635  156.3004 H   0  0  0  0  0  0  0  0  0  0  0  0
  200.9344  188.2691  158.3952 H   0  0  0  0  0  0  0  0  0  0  0  0
  196.7157  187.3789  158.8911 H   0  0  0  0  0  0  0  0  0  0  0  0
  196.7613  186.0931  156.7803 H   0  0  0  0  0  0  0  0  0  0  0  0
  198.0726  188.3622  160.7366 H   0  0  0  0  0  0  0  0  0  0  0  0
  199.7748  188.6490  160.5253 H   0  0  0  0  0  0  0  0  0  0  0  0
  196.9600  189.9370  158.3244 H   0  0  0  0  0  0  0  0  0  0  0  0
  196.9603  191.4817  159.1454 H   0  0  0  0  0  0  0  0  0  0  0  0
  196.4195  190.0327  160.0009 H   0  0  0  0  0  0  0  0  0  0  0  0
  199.5291  190.3817  157.8725 H   0  0  0  0  0  0  0  0  0  0  0  0
  200.5418  190.6913  159.2884 H   0  0  0  0  0  0  0  0  0  0  0  0
  199.3457  191.8794  158.7518 H   0  0  0  0  0  0  0  0  0  0  0  0
  195.7775  181.5340  157.2031 H   0  0  0  0  0  0  0  0  0  0  0  0
  194.6850  183.0412  158.8501 H   0  0  0  0  0  0  0  0  0  0  0  0
  195.9961  184.8846  159.9005 H   0  0  0  0  0  0  0  0  0  0  0  0
  198.4253  185.1627  159.4133 H   0  0  0  0  0  0  0  0  0  0  0  0
  199.4486  183.7838  157.6298 H   0  0  0  0  0  0  0  0  0  0  0  0
  197.5731  184.0609  150.7037 H   0  0  0  0  0  0  0  0  0  0  0  0
  198.6241  190.6196  160.6688 H   0  0  0  0  0  0  0  0  0  0  0  0
  1  2  2  0
  2  3  1  0
  2  4  1  0
  3 36  1  0
  3 37  1  0
  4  5  1  0
  4 38  1  1
  4 39  1  0
  5  6  1  0
  5 30  1  0
  5 40  1  6
  6  7  1  0
  6 41  1  0
  7  8  2  0
  7 12  1  0
  8  9  1  0
  9 10  2  0
  9 17  1  0
 10 11  1  0
 10 68  1  0
 11 12  1  0
 11 16  2  0
 12 13  2  0
 13 14  1  0
 13 42  1  0
 14 15  2  0
 14 43  1  0
 15 16  1  0
 15 44  1  0
 16 45  1  0
 17 18  1  0
 17 46  1  0
 18 19  1  0
 18 47  1  6
 18 48  1  0
 19 20  1  0
 19 49  1  1
 19 50  1  0
 20 21  1  0
 20 25  2  0
 21 22  2  0
 21 51  1  0
 22 23  1  0
 22 52  1  0
 23 24  2  0
 23 26  1  0
 24 25  1  0
 24 53  1  0
 25 54  1  0
 26 27  1  0
 26 55  1  1
 26 56  1  0
 27 28  1  0
 27 29  1  0
 27 69  1  1
 28 57  1  6
 28 58  1  0
 28 59  1  0
 29 60  1  6
 29 61  1  0
 29 62  1  0
 30 31  2  0
 30 35  1  0
 31 32  1  0
 31 63  1  0
 32 33  2  0
 32 64  1  0
 33 34  1  0
 33 65  1  0
 34 35  2  0
 34 66  1  0
 35 67  1  0
M  CHG  2  10   1  27   1
M  END
>  <s_epik_cmdline>  (537) 
J2VwaWtfcHl0aG9uJywgJy1waCcsICc3LjAwMDAwMCcsICctcGh0JywgJzIuMDAwMDAwJywgJy1tcycsICcxNicsICctdG4nLCAnOCcsICctbWEnLCAnMjAwJywgJy1pbWFlJywgJzxpbmZpbGUubWFlPicsICctb21hZScsICc8b3V0ZmlsZS5tYWU+Jw==

>  <s_epik_input>  (537) 
W2NIXTFbY0hdW2NIXVtjSF1bY0hdYzFbQ0BASF0oW0NIMl1DKD1PKVtOSDJdKVtOSF1jKGMoYzIzKVtjSF1bY0hdW2NIXVtjSF0zKW5jKG4yKVtOSF1bQ0gyXVtDSDJdYzRbY0hdW2NIXWMoW2NIXVtjSF00KVtDSDJdTihbQ0gzXSlbQ0gzXQ==

>  <s_i_glide_gridfile>  (537) 
ATP-Grid

>  <s_lp_Force_Field>  (537) 
OPLS_2005

>  <s_lp_Variant>  (537) 
m_282030aaa____21926464____22360182____21950834-1

>  <s_lp_label>  (537) 
792_sdstereoexpander_1_neutralizer_1_epik_1_stereoizer_1

>  <s_m_source_file>  (537) 
ATP-VSW-LIGPREP-002-in.maegz

>  <s_sd_BIOSOLVEIT.INFINISEE\_QUERY\_NAME>  (537) 
Ref-Lig

>  <s_sd_BIOSOLVEIT.INFINISEE\_QUERY\_SMILES>  (537) 
S(c1nc2c(cc1C[NH2+]Cc3ccc(cc3)C[NH+](C)C)cccc2)Cc4ccccc4

>  <s_sd_BIOSOLVEIT.INFINISEE\_REACTION\_NAME>  (537) 
m_282030aaa

>  <s_sd_BIOSOLVEIT.INFINISEE\_REAGENT1\_SMILES>  (537) 
[R1*]NCCc1ccc(cc1)CN(C)C

>  <s_sd_BIOSOLVEIT.INFINISEE\_REAGENT2\_SMILES>  (537) 
[R2*]c1nc([R1*])c2c(n1)cccc2

>  <s_sd_BIOSOLVEIT.INFINISEE\_REAGENT3\_SMILES>  (537) 
[R2*]NC(c1ccccc1)CC(=O)N

>  <s_sd_BIOSOLVEIT.INFINISEE\_SPACE>  (537) 
REALSpace_44bn_2023-08

>  <s_vsw_compound_code>  (537) 
25314

>  <s_vsw_variant>  (537) 
25314-1

>  <r_epik_Charging_Adjusted_Penalty>  (537) 
0.13863499411934699

>  <r_epik_Ionization_Penalty>  (537) 
0.0654

>  <r_epik_Ionization_Penalty_Charging>  (537) 
0.0654

>  <r_epik_Ionization_Penalty_Neutral>  (537) 
0

>  <r_epik_State_Penalty>  (537) 
0.073200000000000001

>  <r_i_docking_score>  (537) 
-3.9974338212053802

>  <r_i_glide_ecoul>  (537) 
-9.5144433975219709

>  <r_i_glide_eff_state_penalty>  (537) 
0.073200000000000001

>  <r_i_glide_einternal>  (537) 
5.28387355804443

>  <r_i_glide_emodel>  (537) 
-55.578688474726299

>  <r_i_glide_energy>  (537) 
-40.536753654480002

>  <r_i_glide_erotb>  (537) 
0.82112538518450695

>  <r_i_glide_esite>  (537) 
-0.24576172665151699

>  <r_i_glide_evdw>  (537) 
-31.022310256958001

>  <r_i_glide_gscore>  (537) 
-4.0706338212053801

>  <r_i_glide_hbond>  (537) 
-0.18025464682275

>  <r_i_glide_ligand_efficiency>  (537) 
-0.114212394891582

>  <r_i_glide_ligand_efficiency_ln>  (537) 
-0.87752544201823002

>  <r_i_glide_ligand_efficiency_sa>  (537) 
-0.37359631669305499

>  <r_i_glide_lipo>  (537) 
-1.06206871953034

>  <r_i_glide_metal>  (537) 
-0

>  <r_i_glide_rewards>  (537) 
-0.42539209090908903

>  <r_lp_Energy>  (537) 
12.04082

>  <r_qp_ACxDN^.5/SA>  (537) 
0.0147146

>  <r_qp_CIQPlogS>  (537) 
-5.6109999999999998

>  <r_qp_EA(eV)>  (537) 
0.42799999999999999

>  <r_qp_FISA>  (537) 
140.02000000000001

>  <r_qp_FOSA>  (537) 
250.52199999999999

>  <r_qp_IP(eV)>  (537) 
7.8419999999999996

>  <r_qp_Jm>  (537) 
0.0273606429808766

>  <r_qp_PISA>  (537) 
374.572

>  <r_qp_PSA>  (537) 
97.554000000000002

>  <r_qp_PercentHumanOralAbsorption>  (537) 
81.456000000000003

>  <r_qp_QPPCaco>  (537) 
62.399999999999999

>  <r_qp_QPPMDCK>  (537) 
53.406999999999996

>  <r_qp_QPlogBB>  (537) 
-1.093

>  <r_qp_QPlogHERG>  (537) 
-5.5990000000000002

>  <r_qp_QPlogKhsa>  (537) 
0.45600000000000002

>  <r_qp_QPlogKp>  (537) 
-3.7869999999999999

>  <r_qp_QPlogPC16>  (537) 
16.175000000000001

>  <r_qp_QPlogPo/w>  (537) 
3.8220000000000001

>  <r_qp_QPlogPoct>  (537) 
25.007999999999999

>  <r_qp_QPlogPw>  (537) 
15.939

>  <r_qp_QPlogS>  (537) 
-3.4470000000000001

>  <r_qp_QPpolrz>  (537) 
49.387999999999998

>  <r_qp_SASA>  (537) 
765.11400000000003

>  <r_qp_SAamideO>  (537) 
33.895000000000003

>  <r_qp_SAfluorine>  (537) 
0

>  <r_qp_WPSA>  (537) 
0

>  <r_qp_accptHB>  (537) 
6.5

>  <r_qp_dip^2/V>  (537) 
0.039369099999999997

>  <r_qp_dipole>  (537) 
7.6200000000000001

>  <r_qp_donorHB>  (537) 
3

>  <r_qp_glob>  (537) 
0.81901590000000002

>  <r_qp_mol_MW>  (537) 
468.60000000000002

>  <r_qp_volume>  (537) 
1474.961

>  <r_sd_BIOSOLVEIT.INFINISEE\_FTREES\_SIMILARITY>  (537) 
0.92400000000000004

>  <r_sd_BIOSOLVEIT.LOGP>  (537) 
2.9575

>  <r_sd_BIOSOLVEIT.MOLECULAR\_WEIGHT>  (537) 
469.61000000000001

>  <r_sd_BIOSOLVEIT.TPSA>  (537) 
97.370000000000005

>  <i_epik_Tot_Q>  (537) 
2

>  <i_epik_Tot_abs_Q>  (537) 
2

>  <i_f3d_flags>  (537) 
0

>  <i_i_glide_confnum>  (537) 
7

>  <i_i_glide_lignum>  (537) 
246

>  <i_i_glide_posenum>  (537) 
2

>  <i_i_glide_rotatable_bonds>  (537) 
11

>  <i_lp_mmshare_version>  (537) 
65135

>  <i_m_ct_format>  (537) 
2

>  <i_m_source_file_index>  (537) 
792

>  <i_qp_#NandO>  (537) 
7

>  <i_qp_#acid>  (537) 
0

>  <i_qp_#amide>  (537) 
1

>  <i_qp_#amidine>  (537) 
0

>  <i_qp_#amine>  (537) 
1

>  <i_qp_#in34>  (537) 
0

>  <i_qp_#in56>  (537) 
22

>  <i_qp_#metab>  (537) 
8

>  <i_qp_#nonHatm>  (537) 
35

>  <i_qp_#noncon>  (537) 
0

>  <i_qp_#ringatoms>  (537) 
22

>  <i_qp_#rotor>  (537) 
11

>  <i_qp_#rtvFG>  (537) 
0

>  <i_qp_#stars>  (537) 
1

>  <i_qp_CNS>  (537) 
-2

>  <i_qp_HumanOralAbsorption>  (537) 
2

>  <i_qp_RuleOfFive>  (537) 
0

>  <i_qp_RuleOfThree>  (537) 
1

>  <i_sd_BIOSOLVEIT.INFINISEE\_REAGENT1\_NAME>  (537) 
21926464

>  <i_sd_BIOSOLVEIT.INFINISEE\_REAGENT2\_NAME>  (537) 
22360182

>  <i_sd_BIOSOLVEIT.INFINISEE\_REAGENT3\_NAME>  (537) 
21950834

>  <i_sd_BIOSOLVEIT.INFINISEE\_RESULT\_RANK>  (537) 
10735

>  <i_sd_version>  (537) 
0

>  <b_lp_Chiralities_Consistent>  (537) 
1

>  <b_sd_chiral_flag>  (537) 
0

>  <canonical_id>  (537) 
ATP-HTVS-532EC38BED39

>  <compound_code>  (537) 
25314

>  <title>  (537) 
m_282030aaa____21926464____22360182____21950834

>  <variant>  (537) 
25314-1

>  <source_file>  (537) 
运行/运行/ATP-VSW/ATP-VSW-DOCK_HTVS_1-002_lib.maegz

>  <canonical_smiles>  (537) 
C[NH+](C)Cc1ccc(CCNc2nc(N[C@H](CC(N)=O)c3ccccc3)c3ccccc3[nH+]2)cc1

>  <scaffold>  (537) 
c1ccc(CCNc2nc(NCc3ccccc3)c3ccccc3[nH+]2)cc1

>  <molecular_formula>  (537) 
C28H34N6O+2

$$$$
ATP-HTVS-5359DC82CCCB
     RDKit          3D

 57 60  0  0  0  0  0  0  0  0999 V2000
  197.5739  179.9021  152.4106 O   0  0  0  0  0  0  0  0  0  0  0  0
  197.4939  180.9840  153.2649 C   0  0  0  0  0  0  0  0  0  0  0  0
  197.5643  180.7364  154.6626 C   0  0  0  0  0  0  0  0  0  0  0  0
  197.5044  181.8212  155.5821 C   0  0  0  0  0  0  0  0  0  0  0  0
  197.3892  183.1452  155.0895 C   0  0  0  0  0  0  0  0  0  0  0  0
  197.3353  183.3863  153.7055 C   0  0  0  0  0  0  0  0  0  0  0  0
  197.3744  182.3166  152.7980 C   0  0  0  0  0  0  0  0  0  0  0  0
  197.3153  184.2414  155.9741 C   0  0  0  0  0  0  0  0  0  0  0  0
  197.3388  184.0281  157.3636 C   0  0  0  0  0  0  0  0  0  0  0  0
  197.4537  182.7192  157.8664 C   0  0  0  0  0  0  0  0  0  0  0  0
  197.5467  181.6258  156.9848 C   0  0  0  0  0  0  0  0  0  0  0  0
  197.7319  179.2984  155.1507 C   0  0  1  0  0  0  0  0  0  0  0  0
  199.1314  178.8831  155.1419 N   0  0  0  0  0  0  0  0  0  0  0  0
  199.6016  178.3321  156.4089 C   0  0  1  0  0  0  0  0  0  0  0  0
  201.0947  177.9339  156.3608 C   0  0  1  0  0  0  0  0  0  0  0  0
  201.5371  177.8110  157.6975 O   0  0  0  0  0  0  0  0  0  0  0  0
  201.3302  176.6653  155.5232 C   0  0  0  0  0  0  0  0  0  0  0  0
  201.8149  175.4671  156.1129 C   0  0  0  0  0  0  0  0  0  0  0  0
  201.9821  174.3080  155.3313 C   0  0  0  0  0  0  0  0  0  0  0  0
  201.6441  174.3161  153.9660 C   0  0  0  0  0  0  0  0  0  0  0  0
  201.1721  175.5009  153.3689 C   0  0  0  0  0  0  0  0  0  0  0  0
  201.0463  176.6687  154.1370 C   0  0  0  0  0  0  0  0  0  0  0  0
  201.7939  173.0700  153.1287 C   0  0  2  0  0  0  0  0  0  0  0  0
  197.2890  180.0842  151.0266 C   0  0  1  0  0  0  0  0  0  0  0  0
  197.6312  178.8635  150.1952 C   0  0  0  0  0  0  0  0  0  0  0  0
  197.2020  178.8010  148.8534 C   0  0  0  0  0  0  0  0  0  0  0  0
  197.5481  177.6987  148.0486 C   0  0  0  0  0  0  0  0  0  0  0  0
  198.3186  176.6505  148.5870 C   0  0  0  0  0  0  0  0  0  0  0  0
  198.7562  176.7116  149.9252 C   0  0  0  0  0  0  0  0  0  0  0  0
  198.4193  177.8198  150.7257 C   0  0  0  0  0  0  0  0  0  0  0  0
  199.2345  178.1638  154.4417 H   0  0  0  0  0  0  0  0  0  0  0  0
  197.2450  184.3958  153.3305 H   0  0  0  0  0  0  0  0  0  0  0  0
  197.3241  182.5641  151.7484 H   0  0  0  0  0  0  0  0  0  0  0  0
  197.2130  185.2448  155.5854 H   0  0  0  0  0  0  0  0  0  0  0  0
  197.2600  184.8665  158.0414 H   0  0  0  0  0  0  0  0  0  0  0  0
  197.4595  182.5420  158.9316 H   0  0  0  0  0  0  0  0  0  0  0  0
  197.6260  180.6445  157.4271 H   0  0  0  0  0  0  0  0  0  0  0  0
  197.2668  179.1369  156.1268 H   0  0  0  0  0  0  0  0  0  0  0  0
  197.1748  178.6405  154.4851 H   0  0  0  0  0  0  0  0  0  0  0  0
  199.4345  179.0516  157.2146 H   0  0  0  0  0  0  0  0  0  0  0  0
  199.0275  177.4351  156.6492 H   0  0  0  0  0  0  0  0  0  0  0  0
  201.6727  178.7455  155.9208 H   0  0  0  0  0  0  0  0  0  0  0  0
  202.4854  177.7733  157.6870 H   0  0  0  0  0  0  0  0  0  0  0  0
  202.0592  175.4203  157.1633 H   0  0  0  0  0  0  0  0  0  0  0  0
  202.3560  173.4049  155.7922 H   0  0  0  0  0  0  0  0  0  0  0  0
  200.9059  175.5184  152.3240 H   0  0  0  0  0  0  0  0  0  0  0  0
  200.7139  177.5672  153.6369 H   0  0  0  0  0  0  0  0  0  0  0  0
  200.8477  172.8195  152.6440 H   0  0  0  0  0  0  0  0  0  0  0  0
  202.1028  172.2247  153.7449 H   0  0  0  0  0  0  0  0  0  0  0  0
  202.5517  173.2299  152.3594 H   0  0  0  0  0  0  0  0  0  0  0  0
  196.2286  180.3126  150.9099 H   0  0  0  0  0  0  0  0  0  0  0  0
  197.8695  180.8967  150.5898 H   0  0  0  0  0  0  0  0  0  0  0  0
  196.6175  179.6091  148.4382 H   0  0  0  0  0  0  0  0  0  0  0  0
  197.2131  177.6508  147.0226 H   0  0  0  0  0  0  0  0  0  0  0  0
  198.5693  175.7981  147.9732 H   0  0  0  0  0  0  0  0  0  0  0  0
  199.3510  175.9091  150.3378 H   0  0  0  0  0  0  0  0  0  0  0  0
  198.7761  177.8655  151.7436 H   0  0  0  0  0  0  0  0  0  0  0  0
  1  2  1  0
  1 24  1  0
  2  3  2  0
  2  7  1  0
  3  4  1  0
  3 12  1  0
  4  5  1  0
  4 11  2  0
  5  6  1  0
  5  8  2  0
  6  7  2  0
  6 32  1  0
  7 33  1  0
  8  9  1  0
  8 34  1  0
  9 10  2  0
  9 35  1  0
 10 11  1  0
 10 36  1  0
 11 37  1  0
 12 13  1  0
 12 38  1  1
 12 39  1  0
 13 14  1  0
 13 31  1  0
 14 15  1  0
 14 40  1  1
 14 41  1  0
 15 16  1  0
 15 17  1  0
 15 42  1  6
 16 43  1  0
 17 18  1  0
 17 22  2  0
 18 19  2  0
 18 44  1  0
 19 20  1  0
 19 45  1  0
 20 21  2  0
 20 23  1  0
 21 22  1  0
 21 46  1  0
 22 47  1  0
 23 48  1  6
 23 49  1  0
 23 50  1  0
 24 25  1  0
 24 51  1  1
 24 52  1  0
 25 26  2  0
 25 30  1  0
 26 27  1  0
 26 53  1  0
 27 28  2  0
 27 54  1  0
 28 29  1  0
 28 55  1  0
 29 30  2  0
 29 56  1  0
 30 57  1  0
M  END
>  <s_epik_cmdline>  (538) 
J2VwaWtfcHl0aG9uJywgJy1waCcsICc3LjAwMDAwMCcsICctcGh0JywgJzIuMDAwMDAwJywgJy1tcycsICcxNicsICctdG4nLCAnOCcsICctbWEnLCAnMjAwJywgJy1pbWFlJywgJzxpbmZpbGUubWFlPicsICctb21hZScsICc8b3V0ZmlsZS5tYWU+Jw==

>  <s_epik_input>  (538) 
W2NIXTFbY0hdW2NIXVtjSF1bY0hdYzFbQ0gyXU9jKFtjSF1bY0hdYyhjMjMpW2NIXVtjSF1bY0hdW2NIXTMpYzJbQ0gyXVtOSF1bQ0gyXVtDQEBIXShbT0hdKWM0W2NIXVtjSF1jKFtDSDNdKVtjSF1bY0hdNA==

>  <s_i_glide_gridfile>  (538) 
ATP-Grid

>  <s_lp_Force_Field>  (538) 
OPLS_2005

>  <s_lp_Variant>  (538) 
m_270004bbb____8299102____21002124-4

>  <s_lp_label>  (538) 
725_sdstereoexpander_2_neutralizer_1_epik_2_stereoizer_1

>  <s_m_source_file>  (538) 
ATP-VSW-LIGPREP-003-in.maegz

>  <s_sd_BIOSOLVEIT.INFINISEE\_QUERY\_NAME>  (538) 
Ref-Lig

>  <s_sd_BIOSOLVEIT.INFINISEE\_QUERY\_SMILES>  (538) 
S(c1nc2c(cc1C[NH2+]Cc3ccc(cc3)C[NH+](C)C)cccc2)Cc4ccccc4

>  <s_sd_BIOSOLVEIT.INFINISEE\_REACTION\_NAME>  (538) 
m_270004bbb

>  <s_sd_BIOSOLVEIT.INFINISEE\_REAGENT1\_SMILES>  (538) 
[R1*]NCC(O)c1ccc(cc1)C

>  <s_sd_BIOSOLVEIT.INFINISEE\_REAGENT2\_SMILES>  (538) 
[R1*]Cc1c(OCc2ccccc2)ccc3c1cccc3

>  <s_sd_BIOSOLVEIT.INFINISEE\_SPACE>  (538) 
REALSpace_44bn_2023-08

>  <s_vsw_compound_code>  (538) 
23171

>  <s_vsw_variant>  (538) 
23171-4

>  <r_epik_Charging_Adjusted_Penalty>  (538) 
2.0725499308537598

>  <r_epik_Ionization_Penalty>  (538) 
2.0726

>  <r_epik_Ionization_Penalty_Charging>  (538) 
0

>  <r_epik_Ionization_Penalty_Neutral>  (538) 
2.0726

>  <r_epik_State_Penalty>  (538) 
2.0724999999999998

>  <r_i_docking_score>  (538) 
-2.1582596766007001

>  <r_i_glide_ecoul>  (538) 
-5.8559417724609402

>  <r_i_glide_eff_state_penalty>  (538) 
2.0724999999999998

>  <r_i_glide_einternal>  (538) 
5.63397216796875

>  <r_i_glide_emodel>  (538) 
-47.302744118505203

>  <r_i_glide_energy>  (538) 
-39.556224822997997

>  <r_i_glide_erotb>  (538) 
0.99107973538095795

>  <r_i_glide_esite>  (538) 
0

>  <r_i_glide_evdw>  (538) 
-33.700283050537102

>  <r_i_glide_gscore>  (538) 
-4.2307596766006998

>  <r_i_glide_hbond>  (538) 
-0.32000000000000001

>  <r_i_glide_ligand_efficiency>  (538) 
-0.071941989220023206

>  <r_i_glide_ligand_efficiency_ln>  (538) 
-0.49038011464634801

>  <r_i_glide_ligand_efficiency_sa>  (538) 
-0.22354048719400299

>  <r_i_glide_lipo>  (538) 
-1.6396302208583799

>  <r_i_glide_metal>  (538) 
-0

>  <r_i_glide_rewards>  (538) 
-0.69880377272727201

>  <r_lp_Energy>  (538) 
34.001095999999997

>  <r_qp_ACxDN^.5/SA>  (538) 
0.0086271000000000004

>  <r_qp_CIQPlogS>  (538) 
-5.8860000000000001

>  <r_qp_EA(eV)>  (538) 
0.57099999999999995

>  <r_qp_FISA>  (538) 
54.427

>  <r_qp_FOSA>  (538) 
143.191

>  <r_qp_IP(eV)>  (538) 
8.2599999999999998

>  <r_qp_Jm>  (538) 
0.46698828363455502

>  <r_qp_PISA>  (538) 
449.89299999999997

>  <r_qp_PSA>  (538) 
38.095999999999997

>  <r_qp_PercentHumanOralAbsorption>  (538) 
100

>  <r_qp_QPPCaco>  (538) 
752.77800000000002

>  <r_qp_QPPMDCK>  (538) 
402.64400000000001

>  <r_qp_QPlogBB>  (538) 
-0.062

>  <r_qp_QPlogHERG>  (538) 
-6.5369999999999999

>  <r_qp_QPlogKhsa>  (538) 
0.82199999999999995

>  <r_qp_QPlogKp>  (538) 
-2.1360000000000001

>  <r_qp_QPlogPC16>  (538) 
13.874000000000001

>  <r_qp_QPlogPo/w>  (538) 
4.9530000000000003

>  <r_qp_QPlogPoct>  (538) 
19.170000000000002

>  <r_qp_QPlogPw>  (538) 
9.5419999999999998

>  <r_qp_QPlogS>  (538) 
-3.794

>  <r_qp_QPpolrz>  (538) 
42.515999999999998

>  <r_qp_SASA>  (538) 
647.51099999999997

>  <r_qp_SAamideO>  (538) 
0

>  <r_qp_SAfluorine>  (538) 
0

>  <r_qp_WPSA>  (538) 
0

>  <r_qp_accptHB>  (538) 
3.9500000000000002

>  <r_qp_dip^2/V>  (538) 
0.0049649999999999998

>  <r_qp_dipole>  (538) 
2.4940000000000002

>  <r_qp_donorHB>  (538) 
2

>  <r_qp_glob>  (538) 
0.86815030000000004

>  <r_qp_mol_MW>  (538) 
397.51600000000002

>  <r_qp_volume>  (538) 
1253.1869999999999

>  <r_sd_BIOSOLVEIT.INFINISEE\_FTREES\_SIMILARITY>  (538) 
0.92800000000000005

>  <r_sd_BIOSOLVEIT.LOGP>  (538) 
4.5242199999999997

>  <r_sd_BIOSOLVEIT.MOLECULAR\_WEIGHT>  (538) 
398.52300000000002

>  <r_sd_BIOSOLVEIT.TPSA>  (538) 
46.07

>  <i_epik_Tot_Q>  (538) 
0

>  <i_epik_Tot_abs_Q>  (538) 
0

>  <i_f3d_flags>  (538) 
0

>  <i_i_glide_confnum>  (538) 
6

>  <i_i_glide_lignum>  (538) 
306

>  <i_i_glide_posenum>  (538) 
4

>  <i_i_glide_rotatable_bonds>  (538) 
9

>  <i_lp_mmshare_version>  (538) 
65135

>  <i_m_ct_format>  (538) 
2

>  <i_m_source_file_index>  (538) 
725

>  <i_qp_#NandO>  (538) 
3

>  <i_qp_#acid>  (538) 
0

>  <i_qp_#amide>  (538) 
0

>  <i_qp_#amidine>  (538) 
0

>  <i_qp_#amine>  (538) 
1

>  <i_qp_#in34>  (538) 
0

>  <i_qp_#in56>  (538) 
22

>  <i_qp_#metab>  (538) 
6

>  <i_qp_#nonHatm>  (538) 
30

>  <i_qp_#noncon>  (538) 
0

>  <i_qp_#ringatoms>  (538) 
22

>  <i_qp_#rotor>  (538) 
9

>  <i_qp_#rtvFG>  (538) 
0

>  <i_qp_#stars>  (538) 
0

>  <i_qp_CNS>  (538) 
1

>  <i_qp_HumanOralAbsorption>  (538) 
3

>  <i_qp_RuleOfFive>  (538) 
0

>  <i_qp_RuleOfThree>  (538) 
0

>  <i_sd_BIOSOLVEIT.INFINISEE\_REAGENT1\_NAME>  (538) 
8299102

>  <i_sd_BIOSOLVEIT.INFINISEE\_REAGENT2\_NAME>  (538) 
21002124

>  <i_sd_BIOSOLVEIT.INFINISEE\_RESULT\_RANK>  (538) 
6151

>  <i_sd_version>  (538) 
0

>  <b_lp_Chiralities_Consistent>  (538) 
1

>  <b_sd_chiral_flag>  (538) 
0

>  <canonical_id>  (538) 
ATP-HTVS-5359DC82CCCB

>  <compound_code>  (538) 
23171

>  <title>  (538) 
m_270004bbb____8299102____21002124

>  <variant>  (538) 
23171-4

>  <source_file>  (538) 
运行/运行/ATP-VSW/ATP-VSW-DOCK_HTVS_1-003_lib/ATP-VSW-DOCK_HTVS_1-003_lib.mae

>  <canonical_smiles>  (538) 
Cc1ccc([C@H](O)CNCc2c(OCc3ccccc3)ccc3ccccc23)cc1

>  <scaffold>  (538) 
c1ccc(CCNCc2c(OCc3ccccc3)ccc3ccccc23)cc1

>  <molecular_formula>  (538) 
C27H27NO2

$$$$
ATP-HTVS-53CB9D69C030
     RDKit          3D

 66 69  0  0  0  0  0  0  0  0999 V2000
  195.4305  186.6679  160.8219 Cl  0  0  0  0  0  0  0  0  0  0  0  0
  196.0340  185.5072  159.6924 C   0  0  0  0  0  0  0  0  0  0  0  0
  196.6010  185.9211  158.4689 C   0  0  0  0  0  0  0  0  0  0  0  0
  197.1102  184.9731  157.5464 C   0  0  0  0  0  0  0  0  0  0  0  0
  197.0311  183.5960  157.8804 C   0  0  0  0  0  0  0  0  0  0  0  0
  196.4559  183.1838  159.0964 C   0  0  0  0  0  0  0  0  0  0  0  0
  195.9633  184.1364  160.0016 C   0  0  0  0  0  0  0  0  0  0  0  0
  197.7150  185.4096  156.2708 C   0  0  0  0  0  0  0  0  0  0  0  0
  198.1295  186.6689  156.1785 N   0  0  0  0  0  0  0  0  0  0  0  0
  198.6839  186.7992  154.9528 N   0  0  0  0  0  0  0  0  0  0  0  0
  199.2280  188.0343  154.5050 C   0  0  0  0  0  0  0  0  0  0  0  0
  199.4532  189.0969  155.4099 C   0  0  0  0  0  0  0  0  0  0  0  0
  200.0146  190.3069  154.9649 C   0  0  0  0  0  0  0  0  0  0  0  0
  200.3536  190.4734  153.6066 C   0  0  0  0  0  0  0  0  0  0  0  0
  200.1214  189.4272  152.6923 C   0  0  0  0  0  0  0  0  0  0  0  0
  199.5568  188.2171  153.1383 C   0  0  0  0  0  0  0  0  0  0  0  0
  198.6301  185.6020  154.2794 C   0  0  0  0  0  0  0  0  0  0  0  0
  197.9635  184.6904  155.0523 C   0  0  0  0  0  0  0  0  0  0  0  0
  197.6123  183.2633  154.6707 C   0  0  1  0  0  0  0  0  0  0  0  0
  198.0525  182.8479  153.3344 N   0  0  0  0  0  0  0  0  0  0  0  0
  197.8659  181.4066  153.1416 C   0  0  1  0  0  0  0  0  0  0  0  0
  198.7658  180.4996  153.9738 C   0  0  0  0  0  0  0  0  0  0  0  0
  198.1969  179.5234  154.8211 C   0  0  0  0  0  0  0  0  0  0  0  0
  199.0237  178.6205  155.5153 C   0  0  0  0  0  0  0  0  0  0  0  0
  200.4251  178.6749  155.3688 C   0  0  0  0  0  0  0  0  0  0  0  0
  200.9966  179.6731  154.5500 C   0  0  0  0  0  0  0  0  0  0  0  0
  200.1688  180.5768  153.8519 C   0  0  0  0  0  0  0  0  0  0  0  0
  201.3082  177.6439  156.0536 C   0  0  1  0  0  0  0  0  0  0  0  0
  201.6815  176.5338  155.1400 N   0  0  2  0  0  0  0  0  0  0  0  0
  200.5170  175.8312  154.5480 C   0  0  1  0  0  0  0  0  0  0  0  0
  200.9267  174.7957  153.5204 C   0  0  0  0  0  0  0  0  0  0  0  0
  200.7539  173.4708  153.6536 C   0  0  0  0  0  0  0  0  0  0  0  0
  202.6394  175.5928  155.7759 C   0  0  2  0  0  0  0  0  0  0  0  0
  197.2723  183.5312  152.3004 C   0  0  2  0  0  0  0  0  0  0  0  0
  196.6496  186.9803  158.2530 H   0  0  0  0  0  0  0  0  0  0  0  0
  197.4183  182.8248  157.2241 H   0  0  0  0  0  0  0  0  0  0  0  0
  196.4102  182.1313  159.3287 H   0  0  0  0  0  0  0  0  0  0  0  0
  195.5342  183.8255  160.9387 H   0  0  0  0  0  0  0  0  0  0  0  0
  199.2039  188.9879  156.4557 H   0  0  0  0  0  0  0  0  0  0  0  0
  200.1895  191.1094  155.6662 H   0  0  0  0  0  0  0  0  0  0  0  0
  200.7890  191.4010  153.2635 H   0  0  0  0  0  0  0  0  0  0  0  0
  200.3782  189.5494  151.6515 H   0  0  0  0  0  0  0  0  0  0  0  0
  199.3861  187.4405  152.4100 H   0  0  0  0  0  0  0  0  0  0  0  0
  199.0474  185.4980  153.2914 H   0  0  0  0  0  0  0  0  0  0  0  0
  198.0621  182.5678  155.3804 H   0  0  0  0  0  0  0  0  0  0  0  0
  196.5343  183.0924  154.7497 H   0  0  0  0  0  0  0  0  0  0  0  0
  196.8214  181.1406  153.3110 H   0  0  0  0  0  0  0  0  0  0  0  0
  198.0899  181.1691  152.1023 H   0  0  0  0  0  0  0  0  0  0  0  0
  197.1232  179.4367  154.9203 H   0  0  0  0  0  0  0  0  0  0  0  0
  198.5652  177.8618  156.1353 H   0  0  0  0  0  0  0  0  0  0  0  0
  202.0697  179.7309  154.4306 H   0  0  0  0  0  0  0  0  0  0  0  0
  200.6110  181.3108  153.1935 H   0  0  0  0  0  0  0  0  0  0  0  0
  202.2097  178.1474  156.4042 H   0  0  0  0  0  0  0  0  0  0  0  0
  200.8042  177.2530  156.9395 H   0  0  0  0  0  0  0  0  0  0  0  0
  199.9504  175.3696  155.3547 H   0  0  0  0  0  0  0  0  0  0  0  0
  199.8387  176.5162  154.0402 H   0  0  0  0  0  0  0  0  0  0  0  0
  201.3886  175.1761  152.6215 H   0  0  0  0  0  0  0  0  0  0  0  0
  200.2937  173.0502  154.5372 H   0  0  0  0  0  0  0  0  0  0  0  0
  201.0764  172.7831  152.8855 H   0  0  0  0  0  0  0  0  0  0  0  0
  202.1984  175.1103  156.6497 H   0  0  0  0  0  0  0  0  0  0  0  0
  203.5375  176.1165  156.0876 H   0  0  0  0  0  0  0  0  0  0  0  0
  202.9739  174.8103  155.0959 H   0  0  0  0  0  0  0  0  0  0  0  0
  197.6371  183.2294  151.3166 H   0  0  0  0  0  0  0  0  0  0  0  0
  197.3578  184.6193  152.3641 H   0  0  0  0  0  0  0  0  0  0  0  0
  196.2189  183.2566  152.3761 H   0  0  0  0  0  0  0  0  0  0  0  0
  202.1697  176.9678  154.3701 H   0  0  0  0  0  0  0  0  0  0  0  0
  1  2  1  0
  2  3  2  0
  2  7  1  0
  3  4  1  0
  3 35  1  0
  4  5  2  0
  4  8  1  0
  5  6  1  0
  5 36  1  0
  6  7  2  0
  6 37  1  0
  7 38  1  0
  8  9  2  0
  8 18  1  0
  9 10  1  0
 10 11  1  0
 10 17  1  0
 11 12  2  0
 11 16  1  0
 12 13  1  0
 12 39  1  0
 13 14  2  0
 13 40  1  0
 14 15  1  0
 14 41  1  0
 15 16  2  0
 15 42  1  0
 16 43  1  0
 17 18  2  0
 17 44  1  0
 18 19  1  0
 19 20  1  0
 19 45  1  1
 19 46  1  0
 20 21  1  0
 20 34  1  0
 21 22  1  0
 21 47  1  1
 21 48  1  0
 22 23  1  0
 22 27  2  0
 23 24  2  0
 23 49  1  0
 24 25  1  0
 24 50  1  0
 25 26  2  0
 25 28  1  0
 26 27  1  0
 26 51  1  0
 27 52  1  0
 28 29  1  0
 28 53  1  1
 28 54  1  0
 29 30  1  0
 29 33  1  0
 29 66  1  6
 30 31  1  0
 30 55  1  1
 30 56  1  0
 31 32  2  0
 31 57  1  0
 32 58  1  0
 32 59  1  0
 33 60  1  1
 33 61  1  0
 33 62  1  0
 34 63  1  6
 34 64  1  0
 34 65  1  0
M  CHG  1  29   1
M  END
>  <s_epik_cmdline>  (539) 
J2VwaWtfcHl0aG9uJywgJy1waCcsICc3LjAwMDAwMCcsICctcGh0JywgJzIuMDAwMDAwJywgJy1tcycsICcxNicsICctdG4nLCAnOCcsICctbWEnLCAnMjAwJywgJy1pbWFlJywgJzxpbmZpbGUubWFlPicsICctb21hZScsICc8b3V0ZmlsZS5tYWU+Jw==

>  <s_epik_input>  (539) 
Q2xjMVtjSF1jKFtjSF1bY0hdW2NIXTEpLWMybm4oLWMzW2NIXVtjSF1bY0hdW2NIXVtjSF0zKVtjSF1jMltDSDJdTihbQ0gzXSlbQ0gyXWM0W2NIXVtjSF1jKFtjSF1bY0hdNClbQ0gyXU4oW0NIM10pW0NIMl1bQ0hdPVtDSDJd

>  <s_i_glide_gridfile>  (539) 
ATP-Grid

>  <s_lp_Force_Field>  (539) 
OPLS_2005

>  <s_lp_Variant>  (539) 
m_270004bca____24158756____7547734-6

>  <s_lp_label>  (539) 
1036_sdstereoexpander_1_neutralizer_1_epik_2_stereoizer_2

>  <s_m_source_file>  (539) 
ATP-VSW-LIGPREP-001-in.maegz

>  <s_sd_BIOSOLVEIT.INFINISEE\_QUERY\_NAME>  (539) 
Ref-Lig

>  <s_sd_BIOSOLVEIT.INFINISEE\_QUERY\_SMILES>  (539) 
S(c1nc2c(cc1C[NH2+]Cc3ccc(cc3)C[NH+](C)C)cccc2)Cc4ccccc4

>  <s_sd_BIOSOLVEIT.INFINISEE\_REACTION\_NAME>  (539) 
m_270004bca

>  <s_sd_BIOSOLVEIT.INFINISEE\_REAGENT1\_SMILES>  (539) 
[R1*]N(Cc1ccc(cc1)CN(CC=C)C)C

>  <s_sd_BIOSOLVEIT.INFINISEE\_REAGENT2\_SMILES>  (539) 
[R1*]CC=1C(=NN(c2ccccc2)C1)c3cc(Cl)ccc3

>  <s_sd_BIOSOLVEIT.INFINISEE\_SPACE>  (539) 
REALSpace_44bn_2023-08

>  <s_vsw_compound_code>  (539) 
33121

>  <s_vsw_variant>  (539) 
33121-6

>  <r_epik_Charging_Adjusted_Penalty>  (539) 
0.76858201733446296

>  <r_epik_Ionization_Penalty>  (539) 
0.7177

>  <r_epik_Ionization_Penalty_Charging>  (539) 
0.045499999999999999

>  <r_epik_Ionization_Penalty_Neutral>  (539) 
0.67220000000000002

>  <r_epik_State_Penalty>  (539) 
0.72299999999999998

>  <r_i_docking_score>  (539) 
-3.1308705674292701

>  <r_i_glide_ecoul>  (539) 
-5.9777755737304696

>  <r_i_glide_eff_state_penalty>  (539) 
0.72299999999999998

>  <r_i_glide_einternal>  (539) 
1.40625488758087

>  <r_i_glide_emodel>  (539) 
-51.847494718476597

>  <r_i_glide_energy>  (539) 
-39.922863006591797

>  <r_i_glide_erotb>  (539) 
0.90730722507918704

>  <r_i_glide_esite>  (539) 
-0.00762182388685664

>  <r_i_glide_evdw>  (539) 
-33.9450874328613

>  <r_i_glide_gscore>  (539) 
-3.8538705674292699

>  <r_i_glide_hbond>  (539) 
0

>  <r_i_glide_ligand_efficiency>  (539) 
-0.092084428453802006

>  <r_i_glide_ligand_efficiency_ln>  (539) 
-0.69169712628994995

>  <r_i_glide_ligand_efficiency_sa>  (539) 
-0.29831780078217002

>  <r_i_glide_lipo>  (539) 
-1.74402535182805

>  <r_i_glide_metal>  (539) 
-0

>  <r_i_glide_rewards>  (539) 
-0.415609909090908

>  <r_lp_Energy>  (539) 
19.333264

>  <r_lp_tautomer_probability>  (539) 
1

>  <r_qp_ACxDN^.5/SA>  (539) 
0

>  <r_qp_CIQPlogS>  (539) 
-2.556

>  <r_qp_EA(eV)>  (539) 
0.41099999999999998

>  <r_qp_FISA>  (539) 
0

>  <r_qp_FOSA>  (539) 
245.08099999999999

>  <r_qp_IP(eV)>  (539) 
8.5649999999999995

>  <r_qp_Jm>  (539) 
0.28947570912189802

>  <r_qp_PISA>  (539) 
346.61700000000002

>  <r_qp_PSA>  (539) 
16.853000000000002

>  <r_qp_PercentHumanOralAbsorption>  (539) 
100

>  <r_qp_QPPCaco>  (539) 
616.16899999999998

>  <r_qp_QPPMDCK>  (539) 
801.47400000000005

>  <r_qp_QPlogBB>  (539) 
-1.603

>  <r_qp_QPlogHERG>  (539) 
-6.0110000000000001

>  <r_qp_QPlogKhsa>  (539) 
0.94999999999999996

>  <r_qp_QPlogKp>  (539) 
-3.6560000000000001

>  <r_qp_QPlogPC16>  (539) 
13.9

>  <r_qp_QPlogPo/w>  (539) 
4.7939999999999996

>  <r_qp_QPlogPoct>  (539) 
18.753

>  <r_qp_QPlogPw>  (539) 
6.8369999999999997

>  <r_qp_QPlogS>  (539) 
-2.556

>  <r_qp_QPpolrz>  (539) 
47.292000000000002

>  <r_qp_SASA>  (539) 
655.423

>  <r_qp_SAamideO>  (539) 
0

>  <r_qp_SAfluorine>  (539) 
0

>  <r_qp_WPSA>  (539) 
63.725999999999999

>  <r_qp_accptHB>  (539) 
5

>  <r_qp_dip^2/V>  (539) 
0.012545199999999999

>  <r_qp_dipole>  (539) 
4.1630000000000003

>  <r_qp_donorHB>  (539) 
0

>  <r_qp_glob>  (539) 
0.91509059999999998

>  <r_qp_mol_MW>  (539) 
471.04399999999998

>  <r_qp_volume>  (539) 
1381.1199999999999

>  <r_sd_BIOSOLVEIT.INFINISEE\_FTREES\_SIMILARITY>  (539) 
0.91500000000000004

>  <r_sd_BIOSOLVEIT.LOGP>  (539) 
3.6082999999999998

>  <r_sd_BIOSOLVEIT.MOLECULAR\_WEIGHT>  (539) 
473.06099999999998

>  <r_sd_BIOSOLVEIT.TPSA>  (539) 
26.699999999999999

>  <i_epik_Tot_Q>  (539) 
1

>  <i_epik_Tot_abs_Q>  (539) 
1

>  <i_f3d_flags>  (539) 
0

>  <i_i_glide_confnum>  (539) 
14

>  <i_i_glide_lignum>  (539) 
226

>  <i_i_glide_posenum>  (539) 
5

>  <i_i_glide_rotatable_bonds>  (539) 
10

>  <i_lp_mmshare_version>  (539) 
65135

>  <i_m_ct_format>  (539) 
2

>  <i_m_source_file_index>  (539) 
1036

>  <i_qp_#NandO>  (539) 
4

>  <i_qp_#acid>  (539) 
0

>  <i_qp_#amide>  (539) 
0

>  <i_qp_#amidine>  (539) 
0

>  <i_qp_#amine>  (539) 
2

>  <i_qp_#in34>  (539) 
0

>  <i_qp_#in56>  (539) 
23

>  <i_qp_#metab>  (539) 
6

>  <i_qp_#nonHatm>  (539) 
34

>  <i_qp_#noncon>  (539) 
0

>  <i_qp_#ringatoms>  (539) 
23

>  <i_qp_#rotor>  (539) 
8

>  <i_qp_#rtvFG>  (539) 
0

>  <i_qp_#stars>  (539) 
1

>  <i_qp_CNS>  (539) 
-2

>  <i_qp_HumanOralAbsorption>  (539) 
3

>  <i_qp_RuleOfFive>  (539) 
0

>  <i_qp_RuleOfThree>  (539) 
0

>  <i_sd_BIOSOLVEIT.INFINISEE\_REAGENT1\_NAME>  (539) 
24158756

>  <i_sd_BIOSOLVEIT.INFINISEE\_REAGENT2\_NAME>  (539) 
7547734

>  <i_sd_BIOSOLVEIT.INFINISEE\_RESULT\_RANK>  (539) 
28562

>  <i_sd_version>  (539) 
0

>  <b_lp_Chiralities_Consistent>  (539) 
1

>  <b_sd_chiral_flag>  (539) 
0

>  <canonical_id>  (539) 
ATP-HTVS-53CB9D69C030

>  <compound_code>  (539) 
33121

>  <title>  (539) 
m_270004bca____24158756____7547734

>  <variant>  (539) 
33121-6

>  <source_file>  (539) 
运行/运行/ATP-VSW/ATP-VSW-DOCK_HTVS_1-001_lib/ATP-VSW-DOCK_HTVS_1-001_lib

>  <canonical_smiles>  (539) 
C=CC[N@H+](C)Cc1ccc(CN(C)Cc2cn(-c3ccccc3)nc2-c2cccc(Cl)c2)cc1

>  <scaffold>  (539) 
c1ccc(CNCc2cn(-c3ccccc3)nc2-c2ccccc2)cc1

>  <molecular_formula>  (539) 
C29H32ClN4+

$$$$
ATP-HTVS-5401EBEC1B21
     RDKit          3D

 58 61  0  0  0  0  0  0  0  0999 V2000
  200.7530  177.8320  158.1397 Cl  0  0  0  0  0  0  0  0  0  0  0  0
  201.3116  178.3226  156.5733 C   0  0  0  0  0  0  0  0  0  0  0  0
  201.9662  179.5602  156.3501 C   0  0  0  0  0  0  0  0  0  0  0  0
  202.3070  179.9163  155.0260 C   0  0  0  0  0  0  0  0  0  0  0  0
  201.9935  179.0797  153.9400 C   0  0  0  0  0  0  0  0  0  0  0  0
  201.3312  177.8612  154.1720 C   0  0  0  0  0  0  0  0  0  0  0  0
  200.9932  177.4911  155.4639 C   0  0  0  0  0  0  0  0  0  0  0  0
  202.2735  180.5309  157.4919 C   0  0  1  0  0  0  0  0  0  0  0  0
  203.6481  180.2580  158.0071 N   0  0  1  0  0  0  0  0  0  0  0  0
  204.7512  180.7025  157.1159 C   0  0  2  0  0  0  0  0  0  0  0  0
  203.8636  180.7119  159.4019 C   0  0  2  0  0  0  0  0  0  0  0  0
  202.0601  182.0449  157.1435 C   0  0  1  0  0  0  0  0  0  0  0  0
  200.7342  182.3689  156.6219 N   0  0  0  0  0  0  0  0  0  0  0  0
  199.6564  182.6953  157.4692 C   0  0  0  0  0  0  0  0  0  0  0  0
  198.3139  182.4657  157.0626 C   0  0  0  0  0  0  0  0  0  0  0  0
  197.9716  181.9159  155.7949 N   0  0  0  0  0  0  0  0  0  0  0  0
  198.2797  180.6770  155.3673 C   0  0  0  0  0  0  0  0  0  0  0  0
  198.9445  179.8741  156.0265 O   0  0  0  0  0  0  0  0  0  0  0  0
  197.8183  180.3497  153.9747 C   0  0  0  0  0  0  0  0  0  0  0  0
  198.5703  179.3672  153.2374 C   0  0  0  0  0  0  0  0  0  0  0  0
  198.1585  179.0208  151.9060 C   0  0  0  0  0  0  0  0  0  0  0  0
  197.0332  179.6110  151.3382 C   0  0  0  0  0  0  0  0  0  0  0  0
  196.3048  180.5721  152.0791 C   0  0  0  0  0  0  0  0  0  0  0  0
  196.6946  180.9364  153.3889 C   0  0  0  0  0  0  0  0  0  0  0  0
  197.2679  182.8994  157.9293 C   0  0  0  0  0  0  0  0  0  0  0  0
  197.6078  183.5332  159.1581 C   0  0  0  0  0  0  0  0  0  0  0  0
  198.8812  183.7246  159.5383 N   0  0  0  0  0  0  0  0  0  0  0  0
  199.8714  183.3131  158.7240 C   0  0  0  0  0  0  0  0  0  0  0  0
  196.5692  183.9969  159.9963 C   0  0  0  0  0  0  0  0  0  0  0  0
  195.2209  183.8305  159.6415 C   0  0  0  0  0  0  0  0  0  0  0  0
  194.8925  183.1873  158.4398 C   0  0  0  0  0  0  0  0  0  0  0  0
  195.9119  182.7215  157.5898 C   0  0  0  0  0  0  0  0  0  0  0  0
  202.7416  180.8831  154.7997 H   0  0  0  0  0  0  0  0  0  0  0  0
  202.1765  179.4248  152.9391 H   0  0  0  0  0  0  0  0  0  0  0  0
  201.0575  177.2438  153.3342 H   0  0  0  0  0  0  0  0  0  0  0  0
  200.3652  176.6192  155.6311 H   0  0  0  0  0  0  0  0  0  0  0  0
  201.5722  180.3015  158.2960 H   0  0  0  0  0  0  0  0  0  0  0  0
  204.7391  181.7789  156.9386 H   0  0  0  0  0  0  0  0  0  0  0  0
  204.7099  180.1929  156.1525 H   0  0  0  0  0  0  0  0  0  0  0  0
  205.7258  180.4718  157.5497 H   0  0  0  0  0  0  0  0  0  0  0  0
  203.7582  181.7942  159.4895 H   0  0  0  0  0  0  0  0  0  0  0  0
  204.8701  180.4561  159.7386 H   0  0  0  0  0  0  0  0  0  0  0  0
  203.1531  180.2560  160.0907 H   0  0  0  0  0  0  0  0  0  0  0  0
  202.3364  182.6695  157.9997 H   0  0  0  0  0  0  0  0  0  0  0  0
  202.7393  182.3596  156.3608 H   0  0  0  0  0  0  0  0  0  0  0  0
  200.5111  182.0131  155.7048 H   0  0  0  0  0  0  0  0  0  0  0  0
  197.2547  182.3994  155.2732 H   0  0  0  0  0  0  0  0  0  0  0  0
  199.4225  178.8767  153.6919 H   0  0  0  0  0  0  0  0  0  0  0  0
  198.7405  178.2823  151.3745 H   0  0  0  0  0  0  0  0  0  0  0  0
  196.7202  179.3280  150.3393 H   0  0  0  0  0  0  0  0  0  0  0  0
  195.4207  181.0243  151.6557 H   0  0  0  0  0  0  0  0  0  0  0  0
  196.1075  181.6473  153.9426 H   0  0  0  0  0  0  0  0  0  0  0  0
  200.8551  183.5450  159.0959 H   0  0  0  0  0  0  0  0  0  0  0  0
  196.8259  184.4815  160.9230 H   0  0  0  0  0  0  0  0  0  0  0  0
  194.4351  184.1876  160.2919 H   0  0  0  0  0  0  0  0  0  0  0  0
  193.8642  183.0514  158.1463 H   0  0  0  0  0  0  0  0  0  0  0  0
  195.6102  182.2390  156.6719 H   0  0  0  0  0  0  0  0  0  0  0  0
  203.7339  179.2481  158.0086 H   0  0  0  0  0  0  0  0  0  0  0  0
  1  2  1  0
  2  3  1  0
  2  7  2  0
  3  4  2  0
  3  8  1  0
  4  5  1  0
  4 33  1  0
  5  6  2  0
  5 34  1  0
  6  7  1  0
  6 35  1  0
  7 36  1  0
  8  9  1  0
  8 12  1  0
  8 37  1  1
  9 10  1  0
  9 11  1  0
  9 58  1  1
 10 38  1  6
 10 39  1  0
 10 40  1  0
 11 41  1  6
 11 42  1  0
 11 43  1  0
 12 13  1  0
 12 44  1  1
 12 45  1  0
 13 14  1  0
 13 46  1  0
 14 15  2  0
 14 28  1  0
 15 16  1  0
 15 25  1  0
 16 17  1  0
 16 47  1  0
 17 18  2  0
 17 19  1  0
 19 20  2  0
 19 24  1  0
 20 21  1  0
 20 48  1  0
 21 22  2  0
 21 49  1  0
 22 23  1  0
 22 50  1  0
 23 24  2  0
 23 51  1  0
 24 52  1  0
 25 26  1  0
 25 32  2  0
 26 27  1  0
 26 29  2  0
 27 28  2  0
 28 53  1  0
 29 30  1  0
 29 54  1  0
 30 31  2  0
 30 55  1  0
 31 32  1  0
 31 56  1  0
 32 57  1  0
M  CHG  1   9   1
M  END
>  <s_epik_cmdline>  (540) 
J2VwaWtfcHl0aG9uJywgJy1waCcsICc3LjAwMDAwMCcsICctcGh0JywgJzIuMDAwMDAwJywgJy1tcycsICcxNicsICctdG4nLCAnOCcsICctbWEnLCAnMjAwJywgJy1pbWFlJywgJzxpbmZpbGUubWFlPicsICctb21hZScsICc8b3V0ZmlsZS5tYWU+Jw==

>  <s_epik_input>  (540) 
W2NIXTFbY0hdW2NIXVtjSF1jKGMxQ2wpW0NAQEhdKE4oW0NIM10pW0NIM10pW0NIMl1bTkhdYyhbY0hdbmMoYzIzKVtjSF1bY0hdW2NIXVtjSF0zKWMyW05IXUMoPU8pYzRbY0hdW2NIXVtjSF1bY0hdW2NIXTQ=

>  <s_i_glide_gridfile>  (540) 
ATP-Grid

>  <s_lp_Force_Field>  (540) 
OPLS_2005

>  <s_lp_Variant>  (540) 
rxn502b____EMOL480353____EMOL13728749____EMOL932560-1

>  <s_lp_label>  (540) 
2410_sdstereoexpander_1_neutralizer_1_epik_1_stereoizer_1

>  <s_m_source_file>  (540) 
ATP-VSW-LIGPREP-003-in.maegz

>  <s_sd_BIOSOLVEIT.INFINISEE\_QUERY\_NAME>  (540) 
Ref-Lig

>  <s_sd_BIOSOLVEIT.INFINISEE\_QUERY\_SMILES>  (540) 
S(c1nc2c(cc1C[NH2+]Cc3ccc(cc3)C[NH+](C)C)cccc2)Cc4ccccc4

>  <s_sd_BIOSOLVEIT.INFINISEE\_REACTION\_NAME>  (540) 
rxn502b

>  <s_sd_BIOSOLVEIT.INFINISEE\_REAGENT1\_NAME>  (540) 
EMOL480353

>  <s_sd_BIOSOLVEIT.INFINISEE\_REAGENT1\_SMILES>  (540) 
ClC(=O)c1ccccc1

>  <s_sd_BIOSOLVEIT.INFINISEE\_REAGENT2\_NAME>  (540) 
EMOL13728749

>  <s_sd_BIOSOLVEIT.INFINISEE\_REAGENT2\_SMILES>  (540) 
Brc1c(N)c2c(nc1)cccc2

>  <s_sd_BIOSOLVEIT.INFINISEE\_REAGENT3\_NAME>  (540) 
EMOL932560

>  <s_sd_BIOSOLVEIT.INFINISEE\_REAGENT3\_SMILES>  (540) 
Clc1c(cccc1)C(N(C)C)CN

>  <s_sd_BIOSOLVEIT.INFINISEE\_SPACE>  (540) 
eXplore_7tr_2022-12

>  <s_vsw_compound_code>  (540) 
77091

>  <s_vsw_variant>  (540) 
77091-1

>  <r_epik_Charging_Adjusted_Penalty>  (540) 
0.111772929242324

>  <r_epik_Ionization_Penalty>  (540) 
0.066400000000000001

>  <r_epik_Ionization_Penalty_Charging>  (540) 
0.055300000000000002

>  <r_epik_Ionization_Penalty_Neutral>  (540) 
0.0111

>  <r_epik_State_Penalty>  (540) 
0.056399999999999999

>  <r_i_docking_score>  (540) 
-3.9785056311570801

>  <r_i_glide_ecoul>  (540) 
-6.5750079154968297

>  <r_i_glide_eff_state_penalty>  (540) 
0.056399999999999999

>  <r_i_glide_einternal>  (540) 
2.92873191833496

>  <r_i_glide_emodel>  (540) 
-53.419568514526098

>  <r_i_glide_energy>  (540) 
-41.562110424041698

>  <r_i_glide_erotb>  (540) 
0.60374610160984499

>  <r_i_glide_esite>  (540) 
-0.092827304806959401

>  <r_i_glide_evdw>  (540) 
-34.987102508544901

>  <r_i_glide_gscore>  (540) 
-4.0349056311570903

>  <r_i_glide_hbond>  (540) 
0

>  <r_i_glide_ligand_efficiency>  (540) 
-0.124328300973659

>  <r_i_glide_ligand_efficiency_ln>  (540) 
-0.89089586078362104

>  <r_i_glide_ligand_efficiency_sa>  (540) 
-0.39471775105401402

>  <r_i_glide_lipo>  (540) 
-1.21678770611729

>  <r_i_glide_metal>  (540) 
-0

>  <r_i_glide_rewards>  (540) 
-0.59343040909090905

>  <r_lp_Energy>  (540) 
38.269826999999999

>  <r_qp_ACxDN^.5/SA>  (540) 
0.0130394

>  <r_qp_CIQPlogS>  (540) 
-5.8730000000000002

>  <r_qp_EA(eV)>  (540) 
0.85899999999999999

>  <r_qp_FISA>  (540) 
54.68

>  <r_qp_FOSA>  (540) 
149.33000000000001

>  <r_qp_IP(eV)>  (540) 
7.9850000000000003

>  <r_qp_Jm>  (540) 
0.0777738102740511

>  <r_qp_PISA>  (540) 
464.13

>  <r_qp_PSA>  (540) 
57.790999999999997

>  <r_qp_PercentHumanOralAbsorption>  (540) 
100

>  <r_qp_QPPCaco>  (540) 
748.63099999999997

>  <r_qp_QPPMDCK>  (540) 
636.93799999999999

>  <r_qp_QPlogBB>  (540) 
0.106

>  <r_qp_QPlogHERG>  (540) 
-7.1639999999999997

>  <r_qp_QPlogKhsa>  (540) 
0.66700000000000004

>  <r_qp_QPlogKp>  (540) 
-2.2829999999999999

>  <r_qp_QPlogPC16>  (540) 
15.002000000000001

>  <r_qp_QPlogPo/w>  (540) 
4.6260000000000003

>  <r_qp_QPlogPoct>  (540) 
22.911999999999999

>  <r_qp_QPlogPw>  (540) 
12.744999999999999

>  <r_qp_QPlogS>  (540) 
-4.4749999999999996

>  <r_qp_QPpolrz>  (540) 
47.393000000000001

>  <r_qp_SASA>  (540) 
704.97199999999998

>  <r_qp_SAamideO>  (540) 
0

>  <r_qp_SAfluorine>  (540) 
0

>  <r_qp_WPSA>  (540) 
36.832999999999998

>  <r_qp_accptHB>  (540) 
6.5

>  <r_qp_dip^2/V>  (540) 
0.040184299999999999

>  <r_qp_dipole>  (540) 
7.3369999999999997

>  <r_qp_donorHB>  (540) 
2

>  <r_qp_glob>  (540) 
0.83361839999999998

>  <r_qp_mol_MW>  (540) 
444.96300000000002

>  <r_qp_volume>  (540) 
1339.558

>  <r_sd_BIOSOLVEIT.INFINISEE\_FTREES\_SIMILARITY>  (540) 
0.91800000000000004

>  <r_sd_BIOSOLVEIT.LOGP>  (540) 
4.4382000000000001

>  <r_sd_BIOSOLVEIT.MOLECULAR\_WEIGHT>  (540) 
445.971

>  <r_sd_BIOSOLVEIT.TPSA>  (540) 
58.460000000000001

>  <i_epik_Tot_Q>  (540) 
1

>  <i_epik_Tot_abs_Q>  (540) 
1

>  <i_f3d_flags>  (540) 
0

>  <i_i_glide_confnum>  (540) 
1

>  <i_i_glide_lignum>  (540) 
1021

>  <i_i_glide_posenum>  (540) 
9

>  <i_i_glide_rotatable_bonds>  (540) 
8

>  <i_lp_mmshare_version>  (540) 
65135

>  <i_m_ct_format>  (540) 
2

>  <i_m_source_file_index>  (540) 
2410

>  <i_qp_#NandO>  (540) 
5

>  <i_qp_#acid>  (540) 
0

>  <i_qp_#amide>  (540) 
0

>  <i_qp_#amidine>  (540) 
0

>  <i_qp_#amine>  (540) 
1

>  <i_qp_#in34>  (540) 
0

>  <i_qp_#in56>  (540) 
22

>  <i_qp_#metab>  (540) 
7

>  <i_qp_#nonHatm>  (540) 
32

>  <i_qp_#noncon>  (540) 
0

>  <i_qp_#ringatoms>  (540) 
22

>  <i_qp_#rotor>  (540) 
7

>  <i_qp_#rtvFG>  (540) 
0

>  <i_qp_#stars>  (540) 
1

>  <i_qp_CNS>  (540) 
1

>  <i_qp_HumanOralAbsorption>  (540) 
3

>  <i_qp_RuleOfFive>  (540) 
0

>  <i_qp_RuleOfThree>  (540) 
1

>  <i_sd_BIOSOLVEIT.INFINISEE\_RESULT\_RANK>  (540) 
21458

>  <i_sd_version>  (540) 
0

>  <b_lp_Chiralities_Consistent>  (540) 
1

>  <b_sd_chiral_flag>  (540) 
0

>  <canonical_id>  (540) 
ATP-HTVS-5401EBEC1B21

>  <compound_code>  (540) 
77091

>  <title>  (540) 
rxn502b____EMOL480353____EMOL13728749____EMOL932560

>  <variant>  (540) 
77091-1

>  <source_file>  (540) 
运行/运行/ATP-VSW/ATP-VSW-DOCK_HTVS_1-003_lib/ATP-VSW-DOCK_HTVS_1-003_lib.mae

>  <canonical_smiles>  (540) 
C[NH+](C)[C@@H](CNc1cnc2ccccc2c1NC(=O)c1ccccc1)c1ccccc1Cl

>  <scaffold>  (540) 
O=C(Nc1c(NCCc2ccccc2)cnc2ccccc12)c1ccccc1

>  <molecular_formula>  (540) 
C26H26ClN4O+

$$$$
ATP-HTVS-54143804256C
     RDKit          3D

 59 61  0  0  0  0  0  0  0  0999 V2000
  194.4628  184.2450  159.7316 S   0  0  0  0  0  0  0  0  0  0  0  0
  195.9903  184.8170  159.0681 C   0  0  0  0  0  0  0  0  0  0  0  0
  196.4603  183.9786  158.1171 N   0  0  0  0  0  0  0  0  0  0  0  0
  195.7055  182.8151  157.9484 C   0  0  0  0  0  0  0  0  0  0  0  0
  194.5638  182.8247  158.7228 C   0  0  0  0  0  0  0  0  0  0  0  0
  196.1566  181.7764  156.9924 C   0  0  1  0  0  0  0  0  0  0  0  0
  196.3452  182.4077  155.6865 N   0  0  1  0  0  0  0  0  0  0  0  0
  196.7453  181.4846  154.6055 C   0  0  2  0  0  0  0  0  0  0  0  0
  198.0478  180.7815  154.9543 C   0  0  0  0  0  0  0  0  0  0  0  0
  198.0201  179.4296  155.3492 C   0  0  0  0  0  0  0  0  0  0  0  0
  199.2121  178.7729  155.6919 C   0  0  0  0  0  0  0  0  0  0  0  0
  200.4408  179.4653  155.6698 C   0  0  0  0  0  0  0  0  0  0  0  0
  200.4691  180.8204  155.2744 C   0  0  0  0  0  0  0  0  0  0  0  0
  199.2768  181.4778  154.9246 C   0  0  0  0  0  0  0  0  0  0  0  0
  201.7197  178.7644  156.1064 C   0  0  1  0  0  0  0  0  0  0  0  0
  201.9312  178.7849  157.5744 N   0  0  1  0  0  0  0  0  0  0  0  0
  202.1141  180.1385  158.1345 C   0  0  2  0  0  0  0  0  0  0  0  0
  200.9392  177.9839  158.3305 C   0  0  2  0  0  0  0  0  0  0  0  0
  196.8568  182.2140  153.2565 C   0  0  2  0  0  0  0  0  0  0  0  0
  196.6664  186.0433  159.4238 N   0  0  0  0  0  0  0  0  0  0  0  0
  198.0100  186.1600  158.9264 C   0  0  0  0  0  0  0  0  0  0  0  0
  198.4361  187.2693  158.1385 C   0  0  0  0  0  0  0  0  0  0  0  0
  197.5764  188.2638  157.8003 F   0  0  0  0  0  0  0  0  0  0  0  0
  199.7651  187.3408  157.6593 C   0  0  0  0  0  0  0  0  0  0  0  0
  200.6787  186.3071  157.9276 C   0  0  0  0  0  0  0  0  0  0  0  0
  200.2681  185.2033  158.6949 C   0  0  0  0  0  0  0  0  0  0  0  0
  198.9517  185.1402  159.1962 C   0  0  0  0  0  0  0  0  0  0  0  0
  196.1458  187.0307  160.2155 C   0  0  0  0  0  0  0  0  0  0  0  0
  196.7645  188.0662  160.4640 O   0  0  0  0  0  0  0  0  0  0  0  0
  194.7584  186.9202  160.8935 C   0  0  2  0  0  0  0  0  0  0  0  0
  195.4449  182.8158  155.4449 H   0  0  0  0  0  0  0  0  0  0  0  0
  193.7773  182.0137  158.6924 H   0  0  0  0  0  0  0  0  0  0  0  0
  197.0664  181.3136  157.3616 H   0  0  0  0  0  0  0  0  0  0  0  0
  195.3733  181.0415  156.9028 H   0  0  0  0  0  0  0  0  0  0  0  0
  195.9423  180.7408  154.5312 H   0  0  0  0  0  0  0  0  0  0  0  0
  197.0849  178.8946  155.4432 H   0  0  0  0  0  0  0  0  0  0  0  0
  199.1627  177.7487  156.0231 H   0  0  0  0  0  0  0  0  0  0  0  0
  201.4008  181.3692  155.2584 H   0  0  0  0  0  0  0  0  0  0  0  0
  199.3186  182.5200  154.6447 H   0  0  0  0  0  0  0  0  0  0  0  0
  201.7053  177.7320  155.7506 H   0  0  0  0  0  0  0  0  0  0  0  0
  202.5710  179.2336  155.6167 H   0  0  0  0  0  0  0  0  0  0  0  0
  201.2025  180.7360  158.0363 H   0  0  0  0  0  0  0  0  0  0  0  0
  202.9241  180.6613  157.6206 H   0  0  0  0  0  0  0  0  0  0  0  0
  202.3686  180.0955  159.1962 H   0  0  0  0  0  0  0  0  0  0  0  0
  199.9321  178.3922  158.2216 H   0  0  0  0  0  0  0  0  0  0  0  0
  201.1553  177.9722  159.4000 H   0  0  0  0  0  0  0  0  0  0  0  0
  200.9192  176.9511  157.9809 H   0  0  0  0  0  0  0  0  0  0  0  0
  197.1186  181.5136  152.4660 H   0  0  0  0  0  0  0  0  0  0  0  0
  197.5947  183.0139  153.2795 H   0  0  0  0  0  0  0  0  0  0  0  0
  195.9129  182.6692  152.9786 H   0  0  0  0  0  0  0  0  0  0  0  0
  200.0751  188.1849  157.0661 H   0  0  0  0  0  0  0  0  0  0  0  0
  201.6873  186.3535  157.5390 H   0  0  0  0  0  0  0  0  0  0  0  0
  200.9580  184.3896  158.8820 H   0  0  0  0  0  0  0  0  0  0  0  0
  198.6696  184.2751  159.7727 H   0  0  0  0  0  0  0  0  0  0  0  0
  194.0229  186.6036  160.1554 H   0  0  0  0  0  0  0  0  0  0  0  0
  194.4650  187.8497  161.3896 H   0  0  0  0  0  0  0  0  0  0  0  0
  194.8334  186.1541  161.6769 H   0  0  0  0  0  0  0  0  0  0  0  0
  202.8326  178.3213  157.6903 H   0  0  0  0  0  0  0  0  0  0  0  0
  197.0331  183.1372  155.7900 H   0  0  0  0  0  0  0  0  0  0  0  0
  1  2  1  0
  1  5  1  0
  2  3  2  0
  2 20  1  0
  3  4  1  0
  4  5  2  0
  4  6  1  0
  5 32  1  0
  6  7  1  0
  6 33  1  1
  6 34  1  0
  7  8  1  0
  7 31  1  6
  7 59  1  0
  8  9  1  0
  8 19  1  0
  8 35  1  6
  9 10  1  0
  9 14  2  0
 10 11  2  0
 10 36  1  0
 11 12  1  0
 11 37  1  0
 12 13  2  0
 12 15  1  0
 13 14  1  0
 13 38  1  0
 14 39  1  0
 15 16  1  0
 15 40  1  6
 15 41  1  0
 16 17  1  0
 16 18  1  0
 16 58  1  6
 17 42  1  1
 17 43  1  0
 17 44  1  0
 18 45  1  1
 18 46  1  0
 18 47  1  0
 19 48  1  6
 19 49  1  0
 19 50  1  0
 20 21  1  0
 20 28  1  0
 21 22  1  0
 21 27  2  0
 22 23  1  0
 22 24  2  0
 24 25  1  0
 24 51  1  0
 25 26  2  0
 25 52  1  0
 26 27  1  0
 26 53  1  0
 27 54  1  0
 28 29  2  0
 28 30  1  0
 30 55  1  6
 30 56  1  0
 30 57  1  0
M  CHG  2   7   1  16   1
M  END
>  <s_epik_cmdline>  (541) 
J2VwaWtfcHl0aG9uJywgJy1waCcsICc3LjAwMDAwMCcsICctcGh0JywgJzIuMDAwMDAwJywgJy1tcycsICcxNicsICctdG4nLCAnOCcsICctbWEnLCAnMjAwJywgJy1pbWFlJywgJzxpbmZpbGUubWFlPicsICctb21hZScsICc8b3V0ZmlsZS5tYWU+Jw==

>  <s_epik_input>  (541) 
W2NIXTFbY0hdW2NIXVtjSF1jKEYpYzFOKEMoPU8pW0NIM10pYzJzW2NIXWMobjIpW0NIMl1bTkhdW0NAQEhdKFtDSDNdKWMzW2NIXVtjSF1jKFtjSF1bY0hdMylbQ0gyXU4oW0NIM10pW0NIM10=

>  <s_i_glide_gridfile>  (541) 
ATP-Grid

>  <s_lp_Force_Field>  (541) 
OPLS_2005

>  <s_lp_Variant>  (541) 
m_2230bbb____22404674____681478-2

>  <s_lp_label>  (541) 
1193_sdstereoexpander_2_neutralizer_1_epik_1_stereoizer_1

>  <s_m_source_file>  (541) 
ATP-VSW-LIGPREP-002-in.maegz

>  <s_sd_BIOSOLVEIT.INFINISEE\_QUERY\_NAME>  (541) 
Ref-Lig

>  <s_sd_BIOSOLVEIT.INFINISEE\_QUERY\_SMILES>  (541) 
S(c1nc2c(cc1C[NH2+]Cc3ccc(cc3)C[NH+](C)C)cccc2)Cc4ccccc4

>  <s_sd_BIOSOLVEIT.INFINISEE\_REACTION\_NAME>  (541) 
m_2230bbb

>  <s_sd_BIOSOLVEIT.INFINISEE\_REAGENT1\_SMILES>  (541) 
[R1*]NC(c1ccc(cc1)CN(C)C)C

>  <s_sd_BIOSOLVEIT.INFINISEE\_REAGENT2\_SMILES>  (541) 
[R1*]CC=1N=C(SC1)N(c2c(F)cccc2)C(=O)C

>  <s_sd_BIOSOLVEIT.INFINISEE\_SPACE>  (541) 
REALSpace_44bn_2023-08

>  <s_vsw_compound_code>  (541) 
38146

>  <s_vsw_variant>  (541) 
38146-2

>  <r_epik_Charging_Adjusted_Penalty>  (541) 
0.42171508261021601

>  <r_epik_Ionization_Penalty>  (541) 
0.21110000000000001

>  <r_epik_Ionization_Penalty_Charging>  (541) 
0.21110000000000001

>  <r_epik_Ionization_Penalty_Neutral>  (541) 
0

>  <r_epik_State_Penalty>  (541) 
0.21060000000000001

>  <r_i_docking_score>  (541) 
-5.6233834358621504

>  <r_i_glide_ecoul>  (541) 
-15.1697435379028

>  <r_i_glide_eff_state_penalty>  (541) 
0.21060000000000001

>  <r_i_glide_einternal>  (541) 
2.1861267089843799

>  <r_i_glide_emodel>  (541) 
-78.125498459579902

>  <r_i_glide_energy>  (541) 
-51.290757179260297

>  <r_i_glide_erotb>  (541) 
0.75708635674490798

>  <r_i_glide_esite>  (541) 
-0.121885126034777

>  <r_i_glide_evdw>  (541) 
-36.121013641357401

>  <r_i_glide_gscore>  (541) 
-5.8339834358621498

>  <r_i_glide_hbond>  (541) 
-0.20000000000000001

>  <r_i_glide_ligand_efficiency>  (541) 
-0.18744611452873799

>  <r_i_glide_ligand_efficiency_ln>  (541) 
-1.2776939882978899

>  <r_i_glide_ligand_efficiency_sa>  (541) 
-0.58243865951811602

>  <r_i_glide_lipo>  (541) 
-0.99034879872687098

>  <r_i_glide_metal>  (541) 
-0

>  <r_i_glide_rewards>  (541) 
-1.19732365509211

>  <r_lp_Energy>  (541) 
30.070767

>  <r_lp_tautomer_probability>  (541) 
1

>  <r_qp_ACxDN^.5/SA>  (541) 
0.011608800000000001

>  <r_qp_CIQPlogS>  (541) 
-3.5979999999999999

>  <r_qp_EA(eV)>  (541) 
0.78900000000000003

>  <r_qp_FISA>  (541) 
53.084000000000003

>  <r_qp_FOSA>  (541) 
323.04399999999998

>  <r_qp_IP(eV)>  (541) 
9.1039999999999992

>  <r_qp_Jm>  (541) 
0.018434377521532201

>  <r_qp_PISA>  (541) 
248.66200000000001

>  <r_qp_PSA>  (541) 
57.408000000000001

>  <r_qp_PercentHumanOralAbsorption>  (541) 
88.143000000000001

>  <r_qp_QPPCaco>  (541) 
193.33199999999999

>  <r_qp_QPPMDCK>  (541) 
230.75899999999999

>  <r_qp_QPlogBB>  (541) 
0.54900000000000004

>  <r_qp_QPlogHERG>  (541) 
-6.5579999999999998

>  <r_qp_QPlogKhsa>  (541) 
0.34300000000000003

>  <r_qp_QPlogKp>  (541) 
-4.9790000000000001

>  <r_qp_QPlogPC16>  (541) 
13.074999999999999

>  <r_qp_QPlogPo/w>  (541) 
3.4630000000000001

>  <r_qp_QPlogPoct>  (541) 
21.038

>  <r_qp_QPlogPw>  (541) 
11.032

>  <r_qp_QPlogS>  (541) 
-2.3849999999999998

>  <r_qp_QPpolrz>  (541) 
44.658000000000001

>  <r_qp_SASA>  (541) 
689.13199999999995

>  <r_qp_SAamideO>  (541) 
0

>  <r_qp_SAfluorine>  (541) 
24.994

>  <r_qp_WPSA>  (541) 
64.343000000000004

>  <r_qp_accptHB>  (541) 
8

>  <r_qp_dip^2/V>  (541) 
0.033295699999999998

>  <r_qp_dipole>  (541) 
6.6760000000000002

>  <r_qp_donorHB>  (541) 
1

>  <r_qp_glob>  (541) 
0.85241100000000003

>  <r_qp_mol_MW>  (541) 
426.55099999999999

>  <r_qp_volume>  (541) 
1338.6890000000001

>  <r_sd_BIOSOLVEIT.INFINISEE\_FTREES\_SIMILARITY>  (541) 
0.91100000000000003

>  <r_sd_BIOSOLVEIT.LOGP>  (541) 
2.4359000000000002

>  <r_sd_BIOSOLVEIT.MOLECULAR\_WEIGHT>  (541) 
428.572

>  <r_sd_BIOSOLVEIT.TPSA>  (541) 
54.25

>  <i_epik_Tot_Q>  (541) 
2

>  <i_epik_Tot_abs_Q>  (541) 
2

>  <i_f3d_flags>  (541) 
0

>  <i_i_glide_confnum>  (541) 
3

>  <i_i_glide_lignum>  (541) 
404

>  <i_i_glide_posenum>  (541) 
11

>  <i_i_glide_rotatable_bonds>  (541) 
9

>  <i_lp_mmshare_version>  (541) 
65135

>  <i_m_ct_format>  (541) 
2

>  <i_m_source_file_index>  (541) 
1193

>  <i_qp_#NandO>  (541) 
5

>  <i_qp_#acid>  (541) 
0

>  <i_qp_#amide>  (541) 
0

>  <i_qp_#amidine>  (541) 
0

>  <i_qp_#amine>  (541) 
2

>  <i_qp_#in34>  (541) 
0

>  <i_qp_#in56>  (541) 
17

>  <i_qp_#metab>  (541) 
7

>  <i_qp_#nonHatm>  (541) 
30

>  <i_qp_#noncon>  (541) 
0

>  <i_qp_#ringatoms>  (541) 
17

>  <i_qp_#rotor>  (541) 
8

>  <i_qp_#rtvFG>  (541) 
0

>  <i_qp_#stars>  (541) 
0

>  <i_qp_CNS>  (541) 
2

>  <i_qp_HumanOralAbsorption>  (541) 
3

>  <i_qp_RuleOfFive>  (541) 
0

>  <i_qp_RuleOfThree>  (541) 
1

>  <i_sd_BIOSOLVEIT.INFINISEE\_REAGENT1\_NAME>  (541) 
22404674

>  <i_sd_BIOSOLVEIT.INFINISEE\_REAGENT2\_NAME>  (541) 
681478

>  <i_sd_BIOSOLVEIT.INFINISEE\_RESULT\_RANK>  (541) 
39702

>  <i_sd_version>  (541) 
0

>  <b_lp_Chiralities_Consistent>  (541) 
1

>  <b_sd_chiral_flag>  (541) 
0

>  <canonical_id>  (541) 
ATP-HTVS-54143804256C

>  <compound_code>  (541) 
38146

>  <title>  (541) 
m_2230bbb____22404674____681478

>  <variant>  (541) 
38146-2

>  <source_file>  (541) 
运行/运行/ATP-VSW/ATP-VSW-DOCK_HTVS_1-002_lib.maegz

>  <canonical_smiles>  (541) 
CC(=O)N(c1nc(C[NH2+][C@@H](C)c2ccc(C[NH+](C)C)cc2)cs1)c1ccccc1F

>  <scaffold>  (541) 
c1ccc(C[NH2+]Cc2csc(Nc3ccccc3)n2)cc1

>  <molecular_formula>  (541) 
C23H29FN4OS+2

$$$$
ATP-HTVS-5425AB1A5C10
     RDKit          3D

 61 64  0  0  0  0  0  0  0  0999 V2000
  199.1246  183.5265  151.3763 F   0  0  0  0  0  0  0  0  0  0  0  0
  199.4409  183.4068  150.0647 C   0  0  0  0  0  0  0  0  0  0  0  0
  198.4283  183.2765  149.0860 C   0  0  0  0  0  0  0  0  0  0  0  0
  198.7914  183.1533  147.7249 C   0  0  0  0  0  0  0  0  0  0  0  0
  200.1475  183.1466  147.3476 C   0  0  0  0  0  0  0  0  0  0  0  0
  200.4876  183.0154  146.0428 F   0  0  0  0  0  0  0  0  0  0  0  0
  201.1503  183.2692  148.3269 C   0  0  0  0  0  0  0  0  0  0  0  0
  200.7955  183.4012  149.6838 C   0  0  0  0  0  0  0  0  0  0  0  0
  196.9514  183.2425  149.4650 C   0  0  1  0  0  0  0  0  0  0  0  0
  196.5805  182.3006  150.5283 N   0  0  0  0  0  0  0  0  0  0  0  0
  197.0324  180.9683  150.5183 C   0  0  0  0  0  0  0  0  0  0  0  0
  197.4138  180.4254  149.3367 N   0  0  0  0  0  0  0  0  0  0  0  0
  197.8999  179.1635  149.3275 C   0  0  0  0  0  0  0  0  0  0  0  0
  197.9744  178.4072  150.5325 C   0  0  0  0  0  0  0  0  0  0  0  0
  197.5867  178.9497  151.7162 N   0  0  0  0  0  0  0  0  0  0  0  0
  197.1235  180.2212  151.7182 C   0  0  0  0  0  0  0  0  0  0  0  0
  196.7785  180.7993  152.9480 N   0  0  0  0  0  0  0  0  0  0  0  0
  197.7734  180.6316  153.9963 C   0  0  1  0  0  0  0  0  0  0  0  0
  197.6673  181.6655  155.1003 C   0  0  0  0  0  0  0  0  0  0  0  0
  196.7525  181.4741  156.1541 C   0  0  0  0  0  0  0  0  0  0  0  0
  196.7102  182.3765  157.2401 C   0  0  0  0  0  0  0  0  0  0  0  0
  197.5496  183.5085  157.2347 C   0  0  0  0  0  0  0  0  0  0  0  0
  198.4396  183.7237  156.1644 C   0  0  0  0  0  0  0  0  0  0  0  0
  198.5029  182.8032  155.0983 C   0  0  0  0  0  0  0  0  0  0  0  0
  195.8094  182.1027  158.4283 C   0  0  1  0  0  0  0  0  0  0  0  0
  194.3886  182.4311  158.1337 N   0  0  1  0  0  0  0  0  0  0  0  0
  193.4749  181.2858  158.3123 C   0  0  2  0  0  0  0  0  0  0  0  0
  193.9329  183.6458  158.8433 C   0  0  2  0  0  0  0  0  0  0  0  0
  198.4578  177.0804  150.4737 C   0  0  0  0  0  0  0  0  0  0  0  0
  198.8891  176.5138  149.2558 C   0  0  0  0  0  0  0  0  0  0  0  0
  198.8381  177.2729  148.0752 C   0  0  0  0  0  0  0  0  0  0  0  0
  198.3416  178.5894  148.1145 C   0  0  0  0  0  0  0  0  0  0  0  0
  196.4541  184.6456  149.8175 C   0  0  2  0  0  0  0  0  0  0  0  0
  198.0348  183.0416  146.9607 H   0  0  0  0  0  0  0  0  0  0  0  0
  202.1907  183.2631  148.0380 H   0  0  0  0  0  0  0  0  0  0  0  0
  201.5599  183.4906  150.4402 H   0  0  0  0  0  0  0  0  0  0  0  0
  196.4094  182.9462  148.5707 H   0  0  0  0  0  0  0  0  0  0  0  0
  196.3452  182.7170  151.4141 H   0  0  0  0  0  0  0  0  0  0  0  0
  196.3733  181.7232  152.9261 H   0  0  0  0  0  0  0  0  0  0  0  0
  197.6728  179.6391  154.4368 H   0  0  0  0  0  0  0  0  0  0  0  0
  198.7726  180.6895  153.5667 H   0  0  0  0  0  0  0  0  0  0  0  0
  196.1107  180.6058  156.1353 H   0  0  0  0  0  0  0  0  0  0  0  0
  197.5420  184.2015  158.0628 H   0  0  0  0  0  0  0  0  0  0  0  0
  199.0959  184.5846  156.1743 H   0  0  0  0  0  0  0  0  0  0  0  0
  199.2046  182.9682  154.2928 H   0  0  0  0  0  0  0  0  0  0  0  0
  195.9366  181.0591  158.7166 H   0  0  0  0  0  0  0  0  0  0  0  0
  196.1675  182.6474  159.3036 H   0  0  0  0  0  0  0  0  0  0  0  0
  193.5085  180.9019  159.3304 H   0  0  0  0  0  0  0  0  0  0  0  0
  193.7438  180.4807  157.6324 H   0  0  0  0  0  0  0  0  0  0  0  0
  192.4507  181.5687  158.0712 H   0  0  0  0  0  0  0  0  0  0  0  0
  193.9557  183.4902  159.9211 H   0  0  0  0  0  0  0  0  0  0  0  0
  192.9130  183.9143  158.5600 H   0  0  0  0  0  0  0  0  0  0  0  0
  194.5826  184.4964  158.6245 H   0  0  0  0  0  0  0  0  0  0  0  0
  198.5036  176.4887  151.3770 H   0  0  0  0  0  0  0  0  0  0  0  0
  199.2763  175.5043  149.2317 H   0  0  0  0  0  0  0  0  0  0  0  0
  199.1846  176.8536  147.1412 H   0  0  0  0  0  0  0  0  0  0  0  0
  198.3105  179.1717  147.2060 H   0  0  0  0  0  0  0  0  0  0  0  0
  196.6083  185.3369  148.9872 H   0  0  0  0  0  0  0  0  0  0  0  0
  196.9818  185.0422  150.6848 H   0  0  0  0  0  0  0  0  0  0  0  0
  195.3883  184.6334  150.0404 H   0  0  0  0  0  0  0  0  0  0  0  0
  194.3049  182.6276  157.1284 H   0  0  0  0  0  0  0  0  0  0  0  0
  1  2  1  0
  2  3  2  0
  2  8  1  0
  3  4  1  0
  3  9  1  0
  4  5  2  0
  4 34  1  0
  5  6  1  0
  5  7  1  0
  7  8  2  0
  7 35  1  0
  8 36  1  0
  9 10  1  0
  9 33  1  0
  9 37  1  6
 10 11  1  0
 10 38  1  0
 11 12  2  0
 11 16  1  0
 12 13  1  0
 13 14  1  0
 13 32  2  0
 14 15  1  0
 14 29  2  0
 15 16  2  0
 16 17  1  0
 17 18  1  0
 17 39  1  0
 18 19  1  0
 18 40  1  1
 18 41  1  0
 19 20  2  0
 19 24  1  0
 20 21  1  0
 20 42  1  0
 21 22  2  0
 21 25  1  0
 22 23  1  0
 22 43  1  0
 23 24  2  0
 23 44  1  0
 24 45  1  0
 25 26  1  0
 25 46  1  1
 25 47  1  0
 26 27  1  0
 26 28  1  0
 26 61  1  6
 27 48  1  1
 27 49  1  0
 27 50  1  0
 28 51  1  1
 28 52  1  0
 28 53  1  0
 29 30  1  0
 29 54  1  0
 30 31  2  0
 30 55  1  0
 31 32  1  0
 31 56  1  0
 32 57  1  0
 33 58  1  6
 33 59  1  0
 33 60  1  0
M  CHG  1  26   1
M  END
>  <s_epik_cmdline>  (542) 
J2VwaWtfcHl0aG9uJywgJy1waCcsICc3LjAwMDAwMCcsICctcGh0JywgJzIuMDAwMDAwJywgJy1tcycsICcxNicsICctdG4nLCAnOCcsICctbWEnLCAnMjAwJywgJy1pbWFlJywgJzxpbmZpbGUubWFlPicsICctb21hZScsICc8b3V0ZmlsZS5tYWU+Jw==

>  <s_epik_input>  (542) 
W2NIXTFbY0hdYyhGKVtjSF1jKGMxRilbQ0BIXShbQ0gzXSlbTkhdYyhuMiljKG5jKGMyMylbY0hdW2NIXVtjSF1bY0hdMylbTkhdW0NIMl1jNFtjSF1jKFtjSF1bY0hdW2NIXTQpW0NIMl1OKFtDSDNdKVtDSDNd

>  <s_i_glide_gridfile>  (542) 
ATP-Grid

>  <s_lp_Force_Field>  (542) 
OPLS_2005

>  <s_lp_Variant>  (542) 
m_282030aaa____21928162____23157418____21940090-2

>  <s_lp_label>  (542) 
1109_sdstereoexpander_2_neutralizer_1_epik_1_stereoizer_1

>  <s_m_source_file>  (542) 
ATP-VSW-LIGPREP-001-in.maegz

>  <s_sd_BIOSOLVEIT.INFINISEE\_QUERY\_NAME>  (542) 
Ref-Lig

>  <s_sd_BIOSOLVEIT.INFINISEE\_QUERY\_SMILES>  (542) 
S(c1nc2c(cc1C[NH2+]Cc3ccc(cc3)C[NH+](C)C)cccc2)Cc4ccccc4

>  <s_sd_BIOSOLVEIT.INFINISEE\_REACTION\_NAME>  (542) 
m_282030aaa

>  <s_sd_BIOSOLVEIT.INFINISEE\_REAGENT1\_SMILES>  (542) 
[R1*]NC(c1c(F)ccc(F)c1)C

>  <s_sd_BIOSOLVEIT.INFINISEE\_REAGENT2\_SMILES>  (542) 
[R1*]c1nc2c(nc1[R2*])cccc2

>  <s_sd_BIOSOLVEIT.INFINISEE\_REAGENT3\_SMILES>  (542) 
[R2*]NCc1cc(ccc1)CN(C)C

>  <s_sd_BIOSOLVEIT.INFINISEE\_SPACE>  (542) 
REALSpace_44bn_2023-08

>  <s_vsw_compound_code>  (542) 
35457

>  <s_vsw_variant>  (542) 
35457-2

>  <r_epik_Charging_Adjusted_Penalty>  (542) 
0.088195370499548398

>  <r_epik_Ionization_Penalty>  (542) 
0.044400000000000002

>  <r_epik_Ionization_Penalty_Charging>  (542) 
0.0441

>  <r_epik_Ionization_Penalty_Neutral>  (542) 
0.00029999999999999997

>  <r_epik_State_Penalty>  (542) 
0.0441

>  <r_i_docking_score>  (542) 
-4.0848627410534997

>  <r_i_glide_ecoul>  (542) 
-8.2795705795288104

>  <r_i_glide_eff_state_penalty>  (542) 
0.0441

>  <r_i_glide_einternal>  (542) 
4.4162054061889604

>  <r_i_glide_emodel>  (542) 
-54.128398765999897

>  <r_i_glide_energy>  (542) 
-41.0924940109253

>  <r_i_glide_erotb>  (542) 
0.69706100735996501

>  <r_i_glide_esite>  (542) 
-0.10000000000000001

>  <r_i_glide_evdw>  (542) 
-32.812923431396499

>  <r_i_glide_gscore>  (542) 
-4.1289627410534999

>  <r_i_glide_hbond>  (542) 
-0.20000000000000001

>  <r_i_glide_ligand_efficiency>  (542) 
-0.123783719425864

>  <r_i_glide_ligand_efficiency_ln>  (542) 
-0.90845232332296399

>  <r_i_glide_ligand_efficiency_sa>  (542) 
-0.39704052909027698

>  <r_i_glide_lipo>  (542) 
-1.2924534416272799

>  <r_i_glide_metal>  (542) 
-0

>  <r_i_glide_rewards>  (542) 
-0.35098854828704101

>  <r_lp_Energy>  (542) 
20.916363

>  <r_qp_ACxDN^.5/SA>  (542) 
0.011553300000000001

>  <r_qp_CIQPlogS>  (542) 
-6.5039999999999996

>  <r_qp_EA(eV)>  (542) 
0.78300000000000003

>  <r_qp_FISA>  (542) 
34.563000000000002

>  <r_qp_FOSA>  (542) 
236.51300000000001

>  <r_qp_IP(eV)>  (542) 
8.2620000000000005

>  <r_qp_Jm>  (542) 
0.94501284141328701

>  <r_qp_PISA>  (542) 
290.42500000000001

>  <r_qp_PSA>  (542) 
44.734000000000002

>  <r_qp_PercentHumanOralAbsorption>  (542) 
100

>  <r_qp_QPPCaco>  (542) 
1161.5640000000001

>  <r_qp_QPPMDCK>  (542) 
1217.3

>  <r_qp_QPlogBB>  (542) 
0.33300000000000002

>  <r_qp_QPlogHERG>  (542) 
-4.8959999999999999

>  <r_qp_QPlogKhsa>  (542) 
0.73499999999999999

>  <r_qp_QPlogKp>  (542) 
-2.4279999999999999

>  <r_qp_QPlogPC16>  (542) 
12.473000000000001

>  <r_qp_QPlogPo/w>  (542) 
4.7699999999999996

>  <r_qp_QPlogPoct>  (542) 
19.698

>  <r_qp_QPlogPw>  (542) 
9.5099999999999998

>  <r_qp_QPlogS>  (542) 
-3.2469999999999999

>  <r_qp_QPpolrz>  (542) 
41.972000000000001

>  <r_qp_SASA>  (542) 
612.04100000000005

>  <r_qp_SAamideO>  (542) 
0

>  <r_qp_SAfluorine>  (542) 
50.540999999999997

>  <r_qp_WPSA>  (542) 
50.540999999999997

>  <r_qp_accptHB>  (542) 
5

>  <r_qp_dip^2/V>  (542) 
0.0071833000000000001

>  <r_qp_dipole>  (542) 
3.0099999999999998

>  <r_qp_donorHB>  (542) 
2

>  <r_qp_glob>  (542) 
0.92256530000000003

>  <r_qp_mol_MW>  (542) 
447.52999999999997

>  <r_qp_volume>  (542) 
1261.5930000000001

>  <r_sd_BIOSOLVEIT.INFINISEE\_FTREES\_SIMILARITY>  (542) 
0.91300000000000003

>  <r_sd_BIOSOLVEIT.LOGP>  (542) 
4.3376999999999999

>  <r_sd_BIOSOLVEIT.MOLECULAR\_WEIGHT>  (542) 
448.53800000000001

>  <r_sd_BIOSOLVEIT.TPSA>  (542) 
54.280000000000001

>  <i_epik_Tot_Q>  (542) 
1

>  <i_epik_Tot_abs_Q>  (542) 
1

>  <i_f3d_flags>  (542) 
0

>  <i_i_glide_confnum>  (542) 
8

>  <i_i_glide_lignum>  (542) 
263

>  <i_i_glide_posenum>  (542) 
13

>  <i_i_glide_rotatable_bonds>  (542) 
8

>  <i_lp_mmshare_version>  (542) 
65135

>  <i_m_ct_format>  (542) 
2

>  <i_m_source_file_index>  (542) 
1109

>  <i_qp_#NandO>  (542) 
5

>  <i_qp_#acid>  (542) 
0

>  <i_qp_#amide>  (542) 
0

>  <i_qp_#amidine>  (542) 
0

>  <i_qp_#amine>  (542) 
1

>  <i_qp_#in34>  (542) 
0

>  <i_qp_#in56>  (542) 
22

>  <i_qp_#metab>  (542) 
5

>  <i_qp_#nonHatm>  (542) 
33

>  <i_qp_#noncon>  (542) 
0

>  <i_qp_#ringatoms>  (542) 
22

>  <i_qp_#rotor>  (542) 
8

>  <i_qp_#rtvFG>  (542) 
0

>  <i_qp_#stars>  (542) 
0

>  <i_qp_CNS>  (542) 
1

>  <i_qp_HumanOralAbsorption>  (542) 
3

>  <i_qp_RuleOfFive>  (542) 
0

>  <i_qp_RuleOfThree>  (542) 
0

>  <i_sd_BIOSOLVEIT.INFINISEE\_REAGENT1\_NAME>  (542) 
21928162

>  <i_sd_BIOSOLVEIT.INFINISEE\_REAGENT2\_NAME>  (542) 
23157418

>  <i_sd_BIOSOLVEIT.INFINISEE\_REAGENT3\_NAME>  (542) 
21940090

>  <i_sd_BIOSOLVEIT.INFINISEE\_RESULT\_RANK>  (542) 
33955

>  <i_sd_version>  (542) 
0

>  <b_lp_Chiralities_Consistent>  (542) 
1

>  <b_sd_chiral_flag>  (542) 
0

>  <canonical_id>  (542) 
ATP-HTVS-5425AB1A5C10

>  <compound_code>  (542) 
35457

>  <title>  (542) 
m_282030aaa____21928162____23157418____21940090

>  <variant>  (542) 
35457-2

>  <source_file>  (542) 
运行/运行/ATP-VSW/ATP-VSW-DOCK_HTVS_1-001_lib/ATP-VSW-DOCK_HTVS_1-001_lib

>  <canonical_smiles>  (542) 
C[C@H](Nc1nc2ccccc2nc1NCc1cccc(C[NH+](C)C)c1)c1cc(F)ccc1F

>  <scaffold>  (542) 
c1ccc(CNc2nc3ccccc3nc2NCc2ccccc2)cc1

>  <molecular_formula>  (542) 
C26H28F2N5+

$$$$
ATP-HTVS-542A37ED863C
     RDKit          3D

 49 52  0  0  0  0  0  0  0  0999 V2000
  200.1668  180.1073  156.8499 O   0  0  0  0  0  0  0  0  0  0  0  0
  199.0402  180.3534  156.3699 C   0  0  0  0  0  0  0  0  0  0  0  0
  198.4739  179.6555  155.3520 N   0  0  0  0  0  0  0  0  0  0  0  0
  199.1893  178.6405  154.6630 C   0  0  0  0  0  0  0  0  0  0  0  0
  199.7234  177.5206  155.3515 C   0  0  0  0  0  0  0  0  0  0  0  0
  200.3685  176.4970  154.6362 C   0  0  0  0  0  0  0  0  0  0  0  0
  200.4817  176.5647  153.2378 C   0  0  0  0  0  0  0  0  0  0  0  0
  199.9490  177.6683  152.5452 C   0  0  0  0  0  0  0  0  0  0  0  0
  199.3095  178.7024  153.2574 C   0  0  0  0  0  0  0  0  0  0  0  0
  197.1212  179.9831  154.8588 C   0  0  2  0  0  0  0  0  0  0  0  0
  198.3220  181.5506  156.8964 C   0  0  0  0  0  0  0  0  0  0  0  0
  197.0961  181.4340  157.4729 N   0  0  0  0  0  0  0  0  0  0  0  0
  196.3906  182.4760  157.9385 C   0  0  0  0  0  0  0  0  0  0  0  0
  196.9466  183.7775  157.9201 C   0  0  0  0  0  0  0  0  0  0  0  0
  198.2480  183.9562  157.3736 C   0  0  0  0  0  0  0  0  0  0  0  0
  198.8618  185.1817  157.3730 O   0  0  0  0  0  0  0  0  0  0  0  0
  199.7749  185.4456  158.3757 C   0  0  0  0  0  0  0  0  0  0  0  0
  199.9963  186.7947  158.7424 C   0  0  0  0  0  0  0  0  0  0  0  0
  200.9483  187.1234  159.7377 C   0  0  0  0  0  0  0  0  0  0  0  0
  201.6682  186.0936  160.3781 C   0  0  0  0  0  0  0  0  0  0  0  0
  201.4551  184.7567  160.0183 C   0  0  0  0  0  0  0  0  0  0  0  0
  200.5103  184.4286  159.0343 C   0  0  0  0  0  0  0  0  0  0  0  0
  202.6773  186.4061  161.4629 C   0  0  2  0  0  0  0  0  0  0  0  0
  198.9142  182.8350  156.8421 C   0  0  0  0  0  0  0  0  0  0  0  0
  196.2056  184.8508  158.4526 C   0  0  0  0  0  0  0  0  0  0  0  0
  194.9177  184.6158  158.9685 C   0  0  0  0  0  0  0  0  0  0  0  0
  194.3542  183.3270  158.9408 C   0  0  0  0  0  0  0  0  0  0  0  0
  195.1081  182.2356  158.4696 C   0  0  0  0  0  0  0  0  0  0  0  0
  199.6160  177.4415  156.4232 H   0  0  0  0  0  0  0  0  0  0  0  0
  200.7584  175.6428  155.1686 H   0  0  0  0  0  0  0  0  0  0  0  0
  200.9610  175.7691  152.6944 H   0  0  0  0  0  0  0  0  0  0  0  0
  200.0263  177.7125  151.4652 H   0  0  0  0  0  0  0  0  0  0  0  0
  198.8961  179.5372  152.7026 H   0  0  0  0  0  0  0  0  0  0  0  0
  196.8530  179.4501  153.9516 H   0  0  0  0  0  0  0  0  0  0  0  0
  196.9872  181.0393  154.6565 H   0  0  0  0  0  0  0  0  0  0  0  0
  196.4069  179.6699  155.5947 H   0  0  0  0  0  0  0  0  0  0  0  0
  199.4510  187.5937  158.2558 H   0  0  0  0  0  0  0  0  0  0  0  0
  201.1052  188.1590  160.0163 H   0  0  0  0  0  0  0  0  0  0  0  0
  202.0070  183.9651  160.4959 H   0  0  0  0  0  0  0  0  0  0  0  0
  200.4220  183.3752  158.8228 H   0  0  0  0  0  0  0  0  0  0  0  0
  202.7891  185.5405  162.1261 H   0  0  0  0  0  0  0  0  0  0  0  0
  202.3560  187.2628  162.0660 H   0  0  0  0  0  0  0  0  0  0  0  0
  203.6512  186.6220  161.0104 H   0  0  0  0  0  0  0  0  0  0  0  0
  199.8925  182.9435  156.3794 H   0  0  0  0  0  0  0  0  0  0  0  0
  196.6120  185.8443  158.4478 H   0  0  0  0  0  0  0  0  0  0  0  0
  194.3420  185.4365  159.3491 H   0  0  0  0  0  0  0  0  0  0  0  0
  193.3460  183.1652  159.2931 H   0  0  0  0  0  0  0  0  0  0  0  0
  194.6960  181.2361  158.4501 H   0  0  0  0  0  0  0  0  0  0  0  0
  196.6560  180.5027  157.5685 H   0  0  0  0  0  0  0  0  0  0  0  0
  1  2  2  0
  2  3  1  0
  2 11  1  0
  3  4  1  0
  3 10  1  0
  4  5  2  0
  4  9  1  0
  5  6  1  0
  5 29  1  0
  6  7  2  0
  6 30  1  0
  7  8  1  0
  7 31  1  0
  8  9  2  0
  8 32  1  0
  9 33  1  0
 10 34  1  6
 10 35  1  0
 10 36  1  0
 11 12  2  0
 11 24  1  0
 12 13  1  0
 12 49  1  0
 13 14  1  0
 13 28  2  0
 14 15  1  0
 14 25  2  0
 15 16  1  0
 15 24  2  0
 16 17  1  0
 17 18  1  0
 17 22  2  0
 18 19  2  0
 18 37  1  0
 19 20  1  0
 19 38  1  0
 20 21  2  0
 20 23  1  0
 21 22  1  0
 21 39  1  0
 22 40  1  0
 23 41  1  1
 23 42  1  0
 23 43  1  0
 24 44  1  0
 25 26  1  0
 25 45  1  0
 26 27  2  0
 26 46  1  0
 27 28  1  0
 27 47  1  0
 28 48  1  0
M  CHG  1  12   1
M  END
>  <s_epik_cmdline>  (543) 
J2VwaWtfcHl0aG9uJywgJy1waCcsICc3LjAwMDAwMCcsICctcGh0JywgJzIuMDAwMDAwJywgJy1tcycsICcxNicsICctdG4nLCAnOCcsICctbWEnLCAnMjAwJywgJy1pbWFlJywgJzxpbmZpbGUubWFlPicsICctb21hZScsICc8b3V0ZmlsZS5tYWU+Jw==

>  <s_epik_input>  (543) 
W2NIXTFbY0hdW2NIXVtjSF1bY0hdYzFOKFtDSDNdKUMoPU8pYyhuMilbY0hdYyhjKGMyMylbY0hdW2NIXVtjSF1bY0hdMylPYzRbY0hdW2NIXWMoW0NIM10pW2NIXVtjSF00

>  <s_i_glide_gridfile>  (543) 
ATP-Grid

>  <s_lp_Force_Field>  (543) 
OPLS_2005

>  <s_lp_Variant>  (543) 
a1____51052____400834-2

>  <s_lp_label>  (543) 
446_sdstereoexpander_1_neutralizer_1_epik_2_stereoizer_1

>  <s_m_source_file>  (543) 
ATP-VSW-LIGPREP-003-in.maegz

>  <s_sd_BIOSOLVEIT.INFINISEE\_QUERY\_NAME>  (543) 
Ref-Lig

>  <s_sd_BIOSOLVEIT.INFINISEE\_QUERY\_SMILES>  (543) 
S(c1nc2c(cc1C[NH2+]Cc3ccc(cc3)C[NH+](C)C)cccc2)Cc4ccccc4

>  <s_sd_BIOSOLVEIT.INFINISEE\_REACTION\_NAME>  (543) 
a1

>  <s_sd_BIOSOLVEIT.INFINISEE\_REAGENT1\_SMILES>  (543) 
[R1*]N(c1ccccc1)C

>  <s_sd_BIOSOLVEIT.INFINISEE\_REAGENT2\_SMILES>  (543) 
[R1*]C(=O)c1nc2c(c(Oc3ccc(cc3)C)c1)cccc2

>  <s_sd_BIOSOLVEIT.INFINISEE\_SPACE>  (543) 
FreedomSpace_5bn_2023-06

>  <s_vsw_compound_code>  (543) 
14243

>  <s_vsw_variant>  (543) 
14243-2

>  <r_epik_Charging_Adjusted_Penalty>  (543) 
1.4703333805084799

>  <r_epik_Ionization_Penalty>  (543) 
0.73519999999999996

>  <r_epik_Ionization_Penalty_Charging>  (543) 
0.73519999999999996

>  <r_epik_Ionization_Penalty_Neutral>  (543) 
0

>  <r_epik_State_Penalty>  (543) 
0.73519999999999996

>  <r_i_docking_score>  (543) 
-3.6253229383866601

>  <r_i_glide_ecoul>  (543) 
-8.17736911773682

>  <r_i_glide_eff_state_penalty>  (543) 
0.73519999999999996

>  <r_i_glide_einternal>  (543) 
7.6476392745971697

>  <r_i_glide_emodel>  (543) 
-47.679065713824897

>  <r_i_glide_energy>  (543) 
-36.839856147766099

>  <r_i_glide_erotb>  (543) 
0.70635175722167798

>  <r_i_glide_esite>  (543) 
-0.210640452588892

>  <r_i_glide_evdw>  (543) 
-28.6624870300293

>  <r_i_glide_gscore>  (543) 
-4.3605229383866604

>  <r_i_glide_hbond>  (543) 
-0.20000000000000001

>  <r_i_glide_ligand_efficiency>  (543) 
-0.12947581922809501

>  <r_i_glide_ligand_efficiency_ln>  (543) 
-0.83683097828639696

>  <r_i_glide_ligand_efficiency_sa>  (543) 
-0.39316484435589799

>  <r_i_glide_lipo>  (543) 
-0.88129366022109501

>  <r_i_glide_metal>  (543) 
-0

>  <r_i_glide_rewards>  (543) 
-1.11521086363636

>  <r_lp_Energy>  (543) 
41.937814000000003

>  <r_lp_tautomer_probability>  (543) 
1

>  <r_qp_ACxDN^.5/SA>  (543) 
0

>  <r_qp_CIQPlogS>  (543) 
-6.1289999999999996

>  <r_qp_EA(eV)>  (543) 
1.0529999999999999

>  <r_qp_FISA>  (543) 
50.488

>  <r_qp_FOSA>  (543) 
147.47399999999999

>  <r_qp_IP(eV)>  (543) 
8.9209999999999994

>  <r_qp_Jm>  (543) 
2.6042895929375698

>  <r_qp_PISA>  (543) 
396.928

>  <r_qp_PSA>  (543) 
46.762

>  <r_qp_PercentHumanOralAbsorption>  (543) 
100

>  <r_qp_QPPCaco>  (543) 
3289.4279999999999

>  <r_qp_QPPMDCK>  (543) 
1791.827

>  <r_qp_QPlogBB>  (543) 
-0.11

>  <r_qp_QPlogHERG>  (543) 
-5.335

>  <r_qp_QPlogKhsa>  (543) 
0.52500000000000002

>  <r_qp_QPlogKp>  (543) 
-0.66800000000000004

>  <r_qp_QPlogPC16>  (543) 
11.959

>  <r_qp_QPlogPo/w>  (543) 
4.5910000000000002

>  <r_qp_QPlogPoct>  (543) 
16.446000000000002

>  <r_qp_QPlogPw>  (543) 
7.7439999999999998

>  <r_qp_QPlogS>  (543) 
-4.4829999999999997

>  <r_qp_QPpolrz>  (543) 
40.292999999999999

>  <r_qp_SASA>  (543) 
594.88999999999999

>  <r_qp_SAamideO>  (543) 
0

>  <r_qp_SAfluorine>  (543) 
0

>  <r_qp_WPSA>  (543) 
0

>  <r_qp_accptHB>  (543) 
4.5

>  <r_qp_dip^2/V>  (543) 
0.0493648

>  <r_qp_dipole>  (543) 
7.4690000000000003

>  <r_qp_donorHB>  (543) 
0

>  <r_qp_glob>  (543) 
0.88197919999999996

>  <r_qp_mol_MW>  (543) 
368.43400000000003

>  <r_qp_volume>  (543) 
1130.0440000000001

>  <r_sd_BIOSOLVEIT.INFINISEE\_FTREES\_SIMILARITY>  (543) 
0.90700000000000003

>  <r_sd_BIOSOLVEIT.LOGP>  (543) 
5.61212

>  <r_sd_BIOSOLVEIT.MOLECULAR\_WEIGHT>  (543) 
368.43400000000003

>  <r_sd_BIOSOLVEIT.TPSA>  (543) 
42.43

>  <i_epik_Tot_Q>  (543) 
1

>  <i_epik_Tot_abs_Q>  (543) 
1

>  <i_f3d_flags>  (543) 
0

>  <i_i_glide_confnum>  (543) 
3

>  <i_i_glide_lignum>  (543) 
238

>  <i_i_glide_posenum>  (543) 
17

>  <i_i_glide_rotatable_bonds>  (543) 
5

>  <i_lp_mmshare_version>  (543) 
65135

>  <i_m_ct_format>  (543) 
2

>  <i_m_source_file_index>  (543) 
446

>  <i_qp_#NandO>  (543) 
4

>  <i_qp_#acid>  (543) 
0

>  <i_qp_#amide>  (543) 
0

>  <i_qp_#amidine>  (543) 
0

>  <i_qp_#amine>  (543) 
0

>  <i_qp_#in34>  (543) 
0

>  <i_qp_#in56>  (543) 
22

>  <i_qp_#metab>  (543) 
2

>  <i_qp_#nonHatm>  (543) 
28

>  <i_qp_#noncon>  (543) 
0

>  <i_qp_#ringatoms>  (543) 
22

>  <i_qp_#rotor>  (543) 
4

>  <i_qp_#rtvFG>  (543) 
0

>  <i_qp_#stars>  (543) 
0

>  <i_qp_CNS>  (543) 
0

>  <i_qp_HumanOralAbsorption>  (543) 
3

>  <i_qp_RuleOfFive>  (543) 
0

>  <i_qp_RuleOfThree>  (543) 
0

>  <i_sd_BIOSOLVEIT.INFINISEE\_REAGENT1\_NAME>  (543) 
51052

>  <i_sd_BIOSOLVEIT.INFINISEE\_REAGENT2\_NAME>  (543) 
400834

>  <i_sd_BIOSOLVEIT.INFINISEE\_RESULT\_RANK>  (543) 
61367

>  <i_sd_version>  (543) 
0

>  <b_lp_Chiralities_Consistent>  (543) 
1

>  <b_sd_chiral_flag>  (543) 
0

>  <canonical_id>  (543) 
ATP-HTVS-542A37ED863C

>  <compound_code>  (543) 
14243

>  <title>  (543) 
a1____51052____400834

>  <variant>  (543) 
14243-2

>  <source_file>  (543) 
运行/运行/ATP-VSW/ATP-VSW-DOCK_HTVS_1-003_lib/ATP-VSW-DOCK_HTVS_1-003_lib.mae

>  <canonical_smiles>  (543) 
Cc1ccc(Oc2cc(C(=O)N(C)c3ccccc3)[nH+]c3ccccc23)cc1

>  <scaffold>  (543) 
O=C(Nc1ccccc1)c1cc(Oc2ccccc2)c2ccccc2[nH+]1

>  <molecular_formula>  (543) 
C24H21N2O2+

$$$$
ATP-HTVS-542AD0F295EC
     RDKit          3D

 57 60  0  0  0  0  0  0  0  0999 V2000
  198.9416  182.6131  156.9938 O   0  0  0  0  0  0  0  0  0  0  0  0
  198.0190  181.7950  156.9039 C   0  0  0  0  0  0  0  0  0  0  0  0
  196.8527  181.8576  157.5717 N   0  0  0  0  0  0  0  0  0  0  0  0
  196.3730  182.9278  158.3582 C   0  0  0  0  0  0  0  0  0  0  0  0
  194.9795  183.0300  158.5285 C   0  0  0  0  0  0  0  0  0  0  0  0
  194.4426  184.1047  159.2671 C   0  0  0  0  0  0  0  0  0  0  0  0
  195.3079  185.0226  159.9159 C   0  0  0  0  0  0  0  0  0  0  0  0
  194.7232  186.0969  160.6080 N   0  0  0  0  0  0  0  0  0  0  0  0
  195.5066  187.2455  161.0790 C   0  0  1  0  0  0  0  0  0  0  0  0
  196.4884  187.8579  160.0300 C   0  0  1  0  0  0  0  0  0  0  0  0
  197.0751  189.0146  160.5907 O   0  0  0  0  0  0  0  0  0  0  0  0
  196.7042  184.8393  159.8233 C   0  0  0  0  0  0  0  0  0  0  0  0
  197.2325  183.8442  159.0204 C   0  0  0  0  0  0  0  0  0  0  0  0
  198.1809  180.5478  156.0587 C   0  0  1  0  0  0  0  0  0  0  0  0
  199.1539  180.7425  154.8700 C   0  0  1  0  0  0  0  0  0  0  0  0
  198.7954  179.9677  153.6669 N   0  0  0  0  0  0  0  0  0  0  0  0
  198.0927  180.6975  152.6669 C   0  0  0  0  0  0  0  0  0  0  0  0
  198.0802  180.2060  151.3297 C   0  0  0  0  0  0  0  0  0  0  0  0
  197.4138  180.9168  150.3060 C   0  0  0  0  0  0  0  0  0  0  0  0
  196.7567  182.1210  150.5943 C   0  0  0  0  0  0  0  0  0  0  0  0
  196.7403  182.6131  151.9091 C   0  0  0  0  0  0  0  0  0  0  0  0
  197.3985  181.9082  152.9338 C   0  0  0  0  0  0  0  0  0  0  0  0
  198.7632  178.9321  150.9959 C   0  0  0  0  0  0  0  0  0  0  0  0
  198.8400  178.4904  149.8475 O   0  0  0  0  0  0  0  0  0  0  0  0
  199.3531  178.2090  152.1244 C   0  0  0  0  0  0  0  0  0  0  0  0
  199.3450  178.6982  153.3836 C   0  0  0  0  0  0  0  0  0  0  0  0
  199.9877  177.8932  154.4492 C   0  0  0  0  0  0  0  0  0  0  0  0
  201.2199  177.2238  154.1983 C   0  0  0  0  0  0  0  0  0  0  0  0
  201.8194  176.4543  155.2165 C   0  0  0  0  0  0  0  0  0  0  0  0
  201.2372  176.3945  156.5041 C   0  0  0  0  0  0  0  0  0  0  0  0
  200.0069  177.0504  156.7382 C   0  0  0  0  0  0  0  0  0  0  0  0
  199.3511  177.7320  155.6987 C   0  0  0  0  0  0  0  0  0  0  0  0
  196.2246  181.0599  157.4675 H   0  0  0  0  0  0  0  0  0  0  0  0
  194.3221  182.3056  158.0561 H   0  0  0  0  0  0  0  0  0  0  0  0
  193.3623  184.1910  159.3539 H   0  0  0  0  0  0  0  0  0  0  0  0
  193.7146  186.2060  160.5689 H   0  0  0  0  0  0  0  0  0  0  0  0
  194.7686  188.0106  161.3725 H   0  0  0  0  0  0  0  0  0  0  0  0
  195.9703  186.9580  162.0299 H   0  0  0  0  0  0  0  0  0  0  0  0
  197.3168  187.1999  159.7905 H   0  0  0  0  0  0  0  0  0  0  0  0
  195.9183  188.0662  159.1135 H   0  0  0  0  0  0  0  0  0  0  0  0
  197.7029  188.7392  161.2522 H   0  0  0  0  0  0  0  0  0  0  0  0
  197.3980  185.4644  160.3649 H   0  0  0  0  0  0  0  0  0  0  0  0
  198.3075  183.7778  158.9278 H   0  0  0  0  0  0  0  0  0  0  0  0
  198.5473  179.8064  156.7661 H   0  0  0  0  0  0  0  0  0  0  0  0
  197.1973  180.2115  155.7138 H   0  0  0  0  0  0  0  0  0  0  0  0
  199.2563  181.8034  154.6166 H   0  0  0  0  0  0  0  0  0  0  0  0
  200.1606  180.4747  155.1907 H   0  0  0  0  0  0  0  0  0  0  0  0
  197.4087  180.5412  149.2909 H   0  0  0  0  0  0  0  0  0  0  0  0
  196.2507  182.6636  149.8103 H   0  0  0  0  0  0  0  0  0  0  0  0
  196.2167  183.5293  152.1408 H   0  0  0  0  0  0  0  0  0  0  0  0
  197.3432  182.3280  153.9258 H   0  0  0  0  0  0  0  0  0  0  0  0
  199.7906  177.2468  151.9074 H   0  0  0  0  0  0  0  0  0  0  0  0
  201.6821  177.2657  153.2138 H   0  0  0  0  0  0  0  0  0  0  0  0
  202.7385  175.9199  155.0160 H   0  0  0  0  0  0  0  0  0  0  0  0
  201.7062  175.8140  157.2985 H   0  0  0  0  0  0  0  0  0  0  0  0
  199.5357  177.0148  157.7126 H   0  0  0  0  0  0  0  0  0  0  0  0
  198.3698  178.1490  155.8819 H   0  0  0  0  0  0  0  0  0  0  0  0
  1  2  2  0
  2  3  1  0
  2 14  1  0
  3  4  1  0
  3 33  1  0
  4  5  1  0
  4 13  2  0
  5  6  2  0
  5 34  1  0
  6  7  1  0
  6 35  1  0
  7  8  1  0
  7 12  2  0
  8  9  1  0
  8 36  1  0
  9 10  1  0
  9 37  1  1
  9 38  1  0
 10 11  1  0
 10 39  1  6
 10 40  1  0
 11 41  1  0
 12 13  1  0
 12 42  1  0
 13 43  1  0
 14 15  1  0
 14 44  1  1
 14 45  1  0
 15 16  1  0
 15 46  1  6
 15 47  1  0
 16 17  1  0
 16 26  1  0
 17 18  1  0
 17 22  2  0
 18 19  2  0
 18 23  1  0
 19 20  1  0
 19 48  1  0
 20 21  2  0
 20 49  1  0
 21 22  1  0
 21 50  1  0
 22 51  1  0
 23 24  2  0
 23 25  1  0
 25 26  2  0
 25 52  1  0
 26 27  1  0
 27 28  2  0
 27 32  1  0
 28 29  1  0
 28 53  1  0
 29 30  2  0
 29 54  1  0
 30 31  1  0
 30 55  1  0
 31 32  2  0
 31 56  1  0
 32 57  1  0
M  END
>  <s_epik_cmdline>  (544) 
J2VwaWtfcHl0aG9uJywgJy1waCcsICc3LjAwMDAwMCcsICctcGh0JywgJzIuMDAwMDAwJywgJy1tcycsICcxNicsICctdG4nLCAnOCcsICctbWEnLCAnMjAwJywgJy1pbWFlJywgJzxpbmZpbGUubWFlPicsICctb21hZScsICc8b3V0ZmlsZS5tYWU+Jw==

>  <s_epik_input>  (544) 
W09IXVtDSDJdW0NIMl1bTkhdYyhbY0hdW2NIXTEpW2NIXVtjSF1jMVtOSF1DKD1PKVtDSDJdW0NIMl1uMmMoLWMzW2NIXVtjSF1bY0hdW2NIXVtjSF0zKVtjSF1jKD1PKWMoYzI0KVtjSF1bY0hdW2NIXVtjSF00

>  <s_i_glide_gridfile>  (544) 
ATP-Grid

>  <s_lp_Force_Field>  (544) 
OPLS_2005

>  <s_lp_Variant>  (544) 
rxn512b____EMOL8314610____EMOL477682____EMOL2739194-1

>  <s_lp_label>  (544) 
3081_sdstereoexpander_1_neutralizer_1_epik_1_stereoizer_1

>  <s_m_source_file>  (544) 
ATP-VSW-LIGPREP-001-in.maegz

>  <s_sd_BIOSOLVEIT.INFINISEE\_QUERY\_NAME>  (544) 
Ref-Lig

>  <s_sd_BIOSOLVEIT.INFINISEE\_QUERY\_SMILES>  (544) 
S(c1nc2c(cc1C[NH2+]Cc3ccc(cc3)C[NH+](C)C)cccc2)Cc4ccccc4

>  <s_sd_BIOSOLVEIT.INFINISEE\_REACTION\_NAME>  (544) 
rxn512b

>  <s_sd_BIOSOLVEIT.INFINISEE\_REAGENT1\_NAME>  (544) 
EMOL8314610

>  <s_sd_BIOSOLVEIT.INFINISEE\_REAGENT1\_SMILES>  (544) 
OCCNc1ccc(N)cc1

>  <s_sd_BIOSOLVEIT.INFINISEE\_REAGENT2\_NAME>  (544) 
EMOL477682

>  <s_sd_BIOSOLVEIT.INFINISEE\_REAGENT2\_SMILES>  (544) 
BrCCC(=O)O

>  <s_sd_BIOSOLVEIT.INFINISEE\_REAGENT3\_NAME>  (544) 
EMOL2739194

>  <s_sd_BIOSOLVEIT.INFINISEE\_REAGENT3\_SMILES>  (544) 
O=C1c2c(NC(c3ccccc3)=C1)cccc2

>  <s_sd_BIOSOLVEIT.INFINISEE\_SPACE>  (544) 
eXplore_7tr_2022-12

>  <s_vsw_compound_code>  (544) 
98561

>  <s_vsw_variant>  (544) 
98561-1

>  <r_epik_Charging_Adjusted_Penalty>  (544) 
0.0023851858966040199

>  <r_epik_Ionization_Penalty>  (544) 
0.0023999999999999998

>  <r_epik_Ionization_Penalty_Charging>  (544) 
0

>  <r_epik_Ionization_Penalty_Neutral>  (544) 
0.0023999999999999998

>  <r_epik_State_Penalty>  (544) 
0.0023999999999999998

>  <r_i_docking_score>  (544) 
-4.3642374173137002

>  <r_i_glide_ecoul>  (544) 
-5.3972296714782697

>  <r_i_glide_eff_state_penalty>  (544) 
0.0023999999999999998

>  <r_i_glide_einternal>  (544) 
6.5782108306884801

>  <r_i_glide_emodel>  (544) 
-56.375761576316798

>  <r_i_glide_energy>  (544) 
-45.814523220062298

>  <r_i_glide_erotb>  (544) 
0.97782065494495896

>  <r_i_glide_esite>  (544) 
-0.137726990268978

>  <r_i_glide_evdw>  (544) 
-40.417293548583999

>  <r_i_glide_gscore>  (544) 
-4.3666374173136999

>  <r_i_glide_hbond>  (544) 
-0.20558066480081999

>  <r_i_glide_ligand_efficiency>  (544) 
-0.13638241929105299

>  <r_i_glide_ligand_efficiency_ln>  (544) 
-0.97727172235545801

>  <r_i_glide_ligand_efficiency_sa>  (544) 
-0.43298719120496498

>  <r_i_glide_lipo>  (544) 
-1.67634901631064

>  <r_i_glide_metal>  (544) 
-0

>  <r_i_glide_rewards>  (544) 
-0.494352272727272

>  <r_lp_Energy>  (544) 
29.669917000000002

>  <r_qp_ACxDN^.5/SA>  (544) 
0.0189964

>  <r_qp_CIQPlogS>  (544) 
-6.0460000000000003

>  <r_qp_EA(eV)>  (544) 
0.55400000000000005

>  <r_qp_FISA>  (544) 
137.70500000000001

>  <r_qp_FOSA>  (544) 
150.381

>  <r_qp_IP(eV)>  (544) 
7.8280000000000003

>  <r_qp_Jm>  (544) 
0.15045186490885701

>  <r_qp_PISA>  (544) 
413.98200000000003

>  <r_qp_PSA>  (544) 
96.837000000000003

>  <r_qp_PercentHumanOralAbsorption>  (544) 
96.302999999999997

>  <r_qp_QPPCaco>  (544) 
489.82400000000001

>  <r_qp_QPPMDCK>  (544) 
228.72800000000001

>  <r_qp_QPlogBB>  (544) 
-1.3169999999999999

>  <r_qp_QPlogHERG>  (544) 
-6.2839999999999998

>  <r_qp_QPlogKhsa>  (544) 
0.27400000000000002

>  <r_qp_QPlogKp>  (544) 
-1.7350000000000001

>  <r_qp_QPlogPC16>  (544) 
15.022

>  <r_qp_QPlogPo/w>  (544) 
3.6230000000000002

>  <r_qp_QPlogPoct>  (544) 
23.715

>  <r_qp_QPlogPw>  (544) 
15.154

>  <r_qp_QPlogS>  (544) 
-4.7190000000000003

>  <r_qp_QPpolrz>  (544) 
44.792000000000002

>  <r_qp_SASA>  (544) 
702.06799999999998

>  <r_qp_SAamideO>  (544) 
0

>  <r_qp_SAfluorine>  (544) 
0

>  <r_qp_WPSA>  (544) 
0

>  <r_qp_accptHB>  (544) 
7.7000000000000002

>  <r_qp_dip^2/V>  (544) 
0.0082456999999999999

>  <r_qp_dipole>  (544) 
3.2970000000000002

>  <r_qp_donorHB>  (544) 
3

>  <r_qp_glob>  (544) 
0.82832030000000001

>  <r_qp_mol_MW>  (544) 
427.50200000000001

>  <r_qp_volume>  (544) 
1318.617

>  <r_sd_BIOSOLVEIT.INFINISEE\_FTREES\_SIMILARITY>  (544) 
0.90100000000000002

>  <r_sd_BIOSOLVEIT.LOGP>  (544) 
4.1634000000000002

>  <r_sd_BIOSOLVEIT.MOLECULAR\_WEIGHT>  (544) 
427.50200000000001

>  <r_sd_BIOSOLVEIT.TPSA>  (544) 
81.670000000000002

>  <i_epik_Tot_Q>  (544) 
0

>  <i_epik_Tot_abs_Q>  (544) 
0

>  <i_f3d_flags>  (544) 
0

>  <i_i_glide_confnum>  (544) 
2

>  <i_i_glide_lignum>  (544) 
52

>  <i_i_glide_posenum>  (544) 
18

>  <i_i_glide_rotatable_bonds>  (544) 
10

>  <i_lp_mmshare_version>  (544) 
65135

>  <i_m_ct_format>  (544) 
2

>  <i_m_source_file_index>  (544) 
3081

>  <i_qp_#NandO>  (544) 
6

>  <i_qp_#acid>  (544) 
0

>  <i_qp_#amide>  (544) 
0

>  <i_qp_#amidine>  (544) 
0

>  <i_qp_#amine>  (544) 
0

>  <i_qp_#in34>  (544) 
0

>  <i_qp_#in56>  (544) 
22

>  <i_qp_#metab>  (544) 
7

>  <i_qp_#nonHatm>  (544) 
32

>  <i_qp_#noncon>  (544) 
0

>  <i_qp_#ringatoms>  (544) 
22

>  <i_qp_#rotor>  (544) 
9

>  <i_qp_#rtvFG>  (544) 
0

>  <i_qp_#stars>  (544) 
1

>  <i_qp_CNS>  (544) 
-2

>  <i_qp_HumanOralAbsorption>  (544) 
3

>  <i_qp_RuleOfFive>  (544) 
0

>  <i_qp_RuleOfThree>  (544) 
1

>  <i_sd_BIOSOLVEIT.INFINISEE\_RESULT\_RANK>  (544) 
94614

>  <i_sd_version>  (544) 
0

>  <b_lp_Chiralities_Consistent>  (544) 
1

>  <b_sd_chiral_flag>  (544) 
0

>  <canonical_id>  (544) 
ATP-HTVS-542AD0F295EC

>  <compound_code>  (544) 
98561

>  <title>  (544) 
rxn512b____EMOL8314610____EMOL477682____EMOL2739194

>  <variant>  (544) 
98561-1

>  <source_file>  (544) 
运行/运行/ATP-VSW/ATP-VSW-DOCK_HTVS_1-002_lib.maegz

>  <canonical_smiles>  (544) 
O=C(CCn1c(-c2ccccc2)cc(=O)c2ccccc21)Nc1ccc(NCCO)cc1

>  <scaffold>  (544) 
O=C(CCn1c(-c2ccccc2)cc(=O)c2ccccc21)Nc1ccccc1

>  <molecular_formula>  (544) 
C26H25N3O3

$$$$
ATP-HTVS-545253A9A90F
     RDKit          3D

 66 69  0  0  0  0  0  0  0  0999 V2000
  199.1118  182.9200  158.0599 O   0  0  0  0  0  0  0  0  0  0  0  0
  197.9721  182.5621  157.7203 C   0  0  0  0  0  0  0  0  0  0  0  0
  197.7075  181.7044  156.7278 N   0  0  0  0  0  0  0  0  0  0  0  0
  198.6150  180.8962  155.9812 C   0  0  0  0  0  0  0  0  0  0  0  0
  199.8371  180.6020  156.4822 N   0  0  0  0  0  0  0  0  0  0  0  0
  200.6712  179.8172  155.7828 C   0  0  0  0  0  0  0  0  0  0  0  0
  200.3693  179.2671  154.5179 C   0  0  0  0  0  0  0  0  0  0  0  0
  201.3258  178.4906  153.8228 N   0  0  0  0  0  0  0  0  0  0  0  0
  202.2351  177.6391  154.6130 C   0  0  2  0  0  0  0  0  0  0  0  0
  203.6400  178.0636  154.4388 C   0  0  0  0  0  0  0  0  0  0  0  0
  204.7374  178.4029  154.2944 N   0  0  0  0  0  0  0  0  0  0  0  0
  202.0550  176.1459  154.3748 C   0  0  0  0  0  0  0  0  0  0  0  0
  201.3122  175.6475  153.2789 C   0  0  0  0  0  0  0  0  0  0  0  0
  201.1490  174.2609  153.1062 C   0  0  0  0  0  0  0  0  0  0  0  0
  201.7250  173.3615  154.0249 C   0  0  0  0  0  0  0  0  0  0  0  0
  202.4574  173.8511  155.1231 C   0  0  0  0  0  0  0  0  0  0  0  0
  202.6155  175.2390  155.2990 C   0  0  0  0  0  0  0  0  0  0  0  0
  201.8329  179.1036  152.5891 C   0  0  2  0  0  0  0  0  0  0  0  0
  199.0844  179.5604  153.9805 C   0  0  0  0  0  0  0  0  0  0  0  0
  198.1985  180.3999  154.7205 C   0  0  0  0  0  0  0  0  0  0  0  0
  196.9254  180.7080  154.1658 C   0  0  0  0  0  0  0  0  0  0  0  0
  196.5437  180.2054  152.9093 C   0  0  0  0  0  0  0  0  0  0  0  0
  197.4121  179.3692  152.1877 C   0  0  0  0  0  0  0  0  0  0  0  0
  198.6643  179.0356  152.7317 C   0  0  0  0  0  0  0  0  0  0  0  0
  196.7434  183.1462  158.3851 C   0  0  0  0  0  0  0  0  0  0  0  0
  196.7763  184.4322  159.0464 C   0  0  0  0  0  0  0  0  0  0  0  0
  197.9828  185.1334  159.0756 O   0  0  0  0  0  0  0  0  0  0  0  0
  197.9677  186.5585  158.9857 C   0  0  1  0  0  0  0  0  0  0  0  0
  198.5122  187.0316  157.6051 C   0  0  1  0  0  0  0  0  0  0  0  0
  197.6382  186.7407  156.4241 N   0  0  2  0  0  0  0  0  0  0  0  0
  196.2710  187.2912  156.6051 C   0  0  2  0  0  0  0  0  0  0  0  0
  197.5996  185.2988  156.0619 C   0  0  2  0  0  0  0  0  0  0  0  0
  195.5946  184.9446  159.5803 C   0  0  0  0  0  0  0  0  0  0  0  0
  194.3777  184.2320  159.5138 C   0  0  0  0  0  0  0  0  0  0  0  0
  194.3445  182.9750  158.8999 C   0  0  0  0  0  0  0  0  0  0  0  0
  195.5265  182.4341  158.3612 C   0  0  0  0  0  0  0  0  0  0  0  0
  196.7347  181.5928  156.4638 H   0  0  0  0  0  0  0  0  0  0  0  0
  201.6292  179.6591  156.2549 H   0  0  0  0  0  0  0  0  0  0  0  0
  202.0421  177.7408  155.6836 H   0  0  0  0  0  0  0  0  0  0  0  0
  200.8582  176.3209  152.5680 H   0  0  0  0  0  0  0  0  0  0  0  0
  200.5819  173.8933  152.2632 H   0  0  0  0  0  0  0  0  0  0  0  0
  201.6054  172.2965  153.8881 H   0  0  0  0  0  0  0  0  0  0  0  0
  202.8950  173.1603  155.8293 H   0  0  0  0  0  0  0  0  0  0  0  0
  203.1630  175.6106  156.1538 H   0  0  0  0  0  0  0  0  0  0  0  0
  201.0458  179.4564  151.9197 H   0  0  0  0  0  0  0  0  0  0  0  0
  202.4266  178.3776  152.0294 H   0  0  0  0  0  0  0  0  0  0  0  0
  202.4642  179.9626  152.8243 H   0  0  0  0  0  0  0  0  0  0  0  0
  196.2222  181.3378  154.6905 H   0  0  0  0  0  0  0  0  0  0  0  0
  195.5715  180.4471  152.5002 H   0  0  0  0  0  0  0  0  0  0  0  0
  197.1153  178.9770  151.2233 H   0  0  0  0  0  0  0  0  0  0  0  0
  199.2920  178.3615  152.1631 H   0  0  0  0  0  0  0  0  0  0  0  0
  197.0157  187.0453  159.2078 H   0  0  0  0  0  0  0  0  0  0  0  0
  198.6391  186.9260  159.7658 H   0  0  0  0  0  0  0  0  0  0  0  0
  198.6535  188.1156  157.6741 H   0  0  0  0  0  0  0  0  0  0  0  0
  199.5151  186.6286  157.4445 H   0  0  0  0  0  0  0  0  0  0  0  0
  195.7290  186.8499  157.4493 H   0  0  0  0  0  0  0  0  0  0  0  0
  195.6583  187.1052  155.7232 H   0  0  0  0  0  0  0  0  0  0  0  0
  196.3134  188.3737  156.7783 H   0  0  0  0  0  0  0  0  0  0  0  0
  197.1128  184.7768  156.8617 H   0  0  0  0  0  0  0  0  0  0  0  0
  198.6194  184.9573  155.8625 H   0  0  0  0  0  0  0  0  0  0  0  0
  197.0360  185.1752  155.1275 H   0  0  0  0  0  0  0  0  0  0  0  0
  195.5551  185.9095  160.0675 H   0  0  0  0  0  0  0  0  0  0  0  0
  193.4692  184.6667  159.9039 H   0  0  0  0  0  0  0  0  0  0  0  0
  193.4114  182.4377  158.8019 H   0  0  0  0  0  0  0  0  0  0  0  0
  195.4377  181.4783  157.8569 H   0  0  0  0  0  0  0  0  0  0  0  0
  198.0398  187.2821  155.6576 H   0  0  0  0  0  0  0  0  0  0  0  0
  1  2  2  0
  2  3  1  0
  2 25  1  0
  3  4  1  0
  3 37  1  0
  4  5  1  0
  4 20  2  0
  5  6  2  0
  6  7  1  0
  6 38  1  0
  7  8  1  0
  7 19  2  0
  8  9  1  0
  8 18  1  0
  9 10  1  0
  9 12  1  0
  9 39  1  1
 10 11  3  0
 12 13  2  0
 12 17  1  0
 13 14  1  0
 13 40  1  0
 14 15  2  0
 14 41  1  0
 15 16  1  0
 15 42  1  0
 16 17  2  0
 16 43  1  0
 17 44  1  0
 18 45  1  6
 18 46  1  0
 18 47  1  0
 19 20  1  0
 19 24  1  0
 20 21  1  0
 21 22  2  0
 21 48  1  0
 22 23  1  0
 22 49  1  0
 23 24  2  0
 23 50  1  0
 24 51  1  0
 25 26  1  0
 25 36  2  0
 26 27  1  0
 26 33  2  0
 27 28  1  0
 28 29  1  0
 28 52  1  1
 28 53  1  0
 29 30  1  0
 29 54  1  1
 29 55  1  0
 30 31  1  0
 30 32  1  0
 30 66  1  6
 31 56  1  1
 31 57  1  0
 31 58  1  0
 32 59  1  1
 32 60  1  0
 32 61  1  0
 33 34  1  0
 33 62  1  0
 34 35  2  0
 34 63  1  0
 35 36  1  0
 35 64  1  0
 36 65  1  0
M  CHG  1  30   1
M  END
>  <s_epik_cmdline>  (545) 
J2VwaWtfcHl0aG9uJywgJy1waCcsICc3LjAwMDAwMCcsICctcGh0JywgJzIuMDAwMDAwJywgJy1tcycsICcxNicsICctdG4nLCAnOCcsICctbWEnLCAnMjAwJywgJy1pbWFlJywgJzxpbmZpbGUubWFlPicsICctb21hZScsICc8b3V0ZmlsZS5tYWU+Jw==

>  <s_epik_input>  (545) 
W0NIM11OKFtDSDNdKVtDSDJdW0NIMl1PYyhbY0hdW2NIXVtjSF1bY0hdMSljMUMoPU8pW05IXWMoYyhjMjMpW2NIXVtjSF1bY0hdW2NIXTMpbltjSF1jMk4oW0NIM10pW0NASF0oQyNOKWM0W2NIXVtjSF1bY0hdW2NIXVtjSF00

>  <s_i_glide_gridfile>  (545) 
ATP-Grid

>  <s_lp_Force_Field>  (545) 
OPLS_2005

>  <s_lp_Variant>  (545) 
rxn502b____EMOL1542108____EMOL7515103____EMOL24630243-2

>  <s_lp_label>  (545) 
2621_sdstereoexpander_2_neutralizer_1_epik_1_stereoizer_1

>  <s_m_source_file>  (545) 
ATP-VSW-LIGPREP-002-in.maegz

>  <s_sd_BIOSOLVEIT.INFINISEE\_QUERY\_NAME>  (545) 
Ref-Lig

>  <s_sd_BIOSOLVEIT.INFINISEE\_QUERY\_SMILES>  (545) 
S(c1nc2c(cc1C[NH2+]Cc3ccc(cc3)C[NH+](C)C)cccc2)Cc4ccccc4

>  <s_sd_BIOSOLVEIT.INFINISEE\_REACTION\_NAME>  (545) 
rxn502b

>  <s_sd_BIOSOLVEIT.INFINISEE\_REAGENT1\_NAME>  (545) 
EMOL1542108

>  <s_sd_BIOSOLVEIT.INFINISEE\_REAGENT1\_SMILES>  (545) 
O=C(O)c1c(OCCN(C)C)cccc1

>  <s_sd_BIOSOLVEIT.INFINISEE\_REAGENT2\_NAME>  (545) 
EMOL7515103

>  <s_sd_BIOSOLVEIT.INFINISEE\_REAGENT2\_SMILES>  (545) 
Brc1c2c(c(nc1)N)cccc2

>  <s_sd_BIOSOLVEIT.INFINISEE\_REAGENT3\_NAME>  (545) 
EMOL24630243

>  <s_sd_BIOSOLVEIT.INFINISEE\_REAGENT3\_SMILES>  (545) 
N#CC(NC)c1ccccc1

>  <s_sd_BIOSOLVEIT.INFINISEE\_SPACE>  (545) 
eXplore_7tr_2022-12

>  <s_vsw_compound_code>  (545) 
83842

>  <s_vsw_variant>  (545) 
83842-2

>  <r_epik_Charging_Adjusted_Penalty>  (545) 
0.049611777781538503

>  <r_epik_Ionization_Penalty>  (545) 
0.024899999999999999

>  <r_epik_Ionization_Penalty_Charging>  (545) 
0.024799999999999999

>  <r_epik_Ionization_Penalty_Neutral>  (545) 
0.0001

>  <r_epik_State_Penalty>  (545) 
0.024799999999999999

>  <r_i_docking_score>  (545) 
-3.97688013494276

>  <r_i_glide_ecoul>  (545) 
-6.6666593551635698

>  <r_i_glide_eff_state_penalty>  (545) 
0.024799999999999999

>  <r_i_glide_einternal>  (545) 
10.284864425659199

>  <r_i_glide_emodel>  (545) 
-55.084592498435001

>  <r_i_glide_energy>  (545) 
-45.957610130310101

>  <r_i_glide_erotb>  (545) 
0.79027730164020205

>  <r_i_glide_esite>  (545) 
-0.106940364134575

>  <r_i_glide_evdw>  (545) 
-39.290950775146499

>  <r_i_glide_gscore>  (545) 
-4.0016801349427604

>  <r_i_glide_hbond>  (545) 
0

>  <r_i_glide_ligand_efficiency>  (545) 
-0.110468892637299

>  <r_i_glide_ligand_efficiency_ln>  (545) 
-0.86764780255981899

>  <r_i_glide_ligand_efficiency_sa>  (545) 
-0.36476024631860299

>  <r_i_glide_lipo>  (545) 
-1.58806699405289

>  <r_i_glide_metal>  (545) 
-0

>  <r_i_glide_rewards>  (545) 
-0.132403636363635

>  <r_lp_Energy>  (545) 
50.283990000000003

>  <r_lp_tautomer_probability>  (545) 
1

>  <r_qp_ACxDN^.5/SA>  (545) 
0.010182399999999999

>  <r_qp_CIQPlogS>  (545) 
-6.7110000000000003

>  <r_qp_EA(eV)>  (545) 
1.0800000000000001

>  <r_qp_FISA>  (545) 
100.101

>  <r_qp_FOSA>  (545) 
275.63400000000001

>  <r_qp_IP(eV)>  (545) 
8.3290000000000006

>  <r_qp_Jm>  (545) 
0.00016940248628278899

>  <r_qp_PISA>  (545) 
483.58999999999997

>  <r_qp_PSA>  (545) 
82.438000000000002

>  <r_qp_PercentHumanOralAbsorption>  (545) 
100

>  <r_qp_QPPCaco>  (545) 
277.68099999999998

>  <r_qp_QPPMDCK>  (545) 
137.01499999999999

>  <r_qp_QPlogBB>  (545) 
-0.78800000000000003

>  <r_qp_QPlogHERG>  (545) 
-8.4060000000000006

>  <r_qp_QPlogKhsa>  (545) 
0.68899999999999995

>  <r_qp_QPlogKp>  (545) 
-2.7629999999999999

>  <r_qp_QPlogPC16>  (545) 
17.468

>  <r_qp_QPlogPo/w>  (545) 
4.8220000000000001

>  <r_qp_QPlogPoct>  (545) 
25.472999999999999

>  <r_qp_QPlogPw>  (545) 
13.635

>  <r_qp_QPlogS>  (545) 
-6.6890000000000001

>  <r_qp_QPpolrz>  (545) 
55.165999999999997

>  <r_qp_SASA>  (545) 
859.32399999999996

>  <r_qp_SAamideO>  (545) 
0

>  <r_qp_SAfluorine>  (545) 
0

>  <r_qp_WPSA>  (545) 
0

>  <r_qp_accptHB>  (545) 
8.75

>  <r_qp_dip^2/V>  (545) 
0.066343600000000003

>  <r_qp_dipole>  (545) 
10.228999999999999

>  <r_qp_donorHB>  (545) 
1

>  <r_qp_glob>  (545) 
0.76257109999999995

>  <r_qp_mol_MW>  (545) 
479.57999999999998

>  <r_qp_volume>  (545) 
1577.279

>  <r_sd_BIOSOLVEIT.INFINISEE\_FTREES\_SIMILARITY>  (545) 
0.91100000000000003

>  <r_sd_BIOSOLVEIT.LOGP>  (545) 
3.7114799999999999

>  <r_sd_BIOSOLVEIT.MOLECULAR\_WEIGHT>  (545) 
480.589

>  <r_sd_BIOSOLVEIT.TPSA>  (545) 
82.689999999999998

>  <i_epik_Tot_Q>  (545) 
1

>  <i_epik_Tot_abs_Q>  (545) 
1

>  <i_f3d_flags>  (545) 
0

>  <i_i_glide_confnum>  (545) 
12

>  <i_i_glide_lignum>  (545) 
1208

>  <i_i_glide_posenum>  (545) 
18

>  <i_i_glide_rotatable_bonds>  (545) 
10

>  <i_lp_mmshare_version>  (545) 
65135

>  <i_m_ct_format>  (545) 
2

>  <i_m_source_file_index>  (545) 
2621

>  <i_qp_#NandO>  (545) 
7

>  <i_qp_#acid>  (545) 
0

>  <i_qp_#amide>  (545) 
0

>  <i_qp_#amidine>  (545) 
0

>  <i_qp_#amine>  (545) 
1

>  <i_qp_#in34>  (545) 
0

>  <i_qp_#in56>  (545) 
22

>  <i_qp_#metab>  (545) 
6

>  <i_qp_#nonHatm>  (545) 
36

>  <i_qp_#noncon>  (545) 
0

>  <i_qp_#ringatoms>  (545) 
22

>  <i_qp_#rotor>  (545) 
10

>  <i_qp_#rtvFG>  (545) 
0

>  <i_qp_#stars>  (545) 
2

>  <i_qp_CNS>  (545) 
0

>  <i_qp_HumanOralAbsorption>  (545) 
1

>  <i_qp_RuleOfFive>  (545) 
0

>  <i_qp_RuleOfThree>  (545) 
1

>  <i_sd_BIOSOLVEIT.INFINISEE\_RESULT\_RANK>  (545) 
43547

>  <i_sd_version>  (545) 
0

>  <b_lp_Chiralities_Consistent>  (545) 
1

>  <b_sd_chiral_flag>  (545) 
0

>  <canonical_id>  (545) 
ATP-HTVS-545253A9A90F

>  <compound_code>  (545) 
83842

>  <title>  (545) 
rxn502b____EMOL1542108____EMOL7515103____EMOL24630243

>  <variant>  (545) 
83842-2

>  <source_file>  (545) 
运行/运行/ATP-VSW/ATP-VSW-DOCK_HTVS_1-002_lib.maegz

>  <canonical_smiles>  (545) 
CN(c1cnc(NC(=O)c2ccccc2OCC[NH+](C)C)c2ccccc12)[C@H](C#N)c1ccccc1

>  <scaffold>  (545) 
O=C(Nc1ncc(NCc2ccccc2)c2ccccc12)c1ccccc1

>  <molecular_formula>  (545) 
C29H30N5O2+

$$$$
ATP-HTVS-5494A1B9D9EC
     RDKit          3D

 59 62  0  0  0  0  0  0  0  0999 V2000
  198.3748  182.4102  156.9459 N   0  0  0  0  0  0  0  0  0  0  0  0
  197.2352  181.7482  156.7397 C   0  0  0  0  0  0  0  0  0  0  0  0
  196.0853  182.1085  157.3327 N   0  0  0  0  0  0  0  0  0  0  0  0
  196.0669  183.1284  158.2315 C   0  0  0  0  0  0  0  0  0  0  0  0
  197.2649  183.7952  158.5601 C   0  0  0  0  0  0  0  0  0  0  0  0
  198.4303  183.3965  157.8573 C   0  0  0  0  0  0  0  0  0  0  0  0
  199.6587  184.0287  158.0241 N   0  0  0  0  0  0  0  0  0  0  0  0
  200.2715  184.1038  159.3413 C   0  0  1  0  0  0  0  0  0  0  0  0
  200.8091  185.4832  159.6970 C   0  0  0  0  0  0  0  0  0  0  0  0
  200.1631  186.6480  159.2234 C   0  0  0  0  0  0  0  0  0  0  0  0
  200.5878  187.9414  159.6414 C   0  0  0  0  0  0  0  0  0  0  0  0
  201.7296  188.0615  160.4686 C   0  0  0  0  0  0  0  0  0  0  0  0
  202.4092  186.8990  160.8959 C   0  0  0  0  0  0  0  0  0  0  0  0
  201.9450  185.6167  160.5277 C   0  0  0  0  0  0  0  0  0  0  0  0
  199.8056  189.1784  159.2051 C   0  0  1  0  0  0  0  0  0  0  0  0
  198.6837  189.5221  160.1196 N   0  0  2  0  0  0  0  0  0  0  0  0
  197.5276  188.5903  160.0648 C   0  0  2  0  0  0  0  0  0  0  0  0
  198.2314  190.9220  159.9388 C   0  0  2  0  0  0  0  0  0  0  0  0
  197.2182  184.8526  159.4850 C   0  0  0  0  0  0  0  0  0  0  0  0
  195.9917  185.2648  160.0420 C   0  0  0  0  0  0  0  0  0  0  0  0
  194.7926  184.6187  159.6993 C   0  0  0  0  0  0  0  0  0  0  0  0
  194.8279  183.5259  158.7969 C   0  0  0  0  0  0  0  0  0  0  0  0
  197.1720  180.6547  155.8890 N   0  0  0  0  0  0  0  0  0  0  0  0
  198.2308  180.2328  154.9671 C   0  0  1  0  0  0  0  0  0  0  0  0
  199.5269  179.8111  155.6351 C   0  0  0  0  0  0  0  0  0  0  0  0
  199.5847  178.6258  156.3992 C   0  0  0  0  0  0  0  0  0  0  0  0
  200.7834  178.2706  157.0435 C   0  0  0  0  0  0  0  0  0  0  0  0
  201.8766  179.0518  156.9043 N   0  0  0  0  0  0  0  0  0  0  0  0
  201.8644  180.2009  156.1873 C   0  0  0  0  0  0  0  0  0  0  0  0
  200.6830  180.6098  155.5235 C   0  0  0  0  0  0  0  0  0  0  0  0
  200.3310  183.8951  157.2718 H   0  0  0  0  0  0  0  0  0  0  0  0
  199.5867  183.7659  160.1317 H   0  0  0  0  0  0  0  0  0  0  0  0
  201.0775  183.3683  159.4137 H   0  0  0  0  0  0  0  0  0  0  0  0
  199.2950  186.5430  158.5844 H   0  0  0  0  0  0  0  0  0  0  0  0
  202.0900  189.0305  160.7780 H   0  0  0  0  0  0  0  0  0  0  0  0
  203.2977  186.9875  161.5077 H   0  0  0  0  0  0  0  0  0  0  0  0
  202.4519  184.7337  160.8944 H   0  0  0  0  0  0  0  0  0  0  0  0
  200.5059  190.0101  159.1574 H   0  0  0  0  0  0  0  0  0  0  0  0
  199.4343  189.0218  158.1918 H   0  0  0  0  0  0  0  0  0  0  0  0
  197.0890  188.5347  159.0684 H   0  0  0  0  0  0  0  0  0  0  0  0
  196.7478  188.8932  160.7684 H   0  0  0  0  0  0  0  0  0  0  0  0
  197.8485  187.5992  160.3703 H   0  0  0  0  0  0  0  0  0  0  0  0
  197.8186  191.0812  158.9390 H   0  0  0  0  0  0  0  0  0  0  0  0
  199.0574  191.6173  160.0910 H   0  0  0  0  0  0  0  0  0  0  0  0
  197.4561  191.1713  160.6667 H   0  0  0  0  0  0  0  0  0  0  0  0
  198.1327  185.4313  159.7530 H   0  0  0  0  0  0  0  0  0  0  0  0
  195.9889  186.0876  160.7255 H   0  0  0  0  0  0  0  0  0  0  0  0
  193.8539  184.9341  160.1510 H   0  0  0  0  0  0  0  0  0  0  0  0
  193.8964  183.0021  158.5260 H   0  0  0  0  0  0  0  0  0  0  0  0
  196.3655  180.0586  156.0142 H   0  0  0  0  0  0  0  0  0  0  0  0
  197.8548  179.4092  154.3594 H   0  0  0  0  0  0  0  0  0  0  0  0
  198.4214  181.0542  154.2862 H   0  0  0  0  0  0  0  0  0  0  0  0
  198.7277  177.9893  156.5226 H   0  0  0  0  0  0  0  0  0  0  0  0
  200.8911  177.3820  157.6479 H   0  0  0  0  0  0  0  0  0  0  0  0
  202.7954  180.7493  156.1550 H   0  0  0  0  0  0  0  0  0  0  0  0
  200.6678  181.5250  154.9538 H   0  0  0  0  0  0  0  0  0  0  0  0
  195.2167  181.6290  157.1028 H   0  0  0  0  0  0  0  0  0  0  0  0
  199.0372  189.4579  161.0800 H   0  0  0  0  0  0  0  0  0  0  0  0
  202.7504  178.7344  157.3276 H   0  0  0  0  0  0  0  0  0  0  0  0
  1  2  1  0
  1  6  2  0
  2  3  2  0
  2 23  1  0
  3  4  1  0
  3 57  1  0
  4  5  1  0
  4 22  2  0
  5  6  1  0
  5 19  2  0
  6  7  1  0
  7  8  1  0
  7 31  1  0
  8  9  1  0
  8 32  1  1
  8 33  1  0
  9 10  2  0
  9 14  1  0
 10 11  1  0
 10 34  1  0
 11 12  2  0
 11 15  1  0
 12 13  1  0
 12 35  1  0
 13 14  2  0
 13 36  1  0
 14 37  1  0
 15 16  1  0
 15 38  1  6
 15 39  1  0
 16 17  1  0
 16 18  1  0
 16 58  1  1
 17 40  1  6
 17 41  1  0
 17 42  1  0
 18 43  1  6
 18 44  1  0
 18 45  1  0
 19 20  1  0
 19 46  1  0
 20 21  2  0
 20 47  1  0
 21 22  1  0
 21 48  1  0
 22 49  1  0
 23 24  1  0
 23 50  1  0
 24 25  1  0
 24 51  1  6
 24 52  1  0
 25 26  2  0
 25 30  1  0
 26 27  1  0
 26 53  1  0
 27 28  2  0
 27 54  1  0
 28 29  1  0
 28 59  1  0
 29 30  2  0
 29 55  1  0
 30 56  1  0
M  CHG  3   3   1  16   1  28   1
M  END
>  <s_epik_cmdline>  (546) 
J2VwaWtfcHl0aG9uJywgJy1waCcsICc3LjAwMDAwMCcsICctcGh0JywgJzIuMDAwMDAwJywgJy1tcycsICcxNicsICctdG4nLCAnOCcsICctbWEnLCAnMjAwJywgJy1pbWFlJywgJzxpbmZpbGUubWFlPicsICctb21hZScsICc8b3V0ZmlsZS5tYWU+Jw==

>  <s_epik_input>  (546) 
W2NIXTFbY0hdbltjSF1bY0hdYzFbQ0gyXVtOSF1jKG4yKW5jKGMoYzIzKVtjSF1bY0hdW2NIXVtjSF0zKVtOSF1bQ0gyXWM0W2NIXWMoW2NIXVtjSF1bY0hdNClbQ0gyXU4oW0NIM10pW0NIM10=

>  <s_i_glide_gridfile>  (546) 
ATP-Grid

>  <s_lp_Force_Field>  (546) 
OPLS_2005

>  <s_lp_Variant>  (546) 
m_282030aaa____21930962____22360182____21940090-2

>  <s_lp_label>  (546) 
2124_sdstereoexpander_1_neutralizer_1_epik_2_stereoizer_1

>  <s_m_source_file>  (546) 
ATP-VSW-LIGPREP-003-in.maegz

>  <s_sd_BIOSOLVEIT.INFINISEE\_QUERY\_NAME>  (546) 
Ref-Lig

>  <s_sd_BIOSOLVEIT.INFINISEE\_QUERY\_SMILES>  (546) 
S(c1nc2c(cc1C[NH2+]Cc3ccc(cc3)C[NH+](C)C)cccc2)Cc4ccccc4

>  <s_sd_BIOSOLVEIT.INFINISEE\_REACTION\_NAME>  (546) 
m_282030aaa

>  <s_sd_BIOSOLVEIT.INFINISEE\_REAGENT1\_SMILES>  (546) 
[R1*]NCc1ccncc1

>  <s_sd_BIOSOLVEIT.INFINISEE\_REAGENT2\_SMILES>  (546) 
[R2*]c1nc([R1*])c2c(n1)cccc2

>  <s_sd_BIOSOLVEIT.INFINISEE\_REAGENT3\_SMILES>  (546) 
[R2*]NCc1cc(ccc1)CN(C)C

>  <s_sd_BIOSOLVEIT.INFINISEE\_SPACE>  (546) 
REALSpace_44bn_2023-08

>  <s_vsw_compound_code>  (546) 
67939

>  <s_vsw_variant>  (546) 
67939-2

>  <r_epik_Charging_Adjusted_Penalty>  (546) 
1.5995813905690299

>  <r_epik_Ionization_Penalty>  (546) 
0.81359999999999999

>  <r_epik_Ionization_Penalty_Charging>  (546) 
0.8135

>  <r_epik_Ionization_Penalty_Neutral>  (546) 
0.0001

>  <r_epik_State_Penalty>  (546) 
0.78610000000000002

>  <r_i_docking_score>  (546) 
-4.5721451552694097

>  <r_i_glide_ecoul>  (546) 
-14.018556594848601

>  <r_i_glide_eff_state_penalty>  (546) 
0.78610000000000002

>  <r_i_glide_einternal>  (546) 
9.6122417449951207

>  <r_i_glide_emodel>  (546) 
-64.826701631340896

>  <r_i_glide_energy>  (546) 
-41.527078628540004

>  <r_i_glide_erotb>  (546) 
0.85163704729867995

>  <r_i_glide_esite>  (546) 
-0.374202014545372

>  <r_i_glide_evdw>  (546) 
-27.508522033691399

>  <r_i_glide_gscore>  (546) 
-5.3582451552694099

>  <r_i_glide_hbond>  (546) 
-0.290020508683489

>  <r_i_glide_ligand_efficiency>  (546) 
-0.15240483850898001

>  <r_i_glide_ligand_efficiency_ln>  (546) 
-1.0388411967887501

>  <r_i_glide_ligand_efficiency_sa>  (546) 
-0.473557267742865

>  <r_i_glide_lipo>  (546) 
-1.1710450429728201

>  <r_i_glide_metal>  (546) 
-0

>  <r_i_glide_rewards>  (546) 
-0.89640504545454402

>  <r_lp_Energy>  (546) 
23.569946999999999

>  <r_qp_ACxDN^.5/SA>  (546) 
0.012809900000000001

>  <r_qp_CIQPlogS>  (546) 
-4.9450000000000003

>  <r_qp_EA(eV)>  (546) 
0.66200000000000003

>  <r_qp_FISA>  (546) 
74.784999999999997

>  <r_qp_FOSA>  (546) 
246.898

>  <r_qp_IP(eV)>  (546) 
8.1280000000000001

>  <r_qp_Jm>  (546) 
0.027232768683496202

>  <r_qp_PISA>  (546) 
395.92000000000002

>  <r_qp_PSA>  (546) 
58.889000000000003

>  <r_qp_PercentHumanOralAbsorption>  (546) 
100

>  <r_qp_QPPCaco>  (546) 
482.63

>  <r_qp_QPPMDCK>  (546) 
249.03200000000001

>  <r_qp_QPlogBB>  (546) 
-0.28299999999999997

>  <r_qp_QPlogHERG>  (546) 
-7.25

>  <r_qp_QPlogKhsa>  (546) 
0.53800000000000003

>  <r_qp_QPlogKp>  (546) 
-2.798

>  <r_qp_QPlogPC16>  (546) 
14.214

>  <r_qp_QPlogPo/w>  (546) 
4.0839999999999996

>  <r_qp_QPlogPoct>  (546) 
21.276

>  <r_qp_QPlogPw>  (546) 
12.215

>  <r_qp_QPlogS>  (546) 
-4.3680000000000003

>  <r_qp_QPpolrz>  (546) 
45.043999999999997

>  <r_qp_SASA>  (546) 
717.60299999999995

>  <r_qp_SAamideO>  (546) 
0

>  <r_qp_SAfluorine>  (546) 
0

>  <r_qp_WPSA>  (546) 
0

>  <r_qp_accptHB>  (546) 
6.5

>  <r_qp_dip^2/V>  (546) 
0.0061587999999999999

>  <r_qp_dipole>  (546) 
2.8439999999999999

>  <r_qp_donorHB>  (546) 
2

>  <r_qp_glob>  (546) 
0.80816460000000001

>  <r_qp_mol_MW>  (546) 
398.50999999999999

>  <r_qp_volume>  (546) 
1313.193

>  <r_sd_BIOSOLVEIT.INFINISEE\_FTREES\_SIMILARITY>  (546) 
0.90100000000000002

>  <r_sd_BIOSOLVEIT.LOGP>  (546) 
2.8935

>  <r_sd_BIOSOLVEIT.MOLECULAR\_WEIGHT>  (546) 
399.51900000000001

>  <r_sd_BIOSOLVEIT.TPSA>  (546) 
67.170000000000002

>  <i_epik_Tot_Q>  (546) 
3

>  <i_epik_Tot_abs_Q>  (546) 
3

>  <i_f3d_flags>  (546) 
0

>  <i_i_glide_confnum>  (546) 
2

>  <i_i_glide_lignum>  (546) 
787

>  <i_i_glide_posenum>  (546) 
9

>  <i_i_glide_rotatable_bonds>  (546) 
8

>  <i_lp_mmshare_version>  (546) 
65135

>  <i_m_ct_format>  (546) 
2

>  <i_m_source_file_index>  (546) 
2124

>  <i_qp_#NandO>  (546) 
6

>  <i_qp_#acid>  (546) 
0

>  <i_qp_#amide>  (546) 
0

>  <i_qp_#amidine>  (546) 
0

>  <i_qp_#amine>  (546) 
1

>  <i_qp_#in34>  (546) 
0

>  <i_qp_#in56>  (546) 
22

>  <i_qp_#metab>  (546) 
6

>  <i_qp_#nonHatm>  (546) 
30

>  <i_qp_#noncon>  (546) 
0

>  <i_qp_#ringatoms>  (546) 
22

>  <i_qp_#rotor>  (546) 
8

>  <i_qp_#rtvFG>  (546) 
0

>  <i_qp_#stars>  (546) 
0

>  <i_qp_CNS>  (546) 
1

>  <i_qp_HumanOralAbsorption>  (546) 
3

>  <i_qp_RuleOfFive>  (546) 
0

>  <i_qp_RuleOfThree>  (546) 
0

>  <i_sd_BIOSOLVEIT.INFINISEE\_REAGENT1\_NAME>  (546) 
21930962

>  <i_sd_BIOSOLVEIT.INFINISEE\_REAGENT2\_NAME>  (546) 
22360182

>  <i_sd_BIOSOLVEIT.INFINISEE\_REAGENT3\_NAME>  (546) 
21940090

>  <i_sd_BIOSOLVEIT.INFINISEE\_RESULT\_RANK>  (546) 
98698

>  <i_sd_version>  (546) 
0

>  <b_lp_Chiralities_Consistent>  (546) 
1

>  <b_sd_chiral_flag>  (546) 
0

>  <canonical_id>  (546) 
ATP-HTVS-5494A1B9D9EC

>  <compound_code>  (546) 
67939

>  <title>  (546) 
m_282030aaa____21930962____22360182____21940090

>  <variant>  (546) 
67939-2

>  <source_file>  (546) 
运行/运行/ATP-VSW/ATP-VSW-DOCK_HTVS_1-003_lib/ATP-VSW-DOCK_HTVS_1-003_lib.mae

>  <canonical_smiles>  (546) 
C[NH+](C)Cc1cccc(CNc2nc(NCc3cc[nH+]cc3)[nH+]c3ccccc23)c1

>  <scaffold>  (546) 
c1ccc(CNc2nc(NCc3cc[nH+]cc3)[nH+]c3ccccc23)cc1

>  <molecular_formula>  (546) 
C24H29N6+3

$$$$
ATP-HTVS-54A1786C1F00
     RDKit          3D

 56 59  0  0  0  0  0  0  0  0999 V2000
  199.5524  186.1449  146.5899 Cl  0  0  0  0  0  0  0  0  0  0  0  0
  198.8163  185.4025  147.9665 C   0  0  0  0  0  0  0  0  0  0  0  0
  199.2644  185.7081  149.2687 C   0  0  0  0  0  0  0  0  0  0  0  0
  198.6639  185.0980  150.3881 C   0  0  0  0  0  0  0  0  0  0  0  0
  197.6081  184.1778  150.2151 C   0  0  0  0  0  0  0  0  0  0  0  0
  197.1550  183.8868  148.9091 C   0  0  0  0  0  0  0  0  0  0  0  0
  197.7578  184.4921  147.7899 C   0  0  0  0  0  0  0  0  0  0  0  0
  196.9576  183.5188  151.4344 C   0  0  1  0  0  0  0  0  0  0  0  0
  195.5473  183.4901  151.3306 O   0  0  0  0  0  0  0  0  0  0  0  0
  197.4697  182.0806  151.6439 C   0  0  0  0  0  0  0  0  0  0  0  0
  197.6590  181.3548  150.6680 O   0  0  0  0  0  0  0  0  0  0  0  0
  197.6261  181.6859  152.9236 N   0  0  0  0  0  0  0  0  0  0  0  0
  198.2415  180.5009  153.4230 C   0  0  0  0  0  0  0  0  0  0  0  0
  198.9635  179.6753  152.6299 N   0  0  0  0  0  0  0  0  0  0  0  0
  199.5643  178.5785  153.1351 C   0  0  0  0  0  0  0  0  0  0  0  0
  199.4840  178.2519  154.5111 C   0  0  0  0  0  0  0  0  0  0  0  0
  198.7374  179.0897  155.3582 C   0  0  0  0  0  0  0  0  0  0  0  0
  198.1186  180.2358  154.8144 C   0  0  0  0  0  0  0  0  0  0  0  0
  197.3519  181.0845  155.7149 C   0  0  0  0  0  0  0  0  0  0  0  0
  196.7312  181.7747  156.5069 C   0  0  0  0  0  0  0  0  0  0  0  0
  195.9944  182.5985  157.4671 C   0  0  1  0  0  0  0  0  0  0  0  0
  194.7612  181.8369  157.7282 N   0  0  2  0  0  0  0  0  0  0  0  0
  196.7734  182.9309  158.7590 C   0  0  1  0  0  0  0  0  0  0  0  0
  196.4362  184.3035  159.3216 C   0  0  0  0  0  0  0  0  0  0  0  0
  195.1904  184.5615  159.9338 C   0  0  0  0  0  0  0  0  0  0  0  0
  194.9087  185.8446  160.4522 C   0  0  0  0  0  0  0  0  0  0  0  0
  193.7150  186.0953  161.0340 F   0  0  0  0  0  0  0  0  0  0  0  0
  195.8677  186.8688  160.3652 C   0  0  0  0  0  0  0  0  0  0  0  0
  197.1086  186.6192  159.7517 C   0  0  0  0  0  0  0  0  0  0  0  0
  197.3918  185.3412  159.2322 C   0  0  0  0  0  0  0  0  0  0  0  0
  200.0866  177.0817  155.0146 C   0  0  0  0  0  0  0  0  0  0  0  0
  200.8028  176.2359  154.1458 C   0  0  0  0  0  0  0  0  0  0  0  0
  200.9083  176.5606  152.7798 C   0  0  0  0  0  0  0  0  0  0  0  0
  200.2950  177.7267  152.2846 C   0  0  0  0  0  0  0  0  0  0  0  0
  194.2775  181.7933  156.8225 H   0  0  0  0  0  0  0  0  0  0  0  0
  194.1644  182.3171  158.3728 H   0  0  0  0  0  0  0  0  0  0  0  0
  200.0687  186.4140  149.4105 H   0  0  0  0  0  0  0  0  0  0  0  0
  199.0182  185.3348  151.3791 H   0  0  0  0  0  0  0  0  0  0  0  0
  196.3556  183.1764  148.7634 H   0  0  0  0  0  0  0  0  0  0  0  0
  197.4062  184.2569  146.7960 H   0  0  0  0  0  0  0  0  0  0  0  0
  197.2067  184.1351  152.3007 H   0  0  0  0  0  0  0  0  0  0  0  0
  195.1662  183.4706  152.2137 H   0  0  0  0  0  0  0  0  0  0  0  0
  197.3054  182.3254  153.6353 H   0  0  0  0  0  0  0  0  0  0  0  0
  198.6392  178.8550  156.4124 H   0  0  0  0  0  0  0  0  0  0  0  0
  195.7382  183.5093  156.9281 H   0  0  0  0  0  0  0  0  0  0  0  0
  196.5916  182.1802  159.5283 H   0  0  0  0  0  0  0  0  0  0  0  0
  197.8502  182.8933  158.5785 H   0  0  0  0  0  0  0  0  0  0  0  0
  194.4460  183.7874  160.0150 H   0  0  0  0  0  0  0  0  0  0  0  0
  195.6536  187.8469  160.7691 H   0  0  0  0  0  0  0  0  0  0  0  0
  197.8485  187.4050  159.6877 H   0  0  0  0  0  0  0  0  0  0  0  0
  198.3549  185.1632  158.7708 H   0  0  0  0  0  0  0  0  0  0  0  0
  199.9931  176.8211  156.0602 H   0  0  0  0  0  0  0  0  0  0  0  0
  201.2712  175.3379  154.5236 H   0  0  0  0  0  0  0  0  0  0  0  0
  201.4573  175.9113  152.1102 H   0  0  0  0  0  0  0  0  0  0  0  0
  200.3679  177.9695  151.2356 H   0  0  0  0  0  0  0  0  0  0  0  0
  195.0080  180.8926  158.0431 H   0  0  0  0  0  0  0  0  0  0  0  0
  1  2  1  0
  2  3  1  0
  2  7  2  0
  3  4  2  0
  3 37  1  0
  4  5  1  0
  4 38  1  0
  5  6  2  0
  5  8  1  0
  6  7  1  0
  6 39  1  0
  7 40  1  0
  8  9  1  0
  8 10  1  0
  8 41  1  1
  9 42  1  0
 10 11  2  0
 10 12  1  0
 12 13  1  0
 12 43  1  0
 13 14  2  0
 13 18  1  0
 14 15  1  0
 15 16  1  0
 15 34  2  0
 16 17  1  0
 16 31  2  0
 17 18  2  0
 17 44  1  0
 18 19  1  0
 19 20  3  0
 20 21  1  0
 21 22  1  0
 21 23  1  0
 21 45  1  6
 22 35  1  6
 22 36  1  0
 22 56  1  0
 23 24  1  0
 23 46  1  1
 23 47  1  0
 24 25  1  0
 24 30  2  0
 25 26  2  0
 25 48  1  0
 26 27  1  0
 26 28  1  0
 28 29  2  0
 28 49  1  0
 29 30  1  0
 29 50  1  0
 30 51  1  0
 31 32  1  0
 31 52  1  0
 32 33  2  0
 32 53  1  0
 33 34  1  0
 33 54  1  0
 34 55  1  0
M  CHG  1  22   1
M  END
>  <s_epik_cmdline>  (547) 
J2VwaWtfcHl0aG9uJywgJy1waCcsICc3LjAwMDAwMCcsICctcGh0JywgJzIuMDAwMDAwJywgJy1tcycsICcxNicsICctdG4nLCAnOCcsICctbWEnLCAnMjAwJywgJy1pbWFlJywgJzxpbmZpbGUubWFlPicsICctb21hZScsICc8b3V0ZmlsZS5tYWU+Jw==

>  <s_epik_input>  (547) 
Q2xjMVtjSF1bY0hdYyhbY0hdW2NIXTEpW0NAQEhdKFtPSF0pQyg9TylbTkhdYyhuMiljKFtjSF1jKGMyMylbY0hdW2NIXVtjSF1bY0hdMylDI0NbQ0BASF0oW05IMl0pW0NIMl1jNFtjSF1jKEYpW2NIXVtjSF1bY0hdNA==

>  <s_i_glide_gridfile>  (547) 
ATP-Grid

>  <s_lp_Force_Field>  (547) 
OPLS_2005

>  <s_lp_Variant>  (547) 
rxn503b____EMOL491815____EMOL44466703____EMOL313110234-7

>  <s_lp_label>  (547) 
2609_sdstereoexpander_3_neutralizer_1_epik_2_stereoizer_1

>  <s_m_source_file>  (547) 
ATP-VSW-LIGPREP-001-in.maegz

>  <s_sd_BIOSOLVEIT.INFINISEE\_QUERY\_NAME>  (547) 
Ref-Lig

>  <s_sd_BIOSOLVEIT.INFINISEE\_QUERY\_SMILES>  (547) 
S(c1nc2c(cc1C[NH2+]Cc3ccc(cc3)C[NH+](C)C)cccc2)Cc4ccccc4

>  <s_sd_BIOSOLVEIT.INFINISEE\_REACTION\_NAME>  (547) 
rxn503b

>  <s_sd_BIOSOLVEIT.INFINISEE\_REAGENT1\_NAME>  (547) 
EMOL491815

>  <s_sd_BIOSOLVEIT.INFINISEE\_REAGENT1\_SMILES>  (547) 
Clc1ccc(cc1)C(O)C(=O)O

>  <s_sd_BIOSOLVEIT.INFINISEE\_REAGENT2\_NAME>  (547) 
EMOL44466703

>  <s_sd_BIOSOLVEIT.INFINISEE\_REAGENT2\_SMILES>  (547) 
Brc1c(nc2c(c1)cccc2)N

>  <s_sd_BIOSOLVEIT.INFINISEE\_REAGENT3\_NAME>  (547) 
EMOL313110234

>  <s_sd_BIOSOLVEIT.INFINISEE\_REAGENT3\_SMILES>  (547) 
Fc1cc(ccc1)CC(N)C#C

>  <s_sd_BIOSOLVEIT.INFINISEE\_SPACE>  (547) 
eXplore_7tr_2022-12

>  <s_vsw_compound_code>  (547) 
83457

>  <s_vsw_variant>  (547) 
83457-7

>  <r_epik_Charging_Adjusted_Penalty>  (547) 
1.22591159016581

>  <r_epik_Ionization_Penalty>  (547) 
0.61370000000000002

>  <r_epik_Ionization_Penalty_Charging>  (547) 
0.61299999999999999

>  <r_epik_Ionization_Penalty_Neutral>  (547) 
0.00080000000000000004

>  <r_epik_State_Penalty>  (547) 
0.61299999999999999

>  <r_i_docking_score>  (547) 
-6.2689748187417296

>  <r_i_glide_ecoul>  (547) 
-16.7718410491943

>  <r_i_glide_eff_state_penalty>  (547) 
0.61299999999999999

>  <r_i_glide_einternal>  (547) 
9.3843774795532209

>  <r_i_glide_emodel>  (547) 
-82.464376881500499

>  <r_i_glide_energy>  (547) 
-53.4098796844482

>  <r_i_glide_erotb>  (547) 
0.37684678745037198

>  <r_i_glide_esite>  (547) 
-0.107165149729572

>  <r_i_glide_evdw>  (547) 
-36.638038635253899

>  <r_i_glide_gscore>  (547) 
-6.88197481874173

>  <r_i_glide_hbond>  (547) 
-0.36514872516555802

>  <r_i_glide_ligand_efficiency>  (547) 
-0.184381612315933

>  <r_i_glide_ligand_efficiency_ln>  (547) 
-1.3849923762476599

>  <r_i_glide_ligand_efficiency_sa>  (547) 
-0.59732484649513995

>  <r_i_glide_lipo>  (547) 
-2.2086180396748998

>  <r_i_glide_metal>  (547) 
-0

>  <r_i_glide_rewards>  (547) 
-0.23021160248022601

>  <r_lp_Energy>  (547) 
24.827504000000001

>  <r_qp_ACxDN^.5/SA>  (547) 
0.016679599999999999

>  <r_qp_CIQPlogS>  (547) 
-6.3499999999999996

>  <r_qp_EA(eV)>  (547) 
1.048

>  <r_qp_FISA>  (547) 
136.19499999999999

>  <r_qp_FOSA>  (547) 
45.216000000000001

>  <r_qp_IP(eV)>  (547) 
8.7509999999999994

>  <r_qp_Jm>  (547) 
0.00180927780837379

>  <r_qp_PISA>  (547) 
468.76100000000002

>  <r_qp_PSA>  (547) 
90.802000000000007

>  <r_qp_PercentHumanOralAbsorption>  (547) 
89.986999999999995

>  <r_qp_QPPCaco>  (547) 
126.258

>  <r_qp_QPPMDCK>  (547) 
189.50700000000001

>  <r_qp_QPlogBB>  (547) 
-0.72999999999999998

>  <r_qp_QPlogHERG>  (547) 
-7.5410000000000004

>  <r_qp_QPlogKhsa>  (547) 
0.60699999999999998

>  <r_qp_QPlogKp>  (547) 
-3.577

>  <r_qp_QPlogPC16>  (547) 
16.440999999999999

>  <r_qp_QPlogPo/w>  (547) 
4.3440000000000003

>  <r_qp_QPlogPoct>  (547) 
26.478000000000002

>  <r_qp_QPlogPw>  (547) 
15.635999999999999

>  <r_qp_QPlogS>  (547) 
-4.8410000000000002

>  <r_qp_QPpolrz>  (547) 
48.32

>  <r_qp_SASA>  (547) 
743.423

>  <r_qp_SAamideO>  (547) 
0

>  <r_qp_SAfluorine>  (547) 
41.182000000000002

>  <r_qp_WPSA>  (547) 
93.251000000000005

>  <r_qp_accptHB>  (547) 
6.2000000000000002

>  <r_qp_dip^2/V>  (547) 
0.036093699999999999

>  <r_qp_dipole>  (547) 
7.093

>  <r_qp_donorHB>  (547) 
4

>  <r_qp_glob>  (547) 
0.81166970000000005

>  <r_qp_mol_MW>  (547) 
473.93299999999999

>  <r_qp_volume>  (547) 
1393.721

>  <r_sd_BIOSOLVEIT.INFINISEE\_FTREES\_SIMILARITY>  (547) 
0.91100000000000003

>  <r_sd_BIOSOLVEIT.LOGP>  (547) 
3.9041000000000001

>  <r_sd_BIOSOLVEIT.MOLECULAR\_WEIGHT>  (547) 
474.94099999999997

>  <r_sd_BIOSOLVEIT.TPSA>  (547) 
89.859999999999999

>  <i_epik_Tot_Q>  (547) 
1

>  <i_epik_Tot_abs_Q>  (547) 
1

>  <i_f3d_flags>  (547) 
0

>  <i_i_glide_confnum>  (547) 
5

>  <i_i_glide_lignum>  (547) 
1094

>  <i_i_glide_posenum>  (547) 
8

>  <i_i_glide_rotatable_bonds>  (547) 
9

>  <i_lp_mmshare_version>  (547) 
65135

>  <i_m_ct_format>  (547) 
2

>  <i_m_source_file_index>  (547) 
2609

>  <i_qp_#NandO>  (547) 
5

>  <i_qp_#acid>  (547) 
0

>  <i_qp_#amide>  (547) 
0

>  <i_qp_#amidine>  (547) 
0

>  <i_qp_#amine>  (547) 
1

>  <i_qp_#in34>  (547) 
0

>  <i_qp_#in56>  (547) 
22

>  <i_qp_#metab>  (547) 
5

>  <i_qp_#nonHatm>  (547) 
34

>  <i_qp_#noncon>  (547) 
0

>  <i_qp_#ringatoms>  (547) 
22

>  <i_qp_#rotor>  (547) 
9

>  <i_qp_#rtvFG>  (547) 
0

>  <i_qp_#stars>  (547) 
1

>  <i_qp_CNS>  (547) 
-1

>  <i_qp_HumanOralAbsorption>  (547) 
3

>  <i_qp_RuleOfFive>  (547) 
0

>  <i_qp_RuleOfThree>  (547) 
0

>  <i_sd_BIOSOLVEIT.INFINISEE\_RESULT\_RANK>  (547) 
42288

>  <i_sd_version>  (547) 
0

>  <b_lp_Chiralities_Consistent>  (547) 
1

>  <b_sd_chiral_flag>  (547) 
0

>  <canonical_id>  (547) 
ATP-HTVS-54A1786C1F00

>  <compound_code>  (547) 
83457

>  <title>  (547) 
rxn503b____EMOL491815____EMOL44466703____EMOL313110234

>  <variant>  (547) 
83457-7

>  <source_file>  (547) 
运行/运行/ATP-VSW/ATP-VSW-DOCK_HTVS_1-001_lib/ATP-VSW-DOCK_HTVS_1-001_lib

>  <canonical_smiles>  (547) 
[NH3+][C@H](C#Cc1cc2ccccc2nc1NC(=O)[C@H](O)c1ccc(Cl)cc1)Cc1cccc(F)c1

>  <scaffold>  (547) 
O=C(Cc1ccccc1)Nc1nc2ccccc2cc1C#CCCc1ccccc1

>  <molecular_formula>  (547) 
C27H22ClFN3O2+

$$$$
ATP-HTVS-54E64C0F11AA
     RDKit          3D

 56 58  0  0  0  0  0  0  0  0999 V2000
  196.8284  181.3792  155.7016 S   0  0  0  0  0  0  0  0  0  0  0  0
  198.0447  180.1379  155.7683 C   0  0  0  0  0  0  0  0  0  0  0  0
  198.6838  179.9933  154.5635 C   0  0  0  0  0  0  0  0  0  0  0  0
  199.7045  179.0540  154.2984 N   0  0  0  0  0  0  0  0  0  0  0  0
  200.3458  178.2796  155.3400 C   0  0  1  0  0  0  0  0  0  0  0  0
  200.7280  176.8687  154.9204 C   0  0  0  0  0  0  0  0  0  0  0  0
  200.3813  176.3367  153.6612 C   0  0  0  0  0  0  0  0  0  0  0  0
  200.7697  175.0107  153.3394 C   0  0  0  0  0  0  0  0  0  0  0  0
  201.4683  174.2266  154.2709 C   0  0  0  0  0  0  0  0  0  0  0  0
  201.7457  174.7464  155.5598 C   0  0  0  0  0  0  0  0  0  0  0  0
  201.4276  176.0711  155.8544 C   0  0  0  0  0  0  0  0  0  0  0  0
  201.9200  172.8102  153.9179 C   0  0  1  0  0  0  0  0  0  0  0  0
  203.4021  172.6567  153.7953 N   0  0  2  0  0  0  0  0  0  0  0  0
  204.1926  173.0957  154.9703 C   0  0  2  0  0  0  0  0  0  0  0  0
  203.9462  173.2269  152.5423 C   0  0  2  0  0  0  0  0  0  0  0  0
  198.1602  180.8493  153.5333 C   0  0  0  0  0  0  0  0  0  0  0  0
  198.6000  180.8612  152.0852 C   0  0  0  0  0  0  0  0  0  0  0  0
  199.8103  180.8376  151.8101 O   0  0  0  0  0  0  0  0  0  0  0  0
  197.6361  180.8283  151.1317 N   0  0  0  0  0  0  0  0  0  0  0  0
  197.9994  180.8741  149.6961 C   0  0  1  0  0  0  0  0  0  0  0  0
  198.0075  182.2762  149.0846 C   0  0  0  0  0  0  0  0  0  0  0  0
  198.8754  182.5584  147.9974 C   0  0  0  0  0  0  0  0  0  0  0  0
  198.8911  183.8511  147.4201 C   0  0  0  0  0  0  0  0  0  0  0  0
  198.0365  184.8558  147.9231 C   0  0  0  0  0  0  0  0  0  0  0  0
  197.1650  184.5698  148.9900 C   0  0  0  0  0  0  0  0  0  0  0  0
  197.1409  183.2892  149.5708 C   0  0  0  0  0  0  0  0  0  0  0  0
  196.1898  180.7476  151.4086 C   0  0  2  0  0  0  0  0  0  0  0  0
  197.1933  181.7052  154.0364 C   0  0  0  0  0  0  0  0  0  0  0  0
  198.1660  179.5954  156.7014 H   0  0  0  0  0  0  0  0  0  0  0  0
  200.1783  179.1135  153.4096 H   0  0  0  0  0  0  0  0  0  0  0  0
  201.2429  178.8117  155.6654 H   0  0  0  0  0  0  0  0  0  0  0  0
  199.7096  178.1768  156.2189 H   0  0  0  0  0  0  0  0  0  0  0  0
  199.8061  176.9005  152.9473 H   0  0  0  0  0  0  0  0  0  0  0  0
  200.5020  174.6262  152.3624 H   0  0  0  0  0  0  0  0  0  0  0  0
  202.2309  174.1364  156.3135 H   0  0  0  0  0  0  0  0  0  0  0  0
  201.7042  176.4905  156.8173 H   0  0  0  0  0  0  0  0  0  0  0  0
  201.5294  172.0953  154.6514 H   0  0  0  0  0  0  0  0  0  0  0  0
  201.4584  172.5132  152.9691 H   0  0  0  0  0  0  0  0  0  0  0  0
  204.1021  174.1780  155.1266 H   0  0  0  0  0  0  0  0  0  0  0  0
  205.2351  172.7778  154.8668 H   0  0  0  0  0  0  0  0  0  0  0  0
  203.7972  172.6126  155.8560 H   0  0  0  0  0  0  0  0  0  0  0  0
  203.8019  174.3017  152.5130 H   0  0  0  0  0  0  0  0  0  0  0  0
  203.4702  172.7910  151.6673 H   0  0  0  0  0  0  0  0  0  0  0  0
  205.0109  173.0283  152.4742 H   0  0  0  0  0  0  0  0  0  0  0  0
  198.9634  180.3814  149.5116 H   0  0  0  0  0  0  0  0  0  0  0  0
  197.3003  180.2597  149.1356 H   0  0  0  0  0  0  0  0  0  0  0  0
  199.5277  181.7927  147.5880 H   0  0  0  0  0  0  0  0  0  0  0  0
  199.5561  184.0731  146.5837 H   0  0  0  0  0  0  0  0  0  0  0  0
  198.0492  185.8434  147.4803 H   0  0  0  0  0  0  0  0  0  0  0  0
  196.5069  185.3279  149.3672 H   0  0  0  0  0  0  0  0  0  0  0  0
  196.4437  183.1150  150.3764 H   0  0  0  0  0  0  0  0  0  0  0  0
  195.9630  180.0795  152.2406 H   0  0  0  0  0  0  0  0  0  0  0  0
  195.6222  180.4088  150.5490 H   0  0  0  0  0  0  0  0  0  0  0  0
  195.8223  181.7452  151.6442 H   0  0  0  0  0  0  0  0  0  0  0  0
  196.6538  182.4947  153.5405 H   0  0  0  0  0  0  0  0  0  0  0  0
  203.5316  171.6299  153.7651 H   0  0  0  0  0  0  0  0  0  0  0  0
  1  2  1  0
  1 28  1  0
  2  3  2  0
  2 29  1  0
  3  4  1  0
  3 16  1  0
  4  5  1  0
  4 30  1  0
  5  6  1  0
  5 31  1  1
  5 32  1  0
  6  7  1  0
  6 11  2  0
  7  8  2  0
  7 33  1  0
  8  9  1  0
  8 34  1  0
  9 10  2  0
  9 12  1  0
 10 11  1  0
 10 35  1  0
 11 36  1  0
 12 13  1  0
 12 37  1  1
 12 38  1  0
 13 14  1  0
 13 15  1  0
 13 56  1  6
 14 39  1  1
 14 40  1  0
 14 41  1  0
 15 42  1  1
 15 43  1  0
 15 44  1  0
 16 17  1  0
 16 28  2  0
 17 18  2  0
 17 19  1  0
 19 20  1  0
 19 27  1  0
 20 21  1  0
 20 45  1  1
 20 46  1  0
 21 22  2  0
 21 26  1  0
 22 23  1  0
 22 47  1  0
 23 24  2  0
 23 48  1  0
 24 25  1  0
 24 49  1  0
 25 26  2  0
 25 50  1  0
 26 51  1  0
 27 52  1  1
 27 53  1  0
 27 54  1  0
 28 55  1  0
M  CHG  1  13   1
M  END
>  <s_epik_cmdline>  (548) 
J2VwaWtfcHl0aG9uJywgJy1waCcsICc3LjAwMDAwMCcsICctcGh0JywgJzIuMDAwMDAwJywgJy1tcycsICcxNicsICctdG4nLCAnOCcsICctbWEnLCAnMjAwJywgJy1pbWFlJywgJzxpbmZpbGUubWFlPicsICctb21hZScsICc8b3V0ZmlsZS5tYWU+Jw==

>  <s_epik_input>  (548) 
W2NIXTFbY0hdW2NIXVtjSF1bY0hdYzFbQ0gyXU4oW0NIM10pQyg9TyljMltjSF1zW2NIXWMyW05IXVtDSDJdYzNbY0hdW2NIXWMoW2NIXVtjSF0zKVtDSDJdTihbQ0gzXSlbQ0gzXQ==

>  <s_i_glide_gridfile>  (548) 
ATP-Grid

>  <s_lp_Force_Field>  (548) 
OPLS_2005

>  <s_lp_Variant>  (548) 
rxn512b____EMOL480996____EMOL10439745____EMOL50155899-1

>  <s_lp_label>  (548) 
2231_sdstereoexpander_1_neutralizer_1_epik_1_stereoizer_1

>  <s_m_source_file>  (548) 
ATP-VSW-LIGPREP-001-in.maegz

>  <s_sd_BIOSOLVEIT.INFINISEE\_QUERY\_NAME>  (548) 
Ref-Lig

>  <s_sd_BIOSOLVEIT.INFINISEE\_QUERY\_SMILES>  (548) 
S(c1nc2c(cc1C[NH2+]Cc3ccc(cc3)C[NH+](C)C)cccc2)Cc4ccccc4

>  <s_sd_BIOSOLVEIT.INFINISEE\_REACTION\_NAME>  (548) 
rxn512b

>  <s_sd_BIOSOLVEIT.INFINISEE\_REAGENT1\_NAME>  (548) 
EMOL480996

>  <s_sd_BIOSOLVEIT.INFINISEE\_REAGENT1\_SMILES>  (548) 
N(Cc1ccccc1)C

>  <s_sd_BIOSOLVEIT.INFINISEE\_REAGENT2\_NAME>  (548) 
EMOL10439745

>  <s_sd_BIOSOLVEIT.INFINISEE\_REAGENT2\_SMILES>  (548) 
BrC=1C(C(=O)O)=CSC1

>  <s_sd_BIOSOLVEIT.INFINISEE\_REAGENT3\_NAME>  (548) 
EMOL50155899

>  <s_sd_BIOSOLVEIT.INFINISEE\_REAGENT3\_SMILES>  (548) 
N(Cc1ccc(cc1)CN)(C)C

>  <s_sd_BIOSOLVEIT.INFINISEE\_SPACE>  (548) 
eXplore_7tr_2022-12

>  <s_vsw_compound_code>  (548) 
71361

>  <s_vsw_variant>  (548) 
71361-1

>  <r_epik_Charging_Adjusted_Penalty>  (548) 
0.080189274810459593

>  <r_epik_Ionization_Penalty>  (548) 
0.0402

>  <r_epik_Ionization_Penalty_Charging>  (548) 
0.040099999999999997

>  <r_epik_Ionization_Penalty_Neutral>  (548) 
0.0001

>  <r_epik_State_Penalty>  (548) 
0.040099999999999997

>  <r_i_docking_score>  (548) 
-5.0756591339970498

>  <r_i_glide_ecoul>  (548) 
-11.564526557922401

>  <r_i_glide_eff_state_penalty>  (548) 
0.040099999999999997

>  <r_i_glide_einternal>  (548) 
4.6458034515380904

>  <r_i_glide_emodel>  (548) 
-53.8120403650111

>  <r_i_glide_energy>  (548) 
-39.675145149231

>  <r_i_glide_erotb>  (548) 
0.87890940793692796

>  <r_i_glide_esite>  (548) 
-0.10812087214282801

>  <r_i_glide_evdw>  (548) 
-28.110618591308601

>  <r_i_glide_gscore>  (548) 
-5.1157591339970496

>  <r_i_glide_hbond>  (548) 
-0.176107643026441

>  <r_i_glide_ligand_efficiency>  (548) 
-0.181273540499895

>  <r_i_glide_ligand_efficiency_ln>  (548) 
-1.1716111559543601

>  <r_i_glide_ligand_efficiency_sa>  (548) 
-0.550453233363429

>  <r_i_glide_lipo>  (548) 
-1.62627956805638

>  <r_i_glide_metal>  (548) 
-0

>  <r_i_glide_rewards>  (548) 
-0.94395054545454404

>  <r_lp_Energy>  (548) 
25.341719999999999

>  <r_lp_tautomer_probability>  (548) 
0.99999274205267796

>  <r_qp_ACxDN^.5/SA>  (548) 
0

>  <r_qp_CIQPlogS>  (548) 
-4.0339999999999998

>  <r_qp_EA(eV)>  (548) 
0.224

>  <r_qp_FISA>  (548) 
34.984999999999999

>  <r_qp_FOSA>  (548) 
311.15499999999997

>  <r_qp_IP(eV)>  (548) 
8.1170000000000009

>  <r_qp_Jm>  (548) 
0.0096863419121801103

>  <r_qp_PISA>  (548) 
297.577

>  <r_qp_PSA>  (548) 
43.335999999999999

>  <r_qp_PercentHumanOralAbsorption>  (548) 
100

>  <r_qp_QPPCaco>  (548) 
287.036

>  <r_qp_QPPMDCK>  (548) 
281.77199999999999

>  <r_qp_QPlogBB>  (548) 
0.65400000000000003

>  <r_qp_QPlogHERG>  (548) 
-7.1399999999999997

>  <r_qp_QPlogKhsa>  (548) 
0.68799999999999994

>  <r_qp_QPlogKp>  (548) 
-4.4729999999999999

>  <r_qp_QPlogPC16>  (548) 
12.867000000000001

>  <r_qp_QPlogPo/w>  (548) 
4.5099999999999998

>  <r_qp_QPlogPoct>  (548) 
16.946000000000002

>  <r_qp_QPlogPw>  (548) 
6.8179999999999996

>  <r_qp_QPlogS>  (548) 
-3.1360000000000001

>  <r_qp_QPpolrz>  (548) 
43.207999999999998

>  <r_qp_SASA>  (548) 
690.029

>  <r_qp_SAamideO>  (548) 
0

>  <r_qp_SAfluorine>  (548) 
0

>  <r_qp_WPSA>  (548) 
46.311

>  <r_qp_accptHB>  (548) 
5

>  <r_qp_dip^2/V>  (548) 
0.011194000000000001

>  <r_qp_dipole>  (548) 
3.8010000000000002

>  <r_qp_donorHB>  (548) 
0

>  <r_qp_glob>  (548) 
0.83087180000000005

>  <r_qp_mol_MW>  (548) 
393.54599999999999

>  <r_qp_volume>  (548) 
1290.7860000000001

>  <r_sd_BIOSOLVEIT.INFINISEE\_FTREES\_SIMILARITY>  (548) 
0.92800000000000005

>  <r_sd_BIOSOLVEIT.LOGP>  (548) 
3.2768999999999999

>  <r_sd_BIOSOLVEIT.MOLECULAR\_WEIGHT>  (548) 
394.55900000000003

>  <r_sd_BIOSOLVEIT.TPSA>  (548) 
36.780000000000001

>  <i_epik_Tot_Q>  (548) 
1

>  <i_epik_Tot_abs_Q>  (548) 
1

>  <i_f3d_flags>  (548) 
0

>  <i_i_glide_confnum>  (548) 
3

>  <i_i_glide_lignum>  (548) 
758

>  <i_i_glide_posenum>  (548) 
12

>  <i_i_glide_rotatable_bonds>  (548) 
9

>  <i_lp_mmshare_version>  (548) 
65135

>  <i_m_ct_format>  (548) 
2

>  <i_m_source_file_index>  (548) 
2231

>  <i_qp_#NandO>  (548) 
4

>  <i_qp_#acid>  (548) 
0

>  <i_qp_#amide>  (548) 
0

>  <i_qp_#amidine>  (548) 
0

>  <i_qp_#amine>  (548) 
2

>  <i_qp_#in34>  (548) 
0

>  <i_qp_#in56>  (548) 
17

>  <i_qp_#metab>  (548) 
6

>  <i_qp_#nonHatm>  (548) 
28

>  <i_qp_#noncon>  (548) 
0

>  <i_qp_#ringatoms>  (548) 
17

>  <i_qp_#rotor>  (548) 
8

>  <i_qp_#rtvFG>  (548) 
0

>  <i_qp_#stars>  (548) 
0

>  <i_qp_CNS>  (548) 
2

>  <i_qp_HumanOralAbsorption>  (548) 
3

>  <i_qp_RuleOfFive>  (548) 
0

>  <i_qp_RuleOfThree>  (548) 
0

>  <i_sd_BIOSOLVEIT.INFINISEE\_RESULT\_RANK>  (548) 
6079

>  <i_sd_version>  (548) 
0

>  <b_lp_Chiralities_Consistent>  (548) 
1

>  <b_sd_chiral_flag>  (548) 
0

>  <canonical_id>  (548) 
ATP-HTVS-54E64C0F11AA

>  <compound_code>  (548) 
71361

>  <title>  (548) 
rxn512b____EMOL480996____EMOL10439745____EMOL50155899

>  <variant>  (548) 
71361-1

>  <source_file>  (548) 
运行/运行/ATP-VSW/ATP-VSW-DOCK_HTVS_1-001_lib/ATP-VSW-DOCK_HTVS_1-001_lib

>  <canonical_smiles>  (548) 
CN(Cc1ccccc1)C(=O)c1cscc1NCc1ccc(C[NH+](C)C)cc1

>  <scaffold>  (548) 
O=C(NCc1ccccc1)c1cscc1NCc1ccccc1

>  <molecular_formula>  (548) 
C23H28N3OS+

$$$$
ATP-HTVS-54ED83DE83DA
     RDKit          3D

 63 66  0  0  0  0  0  0  0  0999 V2000
  199.0275  183.1929  155.8622 O   0  0  0  0  0  0  0  0  0  0  0  0
  197.8258  182.9231  155.8691 C   0  0  0  0  0  0  0  0  0  0  0  0
  197.1924  182.3653  154.8184 N   0  0  0  0  0  0  0  0  0  0  0  0
  197.8548  181.7807  153.6985 C   0  0  0  0  0  0  0  0  0  0  0  0
  198.7302  180.6660  153.8603 C   0  0  0  0  0  0  0  0  0  0  0  0
  198.9664  180.0709  155.1181 N   0  0  0  0  0  0  0  0  0  0  0  0
  200.3541  179.7894  155.5237 C   0  0  2  0  0  0  0  0  0  0  0  0
  200.9002  178.4330  155.0767 C   0  0  0  0  0  0  0  0  0  0  0  0
  201.8208  178.3749  154.0067 C   0  0  0  0  0  0  0  0  0  0  0  0
  202.2864  177.1367  153.5292 C   0  0  0  0  0  0  0  0  0  0  0  0
  201.8896  175.9423  154.1621 C   0  0  0  0  0  0  0  0  0  0  0  0
  201.0091  175.9914  155.2595 C   0  0  0  0  0  0  0  0  0  0  0  0
  200.5116  177.2288  155.7114 C   0  0  0  0  0  0  0  0  0  0  0  0
  200.5821  180.0042  157.0339 C   0  0  2  0  0  0  0  0  0  0  0  0
  197.9032  179.1698  155.5248 C   0  0  2  0  0  0  0  0  0  0  0  0
  199.3168  180.1263  152.6972 C   0  0  0  0  0  0  0  0  0  0  0  0
  199.1302  180.6092  151.4594 N   0  0  0  0  0  0  0  0  0  0  0  0
  198.3003  181.6469  151.2906 C   0  0  0  0  0  0  0  0  0  0  0  0
  197.6153  182.2637  152.3779 C   0  0  0  0  0  0  0  0  0  0  0  0
  196.7333  183.3356  152.1158 C   0  0  0  0  0  0  0  0  0  0  0  0
  196.5244  183.7800  150.7961 C   0  0  0  0  0  0  0  0  0  0  0  0
  197.2099  183.1792  149.7259 C   0  0  0  0  0  0  0  0  0  0  0  0
  198.0919  182.1197  149.9824 C   0  0  0  0  0  0  0  0  0  0  0  0
  196.9568  183.2244  157.0629 C   0  0  0  0  0  0  0  0  0  0  0  0
  197.0713  184.4242  157.8307 C   0  0  0  0  0  0  0  0  0  0  0  0
  196.2346  184.6044  158.9557 C   0  0  0  0  0  0  0  0  0  0  0  0
  195.2857  183.6332  159.3258 C   0  0  0  0  0  0  0  0  0  0  0  0
  195.1843  182.4487  158.5815 C   0  0  0  0  0  0  0  0  0  0  0  0
  196.0206  182.2460  157.4740 C   0  0  0  0  0  0  0  0  0  0  0  0
  198.0268  185.5657  157.4782 C   0  0  1  0  0  0  0  0  0  0  0  0
  197.4532  186.5477  156.5551 N   0  0  0  0  0  0  0  0  0  0  0  0
  196.3601  187.2939  157.1714 C   0  0  2  0  0  0  0  0  0  0  0  0
  198.4892  187.4911  156.1636 C   0  0  2  0  0  0  0  0  0  0  0  0
  196.1832  182.2903  154.8734 H   0  0  0  0  0  0  0  0  0  0  0  0
  200.9705  180.5493  155.0412 H   0  0  0  0  0  0  0  0  0  0  0  0
  202.1320  179.2831  153.5134 H   0  0  0  0  0  0  0  0  0  0  0  0
  202.9431  177.1073  152.6712 H   0  0  0  0  0  0  0  0  0  0  0  0
  202.2526  174.9925  153.7967 H   0  0  0  0  0  0  0  0  0  0  0  0
  200.7075  175.0746  155.7456 H   0  0  0  0  0  0  0  0  0  0  0  0
  199.8122  177.2466  156.5379 H   0  0  0  0  0  0  0  0  0  0  0  0
  201.6429  179.8978  157.2726 H   0  0  0  0  0  0  0  0  0  0  0  0
  200.0391  179.2871  157.6467 H   0  0  0  0  0  0  0  0  0  0  0  0
  200.2760  181.0046  157.3374 H   0  0  0  0  0  0  0  0  0  0  0  0
  196.9274  179.6506  155.5286 H   0  0  0  0  0  0  0  0  0  0  0  0
  198.0916  178.8081  156.5206 H   0  0  0  0  0  0  0  0  0  0  0  0
  197.8537  178.3192  154.8464 H   0  0  0  0  0  0  0  0  0  0  0  0
  199.9097  179.2309  152.7144 H   0  0  0  0  0  0  0  0  0  0  0  0
  196.1993  183.8152  152.9288 H   0  0  0  0  0  0  0  0  0  0  0  0
  195.8428  184.5907  150.5998 H   0  0  0  0  0  0  0  0  0  0  0  0
  197.0618  183.5211  148.7153 H   0  0  0  0  0  0  0  0  0  0  0  0
  198.6258  181.6491  149.1703 H   0  0  0  0  0  0  0  0  0  0  0  0
  196.2966  185.5082  159.5395 H   0  0  0  0  0  0  0  0  0  0  0  0
  194.6263  183.7998  160.1604 H   0  0  0  0  0  0  0  0  0  0  0  0
  194.4709  181.6874  158.8483 H   0  0  0  0  0  0  0  0  0  0  0  0
  195.9332  181.3122  156.9353 H   0  0  0  0  0  0  0  0  0  0  0  0
  198.3192  186.0580  158.4090 H   0  0  0  0  0  0  0  0  0  0  0  0
  198.9633  185.1893  157.0674 H   0  0  0  0  0  0  0  0  0  0  0  0
  195.9559  188.0213  156.4719 H   0  0  0  0  0  0  0  0  0  0  0  0
  196.6898  187.8197  158.0698 H   0  0  0  0  0  0  0  0  0  0  0  0
  195.5341  186.6412  157.4467 H   0  0  0  0  0  0  0  0  0  0  0  0
  198.0907  188.2315  155.4687 H   0  0  0  0  0  0  0  0  0  0  0  0
  199.3075  186.9734  155.6608 H   0  0  0  0  0  0  0  0  0  0  0  0
  198.8966  188.0159  157.0298 H   0  0  0  0  0  0  0  0  0  0  0  0
  1  2  2  0
  2  3  1  0
  2 24  1  0
  3  4  1  0
  3 34  1  0
  4  5  2  0
  4 19  1  0
  5  6  1  0
  5 16  1  0
  6  7  1  0
  6 15  1  0
  7  8  1  0
  7 14  1  0
  7 35  1  6
  8  9  2  0
  8 13  1  0
  9 10  1  0
  9 36  1  0
 10 11  2  0
 10 37  1  0
 11 12  1  0
 11 38  1  0
 12 13  2  0
 12 39  1  0
 13 40  1  0
 14 41  1  6
 14 42  1  0
 14 43  1  0
 15 44  1  1
 15 45  1  0
 15 46  1  0
 16 17  2  0
 16 47  1  0
 17 18  1  0
 18 19  1  0
 18 23  2  0
 19 20  2  0
 20 21  1  0
 20 48  1  0
 21 22  2  0
 21 49  1  0
 22 23  1  0
 22 50  1  0
 23 51  1  0
 24 25  1  0
 24 29  2  0
 25 26  2  0
 25 30  1  0
 26 27  1  0
 26 52  1  0
 27 28  2  0
 27 53  1  0
 28 29  1  0
 28 54  1  0
 29 55  1  0
 30 31  1  0
 30 56  1  1
 30 57  1  0
 31 32  1  0
 31 33  1  0
 32 58  1  6
 32 59  1  0
 32 60  1  0
 33 61  1  6
 33 62  1  0
 33 63  1  0
M  END
>  <s_epik_cmdline>  (549) 
J2VwaWtfcHl0aG9uJywgJy1waCcsICc3LjAwMDAwMCcsICctcGh0JywgJzIuMDAwMDAwJywgJy1tcycsICcxNicsICctdG4nLCAnOCcsICctbWEnLCAnMjAwJywgJy1pbWFlJywgJzxpbmZpbGUubWFlPicsICctb21hZScsICc8b3V0ZmlsZS5tYWU+Jw==

>  <s_epik_input>  (549) 
W2NIXTFbY0hdW2NIXVtjSF1jKFtDSDJdTihbQ0gzXSlbQ0gzXSljMUMoPU8pW05IXWMoYyhjMjMpW2NIXVtjSF1bY0hdW2NIXTMpYyhbY0hdbjIpTihbQ0gzXSlbQ0BASF0oW0NIM10pYzRbY0hdW2NIXVtjSF1bY0hdW2NIXTQ=

>  <s_i_glide_gridfile>  (549) 
ATP-Grid

>  <s_lp_Force_Field>  (549) 
OPLS_2005

>  <s_lp_Variant>  (549) 
rxn502b____EMOL5415347____EMOL13728749____EMOL17149431-4

>  <s_lp_label>  (549) 
2698_sdstereoexpander_2_neutralizer_1_epik_2_stereoizer_1

>  <s_m_source_file>  (549) 
ATP-VSW-LIGPREP-002-in.maegz

>  <s_sd_BIOSOLVEIT.INFINISEE\_QUERY\_NAME>  (549) 
Ref-Lig

>  <s_sd_BIOSOLVEIT.INFINISEE\_QUERY\_SMILES>  (549) 
S(c1nc2c(cc1C[NH2+]Cc3ccc(cc3)C[NH+](C)C)cccc2)Cc4ccccc4

>  <s_sd_BIOSOLVEIT.INFINISEE\_REACTION\_NAME>  (549) 
rxn502b

>  <s_sd_BIOSOLVEIT.INFINISEE\_REAGENT1\_NAME>  (549) 
EMOL5415347

>  <s_sd_BIOSOLVEIT.INFINISEE\_REAGENT1\_SMILES>  (549) 
O=C(O)c1c(cccc1)CN(C)C

>  <s_sd_BIOSOLVEIT.INFINISEE\_REAGENT2\_NAME>  (549) 
EMOL13728749

>  <s_sd_BIOSOLVEIT.INFINISEE\_REAGENT2\_SMILES>  (549) 
Brc1c(N)c2c(nc1)cccc2

>  <s_sd_BIOSOLVEIT.INFINISEE\_REAGENT3\_NAME>  (549) 
EMOL17149431

>  <s_sd_BIOSOLVEIT.INFINISEE\_REAGENT3\_SMILES>  (549) 
N(C(c1ccccc1)C)C

>  <s_sd_BIOSOLVEIT.INFINISEE\_SPACE>  (549) 
eXplore_7tr_2022-12

>  <s_vsw_compound_code>  (549) 
86306

>  <s_vsw_variant>  (549) 
86306-4

>  <r_epik_Charging_Adjusted_Penalty>  (549) 
1.41350036141714

>  <r_epik_Ionization_Penalty>  (549) 
1.4212

>  <r_epik_Ionization_Penalty_Charging>  (549) 
0

>  <r_epik_Ionization_Penalty_Neutral>  (549) 
1.4212

>  <r_epik_State_Penalty>  (549) 
1.4135

>  <r_i_docking_score>  (549) 
-1.32076819684562

>  <r_i_glide_ecoul>  (549) 
-1.1244046688079801

>  <r_i_glide_eff_state_penalty>  (549) 
1.4135

>  <r_i_glide_einternal>  (549) 
3.4364666938781698

>  <r_i_glide_emodel>  (549) 
-40.492023675633597

>  <r_i_glide_energy>  (549) 
-35.515174627304098

>  <r_i_glide_erotb>  (549) 
0.72609563377354602

>  <r_i_glide_esite>  (549) 
-0.070933688940407302

>  <r_i_glide_evdw>  (549) 
-34.390769958496101

>  <r_i_glide_gscore>  (549) 
-2.7342681968456199

>  <r_i_glide_hbond>  (549) 
0

>  <r_i_glide_ligand_efficiency>  (549) 
-0.040023278692291699

>  <r_i_glide_ligand_efficiency_ln>  (549) 
-0.29373200840673602

>  <r_i_glide_ligand_efficiency_sa>  (549) 
-0.12837604025489299

>  <r_i_glide_lipo>  (549) 
-1.0823491252509401

>  <r_i_glide_metal>  (549) 
-0

>  <r_i_glide_rewards>  (549) 
-0.41888181818181602

>  <r_lp_Energy>  (549) 
43.85669

>  <r_qp_ACxDN^.5/SA>  (549) 
0.0095145999999999998

>  <r_qp_CIQPlogS>  (549) 
-5.7999999999999998

>  <r_qp_EA(eV)>  (549) 
1.01

>  <r_qp_FISA>  (549) 
30.800000000000001

>  <r_qp_FOSA>  (549) 
215.65000000000001

>  <r_qp_IP(eV)>  (549) 
8.8109999999999999

>  <r_qp_Jm>  (549) 
0.56582189594168797

>  <r_qp_PISA>  (549) 
436.71199999999999

>  <r_qp_PSA>  (549) 
41.923000000000002

>  <r_qp_PercentHumanOralAbsorption>  (549) 
100

>  <r_qp_QPPCaco>  (549) 
1261.037

>  <r_qp_QPPMDCK>  (549) 
703.24199999999996

>  <r_qp_QPlogBB>  (549) 
0.26600000000000001

>  <r_qp_QPlogHERG>  (549) 
-6.5129999999999999

>  <r_qp_QPlogKhsa>  (549) 
0.73599999999999999

>  <r_qp_QPlogKp>  (549) 
-1.9390000000000001

>  <r_qp_QPlogPC16>  (549) 
14.244999999999999

>  <r_qp_QPlogPo/w>  (549) 
4.8470000000000004

>  <r_qp_QPlogPoct>  (549) 
21.077000000000002

>  <r_qp_QPlogPw>  (549) 
10.866

>  <r_qp_QPlogS>  (549) 
-3.9500000000000002

>  <r_qp_QPpolrz>  (549) 
47.649000000000001

>  <r_qp_SASA>  (549) 
683.16200000000003

>  <r_qp_SAamideO>  (549) 
0

>  <r_qp_SAfluorine>  (549) 
0

>  <r_qp_WPSA>  (549) 
0

>  <r_qp_accptHB>  (549) 
6.5

>  <r_qp_dip^2/V>  (549) 
0.021159500000000001

>  <r_qp_dipole>  (549) 
5.3499999999999996

>  <r_qp_donorHB>  (549) 
1

>  <r_qp_glob>  (549) 
0.86576949999999997

>  <r_qp_mol_MW>  (549) 
438.57100000000003

>  <r_qp_volume>  (549) 
1352.5139999999999

>  <r_sd_BIOSOLVEIT.INFINISEE\_FTREES\_SIMILARITY>  (549) 
0.90800000000000003

>  <r_sd_BIOSOLVEIT.LOGP>  (549) 
4.3289999999999997

>  <r_sd_BIOSOLVEIT.MOLECULAR\_WEIGHT>  (549) 
439.57999999999998

>  <r_sd_BIOSOLVEIT.TPSA>  (549) 
49.670000000000002

>  <i_epik_Tot_Q>  (549) 
0

>  <i_epik_Tot_abs_Q>  (549) 
0

>  <i_f3d_flags>  (549) 
0

>  <i_i_glide_confnum>  (549) 
7

>  <i_i_glide_lignum>  (549) 
1304

>  <i_i_glide_posenum>  (549) 
5

>  <i_i_glide_rotatable_bonds>  (549) 
8

>  <i_lp_mmshare_version>  (549) 
65135

>  <i_m_ct_format>  (549) 
2

>  <i_m_source_file_index>  (549) 
2698

>  <i_qp_#NandO>  (549) 
5

>  <i_qp_#acid>  (549) 
0

>  <i_qp_#amide>  (549) 
0

>  <i_qp_#amidine>  (549) 
0

>  <i_qp_#amine>  (549) 
1

>  <i_qp_#in34>  (549) 
0

>  <i_qp_#in56>  (549) 
22

>  <i_qp_#metab>  (549) 
6

>  <i_qp_#nonHatm>  (549) 
33

>  <i_qp_#noncon>  (549) 
0

>  <i_qp_#ringatoms>  (549) 
22

>  <i_qp_#rotor>  (549) 
7

>  <i_qp_#rtvFG>  (549) 
0

>  <i_qp_#stars>  (549) 
0

>  <i_qp_CNS>  (549) 
1

>  <i_qp_HumanOralAbsorption>  (549) 
3

>  <i_qp_RuleOfFive>  (549) 
0

>  <i_qp_RuleOfThree>  (549) 
0

>  <i_sd_BIOSOLVEIT.INFINISEE\_RESULT\_RANK>  (549) 
52436

>  <i_sd_version>  (549) 
0

>  <b_lp_Chiralities_Consistent>  (549) 
1

>  <b_sd_chiral_flag>  (549) 
0

>  <canonical_id>  (549) 
ATP-HTVS-54ED83DE83DA

>  <compound_code>  (549) 
86306

>  <title>  (549) 
rxn502b____EMOL5415347____EMOL13728749____EMOL17149431

>  <variant>  (549) 
86306-4

>  <source_file>  (549) 
运行/运行/ATP-VSW/ATP-VSW-DOCK_HTVS_1-002_lib.maegz

>  <canonical_smiles>  (549) 
C[C@@H](c1ccccc1)N(C)c1cnc2ccccc2c1NC(=O)c1ccccc1CN(C)C

>  <scaffold>  (549) 
O=C(Nc1c(NCc2ccccc2)cnc2ccccc12)c1ccccc1

>  <molecular_formula>  (549) 
C28H30N4O

$$$$
ATP-HTVS-553AACDE3786
     RDKit          3D

 55 57  0  0  0  0  0  0  0  0999 V2000
  195.3031  190.4736  162.0924 O   0  0  0  0  0  0  0  0  0  0  0  0
  196.0456  189.7071  161.2148 C   0  0  0  0  0  0  0  0  0  0  0  0
  195.7885  188.3375  160.9369 C   0  0  0  0  0  0  0  0  0  0  0  0
  196.5667  187.5947  160.0209 C   0  0  0  0  0  0  0  0  0  0  0  0
  196.2694  186.1724  159.7719 C   0  0  0  0  0  0  0  0  0  0  0  0
  195.0024  185.5803  160.0004 C   0  0  0  0  0  0  0  0  0  0  0  0
  194.7502  184.2803  159.7395 N   0  0  0  0  0  0  0  0  0  0  0  0
  195.7648  183.5496  159.2910 C   0  0  0  0  0  0  0  0  0  0  0  0
  197.0110  183.9707  159.0998 N   0  0  0  0  0  0  0  0  0  0  0  0
  197.2510  185.2850  159.2917 C   0  0  0  0  0  0  0  0  0  0  0  0
  195.4706  182.1090  158.9057 C   0  0  1  0  0  0  0  0  0  0  0  0
  195.5475  181.8382  157.4434 N   0  0  1  0  0  0  0  0  0  0  0  0
  196.8388  182.1945  156.8131 C   0  0  1  0  0  0  0  0  0  0  0  0
  197.0592  181.4256  155.5361 C   0  0  0  0  0  0  0  0  0  0  0  0
  196.7536  182.0218  154.2997 C   0  0  0  0  0  0  0  0  0  0  0  0
  196.9836  181.3112  153.1129 C   0  0  0  0  0  0  0  0  0  0  0  0
  197.5265  180.0106  153.1680 C   0  0  0  0  0  0  0  0  0  0  0  0
  197.8505  179.4334  154.4142 C   0  0  0  0  0  0  0  0  0  0  0  0
  197.6172  180.1402  155.5975 C   0  0  0  0  0  0  0  0  0  0  0  0
  197.7624  179.2319  151.8934 C   0  0  1  0  0  0  0  0  0  0  0  0
  199.2035  179.1319  151.5550 N   0  0  1  0  0  0  0  0  0  0  0  0
  199.4447  178.1557  150.4700 C   0  0  2  0  0  0  0  0  0  0  0  0
  199.8367  180.4423  151.2716 C   0  0  2  0  0  0  0  0  0  0  0  0
  197.6422  188.2581  159.3864 C   0  0  0  0  0  0  0  0  0  0  0  0
  197.9294  189.6078  159.6637 C   0  0  0  0  0  0  0  0  0  0  0  0
  197.1333  190.3268  160.5718 C   0  0  0  0  0  0  0  0  0  0  0  0
  193.9962  190.0207  162.4324 C   0  0  2  0  0  0  0  0  0  0  0  0
  195.4470  180.8354  157.3687 H   0  0  0  0  0  0  0  0  0  0  0  0
  194.9807  187.8485  161.4557 H   0  0  0  0  0  0  0  0  0  0  0  0
  194.1623  186.1383  160.3856 H   0  0  0  0  0  0  0  0  0  0  0  0
  198.2433  185.6046  159.0203 H   0  0  0  0  0  0  0  0  0  0  0  0
  196.1827  181.4523  159.4072 H   0  0  0  0  0  0  0  0  0  0  0  0
  194.4784  181.8165  159.2571 H   0  0  0  0  0  0  0  0  0  0  0  0
  196.8524  183.2482  156.5706 H   0  0  0  0  0  0  0  0  0  0  0  0
  197.6691  181.9563  157.4696 H   0  0  0  0  0  0  0  0  0  0  0  0
  196.3472  183.0212  154.2620 H   0  0  0  0  0  0  0  0  0  0  0  0
  196.7339  181.7782  152.1714 H   0  0  0  0  0  0  0  0  0  0  0  0
  198.2621  178.4351  154.4876 H   0  0  0  0  0  0  0  0  0  0  0  0
  197.8552  179.6879  156.5509 H   0  0  0  0  0  0  0  0  0  0  0  0
  197.3397  178.2359  152.0333 H   0  0  0  0  0  0  0  0  0  0  0  0
  197.2113  179.6916  151.0697 H   0  0  0  0  0  0  0  0  0  0  0  0
  198.9673  178.4766  149.5431 H   0  0  0  0  0  0  0  0  0  0  0  0
  199.0497  177.1737  150.7337 H   0  0  0  0  0  0  0  0  0  0  0  0
  200.5121  178.0426  150.2812 H   0  0  0  0  0  0  0  0  0  0  0  0
  199.3654  180.9309  150.4175 H   0  0  0  0  0  0  0  0  0  0  0  0
  200.8965  180.3166  151.0467 H   0  0  0  0  0  0  0  0  0  0  0  0
  199.7701  181.1147  152.1281 H   0  0  0  0  0  0  0  0  0  0  0  0
  198.2808  187.7527  158.6802 H   0  0  0  0  0  0  0  0  0  0  0  0
  198.7678  190.0895  159.1766 H   0  0  0  0  0  0  0  0  0  0  0  0
  197.3577  191.3632  160.7768 H   0  0  0  0  0  0  0  0  0  0  0  0
  193.5574  190.7316  163.1274 H   0  0  0  0  0  0  0  0  0  0  0  0
  193.9776  189.0493  162.9295 H   0  0  0  0  0  0  0  0  0  0  0  0
  193.3571  189.9784  161.5511 H   0  0  0  0  0  0  0  0  0  0  0  0
  199.6600  178.7689  152.3807 H   0  0  0  0  0  0  0  0  0  0  0  0
  194.7878  182.2893  156.9318 H   0  0  0  0  0  0  0  0  0  0  0  0
  1  2  1  0
  1 27  1  0
  2  3  2  0
  2 26  1  0
  3  4  1  0
  3 29  1  0
  4  5  1  0
  4 24  2  0
  5  6  2  0
  5 10  1  0
  6  7  1  0
  6 30  1  0
  7  8  2  0
  8  9  1  0
  8 11  1  0
  9 10  2  0
 10 31  1  0
 11 12  1  0
 11 32  1  1
 11 33  1  0
 12 13  1  0
 12 28  1  1
 12 55  1  0
 13 14  1  0
 13 34  1  6
 13 35  1  0
 14 15  1  0
 14 19  2  0
 15 16  2  0
 15 36  1  0
 16 17  1  0
 16 37  1  0
 17 18  2  0
 17 20  1  0
 18 19  1  0
 18 38  1  0
 19 39  1  0
 20 21  1  0
 20 40  1  1
 20 41  1  0
 21 22  1  0
 21 23  1  0
 21 54  1  1
 22 42  1  6
 22 43  1  0
 22 44  1  0
 23 45  1  6
 23 46  1  0
 23 47  1  0
 24 25  1  0
 24 48  1  0
 25 26  2  0
 25 49  1  0
 26 50  1  0
 27 51  1  1
 27 52  1  0
 27 53  1  0
M  CHG  2  12   1  21   1
M  END
>  <s_epik_cmdline>  (550) 
J2VwaWtfcHl0aG9uJywgJy1waCcsICc3LjAwMDAwMCcsICctcGh0JywgJzIuMDAwMDAwJywgJy1tcycsICcxNicsICctdG4nLCAnOCcsICctbWEnLCAnMjAwJywgJy1pbWFlJywgJzxpbmZpbGUubWFlPicsICctb21hZScsICc8b3V0ZmlsZS5tYWU+Jw==

>  <s_epik_input>  (550) 
W0NIM11PYzFbY0hdYyhbY0hdW2NIXVtjSF0xKS1jMltjSF1uYyhuW2NIXTIpW0NIMl1bTkhdW0NIMl1jM1tjSF1bY0hdYyhbY0hdW2NIXTMpW0NIMl1OKFtDSDNdKVtDSDNd

>  <s_i_glide_gridfile>  (550) 
ATP-Grid

>  <s_lp_Force_Field>  (550) 
OPLS_2005

>  <s_lp_Variant>  (550) 
WXDL_15E____QS5063____LN00190257____BT0852-1

>  <s_lp_label>  (550) 
624_sdstereoexpander_1_neutralizer_1_epik_1_stereoizer_1

>  <s_m_source_file>  (550) 
ATP-VSW-LIGPREP-003-in.maegz

>  <s_sd_BIOSOLVEIT.INFINISEE\_QUERY\_NAME>  (550) 
Ref-Lig

>  <s_sd_BIOSOLVEIT.INFINISEE\_QUERY\_SMILES>  (550) 
S(c1nc2c(cc1C[NH2+]Cc3ccc(cc3)C[NH+](C)C)cccc2)Cc4ccccc4

>  <s_sd_BIOSOLVEIT.INFINISEE\_REACTION\_NAME>  (550) 
WXDL_15E

>  <s_sd_BIOSOLVEIT.INFINISEE\_REAGENT1\_NAME>  (550) 
QS5063

>  <s_sd_BIOSOLVEIT.INFINISEE\_REAGENT1\_SMILES>  (550) 
O=Cc1ccc(cc1)CN(C)C

>  <s_sd_BIOSOLVEIT.INFINISEE\_REAGENT2\_NAME>  (550) 
LN00190257

>  <s_sd_BIOSOLVEIT.INFINISEE\_REAGENT2\_SMILES>  (550) 
Brc1cnc(nc1)CNC(=O)OC(C)(C)C

>  <s_sd_BIOSOLVEIT.INFINISEE\_REAGENT3\_NAME>  (550) 
BT0852

>  <s_sd_BIOSOLVEIT.INFINISEE\_REAGENT3\_SMILES>  (550) 
O(c1cc(ccc1)B2OC(C(O2)(C)C)(C)C)C

>  <s_sd_BIOSOLVEIT.INFINISEE\_SPACE>  (550) 
GalaXi_12bn_2023-03

>  <s_vsw_compound_code>  (550) 
19939

>  <s_vsw_variant>  (550) 
19939-1

>  <r_epik_Charging_Adjusted_Penalty>  (550) 
0.56790821443324901

>  <r_epik_Ionization_Penalty>  (550) 
0.28070000000000001

>  <r_epik_Ionization_Penalty_Charging>  (550) 
0.28070000000000001

>  <r_epik_Ionization_Penalty_Neutral>  (550) 
0

>  <r_epik_State_Penalty>  (550) 
0.2873

>  <r_i_docking_score>  (550) 
-5.4243219915139598

>  <r_i_glide_ecoul>  (550) 
-12.7571878433228

>  <r_i_glide_eff_state_penalty>  (550) 
0.2873

>  <r_i_glide_einternal>  (550) 
3.1096560955047599

>  <r_i_glide_emodel>  (550) 
-69.834599244599502

>  <r_i_glide_energy>  (550) 
-45.848889350891099

>  <r_i_glide_erotb>  (550) 
0.86829695456563805

>  <r_i_glide_esite>  (550) 
-0.10000000000000001

>  <r_i_glide_evdw>  (550) 
-33.091701507568402

>  <r_i_glide_gscore>  (550) 
-5.7116219915139599

>  <r_i_glide_hbond>  (550) 
-0.40000000000000002

>  <r_i_glide_ligand_efficiency>  (550) 
-0.200900814500517

>  <r_i_glide_ligand_efficiency_ln>  (550) 
-1.2626927326873201

>  <r_i_glide_ligand_efficiency_sa>  (550) 
-0.60270244283941499

>  <r_i_glide_lipo>  (550) 
-1.1485013187526001

>  <r_i_glide_metal>  (550) 
-0

>  <r_i_glide_rewards>  (550) 
-1.36325437545017

>  <r_lp_Energy>  (550) 
16.006031

>  <r_lp_tautomer_probability>  (550) 
1

>  <r_qp_ACxDN^.5/SA>  (550) 
0.0084387000000000004

>  <r_qp_CIQPlogS>  (550) 
-3.0710000000000002

>  <r_qp_EA(eV)>  (550) 
0.82799999999999996

>  <r_qp_FISA>  (550) 
50.698999999999998

>  <r_qp_FOSA>  (550) 
347.69299999999998

>  <r_qp_IP(eV)>  (550) 
8.9830000000000005

>  <r_qp_Jm>  (550) 
0.00187779926209933

>  <r_qp_PISA>  (550) 
342.24099999999999

>  <r_qp_PSA>  (550) 
50.831000000000003

>  <r_qp_PercentHumanOralAbsorption>  (550) 
90.015000000000001

>  <r_qp_QPPCaco>  (550) 
203.66499999999999

>  <r_qp_QPPMDCK>  (550) 
108.425

>  <r_qp_QPlogBB>  (550) 
0.312

>  <r_qp_QPlogHERG>  (550) 
-8.3010000000000002

>  <r_qp_QPlogKhsa>  (550) 
0.52200000000000002

>  <r_qp_QPlogKp>  (550) 
-4.6050000000000004

>  <r_qp_QPlogPC16>  (550) 
13.304

>  <r_qp_QPlogPo/w>  (550) 
3.714

>  <r_qp_QPlogPoct>  (550) 
18.689

>  <r_qp_QPlogPw>  (550) 
10.029999999999999

>  <r_qp_QPlogS>  (550) 
-3.6800000000000002

>  <r_qp_QPpolrz>  (550) 
43.456000000000003

>  <r_qp_SASA>  (550) 
740.63300000000004

>  <r_qp_SAamideO>  (550) 
0

>  <r_qp_SAfluorine>  (550) 
0

>  <r_qp_WPSA>  (550) 
0

>  <r_qp_accptHB>  (550) 
6.25

>  <r_qp_dip^2/V>  (550) 
0.0015181999999999999

>  <r_qp_dipole>  (550) 
1.397

>  <r_qp_donorHB>  (550) 
1

>  <r_qp_glob>  (550) 
0.77231470000000002

>  <r_qp_mol_MW>  (550) 
362.47399999999999

>  <r_qp_volume>  (550) 
1286.318

>  <r_sd_BIOSOLVEIT.INFINISEE\_FTREES\_SIMILARITY>  (550) 
0.92700000000000005

>  <r_sd_BIOSOLVEIT.LOGP>  (550) 
1.0603

>  <r_sd_BIOSOLVEIT.MOLECULAR\_WEIGHT>  (550) 
364.49000000000001

>  <r_sd_BIOSOLVEIT.TPSA>  (550) 
56.060000000000002

>  <i_epik_Tot_Q>  (550) 
2

>  <i_epik_Tot_abs_Q>  (550) 
2

>  <i_f3d_flags>  (550) 
0

>  <i_i_glide_confnum>  (550) 
7

>  <i_i_glide_lignum>  (550) 
247

>  <i_i_glide_posenum>  (550) 
16

>  <i_i_glide_rotatable_bonds>  (550) 
8

>  <i_lp_mmshare_version>  (550) 
65135

>  <i_m_ct_format>  (550) 
2

>  <i_m_source_file_index>  (550) 
624

>  <i_qp_#NandO>  (550) 
5

>  <i_qp_#acid>  (550) 
0

>  <i_qp_#amide>  (550) 
0

>  <i_qp_#amidine>  (550) 
0

>  <i_qp_#amine>  (550) 
2

>  <i_qp_#in34>  (550) 
0

>  <i_qp_#in56>  (550) 
18

>  <i_qp_#metab>  (550) 
8

>  <i_qp_#nonHatm>  (550) 
27

>  <i_qp_#noncon>  (550) 
0

>  <i_qp_#ringatoms>  (550) 
18

>  <i_qp_#rotor>  (550) 
8

>  <i_qp_#rtvFG>  (550) 
0

>  <i_qp_#stars>  (550) 
0

>  <i_qp_CNS>  (550) 
1

>  <i_qp_HumanOralAbsorption>  (550) 
3

>  <i_qp_RuleOfFive>  (550) 
0

>  <i_qp_RuleOfThree>  (550) 
1

>  <i_sd_BIOSOLVEIT.INFINISEE\_RESULT\_RANK>  (550) 
7184

>  <i_sd_version>  (550) 
0

>  <b_lp_Chiralities_Consistent>  (550) 
1

>  <b_sd_chiral_flag>  (550) 
0

>  <canonical_id>  (550) 
ATP-HTVS-553AACDE3786

>  <compound_code>  (550) 
19939

>  <title>  (550) 
WXDL_15E____QS5063____LN00190257____BT0852

>  <variant>  (550) 
19939-1

>  <source_file>  (550) 
运行/运行/ATP-VSW/ATP-VSW-DOCK_HTVS_1-003_lib/ATP-VSW-DOCK_HTVS_1-003_lib.mae

>  <canonical_smiles>  (550) 
COc1cccc(-c2cnc(C[NH2+]Cc3ccc(C[NH+](C)C)cc3)nc2)c1

>  <scaffold>  (550) 
c1ccc(C[NH2+]Cc2ncc(-c3ccccc3)cn2)cc1

>  <molecular_formula>  (550) 
C22H28N4O+2

$$$$
ATP-HTVS-555FA00075E9
     RDKit          3D

 61 64  0  0  0  0  0  0  0  0999 V2000
  194.3658  187.0011  161.3530 Cl  0  0  0  0  0  0  0  0  0  0  0  0
  195.0251  185.6998  160.4385 C   0  0  0  0  0  0  0  0  0  0  0  0
  194.1973  184.6511  159.9886 C   0  0  0  0  0  0  0  0  0  0  0  0
  194.7513  183.5634  159.2852 C   0  0  0  0  0  0  0  0  0  0  0  0
  196.1326  183.5182  159.0254 C   0  0  0  0  0  0  0  0  0  0  0  0
  196.9616  184.5699  159.4912 C   0  0  0  0  0  0  0  0  0  0  0  0
  196.4078  185.6640  160.1626 C   0  0  0  0  0  0  0  0  0  0  0  0
  196.7566  182.3523  158.2781 C   0  0  1  0  0  0  0  0  0  0  0  0
  197.2328  182.6866  156.8404 C   0  0  1  0  0  0  0  0  0  0  0  0
  197.8970  183.9306  156.7802 O   0  0  0  0  0  0  0  0  0  0  0  0
  198.1841  181.6118  156.2910 C   0  0  0  0  0  0  0  0  0  0  0  0
  199.2255  181.3350  156.8807 O   0  0  0  0  0  0  0  0  0  0  0  0
  197.8162  181.0474  155.1255 N   0  0  0  0  0  0  0  0  0  0  0  0
  198.4883  179.9998  154.4376 C   0  0  0  0  0  0  0  0  0  0  0  0
  198.5915  180.0027  153.0158 C   0  0  0  0  0  0  0  0  0  0  0  0
  198.0049  181.0556  152.2450 N   0  0  0  0  0  0  0  0  0  0  0  0
  198.9536  182.0012  151.6192 C   0  0  2  0  0  0  0  0  0  0  0  0
  199.9632  182.5105  152.5723 C   0  0  0  0  0  0  0  0  0  0  0  0
  200.7593  182.8989  153.3191 N   0  0  0  0  0  0  0  0  0  0  0  0
  198.3298  183.1213  150.7785 C   0  0  0  0  0  0  0  0  0  0  0  0
  198.2183  184.4325  151.2893 C   0  0  0  0  0  0  0  0  0  0  0  0
  197.6139  185.4537  150.5218 C   0  0  0  0  0  0  0  0  0  0  0  0
  197.0787  185.1462  149.2531 C   0  0  0  0  0  0  0  0  0  0  0  0
  197.1951  183.8386  148.7405 C   0  0  0  0  0  0  0  0  0  0  0  0
  197.8512  182.8141  149.4719 C   0  0  0  0  0  0  0  0  0  0  0  0
  196.6389  180.8249  151.7499 C   0  0  1  0  0  0  0  0  0  0  0  0
  196.5436  179.8787  150.5204 C   0  0  2  0  0  0  0  0  0  0  0  0
  199.2426  178.9296  152.3740 C   0  0  0  0  0  0  0  0  0  0  0  0
  199.7494  177.8368  153.1531 C   0  0  0  0  0  0  0  0  0  0  0  0
  199.6122  177.8795  154.5013 N   0  0  0  0  0  0  0  0  0  0  0  0
  199.0190  178.8959  155.1647 C   0  0  0  0  0  0  0  0  0  0  0  0
  200.3298  176.7122  152.5323 C   0  0  0  0  0  0  0  0  0  0  0  0
  200.4346  176.6437  151.1263 C   0  0  0  0  0  0  0  0  0  0  0  0
  199.9567  177.7311  150.3530 C   0  0  0  0  0  0  0  0  0  0  0  0
  199.3890  178.8472  150.9547 C   0  0  0  0  0  0  0  0  0  0  0  0
  193.1362  184.6850  160.1903 H   0  0  0  0  0  0  0  0  0  0  0  0
  194.1004  182.7635  158.9498 H   0  0  0  0  0  0  0  0  0  0  0  0
  198.0292  184.5281  159.3296 H   0  0  0  0  0  0  0  0  0  0  0  0
  197.0496  186.4722  160.4958 H   0  0  0  0  0  0  0  0  0  0  0  0
  197.5494  181.9541  158.9030 H   0  0  0  0  0  0  0  0  0  0  0  0
  196.0283  181.5435  158.2108 H   0  0  0  0  0  0  0  0  0  0  0  0
  196.3582  182.7812  156.1976 H   0  0  0  0  0  0  0  0  0  0  0  0
  197.3417  184.5739  157.2021 H   0  0  0  0  0  0  0  0  0  0  0  0
  197.0254  181.4705  154.6620 H   0  0  0  0  0  0  0  0  0  0  0  0
  199.5785  181.4604  150.9159 H   0  0  0  0  0  0  0  0  0  0  0  0
  198.6049  184.6852  152.2772 H   0  0  0  0  0  0  0  0  0  0  0  0
  197.5630  186.4609  150.9063 H   0  0  0  0  0  0  0  0  0  0  0  0
  196.5914  185.9213  148.6649 H   0  0  0  0  0  0  0  0  0  0  0  0
  196.7668  183.6082  147.7741 H   0  0  0  0  0  0  0  0  0  0  0  0
  197.9647  181.8392  149.0511 H   0  0  0  0  0  0  0  0  0  0  0  0
  196.0088  180.4590  152.5679 H   0  0  0  0  0  0  0  0  0  0  0  0
  196.1935  181.7887  151.5006 H   0  0  0  0  0  0  0  0  0  0  0  0
  195.4915  179.8014  150.1976 H   0  0  0  0  0  0  0  0  0  0  0  0
  196.8593  178.8530  150.8147 H   0  0  0  0  0  0  0  0  0  0  0  0
  197.1196  180.2189  149.6912 H   0  0  0  0  0  0  0  0  0  0  0  0
  198.9660  178.7930  156.2428 H   0  0  0  0  0  0  0  0  0  0  0  0
  200.6832  175.8716  153.1185 H   0  0  0  0  0  0  0  0  0  0  0  0
  200.8518  175.7754  150.6354 H   0  0  0  0  0  0  0  0  0  0  0  0
  200.0247  177.6843  149.2739 H   0  0  0  0  0  0  0  0  0  0  0  0
  199.0573  179.6513  150.2965 H   0  0  0  0  0  0  0  0  0  0  0  0
  199.9433  177.0831  155.0511 H   0  0  0  0  0  0  0  0  0  0  0  0
  1  2  1  0
  2  3  1  0
  2  7  2  0
  3  4  2  0
  3 36  1  0
  4  5  1  0
  4 37  1  0
  5  6  2  0
  5  8  1  0
  6  7  1  0
  6 38  1  0
  7 39  1  0
  8  9  1  0
  8 40  1  1
  8 41  1  0
  9 10  1  0
  9 11  1  0
  9 42  1  6
 10 43  1  0
 11 12  2  0
 11 13  1  0
 13 14  1  0
 13 44  1  0
 14 15  2  0
 14 31  1  0
 15 16  1  0
 15 28  1  0
 16 17  1  0
 16 26  1  0
 17 18  1  0
 17 20  1  0
 17 45  1  6
 18 19  3  0
 20 21  2  0
 20 25  1  0
 21 22  1  0
 21 46  1  0
 22 23  2  0
 22 47  1  0
 23 24  1  0
 23 48  1  0
 24 25  2  0
 24 49  1  0
 25 50  1  0
 26 27  1  0
 26 51  1  1
 26 52  1  0
 27 53  1  6
 27 54  1  0
 27 55  1  0
 28 29  1  0
 28 35  2  0
 29 30  1  0
 29 32  2  0
 30 31  2  0
 30 61  1  0
 31 56  1  0
 32 33  1  0
 32 57  1  0
 33 34  2  0
 33 58  1  0
 34 35  1  0
 34 59  1  0
 35 60  1  0
M  CHG  1  30   1
M  END
>  <s_epik_cmdline>  (551) 
J2VwaWtfcHl0aG9uJywgJy1waCcsICc3LjAwMDAwMCcsICctcGh0JywgJzIuMDAwMDAwJywgJy1tcycsICcxNicsICctdG4nLCAnOCcsICctbWEnLCAnMjAwJywgJy1pbWFlJywgJzxpbmZpbGUubWFlPicsICctb21hZScsICc8b3V0ZmlsZS5tYWU+Jw==

>  <s_epik_input>  (551) 
Q2xjMVtjSF1bY0hdYyhbY0hdW2NIXTEpW0NIMl1bQ0BASF0oW09IXSlDKD1PKVtOSF1jKFtjSF1uYyhjMjMpW2NIXVtjSF1bY0hdW2NIXTMpYzJOKFtDSDJdW0NIM10pW0NASF0oQyNOKWM0W2NIXVtjSF1bY0hdW2NIXVtjSF00

>  <s_i_glide_gridfile>  (551) 
ATP-Grid

>  <s_lp_Force_Field>  (551) 
OPLS_2005

>  <s_lp_Variant>  (551) 
rxn502b____EMOL44462884____EMOL30488121____EMOL49839592-3

>  <s_lp_label>  (551) 
2683_sdstereoexpander_3_neutralizer_1_epik_1_stereoizer_1

>  <s_m_source_file>  (551) 
ATP-VSW-LIGPREP-001-in.maegz

>  <s_sd_BIOSOLVEIT.INFINISEE\_QUERY\_NAME>  (551) 
Ref-Lig

>  <s_sd_BIOSOLVEIT.INFINISEE\_QUERY\_SMILES>  (551) 
S(c1nc2c(cc1C[NH2+]Cc3ccc(cc3)C[NH+](C)C)cccc2)Cc4ccccc4

>  <s_sd_BIOSOLVEIT.INFINISEE\_REACTION\_NAME>  (551) 
rxn502b

>  <s_sd_BIOSOLVEIT.INFINISEE\_REAGENT1\_NAME>  (551) 
EMOL44462884

>  <s_sd_BIOSOLVEIT.INFINISEE\_REAGENT1\_SMILES>  (551) 
Clc1ccc(cc1)CC(O)C(=O)O

>  <s_sd_BIOSOLVEIT.INFINISEE\_REAGENT2\_NAME>  (551) 
EMOL30488121

>  <s_sd_BIOSOLVEIT.INFINISEE\_REAGENT2\_SMILES>  (551) 
Brc1c(N)cnc2c1cccc2

>  <s_sd_BIOSOLVEIT.INFINISEE\_REAGENT3\_NAME>  (551) 
EMOL49839592

>  <s_sd_BIOSOLVEIT.INFINISEE\_REAGENT3\_SMILES>  (551) 
N#CC(NCC)c1ccccc1

>  <s_sd_BIOSOLVEIT.INFINISEE\_SPACE>  (551) 
eXplore_7tr_2022-12

>  <s_vsw_compound_code>  (551) 
85825

>  <s_vsw_variant>  (551) 
85825-3

>  <r_epik_Charging_Adjusted_Penalty>  (551) 
0.077996480275089305

>  <r_epik_Ionization_Penalty>  (551) 
0.039100000000000003

>  <r_epik_Ionization_Penalty_Charging>  (551) 
0.039

>  <r_epik_Ionization_Penalty_Neutral>  (551) 
0.0001

>  <r_epik_State_Penalty>  (551) 
0.039

>  <r_i_docking_score>  (551) 
-5.0701362712432498

>  <r_i_glide_ecoul>  (551) 
-7.2724657058715803

>  <r_i_glide_eff_state_penalty>  (551) 
0.039

>  <r_i_glide_einternal>  (551) 
6.5799932479858398

>  <r_i_glide_emodel>  (551) 
-57.802857599100598

>  <r_i_glide_energy>  (551) 
-44.112885475158699

>  <r_i_glide_erotb>  (551) 
0.60222092181099196

>  <r_i_glide_esite>  (551) 
-0.078909768386084905

>  <r_i_glide_evdw>  (551) 
-36.840419769287102

>  <r_i_glide_gscore>  (551) 
-5.1091362712432504

>  <r_i_glide_hbond>  (551) 
0

>  <r_i_glide_ligand_efficiency>  (551) 
-0.14486103632123601

>  <r_i_glide_ligand_efficiency_ln>  (551) 
-1.1130074371497101

>  <r_i_glide_ligand_efficiency_sa>  (551) 
-0.47385005500783201

>  <r_i_glide_lipo>  (551) 
-2.37353052150113

>  <r_i_glide_metal>  (551) 
-0

>  <r_i_glide_rewards>  (551) 
-0.32602605882192898

>  <r_lp_Energy>  (551) 
35.667054999999998

>  <r_qp_ACxDN^.5/SA>  (551) 
0.0160936

>  <r_qp_CIQPlogS>  (551) 
-8.2579999999999991

>  <r_qp_EA(eV)>  (551) 
1.1499999999999999

>  <r_qp_FISA>  (551) 
116.69799999999999

>  <r_qp_FOSA>  (551) 
146.03100000000001

>  <r_qp_IP(eV)>  (551) 
8.8179999999999996

>  <r_qp_Jm>  (551) 
0.064960741132664104

>  <r_qp_PISA>  (551) 
358.608

>  <r_qp_PSA>  (551) 
84.659999999999997

>  <r_qp_PercentHumanOralAbsorption>  (551) 
100

>  <r_qp_QPPCaco>  (551) 
774.92100000000005

>  <r_qp_QPPMDCK>  (551) 
754.32299999999998

>  <r_qp_QPlogBB>  (551) 
-0.90800000000000003

>  <r_qp_QPlogHERG>  (551) 
-5.181

>  <r_qp_QPlogKhsa>  (551) 
0.42899999999999999

>  <r_qp_QPlogKp>  (551) 
-1.4470000000000001

>  <r_qp_QPlogPC16>  (551) 
15.041

>  <r_qp_QPlogPo/w>  (551) 
4.3979999999999997

>  <r_qp_QPlogPoct>  (551) 
23.027999999999999

>  <r_qp_QPlogPw>  (551) 
12.907999999999999

>  <r_qp_QPlogS>  (551) 
-5.4260000000000002

>  <r_qp_QPpolrz>  (551) 
45.540999999999997

>  <r_qp_SASA>  (551) 
676.63199999999995

>  <r_qp_SAamideO>  (551) 
0

>  <r_qp_SAfluorine>  (551) 
0

>  <r_qp_WPSA>  (551) 
55.295000000000002

>  <r_qp_accptHB>  (551) 
7.7000000000000002

>  <r_qp_dip^2/V>  (551) 
0.0248414

>  <r_qp_dipole>  (551) 
5.827

>  <r_qp_donorHB>  (551) 
2

>  <r_qp_glob>  (551) 
0.88018459999999998

>  <r_qp_mol_MW>  (551) 
484.98399999999998

>  <r_qp_volume>  (551) 
1366.6030000000001

>  <r_sd_BIOSOLVEIT.INFINISEE\_FTREES\_SIMILARITY>  (551) 
0.90900000000000003

>  <r_sd_BIOSOLVEIT.LOGP>  (551) 
5.5214800000000004

>  <r_sd_BIOSOLVEIT.MOLECULAR\_WEIGHT>  (551) 
484.98500000000001

>  <r_sd_BIOSOLVEIT.TPSA>  (551) 
89.25

>  <i_epik_Tot_Q>  (551) 
1

>  <i_epik_Tot_abs_Q>  (551) 
1

>  <i_f3d_flags>  (551) 
0

>  <i_i_glide_confnum>  (551) 
8

>  <i_i_glide_lignum>  (551) 
1190

>  <i_i_glide_posenum>  (551) 
5

>  <i_i_glide_rotatable_bonds>  (551) 
10

>  <i_lp_mmshare_version>  (551) 
65135

>  <i_m_ct_format>  (551) 
2

>  <i_m_source_file_index>  (551) 
2683

>  <i_qp_#NandO>  (551) 
6

>  <i_qp_#acid>  (551) 
0

>  <i_qp_#amide>  (551) 
0

>  <i_qp_#amidine>  (551) 
0

>  <i_qp_#amine>  (551) 
0

>  <i_qp_#in34>  (551) 
0

>  <i_qp_#in56>  (551) 
22

>  <i_qp_#metab>  (551) 
6

>  <i_qp_#nonHatm>  (551) 
35

>  <i_qp_#noncon>  (551) 
0

>  <i_qp_#ringatoms>  (551) 
22

>  <i_qp_#rotor>  (551) 
10

>  <i_qp_#rtvFG>  (551) 
0

>  <i_qp_#stars>  (551) 
0

>  <i_qp_CNS>  (551) 
-1

>  <i_qp_HumanOralAbsorption>  (551) 
3

>  <i_qp_RuleOfFive>  (551) 
0

>  <i_qp_RuleOfThree>  (551) 
0

>  <i_sd_BIOSOLVEIT.INFINISEE\_RESULT\_RANK>  (551) 
50531

>  <i_sd_version>  (551) 
0

>  <b_lp_Chiralities_Consistent>  (551) 
1

>  <b_sd_chiral_flag>  (551) 
0

>  <canonical_id>  (551) 
ATP-HTVS-555FA00075E9

>  <compound_code>  (551) 
85825

>  <title>  (551) 
rxn502b____EMOL44462884____EMOL30488121____EMOL49839592

>  <variant>  (551) 
85825-3

>  <source_file>  (551) 
运行/运行/ATP-VSW/ATP-VSW-DOCK_HTVS_1-001_lib/ATP-VSW-DOCK_HTVS_1-001_lib

>  <canonical_smiles>  (551) 
CCN(c1c(NC(=O)[C@H](O)Cc2ccc(Cl)cc2)c[nH+]c2ccccc12)[C@H](C#N)c1ccccc1

>  <scaffold>  (551) 
O=C(CCc1ccccc1)Nc1c[nH+]c2ccccc2c1NCc1ccccc1

>  <molecular_formula>  (551) 
C28H26ClN4O2+

$$$$
ATP-HTVS-5589B4ED8BC3
     RDKit          3D

 47 50  0  0  0  0  0  0  0  0999 V2000
  193.7423  183.7157  158.9031 Br  0  0  0  0  0  0  0  0  0  0  0  0
  195.5747  184.2173  158.9280 C   0  0  0  0  0  0  0  0  0  0  0  0
  196.5813  183.3590  158.4282 C   0  0  0  0  0  0  0  0  0  0  0  0
  197.9294  183.7760  158.4713 C   0  0  0  0  0  0  0  0  0  0  0  0
  198.9038  182.9720  157.9818 F   0  0  0  0  0  0  0  0  0  0  0  0
  198.2683  185.0348  158.9987 C   0  0  0  0  0  0  0  0  0  0  0  0
  197.2634  185.8889  159.4884 C   0  0  0  0  0  0  0  0  0  0  0  0
  195.9193  185.4767  159.4533 C   0  0  0  0  0  0  0  0  0  0  0  0
  196.2579  181.9976  157.8348 C   0  0  1  0  0  0  0  0  0  0  0  0
  196.3216  182.0359  156.3536 N   0  0  1  0  0  0  0  0  0  0  0  0
  196.7590  180.7671  155.7323 C   0  0  1  0  0  0  0  0  0  0  0  0
  197.2633  180.9631  154.3250 C   0  0  0  0  0  0  0  0  0  0  0  0
  198.2616  180.2215  153.6043 C   0  0  0  0  0  0  0  0  0  0  0  0
  198.4050  180.7232  152.3804 N   0  0  0  0  0  0  0  0  0  0  0  0
  197.5308  181.7490  152.2597 N   0  0  0  0  0  0  0  0  0  0  0  0
  197.4323  182.5074  151.0560 C   0  0  0  0  0  0  0  0  0  0  0  0
  198.3139  182.2761  149.9711 C   0  0  0  0  0  0  0  0  0  0  0  0
  198.2128  183.0338  148.7880 C   0  0  0  0  0  0  0  0  0  0  0  0
  197.2265  184.0331  148.6742 C   0  0  0  0  0  0  0  0  0  0  0  0
  196.3485  184.2727  149.7435 C   0  0  0  0  0  0  0  0  0  0  0  0
  196.4451  183.5156  150.9278 C   0  0  0  0  0  0  0  0  0  0  0  0
  196.8176  181.8965  153.4273 C   0  0  0  0  0  0  0  0  0  0  0  0
  199.0941  179.0489  153.9949 C   0  0  0  0  0  0  0  0  0  0  0  0
  199.9322  178.4073  153.0464 C   0  0  0  0  0  0  0  0  0  0  0  0
  200.7138  177.2963  153.4371 C   0  0  0  0  0  0  0  0  0  0  0  0
  200.7061  176.8068  154.6963 N   0  0  0  0  0  0  0  0  0  0  0  0
  199.9108  177.4083  155.6001 C   0  0  0  0  0  0  0  0  0  0  0  0
  199.0846  178.5081  155.3080 C   0  0  0  0  0  0  0  0  0  0  0  0
  195.4004  182.3058  156.0036 H   0  0  0  0  0  0  0  0  0  0  0  0
  199.3019  185.3449  159.0224 H   0  0  0  0  0  0  0  0  0  0  0  0
  197.5238  186.8586  159.8859 H   0  0  0  0  0  0  0  0  0  0  0  0
  195.1450  186.1311  159.8245 H   0  0  0  0  0  0  0  0  0  0  0  0
  196.9755  181.2989  158.2674 H   0  0  0  0  0  0  0  0  0  0  0  0
  195.2874  181.6108  158.1397 H   0  0  0  0  0  0  0  0  0  0  0  0
  197.5583  180.4310  156.3696 H   0  0  0  0  0  0  0  0  0  0  0  0
  195.9604  180.0187  155.7355 H   0  0  0  0  0  0  0  0  0  0  0  0
  199.0809  181.5160  150.0344 H   0  0  0  0  0  0  0  0  0  0  0  0
  198.8859  182.8453  147.9649 H   0  0  0  0  0  0  0  0  0  0  0  0
  197.1362  184.6115  147.7670 H   0  0  0  0  0  0  0  0  0  0  0  0
  195.5924  185.0376  149.6517 H   0  0  0  0  0  0  0  0  0  0  0  0
  195.7515  183.7253  151.7274 H   0  0  0  0  0  0  0  0  0  0  0  0
  196.0537  182.6505  153.5452 H   0  0  0  0  0  0  0  0  0  0  0  0
  199.9884  178.7327  152.0148 H   0  0  0  0  0  0  0  0  0  0  0  0
  201.3559  176.7826  152.7311 H   0  0  0  0  0  0  0  0  0  0  0  0
  199.9026  177.0142  156.6031 H   0  0  0  0  0  0  0  0  0  0  0  0
  198.4722  178.8535  156.1141 H   0  0  0  0  0  0  0  0  0  0  0  0
  196.9901  182.7432  156.0900 H   0  0  0  0  0  0  0  0  0  0  0  0
  1  2  1  0
  2  3  1  0
  2  8  2  0
  3  4  2  0
  3  9  1  0
  4  5  1  0
  4  6  1  0
  6  7  2  0
  6 30  1  0
  7  8  1  0
  7 31  1  0
  8 32  1  0
  9 10  1  0
  9 33  1  1
  9 34  1  0
 10 11  1  0
 10 29  1  6
 10 47  1  0
 11 12  1  0
 11 35  1  1
 11 36  1  0
 12 13  1  0
 12 22  2  0
 13 14  2  0
 13 23  1  0
 14 15  1  0
 15 16  1  0
 15 22  1  0
 16 17  2  0
 16 21  1  0
 17 18  1  0
 17 37  1  0
 18 19  2  0
 18 38  1  0
 19 20  1  0
 19 39  1  0
 20 21  2  0
 20 40  1  0
 21 41  1  0
 22 42  1  0
 23 24  2  0
 23 28  1  0
 24 25  1  0
 24 43  1  0
 25 26  2  0
 25 44  1  0
 26 27  1  0
 27 28  2  0
 27 45  1  0
 28 46  1  0
M  CHG  1  10   1
M  END
>  <s_epik_cmdline>  (552) 
J2VwaWtfcHl0aG9uJywgJy1waCcsICc3LjAwMDAwMCcsICctcGh0JywgJzIuMDAwMDAwJywgJy1tcycsICcxNicsICctdG4nLCAnOCcsICctbWEnLCAnMjAwJywgJy1pbWFlJywgJzxpbmZpbGUubWFlPicsICctb21hZScsICc8b3V0ZmlsZS5tYWU+Jw==

>  <s_epik_input>  (552) 
W2NIXTFbY0hdW2NIXWMoRiljKGMxQnIpW0NIMl1bTkhdW0NIMl1jMmMoLWMzW2NIXVtjSF1uW2NIXVtjSF0zKW5uKFtjSF0yKS1jNFtjSF1bY0hdW2NIXVtjSF1bY0hdNA==

>  <s_i_glide_gridfile>  (552) 
ATP-Grid

>  <s_lp_Force_Field>  (552) 
OPLS_2005

>  <s_lp_Variant>  (552) 
m_270004dbb____18237028____7547806-1

>  <s_lp_label>  (552) 
1815_sdstereoexpander_1_neutralizer_1_epik_1_stereoizer_1

>  <s_m_source_file>  (552) 
ATP-VSW-LIGPREP-003-in.maegz

>  <s_sd_BIOSOLVEIT.INFINISEE\_QUERY\_NAME>  (552) 
Ref-Lig

>  <s_sd_BIOSOLVEIT.INFINISEE\_QUERY\_SMILES>  (552) 
S(c1nc2c(cc1C[NH2+]Cc3ccc(cc3)C[NH+](C)C)cccc2)Cc4ccccc4

>  <s_sd_BIOSOLVEIT.INFINISEE\_REACTION\_NAME>  (552) 
m_270004dbb

>  <s_sd_BIOSOLVEIT.INFINISEE\_REAGENT1\_SMILES>  (552) 
[R1*]NCc1c(Br)cccc1F

>  <s_sd_BIOSOLVEIT.INFINISEE\_REAGENT2\_SMILES>  (552) 
[R1*]CC=1C(=NN(c2ccccc2)C1)c3ccncc3

>  <s_sd_BIOSOLVEIT.INFINISEE\_SPACE>  (552) 
REALSpace_44bn_2023-08

>  <s_vsw_compound_code>  (552) 
58051

>  <s_vsw_variant>  (552) 
58051-1

>  <r_epik_Charging_Adjusted_Penalty>  (552) 
0.262795560136726

>  <r_epik_Ionization_Penalty>  (552) 
0.1338

>  <r_epik_Ionization_Penalty_Charging>  (552) 
0.129

>  <r_epik_Ionization_Penalty_Neutral>  (552) 
0.0047000000000000002

>  <r_epik_State_Penalty>  (552) 
0.1338

>  <r_i_docking_score>  (552) 
-4.64091671545693

>  <r_i_glide_ecoul>  (552) 
-9.5547008514404297

>  <r_i_glide_eff_state_penalty>  (552) 
0.1338

>  <r_i_glide_einternal>  (552) 
4.3531870841979998

>  <r_i_glide_emodel>  (552) 
-61.4425398190807

>  <r_i_glide_energy>  (552) 
-44.036901473999002

>  <r_i_glide_erotb>  (552) 
0.51917341011029805

>  <r_i_glide_esite>  (552) 
-0.0922649803487854

>  <r_i_glide_evdw>  (552) 
-34.482200622558601

>  <r_i_glide_gscore>  (552) 
-4.7747167154569299

>  <r_i_glide_hbond>  (552) 
-0.20000000000000001

>  <r_i_glide_ligand_efficiency>  (552) 
-0.16574702555203299

>  <r_i_glide_ligand_efficiency_ln>  (552) 
-1.0712598411632299

>  <r_i_glide_ligand_efficiency_sa>  (552) 
-0.50330558935345904

>  <r_i_glide_lipo>  (552) 
-1.4237335977380901

>  <r_i_glide_metal>  (552) 
-0

>  <r_i_glide_rewards>  (552) 
-0.42057638863636299

>  <r_lp_Energy>  (552) 
12.825767000000001

>  <r_lp_tautomer_probability>  (552) 
1

>  <r_qp_ACxDN^.5/SA>  (552) 
0.0061460000000000004

>  <r_qp_CIQPlogS>  (552) 
-6.8540000000000001

>  <r_qp_EA(eV)>  (552) 
0.77400000000000002

>  <r_qp_FISA>  (552) 
50.552999999999997

>  <r_qp_FOSA>  (552) 
57.561999999999998

>  <r_qp_IP(eV)>  (552) 
9.0060000000000002

>  <r_qp_Jm>  (552) 
0.0133304636071317

>  <r_qp_PISA>  (552) 
479.27600000000001

>  <r_qp_PSA>  (552) 
39.915999999999997

>  <r_qp_PercentHumanOralAbsorption>  (552) 
100

>  <r_qp_QPPCaco>  (552) 
819.221

>  <r_qp_QPPMDCK>  (552) 
982.024

>  <r_qp_QPlogBB>  (552) 
0.38900000000000001

>  <r_qp_QPlogHERG>  (552) 
-7.2770000000000001

>  <r_qp_QPlogKhsa>  (552) 
0.89400000000000002

>  <r_qp_QPlogKp>  (552) 
-2.4409999999999998

>  <r_qp_QPlogPC16>  (552) 
13.146000000000001

>  <r_qp_QPlogPo/w>  (552) 
4.9630000000000001

>  <r_qp_QPlogPoct>  (552) 
18.477

>  <r_qp_QPlogPw>  (552) 
9.4339999999999993

>  <r_qp_QPlogS>  (552) 
-5.0750000000000002

>  <r_qp_QPpolrz>  (552) 
43.192999999999998

>  <r_qp_SASA>  (552) 
650.827

>  <r_qp_SAamideO>  (552) 
0

>  <r_qp_SAfluorine>  (552) 
34.597999999999999

>  <r_qp_WPSA>  (552) 
63.435000000000002

>  <r_qp_accptHB>  (552) 
4

>  <r_qp_dip^2/V>  (552) 
0.0162296

>  <r_qp_dipole>  (552) 
4.3810000000000002

>  <r_qp_donorHB>  (552) 
1

>  <r_qp_glob>  (552) 
0.83110439999999997

>  <r_qp_mol_MW>  (552) 
437.31299999999999

>  <r_qp_volume>  (552) 
1182.8610000000001

>  <r_sd_BIOSOLVEIT.INFINISEE\_FTREES\_SIMILARITY>  (552) 
0.90400000000000003

>  <r_sd_BIOSOLVEIT.LOGP>  (552) 
4.0994999999999999

>  <r_sd_BIOSOLVEIT.MOLECULAR\_WEIGHT>  (552) 
438.322

>  <r_sd_BIOSOLVEIT.TPSA>  (552) 
47.32

>  <i_epik_Tot_Q>  (552) 
1

>  <i_epik_Tot_abs_Q>  (552) 
1

>  <i_f3d_flags>  (552) 
0

>  <i_i_glide_confnum>  (552) 
3

>  <i_i_glide_lignum>  (552) 
673

>  <i_i_glide_posenum>  (552) 
7

>  <i_i_glide_rotatable_bonds>  (552) 
6

>  <i_lp_mmshare_version>  (552) 
65135

>  <i_m_ct_format>  (552) 
2

>  <i_m_source_file_index>  (552) 
1815

>  <i_qp_#NandO>  (552) 
4

>  <i_qp_#acid>  (552) 
0

>  <i_qp_#amide>  (552) 
0

>  <i_qp_#amidine>  (552) 
0

>  <i_qp_#amine>  (552) 
1

>  <i_qp_#in34>  (552) 
0

>  <i_qp_#in56>  (552) 
23

>  <i_qp_#metab>  (552) 
5

>  <i_qp_#nonHatm>  (552) 
28

>  <i_qp_#noncon>  (552) 
0

>  <i_qp_#ringatoms>  (552) 
23

>  <i_qp_#rotor>  (552) 
4

>  <i_qp_#rtvFG>  (552) 
0

>  <i_qp_#stars>  (552) 
1

>  <i_qp_CNS>  (552) 
1

>  <i_qp_HumanOralAbsorption>  (552) 
3

>  <i_qp_RuleOfFive>  (552) 
0

>  <i_qp_RuleOfThree>  (552) 
0

>  <i_sd_BIOSOLVEIT.INFINISEE\_REAGENT1\_NAME>  (552) 
18237028

>  <i_sd_BIOSOLVEIT.INFINISEE\_REAGENT2\_NAME>  (552) 
7547806

>  <i_sd_BIOSOLVEIT.INFINISEE\_RESULT\_RANK>  (552) 
78785

>  <i_sd_version>  (552) 
0

>  <b_lp_Chiralities_Consistent>  (552) 
1

>  <b_sd_chiral_flag>  (552) 
0

>  <canonical_id>  (552) 
ATP-HTVS-5589B4ED8BC3

>  <compound_code>  (552) 
58051

>  <title>  (552) 
m_270004dbb____18237028____7547806

>  <variant>  (552) 
58051-1

>  <source_file>  (552) 
运行/运行/ATP-VSW/ATP-VSW-DOCK_HTVS_1-003_lib/ATP-VSW-DOCK_HTVS_1-003_lib.mae

>  <canonical_smiles>  (552) 
Fc1cccc(Br)c1C[NH2+]Cc1cn(-c2ccccc2)nc1-c1ccncc1

>  <scaffold>  (552) 
c1ccc(C[NH2+]Cc2cn(-c3ccccc3)nc2-c2ccncc2)cc1

>  <molecular_formula>  (552) 
C22H19BrFN4+

$$$$
ATP-HTVS-559A97C754E4
     RDKit          3D

 56 58  0  0  0  0  0  0  0  0999 V2000
  197.1338  185.2997  149.8563 S   0  0  0  0  0  0  0  0  0  0  0  0
  197.8426  183.7441  150.2157 C   0  0  0  0  0  0  0  0  0  0  0  0
  198.5753  183.7972  151.3324 N   0  0  0  0  0  0  0  0  0  0  0  0
  198.6409  185.0674  151.8878 C   0  0  0  0  0  0  0  0  0  0  0  0
  197.9714  186.0093  151.1617 C   0  0  0  0  0  0  0  0  0  0  0  0
  199.3957  185.2536  153.1807 C   0  0  1  0  0  0  0  0  0  0  0  0
  198.4292  185.2022  154.2985 N   0  0  1  0  0  0  0  0  0  0  0  0
  199.0126  185.6280  155.5871 C   0  0  1  0  0  0  0  0  0  0  0  0
  198.0109  185.5010  156.7144 C   0  0  0  0  0  0  0  0  0  0  0  0
  197.7882  184.2463  157.3040 C   0  0  0  0  0  0  0  0  0  0  0  0
  196.8235  184.0854  158.3240 C   0  0  0  0  0  0  0  0  0  0  0  0
  196.1120  185.2247  158.7789 C   0  0  0  0  0  0  0  0  0  0  0  0
  196.3525  186.4839  158.2044 C   0  0  0  0  0  0  0  0  0  0  0  0
  197.2954  186.6261  157.1639 C   0  0  0  0  0  0  0  0  0  0  0  0
  196.5425  182.7059  158.8972 C   0  0  1  0  0  0  0  0  0  0  0  0
  195.7063  181.8398  158.0027 N   0  0  1  0  0  0  0  0  0  0  0  0
  194.2618  182.1208  158.1331 C   0  0  2  0  0  0  0  0  0  0  0  0
  196.1337  181.8070  156.5870 C   0  0  2  0  0  0  0  0  0  0  0  0
  197.6558  182.5576  149.3330 C   0  0  1  0  0  0  0  0  0  0  0  0
  198.7995  182.4072  148.4903 O   0  0  0  0  0  0  0  0  0  0  0  0
  199.0237  183.3081  147.4740 C   0  0  0  0  0  0  0  0  0  0  0  0
  200.2235  183.1566  146.7138 C   0  0  0  0  0  0  0  0  0  0  0  0
  200.5537  184.0935  145.7135 C   0  0  0  0  0  0  0  0  0  0  0  0
  199.7195  185.2145  145.4982 C   0  0  0  0  0  0  0  0  0  0  0  0
  198.5299  185.3569  146.2479 C   0  0  0  0  0  0  0  0  0  0  0  0
  198.1479  184.3756  147.1696 C   0  0  0  0  0  0  0  0  0  0  0  0
  200.0485  186.2351  144.4204 C   0  0  2  0  0  0  0  0  0  0  0  0
  197.6423  185.8011  154.0775 H   0  0  0  0  0  0  0  0  0  0  0  0
  197.9464  187.0639  151.4216 H   0  0  0  0  0  0  0  0  0  0  0  0
  200.1716  184.4799  153.3137 H   0  0  0  0  0  0  0  0  0  0  0  0
  199.8921  186.2242  153.1568 H   0  0  0  0  0  0  0  0  0  0  0  0
  199.8906  185.0188  155.7989 H   0  0  0  0  0  0  0  0  0  0  0  0
  199.3469  186.6618  155.4978 H   0  0  0  0  0  0  0  0  0  0  0  0
  198.3442  183.3905  156.9478 H   0  0  0  0  0  0  0  0  0  0  0  0
  195.3712  185.1229  159.5594 H   0  0  0  0  0  0  0  0  0  0  0  0
  195.8156  187.3514  158.5603 H   0  0  0  0  0  0  0  0  0  0  0  0
  197.4711  187.5991  156.7252 H   0  0  0  0  0  0  0  0  0  0  0  0
  197.4987  182.2169  159.0952 H   0  0  0  0  0  0  0  0  0  0  0  0
  196.0584  182.8058  159.8729 H   0  0  0  0  0  0  0  0  0  0  0  0
  194.0295  183.1324  157.8021 H   0  0  0  0  0  0  0  0  0  0  0  0
  193.9384  182.0084  159.1682 H   0  0  0  0  0  0  0  0  0  0  0  0
  193.6847  181.4178  157.5294 H   0  0  0  0  0  0  0  0  0  0  0  0
  196.0227  182.7835  156.1201 H   0  0  0  0  0  0  0  0  0  0  0  0
  195.5175  181.1178  156.0060 H   0  0  0  0  0  0  0  0  0  0  0  0
  197.1737  181.4830  156.5173 H   0  0  0  0  0  0  0  0  0  0  0  0
  197.5510  181.6890  149.9634 H   0  0  0  0  0  0  0  0  0  0  0  0
  196.7384  182.6595  148.7594 H   0  0  0  0  0  0  0  0  0  0  0  0
  200.8815  182.3022  146.8894 H   0  0  0  0  0  0  0  0  0  0  0  0
  201.4390  183.9499  145.0946 H   0  0  0  0  0  0  0  0  0  0  0  0
  197.8966  186.2133  146.1013 H   0  0  0  0  0  0  0  0  0  0  0  0
  197.1927  184.4880  147.6508 H   0  0  0  0  0  0  0  0  0  0  0  0
  199.5152  187.1733  144.5947 H   0  0  0  0  0  0  0  0  0  0  0  0
  199.7446  185.8419  143.4454 H   0  0  0  0  0  0  0  0  0  0  0  0
  201.1216  186.4405  144.4132 H   0  0  0  0  0  0  0  0  0  0  0  0
  195.8171  180.8850  158.3091 H   0  0  0  0  0  0  0  0  0  0  0  0
  198.0801  184.2550  154.3687 H   0  0  0  0  0  0  0  0  0  0  0  0
  1  2  1  0
  1  5  1  0
  2  3  2  0
  2 19  1  0
  3  4  1  0
  4  5  2  0
  4  6  1  0
  5 29  1  0
  6  7  1  0
  6 30  1  1
  6 31  1  0
  7  8  1  0
  7 28  1  6
  7 56  1  0
  8  9  1  0
  8 32  1  1
  8 33  1  0
  9 10  2  0
  9 14  1  0
 10 11  1  0
 10 34  1  0
 11 12  2  0
 11 15  1  0
 12 13  1  0
 12 35  1  0
 13 14  2  0
 13 36  1  0
 14 37  1  0
 15 16  1  0
 15 38  1  1
 15 39  1  0
 16 17  1  0
 16 18  1  0
 16 55  1  1
 17 40  1  6
 17 41  1  0
 17 42  1  0
 18 43  1  6
 18 44  1  0
 18 45  1  0
 19 20  1  0
 19 46  1  1
 19 47  1  0
 20 21  1  0
 21 22  1  0
 21 26  2  0
 22 23  2  0
 22 48  1  0
 23 24  1  0
 23 49  1  0
 24 25  2  0
 24 27  1  0
 25 26  1  0
 25 50  1  0
 26 51  1  0
 27 52  1  1
 27 53  1  0
 27 54  1  0
M  CHG  2   7   1  16   1
M  END
>  <s_epik_cmdline>  (553) 
J2VwaWtfcHl0aG9uJywgJy1waCcsICc3LjAwMDAwMCcsICctcGh0JywgJzIuMDAwMDAwJywgJy1tcycsICcxNicsICctdG4nLCAnOCcsICctbWEnLCAnMjAwJywgJy1pbWFlJywgJzxpbmZpbGUubWFlPicsICctb21hZScsICc8b3V0ZmlsZS5tYWU+Jw==

>  <s_epik_input>  (553) 
W2NIXTFbY0hdYyhbQ0gzXSlbY0hdW2NIXWMxT1tDSDJdYzJzW2NIXWMobjIpW0NIMl1bTkhdW0NIMl1jM1tjSF1jKFtjSF1bY0hdW2NIXTMpW0NIMl1OKFtDSDNdKVtDSDNd

>  <s_i_glide_gridfile>  (553) 
ATP-Grid

>  <s_lp_Force_Field>  (553) 
OPLS_2005

>  <s_lp_Variant>  (553) 
m_270004bbb____8349656____7548986-1

>  <s_lp_label>  (553) 
724_sdstereoexpander_1_neutralizer_1_epik_1_stereoizer_1

>  <s_m_source_file>  (553) 
ATP-VSW-LIGPREP-001-in.maegz

>  <s_sd_BIOSOLVEIT.INFINISEE\_QUERY\_NAME>  (553) 
Ref-Lig

>  <s_sd_BIOSOLVEIT.INFINISEE\_QUERY\_SMILES>  (553) 
S(c1nc2c(cc1C[NH2+]Cc3ccc(cc3)C[NH+](C)C)cccc2)Cc4ccccc4

>  <s_sd_BIOSOLVEIT.INFINISEE\_REACTION\_NAME>  (553) 
m_270004bbb

>  <s_sd_BIOSOLVEIT.INFINISEE\_REAGENT1\_SMILES>  (553) 
[R1*]NCc1cc(ccc1)CN(C)C

>  <s_sd_BIOSOLVEIT.INFINISEE\_REAGENT2\_SMILES>  (553) 
[R1*]CC=1N=C(SC1)COc2ccc(cc2)C

>  <s_sd_BIOSOLVEIT.INFINISEE\_SPACE>  (553) 
REALSpace_44bn_2023-08

>  <s_vsw_compound_code>  (553) 
23137

>  <s_vsw_variant>  (553) 
23137-1

>  <r_epik_Charging_Adjusted_Penalty>  (553) 
0.43793549869592902

>  <r_epik_Ionization_Penalty>  (553) 
0.22059999999999999

>  <r_epik_Ionization_Penalty_Charging>  (553) 
0.22059999999999999

>  <r_epik_Ionization_Penalty_Neutral>  (553) 
0

>  <r_epik_State_Penalty>  (553) 
0.21729999999999999

>  <r_i_docking_score>  (553) 
-4.5902211716587402

>  <r_i_glide_ecoul>  (553) 
-11.288816452026399

>  <r_i_glide_eff_state_penalty>  (553) 
0.21729999999999999

>  <r_i_glide_einternal>  (553) 
1.9083845615387001

>  <r_i_glide_emodel>  (553) 
-56.997380133878998

>  <r_i_glide_energy>  (553) 
-37.598981857299798

>  <r_i_glide_erotb>  (553) 
1.05679400597813

>  <r_i_glide_esite>  (553) 
-0.10000000000000001

>  <r_i_glide_evdw>  (553) 
-26.310165405273398

>  <r_i_glide_gscore>  (553) 
-4.80752117165874

>  <r_i_glide_hbond>  (553) 
-0.181863717054908

>  <r_i_glide_ligand_efficiency>  (553) 
-0.17000819154291599

>  <r_i_glide_ligand_efficiency_ln>  (553) 
-1.0685278130517599

>  <r_i_glide_ligand_efficiency_sa>  (553) 
-0.51002457406843005

>  <r_i_glide_lipo>  (553) 
-1.55465135887797

>  <r_i_glide_metal>  (553) 
-0

>  <r_i_glide_rewards>  (553) 
-1.0189693636363599

>  <r_lp_Energy>  (553) 
15.93117

>  <r_lp_tautomer_probability>  (553) 
1

>  <r_qp_ACxDN^.5/SA>  (553) 
0.0073089000000000001

>  <r_qp_CIQPlogS>  (553) 
-3.5950000000000002

>  <r_qp_EA(eV)>  (553) 
0.70999999999999996

>  <r_qp_FISA>  (553) 
24.154

>  <r_qp_FOSA>  (553) 
378.75799999999998

>  <r_qp_IP(eV)>  (553) 
8.8239999999999998

>  <r_qp_Jm>  (553) 
0.00059186460321954202

>  <r_qp_PISA>  (553) 
333.56

>  <r_qp_PSA>  (553) 
37.759

>  <r_qp_PercentHumanOralAbsorption>  (553) 
100

>  <r_qp_QPPCaco>  (553) 
363.62200000000001

>  <r_qp_QPPMDCK>  (553) 
382.35000000000002

>  <r_qp_QPlogBB>  (553) 
0.65700000000000003

>  <r_qp_QPlogHERG>  (553) 
-8.5839999999999996

>  <r_qp_QPlogKhsa>  (553) 
0.76000000000000001

>  <r_qp_QPlogKp>  (553) 
-4.0510000000000002

>  <r_qp_QPlogPC16>  (553) 
14.177

>  <r_qp_QPlogPo/w>  (553) 
4.7119999999999997

>  <r_qp_QPlogPoct>  (553) 
19.126999999999999

>  <r_qp_QPlogPw>  (553) 
9.2059999999999995

>  <r_qp_QPlogS>  (553) 
-4.7590000000000003

>  <r_qp_QPpolrz>  (553) 
45.426000000000002

>  <r_qp_SASA>  (553) 
786.71600000000001

>  <r_qp_SAamideO>  (553) 
0

>  <r_qp_SAfluorine>  (553) 
0

>  <r_qp_WPSA>  (553) 
50.244

>  <r_qp_accptHB>  (553) 
5.75

>  <r_qp_dip^2/V>  (553) 
0.0038633000000000001

>  <r_qp_dipole>  (553) 
2.2869999999999999

>  <r_qp_donorHB>  (553) 
1

>  <r_qp_glob>  (553) 
0.75223329999999999

>  <r_qp_mol_MW>  (553) 
381.53500000000003

>  <r_qp_volume>  (553) 
1353.6559999999999

>  <r_sd_BIOSOLVEIT.INFINISEE\_FTREES\_SIMILARITY>  (553) 
0.92800000000000005

>  <r_sd_BIOSOLVEIT.LOGP>  (553) 
1.93862

>  <r_sd_BIOSOLVEIT.MOLECULAR\_WEIGHT>  (553) 
383.55599999999998

>  <r_sd_BIOSOLVEIT.TPSA>  (553) 
43.170000000000002

>  <i_epik_Tot_Q>  (553) 
2

>  <i_epik_Tot_abs_Q>  (553) 
2

>  <i_f3d_flags>  (553) 
0

>  <i_i_glide_confnum>  (553) 
1

>  <i_i_glide_lignum>  (553) 
105

>  <i_i_glide_posenum>  (553) 
16

>  <i_i_glide_rotatable_bonds>  (553) 
9

>  <i_lp_mmshare_version>  (553) 
65135

>  <i_m_ct_format>  (553) 
2

>  <i_m_source_file_index>  (553) 
724

>  <i_qp_#NandO>  (553) 
4

>  <i_qp_#acid>  (553) 
0

>  <i_qp_#amide>  (553) 
0

>  <i_qp_#amidine>  (553) 
0

>  <i_qp_#amine>  (553) 
2

>  <i_qp_#in34>  (553) 
0

>  <i_qp_#in56>  (553) 
17

>  <i_qp_#metab>  (553) 
9

>  <i_qp_#nonHatm>  (553) 
27

>  <i_qp_#noncon>  (553) 
0

>  <i_qp_#ringatoms>  (553) 
17

>  <i_qp_#rotor>  (553) 
9

>  <i_qp_#rtvFG>  (553) 
0

>  <i_qp_#stars>  (553) 
1

>  <i_qp_CNS>  (553) 
2

>  <i_qp_HumanOralAbsorption>  (553) 
3

>  <i_qp_RuleOfFive>  (553) 
0

>  <i_qp_RuleOfThree>  (553) 
1

>  <i_sd_BIOSOLVEIT.INFINISEE\_REAGENT1\_NAME>  (553) 
8349656

>  <i_sd_BIOSOLVEIT.INFINISEE\_REAGENT2\_NAME>  (553) 
7548986

>  <i_sd_BIOSOLVEIT.INFINISEE\_RESULT\_RANK>  (553) 
6052

>  <i_sd_version>  (553) 
0

>  <b_lp_Chiralities_Consistent>  (553) 
1

>  <b_sd_chiral_flag>  (553) 
0

>  <canonical_id>  (553) 
ATP-HTVS-559A97C754E4

>  <compound_code>  (553) 
23137

>  <title>  (553) 
m_270004bbb____8349656____7548986

>  <variant>  (553) 
23137-1

>  <source_file>  (553) 
运行/运行/ATP-VSW/ATP-VSW-DOCK_HTVS_1-001_lib/ATP-VSW-DOCK_HTVS_1-001_lib

>  <canonical_smiles>  (553) 
Cc1ccc(OCc2nc(C[NH2+]Cc3cccc(C[NH+](C)C)c3)cs2)cc1

>  <scaffold>  (553) 
c1ccc(C[NH2+]Cc2csc(COc3ccccc3)n2)cc1

>  <molecular_formula>  (553) 
C22H29N3OS+2

$$$$
ATP-HTVS-55C340552E65
     RDKit          3D

 53 56  0  0  0  0  0  0  0  0999 V2000
  201.1711  179.0423  157.2713 O   0  0  0  0  0  0  0  0  0  0  0  0
  200.6295  178.6887  156.2189 C   0  0  0  0  0  0  0  0  0  0  0  0
  199.7719  179.4301  155.5103 N   0  0  0  0  0  0  0  0  0  0  0  0
  199.2945  180.7460  155.7441 C   0  0  0  0  0  0  0  0  0  0  0  0
  199.6231  181.4450  156.8564 N   0  0  0  0  0  0  0  0  0  0  0  0
  199.1276  182.6785  157.0542 C   0  0  0  0  0  0  0  0  0  0  0  0
  198.2765  183.2967  156.1055 C   0  0  0  0  0  0  0  0  0  0  0  0
  197.9359  182.5826  154.9404 C   0  0  0  0  0  0  0  0  0  0  0  0
  198.4489  181.2863  154.7378 C   0  0  0  0  0  0  0  0  0  0  0  0
  198.0839  180.5513  153.5054 C   0  0  0  0  0  0  0  0  0  0  0  0
  196.7260  180.3264  153.1874 C   0  0  0  0  0  0  0  0  0  0  0  0
  196.3639  179.6356  152.0133 C   0  0  0  0  0  0  0  0  0  0  0  0
  197.3574  179.1583  151.1391 C   0  0  0  0  0  0  0  0  0  0  0  0
  198.7147  179.3716  151.4440 C   0  0  0  0  0  0  0  0  0  0  0  0
  199.0726  180.0722  152.6140 C   0  0  0  0  0  0  0  0  0  0  0  0
  197.7847  184.5975  156.3174 C   0  0  0  0  0  0  0  0  0  0  0  0
  198.1374  185.2959  157.4881 C   0  0  0  0  0  0  0  0  0  0  0  0
  198.9724  184.6885  158.4450 C   0  0  0  0  0  0  0  0  0  0  0  0
  199.4630  183.3898  158.2246 C   0  0  0  0  0  0  0  0  0  0  0  0
  200.8625  177.3098  155.6533 C   0  0  0  0  0  0  0  0  0  0  0  0
  201.4911  176.3394  156.4601 C   0  0  0  0  0  0  0  0  0  0  0  0
  201.7249  175.0346  155.9892 C   0  0  0  0  0  0  0  0  0  0  0  0
  201.3826  174.6985  154.6615 C   0  0  0  0  0  0  0  0  0  0  0  0
  200.7547  175.6624  153.8384 C   0  0  0  0  0  0  0  0  0  0  0  0
  200.4946  176.9612  154.3290 C   0  0  0  0  0  0  0  0  0  0  0  0
  201.6802  173.2968  154.1410 C   0  0  1  0  0  0  0  0  0  0  0  0
  203.1321  173.0404  153.9116 N   0  0  1  0  0  0  0  0  0  0  0  0
  203.6524  173.7232  152.7049 C   0  0  2  0  0  0  0  0  0  0  0  0
  204.0047  173.2751  155.0854 C   0  0  2  0  0  0  0  0  0  0  0  0
  199.4124  179.0063  154.6728 H   0  0  0  0  0  0  0  0  0  0  0  0
  197.2870  183.0261  154.1988 H   0  0  0  0  0  0  0  0  0  0  0  0
  195.9509  180.6845  153.8481 H   0  0  0  0  0  0  0  0  0  0  0  0
  195.3211  179.4736  151.7854 H   0  0  0  0  0  0  0  0  0  0  0  0
  197.0826  178.6284  150.2383 H   0  0  0  0  0  0  0  0  0  0  0  0
  199.4826  179.0040  150.7774 H   0  0  0  0  0  0  0  0  0  0  0  0
  200.1196  180.2391  152.8238 H   0  0  0  0  0  0  0  0  0  0  0  0
  197.1461  185.0665  155.5824 H   0  0  0  0  0  0  0  0  0  0  0  0
  197.7666  186.2961  157.6536 H   0  0  0  0  0  0  0  0  0  0  0  0
  199.2422  185.2189  159.3471 H   0  0  0  0  0  0  0  0  0  0  0  0
  200.1038  182.9185  158.9545 H   0  0  0  0  0  0  0  0  0  0  0  0
  201.8086  176.5977  157.4606 H   0  0  0  0  0  0  0  0  0  0  0  0
  202.1608  174.3073  156.6474 H   0  0  0  0  0  0  0  0  0  0  0  0
  200.4729  175.4234  152.8205 H   0  0  0  0  0  0  0  0  0  0  0  0
  200.0225  177.6659  153.6613 H   0  0  0  0  0  0  0  0  0  0  0  0
  201.2834  172.5479  154.8410 H   0  0  0  0  0  0  0  0  0  0  0  0
  201.1339  173.1305  153.2074 H   0  0  0  0  0  0  0  0  0  0  0  0
  203.5957  174.8076  152.8125 H   0  0  0  0  0  0  0  0  0  0  0  0
  203.0950  173.4361  151.8112 H   0  0  0  0  0  0  0  0  0  0  0  0
  204.6975  173.4587  152.5396 H   0  0  0  0  0  0  0  0  0  0  0  0
  204.0020  174.3300  155.3722 H   0  0  0  0  0  0  0  0  0  0  0  0
  205.0332  172.9283  154.8905 H   0  0  0  0  0  0  0  0  0  0  0  0
  203.6488  172.6972  155.9293 H   0  0  0  0  0  0  0  0  0  0  0  0
  203.1779  172.0453  153.7326 H   0  0  0  0  0  0  0  0  0  0  0  0
  1  2  2  0
  2  3  1  0
  2 20  1  0
  3  4  1  0
  3 30  1  0
  4  5  2  0
  4  9  1  0
  5  6  1  0
  6  7  1  0
  6 19  2  0
  7  8  1  0
  7 16  2  0
  8  9  2  0
  8 31  1  0
  9 10  1  0
 10 11  2  0
 10 15  1  0
 11 12  1  0
 11 32  1  0
 12 13  2  0
 12 33  1  0
 13 14  1  0
 13 34  1  0
 14 15  2  0
 14 35  1  0
 15 36  1  0
 16 17  1  0
 16 37  1  0
 17 18  2  0
 17 38  1  0
 18 19  1  0
 18 39  1  0
 19 40  1  0
 20 21  1  0
 20 25  2  0
 21 22  2  0
 21 41  1  0
 22 23  1  0
 22 42  1  0
 23 24  2  0
 23 26  1  0
 24 25  1  0
 24 43  1  0
 25 44  1  0
 26 27  1  0
 26 45  1  1
 26 46  1  0
 27 28  1  0
 27 29  1  0
 27 53  1  6
 28 47  1  1
 28 48  1  0
 28 49  1  0
 29 50  1  1
 29 51  1  0
 29 52  1  0
M  CHG  1  27   1
M  END
>  <s_epik_cmdline>  (554) 
J2VwaWtfcHl0aG9uJywgJy1waCcsICc3LjAwMDAwMCcsICctcGh0JywgJzIuMDAwMDAwJywgJy1tcycsICcxNicsICctdG4nLCAnOCcsICctbWEnLCAnMjAwJywgJy1pbWFlJywgJzxpbmZpbGUubWFlPicsICctb21hZScsICc8b3V0ZmlsZS5tYWU+Jw==

>  <s_epik_input>  (554) 
W0NIM11OKFtDSDNdKVtDSDJdYyhbY0hdW2NIXTEpW2NIXVtjSF1jMUMoPU8pW05IXWMobjIpYyhbY0hdYyhjMjMpW2NIXVtjSF1bY0hdW2NIXTMpLWM0W2NIXVtjSF1bY0hdW2NIXVtjSF00

>  <s_i_glide_gridfile>  (554) 
ATP-Grid

>  <s_lp_Force_Field>  (554) 
OPLS_2005

>  <s_lp_Variant>  (554) 
rxn501b____EMOL18624763____EMOL44466703____EMOL530468-1

>  <s_lp_label>  (554) 
2885_sdstereoexpander_1_neutralizer_1_epik_1_stereoizer_1

>  <s_m_source_file>  (554) 
ATP-VSW-LIGPREP-001-in.maegz

>  <s_sd_BIOSOLVEIT.INFINISEE\_QUERY\_NAME>  (554) 
Ref-Lig

>  <s_sd_BIOSOLVEIT.INFINISEE\_QUERY\_SMILES>  (554) 
S(c1nc2c(cc1C[NH2+]Cc3ccc(cc3)C[NH+](C)C)cccc2)Cc4ccccc4

>  <s_sd_BIOSOLVEIT.INFINISEE\_REACTION\_NAME>  (554) 
rxn501b

>  <s_sd_BIOSOLVEIT.INFINISEE\_REAGENT1\_NAME>  (554) 
EMOL18624763

>  <s_sd_BIOSOLVEIT.INFINISEE\_REAGENT1\_SMILES>  (554) 
O=C(O)c1ccc(cc1)CN(C)C

>  <s_sd_BIOSOLVEIT.INFINISEE\_REAGENT2\_NAME>  (554) 
EMOL44466703

>  <s_sd_BIOSOLVEIT.INFINISEE\_REAGENT2\_SMILES>  (554) 
Brc1c(nc2c(c1)cccc2)N

>  <s_sd_BIOSOLVEIT.INFINISEE\_REAGENT3\_NAME>  (554) 
EMOL530468

>  <s_sd_BIOSOLVEIT.INFINISEE\_REAGENT3\_SMILES>  (554) 
OB(O)c1ccccc1

>  <s_sd_BIOSOLVEIT.INFINISEE\_SPACE>  (554) 
eXplore_7tr_2022-12

>  <s_vsw_compound_code>  (554) 
92289

>  <s_vsw_variant>  (554) 
92289-1

>  <r_epik_Charging_Adjusted_Penalty>  (554) 
0.10433640840748

>  <r_epik_Ionization_Penalty>  (554) 
0.052200000000000003

>  <r_epik_Ionization_Penalty_Charging>  (554) 
0.052200000000000003

>  <r_epik_Ionization_Penalty_Neutral>  (554) 
0

>  <r_epik_State_Penalty>  (554) 
0.052200000000000003

>  <r_i_docking_score>  (554) 
-4.1659241907140201

>  <r_i_glide_ecoul>  (554) 
-5.3263058662414604

>  <r_i_glide_eff_state_penalty>  (554) 
0.052200000000000003

>  <r_i_glide_einternal>  (554) 
1.71259546279907

>  <r_i_glide_emodel>  (554) 
-46.289500293289699

>  <r_i_glide_energy>  (554) 
-34.851702213287403

>  <r_i_glide_erotb>  (554) 
0.66382409097296402

>  <r_i_glide_esite>  (554) 
-0.13865615274738199

>  <r_i_glide_evdw>  (554) 
-29.525396347045898

>  <r_i_glide_gscore>  (554) 
-4.2181241907140201

>  <r_i_glide_hbond>  (554) 
-0.20000000000000001

>  <r_i_glide_ligand_efficiency>  (554) 
-0.14365255830048301

>  <r_i_glide_ligand_efficiency_ln>  (554) 
-0.95389100095079205

>  <r_i_glide_ligand_efficiency_sa>  (554) 
-0.441346171424011

>  <r_i_glide_lipo>  (554) 
-1.24178706801473

>  <r_i_glide_metal>  (554) 
-0

>  <r_i_glide_rewards>  (554) 
-1.0262893636363599

>  <r_lp_Energy>  (554) 
30.780501999999998

>  <r_qp_ACxDN^.5/SA>  (554) 
0.0076112999999999997

>  <r_qp_CIQPlogS>  (554) 
-5.0410000000000004

>  <r_qp_EA(eV)>  (554) 
0.92000000000000004

>  <r_qp_FISA>  (554) 
53.109999999999999

>  <r_qp_FOSA>  (554) 
180.63200000000001

>  <r_qp_IP(eV)>  (554) 
8.6240000000000006

>  <r_qp_Jm>  (554) 
0.00734801169368239

>  <r_qp_PISA>  (554) 
488.86799999999999

>  <r_qp_PSA>  (554) 
49.225000000000001

>  <r_qp_PercentHumanOralAbsorption>  (554) 
100

>  <r_qp_QPPCaco>  (554) 
774.75

>  <r_qp_QPPMDCK>  (554) 
415.36200000000002

>  <r_qp_QPlogBB>  (554) 
0.098000000000000004

>  <r_qp_QPlogHERG>  (554) 
-7.9340000000000002

>  <r_qp_QPlogKhsa>  (554) 
0.82599999999999996

>  <r_qp_QPlogKp>  (554) 
-2.359

>  <r_qp_QPlogPC16>  (554) 
14.318

>  <r_qp_QPlogPo/w>  (554) 
4.7519999999999998

>  <r_qp_QPlogPoct>  (554) 
20.484999999999999

>  <r_qp_QPlogPw>  (554) 
10.923999999999999

>  <r_qp_QPlogS>  (554) 
-5.3570000000000002

>  <r_qp_QPpolrz>  (554) 
46.950000000000003

>  <r_qp_SASA>  (554) 
722.60900000000004

>  <r_qp_SAamideO>  (554) 
0

>  <r_qp_SAfluorine>  (554) 
0

>  <r_qp_WPSA>  (554) 
0

>  <r_qp_accptHB>  (554) 
5.5

>  <r_qp_dip^2/V>  (554) 
0.040093700000000003

>  <r_qp_dipole>  (554) 
7.1929999999999996

>  <r_qp_donorHB>  (554) 
1

>  <r_qp_glob>  (554) 
0.79329669999999997

>  <r_qp_mol_MW>  (554) 
381.476

>  <r_qp_volume>  (554) 
1290.509

>  <r_sd_BIOSOLVEIT.INFINISEE\_FTREES\_SIMILARITY>  (554) 
0.90500000000000003

>  <r_sd_BIOSOLVEIT.LOGP>  (554) 
3.7986

>  <r_sd_BIOSOLVEIT.MOLECULAR\_WEIGHT>  (554) 
382.48500000000001

>  <r_sd_BIOSOLVEIT.TPSA>  (554) 
46.43

>  <i_epik_Tot_Q>  (554) 
1

>  <i_epik_Tot_abs_Q>  (554) 
1

>  <i_f3d_flags>  (554) 
0

>  <i_i_glide_confnum>  (554) 
4

>  <i_i_glide_lignum>  (554) 
1329

>  <i_i_glide_posenum>  (554) 
1

>  <i_i_glide_rotatable_bonds>  (554) 
6

>  <i_lp_mmshare_version>  (554) 
65135

>  <i_m_ct_format>  (554) 
2

>  <i_m_source_file_index>  (554) 
2885

>  <i_qp_#NandO>  (554) 
4

>  <i_qp_#acid>  (554) 
0

>  <i_qp_#amide>  (554) 
0

>  <i_qp_#amidine>  (554) 
0

>  <i_qp_#amine>  (554) 
1

>  <i_qp_#in34>  (554) 
0

>  <i_qp_#in56>  (554) 
22

>  <i_qp_#metab>  (554) 
2

>  <i_qp_#nonHatm>  (554) 
29

>  <i_qp_#noncon>  (554) 
0

>  <i_qp_#ringatoms>  (554) 
22

>  <i_qp_#rotor>  (554) 
5

>  <i_qp_#rtvFG>  (554) 
0

>  <i_qp_#stars>  (554) 
1

>  <i_qp_CNS>  (554) 
1

>  <i_qp_HumanOralAbsorption>  (554) 
3

>  <i_qp_RuleOfFive>  (554) 
0

>  <i_qp_RuleOfThree>  (554) 
0

>  <i_sd_BIOSOLVEIT.INFINISEE\_RESULT\_RANK>  (554) 
73088

>  <i_sd_version>  (554) 
0

>  <b_lp_Chiralities_Consistent>  (554) 
1

>  <b_sd_chiral_flag>  (554) 
0

>  <canonical_id>  (554) 
ATP-HTVS-55C340552E65

>  <compound_code>  (554) 
92289

>  <title>  (554) 
rxn501b____EMOL18624763____EMOL44466703____EMOL530468

>  <variant>  (554) 
92289-1

>  <source_file>  (554) 
运行/运行/ATP-VSW/ATP-VSW-DOCK_HTVS_1-001_lib/ATP-VSW-DOCK_HTVS_1-001_lib

>  <canonical_smiles>  (554) 
C[NH+](C)Cc1ccc(C(=O)Nc2nc3ccccc3cc2-c2ccccc2)cc1

>  <scaffold>  (554) 
O=C(Nc1nc2ccccc2cc1-c1ccccc1)c1ccccc1

>  <molecular_formula>  (554) 
C25H24N3O+

$$$$
ATP-HTVS-560CD6AB75AE
     RDKit          3D

 51 54  0  0  0  0  0  0  0  0999 V2000
  197.2145  186.9743  155.7699 O   0  0  0  0  0  0  0  0  0  0  0  0
  197.8636  186.2271  156.5079 C   0  0  0  0  0  0  0  0  0  0  0  0
  199.0563  186.6573  156.9465 N   0  0  0  0  0  0  0  0  0  0  0  0
  199.9742  186.2011  157.9351 C   0  0  0  0  0  0  0  0  0  0  0  0
  199.7168  185.2351  158.9455 C   0  0  0  0  0  0  0  0  0  0  0  0
  200.7222  184.9420  159.8978 C   0  0  0  0  0  0  0  0  0  0  0  0
  201.9580  185.6174  159.8791 C   0  0  0  0  0  0  0  0  0  0  0  0
  202.1961  186.5936  158.8985 C   0  0  0  0  0  0  0  0  0  0  0  0
  201.2120  186.8800  157.9362 C   0  0  0  0  0  0  0  0  0  0  0  0
  198.3700  184.5412  159.0829 C   0  0  2  0  0  0  0  0  0  0  0  0
  197.9045  184.0036  157.8037 N   0  0  0  0  0  0  0  0  0  0  0  0
  198.3733  182.7823  157.3159 C   0  0  0  0  0  0  0  0  0  0  0  0
  197.4557  181.7912  156.8562 C   0  0  0  0  0  0  0  0  0  0  0  0
  197.9475  180.5651  156.3788 C   0  0  0  0  0  0  0  0  0  0  0  0
  199.3224  180.2737  156.3582 C   0  0  0  0  0  0  0  0  0  0  0  0
  200.2344  181.2384  156.8131 C   0  0  0  0  0  0  0  0  0  0  0  0
  199.7669  182.4765  157.2828 C   0  0  0  0  0  0  0  0  0  0  0  0
  195.9396  181.9784  156.8928 C   0  0  1  0  0  0  0  0  0  0  0  0
  195.3485  181.4351  158.1312 N   0  0  1  0  0  0  0  0  0  0  0  0
  193.8867  181.6367  158.2007 C   0  0  2  0  0  0  0  0  0  0  0  0
  197.1974  184.8987  156.8832 C   0  0  1  0  0  0  0  0  0  0  0  0
  197.3189  185.4568  159.7330 C   0  0  0  0  0  0  0  0  0  0  0  0
  196.0638  184.9163  160.1052 C   0  0  0  0  0  0  0  0  0  0  0  0
  195.0354  185.7576  160.5789 C   0  0  0  0  0  0  0  0  0  0  0  0
  195.2532  187.1438  160.7056 C   0  0  0  0  0  0  0  0  0  0  0  0
  196.4986  187.6893  160.3406 C   0  0  0  0  0  0  0  0  0  0  0  0
  197.5235  186.8574  159.8650 C   0  0  0  0  0  0  0  0  0  0  0  0
  195.5466  180.4262  158.1465 H   0  0  0  0  0  0  0  0  0  0  0  0
  199.2980  187.5501  156.5456 H   0  0  0  0  0  0  0  0  0  0  0  0
  200.5425  184.2217  160.6846 H   0  0  0  0  0  0  0  0  0  0  0  0
  202.6988  185.4174  160.6400 H   0  0  0  0  0  0  0  0  0  0  0  0
  203.1181  187.1556  158.9032 H   0  0  0  0  0  0  0  0  0  0  0  0
  201.3858  187.6702  157.2197 H   0  0  0  0  0  0  0  0  0  0  0  0
  198.5083  183.6795  159.7413 H   0  0  0  0  0  0  0  0  0  0  0  0
  197.2590  179.8001  156.0581 H   0  0  0  0  0  0  0  0  0  0  0  0
  199.6675  179.3102  156.0164 H   0  0  0  0  0  0  0  0  0  0  0  0
  201.2911  181.0079  156.8148 H   0  0  0  0  0  0  0  0  0  0  0  0
  200.5138  183.1864  157.6181 H   0  0  0  0  0  0  0  0  0  0  0  0
  195.6098  183.0189  156.8143 H   0  0  0  0  0  0  0  0  0  0  0  0
  195.5427  181.4522  156.0206 H   0  0  0  0  0  0  0  0  0  0  0  0
  193.4920  181.1654  159.1003 H   0  0  0  0  0  0  0  0  0  0  0  0
  193.4017  181.1845  157.3335 H   0  0  0  0  0  0  0  0  0  0  0  0
  193.6231  182.6991  158.2158 H   0  0  0  0  0  0  0  0  0  0  0  0
  196.2463  185.1634  157.3395 H   0  0  0  0  0  0  0  0  0  0  0  0
  196.9682  184.3968  155.9378 H   0  0  0  0  0  0  0  0  0  0  0  0
  195.8749  183.8579  159.9771 H   0  0  0  0  0  0  0  0  0  0  0  0
  194.0593  185.3546  160.8075 H   0  0  0  0  0  0  0  0  0  0  0  0
  194.4713  187.8029  161.0650 H   0  0  0  0  0  0  0  0  0  0  0  0
  196.6700  188.7550  160.3798 H   0  0  0  0  0  0  0  0  0  0  0  0
  198.4437  187.3483  159.5821 H   0  0  0  0  0  0  0  0  0  0  0  0
  195.7985  181.8679  158.9273 H   0  0  0  0  0  0  0  0  0  0  0  0
  1  2  2  0
  2  3  1  0
  2 21  1  0
  3  4  1  0
  3 29  1  0
  4  5  1  0
  4  9  2  0
  5  6  2  0
  5 10  1  0
  6  7  1  0
  6 30  1  0
  7  8  2  0
  7 31  1  0
  8  9  1  0
  8 32  1  0
  9 33  1  0
 10 11  1  0
 10 22  1  0
 10 34  1  1
 11 12  1  0
 11 21  1  0
 12 13  1  0
 12 17  2  0
 13 14  2  0
 13 18  1  0
 14 15  1  0
 14 35  1  0
 15 16  2  0
 15 36  1  0
 16 17  1  0
 16 37  1  0
 17 38  1  0
 18 19  1  0
 18 39  1  6
 18 40  1  0
 19 20  1  0
 19 28  1  1
 19 51  1  0
 20 41  1  1
 20 42  1  0
 20 43  1  0
 21 44  1  1
 21 45  1  0
 22 23  2  0
 22 27  1  0
 23 24  1  0
 23 46  1  0
 24 25  2  0
 24 47  1  0
 25 26  1  0
 25 48  1  0
 26 27  2  0
 26 49  1  0
 27 50  1  0
M  CHG  1  19   1
M  END
>  <s_epik_cmdline>  (555) 
J2VwaWtfcHl0aG9uJywgJy1waCcsICc3LjAwMDAwMCcsICctcGh0JywgJzIuMDAwMDAwJywgJy1tcycsICcxNicsICctdG4nLCAnOCcsICctbWEnLCAnMjAwJywgJy1pbWFlJywgJzxpbmZpbGUubWFlPicsICctb21hZScsICc8b3V0ZmlsZS5tYWU+Jw==

>  <s_epik_input>  (555) 
W2NIXTFbY0hdW2NIXVtjSF1jKFtDSDJdW05IXVtDSDNdKWMxTihbQ0gyXUMoPU8pW05IXTIpW0NAQEhdKGMoYzIzKVtjSF1bY0hdW2NIXVtjSF0zKWM0W2NIXVtjSF1bY0hdW2NIXVtjSF00

>  <s_i_glide_gridfile>  (555) 
ATP-Grid

>  <s_lp_Force_Field>  (555) 
OPLS_2005

>  <s_lp_Variant>  (555) 
rxn102c____EMOL480022____EMOL6185419-1

>  <s_lp_label>  (555) 
2930_sdstereoexpander_1_neutralizer_1_epik_1_stereoizer_1

>  <s_m_source_file>  (555) 
ATP-VSW-LIGPREP-002-in.maegz

>  <s_sd_BIOSOLVEIT.INFINISEE\_QUERY\_NAME>  (555) 
Ref-Lig

>  <s_sd_BIOSOLVEIT.INFINISEE\_QUERY\_SMILES>  (555) 
S(c1nc2c(cc1C[NH2+]Cc3ccc(cc3)C[NH+](C)C)cccc2)Cc4ccccc4

>  <s_sd_BIOSOLVEIT.INFINISEE\_REACTION\_NAME>  (555) 
rxn102c

>  <s_sd_BIOSOLVEIT.INFINISEE\_REAGENT1\_NAME>  (555) 
EMOL480022

>  <s_sd_BIOSOLVEIT.INFINISEE\_REAGENT1\_SMILES>  (555) 
Clc1c(cccc1)CNC

>  <s_sd_BIOSOLVEIT.INFINISEE\_REAGENT2\_NAME>  (555) 
EMOL6185419

>  <s_sd_BIOSOLVEIT.INFINISEE\_REAGENT2\_SMILES>  (555) 
O=C1Nc2c(cccc2)C(NC1)c3ccccc3

>  <s_sd_BIOSOLVEIT.INFINISEE\_SPACE>  (555) 
eXplore_7tr_2022-12

>  <s_vsw_compound_code>  (555) 
93730

>  <s_vsw_variant>  (555) 
93730-1

>  <r_epik_Charging_Adjusted_Penalty>  (555) 
0.034494142278650497

>  <r_epik_Ionization_Penalty>  (555) 
0.0172

>  <r_epik_Ionization_Penalty_Charging>  (555) 
0.0172

>  <r_epik_Ionization_Penalty_Neutral>  (555) 
0

>  <r_epik_State_Penalty>  (555) 
0.0172

>  <r_i_docking_score>  (555) 
-4.2884713249635498

>  <r_i_glide_ecoul>  (555) 
-12.7561025619507

>  <r_i_glide_eff_state_penalty>  (555) 
0.0172

>  <r_i_glide_einternal>  (555) 
0.49412441253662098

>  <r_i_glide_emodel>  (555) 
-52.264435824638603

>  <r_i_glide_energy>  (555) 
-36.794329643249498

>  <r_i_glide_erotb>  (555) 
0.447253222696117

>  <r_i_glide_esite>  (555) 
-0.10310253386704001

>  <r_i_glide_evdw>  (555) 
-24.0382270812988

>  <r_i_glide_gscore>  (555) 
-4.3056713249635497

>  <r_i_glide_hbond>  (555) 
-0.10788377776796999

>  <r_i_glide_ligand_efficiency>  (555) 
-0.15883227129494601

>  <r_i_glide_ligand_efficiency_ln>  (555) 
-0.99828542347614202

>  <r_i_glide_ligand_efficiency_sa>  (555) 
-0.47649681336135402

>  <r_i_glide_lipo>  (555) 
-1.50249274105021

>  <r_i_glide_metal>  (555) 
-0

>  <r_i_glide_rewards>  (555) 
0.075881243383090005

>  <r_lp_Energy>  (555) 
51.722496999999997

>  <r_qp_ACxDN^.5/SA>  (555) 
0.011655499999999999

>  <r_qp_CIQPlogS>  (555) 
-4.319

>  <r_qp_EA(eV)>  (555) 
0.23699999999999999

>  <r_qp_FISA>  (555) 
74.759

>  <r_qp_FOSA>  (555) 
108.71899999999999

>  <r_qp_IP(eV)>  (555) 
9.1859999999999999

>  <r_qp_Jm>  (555) 
0.0231039563881477

>  <r_qp_PISA>  (555) 
423.19299999999998

>  <r_qp_PSA>  (555) 
52.531999999999996

>  <r_qp_PercentHumanOralAbsorption>  (555) 
95.953000000000003

>  <r_qp_QPPCaco>  (555) 
482.899

>  <r_qp_QPPMDCK>  (555) 
249.18199999999999

>  <r_qp_QPlogBB>  (555) 
0.17299999999999999

>  <r_qp_QPlogHERG>  (555) 
-6.4880000000000004

>  <r_qp_QPlogKhsa>  (555) 
0.60299999999999998

>  <r_qp_QPlogKp>  (555) 
-3.2770000000000001

>  <r_qp_QPlogPC16>  (555) 
12.695

>  <r_qp_QPlogPo/w>  (555) 
3.5819999999999999

>  <r_qp_QPlogPoct>  (555) 
19.945

>  <r_qp_QPlogPw>  (555) 
11.978999999999999

>  <r_qp_QPlogS>  (555) 
-3.9119999999999999

>  <r_qp_QPpolrz>  (555) 
41.710000000000001

>  <r_qp_SASA>  (555) 
606.67200000000003

>  <r_qp_SAamideO>  (555) 
0

>  <r_qp_SAfluorine>  (555) 
0

>  <r_qp_WPSA>  (555) 
0

>  <r_qp_accptHB>  (555) 
5

>  <r_qp_dip^2/V>  (555) 
0.024486899999999999

>  <r_qp_dipole>  (555) 
5.2530000000000001

>  <r_qp_donorHB>  (555) 
2

>  <r_qp_glob>  (555) 
0.86334820000000001

>  <r_qp_mol_MW>  (555) 
357.45400000000001

>  <r_qp_volume>  (555) 
1127.0999999999999

>  <r_sd_BIOSOLVEIT.INFINISEE\_FTREES\_SIMILARITY>  (555) 
0.90400000000000003

>  <r_sd_BIOSOLVEIT.LOGP>  (555) 
2.9279000000000002

>  <r_sd_BIOSOLVEIT.MOLECULAR\_WEIGHT>  (555) 
358.46300000000002

>  <r_sd_BIOSOLVEIT.TPSA>  (555) 
48.950000000000003

>  <i_epik_Tot_Q>  (555) 
1

>  <i_epik_Tot_abs_Q>  (555) 
1

>  <i_f3d_flags>  (555) 
0

>  <i_i_glide_confnum>  (555) 
5

>  <i_i_glide_lignum>  (555) 
1462

>  <i_i_glide_posenum>  (555) 
16

>  <i_i_glide_rotatable_bonds>  (555) 
4

>  <i_lp_mmshare_version>  (555) 
65135

>  <i_m_ct_format>  (555) 
2

>  <i_m_source_file_index>  (555) 
2930

>  <i_qp_#NandO>  (555) 
4

>  <i_qp_#acid>  (555) 
0

>  <i_qp_#amide>  (555) 
0

>  <i_qp_#amidine>  (555) 
0

>  <i_qp_#amine>  (555) 
1

>  <i_qp_#in34>  (555) 
0

>  <i_qp_#in56>  (555) 
18

>  <i_qp_#metab>  (555) 
7

>  <i_qp_#nonHatm>  (555) 
27

>  <i_qp_#noncon>  (555) 
2

>  <i_qp_#ringatoms>  (555) 
23

>  <i_qp_#rotor>  (555) 
2

>  <i_qp_#rtvFG>  (555) 
0

>  <i_qp_#stars>  (555) 
0

>  <i_qp_CNS>  (555) 
1

>  <i_qp_HumanOralAbsorption>  (555) 
3

>  <i_qp_RuleOfFive>  (555) 
0

>  <i_qp_RuleOfThree>  (555) 
1

>  <i_sd_BIOSOLVEIT.INFINISEE\_RESULT\_RANK>  (555) 
78095

>  <i_sd_version>  (555) 
0

>  <b_lp_Chiralities_Consistent>  (555) 
1

>  <b_sd_chiral_flag>  (555) 
0

>  <canonical_id>  (555) 
ATP-HTVS-560CD6AB75AE

>  <compound_code>  (555) 
93730

>  <title>  (555) 
rxn102c____EMOL480022____EMOL6185419

>  <variant>  (555) 
93730-1

>  <source_file>  (555) 
运行/运行/ATP-VSW/ATP-VSW-DOCK_HTVS_1-002_lib.maegz

>  <canonical_smiles>  (555) 
C[NH2+]Cc1ccccc1N1CC(=O)Nc2ccccc2[C@H]1c1ccccc1

>  <scaffold>  (555) 
O=C1CN(c2ccccc2)C(c2ccccc2)c2ccccc2N1

>  <molecular_formula>  (555) 
C23H24N3O+

$$$$
ATP-HTVS-56362DCB1C38
     RDKit          3D

 60 63  0  0  0  0  0  0  0  0999 V2000
  195.5294  186.3809  160.9335 Cl  0  0  0  0  0  0  0  0  0  0  0  0
  195.2708  184.9565  159.9908 C   0  0  0  0  0  0  0  0  0  0  0  0
  193.9643  184.5200  159.6899 C   0  0  0  0  0  0  0  0  0  0  0  0
  193.6889  183.4457  158.9267 N   0  0  0  0  0  0  0  0  0  0  0  0
  194.7287  182.7118  158.4745 C   0  0  0  0  0  0  0  0  0  0  0  0
  196.0746  183.0516  158.7222 C   0  0  0  0  0  0  0  0  0  0  0  0
  196.3504  184.1965  159.5009 C   0  0  0  0  0  0  0  0  0  0  0  0
  197.1927  182.1758  158.1936 C   0  0  1  0  0  0  0  0  0  0  0  0
  197.1585  181.9693  156.7505 N   0  0  0  0  0  0  0  0  0  0  0  0
  197.9678  180.9900  156.1469 C   0  0  0  0  0  0  0  0  0  0  0  0
  198.8225  180.2826  156.9257 N   0  0  0  0  0  0  0  0  0  0  0  0
  199.5534  179.2922  156.3758 C   0  0  0  0  0  0  0  0  0  0  0  0
  199.4881  179.0484  154.9766 C   0  0  0  0  0  0  0  0  0  0  0  0
  198.7228  179.8298  154.1855 N   0  0  0  0  0  0  0  0  0  0  0  0
  197.8919  180.7298  154.7595 C   0  0  0  0  0  0  0  0  0  0  0  0
  196.9046  181.3373  153.9575 N   0  0  0  0  0  0  0  0  0  0  0  0
  196.8163  181.0394  152.5416 C   0  0  1  0  0  0  0  0  0  0  0  0
  196.4782  179.5538  152.2399 C   0  0  1  0  0  0  0  0  0  0  0  0
  196.9166  179.1688  150.8551 C   0  0  0  0  0  0  0  0  0  0  0  0
  196.0814  179.4673  149.7747 C   0  0  0  0  0  0  0  0  0  0  0  0
  196.4308  179.0360  148.4861 C   0  0  0  0  0  0  0  0  0  0  0  0
  197.6286  178.3174  148.2650 C   0  0  0  0  0  0  0  0  0  0  0  0
  198.4821  178.0362  149.3531 C   0  0  0  0  0  0  0  0  0  0  0  0
  198.1291  178.4731  150.6456 C   0  0  0  0  0  0  0  0  0  0  0  0
  198.0151  177.8910  146.8607 C   0  0  1  0  0  0  0  0  0  0  0  0
  199.1850  178.6480  146.3421 N   0  0  2  0  0  0  0  0  0  0  0  0
  199.0529  180.1217  146.4338 C   0  0  2  0  0  0  0  0  0  0  0  0
  199.5490  178.2263  144.9736 C   0  0  2  0  0  0  0  0  0  0  0  0
  200.2014  177.9676  154.4253 C   0  0  0  0  0  0  0  0  0  0  0  0
  201.0351  177.1651  155.2237 C   0  0  0  0  0  0  0  0  0  0  0  0
  201.1438  177.4305  156.6033 C   0  0  0  0  0  0  0  0  0  0  0  0
  200.3918  178.4775  157.1737 C   0  0  0  0  0  0  0  0  0  0  0  0
  193.1140  185.0798  160.0571 H   0  0  0  0  0  0  0  0  0  0  0  0
  194.4737  181.8475  157.8846 H   0  0  0  0  0  0  0  0  0  0  0  0
  197.3690  184.4859  159.7154 H   0  0  0  0  0  0  0  0  0  0  0  0
  198.1562  182.6140  158.4651 H   0  0  0  0  0  0  0  0  0  0  0  0
  197.1179  181.2135  158.7025 H   0  0  0  0  0  0  0  0  0  0  0  0
  196.4917  182.4937  156.2075 H   0  0  0  0  0  0  0  0  0  0  0  0
  196.1542  181.8491  154.4075 H   0  0  0  0  0  0  0  0  0  0  0  0
  196.0439  181.6791  152.1214 H   0  0  0  0  0  0  0  0  0  0  0  0
  197.7405  181.3762  152.0658 H   0  0  0  0  0  0  0  0  0  0  0  0
  196.9469  178.8046  152.8706 H   0  0  0  0  0  0  0  0  0  0  0  0
  195.4075  179.3952  152.3870 H   0  0  0  0  0  0  0  0  0  0  0  0
  195.1523  179.9880  149.9517 H   0  0  0  0  0  0  0  0  0  0  0  0
  195.7492  179.2462  147.6767 H   0  0  0  0  0  0  0  0  0  0  0  0
  199.4083  177.4939  149.2032 H   0  0  0  0  0  0  0  0  0  0  0  0
  198.7832  178.2457  151.4742 H   0  0  0  0  0  0  0  0  0  0  0  0
  198.2393  176.8228  146.8759 H   0  0  0  0  0  0  0  0  0  0  0  0
  197.1607  178.0223  146.1961 H   0  0  0  0  0  0  0  0  0  0  0  0
  198.2007  180.4658  145.8499 H   0  0  0  0  0  0  0  0  0  0  0  0
  199.9467  180.6150  146.0509 H   0  0  0  0  0  0  0  0  0  0  0  0
  198.9272  180.4546  147.4638 H   0  0  0  0  0  0  0  0  0  0  0  0
  198.7499  178.4726  144.2735 H   0  0  0  0  0  0  0  0  0  0  0  0
  199.7298  177.1515  144.9406 H   0  0  0  0  0  0  0  0  0  0  0  0
  200.4584  178.7197  144.6310 H   0  0  0  0  0  0  0  0  0  0  0  0
  200.0971  177.7563  153.3805 H   0  0  0  0  0  0  0  0  0  0  0  0
  201.6155  176.3734  154.7689 H   0  0  0  0  0  0  0  0  0  0  0  0
  201.8374  176.8549  157.2031 H   0  0  0  0  0  0  0  0  0  0  0  0
  200.4758  178.6605  158.2359 H   0  0  0  0  0  0  0  0  0  0  0  0
  199.9643  178.3954  146.9323 H   0  0  0  0  0  0  0  0  0  0  0  0
  1  2  1  0
  2  3  1  0
  2  7  2  0
  3  4  2  0
  3 33  1  0
  4  5  1  0
  5  6  2  0
  5 34  1  0
  6  7  1  0
  6  8  1  0
  7 35  1  0
  8  9  1  0
  8 36  1  6
  8 37  1  0
  9 10  1  0
  9 38  1  0
 10 11  2  0
 10 15  1  0
 11 12  1  0
 12 13  1  0
 12 32  2  0
 13 14  1  0
 13 29  2  0
 14 15  2  0
 15 16  1  0
 16 17  1  0
 16 39  1  0
 17 18  1  0
 17 40  1  6
 17 41  1  0
 18 19  1  0
 18 42  1  1
 18 43  1  0
 19 20  1  0
 19 24  2  0
 20 21  2  0
 20 44  1  0
 21 22  1  0
 21 45  1  0
 22 23  2  0
 22 25  1  0
 23 24  1  0
 23 46  1  0
 24 47  1  0
 25 26  1  0
 25 48  1  1
 25 49  1  0
 26 27  1  0
 26 28  1  0
 26 60  1  1
 27 50  1  6
 27 51  1  0
 27 52  1  0
 28 53  1  6
 28 54  1  0
 28 55  1  0
 29 30  1  0
 29 56  1  0
 30 31  2  0
 30 57  1  0
 31 32  1  0
 31 58  1  0
 32 59  1  0
M  CHG  1  26   1
M  END
>  <s_epik_cmdline>  (556) 
J2VwaWtfcHl0aG9uJywgJy1waCcsICc3LjAwMDAwMCcsICctcGh0JywgJzIuMDAwMDAwJywgJy1tcycsICcxNicsICctdG4nLCAnOCcsICctbWEnLCAnMjAwJywgJy1pbWFlJywgJzxpbmZpbGUubWFlPicsICctb21hZScsICc8b3V0ZmlsZS5tYWU+Jw==

>  <s_epik_input>  (556) 
Q2xjMVtjSF1uW2NIXWMoW2NIXTEpW0NIMl1bTkhdYyhuMiljKG5jKGMyMylbY0hdW2NIXVtjSF1bY0hdMylbTkhdW0NIMl1bQ0gyXWM0W2NIXVtjSF1jKFtjSF1bY0hdNClbQ0gyXU4oW0NIM10pW0NIM10=

>  <s_i_glide_gridfile>  (556) 
ATP-Grid

>  <s_lp_Force_Field>  (556) 
OPLS_2005

>  <s_lp_Variant>  (556) 
m_282030aaa____21926464____23157418____21950004-1

>  <s_lp_label>  (556) 
1776_sdstereoexpander_1_neutralizer_1_epik_1_stereoizer_1

>  <s_m_source_file>  (556) 
ATP-VSW-LIGPREP-002-in.maegz

>  <s_sd_BIOSOLVEIT.INFINISEE\_QUERY\_NAME>  (556) 
Ref-Lig

>  <s_sd_BIOSOLVEIT.INFINISEE\_QUERY\_SMILES>  (556) 
S(c1nc2c(cc1C[NH2+]Cc3ccc(cc3)C[NH+](C)C)cccc2)Cc4ccccc4

>  <s_sd_BIOSOLVEIT.INFINISEE\_REACTION\_NAME>  (556) 
m_282030aaa

>  <s_sd_BIOSOLVEIT.INFINISEE\_REAGENT1\_SMILES>  (556) 
[R1*]NCCc1ccc(cc1)CN(C)C

>  <s_sd_BIOSOLVEIT.INFINISEE\_REAGENT2\_SMILES>  (556) 
[R1*]c1nc2c(nc1[R2*])cccc2

>  <s_sd_BIOSOLVEIT.INFINISEE\_REAGENT3\_SMILES>  (556) 
[R2*]NCc1cncc(Cl)c1

>  <s_sd_BIOSOLVEIT.INFINISEE\_SPACE>  (556) 
REALSpace_44bn_2023-08

>  <s_vsw_compound_code>  (556) 
56802

>  <s_vsw_variant>  (556) 
56802-1

>  <r_epik_Charging_Adjusted_Penalty>  (556) 
0.081936508424468604

>  <r_epik_Ionization_Penalty>  (556) 
0.041700000000000001

>  <r_epik_Ionization_Penalty_Charging>  (556) 
0.041000000000000002

>  <r_epik_Ionization_Penalty_Neutral>  (556) 
0.00069999999999999999

>  <r_epik_State_Penalty>  (556) 
0.041000000000000002

>  <r_i_docking_score>  (556) 
-4.9207757927263698

>  <r_i_glide_ecoul>  (556) 
-6.8834986686706499

>  <r_i_glide_eff_state_penalty>  (556) 
0.041000000000000002

>  <r_i_glide_einternal>  (556) 
4.3132748603820801

>  <r_i_glide_emodel>  (556) 
-62.150415562221298

>  <r_i_glide_energy>  (556) 
-46.880469799041698

>  <r_i_glide_erotb>  (556) 
0.79841363547178601

>  <r_i_glide_esite>  (556) 
-0.104856752288238

>  <r_i_glide_evdw>  (556) 
-39.996971130371101

>  <r_i_glide_gscore>  (556) 
-4.9617757927263701

>  <r_i_glide_hbond>  (556) 
0

>  <r_i_glide_ligand_efficiency>  (556) 
-0.153774243522699

>  <r_i_glide_ligand_efficiency_ln>  (556) 
-1.1018958352735

>  <r_i_glide_ligand_efficiency_sa>  (556) 
-0.48820279130309902

>  <r_i_glide_lipo>  (556) 
-2.2682960463634898

>  <r_i_glide_metal>  (556) 
-0

>  <r_i_glide_rewards>  (556) 
-0.354663272727271

>  <r_lp_Energy>  (556) 
24.275371

>  <r_qp_ACxDN^.5/SA>  (556) 
0.0128685

>  <r_qp_CIQPlogS>  (556) 
-5.9130000000000003

>  <r_qp_EA(eV)>  (556) 
0.84399999999999997

>  <r_qp_FISA>  (556) 
47.787999999999997

>  <r_qp_FOSA>  (556) 
231.89699999999999

>  <r_qp_IP(eV)>  (556) 
8.1920000000000002

>  <r_qp_Jm>  (556) 
0.0803889874018405

>  <r_qp_PISA>  (556) 
367.58100000000002

>  <r_qp_PSA>  (556) 
58.198

>  <r_qp_PercentHumanOralAbsorption>  (556) 
100

>  <r_qp_QPPCaco>  (556) 
870.21699999999998

>  <r_qp_QPPMDCK>  (556) 
1097.4290000000001

>  <r_qp_QPlogBB>  (556) 
0.129

>  <r_qp_QPlogHERG>  (556) 
-6.6509999999999998

>  <r_qp_QPlogKhsa>  (556) 
0.67500000000000004

>  <r_qp_QPlogKp>  (556) 
-2.3039999999999998

>  <r_qp_QPlogPC16>  (556) 
14.789

>  <r_qp_QPlogPo/w>  (556) 
4.8949999999999996

>  <r_qp_QPlogPoct>  (556) 
22.076000000000001

>  <r_qp_QPlogPw>  (556) 
11.632999999999999

>  <r_qp_QPlogS>  (556) 
-4.4409999999999998

>  <r_qp_QPpolrz>  (556) 
46.575000000000003

>  <r_qp_SASA>  (556) 
714.33500000000004

>  <r_qp_SAamideO>  (556) 
0

>  <r_qp_SAfluorine>  (556) 
0

>  <r_qp_WPSA>  (556) 
67.069000000000003

>  <r_qp_accptHB>  (556) 
6.5

>  <r_qp_dip^2/V>  (556) 
0.0058833000000000002

>  <r_qp_dipole>  (556) 
2.843

>  <r_qp_donorHB>  (556) 
2

>  <r_qp_glob>  (556) 
0.83683830000000003

>  <r_qp_mol_MW>  (556) 
446.98099999999999

>  <r_qp_volume>  (556) 
1374.2560000000001

>  <r_sd_BIOSOLVEIT.INFINISEE\_FTREES\_SIMILARITY>  (556) 
0.90400000000000003

>  <r_sd_BIOSOLVEIT.LOGP>  (556) 
3.5893999999999999

>  <r_sd_BIOSOLVEIT.MOLECULAR\_WEIGHT>  (556) 
447.99099999999999

>  <r_sd_BIOSOLVEIT.TPSA>  (556) 
67.170000000000002

>  <i_epik_Tot_Q>  (556) 
1

>  <i_epik_Tot_abs_Q>  (556) 
1

>  <i_f3d_flags>  (556) 
0

>  <i_i_glide_confnum>  (556) 
5

>  <i_i_glide_lignum>  (556) 
616

>  <i_i_glide_posenum>  (556) 
3

>  <i_i_glide_rotatable_bonds>  (556) 
9

>  <i_lp_mmshare_version>  (556) 
65135

>  <i_m_ct_format>  (556) 
2

>  <i_m_source_file_index>  (556) 
1776

>  <i_qp_#NandO>  (556) 
6

>  <i_qp_#acid>  (556) 
0

>  <i_qp_#amide>  (556) 
0

>  <i_qp_#amidine>  (556) 
0

>  <i_qp_#amine>  (556) 
1

>  <i_qp_#in34>  (556) 
0

>  <i_qp_#in56>  (556) 
22

>  <i_qp_#metab>  (556) 
6

>  <i_qp_#nonHatm>  (556) 
32

>  <i_qp_#noncon>  (556) 
0

>  <i_qp_#ringatoms>  (556) 
22

>  <i_qp_#rotor>  (556) 
9

>  <i_qp_#rtvFG>  (556) 
0

>  <i_qp_#stars>  (556) 
0

>  <i_qp_CNS>  (556) 
1

>  <i_qp_HumanOralAbsorption>  (556) 
3

>  <i_qp_RuleOfFive>  (556) 
0

>  <i_qp_RuleOfThree>  (556) 
0

>  <i_sd_BIOSOLVEIT.INFINISEE\_REAGENT1\_NAME>  (556) 
21926464

>  <i_sd_BIOSOLVEIT.INFINISEE\_REAGENT2\_NAME>  (556) 
23157418

>  <i_sd_BIOSOLVEIT.INFINISEE\_REAGENT3\_NAME>  (556) 
21950004

>  <i_sd_BIOSOLVEIT.INFINISEE\_RESULT\_RANK>  (556) 
76246

>  <i_sd_version>  (556) 
0

>  <b_lp_Chiralities_Consistent>  (556) 
1

>  <b_sd_chiral_flag>  (556) 
0

>  <canonical_id>  (556) 
ATP-HTVS-56362DCB1C38

>  <compound_code>  (556) 
56802

>  <title>  (556) 
m_282030aaa____21926464____23157418____21950004

>  <variant>  (556) 
56802-1

>  <source_file>  (556) 
运行/运行/ATP-VSW/ATP-VSW-DOCK_HTVS_1-002_lib.maegz

>  <canonical_smiles>  (556) 
C[NH+](C)Cc1ccc(CCNc2nc3ccccc3nc2NCc2cncc(Cl)c2)cc1

>  <scaffold>  (556) 
c1ccc(CCNc2nc3ccccc3nc2NCc2cccnc2)cc1

>  <molecular_formula>  (556) 
C25H28ClN6+

$$$$
ATP-HTVS-563DC51EEC46
     RDKit          3D

 69 72  0  0  0  0  0  0  0  0999 V2000
  196.2521  186.5466  159.3201 F   0  0  0  0  0  0  0  0  0  0  0  0
  196.3450  185.2903  158.8239 C   0  0  0  0  0  0  0  0  0  0  0  0
  196.8846  185.0881  157.5416 C   0  0  0  0  0  0  0  0  0  0  0  0
  197.0425  183.7811  157.0056 C   0  0  0  0  0  0  0  0  0  0  0  0
  196.5847  182.7029  157.7911 C   0  0  0  0  0  0  0  0  0  0  0  0
  196.6871  181.4595  157.2926 N   0  0  0  0  0  0  0  0  0  0  0  0
  197.2019  181.1554  156.0944 C   0  0  0  0  0  0  0  0  0  0  0  0
  197.6944  182.1715  155.2569 C   0  0  0  0  0  0  0  0  0  0  0  0
  197.6180  183.5247  155.7194 C   0  0  0  0  0  0  0  0  0  0  0  0
  198.0854  184.5830  154.9100 N   0  0  0  0  0  0  0  0  0  0  0  0
  199.2010  185.4098  155.4126 C   0  0  1  0  0  0  0  0  0  0  0  0
  200.4634  184.6619  155.4761 C   0  0  0  0  0  0  0  0  0  0  0  0
  201.4571  184.0789  155.5521 N   0  0  0  0  0  0  0  0  0  0  0  0
  199.4058  186.7139  154.6656 C   0  0  0  0  0  0  0  0  0  0  0  0
  199.5170  186.7154  153.2585 C   0  0  0  0  0  0  0  0  0  0  0  0
  199.6407  187.9187  152.5522 C   0  0  0  0  0  0  0  0  0  0  0  0
  199.7113  189.1340  153.2581 C   0  0  0  0  0  0  0  0  0  0  0  0
  199.6254  189.1411  154.6653 C   0  0  0  0  0  0  0  0  0  0  0  0
  199.4603  187.9337  155.3717 C   0  0  0  0  0  0  0  0  0  0  0  0
  197.0814  185.1404  154.0002 C   0  0  2  0  0  0  0  0  0  0  0  0
  198.3197  181.7774  153.9384 C   0  0  0  0  0  0  0  0  0  0  0  0
  199.4322  182.1971  153.6290 O   0  0  0  0  0  0  0  0  0  0  0  0
  197.5668  180.9608  153.1706 N   0  0  0  0  0  0  0  0  0  0  0  0
  197.9147  180.2440  151.9937 C   0  0  0  0  0  0  0  0  0  0  0  0
  196.8410  179.8085  151.1822 C   0  0  0  0  0  0  0  0  0  0  0  0
  197.0833  179.1203  149.9732 C   0  0  0  0  0  0  0  0  0  0  0  0
  198.3834  178.9513  149.5048 C   0  0  0  0  0  0  0  0  0  0  0  0
  199.4645  179.2953  150.3838 C   0  0  0  0  0  0  0  0  0  0  0  0
  199.2312  179.9545  151.5937 C   0  0  0  0  0  0  0  0  0  0  0  0
  198.6727  178.3549  148.1250 C   0  0  1  0  0  0  0  0  0  0  0  0
  198.5349  179.3349  146.9938 N   0  0  1  0  0  0  0  0  0  0  0  0
  199.3127  180.6302  147.0852 C   0  0  1  0  0  0  0  0  0  0  0  0
  199.0846  181.4722  148.3745 C   0  0  2  0  0  0  0  0  0  0  0  0
  198.7415  178.6830  145.6649 C   0  0  1  0  0  0  0  0  0  0  0  0
  200.1649  178.1129  145.4738 C   0  0  2  0  0  0  0  0  0  0  0  0
  196.0097  182.8904  159.0562 C   0  0  0  0  0  0  0  0  0  0  0  0
  195.9019  184.1923  159.5830 C   0  0  0  0  0  0  0  0  0  0  0  0
  197.1568  185.9790  156.9931 H   0  0  0  0  0  0  0  0  0  0  0  0
  197.2334  180.0915  155.8591 H   0  0  0  0  0  0  0  0  0  0  0  0
  199.0560  185.6626  156.4626 H   0  0  0  0  0  0  0  0  0  0  0  0
  199.4539  185.7878  152.7153 H   0  0  0  0  0  0  0  0  0  0  0  0
  199.6814  187.8963  151.4715 H   0  0  0  0  0  0  0  0  0  0  0  0
  199.8480  190.0546  152.7129 H   0  0  0  0  0  0  0  0  0  0  0  0
  199.6928  190.0748  155.2021 H   0  0  0  0  0  0  0  0  0  0  0  0
  199.3734  187.9536  156.4528 H   0  0  0  0  0  0  0  0  0  0  0  0
  196.1359  184.5997  153.9906 H   0  0  0  0  0  0  0  0  0  0  0  0
  197.4548  185.1207  152.9758 H   0  0  0  0  0  0  0  0  0  0  0  0
  196.8861  186.1815  154.2638 H   0  0  0  0  0  0  0  0  0  0  0  0
  196.6181  180.8296  153.4842 H   0  0  0  0  0  0  0  0  0  0  0  0
  195.8218  179.9946  151.5024 H   0  0  0  0  0  0  0  0  0  0  0  0
  196.2497  178.9183  149.3212 H   0  0  0  0  0  0  0  0  0  0  0  0
  200.4847  179.1159  150.0489 H   0  0  0  0  0  0  0  0  0  0  0  0
  200.0837  180.3553  152.1078 H   0  0  0  0  0  0  0  0  0  0  0  0
  199.6835  177.9341  148.1284 H   0  0  0  0  0  0  0  0  0  0  0  0
  197.9671  177.5281  147.9464 H   0  0  0  0  0  0  0  0  0  0  0  0
  200.3936  180.4299  146.9856 H   0  0  0  0  0  0  0  0  0  0  0  0
  199.0370  181.2619  146.1933 H   0  0  0  0  0  0  0  0  0  0  0  0
  199.5653  182.4662  148.2876 H   0  0  0  0  0  0  0  0  0  0  0  0
  199.6214  181.0307  149.1609 H   0  0  0  0  0  0  0  0  0  0  0  0
  197.9959  181.5688  148.5764 H   0  0  0  0  0  0  0  0  0  0  0  0
  198.0158  177.8864  145.5132 H   0  0  0  0  0  0  0  0  0  0  0  0
  198.5519  179.3932  144.8564 H   0  0  0  0  0  0  0  0  0  0  0  0
  200.3135  177.7086  144.4731 H   0  0  0  0  0  0  0  0  0  0  0  0
  200.3846  177.2971  146.1640 H   0  0  0  0  0  0  0  0  0  0  0  0
  200.9394  178.8719  145.5879 H   0  0  0  0  0  0  0  0  0  0  0  0
  195.6697  182.0518  159.6442 H   0  0  0  0  0  0  0  0  0  0  0  0
  195.4767  184.3617  160.5620 H   0  0  0  0  0  0  0  0  0  0  0  0
  197.5668  179.6310  146.9756 H   0  0  0  0  0  0  0  0  0  0  0  0
  196.3416  180.6477  157.8277 H   0  0  0  0  0  0  0  0  0  0  0  0
  1  2  1  0
  2  3  1  0
  2 37  2  0
  3  4  2  0
  3 38  1  0
  4  5  1  0
  4  9  1  0
  5  6  1  0
  5 36  2  0
  6  7  2  0
  6 69  1  0
  7  8  1  0
  7 39  1  0
  8  9  2  0
  8 21  1  0
  9 10  1  0
 10 11  1  0
 10 20  1  0
 11 12  1  0
 11 14  1  0
 11 40  1  1
 12 13  3  0
 14 15  2  0
 14 19  1  0
 15 16  1  0
 15 41  1  0
 16 17  2  0
 16 42  1  0
 17 18  1  0
 17 43  1  0
 18 19  2  0
 18 44  1  0
 19 45  1  0
 20 46  1  6
 20 47  1  0
 20 48  1  0
 21 22  2  0
 21 23  1  0
 23 24  1  0
 23 49  1  0
 24 25  1  0
 24 29  2  0
 25 26  2  0
 25 50  1  0
 26 27  1  0
 26 51  1  0
 27 28  2  0
 27 30  1  0
 28 29  1  0
 28 52  1  0
 29 53  1  0
 30 31  1  0
 30 54  1  1
 30 55  1  0
 31 32  1  0
 31 34  1  0
 31 68  1  6
 32 33  1  0
 32 56  1  6
 32 57  1  0
 33 58  1  6
 33 59  1  0
 33 60  1  0
 34 35  1  0
 34 61  1  6
 34 62  1  0
 35 63  1  6
 35 64  1  0
 35 65  1  0
 36 37  1  0
 36 66  1  0
 37 67  1  0
M  CHG  2   6   1  31   1
M  END
>  <s_epik_cmdline>  (557) 
J2VwaWtfcHl0aG9uJywgJy1waCcsICc3LjAwMDAwMCcsICctcGh0JywgJzIuMDAwMDAwJywgJy1tcycsICcxNicsICctdG4nLCAnOCcsICctbWEnLCAnMjAwJywgJy1pbWFlJywgJzxpbmZpbGUubWFlPicsICctb21hZScsICc8b3V0ZmlsZS5tYWU+Jw==

>  <s_epik_input>  (557) 
W2NIXTFbY0hdW2NIXVtjSF1bY0hdYzFbQ0BIXShDI04pTihbQ0gzXSljMmMoW2NIXW5jKGMyMylbY0hdW2NIXWMoRilbY0hdMylDKD1PKVtOSF1jNFtjSF1bY0hdYyhbY0hdW2NIXTQpW0NIMl1OKFtDSDJdW0NIM10pW0NIMl1bQ0gzXQ==

>  <s_i_glide_gridfile>  (557) 
ATP-Grid

>  <s_lp_Force_Field>  (557) 
OPLS_2005

>  <s_lp_Variant>  (557) 
rxn512c____EMOL24630243____EMOL36725275____EMOL25678448-3

>  <s_lp_label>  (557) 
2368_sdstereoexpander_1_neutralizer_1_epik_2_stereoizer_1

>  <s_m_source_file>  (557) 
ATP-VSW-LIGPREP-002-in.maegz

>  <s_sd_BIOSOLVEIT.INFINISEE\_QUERY\_NAME>  (557) 
Ref-Lig

>  <s_sd_BIOSOLVEIT.INFINISEE\_QUERY\_SMILES>  (557) 
S(c1nc2c(cc1C[NH2+]Cc3ccc(cc3)C[NH+](C)C)cccc2)Cc4ccccc4

>  <s_sd_BIOSOLVEIT.INFINISEE\_REACTION\_NAME>  (557) 
rxn512c

>  <s_sd_BIOSOLVEIT.INFINISEE\_REAGENT1\_NAME>  (557) 
EMOL24630243

>  <s_sd_BIOSOLVEIT.INFINISEE\_REAGENT1\_SMILES>  (557) 
N#CC(NC)c1ccccc1

>  <s_sd_BIOSOLVEIT.INFINISEE\_REAGENT2\_NAME>  (557) 
EMOL36725275

>  <s_sd_BIOSOLVEIT.INFINISEE\_REAGENT2\_SMILES>  (557) 
Clc1c2c(ncc1C(=O)O)ccc(F)c2

>  <s_sd_BIOSOLVEIT.INFINISEE\_REAGENT3\_NAME>  (557) 
EMOL25678448

>  <s_sd_BIOSOLVEIT.INFINISEE\_REAGENT3\_SMILES>  (557) 
N(Cc1ccc(N)cc1)(CC)CC

>  <s_sd_BIOSOLVEIT.INFINISEE\_SPACE>  (557) 
eXplore_7tr_2022-12

>  <s_vsw_compound_code>  (557) 
75746

>  <s_vsw_variant>  (557) 
75746-3

>  <r_epik_Charging_Adjusted_Penalty>  (557) 
1.5616711985745699

>  <r_epik_Ionization_Penalty>  (557) 
0.7802

>  <r_epik_Ionization_Penalty_Charging>  (557) 
0.78010000000000002

>  <r_epik_Ionization_Penalty_Neutral>  (557) 
0.0001

>  <r_epik_State_Penalty>  (557) 
0.78149999999999997

>  <r_i_docking_score>  (557) 
-3.6330741977675598

>  <r_i_glide_ecoul>  (557) 
-10.5514011383057

>  <r_i_glide_eff_state_penalty>  (557) 
0.78149999999999997

>  <r_i_glide_einternal>  (557) 
4.3908586502075204

>  <r_i_glide_emodel>  (557) 
-57.762142231641

>  <r_i_glide_energy>  (557) 
-41.382207870483398

>  <r_i_glide_erotb>  (557) 
0.65910544774893398

>  <r_i_glide_esite>  (557) 
-0.103684959713159

>  <r_i_glide_evdw>  (557) 
-30.830806732177699

>  <r_i_glide_gscore>  (557) 
-4.4145741977675597

>  <r_i_glide_hbond>  (557) 
-0.19463442710697601

>  <r_i_glide_ligand_efficiency>  (557) 
-0.0981911945342583

>  <r_i_glide_ligand_efficiency_ln>  (557) 
-0.78792862215239401

>  <r_i_glide_ligand_efficiency_sa>  (557) 
-0.327194843672449

>  <r_i_glide_lipo>  (557) 
-1.06494964582587

>  <r_i_glide_metal>  (557) 
-0

>  <r_i_glide_rewards>  (557) 
-0.58616010551574405

>  <r_lp_Energy>  (557) 
47.588023999999997

>  <r_qp_ACxDN^.5/SA>  (557) 
0.010761400000000001

>  <r_qp_CIQPlogS>  (557) 
-7.3479999999999999

>  <r_qp_EA(eV)>  (557) 
1.637

>  <r_qp_FISA>  (557) 
101.91200000000001

>  <r_qp_FOSA>  (557) 
255.41200000000001

>  <r_qp_IP(eV)>  (557) 
8.9130000000000003

>  <r_qp_Jm>  (557) 
0.00175192694825608

>  <r_qp_PISA>  (557) 
339.26299999999998

>  <r_qp_PSA>  (557) 
74.171000000000006

>  <r_qp_PercentHumanOralAbsorption>  (557) 
100

>  <r_qp_QPPCaco>  (557) 
266.91300000000001

>  <r_qp_QPPMDCK>  (557) 
236.94499999999999

>  <r_qp_QPlogBB>  (557) 
-0.47899999999999998

>  <r_qp_QPlogHERG>  (557) 
-6.3959999999999999

>  <r_qp_QPlogKhsa>  (557) 
0.627

>  <r_qp_QPlogKp>  (557) 
-3.3050000000000002

>  <r_qp_QPlogPC16>  (557) 
14.855

>  <r_qp_QPlogPo/w>  (557) 
4.5659999999999998

>  <r_qp_QPlogPoct>  (557) 
23.398

>  <r_qp_QPlogPw>  (557) 
11.664

>  <r_qp_QPlogS>  (557) 
-5.1459999999999999

>  <r_qp_QPpolrz>  (557) 
49.834000000000003

>  <r_qp_SASA>  (557) 
743.39999999999998

>  <r_qp_SAamideO>  (557) 
0

>  <r_qp_SAfluorine>  (557) 
46.813000000000002

>  <r_qp_WPSA>  (557) 
46.813000000000002

>  <r_qp_accptHB>  (557) 
8

>  <r_qp_dip^2/V>  (557) 
0.0537329

>  <r_qp_dipole>  (557) 
8.9130000000000003

>  <r_qp_donorHB>  (557) 
1

>  <r_qp_glob>  (557) 
0.84428020000000004

>  <r_qp_mol_MW>  (557) 
495.59800000000001

>  <r_qp_volume>  (557) 
1478.4829999999999

>  <r_sd_BIOSOLVEIT.INFINISEE\_FTREES\_SIMILARITY>  (557) 
0.92000000000000004

>  <r_sd_BIOSOLVEIT.LOGP>  (557) 
4.7519799999999996

>  <r_sd_BIOSOLVEIT.MOLECULAR\_WEIGHT>  (557) 
496.60700000000003

>  <r_sd_BIOSOLVEIT.TPSA>  (557) 
73.459999999999994

>  <i_epik_Tot_Q>  (557) 
2

>  <i_epik_Tot_abs_Q>  (557) 
2

>  <i_f3d_flags>  (557) 
0

>  <i_i_glide_confnum>  (557) 
2

>  <i_i_glide_lignum>  (557) 
971

>  <i_i_glide_posenum>  (557) 
5

>  <i_i_glide_rotatable_bonds>  (557) 
10

>  <i_lp_mmshare_version>  (557) 
65135

>  <i_m_ct_format>  (557) 
2

>  <i_m_source_file_index>  (557) 
2368

>  <i_qp_#NandO>  (557) 
6

>  <i_qp_#acid>  (557) 
0

>  <i_qp_#amide>  (557) 
0

>  <i_qp_#amidine>  (557) 
0

>  <i_qp_#amine>  (557) 
1

>  <i_qp_#in34>  (557) 
0

>  <i_qp_#in56>  (557) 
22

>  <i_qp_#metab>  (557) 
6

>  <i_qp_#nonHatm>  (557) 
37

>  <i_qp_#noncon>  (557) 
0

>  <i_qp_#ringatoms>  (557) 
22

>  <i_qp_#rotor>  (557) 
10

>  <i_qp_#rtvFG>  (557) 
0

>  <i_qp_#stars>  (557) 
0

>  <i_qp_CNS>  (557) 
1

>  <i_qp_HumanOralAbsorption>  (557) 
3

>  <i_qp_RuleOfFive>  (557) 
0

>  <i_qp_RuleOfThree>  (557) 
0

>  <i_sd_BIOSOLVEIT.INFINISEE\_RESULT\_RANK>  (557) 
17564

>  <i_sd_version>  (557) 
0

>  <b_lp_Chiralities_Consistent>  (557) 
1

>  <b_sd_chiral_flag>  (557) 
0

>  <canonical_id>  (557) 
ATP-HTVS-563DC51EEC46

>  <compound_code>  (557) 
75746

>  <title>  (557) 
rxn512c____EMOL24630243____EMOL36725275____EMOL25678448

>  <variant>  (557) 
75746-3

>  <source_file>  (557) 
运行/运行/ATP-VSW/ATP-VSW-DOCK_HTVS_1-002_lib.maegz

>  <canonical_smiles>  (557) 
CC[NH+](CC)Cc1ccc(NC(=O)c2c[nH+]c3ccc(F)cc3c2N(C)[C@@H](C#N)c2ccccc2)cc1

>  <scaffold>  (557) 
O=C(Nc1ccccc1)c1c[nH+]c2ccccc2c1NCc1ccccc1

>  <molecular_formula>  (557) 
C30H32FN5O+2

$$$$
ATP-HTVS-5658ECC62B06
     RDKit          3D

 53 55  0  0  0  0  0  0  0  0999 V2000
  196.4921  179.7189  149.9546 Cl  0  0  0  0  0  0  0  0  0  0  0  0
  197.7747  178.8652  150.7168 C   0  0  0  0  0  0  0  0  0  0  0  0
  198.3522  177.4033  149.9689 S   0  0  0  0  0  0  0  0  0  0  0  0
  199.4932  177.1820  151.2717 C   0  0  0  0  0  0  0  0  0  0  0  0
  200.3634  176.0048  151.2225 C   0  0  0  0  0  0  0  0  0  0  0  0
  201.4398  176.0512  150.6307 O   0  0  0  0  0  0  0  0  0  0  0  0
  199.9455  174.9460  151.9344 N   0  0  0  0  0  0  0  0  0  0  0  0
  200.7763  173.7935  152.2775 C   0  0  1  0  0  0  0  0  0  0  0  0
  201.5397  173.9533  153.5923 C   0  0  0  0  0  0  0  0  0  0  0  0
  202.5865  173.0484  153.8926 C   0  0  0  0  0  0  0  0  0  0  0  0
  203.3150  173.1725  155.0927 C   0  0  0  0  0  0  0  0  0  0  0  0
  203.0004  174.1869  156.0147 C   0  0  0  0  0  0  0  0  0  0  0  0
  201.9490  175.0777  155.7350 C   0  0  0  0  0  0  0  0  0  0  0  0
  201.2187  174.9617  154.5351 C   0  0  0  0  0  0  0  0  0  0  0  0
  199.4273  178.1931  152.1966 C   0  0  0  0  0  0  0  0  0  0  0  0
  198.4231  179.1647  151.8879 C   0  0  0  0  0  0  0  0  0  0  0  0
  198.1275  180.2671  152.7168 N   0  0  0  0  0  0  0  0  0  0  0  0
  199.0370  180.7953  153.7229 C   0  0  1  0  0  0  0  0  0  0  0  0
  198.3219  181.5173  154.8384 C   0  0  0  0  0  0  0  0  0  0  0  0
  197.8468  182.8354  154.6714 C   0  0  0  0  0  0  0  0  0  0  0  0
  197.1612  183.4758  155.7218 C   0  0  0  0  0  0  0  0  0  0  0  0
  196.9441  182.7996  156.9492 C   0  0  0  0  0  0  0  0  0  0  0  0
  197.4569  181.4965  157.1159 C   0  0  0  0  0  0  0  0  0  0  0  0
  198.1124  180.8471  156.0575 C   0  0  0  0  0  0  0  0  0  0  0  0
  196.1515  183.4416  158.0778 C   0  0  1  0  0  0  0  0  0  0  0  0
  194.7241  183.0077  158.1339 N   0  0  2  0  0  0  0  0  0  0  0  0
  193.9556  183.7883  159.1246 C   0  0  2  0  0  0  0  0  0  0  0  0
  194.5191  181.5562  158.3232 C   0  0  2  0  0  0  0  0  0  0  0  0
  199.0423  175.0043  152.3833 H   0  0  0  0  0  0  0  0  0  0  0  0
  200.1372  172.9124  152.3607 H   0  0  0  0  0  0  0  0  0  0  0  0
  201.4794  173.5743  151.4680 H   0  0  0  0  0  0  0  0  0  0  0  0
  202.8395  172.2555  153.2066 H   0  0  0  0  0  0  0  0  0  0  0  0
  204.1063  172.4682  155.3044 H   0  0  0  0  0  0  0  0  0  0  0  0
  203.5488  174.2663  156.9422 H   0  0  0  0  0  0  0  0  0  0  0  0
  201.6957  175.8529  156.4451 H   0  0  0  0  0  0  0  0  0  0  0  0
  200.4111  175.6561  154.3628 H   0  0  0  0  0  0  0  0  0  0  0  0
  200.0561  178.2398  153.0748 H   0  0  0  0  0  0  0  0  0  0  0  0
  197.3136  180.8267  152.4972 H   0  0  0  0  0  0  0  0  0  0  0  0
  199.6269  180.0031  154.1826 H   0  0  0  0  0  0  0  0  0  0  0  0
  199.7385  181.4843  153.2556 H   0  0  0  0  0  0  0  0  0  0  0  0
  198.0029  183.3480  153.7325 H   0  0  0  0  0  0  0  0  0  0  0  0
  196.7774  184.4769  155.5697 H   0  0  0  0  0  0  0  0  0  0  0  0
  197.3130  180.9559  158.0392 H   0  0  0  0  0  0  0  0  0  0  0  0
  198.4239  179.8187  156.1877 H   0  0  0  0  0  0  0  0  0  0  0  0
  196.6469  183.2412  159.0341 H   0  0  0  0  0  0  0  0  0  0  0  0
  196.1953  184.5277  157.9438 H   0  0  0  0  0  0  0  0  0  0  0  0
  194.3533  183.6279  160.1311 H   0  0  0  0  0  0  0  0  0  0  0  0
  192.9092  183.4793  159.1279 H   0  0  0  0  0  0  0  0  0  0  0  0
  193.9881  184.8621  158.9212 H   0  0  0  0  0  0  0  0  0  0  0  0
  195.0097  181.2031  159.2297 H   0  0  0  0  0  0  0  0  0  0  0  0
  194.9148  181.0539  157.4474 H   0  0  0  0  0  0  0  0  0  0  0  0
  193.4605  181.2968  158.3741 H   0  0  0  0  0  0  0  0  0  0  0  0
  194.3321  183.1701  157.2128 H   0  0  0  0  0  0  0  0  0  0  0  0
  1  2  1  0
  2  3  1  0
  2 16  2  0
  3  4  1  0
  4  5  1  0
  4 15  2  0
  5  6  2  0
  5  7  1  0
  7  8  1  0
  7 29  1  0
  8  9  1  0
  8 30  1  1
  8 31  1  0
  9 10  2  0
  9 14  1  0
 10 11  1  0
 10 32  1  0
 11 12  2  0
 11 33  1  0
 12 13  1  0
 12 34  1  0
 13 14  2  0
 13 35  1  0
 14 36  1  0
 15 16  1  0
 15 37  1  0
 16 17  1  0
 17 18  1  0
 17 38  1  0
 18 19  1  0
 18 39  1  1
 18 40  1  0
 19 20  1  0
 19 24  2  0
 20 21  2  0
 20 41  1  0
 21 22  1  0
 21 42  1  0
 22 23  2  0
 22 25  1  0
 23 24  1  0
 23 43  1  0
 24 44  1  0
 25 26  1  0
 25 45  1  1
 25 46  1  0
 26 27  1  0
 26 28  1  0
 26 53  1  6
 27 47  1  1
 27 48  1  0
 27 49  1  0
 28 50  1  1
 28 51  1  0
 28 52  1  0
M  CHG  1  26   1
M  END
>  <s_epik_cmdline>  (558) 
J2VwaWtfcHl0aG9uJywgJy1waCcsICc3LjAwMDAwMCcsICctcGh0JywgJzIuMDAwMDAwJywgJy1tcycsICcxNicsICctdG4nLCAnOCcsICctbWEnLCAnMjAwJywgJy1pbWFlJywgJzxpbmZpbGUubWFlPicsICctb21hZScsICc8b3V0ZmlsZS5tYWU+Jw==

>  <s_epik_input>  (558) 
W2NIXTFbY0hdW2NIXVtjSF1bY0hdYzFbQ0gyXVtOSF1DKD1PKWMoc2MyQ2wpW2NIXWMyW05IXVtDSDJdYzNbY0hdW2NIXWMoW2NIXVtjSF0zKVtDSDJdTihbQ0gzXSlbQ0gzXQ==

>  <s_i_glide_gridfile>  (558) 
ATP-Grid

>  <s_lp_Force_Field>  (558) 
OPLS_2005

>  <s_lp_Variant>  (558) 
rxn512b____EMOL480615____EMOL44846536____EMOL50155899-1

>  <s_lp_label>  (558) 
2434_sdstereoexpander_1_neutralizer_1_epik_1_stereoizer_1

>  <s_m_source_file>  (558) 
ATP-VSW-LIGPREP-003-in.maegz

>  <s_sd_BIOSOLVEIT.INFINISEE\_QUERY\_NAME>  (558) 
Ref-Lig

>  <s_sd_BIOSOLVEIT.INFINISEE\_QUERY\_SMILES>  (558) 
S(c1nc2c(cc1C[NH2+]Cc3ccc(cc3)C[NH+](C)C)cccc2)Cc4ccccc4

>  <s_sd_BIOSOLVEIT.INFINISEE\_REACTION\_NAME>  (558) 
rxn512b

>  <s_sd_BIOSOLVEIT.INFINISEE\_REAGENT1\_NAME>  (558) 
EMOL480615

>  <s_sd_BIOSOLVEIT.INFINISEE\_REAGENT1\_SMILES>  (558) 
NCc1ccccc1

>  <s_sd_BIOSOLVEIT.INFINISEE\_REAGENT2\_NAME>  (558) 
EMOL44846536

>  <s_sd_BIOSOLVEIT.INFINISEE\_REAGENT2\_SMILES>  (558) 
BrC1=C(Cl)SC(C(=O)O)=C1

>  <s_sd_BIOSOLVEIT.INFINISEE\_REAGENT3\_NAME>  (558) 
EMOL50155899

>  <s_sd_BIOSOLVEIT.INFINISEE\_REAGENT3\_SMILES>  (558) 
N(Cc1ccc(cc1)CN)(C)C

>  <s_sd_BIOSOLVEIT.INFINISEE\_SPACE>  (558) 
eXplore_7tr_2022-12

>  <s_vsw_compound_code>  (558) 
77859

>  <s_vsw_variant>  (558) 
77859-1

>  <r_epik_Charging_Adjusted_Penalty>  (558) 
0.080189274810459593

>  <r_epik_Ionization_Penalty>  (558) 
0.0402

>  <r_epik_Ionization_Penalty_Charging>  (558) 
0.040099999999999997

>  <r_epik_Ionization_Penalty_Neutral>  (558) 
0.0001

>  <r_epik_State_Penalty>  (558) 
0.040099999999999997

>  <r_i_docking_score>  (558) 
-4.4662698546797701

>  <r_i_glide_ecoul>  (558) 
-7.3685383796691903

>  <r_i_glide_eff_state_penalty>  (558) 
0.040099999999999997

>  <r_i_glide_einternal>  (558) 
8.5498352050781197

>  <r_i_glide_emodel>  (558) 
-53.674210543808698

>  <r_i_glide_energy>  (558) 
-41.730663776397698

>  <r_i_glide_erotb>  (558) 
0.80253046032591502

>  <r_i_glide_esite>  (558) 
-0.084977106899877503

>  <r_i_glide_evdw>  (558) 
-34.362125396728501

>  <r_i_glide_gscore>  (558) 
-4.5063698546797699

>  <r_i_glide_hbond>  (558) 
-0.20000000000000001

>  <r_i_glide_ligand_efficiency>  (558) 
-0.159509637667135

>  <r_i_glide_ligand_efficiency_ln>  (558) 
-1.0309462178412101

>  <r_i_glide_ligand_efficiency_sa>  (558) 
-0.48436520610990302

>  <r_i_glide_lipo>  (558) 
-1.53082567920879

>  <r_i_glide_metal>  (558) 
-0

>  <r_i_glide_rewards>  (558) 
-0.66971050211021699

>  <r_lp_Energy>  (558) 
15.312149

>  <r_lp_tautomer_probability>  (558) 
0.99999274205267796

>  <r_qp_ACxDN^.5/SA>  (558) 
0.0099629999999999996

>  <r_qp_CIQPlogS>  (558) 
-4.2850000000000001

>  <r_qp_EA(eV)>  (558) 
0.751

>  <r_qp_FISA>  (558) 
60.847000000000001

>  <r_qp_FOSA>  (558) 
248.018

>  <r_qp_IP(eV)>  (558) 
8.1780000000000008

>  <r_qp_Jm>  (558) 
6.6714614836713306e-05

>  <r_qp_PISA>  (558) 
360.97399999999999

>  <r_qp_PSA>  (558) 
55.165999999999997

>  <r_qp_PercentHumanOralAbsorption>  (558) 
93.906999999999996

>  <r_qp_QPPCaco>  (558) 
163.18700000000001

>  <r_qp_QPPMDCK>  (558) 
345.48500000000001

>  <r_qp_QPlogBB>  (558) 
0.44600000000000001

>  <r_qp_QPlogHERG>  (558) 
-8.6099999999999994

>  <r_qp_QPlogKhsa>  (558) 
0.80500000000000005

>  <r_qp_QPlogKp>  (558) 
-4.726

>  <r_qp_QPlogPC16>  (558) 
15.260999999999999

>  <r_qp_QPlogPo/w>  (558) 
4.673

>  <r_qp_QPlogPoct>  (558) 
22.245999999999999

>  <r_qp_QPlogPw>  (558) 
11.087999999999999

>  <r_qp_QPlogS>  (558) 
-5.0659999999999998

>  <r_qp_QPpolrz>  (558) 
46.404000000000003

>  <r_qp_SASA>  (558) 
780.70399999999995

>  <r_qp_SAamideO>  (558) 
0

>  <r_qp_SAfluorine>  (558) 
0

>  <r_qp_WPSA>  (558) 
110.864

>  <r_qp_accptHB>  (558) 
5.5

>  <r_qp_dip^2/V>  (558) 
0.066775500000000002

>  <r_qp_dipole>  (558) 
9.5139999999999993

>  <r_qp_donorHB>  (558) 
2

>  <r_qp_glob>  (558) 
0.75871420000000001

>  <r_qp_mol_MW>  (558) 
413.964

>  <r_qp_volume>  (558) 
1355.5

>  <r_sd_BIOSOLVEIT.INFINISEE\_FTREES\_SIMILARITY>  (558) 
0.91700000000000004

>  <r_sd_BIOSOLVEIT.LOGP>  (558) 
3.5880999999999998

>  <r_sd_BIOSOLVEIT.MOLECULAR\_WEIGHT>  (558) 
414.97800000000001

>  <r_sd_BIOSOLVEIT.TPSA>  (558) 
45.57

>  <i_epik_Tot_Q>  (558) 
1

>  <i_epik_Tot_abs_Q>  (558) 
1

>  <i_f3d_flags>  (558) 
0

>  <i_i_glide_confnum>  (558) 
6

>  <i_i_glide_lignum>  (558) 
1045

>  <i_i_glide_posenum>  (558) 
2

>  <i_i_glide_rotatable_bonds>  (558) 
9

>  <i_lp_mmshare_version>  (558) 
65135

>  <i_m_ct_format>  (558) 
2

>  <i_m_source_file_index>  (558) 
2434

>  <i_qp_#NandO>  (558) 
4

>  <i_qp_#acid>  (558) 
0

>  <i_qp_#amide>  (558) 
0

>  <i_qp_#amidine>  (558) 
0

>  <i_qp_#amine>  (558) 
2

>  <i_qp_#in34>  (558) 
0

>  <i_qp_#in56>  (558) 
17

>  <i_qp_#metab>  (558) 
6

>  <i_qp_#nonHatm>  (558) 
28

>  <i_qp_#noncon>  (558) 
0

>  <i_qp_#ringatoms>  (558) 
17

>  <i_qp_#rotor>  (558) 
8

>  <i_qp_#rtvFG>  (558) 
0

>  <i_qp_#stars>  (558) 
0

>  <i_qp_CNS>  (558) 
1

>  <i_qp_HumanOralAbsorption>  (558) 
3

>  <i_qp_RuleOfFive>  (558) 
0

>  <i_qp_RuleOfThree>  (558) 
0

>  <i_sd_BIOSOLVEIT.INFINISEE\_RESULT\_RANK>  (558) 
23696

>  <i_sd_version>  (558) 
0

>  <b_lp_Chiralities_Consistent>  (558) 
1

>  <b_sd_chiral_flag>  (558) 
0

>  <canonical_id>  (558) 
ATP-HTVS-5658ECC62B06

>  <compound_code>  (558) 
77859

>  <title>  (558) 
rxn512b____EMOL480615____EMOL44846536____EMOL50155899

>  <variant>  (558) 
77859-1

>  <source_file>  (558) 
运行/运行/ATP-VSW/ATP-VSW-DOCK_HTVS_1-003_lib/ATP-VSW-DOCK_HTVS_1-003_lib.mae

>  <canonical_smiles>  (558) 
C[NH+](C)Cc1ccc(CNc2cc(C(=O)NCc3ccccc3)sc2Cl)cc1

>  <scaffold>  (558) 
O=C(NCc1ccccc1)c1cc(NCc2ccccc2)cs1

>  <molecular_formula>  (558) 
C22H25ClN3OS+

$$$$
ATP-HTVS-5694EB72FE49
     RDKit          3D

 45 48  0  0  0  0  0  0  0  0999 V2000
  199.9527  177.0593  155.0192 Cl  0  0  0  0  0  0  0  0  0  0  0  0
  199.6741  178.6203  155.6675 C   0  0  0  0  0  0  0  0  0  0  0  0
  200.6999  179.2828  156.3733 C   0  0  0  0  0  0  0  0  0  0  0  0
  200.4705  180.5762  156.8726 C   0  0  0  0  0  0  0  0  0  0  0  0
  201.4525  181.1972  157.5725 F   0  0  0  0  0  0  0  0  0  0  0  0
  199.2061  181.1980  156.6582 C   0  0  0  0  0  0  0  0  0  0  0  0
  198.1831  180.5140  155.9999 C   0  0  0  0  0  0  0  0  0  0  0  0
  196.9612  181.0999  155.8526 F   0  0  0  0  0  0  0  0  0  0  0  0
  198.4198  179.2315  155.4893 C   0  0  0  0  0  0  0  0  0  0  0  0
  198.8734  182.5527  157.1849 C   0  0  1  0  0  0  0  0  0  0  0  0
  199.2282  183.6769  156.3535 N   0  0  0  0  0  0  0  0  0  0  0  0
  199.5574  184.9146  157.0894 C   0  0  1  0  0  0  0  0  0  0  0  0
  198.3426  185.6766  157.6247 C   0  0  0  0  0  0  0  0  0  0  0  0
  197.4130  186.2909  156.7424 C   0  0  0  0  0  0  0  0  0  0  0  0
  197.5504  186.2105  155.3295 N   0  0  0  0  0  0  0  0  0  0  0  0
  197.9308  185.1361  154.6290 C   0  0  0  0  0  0  0  0  0  0  0  0
  198.1057  185.1817  153.4112 O   0  0  0  0  0  0  0  0  0  0  0  0
  198.1170  183.7944  155.3650 C   0  0  1  0  0  0  0  0  0  0  0  0
  196.3508  187.0453  157.2687 C   0  0  0  0  0  0  0  0  0  0  0  0
  196.1629  187.1540  158.6637 C   0  0  0  0  0  0  0  0  0  0  0  0
  197.0622  186.5375  159.5398 C   0  0  0  0  0  0  0  0  0  0  0  0
  198.1378  185.8346  159.0174 C   0  0  0  0  0  0  0  0  0  0  0  0
  200.6316  184.7020  158.1653 C   0  0  0  0  0  0  0  0  0  0  0  0
  201.8998  185.3143  158.0547 C   0  0  0  0  0  0  0  0  0  0  0  0
  202.8525  185.0883  159.0571 C   0  0  0  0  0  0  0  0  0  0  0  0
  202.5993  184.2429  160.1659 C   0  0  0  0  0  0  0  0  0  0  0  0
  201.3489  183.6288  160.2979 C   0  0  0  0  0  0  0  0  0  0  0  0
  200.3685  183.9168  159.3389 C   0  0  0  0  0  0  0  0  0  0  0  0
  201.6614  178.8158  156.5141 H   0  0  0  0  0  0  0  0  0  0  0  0
  197.6197  178.7362  154.9605 H   0  0  0  0  0  0  0  0  0  0  0  0
  197.9037  182.6266  157.6424 H   0  0  0  0  0  0  0  0  0  0  0  0
  199.5559  182.3968  158.0002 H   0  0  0  0  0  0  0  0  0  0  0  0
  200.0319  185.5876  156.3643 H   0  0  0  0  0  0  0  0  0  0  0  0
  197.2749  187.0191  154.7897 H   0  0  0  0  0  0  0  0  0  0  0  0
  198.2061  182.9929  154.6312 H   0  0  0  0  0  0  0  0  0  0  0  0
  197.1581  183.6186  155.8638 H   0  0  0  0  0  0  0  0  0  0  0  0
  195.6345  187.5185  156.6220 H   0  0  0  0  0  0  0  0  0  0  0  0
  195.3499  187.7131  159.0851 H   0  0  0  0  0  0  0  0  0  0  0  0
  196.9695  186.6031  160.6154 H   0  0  0  0  0  0  0  0  0  0  0  0
  198.7893  185.4589  159.7685 H   0  0  0  0  0  0  0  0  0  0  0  0
  202.1057  185.9489  157.2200 H   0  0  0  0  0  0  0  0  0  0  0  0
  203.8264  185.5778  158.9810 H   0  0  0  0  0  0  0  0  0  0  0  0
  203.3274  184.0677  160.9237 H   0  0  0  0  0  0  0  0  0  0  0  0
  201.0883  182.9755  161.1025 H   0  0  0  0  0  0  0  0  0  0  0  0
  199.4046  183.5005  159.5429 H   0  0  0  0  0  0  0  0  0  0  0  0
  1  2  1  0
  2  3  1  0
  2  9  2  0
  3  4  2  0
  3 29  1  0
  4  5  1  0
  4  6  1  0
  6  7  2  0
  6 10  1  0
  7  8  1  0
  7  9  1  0
  9 30  1  0
 10 11  1  0
 10 31  1  1
 10 32  1  0
 11 12  1  0
 11 18  1  0
 12 13  1  0
 12 23  1  0
 12 33  1  6
 13 14  1  0
 13 22  2  0
 14 15  1  0
 14 19  2  0
 15 16  1  0
 15 34  1  0
 16 17  2  0
 16 18  1  0
 18 35  1  6
 18 36  1  0
 19 20  1  0
 19 37  1  0
 20 21  2  0
 20 38  1  0
 21 22  1  0
 21 39  1  0
 22 40  1  0
 23 24  2  0
 23 28  1  0
 24 25  1  0
 24 41  1  0
 25 26  2  0
 25 42  1  0
 26 27  1  0
 26 43  1  0
 27 28  2  0
 27 44  1  0
 28 45  1  0
M  END
>  <s_epik_cmdline>  (559) 
J2VwaWtfcHl0aG9uJywgJy1waCcsICc3LjAwMDAwMCcsICctcGh0JywgJzIuMDAwMDAwJywgJy1tcycsICcxNicsICctdG4nLCAnOCcsICctbWEnLCAnMjAwJywgJy1pbWFlJywgJzxpbmZpbGUubWFlPicsICctb21hZScsICc8b3V0ZmlsZS5tYWU+Jw==

>  <s_epik_input>  (559) 
W2NIXTFbY0hdW2NIXVtjSF1bY0hdYzFbQ0BIXTJOKFtDSDJdYyhjKEYpW2NIXTMpYyhGKVtjSF1jM0NsKVtDSDJdQyg9TylbTkhdYyhjMjQpW2NIXVtjSF1bY0hdW2NIXTQ=

>  <s_i_glide_gridfile>  (559) 
ATP-Grid

>  <s_lp_Force_Field>  (559) 
OPLS_2005

>  <s_lp_Variant>  (559) 
m_2230bdc____17849930____20058632-1

>  <s_lp_label>  (559) 
1191_sdstereoexpander_1_neutralizer_1_epik_1_stereoizer_1

>  <s_m_source_file>  (559) 
ATP-VSW-LIGPREP-003-in.maegz

>  <s_sd_BIOSOLVEIT.INFINISEE\_QUERY\_NAME>  (559) 
Ref-Lig

>  <s_sd_BIOSOLVEIT.INFINISEE\_QUERY\_SMILES>  (559) 
S(c1nc2c(cc1C[NH2+]Cc3ccc(cc3)C[NH+](C)C)cccc2)Cc4ccccc4

>  <s_sd_BIOSOLVEIT.INFINISEE\_REACTION\_NAME>  (559) 
m_2230bdc

>  <s_sd_BIOSOLVEIT.INFINISEE\_REAGENT1\_SMILES>  (559) 
[R1*]N1C(c2c(NC(=O)C1)cccc2)c3ccccc3

>  <s_sd_BIOSOLVEIT.INFINISEE\_REAGENT2\_SMILES>  (559) 
[R1*]Cc1c(F)cc(Cl)cc1F

>  <s_sd_BIOSOLVEIT.INFINISEE\_SPACE>  (559) 
REALSpace_44bn_2023-08

>  <s_vsw_compound_code>  (559) 
38083

>  <s_vsw_variant>  (559) 
38083-1

>  <r_epik_Charging_Adjusted_Penalty>  (559) 
0.0087634984339075902

>  <r_epik_Ionization_Penalty>  (559) 
0.0088000000000000005

>  <r_epik_Ionization_Penalty_Charging>  (559) 
0

>  <r_epik_Ionization_Penalty_Neutral>  (559) 
0.0088000000000000005

>  <r_epik_State_Penalty>  (559) 
0.0088000000000000005

>  <r_i_docking_score>  (559) 
-1.63937460228471

>  <r_i_glide_ecoul>  (559) 
-1.6086223125457799

>  <r_i_glide_eff_state_penalty>  (559) 
0.0088000000000000005

>  <r_i_glide_einternal>  (559) 
1.1633274555206301

>  <r_i_glide_emodel>  (559) 
-31.452340020104899

>  <r_i_glide_energy>  (559) 
-29.0524966716766

>  <r_i_glide_erotb>  (559) 
0.36943810922421

>  <r_i_glide_esite>  (559) 
-0.076833051846826594

>  <r_i_glide_evdw>  (559) 
-27.443874359130898

>  <r_i_glide_gscore>  (559) 
-1.6481746022847099

>  <r_i_glide_hbond>  (559) 
-0.32000000000000001

>  <r_i_glide_ligand_efficiency>  (559) 
-0.058549092938739597

>  <r_i_glide_ligand_efficiency_ln>  (559) 
-0.37841579233719203

>  <r_i_glide_ligand_efficiency_sa>  (559) 
-0.177789529733623

>  <r_i_glide_lipo>  (559) 
-1.20219026750858

>  <r_i_glide_metal>  (559) 
-0

>  <r_i_glide_rewards>  (559) 
1.1948976726849001

>  <r_lp_Energy>  (559) 
38.084856000000002

>  <r_qp_ACxDN^.5/SA>  (559) 
0.0070638000000000003

>  <r_qp_CIQPlogS>  (559) 
-5.4279999999999999

>  <r_qp_EA(eV)>  (559) 
0.63700000000000001

>  <r_qp_FISA>  (559) 
55.078000000000003

>  <r_qp_FOSA>  (559) 
46.134

>  <r_qp_IP(eV)>  (559) 
8.9689999999999994

>  <r_qp_Jm>  (559) 
0.0025464315205750601

>  <r_qp_PISA>  (559) 
410.892

>  <r_qp_PSA>  (559) 
39.814999999999998

>  <r_qp_PercentHumanOralAbsorption>  (559) 
100

>  <r_qp_QPPCaco>  (559) 
742.15099999999995

>  <r_qp_QPPMDCK>  (559) 
1917.355

>  <r_qp_QPlogBB>  (559) 
0.61699999999999999

>  <r_qp_QPlogHERG>  (559) 
-6.9450000000000003

>  <r_qp_QPlogKhsa>  (559) 
0.77800000000000002

>  <r_qp_QPlogKp>  (559) 
-2.9580000000000002

>  <r_qp_QPlogPC16>  (559) 
12.532999999999999

>  <r_qp_QPlogPo/w>  (559) 
4.6440000000000001

>  <r_qp_QPlogPoct>  (559) 
18.771999999999998

>  <r_qp_QPlogPw>  (559) 
9.9220000000000006

>  <r_qp_QPlogS>  (559) 
-5.2370000000000001

>  <r_qp_QPpolrz>  (559) 
42.354999999999997

>  <r_qp_SASA>  (559) 
637.04999999999995

>  <r_qp_SAamideO>  (559) 
0

>  <r_qp_SAfluorine>  (559) 
53.302

>  <r_qp_WPSA>  (559) 
124.946

>  <r_qp_accptHB>  (559) 
4.5

>  <r_qp_dip^2/V>  (559) 
0.019555199999999998

>  <r_qp_dipole>  (559) 
4.734

>  <r_qp_donorHB>  (559) 
1

>  <r_qp_glob>  (559) 
0.83142579999999999

>  <r_qp_mol_MW>  (559) 
398.839

>  <r_qp_volume>  (559) 
1146.1679999999999

>  <r_sd_BIOSOLVEIT.INFINISEE\_FTREES\_SIMILARITY>  (559) 
0.91100000000000003

>  <r_sd_BIOSOLVEIT.LOGP>  (559) 
3.7448000000000001

>  <r_sd_BIOSOLVEIT.MOLECULAR\_WEIGHT>  (559) 
399.846

>  <r_sd_BIOSOLVEIT.TPSA>  (559) 
33.539999999999999

>  <i_epik_Tot_Q>  (559) 
0

>  <i_epik_Tot_abs_Q>  (559) 
0

>  <i_f3d_flags>  (559) 
0

>  <i_i_glide_confnum>  (559) 
1

>  <i_i_glide_lignum>  (559) 
478

>  <i_i_glide_posenum>  (559) 
14

>  <i_i_glide_rotatable_bonds>  (559) 
3

>  <i_lp_mmshare_version>  (559) 
65135

>  <i_m_ct_format>  (559) 
2

>  <i_m_source_file_index>  (559) 
1191

>  <i_qp_#NandO>  (559) 
3

>  <i_qp_#acid>  (559) 
0

>  <i_qp_#amide>  (559) 
0

>  <i_qp_#amidine>  (559) 
0

>  <i_qp_#amine>  (559) 
1

>  <i_qp_#in34>  (559) 
0

>  <i_qp_#in56>  (559) 
18

>  <i_qp_#metab>  (559) 
7

>  <i_qp_#nonHatm>  (559) 
28

>  <i_qp_#noncon>  (559) 
2

>  <i_qp_#ringatoms>  (559) 
23

>  <i_qp_#rotor>  (559) 
2

>  <i_qp_#rtvFG>  (559) 
0

>  <i_qp_#stars>  (559) 
0

>  <i_qp_CNS>  (559) 
2

>  <i_qp_HumanOralAbsorption>  (559) 
3

>  <i_qp_RuleOfFive>  (559) 
0

>  <i_qp_RuleOfThree>  (559) 
1

>  <i_sd_BIOSOLVEIT.INFINISEE\_REAGENT1\_NAME>  (559) 
17849930

>  <i_sd_BIOSOLVEIT.INFINISEE\_REAGENT2\_NAME>  (559) 
20058632

>  <i_sd_BIOSOLVEIT.INFINISEE\_RESULT\_RANK>  (559) 
39613

>  <i_sd_version>  (559) 
0

>  <b_lp_Chiralities_Consistent>  (559) 
1

>  <b_sd_chiral_flag>  (559) 
0

>  <canonical_id>  (559) 
ATP-HTVS-5694EB72FE49

>  <compound_code>  (559) 
38083

>  <title>  (559) 
m_2230bdc____17849930____20058632

>  <variant>  (559) 
38083-1

>  <source_file>  (559) 
运行/运行/ATP-VSW/ATP-VSW-DOCK_HTVS_1-003_lib/ATP-VSW-DOCK_HTVS_1-003_lib.mae

>  <canonical_smiles>  (559) 
O=C1CN(Cc2c(F)cc(Cl)cc2F)[C@H](c2ccccc2)c2ccccc2N1

>  <scaffold>  (559) 
O=C1CN(Cc2ccccc2)C(c2ccccc2)c2ccccc2N1

>  <molecular_formula>  (559) 
C22H17ClF2N2O

$$$$
ATP-HTVS-569AAE7497B4
     RDKit          3D

 63 66  0  0  0  0  0  0  0  0999 V2000
  197.5564  178.4114  148.1836 S   0  0  1  0  0  0  0  0  0  0  0  0
  198.5260  179.2582  147.4720 O   0  0  0  0  0  0  0  0  0  0  0  0
  196.1879  178.2356  147.6799 O   0  0  0  0  0  0  0  0  0  0  0  0
  198.2473  176.8481  148.3373 N   0  0  0  0  0  0  0  0  0  0  0  0
  197.4432  178.9850  149.8721 C   0  0  0  0  0  0  0  0  0  0  0  0
  198.3845  178.5603  150.8293 C   0  0  0  0  0  0  0  0  0  0  0  0
  198.2642  178.9928  152.1671 C   0  0  0  0  0  0  0  0  0  0  0  0
  197.1870  179.8187  152.5504 C   0  0  0  0  0  0  0  0  0  0  0  0
  196.2606  180.2488  151.5808 C   0  0  0  0  0  0  0  0  0  0  0  0
  196.3715  179.8211  150.2437 C   0  0  0  0  0  0  0  0  0  0  0  0
  197.0322  180.2780  153.9804 C   0  0  1  0  0  0  0  0  0  0  0  0
  197.9400  181.3764  154.2924 N   0  0  0  0  0  0  0  0  0  0  0  0
  197.8103  182.1221  155.4630 C   0  0  0  0  0  0  0  0  0  0  0  0
  196.7515  181.8874  156.2614 N   0  0  0  0  0  0  0  0  0  0  0  0
  196.5780  182.6693  157.3435 C   0  0  0  0  0  0  0  0  0  0  0  0
  197.5134  183.7084  157.6577 C   0  0  0  0  0  0  0  0  0  0  0  0
  198.5831  183.9399  156.8599 N   0  0  0  0  0  0  0  0  0  0  0  0
  198.7459  183.1516  155.7703 C   0  0  0  0  0  0  0  0  0  0  0  0
  199.8685  183.4409  154.9773 N   0  0  0  0  0  0  0  0  0  0  0  0
  200.8394  182.3903  154.6972 C   0  0  1  0  0  0  0  0  0  0  0  0
  201.3920  181.6801  155.9144 C   0  0  0  0  0  0  0  0  0  0  0  0
  200.9018  180.4082  156.2548 C   0  0  0  0  0  0  0  0  0  0  0  0
  201.4630  179.6640  157.3193 C   0  0  0  0  0  0  0  0  0  0  0  0
  202.4982  180.2580  158.0835 C   0  0  0  0  0  0  0  0  0  0  0  0
  202.9622  181.5601  157.7751 C   0  0  0  0  0  0  0  0  0  0  0  0
  202.4091  182.2692  156.6847 C   0  0  0  0  0  0  0  0  0  0  0  0
  200.9816  178.2470  157.6400 C   0  0  1  0  0  0  0  0  0  0  0  0
  200.9348  177.3969  156.4204 N   0  0  1  0  0  0  0  0  0  0  0  0
  201.5947  176.0774  156.5802 C   0  0  2  0  0  0  0  0  0  0  0  0
  199.5693  177.2450  155.8562 C   0  0  2  0  0  0  0  0  0  0  0  0
  197.2962  184.4936  158.8108 C   0  0  0  0  0  0  0  0  0  0  0  0
  196.1702  184.2890  159.6302 C   0  0  0  0  0  0  0  0  0  0  0  0
  195.2388  183.2906  159.3019 C   0  0  0  0  0  0  0  0  0  0  0  0
  195.4529  182.4818  158.1729 C   0  0  0  0  0  0  0  0  0  0  0  0
  198.5442  176.5118  147.4221 H   0  0  0  0  0  0  0  0  0  0  0  0
  197.5742  176.1917  148.7335 H   0  0  0  0  0  0  0  0  0  0  0  0
  199.2012  177.9117  150.5407 H   0  0  0  0  0  0  0  0  0  0  0  0
  198.9932  178.6707  152.8972 H   0  0  0  0  0  0  0  0  0  0  0  0
  195.4565  180.9062  151.8682 H   0  0  0  0  0  0  0  0  0  0  0  0
  195.6426  180.1348  149.5094 H   0  0  0  0  0  0  0  0  0  0  0  0
  196.0014  180.5876  154.1455 H   0  0  0  0  0  0  0  0  0  0  0  0
  197.2340  179.4506  154.6585 H   0  0  0  0  0  0  0  0  0  0  0  0
  198.7192  181.5659  153.6920 H   0  0  0  0  0  0  0  0  0  0  0  0
  200.3055  184.3199  155.2127 H   0  0  0  0  0  0  0  0  0  0  0  0
  200.4384  181.6348  154.0270 H   0  0  0  0  0  0  0  0  0  0  0  0
  201.6747  182.8163  154.1424 H   0  0  0  0  0  0  0  0  0  0  0  0
  200.0937  180.0368  155.6478 H   0  0  0  0  0  0  0  0  0  0  0  0
  202.9545  179.7342  158.9121 H   0  0  0  0  0  0  0  0  0  0  0  0
  203.7521  182.0137  158.3683 H   0  0  0  0  0  0  0  0  0  0  0  0
  202.7726  183.2561  156.4350 H   0  0  0  0  0  0  0  0  0  0  0  0
  201.6698  177.8207  158.3732 H   0  0  0  0  0  0  0  0  0  0  0  0
  200.0139  178.2727  158.1447 H   0  0  0  0  0  0  0  0  0  0  0  0
  201.1006  175.4735  157.3370 H   0  0  0  0  0  0  0  0  0  0  0  0
  202.6423  176.1689  156.8620 H   0  0  0  0  0  0  0  0  0  0  0  0
  201.5618  175.5139  155.6464 H   0  0  0  0  0  0  0  0  0  0  0  0
  198.9542  176.6665  156.5401 H   0  0  0  0  0  0  0  0  0  0  0  0
  199.6034  176.7184  154.9037 H   0  0  0  0  0  0  0  0  0  0  0  0
  199.0397  178.1800  155.6853 H   0  0  0  0  0  0  0  0  0  0  0  0
  198.0054  185.2700  159.0641 H   0  0  0  0  0  0  0  0  0  0  0  0
  196.0125  184.9047  160.5036 H   0  0  0  0  0  0  0  0  0  0  0  0
  194.3625  183.1370  159.9039 H   0  0  0  0  0  0  0  0  0  0  0  0
  194.7447  181.7112  157.9000 H   0  0  0  0  0  0  0  0  0  0  0  0
  201.5118  177.8909  155.7570 H   0  0  0  0  0  0  0  0  0  0  0  0
  1  2  2  0
  1  3  2  0
  1  4  1  1
  1  5  1  0
  4 35  1  0
  4 36  1  0
  5  6  1  0
  5 10  2  0
  6  7  2  0
  6 37  1  0
  7  8  1  0
  7 38  1  0
  8  9  2  0
  8 11  1  0
  9 10  1  0
  9 39  1  0
 10 40  1  0
 11 12  1  0
 11 41  1  6
 11 42  1  0
 12 13  1  0
 12 43  1  0
 13 14  2  0
 13 18  1  0
 14 15  1  0
 15 16  1  0
 15 34  2  0
 16 17  1  0
 16 31  2  0
 17 18  2  0
 18 19  1  0
 19 20  1  0
 19 44  1  0
 20 21  1  0
 20 45  1  6
 20 46  1  0
 21 22  2  0
 21 26  1  0
 22 23  1  0
 22 47  1  0
 23 24  2  0
 23 27  1  0
 24 25  1  0
 24 48  1  0
 25 26  2  0
 25 49  1  0
 26 50  1  0
 27 28  1  0
 27 51  1  1
 27 52  1  0
 28 29  1  0
 28 30  1  0
 28 63  1  6
 29 53  1  1
 29 54  1  0
 29 55  1  0
 30 56  1  1
 30 57  1  0
 30 58  1  0
 31 32  1  0
 31 59  1  0
 32 33  2  0
 32 60  1  0
 33 34  1  0
 33 61  1  0
 34 62  1  0
M  CHG  1  28   1
M  END
>  <s_epik_cmdline>  (560) 
J2VwaWtfcHl0aG9uJywgJy1waCcsICc3LjAwMDAwMCcsICctcGh0JywgJzIuMDAwMDAwJywgJy1tcycsICcxNicsICctdG4nLCAnOCcsICctbWEnLCAnMjAwJywgJy1pbWFlJywgJzxpbmZpbGUubWFlPicsICctb21hZScsICc8b3V0ZmlsZS5tYWU+Jw==

>  <s_epik_input>  (560) 
Tz1TKD1PKShbTkgyXSljMVtjSF1bY0hdYyhbY0hdW2NIXTEpW0NIMl1bTkhdYyhuMiljKG5jKGMyMylbY0hdW2NIXVtjSF1bY0hdMylbTkhdW0NIMl1jNFtjSF1jKFtjSF1bY0hdW2NIXTQpW0NIMl1OKFtDSDNdKVtDSDNd

>  <s_i_glide_gridfile>  (560) 
ATP-Grid

>  <s_lp_Force_Field>  (560) 
OPLS_2005

>  <s_lp_Variant>  (560) 
m_282030aaa____21928796____23157418____21945356-1

>  <s_lp_label>  (560) 
1983_sdstereoexpander_1_neutralizer_1_epik_1_stereoizer_1

>  <s_m_source_file>  (560) 
ATP-VSW-LIGPREP-002-in.maegz

>  <s_sd_BIOSOLVEIT.INFINISEE\_QUERY\_NAME>  (560) 
Ref-Lig

>  <s_sd_BIOSOLVEIT.INFINISEE\_QUERY\_SMILES>  (560) 
S(c1nc2c(cc1C[NH2+]Cc3ccc(cc3)C[NH+](C)C)cccc2)Cc4ccccc4

>  <s_sd_BIOSOLVEIT.INFINISEE\_REACTION\_NAME>  (560) 
m_282030aaa

>  <s_sd_BIOSOLVEIT.INFINISEE\_REAGENT1\_SMILES>  (560) 
[R1*]NCc1cc(ccc1)CN(C)C

>  <s_sd_BIOSOLVEIT.INFINISEE\_REAGENT2\_SMILES>  (560) 
[R1*]c1nc2c(nc1[R2*])cccc2

>  <s_sd_BIOSOLVEIT.INFINISEE\_REAGENT3\_SMILES>  (560) 
[R2*]NCc1ccc(S(=O)(=O)N)cc1

>  <s_sd_BIOSOLVEIT.INFINISEE\_SPACE>  (560) 
REALSpace_44bn_2023-08

>  <s_vsw_compound_code>  (560) 
63426

>  <s_vsw_variant>  (560) 
63426-1

>  <r_epik_Charging_Adjusted_Penalty>  (560) 
0.088195370499548398

>  <r_epik_Ionization_Penalty>  (560) 
0.044699999999999997

>  <r_epik_Ionization_Penalty_Charging>  (560) 
0.0441

>  <r_epik_Ionization_Penalty_Neutral>  (560) 
0.00069999999999999999

>  <r_epik_State_Penalty>  (560) 
0.0441

>  <r_i_docking_score>  (560) 
-4.1147685400670397

>  <r_i_glide_ecoul>  (560) 
-4.8962168693542498

>  <r_i_glide_eff_state_penalty>  (560) 
0.0441

>  <r_i_glide_einternal>  (560) 
6.0057411193847701

>  <r_i_glide_emodel>  (560) 
-57.5771599089367

>  <r_i_glide_energy>  (560) 
-45.486785411834703

>  <r_i_glide_erotb>  (560) 
0.621681633001678

>  <r_i_glide_esite>  (560) 
-0.010413595456725599

>  <r_i_glide_evdw>  (560) 
-40.590568542480497

>  <r_i_glide_gscore>  (560) 
-4.15886854006704

>  <r_i_glide_hbond>  (560) 
0

>  <r_i_glide_ligand_efficiency>  (560) 
-0.121022604119619

>  <r_i_glide_ligand_efficiency_ln>  (560) 
-0.90906778584897996

>  <r_i_glide_ligand_efficiency_sa>  (560) 
-0.392066256066394

>  <r_i_glide_lipo>  (560) 
-1.47147563317921

>  <r_i_glide_metal>  (560) 
-0

>  <r_i_glide_rewards>  (560) 
-0.53469998690562104

>  <r_lp_Energy>  (560) 
26.039587999999998

>  <r_qp_ACxDN^.5/SA>  (560) 
0.024912

>  <r_qp_CIQPlogS>  (560) 
-5.2119999999999997

>  <r_qp_EA(eV)>  (560) 
0.91800000000000004

>  <r_qp_FISA>  (560) 
165.87700000000001

>  <r_qp_FOSA>  (560) 
179.30699999999999

>  <r_qp_IP(eV)>  (560) 
8.2119999999999997

>  <r_qp_Jm>  (560) 
0.0053011435838446102

>  <r_qp_PISA>  (560) 
415.81900000000002

>  <r_qp_PSA>  (560) 
112.738

>  <r_qp_PercentHumanOralAbsorption>  (560) 
76.555999999999997

>  <r_qp_QPPCaco>  (560) 
66.037999999999997

>  <r_qp_QPPMDCK>  (560) 
29.632999999999999

>  <r_qp_QPlogBB>  (560) 
-1.2989999999999999

>  <r_qp_QPlogHERG>  (560) 
-7.2240000000000002

>  <r_qp_QPlogKhsa>  (560) 
0.22900000000000001

>  <r_qp_QPlogKp>  (560) 
-4.2140000000000004

>  <r_qp_QPlogPC16>  (560) 
16.757999999999999

>  <r_qp_QPlogPo/w>  (560) 
2.9100000000000001

>  <r_qp_QPlogPoct>  (560) 
27.991

>  <r_qp_QPlogPw>  (560) 
18.521999999999998

>  <r_qp_QPlogS>  (560) 
-3.7389999999999999

>  <r_qp_QPpolrz>  (560) 
49.780999999999999

>  <r_qp_SASA>  (560) 
762.68299999999999

>  <r_qp_SAamideO>  (560) 
0

>  <r_qp_SAfluorine>  (560) 
0

>  <r_qp_WPSA>  (560) 
1.6799999999999999

>  <r_qp_accptHB>  (560) 
9.5

>  <r_qp_dip^2/V>  (560) 
0.0070667000000000004

>  <r_qp_dipole>  (560) 
3.2109999999999999

>  <r_qp_donorHB>  (560) 
4

>  <r_qp_glob>  (560) 
0.81565189999999999

>  <r_qp_mol_MW>  (560) 
476.59500000000003

>  <r_qp_volume>  (560) 
1458.902

>  <r_sd_BIOSOLVEIT.INFINISEE\_FTREES\_SIMILARITY>  (560) 
0.90200000000000002

>  <r_sd_BIOSOLVEIT.LOGP>  (560) 
2.7965

>  <r_sd_BIOSOLVEIT.MOLECULAR\_WEIGHT>  (560) 
477.60899999999998

>  <r_sd_BIOSOLVEIT.TPSA>  (560) 
114.44

>  <i_epik_Tot_Q>  (560) 
1

>  <i_epik_Tot_abs_Q>  (560) 
1

>  <i_f3d_flags>  (560) 
0

>  <i_i_glide_confnum>  (560) 
8

>  <i_i_glide_lignum>  (560) 
720

>  <i_i_glide_posenum>  (560) 
3

>  <i_i_glide_rotatable_bonds>  (560) 
9

>  <i_lp_mmshare_version>  (560) 
65135

>  <i_m_ct_format>  (560) 
2

>  <i_m_source_file_index>  (560) 
1983

>  <i_qp_#NandO>  (560) 
8

>  <i_qp_#acid>  (560) 
0

>  <i_qp_#amide>  (560) 
0

>  <i_qp_#amidine>  (560) 
0

>  <i_qp_#amine>  (560) 
1

>  <i_qp_#in34>  (560) 
0

>  <i_qp_#in56>  (560) 
22

>  <i_qp_#metab>  (560) 
4

>  <i_qp_#nonHatm>  (560) 
34

>  <i_qp_#noncon>  (560) 
0

>  <i_qp_#ringatoms>  (560) 
22

>  <i_qp_#rotor>  (560) 
10

>  <i_qp_#rtvFG>  (560) 
0

>  <i_qp_#stars>  (560) 
0

>  <i_qp_CNS>  (560) 
-2

>  <i_qp_HumanOralAbsorption>  (560) 
3

>  <i_qp_RuleOfFive>  (560) 
0

>  <i_qp_RuleOfThree>  (560) 
0

>  <i_sd_BIOSOLVEIT.INFINISEE\_REAGENT1\_NAME>  (560) 
21928796

>  <i_sd_BIOSOLVEIT.INFINISEE\_REAGENT2\_NAME>  (560) 
23157418

>  <i_sd_BIOSOLVEIT.INFINISEE\_REAGENT3\_NAME>  (560) 
21945356

>  <i_sd_BIOSOLVEIT.INFINISEE\_RESULT\_RANK>  (560) 
89576

>  <i_sd_version>  (560) 
0

>  <b_lp_Chiralities_Consistent>  (560) 
1

>  <b_sd_chiral_flag>  (560) 
0

>  <canonical_id>  (560) 
ATP-HTVS-569AAE7497B4

>  <compound_code>  (560) 
63426

>  <title>  (560) 
m_282030aaa____21928796____23157418____21945356

>  <variant>  (560) 
63426-1

>  <source_file>  (560) 
运行/运行/ATP-VSW/ATP-VSW-DOCK_HTVS_1-002_lib.maegz

>  <canonical_smiles>  (560) 
C[NH+](C)Cc1cccc(CNc2nc3ccccc3nc2NCc2ccc(S(N)(=O)=O)cc2)c1

>  <scaffold>  (560) 
c1ccc(CNc2nc3ccccc3nc2NCc2ccccc2)cc1

>  <molecular_formula>  (560) 
C25H29N6O2S+

$$$$
ATP-HTVS-56BFCD0C6B29
     RDKit          3D

 63 66  0  0  0  0  0  0  0  0999 V2000
  200.2150  189.5457  153.0550 F   0  0  0  0  0  0  0  0  0  0  0  0
  200.1144  188.3085  153.5954 C   0  0  0  0  0  0  0  0  0  0  0  0
  199.1483  188.0470  154.5828 C   0  0  0  0  0  0  0  0  0  0  0  0
  199.0156  186.7543  155.1348 C   0  0  0  0  0  0  0  0  0  0  0  0
  199.8724  185.7195  154.6882 C   0  0  0  0  0  0  0  0  0  0  0  0
  200.8455  185.9822  153.7065 C   0  0  0  0  0  0  0  0  0  0  0  0
  200.9652  187.2738  153.1579 C   0  0  0  0  0  0  0  0  0  0  0  0
  197.9351  186.4723  156.1369 C   0  0  0  0  0  0  0  0  0  0  0  0
  196.8735  187.0996  156.1226 O   0  0  0  0  0  0  0  0  0  0  0  0
  198.2383  185.5719  157.0863 N   0  0  0  0  0  0  0  0  0  0  0  0
  197.3394  185.0939  158.0770 C   0  0  0  0  0  0  0  0  0  0  0  0
  196.9829  183.7236  158.0819 C   0  0  0  0  0  0  0  0  0  0  0  0
  197.4612  182.8519  157.0914 N   0  0  0  0  0  0  0  0  0  0  0  0
  196.5343  181.8118  156.6729 C   0  0  1  0  0  0  0  0  0  0  0  0
  196.9660  181.1620  155.3896 C   0  0  0  0  0  0  0  0  0  0  0  0
  196.6281  181.7876  154.1755 C   0  0  0  0  0  0  0  0  0  0  0  0
  197.0935  181.2734  152.9669 C   0  0  0  0  0  0  0  0  0  0  0  0
  197.8389  180.0700  152.9379 C   0  0  0  0  0  0  0  0  0  0  0  0
  198.1467  179.4365  154.1686 C   0  0  0  0  0  0  0  0  0  0  0  0
  197.7249  179.9779  155.3946 C   0  0  0  0  0  0  0  0  0  0  0  0
  198.3522  179.4637  151.6320 C   0  0  1  0  0  0  0  0  0  0  0  0
  197.3352  179.0706  150.6307 N   0  0  0  0  0  0  0  0  0  0  0  0
  197.9330  178.3880  149.4714 C   0  0  1  0  0  0  0  0  0  0  0  0
  198.6259  177.0542  149.7953 C   0  0  2  0  0  0  0  0  0  0  0  0
  196.5038  180.1722  150.1163 C   0  0  1  0  0  0  0  0  0  0  0  0
  197.3454  181.3642  149.5668 C   0  0  2  0  0  0  0  0  0  0  0  0
  196.0949  183.2753  159.0855 C   0  0  0  0  0  0  0  0  0  0  0  0
  195.5491  184.0844  160.0131 N   0  0  0  0  0  0  0  0  0  0  0  0
  195.8573  185.3922  159.9962 C   0  0  0  0  0  0  0  0  0  0  0  0
  196.7816  185.9507  159.0675 C   0  0  0  0  0  0  0  0  0  0  0  0
  197.0993  187.3270  159.1432 C   0  0  0  0  0  0  0  0  0  0  0  0
  196.4765  188.1578  160.0870 C   0  0  0  0  0  0  0  0  0  0  0  0
  195.5457  187.6167  160.9891 C   0  0  0  0  0  0  0  0  0  0  0  0
  195.2473  186.2483  160.9413 C   0  0  0  0  0  0  0  0  0  0  0  0
  198.4902  188.8443  154.9028 H   0  0  0  0  0  0  0  0  0  0  0  0
  199.7761  184.7173  155.0817 H   0  0  0  0  0  0  0  0  0  0  0  0
  201.4883  185.1816  153.3689 H   0  0  0  0  0  0  0  0  0  0  0  0
  201.7030  187.4695  152.3966 H   0  0  0  0  0  0  0  0  0  0  0  0
  199.1254  185.1053  157.0306 H   0  0  0  0  0  0  0  0  0  0  0  0
  198.0138  183.2453  156.3475 H   0  0  0  0  0  0  0  0  0  0  0  0
  196.4417  181.0573  157.4485 H   0  0  0  0  0  0  0  0  0  0  0  0
  195.5489  182.2471  156.5322 H   0  0  0  0  0  0  0  0  0  0  0  0
  195.9876  182.6626  154.1836 H   0  0  0  0  0  0  0  0  0  0  0  0
  196.8686  181.8527  152.0771 H   0  0  0  0  0  0  0  0  0  0  0  0
  198.7322  178.5245  154.1765 H   0  0  0  0  0  0  0  0  0  0  0  0
  197.9925  179.4987  156.3341 H   0  0  0  0  0  0  0  0  0  0  0  0
  199.0865  180.1423  151.1935 H   0  0  0  0  0  0  0  0  0  0  0  0
  198.9268  178.5873  151.9326 H   0  0  0  0  0  0  0  0  0  0  0  0
  197.1417  178.1817  148.7457 H   0  0  0  0  0  0  0  0  0  0  0  0
  198.6637  179.0283  148.9794 H   0  0  0  0  0  0  0  0  0  0  0  0
  198.9794  176.5831  148.8712 H   0  0  0  0  0  0  0  0  0  0  0  0
  197.9511  176.3557  150.2974 H   0  0  0  0  0  0  0  0  0  0  0  0
  199.5104  177.1980  150.4197 H   0  0  0  0  0  0  0  0  0  0  0  0
  195.8383  179.7845  149.3249 H   0  0  0  0  0  0  0  0  0  0  0  0
  195.8392  180.4874  150.9329 H   0  0  0  0  0  0  0  0  0  0  0  0
  196.7172  182.2032  149.2883 H   0  0  0  0  0  0  0  0  0  0  0  0
  197.9322  181.0888  148.6945 H   0  0  0  0  0  0  0  0  0  0  0  0
  198.0571  181.7540  150.2830 H   0  0  0  0  0  0  0  0  0  0  0  0
  195.7916  182.2431  159.1541 H   0  0  0  0  0  0  0  0  0  0  0  0
  197.8130  187.7916  158.4786 H   0  0  0  0  0  0  0  0  0  0  0  0
  196.6858  189.2175  160.0940 H   0  0  0  0  0  0  0  0  0  0  0  0
  195.0547  188.2613  161.7051 H   0  0  0  0  0  0  0  0  0  0  0  0
  194.5294  185.8489  161.6396 H   0  0  0  0  0  0  0  0  0  0  0  0
  1  2  1  0
  2  3  2  0
  2  7  1  0
  3  4  1  0
  3 35  1  0
  4  5  2  0
  4  8  1  0
  5  6  1  0
  5 36  1  0
  6  7  2  0
  6 37  1  0
  7 38  1  0
  8  9  2  0
  8 10  1  0
 10 11  1  0
 10 39  1  0
 11 12  2  0
 11 30  1  0
 12 13  1  0
 12 27  1  0
 13 14  1  0
 13 40  1  0
 14 15  1  0
 14 41  1  1
 14 42  1  0
 15 16  1  0
 15 20  2  0
 16 17  2  0
 16 43  1  0
 17 18  1  0
 17 44  1  0
 18 19  2  0
 18 21  1  0
 19 20  1  0
 19 45  1  0
 20 46  1  0
 21 22  1  0
 21 47  1  6
 21 48  1  0
 22 23  1  0
 22 25  1  0
 23 24  1  0
 23 49  1  6
 23 50  1  0
 24 51  1  6
 24 52  1  0
 24 53  1  0
 25 26  1  0
 25 54  1  6
 25 55  1  0
 26 56  1  6
 26 57  1  0
 26 58  1  0
 27 28  2  0
 27 59  1  0
 28 29  1  0
 29 30  1  0
 29 34  2  0
 30 31  2  0
 31 32  1  0
 31 60  1  0
 32 33  2  0
 32 61  1  0
 33 34  1  0
 33 62  1  0
 34 63  1  0
M  END
>  <s_epik_cmdline>  (561) 
J2VwaWtfcHl0aG9uJywgJy1waCcsICc3LjAwMDAwMCcsICctcGh0JywgJzIuMDAwMDAwJywgJy1tcycsICcxNicsICctdG4nLCAnOCcsICctbWEnLCAnMjAwJywgJy1pbWFlJywgJzxpbmZpbGUubWFlPicsICctb21hZScsICc8b3V0ZmlsZS5tYWU+Jw==

>  <s_epik_input>  (561) 
RmMxW2NIXWMoW2NIXVtjSF1bY0hdMSlDKD1PKVtOSF1jKGMoYzIzKVtjSF1bY0hdW2NIXVtjSF0zKWMoW2NIXW4yKVtOSF1bQ0gyXWM0W2NIXVtjSF1jKFtjSF1bY0hdNClbQ0gyXU4oW0NIMl1bQ0gzXSlbQ0gyXVtDSDNd

>  <s_i_glide_gridfile>  (561) 
ATP-Grid

>  <s_lp_Force_Field>  (561) 
OPLS_2005

>  <s_lp_Variant>  (561) 
rxn502b____EMOL511643____EMOL13728749____EMOL2868412-3

>  <s_lp_label>  (561) 
2257_sdstereoexpander_1_neutralizer_1_epik_3_stereoizer_1

>  <s_m_source_file>  (561) 
ATP-VSW-LIGPREP-001-in.maegz

>  <s_sd_BIOSOLVEIT.INFINISEE\_QUERY\_NAME>  (561) 
Ref-Lig

>  <s_sd_BIOSOLVEIT.INFINISEE\_QUERY\_SMILES>  (561) 
S(c1nc2c(cc1C[NH2+]Cc3ccc(cc3)C[NH+](C)C)cccc2)Cc4ccccc4

>  <s_sd_BIOSOLVEIT.INFINISEE\_REACTION\_NAME>  (561) 
rxn502b

>  <s_sd_BIOSOLVEIT.INFINISEE\_REAGENT1\_NAME>  (561) 
EMOL511643

>  <s_sd_BIOSOLVEIT.INFINISEE\_REAGENT1\_SMILES>  (561) 
Fc1cc(ccc1)C(=O)O

>  <s_sd_BIOSOLVEIT.INFINISEE\_REAGENT2\_NAME>  (561) 
EMOL13728749

>  <s_sd_BIOSOLVEIT.INFINISEE\_REAGENT2\_SMILES>  (561) 
Brc1c(N)c2c(nc1)cccc2

>  <s_sd_BIOSOLVEIT.INFINISEE\_REAGENT3\_NAME>  (561) 
EMOL2868412

>  <s_sd_BIOSOLVEIT.INFINISEE\_REAGENT3\_SMILES>  (561) 
N(Cc1ccc(cc1)CN)(CC)CC

>  <s_sd_BIOSOLVEIT.INFINISEE\_SPACE>  (561) 
eXplore_7tr_2022-12

>  <s_vsw_compound_code>  (561) 
72193

>  <s_vsw_variant>  (561) 
72193-3

>  <r_epik_Charging_Adjusted_Penalty>  (561) 
2.1900636274952299

>  <r_epik_Ionization_Penalty>  (561) 
2.1901000000000002

>  <r_epik_Ionization_Penalty_Charging>  (561) 
0

>  <r_epik_Ionization_Penalty_Neutral>  (561) 
2.1901000000000002

>  <r_epik_State_Penalty>  (561) 
2.1901000000000002

>  <r_i_docking_score>  (561) 
-1.7581680363112899

>  <r_i_glide_ecoul>  (561) 
-2.71341824531555

>  <r_i_glide_eff_state_penalty>  (561) 
2.1901000000000002

>  <r_i_glide_einternal>  (561) 
4.1502938270568803

>  <r_i_glide_emodel>  (561) 
-49.394796155251903

>  <r_i_glide_energy>  (561) 
-41.0357182025909

>  <r_i_glide_erotb>  (561) 
0.77135768212825995

>  <r_i_glide_esite>  (561) 
-0.026196899648382899

>  <r_i_glide_evdw>  (561) 
-38.322299957275398

>  <r_i_glide_gscore>  (561) 
-3.9482680363112901

>  <r_i_glide_hbond>  (561) 
0

>  <r_i_glide_ligand_efficiency>  (561) 
-0.051710824597390799

>  <r_i_glide_ligand_efficiency_ln>  (561) 
-0.388428634164173

>  <r_i_glide_ligand_efficiency_sa>  (561) 
-0.167522997422582

>  <r_i_glide_lipo>  (561) 
-1.86319386291502

>  <r_i_glide_metal>  (561) 
-0

>  <r_i_glide_rewards>  (561) 
-0.50710722121503904

>  <r_lp_Energy>  (561) 
39.201059999999998

>  <r_qp_ACxDN^.5/SA>  (561) 
0.012551700000000001

>  <r_qp_CIQPlogS>  (561) 
-6.1059999999999999

>  <r_qp_EA(eV)>  (561) 
1.069

>  <r_qp_FISA>  (561) 
62.646000000000001

>  <r_qp_FOSA>  (561) 
228.024

>  <r_qp_IP(eV)>  (561) 
8.4969999999999999

>  <r_qp_Jm>  (561) 
0.032660804458012803

>  <r_qp_PISA>  (561) 
394.745

>  <r_qp_PSA>  (561) 
59.938000000000002

>  <r_qp_PercentHumanOralAbsorption>  (561) 
100

>  <r_qp_QPPCaco>  (561) 
629.10599999999999

>  <r_qp_QPPMDCK>  (561) 
599.577

>  <r_qp_QPlogBB>  (561) 
-0.071999999999999995

>  <r_qp_QPlogHERG>  (561) 
-6.8959999999999999

>  <r_qp_QPlogKhsa>  (561) 
0.76100000000000001

>  <r_qp_QPlogKp>  (561) 
-2.4820000000000002

>  <r_qp_QPlogPC16>  (561) 
14.622999999999999

>  <r_qp_QPlogPo/w>  (561) 
4.9560000000000004

>  <r_qp_QPlogPoct>  (561) 
23.155999999999999

>  <r_qp_QPlogPw>  (561) 
11.956

>  <r_qp_QPlogS>  (561) 
-4.6630000000000003

>  <r_qp_QPpolrz>  (561) 
48.203000000000003

>  <r_qp_SASA>  (561) 
732.36099999999999

>  <r_qp_SAamideO>  (561) 
0

>  <r_qp_SAfluorine>  (561) 
46.945999999999998

>  <r_qp_WPSA>  (561) 
46.945999999999998

>  <r_qp_accptHB>  (561) 
6.5

>  <r_qp_dip^2/V>  (561) 
0.042945900000000002

>  <r_qp_dipole>  (561) 
7.7770000000000001

>  <r_qp_donorHB>  (561) 
2

>  <r_qp_glob>  (561) 
0.82972389999999996

>  <r_qp_mol_MW>  (561) 
456.56200000000001

>  <r_qp_volume>  (561) 
1408.4490000000001

>  <r_sd_BIOSOLVEIT.INFINISEE\_FTREES\_SIMILARITY>  (561) 
0.92600000000000005

>  <r_sd_BIOSOLVEIT.LOGP>  (561) 
4.6630000000000003

>  <r_sd_BIOSOLVEIT.MOLECULAR\_WEIGHT>  (561) 
457.56999999999999

>  <r_sd_BIOSOLVEIT.TPSA>  (561) 
58.460000000000001

>  <i_epik_Tot_Q>  (561) 
0

>  <i_epik_Tot_abs_Q>  (561) 
0

>  <i_f3d_flags>  (561) 
0

>  <i_i_glide_confnum>  (561) 
16

>  <i_i_glide_lignum>  (561) 
778

>  <i_i_glide_posenum>  (561) 
10

>  <i_i_glide_rotatable_bonds>  (561) 
10

>  <i_lp_mmshare_version>  (561) 
65135

>  <i_m_ct_format>  (561) 
2

>  <i_m_source_file_index>  (561) 
2257

>  <i_qp_#NandO>  (561) 
5

>  <i_qp_#acid>  (561) 
0

>  <i_qp_#amide>  (561) 
0

>  <i_qp_#amidine>  (561) 
0

>  <i_qp_#amine>  (561) 
1

>  <i_qp_#in34>  (561) 
0

>  <i_qp_#in56>  (561) 
22

>  <i_qp_#metab>  (561) 
6

>  <i_qp_#nonHatm>  (561) 
34

>  <i_qp_#noncon>  (561) 
0

>  <i_qp_#ringatoms>  (561) 
22

>  <i_qp_#rotor>  (561) 
9

>  <i_qp_#rtvFG>  (561) 
0

>  <i_qp_#stars>  (561) 
0

>  <i_qp_CNS>  (561) 
1

>  <i_qp_HumanOralAbsorption>  (561) 
3

>  <i_qp_RuleOfFive>  (561) 
0

>  <i_qp_RuleOfThree>  (561) 
0

>  <i_sd_BIOSOLVEIT.INFINISEE\_RESULT\_RANK>  (561) 
8126

>  <i_sd_version>  (561) 
0

>  <b_lp_Chiralities_Consistent>  (561) 
1

>  <b_sd_chiral_flag>  (561) 
0

>  <canonical_id>  (561) 
ATP-HTVS-56BFCD0C6B29

>  <compound_code>  (561) 
72193

>  <title>  (561) 
rxn502b____EMOL511643____EMOL13728749____EMOL2868412

>  <variant>  (561) 
72193-3

>  <source_file>  (561) 
运行/运行/ATP-VSW/ATP-VSW-DOCK_HTVS_1-001_lib/ATP-VSW-DOCK_HTVS_1-001_lib

>  <canonical_smiles>  (561) 
CCN(CC)Cc1ccc(CNc2cnc3ccccc3c2NC(=O)c2cccc(F)c2)cc1

>  <scaffold>  (561) 
O=C(Nc1c(NCc2ccccc2)cnc2ccccc12)c1ccccc1

>  <molecular_formula>  (561) 
C28H29FN4O

$$$$
ATP-HTVS-57132EA8AA79
     RDKit          3D

 66 69  0  0  0  0  0  0  0  0999 V2000
  198.3611  179.1972  154.4069 N   0  0  0  0  0  0  0  0  0  0  0  0
  197.5771  180.2972  154.3464 C   0  0  0  0  0  0  0  0  0  0  0  0
  196.3793  180.2221  153.6163 N   0  0  0  0  0  0  0  0  0  0  0  0
  196.3580  179.4827  152.3602 C   0  0  1  0  0  0  0  0  0  0  0  0
  197.0689  180.1790  151.2046 C   0  0  0  0  0  0  0  0  0  0  0  0
  197.9110  179.4714  150.3110 C   0  0  0  0  0  0  0  0  0  0  0  0
  198.1254  178.0962  150.4318 N   0  0  0  0  0  0  0  0  0  0  0  0
  198.5524  180.1573  149.2582 C   0  0  0  0  0  0  0  0  0  0  0  0
  198.3522  181.5399  149.0721 C   0  0  0  0  0  0  0  0  0  0  0  0
  197.4959  182.2405  149.9442 C   0  0  0  0  0  0  0  0  0  0  0  0
  196.8577  181.5632  151.0012 C   0  0  0  0  0  0  0  0  0  0  0  0
  199.0430  182.2566  147.9296 C   0  0  2  0  0  0  0  0  0  0  0  0
  197.9316  181.4897  155.0240 C   0  0  0  0  0  0  0  0  0  0  0  0
  199.0820  181.5748  155.7294 N   0  0  0  0  0  0  0  0  0  0  0  0
  199.8615  180.4778  155.8044 C   0  0  0  0  0  0  0  0  0  0  0  0
  199.4915  179.2635  155.1511 C   0  0  0  0  0  0  0  0  0  0  0  0
  200.3155  178.1288  155.2939 C   0  0  0  0  0  0  0  0  0  0  0  0
  201.4999  178.1928  156.0511 C   0  0  0  0  0  0  0  0  0  0  0  0
  201.8732  179.3974  156.6699 C   0  0  0  0  0  0  0  0  0  0  0  0
  201.0594  180.5303  156.5457 C   0  0  0  0  0  0  0  0  0  0  0  0
  197.1090  182.6234  154.9679 N   0  0  0  0  0  0  0  0  0  0  0  0
  197.1477  183.6050  156.0398 C   0  0  1  0  0  0  0  0  0  0  0  0
  196.7628  183.0071  157.4094 C   0  0  1  0  0  0  0  0  0  0  0  0
  196.4949  184.0779  158.4456 C   0  0  0  0  0  0  0  0  0  0  0  0
  197.5704  184.7474  159.0602 C   0  0  0  0  0  0  0  0  0  0  0  0
  197.3128  185.7693  159.9865 C   0  0  0  0  0  0  0  0  0  0  0  0
  195.9944  186.1660  160.2859 C   0  0  0  0  0  0  0  0  0  0  0  0
  194.9227  185.4487  159.7143 C   0  0  0  0  0  0  0  0  0  0  0  0
  195.1689  184.4174  158.7846 C   0  0  0  0  0  0  0  0  0  0  0  0
  195.7280  187.3396  161.2232 C   0  0  1  0  0  0  0  0  0  0  0  0
  195.9456  188.6724  160.5897 N   0  0  1  0  0  0  0  0  0  0  0  0
  195.3397  189.7677  161.3819 C   0  0  2  0  0  0  0  0  0  0  0  0
  197.3506  188.9881  160.2428 C   0  0  2  0  0  0  0  0  0  0  0  0
  195.7395  180.9944  153.7079 H   0  0  0  0  0  0  0  0  0  0  0  0
  196.7592  178.4855  152.5237 H   0  0  0  0  0  0  0  0  0  0  0  0
  195.3186  179.3356  152.0737 H   0  0  0  0  0  0  0  0  0  0  0  0
  198.8274  177.6348  149.8703 H   0  0  0  0  0  0  0  0  0  0  0  0
  197.8316  177.6000  151.2606 H   0  0  0  0  0  0  0  0  0  0  0  0
  199.1989  179.6201  148.5790 H   0  0  0  0  0  0  0  0  0  0  0  0
  197.3213  183.2976  149.8044 H   0  0  0  0  0  0  0  0  0  0  0  0
  196.2002  182.1142  151.6582 H   0  0  0  0  0  0  0  0  0  0  0  0
  198.6718  183.2746  147.8130 H   0  0  0  0  0  0  0  0  0  0  0  0
  198.8781  181.7284  146.9902 H   0  0  0  0  0  0  0  0  0  0  0  0
  200.1162  182.3033  148.1114 H   0  0  0  0  0  0  0  0  0  0  0  0
  200.0271  177.1938  154.8313 H   0  0  0  0  0  0  0  0  0  0  0  0
  202.1316  177.3235  156.1562 H   0  0  0  0  0  0  0  0  0  0  0  0
  202.7815  179.4421  157.2478 H   0  0  0  0  0  0  0  0  0  0  0  0
  201.3460  181.4551  157.0246 H   0  0  0  0  0  0  0  0  0  0  0  0
  196.2038  182.5327  154.5270 H   0  0  0  0  0  0  0  0  0  0  0  0
  198.1218  184.0962  156.0711 H   0  0  0  0  0  0  0  0  0  0  0  0
  196.4225  184.3663  155.7639 H   0  0  0  0  0  0  0  0  0  0  0  0
  195.8822  182.3715  157.3174 H   0  0  0  0  0  0  0  0  0  0  0  0
  197.5613  182.3719  157.7886 H   0  0  0  0  0  0  0  0  0  0  0  0
  198.5924  184.4904  158.8158 H   0  0  0  0  0  0  0  0  0  0  0  0
  198.1483  186.2495  160.4626 H   0  0  0  0  0  0  0  0  0  0  0  0
  193.8990  185.7098  159.9533 H   0  0  0  0  0  0  0  0  0  0  0  0
  194.3384  183.9088  158.3069 H   0  0  0  0  0  0  0  0  0  0  0  0
  194.6879  187.2848  161.5509 H   0  0  0  0  0  0  0  0  0  0  0  0
  196.3192  187.2276  162.1296 H   0  0  0  0  0  0  0  0  0  0  0  0
  195.8115  189.8750  162.3647 H   0  0  0  0  0  0  0  0  0  0  0  0
  194.2749  189.5849  161.5311 H   0  0  0  0  0  0  0  0  0  0  0  0
  195.4301  190.7217  160.8551 H   0  0  0  0  0  0  0  0  0  0  0  0
  197.9436  188.9554  161.1449 H   0  0  0  0  0  0  0  0  0  0  0  0
  197.4394  189.9941  159.8181 H   0  0  0  0  0  0  0  0  0  0  0  0
  197.7800  188.2999  159.5097 H   0  0  0  0  0  0  0  0  0  0  0  0
  195.4295  188.6700  159.7194 H   0  0  0  0  0  0  0  0  0  0  0  0
  1  2  2  0
  1 16  1  0
  2  3  1  0
  2 13  1  0
  3  4  1  0
  3 34  1  0
  4  5  1  0
  4 35  1  1
  4 36  1  0
  5  6  2  0
  5 11  1  0
  6  7  1  0
  6  8  1  0
  7 37  1  0
  7 38  1  0
  8  9  2  0
  8 39  1  0
  9 10  1  0
  9 12  1  0
 10 11  2  0
 10 40  1  0
 11 41  1  0
 12 42  1  6
 12 43  1  0
 12 44  1  0
 13 14  2  0
 13 21  1  0
 14 15  1  0
 15 16  1  0
 15 20  2  0
 16 17  2  0
 17 18  1  0
 17 45  1  0
 18 19  2  0
 18 46  1  0
 19 20  1  0
 19 47  1  0
 20 48  1  0
 21 22  1  0
 21 49  1  0
 22 23  1  0
 22 50  1  1
 22 51  1  0
 23 24  1  0
 23 52  1  6
 23 53  1  0
 24 25  1  0
 24 29  2  0
 25 26  2  0
 25 54  1  0
 26 27  1  0
 26 55  1  0
 27 28  2  0
 27 30  1  0
 28 29  1  0
 28 56  1  0
 29 57  1  0
 30 31  1  0
 30 58  1  1
 30 59  1  0
 31 32  1  0
 31 33  1  0
 31 66  1  6
 32 60  1  1
 32 61  1  0
 32 62  1  0
 33 63  1  1
 33 64  1  0
 33 65  1  0
M  CHG  1  31   1
M  END
>  <s_epik_cmdline>  (562) 
J2VwaWtfcHl0aG9uJywgJy1waCcsICc3LjAwMDAwMCcsICctcGh0JywgJzIuMDAwMDAwJywgJy1tcycsICcxNicsICctdG4nLCAnOCcsICctbWEnLCAnMjAwJywgJy1pbWFlJywgJzxpbmZpbGUubWFlPicsICctb21hZScsICc8b3V0ZmlsZS5tYWU+Jw==

>  <s_epik_input>  (562) 
W2NIXTFbY0hdYyhbQ0gzXSlbY0hdYyhbTkgyXSljMVtDSDJdW05IXWMobmMoYzIzKVtjSF1bY0hdW2NIXVtjSF0zKWMobjIpW05IXVtDSDJdW0NIMl1jNFtjSF1bY0hdYyhbY0hdW2NIXTQpW0NIMl1OKFtDSDNdKVtDSDNd

>  <s_i_glide_gridfile>  (562) 
ATP-Grid

>  <s_lp_Force_Field>  (562) 
OPLS_2005

>  <s_lp_Variant>  (562) 
m_282030aaa____21926464____23157418____21937252-1

>  <s_lp_label>  (562) 
1131_sdstereoexpander_1_neutralizer_1_epik_1_stereoizer_1

>  <s_m_source_file>  (562) 
ATP-VSW-LIGPREP-001-in.maegz

>  <s_sd_BIOSOLVEIT.INFINISEE\_QUERY\_NAME>  (562) 
Ref-Lig

>  <s_sd_BIOSOLVEIT.INFINISEE\_QUERY\_SMILES>  (562) 
S(c1nc2c(cc1C[NH2+]Cc3ccc(cc3)C[NH+](C)C)cccc2)Cc4ccccc4

>  <s_sd_BIOSOLVEIT.INFINISEE\_REACTION\_NAME>  (562) 
m_282030aaa

>  <s_sd_BIOSOLVEIT.INFINISEE\_REAGENT1\_SMILES>  (562) 
[R1*]NCCc1ccc(cc1)CN(C)C

>  <s_sd_BIOSOLVEIT.INFINISEE\_REAGENT2\_SMILES>  (562) 
[R1*]c1nc2c(nc1[R2*])cccc2

>  <s_sd_BIOSOLVEIT.INFINISEE\_REAGENT3\_SMILES>  (562) 
[R2*]NCc1c(N)cc(cc1)C

>  <s_sd_BIOSOLVEIT.INFINISEE\_SPACE>  (562) 
REALSpace_44bn_2023-08

>  <s_vsw_compound_code>  (562) 
36161

>  <s_vsw_variant>  (562) 
36161-1

>  <r_epik_Charging_Adjusted_Penalty>  (562) 
0.087743106941275503

>  <r_epik_Ionization_Penalty>  (562) 
0.047199999999999999

>  <r_epik_Ionization_Penalty_Charging>  (562) 
0.041000000000000002

>  <r_epik_Ionization_Penalty_Neutral>  (562) 
0.0061999999999999998

>  <r_epik_State_Penalty>  (562) 
0.046800000000000001

>  <r_i_docking_score>  (562) 
-3.7034931772187898

>  <r_i_glide_ecoul>  (562) 
-6.3859696388244602

>  <r_i_glide_eff_state_penalty>  (562) 
0.046800000000000001

>  <r_i_glide_einternal>  (562) 
2.9295294284820601

>  <r_i_glide_emodel>  (562) 
-45.391852519057998

>  <r_i_glide_energy>  (562) 
-35.870264530181899

>  <r_i_glide_erotb>  (562) 
0.81952877097533405

>  <r_i_glide_esite>  (562) 
-0.036884676102025803

>  <r_i_glide_evdw>  (562) 
-29.484294891357401

>  <r_i_glide_gscore>  (562) 
-3.75029317721879

>  <r_i_glide_hbond>  (562) 
0

>  <r_i_glide_ligand_efficiency>  (562) 
-0.11222706597632701

>  <r_i_glide_ligand_efficiency_ln>  (562) 
-0.82363770695204797

>  <r_i_glide_ligand_efficiency_sa>  (562) 
-0.35997216645422703

>  <r_i_glide_lipo>  (562) 
-1.7025847180642

>  <r_i_glide_metal>  (562) 
-0

>  <r_i_glide_rewards>  (562) 
-0.39824236363636301

>  <r_lp_Energy>  (562) 
30.086418999999999

>  <r_qp_ACxDN^.5/SA>  (562) 
0.0147653

>  <r_qp_CIQPlogS>  (562) 
-5.8209999999999997

>  <r_qp_EA(eV)>  (562) 
0.68899999999999995

>  <r_qp_FISA>  (562) 
72.831999999999994

>  <r_qp_FOSA>  (562) 
376.62799999999999

>  <r_qp_IP(eV)>  (562) 
7.976

>  <r_qp_Jm>  (562) 
0.011741723136488001

>  <r_qp_PISA>  (562) 
310.767

>  <r_qp_PSA>  (562) 
70.286000000000001

>  <r_qp_PercentHumanOralAbsorption>  (562) 
100

>  <r_qp_QPPCaco>  (562) 
503.65100000000001

>  <r_qp_QPPMDCK>  (562) 
260.77600000000001

>  <r_qp_QPlogBB>  (562) 
-0.379

>  <r_qp_QPlogHERG>  (562) 
-6.798

>  <r_qp_QPlogKhsa>  (562) 
0.76100000000000001

>  <r_qp_QPlogKp>  (562) 
-2.8700000000000001

>  <r_qp_QPlogPC16>  (562) 
15.08

>  <r_qp_QPlogPo/w>  (562) 
4.702

>  <r_qp_QPlogPoct>  (562) 
24.067

>  <r_qp_QPlogPw>  (562) 
12.988

>  <r_qp_QPlogS>  (562) 
-4.7050000000000001

>  <r_qp_QPpolrz>  (562) 
48

>  <r_qp_SASA>  (562) 
760.22699999999998

>  <r_qp_SAamideO>  (562) 
0

>  <r_qp_SAfluorine>  (562) 
0

>  <r_qp_WPSA>  (562) 
0

>  <r_qp_accptHB>  (562) 
6

>  <r_qp_dip^2/V>  (562) 
0.0060651999999999998

>  <r_qp_dipole>  (562) 
2.9550000000000001

>  <r_qp_donorHB>  (562) 
3.5

>  <r_qp_glob>  (562) 
0.81100190000000005

>  <r_qp_mol_MW>  (562) 
440.58999999999997

>  <r_qp_volume>  (562) 
1439.461

>  <r_sd_BIOSOLVEIT.INFINISEE\_FTREES\_SIMILARITY>  (562) 
0.91300000000000003

>  <r_sd_BIOSOLVEIT.LOGP>  (562) 
3.4316200000000001

>  <r_sd_BIOSOLVEIT.MOLECULAR\_WEIGHT>  (562) 
441.60000000000002

>  <r_sd_BIOSOLVEIT.TPSA>  (562) 
80.299999999999997

>  <i_epik_Tot_Q>  (562) 
1

>  <i_epik_Tot_abs_Q>  (562) 
1

>  <i_f3d_flags>  (562) 
0

>  <i_i_glide_confnum>  (562) 
8

>  <i_i_glide_lignum>  (562) 
273

>  <i_i_glide_posenum>  (562) 
15

>  <i_i_glide_rotatable_bonds>  (562) 
9

>  <i_lp_mmshare_version>  (562) 
65135

>  <i_m_ct_format>  (562) 
2

>  <i_m_source_file_index>  (562) 
1131

>  <i_qp_#NandO>  (562) 
6

>  <i_qp_#acid>  (562) 
0

>  <i_qp_#amide>  (562) 
0

>  <i_qp_#amidine>  (562) 
0

>  <i_qp_#amine>  (562) 
1

>  <i_qp_#in34>  (562) 
0

>  <i_qp_#in56>  (562) 
22

>  <i_qp_#metab>  (562) 
8

>  <i_qp_#nonHatm>  (562) 
33

>  <i_qp_#noncon>  (562) 
0

>  <i_qp_#ringatoms>  (562) 
22

>  <i_qp_#rotor>  (562) 
10

>  <i_qp_#rtvFG>  (562) 
0

>  <i_qp_#stars>  (562) 
0

>  <i_qp_CNS>  (562) 
0

>  <i_qp_HumanOralAbsorption>  (562) 
3

>  <i_qp_RuleOfFive>  (562) 
0

>  <i_qp_RuleOfThree>  (562) 
1

>  <i_sd_BIOSOLVEIT.INFINISEE\_REAGENT1\_NAME>  (562) 
21926464

>  <i_sd_BIOSOLVEIT.INFINISEE\_REAGENT2\_NAME>  (562) 
23157418

>  <i_sd_BIOSOLVEIT.INFINISEE\_REAGENT3\_NAME>  (562) 
21937252

>  <i_sd_BIOSOLVEIT.INFINISEE\_RESULT\_RANK>  (562) 
35505

>  <i_sd_version>  (562) 
0

>  <b_lp_Chiralities_Consistent>  (562) 
1

>  <b_sd_chiral_flag>  (562) 
0

>  <canonical_id>  (562) 
ATP-HTVS-57132EA8AA79

>  <compound_code>  (562) 
36161

>  <title>  (562) 
m_282030aaa____21926464____23157418____21937252

>  <variant>  (562) 
36161-1

>  <source_file>  (562) 
运行/运行/ATP-VSW/ATP-VSW-DOCK_HTVS_1-001_lib/ATP-VSW-DOCK_HTVS_1-001_lib

>  <canonical_smiles>  (562) 
Cc1ccc(CNc2nc3ccccc3nc2NCCc2ccc(C[NH+](C)C)cc2)c(N)c1

>  <scaffold>  (562) 
c1ccc(CCNc2nc3ccccc3nc2NCc2ccccc2)cc1

>  <molecular_formula>  (562) 
C27H33N6+

$$$$
ATP-HTVS-572BFDBE8187
     RDKit          3D

 52 55  0  0  0  0  0  0  0  0999 V2000
  197.0961  181.8588  156.5029 O   0  0  0  0  0  0  0  0  0  0  0  0
  196.7975  182.6578  157.5869 C   0  0  0  0  0  0  0  0  0  0  0  0
  195.5028  182.5327  158.1310 C   0  0  0  0  0  0  0  0  0  0  0  0
  195.1020  183.3204  159.2278 C   0  0  0  0  0  0  0  0  0  0  0  0
  196.0035  184.2305  159.8081 C   0  0  0  0  0  0  0  0  0  0  0  0
  197.3027  184.3568  159.2832 C   0  0  0  0  0  0  0  0  0  0  0  0
  197.6987  183.5799  158.1756 C   0  0  0  0  0  0  0  0  0  0  0  0
  198.3617  182.0118  155.8699 C   0  0  1  0  0  0  0  0  0  0  0  0
  198.5407  181.0018  154.7557 C   0  0  0  0  0  0  0  0  0  0  0  0
  197.8118  181.1895  153.6603 N   0  0  0  0  0  0  0  0  0  0  0  0
  197.9409  180.2907  152.6619 C   0  0  0  0  0  0  0  0  0  0  0  0
  197.1761  180.4776  151.5001 N   0  0  0  0  0  0  0  0  0  0  0  0
  196.1515  181.5139  151.4143 C   0  0  1  0  0  0  0  0  0  0  0  0
  196.6759  182.9617  151.2137 C   0  0  2  0  0  0  0  0  0  0  0  0
  195.5476  183.8071  151.3354 O   0  0  0  0  0  0  0  0  0  0  0  0
  197.4255  183.1604  149.8849 C   0  0  0  0  0  0  0  0  0  0  0  0
  198.6016  182.4256  149.6156 C   0  0  0  0  0  0  0  0  0  0  0  0
  199.2552  182.5594  148.3737 C   0  0  0  0  0  0  0  0  0  0  0  0
  198.7811  183.4771  147.4187 C   0  0  0  0  0  0  0  0  0  0  0  0
  197.6361  184.2545  147.6923 C   0  0  0  0  0  0  0  0  0  0  0  0
  196.9648  184.0964  148.9209 C   0  0  0  0  0  0  0  0  0  0  0  0
  199.5175  183.6260  146.1084 C   0  0  2  0  0  0  0  0  0  0  0  0
  198.8327  179.1945  152.7719 C   0  0  0  0  0  0  0  0  0  0  0  0
  199.5354  179.0763  154.0007 C   0  0  0  0  0  0  0  0  0  0  0  0
  199.3922  179.9991  154.9724 N   0  0  0  0  0  0  0  0  0  0  0  0
  200.3871  177.9707  154.1855 C   0  0  0  0  0  0  0  0  0  0  0  0
  200.5547  177.0061  153.1725 C   0  0  0  0  0  0  0  0  0  0  0  0
  199.8807  177.1502  151.9437 C   0  0  0  0  0  0  0  0  0  0  0  0
  199.0220  178.2483  151.7430 C   0  0  0  0  0  0  0  0  0  0  0  0
  194.8084  181.8358  157.6850 H   0  0  0  0  0  0  0  0  0  0  0  0
  194.1004  183.2236  159.6168 H   0  0  0  0  0  0  0  0  0  0  0  0
  195.6989  184.8307  160.6519 H   0  0  0  0  0  0  0  0  0  0  0  0
  197.9982  185.0539  159.7269 H   0  0  0  0  0  0  0  0  0  0  0  0
  198.7004  183.7127  157.7969 H   0  0  0  0  0  0  0  0  0  0  0  0
  198.4402  183.0206  155.4603 H   0  0  0  0  0  0  0  0  0  0  0  0
  199.1719  181.8823  156.5915 H   0  0  0  0  0  0  0  0  0  0  0  0
  197.3574  179.8995  150.6964 H   0  0  0  0  0  0  0  0  0  0  0  0
  195.5220  181.2470  150.5634 H   0  0  0  0  0  0  0  0  0  0  0  0
  195.5436  181.4628  152.3216 H   0  0  0  0  0  0  0  0  0  0  0  0
  197.3546  183.2426  152.0161 H   0  0  0  0  0  0  0  0  0  0  0  0
  195.2043  183.7749  152.2245 H   0  0  0  0  0  0  0  0  0  0  0  0
  199.0143  181.7406  150.3384 H   0  0  0  0  0  0  0  0  0  0  0  0
  200.1217  181.9516  148.1685 H   0  0  0  0  0  0  0  0  0  0  0  0
  197.2619  184.9690  146.9658 H   0  0  0  0  0  0  0  0  0  0  0  0
  196.0871  184.7030  149.0854 H   0  0  0  0  0  0  0  0  0  0  0  0
  199.3051  184.5975  145.6546 H   0  0  0  0  0  0  0  0  0  0  0  0
  199.2197  182.8293  145.4212 H   0  0  0  0  0  0  0  0  0  0  0  0
  200.5944  183.5540  146.2834 H   0  0  0  0  0  0  0  0  0  0  0  0
  200.8965  177.8541  155.1324 H   0  0  0  0  0  0  0  0  0  0  0  0
  201.2048  176.1553  153.3346 H   0  0  0  0  0  0  0  0  0  0  0  0
  200.0087  176.4092  151.1653 H   0  0  0  0  0  0  0  0  0  0  0  0
  198.5077  178.3297  150.7958 H   0  0  0  0  0  0  0  0  0  0  0  0
  1  2  1  0
  1  8  1  0
  2  3  2  0
  2  7  1  0
  3  4  1  0
  3 30  1  0
  4  5  2  0
  4 31  1  0
  5  6  1  0
  5 32  1  0
  6  7  2  0
  6 33  1  0
  7 34  1  0
  8  9  1  0
  8 35  1  6
  8 36  1  0
  9 10  2  0
  9 25  1  0
 10 11  1  0
 11 12  1  0
 11 23  2  0
 12 13  1  0
 12 37  1  0
 13 14  1  0
 13 38  1  6
 13 39  1  0
 14 15  1  0
 14 16  1  0
 14 40  1  1
 15 41  1  0
 16 17  1  0
 16 21  2  0
 17 18  2  0
 17 42  1  0
 18 19  1  0
 18 43  1  0
 19 20  2  0
 19 22  1  0
 20 21  1  0
 20 44  1  0
 21 45  1  0
 22 46  1  6
 22 47  1  0
 22 48  1  0
 23 24  1  0
 23 29  1  0
 24 25  2  0
 24 26  1  0
 26 27  2  0
 26 49  1  0
 27 28  1  0
 27 50  1  0
 28 29  2  0
 28 51  1  0
 29 52  1  0
M  END
>  <s_epik_cmdline>  (563) 
J2VwaWtfcHl0aG9uJywgJy1waCcsICc3LjAwMDAwMCcsICctcGh0JywgJzIuMDAwMDAwJywgJy1tcycsICcxNicsICctdG4nLCAnOCcsICctbWEnLCAnMjAwJywgJy1pbWFlJywgJzxpbmZpbGUubWFlPicsICctb21hZScsICc8b3V0ZmlsZS5tYWU+Jw==

>  <s_epik_input>  (563) 
W2NIXTFbY0hdW2NIXVtjSF1bY0hdYzFPW0NIMl1jKG5jKGMyMylbY0hdW2NIXVtjSF1bY0hdMyluYzJbTkhdW0NIMl1bQ0BIXShbT0hdKWM0W2NIXVtjSF1jKFtDSDNdKVtjSF1bY0hdNA==

>  <s_i_glide_gridfile>  (563) 
ATP-Grid

>  <s_lp_Force_Field>  (563) 
OPLS_2005

>  <s_lp_Variant>  (563) 
YAS_R006____OTV5753507____OTV7113231893____OTV1055862-1

>  <s_lp_label>  (563) 
34_sdstereoexpander_1_neutralizer_1_epik_1_stereoizer_1

>  <s_m_source_file>  (563) 
ATP-VSW-LIGPREP-003-in.maegz

>  <s_sd_BIOSOLVEIT.INFINISEE\_QUERY\_NAME>  (563) 
Ref-Lig

>  <s_sd_BIOSOLVEIT.INFINISEE\_QUERY\_SMILES>  (563) 
S(c1nc2c(cc1C[NH2+]Cc3ccc(cc3)C[NH+](C)C)cccc2)Cc4ccccc4

>  <s_sd_BIOSOLVEIT.INFINISEE\_REACTION\_NAME>  (563) 
YAS_R006

>  <s_sd_BIOSOLVEIT.INFINISEE\_REAGENT1\_NAME>  (563) 
OTV5753507

>  <s_sd_BIOSOLVEIT.INFINISEE\_REAGENT1\_SMILES>  (563) 
Nc1ccccc1

>  <s_sd_BIOSOLVEIT.INFINISEE\_REAGENT2\_NAME>  (563) 
OTV7113231893

>  <s_sd_BIOSOLVEIT.INFINISEE\_REAGENT2\_SMILES>  (563) 
O=C(O)COc1ccccc1

>  <s_sd_BIOSOLVEIT.INFINISEE\_REAGENT3\_NAME>  (563) 
OTV1055862

>  <s_sd_BIOSOLVEIT.INFINISEE\_REAGENT3\_SMILES>  (563) 
OC(c1ccc(cc1)C)CN

>  <s_sd_BIOSOLVEIT.INFINISEE\_SPACE>  (563) 
CHEMriya_12bn_2022-01

>  <s_vsw_compound_code>  (563) 
1059

>  <s_vsw_variant>  (563) 
1059-1

>  <r_epik_Charging_Adjusted_Penalty>  (563) 
0.018893035945244399

>  <r_epik_Ionization_Penalty>  (563) 
0.019199999999999998

>  <r_epik_Ionization_Penalty_Charging>  (563) 
0

>  <r_epik_Ionization_Penalty_Neutral>  (563) 
0.019199999999999998

>  <r_epik_State_Penalty>  (563) 
0.0189

>  <r_i_docking_score>  (563) 
-3.6787172165342499

>  <r_i_glide_ecoul>  (563) 
-4.5422348976135298

>  <r_i_glide_eff_state_penalty>  (563) 
0.0189

>  <r_i_glide_einternal>  (563) 
1.8351520299911499

>  <r_i_glide_emodel>  (563) 
-42.53149595384

>  <r_i_glide_energy>  (563) 
-34.072453022003202

>  <r_i_glide_erotb>  (563) 
0.91650481626730795

>  <r_i_glide_esite>  (563) 
-0.0123906144348499

>  <r_i_glide_evdw>  (563) 
-29.530218124389599

>  <r_i_glide_gscore>  (563) 
-3.6976172165342498

>  <r_i_glide_hbond>  (563) 
-0.24928668944382601

>  <r_i_glide_ligand_efficiency>  (563) 
-0.12685231781152601

>  <r_i_glide_ligand_efficiency_ln>  (563) 
-0.84233295836651501

>  <r_i_glide_ligand_efficiency_sa>  (563) 
-0.38973050995215303

>  <r_i_glide_lipo>  (563) 
-1.41363258806137

>  <r_i_glide_metal>  (563) 
-0

>  <r_i_glide_rewards>  (563) 
-0.78096599999999905

>  <r_lp_Energy>  (563) 
20.767344000000001

>  <r_lp_tautomer_probability>  (563) 
0.99997800024199801

>  <r_qp_ACxDN^.5/SA>  (563) 
0.0102989

>  <r_qp_CIQPlogS>  (563) 
-6.3150000000000004

>  <r_qp_EA(eV)>  (563) 
0.94299999999999995

>  <r_qp_FISA>  (563) 
69.730000000000004

>  <r_qp_FOSA>  (563) 
163.67400000000001

>  <r_qp_IP(eV)>  (563) 
8.5269999999999992

>  <r_qp_Jm>  (563) 
0.49174807934356801

>  <r_qp_PISA>  (563) 
446.315

>  <r_qp_PSA>  (563) 
59.103999999999999

>  <r_qp_PercentHumanOralAbsorption>  (563) 
100

>  <r_qp_QPPCaco>  (563) 
2160.9810000000002

>  <r_qp_QPPMDCK>  (563) 
1137.8050000000001

>  <r_qp_QPlogBB>  (563) 
-0.60599999999999998

>  <r_qp_QPlogHERG>  (563) 
-6.5369999999999999

>  <r_qp_QPlogKhsa>  (563) 
0.63800000000000001

>  <r_qp_QPlogKp>  (563) 
-0.46400000000000002

>  <r_qp_QPlogPC16>  (563) 
13.853

>  <r_qp_QPlogPo/w>  (563) 
4.8860000000000001

>  <r_qp_QPlogPoct>  (563) 
19.68

>  <r_qp_QPlogPw>  (563) 
10.904999999999999

>  <r_qp_QPlogS>  (563) 
-5.4299999999999997

>  <r_qp_QPpolrz>  (563) 
42.689

>  <r_qp_SASA>  (563) 
679.71900000000005

>  <r_qp_SAamideO>  (563) 
0

>  <r_qp_SAfluorine>  (563) 
0

>  <r_qp_WPSA>  (563) 
0

>  <r_qp_accptHB>  (563) 
4.9500000000000002

>  <r_qp_dip^2/V>  (563) 
0.0042281000000000003

>  <r_qp_dipole>  (563) 
2.2919999999999998

>  <r_qp_donorHB>  (563) 
2

>  <r_qp_glob>  (563) 
0.82222530000000005

>  <r_qp_mol_MW>  (563) 
385.46499999999997

>  <r_qp_volume>  (563) 
1242.318

>  <r_sd_BIOSOLVEIT.INFINISEE\_FTREES\_SIMILARITY>  (563) 
0.92300000000000004

>  <r_sd_BIOSOLVEIT.LOGP>  (563) 
4.6627200000000002

>  <r_sd_BIOSOLVEIT.MOLECULAR\_WEIGHT>  (563) 
385.46499999999997

>  <r_sd_BIOSOLVEIT.TPSA>  (563) 
67.269999999999996

>  <i_epik_Tot_Q>  (563) 
0

>  <i_epik_Tot_abs_Q>  (563) 
0

>  <i_f3d_flags>  (563) 
0

>  <i_i_glide_confnum>  (563) 
7

>  <i_i_glide_lignum>  (563) 
164

>  <i_i_glide_posenum>  (563) 
3

>  <i_i_glide_rotatable_bonds>  (563) 
8

>  <i_lp_mmshare_version>  (563) 
65135

>  <i_m_ct_format>  (563) 
2

>  <i_m_source_file_index>  (563) 
34

>  <i_qp_#NandO>  (563) 
5

>  <i_qp_#acid>  (563) 
0

>  <i_qp_#amide>  (563) 
0

>  <i_qp_#amidine>  (563) 
0

>  <i_qp_#amine>  (563) 
0

>  <i_qp_#in34>  (563) 
0

>  <i_qp_#in56>  (563) 
22

>  <i_qp_#metab>  (563) 
4

>  <i_qp_#nonHatm>  (563) 
29

>  <i_qp_#noncon>  (563) 
0

>  <i_qp_#ringatoms>  (563) 
22

>  <i_qp_#rotor>  (563) 
8

>  <i_qp_#rtvFG>  (563) 
0

>  <i_qp_#stars>  (563) 
0

>  <i_qp_CNS>  (563) 
0

>  <i_qp_HumanOralAbsorption>  (563) 
3

>  <i_qp_RuleOfFive>  (563) 
0

>  <i_qp_RuleOfThree>  (563) 
0

>  <i_sd_BIOSOLVEIT.INFINISEE\_RESULT\_RANK>  (563) 
11775

>  <i_sd_version>  (563) 
0

>  <b_lp_Chiralities_Consistent>  (563) 
1

>  <b_sd_chiral_flag>  (563) 
0

>  <canonical_id>  (563) 
ATP-HTVS-572BFDBE8187

>  <compound_code>  (563) 
1059

>  <title>  (563) 
YAS_R006____OTV5753507____OTV7113231893____OTV1055862

>  <variant>  (563) 
1059-1

>  <source_file>  (563) 
运行/运行/ATP-VSW/ATP-VSW-DOCK_HTVS_1-003_lib/ATP-VSW-DOCK_HTVS_1-003_lib.mae

>  <canonical_smiles>  (563) 
Cc1ccc([C@@H](O)CNc2nc(COc3ccccc3)nc3ccccc23)cc1

>  <scaffold>  (563) 
c1ccc(CCNc2nc(COc3ccccc3)nc3ccccc23)cc1

>  <molecular_formula>  (563) 
C24H23N3O2

$$$$
ATP-HTVS-57A1B32CE9AA
     RDKit          3D

 52 55  0  0  0  0  0  0  0  0999 V2000
  198.6682  188.5668  157.8486 Cl  0  0  0  0  0  0  0  0  0  0  0  0
  199.9018  187.5965  158.5772 C   0  0  0  0  0  0  0  0  0  0  0  0
  199.6312  186.3110  159.0958 C   0  0  0  0  0  0  0  0  0  0  0  0
  198.2647  185.7259  159.0865 C   0  0  0  0  0  0  0  0  0  0  0  0
  197.9429  184.4920  158.5061 C   0  0  0  0  0  0  0  0  0  0  0  0
  198.9458  183.7244  157.8228 N   0  0  0  0  0  0  0  0  0  0  0  0
  199.1374  183.6866  156.4879 C   0  0  0  0  0  0  0  0  0  0  0  0
  198.6942  184.5293  155.7115 O   0  0  0  0  0  0  0  0  0  0  0  0
  199.9714  182.5302  155.9815 C   0  0  0  0  0  0  0  0  0  0  0  0
  199.6259  181.1511  156.1778 C   0  0  0  0  0  0  0  0  0  0  0  0
  200.4355  180.1304  155.6734 C   0  0  0  0  0  0  0  0  0  0  0  0
  201.5886  180.4369  154.9382 C   0  0  0  0  0  0  0  0  0  0  0  0
  201.9347  181.7791  154.7236 C   0  0  0  0  0  0  0  0  0  0  0  0
  201.1351  182.8183  155.2290 C   0  0  0  0  0  0  0  0  0  0  0  0
  198.4057  180.6717  156.9119 C   0  0  1  0  0  0  0  0  0  0  0  0
  197.1519  180.5886  156.0953 N   0  0  2  0  0  0  0  0  0  0  0  0
  197.3621  179.5640  155.0243 C   0  0  2  0  0  0  0  0  0  0  0  0
  196.6091  181.7981  155.4454 C   0  0  2  0  0  0  0  0  0  0  0  0
  196.6225  184.0107  158.7016 C   0  0  0  0  0  0  0  0  0  0  0  0
  195.6382  184.7926  159.3252 C   0  0  0  0  0  0  0  0  0  0  0  0
  195.9407  185.9817  159.8375 N   0  0  0  0  0  0  0  0  0  0  0  0
  197.2190  186.4225  159.7396 C   0  0  0  0  0  0  0  0  0  0  0  0
  194.3179  184.2609  159.4023 C   0  0  0  0  0  0  0  0  0  0  0  0
  193.9446  183.0302  158.8635 C   0  0  0  0  0  0  0  0  0  0  0  0
  194.9460  182.2437  158.2865 C   0  0  0  0  0  0  0  0  0  0  0  0
  196.1964  182.7164  158.3006 C   0  0  0  0  0  0  0  0  0  0  0  0
  200.7062  185.5899  159.6600 C   0  0  0  0  0  0  0  0  0  0  0  0
  201.9877  186.1698  159.6722 C   0  0  0  0  0  0  0  0  0  0  0  0
  202.2487  187.3926  159.1697 N   0  0  0  0  0  0  0  0  0  0  0  0
  201.2195  188.0861  158.6423 C   0  0  0  0  0  0  0  0  0  0  0  0
  199.4319  183.0206  158.3544 H   0  0  0  0  0  0  0  0  0  0  0  0
  200.1468  179.0987  155.8353 H   0  0  0  0  0  0  0  0  0  0  0  0
  202.1881  179.6336  154.5505 H   0  0  0  0  0  0  0  0  0  0  0  0
  202.8287  182.0081  154.1652 H   0  0  0  0  0  0  0  0  0  0  0  0
  201.4236  183.8404  155.0511 H   0  0  0  0  0  0  0  0  0  0  0  0
  198.5430  179.7806  157.5145 H   0  0  0  0  0  0  0  0  0  0  0  0
  198.4652  181.3598  157.7101 H   0  0  0  0  0  0  0  0  0  0  0  0
  198.1252  179.9325  154.3412 H   0  0  0  0  0  0  0  0  0  0  0  0
  196.4466  179.4308  154.4619 H   0  0  0  0  0  0  0  0  0  0  0  0
  197.6810  178.6133  155.4474 H   0  0  0  0  0  0  0  0  0  0  0  0
  197.3723  182.3623  154.9182 H   0  0  0  0  0  0  0  0  0  0  0  0
  196.1562  182.6006  156.0320 H   0  0  0  0  0  0  0  0  0  0  0  0
  195.7138  181.6027  154.8679 H   0  0  0  0  0  0  0  0  0  0  0  0
  197.3982  187.3566  160.2170 H   0  0  0  0  0  0  0  0  0  0  0  0
  193.5653  184.8456  159.8943 H   0  0  0  0  0  0  0  0  0  0  0  0
  192.9477  182.6351  158.8971 H   0  0  0  0  0  0  0  0  0  0  0  0
  194.7032  181.2851  157.7746 H   0  0  0  0  0  0  0  0  0  0  0  0
  196.8841  182.1781  157.8271 H   0  0  0  0  0  0  0  0  0  0  0  0
  200.5553  184.6072  160.0833 H   0  0  0  0  0  0  0  0  0  0  0  0
  202.8266  185.6335  160.0900 H   0  0  0  0  0  0  0  0  0  0  0  0
  201.4590  189.0610  158.2431 H   0  0  0  0  0  0  0  0  0  0  0  0
  196.4426  180.1537  156.7211 H   0  0  0  0  0  0  0  0  0  0  0  0
  1  2  1  0
  2  3  1  0
  2 30  2  0
  3  4  1  0
  3 27  2  0
  4  5  2  0
  4 22  1  0
  5  6  1  0
  5 19  1  0
  6  7  1  0
  6 31  1  0
  7  8  2  0
  7  9  1  0
  9 10  1  0
  9 14  2  0
 10 11  2  0
 10 15  1  0
 11 12  1  0
 11 32  1  0
 12 13  2  0
 12 33  1  0
 13 14  1  0
 13 34  1  0
 14 35  1  0
 15 16  1  0
 15 36  1  1
 15 37  1  0
 16 17  1  0
 16 18  1  0
 16 52  1  1
 17 38  1  6
 17 39  1  0
 17 40  1  0
 18 41  1  6
 18 42  1  0
 18 43  1  0
 19 20  1  0
 19 26  2  0
 20 21  1  0
 20 23  2  0
 21 22  2  0
 22 44  1  0
 23 24  1  0
 23 45  1  0
 24 25  2  0
 24 46  1  0
 25 26  1  0
 25 47  1  0
 26 48  1  0
 27 28  1  0
 27 49  1  0
 28 29  2  0
 28 50  1  0
 29 30  1  0
 30 51  1  0
M  CHG  1  16   1
M  END
>  <s_epik_cmdline>  (564) 
J2VwaWtfcHl0aG9uJywgJy1waCcsICc3LjAwMDAwMCcsICctcGh0JywgJzIuMDAwMDAwJywgJy1tcycsICcxNicsICctdG4nLCAnOCcsICctbWEnLCAnMjAwJywgJy1pbWFlJywgJzxpbmZpbGUubWFlPicsICctb21hZScsICc8b3V0ZmlsZS5tYWU+Jw==

>  <s_epik_input>  (564) 
W2NIXTFbY0hdW2NIXVtjSF1jKGMxMiluW2NIXWMoLWMoYzNDbClbY0hdW2NIXW5bY0hdMyljMltOSF1DKD1PKWM0YyhbQ0gyXU4oW0NIM10pW0NIM10pW2NIXVtjSF1bY0hdW2NIXTQ=

>  <s_i_glide_gridfile>  (564) 
ATP-Grid

>  <s_lp_Force_Field>  (564) 
OPLS_2005

>  <s_lp_Variant>  (564) 
rxn501b____EMOL5415347____EMOL13728749____EMOL299961778-1

>  <s_lp_label>  (564) 
2824_sdstereoexpander_1_neutralizer_1_epik_1_stereoizer_1

>  <s_m_source_file>  (564) 
ATP-VSW-LIGPREP-001-in.maegz

>  <s_sd_BIOSOLVEIT.INFINISEE\_QUERY\_NAME>  (564) 
Ref-Lig

>  <s_sd_BIOSOLVEIT.INFINISEE\_QUERY\_SMILES>  (564) 
S(c1nc2c(cc1C[NH2+]Cc3ccc(cc3)C[NH+](C)C)cccc2)Cc4ccccc4

>  <s_sd_BIOSOLVEIT.INFINISEE\_REACTION\_NAME>  (564) 
rxn501b

>  <s_sd_BIOSOLVEIT.INFINISEE\_REAGENT1\_NAME>  (564) 
EMOL5415347

>  <s_sd_BIOSOLVEIT.INFINISEE\_REAGENT1\_SMILES>  (564) 
O=C(O)c1c(cccc1)CN(C)C

>  <s_sd_BIOSOLVEIT.INFINISEE\_REAGENT2\_NAME>  (564) 
EMOL13728749

>  <s_sd_BIOSOLVEIT.INFINISEE\_REAGENT2\_SMILES>  (564) 
Brc1c(N)c2c(nc1)cccc2

>  <s_sd_BIOSOLVEIT.INFINISEE\_REAGENT3\_NAME>  (564) 
EMOL299961778

>  <s_sd_BIOSOLVEIT.INFINISEE\_REAGENT3\_SMILES>  (564) 
Clc1c(ccnc1)B(O)O

>  <s_sd_BIOSOLVEIT.INFINISEE\_SPACE>  (564) 
eXplore_7tr_2022-12

>  <s_vsw_compound_code>  (564) 
90337

>  <s_vsw_variant>  (564) 
90337-1

>  <r_epik_Charging_Adjusted_Penalty>  (564) 
0.13538322773799299

>  <r_epik_Ionization_Penalty>  (564) 
0.062100000000000002

>  <r_epik_Ionization_Penalty_Charging>  (564) 
0.060600000000000001

>  <r_epik_Ionization_Penalty_Neutral>  (564) 
0.0015

>  <r_epik_State_Penalty>  (564) 
0.074700000000000003

>  <r_i_docking_score>  (564) 
-4.3403898931463303

>  <r_i_glide_ecoul>  (564) 
-9.4785718917846697

>  <r_i_glide_eff_state_penalty>  (564) 
0.074700000000000003

>  <r_i_glide_einternal>  (564) 
4.5767116546630904

>  <r_i_glide_emodel>  (564) 
-51.460563587052697

>  <r_i_glide_energy>  (564) 
-37.905398368835399

>  <r_i_glide_erotb>  (564) 
0.56597639060281502

>  <r_i_glide_esite>  (564) 
-0.100855884153536

>  <r_i_glide_evdw>  (564) 
-28.426826477050799

>  <r_i_glide_gscore>  (564) 
-4.4150898931463303

>  <r_i_glide_hbond>  (564) 
-0.20000000000000001

>  <r_i_glide_ligand_efficiency>  (564) 
-0.14467966310487801

>  <r_i_glide_ligand_efficiency_ln>  (564) 
-0.98618387605855096

>  <r_i_glide_ligand_efficiency_sa>  (564) 
-0.449553351640256

>  <r_i_glide_lipo>  (564) 
-1.05238133742992

>  <r_i_glide_metal>  (564) 
-0

>  <r_i_glide_rewards>  (564) 
-0.78470195454545399

>  <r_lp_Energy>  (564) 
38.710538999999997

>  <r_qp_ACxDN^.5/SA>  (564) 
0.0104438

>  <r_qp_CIQPlogS>  (564) 
-5.1559999999999997

>  <r_qp_EA(eV)>  (564) 
1.3320000000000001

>  <r_qp_FISA>  (564) 
63.521999999999998

>  <r_qp_FOSA>  (564) 
136.821

>  <r_qp_IP(eV)>  (564) 
9.0649999999999995

>  <r_qp_Jm>  (564) 
0.055101585664846998

>  <r_qp_PISA>  (564) 
419.255

>  <r_qp_PSA>  (564) 
56.591000000000001

>  <r_qp_PercentHumanOralAbsorption>  (564) 
100

>  <r_qp_QPPCaco>  (564) 
617.19799999999998

>  <r_qp_QPPMDCK>  (564) 
615.47299999999996

>  <r_qp_QPlogBB>  (564) 
0.18099999999999999

>  <r_qp_QPlogHERG>  (564) 
-6.8940000000000001

>  <r_qp_QPlogKhsa>  (564) 
0.42899999999999999

>  <r_qp_QPlogKp>  (564) 
-2.7959999999999998

>  <r_qp_QPlogPC16>  (564) 
13.807

>  <r_qp_QPlogPo/w>  (564) 
3.9199999999999999

>  <r_qp_QPlogPoct>  (564) 
20.856000000000002

>  <r_qp_QPlogPw>  (564) 
11.890000000000001

>  <r_qp_QPlogS>  (564) 
-4.0830000000000002

>  <r_qp_QPpolrz>  (564) 
44.649000000000001

>  <r_qp_SASA>  (564) 
670.25599999999997

>  <r_qp_SAamideO>  (564) 
0

>  <r_qp_SAfluorine>  (564) 
0

>  <r_qp_WPSA>  (564) 
50.658000000000001

>  <r_qp_accptHB>  (564) 
7

>  <r_qp_dip^2/V>  (564) 
0.040514500000000002

>  <r_qp_dipole>  (564) 
7.1150000000000002

>  <r_qp_donorHB>  (564) 
1

>  <r_qp_glob>  (564) 
0.83709330000000004

>  <r_qp_mol_MW>  (564) 
416.90899999999999

>  <r_qp_volume>  (564) 
1249.6099999999999

>  <r_sd_BIOSOLVEIT.INFINISEE\_FTREES\_SIMILARITY>  (564) 
0.90600000000000003

>  <r_sd_BIOSOLVEIT.LOGP>  (564) 
3.847

>  <r_sd_BIOSOLVEIT.MOLECULAR\_WEIGHT>  (564) 
417.91800000000001

>  <r_sd_BIOSOLVEIT.TPSA>  (564) 
59.32

>  <i_epik_Tot_Q>  (564) 
1

>  <i_epik_Tot_abs_Q>  (564) 
1

>  <i_f3d_flags>  (564) 
0

>  <i_i_glide_confnum>  (564) 
4

>  <i_i_glide_lignum>  (564) 
1293

>  <i_i_glide_posenum>  (564) 
12

>  <i_i_glide_rotatable_bonds>  (564) 
6

>  <i_lp_mmshare_version>  (564) 
65135

>  <i_m_ct_format>  (564) 
2

>  <i_m_source_file_index>  (564) 
2824

>  <i_qp_#NandO>  (564) 
5

>  <i_qp_#acid>  (564) 
0

>  <i_qp_#amide>  (564) 
0

>  <i_qp_#amidine>  (564) 
0

>  <i_qp_#amine>  (564) 
1

>  <i_qp_#in34>  (564) 
0

>  <i_qp_#in56>  (564) 
22

>  <i_qp_#metab>  (564) 
5

>  <i_qp_#nonHatm>  (564) 
30

>  <i_qp_#noncon>  (564) 
0

>  <i_qp_#ringatoms>  (564) 
22

>  <i_qp_#rotor>  (564) 
5

>  <i_qp_#rtvFG>  (564) 
0

>  <i_qp_#stars>  (564) 
0

>  <i_qp_CNS>  (564) 
1

>  <i_qp_HumanOralAbsorption>  (564) 
3

>  <i_qp_RuleOfFive>  (564) 
0

>  <i_qp_RuleOfThree>  (564) 
0

>  <i_sd_BIOSOLVEIT.INFINISEE\_RESULT\_RANK>  (564) 
65878

>  <i_sd_version>  (564) 
0

>  <b_lp_Chiralities_Consistent>  (564) 
1

>  <b_sd_chiral_flag>  (564) 
0

>  <canonical_id>  (564) 
ATP-HTVS-57A1B32CE9AA

>  <compound_code>  (564) 
90337

>  <title>  (564) 
rxn501b____EMOL5415347____EMOL13728749____EMOL299961778

>  <variant>  (564) 
90337-1

>  <source_file>  (564) 
运行/运行/ATP-VSW/ATP-VSW-DOCK_HTVS_1-001_lib/ATP-VSW-DOCK_HTVS_1-001_lib

>  <canonical_smiles>  (564) 
C[NH+](C)Cc1ccccc1C(=O)Nc1c(-c2ccncc2Cl)cnc2ccccc12

>  <scaffold>  (564) 
O=C(Nc1c(-c2ccncc2)cnc2ccccc12)c1ccccc1

>  <molecular_formula>  (564) 
C24H22ClN4O+

$$$$
ATP-HTVS-57B04A124BC1
     RDKit          3D

 58 61  0  0  0  0  0  0  0  0999 V2000
  199.3477  183.1259  154.3123 O   0  0  0  0  0  0  0  0  0  0  0  0
  198.5119  183.8490  154.8529 C   0  0  0  0  0  0  0  0  0  0  0  0
  198.5327  184.2214  156.1441 N   0  0  0  0  0  0  0  0  0  0  0  0
  199.4593  183.8989  157.1672 C   0  0  0  0  0  0  0  0  0  0  0  0
  200.3241  182.8662  157.0456 N   0  0  0  0  0  0  0  0  0  0  0  0
  201.1161  182.5049  158.0762 C   0  0  0  0  0  0  0  0  0  0  0  0
  201.0775  183.1881  159.3150 C   0  0  0  0  0  0  0  0  0  0  0  0
  200.2079  184.2835  159.4508 C   0  0  0  0  0  0  0  0  0  0  0  0
  199.3837  184.6694  158.3690 C   0  0  0  0  0  0  0  0  0  0  0  0
  198.4874  185.7432  158.5732 N   0  0  0  0  0  0  0  0  0  0  0  0
  197.4447  185.5506  159.5891 C   0  0  1  0  0  0  0  0  0  0  0  0
  196.7863  186.8238  159.9478 C   0  0  0  0  0  0  0  0  0  0  0  0
  196.2725  187.8244  160.2272 N   0  0  0  0  0  0  0  0  0  0  0  0
  196.4487  184.4397  159.2604 C   0  0  0  0  0  0  0  0  0  0  0  0
  196.8560  183.0842  159.2805 C   0  0  0  0  0  0  0  0  0  0  0  0
  195.9577  182.0592  158.9312 C   0  0  0  0  0  0  0  0  0  0  0  0
  194.6276  182.3661  158.5994 C   0  0  0  0  0  0  0  0  0  0  0  0
  194.2007  183.7040  158.6167 C   0  0  0  0  0  0  0  0  0  0  0  0
  195.1061  184.7364  158.9324 C   0  0  0  0  0  0  0  0  0  0  0  0
  198.3265  186.7566  157.5317 C   0  0  2  0  0  0  0  0  0  0  0  0
  201.8940  182.7798  160.3922 C   0  0  0  0  0  0  0  0  0  0  0  0
  202.7707  181.6916  160.2266 C   0  0  0  0  0  0  0  0  0  0  0  0
  202.8255  181.0123  158.9959 C   0  0  0  0  0  0  0  0  0  0  0  0
  201.9984  181.4162  157.9312 C   0  0  0  0  0  0  0  0  0  0  0  0
  197.3477  184.4294  154.0427 C   0  0  1  0  0  0  0  0  0  0  0  0
  197.0524  183.6621  152.8240 N   0  0  0  0  0  0  0  0  0  0  0  0
  197.4150  184.1109  151.5259 C   0  0  0  0  0  0  0  0  0  0  0  0
  197.2184  183.2851  150.3856 C   0  0  0  0  0  0  0  0  0  0  0  0
  197.5544  183.7256  149.0884 C   0  0  0  0  0  0  0  0  0  0  0  0
  198.1021  185.0056  148.8989 C   0  0  0  0  0  0  0  0  0  0  0  0
  198.3073  185.8385  150.0121 C   0  0  0  0  0  0  0  0  0  0  0  0
  197.9697  185.3974  151.3103 C   0  0  0  0  0  0  0  0  0  0  0  0
  196.3999  182.3614  152.9906 C   0  0  2  0  0  0  0  0  0  0  0  0
  197.8268  184.8752  156.4215 H   0  0  0  0  0  0  0  0  0  0  0  0
  200.1681  184.8142  160.3909 H   0  0  0  0  0  0  0  0  0  0  0  0
  197.9235  185.2615  160.5180 H   0  0  0  0  0  0  0  0  0  0  0  0
  197.8621  182.8026  159.5494 H   0  0  0  0  0  0  0  0  0  0  0  0
  196.2954  181.0355  158.9264 H   0  0  0  0  0  0  0  0  0  0  0  0
  193.9423  181.5761  158.3303 H   0  0  0  0  0  0  0  0  0  0  0  0
  193.1822  183.9483  158.3647 H   0  0  0  0  0  0  0  0  0  0  0  0
  194.7464  185.7524  158.9099 H   0  0  0  0  0  0  0  0  0  0  0  0
  199.1257  186.7019  156.7926 H   0  0  0  0  0  0  0  0  0  0  0  0
  198.3501  187.7673  157.9548 H   0  0  0  0  0  0  0  0  0  0  0  0
  197.3683  186.6244  157.0267 H   0  0  0  0  0  0  0  0  0  0  0  0
  201.8513  183.2979  161.3392 H   0  0  0  0  0  0  0  0  0  0  0  0
  203.4041  181.3788  161.0438 H   0  0  0  0  0  0  0  0  0  0  0  0
  203.4962  180.1769  158.8602 H   0  0  0  0  0  0  0  0  0  0  0  0
  202.0309  180.8915  156.9896 H   0  0  0  0  0  0  0  0  0  0  0  0
  196.4405  184.4332  154.6526 H   0  0  0  0  0  0  0  0  0  0  0  0
  197.5780  185.4942  153.8478 H   0  0  0  0  0  0  0  0  0  0  0  0
  196.8093  182.2907  150.4726 H   0  0  0  0  0  0  0  0  0  0  0  0
  197.3972  183.0713  148.2403 H   0  0  0  0  0  0  0  0  0  0  0  0
  198.3692  185.3428  147.9088 H   0  0  0  0  0  0  0  0  0  0  0  0
  198.7244  186.8245  149.8788 H   0  0  0  0  0  0  0  0  0  0  0  0
  198.1402  186.0841  152.1320 H   0  0  0  0  0  0  0  0  0  0  0  0
  195.5650  182.2252  152.3078 H   0  0  0  0  0  0  0  0  0  0  0  0
  195.9853  182.2408  153.9921 H   0  0  0  0  0  0  0  0  0  0  0  0
  197.1096  181.5506  152.8437 H   0  0  0  0  0  0  0  0  0  0  0  0
  1  2  2  0
  2  3  1  0
  2 25  1  0
  3  4  1  0
  3 34  1  0
  4  5  2  0
  4  9  1  0
  5  6  1  0
  6  7  1  0
  6 24  2  0
  7  8  1  0
  7 21  2  0
  8  9  2  0
  8 35  1  0
  9 10  1  0
 10 11  1  0
 10 20  1  0
 11 12  1  0
 11 14  1  0
 11 36  1  1
 12 13  3  0
 14 15  2  0
 14 19  1  0
 15 16  1  0
 15 37  1  0
 16 17  2  0
 16 38  1  0
 17 18  1  0
 17 39  1  0
 18 19  2  0
 18 40  1  0
 19 41  1  0
 20 42  1  6
 20 43  1  0
 20 44  1  0
 21 22  1  0
 21 45  1  0
 22 23  2  0
 22 46  1  0
 23 24  1  0
 23 47  1  0
 24 48  1  0
 25 26  1  0
 25 49  1  1
 25 50  1  0
 26 27  1  0
 26 33  1  0
 27 28  2  0
 27 32  1  0
 28 29  1  0
 28 51  1  0
 29 30  2  0
 29 52  1  0
 30 31  1  0
 30 53  1  0
 31 32  2  0
 31 54  1  0
 32 55  1  0
 33 56  1  6
 33 57  1  0
 33 58  1  0
M  END
>  <s_epik_cmdline>  (565) 
J2VwaWtfcHl0aG9uJywgJy1waCcsICc3LjAwMDAwMCcsICctcGh0JywgJzIuMDAwMDAwJywgJy1tcycsICcxNicsICctdG4nLCAnOCcsICctbWEnLCAnMjAwJywgJy1pbWFlJywgJzxpbmZpbGUubWFlPicsICctb21hZScsICc8b3V0ZmlsZS5tYWU+Jw==

>  <s_epik_input>  (565) 
W2NIXTFbY0hdW2NIXVtjSF1bY0hdYzFOKFtDSDNdKVtDSDJdQyg9TylbTkhdYyhuMiljKFtjSF1jKGMyMylbY0hdW2NIXVtjSF1bY0hdMylOKFtDSDNdKVtDQEBIXShDI04pYzRbY0hdW2NIXVtjSF1bY0hdW2NIXTQ=

>  <s_i_glide_gridfile>  (565) 
ATP-Grid

>  <s_lp_Force_Field>  (565) 
OPLS_2005

>  <s_lp_Variant>  (565) 
rxn502b____EMOL31412043____EMOL44466703____EMOL24630243-1

>  <s_lp_label>  (565) 
2394_sdstereoexpander_1_neutralizer_1_epik_1_stereoizer_1

>  <s_m_source_file>  (565) 
ATP-VSW-LIGPREP-001-in.maegz

>  <s_sd_BIOSOLVEIT.INFINISEE\_QUERY\_NAME>  (565) 
Ref-Lig

>  <s_sd_BIOSOLVEIT.INFINISEE\_QUERY\_SMILES>  (565) 
S(c1nc2c(cc1C[NH2+]Cc3ccc(cc3)C[NH+](C)C)cccc2)Cc4ccccc4

>  <s_sd_BIOSOLVEIT.INFINISEE\_REACTION\_NAME>  (565) 
rxn502b

>  <s_sd_BIOSOLVEIT.INFINISEE\_REAGENT1\_NAME>  (565) 
EMOL31412043

>  <s_sd_BIOSOLVEIT.INFINISEE\_REAGENT1\_SMILES>  (565) 
O=C(O)CN(c1ccccc1)C

>  <s_sd_BIOSOLVEIT.INFINISEE\_REAGENT2\_NAME>  (565) 
EMOL44466703

>  <s_sd_BIOSOLVEIT.INFINISEE\_REAGENT2\_SMILES>  (565) 
Brc1c(nc2c(c1)cccc2)N

>  <s_sd_BIOSOLVEIT.INFINISEE\_REAGENT3\_NAME>  (565) 
EMOL24630243

>  <s_sd_BIOSOLVEIT.INFINISEE\_REAGENT3\_SMILES>  (565) 
N#CC(NC)c1ccccc1

>  <s_sd_BIOSOLVEIT.INFINISEE\_SPACE>  (565) 
eXplore_7tr_2022-12

>  <s_vsw_compound_code>  (565) 
76577

>  <s_vsw_variant>  (565) 
76577-1

>  <r_epik_Charging_Adjusted_Penalty>  (565) 
0.021452894607124399

>  <r_epik_Ionization_Penalty>  (565) 
0.0152

>  <r_epik_Ionization_Penalty_Charging>  (565) 
0

>  <r_epik_Ionization_Penalty_Neutral>  (565) 
0.0152

>  <r_epik_State_Penalty>  (565) 
0.021499999999999998

>  <r_i_docking_score>  (565) 
-4.3088291159962804

>  <r_i_glide_ecoul>  (565) 
-0.56377440690994296

>  <r_i_glide_eff_state_penalty>  (565) 
0.021499999999999998

>  <r_i_glide_einternal>  (565) 
3.6481964588165301

>  <r_i_glide_emodel>  (565) 
-48.643081048057198

>  <r_i_glide_energy>  (565) 
-39.593025505542798

>  <r_i_glide_erotb>  (565) 
0.73532576492769597

>  <r_i_glide_esite>  (565) 
-0.045185616482094702

>  <r_i_glide_evdw>  (565) 
-39.029251098632798

>  <r_i_glide_gscore>  (565) 
-4.33032911599628

>  <r_i_glide_hbond>  (565) 
0

>  <r_i_glide_ligand_efficiency>  (565) 
-0.13057057927261401

>  <r_i_glide_ligand_efficiency_ln>  (565) 
-0.95826128547441103

>  <r_i_glide_ligand_efficiency_sa>  (565) 
-0.41880961501622899

>  <r_i_glide_lipo>  (565) 
-2.1425942811339902

>  <r_i_glide_metal>  (565) 
-0

>  <r_i_glide_rewards>  (565) 
-0.84184626733975698

>  <r_lp_Energy>  (565) 
32.654944

>  <r_qp_ACxDN^.5/SA>  (565) 
0.0098537

>  <r_qp_CIQPlogS>  (565) 
-7.5819999999999999

>  <r_qp_EA(eV)>  (565) 
1.073

>  <r_qp_FISA>  (565) 
93.263999999999996

>  <r_qp_FOSA>  (565) 
150.178

>  <r_qp_IP(eV)>  (565) 
8.0640000000000001

>  <r_qp_Jm>  (565) 
0.033018567885440497

>  <r_qp_PISA>  (565) 
466.94900000000001

>  <r_qp_PSA>  (565) 
71.093000000000004

>  <r_qp_PercentHumanOralAbsorption>  (565) 
100

>  <r_qp_QPPCaco>  (565) 
1292.634

>  <r_qp_QPPMDCK>  (565) 
652.89300000000003

>  <r_qp_QPlogBB>  (565) 
-0.81299999999999994

>  <r_qp_QPlogHERG>  (565) 
-6.452

>  <r_qp_QPlogKhsa>  (565) 
0.58199999999999996

>  <r_qp_QPlogKp>  (565) 
-0.82499999999999996

>  <r_qp_QPlogPC16>  (565) 
14.944000000000001

>  <r_qp_QPlogPo/w>  (565) 
4.7640000000000002

>  <r_qp_QPlogPoct>  (565) 
21.193999999999999

>  <r_qp_QPlogPw>  (565) 
11.834

>  <r_qp_QPlogS>  (565) 
-6.2949999999999999

>  <r_qp_QPpolrz>  (565) 
47.393999999999998

>  <r_qp_SASA>  (565) 
710.39200000000005

>  <r_qp_SAamideO>  (565) 
0

>  <r_qp_SAfluorine>  (565) 
0

>  <r_qp_WPSA>  (565) 
0

>  <r_qp_accptHB>  (565) 
7

>  <r_qp_dip^2/V>  (565) 
0.002261

>  <r_qp_dipole>  (565) 
1.75

>  <r_qp_donorHB>  (565) 
1

>  <r_qp_glob>  (565) 
0.83358239999999995

>  <r_qp_mol_MW>  (565) 
435.52699999999999

>  <r_qp_volume>  (565) 
1354.9459999999999

>  <r_sd_BIOSOLVEIT.INFINISEE\_FTREES\_SIMILARITY>  (565) 
0.91800000000000004

>  <r_sd_BIOSOLVEIT.LOGP>  (565) 
5.0107799999999996

>  <r_sd_BIOSOLVEIT.MOLECULAR\_WEIGHT>  (565) 
435.529

>  <r_sd_BIOSOLVEIT.TPSA>  (565) 
72.260000000000005

>  <i_epik_Tot_Q>  (565) 
0

>  <i_epik_Tot_abs_Q>  (565) 
0

>  <i_f3d_flags>  (565) 
0

>  <i_i_glide_confnum>  (565) 
8

>  <i_i_glide_lignum>  (565) 
891

>  <i_i_glide_posenum>  (565) 
12

>  <i_i_glide_rotatable_bonds>  (565) 
8

>  <i_lp_mmshare_version>  (565) 
65135

>  <i_m_ct_format>  (565) 
2

>  <i_m_source_file_index>  (565) 
2394

>  <i_qp_#NandO>  (565) 
6

>  <i_qp_#acid>  (565) 
0

>  <i_qp_#amide>  (565) 
0

>  <i_qp_#amidine>  (565) 
0

>  <i_qp_#amine>  (565) 
0

>  <i_qp_#in34>  (565) 
0

>  <i_qp_#in56>  (565) 
22

>  <i_qp_#metab>  (565) 
6

>  <i_qp_#nonHatm>  (565) 
33

>  <i_qp_#noncon>  (565) 
0

>  <i_qp_#ringatoms>  (565) 
22

>  <i_qp_#rotor>  (565) 
8

>  <i_qp_#rtvFG>  (565) 
0

>  <i_qp_#stars>  (565) 
1

>  <i_qp_CNS>  (565) 
-1

>  <i_qp_HumanOralAbsorption>  (565) 
1

>  <i_qp_RuleOfFive>  (565) 
0

>  <i_qp_RuleOfThree>  (565) 
1

>  <i_sd_BIOSOLVEIT.INFINISEE\_RESULT\_RANK>  (565) 
19825

>  <i_sd_version>  (565) 
0

>  <b_lp_Chiralities_Consistent>  (565) 
1

>  <b_sd_chiral_flag>  (565) 
0

>  <canonical_id>  (565) 
ATP-HTVS-57B04A124BC1

>  <compound_code>  (565) 
76577

>  <title>  (565) 
rxn502b____EMOL31412043____EMOL44466703____EMOL24630243

>  <variant>  (565) 
76577-1

>  <source_file>  (565) 
运行/运行/ATP-VSW/ATP-VSW-DOCK_HTVS_1-001_lib/ATP-VSW-DOCK_HTVS_1-001_lib

>  <canonical_smiles>  (565) 
CN(CC(=O)Nc1nc2ccccc2cc1N(C)[C@@H](C#N)c1ccccc1)c1ccccc1

>  <scaffold>  (565) 
O=C(CNc1ccccc1)Nc1nc2ccccc2cc1NCc1ccccc1

>  <molecular_formula>  (565) 
C27H25N5O

$$$$
ATP-HTVS-57C145E4C4AF
     RDKit          3D

 56 59  0  0  0  0  0  0  0  0999 V2000
  195.1333  186.2971  160.9755 Cl  0  0  0  0  0  0  0  0  0  0  0  0
  195.6978  185.2464  159.7347 C   0  0  0  0  0  0  0  0  0  0  0  0
  194.7687  183.8344  159.3437 S   0  0  0  0  0  0  0  0  0  0  0  0
  195.9261  183.3864  158.1196 C   0  0  0  0  0  0  0  0  0  0  0  0
  196.9348  184.3107  157.9962 C   0  0  0  0  0  0  0  0  0  0  0  0
  198.0055  184.2862  156.9543 C   0  0  0  0  0  0  0  0  0  0  0  0
  199.0368  184.9503  157.0810 O   0  0  0  0  0  0  0  0  0  0  0  0
  197.7121  183.5514  155.8554 N   0  0  0  0  0  0  0  0  0  0  0  0
  197.9124  183.9626  154.4916 C   0  0  0  0  0  0  0  0  0  0  0  0
  197.1947  183.3105  153.4466 C   0  0  0  0  0  0  0  0  0  0  0  0
  196.3495  182.2236  153.7547 N   0  0  0  0  0  0  0  0  0  0  0  0
  196.6976  180.8796  153.2429 C   0  0  1  0  0  0  0  0  0  0  0  0
  198.1068  180.4168  153.5218 C   0  0  0  0  0  0  0  0  0  0  0  0
  198.3100  179.4278  154.4895 C   0  0  0  0  0  0  0  0  0  0  0  0
  199.5981  178.9077  154.7076 C   0  0  0  0  0  0  0  0  0  0  0  0
  200.6986  179.3966  153.9593 C   0  0  0  0  0  0  0  0  0  0  0  0
  200.4986  180.4100  153.0007 C   0  0  0  0  0  0  0  0  0  0  0  0
  199.2010  180.9110  152.7796 C   0  0  0  0  0  0  0  0  0  0  0  0
  199.8099  177.8458  155.7769 C   0  0  1  0  0  0  0  0  0  0  0  0
  199.9991  178.4385  157.1244 N   0  0  2  0  0  0  0  0  0  0  0  0
  201.0044  179.5299  157.1721 C   0  0  2  0  0  0  0  0  0  0  0  0
  200.3077  177.4015  158.1214 C   0  0  2  0  0  0  0  0  0  0  0  0
  197.2997  183.7956  152.1153 C   0  0  0  0  0  0  0  0  0  0  0  0
  198.1602  184.8955  151.8488 C   0  0  0  0  0  0  0  0  0  0  0  0
  198.8048  185.4901  152.8677 N   0  0  0  0  0  0  0  0  0  0  0  0
  198.7110  185.0897  154.1509 C   0  0  0  0  0  0  0  0  0  0  0  0
  198.3477  185.3679  150.5268 C   0  0  0  0  0  0  0  0  0  0  0  0
  197.7035  184.7270  149.4481 C   0  0  0  0  0  0  0  0  0  0  0  0
  196.8314  183.6558  149.7097 C   0  0  0  0  0  0  0  0  0  0  0  0
  196.5702  183.2150  151.0307 C   0  0  0  0  0  0  0  0  0  0  0  0
  196.7976  185.3886  158.9350 C   0  0  0  0  0  0  0  0  0  0  0  0
  195.7432  182.4896  157.5455 H   0  0  0  0  0  0  0  0  0  0  0  0
  196.9841  182.8522  155.9610 H   0  0  0  0  0  0  0  0  0  0  0  0
  195.3678  182.5005  153.7707 H   0  0  0  0  0  0  0  0  0  0  0  0
  195.9931  180.1653  153.6911 H   0  0  0  0  0  0  0  0  0  0  0  0
  196.5885  180.8177  152.1539 H   0  0  0  0  0  0  0  0  0  0  0  0
  197.4736  179.0367  155.0496 H   0  0  0  0  0  0  0  0  0  0  0  0
  201.7047  179.0285  154.1392 H   0  0  0  0  0  0  0  0  0  0  0  0
  201.3428  180.8018  152.4369 H   0  0  0  0  0  0  0  0  0  0  0  0
  199.0671  181.6498  152.0085 H   0  0  0  0  0  0  0  0  0  0  0  0
  198.9381  177.1811  155.7963 H   0  0  0  0  0  0  0  0  0  0  0  0
  200.6743  177.2347  155.4900 H   0  0  0  0  0  0  0  0  0  0  0  0
  201.9794  179.1658  156.8501 H   0  0  0  0  0  0  0  0  0  0  0  0
  201.1238  179.9218  158.1756 H   0  0  0  0  0  0  0  0  0  0  0  0
  200.7333  180.3795  156.5520 H   0  0  0  0  0  0  0  0  0  0  0  0
  201.2482  176.8969  157.9006 H   0  0  0  0  0  0  0  0  0  0  0  0
  199.5164  176.6681  158.1227 H   0  0  0  0  0  0  0  0  0  0  0  0
  200.3577  177.8167  159.1246 H   0  0  0  0  0  0  0  0  0  0  0  0
  199.2515  185.7184  154.8554 H   0  0  0  0  0  0  0  0  0  0  0  0
  198.9908  186.2244  150.3310 H   0  0  0  0  0  0  0  0  0  0  0  0
  197.8532  185.0729  148.4357 H   0  0  0  0  0  0  0  0  0  0  0  0
  196.3647  183.1541  148.8821 H   0  0  0  0  0  0  0  0  0  0  0  0
  195.8514  182.4172  151.1897 H   0  0  0  0  0  0  0  0  0  0  0  0
  197.4777  186.2276  158.9882 H   0  0  0  0  0  0  0  0  0  0  0  0
  199.0827  178.7937  157.3866 H   0  0  0  0  0  0  0  0  0  0  0  0
  199.3867  186.3045  152.6713 H   0  0  0  0  0  0  0  0  0  0  0  0
  1  2  1  0
  2  3  1  0
  2 31  2  0
  3  4  1  0
  4  5  2  0
  4 32  1  0
  5  6  1  0
  5 31  1  0
  6  7  2  0
  6  8  1  0
  8  9  1  0
  8 33  1  0
  9 10  2  0
  9 26  1  0
 10 11  1  0
 10 23  1  0
 11 12  1  0
 11 34  1  0
 12 13  1  0
 12 35  1  1
 12 36  1  0
 13 14  2  0
 13 18  1  0
 14 15  1  0
 14 37  1  0
 15 16  2  0
 15 19  1  0
 16 17  1  0
 16 38  1  0
 17 18  2  0
 17 39  1  0
 18 40  1  0
 19 20  1  0
 19 41  1  1
 19 42  1  0
 20 21  1  0
 20 22  1  0
 20 55  1  1
 21 43  1  6
 21 44  1  0
 21 45  1  0
 22 46  1  6
 22 47  1  0
 22 48  1  0
 23 24  1  0
 23 30  2  0
 24 25  1  0
 24 27  2  0
 25 26  2  0
 25 56  1  0
 26 49  1  0
 27 28  1  0
 27 50  1  0
 28 29  2  0
 28 51  1  0
 29 30  1  0
 29 52  1  0
 30 53  1  0
 31 54  1  0
M  CHG  2  20   1  25   1
M  END
>  <s_epik_cmdline>  (566) 
J2VwaWtfcHl0aG9uJywgJy1waCcsICc3LjAwMDAwMCcsICctcGh0JywgJzIuMDAwMDAwJywgJy1tcycsICcxNicsICctdG4nLCAnOCcsICctbWEnLCAnMjAwJywgJy1pbWFlJywgJzxpbmZpbGUubWFlPicsICctb21hZScsICc8b3V0ZmlsZS5tYWU+Jw==

>  <s_epik_input>  (566) 
Q2xjMXNbY0hdYyhbY0hdMSlDKD1PKVtOSF1jKFtjSF1uYyhjMjMpW2NIXVtjSF1bY0hdW2NIXTMpYzJbTkhdW0NIMl1jNFtjSF1jKFtjSF1bY0hdW2NIXTQpW0NIMl1OKFtDSDNdKVtDSDNd

>  <s_i_glide_gridfile>  (566) 
ATP-Grid

>  <s_lp_Force_Field>  (566) 
OPLS_2005

>  <s_lp_Variant>  (566) 
rxn502b____EMOL877306____EMOL30488121____EMOL2873214-1

>  <s_lp_label>  (566) 
2848_sdstereoexpander_1_neutralizer_1_epik_1_stereoizer_1

>  <s_m_source_file>  (566) 
ATP-VSW-LIGPREP-003-in.maegz

>  <s_sd_BIOSOLVEIT.INFINISEE\_QUERY\_NAME>  (566) 
Ref-Lig

>  <s_sd_BIOSOLVEIT.INFINISEE\_QUERY\_SMILES>  (566) 
S(c1nc2c(cc1C[NH2+]Cc3ccc(cc3)C[NH+](C)C)cccc2)Cc4ccccc4

>  <s_sd_BIOSOLVEIT.INFINISEE\_REACTION\_NAME>  (566) 
rxn502b

>  <s_sd_BIOSOLVEIT.INFINISEE\_REAGENT1\_NAME>  (566) 
EMOL877306

>  <s_sd_BIOSOLVEIT.INFINISEE\_REAGENT1\_SMILES>  (566) 
ClC=1SC=C(C(=O)O)C1

>  <s_sd_BIOSOLVEIT.INFINISEE\_REAGENT2\_NAME>  (566) 
EMOL30488121

>  <s_sd_BIOSOLVEIT.INFINISEE\_REAGENT2\_SMILES>  (566) 
Brc1c(N)cnc2c1cccc2

>  <s_sd_BIOSOLVEIT.INFINISEE\_REAGENT3\_NAME>  (566) 
EMOL2873214

>  <s_sd_BIOSOLVEIT.INFINISEE\_REAGENT3\_SMILES>  (566) 
N(Cc1cc(ccc1)CN)(C)C

>  <s_sd_BIOSOLVEIT.INFINISEE\_SPACE>  (566) 
eXplore_7tr_2022-12

>  <s_vsw_compound_code>  (566) 
91107

>  <s_vsw_variant>  (566) 
91107-1

>  <r_epik_Charging_Adjusted_Penalty>  (566) 
0.214576079082689

>  <r_epik_Ionization_Penalty>  (566) 
0.10730000000000001

>  <r_epik_Ionization_Penalty_Charging>  (566) 
0.10730000000000001

>  <r_epik_Ionization_Penalty_Neutral>  (566) 
0

>  <r_epik_State_Penalty>  (566) 
0.10730000000000001

>  <r_i_docking_score>  (566) 
-5.4982000280630396

>  <r_i_glide_ecoul>  (566) 
-13.2573289871216

>  <r_i_glide_eff_state_penalty>  (566) 
0.10730000000000001

>  <r_i_glide_einternal>  (566) 
12.9121437072754

>  <r_i_glide_emodel>  (566) 
-69.214783143190502

>  <r_i_glide_energy>  (566) 
-49.879189491272001

>  <r_i_glide_erotb>  (566) 
0.68460559204390803

>  <r_i_glide_esite>  (566) 
-0.17803365144496999

>  <r_i_glide_evdw>  (566) 
-36.621860504150398

>  <r_i_glide_gscore>  (566) 
-5.60550002806304

>  <r_i_glide_hbond>  (566) 
-0.26387842315343801

>  <r_i_glide_ligand_efficiency>  (566) 
-0.17736129122784

>  <r_i_glide_ligand_efficiency_ln>  (566) 
-1.2400126059230401

>  <r_i_glide_ligand_efficiency_sa>  (566) 
-0.55715932810853297

>  <r_i_glide_lipo>  (566) 
-1.4830479904146101

>  <r_i_glide_metal>  (566) 
-0

>  <r_i_glide_rewards>  (566) 
-0.54545318181818103

>  <r_lp_Energy>  (566) 
36.339275999999998

>  <r_qp_ACxDN^.5/SA>  (566) 
0.013283700000000001

>  <r_qp_CIQPlogS>  (566) 
-5.9340000000000002

>  <r_qp_EA(eV)>  (566) 
1.2030000000000001

>  <r_qp_FISA>  (566) 
52.109000000000002

>  <r_qp_FOSA>  (566) 
171.84200000000001

>  <r_qp_IP(eV)>  (566) 
8.6969999999999992

>  <r_qp_Jm>  (566) 
0.022202986299039201

>  <r_qp_PISA>  (566) 
342.01900000000001

>  <r_qp_PSA>  (566) 
61.572000000000003

>  <r_qp_PercentHumanOralAbsorption>  (566) 
100

>  <r_qp_QPPCaco>  (566) 
791.87

>  <r_qp_QPPMDCK>  (566) 
2084.9769999999999

>  <r_qp_QPlogBB>  (566) 
0.35399999999999998

>  <r_qp_QPlogHERG>  (566) 
-6.524

>  <r_qp_QPlogKhsa>  (566) 
0.59499999999999997

>  <r_qp_QPlogKp>  (566) 
-2.6659999999999999

>  <r_qp_QPlogPC16>  (566) 
14.494

>  <r_qp_QPlogPo/w>  (566) 
4.6660000000000004

>  <r_qp_QPlogPoct>  (566) 
22.170000000000002

>  <r_qp_QPlogPw>  (566) 
11.897

>  <r_qp_QPlogS>  (566) 
-4.6420000000000003

>  <r_qp_QPpolrz>  (566) 
45.088000000000001

>  <r_qp_SASA>  (566) 
692.00300000000004

>  <r_qp_SAamideO>  (566) 
0

>  <r_qp_SAfluorine>  (566) 
0

>  <r_qp_WPSA>  (566) 
126.03400000000001

>  <r_qp_accptHB>  (566) 
6.5

>  <r_qp_dip^2/V>  (566) 
0.027811800000000001

>  <r_qp_dipole>  (566) 
6.0389999999999997

>  <r_qp_donorHB>  (566) 
2

>  <r_qp_glob>  (566) 
0.83717810000000004

>  <r_qp_mol_MW>  (566) 
450.98500000000001

>  <r_qp_volume>  (566) 
1311.117

>  <r_sd_BIOSOLVEIT.INFINISEE\_FTREES\_SIMILARITY>  (566) 
0.90500000000000003

>  <r_sd_BIOSOLVEIT.LOGP>  (566) 
4.4585999999999997

>  <r_sd_BIOSOLVEIT.MOLECULAR\_WEIGHT>  (566) 
451.99900000000002

>  <r_sd_BIOSOLVEIT.TPSA>  (566) 
58.460000000000001

>  <i_epik_Tot_Q>  (566) 
2

>  <i_epik_Tot_abs_Q>  (566) 
2

>  <i_f3d_flags>  (566) 
0

>  <i_i_glide_confnum>  (566) 
9

>  <i_i_glide_lignum>  (566) 
1376

>  <i_i_glide_posenum>  (566) 
10

>  <i_i_glide_rotatable_bonds>  (566) 
8

>  <i_lp_mmshare_version>  (566) 
65135

>  <i_m_ct_format>  (566) 
2

>  <i_m_source_file_index>  (566) 
2848

>  <i_qp_#NandO>  (566) 
5

>  <i_qp_#acid>  (566) 
0

>  <i_qp_#amide>  (566) 
0

>  <i_qp_#amidine>  (566) 
0

>  <i_qp_#amine>  (566) 
1

>  <i_qp_#in34>  (566) 
0

>  <i_qp_#in56>  (566) 
21

>  <i_qp_#metab>  (566) 
7

>  <i_qp_#nonHatm>  (566) 
31

>  <i_qp_#noncon>  (566) 
0

>  <i_qp_#ringatoms>  (566) 
21

>  <i_qp_#rotor>  (566) 
7

>  <i_qp_#rtvFG>  (566) 
0

>  <i_qp_#stars>  (566) 
0

>  <i_qp_CNS>  (566) 
1

>  <i_qp_HumanOralAbsorption>  (566) 
3

>  <i_qp_RuleOfFive>  (566) 
0

>  <i_qp_RuleOfThree>  (566) 
1

>  <i_sd_BIOSOLVEIT.INFINISEE\_RESULT\_RANK>  (566) 
68713

>  <i_sd_version>  (566) 
0

>  <b_lp_Chiralities_Consistent>  (566) 
1

>  <b_sd_chiral_flag>  (566) 
0

>  <canonical_id>  (566) 
ATP-HTVS-57C145E4C4AF

>  <compound_code>  (566) 
91107

>  <title>  (566) 
rxn502b____EMOL877306____EMOL30488121____EMOL2873214

>  <variant>  (566) 
91107-1

>  <source_file>  (566) 
运行/运行/ATP-VSW/ATP-VSW-DOCK_HTVS_1-003_lib/ATP-VSW-DOCK_HTVS_1-003_lib.mae

>  <canonical_smiles>  (566) 
C[NH+](C)Cc1cccc(CNc2c(NC(=O)c3csc(Cl)c3)c[nH+]c3ccccc23)c1

>  <scaffold>  (566) 
O=C(Nc1c[nH+]c2ccccc2c1NCc1ccccc1)c1ccsc1

>  <molecular_formula>  (566) 
C24H25ClN4OS+2

$$$$
ATP-HTVS-57CD8A84B862
     RDKit          3D

 65 68  0  0  0  0  0  0  0  0999 V2000
  201.0650  184.0746  149.8267 Cl  0  0  0  0  0  0  0  0  0  0  0  0
  200.1767  185.5799  149.5508 C   0  0  1  0  0  0  0  0  0  0  0  0
  199.2450  185.3133  148.3744 C   0  0  0  0  0  0  0  0  0  0  0  0
  198.0846  184.5362  148.5641 C   0  0  0  0  0  0  0  0  0  0  0  0
  197.2517  184.2144  147.4809 C   0  0  0  0  0  0  0  0  0  0  0  0
  197.5954  184.6459  146.1853 C   0  0  0  0  0  0  0  0  0  0  0  0
  198.7709  185.3997  145.9821 C   0  0  0  0  0  0  0  0  0  0  0  0
  199.5956  185.7358  147.0742 C   0  0  0  0  0  0  0  0  0  0  0  0
  199.4519  186.0785  150.8273 C   0  0  0  0  0  0  0  0  0  0  0  0
  198.2955  186.4924  150.7271 O   0  0  0  0  0  0  0  0  0  0  0  0
  200.0505  186.0976  152.0477 N   0  0  0  0  0  0  0  0  0  0  0  0
  199.3346  186.4832  153.2687 C   0  0  1  0  0  0  0  0  0  0  0  0
  199.5349  187.9153  153.7069 C   0  0  0  0  0  0  0  0  0  0  0  0
  199.9709  189.1526  152.5598 S   0  0  0  0  0  0  0  0  0  0  0  0
  199.9844  190.3844  153.8086 C   0  0  0  0  0  0  0  0  0  0  0  0
  199.6347  189.8383  155.0822 C   0  0  0  0  0  0  0  0  0  0  0  0
  199.6179  190.7510  156.1736 C   0  0  0  0  0  0  0  0  0  0  0  0
  199.9328  192.1126  156.0129 C   0  0  0  0  0  0  0  0  0  0  0  0
  200.2766  192.6092  154.7454 C   0  0  0  0  0  0  0  0  0  0  0  0
  200.2996  191.7431  153.6406 C   0  0  0  0  0  0  0  0  0  0  0  0
  199.3807  188.4074  154.9908 C   0  0  0  0  0  0  0  0  0  0  0  0
  199.0749  187.6179  156.1198 N   0  0  0  0  0  0  0  0  0  0  0  0
  198.1559  187.9790  157.1900 C   0  0  1  0  0  0  0  0  0  0  0  0
  197.5630  186.7885  157.9220 C   0  0  0  0  0  0  0  0  0  0  0  0
  196.4638  186.9850  158.7851 C   0  0  0  0  0  0  0  0  0  0  0  0
  195.9070  185.8951  159.4795 C   0  0  0  0  0  0  0  0  0  0  0  0
  196.4394  184.6005  159.3117 C   0  0  0  0  0  0  0  0  0  0  0  0
  197.5500  184.4023  158.4699 C   0  0  0  0  0  0  0  0  0  0  0  0
  198.1069  185.4898  157.7781 C   0  0  0  0  0  0  0  0  0  0  0  0
  195.8085  183.4222  160.0190 C   0  0  1  0  0  0  0  0  0  0  0  0
  194.7929  182.7111  159.1978 N   0  0  1  0  0  0  0  0  0  0  0  0
  193.7070  183.5873  158.7018 C   0  0  2  0  0  0  0  0  0  0  0  0
  195.3794  181.8719  158.1289 C   0  0  2  0  0  0  0  0  0  0  0  0
  201.4845  185.8256  152.2169 C   0  0  2  0  0  0  0  0  0  0  0  0
  200.9102  186.3346  149.2704 H   0  0  0  0  0  0  0  0  0  0  0  0
  197.8252  184.1680  149.5432 H   0  0  0  0  0  0  0  0  0  0  0  0
  196.3508  183.6558  147.6619 H   0  0  0  0  0  0  0  0  0  0  0  0
  196.9458  184.4055  145.3570 H   0  0  0  0  0  0  0  0  0  0  0  0
  199.0468  185.7158  144.9828 H   0  0  0  0  0  0  0  0  0  0  0  0
  200.5161  186.2793  146.9013 H   0  0  0  0  0  0  0  0  0  0  0  0
  198.2618  186.2969  153.1803 H   0  0  0  0  0  0  0  0  0  0  0  0
  199.6535  185.8188  154.0514 H   0  0  0  0  0  0  0  0  0  0  0  0
  199.3726  190.4019  157.1625 H   0  0  0  0  0  0  0  0  0  0  0  0
  199.9179  192.7765  156.8654 H   0  0  0  0  0  0  0  0  0  0  0  0
  200.5262  193.6535  154.6205 H   0  0  0  0  0  0  0  0  0  0  0  0
  200.5661  192.1114  152.6610 H   0  0  0  0  0  0  0  0  0  0  0  0
  199.5267  186.7205  156.1934 H   0  0  0  0  0  0  0  0  0  0  0  0
  198.7115  188.5470  157.9309 H   0  0  0  0  0  0  0  0  0  0  0  0
  197.3507  188.6205  156.8126 H   0  0  0  0  0  0  0  0  0  0  0  0
  196.0278  187.9680  158.9097 H   0  0  0  0  0  0  0  0  0  0  0  0
  195.0486  186.0485  160.1157 H   0  0  0  0  0  0  0  0  0  0  0  0
  197.9646  183.4122  158.3243 H   0  0  0  0  0  0  0  0  0  0  0  0
  198.9446  185.2836  157.1321 H   0  0  0  0  0  0  0  0  0  0  0  0
  196.5923  182.7277  160.3150 H   0  0  0  0  0  0  0  0  0  0  0  0
  195.3519  183.8056  160.9354 H   0  0  0  0  0  0  0  0  0  0  0  0
  194.1033  184.3467  158.0339 H   0  0  0  0  0  0  0  0  0  0  0  0
  193.2079  184.0994  159.5259 H   0  0  0  0  0  0  0  0  0  0  0  0
  192.9604  183.0191  158.1446 H   0  0  0  0  0  0  0  0  0  0  0  0
  195.8914  182.4787  157.3830 H   0  0  0  0  0  0  0  0  0  0  0  0
  194.6043  181.3014  157.6100 H   0  0  0  0  0  0  0  0  0  0  0  0
  196.0981  181.1686  158.5571 H   0  0  0  0  0  0  0  0  0  0  0  0
  201.7639  184.8445  151.8087 H   0  0  0  0  0  0  0  0  0  0  0  0
  201.7647  185.8783  153.2903 H   0  0  0  0  0  0  0  0  0  0  0  0
  202.0765  186.6067  151.7253 H   0  0  0  0  0  0  0  0  0  0  0  0
  194.3559  182.0487  159.8212 H   0  0  0  0  0  0  0  0  0  0  0  0
  1  2  1  0
  2  3  1  0
  2  9  1  0
  2 35  1  6
  3  4  2  0
  3  8  1  0
  4  5  1  0
  4 36  1  0
  5  6  2  0
  5 37  1  0
  6  7  1  0
  6 38  1  0
  7  8  2  0
  7 39  1  0
  8 40  1  0
  9 10  2  0
  9 11  1  0
 11 12  1  0
 11 34  1  0
 12 13  1  0
 12 41  1  6
 12 42  1  0
 13 14  1  0
 13 21  2  0
 14 15  1  0
 15 16  1  0
 15 20  2  0
 16 17  2  0
 16 21  1  0
 17 18  1  0
 17 43  1  0
 18 19  2  0
 18 44  1  0
 19 20  1  0
 19 45  1  0
 20 46  1  0
 21 22  1  0
 22 23  1  0
 22 47  1  0
 23 24  1  0
 23 48  1  1
 23 49  1  0
 24 25  1  0
 24 29  2  0
 25 26  2  0
 25 50  1  0
 26 27  1  0
 26 51  1  0
 27 28  2  0
 27 30  1  0
 28 29  1  0
 28 52  1  0
 29 53  1  0
 30 31  1  0
 30 54  1  1
 30 55  1  0
 31 32  1  0
 31 33  1  0
 31 65  1  1
 32 56  1  6
 32 57  1  0
 32 58  1  0
 33 59  1  6
 33 60  1  0
 33 61  1  0
 34 62  1  6
 34 63  1  0
 34 64  1  0
M  CHG  1  31   1
M  END
>  <s_epik_cmdline>  (567) 
J2VwaWtfcHl0aG9uJywgJy1waCcsICc3LjAwMDAwMCcsICctcGh0JywgJzIuMDAwMDAwJywgJy1tcycsICcxNicsICctdG4nLCAnOCcsICctbWEnLCAnMjAwJywgJy1pbWFlJywgJzxpbmZpbGUubWFlPicsICctb21hZScsICc8b3V0ZmlsZS5tYWU+Jw==

>  <s_epik_input>  (567) 
W2NIXTFbY0hdW2NIXVtjSF1bY0hdYzFbQ0BIXShDbClDKD1PKU4oW0NIM10pW0NIMl1jKHMyKWMoYyhjMjMpW2NIXVtjSF1bY0hdW2NIXTMpW05IXVtDSDJdYzRbY0hdW2NIXWMoW2NIXVtjSF00KVtDSDJdTihbQ0gzXSlbQ0gzXQ==

>  <s_i_glide_gridfile>  (567) 
ATP-Grid

>  <s_lp_Force_Field>  (567) 
OPLS_2005

>  <s_lp_Variant>  (567) 
rxn502c____EMOL480530____EMOL49259969____EMOL50155899-2

>  <s_lp_label>  (567) 
2178_sdstereoexpander_2_neutralizer_1_epik_1_stereoizer_1

>  <s_m_source_file>  (567) 
ATP-VSW-LIGPREP-002-in.maegz

>  <s_sd_BIOSOLVEIT.INFINISEE\_QUERY\_NAME>  (567) 
Ref-Lig

>  <s_sd_BIOSOLVEIT.INFINISEE\_QUERY\_SMILES>  (567) 
S(c1nc2c(cc1C[NH2+]Cc3ccc(cc3)C[NH+](C)C)cccc2)Cc4ccccc4

>  <s_sd_BIOSOLVEIT.INFINISEE\_REACTION\_NAME>  (567) 
rxn502c

>  <s_sd_BIOSOLVEIT.INFINISEE\_REAGENT1\_NAME>  (567) 
EMOL480530

>  <s_sd_BIOSOLVEIT.INFINISEE\_REAGENT1\_SMILES>  (567) 
ClC(=O)C(Cl)c1ccccc1

>  <s_sd_BIOSOLVEIT.INFINISEE\_REAGENT2\_NAME>  (567) 
EMOL49259969

>  <s_sd_BIOSOLVEIT.INFINISEE\_REAGENT2\_SMILES>  (567) 
ClC=1c2c(SC1CNC)cccc2

>  <s_sd_BIOSOLVEIT.INFINISEE\_REAGENT3\_NAME>  (567) 
EMOL50155899

>  <s_sd_BIOSOLVEIT.INFINISEE\_REAGENT3\_SMILES>  (567) 
N(Cc1ccc(cc1)CN)(C)C

>  <s_sd_BIOSOLVEIT.INFINISEE\_SPACE>  (567) 
eXplore_7tr_2022-12

>  <s_vsw_compound_code>  (567) 
69666

>  <s_vsw_variant>  (567) 
69666-2

>  <r_epik_Charging_Adjusted_Penalty>  (567) 
0.080189274810459593

>  <r_epik_Ionization_Penalty>  (567) 
0.040099999999999997

>  <r_epik_Ionization_Penalty_Charging>  (567) 
0.040099999999999997

>  <r_epik_Ionization_Penalty_Neutral>  (567) 
0

>  <r_epik_State_Penalty>  (567) 
0.040099999999999997

>  <r_i_docking_score>  (567) 
-4.3743314590550701

>  <r_i_glide_ecoul>  (567) 
-4.9043846130371103

>  <r_i_glide_eff_state_penalty>  (567) 
0.040099999999999997

>  <r_i_glide_einternal>  (567) 
7.0680522918701199

>  <r_i_glide_emodel>  (567) 
-50.657770870131003

>  <r_i_glide_energy>  (567) 
-38.924388885497997

>  <r_i_glide_erotb>  (567) 
0.67022257153436504

>  <r_i_glide_esite>  (567) 
-0.021424225167185999

>  <r_i_glide_evdw>  (567) 
-34.020004272460902

>  <r_i_glide_gscore>  (567) 
-4.41443145905507

>  <r_i_glide_hbond>  (567) 
0

>  <r_i_glide_ligand_efficiency>  (567) 
-0.12865680761926701

>  <r_i_glide_ligand_efficiency_ln>  (567) 
-0.96641251514670601

>  <r_i_glide_ligand_efficiency_sa>  (567) 
-0.41679811178813603

>  <r_i_glide_lipo>  (567) 
-2.2581010852579801

>  <r_i_glide_metal>  (567) 
-0

>  <r_i_glide_rewards>  (567) 
-0.36847081458565401

>  <r_lp_Energy>  (567) 
31.082474000000001

>  <r_qp_ACxDN^.5/SA>  (567) 
0.0079185999999999996

>  <r_qp_CIQPlogS>  (567) 
-5.3550000000000004

>  <r_qp_EA(eV)>  (567) 
0.61899999999999999

>  <r_qp_FISA>  (567) 
40

>  <r_qp_FOSA>  (567) 
299.20400000000001

>  <r_qp_IP(eV)>  (567) 
8.0470000000000006

>  <r_qp_Jm>  (567) 
0.0084026473649652499

>  <r_qp_PISA>  (567) 
339.24400000000003

>  <r_qp_PSA>  (567) 
42.261000000000003

>  <r_qp_PercentHumanOralAbsorption>  (567) 
94.471000000000004

>  <r_qp_QPPCaco>  (567) 
163.315

>  <r_qp_QPPMDCK>  (567) 
379.32600000000002

>  <r_qp_QPlogBB>  (567) 
0.622

>  <r_qp_QPlogHERG>  (567) 
-6.048

>  <r_qp_QPlogKhsa>  (567) 
0.73999999999999999

>  <r_qp_QPlogKp>  (567) 
-4.3230000000000004

>  <r_qp_QPlogPC16>  (567) 
15.272

>  <r_qp_QPlogPo/w>  (567) 
4.7679999999999998

>  <r_qp_QPlogPoct>  (567) 
22.164999999999999

>  <r_qp_QPlogPw>  (567) 
11.374000000000001

>  <r_qp_QPlogS>  (567) 
-3.4449999999999998

>  <r_qp_QPpolrz>  (567) 
50.197000000000003

>  <r_qp_SASA>  (567) 
757.71199999999999

>  <r_qp_SAamideO>  (567) 
24.794

>  <r_qp_SAfluorine>  (567) 
0

>  <r_qp_WPSA>  (567) 
79.263999999999996

>  <r_qp_accptHB>  (567) 
6

>  <r_qp_dip^2/V>  (567) 
0.047762199999999998

>  <r_qp_dipole>  (567) 
8.3829999999999991

>  <r_qp_donorHB>  (567) 
1

>  <r_qp_glob>  (567) 
0.82573039999999998

>  <r_qp_mol_MW>  (567) 
492.077

>  <r_qp_volume>  (567) 
1471.519

>  <r_sd_BIOSOLVEIT.INFINISEE\_FTREES\_SIMILARITY>  (567) 
0.93700000000000006

>  <r_sd_BIOSOLVEIT.LOGP>  (567) 
5.0964

>  <r_sd_BIOSOLVEIT.MOLECULAR\_WEIGHT>  (567) 
493.09100000000001

>  <r_sd_BIOSOLVEIT.TPSA>  (567) 
36.780000000000001

>  <i_epik_Tot_Q>  (567) 
1

>  <i_epik_Tot_abs_Q>  (567) 
1

>  <i_f3d_flags>  (567) 
0

>  <i_i_glide_confnum>  (567) 
4

>  <i_i_glide_lignum>  (567) 
808

>  <i_i_glide_posenum>  (567) 
18

>  <i_i_glide_rotatable_bonds>  (567) 
10

>  <i_lp_mmshare_version>  (567) 
65135

>  <i_m_ct_format>  (567) 
2

>  <i_m_source_file_index>  (567) 
2178

>  <i_qp_#NandO>  (567) 
4

>  <i_qp_#acid>  (567) 
0

>  <i_qp_#amide>  (567) 
1

>  <i_qp_#amidine>  (567) 
0

>  <i_qp_#amine>  (567) 
2

>  <i_qp_#in34>  (567) 
0

>  <i_qp_#in56>  (567) 
21

>  <i_qp_#metab>  (567) 
8

>  <i_qp_#nonHatm>  (567) 
34

>  <i_qp_#noncon>  (567) 
0

>  <i_qp_#ringatoms>  (567) 
21

>  <i_qp_#rotor>  (567) 
9

>  <i_qp_#rtvFG>  (567) 
1

>  <i_qp_#stars>  (567) 
0

>  <i_qp_CNS>  (567) 
2

>  <i_qp_HumanOralAbsorption>  (567) 
3

>  <i_qp_RuleOfFive>  (567) 
0

>  <i_qp_RuleOfThree>  (567) 
1

>  <i_sd_BIOSOLVEIT.INFINISEE\_RESULT\_RANK>  (567) 
1889

>  <i_sd_version>  (567) 
0

>  <b_lp_Chiralities_Consistent>  (567) 
1

>  <b_sd_chiral_flag>  (567) 
0

>  <canonical_id>  (567) 
ATP-HTVS-57CD8A84B862

>  <compound_code>  (567) 
69666

>  <title>  (567) 
rxn502c____EMOL480530____EMOL49259969____EMOL50155899

>  <variant>  (567) 
69666-2

>  <source_file>  (567) 
运行/运行/ATP-VSW/ATP-VSW-DOCK_HTVS_1-002_lib.maegz

>  <canonical_smiles>  (567) 
CN(Cc1sc2ccccc2c1NCc1ccc(C[NH+](C)C)cc1)C(=O)[C@@H](Cl)c1ccccc1

>  <scaffold>  (567) 
O=C(Cc1ccccc1)NCc1sc2ccccc2c1NCc1ccccc1

>  <molecular_formula>  (567) 
C28H31ClN3OS+

$$$$
ATP-HTVS-5801E8FB792E
     RDKit          3D

 52 55  0  0  0  0  0  0  0  0999 V2000
  202.3211  180.9864  155.4908 N   0  0  0  0  0  0  0  0  0  0  0  0
  201.2096  181.3751  154.8227 C   0  0  0  0  0  0  0  0  0  0  0  0
  199.9109  180.8644  155.0616 C   0  0  0  0  0  0  0  0  0  0  0  0
  199.7893  179.8548  156.0587 C   0  0  0  0  0  0  0  0  0  0  0  0
  200.9353  179.4964  156.7975 C   0  0  0  0  0  0  0  0  0  0  0  0
  202.1771  180.0728  156.4742 C   0  0  0  0  0  0  0  0  0  0  0  0
  198.7392  181.3574  154.2997 C   0  0  0  0  0  0  0  0  0  0  0  0
  198.9408  181.8660  153.0887 N   0  0  0  0  0  0  0  0  0  0  0  0
  197.7293  182.2326  152.6112 N   0  0  0  0  0  0  0  0  0  0  0  0
  197.5861  182.8019  151.3183 C   0  0  0  0  0  0  0  0  0  0  0  0
  198.5034  182.4985  150.2856 C   0  0  0  0  0  0  0  0  0  0  0  0
  198.3506  183.0590  149.0019 C   0  0  0  0  0  0  0  0  0  0  0  0
  197.2797  183.9372  148.7409 C   0  0  0  0  0  0  0  0  0  0  0  0
  196.3628  184.2478  149.7619 C   0  0  0  0  0  0  0  0  0  0  0  0
  196.5099  183.6821  151.0434 C   0  0  0  0  0  0  0  0  0  0  0  0
  196.7491  181.9649  153.5380 C   0  0  0  0  0  0  0  0  0  0  0  0
  197.3462  181.4124  154.6412 C   0  0  0  0  0  0  0  0  0  0  0  0
  196.6656  180.9486  155.9184 C   0  0  1  0  0  0  0  0  0  0  0  0
  196.0190  182.0829  156.6188 N   0  0  1  0  0  0  0  0  0  0  0  0
  195.8792  181.8588  158.0738 C   0  0  1  0  0  0  0  0  0  0  0  0
  195.8485  183.1815  158.8053 C   0  0  0  0  0  0  0  0  0  0  0  0
  197.0327  183.9246  159.0619 C   0  0  0  0  0  0  0  0  0  0  0  0
  198.2832  183.4399  158.6327 N   0  0  0  0  0  0  0  0  0  0  0  0
  199.5167  184.1064  159.0257 C   0  0  2  0  0  0  0  0  0  0  0  0
  196.9170  185.1679  159.7328 C   0  0  0  0  0  0  0  0  0  0  0  0
  195.6610  185.6498  160.1428 C   0  0  0  0  0  0  0  0  0  0  0  0
  194.5020  184.9005  159.8832 C   0  0  0  0  0  0  0  0  0  0  0  0
  194.5957  183.6730  159.2111 C   0  0  0  0  0  0  0  0  0  0  0  0
  196.6378  182.8741  156.5127 H   0  0  0  0  0  0  0  0  0  0  0  0
  201.3955  182.1198  154.0516 H   0  0  0  0  0  0  0  0  0  0  0  0
  198.8539  179.3452  156.2653 H   0  0  0  0  0  0  0  0  0  0  0  0
  200.8471  178.7589  157.5863 H   0  0  0  0  0  0  0  0  0  0  0  0
  203.0782  179.7651  156.9953 H   0  0  0  0  0  0  0  0  0  0  0  0
  199.3274  181.8244  150.4770 H   0  0  0  0  0  0  0  0  0  0  0  0
  199.0532  182.8173  148.2177 H   0  0  0  0  0  0  0  0  0  0  0  0
  197.1611  184.3708  147.7596 H   0  0  0  0  0  0  0  0  0  0  0  0
  195.5500  184.9288  149.5510 H   0  0  0  0  0  0  0  0  0  0  0  0
  195.8074  183.9353  151.8242 H   0  0  0  0  0  0  0  0  0  0  0  0
  195.7157  182.2034  153.3360 H   0  0  0  0  0  0  0  0  0  0  0  0
  195.9509  180.1561  155.6953 H   0  0  0  0  0  0  0  0  0  0  0  0
  197.3823  180.5031  156.5952 H   0  0  0  0  0  0  0  0  0  0  0  0
  194.9742  181.2802  158.2538 H   0  0  0  0  0  0  0  0  0  0  0  0
  196.6958  181.2844  158.5225 H   0  0  0  0  0  0  0  0  0  0  0  0
  198.3734  182.4889  158.3045 H   0  0  0  0  0  0  0  0  0  0  0  0
  200.3748  183.5309  158.6791 H   0  0  0  0  0  0  0  0  0  0  0  0
  199.5904  184.1953  160.1100 H   0  0  0  0  0  0  0  0  0  0  0  0
  199.5790  185.1009  158.5834 H   0  0  0  0  0  0  0  0  0  0  0  0
  197.7843  185.7750  159.9464 H   0  0  0  0  0  0  0  0  0  0  0  0
  195.5857  186.5969  160.6554 H   0  0  0  0  0  0  0  0  0  0  0  0
  193.5341  185.2696  160.1853 H   0  0  0  0  0  0  0  0  0  0  0  0
  193.6982  183.1102  158.9957 H   0  0  0  0  0  0  0  0  0  0  0  0
  195.1021  182.3302  156.2094 H   0  0  0  0  0  0  0  0  0  0  0  0
  1  2  1  0
  1  6  2  0
  2  3  2  0
  2 30  1  0
  3  4  1  0
  3  7  1  0
  4  5  2  0
  4 31  1  0
  5  6  1  0
  5 32  1  0
  6 33  1  0
  7  8  2  0
  7 17  1  0
  8  9  1  0
  9 10  1  0
  9 16  1  0
 10 11  2  0
 10 15  1  0
 11 12  1  0
 11 34  1  0
 12 13  2  0
 12 35  1  0
 13 14  1  0
 13 36  1  0
 14 15  2  0
 14 37  1  0
 15 38  1  0
 16 17  2  0
 16 39  1  0
 17 18  1  0
 18 19  1  0
 18 40  1  6
 18 41  1  0
 19 20  1  0
 19 29  1  1
 19 52  1  0
 20 21  1  0
 20 42  1  6
 20 43  1  0
 21 22  1  0
 21 28  2  0
 22 23  1  0
 22 25  2  0
 23 24  1  0
 23 44  1  0
 24 45  1  6
 24 46  1  0
 24 47  1  0
 25 26  1  0
 25 48  1  0
 26 27  2  0
 26 49  1  0
 27 28  1  0
 27 50  1  0
 28 51  1  0
M  CHG  1  19   1
M  END
>  <s_epik_cmdline>  (568) 
J2VwaWtfcHl0aG9uJywgJy1waCcsICc3LjAwMDAwMCcsICctcGh0JywgJzIuMDAwMDAwJywgJy1tcycsICcxNicsICctdG4nLCAnOCcsICctbWEnLCAnMjAwJywgJy1pbWFlJywgJzxpbmZpbGUubWFlPicsICctb21hZScsICc8b3V0ZmlsZS5tYWU+Jw==

>  <s_epik_input>  (568) 
W2NIXTFbY0hdW2NIXW5bY0hdYzEtYzJubigtYzNbY0hdW2NIXVtjSF1bY0hdW2NIXTMpW2NIXWMyW0NIMl1bTkhdW0NIMl1jNGMoW05IXVtDSDNdKVtjSF1bY0hdW2NIXVtjSF00

>  <s_i_glide_gridfile>  (568) 
ATP-Grid

>  <s_lp_Force_Field>  (568) 
OPLS_2005

>  <s_lp_Variant>  (568) 
m_270004bbb____23868216____7547738-1

>  <s_lp_label>  (568) 
802_sdstereoexpander_1_neutralizer_1_epik_1_stereoizer_1

>  <s_m_source_file>  (568) 
ATP-VSW-LIGPREP-003-in.maegz

>  <s_sd_BIOSOLVEIT.INFINISEE\_QUERY\_NAME>  (568) 
Ref-Lig

>  <s_sd_BIOSOLVEIT.INFINISEE\_QUERY\_SMILES>  (568) 
S(c1nc2c(cc1C[NH2+]Cc3ccc(cc3)C[NH+](C)C)cccc2)Cc4ccccc4

>  <s_sd_BIOSOLVEIT.INFINISEE\_REACTION\_NAME>  (568) 
m_270004bbb

>  <s_sd_BIOSOLVEIT.INFINISEE\_REAGENT1\_SMILES>  (568) 
[R1*]NCc1c(NC)cccc1

>  <s_sd_BIOSOLVEIT.INFINISEE\_REAGENT2\_SMILES>  (568) 
[R1*]CC=1C(=NN(c2ccccc2)C1)c3cnccc3

>  <s_sd_BIOSOLVEIT.INFINISEE\_SPACE>  (568) 
REALSpace_44bn_2023-08

>  <s_vsw_compound_code>  (568) 
25635

>  <s_vsw_variant>  (568) 
25635-1

>  <r_epik_Charging_Adjusted_Penalty>  (568) 
0.150878377195796

>  <r_epik_Ionization_Penalty>  (568) 
0.0785

>  <r_epik_Ionization_Penalty_Charging>  (568) 
0.075399999999999995

>  <r_epik_Ionization_Penalty_Neutral>  (568) 
0.0030999999999999999

>  <r_epik_State_Penalty>  (568) 
0.075399999999999995

>  <r_i_docking_score>  (568) 
-5.1415472799939899

>  <r_i_glide_ecoul>  (568) 
-11.6377658843994

>  <r_i_glide_eff_state_penalty>  (568) 
0.075399999999999995

>  <r_i_glide_einternal>  (568) 
3.1165347099304199

>  <r_i_glide_emodel>  (568) 
-62.1502316701078

>  <r_i_glide_energy>  (568) 
-42.674329757690401

>  <r_i_glide_erotb>  (568) 
0.843396935618275

>  <r_i_glide_esite>  (568) 
-0.097758839298384595

>  <r_i_glide_evdw>  (568) 
-31.036563873291001

>  <r_i_glide_gscore>  (568) 
-5.21694727999399

>  <r_i_glide_hbond>  (568) 
-0.20000000000000001

>  <r_i_glide_ligand_efficiency>  (568) 
-0.183626688571214

>  <r_i_glide_ligand_efficiency_ln>  (568) 
-1.18682007461048

>  <r_i_glide_ligand_efficiency_sa>  (568) 
-0.55759877683805104

>  <r_i_glide_lipo>  (568) 
-1.5819342999894199

>  <r_i_glide_metal>  (568) 
-0

>  <r_i_glide_rewards>  (568) 
-0.883157999999999

>  <r_lp_Energy>  (568) 
17.689032999999998

>  <r_lp_tautomer_probability>  (568) 
1

>  <r_qp_ACxDN^.5/SA>  (568) 
0.0099430000000000004

>  <r_qp_CIQPlogS>  (568) 
-4.9880000000000004

>  <r_qp_EA(eV)>  (568) 
0.63500000000000001

>  <r_qp_FISA>  (568) 
52.478999999999999

>  <r_qp_FOSA>  (568) 
145.24700000000001

>  <r_qp_IP(eV)>  (568) 
7.9359999999999999

>  <r_qp_Jm>  (568) 
0.0118598854338853

>  <r_qp_PISA>  (568) 
513.43799999999999

>  <r_qp_PSA>  (568) 
52.610999999999997

>  <r_qp_PercentHumanOralAbsorption>  (568) 
100

>  <r_qp_QPPCaco>  (568) 
785.49000000000001

>  <r_qp_QPPMDCK>  (568) 
421.589

>  <r_qp_QPlogBB>  (568) 
0.108

>  <r_qp_QPlogHERG>  (568) 
-8.016

>  <r_qp_QPlogKhsa>  (568) 
0.80300000000000005

>  <r_qp_QPlogKp>  (568) 
-2.2610000000000001

>  <r_qp_QPlogPC16>  (568) 
14.465999999999999

>  <r_qp_QPlogPo/w>  (568) 
4.6660000000000004

>  <r_qp_QPlogPoct>  (568) 
21.183

>  <r_qp_QPlogPw>  (568) 
12.031000000000001

>  <r_qp_QPlogS>  (568) 
-5.2329999999999997

>  <r_qp_QPpolrz>  (568) 
46.170000000000002

>  <r_qp_SASA>  (568) 
711.16300000000001

>  <r_qp_SAamideO>  (568) 
0

>  <r_qp_SAfluorine>  (568) 
0

>  <r_qp_WPSA>  (568) 
0

>  <r_qp_accptHB>  (568) 
5

>  <r_qp_dip^2/V>  (568) 
0.021754200000000001

>  <r_qp_dipole>  (568) 
5.2460000000000004

>  <r_qp_donorHB>  (568) 
2

>  <r_qp_glob>  (568) 
0.7954717

>  <r_qp_mol_MW>  (568) 
369.46800000000002

>  <r_qp_volume>  (568) 
1265.155

>  <r_sd_BIOSOLVEIT.INFINISEE\_FTREES\_SIMILARITY>  (568) 
0.92300000000000004

>  <r_sd_BIOSOLVEIT.LOGP>  (568) 
3.2395999999999998

>  <r_sd_BIOSOLVEIT.MOLECULAR\_WEIGHT>  (568) 
370.47800000000001

>  <r_sd_BIOSOLVEIT.TPSA>  (568) 
59.350000000000001

>  <i_epik_Tot_Q>  (568) 
1

>  <i_epik_Tot_abs_Q>  (568) 
1

>  <i_f3d_flags>  (568) 
0

>  <i_i_glide_confnum>  (568) 
3

>  <i_i_glide_lignum>  (568) 
327

>  <i_i_glide_posenum>  (568) 
17

>  <i_i_glide_rotatable_bonds>  (568) 
7

>  <i_lp_mmshare_version>  (568) 
65135

>  <i_m_ct_format>  (568) 
2

>  <i_m_source_file_index>  (568) 
802

>  <i_qp_#NandO>  (568) 
5

>  <i_qp_#acid>  (568) 
0

>  <i_qp_#amide>  (568) 
0

>  <i_qp_#amidine>  (568) 
0

>  <i_qp_#amine>  (568) 
1

>  <i_qp_#in34>  (568) 
0

>  <i_qp_#in56>  (568) 
23

>  <i_qp_#metab>  (568) 
9

>  <i_qp_#nonHatm>  (568) 
28

>  <i_qp_#noncon>  (568) 
0

>  <i_qp_#ringatoms>  (568) 
23

>  <i_qp_#rotor>  (568) 
5

>  <i_qp_#rtvFG>  (568) 
0

>  <i_qp_#stars>  (568) 
2

>  <i_qp_CNS>  (568) 
1

>  <i_qp_HumanOralAbsorption>  (568) 
3

>  <i_qp_RuleOfFive>  (568) 
0

>  <i_qp_RuleOfThree>  (568) 
1

>  <i_sd_BIOSOLVEIT.INFINISEE\_REAGENT1\_NAME>  (568) 
23868216

>  <i_sd_BIOSOLVEIT.INFINISEE\_REAGENT2\_NAME>  (568) 
7547738

>  <i_sd_BIOSOLVEIT.INFINISEE\_RESULT\_RANK>  (568) 
11440

>  <i_sd_version>  (568) 
0

>  <b_lp_Chiralities_Consistent>  (568) 
1

>  <b_sd_chiral_flag>  (568) 
0

>  <canonical_id>  (568) 
ATP-HTVS-5801E8FB792E

>  <compound_code>  (568) 
25635

>  <title>  (568) 
m_270004bbb____23868216____7547738

>  <variant>  (568) 
25635-1

>  <source_file>  (568) 
运行/运行/ATP-VSW/ATP-VSW-DOCK_HTVS_1-003_lib/ATP-VSW-DOCK_HTVS_1-003_lib.mae

>  <canonical_smiles>  (568) 
CNc1ccccc1C[NH2+]Cc1cn(-c2ccccc2)nc1-c1cccnc1

>  <scaffold>  (568) 
c1ccc(C[NH2+]Cc2cn(-c3ccccc3)nc2-c2cccnc2)cc1

>  <molecular_formula>  (568) 
C23H24N5+

$$$$
ATP-HTVS-5850FC4068A9
     RDKit          3D

 53 55  0  0  0  0  0  0  0  0999 V2000
  196.9977  179.5715  150.1789 S   0  0  0  0  0  0  0  0  0  0  0  0
  198.4426  179.1313  151.0521 C   0  0  0  0  0  0  0  0  0  0  0  0
  198.4810  179.7444  152.2813 C   0  0  0  0  0  0  0  0  0  0  0  0
  197.3570  180.5947  152.5272 C   0  0  0  0  0  0  0  0  0  0  0  0
  197.1940  181.3288  153.7175 N   0  0  0  0  0  0  0  0  0  0  0  0
  198.3036  181.6240  154.6142 C   0  0  1  0  0  0  0  0  0  0  0  0
  197.8889  182.4132  155.8446 C   0  0  0  0  0  0  0  0  0  0  0  0
  196.8988  181.9044  156.7045 C   0  0  0  0  0  0  0  0  0  0  0  0
  196.4900  182.6445  157.8366 C   0  0  0  0  0  0  0  0  0  0  0  0
  197.0973  183.8839  158.1248 C   0  0  0  0  0  0  0  0  0  0  0  0
  198.1064  184.3810  157.2777 C   0  0  0  0  0  0  0  0  0  0  0  0
  198.4970  183.6490  156.1383 C   0  0  0  0  0  0  0  0  0  0  0  0
  195.3969  182.1014  158.7280 C   0  0  1  0  0  0  0  0  0  0  0  0
  194.0631  182.3545  158.1366 N   0  0  2  0  0  0  0  0  0  0  0  0
  193.4631  183.6213  158.6125 C   0  0  2  0  0  0  0  0  0  0  0  0
  193.1465  181.2077  158.2617 C   0  0  2  0  0  0  0  0  0  0  0  0
  196.4720  180.6033  151.4813 C   0  0  0  0  0  0  0  0  0  0  0  0
  199.4536  178.1986  150.4587 C   0  0  1  0  0  0  0  0  0  0  0  0
  199.4518  176.8517  151.1745 C   0  0  0  0  0  0  0  0  0  0  0  0
  198.5199  176.0698  150.9725 O   0  0  0  0  0  0  0  0  0  0  0  0
  200.4727  176.6061  152.0173 N   0  0  0  0  0  0  0  0  0  0  0  0
  200.7449  175.3759  152.6852 C   0  0  0  0  0  0  0  0  0  0  0  0
  200.4482  174.1248  152.0887 C   0  0  0  0  0  0  0  0  0  0  0  0
  200.7517  172.9241  152.7499 C   0  0  0  0  0  0  0  0  0  0  0  0
  200.4649  171.7424  152.1515 F   0  0  0  0  0  0  0  0  0  0  0  0
  201.3674  172.9576  154.0103 C   0  0  0  0  0  0  0  0  0  0  0  0
  201.6792  174.1958  154.6098 C   0  0  0  0  0  0  0  0  0  0  0  0
  201.3734  175.4039  153.9458 C   0  0  0  0  0  0  0  0  0  0  0  0
  199.2786  179.6025  152.9951 H   0  0  0  0  0  0  0  0  0  0  0  0
  196.3883  181.9316  153.8111 H   0  0  0  0  0  0  0  0  0  0  0  0
  198.7862  180.6975  154.9373 H   0  0  0  0  0  0  0  0  0  0  0  0
  199.0535  182.1886  154.0608 H   0  0  0  0  0  0  0  0  0  0  0  0
  196.4589  180.9379  156.4996 H   0  0  0  0  0  0  0  0  0  0  0  0
  196.7984  184.4564  158.9906 H   0  0  0  0  0  0  0  0  0  0  0  0
  198.5777  185.3258  157.5020 H   0  0  0  0  0  0  0  0  0  0  0  0
  199.2718  184.0466  155.4991 H   0  0  0  0  0  0  0  0  0  0  0  0
  195.5793  181.0461  158.8974 H   0  0  0  0  0  0  0  0  0  0  0  0
  195.4706  182.5403  159.7286 H   0  0  0  0  0  0  0  0  0  0  0  0
  193.3233  183.6472  159.6943 H   0  0  0  0  0  0  0  0  0  0  0  0
  192.4884  183.7439  158.1501 H   0  0  0  0  0  0  0  0  0  0  0  0
  194.0820  184.4838  158.3574 H   0  0  0  0  0  0  0  0  0  0  0  0
  192.9258  181.0005  159.3115 H   0  0  0  0  0  0  0  0  0  0  0  0
  193.5662  180.3015  157.8225 H   0  0  0  0  0  0  0  0  0  0  0  0
  192.2143  181.4044  157.7303 H   0  0  0  0  0  0  0  0  0  0  0  0
  195.5482  181.1474  151.3900 H   0  0  0  0  0  0  0  0  0  0  0  0
  199.2450  178.0272  149.3999 H   0  0  0  0  0  0  0  0  0  0  0  0
  200.4478  178.6475  150.5048 H   0  0  0  0  0  0  0  0  0  0  0  0
  201.1082  177.3672  152.2073 H   0  0  0  0  0  0  0  0  0  0  0  0
  200.0079  174.0510  151.1060 H   0  0  0  0  0  0  0  0  0  0  0  0
  201.6080  172.0276  154.5102 H   0  0  0  0  0  0  0  0  0  0  0  0
  202.1535  174.2116  155.5803 H   0  0  0  0  0  0  0  0  0  0  0  0
  201.6169  176.3514  154.4083 H   0  0  0  0  0  0  0  0  0  0  0  0
  194.1567  182.4830  157.1243 H   0  0  0  0  0  0  0  0  0  0  0  0
  1  2  1  0
  1 17  1  0
  2  3  2  0
  2 18  1  0
  3  4  1  0
  3 29  1  0
  4  5  1  0
  4 17  2  0
  5  6  1  0
  5 30  1  0
  6  7  1  0
  6 31  1  1
  6 32  1  0
  7  8  2  0
  7 12  1  0
  8  9  1  0
  8 33  1  0
  9 10  2  0
  9 13  1  0
 10 11  1  0
 10 34  1  0
 11 12  2  0
 11 35  1  0
 12 36  1  0
 13 14  1  0
 13 37  1  1
 13 38  1  0
 14 15  1  0
 14 16  1  0
 14 53  1  6
 15 39  1  1
 15 40  1  0
 15 41  1  0
 16 42  1  1
 16 43  1  0
 16 44  1  0
 17 45  1  0
 18 19  1  0
 18 46  1  6
 18 47  1  0
 19 20  2  0
 19 21  1  0
 21 22  1  0
 21 48  1  0
 22 23  1  0
 22 28  2  0
 23 24  2  0
 23 49  1  0
 24 25  1  0
 24 26  1  0
 26 27  2  0
 26 50  1  0
 27 28  1  0
 27 51  1  0
 28 52  1  0
M  CHG  1  14   1
M  END
>  <s_epik_cmdline>  (569) 
J2VwaWtfcHl0aG9uJywgJy1waCcsICc3LjAwMDAwMCcsICctcGh0JywgJzIuMDAwMDAwJywgJy1tcycsICcxNicsICctdG4nLCAnOCcsICctbWEnLCAnMjAwJywgJy1pbWFlJywgJzxpbmZpbGUubWFlPicsICctb21hZScsICc8b3V0ZmlsZS5tYWU+Jw==

>  <s_epik_input>  (569) 
W2NIXTFbY0hdW2NIXWMoRilbY0hdYzFbTkhdQyg9TylbQ0gyXWMyc1tjSF1jKFtjSF0yKVtOSF1bQ0gyXWMzW2NIXWMoW2NIXVtjSF1bY0hdMylbQ0gyXU4oW0NIM10pW0NIM10=

>  <s_i_glide_gridfile>  (569) 
ATP-Grid

>  <s_lp_Force_Field>  (569) 
OPLS_2005

>  <s_lp_Variant>  (569) 
rxn512b____EMOL511441____EMOL15801711____EMOL2873214-1

>  <s_lp_label>  (569) 
2805_sdstereoexpander_1_neutralizer_1_epik_1_stereoizer_1

>  <s_m_source_file>  (569) 
ATP-VSW-LIGPREP-001-in.maegz

>  <s_sd_BIOSOLVEIT.INFINISEE\_QUERY\_NAME>  (569) 
Ref-Lig

>  <s_sd_BIOSOLVEIT.INFINISEE\_QUERY\_SMILES>  (569) 
S(c1nc2c(cc1C[NH2+]Cc3ccc(cc3)C[NH+](C)C)cccc2)Cc4ccccc4

>  <s_sd_BIOSOLVEIT.INFINISEE\_REACTION\_NAME>  (569) 
rxn512b

>  <s_sd_BIOSOLVEIT.INFINISEE\_REAGENT1\_NAME>  (569) 
EMOL511441

>  <s_sd_BIOSOLVEIT.INFINISEE\_REAGENT1\_SMILES>  (569) 
Fc1cc(N)ccc1

>  <s_sd_BIOSOLVEIT.INFINISEE\_REAGENT2\_NAME>  (569) 
EMOL15801711

>  <s_sd_BIOSOLVEIT.INFINISEE\_REAGENT2\_SMILES>  (569) 
BrC1=CSC(=C1)CC(=O)O

>  <s_sd_BIOSOLVEIT.INFINISEE\_REAGENT3\_NAME>  (569) 
EMOL2873214

>  <s_sd_BIOSOLVEIT.INFINISEE\_REAGENT3\_SMILES>  (569) 
N(Cc1cc(ccc1)CN)(C)C

>  <s_sd_BIOSOLVEIT.INFINISEE\_SPACE>  (569) 
eXplore_7tr_2022-12

>  <s_vsw_compound_code>  (569) 
89729

>  <s_vsw_variant>  (569) 
89729-1

>  <r_epik_Charging_Adjusted_Penalty>  (569) 
0.086140609825027206

>  <r_epik_Ionization_Penalty>  (569) 
0.043099999999999999

>  <r_epik_Ionization_Penalty_Charging>  (569) 
0.043099999999999999

>  <r_epik_Ionization_Penalty_Neutral>  (569) 
0

>  <r_epik_State_Penalty>  (569) 
0.043099999999999999

>  <r_i_docking_score>  (569) 
-4.5027398270711299

>  <r_i_glide_ecoul>  (569) 
-10.725170135498001

>  <r_i_glide_eff_state_penalty>  (569) 
0.043099999999999999

>  <r_i_glide_einternal>  (569) 
4.9284038543701199

>  <r_i_glide_emodel>  (569) 
-60.257706793498102

>  <r_i_glide_energy>  (569) 
-45.199485778808601

>  <r_i_glide_erotb>  (569) 
0.86324828570185597

>  <r_i_glide_esite>  (569) 
-0.207012171037119

>  <r_i_glide_evdw>  (569) 
-34.474315643310497

>  <r_i_glide_gscore>  (569) 
-4.5458398270711298

>  <r_i_glide_hbond>  (569) 
-0.20000000000000001

>  <r_i_glide_ligand_efficiency>  (569) 
-0.16081213668111199

>  <r_i_glide_ligand_efficiency_ln>  (569) 
-1.03936455827406

>  <r_i_glide_ligand_efficiency_sa>  (569) 
-0.48832036024723202

>  <r_i_glide_lipo>  (569) 
-0.85205852823499995

>  <r_i_glide_metal>  (569) 
-0

>  <r_i_glide_rewards>  (569) 
-0.81752611101063499

>  <r_lp_Energy>  (569) 
18.906599

>  <r_lp_tautomer_probability>  (569) 
0.99999274205267796

>  <r_qp_ACxDN^.5/SA>  (569) 
0.0112201

>  <r_qp_CIQPlogS>  (569) 
-3.9540000000000002

>  <r_qp_EA(eV)>  (569) 
0.309

>  <r_qp_FISA>  (569) 
61.939999999999998

>  <r_qp_FOSA>  (569) 
221.68899999999999

>  <r_qp_IP(eV)>  (569) 
8.2319999999999993

>  <r_qp_Jm>  (569) 
0.0020484827872464099

>  <r_qp_PISA>  (569) 
325.678

>  <r_qp_PSA>  (569) 
53.994

>  <r_qp_PercentHumanOralAbsorption>  (569) 
89.924999999999997

>  <r_qp_QPPCaco>  (569) 
159.339

>  <r_qp_QPPMDCK>  (569) 
239.703

>  <r_qp_QPlogBB>  (569) 
0.46800000000000003

>  <r_qp_QPlogHERG>  (569) 
-7.4749999999999996

>  <r_qp_QPlogKhsa>  (569) 
0.61299999999999999

>  <r_qp_QPlogKp>  (569) 
-4.8710000000000004

>  <r_qp_QPlogPC16>  (569) 
13.170999999999999

>  <r_qp_QPlogPo/w>  (569) 
4.024

>  <r_qp_QPlogPoct>  (569) 
20.469999999999999

>  <r_qp_QPlogPw>  (569) 
10.635

>  <r_qp_QPlogS>  (569) 
-3.4169999999999998

>  <r_qp_QPpolrz>  (569) 
42.677

>  <r_qp_SASA>  (569) 
693.23500000000001

>  <r_qp_SAamideO>  (569) 
0

>  <r_qp_SAfluorine>  (569) 
46.973999999999997

>  <r_qp_WPSA>  (569) 
83.927999999999997

>  <r_qp_accptHB>  (569) 
5.5

>  <r_qp_dip^2/V>  (569) 
0.027606100000000001

>  <r_qp_dipole>  (569) 
5.923

>  <r_qp_donorHB>  (569) 
2

>  <r_qp_glob>  (569) 
0.81846890000000005

>  <r_qp_mol_MW>  (569) 
397.50900000000001

>  <r_qp_volume>  (569) 
1270.797

>  <r_sd_BIOSOLVEIT.INFINISEE\_FTREES\_SIMILARITY>  (569) 
0.90600000000000003

>  <r_sd_BIOSOLVEIT.LOGP>  (569) 
3.3250000000000002

>  <r_sd_BIOSOLVEIT.MOLECULAR\_WEIGHT>  (569) 
398.52300000000002

>  <r_sd_BIOSOLVEIT.TPSA>  (569) 
45.57

>  <i_epik_Tot_Q>  (569) 
1

>  <i_epik_Tot_abs_Q>  (569) 
1

>  <i_f3d_flags>  (569) 
0

>  <i_i_glide_confnum>  (569) 
8

>  <i_i_glide_lignum>  (569) 
1279

>  <i_i_glide_posenum>  (569) 
8

>  <i_i_glide_rotatable_bonds>  (569) 
9

>  <i_lp_mmshare_version>  (569) 
65135

>  <i_m_ct_format>  (569) 
2

>  <i_m_source_file_index>  (569) 
2805

>  <i_qp_#NandO>  (569) 
4

>  <i_qp_#acid>  (569) 
0

>  <i_qp_#amide>  (569) 
0

>  <i_qp_#amidine>  (569) 
0

>  <i_qp_#amine>  (569) 
2

>  <i_qp_#in34>  (569) 
0

>  <i_qp_#in56>  (569) 
17

>  <i_qp_#metab>  (569) 
7

>  <i_qp_#nonHatm>  (569) 
28

>  <i_qp_#noncon>  (569) 
0

>  <i_qp_#ringatoms>  (569) 
17

>  <i_qp_#rotor>  (569) 
8

>  <i_qp_#rtvFG>  (569) 
0

>  <i_qp_#stars>  (569) 
0

>  <i_qp_CNS>  (569) 
2

>  <i_qp_HumanOralAbsorption>  (569) 
3

>  <i_qp_RuleOfFive>  (569) 
0

>  <i_qp_RuleOfThree>  (569) 
1

>  <i_sd_BIOSOLVEIT.INFINISEE\_RESULT\_RANK>  (569) 
64055

>  <i_sd_version>  (569) 
0

>  <b_lp_Chiralities_Consistent>  (569) 
1

>  <b_sd_chiral_flag>  (569) 
0

>  <canonical_id>  (569) 
ATP-HTVS-5850FC4068A9

>  <compound_code>  (569) 
89729

>  <title>  (569) 
rxn512b____EMOL511441____EMOL15801711____EMOL2873214

>  <variant>  (569) 
89729-1

>  <source_file>  (569) 
运行/运行/ATP-VSW/ATP-VSW-DOCK_HTVS_1-001_lib/ATP-VSW-DOCK_HTVS_1-001_lib

>  <canonical_smiles>  (569) 
C[NH+](C)Cc1cccc(CNc2csc(CC(=O)Nc3cccc(F)c3)c2)c1

>  <scaffold>  (569) 
O=C(Cc1cc(NCc2ccccc2)cs1)Nc1ccccc1

>  <molecular_formula>  (569) 
C22H25FN3OS+

$$$$
ATP-HTVS-586B19FEBC2D
     RDKit          3D

 63 66  0  0  0  0  0  0  0  0999 V2000
  196.4839  187.4283  159.2944 O   0  0  0  0  0  0  0  0  0  0  0  0
  197.5141  186.8299  158.9991 N   0  0  0  0  0  0  0  0  0  0  0  0
  198.6303  187.3355  159.0477 O   0  0  0  0  0  0  0  0  0  0  0  0
  197.4027  185.4261  158.5547 C   0  0  0  0  0  0  0  0  0  0  0  0
  196.1396  184.8009  158.4472 C   0  0  0  0  0  0  0  0  0  0  0  0
  196.0346  183.4731  157.9796 C   0  0  0  0  0  0  0  0  0  0  0  0
  197.1886  182.7529  157.6174 C   0  0  0  0  0  0  0  0  0  0  0  0
  198.4557  183.3618  157.7594 C   0  0  0  0  0  0  0  0  0  0  0  0
  198.5602  184.6869  158.2137 C   0  0  0  0  0  0  0  0  0  0  0  0
  197.0766  181.3425  157.0566 C   0  0  1  0  0  0  0  0  0  0  0  0
  197.7091  181.1958  155.6687 C   0  0  0  0  0  0  0  0  0  0  0  0
  197.7713  182.1639  154.9038 O   0  0  0  0  0  0  0  0  0  0  0  0
  198.1630  179.9760  155.3368 N   0  0  0  0  0  0  0  0  0  0  0  0
  198.8642  179.6694  154.1358 C   0  0  0  0  0  0  0  0  0  0  0  0
  200.2655  179.4059  154.1929 C   0  0  0  0  0  0  0  0  0  0  0  0
  200.9665  179.4414  155.4108 N   0  0  0  0  0  0  0  0  0  0  0  0
  202.2775  178.7895  155.4725 C   0  0  1  0  0  0  0  0  0  0  0  0
  202.2591  177.2908  155.2244 C   0  0  0  0  0  0  0  0  0  0  0  0
  203.3699  176.6809  154.5855 C   0  0  0  0  0  0  0  0  0  0  0  0
  203.4140  175.2981  154.4244 C   0  0  0  0  0  0  0  0  0  0  0  0
  202.2928  174.5090  154.7786 C   0  0  0  0  0  0  0  0  0  0  0  0
  201.1931  175.1103  155.4058 C   0  0  0  0  0  0  0  0  0  0  0  0
  201.1662  176.4991  155.6288 C   0  0  0  0  0  0  0  0  0  0  0  0
  202.3065  173.0117  154.4996 C   0  0  1  0  0  0  0  0  0  0  0  0
  202.3669  172.6820  153.0513 N   0  0  2  0  0  0  0  0  0  0  0  0
  203.5171  173.2320  152.3154 C   0  0  2  0  0  0  0  0  0  0  0  0
  201.0958  172.8815  152.3313 C   0  0  2  0  0  0  0  0  0  0  0  0
  200.9231  179.1080  152.9807 C   0  0  0  0  0  0  0  0  0  0  0  0
  200.3129  179.0416  151.7889 N   0  0  0  0  0  0  0  0  0  0  0  0
  198.9887  179.2603  151.7246 C   0  0  0  0  0  0  0  0  0  0  0  0
  198.2038  179.5746  152.8736 C   0  0  0  0  0  0  0  0  0  0  0  0
  196.8108  179.7672  152.7275 C   0  0  0  0  0  0  0  0  0  0  0  0
  196.2022  179.6535  151.4619 C   0  0  0  0  0  0  0  0  0  0  0  0
  196.9775  179.3579  150.3308 C   0  0  0  0  0  0  0  0  0  0  0  0
  198.3588  179.1560  150.4695 C   0  0  0  0  0  0  0  0  0  0  0  0
  195.2363  185.3468  158.6837 H   0  0  0  0  0  0  0  0  0  0  0  0
  195.0544  183.0279  157.8714 H   0  0  0  0  0  0  0  0  0  0  0  0
  199.3468  182.8169  157.4895 H   0  0  0  0  0  0  0  0  0  0  0  0
  199.5393  185.1406  158.2730 H   0  0  0  0  0  0  0  0  0  0  0  0
  197.5404  180.6395  157.7482 H   0  0  0  0  0  0  0  0  0  0  0  0
  196.0257  181.0635  156.9781 H   0  0  0  0  0  0  0  0  0  0  0  0
  198.1005  179.2549  156.0491 H   0  0  0  0  0  0  0  0  0  0  0  0
  200.4163  179.3473  156.2545 H   0  0  0  0  0  0  0  0  0  0  0  0
  202.9520  179.2823  154.7672 H   0  0  0  0  0  0  0  0  0  0  0  0
  202.7148  178.9855  156.4510 H   0  0  0  0  0  0  0  0  0  0  0  0
  204.2000  177.2915  154.2672 H   0  0  0  0  0  0  0  0  0  0  0  0
  204.2659  174.8252  153.9587 H   0  0  0  0  0  0  0  0  0  0  0  0
  200.3528  174.5101  155.7100 H   0  0  0  0  0  0  0  0  0  0  0  0
  200.3132  176.9491  156.1275 H   0  0  0  0  0  0  0  0  0  0  0  0
  203.1316  172.5379  155.0364 H   0  0  0  0  0  0  0  0  0  0  0  0
  201.4056  172.5565  154.9116 H   0  0  0  0  0  0  0  0  0  0  0  0
  203.4698  174.3260  152.2836 H   0  0  0  0  0  0  0  0  0  0  0  0
  203.5919  172.8056  151.3160 H   0  0  0  0  0  0  0  0  0  0  0  0
  204.4482  172.9841  152.8125 H   0  0  0  0  0  0  0  0  0  0  0  0
  200.8275  173.9372  152.3181 H   0  0  0  0  0  0  0  0  0  0  0  0
  200.2845  172.3225  152.7900 H   0  0  0  0  0  0  0  0  0  0  0  0
  201.1801  172.5451  151.2979 H   0  0  0  0  0  0  0  0  0  0  0  0
  201.9811  178.8959  152.9250 H   0  0  0  0  0  0  0  0  0  0  0  0
  196.1959  179.9944  153.5843 H   0  0  0  0  0  0  0  0  0  0  0  0
  195.1418  179.7875  151.3615 H   0  0  0  0  0  0  0  0  0  0  0  0
  196.5260  179.2679  149.3534 H   0  0  0  0  0  0  0  0  0  0  0  0
  198.9646  178.9140  149.6051 H   0  0  0  0  0  0  0  0  0  0  0  0
  202.5259  171.6750  153.0850 H   0  0  0  0  0  0  0  0  0  0  0  0
  1  2  1  0
  2  3  2  0
  2  4  1  0
  4  5  1  0
  4  9  2  0
  5  6  2  0
  5 36  1  0
  6  7  1  0
  6 37  1  0
  7  8  2  0
  7 10  1  0
  8  9  1  0
  8 38  1  0
  9 39  1  0
 10 11  1  0
 10 40  1  1
 10 41  1  0
 11 12  2  0
 11 13  1  0
 13 14  1  0
 13 42  1  0
 14 15  2  0
 14 31  1  0
 15 16  1  0
 15 28  1  0
 16 17  1  0
 16 43  1  0
 17 18  1  0
 17 44  1  6
 17 45  1  0
 18 19  1  0
 18 23  2  0
 19 20  2  0
 19 46  1  0
 20 21  1  0
 20 47  1  0
 21 22  2  0
 21 24  1  0
 22 23  1  0
 22 48  1  0
 23 49  1  0
 24 25  1  0
 24 50  1  1
 24 51  1  0
 25 26  1  0
 25 27  1  0
 25 63  1  1
 26 52  1  6
 26 53  1  0
 26 54  1  0
 27 55  1  6
 27 56  1  0
 27 57  1  0
 28 29  2  0
 28 58  1  0
 29 30  1  0
 30 31  1  0
 30 35  2  0
 31 32  2  0
 32 33  1  0
 32 59  1  0
 33 34  2  0
 33 60  1  0
 34 35  1  0
 34 61  1  0
 35 62  1  0
M  CHG  3   1  -1   2   1  25   1
M  END
>  <s_epik_cmdline>  (570) 
J2VwaWtfcHl0aG9uJywgJy1waCcsICc3LjAwMDAwMCcsICctcGh0JywgJzIuMDAwMDAwJywgJy1tcycsICcxNicsICctdG4nLCAnOCcsICctbWEnLCAnMjAwJywgJy1pbWFlJywgJzxpbmZpbGUubWFlPicsICctb21hZScsICc8b3V0ZmlsZS5tYWU+Jw==

>  <s_epik_input>  (570) 
W08tXVtOK10oPU8pYzFbY0hdW2NIXWMoW2NIXVtjSF0xKVtDSDJdQyg9TylbTkhdYyhjKGMyMylbY0hdW2NIXVtjSF1bY0hdMyljKFtjSF1uMilbTkhdW0NIMl1jNFtjSF1bY0hdYyhbY0hdW2NIXTQpW0NIMl1OKFtDSDNdKVtDSDNd

>  <s_i_glide_gridfile>  (570) 
ATP-Grid

>  <s_lp_Force_Field>  (570) 
OPLS_2005

>  <s_lp_Variant>  (570) 
rxn502b____EMOL529866____EMOL13728749____EMOL50155899-1

>  <s_lp_label>  (570) 
2275_sdstereoexpander_1_neutralizer_1_epik_1_stereoizer_1

>  <s_m_source_file>  (570) 
ATP-VSW-LIGPREP-001-in.maegz

>  <s_sd_BIOSOLVEIT.INFINISEE\_QUERY\_NAME>  (570) 
Ref-Lig

>  <s_sd_BIOSOLVEIT.INFINISEE\_QUERY\_SMILES>  (570) 
S(c1nc2c(cc1C[NH2+]Cc3ccc(cc3)C[NH+](C)C)cccc2)Cc4ccccc4

>  <s_sd_BIOSOLVEIT.INFINISEE\_REACTION\_NAME>  (570) 
rxn502b

>  <s_sd_BIOSOLVEIT.INFINISEE\_REAGENT1\_NAME>  (570) 
EMOL529866

>  <s_sd_BIOSOLVEIT.INFINISEE\_REAGENT1\_SMILES>  (570) 
[O-][N+](=O)c1ccc(cc1)CC(=O)O

>  <s_sd_BIOSOLVEIT.INFINISEE\_REAGENT2\_NAME>  (570) 
EMOL13728749

>  <s_sd_BIOSOLVEIT.INFINISEE\_REAGENT2\_SMILES>  (570) 
Brc1c(N)c2c(nc1)cccc2

>  <s_sd_BIOSOLVEIT.INFINISEE\_REAGENT3\_NAME>  (570) 
EMOL50155899

>  <s_sd_BIOSOLVEIT.INFINISEE\_REAGENT3\_SMILES>  (570) 
N(Cc1ccc(cc1)CN)(C)C

>  <s_sd_BIOSOLVEIT.INFINISEE\_SPACE>  (570) 
eXplore_7tr_2022-12

>  <s_vsw_compound_code>  (570) 
72769

>  <s_vsw_variant>  (570) 
72769-1

>  <r_epik_Charging_Adjusted_Penalty>  (570) 
0.092186902909101504

>  <r_epik_Ionization_Penalty>  (570) 
0.052999999999999999

>  <r_epik_Ionization_Penalty_Charging>  (570) 
0.039199999999999999

>  <r_epik_Ionization_Penalty_Neutral>  (570) 
0.0138

>  <r_epik_State_Penalty>  (570) 
0.052999999999999999

>  <r_i_docking_score>  (570) 
-4.9086070487704196

>  <r_i_glide_ecoul>  (570) 
-10.6262474060059

>  <r_i_glide_eff_state_penalty>  (570) 
0.052999999999999999

>  <r_i_glide_einternal>  (570) 
6.1105933189392099

>  <r_i_glide_emodel>  (570) 
-60.316575694135601

>  <r_i_glide_energy>  (570) 
-45.287624359130902

>  <r_i_glide_erotb>  (570) 
0.73007673240422

>  <r_i_glide_esite>  (570) 
-0.19956933399618701

>  <r_i_glide_evdw>  (570) 
-34.661376953125

>  <r_i_glide_gscore>  (570) 
-4.9616070487704196

>  <r_i_glide_hbond>  (570) 
-0.19311677866429799

>  <r_i_glide_ligand_efficiency>  (570) 
-0.14024591567915501

>  <r_i_glide_ligand_efficiency_ln>  (570) 
-1.0775481878689901

>  <r_i_glide_ligand_efficiency_sa>  (570) 
-0.45875368937595601

>  <r_i_glide_lipo>  (570) 
-1.3768480951152999

>  <r_i_glide_metal>  (570) 
-0

>  <r_i_glide_rewards>  (570) 
-0.59514361484171696

>  <r_lp_Energy>  (570) 
33.633378

>  <r_qp_ACxDN^.5/SA>  (570) 
0.0141166

>  <r_qp_CIQPlogS>  (570) 
-5.9779999999999998

>  <r_qp_EA(eV)>  (570) 
1.4099999999999999

>  <r_qp_FISA>  (570) 
154.66

>  <r_qp_FOSA>  (570) 
238.536

>  <r_qp_IP(eV)>  (570) 
8.718

>  <r_qp_Jm>  (570) 
0.00081912823702765404

>  <r_qp_PISA>  (570) 
358.16199999999998

>  <r_qp_PSA>  (570) 
103.79300000000001

>  <r_qp_PercentHumanOralAbsorption>  (570) 
84.771000000000001

>  <r_qp_QPPCaco>  (570) 
84.364000000000004

>  <r_qp_QPPMDCK>  (570) 
37.804000000000002

>  <r_qp_QPlogBB>  (570) 
-1.089

>  <r_qp_QPlogHERG>  (570) 
-6.7699999999999996

>  <r_qp_QPlogKhsa>  (570) 
0.69799999999999995

>  <r_qp_QPlogKp>  (570) 
-4.3070000000000004

>  <r_qp_QPlogPC16>  (570) 
15.741

>  <r_qp_QPlogPo/w>  (570) 
3.988

>  <r_qp_QPlogPoct>  (570) 
24.372

>  <r_qp_QPlogPw>  (570) 
13.347

>  <r_qp_QPlogS>  (570) 
-4.452

>  <r_qp_QPpolrz>  (570) 
49.744999999999997

>  <r_qp_SASA>  (570) 
751.35799999999995

>  <r_qp_SAamideO>  (570) 
0

>  <r_qp_SAfluorine>  (570) 
0

>  <r_qp_WPSA>  (570) 
0

>  <r_qp_accptHB>  (570) 
7.5

>  <r_qp_dip^2/V>  (570) 
0.040314099999999999

>  <r_qp_dipole>  (570) 
7.6609999999999996

>  <r_qp_donorHB>  (570) 
2

>  <r_qp_glob>  (570) 
0.8267352

>  <r_qp_mol_MW>  (570) 
469.54199999999997

>  <r_qp_volume>  (570) 
1455.702

>  <r_sd_BIOSOLVEIT.INFINISEE\_FTREES\_SIMILARITY>  (570) 
0.92400000000000004

>  <r_sd_BIOSOLVEIT.LOGP>  (570) 
3.5808

>  <r_sd_BIOSOLVEIT.MOLECULAR\_WEIGHT>  (570) 
470.55000000000001

>  <r_sd_BIOSOLVEIT.TPSA>  (570) 
104.28

>  <i_epik_Tot_Q>  (570) 
1

>  <i_epik_Tot_abs_Q>  (570) 
3

>  <i_f3d_flags>  (570) 
0

>  <i_i_glide_confnum>  (570) 
9

>  <i_i_glide_lignum>  (570) 
800

>  <i_i_glide_posenum>  (570) 
16

>  <i_i_glide_rotatable_bonds>  (570) 
10

>  <i_lp_mmshare_version>  (570) 
65135

>  <i_m_ct_format>  (570) 
2

>  <i_m_source_file_index>  (570) 
2275

>  <i_qp_#NandO>  (570) 
8

>  <i_qp_#acid>  (570) 
0

>  <i_qp_#amide>  (570) 
0

>  <i_qp_#amidine>  (570) 
0

>  <i_qp_#amine>  (570) 
1

>  <i_qp_#in34>  (570) 
0

>  <i_qp_#in56>  (570) 
22

>  <i_qp_#metab>  (570) 
8

>  <i_qp_#nonHatm>  (570) 
35

>  <i_qp_#noncon>  (570) 
0

>  <i_qp_#ringatoms>  (570) 
22

>  <i_qp_#rotor>  (570) 
9

>  <i_qp_#rtvFG>  (570) 
0

>  <i_qp_#stars>  (570) 
0

>  <i_qp_CNS>  (570) 
-2

>  <i_qp_HumanOralAbsorption>  (570) 
2

>  <i_qp_RuleOfFive>  (570) 
0

>  <i_qp_RuleOfThree>  (570) 
1

>  <i_sd_BIOSOLVEIT.INFINISEE\_RESULT\_RANK>  (570) 
9675

>  <i_sd_version>  (570) 
0

>  <b_lp_Chiralities_Consistent>  (570) 
1

>  <b_sd_chiral_flag>  (570) 
0

>  <canonical_id>  (570) 
ATP-HTVS-586B19FEBC2D

>  <compound_code>  (570) 
72769

>  <title>  (570) 
rxn502b____EMOL529866____EMOL13728749____EMOL50155899

>  <variant>  (570) 
72769-1

>  <source_file>  (570) 
运行/运行/ATP-VSW/ATP-VSW-DOCK_HTVS_1-001_lib/ATP-VSW-DOCK_HTVS_1-001_lib

>  <canonical_smiles>  (570) 
C[NH+](C)Cc1ccc(CNc2cnc3ccccc3c2NC(=O)Cc2ccc([N+](=O)[O-])cc2)cc1

>  <scaffold>  (570) 
O=C(Cc1ccccc1)Nc1c(NCc2ccccc2)cnc2ccccc12

>  <molecular_formula>  (570) 
C27H28N5O3+

$$$$
ATP-HTVS-5890B3ABBA42
     RDKit          3D

 64 67  0  0  0  0  0  0  0  0999 V2000
  198.9467  178.8053  153.4050 F   0  0  0  0  0  0  0  0  0  0  0  0
  199.6541  179.7303  154.1004 C   0  0  0  0  0  0  0  0  0  0  0  0
  199.8203  179.5979  155.4879 C   0  0  0  0  0  0  0  0  0  0  0  0
  200.4027  180.6400  156.2312 C   0  0  0  0  0  0  0  0  0  0  0  0
  200.8096  181.8253  155.5881 C   0  0  0  0  0  0  0  0  0  0  0  0
  200.7085  181.9224  154.1855 C   0  0  0  0  0  0  0  0  0  0  0  0
  200.1327  180.8603  153.4393 C   0  0  0  0  0  0  0  0  0  0  0  0
  201.2958  183.0210  156.3877 C   0  0  1  0  0  0  0  0  0  0  0  0
  200.4739  183.5074  157.5183 N   0  0  0  0  0  0  0  0  0  0  0  0
  199.0959  183.4643  157.6737 C   0  0  0  0  0  0  0  0  0  0  0  0
  198.3795  182.7252  156.8176 N   0  0  0  0  0  0  0  0  0  0  0  0
  197.0224  182.6222  156.9677 C   0  0  0  0  0  0  0  0  0  0  0  0
  196.3100  181.8578  156.0305 N   0  0  0  0  0  0  0  0  0  0  0  0
  196.9372  181.3943  154.8038 C   0  0  1  0  0  0  0  0  0  0  0  0
  197.0693  182.3686  153.6456 C   0  0  0  0  0  0  0  0  0  0  0  0
  197.6377  183.6609  153.8026 C   0  0  0  0  0  0  0  0  0  0  0  0
  197.7834  184.5157  152.7090 C   0  0  0  0  0  0  0  0  0  0  0  0
  197.3583  184.1196  151.4314 C   0  0  0  0  0  0  0  0  0  0  0  0
  197.4717  185.0306  150.3678 N   0  0  0  0  0  0  0  0  0  0  0  0
  196.7311  184.8045  149.1561 C   0  0  2  0  0  0  0  0  0  0  0  0
  196.8121  182.8129  151.2554 C   0  0  0  0  0  0  0  0  0  0  0  0
  196.6807  181.9488  152.3674 C   0  0  0  0  0  0  0  0  0  0  0  0
  196.3813  183.2794  158.0317 C   0  0  0  0  0  0  0  0  0  0  0  0
  197.1893  184.0621  158.8841 C   0  0  0  0  0  0  0  0  0  0  0  0
  198.5298  184.1497  158.6994 N   0  0  0  0  0  0  0  0  0  0  0  0
  196.6136  184.7717  159.9488 C   0  0  0  0  0  0  0  0  0  0  0  0
  195.2059  184.7051  160.1387 C   0  0  0  0  0  0  0  0  0  0  0  0
  194.3983  183.9069  159.2822 C   0  0  0  0  0  0  0  0  0  0  0  0
  194.9995  183.1862  158.2493 C   0  0  0  0  0  0  0  0  0  0  0  0
  199.3351  178.3449  156.2150 C   0  0  1  0  0  0  0  0  0  0  0  0
  200.2871  177.2032  156.1331 N   0  0  1  0  0  0  0  0  0  0  0  0
  200.5428  176.7351  154.7481 C   0  0  2  0  0  0  0  0  0  0  0  0
  201.5542  177.4827  156.8472 C   0  0  2  0  0  0  0  0  0  0  0  0
  200.4831  180.5595  157.3051 H   0  0  0  0  0  0  0  0  0  0  0  0
  200.9409  182.8495  153.6769 H   0  0  0  0  0  0  0  0  0  0  0  0
  199.9602  180.9846  152.3807 H   0  0  0  0  0  0  0  0  0  0  0  0
  202.2660  182.7709  156.8005 H   0  0  0  0  0  0  0  0  0  0  0  0
  201.4577  183.8625  155.7123 H   0  0  0  0  0  0  0  0  0  0  0  0
  200.9561  184.1192  158.1588 H   0  0  0  0  0  0  0  0  0  0  0  0
  195.3065  181.8901  156.0772 H   0  0  0  0  0  0  0  0  0  0  0  0
  197.9691  181.1024  155.0937 H   0  0  0  0  0  0  0  0  0  0  0  0
  196.4583  180.4578  154.4895 H   0  0  0  0  0  0  0  0  0  0  0  0
  198.0171  184.0154  154.7444 H   0  0  0  0  0  0  0  0  0  0  0  0
  198.2150  185.5018  152.8554 H   0  0  0  0  0  0  0  0  0  0  0  0
  197.8609  185.9694  150.5618 H   0  0  0  0  0  0  0  0  0  0  0  0
  196.8265  185.6466  148.4613 H   0  0  0  0  0  0  0  0  0  0  0  0
  195.6724  184.6621  149.3836 H   0  0  0  0  0  0  0  0  0  0  0  0
  197.1046  183.9059  148.6624 H   0  0  0  0  0  0  0  0  0  0  0  0
  196.4834  182.4510  150.2924 H   0  0  0  0  0  0  0  0  0  0  0  0
  196.3099  180.9577  152.2033 H   0  0  0  0  0  0  0  0  0  0  0  0
  197.1978  185.3815  160.6059 H   0  0  0  0  0  0  0  0  0  0  0  0
  194.7327  185.2778  160.9506 H   0  0  0  0  0  0  0  0  0  0  0  0
  193.3221  183.8686  159.4158 H   0  0  0  0  0  0  0  0  0  0  0  0
  194.3796  182.5834  157.6140 H   0  0  0  0  0  0  0  0  0  0  0  0
  199.1842  178.6226  157.2569 H   0  0  0  0  0  0  0  0  0  0  0  0
  198.3454  178.0517  155.8543 H   0  0  0  0  0  0  0  0  0  0  0  0
  201.0685  177.4851  154.1592 H   0  0  0  0  0  0  0  0  0  0  0  0
  199.6008  176.5126  154.2536 H   0  0  0  0  0  0  0  0  0  0  0  0
  201.1718  175.8267  154.7313 H   0  0  0  0  0  0  0  0  0  0  0  0
  202.0624  178.3403  156.4221 H   0  0  0  0  0  0  0  0  0  0  0  0
  202.2225  176.6358  156.7662 H   0  0  0  0  0  0  0  0  0  0  0  0
  201.3810  177.6884  157.9054 H   0  0  0  0  0  0  0  0  0  0  0  0
  199.0698  184.6998  159.3285 H   0  0  0  0  0  0  0  0  0  0  0  0
  199.8342  176.4499  156.6324 H   0  0  0  0  0  0  0  0  0  0  0  0
  1  2  1  0
  2  3  2  0
  2  7  1  0
  3  4  1  0
  3 30  1  0
  4  5  2  0
  4 34  1  0
  5  6  1  0
  5  8  1  0
  6  7  2  0
  6 35  1  0
  7 36  1  0
  8  9  1  0
  8 37  1  1
  8 38  1  0
  9 10  1  0
  9 39  1  0
 10 11  1  0
 10 25  2  0
 11 12  2  0
 12 13  1  0
 12 23  1  0
 13 14  1  0
 13 40  1  0
 14 15  1  0
 14 41  1  1
 14 42  1  0
 15 16  1  0
 15 22  2  0
 16 17  2  0
 16 43  1  0
 17 18  1  0
 17 44  1  0
 18 19  1  0
 18 21  2  0
 19 20  1  0
 19 45  1  0
 20 46  1  6
 20 47  1  0
 20 48  1  0
 21 22  1  0
 21 49  1  0
 22 50  1  0
 23 24  1  0
 23 29  2  0
 24 25  1  0
 24 26  2  0
 25 63  1  0
 26 27  1  0
 26 51  1  0
 27 28  2  0
 27 52  1  0
 28 29  1  0
 28 53  1  0
 29 54  1  0
 30 31  1  0
 30 55  1  1
 30 56  1  0
 31 32  1  0
 31 33  1  0
 31 64  1  1
 32 57  1  6
 32 58  1  0
 32 59  1  0
 33 60  1  6
 33 61  1  0
 33 62  1  0
M  CHG  2  25   1  31   1
M  END
>  <s_epik_cmdline>  (571) 
J2VwaWtfcHl0aG9uJywgJy1waCcsICc3LjAwMDAwMCcsICctcGh0JywgJzIuMDAwMDAwJywgJy1tcycsICcxNicsICctdG4nLCAnOCcsICctbWEnLCAnMjAwJywgJy1pbWFlJywgJzxpbmZpbGUubWFlPicsICctb21hZScsICc8b3V0ZmlsZS5tYWU+Jw==

>  <s_epik_input>  (571) 
W0NIM11OKFtDSDNdKVtDSDJdYyhjMUYpW2NIXWMoW2NIXVtjSF0xKVtDSDJdW05IXWMobmMoYzIzKVtjSF1bY0hdW2NIXVtjSF0zKW5jMltOSF1bQ0gyXWM0W2NIXVtjSF1jKFtOSF1bQ0gzXSlbY0hdW2NIXTQ=

>  <s_i_glide_gridfile>  (571) 
ATP-Grid

>  <s_lp_Force_Field>  (571) 
OPLS_2005

>  <s_lp_Variant>  (571) 
m_282030aaa____21902366____22360182____21968946-1

>  <s_lp_label>  (571) 
1617_sdstereoexpander_1_neutralizer_1_epik_1_stereoizer_1

>  <s_m_source_file>  (571) 
ATP-VSW-LIGPREP-001-in.maegz

>  <s_sd_BIOSOLVEIT.INFINISEE\_QUERY\_NAME>  (571) 
Ref-Lig

>  <s_sd_BIOSOLVEIT.INFINISEE\_QUERY\_SMILES>  (571) 
S(c1nc2c(cc1C[NH2+]Cc3ccc(cc3)C[NH+](C)C)cccc2)Cc4ccccc4

>  <s_sd_BIOSOLVEIT.INFINISEE\_REACTION\_NAME>  (571) 
m_282030aaa

>  <s_sd_BIOSOLVEIT.INFINISEE\_REAGENT1\_SMILES>  (571) 
[R1*]NCc1ccc(NC)cc1

>  <s_sd_BIOSOLVEIT.INFINISEE\_REAGENT2\_SMILES>  (571) 
[R2*]c1nc([R1*])c2c(n1)cccc2

>  <s_sd_BIOSOLVEIT.INFINISEE\_REAGENT3\_SMILES>  (571) 
[R2*]NCc1cc(c(F)cc1)CN(C)C

>  <s_sd_BIOSOLVEIT.INFINISEE\_SPACE>  (571) 
REALSpace_44bn_2023-08

>  <s_vsw_compound_code>  (571) 
51713

>  <s_vsw_variant>  (571) 
51713-1

>  <r_epik_Charging_Adjusted_Penalty>  (571) 
0.166941764304605

>  <r_epik_Ionization_Penalty>  (571) 
0.0969

>  <r_epik_Ionization_Penalty_Charging>  (571) 
0.0683

>  <r_epik_Ionization_Penalty_Neutral>  (571) 
0.0286

>  <r_epik_State_Penalty>  (571) 
0.098599999999999993

>  <r_i_docking_score>  (571) 
-3.9984056774814798

>  <r_i_glide_ecoul>  (571) 
-8.4852399826049805

>  <r_i_glide_eff_state_penalty>  (571) 
0.098599999999999993

>  <r_i_glide_einternal>  (571) 
3.5363292694091801

>  <r_i_glide_emodel>  (571) 
-55.381551141891798

>  <r_i_glide_energy>  (571) 
-40.408486366272001

>  <r_i_glide_erotb>  (571) 
0.70265357449120003

>  <r_i_glide_esite>  (571) 
-0.10555890011362599

>  <r_i_glide_evdw>  (571) 
-31.923246383666999

>  <r_i_glide_gscore>  (571) 
-4.09700567748148

>  <r_i_glide_hbond>  (571) 
-0.15174089536457

>  <r_i_glide_ligand_efficiency>  (571) 
-0.12116380840853

>  <r_i_glide_ligand_efficiency_ln>  (571) 
-0.88922472003526398

>  <r_i_glide_ligand_efficiency_sa>  (571) 
-0.388637074570438

>  <r_i_glide_lipo>  (571) 
-1.0840675694658399

>  <r_i_glide_metal>  (571) 
-0

>  <r_i_glide_rewards>  (571) 
-0.589343570454545

>  <r_lp_Energy>  (571) 
22.927603999999999

>  <r_qp_ACxDN^.5/SA>  (571) 
0.014208999999999999

>  <r_qp_CIQPlogS>  (571) 
-5.9569999999999999

>  <r_qp_EA(eV)>  (571) 
0.51400000000000001

>  <r_qp_FISA>  (571) 
60.991999999999997

>  <r_qp_FOSA>  (571) 
289.27699999999999

>  <r_qp_IP(eV)>  (571) 
7.9580000000000002

>  <r_qp_Jm>  (571) 
0.030100798985544099

>  <r_qp_PISA>  (571) 
355.28500000000003

>  <r_qp_PSA>  (571) 
59.302999999999997

>  <r_qp_PercentHumanOralAbsorption>  (571) 
100

>  <r_qp_QPPCaco>  (571) 
652.24800000000005

>  <r_qp_QPPMDCK>  (571) 
477.685

>  <r_qp_QPlogBB>  (571) 
-0.114

>  <r_qp_QPlogHERG>  (571) 
-6.7809999999999997

>  <r_qp_QPlogKhsa>  (571) 
0.73999999999999999

>  <r_qp_QPlogKp>  (571) 
-2.5910000000000002

>  <r_qp_QPlogPC16>  (571) 
14.581

>  <r_qp_QPlogPo/w>  (571) 
4.7640000000000002

>  <r_qp_QPlogPoct>  (571) 
23.326000000000001

>  <r_qp_QPlogPw>  (571) 
12.638

>  <r_qp_QPlogS>  (571) 
-4.5789999999999997

>  <r_qp_QPpolrz>  (571) 
47.252000000000002

>  <r_qp_SASA>  (571) 
731.38699999999994

>  <r_qp_SAamideO>  (571) 
0

>  <r_qp_SAfluorine>  (571) 
25.832000000000001

>  <r_qp_WPSA>  (571) 
25.832000000000001

>  <r_qp_accptHB>  (571) 
6

>  <r_qp_dip^2/V>  (571) 
0.0080549000000000003

>  <r_qp_dipole>  (571) 
3.351

>  <r_qp_donorHB>  (571) 
3

>  <r_qp_glob>  (571) 
0.82517470000000004

>  <r_qp_mol_MW>  (571) 
444.55399999999997

>  <r_qp_volume>  (571) 
1394.0930000000001

>  <r_sd_BIOSOLVEIT.INFINISEE\_FTREES\_SIMILARITY>  (571) 
0.90600000000000003

>  <r_sd_BIOSOLVEIT.LOGP>  (571) 
3.6793

>  <r_sd_BIOSOLVEIT.MOLECULAR\_WEIGHT>  (571) 
445.56299999999999

>  <r_sd_BIOSOLVEIT.TPSA>  (571) 
66.310000000000002

>  <i_epik_Tot_Q>  (571) 
2

>  <i_epik_Tot_abs_Q>  (571) 
2

>  <i_f3d_flags>  (571) 
0

>  <i_i_glide_confnum>  (571) 
6

>  <i_i_glide_lignum>  (571) 
434

>  <i_i_glide_posenum>  (571) 
2

>  <i_i_glide_rotatable_bonds>  (571) 
9

>  <i_lp_mmshare_version>  (571) 
65135

>  <i_m_ct_format>  (571) 
2

>  <i_m_source_file_index>  (571) 
1617

>  <i_qp_#NandO>  (571) 
6

>  <i_qp_#acid>  (571) 
0

>  <i_qp_#amide>  (571) 
0

>  <i_qp_#amidine>  (571) 
0

>  <i_qp_#amine>  (571) 
1

>  <i_qp_#in34>  (571) 
0

>  <i_qp_#in56>  (571) 
22

>  <i_qp_#metab>  (571) 
7

>  <i_qp_#nonHatm>  (571) 
33

>  <i_qp_#noncon>  (571) 
0

>  <i_qp_#ringatoms>  (571) 
22

>  <i_qp_#rotor>  (571) 
9

>  <i_qp_#rtvFG>  (571) 
0

>  <i_qp_#stars>  (571) 
0

>  <i_qp_CNS>  (571) 
0

>  <i_qp_HumanOralAbsorption>  (571) 
3

>  <i_qp_RuleOfFive>  (571) 
0

>  <i_qp_RuleOfThree>  (571) 
1

>  <i_sd_BIOSOLVEIT.INFINISEE\_REAGENT1\_NAME>  (571) 
21902366

>  <i_sd_BIOSOLVEIT.INFINISEE\_REAGENT2\_NAME>  (571) 
22360182

>  <i_sd_BIOSOLVEIT.INFINISEE\_REAGENT3\_NAME>  (571) 
21968946

>  <i_sd_BIOSOLVEIT.INFINISEE\_RESULT\_RANK>  (571) 
66953

>  <i_sd_version>  (571) 
0

>  <b_lp_Chiralities_Consistent>  (571) 
1

>  <b_sd_chiral_flag>  (571) 
0

>  <canonical_id>  (571) 
ATP-HTVS-5890B3ABBA42

>  <compound_code>  (571) 
51713

>  <title>  (571) 
m_282030aaa____21902366____22360182____21968946

>  <variant>  (571) 
51713-1

>  <source_file>  (571) 
运行/运行/ATP-VSW/ATP-VSW-DOCK_HTVS_1-001_lib/ATP-VSW-DOCK_HTVS_1-001_lib

>  <canonical_smiles>  (571) 
CNc1ccc(CNc2nc(NCc3ccc(F)c(C[NH+](C)C)c3)[nH+]c3ccccc23)cc1

>  <scaffold>  (571) 
c1ccc(CNc2nc(NCc3ccccc3)c3ccccc3[nH+]2)cc1

>  <molecular_formula>  (571) 
C26H31FN6+2

$$$$
ATP-HTVS-58BA49956E55
     RDKit          3D

 65 68  0  0  0  0  0  0  0  0999 V2000
  196.3500  183.0035  150.1738 O   0  0  0  0  0  0  0  0  0  0  0  0
  197.5969  182.3285  150.2114 C   0  0  1  0  0  0  0  0  0  0  0  0
  197.7349  181.4407  151.4351 C   0  0  0  0  0  0  0  0  0  0  0  0
  198.8530  181.5740  152.2810 C   0  0  0  0  0  0  0  0  0  0  0  0
  198.9512  180.7991  153.4533 C   0  0  0  0  0  0  0  0  0  0  0  0
  197.9332  179.8765  153.7727 C   0  0  0  0  0  0  0  0  0  0  0  0
  196.8156  179.7435  152.9274 C   0  0  0  0  0  0  0  0  0  0  0  0
  196.7179  180.5181  151.7572 C   0  0  0  0  0  0  0  0  0  0  0  0
  200.1572  180.9590  154.3539 C   0  0  1  0  0  0  0  0  0  0  0  0
  199.8060  181.2594  155.7327 N   0  0  0  0  0  0  0  0  0  0  0  0
  200.8429  181.5273  156.6428 C   0  0  0  0  0  0  0  0  0  0  0  0
  202.0428  180.9445  156.4208 N   0  0  0  0  0  0  0  0  0  0  0  0
  203.0596  181.2312  157.2680 C   0  0  0  0  0  0  0  0  0  0  0  0
  202.8716  182.1433  158.3482 C   0  0  0  0  0  0  0  0  0  0  0  0
  201.6736  182.7271  158.5628 N   0  0  0  0  0  0  0  0  0  0  0  0
  200.6558  182.4205  157.7277 C   0  0  0  0  0  0  0  0  0  0  0  0
  199.4138  183.0166  157.9750 N   0  0  0  0  0  0  0  0  0  0  0  0
  199.3495  184.2843  158.6851 C   0  0  1  0  0  0  0  0  0  0  0  0
  197.9187  184.7448  158.9344 C   0  0  0  0  0  0  0  0  0  0  0  0
  197.3191  185.8672  158.2955 C   0  0  0  0  0  0  0  0  0  0  0  0
  195.9723  186.1855  158.5937 C   0  0  0  0  0  0  0  0  0  0  0  0
  195.2303  185.4160  159.5110 C   0  0  0  0  0  0  0  0  0  0  0  0
  195.8219  184.3071  160.1251 C   0  0  0  0  0  0  0  0  0  0  0  0
  197.1513  183.9675  159.8256 C   0  0  0  0  0  0  0  0  0  0  0  0
  198.0468  186.7188  157.2600 C   0  0  1  0  0  0  0  0  0  0  0  0
  197.8242  186.2531  155.8608 N   0  0  2  0  0  0  0  0  0  0  0  0
  198.1535  184.8299  155.6213 C   0  0  2  0  0  0  0  0  0  0  0  0
  198.5062  187.1181  154.8774 C   0  0  2  0  0  0  0  0  0  0  0  0
  203.9567  182.4413  159.1989 C   0  0  0  0  0  0  0  0  0  0  0  0
  205.2151  181.8460  159.0029 C   0  0  0  0  0  0  0  0  0  0  0  0
  205.4015  180.9447  157.9398 C   0  0  0  0  0  0  0  0  0  0  0  0
  204.3259  180.6426  157.0807 C   0  0  0  0  0  0  0  0  0  0  0  0
  196.1100  183.8369  151.2998 C   0  0  2  0  0  0  0  0  0  0  0  0
  197.6866  181.7102  149.3162 H   0  0  0  0  0  0  0  0  0  0  0  0
  198.4041  183.0601  150.1680 H   0  0  0  0  0  0  0  0  0  0  0  0
  199.6260  182.2903  152.0387 H   0  0  0  0  0  0  0  0  0  0  0  0
  197.9990  179.2860  154.6754 H   0  0  0  0  0  0  0  0  0  0  0  0
  196.0320  179.0455  153.1744 H   0  0  0  0  0  0  0  0  0  0  0  0
  195.8500  180.4235  151.1217 H   0  0  0  0  0  0  0  0  0  0  0  0
  200.7428  180.0415  154.3066 H   0  0  0  0  0  0  0  0  0  0  0  0
  200.7913  181.7640  153.9781 H   0  0  0  0  0  0  0  0  0  0  0  0
  198.9050  181.6873  155.8749 H   0  0  0  0  0  0  0  0  0  0  0  0
  198.6269  182.7538  157.4089 H   0  0  0  0  0  0  0  0  0  0  0  0
  199.8250  184.1694  159.6654 H   0  0  0  0  0  0  0  0  0  0  0  0
  199.9394  185.0027  158.1250 H   0  0  0  0  0  0  0  0  0  0  0  0
  195.4856  187.0223  158.1221 H   0  0  0  0  0  0  0  0  0  0  0  0
  194.1979  185.6613  159.7310 H   0  0  0  0  0  0  0  0  0  0  0  0
  195.2452  183.7084  160.8145 H   0  0  0  0  0  0  0  0  0  0  0  0
  197.5836  183.0967  160.3022 H   0  0  0  0  0  0  0  0  0  0  0  0
  197.6449  187.7339  157.3505 H   0  0  0  0  0  0  0  0  0  0  0  0
  199.1097  186.8096  157.4784 H   0  0  0  0  0  0  0  0  0  0  0  0
  199.2128  184.6604  155.8017 H   0  0  0  0  0  0  0  0  0  0  0  0
  197.9459  184.5274  154.5972 H   0  0  0  0  0  0  0  0  0  0  0  0
  197.5732  184.1679  156.2578 H   0  0  0  0  0  0  0  0  0  0  0  0
  199.5877  187.0913  155.0263 H   0  0  0  0  0  0  0  0  0  0  0  0
  198.1748  188.1541  154.9636 H   0  0  0  0  0  0  0  0  0  0  0  0
  198.3009  186.7798  153.8605 H   0  0  0  0  0  0  0  0  0  0  0  0
  203.8079  183.1308  160.0179 H   0  0  0  0  0  0  0  0  0  0  0  0
  206.0342  182.0796  159.6684 H   0  0  0  0  0  0  0  0  0  0  0  0
  206.3666  180.4812  157.7823 H   0  0  0  0  0  0  0  0  0  0  0  0
  204.4741  179.9347  156.2740 H   0  0  0  0  0  0  0  0  0  0  0  0
  195.1493  184.3163  151.1693 H   0  0  0  0  0  0  0  0  0  0  0  0
  196.8757  184.6075  151.3981 H   0  0  0  0  0  0  0  0  0  0  0  0
  196.0561  183.2710  152.2311 H   0  0  0  0  0  0  0  0  0  0  0  0
  196.8339  186.3378  155.6821 H   0  0  0  0  0  0  0  0  0  0  0  0
  1  2  1  0
  1 33  1  0
  2  3  1  0
  2 34  1  6
  2 35  1  0
  3  4  2  0
  3  8  1  0
  4  5  1  0
  4 36  1  0
  5  6  2  0
  5  9  1  0
  6  7  1  0
  6 37  1  0
  7  8  2  0
  7 38  1  0
  8 39  1  0
  9 10  1  0
  9 40  1  1
  9 41  1  0
 10 11  1  0
 10 42  1  0
 11 12  2  0
 11 16  1  0
 12 13  1  0
 13 14  1  0
 13 32  2  0
 14 15  1  0
 14 29  2  0
 15 16  2  0
 16 17  1  0
 17 18  1  0
 17 43  1  0
 18 19  1  0
 18 44  1  1
 18 45  1  0
 19 20  1  0
 19 24  2  0
 20 21  2  0
 20 25  1  0
 21 22  1  0
 21 46  1  0
 22 23  2  0
 22 47  1  0
 23 24  1  0
 23 48  1  0
 24 49  1  0
 25 26  1  0
 25 50  1  6
 25 51  1  0
 26 27  1  0
 26 28  1  0
 26 65  1  6
 27 52  1  1
 27 53  1  0
 27 54  1  0
 28 55  1  1
 28 56  1  0
 28 57  1  0
 29 30  1  0
 29 58  1  0
 30 31  2  0
 30 59  1  0
 31 32  1  0
 31 60  1  0
 32 61  1  0
 33 62  1  6
 33 63  1  0
 33 64  1  0
M  CHG  1  26   1
M  END
>  <s_epik_cmdline>  (572) 
J2VwaWtfcHl0aG9uJywgJy1waCcsICc3LjAwMDAwMCcsICctcGh0JywgJzIuMDAwMDAwJywgJy1tcycsICcxNicsICctdG4nLCAnOCcsICctbWEnLCAnMjAwJywgJy1pbWFlJywgJzxpbmZpbGUubWFlPicsICctb21hZScsICc8b3V0ZmlsZS5tYWU+Jw==

>  <s_epik_input>  (572) 
W0NIM11PW0NIMl1jMVtjSF1jKFtjSF1bY0hdW2NIXTEpW0NIMl1bTkhdYyhuMiljKG5jKGMyMylbY0hdW2NIXVtjSF1bY0hdMylbTkhdW0NIMl1jNGMoW0NIMl1OKFtDSDNdKVtDSDNdKVtjSF1bY0hdW2NIXVtjSF00

>  <s_i_glide_gridfile>  (572) 
ATP-Grid

>  <s_lp_Force_Field>  (572) 
OPLS_2005

>  <s_lp_Variant>  (572) 
m_282030aaa____21928106____23157418____21973156-1

>  <s_lp_label>  (572) 
1565_sdstereoexpander_1_neutralizer_1_epik_1_stereoizer_1

>  <s_m_source_file>  (572) 
ATP-VSW-LIGPREP-002-in.maegz

>  <s_sd_BIOSOLVEIT.INFINISEE\_QUERY\_NAME>  (572) 
Ref-Lig

>  <s_sd_BIOSOLVEIT.INFINISEE\_QUERY\_SMILES>  (572) 
S(c1nc2c(cc1C[NH2+]Cc3ccc(cc3)C[NH+](C)C)cccc2)Cc4ccccc4

>  <s_sd_BIOSOLVEIT.INFINISEE\_REACTION\_NAME>  (572) 
m_282030aaa

>  <s_sd_BIOSOLVEIT.INFINISEE\_REAGENT1\_SMILES>  (572) 
[R1*]NCc1cc(ccc1)COC

>  <s_sd_BIOSOLVEIT.INFINISEE\_REAGENT2\_SMILES>  (572) 
[R1*]c1nc2c(nc1[R2*])cccc2

>  <s_sd_BIOSOLVEIT.INFINISEE\_REAGENT3\_SMILES>  (572) 
[R2*]NCc1c(cccc1)CN(C)C

>  <s_sd_BIOSOLVEIT.INFINISEE\_SPACE>  (572) 
REALSpace_44bn_2023-08

>  <s_vsw_compound_code>  (572) 
50050

>  <s_vsw_variant>  (572) 
50050-1

>  <r_epik_Charging_Adjusted_Penalty>  (572) 
0.076612674508475406

>  <r_epik_Ionization_Penalty>  (572) 
0.038699999999999998

>  <r_epik_Ionization_Penalty_Charging>  (572) 
0.038300000000000001

>  <r_epik_Ionization_Penalty_Neutral>  (572) 
0.00040000000000000002

>  <r_epik_State_Penalty>  (572) 
0.038300000000000001

>  <r_i_docking_score>  (572) 
-3.0121204407722799

>  <r_i_glide_ecoul>  (572) 
-3.5150012969970699

>  <r_i_glide_eff_state_penalty>  (572) 
0.038300000000000001

>  <r_i_glide_einternal>  (572) 
2.2776172161102299

>  <r_i_glide_emodel>  (572) 
-38.207347263092203

>  <r_i_glide_energy>  (572) 
-31.867134094238299

>  <r_i_glide_erotb>  (572) 
0.81622115425911701

>  <r_i_glide_esite>  (572) 
-0.0050107764868910698

>  <r_i_glide_evdw>  (572) 
-28.3521327972412

>  <r_i_glide_gscore>  (572) 
-3.0504204407722799

>  <r_i_glide_hbond>  (572) 
0

>  <r_i_glide_ligand_efficiency>  (572) 
-0.091276376993099304

>  <r_i_glide_ligand_efficiency_ln>  (572) 
-0.66987999010278798

>  <r_i_glide_ligand_efficiency_sa>  (572) 
-0.29277211238178102

>  <r_i_glide_lipo>  (572) 
-1.52524589322379

>  <r_i_glide_metal>  (572) 
-0

>  <r_i_glide_rewards>  (572) 
-0.39152809090909002

>  <r_lp_Energy>  (572) 
28.154471000000001

>  <r_qp_ACxDN^.5/SA>  (572) 
0.0129211

>  <r_qp_CIQPlogS>  (572) 
-5.7279999999999998

>  <r_qp_EA(eV)>  (572) 
0.86099999999999999

>  <r_qp_FISA>  (572) 
34.280000000000001

>  <r_qp_FOSA>  (572) 
296.72699999999998

>  <r_qp_IP(eV)>  (572) 
8.2230000000000008

>  <r_qp_Jm>  (572) 
0.36488276956655602

>  <r_qp_PISA>  (572) 
402.30700000000002

>  <r_qp_PSA>  (572) 
54.585000000000001

>  <r_qp_PercentHumanOralAbsorption>  (572) 
100

>  <r_qp_QPPCaco>  (572) 
1168.7449999999999

>  <r_qp_QPPMDCK>  (572) 
647.779

>  <r_qp_QPlogBB>  (572) 
0.029000000000000001

>  <r_qp_QPlogHERG>  (572) 
-6.9000000000000004

>  <r_qp_QPlogKhsa>  (572) 
0.70299999999999996

>  <r_qp_QPlogKp>  (572) 
-1.837

>  <r_qp_QPlogPC16>  (572) 
14.845000000000001

>  <r_qp_QPlogPo/w>  (572) 
4.952

>  <r_qp_QPlogPoct>  (572) 
22.245999999999999

>  <r_qp_QPlogPw>  (572) 
11.776

>  <r_qp_QPlogS>  (572) 
-4.2460000000000004

>  <r_qp_QPpolrz>  (572) 
47.945999999999998

>  <r_qp_SASA>  (572) 
733.31399999999996

>  <r_qp_SAamideO>  (572) 
0

>  <r_qp_SAfluorine>  (572) 
0

>  <r_qp_WPSA>  (572) 
0

>  <r_qp_accptHB>  (572) 
6.7000000000000002

>  <r_qp_dip^2/V>  (572) 
0.0032049999999999999

>  <r_qp_dipole>  (572) 
2.1309999999999998

>  <r_qp_donorHB>  (572) 
2

>  <r_qp_glob>  (572) 
0.83171039999999996

>  <r_qp_mol_MW>  (572) 
441.57499999999999

>  <r_qp_volume>  (572) 
1416.268

>  <r_sd_BIOSOLVEIT.INFINISEE\_FTREES\_SIMILARITY>  (572) 
0.90600000000000003

>  <r_sd_BIOSOLVEIT.LOGP>  (572) 
3.6448999999999998

>  <r_sd_BIOSOLVEIT.MOLECULAR\_WEIGHT>  (572) 
442.584

>  <r_sd_BIOSOLVEIT.TPSA>  (572) 
63.509999999999998

>  <i_epik_Tot_Q>  (572) 
1

>  <i_epik_Tot_abs_Q>  (572) 
1

>  <i_f3d_flags>  (572) 
0

>  <i_i_glide_confnum>  (572) 
9

>  <i_i_glide_lignum>  (572) 
540

>  <i_i_glide_posenum>  (572) 
19

>  <i_i_glide_rotatable_bonds>  (572) 
10

>  <i_lp_mmshare_version>  (572) 
65135

>  <i_m_ct_format>  (572) 
2

>  <i_m_source_file_index>  (572) 
1565

>  <i_qp_#NandO>  (572) 
6

>  <i_qp_#acid>  (572) 
0

>  <i_qp_#amide>  (572) 
0

>  <i_qp_#amidine>  (572) 
0

>  <i_qp_#amine>  (572) 
1

>  <i_qp_#in34>  (572) 
0

>  <i_qp_#in56>  (572) 
22

>  <i_qp_#metab>  (572) 
6

>  <i_qp_#nonHatm>  (572) 
33

>  <i_qp_#noncon>  (572) 
0

>  <i_qp_#ringatoms>  (572) 
22

>  <i_qp_#rotor>  (572) 
10

>  <i_qp_#rtvFG>  (572) 
0

>  <i_qp_#stars>  (572) 
0

>  <i_qp_CNS>  (572) 
1

>  <i_qp_HumanOralAbsorption>  (572) 
3

>  <i_qp_RuleOfFive>  (572) 
0

>  <i_qp_RuleOfThree>  (572) 
0

>  <i_sd_BIOSOLVEIT.INFINISEE\_REAGENT1\_NAME>  (572) 
21928106

>  <i_sd_BIOSOLVEIT.INFINISEE\_REAGENT2\_NAME>  (572) 
23157418

>  <i_sd_BIOSOLVEIT.INFINISEE\_REAGENT3\_NAME>  (572) 
21973156

>  <i_sd_BIOSOLVEIT.INFINISEE\_RESULT\_RANK>  (572) 
63368

>  <i_sd_version>  (572) 
0

>  <b_lp_Chiralities_Consistent>  (572) 
1

>  <b_sd_chiral_flag>  (572) 
0

>  <canonical_id>  (572) 
ATP-HTVS-58BA49956E55

>  <compound_code>  (572) 
50050

>  <title>  (572) 
m_282030aaa____21928106____23157418____21973156

>  <variant>  (572) 
50050-1

>  <source_file>  (572) 
运行/运行/ATP-VSW/ATP-VSW-DOCK_HTVS_1-002_lib.maegz

>  <canonical_smiles>  (572) 
COCc1cccc(CNc2nc3ccccc3nc2NCc2ccccc2C[NH+](C)C)c1

>  <scaffold>  (572) 
c1ccc(CNc2nc3ccccc3nc2NCc2ccccc2)cc1

>  <molecular_formula>  (572) 
C27H32N5O+

$$$$
ATP-HTVS-590B92626142
     RDKit          3D

 62 64  0  0  0  0  0  0  0  0999 V2000
  196.9934  181.2468  152.0217 S   0  0  0  0  0  0  0  0  0  0  0  0
  197.8533  179.9020  152.7631 C   0  0  0  0  0  0  0  0  0  0  0  0
  197.7463  179.8765  154.0969 N   0  0  0  0  0  0  0  0  0  0  0  0
  197.0202  180.9582  154.6034 C   0  0  0  0  0  0  0  0  0  0  0  0
  196.5219  181.7653  153.6218 C   0  0  0  0  0  0  0  0  0  0  0  0
  196.8926  181.1819  156.0969 C   0  0  1  0  0  0  0  0  0  0  0  0
  197.2453  182.4778  156.6724 N   0  0  0  0  0  0  0  0  0  0  0  0
  198.5312  182.9959  156.2229 C   0  0  1  0  0  0  0  0  0  0  0  0
  199.7319  182.2523  156.7940 C   0  0  0  0  0  0  0  0  0  0  0  0
  200.0323  180.9408  156.3450 C   0  0  0  0  0  0  0  0  0  0  0  0
  201.1197  180.2301  156.8999 C   0  0  0  0  0  0  0  0  0  0  0  0
  201.9436  180.8275  157.8744 C   0  0  0  0  0  0  0  0  0  0  0  0
  201.6620  182.1484  158.2987 C   0  0  0  0  0  0  0  0  0  0  0  0
  200.5548  182.8591  157.7704 C   0  0  0  0  0  0  0  0  0  0  0  0
  201.3954  178.8353  156.3770 C   0  0  1  0  0  0  0  0  0  0  0  0
  200.3121  177.8701  156.7440 N   0  0  1  0  0  0  0  0  0  0  0  0
  200.1535  176.7241  155.7914 C   0  0  2  0  0  0  0  0  0  0  0  0
  201.2739  175.6699  155.8945 C   0  0  2  0  0  0  0  0  0  0  0  0
  200.0121  177.1750  154.3306 C   0  0  2  0  0  0  0  0  0  0  0  0
  200.4214  177.4458  158.1602 C   0  0  2  0  0  0  0  0  0  0  0  0
  198.6393  178.8888  151.9938 C   0  0  1  0  0  0  0  0  0  0  0  0
  198.0115  178.7109  150.7431 O   0  0  0  0  0  0  0  0  0  0  0  0
  198.4834  177.7200  149.9265 C   0  0  0  0  0  0  0  0  0  0  0  0
  197.9145  177.6641  148.6476 C   0  0  0  0  0  0  0  0  0  0  0  0
  198.3716  176.7281  147.7055 C   0  0  0  0  0  0  0  0  0  0  0  0
  199.3820  175.8078  148.0300 C   0  0  0  0  0  0  0  0  0  0  0  0
  199.7441  174.9214  147.0433 O   0  0  0  0  0  0  0  0  0  0  0  0
  200.8891  174.1179  147.2596 C   0  0  2  0  0  0  0  0  0  0  0  0
  199.9377  175.8363  149.3306 C   0  0  0  0  0  0  0  0  0  0  0  0
  199.4937  176.7790  150.2711 C   0  0  0  0  0  0  0  0  0  0  0  0
  197.2865  182.3695  157.6776 H   0  0  0  0  0  0  0  0  0  0  0  0
  195.9271  182.6624  153.7538 H   0  0  0  0  0  0  0  0  0  0  0  0
  195.8595  180.9906  156.4009 H   0  0  0  0  0  0  0  0  0  0  0  0
  197.4679  180.4373  156.6420 H   0  0  0  0  0  0  0  0  0  0  0  0
  198.5773  183.0019  155.1356 H   0  0  0  0  0  0  0  0  0  0  0  0
  198.5920  184.0463  156.5175 H   0  0  0  0  0  0  0  0  0  0  0  0
  199.4429  180.4647  155.5577 H   0  0  0  0  0  0  0  0  0  0  0  0
  202.7923  180.2822  158.2656 H   0  0  0  0  0  0  0  0  0  0  0  0
  202.2999  182.6184  159.0421 H   0  0  0  0  0  0  0  0  0  0  0  0
  200.3364  183.8628  158.1108 H   0  0  0  0  0  0  0  0  0  0  0  0
  201.5026  178.9573  155.2894 H   0  0  0  0  0  0  0  0  0  0  0  0
  202.3511  178.4667  156.7575 H   0  0  0  0  0  0  0  0  0  0  0  0
  199.2197  176.2353  156.0524 H   0  0  0  0  0  0  0  0  0  0  0  0
  201.1268  174.8882  155.1430 H   0  0  0  0  0  0  0  0  0  0  0  0
  201.2965  175.1630  156.8612 H   0  0  0  0  0  0  0  0  0  0  0  0
  202.2436  176.1317  155.7045 H   0  0  0  0  0  0  0  0  0  0  0  0
  199.8385  176.3151  153.6809 H   0  0  0  0  0  0  0  0  0  0  0  0
  200.9004  177.7075  153.9741 H   0  0  0  0  0  0  0  0  0  0  0  0
  199.1591  177.8160  154.2547 H   0  0  0  0  0  0  0  0  0  0  0  0
  201.2865  176.8035  158.2812 H   0  0  0  0  0  0  0  0  0  0  0  0
  199.5557  176.8809  158.4978 H   0  0  0  0  0  0  0  0  0  0  0  0
  200.5648  178.2888  158.8385 H   0  0  0  0  0  0  0  0  0  0  0  0
  199.6740  179.2184  151.8400 H   0  0  0  0  0  0  0  0  0  0  0  0
  198.6239  177.9747  152.5471 H   0  0  0  0  0  0  0  0  0  0  0  0
  197.1243  178.3604  148.3927 H   0  0  0  0  0  0  0  0  0  0  0  0
  197.9200  176.7174  146.7265 H   0  0  0  0  0  0  0  0  0  0  0  0
  201.0592  173.4953  146.3810 H   0  0  0  0  0  0  0  0  0  0  0  0
  200.7608  173.4524  148.1137 H   0  0  0  0  0  0  0  0  0  0  0  0
  201.7751  174.7353  147.4113 H   0  0  0  0  0  0  0  0  0  0  0  0
  200.7066  175.1385  149.6266 H   0  0  0  0  0  0  0  0  0  0  0  0
  199.9598  176.7634  151.2439 H   0  0  0  0  0  0  0  0  0  0  0  0
  199.4316  178.3676  156.6973 H   0  0  0  0  0  0  0  0  0  0  0  0
  1  2  1  0
  1  5  1  0
  2  3  2  0
  2 21  1  0
  3  4  1  0
  4  5  2  0
  4  6  1  0
  5 32  1  0
  6  7  1  0
  6 33  1  1
  6 34  1  0
  7  8  1  0
  7 31  1  0
  8  9  1  0
  8 35  1  6
  8 36  1  0
  9 10  2  0
  9 14  1  0
 10 11  1  0
 10 37  1  0
 11 12  2  0
 11 15  1  0
 12 13  1  0
 12 38  1  0
 13 14  2  0
 13 39  1  0
 14 40  1  0
 15 16  1  0
 15 41  1  6
 15 42  1  0
 16 17  1  0
 16 20  1  0
 16 62  1  1
 17 18  1  0
 17 19  1  0
 17 43  1  1
 18 44  1  6
 18 45  1  0
 18 46  1  0
 19 47  1  6
 19 48  1  0
 19 49  1  0
 20 50  1  6
 20 51  1  0
 20 52  1  0
 21 22  1  0
 21 53  1  6
 21 54  1  0
 22 23  1  0
 23 24  1  0
 23 30  2  0
 24 25  2  0
 24 55  1  0
 25 26  1  0
 25 56  1  0
 26 27  1  0
 26 29  2  0
 27 28  1  0
 28 57  1  6
 28 58  1  0
 28 59  1  0
 29 30  1  0
 29 60  1  0
 30 61  1  0
M  CHG  1  16   1
M  END
>  <s_epik_cmdline>  (573) 
J2VwaWtfcHl0aG9uJywgJy1waCcsICc3LjAwMDAwMCcsICctcGh0JywgJzIuMDAwMDAwJywgJy1tcycsICcxNicsICctdG4nLCAnOCcsICctbWEnLCAnMjAwJywgJy1pbWFlJywgJzxpbmZpbGUubWFlPicsICctb21hZScsICc8b3V0ZmlsZS5tYWU+Jw==

>  <s_epik_input>  (573) 
W0NIM11PYyhbY0hdW2NIXTEpW2NIXVtjSF1jMU9bQ0gyXWMyc1tjSF1jKG4yKVtDSDJdW05IXVtDSDJdYzNbY0hdYyhbY0hdW2NIXVtjSF0zKVtDSDJdTihbQ0gzXSlbQ0hdKFtDSDNdKVtDSDNd

>  <s_i_glide_gridfile>  (573) 
ATP-Grid

>  <s_lp_Force_Field>  (573) 
OPLS_2005

>  <s_lp_Variant>  (573) 
m_207dba____5167038____4862614-4

>  <s_lp_label>  (573) 
1414_sdstereoexpander_1_neutralizer_1_epik_2_stereoizer_2

>  <s_m_source_file>  (573) 
ATP-VSW-LIGPREP-001-in.maegz

>  <s_sd_BIOSOLVEIT.INFINISEE\_QUERY\_NAME>  (573) 
Ref-Lig

>  <s_sd_BIOSOLVEIT.INFINISEE\_QUERY\_SMILES>  (573) 
S(c1nc2c(cc1C[NH2+]Cc3ccc(cc3)C[NH+](C)C)cccc2)Cc4ccccc4

>  <s_sd_BIOSOLVEIT.INFINISEE\_REACTION\_NAME>  (573) 
m_207dba

>  <s_sd_BIOSOLVEIT.INFINISEE\_REAGENT1\_SMILES>  (573) 
[R1*]NCc1cc(ccc1)CN(C(C)C)C

>  <s_sd_BIOSOLVEIT.INFINISEE\_REAGENT2\_SMILES>  (573) 
[R1*]CC=1N=C(SC1)COc2ccc(OC)cc2

>  <s_sd_BIOSOLVEIT.INFINISEE\_SPACE>  (573) 
REALSpace_44bn_2023-08

>  <s_vsw_compound_code>  (573) 
45217

>  <s_vsw_variant>  (573) 
45217-4

>  <r_epik_Charging_Adjusted_Penalty>  (573) 
0.87338672966341502

>  <r_epik_Ionization_Penalty>  (573) 
0.85070000000000001

>  <r_epik_Ionization_Penalty_Charging>  (573) 
0.016

>  <r_epik_Ionization_Penalty_Neutral>  (573) 
0.83479999999999999

>  <r_epik_State_Penalty>  (573) 
0.85740000000000005

>  <r_i_docking_score>  (573) 
-2.8113561299403398

>  <r_i_glide_ecoul>  (573) 
-7.69852590560913

>  <r_i_glide_eff_state_penalty>  (573) 
0.85740000000000005

>  <r_i_glide_einternal>  (573) 
5.4727120399475098

>  <r_i_glide_emodel>  (573) 
-47.455551254937497

>  <r_i_glide_energy>  (573) 
-38.023505687713602

>  <r_i_glide_erotb>  (573) 
0.98155505580233304

>  <r_i_glide_esite>  (573) 
-0.047656851591698003

>  <r_i_glide_evdw>  (573) 
-30.324979782104499

>  <r_i_glide_gscore>  (573) 
-3.6687561299403399

>  <r_i_glide_hbond>  (573) 
0

>  <r_i_glide_ligand_efficiency>  (573) 
-0.093711870998011204

>  <r_i_glide_ligand_efficiency_ln>  (573) 
-0.638770744900925

>  <r_i_glide_ligand_efficiency_sa>  (573) 
-0.29118457142865001

>  <r_i_glide_lipo>  (573) 
-1.20614314102256

>  <r_i_glide_metal>  (573) 
-0

>  <r_i_glide_rewards>  (573) 
-0.72548331818181699

>  <r_lp_Energy>  (573) 
25.322628000000002

>  <r_lp_tautomer_probability>  (573) 
1

>  <r_qp_ACxDN^.5/SA>  (573) 
0.0087615000000000002

>  <r_qp_CIQPlogS>  (573) 
-4.1879999999999997

>  <r_qp_EA(eV)>  (573) 
0.74199999999999999

>  <r_qp_FISA>  (573) 
30.033999999999999

>  <r_qp_FOSA>  (573) 
388.12900000000002

>  <r_qp_IP(eV)>  (573) 
8.6210000000000004

>  <r_qp_Jm>  (573) 
0.0130483032883095

>  <r_qp_PISA>  (573) 
273.63200000000001

>  <r_qp_PSA>  (573) 
46.402000000000001

>  <r_qp_PercentHumanOralAbsorption>  (573) 
100

>  <r_qp_QPPCaco>  (573) 
319.80399999999997

>  <r_qp_QPPMDCK>  (573) 
332.14800000000002

>  <r_qp_QPlogBB>  (573) 
0.51800000000000002

>  <r_qp_QPlogHERG>  (573) 
-7.2969999999999997

>  <r_qp_QPlogKhsa>  (573) 
0.65900000000000003

>  <r_qp_QPlogKp>  (573) 
-4.1779999999999999

>  <r_qp_QPlogPC16>  (573) 
13.898

>  <r_qp_QPlogPo/w>  (573) 
4.5739999999999998

>  <r_qp_QPlogPoct>  (573) 
19.655000000000001

>  <r_qp_QPlogPw>  (573) 
9.0280000000000005

>  <r_qp_QPlogS>  (573) 
-3.335

>  <r_qp_QPpolrz>  (573) 
45.253

>  <r_qp_SASA>  (573) 
741.88400000000001

>  <r_qp_SAamideO>  (573) 
0

>  <r_qp_SAfluorine>  (573) 
0

>  <r_qp_WPSA>  (573) 
50.088999999999999

>  <r_qp_accptHB>  (573) 
6.5

>  <r_qp_dip^2/V>  (573) 
0.0043076

>  <r_qp_dipole>  (573) 
2.452

>  <r_qp_donorHB>  (573) 
1

>  <r_qp_glob>  (573) 
0.8141332

>  <r_qp_mol_MW>  (573) 
425.58800000000002

>  <r_qp_volume>  (573) 
1395.7239999999999

>  <r_sd_BIOSOLVEIT.INFINISEE\_FTREES\_SIMILARITY>  (573) 
0.90800000000000003

>  <r_sd_BIOSOLVEIT.LOGP>  (573) 
2.4174000000000002

>  <r_sd_BIOSOLVEIT.MOLECULAR\_WEIGHT>  (573) 
427.60899999999998

>  <r_sd_BIOSOLVEIT.TPSA>  (573) 
52.399999999999999

>  <i_epik_Tot_Q>  (573) 
1

>  <i_epik_Tot_abs_Q>  (573) 
1

>  <i_f3d_flags>  (573) 
0

>  <i_i_glide_confnum>  (573) 
8

>  <i_i_glide_lignum>  (573) 
370

>  <i_i_glide_posenum>  (573) 
18

>  <i_i_glide_rotatable_bonds>  (573) 
11

>  <i_lp_mmshare_version>  (573) 
65135

>  <i_m_ct_format>  (573) 
2

>  <i_m_source_file_index>  (573) 
1414

>  <i_qp_#NandO>  (573) 
5

>  <i_qp_#acid>  (573) 
0

>  <i_qp_#amide>  (573) 
0

>  <i_qp_#amidine>  (573) 
0

>  <i_qp_#amine>  (573) 
2

>  <i_qp_#in34>  (573) 
0

>  <i_qp_#in56>  (573) 
17

>  <i_qp_#metab>  (573) 
9

>  <i_qp_#nonHatm>  (573) 
30

>  <i_qp_#noncon>  (573) 
0

>  <i_qp_#ringatoms>  (573) 
17

>  <i_qp_#rotor>  (573) 
11

>  <i_qp_#rtvFG>  (573) 
0

>  <i_qp_#stars>  (573) 
1

>  <i_qp_CNS>  (573) 
2

>  <i_qp_HumanOralAbsorption>  (573) 
3

>  <i_qp_RuleOfFive>  (573) 
0

>  <i_qp_RuleOfThree>  (573) 
1

>  <i_sd_BIOSOLVEIT.INFINISEE\_REAGENT1\_NAME>  (573) 
5167038

>  <i_sd_BIOSOLVEIT.INFINISEE\_REAGENT2\_NAME>  (573) 
4862614

>  <i_sd_BIOSOLVEIT.INFINISEE\_RESULT\_RANK>  (573) 
53651

>  <i_sd_version>  (573) 
0

>  <b_lp_Chiralities_Consistent>  (573) 
1

>  <b_sd_chiral_flag>  (573) 
0

>  <canonical_id>  (573) 
ATP-HTVS-590B92626142

>  <compound_code>  (573) 
45217

>  <title>  (573) 
m_207dba____5167038____4862614

>  <variant>  (573) 
45217-4

>  <source_file>  (573) 
运行/运行/ATP-VSW/ATP-VSW-DOCK_HTVS_1-001_lib/ATP-VSW-DOCK_HTVS_1-001_lib

>  <canonical_smiles>  (573) 
COc1ccc(OCc2nc(CNCc3cccc(C[N@H+](C)C(C)C)c3)cs2)cc1

>  <scaffold>  (573) 
c1ccc(CNCc2csc(COc3ccccc3)n2)cc1

>  <molecular_formula>  (573) 
C24H32N3O2S+

$$$$
ATP-HTVS-593FD885E4E3
     RDKit          3D

 63 66  0  0  0  0  0  0  0  0999 V2000
  197.1445  185.7298  156.0547 S   0  0  0  0  0  0  0  0  0  0  0  0
  198.4256  186.2156  155.0829 C   0  0  0  0  0  0  0  0  0  0  0  0
  199.1065  185.0850  154.5571 C   0  0  0  0  0  0  0  0  0  0  0  0
  200.0853  185.3470  153.5458 C   0  0  0  0  0  0  0  0  0  0  0  0
  200.3584  186.6547  153.1108 C   0  0  0  0  0  0  0  0  0  0  0  0
  199.7453  187.7553  153.7297 C   0  0  0  0  0  0  0  0  0  0  0  0
  198.7927  187.5259  154.7533 C   0  0  0  0  0  0  0  0  0  0  0  0
  198.5960  183.8530  155.1608 C   0  0  0  0  0  0  0  0  0  0  0  0
  199.0966  182.4990  154.7176 N   0  0  1  0  0  0  0  0  0  0  0  0
  198.8690  182.2594  153.2573 C   0  0  1  0  0  0  0  0  0  0  0  0
  199.4051  180.9234  152.7724 C   0  0  0  0  0  0  0  0  0  0  0  0
  198.5659  179.8028  152.5803 C   0  0  0  0  0  0  0  0  0  0  0  0
  199.1410  178.5654  152.2211 C   0  0  0  0  0  0  0  0  0  0  0  0
  200.5353  178.4371  152.0668 C   0  0  0  0  0  0  0  0  0  0  0  0
  201.3682  179.5550  152.2436 C   0  0  0  0  0  0  0  0  0  0  0  0
  200.7993  180.7879  152.5802 C   0  0  0  0  0  0  0  0  0  0  0  0
  197.0584  179.8957  152.7614 C   0  0  2  0  0  0  0  0  0  0  0  0
  200.4690  182.1467  155.1975 C   0  0  1  0  0  0  0  0  0  0  0  0
  200.5864  182.0503  156.7123 C   0  0  2  0  0  0  0  0  0  0  0  0
  197.6235  184.0786  156.0980 C   0  0  0  0  0  0  0  0  0  0  0  0
  196.9019  183.1182  156.9769 C   0  0  0  0  0  0  0  0  0  0  0  0
  196.7311  182.0106  156.4724 O   0  0  0  0  0  0  0  0  0  0  0  0
  196.5716  183.3665  158.2821 N   0  0  0  0  0  0  0  0  0  0  0  0
  196.6188  184.6386  158.9467 C   0  0  0  0  0  0  0  0  0  0  0  0
  195.5437  185.0928  159.7440 C   0  0  0  0  0  0  0  0  0  0  0  0
  195.5506  186.3883  160.3024 C   0  0  0  0  0  0  0  0  0  0  0  0
  196.6358  187.2518  160.0553 C   0  0  0  0  0  0  0  0  0  0  0  0
  197.7180  186.8086  159.2974 C   0  0  0  0  0  0  0  0  0  0  0  0
  197.7268  185.5022  158.7891 C   0  0  0  0  0  0  0  0  0  0  0  0
  196.1101  182.2501  159.1288 C   0  0  1  0  0  0  0  0  0  0  0  0
  194.5970  181.9297  159.0258 C   0  0  1  0  0  0  0  0  0  0  0  0
  194.2183  181.3771  157.7355 N   0  0  2  0  0  0  0  0  0  0  0  0
  193.2288  181.2395  157.6929 H   0  0  0  0  0  0  0  0  0  0  0  0
  194.7535  180.5368  157.5642 H   0  0  0  0  0  0  0  0  0  0  0  0
  200.5998  184.5327  153.0523 H   0  0  0  0  0  0  0  0  0  0  0  0
  201.0587  186.8015  152.3170 H   0  0  0  0  0  0  0  0  0  0  0  0
  199.9569  188.7684  153.3957 H   0  0  0  0  0  0  0  0  0  0  0  0
  198.2733  188.3648  155.1924 H   0  0  0  0  0  0  0  0  0  0  0  0
  197.8094  182.3745  153.0300 H   0  0  0  0  0  0  0  0  0  0  0  0
  199.3462  183.0054  152.6338 H   0  0  0  0  0  0  0  0  0  0  0  0
  198.5098  177.7060  152.0542 H   0  0  0  0  0  0  0  0  0  0  0  0
  200.9643  177.4802  151.7966 H   0  0  0  0  0  0  0  0  0  0  0  0
  202.4444  179.4492  152.1809 H   0  0  0  0  0  0  0  0  0  0  0  0
  201.4609  181.6237  152.7485 H   0  0  0  0  0  0  0  0  0  0  0  0
  196.5845  178.9225  152.6243 H   0  0  0  0  0  0  0  0  0  0  0  0
  196.6401  180.5718  152.0146 H   0  0  0  0  0  0  0  0  0  0  0  0
  196.7890  180.2624  153.7555 H   0  0  0  0  0  0  0  0  0  0  0  0
  200.7186  181.1332  154.9038 H   0  0  0  0  0  0  0  0  0  0  0  0
  201.2129  182.8271  154.7682 H   0  0  0  0  0  0  0  0  0  0  0  0
  201.5690  181.6411  156.9588 H   0  0  0  0  0  0  0  0  0  0  0  0
  199.8344  181.3612  157.1062 H   0  0  0  0  0  0  0  0  0  0  0  0
  200.4824  183.0290  157.1799 H   0  0  0  0  0  0  0  0  0  0  0  0
  194.6627  184.5045  159.9393 H   0  0  0  0  0  0  0  0  0  0  0  0
  194.7213  186.7033  160.9320 H   0  0  0  0  0  0  0  0  0  0  0  0
  196.6286  188.2530  160.4607 H   0  0  0  0  0  0  0  0  0  0  0  0
  198.5114  187.4706  159.0277 H   0  0  0  0  0  0  0  0  0  0  0  0
  198.5952  185.1764  158.1953 H   0  0  0  0  0  0  0  0  0  0  0  0
  196.6813  181.3417  158.9301 H   0  0  0  0  0  0  0  0  0  0  0  0
  196.3446  182.4965  160.1639 H   0  0  0  0  0  0  0  0  0  0  0  0
  194.3377  181.1976  159.7934 H   0  0  0  0  0  0  0  0  0  0  0  0
  193.9679  182.8037  159.2220 H   0  0  0  0  0  0  0  0  0  0  0  0
  194.4298  182.0859  157.0086 H   0  0  0  0  0  0  0  0  0  0  0  0
  198.4996  181.8001  155.1544 H   0  0  0  0  0  0  0  0  0  0  0  0
  1  2  1  0
  1 20  1  0
  2  3  1  0
  2  7  2  0
  3  4  2  0
  3  8  1  0
  4  5  1  0
  4 35  1  0
  5  6  2  0
  5 36  1  0
  6  7  1  0
  6 37  1  0
  7 38  1  0
  8  9  1  0
  8 20  2  0
  9 10  1  0
  9 18  1  0
  9 63  1  1
 10 11  1  0
 10 39  1  1
 10 40  1  0
 11 12  1  0
 11 16  2  0
 12 13  2  0
 12 17  1  0
 13 14  1  0
 13 41  1  0
 14 15  2  0
 14 42  1  0
 15 16  1  0
 15 43  1  0
 16 44  1  0
 17 45  1  6
 17 46  1  0
 17 47  1  0
 18 19  1  0
 18 48  1  6
 18 49  1  0
 19 50  1  6
 19 51  1  0
 19 52  1  0
 20 21  1  0
 21 22  2  0
 21 23  1  0
 23 24  1  0
 23 30  1  0
 24 25  2  0
 24 29  1  0
 25 26  1  0
 25 53  1  0
 26 27  2  0
 26 54  1  0
 27 28  1  0
 27 55  1  0
 28 29  2  0
 28 56  1  0
 29 57  1  0
 30 31  1  0
 30 58  1  6
 30 59  1  0
 31 32  1  0
 31 60  1  1
 31 61  1  0
 32 33  1  1
 32 34  1  0
 32 62  1  0
M  CHG  2   9   1  32   1
M  END
>  <s_epik_cmdline>  (574) 
J2VwaWtfcHl0aG9uJywgJy1waCcsICc3LjAwMDAwMCcsICctcGh0JywgJzIuMDAwMDAwJywgJy1tcycsICcxNicsICctdG4nLCAnOCcsICctbWEnLCAnMjAwJywgJy1pbWFlJywgJzxpbmZpbGUubWFlPicsICctb21hZScsICc8b3V0ZmlsZS5tYWU+Jw==

>  <s_epik_input>  (574) 
W2NIXTFbY0hdW2NIXVtjSF1bY0hdYzFOKFtDSDJdW0NIMl1bTkgyXSlDKD1PKWMoczIpYyhjKGMyMylbY0hdW2NIXVtjSF1bY0hdMylOKFtDSDJdW0NIM10pW0NIMl1jNGMoW0NIM10pW2NIXVtjSF1bY0hdW2NIXTQ=

>  <s_i_glide_gridfile>  (574) 
ATP-Grid

>  <s_lp_Force_Field>  (574) 
OPLS_2005

>  <s_lp_Variant>  (574) 
rxn512c____EMOL530647____EMOL523944____EMOL17023805-2

>  <s_lp_label>  (574) 
2803_sdstereoexpander_1_neutralizer_1_epik_2_stereoizer_1

>  <s_m_source_file>  (574) 
ATP-VSW-LIGPREP-001-in.maegz

>  <s_sd_BIOSOLVEIT.INFINISEE\_QUERY\_NAME>  (574) 
Ref-Lig

>  <s_sd_BIOSOLVEIT.INFINISEE\_QUERY\_SMILES>  (574) 
S(c1nc2c(cc1C[NH2+]Cc3ccc(cc3)C[NH+](C)C)cccc2)Cc4ccccc4

>  <s_sd_BIOSOLVEIT.INFINISEE\_REACTION\_NAME>  (574) 
rxn512c

>  <s_sd_BIOSOLVEIT.INFINISEE\_REAGENT1\_NAME>  (574) 
EMOL530647

>  <s_sd_BIOSOLVEIT.INFINISEE\_REAGENT1\_SMILES>  (574) 
N(c1ccccc1)CCN

>  <s_sd_BIOSOLVEIT.INFINISEE\_REAGENT2\_NAME>  (574) 
EMOL523944

>  <s_sd_BIOSOLVEIT.INFINISEE\_REAGENT2\_SMILES>  (574) 
ClC=1c2c(SC1C(=O)O)cccc2

>  <s_sd_BIOSOLVEIT.INFINISEE\_REAGENT3\_NAME>  (574) 
EMOL17023805

>  <s_sd_BIOSOLVEIT.INFINISEE\_REAGENT3\_SMILES>  (574) 
N(Cc1c(cccc1)C)CC

>  <s_sd_BIOSOLVEIT.INFINISEE\_SPACE>  (574) 
eXplore_7tr_2022-12

>  <s_vsw_compound_code>  (574) 
89665

>  <s_vsw_variant>  (574) 
89665-2

>  <r_epik_Charging_Adjusted_Penalty>  (574) 
2.5642301349191898

>  <r_epik_Ionization_Penalty>  (574) 
1.3258000000000001

>  <r_epik_Ionization_Penalty_Charging>  (574) 
1.3258000000000001

>  <r_epik_Ionization_Penalty_Neutral>  (574) 
0

>  <r_epik_State_Penalty>  (574) 
1.2384999999999999

>  <r_i_docking_score>  (574) 
-4.3345588216178301

>  <r_i_glide_ecoul>  (574) 
-12.9758625030518

>  <r_i_glide_eff_state_penalty>  (574) 
1.2384999999999999

>  <r_i_glide_einternal>  (574) 
12.2181100845337

>  <r_i_glide_emodel>  (574) 
-58.894178539829198

>  <r_i_glide_energy>  (574) 
-41.127973556518597

>  <r_i_glide_erotb>  (574) 
0.49374902695039102

>  <r_i_glide_esite>  (574) 
-0.14164606175408101

>  <r_i_glide_evdw>  (574) 
-28.1521110534668

>  <r_i_glide_gscore>  (574) 
-5.5730588216178303

>  <r_i_glide_hbond>  (574) 
-0.352456414419001

>  <r_i_glide_ligand_efficiency>  (574) 
-0.135454963175557

>  <r_i_glide_ligand_efficiency_ln>  (574) 
-0.97062587577118997

>  <r_i_glide_ligand_efficiency_sa>  (574) 
-0.43004270158158198

>  <r_i_glide_lipo>  (574) 
-1.31795139880949

>  <r_i_glide_metal>  (574) 
-0

>  <r_i_glide_rewards>  (574) 
-0.90076904545454395

>  <r_lp_Energy>  (574) 
46.104193000000002

>  <r_qp_ACxDN^.5/SA>  (574) 
0.0098677999999999995

>  <r_qp_CIQPlogS>  (574) 
-5.3159999999999998

>  <r_qp_EA(eV)>  (574) 
0.91000000000000003

>  <r_qp_FISA>  (574) 
66.364999999999995

>  <r_qp_FOSA>  (574) 
203.84800000000001

>  <r_qp_IP(eV)>  (574) 
8.8149999999999995

>  <r_qp_Jm>  (574) 
0.00416491113250255

>  <r_qp_PISA>  (574) 
428.77300000000002

>  <r_qp_PSA>  (574) 
53.152000000000001

>  <r_qp_PercentHumanOralAbsorption>  (574) 
93.593000000000004

>  <r_qp_QPPCaco>  (574) 
144.66499999999999

>  <r_qp_QPPMDCK>  (574) 
93.531999999999996

>  <r_qp_QPlogBB>  (574) 
0.23100000000000001

>  <r_qp_QPlogHERG>  (574) 
-7.6520000000000001

>  <r_qp_QPlogKhsa>  (574) 
0.97299999999999998

>  <r_qp_QPlogKp>  (574) 
-4.4930000000000003

>  <r_qp_QPlogPC16>  (574) 
15.08

>  <r_qp_QPlogPo/w>  (574) 
4.7789999999999999

>  <r_qp_QPlogPoct>  (574) 
21.713999999999999

>  <r_qp_QPlogPw>  (574) 
10.686999999999999

>  <r_qp_QPlogS>  (574) 
-3.5339999999999998

>  <r_qp_QPpolrz>  (574) 
47.523000000000003

>  <r_qp_SASA>  (574) 
716.58199999999999

>  <r_qp_SAamideO>  (574) 
0

>  <r_qp_SAfluorine>  (574) 
0

>  <r_qp_WPSA>  (574) 
17.597000000000001

>  <r_qp_accptHB>  (574) 
5

>  <r_qp_dip^2/V>  (574) 
0.0177135

>  <r_qp_dipole>  (574) 
4.9500000000000002

>  <r_qp_donorHB>  (574) 
2

>  <r_qp_glob>  (574) 
0.8378814

>  <r_qp_mol_MW>  (574) 
443.60599999999999

>  <r_qp_volume>  (574) 
1383.328

>  <r_sd_BIOSOLVEIT.INFINISEE\_FTREES\_SIMILARITY>  (574) 
0.90600000000000003

>  <r_sd_BIOSOLVEIT.LOGP>  (574) 
5.1249200000000004

>  <r_sd_BIOSOLVEIT.MOLECULAR\_WEIGHT>  (574) 
444.61900000000003

>  <r_sd_BIOSOLVEIT.TPSA>  (574) 
51.189999999999998

>  <i_epik_Tot_Q>  (574) 
2

>  <i_epik_Tot_abs_Q>  (574) 
2

>  <i_f3d_flags>  (574) 
0

>  <i_i_glide_confnum>  (574) 
7

>  <i_i_glide_lignum>  (574) 
1277

>  <i_i_glide_posenum>  (574) 
9

>  <i_i_glide_rotatable_bonds>  (574) 
9

>  <i_lp_mmshare_version>  (574) 
65135

>  <i_m_ct_format>  (574) 
2

>  <i_m_source_file_index>  (574) 
2803

>  <i_qp_#NandO>  (574) 
4

>  <i_qp_#acid>  (574) 
0

>  <i_qp_#amide>  (574) 
0

>  <i_qp_#amidine>  (574) 
0

>  <i_qp_#amine>  (574) 
2

>  <i_qp_#in34>  (574) 
0

>  <i_qp_#in56>  (574) 
21

>  <i_qp_#metab>  (574) 
7

>  <i_qp_#nonHatm>  (574) 
32

>  <i_qp_#noncon>  (574) 
0

>  <i_qp_#ringatoms>  (574) 
21

>  <i_qp_#rotor>  (574) 
9

>  <i_qp_#rtvFG>  (574) 
0

>  <i_qp_#stars>  (574) 
0

>  <i_qp_CNS>  (574) 
1

>  <i_qp_HumanOralAbsorption>  (574) 
3

>  <i_qp_RuleOfFive>  (574) 
0

>  <i_qp_RuleOfThree>  (574) 
1

>  <i_sd_BIOSOLVEIT.INFINISEE\_RESULT\_RANK>  (574) 
63824

>  <i_sd_version>  (574) 
0

>  <b_lp_Chiralities_Consistent>  (574) 
1

>  <b_sd_chiral_flag>  (574) 
0

>  <canonical_id>  (574) 
ATP-HTVS-593FD885E4E3

>  <compound_code>  (574) 
89665

>  <title>  (574) 
rxn512c____EMOL530647____EMOL523944____EMOL17023805

>  <variant>  (574) 
89665-2

>  <source_file>  (574) 
运行/运行/ATP-VSW/ATP-VSW-DOCK_HTVS_1-001_lib/ATP-VSW-DOCK_HTVS_1-001_lib

>  <canonical_smiles>  (574) 
CC[N@H+](Cc1ccccc1C)c1c(C(=O)N(CC[NH3+])c2ccccc2)sc2ccccc12

>  <scaffold>  (574) 
O=C(Nc1ccccc1)c1sc2ccccc2c1[NH2+]Cc1ccccc1

>  <molecular_formula>  (574) 
C27H31N3OS+2

$$$$
ATP-HTVS-595807F16B2C
     RDKit          3D

 57 59  0  0  0  0  0  0  0  0999 V2000
  202.3746  173.5910  154.9357 Cl  0  0  0  0  0  0  0  0  0  0  0  0
  201.6148  174.9624  154.2347 C   0  0  0  0  0  0  0  0  0  0  0  0
  201.4306  175.0395  152.4986 S   0  0  0  0  0  0  0  0  0  0  0  0
  200.5365  176.5361  152.6449 C   0  0  0  0  0  0  0  0  0  0  0  0
  200.0190  177.1179  151.3858 C   0  0  0  0  0  0  0  0  0  0  0  0
  200.5138  178.1738  150.9960 O   0  0  0  0  0  0  0  0  0  0  0  0
  198.9983  176.5030  150.7241 N   0  0  0  0  0  0  0  0  0  0  0  0
  198.4181  177.0857  149.4988 C   0  0  1  0  0  0  0  0  0  0  0  0
  198.0229  178.5105  149.6558 C   0  0  0  0  0  0  0  0  0  0  0  0
  197.7057  179.6187  149.7702 N   0  0  0  0  0  0  0  0  0  0  0  0
  199.2380  176.8193  148.2343 C   0  0  0  0  0  0  0  0  0  0  0  0
  200.0441  175.6588  148.1410 C   0  0  0  0  0  0  0  0  0  0  0  0
  200.8029  175.4001  146.9855 C   0  0  0  0  0  0  0  0  0  0  0  0
  200.7577  176.2940  145.9003 C   0  0  0  0  0  0  0  0  0  0  0  0
  199.9482  177.4417  145.9735 C   0  0  0  0  0  0  0  0  0  0  0  0
  199.1866  177.7005  147.1288 C   0  0  0  0  0  0  0  0  0  0  0  0
  198.3880  175.2146  151.1065 C   0  0  2  0  0  0  0  0  0  0  0  0
  200.5339  176.9984  153.9471 C   0  0  0  0  0  0  0  0  0  0  0  0
  200.0193  178.2453  154.3719 N   0  0  0  0  0  0  0  0  0  0  0  0
  199.6230  178.5260  155.7428 C   0  0  1  0  0  0  0  0  0  0  0  0
  199.2832  179.9839  155.9819 C   0  0  0  0  0  0  0  0  0  0  0  0
  197.9406  180.3731  156.1523 C   0  0  0  0  0  0  0  0  0  0  0  0
  197.6070  181.7205  156.4076 C   0  0  0  0  0  0  0  0  0  0  0  0
  198.6329  182.6880  156.4714 C   0  0  0  0  0  0  0  0  0  0  0  0
  199.9763  182.3059  156.2932 C   0  0  0  0  0  0  0  0  0  0  0  0
  200.3028  180.9569  156.0514 C   0  0  0  0  0  0  0  0  0  0  0  0
  196.1548  182.1214  156.6177 C   0  0  1  0  0  0  0  0  0  0  0  0
  195.6671  181.8378  157.9908 N   0  0  1  0  0  0  0  0  0  0  0  0
  196.4121  182.5535  159.0500 C   0  0  2  0  0  0  0  0  0  0  0  0
  194.2086  182.0402  158.1271 C   0  0  2  0  0  0  0  0  0  0  0  0
  201.1250  176.0705  154.8663 C   0  0  0  0  0  0  0  0  0  0  0  0
  197.4562  176.6122  149.3092 H   0  0  0  0  0  0  0  0  0  0  0  0
  200.0967  174.9461  148.9500 H   0  0  0  0  0  0  0  0  0  0  0  0
  201.4162  174.5124  146.9336 H   0  0  0  0  0  0  0  0  0  0  0  0
  201.3333  176.0969  145.0087 H   0  0  0  0  0  0  0  0  0  0  0  0
  199.9072  178.1168  145.1285 H   0  0  0  0  0  0  0  0  0  0  0  0
  198.5636  178.5841  147.1486 H   0  0  0  0  0  0  0  0  0  0  0  0
  199.0518  174.5416  151.6562 H   0  0  0  0  0  0  0  0  0  0  0  0
  198.0745  174.6445  150.2225 H   0  0  0  0  0  0  0  0  0  0  0  0
  197.5049  175.3940  151.7207 H   0  0  0  0  0  0  0  0  0  0  0  0
  199.8263  178.9607  153.6829 H   0  0  0  0  0  0  0  0  0  0  0  0
  198.7608  177.9053  155.9891 H   0  0  0  0  0  0  0  0  0  0  0  0
  200.4140  178.2460  156.4398 H   0  0  0  0  0  0  0  0  0  0  0  0
  197.1612  179.6257  156.1218 H   0  0  0  0  0  0  0  0  0  0  0  0
  198.3916  183.7254  156.6610 H   0  0  0  0  0  0  0  0  0  0  0  0
  200.7572  183.0508  156.3432 H   0  0  0  0  0  0  0  0  0  0  0  0
  201.3356  180.6657  155.9217 H   0  0  0  0  0  0  0  0  0  0  0  0
  196.0216  183.1792  156.3878 H   0  0  0  0  0  0  0  0  0  0  0  0
  195.5536  181.5648  155.8983 H   0  0  0  0  0  0  0  0  0  0  0  0
  196.3334  183.6339  158.9193 H   0  0  0  0  0  0  0  0  0  0  0  0
  197.4678  182.2836  159.0544 H   0  0  0  0  0  0  0  0  0  0  0  0
  196.0117  182.3065  160.0325 H   0  0  0  0  0  0  0  0  0  0  0  0
  193.9416  183.0844  157.9580 H   0  0  0  0  0  0  0  0  0  0  0  0
  193.8585  181.7455  159.1167 H   0  0  0  0  0  0  0  0  0  0  0  0
  193.6734  181.4361  157.3952 H   0  0  0  0  0  0  0  0  0  0  0  0
  201.1885  176.2429  155.9267 H   0  0  0  0  0  0  0  0  0  0  0  0
  195.8110  180.8316  158.1168 H   0  0  0  0  0  0  0  0  0  0  0  0
  1  2  1  0
  2  3  1  0
  2 31  2  0
  3  4  1  0
  4  5  1  0
  4 18  2  0
  5  6  2  0
  5  7  1  0
  7  8  1  0
  7 17  1  0
  8  9  1  0
  8 11  1  0
  8 32  1  6
  9 10  3  0
 11 12  2  0
 11 16  1  0
 12 13  1  0
 12 33  1  0
 13 14  2  0
 13 34  1  0
 14 15  1  0
 14 35  1  0
 15 16  2  0
 15 36  1  0
 16 37  1  0
 17 38  1  1
 17 39  1  0
 17 40  1  0
 18 19  1  0
 18 31  1  0
 19 20  1  0
 19 41  1  0
 20 21  1  0
 20 42  1  1
 20 43  1  0
 21 22  2  0
 21 26  1  0
 22 23  1  0
 22 44  1  0
 23 24  2  0
 23 27  1  0
 24 25  1  0
 24 45  1  0
 25 26  2  0
 25 46  1  0
 26 47  1  0
 27 28  1  0
 27 48  1  6
 27 49  1  0
 28 29  1  0
 28 30  1  0
 28 57  1  1
 29 50  1  6
 29 51  1  0
 29 52  1  0
 30 53  1  6
 30 54  1  0
 30 55  1  0
 31 56  1  0
M  CHG  1  28   1
M  END
>  <s_epik_cmdline>  (575) 
J2VwaWtfcHl0aG9uJywgJy1waCcsICc3LjAwMDAwMCcsICctcGh0JywgJzIuMDAwMDAwJywgJy1tcycsICcxNicsICctdG4nLCAnOCcsICctbWEnLCAnMjAwJywgJy1pbWFlJywgJzxpbmZpbGUubWFlPicsICctb21hZScsICc8b3V0ZmlsZS5tYWU+Jw==

>  <s_epik_input>  (575) 
W2NIXTFbY0hdW2NIXWMoW0NIMl1OKFtDSDNdKVtDSDNdKVtjSF1jMVtDSDJdW05IXWMoW2NIXTIpYyhzYzJDbClDKD1PKU4oW0NIM10pW0NAQEhdKEMjTiljM1tjSF1bY0hdW2NIXVtjSF1bY0hdMw==

>  <s_i_glide_gridfile>  (575) 
ATP-Grid

>  <s_lp_Force_Field>  (575) 
OPLS_2005

>  <s_lp_Variant>  (575) 
rxn512b____EMOL24630243____EMOL49851977____EMOL2873214-1

>  <s_lp_label>  (575) 
2307_sdstereoexpander_1_neutralizer_1_epik_1_stereoizer_1

>  <s_m_source_file>  (575) 
ATP-VSW-LIGPREP-003-in.maegz

>  <s_sd_BIOSOLVEIT.INFINISEE\_QUERY\_NAME>  (575) 
Ref-Lig

>  <s_sd_BIOSOLVEIT.INFINISEE\_QUERY\_SMILES>  (575) 
S(c1nc2c(cc1C[NH2+]Cc3ccc(cc3)C[NH+](C)C)cccc2)Cc4ccccc4

>  <s_sd_BIOSOLVEIT.INFINISEE\_REACTION\_NAME>  (575) 
rxn512b

>  <s_sd_BIOSOLVEIT.INFINISEE\_REAGENT1\_NAME>  (575) 
EMOL24630243

>  <s_sd_BIOSOLVEIT.INFINISEE\_REAGENT1\_SMILES>  (575) 
N#CC(NC)c1ccccc1

>  <s_sd_BIOSOLVEIT.INFINISEE\_REAGENT2\_NAME>  (575) 
EMOL49851977

>  <s_sd_BIOSOLVEIT.INFINISEE\_REAGENT2\_SMILES>  (575) 
BrC1=C(SC(Cl)=C1)C(=O)O

>  <s_sd_BIOSOLVEIT.INFINISEE\_REAGENT3\_NAME>  (575) 
EMOL2873214

>  <s_sd_BIOSOLVEIT.INFINISEE\_REAGENT3\_SMILES>  (575) 
N(Cc1cc(ccc1)CN)(C)C

>  <s_sd_BIOSOLVEIT.INFINISEE\_SPACE>  (575) 
eXplore_7tr_2022-12

>  <s_vsw_compound_code>  (575) 
73795

>  <s_vsw_variant>  (575) 
73795-1

>  <r_epik_Charging_Adjusted_Penalty>  (575) 
0.086140609825027206

>  <r_epik_Ionization_Penalty>  (575) 
0.043499999999999997

>  <r_epik_Ionization_Penalty_Charging>  (575) 
0.043099999999999999

>  <r_epik_Ionization_Penalty_Neutral>  (575) 
0.00050000000000000001

>  <r_epik_State_Penalty>  (575) 
0.043099999999999999

>  <r_i_docking_score>  (575) 
-4.5039240693478098

>  <r_i_glide_ecoul>  (575) 
-9.7864732742309606

>  <r_i_glide_eff_state_penalty>  (575) 
0.043099999999999999

>  <r_i_glide_einternal>  (575) 
4.8961343765258798

>  <r_i_glide_emodel>  (575) 
-59.642747887897798

>  <r_i_glide_energy>  (575) 
-43.867821693420403

>  <r_i_glide_erotb>  (575) 
0.68184292590448703

>  <r_i_glide_esite>  (575) 
-0.10603754276590199

>  <r_i_glide_evdw>  (575) 
-34.081348419189503

>  <r_i_glide_gscore>  (575) 
-4.5470240693478097

>  <r_i_glide_hbond>  (575) 
-0.20000000000000001

>  <r_i_glide_ligand_efficiency>  (575) 
-0.14528787320476799

>  <r_i_glide_ligand_efficiency_ln>  (575) 
-1.0157729063340399

>  <r_i_glide_ligand_efficiency_sa>  (575) 
-0.456404513390123

>  <r_i_glide_lipo>  (575) 
-1.06285946273712

>  <r_i_glide_metal>  (575) 
-0

>  <r_i_glide_rewards>  (575) 
-0.687931577655157

>  <r_lp_Energy>  (575) 
27.777227

>  <r_lp_tautomer_probability>  (575) 
0.99999274205267796

>  <r_qp_ACxDN^.5/SA>  (575) 
0

>  <r_qp_CIQPlogS>  (575) 
-5.601

>  <r_qp_EA(eV)>  (575) 
0.69399999999999995

>  <r_qp_FISA>  (575) 
90.138999999999996

>  <r_qp_FOSA>  (575) 
264.99599999999998

>  <r_qp_IP(eV)>  (575) 
8.4060000000000006

>  <r_qp_Jm>  (575) 
1.1426847991022999e-05

>  <r_qp_PISA>  (575) 
318.75700000000001

>  <r_qp_PSA>  (575) 
64.549999999999997

>  <r_qp_PercentHumanOralAbsorption>  (575) 
88.302000000000007

>  <r_qp_QPPCaco>  (575) 
86.081999999999994

>  <r_qp_QPPMDCK>  (575) 
174.48599999999999

>  <r_qp_QPlogBB>  (575) 
0.106

>  <r_qp_QPlogHERG>  (575) 
-8.0530000000000008

>  <r_qp_QPlogKhsa>  (575) 
0.64200000000000002

>  <r_qp_QPlogKp>  (575) 
-5.319

>  <r_qp_QPlogPC16>  (575) 
15.281000000000001

>  <r_qp_QPlogPo/w>  (575) 
4.5640000000000001

>  <r_qp_QPlogPoct>  (575) 
20.677

>  <r_qp_QPlogPw>  (575) 
8.8469999999999995

>  <r_qp_QPlogS>  (575) 
-5.2789999999999999

>  <r_qp_QPpolrz>  (575) 
48.246000000000002

>  <r_qp_SASA>  (575) 
785.40899999999999

>  <r_qp_SAamideO>  (575) 
0

>  <r_qp_SAfluorine>  (575) 
0

>  <r_qp_WPSA>  (575) 
111.51600000000001

>  <r_qp_accptHB>  (575) 
6.5

>  <r_qp_dip^2/V>  (575) 
0.064992400000000006

>  <r_qp_dipole>  (575) 
9.6329999999999991

>  <r_qp_donorHB>  (575) 
0

>  <r_qp_glob>  (575) 
0.78069909999999998

>  <r_qp_mol_MW>  (575) 
453.00099999999998

>  <r_qp_volume>  (575) 
1427.6489999999999

>  <r_sd_BIOSOLVEIT.INFINISEE\_FTREES\_SIMILARITY>  (575) 
0.92200000000000004

>  <r_sd_BIOSOLVEIT.LOGP>  (575) 
3.99498

>  <r_sd_BIOSOLVEIT.MOLECULAR\_WEIGHT>  (575) 
454.01400000000001

>  <r_sd_BIOSOLVEIT.TPSA>  (575) 
60.57

>  <i_epik_Tot_Q>  (575) 
1

>  <i_epik_Tot_abs_Q>  (575) 
1

>  <i_f3d_flags>  (575) 
0

>  <i_i_glide_confnum>  (575) 
8

>  <i_i_glide_lignum>  (575) 
943

>  <i_i_glide_posenum>  (575) 
12

>  <i_i_glide_rotatable_bonds>  (575) 
9

>  <i_lp_mmshare_version>  (575) 
65135

>  <i_m_ct_format>  (575) 
2

>  <i_m_source_file_index>  (575) 
2307

>  <i_qp_#NandO>  (575) 
5

>  <i_qp_#acid>  (575) 
0

>  <i_qp_#amide>  (575) 
0

>  <i_qp_#amidine>  (575) 
0

>  <i_qp_#amine>  (575) 
2

>  <i_qp_#in34>  (575) 
0

>  <i_qp_#in56>  (575) 
17

>  <i_qp_#metab>  (575) 
7

>  <i_qp_#nonHatm>  (575) 
31

>  <i_qp_#noncon>  (575) 
0

>  <i_qp_#ringatoms>  (575) 
17

>  <i_qp_#rotor>  (575) 
9

>  <i_qp_#rtvFG>  (575) 
0

>  <i_qp_#stars>  (575) 
0

>  <i_qp_CNS>  (575) 
1

>  <i_qp_HumanOralAbsorption>  (575) 
3

>  <i_qp_RuleOfFive>  (575) 
0

>  <i_qp_RuleOfThree>  (575) 
1

>  <i_sd_BIOSOLVEIT.INFINISEE\_RESULT\_RANK>  (575) 
12300

>  <i_sd_version>  (575) 
0

>  <b_lp_Chiralities_Consistent>  (575) 
1

>  <b_sd_chiral_flag>  (575) 
0

>  <canonical_id>  (575) 
ATP-HTVS-595807F16B2C

>  <compound_code>  (575) 
73795

>  <title>  (575) 
rxn512b____EMOL24630243____EMOL49851977____EMOL2873214

>  <variant>  (575) 
73795-1

>  <source_file>  (575) 
运行/运行/ATP-VSW/ATP-VSW-DOCK_HTVS_1-003_lib/ATP-VSW-DOCK_HTVS_1-003_lib.mae

>  <canonical_smiles>  (575) 
CN(C(=O)c1sc(Cl)cc1NCc1cccc(C[NH+](C)C)c1)[C@@H](C#N)c1ccccc1

>  <scaffold>  (575) 
O=C(NCc1ccccc1)c1sccc1NCc1ccccc1

>  <molecular_formula>  (575) 
C24H26ClN4OS+

$$$$
ATP-HTVS-5993E100A2C1
     RDKit          3D

 66 69  0  0  0  0  0  0  0  0999 V2000
  196.8197  179.4832  154.6532 O   0  0  0  0  0  0  0  0  0  0  0  0
  197.9064  180.0197  154.4518 C   0  0  0  0  0  0  0  0  0  0  0  0
  198.9385  179.2896  153.9373 N   0  0  0  0  0  0  0  0  0  0  0  0
  199.6541  178.3492  154.7800 C   0  0  0  0  0  0  0  0  0  0  0  0
  200.4053  177.2867  154.1992 C   0  0  0  0  0  0  0  0  0  0  0  0
  201.1000  176.3653  155.0139 C   0  0  0  0  0  0  0  0  0  0  0  0
  201.0819  176.4899  156.4137 C   0  0  0  0  0  0  0  0  0  0  0  0
  200.3600  177.5416  157.0025 C   0  0  0  0  0  0  0  0  0  0  0  0
  199.6522  178.4558  156.1966 C   0  0  0  0  0  0  0  0  0  0  0  0
  200.4861  177.1561  152.7308 C   0  0  0  0  0  0  0  0  0  0  0  0
  201.0414  176.2113  152.1694 O   0  0  0  0  0  0  0  0  0  0  0  0
  199.8640  178.2343  151.9612 C   0  0  0  0  0  0  0  0  0  0  0  0
  199.1045  179.2014  152.5238 C   0  0  0  0  0  0  0  0  0  0  0  0
  198.5558  180.2081  151.5894 C   0  0  0  0  0  0  0  0  0  0  0  0
  197.1582  180.3039  151.3860 C   0  0  0  0  0  0  0  0  0  0  0  0
  196.6438  181.3227  150.5651 C   0  0  0  0  0  0  0  0  0  0  0  0
  197.5115  182.1962  149.8784 C   0  0  0  0  0  0  0  0  0  0  0  0
  198.9046  182.0608  150.0269 C   0  0  0  0  0  0  0  0  0  0  0  0
  199.4258  181.0697  150.8853 C   0  0  0  0  0  0  0  0  0  0  0  0
  198.0659  181.5425  154.7645 C   0  0  1  0  0  0  0  0  0  0  0  0
  197.5644  181.8070  156.2179 C   0  0  1  0  0  0  0  0  0  0  0  0
  196.7745  183.0349  156.3371 N   0  0  0  0  0  0  0  0  0  0  0  0
  196.9208  183.8087  157.4788 C   0  0  0  0  0  0  0  0  0  0  0  0
  196.2855  183.4491  158.6877 C   0  0  0  0  0  0  0  0  0  0  0  0
  196.4219  184.2861  159.8175 C   0  0  0  0  0  0  0  0  0  0  0  0
  197.1837  185.4684  159.7390 C   0  0  0  0  0  0  0  0  0  0  0  0
  197.8171  185.8240  158.5376 C   0  0  0  0  0  0  0  0  0  0  0  0
  197.6845  184.9937  157.4037 C   0  0  0  0  0  0  0  0  0  0  0  0
  195.4234  182.1911  158.7751 C   0  0  1  0  0  0  0  0  0  0  0  0
  194.0869  182.3486  158.1488 N   0  0  2  0  0  0  0  0  0  0  0  0
  193.3424  183.5299  158.6328 C   0  0  2  0  0  0  0  0  0  0  0  0
  193.2968  181.1057  158.2421 C   0  0  2  0  0  0  0  0  0  0  0  0
  199.5352  181.9859  154.6595 C   0  0  2  0  0  0  0  0  0  0  0  0
  197.2219  182.3692  153.7485 C   0  0  2  0  0  0  0  0  0  0  0  0
  201.6658  175.5569  154.5693 H   0  0  0  0  0  0  0  0  0  0  0  0
  201.6285  175.7874  157.0301 H   0  0  0  0  0  0  0  0  0  0  0  0
  200.3452  177.6437  158.0767 H   0  0  0  0  0  0  0  0  0  0  0  0
  199.1046  179.2328  156.7106 H   0  0  0  0  0  0  0  0  0  0  0  0
  200.0213  178.2260  150.8918 H   0  0  0  0  0  0  0  0  0  0  0  0
  196.4820  179.6572  151.9143 H   0  0  0  0  0  0  0  0  0  0  0  0
  195.5755  181.4607  150.5042 H   0  0  0  0  0  0  0  0  0  0  0  0
  197.1119  183.0015  149.2791 H   0  0  0  0  0  0  0  0  0  0  0  0
  199.5682  182.7512  149.5347 H   0  0  0  0  0  0  0  0  0  0  0  0
  200.4951  181.0097  151.0387 H   0  0  0  0  0  0  0  0  0  0  0  0
  196.9165  180.9944  156.5415 H   0  0  0  0  0  0  0  0  0  0  0  0
  198.3877  181.8196  156.9434 H   0  0  0  0  0  0  0  0  0  0  0  0
  195.8503  182.9888  155.9198 H   0  0  0  0  0  0  0  0  0  0  0  0
  195.9351  184.0255  160.7443 H   0  0  0  0  0  0  0  0  0  0  0  0
  197.2833  186.1071  160.6048 H   0  0  0  0  0  0  0  0  0  0  0  0
  198.4042  186.7325  158.4728 H   0  0  0  0  0  0  0  0  0  0  0  0
  198.1515  185.2697  156.4687 H   0  0  0  0  0  0  0  0  0  0  0  0
  195.9503  181.3538  158.3275 H   0  0  0  0  0  0  0  0  0  0  0  0
  195.3377  181.9097  159.8202 H   0  0  0  0  0  0  0  0  0  0  0  0
  193.2003  183.5548  159.7146 H   0  0  0  0  0  0  0  0  0  0  0  0
  192.3613  183.5421  158.1611 H   0  0  0  0  0  0  0  0  0  0  0  0
  193.8514  184.4603  158.3686 H   0  0  0  0  0  0  0  0  0  0  0  0
  193.0910  180.8181  159.2759 H   0  0  0  0  0  0  0  0  0  0  0  0
  193.8256  180.2792  157.7710 H   0  0  0  0  0  0  0  0  0  0  0  0
  192.3462  181.2062  157.7154 H   0  0  0  0  0  0  0  0  0  0  0  0
  199.9169  181.8428  153.6489 H   0  0  0  0  0  0  0  0  0  0  0  0
  200.1764  181.4177  155.3367 H   0  0  0  0  0  0  0  0  0  0  0  0
  199.6381  183.0435  154.9042 H   0  0  0  0  0  0  0  0  0  0  0  0
  197.6636  182.3646  152.7646 H   0  0  0  0  0  0  0  0  0  0  0  0
  197.1581  183.4348  153.9856 H   0  0  0  0  0  0  0  0  0  0  0  0
  196.1913  182.0012  153.6952 H   0  0  0  0  0  0  0  0  0  0  0  0
  194.1830  182.5115  157.1397 H   0  0  0  0  0  0  0  0  0  0  0  0
  1  2  2  0
  2  3  1  0
 20  2  1  6
  3  4  1  0
  3 13  1  0
  4  5  1  0
  4  9  2  0
  5  6  2  0
  5 10  1  0
  6  7  1  0
  6 35  1  0
  7  8  2  0
  7 36  1  0
  8  9  1  0
  8 37  1  0
  9 38  1  0
 10 11  2  0
 10 12  1  0
 12 13  2  0
 12 39  1  0
 13 14  1  0
 14 15  2  0
 14 19  1  0
 15 16  1  0
 15 40  1  0
 16 17  2  0
 16 41  1  0
 17 18  1  0
 17 42  1  0
 18 19  2  0
 18 43  1  0
 19 44  1  0
 20 21  1  0
 20 33  1  0
 20 34  1  0
 21 22  1  0
 21 45  1  1
 21 46  1  0
 22 23  1  0
 22 47  1  0
 23 24  1  0
 23 28  2  0
 24 25  2  0
 24 29  1  0
 25 26  1  0
 25 48  1  0
 26 27  2  0
 26 49  1  0
 27 28  1  0
 27 50  1  0
 28 51  1  0
 29 30  1  0
 29 52  1  6
 29 53  1  0
 30 31  1  0
 30 32  1  0
 30 66  1  6
 31 54  1  1
 31 55  1  0
 31 56  1  0
 32 57  1  1
 32 58  1  0
 32 59  1  0
 33 60  1  6
 33 61  1  0
 33 62  1  0
 34 63  1  6
 34 64  1  0
 34 65  1  0
M  CHG  1  30   1
M  END
>  <s_epik_cmdline>  (576) 
J2VwaWtfcHl0aG9uJywgJy1waCcsICc3LjAwMDAwMCcsICctcGh0JywgJzIuMDAwMDAwJywgJy1tcycsICcxNicsICctdG4nLCAnOCcsICctbWEnLCAnMjAwJywgJy1pbWFlJywgJzxpbmZpbGUubWFlPicsICctb21hZScsICc8b3V0ZmlsZS5tYWU+Jw==

>  <s_epik_input>  (576) 
W2NIXTFbY0hdW2NIXVtjSF1jKFtDSDJdTihbQ0gzXSlbQ0gzXSljMVtOSF1bQ0gyXUMoW0NIM10pKFtDSDNdKUMoPU8pbjJjKC1jM1tjSF1bY0hdW2NIXVtjSF1bY0hdMylbY0hdYyg9TyljKGMyNClbY0hdW2NIXVtjSF1bY0hdNA==

>  <s_i_glide_gridfile>  (576) 
ATP-Grid

>  <s_lp_Force_Field>  (576) 
OPLS_2005

>  <s_lp_Variant>  (576) 
rxn514b____EMOL2739194____EMOL17362570____EMOL975590-1

>  <s_lp_label>  (576) 
2958_sdstereoexpander_1_neutralizer_1_epik_1_stereoizer_1

>  <s_m_source_file>  (576) 
ATP-VSW-LIGPREP-002-in.maegz

>  <s_sd_BIOSOLVEIT.INFINISEE\_QUERY\_NAME>  (576) 
Ref-Lig

>  <s_sd_BIOSOLVEIT.INFINISEE\_QUERY\_SMILES>  (576) 
S(c1nc2c(cc1C[NH2+]Cc3ccc(cc3)C[NH+](C)C)cccc2)Cc4ccccc4

>  <s_sd_BIOSOLVEIT.INFINISEE\_REACTION\_NAME>  (576) 
rxn514b

>  <s_sd_BIOSOLVEIT.INFINISEE\_REAGENT1\_NAME>  (576) 
EMOL2739194

>  <s_sd_BIOSOLVEIT.INFINISEE\_REAGENT1\_SMILES>  (576) 
O=C1c2c(NC(c3ccccc3)=C1)cccc2

>  <s_sd_BIOSOLVEIT.INFINISEE\_REAGENT2\_NAME>  (576) 
EMOL17362570

>  <s_sd_BIOSOLVEIT.INFINISEE\_REAGENT2\_SMILES>  (576) 
O=C(OC(C)(C)C)NCC(C(=O)O)(C)C

>  <s_sd_BIOSOLVEIT.INFINISEE\_REAGENT3\_NAME>  (576) 
EMOL975590

>  <s_sd_BIOSOLVEIT.INFINISEE\_REAGENT3\_SMILES>  (576) 
Brc1c(cccc1)CN(C)C

>  <s_sd_BIOSOLVEIT.INFINISEE\_SPACE>  (576) 
eXplore_7tr_2022-12

>  <s_vsw_compound_code>  (576) 
94626

>  <s_vsw_variant>  (576) 
94626-1

>  <r_epik_Charging_Adjusted_Penalty>  (576) 
0.080528411329947203

>  <r_epik_Ionization_Penalty>  (576) 
0.040300000000000002

>  <r_epik_Ionization_Penalty_Charging>  (576) 
0.040300000000000002

>  <r_epik_Ionization_Penalty_Neutral>  (576) 
0

>  <r_epik_State_Penalty>  (576) 
0.040300000000000002

>  <r_i_docking_score>  (576) 
-4.4255157884551499

>  <r_i_glide_ecoul>  (576) 
-8.5533533096313494

>  <r_i_glide_eff_state_penalty>  (576) 
0.040300000000000002

>  <r_i_glide_einternal>  (576) 
17.847852706909201

>  <r_i_glide_emodel>  (576) 
-54.0016626074489

>  <r_i_glide_energy>  (576) 
-45.3325548171997

>  <r_i_glide_erotb>  (576) 
0.68027403425459898

>  <r_i_glide_esite>  (576) 
-0.18633502941017299

>  <r_i_glide_evdw>  (576) 
-36.779201507568402

>  <r_i_glide_gscore>  (576) 
-4.4658157884551501

>  <r_i_glide_hbond>  (576) 
-0.28084126128686698

>  <r_i_glide_ligand_efficiency>  (576) 
-0.13016222907221001

>  <r_i_glide_ligand_efficiency_ln>  (576) 
-0.97772056918299299

>  <r_i_glide_ligand_efficiency_sa>  (576) 
-0.42167509288725602

>  <r_i_glide_lipo>  (576) 
-1.24729100564413

>  <r_i_glide_metal>  (576) 
-0

>  <r_i_glide_rewards>  (576) 
-0.30965945454545302

>  <r_lp_Energy>  (576) 
55.148848000000001

>  <r_qp_ACxDN^.5/SA>  (576) 
0

>  <r_qp_CIQPlogS>  (576) 
-5.7290000000000001

>  <r_qp_EA(eV)>  (576) 
0.74299999999999999

>  <r_qp_FISA>  (576) 
73.905000000000001

>  <r_qp_FOSA>  (576) 
217.13300000000001

>  <r_qp_IP(eV)>  (576) 
8.4060000000000006

>  <r_qp_Jm>  (576) 
0.227202762183533

>  <r_qp_PISA>  (576) 
409.66899999999998

>  <r_qp_PSA>  (576) 
56.271999999999998

>  <r_qp_PercentHumanOralAbsorption>  (576) 
100

>  <r_qp_QPPCaco>  (576) 
491.99599999999998

>  <r_qp_QPPMDCK>  (576) 
254.25899999999999

>  <r_qp_QPlogBB>  (576) 
-0.127

>  <r_qp_QPlogHERG>  (576) 
-6.4859999999999998

>  <r_qp_QPlogKhsa>  (576) 
0.48199999999999998

>  <r_qp_QPlogKp>  (576) 
-2.8290000000000002

>  <r_qp_QPlogPC16>  (576) 
14.449999999999999

>  <r_qp_QPlogPo/w>  (576) 
4.3929999999999998

>  <r_qp_QPlogPoct>  (576) 
20.312000000000001

>  <r_qp_QPlogPw>  (576) 
10.045999999999999

>  <r_qp_QPlogS>  (576) 
-3.4710000000000001

>  <r_qp_QPpolrz>  (576) 
48.875999999999998

>  <r_qp_SASA>  (576) 
700.70699999999999

>  <r_qp_SAamideO>  (576) 
0

>  <r_qp_SAfluorine>  (576) 
0

>  <r_qp_WPSA>  (576) 
0

>  <r_qp_accptHB>  (576) 
7

>  <r_qp_dip^2/V>  (576) 
0.0084965000000000006

>  <r_qp_dipole>  (576) 
3.4359999999999999

>  <r_qp_donorHB>  (576) 
0

>  <r_qp_glob>  (576) 
0.85945559999999999

>  <r_qp_mol_MW>  (576) 
453.58300000000003

>  <r_qp_volume>  (576) 
1389.607

>  <r_sd_BIOSOLVEIT.INFINISEE\_FTREES\_SIMILARITY>  (576) 
0.90300000000000002

>  <r_sd_BIOSOLVEIT.LOGP>  (576) 
4.0397999999999996

>  <r_sd_BIOSOLVEIT.MOLECULAR\_WEIGHT>  (576) 
454.59100000000001

>  <r_sd_BIOSOLVEIT.TPSA>  (576) 
53.850000000000001

>  <i_epik_Tot_Q>  (576) 
1

>  <i_epik_Tot_abs_Q>  (576) 
1

>  <i_f3d_flags>  (576) 
0

>  <i_i_glide_confnum>  (576) 
9

>  <i_i_glide_lignum>  (576) 
18

>  <i_i_glide_posenum>  (576) 
1

>  <i_i_glide_rotatable_bonds>  (576) 
8

>  <i_lp_mmshare_version>  (576) 
65135

>  <i_m_ct_format>  (576) 
2

>  <i_m_source_file_index>  (576) 
2958

>  <i_qp_#NandO>  (576) 
5

>  <i_qp_#acid>  (576) 
0

>  <i_qp_#amide>  (576) 
0

>  <i_qp_#amidine>  (576) 
0

>  <i_qp_#amine>  (576) 
1

>  <i_qp_#in34>  (576) 
0

>  <i_qp_#in56>  (576) 
22

>  <i_qp_#metab>  (576) 
6

>  <i_qp_#nonHatm>  (576) 
34

>  <i_qp_#noncon>  (576) 
0

>  <i_qp_#ringatoms>  (576) 
22

>  <i_qp_#rotor>  (576) 
7

>  <i_qp_#rtvFG>  (576) 
0

>  <i_qp_#stars>  (576) 
0

>  <i_qp_CNS>  (576) 
1

>  <i_qp_HumanOralAbsorption>  (576) 
3

>  <i_qp_RuleOfFive>  (576) 
0

>  <i_qp_RuleOfThree>  (576) 
0

>  <i_sd_BIOSOLVEIT.INFINISEE\_RESULT\_RANK>  (576) 
81090

>  <i_sd_version>  (576) 
0

>  <b_lp_Chiralities_Consistent>  (576) 
1

>  <b_sd_chiral_flag>  (576) 
0

>  <canonical_id>  (576) 
ATP-HTVS-5993E100A2C1

>  <compound_code>  (576) 
94626

>  <title>  (576) 
rxn514b____EMOL2739194____EMOL17362570____EMOL975590

>  <variant>  (576) 
94626-1

>  <source_file>  (576) 
运行/运行/ATP-VSW/ATP-VSW-DOCK_HTVS_1-003_lib/ATP-VSW-DOCK_HTVS_1-003_lib.mae

>  <canonical_smiles>  (576) 
C[NH+](C)Cc1ccccc1NCC(C)(C)C(=O)n1c(-c2ccccc2)cc(=O)c2ccccc21

>  <scaffold>  (576) 
O=C(CCNc1ccccc1)n1c(-c2ccccc2)cc(=O)c2ccccc21

>  <molecular_formula>  (576) 
C29H32N3O2+

$$$$
ATP-HTVS-59B1C5906543
     RDKit          3D

 57 59  0  0  0  0  0  0  0  0999 V2000
  199.2095  183.9319  159.0360 S   0  0  0  0  0  0  0  0  0  0  0  0
  197.7970  183.6212  158.0635 C   0  0  0  0  0  0  0  0  0  0  0  0
  196.5762  183.2563  158.7908 C   0  0  0  0  0  0  0  0  0  0  0  0
  196.5094  182.1629  159.3327 O   0  0  0  0  0  0  0  0  0  0  0  0
  195.5467  184.1286  158.8403 N   0  0  0  0  0  0  0  0  0  0  0  0
  195.8055  185.4994  159.1202 C   0  0  0  0  0  0  0  0  0  0  0  0
  195.4644  186.0604  160.3759 C   0  0  0  0  0  0  0  0  0  0  0  0
  195.7479  187.4131  160.6554 C   0  0  0  0  0  0  0  0  0  0  0  0
  196.3681  188.2208  159.6772 C   0  0  0  0  0  0  0  0  0  0  0  0
  196.7120  187.6727  158.4306 C   0  0  0  0  0  0  0  0  0  0  0  0
  196.4135  186.3300  158.1470 C   0  0  0  0  0  0  0  0  0  0  0  0
  194.1544  183.6666  158.8747 C   0  0  1  0  0  0  0  0  0  0  0  0
  193.9011  182.1768  158.4382 C   0  0  1  0  0  0  0  0  0  0  0  0
  192.7094  182.0207  157.7320 O   0  0  0  0  0  0  0  0  0  0  0  0
  198.0569  183.7295  156.7265 C   0  0  0  0  0  0  0  0  0  0  0  0
  197.1242  183.4996  155.6754 N   0  0  0  0  0  0  0  0  0  0  0  0
  197.5044  182.9669  154.3748 C   0  0  1  0  0  0  0  0  0  0  0  0
  198.3761  181.7139  154.4202 C   0  0  0  0  0  0  0  0  0  0  0  0
  199.6634  181.7205  153.8651 C   0  0  0  0  0  0  0  0  0  0  0  0
  200.4520  180.5549  153.9406 C   0  0  0  0  0  0  0  0  0  0  0  0
  199.9446  179.3712  154.5367 C   0  0  0  0  0  0  0  0  0  0  0  0
  198.6233  179.3590  155.0408 C   0  0  0  0  0  0  0  0  0  0  0  0
  197.8533  180.5374  155.0197 C   0  0  0  0  0  0  0  0  0  0  0  0
  200.8240  178.1292  154.6816 C   0  0  1  0  0  0  0  0  0  0  0  0
  201.1281  177.7410  156.0864 N   0  0  2  0  0  0  0  0  0  0  0  0
  200.0699  176.9373  156.7352 C   0  0  2  0  0  0  0  0  0  0  0  0
  201.5779  178.8609  156.9388 C   0  0  2  0  0  0  0  0  0  0  0  0
  199.4043  184.1235  156.4627 C   0  0  0  0  0  0  0  0  0  0  0  0
  200.1462  184.2870  157.6095 C   0  0  0  0  0  0  0  0  0  0  0  0
  194.9981  185.4485  161.1366 H   0  0  0  0  0  0  0  0  0  0  0  0
  195.4753  187.8457  161.6071 H   0  0  0  0  0  0  0  0  0  0  0  0
  196.5639  189.2609  159.8836 H   0  0  0  0  0  0  0  0  0  0  0  0
  197.1787  188.2908  157.6743 H   0  0  0  0  0  0  0  0  0  0  0  0
  196.6726  185.9399  157.1748 H   0  0  0  0  0  0  0  0  0  0  0  0
  193.6935  183.8540  159.8445 H   0  0  0  0  0  0  0  0  0  0  0  0
  193.6444  184.3121  158.1666 H   0  0  0  0  0  0  0  0  0  0  0  0
  194.6488  181.8437  157.6968 H   0  0  0  0  0  0  0  0  0  0  0  0
  193.9508  181.4908  159.2930 H   0  0  0  0  0  0  0  0  0  0  0  0
  192.9090  182.2942  156.8179 H   0  0  0  0  0  0  0  0  0  0  0  0
  196.1551  183.3142  155.9306 H   0  0  0  0  0  0  0  0  0  0  0  0
  196.5876  182.6970  153.8425 H   0  0  0  0  0  0  0  0  0  0  0  0
  197.9893  183.7475  153.7737 H   0  0  0  0  0  0  0  0  0  0  0  0
  200.0549  182.6203  153.3779 H   0  0  0  0  0  0  0  0  0  0  0  0
  201.4541  180.5859  153.5333 H   0  0  0  0  0  0  0  0  0  0  0  0
  198.1995  178.4734  155.4828 H   0  0  0  0  0  0  0  0  0  0  0  0
  196.8815  180.5580  155.4782 H   0  0  0  0  0  0  0  0  0  0  0  0
  200.3813  177.3053  154.1199 H   0  0  0  0  0  0  0  0  0  0  0  0
  201.7709  178.3257  154.1819 H   0  0  0  0  0  0  0  0  0  0  0  0
  199.1653  177.5049  156.8850 H   0  0  0  0  0  0  0  0  0  0  0  0
  200.4413  176.5368  157.6862 H   0  0  0  0  0  0  0  0  0  0  0  0
  199.8415  176.0706  156.1215 H   0  0  0  0  0  0  0  0  0  0  0  0
  200.7947  179.6038  157.0720 H   0  0  0  0  0  0  0  0  0  0  0  0
  202.4434  179.3598  156.5083 H   0  0  0  0  0  0  0  0  0  0  0  0
  201.8639  178.5113  157.9279 H   0  0  0  0  0  0  0  0  0  0  0  0
  199.7699  184.2625  155.4621 H   0  0  0  0  0  0  0  0  0  0  0  0
  201.1768  184.6032  157.7028 H   0  0  0  0  0  0  0  0  0  0  0  0
  201.9359  177.1367  156.0149 H   0  0  0  0  0  0  0  0  0  0  0  0
  1  2  1  0
  1 29  1  0
  2  3  1  0
  2 15  2  0
  3  4  2  0
  3  5  1  0
  5  6  1  0
  5 12  1  0
  6  7  2  0
  6 11  1  0
  7  8  1  0
  7 30  1  0
  8  9  2  0
  8 31  1  0
  9 10  1  0
  9 32  1  0
 10 11  2  0
 10 33  1  0
 11 34  1  0
 12 13  1  0
 12 35  1  1
 12 36  1  0
 13 14  1  0
 13 37  1  6
 13 38  1  0
 14 39  1  0
 15 16  1  0
 15 28  1  0
 16 17  1  0
 16 40  1  0
 17 18  1  0
 17 41  1  6
 17 42  1  0
 18 19  1  0
 18 23  2  0
 19 20  2  0
 19 43  1  0
 20 21  1  0
 20 44  1  0
 21 22  2  0
 21 24  1  0
 22 23  1  0
 22 45  1  0
 23 46  1  0
 24 25  1  0
 24 47  1  6
 24 48  1  0
 25 26  1  0
 25 27  1  0
 25 57  1  6
 26 49  1  1
 26 50  1  0
 26 51  1  0
 27 52  1  1
 27 53  1  0
 27 54  1  0
 28 29  2  0
 28 55  1  0
 29 56  1  0
M  CHG  1  25   1
M  END
>  <s_epik_cmdline>  (577) 
J2VwaWtfcHl0aG9uJywgJy1waCcsICc3LjAwMDAwMCcsICctcGh0JywgJzIuMDAwMDAwJywgJy1tcycsICcxNicsICctdG4nLCAnOCcsICctbWEnLCAnMjAwJywgJy1pbWFlJywgJzxpbmZpbGUubWFlPicsICctb21hZScsICc8b3V0ZmlsZS5tYWU+Jw==

>  <s_epik_input>  (577) 
W2NIXTFbY0hdW2NIXVtjSF1bY0hdYzFOKFtDSDJdW0NIMl1bT0hdKUMoPU8pYzJzW2NIXVtjSF1jMltOSF1bQ0gyXWMzW2NIXVtjSF1jKFtjSF1bY0hdMylbQ0gyXU4oW0NIM10pW0NIM10=

>  <s_i_glide_gridfile>  (577) 
ATP-Grid

>  <s_lp_Force_Field>  (577) 
OPLS_2005

>  <s_lp_Variant>  (577) 
rxn512b____EMOL483896____EMOL525138____EMOL50155899-1

>  <s_lp_label>  (577) 
2302_sdstereoexpander_1_neutralizer_1_epik_1_stereoizer_1

>  <s_m_source_file>  (577) 
ATP-VSW-LIGPREP-003-in.maegz

>  <s_sd_BIOSOLVEIT.INFINISEE\_QUERY\_NAME>  (577) 
Ref-Lig

>  <s_sd_BIOSOLVEIT.INFINISEE\_QUERY\_SMILES>  (577) 
S(c1nc2c(cc1C[NH2+]Cc3ccc(cc3)C[NH+](C)C)cccc2)Cc4ccccc4

>  <s_sd_BIOSOLVEIT.INFINISEE\_REACTION\_NAME>  (577) 
rxn512b

>  <s_sd_BIOSOLVEIT.INFINISEE\_REAGENT1\_NAME>  (577) 
EMOL483896

>  <s_sd_BIOSOLVEIT.INFINISEE\_REAGENT1\_SMILES>  (577) 
OCCNc1ccccc1

>  <s_sd_BIOSOLVEIT.INFINISEE\_REAGENT2\_NAME>  (577) 
EMOL525138

>  <s_sd_BIOSOLVEIT.INFINISEE\_REAGENT2\_SMILES>  (577) 
BrC1=C(SC=C1)C(=O)O

>  <s_sd_BIOSOLVEIT.INFINISEE\_REAGENT3\_NAME>  (577) 
EMOL50155899

>  <s_sd_BIOSOLVEIT.INFINISEE\_REAGENT3\_SMILES>  (577) 
N(Cc1ccc(cc1)CN)(C)C

>  <s_sd_BIOSOLVEIT.INFINISEE\_SPACE>  (577) 
eXplore_7tr_2022-12

>  <s_vsw_compound_code>  (577) 
73635

>  <s_vsw_variant>  (577) 
73635-1

>  <r_epik_Charging_Adjusted_Penalty>  (577) 
0.080189274810459593

>  <r_epik_Ionization_Penalty>  (577) 
0.040099999999999997

>  <r_epik_Ionization_Penalty_Charging>  (577) 
0.040099999999999997

>  <r_epik_Ionization_Penalty_Neutral>  (577) 
0

>  <r_epik_State_Penalty>  (577) 
0.040099999999999997

>  <r_i_docking_score>  (577) 
-4.5731779515700204

>  <r_i_glide_ecoul>  (577) 
-10.2501821517944

>  <r_i_glide_eff_state_penalty>  (577) 
0.040099999999999997

>  <r_i_glide_einternal>  (577) 
15.835380554199199

>  <r_i_glide_emodel>  (577) 
-47.0474091345326

>  <r_i_glide_energy>  (577) 
-39.664368629455602

>  <r_i_glide_erotb>  (577) 
1.0519568372696899

>  <r_i_glide_esite>  (577) 
-0.026300385361859802

>  <r_i_glide_evdw>  (577) 
-29.414186477661101

>  <r_i_glide_gscore>  (577) 
-4.6132779515700202

>  <r_i_glide_hbond>  (577) 
-0.14009066116713501

>  <r_i_glide_ligand_efficiency>  (577) 
-0.157695791433449

>  <r_i_glide_ligand_efficiency_ln>  (577) 
-1.04714178512249

>  <r_i_glide_ligand_efficiency_sa>  (577) 
-0.484491432817023

>  <r_i_glide_lipo>  (577) 
-1.4430274032634101

>  <r_i_glide_metal>  (577) 
-0

>  <r_i_glide_rewards>  (577) 
-1.04757969239509

>  <r_lp_Energy>  (577) 
38.281416

>  <r_lp_tautomer_probability>  (577) 
0.99999274205267796

>  <r_qp_ACxDN^.5/SA>  (577) 
0.0096298000000000009

>  <r_qp_CIQPlogS>  (577) 
-3.7810000000000001

>  <r_qp_EA(eV)>  (577) 
0.35699999999999998

>  <r_qp_FISA>  (577) 
100.855

>  <r_qp_FOSA>  (577) 
289.47800000000001

>  <r_qp_IP(eV)>  (577) 
8.3100000000000005

>  <r_qp_Jm>  (577) 
0.0033053629724247601

>  <r_qp_PISA>  (577) 
275.23500000000001

>  <r_qp_PSA>  (577) 
66.825999999999993

>  <r_qp_PercentHumanOralAbsorption>  (577) 
79.177999999999997

>  <r_qp_QPPCaco>  (577) 
68.122

>  <r_qp_QPPMDCK>  (577) 
48.575000000000003

>  <r_qp_QPlogBB>  (577) 
-0.14999999999999999

>  <r_qp_QPlogHERG>  (577) 
-7.0910000000000002

>  <r_qp_QPlogKhsa>  (577) 
0.40400000000000003

>  <r_qp_QPlogKp>  (577) 
-5.5739999999999998

>  <r_qp_QPlogPC16>  (577) 
13.362

>  <r_qp_QPlogPo/w>  (577) 
3.3170000000000002

>  <r_qp_QPlogPoct>  (577) 
19.137

>  <r_qp_QPlogPw>  (577) 
9.8200000000000003

>  <r_qp_QPlogS>  (577) 
-2.5190000000000001

>  <r_qp_QPpolrz>  (577) 
42.021999999999998

>  <r_qp_SASA>  (577) 
695.75800000000004

>  <r_qp_SAamideO>  (577) 
0

>  <r_qp_SAfluorine>  (577) 
0

>  <r_qp_WPSA>  (577) 
30.190000000000001

>  <r_qp_accptHB>  (577) 
6.7000000000000002

>  <r_qp_dip^2/V>  (577) 
0.0186663

>  <r_qp_dipole>  (577) 
4.923

>  <r_qp_donorHB>  (577) 
1

>  <r_qp_glob>  (577) 
0.82733259999999997

>  <r_qp_mol_MW>  (577) 
409.54500000000002

>  <r_qp_volume>  (577) 
1298.5550000000001

>  <r_sd_BIOSOLVEIT.INFINISEE\_FTREES\_SIMILARITY>  (577) 
0.92300000000000004

>  <r_sd_BIOSOLVEIT.LOGP>  (577) 
2.6438000000000001

>  <r_sd_BIOSOLVEIT.MOLECULAR\_WEIGHT>  (577) 
410.55799999999999

>  <r_sd_BIOSOLVEIT.TPSA>  (577) 
57.009999999999998

>  <i_epik_Tot_Q>  (577) 
1

>  <i_epik_Tot_abs_Q>  (577) 
1

>  <i_f3d_flags>  (577) 
0

>  <i_i_glide_confnum>  (577) 
2

>  <i_i_glide_lignum>  (577) 
941

>  <i_i_glide_posenum>  (577) 
12

>  <i_i_glide_rotatable_bonds>  (577) 
11

>  <i_lp_mmshare_version>  (577) 
65135

>  <i_m_ct_format>  (577) 
2

>  <i_m_source_file_index>  (577) 
2302

>  <i_qp_#NandO>  (577) 
5

>  <i_qp_#acid>  (577) 
0

>  <i_qp_#amide>  (577) 
0

>  <i_qp_#amidine>  (577) 
0

>  <i_qp_#amine>  (577) 
2

>  <i_qp_#in34>  (577) 
0

>  <i_qp_#in56>  (577) 
17

>  <i_qp_#metab>  (577) 
7

>  <i_qp_#nonHatm>  (577) 
29

>  <i_qp_#noncon>  (577) 
0

>  <i_qp_#ringatoms>  (577) 
17

>  <i_qp_#rotor>  (577) 
10

>  <i_qp_#rtvFG>  (577) 
0

>  <i_qp_#stars>  (577) 
0

>  <i_qp_CNS>  (577) 
1

>  <i_qp_HumanOralAbsorption>  (577) 
2

>  <i_qp_RuleOfFive>  (577) 
0

>  <i_qp_RuleOfThree>  (577) 
1

>  <i_sd_BIOSOLVEIT.INFINISEE\_RESULT\_RANK>  (577) 
11820

>  <i_sd_version>  (577) 
0

>  <b_lp_Chiralities_Consistent>  (577) 
1

>  <b_sd_chiral_flag>  (577) 
0

>  <canonical_id>  (577) 
ATP-HTVS-59B1C5906543

>  <compound_code>  (577) 
73635

>  <title>  (577) 
rxn512b____EMOL483896____EMOL525138____EMOL50155899

>  <variant>  (577) 
73635-1

>  <source_file>  (577) 
运行/运行/ATP-VSW/ATP-VSW-DOCK_HTVS_1-003_lib/ATP-VSW-DOCK_HTVS_1-003_lib.mae

>  <canonical_smiles>  (577) 
C[NH+](C)Cc1ccc(CNc2ccsc2C(=O)N(CCO)c2ccccc2)cc1

>  <scaffold>  (577) 
O=C(Nc1ccccc1)c1sccc1NCc1ccccc1

>  <molecular_formula>  (577) 
C23H28N3O2S+

$$$$
ATP-HTVS-59B957CB7E9F
     RDKit          3D

 69 72  0  0  0  0  0  0  0  0999 V2000
  197.8096  183.9010  150.3994 S   0  0  0  0  0  0  0  0  0  0  0  0
  198.7513  185.1375  151.2102 C   0  0  0  0  0  0  0  0  0  0  0  0
  198.4896  185.1480  152.6200 C   0  0  0  0  0  0  0  0  0  0  0  0
  199.1243  186.1904  153.3464 C   0  0  0  0  0  0  0  0  0  0  0  0
  199.9940  187.1160  152.7361 C   0  0  0  0  0  0  0  0  0  0  0  0
  200.2580  187.0388  151.3571 C   0  0  0  0  0  0  0  0  0  0  0  0
  199.6287  186.0451  150.5922 C   0  0  0  0  0  0  0  0  0  0  0  0
  197.5822  184.0702  153.0062 C   0  0  0  0  0  0  0  0  0  0  0  0
  197.1420  183.8439  154.3320 N   0  0  0  0  0  0  0  0  0  0  0  0
  198.0474  183.8132  155.4793 C   0  0  1  0  0  0  0  0  0  0  0  0
  197.3327  183.7125  156.8101 C   0  0  0  0  0  0  0  0  0  0  0  0
  197.4649  184.7207  157.7770 C   0  0  0  0  0  0  0  0  0  0  0  0
  196.7841  184.6323  159.0055 C   0  0  0  0  0  0  0  0  0  0  0  0
  195.9789  183.5042  159.2779 C   0  0  0  0  0  0  0  0  0  0  0  0
  195.8443  182.4853  158.3156 C   0  0  0  0  0  0  0  0  0  0  0  0
  196.5156  182.5880  157.0827 C   0  0  0  0  0  0  0  0  0  0  0  0
  196.9394  185.7195  160.0377 C   0  0  1  0  0  0  0  0  0  0  0  0
  195.9243  186.8018  159.9338 N   0  0  2  0  0  0  0  0  0  0  0  0
  196.3689  188.1443  160.3806 C   0  0  1  0  0  0  0  0  0  0  0  0
  197.6243  188.6857  159.6751 C   0  0  2  0  0  0  0  0  0  0  0  0
  194.5897  186.4037  160.5052 C   0  0  1  0  0  0  0  0  0  0  0  0
  194.4639  186.5217  162.0324 C   0  0  2  0  0  0  0  0  0  0  0  0
  197.1691  183.3337  151.9138 C   0  0  0  0  0  0  0  0  0  0  0  0
  196.2503  182.1456  151.8955 C   0  0  1  0  0  0  0  0  0  0  0  0
  196.9668  180.8546  151.9404 N   0  0  0  0  0  0  0  0  0  0  0  0
  197.5546  180.3427  150.8447 C   0  0  0  0  0  0  0  0  0  0  0  0
  197.4969  180.8947  149.7357 O   0  0  0  0  0  0  0  0  0  0  0  0
  198.2847  179.0281  150.9137 C   0  0  0  0  0  0  0  0  0  0  0  0
  198.0205  178.0452  149.9436 C   0  0  0  0  0  0  0  0  0  0  0  0
  198.6507  176.7869  150.0173 C   0  0  0  0  0  0  0  0  0  0  0  0
  198.3581  175.8224  149.0972 O   0  0  0  0  0  0  0  0  0  0  0  0
  199.5605  176.5195  151.0557 C   0  0  0  0  0  0  0  0  0  0  0  0
  199.8728  177.5159  151.9956 C   0  0  0  0  0  0  0  0  0  0  0  0
  199.2585  178.8106  151.9125 C   0  0  0  0  0  0  0  0  0  0  0  0
  196.8056  180.1405  153.2155 C   0  0  2  0  0  0  0  0  0  0  0  0
  198.9219  186.3230  154.3989 H   0  0  0  0  0  0  0  0  0  0  0  0
  200.4509  187.8922  153.3328 H   0  0  0  0  0  0  0  0  0  0  0  0
  200.9136  187.7579  150.8898 H   0  0  0  0  0  0  0  0  0  0  0  0
  199.7988  185.9854  149.5273 H   0  0  0  0  0  0  0  0  0  0  0  0
  196.3358  183.2528  154.4356 H   0  0  0  0  0  0  0  0  0  0  0  0
  198.7423  182.9823  155.3709 H   0  0  0  0  0  0  0  0  0  0  0  0
  198.6671  184.7152  155.5262 H   0  0  0  0  0  0  0  0  0  0  0  0
  198.1136  185.5683  157.5826 H   0  0  0  0  0  0  0  0  0  0  0  0
  195.4715  183.4052  160.2256 H   0  0  0  0  0  0  0  0  0  0  0  0
  195.2290  181.6187  158.5141 H   0  0  0  0  0  0  0  0  0  0  0  0
  196.3961  181.8059  156.3508 H   0  0  0  0  0  0  0  0  0  0  0  0
  196.8649  185.2673  161.0237 H   0  0  0  0  0  0  0  0  0  0  0  0
  197.9760  186.0864  159.9587 H   0  0  0  0  0  0  0  0  0  0  0  0
  195.5486  188.8487  160.2060 H   0  0  0  0  0  0  0  0  0  0  0  0
  196.5683  188.1597  161.4509 H   0  0  0  0  0  0  0  0  0  0  0  0
  197.7983  189.7226  159.9759 H   0  0  0  0  0  0  0  0  0  0  0  0
  197.5204  188.6564  158.5894 H   0  0  0  0  0  0  0  0  0  0  0  0
  198.5222  188.1406  159.9653 H   0  0  0  0  0  0  0  0  0  0  0  0
  193.8091  187.0538  160.1363 H   0  0  0  0  0  0  0  0  0  0  0  0
  194.2962  185.4121  160.1702 H   0  0  0  0  0  0  0  0  0  0  0  0
  193.4439  186.2670  162.3442 H   0  0  0  0  0  0  0  0  0  0  0  0
  194.6581  187.5299  162.3932 H   0  0  0  0  0  0  0  0  0  0  0  0
  195.1470  185.8449  162.5378 H   0  0  0  0  0  0  0  0  0  0  0  0
  195.5417  182.2409  152.7142 H   0  0  0  0  0  0  0  0  0  0  0  0
  195.6140  182.1969  151.0089 H   0  0  0  0  0  0  0  0  0  0  0  0
  197.3224  178.2447  149.1405 H   0  0  0  0  0  0  0  0  0  0  0  0
  198.8669  175.0388  149.2153 H   0  0  0  0  0  0  0  0  0  0  0  0
  200.0197  175.5464  151.1463 H   0  0  0  0  0  0  0  0  0  0  0  0
  200.5706  177.3235  152.7939 H   0  0  0  0  0  0  0  0  0  0  0  0
  199.5209  179.5698  152.5993 H   0  0  0  0  0  0  0  0  0  0  0  0
  197.7033  179.5397  153.4886 H   0  0  0  0  0  0  0  0  0  0  0  0
  195.9510  179.4752  153.1527 H   0  0  0  0  0  0  0  0  0  0  0  0
  196.6137  180.8275  154.0366 H   0  0  0  0  0  0  0  0  0  0  0  0
  195.7729  186.8829  158.9313 H   0  0  0  0  0  0  0  0  0  0  0  0
  1  2  1  0
  1 23  1  0
  2  3  1  0
  2  7  2  0
  3  4  2  0
  3  8  1  0
  4  5  1  0
  4 36  1  0
  5  6  2  0
  5 37  1  0
  6  7  1  0
  6 38  1  0
  7 39  1  0
  8  9  1  0
  8 23  2  0
  9 10  1  0
  9 40  1  0
 10 11  1  0
 10 41  1  6
 10 42  1  0
 11 12  2  0
 11 16  1  0
 12 13  1  0
 12 43  1  0
 13 14  2  0
 13 17  1  0
 14 15  1  0
 14 44  1  0
 15 16  2  0
 15 45  1  0
 16 46  1  0
 17 18  1  0
 17 47  1  1
 17 48  1  0
 18 19  1  0
 18 21  1  0
 18 69  1  6
 19 20  1  0
 19 49  1  1
 19 50  1  0
 20 51  1  1
 20 52  1  0
 20 53  1  0
 21 22  1  0
 21 54  1  6
 21 55  1  0
 22 56  1  6
 22 57  1  0
 22 58  1  0
 23 24  1  0
 24 25  1  0
 24 59  1  1
 24 60  1  0
 25 26  1  0
 25 35  1  0
 26 27  2  0
 26 28  1  0
 28 29  1  0
 28 34  2  0
 29 30  2  0
 29 61  1  0
 30 31  1  0
 30 32  1  0
 31 62  1  0
 32 33  2  0
 32 63  1  0
 33 34  1  0
 33 64  1  0
 34 65  1  0
 35 66  1  1
 35 67  1  0
 35 68  1  0
M  CHG  1  18   1
M  END
>  <s_epik_cmdline>  (578) 
J2VwaWtfcHl0aG9uJywgJy1waCcsICc3LjAwMDAwMCcsICctcGh0JywgJzIuMDAwMDAwJywgJy1tcycsICcxNicsICctdG4nLCAnOCcsICctbWEnLCAnMjAwJywgJy1pbWFlJywgJzxpbmZpbGUubWFlPicsICctb21hZScsICc8b3V0ZmlsZS5tYWU+Jw==

>  <s_epik_input>  (578) 
W2NIXTFbY0hdW2NIXWMoW09IXSlbY0hdYzFDKD1PKU4oW0NIM10pW0NIMl1jKHMyKWMoYyhjMjMpW2NIXVtjSF1bY0hdW2NIXTMpW05IXVtDSDJdYzRbY0hdYyhbY0hdW2NIXVtjSF00KVtDSDJdTihbQ0gyXVtDSDNdKVtDSDJdW0NIM10=

>  <s_i_glide_gridfile>  (578) 
ATP-Grid

>  <s_lp_Force_Field>  (578) 
OPLS_2005

>  <s_lp_Variant>  (578) 
rxn502c____EMOL519605____EMOL49259969____EMOL44153840-1

>  <s_lp_label>  (578) 
2423_sdstereoexpander_1_neutralizer_1_epik_1_stereoizer_1

>  <s_m_source_file>  (578) 
ATP-VSW-LIGPREP-003-in.maegz

>  <s_sd_BIOSOLVEIT.INFINISEE\_QUERY\_NAME>  (578) 
Ref-Lig

>  <s_sd_BIOSOLVEIT.INFINISEE\_QUERY\_SMILES>  (578) 
S(c1nc2c(cc1C[NH2+]Cc3ccc(cc3)C[NH+](C)C)cccc2)Cc4ccccc4

>  <s_sd_BIOSOLVEIT.INFINISEE\_REACTION\_NAME>  (578) 
rxn502c

>  <s_sd_BIOSOLVEIT.INFINISEE\_REAGENT1\_NAME>  (578) 
EMOL519605

>  <s_sd_BIOSOLVEIT.INFINISEE\_REAGENT1\_SMILES>  (578) 
O=C(O)c1cc(O)ccc1

>  <s_sd_BIOSOLVEIT.INFINISEE\_REAGENT2\_NAME>  (578) 
EMOL49259969

>  <s_sd_BIOSOLVEIT.INFINISEE\_REAGENT2\_SMILES>  (578) 
ClC=1c2c(SC1CNC)cccc2

>  <s_sd_BIOSOLVEIT.INFINISEE\_REAGENT3\_NAME>  (578) 
EMOL44153840

>  <s_sd_BIOSOLVEIT.INFINISEE\_REAGENT3\_SMILES>  (578) 
N(Cc1cc(ccc1)CN)(CC)CC

>  <s_sd_BIOSOLVEIT.INFINISEE\_SPACE>  (578) 
eXplore_7tr_2022-12

>  <s_vsw_compound_code>  (578) 
77507

>  <s_vsw_variant>  (578) 
77507-1

>  <r_epik_Charging_Adjusted_Penalty>  (578) 
0.0350469874002165

>  <r_epik_Ionization_Penalty>  (578) 
0.021600000000000001

>  <r_epik_Ionization_Penalty_Charging>  (578) 
0.017500000000000002

>  <r_epik_Ionization_Penalty_Neutral>  (578) 
0.0041000000000000003

>  <r_epik_State_Penalty>  (578) 
0.017500000000000002

>  <r_i_docking_score>  (578) 
-3.8103488999800899

>  <r_i_glide_ecoul>  (578) 
-4.2571887969970703

>  <r_i_glide_eff_state_penalty>  (578) 
0.017500000000000002

>  <r_i_glide_einternal>  (578) 
5.1036810874939

>  <r_i_glide_emodel>  (578) 
-53.545840853516502

>  <r_i_glide_energy>  (578) 
-43.448366165161097

>  <r_i_glide_erotb>  (578) 
0.76652951921088397

>  <r_i_glide_esite>  (578) 
-0.025711317185708099

>  <r_i_glide_evdw>  (578) 
-39.191177368164098

>  <r_i_glide_gscore>  (578) 
-3.8278488999800899

>  <r_i_glide_hbond>  (578) 
0

>  <r_i_glide_ligand_efficiency>  (578) 
-0.108867111428003

>  <r_i_glide_ligand_efficiency_ln>  (578) 
-0.83645614968316295

>  <r_i_glide_ligand_efficiency_sa>  (578) 
-0.356111540057653

>  <r_i_glide_lipo>  (578) 
-1.82799476919113

>  <r_i_glide_metal>  (578) 
-0

>  <r_i_glide_rewards>  (578) 
-0.142535144856379

>  <r_lp_Energy>  (578) 
32.364668999999999

>  <r_lp_tautomer_probability>  (578) 
0.999999999997365

>  <r_qp_ACxDN^.5/SA>  (578) 
0.0126529

>  <r_qp_CIQPlogS>  (578) 
-5.5289999999999999

>  <r_qp_EA(eV)>  (578) 
0.61599999999999999

>  <r_qp_FISA>  (578) 
71.718000000000004

>  <r_qp_FOSA>  (578) 
316.06700000000001

>  <r_qp_IP(eV)>  (578) 
8.0470000000000006

>  <r_qp_Jm>  (578) 
0.0037438656140409898

>  <r_qp_PISA>  (578) 
330.54500000000002

>  <r_qp_PSA>  (578) 
58.494999999999997

>  <r_qp_PercentHumanOralAbsorption>  (578) 
91.504000000000005

>  <r_qp_QPPCaco>  (578) 
128.70500000000001

>  <r_qp_QPPMDCK>  (578) 
104.117

>  <r_qp_QPlogBB>  (578) 
0.094

>  <r_qp_QPlogHERG>  (578) 
-7.2919999999999998

>  <r_qp_QPlogKhsa>  (578) 
0.81100000000000005

>  <r_qp_QPlogKp>  (578) 
-4.7460000000000004

>  <r_qp_QPlogPC16>  (578) 
15.384

>  <r_qp_QPlogPo/w>  (578) 
4.577

>  <r_qp_QPlogPoct>  (578) 
23.149000000000001

>  <r_qp_QPlogPw>  (578) 
11.435

>  <r_qp_QPlogS>  (578) 
-3.3690000000000002

>  <r_qp_QPpolrz>  (578) 
49.033999999999999

>  <r_qp_SASA>  (578) 
754.44500000000005

>  <r_qp_SAamideO>  (578) 
0

>  <r_qp_SAfluorine>  (578) 
0

>  <r_qp_WPSA>  (578) 
36.115000000000002

>  <r_qp_accptHB>  (578) 
6.75

>  <r_qp_dip^2/V>  (578) 
0.021730200000000002

>  <r_qp_dipole>  (578) 
5.665

>  <r_qp_donorHB>  (578) 
2

>  <r_qp_glob>  (578) 
0.83122260000000003

>  <r_qp_mol_MW>  (578) 
487.65899999999999

>  <r_qp_volume>  (578) 
1476.624

>  <r_sd_BIOSOLVEIT.INFINISEE\_FTREES\_SIMILARITY>  (578) 
0.91700000000000004

>  <r_sd_BIOSOLVEIT.LOGP>  (578) 
4.9158999999999997

>  <r_sd_BIOSOLVEIT.MOLECULAR\_WEIGHT>  (578) 
488.67200000000003

>  <r_sd_BIOSOLVEIT.TPSA>  (578) 
57.009999999999998

>  <i_epik_Tot_Q>  (578) 
1

>  <i_epik_Tot_abs_Q>  (578) 
1

>  <i_f3d_flags>  (578) 
0

>  <i_i_glide_confnum>  (578) 
8

>  <i_i_glide_lignum>  (578) 
1037

>  <i_i_glide_posenum>  (578) 
7

>  <i_i_glide_rotatable_bonds>  (578) 
12

>  <i_lp_mmshare_version>  (578) 
65135

>  <i_m_ct_format>  (578) 
2

>  <i_m_source_file_index>  (578) 
2423

>  <i_qp_#NandO>  (578) 
5

>  <i_qp_#acid>  (578) 
0

>  <i_qp_#amide>  (578) 
0

>  <i_qp_#amidine>  (578) 
0

>  <i_qp_#amine>  (578) 
2

>  <i_qp_#in34>  (578) 
0

>  <i_qp_#in56>  (578) 
21

>  <i_qp_#metab>  (578) 
7

>  <i_qp_#nonHatm>  (578) 
35

>  <i_qp_#noncon>  (578) 
0

>  <i_qp_#ringatoms>  (578) 
21

>  <i_qp_#rotor>  (578) 
11

>  <i_qp_#rtvFG>  (578) 
0

>  <i_qp_#stars>  (578) 
0

>  <i_qp_CNS>  (578) 
1

>  <i_qp_HumanOralAbsorption>  (578) 
3

>  <i_qp_RuleOfFive>  (578) 
0

>  <i_qp_RuleOfThree>  (578) 
1

>  <i_sd_BIOSOLVEIT.INFINISEE\_RESULT\_RANK>  (578) 
22776

>  <i_sd_version>  (578) 
0

>  <b_lp_Chiralities_Consistent>  (578) 
1

>  <b_sd_chiral_flag>  (578) 
0

>  <canonical_id>  (578) 
ATP-HTVS-59B957CB7E9F

>  <compound_code>  (578) 
77507

>  <title>  (578) 
rxn502c____EMOL519605____EMOL49259969____EMOL44153840

>  <variant>  (578) 
77507-1

>  <source_file>  (578) 
运行/运行/ATP-VSW/ATP-VSW-DOCK_HTVS_1-003_lib/ATP-VSW-DOCK_HTVS_1-003_lib.mae

>  <canonical_smiles>  (578) 
CC[NH+](CC)Cc1cccc(CNc2c(CN(C)C(=O)c3cccc(O)c3)sc3ccccc23)c1

>  <scaffold>  (578) 
O=C(NCc1sc2ccccc2c1NCc1ccccc1)c1ccccc1

>  <molecular_formula>  (578) 
C29H34N3O2S+

$$$$
ATP-HTVS-59E59E09D09E
     RDKit          3D

 68 71  0  0  0  0  0  0  0  0999 V2000
  199.0285  180.3804  151.0663 O   0  0  0  0  0  0  0  0  0  0  0  0
  198.2663  179.4889  151.4398 C   0  0  0  0  0  0  0  0  0  0  0  0
  198.3490  178.2311  150.9855 N   0  0  0  0  0  0  0  0  0  0  0  0
  199.3236  177.7541  149.9973 C   0  0  1  0  0  0  0  0  0  0  0  0
  198.8889  177.9363  148.5433 C   0  0  0  0  0  0  0  0  0  0  0  0
  199.8630  177.9544  147.5192 C   0  0  0  0  0  0  0  0  0  0  0  0
  199.4801  178.1157  146.1730 C   0  0  0  0  0  0  0  0  0  0  0  0
  198.1207  178.2598  145.8401 C   0  0  0  0  0  0  0  0  0  0  0  0
  197.1461  178.2332  146.8521 C   0  0  0  0  0  0  0  0  0  0  0  0
  197.5247  178.0706  148.1963 C   0  0  0  0  0  0  0  0  0  0  0  0
  197.1350  179.7783  152.4353 C   0  0  1  0  0  0  0  0  0  0  0  0
  197.3858  180.9824  153.2449 N   0  0  0  0  0  0  0  0  0  0  0  0
  198.4070  180.9111  154.2298 C   0  0  0  0  0  0  0  0  0  0  0  0
  198.6273  179.7026  154.8036 N   0  0  0  0  0  0  0  0  0  0  0  0
  199.5871  179.5973  155.7536 C   0  0  0  0  0  0  0  0  0  0  0  0
  200.3689  180.7312  156.1282 C   0  0  0  0  0  0  0  0  0  0  0  0
  200.1659  181.9340  155.5509 N   0  0  0  0  0  0  0  0  0  0  0  0
  199.1892  182.0388  154.6216 C   0  0  0  0  0  0  0  0  0  0  0  0
  198.9503  183.3173  154.0986 N   0  0  0  0  0  0  0  0  0  0  0  0
  199.0090  184.4893  154.9774 C   0  0  1  0  0  0  0  0  0  0  0  0
  198.4078  184.3831  156.3844 C   0  0  0  0  0  0  0  0  0  0  0  0
  197.4197  183.4271  156.7207 C   0  0  0  0  0  0  0  0  0  0  0  0
  196.9669  183.2878  158.0433 C   0  0  0  0  0  0  0  0  0  0  0  0
  197.4552  184.1520  159.0450 C   0  0  0  0  0  0  0  0  0  0  0  0
  198.3929  185.1469  158.7130 C   0  0  0  0  0  0  0  0  0  0  0  0
  198.8739  185.2557  157.3921 C   0  0  0  0  0  0  0  0  0  0  0  0
  195.9807  182.1844  158.3741 C   0  0  1  0  0  0  0  0  0  0  0  0
  194.5719  182.5790  158.1347 N   0  0  1  0  0  0  0  0  0  0  0  0
  193.6514  181.4302  158.2455 C   0  0  2  0  0  0  0  0  0  0  0  0
  194.1363  183.7260  158.9649 C   0  0  2  0  0  0  0  0  0  0  0  0
  201.3678  180.5922  157.1115 C   0  0  0  0  0  0  0  0  0  0  0  0
  201.5995  179.3525  157.7284 C   0  0  0  0  0  0  0  0  0  0  0  0
  200.8371  178.2324  157.3605 C   0  0  0  0  0  0  0  0  0  0  0  0
  199.8439  178.3585  156.3734 C   0  0  0  0  0  0  0  0  0  0  0  0
  196.2473  181.8599  153.5176 C   0  0  2  0  0  0  0  0  0  0  0  0
  197.6817  177.5552  151.3220 H   0  0  0  0  0  0  0  0  0  0  0  0
  200.2912  178.2434  150.1523 H   0  0  0  0  0  0  0  0  0  0  0  0
  199.4920  176.6881  150.1666 H   0  0  0  0  0  0  0  0  0  0  0  0
  200.9114  177.8386  147.7643 H   0  0  0  0  0  0  0  0  0  0  0  0
  200.2239  178.1257  145.3914 H   0  0  0  0  0  0  0  0  0  0  0  0
  197.8319  178.3802  144.8065 H   0  0  0  0  0  0  0  0  0  0  0  0
  196.1011  178.3257  146.6000 H   0  0  0  0  0  0  0  0  0  0  0  0
  196.7545  178.0444  148.9506 H   0  0  0  0  0  0  0  0  0  0  0  0
  196.2172  179.9092  151.8619 H   0  0  0  0  0  0  0  0  0  0  0  0
  196.9487  178.9073  153.0582 H   0  0  0  0  0  0  0  0  0  0  0  0
  198.2109  183.3297  153.4062 H   0  0  0  0  0  0  0  0  0  0  0  0
  200.0582  184.7838  155.0629 H   0  0  0  0  0  0  0  0  0  0  0  0
  198.5094  185.3099  154.4626 H   0  0  0  0  0  0  0  0  0  0  0  0
  197.0260  182.7502  155.9826 H   0  0  0  0  0  0  0  0  0  0  0  0
  197.1103  184.0540  160.0654 H   0  0  0  0  0  0  0  0  0  0  0  0
  198.7616  185.8152  159.4755 H   0  0  0  0  0  0  0  0  0  0  0  0
  199.6156  186.0050  157.1538 H   0  0  0  0  0  0  0  0  0  0  0  0
  196.2310  181.3307  157.7452 H   0  0  0  0  0  0  0  0  0  0  0  0
  196.1191  181.8513  159.4031 H   0  0  0  0  0  0  0  0  0  0  0  0
  193.6397  181.0248  159.2568 H   0  0  0  0  0  0  0  0  0  0  0  0
  193.9438  180.6379  157.5608 H   0  0  0  0  0  0  0  0  0  0  0  0
  192.6394  181.7323  157.9730 H   0  0  0  0  0  0  0  0  0  0  0  0
  194.2568  183.5063  160.0259 H   0  0  0  0  0  0  0  0  0  0  0  0
  193.0906  183.9716  158.7795 H   0  0  0  0  0  0  0  0  0  0  0  0
  194.7148  184.6239  158.7480 H   0  0  0  0  0  0  0  0  0  0  0  0
  201.9599  181.4508  157.3859 H   0  0  0  0  0  0  0  0  0  0  0  0
  202.3770  179.2555  158.4708 H   0  0  0  0  0  0  0  0  0  0  0  0
  201.0138  177.2775  157.8351 H   0  0  0  0  0  0  0  0  0  0  0  0
  199.2376  177.4999  156.1200 H   0  0  0  0  0  0  0  0  0  0  0  0
  195.6263  181.4334  154.3067 H   0  0  0  0  0  0  0  0  0  0  0  0
  195.6451  181.9865  152.6150 H   0  0  0  0  0  0  0  0  0  0  0  0
  196.4874  182.8711  153.8265 H   0  0  0  0  0  0  0  0  0  0  0  0
  194.4778  182.8538  157.1544 H   0  0  0  0  0  0  0  0  0  0  0  0
  1  2  2  0
  2  3  1  0
  2 11  1  0
  3  4  1  0
  3 36  1  0
  4  5  1  0
  4 37  1  6
  4 38  1  0
  5  6  2  0
  5 10  1  0
  6  7  1  0
  6 39  1  0
  7  8  2  0
  7 40  1  0
  8  9  1  0
  8 41  1  0
  9 10  2  0
  9 42  1  0
 10 43  1  0
 11 12  1  0
 11 44  1  6
 11 45  1  0
 12 13  1  0
 12 35  1  0
 13 14  2  0
 13 18  1  0
 14 15  1  0
 15 16  1  0
 15 34  2  0
 16 17  1  0
 16 31  2  0
 17 18  2  0
 18 19  1  0
 19 20  1  0
 19 46  1  0
 20 21  1  0
 20 47  1  1
 20 48  1  0
 21 22  2  0
 21 26  1  0
 22 23  1  0
 22 49  1  0
 23 24  2  0
 23 27  1  0
 24 25  1  0
 24 50  1  0
 25 26  2  0
 25 51  1  0
 26 52  1  0
 27 28  1  0
 27 53  1  6
 27 54  1  0
 28 29  1  0
 28 30  1  0
 28 68  1  6
 29 55  1  1
 29 56  1  0
 29 57  1  0
 30 58  1  1
 30 59  1  0
 30 60  1  0
 31 32  1  0
 31 61  1  0
 32 33  2  0
 32 62  1  0
 33 34  1  0
 33 63  1  0
 34 64  1  0
 35 65  1  1
 35 66  1  0
 35 67  1  0
M  CHG  1  28   1
M  END
>  <s_epik_cmdline>  (579) 
J2VwaWtfcHl0aG9uJywgJy1waCcsICc3LjAwMDAwMCcsICctcGh0JywgJzIuMDAwMDAwJywgJy1tcycsICcxNicsICctdG4nLCAnOCcsICctbWEnLCAnMjAwJywgJy1pbWFlJywgJzxpbmZpbGUubWFlPicsICctb21hZScsICc8b3V0ZmlsZS5tYWU+Jw==

>  <s_epik_input>  (579) 
W2NIXTFbY0hdW2NIXVtjSF1bY0hdYzFbQ0gyXVtOSF1DKD1PKVtDSDJdTihbQ0gzXSljKG4yKWMobmMoYzIzKVtjSF1bY0hdW2NIXVtjSF0zKVtOSF1bQ0gyXWM0W2NIXWMoW2NIXVtjSF1bY0hdNClbQ0gyXU4oW0NIM10pW0NIM10=

>  <s_i_glide_gridfile>  (579) 
ATP-Grid

>  <s_lp_Force_Field>  (579) 
OPLS_2005

>  <s_lp_Variant>  (579) 
m_282030aaa____21894442____23157418____21940090-1

>  <s_lp_label>  (579) 
1735_sdstereoexpander_1_neutralizer_1_epik_1_stereoizer_1

>  <s_m_source_file>  (579) 
ATP-VSW-LIGPREP-001-in.maegz

>  <s_sd_BIOSOLVEIT.INFINISEE\_QUERY\_NAME>  (579) 
Ref-Lig

>  <s_sd_BIOSOLVEIT.INFINISEE\_QUERY\_SMILES>  (579) 
S(c1nc2c(cc1C[NH2+]Cc3ccc(cc3)C[NH+](C)C)cccc2)Cc4ccccc4

>  <s_sd_BIOSOLVEIT.INFINISEE\_REACTION\_NAME>  (579) 
m_282030aaa

>  <s_sd_BIOSOLVEIT.INFINISEE\_REAGENT1\_SMILES>  (579) 
[R1*]N(CC(=O)NCc1ccccc1)C

>  <s_sd_BIOSOLVEIT.INFINISEE\_REAGENT2\_SMILES>  (579) 
[R1*]c1nc2c(nc1[R2*])cccc2

>  <s_sd_BIOSOLVEIT.INFINISEE\_REAGENT3\_SMILES>  (579) 
[R2*]NCc1cc(ccc1)CN(C)C

>  <s_sd_BIOSOLVEIT.INFINISEE\_SPACE>  (579) 
REALSpace_44bn_2023-08

>  <s_vsw_compound_code>  (579) 
55489

>  <s_vsw_variant>  (579) 
55489-1

>  <r_epik_Charging_Adjusted_Penalty>  (579) 
0.088195370499548398

>  <r_epik_Ionization_Penalty>  (579) 
0.044299999999999999

>  <r_epik_Ionization_Penalty_Charging>  (579) 
0.0441

>  <r_epik_Ionization_Penalty_Neutral>  (579) 
0.00029999999999999997

>  <r_epik_State_Penalty>  (579) 
0.0441

>  <r_i_docking_score>  (579) 
-3.6193170272174999

>  <r_i_glide_ecoul>  (579) 
-8.2073802947997994

>  <r_i_glide_eff_state_penalty>  (579) 
0.0441

>  <r_i_glide_einternal>  (579) 
2.8416390419006299

>  <r_i_glide_emodel>  (579) 
-58.512312958328501

>  <r_i_glide_energy>  (579) 
-45.555700302124002

>  <r_i_glide_erotb>  (579) 
0.82434397190361097

>  <r_i_glide_esite>  (579) 
-0.104162667475692

>  <r_i_glide_evdw>  (579) 
-37.348320007324197

>  <r_i_glide_gscore>  (579) 
-3.6634170272175002

>  <r_i_glide_hbond>  (579) 
-0.20000000000000001

>  <r_i_glide_ligand_efficiency>  (579) 
-0.10340905792049999

>  <r_i_glide_ligand_efficiency_ln>  (579) 
-0.79452041388778805

>  <r_i_glide_ligand_efficiency_sa>  (579) 
-0.33825788513121302

>  <r_i_glide_lipo>  (579) 
-0.84341688705481899

>  <r_i_glide_metal>  (579) 
-0

>  <r_i_glide_rewards>  (579) 
-0.24165840000441799

>  <r_lp_Energy>  (579) 
30.447573999999999

>  <r_qp_ACxDN^.5/SA>  (579) 
0.013679800000000001

>  <r_qp_CIQPlogS>  (579) 
-5.319

>  <r_qp_EA(eV)>  (579) 
1.198

>  <r_qp_FISA>  (579) 
53.000999999999998

>  <r_qp_FOSA>  (579) 
281.75599999999997

>  <r_qp_IP(eV)>  (579) 
8.5809999999999995

>  <r_qp_Jm>  (579) 
1.0081483870010299

>  <r_qp_PISA>  (579) 
440.59199999999998

>  <r_qp_PSA>  (579) 
71.033000000000001

>  <r_qp_PercentHumanOralAbsorption>  (579) 
100

>  <r_qp_QPPCaco>  (579) 
427.20400000000001

>  <r_qp_QPPMDCK>  (579) 
416.428

>  <r_qp_QPlogBB>  (579) 
-0.17000000000000001

>  <r_qp_QPlogHERG>  (579) 
-5.9420000000000002

>  <r_qp_QPlogKhsa>  (579) 
0.443

>  <r_qp_QPlogKp>  (579) 
-2.0470000000000002

>  <r_qp_QPlogPC16>  (579) 
16.024999999999999

>  <r_qp_QPlogPo/w>  (579) 
4.431

>  <r_qp_QPlogPoct>  (579) 
24.262

>  <r_qp_QPlogPw>  (579) 
15.465999999999999

>  <r_qp_QPlogS>  (579) 
-3.621

>  <r_qp_QPpolrz>  (579) 
51.658000000000001

>  <r_qp_SASA>  (579) 
775.34900000000005

>  <r_qp_SAamideO>  (579) 
32.607999999999997

>  <r_qp_SAfluorine>  (579) 
0

>  <r_qp_WPSA>  (579) 
0

>  <r_qp_accptHB>  (579) 
7.5

>  <r_qp_dip^2/V>  (579) 
0.0147218

>  <r_qp_dipole>  (579) 
4.6989999999999998

>  <r_qp_donorHB>  (579) 
2

>  <r_qp_glob>  (579) 
0.81728109999999998

>  <r_qp_mol_MW>  (579) 
468.60000000000002

>  <r_qp_volume>  (579) 
1499.876

>  <r_sd_BIOSOLVEIT.INFINISEE\_FTREES\_SIMILARITY>  (579) 
0.90400000000000003

>  <r_sd_BIOSOLVEIT.LOGP>  (579) 
2.6389999999999998

>  <r_sd_BIOSOLVEIT.MOLECULAR\_WEIGHT>  (579) 
469.61000000000001

>  <r_sd_BIOSOLVEIT.TPSA>  (579) 
74.590000000000003

>  <i_epik_Tot_Q>  (579) 
1

>  <i_epik_Tot_abs_Q>  (579) 
1

>  <i_f3d_flags>  (579) 
0

>  <i_i_glide_confnum>  (579) 
4

>  <i_i_glide_lignum>  (579) 
490

>  <i_i_glide_posenum>  (579) 
18

>  <i_i_glide_rotatable_bonds>  (579) 
11

>  <i_lp_mmshare_version>  (579) 
65135

>  <i_m_ct_format>  (579) 
2

>  <i_m_source_file_index>  (579) 
1735

>  <i_qp_#NandO>  (579) 
7

>  <i_qp_#acid>  (579) 
0

>  <i_qp_#amide>  (579) 
1

>  <i_qp_#amidine>  (579) 
0

>  <i_qp_#amine>  (579) 
1

>  <i_qp_#in34>  (579) 
0

>  <i_qp_#in56>  (579) 
22

>  <i_qp_#metab>  (579) 
5

>  <i_qp_#nonHatm>  (579) 
35

>  <i_qp_#noncon>  (579) 
0

>  <i_qp_#ringatoms>  (579) 
22

>  <i_qp_#rotor>  (579) 
10

>  <i_qp_#rtvFG>  (579) 
0

>  <i_qp_#stars>  (579) 
0

>  <i_qp_CNS>  (579) 
1

>  <i_qp_HumanOralAbsorption>  (579) 
3

>  <i_qp_RuleOfFive>  (579) 
0

>  <i_qp_RuleOfThree>  (579) 
0

>  <i_sd_BIOSOLVEIT.INFINISEE\_REAGENT1\_NAME>  (579) 
21894442

>  <i_sd_BIOSOLVEIT.INFINISEE\_REAGENT2\_NAME>  (579) 
23157418

>  <i_sd_BIOSOLVEIT.INFINISEE\_REAGENT3\_NAME>  (579) 
21940090

>  <i_sd_BIOSOLVEIT.INFINISEE\_RESULT\_RANK>  (579) 
73786

>  <i_sd_version>  (579) 
0

>  <b_lp_Chiralities_Consistent>  (579) 
1

>  <b_sd_chiral_flag>  (579) 
0

>  <canonical_id>  (579) 
ATP-HTVS-59E59E09D09E

>  <compound_code>  (579) 
55489

>  <title>  (579) 
m_282030aaa____21894442____23157418____21940090

>  <variant>  (579) 
55489-1

>  <source_file>  (579) 
运行/运行/ATP-VSW/ATP-VSW-DOCK_HTVS_1-001_lib/ATP-VSW-DOCK_HTVS_1-001_lib

>  <canonical_smiles>  (579) 
CN(CC(=O)NCc1ccccc1)c1nc2ccccc2nc1NCc1cccc(C[NH+](C)C)c1

>  <scaffold>  (579) 
O=C(CNc1nc2ccccc2nc1NCc1ccccc1)NCc1ccccc1

>  <molecular_formula>  (579) 
C28H33N6O+

$$$$
ATP-HTVS-5A1C186863E4
     RDKit          3D

 69 72  0  0  0  0  0  0  0  0999 V2000
  203.2111  181.8980  157.2402 S   0  0  0  0  0  0  0  0  0  0  0  0
  203.7431  182.0531  155.8154 O   0  0  0  0  0  0  0  0  0  0  0  0
  201.8175  183.1241  157.3792 C   0  0  1  0  0  0  0  0  0  0  0  0
  201.0978  182.9625  158.7472 C   0  0  2  0  0  0  0  0  0  0  0  0
  199.8058  183.6406  158.7351 N   0  0  0  0  0  0  0  0  0  0  0  0
  198.6697  183.0524  158.1370 C   0  0  0  0  0  0  0  0  0  0  0  0
  198.8327  182.1390  157.1547 N   0  0  0  0  0  0  0  0  0  0  0  0
  197.7237  181.6539  156.5808 C   0  0  0  0  0  0  0  0  0  0  0  0
  196.4757  181.9744  156.8796 N   0  0  0  0  0  0  0  0  0  0  0  0
  196.2806  182.8538  157.8819 C   0  0  0  0  0  0  0  0  0  0  0  0
  197.3764  183.4447  158.5613 C   0  0  0  0  0  0  0  0  0  0  0  0
  197.1490  184.3723  159.6054 C   0  0  0  0  0  0  0  0  0  0  0  0
  195.8345  184.7110  159.9785 C   0  0  0  0  0  0  0  0  0  0  0  0
  194.7477  184.1290  159.3045 C   0  0  0  0  0  0  0  0  0  0  0  0
  194.9755  183.2086  158.2706 C   0  0  0  0  0  0  0  0  0  0  0  0
  197.8295  180.7511  155.5461 N   0  0  0  0  0  0  0  0  0  0  0  0
  199.0307  179.9573  155.2823 C   0  0  1  0  0  0  0  0  0  0  0  0
  198.9521  178.5772  155.9684 C   0  0  1  0  0  0  0  0  0  0  0  0
  199.9537  177.5792  155.4155 C   0  0  0  0  0  0  0  0  0  0  0  0
  199.9931  177.3178  154.0359 C   0  0  0  0  0  0  0  0  0  0  0  0
  200.9517  176.4255  153.5110 C   0  0  0  0  0  0  0  0  0  0  0  0
  201.8887  175.7986  154.3643 C   0  0  0  0  0  0  0  0  0  0  0  0
  201.8397  176.0623  155.7516 C   0  0  0  0  0  0  0  0  0  0  0  0
  200.8515  176.9167  156.2797 C   0  0  0  0  0  0  0  0  0  0  0  0
  202.9493  174.8630  153.7896 C   0  0  1  0  0  0  0  0  0  0  0  0
  202.7221  173.4230  154.0981 N   0  0  1  0  0  0  0  0  0  0  0  0
  202.8984  173.0744  155.5278 C   0  0  2  0  0  0  0  0  0  0  0  0
  201.4479  172.9011  153.5549 C   0  0  2  0  0  0  0  0  0  0  0  0
  201.9810  183.4528  159.8928 C   0  0  0  0  0  0  0  0  0  0  0  0
  202.0715  184.8315  160.1910 C   0  0  0  0  0  0  0  0  0  0  0  0
  202.8466  185.2758  161.2779 C   0  0  0  0  0  0  0  0  0  0  0  0
  203.5536  184.3482  162.0672 C   0  0  0  0  0  0  0  0  0  0  0  0
  203.4902  182.9755  161.7603 C   0  0  0  0  0  0  0  0  0  0  0  0
  202.7045  182.5290  160.6797 C   0  0  0  0  0  0  0  0  0  0  0  0
  202.2129  180.3326  157.2230 C   0  0  2  0  0  0  0  0  0  0  0  0
  202.1894  184.1396  157.2482 H   0  0  0  0  0  0  0  0  0  0  0  0
  201.1640  182.9459  156.5252 H   0  0  0  0  0  0  0  0  0  0  0  0
  200.8793  181.9103  158.9467 H   0  0  0  0  0  0  0  0  0  0  0  0
  199.6626  184.3454  159.4389 H   0  0  0  0  0  0  0  0  0  0  0  0
  197.9698  184.8264  160.1326 H   0  0  0  0  0  0  0  0  0  0  0  0
  195.6702  185.4186  160.7700 H   0  0  0  0  0  0  0  0  0  0  0  0
  193.7333  184.3994  159.5727 H   0  0  0  0  0  0  0  0  0  0  0  0
  194.1390  182.7612  157.7318 H   0  0  0  0  0  0  0  0  0  0  0  0
  196.9374  180.3632  155.2490 H   0  0  0  0  0  0  0  0  0  0  0  0
  199.0888  179.8253  154.1946 H   0  0  0  0  0  0  0  0  0  0  0  0
  199.9141  180.5026  155.5747 H   0  0  0  0  0  0  0  0  0  0  0  0
  199.1230  178.7066  157.0315 H   0  0  0  0  0  0  0  0  0  0  0  0
  197.9570  178.1250  155.8741 H   0  0  0  0  0  0  0  0  0  0  0  0
  199.2998  177.8021  153.3657 H   0  0  0  0  0  0  0  0  0  0  0  0
  200.9639  176.2464  152.4411 H   0  0  0  0  0  0  0  0  0  0  0  0
  202.5529  175.5982  156.4214 H   0  0  0  0  0  0  0  0  0  0  0  0
  200.8006  177.0670  157.3523 H   0  0  0  0  0  0  0  0  0  0  0  0
  202.9752  174.9866  152.7071 H   0  0  0  0  0  0  0  0  0  0  0  0
  203.9285  175.1832  154.1472 H   0  0  0  0  0  0  0  0  0  0  0  0
  202.1441  173.5757  156.1308 H   0  0  0  0  0  0  0  0  0  0  0  0
  203.8748  173.4030  155.8842 H   0  0  0  0  0  0  0  0  0  0  0  0
  202.8487  171.9866  155.6734 H   0  0  0  0  0  0  0  0  0  0  0  0
  200.5916  173.3934  154.0147 H   0  0  0  0  0  0  0  0  0  0  0  0
  201.3605  171.8319  153.7406 H   0  0  0  0  0  0  0  0  0  0  0  0
  201.3918  173.0573  152.4780 H   0  0  0  0  0  0  0  0  0  0  0  0
  201.5414  185.5570  159.5928 H   0  0  0  0  0  0  0  0  0  0  0  0
  202.8995  186.3319  161.5117 H   0  0  0  0  0  0  0  0  0  0  0  0
  204.1457  184.6887  162.9044 H   0  0  0  0  0  0  0  0  0  0  0  0
  204.0375  182.2660  162.3623 H   0  0  0  0  0  0  0  0  0  0  0  0
  202.6589  181.4718  160.4610 H   0  0  0  0  0  0  0  0  0  0  0  0
  201.6055  180.2172  158.1212 H   0  0  0  0  0  0  0  0  0  0  0  0
  202.8667  179.4537  157.1663 H   0  0  0  0  0  0  0  0  0  0  0  0
  201.6003  180.3611  156.3568 H   0  0  0  0  0  0  0  0  0  0  0  0
  203.4443  172.9073  153.6084 H   0  0  0  0  0  0  0  0  0  0  0  0
  1  2  2  0
  1  3  1  6
  1 35  1  0
  3  4  1  0
  3 36  1  6
  3 37  1  0
  4  5  1  0
  4 29  1  0
  4 38  1  1
  5  6  1  0
  5 39  1  0
  6  7  1  0
  6 11  2  0
  7  8  2  0
  8  9  1  0
  8 16  1  0
  9 10  2  0
 10 11  1  0
 10 15  1  0
 11 12  1  0
 12 13  2  0
 12 40  1  0
 13 14  1  0
 13 41  1  0
 14 15  2  0
 14 42  1  0
 15 43  1  0
 16 17  1  0
 16 44  1  0
 17 18  1  0
 17 45  1  6
 17 46  1  0
 18 19  1  0
 18 47  1  1
 18 48  1  0
 19 20  1  0
 19 24  2  0
 20 21  2  0
 20 49  1  0
 21 22  1  0
 21 50  1  0
 22 23  2  0
 22 25  1  0
 23 24  1  0
 23 51  1  0
 24 52  1  0
 25 26  1  0
 25 53  1  6
 25 54  1  0
 26 27  1  0
 26 28  1  0
 26 69  1  6
 27 55  1  1
 27 56  1  0
 27 57  1  0
 28 58  1  1
 28 59  1  0
 28 60  1  0
 29 30  2  0
 29 34  1  0
 30 31  1  0
 30 61  1  0
 31 32  2  0
 31 62  1  0
 32 33  1  0
 32 63  1  0
 33 34  2  0
 33 64  1  0
 34 65  1  0
 35 66  1  1
 35 67  1  0
 35 68  1  0
M  CHG  1  26   1
M  END
>  <s_epik_cmdline>  (580) 
J2VwaWtfcHl0aG9uJywgJy1waCcsICc3LjAwMDAwMCcsICctcGh0JywgJzIuMDAwMDAwJywgJy1tcycsICcxNicsICctdG4nLCAnOCcsICctbWEnLCAnMjAwJywgJy1pbWFlJywgJzxpbmZpbGUubWFlPicsICctb21hZScsICc8b3V0ZmlsZS5tYWU+Jw==

>  <s_epik_input>  (580) 
W2NIXTFbY0hdW2NIXVtjSF1bY0hdYzFbQ0BIXShbQ0gyXVtTQF0oPU8pW0NIM10pW05IXWMoYyhjMjMpW2NIXVtjSF1bY0hdW2NIXTMpbmMobjIpW05IXVtDSDJdW0NIMl1jNFtjSF1bY0hdYyhbY0hdW2NIXTQpW0NIMl1OKFtDSDNdKVtDSDNd

>  <s_i_glide_gridfile>  (580) 
ATP-Grid

>  <s_lp_Force_Field>  (580) 
OPLS_2005

>  <s_lp_Variant>  (580) 
m_282030aaa____21890430____22360182____21967972-9

>  <s_lp_label>  (580) 
792_sdstereoexpander_1_neutralizer_1_epik_3_stereoizer_1

>  <s_m_source_file>  (580) 
ATP-VSW-LIGPREP-001-in.maegz

>  <s_sd_BIOSOLVEIT.INFINISEE\_QUERY\_NAME>  (580) 
Ref-Lig

>  <s_sd_BIOSOLVEIT.INFINISEE\_QUERY\_SMILES>  (580) 
S(c1nc2c(cc1C[NH2+]Cc3ccc(cc3)C[NH+](C)C)cccc2)Cc4ccccc4

>  <s_sd_BIOSOLVEIT.INFINISEE\_REACTION\_NAME>  (580) 
m_282030aaa

>  <s_sd_BIOSOLVEIT.INFINISEE\_REAGENT1\_SMILES>  (580) 
[R1*]NC(c1ccccc1)CS(=O)C

>  <s_sd_BIOSOLVEIT.INFINISEE\_REAGENT2\_SMILES>  (580) 
[R2*]c1nc([R1*])c2c(n1)cccc2

>  <s_sd_BIOSOLVEIT.INFINISEE\_REAGENT3\_SMILES>  (580) 
[R2*]NCCc1ccc(cc1)CN(C)C

>  <s_sd_BIOSOLVEIT.INFINISEE\_SPACE>  (580) 
REALSpace_44bn_2023-08

>  <s_vsw_compound_code>  (580) 
25313

>  <s_vsw_variant>  (580) 
25313-9

>  <r_epik_Charging_Adjusted_Penalty>  (580) 
1.9012606315656699

>  <r_epik_Ionization_Penalty>  (580) 
2.0017

>  <r_epik_Ionization_Penalty_Charging>  (580) 
0.041000000000000002

>  <r_epik_Ionization_Penalty_Neutral>  (580) 
1.9607000000000001

>  <r_epik_State_Penalty>  (580) 
1.8603000000000001

>  <r_i_docking_score>  (580) 
-1.8064428533017201

>  <r_i_glide_ecoul>  (580) 
-3.87165427207947

>  <r_i_glide_eff_state_penalty>  (580) 
1.8603000000000001

>  <r_i_glide_einternal>  (580) 
4.0127654075622603

>  <r_i_glide_emodel>  (580) 
-52.6561319337399

>  <r_i_glide_energy>  (580) 
-42.541614294052103

>  <r_i_glide_erotb>  (580) 
0.766520045765402

>  <r_i_glide_esite>  (580) 
-0.14584906048330201

>  <r_i_glide_evdw>  (580) 
-38.669960021972699

>  <r_i_glide_gscore>  (580) 
-3.6667428533017201

>  <r_i_glide_hbond>  (580) 
0

>  <r_i_glide_ligand_efficiency>  (580) 
-0.051612652951477697

>  <r_i_glide_ligand_efficiency_ln>  (580) 
-0.39655429813876503

>  <r_i_glide_ligand_efficiency_sa>  (580) 
-0.16882841004895299

>  <r_i_glide_lipo>  (580) 
-1.4709071966732701

>  <r_i_glide_metal>  (580) 
-0

>  <r_i_glide_rewards>  (580) 
-0.30226049999999899

>  <r_lp_Energy>  (580) 
10.479651

>  <r_qp_ACxDN^.5/SA>  (580) 
0.0118064

>  <r_qp_CIQPlogS>  (580) 
-6.1859999999999999

>  <r_qp_EA(eV)>  (580) 
0.71799999999999997

>  <r_qp_FISA>  (580) 
60.737000000000002

>  <r_qp_FOSA>  (580) 
310.87599999999998

>  <r_qp_IP(eV)>  (580) 
8.1699999999999999

>  <r_qp_Jm>  (580) 
45.384292642943301

>  <r_qp_PISA>  (580) 
289.93099999999998

>  <r_qp_PSA>  (580) 
60.485999999999997

>  <r_qp_PercentHumanOralAbsorption>  (580) 
77.703999999999994

>  <r_qp_QPPCaco>  (580) 
26.111999999999998

>  <r_qp_QPPMDCK>  (580) 
424.822

>  <r_qp_QPlogBB>  (580) 
-0.16

>  <r_qp_QPlogHERG>  (580) 
-5.234

>  <r_qp_QPlogKhsa>  (580) 
0.46000000000000002

>  <r_qp_QPlogKp>  (580) 
-2.6240000000000001

>  <r_qp_QPlogPC16>  (580) 
14.111000000000001

>  <r_qp_QPlogPo/w>  (580) 
4.3380000000000001

>  <r_qp_QPlogPoct>  (580) 
21.344000000000001

>  <r_qp_QPlogPw>  (580) 
13.159000000000001

>  <r_qp_QPlogS>  (580) 
-1.407

>  <r_qp_QPpolrz>  (580) 
46.366

>  <r_qp_SASA>  (580) 
677.60000000000002

>  <r_qp_SAamideO>  (580) 
0

>  <r_qp_SAfluorine>  (580) 
0

>  <r_qp_WPSA>  (580) 
16.056999999999999

>  <r_qp_accptHB>  (580) 
8

>  <r_qp_dip^2/V>  (580) 
0.012214300000000001

>  <r_qp_dipole>  (580) 
4.1639999999999997

>  <r_qp_donorHB>  (580) 
1

>  <r_qp_glob>  (580) 
0.90152460000000001

>  <r_qp_mol_MW>  (580) 
487.66199999999998

>  <r_qp_volume>  (580) 
1419.644

>  <r_sd_BIOSOLVEIT.INFINISEE\_FTREES\_SIMILARITY>  (580) 
0.92400000000000004

>  <r_sd_BIOSOLVEIT.LOGP>  (580) 
4.1112000000000002

>  <r_sd_BIOSOLVEIT.MOLECULAR\_WEIGHT>  (580) 
488.67599999999999

>  <r_sd_BIOSOLVEIT.TPSA>  (580) 
71.349999999999994

>  <i_epik_Tot_Q>  (580) 
1

>  <i_epik_Tot_abs_Q>  (580) 
1

>  <i_f3d_flags>  (580) 
0

>  <i_i_glide_confnum>  (580) 
9

>  <i_i_glide_lignum>  (580) 
126

>  <i_i_glide_posenum>  (580) 
20

>  <i_i_glide_rotatable_bonds>  (580) 
11

>  <i_lp_mmshare_version>  (580) 
65135

>  <i_m_ct_format>  (580) 
2

>  <i_m_source_file_index>  (580) 
792

>  <i_qp_#NandO>  (580) 
6

>  <i_qp_#acid>  (580) 
0

>  <i_qp_#amide>  (580) 
0

>  <i_qp_#amidine>  (580) 
0

>  <i_qp_#amine>  (580) 
1

>  <i_qp_#in34>  (580) 
0

>  <i_qp_#in56>  (580) 
22

>  <i_qp_#metab>  (580) 
6

>  <i_qp_#nonHatm>  (580) 
35

>  <i_qp_#noncon>  (580) 
0

>  <i_qp_#ringatoms>  (580) 
22

>  <i_qp_#rotor>  (580) 
11

>  <i_qp_#rtvFG>  (580) 
0

>  <i_qp_#stars>  (580) 
0

>  <i_qp_CNS>  (580) 
1

>  <i_qp_HumanOralAbsorption>  (580) 
2

>  <i_qp_RuleOfFive>  (580) 
0

>  <i_qp_RuleOfThree>  (580) 
0

>  <i_sd_BIOSOLVEIT.INFINISEE\_REAGENT1\_NAME>  (580) 
21890430

>  <i_sd_BIOSOLVEIT.INFINISEE\_REAGENT2\_NAME>  (580) 
22360182

>  <i_sd_BIOSOLVEIT.INFINISEE\_REAGENT3\_NAME>  (580) 
21967972

>  <i_sd_BIOSOLVEIT.INFINISEE\_RESULT\_RANK>  (580) 
10734

>  <i_sd_version>  (580) 
0

>  <b_lp_Chiralities_Consistent>  (580) 
1

>  <b_sd_chiral_flag>  (580) 
0

>  <canonical_id>  (580) 
ATP-HTVS-5A1C186863E4

>  <compound_code>  (580) 
25313

>  <title>  (580) 
m_282030aaa____21890430____22360182____21967972

>  <variant>  (580) 
25313-9

>  <source_file>  (580) 
运行/运行/ATP-VSW/ATP-VSW-DOCK_HTVS_1-001_lib/ATP-VSW-DOCK_HTVS_1-001_lib

>  <canonical_smiles>  (580) 
C[NH+](C)Cc1ccc(CCNc2nc(N[C@@H](C[S@@](C)=O)c3ccccc3)c3ccccc3n2)cc1

>  <scaffold>  (580) 
c1ccc(CCNc2nc(NCc3ccccc3)c3ccccc3n2)cc1

>  <molecular_formula>  (580) 
C28H34N5OS+

$$$$
ATP-HTVS-5A2EB4E9D835
     RDKit          3D

 63 66  0  0  0  0  0  0  0  0999 V2000
  195.8275  187.8768  161.0071 F   0  0  0  0  0  0  0  0  0  0  0  0
  195.7500  186.7667  160.2403 C   0  0  0  0  0  0  0  0  0  0  0  0
  196.6404  186.5766  159.1714 C   0  0  0  0  0  0  0  0  0  0  0  0
  196.5475  185.4177  158.3614 C   0  0  0  0  0  0  0  0  0  0  0  0
  197.4313  185.1788  157.2783 N   0  0  0  0  0  0  0  0  0  0  0  0
  197.8921  186.1104  156.4206 C   0  0  0  0  0  0  0  0  0  0  0  0
  197.4800  187.2718  156.3776 O   0  0  0  0  0  0  0  0  0  0  0  0
  199.0109  185.6738  155.4805 C   0  0  1  0  0  0  0  0  0  0  0  0
  198.8360  186.2465  154.1515 N   0  0  0  0  0  0  0  0  0  0  0  0
  198.3436  185.5461  153.0681 C   0  0  0  0  0  0  0  0  0  0  0  0
  197.6101  184.4451  153.2727 N   0  0  0  0  0  0  0  0  0  0  0  0
  197.1730  183.7436  152.2103 C   0  0  0  0  0  0  0  0  0  0  0  0
  196.3462  182.6547  152.4456 N   0  0  0  0  0  0  0  0  0  0  0  0
  196.8873  181.3144  152.3262 C   0  0  1  0  0  0  0  0  0  0  0  0
  197.7305  180.8611  153.5035 C   0  0  0  0  0  0  0  0  0  0  0  0
  197.2081  180.8838  154.8145 C   0  0  0  0  0  0  0  0  0  0  0  0
  197.9894  180.4301  155.8947 C   0  0  0  0  0  0  0  0  0  0  0  0
  199.3011  179.9556  155.6734 C   0  0  0  0  0  0  0  0  0  0  0  0
  199.8228  179.9503  154.3625 C   0  0  0  0  0  0  0  0  0  0  0  0
  199.0381  180.3868  153.2803 C   0  0  0  0  0  0  0  0  0  0  0  0
  200.1416  179.4031  156.8201 C   0  0  1  0  0  0  0  0  0  0  0  0
  199.9444  177.9443  157.0472 N   0  0  1  0  0  0  0  0  0  0  0  0
  199.9706  177.1100  155.8199 C   0  0  2  0  0  0  0  0  0  0  0  0
  200.8918  177.4219  158.0674 C   0  0  2  0  0  0  0  0  0  0  0  0
  197.4597  184.1503  150.8969 C   0  0  0  0  0  0  0  0  0  0  0  0
  198.2460  185.3123  150.7504 C   0  0  0  0  0  0  0  0  0  0  0  0
  198.6667  185.9811  151.8444 N   0  0  0  0  0  0  0  0  0  0  0  0
  198.5732  185.7776  149.4661 C   0  0  0  0  0  0  0  0  0  0  0  0
  198.0882  185.1060  148.3260 C   0  0  0  0  0  0  0  0  0  0  0  0
  197.2827  183.9615  148.4704 C   0  0  0  0  0  0  0  0  0  0  0  0
  196.9722  183.4797  149.7534 C   0  0  0  0  0  0  0  0  0  0  0  0
  195.5823  184.4371  158.6617 C   0  0  0  0  0  0  0  0  0  0  0  0
  194.6842  184.6382  159.7296 C   0  0  0  0  0  0  0  0  0  0  0  0
  194.7684  185.8015  160.5203 C   0  0  0  0  0  0  0  0  0  0  0  0
  197.3950  187.3280  158.9988 H   0  0  0  0  0  0  0  0  0  0  0  0
  197.7594  184.2328  157.1666 H   0  0  0  0  0  0  0  0  0  0  0  0
  199.9570  186.0453  155.8835 H   0  0  0  0  0  0  0  0  0  0  0  0
  199.1005  184.5849  155.4471 H   0  0  0  0  0  0  0  0  0  0  0  0
  199.2371  187.1544  153.9745 H   0  0  0  0  0  0  0  0  0  0  0  0
  195.6168  182.8246  153.1513 H   0  0  0  0  0  0  0  0  0  0  0  0
  196.0598  180.6156  152.1955 H   0  0  0  0  0  0  0  0  0  0  0  0
  197.4897  181.2454  151.4132 H   0  0  0  0  0  0  0  0  0  0  0  0
  196.1933  181.2165  154.9915 H   0  0  0  0  0  0  0  0  0  0  0  0
  197.5568  180.4106  156.8871 H   0  0  0  0  0  0  0  0  0  0  0  0
  200.8139  179.5698  154.1737 H   0  0  0  0  0  0  0  0  0  0  0  0
  199.4345  180.3146  152.2779 H   0  0  0  0  0  0  0  0  0  0  0  0
  201.1999  179.6059  156.6131 H   0  0  0  0  0  0  0  0  0  0  0  0
  199.9046  179.9504  157.7304 H   0  0  0  0  0  0  0  0  0  0  0  0
  200.9375  177.2041  155.3225 H   0  0  0  0  0  0  0  0  0  0  0  0
  199.1884  177.3884  155.1152 H   0  0  0  0  0  0  0  0  0  0  0  0
  199.8014  176.0582  156.0446 H   0  0  0  0  0  0  0  0  0  0  0  0
  201.9306  177.5661  157.7494 H   0  0  0  0  0  0  0  0  0  0  0  0
  200.7498  176.3511  158.2158 H   0  0  0  0  0  0  0  0  0  0  0  0
  200.7545  177.9139  159.0343 H   0  0  0  0  0  0  0  0  0  0  0  0
  199.1905  186.6487  149.3383 H   0  0  0  0  0  0  0  0  0  0  0  0
  198.3304  185.4678  147.3369 H   0  0  0  0  0  0  0  0  0  0  0  0
  196.9081  183.4533  147.5958 H   0  0  0  0  0  0  0  0  0  0  0  0
  196.3448  182.6083  149.8540 H   0  0  0  0  0  0  0  0  0  0  0  0
  195.5159  183.5411  158.0570 H   0  0  0  0  0  0  0  0  0  0  0  0
  193.9284  183.8960  159.9324 H   0  0  0  0  0  0  0  0  0  0  0  0
  194.0626  185.9607  161.3216 H   0  0  0  0  0  0  0  0  0  0  0  0
  199.2441  186.8082  151.7159 H   0  0  0  0  0  0  0  0  0  0  0  0
  199.0112  177.8385  157.4342 H   0  0  0  0  0  0  0  0  0  0  0  0
  1  2  1  0
  2  3  2  0
  2 34  1  0
  3  4  1  0
  3 35  1  0
  4  5  1  0
  4 32  2  0
  5  6  1  0
  5 36  1  0
  6  7  2  0
  6  8  1  0
  8  9  1  0
  8 37  1  1
  8 38  1  0
  9 10  1  0
  9 39  1  0
 10 11  1  0
 10 27  2  0
 11 12  2  0
 12 13  1  0
 12 25  1  0
 13 14  1  0
 13 40  1  0
 14 15  1  0
 14 41  1  6
 14 42  1  0
 15 16  1  0
 15 20  2  0
 16 17  2  0
 16 43  1  0
 17 18  1  0
 17 44  1  0
 18 19  2  0
 18 21  1  0
 19 20  1  0
 19 45  1  0
 20 46  1  0
 21 22  1  0
 21 47  1  6
 21 48  1  0
 22 23  1  0
 22 24  1  0
 22 63  1  1
 23 49  1  6
 23 50  1  0
 23 51  1  0
 24 52  1  6
 24 53  1  0
 24 54  1  0
 25 26  1  0
 25 31  2  0
 26 27  1  0
 26 28  2  0
 27 62  1  0
 28 29  1  0
 28 55  1  0
 29 30  2  0
 29 56  1  0
 30 31  1  0
 30 57  1  0
 31 58  1  0
 32 33  1  0
 32 59  1  0
 33 34  2  0
 33 60  1  0
 34 61  1  0
M  CHG  2  22   1  27   1
M  END
>  <s_epik_cmdline>  (581) 
J2VwaWtfcHl0aG9uJywgJy1waCcsICc3LjAwMDAwMCcsICctcGh0JywgJzIuMDAwMDAwJywgJy1tcycsICcxNicsICctdG4nLCAnOCcsICctbWEnLCAnMjAwJywgJy1pbWFlJywgJzxpbmZpbGUubWFlPicsICctb21hZScsICc8b3V0ZmlsZS5tYWU+Jw==

>  <s_epik_input>  (581) 
RmMxW2NIXWMoW2NIXVtjSF1bY0hdMSlbTkhdQyg9TylbQ0gyXVtOSF1jKG5jKGMyMylbY0hdW2NIXVtjSF1bY0hdMyluYzJbTkhdW0NIMl1jNFtjSF1bY0hdYyhbY0hdW2NIXTQpW0NIMl1OKFtDSDNdKVtDSDNd

>  <s_i_glide_gridfile>  (581) 
ATP-Grid

>  <s_lp_Force_Field>  (581) 
OPLS_2005

>  <s_lp_Variant>  (581) 
m_282030aaa____21933780____22360182____21945542-1

>  <s_lp_label>  (581) 
1994_sdstereoexpander_1_neutralizer_1_epik_1_stereoizer_1

>  <s_m_source_file>  (581) 
ATP-VSW-LIGPREP-003-in.maegz

>  <s_sd_BIOSOLVEIT.INFINISEE\_QUERY\_NAME>  (581) 
Ref-Lig

>  <s_sd_BIOSOLVEIT.INFINISEE\_QUERY\_SMILES>  (581) 
S(c1nc2c(cc1C[NH2+]Cc3ccc(cc3)C[NH+](C)C)cccc2)Cc4ccccc4

>  <s_sd_BIOSOLVEIT.INFINISEE\_REACTION\_NAME>  (581) 
m_282030aaa

>  <s_sd_BIOSOLVEIT.INFINISEE\_REAGENT1\_SMILES>  (581) 
[R1*]NCC(=O)Nc1cc(F)ccc1

>  <s_sd_BIOSOLVEIT.INFINISEE\_REAGENT2\_SMILES>  (581) 
[R2*]c1nc([R1*])c2c(n1)cccc2

>  <s_sd_BIOSOLVEIT.INFINISEE\_REAGENT3\_SMILES>  (581) 
[R2*]NCc1ccc(cc1)CN(C)C

>  <s_sd_BIOSOLVEIT.INFINISEE\_SPACE>  (581) 
REALSpace_44bn_2023-08

>  <s_vsw_compound_code>  (581) 
63779

>  <s_vsw_variant>  (581) 
63779-1

>  <r_epik_Charging_Adjusted_Penalty>  (581) 
0.094592644772881304

>  <r_epik_Ionization_Penalty>  (581) 
0.047600000000000003

>  <r_epik_Ionization_Penalty_Charging>  (581) 
0.047600000000000003

>  <r_epik_Ionization_Penalty_Neutral>  (581) 
0

>  <r_epik_State_Penalty>  (581) 
0.047

>  <r_i_docking_score>  (581) 
-5.6621400998745397

>  <r_i_glide_ecoul>  (581) 
-9.2961854934692401

>  <r_i_glide_eff_state_penalty>  (581) 
0.047

>  <r_i_glide_einternal>  (581) 
12.7910242080688

>  <r_i_glide_emodel>  (581) 
-66.930529565039706

>  <r_i_glide_energy>  (581) 
-46.810437202453599

>  <r_i_glide_erotb>  (581) 
0.75922587985082501

>  <r_i_glide_esite>  (581) 
-0.17482991564223399

>  <r_i_glide_evdw>  (581) 
-37.514251708984403

>  <r_i_glide_gscore>  (581) 
-5.7091400998745403

>  <r_i_glide_hbond>  (581) 
-0.34586663431963799

>  <r_i_glide_ligand_efficiency>  (581) 
-0.166533532349251

>  <r_i_glide_ligand_efficiency_ln>  (581) 
-1.25092556571258

>  <r_i_glide_ligand_efficiency_sa>  (581) 
-0.53950399607289801

>  <r_i_glide_lipo>  (581) 
-2.0509194411503202

>  <r_i_glide_metal>  (581) 
-0

>  <r_i_glide_rewards>  (581) 
-0.62660957914357496

>  <r_lp_Energy>  (581) 
18.007535000000001

>  <r_qp_ACxDN^.5/SA>  (581) 
0.0132538

>  <r_qp_CIQPlogS>  (581) 
-6.0289999999999999

>  <r_qp_EA(eV)>  (581) 
0.65800000000000003

>  <r_qp_FISA>  (581) 
85.897999999999996

>  <r_qp_FOSA>  (581) 
229.256

>  <r_qp_IP(eV)>  (581) 
8.0869999999999997

>  <r_qp_Jm>  (581) 
0.0067525046195256498

>  <r_qp_PISA>  (581) 
421.40100000000001

>  <r_qp_PSA>  (581) 
82.293999999999997

>  <r_qp_PercentHumanOralAbsorption>  (581) 
100

>  <r_qp_QPPCaco>  (581) 
378.64100000000002

>  <r_qp_QPPMDCK>  (581) 
270.589

>  <r_qp_QPlogBB>  (581) 
-0.40600000000000003

>  <r_qp_QPlogHERG>  (581) 
-7.4909999999999997

>  <r_qp_QPlogKhsa>  (581) 
0.71999999999999997

>  <r_qp_QPlogKp>  (581) 
-2.8170000000000002

>  <r_qp_QPlogPC16>  (581) 
15.380000000000001

>  <r_qp_QPlogPo/w>  (581) 
4.6799999999999997

>  <r_qp_QPlogPoct>  (581) 
23.533999999999999

>  <r_qp_QPlogPw>  (581) 
12.977

>  <r_qp_QPlogS>  (581) 
-5.0149999999999997

>  <r_qp_QPpolrz>  (581) 
49.030000000000001

>  <r_qp_SASA>  (581) 
763.92999999999995

>  <r_qp_SAamideO>  (581) 
0

>  <r_qp_SAfluorine>  (581) 
27.376000000000001

>  <r_qp_WPSA>  (581) 
27.376000000000001

>  <r_qp_accptHB>  (581) 
6.75

>  <r_qp_dip^2/V>  (581) 
0.017708700000000001

>  <r_qp_dipole>  (581) 
5.0190000000000001

>  <r_qp_donorHB>  (581) 
2.25

>  <r_qp_glob>  (581) 
0.80081590000000002

>  <r_qp_mol_MW>  (581) 
458.53699999999998

>  <r_qp_volume>  (581) 
1422.7619999999999

>  <r_sd_BIOSOLVEIT.INFINISEE\_FTREES\_SIMILARITY>  (581) 
0.90200000000000002

>  <r_sd_BIOSOLVEIT.LOGP>  (581) 
3.0760999999999998

>  <r_sd_BIOSOLVEIT.MOLECULAR\_WEIGHT>  (581) 
459.54599999999999

>  <r_sd_BIOSOLVEIT.TPSA>  (581) 
83.379999999999995

>  <i_epik_Tot_Q>  (581) 
2

>  <i_epik_Tot_abs_Q>  (581) 
2

>  <i_f3d_flags>  (581) 
0

>  <i_i_glide_confnum>  (581) 
10

>  <i_i_glide_lignum>  (581) 
753

>  <i_i_glide_posenum>  (581) 
16

>  <i_i_glide_rotatable_bonds>  (581) 
10

>  <i_lp_mmshare_version>  (581) 
65135

>  <i_m_ct_format>  (581) 
2

>  <i_m_source_file_index>  (581) 
1994

>  <i_qp_#NandO>  (581) 
7

>  <i_qp_#acid>  (581) 
0

>  <i_qp_#amide>  (581) 
0

>  <i_qp_#amidine>  (581) 
0

>  <i_qp_#amine>  (581) 
1

>  <i_qp_#in34>  (581) 
0

>  <i_qp_#in56>  (581) 
22

>  <i_qp_#metab>  (581) 
5

>  <i_qp_#nonHatm>  (581) 
34

>  <i_qp_#noncon>  (581) 
0

>  <i_qp_#ringatoms>  (581) 
22

>  <i_qp_#rotor>  (581) 
9

>  <i_qp_#rtvFG>  (581) 
0

>  <i_qp_#stars>  (581) 
0

>  <i_qp_CNS>  (581) 
0

>  <i_qp_HumanOralAbsorption>  (581) 
3

>  <i_qp_RuleOfFive>  (581) 
0

>  <i_qp_RuleOfThree>  (581) 
0

>  <i_sd_BIOSOLVEIT.INFINISEE\_REAGENT1\_NAME>  (581) 
21933780

>  <i_sd_BIOSOLVEIT.INFINISEE\_REAGENT2\_NAME>  (581) 
22360182

>  <i_sd_BIOSOLVEIT.INFINISEE\_REAGENT3\_NAME>  (581) 
21945542

>  <i_sd_BIOSOLVEIT.INFINISEE\_RESULT\_RANK>  (581) 
90418

>  <i_sd_version>  (581) 
0

>  <b_lp_Chiralities_Consistent>  (581) 
1

>  <b_sd_chiral_flag>  (581) 
0

>  <canonical_id>  (581) 
ATP-HTVS-5A2EB4E9D835

>  <compound_code>  (581) 
63779

>  <title>  (581) 
m_282030aaa____21933780____22360182____21945542

>  <variant>  (581) 
63779-1

>  <source_file>  (581) 
运行/运行/ATP-VSW/ATP-VSW-DOCK_HTVS_1-003_lib/ATP-VSW-DOCK_HTVS_1-003_lib.mae

>  <canonical_smiles>  (581) 
C[NH+](C)Cc1ccc(CNc2nc(NCC(=O)Nc3cccc(F)c3)[nH+]c3ccccc23)cc1

>  <scaffold>  (581) 
O=C(CNc1nc(NCc2ccccc2)c2ccccc2[nH+]1)Nc1ccccc1

>  <molecular_formula>  (581) 
C26H29FN6O+2

$$$$
ATP-HTVS-5A38D2E65B38
     RDKit          3D

 57 60  0  0  0  0  0  0  0  0999 V2000
  198.4196  184.4086  158.7968 Cl  0  0  0  0  0  0  0  0  0  0  0  0
  196.8570  184.8571  159.4052 C   0  0  0  0  0  0  0  0  0  0  0  0
  195.6612  184.1305  159.1542 C   0  0  0  0  0  0  0  0  0  0  0  0
  194.4579  184.5782  159.7391 C   0  0  0  0  0  0  0  0  0  0  0  0
  194.4214  185.7430  160.5359 C   0  0  0  0  0  0  0  0  0  0  0  0
  195.5986  186.4692  160.7552 C   0  0  0  0  0  0  0  0  0  0  0  0
  196.8022  186.0253  160.1891 C   0  0  0  0  0  0  0  0  0  0  0  0
  195.5952  182.8822  158.3417 C   0  0  0  0  0  0  0  0  0  0  0  0
  195.0049  181.8807  158.7421 O   0  0  0  0  0  0  0  0  0  0  0  0
  196.2136  182.9129  156.9965 C   0  0  0  0  0  0  0  0  0  0  0  0
  196.7174  183.0213  155.8857 C   0  0  0  0  0  0  0  0  0  0  0  0
  197.2852  183.1818  154.5382 C   0  0  0  0  0  0  0  0  0  0  0  0
  197.8371  184.4269  154.1304 C   0  0  0  0  0  0  0  0  0  0  0  0
  197.7995  185.5459  155.0028 N   0  0  0  0  0  0  0  0  0  0  0  0
  198.6545  186.5802  155.0926 C   0  0  0  0  0  0  0  0  0  0  0  0
  199.6594  186.7138  154.3908 O   0  0  0  0  0  0  0  0  0  0  0  0
  198.2775  187.6221  156.1199 C   0  0  0  0  0  0  0  0  0  0  0  0
  198.8742  188.9079  156.0893 C   0  0  0  0  0  0  0  0  0  0  0  0
  198.5252  189.8879  157.0460 C   0  0  0  0  0  0  0  0  0  0  0  0
  197.5819  189.5864  158.0506 C   0  0  0  0  0  0  0  0  0  0  0  0
  196.9676  188.3269  158.0645 C   0  0  0  0  0  0  0  0  0  0  0  0
  197.3215  187.3471  157.1279 C   0  0  0  0  0  0  0  0  0  0  0  0
  197.1630  190.6064  159.0880 C   0  0  1  0  0  0  0  0  0  0  0  0
  197.9937  190.5591  160.3056 N   0  0  2  0  0  0  0  0  0  0  0  0
  197.3039  191.1584  161.4651 C   0  0  2  0  0  0  0  0  0  0  0  0
  199.3503  191.1203  160.1020 C   0  0  2  0  0  0  0  0  0  0  0  0
  198.3329  184.5407  152.8147 C   0  0  0  0  0  0  0  0  0  0  0  0
  198.3342  183.5273  151.9275 N   0  0  0  0  0  0  0  0  0  0  0  0
  197.8402  182.3302  152.3090 C   0  0  0  0  0  0  0  0  0  0  0  0
  197.2963  182.1048  153.6084 C   0  0  0  0  0  0  0  0  0  0  0  0
  196.7805  180.8283  153.9375 C   0  0  0  0  0  0  0  0  0  0  0  0
  196.8156  179.7872  152.9968 C   0  0  0  0  0  0  0  0  0  0  0  0
  197.3650  179.9985  151.7240 C   0  0  0  0  0  0  0  0  0  0  0  0
  197.8671  181.2660  151.3858 C   0  0  0  0  0  0  0  0  0  0  0  0
  193.5453  184.0384  159.5655 H   0  0  0  0  0  0  0  0  0  0  0  0
  193.4868  186.0814  160.9548 H   0  0  0  0  0  0  0  0  0  0  0  0
  195.5804  187.3724  161.3510 H   0  0  0  0  0  0  0  0  0  0  0  0
  197.7078  186.5898  160.3476 H   0  0  0  0  0  0  0  0  0  0  0  0
  197.0727  185.5168  155.7018 H   0  0  0  0  0  0  0  0  0  0  0  0
  199.5924  189.1518  155.3151 H   0  0  0  0  0  0  0  0  0  0  0  0
  198.9615  190.8757  156.9939 H   0  0  0  0  0  0  0  0  0  0  0  0
  196.1951  188.1329  158.7914 H   0  0  0  0  0  0  0  0  0  0  0  0
  196.8310  186.3887  157.2008 H   0  0  0  0  0  0  0  0  0  0  0  0
  197.1480  191.6102  158.6525 H   0  0  0  0  0  0  0  0  0  0  0  0
  196.1348  190.3659  159.3664 H   0  0  0  0  0  0  0  0  0  0  0  0
  197.1446  192.2213  161.3189 H   0  0  0  0  0  0  0  0  0  0  0  0
  197.9117  191.0395  162.3602 H   0  0  0  0  0  0  0  0  0  0  0  0
  196.3463  190.6729  161.6548 H   0  0  0  0  0  0  0  0  0  0  0  0
  199.3003  192.1725  159.8132 H   0  0  0  0  0  0  0  0  0  0  0  0
  199.8936  190.5779  159.3241 H   0  0  0  0  0  0  0  0  0  0  0  0
  199.9544  191.0375  161.0051 H   0  0  0  0  0  0  0  0  0  0  0  0
  198.7123  185.4783  152.4369 H   0  0  0  0  0  0  0  0  0  0  0  0
  196.3591  180.6157  154.9097 H   0  0  0  0  0  0  0  0  0  0  0  0
  196.4348  178.8151  153.2547 H   0  0  0  0  0  0  0  0  0  0  0  0
  197.4037  179.1841  151.0150 H   0  0  0  0  0  0  0  0  0  0  0  0
  198.2961  181.4262  150.4085 H   0  0  0  0  0  0  0  0  0  0  0  0
  198.1387  189.5906  160.5656 H   0  0  0  0  0  0  0  0  0  0  0  0
  1  2  1  0
  2  3  1  0
  2  7  2  0
  3  4  2  0
  3  8  1  0
  4  5  1  0
  4 35  1  0
  5  6  2  0
  5 36  1  0
  6  7  1  0
  6 37  1  0
  7 38  1  0
  8  9  2  0
  8 10  1  0
 10 11  3  0
 11 12  1  0
 12 13  2  0
 12 30  1  0
 13 14  1  0
 13 27  1  0
 14 15  1  0
 14 39  1  0
 15 16  2  0
 15 17  1  0
 17 18  1  0
 17 22  2  0
 18 19  2  0
 18 40  1  0
 19 20  1  0
 19 41  1  0
 20 21  2  0
 20 23  1  0
 21 22  1  0
 21 42  1  0
 22 43  1  0
 23 24  1  0
 23 44  1  6
 23 45  1  0
 24 25  1  0
 24 26  1  0
 24 57  1  1
 25 46  1  6
 25 47  1  0
 25 48  1  0
 26 49  1  6
 26 50  1  0
 26 51  1  0
 27 28  2  0
 27 52  1  0
 28 29  1  0
 29 30  1  0
 29 34  2  0
 30 31  2  0
 31 32  1  0
 31 53  1  0
 32 33  2  0
 32 54  1  0
 33 34  1  0
 33 55  1  0
 34 56  1  0
M  CHG  1  24   1
M  END
>  <s_epik_cmdline>  (582) 
J2VwaWtfcHl0aG9uJywgJy1waCcsICc3LjAwMDAwMCcsICctcGh0JywgJzIuMDAwMDAwJywgJy1tcycsICcxNicsICctdG4nLCAnOCcsICctbWEnLCAnMjAwJywgJy1pbWFlJywgJzxpbmZpbGUubWFlPicsICctb21hZScsICc8b3V0ZmlsZS5tYWU+Jw==

>  <s_epik_input>  (582) 
W2NIXTFbY0hdW2NIXVtjSF1jKGMxQ2wpQyg9TylDI0NjKGMoYzIzKVtjSF1bY0hdW2NIXVtjSF0zKWMoW2NIXW4yKVtOSF1DKD1PKWM0W2NIXVtjSF1jKFtjSF1bY0hdNClbQ0gyXU4oW0NIM10pW0NIM10=

>  <s_i_glide_gridfile>  (582) 
ATP-Grid

>  <s_lp_Force_Field>  (582) 
OPLS_2005

>  <s_lp_Variant>  (582) 
rxn503b____EMOL18624763____EMOL30488121____EMOL41348343-1

>  <s_lp_label>  (582) 
2435_sdstereoexpander_1_neutralizer_1_epik_1_stereoizer_1

>  <s_m_source_file>  (582) 
ATP-VSW-LIGPREP-002-in.maegz

>  <s_sd_BIOSOLVEIT.INFINISEE\_QUERY\_NAME>  (582) 
Ref-Lig

>  <s_sd_BIOSOLVEIT.INFINISEE\_QUERY\_SMILES>  (582) 
S(c1nc2c(cc1C[NH2+]Cc3ccc(cc3)C[NH+](C)C)cccc2)Cc4ccccc4

>  <s_sd_BIOSOLVEIT.INFINISEE\_REACTION\_NAME>  (582) 
rxn503b

>  <s_sd_BIOSOLVEIT.INFINISEE\_REAGENT1\_NAME>  (582) 
EMOL18624763

>  <s_sd_BIOSOLVEIT.INFINISEE\_REAGENT1\_SMILES>  (582) 
O=C(O)c1ccc(cc1)CN(C)C

>  <s_sd_BIOSOLVEIT.INFINISEE\_REAGENT2\_NAME>  (582) 
EMOL30488121

>  <s_sd_BIOSOLVEIT.INFINISEE\_REAGENT2\_SMILES>  (582) 
Brc1c(N)cnc2c1cccc2

>  <s_sd_BIOSOLVEIT.INFINISEE\_REAGENT3\_NAME>  (582) 
EMOL41348343

>  <s_sd_BIOSOLVEIT.INFINISEE\_REAGENT3\_SMILES>  (582) 
Clc1c(cccc1)C(=O)C#C

>  <s_sd_BIOSOLVEIT.INFINISEE\_SPACE>  (582) 
eXplore_7tr_2022-12

>  <s_vsw_compound_code>  (582) 
77890

>  <s_vsw_variant>  (582) 
77890-1

>  <r_epik_Charging_Adjusted_Penalty>  (582) 
0.10433640840748

>  <r_epik_Ionization_Penalty>  (582) 
0.052400000000000002

>  <r_epik_Ionization_Penalty_Charging>  (582) 
0.052200000000000003

>  <r_epik_Ionization_Penalty_Neutral>  (582) 
0.00020000000000000001

>  <r_epik_State_Penalty>  (582) 
0.052200000000000003

>  <r_i_docking_score>  (582) 
-4.3796988378092703

>  <r_i_glide_ecoul>  (582) 
-2.59638524055481

>  <r_i_glide_eff_state_penalty>  (582) 
0.052200000000000003

>  <r_i_glide_einternal>  (582) 
5.8484992980956996

>  <r_i_glide_emodel>  (582) 
-54.462976241602

>  <r_i_glide_energy>  (582) 
-39.777167558670001

>  <r_i_glide_erotb>  (582) 
0.55094752851365003

>  <r_i_glide_esite>  (582) 
-0.116780738729153

>  <r_i_glide_evdw>  (582) 
-37.180782318115199

>  <r_i_glide_gscore>  (582) 
-4.4318988378092703

>  <r_i_glide_hbond>  (582) 
-0.00363253697493684

>  <r_i_glide_ligand_efficiency>  (582) 
-0.128814671700273

>  <r_i_glide_ligand_efficiency_ln>  (582) 
-0.96759831966338306

>  <r_i_glide_ligand_efficiency_sa>  (582) 
-0.41730953012736

>  <r_i_glide_lipo>  (582) 
-2.1772576886298398

>  <r_i_glide_metal>  (582) 
-0

>  <r_i_glide_rewards>  (582) 
-0.43667850000000002

>  <r_lp_Energy>  (582) 
35.182499999999997

>  <r_qp_ACxDN^.5/SA>  (582) 
0.0105319

>  <r_qp_CIQPlogS>  (582) 
-5.9900000000000002

>  <r_qp_EA(eV)>  (582) 
1.492

>  <r_qp_FISA>  (582) 
115.23099999999999

>  <r_qp_FOSA>  (582) 
150.77699999999999

>  <r_qp_IP(eV)>  (582) 
8.8170000000000002

>  <r_qp_Jm>  (582) 
0.0057987020210499302

>  <r_qp_PISA>  (582) 
399.471

>  <r_qp_PSA>  (582) 
81.146000000000001

>  <r_qp_PercentHumanOralAbsorption>  (582) 
92.290000000000006

>  <r_qp_QPPCaco>  (582) 
199.554

>  <r_qp_QPPMDCK>  (582) 
172.66300000000001

>  <r_qp_QPlogBB>  (582) 
-0.42999999999999999

>  <r_qp_QPlogHERG>  (582) 
-6.7279999999999998

>  <r_qp_QPlogKhsa>  (582) 
0.59099999999999997

>  <r_qp_QPlogKp>  (582) 
-3.6269999999999998

>  <r_qp_QPlogPC16>  (582) 
15.154999999999999

>  <r_qp_QPlogPo/w>  (582) 
4.1289999999999996

>  <r_qp_QPlogPoct>  (582) 
22.635000000000002

>  <r_qp_QPlogPw>  (582) 
12.257999999999999

>  <r_qp_QPlogS>  (582) 
-4.2800000000000002

>  <r_qp_QPpolrz>  (582) 
48.363999999999997

>  <r_qp_SASA>  (582) 
712.12400000000002

>  <r_qp_SAamideO>  (582) 
0

>  <r_qp_SAfluorine>  (582) 
0

>  <r_qp_WPSA>  (582) 
46.645000000000003

>  <r_qp_accptHB>  (582) 
7.5

>  <r_qp_dip^2/V>  (582) 
0.040400899999999997

>  <r_qp_dipole>  (582) 
7.4649999999999999

>  <r_qp_donorHB>  (582) 
1

>  <r_qp_glob>  (582) 
0.84146900000000002

>  <r_qp_mol_MW>  (582) 
467.95400000000001

>  <r_qp_volume>  (582) 
1379.251

>  <r_sd_BIOSOLVEIT.INFINISEE\_FTREES\_SIMILARITY>  (582) 
0.91700000000000004

>  <r_sd_BIOSOLVEIT.LOGP>  (582) 
4.0194000000000001

>  <r_sd_BIOSOLVEIT.MOLECULAR\_WEIGHT>  (582) 
468.96199999999999

>  <r_sd_BIOSOLVEIT.TPSA>  (582) 
63.5

>  <i_epik_Tot_Q>  (582) 
1

>  <i_epik_Tot_abs_Q>  (582) 
1

>  <i_f3d_flags>  (582) 
0

>  <i_i_glide_confnum>  (582) 
6

>  <i_i_glide_lignum>  (582) 
1047

>  <i_i_glide_posenum>  (582) 
15

>  <i_i_glide_rotatable_bonds>  (582) 
8

>  <i_lp_mmshare_version>  (582) 
65135

>  <i_m_ct_format>  (582) 
2

>  <i_m_source_file_index>  (582) 
2435

>  <i_qp_#NandO>  (582) 
5

>  <i_qp_#acid>  (582) 
0

>  <i_qp_#amide>  (582) 
0

>  <i_qp_#amidine>  (582) 
0

>  <i_qp_#amine>  (582) 
1

>  <i_qp_#in34>  (582) 
0

>  <i_qp_#in56>  (582) 
22

>  <i_qp_#metab>  (582) 
3

>  <i_qp_#nonHatm>  (582) 
34

>  <i_qp_#noncon>  (582) 
0

>  <i_qp_#ringatoms>  (582) 
22

>  <i_qp_#rotor>  (582) 
7

>  <i_qp_#rtvFG>  (582) 
0

>  <i_qp_#stars>  (582) 
0

>  <i_qp_CNS>  (582) 
1

>  <i_qp_HumanOralAbsorption>  (582) 
3

>  <i_qp_RuleOfFive>  (582) 
0

>  <i_qp_RuleOfThree>  (582) 
0

>  <i_sd_BIOSOLVEIT.INFINISEE\_RESULT\_RANK>  (582) 
23795

>  <i_sd_version>  (582) 
0

>  <b_lp_Chiralities_Consistent>  (582) 
1

>  <b_sd_chiral_flag>  (582) 
0

>  <canonical_id>  (582) 
ATP-HTVS-5A38D2E65B38

>  <compound_code>  (582) 
77890

>  <title>  (582) 
rxn503b____EMOL18624763____EMOL30488121____EMOL41348343

>  <variant>  (582) 
77890-1

>  <source_file>  (582) 
运行/运行/ATP-VSW/ATP-VSW-DOCK_HTVS_1-002_lib.maegz

>  <canonical_smiles>  (582) 
C[NH+](C)Cc1ccc(C(=O)Nc2cnc3ccccc3c2C#CC(=O)c2ccccc2Cl)cc1

>  <scaffold>  (582) 
O=C(C#Cc1c(NC(=O)c2ccccc2)cnc2ccccc12)c1ccccc1

>  <molecular_formula>  (582) 
C28H23ClN3O2+

$$$$
ATP-HTVS-5A3D1DB8098B
     RDKit          3D

 66 69  0  0  0  0  0  0  0  0999 V2000
  192.9794  183.7599  158.8425 F   0  0  0  0  0  0  0  0  0  0  0  0
  194.3132  183.5369  158.8755 C   0  0  0  0  0  0  0  0  0  0  0  0
  195.1821  184.6445  158.9889 C   0  0  0  0  0  0  0  0  0  0  0  0
  196.5702  184.4325  159.0932 C   0  0  0  0  0  0  0  0  0  0  0  0
  197.0685  183.1035  159.0591 C   0  0  0  0  0  0  0  0  0  0  0  0
  196.2001  181.9971  158.9164 C   0  0  0  0  0  0  0  0  0  0  0  0
  194.8176  182.2138  158.8180 C   0  0  0  0  0  0  0  0  0  0  0  0
  197.5593  185.5976  159.2499 C   0  0  2  0  0  0  0  0  0  0  0  0
  196.9251  186.9763  159.5863 C   0  0  1  0  0  0  0  0  0  0  0  0
  196.2644  186.9357  160.8307 O   0  0  0  0  0  0  0  0  0  0  0  0
  198.4841  185.7169  158.0144 C   0  0  1  0  0  0  0  0  0  0  0  0
  197.7769  186.1720  156.8268 N   0  0  0  0  0  0  0  0  0  0  0  0
  197.7529  185.4156  155.6813 C   0  0  0  0  0  0  0  0  0  0  0  0
  197.4362  184.1217  155.7737 N   0  0  0  0  0  0  0  0  0  0  0  0
  197.2343  183.4231  154.6473 C   0  0  0  0  0  0  0  0  0  0  0  0
  196.7537  182.1219  154.7900 N   0  0  0  0  0  0  0  0  0  0  0  0
  197.4364  181.2086  155.6897 C   0  0  1  0  0  0  0  0  0  0  0  0
  198.4527  180.3088  155.0092 C   0  0  0  0  0  0  0  0  0  0  0  0
  199.6317  179.9729  155.6998 C   0  0  0  0  0  0  0  0  0  0  0  0
  200.5533  179.0505  155.1523 C   0  0  0  0  0  0  0  0  0  0  0  0
  200.2892  178.5121  153.8691 C   0  0  0  0  0  0  0  0  0  0  0  0
  199.1269  178.8681  153.1587 C   0  0  0  0  0  0  0  0  0  0  0  0
  198.1956  179.7534  153.7326 C   0  0  0  0  0  0  0  0  0  0  0  0
  201.7906  178.6117  155.9433 C   0  0  1  0  0  0  0  0  0  0  0  0
  201.5503  177.4918  156.8824 N   0  0  1  0  0  0  0  0  0  0  0  0
  200.5927  177.8222  157.9613 C   0  0  2  0  0  0  0  0  0  0  0  0
  201.1855  176.2311  156.2041 C   0  0  2  0  0  0  0  0  0  0  0  0
  197.4476  183.9964  153.3818 C   0  0  0  0  0  0  0  0  0  0  0  0
  197.8595  185.3487  153.3637 C   0  0  0  0  0  0  0  0  0  0  0  0
  197.9840  186.0269  154.5212 N   0  0  0  0  0  0  0  0  0  0  0  0
  198.1643  185.9814  152.1422 C   0  0  0  0  0  0  0  0  0  0  0  0
  198.0464  185.2733  150.9350 C   0  0  0  0  0  0  0  0  0  0  0  0
  197.6086  183.9285  150.9441 C   0  0  0  0  0  0  0  0  0  0  0  0
  197.3023  183.2900  152.1681 C   0  0  0  0  0  0  0  0  0  0  0  0
  194.7660  185.6410  159.0035 H   0  0  0  0  0  0  0  0  0  0  0  0
  198.1425  182.9194  159.1481 H   0  0  0  0  0  0  0  0  0  0  0  0
  196.6148  180.9999  158.9115 H   0  0  0  0  0  0  0  0  0  0  0  0
  194.1554  181.3587  158.7265 H   0  0  0  0  0  0  0  0  0  0  0  0
  198.2094  185.3283  160.0903 H   0  0  0  0  0  0  0  0  0  0  0  0
  197.7097  187.7480  159.6461 H   0  0  0  0  0  0  0  0  0  0  0  0
  196.2001  187.2696  158.8312 H   0  0  0  0  0  0  0  0  0  0  0  0
  195.7969  187.7480  160.9596 H   0  0  0  0  0  0  0  0  0  0  0  0
  199.2836  186.4321  158.2079 H   0  0  0  0  0  0  0  0  0  0  0  0
  198.9820  184.7582  157.8282 H   0  0  0  0  0  0  0  0  0  0  0  0
  197.7953  187.1689  156.6870 H   0  0  0  0  0  0  0  0  0  0  0  0
  196.1725  181.7381  154.0766 H   0  0  0  0  0  0  0  0  0  0  0  0
  197.9236  181.7566  156.5081 H   0  0  0  0  0  0  0  0  0  0  0  0
  196.6779  180.5956  156.1761 H   0  0  0  0  0  0  0  0  0  0  0  0
  199.8036  180.3975  156.6810 H   0  0  0  0  0  0  0  0  0  0  0  0
  200.9779  177.8042  153.4332 H   0  0  0  0  0  0  0  0  0  0  0  0
  198.9221  178.4126  152.2035 H   0  0  0  0  0  0  0  0  0  0  0  0
  197.2729  179.9631  153.2087 H   0  0  0  0  0  0  0  0  0  0  0  0
  202.5693  178.3331  155.2269 H   0  0  0  0  0  0  0  0  0  0  0  0
  202.1760  179.4777  156.4953 H   0  0  0  0  0  0  0  0  0  0  0  0
  199.5846  178.0357  157.5923 H   0  0  0  0  0  0  0  0  0  0  0  0
  200.9381  178.6864  158.5274 H   0  0  0  0  0  0  0  0  0  0  0  0
  200.4929  177.0071  158.6778 H   0  0  0  0  0  0  0  0  0  0  0  0
  200.2185  176.2813  155.6942 H   0  0  0  0  0  0  0  0  0  0  0  0
  201.1163  175.4162  156.9204 H   0  0  0  0  0  0  0  0  0  0  0  0
  201.9332  175.9409  155.4645 H   0  0  0  0  0  0  0  0  0  0  0  0
  198.4967  187.0077  152.1260 H   0  0  0  0  0  0  0  0  0  0  0  0
  198.2926  185.7491  149.9926 H   0  0  0  0  0  0  0  0  0  0  0  0
  197.5286  183.3795  150.0104 H   0  0  0  0  0  0  0  0  0  0  0  0
  196.9853  182.2567  152.1602 H   0  0  0  0  0  0  0  0  0  0  0  0
  198.1943  187.0316  154.4831 H   0  0  0  0  0  0  0  0  0  0  0  0
  202.4588  177.3584  157.3093 H   0  0  0  0  0  0  0  0  0  0  0  0
  1  2  1  0
  2  3  2  0
  2  7  1  0
  3  4  1  0
  3 35  1  0
  4  5  2  0
  4  8  1  0
  5  6  1  0
  5 36  1  0
  6  7  2  0
  6 37  1  0
  7 38  1  0
  8  9  1  0
  8 11  1  0
  8 39  1  1
  9 10  1  0
  9 40  1  1
  9 41  1  0
 10 42  1  0
 11 12  1  0
 11 43  1  1
 11 44  1  0
 12 13  1  0
 12 45  1  0
 13 14  1  0
 13 30  2  0
 14 15  2  0
 15 16  1  0
 15 28  1  0
 16 17  1  0
 16 46  1  0
 17 18  1  0
 17 47  1  1
 17 48  1  0
 18 19  2  0
 18 23  1  0
 19 20  1  0
 19 49  1  0
 20 21  2  0
 20 24  1  0
 21 22  1  0
 21 50  1  0
 22 23  2  0
 22 51  1  0
 23 52  1  0
 24 25  1  0
 24 53  1  6
 24 54  1  0
 25 26  1  0
 25 27  1  0
 25 66  1  1
 26 55  1  6
 26 56  1  0
 26 57  1  0
 27 58  1  6
 27 59  1  0
 27 60  1  0
 28 29  1  0
 28 34  2  0
 29 30  1  0
 29 31  2  0
 30 65  1  0
 31 32  1  0
 31 61  1  0
 32 33  2  0
 32 62  1  0
 33 34  1  0
 33 63  1  0
 34 64  1  0
M  CHG  2  25   1  30   1
M  END
>  <s_epik_cmdline>  (583) 
J2VwaWtfcHl0aG9uJywgJy1waCcsICc3LjAwMDAwMCcsICctcGh0JywgJzIuMDAwMDAwJywgJy1tcycsICcxNicsICctdG4nLCAnOCcsICctbWEnLCAnMjAwJywgJy1pbWFlJywgJzxpbmZpbGUubWFlPicsICctb21hZScsICc8b3V0ZmlsZS5tYWU+Jw==

>  <s_epik_input>  (583) 
RmMxW2NIXWMoW2NIXVtjSF1bY0hdMSlbQ0BIXShbQ0gyXVtPSF0pW0NIMl1bTkhdYyhuYyhjMjMpW2NIXVtjSF1bY0hdW2NIXTMpbmMyW05IXVtDSDJdYzRbY0hdYyhbY0hdW2NIXVtjSF00KVtDSDJdTihbQ0gzXSlbQ0gzXQ==

>  <s_i_glide_gridfile>  (583) 
ATP-Grid

>  <s_lp_Force_Field>  (583) 
OPLS_2005

>  <s_lp_Variant>  (583) 
m_282030aaa____21899930____22360182____21940090-2

>  <s_lp_label>  (583) 
1723_sdstereoexpander_2_neutralizer_1_epik_1_stereoizer_1

>  <s_m_source_file>  (583) 
ATP-VSW-LIGPREP-001-in.maegz

>  <s_sd_BIOSOLVEIT.INFINISEE\_QUERY\_NAME>  (583) 
Ref-Lig

>  <s_sd_BIOSOLVEIT.INFINISEE\_QUERY\_SMILES>  (583) 
S(c1nc2c(cc1C[NH2+]Cc3ccc(cc3)C[NH+](C)C)cccc2)Cc4ccccc4

>  <s_sd_BIOSOLVEIT.INFINISEE\_REACTION\_NAME>  (583) 
m_282030aaa

>  <s_sd_BIOSOLVEIT.INFINISEE\_REAGENT1\_SMILES>  (583) 
[R1*]NCC(c1cc(F)ccc1)CO

>  <s_sd_BIOSOLVEIT.INFINISEE\_REAGENT2\_SMILES>  (583) 
[R2*]c1nc([R1*])c2c(n1)cccc2

>  <s_sd_BIOSOLVEIT.INFINISEE\_REAGENT3\_SMILES>  (583) 
[R2*]NCc1cc(ccc1)CN(C)C

>  <s_sd_BIOSOLVEIT.INFINISEE\_SPACE>  (583) 
REALSpace_44bn_2023-08

>  <s_vsw_compound_code>  (583) 
55105

>  <s_vsw_variant>  (583) 
55105-2

>  <r_epik_Charging_Adjusted_Penalty>  (583) 
0.122725665163888

>  <r_epik_Ionization_Penalty>  (583) 
0.058900000000000001

>  <r_epik_Ionization_Penalty_Charging>  (583) 
0.058799999999999998

>  <r_epik_Ionization_Penalty_Neutral>  (583) 
0

>  <r_epik_State_Penalty>  (583) 
0.063899999999999998

>  <r_i_docking_score>  (583) 
-4.2751000959886998

>  <r_i_glide_ecoul>  (583) 
-8.2508029937744105

>  <r_i_glide_eff_state_penalty>  (583) 
0.063899999999999998

>  <r_i_glide_einternal>  (583) 
19.010225296020501

>  <r_i_glide_emodel>  (583) 
-55.294203471334299

>  <r_i_glide_energy>  (583) 
-44.301862716674798

>  <r_i_glide_erotb>  (583) 
0.75614878094372895

>  <r_i_glide_esite>  (583) 
-0.100703327417549

>  <r_i_glide_evdw>  (583) 
-36.051059722900398

>  <r_i_glide_gscore>  (583) 
-4.3390000959887001

>  <r_i_glide_hbond>  (583) 
0

>  <r_i_glide_ligand_efficiency>  (583) 
-0.12573823811731499

>  <r_i_glide_ligand_efficiency_ln>  (583) 
-0.94448952369988903

>  <r_i_glide_ligand_efficiency_sa>  (583) 
-0.40734307959787802

>  <r_i_glide_lipo>  (583) 
-1.38346964973868

>  <r_i_glide_metal>  (583) 
-0

>  <r_i_glide_rewards>  (583) 
-0.57080246456501404

>  <r_lp_Energy>  (583) 
20.872651000000001

>  <r_qp_ACxDN^.5/SA>  (583) 
0.016130800000000001

>  <r_qp_CIQPlogS>  (583) 
-5.9969999999999999

>  <r_qp_EA(eV)>  (583) 
0.46800000000000003

>  <r_qp_FISA>  (583) 
83.238

>  <r_qp_FOSA>  (583) 
237.84800000000001

>  <r_qp_IP(eV)>  (583) 
7.8570000000000002

>  <r_qp_Jm>  (583) 
0.078715645141402502

>  <r_qp_PISA>  (583) 
351.37299999999999

>  <r_qp_PSA>  (583) 
67.992000000000004

>  <r_qp_PercentHumanOralAbsorption>  (583) 
100

>  <r_qp_QPPCaco>  (583) 
401.286

>  <r_qp_QPPMDCK>  (583) 
368.83499999999998

>  <r_qp_QPlogBB>  (583) 
-0.36099999999999999

>  <r_qp_QPlogHERG>  (583) 
-6.4240000000000004

>  <r_qp_QPlogKhsa>  (583) 
0.60299999999999998

>  <r_qp_QPlogKp>  (583) 
-2.8220000000000001

>  <r_qp_QPlogPC16>  (583) 
14.689

>  <r_qp_QPlogPo/w>  (583) 
4.548

>  <r_qp_QPlogPoct>  (583) 
23.922999999999998

>  <r_qp_QPlogPw>  (583) 
12.99

>  <r_qp_QPlogS>  (583) 
-3.944

>  <r_qp_QPpolrz>  (583) 
46.648000000000003

>  <r_qp_SASA>  (583) 
719.41499999999996

>  <r_qp_SAamideO>  (583) 
0

>  <r_qp_SAfluorine>  (583) 
46.954999999999998

>  <r_qp_WPSA>  (583) 
46.954999999999998

>  <r_qp_accptHB>  (583) 
6.7000000000000002

>  <r_qp_dip^2/V>  (583) 
0.0219408

>  <r_qp_dipole>  (583) 
5.5659999999999998

>  <r_qp_donorHB>  (583) 
3

>  <r_qp_glob>  (583) 
0.84608839999999996

>  <r_qp_mol_MW>  (583) 
459.565

>  <r_qp_volume>  (583) 
1412.0329999999999

>  <r_sd_BIOSOLVEIT.INFINISEE\_FTREES\_SIMILARITY>  (583) 
0.90500000000000003

>  <r_sd_BIOSOLVEIT.LOGP>  (583) 
3.2134999999999998

>  <r_sd_BIOSOLVEIT.MOLECULAR\_WEIGHT>  (583) 
460.57400000000001

>  <r_sd_BIOSOLVEIT.TPSA>  (583) 
74.510000000000005

>  <i_epik_Tot_Q>  (583) 
2

>  <i_epik_Tot_abs_Q>  (583) 
2

>  <i_f3d_flags>  (583) 
0

>  <i_i_glide_confnum>  (583) 
7

>  <i_i_glide_lignum>  (583) 
485

>  <i_i_glide_posenum>  (583) 
15

>  <i_i_glide_rotatable_bonds>  (583) 
11

>  <i_lp_mmshare_version>  (583) 
65135

>  <i_m_ct_format>  (583) 
2

>  <i_m_source_file_index>  (583) 
1723

>  <i_qp_#NandO>  (583) 
6

>  <i_qp_#acid>  (583) 
0

>  <i_qp_#amide>  (583) 
0

>  <i_qp_#amidine>  (583) 
0

>  <i_qp_#amine>  (583) 
1

>  <i_qp_#in34>  (583) 
0

>  <i_qp_#in56>  (583) 
22

>  <i_qp_#metab>  (583) 
7

>  <i_qp_#nonHatm>  (583) 
34

>  <i_qp_#noncon>  (583) 
0

>  <i_qp_#ringatoms>  (583) 
22

>  <i_qp_#rotor>  (583) 
11

>  <i_qp_#rtvFG>  (583) 
0

>  <i_qp_#stars>  (583) 
1

>  <i_qp_CNS>  (583) 
0

>  <i_qp_HumanOralAbsorption>  (583) 
3

>  <i_qp_RuleOfFive>  (583) 
0

>  <i_qp_RuleOfThree>  (583) 
1

>  <i_sd_BIOSOLVEIT.INFINISEE\_REAGENT1\_NAME>  (583) 
21899930

>  <i_sd_BIOSOLVEIT.INFINISEE\_REAGENT2\_NAME>  (583) 
22360182

>  <i_sd_BIOSOLVEIT.INFINISEE\_REAGENT3\_NAME>  (583) 
21940090

>  <i_sd_BIOSOLVEIT.INFINISEE\_RESULT\_RANK>  (583) 
72990

>  <i_sd_version>  (583) 
0

>  <b_lp_Chiralities_Consistent>  (583) 
1

>  <b_sd_chiral_flag>  (583) 
0

>  <canonical_id>  (583) 
ATP-HTVS-5A3D1DB8098B

>  <compound_code>  (583) 
55105

>  <title>  (583) 
m_282030aaa____21899930____22360182____21940090

>  <variant>  (583) 
55105-2

>  <source_file>  (583) 
运行/运行/ATP-VSW/ATP-VSW-DOCK_HTVS_1-001_lib/ATP-VSW-DOCK_HTVS_1-001_lib

>  <canonical_smiles>  (583) 
C[NH+](C)Cc1cccc(CNc2nc(NC[C@@H](CO)c3cccc(F)c3)[nH+]c3ccccc23)c1

>  <scaffold>  (583) 
c1ccc(CCNc2nc(NCc3ccccc3)c3ccccc3[nH+]2)cc1

>  <molecular_formula>  (583) 
C27H32FN5O+2

$$$$
ATP-HTVS-5A74948D5858
     RDKit          3D

 55 58  0  0  0  0  0  0  0  0999 V2000
  195.4522  183.8183  150.5385 O   0  0  0  0  0  0  0  0  0  0  0  0
  196.6905  183.8821  150.6785 C   0  0  0  0  0  0  0  0  0  0  0  0
  197.4684  184.3865  149.8390 O   0  0  0  0  0  0  0  0  0  0  0  0
  197.2941  183.4163  152.0204 C   0  0  2  0  0  0  0  0  0  0  0  0
  197.5713  184.6114  152.8103 N   0  0  0  0  0  0  0  0  0  0  0  0
  197.6619  184.5816  154.2130 C   0  0  0  0  0  0  0  0  0  0  0  0
  197.1886  183.4895  154.8681 N   0  0  0  0  0  0  0  0  0  0  0  0
  197.2870  183.4062  156.2129 C   0  0  0  0  0  0  0  0  0  0  0  0
  196.7949  182.2238  156.7578 N   0  0  0  0  0  0  0  0  0  0  0  0
  197.8868  184.4161  157.0081 C   0  0  0  0  0  0  0  0  0  0  0  0
  198.3925  185.5609  156.3322 C   0  0  0  0  0  0  0  0  0  0  0  0
  198.2621  185.6566  154.9154 C   0  0  0  0  0  0  0  0  0  0  0  0
  198.7530  186.8013  154.2335 C   0  0  0  0  0  0  0  0  0  0  0  0
  199.3634  187.8551  154.9402 C   0  0  0  0  0  0  0  0  0  0  0  0
  199.5139  187.7513  156.3360 C   0  0  0  0  0  0  0  0  0  0  0  0
  199.0457  186.6169  157.0273 C   0  0  0  0  0  0  0  0  0  0  0  0
  197.9832  184.2616  158.5343 C   0  0  1  0  0  0  0  0  0  0  0  0
  196.8482  184.9557  159.2775 C   0  0  0  0  0  0  0  0  0  0  0  0
  197.0403  186.2328  159.8523 C   0  0  0  0  0  0  0  0  0  0  0  0
  195.9789  186.8794  160.5164 C   0  0  0  0  0  0  0  0  0  0  0  0
  194.7335  186.2375  160.6523 C   0  0  0  0  0  0  0  0  0  0  0  0
  194.5444  184.9561  160.1057 C   0  0  0  0  0  0  0  0  0  0  0  0
  195.5978  184.3132  159.4158 C   0  0  0  0  0  0  0  0  0  0  0  0
  198.5624  182.5255  151.9032 C   0  0  1  0  0  0  0  0  0  0  0  0
  198.3532  181.0787  151.4800 C   0  0  0  0  0  0  0  0  0  0  0  0
  197.6576  180.7575  150.2934 C   0  0  0  0  0  0  0  0  0  0  0  0
  197.4750  179.4127  149.9174 C   0  0  0  0  0  0  0  0  0  0  0  0
  198.0211  178.3750  150.7030 C   0  0  0  0  0  0  0  0  0  0  0  0
  198.7286  178.6918  151.8832 C   0  0  0  0  0  0  0  0  0  0  0  0
  198.8881  180.0371  152.2741 C   0  0  0  0  0  0  0  0  0  0  0  0
  196.7099  179.1286  148.6411 C   0  0  2  0  0  0  0  0  0  0  0  0
  196.5047  182.8719  152.5263 H   0  0  0  0  0  0  0  0  0  0  0  0
  197.9526  185.3962  152.3071 H   0  0  0  0  0  0  0  0  0  0  0  0
  196.7753  182.0266  157.7490 H   0  0  0  0  0  0  0  0  0  0  0  0
  196.2831  181.5846  156.1604 H   0  0  0  0  0  0  0  0  0  0  0  0
  198.6625  186.8996  153.1592 H   0  0  0  0  0  0  0  0  0  0  0  0
  199.7457  188.7186  154.4140 H   0  0  0  0  0  0  0  0  0  0  0  0
  199.9867  188.5535  156.8876 H   0  0  0  0  0  0  0  0  0  0  0  0
  199.2268  186.5699  158.0864 H   0  0  0  0  0  0  0  0  0  0  0  0
  197.9559  183.2116  158.8159 H   0  0  0  0  0  0  0  0  0  0  0  0
  198.9541  184.5969  158.8715 H   0  0  0  0  0  0  0  0  0  0  0  0
  197.9888  186.7470  159.7972 H   0  0  0  0  0  0  0  0  0  0  0  0
  196.1420  187.8615  160.9396 H   0  0  0  0  0  0  0  0  0  0  0  0
  193.9355  186.7261  161.1912 H   0  0  0  0  0  0  0  0  0  0  0  0
  193.5881  184.4563  160.2027 H   0  0  0  0  0  0  0  0  0  0  0  0
  195.4400  183.3224  159.0100 H   0  0  0  0  0  0  0  0  0  0  0  0
  199.3055  183.0010  151.2567 H   0  0  0  0  0  0  0  0  0  0  0  0
  199.0325  182.5141  152.8907 H   0  0  0  0  0  0  0  0  0  0  0  0
  197.2612  181.5205  149.6306 H   0  0  0  0  0  0  0  0  0  0  0  0
  197.9089  177.3411  150.4005 H   0  0  0  0  0  0  0  0  0  0  0  0
  199.1635  177.9016  152.4902 H   0  0  0  0  0  0  0  0  0  0  0  0
  199.4395  180.2664  153.1811 H   0  0  0  0  0  0  0  0  0  0  0  0
  196.3533  178.1038  148.5923 H   0  0  0  0  0  0  0  0  0  0  0  0
  197.3585  179.3145  147.7888 H   0  0  0  0  0  0  0  0  0  0  0  0
  195.8562  179.8017  148.5623 H   0  0  0  0  0  0  0  0  0  0  0  0
  1  2  1  0
  2  3  2  0
  2  4  1  0
  4  5  1  0
  4 24  1  0
  4 32  1  1
  5  6  1  0
  5 33  1  0
  6  7  1  0
  6 12  2  0
  7  8  2  0
  8  9  1  0
  8 10  1  0
  9 34  1  0
  9 35  1  0
 10 11  2  0
 10 17  1  0
 11 12  1  0
 11 16  1  0
 12 13  1  0
 13 14  2  0
 13 36  1  0
 14 15  1  0
 14 37  1  0
 15 16  2  0
 15 38  1  0
 16 39  1  0
 17 18  1  0
 17 40  1  6
 17 41  1  0
 18 19  2  0
 18 23  1  0
 19 20  1  0
 19 42  1  0
 20 21  2  0
 20 43  1  0
 21 22  1  0
 21 44  1  0
 22 23  2  0
 22 45  1  0
 23 46  1  0
 24 25  1  0
 24 47  1  6
 24 48  1  0
 25 26  1  0
 25 30  2  0
 26 27  2  0
 26 49  1  0
 27 28  1  0
 27 31  1  0
 28 29  2  0
 28 50  1  0
 29 30  1  0
 29 51  1  0
 30 52  1  0
 31 53  1  1
 31 54  1  0
 31 55  1  0
M  CHG  1   1  -1
M  END
>  <s_epik_cmdline>  (584) 
J2VwaWtfcHl0aG9uJywgJy1waCcsICc3LjAwMDAwMCcsICctcGh0JywgJzIuMDAwMDAwJywgJy1tcycsICcxNicsICctdG4nLCAnOCcsICctbWEnLCAnMjAwJywgJy1pbWFlJywgJzxpbmZpbGUubWFlPicsICctb21hZScsICc8b3V0ZmlsZS5tYWU+Jw==

>  <s_epik_input>  (584) 
W2NIXTFbY0hdW2NIXWMoW0NIM10pW2NIXWMxW0NIMl1bQ0BIXShDKD1PKVtPSF0pW05IXWMoYyhjMjMpW2NIXVtjSF1bY0hdW2NIXTMpbmMoW05IMl0pYzJbQ0gyXWM0W2NIXVtjSF1bY0hdW2NIXVtjSF00

>  <s_i_glide_gridfile>  (584) 
ATP-Grid

>  <s_lp_Force_Field>  (584) 
OPLS_2005

>  <s_lp_Variant>  (584) 
rxn102b____EMOL723898____EMOL6283227-1

>  <s_lp_label>  (584) 
2817_sdstereoexpander_1_neutralizer_1_epik_1_stereoizer_1

>  <s_m_source_file>  (584) 
ATP-VSW-LIGPREP-002-in.maegz

>  <s_sd_BIOSOLVEIT.INFINISEE\_QUERY\_NAME>  (584) 
Ref-Lig

>  <s_sd_BIOSOLVEIT.INFINISEE\_QUERY\_SMILES>  (584) 
S(c1nc2c(cc1C[NH2+]Cc3ccc(cc3)C[NH+](C)C)cccc2)Cc4ccccc4

>  <s_sd_BIOSOLVEIT.INFINISEE\_REACTION\_NAME>  (584) 
rxn102b

>  <s_sd_BIOSOLVEIT.INFINISEE\_REAGENT1\_NAME>  (584) 
EMOL723898

>  <s_sd_BIOSOLVEIT.INFINISEE\_REAGENT1\_SMILES>  (584) 
Brc1nc(N)c(c2c1cccc2)Cc3ccccc3

>  <s_sd_BIOSOLVEIT.INFINISEE\_REAGENT2\_NAME>  (584) 
EMOL6283227

>  <s_sd_BIOSOLVEIT.INFINISEE\_REAGENT2\_SMILES>  (584) 
O=C(O)C(N)Cc1cc(ccc1)C

>  <s_sd_BIOSOLVEIT.INFINISEE\_SPACE>  (584) 
eXplore_7tr_2022-12

>  <s_vsw_compound_code>  (584) 
90114

>  <s_vsw_variant>  (584) 
90114-1

>  <r_epik_Charging_Adjusted_Penalty>  (584) 
0.146742995353533

>  <r_epik_Ionization_Penalty>  (584) 
0.1472

>  <r_epik_Ionization_Penalty_Charging>  (584) 
0.00029999999999999997

>  <r_epik_Ionization_Penalty_Neutral>  (584) 
0.1469

>  <r_epik_State_Penalty>  (584) 
0.1464

>  <r_i_docking_score>  (584) 
-3.57609795684587

>  <r_i_glide_ecoul>  (584) 
-0.61319839954376198

>  <r_i_glide_eff_state_penalty>  (584) 
0.1464

>  <r_i_glide_einternal>  (584) 
1.50475633144379

>  <r_i_glide_emodel>  (584) 
-40.3083821161133

>  <r_i_glide_energy>  (584) 
-32.827080845832803

>  <r_i_glide_erotb>  (584) 
0.70150695381360995

>  <r_i_glide_esite>  (584) 
-0.073494184573240307

>  <r_i_glide_evdw>  (584) 
-32.213882446289098

>  <r_i_glide_gscore>  (584) 
-3.7224979568458698

>  <r_i_glide_hbond>  (584) 
-0.146856448491653

>  <r_i_glide_ligand_efficiency>  (584) 
-0.115357998607931

>  <r_i_glide_ligand_efficiency_ln>  (584) 
-0.80651968350935099

>  <r_i_glide_ligand_efficiency_sa>  (584) 
-0.36238338451074198

>  <r_i_glide_lipo>  (584) 
-1.75770170559856

>  <r_i_glide_metal>  (584) 
-0

>  <r_i_glide_rewards>  (584) 
-0.74327868975000699

>  <r_lp_Energy>  (584) 
12.268174999999999

>  <r_qp_ACxDN^.5/SA>  (584) 
0.010016499999999999

>  <r_qp_CIQPlogS>  (584) 
-7.3029999999999999

>  <r_qp_EA(eV)>  (584) 
0.80800000000000005

>  <r_qp_FISA>  (584) 
145.65600000000001

>  <r_qp_FOSA>  (584) 
110.746

>  <r_qp_IP(eV)>  (584) 
7.8700000000000001

>  <r_qp_Jm>  (584) 
0.21984668006390101

>  <r_qp_PISA>  (584) 
328.53500000000003

>  <r_qp_PSA>  (584) 
88.926000000000002

>  <r_qp_PercentHumanOralAbsorption>  (584) 
91.185000000000002

>  <r_qp_QPPCaco>  (584) 
104.289

>  <r_qp_QPPMDCK>  (584) 
54.654000000000003

>  <r_qp_QPlogBB>  (584) 
-1.052

>  <r_qp_QPlogHERG>  (584) 
-2.4950000000000001

>  <r_qp_QPlogKhsa>  (584) 
0.52000000000000002

>  <r_qp_QPlogKp>  (584) 
-2.2789999999999999

>  <r_qp_QPlogPC16>  (584) 
13.509

>  <r_qp_QPlogPo/w>  (584) 
4.8019999999999996

>  <r_qp_QPlogPoct>  (584) 
20.344999999999999

>  <r_qp_QPlogPw>  (584) 
10.548999999999999

>  <r_qp_QPlogS>  (584) 
-3.9940000000000002

>  <r_qp_QPpolrz>  (584) 
39.250999999999998

>  <r_qp_SASA>  (584) 
584.93799999999999

>  <r_qp_SAamideO>  (584) 
0

>  <r_qp_SAfluorine>  (584) 
0

>  <r_qp_WPSA>  (584) 
0

>  <r_qp_accptHB>  (584) 
3.25

>  <r_qp_dip^2/V>  (584) 
0.036090799999999999

>  <r_qp_dipole>  (584) 
6.5380000000000003

>  <r_qp_donorHB>  (584) 
3.25

>  <r_qp_glob>  (584) 
0.9255835

>  <r_qp_mol_MW>  (584) 
411.50200000000001

>  <r_qp_volume>  (584) 
1184.5139999999999

>  <r_sd_BIOSOLVEIT.INFINISEE\_FTREES\_SIMILARITY>  (584) 
0.90600000000000003

>  <r_sd_BIOSOLVEIT.LOGP>  (584) 
3.4893200000000002

>  <r_sd_BIOSOLVEIT.MOLECULAR\_WEIGHT>  (584) 
410.495

>  <r_sd_BIOSOLVEIT.TPSA>  (584) 
91.069999999999993

>  <i_epik_Tot_Q>  (584) 
-1

>  <i_epik_Tot_abs_Q>  (584) 
1

>  <i_f3d_flags>  (584) 
0

>  <i_i_glide_confnum>  (584) 
5

>  <i_i_glide_lignum>  (584) 
1369

>  <i_i_glide_posenum>  (584) 
6

>  <i_i_glide_rotatable_bonds>  (584) 
7

>  <i_lp_mmshare_version>  (584) 
65135

>  <i_m_ct_format>  (584) 
2

>  <i_m_source_file_index>  (584) 
2817

>  <i_qp_#NandO>  (584) 
5

>  <i_qp_#acid>  (584) 
1

>  <i_qp_#amide>  (584) 
0

>  <i_qp_#amidine>  (584) 
0

>  <i_qp_#amine>  (584) 
0

>  <i_qp_#in34>  (584) 
0

>  <i_qp_#in56>  (584) 
22

>  <i_qp_#metab>  (584) 
5

>  <i_qp_#nonHatm>  (584) 
31

>  <i_qp_#noncon>  (584) 
0

>  <i_qp_#ringatoms>  (584) 
22

>  <i_qp_#rotor>  (584) 
8

>  <i_qp_#rtvFG>  (584) 
0

>  <i_qp_#stars>  (584) 
1

>  <i_qp_CNS>  (584) 
-2

>  <i_qp_HumanOralAbsorption>  (584) 
3

>  <i_qp_RuleOfFive>  (584) 
0

>  <i_qp_RuleOfThree>  (584) 
0

>  <i_sd_BIOSOLVEIT.INFINISEE\_RESULT\_RANK>  (584) 
65339

>  <i_sd_version>  (584) 
0

>  <b_lp_Chiralities_Consistent>  (584) 
1

>  <b_sd_chiral_flag>  (584) 
0

>  <canonical_id>  (584) 
ATP-HTVS-5A74948D5858

>  <compound_code>  (584) 
90114

>  <title>  (584) 
rxn102b____EMOL723898____EMOL6283227

>  <variant>  (584) 
90114-1

>  <source_file>  (584) 
运行/运行/ATP-VSW/ATP-VSW-DOCK_HTVS_1-002_lib.maegz

>  <canonical_smiles>  (584) 
Cc1cccc(C[C@@H](Nc2nc(N)c(Cc3ccccc3)c3ccccc23)C(=O)[O-])c1

>  <scaffold>  (584) 
c1ccc(CCNc2ncc(Cc3ccccc3)c3ccccc23)cc1

>  <molecular_formula>  (584) 
C26H24N3O2-

$$$$
ATP-HTVS-5AAA6558FE6F
     RDKit          3D

 62 65  0  0  0  0  0  0  0  0999 V2000
  199.5162  182.1279  156.0131 O   0  0  0  0  0  0  0  0  0  0  0  0
  198.5494  181.5729  156.5326 C   0  0  0  0  0  0  0  0  0  0  0  0
  198.2167  180.2913  156.3405 N   0  0  0  0  0  0  0  0  0  0  0  0
  198.8439  179.4135  155.4204 C   0  0  0  0  0  0  0  0  0  0  0  0
  199.5313  178.3365  155.8701 N   0  0  0  0  0  0  0  0  0  0  0  0
  200.0645  177.4550  155.0044 C   0  0  0  0  0  0  0  0  0  0  0  0
  199.9646  177.6421  153.6039 C   0  0  0  0  0  0  0  0  0  0  0  0
  199.2756  178.7682  153.1175 C   0  0  0  0  0  0  0  0  0  0  0  0
  198.6855  179.6693  154.0335 C   0  0  0  0  0  0  0  0  0  0  0  0
  197.9212  180.7720  153.5954 N   0  0  0  0  0  0  0  0  0  0  0  0
  197.8622  181.1637  152.1999 C   0  0  1  0  0  0  0  0  0  0  0  0
  196.7713  180.4180  151.5289 C   0  0  0  0  0  0  0  0  0  0  0  0
  195.9139  179.8354  151.0159 N   0  0  0  0  0  0  0  0  0  0  0  0
  197.6860  182.6863  152.0685 C   0  0  1  0  0  0  0  0  0  0  0  0
  197.8343  183.1612  150.6344 C   0  0  0  0  0  0  0  0  0  0  0  0
  198.9615  182.7859  149.8687 C   0  0  0  0  0  0  0  0  0  0  0  0
  199.0900  183.2055  148.5326 C   0  0  0  0  0  0  0  0  0  0  0  0
  198.1004  184.0231  147.9569 C   0  0  0  0  0  0  0  0  0  0  0  0
  196.9850  184.4133  148.7210 C   0  0  0  0  0  0  0  0  0  0  0  0
  196.8449  183.9818  150.0548 C   0  0  0  0  0  0  0  0  0  0  0  0
  200.5286  176.7207  152.7029 C   0  0  0  0  0  0  0  0  0  0  0  0
  201.2132  175.5919  153.1853 C   0  0  0  0  0  0  0  0  0  0  0  0
  201.3170  175.3862  154.5728 C   0  0  0  0  0  0  0  0  0  0  0  0
  200.7417  176.3078  155.4704 C   0  0  0  0  0  0  0  0  0  0  0  0
  197.6742  182.3129  157.5055 C   0  0  0  0  0  0  0  0  0  0  0  0
  198.2575  183.2161  158.4414 C   0  0  0  0  0  0  0  0  0  0  0  0
  197.4735  183.8868  159.3625 C   0  0  0  0  0  0  0  0  0  0  0  0
  196.0710  183.7474  159.3532 C   0  0  0  0  0  0  0  0  0  0  0  0
  195.4790  182.8561  158.4238 C   0  0  0  0  0  0  0  0  0  0  0  0
  196.2793  182.1410  157.5035 C   0  0  0  0  0  0  0  0  0  0  0  0
  195.2168  184.5496  160.3110 C   0  0  1  0  0  0  0  0  0  0  0  0
  195.2282  186.0208  160.0793 N   0  0  2  0  0  0  0  0  0  0  0  0
  196.5909  186.6123  159.9843 C   0  0  2  0  0  0  0  0  0  0  0  0
  194.4083  186.7534  161.0769 C   0  0  2  0  0  0  0  0  0  0  0  0
  197.4976  179.8862  156.9274 H   0  0  0  0  0  0  0  0  0  0  0  0
  199.1771  178.8828  152.0469 H   0  0  0  0  0  0  0  0  0  0  0  0
  197.2821  181.2037  154.2465 H   0  0  0  0  0  0  0  0  0  0  0  0
  198.8074  180.8987  151.7280 H   0  0  0  0  0  0  0  0  0  0  0  0
  196.7130  182.9795  152.4669 H   0  0  0  0  0  0  0  0  0  0  0  0
  198.4327  183.2125  152.6663 H   0  0  0  0  0  0  0  0  0  0  0  0
  199.7420  182.1725  150.2911 H   0  0  0  0  0  0  0  0  0  0  0  0
  199.9497  182.9018  147.9532 H   0  0  0  0  0  0  0  0  0  0  0  0
  198.1977  184.3496  146.9322 H   0  0  0  0  0  0  0  0  0  0  0  0
  196.2313  185.0388  148.2763 H   0  0  0  0  0  0  0  0  0  0  0  0
  195.9791  184.2820  150.6292 H   0  0  0  0  0  0  0  0  0  0  0  0
  200.4491  176.8749  151.6349 H   0  0  0  0  0  0  0  0  0  0  0  0
  201.6567  174.8903  152.4943 H   0  0  0  0  0  0  0  0  0  0  0  0
  201.8453  174.5181  154.9426 H   0  0  0  0  0  0  0  0  0  0  0  0
  200.8251  176.1356  156.5342 H   0  0  0  0  0  0  0  0  0  0  0  0
  199.3413  183.3757  158.4119 H   0  0  0  0  0  0  0  0  0  0  0  0
  197.9299  184.5567  160.0852 H   0  0  0  0  0  0  0  0  0  0  0  0
  194.3972  182.7124  158.3903 H   0  0  0  0  0  0  0  0  0  0  0  0
  195.8006  181.4741  156.8085 H   0  0  0  0  0  0  0  0  0  0  0  0
  194.1875  184.1929  160.2629 H   0  0  0  0  0  0  0  0  0  0  0  0
  195.5634  184.3296  161.3160 H   0  0  0  0  0  0  0  0  0  0  0  0
  197.1328  186.4476  160.9235 H   0  0  0  0  0  0  0  0  0  0  0  0
  196.5340  187.7202  159.8528 H   0  0  0  0  0  0  0  0  0  0  0  0
  197.1742  186.1220  159.1997 H   0  0  0  0  0  0  0  0  0  0  0  0
  194.7883  186.5996  162.0849 H   0  0  0  0  0  0  0  0  0  0  0  0
  193.3641  186.4422  161.0454 H   0  0  0  0  0  0  0  0  0  0  0  0
  194.4458  187.8233  160.8966 H   0  0  0  0  0  0  0  0  0  0  0  0
  194.7865  186.1586  159.1790 H   0  0  0  0  0  0  0  0  0  0  0  0
  1  2  2  0
  2  3  1  0
  2 25  1  0
  3  4  1  0
  3 35  1  0
  4  5  2  0
  4  9  1  0
  5  6  1  0
  6  7  1  0
  6 24  2  0
  7  8  1  0
  7 21  2  0
  8  9  2  0
  8 36  1  0
  9 10  1  0
 10 11  1  0
 10 37  1  0
 11 12  1  0
 11 14  1  0
 11 38  1  6
 12 13  3  0
 14 15  1  0
 14 39  1  1
 14 40  1  0
 15 16  2  0
 15 20  1  0
 16 17  1  0
 16 41  1  0
 17 18  2  0
 17 42  1  0
 18 19  1  0
 18 43  1  0
 19 20  2  0
 19 44  1  0
 20 45  1  0
 21 22  1  0
 21 46  1  0
 22 23  2  0
 22 47  1  0
 23 24  1  0
 23 48  1  0
 24 49  1  0
 25 26  1  0
 25 30  2  0
 26 27  2  0
 26 50  1  0
 27 28  1  0
 27 51  1  0
 28 29  2  0
 28 31  1  0
 29 30  1  0
 29 52  1  0
 30 53  1  0
 31 32  1  0
 31 54  1  1
 31 55  1  0
 32 33  1  0
 32 34  1  0
 32 62  1  6
 33 56  1  1
 33 57  1  0
 33 58  1  0
 34 59  1  1
 34 60  1  0
 34 61  1  0
M  CHG  1  32   1
M  END
>  <s_epik_cmdline>  (585) 
J2VwaWtfcHl0aG9uJywgJy1waCcsICc3LjAwMDAwMCcsICctcGh0JywgJzIuMDAwMDAwJywgJy1tcycsICcxNicsICctdG4nLCAnOCcsICctbWEnLCAnMjAwJywgJy1pbWFlJywgJzxpbmZpbGUubWFlPicsICctb21hZScsICc8b3V0ZmlsZS5tYWU+Jw==

>  <s_epik_input>  (585) 
W0NIM11OKFtDSDNdKVtDSDJdYyhbY0hdW2NIXTEpW2NIXVtjSF1jMUMoPU8pW05IXWMobjIpYyhbY0hdYyhjMjMpW2NIXVtjSF1bY0hdW2NIXTMpW05IXVtDQEBIXShDI04pW0NIMl1jNFtjSF1bY0hdW2NIXVtjSF1bY0hdNA==

>  <s_i_glide_gridfile>  (585) 
ATP-Grid

>  <s_lp_Force_Field>  (585) 
OPLS_2005

>  <s_lp_Variant>  (585) 
rxn502b____EMOL18624763____EMOL44466703____EMOL18628026-1

>  <s_lp_label>  (585) 
2542_sdstereoexpander_1_neutralizer_1_epik_1_stereoizer_1

>  <s_m_source_file>  (585) 
ATP-VSW-LIGPREP-003-in.maegz

>  <s_sd_BIOSOLVEIT.INFINISEE\_QUERY\_NAME>  (585) 
Ref-Lig

>  <s_sd_BIOSOLVEIT.INFINISEE\_QUERY\_SMILES>  (585) 
S(c1nc2c(cc1C[NH2+]Cc3ccc(cc3)C[NH+](C)C)cccc2)Cc4ccccc4

>  <s_sd_BIOSOLVEIT.INFINISEE\_REACTION\_NAME>  (585) 
rxn502b

>  <s_sd_BIOSOLVEIT.INFINISEE\_REAGENT1\_NAME>  (585) 
EMOL18624763

>  <s_sd_BIOSOLVEIT.INFINISEE\_REAGENT1\_SMILES>  (585) 
O=C(O)c1ccc(cc1)CN(C)C

>  <s_sd_BIOSOLVEIT.INFINISEE\_REAGENT2\_NAME>  (585) 
EMOL44466703

>  <s_sd_BIOSOLVEIT.INFINISEE\_REAGENT2\_SMILES>  (585) 
Brc1c(nc2c(c1)cccc2)N

>  <s_sd_BIOSOLVEIT.INFINISEE\_REAGENT3\_NAME>  (585) 
EMOL18628026

>  <s_sd_BIOSOLVEIT.INFINISEE\_REAGENT3\_SMILES>  (585) 
N#CC(N)Cc1ccccc1

>  <s_sd_BIOSOLVEIT.INFINISEE\_SPACE>  (585) 
eXplore_7tr_2022-12

>  <s_vsw_compound_code>  (585) 
81315

>  <s_vsw_variant>  (585) 
81315-1

>  <r_epik_Charging_Adjusted_Penalty>  (585) 
0.10433640840748

>  <r_epik_Ionization_Penalty>  (585) 
0.052200000000000003

>  <r_epik_Ionization_Penalty_Charging>  (585) 
0.052200000000000003

>  <r_epik_Ionization_Penalty_Neutral>  (585) 
0

>  <r_epik_State_Penalty>  (585) 
0.052200000000000003

>  <r_i_docking_score>  (585) 
-4.3151142836959098

>  <r_i_glide_ecoul>  (585) 
-2.9691789150238002

>  <r_i_glide_eff_state_penalty>  (585) 
0.052200000000000003

>  <r_i_glide_einternal>  (585) 
9.9232406616210902

>  <r_i_glide_emodel>  (585) 
-51.814014865919098

>  <r_i_glide_energy>  (585) 
-41.913976430892902

>  <r_i_glide_erotb>  (585) 
0.69137857178598805

>  <r_i_glide_esite>  (585) 
-0.12444190502093699

>  <r_i_glide_evdw>  (585) 
-38.944797515869098

>  <r_i_glide_gscore>  (585) 
-4.3673142836959098

>  <r_i_glide_hbond>  (585) 
-0.112690211068586

>  <r_i_glide_ligand_efficiency>  (585) 
-0.126915125991056

>  <r_i_glide_ligand_efficiency_ln>  (585) 
-0.95332978012435998

>  <r_i_glide_ligand_efficiency_sa>  (585) 
-0.41115573943794897

>  <r_i_glide_lipo>  (585) 
-1.9137048592642301

>  <r_i_glide_metal>  (585) 
-0

>  <r_i_glide_rewards>  (585) 
-0.51523916708111595

>  <r_lp_Energy>  (585) 
29.926693

>  <r_qp_ACxDN^.5/SA>  (585) 
0.013387100000000001

>  <r_qp_CIQPlogS>  (585) 
-6.3849999999999998

>  <r_qp_EA(eV)>  (585) 
0.89200000000000002

>  <r_qp_FISA>  (585) 
118.879

>  <r_qp_FOSA>  (585) 
219.96700000000001

>  <r_qp_IP(eV)>  (585) 
8.5749999999999993

>  <r_qp_Jm>  (585) 
4.3013551503234299e-05

>  <r_qp_PISA>  (585) 
506.27300000000002

>  <r_qp_PSA>  (585) 
87.364999999999995

>  <r_qp_PercentHumanOralAbsorption>  (585) 
94.015000000000001

>  <r_qp_QPPCaco>  (585) 
184.27699999999999

>  <r_qp_QPPMDCK>  (585) 
87.960999999999999

>  <r_qp_QPlogBB>  (585) 
-0.96999999999999997

>  <r_qp_QPlogHERG>  (585) 
-8.6319999999999997

>  <r_qp_QPlogKhsa>  (585) 
0.70899999999999996

>  <r_qp_QPlogKp>  (585) 
-3.1259999999999999

>  <r_qp_QPlogPC16>  (585) 
17.481000000000002

>  <r_qp_QPlogPo/w>  (585) 
4.5300000000000002

>  <r_qp_QPlogPoct>  (585) 
25.933

>  <r_qp_QPlogPw>  (585) 
14.829000000000001

>  <r_qp_QPlogS>  (585) 
-6.8940000000000001

>  <r_qp_QPpolrz>  (585) 
53.590000000000003

>  <r_qp_SASA>  (585) 
845.11900000000003

>  <r_qp_SAamideO>  (585) 
0

>  <r_qp_SAfluorine>  (585) 
0

>  <r_qp_WPSA>  (585) 
0

>  <r_qp_accptHB>  (585) 
8

>  <r_qp_dip^2/V>  (585) 
0.056113000000000003

>  <r_qp_dipole>  (585) 
9.2249999999999996

>  <r_qp_donorHB>  (585) 
2

>  <r_qp_glob>  (585) 
0.75532390000000005

>  <r_qp_mol_MW>  (585) 
449.55399999999997

>  <r_qp_volume>  (585) 
1516.452

>  <r_sd_BIOSOLVEIT.INFINISEE\_FTREES\_SIMILARITY>  (585) 
0.91300000000000003

>  <r_sd_BIOSOLVEIT.LOGP>  (585) 
3.6783800000000002

>  <r_sd_BIOSOLVEIT.MOLECULAR\_WEIGHT>  (585) 
450.56299999999999

>  <r_sd_BIOSOLVEIT.TPSA>  (585) 
82.25

>  <i_epik_Tot_Q>  (585) 
1

>  <i_epik_Tot_abs_Q>  (585) 
1

>  <i_f3d_flags>  (585) 
0

>  <i_i_glide_confnum>  (585) 
7

>  <i_i_glide_lignum>  (585) 
1116

>  <i_i_glide_posenum>  (585) 
5

>  <i_i_glide_rotatable_bonds>  (585) 
9

>  <i_lp_mmshare_version>  (585) 
65135

>  <i_m_ct_format>  (585) 
2

>  <i_m_source_file_index>  (585) 
2542

>  <i_qp_#NandO>  (585) 
6

>  <i_qp_#acid>  (585) 
0

>  <i_qp_#amide>  (585) 
0

>  <i_qp_#amidine>  (585) 
0

>  <i_qp_#amine>  (585) 
1

>  <i_qp_#in34>  (585) 
0

>  <i_qp_#in56>  (585) 
22

>  <i_qp_#metab>  (585) 
6

>  <i_qp_#nonHatm>  (585) 
34

>  <i_qp_#noncon>  (585) 
0

>  <i_qp_#ringatoms>  (585) 
22

>  <i_qp_#rotor>  (585) 
9

>  <i_qp_#rtvFG>  (585) 
0

>  <i_qp_#stars>  (585) 
2

>  <i_qp_CNS>  (585) 
0

>  <i_qp_HumanOralAbsorption>  (585) 
1

>  <i_qp_RuleOfFive>  (585) 
0

>  <i_qp_RuleOfThree>  (585) 
1

>  <i_sd_BIOSOLVEIT.INFINISEE\_RESULT\_RANK>  (585) 
34833

>  <i_sd_version>  (585) 
0

>  <b_lp_Chiralities_Consistent>  (585) 
1

>  <b_sd_chiral_flag>  (585) 
0

>  <canonical_id>  (585) 
ATP-HTVS-5AAA6558FE6F

>  <compound_code>  (585) 
81315

>  <title>  (585) 
rxn502b____EMOL18624763____EMOL44466703____EMOL18628026

>  <variant>  (585) 
81315-1

>  <source_file>  (585) 
运行/运行/ATP-VSW/ATP-VSW-DOCK_HTVS_1-003_lib/ATP-VSW-DOCK_HTVS_1-003_lib.mae

>  <canonical_smiles>  (585) 
C[NH+](C)Cc1ccc(C(=O)Nc2nc3ccccc3cc2N[C@@H](C#N)Cc2ccccc2)cc1

>  <scaffold>  (585) 
O=C(Nc1nc2ccccc2cc1NCCc1ccccc1)c1ccccc1

>  <molecular_formula>  (585) 
C28H28N5O+

$$$$
ATP-HTVS-5AC0D5CB90EF
     RDKit          3D

 49 52  0  0  0  0  0  0  0  0999 V2000
  196.7126  183.9439  157.9293 Cl  0  0  0  0  0  0  0  0  0  0  0  0
  196.5954  185.3493  158.9137 C   0  0  0  0  0  0  0  0  0  0  0  0
  197.5444  186.3794  158.7518 C   0  0  0  0  0  0  0  0  0  0  0  0
  197.4940  187.5592  159.5364 C   0  0  0  0  0  0  0  0  0  0  0  0
  196.4495  187.6868  160.4969 C   0  0  0  0  0  0  0  0  0  0  0  0
  196.3343  188.8157  161.3362 N   0  0  0  0  0  0  0  0  0  0  0  0
  196.5522  190.1064  161.0198 C   0  0  0  0  0  0  0  0  0  0  0  0
  196.4807  190.9918  161.8478 O   0  0  0  0  0  0  0  0  0  0  0  0
  196.7869  190.4119  159.5426 C   0  0  1  0  0  0  0  0  0  0  0  0
  198.0698  189.9562  158.9374 N   0  0  0  0  0  0  0  0  0  0  0  0
  198.5892  188.6479  159.4184 C   0  0  2  0  0  0  0  0  0  0  0  0
  199.7695  188.1563  158.5649 C   0  0  0  0  0  0  0  0  0  0  0  0
  199.7251  188.2138  157.1564 C   0  0  0  0  0  0  0  0  0  0  0  0
  198.6364  188.7043  156.5136 F   0  0  0  0  0  0  0  0  0  0  0  0
  200.7934  187.7211  156.3883 C   0  0  0  0  0  0  0  0  0  0  0  0
  201.9161  187.1603  157.0192 C   0  0  0  0  0  0  0  0  0  0  0  0
  201.9637  187.0850  158.4254 C   0  0  0  0  0  0  0  0  0  0  0  0
  200.9043  187.5795  159.2009 C   0  0  0  0  0  0  0  0  0  0  0  0
  199.1079  190.9883  159.0118 C   0  0  1  0  0  0  0  0  0  0  0  0
  198.7888  192.2831  158.2409 C   0  0  0  0  0  0  0  0  0  0  0  0
  199.6401  193.4489  158.5537 C   0  0  0  0  0  0  0  0  0  0  0  0
  199.9494  194.3826  157.5357 C   0  0  0  0  0  0  0  0  0  0  0  0
  200.7414  195.5145  157.8119 C   0  0  0  0  0  0  0  0  0  0  0  0
  201.2329  195.7266  159.1138 C   0  0  0  0  0  0  0  0  0  0  0  0
  200.9387  194.8055  160.1342 C   0  0  0  0  0  0  0  0  0  0  0  0
  200.1438  193.6810  159.8572 C   0  0  0  0  0  0  0  0  0  0  0  0
  197.8502  192.3442  157.2767 C   0  0  0  0  0  0  0  0  0  0  0  0
  195.5139  186.6343  160.6701 C   0  0  0  0  0  0  0  0  0  0  0  0
  195.5835  185.4743  159.8708 C   0  0  0  0  0  0  0  0  0  0  0  0
  198.2961  186.1824  158.0058 H   0  0  0  0  0  0  0  0  0  0  0  0
  196.0842  188.6413  162.3050 H   0  0  0  0  0  0  0  0  0  0  0  0
  195.9944  189.9228  158.9798 H   0  0  0  0  0  0  0  0  0  0  0  0
  196.6270  191.4869  159.4355 H   0  0  0  0  0  0  0  0  0  0  0  0
  198.9632  188.8010  160.4377 H   0  0  0  0  0  0  0  0  0  0  0  0
  200.7229  187.7644  155.3160 H   0  0  0  0  0  0  0  0  0  0  0  0
  202.7182  186.7599  156.4167 H   0  0  0  0  0  0  0  0  0  0  0  0
  202.8143  186.6252  158.9038 H   0  0  0  0  0  0  0  0  0  0  0  0
  200.9342  187.5135  160.2790 H   0  0  0  0  0  0  0  0  0  0  0  0
  199.2664  191.1577  160.0757 H   0  0  0  0  0  0  0  0  0  0  0  0
  200.0784  190.6746  158.6208 H   0  0  0  0  0  0  0  0  0  0  0  0
  199.5875  194.2411  156.5281 H   0  0  0  0  0  0  0  0  0  0  0  0
  200.9511  196.2286  157.0297 H   0  0  0  0  0  0  0  0  0  0  0  0
  201.8351  196.5974  159.3343 H   0  0  0  0  0  0  0  0  0  0  0  0
  201.2920  194.9665  161.1395 H   0  0  0  0  0  0  0  0  0  0  0  0
  199.9281  193.0216  160.6812 H   0  0  0  0  0  0  0  0  0  0  0  0
  197.2623  191.4841  156.9860 H   0  0  0  0  0  0  0  0  0  0  0  0
  197.6317  193.2559  156.7373 H   0  0  0  0  0  0  0  0  0  0  0  0
  194.7328  186.7343  161.4084 H   0  0  0  0  0  0  0  0  0  0  0  0
  194.8639  184.6777  159.9984 H   0  0  0  0  0  0  0  0  0  0  0  0
  1  2  1  0
  2  3  2  0
  2 29  1  0
  3  4  1  0
  3 30  1  0
  4  5  2  0
  4 11  1  0
  5  6  1  0
  5 28  1  0
  6  7  1  0
  6 31  1  0
  7  8  2  0
  7  9  1  0
  9 10  1  0
  9 32  1  6
  9 33  1  0
 10 11  1  0
 10 19  1  0
 11 12  1  0
 11 34  1  1
 12 13  1  0
 12 18  2  0
 13 14  1  0
 13 15  2  0
 15 16  1  0
 15 35  1  0
 16 17  2  0
 16 36  1  0
 17 18  1  0
 17 37  1  0
 18 38  1  0
 19 20  1  0
 19 39  1  1
 19 40  1  0
 20 21  1  0
 20 27  2  0
 21 22  2  0
 21 26  1  0
 22 23  1  0
 22 41  1  0
 23 24  2  0
 23 42  1  0
 24 25  1  0
 24 43  1  0
 25 26  2  0
 25 44  1  0
 26 45  1  0
 27 46  1  0
 27 47  1  0
 28 29  2  0
 28 48  1  0
 29 49  1  0
M  END
>  <s_epik_cmdline>  (586) 
J2VwaWtfcHl0aG9uJywgJy1waCcsICc3LjAwMDAwMCcsICctcGh0JywgJzIuMDAwMDAwJywgJy1tcycsICcxNicsICctdG4nLCAnOCcsICctbWEnLCAnMjAwJywgJy1pbWFlJywgJzxpbmZpbGUubWFlPicsICctb21hZScsICc8b3V0ZmlsZS5tYWU+Jw==

>  <s_epik_input>  (586) 
Q2xjKFtjSF0xKVtjSF1bY0hdYyhjMTIpW05IXUMoPU8pW0NIMl1OKFtDQEBIXTJjM2MoRilbY0hdW2NIXVtjSF1bY0hdMylbQ0gyXUMoPVtDSDJdKWM0W2NIXVtjSF1bY0hdW2NIXVtjSF00

>  <s_i_glide_gridfile>  (586) 
ATP-Grid

>  <s_lp_Force_Field>  (586) 
OPLS_2005

>  <s_lp_Variant>  (586) 
m_2230bdc____14772912____19436808-2

>  <s_lp_label>  (586) 
1902_sdstereoexpander_3_neutralizer_1_epik_1_stereoizer_1

>  <s_m_source_file>  (586) 
ATP-VSW-LIGPREP-003-in.maegz

>  <s_sd_BIOSOLVEIT.INFINISEE\_QUERY\_NAME>  (586) 
Ref-Lig

>  <s_sd_BIOSOLVEIT.INFINISEE\_QUERY\_SMILES>  (586) 
S(c1nc2c(cc1C[NH2+]Cc3ccc(cc3)C[NH+](C)C)cccc2)Cc4ccccc4

>  <s_sd_BIOSOLVEIT.INFINISEE\_REACTION\_NAME>  (586) 
m_2230bdc

>  <s_sd_BIOSOLVEIT.INFINISEE\_REAGENT1\_SMILES>  (586) 
[R1*]N1C(c2c(F)cccc2)c3c(NC(=O)C1)ccc(Cl)c3

>  <s_sd_BIOSOLVEIT.INFINISEE\_REAGENT2\_SMILES>  (586) 
[R1*]CC(c1ccccc1)=C

>  <s_sd_BIOSOLVEIT.INFINISEE\_SPACE>  (586) 
REALSpace_44bn_2023-08

>  <s_vsw_compound_code>  (586) 
60835

>  <s_vsw_variant>  (586) 
60835-2

>  <r_epik_Charging_Adjusted_Penalty>  (586) 
0.0093713929918914796

>  <r_epik_Ionization_Penalty>  (586) 
0.0094000000000000004

>  <r_epik_Ionization_Penalty_Charging>  (586) 
0

>  <r_epik_Ionization_Penalty_Neutral>  (586) 
0.0094000000000000004

>  <r_epik_State_Penalty>  (586) 
0.0094000000000000004

>  <r_i_docking_score>  (586) 
-1.7585316078095901

>  <r_i_glide_ecoul>  (586) 
-3.2438285350799601

>  <r_i_glide_eff_state_penalty>  (586) 
0.0094000000000000004

>  <r_i_glide_einternal>  (586) 
2.4416415691375701

>  <r_i_glide_emodel>  (586) 
-32.9208827329578

>  <r_i_glide_energy>  (586) 
-30.715159177780201

>  <r_i_glide_erotb>  (586) 
0.47517713379615101

>  <r_i_glide_esite>  (586) 
-0.0019398524261865801

>  <r_i_glide_evdw>  (586) 
-27.471330642700199

>  <r_i_glide_gscore>  (586) 
-1.7679316078095899

>  <r_i_glide_hbond>  (586) 
-0.32000000000000001

>  <r_i_glide_ligand_efficiency>  (586) 
-0.060639020958951399

>  <r_i_glide_ligand_efficiency_ln>  (586) 
-0.40265914567437

>  <r_i_glide_ligand_efficiency_sa>  (586) 
-0.18630228417619099

>  <r_i_glide_lipo>  (586) 
-1.2183844297899999

>  <r_i_glide_metal>  (586) 
-0

>  <r_i_glide_rewards>  (586) 
1.15735635300745

>  <r_lp_Energy>  (586) 
41.042271999999997

>  <r_qp_ACxDN^.5/SA>  (586) 
0.0069002999999999998

>  <r_qp_CIQPlogS>  (586) 
-5.593

>  <r_qp_EA(eV)>  (586) 
0.52400000000000002

>  <r_qp_FISA>  (586) 
56.988999999999997

>  <r_qp_FOSA>  (586) 
75.088999999999999

>  <r_qp_IP(eV)>  (586) 
9.0359999999999996

>  <r_qp_Jm>  (586) 
0.0035711614627733498

>  <r_qp_PISA>  (586) 
425.55799999999999

>  <r_qp_PSA>  (586) 
38.895000000000003

>  <r_qp_PercentHumanOralAbsorption>  (586) 
100

>  <r_qp_QPPCaco>  (586) 
711.82799999999997

>  <r_qp_QPPMDCK>  (586) 
1248.519

>  <r_qp_QPlogBB>  (586) 
0.47499999999999998

>  <r_qp_QPlogHERG>  (586) 
-6.8719999999999999

>  <r_qp_QPlogKhsa>  (586) 
0.90300000000000002

>  <r_qp_QPlogKp>  (586) 
-2.8450000000000002

>  <r_qp_QPlogPC16>  (586) 
13.407

>  <r_qp_QPlogPo/w>  (586) 
4.9160000000000004

>  <r_qp_QPlogPoct>  (586) 
19.077000000000002

>  <r_qp_QPlogPw>  (586) 
9.8390000000000004

>  <r_qp_QPlogS>  (586) 
-5.2110000000000003

>  <r_qp_QPpolrz>  (586) 
44.253

>  <r_qp_SASA>  (586) 
652.14599999999996

>  <r_qp_SAamideO>  (586) 
0

>  <r_qp_SAfluorine>  (586) 
22.957000000000001

>  <r_qp_WPSA>  (586) 
94.510999999999996

>  <r_qp_accptHB>  (586) 
4.5

>  <r_qp_dip^2/V>  (586) 
0.0003879

>  <r_qp_dipole>  (586) 
0.68400000000000005

>  <r_qp_donorHB>  (586) 
1

>  <r_qp_glob>  (586) 
0.8402657

>  <r_qp_mol_MW>  (586) 
406.88600000000002

>  <r_qp_volume>  (586) 
1206.133

>  <r_sd_BIOSOLVEIT.INFINISEE\_FTREES\_SIMILARITY>  (586) 
0.90300000000000002

>  <r_sd_BIOSOLVEIT.LOGP>  (586) 
4.1189

>  <r_sd_BIOSOLVEIT.MOLECULAR\_WEIGHT>  (586) 
407.89400000000001

>  <r_sd_BIOSOLVEIT.TPSA>  (586) 
33.539999999999999

>  <i_epik_Tot_Q>  (586) 
0

>  <i_epik_Tot_abs_Q>  (586) 
0

>  <i_f3d_flags>  (586) 
0

>  <i_i_glide_confnum>  (586) 
2

>  <i_i_glide_lignum>  (586) 
716

>  <i_i_glide_posenum>  (586) 
9

>  <i_i_glide_rotatable_bonds>  (586) 
4

>  <i_lp_mmshare_version>  (586) 
65135

>  <i_m_ct_format>  (586) 
2

>  <i_m_source_file_index>  (586) 
1902

>  <i_qp_#NandO>  (586) 
3

>  <i_qp_#acid>  (586) 
0

>  <i_qp_#amide>  (586) 
0

>  <i_qp_#amidine>  (586) 
0

>  <i_qp_#amine>  (586) 
1

>  <i_qp_#in34>  (586) 
0

>  <i_qp_#in56>  (586) 
18

>  <i_qp_#metab>  (586) 
6

>  <i_qp_#nonHatm>  (586) 
29

>  <i_qp_#noncon>  (586) 
2

>  <i_qp_#ringatoms>  (586) 
23

>  <i_qp_#rotor>  (586) 
3

>  <i_qp_#rtvFG>  (586) 
0

>  <i_qp_#stars>  (586) 
1

>  <i_qp_CNS>  (586) 
2

>  <i_qp_HumanOralAbsorption>  (586) 
3

>  <i_qp_RuleOfFive>  (586) 
0

>  <i_qp_RuleOfThree>  (586) 
0

>  <i_sd_BIOSOLVEIT.INFINISEE\_REAGENT1\_NAME>  (586) 
14772912

>  <i_sd_BIOSOLVEIT.INFINISEE\_REAGENT2\_NAME>  (586) 
19436808

>  <i_sd_BIOSOLVEIT.INFINISEE\_RESULT\_RANK>  (586) 
84461

>  <i_sd_version>  (586) 
0

>  <b_lp_Chiralities_Consistent>  (586) 
1

>  <b_sd_chiral_flag>  (586) 
0

>  <canonical_id>  (586) 
ATP-HTVS-5AC0D5CB90EF

>  <compound_code>  (586) 
60835

>  <title>  (586) 
m_2230bdc____14772912____19436808

>  <variant>  (586) 
60835-2

>  <source_file>  (586) 
运行/运行/ATP-VSW/ATP-VSW-DOCK_HTVS_1-003_lib/ATP-VSW-DOCK_HTVS_1-003_lib.mae

>  <canonical_smiles>  (586) 
C=C(CN1CC(=O)Nc2ccc(Cl)cc2[C@H]1c1ccccc1F)c1ccccc1

>  <scaffold>  (586) 
C=C(CN1CC(=O)Nc2ccccc2C1c1ccccc1)c1ccccc1

>  <molecular_formula>  (586) 
C24H20ClFN2O

$$$$
ATP-HTVS-5B1B34F83C18
     RDKit          3D

 48 51  0  0  0  0  0  0  0  0999 V2000
  200.5515  183.1734  157.2765 Br  0  0  0  0  0  0  0  0  0  0  0  0
  198.6728  183.1789  157.6367 C   0  0  0  0  0  0  0  0  0  0  0  0
  197.8038  182.1708  157.1524 C   0  0  0  0  0  0  0  0  0  0  0  0
  196.4257  182.2317  157.4693 C   0  0  0  0  0  0  0  0  0  0  0  0
  195.9100  183.3294  158.1781 C   0  0  0  0  0  0  0  0  0  0  0  0
  196.7775  184.3327  158.6533 C   0  0  0  0  0  0  0  0  0  0  0  0
  198.1532  184.2505  158.3879 C   0  0  0  0  0  0  0  0  0  0  0  0
  198.3168  181.0190  156.3431 C   0  0  0  0  0  0  0  0  0  0  0  0
  199.1699  180.2309  156.9324 N   0  0  0  0  0  0  0  0  0  0  0  0
  199.7132  179.1286  156.2675 C   0  0  0  0  0  0  0  0  0  0  0  0
  199.3844  178.8526  154.9265 C   0  0  0  0  0  0  0  0  0  0  0  0
  199.9479  177.7321  154.2762 C   0  0  0  0  0  0  0  0  0  0  0  0
  200.8283  176.8819  154.9754 C   0  0  0  0  0  0  0  0  0  0  0  0
  201.5170  175.5054  154.1919 Cl  0  0  0  0  0  0  0  0  0  0  0  0
  201.1535  177.1571  156.3177 C   0  0  0  0  0  0  0  0  0  0  0  0
  200.6026  178.2783  156.9596 C   0  0  0  0  0  0  0  0  0  0  0  0
  198.4345  179.7768  154.2361 C   0  0  0  0  0  0  0  0  0  0  0  0
  198.1464  179.5878  153.0496 O   0  0  0  0  0  0  0  0  0  0  0  0
  197.9339  180.7978  154.9880 N   0  0  0  0  0  0  0  0  0  0  0  0
  196.9860  181.7259  154.3394 C   0  0  1  0  0  0  0  0  0  0  0  0
  197.7192  182.8067  153.5109 C   0  0  1  0  0  0  0  0  0  0  0  0
  196.7518  183.6326  152.8058 N   0  0  0  0  0  0  0  0  0  0  0  0
  196.1612  182.9385  151.6759 C   0  0  1  0  0  0  0  0  0  0  0  0
  196.9244  183.1553  150.3958 C   0  0  0  0  0  0  0  0  0  0  0  0
  196.6950  184.3215  149.6439 C   0  0  0  0  0  0  0  0  0  0  0  0
  197.3749  184.5234  148.4303 C   0  0  0  0  0  0  0  0  0  0  0  0
  198.2984  183.5577  147.9768 C   0  0  0  0  0  0  0  0  0  0  0  0
  198.9511  183.7475  146.8058 F   0  0  0  0  0  0  0  0  0  0  0  0
  198.5397  182.3958  148.7362 C   0  0  0  0  0  0  0  0  0  0  0  0
  197.8530  182.1930  149.9492 C   0  0  0  0  0  0  0  0  0  0  0  0
  195.9967  183.9271  153.4194 H   0  0  0  0  0  0  0  0  0  0  0  0
  195.7481  181.4623  157.1197 H   0  0  0  0  0  0  0  0  0  0  0  0
  194.8479  183.3942  158.3560 H   0  0  0  0  0  0  0  0  0  0  0  0
  196.3801  185.1738  159.2045 H   0  0  0  0  0  0  0  0  0  0  0  0
  198.8198  185.0212  158.7435 H   0  0  0  0  0  0  0  0  0  0  0  0
  199.7045  177.5130  153.2450 H   0  0  0  0  0  0  0  0  0  0  0  0
  201.8358  176.5165  156.8558 H   0  0  0  0  0  0  0  0  0  0  0  0
  200.8524  178.4909  157.9897 H   0  0  0  0  0  0  0  0  0  0  0  0
  196.3150  181.1133  153.7327 H   0  0  0  0  0  0  0  0  0  0  0  0
  196.3022  182.2419  155.0049 H   0  0  0  0  0  0  0  0  0  0  0  0
  198.2825  183.4502  154.1863 H   0  0  0  0  0  0  0  0  0  0  0  0
  198.4472  182.3950  152.8156 H   0  0  0  0  0  0  0  0  0  0  0  0
  196.0612  181.8694  151.8396 H   0  0  0  0  0  0  0  0  0  0  0  0
  195.1523  183.3324  151.5479 H   0  0  0  0  0  0  0  0  0  0  0  0
  195.9762  185.0451  149.9928 H   0  0  0  0  0  0  0  0  0  0  0  0
  197.1822  185.4109  147.8463 H   0  0  0  0  0  0  0  0  0  0  0  0
  199.2432  181.6547  148.3859 H   0  0  0  0  0  0  0  0  0  0  0  0
  198.0283  181.2982  150.5292 H   0  0  0  0  0  0  0  0  0  0  0  0
  1  2  1  0
  2  3  1  0
  2  7  2  0
  3  4  2  0
  3  8  1  0
  4  5  1  0
  4 32  1  0
  5  6  2  0
  5 33  1  0
  6  7  1  0
  6 34  1  0
  7 35  1  0
  8  9  2  0
  8 19  1  0
  9 10  1  0
 10 11  1  0
 10 16  2  0
 11 12  2  0
 11 17  1  0
 12 13  1  0
 12 36  1  0
 13 14  1  0
 13 15  2  0
 15 16  1  0
 15 37  1  0
 16 38  1  0
 17 18  2  0
 17 19  1  0
 19 20  1  0
 20 21  1  0
 20 39  1  6
 20 40  1  0
 21 22  1  0
 21 41  1  1
 21 42  1  0
 22 23  1  0
 22 31  1  0
 23 24  1  0
 23 43  1  1
 23 44  1  0
 24 25  1  0
 24 30  2  0
 25 26  2  0
 25 45  1  0
 26 27  1  0
 26 46  1  0
 27 28  1  0
 27 29  2  0
 29 30  1  0
 29 47  1  0
 30 48  1  0
M  END
>  <s_epik_cmdline>  (587) 
J2VwaWtfcHl0aG9uJywgJy1waCcsICc3LjAwMDAwMCcsICctcGh0JywgJzIuMDAwMDAwJywgJy1tcycsICcxNicsICctdG4nLCAnOCcsICctbWEnLCAnMjAwJywgJy1pbWFlJywgJzxpbmZpbGUubWFlPicsICctb21hZScsICc8b3V0ZmlsZS5tYWU+Jw==

>  <s_epik_input>  (587) 
W2NIXTFbY0hdW2NIXVtjSF1jKGMxQnIpLWMobjIpbihjKD1PKWMoYzIzKVtjSF1jKENsKVtjSF1bY0hdMylbQ0gyXVtDSDJdW05IXVtDSDJdYzRbY0hdW2NIXWMoRilbY0hdW2NIXTQ=

>  <s_i_glide_gridfile>  (587) 
ATP-Grid

>  <s_lp_Force_Field>  (587) 
OPLS_2005

>  <s_lp_Variant>  (587) 
rxn318____EMOL195078550____EMOL481226____EMOL476666-2

>  <s_lp_label>  (587) 
3063_sdstereoexpander_1_neutralizer_1_epik_2_stereoizer_1

>  <s_m_source_file>  (587) 
ATP-VSW-LIGPREP-001-in.maegz

>  <s_sd_BIOSOLVEIT.INFINISEE\_QUERY\_NAME>  (587) 
Ref-Lig

>  <s_sd_BIOSOLVEIT.INFINISEE\_QUERY\_SMILES>  (587) 
S(c1nc2c(cc1C[NH2+]Cc3ccc(cc3)C[NH+](C)C)cccc2)Cc4ccccc4

>  <s_sd_BIOSOLVEIT.INFINISEE\_REACTION\_NAME>  (587) 
rxn318

>  <s_sd_BIOSOLVEIT.INFINISEE\_REAGENT1\_NAME>  (587) 
EMOL195078550

>  <s_sd_BIOSOLVEIT.INFINISEE\_REAGENT1\_SMILES>  (587) 
Fc1ccc(cc1)CNCCN

>  <s_sd_BIOSOLVEIT.INFINISEE\_REAGENT2\_NAME>  (587) 
EMOL481226

>  <s_sd_BIOSOLVEIT.INFINISEE\_REAGENT2\_SMILES>  (587) 
Brc1c(cccc1)C(=O)O

>  <s_sd_BIOSOLVEIT.INFINISEE\_REAGENT3\_NAME>  (587) 
EMOL476666

>  <s_sd_BIOSOLVEIT.INFINISEE\_REAGENT3\_SMILES>  (587) 
Clc1cc(c(N)cc1)C(=O)O

>  <s_sd_BIOSOLVEIT.INFINISEE\_SPACE>  (587) 
eXplore_7tr_2022-12

>  <s_vsw_compound_code>  (587) 
97985

>  <s_vsw_variant>  (587) 
97985-2

>  <r_epik_Charging_Adjusted_Penalty>  (587) 
0.77861307137473801

>  <r_epik_Ionization_Penalty>  (587) 
0.77859999999999996

>  <r_epik_Ionization_Penalty_Charging>  (587) 
0

>  <r_epik_Ionization_Penalty_Neutral>  (587) 
0.77859999999999996

>  <r_epik_State_Penalty>  (587) 
0.77859999999999996

>  <r_i_docking_score>  (587) 
-2.4605383043654601

>  <r_i_glide_ecoul>  (587) 
-2.9452710151672399

>  <r_i_glide_eff_state_penalty>  (587) 
0.77859999999999996

>  <r_i_glide_einternal>  (587) 
1.7969877719879199

>  <r_i_glide_emodel>  (587) 
-44.447621564228101

>  <r_i_glide_energy>  (587) 
-37.421532154083302

>  <r_i_glide_erotb>  (587) 
0.42889876164132901

>  <r_i_glide_esite>  (587) 
-0.082401968385698104

>  <r_i_glide_evdw>  (587) 
-34.476261138916001

>  <r_i_glide_gscore>  (587) 
-3.23913830436546

>  <r_i_glide_hbond>  (587) 
-0.120589979252006

>  <r_i_glide_ligand_efficiency>  (587) 
-0.082017943478848804

>  <r_i_glide_ligand_efficiency_ln>  (587) 
-0.55906111246394896

>  <r_i_glide_ligand_efficiency_sa>  (587) 
-0.25484881976003498

>  <r_i_glide_lipo>  (587) 
-1.12177802235302

>  <r_i_glide_metal>  (587) 
-0

>  <r_i_glide_rewards>  (587) 
-0.17766338679517901

>  <r_lp_Energy>  (587) 
31.942105000000002

>  <r_lp_tautomer_probability>  (587) 
1

>  <r_qp_ACxDN^.5/SA>  (587) 
0.0082629000000000001

>  <r_qp_CIQPlogS>  (587) 
-7.2009999999999996

>  <r_qp_EA(eV)>  (587) 
0.86899999999999999

>  <r_qp_FISA>  (587) 
62.206000000000003

>  <r_qp_FOSA>  (587) 
78.613

>  <r_qp_IP(eV)>  (587) 
9.0280000000000005

>  <r_qp_Jm>  (587) 
0.0071053572649808303

>  <r_qp_PISA>  (587) 
353.15899999999999

>  <r_qp_PSA>  (587) 
53.651000000000003

>  <r_qp_PercentHumanOralAbsorption>  (587) 
100

>  <r_qp_QPPCaco>  (587) 
635.18799999999999

>  <r_qp_QPPMDCK>  (587) 
2920.703

>  <r_qp_QPlogBB>  (587) 
0.43099999999999999

>  <r_qp_QPlogHERG>  (587) 
-6.569

>  <r_qp_QPlogKhsa>  (587) 
0.65900000000000003

>  <r_qp_QPlogKp>  (587) 
-2.9079999999999999

>  <r_qp_QPlogPC16>  (587) 
13.529999999999999

>  <r_qp_QPlogPo/w>  (587) 
4.8700000000000001

>  <r_qp_QPlogPoct>  (587) 
19.513000000000002

>  <r_qp_QPlogPw>  (587) 
9.7650000000000006

>  <r_qp_QPlogS>  (587) 
-4.9269999999999996

>  <r_qp_QPpolrz>  (587) 
42.906999999999996

>  <r_qp_SASA>  (587) 
665.62699999999995

>  <r_qp_SAamideO>  (587) 
0

>  <r_qp_SAfluorine>  (587) 
40.503999999999998

>  <r_qp_WPSA>  (587) 
171.65000000000001

>  <r_qp_accptHB>  (587) 
5.5

>  <r_qp_dip^2/V>  (587) 
0.0131331

>  <r_qp_dipole>  (587) 
4.032

>  <r_qp_donorHB>  (587) 
1

>  <r_qp_glob>  (587) 
0.83764439999999996

>  <r_qp_mol_MW>  (587) 
486.76999999999998

>  <r_qp_volume>  (587) 
1237.9090000000001

>  <r_sd_BIOSOLVEIT.INFINISEE\_FTREES\_SIMILARITY>  (587) 
0.90200000000000002

>  <r_sd_BIOSOLVEIT.LOGP>  (587) 
4.3821000000000003

>  <r_sd_BIOSOLVEIT.MOLECULAR\_WEIGHT>  (587) 
487.77800000000002

>  <r_sd_BIOSOLVEIT.TPSA>  (587) 
51.5

>  <i_epik_Tot_Q>  (587) 
0

>  <i_epik_Tot_abs_Q>  (587) 
0

>  <i_f3d_flags>  (587) 
0

>  <i_i_glide_confnum>  (587) 
2

>  <i_i_glide_lignum>  (587) 
35

>  <i_i_glide_posenum>  (587) 
10

>  <i_i_glide_rotatable_bonds>  (587) 
6

>  <i_lp_mmshare_version>  (587) 
65135

>  <i_m_ct_format>  (587) 
2

>  <i_m_source_file_index>  (587) 
3063

>  <i_qp_#NandO>  (587) 
4

>  <i_qp_#acid>  (587) 
0

>  <i_qp_#amide>  (587) 
0

>  <i_qp_#amidine>  (587) 
0

>  <i_qp_#amine>  (587) 
1

>  <i_qp_#in34>  (587) 
0

>  <i_qp_#in56>  (587) 
22

>  <i_qp_#metab>  (587) 
2

>  <i_qp_#nonHatm>  (587) 
30

>  <i_qp_#noncon>  (587) 
0

>  <i_qp_#ringatoms>  (587) 
22

>  <i_qp_#rotor>  (587) 
6

>  <i_qp_#rtvFG>  (587) 
0

>  <i_qp_#stars>  (587) 
0

>  <i_qp_CNS>  (587) 
1

>  <i_qp_HumanOralAbsorption>  (587) 
3

>  <i_qp_RuleOfFive>  (587) 
0

>  <i_qp_RuleOfThree>  (587) 
0

>  <i_sd_BIOSOLVEIT.INFINISEE\_RESULT\_RANK>  (587) 
92043

>  <i_sd_version>  (587) 
0

>  <b_lp_Chiralities_Consistent>  (587) 
1

>  <b_sd_chiral_flag>  (587) 
0

>  <canonical_id>  (587) 
ATP-HTVS-5B1B34F83C18

>  <compound_code>  (587) 
97985

>  <title>  (587) 
rxn318____EMOL195078550____EMOL481226____EMOL476666

>  <variant>  (587) 
97985-2

>  <source_file>  (587) 
运行/运行/ATP-VSW/ATP-VSW-DOCK_HTVS_1-002_lib.maegz

>  <canonical_smiles>  (587) 
O=c1c2cc(Cl)ccc2nc(-c2ccccc2Br)n1CCNCc1ccc(F)cc1

>  <scaffold>  (587) 
O=c1c2ccccc2nc(-c2ccccc2)n1CCNCc1ccccc1

>  <molecular_formula>  (587) 
C23H18BrClFN3O

$$$$
ATP-HTVS-5B32A3AFA3A9
     RDKit          3D

 55 57  0  0  0  0  0  0  0  0999 V2000
  201.2215  178.8177  155.4698 O   0  0  0  0  0  0  0  0  0  0  0  0
  200.1491  178.5491  156.0173 C   0  0  0  0  0  0  0  0  0  0  0  0
  199.0034  179.1989  155.8029 N   0  0  0  0  0  0  0  0  0  0  0  0
  198.8303  180.4389  155.0465 C   0  0  1  0  0  0  0  0  0  0  0  0
  199.2607  180.3680  153.5805 C   0  0  0  0  0  0  0  0  0  0  0  0
  198.3802  180.0373  152.5148 C   0  0  0  0  0  0  0  0  0  0  0  0
  198.8969  179.9961  151.1810 C   0  0  0  0  0  0  0  0  0  0  0  0
  200.1961  180.2378  150.9058 N   0  0  0  0  0  0  0  0  0  0  0  0
  201.0367  180.5461  151.9163 C   0  0  0  0  0  0  0  0  0  0  0  0
  202.3686  180.7749  151.6318 O   0  0  0  0  0  0  0  0  0  0  0  0
  202.7948  180.7230  150.2702 C   0  0  2  0  0  0  0  0  0  0  0  0
  200.6044  180.6457  153.2494 C   0  0  0  0  0  0  0  0  0  0  0  0
  198.0277  179.6901  150.1145 C   0  0  0  0  0  0  0  0  0  0  0  0
  196.6635  179.4371  150.3457 C   0  0  0  0  0  0  0  0  0  0  0  0
  196.1723  179.4497  151.6644 C   0  0  0  0  0  0  0  0  0  0  0  0
  197.0161  179.7477  152.7434 C   0  0  0  0  0  0  0  0  0  0  0  0
  200.0088  177.5552  156.9013 N   0  0  0  0  0  0  0  0  0  0  0  0
  201.1325  176.6851  157.2513 C   0  0  1  0  0  0  0  0  0  0  0  0
  201.4943  175.6284  156.1928 C   0  0  0  0  0  0  0  0  0  0  0  0
  200.7812  175.5384  154.9700 C   0  0  0  0  0  0  0  0  0  0  0  0
  201.1205  174.5686  154.0194 C   0  0  0  0  0  0  0  0  0  0  0  0
  202.1372  173.6457  154.3077 C   0  0  0  0  0  0  0  0  0  0  0  0
  202.4654  172.6379  153.2572 N   0  0  1  0  0  0  0  0  0  0  0  0
  203.6077  172.9568  152.3777 C   0  0  2  0  0  0  0  0  0  0  0  0
  204.9375  172.9120  153.1509 C   0  0  2  0  0  0  0  0  0  0  0  0
  203.4027  174.2852  151.6386 C   0  0  2  0  0  0  0  0  0  0  0  0
  202.8478  173.6906  155.5187 C   0  0  0  0  0  0  0  0  0  0  0  0
  202.5426  174.7123  156.4366 C   0  0  0  0  0  0  0  0  0  0  0  0
  198.2086  178.8914  156.3508 H   0  0  0  0  0  0  0  0  0  0  0  0
  197.7881  180.7461  155.1521 H   0  0  0  0  0  0  0  0  0  0  0  0
  199.4152  181.2118  155.5500 H   0  0  0  0  0  0  0  0  0  0  0  0
  203.8629  180.9337  150.2154 H   0  0  0  0  0  0  0  0  0  0  0  0
  202.2777  181.4741  149.6747 H   0  0  0  0  0  0  0  0  0  0  0  0
  202.6274  179.7388  149.8331 H   0  0  0  0  0  0  0  0  0  0  0  0
  201.3137  180.8914  154.0219 H   0  0  0  0  0  0  0  0  0  0  0  0
  198.4189  179.6598  149.1049 H   0  0  0  0  0  0  0  0  0  0  0  0
  196.0023  179.2134  149.5219 H   0  0  0  0  0  0  0  0  0  0  0  0
  195.1398  179.2330  151.8648 H   0  0  0  0  0  0  0  0  0  0  0  0
  196.5884  179.7402  153.7370 H   0  0  0  0  0  0  0  0  0  0  0  0
  199.1247  177.4546  157.4120 H   0  0  0  0  0  0  0  0  0  0  0  0
  202.0066  177.3128  157.4494 H   0  0  0  0  0  0  0  0  0  0  0  0
  200.8862  176.2336  158.2090 H   0  0  0  0  0  0  0  0  0  0  0  0
  199.9591  176.1887  154.7221 H   0  0  0  0  0  0  0  0  0  0  0  0
  200.5777  174.5269  153.0801 H   0  0  0  0  0  0  0  0  0  0  0  0
  202.6711  171.7301  153.6745 H   0  0  0  0  0  0  0  0  0  0  0  0
  203.6261  172.1539  151.6434 H   0  0  0  0  0  0  0  0  0  0  0  0
  205.7803  173.0905  152.4778 H   0  0  0  0  0  0  0  0  0  0  0  0
  205.0811  171.9368  153.6162 H   0  0  0  0  0  0  0  0  0  0  0  0
  204.9938  173.6754  153.9316 H   0  0  0  0  0  0  0  0  0  0  0  0
  204.2254  174.4756  150.9488 H   0  0  0  0  0  0  0  0  0  0  0  0
  203.3614  175.1390  152.3190 H   0  0  0  0  0  0  0  0  0  0  0  0
  202.4826  174.2825  151.0536 H   0  0  0  0  0  0  0  0  0  0  0  0
  203.6186  172.9618  155.7311 H   0  0  0  0  0  0  0  0  0  0  0  0
  203.1146  174.7649  157.3538 H   0  0  0  0  0  0  0  0  0  0  0  0
  201.6571  172.4949  152.6747 H   0  0  0  0  0  0  0  0  0  0  0  0
  1  2  2  0
  2  3  1  0
  2 17  1  0
  3  4  1  0
  3 29  1  0
  4  5  1  0
  4 30  1  6
  4 31  1  0
  5  6  1  0
  5 12  2  0
  6  7  1  0
  6 16  2  0
  7  8  1  0
  7 13  2  0
  8  9  2  0
  9 10  1  0
  9 12  1  0
 10 11  1  0
 11 32  1  1
 11 33  1  0
 11 34  1  0
 12 35  1  0
 13 14  1  0
 13 36  1  0
 14 15  2  0
 14 37  1  0
 15 16  1  0
 15 38  1  0
 16 39  1  0
 17 18  1  0
 17 40  1  0
 18 19  1  0
 18 41  1  1
 18 42  1  0
 19 20  1  0
 19 28  2  0
 20 21  2  0
 20 43  1  0
 21 22  1  0
 21 44  1  0
 22 23  1  0
 22 27  2  0
 23 24  1  0
 23 45  1  1
 23 55  1  0
 24 25  1  0
 24 26  1  0
 24 46  1  6
 25 47  1  6
 25 48  1  0
 25 49  1  0
 26 50  1  6
 26 51  1  0
 26 52  1  0
 27 28  1  0
 27 53  1  0
 28 54  1  0
M  CHG  1  23   1
M  END
>  <s_epik_cmdline>  (588) 
J2VwaWtfcHl0aG9uJywgJy1waCcsICc3LjAwMDAwMCcsICctcGh0JywgJzIuMDAwMDAwJywgJy1tcycsICcxNicsICctdG4nLCAnOCcsICctbWEnLCAnMjAwJywgJy1pbWFlJywgJzxpbmZpbGUubWFlPicsICctb21hZScsICc8b3V0ZmlsZS5tYWU+Jw==

>  <s_epik_input>  (588) 
W0NIM11bQ0hdKFtDSDNdKVtOSF1jKFtjSF1bY0hdMSlbY0hdW2NIXWMxW0NIMl1bTkhdQyg9TylbTkhdW0NIMl1jMltjSF1jKE9bQ0gzXSluYyhjMjMpW2NIXVtjSF1bY0hdW2NIXTM=

>  <s_i_glide_gridfile>  (588) 
ATP-Grid

>  <s_lp_Force_Field>  (588) 
OPLS_2005

>  <s_lp_Variant>  (588) 
m_2708bba____6009228____23885438-2

>  <s_lp_label>  (588) 
1764_sdstereoexpander_1_neutralizer_1_epik_2_stereoizer_1

>  <s_m_source_file>  (588) 
ATP-VSW-LIGPREP-002-in.maegz

>  <s_sd_BIOSOLVEIT.INFINISEE\_QUERY\_NAME>  (588) 
Ref-Lig

>  <s_sd_BIOSOLVEIT.INFINISEE\_QUERY\_SMILES>  (588) 
S(c1nc2c(cc1C[NH2+]Cc3ccc(cc3)C[NH+](C)C)cccc2)Cc4ccccc4

>  <s_sd_BIOSOLVEIT.INFINISEE\_REACTION\_NAME>  (588) 
m_2708bba

>  <s_sd_BIOSOLVEIT.INFINISEE\_REAGENT1\_SMILES>  (588) 
[R1*]C(=O)NCc1c2c(nc(OC)c1)cccc2

>  <s_sd_BIOSOLVEIT.INFINISEE\_REAGENT2\_SMILES>  (588) 
[R1*]NCc1ccc(NC(C)C)cc1

>  <s_sd_BIOSOLVEIT.INFINISEE\_SPACE>  (588) 
REALSpace_44bn_2023-08

>  <s_vsw_compound_code>  (588) 
56418

>  <s_vsw_variant>  (588) 
56418-2

>  <r_epik_Charging_Adjusted_Penalty>  (588) 
3.4279874680962998

>  <r_epik_Ionization_Penalty>  (588) 
1.7141999999999999

>  <r_epik_Ionization_Penalty_Charging>  (588) 
1.714

>  <r_epik_Ionization_Penalty_Neutral>  (588) 
0.00020000000000000001

>  <r_epik_State_Penalty>  (588) 
1.714

>  <r_i_docking_score>  (588) 
-3.7648795683690799

>  <r_i_glide_ecoul>  (588) 
-11.2548561096191

>  <r_i_glide_eff_state_penalty>  (588) 
1.714

>  <r_i_glide_einternal>  (588) 
5.06961917877197

>  <r_i_glide_emodel>  (588) 
-49.534344257770002

>  <r_i_glide_energy>  (588) 
-35.311248779296903

>  <r_i_glide_erotb>  (588) 
0.94257129103806603

>  <r_i_glide_esite>  (588) 
-0.30047262582971501

>  <r_i_glide_evdw>  (588) 
-24.056392669677699

>  <r_i_glide_gscore>  (588) 
-5.4788795683690799

>  <r_i_glide_hbond>  (588) 
-0.43426735259098997

>  <r_i_glide_ligand_efficiency>  (588) 
-0.13445998458461

>  <r_i_glide_ligand_efficiency_ln>  (588) 
-0.86904474604704596

>  <r_i_glide_ligand_efficiency_sa>  (588) 
-0.408299705894686

>  <r_i_glide_lipo>  (588) 
-1.74890405833241

>  <r_i_glide_metal>  (588) 
-0

>  <r_i_glide_rewards>  (588) 
-1.04675877272727

>  <r_lp_Energy>  (588) 
14.031205

>  <r_qp_ACxDN^.5/SA>  (588) 
0.0096281000000000005

>  <r_qp_CIQPlogS>  (588) 
-5.4039999999999999

>  <r_qp_EA(eV)>  (588) 
0.89000000000000001

>  <r_qp_FISA>  (588) 
85.677000000000007

>  <r_qp_FOSA>  (588) 
337.63

>  <r_qp_IP(eV)>  (588) 
8.7919999999999998

>  <r_qp_Jm>  (588) 
0.037118376306411301

>  <r_qp_PISA>  (588) 
296.27600000000001

>  <r_qp_PSA>  (588) 
77.760000000000005

>  <r_qp_PercentHumanOralAbsorption>  (588) 
100

>  <r_qp_QPPCaco>  (588) 
1006.377

>  <r_qp_QPPMDCK>  (588) 
780.93700000000001

>  <r_qp_QPlogBB>  (588) 
-0.76600000000000001

>  <r_qp_QPlogHERG>  (588) 
-4.9160000000000004

>  <r_qp_QPlogKhsa>  (588) 
0.51500000000000001

>  <r_qp_QPlogKp>  (588) 
-1.383

>  <r_qp_QPlogPC16>  (588) 
13.565

>  <r_qp_QPlogPo/w>  (588) 
4.3680000000000003

>  <r_qp_QPlogPoct>  (588) 
20.934000000000001

>  <r_qp_QPlogPw>  (588) 
12.518000000000001

>  <r_qp_QPlogS>  (588) 
-5.6260000000000003

>  <r_qp_QPpolrz>  (588) 
43.496000000000002

>  <r_qp_SASA>  (588) 
719.58299999999997

>  <r_qp_SAamideO>  (588) 
22.696999999999999

>  <r_qp_SAfluorine>  (588) 
0

>  <r_qp_WPSA>  (588) 
0

>  <r_qp_accptHB>  (588) 
4

>  <r_qp_dip^2/V>  (588) 
0.024063000000000001

>  <r_qp_dipole>  (588) 
5.5549999999999997

>  <r_qp_donorHB>  (588) 
3

>  <r_qp_glob>  (588) 
0.79322899999999996

>  <r_qp_mol_MW>  (588) 
378.47300000000001

>  <r_qp_volume>  (588) 
1282.2470000000001

>  <r_sd_BIOSOLVEIT.INFINISEE\_FTREES\_SIMILARITY>  (588) 
0.90400000000000003

>  <r_sd_BIOSOLVEIT.LOGP>  (588) 
4.0631000000000004

>  <r_sd_BIOSOLVEIT.MOLECULAR\_WEIGHT>  (588) 
378.47300000000001

>  <r_sd_BIOSOLVEIT.TPSA>  (588) 
75.280000000000001

>  <i_epik_Tot_Q>  (588) 
1

>  <i_epik_Tot_abs_Q>  (588) 
1

>  <i_f3d_flags>  (588) 
0

>  <i_i_glide_confnum>  (588) 
3

>  <i_i_glide_lignum>  (588) 
615

>  <i_i_glide_posenum>  (588) 
3

>  <i_i_glide_rotatable_bonds>  (588) 
9

>  <i_lp_mmshare_version>  (588) 
65135

>  <i_m_ct_format>  (588) 
2

>  <i_m_source_file_index>  (588) 
1764

>  <i_qp_#NandO>  (588) 
6

>  <i_qp_#acid>  (588) 
0

>  <i_qp_#amide>  (588) 
1

>  <i_qp_#amidine>  (588) 
0

>  <i_qp_#amine>  (588) 
0

>  <i_qp_#in34>  (588) 
0

>  <i_qp_#in56>  (588) 
16

>  <i_qp_#metab>  (588) 
5

>  <i_qp_#nonHatm>  (588) 
28

>  <i_qp_#noncon>  (588) 
0

>  <i_qp_#ringatoms>  (588) 
16

>  <i_qp_#rotor>  (588) 
7

>  <i_qp_#rtvFG>  (588) 
0

>  <i_qp_#stars>  (588) 
0

>  <i_qp_CNS>  (588) 
-1

>  <i_qp_HumanOralAbsorption>  (588) 
3

>  <i_qp_RuleOfFive>  (588) 
0

>  <i_qp_RuleOfThree>  (588) 
0

>  <i_sd_BIOSOLVEIT.INFINISEE\_REAGENT1\_NAME>  (588) 
6009228

>  <i_sd_BIOSOLVEIT.INFINISEE\_REAGENT2\_NAME>  (588) 
23885438

>  <i_sd_BIOSOLVEIT.INFINISEE\_RESULT\_RANK>  (588) 
75566

>  <i_sd_version>  (588) 
0

>  <b_lp_Chiralities_Consistent>  (588) 
1

>  <b_sd_chiral_flag>  (588) 
0

>  <canonical_id>  (588) 
ATP-HTVS-5B32A3AFA3A9

>  <compound_code>  (588) 
56418

>  <title>  (588) 
m_2708bba____6009228____23885438

>  <variant>  (588) 
56418-2

>  <source_file>  (588) 
运行/运行/ATP-VSW/ATP-VSW-DOCK_HTVS_1-002_lib.maegz

>  <canonical_smiles>  (588) 
COc1cc(CNC(=O)NCc2ccc([NH2+]C(C)C)cc2)c2ccccc2n1

>  <scaffold>  (588) 
O=C(NCc1ccccc1)NCc1ccnc2ccccc12

>  <molecular_formula>  (588) 
C22H27N4O2+

$$$$
ATP-HTVS-5B9C564ED935
     RDKit          3D

 60 62  0  0  0  0  0  0  0  0999 V2000
  202.1074  177.0138  151.7812 O   0  0  0  0  0  0  0  0  0  0  0  0
  201.7806  176.1713  152.8217 C   0  0  0  0  0  0  0  0  0  0  0  0
  201.4897  174.8690  152.5621 N   0  0  0  0  0  0  0  0  0  0  0  0
  201.2307  174.0630  153.6127 C   0  0  0  0  0  0  0  0  0  0  0  0
  201.1867  174.5314  154.9453 C   0  0  0  0  0  0  0  0  0  0  0  0
  201.4299  175.8930  155.2070 C   0  0  0  0  0  0  0  0  0  0  0  0
  201.7831  176.7222  154.1140 C   0  0  0  0  0  0  0  0  0  0  0  0
  201.3339  176.4501  156.6274 C   0  0  1  0  0  0  0  0  0  0  0  0
  200.3879  177.5877  156.8125 N   0  0  1  0  0  0  0  0  0  0  0  0
  200.6020  178.7149  155.8817 C   0  0  1  0  0  0  0  0  0  0  0  0
  199.9164  179.9797  156.3102 C   0  0  0  0  0  0  0  0  0  0  0  0
  200.6439  181.0108  156.9386 C   0  0  0  0  0  0  0  0  0  0  0  0
  199.9950  182.2039  157.2979 C   0  0  0  0  0  0  0  0  0  0  0  0
  198.6224  182.3881  157.0188 C   0  0  0  0  0  0  0  0  0  0  0  0
  198.0464  183.5329  157.4947 O   0  0  0  0  0  0  0  0  0  0  0  0
  196.6411  183.6742  157.3994 C   0  0  1  0  0  0  0  0  0  0  0  0
  195.9087  182.5888  158.2268 C   0  0  1  0  0  0  0  0  0  0  0  0
  194.4290  182.7130  158.1507 N   0  0  2  0  0  0  0  0  0  0  0  0
  193.9002  183.8407  158.9490 C   0  0  2  0  0  0  0  0  0  0  0  0
  193.7704  181.4338  158.4814 C   0  0  2  0  0  0  0  0  0  0  0  0
  197.9133  181.3737  156.3292 C   0  0  0  0  0  0  0  0  0  0  0  0
  198.5409  180.1786  156.0022 C   0  0  0  0  0  0  0  0  0  0  0  0
  201.9763  176.5722  150.4402 C   0  0  1  0  0  0  0  0  0  0  0  0
  200.5554  176.6997  149.9100 C   0  0  0  0  0  0  0  0  0  0  0  0
  199.6863  177.7014  150.3955 C   0  0  0  0  0  0  0  0  0  0  0  0
  198.3787  177.8199  149.8761 C   0  0  0  0  0  0  0  0  0  0  0  0
  197.9503  176.9407  148.8642 C   0  0  0  0  0  0  0  0  0  0  0  0
  198.8104  175.9464  148.3734 C   0  0  0  0  0  0  0  0  0  0  0  0
  200.1154  175.8267  148.8942 C   0  0  0  0  0  0  0  0  0  0  0  0
  199.4214  177.2793  156.7489 H   0  0  0  0  0  0  0  0  0  0  0  0
  201.0423  173.0232  153.3755 H   0  0  0  0  0  0  0  0  0  0  0  0
  200.9281  173.8481  155.7406 H   0  0  0  0  0  0  0  0  0  0  0  0
  202.0127  177.7737  154.2542 H   0  0  0  0  0  0  0  0  0  0  0  0
  201.0353  175.6625  157.3151 H   0  0  0  0  0  0  0  0  0  0  0  0
  202.3393  176.7408  156.9359 H   0  0  0  0  0  0  0  0  0  0  0  0
  201.6598  178.9283  155.7795 H   0  0  0  0  0  0  0  0  0  0  0  0
  200.2528  178.4496  154.8915 H   0  0  0  0  0  0  0  0  0  0  0  0
  201.7002  180.8900  157.1324 H   0  0  0  0  0  0  0  0  0  0  0  0
  200.5501  182.9726  157.8211 H   0  0  0  0  0  0  0  0  0  0  0  0
  196.4122  184.6652  157.7710 H   0  0  0  0  0  0  0  0  0  0  0  0
  196.3358  183.6680  156.3578 H   0  0  0  0  0  0  0  0  0  0  0  0
  196.1705  181.6012  157.8439 H   0  0  0  0  0  0  0  0  0  0  0  0
  196.2255  182.6377  159.2849 H   0  0  0  0  0  0  0  0  0  0  0  0
  194.1757  183.7270  159.9983 H   0  0  0  0  0  0  0  0  0  0  0  0
  192.8142  183.9033  158.8843 H   0  0  0  0  0  0  0  0  0  0  0  0
  194.3062  184.7933  158.6114 H   0  0  0  0  0  0  0  0  0  0  0  0
  194.0303  181.1147  159.4921 H   0  0  0  0  0  0  0  0  0  0  0  0
  194.0744  180.6497  157.7898 H   0  0  0  0  0  0  0  0  0  0  0  0
  192.6922  181.5149  158.3877 H   0  0  0  0  0  0  0  0  0  0  0  0
  196.8565  181.4840  156.1119 H   0  0  0  0  0  0  0  0  0  0  0  0
  197.9930  179.3791  155.5058 H   0  0  0  0  0  0  0  0  0  0  0  0
  202.6285  177.1968  149.8312 H   0  0  0  0  0  0  0  0  0  0  0  0
  202.3463  175.5534  150.3233 H   0  0  0  0  0  0  0  0  0  0  0  0
  200.0125  178.3900  151.1617 H   0  0  0  0  0  0  0  0  0  0  0  0
  197.7150  178.5847  150.2508 H   0  0  0  0  0  0  0  0  0  0  0  0
  196.9479  177.0249  148.4636 H   0  0  0  0  0  0  0  0  0  0  0  0
  198.4799  175.2734  147.5965 H   0  0  0  0  0  0  0  0  0  0  0  0
  200.7797  175.0689  148.5126 H   0  0  0  0  0  0  0  0  0  0  0  0
  194.1791  182.8779  157.1702 H   0  0  0  0  0  0  0  0  0  0  0  0
  200.5005  177.9412  157.7582 H   0  0  0  0  0  0  0  0  0  0  0  0
  1  2  1  0
  1 23  1  0
  2  3  1  0
  2  7  2  0
  3  4  2  0
  4  5  1  0
  4 31  1  0
  5  6  2  0
  5 32  1  0
  6  7  1  0
  6  8  1  0
  7 33  1  0
  8  9  1  0
  8 34  1  1
  8 35  1  0
  9 10  1  0
  9 30  1  1
  9 60  1  0
 10 11  1  0
 10 36  1  6
 10 37  1  0
 11 12  1  0
 11 22  2  0
 12 13  2  0
 12 38  1  0
 13 14  1  0
 13 39  1  0
 14 15  1  0
 14 21  2  0
 15 16  1  0
 16 17  1  0
 16 40  1  1
 16 41  1  0
 17 18  1  0
 17 42  1  6
 17 43  1  0
 18 19  1  0
 18 20  1  0
 18 59  1  6
 19 44  1  1
 19 45  1  0
 19 46  1  0
 20 47  1  1
 20 48  1  0
 20 49  1  0
 21 22  1  0
 21 50  1  0
 22 51  1  0
 23 24  1  0
 23 52  1  6
 23 53  1  0
 24 25  2  0
 24 29  1  0
 25 26  1  0
 25 54  1  0
 26 27  2  0
 26 55  1  0
 27 28  1  0
 27 56  1  0
 28 29  2  0
 28 57  1  0
 29 58  1  0
M  CHG  2   9   1  18   1
M  END
>  <s_epik_cmdline>  (589) 
J2VwaWtfcHl0aG9uJywgJy1waCcsICc3LjAwMDAwMCcsICctcGh0JywgJzIuMDAwMDAwJywgJy1tcycsICcxNicsICctdG4nLCAnOCcsICctbWEnLCAnMjAwJywgJy1pbWFlJywgJzxpbmZpbGUubWFlPicsICctb21hZScsICc8b3V0ZmlsZS5tYWU+Jw==

>  <s_epik_input>  (589) 
W2NIXTFbY0hdW2NIXVtjSF1bY0hdYzFbQ0gyXU9jMm5bY0hdW2NIXWMoW2NIXTIpW0NIMl1bTkhdW0NIMl1jM1tjSF1bY0hdYyhbY0hdW2NIXTMpT1tDSDJdW0NIMl1OKFtDSDNdKVtDSDNd

>  <s_i_glide_gridfile>  (589) 
ATP-Grid

>  <s_lp_Force_Field>  (589) 
OPLS_2005

>  <s_lp_Variant>  (589) 
m_270004bbb____8349710____7548352-1

>  <s_lp_label>  (589) 
1278_sdstereoexpander_1_neutralizer_1_epik_1_stereoizer_1

>  <s_m_source_file>  (589) 
ATP-VSW-LIGPREP-001-in.maegz

>  <s_sd_BIOSOLVEIT.INFINISEE\_QUERY\_NAME>  (589) 
Ref-Lig

>  <s_sd_BIOSOLVEIT.INFINISEE\_QUERY\_SMILES>  (589) 
S(c1nc2c(cc1C[NH2+]Cc3ccc(cc3)C[NH+](C)C)cccc2)Cc4ccccc4

>  <s_sd_BIOSOLVEIT.INFINISEE\_REACTION\_NAME>  (589) 
m_270004bbb

>  <s_sd_BIOSOLVEIT.INFINISEE\_REAGENT1\_SMILES>  (589) 
[R1*]NCc1cc(OCc2ccccc2)ncc1

>  <s_sd_BIOSOLVEIT.INFINISEE\_REAGENT2\_SMILES>  (589) 
[R1*]Cc1ccc(OCCN(C)C)cc1

>  <s_sd_BIOSOLVEIT.INFINISEE\_SPACE>  (589) 
REALSpace_44bn_2023-08

>  <s_vsw_compound_code>  (589) 
40865

>  <s_vsw_variant>  (589) 
40865-1

>  <r_epik_Charging_Adjusted_Penalty>  (589) 
0.36456421132725902

>  <r_epik_Ionization_Penalty>  (589) 
0.18229999999999999

>  <r_epik_Ionization_Penalty_Charging>  (589) 
0.18229999999999999

>  <r_epik_Ionization_Penalty_Neutral>  (589) 
0

>  <r_epik_State_Penalty>  (589) 
0.18229999999999999

>  <r_i_docking_score>  (589) 
-4.4159297512832199

>  <r_i_glide_ecoul>  (589) 
-13.279212951660201

>  <r_i_glide_eff_state_penalty>  (589) 
0.18229999999999999

>  <r_i_glide_einternal>  (589) 
3.6023263931274401

>  <r_i_glide_emodel>  (589) 
-61.4695639838706

>  <r_i_glide_energy>  (589) 
-42.427291870117202

>  <r_i_glide_erotb>  (589) 
1.26151049445103

>  <r_i_glide_esite>  (589) 
-0.13955946747631801

>  <r_i_glide_evdw>  (589) 
-29.148078918456999

>  <r_i_glide_gscore>  (589) 
-4.5982297512832204

>  <r_i_glide_hbond>  (589) 
-0.20000000000000001

>  <r_i_glide_ligand_efficiency>  (589) 
-0.152273439699421

>  <r_i_glide_ligand_efficiency_ln>  (589) 
-1.01113593472712

>  <r_i_glide_ligand_efficiency_sa>  (589) 
-0.46783225036848097

>  <r_i_glide_lipo>  (589) 
-1.3449074350406001

>  <r_i_glide_metal>  (589) 
-0

>  <r_i_glide_rewards>  (589) 
-0.72598745454545299

>  <r_lp_Energy>  (589) 
22.097975999999999

>  <r_lp_tautomer_probability>  (589) 
1

>  <r_qp_ACxDN^.5/SA>  (589) 
0.0067456

>  <r_qp_CIQPlogS>  (589) 
-4.0579999999999998

>  <r_qp_EA(eV)>  (589) 
0.24199999999999999

>  <r_qp_FISA>  (589) 
33.923999999999999

>  <r_qp_FOSA>  (589) 
335.16000000000003

>  <r_qp_IP(eV)>  (589) 
8.8840000000000003

>  <r_qp_Jm>  (589) 
0.00363640312792855

>  <r_qp_PISA>  (589) 
409.20600000000002

>  <r_qp_PSA>  (589) 
43.688000000000002

>  <r_qp_PercentHumanOralAbsorption>  (589) 
100

>  <r_qp_QPPCaco>  (589) 
293.76400000000001

>  <r_qp_QPPMDCK>  (589) 
161.09399999999999

>  <r_qp_QPlogBB>  (589) 
0.316

>  <r_qp_QPlogHERG>  (589) 
-8.6590000000000007

>  <r_qp_QPlogKhsa>  (589) 
0.85799999999999998

>  <r_qp_QPlogKp>  (589) 
-3.7719999999999998

>  <r_qp_QPlogPC16>  (589) 
14.565

>  <r_qp_QPlogPo/w>  (589) 
4.9260000000000002

>  <r_qp_QPlogPoct>  (589) 
18.922000000000001

>  <r_qp_QPlogPw>  (589) 
8.8160000000000007

>  <r_qp_QPlogS>  (589) 
-4.2599999999999998

>  <r_qp_QPpolrz>  (589) 
45.884

>  <r_qp_SASA>  (589) 
778.28899999999999

>  <r_qp_SAamideO>  (589) 
0

>  <r_qp_SAfluorine>  (589) 
0

>  <r_qp_WPSA>  (589) 
0

>  <r_qp_accptHB>  (589) 
5.25

>  <r_qp_dip^2/V>  (589) 
0.00039520000000000001

>  <r_qp_dipole>  (589) 
0.73799999999999999

>  <r_qp_donorHB>  (589) 
1

>  <r_qp_glob>  (589) 
0.76989189999999996

>  <r_qp_mol_MW>  (589) 
391.512

>  <r_qp_volume>  (589) 
1379.1410000000001

>  <r_sd_BIOSOLVEIT.INFINISEE\_FTREES\_SIMILARITY>  (589) 
0.91000000000000003

>  <r_sd_BIOSOLVEIT.LOGP>  (589) 
1.4475

>  <r_sd_BIOSOLVEIT.MOLECULAR\_WEIGHT>  (589) 
393.52800000000002

>  <r_sd_BIOSOLVEIT.TPSA>  (589) 
52.399999999999999

>  <i_epik_Tot_Q>  (589) 
2

>  <i_epik_Tot_abs_Q>  (589) 
2

>  <i_f3d_flags>  (589) 
0

>  <i_i_glide_confnum>  (589) 
15

>  <i_i_glide_lignum>  (589) 
351

>  <i_i_glide_posenum>  (589) 
12

>  <i_i_glide_rotatable_bonds>  (589) 
11

>  <i_lp_mmshare_version>  (589) 
65135

>  <i_m_ct_format>  (589) 
2

>  <i_m_source_file_index>  (589) 
1278

>  <i_qp_#NandO>  (589) 
5

>  <i_qp_#acid>  (589) 
0

>  <i_qp_#amide>  (589) 
0

>  <i_qp_#amidine>  (589) 
0

>  <i_qp_#amine>  (589) 
2

>  <i_qp_#in34>  (589) 
0

>  <i_qp_#in56>  (589) 
18

>  <i_qp_#metab>  (589) 
8

>  <i_qp_#nonHatm>  (589) 
29

>  <i_qp_#noncon>  (589) 
0

>  <i_qp_#ringatoms>  (589) 
18

>  <i_qp_#rotor>  (589) 
11

>  <i_qp_#rtvFG>  (589) 
0

>  <i_qp_#stars>  (589) 
1

>  <i_qp_CNS>  (589) 
1

>  <i_qp_HumanOralAbsorption>  (589) 
3

>  <i_qp_RuleOfFive>  (589) 
0

>  <i_qp_RuleOfThree>  (589) 
1

>  <i_sd_BIOSOLVEIT.INFINISEE\_REAGENT1\_NAME>  (589) 
8349710

>  <i_sd_BIOSOLVEIT.INFINISEE\_REAGENT2\_NAME>  (589) 
7548352

>  <i_sd_BIOSOLVEIT.INFINISEE\_RESULT\_RANK>  (589) 
45338

>  <i_sd_version>  (589) 
0

>  <b_lp_Chiralities_Consistent>  (589) 
1

>  <b_sd_chiral_flag>  (589) 
0

>  <canonical_id>  (589) 
ATP-HTVS-5B9C564ED935

>  <compound_code>  (589) 
40865

>  <title>  (589) 
m_270004bbb____8349710____7548352

>  <variant>  (589) 
40865-1

>  <source_file>  (589) 
运行/运行/ATP-VSW/ATP-VSW-DOCK_HTVS_1-001_lib/ATP-VSW-DOCK_HTVS_1-001_lib

>  <canonical_smiles>  (589) 
C[NH+](C)CCOc1ccc(C[NH2+]Cc2ccnc(OCc3ccccc3)c2)cc1

>  <scaffold>  (589) 
c1ccc(C[NH2+]Cc2ccnc(OCc3ccccc3)c2)cc1

>  <molecular_formula>  (589) 
C24H31N3O2+2

$$$$
ATP-HTVS-5BC6D09DB3F1
     RDKit          3D

 60 63  0  0  0  0  0  0  0  0999 V2000
  192.7504  181.6058  158.1384 F   0  0  0  0  0  0  0  0  0  0  0  0
  193.9817  181.5207  158.6020 C   0  0  1  0  0  0  0  0  0  0  0  0
  194.7726  182.8339  158.4084 C   0  0  2  0  0  0  0  0  0  0  0  0
  196.1109  182.7166  158.9774 N   0  0  0  0  0  0  0  0  0  0  0  0
  197.1318  183.6409  158.6946 C   0  0  0  0  0  0  0  0  0  0  0  0
  197.1505  184.4580  157.5436 C   0  0  0  0  0  0  0  0  0  0  0  0
  198.2203  185.3554  157.3071 C   0  0  0  0  0  0  0  0  0  0  0  0
  199.2854  185.4277  158.2308 C   0  0  0  0  0  0  0  0  0  0  0  0
  199.2692  184.6199  159.3805 C   0  0  0  0  0  0  0  0  0  0  0  0
  198.1969  183.7380  159.6132 C   0  0  0  0  0  0  0  0  0  0  0  0
  198.2478  186.2156  156.0524 C   0  0  1  0  0  0  0  0  0  0  0  0
  199.0423  185.4991  154.9660 C   0  0  0  0  0  0  0  0  0  0  0  0
  200.2064  185.8115  154.7416 O   0  0  0  0  0  0  0  0  0  0  0  0
  198.4259  184.4919  154.3313 N   0  0  0  0  0  0  0  0  0  0  0  0
  199.1383  183.5021  153.5216 C   0  0  1  0  0  0  0  0  0  0  0  0
  199.4687  182.2881  154.3387 C   0  0  0  0  0  0  0  0  0  0  0  0
  200.6950  182.0542  154.8874 N   0  0  0  0  0  0  0  0  0  0  0  0
  200.6788  180.8505  155.5919 C   0  0  0  0  0  0  0  0  0  0  0  0
  199.3742  180.3224  155.4801 C   0  0  0  0  0  0  0  0  0  0  0  0
  198.6517  181.2432  154.6991 N   0  0  0  0  0  0  0  0  0  0  0  0
  197.2118  180.9924  154.4181 C   0  0  1  0  0  0  0  0  0  0  0  0
  196.9416  180.7646  152.9374 C   0  0  0  0  0  0  0  0  0  0  0  0
  197.1695  179.5016  152.3540 C   0  0  0  0  0  0  0  0  0  0  0  0
  196.9783  179.3101  150.9680 C   0  0  0  0  0  0  0  0  0  0  0  0
  196.5804  180.3954  150.1660 C   0  0  0  0  0  0  0  0  0  0  0  0
  196.3528  181.6543  150.7472 C   0  0  0  0  0  0  0  0  0  0  0  0
  196.4878  181.8316  152.1414 C   0  0  0  0  0  0  0  0  0  0  0  0
  199.0376  179.1141  156.1100 C   0  0  0  0  0  0  0  0  0  0  0  0
  200.0502  178.4593  156.8342 C   0  0  0  0  0  0  0  0  0  0  0  0
  201.3503  178.9904  156.9334 C   0  0  0  0  0  0  0  0  0  0  0  0
  201.6928  180.2084  156.3074 C   0  0  0  0  0  0  0  0  0  0  0  0
  194.0090  184.0349  159.0035 C   0  0  2  0  0  0  0  0  0  0  0  0
  193.9515  181.2080  159.6471 H   0  0  0  0  0  0  0  0  0  0  0  0
  194.3579  180.7015  157.9960 H   0  0  0  0  0  0  0  0  0  0  0  0
  194.8745  182.9862  157.3434 H   0  0  0  0  0  0  0  0  0  0  0  0
  196.3334  181.9070  159.5418 H   0  0  0  0  0  0  0  0  0  0  0  0
  196.3594  184.3901  156.8133 H   0  0  0  0  0  0  0  0  0  0  0  0
  200.1128  186.1044  158.0686 H   0  0  0  0  0  0  0  0  0  0  0  0
  200.0678  184.6946  160.1067 H   0  0  0  0  0  0  0  0  0  0  0  0
  198.1794  183.1405  160.5115 H   0  0  0  0  0  0  0  0  0  0  0  0
  197.2314  186.4208  155.7058 H   0  0  0  0  0  0  0  0  0  0  0  0
  198.7109  187.1811  156.2823 H   0  0  0  0  0  0  0  0  0  0  0  0
  197.4612  184.2982  154.5684 H   0  0  0  0  0  0  0  0  0  0  0  0
  198.5240  183.2296  152.6513 H   0  0  0  0  0  0  0  0  0  0  0  0
  200.0670  183.9226  153.1065 H   0  0  0  0  0  0  0  0  0  0  0  0
  196.8481  180.1241  154.9744 H   0  0  0  0  0  0  0  0  0  0  0  0
  196.6446  181.8470  154.7860 H   0  0  0  0  0  0  0  0  0  0  0  0
  197.5079  178.6664  152.9633 H   0  0  0  0  0  0  0  0  0  0  0  0
  197.1534  178.3483  150.5188 H   0  0  0  0  0  0  0  0  0  0  0  0
  196.4530  180.2554  149.0952 H   0  0  0  0  0  0  0  0  0  0  0  0
  196.0872  182.5063  150.1306 H   0  0  0  0  0  0  0  0  0  0  0  0
  196.2490  182.7855  152.5759 H   0  0  0  0  0  0  0  0  0  0  0  0
  198.0459  178.6857  156.1104 H   0  0  0  0  0  0  0  0  0  0  0  0
  199.7965  177.5396  157.3419 H   0  0  0  0  0  0  0  0  0  0  0  0
  202.1011  178.4610  157.5067 H   0  0  0  0  0  0  0  0  0  0  0  0
  202.6910  180.6120  156.3908 H   0  0  0  0  0  0  0  0  0  0  0  0
  193.0226  184.1316  158.5449 H   0  0  0  0  0  0  0  0  0  0  0  0
  194.5350  184.9760  158.8262 H   0  0  0  0  0  0  0  0  0  0  0  0
  193.8508  183.9224  160.0745 H   0  0  0  0  0  0  0  0  0  0  0  0
  201.4778  182.6792  154.7890 H   0  0  0  0  0  0  0  0  0  0  0  0
  1  2  1  0
  2  3  1  0
  2 33  1  1
  2 34  1  0
  3  4  1  0
  3 32  1  0
  3 35  1  6
  4  5  1  0
  4 36  1  0
  5  6  2  0
  5 10  1  0
  6  7  1  0
  6 37  1  0
  7  8  2  0
  7 11  1  0
  8  9  1  0
  8 38  1  0
  9 10  2  0
  9 39  1  0
 10 40  1  0
 11 12  1  0
 11 41  1  6
 11 42  1  0
 12 13  2  0
 12 14  1  0
 14 15  1  0
 14 43  1  0
 15 16  1  0
 15 44  1  6
 15 45  1  0
 16 17  2  0
 16 20  1  0
 17 18  1  0
 17 60  1  0
 18 19  1  0
 18 31  2  0
 19 20  1  0
 19 28  2  0
 20 21  1  0
 21 22  1  0
 21 46  1  1
 21 47  1  0
 22 23  2  0
 22 27  1  0
 23 24  1  0
 23 48  1  0
 24 25  2  0
 24 49  1  0
 25 26  1  0
 25 50  1  0
 26 27  2  0
 26 51  1  0
 27 52  1  0
 28 29  1  0
 28 53  1  0
 29 30  2  0
 29 54  1  0
 30 31  1  0
 30 55  1  0
 31 56  1  0
 32 57  1  6
 32 58  1  0
 32 59  1  0
M  CHG  1  17   1
M  END
>  <s_epik_cmdline>  (590) 
J2VwaWtfcHl0aG9uJywgJy1waCcsICc3LjAwMDAwMCcsICctcGh0JywgJzIuMDAwMDAwJywgJy1tcycsICcxNicsICctdG4nLCAnOCcsICctbWEnLCAnMjAwJywgJy1pbWFlJywgJzxpbmZpbGUubWFlPicsICctb21hZScsICc8b3V0ZmlsZS5tYWU+Jw==

>  <s_epik_input>  (590) 
RltDSDJdW0NAQEhdKFtDSDNdKVtOSF1jMVtjSF1jKFtjSF1bY0hdW2NIXTEpW0NIMl1DKD1PKVtOSF1bQ0gyXWMobjIpbihjKGMyMylbY0hdW2NIXVtjSF1bY0hdMylbQ0gyXWM0W2NIXVtjSF1bY0hdW2NIXVtjSF00

>  <s_i_glide_gridfile>  (590) 
ATP-Grid

>  <s_lp_Force_Field>  (590) 
OPLS_2005

>  <s_lp_Variant>  (590) 
rxn512b____EMOL43295714____EMOL486012____EMOL44693140-3

>  <s_lp_label>  (590) 
2727_sdstereoexpander_1_neutralizer_1_epik_2_stereoizer_1

>  <s_m_source_file>  (590) 
ATP-VSW-LIGPREP-002-in.maegz

>  <s_sd_BIOSOLVEIT.INFINISEE\_QUERY\_NAME>  (590) 
Ref-Lig

>  <s_sd_BIOSOLVEIT.INFINISEE\_QUERY\_SMILES>  (590) 
S(c1nc2c(cc1C[NH2+]Cc3ccc(cc3)C[NH+](C)C)cccc2)Cc4ccccc4

>  <s_sd_BIOSOLVEIT.INFINISEE\_REACTION\_NAME>  (590) 
rxn512b

>  <s_sd_BIOSOLVEIT.INFINISEE\_REAGENT1\_NAME>  (590) 
EMOL43295714

>  <s_sd_BIOSOLVEIT.INFINISEE\_REAGENT1\_SMILES>  (590) 
FCC(N)C

>  <s_sd_BIOSOLVEIT.INFINISEE\_REAGENT2\_NAME>  (590) 
EMOL486012

>  <s_sd_BIOSOLVEIT.INFINISEE\_REAGENT2\_SMILES>  (590) 
Brc1cc(ccc1)CC(=O)O

>  <s_sd_BIOSOLVEIT.INFINISEE\_REAGENT3\_NAME>  (590) 
EMOL44693140

>  <s_sd_BIOSOLVEIT.INFINISEE\_REAGENT3\_SMILES>  (590) 
N=1c2c(N(C1CN)Cc3ccccc3)cccc2

>  <s_sd_BIOSOLVEIT.INFINISEE\_SPACE>  (590) 
eXplore_7tr_2022-12

>  <s_vsw_compound_code>  (590) 
87234

>  <s_vsw_variant>  (590) 
87234-3

>  <r_epik_Charging_Adjusted_Penalty>  (590) 
2.8374568849303201

>  <r_epik_Ionization_Penalty>  (590) 
1.4196

>  <r_epik_Ionization_Penalty_Charging>  (590) 
1.4187000000000001

>  <r_epik_Ionization_Penalty_Neutral>  (590) 
0.00080000000000000004

>  <r_epik_State_Penalty>  (590) 
1.4187000000000001

>  <r_i_docking_score>  (590) 
-2.2432543290498099

>  <r_i_glide_ecoul>  (590) 
-9.2191343307495099

>  <r_i_glide_eff_state_penalty>  (590) 
1.4187000000000001

>  <r_i_glide_einternal>  (590) 
4.1051077842712402

>  <r_i_glide_emodel>  (590) 
-51.341965394942299

>  <r_i_glide_energy>  (590) 
-39.693169593811

>  <r_i_glide_erotb>  (590) 
0.96134376100339103

>  <r_i_glide_esite>  (590) 
-0.112226196084242

>  <r_i_glide_evdw>  (590) 
-30.474035263061499

>  <r_i_glide_gscore>  (590) 
-3.6619543290498102

>  <r_i_glide_hbond>  (590) 
-0.051921088667530001

>  <r_i_glide_ligand_efficiency>  (590) 
-0.070101697782806505

>  <r_i_glide_ligand_efficiency_ln>  (590) 
-0.50232579307778402

>  <r_i_glide_ligand_efficiency_sa>  (590) 
-0.222559017353257

>  <r_i_glide_lipo>  (590) 
-1.0810663593549299

>  <r_i_glide_metal>  (590) 
-0

>  <r_i_glide_rewards>  (590) 
-0.47151253318099001

>  <r_lp_Energy>  (590) 
13.756524000000001

>  <r_qp_ACxDN^.5/SA>  (590) 
0.0119156

>  <r_qp_CIQPlogS>  (590) 
-6.5049999999999999

>  <r_qp_EA(eV)>  (590) 
0.45900000000000002

>  <r_qp_FISA>  (590) 
59.145000000000003

>  <r_qp_FOSA>  (590) 
190.964

>  <r_qp_IP(eV)>  (590) 
8.1890000000000001

>  <r_qp_Jm>  (590) 
45.783861165545702

>  <r_qp_PISA>  (590) 
326.70999999999998

>  <r_qp_PSA>  (590) 
60.034999999999997

>  <r_qp_PercentHumanOralAbsorption>  (590) 
100

>  <r_qp_QPPCaco>  (590) 
1827.7080000000001

>  <r_qp_QPPMDCK>  (590) 
1801.117

>  <r_qp_QPlogBB>  (590) 
-0.33500000000000002

>  <r_qp_QPlogHERG>  (590) 
-2.8740000000000001

>  <r_qp_QPlogKhsa>  (590) 
0.29599999999999999

>  <r_qp_QPlogKp>  (590) 
-0.69099999999999995

>  <r_qp_QPlogPC16>  (590) 
12.766999999999999

>  <r_qp_QPlogPo/w>  (590) 
4.133

>  <r_qp_QPlogPoct>  (590) 
19.306999999999999

>  <r_qp_QPlogPw>  (590) 
11.477

>  <r_qp_QPlogS>  (590) 
-3.2829999999999999

>  <r_qp_QPpolrz>  (590) 
40.494

>  <r_qp_SASA>  (590) 
593.428

>  <r_qp_SAamideO>  (590) 
21.748000000000001

>  <r_qp_SAfluorine>  (590) 
16.609000000000002

>  <r_qp_WPSA>  (590) 
16.609000000000002

>  <r_qp_accptHB>  (590) 
5

>  <r_qp_dip^2/V>  (590) 
0.015983500000000001

>  <r_qp_dipole>  (590) 
4.4089999999999998

>  <r_qp_donorHB>  (590) 
2

>  <r_qp_glob>  (590) 
0.92843850000000006

>  <r_qp_mol_MW>  (590) 
430.524

>  <r_qp_volume>  (590) 
1216.001

>  <r_sd_BIOSOLVEIT.INFINISEE\_FTREES\_SIMILARITY>  (590) 
0.90800000000000003

>  <r_sd_BIOSOLVEIT.LOGP>  (590) 
4.7134

>  <r_sd_BIOSOLVEIT.MOLECULAR\_WEIGHT>  (590) 
430.524

>  <r_sd_BIOSOLVEIT.TPSA>  (590) 
58.950000000000003

>  <i_epik_Tot_Q>  (590) 
1

>  <i_epik_Tot_abs_Q>  (590) 
1

>  <i_f3d_flags>  (590) 
0

>  <i_i_glide_confnum>  (590) 
9

>  <i_i_glide_lignum>  (590) 
1312

>  <i_i_glide_posenum>  (590) 
9

>  <i_i_glide_rotatable_bonds>  (590) 
10

>  <i_lp_mmshare_version>  (590) 
65135

>  <i_m_ct_format>  (590) 
2

>  <i_m_source_file_index>  (590) 
2727

>  <i_qp_#NandO>  (590) 
5

>  <i_qp_#acid>  (590) 
0

>  <i_qp_#amide>  (590) 
1

>  <i_qp_#amidine>  (590) 
0

>  <i_qp_#amine>  (590) 
0

>  <i_qp_#in34>  (590) 
0

>  <i_qp_#in56>  (590) 
21

>  <i_qp_#metab>  (590) 
6

>  <i_qp_#nonHatm>  (590) 
32

>  <i_qp_#noncon>  (590) 
0

>  <i_qp_#ringatoms>  (590) 
21

>  <i_qp_#rotor>  (590) 
8

>  <i_qp_#rtvFG>  (590) 
0

>  <i_qp_#stars>  (590) 
0

>  <i_qp_CNS>  (590) 
0

>  <i_qp_HumanOralAbsorption>  (590) 
3

>  <i_qp_RuleOfFive>  (590) 
0

>  <i_qp_RuleOfThree>  (590) 
0

>  <i_sd_BIOSOLVEIT.INFINISEE\_RESULT\_RANK>  (590) 
55763

>  <i_sd_version>  (590) 
0

>  <b_lp_Chiralities_Consistent>  (590) 
1

>  <b_sd_chiral_flag>  (590) 
0

>  <canonical_id>  (590) 
ATP-HTVS-5BC6D09DB3F1

>  <compound_code>  (590) 
87234

>  <title>  (590) 
rxn512b____EMOL43295714____EMOL486012____EMOL44693140

>  <variant>  (590) 
87234-3

>  <source_file>  (590) 
运行/运行/ATP-VSW/ATP-VSW-DOCK_HTVS_1-002_lib.maegz

>  <canonical_smiles>  (590) 
C[C@H](CF)Nc1cccc(CC(=O)NCc2[nH+]c3ccccc3n2Cc2ccccc2)c1

>  <scaffold>  (590) 
O=C(Cc1ccccc1)NCc1[nH+]c2ccccc2n1Cc1ccccc1

>  <molecular_formula>  (590) 
C26H28FN4O+

$$$$
ATP-HTVS-5BCFBB048AA1
     RDKit          3D

 62 65  0  0  0  0  0  0  0  0999 V2000
  200.7679  174.4130  148.5647 F   0  0  0  0  0  0  0  0  0  0  0  0
  199.9396  175.1490  147.8219 C   0  0  1  0  0  0  0  0  0  0  0  0
  199.0082  174.3384  147.3232 F   0  0  0  0  0  0  0  0  0  0  0  0
  199.2534  176.2288  148.6547 C   0  0  0  0  0  0  0  0  0  0  0  0
  199.4023  176.2597  150.0570 C   0  0  0  0  0  0  0  0  0  0  0  0
  198.7344  177.2352  150.8239 C   0  0  0  0  0  0  0  0  0  0  0  0
  197.9561  178.2425  150.2028 C   0  0  0  0  0  0  0  0  0  0  0  0
  197.7888  178.1977  148.7967 C   0  0  0  0  0  0  0  0  0  0  0  0
  198.4244  177.1904  148.0354 C   0  0  0  0  0  0  0  0  0  0  0  0
  197.2939  179.3226  151.0225 C   0  0  0  0  0  0  0  0  0  0  0  0
  196.3148  179.9331  150.5941 O   0  0  0  0  0  0  0  0  0  0  0  0
  197.8549  179.5423  152.2276 N   0  0  0  0  0  0  0  0  0  0  0  0
  197.5385  180.5463  153.1820 C   0  0  0  0  0  0  0  0  0  0  0  0
  197.7801  180.2910  154.5591 C   0  0  0  0  0  0  0  0  0  0  0  0
  198.2794  179.0392  154.9525 N   0  0  0  0  0  0  0  0  0  0  0  0
  199.6521  179.0708  155.4475 C   0  0  1  0  0  0  0  0  0  0  0  0
  200.3465  177.7304  155.4094 C   0  0  0  0  0  0  0  0  0  0  0  0
  200.7700  177.0964  156.5956 C   0  0  0  0  0  0  0  0  0  0  0  0
  201.4579  175.8656  156.5278 C   0  0  0  0  0  0  0  0  0  0  0  0
  201.7068  175.2532  155.2800 C   0  0  0  0  0  0  0  0  0  0  0  0
  202.3820  174.0231  155.2734 N   0  0  0  0  0  0  0  0  0  0  0  0
  202.5793  173.2692  154.0422 C   0  0  1  0  0  0  0  0  0  0  0  0
  201.2598  172.6758  153.5102 C   0  0  1  0  0  0  0  0  0  0  0  0
  201.5432  171.6876  152.5368 O   0  0  0  0  0  0  0  0  0  0  0  0
  201.2865  175.9001  154.0940 C   0  0  0  0  0  0  0  0  0  0  0  0
  200.6173  177.1357  154.1609 C   0  0  0  0  0  0  0  0  0  0  0  0
  197.5078  181.3198  155.5078 C   0  0  0  0  0  0  0  0  0  0  0  0
  197.0491  182.5807  155.0344 C   0  0  0  0  0  0  0  0  0  0  0  0
  196.8396  182.7664  153.7164 N   0  0  0  0  0  0  0  0  0  0  0  0
  197.0592  181.8168  152.7868 C   0  0  0  0  0  0  0  0  0  0  0  0
  196.7900  183.6353  155.9358 C   0  0  0  0  0  0  0  0  0  0  0  0
  196.9531  183.4338  157.3197 C   0  0  0  0  0  0  0  0  0  0  0  0
  197.3987  182.1871  157.7971 C   0  0  0  0  0  0  0  0  0  0  0  0
  197.6658  181.1341  156.9007 C   0  0  0  0  0  0  0  0  0  0  0  0
  200.7727  175.7199  146.6667 C   0  0  2  0  0  0  0  0  0  0  0  0
  200.0193  175.5330  150.5643 H   0  0  0  0  0  0  0  0  0  0  0  0
  198.8483  177.1934  151.8990 H   0  0  0  0  0  0  0  0  0  0  0  0
  197.1804  178.9330  148.2910 H   0  0  0  0  0  0  0  0  0  0  0  0
  198.2718  177.1622  146.9644 H   0  0  0  0  0  0  0  0  0  0  0  0
  198.5661  178.8977  152.5326 H   0  0  0  0  0  0  0  0  0  0  0  0
  197.6856  178.5799  155.6383 H   0  0  0  0  0  0  0  0  0  0  0  0
  200.2553  179.7708  154.8591 H   0  0  0  0  0  0  0  0  0  0  0  0
  199.6770  179.4059  156.4825 H   0  0  0  0  0  0  0  0  0  0  0  0
  200.5932  177.5643  157.5535 H   0  0  0  0  0  0  0  0  0  0  0  0
  201.7998  175.3931  157.4406 H   0  0  0  0  0  0  0  0  0  0  0  0
  202.5095  173.5288  156.1474 H   0  0  0  0  0  0  0  0  0  0  0  0
  203.0637  173.8880  153.2878 H   0  0  0  0  0  0  0  0  0  0  0  0
  203.2837  172.4713  154.2767 H   0  0  0  0  0  0  0  0  0  0  0  0
  200.6978  172.2359  154.3282 H   0  0  0  0  0  0  0  0  0  0  0  0
  200.6052  173.4209  153.0564 H   0  0  0  0  0  0  0  0  0  0  0  0
  202.1404  171.0590  152.9387 H   0  0  0  0  0  0  0  0  0  0  0  0
  201.4752  175.4823  153.1175 H   0  0  0  0  0  0  0  0  0  0  0  0
  200.3284  177.6460  153.2528 H   0  0  0  0  0  0  0  0  0  0  0  0
  196.8795  182.1092  151.7593 H   0  0  0  0  0  0  0  0  0  0  0  0
  196.4300  184.5855  155.5699 H   0  0  0  0  0  0  0  0  0  0  0  0
  196.7116  184.2191  158.0218 H   0  0  0  0  0  0  0  0  0  0  0  0
  197.4911  182.0144  158.8597 H   0  0  0  0  0  0  0  0  0  0  0  0
  197.9234  180.1668  157.3242 H   0  0  0  0  0  0  0  0  0  0  0  0
  201.2518  174.9151  146.1045 H   0  0  0  0  0  0  0  0  0  0  0  0
  201.5569  176.3771  147.0478 H   0  0  0  0  0  0  0  0  0  0  0  0
  200.1594  176.2888  145.9660 H   0  0  0  0  0  0  0  0  0  0  0  0
  196.4692  183.6682  153.4097 H   0  0  0  0  0  0  0  0  0  0  0  0
  2  1  1  1
  2  3  1  0
  2  4  1  0
  2 35  1  0
  4  5  1  0
  4  9  2  0
  5  6  2  0
  5 36  1  0
  6  7  1  0
  6 37  1  0
  7  8  2  0
  7 10  1  0
  8  9  1  0
  8 38  1  0
  9 39  1  0
 10 11  2  0
 10 12  1  0
 12 13  1  0
 12 40  1  0
 13 14  2  0
 13 30  1  0
 14 15  1  0
 14 27  1  0
 15 16  1  0
 15 41  1  0
 16 17  1  0
 16 42  1  6
 16 43  1  0
 17 18  1  0
 17 26  2  0
 18 19  2  0
 18 44  1  0
 19 20  1  0
 19 45  1  0
 20 21  1  0
 20 25  2  0
 21 22  1  0
 21 46  1  0
 22 23  1  0
 22 47  1  6
 22 48  1  0
 23 24  1  0
 23 49  1  1
 23 50  1  0
 24 51  1  0
 25 26  1  0
 25 52  1  0
 26 53  1  0
 27 28  1  0
 27 34  2  0
 28 29  1  0
 28 31  2  0
 29 30  2  0
 29 62  1  0
 30 54  1  0
 31 32  1  0
 31 55  1  0
 32 33  2  0
 32 56  1  0
 33 34  1  0
 33 57  1  0
 34 58  1  0
 35 59  1  6
 35 60  1  0
 35 61  1  0
M  CHG  1  29   1
M  END
>  <s_epik_cmdline>  (591) 
J2VwaWtfcHl0aG9uJywgJy1waCcsICc3LjAwMDAwMCcsICctcGh0JywgJzIuMDAwMDAwJywgJy1tcycsICcxNicsICctdG4nLCAnOCcsICctbWEnLCAnMjAwJywgJy1pbWFlJywgJzxpbmZpbGUubWFlPicsICctb21hZScsICc8b3V0ZmlsZS5tYWU+Jw==

>  <s_epik_input>  (591) 
RkMoRikoW0NIM10pYzFbY0hdW2NIXWMoW2NIXVtjSF0xKUMoPU8pW05IXWMoW2NIXW5jKGMyMylbY0hdW2NIXVtjSF1bY0hdMyljMltOSF1bQ0gyXWM0W2NIXVtjSF1jKFtjSF1bY0hdNClbTkhdW0NIMl1bQ0gyXVtPSF0=

>  <s_i_glide_gridfile>  (591) 
ATP-Grid

>  <s_lp_Force_Field>  (591) 
OPLS_2005

>  <s_lp_Variant>  (591) 
rxn502b____EMOL48572200____EMOL30488121____EMOL324170366-1

>  <s_lp_label>  (591) 
2495_sdstereoexpander_1_neutralizer_1_epik_1_stereoizer_1

>  <s_m_source_file>  (591) 
ATP-VSW-LIGPREP-001-in.maegz

>  <s_sd_BIOSOLVEIT.INFINISEE\_QUERY\_NAME>  (591) 
Ref-Lig

>  <s_sd_BIOSOLVEIT.INFINISEE\_QUERY\_SMILES>  (591) 
S(c1nc2c(cc1C[NH2+]Cc3ccc(cc3)C[NH+](C)C)cccc2)Cc4ccccc4

>  <s_sd_BIOSOLVEIT.INFINISEE\_REACTION\_NAME>  (591) 
rxn502b

>  <s_sd_BIOSOLVEIT.INFINISEE\_REAGENT1\_NAME>  (591) 
EMOL48572200

>  <s_sd_BIOSOLVEIT.INFINISEE\_REAGENT1\_SMILES>  (591) 
FC(F)(c1ccc(cc1)C(=O)O)C

>  <s_sd_BIOSOLVEIT.INFINISEE\_REAGENT2\_NAME>  (591) 
EMOL30488121

>  <s_sd_BIOSOLVEIT.INFINISEE\_REAGENT2\_SMILES>  (591) 
Brc1c(N)cnc2c1cccc2

>  <s_sd_BIOSOLVEIT.INFINISEE\_REAGENT3\_NAME>  (591) 
EMOL324170366

>  <s_sd_BIOSOLVEIT.INFINISEE\_REAGENT3\_SMILES>  (591) 
OCCNc1ccc(cc1)CN

>  <s_sd_BIOSOLVEIT.INFINISEE\_SPACE>  (591) 
eXplore_7tr_2022-12

>  <s_vsw_compound_code>  (591) 
79809

>  <s_vsw_variant>  (591) 
79809-1

>  <r_epik_Charging_Adjusted_Penalty>  (591) 
0.17387378976877799

>  <r_epik_Ionization_Penalty>  (591) 
0.092899999999999996

>  <r_epik_Ionization_Penalty_Charging>  (591) 
0.081100000000000005

>  <r_epik_Ionization_Penalty_Neutral>  (591) 
0.0118

>  <r_epik_State_Penalty>  (591) 
0.092799999999999994

>  <r_i_docking_score>  (591) 
-4.4441717232818396

>  <r_i_glide_ecoul>  (591) 
-8.5396318435668892

>  <r_i_glide_eff_state_penalty>  (591) 
0.092799999999999994

>  <r_i_glide_einternal>  (591) 
6.4011297225952104

>  <r_i_glide_emodel>  (591) 
-60.583006664017702

>  <r_i_glide_energy>  (591) 
-45.720871925353997

>  <r_i_glide_erotb>  (591) 
0.79954065569187904

>  <r_i_glide_esite>  (591) 
-0.135418049562153

>  <r_i_glide_evdw>  (591) 
-37.181240081787102

>  <r_i_glide_gscore>  (591) 
-4.5369717232818401

>  <r_i_glide_hbond>  (591) 
-0.16

>  <r_i_glide_ligand_efficiency>  (591) 
-0.12697633495091001

>  <r_i_glide_ligand_efficiency_ln>  (591) 
-0.97559432633755305

>  <r_i_glide_ligand_efficiency_sa>  (591) 
-0.41534801095690699

>  <r_i_glide_lipo>  (591) 
-1.3101831731006199

>  <r_i_glide_metal>  (591) 
-0

>  <r_i_glide_rewards>  (591) 
-0.59090437568655996

>  <r_lp_Energy>  (591) 
41.647418000000002

>  <r_qp_ACxDN^.5/SA>  (591) 
0.017879599999999999

>  <r_qp_CIQPlogS>  (591) 
-7.0890000000000004

>  <r_qp_EA(eV)>  (591) 
1.0429999999999999

>  <r_qp_FISA>  (591) 
140.91999999999999

>  <r_qp_FOSA>  (591) 
193.548

>  <r_qp_IP(eV)>  (591) 
8.2940000000000005

>  <r_qp_Jm>  (591) 
0.00246601030153481

>  <r_qp_PISA>  (591) 
404.15199999999999

>  <r_qp_PSA>  (591) 
91.391999999999996

>  <r_qp_PercentHumanOralAbsorption>  (591) 
100

>  <r_qp_QPPCaco>  (591) 
456.61700000000002

>  <r_qp_QPPMDCK>  (591) 
492.166

>  <r_qp_QPlogBB>  (591) 
-1.4339999999999999

>  <r_qp_QPlogHERG>  (591) 
-7.0780000000000003

>  <r_qp_QPlogKhsa>  (591) 
0.57199999999999995

>  <r_qp_QPlogKp>  (591) 
-1.7330000000000001

>  <r_qp_QPlogPC16>  (591) 
16.350999999999999

>  <r_qp_QPlogPo/w>  (591) 
4.726

>  <r_qp_QPlogPoct>  (591) 
27.946999999999999

>  <r_qp_QPlogPw>  (591) 
16.132999999999999

>  <r_qp_QPlogS>  (591) 
-6.5529999999999999

>  <r_qp_QPpolrz>  (591) 
50.122

>  <r_qp_SASA>  (591) 
805.38699999999994

>  <r_qp_SAamideO>  (591) 
0

>  <r_qp_SAfluorine>  (591) 
66.766000000000005

>  <r_qp_WPSA>  (591) 
66.766000000000005

>  <r_qp_accptHB>  (591) 
7.2000000000000002

>  <r_qp_dip^2/V>  (591) 
0.086207099999999995

>  <r_qp_dipole>  (591) 
11.257999999999999

>  <r_qp_donorHB>  (591) 
4

>  <r_qp_glob>  (591) 
0.77638640000000003

>  <r_qp_mol_MW>  (591) 
476.52499999999998

>  <r_qp_volume>  (591) 
1470.1980000000001

>  <r_sd_BIOSOLVEIT.INFINISEE\_FTREES\_SIMILARITY>  (591) 
0.91400000000000003

>  <r_sd_BIOSOLVEIT.LOGP>  (591) 
5.6151

>  <r_sd_BIOSOLVEIT.MOLECULAR\_WEIGHT>  (591) 
476.524

>  <r_sd_BIOSOLVEIT.TPSA>  (591) 
86.280000000000001

>  <i_epik_Tot_Q>  (591) 
1

>  <i_epik_Tot_abs_Q>  (591) 
1

>  <i_f3d_flags>  (591) 
0

>  <i_i_glide_confnum>  (591) 
8

>  <i_i_glide_lignum>  (591) 
984

>  <i_i_glide_posenum>  (591) 
11

>  <i_i_glide_rotatable_bonds>  (591) 
11

>  <i_lp_mmshare_version>  (591) 
65135

>  <i_m_ct_format>  (591) 
2

>  <i_m_source_file_index>  (591) 
2495

>  <i_qp_#NandO>  (591) 
6

>  <i_qp_#acid>  (591) 
0

>  <i_qp_#amide>  (591) 
0

>  <i_qp_#amidine>  (591) 
0

>  <i_qp_#amine>  (591) 
0

>  <i_qp_#in34>  (591) 
0

>  <i_qp_#in56>  (591) 
22

>  <i_qp_#metab>  (591) 
7

>  <i_qp_#nonHatm>  (591) 
35

>  <i_qp_#noncon>  (591) 
0

>  <i_qp_#ringatoms>  (591) 
22

>  <i_qp_#rotor>  (591) 
10

>  <i_qp_#rtvFG>  (591) 
0

>  <i_qp_#stars>  (591) 
1

>  <i_qp_CNS>  (591) 
-2

>  <i_qp_HumanOralAbsorption>  (591) 
1

>  <i_qp_RuleOfFive>  (591) 
0

>  <i_qp_RuleOfThree>  (591) 
2

>  <i_sd_BIOSOLVEIT.INFINISEE\_RESULT\_RANK>  (591) 
30080

>  <i_sd_version>  (591) 
0

>  <b_lp_Chiralities_Consistent>  (591) 
1

>  <b_sd_chiral_flag>  (591) 
0

>  <canonical_id>  (591) 
ATP-HTVS-5BCFBB048AA1

>  <compound_code>  (591) 
79809

>  <title>  (591) 
rxn502b____EMOL48572200____EMOL30488121____EMOL324170366

>  <variant>  (591) 
79809-1

>  <source_file>  (591) 
运行/运行/ATP-VSW/ATP-VSW-DOCK_HTVS_1-001_lib/ATP-VSW-DOCK_HTVS_1-001_lib

>  <canonical_smiles>  (591) 
CC(F)(F)c1ccc(C(=O)Nc2c[nH+]c3ccccc3c2NCc2ccc(NCCO)cc2)cc1

>  <scaffold>  (591) 
O=C(Nc1c[nH+]c2ccccc2c1NCc1ccccc1)c1ccccc1

>  <molecular_formula>  (591) 
C27H27F2N4O2+

$$$$
ATP-HTVS-5BE3914F361A
     RDKit          3D

 57 60  0  0  0  0  0  0  0  0999 V2000
  200.8340  179.2005  145.0086 O   0  0  0  0  0  0  0  0  0  0  0  0
  199.7003  178.7695  145.2486 N   0  0  0  0  0  0  0  0  0  0  0  0
  198.6730  179.2149  144.7536 O   0  0  0  0  0  0  0  0  0  0  0  0
  199.5903  177.6548  146.2308 C   0  0  0  0  0  0  0  0  0  0  0  0
  198.4085  177.3147  146.9708 C   0  0  0  0  0  0  0  0  0  0  0  0
  198.4539  176.2188  147.8822 C   0  0  0  0  0  0  0  0  0  0  0  0
  199.6273  175.4785  148.1099 C   0  0  0  0  0  0  0  0  0  0  0  0
  200.7871  175.8154  147.3970 C   0  0  0  0  0  0  0  0  0  0  0  0
  200.7594  176.8824  146.4762 C   0  0  0  0  0  0  0  0  0  0  0  0
  197.0703  178.0875  146.8525 C   0  0  1  0  0  0  0  0  0  0  0  0
  196.5711  178.6536  148.1941 C   0  0  0  0  0  0  0  0  0  0  0  0
  195.4145  179.0702  148.2578 O   0  0  0  0  0  0  0  0  0  0  0  0
  197.4670  178.6930  149.1971 N   0  0  0  0  0  0  0  0  0  0  0  0
  197.3562  179.2490  150.4873 C   0  0  0  0  0  0  0  0  0  0  0  0
  196.3819  180.1423  150.7807 N   0  0  0  0  0  0  0  0  0  0  0  0
  196.3367  180.6806  152.0039 C   0  0  0  0  0  0  0  0  0  0  0  0
  197.2436  180.3515  153.0167 C   0  0  0  0  0  0  0  0  0  0  0  0
  197.0700  180.9951  154.3000 C   0  0  0  0  0  0  0  0  0  0  0  0
  196.9156  181.5624  155.3631 C   0  0  0  0  0  0  0  0  0  0  0  0
  196.8226  182.2456  156.6546 C   0  0  1  0  0  0  0  0  0  0  0  0
  195.5543  181.8295  157.2675 N   0  0  1  0  0  0  0  0  0  0  0  0
  195.4752  182.0392  158.7335 C   0  0  1  0  0  0  0  0  0  0  0  0
  195.8286  183.4567  159.1552 C   0  0  0  0  0  0  0  0  0  0  0  0
  197.1816  183.8633  159.2314 C   0  0  0  0  0  0  0  0  0  0  0  0
  197.5151  185.1967  159.5207 C   0  0  0  0  0  0  0  0  0  0  0  0
  196.4965  186.1228  159.8101 C   0  0  0  0  0  0  0  0  0  0  0  0
  195.1480  185.7129  159.7833 C   0  0  0  0  0  0  0  0  0  0  0  0
  194.8095  184.3878  159.4419 C   0  0  0  0  0  0  0  0  0  0  0  0
  198.2735  179.4206  152.7499 C   0  0  0  0  0  0  0  0  0  0  0  0
  198.3340  178.8542  151.4496 C   0  0  0  0  0  0  0  0  0  0  0  0
  199.3571  177.9153  151.1548 C   0  0  0  0  0  0  0  0  0  0  0  0
  200.2976  177.5425  152.1318 C   0  0  0  0  0  0  0  0  0  0  0  0
  200.2336  178.1044  153.4168 C   0  0  0  0  0  0  0  0  0  0  0  0
  199.2286  179.0378  153.7245 C   0  0  0  0  0  0  0  0  0  0  0  0
  194.7950  182.3106  156.7745 H   0  0  0  0  0  0  0  0  0  0  0  0
  197.5889  175.9449  148.4655 H   0  0  0  0  0  0  0  0  0  0  0  0
  199.6470  174.6638  148.8366 H   0  0  0  0  0  0  0  0  0  0  0  0
  201.6928  175.2460  147.5421 H   0  0  0  0  0  0  0  0  0  0  0  0
  201.6655  177.0984  145.9436 H   0  0  0  0  0  0  0  0  0  0  0  0
  197.1360  178.9735  146.2305 H   0  0  0  0  0  0  0  0  0  0  0  0
  196.3006  177.4371  146.4282 H   0  0  0  0  0  0  0  0  0  0  0  0
  198.3330  178.2303  149.0089 H   0  0  0  0  0  0  0  0  0  0  0  0
  195.5475  181.3969  152.1577 H   0  0  0  0  0  0  0  0  0  0  0  0
  197.6810  181.9064  157.2298 H   0  0  0  0  0  0  0  0  0  0  0  0
  196.8651  183.3218  156.4933 H   0  0  0  0  0  0  0  0  0  0  0  0
  194.4670  181.7836  159.0634 H   0  0  0  0  0  0  0  0  0  0  0  0
  196.1435  181.3344  159.2297 H   0  0  0  0  0  0  0  0  0  0  0  0
  197.9862  183.1793  159.0194 H   0  0  0  0  0  0  0  0  0  0  0  0
  198.5552  185.4971  159.5173 H   0  0  0  0  0  0  0  0  0  0  0  0
  196.7594  187.1384  160.0612 H   0  0  0  0  0  0  0  0  0  0  0  0
  194.3677  186.4221  160.0103 H   0  0  0  0  0  0  0  0  0  0  0  0
  193.7678  184.0975  159.3897 H   0  0  0  0  0  0  0  0  0  0  0  0
  199.4544  177.4528  150.1842 H   0  0  0  0  0  0  0  0  0  0  0  0
  201.0691  176.8235  151.8942 H   0  0  0  0  0  0  0  0  0  0  0  0
  200.9545  177.8166  154.1688 H   0  0  0  0  0  0  0  0  0  0  0  0
  199.1982  179.4469  154.7218 H   0  0  0  0  0  0  0  0  0  0  0  0
  195.4441  180.8274  157.1395 H   0  0  0  0  0  0  0  0  0  0  0  0
  1  2  1  0
  2  3  2  0
  2  4  1  0
  4  5  1  0
  4  9  2  0
  5  6  2  0
  5 10  1  0
  6  7  1  0
  6 36  1  0
  7  8  2  0
  7 37  1  0
  8  9  1  0
  8 38  1  0
  9 39  1  0
 10 11  1  0
 10 40  1  6
 10 41  1  0
 11 12  2  0
 11 13  1  0
 13 14  1  0
 13 42  1  0
 14 15  1  0
 14 30  2  0
 15 16  2  0
 16 17  1  0
 16 43  1  0
 17 18  1  0
 17 29  2  0
 18 19  3  0
 19 20  1  0
 20 21  1  0
 20 44  1  1
 20 45  1  0
 21 22  1  0
 21 35  1  6
 21 57  1  0
 22 23  1  0
 22 46  1  1
 22 47  1  0
 23 24  2  0
 23 28  1  0
 24 25  1  0
 24 48  1  0
 25 26  2  0
 25 49  1  0
 26 27  1  0
 26 50  1  0
 27 28  2  0
 27 51  1  0
 28 52  1  0
 29 30  1  0
 29 34  1  0
 30 31  1  0
 31 32  2  0
 31 53  1  0
 32 33  1  0
 32 54  1  0
 33 34  2  0
 33 55  1  0
 34 56  1  0
M  CHG  3   1  -1   2   1  21   1
M  END
>  <s_epik_cmdline>  (592) 
J2VwaWtfcHl0aG9uJywgJy1waCcsICc3LjAwMDAwMCcsICctcGh0JywgJzIuMDAwMDAwJywgJy1tcycsICcxNicsICctdG4nLCAnOCcsICctbWEnLCAnMjAwJywgJy1pbWFlJywgJzxpbmZpbGUubWFlPicsICctb21hZScsICc8b3V0ZmlsZS5tYWU+Jw==

>  <s_epik_input>  (592) 
W2NIXTFbY0hdW2NIXVtjSF1jKGMxW04rXShbTy1dKT1PKVtDSDJdQyg9TylbTkhdYyhjKGMyMylbY0hdW2NIXVtjSF1bY0hdMyluW2NIXWMyQyNDW0NIMl1bTkhdW0NIMl1jNFtjSF1bY0hdW2NIXVtjSF1bY0hdNA==

>  <s_i_glide_gridfile>  (592) 
ATP-Grid

>  <s_lp_Force_Field>  (592) 
OPLS_2005

>  <s_lp_Variant>  (592) 
rxn503b____EMOL480467____EMOL7515103____EMOL1197208-2

>  <s_lp_label>  (592) 
2850_sdstereoexpander_1_neutralizer_1_epik_2_stereoizer_1

>  <s_m_source_file>  (592) 
ATP-VSW-LIGPREP-003-in.maegz

>  <s_sd_BIOSOLVEIT.INFINISEE\_QUERY\_NAME>  (592) 
Ref-Lig

>  <s_sd_BIOSOLVEIT.INFINISEE\_QUERY\_SMILES>  (592) 
S(c1nc2c(cc1C[NH2+]Cc3ccc(cc3)C[NH+](C)C)cccc2)Cc4ccccc4

>  <s_sd_BIOSOLVEIT.INFINISEE\_REACTION\_NAME>  (592) 
rxn503b

>  <s_sd_BIOSOLVEIT.INFINISEE\_REAGENT1\_NAME>  (592) 
EMOL480467

>  <s_sd_BIOSOLVEIT.INFINISEE\_REAGENT1\_SMILES>  (592) 
[O-][N+](=O)c1c(cccc1)CC(=O)O

>  <s_sd_BIOSOLVEIT.INFINISEE\_REAGENT2\_NAME>  (592) 
EMOL7515103

>  <s_sd_BIOSOLVEIT.INFINISEE\_REAGENT2\_SMILES>  (592) 
Brc1c2c(c(nc1)N)cccc2

>  <s_sd_BIOSOLVEIT.INFINISEE\_REAGENT3\_NAME>  (592) 
EMOL1197208

>  <s_sd_BIOSOLVEIT.INFINISEE\_REAGENT3\_SMILES>  (592) 
N(CC#C)Cc1ccccc1

>  <s_sd_BIOSOLVEIT.INFINISEE\_SPACE>  (592) 
eXplore_7tr_2022-12

>  <s_vsw_compound_code>  (592) 
91171

>  <s_vsw_variant>  (592) 
91171-2

>  <r_epik_Charging_Adjusted_Penalty>  (592) 
1.1372904760564899

>  <r_epik_Ionization_Penalty>  (592) 
0.56910000000000005

>  <r_epik_Ionization_Penalty_Charging>  (592) 
0.56859999999999999

>  <r_epik_Ionization_Penalty_Neutral>  (592) 
0.00050000000000000001

>  <r_epik_State_Penalty>  (592) 
0.56859999999999999

>  <r_i_docking_score>  (592) 
-5.6757904712718901

>  <r_i_glide_ecoul>  (592) 
-11.883868217468301

>  <r_i_glide_eff_state_penalty>  (592) 
0.56859999999999999

>  <r_i_glide_einternal>  (592) 
6.7433166503906197

>  <r_i_glide_emodel>  (592) 
-76.6206406293649

>  <r_i_glide_energy>  (592) 
-50.708792686462402

>  <r_i_glide_erotb>  (592) 
0.78715251568648104

>  <r_i_glide_esite>  (592) 
-0.24524541662459001

>  <r_i_glide_evdw>  (592) 
-38.824924468994098

>  <r_i_glide_gscore>  (592) 
-6.2443904712718901

>  <r_i_glide_hbond>  (592) 
-0.39676194531269099

>  <r_i_glide_ligand_efficiency>  (592) 
-0.16693501386093801

>  <r_i_glide_ligand_efficiency_ln>  (592) 
-1.2539413156342001

>  <r_i_glide_ligand_efficiency_sa>  (592) 
-0.54080464031462405

>  <r_i_glide_lipo>  (592) 
-2.1450926386961799

>  <r_i_glide_metal>  (592) 
-0

>  <r_i_glide_rewards>  (592) 
-0.52061653025497001

>  <r_lp_Energy>  (592) 
27.015757000000001

>  <r_qp_ACxDN^.5/SA>  (592) 
0.010166400000000001

>  <r_qp_CIQPlogS>  (592) 
-6.1779999999999999

>  <r_qp_EA(eV)>  (592) 
1.298

>  <r_qp_FISA>  (592) 
146.47

>  <r_qp_FOSA>  (592) 
118.57299999999999

>  <r_qp_IP(eV)>  (592) 
8.5269999999999992

>  <r_qp_Jm>  (592) 
6.6434830293246098e-05

>  <r_qp_PISA>  (592) 
569.59699999999998

>  <r_qp_PSA>  (592) 
101.041

>  <r_qp_PercentHumanOralAbsorption>  (592) 
91.569000000000003

>  <r_qp_QPPCaco>  (592) 
100.88500000000001

>  <r_qp_QPPMDCK>  (592) 
45.865000000000002

>  <r_qp_QPlogBB>  (592) 
-1.3280000000000001

>  <r_qp_QPlogHERG>  (592) 
-9.0589999999999993

>  <r_qp_QPlogKhsa>  (592) 
0.95699999999999996

>  <r_qp_QPlogKp>  (592) 
-3.411

>  <r_qp_QPlogPC16>  (592) 
17.699999999999999

>  <r_qp_QPlogPo/w>  (592) 
4.9119999999999999

>  <r_qp_QPlogPoct>  (592) 
25.405999999999999

>  <r_qp_QPlogPw>  (592) 
13.452

>  <r_qp_QPlogS>  (592) 
-6.4199999999999999

>  <r_qp_QPpolrz>  (592) 
52.156999999999996

>  <r_qp_SASA>  (592) 
834.63999999999999

>  <r_qp_SAamideO>  (592) 
0

>  <r_qp_SAfluorine>  (592) 
0

>  <r_qp_WPSA>  (592) 
0

>  <r_qp_accptHB>  (592) 
6

>  <r_qp_dip^2/V>  (592) 
0.1198091

>  <r_qp_dipole>  (592) 
13.250999999999999

>  <r_qp_donorHB>  (592) 
2

>  <r_qp_glob>  (592) 
0.7475851

>  <r_qp_mol_MW>  (592) 
450.49599999999998

>  <r_qp_volume>  (592) 
1465.5219999999999

>  <r_sd_BIOSOLVEIT.INFINISEE\_FTREES\_SIMILARITY>  (592) 
0.90500000000000003

>  <r_sd_BIOSOLVEIT.LOGP>  (592) 
3.4392999999999998

>  <r_sd_BIOSOLVEIT.MOLECULAR\_WEIGHT>  (592) 
451.50400000000002

>  <r_sd_BIOSOLVEIT.TPSA>  (592) 
104.42

>  <i_epik_Tot_Q>  (592) 
1

>  <i_epik_Tot_abs_Q>  (592) 
3

>  <i_f3d_flags>  (592) 
0

>  <i_i_glide_confnum>  (592) 
5

>  <i_i_glide_lignum>  (592) 
1380

>  <i_i_glide_posenum>  (592) 
4

>  <i_i_glide_rotatable_bonds>  (592) 
10

>  <i_lp_mmshare_version>  (592) 
65135

>  <i_m_ct_format>  (592) 
2

>  <i_m_source_file_index>  (592) 
2850

>  <i_qp_#NandO>  (592) 
7

>  <i_qp_#acid>  (592) 
0

>  <i_qp_#amide>  (592) 
0

>  <i_qp_#amidine>  (592) 
0

>  <i_qp_#amine>  (592) 
1

>  <i_qp_#in34>  (592) 
0

>  <i_qp_#in56>  (592) 
22

>  <i_qp_#metab>  (592) 
6

>  <i_qp_#nonHatm>  (592) 
34

>  <i_qp_#noncon>  (592) 
0

>  <i_qp_#ringatoms>  (592) 
22

>  <i_qp_#rotor>  (592) 
9

>  <i_qp_#rtvFG>  (592) 
0

>  <i_qp_#stars>  (592) 
3

>  <i_qp_CNS>  (592) 
-2

>  <i_qp_HumanOralAbsorption>  (592) 
1

>  <i_qp_RuleOfFive>  (592) 
0

>  <i_qp_RuleOfThree>  (592) 
1

>  <i_sd_BIOSOLVEIT.INFINISEE\_RESULT\_RANK>  (592) 
68817

>  <i_sd_version>  (592) 
0

>  <b_lp_Chiralities_Consistent>  (592) 
1

>  <b_sd_chiral_flag>  (592) 
0

>  <canonical_id>  (592) 
ATP-HTVS-5BE3914F361A

>  <compound_code>  (592) 
91171

>  <title>  (592) 
rxn503b____EMOL480467____EMOL7515103____EMOL1197208

>  <variant>  (592) 
91171-2

>  <source_file>  (592) 
运行/运行/ATP-VSW/ATP-VSW-DOCK_HTVS_1-003_lib/ATP-VSW-DOCK_HTVS_1-003_lib.mae

>  <canonical_smiles>  (592) 
O=C(Cc1ccccc1[N+](=O)[O-])Nc1ncc(C#CC[NH2+]Cc2ccccc2)c2ccccc12

>  <scaffold>  (592) 
O=C(Cc1ccccc1)Nc1ncc(C#CC[NH2+]Cc2ccccc2)c2ccccc12

>  <molecular_formula>  (592) 
C27H23N4O3+

$$$$
ATP-HTVS-5BF5224E50DC
     RDKit          3D

 54 57  0  0  0  0  0  0  0  0999 V2000
  194.8982  186.9946  161.3863 N   0  0  0  0  0  0  0  0  0  0  0  0
  195.1423  186.1663  160.6180 C   0  0  0  0  0  0  0  0  0  0  0  0
  195.4463  185.1180  159.6538 C   0  0  0  0  0  0  0  0  0  0  0  0
  196.6595  185.1058  158.9218 C   0  0  0  0  0  0  0  0  0  0  0  0
  196.9006  184.0675  157.9994 C   0  0  0  0  0  0  0  0  0  0  0  0
  195.9546  183.0368  157.8109 C   0  0  0  0  0  0  0  0  0  0  0  0
  194.7491  183.0578  158.5382 C   0  0  0  0  0  0  0  0  0  0  0  0
  194.4965  184.0968  159.4508 C   0  0  0  0  0  0  0  0  0  0  0  0
  196.2139  181.9245  156.8106 C   0  0  1  0  0  0  0  0  0  0  0  0
  197.5369  181.1920  157.0783 C   0  0  1  0  0  0  0  0  0  0  0  0
  197.7674  180.1042  156.1133 N   0  0  1  0  0  0  0  0  0  0  0  0
  199.1332  179.5429  156.1708 C   0  0  1  0  0  0  0  0  0  0  0  0
  199.3448  178.8803  154.8306 C   0  0  0  0  0  0  0  0  0  0  0  0
  199.0284  179.4865  153.6786 N   0  0  0  0  0  0  0  0  0  0  0  0
  199.4156  178.5662  152.7168 C   0  0  0  0  0  0  0  0  0  0  0  0
  199.9490  177.3944  153.3239 C   0  0  0  0  0  0  0  0  0  0  0  0
  199.9230  177.6586  154.6995 N   0  0  0  0  0  0  0  0  0  0  0  0
  200.3683  176.7645  155.7633 C   0  0  1  0  0  0  0  0  0  0  0  0
  201.5991  175.9689  155.3681 C   0  0  0  0  0  0  0  0  0  0  0  0
  202.7631  176.6415  154.9413 C   0  0  0  0  0  0  0  0  0  0  0  0
  203.8951  175.9127  154.5355 C   0  0  0  0  0  0  0  0  0  0  0  0
  203.8661  174.5043  154.5491 C   0  0  0  0  0  0  0  0  0  0  0  0
  202.7051  173.8280  154.9668 C   0  0  0  0  0  0  0  0  0  0  0  0
  201.5722  174.5598  155.3732 C   0  0  0  0  0  0  0  0  0  0  0  0
  200.3555  176.2915  152.5441 C   0  0  0  0  0  0  0  0  0  0  0  0
  200.2703  176.3573  151.1455 C   0  0  0  0  0  0  0  0  0  0  0  0
  199.7718  177.5135  150.5212 C   0  0  0  0  0  0  0  0  0  0  0  0
  199.3427  178.6153  151.2977 C   0  0  0  0  0  0  0  0  0  0  0  0
  197.7132  186.1873  159.0989 C   0  0  2  0  0  0  0  0  0  0  0  0
  197.0984  179.3780  156.3466 H   0  0  0  0  0  0  0  0  0  0  0  0
  197.8182  184.0723  157.4281 H   0  0  0  0  0  0  0  0  0  0  0  0
  194.0085  182.2854  158.3835 H   0  0  0  0  0  0  0  0  0  0  0  0
  193.5634  184.1085  159.9939 H   0  0  0  0  0  0  0  0  0  0  0  0
  195.3832  181.2168  156.8271 H   0  0  0  0  0  0  0  0  0  0  0  0
  196.2234  182.3639  155.8114 H   0  0  0  0  0  0  0  0  0  0  0  0
  198.3686  181.8934  157.0239 H   0  0  0  0  0  0  0  0  0  0  0  0
  197.5341  180.7629  158.0822 H   0  0  0  0  0  0  0  0  0  0  0  0
  199.8884  180.3228  156.2789 H   0  0  0  0  0  0  0  0  0  0  0  0
  199.1940  178.8682  157.0240 H   0  0  0  0  0  0  0  0  0  0  0  0
  200.6247  177.3205  156.6662 H   0  0  0  0  0  0  0  0  0  0  0  0
  199.5370  176.1053  156.0044 H   0  0  0  0  0  0  0  0  0  0  0  0
  202.7890  177.7210  154.9373 H   0  0  0  0  0  0  0  0  0  0  0  0
  204.7796  176.4405  154.2055 H   0  0  0  0  0  0  0  0  0  0  0  0
  204.7289  173.9412  154.2251 H   0  0  0  0  0  0  0  0  0  0  0  0
  202.6692  172.7463  154.9381 H   0  0  0  0  0  0  0  0  0  0  0  0
  200.6749  174.0360  155.6689 H   0  0  0  0  0  0  0  0  0  0  0  0
  200.7327  175.3883  152.9955 H   0  0  0  0  0  0  0  0  0  0  0  0
  200.5986  175.5111  150.5587 H   0  0  0  0  0  0  0  0  0  0  0  0
  199.7184  177.5464  149.4411 H   0  0  0  0  0  0  0  0  0  0  0  0
  198.9542  179.4937  150.8070 H   0  0  0  0  0  0  0  0  0  0  0  0
  198.5795  186.0101  158.4619 H   0  0  0  0  0  0  0  0  0  0  0  0
  198.0625  186.2102  160.1344 H   0  0  0  0  0  0  0  0  0  0  0  0
  197.3051  187.1667  158.8490 H   0  0  0  0  0  0  0  0  0  0  0  0
  197.6059  180.4192  155.1652 H   0  0  0  0  0  0  0  0  0  0  0  0
  1  2  3  0
  2  3  1  0
  3  4  2  0
  3  8  1  0
  4  5  1  0
  4 29  1  0
  5  6  2  0
  5 31  1  0
  6  7  1  0
  6  9  1  0
  7  8  2  0
  7 32  1  0
  8 33  1  0
  9 10  1  0
  9 34  1  6
  9 35  1  0
 10 11  1  0
 10 36  1  1
 10 37  1  0
 11 12  1  0
 11 30  1  1
 11 54  1  0
 12 13  1  0
 12 38  1  1
 12 39  1  0
 13 14  2  0
 13 17  1  0
 14 15  1  0
 15 16  1  0
 15 28  2  0
 16 17  1  0
 16 25  2  0
 17 18  1  0
 18 19  1  0
 18 40  1  1
 18 41  1  0
 19 20  2  0
 19 24  1  0
 20 21  1  0
 20 42  1  0
 21 22  2  0
 21 43  1  0
 22 23  1  0
 22 44  1  0
 23 24  2  0
 23 45  1  0
 24 46  1  0
 25 26  1  0
 25 47  1  0
 26 27  2  0
 26 48  1  0
 27 28  1  0
 27 49  1  0
 28 50  1  0
 29 51  1  6
 29 52  1  0
 29 53  1  0
M  CHG  1  11   1
M  END
>  <s_epik_cmdline>  (593) 
J2VwaWtfcHl0aG9uJywgJy1waCcsICc3LjAwMDAwMCcsICctcGh0JywgJzIuMDAwMDAwJywgJy1tcycsICcxNicsICctdG4nLCAnOCcsICctbWEnLCAnMjAwJywgJy1pbWFlJywgJzxpbmZpbGUubWFlPicsICctb21hZScsICc8b3V0ZmlsZS5tYWU+Jw==

>  <s_epik_input>  (593) 
TiNDYzFjKFtDSDNdKVtjSF1jKFtjSF1bY0hdMSlbQ0gyXVtDSDJdW05IXVtDSDJdYyhuMiluKGMoYzIzKVtjSF1bY0hdW2NIXVtjSF0zKVtDSDJdYzRbY0hdW2NIXVtjSF1bY0hdW2NIXTQ=

>  <s_i_glide_gridfile>  (593) 
ATP-Grid

>  <s_lp_Force_Field>  (593) 
OPLS_2005

>  <s_lp_Variant>  (593) 
m_270004bbb____15772974____24720860-1

>  <s_lp_label>  (593) 
1649_sdstereoexpander_1_neutralizer_1_epik_1_stereoizer_1

>  <s_m_source_file>  (593) 
ATP-VSW-LIGPREP-003-in.maegz

>  <s_sd_BIOSOLVEIT.INFINISEE\_QUERY\_NAME>  (593) 
Ref-Lig

>  <s_sd_BIOSOLVEIT.INFINISEE\_QUERY\_SMILES>  (593) 
S(c1nc2c(cc1C[NH2+]Cc3ccc(cc3)C[NH+](C)C)cccc2)Cc4ccccc4

>  <s_sd_BIOSOLVEIT.INFINISEE\_REACTION\_NAME>  (593) 
m_270004bbb

>  <s_sd_BIOSOLVEIT.INFINISEE\_REAGENT1\_SMILES>  (593) 
[R1*]NCCc1cc(c(C#N)cc1)C

>  <s_sd_BIOSOLVEIT.INFINISEE\_REAGENT2\_SMILES>  (593) 
[R1*]CC1=Nc2c(N1Cc3ccccc3)cccc2

>  <s_sd_BIOSOLVEIT.INFINISEE\_SPACE>  (593) 
REALSpace_44bn_2023-08

>  <s_vsw_compound_code>  (593) 
52739

>  <s_vsw_variant>  (593) 
52739-1

>  <r_epik_Charging_Adjusted_Penalty>  (593) 
0.18302087001245401

>  <r_epik_Ionization_Penalty>  (593) 
0.0843

>  <r_epik_Ionization_Penalty_Charging>  (593) 
0.083500000000000005

>  <r_epik_Ionization_Penalty_Neutral>  (593) 
0.00080000000000000004

>  <r_epik_State_Penalty>  (593) 
0.099500000000000005

>  <r_i_docking_score>  (593) 
-5.1916615552270899

>  <r_i_glide_ecoul>  (593) 
-9.1323585510253906

>  <r_i_glide_eff_state_penalty>  (593) 
0.099500000000000005

>  <r_i_glide_einternal>  (593) 
4.5572314262390101

>  <r_i_glide_emodel>  (593) 
-62.767649319877698

>  <r_i_glide_energy>  (593) 
-44.145095825195298

>  <r_i_glide_erotb>  (593) 
0.93365834068157305

>  <r_i_glide_esite>  (593) 
-0.137875908255605

>  <r_i_glide_evdw>  (593) 
-35.012737274169901

>  <r_i_glide_gscore>  (593) 
-5.2911615552270899

>  <r_i_glide_hbond>  (593) 
-0.15285770753257399

>  <r_i_glide_ligand_efficiency>  (593) 
-0.17902281224920999

>  <r_i_glide_ligand_efficiency_ln>  (593) 
-1.1887588469689701

>  <r_i_glide_ligand_efficiency_sa>  (593) 
-0.55001479763749195

>  <r_i_glide_lipo>  (593) 
-1.3894570996001001

>  <r_i_glide_metal>  (593) 
-0

>  <r_i_glide_rewards>  (593) 
-1.4241385341580799

>  <r_lp_Energy>  (593) 
20.676825999999998

>  <r_qp_ACxDN^.5/SA>  (593) 
0.0060371000000000001

>  <r_qp_CIQPlogS>  (593) 
-6.3609999999999998

>  <r_qp_EA(eV)>  (593) 
0.55000000000000004

>  <r_qp_FISA>  (593) 
95.245000000000005

>  <r_qp_FOSA>  (593) 
199.83799999999999

>  <r_qp_IP(eV)>  (593) 
8.6590000000000007

>  <r_qp_Jm>  (593) 
8.5348930775918305e-05

>  <r_qp_PISA>  (593) 
450.30500000000001

>  <r_qp_PSA>  (593) 
52.737000000000002

>  <r_qp_PercentHumanOralAbsorption>  (593) 
100

>  <r_qp_QPPCaco>  (593) 
308.74099999999999

>  <r_qp_QPPMDCK>  (593) 
153.65299999999999

>  <r_qp_QPlogBB>  (593) 
-0.56699999999999995

>  <r_qp_QPlogHERG>  (593) 
-7.9859999999999998

>  <r_qp_QPlogKhsa>  (593) 
0.96899999999999997

>  <r_qp_QPlogKp>  (593) 
-2.9830000000000001

>  <r_qp_QPlogPC16>  (593) 
14.629

>  <r_qp_QPlogPo/w>  (593) 
4.9909999999999997

>  <r_qp_QPlogPoct>  (593) 
19.469999999999999

>  <r_qp_QPlogPw>  (593) 
9.3559999999999999

>  <r_qp_QPlogS>  (593) 
-6.6660000000000004

>  <r_qp_QPpolrz>  (593) 
45.631

>  <r_qp_SASA>  (593) 
745.38699999999994

>  <r_qp_SAamideO>  (593) 
0

>  <r_qp_SAfluorine>  (593) 
0

>  <r_qp_WPSA>  (593) 
0

>  <r_qp_accptHB>  (593) 
4.5

>  <r_qp_dip^2/V>  (593) 
0.040204700000000003

>  <r_qp_dipole>  (593) 
7.2709999999999999

>  <r_qp_donorHB>  (593) 
1

>  <r_qp_glob>  (593) 
0.77870989999999995

>  <r_qp_mol_MW>  (593) 
380.49099999999999

>  <r_qp_volume>  (593) 
1314.8879999999999

>  <r_sd_BIOSOLVEIT.INFINISEE\_FTREES\_SIMILARITY>  (593) 
0.90500000000000003

>  <r_sd_BIOSOLVEIT.LOGP>  (593) 
3.5708000000000002

>  <r_sd_BIOSOLVEIT.MOLECULAR\_WEIGHT>  (593) 
381.50099999999998

>  <r_sd_BIOSOLVEIT.TPSA>  (593) 
58.219999999999999

>  <i_epik_Tot_Q>  (593) 
1

>  <i_epik_Tot_abs_Q>  (593) 
1

>  <i_f3d_flags>  (593) 
0

>  <i_i_glide_confnum>  (593) 
2

>  <i_i_glide_lignum>  (593) 
624

>  <i_i_glide_posenum>  (593) 
20

>  <i_i_glide_rotatable_bonds>  (593) 
7

>  <i_lp_mmshare_version>  (593) 
65135

>  <i_m_ct_format>  (593) 
2

>  <i_m_source_file_index>  (593) 
1649

>  <i_qp_#NandO>  (593) 
4

>  <i_qp_#acid>  (593) 
0

>  <i_qp_#amide>  (593) 
0

>  <i_qp_#amidine>  (593) 
0

>  <i_qp_#amine>  (593) 
1

>  <i_qp_#in34>  (593) 
0

>  <i_qp_#in56>  (593) 
21

>  <i_qp_#metab>  (593) 
5

>  <i_qp_#nonHatm>  (593) 
29

>  <i_qp_#noncon>  (593) 
0

>  <i_qp_#ringatoms>  (593) 
21

>  <i_qp_#rotor>  (593) 
8

>  <i_qp_#rtvFG>  (593) 
0

>  <i_qp_#stars>  (593) 
2

>  <i_qp_CNS>  (593) 
1

>  <i_qp_HumanOralAbsorption>  (593) 
1

>  <i_qp_RuleOfFive>  (593) 
0

>  <i_qp_RuleOfThree>  (593) 
1

>  <i_sd_BIOSOLVEIT.INFINISEE\_REAGENT1\_NAME>  (593) 
15772974

>  <i_sd_BIOSOLVEIT.INFINISEE\_REAGENT2\_NAME>  (593) 
24720860

>  <i_sd_BIOSOLVEIT.INFINISEE\_RESULT\_RANK>  (593) 
68744

>  <i_sd_version>  (593) 
0

>  <b_lp_Chiralities_Consistent>  (593) 
1

>  <b_sd_chiral_flag>  (593) 
0

>  <canonical_id>  (593) 
ATP-HTVS-5BF5224E50DC

>  <compound_code>  (593) 
52739

>  <title>  (593) 
m_270004bbb____15772974____24720860

>  <variant>  (593) 
52739-1

>  <source_file>  (593) 
运行/运行/ATP-VSW/ATP-VSW-DOCK_HTVS_1-003_lib/ATP-VSW-DOCK_HTVS_1-003_lib.mae

>  <canonical_smiles>  (593) 
Cc1cc(CC[NH2+]Cc2nc3ccccc3n2Cc2ccccc2)ccc1C#N

>  <scaffold>  (593) 
c1ccc(CC[NH2+]Cc2nc3ccccc3n2Cc2ccccc2)cc1

>  <molecular_formula>  (593) 
C25H25N4+

$$$$
ATP-HTVS-5BFD90183104
     RDKit          3D

 64 67  0  0  0  0  0  0  0  0999 V2000
  199.6093  177.5122  155.4104 O   0  0  0  0  0  0  0  0  0  0  0  0
  199.6327  178.5348  156.0991 C   0  0  0  0  0  0  0  0  0  0  0  0
  200.2888  178.6270  157.2728 O   0  0  0  0  0  0  0  0  0  0  0  0
  201.0437  177.5366  157.7755 C   0  0  2  0  0  0  0  0  0  0  0  0
  198.9022  179.7926  155.7327 C   0  0  0  0  0  0  0  0  0  0  0  0
  199.3361  181.1244  156.0317 C   0  0  0  0  0  0  0  0  0  0  0  0
  198.5116  182.2194  155.6723 C   0  0  0  0  0  0  0  0  0  0  0  0
  197.2858  182.0248  155.0141 C   0  0  0  0  0  0  0  0  0  0  0  0
  196.8839  180.7242  154.6779 C   0  0  0  0  0  0  0  0  0  0  0  0
  197.6887  179.6259  155.0312 C   0  0  0  0  0  0  0  0  0  0  0  0
  200.6778  181.4407  156.6355 C   0  0  0  0  0  0  0  0  0  0  0  0
  201.7036  180.9286  156.1918 O   0  0  0  0  0  0  0  0  0  0  0  0
  200.6152  182.2939  157.6736 N   0  0  0  0  0  0  0  0  0  0  0  0
  201.6645  182.9067  158.4170 C   0  0  0  0  0  0  0  0  0  0  0  0
  201.3223  183.8276  159.4405 C   0  0  0  0  0  0  0  0  0  0  0  0
  199.9693  184.0879  159.7272 N   0  0  0  0  0  0  0  0  0  0  0  0
  199.4034  185.1505  158.9062 C   0  0  1  0  0  0  0  0  0  0  0  0
  197.8980  185.2494  159.0440 C   0  0  0  0  0  0  0  0  0  0  0  0
  197.0688  184.2810  158.4435 C   0  0  0  0  0  0  0  0  0  0  0  0
  195.6684  184.3306  158.6260 C   0  0  0  0  0  0  0  0  0  0  0  0
  195.1069  185.3603  159.4054 C   0  0  0  0  0  0  0  0  0  0  0  0
  195.9288  186.3484  159.9798 C   0  0  0  0  0  0  0  0  0  0  0  0
  197.3244  186.2948  159.7930 C   0  0  0  0  0  0  0  0  0  0  0  0
  194.7780  183.2807  157.9806 C   0  0  1  0  0  0  0  0  0  0  0  0
  194.5209  182.1076  158.8532 N   0  0  1  0  0  0  0  0  0  0  0  0
  193.5914  181.1395  158.2300 C   0  0  2  0  0  0  0  0  0  0  0  0
  195.7634  181.4641  159.3264 C   0  0  2  0  0  0  0  0  0  0  0  0
  202.3702  184.4810  160.1441 C   0  0  0  0  0  0  0  0  0  0  0  0
  203.7149  184.1696  159.8044 C   0  0  0  0  0  0  0  0  0  0  0  0
  204.0280  183.2856  158.8387 N   0  0  0  0  0  0  0  0  0  0  0  0
  203.0387  182.6765  158.1639 C   0  0  0  0  0  0  0  0  0  0  0  0
  204.7658  184.7927  160.5015 C   0  0  0  0  0  0  0  0  0  0  0  0
  204.5067  185.7109  161.5341 C   0  0  0  0  0  0  0  0  0  0  0  0
  203.1780  186.0269  161.8652 C   0  0  0  0  0  0  0  0  0  0  0  0
  202.1125  185.4177  161.1752 C   0  0  0  0  0  0  0  0  0  0  0  0
  201.5405  177.8488  158.6916 H   0  0  0  0  0  0  0  0  0  0  0  0
  201.8148  177.2256  157.0722 H   0  0  0  0  0  0  0  0  0  0  0  0
  200.4048  176.6873  158.0086 H   0  0  0  0  0  0  0  0  0  0  0  0
  198.8259  183.2344  155.8696 H   0  0  0  0  0  0  0  0  0  0  0  0
  196.6672  182.8682  154.7431 H   0  0  0  0  0  0  0  0  0  0  0  0
  195.9503  180.5654  154.1619 H   0  0  0  0  0  0  0  0  0  0  0  0
  197.3604  178.6355  154.7794 H   0  0  0  0  0  0  0  0  0  0  0  0
  199.6827  182.5989  157.9063 H   0  0  0  0  0  0  0  0  0  0  0  0
  199.3847  183.2642  159.7498 H   0  0  0  0  0  0  0  0  0  0  0  0
  199.8597  186.1039  159.1753 H   0  0  0  0  0  0  0  0  0  0  0  0
  199.6295  184.9804  157.8546 H   0  0  0  0  0  0  0  0  0  0  0  0
  197.4989  183.4798  157.8608 H   0  0  0  0  0  0  0  0  0  0  0  0
  194.0388  185.4101  159.5517 H   0  0  0  0  0  0  0  0  0  0  0  0
  195.4875  187.1440  160.5600 H   0  0  0  0  0  0  0  0  0  0  0  0
  197.9500  187.0505  160.2463 H   0  0  0  0  0  0  0  0  0  0  0  0
  193.8194  183.7346  157.7341 H   0  0  0  0  0  0  0  0  0  0  0  0
  195.2452  182.9455  157.0551 H   0  0  0  0  0  0  0  0  0  0  0  0
  194.0269  180.7136  157.3403 H   0  0  0  0  0  0  0  0  0  0  0  0
  192.6500  181.6157  157.9563 H   0  0  0  0  0  0  0  0  0  0  0  0
  193.3695  180.3240  158.9191 H   0  0  0  0  0  0  0  0  0  0  0  0
  196.3773  181.0963  158.5018 H   0  0  0  0  0  0  0  0  0  0  0  0
  195.5444  180.6387  159.9886 H   0  0  0  0  0  0  0  0  0  0  0  0
  196.3425  182.1822  159.9019 H   0  0  0  0  0  0  0  0  0  0  0  0
  203.4053  182.0195  157.3908 H   0  0  0  0  0  0  0  0  0  0  0  0
  205.7827  184.5370  160.2444 H   0  0  0  0  0  0  0  0  0  0  0  0
  205.3301  186.1662  162.0664 H   0  0  0  0  0  0  0  0  0  0  0  0
  202.9758  186.7262  162.6620 H   0  0  0  0  0  0  0  0  0  0  0  0
  201.0996  185.6586  161.4590 H   0  0  0  0  0  0  0  0  0  0  0  0
  194.0649  182.4707  159.6801 H   0  0  0  0  0  0  0  0  0  0  0  0
  1  2  2  0
  2  3  1  0
  2  5  1  0
  3  4  1  0
  4 36  1  1
  4 37  1  0
  4 38  1  0
  5  6  1  0
  5 10  2  0
  6  7  2  0
  6 11  1  0
  7  8  1  0
  7 39  1  0
  8  9  2  0
  8 40  1  0
  9 10  1  0
  9 41  1  0
 10 42  1  0
 11 12  2  0
 11 13  1  0
 13 14  1  0
 13 43  1  0
 14 15  2  0
 14 31  1  0
 15 16  1  0
 15 28  1  0
 16 17  1  0
 16 44  1  0
 17 18  1  0
 17 45  1  1
 17 46  1  0
 18 19  2  0
 18 23  1  0
 19 20  1  0
 19 47  1  0
 20 21  2  0
 20 24  1  0
 21 22  1  0
 21 48  1  0
 22 23  2  0
 22 49  1  0
 23 50  1  0
 24 25  1  0
 24 51  1  6
 24 52  1  0
 25 26  1  0
 25 27  1  0
 25 64  1  1
 26 53  1  6
 26 54  1  0
 26 55  1  0
 27 56  1  6
 27 57  1  0
 27 58  1  0
 28 29  1  0
 28 35  2  0
 29 30  1  0
 29 32  2  0
 30 31  2  0
 31 59  1  0
 32 33  1  0
 32 60  1  0
 33 34  2  0
 33 61  1  0
 34 35  1  0
 34 62  1  0
 35 63  1  0
M  CHG  1  25   1
M  END
>  <s_epik_Chemistry_Notes>  (594) 
This compound has an ester and may undergo hydrolysis at high or low pH.

>  <s_epik_cmdline>  (594) 
J2VwaWtfcHl0aG9uJywgJy1waCcsICc3LjAwMDAwMCcsICctcGh0JywgJzIuMDAwMDAwJywgJy1tcycsICcxNicsICctdG4nLCAnOCcsICctbWEnLCAnMjAwJywgJy1pbWFlJywgJzxpbmZpbGUubWFlPicsICctb21hZScsICc8b3V0ZmlsZS5tYWU+Jw==

>  <s_epik_input>  (594) 
W0NIM11PQyg9TyljMWMoW2NIXVtjSF1bY0hdW2NIXTEpQyg9TylbTkhdYyhbY0hdbmMoYzIzKVtjSF1bY0hdW2NIXVtjSF0zKWMyW05IXVtDSDJdYzRbY0hdYyhbY0hdW2NIXVtjSF00KVtDSDJdTihbQ0gzXSlbQ0gzXQ==

>  <s_i_glide_gridfile>  (594) 
ATP-Grid

>  <s_lp_Force_Field>  (594) 
OPLS_2005

>  <s_lp_Variant>  (594) 
rxn502c____EMOL24281530____EMOL44472687____EMOL2873214-2

>  <s_lp_label>  (594) 
2413_sdstereoexpander_1_neutralizer_1_epik_2_stereoizer_1

>  <s_m_source_file>  (594) 
ATP-VSW-LIGPREP-003-in.maegz

>  <s_sd_BIOSOLVEIT.INFINISEE\_QUERY\_NAME>  (594) 
Ref-Lig

>  <s_sd_BIOSOLVEIT.INFINISEE\_QUERY\_SMILES>  (594) 
S(c1nc2c(cc1C[NH2+]Cc3ccc(cc3)C[NH+](C)C)cccc2)Cc4ccccc4

>  <s_sd_BIOSOLVEIT.INFINISEE\_REACTION\_NAME>  (594) 
rxn502c

>  <s_sd_BIOSOLVEIT.INFINISEE\_REAGENT1\_NAME>  (594) 
EMOL24281530

>  <s_sd_BIOSOLVEIT.INFINISEE\_REAGENT1\_SMILES>  (594) 
ClC(=O)c1c(cccc1)C(=O)OC

>  <s_sd_BIOSOLVEIT.INFINISEE\_REAGENT2\_NAME>  (594) 
EMOL44472687

>  <s_sd_BIOSOLVEIT.INFINISEE\_REAGENT2\_SMILES>  (594) 
Clc1c(N)cnc2c1cccc2

>  <s_sd_BIOSOLVEIT.INFINISEE\_REAGENT3\_NAME>  (594) 
EMOL2873214

>  <s_sd_BIOSOLVEIT.INFINISEE\_REAGENT3\_SMILES>  (594) 
N(Cc1cc(ccc1)CN)(C)C

>  <s_sd_BIOSOLVEIT.INFINISEE\_SPACE>  (594) 
eXplore_7tr_2022-12

>  <s_vsw_compound_code>  (594) 
77187

>  <s_vsw_variant>  (594) 
77187-2

>  <r_epik_Charging_Adjusted_Penalty>  (594) 
1.3011698506693401

>  <r_epik_Ionization_Penalty>  (594) 
1.2625999999999999

>  <r_epik_Ionization_Penalty_Charging>  (594) 
0.0441

>  <r_epik_Ionization_Penalty_Neutral>  (594) 
1.2184999999999999

>  <r_epik_State_Penalty>  (594) 
1.2571000000000001

>  <r_i_docking_score>  (594) 
-2.9412013495268399

>  <r_i_glide_ecoul>  (594) 
-7.0035862922668501

>  <r_i_glide_eff_state_penalty>  (594) 
1.2571000000000001

>  <r_i_glide_einternal>  (594) 
2.2219765186309801

>  <r_i_glide_emodel>  (594) 
-57.101363383869803

>  <r_i_glide_energy>  (594) 
-42.8190884590149

>  <r_i_glide_erotb>  (594) 
0.73288219248227005

>  <r_i_glide_esite>  (594) 
-0.154748105908803

>  <r_i_glide_evdw>  (594) 
-35.815502166747997

>  <r_i_glide_gscore>  (594) 
-4.1983013495268402

>  <r_i_glide_hbond>  (594) 
0

>  <r_i_glide_ligand_efficiency>  (594) 
-0.084034324272195496

>  <r_i_glide_ligand_efficiency_ln>  (594) 
-0.64565897266809302

>  <r_i_glide_ligand_efficiency_sa>  (594) 
-0.274881846700475

>  <r_i_glide_lipo>  (594) 
-1.5025418839228799

>  <r_i_glide_metal>  (594) 
-0

>  <r_i_glide_rewards>  (594) 
-0.43258049999999898

>  <r_lp_Energy>  (594) 
40.423048999999999

>  <r_qp_ACxDN^.5/SA>  (594) 
0.016094799999999999

>  <r_qp_CIQPlogS>  (594) 
-5.569

>  <r_qp_EA(eV)>  (594) 
0.97399999999999998

>  <r_qp_FISA>  (594) 
92.272000000000006

>  <r_qp_FOSA>  (594) 
229.06800000000001

>  <r_qp_IP(eV)>  (594) 
8.5340000000000007

>  <r_qp_Jm>  (594) 
0.0282861770565721

>  <r_qp_PISA>  (594) 
425.53500000000003

>  <r_qp_PSA>  (594) 
90.234999999999999

>  <r_qp_PercentHumanOralAbsorption>  (594) 
95.116

>  <r_qp_QPPCaco>  (594) 
329.44400000000002

>  <r_qp_QPPMDCK>  (594) 
164.81899999999999

>  <r_qp_QPlogBB>  (594) 
-0.42899999999999999

>  <r_qp_QPlogHERG>  (594) 
-7.1559999999999997

>  <r_qp_QPlogKhsa>  (594) 
0.49099999999999999

>  <r_qp_QPlogKp>  (594) 
-3.016

>  <r_qp_QPlogPC16>  (594) 
15.582000000000001

>  <r_qp_QPlogPo/w>  (594) 
3.9460000000000002

>  <r_qp_QPlogPoct>  (594) 
25.364000000000001

>  <r_qp_QPlogPw>  (594) 
14.576000000000001

>  <r_qp_QPlogS>  (594) 
-4.2039999999999997

>  <r_qp_QPpolrz>  (594) 
50.091999999999999

>  <r_qp_SASA>  (594) 
746.875

>  <r_qp_SAamideO>  (594) 
0

>  <r_qp_SAfluorine>  (594) 
0

>  <r_qp_WPSA>  (594) 
0

>  <r_qp_accptHB>  (594) 
8.5

>  <r_qp_dip^2/V>  (594) 
0.078661200000000001

>  <r_qp_dipole>  (594) 
10.614000000000001

>  <r_qp_donorHB>  (594) 
2

>  <r_qp_glob>  (594) 
0.82274099999999994

>  <r_qp_mol_MW>  (594) 
468.55399999999997

>  <r_qp_volume>  (594) 
1432.25

>  <r_sd_BIOSOLVEIT.INFINISEE\_FTREES\_SIMILARITY>  (594) 
0.91700000000000004

>  <r_sd_BIOSOLVEIT.LOGP>  (594) 
3.5303

>  <r_sd_BIOSOLVEIT.MOLECULAR\_WEIGHT>  (594) 
469.56200000000001

>  <r_sd_BIOSOLVEIT.TPSA>  (594) 
84.760000000000005

>  <i_epik_Tot_Q>  (594) 
1

>  <i_epik_Tot_abs_Q>  (594) 
1

>  <i_f3d_flags>  (594) 
0

>  <i_i_glide_confnum>  (594) 
12

>  <i_i_glide_lignum>  (594) 
1028

>  <i_i_glide_posenum>  (594) 
13

>  <i_i_glide_rotatable_bonds>  (594) 
10

>  <i_lp_mmshare_version>  (594) 
65135

>  <i_m_ct_format>  (594) 
2

>  <i_m_source_file_index>  (594) 
2413

>  <i_qp_#NandO>  (594) 
7

>  <i_qp_#acid>  (594) 
0

>  <i_qp_#amide>  (594) 
0

>  <i_qp_#amidine>  (594) 
0

>  <i_qp_#amine>  (594) 
1

>  <i_qp_#in34>  (594) 
0

>  <i_qp_#in56>  (594) 
22

>  <i_qp_#metab>  (594) 
6

>  <i_qp_#nonHatm>  (594) 
35

>  <i_qp_#noncon>  (594) 
0

>  <i_qp_#ringatoms>  (594) 
22

>  <i_qp_#rotor>  (594) 
8

>  <i_qp_#rtvFG>  (594) 
1

>  <i_qp_#stars>  (594) 
0

>  <i_qp_CNS>  (594) 
1

>  <i_qp_HumanOralAbsorption>  (594) 
3

>  <i_qp_RuleOfFive>  (594) 
0

>  <i_qp_RuleOfThree>  (594) 
0

>  <i_sd_BIOSOLVEIT.INFINISEE\_RESULT\_RANK>  (594) 
21748

>  <i_sd_version>  (594) 
0

>  <b_lp_Chiralities_Consistent>  (594) 
1

>  <b_sd_chiral_flag>  (594) 
0

>  <canonical_id>  (594) 
ATP-HTVS-5BFD90183104

>  <compound_code>  (594) 
77187

>  <title>  (594) 
rxn502c____EMOL24281530____EMOL44472687____EMOL2873214

>  <variant>  (594) 
77187-2

>  <source_file>  (594) 
运行/运行/ATP-VSW/ATP-VSW-DOCK_HTVS_1-003_lib/ATP-VSW-DOCK_HTVS_1-003_lib.mae

>  <canonical_smiles>  (594) 
COC(=O)c1ccccc1C(=O)Nc1cnc2ccccc2c1NCc1cccc(C[NH+](C)C)c1

>  <scaffold>  (594) 
O=C(Nc1cnc2ccccc2c1NCc1ccccc1)c1ccccc1

>  <molecular_formula>  (594) 
C28H29N4O3+

$$$$
ATP-HTVS-5C08F16C0BFC
     RDKit          3D

 63 66  0  0  0  0  0  0  0  0999 V2000
  199.8499  181.9156  149.2611 O   0  0  0  0  0  0  0  0  0  0  0  0
  200.1086  180.7393  149.5390 N   0  0  0  0  0  0  0  0  0  0  0  0
  201.0308  180.4318  150.3119 O   0  0  0  0  0  0  0  0  0  0  0  0
  199.3046  179.7025  148.9166 C   0  0  0  0  0  0  0  0  0  0  0  0
  198.9695  178.4753  149.5044 C   0  0  0  0  0  0  0  0  0  0  0  0
  198.2056  177.5034  148.7783 C   0  0  0  0  0  0  0  0  0  0  0  0
  197.7426  177.7835  147.4881 C   0  0  0  0  0  0  0  0  0  0  0  0
  198.0253  179.0160  146.8824 C   0  0  0  0  0  0  0  0  0  0  0  0
  198.7968  179.9682  147.5742 C   0  0  0  0  0  0  0  0  0  0  0  0
  199.3298  178.1443  150.9563 C   0  0  1  0  0  0  0  0  0  0  0  0
  198.8056  179.0616  151.9895 N   0  0  0  0  0  0  0  0  0  0  0  0
  199.1480  178.8591  153.3291 C   0  0  0  0  0  0  0  0  0  0  0  0
  198.6373  179.6940  154.2437 N   0  0  0  0  0  0  0  0  0  0  0  0
  198.9054  179.5471  155.5481 C   0  0  0  0  0  0  0  0  0  0  0  0
  198.3336  180.4601  156.4482 N   0  0  0  0  0  0  0  0  0  0  0  0
  197.1907  181.2812  156.0601 C   0  0  1  0  0  0  0  0  0  0  0  0
  196.8118  182.3474  157.0824 C   0  0  0  0  0  0  0  0  0  0  0  0
  197.6351  183.4692  157.3528 C   0  0  0  0  0  0  0  0  0  0  0  0
  197.2115  184.4333  158.2980 C   0  0  0  0  0  0  0  0  0  0  0  0
  195.9832  184.2954  158.9674 C   0  0  0  0  0  0  0  0  0  0  0  0
  195.1585  183.1927  158.6885 C   0  0  0  0  0  0  0  0  0  0  0  0
  195.5744  182.2395  157.7522 C   0  0  0  0  0  0  0  0  0  0  0  0
  198.9624  183.6877  156.6375 C   0  0  1  0  0  0  0  0  0  0  0  0
  200.0614  182.8745  157.1538 N   0  0  0  0  0  0  0  0  0  0  0  0
  201.2422  183.0654  156.3264 C   0  0  2  0  0  0  0  0  0  0  0  0
  200.3772  183.2190  158.5365 C   0  0  2  0  0  0  0  0  0  0  0  0
  199.7615  178.5139  155.9882 C   0  0  0  0  0  0  0  0  0  0  0  0
  200.2625  177.6382  154.9917 C   0  0  0  0  0  0  0  0  0  0  0  0
  199.9466  177.8358  153.6968 N   0  0  0  0  0  0  0  0  0  0  0  0
  201.0806  176.5569  155.3626 C   0  0  0  0  0  0  0  0  0  0  0  0
  201.4056  176.3434  156.7142 C   0  0  0  0  0  0  0  0  0  0  0  0
  200.9200  177.2196  157.7006 C   0  0  0  0  0  0  0  0  0  0  0  0
  200.1050  178.3094  157.3365 C   0  0  0  0  0  0  0  0  0  0  0  0
  197.9283  180.1910  151.6451 C   0  0  2  0  0  0  0  0  0  0  0  0
  197.9298  176.5689  149.2315 H   0  0  0  0  0  0  0  0  0  0  0  0
  197.1467  177.0559  146.9531 H   0  0  0  0  0  0  0  0  0  0  0  0
  197.6275  179.2462  145.9052 H   0  0  0  0  0  0  0  0  0  0  0  0
  198.9825  180.9082  147.1011 H   0  0  0  0  0  0  0  0  0  0  0  0
  198.9676  177.1385  151.1775 H   0  0  0  0  0  0  0  0  0  0  0  0
  200.4169  178.0662  151.0266 H   0  0  0  0  0  0  0  0  0  0  0  0
  198.4062  180.2714  157.4360 H   0  0  0  0  0  0  0  0  0  0  0  0
  197.3646  181.7718  155.0992 H   0  0  0  0  0  0  0  0  0  0  0  0
  196.3470  180.6052  155.9192 H   0  0  0  0  0  0  0  0  0  0  0  0
  197.8327  185.2911  158.5061 H   0  0  0  0  0  0  0  0  0  0  0  0
  195.6665  185.0341  159.6911 H   0  0  0  0  0  0  0  0  0  0  0  0
  194.2043  183.0825  159.1827 H   0  0  0  0  0  0  0  0  0  0  0  0
  194.9209  181.4033  157.5303 H   0  0  0  0  0  0  0  0  0  0  0  0
  198.8216  183.4709  155.5768 H   0  0  0  0  0  0  0  0  0  0  0  0
  199.2142  184.7471  156.6874 H   0  0  0  0  0  0  0  0  0  0  0  0
  202.0610  182.4367  156.6781 H   0  0  0  0  0  0  0  0  0  0  0  0
  201.5735  184.1048  156.3407 H   0  0  0  0  0  0  0  0  0  0  0  0
  201.0344  182.7855  155.2919 H   0  0  0  0  0  0  0  0  0  0  0  0
  201.1967  182.6002  158.9029 H   0  0  0  0  0  0  0  0  0  0  0  0
  199.5208  183.0370  159.1859 H   0  0  0  0  0  0  0  0  0  0  0  0
  200.6606  184.2680  158.6265 H   0  0  0  0  0  0  0  0  0  0  0  0
  201.4699  175.8773  154.6147 H   0  0  0  0  0  0  0  0  0  0  0  0
  202.0323  175.5113  157.0010 H   0  0  0  0  0  0  0  0  0  0  0  0
  201.1509  177.0525  158.7403 H   0  0  0  0  0  0  0  0  0  0  0  0
  199.7072  178.9374  158.1159 H   0  0  0  0  0  0  0  0  0  0  0  0
  198.3566  181.1022  152.0815 H   0  0  0  0  0  0  0  0  0  0  0  0
  196.9337  180.0555  152.1025 H   0  0  0  0  0  0  0  0  0  0  0  0
  197.8497  180.3462  150.5479 H   0  0  0  0  0  0  0  0  0  0  0  0
  200.3335  177.1835  153.0117 H   0  0  0  0  0  0  0  0  0  0  0  0
  1  2  1  0
  2  3  2  0
  2  4  1  0
  4  5  1  0
  4  9  2  0
  5  6  2  0
  5 10  1  0
  6  7  1  0
  6 35  1  0
  7  8  2  0
  7 36  1  0
  8  9  1  0
  8 37  1  0
  9 38  1  0
 10 11  1  0
 10 39  1  1
 10 40  1  0
 11 12  1  0
 11 34  1  0
 12 13  1  0
 12 29  2  0
 13 14  2  0
 14 15  1  0
 14 27  1  0
 15 16  1  0
 15 41  1  0
 16 17  1  0
 16 42  1  6
 16 43  1  0
 17 18  1  0
 17 22  2  0
 18 19  2  0
 18 23  1  0
 19 20  1  0
 19 44  1  0
 20 21  2  0
 20 45  1  0
 21 22  1  0
 21 46  1  0
 22 47  1  0
 23 24  1  0
 23 48  1  6
 23 49  1  0
 24 25  1  0
 24 26  1  0
 25 50  1  1
 25 51  1  0
 25 52  1  0
 26 53  1  1
 26 54  1  0
 26 55  1  0
 27 28  1  0
 27 33  2  0
 28 29  1  0
 28 30  2  0
 29 63  1  0
 30 31  1  0
 30 56  1  0
 31 32  2  0
 31 57  1  0
 32 33  1  0
 32 58  1  0
 33 59  1  0
 34 60  1  1
 34 61  1  0
 34 62  1  0
M  CHG  3   1  -1   2   1  29   1
M  END
>  <s_epik_cmdline>  (595) 
J2VwaWtfcHl0aG9uJywgJy1waCcsICc3LjAwMDAwMCcsICctcGh0JywgJzIuMDAwMDAwJywgJy1tcycsICcxNicsICctdG4nLCAnOCcsICctbWEnLCAnMjAwJywgJy1pbWFlJywgJzxpbmZpbGUubWFlPicsICctb21hZScsICc8b3V0ZmlsZS5tYWU+Jw==

>  <s_epik_input>  (595) 
W2NIXTFbY0hdW2NIXVtjSF1jKGMxW04rXShbTy1dKT1PKVtDSDJdTihbQ0gzXSljKG5jKGMyMylbY0hdW2NIXVtjSF1bY0hdMyluYzJbTkhdW0NIMl1jNGMoW0NIMl1OKFtDSDNdKVtDSDNdKVtjSF1bY0hdW2NIXVtjSF00

>  <s_i_glide_gridfile>  (595) 
ATP-Grid

>  <s_lp_Force_Field>  (595) 
OPLS_2005

>  <s_lp_Variant>  (595) 
m_282030aaa____21926588____22360182____21973156-2

>  <s_lp_label>  (595) 
782_sdstereoexpander_1_neutralizer_1_epik_2_stereoizer_1

>  <s_m_source_file>  (595) 
ATP-VSW-LIGPREP-001-in.maegz

>  <s_sd_BIOSOLVEIT.INFINISEE\_QUERY\_NAME>  (595) 
Ref-Lig

>  <s_sd_BIOSOLVEIT.INFINISEE\_QUERY\_SMILES>  (595) 
S(c1nc2c(cc1C[NH2+]Cc3ccc(cc3)C[NH+](C)C)cccc2)Cc4ccccc4

>  <s_sd_BIOSOLVEIT.INFINISEE\_REACTION\_NAME>  (595) 
m_282030aaa

>  <s_sd_BIOSOLVEIT.INFINISEE\_REAGENT1\_SMILES>  (595) 
[R1*]N(Cc1c([N+]([O-])=O)cccc1)C

>  <s_sd_BIOSOLVEIT.INFINISEE\_REAGENT2\_SMILES>  (595) 
[R2*]c1nc([R1*])c2c(n1)cccc2

>  <s_sd_BIOSOLVEIT.INFINISEE\_REAGENT3\_SMILES>  (595) 
[R2*]NCc1c(cccc1)CN(C)C

>  <s_sd_BIOSOLVEIT.INFINISEE\_SPACE>  (595) 
REALSpace_44bn_2023-08

>  <s_vsw_compound_code>  (595) 
24993

>  <s_vsw_variant>  (595) 
24993-2

>  <r_epik_Charging_Adjusted_Penalty>  (595) 
1.65550864750477

>  <r_epik_Ionization_Penalty>  (595) 
1.6488

>  <r_epik_Ionization_Penalty_Charging>  (595) 
0.0071000000000000004

>  <r_epik_Ionization_Penalty_Neutral>  (595) 
1.6416999999999999

>  <r_epik_State_Penalty>  (595) 
1.6484000000000001

>  <r_i_docking_score>  (595) 
-0.74034683878132401

>  <r_i_glide_ecoul>  (595) 
-1.19293308258057

>  <r_i_glide_eff_state_penalty>  (595) 
1.6484000000000001

>  <r_i_glide_einternal>  (595) 
2.1079456806182901

>  <r_i_glide_emodel>  (595) 
-36.6782668768235

>  <r_i_glide_energy>  (595) 
-31.1688585281372

>  <r_i_glide_erotb>  (595) 
0.67227371916337497

>  <r_i_glide_esite>  (595) 
-0.082682853302713202

>  <r_i_glide_evdw>  (595) 
-29.975925445556602

>  <r_i_glide_gscore>  (595) 
-2.3887468387813202

>  <r_i_glide_hbond>  (595) 
0

>  <r_i_glide_ligand_efficiency>  (595) 
-0.0217749070229801

>  <r_i_glide_ligand_efficiency_ln>  (595) 
-0.16356338271223

>  <r_i_glide_ligand_efficiency_sa>  (595) 
-0.070542245680447202

>  <r_i_glide_lipo>  (595) 
-0.97883908356664295

>  <r_i_glide_metal>  (595) 
-0

>  <r_i_glide_rewards>  (595) 
-0.32176238641042598

>  <r_lp_Energy>  (595) 
21.776472999999999

>  <r_lp_tautomer_probability>  (595) 
0.99350799999861505

>  <r_qp_ACxDN^.5/SA>  (595) 
0.0082433000000000003

>  <r_qp_CIQPlogS>  (595) 
-6.3719999999999999

>  <r_qp_EA(eV)>  (595) 
0.879

>  <r_qp_FISA>  (595) 
80.400000000000006

>  <r_qp_FOSA>  (595) 
243.99000000000001

>  <r_qp_IP(eV)>  (595) 
8.1620000000000008

>  <r_qp_Jm>  (595) 
0.0188210257054106

>  <r_qp_PISA>  (595) 
403.47699999999998

>  <r_qp_PSA>  (595) 
72.594999999999999

>  <r_qp_PercentHumanOralAbsorption>  (595) 
100

>  <r_qp_QPPCaco>  (595) 
426.93799999999999

>  <r_qp_QPPMDCK>  (595) 
218.12100000000001

>  <r_qp_QPlogBB>  (595) 
-0.35399999999999998

>  <r_qp_QPlogHERG>  (595) 
-6.899

>  <r_qp_QPlogKhsa>  (595) 
0.872

>  <r_qp_QPlogKp>  (595) 
-2.778

>  <r_qp_QPlogPC16>  (595) 
14.821

>  <r_qp_QPlogPo/w>  (595) 
4.9720000000000004

>  <r_qp_QPlogPoct>  (595) 
21.367999999999999

>  <r_qp_QPlogPw>  (595) 
10.151

>  <r_qp_QPlogS>  (595) 
-4.6059999999999999

>  <r_qp_QPpolrz>  (595) 
48.012

>  <r_qp_SASA>  (595) 
727.86699999999996

>  <r_qp_SAamideO>  (595) 
0

>  <r_qp_SAfluorine>  (595) 
0

>  <r_qp_WPSA>  (595) 
0

>  <r_qp_accptHB>  (595) 
6

>  <r_qp_dip^2/V>  (595) 
0.0521024

>  <r_qp_dipole>  (595) 
8.5459999999999994

>  <r_qp_donorHB>  (595) 
1

>  <r_qp_glob>  (595) 
0.83213579999999998

>  <r_qp_mol_MW>  (595) 
456.54599999999999

>  <r_qp_volume>  (595) 
1401.5940000000001

>  <r_sd_BIOSOLVEIT.INFINISEE\_FTREES\_SIMILARITY>  (595) 
0.92400000000000004

>  <r_sd_BIOSOLVEIT.LOGP>  (595) 
3.431

>  <r_sd_BIOSOLVEIT.MOLECULAR\_WEIGHT>  (595) 
457.55500000000001

>  <r_sd_BIOSOLVEIT.TPSA>  (595) 
91.310000000000002

>  <i_epik_Tot_Q>  (595) 
1

>  <i_epik_Tot_abs_Q>  (595) 
3

>  <i_f3d_flags>  (595) 
0

>  <i_i_glide_confnum>  (595) 
2

>  <i_i_glide_lignum>  (595) 
121

>  <i_i_glide_posenum>  (595) 
4

>  <i_i_glide_rotatable_bonds>  (595) 
9

>  <i_lp_mmshare_version>  (595) 
65135

>  <i_m_ct_format>  (595) 
2

>  <i_m_source_file_index>  (595) 
782

>  <i_qp_#NandO>  (595) 
8

>  <i_qp_#acid>  (595) 
0

>  <i_qp_#amide>  (595) 
0

>  <i_qp_#amidine>  (595) 
0

>  <i_qp_#amine>  (595) 
1

>  <i_qp_#in34>  (595) 
0

>  <i_qp_#in56>  (595) 
22

>  <i_qp_#metab>  (595) 
5

>  <i_qp_#nonHatm>  (595) 
34

>  <i_qp_#noncon>  (595) 
0

>  <i_qp_#ringatoms>  (595) 
22

>  <i_qp_#rotor>  (595) 
9

>  <i_qp_#rtvFG>  (595) 
0

>  <i_qp_#stars>  (595) 
0

>  <i_qp_CNS>  (595) 
1

>  <i_qp_HumanOralAbsorption>  (595) 
3

>  <i_qp_RuleOfFive>  (595) 
0

>  <i_qp_RuleOfThree>  (595) 
0

>  <i_sd_BIOSOLVEIT.INFINISEE\_REAGENT1\_NAME>  (595) 
21926588

>  <i_sd_BIOSOLVEIT.INFINISEE\_REAGENT2\_NAME>  (595) 
22360182

>  <i_sd_BIOSOLVEIT.INFINISEE\_REAGENT3\_NAME>  (595) 
21973156

>  <i_sd_BIOSOLVEIT.INFINISEE\_RESULT\_RANK>  (595) 
10009

>  <i_sd_version>  (595) 
0

>  <b_lp_Chiralities_Consistent>  (595) 
1

>  <b_sd_chiral_flag>  (595) 
0

>  <canonical_id>  (595) 
ATP-HTVS-5C08F16C0BFC

>  <compound_code>  (595) 
24993

>  <title>  (595) 
m_282030aaa____21926588____22360182____21973156

>  <variant>  (595) 
24993-2

>  <source_file>  (595) 
运行/运行/ATP-VSW/ATP-VSW-DOCK_HTVS_1-001_lib/ATP-VSW-DOCK_HTVS_1-001_lib

>  <canonical_smiles>  (595) 
CN(C)Cc1ccccc1CNc1nc(N(C)Cc2ccccc2[N+](=O)[O-])[nH+]c2ccccc12

>  <scaffold>  (595) 
c1ccc(CNc2nc(NCc3ccccc3)c3ccccc3[nH+]2)cc1

>  <molecular_formula>  (595) 
C26H29N6O2+

$$$$
ATP-HTVS-5C1A90E0608A
     RDKit          3D

 54 57  0  0  0  0  0  0  0  0999 V2000
  198.6364  183.8638  157.6806 S   0  0  0  0  0  0  0  0  0  0  0  0
  197.1328  184.0940  158.5620 C   0  0  0  0  0  0  0  0  0  0  0  0
  196.1243  183.2014  158.0778 C   0  0  0  0  0  0  0  0  0  0  0  0
  194.8540  183.2860  158.6917 C   0  0  0  0  0  0  0  0  0  0  0  0
  194.5834  184.2068  159.7223 C   0  0  0  0  0  0  0  0  0  0  0  0
  195.5954  185.0677  160.1816 C   0  0  0  0  0  0  0  0  0  0  0  0
  196.8757  185.0077  159.6015 C   0  0  0  0  0  0  0  0  0  0  0  0
  196.6092  182.3565  157.0097 C   0  0  0  0  0  0  0  0  0  0  0  0
  197.9239  182.6125  156.6987 C   0  0  0  0  0  0  0  0  0  0  0  0
  198.7633  181.9389  155.6543 C   0  0  2  0  0  0  0  0  0  0  0  0
  197.9702  181.4683  154.5258 N   0  0  0  0  0  0  0  0  0  0  0  0
  198.3794  182.0462  153.2464 C   0  0  2  0  0  0  0  0  0  0  0  0
  197.9269  183.4427  153.0967 C   0  0  0  0  0  0  0  0  0  0  0  0
  197.5735  184.5375  152.9807 N   0  0  0  0  0  0  0  0  0  0  0  0
  197.9139  181.2028  152.0703 C   0  0  0  0  0  0  0  0  0  0  0  0
  198.7613  181.0166  150.9554 C   0  0  0  0  0  0  0  0  0  0  0  0
  198.3317  180.2382  149.8620 C   0  0  0  0  0  0  0  0  0  0  0  0
  197.0550  179.6489  149.8740 C   0  0  0  0  0  0  0  0  0  0  0  0
  196.6404  178.9075  148.8206 F   0  0  0  0  0  0  0  0  0  0  0  0
  196.2045  179.8362  150.9776 C   0  0  0  0  0  0  0  0  0  0  0  0
  196.6299  180.6142  152.0709 C   0  0  0  0  0  0  0  0  0  0  0  0
  199.5229  180.8130  156.2313 C   0  0  0  0  0  0  0  0  0  0  0  0
  200.1680  179.8837  156.6934 C   0  0  0  0  0  0  0  0  0  0  0  0
  200.9458  178.7489  157.2195 C   0  0  1  0  0  0  0  0  0  0  0  0
  200.1753  177.5148  157.2704 N   0  0  0  0  0  0  0  0  0  0  0  0
  200.0227  176.8888  155.9625 C   0  0  1  0  0  0  0  0  0  0  0  0
  201.2154  176.0459  155.5329 C   0  0  0  0  0  0  0  0  0  0  0  0
  201.8749  175.2059  156.4549 C   0  0  0  0  0  0  0  0  0  0  0  0
  202.9549  174.3996  156.0496 C   0  0  0  0  0  0  0  0  0  0  0  0
  203.3930  174.4353  154.7129 C   0  0  0  0  0  0  0  0  0  0  0  0
  202.7420  175.2719  153.7856 C   0  0  0  0  0  0  0  0  0  0  0  0
  201.6521  176.0690  154.1906 C   0  0  0  0  0  0  0  0  0  0  0  0
  197.0279  181.7719  154.7288 H   0  0  0  0  0  0  0  0  0  0  0  0
  199.2601  177.6526  157.7122 H   0  0  0  0  0  0  0  0  0  0  0  0
  194.0699  182.6325  158.3347 H   0  0  0  0  0  0  0  0  0  0  0  0
  193.5954  184.2492  160.1592 H   0  0  0  0  0  0  0  0  0  0  0  0
  195.3917  185.7688  160.9781 H   0  0  0  0  0  0  0  0  0  0  0  0
  197.6579  185.6696  159.9494 H   0  0  0  0  0  0  0  0  0  0  0  0
  195.9817  181.6072  156.5450 H   0  0  0  0  0  0  0  0  0  0  0  0
  199.5158  182.6457  155.3037 H   0  0  0  0  0  0  0  0  0  0  0  0
  199.4671  182.0554  153.2108 H   0  0  0  0  0  0  0  0  0  0  0  0
  199.7439  181.4679  150.9312 H   0  0  0  0  0  0  0  0  0  0  0  0
  198.9787  180.0946  149.0089 H   0  0  0  0  0  0  0  0  0  0  0  0
  195.2235  179.3887  150.9919 H   0  0  0  0  0  0  0  0  0  0  0  0
  195.9620  180.7543  152.9080 H   0  0  0  0  0  0  0  0  0  0  0  0
  201.8519  178.6254  156.6231 H   0  0  0  0  0  0  0  0  0  0  0  0
  201.2614  179.0119  158.2300 H   0  0  0  0  0  0  0  0  0  0  0  0
  199.1581  176.2329  156.0294 H   0  0  0  0  0  0  0  0  0  0  0  0
  199.7731  177.6249  155.1971 H   0  0  0  0  0  0  0  0  0  0  0  0
  201.5441  175.1701  157.4812 H   0  0  0  0  0  0  0  0  0  0  0  0
  203.4493  173.7629  156.7684 H   0  0  0  0  0  0  0  0  0  0  0  0
  204.2280  173.8216  154.4034 H   0  0  0  0  0  0  0  0  0  0  0  0
  203.0782  175.2998  152.7594 H   0  0  0  0  0  0  0  0  0  0  0  0
  201.1520  176.6987  153.4688 H   0  0  0  0  0  0  0  0  0  0  0  0
  1  2  1  0
  1  9  1  0
  2  3  1  0
  2  7  2  0
  3  4  2  0
  3  8  1  0
  4  5  1  0
  4 35  1  0
  5  6  2  0
  5 36  1  0
  6  7  1  0
  6 37  1  0
  7 38  1  0
  8  9  2  0
  8 39  1  0
  9 10  1  0
 10 11  1  0
 10 22  1  0
 10 40  1  6
 11 12  1  0
 11 33  1  0
 12 13  1  0
 12 15  1  0
 12 41  1  1
 13 14  3  0
 15 16  1  0
 15 21  2  0
 16 17  2  0
 16 42  1  0
 17 18  1  0
 17 43  1  0
 18 19  1  0
 18 20  2  0
 20 21  1  0
 20 44  1  0
 21 45  1  0
 22 23  3  0
 23 24  1  0
 24 25  1  0
 24 46  1  6
 24 47  1  0
 25 26  1  0
 25 34  1  0
 26 27  1  0
 26 48  1  1
 26 49  1  0
 27 28  2  0
 27 32  1  0
 28 29  1  0
 28 50  1  0
 29 30  2  0
 29 51  1  0
 30 31  1  0
 30 52  1  0
 31 32  2  0
 31 53  1  0
 32 54  1  0
M  END
>  <s_epik_cmdline>  (596) 
J2VwaWtfcHl0aG9uJywgJy1waCcsICc3LjAwMDAwMCcsICctcGh0JywgJzIuMDAwMDAwJywgJy1tcycsICcxNicsICctdG4nLCAnOCcsICctbWEnLCAnMjAwJywgJy1pbWFlJywgJzxpbmZpbGUubWFlPicsICctb21hZScsICc8b3V0ZmlsZS5tYWU+Jw==

>  <s_epik_input>  (596) 
W2NIXTFbY0hdYyhGKVtjSF1bY0hdYzFbQ0BASF0oQyNOKVtOSF1bQ0BASF0oYyhzMilbY0hdYyhjMjMpW2NIXVtjSF1bY0hdW2NIXTMpQyNDW0NIMl1bTkhdW0NIMl1jNFtjSF1bY0hdW2NIXVtjSF1bY0hdNA==

>  <s_i_glide_gridfile>  (596) 
ATP-Grid

>  <s_lp_Force_Field>  (596) 
OPLS_2005

>  <s_lp_Variant>  (596) 
rxn403____EMOL906257____EMOL720244____EMOL1197208-3

>  <s_lp_label>  (596) 
2674_sdstereoexpander_3_neutralizer_1_epik_1_stereoizer_1

>  <s_m_source_file>  (596) 
ATP-VSW-LIGPREP-001-in.maegz

>  <s_sd_BIOSOLVEIT.INFINISEE\_QUERY\_NAME>  (596) 
Ref-Lig

>  <s_sd_BIOSOLVEIT.INFINISEE\_QUERY\_SMILES>  (596) 
S(c1nc2c(cc1C[NH2+]Cc3ccc(cc3)C[NH+](C)C)cccc2)Cc4ccccc4

>  <s_sd_BIOSOLVEIT.INFINISEE\_REACTION\_NAME>  (596) 
rxn403

>  <s_sd_BIOSOLVEIT.INFINISEE\_REAGENT1\_NAME>  (596) 
EMOL906257

>  <s_sd_BIOSOLVEIT.INFINISEE\_REAGENT1\_SMILES>  (596) 
Fc1ccc(cc1)C(N)C#N

>  <s_sd_BIOSOLVEIT.INFINISEE\_REAGENT2\_NAME>  (596) 
EMOL720244

>  <s_sd_BIOSOLVEIT.INFINISEE\_REAGENT2\_SMILES>  (596) 
S1c2c(cccc2)C=C1C=O

>  <s_sd_BIOSOLVEIT.INFINISEE\_REAGENT3\_NAME>  (596) 
EMOL1197208

>  <s_sd_BIOSOLVEIT.INFINISEE\_REAGENT3\_SMILES>  (596) 
N(CC#C)Cc1ccccc1

>  <s_sd_BIOSOLVEIT.INFINISEE\_SPACE>  (596) 
eXplore_7tr_2022-12

>  <s_vsw_compound_code>  (596) 
85537

>  <s_vsw_variant>  (596) 
85537-3

>  <r_epik_Charging_Adjusted_Penalty>  (596) 
0.33516215512082798

>  <r_epik_Ionization_Penalty>  (596) 
0.3392

>  <r_epik_Ionization_Penalty_Charging>  (596) 
0

>  <r_epik_Ionization_Penalty_Neutral>  (596) 
0.3392

>  <r_epik_State_Penalty>  (596) 
0.3352

>  <r_i_docking_score>  (596) 
-4.5781324864745603

>  <r_i_glide_ecoul>  (596) 
-4.2552065849304199

>  <r_i_glide_eff_state_penalty>  (596) 
0.3352

>  <r_i_glide_einternal>  (596) 
5.4132142066955602

>  <r_i_glide_emodel>  (596) 
-55.376967727231197

>  <r_i_glide_energy>  (596) 
-43.551269054412799

>  <r_i_glide_erotb>  (596) 
0.61984170064038902

>  <r_i_glide_esite>  (596) 
-0.0086542441890604793

>  <r_i_glide_evdw>  (596) 
-39.296062469482401

>  <r_i_glide_gscore>  (596) 
-4.9133324864745598

>  <r_i_glide_hbond>  (596) 
-0.16

>  <r_i_glide_ligand_efficiency>  (596) 
-0.14306664020233001

>  <r_i_glide_ligand_efficiency_ln>  (596) 
-1.02516865889995

>  <r_i_glide_ligand_efficiency_sa>  (596) 
-0.45420826979274698

>  <r_i_glide_lipo>  (596) 
-2.1852594010575102

>  <r_i_glide_metal>  (596) 
-0

>  <r_i_glide_rewards>  (596) 
-0.57617643065469504

>  <r_lp_Energy>  (596) 
21.324088

>  <r_qp_ACxDN^.5/SA>  (596) 
0.0087489000000000004

>  <r_qp_CIQPlogS>  (596) 
-6.4260000000000002

>  <r_qp_EA(eV)>  (596) 
0.91800000000000004

>  <r_qp_FISA>  (596) 
97.084999999999994

>  <r_qp_FOSA>  (596) 
86.245000000000005

>  <r_qp_IP(eV)>  (596) 
8.9870000000000001

>  <r_qp_Jm>  (596) 
7.5593706722890705e-05

>  <r_qp_PISA>  (596) 
473.31900000000002

>  <r_qp_PSA>  (596) 
51.125

>  <r_qp_PercentHumanOralAbsorption>  (596) 
88.828999999999994

>  <r_qp_QPPCaco>  (596) 
73.968000000000004

>  <r_qp_QPPMDCK>  (596) 
88.564999999999998

>  <r_qp_QPlogBB>  (596) 
-0.041000000000000002

>  <r_qp_QPlogHERG>  (596) 
-8.2240000000000002

>  <r_qp_QPlogKhsa>  (596) 
0.94399999999999995

>  <r_qp_QPlogKp>  (596) 
-4.8070000000000004

>  <r_qp_QPlogPC16>  (596) 
15.43

>  <r_qp_QPlogPo/w>  (596) 
4.8559999999999999

>  <r_qp_QPlogPoct>  (596) 
21.43

>  <r_qp_QPlogPw>  (596) 
10.529999999999999

>  <r_qp_QPlogS>  (596) 
-4.9580000000000002

>  <r_qp_QPpolrz>  (596) 
46.329000000000001

>  <r_qp_SASA>  (596) 
727.40200000000004

>  <r_qp_SAamideO>  (596) 
0

>  <r_qp_SAfluorine>  (596) 
28.420999999999999

>  <r_qp_WPSA>  (596) 
70.753

>  <r_qp_accptHB>  (596) 
4.5

>  <r_qp_dip^2/V>  (596) 
0.021708700000000001

>  <r_qp_dipole>  (596) 
5.431

>  <r_qp_donorHB>  (596) 
2

>  <r_qp_glob>  (596) 
0.81567619999999996

>  <r_qp_mol_MW>  (596) 
439.54899999999998

>  <r_qp_volume>  (596) 
1358.9090000000001

>  <r_sd_BIOSOLVEIT.INFINISEE\_FTREES\_SIMILARITY>  (596) 
0.90900000000000003

>  <r_sd_BIOSOLVEIT.LOGP>  (596) 
3.6767799999999999

>  <r_sd_BIOSOLVEIT.MOLECULAR\_WEIGHT>  (596) 
441.57100000000003

>  <r_sd_BIOSOLVEIT.TPSA>  (596) 
57.009999999999998

>  <i_epik_Tot_Q>  (596) 
0

>  <i_epik_Tot_abs_Q>  (596) 
0

>  <i_f3d_flags>  (596) 
0

>  <i_i_glide_confnum>  (596) 
11

>  <i_i_glide_lignum>  (596) 
1181

>  <i_i_glide_posenum>  (596) 
4

>  <i_i_glide_rotatable_bonds>  (596) 
9

>  <i_lp_mmshare_version>  (596) 
65135

>  <i_m_ct_format>  (596) 
2

>  <i_m_source_file_index>  (596) 
2674

>  <i_qp_#NandO>  (596) 
3

>  <i_qp_#acid>  (596) 
0

>  <i_qp_#amide>  (596) 
0

>  <i_qp_#amidine>  (596) 
0

>  <i_qp_#amine>  (596) 
2

>  <i_qp_#in34>  (596) 
0

>  <i_qp_#in56>  (596) 
21

>  <i_qp_#metab>  (596) 
7

>  <i_qp_#nonHatm>  (596) 
32

>  <i_qp_#noncon>  (596) 
0

>  <i_qp_#ringatoms>  (596) 
21

>  <i_qp_#rotor>  (596) 
10

>  <i_qp_#rtvFG>  (596) 
0

>  <i_qp_#stars>  (596) 
1

>  <i_qp_CNS>  (596) 
1

>  <i_qp_HumanOralAbsorption>  (596) 
3

>  <i_qp_RuleOfFive>  (596) 
0

>  <i_qp_RuleOfThree>  (596) 
1

>  <i_sd_BIOSOLVEIT.INFINISEE\_RESULT\_RANK>  (596) 
49420

>  <i_sd_version>  (596) 
0

>  <b_lp_Chiralities_Consistent>  (596) 
1

>  <b_sd_chiral_flag>  (596) 
0

>  <canonical_id>  (596) 
ATP-HTVS-5C1A90E0608A

>  <compound_code>  (596) 
85537

>  <title>  (596) 
rxn403____EMOL906257____EMOL720244____EMOL1197208

>  <variant>  (596) 
85537-3

>  <source_file>  (596) 
运行/运行/ATP-VSW/ATP-VSW-DOCK_HTVS_1-001_lib/ATP-VSW-DOCK_HTVS_1-001_lib

>  <canonical_smiles>  (596) 
N#C[C@@H](N[C@H](C#CCNCc1ccccc1)c1cc2ccccc2s1)c1ccc(F)cc1

>  <scaffold>  (596) 
C(#CC(NCc1ccccc1)c1cc2ccccc2s1)CNCc1ccccc1

>  <molecular_formula>  (596) 
C27H22FN3S

$$$$
ATP-HTVS-5C2621A0B526
     RDKit          3D

 64 67  0  0  0  0  0  0  0  0999 V2000
  199.8109  184.6331  157.0304 N   0  0  0  0  0  0  0  0  0  0  0  0
  198.5265  184.2494  156.8900 C   0  0  0  0  0  0  0  0  0  0  0  0
  197.7808  183.6405  157.9231 C   0  0  0  0  0  0  0  0  0  0  0  0
  198.4189  183.4408  159.1664 C   0  0  0  0  0  0  0  0  0  0  0  0
  199.7555  183.8432  159.3232 C   0  0  0  0  0  0  0  0  0  0  0  0
  200.4082  184.4361  158.2242 C   0  0  0  0  0  0  0  0  0  0  0  0
  196.3312  183.2155  157.6989 C   0  0  2  0  0  0  0  0  0  0  0  0
  195.4710  183.5306  158.8542 N   0  0  0  0  0  0  0  0  0  0  0  0
  194.0826  183.1133  158.6717 C   0  0  2  0  0  0  0  0  0  0  0  0
  195.4432  184.9731  159.0889 C   0  0  2  0  0  0  0  0  0  0  0  0
  196.2905  181.7140  157.3197 C   0  0  1  0  0  0  0  0  0  0  0  0
  196.9214  181.4484  156.0077 N   0  0  1  0  0  0  0  0  0  0  0  0
  196.9420  180.0119  155.6395 C   0  0  1  0  0  0  0  0  0  0  0  0
  197.5204  179.8105  154.2650 C   0  0  0  0  0  0  0  0  0  0  0  0
  198.6443  179.0784  153.7874 C   0  0  0  0  0  0  0  0  0  0  0  0
  198.7614  179.1514  152.4592 N   0  0  0  0  0  0  0  0  0  0  0  0
  197.7259  179.9210  152.0503 N   0  0  0  0  0  0  0  0  0  0  0  0
  196.9478  180.2649  153.1299 C   0  0  0  0  0  0  0  0  0  0  0  0
  197.5692  180.2186  150.6221 C   0  0  1  0  0  0  0  0  0  0  0  0
  197.2725  181.6932  150.3307 C   0  0  0  0  0  0  0  0  0  0  0  0
  197.9669  182.3659  149.2946 C   0  0  0  0  0  0  0  0  0  0  0  0
  197.6979  183.7400  149.0423 C   0  0  0  0  0  0  0  0  0  0  0  0
  196.7772  184.4553  149.8550 C   0  0  0  0  0  0  0  0  0  0  0  0
  196.1042  183.7709  150.8801 C   0  0  0  0  0  0  0  0  0  0  0  0
  196.3013  182.4112  151.0683 C   0  0  0  0  0  0  0  0  0  0  0  0
  199.5926  178.2581  154.5523 C   0  0  0  0  0  0  0  0  0  0  0  0
  199.7985  178.5104  155.9232 C   0  0  0  0  0  0  0  0  0  0  0  0
  200.6180  177.6727  156.6857 C   0  0  0  0  0  0  0  0  0  0  0  0
  201.3048  176.6151  156.0617 C   0  0  0  0  0  0  0  0  0  0  0  0
  201.1498  176.3824  154.6796 C   0  0  0  0  0  0  0  0  0  0  0  0
  200.2772  177.1928  153.9250 C   0  0  0  0  0  0  0  0  0  0  0  0
  200.7609  177.9397  158.1623 C   0  0  2  0  0  0  0  0  0  0  0  0
  196.4161  181.9883  155.3128 H   0  0  0  0  0  0  0  0  0  0  0  0
  198.0836  184.4214  155.9207 H   0  0  0  0  0  0  0  0  0  0  0  0
  197.8912  182.9836  159.9903 H   0  0  0  0  0  0  0  0  0  0  0  0
  200.2696  183.7074  160.2637 H   0  0  0  0  0  0  0  0  0  0  0  0
  201.4339  184.7592  158.3101 H   0  0  0  0  0  0  0  0  0  0  0  0
  195.9479  183.7771  156.8485 H   0  0  0  0  0  0  0  0  0  0  0  0
  193.4598  183.4783  159.4838 H   0  0  0  0  0  0  0  0  0  0  0  0
  193.9723  182.0308  158.6703 H   0  0  0  0  0  0  0  0  0  0  0  0
  193.6640  183.5079  157.7449 H   0  0  0  0  0  0  0  0  0  0  0  0
  194.8045  185.2115  159.9402 H   0  0  0  0  0  0  0  0  0  0  0  0
  195.0674  185.5144  158.2196 H   0  0  0  0  0  0  0  0  0  0  0  0
  196.4343  185.3624  159.3231 H   0  0  0  0  0  0  0  0  0  0  0  0
  196.7769  181.1160  158.0915 H   0  0  0  0  0  0  0  0  0  0  0  0
  195.2724  181.3477  157.2183 H   0  0  0  0  0  0  0  0  0  0  0  0
  197.4178  179.4522  156.4329 H   0  0  0  0  0  0  0  0  0  0  0  0
  195.9379  179.6184  155.6532 H   0  0  0  0  0  0  0  0  0  0  0  0
  196.0330  180.8096  153.1346 H   0  0  0  0  0  0  0  0  0  0  0  0
  198.4752  179.9098  150.0808 H   0  0  0  0  0  0  0  0  0  0  0  0
  196.7711  179.5969  150.2135 H   0  0  0  0  0  0  0  0  0  0  0  0
  198.6791  181.8399  148.6580 H   0  0  0  0  0  0  0  0  0  0  0  0
  198.1969  184.2574  148.2211 H   0  0  0  0  0  0  0  0  0  0  0  0
  196.5609  185.5036  149.6703 H   0  0  0  0  0  0  0  0  0  0  0  0
  195.3971  184.2592  151.5248 H   0  0  0  0  0  0  0  0  0  0  0  0
  195.6377  181.9894  151.7599 H   0  0  0  0  0  0  0  0  0  0  0  0
  199.3632  179.3465  156.4277 H   0  0  0  0  0  0  0  0  0  0  0  0
  201.9795  175.9991  156.6428 H   0  0  0  0  0  0  0  0  0  0  0  0
  201.6897  175.5929  154.1891 H   0  0  0  0  0  0  0  0  0  0  0  0
  200.1443  177.0034  152.8599 H   0  0  0  0  0  0  0  0  0  0  0  0
  201.7629  177.6836  158.4991 H   0  0  0  0  0  0  0  0  0  0  0  0
  200.0280  177.3643  158.7313 H   0  0  0  0  0  0  0  0  0  0  0  0
  200.6012  178.9956  158.3713 H   0  0  0  0  0  0  0  0  0  0  0  0
  197.8750  181.7771  156.0487 H   0  0  0  0  0  0  0  0  0  0  0  0
  1  2  1  0
  1  6  2  0
  2  3  2  0
  2 34  1  0
  3  4  1  0
  3  7  1  0
  4  5  2  0
  4 35  1  0
  5  6  1  0
  5 36  1  0
  6 37  1  0
  7  8  1  0
  7 11  1  0
  7 38  1  6
  8  9  1  0
  8 10  1  0
  9 39  1  1
  9 40  1  0
  9 41  1  0
 10 42  1  1
 10 43  1  0
 10 44  1  0
 11 12  1  0
 11 45  1  1
 11 46  1  0
 12 13  1  0
 12 33  1  6
 12 64  1  0
 13 14  1  0
 13 47  1  1
 13 48  1  0
 14 15  1  0
 14 18  2  0
 15 16  2  0
 15 26  1  0
 16 17  1  0
 17 18  1  0
 17 19  1  0
 18 49  1  0
 19 20  1  0
 19 50  1  6
 19 51  1  0
 20 21  2  0
 20 25  1  0
 21 22  1  0
 21 52  1  0
 22 23  2  0
 22 53  1  0
 23 24  1  0
 23 54  1  0
 24 25  2  0
 24 55  1  0
 25 56  1  0
 26 27  2  0
 26 31  1  0
 27 28  1  0
 27 57  1  0
 28 29  2  0
 28 32  1  0
 29 30  1  0
 29 58  1  0
 30 31  2  0
 30 59  1  0
 31 60  1  0
 32 61  1  1
 32 62  1  0
 32 63  1  0
M  CHG  1  12   1
M  END
>  <s_epik_cmdline>  (597) 
J2VwaWtfcHl0aG9uJywgJy1waCcsICc3LjAwMDAwMCcsICctcGh0JywgJzIuMDAwMDAwJywgJy1tcycsICcxNicsICctdG4nLCAnOCcsICctbWEnLCAnMjAwJywgJy1pbWFlJywgJzxpbmZpbGUubWFlPicsICctb21hZScsICc8b3V0ZmlsZS5tYWU+Jw==

>  <s_epik_input>  (597) 
W2NIXTFbY0hdW2NIXW5bY0hdYzFbQ0BIXShOKFtDSDNdKVtDSDNdKVtDSDJdW05IXVtDSDJdYzJjKC1jM1tjSF1jKFtDSDNdKVtjSF1bY0hdW2NIXTMpbm4oW2NIXTIpW0NIMl1jNFtjSF1bY0hdW2NIXVtjSF1bY0hdNA==

>  <s_i_glide_gridfile>  (597) 
ATP-Grid

>  <s_lp_Force_Field>  (597) 
OPLS_2005

>  <s_lp_Variant>  (597) 
m_270004bbb____8350152____7547616-2

>  <s_lp_label>  (597) 
1135_sdstereoexpander_2_neutralizer_1_epik_1_stereoizer_1

>  <s_m_source_file>  (597) 
ATP-VSW-LIGPREP-002-in.maegz

>  <s_sd_BIOSOLVEIT.INFINISEE\_QUERY\_NAME>  (597) 
Ref-Lig

>  <s_sd_BIOSOLVEIT.INFINISEE\_QUERY\_SMILES>  (597) 
S(c1nc2c(cc1C[NH2+]Cc3ccc(cc3)C[NH+](C)C)cccc2)Cc4ccccc4

>  <s_sd_BIOSOLVEIT.INFINISEE\_REACTION\_NAME>  (597) 
m_270004bbb

>  <s_sd_BIOSOLVEIT.INFINISEE\_REAGENT1\_SMILES>  (597) 
[R1*]NCC(N(C)C)c1cnccc1

>  <s_sd_BIOSOLVEIT.INFINISEE\_REAGENT2\_SMILES>  (597) 
[R1*]CC=1C(=NN(C1)Cc2ccccc2)c3cc(ccc3)C

>  <s_sd_BIOSOLVEIT.INFINISEE\_SPACE>  (597) 
REALSpace_44bn_2023-08

>  <s_vsw_compound_code>  (597) 
36290

>  <s_vsw_variant>  (597) 
36290-2

>  <r_epik_Charging_Adjusted_Penalty>  (597) 
0.15273197061539001

>  <r_epik_Ionization_Penalty>  (597) 
0.046100000000000002

>  <r_epik_Ionization_Penalty_Charging>  (597) 
0.041599999999999998

>  <r_epik_Ionization_Penalty_Neutral>  (597) 
0.0044999999999999997

>  <r_epik_State_Penalty>  (597) 
0.1111

>  <r_i_docking_score>  (597) 
-4.5901138454331702

>  <r_i_glide_ecoul>  (597) 
-8.6149816513061506

>  <r_i_glide_eff_state_penalty>  (597) 
0.1111

>  <r_i_glide_einternal>  (597) 
6.8688774108886701

>  <r_i_glide_emodel>  (597) 
-61.106380221542999

>  <r_i_glide_energy>  (597) 
-45.662009239196799

>  <r_i_glide_erotb>  (597) 
0.76349423317314502

>  <r_i_glide_esite>  (597) 
-0.060494392914832003

>  <r_i_glide_evdw>  (597) 
-37.047027587890597

>  <r_i_glide_gscore>  (597) 
-4.7012138454331698

>  <r_i_glide_hbond>  (597) 
0

>  <r_i_glide_ligand_efficiency>  (597) 
-0.14344105766978699

>  <r_i_glide_ligand_efficiency_ln>  (597) 
-1.0278516117702901

>  <r_i_glide_ligand_efficiency_sa>  (597) 
-0.45539697115480499

>  <r_i_glide_lipo>  (597) 
-1.4610852181790299

>  <r_i_glide_metal>  (597) 
-0

>  <r_i_glide_rewards>  (597) 
-0.79852984042200104

>  <r_lp_Energy>  (597) 
24.734237

>  <r_lp_tautomer_probability>  (597) 
1

>  <r_qp_ACxDN^.5/SA>  (597) 
0.0083809999999999996

>  <r_qp_CIQPlogS>  (597) 
-4.5469999999999997

>  <r_qp_EA(eV)>  (597) 
0.114

>  <r_qp_FISA>  (597) 
46.755000000000003

>  <r_qp_FOSA>  (597) 
282.73000000000002

>  <r_qp_IP(eV)>  (597) 
8.9220000000000006

>  <r_qp_Jm>  (597) 
0.00180515002484386

>  <r_qp_PISA>  (597) 
446.08300000000003

>  <r_qp_PSA>  (597) 
46.209000000000003

>  <r_qp_PercentHumanOralAbsorption>  (597) 
96.921000000000006

>  <r_qp_QPPCaco>  (597) 
221.98599999999999

>  <r_qp_QPPMDCK>  (597) 
119.005

>  <r_qp_QPlogBB>  (597) 
0.38800000000000001

>  <r_qp_QPlogHERG>  (597) 
-8.3919999999999995

>  <r_qp_QPlogKhsa>  (597) 
0.91600000000000004

>  <r_qp_QPlogKp>  (597) 
-4.1669999999999998

>  <r_qp_QPlogPC16>  (597) 
15.397

>  <r_qp_QPlogPo/w>  (597) 
4.7789999999999999

>  <r_qp_QPlogPoct>  (597) 
21.710000000000001

>  <r_qp_QPlogPw>  (597) 
11.039999999999999

>  <r_qp_QPlogS>  (597) 
-4.2060000000000004

>  <r_qp_QPpolrz>  (597) 
50.831000000000003

>  <r_qp_SASA>  (597) 
775.56799999999998

>  <r_qp_SAamideO>  (597) 
0

>  <r_qp_SAfluorine>  (597) 
0

>  <r_qp_WPSA>  (597) 
0

>  <r_qp_accptHB>  (597) 
6.5

>  <r_qp_dip^2/V>  (597) 
0.00043550000000000001

>  <r_qp_dipole>  (597) 
0.79400000000000004

>  <r_qp_donorHB>  (597) 
1

>  <r_qp_glob>  (597) 
0.79729700000000003

>  <r_qp_mol_MW>  (597) 
425.57499999999999

>  <r_qp_volume>  (597) 
1445.8130000000001

>  <r_sd_BIOSOLVEIT.INFINISEE\_FTREES\_SIMILARITY>  (597) 
0.91300000000000003

>  <r_sd_BIOSOLVEIT.LOGP>  (597) 
2.25102

>  <r_sd_BIOSOLVEIT.MOLECULAR\_WEIGHT>  (597) 
427.59300000000002

>  <r_sd_BIOSOLVEIT.TPSA>  (597) 
51.759999999999998

>  <i_epik_Tot_Q>  (597) 
1

>  <i_epik_Tot_abs_Q>  (597) 
1

>  <i_f3d_flags>  (597) 
0

>  <i_i_glide_confnum>  (597) 
8

>  <i_i_glide_lignum>  (597) 
384

>  <i_i_glide_posenum>  (597) 
19

>  <i_i_glide_rotatable_bonds>  (597) 
9

>  <i_lp_mmshare_version>  (597) 
65135

>  <i_m_ct_format>  (597) 
2

>  <i_m_source_file_index>  (597) 
1135

>  <i_qp_#NandO>  (597) 
5

>  <i_qp_#acid>  (597) 
0

>  <i_qp_#amide>  (597) 
0

>  <i_qp_#amidine>  (597) 
0

>  <i_qp_#amine>  (597) 
2

>  <i_qp_#in34>  (597) 
0

>  <i_qp_#in56>  (597) 
23

>  <i_qp_#metab>  (597) 
9

>  <i_qp_#nonHatm>  (597) 
32

>  <i_qp_#noncon>  (597) 
0

>  <i_qp_#ringatoms>  (597) 
23

>  <i_qp_#rotor>  (597) 
8

>  <i_qp_#rtvFG>  (597) 
0

>  <i_qp_#stars>  (597) 
2

>  <i_qp_CNS>  (597) 
1

>  <i_qp_HumanOralAbsorption>  (597) 
3

>  <i_qp_RuleOfFive>  (597) 
0

>  <i_qp_RuleOfThree>  (597) 
1

>  <i_sd_BIOSOLVEIT.INFINISEE\_REAGENT1\_NAME>  (597) 
8350152

>  <i_sd_BIOSOLVEIT.INFINISEE\_REAGENT2\_NAME>  (597) 
7547616

>  <i_sd_BIOSOLVEIT.INFINISEE\_RESULT\_RANK>  (597) 
35770

>  <i_sd_version>  (597) 
0

>  <b_lp_Chiralities_Consistent>  (597) 
1

>  <b_sd_chiral_flag>  (597) 
0

>  <canonical_id>  (597) 
ATP-HTVS-5C2621A0B526

>  <compound_code>  (597) 
36290

>  <title>  (597) 
m_270004bbb____8350152____7547616

>  <variant>  (597) 
36290-2

>  <source_file>  (597) 
运行/运行/ATP-VSW/ATP-VSW-DOCK_HTVS_1-002_lib.maegz

>  <canonical_smiles>  (597) 
Cc1cccc(-c2nn(Cc3ccccc3)cc2C[NH2+]C[C@H](c2cccnc2)N(C)C)c1

>  <scaffold>  (597) 
c1ccc(Cn2cc(C[NH2+]CCc3cccnc3)c(-c3ccccc3)n2)cc1

>  <molecular_formula>  (597) 
C27H32N5+

$$$$
ATP-HTVS-5C29B6179A0F
     RDKit          3D

 70 74  0  0  0  0  0  0  0  0999 V2000
  198.6455  184.6039  154.0217 O   0  0  0  0  0  0  0  0  0  0  0  0
  198.5550  184.0638  155.1242 C   0  0  0  0  0  0  0  0  0  0  0  0
  198.3484  184.7090  156.2931 N   0  0  0  0  0  0  0  0  0  0  0  0
  198.3493  186.1130  156.5710 C   0  0  0  0  0  0  0  0  0  0  0  0
  198.3763  186.5709  157.9242 C   0  0  0  0  0  0  0  0  0  0  0  0
  198.3821  185.6398  158.9925 N   0  0  0  0  0  0  0  0  0  0  0  0
  197.1707  185.4520  159.8140 C   0  0  1  0  0  0  0  0  0  0  0  0
  196.4272  186.6910  160.1187 C   0  0  0  0  0  0  0  0  0  0  0  0
  195.8480  187.6548  160.3644 N   0  0  0  0  0  0  0  0  0  0  0  0
  196.1965  184.3742  159.3531 C   0  0  0  0  0  0  0  0  0  0  0  0
  196.6836  183.1008  158.9756 C   0  0  0  0  0  0  0  0  0  0  0  0
  195.7942  182.0997  158.5684 C   0  0  0  0  0  0  0  0  0  0  0  0
  194.4087  182.3418  158.5352 C   0  0  0  0  0  0  0  0  0  0  0  0
  193.9093  183.6004  158.9203 C   0  0  0  0  0  0  0  0  0  0  0  0
  194.7948  184.6062  159.3323 C   0  0  0  0  0  0  0  0  0  0  0  0
  199.7120  185.3061  159.5045 C   0  0  1  0  0  0  0  0  0  0  0  0
  199.9177  183.8113  159.7994 C   0  0  2  0  0  0  0  0  0  0  0  0
  198.4216  187.9732  158.1794 C   0  0  0  0  0  0  0  0  0  0  0  0
  198.4112  188.8844  157.0939 C   0  0  0  0  0  0  0  0  0  0  0  0
  198.3746  188.3957  155.8343 N   0  0  0  0  0  0  0  0  0  0  0  0
  198.3352  187.0822  155.5343 C   0  0  0  0  0  0  0  0  0  0  0  0
  198.3860  190.2775  157.3061 C   0  0  0  0  0  0  0  0  0  0  0  0
  198.3817  190.7864  158.6200 C   0  0  0  0  0  0  0  0  0  0  0  0
  198.4277  189.8943  159.7070 C   0  0  0  0  0  0  0  0  0  0  0  0
  198.4793  188.5099  159.4890 C   0  0  0  0  0  0  0  0  0  0  0  0
  198.6865  182.5755  155.2341 C   0  0  0  0  0  0  0  0  0  0  0  0
  198.1414  181.7269  154.2418 C   0  0  0  0  0  0  0  0  0  0  0  0
  198.2863  180.3283  154.3550 C   0  0  0  0  0  0  0  0  0  0  0  0
  198.9767  179.7705  155.4536 C   0  0  0  0  0  0  0  0  0  0  0  0
  199.5280  180.6171  156.4377 C   0  0  0  0  0  0  0  0  0  0  0  0
  199.4148  182.0110  156.3068 C   0  0  0  0  0  0  0  0  0  0  0  0
  199.1467  178.2708  155.5677 C   0  0  1  0  0  0  0  0  0  0  0  0
  200.5581  177.8561  155.4914 N   0  0  1  0  0  0  0  0  0  0  0  0
  200.7790  176.4366  155.8149 C   0  0  1  0  0  0  0  0  0  0  0  0
  202.1928  176.1562  155.3065 C   0  0  1  0  0  0  0  0  0  0  0  0
  202.4582  177.2299  154.2375 C   0  0  1  0  0  0  0  0  0  0  0  0
  201.1806  178.0641  154.1776 C   0  0  1  0  0  0  0  0  0  0  0  0
  198.2532  184.1122  157.1049 H   0  0  0  0  0  0  0  0  0  0  0  0
  197.4980  185.1624  160.8040 H   0  0  0  0  0  0  0  0  0  0  0  0
  197.7290  182.8510  158.9985 H   0  0  0  0  0  0  0  0  0  0  0  0
  196.1905  181.1391  158.2805 H   0  0  0  0  0  0  0  0  0  0  0  0
  193.7305  181.5717  158.1924 H   0  0  0  0  0  0  0  0  0  0  0  0
  192.8527  183.8195  158.8863 H   0  0  0  0  0  0  0  0  0  0  0  0
  194.3428  185.5470  159.6168 H   0  0  0  0  0  0  0  0  0  0  0  0
  200.4710  185.6140  158.7830 H   0  0  0  0  0  0  0  0  0  0  0  0
  199.9078  185.8726  160.4102 H   0  0  0  0  0  0  0  0  0  0  0  0
  200.9192  183.6041  160.1849 H   0  0  0  0  0  0  0  0  0  0  0  0
  199.7822  183.2051  158.9145 H   0  0  0  0  0  0  0  0  0  0  0  0
  199.1928  183.4658  160.5285 H   0  0  0  0  0  0  0  0  0  0  0  0
  198.3076  186.8723  154.4780 H   0  0  0  0  0  0  0  0  0  0  0  0
  198.3242  190.9686  156.4727 H   0  0  0  0  0  0  0  0  0  0  0  0
  198.3087  191.8601  158.7961 H   0  0  0  0  0  0  0  0  0  0  0  0
  198.4009  190.2599  160.7185 H   0  0  0  0  0  0  0  0  0  0  0  0
  198.5746  187.8586  160.3656 H   0  0  0  0  0  0  0  0  0  0  0  0
  197.6166  182.1495  153.3937 H   0  0  0  0  0  0  0  0  0  0  0  0
  197.8753  179.6877  153.5886 H   0  0  0  0  0  0  0  0  0  0  0  0
  200.0752  180.2065  157.2734 H   0  0  0  0  0  0  0  0  0  0  0  0
  199.9056  182.6511  157.0197 H   0  0  0  0  0  0  0  0  0  0  0  0
  198.7648  177.9502  156.5414 H   0  0  0  0  0  0  0  0  0  0  0  0
  198.5320  177.7866  154.8123 H   0  0  0  0  0  0  0  0  0  0  0  0
  200.6456  176.2221  156.8766 H   0  0  0  0  0  0  0  0  0  0  0  0
  200.0608  175.8295  155.2562 H   0  0  0  0  0  0  0  0  0  0  0  0
  202.9061  176.2471  156.1252 H   0  0  0  0  0  0  0  0  0  0  0  0
  202.2851  175.1459  154.9164 H   0  0  0  0  0  0  0  0  0  0  0  0
  203.2995  177.8562  154.5366 H   0  0  0  0  0  0  0  0  0  0  0  0
  202.6948  176.8044  153.2659 H   0  0  0  0  0  0  0  0  0  0  0  0
  200.5144  177.6641  153.4054 H   0  0  0  0  0  0  0  0  0  0  0  0
  201.3539  179.1193  153.9556 H   0  0  0  0  0  0  0  0  0  0  0  0
  201.0770  178.3958  156.1710 H   0  0  0  0  0  0  0  0  0  0  0  0
  198.3384  189.0569  155.0536 H   0  0  0  0  0  0  0  0  0  0  0  0
  1  2  2  0
  2  3  1  0
  2 26  1  0
  3  4  1  0
  3 38  1  0
  4  5  2  0
  4 21  1  0
  5  6  1  0
  5 18  1  0
  6  7  1  0
  6 16  1  0
  7  8  1  0
  7 10  1  0
  7 39  1  1
  8  9  3  0
 10 11  2  0
 10 15  1  0
 11 12  1  0
 11 40  1  0
 12 13  2  0
 12 41  1  0
 13 14  1  0
 13 42  1  0
 14 15  2  0
 14 43  1  0
 15 44  1  0
 16 17  1  0
 16 45  1  6
 16 46  1  0
 17 47  1  1
 17 48  1  0
 17 49  1  0
 18 19  1  0
 18 25  2  0
 19 20  1  0
 19 22  2  0
 20 21  2  0
 20 70  1  0
 21 50  1  0
 22 23  1  0
 22 51  1  0
 23 24  2  0
 23 52  1  0
 24 25  1  0
 24 53  1  0
 25 54  1  0
 26 27  1  0
 26 31  2  0
 27 28  2  0
 27 55  1  0
 28 29  1  0
 28 56  1  0
 29 30  2  0
 29 32  1  0
 30 31  1  0
 30 57  1  0
 31 58  1  0
 32 33  1  0
 32 59  1  1
 32 60  1  0
 33 34  1  0
 33 37  1  0
 33 69  1  1
 34 35  1  0
 34 61  1  1
 34 62  1  0
 35 36  1  0
 35 63  1  1
 35 64  1  0
 36 37  1  0
 36 65  1  1
 36 66  1  0
 37 67  1  6
 37 68  1  0
M  CHG  2  20   1  33   1
M  END
>  <s_epik_cmdline>  (598) 
J2VwaWtfcHl0aG9uJywgJy1waCcsICc3LjAwMDAwMCcsICctcGh0JywgJzIuMDAwMDAwJywgJy1tcycsICcxNicsICctdG4nLCAnOCcsICctbWEnLCAnMjAwJywgJy1pbWFlJywgJzxpbmZpbGUubWFlPicsICctb21hZScsICc8b3V0ZmlsZS5tYWU+Jw==

>  <s_epik_input>  (598) 
W0NIMl0xW0NIMl1bQ0gyXVtDSDJdTjFbQ0gyXWMoW2NIXVtjSF0yKVtjSF1bY0hdYzJDKD1PKVtOSF1jKFtjSF1uYyhjMzQpW2NIXVtjSF1bY0hdW2NIXTQpYzNOKFtDSDJdW0NIM10pW0NAQEhdKEMjTiljNVtjSF1bY0hdW2NIXVtjSF1bY0hdNQ==

>  <s_i_glide_gridfile>  (598) 
ATP-Grid

>  <s_lp_Force_Field>  (598) 
OPLS_2005

>  <s_lp_Variant>  (598) 
rxn502b____EMOL36726524____EMOL30488121____EMOL49839592-1

>  <s_lp_label>  (598) 
2981_sdstereoexpander_1_neutralizer_1_epik_1_stereoizer_1

>  <s_m_source_file>  (598) 
ATP-VSW-LIGPREP-002-in.maegz

>  <s_sd_BIOSOLVEIT.INFINISEE\_QUERY\_NAME>  (598) 
Ref-Lig

>  <s_sd_BIOSOLVEIT.INFINISEE\_QUERY\_SMILES>  (598) 
S(c1nc2c(cc1C[NH2+]Cc3ccc(cc3)C[NH+](C)C)cccc2)Cc4ccccc4

>  <s_sd_BIOSOLVEIT.INFINISEE\_REACTION\_NAME>  (598) 
rxn502b

>  <s_sd_BIOSOLVEIT.INFINISEE\_REAGENT1\_NAME>  (598) 
EMOL36726524

>  <s_sd_BIOSOLVEIT.INFINISEE\_REAGENT1\_SMILES>  (598) 
O=C(O)c1ccc(cc1)CN2CCCC2

>  <s_sd_BIOSOLVEIT.INFINISEE\_REAGENT2\_NAME>  (598) 
EMOL30488121

>  <s_sd_BIOSOLVEIT.INFINISEE\_REAGENT2\_SMILES>  (598) 
Brc1c(N)cnc2c1cccc2

>  <s_sd_BIOSOLVEIT.INFINISEE\_REAGENT3\_NAME>  (598) 
EMOL49839592

>  <s_sd_BIOSOLVEIT.INFINISEE\_REAGENT3\_SMILES>  (598) 
N#CC(NCC)c1ccccc1

>  <s_sd_BIOSOLVEIT.INFINISEE\_SPACE>  (598) 
eXplore_7tr_2022-12

>  <s_vsw_compound_code>  (598) 
95362

>  <s_vsw_variant>  (598) 
95362-1

>  <r_epik_Charging_Adjusted_Penalty>  (598) 
0.26160961441021902

>  <r_epik_Ionization_Penalty>  (598) 
0.13070000000000001

>  <r_epik_Ionization_Penalty_Charging>  (598) 
0.13059999999999999

>  <r_epik_Ionization_Penalty_Neutral>  (598) 
0.0001

>  <r_epik_State_Penalty>  (598) 
0.13100000000000001

>  <r_i_docking_score>  (598) 
-4.2978632120271598

>  <r_i_glide_ecoul>  (598) 
-7.9837703704834002

>  <r_i_glide_eff_state_penalty>  (598) 
0.13100000000000001

>  <r_i_glide_einternal>  (598) 
5.0479106903076199

>  <r_i_glide_emodel>  (598) 
-60.104561758438699

>  <r_i_glide_energy>  (598) 
-42.514001846313498

>  <r_i_glide_erotb>  (598) 
0.67386511502589597

>  <r_i_glide_esite>  (598) 
-0.0102744628329465

>  <r_i_glide_evdw>  (598) 
-34.530231475830099

>  <r_i_glide_gscore>  (598) 
-4.42886321202716

>  <r_i_glide_hbond>  (598) 
0

>  <r_i_glide_ligand_efficiency>  (598) 
-0.116158465189923

>  <r_i_glide_ligand_efficiency_ln>  (598) 
-0.93210577447961096

>  <r_i_glide_ligand_efficiency_sa>  (598) 
-0.38706577549363003

>  <r_i_glide_lipo>  (598) 
-1.42923303872817

>  <r_i_glide_metal>  (598) 
-0

>  <r_i_glide_rewards>  (598) 
-0.73914369612792197

>  <r_lp_Energy>  (598) 
60.744269000000003

>  <r_qp_ACxDN^.5/SA>  (598) 
0.0099030000000000003

>  <r_qp_CIQPlogS>  (598) 
-7.266

>  <r_qp_EA(eV)>  (598) 
1.093

>  <r_qp_FISA>  (598) 
86.682000000000002

>  <r_qp_FOSA>  (598) 
317.89999999999998

>  <r_qp_IP(eV)>  (598) 
8.7119999999999997

>  <r_qp_Jm>  (598) 
0.000358415808463994

>  <r_qp_PISA>  (598) 
403.25099999999998

>  <r_qp_PSA>  (598) 
71.841999999999999

>  <r_qp_PercentHumanOralAbsorption>  (598) 
100

>  <r_qp_QPPCaco>  (598) 
372.214

>  <r_qp_QPPMDCK>  (598) 
188.065

>  <r_qp_QPlogBB>  (598) 
-0.47999999999999998

>  <r_qp_QPlogHERG>  (598) 
-7.3949999999999996

>  <r_qp_QPlogKhsa>  (598) 
0.83699999999999997

>  <r_qp_QPlogKp>  (598) 
-2.895

>  <r_qp_QPlogPC16>  (598) 
16.279

>  <r_qp_QPlogPo/w>  (598) 
4.9889999999999999

>  <r_qp_QPlogPoct>  (598) 
24.265999999999998

>  <r_qp_QPlogPw>  (598) 
12.355

>  <r_qp_QPlogS>  (598) 
-6.2400000000000002

>  <r_qp_QPpolrz>  (598) 
53.905000000000001

>  <r_qp_SASA>  (598) 
807.83299999999997

>  <r_qp_SAamideO>  (598) 
0

>  <r_qp_SAfluorine>  (598) 
0

>  <r_qp_WPSA>  (598) 
0

>  <r_qp_accptHB>  (598) 
8

>  <r_qp_dip^2/V>  (598) 
0.0377568

>  <r_qp_dipole>  (598) 
7.6470000000000002

>  <r_qp_donorHB>  (598) 
1

>  <r_qp_glob>  (598) 
0.80141870000000004

>  <r_qp_mol_MW>  (598) 
489.61900000000003

>  <r_qp_volume>  (598) 
1548.902

>  <r_sd_BIOSOLVEIT.INFINISEE\_FTREES\_SIMILARITY>  (598) 
0.90300000000000002

>  <r_sd_BIOSOLVEIT.LOGP>  (598) 
4.7569800000000004

>  <r_sd_BIOSOLVEIT.MOLECULAR\_WEIGHT>  (598) 
490.62799999999999

>  <r_sd_BIOSOLVEIT.TPSA>  (598) 
73.459999999999994

>  <i_epik_Tot_Q>  (598) 
2

>  <i_epik_Tot_abs_Q>  (598) 
2

>  <i_f3d_flags>  (598) 
0

>  <i_i_glide_confnum>  (598) 
6

>  <i_i_glide_lignum>  (598) 
34

>  <i_i_glide_posenum>  (598) 
17

>  <i_i_glide_rotatable_bonds>  (598) 
9

>  <i_lp_mmshare_version>  (598) 
65135

>  <i_m_ct_format>  (598) 
2

>  <i_m_source_file_index>  (598) 
2981

>  <i_qp_#NandO>  (598) 
6

>  <i_qp_#acid>  (598) 
0

>  <i_qp_#amide>  (598) 
0

>  <i_qp_#amidine>  (598) 
0

>  <i_qp_#amine>  (598) 
1

>  <i_qp_#in34>  (598) 
0

>  <i_qp_#in56>  (598) 
27

>  <i_qp_#metab>  (598) 
6

>  <i_qp_#nonHatm>  (598) 
37

>  <i_qp_#noncon>  (598) 
4

>  <i_qp_#ringatoms>  (598) 
27

>  <i_qp_#rotor>  (598) 
9

>  <i_qp_#rtvFG>  (598) 
0

>  <i_qp_#stars>  (598) 
0

>  <i_qp_CNS>  (598) 
1

>  <i_qp_HumanOralAbsorption>  (598) 
1

>  <i_qp_RuleOfFive>  (598) 
0

>  <i_qp_RuleOfThree>  (598) 
1

>  <i_sd_BIOSOLVEIT.INFINISEE\_RESULT\_RANK>  (598) 
83706

>  <i_sd_version>  (598) 
0

>  <b_lp_Chiralities_Consistent>  (598) 
1

>  <b_sd_chiral_flag>  (598) 
0

>  <canonical_id>  (598) 
ATP-HTVS-5C29B6179A0F

>  <compound_code>  (598) 
95362

>  <title>  (598) 
rxn502b____EMOL36726524____EMOL30488121____EMOL49839592

>  <variant>  (598) 
95362-1

>  <source_file>  (598) 
运行/运行/ATP-VSW/ATP-VSW-DOCK_HTVS_1-003_lib/ATP-VSW-DOCK_HTVS_1-003_lib.mae

>  <canonical_smiles>  (598) 
CCN(c1c(NC(=O)c2ccc(C[NH+]3CCCC3)cc2)c[nH+]c2ccccc12)[C@@H](C#N)c1ccccc1

>  <scaffold>  (598) 
O=C(Nc1c[nH+]c2ccccc2c1NCc1ccccc1)c1ccc(C[NH+]2CCCC2)cc1

>  <molecular_formula>  (598) 
C31H33N5O+2

$$$$
ATP-HTVS-5CE7EF7F1B66
     RDKit          3D

 65 68  0  0  0  0  0  0  0  0999 V2000
  203.2057  173.9320  156.2294 F   0  0  0  0  0  0  0  0  0  0  0  0
  202.5197  174.8396  155.4940 C   0  0  0  0  0  0  0  0  0  0  0  0
  202.5831  174.8161  154.0813 C   0  0  0  0  0  0  0  0  0  0  0  0
  203.4128  173.8355  153.3871 C   0  0  0  0  0  0  0  0  0  0  0  0
  204.0708  173.0667  152.8276 N   0  0  0  0  0  0  0  0  0  0  0  0
  201.8667  175.7701  153.3293 C   0  0  0  0  0  0  0  0  0  0  0  0
  201.0897  176.7537  153.9800 C   0  0  0  0  0  0  0  0  0  0  0  0
  201.0401  176.7782  155.3901 C   0  0  0  0  0  0  0  0  0  0  0  0
  201.7433  175.8212  156.1449 C   0  0  0  0  0  0  0  0  0  0  0  0
  200.4154  177.8217  153.1815 C   0  0  0  0  0  0  0  0  0  0  0  0
  200.6264  179.0025  153.4491 O   0  0  0  0  0  0  0  0  0  0  0  0
  199.5836  177.3749  152.2205 N   0  0  0  0  0  0  0  0  0  0  0  0
  199.0395  178.1105  151.1259 C   0  0  0  0  0  0  0  0  0  0  0  0
  198.3215  179.3266  151.2926 C   0  0  0  0  0  0  0  0  0  0  0  0
  198.0299  179.8230  152.5696 N   0  0  0  0  0  0  0  0  0  0  0  0
  197.8745  181.2560  152.7670 C   0  0  1  0  0  0  0  0  0  0  0  0
  197.7084  181.6016  154.2298 C   0  0  0  0  0  0  0  0  0  0  0  0
  196.5914  181.1108  154.9242 C   0  0  0  0  0  0  0  0  0  0  0  0
  196.3838  181.4445  156.2728 C   0  0  0  0  0  0  0  0  0  0  0  0
  197.3200  182.2426  156.9569 C   0  0  0  0  0  0  0  0  0  0  0  0
  198.4776  182.6846  156.2708 C   0  0  0  0  0  0  0  0  0  0  0  0
  198.6581  182.3905  154.9067 C   0  0  0  0  0  0  0  0  0  0  0  0
  197.0666  182.6245  158.4142 C   0  0  1  0  0  0  0  0  0  0  0  0
  196.4082  183.9591  158.5580 N   0  0  2  0  0  0  0  0  0  0  0  0
  197.1932  185.0849  157.9626 C   0  0  1  0  0  0  0  0  0  0  0  0
  198.5151  185.3651  158.7165 C   0  0  2  0  0  0  0  0  0  0  0  0
  195.9726  184.2143  159.9629 C   0  0  1  0  0  0  0  0  0  0  0  0
  195.2476  185.5604  160.1771 C   0  0  2  0  0  0  0  0  0  0  0  0
  197.8724  179.9865  150.1269 C   0  0  0  0  0  0  0  0  0  0  0  0
  198.0467  179.5161  148.8810 N   0  0  0  0  0  0  0  0  0  0  0  0
  198.6706  178.3335  148.7160 C   0  0  0  0  0  0  0  0  0  0  0  0
  199.1848  177.5842  149.8135 C   0  0  0  0  0  0  0  0  0  0  0  0
  199.8298  176.3401  149.5625 C   0  0  0  0  0  0  0  0  0  0  0  0
  199.9571  175.8553  148.2502 C   0  0  0  0  0  0  0  0  0  0  0  0
  199.4592  176.6028  147.1707 C   0  0  0  0  0  0  0  0  0  0  0  0
  198.8112  177.8258  147.4107 C   0  0  0  0  0  0  0  0  0  0  0  0
  201.9539  175.7813  152.2504 H   0  0  0  0  0  0  0  0  0  0  0  0
  200.4738  177.5474  155.8926 H   0  0  0  0  0  0  0  0  0  0  0  0
  201.7091  175.8562  157.2228 H   0  0  0  0  0  0  0  0  0  0  0  0
  199.5226  176.3724  152.1438 H   0  0  0  0  0  0  0  0  0  0  0  0
  198.5721  179.3920  153.3067 H   0  0  0  0  0  0  0  0  0  0  0  0
  198.7439  181.7693  152.3599 H   0  0  0  0  0  0  0  0  0  0  0  0
  196.9866  181.6297  152.2477 H   0  0  0  0  0  0  0  0  0  0  0  0
  195.8850  180.4856  154.4058 H   0  0  0  0  0  0  0  0  0  0  0  0
  195.5045  181.0722  156.7814 H   0  0  0  0  0  0  0  0  0  0  0  0
  199.2155  183.2938  156.7700 H   0  0  0  0  0  0  0  0  0  0  0  0
  199.5244  182.7725  154.3895 H   0  0  0  0  0  0  0  0  0  0  0  0
  196.4526  181.8473  158.8837 H   0  0  0  0  0  0  0  0  0  0  0  0
  198.0137  182.6081  158.9563 H   0  0  0  0  0  0  0  0  0  0  0  0
  197.3968  184.8926  156.9087 H   0  0  0  0  0  0  0  0  0  0  0  0
  196.5782  185.9834  157.9164 H   0  0  0  0  0  0  0  0  0  0  0  0
  199.0434  186.2074  158.2802 H   0  0  0  0  0  0  0  0  0  0  0  0
  199.2002  184.5200  158.6916 H   0  0  0  0  0  0  0  0  0  0  0  0
  198.3601  185.6040  159.7666 H   0  0  0  0  0  0  0  0  0  0  0  0
  195.2909  183.4212  160.2687 H   0  0  0  0  0  0  0  0  0  0  0  0
  196.8299  184.1380  160.6320 H   0  0  0  0  0  0  0  0  0  0  0  0
  194.9426  185.6837  161.2164 H   0  0  0  0  0  0  0  0  0  0  0  0
  194.3507  185.6021  159.5647 H   0  0  0  0  0  0  0  0  0  0  0  0
  195.8606  186.4301  159.9338 H   0  0  0  0  0  0  0  0  0  0  0  0
  197.3506  180.9338  150.1786 H   0  0  0  0  0  0  0  0  0  0  0  0
  200.2357  175.7421  150.3612 H   0  0  0  0  0  0  0  0  0  0  0  0
  200.4476  174.9081  148.0665 H   0  0  0  0  0  0  0  0  0  0  0  0
  199.5713  176.2426  146.1564 H   0  0  0  0  0  0  0  0  0  0  0  0
  198.4289  178.3902  146.5719 H   0  0  0  0  0  0  0  0  0  0  0  0
  195.5609  183.8727  158.0106 H   0  0  0  0  0  0  0  0  0  0  0  0
  1  2  1  0
  2  3  2  0
  2  9  1  0
  3  4  1  0
  3  6  1  0
  4  5  3  0
  6  7  2  0
  6 37  1  0
  7  8  1  0
  7 10  1  0
  8  9  2  0
  8 38  1  0
  9 39  1  0
 10 11  2  0
 10 12  1  0
 12 13  1  0
 12 40  1  0
 13 14  2  0
 13 32  1  0
 14 15  1  0
 14 29  1  0
 15 16  1  0
 15 41  1  0
 16 17  1  0
 16 42  1  6
 16 43  1  0
 17 18  1  0
 17 22  2  0
 18 19  2  0
 18 44  1  0
 19 20  1  0
 19 45  1  0
 20 21  2  0
 20 23  1  0
 21 22  1  0
 21 46  1  0
 22 47  1  0
 23 24  1  0
 23 48  1  1
 23 49  1  0
 24 25  1  0
 24 27  1  0
 24 65  1  6
 25 26  1  0
 25 50  1  6
 25 51  1  0
 26 52  1  6
 26 53  1  0
 26 54  1  0
 27 28  1  0
 27 55  1  1
 27 56  1  0
 28 57  1  1
 28 58  1  0
 28 59  1  0
 29 30  2  0
 29 60  1  0
 30 31  1  0
 31 32  1  0
 31 36  2  0
 32 33  2  0
 33 34  1  0
 33 61  1  0
 34 35  2  0
 34 62  1  0
 35 36  1  0
 35 63  1  0
 36 64  1  0
M  CHG  1  24   1
M  END
>  <s_epik_cmdline>  (599) 
J2VwaWtfcHl0aG9uJywgJy1waCcsICc3LjAwMDAwMCcsICctcGh0JywgJzIuMDAwMDAwJywgJy1tcycsICcxNicsICctdG4nLCAnOCcsICctbWEnLCAnMjAwJywgJy1pbWFlJywgJzxpbmZpbGUubWFlPicsICctb21hZScsICc8b3V0ZmlsZS5tYWU+Jw==

>  <s_epik_input>  (599) 
RmMxYyhDI04pW2NIXWMoW2NIXVtjSF0xKUMoPU8pW05IXWMoYyhjMjMpW2NIXVtjSF1bY0hdW2NIXTMpYyhbY0hdbjIpW05IXVtDSDJdYzRbY0hdW2NIXWMoW2NIXVtjSF00KVtDSDJdTihbQ0gyXVtDSDNdKVtDSDJdW0NIM10=

>  <s_i_glide_gridfile>  (599) 
ATP-Grid

>  <s_lp_Force_Field>  (599) 
OPLS_2005

>  <s_lp_Variant>  (599) 
rxn502b____EMOL908682____EMOL13728749____EMOL2868412-1

>  <s_lp_label>  (599) 
2637_sdstereoexpander_1_neutralizer_1_epik_1_stereoizer_1

>  <s_m_source_file>  (599) 
ATP-VSW-LIGPREP-002-in.maegz

>  <s_sd_BIOSOLVEIT.INFINISEE\_QUERY\_NAME>  (599) 
Ref-Lig

>  <s_sd_BIOSOLVEIT.INFINISEE\_QUERY\_SMILES>  (599) 
S(c1nc2c(cc1C[NH2+]Cc3ccc(cc3)C[NH+](C)C)cccc2)Cc4ccccc4

>  <s_sd_BIOSOLVEIT.INFINISEE\_REACTION\_NAME>  (599) 
rxn502b

>  <s_sd_BIOSOLVEIT.INFINISEE\_REAGENT1\_NAME>  (599) 
EMOL908682

>  <s_sd_BIOSOLVEIT.INFINISEE\_REAGENT1\_SMILES>  (599) 
Fc1c(C#N)cc(cc1)C(=O)O

>  <s_sd_BIOSOLVEIT.INFINISEE\_REAGENT2\_NAME>  (599) 
EMOL13728749

>  <s_sd_BIOSOLVEIT.INFINISEE\_REAGENT2\_SMILES>  (599) 
Brc1c(N)c2c(nc1)cccc2

>  <s_sd_BIOSOLVEIT.INFINISEE\_REAGENT3\_NAME>  (599) 
EMOL2868412

>  <s_sd_BIOSOLVEIT.INFINISEE\_REAGENT3\_SMILES>  (599) 
N(Cc1ccc(cc1)CN)(CC)CC

>  <s_sd_BIOSOLVEIT.INFINISEE\_SPACE>  (599) 
eXplore_7tr_2022-12

>  <s_vsw_compound_code>  (599) 
84354

>  <s_vsw_variant>  (599) 
84354-1

>  <r_epik_Charging_Adjusted_Penalty>  (599) 
0.071070064462062404

>  <r_epik_Ionization_Penalty>  (599) 
0.055199999999999999

>  <r_epik_Ionization_Penalty_Charging>  (599) 
0.015900000000000001

>  <r_epik_Ionization_Penalty_Neutral>  (599) 
0.039300000000000002

>  <r_epik_State_Penalty>  (599) 
0.055199999999999999

>  <r_i_docking_score>  (599) 
-3.7698857392124601

>  <r_i_glide_ecoul>  (599) 
-3.4351100921630899

>  <r_i_glide_eff_state_penalty>  (599) 
0.055199999999999999

>  <r_i_glide_einternal>  (599) 
4.0946488380432102

>  <r_i_glide_emodel>  (599) 
-52.9423905169973

>  <r_i_glide_energy>  (599) 
-41.242208480834996

>  <r_i_glide_erotb>  (599) 
0.69717943793183001

>  <r_i_glide_esite>  (599) 
-0.024928287984693001

>  <r_i_glide_evdw>  (599) 
-37.807098388671903

>  <r_i_glide_gscore>  (599) 
-3.8250857392124602

>  <r_i_glide_hbond>  (599) 
0

>  <r_i_glide_ligand_efficiency>  (599) 
-0.10471904831145699

>  <r_i_glide_ligand_efficiency_ln>  (599) 
-0.82248721775376699

>  <r_i_glide_ligand_efficiency_sa>  (599) 
-0.34577467868488398

>  <r_i_glide_lipo>  (599) 
-1.5999599119762999

>  <r_i_glide_metal>  (599) 
-0

>  <r_i_glide_rewards>  (599) 
-0.49175554392524301

>  <r_lp_Energy>  (599) 
41.094693999999997

>  <r_qp_ACxDN^.5/SA>  (599) 
0.013253300000000001

>  <r_qp_CIQPlogS>  (599) 
-7.024

>  <r_qp_EA(eV)>  (599) 
1.2350000000000001

>  <r_qp_FISA>  (599) 
128.95699999999999

>  <r_qp_FOSA>  (599) 
275.49299999999999

>  <r_qp_IP(eV)>  (599) 
8.3539999999999992

>  <r_qp_Jm>  (599) 
1.1466715255616299e-05

>  <r_qp_PISA>  (599) 
407.61799999999999

>  <r_qp_PSA>  (599) 
84.685000000000002

>  <r_qp_PercentHumanOralAbsorption>  (599) 
93.768000000000001

>  <r_qp_QPPCaco>  (599) 
147.876

>  <r_qp_QPPMDCK>  (599) 
117.16

>  <r_qp_QPlogBB>  (599) 
-1.0189999999999999

>  <r_qp_QPlogHERG>  (599) 
-8.0540000000000003

>  <r_qp_QPlogKhsa>  (599) 
0.78700000000000003

>  <r_qp_QPlogKp>  (599) 
-3.5630000000000002

>  <r_qp_QPlogPC16>  (599) 
16.937000000000001

>  <r_qp_QPlogPo/w>  (599) 
4.7800000000000002

>  <r_qp_QPlogPoct>  (599) 
25.521000000000001

>  <r_qp_QPlogPw>  (599) 
14.041

>  <r_qp_QPlogS>  (599) 
-7.0599999999999996

>  <r_qp_QPpolrz>  (599) 
53.740000000000002

>  <r_qp_SASA>  (599) 
853.65099999999995

>  <r_qp_SAamideO>  (599) 
0

>  <r_qp_SAfluorine>  (599) 
41.582999999999998

>  <r_qp_WPSA>  (599) 
41.582999999999998

>  <r_qp_accptHB>  (599) 
8

>  <r_qp_dip^2/V>  (599) 
0.0139477

>  <r_qp_dipole>  (599) 
4.6639999999999997

>  <r_qp_donorHB>  (599) 
2

>  <r_qp_glob>  (599) 
0.76194770000000001

>  <r_qp_mol_MW>  (599) 
481.57100000000003

>  <r_qp_volume>  (599) 
1559.7719999999999

>  <r_sd_BIOSOLVEIT.INFINISEE\_FTREES\_SIMILARITY>  (599) 
0.91000000000000003

>  <r_sd_BIOSOLVEIT.LOGP>  (599) 
4.5346799999999998

>  <r_sd_BIOSOLVEIT.MOLECULAR\_WEIGHT>  (599) 
482.57999999999998

>  <r_sd_BIOSOLVEIT.TPSA>  (599) 
82.25

>  <i_epik_Tot_Q>  (599) 
1

>  <i_epik_Tot_abs_Q>  (599) 
1

>  <i_f3d_flags>  (599) 
0

>  <i_i_glide_confnum>  (599) 
11

>  <i_i_glide_lignum>  (599) 
1227

>  <i_i_glide_posenum>  (599) 
1

>  <i_i_glide_rotatable_bonds>  (599) 
10

>  <i_lp_mmshare_version>  (599) 
65135

>  <i_m_ct_format>  (599) 
2

>  <i_m_source_file_index>  (599) 
2637

>  <i_qp_#NandO>  (599) 
6

>  <i_qp_#acid>  (599) 
0

>  <i_qp_#amide>  (599) 
0

>  <i_qp_#amidine>  (599) 
0

>  <i_qp_#amine>  (599) 
1

>  <i_qp_#in34>  (599) 
0

>  <i_qp_#in56>  (599) 
22

>  <i_qp_#metab>  (599) 
6

>  <i_qp_#nonHatm>  (599) 
36

>  <i_qp_#noncon>  (599) 
0

>  <i_qp_#ringatoms>  (599) 
22

>  <i_qp_#rotor>  (599) 
10

>  <i_qp_#rtvFG>  (599) 
0

>  <i_qp_#stars>  (599) 
1

>  <i_qp_CNS>  (599) 
-2

>  <i_qp_HumanOralAbsorption>  (599) 
1

>  <i_qp_RuleOfFive>  (599) 
0

>  <i_qp_RuleOfThree>  (599) 
1

>  <i_sd_BIOSOLVEIT.INFINISEE\_RESULT\_RANK>  (599) 
45017

>  <i_sd_version>  (599) 
0

>  <b_lp_Chiralities_Consistent>  (599) 
1

>  <b_sd_chiral_flag>  (599) 
0

>  <canonical_id>  (599) 
ATP-HTVS-5CE7EF7F1B66

>  <compound_code>  (599) 
84354

>  <title>  (599) 
rxn502b____EMOL908682____EMOL13728749____EMOL2868412

>  <variant>  (599) 
84354-1

>  <source_file>  (599) 
运行/运行/ATP-VSW/ATP-VSW-DOCK_HTVS_1-002_lib.maegz

>  <canonical_smiles>  (599) 
CC[NH+](CC)Cc1ccc(CNc2cnc3ccccc3c2NC(=O)c2ccc(F)c(C#N)c2)cc1

>  <scaffold>  (599) 
O=C(Nc1c(NCc2ccccc2)cnc2ccccc12)c1ccccc1

>  <molecular_formula>  (599) 
C29H29FN5O+

$$$$
ATP-HTVS-5CEF79319D6B
     RDKit          3D

 62 65  0  0  0  0  0  0  0  0999 V2000
  201.2693  179.8211  153.7434 O   0  0  0  0  0  0  0  0  0  0  0  0
  200.5800  178.8396  154.0402 C   0  0  0  0  0  0  0  0  0  0  0  0
  199.2509  178.8742  154.1569 N   0  0  0  0  0  0  0  0  0  0  0  0
  198.4141  179.9180  153.6782 C   0  0  0  0  0  0  0  0  0  0  0  0
  198.0233  180.9940  154.5180 C   0  0  0  0  0  0  0  0  0  0  0  0
  198.4191  181.0729  155.8782 N   0  0  0  0  0  0  0  0  0  0  0  0
  198.2303  179.8879  156.7353 C   0  0  1  0  0  0  0  0  0  0  0  0
  199.4934  179.2106  157.1063 C   0  0  0  0  0  0  0  0  0  0  0  0
  200.4799  178.7035  157.4012 N   0  0  0  0  0  0  0  0  0  0  0  0
  198.6924  182.4024  156.4575 C   0  0  1  0  0  0  0  0  0  0  0  0
  197.6077  183.0462  157.3280 C   0  0  0  0  0  0  0  0  0  0  0  0
  196.6444  182.2337  158.0201 C   0  0  0  0  0  0  0  0  0  0  0  0
  195.7205  182.8834  158.8791 C   0  0  0  0  0  0  0  0  0  0  0  0
  195.6784  184.2850  159.0330 C   0  0  0  0  0  0  0  0  0  0  0  0
  196.6163  185.0821  158.3084 C   0  0  0  0  0  0  0  0  0  0  0  0
  197.5916  184.4539  157.4683 C   0  0  0  0  0  0  0  0  0  0  0  0
  197.1807  181.9787  153.9343 C   0  0  0  0  0  0  0  0  0  0  0  0
  196.7437  181.9349  152.6635 N   0  0  0  0  0  0  0  0  0  0  0  0
  197.0860  180.8844  151.8804 C   0  0  0  0  0  0  0  0  0  0  0  0
  197.9246  179.8410  152.3607 C   0  0  0  0  0  0  0  0  0  0  0  0
  198.2578  178.7479  151.5112 C   0  0  0  0  0  0  0  0  0  0  0  0
  197.7741  178.6953  150.2015 C   0  0  0  0  0  0  0  0  0  0  0  0
  196.9470  179.7245  149.7261 C   0  0  0  0  0  0  0  0  0  0  0  0
  196.6110  180.8054  150.5650 C   0  0  0  0  0  0  0  0  0  0  0  0
  201.2083  177.4960  154.2952 C   0  0  0  0  0  0  0  0  0  0  0  0
  200.6128  176.5454  155.1716 C   0  0  0  0  0  0  0  0  0  0  0  0
  201.2391  175.3060  155.4149 C   0  0  0  0  0  0  0  0  0  0  0  0
  202.4447  174.9711  154.7659 C   0  0  0  0  0  0  0  0  0  0  0  0
  203.0406  175.9194  153.9060 C   0  0  0  0  0  0  0  0  0  0  0  0
  202.4280  177.1694  153.6712 C   0  0  0  0  0  0  0  0  0  0  0  0
  203.0616  173.5913  154.9506 C   0  0  1  0  0  0  0  0  0  0  0  0
  202.6738  172.6380  153.8661 N   0  0  2  0  0  0  0  0  0  0  0  0
  203.3471  172.9177  152.5753 C   0  0  2  0  0  0  0  0  0  0  0  0
  201.2019  172.5139  153.6977 C   0  0  2  0  0  0  0  0  0  0  0  0
  198.7925  178.0441  154.4889 H   0  0  0  0  0  0  0  0  0  0  0  0
  197.9523  180.1520  157.7089 H   0  0  0  0  0  0  0  0  0  0  0  0
  197.4699  179.2354  156.2634 H   0  0  0  0  0  0  0  0  0  0  0  0
  199.6122  182.3128  157.0354 H   0  0  0  0  0  0  0  0  0  0  0  0
  198.9643  183.1027  155.6611 H   0  0  0  0  0  0  0  0  0  0  0  0
  196.5641  181.2001  157.9270 H   0  0  0  0  0  0  0  0  0  0  0  0
  195.0241  182.2621  159.4098 H   0  0  0  0  0  0  0  0  0  0  0  0
  194.9267  184.7529  159.6535 H   0  0  0  0  0  0  0  0  0  0  0  0
  196.5727  186.1770  158.3869 H   0  0  0  0  0  0  0  0  0  0  0  0
  198.2930  185.0872  156.9373 H   0  0  0  0  0  0  0  0  0  0  0  0
  196.8259  182.8276  154.5041 H   0  0  0  0  0  0  0  0  0  0  0  0
  198.8933  177.9475  151.8571 H   0  0  0  0  0  0  0  0  0  0  0  0
  198.0474  177.8654  149.5659 H   0  0  0  0  0  0  0  0  0  0  0  0
  196.5819  179.6870  148.7132 H   0  0  0  0  0  0  0  0  0  0  0  0
  195.9833  181.6007  150.1998 H   0  0  0  0  0  0  0  0  0  0  0  0
  199.6855  176.7406  155.6864 H   0  0  0  0  0  0  0  0  0  0  0  0
  200.7717  174.6144  156.1028 H   0  0  0  0  0  0  0  0  0  0  0  0
  203.9484  175.6852  153.3783 H   0  0  0  0  0  0  0  0  0  0  0  0
  202.8958  177.8757  152.9983 H   0  0  0  0  0  0  0  0  0  0  0  0
  204.1508  173.6852  154.9987 H   0  0  0  0  0  0  0  0  0  0  0  0
  202.7478  173.1887  155.9129 H   0  0  0  0  0  0  0  0  0  0  0  0
  203.0660  173.8844  152.1702 H   0  0  0  0  0  0  0  0  0  0  0  0
  203.0710  172.1719  151.8311 H   0  0  0  0  0  0  0  0  0  0  0  0
  204.4277  172.8909  152.7056 H   0  0  0  0  0  0  0  0  0  0  0  0
  200.7465  173.4384  153.3519 H   0  0  0  0  0  0  0  0  0  0  0  0
  200.7370  172.2382  154.6450 H   0  0  0  0  0  0  0  0  0  0  0  0
  200.9622  171.7408  152.9630 H   0  0  0  0  0  0  0  0  0  0  0  0
  202.9746  171.6718  154.1081 H   0  0  0  0  0  0  0  0  0  0  0  0
  1  2  2  0
  2  3  1  0
  2 25  1  0
  3  4  1  0
  3 35  1  0
  4  5  2  0
  4 20  1  0
  5  6  1  0
  5 17  1  0
  6  7  1  0
  6 10  1  0
  7  8  1  0
  7 36  1  1
  7 37  1  0
  8  9  3  0
 10 11  1  0
 10 38  1  1
 10 39  1  0
 11 12  2  0
 11 16  1  0
 12 13  1  0
 12 40  1  0
 13 14  2  0
 13 41  1  0
 14 15  1  0
 14 42  1  0
 15 16  2  0
 15 43  1  0
 16 44  1  0
 17 18  2  0
 17 45  1  0
 18 19  1  0
 19 20  1  0
 19 24  2  0
 20 21  2  0
 21 22  1  0
 21 46  1  0
 22 23  2  0
 22 47  1  0
 23 24  1  0
 23 48  1  0
 24 49  1  0
 25 26  1  0
 25 30  2  0
 26 27  2  0
 26 50  1  0
 27 28  1  0
 27 51  1  0
 28 29  2  0
 28 31  1  0
 29 30  1  0
 29 52  1  0
 30 53  1  0
 31 32  1  0
 31 54  1  1
 31 55  1  0
 32 33  1  0
 32 34  1  0
 32 62  1  1
 33 56  1  6
 33 57  1  0
 33 58  1  0
 34 59  1  6
 34 60  1  0
 34 61  1  0
M  CHG  1  32   1
M  END
>  <s_epik_cmdline>  (600) 
J2VwaWtfcHl0aG9uJywgJy1waCcsICc3LjAwMDAwMCcsICctcGh0JywgJzIuMDAwMDAwJywgJy1tcycsICcxNicsICctdG4nLCAnOCcsICctbWEnLCAnMjAwJywgJy1pbWFlJywgJzxpbmZpbGUubWFlPicsICctb21hZScsICc8b3V0ZmlsZS5tYWU+Jw==

>  <s_epik_input>  (600) 
W0NIM11OKFtDSDNdKVtDSDJdYyhbY0hdW2NIXTEpW2NIXVtjSF1jMUMoPU8pW05IXWMoYyhjMjMpW2NIXVtjSF1bY0hdW2NIXTMpYyhbY0hdbjIpTihbQ0gyXUMjTilbQ0gyXWM0W2NIXVtjSF1bY0hdW2NIXVtjSF00

>  <s_i_glide_gridfile>  (600) 
ATP-Grid

>  <s_lp_Force_Field>  (600) 
OPLS_2005

>  <s_lp_Variant>  (600) 
rxn502b____EMOL18624763____EMOL13728749____EMOL300091282-1

>  <s_lp_label>  (600) 
2261_sdstereoexpander_1_neutralizer_1_epik_1_stereoizer_1

>  <s_m_source_file>  (600) 
ATP-VSW-LIGPREP-003-in.maegz

>  <s_sd_BIOSOLVEIT.INFINISEE\_QUERY\_NAME>  (600) 
Ref-Lig

>  <s_sd_BIOSOLVEIT.INFINISEE\_QUERY\_SMILES>  (600) 
S(c1nc2c(cc1C[NH2+]Cc3ccc(cc3)C[NH+](C)C)cccc2)Cc4ccccc4

>  <s_sd_BIOSOLVEIT.INFINISEE\_REACTION\_NAME>  (600) 
rxn502b

>  <s_sd_BIOSOLVEIT.INFINISEE\_REAGENT1\_NAME>  (600) 
EMOL18624763

>  <s_sd_BIOSOLVEIT.INFINISEE\_REAGENT1\_SMILES>  (600) 
O=C(O)c1ccc(cc1)CN(C)C

>  <s_sd_BIOSOLVEIT.INFINISEE\_REAGENT2\_NAME>  (600) 
EMOL13728749

>  <s_sd_BIOSOLVEIT.INFINISEE\_REAGENT2\_SMILES>  (600) 
Brc1c(N)c2c(nc1)cccc2

>  <s_sd_BIOSOLVEIT.INFINISEE\_REAGENT3\_NAME>  (600) 
EMOL300091282

>  <s_sd_BIOSOLVEIT.INFINISEE\_REAGENT3\_SMILES>  (600) 
N#CCNCc1ccccc1

>  <s_sd_BIOSOLVEIT.INFINISEE\_SPACE>  (600) 
eXplore_7tr_2022-12

>  <s_vsw_compound_code>  (600) 
72323

>  <s_vsw_variant>  (600) 
72323-1

>  <r_epik_Charging_Adjusted_Penalty>  (600) 
0.127337371621182

>  <r_epik_Ionization_Penalty>  (600) 
0.074499999999999997

>  <r_epik_Ionization_Penalty_Charging>  (600) 
0.052699999999999997

>  <r_epik_Ionization_Penalty_Neutral>  (600) 
0.0218

>  <r_epik_State_Penalty>  (600) 
0.074700000000000003

>  <r_i_docking_score>  (600) 
-4.6957760544525504

>  <r_i_glide_ecoul>  (600) 
-10.3246555328369

>  <r_i_glide_eff_state_penalty>  (600) 
0.074700000000000003

>  <r_i_glide_einternal>  (600) 
6.2317247390747097

>  <r_i_glide_emodel>  (600) 
-60.096508522091703

>  <r_i_glide_energy>  (600) 
-45.489805221557603

>  <r_i_glide_erotb>  (600) 
0.69137857178598805

>  <r_i_glide_esite>  (600) 
-0.24104139496032501

>  <r_i_glide_evdw>  (600) 
-35.165149688720703

>  <r_i_glide_gscore>  (600) 
-4.7704760544525504

>  <r_i_glide_hbond>  (600) 
-0.19800997657907801

>  <r_i_glide_ligand_efficiency>  (600) 
-0.13811106042507501

>  <r_i_glide_ligand_efficiency_ln>  (600) 
-1.0374286424855099

>  <r_i_glide_ligand_efficiency_sa>  (600) 
-0.44742622071409099

>  <r_i_glide_lipo>  (600) 
-1.15372121306483

>  <r_i_glide_metal>  (600) 
-0

>  <r_i_glide_rewards>  (600) 
-0.56212622727272599

>  <r_lp_Energy>  (600) 
40.758406000000001

>  <r_qp_ACxDN^.5/SA>  (600) 
0.010105100000000001

>  <r_qp_CIQPlogS>  (600) 
-6.4109999999999996

>  <r_qp_EA(eV)>  (600) 
1.1659999999999999

>  <r_qp_FISA>  (600) 
102.65600000000001

>  <r_qp_FOSA>  (600) 
232.69

>  <r_qp_IP(eV)>  (600) 
8.859

>  <r_qp_Jm>  (600) 
0.000496425962536224

>  <r_qp_PISA>  (600) 
456.32999999999998

>  <r_qp_PSA>  (600) 
74.739000000000004

>  <r_qp_PercentHumanOralAbsorption>  (600) 
95.924000000000007

>  <r_qp_QPPCaco>  (600) 
262.60899999999998

>  <r_qp_QPPMDCK>  (600) 
128.995

>  <r_qp_QPlogBB>  (600) 
-0.68500000000000005

>  <r_qp_QPlogHERG>  (600) 
-7.8799999999999999

>  <r_qp_QPlogKhsa>  (600) 
0.59499999999999997

>  <r_qp_QPlogKp>  (600) 
-3.0019999999999998

>  <r_qp_QPlogPC16>  (600) 
16.067

>  <r_qp_QPlogPo/w>  (600) 
4.3849999999999998

>  <r_qp_QPlogPoct>  (600) 
23.387

>  <r_qp_QPlogPw>  (600) 
12.786

>  <r_qp_QPlogS>  (600) 
-5.9539999999999997

>  <r_qp_QPpolrz>  (600) 
50.951999999999998

>  <r_qp_SASA>  (600) 
791.67600000000004

>  <r_qp_SAamideO>  (600) 
0

>  <r_qp_SAfluorine>  (600) 
0

>  <r_qp_WPSA>  (600) 
0

>  <r_qp_accptHB>  (600) 
8

>  <r_qp_dip^2/V>  (600) 
0.044759500000000001

>  <r_qp_dipole>  (600) 
8.0909999999999993

>  <r_qp_donorHB>  (600) 
1

>  <r_qp_glob>  (600) 
0.78705510000000001

>  <r_qp_mol_MW>  (600) 
449.55399999999997

>  <r_qp_volume>  (600) 
1462.452

>  <r_sd_BIOSOLVEIT.INFINISEE\_FTREES\_SIMILARITY>  (600) 
0.92600000000000005

>  <r_sd_BIOSOLVEIT.LOGP>  (600) 
3.6617799999999998

>  <r_sd_BIOSOLVEIT.MOLECULAR\_WEIGHT>  (600) 
450.56299999999999

>  <r_sd_BIOSOLVEIT.TPSA>  (600) 
73.459999999999994

>  <i_epik_Tot_Q>  (600) 
1

>  <i_epik_Tot_abs_Q>  (600) 
1

>  <i_f3d_flags>  (600) 
0

>  <i_i_glide_confnum>  (600) 
4

>  <i_i_glide_lignum>  (600) 
921

>  <i_i_glide_posenum>  (600) 
19

>  <i_i_glide_rotatable_bonds>  (600) 
9

>  <i_lp_mmshare_version>  (600) 
65135

>  <i_m_ct_format>  (600) 
2

>  <i_m_source_file_index>  (600) 
2261

>  <i_qp_#NandO>  (600) 
6

>  <i_qp_#acid>  (600) 
0

>  <i_qp_#amide>  (600) 
0

>  <i_qp_#amidine>  (600) 
0

>  <i_qp_#amine>  (600) 
1

>  <i_qp_#in34>  (600) 
0

>  <i_qp_#in56>  (600) 
22

>  <i_qp_#metab>  (600) 
6

>  <i_qp_#nonHatm>  (600) 
34

>  <i_qp_#noncon>  (600) 
0

>  <i_qp_#ringatoms>  (600) 
22

>  <i_qp_#rotor>  (600) 
9

>  <i_qp_#rtvFG>  (600) 
0

>  <i_qp_#stars>  (600) 
1

>  <i_qp_CNS>  (600) 
1

>  <i_qp_HumanOralAbsorption>  (600) 
3

>  <i_qp_RuleOfFive>  (600) 
0

>  <i_qp_RuleOfThree>  (600) 
1

>  <i_sd_BIOSOLVEIT.INFINISEE\_RESULT\_RANK>  (600) 
8473

>  <i_sd_version>  (600) 
0

>  <b_lp_Chiralities_Consistent>  (600) 
1

>  <b_sd_chiral_flag>  (600) 
0

>  <canonical_id>  (600) 
ATP-HTVS-5CEF79319D6B

>  <compound_code>  (600) 
72323

>  <title>  (600) 
rxn502b____EMOL18624763____EMOL13728749____EMOL300091282

>  <variant>  (600) 
72323-1

>  <source_file>  (600) 
运行/运行/ATP-VSW/ATP-VSW-DOCK_HTVS_1-003_lib/ATP-VSW-DOCK_HTVS_1-003_lib.mae

>  <canonical_smiles>  (600) 
C[NH+](C)Cc1ccc(C(=O)Nc2c(N(CC#N)Cc3ccccc3)cnc3ccccc23)cc1

>  <scaffold>  (600) 
O=C(Nc1c(NCc2ccccc2)cnc2ccccc12)c1ccccc1

>  <molecular_formula>  (600) 
C28H28N5O+

$$$$
ATP-HTVS-5CF527C7FD25
     RDKit          3D

 47 50  0  0  0  0  0  0  0  0999 V2000
  195.9560  180.3090  150.1960 F   0  0  0  0  0  0  0  0  0  0  0  0
  196.3537  180.7750  151.4046 C   0  0  0  0  0  0  0  0  0  0  0  0
  196.3510  179.9191  152.5211 C   0  0  0  0  0  0  0  0  0  0  0  0
  195.9486  178.6391  152.3892 F   0  0  0  0  0  0  0  0  0  0  0  0
  196.7559  180.4061  153.7768 C   0  0  0  0  0  0  0  0  0  0  0  0
  197.1541  181.7518  153.9165 C   0  0  0  0  0  0  0  0  0  0  0  0
  197.1431  182.6308  152.8026 C   0  0  0  0  0  0  0  0  0  0  0  0
  196.7470  182.1221  151.5444 C   0  0  0  0  0  0  0  0  0  0  0  0
  197.5694  184.0698  152.9209 C   0  0  0  0  0  0  0  0  0  0  0  0
  197.7232  184.7566  151.9108 O   0  0  0  0  0  0  0  0  0  0  0  0
  197.7218  184.5152  154.1869 N   0  0  0  0  0  0  0  0  0  0  0  0
  198.2753  185.7361  154.6604 C   0  0  0  0  0  0  0  0  0  0  0  0
  198.7492  186.6888  153.8199 N   0  0  0  0  0  0  0  0  0  0  0  0
  199.2563  187.8415  154.3081 C   0  0  0  0  0  0  0  0  0  0  0  0
  199.3443  188.0767  155.7019 C   0  0  0  0  0  0  0  0  0  0  0  0
  198.9080  187.0698  156.5965 C   0  0  0  0  0  0  0  0  0  0  0  0
  198.3322  185.8917  156.0740 C   0  0  0  0  0  0  0  0  0  0  0  0
  197.8418  184.9076  156.9646 N   0  0  0  0  0  0  0  0  0  0  0  0
  196.9173  185.1103  158.0283 C   0  0  0  0  0  0  0  0  0  0  0  0
  196.2553  184.0199  158.6533 C   0  0  0  0  0  0  0  0  0  0  0  0
  195.3320  184.2237  159.7020 C   0  0  0  0  0  0  0  0  0  0  0  0
  195.0640  185.5268  160.1641 C   0  0  0  0  0  0  0  0  0  0  0  0
  195.7124  186.6197  159.5636 C   0  0  0  0  0  0  0  0  0  0  0  0
  196.6128  186.4180  158.4940 C   0  0  0  0  0  0  0  0  0  0  0  0
  198.5724  183.6336  156.9360 C   0  0  1  0  0  0  0  0  0  0  0  0
  199.5580  183.5282  158.0244 C   0  0  0  0  0  0  0  0  0  0  0  0
  200.3378  183.4450  158.8748 N   0  0  0  0  0  0  0  0  0  0  0  0
  199.8467  189.2947  156.2016 C   0  0  0  0  0  0  0  0  0  0  0  0
  200.2960  190.2856  155.3100 C   0  0  0  0  0  0  0  0  0  0  0  0
  200.2394  190.0586  153.9216 C   0  0  0  0  0  0  0  0  0  0  0  0
  199.7159  188.8450  153.4288 C   0  0  0  0  0  0  0  0  0  0  0  0
  196.7531  179.7563  154.6408 H   0  0  0  0  0  0  0  0  0  0  0  0
  197.4604  182.0726  154.8990 H   0  0  0  0  0  0  0  0  0  0  0  0
  196.7362  182.7611  150.6730 H   0  0  0  0  0  0  0  0  0  0  0  0
  197.4921  183.8645  154.9159 H   0  0  0  0  0  0  0  0  0  0  0  0
  198.9651  187.2215  157.6566 H   0  0  0  0  0  0  0  0  0  0  0  0
  196.4072  183.0024  158.3321 H   0  0  0  0  0  0  0  0  0  0  0  0
  194.8146  183.3729  160.1333 H   0  0  0  0  0  0  0  0  0  0  0  0
  194.3496  185.6839  160.9568 H   0  0  0  0  0  0  0  0  0  0  0  0
  195.5160  187.6207  159.9151 H   0  0  0  0  0  0  0  0  0  0  0  0
  197.0807  187.3013  158.0517 H   0  0  0  0  0  0  0  0  0  0  0  0
  197.9120  182.7656  156.9739 H   0  0  0  0  0  0  0  0  0  0  0  0
  199.1551  183.5155  156.0217 H   0  0  0  0  0  0  0  0  0  0  0  0
  199.8845  189.4730  157.2646 H   0  0  0  0  0  0  0  0  0  0  0  0
  200.6954  191.2146  155.6966 H   0  0  0  0  0  0  0  0  0  0  0  0
  200.5999  190.8100  153.2394 H   0  0  0  0  0  0  0  0  0  0  0  0
  199.6689  188.6710  152.3615 H   0  0  0  0  0  0  0  0  0  0  0  0
  1  2  1  0
  2  3  2  0
  2  8  1  0
  3  4  1  0
  3  5  1  0
  5  6  2  0
  5 32  1  0
  6  7  1  0
  6 33  1  0
  7  8  2  0
  7  9  1  0
  8 34  1  0
  9 10  2  0
  9 11  1  0
 11 12  1  0
 11 35  1  0
 12 13  2  0
 12 17  1  0
 13 14  1  0
 14 15  1  0
 14 31  2  0
 15 16  1  0
 15 28  2  0
 16 17  2  0
 16 36  1  0
 17 18  1  0
 18 19  1  0
 18 25  1  0
 19 20  2  0
 19 24  1  0
 20 21  1  0
 20 37  1  0
 21 22  2  0
 21 38  1  0
 22 23  1  0
 22 39  1  0
 23 24  2  0
 23 40  1  0
 24 41  1  0
 25 26  1  0
 25 42  1  1
 25 43  1  0
 26 27  3  0
 28 29  1  0
 28 44  1  0
 29 30  2  0
 29 45  1  0
 30 31  1  0
 30 46  1  0
 31 47  1  0
M  END
>  <s_epik_cmdline>  (601) 
J2VwaWtfcHl0aG9uJywgJy1waCcsICc3LjAwMDAwMCcsICctcGh0JywgJzIuMDAwMDAwJywgJy1tcycsICcxNicsICctdG4nLCAnOCcsICctbWEnLCAnMjAwJywgJy1pbWFlJywgJzxpbmZpbGUubWFlPicsICctb21hZScsICc8b3V0ZmlsZS5tYWU+Jw==

>  <s_epik_input>  (601) 
RmMxYyhGKVtjSF1bY0hdYyhbY0hdMSlDKD1PKVtOSF1jKG4yKWMoW2NIXWMoYzIzKVtjSF1bY0hdW2NIXVtjSF0zKU4oW0NIMl1DI04pYzRbY0hdW2NIXVtjSF1bY0hdW2NIXTQ=

>  <s_i_glide_gridfile>  (601) 
ATP-Grid

>  <s_lp_Force_Field>  (601) 
OPLS_2005

>  <s_lp_Variant>  (601) 
rxn502b____EMOL493148____EMOL44466703____EMOL712348-1

>  <s_lp_label>  (601) 
2749_sdstereoexpander_1_neutralizer_1_epik_1_stereoizer_1

>  <s_m_source_file>  (601) 
ATP-VSW-LIGPREP-002-in.maegz

>  <s_sd_BIOSOLVEIT.INFINISEE\_QUERY\_NAME>  (601) 
Ref-Lig

>  <s_sd_BIOSOLVEIT.INFINISEE\_QUERY\_SMILES>  (601) 
S(c1nc2c(cc1C[NH2+]Cc3ccc(cc3)C[NH+](C)C)cccc2)Cc4ccccc4

>  <s_sd_BIOSOLVEIT.INFINISEE\_REACTION\_NAME>  (601) 
rxn502b

>  <s_sd_BIOSOLVEIT.INFINISEE\_REAGENT1\_NAME>  (601) 
EMOL493148

>  <s_sd_BIOSOLVEIT.INFINISEE\_REAGENT1\_SMILES>  (601) 
Fc1c(F)ccc(c1)C(=O)O

>  <s_sd_BIOSOLVEIT.INFINISEE\_REAGENT2\_NAME>  (601) 
EMOL44466703

>  <s_sd_BIOSOLVEIT.INFINISEE\_REAGENT2\_SMILES>  (601) 
Brc1c(nc2c(c1)cccc2)N

>  <s_sd_BIOSOLVEIT.INFINISEE\_REAGENT3\_NAME>  (601) 
EMOL712348

>  <s_sd_BIOSOLVEIT.INFINISEE\_REAGENT3\_SMILES>  (601) 
N#CCNc1ccccc1

>  <s_sd_BIOSOLVEIT.INFINISEE\_SPACE>  (601) 
eXplore_7tr_2022-12

>  <s_vsw_compound_code>  (601) 
87938

>  <s_vsw_variant>  (601) 
87938-1

>  <r_epik_Charging_Adjusted_Penalty>  (601) 
0

>  <r_epik_Ionization_Penalty>  (601) 
0

>  <r_epik_Ionization_Penalty_Charging>  (601) 
0

>  <r_epik_Ionization_Penalty_Neutral>  (601) 
0

>  <r_epik_State_Penalty>  (601) 
-0

>  <r_i_docking_score>  (601) 
-3.7151213265805598

>  <r_i_glide_ecoul>  (601) 
-1.1883618831634499

>  <r_i_glide_eff_state_penalty>  (601) 
-0

>  <r_i_glide_einternal>  (601) 
2.8287937641143799

>  <r_i_glide_emodel>  (601) 
-41.299081644370297

>  <r_i_glide_energy>  (601) 
-34.338580846786499

>  <r_i_glide_erotb>  (601) 
0.57464869871297097

>  <r_i_glide_esite>  (601) 
-0.024209832038942

>  <r_i_glide_evdw>  (601) 
-33.150218963622997

>  <r_i_glide_gscore>  (601) 
-3.7151213265805598

>  <r_i_glide_hbond>  (601) 
0

>  <r_i_glide_ligand_efficiency>  (601) 
-0.119842623438083

>  <r_i_glide_ligand_efficiency_ln>  (601) 
-0.83787371393913201

>  <r_i_glide_ligand_efficiency_sa>  (601) 
-0.37647129816928698

>  <r_i_glide_lipo>  (601) 
-1.59154877162763

>  <r_i_glide_metal>  (601) 
-0

>  <r_i_glide_rewards>  (601) 
-0.83824619097128805

>  <r_lp_Energy>  (601) 
32.086984999999999

>  <r_lp_tautomer_probability>  (601) 
1

>  <r_qp_ACxDN^.5/SA>  (601) 
0.0080899000000000006

>  <r_qp_CIQPlogS>  (601) 
-7.7610000000000001

>  <r_qp_EA(eV)>  (601) 
1.284

>  <r_qp_FISA>  (601) 
110.166

>  <r_qp_FOSA>  (601) 
36.329999999999998

>  <r_qp_IP(eV)>  (601) 
8.7940000000000005

>  <r_qp_Jm>  (601) 
0.0014844014155564801

>  <r_qp_PISA>  (601) 
444.54500000000002

>  <r_qp_PSA>  (601) 
71.081999999999994

>  <r_qp_PercentHumanOralAbsorption>  (601) 
100

>  <r_qp_QPPCaco>  (601) 
893.71400000000006

>  <r_qp_QPPMDCK>  (601) 
1343.175

>  <r_qp_QPlogBB>  (601) 
-0.66700000000000004

>  <r_qp_QPlogHERG>  (601) 
-6.5330000000000004

>  <r_qp_QPlogKhsa>  (601) 
0.66400000000000003

>  <r_qp_QPlogKp>  (601) 
-1.4079999999999999

>  <r_qp_QPlogPC16>  (601) 
13.32

>  <r_qp_QPlogPo/w>  (601) 
4.875

>  <r_qp_QPlogPoct>  (601) 
19.776

>  <r_qp_QPlogPw>  (601) 
10.718

>  <r_qp_QPlogS>  (601) 
-7.0380000000000003

>  <r_qp_QPpolrz>  (601) 
43.944000000000003

>  <r_qp_SASA>  (601) 
679.85599999999999

>  <r_qp_SAamideO>  (601) 
0

>  <r_qp_SAfluorine>  (601) 
88.814999999999998

>  <r_qp_WPSA>  (601) 
88.814999999999998

>  <r_qp_accptHB>  (601) 
5.5

>  <r_qp_dip^2/V>  (601) 
0.0121957

>  <r_qp_dipole>  (601) 
3.8919999999999999

>  <r_qp_donorHB>  (601) 
1

>  <r_qp_glob>  (601) 
0.82192480000000001

>  <r_qp_mol_MW>  (601) 
414.41300000000001

>  <r_qp_volume>  (601) 
1242.0119999999999

>  <r_sd_BIOSOLVEIT.INFINISEE\_FTREES\_SIMILARITY>  (601) 
0.90700000000000003

>  <r_sd_BIOSOLVEIT.LOGP>  (601) 
5.4269800000000004

>  <r_sd_BIOSOLVEIT.MOLECULAR\_WEIGHT>  (601) 
414.41300000000001

>  <r_sd_BIOSOLVEIT.TPSA>  (601) 
69.019999999999996

>  <i_epik_Tot_Q>  (601) 
0

>  <i_epik_Tot_abs_Q>  (601) 
0

>  <i_f3d_flags>  (601) 
0

>  <i_i_glide_confnum>  (601) 
1

>  <i_i_glide_lignum>  (601) 
1331

>  <i_i_glide_posenum>  (601) 
20

>  <i_i_glide_rotatable_bonds>  (601) 
6

>  <i_lp_mmshare_version>  (601) 
65135

>  <i_m_ct_format>  (601) 
2

>  <i_m_source_file_index>  (601) 
2749

>  <i_qp_#NandO>  (601) 
5

>  <i_qp_#acid>  (601) 
0

>  <i_qp_#amide>  (601) 
0

>  <i_qp_#amidine>  (601) 
0

>  <i_qp_#amine>  (601) 
0

>  <i_qp_#in34>  (601) 
0

>  <i_qp_#in56>  (601) 
22

>  <i_qp_#metab>  (601) 
3

>  <i_qp_#nonHatm>  (601) 
31

>  <i_qp_#noncon>  (601) 
0

>  <i_qp_#ringatoms>  (601) 
22

>  <i_qp_#rotor>  (601) 
6

>  <i_qp_#rtvFG>  (601) 
0

>  <i_qp_#stars>  (601) 
1

>  <i_qp_CNS>  (601) 
0

>  <i_qp_HumanOralAbsorption>  (601) 
1

>  <i_qp_RuleOfFive>  (601) 
0

>  <i_qp_RuleOfThree>  (601) 
1

>  <i_sd_BIOSOLVEIT.INFINISEE\_RESULT\_RANK>  (601) 
58071

>  <i_sd_version>  (601) 
0

>  <b_lp_Chiralities_Consistent>  (601) 
1

>  <b_sd_chiral_flag>  (601) 
0

>  <canonical_id>  (601) 
ATP-HTVS-5CF527C7FD25

>  <compound_code>  (601) 
87938

>  <title>  (601) 
rxn502b____EMOL493148____EMOL44466703____EMOL712348

>  <variant>  (601) 
87938-1

>  <source_file>  (601) 
运行/运行/ATP-VSW/ATP-VSW-DOCK_HTVS_1-002_lib.maegz

>  <canonical_smiles>  (601) 
N#CCN(c1ccccc1)c1cc2ccccc2nc1NC(=O)c1ccc(F)c(F)c1

>  <scaffold>  (601) 
O=C(Nc1nc2ccccc2cc1Nc1ccccc1)c1ccccc1

>  <molecular_formula>  (601) 
C24H16F2N4O

$$$$
ATP-HTVS-5CFA0109773F
     RDKit          3D

 54 57  0  0  0  0  0  0  0  0999 V2000
  195.0671  187.0129  161.2998 Cl  0  0  0  0  0  0  0  0  0  0  0  0
  195.6255  185.8206  160.1835 C   0  0  0  0  0  0  0  0  0  0  0  0
  196.9553  185.8548  159.7280 C   0  0  0  0  0  0  0  0  0  0  0  0
  197.4176  184.8735  158.8309 C   0  0  0  0  0  0  0  0  0  0  0  0
  196.5563  183.8526  158.3849 C   0  0  0  0  0  0  0  0  0  0  0  0
  197.0422  182.8306  157.5147 N   0  0  0  0  0  0  0  0  0  0  0  0
  197.7043  183.1376  156.3579 C   0  0  0  0  0  0  0  0  0  0  0  0
  197.8286  184.2670  155.9097 O   0  0  0  0  0  0  0  0  0  0  0  0
  198.3439  181.9868  155.6056 C   0  0  0  0  0  0  0  0  0  0  0  0
  197.8986  181.5448  154.3377 C   0  0  0  0  0  0  0  0  0  0  0  0
  198.5802  180.4639  153.7086 C   0  0  0  0  0  0  0  0  0  0  0  0
  199.7074  179.8838  154.3615 C   0  0  0  0  0  0  0  0  0  0  0  0
  200.1227  180.3324  155.5753 N   0  0  0  0  0  0  0  0  0  0  0  0
  199.4594  181.3363  156.1751 C   0  0  0  0  0  0  0  0  0  0  0  0
  200.4916  178.8809  153.7492 N   0  0  0  0  0  0  0  0  0  0  0  0
  201.0924  177.8951  154.6777 C   0  0  1  0  0  0  0  0  0  0  0  0
  201.2009  176.4512  154.1813 C   0  0  0  0  0  0  0  0  0  0  0  0
  201.4714  175.3867  155.1176 C   0  0  0  0  0  0  0  0  0  0  0  0
  201.5758  175.6270  156.5001 N   0  0  0  0  0  0  0  0  0  0  0  0
  201.6024  174.0563  154.6495 C   0  0  0  0  0  0  0  0  0  0  0  0
  201.5084  173.7580  153.2734 C   0  0  0  0  0  0  0  0  0  0  0  0
  201.2323  174.8151  152.3639 C   0  0  0  0  0  0  0  0  0  0  0  0
  201.0256  176.1261  152.8076 C   0  0  0  0  0  0  0  0  0  0  0  0
  201.3351  179.4189  152.6653 C   0  0  2  0  0  0  0  0  0  0  0  0
  198.1340  180.0013  152.4418 C   0  0  0  0  0  0  0  0  0  0  0  0
  197.0592  180.6204  151.7828 C   0  0  0  0  0  0  0  0  0  0  0  0
  196.3834  181.6843  152.4061 C   0  0  0  0  0  0  0  0  0  0  0  0
  196.7907  182.1351  153.6720 C   0  0  0  0  0  0  0  0  0  0  0  0
  196.6621  181.4602  157.8250 C   0  0  2  0  0  0  0  0  0  0  0  0
  195.2121  183.8260  158.8356 C   0  0  0  0  0  0  0  0  0  0  0  0
  194.7554  184.8122  159.7335 C   0  0  0  0  0  0  0  0  0  0  0  0
  197.6290  186.6198  160.0741 H   0  0  0  0  0  0  0  0  0  0  0  0
  198.4520  184.8935  158.5150 H   0  0  0  0  0  0  0  0  0  0  0  0
  199.8180  181.6279  157.1570 H   0  0  0  0  0  0  0  0  0  0  0  0
  202.0800  178.2658  154.9562 H   0  0  0  0  0  0  0  0  0  0  0  0
  200.5444  177.8429  155.6221 H   0  0  0  0  0  0  0  0  0  0  0  0
  201.8231  174.8812  157.1412 H   0  0  0  0  0  0  0  0  0  0  0  0
  201.6126  176.5600  156.8915 H   0  0  0  0  0  0  0  0  0  0  0  0
  201.7733  173.2412  155.3490 H   0  0  0  0  0  0  0  0  0  0  0  0
  201.6061  172.7394  152.9097 H   0  0  0  0  0  0  0  0  0  0  0  0
  201.1578  174.6162  151.3057 H   0  0  0  0  0  0  0  0  0  0  0  0
  200.7428  176.8617  152.0627 H   0  0  0  0  0  0  0  0  0  0  0  0
  200.7418  180.0627  152.0063 H   0  0  0  0  0  0  0  0  0  0  0  0
  201.7800  178.6468  152.0444 H   0  0  0  0  0  0  0  0  0  0  0  0
  202.1101  180.0583  153.1068 H   0  0  0  0  0  0  0  0  0  0  0  0
  198.6182  179.1756  151.9484 H   0  0  0  0  0  0  0  0  0  0  0  0
  196.7580  180.2770  150.8025 H   0  0  0  0  0  0  0  0  0  0  0  0
  195.5485  182.1585  151.9173 H   0  0  0  0  0  0  0  0  0  0  0  0
  196.2367  182.9428  154.1308 H   0  0  0  0  0  0  0  0  0  0  0  0
  197.4993  180.7565  157.8476 H   0  0  0  0  0  0  0  0  0  0  0  0
  195.9597  181.0934  157.0699 H   0  0  0  0  0  0  0  0  0  0  0  0
  196.2007  181.3486  158.8096 H   0  0  0  0  0  0  0  0  0  0  0  0
  194.5325  183.0505  158.5081 H   0  0  0  0  0  0  0  0  0  0  0  0
  193.7337  184.7958  160.0760 H   0  0  0  0  0  0  0  0  0  0  0  0
  1  2  1  0
  2  3  1  0
  2 31  2  0
  3  4  2  0
  3 32  1  0
  4  5  1  0
  4 33  1  0
  5  6  1  0
  5 30  2  0
  6  7  1  0
  6 29  1  0
  7  8  2  0
  7  9  1  0
  9 10  2  0
  9 14  1  0
 10 11  1  0
 10 28  1  0
 11 12  2  0
 11 25  1  0
 12 13  1  0
 12 15  1  0
 13 14  2  0
 14 34  1  0
 15 16  1  0
 15 24  1  0
 16 17  1  0
 16 35  1  1
 16 36  1  0
 17 18  1  0
 17 23  2  0
 18 19  1  0
 18 20  2  0
 19 37  1  0
 19 38  1  0
 20 21  1  0
 20 39  1  0
 21 22  2  0
 21 40  1  0
 22 23  1  0
 22 41  1  0
 23 42  1  0
 24 43  1  6
 24 44  1  0
 24 45  1  0
 25 26  2  0
 25 46  1  0
 26 27  1  0
 26 47  1  0
 27 28  2  0
 27 48  1  0
 28 49  1  0
 29 50  1  1
 29 51  1  0
 29 52  1  0
 30 31  1  0
 30 53  1  0
 31 54  1  0
M  END
>  <s_epik_cmdline>  (602) 
J2VwaWtfcHl0aG9uJywgJy1waCcsICc3LjAwMDAwMCcsICctcGh0JywgJzIuMDAwMDAwJywgJy1tcycsICcxNicsICctdG4nLCAnOCcsICctbWEnLCAnMjAwJywgJy1pbWFlJywgJzxpbmZpbGUubWFlPicsICctb21hZScsICc8b3V0ZmlsZS5tYWU+Jw==

>  <s_epik_input>  (602) 
Q2xjMVtjSF1bY0hdYyhbY0hdW2NIXTEpTihbQ0gzXSlDKD1PKWMyW2NIXW5jKGMoYzIzKVtjSF1bY0hdW2NIXVtjSF0zKU4oW0NIM10pW0NIMl1jNGMoW05IMl0pW2NIXVtjSF1bY0hdW2NIXTQ=

>  <s_i_glide_gridfile>  (602) 
ATP-Grid

>  <s_lp_Force_Field>  (602) 
OPLS_2005

>  <s_lp_Variant>  (602) 
rxn102c____EMOL2797927____EMOL42768006-1

>  <s_lp_label>  (602) 
2673_sdstereoexpander_1_neutralizer_1_epik_1_stereoizer_1

>  <s_m_source_file>  (602) 
ATP-VSW-LIGPREP-002-in.maegz

>  <s_sd_BIOSOLVEIT.INFINISEE\_QUERY\_NAME>  (602) 
Ref-Lig

>  <s_sd_BIOSOLVEIT.INFINISEE\_QUERY\_SMILES>  (602) 
S(c1nc2c(cc1C[NH2+]Cc3ccc(cc3)C[NH+](C)C)cccc2)Cc4ccccc4

>  <s_sd_BIOSOLVEIT.INFINISEE\_REACTION\_NAME>  (602) 
rxn102c

>  <s_sd_BIOSOLVEIT.INFINISEE\_REAGENT1\_NAME>  (602) 
EMOL2797927

>  <s_sd_BIOSOLVEIT.INFINISEE\_REAGENT1\_SMILES>  (602) 
Clc1ncc(c2c1cccc2)C(=O)N(c3ccc(Cl)cc3)C

>  <s_sd_BIOSOLVEIT.INFINISEE\_REAGENT2\_NAME>  (602) 
EMOL42768006

>  <s_sd_BIOSOLVEIT.INFINISEE\_REAGENT2\_SMILES>  (602) 
N(Cc1c(N)cccc1)C

>  <s_sd_BIOSOLVEIT.INFINISEE\_SPACE>  (602) 
eXplore_7tr_2022-12

>  <s_vsw_compound_code>  (602) 
85506

>  <s_vsw_variant>  (602) 
85506-1

>  <r_epik_Charging_Adjusted_Penalty>  (602) 
0.024796918473875201

>  <r_epik_Ionization_Penalty>  (602) 
0.025000000000000001

>  <r_epik_Ionization_Penalty_Charging>  (602) 
0

>  <r_epik_Ionization_Penalty_Neutral>  (602) 
0.025000000000000001

>  <r_epik_State_Penalty>  (602) 
0.024799999999999999

>  <r_i_docking_score>  (602) 
-3.7902907060125002

>  <r_i_glide_ecoul>  (602) 
-2.7082686424255402

>  <r_i_glide_eff_state_penalty>  (602) 
0.024799999999999999

>  <r_i_glide_einternal>  (602) 
5.2652707099914604

>  <r_i_glide_emodel>  (602) 
-46.451330525033299

>  <r_i_glide_energy>  (602) 
-39.554460048675502

>  <r_i_glide_erotb>  (602) 
0.64250295436093896

>  <r_i_glide_esite>  (602) 
-0.052254129855353097

>  <r_i_glide_evdw>  (602) 
-36.84619140625

>  <r_i_glide_gscore>  (602) 
-3.8150907060125001

>  <r_i_glide_hbond>  (602) 
0

>  <r_i_glide_ligand_efficiency>  (602) 
-0.12226744212943499

>  <r_i_glide_ligand_efficiency_ln>  (602) 
-0.85482671266585397

>  <r_i_glide_ligand_efficiency_sa>  (602) 
-0.384088576683141

>  <r_i_glide_lipo>  (602) 
-1.6858511638417599

>  <r_i_glide_metal>  (602) 
-0

>  <r_i_glide_rewards>  (602) 
-0.47093849999999898

>  <r_lp_Energy>  (602) 
46.537070999999997

>  <r_qp_ACxDN^.5/SA>  (602) 
0.010622400000000001

>  <r_qp_CIQPlogS>  (602) 
-7.0670000000000002

>  <r_qp_EA(eV)>  (602) 
1.1000000000000001

>  <r_qp_FISA>  (602) 
76.573999999999998

>  <r_qp_FOSA>  (602) 
177.684

>  <r_qp_IP(eV)>  (602) 
8.0869999999999997

>  <r_qp_Jm>  (602) 
0.212610252610103

>  <r_qp_PISA>  (602) 
322.36200000000002

>  <r_qp_PSA>  (602) 
61.311

>  <r_qp_PercentHumanOralAbsorption>  (602) 
100

>  <r_qp_QPPCaco>  (602) 
1861.0119999999999

>  <r_qp_QPPMDCK>  (602) 
1999.931

>  <r_qp_QPlogBB>  (602) 
-0.30499999999999999

>  <r_qp_QPlogHERG>  (602) 
-4.8920000000000003

>  <r_qp_QPlogKhsa>  (602) 
0.71899999999999997

>  <r_qp_QPlogKp>  (602) 
-1.2190000000000001

>  <r_qp_QPlogPC16>  (602) 
13.468

>  <r_qp_QPlogPo/w>  (602) 
4.8929999999999998

>  <r_qp_QPlogPoct>  (602) 
19.925999999999998

>  <r_qp_QPlogPw>  (602) 
10.27

>  <r_qp_QPlogS>  (602) 
-5.0880000000000001

>  <r_qp_QPpolrz>  (602) 
43.298999999999999

>  <r_qp_SASA>  (602) 
634.14099999999996

>  <r_qp_SAamideO>  (602) 
0

>  <r_qp_SAfluorine>  (602) 
0

>  <r_qp_WPSA>  (602) 
57.521000000000001

>  <r_qp_accptHB>  (602) 
5.5

>  <r_qp_dip^2/V>  (602) 
0.0058915

>  <r_qp_dipole>  (602) 
2.7189999999999999

>  <r_qp_donorHB>  (602) 
1.5

>  <r_qp_glob>  (602) 
0.8873354

>  <r_qp_mol_MW>  (602) 
430.93599999999998

>  <r_qp_volume>  (602) 
1255.0550000000001

>  <r_sd_BIOSOLVEIT.INFINISEE\_FTREES\_SIMILARITY>  (602) 
0.90900000000000003

>  <r_sd_BIOSOLVEIT.LOGP>  (602) 
5.3834

>  <r_sd_BIOSOLVEIT.MOLECULAR\_WEIGHT>  (602) 
430.93700000000001

>  <r_sd_BIOSOLVEIT.TPSA>  (602) 
62.460000000000001

>  <i_epik_Tot_Q>  (602) 
0

>  <i_epik_Tot_abs_Q>  (602) 
0

>  <i_f3d_flags>  (602) 
0

>  <i_i_glide_confnum>  (602) 
5

>  <i_i_glide_lignum>  (602) 
1297

>  <i_i_glide_posenum>  (602) 
5

>  <i_i_glide_rotatable_bonds>  (602) 
6

>  <i_lp_mmshare_version>  (602) 
65135

>  <i_m_ct_format>  (602) 
2

>  <i_m_source_file_index>  (602) 
2673

>  <i_qp_#NandO>  (602) 
5

>  <i_qp_#acid>  (602) 
0

>  <i_qp_#amide>  (602) 
0

>  <i_qp_#amidine>  (602) 
0

>  <i_qp_#amine>  (602) 
0

>  <i_qp_#in34>  (602) 
0

>  <i_qp_#in56>  (602) 
22

>  <i_qp_#metab>  (602) 
4

>  <i_qp_#nonHatm>  (602) 
31

>  <i_qp_#noncon>  (602) 
0

>  <i_qp_#ringatoms>  (602) 
22

>  <i_qp_#rotor>  (602) 
6

>  <i_qp_#rtvFG>  (602) 
0

>  <i_qp_#stars>  (602) 
0

>  <i_qp_CNS>  (602) 
0

>  <i_qp_HumanOralAbsorption>  (602) 
3

>  <i_qp_RuleOfFive>  (602) 
0

>  <i_qp_RuleOfThree>  (602) 
0

>  <i_sd_BIOSOLVEIT.INFINISEE\_RESULT\_RANK>  (602) 
49327

>  <i_sd_version>  (602) 
0

>  <b_lp_Chiralities_Consistent>  (602) 
1

>  <b_sd_chiral_flag>  (602) 
0

>  <canonical_id>  (602) 
ATP-HTVS-5CFA0109773F

>  <compound_code>  (602) 
85506

>  <title>  (602) 
rxn102c____EMOL2797927____EMOL42768006

>  <variant>  (602) 
85506-1

>  <source_file>  (602) 
运行/运行/ATP-VSW/ATP-VSW-DOCK_HTVS_1-002_lib.maegz

>  <canonical_smiles>  (602) 
CN(Cc1ccccc1N)c1ncc(C(=O)N(C)c2ccc(Cl)cc2)c2ccccc12

>  <scaffold>  (602) 
O=C(Nc1ccccc1)c1cnc(NCc2ccccc2)c2ccccc12

>  <molecular_formula>  (602) 
C25H23ClN4O

$$$$
ATP-HTVS-5D344E99E653
     RDKit          3D

 59 62  0  0  0  0  0  0  0  0999 V2000
  196.7397  187.5339  160.5914 F   0  0  0  0  0  0  0  0  0  0  0  0
  196.4715  186.4166  159.8769 C   0  0  0  0  0  0  0  0  0  0  0  0
  196.9436  186.2806  158.5520 C   0  0  0  0  0  0  0  0  0  0  0  0
  196.6446  185.1366  157.7875 C   0  0  0  0  0  0  0  0  0  0  0  0
  195.9513  184.0497  158.3858 C   0  0  0  0  0  0  0  0  0  0  0  0
  195.4593  184.2022  159.7136 C   0  0  0  0  0  0  0  0  0  0  0  0
  195.7023  185.3851  160.4492 C   0  0  0  0  0  0  0  0  0  0  0  0
  195.7398  182.7419  157.5993 C   0  0  1  0  0  0  0  0  0  0  0  0
  196.9323  181.8430  157.5726 N   0  0  1  0  0  0  0  0  0  0  0  0
  198.2955  182.4565  157.6031 C   0  0  1  0  0  0  0  0  0  0  0  0
  198.5097  183.1945  156.3499 C   0  0  0  0  0  0  0  0  0  0  0  0
  198.5756  183.8533  155.3232 C   0  0  0  0  0  0  0  0  0  0  0  0
  198.4787  184.6385  154.0899 C   0  0  0  0  0  0  0  0  0  0  0  0
  197.9350  184.0442  152.9170 C   0  0  0  0  0  0  0  0  0  0  0  0
  197.4643  182.6952  152.9645 N   0  0  0  0  0  0  0  0  0  0  0  0
  196.6986  182.0226  152.0845 C   0  0  0  0  0  0  0  0  0  0  0  0
  196.2628  182.4893  151.0323 O   0  0  0  0  0  0  0  0  0  0  0  0
  196.3430  180.5821  152.4668 C   0  0  1  0  0  0  0  0  0  0  0  0
  197.5464  179.6576  152.2921 C   0  0  0  0  0  0  0  0  0  0  0  0
  197.8384  179.0075  151.0613 C   0  0  0  0  0  0  0  0  0  0  0  0
  197.0112  179.1877  149.8746 C   0  0  0  0  0  0  0  0  0  0  0  0
  196.3547  179.3309  148.9348 N   0  0  0  0  0  0  0  0  0  0  0  0
  198.9562  178.1520  150.9700 C   0  0  0  0  0  0  0  0  0  0  0  0
  199.7914  177.9466  152.0843 C   0  0  0  0  0  0  0  0  0  0  0  0
  199.5141  178.5966  153.2996 C   0  0  0  0  0  0  0  0  0  0  0  0
  198.3943  179.4422  153.4033 C   0  0  0  0  0  0  0  0  0  0  0  0
  197.9067  184.8196  151.7390 C   0  0  0  0  0  0  0  0  0  0  0  0
  198.3291  186.0926  151.6753 N   0  0  0  0  0  0  0  0  0  0  0  0
  198.7778  186.6931  152.7900 C   0  0  0  0  0  0  0  0  0  0  0  0
  198.8695  186.0151  154.0376 C   0  0  0  0  0  0  0  0  0  0  0  0
  199.3432  186.7252  155.1714 C   0  0  0  0  0  0  0  0  0  0  0  0
  199.7578  188.0687  155.0546 C   0  0  0  0  0  0  0  0  0  0  0  0
  199.6923  188.7247  153.8147 C   0  0  0  0  0  0  0  0  0  0  0  0
  199.1982  188.0363  152.6976 C   0  0  0  0  0  0  0  0  0  0  0  0
  194.5111  181.9399  158.0712 C   0  0  2  0  0  0  0  0  0  0  0  0
  196.8529  181.2190  158.3686 H   0  0  0  0  0  0  0  0  0  0  0  0
  197.5542  187.0687  158.1225 H   0  0  0  0  0  0  0  0  0  0  0  0
  196.9657  185.0879  156.7565 H   0  0  0  0  0  0  0  0  0  0  0  0
  194.8818  183.4239  160.2002 H   0  0  0  0  0  0  0  0  0  0  0  0
  195.3055  185.4860  161.4475 H   0  0  0  0  0  0  0  0  0  0  0  0
  195.5638  183.0313  156.5659 H   0  0  0  0  0  0  0  0  0  0  0  0
  198.4151  183.1450  158.4384 H   0  0  0  0  0  0  0  0  0  0  0  0
  199.0787  181.6976  157.7011 H   0  0  0  0  0  0  0  0  0  0  0  0
  197.7072  182.1920  153.8035 H   0  0  0  0  0  0  0  0  0  0  0  0
  195.9865  180.5450  153.4925 H   0  0  0  0  0  0  0  0  0  0  0  0
  195.5057  180.2514  151.8472 H   0  0  0  0  0  0  0  0  0  0  0  0
  199.1787  177.6473  150.0407 H   0  0  0  0  0  0  0  0  0  0  0  0
  200.6423  177.2869  152.0040 H   0  0  0  0  0  0  0  0  0  0  0  0
  200.1514  178.4343  154.1561 H   0  0  0  0  0  0  0  0  0  0  0  0
  198.1866  179.9233  154.3493 H   0  0  0  0  0  0  0  0  0  0  0  0
  197.5828  184.4286  150.7906 H   0  0  0  0  0  0  0  0  0  0  0  0
  199.4169  186.2565  156.1407 H   0  0  0  0  0  0  0  0  0  0  0  0
  200.1432  188.6000  155.9100 H   0  0  0  0  0  0  0  0  0  0  0  0
  200.0182  189.7528  153.7136 H   0  0  0  0  0  0  0  0  0  0  0  0
  199.1552  188.5348  151.7420 H   0  0  0  0  0  0  0  0  0  0  0  0
  193.6132  182.5547  158.0400 H   0  0  0  0  0  0  0  0  0  0  0  0
  194.6186  181.5581  159.0885 H   0  0  0  0  0  0  0  0  0  0  0  0
  194.3168  181.0666  157.4379 H   0  0  0  0  0  0  0  0  0  0  0  0
  196.8663  181.2441  156.7597 H   0  0  0  0  0  0  0  0  0  0  0  0
  1  2  1  0
  2  3  1  0
  2  7  2  0
  3  4  2  0
  3 37  1  0
  4  5  1  0
  4 38  1  0
  5  6  2  0
  5  8  1  0
  6  7  1  0
  6 39  1  0
  7 40  1  0
  8  9  1  0
  8 35  1  0
  8 41  1  6
  9 10  1  0
  9 36  1  1
  9 59  1  0
 10 11  1  0
 10 42  1  1
 10 43  1  0
 11 12  3  0
 12 13  1  0
 13 14  2  0
 13 30  1  0
 14 15  1  0
 14 27  1  0
 15 16  1  0
 15 44  1  0
 16 17  2  0
 16 18  1  0
 18 19  1  0
 18 45  1  1
 18 46  1  0
 19 20  1  0
 19 26  2  0
 20 21  1  0
 20 23  2  0
 21 22  3  0
 23 24  1  0
 23 47  1  0
 24 25  2  0
 24 48  1  0
 25 26  1  0
 25 49  1  0
 26 50  1  0
 27 28  2  0
 27 51  1  0
 28 29  1  0
 29 30  1  0
 29 34  2  0
 30 31  2  0
 31 32  1  0
 31 52  1  0
 32 33  2  0
 32 53  1  0
 33 34  1  0
 33 54  1  0
 34 55  1  0
 35 56  1  1
 35 57  1  0
 35 58  1  0
M  CHG  1   9   1
M  END
>  <s_epik_cmdline>  (603) 
J2VwaWtfcHl0aG9uJywgJy1waCcsICc3LjAwMDAwMCcsICctcGh0JywgJzIuMDAwMDAwJywgJy1tcycsICcxNicsICctdG4nLCAnOCcsICctbWEnLCAnMjAwJywgJy1pbWFlJywgJzxpbmZpbGUubWFlPicsICctb21hZScsICc8b3V0ZmlsZS5tYWU+Jw==

>  <s_epik_input>  (603) 
RmMxW2NIXVtjSF1jKFtjSF1bY0hdMSlbQ0BIXShbQ0gzXSlbTkhdW0NIMl1DI0NjKGMoYzIzKVtjSF1bY0hdW2NIXVtjSF0zKWMoW2NIXW4yKVtOSF1DKD1PKVtDSDJdYzRjKEMjTilbY0hdW2NIXVtjSF1bY0hdNA==

>  <s_i_glide_gridfile>  (603) 
ATP-Grid

>  <s_lp_Force_Field>  (603) 
OPLS_2005

>  <s_lp_Variant>  (603) 
rxn503b____EMOL3801098____EMOL30488121____EMOL317506007-4

>  <s_lp_label>  (603) 
2728_sdstereoexpander_2_neutralizer_1_epik_2_stereoizer_1

>  <s_m_source_file>  (603) 
ATP-VSW-LIGPREP-002-in.maegz

>  <s_sd_BIOSOLVEIT.INFINISEE\_QUERY\_NAME>  (603) 
Ref-Lig

>  <s_sd_BIOSOLVEIT.INFINISEE\_QUERY\_SMILES>  (603) 
S(c1nc2c(cc1C[NH2+]Cc3ccc(cc3)C[NH+](C)C)cccc2)Cc4ccccc4

>  <s_sd_BIOSOLVEIT.INFINISEE\_REACTION\_NAME>  (603) 
rxn503b

>  <s_sd_BIOSOLVEIT.INFINISEE\_REAGENT1\_NAME>  (603) 
EMOL3801098

>  <s_sd_BIOSOLVEIT.INFINISEE\_REAGENT1\_SMILES>  (603) 
O=C(O)Cc1c(C#N)cccc1

>  <s_sd_BIOSOLVEIT.INFINISEE\_REAGENT2\_NAME>  (603) 
EMOL30488121

>  <s_sd_BIOSOLVEIT.INFINISEE\_REAGENT2\_SMILES>  (603) 
Brc1c(N)cnc2c1cccc2

>  <s_sd_BIOSOLVEIT.INFINISEE\_REAGENT3\_NAME>  (603) 
EMOL317506007

>  <s_sd_BIOSOLVEIT.INFINISEE\_REAGENT3\_SMILES>  (603) 
Fc1ccc(cc1)C(NCC#C)C

>  <s_sd_BIOSOLVEIT.INFINISEE\_SPACE>  (603) 
eXplore_7tr_2022-12

>  <s_vsw_compound_code>  (603) 
87266

>  <s_vsw_variant>  (603) 
87266-4

>  <r_epik_Charging_Adjusted_Penalty>  (603) 
1.1575994546039801

>  <r_epik_Ionization_Penalty>  (603) 
0.57899999999999996

>  <r_epik_Ionization_Penalty_Charging>  (603) 
0.57879999999999998

>  <r_epik_Ionization_Penalty_Neutral>  (603) 
0.00020000000000000001

>  <r_epik_State_Penalty>  (603) 
0.57879999999999998

>  <r_i_docking_score>  (603) 
-3.9798271463916901

>  <r_i_glide_ecoul>  (603) 
-7.5854697227478001

>  <r_i_glide_eff_state_penalty>  (603) 
0.57879999999999998

>  <r_i_glide_einternal>  (603) 
8.5545568466186506

>  <r_i_glide_emodel>  (603) 
-57.464032777883098

>  <r_i_glide_energy>  (603) 
-43.7595763206482

>  <r_i_glide_erotb>  (603) 
0.75035871410553501

>  <r_i_glide_esite>  (603) 
-0.11787119188808701

>  <r_i_glide_evdw>  (603) 
-36.174106597900398

>  <r_i_glide_gscore>  (603) 
-4.5586271463916903

>  <r_i_glide_hbond>  (603) 
0

>  <r_i_glide_ligand_efficiency>  (603) 
-0.113709347039763

>  <r_i_glide_ligand_efficiency_ln>  (603) 
-0.87366038613753005

>  <r_i_glide_ligand_efficiency_sa>  (603) 
-0.37195081381450501

>  <r_i_glide_lipo>  (603) 
-1.44989514149098

>  <r_i_glide_metal>  (603) 
-0

>  <r_i_glide_rewards>  (603) 
-0.79469373881096295

>  <r_lp_Energy>  (603) 
24.26023

>  <r_qp_ACxDN^.5/SA>  (603) 
0.0129753

>  <r_qp_CIQPlogS>  (603) 
-7.2270000000000003

>  <r_qp_EA(eV)>  (603) 
1.0429999999999999

>  <r_qp_FISA>  (603) 
78.210999999999999

>  <r_qp_FOSA>  (603) 
149.91999999999999

>  <r_qp_IP(eV)>  (603) 
8.5229999999999997

>  <r_qp_Jm>  (603) 
0.0079470837736151604

>  <r_qp_PISA>  (603) 
448.67700000000002

>  <r_qp_PSA>  (603) 
80.972999999999999

>  <r_qp_PercentHumanOralAbsorption>  (603) 
100

>  <r_qp_QPPCaco>  (603) 
447.83999999999997

>  <r_qp_QPPMDCK>  (603) 
342.36099999999999

>  <r_qp_QPlogBB>  (603) 
-0.22700000000000001

>  <r_qp_QPlogHERG>  (603) 
-6.8529999999999998

>  <r_qp_QPlogKhsa>  (603) 
0.71199999999999997

>  <r_qp_QPlogKp>  (603) 
-2.5790000000000002

>  <r_qp_QPlogPC16>  (603) 
14.977

>  <r_qp_QPlogPo/w>  (603) 
4.7210000000000001

>  <r_qp_QPlogPoct>  (603) 
23.178999999999998

>  <r_qp_QPlogPw>  (603) 
12.365

>  <r_qp_QPlogS>  (603) 
-5.1859999999999999

>  <r_qp_QPpolrz>  (603) 
47.790999999999997

>  <r_qp_SASA>  (603) 
708.45299999999997

>  <r_qp_SAamideO>  (603) 
0

>  <r_qp_SAfluorine>  (603) 
31.645

>  <r_qp_WPSA>  (603) 
31.645

>  <r_qp_accptHB>  (603) 
6.5

>  <r_qp_dip^2/V>  (603) 
0.043627800000000001

>  <r_qp_dipole>  (603) 
7.774

>  <r_qp_donorHB>  (603) 
2

>  <r_qp_glob>  (603) 
0.84829589999999999

>  <r_qp_mol_MW>  (603) 
462.52499999999998

>  <r_qp_volume>  (603) 
1385.289

>  <r_sd_BIOSOLVEIT.INFINISEE\_FTREES\_SIMILARITY>  (603) 
0.90800000000000003

>  <r_sd_BIOSOLVEIT.LOGP>  (603) 
4.1028799999999999

>  <r_sd_BIOSOLVEIT.MOLECULAR\_WEIGHT>  (603) 
463.53399999999999

>  <r_sd_BIOSOLVEIT.TPSA>  (603) 
82.390000000000001

>  <i_epik_Tot_Q>  (603) 
1

>  <i_epik_Tot_abs_Q>  (603) 
1

>  <i_f3d_flags>  (603) 
0

>  <i_i_glide_confnum>  (603) 
3

>  <i_i_glide_lignum>  (603) 
1315

>  <i_i_glide_posenum>  (603) 
7

>  <i_i_glide_rotatable_bonds>  (603) 
9

>  <i_lp_mmshare_version>  (603) 
65135

>  <i_m_ct_format>  (603) 
2

>  <i_m_source_file_index>  (603) 
2728

>  <i_qp_#NandO>  (603) 
5

>  <i_qp_#acid>  (603) 
0

>  <i_qp_#amide>  (603) 
0

>  <i_qp_#amidine>  (603) 
0

>  <i_qp_#amine>  (603) 
1

>  <i_qp_#in34>  (603) 
0

>  <i_qp_#in56>  (603) 
22

>  <i_qp_#metab>  (603) 
5

>  <i_qp_#nonHatm>  (603) 
35

>  <i_qp_#noncon>  (603) 
0

>  <i_qp_#ringatoms>  (603) 
22

>  <i_qp_#rotor>  (603) 
9

>  <i_qp_#rtvFG>  (603) 
0

>  <i_qp_#stars>  (603) 
0

>  <i_qp_CNS>  (603) 
1

>  <i_qp_HumanOralAbsorption>  (603) 
3

>  <i_qp_RuleOfFive>  (603) 
0

>  <i_qp_RuleOfThree>  (603) 
0

>  <i_sd_BIOSOLVEIT.INFINISEE\_RESULT\_RANK>  (603) 
55879

>  <i_sd_version>  (603) 
0

>  <b_lp_Chiralities_Consistent>  (603) 
1

>  <b_sd_chiral_flag>  (603) 
0

>  <canonical_id>  (603) 
ATP-HTVS-5D344E99E653

>  <compound_code>  (603) 
87266

>  <title>  (603) 
rxn503b____EMOL3801098____EMOL30488121____EMOL317506007

>  <variant>  (603) 
87266-4

>  <source_file>  (603) 
运行/运行/ATP-VSW/ATP-VSW-DOCK_HTVS_1-002_lib.maegz

>  <canonical_smiles>  (603) 
C[C@H]([NH2+]CC#Cc1c(NC(=O)Cc2ccccc2C#N)cnc2ccccc12)c1ccc(F)cc1

>  <scaffold>  (603) 
O=C(Cc1ccccc1)Nc1cnc2ccccc2c1C#CC[NH2+]Cc1ccccc1

>  <molecular_formula>  (603) 
C29H24FN4O+

$$$$
ATP-HTVS-5D5940BED632
     RDKit          3D

 61 64  0  0  0  0  0  0  0  0999 V2000
  199.1036  183.5360  159.6718 O   0  0  0  0  0  0  0  0  0  0  0  0
  199.0933  184.6680  159.1800 C   0  0  0  0  0  0  0  0  0  0  0  0
  197.9808  185.3549  158.8523 N   0  0  0  0  0  0  0  0  0  0  0  0
  196.6421  184.9343  159.0811 C   0  0  0  0  0  0  0  0  0  0  0  0
  196.1163  183.7491  158.5017 C   0  0  0  0  0  0  0  0  0  0  0  0
  196.9424  182.8597  157.8051 N   0  0  0  0  0  0  0  0  0  0  0  0
  196.9625  182.9139  156.3460 C   0  0  1  0  0  0  0  0  0  0  0  0
  197.7150  181.7557  155.6778 C   0  0  0  0  0  0  0  0  0  0  0  0
  198.7717  181.0891  156.3449 C   0  0  0  0  0  0  0  0  0  0  0  0
  199.4869  180.0356  155.7192 C   0  0  0  0  0  0  0  0  0  0  0  0
  199.1570  179.6790  154.3965 C   0  0  0  0  0  0  0  0  0  0  0  0
  198.0963  180.3178  153.7347 C   0  0  0  0  0  0  0  0  0  0  0  0
  197.3798  181.3542  154.3647 C   0  0  0  0  0  0  0  0  0  0  0  0
  200.5823  179.2817  156.4661 C   0  0  1  0  0  0  0  0  0  0  0  0
  200.0561  178.0852  157.1770 N   0  0  2  0  0  0  0  0  0  0  0  0
  201.0498  177.5263  158.1152 C   0  0  2  0  0  0  0  0  0  0  0  0
  199.5250  177.0419  156.2867 C   0  0  2  0  0  0  0  0  0  0  0  0
  194.7673  183.4342  158.7864 C   0  0  0  0  0  0  0  0  0  0  0  0
  193.9791  184.2081  159.5580 N   0  0  0  0  0  0  0  0  0  0  0  0
  194.4715  185.3320  160.1079 C   0  0  0  0  0  0  0  0  0  0  0  0
  195.8013  185.7588  159.8776 C   0  0  0  0  0  0  0  0  0  0  0  0
  196.2621  186.9599  160.4921 C   0  0  0  0  0  0  0  0  0  0  0  0
  195.4143  187.7091  161.3181 C   0  0  0  0  0  0  0  0  0  0  0  0
  194.0913  187.3054  161.5350 C   0  0  0  0  0  0  0  0  0  0  0  0
  193.6318  186.1245  160.9331 C   0  0  0  0  0  0  0  0  0  0  0  0
  200.3854  185.4064  159.0151 C   0  0  0  0  0  0  0  0  0  0  0  0
  201.4407  185.1166  159.9042 C   0  0  0  0  0  0  0  0  0  0  0  0
  202.6787  185.7728  159.7852 C   0  0  0  0  0  0  0  0  0  0  0  0
  202.8750  186.7254  158.7664 C   0  0  0  0  0  0  0  0  0  0  0  0
  201.8302  187.0097  157.8632 C   0  0  0  0  0  0  0  0  0  0  0  0
  200.5882  186.3506  157.9795 C   0  0  0  0  0  0  0  0  0  0  0  0
  204.2047  187.4433  158.6500 C   0  0  2  0  0  0  0  0  0  0  0  0
  198.1013  186.3307  158.6163 H   0  0  0  0  0  0  0  0  0  0  0  0
  196.9641  181.9206  158.1795 H   0  0  0  0  0  0  0  0  0  0  0  0
  195.9403  182.9053  155.9898 H   0  0  0  0  0  0  0  0  0  0  0  0
  197.4237  183.8524  156.0052 H   0  0  0  0  0  0  0  0  0  0  0  0
  199.0301  181.3965  157.3472 H   0  0  0  0  0  0  0  0  0  0  0  0
  199.6906  178.8861  153.9017 H   0  0  0  0  0  0  0  0  0  0  0  0
  197.8445  180.0079  152.7256 H   0  0  0  0  0  0  0  0  0  0  0  0
  196.5776  181.8437  153.8260 H   0  0  0  0  0  0  0  0  0  0  0  0
  201.3799  178.9795  155.7813 H   0  0  0  0  0  0  0  0  0  0  0  0
  201.0497  179.9769  157.1655 H   0  0  0  0  0  0  0  0  0  0  0  0
  201.9299  177.1649  157.5776 H   0  0  0  0  0  0  0  0  0  0  0  0
  200.6361  176.6803  158.6597 H   0  0  0  0  0  0  0  0  0  0  0  0
  201.3808  178.2553  158.8543 H   0  0  0  0  0  0  0  0  0  0  0  0
  200.2881  176.6516  155.6153 H   0  0  0  0  0  0  0  0  0  0  0  0
  198.6830  177.3988  155.6999 H   0  0  0  0  0  0  0  0  0  0  0  0
  199.1389  176.2382  156.8976 H   0  0  0  0  0  0  0  0  0  0  0  0
  194.2984  182.5416  158.4107 H   0  0  0  0  0  0  0  0  0  0  0  0
  197.2843  187.2901  160.3655 H   0  0  0  0  0  0  0  0  0  0  0  0
  195.7827  188.6276  161.7663 H   0  0  0  0  0  0  0  0  0  0  0  0
  193.4404  187.8871  162.1667 H   0  0  0  0  0  0  0  0  0  0  0  0
  192.6035  185.8345  161.0809 H   0  0  0  0  0  0  0  0  0  0  0  0
  201.2988  184.3836  160.6851 H   0  0  0  0  0  0  0  0  0  0  0  0
  203.4682  185.5408  160.4845 H   0  0  0  0  0  0  0  0  0  0  0  0
  201.9798  187.7384  157.0789 H   0  0  0  0  0  0  0  0  0  0  0  0
  199.8101  186.5744  157.2632 H   0  0  0  0  0  0  0  0  0  0  0  0
  204.4291  187.6751  157.6099 H   0  0  0  0  0  0  0  0  0  0  0  0
  205.0160  186.8301  159.0416 H   0  0  0  0  0  0  0  0  0  0  0  0
  204.1759  188.3755  159.2126 H   0  0  0  0  0  0  0  0  0  0  0  0
  199.2424  178.3672  157.7127 H   0  0  0  0  0  0  0  0  0  0  0  0
  1  2  2  0
  2  3  1  0
  2 26  1  0
  3  4  1  0
  3 33  1  0
  4  5  2  0
  4 21  1  0
  5  6  1  0
  5 18  1  0
  6  7  1  0
  6 34  1  0
  7  8  1  0
  7 35  1  6
  7 36  1  0
  8  9  2  0
  8 13  1  0
  9 10  1  0
  9 37  1  0
 10 11  2  0
 10 14  1  0
 11 12  1  0
 11 38  1  0
 12 13  2  0
 12 39  1  0
 13 40  1  0
 14 15  1  0
 14 41  1  6
 14 42  1  0
 15 16  1  0
 15 17  1  0
 15 61  1  1
 16 43  1  6
 16 44  1  0
 16 45  1  0
 17 46  1  6
 17 47  1  0
 17 48  1  0
 18 19  2  0
 18 49  1  0
 19 20  1  0
 20 21  1  0
 20 25  2  0
 21 22  2  0
 22 23  1  0
 22 50  1  0
 23 24  2  0
 23 51  1  0
 24 25  1  0
 24 52  1  0
 25 53  1  0
 26 27  1  0
 26 31  2  0
 27 28  2  0
 27 54  1  0
 28 29  1  0
 28 55  1  0
 29 30  2  0
 29 32  1  0
 30 31  1  0
 30 56  1  0
 31 57  1  0
 32 58  1  6
 32 59  1  0
 32 60  1  0
M  CHG  1  15   1
M  END
>  <s_epik_cmdline>  (604) 
J2VwaWtfcHl0aG9uJywgJy1waCcsICc3LjAwMDAwMCcsICctcGh0JywgJzIuMDAwMDAwJywgJy1tcycsICcxNicsICctdG4nLCAnOCcsICctbWEnLCAnMjAwJywgJy1pbWFlJywgJzxpbmZpbGUubWFlPicsICctb21hZScsICc8b3V0ZmlsZS5tYWU+Jw==

>  <s_epik_input>  (604) 
W2NIXTFbY0hdYyhbQ0gzXSlbY0hdW2NIXWMxQyg9TylbTkhdYyhjKGMyMylbY0hdW2NIXVtjSF1bY0hdMyljKFtjSF1uMilbTkhdW0NIMl1jNFtjSF1jKFtjSF1bY0hdW2NIXTQpW0NIMl1OKFtDSDNdKVtDSDNd

>  <s_i_glide_gridfile>  (604) 
ATP-Grid

>  <s_lp_Force_Field>  (604) 
OPLS_2005

>  <s_lp_Variant>  (604) 
rxn502b____EMOL532087____EMOL13728749____EMOL2873214-1

>  <s_lp_label>  (604) 
2208_sdstereoexpander_1_neutralizer_1_epik_1_stereoizer_1

>  <s_m_source_file>  (604) 
ATP-VSW-LIGPREP-003-in.maegz

>  <s_sd_BIOSOLVEIT.INFINISEE\_QUERY\_NAME>  (604) 
Ref-Lig

>  <s_sd_BIOSOLVEIT.INFINISEE\_QUERY\_SMILES>  (604) 
S(c1nc2c(cc1C[NH2+]Cc3ccc(cc3)C[NH+](C)C)cccc2)Cc4ccccc4

>  <s_sd_BIOSOLVEIT.INFINISEE\_REACTION\_NAME>  (604) 
rxn502b

>  <s_sd_BIOSOLVEIT.INFINISEE\_REAGENT1\_NAME>  (604) 
EMOL532087

>  <s_sd_BIOSOLVEIT.INFINISEE\_REAGENT1\_SMILES>  (604) 
O=C(O)c1ccc(cc1)C

>  <s_sd_BIOSOLVEIT.INFINISEE\_REAGENT2\_NAME>  (604) 
EMOL13728749

>  <s_sd_BIOSOLVEIT.INFINISEE\_REAGENT2\_SMILES>  (604) 
Brc1c(N)c2c(nc1)cccc2

>  <s_sd_BIOSOLVEIT.INFINISEE\_REAGENT3\_NAME>  (604) 
EMOL2873214

>  <s_sd_BIOSOLVEIT.INFINISEE\_REAGENT3\_SMILES>  (604) 
N(Cc1cc(ccc1)CN)(C)C

>  <s_sd_BIOSOLVEIT.INFINISEE\_SPACE>  (604) 
eXplore_7tr_2022-12

>  <s_vsw_compound_code>  (604) 
70627

>  <s_vsw_variant>  (604) 
70627-1

>  <r_epik_Charging_Adjusted_Penalty>  (604) 
0.127426369452352

>  <r_epik_Ionization_Penalty>  (604) 
0.083299999999999999

>  <r_epik_Ionization_Penalty_Charging>  (604) 
0.0441

>  <r_epik_Ionization_Penalty_Neutral>  (604) 
0.039199999999999999

>  <r_epik_State_Penalty>  (604) 
0.083299999999999999

>  <r_i_docking_score>  (604) 
-4.2493383469608697

>  <r_i_glide_ecoul>  (604) 
-7.4179363250732404

>  <r_i_glide_eff_state_penalty>  (604) 
0.083299999999999999

>  <r_i_glide_einternal>  (604) 
8.1939849853515607

>  <r_i_glide_emodel>  (604) 
-53.982096252918602

>  <r_i_glide_energy>  (604) 
-42.284955978393597

>  <r_i_glide_erotb>  (604) 
0.76684582739809504

>  <r_i_glide_esite>  (604) 
-0.12562809714091799

>  <r_i_glide_evdw>  (604) 
-34.867019653320298

>  <r_i_glide_gscore>  (604) 
-4.3326383469608798

>  <r_i_glide_hbond>  (604) 
-0.16255119028412801

>  <r_i_glide_ligand_efficiency>  (604) 
-0.13279182334252701

>  <r_i_glide_ligand_efficiency_ln>  (604) 
-0.95154268847309498

>  <r_i_glide_ligand_efficiency_sa>  (604) 
-0.42158775964636902

>  <r_i_glide_lipo>  (604) 
-1.36197637572788

>  <r_i_glide_metal>  (604) 
-0

>  <r_i_glide_rewards>  (604) 
-0.59328707977904305

>  <r_lp_Energy>  (604) 
36.030461000000003

>  <r_qp_ACxDN^.5/SA>  (604) 
0.012822699999999999

>  <r_qp_CIQPlogS>  (604) 
-5.4640000000000004

>  <r_qp_EA(eV)>  (604) 
0.80700000000000005

>  <r_qp_FISA>  (604) 
56.468000000000004

>  <r_qp_FOSA>  (604) 
292.892

>  <r_qp_IP(eV)>  (604) 
8.1489999999999991

>  <r_qp_Jm>  (604) 
0.028419913368665398

>  <r_qp_PISA>  (604) 
367.52499999999998

>  <r_qp_PSA>  (604) 
55.368000000000002

>  <r_qp_PercentHumanOralAbsorption>  (604) 
100

>  <r_qp_QPPCaco>  (604) 
719.96299999999997

>  <r_qp_QPPMDCK>  (604) 
383.70600000000002

>  <r_qp_QPlogBB>  (604) 
-0.0089999999999999993

>  <r_qp_QPlogHERG>  (604) 
-6.7949999999999999

>  <r_qp_QPlogKhsa>  (604) 
0.71599999999999997

>  <r_qp_QPlogKp>  (604) 
-2.6560000000000001

>  <r_qp_QPlogPC16>  (604) 
14.263

>  <r_qp_QPlogPo/w>  (604) 
4.4820000000000002

>  <r_qp_QPlogPoct>  (604) 
22.398

>  <r_qp_QPlogPw>  (604) 
12.116

>  <r_qp_QPlogS>  (604) 
-4.5179999999999998

>  <r_qp_QPpolrz>  (604) 
47.276000000000003

>  <r_qp_SASA>  (604) 
716.88599999999997

>  <r_qp_SAamideO>  (604) 
0

>  <r_qp_SAfluorine>  (604) 
0

>  <r_qp_WPSA>  (604) 
0

>  <r_qp_accptHB>  (604) 
6.5

>  <r_qp_dip^2/V>  (604) 
0.030976

>  <r_qp_dipole>  (604) 
6.4900000000000002

>  <r_qp_donorHB>  (604) 
2

>  <r_qp_glob>  (604) 
0.82795890000000005

>  <r_qp_mol_MW>  (604) 
424.54399999999998

>  <r_qp_volume>  (604) 
1359.692

>  <r_sd_BIOSOLVEIT.INFINISEE\_FTREES\_SIMILARITY>  (604) 
0.93100000000000005

>  <r_sd_BIOSOLVEIT.LOGP>  (604) 
4.0521200000000004

>  <r_sd_BIOSOLVEIT.MOLECULAR\_WEIGHT>  (604) 
425.553

>  <r_sd_BIOSOLVEIT.TPSA>  (604) 
58.460000000000001

>  <i_epik_Tot_Q>  (604) 
1

>  <i_epik_Tot_abs_Q>  (604) 
1

>  <i_f3d_flags>  (604) 
0

>  <i_i_glide_confnum>  (604) 
8

>  <i_i_glide_lignum>  (604) 
865

>  <i_i_glide_posenum>  (604) 
2

>  <i_i_glide_rotatable_bonds>  (604) 
8

>  <i_lp_mmshare_version>  (604) 
65135

>  <i_m_ct_format>  (604) 
2

>  <i_m_source_file_index>  (604) 
2208

>  <i_qp_#NandO>  (604) 
5

>  <i_qp_#acid>  (604) 
0

>  <i_qp_#amide>  (604) 
0

>  <i_qp_#amidine>  (604) 
0

>  <i_qp_#amine>  (604) 
1

>  <i_qp_#in34>  (604) 
0

>  <i_qp_#in56>  (604) 
22

>  <i_qp_#metab>  (604) 
7

>  <i_qp_#nonHatm>  (604) 
32

>  <i_qp_#noncon>  (604) 
0

>  <i_qp_#ringatoms>  (604) 
22

>  <i_qp_#rotor>  (604) 
7

>  <i_qp_#rtvFG>  (604) 
0

>  <i_qp_#stars>  (604) 
0

>  <i_qp_CNS>  (604) 
1

>  <i_qp_HumanOralAbsorption>  (604) 
3

>  <i_qp_RuleOfFive>  (604) 
0

>  <i_qp_RuleOfThree>  (604) 
1

>  <i_sd_BIOSOLVEIT.INFINISEE\_RESULT\_RANK>  (604) 
4335

>  <i_sd_version>  (604) 
0

>  <b_lp_Chiralities_Consistent>  (604) 
1

>  <b_sd_chiral_flag>  (604) 
0

>  <canonical_id>  (604) 
ATP-HTVS-5D5940BED632

>  <compound_code>  (604) 
70627

>  <title>  (604) 
rxn502b____EMOL532087____EMOL13728749____EMOL2873214

>  <variant>  (604) 
70627-1

>  <source_file>  (604) 
运行/运行/ATP-VSW/ATP-VSW-DOCK_HTVS_1-003_lib/ATP-VSW-DOCK_HTVS_1-003_lib.mae

>  <canonical_smiles>  (604) 
Cc1ccc(C(=O)Nc2c(NCc3cccc(C[NH+](C)C)c3)cnc3ccccc23)cc1

>  <scaffold>  (604) 
O=C(Nc1c(NCc2ccccc2)cnc2ccccc12)c1ccccc1

>  <molecular_formula>  (604) 
C27H29N4O+

$$$$
ATP-HTVS-5D5A320A0101
     RDKit          3D

 62 65  0  0  0  0  0  0  0  0999 V2000
  198.7429  189.2379  158.2211 Cl  0  0  0  0  0  0  0  0  0  0  0  0
  198.0377  187.6703  158.0706 C   0  0  0  0  0  0  0  0  0  0  0  0
  197.7482  186.9177  159.2201 C   0  0  0  0  0  0  0  0  0  0  0  0
  197.1954  185.6323  159.0993 C   0  0  0  0  0  0  0  0  0  0  0  0
  196.8801  185.0677  157.8394 C   0  0  0  0  0  0  0  0  0  0  0  0
  197.1693  185.8544  156.6927 C   0  0  0  0  0  0  0  0  0  0  0  0
  197.7490  187.1362  156.8024 C   0  0  0  0  0  0  0  0  0  0  0  0
  196.2456  183.7036  157.7282 C   0  0  2  0  0  0  0  0  0  0  0  0
  195.4611  183.2787  158.9210 N   0  0  0  0  0  0  0  0  0  0  0  0
  195.0256  181.8823  158.8486 C   0  0  2  0  0  0  0  0  0  0  0  0
  194.2767  184.1223  159.0941 C   0  0  2  0  0  0  0  0  0  0  0  0
  197.4035  182.7543  157.3431 C   0  0  0  0  0  0  0  0  0  0  0  0
  198.3765  182.6379  158.0798 O   0  0  0  0  0  0  0  0  0  0  0  0
  197.2784  182.1320  156.1556 N   0  0  0  0  0  0  0  0  0  0  0  0
  198.0863  181.0773  155.6421 C   0  0  0  0  0  0  0  0  0  0  0  0
  198.4054  181.0466  154.2559 C   0  0  0  0  0  0  0  0  0  0  0  0
  198.0039  182.0821  153.3800 N   0  0  0  0  0  0  0  0  0  0  0  0
  196.8328  181.8932  152.5003 C   0  0  2  0  0  0  0  0  0  0  0  0
  196.4791  180.4785  152.2741 C   0  0  0  0  0  0  0  0  0  0  0  0
  196.2147  179.3696  152.0985 N   0  0  0  0  0  0  0  0  0  0  0  0
  196.9781  182.6109  151.1578 C   0  0  0  0  0  0  0  0  0  0  0  0
  197.8008  182.0938  150.1232 C   0  0  0  0  0  0  0  0  0  0  0  0
  198.0176  182.8372  148.9453 C   0  0  0  0  0  0  0  0  0  0  0  0
  197.3511  184.0565  148.7335 C   0  0  0  0  0  0  0  0  0  0  0  0
  196.4767  184.5422  149.7289 C   0  0  0  0  0  0  0  0  0  0  0  0
  196.3015  183.8351  150.9395 C   0  0  0  0  0  0  0  0  0  0  0  0
  198.4382  183.4356  153.7311 C   0  0  2  0  0  0  0  0  0  0  0  0
  199.1394  179.9356  153.7577 C   0  0  0  0  0  0  0  0  0  0  0  0
  199.4720  178.8482  154.6229 C   0  0  0  0  0  0  0  0  0  0  0  0
  199.1326  178.9328  155.9278 N   0  0  0  0  0  0  0  0  0  0  0  0
  198.4810  179.9891  156.4624 C   0  0  0  0  0  0  0  0  0  0  0  0
  200.1527  177.7054  154.1203 C   0  0  0  0  0  0  0  0  0  0  0  0
  200.4933  177.6427  152.7502 C   0  0  0  0  0  0  0  0  0  0  0  0
  200.1732  178.7181  151.9033 C   0  0  0  0  0  0  0  0  0  0  0  0
  199.5409  179.8741  152.4006 C   0  0  0  0  0  0  0  0  0  0  0  0
  197.9480  187.3235  160.1992 H   0  0  0  0  0  0  0  0  0  0  0  0
  196.9888  185.0782  160.0019 H   0  0  0  0  0  0  0  0  0  0  0  0
  196.9433  185.4768  155.7056 H   0  0  0  0  0  0  0  0  0  0  0  0
  197.9752  187.7102  155.9146 H   0  0  0  0  0  0  0  0  0  0  0  0
  195.5574  183.6887  156.8911 H   0  0  0  0  0  0  0  0  0  0  0  0
  194.4420  181.6131  159.7283 H   0  0  0  0  0  0  0  0  0  0  0  0
  195.8705  181.1943  158.8405 H   0  0  0  0  0  0  0  0  0  0  0  0
  194.4144  181.6902  157.9629 H   0  0  0  0  0  0  0  0  0  0  0  0
  193.7438  183.8388  160.0029 H   0  0  0  0  0  0  0  0  0  0  0  0
  193.5853  184.0410  158.2517 H   0  0  0  0  0  0  0  0  0  0  0  0
  194.5338  185.1753  159.2111 H   0  0  0  0  0  0  0  0  0  0  0  0
  196.5829  182.5237  155.5360 H   0  0  0  0  0  0  0  0  0  0  0  0
  195.9740  182.3067  153.0220 H   0  0  0  0  0  0  0  0  0  0  0  0
  198.2852  181.1379  150.1834 H   0  0  0  0  0  0  0  0  0  0  0  0
  198.6895  182.4489  148.1945 H   0  0  0  0  0  0  0  0  0  0  0  0
  197.4789  184.5934  147.8012 H   0  0  0  0  0  0  0  0  0  0  0  0
  195.9367  185.4522  149.5361 H   0  0  0  0  0  0  0  0  0  0  0  0
  195.6476  184.2343  151.7071 H   0  0  0  0  0  0  0  0  0  0  0  0
  199.0683  183.4463  154.6215 H   0  0  0  0  0  0  0  0  0  0  0  0
  197.5861  184.0902  153.9219 H   0  0  0  0  0  0  0  0  0  0  0  0
  199.0254  183.8692  152.9211 H   0  0  0  0  0  0  0  0  0  0  0  0
  198.2104  179.8961  157.5085 H   0  0  0  0  0  0  0  0  0  0  0  0
  200.4285  176.8913  154.7739 H   0  0  0  0  0  0  0  0  0  0  0  0
  201.0299  176.7871  152.3568 H   0  0  0  0  0  0  0  0  0  0  0  0
  200.4288  178.6735  150.8523 H   0  0  0  0  0  0  0  0  0  0  0  0
  199.3712  180.7145  151.7704 H   0  0  0  0  0  0  0  0  0  0  0  0
  199.3101  178.1407  156.5560 H   0  0  0  0  0  0  0  0  0  0  0  0
  1  2  1  0
  2  3  1  0
  2  7  2  0
  3  4  2  0
  3 36  1  0
  4  5  1  0
  4 37  1  0
  5  6  2  0
  5  8  1  0
  6  7  1  0
  6 38  1  0
  7 39  1  0
  8  9  1  0
  8 12  1  0
  8 40  1  6
  9 10  1  0
  9 11  1  0
 10 41  1  1
 10 42  1  0
 10 43  1  0
 11 44  1  1
 11 45  1  0
 11 46  1  0
 12 13  2  0
 12 14  1  0
 14 15  1  0
 14 47  1  0
 15 16  2  0
 15 31  1  0
 16 17  1  0
 16 28  1  0
 17 18  1  0
 17 27  1  0
 18 19  1  0
 18 21  1  0
 18 48  1  1
 19 20  3  0
 21 22  2  0
 21 26  1  0
 22 23  1  0
 22 49  1  0
 23 24  2  0
 23 50  1  0
 24 25  1  0
 24 51  1  0
 25 26  2  0
 25 52  1  0
 26 53  1  0
 27 54  1  1
 27 55  1  0
 27 56  1  0
 28 29  1  0
 28 35  2  0
 29 30  1  0
 29 32  2  0
 30 31  2  0
 30 62  1  0
 31 57  1  0
 32 33  1  0
 32 58  1  0
 33 34  2  0
 33 59  1  0
 34 35  1  0
 34 60  1  0
 35 61  1  0
M  CHG  1  30   1
M  END
>  <s_epik_cmdline>  (605) 
J2VwaWtfcHl0aG9uJywgJy1waCcsICc3LjAwMDAwMCcsICctcGh0JywgJzIuMDAwMDAwJywgJy1tcycsICcxNicsICctdG4nLCAnOCcsICctbWEnLCAnMjAwJywgJy1pbWFlJywgJzxpbmZpbGUubWFlPicsICctb21hZScsICc8b3V0ZmlsZS5tYWU+Jw==

>  <s_epik_input>  (605) 
Q2xjMVtjSF1bY0hdYyhbY0hdW2NIXTEpW0NASF0oTihbQ0gzXSlbQ0gzXSlDKD1PKVtOSF1jKFtjSF1uYyhjMjMpW2NIXVtjSF1bY0hdW2NIXTMpYzJOKFtDSDNdKVtDQEhdKEMjTiljNFtjSF1bY0hdW2NIXVtjSF1bY0hdNA==

>  <s_i_glide_gridfile>  (605) 
ATP-Grid

>  <s_lp_Force_Field>  (605) 
OPLS_2005

>  <s_lp_Variant>  (605) 
rxn502b____EMOL331054254____EMOL30488121____EMOL24630243-4

>  <s_lp_label>  (605) 
2652_sdstereoexpander_4_neutralizer_1_epik_1_stereoizer_1

>  <s_m_source_file>  (605) 
ATP-VSW-LIGPREP-001-in.maegz

>  <s_sd_BIOSOLVEIT.INFINISEE\_QUERY\_NAME>  (605) 
Ref-Lig

>  <s_sd_BIOSOLVEIT.INFINISEE\_QUERY\_SMILES>  (605) 
S(c1nc2c(cc1C[NH2+]Cc3ccc(cc3)C[NH+](C)C)cccc2)Cc4ccccc4

>  <s_sd_BIOSOLVEIT.INFINISEE\_REACTION\_NAME>  (605) 
rxn502b

>  <s_sd_BIOSOLVEIT.INFINISEE\_REAGENT1\_NAME>  (605) 
EMOL331054254

>  <s_sd_BIOSOLVEIT.INFINISEE\_REAGENT1\_SMILES>  (605) 
Clc1ccc(cc1)C(N(C)C)C(=O)O

>  <s_sd_BIOSOLVEIT.INFINISEE\_REAGENT2\_NAME>  (605) 
EMOL30488121

>  <s_sd_BIOSOLVEIT.INFINISEE\_REAGENT2\_SMILES>  (605) 
Brc1c(N)cnc2c1cccc2

>  <s_sd_BIOSOLVEIT.INFINISEE\_REAGENT3\_NAME>  (605) 
EMOL24630243

>  <s_sd_BIOSOLVEIT.INFINISEE\_REAGENT3\_SMILES>  (605) 
N#CC(NC)c1ccccc1

>  <s_sd_BIOSOLVEIT.INFINISEE\_SPACE>  (605) 
eXplore_7tr_2022-12

>  <s_vsw_compound_code>  (605) 
84833

>  <s_vsw_variant>  (605) 
84833-4

>  <r_epik_Charging_Adjusted_Penalty>  (605) 
0.14438837591307299

>  <r_epik_Ionization_Penalty>  (605) 
0.1038

>  <r_epik_Ionization_Penalty_Charging>  (605) 
0.037900000000000003

>  <r_epik_Ionization_Penalty_Neutral>  (605) 
0.0659

>  <r_epik_State_Penalty>  (605) 
0.1065

>  <r_i_docking_score>  (605) 
-4.4339418158062296

>  <r_i_glide_ecoul>  (605) 
-6.9705772399902299

>  <r_i_glide_eff_state_penalty>  (605) 
0.1065

>  <r_i_glide_einternal>  (605) 
7.8211622238159197

>  <r_i_glide_emodel>  (605) 
-58.5650988811594

>  <r_i_glide_energy>  (605) 
-44.860389709472699

>  <r_i_glide_erotb>  (605) 
0.51810814287675699

>  <r_i_glide_esite>  (605) 
-0.15472144273386301

>  <r_i_glide_evdw>  (605) 
-37.889812469482401

>  <r_i_glide_gscore>  (605) 
-4.5404418158062301

>  <r_i_glide_hbond>  (605) 
0

>  <r_i_glide_ligand_efficiency>  (605) 
-0.12668405188017801

>  <r_i_glide_ligand_efficiency_ln>  (605) 
-0.973348634606093

>  <r_i_glide_ligand_efficiency_sa>  (605) 
-0.41439193365233201

>  <r_i_glide_lipo>  (605) 
-1.4243749741417799

>  <r_i_glide_metal>  (605) 
-0

>  <r_i_glide_rewards>  (605) 
-0.53937633233469395

>  <r_lp_Energy>  (605) 
45.986341000000003

>  <r_qp_ACxDN^.5/SA>  (605) 
0.010826499999999999

>  <r_qp_CIQPlogS>  (605) 
-7.1109999999999998

>  <r_qp_EA(eV)>  (605) 
1.1499999999999999

>  <r_qp_FISA>  (605) 
89.619

>  <r_qp_FOSA>  (605) 
161.38800000000001

>  <r_qp_IP(eV)>  (605) 
8.6769999999999996

>  <r_qp_Jm>  (605) 
0.0015235160396586899

>  <r_qp_PISA>  (605) 
416.19400000000002

>  <r_qp_PSA>  (605) 
70.584999999999994

>  <r_qp_PercentHumanOralAbsorption>  (605) 
100

>  <r_qp_QPPCaco>  (605) 
349.09500000000003

>  <r_qp_QPPMDCK>  (605) 
433.625

>  <r_qp_QPlogBB>  (605) 
-0.19700000000000001

>  <r_qp_QPlogHERG>  (605) 
-6.8840000000000003

>  <r_qp_QPlogKhsa>  (605) 
0.62

>  <r_qp_QPlogKp>  (605) 
-3

>  <r_qp_QPlogPC16>  (605) 
15.855

>  <r_qp_QPlogPo/w>  (605) 
4.6239999999999997

>  <r_qp_QPlogPoct>  (605) 
23.324999999999999

>  <r_qp_QPlogPw>  (605) 
12.542999999999999

>  <r_qp_QPlogS>  (605) 
-5.5019999999999998

>  <r_qp_QPpolrz>  (605) 
50.536999999999999

>  <r_qp_SASA>  (605) 
738.92700000000002

>  <r_qp_SAamideO>  (605) 
0

>  <r_qp_SAfluorine>  (605) 
0

>  <r_qp_WPSA>  (605) 
71.724999999999994

>  <r_qp_accptHB>  (605) 
8

>  <r_qp_dip^2/V>  (605) 
0.0154317

>  <r_qp_dipole>  (605) 
4.7229999999999999

>  <r_qp_donorHB>  (605) 
1

>  <r_qp_glob>  (605) 
0.83675699999999997

>  <r_qp_mol_MW>  (605) 
483.99900000000002

>  <r_qp_volume>  (605) 
1445.6179999999999

>  <r_sd_BIOSOLVEIT.INFINISEE\_FTREES\_SIMILARITY>  (605) 
0.91000000000000003

>  <r_sd_BIOSOLVEIT.LOGP>  (605) 
4.4135799999999996

>  <r_sd_BIOSOLVEIT.MOLECULAR\_WEIGHT>  (605) 
485.00799999999998

>  <r_sd_BIOSOLVEIT.TPSA>  (605) 
73.459999999999994

>  <i_epik_Tot_Q>  (605) 
1

>  <i_epik_Tot_abs_Q>  (605) 
1

>  <i_f3d_flags>  (605) 
0

>  <i_i_glide_confnum>  (605) 
5

>  <i_i_glide_lignum>  (605) 
1142

>  <i_i_glide_posenum>  (605) 
2

>  <i_i_glide_rotatable_bonds>  (605) 
8

>  <i_lp_mmshare_version>  (605) 
65135

>  <i_m_ct_format>  (605) 
2

>  <i_m_source_file_index>  (605) 
2652

>  <i_qp_#NandO>  (605) 
6

>  <i_qp_#acid>  (605) 
0

>  <i_qp_#amide>  (605) 
0

>  <i_qp_#amidine>  (605) 
0

>  <i_qp_#amine>  (605) 
1

>  <i_qp_#in34>  (605) 
0

>  <i_qp_#in56>  (605) 
22

>  <i_qp_#metab>  (605) 
6

>  <i_qp_#nonHatm>  (605) 
35

>  <i_qp_#noncon>  (605) 
0

>  <i_qp_#ringatoms>  (605) 
22

>  <i_qp_#rotor>  (605) 
8

>  <i_qp_#rtvFG>  (605) 
0

>  <i_qp_#stars>  (605) 
0

>  <i_qp_CNS>  (605) 
1

>  <i_qp_HumanOralAbsorption>  (605) 
3

>  <i_qp_RuleOfFive>  (605) 
0

>  <i_qp_RuleOfThree>  (605) 
0

>  <i_sd_BIOSOLVEIT.INFINISEE\_RESULT\_RANK>  (605) 
46647

>  <i_sd_version>  (605) 
0

>  <b_lp_Chiralities_Consistent>  (605) 
1

>  <b_sd_chiral_flag>  (605) 
0

>  <canonical_id>  (605) 
ATP-HTVS-5D5A320A0101

>  <compound_code>  (605) 
84833

>  <title>  (605) 
rxn502b____EMOL331054254____EMOL30488121____EMOL24630243

>  <variant>  (605) 
84833-4

>  <source_file>  (605) 
运行/运行/ATP-VSW/ATP-VSW-DOCK_HTVS_1-001_lib/ATP-VSW-DOCK_HTVS_1-001_lib

>  <canonical_smiles>  (605) 
CN(C)[C@H](C(=O)Nc1c[nH+]c2ccccc2c1N(C)[C@H](C#N)c1ccccc1)c1ccc(Cl)cc1

>  <scaffold>  (605) 
O=C(Cc1ccccc1)Nc1c[nH+]c2ccccc2c1NCc1ccccc1

>  <molecular_formula>  (605) 
C28H27ClN5O+

$$$$
ATP-HTVS-5D7D5B0AFE50
     RDKit          3D

 60 63  0  0  0  0  0  0  0  0999 V2000
  197.2041  180.2578  152.2683 S   0  0  0  0  0  0  0  0  0  0  0  0
  198.1322  181.2236  153.3992 C   0  0  0  0  0  0  0  0  0  0  0  0
  199.1137  180.5663  154.2663 C   0  0  0  0  0  0  0  0  0  0  0  0
  199.4356  179.3034  154.0286 N   0  0  0  0  0  0  0  0  0  0  0  0
  200.3133  178.9443  154.9885 N   0  0  0  0  0  0  0  0  0  0  0  0
  200.8295  177.6251  155.0499 C   0  0  0  0  0  0  0  0  0  0  0  0
  200.8237  176.7918  153.9060 C   0  0  0  0  0  0  0  0  0  0  0  0
  201.3281  175.4786  153.9775 C   0  0  0  0  0  0  0  0  0  0  0  0
  201.8409  174.9839  155.1918 C   0  0  0  0  0  0  0  0  0  0  0  0
  201.8501  175.8062  156.3336 C   0  0  0  0  0  0  0  0  0  0  0  0
  201.3466  177.1193  156.2638 C   0  0  0  0  0  0  0  0  0  0  0  0
  200.5761  180.0118  155.8214 C   0  0  0  0  0  0  0  0  0  0  0  0
  199.8090  181.0684  155.4136 C   0  0  0  0  0  0  0  0  0  0  0  0
  199.7267  182.4178  156.0625 C   0  0  1  0  0  0  0  0  0  0  0  0
  198.4194  182.5764  156.7343 N   0  0  1  0  0  0  0  0  0  0  0  0
  198.2860  183.8271  157.5119 C   0  0  1  0  0  0  0  0  0  0  0  0
  197.6273  183.5886  158.8775 C   0  0  2  0  0  0  0  0  0  0  0  0
  196.1503  183.2004  158.7490 C   0  0  0  0  0  0  0  0  0  0  0  0
  195.1552  184.1840  158.5526 C   0  0  0  0  0  0  0  0  0  0  0  0
  193.8077  183.8256  158.5373 C   0  0  0  0  0  0  0  0  0  0  0  0
  193.4438  182.4708  158.5204 C   0  0  0  0  0  0  0  0  0  0  0  0
  194.4178  181.4701  158.6823 C   0  0  0  0  0  0  0  0  0  0  0  0
  195.7740  181.8256  158.8231 C   0  0  0  0  0  0  0  0  0  0  0  0
  197.8688  184.7509  159.8705 C   0  0  1  0  0  0  0  0  0  0  0  0
  197.2315  186.0315  159.4431 N   0  0  2  0  0  0  0  0  0  0  0  0
  198.1960  187.0787  159.0365 C   0  0  2  0  0  0  0  0  0  0  0  0
  196.2237  186.5496  160.4052 C   0  0  2  0  0  0  0  0  0  0  0  0
  197.7796  182.5493  153.3092 C   0  0  0  0  0  0  0  0  0  0  0  0
  196.7633  182.7978  152.3407 C   0  0  0  0  0  0  0  0  0  0  0  0
  196.3569  181.6637  151.6908 C   0  0  0  0  0  0  0  0  0  0  0  0
  197.6785  182.5338  156.0455 H   0  0  0  0  0  0  0  0  0  0  0  0
  200.4350  177.1562  152.9668 H   0  0  0  0  0  0  0  0  0  0  0  0
  201.3237  174.8488  153.1001 H   0  0  0  0  0  0  0  0  0  0  0  0
  202.2274  173.9766  155.2483 H   0  0  0  0  0  0  0  0  0  0  0  0
  202.2453  175.4294  157.2658 H   0  0  0  0  0  0  0  0  0  0  0  0
  201.3646  177.7293  157.1546 H   0  0  0  0  0  0  0  0  0  0  0  0
  201.2748  179.9349  156.6424 H   0  0  0  0  0  0  0  0  0  0  0  0
  200.5122  182.5193  156.8132 H   0  0  0  0  0  0  0  0  0  0  0  0
  199.8973  183.2269  155.3534 H   0  0  0  0  0  0  0  0  0  0  0  0
  199.2676  184.2766  157.6684 H   0  0  0  0  0  0  0  0  0  0  0  0
  197.7082  184.5431  156.9250 H   0  0  0  0  0  0  0  0  0  0  0  0
  198.1320  182.7412  159.3383 H   0  0  0  0  0  0  0  0  0  0  0  0
  195.3615  185.2422  158.4109 H   0  0  0  0  0  0  0  0  0  0  0  0
  193.0473  184.5900  158.4843 H   0  0  0  0  0  0  0  0  0  0  0  0
  192.4318  182.1830  158.2434 H   0  0  0  0  0  0  0  0  0  0  0  0
  194.0922  180.4357  158.6546 H   0  0  0  0  0  0  0  0  0  0  0  0
  196.5087  181.0290  158.9225 H   0  0  0  0  0  0  0  0  0  0  0  0
  197.4643  184.4252  160.8294 H   0  0  0  0  0  0  0  0  0  0  0  0
  198.9376  184.8893  160.0248 H   0  0  0  0  0  0  0  0  0  0  0  0
  198.8199  187.4216  159.8512 H   0  0  0  0  0  0  0  0  0  0  0  0
  197.6647  187.9379  158.6398 H   0  0  0  0  0  0  0  0  0  0  0  0
  198.8373  186.7101  158.2483 H   0  0  0  0  0  0  0  0  0  0  0  0
  196.6892  186.8417  161.3302 H   0  0  0  0  0  0  0  0  0  0  0  0
  195.4491  185.7986  160.6258 H   0  0  0  0  0  0  0  0  0  0  0  0
  195.7189  187.4328  160.0022 H   0  0  0  0  0  0  0  0  0  0  0  0
  198.2025  183.3530  153.8895 H   0  0  0  0  0  0  0  0  0  0  0  0
  196.3681  183.7883  152.1643 H   0  0  0  0  0  0  0  0  0  0  0  0
  195.6089  181.5646  150.9198 H   0  0  0  0  0  0  0  0  0  0  0  0
  196.7051  185.7985  158.6129 H   0  0  0  0  0  0  0  0  0  0  0  0
  198.2931  181.7834  157.3456 H   0  0  0  0  0  0  0  0  0  0  0  0
  1  2  1  0
  1 30  1  0
  2  3  1  0
  2 28  2  0
  3  4  2  0
  3 13  1  0
  4  5  1  0
  5  6  1  0
  5 12  1  0
  6  7  2  0
  6 11  1  0
  7  8  1  0
  7 32  1  0
  8  9  2  0
  8 33  1  0
  9 10  1  0
  9 34  1  0
 10 11  2  0
 10 35  1  0
 11 36  1  0
 12 13  2  0
 12 37  1  0
 13 14  1  0
 14 15  1  0
 14 38  1  1
 14 39  1  0
 15 16  1  0
 15 31  1  6
 15 60  1  0
 16 17  1  0
 16 40  1  1
 16 41  1  0
 17 18  1  0
 17 24  1  0
 17 42  1  1
 18 19  2  0
 18 23  1  0
 19 20  1  0
 19 43  1  0
 20 21  2  0
 20 44  1  0
 21 22  1  0
 21 45  1  0
 22 23  2  0
 22 46  1  0
 23 47  1  0
 24 25  1  0
 24 48  1  1
 24 49  1  0
 25 26  1  0
 25 27  1  0
 25 59  1  6
 26 50  1  1
 26 51  1  0
 26 52  1  0
 27 53  1  1
 27 54  1  0
 27 55  1  0
 28 29  1  0
 28 56  1  0
 29 30  2  0
 29 57  1  0
 30 58  1  0
M  CHG  2  15   1  25   1
M  END
>  <s_epik_cmdline>  (606) 
J2VwaWtfcHl0aG9uJywgJy1waCcsICc3LjAwMDAwMCcsICctcGh0JywgJzIuMDAwMDAwJywgJy1tcycsICcxNicsICctdG4nLCAnOCcsICctbWEnLCAnMjAwJywgJy1pbWFlJywgJzxpbmZpbGUubWFlPicsICctb21hZScsICc8b3V0ZmlsZS5tYWU+Jw==

>  <s_epik_input>  (606) 
W2NIXTFbY0hdW2NIXXNjMS1jMm5uKC1jM1tjSF1bY0hdW2NIXVtjSF1bY0hdMylbY0hdYzJbQ0gyXVtOSF1bQ0gyXVtDQEBIXShbQ0gyXU4oW0NIM10pW0NIM10pYzRbY0hdW2NIXVtjSF1bY0hdW2NIXTQ=

>  <s_i_glide_gridfile>  (606) 
ATP-Grid

>  <s_lp_Force_Field>  (606) 
OPLS_2005

>  <s_lp_Variant>  (606) 
m_270004bbb____23846038____7547680-2

>  <s_lp_label>  (606) 
978_sdstereoexpander_2_neutralizer_1_epik_1_stereoizer_1

>  <s_m_source_file>  (606) 
ATP-VSW-LIGPREP-002-in.maegz

>  <s_sd_BIOSOLVEIT.INFINISEE\_QUERY\_NAME>  (606) 
Ref-Lig

>  <s_sd_BIOSOLVEIT.INFINISEE\_QUERY\_SMILES>  (606) 
S(c1nc2c(cc1C[NH2+]Cc3ccc(cc3)C[NH+](C)C)cccc2)Cc4ccccc4

>  <s_sd_BIOSOLVEIT.INFINISEE\_REACTION\_NAME>  (606) 
m_270004bbb

>  <s_sd_BIOSOLVEIT.INFINISEE\_REAGENT1\_SMILES>  (606) 
[R1*]NCC(c1ccccc1)CN(C)C

>  <s_sd_BIOSOLVEIT.INFINISEE\_REAGENT2\_SMILES>  (606) 
[R1*]CC=1C(=NN(c2ccccc2)C1)C=3SC=CC3

>  <s_sd_BIOSOLVEIT.INFINISEE\_SPACE>  (606) 
REALSpace_44bn_2023-08

>  <s_vsw_compound_code>  (606) 
31266

>  <s_vsw_variant>  (606) 
31266-2

>  <r_epik_Charging_Adjusted_Penalty>  (606) 
0.098947255119293004

>  <r_epik_Ionization_Penalty>  (606) 
0.050000000000000003

>  <r_epik_Ionization_Penalty_Charging>  (606) 
0.050000000000000003

>  <r_epik_Ionization_Penalty_Neutral>  (606) 
0

>  <r_epik_State_Penalty>  (606) 
0.049000000000000002

>  <r_i_docking_score>  (606) 
-3.62323809277179

>  <r_i_glide_ecoul>  (606) 
-6.8001546859741202

>  <r_i_glide_eff_state_penalty>  (606) 
0.049000000000000002

>  <r_i_glide_einternal>  (606) 
10.215235710144

>  <r_i_glide_emodel>  (606) 
-37.714908405071697

>  <r_i_glide_energy>  (606) 
-32.674803733825698

>  <r_i_glide_erotb>  (606) 
0.79001475084321005

>  <r_i_glide_esite>  (606) 
-0.019740271509656699

>  <r_i_glide_evdw>  (606) 
-25.874649047851602

>  <r_i_glide_gscore>  (606) 
-3.6722380927717899

>  <r_i_glide_hbond>  (606) 
0

>  <r_i_glide_ligand_efficiency>  (606) 
-0.120774603092393

>  <r_i_glide_ligand_efficiency_ln>  (606) 
-0.82323917301873795

>  <r_i_glide_ligand_efficiency_sa>  (606) 
-0.37527477219689798

>  <r_i_glide_lipo>  (606) 
-1.34874668954392

>  <r_i_glide_metal>  (606) 
-0

>  <r_i_glide_rewards>  (606) 
-0.78001022727272595

>  <r_lp_Energy>  (606) 
24.614733999999999

>  <r_lp_tautomer_probability>  (606) 
1

>  <r_qp_ACxDN^.5/SA>  (606) 
0.0067729000000000001

>  <r_qp_CIQPlogS>  (606) 
-5.1139999999999999

>  <r_qp_EA(eV)>  (606) 
0.61399999999999999

>  <r_qp_FISA>  (606) 
21.536999999999999

>  <r_qp_FOSA>  (606) 
224.916

>  <r_qp_IP(eV)>  (606) 
8.6140000000000008

>  <r_qp_Jm>  (606) 
0.022386518060476802

>  <r_qp_PISA>  (606) 
389.52600000000001

>  <r_qp_PSA>  (606) 
28.446999999999999

>  <r_qp_PercentHumanOralAbsorption>  (606) 
100

>  <r_qp_QPPCaco>  (606) 
385.00700000000001

>  <r_qp_QPPMDCK>  (606) 
308.887

>  <r_qp_QPlogBB>  (606) 
0.81799999999999995

>  <r_qp_QPlogHERG>  (606) 
-6.9619999999999997

>  <r_qp_QPlogKhsa>  (606) 
1.0129999999999999

>  <r_qp_QPlogKp>  (606) 
-3.9969999999999999

>  <r_qp_QPlogPC16>  (606) 
13.635

>  <r_qp_QPlogPo/w>  (606) 
4.9749999999999996

>  <r_qp_QPlogPoct>  (606) 
18.984999999999999

>  <r_qp_QPlogPw>  (606) 
8.4770000000000003

>  <r_qp_QPlogS>  (606) 
-3.2719999999999998

>  <r_qp_QPpolrz>  (606) 
45.271999999999998

>  <r_qp_SASA>  (606) 
664.41099999999994

>  <r_qp_SAamideO>  (606) 
0

>  <r_qp_SAfluorine>  (606) 
0

>  <r_qp_WPSA>  (606) 
28.431999999999999

>  <r_qp_accptHB>  (606) 
4.5

>  <r_qp_dip^2/V>  (606) 
0.0074073999999999997

>  <r_qp_dipole>  (606) 
3.1080000000000001

>  <r_qp_donorHB>  (606) 
1

>  <r_qp_glob>  (606) 
0.86895440000000002

>  <r_qp_mol_MW>  (606) 
416.58300000000003

>  <r_qp_volume>  (606) 
1304.3779999999999

>  <r_sd_BIOSOLVEIT.INFINISEE\_FTREES\_SIMILARITY>  (606) 
0.91600000000000004

>  <r_sd_BIOSOLVEIT.LOGP>  (606) 
2.5924999999999998

>  <r_sd_BIOSOLVEIT.MOLECULAR\_WEIGHT>  (606) 
418.60500000000002

>  <r_sd_BIOSOLVEIT.TPSA>  (606) 
38.869999999999997

>  <i_epik_Tot_Q>  (606) 
2

>  <i_epik_Tot_abs_Q>  (606) 
2

>  <i_f3d_flags>  (606) 
0

>  <i_i_glide_confnum>  (606) 
7

>  <i_i_glide_lignum>  (606) 
302

>  <i_i_glide_posenum>  (606) 
5

>  <i_i_glide_rotatable_bonds>  (606) 
9

>  <i_lp_mmshare_version>  (606) 
65135

>  <i_m_ct_format>  (606) 
2

>  <i_m_source_file_index>  (606) 
978

>  <i_qp_#NandO>  (606) 
4

>  <i_qp_#acid>  (606) 
0

>  <i_qp_#amide>  (606) 
0

>  <i_qp_#amidine>  (606) 
0

>  <i_qp_#amine>  (606) 
2

>  <i_qp_#in34>  (606) 
0

>  <i_qp_#in56>  (606) 
22

>  <i_qp_#metab>  (606) 
6

>  <i_qp_#nonHatm>  (606) 
30

>  <i_qp_#noncon>  (606) 
0

>  <i_qp_#ringatoms>  (606) 
22

>  <i_qp_#rotor>  (606) 
7

>  <i_qp_#rtvFG>  (606) 
0

>  <i_qp_#stars>  (606) 
0

>  <i_qp_CNS>  (606) 
2

>  <i_qp_HumanOralAbsorption>  (606) 
3

>  <i_qp_RuleOfFive>  (606) 
0

>  <i_qp_RuleOfThree>  (606) 
0

>  <i_sd_BIOSOLVEIT.INFINISEE\_REAGENT1\_NAME>  (606) 
23846038

>  <i_sd_BIOSOLVEIT.INFINISEE\_REAGENT2\_NAME>  (606) 
7547680

>  <i_sd_BIOSOLVEIT.INFINISEE\_RESULT\_RANK>  (606) 
24476

>  <i_sd_version>  (606) 
0

>  <b_lp_Chiralities_Consistent>  (606) 
1

>  <b_sd_chiral_flag>  (606) 
0

>  <canonical_id>  (606) 
ATP-HTVS-5D7D5B0AFE50

>  <compound_code>  (606) 
31266

>  <title>  (606) 
m_270004bbb____23846038____7547680

>  <variant>  (606) 
31266-2

>  <source_file>  (606) 
运行/运行/ATP-VSW/ATP-VSW-DOCK_HTVS_1-002_lib.maegz

>  <canonical_smiles>  (606) 
C[NH+](C)C[C@H](C[NH2+]Cc1cn(-c2ccccc2)nc1-c1cccs1)c1ccccc1

>  <scaffold>  (606) 
c1ccc(CC[NH2+]Cc2cn(-c3ccccc3)nc2-c2cccs2)cc1

>  <molecular_formula>  (606) 
C25H30N4S+2

$$$$
ATP-HTVS-5DA5A3EB6624
     RDKit          3D

 55 58  0  0  0  0  0  0  0  0999 V2000
  197.5492  185.4589  149.5843 Cl  0  0  0  0  0  0  0  0  0  0  0  0
  197.5495  184.4562  150.9878 C   0  0  0  0  0  0  0  0  0  0  0  0
  197.7476  185.0212  152.2628 C   0  0  0  0  0  0  0  0  0  0  0  0
  197.7312  184.1976  153.4039 C   0  0  0  0  0  0  0  0  0  0  0  0
  197.5204  182.8035  153.2828 C   0  0  0  0  0  0  0  0  0  0  0  0
  197.3302  182.2480  151.9979 C   0  0  0  0  0  0  0  0  0  0  0  0
  197.3428  183.0701  150.8560 C   0  0  0  0  0  0  0  0  0  0  0  0
  197.5136  181.9502  154.4751 C   0  0  0  0  0  0  0  0  0  0  0  0
  197.0120  182.4408  155.5959 N   0  0  0  0  0  0  0  0  0  0  0  0
  197.1512  181.4619  156.5122 N   0  0  0  0  0  0  0  0  0  0  0  0
  197.7149  180.3395  155.9537 C   0  0  0  0  0  0  0  0  0  0  0  0
  197.9890  180.6104  154.6421 C   0  0  0  0  0  0  0  0  0  0  0  0
  198.6438  179.7104  153.6281 C   0  0  1  0  0  0  0  0  0  0  0  0
  199.3776  178.6274  154.2575 N   0  0  0  0  0  0  0  0  0  0  0  0
  200.0628  177.8018  153.2747 C   0  0  1  0  0  0  0  0  0  0  0  0
  200.8255  176.6445  153.9017 C   0  0  0  0  0  0  0  0  0  0  0  0
  200.9670  175.4316  153.1933 C   0  0  0  0  0  0  0  0  0  0  0  0
  201.6845  174.3510  153.7540 C   0  0  0  0  0  0  0  0  0  0  0  0
  201.8031  173.1614  153.0363 N   0  0  0  0  0  0  0  0  0  0  0  0
  202.2840  174.4904  155.0288 C   0  0  0  0  0  0  0  0  0  0  0  0
  202.1375  175.7030  155.7339 C   0  0  0  0  0  0  0  0  0  0  0  0
  201.4226  176.7762  155.1741 C   0  0  0  0  0  0  0  0  0  0  0  0
  203.0877  173.3584  155.6458 C   0  0  2  0  0  0  0  0  0  0  0  0
  196.6633  181.6534  157.8705 C   0  0  1  0  0  0  0  0  0  0  0  0
  196.9401  183.0529  158.3924 C   0  0  0  0  0  0  0  0  0  0  0  0
  195.8881  183.9816  158.5298 C   0  0  0  0  0  0  0  0  0  0  0  0
  196.1576  185.2958  158.9602 C   0  0  0  0  0  0  0  0  0  0  0  0
  197.4794  185.6821  159.2583 C   0  0  0  0  0  0  0  0  0  0  0  0
  198.5318  184.7551  159.1243 C   0  0  0  0  0  0  0  0  0  0  0  0
  198.2619  183.4427  158.6912 C   0  0  0  0  0  0  0  0  0  0  0  0
  198.7368  178.0515  154.7873 H   0  0  0  0  0  0  0  0  0  0  0  0
  197.8991  186.0845  152.3731 H   0  0  0  0  0  0  0  0  0  0  0  0
  197.8679  184.6397  154.3808 H   0  0  0  0  0  0  0  0  0  0  0  0
  197.1497  181.1904  151.8805 H   0  0  0  0  0  0  0  0  0  0  0  0
  197.1920  182.6374  149.8784 H   0  0  0  0  0  0  0  0  0  0  0  0
  197.8749  179.4417  156.5321 H   0  0  0  0  0  0  0  0  0  0  0  0
  197.9001  179.2750  152.9587 H   0  0  0  0  0  0  0  0  0  0  0  0
  199.3285  180.2852  153.0067 H   0  0  0  0  0  0  0  0  0  0  0  0
  199.3389  177.4085  152.5569 H   0  0  0  0  0  0  0  0  0  0  0  0
  200.7607  178.4180  152.7077 H   0  0  0  0  0  0  0  0  0  0  0  0
  200.5193  175.3289  152.2143 H   0  0  0  0  0  0  0  0  0  0  0  0
  202.3440  172.3776  153.3907 H   0  0  0  0  0  0  0  0  0  0  0  0
  201.4513  173.0729  152.0931 H   0  0  0  0  0  0  0  0  0  0  0  0
  202.5920  175.8316  156.7075 H   0  0  0  0  0  0  0  0  0  0  0  0
  201.3432  177.7002  155.7295 H   0  0  0  0  0  0  0  0  0  0  0  0
  203.5267  173.6511  156.5990 H   0  0  0  0  0  0  0  0  0  0  0  0
  203.8913  173.0444  154.9828 H   0  0  0  0  0  0  0  0  0  0  0  0
  202.4415  172.5007  155.8039 H   0  0  0  0  0  0  0  0  0  0  0  0
  195.5954  181.4406  157.8733 H   0  0  0  0  0  0  0  0  0  0  0  0
  197.1479  180.9370  158.5311 H   0  0  0  0  0  0  0  0  0  0  0  0
  194.8791  183.6973  158.2690 H   0  0  0  0  0  0  0  0  0  0  0  0
  195.3513  186.0116  159.0305 H   0  0  0  0  0  0  0  0  0  0  0  0
  197.6911  186.6954  159.5688 H   0  0  0  0  0  0  0  0  0  0  0  0
  199.5497  185.0543  159.3237 H   0  0  0  0  0  0  0  0  0  0  0  0
  199.0701  182.7388  158.5595 H   0  0  0  0  0  0  0  0  0  0  0  0
  1  2  1  0
  2  3  1  0
  2  7  2  0
  3  4  2  0
  3 32  1  0
  4  5  1  0
  4 33  1  0
  5  6  2  0
  5  8  1  0
  6  7  1  0
  6 34  1  0
  7 35  1  0
  8  9  2  0
  8 12  1  0
  9 10  1  0
 10 11  1  0
 10 24  1  0
 11 12  2  0
 11 36  1  0
 12 13  1  0
 13 14  1  0
 13 37  1  6
 13 38  1  0
 14 15  1  0
 14 31  1  0
 15 16  1  0
 15 39  1  6
 15 40  1  0
 16 17  2  0
 16 22  1  0
 17 18  1  0
 17 41  1  0
 18 19  1  0
 18 20  2  0
 19 42  1  0
 19 43  1  0
 20 21  1  0
 20 23  1  0
 21 22  2  0
 21 44  1  0
 22 45  1  0
 23 46  1  1
 23 47  1  0
 23 48  1  0
 24 25  1  0
 24 49  1  6
 24 50  1  0
 25 26  2  0
 25 30  1  0
 26 27  1  0
 26 51  1  0
 27 28  2  0
 27 52  1  0
 28 29  1  0
 28 53  1  0
 29 30  2  0
 29 54  1  0
 30 55  1  0
M  END
>  <s_epik_cmdline>  (607) 
J2VwaWtfcHl0aG9uJywgJy1waCcsICc3LjAwMDAwMCcsICctcGh0JywgJzIuMDAwMDAwJywgJy1tcycsICcxNicsICctdG4nLCAnOCcsICctbWEnLCAnMjAwJywgJy1pbWFlJywgJzxpbmZpbGUubWFlPicsICctb21hZScsICc8b3V0ZmlsZS5tYWU+Jw==

>  <s_epik_input>  (607) 
Q2xjMVtjSF1bY0hdYyhbY0hdW2NIXTEpLWMybm4oW0NIMl1jM1tjSF1bY0hdW2NIXVtjSF1bY0hdMylbY0hdYzJbQ0gyXVtOSF1bQ0gyXWM0W2NIXWMoW05IMl0pYyhbQ0gzXSlbY0hdW2NIXTQ=

>  <s_i_glide_gridfile>  (607) 
ATP-Grid

>  <s_lp_Force_Field>  (607) 
OPLS_2005

>  <s_lp_Variant>  (607) 
m_270004bbb____23868218____7547832-2

>  <s_lp_label>  (607) 
957_sdstereoexpander_1_neutralizer_1_epik_2_stereoizer_1

>  <s_m_source_file>  (607) 
ATP-VSW-LIGPREP-002-in.maegz

>  <s_sd_BIOSOLVEIT.INFINISEE\_QUERY\_NAME>  (607) 
Ref-Lig

>  <s_sd_BIOSOLVEIT.INFINISEE\_QUERY\_SMILES>  (607) 
S(c1nc2c(cc1C[NH2+]Cc3ccc(cc3)C[NH+](C)C)cccc2)Cc4ccccc4

>  <s_sd_BIOSOLVEIT.INFINISEE\_REACTION\_NAME>  (607) 
m_270004bbb

>  <s_sd_BIOSOLVEIT.INFINISEE\_REAGENT1\_SMILES>  (607) 
[R1*]NCc1cc(N)c(cc1)C

>  <s_sd_BIOSOLVEIT.INFINISEE\_REAGENT2\_SMILES>  (607) 
[R1*]CC=1C(=NN(C1)Cc2ccccc2)c3ccc(Cl)cc3

>  <s_sd_BIOSOLVEIT.INFINISEE\_SPACE>  (607) 
REALSpace_44bn_2023-08

>  <s_vsw_compound_code>  (607) 
30594

>  <s_vsw_variant>  (607) 
30594-2

>  <r_epik_Charging_Adjusted_Penalty>  (607) 
1.21195319887421

>  <r_epik_Ionization_Penalty>  (607) 
1.2133

>  <r_epik_Ionization_Penalty_Charging>  (607) 
0

>  <r_epik_Ionization_Penalty_Neutral>  (607) 
1.2133

>  <r_epik_State_Penalty>  (607) 
1.212

>  <r_i_docking_score>  (607) 
-2.75550012588011

>  <r_i_glide_ecoul>  (607) 
-4.1935610771179199

>  <r_i_glide_eff_state_penalty>  (607) 
1.212

>  <r_i_glide_einternal>  (607) 
2.3208234310150102

>  <r_i_glide_emodel>  (607) 
-50.418258093427703

>  <r_i_glide_energy>  (607) 
-41.059154033660903

>  <r_i_glide_erotb>  (607) 
0.79568299072726101

>  <r_i_glide_esite>  (607) 
-0.104943448579598

>  <r_i_glide_evdw>  (607) 
-36.865592956542997

>  <r_i_glide_gscore>  (607) 
-3.9675001258801101

>  <r_i_glide_hbond>  (607) 
0

>  <r_i_glide_ligand_efficiency>  (607) 
-0.091850004196003796

>  <r_i_glide_ligand_efficiency_ln>  (607) 
-0.62607965217853301

>  <r_i_glide_ligand_efficiency_sa>  (607) 
-0.28539931838625499

>  <r_i_glide_lipo>  (607) 
-1.6196451768147599

>  <r_i_glide_metal>  (607) 
-0

>  <r_i_glide_rewards>  (607) 
-0.56628068181818003

>  <r_lp_Energy>  (607) 
23.518684

>  <r_lp_tautomer_probability>  (607) 
1

>  <r_qp_ACxDN^.5/SA>  (607) 
0.0095738999999999998

>  <r_qp_CIQPlogS>  (607) 
-6.2599999999999998

>  <r_qp_EA(eV)>  (607) 
0.122

>  <r_qp_FISA>  (607) 
66.308999999999997

>  <r_qp_FOSA>  (607) 
175.244

>  <r_qp_IP(eV)>  (607) 
8.2799999999999994

>  <r_qp_Jm>  (607) 
0.0145943088553308

>  <r_qp_PISA>  (607) 
347.38

>  <r_qp_PSA>  (607) 
52.655999999999999

>  <r_qp_PercentHumanOralAbsorption>  (607) 
100

>  <r_qp_QPPCaco>  (607) 
580.74800000000005

>  <r_qp_QPPMDCK>  (607) 
751.149

>  <r_qp_QPlogBB>  (607) 
0.113

>  <r_qp_QPlogHERG>  (607) 
-6.2439999999999998

>  <r_qp_QPlogKhsa>  (607) 
0.875

>  <r_qp_QPlogKp>  (607) 
-2.9079999999999999

>  <r_qp_QPlogPC16>  (607) 
13.944000000000001

>  <r_qp_QPlogPo/w>  (607) 
4.9660000000000002

>  <r_qp_QPlogPoct>  (607) 
21.065000000000001

>  <r_qp_QPlogPw>  (607) 
10.205

>  <r_qp_QPlogS>  (607) 
-4.548

>  <r_qp_QPpolrz>  (607) 
43.274000000000001

>  <r_qp_SASA>  (607) 
660.601

>  <r_qp_SAamideO>  (607) 
0

>  <r_qp_SAfluorine>  (607) 
0

>  <r_qp_WPSA>  (607) 
71.668000000000006

>  <r_qp_accptHB>  (607) 
4

>  <r_qp_dip^2/V>  (607) 
0.048847300000000003

>  <r_qp_dipole>  (607) 
7.859

>  <r_qp_donorHB>  (607) 
2.5

>  <r_qp_glob>  (607) 
0.85605609999999999

>  <r_qp_mol_MW>  (607) 
416.952

>  <r_qp_volume>  (607) 
1264.4880000000001

>  <r_sd_BIOSOLVEIT.INFINISEE\_FTREES\_SIMILARITY>  (607) 
0.91700000000000004

>  <r_sd_BIOSOLVEIT.LOGP>  (607) 
4.4060199999999998

>  <r_sd_BIOSOLVEIT.MOLECULAR\_WEIGHT>  (607) 
417.96100000000001

>  <r_sd_BIOSOLVEIT.TPSA>  (607) 
60.450000000000003

>  <i_epik_Tot_Q>  (607) 
0

>  <i_epik_Tot_abs_Q>  (607) 
0

>  <i_f3d_flags>  (607) 
0

>  <i_i_glide_confnum>  (607) 
3

>  <i_i_glide_lignum>  (607) 
296

>  <i_i_glide_posenum>  (607) 
13

>  <i_i_glide_rotatable_bonds>  (607) 
7

>  <i_lp_mmshare_version>  (607) 
65135

>  <i_m_ct_format>  (607) 
2

>  <i_m_source_file_index>  (607) 
957

>  <i_qp_#NandO>  (607) 
4

>  <i_qp_#acid>  (607) 
0

>  <i_qp_#amide>  (607) 
0

>  <i_qp_#amidine>  (607) 
0

>  <i_qp_#amine>  (607) 
1

>  <i_qp_#in34>  (607) 
0

>  <i_qp_#in56>  (607) 
23

>  <i_qp_#metab>  (607) 
7

>  <i_qp_#nonHatm>  (607) 
30

>  <i_qp_#noncon>  (607) 
0

>  <i_qp_#ringatoms>  (607) 
23

>  <i_qp_#rotor>  (607) 
7

>  <i_qp_#rtvFG>  (607) 
0

>  <i_qp_#stars>  (607) 
0

>  <i_qp_CNS>  (607) 
1

>  <i_qp_HumanOralAbsorption>  (607) 
3

>  <i_qp_RuleOfFive>  (607) 
0

>  <i_qp_RuleOfThree>  (607) 
1

>  <i_sd_BIOSOLVEIT.INFINISEE\_REAGENT1\_NAME>  (607) 
23868218

>  <i_sd_BIOSOLVEIT.INFINISEE\_REAGENT2\_NAME>  (607) 
7547832

>  <i_sd_BIOSOLVEIT.INFINISEE\_RESULT\_RANK>  (607) 
22920

>  <i_sd_version>  (607) 
0

>  <b_lp_Chiralities_Consistent>  (607) 
1

>  <b_sd_chiral_flag>  (607) 
0

>  <canonical_id>  (607) 
ATP-HTVS-5DA5A3EB6624

>  <compound_code>  (607) 
30594

>  <title>  (607) 
m_270004bbb____23868218____7547832

>  <variant>  (607) 
30594-2

>  <source_file>  (607) 
运行/运行/ATP-VSW/ATP-VSW-DOCK_HTVS_1-002_lib.maegz

>  <canonical_smiles>  (607) 
Cc1ccc(CNCc2cn(Cc3ccccc3)nc2-c2ccc(Cl)cc2)cc1N

>  <scaffold>  (607) 
c1ccc(CNCc2cn(Cc3ccccc3)nc2-c2ccccc2)cc1

>  <molecular_formula>  (607) 
C25H25ClN4

$$$$
ATP-HTVS-5DB20AD11BEB
     RDKit          3D

 60 63  0  0  0  0  0  0  0  0999 V2000
  199.6404  182.6857  153.4567 O   0  0  0  0  0  0  0  0  0  0  0  0
  198.5245  183.1793  153.5825 C   0  0  0  0  0  0  0  0  0  0  0  0
  197.6219  183.1128  152.5775 N   0  0  0  0  0  0  0  0  0  0  0  0
  197.9316  183.5423  151.2430 C   0  0  0  0  0  0  0  0  0  0  0  0
  197.6224  182.7404  150.1226 C   0  0  0  0  0  0  0  0  0  0  0  0
  197.8299  183.2437  148.8124 C   0  0  0  0  0  0  0  0  0  0  0  0
  198.2934  184.5583  148.6024 C   0  0  0  0  0  0  0  0  0  0  0  0
  198.5947  185.3559  149.7097 C   0  0  0  0  0  0  0  0  0  0  0  0
  198.4720  184.8395  151.0140 C   0  0  0  0  0  0  0  0  0  0  0  0
  196.3470  182.4315  152.8337 C   0  0  1  0  0  0  0  0  0  0  0  0
  196.3589  180.9821  152.5775 C   0  0  0  0  0  0  0  0  0  0  0  0
  196.3633  179.8435  152.3678 N   0  0  0  0  0  0  0  0  0  0  0  0
  198.0338  183.7909  154.8379 C   0  0  0  0  0  0  0  0  0  0  0  0
  197.5719  185.1972  154.6414 C   0  0  0  0  0  0  0  0  0  0  0  0
  197.5085  185.8222  153.6198 O   0  0  0  0  0  0  0  0  0  0  0  0
  197.1805  185.8193  155.7816 N   0  0  0  0  0  0  0  0  0  0  0  0
  197.1766  185.2793  157.0621 C   0  0  0  0  0  0  0  0  0  0  0  0
  197.5773  183.9391  157.2534 C   0  0  0  0  0  0  0  0  0  0  0  0
  197.5208  183.4101  158.5632 C   0  0  0  0  0  0  0  0  0  0  0  0
  197.0759  184.2147  159.6355 C   0  0  0  0  0  0  0  0  0  0  0  0
  196.6705  185.5510  159.4196 C   0  0  0  0  0  0  0  0  0  0  0  0
  196.7173  186.0830  158.1201 C   0  0  0  0  0  0  0  0  0  0  0  0
  198.0354  183.1862  156.0468 C   0  0  0  0  0  0  0  0  0  0  0  0
  198.3799  181.8519  156.2360 N   0  0  0  0  0  0  0  0  0  0  0  0
  199.6229  181.3578  156.6409 C   0  0  0  0  0  0  0  0  0  0  0  0
  199.7292  179.9842  156.9317 C   0  0  0  0  0  0  0  0  0  0  0  0
  200.9603  179.4092  157.3185 C   0  0  0  0  0  0  0  0  0  0  0  0
  202.0984  180.2389  157.4362 C   0  0  0  0  0  0  0  0  0  0  0  0
  201.9924  181.6229  157.1800 C   0  0  0  0  0  0  0  0  0  0  0  0
  200.7604  182.1815  156.7876 C   0  0  0  0  0  0  0  0  0  0  0  0
  201.0526  177.9168  157.6216 C   0  0  1  0  0  0  0  0  0  0  0  0
  201.1297  177.1020  156.3792 N   0  0  2  0  0  0  0  0  0  0  0  0
  199.8321  176.9846  155.6744 C   0  0  2  0  0  0  0  0  0  0  0  0
  201.7221  175.7650  156.6042 C   0  0  2  0  0  0  0  0  0  0  0  0
  197.2431  181.7356  150.2326 H   0  0  0  0  0  0  0  0  0  0  0  0
  197.6313  182.6296  147.9501 H   0  0  0  0  0  0  0  0  0  0  0  0
  198.4489  184.9427  147.6075 H   0  0  0  0  0  0  0  0  0  0  0  0
  198.9313  186.3778  149.5880 H   0  0  0  0  0  0  0  0  0  0  0  0
  198.7730  185.5137  151.8010 H   0  0  0  0  0  0  0  0  0  0  0  0
  195.9738  182.5559  153.8557 H   0  0  0  0  0  0  0  0  0  0  0  0
  195.5914  182.8554  152.1726 H   0  0  0  0  0  0  0  0  0  0  0  0
  196.8576  186.7713  155.6553 H   0  0  0  0  0  0  0  0  0  0  0  0
  197.8183  182.3833  158.7563 H   0  0  0  0  0  0  0  0  0  0  0  0
  197.0502  183.8052  160.6375 H   0  0  0  0  0  0  0  0  0  0  0  0
  196.3295  186.1733  160.2404 H   0  0  0  0  0  0  0  0  0  0  0  0
  196.3970  187.0955  157.9325 H   0  0  0  0  0  0  0  0  0  0  0  0
  197.6519  181.1605  156.1148 H   0  0  0  0  0  0  0  0  0  0  0  0
  198.8310  179.3845  156.9117 H   0  0  0  0  0  0  0  0  0  0  0  0
  203.0545  179.8360  157.7378 H   0  0  0  0  0  0  0  0  0  0  0  0
  202.8627  182.2556  157.2776 H   0  0  0  0  0  0  0  0  0  0  0  0
  200.6908  183.2436  156.5963 H   0  0  0  0  0  0  0  0  0  0  0  0
  201.9491  177.7546  158.2238 H   0  0  0  0  0  0  0  0  0  0  0  0
  200.2032  177.6042  158.2402 H   0  0  0  0  0  0  0  0  0  0  0  0
  199.1150  176.5090  156.3410 H   0  0  0  0  0  0  0  0  0  0  0  0
  199.9181  176.3964  154.7597 H   0  0  0  0  0  0  0  0  0  0  0  0
  199.4262  177.9444  155.3583 H   0  0  0  0  0  0  0  0  0  0  0  0
  201.1503  175.1930  157.3328 H   0  0  0  0  0  0  0  0  0  0  0  0
  202.7489  175.8423  156.9655 H   0  0  0  0  0  0  0  0  0  0  0  0
  201.7486  175.1920  155.6772 H   0  0  0  0  0  0  0  0  0  0  0  0
  201.7680  177.5921  155.7700 H   0  0  0  0  0  0  0  0  0  0  0  0
  1  2  2  0
  2  3  1  0
  2 13  1  0
  3  4  1  0
  3 10  1  0
  4  5  2  0
  4  9  1  0
  5  6  1  0
  5 35  1  0
  6  7  2  0
  6 36  1  0
  7  8  1  0
  7 37  1  0
  8  9  2  0
  8 38  1  0
  9 39  1  0
 10 11  1  0
 10 40  1  1
 10 41  1  0
 11 12  3  0
 13 14  1  0
 13 23  2  0
 14 15  2  0
 14 16  1  0
 16 17  1  0
 16 42  1  0
 17 18  1  0
 17 22  2  0
 18 19  2  0
 18 23  1  0
 19 20  1  0
 19 43  1  0
 20 21  2  0
 20 44  1  0
 21 22  1  0
 21 45  1  0
 22 46  1  0
 23 24  1  0
 24 25  1  0
 24 47  1  0
 25 26  2  0
 25 30  1  0
 26 27  1  0
 26 48  1  0
 27 28  2  0
 27 31  1  0
 28 29  1  0
 28 49  1  0
 29 30  2  0
 29 50  1  0
 30 51  1  0
 31 32  1  0
 31 52  1  1
 31 53  1  0
 32 33  1  0
 32 34  1  0
 32 60  1  6
 33 54  1  1
 33 55  1  0
 33 56  1  0
 34 57  1  1
 34 58  1  0
 34 59  1  0
M  CHG  1  32   1
M  END
>  <s_epik_cmdline>  (608) 
J2VwaWtfcHl0aG9uJywgJy1waCcsICc3LjAwMDAwMCcsICctcGh0JywgJzIuMDAwMDAwJywgJy1tcycsICcxNicsICctdG4nLCAnOCcsICctbWEnLCAnMjAwJywgJy1pbWFlJywgJzxpbmZpbGUubWFlPicsICctb21hZScsICc8b3V0ZmlsZS5tYWU+Jw==

>  <s_epik_input>  (608) 
W2NIXTFbY0hdW2NIXVtjSF1bY0hdYzFOKFtDSDJdQyNOKUMoPU8pYyhjKD1PKVtuSF0yKWMoYyhjMjMpW2NIXVtjSF1bY0hdW2NIXTMpW05IXWM0W2NIXWMoW2NIXVtjSF1bY0hdNClbQ0gyXU4oW0NIM10pW0NIM10=

>  <s_i_glide_gridfile>  (608) 
ATP-Grid

>  <s_lp_Force_Field>  (608) 
OPLS_2005

>  <s_lp_Variant>  (608) 
rxn512c____EMOL712348____EMOL43362984____EMOL3728368-1

>  <s_lp_label>  (608) 
2617_sdstereoexpander_1_neutralizer_1_epik_1_stereoizer_1

>  <s_m_source_file>  (608) 
ATP-VSW-LIGPREP-001-in.maegz

>  <s_sd_BIOSOLVEIT.INFINISEE\_QUERY\_NAME>  (608) 
Ref-Lig

>  <s_sd_BIOSOLVEIT.INFINISEE\_QUERY\_SMILES>  (608) 
S(c1nc2c(cc1C[NH2+]Cc3ccc(cc3)C[NH+](C)C)cccc2)Cc4ccccc4

>  <s_sd_BIOSOLVEIT.INFINISEE\_REACTION\_NAME>  (608) 
rxn512c

>  <s_sd_BIOSOLVEIT.INFINISEE\_REAGENT1\_NAME>  (608) 
EMOL712348

>  <s_sd_BIOSOLVEIT.INFINISEE\_REAGENT1\_SMILES>  (608) 
N#CCNc1ccccc1

>  <s_sd_BIOSOLVEIT.INFINISEE\_REAGENT2\_NAME>  (608) 
EMOL43362984

>  <s_sd_BIOSOLVEIT.INFINISEE\_REAGENT2\_SMILES>  (608) 
ClC=1c2c(NC(=O)C1C(=O)O)cccc2

>  <s_sd_BIOSOLVEIT.INFINISEE\_REAGENT3\_NAME>  (608) 
EMOL3728368

>  <s_sd_BIOSOLVEIT.INFINISEE\_REAGENT3\_SMILES>  (608) 
N(Cc1cc(N)ccc1)(C)C

>  <s_sd_BIOSOLVEIT.INFINISEE\_SPACE>  (608) 
eXplore_7tr_2022-12

>  <s_vsw_compound_code>  (608) 
83713

>  <s_vsw_variant>  (608) 
83713-1

>  <r_epik_Charging_Adjusted_Penalty>  (608) 
0.090585327996284395

>  <r_epik_Ionization_Penalty>  (608) 
0.045499999999999999

>  <r_epik_Ionization_Penalty_Charging>  (608) 
0.0453

>  <r_epik_Ionization_Penalty_Neutral>  (608) 
0.00020000000000000001

>  <r_epik_State_Penalty>  (608) 
0.0453

>  <r_i_docking_score>  (608) 
-2.9626108899181398

>  <r_i_glide_ecoul>  (608) 
-6.57761526107788

>  <r_i_glide_eff_state_penalty>  (608) 
0.0453

>  <r_i_glide_einternal>  (608) 
17.211483001708999

>  <r_i_glide_emodel>  (608) 
-44.382409212876297

>  <r_i_glide_energy>  (608) 
-42.302781581878698

>  <r_i_glide_erotb>  (608) 
0.58791997476944602

>  <r_i_glide_esite>  (608) 
-0.037987526314460403

>  <r_i_glide_evdw>  (608) 
-35.725166320800803

>  <r_i_glide_gscore>  (608) 
-3.0079108899181399

>  <r_i_glide_hbond>  (608) 
0

>  <r_i_glide_ligand_efficiency>  (608) 
-0.087135614409357104

>  <r_i_glide_ligand_efficiency_ln>  (608) 
-0.65452384400364905

>  <r_i_glide_ligand_efficiency_sa>  (608) 
-0.282285564420304

>  <r_i_glide_lipo>  (608) 
-1.68742347503537

>  <r_i_glide_metal>  (608) 
-0

>  <r_i_glide_rewards>  (608) 
0.90248074186395999

>  <r_lp_Energy>  (608) 
64.775611999999995

>  <r_qp_ACxDN^.5/SA>  (608) 
0

>  <r_qp_CIQPlogS>  (608) 
-6.4539999999999997

>  <r_qp_EA(eV)>  (608) 
1.2110000000000001

>  <r_qp_FISA>  (608) 
148.72999999999999

>  <r_qp_FOSA>  (608) 
165.31899999999999

>  <r_qp_IP(eV)>  (608) 
8.6590000000000007

>  <r_qp_Jm>  (608) 
0.00104666137723333

>  <r_qp_PISA>  (608) 
412.27100000000002

>  <r_qp_PSA>  (608) 
96.784999999999997

>  <r_qp_PercentHumanOralAbsorption>  (608) 
83.381

>  <r_qp_QPPCaco>  (608) 
96.025999999999996

>  <r_qp_QPPMDCK>  (608) 
43.481999999999999

>  <r_qp_QPlogBB>  (608) 
-0.97399999999999998

>  <r_qp_QPlogHERG>  (608) 
-7.0439999999999996

>  <r_qp_QPlogKhsa>  (608) 
0.28100000000000003

>  <r_qp_QPlogKp>  (608) 
-4.1029999999999998

>  <r_qp_QPlogPC16>  (608) 
14.970000000000001

>  <r_qp_QPlogPo/w>  (608) 
3.5790000000000002

>  <r_qp_QPlogPoct>  (608) 
22.640999999999998

>  <r_qp_QPlogPw>  (608) 
10.906000000000001

>  <r_qp_QPlogS>  (608) 
-4.532

>  <r_qp_QPpolrz>  (608) 
47.914999999999999

>  <r_qp_SASA>  (608) 
726.32000000000005

>  <r_qp_SAamideO>  (608) 
0

>  <r_qp_SAfluorine>  (608) 
0

>  <r_qp_WPSA>  (608) 
0

>  <r_qp_accptHB>  (608) 
7.5

>  <r_qp_dip^2/V>  (608) 
0.16891320000000001

>  <r_qp_dipole>  (608) 
15.273

>  <r_qp_donorHB>  (608) 
0

>  <r_qp_glob>  (608) 
0.82572730000000005

>  <r_qp_mol_MW>  (608) 
451.52699999999999

>  <r_qp_volume>  (608) 
1381.018

>  <r_sd_BIOSOLVEIT.INFINISEE\_FTREES\_SIMILARITY>  (608) 
0.91100000000000003

>  <r_sd_BIOSOLVEIT.LOGP>  (608) 
3.0865800000000001

>  <r_sd_BIOSOLVEIT.MOLECULAR\_WEIGHT>  (608) 
452.53500000000003

>  <r_sd_BIOSOLVEIT.TPSA>  (608) 
93.430000000000007

>  <i_epik_Tot_Q>  (608) 
1

>  <i_epik_Tot_abs_Q>  (608) 
1

>  <i_f3d_flags>  (608) 
0

>  <i_i_glide_confnum>  (608) 
4

>  <i_i_glide_lignum>  (608) 
1104

>  <i_i_glide_posenum>  (608) 
5

>  <i_i_glide_rotatable_bonds>  (608) 
8

>  <i_lp_mmshare_version>  (608) 
65135

>  <i_m_ct_format>  (608) 
2

>  <i_m_source_file_index>  (608) 
2617

>  <i_qp_#NandO>  (608) 
7

>  <i_qp_#acid>  (608) 
0

>  <i_qp_#amide>  (608) 
0

>  <i_qp_#amidine>  (608) 
0

>  <i_qp_#amine>  (608) 
1

>  <i_qp_#in34>  (608) 
0

>  <i_qp_#in56>  (608) 
22

>  <i_qp_#metab>  (608) 
6

>  <i_qp_#nonHatm>  (608) 
34

>  <i_qp_#noncon>  (608) 
0

>  <i_qp_#ringatoms>  (608) 
22

>  <i_qp_#rotor>  (608) 
8

>  <i_qp_#rtvFG>  (608) 
0

>  <i_qp_#stars>  (608) 
1

>  <i_qp_CNS>  (608) 
0

>  <i_qp_HumanOralAbsorption>  (608) 
3

>  <i_qp_RuleOfFive>  (608) 
0

>  <i_qp_RuleOfThree>  (608) 
0

>  <i_sd_BIOSOLVEIT.INFINISEE\_RESULT\_RANK>  (608) 
43147

>  <i_sd_version>  (608) 
0

>  <b_lp_Chiralities_Consistent>  (608) 
1

>  <b_sd_chiral_flag>  (608) 
0

>  <canonical_id>  (608) 
ATP-HTVS-5DB20AD11BEB

>  <compound_code>  (608) 
83713

>  <title>  (608) 
rxn512c____EMOL712348____EMOL43362984____EMOL3728368

>  <variant>  (608) 
83713-1

>  <source_file>  (608) 
运行/运行/ATP-VSW/ATP-VSW-DOCK_HTVS_1-001_lib/ATP-VSW-DOCK_HTVS_1-001_lib

>  <canonical_smiles>  (608) 
C[NH+](C)Cc1cccc(Nc2c(C(=O)N(CC#N)c3ccccc3)c(=O)[nH]c3ccccc23)c1

>  <scaffold>  (608) 
O=C(Nc1ccccc1)c1c(Nc2ccccc2)c2ccccc2[nH]c1=O

>  <molecular_formula>  (608) 
C27H26N5O2+

$$$$
ATP-HTVS-5E187255B48D
     RDKit          3D

 47 50  0  0  0  0  0  0  0  0999 V2000
  197.5572  192.0948  161.7251 F   0  0  0  0  0  0  0  0  0  0  0  0
  198.3363  191.9996  160.6186 C   0  0  0  0  0  0  0  0  0  0  0  0
  198.2734  190.8585  159.7756 C   0  0  0  0  0  0  0  0  0  0  0  0
  199.0994  190.8132  158.6247 C   0  0  0  0  0  0  0  0  0  0  0  0
  199.9790  191.8722  158.3309 C   0  0  0  0  0  0  0  0  0  0  0  0
  200.0378  192.9956  159.1739 C   0  0  0  0  0  0  0  0  0  0  0  0
  199.2176  193.0583  160.3156 C   0  0  0  0  0  0  0  0  0  0  0  0
  197.3159  189.7324  160.0731 C   0  0  0  0  0  0  0  0  0  0  0  0
  196.2801  189.9378  160.7048 O   0  0  0  0  0  0  0  0  0  0  0  0
  197.7118  188.5302  159.6148 N   0  0  0  0  0  0  0  0  0  0  0  0
  197.0534  187.2655  159.6134 C   0  0  0  0  0  0  0  0  0  0  0  0
  197.6064  186.2098  158.8350 C   0  0  0  0  0  0  0  0  0  0  0  0
  198.7873  186.4274  158.0840 N   0  0  0  0  0  0  0  0  0  0  0  0
  198.9171  186.2601  156.6781 C   0  0  0  0  0  0  0  0  0  0  0  0
  200.1752  186.2559  156.0167 C   0  0  0  0  0  0  0  0  0  0  0  0
  200.2628  186.0695  154.6221 C   0  0  0  0  0  0  0  0  0  0  0  0
  199.1033  185.8597  153.8565 C   0  0  0  0  0  0  0  0  0  0  0  0
  197.8512  185.8385  154.4928 C   0  0  0  0  0  0  0  0  0  0  0  0
  197.7584  186.0642  155.8814 C   0  0  0  0  0  0  0  0  0  0  0  0
  199.9931  186.4928  158.9294 C   0  0  1  0  0  0  0  0  0  0  0  0
  200.3737  185.1689  159.4508 C   0  0  0  0  0  0  0  0  0  0  0  0
  200.6715  184.1297  159.8621 N   0  0  0  0  0  0  0  0  0  0  0  0
  196.9352  184.9501  158.8354 C   0  0  0  0  0  0  0  0  0  0  0  0
  195.7325  184.8170  159.5875 C   0  0  0  0  0  0  0  0  0  0  0  0
  195.2298  185.8279  160.3287 N   0  0  0  0  0  0  0  0  0  0  0  0
  195.8738  187.0092  160.3447 C   0  0  0  0  0  0  0  0  0  0  0  0
  195.0437  183.5865  159.5625 C   0  0  0  0  0  0  0  0  0  0  0  0
  195.5226  182.4885  158.8265 C   0  0  0  0  0  0  0  0  0  0  0  0
  196.7122  182.6121  158.0976 C   0  0  0  0  0  0  0  0  0  0  0  0
  197.4202  183.8290  158.1127 C   0  0  0  0  0  0  0  0  0  0  0  0
  199.0731  189.9736  157.9444 H   0  0  0  0  0  0  0  0  0  0  0  0
  200.5987  191.8238  157.4455 H   0  0  0  0  0  0  0  0  0  0  0  0
  200.7025  193.8150  158.9401 H   0  0  0  0  0  0  0  0  0  0  0  0
  199.2573  193.9231  160.9604 H   0  0  0  0  0  0  0  0  0  0  0  0
  198.6042  188.5340  159.1444 H   0  0  0  0  0  0  0  0  0  0  0  0
  201.1104  186.3808  156.5415 H   0  0  0  0  0  0  0  0  0  0  0  0
  201.2308  186.0821  154.1438 H   0  0  0  0  0  0  0  0  0  0  0  0
  199.1730  185.7115  152.7871 H   0  0  0  0  0  0  0  0  0  0  0  0
  196.9488  185.6711  153.9173 H   0  0  0  0  0  0  0  0  0  0  0  0
  196.7710  186.0466  156.3170 H   0  0  0  0  0  0  0  0  0  0  0  0
  200.8563  186.9417  158.4421 H   0  0  0  0  0  0  0  0  0  0  0  0
  199.8160  187.1266  159.7977 H   0  0  0  0  0  0  0  0  0  0  0  0
  195.3969  187.7557  160.9628 H   0  0  0  0  0  0  0  0  0  0  0  0
  194.1301  183.4917  160.1265 H   0  0  0  0  0  0  0  0  0  0  0  0
  194.9912  181.5457  158.8159 H   0  0  0  0  0  0  0  0  0  0  0  0
  197.0801  181.7723  157.5245 H   0  0  0  0  0  0  0  0  0  0  0  0
  198.3342  183.8714  157.5432 H   0  0  0  0  0  0  0  0  0  0  0  0
  1  2  1  0
  2  3  1  0
  2  7  2  0
  3  4  2  0
  3  8  1  0
  4  5  1  0
  4 31  1  0
  5  6  2  0
  5 32  1  0
  6  7  1  0
  6 33  1  0
  7 34  1  0
  8  9  2  0
  8 10  1  0
 10 11  1  0
 10 35  1  0
 11 12  2  0
 11 26  1  0
 12 13  1  0
 12 23  1  0
 13 14  1  0
 13 20  1  0
 14 15  2  0
 14 19  1  0
 15 16  1  0
 15 36  1  0
 16 17  2  0
 16 37  1  0
 17 18  1  0
 17 38  1  0
 18 19  2  0
 18 39  1  0
 19 40  1  0
 20 21  1  0
 20 41  1  6
 20 42  1  0
 21 22  3  0
 23 24  1  0
 23 30  2  0
 24 25  1  0
 24 27  2  0
 25 26  2  0
 26 43  1  0
 27 28  1  0
 27 44  1  0
 28 29  2  0
 28 45  1  0
 29 30  1  0
 29 46  1  0
 30 47  1  0
M  END
>  <s_epik_cmdline>  (609) 
J2VwaWtfcHl0aG9uJywgJy1waCcsICc3LjAwMDAwMCcsICctcGh0JywgJzIuMDAwMDAwJywgJy1tcycsICcxNicsICctdG4nLCAnOCcsICctbWEnLCAnMjAwJywgJy1pbWFlJywgJzxpbmZpbGUubWFlPicsICctb21hZScsICc8b3V0ZmlsZS5tYWU+Jw==

>  <s_epik_input>  (609) 
W2NIXTFbY0hdW2NIXVtjSF1jKGMxRilDKD1PKVtOSF1jKFtjSF1uYyhjMjMpW2NIXVtjSF1bY0hdW2NIXTMpYzJOKFtDSDJdQyNOKWM0W2NIXVtjSF1bY0hdW2NIXVtjSF00

>  <s_i_glide_gridfile>  (609) 
ATP-Grid

>  <s_lp_Force_Field>  (609) 
OPLS_2005

>  <s_lp_Variant>  (609) 
rxn502b____EMOL505868____EMOL30488121____EMOL712348-1

>  <s_lp_label>  (609) 
2534_sdstereoexpander_1_neutralizer_1_epik_1_stereoizer_1

>  <s_m_source_file>  (609) 
ATP-VSW-LIGPREP-001-in.maegz

>  <s_sd_BIOSOLVEIT.INFINISEE\_QUERY\_NAME>  (609) 
Ref-Lig

>  <s_sd_BIOSOLVEIT.INFINISEE\_QUERY\_SMILES>  (609) 
S(c1nc2c(cc1C[NH2+]Cc3ccc(cc3)C[NH+](C)C)cccc2)Cc4ccccc4

>  <s_sd_BIOSOLVEIT.INFINISEE\_REACTION\_NAME>  (609) 
rxn502b

>  <s_sd_BIOSOLVEIT.INFINISEE\_REAGENT1\_NAME>  (609) 
EMOL505868

>  <s_sd_BIOSOLVEIT.INFINISEE\_REAGENT1\_SMILES>  (609) 
Fc1c(cccc1)C(=O)O

>  <s_sd_BIOSOLVEIT.INFINISEE\_REAGENT2\_NAME>  (609) 
EMOL30488121

>  <s_sd_BIOSOLVEIT.INFINISEE\_REAGENT2\_SMILES>  (609) 
Brc1c(N)cnc2c1cccc2

>  <s_sd_BIOSOLVEIT.INFINISEE\_REAGENT3\_NAME>  (609) 
EMOL712348

>  <s_sd_BIOSOLVEIT.INFINISEE\_REAGENT3\_SMILES>  (609) 
N#CCNc1ccccc1

>  <s_sd_BIOSOLVEIT.INFINISEE\_SPACE>  (609) 
eXplore_7tr_2022-12

>  <s_vsw_compound_code>  (609) 
81057

>  <s_vsw_variant>  (609) 
81057-1

>  <r_epik_Charging_Adjusted_Penalty>  (609) 
0.014631335965210801

>  <r_epik_Ionization_Penalty>  (609) 
0.0147

>  <r_epik_Ionization_Penalty_Charging>  (609) 
0

>  <r_epik_Ionization_Penalty_Neutral>  (609) 
0.0147

>  <r_epik_State_Penalty>  (609) 
0.0146

>  <r_i_docking_score>  (609) 
-3.4628017673796698

>  <r_i_glide_ecoul>  (609) 
-2.0945901870727499

>  <r_i_glide_eff_state_penalty>  (609) 
0.0146

>  <r_i_glide_einternal>  (609) 
1.0661643743514999

>  <r_i_glide_emodel>  (609) 
-42.150283836072703

>  <r_i_glide_energy>  (609) 
-34.773652076721199

>  <r_i_glide_erotb>  (609) 
0.62249861315325405

>  <r_i_glide_esite>  (609) 
-0.13771571639171201

>  <r_i_glide_evdw>  (609) 
-32.679061889648402

>  <r_i_glide_gscore>  (609) 
-3.47740176737967

>  <r_i_glide_hbond>  (609) 
0

>  <r_i_glide_ligand_efficiency>  (609) 
-0.115426725579322

>  <r_i_glide_ligand_efficiency_ln>  (609) 
-0.78678629179587201

>  <r_i_glide_ligand_efficiency_sa>  (609) 
-0.35865767336926402

>  <r_i_glide_lipo>  (609) 
-1.1688647343160901

>  <r_i_glide_metal>  (609) 
-0

>  <r_i_glide_rewards>  (609) 
-0.84517830728178001

>  <r_lp_Energy>  (609) 
33.891224000000001

>  <r_qp_ACxDN^.5/SA>  (609) 
0.0086639999999999998

>  <r_qp_CIQPlogS>  (609) 
-7.3940000000000001

>  <r_qp_EA(eV)>  (609) 
1.3069999999999999

>  <r_qp_FISA>  (609) 
96.286000000000001

>  <r_qp_FOSA>  (609) 
31.170000000000002

>  <r_qp_IP(eV)>  (609) 
8.6620000000000008

>  <r_qp_Jm>  (609) 
0.053630077390036099

>  <r_qp_PISA>  (609) 
496.78899999999999

>  <r_qp_PSA>  (609) 
69.343999999999994

>  <r_qp_PercentHumanOralAbsorption>  (609) 
100

>  <r_qp_QPPCaco>  (609) 
1210.0989999999999

>  <r_qp_QPPMDCK>  (609) 
694.63300000000004

>  <r_qp_QPlogBB>  (609) 
-0.65900000000000003

>  <r_qp_QPlogHERG>  (609) 
-6.3120000000000003

>  <r_qp_QPlogKhsa>  (609) 
0.51000000000000001

>  <r_qp_QPlogKp>  (609) 
-0.96799999999999997

>  <r_qp_QPlogPC16>  (609) 
13.537000000000001

>  <r_qp_QPlogPo/w>  (609) 
4.359

>  <r_qp_QPlogPoct>  (609) 
19.170999999999999

>  <r_qp_QPlogPw>  (609) 
10.843

>  <r_qp_QPlogS>  (609) 
-5.9009999999999998

>  <r_qp_QPpolrz>  (609) 
41.987000000000002

>  <r_qp_SASA>  (609) 
634.81200000000001

>  <r_qp_SAamideO>  (609) 
0

>  <r_qp_SAfluorine>  (609) 
10.567

>  <r_qp_WPSA>  (609) 
10.567

>  <r_qp_accptHB>  (609) 
5.5

>  <r_qp_dip^2/V>  (609) 
0.038610899999999997

>  <r_qp_dipole>  (609) 
6.7519999999999998

>  <r_qp_donorHB>  (609) 
1

>  <r_qp_glob>  (609) 
0.85099930000000001

>  <r_qp_mol_MW>  (609) 
396.423

>  <r_qp_volume>  (609) 
1180.6300000000001

>  <r_sd_BIOSOLVEIT.INFINISEE\_FTREES\_SIMILARITY>  (609) 
0.91300000000000003

>  <r_sd_BIOSOLVEIT.LOGP>  (609) 
5.2878800000000004

>  <r_sd_BIOSOLVEIT.MOLECULAR\_WEIGHT>  (609) 
396.423

>  <r_sd_BIOSOLVEIT.TPSA>  (609) 
69.019999999999996

>  <i_epik_Tot_Q>  (609) 
0

>  <i_epik_Tot_abs_Q>  (609) 
0

>  <i_f3d_flags>  (609) 
0

>  <i_i_glide_confnum>  (609) 
1

>  <i_i_glide_lignum>  (609) 
1009

>  <i_i_glide_posenum>  (609) 
20

>  <i_i_glide_rotatable_bonds>  (609) 
6

>  <i_lp_mmshare_version>  (609) 
65135

>  <i_m_ct_format>  (609) 
2

>  <i_m_source_file_index>  (609) 
2534

>  <i_qp_#NandO>  (609) 
5

>  <i_qp_#acid>  (609) 
0

>  <i_qp_#amide>  (609) 
0

>  <i_qp_#amidine>  (609) 
0

>  <i_qp_#amine>  (609) 
0

>  <i_qp_#in34>  (609) 
0

>  <i_qp_#in56>  (609) 
22

>  <i_qp_#metab>  (609) 
4

>  <i_qp_#nonHatm>  (609) 
30

>  <i_qp_#noncon>  (609) 
0

>  <i_qp_#ringatoms>  (609) 
22

>  <i_qp_#rotor>  (609) 
6

>  <i_qp_#rtvFG>  (609) 
0

>  <i_qp_#stars>  (609) 
1

>  <i_qp_CNS>  (609) 
0

>  <i_qp_HumanOralAbsorption>  (609) 
3

>  <i_qp_RuleOfFive>  (609) 
0

>  <i_qp_RuleOfThree>  (609) 
1

>  <i_sd_BIOSOLVEIT.INFINISEE\_RESULT\_RANK>  (609) 
33936

>  <i_sd_version>  (609) 
0

>  <b_lp_Chiralities_Consistent>  (609) 
1

>  <b_sd_chiral_flag>  (609) 
0

>  <canonical_id>  (609) 
ATP-HTVS-5E187255B48D

>  <compound_code>  (609) 
81057

>  <title>  (609) 
rxn502b____EMOL505868____EMOL30488121____EMOL712348

>  <variant>  (609) 
81057-1

>  <source_file>  (609) 
运行/运行/ATP-VSW/ATP-VSW-DOCK_HTVS_1-001_lib/ATP-VSW-DOCK_HTVS_1-001_lib

>  <canonical_smiles>  (609) 
N#CCN(c1ccccc1)c1c(NC(=O)c2ccccc2F)cnc2ccccc12

>  <scaffold>  (609) 
O=C(Nc1cnc2ccccc2c1Nc1ccccc1)c1ccccc1

>  <molecular_formula>  (609) 
C24H17FN4O

$$$$
ATP-HTVS-5E1B9EFD9407
     RDKit          3D

 58 61  0  0  0  0  0  0  0  0999 V2000
  194.5707  186.0351  160.8942 F   0  0  0  0  0  0  0  0  0  0  0  0
  195.6524  186.5424  160.2530 C   0  0  0  0  0  0  0  0  0  0  0  0
  196.3697  185.7513  159.3206 C   0  0  0  0  0  0  0  0  0  0  0  0
  197.5057  186.3102  158.6881 C   0  0  0  0  0  0  0  0  0  0  0  0
  197.9075  187.6306  158.9612 C   0  0  0  0  0  0  0  0  0  0  0  0
  197.1850  188.4090  159.8831 C   0  0  0  0  0  0  0  0  0  0  0  0
  196.0632  187.8616  160.5297 C   0  0  0  0  0  0  0  0  0  0  0  0
  195.9381  184.3100  159.0390 C   0  0  1  0  0  0  0  0  0  0  0  0
  196.4237  183.8172  157.7513 N   0  0  0  0  0  0  0  0  0  0  0  0
  195.9380  182.4822  157.4311 C   0  0  1  0  0  0  0  0  0  0  0  0
  196.3438  182.0590  156.0847 C   0  0  0  0  0  0  0  0  0  0  0  0
  196.6562  181.6518  154.9773 C   0  0  0  0  0  0  0  0  0  0  0  0
  197.0050  181.1757  153.6490 C   0  0  0  0  0  0  0  0  0  0  0  0
  197.7466  179.9905  153.4425 C   0  0  0  0  0  0  0  0  0  0  0  0
  198.1682  179.2033  154.5603 N   0  0  0  0  0  0  0  0  0  0  0  0
  199.4441  178.9925  154.9170 C   0  0  0  0  0  0  0  0  0  0  0  0
  200.3973  179.4926  154.3167 O   0  0  0  0  0  0  0  0  0  0  0  0
  199.6996  178.0565  156.1026 C   0  0  1  0  0  0  0  0  0  0  0  0
  200.5540  176.8513  155.6993 C   0  0  0  0  0  0  0  0  0  0  0  0
  200.3498  176.1858  154.4711 C   0  0  0  0  0  0  0  0  0  0  0  0
  201.1704  175.1102  154.0766 C   0  0  0  0  0  0  0  0  0  0  0  0
  200.9534  174.4968  152.7820 C   0  0  0  0  0  0  0  0  0  0  0  0
  200.7815  174.0080  151.7474 N   0  0  0  0  0  0  0  0  0  0  0  0
  202.1798  174.6410  154.9431 C   0  0  0  0  0  0  0  0  0  0  0  0
  202.3569  175.2662  156.2007 C   0  0  0  0  0  0  0  0  0  0  0  0
  201.5568  176.3756  156.5693 C   0  0  0  0  0  0  0  0  0  0  0  0
  198.0322  179.6122  152.0967 C   0  0  0  0  0  0  0  0  0  0  0  0
  197.5840  180.4502  151.0343 C   0  0  0  0  0  0  0  0  0  0  0  0
  196.8828  181.5827  151.2626 N   0  0  0  0  0  0  0  0  0  0  0  0
  196.6100  181.9333  152.5327 C   0  0  0  0  0  0  0  0  0  0  0  0
  197.8912  180.0772  149.7013 C   0  0  0  0  0  0  0  0  0  0  0  0
  198.6205  178.9021  149.4115 C   0  0  0  0  0  0  0  0  0  0  0  0
  199.0455  178.0793  150.4686 C   0  0  0  0  0  0  0  0  0  0  0  0
  198.7486  178.4370  151.7930 C   0  0  0  0  0  0  0  0  0  0  0  0
  196.4028  183.3848  160.1767 C   0  0  2  0  0  0  0  0  0  0  0  0
  197.4309  183.8103  157.7428 H   0  0  0  0  0  0  0  0  0  0  0  0
  198.0930  185.7404  157.9843 H   0  0  0  0  0  0  0  0  0  0  0  0
  198.7722  188.0400  158.4620 H   0  0  0  0  0  0  0  0  0  0  0  0
  197.4988  189.4220  160.0927 H   0  0  0  0  0  0  0  0  0  0  0  0
  195.5114  188.4652  161.2373 H   0  0  0  0  0  0  0  0  0  0  0  0
  194.8458  184.3062  159.0018 H   0  0  0  0  0  0  0  0  0  0  0  0
  196.3625  181.7260  158.0899 H   0  0  0  0  0  0  0  0  0  0  0  0
  194.8514  182.4404  157.4981 H   0  0  0  0  0  0  0  0  0  0  0  0
  197.4467  178.8692  155.1863 H   0  0  0  0  0  0  0  0  0  0  0  0
  200.1929  178.6328  156.8899 H   0  0  0  0  0  0  0  0  0  0  0  0
  198.7581  177.6872  156.5079 H   0  0  0  0  0  0  0  0  0  0  0  0
  199.5397  176.4646  153.8277 H   0  0  0  0  0  0  0  0  0  0  0  0
  202.7977  173.7955  154.6622 H   0  0  0  0  0  0  0  0  0  0  0  0
  203.1214  174.9054  156.8749 H   0  0  0  0  0  0  0  0  0  0  0  0
  201.7220  176.8526  157.5244 H   0  0  0  0  0  0  0  0  0  0  0  0
  196.0532  182.8584  152.6695 H   0  0  0  0  0  0  0  0  0  0  0  0
  197.5718  180.7194  148.8916 H   0  0  0  0  0  0  0  0  0  0  0  0
  198.8677  178.6362  148.3950 H   0  0  0  0  0  0  0  0  0  0  0  0
  199.6176  177.1839  150.2807 H   0  0  0  0  0  0  0  0  0  0  0  0
  199.1080  177.7873  152.5707 H   0  0  0  0  0  0  0  0  0  0  0  0
  196.0190  183.7438  161.1285 H   0  0  0  0  0  0  0  0  0  0  0  0
  197.4910  183.3417  160.2409 H   0  0  0  0  0  0  0  0  0  0  0  0
  196.0335  182.3631  160.0740 H   0  0  0  0  0  0  0  0  0  0  0  0
  1  2  1  0
  2  3  1  0
  2  7  2  0
  3  4  2  0
  3  8  1  0
  4  5  1  0
  4 37  1  0
  5  6  2  0
  5 38  1  0
  6  7  1  0
  6 39  1  0
  7 40  1  0
  8  9  1  0
  8 35  1  0
  8 41  1  6
  9 10  1  0
  9 36  1  0
 10 11  1  0
 10 42  1  1
 10 43  1  0
 11 12  3  0
 12 13  1  0
 13 14  2  0
 13 30  1  0
 14 15  1  0
 14 27  1  0
 15 16  1  0
 15 44  1  0
 16 17  2  0
 16 18  1  0
 18 19  1  0
 18 45  1  1
 18 46  1  0
 19 20  1  0
 19 26  2  0
 20 21  2  0
 20 47  1  0
 21 22  1  0
 21 24  1  0
 22 23  3  0
 24 25  2  0
 24 48  1  0
 25 26  1  0
 25 49  1  0
 26 50  1  0
 27 28  1  0
 27 34  2  0
 28 29  1  0
 28 31  2  0
 29 30  2  0
 30 51  1  0
 31 32  1  0
 31 52  1  0
 32 33  2  0
 32 53  1  0
 33 34  1  0
 33 54  1  0
 34 55  1  0
 35 56  1  1
 35 57  1  0
 35 58  1  0
M  END
>  <s_epik_cmdline>  (610) 
J2VwaWtfcHl0aG9uJywgJy1waCcsICc3LjAwMDAwMCcsICctcGh0JywgJzIuMDAwMDAwJywgJy1tcycsICcxNicsICctdG4nLCAnOCcsICctbWEnLCAnMjAwJywgJy1pbWFlJywgJzxpbmZpbGUubWFlPicsICctb21hZScsICc8b3V0ZmlsZS5tYWU+Jw==

>  <s_epik_input>  (610) 
W2NIXTFbY0hdW2NIXVtjSF1jKGMxRilbQ0BIXShbQ0gzXSlbTkhdW0NIMl1DI0NjKFtjSF1uYyhjMjMpW2NIXVtjSF1bY0hdW2NIXTMpYzJbTkhdQyg9TylbQ0gyXWM0W2NIXWMoQyNOKVtjSF1bY0hdW2NIXTQ=

>  <s_i_glide_gridfile>  (610) 
ATP-Grid

>  <s_lp_Force_Field>  (610) 
OPLS_2005

>  <s_lp_Variant>  (610) 
rxn503b____EMOL526127____EMOL13728749____EMOL317509298-2

>  <s_lp_label>  (610) 
2729_sdstereoexpander_2_neutralizer_1_epik_1_stereoizer_1

>  <s_m_source_file>  (610) 
ATP-VSW-LIGPREP-002-in.maegz

>  <s_sd_BIOSOLVEIT.INFINISEE\_QUERY\_NAME>  (610) 
Ref-Lig

>  <s_sd_BIOSOLVEIT.INFINISEE\_QUERY\_SMILES>  (610) 
S(c1nc2c(cc1C[NH2+]Cc3ccc(cc3)C[NH+](C)C)cccc2)Cc4ccccc4

>  <s_sd_BIOSOLVEIT.INFINISEE\_REACTION\_NAME>  (610) 
rxn503b

>  <s_sd_BIOSOLVEIT.INFINISEE\_REAGENT1\_NAME>  (610) 
EMOL526127

>  <s_sd_BIOSOLVEIT.INFINISEE\_REAGENT1\_SMILES>  (610) 
O=C(O)Cc1cc(C#N)ccc1

>  <s_sd_BIOSOLVEIT.INFINISEE\_REAGENT2\_NAME>  (610) 
EMOL13728749

>  <s_sd_BIOSOLVEIT.INFINISEE\_REAGENT2\_SMILES>  (610) 
Brc1c(N)c2c(nc1)cccc2

>  <s_sd_BIOSOLVEIT.INFINISEE\_REAGENT3\_NAME>  (610) 
EMOL317509298

>  <s_sd_BIOSOLVEIT.INFINISEE\_REAGENT3\_SMILES>  (610) 
Fc1c(cccc1)C(NCC#C)C

>  <s_sd_BIOSOLVEIT.INFINISEE\_SPACE>  (610) 
eXplore_7tr_2022-12

>  <s_vsw_compound_code>  (610) 
87298

>  <s_vsw_variant>  (610) 
87298-2

>  <r_epik_Charging_Adjusted_Penalty>  (610) 
0.25088885360206298

>  <r_epik_Ionization_Penalty>  (610) 
0.25109999999999999

>  <r_epik_Ionization_Penalty_Charging>  (610) 
0

>  <r_epik_Ionization_Penalty_Neutral>  (610) 
0.25109999999999999

>  <r_epik_State_Penalty>  (610) 
0.25090000000000001

>  <r_i_docking_score>  (610) 
-4.4334945835539701

>  <r_i_glide_ecoul>  (610) 
-3.3502781391143799

>  <r_i_glide_eff_state_penalty>  (610) 
0.25090000000000001

>  <r_i_glide_einternal>  (610) 
7.7047624588012704

>  <r_i_glide_emodel>  (610) 
-53.225553686737904

>  <r_i_glide_energy>  (610) 
-43.285641908645601

>  <r_i_glide_erotb>  (610) 
0.753341382140991

>  <r_i_glide_esite>  (610) 
-0.063205612534768696

>  <r_i_glide_evdw>  (610) 
-39.9353637695312

>  <r_i_glide_gscore>  (610) 
-4.6843945835539698

>  <r_i_glide_hbond>  (610) 
0

>  <r_i_glide_ligand_efficiency>  (610) 
-0.12667127381582799

>  <r_i_glide_ligand_efficiency_ln>  (610) 
-0.97325045720093695

>  <r_i_glide_ligand_efficiency_sa>  (610) 
-0.41435013575657498

>  <r_i_glide_lipo>  (610) 
-2.2594677384846502

>  <r_i_glide_metal>  (610) 
-0

>  <r_i_glide_rewards>  (610) 
-0.61575270533182702

>  <r_lp_Energy>  (610) 
29.318552

>  <r_qp_ACxDN^.5/SA>  (610) 
0.012290799999999999

>  <r_qp_CIQPlogS>  (610) 
-7.2270000000000003

>  <r_qp_EA(eV)>  (610) 
1.278

>  <r_qp_FISA>  (610) 
119.917

>  <r_qp_FOSA>  (610) 
103.538

>  <r_qp_IP(eV)>  (610) 
9.0050000000000008

>  <r_qp_Jm>  (610) 
0.00042796838461961299

>  <r_qp_PISA>  (610) 
495.79899999999998

>  <r_qp_PSA>  (610) 
82.685000000000002

>  <r_qp_PercentHumanOralAbsorption>  (610) 
94.531000000000006

>  <r_qp_QPPCaco>  (610) 
180.14500000000001

>  <r_qp_QPPMDCK>  (610) 
123.196

>  <r_qp_QPlogBB>  (610) 
-0.71199999999999997

>  <r_qp_QPlogHERG>  (610) 
-7.6079999999999997

>  <r_qp_QPlogKhsa>  (610) 
0.77200000000000002

>  <r_qp_QPlogKp>  (610) 
-3.1819999999999999

>  <r_qp_QPlogPC16>  (610) 
15.967000000000001

>  <r_qp_QPlogPo/w>  (610) 
4.6479999999999997

>  <r_qp_QPlogPoct>  (610) 
23.603999999999999

>  <r_qp_QPlogPw>  (610) 
13.064

>  <r_qp_QPlogS>  (610) 
-5.8520000000000003

>  <r_qp_QPpolrz>  (610) 
49.481999999999999

>  <r_qp_SASA>  (610) 
747.90499999999997

>  <r_qp_SAamideO>  (610) 
0

>  <r_qp_SAfluorine>  (610) 
28.651

>  <r_qp_WPSA>  (610) 
28.651

>  <r_qp_accptHB>  (610) 
6.5

>  <r_qp_dip^2/V>  (610) 
0.021302700000000001

>  <r_qp_dipole>  (610) 
5.4930000000000003

>  <r_qp_donorHB>  (610) 
2

>  <r_qp_glob>  (610) 
0.81549479999999996

>  <r_qp_mol_MW>  (610) 
462.52499999999998

>  <r_qp_volume>  (610) 
1416.296

>  <r_sd_BIOSOLVEIT.INFINISEE\_FTREES\_SIMILARITY>  (610) 
0.90800000000000003

>  <r_sd_BIOSOLVEIT.LOGP>  (610) 
4.1028799999999999

>  <r_sd_BIOSOLVEIT.MOLECULAR\_WEIGHT>  (610) 
463.53399999999999

>  <r_sd_BIOSOLVEIT.TPSA>  (610) 
82.390000000000001

>  <i_epik_Tot_Q>  (610) 
0

>  <i_epik_Tot_abs_Q>  (610) 
0

>  <i_f3d_flags>  (610) 
0

>  <i_i_glide_confnum>  (610) 
5

>  <i_i_glide_lignum>  (610) 
1317

>  <i_i_glide_posenum>  (610) 
14

>  <i_i_glide_rotatable_bonds>  (610) 
9

>  <i_lp_mmshare_version>  (610) 
65135

>  <i_m_ct_format>  (610) 
2

>  <i_m_source_file_index>  (610) 
2729

>  <i_qp_#NandO>  (610) 
5

>  <i_qp_#acid>  (610) 
0

>  <i_qp_#amide>  (610) 
0

>  <i_qp_#amidine>  (610) 
0

>  <i_qp_#amine>  (610) 
1

>  <i_qp_#in34>  (610) 
0

>  <i_qp_#in56>  (610) 
22

>  <i_qp_#metab>  (610) 
6

>  <i_qp_#nonHatm>  (610) 
35

>  <i_qp_#noncon>  (610) 
0

>  <i_qp_#ringatoms>  (610) 
22

>  <i_qp_#rotor>  (610) 
9

>  <i_qp_#rtvFG>  (610) 
0

>  <i_qp_#stars>  (610) 
1

>  <i_qp_CNS>  (610) 
0

>  <i_qp_HumanOralAbsorption>  (610) 
3

>  <i_qp_RuleOfFive>  (610) 
0

>  <i_qp_RuleOfThree>  (610) 
1

>  <i_sd_BIOSOLVEIT.INFINISEE\_RESULT\_RANK>  (610) 
55911

>  <i_sd_version>  (610) 
0

>  <b_lp_Chiralities_Consistent>  (610) 
1

>  <b_sd_chiral_flag>  (610) 
0

>  <canonical_id>  (610) 
ATP-HTVS-5E1B9EFD9407

>  <compound_code>  (610) 
87298

>  <title>  (610) 
rxn503b____EMOL526127____EMOL13728749____EMOL317509298

>  <variant>  (610) 
87298-2

>  <source_file>  (610) 
运行/运行/ATP-VSW/ATP-VSW-DOCK_HTVS_1-002_lib.maegz

>  <canonical_smiles>  (610) 
C[C@H](NCC#Cc1cnc2ccccc2c1NC(=O)Cc1cccc(C#N)c1)c1ccccc1F

>  <scaffold>  (610) 
O=C(Cc1ccccc1)Nc1c(C#CCNCc2ccccc2)cnc2ccccc12

>  <molecular_formula>  (610) 
C29H23FN4O

$$$$
ATP-HTVS-5E389E326DA0
     RDKit          3D

 54 57  0  0  0  0  0  0  0  0999 V2000
  202.5386  181.8782  156.7856 F   0  0  0  0  0  0  0  0  0  0  0  0
  201.7627  180.7665  156.7823 C   0  0  0  0  0  0  0  0  0  0  0  0
  200.7679  180.6003  155.8005 C   0  0  0  0  0  0  0  0  0  0  0  0
  199.9675  179.4322  155.7910 C   0  0  0  0  0  0  0  0  0  0  0  0
  200.1521  178.4474  156.7765 C   0  0  0  0  0  0  0  0  0  0  0  0
  201.1523  178.6098  157.7488 C   0  0  0  0  0  0  0  0  0  0  0  0
  201.9573  179.7652  157.7519 C   0  0  0  0  0  0  0  0  0  0  0  0
  198.8833  179.2276  154.7379 C   0  0  2  0  0  0  0  0  0  0  0  0
  199.4596  179.1319  153.3847 N   0  0  0  0  0  0  0  0  0  0  0  0
  200.2403  177.9072  153.2820 C   0  0  2  0  0  0  0  0  0  0  0  0
  198.4652  179.0905  152.3091 C   0  0  2  0  0  0  0  0  0  0  0  0
  197.9007  180.3812  154.8297 C   0  0  1  0  0  0  0  0  0  0  0  0
  197.3007  180.5883  156.1664 N   0  0  1  0  0  0  0  0  0  0  0  0
  196.2178  181.5910  156.2039 C   0  0  1  0  0  0  0  0  0  0  0  0
  196.7548  183.0305  156.1434 C   0  0  0  0  0  0  0  0  0  0  0  0
  197.1368  183.5758  154.8794 C   0  0  0  0  0  0  0  0  0  0  0  0
  197.6443  184.9048  154.8165 C   0  0  0  0  0  0  0  0  0  0  0  0
  197.7391  185.6839  155.9877 C   0  0  0  0  0  0  0  0  0  0  0  0
  197.3661  185.1473  157.2323 C   0  0  0  0  0  0  0  0  0  0  0  0
  196.8834  183.8107  157.3355 C   0  0  0  0  0  0  0  0  0  0  0  0
  196.5620  183.3216  158.6306 C   0  0  0  0  0  0  0  0  0  0  0  0
  196.6808  184.1445  159.7736 C   0  0  0  0  0  0  0  0  0  0  0  0
  197.1349  185.4676  159.6469 C   0  0  0  0  0  0  0  0  0  0  0  0
  197.4780  185.9669  158.3828 C   0  0  0  0  0  0  0  0  0  0  0  0
  198.0789  185.4525  153.5850 C   0  0  0  0  0  0  0  0  0  0  0  0
  198.0424  184.6788  152.4025 C   0  0  0  0  0  0  0  0  0  0  0  0
  197.5253  183.3681  152.4658 C   0  0  0  0  0  0  0  0  0  0  0  0
  197.0056  182.8430  153.6609 C   0  0  0  0  0  0  0  0  0  0  0  0
  196.9090  179.7060  156.5049 H   0  0  0  0  0  0  0  0  0  0  0  0
  200.6322  181.3807  155.0645 H   0  0  0  0  0  0  0  0  0  0  0  0
  199.5158  177.5731  156.7852 H   0  0  0  0  0  0  0  0  0  0  0  0
  201.2926  177.8384  158.4928 H   0  0  0  0  0  0  0  0  0  0  0  0
  202.7305  179.8732  158.4926 H   0  0  0  0  0  0  0  0  0  0  0  0
  198.3265  178.3090  154.9558 H   0  0  0  0  0  0  0  0  0  0  0  0
  200.6745  177.8024  152.2870 H   0  0  0  0  0  0  0  0  0  0  0  0
  199.6100  177.0376  153.4769 H   0  0  0  0  0  0  0  0  0  0  0  0
  201.0621  177.9034  153.9989 H   0  0  0  0  0  0  0  0  0  0  0  0
  198.9339  178.8844  151.3460 H   0  0  0  0  0  0  0  0  0  0  0  0
  197.9495  180.0428  152.1888 H   0  0  0  0  0  0  0  0  0  0  0  0
  197.7197  178.3178  152.4890 H   0  0  0  0  0  0  0  0  0  0  0  0
  198.4302  181.2880  154.5368 H   0  0  0  0  0  0  0  0  0  0  0  0
  197.0831  180.2096  154.1358 H   0  0  0  0  0  0  0  0  0  0  0  0
  195.5042  181.4102  155.4075 H   0  0  0  0  0  0  0  0  0  0  0  0
  195.6253  181.4172  157.0942 H   0  0  0  0  0  0  0  0  0  0  0  0
  198.1054  186.7027  155.9247 H   0  0  0  0  0  0  0  0  0  0  0  0
  196.2141  182.3156  158.8203 H   0  0  0  0  0  0  0  0  0  0  0  0
  196.4287  183.7558  160.7473 H   0  0  0  0  0  0  0  0  0  0  0  0
  197.2346  186.0978  160.5173 H   0  0  0  0  0  0  0  0  0  0  0  0
  197.8386  186.9782  158.2819 H   0  0  0  0  0  0  0  0  0  0  0  0
  198.4449  186.4823  153.5400 H   0  0  0  0  0  0  0  0  0  0  0  0
  198.3872  185.0880  151.4595 H   0  0  0  0  0  0  0  0  0  0  0  0
  197.5136  182.7558  151.5844 H   0  0  0  0  0  0  0  0  0  0  0  0
  196.5273  181.8915  153.6068 H   0  0  0  0  0  0  0  0  0  0  0  0
  198.0250  180.8676  156.8114 H   0  0  0  0  0  0  0  0  0  0  0  0
  1  2  1  0
  2  3  2  0
  2  7  1  0
  3  4  1  0
  3 30  1  0
  4  5  2  0
  4  8  1  0
  5  6  1  0
  5 31  1  0
  6  7  2  0
  6 32  1  0
  7 33  1  0
  8  9  1  0
  8 12  1  0
  8 34  1  1
  9 10  1  0
  9 11  1  0
 10 35  1  6
 10 36  1  0
 10 37  1  0
 11 38  1  6
 11 39  1  0
 11 40  1  0
 12 13  1  0
 12 41  1  6
 12 42  1  0
 13 14  1  0
 13 29  1  1
 13 54  1  0
 14 15  1  0
 14 43  1  6
 14 44  1  0
 15 16  2  0
 15 20  1  0
 16 17  1  0
 16 28  1  0
 17 18  2  0
 17 25  1  0
 18 19  1  0
 18 45  1  0
 19 20  1  0
 19 24  2  0
 20 21  2  0
 21 22  1  0
 21 46  1  0
 22 23  2  0
 22 47  1  0
 23 24  1  0
 23 48  1  0
 24 49  1  0
 25 26  2  0
 25 50  1  0
 26 27  1  0
 26 51  1  0
 27 28  2  0
 27 52  1  0
 28 53  1  0
M  CHG  1  13   1
M  END
>  <s_epik_cmdline>  (611) 
J2VwaWtfcHl0aG9uJywgJy1waCcsICc3LjAwMDAwMCcsICctcGh0JywgJzIuMDAwMDAwJywgJy1tcycsICcxNicsICctdG4nLCAnOCcsICctbWEnLCAnMjAwJywgJy1pbWFlJywgJzxpbmZpbGUubWFlPicsICctb21hZScsICc8b3V0ZmlsZS5tYWU+Jw==

>  <s_epik_input>  (611) 
RmMxW2NIXWMoW2NIXVtjSF1bY0hdMSlbQ0BIXShOKFtDSDNdKVtDSDNdKVtDSDJdW05IXVtDSDJdYzJjKFtjSF1bY0hdW2NIXVtjSF0zKWMzW2NIXWMoYzI0KVtjSF1bY0hdW2NIXVtjSF00

>  <s_i_glide_gridfile>  (611) 
ATP-Grid

>  <s_lp_Force_Field>  (611) 
OPLS_2005

>  <s_lp_Variant>  (611) 
m_270004bbb____8288526____7547452-2

>  <s_lp_label>  (611) 
1574_sdstereoexpander_2_neutralizer_1_epik_1_stereoizer_1

>  <s_m_source_file>  (611) 
ATP-VSW-LIGPREP-001-in.maegz

>  <s_sd_BIOSOLVEIT.INFINISEE\_QUERY\_NAME>  (611) 
Ref-Lig

>  <s_sd_BIOSOLVEIT.INFINISEE\_QUERY\_SMILES>  (611) 
S(c1nc2c(cc1C[NH2+]Cc3ccc(cc3)C[NH+](C)C)cccc2)Cc4ccccc4

>  <s_sd_BIOSOLVEIT.INFINISEE\_REACTION\_NAME>  (611) 
m_270004bbb

>  <s_sd_BIOSOLVEIT.INFINISEE\_REAGENT1\_SMILES>  (611) 
[R1*]NCC(N(C)C)c1cc(F)ccc1

>  <s_sd_BIOSOLVEIT.INFINISEE\_REAGENT2\_SMILES>  (611) 
[R1*]Cc1c2c(cc3c1cccc3)cccc2

>  <s_sd_BIOSOLVEIT.INFINISEE\_SPACE>  (611) 
REALSpace_44bn_2023-08

>  <s_vsw_compound_code>  (611) 
50337

>  <s_vsw_variant>  (611) 
50337-2

>  <r_epik_Charging_Adjusted_Penalty>  (611) 
0.20519217672628601

>  <r_epik_Ionization_Penalty>  (611) 
0.031

>  <r_epik_Ionization_Penalty_Charging>  (611) 
0.0247

>  <r_epik_Ionization_Penalty_Neutral>  (611) 
0.0063

>  <r_epik_State_Penalty>  (611) 
0.18049999999999999

>  <r_i_docking_score>  (611) 
-4.5030452564794299

>  <r_i_glide_ecoul>  (611) 
-8.9798259735107404

>  <r_i_glide_eff_state_penalty>  (611) 
0.18049999999999999

>  <r_i_glide_einternal>  (611) 
6.0489201545715297

>  <r_i_glide_emodel>  (611) 
-48.415813373052202

>  <r_i_glide_energy>  (611) 
-35.600317001342802

>  <r_i_glide_erotb>  (611) 
0.41562953778874501

>  <r_i_glide_esite>  (611) 
-0.10000000000000001

>  <r_i_glide_evdw>  (611) 
-26.620491027831999

>  <r_i_glide_gscore>  (611) 
-4.6835452564794302

>  <r_i_glide_hbond>  (611) 
-0.15969649002768699

>  <r_i_glide_ligand_efficiency>  (611) 
-0.16082304487426499

>  <r_i_glide_ligand_efficiency_ln>  (611) 
-1.0394350603492899

>  <r_i_glide_ligand_efficiency_sa>  (611) 
-0.48835348394622802

>  <r_i_glide_lipo>  (611) 
-1.0738826500041001

>  <r_i_glide_metal>  (611) 
-0

>  <r_i_glide_rewards>  (611) 
-1.0875972068181801

>  <r_lp_Energy>  (611) 
31.593928999999999

>  <r_qp_ACxDN^.5/SA>  (611) 
0.0053479

>  <r_qp_CIQPlogS>  (611) 
-4.4870000000000001

>  <r_qp_EA(eV)>  (611) 
1.296

>  <r_qp_FISA>  (611) 
6.6559999999999997

>  <r_qp_FOSA>  (611) 
189.072

>  <r_qp_IP(eV)>  (611) 
7.8869999999999996

>  <r_qp_Jm>  (611) 
0.013280138283973

>  <r_qp_PISA>  (611) 
411.95699999999999

>  <r_qp_PSA>  (611) 
15.794

>  <r_qp_PercentHumanOralAbsorption>  (611) 
100

>  <r_qp_QPPCaco>  (611) 
532.81700000000001

>  <r_qp_QPPMDCK>  (611) 
553.13599999999997

>  <r_qp_QPlogBB>  (611) 
1.0509999999999999

>  <r_qp_QPlogHERG>  (611) 
-7.5469999999999997

>  <r_qp_QPlogKhsa>  (611) 
0.98899999999999999

>  <r_qp_QPlogKp>  (611) 
-3.7400000000000002

>  <r_qp_QPlogPC16>  (611) 
12.339

>  <r_qp_QPlogPo/w>  (611) 
4.9870000000000001

>  <r_qp_QPlogPoct>  (611) 
17.297999999999998

>  <r_qp_QPlogPw>  (611) 
7.7469999999999999

>  <r_qp_QPlogS>  (611) 
-3.7080000000000002

>  <r_qp_QPpolrz>  (611) 
42.381

>  <r_qp_SASA>  (611) 
654.46400000000006

>  <r_qp_SAamideO>  (611) 
0

>  <r_qp_SAfluorine>  (611) 
46.780000000000001

>  <r_qp_WPSA>  (611) 
46.780000000000001

>  <r_qp_accptHB>  (611) 
3.5

>  <r_qp_dip^2/V>  (611) 
0.0024145

>  <r_qp_dipole>  (611) 
1.71

>  <r_qp_donorHB>  (611) 
1

>  <r_qp_glob>  (611) 
0.83941120000000002

>  <r_qp_mol_MW>  (611) 
372.48399999999998

>  <r_qp_volume>  (611) 
1210.72

>  <r_sd_BIOSOLVEIT.INFINISEE\_FTREES\_SIMILARITY>  (611) 
0.90600000000000003

>  <r_sd_BIOSOLVEIT.LOGP>  (611) 
3.0813000000000001

>  <r_sd_BIOSOLVEIT.MOLECULAR\_WEIGHT>  (611) 
374.5

>  <r_sd_BIOSOLVEIT.TPSA>  (611) 
21.050000000000001

>  <i_epik_Tot_Q>  (611) 
1

>  <i_epik_Tot_abs_Q>  (611) 
1

>  <i_f3d_flags>  (611) 
0

>  <i_i_glide_confnum>  (611) 
5

>  <i_i_glide_lignum>  (611) 
420

>  <i_i_glide_posenum>  (611) 
12

>  <i_i_glide_rotatable_bonds>  (611) 
6

>  <i_lp_mmshare_version>  (611) 
65135

>  <i_m_ct_format>  (611) 
2

>  <i_m_source_file_index>  (611) 
1574

>  <i_qp_#NandO>  (611) 
2

>  <i_qp_#acid>  (611) 
0

>  <i_qp_#amide>  (611) 
0

>  <i_qp_#amidine>  (611) 
0

>  <i_qp_#amine>  (611) 
2

>  <i_qp_#in34>  (611) 
0

>  <i_qp_#in56>  (611) 
20

>  <i_qp_#metab>  (611) 
6

>  <i_qp_#nonHatm>  (611) 
28

>  <i_qp_#noncon>  (611) 
0

>  <i_qp_#ringatoms>  (611) 
20

>  <i_qp_#rotor>  (611) 
6

>  <i_qp_#rtvFG>  (611) 
0

>  <i_qp_#stars>  (611) 
2

>  <i_qp_CNS>  (611) 
2

>  <i_qp_HumanOralAbsorption>  (611) 
3

>  <i_qp_RuleOfFive>  (611) 
0

>  <i_qp_RuleOfThree>  (611) 
0

>  <i_sd_BIOSOLVEIT.INFINISEE\_REAGENT1\_NAME>  (611) 
8288526

>  <i_sd_BIOSOLVEIT.INFINISEE\_REAGENT2\_NAME>  (611) 
7547452

>  <i_sd_BIOSOLVEIT.INFINISEE\_RESULT\_RANK>  (611) 
64009

>  <i_sd_version>  (611) 
0

>  <b_lp_Chiralities_Consistent>  (611) 
1

>  <b_sd_chiral_flag>  (611) 
0

>  <canonical_id>  (611) 
ATP-HTVS-5E389E326DA0

>  <compound_code>  (611) 
50337

>  <title>  (611) 
m_270004bbb____8288526____7547452

>  <variant>  (611) 
50337-2

>  <source_file>  (611) 
运行/运行/ATP-VSW/ATP-VSW-DOCK_HTVS_1-001_lib/ATP-VSW-DOCK_HTVS_1-001_lib

>  <canonical_smiles>  (611) 
CN(C)[C@H](C[NH2+]Cc1c2ccccc2cc2ccccc12)c1cccc(F)c1

>  <scaffold>  (611) 
c1ccc(CC[NH2+]Cc2c3ccccc3cc3ccccc23)cc1

>  <molecular_formula>  (611) 
C25H26FN2+

$$$$
ATP-HTVS-5E561F95C670
     RDKit          3D

 52 55  0  0  0  0  0  0  0  0999 V2000
  201.7693  178.6702  155.9159 O   0  0  0  0  0  0  0  0  0  0  0  0
  200.7675  178.3337  155.2800 C   0  0  0  0  0  0  0  0  0  0  0  0
  199.5755  178.9440  155.3623 N   0  0  0  0  0  0  0  0  0  0  0  0
  199.2989  180.2499  155.8522 C   0  0  0  0  0  0  0  0  0  0  0  0
  197.9449  180.6003  156.0372 C   0  0  0  0  0  0  0  0  0  0  0  0
  197.5919  181.8903  156.4851 C   0  0  0  0  0  0  0  0  0  0  0  0
  198.5985  182.8462  156.7355 C   0  0  0  0  0  0  0  0  0  0  0  0
  199.9506  182.5137  156.5398 C   0  0  0  0  0  0  0  0  0  0  0  0
  200.2986  181.2262  156.0926 C   0  0  0  0  0  0  0  0  0  0  0  0
  196.1315  182.2424  156.6957 C   0  0  1  0  0  0  0  0  0  0  0  0
  195.6390  181.8373  158.0334 N   0  0  1  0  0  0  0  0  0  0  0  0
  196.3375  182.5110  159.1558 C   0  0  2  0  0  0  0  0  0  0  0  0
  194.1699  181.9673  158.1428 C   0  0  2  0  0  0  0  0  0  0  0  0
  200.8005  177.1521  154.3432 C   0  0  0  0  0  0  0  0  0  0  0  0
  201.4697  175.9263  154.6302 C   0  0  0  0  0  0  0  0  0  0  0  0
  201.4966  174.9267  153.6147 C   0  0  0  0  0  0  0  0  0  0  0  0
  200.9138  175.1035  152.4093 N   0  0  0  0  0  0  0  0  0  0  0  0
  200.2584  176.2491  152.1297 C   0  0  0  0  0  0  0  0  0  0  0  0
  199.6300  176.3460  150.7825 C   0  0  0  0  0  0  0  0  0  0  0  0
  198.7484  177.3633  150.5992 N   0  0  0  0  0  0  0  0  0  0  0  0
  198.1432  177.5016  149.4004 C   0  0  0  0  0  0  0  0  0  0  0  0
  198.3750  176.6388  148.3144 C   0  0  0  0  0  0  0  0  0  0  0  0
  199.2901  175.5885  148.4865 C   0  0  0  0  0  0  0  0  0  0  0  0
  199.9262  175.4411  149.7341 C   0  0  0  0  0  0  0  0  0  0  0  0
  200.2008  177.2966  153.0706 C   0  0  0  0  0  0  0  0  0  0  0  0
  202.1440  173.7001  153.8744 C   0  0  0  0  0  0  0  0  0  0  0  0
  202.7642  173.4480  155.1104 C   0  0  0  0  0  0  0  0  0  0  0  0
  202.7466  174.4353  156.1087 C   0  0  0  0  0  0  0  0  0  0  0  0
  202.0977  175.6611  155.8750 C   0  0  0  0  0  0  0  0  0  0  0  0
  198.8016  178.4557  154.9364 H   0  0  0  0  0  0  0  0  0  0  0  0
  197.1718  179.8682  155.8425 H   0  0  0  0  0  0  0  0  0  0  0  0
  198.3398  183.8327  157.0865 H   0  0  0  0  0  0  0  0  0  0  0  0
  200.7230  183.2426  156.7319 H   0  0  0  0  0  0  0  0  0  0  0  0
  201.3461  181.0277  155.9279 H   0  0  0  0  0  0  0  0  0  0  0  0
  195.9801  183.3082  156.5466 H   0  0  0  0  0  0  0  0  0  0  0  0
  195.5527  181.7267  155.9241 H   0  0  0  0  0  0  0  0  0  0  0  0
  196.2121  183.5914  159.0992 H   0  0  0  0  0  0  0  0  0  0  0  0
  197.4018  182.2856  159.1635 H   0  0  0  0  0  0  0  0  0  0  0  0
  195.9463  182.1806  160.1167 H   0  0  0  0  0  0  0  0  0  0  0  0
  193.8600  183.0081  158.0562 H   0  0  0  0  0  0  0  0  0  0  0  0
  193.8244  181.5825  159.1025 H   0  0  0  0  0  0  0  0  0  0  0  0
  193.6716  181.3891  157.3617 H   0  0  0  0  0  0  0  0  0  0  0  0
  197.4412  178.3170  149.3079 H   0  0  0  0  0  0  0  0  0  0  0  0
  197.8576  176.7747  147.3760 H   0  0  0  0  0  0  0  0  0  0  0  0
  199.4976  174.9014  147.6775 H   0  0  0  0  0  0  0  0  0  0  0  0
  200.6281  174.6353  149.8813 H   0  0  0  0  0  0  0  0  0  0  0  0
  199.7222  178.2211  152.7856 H   0  0  0  0  0  0  0  0  0  0  0  0
  202.1559  172.9287  153.1198 H   0  0  0  0  0  0  0  0  0  0  0  0
  203.2305  172.4874  155.2935 H   0  0  0  0  0  0  0  0  0  0  0  0
  203.2068  174.2504  157.0709 H   0  0  0  0  0  0  0  0  0  0  0  0
  202.1015  176.3799  156.6772 H   0  0  0  0  0  0  0  0  0  0  0  0
  195.8163  180.8318  158.1002 H   0  0  0  0  0  0  0  0  0  0  0  0
  1  2  2  0
  2  3  1  0
  2 14  1  0
  3  4  1  0
  3 30  1  0
  4  5  2  0
  4  9  1  0
  5  6  1  0
  5 31  1  0
  6  7  2  0
  6 10  1  0
  7  8  1  0
  7 32  1  0
  8  9  2  0
  8 33  1  0
  9 34  1  0
 10 11  1  0
 10 35  1  6
 10 36  1  0
 11 12  1  0
 11 13  1  0
 11 52  1  1
 12 37  1  6
 12 38  1  0
 12 39  1  0
 13 40  1  6
 13 41  1  0
 13 42  1  0
 14 15  1  0
 14 25  2  0
 15 16  1  0
 15 29  2  0
 16 17  1  0
 16 26  2  0
 17 18  2  0
 18 19  1  0
 18 25  1  0
 19 20  1  0
 19 24  2  0
 20 21  2  0
 21 22  1  0
 21 43  1  0
 22 23  2  0
 22 44  1  0
 23 24  1  0
 23 45  1  0
 24 46  1  0
 25 47  1  0
 26 27  1  0
 26 48  1  0
 27 28  2  0
 27 49  1  0
 28 29  1  0
 28 50  1  0
 29 51  1  0
M  CHG  1  11   1
M  END
>  <s_epik_cmdline>  (612) 
J2VwaWtfcHl0aG9uJywgJy1waCcsICc3LjAwMDAwMCcsICctcGh0JywgJzIuMDAwMDAwJywgJy1tcycsICcxNicsICctdG4nLCAnOCcsICctbWEnLCAnMjAwJywgJy1pbWFlJywgJzxpbmZpbGUubWFlPicsICctb21hZScsICc8b3V0ZmlsZS5tYWU+Jw==

>  <s_epik_input>  (612) 
W2NIXTFbY0hdW2NIXWMoW0NIMl1OKFtDSDNdKVtDSDNdKVtjSF1jMVtOSF1DKD1PKWMyW2NIXWMobmMoYzIzKVtjSF1bY0hdW2NIXVtjSF0zKS1jNG5bY0hdW2NIXVtjSF1bY0hdNA==

>  <s_i_glide_gridfile>  (612) 
ATP-Grid

>  <s_lp_Force_Field>  (612) 
OPLS_2005

>  <s_lp_Variant>  (612) 
m_22bbb____625056____59141-1

>  <s_lp_label>  (612) 
1398_sdstereoexpander_1_neutralizer_1_epik_1_stereoizer_1

>  <s_m_source_file>  (612) 
ATP-VSW-LIGPREP-001-in.maegz

>  <s_sd_BIOSOLVEIT.INFINISEE\_QUERY\_NAME>  (612) 
Ref-Lig

>  <s_sd_BIOSOLVEIT.INFINISEE\_QUERY\_SMILES>  (612) 
S(c1nc2c(cc1C[NH2+]Cc3ccc(cc3)C[NH+](C)C)cccc2)Cc4ccccc4

>  <s_sd_BIOSOLVEIT.INFINISEE\_REACTION\_NAME>  (612) 
m_22bbb

>  <s_sd_BIOSOLVEIT.INFINISEE\_REAGENT1\_SMILES>  (612) 
[R1*]Nc1cc(ccc1)CN(C)C

>  <s_sd_BIOSOLVEIT.INFINISEE\_REAGENT2\_SMILES>  (612) 
[R1*]C(=O)c1c2c(nc(c3ncccc3)c1)cccc2

>  <s_sd_BIOSOLVEIT.INFINISEE\_SPACE>  (612) 
REALSpace_44bn_2023-08

>  <s_vsw_compound_code>  (612) 
44705

>  <s_vsw_variant>  (612) 
44705-1

>  <r_epik_Charging_Adjusted_Penalty>  (612) 
0.099390134255996201

>  <r_epik_Ionization_Penalty>  (612) 
0.050200000000000002

>  <r_epik_Ionization_Penalty_Charging>  (612) 
0.049700000000000001

>  <r_epik_Ionization_Penalty_Neutral>  (612) 
0.00050000000000000001

>  <r_epik_State_Penalty>  (612) 
0.049700000000000001

>  <r_i_docking_score>  (612) 
-5.1407762571129396

>  <r_i_glide_ecoul>  (612) 
-9.1532993316650408

>  <r_i_glide_eff_state_penalty>  (612) 
0.049700000000000001

>  <r_i_glide_einternal>  (612) 
2.9063696861267099

>  <r_i_glide_emodel>  (612) 
-61.273916434864901

>  <r_i_glide_energy>  (612) 
-42.275373458862298

>  <r_i_glide_erotb>  (612) 
0.66076047944921401

>  <r_i_glide_esite>  (612) 
-0.14135923498592601

>  <r_i_glide_evdw>  (612) 
-33.122074127197301

>  <r_i_glide_gscore>  (612) 
-5.1904762571129401

>  <r_i_glide_hbond>  (612) 
-0.20000000000000001

>  <r_i_glide_ligand_efficiency>  (612) 
-0.17726814679699801

>  <r_i_glide_ligand_efficiency_ln>  (612) 
-1.17710740404065

>  <r_i_glide_ligand_efficiency_sa>  (612) 
-0.54462390945126204

>  <r_i_glide_lipo>  (612) 
-1.46122630455752

>  <r_i_glide_metal>  (612) 
-0

>  <r_i_glide_rewards>  (612) 
-1.0195525909090899

>  <r_lp_Energy>  (612) 
33.553465000000003

>  <r_qp_ACxDN^.5/SA>  (612) 
0.0089443000000000005

>  <r_qp_CIQPlogS>  (612) 
-4.6619999999999999

>  <r_qp_EA(eV)>  (612) 
1.319

>  <r_qp_FISA>  (612) 
57.804000000000002

>  <r_qp_FOSA>  (612) 
180.08099999999999

>  <r_qp_IP(eV)>  (612) 
8.8439999999999994

>  <r_qp_Jm>  (612) 
0.012391563117196899

>  <r_qp_PISA>  (612) 
488.834

>  <r_qp_PSA>  (612) 
58.517000000000003

>  <r_qp_PercentHumanOralAbsorption>  (612) 
100

>  <r_qp_QPPCaco>  (612) 
699.26300000000003

>  <r_qp_QPPMDCK>  (612) 
371.79599999999999

>  <r_qp_QPlogBB>  (612) 
0.034000000000000002

>  <r_qp_QPlogHERG>  (612) 
-8.0790000000000006

>  <r_qp_QPlogKhsa>  (612) 
0.58499999999999996

>  <r_qp_QPlogKp>  (612) 
-2.4449999999999998

>  <r_qp_QPlogPC16>  (612) 
14.275

>  <r_qp_QPlogPo/w>  (612) 
4.0800000000000001

>  <r_qp_QPlogPoct>  (612) 
20.635000000000002

>  <r_qp_QPlogPw>  (612) 
11.949999999999999

>  <r_qp_QPlogS>  (612) 
-5.0439999999999996

>  <r_qp_QPpolrz>  (612) 
46.509999999999998

>  <r_qp_SASA>  (612) 
726.71900000000005

>  <r_qp_SAamideO>  (612) 
0

>  <r_qp_SAfluorine>  (612) 
0

>  <r_qp_WPSA>  (612) 
0

>  <r_qp_accptHB>  (612) 
6.5

>  <r_qp_dip^2/V>  (612) 
0.024435399999999999

>  <r_qp_dipole>  (612) 
5.5919999999999996

>  <r_qp_donorHB>  (612) 
1

>  <r_qp_glob>  (612) 
0.78432650000000004

>  <r_qp_mol_MW>  (612) 
382.464

>  <r_qp_volume>  (612) 
1279.521

>  <r_sd_BIOSOLVEIT.INFINISEE\_FTREES\_SIMILARITY>  (612) 
0.90800000000000003

>  <r_sd_BIOSOLVEIT.LOGP>  (612) 
3.1936

>  <r_sd_BIOSOLVEIT.MOLECULAR\_WEIGHT>  (612) 
383.47300000000001

>  <r_sd_BIOSOLVEIT.TPSA>  (612) 
59.32

>  <i_epik_Tot_Q>  (612) 
1

>  <i_epik_Tot_abs_Q>  (612) 
1

>  <i_f3d_flags>  (612) 
0

>  <i_i_glide_confnum>  (612) 
1

>  <i_i_glide_lignum>  (612) 
367

>  <i_i_glide_posenum>  (612) 
16

>  <i_i_glide_rotatable_bonds>  (612) 
6

>  <i_lp_mmshare_version>  (612) 
65135

>  <i_m_ct_format>  (612) 
2

>  <i_m_source_file_index>  (612) 
1398

>  <i_qp_#NandO>  (612) 
5

>  <i_qp_#acid>  (612) 
0

>  <i_qp_#amide>  (612) 
0

>  <i_qp_#amidine>  (612) 
0

>  <i_qp_#amine>  (612) 
1

>  <i_qp_#in34>  (612) 
0

>  <i_qp_#in56>  (612) 
22

>  <i_qp_#metab>  (612) 
4

>  <i_qp_#nonHatm>  (612) 
29

>  <i_qp_#noncon>  (612) 
0

>  <i_qp_#ringatoms>  (612) 
22

>  <i_qp_#rotor>  (612) 
5

>  <i_qp_#rtvFG>  (612) 
0

>  <i_qp_#stars>  (612) 
1

>  <i_qp_CNS>  (612) 
1

>  <i_qp_HumanOralAbsorption>  (612) 
3

>  <i_qp_RuleOfFive>  (612) 
0

>  <i_qp_RuleOfThree>  (612) 
0

>  <i_sd_BIOSOLVEIT.INFINISEE\_REAGENT1\_NAME>  (612) 
625056

>  <i_sd_BIOSOLVEIT.INFINISEE\_REAGENT2\_NAME>  (612) 
59141

>  <i_sd_BIOSOLVEIT.INFINISEE\_RESULT\_RANK>  (612) 
52484

>  <i_sd_version>  (612) 
0

>  <b_lp_Chiralities_Consistent>  (612) 
1

>  <b_sd_chiral_flag>  (612) 
0

>  <canonical_id>  (612) 
ATP-HTVS-5E561F95C670

>  <compound_code>  (612) 
44705

>  <title>  (612) 
m_22bbb____625056____59141

>  <variant>  (612) 
44705-1

>  <source_file>  (612) 
运行/运行/ATP-VSW/ATP-VSW-DOCK_HTVS_1-001_lib/ATP-VSW-DOCK_HTVS_1-001_lib

>  <canonical_smiles>  (612) 
C[NH+](C)Cc1cccc(NC(=O)c2cc(-c3ccccn3)nc3ccccc23)c1

>  <scaffold>  (612) 
O=C(Nc1ccccc1)c1cc(-c2ccccn2)nc2ccccc12

>  <molecular_formula>  (612) 
C24H23N4O+

$$$$
ATP-HTVS-5E6DF5CA027C
     RDKit          3D

 60 62  0  0  0  0  0  0  0  0999 V2000
  198.7068  183.5655  157.6618 O   0  0  0  0  0  0  0  0  0  0  0  0
  197.5267  183.6367  158.3744 C   0  0  0  0  0  0  0  0  0  0  0  0
  196.4173  182.8624  157.9429 C   0  0  0  0  0  0  0  0  0  0  0  0
  195.1903  182.9737  158.6322 C   0  0  0  0  0  0  0  0  0  0  0  0
  195.1084  183.8708  159.7133 C   0  0  0  0  0  0  0  0  0  0  0  0
  196.1507  184.6112  160.1369 N   0  0  0  0  0  0  0  0  0  0  0  0
  197.3312  184.4838  159.4908 C   0  0  0  0  0  0  0  0  0  0  0  0
  196.5190  181.9535  156.7296 C   0  0  1  0  0  0  0  0  0  0  0  0
  197.5435  180.9011  156.9153 N   0  0  1  0  0  0  0  0  0  0  0  0
  198.4615  180.7216  155.7714 C   0  0  1  0  0  0  0  0  0  0  0  0
  199.2625  179.4419  155.8994 C   0  0  0  0  0  0  0  0  0  0  0  0
  200.1982  179.2808  156.9379 C   0  0  0  0  0  0  0  0  0  0  0  0
  200.9577  178.1026  157.0412 C   0  0  0  0  0  0  0  0  0  0  0  0
  200.7866  177.0546  156.1200 C   0  0  0  0  0  0  0  0  0  0  0  0
  201.5942  175.9512  156.2909 O   0  0  0  0  0  0  0  0  0  0  0  0
  201.4859  174.8952  155.3495 C   0  0  1  0  0  0  0  0  0  0  0  0
  202.7329  174.0021  155.4092 C   0  0  1  0  0  0  0  0  0  0  0  0
  202.8132  173.0369  154.2708 N   0  0  2  0  0  0  0  0  0  0  0  0
  203.3778  173.6283  153.0399 C   0  0  2  0  0  0  0  0  0  0  0  0
  201.5414  172.3132  154.0109 C   0  0  2  0  0  0  0  0  0  0  0  0
  199.8198  177.2055  155.0907 C   0  0  0  0  0  0  0  0  0  0  0  0
  199.0759  178.3965  154.9762 C   0  0  0  0  0  0  0  0  0  0  0  0
  199.8639  184.2893  158.0928 C   0  0  1  0  0  0  0  0  0  0  0  0
  200.8290  183.4158  158.8771 C   0  0  0  0  0  0  0  0  0  0  0  0
  201.1385  183.7094  160.2191 C   0  0  0  0  0  0  0  0  0  0  0  0
  202.0506  182.9084  160.9319 C   0  0  0  0  0  0  0  0  0  0  0  0
  202.6599  181.8023  160.3096 C   0  0  0  0  0  0  0  0  0  0  0  0
  202.3568  181.5039  158.9648 C   0  0  0  0  0  0  0  0  0  0  0  0
  201.4509  182.3164  158.2490 C   0  0  0  0  0  0  0  0  0  0  0  0
  198.0870  181.1405  157.7312 H   0  0  0  0  0  0  0  0  0  0  0  0
  194.3160  182.4167  158.3211 H   0  0  0  0  0  0  0  0  0  0  0  0
  194.1833  183.9975  160.2586 H   0  0  0  0  0  0  0  0  0  0  0  0
  198.1287  185.1040  159.8664 H   0  0  0  0  0  0  0  0  0  0  0  0
  195.5652  181.4539  156.5403 H   0  0  0  0  0  0  0  0  0  0  0  0
  196.7104  182.5676  155.8405 H   0  0  0  0  0  0  0  0  0  0  0  0
  197.8956  180.7068  154.8432 H   0  0  0  0  0  0  0  0  0  0  0  0
  199.1462  181.5712  155.7172 H   0  0  0  0  0  0  0  0  0  0  0  0
  200.3297  180.0541  157.6757 H   0  0  0  0  0  0  0  0  0  0  0  0
  201.6851  178.0021  157.8339 H   0  0  0  0  0  0  0  0  0  0  0  0
  200.5785  174.3347  155.5840 H   0  0  0  0  0  0  0  0  0  0  0  0
  201.4041  175.2805  154.3374 H   0  0  0  0  0  0  0  0  0  0  0  0
  203.6297  174.6288  155.4080 H   0  0  0  0  0  0  0  0  0  0  0  0
  202.7487  173.4622  156.3514 H   0  0  0  0  0  0  0  0  0  0  0  0
  202.7521  174.4339  152.6591 H   0  0  0  0  0  0  0  0  0  0  0  0
  203.4596  172.8666  152.2624 H   0  0  0  0  0  0  0  0  0  0  0  0
  204.3749  174.0237  153.2269 H   0  0  0  0  0  0  0  0  0  0  0  0
  200.7459  172.9748  153.6658 H   0  0  0  0  0  0  0  0  0  0  0  0
  201.2080  171.8152  154.9228 H   0  0  0  0  0  0  0  0  0  0  0  0
  201.6571  171.5459  153.2342 H   0  0  0  0  0  0  0  0  0  0  0  0
  199.6132  176.4335  154.3674 H   0  0  0  0  0  0  0  0  0  0  0  0
  198.3504  178.4919  154.1819 H   0  0  0  0  0  0  0  0  0  0  0  0
  200.3788  184.6184  157.1927 H   0  0  0  0  0  0  0  0  0  0  0  0
  199.6069  185.2006  158.6647 H   0  0  0  0  0  0  0  0  0  0  0  0
  200.6849  184.5568  160.7071 H   0  0  0  0  0  0  0  0  0  0  0  0
  202.2802  183.1441  161.9640 H   0  0  0  0  0  0  0  0  0  0  0  0
  203.3530  181.1812  160.8674 H   0  0  0  0  0  0  0  0  0  0  0  0
  202.8254  180.6500  158.4896 H   0  0  0  0  0  0  0  0  0  0  0  0
  201.2388  182.0883  157.2194 H   0  0  0  0  0  0  0  0  0  0  0  0
  203.4586  172.3101  154.5375 H   0  0  0  0  0  0  0  0  0  0  0  0
  197.0323  180.0487  157.1230 H   0  0  0  0  0  0  0  0  0  0  0  0
  1  2  1  0
  1 23  1  0
  2  3  1  0
  2  7  2  0
  3  4  2  0
  3  8  1  0
  4  5  1  0
  4 31  1  0
  5  6  2  0
  5 32  1  0
  6  7  1  0
  7 33  1  0
  8  9  1  0
  8 34  1  6
  8 35  1  0
  9 10  1  0
  9 30  1  1
  9 60  1  0
 10 11  1  0
 10 36  1  6
 10 37  1  0
 11 12  1  0
 11 22  2  0
 12 13  2  0
 12 38  1  0
 13 14  1  0
 13 39  1  0
 14 15  1  0
 14 21  2  0
 15 16  1  0
 16 17  1  0
 16 40  1  1
 16 41  1  0
 17 18  1  0
 17 42  1  1
 17 43  1  0
 18 19  1  0
 18 20  1  0
 18 59  1  1
 19 44  1  6
 19 45  1  0
 19 46  1  0
 20 47  1  6
 20 48  1  0
 20 49  1  0
 21 22  1  0
 21 50  1  0
 22 51  1  0
 23 24  1  0
 23 52  1  6
 23 53  1  0
 24 25  2  0
 24 29  1  0
 25 26  1  0
 25 54  1  0
 26 27  2  0
 26 55  1  0
 27 28  1  0
 27 56  1  0
 28 29  2  0
 28 57  1  0
 29 58  1  0
M  CHG  2   9   1  18   1
M  END
>  <s_epik_cmdline>  (613) 
J2VwaWtfcHl0aG9uJywgJy1waCcsICc3LjAwMDAwMCcsICctcGh0JywgJzIuMDAwMDAwJywgJy1tcycsICcxNicsICctdG4nLCAnOCcsICctbWEnLCAnMjAwJywgJy1pbWFlJywgJzxpbmZpbGUubWFlPicsICctb21hZScsICc8b3V0ZmlsZS5tYWU+Jw==

>  <s_epik_input>  (613) 
W2NIXTFbY0hdW2NIXVtjSF1bY0hdYzFbQ0gyXU9jMmMoW2NIXVtjSF1uW2NIXTIpW0NIMl1bTkhdW0NIMl1jM1tjSF1bY0hdYyhbY0hdW2NIXTMpT1tDSDJdW0NIMl1OKFtDSDNdKVtDSDNd

>  <s_i_glide_gridfile>  (613) 
ATP-Grid

>  <s_lp_Force_Field>  (613) 
OPLS_2005

>  <s_lp_Variant>  (613) 
m_270004bbb____10120114____7548352-1

>  <s_lp_label>  (613) 
1278_sdstereoexpander_1_neutralizer_1_epik_1_stereoizer_1

>  <s_m_source_file>  (613) 
ATP-VSW-LIGPREP-002-in.maegz

>  <s_sd_BIOSOLVEIT.INFINISEE\_QUERY\_NAME>  (613) 
Ref-Lig

>  <s_sd_BIOSOLVEIT.INFINISEE\_QUERY\_SMILES>  (613) 
S(c1nc2c(cc1C[NH2+]Cc3ccc(cc3)C[NH+](C)C)cccc2)Cc4ccccc4

>  <s_sd_BIOSOLVEIT.INFINISEE\_REACTION\_NAME>  (613) 
m_270004bbb

>  <s_sd_BIOSOLVEIT.INFINISEE\_REAGENT1\_SMILES>  (613) 
[R1*]NCc1c(OCc2ccccc2)cncc1

>  <s_sd_BIOSOLVEIT.INFINISEE\_REAGENT2\_SMILES>  (613) 
[R1*]Cc1ccc(OCCN(C)C)cc1

>  <s_sd_BIOSOLVEIT.INFINISEE\_SPACE>  (613) 
REALSpace_44bn_2023-08

>  <s_vsw_compound_code>  (613) 
40866

>  <s_vsw_variant>  (613) 
40866-1

>  <r_epik_Charging_Adjusted_Penalty>  (613) 
0.36320416248287302

>  <r_epik_Ionization_Penalty>  (613) 
0.17860000000000001

>  <r_epik_Ionization_Penalty_Charging>  (613) 
0.17849999999999999

>  <r_epik_Ionization_Penalty_Neutral>  (613) 
0.00020000000000000001

>  <r_epik_State_Penalty>  (613) 
0.1847

>  <r_i_docking_score>  (613) 
-5.5695299402983496

>  <r_i_glide_ecoul>  (613) 
-12.676794052124

>  <r_i_glide_eff_state_penalty>  (613) 
0.1847

>  <r_i_glide_einternal>  (613) 
8.5915079116821307

>  <r_i_glide_emodel>  (613) 
-71.584083119268399

>  <r_i_glide_energy>  (613) 
-48.004354476928697

>  <r_i_glide_erotb>  (613) 
1.26151049445103

>  <r_i_glide_esite>  (613) 
-0.19326505693255

>  <r_i_glide_evdw>  (613) 
-35.327560424804702

>  <r_i_glide_gscore>  (613) 
-5.7542299402983499

>  <r_i_glide_hbond>  (613) 
-0.26657094141381099

>  <r_i_glide_ligand_efficiency>  (613) 
-0.19205275656201201

>  <r_i_glide_ligand_efficiency_ln>  (613) 
-1.27528112523479

>  <r_i_glide_ligand_efficiency_sa>  (613) 
-0.59004691474253002

>  <r_i_glide_lipo>  (613) 
-1.71201985279872

>  <r_i_glide_metal>  (613) 
-0

>  <r_i_glide_rewards>  (613) 
-1.1759874545454501

>  <r_lp_Energy>  (613) 
25.144200999999999

>  <r_lp_tautomer_probability>  (613) 
1

>  <r_qp_ACxDN^.5/SA>  (613) 
0.0085664999999999995

>  <r_qp_CIQPlogS>  (613) 
-3.556

>  <r_qp_EA(eV)>  (613) 
0.152

>  <r_qp_FISA>  (613) 
43.344999999999999

>  <r_qp_FOSA>  (613) 
307.67599999999999

>  <r_qp_IP(eV)>  (613) 
8.9459999999999997

>  <r_qp_Jm>  (613) 
0.0167604107400613

>  <r_qp_PISA>  (613) 
407.74900000000002

>  <r_qp_PSA>  (613) 
44.963000000000001

>  <r_qp_PercentHumanOralAbsorption>  (613) 
94.858000000000004

>  <r_qp_QPPCaco>  (613) 
239.143

>  <r_qp_QPPMDCK>  (613) 
128.977

>  <r_qp_QPlogBB>  (613) 
0.23400000000000001

>  <r_qp_QPlogHERG>  (613) 
-8.3350000000000009

>  <r_qp_QPlogKhsa>  (613) 
0.60099999999999998

>  <r_qp_QPlogKp>  (613) 
-3.9510000000000001

>  <r_qp_QPlogPC16>  (613) 
14.519

>  <r_qp_QPlogPo/w>  (613) 
4.3280000000000003

>  <r_qp_QPlogPoct>  (613) 
19.858000000000001

>  <r_qp_QPlogPw>  (613) 
10.054

>  <r_qp_QPlogS>  (613) 
-3.4169999999999998

>  <r_qp_QPpolrz>  (613) 
45.850999999999999

>  <r_qp_SASA>  (613) 
758.76999999999998

>  <r_qp_SAamideO>  (613) 
0

>  <r_qp_SAfluorine>  (613) 
0

>  <r_qp_WPSA>  (613) 
0

>  <r_qp_accptHB>  (613) 
6.5

>  <r_qp_dip^2/V>  (613) 
0.0101203

>  <r_qp_dipole>  (613) 
3.7349999999999999

>  <r_qp_donorHB>  (613) 
1

>  <r_qp_glob>  (613) 
0.78951210000000005

>  <r_qp_mol_MW>  (613) 
391.512

>  <r_qp_volume>  (613) 
1378.6559999999999

>  <r_sd_BIOSOLVEIT.INFINISEE\_FTREES\_SIMILARITY>  (613) 
0.91000000000000003

>  <r_sd_BIOSOLVEIT.LOGP>  (613) 
1.4475

>  <r_sd_BIOSOLVEIT.MOLECULAR\_WEIGHT>  (613) 
393.52800000000002

>  <r_sd_BIOSOLVEIT.TPSA>  (613) 
52.399999999999999

>  <i_epik_Tot_Q>  (613) 
2

>  <i_epik_Tot_abs_Q>  (613) 
2

>  <i_f3d_flags>  (613) 
0

>  <i_i_glide_confnum>  (613) 
9

>  <i_i_glide_lignum>  (613) 
449

>  <i_i_glide_posenum>  (613) 
7

>  <i_i_glide_rotatable_bonds>  (613) 
11

>  <i_lp_mmshare_version>  (613) 
65135

>  <i_m_ct_format>  (613) 
2

>  <i_m_source_file_index>  (613) 
1278

>  <i_qp_#NandO>  (613) 
5

>  <i_qp_#acid>  (613) 
0

>  <i_qp_#amide>  (613) 
0

>  <i_qp_#amidine>  (613) 
0

>  <i_qp_#amine>  (613) 
2

>  <i_qp_#in34>  (613) 
0

>  <i_qp_#in56>  (613) 
18

>  <i_qp_#metab>  (613) 
9

>  <i_qp_#nonHatm>  (613) 
29

>  <i_qp_#noncon>  (613) 
0

>  <i_qp_#ringatoms>  (613) 
18

>  <i_qp_#rotor>  (613) 
11

>  <i_qp_#rtvFG>  (613) 
0

>  <i_qp_#stars>  (613) 
1

>  <i_qp_CNS>  (613) 
1

>  <i_qp_HumanOralAbsorption>  (613) 
3

>  <i_qp_RuleOfFive>  (613) 
0

>  <i_qp_RuleOfThree>  (613) 
1

>  <i_sd_BIOSOLVEIT.INFINISEE\_REAGENT1\_NAME>  (613) 
10120114

>  <i_sd_BIOSOLVEIT.INFINISEE\_REAGENT2\_NAME>  (613) 
7548352

>  <i_sd_BIOSOLVEIT.INFINISEE\_RESULT\_RANK>  (613) 
45339

>  <i_sd_version>  (613) 
0

>  <b_lp_Chiralities_Consistent>  (613) 
1

>  <b_sd_chiral_flag>  (613) 
0

>  <canonical_id>  (613) 
ATP-HTVS-5E6DF5CA027C

>  <compound_code>  (613) 
40866

>  <title>  (613) 
m_270004bbb____10120114____7548352

>  <variant>  (613) 
40866-1

>  <source_file>  (613) 
运行/运行/ATP-VSW/ATP-VSW-DOCK_HTVS_1-002_lib.maegz

>  <canonical_smiles>  (613) 
C[NH+](C)CCOc1ccc(C[NH2+]Cc2ccncc2OCc2ccccc2)cc1

>  <scaffold>  (613) 
c1ccc(C[NH2+]Cc2ccncc2OCc2ccccc2)cc1

>  <molecular_formula>  (613) 
C24H31N3O2+2

$$$$
ATP-HTVS-5EB936FA5BDD
     RDKit          3D

 59 63  0  0  0  0  0  0  0  0999 V2000
  200.2729  177.3437  155.1065 N   0  0  0  0  0  0  0  0  0  0  0  0
  199.6510  178.4939  154.8746 C   0  0  0  0  0  0  0  0  0  0  0  0
  199.3976  179.0263  153.6856 N   0  0  0  0  0  0  0  0  0  0  0  0
  199.8200  178.3659  152.5961 C   0  0  0  0  0  0  0  0  0  0  0  0
  200.5327  177.1426  152.7193 C   0  0  0  0  0  0  0  0  0  0  0  0
  200.7396  176.6606  154.0397 C   0  0  0  0  0  0  0  0  0  0  0  0
  201.4521  175.4192  154.3908 C   0  0  0  0  0  0  0  0  0  0  0  0
  201.1487  174.2010  153.7446 C   0  0  0  0  0  0  0  0  0  0  0  0
  201.8297  173.0215  154.0731 C   0  0  0  0  0  0  0  0  0  0  0  0
  202.8186  173.0360  155.0702 C   0  0  0  0  0  0  0  0  0  0  0  0
  203.1234  174.2337  155.7402 C   0  0  0  0  0  0  0  0  0  0  0  0
  202.4457  175.4194  155.3997 C   0  0  0  0  0  0  0  0  0  0  0  0
  201.0008  176.4840  151.5586 C   0  0  0  0  0  0  0  0  0  0  0  0
  200.7274  177.0139  150.2853 C   0  0  0  0  0  0  0  0  0  0  0  0
  200.0090  178.2157  150.1567 C   0  0  0  0  0  0  0  0  0  0  0  0
  199.5659  178.8869  151.3090 C   0  0  0  0  0  0  0  0  0  0  0  0
  199.2902  179.2248  155.9759 N   0  0  0  0  0  0  0  0  0  0  0  0
  198.8635  180.6199  155.9138 C   0  0  1  0  0  0  0  0  0  0  0  0
  199.5768  181.5427  156.9095 C   0  0  0  0  0  0  0  0  0  0  0  0
  198.9410  182.6352  157.5548 C   0  0  0  0  0  0  0  0  0  0  0  0
  197.5632  182.9037  157.3996 N   0  0  0  0  0  0  0  0  0  0  0  0
  196.5937  181.8217  157.4161 C   0  0  1  0  0  0  0  0  0  0  0  0
  195.4621  182.0755  158.4035 C   0  0  1  0  0  0  0  0  0  0  0  0
  194.8757  183.4141  158.1814 N   0  0  2  0  0  0  0  0  0  0  0  0
  195.8958  184.4855  158.2835 C   0  0  1  0  0  0  0  0  0  0  0  0
  197.0457  184.2618  157.2766 C   0  0  1  0  0  0  0  0  0  0  0  0
  193.7550  183.6439  159.0912 C   0  0  2  0  0  0  0  0  0  0  0  0
  199.7037  183.4696  158.4035 C   0  0  0  0  0  0  0  0  0  0  0  0
  201.0796  183.2382  158.6105 C   0  0  0  0  0  0  0  0  0  0  0  0
  201.7102  182.1625  157.9705 C   0  0  0  0  0  0  0  0  0  0  0  0
  200.9604  181.3241  157.1261 C   0  0  0  0  0  0  0  0  0  0  0  0
  200.3807  174.1687  152.9801 H   0  0  0  0  0  0  0  0  0  0  0  0
  201.5956  172.0957  153.5704 H   0  0  0  0  0  0  0  0  0  0  0  0
  203.3237  172.1226  155.3319 H   0  0  0  0  0  0  0  0  0  0  0  0
  203.8665  174.2312  156.5242 H   0  0  0  0  0  0  0  0  0  0  0  0
  202.6935  176.3347  155.9212 H   0  0  0  0  0  0  0  0  0  0  0  0
  201.5732  175.5736  151.6171 H   0  0  0  0  0  0  0  0  0  0  0  0
  201.0784  176.4956  149.4055 H   0  0  0  0  0  0  0  0  0  0  0  0
  199.8102  178.6251  149.1769 H   0  0  0  0  0  0  0  0  0  0  0  0
  199.0237  179.8157  151.2186 H   0  0  0  0  0  0  0  0  0  0  0  0
  199.0979  178.6955  156.8143 H   0  0  0  0  0  0  0  0  0  0  0  0
  199.0711  181.0594  154.9291 H   0  0  0  0  0  0  0  0  0  0  0  0
  197.7935  180.5542  156.0281 H   0  0  0  0  0  0  0  0  0  0  0  0
  196.1613  181.7095  156.4200 H   0  0  0  0  0  0  0  0  0  0  0  0
  197.0925  180.8804  157.6675 H   0  0  0  0  0  0  0  0  0  0  0  0
  194.6985  181.2978  158.2978 H   0  0  0  0  0  0  0  0  0  0  0  0
  195.8514  182.0016  159.4217 H   0  0  0  0  0  0  0  0  0  0  0  0
  195.4451  185.4748  158.1533 H   0  0  0  0  0  0  0  0  0  0  0  0
  196.3122  184.4780  159.2925 H   0  0  0  0  0  0  0  0  0  0  0  0
  197.8253  185.0195  157.4034 H   0  0  0  0  0  0  0  0  0  0  0  0
  196.6796  184.3895  156.2568 H   0  0  0  0  0  0  0  0  0  0  0  0
  194.0970  183.5684  160.1242 H   0  0  0  0  0  0  0  0  0  0  0  0
  192.9678  182.9102  158.9191 H   0  0  0  0  0  0  0  0  0  0  0  0
  193.3121  184.6323  158.9581 H   0  0  0  0  0  0  0  0  0  0  0  0
  199.2471  184.2975  158.9220 H   0  0  0  0  0  0  0  0  0  0  0  0
  201.6467  183.8895  159.2646 H   0  0  0  0  0  0  0  0  0  0  0  0
  202.7668  181.9917  158.1184 H   0  0  0  0  0  0  0  0  0  0  0  0
  201.4784  180.5172  156.6287 H   0  0  0  0  0  0  0  0  0  0  0  0
  194.5043  183.3976  157.2297 H   0  0  0  0  0  0  0  0  0  0  0  0
  1  2  2  0
  1  6  1  0
  2  3  1  0
  2 17  1  0
  3  4  2  0
  4  5  1  0
  4 16  1  0
  5  6  2  0
  5 13  1  0
  6  7  1  0
  7  8  2  0
  7 12  1  0
  8  9  1  0
  8 32  1  0
  9 10  2  0
  9 33  1  0
 10 11  1  0
 10 34  1  0
 11 12  2  0
 11 35  1  0
 12 36  1  0
 13 14  2  0
 13 37  1  0
 14 15  1  0
 14 38  1  0
 15 16  2  0
 15 39  1  0
 16 40  1  0
 17 18  1  0
 17 41  1  0
 18 19  1  0
 18 42  1  6
 18 43  1  0
 19 20  1  0
 19 31  2  0
 20 21  1  0
 20 28  2  0
 21 22  1  0
 21 26  1  0
 22 23  1  0
 22 44  1  6
 22 45  1  0
 23 24  1  0
 23 46  1  1
 23 47  1  0
 24 25  1  0
 24 27  1  0
 24 59  1  6
 25 26  1  0
 25 48  1  6
 25 49  1  0
 26 50  1  1
 26 51  1  0
 27 52  1  1
 27 53  1  0
 27 54  1  0
 28 29  1  0
 28 55  1  0
 29 30  2  0
 29 56  1  0
 30 31  1  0
 30 57  1  0
 31 58  1  0
M  CHG  1  24   1
M  END
>  <s_epik_cmdline>  (614) 
J2VwaWtfcHl0aG9uJywgJy1waCcsICc3LjAwMDAwMCcsICctcGh0JywgJzIuMDAwMDAwJywgJy1tcycsICcxNicsICctdG4nLCAnOCcsICctbWEnLCAnMjAwJywgJy1pbWFlJywgJzxpbmZpbGUubWFlPicsICctb21hZScsICc8b3V0ZmlsZS5tYWU+Jw==

>  <s_epik_input>  (614) 
W2NIXTFbY0hdW2NIXVtjSF1bY0hdYzEtYyhjKGMyMylbY0hdW2NIXVtjSF1bY0hdMyluYyhuMilbTkhdW0NIMl1jNGMoW2NIXVtjSF1bY0hdW2NIXTQpTjVbQ0gyXVtDSDJdTihbQ0gzXSlbQ0gyXVtDSDJdNQ==

>  <s_i_glide_gridfile>  (614) 
ATP-Grid

>  <s_lp_Force_Field>  (614) 
OPLS_2005

>  <s_lp_Variant>  (614) 
rxn102c____EMOL1296417____EMOL725234-1

>  <s_lp_label>  (614) 
2776_sdstereoexpander_1_neutralizer_1_epik_1_stereoizer_1

>  <s_m_source_file>  (614) 
ATP-VSW-LIGPREP-003-in.maegz

>  <s_sd_BIOSOLVEIT.INFINISEE\_QUERY\_NAME>  (614) 
Ref-Lig

>  <s_sd_BIOSOLVEIT.INFINISEE\_QUERY\_SMILES>  (614) 
S(c1nc2c(cc1C[NH2+]Cc3ccc(cc3)C[NH+](C)C)cccc2)Cc4ccccc4

>  <s_sd_BIOSOLVEIT.INFINISEE\_REACTION\_NAME>  (614) 
rxn102c

>  <s_sd_BIOSOLVEIT.INFINISEE\_REAGENT1\_NAME>  (614) 
EMOL1296417

>  <s_sd_BIOSOLVEIT.INFINISEE\_REAGENT1\_SMILES>  (614) 
Clc1nc(c2c(n1)cccc2)c3ccccc3

>  <s_sd_BIOSOLVEIT.INFINISEE\_REAGENT2\_NAME>  (614) 
EMOL725234

>  <s_sd_BIOSOLVEIT.INFINISEE\_REAGENT2\_SMILES>  (614) 
N1(c2c(cccc2)CN)CCN(CC1)C

>  <s_sd_BIOSOLVEIT.INFINISEE\_SPACE>  (614) 
eXplore_7tr_2022-12

>  <s_vsw_compound_code>  (614) 
88803

>  <s_vsw_variant>  (614) 
88803-1

>  <r_epik_Charging_Adjusted_Penalty>  (614) 
0.12949746992303099

>  <r_epik_Ionization_Penalty>  (614) 
0.070599999999999996

>  <r_epik_Ionization_Penalty_Charging>  (614) 
0.064699999999999994

>  <r_epik_Ionization_Penalty_Neutral>  (614) 
0.0058999999999999999

>  <r_epik_State_Penalty>  (614) 
0.064699999999999994

>  <r_i_docking_score>  (614) 
-4.0604511425990699

>  <r_i_glide_ecoul>  (614) 
-8.2419776916503906

>  <r_i_glide_eff_state_penalty>  (614) 
0.064699999999999994

>  <r_i_glide_einternal>  (614) 
4.3617572784423801

>  <r_i_glide_emodel>  (614) 
-50.415942677672099

>  <r_i_glide_energy>  (614) 
-38.394002914428697

>  <r_i_glide_erotb>  (614) 
0.58447003409745701

>  <r_i_glide_esite>  (614) 
-0.17094539322597199

>  <r_i_glide_evdw>  (614) 
-30.152025222778299

>  <r_i_glide_gscore>  (614) 
-4.1251511425990701

>  <r_i_glide_hbond>  (614) 
-0.24197396027183399

>  <r_i_glide_ligand_efficiency>  (614) 
-0.13098229492255101

>  <r_i_glide_ligand_efficiency_ln>  (614) 
-0.91575617053918701

>  <r_i_glide_ligand_efficiency_sa>  (614) 
-0.41146524660453498

>  <r_i_glide_lipo>  (614) 
-0.94280859013043194

>  <r_i_glide_metal>  (614) 
-0

>  <r_i_glide_rewards>  (614) 
-0.60999531818181696

>  <r_lp_Energy>  (614) 
39.528191999999997

>  <r_qp_ACxDN^.5/SA>  (614) 
0.0079764999999999992

>  <r_qp_CIQPlogS>  (614) 
-5.7130000000000001

>  <r_qp_EA(eV)>  (614) 
1.0109999999999999

>  <r_qp_FISA>  (614) 
41.359999999999999

>  <r_qp_FOSA>  (614) 
226.07599999999999

>  <r_qp_IP(eV)>  (614) 
8.2889999999999997

>  <r_qp_Jm>  (614) 
0.0162140124010712

>  <r_qp_PISA>  (614) 
422.09100000000001

>  <r_qp_PSA>  (614) 
37.305

>  <r_qp_PercentHumanOralAbsorption>  (614) 
100

>  <r_qp_QPPCaco>  (614) 
1001.338

>  <r_qp_QPPMDCK>  (614) 
548.09699999999998

>  <r_qp_QPlogBB>  (614) 
0.33100000000000002

>  <r_qp_QPlogHERG>  (614) 
-6.843

>  <r_qp_QPlogKhsa>  (614) 
0.94999999999999996

>  <r_qp_QPlogKp>  (614) 
-2.4729999999999999

>  <r_qp_QPlogPC16>  (614) 
13.882

>  <r_qp_QPlogPo/w>  (614) 
4.9180000000000001

>  <r_qp_QPlogPoct>  (614) 
20.349

>  <r_qp_QPlogPw>  (614) 
10.531000000000001

>  <r_qp_QPlogS>  (614) 
-4.9290000000000003

>  <r_qp_QPpolrz>  (614) 
47.859000000000002

>  <r_qp_SASA>  (614) 
689.52700000000004

>  <r_qp_SAamideO>  (614) 
0

>  <r_qp_SAfluorine>  (614) 
0

>  <r_qp_WPSA>  (614) 
0

>  <r_qp_accptHB>  (614) 
5.5

>  <r_qp_dip^2/V>  (614) 
0.0011488

>  <r_qp_dipole>  (614) 
1.228

>  <r_qp_donorHB>  (614) 
1

>  <r_qp_glob>  (614) 
0.84102920000000003

>  <r_qp_mol_MW>  (614) 
409.53300000000002

>  <r_qp_volume>  (614) 
1313.095

>  <r_sd_BIOSOLVEIT.INFINISEE\_FTREES\_SIMILARITY>  (614) 
0.90700000000000003

>  <r_sd_BIOSOLVEIT.LOGP>  (614) 
3.2435999999999998

>  <r_sd_BIOSOLVEIT.MOLECULAR\_WEIGHT>  (614) 
410.54199999999997

>  <r_sd_BIOSOLVEIT.TPSA>  (614) 
45.490000000000002

>  <i_epik_Tot_Q>  (614) 
1

>  <i_epik_Tot_abs_Q>  (614) 
1

>  <i_f3d_flags>  (614) 
0

>  <i_i_glide_confnum>  (614) 
5

>  <i_i_glide_lignum>  (614) 
1324

>  <i_i_glide_posenum>  (614) 
12

>  <i_i_glide_rotatable_bonds>  (614) 
5

>  <i_lp_mmshare_version>  (614) 
65135

>  <i_m_ct_format>  (614) 
2

>  <i_m_source_file_index>  (614) 
2776

>  <i_qp_#NandO>  (614) 
5

>  <i_qp_#acid>  (614) 
0

>  <i_qp_#amide>  (614) 
0

>  <i_qp_#amidine>  (614) 
0

>  <i_qp_#amine>  (614) 
1

>  <i_qp_#in34>  (614) 
0

>  <i_qp_#in56>  (614) 
28

>  <i_qp_#metab>  (614) 
2

>  <i_qp_#nonHatm>  (614) 
31

>  <i_qp_#noncon>  (614) 
4

>  <i_qp_#ringatoms>  (614) 
28

>  <i_qp_#rotor>  (614) 
4

>  <i_qp_#rtvFG>  (614) 
0

>  <i_qp_#stars>  (614) 
0

>  <i_qp_CNS>  (614) 
1

>  <i_qp_HumanOralAbsorption>  (614) 
3

>  <i_qp_RuleOfFive>  (614) 
0

>  <i_qp_RuleOfThree>  (614) 
0

>  <i_sd_BIOSOLVEIT.INFINISEE\_RESULT\_RANK>  (614) 
61147

>  <i_sd_version>  (614) 
0

>  <b_lp_Chiralities_Consistent>  (614) 
1

>  <b_sd_chiral_flag>  (614) 
0

>  <canonical_id>  (614) 
ATP-HTVS-5EB936FA5BDD

>  <compound_code>  (614) 
88803

>  <title>  (614) 
rxn102c____EMOL1296417____EMOL725234

>  <variant>  (614) 
88803-1

>  <source_file>  (614) 
运行/运行/ATP-VSW/ATP-VSW-DOCK_HTVS_1-003_lib/ATP-VSW-DOCK_HTVS_1-003_lib.mae

>  <canonical_smiles>  (614) 
C[NH+]1CCN(c2ccccc2CNc2nc(-c3ccccc3)c3ccccc3n2)CC1

>  <scaffold>  (614) 
c1ccc(-c2nc(NCc3ccccc3N3CC[NH2+]CC3)nc3ccccc23)cc1

>  <molecular_formula>  (614) 
C26H28N5+

$$$$
ATP-HTVS-5EF6359E179A
     RDKit          3D

 56 59  0  0  0  0  0  0  0  0999 V2000
  197.6992  181.2198  156.4248 O   0  0  0  0  0  0  0  0  0  0  0  0
  197.3074  182.3064  155.9968 C   0  0  0  0  0  0  0  0  0  0  0  0
  196.9703  182.5702  154.7237 N   0  0  0  0  0  0  0  0  0  0  0  0
  197.0143  181.7089  153.5972 C   0  0  0  0  0  0  0  0  0  0  0  0
  196.9622  180.3687  153.7303 N   0  0  0  0  0  0  0  0  0  0  0  0
  196.9978  179.5916  152.6341 C   0  0  0  0  0  0  0  0  0  0  0  0
  197.1124  180.0789  151.3234 C   0  0  0  0  0  0  0  0  0  0  0  0
  197.1769  179.1827  150.2340 N   0  0  0  0  0  0  0  0  0  0  0  0
  196.2149  179.2862  149.2972 C   0  0  0  0  0  0  0  0  0  0  0  0
  195.3568  179.3871  148.5299 N   0  0  0  0  0  0  0  0  0  0  0  0
  198.1491  178.1520  150.1523 C   0  0  0  0  0  0  0  0  0  0  0  0
  198.0658  177.1655  149.1320 C   0  0  0  0  0  0  0  0  0  0  0  0
  199.0260  176.1390  149.0360 C   0  0  0  0  0  0  0  0  0  0  0  0
  200.0800  176.0672  149.9619 C   0  0  0  0  0  0  0  0  0  0  0  0
  200.1786  177.0307  150.9807 C   0  0  0  0  0  0  0  0  0  0  0  0
  199.2313  178.0696  151.0641 C   0  0  0  0  0  0  0  0  0  0  0  0
  197.1429  181.4863  151.1576 C   0  0  0  0  0  0  0  0  0  0  0  0
  197.0898  182.3180  152.3121 C   0  0  0  0  0  0  0  0  0  0  0  0
  197.1379  183.7258  152.1459 C   0  0  0  0  0  0  0  0  0  0  0  0
  197.2101  184.2962  150.8631 C   0  0  0  0  0  0  0  0  0  0  0  0
  197.2569  183.4761  149.7271 C   0  0  0  0  0  0  0  0  0  0  0  0
  197.2473  182.0801  149.8810 C   0  0  0  0  0  0  0  0  0  0  0  0
  197.2238  183.5036  156.8988 C   0  0  0  0  0  0  0  0  0  0  0  0
  196.4552  183.5160  158.1045 C   0  0  0  0  0  0  0  0  0  0  0  0
  196.4549  184.6870  158.8982 C   0  0  0  0  0  0  0  0  0  0  0  0
  197.1936  185.8242  158.5257 C   0  0  0  0  0  0  0  0  0  0  0  0
  197.9681  185.7998  157.3578 C   0  0  0  0  0  0  0  0  0  0  0  0
  197.9782  184.6457  156.5502 C   0  0  0  0  0  0  0  0  0  0  0  0
  195.6112  182.3302  158.5816 C   0  0  1  0  0  0  0  0  0  0  0  0
  194.1937  182.3786  158.1365 N   0  0  1  0  0  0  0  0  0  0  0  0
  193.4669  181.1402  158.4737 C   0  0  2  0  0  0  0  0  0  0  0  0
  193.4608  183.5841  158.5663 C   0  0  2  0  0  0  0  0  0  0  0  0
  196.6844  183.5128  154.5223 H   0  0  0  0  0  0  0  0  0  0  0  0
  196.9808  178.5364  152.8284 H   0  0  0  0  0  0  0  0  0  0  0  0
  197.2696  177.1764  148.4004 H   0  0  0  0  0  0  0  0  0  0  0  0
  198.9523  175.4066  148.2442 H   0  0  0  0  0  0  0  0  0  0  0  0
  200.8196  175.2830  149.8920 H   0  0  0  0  0  0  0  0  0  0  0  0
  200.9821  176.9916  151.7061 H   0  0  0  0  0  0  0  0  0  0  0  0
  199.3798  178.7911  151.8521 H   0  0  0  0  0  0  0  0  0  0  0  0
  197.1151  184.3985  152.9898 H   0  0  0  0  0  0  0  0  0  0  0  0
  197.2421  185.3684  150.7462 H   0  0  0  0  0  0  0  0  0  0  0  0
  197.3116  183.9075  148.7365 H   0  0  0  0  0  0  0  0  0  0  0  0
  197.3293  181.4850  148.9892 H   0  0  0  0  0  0  0  0  0  0  0  0
  195.8595  184.7323  159.7960 H   0  0  0  0  0  0  0  0  0  0  0  0
  197.1694  186.7157  159.1426 H   0  0  0  0  0  0  0  0  0  0  0  0
  198.5776  186.6518  157.0926 H   0  0  0  0  0  0  0  0  0  0  0  0
  198.6091  184.6368  155.6734 H   0  0  0  0  0  0  0  0  0  0  0  0
  196.0438  181.3784  158.2706 H   0  0  0  0  0  0  0  0  0  0  0  0
  195.6534  182.3023  159.6695 H   0  0  0  0  0  0  0  0  0  0  0  0
  193.4591  181.0114  159.5517 H   0  0  0  0  0  0  0  0  0  0  0  0
  193.9465  180.2593  158.0533 H   0  0  0  0  0  0  0  0  0  0  0  0
  192.4418  181.1607  158.1073 H   0  0  0  0  0  0  0  0  0  0  0  0
  193.4704  183.7128  159.6507 H   0  0  0  0  0  0  0  0  0  0  0  0
  192.4232  183.5166  158.2310 H   0  0  0  0  0  0  0  0  0  0  0  0
  193.8884  184.4819  158.1249 H   0  0  0  0  0  0  0  0  0  0  0  0
  194.1620  182.4326  157.1069 H   0  0  0  0  0  0  0  0  0  0  0  0
  1  2  2  0
  2  3  1  0
  2 23  1  0
  3  4  1  0
  3 33  1  0
  4  5  1  0
  4 18  2  0
  5  6  2  0
  6  7  1  0
  6 34  1  0
  7  8  1  0
  7 17  2  0
  8  9  1  0
  8 11  1  0
  9 10  3  0
 11 12  2  0
 11 16  1  0
 12 13  1  0
 12 35  1  0
 13 14  2  0
 13 36  1  0
 14 15  1  0
 14 37  1  0
 15 16  2  0
 15 38  1  0
 16 39  1  0
 17 18  1  0
 17 22  1  0
 18 19  1  0
 19 20  2  0
 19 40  1  0
 20 21  1  0
 20 41  1  0
 21 22  2  0
 21 42  1  0
 22 43  1  0
 23 24  1  0
 23 28  2  0
 24 25  2  0
 24 29  1  0
 25 26  1  0
 25 44  1  0
 26 27  2  0
 26 45  1  0
 27 28  1  0
 27 46  1  0
 28 47  1  0
 29 30  1  0
 29 48  1  6
 29 49  1  0
 30 31  1  0
 30 32  1  0
 30 56  1  6
 31 50  1  1
 31 51  1  0
 31 52  1  0
 32 53  1  1
 32 54  1  0
 32 55  1  0
M  CHG  1  30   1
M  END
>  <s_epik_cmdline>  (615) 
J2VwaWtfcHl0aG9uJywgJy1waCcsICc3LjAwMDAwMCcsICctcGh0JywgJzIuMDAwMDAwJywgJy1tcycsICcxNicsICctdG4nLCAnOCcsICctbWEnLCAnMjAwJywgJy1pbWFlJywgJzxpbmZpbGUubWFlPicsICctb21hZScsICc8b3V0ZmlsZS5tYWU+Jw==

>  <s_epik_input>  (615) 
W2NIXTFbY0hdW2NIXVtjSF1jKFtDSDJdTihbQ0gzXSlbQ0gzXSljMUMoPU8pW05IXWMoYyhjMjMpW2NIXVtjSF1bY0hdW2NIXTMpbltjSF1jMk4oQyNOKWM0W2NIXVtjSF1bY0hdW2NIXVtjSF00

>  <s_i_glide_gridfile>  (615) 
ATP-Grid

>  <s_lp_Force_Field>  (615) 
OPLS_2005

>  <s_lp_Variant>  (615) 
rxn502b____EMOL5415347____EMOL7515103____EMOL36822768-1

>  <s_lp_label>  (615) 
2230_sdstereoexpander_1_neutralizer_1_epik_1_stereoizer_1

>  <s_m_source_file>  (615) 
ATP-VSW-LIGPREP-001-in.maegz

>  <s_sd_BIOSOLVEIT.INFINISEE\_QUERY\_NAME>  (615) 
Ref-Lig

>  <s_sd_BIOSOLVEIT.INFINISEE\_QUERY\_SMILES>  (615) 
S(c1nc2c(cc1C[NH2+]Cc3ccc(cc3)C[NH+](C)C)cccc2)Cc4ccccc4

>  <s_sd_BIOSOLVEIT.INFINISEE\_REACTION\_NAME>  (615) 
rxn502b

>  <s_sd_BIOSOLVEIT.INFINISEE\_REAGENT1\_NAME>  (615) 
EMOL5415347

>  <s_sd_BIOSOLVEIT.INFINISEE\_REAGENT1\_SMILES>  (615) 
O=C(O)c1c(cccc1)CN(C)C

>  <s_sd_BIOSOLVEIT.INFINISEE\_REAGENT2\_NAME>  (615) 
EMOL7515103

>  <s_sd_BIOSOLVEIT.INFINISEE\_REAGENT2\_SMILES>  (615) 
Brc1c2c(c(nc1)N)cccc2

>  <s_sd_BIOSOLVEIT.INFINISEE\_REAGENT3\_NAME>  (615) 
EMOL36822768

>  <s_sd_BIOSOLVEIT.INFINISEE\_REAGENT3\_SMILES>  (615) 
N#CNc1ccccc1

>  <s_sd_BIOSOLVEIT.INFINISEE\_SPACE>  (615) 
eXplore_7tr_2022-12

>  <s_vsw_compound_code>  (615) 
71329

>  <s_vsw_variant>  (615) 
71329-1

>  <r_epik_Charging_Adjusted_Penalty>  (615) 
0.120106230221407

>  <r_epik_Ionization_Penalty>  (615) 
0.060199999999999997

>  <r_epik_Ionization_Penalty_Charging>  (615) 
0.060100000000000001

>  <r_epik_Ionization_Penalty_Neutral>  (615) 
0.0001

>  <r_epik_State_Penalty>  (615) 
0.060100000000000001

>  <r_i_docking_score>  (615) 
-4.6739244073482498

>  <r_i_glide_ecoul>  (615) 
-7.4288201332092303

>  <r_i_glide_eff_state_penalty>  (615) 
0.060100000000000001

>  <r_i_glide_einternal>  (615) 
2.2572178840637198

>  <r_i_glide_emodel>  (615) 
-57.804253734280302

>  <r_i_glide_energy>  (615) 
-41.558786869049101

>  <r_i_glide_erotb>  (615) 
0.66588807981442899

>  <r_i_glide_esite>  (615) 
-0.17485374995203001

>  <r_i_glide_evdw>  (615) 
-34.129966735839801

>  <r_i_glide_gscore>  (615) 
-4.73402440734825

>  <r_i_glide_hbond>  (615) 
-0.20000000000000001

>  <r_i_glide_ligand_efficiency>  (615) 
-0.146060137729633

>  <r_i_glide_ligand_efficiency_ln>  (615) 
-1.0466190811727101

>  <r_i_glide_ligand_efficiency_sa>  (615) 
-0.463712032029578

>  <r_i_glide_lipo>  (615) 
-1.4200004811509199

>  <r_i_glide_metal>  (615) 
-0

>  <r_i_glide_rewards>  (615) 
-0.78423689928635498

>  <r_lp_Energy>  (615) 
37.739922999999997

>  <r_qp_ACxDN^.5/SA>  (615) 
0.010518899999999999

>  <r_qp_CIQPlogS>  (615) 
-5.0469999999999997

>  <r_qp_EA(eV)>  (615) 
1.3580000000000001

>  <r_qp_FISA>  (615) 
108.444

>  <r_qp_FOSA>  (615) 
132.44900000000001

>  <r_qp_IP(eV)>  (615) 
8.4280000000000008

>  <r_qp_Jm>  (615) 
0.019357645189988601

>  <r_qp_PISA>  (615) 
472.11000000000001

>  <r_qp_PSA>  (615) 
70.564999999999998

>  <r_qp_PercentHumanOralAbsorption>  (615) 
91.489000000000004

>  <r_qp_QPPCaco>  (615) 
231.43199999999999

>  <r_qp_QPPMDCK>  (615) 
112.524

>  <r_qp_QPlogBB>  (615) 
-0.52900000000000003

>  <r_qp_QPlogHERG>  (615) 
-7.3819999999999997

>  <r_qp_QPlogKhsa>  (615) 
0.46200000000000002

>  <r_qp_QPlogKp>  (615) 
-3.246

>  <r_qp_QPlogPC16>  (615) 
14.930999999999999

>  <r_qp_QPlogPo/w>  (615) 
3.7959999999999998

>  <r_qp_QPlogPoct>  (615) 
22.27

>  <r_qp_QPlogPw>  (615) 
12.692

>  <r_qp_QPlogS>  (615) 
-4.0919999999999996

>  <r_qp_QPpolrz>  (615) 
47.296999999999997

>  <r_qp_SASA>  (615) 
713.00400000000002

>  <r_qp_SAamideO>  (615) 
0

>  <r_qp_SAfluorine>  (615) 
0

>  <r_qp_WPSA>  (615) 
0

>  <r_qp_accptHB>  (615) 
7.5

>  <r_qp_dip^2/V>  (615) 
0.059056900000000002

>  <r_qp_dipole>  (615) 
8.8800000000000008

>  <r_qp_donorHB>  (615) 
1

>  <r_qp_glob>  (615) 
0.82245979999999996

>  <r_qp_mol_MW>  (615) 
421.50099999999998

>  <r_qp_volume>  (615) 
1335.249

>  <r_sd_BIOSOLVEIT.INFINISEE\_FTREES\_SIMILARITY>  (615) 
0.92800000000000005

>  <r_sd_BIOSOLVEIT.LOGP>  (615) 
3.7507799999999998

>  <r_sd_BIOSOLVEIT.MOLECULAR\_WEIGHT>  (615) 
422.50999999999999

>  <r_sd_BIOSOLVEIT.TPSA>  (615) 
73.459999999999994

>  <i_epik_Tot_Q>  (615) 
1

>  <i_epik_Tot_abs_Q>  (615) 
1

>  <i_f3d_flags>  (615) 
0

>  <i_i_glide_confnum>  (615) 
6

>  <i_i_glide_lignum>  (615) 
756

>  <i_i_glide_posenum>  (615) 
10

>  <i_i_glide_rotatable_bonds>  (615) 
7

>  <i_lp_mmshare_version>  (615) 
65135

>  <i_m_ct_format>  (615) 
2

>  <i_m_source_file_index>  (615) 
2230

>  <i_qp_#NandO>  (615) 
6

>  <i_qp_#acid>  (615) 
0

>  <i_qp_#amide>  (615) 
0

>  <i_qp_#amidine>  (615) 
0

>  <i_qp_#amine>  (615) 
1

>  <i_qp_#in34>  (615) 
0

>  <i_qp_#in56>  (615) 
22

>  <i_qp_#metab>  (615) 
4

>  <i_qp_#nonHatm>  (615) 
32

>  <i_qp_#noncon>  (615) 
0

>  <i_qp_#ringatoms>  (615) 
22

>  <i_qp_#rotor>  (615) 
7

>  <i_qp_#rtvFG>  (615) 
0

>  <i_qp_#stars>  (615) 
1

>  <i_qp_CNS>  (615) 
1

>  <i_qp_HumanOralAbsorption>  (615) 
3

>  <i_qp_RuleOfFive>  (615) 
0

>  <i_qp_RuleOfThree>  (615) 
0

>  <i_sd_BIOSOLVEIT.INFINISEE\_RESULT\_RANK>  (615) 
5970

>  <i_sd_version>  (615) 
0

>  <b_lp_Chiralities_Consistent>  (615) 
1

>  <b_sd_chiral_flag>  (615) 
0

>  <canonical_id>  (615) 
ATP-HTVS-5EF6359E179A

>  <compound_code>  (615) 
71329

>  <title>  (615) 
rxn502b____EMOL5415347____EMOL7515103____EMOL36822768

>  <variant>  (615) 
71329-1

>  <source_file>  (615) 
运行/运行/ATP-VSW/ATP-VSW-DOCK_HTVS_1-001_lib/ATP-VSW-DOCK_HTVS_1-001_lib

>  <canonical_smiles>  (615) 
C[NH+](C)Cc1ccccc1C(=O)Nc1ncc(N(C#N)c2ccccc2)c2ccccc12

>  <scaffold>  (615) 
O=C(Nc1ncc(Nc2ccccc2)c2ccccc12)c1ccccc1

>  <molecular_formula>  (615) 
C26H24N5O+

$$$$
ATP-HTVS-5F569EDABC80
     RDKit          3D

 59 62  0  0  0  0  0  0  0  0999 V2000
  196.9199  180.0267  149.8493 Cl  0  0  0  0  0  0  0  0  0  0  0  0
  197.3760  179.9566  151.5097 C   0  0  0  0  0  0  0  0  0  0  0  0
  198.7312  179.9573  151.8740 C   0  0  0  0  0  0  0  0  0  0  0  0
  199.0900  179.8757  153.2299 C   0  0  0  0  0  0  0  0  0  0  0  0
  198.1136  179.7743  154.2563 C   0  0  0  0  0  0  0  0  0  0  0  0
  196.7542  179.8161  153.8629 C   0  0  0  0  0  0  0  0  0  0  0  0
  196.3863  179.8961  152.5065 C   0  0  0  0  0  0  0  0  0  0  0  0
  198.4966  179.6988  155.7130 C   0  0  1  0  0  0  0  0  0  0  0  0
  199.7574  178.9162  155.9463 N   0  0  1  0  0  0  0  0  0  0  0  0
  200.3056  178.9823  157.3296 C   0  0  2  0  0  0  0  0  0  0  0  0
  199.6376  177.5071  155.5000 C   0  0  2  0  0  0  0  0  0  0  0  0
  198.6024  181.1940  156.0895 C   0  0  0  0  0  0  0  0  0  0  0  0
  199.1439  181.9970  155.3322 O   0  0  0  0  0  0  0  0  0  0  0  0
  198.0524  181.5595  157.2585 N   0  0  0  0  0  0  0  0  0  0  0  0
  197.9877  182.8813  157.7934 C   0  0  0  0  0  0  0  0  0  0  0  0
  199.0992  183.7814  157.8523 C   0  0  0  0  0  0  0  0  0  0  0  0
  200.4246  183.4665  157.4458 N   0  0  0  0  0  0  0  0  0  0  0  0
  201.1141  184.0316  156.3483 C   0  0  0  0  0  0  0  0  0  0  0  0
  202.4793  183.7353  156.0977 C   0  0  0  0  0  0  0  0  0  0  0  0
  203.1478  184.3010  155.0002 C   0  0  0  0  0  0  0  0  0  0  0  0
  202.4692  185.1778  154.1357 C   0  0  0  0  0  0  0  0  0  0  0  0
  201.1047  185.4545  154.3519 C   0  0  0  0  0  0  0  0  0  0  0  0
  200.4289  184.8769  155.4403 C   0  0  0  0  0  0  0  0  0  0  0  0
  201.0171  182.3092  158.1254 C   0  0  1  0  0  0  0  0  0  0  0  0
  201.4408  182.5878  159.5074 C   0  0  0  0  0  0  0  0  0  0  0  0
  201.7620  182.7960  160.5975 N   0  0  0  0  0  0  0  0  0  0  0  0
  198.8732  185.0593  158.3987 C   0  0  0  0  0  0  0  0  0  0  0  0
  197.6867  185.4795  158.8793 N   0  0  0  0  0  0  0  0  0  0  0  0
  196.6434  184.6290  158.8647 C   0  0  0  0  0  0  0  0  0  0  0  0
  196.7427  183.3095  158.3443 C   0  0  0  0  0  0  0  0  0  0  0  0
  195.6019  182.4659  158.3579 C   0  0  0  0  0  0  0  0  0  0  0  0
  194.3762  182.9240  158.8692 C   0  0  0  0  0  0  0  0  0  0  0  0
  194.2794  184.2298  159.3779 C   0  0  0  0  0  0  0  0  0  0  0  0
  195.4019  185.0682  159.3745 C   0  0  0  0  0  0  0  0  0  0  0  0
  199.5016  180.0176  151.1193 H   0  0  0  0  0  0  0  0  0  0  0  0
  200.1402  179.9097  153.4794 H   0  0  0  0  0  0  0  0  0  0  0  0
  195.9890  179.8084  154.6271 H   0  0  0  0  0  0  0  0  0  0  0  0
  195.3458  179.9034  152.2298 H   0  0  0  0  0  0  0  0  0  0  0  0
  197.6827  179.2546  156.2921 H   0  0  0  0  0  0  0  0  0  0  0  0
  199.5966  178.5744  158.0585 H   0  0  0  0  0  0  0  0  0  0  0  0
  200.5699  179.9649  157.5532 H   0  0  0  0  0  0  0  0  0  0  0  0
  201.2054  178.3588  157.4191 H   0  0  0  0  0  0  0  0  0  0  0  0
  198.8347  177.0257  156.0639 H   0  0  0  0  0  0  0  0  0  0  0  0
  200.5700  176.9787  155.7184 H   0  0  0  0  0  0  0  0  0  0  0  0
  199.4439  177.4146  154.4277 H   0  0  0  0  0  0  0  0  0  0  0  0
  197.5743  180.8409  157.7900 H   0  0  0  0  0  0  0  0  0  0  0  0
  203.0543  183.0781  156.7343 H   0  0  0  0  0  0  0  0  0  0  0  0
  204.1940  184.0735  154.8456 H   0  0  0  0  0  0  0  0  0  0  0  0
  202.9977  185.6364  153.3158 H   0  0  0  0  0  0  0  0  0  0  0  0
  200.5760  186.1212  153.6850 H   0  0  0  0  0  0  0  0  0  0  0  0
  199.3729  185.0809  155.5693 H   0  0  0  0  0  0  0  0  0  0  0  0
  200.2476  181.6201  158.2576 H   0  0  0  0  0  0  0  0  0  0  0  0
  201.7968  181.7816  157.5573 H   0  0  0  0  0  0  0  0  0  0  0  0
  199.6898  185.7644  158.4530 H   0  0  0  0  0  0  0  0  0  0  0  0
  195.6248  181.4577  157.9628 H   0  0  0  0  0  0  0  0  0  0  0  0
  193.5096  182.2818  158.8542 H   0  0  0  0  0  0  0  0  0  0  0  0
  193.3331  184.5943  159.7557 H   0  0  0  0  0  0  0  0  0  0  0  0
  195.3172  186.0772  159.7523 H   0  0  0  0  0  0  0  0  0  0  0  0
  200.4564  179.3535  155.3653 H   0  0  0  0  0  0  0  0  0  0  0  0
  1  2  1  0
  2  3  1  0
  2  7  2  0
  3  4  2  0
  3 35  1  0
  4  5  1  0
  4 36  1  0
  5  6  2  0
  5  8  1  0
  6  7  1  0
  6 37  1  0
  7 38  1  0
  8  9  1  0
  8 12  1  0
  8 39  1  1
  9 10  1  0
  9 11  1  0
  9 59  1  6
 10 40  1  1
 10 41  1  0
 10 42  1  0
 11 43  1  1
 11 44  1  0
 11 45  1  0
 12 13  2  0
 12 14  1  0
 14 15  1  0
 14 46  1  0
 15 16  2  0
 15 30  1  0
 16 17  1  0
 16 27  1  0
 17 18  1  0
 17 24  1  0
 18 19  2  0
 18 23  1  0
 19 20  1  0
 19 47  1  0
 20 21  2  0
 20 48  1  0
 21 22  1  0
 21 49  1  0
 22 23  2  0
 22 50  1  0
 23 51  1  0
 24 25  1  0
 24 52  1  1
 24 53  1  0
 25 26  3  0
 27 28  2  0
 27 54  1  0
 28 29  1  0
 29 30  1  0
 29 34  2  0
 30 31  2  0
 31 32  1  0
 31 55  1  0
 32 33  2  0
 32 56  1  0
 33 34  1  0
 33 57  1  0
 34 58  1  0
M  CHG  1   9   1
M  END
>  <s_epik_cmdline>  (616) 
J2VwaWtfcHl0aG9uJywgJy1waCcsICc3LjAwMDAwMCcsICctcGh0JywgJzIuMDAwMDAwJywgJy1tcycsICcxNicsICctdG4nLCAnOCcsICctbWEnLCAnMjAwJywgJy1pbWFlJywgJzxpbmZpbGUubWFlPicsICctb21hZScsICc8b3V0ZmlsZS5tYWU+Jw==

>  <s_epik_input>  (616) 
Q2xjMVtjSF1bY0hdYyhbY0hdW2NIXTEpW0NAQEhdKE4oW0NIM10pW0NIM10pQyg9TylbTkhdYyhjKGMyMylbY0hdW2NIXVtjSF1bY0hdMyljKFtjSF1uMilOKFtDSDJdQyNOKWM0W2NIXVtjSF1bY0hdW2NIXVtjSF00

>  <s_i_glide_gridfile>  (616) 
ATP-Grid

>  <s_lp_Force_Field>  (616) 
OPLS_2005

>  <s_lp_Variant>  (616) 
rxn502b____EMOL331054254____EMOL13728749____EMOL712348-3

>  <s_lp_label>  (616) 
2587_sdstereoexpander_1_neutralizer_1_epik_2_stereoizer_1

>  <s_m_source_file>  (616) 
ATP-VSW-LIGPREP-002-in.maegz

>  <s_sd_BIOSOLVEIT.INFINISEE\_QUERY\_NAME>  (616) 
Ref-Lig

>  <s_sd_BIOSOLVEIT.INFINISEE\_QUERY\_SMILES>  (616) 
S(c1nc2c(cc1C[NH2+]Cc3ccc(cc3)C[NH+](C)C)cccc2)Cc4ccccc4

>  <s_sd_BIOSOLVEIT.INFINISEE\_REACTION\_NAME>  (616) 
rxn502b

>  <s_sd_BIOSOLVEIT.INFINISEE\_REAGENT1\_NAME>  (616) 
EMOL331054254

>  <s_sd_BIOSOLVEIT.INFINISEE\_REAGENT1\_SMILES>  (616) 
Clc1ccc(cc1)C(N(C)C)C(=O)O

>  <s_sd_BIOSOLVEIT.INFINISEE\_REAGENT2\_NAME>  (616) 
EMOL13728749

>  <s_sd_BIOSOLVEIT.INFINISEE\_REAGENT2\_SMILES>  (616) 
Brc1c(N)c2c(nc1)cccc2

>  <s_sd_BIOSOLVEIT.INFINISEE\_REAGENT3\_NAME>  (616) 
EMOL712348

>  <s_sd_BIOSOLVEIT.INFINISEE\_REAGENT3\_SMILES>  (616) 
N#CCNc1ccccc1

>  <s_sd_BIOSOLVEIT.INFINISEE\_SPACE>  (616) 
eXplore_7tr_2022-12

>  <s_vsw_compound_code>  (616) 
82754

>  <s_vsw_variant>  (616) 
82754-3

>  <r_epik_Charging_Adjusted_Penalty>  (616) 
2.0743641982380199

>  <r_epik_Ionization_Penalty>  (616) 
1.0377000000000001

>  <r_epik_Ionization_Penalty_Charging>  (616) 
1.0371999999999999

>  <r_epik_Ionization_Penalty_Neutral>  (616) 
0.00050000000000000001

>  <r_epik_State_Penalty>  (616) 
1.0371999999999999

>  <r_i_docking_score>  (616) 
-3.2338144665510602

>  <r_i_glide_ecoul>  (616) 
-8.8520002365112305

>  <r_i_glide_eff_state_penalty>  (616) 
1.0371999999999999

>  <r_i_glide_einternal>  (616) 
5.1415634155273402

>  <r_i_glide_emodel>  (616) 
-53.737142640022398

>  <r_i_glide_energy>  (616) 
-41.2009725570679

>  <r_i_glide_erotb>  (616) 
0.45553789035855502

>  <r_i_glide_esite>  (616) 
-0.119069107282743

>  <r_i_glide_evdw>  (616) 
-32.348972320556598

>  <r_i_glide_gscore>  (616) 
-4.2710144665510601

>  <r_i_glide_hbond>  (616) 
0

>  <r_i_glide_ligand_efficiency>  (616) 
-0.095112190192678206

>  <r_i_glide_ligand_efficiency_ln>  (616) 
-0.71444032108451805

>  <r_i_glide_ligand_efficiency_sa>  (616) 
-0.30812657343136002

>  <r_i_glide_lipo>  (616) 
-1.03921133901799

>  <r_i_glide_metal>  (616) 
-0

>  <r_i_glide_rewards>  (616) 
-0.62302325910436795

>  <r_lp_Energy>  (616) 
38.103406

>  <r_qp_ACxDN^.5/SA>  (616) 
0.010653599999999999

>  <r_qp_CIQPlogS>  (616) 
-7.0309999999999997

>  <r_qp_EA(eV)>  (616) 
1.3160000000000001

>  <r_qp_FISA>  (616) 
77.588999999999999

>  <r_qp_FOSA>  (616) 
133.30099999999999

>  <r_qp_IP(eV)>  (616) 
8.5700000000000003

>  <r_qp_Jm>  (616) 
0.0069321058129272802

>  <r_qp_PISA>  (616) 
423.048

>  <r_qp_PSA>  (616) 
68.831000000000003

>  <r_qp_PercentHumanOralAbsorption>  (616) 
100

>  <r_qp_QPPCaco>  (616) 
453.96199999999999

>  <r_qp_QPPMDCK>  (616) 
563.928

>  <r_qp_QPlogBB>  (616) 
-0.058999999999999997

>  <r_qp_QPlogHERG>  (616) 
-6.657

>  <r_qp_QPlogKhsa>  (616) 
0.56499999999999995

>  <r_qp_QPlogKp>  (616) 
-2.754

>  <r_qp_QPlogPC16>  (616) 
15.242000000000001

>  <r_qp_QPlogPo/w>  (616) 
4.5380000000000003

>  <r_qp_QPlogPoct>  (616) 
22.632999999999999

>  <r_qp_QPlogPw>  (616) 
11.930999999999999

>  <r_qp_QPlogS>  (616) 
-5.077

>  <r_qp_QPpolrz>  (616) 
48.106000000000002

>  <r_qp_SASA>  (616) 
703.98500000000001

>  <r_qp_SAamideO>  (616) 
0

>  <r_qp_SAfluorine>  (616) 
0

>  <r_qp_WPSA>  (616) 
70.046999999999997

>  <r_qp_accptHB>  (616) 
7.5

>  <r_qp_dip^2/V>  (616) 
0.048101199999999997

>  <r_qp_dipole>  (616) 
8.157

>  <r_qp_donorHB>  (616) 
1

>  <r_qp_glob>  (616) 
0.85283039999999999

>  <r_qp_mol_MW>  (616) 
469.97199999999998

>  <r_qp_volume>  (616) 
1383.221

>  <r_sd_BIOSOLVEIT.INFINISEE\_FTREES\_SIMILARITY>  (616) 
0.91100000000000003

>  <r_sd_BIOSOLVEIT.LOGP>  (616) 
4.37418

>  <r_sd_BIOSOLVEIT.MOLECULAR\_WEIGHT>  (616) 
470.98200000000003

>  <r_sd_BIOSOLVEIT.TPSA>  (616) 
73.459999999999994

>  <i_epik_Tot_Q>  (616) 
1

>  <i_epik_Tot_abs_Q>  (616) 
1

>  <i_f3d_flags>  (616) 
0

>  <i_i_glide_confnum>  (616) 
4

>  <i_i_glide_lignum>  (616) 
1165

>  <i_i_glide_posenum>  (616) 
19

>  <i_i_glide_rotatable_bonds>  (616) 
8

>  <i_lp_mmshare_version>  (616) 
65135

>  <i_m_ct_format>  (616) 
2

>  <i_m_source_file_index>  (616) 
2587

>  <i_qp_#NandO>  (616) 
6

>  <i_qp_#acid>  (616) 
0

>  <i_qp_#amide>  (616) 
0

>  <i_qp_#amidine>  (616) 
0

>  <i_qp_#amine>  (616) 
1

>  <i_qp_#in34>  (616) 
0

>  <i_qp_#in56>  (616) 
22

>  <i_qp_#metab>  (616) 
6

>  <i_qp_#nonHatm>  (616) 
34

>  <i_qp_#noncon>  (616) 
0

>  <i_qp_#ringatoms>  (616) 
22

>  <i_qp_#rotor>  (616) 
8

>  <i_qp_#rtvFG>  (616) 
0

>  <i_qp_#stars>  (616) 
0

>  <i_qp_CNS>  (616) 
1

>  <i_qp_HumanOralAbsorption>  (616) 
3

>  <i_qp_RuleOfFive>  (616) 
0

>  <i_qp_RuleOfThree>  (616) 
0

>  <i_sd_BIOSOLVEIT.INFINISEE\_RESULT\_RANK>  (616) 
40176

>  <i_sd_version>  (616) 
0

>  <b_lp_Chiralities_Consistent>  (616) 
1

>  <b_sd_chiral_flag>  (616) 
0

>  <canonical_id>  (616) 
ATP-HTVS-5F569EDABC80

>  <compound_code>  (616) 
82754

>  <title>  (616) 
rxn502b____EMOL331054254____EMOL13728749____EMOL712348

>  <variant>  (616) 
82754-3

>  <source_file>  (616) 
运行/运行/ATP-VSW/ATP-VSW-DOCK_HTVS_1-002_lib.maegz

>  <canonical_smiles>  (616) 
C[NH+](C)[C@@H](C(=O)Nc1c(N(CC#N)c2ccccc2)cnc2ccccc12)c1ccc(Cl)cc1

>  <scaffold>  (616) 
O=C(Cc1ccccc1)Nc1c(Nc2ccccc2)cnc2ccccc12

>  <molecular_formula>  (616) 
C27H25ClN5O+

$$$$
ATP-HTVS-5FA879ADA4FF
     RDKit          3D

 71 74  0  0  0  0  0  0  0  0999 V2000
  199.7599  184.6810  153.2524 O   0  0  0  0  0  0  0  0  0  0  0  0
  198.7722  185.4160  153.1767 C   0  0  0  0  0  0  0  0  0  0  0  0
  197.7125  185.3231  154.0091 N   0  0  0  0  0  0  0  0  0  0  0  0
  197.6557  184.5273  155.1904 C   0  0  0  0  0  0  0  0  0  0  0  0
  197.7337  183.1053  155.1465 C   0  0  0  0  0  0  0  0  0  0  0  0
  197.8454  182.3866  153.9411 N   0  0  0  0  0  0  0  0  0  0  0  0
  198.8740  181.3509  153.8701 C   0  0  1  0  0  0  0  0  0  0  0  0
  198.7117  180.3055  152.7782 C   0  0  0  0  0  0  0  0  0  0  0  0
  197.4776  180.1045  152.1266 C   0  0  0  0  0  0  0  0  0  0  0  0
  197.3693  179.1409  151.1027 C   0  0  0  0  0  0  0  0  0  0  0  0
  198.4921  178.3783  150.7081 C   0  0  0  0  0  0  0  0  0  0  0  0
  199.7042  178.5422  151.4075 C   0  0  0  0  0  0  0  0  0  0  0  0
  199.8177  179.5007  152.4307 C   0  0  0  0  0  0  0  0  0  0  0  0
  198.4301  177.4358  149.5094 C   0  0  1  0  0  0  0  0  0  0  0  0
  198.6687  178.1386  148.2086 N   0  0  1  0  0  0  0  0  0  0  0  0
  197.5098  178.9527  147.7426 C   0  0  1  0  0  0  0  0  0  0  0  0
  196.3409  178.0752  147.2749 C   0  0  2  0  0  0  0  0  0  0  0  0
  199.9603  178.8852  148.1906 C   0  0  1  0  0  0  0  0  0  0  0  0
  200.4536  179.2539  146.7817 C   0  0  2  0  0  0  0  0  0  0  0  0
  197.6554  182.4097  156.3748 C   0  0  0  0  0  0  0  0  0  0  0  0
  197.5141  183.0180  157.5641 N   0  0  0  0  0  0  0  0  0  0  0  0
  197.4162  184.3514  157.6168 C   0  0  0  0  0  0  0  0  0  0  0  0
  197.4879  185.1691  156.4523 C   0  0  0  0  0  0  0  0  0  0  0  0
  197.4082  186.5796  156.5988 C   0  0  0  0  0  0  0  0  0  0  0  0
  197.2521  187.1691  157.8743 C   0  0  0  0  0  0  0  0  0  0  0  0
  197.1635  186.3564  159.0193 C   0  0  0  0  0  0  0  0  0  0  0  0
  197.2436  184.9603  158.8779 C   0  0  0  0  0  0  0  0  0  0  0  0
  198.7300  186.5195  152.1094 C   0  0  1  0  0  0  0  0  0  0  0  0
  199.3417  186.0479  150.7921 C   0  0  0  0  0  0  0  0  0  0  0  0
  198.5434  185.3899  149.8281 C   0  0  0  0  0  0  0  0  0  0  0  0
  197.2164  185.1987  150.1364 O   0  0  0  0  0  0  0  0  0  0  0  0
  196.4314  184.4100  149.2657 C   0  0  2  0  0  0  0  0  0  0  0  0
  199.1338  184.9706  148.6098 C   0  0  0  0  0  0  0  0  0  0  0  0
  200.5008  185.1941  148.3652 C   0  0  0  0  0  0  0  0  0  0  0  0
  201.2931  185.8367  149.3328 C   0  0  0  0  0  0  0  0  0  0  0  0
  200.7148  186.2616  150.5427 C   0  0  0  0  0  0  0  0  0  0  0  0
  197.0042  186.0404  153.9244 H   0  0  0  0  0  0  0  0  0  0  0  0
  197.7439  182.9356  153.0954 H   0  0  0  0  0  0  0  0  0  0  0  0
  199.8238  181.8530  153.7072 H   0  0  0  0  0  0  0  0  0  0  0  0
  198.9901  180.8093  154.8090 H   0  0  0  0  0  0  0  0  0  0  0  0
  196.6156  180.6970  152.3976 H   0  0  0  0  0  0  0  0  0  0  0  0
  196.4179  179.0243  150.6059 H   0  0  0  0  0  0  0  0  0  0  0  0
  200.5689  177.9497  151.1357 H   0  0  0  0  0  0  0  0  0  0  0  0
  200.7713  179.6216  152.9331 H   0  0  0  0  0  0  0  0  0  0  0  0
  199.1766  176.6450  149.6183 H   0  0  0  0  0  0  0  0  0  0  0  0
  197.4794  176.9091  149.5196 H   0  0  0  0  0  0  0  0  0  0  0  0
  197.1965  179.6567  148.5123 H   0  0  0  0  0  0  0  0  0  0  0  0
  197.7930  179.5679  146.8906 H   0  0  0  0  0  0  0  0  0  0  0  0
  195.4922  178.6593  146.9270 H   0  0  0  0  0  0  0  0  0  0  0  0
  195.9581  177.4409  148.0697 H   0  0  0  0  0  0  0  0  0  0  0  0
  196.6543  177.4418  146.4450 H   0  0  0  0  0  0  0  0  0  0  0  0
  199.8810  179.7916  148.7920 H   0  0  0  0  0  0  0  0  0  0  0  0
  200.7278  178.2645  148.6580 H   0  0  0  0  0  0  0  0  0  0  0  0
  201.4380  179.7207  146.8353 H   0  0  0  0  0  0  0  0  0  0  0  0
  199.8082  179.9766  146.2843 H   0  0  0  0  0  0  0  0  0  0  0  0
  200.5357  178.3735  146.1442 H   0  0  0  0  0  0  0  0  0  0  0  0
  197.6888  181.3368  156.4339 H   0  0  0  0  0  0  0  0  0  0  0  0
  197.4755  187.2340  155.7392 H   0  0  0  0  0  0  0  0  0  0  0  0
  197.2163  188.2445  157.9887 H   0  0  0  0  0  0  0  0  0  0  0  0
  197.0589  186.8033  159.9966 H   0  0  0  0  0  0  0  0  0  0  0  0
  197.1808  184.3387  159.7616 H   0  0  0  0  0  0  0  0  0  0  0  0
  197.7117  186.8817  151.9488 H   0  0  0  0  0  0  0  0  0  0  0  0
  199.3044  187.3643  152.4897 H   0  0  0  0  0  0  0  0  0  0  0  0
  195.4404  184.3349  149.7109 H   0  0  0  0  0  0  0  0  0  0  0  0
  196.8343  183.4021  149.1638 H   0  0  0  0  0  0  0  0  0  0  0  0
  196.3464  184.8635  148.2771 H   0  0  0  0  0  0  0  0  0  0  0  0
  198.5572  184.4801  147.8421 H   0  0  0  0  0  0  0  0  0  0  0  0
  200.9420  184.8684  147.4352 H   0  0  0  0  0  0  0  0  0  0  0  0
  202.3433  186.0035  149.1447 H   0  0  0  0  0  0  0  0  0  0  0  0
  201.3321  186.7497  151.2825 H   0  0  0  0  0  0  0  0  0  0  0  0
  198.7841  177.4058  147.5222 H   0  0  0  0  0  0  0  0  0  0  0  0
  1  2  2  0
  2  3  1  0
  2 28  1  0
  3  4  1  0
  3 37  1  0
  4  5  2  0
  4 23  1  0
  5  6  1  0
  5 20  1  0
  6  7  1  0
  6 38  1  0
  7  8  1  0
  7 39  1  6
  7 40  1  0
  8  9  1  0
  8 13  2  0
  9 10  2  0
  9 41  1  0
 10 11  1  0
 10 42  1  0
 11 12  2  0
 11 14  1  0
 12 13  1  0
 12 43  1  0
 13 44  1  0
 14 15  1  0
 14 45  1  1
 14 46  1  0
 15 16  1  0
 15 18  1  0
 15 71  1  6
 16 17  1  0
 16 47  1  1
 16 48  1  0
 17 49  1  6
 17 50  1  0
 17 51  1  0
 18 19  1  0
 18 52  1  1
 18 53  1  0
 19 54  1  1
 19 55  1  0
 19 56  1  0
 20 21  2  0
 20 57  1  0
 21 22  1  0
 22 23  1  0
 22 27  2  0
 23 24  2  0
 24 25  1  0
 24 58  1  0
 25 26  2  0
 25 59  1  0
 26 27  1  0
 26 60  1  0
 27 61  1  0
 28 29  1  0
 28 62  1  6
 28 63  1  0
 29 30  1  0
 29 36  2  0
 30 31  1  0
 30 33  2  0
 31 32  1  0
 32 64  1  1
 32 65  1  0
 32 66  1  0
 33 34  1  0
 33 67  1  0
 34 35  2  0
 34 68  1  0
 35 36  1  0
 35 69  1  0
 36 70  1  0
M  CHG  1  15   1
M  END
>  <s_epik_cmdline>  (617) 
J2VwaWtfcHl0aG9uJywgJy1waCcsICc3LjAwMDAwMCcsICctcGh0JywgJzIuMDAwMDAwJywgJy1tcycsICcxNicsICctdG4nLCAnOCcsICctbWEnLCAnMjAwJywgJy1pbWFlJywgJzxpbmZpbGUubWFlPicsICctb21hZScsICc8b3V0ZmlsZS5tYWU+Jw==

>  <s_epik_input>  (617) 
W2NIXTFbY0hdW2NIXVtjSF1jKE9bQ0gzXSljMVtDSDJdQyg9TylbTkhdYyhjKGMyMylbY0hdW2NIXVtjSF1bY0hdMyljKFtjSF1uMilbTkhdW0NIMl1jNFtjSF1bY0hdYyhbY0hdW2NIXTQpW0NIMl1OKFtDSDJdW0NIM10pW0NIMl1bQ0gzXQ==

>  <s_i_glide_gridfile>  (617) 
ATP-Grid

>  <s_lp_Force_Field>  (617) 
OPLS_2005

>  <s_lp_Variant>  (617) 
rxn502b____EMOL32280493____EMOL13728749____EMOL2868412-1

>  <s_lp_label>  (617) 
2417_sdstereoexpander_1_neutralizer_1_epik_1_stereoizer_1

>  <s_m_source_file>  (617) 
ATP-VSW-LIGPREP-002-in.maegz

>  <s_sd_BIOSOLVEIT.INFINISEE\_QUERY\_NAME>  (617) 
Ref-Lig

>  <s_sd_BIOSOLVEIT.INFINISEE\_QUERY\_SMILES>  (617) 
S(c1nc2c(cc1C[NH2+]Cc3ccc(cc3)C[NH+](C)C)cccc2)Cc4ccccc4

>  <s_sd_BIOSOLVEIT.INFINISEE\_REACTION\_NAME>  (617) 
rxn502b

>  <s_sd_BIOSOLVEIT.INFINISEE\_REAGENT1\_NAME>  (617) 
EMOL32280493

>  <s_sd_BIOSOLVEIT.INFINISEE\_REAGENT1\_SMILES>  (617) 
ClC(=O)Cc1c(OC)cccc1

>  <s_sd_BIOSOLVEIT.INFINISEE\_REAGENT2\_NAME>  (617) 
EMOL13728749

>  <s_sd_BIOSOLVEIT.INFINISEE\_REAGENT2\_SMILES>  (617) 
Brc1c(N)c2c(nc1)cccc2

>  <s_sd_BIOSOLVEIT.INFINISEE\_REAGENT3\_NAME>  (617) 
EMOL2868412

>  <s_sd_BIOSOLVEIT.INFINISEE\_REAGENT3\_SMILES>  (617) 
N(Cc1ccc(cc1)CN)(CC)CC

>  <s_sd_BIOSOLVEIT.INFINISEE\_SPACE>  (617) 
eXplore_7tr_2022-12

>  <s_vsw_compound_code>  (617) 
77314

>  <s_vsw_variant>  (617) 
77314-1

>  <r_epik_Charging_Adjusted_Penalty>  (617) 
0.050676298258548198

>  <r_epik_Ionization_Penalty>  (617) 
0.034799999999999998

>  <r_epik_Ionization_Penalty_Charging>  (617) 
0.015900000000000001

>  <r_epik_Ionization_Penalty_Neutral>  (617) 
0.018800000000000001

>  <r_epik_State_Penalty>  (617) 
0.034799999999999998

>  <r_i_docking_score>  (617) 
-3.2287697992891

>  <r_i_glide_ecoul>  (617) 
-4.2677860260009801

>  <r_i_glide_eff_state_penalty>  (617) 
0.034799999999999998

>  <r_i_glide_einternal>  (617) 
3.9168326854705802

>  <r_i_glide_emodel>  (617) 
-44.855660441023197

>  <r_i_glide_energy>  (617) 
-37.087060928344698

>  <r_i_glide_erotb>  (617) 
0.78120818554331595

>  <r_i_glide_esite>  (617) 
-0.0099753092273040002

>  <r_i_glide_evdw>  (617) 
-32.8192749023438

>  <r_i_glide_gscore>  (617) 
-3.2635697992891002

>  <r_i_glide_hbond>  (617) 
-0.13476895590344101

>  <r_i_glide_ligand_efficiency>  (617) 
-0.089688049980252899

>  <r_i_glide_ligand_efficiency_ln>  (617) 
-0.70443033892572204

>  <r_i_glide_ligand_efficiency_sa>  (617) 
-0.29614341577627501

>  <r_i_glide_lipo>  (617) 
-1.4781823900800699

>  <r_i_glide_metal>  (617) 
-0

>  <r_i_glide_rewards>  (617) 
-0.14071968060426701

>  <r_lp_Energy>  (617) 
35.328682999999998

>  <r_lp_tautomer_probability>  (617) 
1

>  <r_qp_ACxDN^.5/SA>  (617) 
0.0149351

>  <r_qp_CIQPlogS>  (617) 
-6.3390000000000004

>  <r_qp_EA(eV)>  (617) 
0.81200000000000006

>  <r_qp_FISA>  (617) 
46.347000000000001

>  <r_qp_FOSA>  (617) 
303.58699999999999

>  <r_qp_IP(eV)>  (617) 
8.2650000000000006

>  <r_qp_Jm>  (617) 
2.3948447450677799

>  <r_qp_PISA>  (617) 
336.572

>  <r_qp_PSA>  (617) 
60.491999999999997

>  <r_qp_PercentHumanOralAbsorption>  (617) 
100

>  <r_qp_QPPCaco>  (617) 
898.02499999999998

>  <r_qp_QPPMDCK>  (617) 
487.23700000000002

>  <r_qp_QPlogBB>  (617) 
-0.085000000000000006

>  <r_qp_QPlogHERG>  (617) 
-5.5339999999999998

>  <r_qp_QPlogKhsa>  (617) 
0.65900000000000003

>  <r_qp_QPlogKp>  (617) 
-2.1949999999999998

>  <r_qp_QPlogPC16>  (617) 
14.583

>  <r_qp_QPlogPo/w>  (617) 
4.7439999999999998

>  <r_qp_QPlogPoct>  (617) 
22.759

>  <r_qp_QPlogPw>  (617) 
11.619999999999999

>  <r_qp_QPlogS>  (617) 
-3.1099999999999999

>  <r_qp_QPpolrz>  (617) 
47.476999999999997

>  <r_qp_SASA>  (617) 
686.50599999999997

>  <r_qp_SAamideO>  (617) 
0

>  <r_qp_SAfluorine>  (617) 
0

>  <r_qp_WPSA>  (617) 
0

>  <r_qp_accptHB>  (617) 
7.25

>  <r_qp_dip^2/V>  (617) 
0.016670600000000001

>  <r_qp_dipole>  (617) 
4.8929999999999998

>  <r_qp_donorHB>  (617) 
2

>  <r_qp_glob>  (617) 
0.89677169999999995

>  <r_qp_mol_MW>  (617) 
482.62400000000002

>  <r_qp_volume>  (617) 
1436.289

>  <r_sd_BIOSOLVEIT.INFINISEE\_FTREES\_SIMILARITY>  (617) 
0.91700000000000004

>  <r_sd_BIOSOLVEIT.LOGP>  (617) 
4.4614000000000003

>  <r_sd_BIOSOLVEIT.MOLECULAR\_WEIGHT>  (617) 
483.63299999999998

>  <r_sd_BIOSOLVEIT.TPSA>  (617) 
67.689999999999998

>  <i_epik_Tot_Q>  (617) 
1

>  <i_epik_Tot_abs_Q>  (617) 
1

>  <i_f3d_flags>  (617) 
0

>  <i_i_glide_confnum>  (617) 
17

>  <i_i_glide_lignum>  (617) 
1025

>  <i_i_glide_posenum>  (617) 
19

>  <i_i_glide_rotatable_bonds>  (617) 
12

>  <i_lp_mmshare_version>  (617) 
65135

>  <i_m_ct_format>  (617) 
2

>  <i_m_source_file_index>  (617) 
2417

>  <i_qp_#NandO>  (617) 
6

>  <i_qp_#acid>  (617) 
0

>  <i_qp_#amide>  (617) 
0

>  <i_qp_#amidine>  (617) 
0

>  <i_qp_#amine>  (617) 
1

>  <i_qp_#in34>  (617) 
0

>  <i_qp_#in56>  (617) 
22

>  <i_qp_#metab>  (617) 
8

>  <i_qp_#nonHatm>  (617) 
36

>  <i_qp_#noncon>  (617) 
0

>  <i_qp_#ringatoms>  (617) 
22

>  <i_qp_#rotor>  (617) 
11

>  <i_qp_#rtvFG>  (617) 
0

>  <i_qp_#stars>  (617) 
0

>  <i_qp_CNS>  (617) 
1

>  <i_qp_HumanOralAbsorption>  (617) 
3

>  <i_qp_RuleOfFive>  (617) 
0

>  <i_qp_RuleOfThree>  (617) 
1

>  <i_sd_BIOSOLVEIT.INFINISEE\_RESULT\_RANK>  (617) 
22159

>  <i_sd_version>  (617) 
0

>  <b_lp_Chiralities_Consistent>  (617) 
1

>  <b_sd_chiral_flag>  (617) 
0

>  <canonical_id>  (617) 
ATP-HTVS-5FA879ADA4FF

>  <compound_code>  (617) 
77314

>  <title>  (617) 
rxn502b____EMOL32280493____EMOL13728749____EMOL2868412

>  <variant>  (617) 
77314-1

>  <source_file>  (617) 
运行/运行/ATP-VSW/ATP-VSW-DOCK_HTVS_1-002_lib.maegz

>  <canonical_smiles>  (617) 
CC[NH+](CC)Cc1ccc(CNc2cnc3ccccc3c2NC(=O)Cc2ccccc2OC)cc1

>  <scaffold>  (617) 
O=C(Cc1ccccc1)Nc1c(NCc2ccccc2)cnc2ccccc12

>  <molecular_formula>  (617) 
C30H35N4O2+

$$$$
ATP-HTVS-6012FFC9E47E
     RDKit          3D

 68 71  0  0  0  0  0  0  0  0999 V2000
  199.3180  182.2409  155.1052 O   0  0  0  0  0  0  0  0  0  0  0  0
  199.2552  181.5615  156.1296 C   0  0  0  0  0  0  0  0  0  0  0  0
  198.7600  181.9939  157.3001 N   0  0  0  0  0  0  0  0  0  0  0  0
  198.2564  183.2942  157.5908 C   0  0  0  0  0  0  0  0  0  0  0  0
  199.0250  184.4805  157.3889 C   0  0  0  0  0  0  0  0  0  0  0  0
  200.3747  184.4786  156.9843 N   0  0  0  0  0  0  0  0  0  0  0  0
  201.3747  183.8457  157.8573 C   0  0  1  0  0  0  0  0  0  0  0  0
  201.5975  184.4844  159.2487 C   0  0  0  0  0  0  0  0  0  0  0  0
  200.8011  185.3340  159.6568 O   0  0  0  0  0  0  0  0  0  0  0  0
  202.6535  184.0904  160.0031 N   0  0  0  0  0  0  0  0  0  0  0  0
  203.5476  183.0436  159.6239 C   0  0  0  0  0  0  0  0  0  0  0  0
  203.0450  181.7696  159.2758 C   0  0  0  0  0  0  0  0  0  0  0  0
  203.9266  180.7529  158.8492 C   0  0  0  0  0  0  0  0  0  0  0  0
  205.3177  180.9801  158.8405 C   0  0  0  0  0  0  0  0  0  0  0  0
  205.8287  182.2261  159.2447 C   0  0  0  0  0  0  0  0  0  0  0  0
  204.9457  183.2585  159.6227 C   0  0  0  0  0  0  0  0  0  0  0  0
  202.8975  184.7666  161.2761 C   0  0  2  0  0  0  0  0  0  0  0  0
  200.8057  185.4540  155.9911 C   0  0  2  0  0  0  0  0  0  0  0  0
  198.4055  185.7129  157.6841 C   0  0  0  0  0  0  0  0  0  0  0  0
  197.1640  185.8367  158.1846 N   0  0  0  0  0  0  0  0  0  0  0  0
  196.4480  184.7197  158.4249 C   0  0  0  0  0  0  0  0  0  0  0  0
  196.9561  183.4165  158.1493 C   0  0  0  0  0  0  0  0  0  0  0  0
  196.1459  182.2839  158.4177 C   0  0  0  0  0  0  0  0  0  0  0  0
  194.8472  182.4429  158.9325 C   0  0  0  0  0  0  0  0  0  0  0  0
  194.3455  183.7293  159.1993 C   0  0  0  0  0  0  0  0  0  0  0  0
  195.1497  184.8541  158.9527 C   0  0  0  0  0  0  0  0  0  0  0  0
  199.6989  180.1287  156.1157 C   0  0  0  0  0  0  0  0  0  0  0  0
  199.3880  179.3195  155.0015 C   0  0  0  0  0  0  0  0  0  0  0  0
  199.8141  177.9785  154.9528 C   0  0  0  0  0  0  0  0  0  0  0  0
  200.5684  177.4373  156.0151 C   0  0  0  0  0  0  0  0  0  0  0  0
  200.8924  178.2445  157.1254 C   0  0  0  0  0  0  0  0  0  0  0  0
  200.4676  179.5845  157.1691 C   0  0  0  0  0  0  0  0  0  0  0  0
  201.0334  175.9947  155.9634 C   0  0  1  0  0  0  0  0  0  0  0  0
  202.4751  175.8771  155.6346 N   0  0  2  0  0  0  0  0  0  0  0  0
  202.8033  176.3288  154.2627 C   0  0  2  0  0  0  0  0  0  0  0  0
  202.9930  174.5156  155.9016 C   0  0  2  0  0  0  0  0  0  0  0  0
  198.5800  181.2805  157.9910 H   0  0  0  0  0  0  0  0  0  0  0  0
  201.0948  182.8040  157.9970 H   0  0  0  0  0  0  0  0  0  0  0  0
  202.3196  183.8225  157.3085 H   0  0  0  0  0  0  0  0  0  0  0  0
  201.9806  181.5761  159.3081 H   0  0  0  0  0  0  0  0  0  0  0  0
  203.5284  179.8040  158.5267 H   0  0  0  0  0  0  0  0  0  0  0  0
  205.9875  180.1916  158.5327 H   0  0  0  0  0  0  0  0  0  0  0  0
  206.8974  182.3943  159.2676 H   0  0  0  0  0  0  0  0  0  0  0  0
  205.3485  184.2225  159.9085 H   0  0  0  0  0  0  0  0  0  0  0  0
  203.8453  184.4785  161.7352 H   0  0  0  0  0  0  0  0  0  0  0  0
  202.1101  184.5027  161.9809 H   0  0  0  0  0  0  0  0  0  0  0  0
  202.8943  185.8543  161.1653 H   0  0  0  0  0  0  0  0  0  0  0  0
  200.0119  185.6746  155.2757 H   0  0  0  0  0  0  0  0  0  0  0  0
  201.6522  185.0602  155.4267 H   0  0  0  0  0  0  0  0  0  0  0  0
  201.1226  186.3757  156.4804 H   0  0  0  0  0  0  0  0  0  0  0  0
  198.9528  186.6360  157.5743 H   0  0  0  0  0  0  0  0  0  0  0  0
  196.4818  181.2779  158.2152 H   0  0  0  0  0  0  0  0  0  0  0  0
  194.2346  181.5705  159.1102 H   0  0  0  0  0  0  0  0  0  0  0  0
  193.3442  183.8612  159.5783 H   0  0  0  0  0  0  0  0  0  0  0  0
  194.7578  185.8415  159.1410 H   0  0  0  0  0  0  0  0  0  0  0  0
  198.8111  179.7345  154.1852 H   0  0  0  0  0  0  0  0  0  0  0  0
  199.5491  177.3764  154.0958 H   0  0  0  0  0  0  0  0  0  0  0  0
  201.4716  177.8408  157.9437 H   0  0  0  0  0  0  0  0  0  0  0  0
  200.7434  180.1891  158.0178 H   0  0  0  0  0  0  0  0  0  0  0  0
  200.8440  175.5541  156.9418 H   0  0  0  0  0  0  0  0  0  0  0  0
  200.4328  175.4305  155.2471 H   0  0  0  0  0  0  0  0  0  0  0  0
  202.2697  175.7384  153.5158 H   0  0  0  0  0  0  0  0  0  0  0  0
  203.8722  176.2310  154.0689 H   0  0  0  0  0  0  0  0  0  0  0  0
  202.5451  177.3786  154.1162 H   0  0  0  0  0  0  0  0  0  0  0  0
  202.5052  173.7734  155.2668 H   0  0  0  0  0  0  0  0  0  0  0  0
  202.8302  174.2363  156.9422 H   0  0  0  0  0  0  0  0  0  0  0  0
  204.0659  174.4608  155.7158 H   0  0  0  0  0  0  0  0  0  0  0  0
  202.9580  176.5037  156.2653 H   0  0  0  0  0  0  0  0  0  0  0  0
  1  2  2  0
  2  3  1  0
  2 27  1  0
  3  4  1  0
  3 37  1  0
  4  5  2  0
  4 22  1  0
  5  6  1  0
  5 19  1  0
  6  7  1  0
  6 18  1  0
  7  8  1  0
  7 38  1  1
  7 39  1  0
  8  9  2  0
  8 10  1  0
 10 11  1  0
 10 17  1  0
 11 12  2  0
 11 16  1  0
 12 13  1  0
 12 40  1  0
 13 14  2  0
 13 41  1  0
 14 15  1  0
 14 42  1  0
 15 16  2  0
 15 43  1  0
 16 44  1  0
 17 45  1  1
 17 46  1  0
 17 47  1  0
 18 48  1  6
 18 49  1  0
 18 50  1  0
 19 20  2  0
 19 51  1  0
 20 21  1  0
 21 22  1  0
 21 26  2  0
 22 23  2  0
 23 24  1  0
 23 52  1  0
 24 25  2  0
 24 53  1  0
 25 26  1  0
 25 54  1  0
 26 55  1  0
 27 28  1  0
 27 32  2  0
 28 29  2  0
 28 56  1  0
 29 30  1  0
 29 57  1  0
 30 31  2  0
 30 33  1  0
 31 32  1  0
 31 58  1  0
 32 59  1  0
 33 34  1  0
 33 60  1  1
 33 61  1  0
 34 35  1  0
 34 36  1  0
 34 68  1  1
 35 62  1  6
 35 63  1  0
 35 64  1  0
 36 65  1  6
 36 66  1  0
 36 67  1  0
M  CHG  1  34   1
M  END
>  <s_epik_cmdline>  (618) 
J2VwaWtfcHl0aG9uJywgJy1waCcsICc3LjAwMDAwMCcsICctcGh0JywgJzIuMDAwMDAwJywgJy1tcycsICcxNicsICctdG4nLCAnOCcsICctbWEnLCAnMjAwJywgJy1pbWFlJywgJzxpbmZpbGUubWFlPicsICctb21hZScsICc8b3V0ZmlsZS5tYWU+Jw==

>  <s_epik_input>  (618) 
W0NIM11OKFtDSDNdKVtDSDJdYyhbY0hdW2NIXTEpW2NIXVtjSF1jMUMoPU8pW05IXWMoYyhjMjMpW2NIXVtjSF1bY0hdW2NIXTMpYyhbY0hdbjIpTihbQ0gzXSlbQ0gyXUMoPU8pTihbQ0gzXSljNFtjSF1bY0hdW2NIXVtjSF1bY0hdNA==

>  <s_i_glide_gridfile>  (618) 
ATP-Grid

>  <s_lp_Force_Field>  (618) 
OPLS_2005

>  <s_lp_Variant>  (618) 
rxn502b____EMOL18624763____EMOL13728749____EMOL6255027-1

>  <s_lp_label>  (618) 
2430_sdstereoexpander_1_neutralizer_1_epik_1_stereoizer_1

>  <s_m_source_file>  (618) 
ATP-VSW-LIGPREP-001-in.maegz

>  <s_sd_BIOSOLVEIT.INFINISEE\_QUERY\_NAME>  (618) 
Ref-Lig

>  <s_sd_BIOSOLVEIT.INFINISEE\_QUERY\_SMILES>  (618) 
S(c1nc2c(cc1C[NH2+]Cc3ccc(cc3)C[NH+](C)C)cccc2)Cc4ccccc4

>  <s_sd_BIOSOLVEIT.INFINISEE\_REACTION\_NAME>  (618) 
rxn502b

>  <s_sd_BIOSOLVEIT.INFINISEE\_REAGENT1\_NAME>  (618) 
EMOL18624763

>  <s_sd_BIOSOLVEIT.INFINISEE\_REAGENT1\_SMILES>  (618) 
O=C(O)c1ccc(cc1)CN(C)C

>  <s_sd_BIOSOLVEIT.INFINISEE\_REAGENT2\_NAME>  (618) 
EMOL13728749

>  <s_sd_BIOSOLVEIT.INFINISEE\_REAGENT2\_SMILES>  (618) 
Brc1c(N)c2c(nc1)cccc2

>  <s_sd_BIOSOLVEIT.INFINISEE\_REAGENT3\_NAME>  (618) 
EMOL6255027

>  <s_sd_BIOSOLVEIT.INFINISEE\_REAGENT3\_SMILES>  (618) 
O=C(N(c1ccccc1)C)CNC

>  <s_sd_BIOSOLVEIT.INFINISEE\_SPACE>  (618) 
eXplore_7tr_2022-12

>  <s_vsw_compound_code>  (618) 
77729

>  <s_vsw_variant>  (618) 
77729-1

>  <r_epik_Charging_Adjusted_Penalty>  (618) 
0.13436030341274899

>  <r_epik_Ionization_Penalty>  (618) 
0.081500000000000003

>  <r_epik_Ionization_Penalty_Charging>  (618) 
0.052699999999999997

>  <r_epik_Ionization_Penalty_Neutral>  (618) 
0.028799999999999999

>  <r_epik_State_Penalty>  (618) 
0.081699999999999995

>  <r_i_docking_score>  (618) 
-3.3461811795042999

>  <r_i_glide_ecoul>  (618) 
-5.4040579795837402

>  <r_i_glide_eff_state_penalty>  (618) 
0.081699999999999995

>  <r_i_glide_einternal>  (618) 
2.43244457244873

>  <r_i_glide_emodel>  (618) 
-51.044088373672601

>  <r_i_glide_energy>  (618) 
-40.229661464691198

>  <r_i_glide_erotb>  (618) 
0.69711388987108902

>  <r_i_glide_esite>  (618) 
-0.0259811912349402

>  <r_i_glide_evdw>  (618) 
-34.825603485107401

>  <r_i_glide_gscore>  (618) 
-3.4278811795043

>  <r_i_glide_hbond>  (618) 
0

>  <r_i_glide_ligand_efficiency>  (618) 
-0.092949477208452799

>  <r_i_glide_ligand_efficiency_ln>  (618) 
-0.73004632999976504

>  <r_i_glide_ligand_efficiency_sa>  (618) 
-0.306912411198492

>  <r_i_glide_lipo>  (618) 
-1.1265028983251

>  <r_i_glide_metal>  (618) 
-0

>  <r_i_glide_rewards>  (618) 
-0.420622108622416

>  <r_lp_Energy>  (618) 
59.697226999999998

>  <r_qp_ACxDN^.5/SA>  (618) 
0.011052599999999999

>  <r_qp_CIQPlogS>  (618) 
-5.4429999999999996

>  <r_qp_EA(eV)>  (618) 
0.90700000000000003

>  <r_qp_FISA>  (618) 
68.486999999999995

>  <r_qp_FOSA>  (618) 
313.56999999999999

>  <r_qp_IP(eV)>  (618) 
8.3149999999999995

>  <r_qp_Jm>  (618) 
0.00376735865961447

>  <r_qp_PISA>  (618) 
477.47199999999998

>  <r_qp_PSA>  (618) 
75.239999999999995

>  <r_qp_PercentHumanOralAbsorption>  (618) 
100

>  <r_qp_QPPCaco>  (618) 
553.77999999999997

>  <r_qp_QPPMDCK>  (618) 
288.94

>  <r_qp_QPlogBB>  (618) 
-0.30399999999999999

>  <r_qp_QPlogHERG>  (618) 
-8.3670000000000009

>  <r_qp_QPlogKhsa>  (618) 
0.61799999999999999

>  <r_qp_QPlogKp>  (618) 
-2.3940000000000001

>  <r_qp_QPlogPC16>  (618) 
17.219999999999999

>  <r_qp_QPlogPo/w>  (618) 
4.7240000000000002

>  <r_qp_QPlogPoct>  (618) 
26.213999999999999

>  <r_qp_QPlogPw>  (618) 
14.558999999999999

>  <r_qp_QPlogS>  (618) 
-5.7119999999999997

>  <r_qp_QPpolrz>  (618) 
56.491999999999997

>  <r_qp_SASA>  (618) 
859.52999999999997

>  <r_qp_SAamideO>  (618) 
0

>  <r_qp_SAfluorine>  (618) 
0

>  <r_qp_WPSA>  (618) 
0

>  <r_qp_accptHB>  (618) 
9.5

>  <r_qp_dip^2/V>  (618) 
0.063948699999999997

>  <r_qp_dipole>  (618) 
10.051

>  <r_qp_donorHB>  (618) 
1

>  <r_qp_glob>  (618) 
0.76319459999999995

>  <r_qp_mol_MW>  (618) 
481.596

>  <r_qp_volume>  (618) 
1579.78

>  <r_sd_BIOSOLVEIT.INFINISEE\_FTREES\_SIMILARITY>  (618) 
0.91700000000000004

>  <r_sd_BIOSOLVEIT.LOGP>  (618) 
3.2307999999999999

>  <r_sd_BIOSOLVEIT.MOLECULAR\_WEIGHT>  (618) 
482.60500000000002

>  <r_sd_BIOSOLVEIT.TPSA>  (618) 
69.980000000000004

>  <i_epik_Tot_Q>  (618) 
1

>  <i_epik_Tot_abs_Q>  (618) 
1

>  <i_f3d_flags>  (618) 
0

>  <i_i_glide_confnum>  (618) 
3

>  <i_i_glide_lignum>  (618) 
939

>  <i_i_glide_posenum>  (618) 
19

>  <i_i_glide_rotatable_bonds>  (618) 
10

>  <i_lp_mmshare_version>  (618) 
65135

>  <i_m_ct_format>  (618) 
2

>  <i_m_source_file_index>  (618) 
2430

>  <i_qp_#NandO>  (618) 
7

>  <i_qp_#acid>  (618) 
0

>  <i_qp_#amide>  (618) 
0

>  <i_qp_#amidine>  (618) 
0

>  <i_qp_#amine>  (618) 
1

>  <i_qp_#in34>  (618) 
0

>  <i_qp_#in56>  (618) 
22

>  <i_qp_#metab>  (618) 
6

>  <i_qp_#nonHatm>  (618) 
36

>  <i_qp_#noncon>  (618) 
0

>  <i_qp_#ringatoms>  (618) 
22

>  <i_qp_#rotor>  (618) 
8

>  <i_qp_#rtvFG>  (618) 
0

>  <i_qp_#stars>  (618) 
1

>  <i_qp_CNS>  (618) 
1

>  <i_qp_HumanOralAbsorption>  (618) 
3

>  <i_qp_RuleOfFive>  (618) 
0

>  <i_qp_RuleOfThree>  (618) 
1

>  <i_sd_BIOSOLVEIT.INFINISEE\_RESULT\_RANK>  (618) 
23193

>  <i_sd_version>  (618) 
0

>  <b_lp_Chiralities_Consistent>  (618) 
1

>  <b_sd_chiral_flag>  (618) 
0

>  <canonical_id>  (618) 
ATP-HTVS-6012FFC9E47E

>  <compound_code>  (618) 
77729

>  <title>  (618) 
rxn502b____EMOL18624763____EMOL13728749____EMOL6255027

>  <variant>  (618) 
77729-1

>  <source_file>  (618) 
运行/运行/ATP-VSW/ATP-VSW-DOCK_HTVS_1-001_lib/ATP-VSW-DOCK_HTVS_1-001_lib

>  <canonical_smiles>  (618) 
CN(CC(=O)N(C)c1ccccc1)c1cnc2ccccc2c1NC(=O)c1ccc(C[NH+](C)C)cc1

>  <scaffold>  (618) 
O=C(CNc1cnc2ccccc2c1NC(=O)c1ccccc1)Nc1ccccc1

>  <molecular_formula>  (618) 
C29H32N5O2+

$$$$
ATP-HTVS-601F520459A4
     RDKit          3D

 53 55  0  0  0  0  0  0  0  0999 V2000
  198.0033  183.4614  154.4295 Cl  0  0  0  0  0  0  0  0  0  0  0  0
  197.5836  183.7045  156.0904 C   0  0  0  0  0  0  0  0  0  0  0  0
  198.1049  184.8003  156.8136 C   0  0  0  0  0  0  0  0  0  0  0  0
  198.9887  185.7038  156.2144 N   0  0  0  0  0  0  0  0  0  0  0  0
  200.4131  185.6436  156.1989 C   0  0  0  0  0  0  0  0  0  0  0  0
  201.2760  185.2824  157.2067 C   0  0  0  0  0  0  0  0  0  0  0  0
  202.9239  185.6754  156.7948 S   0  0  0  0  0  0  0  0  0  0  0  0
  202.4466  186.0264  155.1400 C   0  0  0  0  0  0  0  0  0  0  0  0
  201.0806  186.0192  155.0004 C   0  0  0  0  0  0  0  0  0  0  0  0
  201.0911  184.8065  158.5910 C   0  0  0  0  0  0  0  0  0  0  0  0
  200.4452  185.5398  159.3533 O   0  0  0  0  0  0  0  0  0  0  0  0
  201.5986  183.6225  159.0026 N   0  0  0  0  0  0  0  0  0  0  0  0
  202.3354  182.6240  158.1838 C   0  0  1  0  0  0  0  0  0  0  0  0
  201.4955  181.4558  157.6653 C   0  0  0  0  0  0  0  0  0  0  0  0
  200.2832  181.6857  156.9674 C   0  0  0  0  0  0  0  0  0  0  0  0
  199.5522  180.6140  156.4153 C   0  0  0  0  0  0  0  0  0  0  0  0
  198.4034  180.8333  155.6991 F   0  0  0  0  0  0  0  0  0  0  0  0
  200.0461  179.2995  156.5741 C   0  0  0  0  0  0  0  0  0  0  0  0
  201.2638  179.0513  157.2626 C   0  0  0  0  0  0  0  0  0  0  0  0
  201.9848  180.1328  157.8099 C   0  0  0  0  0  0  0  0  0  0  0  0
  201.4015  183.2217  160.4127 C   0  0  2  0  0  0  0  0  0  0  0  0
  197.6250  185.0451  158.1216 C   0  0  0  0  0  0  0  0  0  0  0  0
  196.7157  184.1617  158.7259 C   0  0  0  0  0  0  0  0  0  0  0  0
  196.2528  183.0279  158.0287 C   0  0  0  0  0  0  0  0  0  0  0  0
  196.7049  182.7914  156.7150 C   0  0  0  0  0  0  0  0  0  0  0  0
  195.2580  182.0739  158.6615 C   0  0  1  0  0  0  0  0  0  0  0  0
  193.8856  182.2722  158.1088 N   0  0  2  0  0  0  0  0  0  0  0  0
  193.2337  183.5054  158.6201 C   0  0  2  0  0  0  0  0  0  0  0  0
  193.0399  181.0665  158.2628 C   0  0  2  0  0  0  0  0  0  0  0  0
  198.6376  185.9996  155.3192 H   0  0  0  0  0  0  0  0  0  0  0  0
  203.1779  186.2459  154.3693 H   0  0  0  0  0  0  0  0  0  0  0  0
  200.5615  186.2741  154.1016 H   0  0  0  0  0  0  0  0  0  0  0  0
  202.8438  183.0615  157.3142 H   0  0  0  0  0  0  0  0  0  0  0  0
  203.1123  182.2445  158.8692 H   0  0  0  0  0  0  0  0  0  0  0  0
  199.9514  182.6997  156.8228 H   0  0  0  0  0  0  0  0  0  0  0  0
  199.4836  178.4729  156.1652 H   0  0  0  0  0  0  0  0  0  0  0  0
  201.6597  178.0364  157.3578 H   0  0  0  0  0  0  0  0  0  0  0  0
  202.9423  179.9733  158.3034 H   0  0  0  0  0  0  0  0  0  0  0  0
  201.7656  183.9850  161.0985 H   0  0  0  0  0  0  0  0  0  0  0  0
  201.9146  182.2999  160.6856 H   0  0  0  0  0  0  0  0  0  0  0  0
  200.3488  183.0676  160.6345 H   0  0  0  0  0  0  0  0  0  0  0  0
  197.9808  185.9229  158.6418 H   0  0  0  0  0  0  0  0  0  0  0  0
  196.3592  184.3755  159.7213 H   0  0  0  0  0  0  0  0  0  0  0  0
  196.3255  181.9309  156.1834 H   0  0  0  0  0  0  0  0  0  0  0  0
  195.6102  181.0528  158.5340 H   0  0  0  0  0  0  0  0  0  0  0  0
  195.2366  182.2181  159.7327 H   0  0  0  0  0  0  0  0  0  0  0  0
  193.1084  183.5175  159.7006 H   0  0  0  0  0  0  0  0  0  0  0  0
  192.2540  183.5718  158.1487 H   0  0  0  0  0  0  0  0  0  0  0  0
  193.8173  184.3873  158.3496 H   0  0  0  0  0  0  0  0  0  0  0  0
  192.8522  180.8127  159.3098 H   0  0  0  0  0  0  0  0  0  0  0  0
  193.5460  180.2307  157.7761 H   0  0  0  0  0  0  0  0  0  0  0  0
  192.0787  181.2087  157.7542 H   0  0  0  0  0  0  0  0  0  0  0  0
  193.9460  182.3986  157.1124 H   0  0  0  0  0  0  0  0  0  0  0  0
  1  2  1  0
  2  3  2  0
  2 25  1  0
  3  4  1  0
  3 22  1  0
  4  5  1  0
  4 30  1  0
  5  6  2  0
  5  9  1  0
  6  7  1  0
  6 10  1  0
  7  8  1  0
  8  9  2  0
  8 31  1  0
  9 32  1  0
 10 11  2  0
 10 12  1  0
 12 13  1  0
 12 21  1  0
 13 14  1  0
 13 33  1  6
 13 34  1  0
 14 15  1  0
 14 20  2  0
 15 16  2  0
 15 35  1  0
 16 17  1  0
 16 18  1  0
 18 19  2  0
 18 36  1  0
 19 20  1  0
 19 37  1  0
 20 38  1  0
 21 39  1  1
 21 40  1  0
 21 41  1  0
 22 23  2  0
 22 42  1  0
 23 24  1  0
 23 43  1  0
 24 25  2  0
 24 26  1  0
 25 44  1  0
 26 27  1  0
 26 45  1  1
 26 46  1  0
 27 28  1  0
 27 29  1  0
 27 53  1  6
 28 47  1  1
 28 48  1  0
 28 49  1  0
 29 50  1  1
 29 51  1  0
 29 52  1  0
M  CHG  1  27   1
M  END
>  <s_epik_cmdline>  (619) 
J2VwaWtfcHl0aG9uJywgJy1waCcsICc3LjAwMDAwMCcsICctcGh0JywgJzIuMDAwMDAwJywgJy1tcycsICcxNicsICctdG4nLCAnOCcsICctbWEnLCAnMjAwJywgJy1pbWFlJywgJzxpbmZpbGUubWFlPicsICctb21hZScsICc8b3V0ZmlsZS5tYWU+Jw==

>  <s_epik_input>  (619) 
W0NIM11OKFtDSDNdKVtDSDJdYyhbY0hdMSlbY0hdW2NIXWMoYzFDbClbTkhdYzJjKHNbY0hdW2NIXTIpQyg9TylOKFtDSDNdKVtDSDJdYzNbY0hdYyhGKVtjSF1bY0hdW2NIXTM=

>  <s_i_glide_gridfile>  (619) 
ATP-Grid

>  <s_lp_Force_Field>  (619) 
OPLS_2005

>  <s_lp_Variant>  (619) 
rxn514b____EMOL525080____EMOL1836585____EMOL45981440-1

>  <s_lp_label>  (619) 
2945_sdstereoexpander_1_neutralizer_1_epik_1_stereoizer_1

>  <s_m_source_file>  (619) 
ATP-VSW-LIGPREP-001-in.maegz

>  <s_sd_BIOSOLVEIT.INFINISEE\_QUERY\_NAME>  (619) 
Ref-Lig

>  <s_sd_BIOSOLVEIT.INFINISEE\_QUERY\_SMILES>  (619) 
S(c1nc2c(cc1C[NH2+]Cc3ccc(cc3)C[NH+](C)C)cccc2)Cc4ccccc4

>  <s_sd_BIOSOLVEIT.INFINISEE\_REACTION\_NAME>  (619) 
rxn514b

>  <s_sd_BIOSOLVEIT.INFINISEE\_REAGENT1\_NAME>  (619) 
EMOL525080

>  <s_sd_BIOSOLVEIT.INFINISEE\_REAGENT1\_SMILES>  (619) 
Fc1cc(ccc1)CNC

>  <s_sd_BIOSOLVEIT.INFINISEE\_REAGENT2\_NAME>  (619) 
EMOL1836585

>  <s_sd_BIOSOLVEIT.INFINISEE\_REAGENT2\_SMILES>  (619) 
S1C(C(=O)O)=C(NC(=O)OC(C)(C)C)C=C1

>  <s_sd_BIOSOLVEIT.INFINISEE\_REAGENT3\_NAME>  (619) 
EMOL45981440

>  <s_sd_BIOSOLVEIT.INFINISEE\_REAGENT3\_SMILES>  (619) 
Brc1c(Cl)cc(cc1)CN(C)C

>  <s_sd_BIOSOLVEIT.INFINISEE\_SPACE>  (619) 
eXplore_7tr_2022-12

>  <s_vsw_compound_code>  (619) 
94209

>  <s_vsw_variant>  (619) 
94209-1

>  <r_epik_Charging_Adjusted_Penalty>  (619) 
0.092316841744443601

>  <r_epik_Ionization_Penalty>  (619) 
0.046199999999999998

>  <r_epik_Ionization_Penalty_Charging>  (619) 
0.046199999999999998

>  <r_epik_Ionization_Penalty_Neutral>  (619) 
0

>  <r_epik_State_Penalty>  (619) 
0.046199999999999998

>  <r_i_docking_score>  (619) 
-3.2928013737602

>  <r_i_glide_ecoul>  (619) 
-10.1935434341431

>  <r_i_glide_eff_state_penalty>  (619) 
0.046199999999999998

>  <r_i_glide_einternal>  (619) 
10.990206718444799

>  <r_i_glide_emodel>  (619) 
-40.333835425822897

>  <r_i_glide_energy>  (619) 
-35.324625968933098

>  <r_i_glide_erotb>  (619) 
0.63704525476611196

>  <r_i_glide_esite>  (619) 
-0.13832964349987401

>  <r_i_glide_evdw>  (619) 
-25.13108253479

>  <r_i_glide_gscore>  (619) 
-3.33900137376019

>  <r_i_glide_hbond>  (619) 
-0.20000000000000001

>  <r_i_glide_ligand_efficiency>  (619) 
-0.11354487495724799

>  <r_i_glide_ligand_efficiency_ln>  (619) 
-0.75396801635267097

>  <r_i_glide_ligand_efficiency_sa>  (619) 
-0.34884582940999298

>  <r_i_glide_lipo>  (619) 
-0.37484647751480399

>  <r_i_glide_metal>  (619) 
-0

>  <r_i_glide_rewards>  (619) 
-0.47728486565066602

>  <r_lp_Energy>  (619) 
27.747485000000001

>  <r_lp_tautomer_probability>  (619) 
0.99999274205267796

>  <r_qp_ACxDN^.5/SA>  (619) 
0

>  <r_qp_CIQPlogS>  (619) 
-6.1299999999999999

>  <r_qp_EA(eV)>  (619) 
0.77500000000000002

>  <r_qp_FISA>  (619) 
30.359000000000002

>  <r_qp_FOSA>  (619) 
245.947

>  <r_qp_IP(eV)>  (619) 
8.1750000000000007

>  <r_qp_Jm>  (619) 
0.192632281522509

>  <r_qp_PISA>  (619) 
245.26400000000001

>  <r_qp_PSA>  (619) 
39.310000000000002

>  <r_qp_PercentHumanOralAbsorption>  (619) 
100

>  <r_qp_QPPCaco>  (619) 
1273.2190000000001

>  <r_qp_QPPMDCK>  (619) 
2547.6320000000001

>  <r_qp_QPlogBB>  (619) 
0.53000000000000003

>  <r_qp_QPlogHERG>  (619) 
-5.306

>  <r_qp_QPlogKhsa>  (619) 
0.64300000000000002

>  <r_qp_QPlogKp>  (619) 
-2.6059999999999999

>  <r_qp_QPlogPC16>  (619) 
12.016999999999999

>  <r_qp_QPlogPo/w>  (619) 
4.9630000000000001

>  <r_qp_QPlogPoct>  (619) 
16.128

>  <r_qp_QPlogPw>  (619) 
6.016

>  <r_qp_QPlogS>  (619) 
-3.7450000000000001

>  <r_qp_QPpolrz>  (619) 
40.296999999999997

>  <r_qp_SASA>  (619) 
622.79700000000003

>  <r_qp_SAamideO>  (619) 
0

>  <r_qp_SAfluorine>  (619) 
14.214

>  <r_qp_WPSA>  (619) 
101.227

>  <r_qp_accptHB>  (619) 
4.5

>  <r_qp_dip^2/V>  (619) 
0.018710999999999998

>  <r_qp_dipole>  (619) 
4.7670000000000003

>  <r_qp_donorHB>  (619) 
0

>  <r_qp_glob>  (619) 
0.88391989999999998

>  <r_qp_mol_MW>  (619) 
431.95499999999998

>  <r_qp_volume>  (619) 
1214.4829999999999

>  <r_sd_BIOSOLVEIT.INFINISEE\_FTREES\_SIMILARITY>  (619) 
0.90400000000000003

>  <r_sd_BIOSOLVEIT.LOGP>  (619) 
4.2008999999999999

>  <r_sd_BIOSOLVEIT.MOLECULAR\_WEIGHT>  (619) 
432.96800000000002

>  <r_sd_BIOSOLVEIT.TPSA>  (619) 
36.780000000000001

>  <i_epik_Tot_Q>  (619) 
1

>  <i_epik_Tot_abs_Q>  (619) 
1

>  <i_f3d_flags>  (619) 
0

>  <i_i_glide_confnum>  (619) 
4

>  <i_i_glide_lignum>  (619) 
1393

>  <i_i_glide_posenum>  (619) 
6

>  <i_i_glide_rotatable_bonds>  (619) 
8

>  <i_lp_mmshare_version>  (619) 
65135

>  <i_m_ct_format>  (619) 
2

>  <i_m_source_file_index>  (619) 
2945

>  <i_qp_#NandO>  (619) 
4

>  <i_qp_#acid>  (619) 
0

>  <i_qp_#amide>  (619) 
0

>  <i_qp_#amidine>  (619) 
0

>  <i_qp_#amine>  (619) 
1

>  <i_qp_#in34>  (619) 
0

>  <i_qp_#in56>  (619) 
17

>  <i_qp_#metab>  (619) 
5

>  <i_qp_#nonHatm>  (619) 
29

>  <i_qp_#noncon>  (619) 
0

>  <i_qp_#ringatoms>  (619) 
17

>  <i_qp_#rotor>  (619) 
7

>  <i_qp_#rtvFG>  (619) 
0

>  <i_qp_#stars>  (619) 
0

>  <i_qp_CNS>  (619) 
2

>  <i_qp_HumanOralAbsorption>  (619) 
3

>  <i_qp_RuleOfFive>  (619) 
0

>  <i_qp_RuleOfThree>  (619) 
0

>  <i_sd_BIOSOLVEIT.INFINISEE\_RESULT\_RANK>  (619) 
79597

>  <i_sd_version>  (619) 
0

>  <b_lp_Chiralities_Consistent>  (619) 
1

>  <b_sd_chiral_flag>  (619) 
0

>  <canonical_id>  (619) 
ATP-HTVS-601F520459A4

>  <compound_code>  (619) 
94209

>  <title>  (619) 
rxn514b____EMOL525080____EMOL1836585____EMOL45981440

>  <variant>  (619) 
94209-1

>  <source_file>  (619) 
运行/运行/ATP-VSW/ATP-VSW-DOCK_HTVS_1-001_lib/ATP-VSW-DOCK_HTVS_1-001_lib

>  <canonical_smiles>  (619) 
CN(Cc1cccc(F)c1)C(=O)c1sccc1Nc1ccc(C[NH+](C)C)cc1Cl

>  <scaffold>  (619) 
O=C(NCc1ccccc1)c1sccc1Nc1ccccc1

>  <molecular_formula>  (619) 
C22H24ClFN3OS+

$$$$
ATP-HTVS-602F8E6702A7
     RDKit          3D

 70 74  0  0  0  0  0  0  0  0999 V2000
  197.2983  183.7506  153.0984 O   0  0  0  0  0  0  0  0  0  0  0  0
  197.9241  184.6901  153.5818 C   0  0  0  0  0  0  0  0  0  0  0  0
  198.7610  185.4631  152.8309 N   0  0  0  0  0  0  0  0  0  0  0  0
  199.4811  186.5728  153.3554 C   0  0  0  0  0  0  0  0  0  0  0  0
  200.4597  186.4031  154.3631 C   0  0  0  0  0  0  0  0  0  0  0  0
  201.1232  187.5235  154.9001 C   0  0  0  0  0  0  0  0  0  0  0  0
  200.8172  188.8162  154.4232 C   0  0  0  0  0  0  0  0  0  0  0  0
  199.8457  188.9892  153.4159 C   0  0  0  0  0  0  0  0  0  0  0  0
  199.1844  187.8668  152.8819 C   0  0  0  0  0  0  0  0  0  0  0  0
  198.9582  185.1752  151.3983 C   0  0  1  0  0  0  0  0  0  0  0  0
  197.7236  184.8873  150.6404 C   0  0  0  0  0  0  0  0  0  0  0  0
  196.7532  184.6551  150.0495 N   0  0  0  0  0  0  0  0  0  0  0  0
  197.7478  184.9875  155.0367 C   0  0  0  0  0  0  0  0  0  0  0  0
  197.2421  186.2390  155.3367 N   0  0  0  0  0  0  0  0  0  0  0  0
  197.1294  186.4269  156.6931 C   0  0  0  0  0  0  0  0  0  0  0  0
  197.5305  185.2040  157.3035 C   0  0  0  0  0  0  0  0  0  0  0  0
  197.4429  185.1633  158.7266 C   0  0  0  0  0  0  0  0  0  0  0  0
  197.0046  186.2695  159.4837 C   0  0  0  0  0  0  0  0  0  0  0  0
  196.6145  187.4558  158.8441 C   0  0  0  0  0  0  0  0  0  0  0  0
  196.6837  187.5372  157.4431 C   0  0  0  0  0  0  0  0  0  0  0  0
  197.9259  184.2995  156.2261 C   0  0  0  0  0  0  0  0  0  0  0  0
  198.4417  182.9870  156.4405 N   0  0  0  0  0  0  0  0  0  0  0  0
  198.0703  181.9198  155.5106 C   0  0  1  0  0  0  0  0  0  0  0  0
  198.9576  180.7035  155.5395 C   0  0  0  0  0  0  0  0  0  0  0  0
  200.3464  180.8525  155.3685 C   0  0  0  0  0  0  0  0  0  0  0  0
  201.1795  179.7192  155.3484 C   0  0  0  0  0  0  0  0  0  0  0  0
  200.6227  178.4285  155.4797 C   0  0  0  0  0  0  0  0  0  0  0  0
  201.4600  177.2831  155.4454 N   0  0  0  0  0  0  0  0  0  0  0  0
  201.1101  176.0706  156.1684 C   0  0  1  0  0  0  0  0  0  0  0  0
  201.1437  174.8702  155.2110 C   0  0  1  0  0  0  0  0  0  0  0  0
  202.4193  174.8012  154.4592 N   0  0  2  0  0  0  0  0  0  0  0  0
  202.6948  176.0581  153.7138 C   0  0  1  0  0  0  0  0  0  0  0  0
  202.6797  177.2780  154.6495 C   0  0  1  0  0  0  0  0  0  0  0  0
  202.4900  173.6053  153.5882 C   0  0  2  0  0  0  0  0  0  0  0  0
  199.2244  178.2967  155.6475 C   0  0  0  0  0  0  0  0  0  0  0  0
  198.3931  179.4311  155.6815 C   0  0  0  0  0  0  0  0  0  0  0  0
  198.8583  182.5503  157.7704 C   0  0  2  0  0  0  0  0  0  0  0  0
  200.6804  185.4175  154.7477 H   0  0  0  0  0  0  0  0  0  0  0  0
  201.8617  187.3944  155.6822 H   0  0  0  0  0  0  0  0  0  0  0  0
  201.3305  189.6772  154.8294 H   0  0  0  0  0  0  0  0  0  0  0  0
  199.5989  189.9816  153.0617 H   0  0  0  0  0  0  0  0  0  0  0  0
  198.4152  187.9956  152.1369 H   0  0  0  0  0  0  0  0  0  0  0  0
  199.4433  186.0103  150.8854 H   0  0  0  0  0  0  0  0  0  0  0  0
  199.6211  184.3107  151.3137 H   0  0  0  0  0  0  0  0  0  0  0  0
  197.0079  186.9280  154.6222 H   0  0  0  0  0  0  0  0  0  0  0  0
  197.6888  184.2792  159.2912 H   0  0  0  0  0  0  0  0  0  0  0  0
  196.9526  186.1914  160.5607 H   0  0  0  0  0  0  0  0  0  0  0  0
  196.2417  188.2922  159.4251 H   0  0  0  0  0  0  0  0  0  0  0  0
  196.3680  188.4357  156.9399 H   0  0  0  0  0  0  0  0  0  0  0  0
  197.0115  181.6525  155.6508 H   0  0  0  0  0  0  0  0  0  0  0  0
  198.2290  182.2408  154.4897 H   0  0  0  0  0  0  0  0  0  0  0  0
  200.7742  181.8362  155.2591 H   0  0  0  0  0  0  0  0  0  0  0  0
  202.2481  179.8679  155.2599 H   0  0  0  0  0  0  0  0  0  0  0  0
  201.8407  175.9326  156.9607 H   0  0  0  0  0  0  0  0  0  0  0  0
  200.1475  176.1360  156.6723 H   0  0  0  0  0  0  0  0  0  0  0  0
  200.9589  173.9377  155.7384 H   0  0  0  0  0  0  0  0  0  0  0  0
  200.3515  174.9814  154.4709 H   0  0  0  0  0  0  0  0  0  0  0  0
  203.6543  175.9982  153.1958 H   0  0  0  0  0  0  0  0  0  0  0  0
  201.9278  176.1928  152.9488 H   0  0  0  0  0  0  0  0  0  0  0  0
  202.7891  178.1826  154.0515 H   0  0  0  0  0  0  0  0  0  0  0  0
  203.5330  177.2417  155.3227 H   0  0  0  0  0  0  0  0  0  0  0  0
  201.7602  173.6845  152.7828 H   0  0  0  0  0  0  0  0  0  0  0  0
  202.2833  172.6921  154.1467 H   0  0  0  0  0  0  0  0  0  0  0  0
  203.4810  173.5078  153.1442 H   0  0  0  0  0  0  0  0  0  0  0  0
  198.7440  177.3375  155.7623 H   0  0  0  0  0  0  0  0  0  0  0  0
  197.3277  179.3202  155.8133 H   0  0  0  0  0  0  0  0  0  0  0  0
  199.2931  183.3482  158.3709 H   0  0  0  0  0  0  0  0  0  0  0  0
  199.6449  181.7953  157.7285 H   0  0  0  0  0  0  0  0  0  0  0  0
  197.9951  182.1106  158.2812 H   0  0  0  0  0  0  0  0  0  0  0  0
  203.1402  174.7109  155.1565 H   0  0  0  0  0  0  0  0  0  0  0  0
  1  2  2  0
  2  3  1  0
  2 13  1  0
  3  4  1  0
  3 10  1  0
  4  5  2  0
  4  9  1  0
  5  6  1  0
  5 38  1  0
  6  7  2  0
  6 39  1  0
  7  8  1  0
  7 40  1  0
  8  9  2  0
  8 41  1  0
  9 42  1  0
 10 11  1  0
 10 43  1  6
 10 44  1  0
 11 12  3  0
 13 14  1  0
 13 21  2  0
 14 15  1  0
 14 45  1  0
 15 16  1  0
 15 20  2  0
 16 17  2  0
 16 21  1  0
 17 18  1  0
 17 46  1  0
 18 19  2  0
 18 47  1  0
 19 20  1  0
 19 48  1  0
 20 49  1  0
 21 22  1  0
 22 23  1  0
 22 37  1  0
 23 24  1  0
 23 50  1  6
 23 51  1  0
 24 25  1  0
 24 36  2  0
 25 26  2  0
 25 52  1  0
 26 27  1  0
 26 53  1  0
 27 28  1  0
 27 35  2  0
 28 29  1  0
 28 33  1  0
 29 30  1  0
 29 54  1  1
 29 55  1  0
 30 31  1  0
 30 56  1  1
 30 57  1  0
 31 32  1  0
 31 34  1  0
 31 70  1  1
 32 33  1  0
 32 58  1  6
 32 59  1  0
 33 60  1  6
 33 61  1  0
 34 62  1  6
 34 63  1  0
 34 64  1  0
 35 36  1  0
 35 65  1  0
 36 66  1  0
 37 67  1  1
 37 68  1  0
 37 69  1  0
M  CHG  1  31   1
M  END
>  <s_epik_cmdline>  (620) 
J2VwaWtfcHl0aG9uJywgJy1waCcsICc3LjAwMDAwMCcsICctcGh0JywgJzIuMDAwMDAwJywgJy1tcycsICcxNicsICctdG4nLCAnOCcsICctbWEnLCAnMjAwJywgJy1pbWFlJywgJzxpbmZpbGUubWFlPicsICctb21hZScsICc8b3V0ZmlsZS5tYWU+Jw==

>  <s_epik_input>  (620) 
W2NIXTFbY0hdW2NIXVtjSF1bY0hdYzFOKFtDSDJdQyNOKUMoPU8pYyhbbkhdMiljKGMoYzIzKVtjSF1bY0hdW2NIXVtjSF0zKU4oW0NIM10pW0NIMl1jNFtjSF1bY0hdYyhbY0hdW2NIXTQpTjVbQ0gyXVtDSDJdTihbQ0gzXSlbQ0gyXVtDSDJdNQ==

>  <s_i_glide_gridfile>  (620) 
ATP-Grid

>  <s_lp_Force_Field>  (620) 
OPLS_2005

>  <s_lp_Variant>  (620) 
rxn512b____EMOL712348____EMOL719673____EMOL64015596-1

>  <s_lp_label>  (620) 
3074_sdstereoexpander_1_neutralizer_1_epik_1_stereoizer_1

>  <s_m_source_file>  (620) 
ATP-VSW-LIGPREP-001-in.maegz

>  <s_sd_BIOSOLVEIT.INFINISEE\_QUERY\_NAME>  (620) 
Ref-Lig

>  <s_sd_BIOSOLVEIT.INFINISEE\_QUERY\_SMILES>  (620) 
S(c1nc2c(cc1C[NH2+]Cc3ccc(cc3)C[NH+](C)C)cccc2)Cc4ccccc4

>  <s_sd_BIOSOLVEIT.INFINISEE\_REACTION\_NAME>  (620) 
rxn512b

>  <s_sd_BIOSOLVEIT.INFINISEE\_REAGENT1\_NAME>  (620) 
EMOL712348

>  <s_sd_BIOSOLVEIT.INFINISEE\_REAGENT1\_SMILES>  (620) 
N#CCNc1ccccc1

>  <s_sd_BIOSOLVEIT.INFINISEE\_REAGENT2\_NAME>  (620) 
EMOL719673

>  <s_sd_BIOSOLVEIT.INFINISEE\_REAGENT2\_SMILES>  (620) 
BrC=1c2c(NC1C(=O)O)cccc2

>  <s_sd_BIOSOLVEIT.INFINISEE\_REAGENT3\_NAME>  (620) 
EMOL64015596

>  <s_sd_BIOSOLVEIT.INFINISEE\_REAGENT3\_SMILES>  (620) 
N1(c2ccc(cc2)CNC)CCN(CC1)C

>  <s_sd_BIOSOLVEIT.INFINISEE\_SPACE>  (620) 
eXplore_7tr_2022-12

>  <s_vsw_compound_code>  (620) 
98337

>  <s_vsw_variant>  (620) 
98337-1

>  <r_epik_Charging_Adjusted_Penalty>  (620) 
0.45731738078275902

>  <r_epik_Ionization_Penalty>  (620) 
0.064699999999999994

>  <r_epik_Ionization_Penalty_Charging>  (620) 
0.053400000000000003

>  <r_epik_Ionization_Penalty_Neutral>  (620) 
0.011299999999999999

>  <r_epik_State_Penalty>  (620) 
0.40389999999999998

>  <r_i_docking_score>  (620) 
-3.6633587060838702

>  <r_i_glide_ecoul>  (620) 
-5.6848645210266104

>  <r_i_glide_eff_state_penalty>  (620) 
0.40389999999999998

>  <r_i_glide_einternal>  (620) 
8.6462297439575195

>  <r_i_glide_emodel>  (620) 
-47.057416360104199

>  <r_i_glide_energy>  (620) 
-38.4987568855286

>  <r_i_glide_erotb>  (620) 
0.58527318951683005

>  <r_i_glide_esite>  (620) 
-0.0073932007195898503

>  <r_i_glide_evdw>  (620) 
-32.813892364502003

>  <r_i_glide_gscore>  (620) 
-4.0672587060838703

>  <r_i_glide_hbond>  (620) 
-0.32000000000000001

>  <r_i_glide_ligand_efficiency>  (620) 
-0.099009694759023506

>  <r_i_glide_ligand_efficiency_ln>  (620) 
-0.79449662203659599

>  <r_i_glide_ligand_efficiency_sa>  (620) 
-0.329922268003706

>  <r_i_glide_lipo>  (620) 
-1.60493071448035

>  <r_i_glide_metal>  (620) 
-0

>  <r_i_glide_rewards>  (620) 
-0.22678368402166801

>  <r_lp_Energy>  (620) 
62.637576000000003

>  <r_qp_ACxDN^.5/SA>  (620) 
0.011173799999999999

>  <r_qp_CIQPlogS>  (620) 
-6.0720000000000001

>  <r_qp_EA(eV)>  (620) 
0.46500000000000002

>  <r_qp_FISA>  (620) 
101.407

>  <r_qp_FOSA>  (620) 
291.67500000000001

>  <r_qp_IP(eV)>  (620) 
7.9470000000000001

>  <r_qp_Jm>  (620) 
6.7181137876809897e-05

>  <r_qp_PISA>  (620) 
367.62599999999998

>  <r_qp_PSA>  (620) 
72.573999999999998

>  <r_qp_PercentHumanOralAbsorption>  (620) 
82.551000000000002

>  <r_qp_QPPCaco>  (620) 
67.307000000000002

>  <r_qp_QPPMDCK>  (620) 
32.762999999999998

>  <r_qp_QPlogBB>  (620) 
-0.023

>  <r_qp_QPlogHERG>  (620) 
-7.3499999999999996

>  <r_qp_QPlogKhsa>  (620) 
0.745

>  <r_qp_QPlogKp>  (620) 
-5.5469999999999997

>  <r_qp_QPlogPC16>  (620) 
15.679

>  <r_qp_QPlogPo/w>  (620) 
3.9089999999999998

>  <r_qp_QPlogPoct>  (620) 
24.292999999999999

>  <r_qp_QPlogPw>  (620) 
13.032999999999999

>  <r_qp_QPlogS>  (620) 
-4.319

>  <r_qp_QPpolrz>  (620) 
53.484999999999999

>  <r_qp_SASA>  (620) 
760.70799999999997

>  <r_qp_SAamideO>  (620) 
0

>  <r_qp_SAfluorine>  (620) 
0

>  <r_qp_WPSA>  (620) 
0

>  <r_qp_accptHB>  (620) 
8.5

>  <r_qp_dip^2/V>  (620) 
0.013059899999999999

>  <r_qp_dipole>  (620) 
4.4480000000000004

>  <r_qp_donorHB>  (620) 
1

>  <r_qp_glob>  (620) 
0.83853770000000005

>  <r_qp_mol_MW>  (620) 
492.62200000000001

>  <r_qp_volume>  (620) 
1514.827

>  <r_sd_BIOSOLVEIT.INFINISEE\_FTREES\_SIMILARITY>  (620) 
0.90200000000000002

>  <r_sd_BIOSOLVEIT.LOGP>  (620) 
3.30938

>  <r_sd_BIOSOLVEIT.MOLECULAR\_WEIGHT>  (620) 
493.63200000000001

>  <r_sd_BIOSOLVEIT.TPSA>  (620) 
70.810000000000002

>  <i_epik_Tot_Q>  (620) 
1

>  <i_epik_Tot_abs_Q>  (620) 
1

>  <i_f3d_flags>  (620) 
0

>  <i_i_glide_confnum>  (620) 
9

>  <i_i_glide_lignum>  (620) 
45

>  <i_i_glide_posenum>  (620) 
7

>  <i_i_glide_rotatable_bonds>  (620) 
8

>  <i_lp_mmshare_version>  (620) 
65135

>  <i_m_ct_format>  (620) 
2

>  <i_m_source_file_index>  (620) 
3074

>  <i_qp_#NandO>  (620) 
7

>  <i_qp_#acid>  (620) 
0

>  <i_qp_#amide>  (620) 
0

>  <i_qp_#amidine>  (620) 
0

>  <i_qp_#amine>  (620) 
2

>  <i_qp_#in34>  (620) 
0

>  <i_qp_#in56>  (620) 
27

>  <i_qp_#metab>  (620) 
6

>  <i_qp_#nonHatm>  (620) 
37

>  <i_qp_#noncon>  (620) 
4

>  <i_qp_#ringatoms>  (620) 
27

>  <i_qp_#rotor>  (620) 
7

>  <i_qp_#rtvFG>  (620) 
0

>  <i_qp_#stars>  (620) 
0

>  <i_qp_CNS>  (620) 
1

>  <i_qp_HumanOralAbsorption>  (620) 
3

>  <i_qp_RuleOfFive>  (620) 
0

>  <i_qp_RuleOfThree>  (620) 
0

>  <i_sd_BIOSOLVEIT.INFINISEE\_RESULT\_RANK>  (620) 
93759

>  <i_sd_version>  (620) 
0

>  <b_lp_Chiralities_Consistent>  (620) 
1

>  <b_sd_chiral_flag>  (620) 
0

>  <canonical_id>  (620) 
ATP-HTVS-602F8E6702A7

>  <compound_code>  (620) 
98337

>  <title>  (620) 
rxn512b____EMOL712348____EMOL719673____EMOL64015596

>  <variant>  (620) 
98337-1

>  <source_file>  (620) 
运行/运行/ATP-VSW/ATP-VSW-DOCK_HTVS_1-002_lib.maegz

>  <canonical_smiles>  (620) 
CN(Cc1ccc(N2CC[NH+](C)CC2)cc1)c1c(C(=O)N(CC#N)c2ccccc2)[nH]c2ccccc12

>  <scaffold>  (620) 
O=C(Nc1ccccc1)c1[nH]c2ccccc2c1NCc1ccc(N2CC[NH2+]CC2)cc1

>  <molecular_formula>  (620) 
C30H33N6O+

$$$$
ATP-HTVS-60B21D6CE655
     RDKit          3D

 63 66  0  0  0  0  0  0  0  0999 V2000
  196.0274  183.8504  151.3396 O   0  0  0  0  0  0  0  0  0  0  0  0
  196.9998  184.2585  151.9888 C   0  0  0  0  0  0  0  0  0  0  0  0
  197.9434  185.0777  151.4383 N   0  0  0  0  0  0  0  0  0  0  0  0
  197.8259  185.4772  150.0183 C   0  0  1  0  0  0  0  0  0  0  0  0
  198.3166  184.4142  149.0288 C   0  0  0  0  0  0  0  0  0  0  0  0
  198.3803  183.0403  149.3821 C   0  0  0  0  0  0  0  0  0  0  0  0
  198.7893  182.0778  148.4437 C   0  0  0  0  0  0  0  0  0  0  0  0
  199.1719  182.4669  147.1458 C   0  0  0  0  0  0  0  0  0  0  0  0
  199.1365  183.8299  146.7924 C   0  0  0  0  0  0  0  0  0  0  0  0
  198.7038  184.7967  147.7233 C   0  0  0  0  0  0  0  0  0  0  0  0
  199.1228  185.6518  152.1306 C   0  0  1  0  0  0  0  0  0  0  0  0
  200.1240  184.5709  152.6003 C   0  0  1  0  0  0  0  0  0  0  0  0
  201.1786  185.2027  153.2868 O   0  0  0  0  0  0  0  0  0  0  0  0
  197.1391  183.8507  153.4284 C   0  0  0  0  0  0  0  0  0  0  0  0
  197.1524  182.4959  153.8689 C   0  0  0  0  0  0  0  0  0  0  0  0
  197.2715  182.2442  155.2718 C   0  0  0  0  0  0  0  0  0  0  0  0
  197.4090  183.2482  156.1683 N   0  0  0  0  0  0  0  0  0  0  0  0
  197.3548  184.5304  155.7589 C   0  0  0  0  0  0  0  0  0  0  0  0
  197.4835  185.5648  156.8117 C   0  0  0  0  0  0  0  0  0  0  0  0
  198.0224  185.2630  158.0846 C   0  0  0  0  0  0  0  0  0  0  0  0
  198.1135  186.2490  159.0845 C   0  0  0  0  0  0  0  0  0  0  0  0
  197.6853  187.5705  158.8271 C   0  0  0  0  0  0  0  0  0  0  0  0
  197.1564  187.8843  157.5616 C   0  0  0  0  0  0  0  0  0  0  0  0
  197.0716  186.8960  156.5722 C   0  0  0  0  0  0  0  0  0  0  0  0
  197.8225  188.6541  159.8833 C   0  0  1  0  0  0  0  0  0  0  0  0
  199.0658  189.4557  159.7339 N   0  0  2  0  0  0  0  0  0  0  0  0
  198.9879  190.4533  158.6387 C   0  0  2  0  0  0  0  0  0  0  0  0
  200.3064  188.6474  159.6595 C   0  0  2  0  0  0  0  0  0  0  0  0
  197.1856  184.8624  154.4061 C   0  0  0  0  0  0  0  0  0  0  0  0
  197.2647  180.9142  155.7352 C   0  0  0  0  0  0  0  0  0  0  0  0
  197.1567  179.8324  154.8468 C   0  0  0  0  0  0  0  0  0  0  0  0
  197.0516  180.0716  153.4647 C   0  0  0  0  0  0  0  0  0  0  0  0
  197.0463  181.3916  152.9786 C   0  0  0  0  0  0  0  0  0  0  0  0
  196.7906  185.7373  149.7774 H   0  0  0  0  0  0  0  0  0  0  0  0
  198.3607  186.4070  149.8220 H   0  0  0  0  0  0  0  0  0  0  0  0
  198.1117  182.6700  150.3608 H   0  0  0  0  0  0  0  0  0  0  0  0
  198.7996  181.0401  148.7351 H   0  0  0  0  0  0  0  0  0  0  0  0
  199.4970  181.7154  146.4403 H   0  0  0  0  0  0  0  0  0  0  0  0
  199.4425  184.1309  145.7984 H   0  0  0  0  0  0  0  0  0  0  0  0
  198.6744  185.8397  147.4324 H   0  0  0  0  0  0  0  0  0  0  0  0
  199.6844  186.3107  151.4567 H   0  0  0  0  0  0  0  0  0  0  0  0
  198.8239  186.3081  152.9592 H   0  0  0  0  0  0  0  0  0  0  0  0
  199.6870  183.8552  153.2855 H   0  0  0  0  0  0  0  0  0  0  0  0
  200.5086  184.0073  151.7533 H   0  0  0  0  0  0  0  0  0  0  0  0
  200.8291  185.6021  154.0699 H   0  0  0  0  0  0  0  0  0  0  0  0
  198.3720  184.2647  158.3065 H   0  0  0  0  0  0  0  0  0  0  0  0
  198.5272  185.9796  160.0483 H   0  0  0  0  0  0  0  0  0  0  0  0
  196.8225  188.8881  157.3368 H   0  0  0  0  0  0  0  0  0  0  0  0
  196.6620  187.1953  155.6226 H   0  0  0  0  0  0  0  0  0  0  0  0
  196.9447  189.3013  159.8597 H   0  0  0  0  0  0  0  0  0  0  0  0
  197.8217  188.1951  160.8721 H   0  0  0  0  0  0  0  0  0  0  0  0
  198.8871  189.9736  157.6644 H   0  0  0  0  0  0  0  0  0  0  0  0
  199.8892  191.0676  158.5966 H   0  0  0  0  0  0  0  0  0  0  0  0
  198.1343  191.1186  158.7749 H   0  0  0  0  0  0  0  0  0  0  0  0
  200.3353  188.0282  158.7601 H   0  0  0  0  0  0  0  0  0  0  0  0
  200.3883  187.9996  160.5315 H   0  0  0  0  0  0  0  0  0  0  0  0
  201.1874  189.2880  159.6423 H   0  0  0  0  0  0  0  0  0  0  0  0
  197.1049  185.8909  154.0980 H   0  0  0  0  0  0  0  0  0  0  0  0
  197.3311  180.7170  156.7924 H   0  0  0  0  0  0  0  0  0  0  0  0
  197.1478  178.8309  155.2443 H   0  0  0  0  0  0  0  0  0  0  0  0
  196.9667  179.2413  152.7829 H   0  0  0  0  0  0  0  0  0  0  0  0
  196.9564  181.5337  151.9126 H   0  0  0  0  0  0  0  0  0  0  0  0
  199.1466  189.9507  160.6184 H   0  0  0  0  0  0  0  0  0  0  0  0
  1  2  2  0
  2  3  1  0
  2 14  1  0
  3  4  1  0
  3 11  1  0
  4  5  1  0
  4 34  1  6
  4 35  1  0
  5  6  2  0
  5 10  1  0
  6  7  1  0
  6 36  1  0
  7  8  2  0
  7 37  1  0
  8  9  1  0
  8 38  1  0
  9 10  2  0
  9 39  1  0
 10 40  1  0
 11 12  1  0
 11 41  1  6
 11 42  1  0
 12 13  1  0
 12 43  1  1
 12 44  1  0
 13 45  1  0
 14 15  1  0
 14 29  2  0
 15 16  1  0
 15 33  2  0
 16 17  1  0
 16 30  2  0
 17 18  2  0
 18 19  1  0
 18 29  1  0
 19 20  1  0
 19 24  2  0
 20 21  2  0
 20 46  1  0
 21 22  1  0
 21 47  1  0
 22 23  2  0
 22 25  1  0
 23 24  1  0
 23 48  1  0
 24 49  1  0
 25 26  1  0
 25 50  1  1
 25 51  1  0
 26 27  1  0
 26 28  1  0
 26 63  1  1
 27 52  1  6
 27 53  1  0
 27 54  1  0
 28 55  1  6
 28 56  1  0
 28 57  1  0
 29 58  1  0
 30 31  1  0
 30 59  1  0
 31 32  2  0
 31 60  1  0
 32 33  1  0
 32 61  1  0
 33 62  1  0
M  CHG  1  26   1
M  END
>  <s_epik_cmdline>  (621) 
J2VwaWtfcHl0aG9uJywgJy1waCcsICc3LjAwMDAwMCcsICctcGh0JywgJzIuMDAwMDAwJywgJy1tcycsICcxNicsICctdG4nLCAnOCcsICctbWEnLCAnMjAwJywgJy1pbWFlJywgJzxpbmZpbGUubWFlPicsICctb21hZScsICc8b3V0ZmlsZS5tYWU+Jw==

>  <s_epik_input>  (621) 
W2NIXTFbY0hdW2NIXVtjSF1bY0hdYzFbQ0gyXU4oW0NIMl1bQ0gyXVtPSF0pQyg9TyljMltjSF1jKG5jKGMyMylbY0hdW2NIXVtjSF1bY0hdMyktYzRbY0hdW2NIXWMoW2NIXVtjSF00KVtDSDJdTihbQ0gzXSlbQ0gzXQ==

>  <s_i_glide_gridfile>  (621) 
ATP-Grid

>  <s_lp_Force_Field>  (621) 
OPLS_2005

>  <s_lp_Variant>  (621) 
WXDL_14____AN0004____LN00173385____BT1629-1

>  <s_lp_label>  (621) 
633_sdstereoexpander_1_neutralizer_1_epik_1_stereoizer_1

>  <s_m_source_file>  (621) 
ATP-VSW-LIGPREP-003-in.maegz

>  <s_sd_BIOSOLVEIT.INFINISEE\_QUERY\_NAME>  (621) 
Ref-Lig

>  <s_sd_BIOSOLVEIT.INFINISEE\_QUERY\_SMILES>  (621) 
S(c1nc2c(cc1C[NH2+]Cc3ccc(cc3)C[NH+](C)C)cccc2)Cc4ccccc4

>  <s_sd_BIOSOLVEIT.INFINISEE\_REACTION\_NAME>  (621) 
WXDL_14

>  <s_sd_BIOSOLVEIT.INFINISEE\_REAGENT1\_NAME>  (621) 
AN0004

>  <s_sd_BIOSOLVEIT.INFINISEE\_REAGENT1\_SMILES>  (621) 
OCCNCc1ccccc1

>  <s_sd_BIOSOLVEIT.INFINISEE\_REAGENT2\_NAME>  (621) 
LN00173385

>  <s_sd_BIOSOLVEIT.INFINISEE\_REAGENT2\_SMILES>  (621) 
Brc1nc2c(c(c1)C(=O)O)cccc2

>  <s_sd_BIOSOLVEIT.INFINISEE\_REAGENT3\_NAME>  (621) 
BT1629

>  <s_sd_BIOSOLVEIT.INFINISEE\_REAGENT3\_SMILES>  (621) 
OB(O)c1ccc(cc1)CN(C)C

>  <s_sd_BIOSOLVEIT.INFINISEE\_SPACE>  (621) 
GalaXi_12bn_2023-03

>  <s_vsw_compound_code>  (621) 
20227

>  <s_vsw_variant>  (621) 
20227-1

>  <r_epik_Charging_Adjusted_Penalty>  (621) 
0.092194221250408104

>  <r_epik_Ionization_Penalty>  (621) 
0.046100000000000002

>  <r_epik_Ionization_Penalty_Charging>  (621) 
0.046100000000000002

>  <r_epik_Ionization_Penalty_Neutral>  (621) 
0

>  <r_epik_State_Penalty>  (621) 
0.046100000000000002

>  <r_i_docking_score>  (621) 
-3.4221098800974699

>  <r_i_glide_ecoul>  (621) 
-5.3856182098388699

>  <r_i_glide_eff_state_penalty>  (621) 
0.046100000000000002

>  <r_i_glide_einternal>  (621) 
2.1404211521148699

>  <r_i_glide_emodel>  (621) 
-46.901845305928099

>  <r_i_glide_energy>  (621) 
-37.158721923828097

>  <r_i_glide_erotb>  (621) 
0.72014684000360996

>  <r_i_glide_esite>  (621) 
-0.091486315765879705

>  <r_i_glide_evdw>  (621) 
-31.7731037139893

>  <r_i_glide_gscore>  (621) 
-3.4682098800974699

>  <r_i_glide_hbond>  (621) 
-0.147197814375508

>  <r_i_glide_ligand_efficiency>  (621) 
-0.103700299396893

>  <r_i_glide_ligand_efficiency_ln>  (621) 
-0.76105951859700505

>  <r_i_glide_ligand_efficiency_sa>  (621) 
-0.33262226995870797

>  <r_i_glide_lipo>  (621) 
-1.1478794455116701

>  <r_i_glide_metal>  (621) 
-0

>  <r_i_glide_rewards>  (621) 
-0.40529522727272499

>  <r_lp_Energy>  (621) 
37.795171000000003

>  <r_qp_ACxDN^.5/SA>  (621) 
0.0095799000000000006

>  <r_qp_CIQPlogS>  (621) 
-5.3310000000000004

>  <r_qp_EA(eV)>  (621) 
1.1359999999999999

>  <r_qp_FISA>  (621) 
93.096999999999994

>  <r_qp_FOSA>  (621) 
255.81899999999999

>  <r_qp_IP(eV)>  (621) 
8.8629999999999995

>  <r_qp_Jm>  (621) 
0.0033373069504108702

>  <r_qp_PISA>  (621) 
454.84899999999999

>  <r_qp_PSA>  (621) 
61.938000000000002

>  <r_qp_PercentHumanOralAbsorption>  (621) 
100

>  <r_qp_QPPCaco>  (621) 
323.56599999999997

>  <r_qp_QPPMDCK>  (621) 
161.643

>  <r_qp_QPlogBB>  (621) 
-0.61299999999999999

>  <r_qp_QPlogHERG>  (621) 
-8.0649999999999995

>  <r_qp_QPlogKhsa>  (621) 
0.65200000000000002

>  <r_qp_QPlogKp>  (621) 
-2.831

>  <r_qp_QPlogPC16>  (621) 
16.058

>  <r_qp_QPlogPo/w>  (621) 
4.5720000000000001

>  <r_qp_QPlogPoct>  (621) 
22.664000000000001

>  <r_qp_QPlogPw>  (621) 
12.444000000000001

>  <r_qp_QPlogS>  (621) 
-5.2880000000000003

>  <r_qp_QPpolrz>  (621) 
50.938000000000002

>  <r_qp_SASA>  (621) 
803.76499999999999

>  <r_qp_SAamideO>  (621) 
0

>  <r_qp_SAfluorine>  (621) 
0

>  <r_qp_WPSA>  (621) 
0

>  <r_qp_accptHB>  (621) 
7.7000000000000002

>  <r_qp_dip^2/V>  (621) 
0.012212000000000001

>  <r_qp_dipole>  (621) 
4.226

>  <r_qp_donorHB>  (621) 
1

>  <r_qp_glob>  (621) 
0.77521169999999995

>  <r_qp_mol_MW>  (621) 
439.55599999999998

>  <r_qp_volume>  (621) 
1462.4349999999999

>  <r_sd_BIOSOLVEIT.INFINISEE\_FTREES\_SIMILARITY>  (621) 
0.90900000000000003

>  <r_sd_BIOSOLVEIT.LOGP>  (621) 
3.181

>  <r_sd_BIOSOLVEIT.MOLECULAR\_WEIGHT>  (621) 
440.56400000000002

>  <r_sd_BIOSOLVEIT.TPSA>  (621) 
57.869999999999997

>  <i_epik_Tot_Q>  (621) 
1

>  <i_epik_Tot_abs_Q>  (621) 
1

>  <i_f3d_flags>  (621) 
0

>  <i_i_glide_confnum>  (621) 
2

>  <i_i_glide_lignum>  (621) 
261

>  <i_i_glide_posenum>  (621) 
18

>  <i_i_glide_rotatable_bonds>  (621) 
10

>  <i_lp_mmshare_version>  (621) 
65135

>  <i_m_ct_format>  (621) 
2

>  <i_m_source_file_index>  (621) 
633

>  <i_qp_#NandO>  (621) 
5

>  <i_qp_#acid>  (621) 
0

>  <i_qp_#amide>  (621) 
0

>  <i_qp_#amidine>  (621) 
0

>  <i_qp_#amine>  (621) 
1

>  <i_qp_#in34>  (621) 
0

>  <i_qp_#in56>  (621) 
22

>  <i_qp_#metab>  (621) 
4

>  <i_qp_#nonHatm>  (621) 
33

>  <i_qp_#noncon>  (621) 
0

>  <i_qp_#ringatoms>  (621) 
22

>  <i_qp_#rotor>  (621) 
9

>  <i_qp_#rtvFG>  (621) 
0

>  <i_qp_#stars>  (621) 
1

>  <i_qp_CNS>  (621) 
1

>  <i_qp_HumanOralAbsorption>  (621) 
3

>  <i_qp_RuleOfFive>  (621) 
0

>  <i_qp_RuleOfThree>  (621) 
0

>  <i_sd_BIOSOLVEIT.INFINISEE\_RESULT\_RANK>  (621) 
50831

>  <i_sd_version>  (621) 
0

>  <b_lp_Chiralities_Consistent>  (621) 
1

>  <b_sd_chiral_flag>  (621) 
0

>  <canonical_id>  (621) 
ATP-HTVS-60B21D6CE655

>  <compound_code>  (621) 
20227

>  <title>  (621) 
WXDL_14____AN0004____LN00173385____BT1629

>  <variant>  (621) 
20227-1

>  <source_file>  (621) 
运行/运行/ATP-VSW/ATP-VSW-DOCK_HTVS_1-003_lib/ATP-VSW-DOCK_HTVS_1-003_lib.mae

>  <canonical_smiles>  (621) 
C[NH+](C)Cc1ccc(-c2cc(C(=O)N(CCO)Cc3ccccc3)c3ccccc3n2)cc1

>  <scaffold>  (621) 
O=C(NCc1ccccc1)c1cc(-c2ccccc2)nc2ccccc12

>  <molecular_formula>  (621) 
C28H30N3O2+

$$$$
ATP-HTVS-60B70570E761
     RDKit          3D

 63 65  0  0  0  0  0  0  0  0999 V2000
  198.1759  184.6537  146.2982 F   0  0  0  0  0  0  0  0  0  0  0  0
  198.3265  184.9581  147.6080 C   0  0  0  0  0  0  0  0  0  0  0  0
  197.2687  184.7225  148.5052 C   0  0  0  0  0  0  0  0  0  0  0  0
  197.4194  185.0350  149.8678 C   0  0  0  0  0  0  0  0  0  0  0  0
  198.6295  185.5911  150.3319 C   0  0  0  0  0  0  0  0  0  0  0  0
  199.6913  185.8213  149.4345 C   0  0  0  0  0  0  0  0  0  0  0  0
  199.5386  185.5059  148.0718 C   0  0  0  0  0  0  0  0  0  0  0  0
  198.7874  185.9259  151.7970 C   0  0  1  0  0  0  0  0  0  0  0  0
  199.1401  187.2879  152.0093 O   0  0  0  0  0  0  0  0  0  0  0  0
  199.2512  187.7212  153.3105 C   0  0  0  0  0  0  0  0  0  0  0  0
  199.6959  189.0409  153.5445 C   0  0  0  0  0  0  0  0  0  0  0  0
  199.9569  189.8100  152.4273 O   0  0  0  0  0  0  0  0  0  0  0  0
  200.3698  191.1520  152.6213 C   0  0  2  0  0  0  0  0  0  0  0  0
  199.8639  189.4931  154.8779 C   0  0  0  0  0  0  0  0  0  0  0  0
  199.6011  188.6463  155.9806 C   0  0  0  0  0  0  0  0  0  0  0  0
  199.0977  187.3530  155.7319 C   0  0  0  0  0  0  0  0  0  0  0  0
  198.9349  186.8959  154.4119 C   0  0  0  0  0  0  0  0  0  0  0  0
  199.9275  189.1287  157.3993 C   0  0  1  0  0  0  0  0  0  0  0  0
  199.1760  188.5049  158.4943 N   0  0  0  0  0  0  0  0  0  0  0  0
  199.5288  187.1092  158.7461 C   0  0  1  0  0  0  0  0  0  0  0  0
  198.3305  186.1922  158.8383 C   0  0  0  0  0  0  0  0  0  0  0  0
  198.5143  184.8622  159.2867 C   0  0  0  0  0  0  0  0  0  0  0  0
  197.4089  183.9841  159.4131 C   0  0  0  0  0  0  0  0  0  0  0  0
  196.1265  184.4023  159.0293 C   0  0  0  0  0  0  0  0  0  0  0  0
  195.9469  185.7138  158.5287 C   0  0  0  0  0  0  0  0  0  0  0  0
  197.0420  186.6003  158.4257 C   0  0  0  0  0  0  0  0  0  0  0  0
  194.9338  183.4700  159.1693 C   0  0  1  0  0  0  0  0  0  0  0  0
  194.8049  182.4378  158.0917 N   0  0  2  0  0  0  0  0  0  0  0  0
  193.7693  181.4367  158.4146 C   0  0  2  0  0  0  0  0  0  0  0  0
  196.0847  181.7871  157.7202 C   0  0  2  0  0  0  0  0  0  0  0  0
  199.3769  189.2661  159.7264 C   0  0  2  0  0  0  0  0  0  0  0  0
  196.3435  184.2996  148.1479 H   0  0  0  0  0  0  0  0  0  0  0  0
  196.6049  184.8542  150.5545 H   0  0  0  0  0  0  0  0  0  0  0  0
  200.6151  186.2518  149.7952 H   0  0  0  0  0  0  0  0  0  0  0  0
  200.3488  185.6843  147.3818 H   0  0  0  0  0  0  0  0  0  0  0  0
  197.8480  185.6961  152.2943 H   0  0  0  0  0  0  0  0  0  0  0  0
  199.5499  185.2740  152.2207 H   0  0  0  0  0  0  0  0  0  0  0  0
  200.5573  191.5914  151.6411 H   0  0  0  0  0  0  0  0  0  0  0  0
  201.2970  191.2034  153.1968 H   0  0  0  0  0  0  0  0  0  0  0  0
  199.5912  191.7373  153.1162 H   0  0  0  0  0  0  0  0  0  0  0  0
  200.2145  190.4902  155.0932 H   0  0  0  0  0  0  0  0  0  0  0  0
  198.8641  186.6588  156.5460 H   0  0  0  0  0  0  0  0  0  0  0  0
  198.5802  185.8873  154.2935 H   0  0  0  0  0  0  0  0  0  0  0  0
  200.9909  188.9857  157.5847 H   0  0  0  0  0  0  0  0  0  0  0  0
  199.7520  190.1983  157.4321 H   0  0  0  0  0  0  0  0  0  0  0  0
  200.2085  186.7359  157.9710 H   0  0  0  0  0  0  0  0  0  0  0  0
  200.0837  187.0165  159.6928 H   0  0  0  0  0  0  0  0  0  0  0  0
  199.5069  184.5066  159.5264 H   0  0  0  0  0  0  0  0  0  0  0  0
  197.5837  182.9924  159.7818 H   0  0  0  0  0  0  0  0  0  0  0  0
  194.9817  186.0337  158.1770 H   0  0  0  0  0  0  0  0  0  0  0  0
  196.8667  187.5721  157.9949 H   0  0  0  0  0  0  0  0  0  0  0  0
  195.0281  182.9778  160.1301 H   0  0  0  0  0  0  0  0  0  0  0  0
  194.0102  184.0493  159.2195 H   0  0  0  0  0  0  0  0  0  0  0  0
  194.0047  180.8954  159.3329 H   0  0  0  0  0  0  0  0  0  0  0  0
  193.6846  180.7074  157.6071 H   0  0  0  0  0  0  0  0  0  0  0  0
  192.7933  181.9097  158.5261 H   0  0  0  0  0  0  0  0  0  0  0  0
  196.5097  181.2534  158.5683 H   0  0  0  0  0  0  0  0  0  0  0  0
  196.8176  182.5050  157.3486 H   0  0  0  0  0  0  0  0  0  0  0  0
  195.9159  181.0489  156.9241 H   0  0  0  0  0  0  0  0  0  0  0  0
  199.0694  190.3050  159.6191 H   0  0  0  0  0  0  0  0  0  0  0  0
  200.4210  189.2551  160.0344 H   0  0  0  0  0  0  0  0  0  0  0  0
  198.7814  188.8361  160.5313 H   0  0  0  0  0  0  0  0  0  0  0  0
  194.4798  182.8786  157.2502 H   0  0  0  0  0  0  0  0  0  0  0  0
  1  2  1  0
  2  3  1  0
  2  7  2  0
  3  4  2  0
  3 32  1  0
  4  5  1  0
  4 33  1  0
  5  6  2  0
  5  8  1  0
  6  7  1  0
  6 34  1  0
  7 35  1  0
  8  9  1  0
  8 36  1  1
  8 37  1  0
  9 10  1  0
 10 11  2  0
 10 17  1  0
 11 12  1  0
 11 14  1  0
 12 13  1  0
 13 38  1  6
 13 39  1  0
 13 40  1  0
 14 15  2  0
 14 41  1  0
 15 16  1  0
 15 18  1  0
 16 17  2  0
 16 42  1  0
 17 43  1  0
 18 19  1  0
 18 44  1  1
 18 45  1  0
 19 20  1  0
 19 31  1  0
 20 21  1  0
 20 46  1  6
 20 47  1  0
 21 22  1  0
 21 26  2  0
 22 23  2  0
 22 48  1  0
 23 24  1  0
 23 49  1  0
 24 25  2  0
 24 27  1  0
 25 26  1  0
 25 50  1  0
 26 51  1  0
 27 28  1  0
 27 52  1  1
 27 53  1  0
 28 29  1  0
 28 30  1  0
 28 63  1  6
 29 54  1  1
 29 55  1  0
 29 56  1  0
 30 57  1  1
 30 58  1  0
 30 59  1  0
 31 60  1  6
 31 61  1  0
 31 62  1  0
M  CHG  1  28   1
M  END
>  <s_epik_cmdline>  (622) 
J2VwaWtfcHl0aG9uJywgJy1waCcsICc3LjAwMDAwMCcsICctcGh0JywgJzIuMDAwMDAwJywgJy1tcycsICcxNicsICctdG4nLCAnOCcsICctbWEnLCAnMjAwJywgJy1pbWFlJywgJzxpbmZpbGUubWFlPicsICctb21hZScsICc8b3V0ZmlsZS5tYWU+Jw==

>  <s_epik_input>  (622) 
RmMxW2NIXVtjSF1jKFtjSF1bY0hdMSlbQ0gyXU9jMmMoT1tDSDNdKVtjSF1jKFtjSF1bY0hdMilbQ0gyXU4oW0NIM10pW0NIMl1jM1tjSF1bY0hdYyhbY0hdW2NIXTMpW0NIMl1OKFtDSDNdKVtDSDNd

>  <s_i_glide_gridfile>  (622) 
ATP-Grid

>  <s_lp_Force_Field>  (622) 
OPLS_2005

>  <s_lp_Variant>  (622) 
m_270004bca____10206040____7547124-3

>  <s_lp_label>  (622) 
1966_sdstereoexpander_1_neutralizer_1_epik_2_stereoizer_1

>  <s_m_source_file>  (622) 
ATP-VSW-LIGPREP-003-in.maegz

>  <s_sd_BIOSOLVEIT.INFINISEE\_QUERY\_NAME>  (622) 
Ref-Lig

>  <s_sd_BIOSOLVEIT.INFINISEE\_QUERY\_SMILES>  (622) 
S(c1nc2c(cc1C[NH2+]Cc3ccc(cc3)C[NH+](C)C)cccc2)Cc4ccccc4

>  <s_sd_BIOSOLVEIT.INFINISEE\_REACTION\_NAME>  (622) 
m_270004bca

>  <s_sd_BIOSOLVEIT.INFINISEE\_REAGENT1\_SMILES>  (622) 
[R1*]N(Cc1ccc(cc1)CN(C)C)C

>  <s_sd_BIOSOLVEIT.INFINISEE\_REAGENT2\_SMILES>  (622) 
[R1*]Cc1cc(OC)c(OCc2ccc(F)cc2)cc1

>  <s_sd_BIOSOLVEIT.INFINISEE\_SPACE>  (622) 
REALSpace_44bn_2023-08

>  <s_vsw_compound_code>  (622) 
62883

>  <s_vsw_variant>  (622) 
62883-3

>  <r_epik_Charging_Adjusted_Penalty>  (622) 
0.98566253222276601

>  <r_epik_Ionization_Penalty>  (622) 
0.9546

>  <r_epik_Ionization_Penalty_Charging>  (622) 
0.045400000000000003

>  <r_epik_Ionization_Penalty_Neutral>  (622) 
0.90920000000000001

>  <r_epik_State_Penalty>  (622) 
0.94030000000000002

>  <r_i_docking_score>  (622) 
-4.0744662100750304

>  <r_i_glide_ecoul>  (622) 
-8.1449079513549805

>  <r_i_glide_eff_state_penalty>  (622) 
0.94030000000000002

>  <r_i_glide_einternal>  (622) 
9.2466325759887695

>  <r_i_glide_emodel>  (622) 
-53.181544037482297

>  <r_i_glide_energy>  (622) 
-39.8121881484985

>  <r_i_glide_erotb>  (622) 
0.883906693531746

>  <r_i_glide_esite>  (622) 
-0.0994521609010591

>  <r_i_glide_evdw>  (622) 
-31.667280197143601

>  <r_i_glide_gscore>  (622) 
-5.0147662100750301

>  <r_i_glide_hbond>  (622) 
-0.20000000000000001

>  <r_i_glide_ligand_efficiency>  (622) 
-0.13143439387338801

>  <r_i_glide_ligand_efficiency_ln>  (622) 
-0.91891699776525104

>  <r_i_glide_ligand_efficiency_sa>  (622) 
-0.41288546150003602

>  <r_i_glide_lipo>  (622) 
-2.00293509810027

>  <r_i_glide_metal>  (622) 
-0

>  <r_i_glide_rewards>  (622) 
-0.79118544204501995

>  <r_lp_Energy>  (622) 
27.223075000000001

>  <r_lp_tautomer_probability>  (622) 
1

>  <r_qp_ACxDN^.5/SA>  (622) 
0

>  <r_qp_CIQPlogS>  (622) 
-4.4779999999999998

>  <r_qp_EA(eV)>  (622) 
0.096000000000000002

>  <r_qp_FISA>  (622) 
3.4420000000000002

>  <r_qp_FOSA>  (622) 
357.35899999999998

>  <r_qp_IP(eV)>  (622) 
8.6310000000000002

>  <r_qp_Jm>  (622) 
0.47450959223398398

>  <r_qp_PISA>  (622) 
259.14800000000002

>  <r_qp_PSA>  (622) 
24.385000000000002

>  <r_qp_PercentHumanOralAbsorption>  (622) 
100

>  <r_qp_QPPCaco>  (622) 
571.56200000000001

>  <r_qp_QPPMDCK>  (622) 
598.57299999999998

>  <r_qp_QPlogBB>  (622) 
0.84299999999999997

>  <r_qp_QPlogHERG>  (622) 
-6.266

>  <r_qp_QPlogKhsa>  (622) 
0.56100000000000005

>  <r_qp_QPlogKp>  (622) 
-3.835

>  <r_qp_QPlogPC16>  (622) 
12.013999999999999

>  <r_qp_QPlogPo/w>  (622) 
4.649

>  <r_qp_QPlogPoct>  (622) 
17.013999999999999

>  <r_qp_QPlogPw>  (622) 
6.3380000000000001

>  <r_qp_QPlogS>  (622) 
-2.1139999999999999

>  <r_qp_QPpolrz>  (622) 
42.823999999999998

>  <r_qp_SASA>  (622) 
666.97199999999998

>  <r_qp_SAamideO>  (622) 
0

>  <r_qp_SAfluorine>  (622) 
47.023000000000003

>  <r_qp_WPSA>  (622) 
47.023000000000003

>  <r_qp_accptHB>  (622) 
5.5

>  <r_qp_dip^2/V>  (622) 
0.0135014

>  <r_qp_dipole>  (622) 
4.2249999999999996

>  <r_qp_donorHB>  (622) 
0

>  <r_qp_glob>  (622) 
0.87359030000000004

>  <r_qp_mol_MW>  (622) 
422.541

>  <r_qp_volume>  (622) 
1322.4390000000001

>  <r_sd_BIOSOLVEIT.INFINISEE\_FTREES\_SIMILARITY>  (622) 
0.90200000000000002

>  <r_sd_BIOSOLVEIT.LOGP>  (622) 
2.2726999999999999

>  <r_sd_BIOSOLVEIT.MOLECULAR\_WEIGHT>  (622) 
424.55700000000002

>  <r_sd_BIOSOLVEIT.TPSA>  (622) 
27.34

>  <i_epik_Tot_Q>  (622) 
1

>  <i_epik_Tot_abs_Q>  (622) 
1

>  <i_f3d_flags>  (622) 
0

>  <i_i_glide_confnum>  (622) 
9

>  <i_i_glide_lignum>  (622) 
743

>  <i_i_glide_posenum>  (622) 
18

>  <i_i_glide_rotatable_bonds>  (622) 
10

>  <i_lp_mmshare_version>  (622) 
65135

>  <i_m_ct_format>  (622) 
2

>  <i_m_source_file_index>  (622) 
1966

>  <i_qp_#NandO>  (622) 
4

>  <i_qp_#acid>  (622) 
0

>  <i_qp_#amide>  (622) 
0

>  <i_qp_#amidine>  (622) 
0

>  <i_qp_#amine>  (622) 
2

>  <i_qp_#in34>  (622) 
0

>  <i_qp_#in56>  (622) 
18

>  <i_qp_#metab>  (622) 
8

>  <i_qp_#nonHatm>  (622) 
31

>  <i_qp_#noncon>  (622) 
0

>  <i_qp_#ringatoms>  (622) 
18

>  <i_qp_#rotor>  (622) 
10

>  <i_qp_#rtvFG>  (622) 
0

>  <i_qp_#stars>  (622) 
1

>  <i_qp_CNS>  (622) 
2

>  <i_qp_HumanOralAbsorption>  (622) 
3

>  <i_qp_RuleOfFive>  (622) 
0

>  <i_qp_RuleOfThree>  (622) 
1

>  <i_sd_BIOSOLVEIT.INFINISEE\_REAGENT1\_NAME>  (622) 
10206040

>  <i_sd_BIOSOLVEIT.INFINISEE\_REAGENT2\_NAME>  (622) 
7547124

>  <i_sd_BIOSOLVEIT.INFINISEE\_RESULT\_RANK>  (622) 
88459

>  <i_sd_version>  (622) 
0

>  <b_lp_Chiralities_Consistent>  (622) 
1

>  <b_sd_chiral_flag>  (622) 
0

>  <canonical_id>  (622) 
ATP-HTVS-60B70570E761

>  <compound_code>  (622) 
62883

>  <title>  (622) 
m_270004bca____10206040____7547124

>  <variant>  (622) 
62883-3

>  <source_file>  (622) 
运行/运行/ATP-VSW/ATP-VSW-DOCK_HTVS_1-003_lib/ATP-VSW-DOCK_HTVS_1-003_lib.mae

>  <canonical_smiles>  (622) 
COc1cc(CN(C)Cc2ccc(C[NH+](C)C)cc2)ccc1OCc1ccc(F)cc1

>  <scaffold>  (622) 
c1ccc(CNCc2ccc(OCc3ccccc3)cc2)cc1

>  <molecular_formula>  (622) 
C26H32FN2O2+

$$$$
ATP-HTVS-60C7695B6F0C
     RDKit          3D

 58 61  0  0  0  0  0  0  0  0999 V2000
  198.6999  186.0141  152.2486 S   0  0  0  0  0  0  0  0  0  0  0  0
  198.1741  185.3379  150.7221 C   0  0  0  0  0  0  0  0  0  0  0  0
  197.3549  184.1827  150.9124 C   0  0  0  0  0  0  0  0  0  0  0  0
  196.8383  183.5617  149.7554 C   0  0  0  0  0  0  0  0  0  0  0  0
  197.1223  184.0552  148.4651 C   0  0  0  0  0  0  0  0  0  0  0  0
  197.9332  185.1868  148.3118 C   0  0  0  0  0  0  0  0  0  0  0  0
  198.4661  185.8243  149.4415 C   0  0  0  0  0  0  0  0  0  0  0  0
  197.1873  183.8726  152.3117 C   0  0  0  0  0  0  0  0  0  0  0  0
  196.3472  182.8208  152.7192 N   0  0  0  0  0  0  0  0  0  0  0  0
  196.6702  181.4074  152.5598 C   0  0  1  0  0  0  0  0  0  0  0  0
  197.5457  180.8514  153.6681 C   0  0  0  0  0  0  0  0  0  0  0  0
  197.1261  180.8370  155.0201 C   0  0  0  0  0  0  0  0  0  0  0  0
  197.9585  180.2831  156.0184 C   0  0  0  0  0  0  0  0  0  0  0  0
  199.2156  179.7381  155.6776 C   0  0  0  0  0  0  0  0  0  0  0  0
  199.6372  179.7788  154.3296 C   0  0  0  0  0  0  0  0  0  0  0  0
  198.8016  180.3092  153.3365 C   0  0  0  0  0  0  0  0  0  0  0  0
  200.1039  179.0690  156.7222 C   0  0  1  0  0  0  0  0  0  0  0  0
  199.9371  177.5914  156.8101 N   0  0  2  0  0  0  0  0  0  0  0  0
  200.9401  176.9718  157.6951 C   0  0  2  0  0  0  0  0  0  0  0  0
  199.8843  176.8846  155.5051 C   0  0  2  0  0  0  0  0  0  0  0  0
  197.8278  184.7848  153.1193 C   0  0  0  0  0  0  0  0  0  0  0  0
  197.9695  184.8556  154.5809 C   0  0  0  0  0  0  0  0  0  0  0  0
  198.5284  183.9452  155.1761 O   0  0  0  0  0  0  0  0  0  0  0  0
  197.5123  185.9793  155.1715 N   0  0  0  0  0  0  0  0  0  0  0  0
  197.4099  186.2173  156.5713 C   0  0  0  0  0  0  0  0  0  0  0  0
  197.1670  185.1754  157.4976 C   0  0  0  0  0  0  0  0  0  0  0  0
  197.0462  185.4454  158.8712 C   0  0  0  0  0  0  0  0  0  0  0  0
  196.8122  184.3924  159.7555 N   0  0  0  0  0  0  0  0  0  0  0  0
  197.1429  186.7682  159.3412 C   0  0  0  0  0  0  0  0  0  0  0  0
  197.3584  187.8174  158.4245 C   0  0  0  0  0  0  0  0  0  0  0  0
  197.4901  187.5471  157.0452 C   0  0  0  0  0  0  0  0  0  0  0  0
  196.1992  182.7026  149.8820 H   0  0  0  0  0  0  0  0  0  0  0  0
  196.7181  183.5729  147.5900 H   0  0  0  0  0  0  0  0  0  0  0  0
  198.1494  185.5633  147.3268 H   0  0  0  0  0  0  0  0  0  0  0  0
  199.0974  186.6899  149.3388 H   0  0  0  0  0  0  0  0  0  0  0  0
  195.4314  183.0844  153.0913 H   0  0  0  0  0  0  0  0  0  0  0  0
  195.7453  180.8398  152.5241 H   0  0  0  0  0  0  0  0  0  0  0  0
  197.1602  181.2735  151.5914 H   0  0  0  0  0  0  0  0  0  0  0  0
  196.1572  181.2263  155.2986 H   0  0  0  0  0  0  0  0  0  0  0  0
  197.6033  180.2431  157.0423 H   0  0  0  0  0  0  0  0  0  0  0  0
  200.5859  179.3574  154.0392 H   0  0  0  0  0  0  0  0  0  0  0  0
  199.1106  180.2660  152.3018 H   0  0  0  0  0  0  0  0  0  0  0  0
  201.1518  179.3103  156.5042 H   0  0  0  0  0  0  0  0  0  0  0  0
  199.8907  179.4961  157.7075 H   0  0  0  0  0  0  0  0  0  0  0  0
  201.9494  177.1456  157.3094 H   0  0  0  0  0  0  0  0  0  0  0  0
  200.8081  175.8949  157.7250 H   0  0  0  0  0  0  0  0  0  0  0  0
  200.8760  177.3597  158.7122 H   0  0  0  0  0  0  0  0  0  0  0  0
  200.8028  177.0544  154.9442 H   0  0  0  0  0  0  0  0  0  0  0  0
  199.0389  177.1964  154.9021 H   0  0  0  0  0  0  0  0  0  0  0  0
  199.7657  175.8036  155.6253 H   0  0  0  0  0  0  0  0  0  0  0  0
  197.1825  186.7170  154.5589 H   0  0  0  0  0  0  0  0  0  0  0  0
  197.0504  184.1477  157.1821 H   0  0  0  0  0  0  0  0  0  0  0  0
  196.7170  184.5262  160.7474 H   0  0  0  0  0  0  0  0  0  0  0  0
  196.7369  183.4492  159.4108 H   0  0  0  0  0  0  0  0  0  0  0  0
  197.0517  186.9909  160.3935 H   0  0  0  0  0  0  0  0  0  0  0  0
  197.4336  188.8336  158.7844 H   0  0  0  0  0  0  0  0  0  0  0  0
  197.6619  188.3533  156.3455 H   0  0  0  0  0  0  0  0  0  0  0  0
  199.0163  177.4748  157.2433 H   0  0  0  0  0  0  0  0  0  0  0  0
  1  2  1  0
  1 21  1  0
  2  3  1  0
  2  7  2  0
  3  4  2  0
  3  8  1  0
  4  5  1  0
  4 32  1  0
  5  6  2  0
  5 33  1  0
  6  7  1  0
  6 34  1  0
  7 35  1  0
  8  9  1  0
  8 21  2  0
  9 10  1  0
  9 36  1  0
 10 11  1  0
 10 37  1  6
 10 38  1  0
 11 12  1  0
 11 16  2  0
 12 13  2  0
 12 39  1  0
 13 14  1  0
 13 40  1  0
 14 15  2  0
 14 17  1  0
 15 16  1  0
 15 41  1  0
 16 42  1  0
 17 18  1  0
 17 43  1  6
 17 44  1  0
 18 19  1  0
 18 20  1  0
 18 58  1  1
 19 45  1  6
 19 46  1  0
 19 47  1  0
 20 48  1  6
 20 49  1  0
 20 50  1  0
 21 22  1  0
 22 23  2  0
 22 24  1  0
 24 25  1  0
 24 51  1  0
 25 26  1  0
 25 31  2  0
 26 27  2  0
 26 52  1  0
 27 28  1  0
 27 29  1  0
 28 53  1  0
 28 54  1  0
 29 30  2  0
 29 55  1  0
 30 31  1  0
 30 56  1  0
 31 57  1  0
M  CHG  1  18   1
M  END
>  <s_epik_cmdline>  (623) 
J2VwaWtfcHl0aG9uJywgJy1waCcsICc3LjAwMDAwMCcsICctcGh0JywgJzIuMDAwMDAwJywgJy1tcycsICcxNicsICctdG4nLCAnOCcsICctbWEnLCAnMjAwJywgJy1pbWFlJywgJzxpbmZpbGUubWFlPicsICctb21hZScsICc8b3V0ZmlsZS5tYWU+Jw==

>  <s_epik_input>  (623) 
W2NIXTFbY0hdW2NIXWMoW05IMl0pW2NIXWMxW05IXUMoPU8pYyhzMiljKGMoYzIzKVtjSF1bY0hdW2NIXVtjSF0zKVtOSF1bQ0gyXWM0W2NIXVtjSF1jKFtjSF1bY0hdNClbQ0gyXU4oW0NIM10pW0NIM10=

>  <s_i_glide_gridfile>  (623) 
ATP-Grid

>  <s_lp_Force_Field>  (623) 
OPLS_2005

>  <s_lp_Variant>  (623) 
rxn512c____EMOL530714____EMOL523944____EMOL50155899-1

>  <s_lp_label>  (623) 
2295_sdstereoexpander_1_neutralizer_1_epik_1_stereoizer_1

>  <s_m_source_file>  (623) 
ATP-VSW-LIGPREP-002-in.maegz

>  <s_sd_BIOSOLVEIT.INFINISEE\_QUERY\_NAME>  (623) 
Ref-Lig

>  <s_sd_BIOSOLVEIT.INFINISEE\_QUERY\_SMILES>  (623) 
S(c1nc2c(cc1C[NH2+]Cc3ccc(cc3)C[NH+](C)C)cccc2)Cc4ccccc4

>  <s_sd_BIOSOLVEIT.INFINISEE\_REACTION\_NAME>  (623) 
rxn512c

>  <s_sd_BIOSOLVEIT.INFINISEE\_REAGENT1\_NAME>  (623) 
EMOL530714

>  <s_sd_BIOSOLVEIT.INFINISEE\_REAGENT1\_SMILES>  (623) 
Nc1cc(N)ccc1

>  <s_sd_BIOSOLVEIT.INFINISEE\_REAGENT2\_NAME>  (623) 
EMOL523944

>  <s_sd_BIOSOLVEIT.INFINISEE\_REAGENT2\_SMILES>  (623) 
ClC=1c2c(SC1C(=O)O)cccc2

>  <s_sd_BIOSOLVEIT.INFINISEE\_REAGENT3\_NAME>  (623) 
EMOL50155899

>  <s_sd_BIOSOLVEIT.INFINISEE\_REAGENT3\_SMILES>  (623) 
N(Cc1ccc(cc1)CN)(C)C

>  <s_sd_BIOSOLVEIT.INFINISEE\_SPACE>  (623) 
eXplore_7tr_2022-12

>  <s_vsw_compound_code>  (623) 
73410

>  <s_vsw_variant>  (623) 
73410-1

>  <r_epik_Charging_Adjusted_Penalty>  (623) 
0.080189274810459593

>  <r_epik_Ionization_Penalty>  (623) 
0.0407

>  <r_epik_Ionization_Penalty_Charging>  (623) 
0.040099999999999997

>  <r_epik_Ionization_Penalty_Neutral>  (623) 
0.00059999999999999995

>  <r_epik_State_Penalty>  (623) 
0.040099999999999997

>  <r_i_docking_score>  (623) 
-5.8677054216960798

>  <r_i_glide_ecoul>  (623) 
-12.4168033599854

>  <r_i_glide_eff_state_penalty>  (623) 
0.040099999999999997

>  <r_i_glide_einternal>  (623) 
14.2976331710815

>  <r_i_glide_emodel>  (623) 
-62.362255984894503

>  <r_i_glide_energy>  (623) 
-46.687303543090799

>  <r_i_glide_erotb>  (623) 
0.74755813993047004

>  <r_i_glide_esite>  (623) 
-0.186986889749026

>  <r_i_glide_evdw>  (623) 
-34.270500183105497

>  <r_i_glide_gscore>  (623) 
-5.9078054216960796

>  <r_i_glide_hbond>  (623) 
-0.65600000000000003

>  <r_i_glide_ligand_efficiency>  (623) 
-0.189280820054712

>  <r_i_glide_ligand_efficiency_ln>  (623) 
-1.3233473961676501

>  <r_i_glide_ligand_efficiency_sa>  (623) 
-0.59460310530802996

>  <r_i_glide_lipo>  (623) 
-1.73119326282274

>  <r_i_glide_metal>  (623) 
-0

>  <r_i_glide_rewards>  (623) 
-0.50513789590170499

>  <r_lp_Energy>  (623) 
38.734009999999998

>  <r_qp_ACxDN^.5/SA>  (623) 
0.010916199999999999

>  <r_qp_CIQPlogS>  (623) 
-4.8090000000000002

>  <r_qp_EA(eV)>  (623) 
0.77500000000000002

>  <r_qp_FISA>  (623) 
107.11199999999999

>  <r_qp_FOSA>  (623) 
203.34100000000001

>  <r_qp_IP(eV)>  (623) 
7.9909999999999997

>  <r_qp_Jm>  (623) 
2.72775525785116e-05

>  <r_qp_PISA>  (623) 
450.56599999999997

>  <r_qp_PSA>  (623) 
77.256

>  <r_qp_PercentHumanOralAbsorption>  (623) 
84.409000000000006

>  <r_qp_QPPCaco>  (623) 
59.423999999999999

>  <r_qp_QPPMDCK>  (623) 
44.878

>  <r_qp_QPlogBB>  (623) 
-0.26500000000000001

>  <r_qp_QPlogHERG>  (623) 
-8.9860000000000007

>  <r_qp_QPlogKhsa>  (623) 
0.90000000000000002

>  <r_qp_QPlogKp>  (623) 
-5.2629999999999999

>  <r_qp_QPlogPC16>  (623) 
16.27

>  <r_qp_QPlogPo/w>  (623) 
4.3920000000000003

>  <r_qp_QPlogPoct>  (623) 
23.248000000000001

>  <r_qp_QPlogPw>  (623) 
12.757

>  <r_qp_QPlogS>  (623) 
-4.9349999999999996

>  <r_qp_QPpolrz>  (623) 
49.277000000000001

>  <r_qp_SASA>  (623) 
796.63900000000001

>  <r_qp_SAamideO>  (623) 
0

>  <r_qp_SAfluorine>  (623) 
0

>  <r_qp_WPSA>  (623) 
35.619999999999997

>  <r_qp_accptHB>  (623) 
5.5

>  <r_qp_dip^2/V>  (623) 
0.011177400000000001

>  <r_qp_dipole>  (623) 
3.964

>  <r_qp_donorHB>  (623) 
2.5

>  <r_qp_glob>  (623) 
0.76186480000000001

>  <r_qp_mol_MW>  (623) 
430.56700000000001

>  <r_qp_volume>  (623) 
1405.923

>  <r_sd_BIOSOLVEIT.INFINISEE\_FTREES\_SIMILARITY>  (623) 
0.92300000000000004

>  <r_sd_BIOSOLVEIT.LOGP>  (623) 
3.9923999999999999

>  <r_sd_BIOSOLVEIT.MOLECULAR\_WEIGHT>  (623) 
431.57999999999998

>  <r_sd_BIOSOLVEIT.TPSA>  (623) 
71.590000000000003

>  <i_epik_Tot_Q>  (623) 
1

>  <i_epik_Tot_abs_Q>  (623) 
1

>  <i_f3d_flags>  (623) 
0

>  <i_i_glide_confnum>  (623) 
1

>  <i_i_glide_lignum>  (623) 
920

>  <i_i_glide_posenum>  (623) 
11

>  <i_i_glide_rotatable_bonds>  (623) 
8

>  <i_lp_mmshare_version>  (623) 
65135

>  <i_m_ct_format>  (623) 
2

>  <i_m_source_file_index>  (623) 
2295

>  <i_qp_#NandO>  (623) 
5

>  <i_qp_#acid>  (623) 
0

>  <i_qp_#amide>  (623) 
0

>  <i_qp_#amidine>  (623) 
0

>  <i_qp_#amine>  (623) 
2

>  <i_qp_#in34>  (623) 
0

>  <i_qp_#in56>  (623) 
21

>  <i_qp_#metab>  (623) 
9

>  <i_qp_#nonHatm>  (623) 
31

>  <i_qp_#noncon>  (623) 
0

>  <i_qp_#ringatoms>  (623) 
21

>  <i_qp_#rotor>  (623) 
8

>  <i_qp_#rtvFG>  (623) 
0

>  <i_qp_#stars>  (623) 
2

>  <i_qp_CNS>  (623) 
0

>  <i_qp_HumanOralAbsorption>  (623) 
2

>  <i_qp_RuleOfFive>  (623) 
0

>  <i_qp_RuleOfThree>  (623) 
1

>  <i_sd_BIOSOLVEIT.INFINISEE\_RESULT\_RANK>  (623) 
11266

>  <i_sd_version>  (623) 
0

>  <b_lp_Chiralities_Consistent>  (623) 
1

>  <b_sd_chiral_flag>  (623) 
0

>  <canonical_id>  (623) 
ATP-HTVS-60C7695B6F0C

>  <compound_code>  (623) 
73410

>  <title>  (623) 
rxn512c____EMOL530714____EMOL523944____EMOL50155899

>  <variant>  (623) 
73410-1

>  <source_file>  (623) 
运行/运行/ATP-VSW/ATP-VSW-DOCK_HTVS_1-002_lib.maegz

>  <canonical_smiles>  (623) 
C[NH+](C)Cc1ccc(CNc2c(C(=O)Nc3cccc(N)c3)sc3ccccc23)cc1

>  <scaffold>  (623) 
O=C(Nc1ccccc1)c1sc2ccccc2c1NCc1ccccc1

>  <molecular_formula>  (623) 
C25H27N4OS+

$$$$
ATP-HTVS-60D4F7FF4B6B
     RDKit          3D

 55 57  0  0  0  0  0  0  0  0999 V2000
  197.3542  180.0368  154.2634 S   0  0  0  0  0  0  0  0  0  0  0  0
  197.4825  180.6462  152.6304 C   0  0  0  0  0  0  0  0  0  0  0  0
  197.6683  179.7220  151.5191 C   0  0  0  0  0  0  0  0  0  0  0  0
  197.1736  180.0486  150.2400 C   0  0  0  0  0  0  0  0  0  0  0  0
  197.3510  179.1661  149.1563 C   0  0  0  0  0  0  0  0  0  0  0  0
  198.0363  177.9441  149.3234 C   0  0  0  0  0  0  0  0  0  0  0  0
  198.2301  177.0240  148.1836 N   0  0  0  0  0  0  0  0  0  0  0  0
  198.6641  175.9003  148.4119 O   0  0  0  0  0  0  0  0  0  0  0  0
  197.9492  177.4391  147.0600 O   0  0  0  0  0  0  0  0  0  0  0  0
  198.5362  177.6193  150.6071 C   0  0  0  0  0  0  0  0  0  0  0  0
  198.3607  178.5053  151.6888 C   0  0  0  0  0  0  0  0  0  0  0  0
  197.3672  182.0117  152.5972 C   0  0  0  0  0  0  0  0  0  0  0  0
  197.1857  182.5849  153.8864 C   0  0  0  0  0  0  0  0  0  0  0  0
  197.1449  181.6481  154.8900 C   0  0  0  0  0  0  0  0  0  0  0  0
  197.0131  181.9158  156.3444 C   0  0  1  0  0  0  0  0  0  0  0  0
  195.6586  181.5828  156.8551 N   0  0  1  0  0  0  0  0  0  0  0  0
  195.4295  181.7647  158.3053 C   0  0  1  0  0  0  0  0  0  0  0  0
  195.7301  183.1826  158.8291 C   0  0  0  0  0  0  0  0  0  0  0  0
  197.0732  183.5597  159.0582 C   0  0  0  0  0  0  0  0  0  0  0  0
  197.3765  184.8703  159.5036 C   0  0  0  0  0  0  0  0  0  0  0  0
  196.3412  185.7682  159.7998 C   0  0  0  0  0  0  0  0  0  0  0  0
  195.0021  185.3723  159.6292 C   0  0  0  0  0  0  0  0  0  0  0  0
  194.6945  184.0965  159.1214 C   0  0  0  0  0  0  0  0  0  0  0  0
  196.6294  187.1694  160.2823 C   0  0  1  0  0  0  0  0  0  0  0  0
  196.7185  188.1739  159.1955 N   0  0  2  0  0  0  0  0  0  0  0  0
  197.7388  187.8718  158.1619 C   0  0  2  0  0  0  0  0  0  0  0  0
  196.8843  189.5421  159.7383 C   0  0  2  0  0  0  0  0  0  0  0  0
  194.0050  181.2739  158.6255 C   0  0  2  0  0  0  0  0  0  0  0  0
  194.9433  182.0863  156.3293 H   0  0  0  0  0  0  0  0  0  0  0  0
  196.6494  180.9790  150.0876 H   0  0  0  0  0  0  0  0  0  0  0  0
  196.9617  179.4400  148.1873 H   0  0  0  0  0  0  0  0  0  0  0  0
  199.0694  176.6929  150.7645 H   0  0  0  0  0  0  0  0  0  0  0  0
  198.7658  178.2429  152.6559 H   0  0  0  0  0  0  0  0  0  0  0  0
  197.4307  182.6245  151.7084 H   0  0  0  0  0  0  0  0  0  0  0  0
  197.0889  183.6510  154.0332 H   0  0  0  0  0  0  0  0  0  0  0  0
  197.7600  181.3506  156.9019 H   0  0  0  0  0  0  0  0  0  0  0  0
  197.2151  182.9746  156.4894 H   0  0  0  0  0  0  0  0  0  0  0  0
  196.1188  181.0972  158.8271 H   0  0  0  0  0  0  0  0  0  0  0  0
  197.8879  182.8790  158.8678 H   0  0  0  0  0  0  0  0  0  0  0  0
  198.4092  185.1600  159.6156 H   0  0  0  0  0  0  0  0  0  0  0  0
  194.1954  186.0428  159.8458 H   0  0  0  0  0  0  0  0  0  0  0  0
  193.6510  183.8686  158.9755 H   0  0  0  0  0  0  0  0  0  0  0  0
  195.8408  187.4649  160.9707 H   0  0  0  0  0  0  0  0  0  0  0  0
  197.5466  187.1653  160.8551 H   0  0  0  0  0  0  0  0  0  0  0  0
  198.7367  187.8390  158.5996 H   0  0  0  0  0  0  0  0  0  0  0  0
  197.7386  188.6319  157.3794 H   0  0  0  0  0  0  0  0  0  0  0  0
  197.5541  186.9194  157.6627 H   0  0  0  0  0  0  0  0  0  0  0  0
  197.8241  189.6310  160.2867 H   0  0  0  0  0  0  0  0  0  0  0  0
  196.0706  189.7902  160.4207 H   0  0  0  0  0  0  0  0  0  0  0  0
  196.8819  190.2817  158.9367 H   0  0  0  0  0  0  0  0  0  0  0  0
  193.9031  181.3214  159.7022 H   0  0  0  0  0  0  0  0  0  0  0  0
  193.8203  180.2369  158.3379 H   0  0  0  0  0  0  0  0  0  0  0  0
  193.2330  181.8692  158.1355 H   0  0  0  0  0  0  0  0  0  0  0  0
  195.8261  188.1646  158.7222 H   0  0  0  0  0  0  0  0  0  0  0  0
  195.5299  180.5778  156.7524 H   0  0  0  0  0  0  0  0  0  0  0  0
  1  2  1  0
  1 14  1  0
  2  3  1  0
  2 12  2  0
  3  4  1  0
  3 11  2  0
  4  5  2  0
  4 30  1  0
  5  6  1  0
  5 31  1  0
  6  7  1  0
  6 10  2  0
  7  8  1  0
  7  9  2  0
 10 11  1  0
 10 32  1  0
 11 33  1  0
 12 13  1  0
 12 34  1  0
 13 14  2  0
 13 35  1  0
 14 15  1  0
 15 16  1  0
 15 36  1  1
 15 37  1  0
 16 17  1  0
 16 29  1  6
 16 55  1  0
 17 18  1  0
 17 28  1  0
 17 38  1  1
 18 19  1  0
 18 23  2  0
 19 20  2  0
 19 39  1  0
 20 21  1  0
 20 40  1  0
 21 22  2  0
 21 24  1  0
 22 23  1  0
 22 41  1  0
 23 42  1  0
 24 25  1  0
 24 43  1  1
 24 44  1  0
 25 26  1  0
 25 27  1  0
 25 54  1  6
 26 45  1  1
 26 46  1  0
 26 47  1  0
 27 48  1  1
 27 49  1  0
 27 50  1  0
 28 51  1  1
 28 52  1  0
 28 53  1  0
M  CHG  4   7   1   8  -1  16   1  25   1
M  END
>  <s_epik_cmdline>  (624) 
J2VwaWtfcHl0aG9uJywgJy1waCcsICc3LjAwMDAwMCcsICctcGh0JywgJzIuMDAwMDAwJywgJy1tcycsICcxNicsICctdG4nLCAnOCcsICctbWEnLCAnMjAwJywgJy1pbWFlJywgJzxpbmZpbGUubWFlPicsICctb21hZScsICc8b3V0ZmlsZS5tYWU+Jw==

>  <s_epik_input>  (624) 
W08tXVtOK10oPU8pYyhbY0hdW2NIXTEpW2NIXVtjSF1jMS1jMnNjKFtjSF1bY0hdMilbQ0gyXVtOSF1bQ0BIXShbQ0gzXSljM1tjSF1bY0hdYyhbY0hdW2NIXTMpW0NIMl1OKFtDSDNdKVtDSDNd

>  <s_i_glide_gridfile>  (624) 
ATP-Grid

>  <s_lp_Force_Field>  (624) 
OPLS_2005

>  <s_lp_Variant>  (624) 
m_270004beb____23853920____7548658-1

>  <s_lp_label>  (624) 
1528_sdstereoexpander_1_neutralizer_1_epik_1_stereoizer_1

>  <s_m_source_file>  (624) 
ATP-VSW-LIGPREP-001-in.maegz

>  <s_sd_BIOSOLVEIT.INFINISEE\_QUERY\_NAME>  (624) 
Ref-Lig

>  <s_sd_BIOSOLVEIT.INFINISEE\_QUERY\_SMILES>  (624) 
S(c1nc2c(cc1C[NH2+]Cc3ccc(cc3)C[NH+](C)C)cccc2)Cc4ccccc4

>  <s_sd_BIOSOLVEIT.INFINISEE\_REACTION\_NAME>  (624) 
m_270004beb

>  <s_sd_BIOSOLVEIT.INFINISEE\_REAGENT1\_SMILES>  (624) 
[R1*]NC(c1ccc(cc1)CN(C)C)C

>  <s_sd_BIOSOLVEIT.INFINISEE\_REAGENT2\_SMILES>  (624) 
[R1*]CC=1SC(c2ccc([N+]([O-])=O)cc2)=CC1

>  <s_sd_BIOSOLVEIT.INFINISEE\_SPACE>  (624) 
REALSpace_44bn_2023-08

>  <s_vsw_compound_code>  (624) 
48865

>  <s_vsw_variant>  (624) 
48865-1

>  <r_epik_Charging_Adjusted_Penalty>  (624) 
0.27771382847655102

>  <r_epik_Ionization_Penalty>  (624) 
0.13919999999999999

>  <r_epik_Ionization_Penalty_Charging>  (624) 
0.13919999999999999

>  <r_epik_Ionization_Penalty_Neutral>  (624) 
0

>  <r_epik_State_Penalty>  (624) 
0.13850000000000001

>  <r_i_docking_score>  (624) 
-6.2837009351896898

>  <r_i_glide_ecoul>  (624) 
-13.430567741394

>  <r_i_glide_eff_state_penalty>  (624) 
0.13850000000000001

>  <r_i_glide_einternal>  (624) 
2.5059111118316699

>  <r_i_glide_emodel>  (624) 
-77.708544089105004

>  <r_i_glide_energy>  (624) 
-48.682250022888198

>  <r_i_glide_erotb>  (624) 
0.74322268203703001

>  <r_i_glide_esite>  (624) 
-0.096936023504967203

>  <r_i_glide_evdw>  (624) 
-35.251682281494098

>  <r_i_glide_gscore>  (624) 
-6.4222009351896903

>  <r_i_glide_hbond>  (624) 
-0.351174724379614

>  <r_i_glide_ligand_efficiency>  (624) 
-0.22441789054248901

>  <r_i_glide_ligand_efficiency_ln>  (624) 
-1.45046267331815

>  <r_i_glide_ligand_efficiency_sa>  (624) 
-0.68146489075599503

>  <r_i_glide_lipo>  (624) 
-1.7976335906091401

>  <r_i_glide_metal>  (624) 
-0

>  <r_i_glide_rewards>  (624) 
-1.14251000344919

>  <r_lp_Energy>  (624) 
16.462059

>  <r_qp_ACxDN^.5/SA>  (624) 
0.0071938000000000002

>  <r_qp_CIQPlogS>  (624) 
-4.3810000000000002

>  <r_qp_EA(eV)>  (624) 
1.536

>  <r_qp_FISA>  (624) 
110.886

>  <r_qp_FOSA>  (624) 
261.35399999999998

>  <r_qp_IP(eV)>  (624) 
9.109

>  <r_qp_Jm>  (624) 
0.00071185762238452205

>  <r_qp_PISA>  (624) 
232.119

>  <r_qp_PSA>  (624) 
62.805

>  <r_qp_PercentHumanOralAbsorption>  (624) 
78.841999999999999

>  <r_qp_QPPCaco>  (624) 
54.722000000000001

>  <r_qp_QPPMDCK>  (624) 
34.216999999999999

>  <r_qp_QPlogBB>  (624) 
0.032000000000000001

>  <r_qp_QPlogHERG>  (624) 
-6.0650000000000004

>  <r_qp_QPlogKhsa>  (624) 
0.75800000000000001

>  <r_qp_QPlogKp>  (624) 
-6.1989999999999998

>  <r_qp_QPlogPC16>  (624) 
12.298999999999999

>  <r_qp_QPlogPo/w>  (624) 
3.5499999999999998

>  <r_qp_QPlogPoct>  (624) 
18.132000000000001

>  <r_qp_QPlogPw>  (624) 
7.9180000000000001

>  <r_qp_QPlogS>  (624) 
-2.5459999999999998

>  <r_qp_QPpolrz>  (624) 
40.005000000000003

>  <r_qp_SASA>  (624) 
625.53999999999996

>  <r_qp_SAamideO>  (624) 
0

>  <r_qp_SAfluorine>  (624) 
0

>  <r_qp_WPSA>  (624) 
21.18

>  <r_qp_accptHB>  (624) 
4.5

>  <r_qp_dip^2/V>  (624) 
0.069368299999999994

>  <r_qp_dipole>  (624) 
9.1630000000000003

>  <r_qp_donorHB>  (624) 
1

>  <r_qp_glob>  (624) 
0.87803489999999995

>  <r_qp_mol_MW>  (624) 
395.51799999999997

>  <r_qp_volume>  (624) 
1210.326

>  <r_sd_BIOSOLVEIT.INFINISEE\_FTREES\_SIMILARITY>  (624) 
0.90700000000000003

>  <r_sd_BIOSOLVEIT.LOGP>  (624) 
2.7924000000000002

>  <r_sd_BIOSOLVEIT.MOLECULAR\_WEIGHT>  (624) 
397.53899999999999

>  <r_sd_BIOSOLVEIT.TPSA>  (624) 
66.870000000000005

>  <i_epik_Tot_Q>  (624) 
2

>  <i_epik_Tot_abs_Q>  (624) 
4

>  <i_f3d_flags>  (624) 
0

>  <i_i_glide_confnum>  (624) 
4

>  <i_i_glide_lignum>  (624) 
399

>  <i_i_glide_posenum>  (624) 
9

>  <i_i_glide_rotatable_bonds>  (624) 
8

>  <i_lp_mmshare_version>  (624) 
65135

>  <i_m_ct_format>  (624) 
2

>  <i_m_source_file_index>  (624) 
1528

>  <i_qp_#NandO>  (624) 
5

>  <i_qp_#acid>  (624) 
0

>  <i_qp_#amide>  (624) 
0

>  <i_qp_#amidine>  (624) 
0

>  <i_qp_#amine>  (624) 
2

>  <i_qp_#in34>  (624) 
0

>  <i_qp_#in56>  (624) 
17

>  <i_qp_#metab>  (624) 
7

>  <i_qp_#nonHatm>  (624) 
28

>  <i_qp_#noncon>  (624) 
0

>  <i_qp_#ringatoms>  (624) 
17

>  <i_qp_#rotor>  (624) 
7

>  <i_qp_#rtvFG>  (624) 
0

>  <i_qp_#stars>  (624) 
0

>  <i_qp_CNS>  (624) 
1

>  <i_qp_HumanOralAbsorption>  (624) 
2

>  <i_qp_RuleOfFive>  (624) 
0

>  <i_qp_RuleOfThree>  (624) 
1

>  <i_sd_BIOSOLVEIT.INFINISEE\_REAGENT1\_NAME>  (624) 
23853920

>  <i_sd_BIOSOLVEIT.INFINISEE\_REAGENT2\_NAME>  (624) 
7548658

>  <i_sd_BIOSOLVEIT.INFINISEE\_RESULT\_RANK>  (624) 
61087

>  <i_sd_version>  (624) 
0

>  <b_lp_Chiralities_Consistent>  (624) 
1

>  <b_sd_chiral_flag>  (624) 
0

>  <canonical_id>  (624) 
ATP-HTVS-60D4F7FF4B6B

>  <compound_code>  (624) 
48865

>  <title>  (624) 
m_270004beb____23853920____7548658

>  <variant>  (624) 
48865-1

>  <source_file>  (624) 
运行/运行/ATP-VSW/ATP-VSW-DOCK_HTVS_1-001_lib/ATP-VSW-DOCK_HTVS_1-001_lib

>  <canonical_smiles>  (624) 
C[C@@H]([NH2+]Cc1ccc(-c2ccc([N+](=O)[O-])cc2)s1)c1ccc(C[NH+](C)C)cc1

>  <scaffold>  (624) 
c1ccc(C[NH2+]Cc2ccc(-c3ccccc3)s2)cc1

>  <molecular_formula>  (624) 
C22H27N3O2S+2

$$$$
ATP-HTVS-60F8B74A0D7C
     RDKit          3D

 61 64  0  0  0  0  0  0  0  0999 V2000
  195.9353  186.6805  160.9320 F   0  0  0  0  0  0  0  0  0  0  0  0
  196.3322  185.8207  159.9684 C   0  0  0  0  0  0  0  0  0  0  0  0
  195.7319  184.5546  159.8762 C   0  0  0  0  0  0  0  0  0  0  0  0
  196.0688  183.6338  158.8511 C   0  0  0  0  0  0  0  0  0  0  0  0
  197.0881  184.0005  157.9160 C   0  0  0  0  0  0  0  0  0  0  0  0
  197.6772  185.2884  158.0174 C   0  0  0  0  0  0  0  0  0  0  0  0
  197.3091  186.1931  159.0361 C   0  0  0  0  0  0  0  0  0  0  0  0
  197.5500  183.0924  156.7867 C   0  0  1  0  0  0  0  0  0  0  0  0
  197.8298  181.7248  157.2382 N   0  0  0  0  0  0  0  0  0  0  0  0
  198.5005  180.7719  156.4624 C   0  0  0  0  0  0  0  0  0  0  0  0
  199.5722  180.1901  157.0486 N   0  0  0  0  0  0  0  0  0  0  0  0
  200.3904  179.4192  156.3641 C   0  0  0  0  0  0  0  0  0  0  0  0
  200.1708  179.0985  155.0794 N   0  0  0  0  0  0  0  0  0  0  0  0
  199.0517  179.5782  154.4684 C   0  0  0  0  0  0  0  0  0  0  0  0
  198.1717  180.4423  155.1363 C   0  0  0  0  0  0  0  0  0  0  0  0
  196.9958  180.9156  154.5040 C   0  0  0  0  0  0  0  0  0  0  0  0
  196.7225  180.5083  153.1885 C   0  0  0  0  0  0  0  0  0  0  0  0
  197.5945  179.6241  152.5111 C   0  0  0  0  0  0  0  0  0  0  0  0
  198.7960  179.1872  153.1401 C   0  0  0  0  0  0  0  0  0  0  0  0
  201.6052  179.0671  156.9291 N   0  0  0  0  0  0  0  0  0  0  0  0
  202.2332  179.6275  158.1355 C   0  0  1  0  0  0  0  0  0  0  0  0
  202.0764  181.0988  158.5275 C   0  0  0  0  0  0  0  0  0  0  0  0
  202.4359  181.4850  159.8485 C   0  0  0  0  0  0  0  0  0  0  0  0
  202.1770  182.7915  160.3130 C   0  0  0  0  0  0  0  0  0  0  0  0
  201.5341  183.7316  159.4628 C   0  0  0  0  0  0  0  0  0  0  0  0
  201.2419  185.1058  159.9131 N   0  0  0  0  0  0  0  0  0  0  0  0
  200.5548  185.8177  159.1935 O   0  0  0  0  0  0  0  0  0  0  0  0
  201.7501  185.4966  160.9540 O   0  0  0  0  0  0  0  0  0  0  0  0
  201.2102  183.3320  158.1365 C   0  0  0  0  0  0  0  0  0  0  0  0
  201.5540  182.0654  157.6415 C   0  0  0  0  0  0  0  0  0  0  0  0
  195.2586  182.3123  158.8077 C   0  0  1  0  0  0  0  0  0  0  0  0
  193.8960  182.4453  158.2361 N   0  0  1  0  0  0  0  0  0  0  0  0
  193.1462  181.1825  158.2211 C   0  0  2  0  0  0  0  0  0  0  0  0
  193.0996  183.6101  158.6666 C   0  0  2  0  0  0  0  0  0  0  0  0
  194.9668  184.3020  160.5938 H   0  0  0  0  0  0  0  0  0  0  0  0
  198.4376  185.5877  157.3078 H   0  0  0  0  0  0  0  0  0  0  0  0
  197.7789  187.1634  159.1020 H   0  0  0  0  0  0  0  0  0  0  0  0
  196.7406  183.1326  156.0586 H   0  0  0  0  0  0  0  0  0  0  0  0
  198.4258  183.5365  156.3014 H   0  0  0  0  0  0  0  0  0  0  0  0
  197.7562  181.5274  158.2324 H   0  0  0  0  0  0  0  0  0  0  0  0
  196.2505  181.4966  155.0088 H   0  0  0  0  0  0  0  0  0  0  0  0
  195.7968  180.8232  152.7053 H   0  0  0  0  0  0  0  0  0  0  0  0
  197.3454  179.2638  151.4978 H   0  0  0  0  0  0  0  0  0  0  0  0
  199.4494  178.4803  152.6308 H   0  0  0  0  0  0  0  0  0  0  0  0
  202.2112  178.4826  156.3755 H   0  0  0  0  0  0  0  0  0  0  0  0
  201.8924  178.9856  158.9402 H   0  0  0  0  0  0  0  0  0  0  0  0
  203.3045  179.4526  158.0802 H   0  0  0  0  0  0  0  0  0  0  0  0
  202.8594  180.7622  160.5406 H   0  0  0  0  0  0  0  0  0  0  0  0
  202.4674  183.0843  161.3151 H   0  0  0  0  0  0  0  0  0  0  0  0
  200.6787  184.0149  157.4844 H   0  0  0  0  0  0  0  0  0  0  0  0
  201.3143  181.8133  156.6129 H   0  0  0  0  0  0  0  0  0  0  0  0
  195.7350  181.4999  158.2479 H   0  0  0  0  0  0  0  0  0  0  0  0
  195.1569  181.9425  159.8293 H   0  0  0  0  0  0  0  0  0  0  0  0
  192.9888  180.8300  159.2397 H   0  0  0  0  0  0  0  0  0  0  0  0
  193.6753  180.4133  157.6642 H   0  0  0  0  0  0  0  0  0  0  0  0
  192.1855  181.3208  157.7269 H   0  0  0  0  0  0  0  0  0  0  0  0
  192.9342  183.5546  159.7043 H   0  0  0  0  0  0  0  0  0  0  0  0
  192.1274  183.6148  158.1447 H   0  0  0  0  0  0  0  0  0  0  0  0
  193.5927  184.5701  158.4333 H   0  0  0  0  0  0  0  0  0  0  0  0
  200.8399  178.5777  154.5270 H   0  0  0  0  0  0  0  0  0  0  0  0
  194.0100  182.6317  157.2657 H   0  0  0  0  0  0  0  0  0  0  0  0
  1  2  1  0
  2  3  2  0
  2  7  1  0
  3  4  1  0
  3 35  1  0
  4  5  2  0
  4 31  1  0
  5  6  1  0
  5  8  1  0
  6  7  2  0
  6 36  1  0
  7 37  1  0
  8  9  1  0
  8 38  1  6
  8 39  1  0
  9 10  1  0
  9 40  1  0
 10 11  2  0
 10 15  1  0
 11 12  1  0
 12 13  2  0
 12 20  1  0
 13 14  1  0
 13 60  1  0
 14 15  1  0
 14 19  2  0
 15 16  2  0
 16 17  1  0
 16 41  1  0
 17 18  2  0
 17 42  1  0
 18 19  1  0
 18 43  1  0
 19 44  1  0
 20 21  1  0
 20 45  1  0
 21 22  1  0
 21 46  1  1
 21 47  1  0
 22 23  1  0
 22 30  2  0
 23 24  2  0
 23 48  1  0
 24 25  1  0
 24 49  1  0
 25 26  1  0
 25 29  2  0
 26 27  1  0
 26 28  2  0
 29 30  1  0
 29 50  1  0
 30 51  1  0
 31 32  1  0
 31 52  1  6
 31 53  1  0
 32 33  1  0
 32 34  1  0
 32 61  1  6
 33 54  1  1
 33 55  1  0
 33 56  1  0
 34 57  1  1
 34 58  1  0
 34 59  1  0
M  CHG  4  13   1  26   1  27  -1  32   1
M  END
>  <s_epik_cmdline>  (625) 
J2VwaWtfcHl0aG9uJywgJy1waCcsICc3LjAwMDAwMCcsICctcGh0JywgJzIuMDAwMDAwJywgJy1tcycsICcxNicsICctdG4nLCAnOCcsICctbWEnLCAnMjAwJywgJy1pbWFlJywgJzxpbmZpbGUubWFlPicsICctb21hZScsICc8b3V0ZmlsZS5tYWU+Jw==

>  <s_epik_input>  (625) 
RmMxW2NIXWMoW0NIMl1OKFtDSDNdKVtDSDNdKWMoW2NIXVtjSF0xKVtDSDJdW05IXWMoYyhjMjMpW2NIXVtjSF1bY0hdW2NIXTMpbmMobjIpW05IXVtDSDJdYzRbY0hdW2NIXWMoW04rXShbTy1dKT1PKVtjSF1bY0hdNA==

>  <s_i_glide_gridfile>  (625) 
ATP-Grid

>  <s_lp_Force_Field>  (625) 
OPLS_2005

>  <s_lp_Variant>  (625) 
m_282030aaa____21928468____22360182____21974936-1

>  <s_lp_label>  (625) 
2064_sdstereoexpander_1_neutralizer_1_epik_1_stereoizer_1

>  <s_m_source_file>  (625) 
ATP-VSW-LIGPREP-002-in.maegz

>  <s_sd_BIOSOLVEIT.INFINISEE\_QUERY\_NAME>  (625) 
Ref-Lig

>  <s_sd_BIOSOLVEIT.INFINISEE\_QUERY\_SMILES>  (625) 
S(c1nc2c(cc1C[NH2+]Cc3ccc(cc3)C[NH+](C)C)cccc2)Cc4ccccc4

>  <s_sd_BIOSOLVEIT.INFINISEE\_REACTION\_NAME>  (625) 
m_282030aaa

>  <s_sd_BIOSOLVEIT.INFINISEE\_REAGENT1\_SMILES>  (625) 
[R1*]NCc1ccc([N+]([O-])=O)cc1

>  <s_sd_BIOSOLVEIT.INFINISEE\_REAGENT2\_SMILES>  (625) 
[R2*]c1nc([R1*])c2c(n1)cccc2

>  <s_sd_BIOSOLVEIT.INFINISEE\_REAGENT3\_SMILES>  (625) 
[R2*]NCc1c(cc(F)cc1)CN(C)C

>  <s_sd_BIOSOLVEIT.INFINISEE\_SPACE>  (625) 
REALSpace_44bn_2023-08

>  <s_vsw_compound_code>  (625) 
66018

>  <s_vsw_variant>  (625) 
66018-1

>  <r_epik_Charging_Adjusted_Penalty>  (625) 
0.12781054826024199

>  <r_epik_Ionization_Penalty>  (625) 
0.0613

>  <r_epik_Ionization_Penalty_Charging>  (625) 
0.0613

>  <r_epik_Ionization_Penalty_Neutral>  (625) 
0

>  <r_epik_State_Penalty>  (625) 
0.066500000000000004

>  <r_i_docking_score>  (625) 
-5.0072187217734996

>  <r_i_glide_ecoul>  (625) 
-10.329922676086399

>  <r_i_glide_eff_state_penalty>  (625) 
0.066500000000000004

>  <r_i_glide_einternal>  (625) 
8.4566307067871094

>  <r_i_glide_emodel>  (625) 
-61.497600309663497

>  <r_i_glide_energy>  (625) 
-42.697049140930197

>  <r_i_glide_erotb>  (625) 
0.65916913865200299

>  <r_i_glide_esite>  (625) 
-0.18309420893891501

>  <r_i_glide_evdw>  (625) 
-32.3671264648438

>  <r_i_glide_gscore>  (625) 
-5.0737187217735

>  <r_i_glide_hbond>  (625) 
-0.20000000000000001

>  <r_i_glide_ligand_efficiency>  (625) 
-0.14727113887569099

>  <r_i_glide_ligand_efficiency_ln>  (625) 
-1.1062350633676299

>  <r_i_glide_ligand_efficiency_sa>  (625) 
-0.47710131892845398

>  <r_i_glide_lipo>  (625) 
-1.40883044541034

>  <r_i_glide_metal>  (625) 
-0

>  <r_i_glide_rewards>  (625) 
-0.77311848142109896

>  <r_lp_Energy>  (625) 
24.239189

>  <r_qp_ACxDN^.5/SA>  (625) 
0.011988800000000001

>  <r_qp_CIQPlogS>  (625) 
-6.3799999999999999

>  <r_qp_EA(eV)>  (625) 
1.2849999999999999

>  <r_qp_FISA>  (625) 
110.114

>  <r_qp_FOSA>  (625) 
151.27600000000001

>  <r_qp_IP(eV)>  (625) 
8.3529999999999998

>  <r_qp_Jm>  (625) 
0.0083116193750269306

>  <r_qp_PISA>  (625) 
399.39699999999999

>  <r_qp_PSA>  (625) 
89.004999999999995

>  <r_qp_PercentHumanOralAbsorption>  (625) 
95.159000000000006

>  <r_qp_QPPCaco>  (625) 
223.148

>  <r_qp_QPPMDCK>  (625) 
195.661

>  <r_qp_QPlogBB>  (625) 
-0.51900000000000002

>  <r_qp_QPlogHERG>  (625) 
-6.8380000000000001

>  <r_qp_QPlogKhsa>  (625) 
0.70099999999999996

>  <r_qp_QPlogKp>  (625) 
-3.3399999999999999

>  <r_qp_QPlogPC16>  (625) 
14.465

>  <r_qp_QPlogPo/w>  (625) 
4.4710000000000001

>  <r_qp_QPlogPoct>  (625) 
22.262

>  <r_qp_QPlogPw>  (625) 
11.757999999999999

>  <r_qp_QPlogS>  (625) 
-4.4029999999999996

>  <r_qp_QPpolrz>  (625) 
45.911999999999999

>  <r_qp_SASA>  (625) 
707.76800000000003

>  <r_qp_SAamideO>  (625) 
0

>  <r_qp_SAfluorine>  (625) 
46.981999999999999

>  <r_qp_WPSA>  (625) 
46.981999999999999

>  <r_qp_accptHB>  (625) 
6

>  <r_qp_dip^2/V>  (625) 
0.038432599999999997

>  <r_qp_dipole>  (625) 
7.2030000000000003

>  <r_qp_donorHB>  (625) 
2

>  <r_qp_glob>  (625) 
0.8346692

>  <r_qp_mol_MW>  (625) 
460.50999999999999

>  <r_qp_volume>  (625) 
1350.0840000000001

>  <r_sd_BIOSOLVEIT.INFINISEE\_FTREES\_SIMILARITY>  (625) 
0.90100000000000002

>  <r_sd_BIOSOLVEIT.LOGP>  (625) 
3.5457999999999998

>  <r_sd_BIOSOLVEIT.MOLECULAR\_WEIGHT>  (625) 
461.51799999999997

>  <r_sd_BIOSOLVEIT.TPSA>  (625) 
100.09999999999999

>  <i_epik_Tot_Q>  (625) 
2

>  <i_epik_Tot_abs_Q>  (625) 
4

>  <i_f3d_flags>  (625) 
0

>  <i_i_glide_confnum>  (625) 
3

>  <i_i_glide_lignum>  (625) 
739

>  <i_i_glide_posenum>  (625) 
5

>  <i_i_glide_rotatable_bonds>  (625) 
9

>  <i_lp_mmshare_version>  (625) 
65135

>  <i_m_ct_format>  (625) 
2

>  <i_m_source_file_index>  (625) 
2064

>  <i_qp_#NandO>  (625) 
8

>  <i_qp_#acid>  (625) 
0

>  <i_qp_#amide>  (625) 
0

>  <i_qp_#amidine>  (625) 
0

>  <i_qp_#amine>  (625) 
1

>  <i_qp_#in34>  (625) 
0

>  <i_qp_#in56>  (625) 
22

>  <i_qp_#metab>  (625) 
5

>  <i_qp_#nonHatm>  (625) 
34

>  <i_qp_#noncon>  (625) 
0

>  <i_qp_#ringatoms>  (625) 
22

>  <i_qp_#rotor>  (625) 
9

>  <i_qp_#rtvFG>  (625) 
0

>  <i_qp_#stars>  (625) 
0

>  <i_qp_CNS>  (625) 
1

>  <i_qp_HumanOralAbsorption>  (625) 
3

>  <i_qp_RuleOfFive>  (625) 
0

>  <i_qp_RuleOfThree>  (625) 
0

>  <i_sd_BIOSOLVEIT.INFINISEE\_REAGENT1\_NAME>  (625) 
21928468

>  <i_sd_BIOSOLVEIT.INFINISEE\_REAGENT2\_NAME>  (625) 
22360182

>  <i_sd_BIOSOLVEIT.INFINISEE\_REAGENT3\_NAME>  (625) 
21974936

>  <i_sd_BIOSOLVEIT.INFINISEE\_RESULT\_RANK>  (625) 
94992

>  <i_sd_version>  (625) 
0

>  <b_lp_Chiralities_Consistent>  (625) 
1

>  <b_sd_chiral_flag>  (625) 
0

>  <canonical_id>  (625) 
ATP-HTVS-60F8B74A0D7C

>  <compound_code>  (625) 
66018

>  <title>  (625) 
m_282030aaa____21928468____22360182____21974936

>  <variant>  (625) 
66018-1

>  <source_file>  (625) 
运行/运行/ATP-VSW/ATP-VSW-DOCK_HTVS_1-002_lib.maegz

>  <canonical_smiles>  (625) 
C[NH+](C)Cc1cc(F)ccc1CNc1nc(NCc2ccc([N+](=O)[O-])cc2)[nH+]c2ccccc12

>  <scaffold>  (625) 
c1ccc(CNc2nc(NCc3ccccc3)c3ccccc3[nH+]2)cc1

>  <molecular_formula>  (625) 
C25H27FN6O2+2

$$$$
ATP-HTVS-6168063B3267
     RDKit          3D

 63 66  0  0  0  0  0  0  0  0999 V2000
  196.7403  183.5077  155.5333 N   0  0  0  0  0  0  0  0  0  0  0  0
  196.6819  182.2010  155.8943 C   0  0  0  0  0  0  0  0  0  0  0  0
  195.9781  181.8196  157.0553 N   0  0  0  0  0  0  0  0  0  0  0  0
  195.6830  182.8284  158.0997 C   0  0  2  0  0  0  0  0  0  0  0  0
  196.8950  183.6459  158.5541 C   0  0  0  0  0  0  0  0  0  0  0  0
  196.7808  184.9802  159.0088 C   0  0  0  0  0  0  0  0  0  0  0  0
  195.5373  185.6132  159.1212 N   0  0  0  0  0  0  0  0  0  0  0  0
  197.9456  185.7074  159.3542 C   0  0  0  0  0  0  0  0  0  0  0  0
  199.2196  185.1167  159.2527 C   0  0  0  0  0  0  0  0  0  0  0  0
  199.3365  183.7854  158.8224 C   0  0  0  0  0  0  0  0  0  0  0  0
  198.1755  183.0581  158.5083 C   0  0  0  0  0  0  0  0  0  0  0  0
  195.0328  182.1329  159.2941 C   0  0  2  0  0  0  0  0  0  0  0  0
  197.3611  181.2216  155.1137 C   0  0  0  0  0  0  0  0  0  0  0  0
  198.1354  181.5605  154.0811 N   0  0  0  0  0  0  0  0  0  0  0  0
  198.2582  182.8780  153.7712 C   0  0  0  0  0  0  0  0  0  0  0  0
  197.5207  183.8578  154.5010 C   0  0  0  0  0  0  0  0  0  0  0  0
  197.6428  185.2135  154.1425 C   0  0  0  0  0  0  0  0  0  0  0  0
  198.4576  185.6115  153.0666 C   0  0  0  0  0  0  0  0  0  0  0  0
  199.2480  184.6550  152.4049 C   0  0  0  0  0  0  0  0  0  0  0  0
  199.1577  183.2988  152.7657 C   0  0  0  0  0  0  0  0  0  0  0  0
  197.4862  179.8857  155.5797 N   0  0  0  0  0  0  0  0  0  0  0  0
  198.7866  179.2282  155.6269 C   0  0  1  0  0  0  0  0  0  0  0  0
  200.1115  180.0060  155.8635 C   0  0  0  0  0  0  0  0  0  0  0  0
  201.4019  179.3872  155.7113 C   0  0  0  0  0  0  0  0  0  0  0  0
  202.6053  180.1634  155.8505 C   0  0  0  0  0  0  0  0  0  0  0  0
  202.5395  181.5529  156.1320 C   0  0  0  0  0  0  0  0  0  0  0  0
  201.2693  182.1314  156.3230 C   0  0  0  0  0  0  0  0  0  0  0  0
  200.1056  181.3654  156.2247 C   0  0  0  0  0  0  0  0  0  0  0  0
  201.5680  177.8881  155.3973 C   0  0  1  0  0  0  0  0  0  0  0  0
  201.5475  177.0323  156.6171 N   0  0  1  0  0  0  0  0  0  0  0  0
  200.3126  177.1579  157.4265 C   0  0  2  0  0  0  0  0  0  0  0  0
  201.8349  175.6063  156.3320 C   0  0  2  0  0  0  0  0  0  0  0  0
  195.9263  180.8510  157.3289 H   0  0  0  0  0  0  0  0  0  0  0  0
  194.9520  183.4998  157.6702 H   0  0  0  0  0  0  0  0  0  0  0  0
  195.5008  186.6105  159.2738 H   0  0  0  0  0  0  0  0  0  0  0  0
  194.7237  185.2092  158.6805 H   0  0  0  0  0  0  0  0  0  0  0  0
  197.8634  186.7242  159.7072 H   0  0  0  0  0  0  0  0  0  0  0  0
  200.1069  185.6729  159.5224 H   0  0  0  0  0  0  0  0  0  0  0  0
  200.3061  183.3195  158.7235 H   0  0  0  0  0  0  0  0  0  0  0  0
  198.2584  182.0351  158.1859 H   0  0  0  0  0  0  0  0  0  0  0  0
  194.7503  182.8678  160.0543 H   0  0  0  0  0  0  0  0  0  0  0  0
  195.7202  181.4163  159.7412 H   0  0  0  0  0  0  0  0  0  0  0  0
  194.1334  181.5878  159.0107 H   0  0  0  0  0  0  0  0  0  0  0  0
  197.0331  185.9482  154.6468 H   0  0  0  0  0  0  0  0  0  0  0  0
  198.4648  186.6470  152.7514 H   0  0  0  0  0  0  0  0  0  0  0  0
  199.8783  184.9566  151.5821 H   0  0  0  0  0  0  0  0  0  0  0  0
  199.7867  182.5721  152.2738 H   0  0  0  0  0  0  0  0  0  0  0  0
  196.9067  179.6420  156.3687 H   0  0  0  0  0  0  0  0  0  0  0  0
  198.6064  178.6163  156.5079 H   0  0  0  0  0  0  0  0  0  0  0  0
  198.8465  178.5713  154.7623 H   0  0  0  0  0  0  0  0  0  0  0  0
  203.5983  179.7054  155.7580 H   0  0  0  0  0  0  0  0  0  0  0  0
  203.4381  182.1743  156.2200 H   0  0  0  0  0  0  0  0  0  0  0  0
  201.1685  183.2014  156.4876 H   0  0  0  0  0  0  0  0  0  0  0  0
  199.1761  181.8842  156.4254 H   0  0  0  0  0  0  0  0  0  0  0  0
  200.8229  177.5480  154.6707 H   0  0  0  0  0  0  0  0  0  0  0  0
  202.5336  177.7402  154.8965 H   0  0  0  0  0  0  0  0  0  0  0  0
  199.4673  176.8167  156.8218 H   0  0  0  0  0  0  0  0  0  0  0  0
  200.1618  178.1854  157.7358 H   0  0  0  0  0  0  0  0  0  0  0  0
  200.3562  176.6349  158.3820 H   0  0  0  0  0  0  0  0  0  0  0  0
  201.0857  175.1934  155.6560 H   0  0  0  0  0  0  0  0  0  0  0  0
  201.8059  175.0359  157.2573 H   0  0  0  0  0  0  0  0  0  0  0  0
  202.8214  175.4807  155.8840 H   0  0  0  0  0  0  0  0  0  0  0  0
  202.3050  177.3677  157.1926 H   0  0  0  0  0  0  0  0  0  0  0  0
  1  2  2  0
  1 16  1  0
  2  3  1  0
  2 13  1  0
  3  4  1  0
  3 33  1  0
  4  5  1  0
  4 12  1  0
  4 34  1  6
  5  6  1  0
  5 11  2  0
  6  7  1  0
  6  8  2  0
  7 35  1  0
  7 36  1  0
  8  9  1  0
  8 37  1  0
  9 10  2  0
  9 38  1  0
 10 11  1  0
 10 39  1  0
 11 40  1  0
 12 41  1  1
 12 42  1  0
 12 43  1  0
 13 14  2  0
 13 21  1  0
 14 15  1  0
 15 16  1  0
 15 20  2  0
 16 17  2  0
 17 18  1  0
 17 44  1  0
 18 19  2  0
 18 45  1  0
 19 20  1  0
 19 46  1  0
 20 47  1  0
 21 22  1  0
 21 48  1  0
 22 23  1  0
 22 49  1  1
 22 50  1  0
 23 24  1  0
 23 28  2  0
 24 25  2  0
 24 29  1  0
 25 26  1  0
 25 51  1  0
 26 27  2  0
 26 52  1  0
 27 28  1  0
 27 53  1  0
 28 54  1  0
 29 30  1  0
 29 55  1  6
 29 56  1  0
 30 31  1  0
 30 32  1  0
 30 63  1  1
 31 57  1  6
 31 58  1  0
 31 59  1  0
 32 60  1  6
 32 61  1  0
 32 62  1  0
M  CHG  1  30   1
M  END
>  <s_epik_cmdline>  (626) 
J2VwaWtfcHl0aG9uJywgJy1waCcsICc3LjAwMDAwMCcsICctcGh0JywgJzIuMDAwMDAwJywgJy1tcycsICcxNicsICctdG4nLCAnOCcsICctbWEnLCAnMjAwJywgJy1pbWFlJywgJzxpbmZpbGUubWFlPicsICctb21hZScsICc8b3V0ZmlsZS5tYWU+Jw==

>  <s_epik_input>  (626) 
W2NIXTFbY0hdW2NIXVtjSF1jKFtOSDJdKWMxW0NASF0oW0NIM10pW05IXWMobmMoYzIzKVtjSF1bY0hdW2NIXVtjSF0zKWMobjIpW05IXVtDSDJdYzRjKFtDSDJdTihbQ0gzXSlbQ0gzXSlbY0hdW2NIXVtjSF1bY0hdNA==

>  <s_i_glide_gridfile>  (626) 
ATP-Grid

>  <s_lp_Force_Field>  (626) 
OPLS_2005

>  <s_lp_Variant>  (626) 
m_282030aaa____21927700____23157418____21952560-2

>  <s_lp_label>  (626) 
1098_sdstereoexpander_2_neutralizer_1_epik_1_stereoizer_1

>  <s_m_source_file>  (626) 
ATP-VSW-LIGPREP-001-in.maegz

>  <s_sd_BIOSOLVEIT.INFINISEE\_QUERY\_NAME>  (626) 
Ref-Lig

>  <s_sd_BIOSOLVEIT.INFINISEE\_QUERY\_SMILES>  (626) 
S(c1nc2c(cc1C[NH2+]Cc3ccc(cc3)C[NH+](C)C)cccc2)Cc4ccccc4

>  <s_sd_BIOSOLVEIT.INFINISEE\_REACTION\_NAME>  (626) 
m_282030aaa

>  <s_sd_BIOSOLVEIT.INFINISEE\_REAGENT1\_SMILES>  (626) 
[R1*]NCc1c(cccc1)CN(C)C

>  <s_sd_BIOSOLVEIT.INFINISEE\_REAGENT2\_SMILES>  (626) 
[R1*]c1nc2c(nc1[R2*])cccc2

>  <s_sd_BIOSOLVEIT.INFINISEE\_REAGENT3\_SMILES>  (626) 
[R2*]NC(c1c(N)cccc1)C

>  <s_sd_BIOSOLVEIT.INFINISEE\_SPACE>  (626) 
REALSpace_44bn_2023-08

>  <s_vsw_compound_code>  (626) 
35105

>  <s_vsw_variant>  (626) 
35105-2

>  <r_epik_Charging_Adjusted_Penalty>  (626) 
0.082044668852174304

>  <r_epik_Ionization_Penalty>  (626) 
0.0441

>  <r_epik_Ionization_Penalty_Charging>  (626) 
0.038300000000000001

>  <r_epik_Ionization_Penalty_Neutral>  (626) 
0.0057000000000000002

>  <r_epik_State_Penalty>  (626) 
0.043700000000000003

>  <r_i_docking_score>  (626) 
-4.6685886664327398

>  <r_i_glide_ecoul>  (626) 
-13.072435379028301

>  <r_i_glide_eff_state_penalty>  (626) 
0.043700000000000003

>  <r_i_glide_einternal>  (626) 
4.7540798187255904

>  <r_i_glide_emodel>  (626) 
-58.614355774824702

>  <r_i_glide_energy>  (626) 
-43.553596496582003

>  <r_i_glide_erotb>  (626) 
0.76030325106258601

>  <r_i_glide_esite>  (626) 
-0.20000000000000001

>  <r_i_glide_evdw>  (626) 
-30.4811611175537

>  <r_i_glide_gscore>  (626) 
-4.7122886664327401

>  <r_i_glide_hbond>  (626) 
-0.30399999999999999

>  <r_i_glide_ligand_efficiency>  (626) 
-0.14589339582602301

>  <r_i_glide_ligand_efficiency_ln>  (626) 
-1.04542426333493

>  <r_i_glide_ligand_efficiency_sa>  (626) 
-0.463182659483794

>  <r_i_glide_lipo>  (626) 
-0.76479041839975404

>  <r_i_glide_metal>  (626) 
-0

>  <r_i_glide_rewards>  (626) 
-0.71887813636363496

>  <r_lp_Energy>  (626) 
29.241675000000001

>  <r_qp_ACxDN^.5/SA>  (626) 
0.016039600000000001

>  <r_qp_CIQPlogS>  (626) 
-5.5439999999999996

>  <r_qp_EA(eV)>  (626) 
0.78200000000000003

>  <r_qp_FISA>  (626) 
67.304000000000002

>  <r_qp_FOSA>  (626) 
251.48599999999999

>  <r_qp_IP(eV)>  (626) 
8.1059999999999999

>  <r_qp_Jm>  (626) 
0.14570838141769499

>  <r_qp_PISA>  (626) 
381.03899999999999

>  <r_qp_PSA>  (626) 
68.004000000000005

>  <r_qp_PercentHumanOralAbsorption>  (626) 
100

>  <r_qp_QPPCaco>  (626) 
568.27499999999998

>  <r_qp_QPPMDCK>  (626) 
297.12299999999999

>  <r_qp_QPlogBB>  (626) 
-0.20599999999999999

>  <r_qp_QPlogHERG>  (626) 
-6.5490000000000004

>  <r_qp_QPlogKhsa>  (626) 
0.62

>  <r_qp_QPlogKp>  (626) 
-2.6160000000000001

>  <r_qp_QPlogPC16>  (626) 
14.727

>  <r_qp_QPlogPo/w>  (626) 
4.343

>  <r_qp_QPlogPoct>  (626) 
23.613

>  <r_qp_QPlogPw>  (626) 
13.504

>  <r_qp_QPlogS>  (626) 
-3.8500000000000001

>  <r_qp_QPpolrz>  (626) 
46.024999999999999

>  <r_qp_SASA>  (626) 
699.82799999999997

>  <r_qp_SAamideO>  (626) 
0

>  <r_qp_SAfluorine>  (626) 
0

>  <r_qp_WPSA>  (626) 
0

>  <r_qp_accptHB>  (626) 
6

>  <r_qp_dip^2/V>  (626) 
0.0057155000000000001

>  <r_qp_dipole>  (626) 
2.7850000000000001

>  <r_qp_donorHB>  (626) 
3.5

>  <r_qp_glob>  (626) 
0.8471417

>  <r_qp_mol_MW>  (626) 
426.56299999999999

>  <r_qp_volume>  (626) 
1357.2940000000001

>  <r_sd_BIOSOLVEIT.INFINISEE\_FTREES\_SIMILARITY>  (626) 
0.91300000000000003

>  <r_sd_BIOSOLVEIT.LOGP>  (626) 
3.6417000000000002

>  <r_sd_BIOSOLVEIT.MOLECULAR\_WEIGHT>  (626) 
427.57299999999998

>  <r_sd_BIOSOLVEIT.TPSA>  (626) 
80.299999999999997

>  <i_epik_Tot_Q>  (626) 
1

>  <i_epik_Tot_abs_Q>  (626) 
1

>  <i_f3d_flags>  (626) 
0

>  <i_i_glide_confnum>  (626) 
10

>  <i_i_glide_lignum>  (626) 
255

>  <i_i_glide_posenum>  (626) 
20

>  <i_i_glide_rotatable_bonds>  (626) 
8

>  <i_lp_mmshare_version>  (626) 
65135

>  <i_m_ct_format>  (626) 
2

>  <i_m_source_file_index>  (626) 
1098

>  <i_qp_#NandO>  (626) 
6

>  <i_qp_#acid>  (626) 
0

>  <i_qp_#amide>  (626) 
0

>  <i_qp_#amidine>  (626) 
0

>  <i_qp_#amine>  (626) 
1

>  <i_qp_#in34>  (626) 
0

>  <i_qp_#in56>  (626) 
22

>  <i_qp_#metab>  (626) 
7

>  <i_qp_#nonHatm>  (626) 
32

>  <i_qp_#noncon>  (626) 
0

>  <i_qp_#ringatoms>  (626) 
22

>  <i_qp_#rotor>  (626) 
9

>  <i_qp_#rtvFG>  (626) 
0

>  <i_qp_#stars>  (626) 
0

>  <i_qp_CNS>  (626) 
0

>  <i_qp_HumanOralAbsorption>  (626) 
3

>  <i_qp_RuleOfFive>  (626) 
0

>  <i_qp_RuleOfThree>  (626) 
1

>  <i_sd_BIOSOLVEIT.INFINISEE\_REAGENT1\_NAME>  (626) 
21927700

>  <i_sd_BIOSOLVEIT.INFINISEE\_REAGENT2\_NAME>  (626) 
23157418

>  <i_sd_BIOSOLVEIT.INFINISEE\_REAGENT3\_NAME>  (626) 
21952560

>  <i_sd_BIOSOLVEIT.INFINISEE\_RESULT\_RANK>  (626) 
33086

>  <i_sd_version>  (626) 
0

>  <b_lp_Chiralities_Consistent>  (626) 
1

>  <b_sd_chiral_flag>  (626) 
0

>  <canonical_id>  (626) 
ATP-HTVS-6168063B3267

>  <compound_code>  (626) 
35105

>  <title>  (626) 
m_282030aaa____21927700____23157418____21952560

>  <variant>  (626) 
35105-2

>  <source_file>  (626) 
运行/运行/ATP-VSW/ATP-VSW-DOCK_HTVS_1-001_lib/ATP-VSW-DOCK_HTVS_1-001_lib

>  <canonical_smiles>  (626) 
C[C@H](Nc1nc2ccccc2nc1NCc1ccccc1C[NH+](C)C)c1ccccc1N

>  <scaffold>  (626) 
c1ccc(CNc2nc3ccccc3nc2NCc2ccccc2)cc1

>  <molecular_formula>  (626) 
C26H31N6+

$$$$
ATP-HTVS-61A3D13E339F
     RDKit          3D

 54 57  0  0  0  0  0  0  0  0999 V2000
  195.9412  187.4876  159.1330 F   0  0  0  0  0  0  0  0  0  0  0  0
  196.3327  186.3762  158.4712 C   0  0  0  0  0  0  0  0  0  0  0  0
  197.2073  186.4864  157.3699 C   0  0  0  0  0  0  0  0  0  0  0  0
  197.6191  185.3077  156.7056 C   0  0  0  0  0  0  0  0  0  0  0  0
  197.1603  184.0470  157.1328 C   0  0  0  0  0  0  0  0  0  0  0  0
  196.2697  183.9428  158.2255 C   0  0  0  0  0  0  0  0  0  0  0  0
  195.8577  185.1165  158.8891 C   0  0  0  0  0  0  0  0  0  0  0  0
  195.7631  182.5880  158.6785 C   0  0  1  0  0  0  0  0  0  0  0  0
  195.1836  181.8358  157.5531 N   0  0  2  0  0  0  0  0  0  0  0  0
  197.6900  187.8766  156.9572 C   0  0  1  0  0  0  0  0  0  0  0  0
  198.3600  187.9252  155.6597 N   0  0  0  0  0  0  0  0  0  0  0  0
  199.6890  187.8063  155.4703 C   0  0  0  0  0  0  0  0  0  0  0  0
  200.4551  187.7693  156.4308 O   0  0  0  0  0  0  0  0  0  0  0  0
  200.0697  187.6242  154.0540 C   0  0  0  0  0  0  0  0  0  0  0  0
  201.4932  187.7547  153.6193 C   0  0  0  0  0  0  0  0  0  0  0  0
  201.8090  187.3538  152.2893 C   0  0  0  0  0  0  0  0  0  0  0  0
  203.1371  187.4714  151.8097 C   0  0  0  0  0  0  0  0  0  0  0  0
  204.1536  187.9899  152.6311 C   0  0  0  0  0  0  0  0  0  0  0  0
  203.8452  188.4110  153.9339 C   0  0  0  0  0  0  0  0  0  0  0  0
  202.5295  188.3069  154.4188 C   0  0  0  0  0  0  0  0  0  0  0  0
  200.7352  186.8304  151.3594 C   0  0  0  0  0  0  0  0  0  0  0  0
  201.0300  186.4706  150.2189 O   0  0  0  0  0  0  0  0  0  0  0  0
  199.4617  186.8157  151.8341 N   0  0  0  0  0  0  0  0  0  0  0  0
  199.1558  187.2121  153.1422 C   0  0  0  0  0  0  0  0  0  0  0  0
  198.3416  186.3539  150.9982 C   0  0  1  0  0  0  0  0  0  0  0  0
  197.8634  184.9230  151.2570 C   0  0  0  0  0  0  0  0  0  0  0  0
  197.6510  184.4165  152.5649 C   0  0  0  0  0  0  0  0  0  0  0  0
  197.1738  183.1085  152.7617 C   0  0  0  0  0  0  0  0  0  0  0  0
  196.8987  182.2844  151.6575 C   0  0  0  0  0  0  0  0  0  0  0  0
  197.0967  182.7778  150.3516 C   0  0  0  0  0  0  0  0  0  0  0  0
  197.5678  184.0932  150.1540 C   0  0  0  0  0  0  0  0  0  0  0  0
  194.9119  180.8967  157.8480 H   0  0  0  0  0  0  0  0  0  0  0  0
  195.9011  181.6904  156.8599 H   0  0  0  0  0  0  0  0  0  0  0  0
  198.2982  185.3429  155.8650 H   0  0  0  0  0  0  0  0  0  0  0  0
  197.4942  183.1636  156.6081 H   0  0  0  0  0  0  0  0  0  0  0  0
  195.1755  185.0664  159.7250 H   0  0  0  0  0  0  0  0  0  0  0  0
  196.5892  182.0193  159.1150 H   0  0  0  0  0  0  0  0  0  0  0  0
  195.0068  182.7006  159.4569 H   0  0  0  0  0  0  0  0  0  0  0  0
  196.8337  188.5502  156.9146 H   0  0  0  0  0  0  0  0  0  0  0  0
  198.3313  188.2691  157.7509 H   0  0  0  0  0  0  0  0  0  0  0  0
  197.7678  187.9167  154.8411 H   0  0  0  0  0  0  0  0  0  0  0  0
  203.3836  187.1712  150.8001 H   0  0  0  0  0  0  0  0  0  0  0  0
  205.1649  188.0748  152.2585 H   0  0  0  0  0  0  0  0  0  0  0  0
  204.6145  188.8216  154.5681 H   0  0  0  0  0  0  0  0  0  0  0  0
  202.3586  188.6774  155.4162 H   0  0  0  0  0  0  0  0  0  0  0  0
  198.1100  187.0736  153.3627 H   0  0  0  0  0  0  0  0  0  0  0  0
  197.5015  187.0310  151.1500 H   0  0  0  0  0  0  0  0  0  0  0  0
  198.5732  186.4627  149.9373 H   0  0  0  0  0  0  0  0  0  0  0  0
  197.8281  185.0000  153.4522 H   0  0  0  0  0  0  0  0  0  0  0  0
  197.0140  182.7471  153.7685 H   0  0  0  0  0  0  0  0  0  0  0  0
  196.5410  181.2770  151.8168 H   0  0  0  0  0  0  0  0  0  0  0  0
  196.8850  182.1470  149.4994 H   0  0  0  0  0  0  0  0  0  0  0  0
  197.7005  184.4570  149.1442 H   0  0  0  0  0  0  0  0  0  0  0  0
  194.4073  182.3111  157.0917 H   0  0  0  0  0  0  0  0  0  0  0  0
  1  2  1  0
  2  3  2  0
  2  7  1  0
  3  4  1  0
  3 10  1  0
  4  5  2  0
  4 34  1  0
  5  6  1  0
  5 35  1  0
  6  7  2  0
  6  8  1  0
  7 36  1  0
  8  9  1  0
  8 37  1  1
  8 38  1  0
  9 32  1  1
  9 33  1  0
  9 54  1  0
 10 11  1  0
 10 39  1  6
 10 40  1  0
 11 12  1  0
 11 41  1  0
 12 13  2  0
 12 14  1  0
 14 15  1  0
 14 24  2  0
 15 16  1  0
 15 20  2  0
 16 17  2  0
 16 21  1  0
 17 18  1  0
 17 42  1  0
 18 19  2  0
 18 43  1  0
 19 20  1  0
 19 44  1  0
 20 45  1  0
 21 22  2  0
 21 23  1  0
 23 24  1  0
 23 25  1  0
 24 46  1  0
 25 26  1  0
 25 47  1  1
 25 48  1  0
 26 27  2  0
 26 31  1  0
 27 28  1  0
 27 49  1  0
 28 29  2  0
 28 50  1  0
 29 30  1  0
 29 51  1  0
 30 31  2  0
 30 52  1  0
 31 53  1  0
M  CHG  1   9   1
M  END
>  <s_epik_cmdline>  (627) 
J2VwaWtfcHl0aG9uJywgJy1waCcsICc3LjAwMDAwMCcsICctcGh0JywgJzIuMDAwMDAwJywgJy1tcycsICcxNicsICctdG4nLCAnOCcsICctbWEnLCAnMjAwJywgJy1pbWFlJywgJzxpbmZpbGUubWFlPicsICctb21hZScsICc8b3V0ZmlsZS5tYWU+Jw==

>  <s_epik_input>  (627) 
W05IMl1bQ0gyXWMoW2NIXTEpW2NIXVtjSF1jKGMxRilbQ0gyXVtOSF1DKD1PKWMyW2NIXW4oYyg9TyljKGMyMylbY0hdW2NIXVtjSF1bY0hdMylbQ0gyXWM0W2NIXVtjSF1bY0hdW2NIXVtjSF00

>  <s_i_glide_gridfile>  (627) 
ATP-Grid

>  <s_lp_Force_Field>  (627) 
OPLS_2005

>  <s_lp_Variant>  (627) 
YAS_R001____OTV6666766____OTV2248677-1

>  <s_lp_label>  (627) 
150_sdstereoexpander_1_neutralizer_1_epik_1_stereoizer_1

>  <s_m_source_file>  (627) 
ATP-VSW-LIGPREP-002-in.maegz

>  <s_sd_BIOSOLVEIT.INFINISEE\_QUERY\_NAME>  (627) 
Ref-Lig

>  <s_sd_BIOSOLVEIT.INFINISEE\_QUERY\_SMILES>  (627) 
S(c1nc2c(cc1C[NH2+]Cc3ccc(cc3)C[NH+](C)C)cccc2)Cc4ccccc4

>  <s_sd_BIOSOLVEIT.INFINISEE\_REACTION\_NAME>  (627) 
YAS_R001

>  <s_sd_BIOSOLVEIT.INFINISEE\_REAGENT1\_NAME>  (627) 
OTV6666766

>  <s_sd_BIOSOLVEIT.INFINISEE\_REAGENT1\_SMILES>  (627) 
O=C1N(C=C(c2c1cccc2)C(=O)O)Cc3ccccc3

>  <s_sd_BIOSOLVEIT.INFINISEE\_REAGENT2\_NAME>  (627) 
OTV2248677

>  <s_sd_BIOSOLVEIT.INFINISEE\_REAGENT2\_SMILES>  (627) 
Fc1c(ccc(c1)CN)CN

>  <s_sd_BIOSOLVEIT.INFINISEE\_SPACE>  (627) 
CHEMriya_12bn_2022-01

>  <s_vsw_compound_code>  (627) 
4770

>  <s_vsw_variant>  (627) 
4770-1

>  <r_epik_Charging_Adjusted_Penalty>  (627) 
0.064335492385217005

>  <r_epik_Ionization_Penalty>  (627) 
0.032199999999999999

>  <r_epik_Ionization_Penalty_Charging>  (627) 
0.032199999999999999

>  <r_epik_Ionization_Penalty_Neutral>  (627) 
0

>  <r_epik_State_Penalty>  (627) 
0.032199999999999999

>  <r_i_docking_score>  (627) 
-4.9868924187659598

>  <r_i_glide_ecoul>  (627) 
-12.2662801742554

>  <r_i_glide_eff_state_penalty>  (627) 
0.032199999999999999

>  <r_i_glide_einternal>  (627) 
4.0206398963928196

>  <r_i_glide_emodel>  (627) 
-54.226126390777203

>  <r_i_glide_energy>  (627) 
-38.046500205993702

>  <r_i_glide_erotb>  (627) 
0.68342894166924095

>  <r_i_glide_esite>  (627) 
-0.10000000000000001

>  <r_i_glide_evdw>  (627) 
-25.780220031738299

>  <r_i_glide_gscore>  (627) 
-5.0190924187659602

>  <r_i_glide_hbond>  (627) 
-0.353201668753031

>  <r_i_glide_ligand_efficiency>  (627) 
-0.160867497379547

>  <r_i_glide_ligand_efficiency_ln>  (627) 
-1.12469707033018

>  <r_i_glide_ligand_efficiency_sa>  (627) 
-0.50534604328828103

>  <r_i_glide_lipo>  (627) 
-1.17023337707519

>  <r_i_glide_metal>  (627) 
-0

>  <r_i_glide_rewards>  (627) 
-0.95013328688175602

>  <r_lp_Energy>  (627) 
31.363413999999999

>  <r_qp_ACxDN^.5/SA>  (627) 
0.0154968

>  <r_qp_CIQPlogS>  (627) 
-5.1980000000000004

>  <r_qp_EA(eV)>  (627) 
0.77200000000000002

>  <r_qp_FISA>  (627) 
132.483

>  <r_qp_FOSA>  (627) 
125.911

>  <r_qp_IP(eV)>  (627) 
8.968

>  <r_qp_Jm>  (627) 
0.0011211994134785999

>  <r_qp_PISA>  (627) 
430.02600000000001

>  <r_qp_PSA>  (627) 
87.221000000000004

>  <r_qp_PercentHumanOralAbsorption>  (627) 
86.623999999999995

>  <r_qp_QPPCaco>  (627) 
136.91900000000001

>  <r_qp_QPPMDCK>  (627) 
103.139

>  <r_qp_QPlogBB>  (627) 
-0.75900000000000001

>  <r_qp_QPlogHERG>  (627) 
-7.601

>  <r_qp_QPlogKhsa>  (627) 
0.5

>  <r_qp_QPlogKp>  (627) 
-3.8370000000000002

>  <r_qp_QPlogPC16>  (627) 
14.834

>  <r_qp_QPlogPo/w>  (627) 
3.6619999999999999

>  <r_qp_QPlogPoct>  (627) 
23.696000000000002

>  <r_qp_QPlogPw>  (627) 
14.558999999999999

>  <r_qp_QPlogS>  (627) 
-4.7320000000000002

>  <r_qp_QPpolrz>  (627) 
45.841000000000001

>  <r_qp_SASA>  (627) 
726.495

>  <r_qp_SAamideO>  (627) 
0

>  <r_qp_SAfluorine>  (627) 
38.075000000000003

>  <r_qp_WPSA>  (627) 
38.075000000000003

>  <r_qp_accptHB>  (627) 
6.5

>  <r_qp_dip^2/V>  (627) 
0.018978100000000001

>  <r_qp_dipole>  (627) 
4.984

>  <r_qp_donorHB>  (627) 
3

>  <r_qp_glob>  (627) 
0.79654130000000001

>  <r_qp_mol_MW>  (627) 
415.46600000000001

>  <r_qp_volume>  (627) 
1308.923

>  <r_sd_BIOSOLVEIT.INFINISEE\_FTREES\_SIMILARITY>  (627) 
0.90200000000000002

>  <r_sd_BIOSOLVEIT.LOGP>  (627) 
2.8607999999999998

>  <r_sd_BIOSOLVEIT.MOLECULAR\_WEIGHT>  (627) 
416.47399999999999

>  <r_sd_BIOSOLVEIT.TPSA>  (627) 
78.739999999999995

>  <i_epik_Tot_Q>  (627) 
1

>  <i_epik_Tot_abs_Q>  (627) 
1

>  <i_f3d_flags>  (627) 
0

>  <i_i_glide_confnum>  (627) 
5

>  <i_i_glide_lignum>  (627) 
115

>  <i_i_glide_posenum>  (627) 
19

>  <i_i_glide_rotatable_bonds>  (627) 
7

>  <i_lp_mmshare_version>  (627) 
65135

>  <i_m_ct_format>  (627) 
2

>  <i_m_source_file_index>  (627) 
150

>  <i_qp_#NandO>  (627) 
5

>  <i_qp_#acid>  (627) 
0

>  <i_qp_#amide>  (627) 
0

>  <i_qp_#amidine>  (627) 
0

>  <i_qp_#amine>  (627) 
1

>  <i_qp_#in34>  (627) 
0

>  <i_qp_#in56>  (627) 
22

>  <i_qp_#metab>  (627) 
5

>  <i_qp_#nonHatm>  (627) 
31

>  <i_qp_#noncon>  (627) 
0

>  <i_qp_#ringatoms>  (627) 
22

>  <i_qp_#rotor>  (627) 
7

>  <i_qp_#rtvFG>  (627) 
0

>  <i_qp_#stars>  (627) 
0

>  <i_qp_CNS>  (627) 
-1

>  <i_qp_HumanOralAbsorption>  (627) 
3

>  <i_qp_RuleOfFive>  (627) 
0

>  <i_qp_RuleOfThree>  (627) 
0

>  <i_sd_BIOSOLVEIT.INFINISEE\_RESULT\_RANK>  (627) 
86621

>  <i_sd_version>  (627) 
0

>  <b_lp_Chiralities_Consistent>  (627) 
1

>  <b_sd_chiral_flag>  (627) 
0

>  <canonical_id>  (627) 
ATP-HTVS-61A3D13E339F

>  <compound_code>  (627) 
4770

>  <title>  (627) 
YAS_R001____OTV6666766____OTV2248677

>  <variant>  (627) 
4770-1

>  <source_file>  (627) 
运行/运行/ATP-VSW/ATP-VSW-DOCK_HTVS_1-002_lib.maegz

>  <canonical_smiles>  (627) 
[NH3+]Cc1ccc(CNC(=O)c2cn(Cc3ccccc3)c(=O)c3ccccc23)c(F)c1

>  <scaffold>  (627) 
O=C(NCc1ccccc1)c1cn(Cc2ccccc2)c(=O)c2ccccc12

>  <molecular_formula>  (627) 
C25H23FN3O2+

$$$$
ATP-HTVS-62207831F6CB
     RDKit          3D

 62 65  0  0  0  0  0  0  0  0999 V2000
  200.0829  183.3344  153.7903 S   0  0  0  0  0  0  0  0  0  0  0  0
  199.1071  181.9455  154.1699 C   0  0  0  0  0  0  0  0  0  0  0  0
  199.2106  181.6107  155.5602 C   0  0  0  0  0  0  0  0  0  0  0  0
  198.5633  180.4059  155.9841 C   0  0  0  0  0  0  0  0  0  0  0  0
  197.8465  179.5900  155.0810 C   0  0  0  0  0  0  0  0  0  0  0  0
  197.7153  179.9800  153.7354 C   0  0  0  0  0  0  0  0  0  0  0  0
  197.0418  179.2031  152.8489 F   0  0  0  0  0  0  0  0  0  0  0  0
  198.3349  181.1680  153.2874 C   0  0  0  0  0  0  0  0  0  0  0  0
  199.9845  182.6045  156.2889 C   0  0  0  0  0  0  0  0  0  0  0  0
  200.1970  182.4359  157.6833 N   0  0  0  0  0  0  0  0  0  0  0  0
  200.1831  183.5462  158.6267 C   0  0  1  0  0  0  0  0  0  0  0  0
  198.8703  184.3028  158.7452 C   0  0  0  0  0  0  0  0  0  0  0  0
  197.6583  183.7145  158.3201 C   0  0  0  0  0  0  0  0  0  0  0  0
  196.4187  184.3537  158.5235 C   0  0  0  0  0  0  0  0  0  0  0  0
  196.3945  185.6472  159.0846 C   0  0  0  0  0  0  0  0  0  0  0  0
  197.6049  186.2680  159.4731 C   0  0  0  0  0  0  0  0  0  0  0  0
  198.8339  185.5882  159.3111 C   0  0  0  0  0  0  0  0  0  0  0  0
  195.1313  183.6302  158.1077 C   0  0  1  0  0  0  0  0  0  0  0  0
  194.7885  182.4703  158.9388 N   0  0  0  0  0  0  0  0  0  0  0  0
  195.8709  181.4939  158.9903 C   0  0  2  0  0  0  0  0  0  0  0  0
  193.6270  181.7908  158.3704 C   0  0  2  0  0  0  0  0  0  0  0  0
  200.4094  183.6202  155.4556 C   0  0  0  0  0  0  0  0  0  0  0  0
  201.2175  184.8317  155.7220 C   0  0  0  0  0  0  0  0  0  0  0  0
  202.3490  184.6781  156.1857 O   0  0  0  0  0  0  0  0  0  0  0  0
  200.7043  186.0564  155.4539 N   0  0  0  0  0  0  0  0  0  0  0  0
  199.3165  186.2984  155.0032 C   0  0  1  0  0  0  0  0  0  0  0  0
  198.7867  187.5906  155.4699 C   0  0  0  0  0  0  0  0  0  0  0  0
  198.3846  188.6127  155.8457 N   0  0  0  0  0  0  0  0  0  0  0  0
  199.1419  186.1717  153.4847 C   0  0  0  0  0  0  0  0  0  0  0  0
  200.0496  186.8034  152.5984 C   0  0  0  0  0  0  0  0  0  0  0  0
  199.8986  186.6591  151.2050 C   0  0  0  0  0  0  0  0  0  0  0  0
  198.8505  185.8837  150.6837 C   0  0  0  0  0  0  0  0  0  0  0  0
  197.9571  185.2467  151.5566 C   0  0  0  0  0  0  0  0  0  0  0  0
  198.0885  185.4053  152.9528 C   0  0  0  0  0  0  0  0  0  0  0  0
  201.5291  187.2410  155.7379 C   0  0  2  0  0  0  0  0  0  0  0  0
  198.6325  180.0774  157.0140 H   0  0  0  0  0  0  0  0  0  0  0  0
  197.4114  178.6618  155.4240 H   0  0  0  0  0  0  0  0  0  0  0  0
  198.2474  181.4630  152.2583 H   0  0  0  0  0  0  0  0  0  0  0  0
  199.8754  181.5609  158.0745 H   0  0  0  0  0  0  0  0  0  0  0  0
  200.4436  183.1544  159.6180 H   0  0  0  0  0  0  0  0  0  0  0  0
  200.9824  184.2527  158.3762 H   0  0  0  0  0  0  0  0  0  0  0  0
  197.6526  182.7244  157.8653 H   0  0  0  0  0  0  0  0  0  0  0  0
  195.4577  186.1610  159.2341 H   0  0  0  0  0  0  0  0  0  0  0  0
  197.5902  187.2602  159.9097 H   0  0  0  0  0  0  0  0  0  0  0  0
  199.7559  186.0576  159.6526 H   0  0  0  0  0  0  0  0  0  0  0  0
  194.3060  184.3451  158.1675 H   0  0  0  0  0  0  0  0  0  0  0  0
  195.2236  183.3385  157.0722 H   0  0  0  0  0  0  0  0  0  0  0  0
  195.5683  180.6091  159.5290 H   0  0  0  0  0  0  0  0  0  0  0  0
  196.7551  181.9352  159.4469 H   0  0  0  0  0  0  0  0  0  0  0  0
  196.1575  181.2023  157.9760 H   0  0  0  0  0  0  0  0  0  0  0  0
  193.3754  180.9100  158.9597 H   0  0  0  0  0  0  0  0  0  0  0  0
  193.8263  181.4504  157.3529 H   0  0  0  0  0  0  0  0  0  0  0  0
  192.7516  182.4431  158.3470 H   0  0  0  0  0  0  0  0  0  0  0  0
  198.6558  185.5680  155.4753 H   0  0  0  0  0  0  0  0  0  0  0  0
  200.8754  187.3709  152.9762 H   0  0  0  0  0  0  0  0  0  0  0  0
  200.6161  187.1104  150.5327 H   0  0  0  0  0  0  0  0  0  0  0  0
  198.7493  185.7420  149.6119 H   0  0  0  0  0  0  0  0  0  0  0  0
  197.1642  184.6434  151.1690 H   0  0  0  0  0  0  0  0  0  0  0  0
  197.3571  184.9420  153.6101 H   0  0  0  0  0  0  0  0  0  0  0  0
  202.5710  187.1012  155.4460 H   0  0  0  0  0  0  0  0  0  0  0  0
  201.5194  187.4588  156.8076 H   0  0  0  0  0  0  0  0  0  0  0  0
  201.1941  188.1367  155.2171 H   0  0  0  0  0  0  0  0  0  0  0  0
  1  2  1  0
  1 22  1  0
  2  3  1  0
  2  8  2  0
  3  4  2  0
  3  9  1  0
  4  5  1  0
  4 36  1  0
  5  6  2  0
  5 37  1  0
  6  7  1  0
  6  8  1  0
  8 38  1  0
  9 10  1  0
  9 22  2  0
 10 11  1  0
 10 39  1  0
 11 12  1  0
 11 40  1  1
 11 41  1  0
 12 13  2  0
 12 17  1  0
 13 14  1  0
 13 42  1  0
 14 15  2  0
 14 18  1  0
 15 16  1  0
 15 43  1  0
 16 17  2  0
 16 44  1  0
 17 45  1  0
 18 19  1  0
 18 46  1  6
 18 47  1  0
 19 20  1  0
 19 21  1  0
 20 48  1  1
 20 49  1  0
 20 50  1  0
 21 51  1  1
 21 52  1  0
 21 53  1  0
 22 23  1  0
 23 24  2  0
 23 25  1  0
 25 26  1  0
 25 35  1  0
 26 27  1  0
 26 29  1  0
 26 54  1  1
 27 28  3  0
 29 30  2  0
 29 34  1  0
 30 31  1  0
 30 55  1  0
 31 32  2  0
 31 56  1  0
 32 33  1  0
 32 57  1  0
 33 34  2  0
 33 58  1  0
 34 59  1  0
 35 60  1  6
 35 61  1  0
 35 62  1  0
M  END
>  <s_epik_cmdline>  (628) 
J2VwaWtfcHl0aG9uJywgJy1waCcsICc3LjAwMDAwMCcsICctcGh0JywgJzIuMDAwMDAwJywgJy1tcycsICcxNicsICctdG4nLCAnOCcsICctbWEnLCAnMjAwJywgJy1pbWFlJywgJzxpbmZpbGUubWFlPicsICctb21hZScsICc8b3V0ZmlsZS5tYWU+Jw==

>  <s_epik_input>  (628) 
W2NIXTFbY0hdW2NIXVtjSF1bY0hdYzFbQ0BIXShDI04pTihbQ0gzXSlDKD1PKWMoczIpYyhjKGMyMylbY0hdW2NIXWMoRilbY0hdMylbTkhdW0NIMl1jNFtjSF1jKFtjSF1bY0hdW2NIXTQpW0NIMl1OKFtDSDNdKVtDSDNd

>  <s_i_glide_gridfile>  (628) 
ATP-Grid

>  <s_lp_Force_Field>  (628) 
OPLS_2005

>  <s_lp_Variant>  (628) 
rxn512c____EMOL24630243____EMOL526741____EMOL2873214-3

>  <s_lp_label>  (628) 
2181_sdstereoexpander_1_neutralizer_1_epik_2_stereoizer_1

>  <s_m_source_file>  (628) 
ATP-VSW-LIGPREP-003-in.maegz

>  <s_sd_BIOSOLVEIT.INFINISEE\_QUERY\_NAME>  (628) 
Ref-Lig

>  <s_sd_BIOSOLVEIT.INFINISEE\_QUERY\_SMILES>  (628) 
S(c1nc2c(cc1C[NH2+]Cc3ccc(cc3)C[NH+](C)C)cccc2)Cc4ccccc4

>  <s_sd_BIOSOLVEIT.INFINISEE\_REACTION\_NAME>  (628) 
rxn512c

>  <s_sd_BIOSOLVEIT.INFINISEE\_REAGENT1\_NAME>  (628) 
EMOL24630243

>  <s_sd_BIOSOLVEIT.INFINISEE\_REAGENT1\_SMILES>  (628) 
N#CC(NC)c1ccccc1

>  <s_sd_BIOSOLVEIT.INFINISEE\_REAGENT2\_NAME>  (628) 
EMOL526741

>  <s_sd_BIOSOLVEIT.INFINISEE\_REAGENT2\_SMILES>  (628) 
ClC=1c2c(SC1C(=O)O)cc(F)cc2

>  <s_sd_BIOSOLVEIT.INFINISEE\_REAGENT3\_NAME>  (628) 
EMOL2873214

>  <s_sd_BIOSOLVEIT.INFINISEE\_REAGENT3\_SMILES>  (628) 
N(Cc1cc(ccc1)CN)(C)C

>  <s_sd_BIOSOLVEIT.INFINISEE\_SPACE>  (628) 
eXplore_7tr_2022-12

>  <s_vsw_compound_code>  (628) 
69763

>  <s_vsw_variant>  (628) 
69763-3

>  <r_epik_Charging_Adjusted_Penalty>  (628) 
1.5746020351915

>  <r_epik_Ionization_Penalty>  (628) 
1.575

>  <r_epik_Ionization_Penalty_Charging>  (628) 
0

>  <r_epik_Ionization_Penalty_Neutral>  (628) 
1.575

>  <r_epik_State_Penalty>  (628) 
1.5746

>  <r_i_docking_score>  (628) 
-1.0127827600239401

>  <r_i_glide_ecoul>  (628) 
-3.3653292655944802

>  <r_i_glide_eff_state_penalty>  (628) 
1.5746

>  <r_i_glide_einternal>  (628) 
5.4981784820556596

>  <r_i_glide_emodel>  (628) 
-37.3903477589392

>  <r_i_glide_energy>  (628) 
-34.065801143646198

>  <r_i_glide_erotb>  (628) 
0.60081736701745403

>  <r_i_glide_esite>  (628) 
0

>  <r_i_glide_evdw>  (628) 
-30.7004718780518

>  <r_i_glide_gscore>  (628) 
-2.5873827600239401

>  <r_i_glide_hbond>  (628) 
0

>  <r_i_glide_ligand_efficiency>  (628) 
-0.028936650286398101

>  <r_i_glide_ligand_efficiency_ln>  (628) 
-0.22232829332755699

>  <r_i_glide_ligand_efficiency_sa>  (628) 
-0.094653701769370394

>  <r_i_glide_lipo>  (628) 
-0.87920928393736797

>  <r_i_glide_metal>  (628) 
-0

>  <r_i_glide_rewards>  (628) 
-0.26916785936226101

>  <r_lp_Energy>  (628) 
34.466329000000002

>  <r_qp_ACxDN^.5/SA>  (628) 
0

>  <r_qp_CIQPlogS>  (628) 
-6.5540000000000003

>  <r_qp_EA(eV)>  (628) 
1.0209999999999999

>  <r_qp_FISA>  (628) 
98.204999999999998

>  <r_qp_FOSA>  (628) 
233.37200000000001

>  <r_qp_IP(eV)>  (628) 
8.3620000000000001

>  <r_qp_Jm>  (628) 
9.0026834240844098e-05

>  <r_qp_PISA>  (628) 
324.05099999999999

>  <r_qp_PSA>  (628) 
63.792999999999999

>  <r_qp_PercentHumanOralAbsorption>  (628) 
86.558000000000007

>  <r_qp_QPPCaco>  (628) 
72.180000000000007

>  <r_qp_QPPMDCK>  (628) 
101.505

>  <r_qp_QPlogBB>  (628) 
0.084000000000000005

>  <r_qp_QPlogHERG>  (628) 
-7.202

>  <r_qp_QPlogKhsa>  (628) 
0.68200000000000005

>  <r_qp_QPlogKp>  (628) 
-5.4489999999999998

>  <r_qp_QPlogPC16>  (628) 
14.457000000000001

>  <r_qp_QPlogPo/w>  (628) 
4.5

>  <r_qp_QPlogPoct>  (628) 
21.074999999999999

>  <r_qp_QPlogPw>  (628) 
8.8170000000000002

>  <r_qp_QPlogS>  (628) 
-4.2839999999999998

>  <r_qp_QPpolrz>  (628) 
48.859999999999999

>  <r_qp_SASA>  (628) 
739.28899999999999

>  <r_qp_SAamideO>  (628) 
0

>  <r_qp_SAfluorine>  (628) 
47.061999999999998

>  <r_qp_WPSA>  (628) 
83.661000000000001

>  <r_qp_accptHB>  (628) 
6.5

>  <r_qp_dip^2/V>  (628) 
0.065899200000000005

>  <r_qp_dipole>  (628) 
9.7469999999999999

>  <r_qp_donorHB>  (628) 
0

>  <r_qp_glob>  (628) 
0.83484760000000002

>  <r_qp_mol_MW>  (628) 
486.60599999999999

>  <r_qp_volume>  (628) 
1441.732

>  <r_sd_BIOSOLVEIT.INFINISEE\_FTREES\_SIMILARITY>  (628) 
0.93700000000000006

>  <r_sd_BIOSOLVEIT.LOGP>  (628) 
4.6338800000000004

>  <r_sd_BIOSOLVEIT.MOLECULAR\_WEIGHT>  (628) 
487.61900000000003

>  <r_sd_BIOSOLVEIT.TPSA>  (628) 
60.57

>  <i_epik_Tot_Q>  (628) 
0

>  <i_epik_Tot_abs_Q>  (628) 
0

>  <i_f3d_flags>  (628) 
0

>  <i_i_glide_confnum>  (628) 
8

>  <i_i_glide_lignum>  (628) 
829

>  <i_i_glide_posenum>  (628) 
2

>  <i_i_glide_rotatable_bonds>  (628) 
9

>  <i_lp_mmshare_version>  (628) 
65135

>  <i_m_ct_format>  (628) 
2

>  <i_m_source_file_index>  (628) 
2181

>  <i_qp_#NandO>  (628) 
5

>  <i_qp_#acid>  (628) 
0

>  <i_qp_#amide>  (628) 
0

>  <i_qp_#amidine>  (628) 
0

>  <i_qp_#amine>  (628) 
2

>  <i_qp_#in34>  (628) 
0

>  <i_qp_#in56>  (628) 
21

>  <i_qp_#metab>  (628) 
7

>  <i_qp_#nonHatm>  (628) 
35

>  <i_qp_#noncon>  (628) 
0

>  <i_qp_#ringatoms>  (628) 
21

>  <i_qp_#rotor>  (628) 
9

>  <i_qp_#rtvFG>  (628) 
0

>  <i_qp_#stars>  (628) 
0

>  <i_qp_CNS>  (628) 
1

>  <i_qp_HumanOralAbsorption>  (628) 
3

>  <i_qp_RuleOfFive>  (628) 
0

>  <i_qp_RuleOfThree>  (628) 
1

>  <i_sd_BIOSOLVEIT.INFINISEE\_RESULT\_RANK>  (628) 
2143

>  <i_sd_version>  (628) 
0

>  <b_lp_Chiralities_Consistent>  (628) 
1

>  <b_sd_chiral_flag>  (628) 
0

>  <canonical_id>  (628) 
ATP-HTVS-62207831F6CB

>  <compound_code>  (628) 
69763

>  <title>  (628) 
rxn512c____EMOL24630243____EMOL526741____EMOL2873214

>  <variant>  (628) 
69763-3

>  <source_file>  (628) 
运行/运行/ATP-VSW/ATP-VSW-DOCK_HTVS_1-003_lib/ATP-VSW-DOCK_HTVS_1-003_lib.mae

>  <canonical_smiles>  (628) 
CN(C)Cc1cccc(CNc2c(C(=O)N(C)[C@@H](C#N)c3ccccc3)sc3cc(F)ccc23)c1

>  <scaffold>  (628) 
O=C(NCc1ccccc1)c1sc2ccccc2c1NCc1ccccc1

>  <molecular_formula>  (628) 
C28H27FN4OS

$$$$
ATP-HTVS-6227313DC6E5
     RDKit          3D

 58 61  0  0  0  0  0  0  0  0999 V2000
  200.3875  187.6576  154.9296 O   0  0  0  0  0  0  0  0  0  0  0  0
  199.1914  187.4964  155.1727 C   0  0  0  0  0  0  0  0  0  0  0  0
  198.5173  186.3718  154.8651 N   0  0  0  0  0  0  0  0  0  0  0  0
  199.1014  185.1203  154.5098 C   0  0  0  0  0  0  0  0  0  0  0  0
  200.0075  184.4796  155.3990 C   0  0  0  0  0  0  0  0  0  0  0  0
  200.3320  185.0408  156.6458 N   0  0  0  0  0  0  0  0  0  0  0  0
  200.2633  184.2089  157.8430 C   0  0  1  0  0  0  0  0  0  0  0  0
  198.8865  183.6435  158.1392 C   0  0  0  0  0  0  0  0  0  0  0  0
  198.3972  182.5435  157.4092 C   0  0  0  0  0  0  0  0  0  0  0  0
  197.1172  182.0387  157.6568 C   0  0  0  0  0  0  0  0  0  0  0  0
  196.3015  182.6295  158.6470 C   0  0  0  0  0  0  0  0  0  0  0  0
  196.7908  183.7185  159.3952 C   0  0  0  0  0  0  0  0  0  0  0  0
  198.0846  184.2262  159.1429 C   0  0  0  0  0  0  0  0  0  0  0  0
  194.9180  182.0735  158.9227 C   0  0  1  0  0  0  0  0  0  0  0  0
  194.3272  181.4395  157.7389 N   0  0  1  0  0  0  0  0  0  0  0  0
  192.9094  181.1052  157.8593 C   0  0  2  0  0  0  0  0  0  0  0  0
  200.5382  183.2328  155.0049 C   0  0  0  0  0  0  0  0  0  0  0  0
  200.1963  182.5999  153.8741 N   0  0  0  0  0  0  0  0  0  0  0  0
  199.2902  183.1661  153.0530 C   0  0  0  0  0  0  0  0  0  0  0  0
  198.6992  184.4334  153.3333 C   0  0  0  0  0  0  0  0  0  0  0  0
  197.7516  184.9748  152.4310 C   0  0  0  0  0  0  0  0  0  0  0  0
  197.4060  184.2760  151.2553 C   0  0  0  0  0  0  0  0  0  0  0  0
  198.0008  183.0350  150.9724 C   0  0  0  0  0  0  0  0  0  0  0  0
  198.9244  182.4862  151.8774 C   0  0  0  0  0  0  0  0  0  0  0  0
  198.3972  188.6265  155.8318 C   0  0  1  0  0  0  0  0  0  0  0  0
  197.8349  188.1989  157.1809 C   0  0  0  0  0  0  0  0  0  0  0  0
  198.4144  188.6762  158.3757 C   0  0  0  0  0  0  0  0  0  0  0  0
  197.9016  188.2734  159.6252 C   0  0  0  0  0  0  0  0  0  0  0  0
  196.8090  187.3866  159.6876 C   0  0  0  0  0  0  0  0  0  0  0  0
  196.2200  186.9173  158.4981 C   0  0  0  0  0  0  0  0  0  0  0  0
  196.7234  187.3275  157.2516 C   0  0  0  0  0  0  0  0  0  0  0  0
  194.3946  182.0372  156.9138 H   0  0  0  0  0  0  0  0  0  0  0  0
  197.5091  186.3873  154.9478 H   0  0  0  0  0  0  0  0  0  0  0  0
  200.0341  185.9986  156.7854 H   0  0  0  0  0  0  0  0  0  0  0  0
  200.9732  183.3895  157.7787 H   0  0  0  0  0  0  0  0  0  0  0  0
  200.5923  184.8157  158.6907 H   0  0  0  0  0  0  0  0  0  0  0  0
  198.9808  182.0446  156.6521 H   0  0  0  0  0  0  0  0  0  0  0  0
  196.8049  181.1790  157.0842 H   0  0  0  0  0  0  0  0  0  0  0  0
  196.1912  184.1727  160.1739 H   0  0  0  0  0  0  0  0  0  0  0  0
  198.4565  185.0687  159.7075 H   0  0  0  0  0  0  0  0  0  0  0  0
  194.9789  181.3389  159.7349 H   0  0  0  0  0  0  0  0  0  0  0  0
  194.2724  182.8968  159.2503 H   0  0  0  0  0  0  0  0  0  0  0  0
  192.5594  180.6380  156.9346 H   0  0  0  0  0  0  0  0  0  0  0  0
  192.3706  182.0401  157.9681 H   0  0  0  0  0  0  0  0  0  0  0  0
  192.7168  180.4361  158.6976 H   0  0  0  0  0  0  0  0  0  0  0  0
  201.2218  182.6804  155.6316 H   0  0  0  0  0  0  0  0  0  0  0  0
  197.2992  185.9375  152.6313 H   0  0  0  0  0  0  0  0  0  0  0  0
  196.6926  184.6867  150.5575 H   0  0  0  0  0  0  0  0  0  0  0  0
  197.7560  182.4999  150.0662 H   0  0  0  0  0  0  0  0  0  0  0  0
  199.3915  181.5361  151.6612 H   0  0  0  0  0  0  0  0  0  0  0  0
  199.0373  189.5018  155.9526 H   0  0  0  0  0  0  0  0  0  0  0  0
  197.5845  188.9164  155.1724 H   0  0  0  0  0  0  0  0  0  0  0  0
  199.2561  189.3550  158.3459 H   0  0  0  0  0  0  0  0  0  0  0  0
  198.3584  188.6400  160.5344 H   0  0  0  0  0  0  0  0  0  0  0  0
  196.4356  187.0572  160.6450 H   0  0  0  0  0  0  0  0  0  0  0  0
  195.3948  186.2207  158.5371 H   0  0  0  0  0  0  0  0  0  0  0  0
  196.2587  186.9514  156.3533 H   0  0  0  0  0  0  0  0  0  0  0  0
  194.8226  180.5469  157.5850 H   0  0  0  0  0  0  0  0  0  0  0  0
  1  2  2  0
  2  3  1  0
  2 25  1  0
  3  4  1  0
  3 33  1  0
  4  5  2  0
  4 20  1  0
  5  6  1  0
  5 17  1  0
  6  7  1  0
  6 34  1  0
  7  8  1  0
  7 35  1  6
  7 36  1  0
  8  9  1  0
  8 13  2  0
  9 10  2  0
  9 37  1  0
 10 11  1  0
 10 38  1  0
 11 12  2  0
 11 14  1  0
 12 13  1  0
 12 39  1  0
 13 40  1  0
 14 15  1  0
 14 41  1  1
 14 42  1  0
 15 16  1  0
 15 32  1  6
 15 58  1  0
 16 43  1  6
 16 44  1  0
 16 45  1  0
 17 18  2  0
 17 46  1  0
 18 19  1  0
 19 20  1  0
 19 24  2  0
 20 21  2  0
 21 22  1  0
 21 47  1  0
 22 23  2  0
 22 48  1  0
 23 24  1  0
 23 49  1  0
 24 50  1  0
 25 26  1  0
 25 51  1  1
 25 52  1  0
 26 27  2  0
 26 31  1  0
 27 28  1  0
 27 53  1  0
 28 29  2  0
 28 54  1  0
 29 30  1  0
 29 55  1  0
 30 31  2  0
 30 56  1  0
 31 57  1  0
M  CHG  1  15   1
M  END
>  <s_epik_cmdline>  (629) 
J2VwaWtfcHl0aG9uJywgJy1waCcsICc3LjAwMDAwMCcsICctcGh0JywgJzIuMDAwMDAwJywgJy1tcycsICcxNicsICctdG4nLCAnOCcsICctbWEnLCAnMjAwJywgJy1pbWFlJywgJzxpbmZpbGUubWFlPicsICctb21hZScsICc8b3V0ZmlsZS5tYWU+Jw==

>  <s_epik_input>  (629) 
W2NIXTFbY0hdW2NIXVtjSF1bY0hdYzFbQ0gyXUMoPU8pW05IXWMoYyhjMjMpW2NIXVtjSF1bY0hdW2NIXTMpYyhbY0hdbjIpW05IXVtDSDJdYzRbY0hdW2NIXWMoW2NIXVtjSF00KVtDSDJdW05IXVtDSDNd

>  <s_i_glide_gridfile>  (629) 
ATP-Grid

>  <s_lp_Force_Field>  (629) 
OPLS_2005

>  <s_lp_Variant>  (629) 
rxn502b____EMOL530620____EMOL13728749____EMOL108753565-1

>  <s_lp_label>  (629) 
2264_sdstereoexpander_1_neutralizer_1_epik_1_stereoizer_1

>  <s_m_source_file>  (629) 
ATP-VSW-LIGPREP-002-in.maegz

>  <s_sd_BIOSOLVEIT.INFINISEE\_QUERY\_NAME>  (629) 
Ref-Lig

>  <s_sd_BIOSOLVEIT.INFINISEE\_QUERY\_SMILES>  (629) 
S(c1nc2c(cc1C[NH2+]Cc3ccc(cc3)C[NH+](C)C)cccc2)Cc4ccccc4

>  <s_sd_BIOSOLVEIT.INFINISEE\_REACTION\_NAME>  (629) 
rxn502b

>  <s_sd_BIOSOLVEIT.INFINISEE\_REAGENT1\_NAME>  (629) 
EMOL530620

>  <s_sd_BIOSOLVEIT.INFINISEE\_REAGENT1\_SMILES>  (629) 
ClC(=O)Cc1ccccc1

>  <s_sd_BIOSOLVEIT.INFINISEE\_REAGENT2\_NAME>  (629) 
EMOL13728749

>  <s_sd_BIOSOLVEIT.INFINISEE\_REAGENT2\_SMILES>  (629) 
Brc1c(N)c2c(nc1)cccc2

>  <s_sd_BIOSOLVEIT.INFINISEE\_REAGENT3\_NAME>  (629) 
EMOL108753565

>  <s_sd_BIOSOLVEIT.INFINISEE\_REAGENT3\_SMILES>  (629) 
N(Cc1ccc(cc1)CN)C

>  <s_sd_BIOSOLVEIT.INFINISEE\_SPACE>  (629) 
eXplore_7tr_2022-12

>  <s_vsw_compound_code>  (629) 
72418

>  <s_vsw_variant>  (629) 
72418-1

>  <r_epik_Charging_Adjusted_Penalty>  (629) 
0.050750890103815498

>  <r_epik_Ionization_Penalty>  (629) 
0.034799999999999998

>  <r_epik_Ionization_Penalty_Charging>  (629) 
0.016

>  <r_epik_Ionization_Penalty_Neutral>  (629) 
0.018800000000000001

>  <r_epik_State_Penalty>  (629) 
0.034799999999999998

>  <r_i_docking_score>  (629) 
-5.41139131934922

>  <r_i_glide_ecoul>  (629) 
-11.345985412597701

>  <r_i_glide_eff_state_penalty>  (629) 
0.034799999999999998

>  <r_i_glide_einternal>  (629) 
5.78572702407837

>  <r_i_glide_emodel>  (629) 
-58.549697041939197

>  <r_i_glide_energy>  (629) 
-40.668666839599602

>  <r_i_glide_erotb>  (629) 
0.57030991487886595

>  <r_i_glide_esite>  (629) 
-0.104418545976373

>  <r_i_glide_evdw>  (629) 
-29.322681427001999

>  <r_i_glide_gscore>  (629) 
-5.4461913193492197

>  <r_i_glide_hbond>  (629) 
-0.396134283216168

>  <r_i_glide_ligand_efficiency>  (629) 
-0.17456101030158799

>  <r_i_glide_ligand_efficiency_ln>  (629) 
-1.2204345817406499

>  <r_i_glide_ligand_efficiency_sa>  (629) 
-0.54836257979561298

>  <r_i_glide_lipo>  (629) 
-1.1997759353064099

>  <r_i_glide_metal>  (629) 
-0

>  <r_i_glide_rewards>  (629) 
-1.1481405864893901

>  <r_lp_Energy>  (629) 
28.124289999999998

>  <r_qp_ACxDN^.5/SA>  (629) 
0.014788000000000001

>  <r_qp_CIQPlogS>  (629) 
-5.2809999999999997

>  <r_qp_EA(eV)>  (629) 
0.92500000000000004

>  <r_qp_FISA>  (629) 
81.171999999999997

>  <r_qp_FOSA>  (629) 
191.483

>  <r_qp_IP(eV)>  (629) 
8.5410000000000004

>  <r_qp_Jm>  (629) 
0.047225243389428503

>  <r_qp_PISA>  (629) 
430.09699999999998

>  <r_qp_PSA>  (629) 
68.432000000000002

>  <r_qp_PercentHumanOralAbsorption>  (629) 
100

>  <r_qp_QPPCaco>  (629) 
419.80599999999998

>  <r_qp_QPPMDCK>  (629) 
214.185

>  <r_qp_QPlogBB>  (629) 
-0.28100000000000003

>  <r_qp_QPlogHERG>  (629) 
-6.8449999999999998

>  <r_qp_QPlogKhsa>  (629) 
0.69799999999999995

>  <r_qp_QPlogKp>  (629) 
-2.7949999999999999

>  <r_qp_QPlogPC16>  (629) 
15.055

>  <r_qp_QPlogPo/w>  (629) 
4.3949999999999996

>  <r_qp_QPlogPoct>  (629) 
23.675000000000001

>  <r_qp_QPlogPw>  (629) 
13.427

>  <r_qp_QPlogS>  (629) 
-4.1440000000000001

>  <r_qp_QPpolrz>  (629) 
47.106999999999999

>  <r_qp_SASA>  (629) 
702.75099999999998

>  <r_qp_SAamideO>  (629) 
0

>  <r_qp_SAfluorine>  (629) 
0

>  <r_qp_WPSA>  (629) 
0

>  <r_qp_accptHB>  (629) 
6

>  <r_qp_dip^2/V>  (629) 
0.0234953

>  <r_qp_dipole>  (629) 
5.6459999999999999

>  <r_qp_donorHB>  (629) 
3

>  <r_qp_glob>  (629) 
0.84332059999999998

>  <r_qp_mol_MW>  (629) 
410.51799999999997

>  <r_qp_volume>  (629) 
1356.575

>  <r_sd_BIOSOLVEIT.INFINISEE\_FTREES\_SIMILARITY>  (629) 
0.92500000000000004

>  <r_sd_BIOSOLVEIT.LOGP>  (629) 
3.7212999999999998

>  <r_sd_BIOSOLVEIT.MOLECULAR\_WEIGHT>  (629) 
411.52600000000001

>  <r_sd_BIOSOLVEIT.TPSA>  (629) 
70.629999999999995

>  <i_epik_Tot_Q>  (629) 
1

>  <i_epik_Tot_abs_Q>  (629) 
1

>  <i_f3d_flags>  (629) 
0

>  <i_i_glide_confnum>  (629) 
5

>  <i_i_glide_lignum>  (629) 
898

>  <i_i_glide_posenum>  (629) 
4

>  <i_i_glide_rotatable_bonds>  (629) 
9

>  <i_lp_mmshare_version>  (629) 
65135

>  <i_m_ct_format>  (629) 
2

>  <i_m_source_file_index>  (629) 
2264

>  <i_qp_#NandO>  (629) 
5

>  <i_qp_#acid>  (629) 
0

>  <i_qp_#amide>  (629) 
0

>  <i_qp_#amidine>  (629) 
0

>  <i_qp_#amine>  (629) 
1

>  <i_qp_#in34>  (629) 
0

>  <i_qp_#in56>  (629) 
22

>  <i_qp_#metab>  (629) 
7

>  <i_qp_#nonHatm>  (629) 
31

>  <i_qp_#noncon>  (629) 
0

>  <i_qp_#ringatoms>  (629) 
22

>  <i_qp_#rotor>  (629) 
8

>  <i_qp_#rtvFG>  (629) 
0

>  <i_qp_#stars>  (629) 
0

>  <i_qp_CNS>  (629) 
0

>  <i_qp_HumanOralAbsorption>  (629) 
3

>  <i_qp_RuleOfFive>  (629) 
0

>  <i_qp_RuleOfThree>  (629) 
1

>  <i_sd_BIOSOLVEIT.INFINISEE\_RESULT\_RANK>  (629) 
8674

>  <i_sd_version>  (629) 
0

>  <b_lp_Chiralities_Consistent>  (629) 
1

>  <b_sd_chiral_flag>  (629) 
0

>  <canonical_id>  (629) 
ATP-HTVS-6227313DC6E5

>  <compound_code>  (629) 
72418

>  <title>  (629) 
rxn502b____EMOL530620____EMOL13728749____EMOL108753565

>  <variant>  (629) 
72418-1

>  <source_file>  (629) 
运行/运行/ATP-VSW/ATP-VSW-DOCK_HTVS_1-002_lib.maegz

>  <canonical_smiles>  (629) 
C[NH2+]Cc1ccc(CNc2cnc3ccccc3c2NC(=O)Cc2ccccc2)cc1

>  <scaffold>  (629) 
O=C(Cc1ccccc1)Nc1c(NCc2ccccc2)cnc2ccccc12

>  <molecular_formula>  (629) 
C26H27N4O+

$$$$
ATP-HTVS-6286382C1C45
     RDKit          3D

 67 70  0  0  0  0  0  0  0  0999 V2000
  197.8352  179.4303  154.6586 S   0  0  0  0  0  0  0  0  0  0  0  0
  199.2884  179.2835  155.6196 C   0  0  0  0  0  0  0  0  0  0  0  0
  199.6408  180.5459  156.1980 C   0  0  0  0  0  0  0  0  0  0  0  0
  200.7678  180.5449  157.0609 C   0  0  0  0  0  0  0  0  0  0  0  0
  201.5021  179.3738  157.3326 C   0  0  0  0  0  0  0  0  0  0  0  0
  201.1460  178.1588  156.7179 C   0  0  0  0  0  0  0  0  0  0  0  0
  200.0422  178.1190  155.8496 C   0  0  0  0  0  0  0  0  0  0  0  0
  198.7546  181.6125  155.7477 C   0  0  0  0  0  0  0  0  0  0  0  0
  198.8914  182.9492  156.1647 N   0  0  0  0  0  0  0  0  0  0  0  0
  198.8065  183.2879  157.5797 C   0  0  1  0  0  0  0  0  0  0  0  0
  197.4175  183.3036  158.1938 C   0  0  0  0  0  0  0  0  0  0  0  0
  197.0296  184.4114  158.9627 C   0  0  0  0  0  0  0  0  0  0  0  0
  195.7191  184.5180  159.4811 C   0  0  0  0  0  0  0  0  0  0  0  0
  194.8204  183.4371  159.2996 C   0  0  0  0  0  0  0  0  0  0  0  0
  195.2273  182.2810  158.5968 C   0  0  0  0  0  0  0  0  0  0  0  0
  196.5158  182.2160  158.0377 C   0  0  0  0  0  0  0  0  0  0  0  0
  195.2540  185.7768  160.2156 C   0  0  1  0  0  0  0  0  0  0  0  0
  196.2515  186.8356  160.3788 N   0  0  0  0  0  0  0  0  0  0  0  0
  195.7738  187.8486  161.3169 C   0  0  2  0  0  0  0  0  0  0  0  0
  196.6323  187.4817  159.1304 C   0  0  2  0  0  0  0  0  0  0  0  0
  197.7756  181.1445  154.8917 C   0  0  0  0  0  0  0  0  0  0  0  0
  196.6835  181.8980  154.1922 C   0  0  1  0  0  0  0  0  0  0  0  0
  197.1584  182.9735  153.3051 N   0  0  0  0  0  0  0  0  0  0  0  0
  197.7266  182.7837  152.0861 C   0  0  0  0  0  0  0  0  0  0  0  0
  197.9562  183.7248  151.3248 O   0  0  0  0  0  0  0  0  0  0  0  0
  198.1537  181.3748  151.6332 C   0  0  1  0  0  0  0  0  0  0  0  0
  197.0107  180.5447  150.9973 C   0  0  1  0  0  0  0  0  0  0  0  0
  197.4933  179.2287  150.4038 C   0  0  0  0  0  0  0  0  0  0  0  0
  198.2599  178.3238  151.1735 C   0  0  0  0  0  0  0  0  0  0  0  0
  198.6812  177.0989  150.6217 C   0  0  0  0  0  0  0  0  0  0  0  0
  198.3463  176.7738  149.2941 C   0  0  0  0  0  0  0  0  0  0  0  0
  197.5851  177.6723  148.5230 C   0  0  0  0  0  0  0  0  0  0  0  0
  197.1562  178.8977  149.0760 C   0  0  0  0  0  0  0  0  0  0  0  0
  196.8931  184.3333  153.7882 C   0  0  2  0  0  0  0  0  0  0  0  0
  201.0664  181.4718  157.5272 H   0  0  0  0  0  0  0  0  0  0  0  0
  202.3456  179.4076  158.0086 H   0  0  0  0  0  0  0  0  0  0  0  0
  201.7230  177.2681  156.9256 H   0  0  0  0  0  0  0  0  0  0  0  0
  199.7673  177.1896  155.3760 H   0  0  0  0  0  0  0  0  0  0  0  0
  198.3653  183.5920  155.5922 H   0  0  0  0  0  0  0  0  0  0  0  0
  199.4207  182.6343  158.1874 H   0  0  0  0  0  0  0  0  0  0  0  0
  199.2334  184.2832  157.6756 H   0  0  0  0  0  0  0  0  0  0  0  0
  197.7339  185.2193  159.1235 H   0  0  0  0  0  0  0  0  0  0  0  0
  193.8174  183.4890  159.7086 H   0  0  0  0  0  0  0  0  0  0  0  0
  194.5558  181.4351  158.4888 H   0  0  0  0  0  0  0  0  0  0  0  0
  196.7990  181.3132  157.5123 H   0  0  0  0  0  0  0  0  0  0  0  0
  194.3813  186.2008  159.7281 H   0  0  0  0  0  0  0  0  0  0  0  0
  194.8983  185.4491  161.1898 H   0  0  0  0  0  0  0  0  0  0  0  0
  196.5639  188.5659  161.5344 H   0  0  0  0  0  0  0  0  0  0  0  0
  195.4596  187.3938  162.2528 H   0  0  0  0  0  0  0  0  0  0  0  0
  194.9205  188.3952  160.9346 H   0  0  0  0  0  0  0  0  0  0  0  0
  197.4337  188.1893  159.3435 H   0  0  0  0  0  0  0  0  0  0  0  0
  195.7949  188.0599  158.7323 H   0  0  0  0  0  0  0  0  0  0  0  0
  196.9957  186.7751  158.4047 H   0  0  0  0  0  0  0  0  0  0  0  0
  196.0667  181.2085  153.6188 H   0  0  0  0  0  0  0  0  0  0  0  0
  195.9859  182.2721  154.9416 H   0  0  0  0  0  0  0  0  0  0  0  0
  198.9472  181.5021  150.8950 H   0  0  0  0  0  0  0  0  0  0  0  0
  198.6360  180.8514  152.4557 H   0  0  0  0  0  0  0  0  0  0  0  0
  196.2517  180.2782  151.7321 H   0  0  0  0  0  0  0  0  0  0  0  0
  196.4910  181.1357  150.2377 H   0  0  0  0  0  0  0  0  0  0  0  0
  198.5283  178.5453  152.1938 H   0  0  0  0  0  0  0  0  0  0  0  0
  199.2603  176.4124  151.2197 H   0  0  0  0  0  0  0  0  0  0  0  0
  198.6755  175.8368  148.8675 H   0  0  0  0  0  0  0  0  0  0  0  0
  197.3254  177.4260  147.5038 H   0  0  0  0  0  0  0  0  0  0  0  0
  196.5610  179.5776  148.4835 H   0  0  0  0  0  0  0  0  0  0  0  0
  197.8120  184.9179  153.8276 H   0  0  0  0  0  0  0  0  0  0  0  0
  196.4594  184.3547  154.7889 H   0  0  0  0  0  0  0  0  0  0  0  0
  196.1945  184.8454  153.1279 H   0  0  0  0  0  0  0  0  0  0  0  0
  1  2  1  0
  1 21  1  0
  2  3  1  0
  2  7  2  0
  3  4  2  0
  3  8  1  0
  4  5  1  0
  4 35  1  0
  5  6  2  0
  5 36  1  0
  6  7  1  0
  6 37  1  0
  7 38  1  0
  8  9  1  0
  8 21  2  0
  9 10  1  0
  9 39  1  0
 10 11  1  0
 10 40  1  1
 10 41  1  0
 11 12  2  0
 11 16  1  0
 12 13  1  0
 12 42  1  0
 13 14  2  0
 13 17  1  0
 14 15  1  0
 14 43  1  0
 15 16  2  0
 15 44  1  0
 16 45  1  0
 17 18  1  0
 17 46  1  6
 17 47  1  0
 18 19  1  0
 18 20  1  0
 19 48  1  1
 19 49  1  0
 19 50  1  0
 20 51  1  1
 20 52  1  0
 20 53  1  0
 21 22  1  0
 22 23  1  0
 22 54  1  6
 22 55  1  0
 23 24  1  0
 23 34  1  0
 24 25  2  0
 24 26  1  0
 26 27  1  0
 26 56  1  6
 26 57  1  0
 27 28  1  0
 27 58  1  1
 27 59  1  0
 28 29  2  0
 28 33  1  0
 29 30  1  0
 29 60  1  0
 30 31  2  0
 30 61  1  0
 31 32  1  0
 31 62  1  0
 32 33  2  0
 32 63  1  0
 33 64  1  0
 34 65  1  1
 34 66  1  0
 34 67  1  0
M  END
>  <s_epik_cmdline>  (630) 
J2VwaWtfcHl0aG9uJywgJy1waCcsICc3LjAwMDAwMCcsICctcGh0JywgJzIuMDAwMDAwJywgJy1tcycsICcxNicsICctdG4nLCAnOCcsICctbWEnLCAnMjAwJywgJy1pbWFlJywgJzxpbmZpbGUubWFlPicsICctb21hZScsICc8b3V0ZmlsZS5tYWU+Jw==

>  <s_epik_input>  (630) 
W2NIXTFbY0hdW2NIXWMoW0NIMl1OKFtDSDNdKVtDSDNdKVtjSF1jMVtDSDJdW05IXWMoYyhjMjMpW2NIXVtjSF1bY0hdW2NIXTMpYyhzMilbQ0gyXU4oW0NIM10pQyg9TylbQ0gyXVtDSDJdYzRbY0hdW2NIXVtjSF1bY0hdW2NIXTQ=

>  <s_i_glide_gridfile>  (630) 
ATP-Grid

>  <s_lp_Force_Field>  (630) 
OPLS_2005

>  <s_lp_Variant>  (630) 
rxn502c____EMOL480962____EMOL49259969____EMOL2873214-2

>  <s_lp_label>  (630) 
2229_sdstereoexpander_1_neutralizer_1_epik_2_stereoizer_1

>  <s_m_source_file>  (630) 
ATP-VSW-LIGPREP-003-in.maegz

>  <s_sd_BIOSOLVEIT.INFINISEE\_QUERY\_NAME>  (630) 
Ref-Lig

>  <s_sd_BIOSOLVEIT.INFINISEE\_QUERY\_SMILES>  (630) 
S(c1nc2c(cc1C[NH2+]Cc3ccc(cc3)C[NH+](C)C)cccc2)Cc4ccccc4

>  <s_sd_BIOSOLVEIT.INFINISEE\_REACTION\_NAME>  (630) 
rxn502c

>  <s_sd_BIOSOLVEIT.INFINISEE\_REAGENT1\_NAME>  (630) 
EMOL480962

>  <s_sd_BIOSOLVEIT.INFINISEE\_REAGENT1\_SMILES>  (630) 
O=C(O)CCc1ccccc1

>  <s_sd_BIOSOLVEIT.INFINISEE\_REAGENT2\_NAME>  (630) 
EMOL49259969

>  <s_sd_BIOSOLVEIT.INFINISEE\_REAGENT2\_SMILES>  (630) 
ClC=1c2c(SC1CNC)cccc2

>  <s_sd_BIOSOLVEIT.INFINISEE\_REAGENT3\_NAME>  (630) 
EMOL2873214

>  <s_sd_BIOSOLVEIT.INFINISEE\_REAGENT3\_SMILES>  (630) 
N(Cc1cc(ccc1)CN)(C)C

>  <s_sd_BIOSOLVEIT.INFINISEE\_SPACE>  (630) 
eXplore_7tr_2022-12

>  <s_vsw_compound_code>  (630) 
71299

>  <s_vsw_variant>  (630) 
71299-2

>  <r_epik_Charging_Adjusted_Penalty>  (630) 
1.5746020351915

>  <r_epik_Ionization_Penalty>  (630) 
1.5746

>  <r_epik_Ionization_Penalty_Charging>  (630) 
0

>  <r_epik_Ionization_Penalty_Neutral>  (630) 
1.5746

>  <r_epik_State_Penalty>  (630) 
1.5746

>  <r_i_docking_score>  (630) 
-2.3396054922504601

>  <r_i_glide_ecoul>  (630) 
-2.5355877876281698

>  <r_i_glide_eff_state_penalty>  (630) 
1.5746

>  <r_i_glide_einternal>  (630) 
7.8394837379455602

>  <r_i_glide_emodel>  (630) 
-52.901348867385501

>  <r_i_glide_energy>  (630) 
-45.786480426788302

>  <r_i_glide_erotb>  (630) 
0.81779679772842495

>  <r_i_glide_esite>  (630) 
-0.041123391097654199

>  <r_i_glide_evdw>  (630) 
-43.250892639160199

>  <r_i_glide_gscore>  (630) 
-3.9142054922504599

>  <r_i_glide_hbond>  (630) 
0

>  <r_i_glide_ligand_efficiency>  (630) 
-0.068811926242660595

>  <r_i_glide_ligand_efficiency_ln>  (630) 
-0.51688447694936102

>  <r_i_glide_ligand_efficiency_sa>  (630) 
-0.222923928062322

>  <r_i_glide_lipo>  (630) 
-1.95475396241536

>  <r_i_glide_metal>  (630) 
-0

>  <r_i_glide_rewards>  (630) 
-0.19324213636363499

>  <r_lp_Energy>  (630) 
30.694184

>  <r_qp_ACxDN^.5/SA>  (630) 
0.00826

>  <r_qp_CIQPlogS>  (630) 
-4.9340000000000002

>  <r_qp_EA(eV)>  (630) 
0.72099999999999997

>  <r_qp_FISA>  (630) 
20.530000000000001

>  <r_qp_FOSA>  (630) 
259.39100000000002

>  <r_qp_IP(eV)>  (630) 
8.1760000000000002

>  <r_qp_Jm>  (630) 
0.079306319520751706

>  <r_qp_PISA>  (630) 
407.96199999999999

>  <r_qp_PSA>  (630) 
38.341999999999999

>  <r_qp_PercentHumanOralAbsorption>  (630) 
100

>  <r_qp_QPPCaco>  (630) 
348.95299999999997

>  <r_qp_QPPMDCK>  (630) 
359.20600000000002

>  <r_qp_QPlogBB>  (630) 
0.66300000000000003

>  <r_qp_QPlogHERG>  (630) 
-5.9829999999999997

>  <r_qp_QPlogKhsa>  (630) 
0.628

>  <r_qp_QPlogKp>  (630) 
-3.6259999999999999

>  <r_qp_QPlogPC16>  (630) 
15.023

>  <r_qp_QPlogPo/w>  (630) 
4.6539999999999999

>  <r_qp_QPlogPoct>  (630) 
21.117000000000001

>  <r_qp_QPlogPw>  (630) 
10.050000000000001

>  <r_qp_QPlogS>  (630) 
-3.1480000000000001

>  <r_qp_QPpolrz>  (630) 
49.051000000000002

>  <r_qp_SASA>  (630) 
726.39499999999998

>  <r_qp_SAamideO>  (630) 
6.5640000000000001

>  <r_qp_SAfluorine>  (630) 
0

>  <r_qp_WPSA>  (630) 
38.512999999999998

>  <r_qp_accptHB>  (630) 
6

>  <r_qp_dip^2/V>  (630) 
0.0099845000000000003

>  <r_qp_dipole>  (630) 
3.7949999999999999

>  <r_qp_donorHB>  (630) 
1

>  <r_qp_glob>  (630) 
0.84997610000000001

>  <r_qp_mol_MW>  (630) 
471.65899999999999

>  <r_qp_volume>  (630) 
1442.521

>  <r_sd_BIOSOLVEIT.INFINISEE\_FTREES\_SIMILARITY>  (630) 
0.92800000000000005

>  <r_sd_BIOSOLVEIT.LOGP>  (630) 
4.7491000000000003

>  <r_sd_BIOSOLVEIT.MOLECULAR\_WEIGHT>  (630) 
472.673

>  <r_sd_BIOSOLVEIT.TPSA>  (630) 
36.780000000000001

>  <i_epik_Tot_Q>  (630) 
0

>  <i_epik_Tot_abs_Q>  (630) 
0

>  <i_f3d_flags>  (630) 
0

>  <i_i_glide_confnum>  (630) 
9

>  <i_i_glide_lignum>  (630) 
898

>  <i_i_glide_posenum>  (630) 
10

>  <i_i_glide_rotatable_bonds>  (630) 
11

>  <i_lp_mmshare_version>  (630) 
65135

>  <i_m_ct_format>  (630) 
2

>  <i_m_source_file_index>  (630) 
2229

>  <i_qp_#NandO>  (630) 
4

>  <i_qp_#acid>  (630) 
0

>  <i_qp_#amide>  (630) 
1

>  <i_qp_#amidine>  (630) 
0

>  <i_qp_#amine>  (630) 
2

>  <i_qp_#in34>  (630) 
0

>  <i_qp_#in56>  (630) 
21

>  <i_qp_#metab>  (630) 
8

>  <i_qp_#nonHatm>  (630) 
34

>  <i_qp_#noncon>  (630) 
0

>  <i_qp_#ringatoms>  (630) 
21

>  <i_qp_#rotor>  (630) 
10

>  <i_qp_#rtvFG>  (630) 
0

>  <i_qp_#stars>  (630) 
0

>  <i_qp_CNS>  (630) 
2

>  <i_qp_HumanOralAbsorption>  (630) 
3

>  <i_qp_RuleOfFive>  (630) 
0

>  <i_qp_RuleOfThree>  (630) 
1

>  <i_sd_BIOSOLVEIT.INFINISEE\_RESULT\_RANK>  (630) 
5875

>  <i_sd_version>  (630) 
0

>  <b_lp_Chiralities_Consistent>  (630) 
1

>  <b_sd_chiral_flag>  (630) 
0

>  <canonical_id>  (630) 
ATP-HTVS-6286382C1C45

>  <compound_code>  (630) 
71299

>  <title>  (630) 
rxn502c____EMOL480962____EMOL49259969____EMOL2873214

>  <variant>  (630) 
71299-2

>  <source_file>  (630) 
运行/运行/ATP-VSW/ATP-VSW-DOCK_HTVS_1-003_lib/ATP-VSW-DOCK_HTVS_1-003_lib.mae

>  <canonical_smiles>  (630) 
CN(C)Cc1cccc(CNc2c(CN(C)C(=O)CCc3ccccc3)sc3ccccc23)c1

>  <scaffold>  (630) 
O=C(CCc1ccccc1)NCc1sc2ccccc2c1NCc1ccccc1

>  <molecular_formula>  (630) 
C29H33N3OS

$$$$
ATP-HTVS-62D29CE4051A
     RDKit          3D

 51 53  0  0  0  0  0  0  0  0999 V2000
  197.6048  184.1760  154.7094 F   0  0  0  0  0  0  0  0  0  0  0  0
  197.5352  182.8228  154.6985 C   0  0  0  0  0  0  0  0  0  0  0  0
  197.6406  182.1015  155.9001 C   0  0  0  0  0  0  0  0  0  0  0  0
  197.7908  182.7777  157.0809 O   0  0  0  0  0  0  0  0  0  0  0  0
  199.0084  182.8450  157.7084 C   0  0  0  0  0  0  0  0  0  0  0  0
  200.0778  182.2791  157.0896 N   0  0  0  0  0  0  0  0  0  0  0  0
  201.2623  182.2716  157.7244 C   0  0  0  0  0  0  0  0  0  0  0  0
  201.4529  182.8467  158.9975 C   0  0  0  0  0  0  0  0  0  0  0  0
  200.3478  183.4413  159.6339 C   0  0  0  0  0  0  0  0  0  0  0  0
  199.0981  183.4581  158.9893 C   0  0  0  0  0  0  0  0  0  0  0  0
  197.9874  184.0365  159.6254 N   0  0  0  0  0  0  0  0  0  0  0  0
  197.0873  184.8634  158.8461 C   0  0  1  0  0  0  0  0  0  0  0  0
  196.0938  185.6018  159.6915 C   0  0  0  0  0  0  0  0  0  0  0  0
  194.7952  185.0885  159.8343 C   0  0  0  0  0  0  0  0  0  0  0  0
  193.8561  185.7798  160.5979 C   0  0  0  0  0  0  0  0  0  0  0  0
  194.1665  187.0125  161.2175 C   0  0  0  0  0  0  0  0  0  0  0  0
  195.4776  187.5241  161.0622 C   0  0  0  0  0  0  0  0  0  0  0  0
  196.4365  186.8271  160.3010 C   0  0  0  0  0  0  0  0  0  0  0  0
  193.0990  187.8050  161.9667 C   0  0  2  0  0  0  0  0  0  0  0  0
  193.0573  187.4711  163.3971 N   0  0  0  0  0  0  0  0  0  0  0  0
  192.5628  188.5701  164.2136 C   0  0  2  0  0  0  0  0  0  0  0  0
  192.3187  186.2626  163.7401 C   0  0  2  0  0  0  0  0  0  0  0  0
  191.7001  187.7466  161.2975 C   0  0  2  0  0  0  0  0  0  0  0  0
  197.5414  180.7000  155.9029 C   0  0  0  0  0  0  0  0  0  0  0  0
  197.3639  180.0067  154.6917 C   0  0  0  0  0  0  0  0  0  0  0  0
  197.2703  180.7248  153.4807 C   0  0  0  0  0  0  0  0  0  0  0  0
  197.3567  182.1334  153.4813 C   0  0  0  0  0  0  0  0  0  0  0  0
  202.0868  181.7911  157.2099 H   0  0  0  0  0  0  0  0  0  0  0  0
  202.4244  182.8261  159.4664 H   0  0  0  0  0  0  0  0  0  0  0  0
  200.4632  183.8898  160.6098 H   0  0  0  0  0  0  0  0  0  0  0  0
  198.0319  184.2412  160.6165 H   0  0  0  0  0  0  0  0  0  0  0  0
  197.6563  185.5713  158.2384 H   0  0  0  0  0  0  0  0  0  0  0  0
  196.4772  184.2711  158.1674 H   0  0  0  0  0  0  0  0  0  0  0  0
  194.5028  184.1700  159.3330 H   0  0  0  0  0  0  0  0  0  0  0  0
  192.8598  185.3695  160.6606 H   0  0  0  0  0  0  0  0  0  0  0  0
  195.7404  188.4857  161.4895 H   0  0  0  0  0  0  0  0  0  0  0  0
  197.4171  187.2550  160.1337 H   0  0  0  0  0  0  0  0  0  0  0  0
  193.4443  188.8350  161.8865 H   0  0  0  0  0  0  0  0  0  0  0  0
  192.5574  188.2915  165.2703 H   0  0  0  0  0  0  0  0  0  0  0  0
  191.5415  188.8432  163.9515 H   0  0  0  0  0  0  0  0  0  0  0  0
  193.2091  189.4435  164.1117 H   0  0  0  0  0  0  0  0  0  0  0  0
  192.4015  186.0270  164.8031 H   0  0  0  0  0  0  0  0  0  0  0  0
  192.7188  185.4359  163.1717 H   0  0  0  0  0  0  0  0  0  0  0  0
  191.2497  186.3451  163.5215 H   0  0  0  0  0  0  0  0  0  0  0  0
  191.7315  188.0226  160.2461 H   0  0  0  0  0  0  0  0  0  0  0  0
  190.9843  188.3963  161.7836 H   0  0  0  0  0  0  0  0  0  0  0  0
  191.2701  186.7490  161.3258 H   0  0  0  0  0  0  0  0  0  0  0  0
  197.5865  180.1592  156.8363 H   0  0  0  0  0  0  0  0  0  0  0  0
  197.2915  178.9318  154.7112 H   0  0  0  0  0  0  0  0  0  0  0  0
  197.1426  180.1928  152.5476 H   0  0  0  0  0  0  0  0  0  0  0  0
  197.2770  182.6922  152.5627 H   0  0  0  0  0  0  0  0  0  0  0  0
  1  2  1  0
  2  3  1  0
  2 27  2  0
  3  4  1  0
  3 24  2  0
  4  5  1  0
  5  6  1  0
  5 10  2  0
  6  7  2  0
  7  8  1  0
  7 28  1  0
  8  9  2  0
  8 29  1  0
  9 10  1  0
  9 30  1  0
 10 11  1  0
 11 12  1  0
 11 31  1  0
 12 13  1  0
 12 32  1  6
 12 33  1  0
 13 14  1  0
 13 18  2  0
 14 15  2  0
 14 34  1  0
 15 16  1  0
 15 35  1  0
 16 17  2  0
 16 19  1  0
 17 18  1  0
 17 36  1  0
 18 37  1  0
 19 20  1  0
 19 23  1  0
 19 38  1  1
 20 21  1  0
 20 22  1  0
 21 39  1  1
 21 40  1  0
 21 41  1  0
 22 42  1  1
 22 43  1  0
 22 44  1  0
 23 45  1  6
 23 46  1  0
 23 47  1  0
 24 25  1  0
 24 48  1  0
 25 26  2  0
 25 49  1  0
 26 27  1  0
 26 50  1  0
 27 51  1  0
M  END
>  <s_epik_cmdline>  (631) 
J2VwaWtfcHl0aG9uJywgJy1waCcsICc3LjAwMDAwMCcsICctcGh0JywgJzIuMDAwMDAwJywgJy1tcycsICcxNicsICctdG4nLCAnOCcsICctbWEnLCAnMjAwJywgJy1pbWFlJywgJzxpbmZpbGUubWFlPicsICctb21hZScsICc8b3V0ZmlsZS5tYWU+Jw==

>  <s_epik_input>  (631) 
W2NIXTFbY0hdW2NIXVtjSF1jKGMxRilPYzJuW2NIXVtjSF1bY0hdYzJbTkhdW0NIMl1jM1tjSF1bY0hdYyhbY0hdW2NIXTMpW0NAQEhdKFtDSDNdKU4oW0NIM10pW0NIM10=

>  <s_i_glide_gridfile>  (631) 
ATP-Grid

>  <s_lp_Force_Field>  (631) 
OPLS_2005

>  <s_lp_Variant>  (631) 
a4____313171____411479-3

>  <s_lp_label>  (631) 
559_sdstereoexpander_1_neutralizer_1_epik_2_stereoizer_1

>  <s_m_source_file>  (631) 
ATP-VSW-LIGPREP-002-in.maegz

>  <s_sd_BIOSOLVEIT.INFINISEE\_QUERY\_NAME>  (631) 
Ref-Lig

>  <s_sd_BIOSOLVEIT.INFINISEE\_QUERY\_SMILES>  (631) 
S(c1nc2c(cc1C[NH2+]Cc3ccc(cc3)C[NH+](C)C)cccc2)Cc4ccccc4

>  <s_sd_BIOSOLVEIT.INFINISEE\_REACTION\_NAME>  (631) 
a4

>  <s_sd_BIOSOLVEIT.INFINISEE\_REAGENT1\_SMILES>  (631) 
[R1*]Nc1c(Oc2c(F)cccc2)nccc1

>  <s_sd_BIOSOLVEIT.INFINISEE\_REAGENT2\_SMILES>  (631) 
[R1*]Cc1ccc(cc1)C(N(C)C)C

>  <s_sd_BIOSOLVEIT.INFINISEE\_SPACE>  (631) 
FreedomSpace_5bn_2023-06

>  <s_vsw_compound_code>  (631) 
17858

>  <s_vsw_variant>  (631) 
17858-3

>  <r_epik_Charging_Adjusted_Penalty>  (631) 
1.62841753521399

>  <r_epik_Ionization_Penalty>  (631) 
1.6284000000000001

>  <r_epik_Ionization_Penalty_Charging>  (631) 
0

>  <r_epik_Ionization_Penalty_Neutral>  (631) 
1.6284000000000001

>  <r_epik_State_Penalty>  (631) 
1.6284000000000001

>  <r_i_docking_score>  (631) 
-2.40287405166579

>  <r_i_glide_ecoul>  (631) 
-2.6865367889404301

>  <r_i_glide_eff_state_penalty>  (631) 
1.6284000000000001

>  <r_i_glide_einternal>  (631) 
8.4469528198242205

>  <r_i_glide_emodel>  (631) 
-35.6798666148484

>  <r_i_glide_energy>  (631) 
-31.855495452880898

>  <r_i_glide_erotb>  (631) 
0.86423003066705795

>  <r_i_glide_esite>  (631) 
-0.0011807830943834201

>  <r_i_glide_evdw>  (631) 
-29.168958663940401

>  <r_i_glide_gscore>  (631) 
-4.0312740516657897

>  <r_i_glide_hbond>  (631) 
-0.1030288292143

>  <r_i_glide_ligand_efficiency>  (631) 
-0.088995335246881302

>  <r_i_glide_ligand_efficiency_ln>  (631) 
-0.55934946475301595

>  <r_i_glide_ligand_efficiency_sa>  (631) 
-0.26698600544732998

>  <r_i_glide_lipo>  (631) 
-2.0124378116678998

>  <r_i_glide_metal>  (631) 
-0

>  <r_i_glide_rewards>  (631) 
-0.91742820681818105

>  <r_lp_Energy>  (631) 
25.726704000000002

>  <r_lp_tautomer_probability>  (631) 
1

>  <r_qp_ACxDN^.5/SA>  (631) 
0.0066023000000000002

>  <r_qp_CIQPlogS>  (631) 
-4.8730000000000002

>  <r_qp_EA(eV)>  (631) 
0.098000000000000004

>  <r_qp_FISA>  (631) 
29.478999999999999

>  <r_qp_FOSA>  (631) 
244.69499999999999

>  <r_qp_IP(eV)>  (631) 
8.2650000000000006

>  <r_qp_Jm>  (631) 
0.041421418035147997

>  <r_qp_PISA>  (631) 
375.53100000000001

>  <r_qp_PSA>  (631) 
34.560000000000002

>  <r_qp_PercentHumanOralAbsorption>  (631) 
100

>  <r_qp_QPPCaco>  (631) 
1297.941

>  <r_qp_QPPMDCK>  (631) 
1084.5889999999999

>  <r_qp_QPlogBB>  (631) 
0.32000000000000001

>  <r_qp_QPlogHERG>  (631) 
-7.0910000000000002

>  <r_qp_QPlogKhsa>  (631) 
0.77200000000000002

>  <r_qp_QPlogKp>  (631) 
-2.1299999999999999

>  <r_qp_QPlogPC16>  (631) 
12.478

>  <r_qp_QPlogPo/w>  (631) 
4.9139999999999997

>  <r_qp_QPlogPoct>  (631) 
17.507000000000001

>  <r_qp_QPlogPw>  (631) 
8.4779999999999998

>  <r_qp_QPlogS>  (631) 
-4.8150000000000004

>  <r_qp_QPpolrz>  (631) 
41.93

>  <r_qp_SASA>  (631) 
681.58000000000004

>  <r_qp_SAamideO>  (631) 
0

>  <r_qp_SAfluorine>  (631) 
31.876999999999999

>  <r_qp_WPSA>  (631) 
31.876999999999999

>  <r_qp_accptHB>  (631) 
4.5

>  <r_qp_dip^2/V>  (631) 
0.0013672000000000001

>  <r_qp_dipole>  (631) 
1.294

>  <r_qp_donorHB>  (631) 
1

>  <r_qp_glob>  (631) 
0.8119826

>  <r_qp_mol_MW>  (631) 
365.44900000000001

>  <r_qp_volume>  (631) 
1224.1880000000001

>  <r_sd_BIOSOLVEIT.INFINISEE\_FTREES\_SIMILARITY>  (631) 
0.90200000000000002

>  <r_sd_BIOSOLVEIT.LOGP>  (631) 
3.8306

>  <r_sd_BIOSOLVEIT.MOLECULAR\_WEIGHT>  (631) 
366.45800000000003

>  <r_sd_BIOSOLVEIT.TPSA>  (631) 
38.590000000000003

>  <i_epik_Tot_Q>  (631) 
0

>  <i_epik_Tot_abs_Q>  (631) 
0

>  <i_f3d_flags>  (631) 
0

>  <i_i_glide_confnum>  (631) 
8

>  <i_i_glide_lignum>  (631) 
163

>  <i_i_glide_posenum>  (631) 
6

>  <i_i_glide_rotatable_bonds>  (631) 
7

>  <i_lp_mmshare_version>  (631) 
65135

>  <i_m_ct_format>  (631) 
2

>  <i_m_source_file_index>  (631) 
559

>  <i_qp_#NandO>  (631) 
4

>  <i_qp_#acid>  (631) 
0

>  <i_qp_#amide>  (631) 
0

>  <i_qp_#amidine>  (631) 
0

>  <i_qp_#amine>  (631) 
1

>  <i_qp_#in34>  (631) 
0

>  <i_qp_#in56>  (631) 
18

>  <i_qp_#metab>  (631) 
7

>  <i_qp_#nonHatm>  (631) 
27

>  <i_qp_#noncon>  (631) 
0

>  <i_qp_#ringatoms>  (631) 
18

>  <i_qp_#rotor>  (631) 
7

>  <i_qp_#rtvFG>  (631) 
0

>  <i_qp_#stars>  (631) 
0

>  <i_qp_CNS>  (631) 
1

>  <i_qp_HumanOralAbsorption>  (631) 
3

>  <i_qp_RuleOfFive>  (631) 
0

>  <i_qp_RuleOfThree>  (631) 
1

>  <i_sd_BIOSOLVEIT.INFINISEE\_REAGENT1\_NAME>  (631) 
313171

>  <i_sd_BIOSOLVEIT.INFINISEE\_REAGENT2\_NAME>  (631) 
411479

>  <i_sd_BIOSOLVEIT.INFINISEE\_RESULT\_RANK>  (631) 
86992

>  <i_sd_version>  (631) 
0

>  <b_lp_Chiralities_Consistent>  (631) 
1

>  <b_sd_chiral_flag>  (631) 
0

>  <canonical_id>  (631) 
ATP-HTVS-62D29CE4051A

>  <compound_code>  (631) 
17858

>  <title>  (631) 
a4____313171____411479

>  <variant>  (631) 
17858-3

>  <source_file>  (631) 
运行/运行/ATP-VSW/ATP-VSW-DOCK_HTVS_1-002_lib.maegz

>  <canonical_smiles>  (631) 
C[C@H](c1ccc(CNc2cccnc2Oc2ccccc2F)cc1)N(C)C

>  <scaffold>  (631) 
c1ccc(CNc2cccnc2Oc2ccccc2)cc1

>  <molecular_formula>  (631) 
C22H24FN3O

$$$$
ATP-HTVS-631C0C315D5A
     RDKit          3D

 65 68  0  0  0  0  0  0  0  0999 V2000
  202.8004  175.2255  153.5431 Cl  0  0  0  0  0  0  0  0  0  0  0  0
  201.7511  176.1177  154.5954 C   0  0  0  0  0  0  0  0  0  0  0  0
  200.7694  177.0540  154.1420 C   0  0  0  0  0  0  0  0  0  0  0  0
  199.9788  177.6889  155.1221 C   0  0  0  0  0  0  0  0  0  0  0  0
  200.1600  177.4686  156.4960 C   0  0  0  0  0  0  0  0  0  0  0  0
  201.1221  176.5524  156.9303 C   0  0  0  0  0  0  0  0  0  0  0  0
  201.9121  175.8786  155.9790 C   0  0  0  0  0  0  0  0  0  0  0  0
  198.9505  178.6503  154.6981 C   0  0  0  0  0  0  0  0  0  0  0  0
  198.7913  178.9786  153.4115 C   0  0  0  0  0  0  0  0  0  0  0  0
  199.5806  178.3491  152.3960 N   0  0  0  0  0  0  0  0  0  0  0  0
  199.3360  178.6524  151.0198 C   0  0  0  0  0  0  0  0  0  0  0  0
  198.7271  177.7111  150.1769 C   0  0  0  0  0  0  0  0  0  0  0  0
  198.4383  178.0245  148.8271 C   0  0  0  0  0  0  0  0  0  0  0  0
  198.7826  179.2915  148.3172 C   0  0  0  0  0  0  0  0  0  0  0  0
  199.4117  180.2392  149.1499 C   0  0  0  0  0  0  0  0  0  0  0  0
  199.6992  179.9214  150.4966 C   0  0  0  0  0  0  0  0  0  0  0  0
  200.5313  177.3976  152.6783 C   0  0  0  0  0  0  0  0  0  0  0  0
  201.1915  176.8485  151.7898 O   0  0  0  0  0  0  0  0  0  0  0  0
  197.7389  180.0455  152.9855 C   0  0  2  0  0  0  0  0  0  0  0  0
  197.1815  180.8106  154.1028 N   0  0  0  0  0  0  0  0  0  0  0  0
  198.1174  181.5119  154.9577 C   0  0  1  0  0  0  0  0  0  0  0  0
  198.3880  182.9741  154.5373 C   0  0  0  0  0  0  0  0  0  0  0  0
  197.3143  183.8280  154.2579 C   0  0  0  0  0  0  0  0  0  0  0  0
  197.5502  185.1943  153.9587 C   0  0  0  0  0  0  0  0  0  0  0  0
  198.8742  185.6705  153.8842 C   0  0  0  0  0  0  0  0  0  0  0  0
  199.0811  186.9814  153.5845 O   0  0  0  0  0  0  0  0  0  0  0  0
  199.9554  184.7955  154.1177 C   0  0  0  0  0  0  0  0  0  0  0  0
  199.7097  183.4527  154.4520 C   0  0  0  0  0  0  0  0  0  0  0  0
  197.6172  181.4066  156.4147 C   0  0  1  0  0  0  0  0  0  0  0  0
  196.2818  182.1275  156.7036 C   0  0  1  0  0  0  0  0  0  0  0  0
  195.7590  181.8336  158.0595 N   0  0  2  0  0  0  0  0  0  0  0  0
  194.3108  182.0906  158.1682 C   0  0  2  0  0  0  0  0  0  0  0  0
  196.5248  182.5739  159.1004 C   0  0  2  0  0  0  0  0  0  0  0  0
  196.5195  179.4455  152.2403 C   0  0  2  0  0  0  0  0  0  0  0  0
  196.5387  180.2479  154.6406 H   0  0  0  0  0  0  0  0  0  0  0  0
  199.5598  177.9903  157.2236 H   0  0  0  0  0  0  0  0  0  0  0  0
  201.2168  176.3733  157.9862 H   0  0  0  0  0  0  0  0  0  0  0  0
  202.6465  175.1612  156.3214 H   0  0  0  0  0  0  0  0  0  0  0  0
  198.3335  179.0445  155.5074 H   0  0  0  0  0  0  0  0  0  0  0  0
  198.4421  176.7356  150.5552 H   0  0  0  0  0  0  0  0  0  0  0  0
  197.9425  177.2986  148.1922 H   0  0  0  0  0  0  0  0  0  0  0  0
  198.5521  179.5413  147.2942 H   0  0  0  0  0  0  0  0  0  0  0  0
  199.6635  181.2172  148.7654 H   0  0  0  0  0  0  0  0  0  0  0  0
  200.1658  180.6587  151.1284 H   0  0  0  0  0  0  0  0  0  0  0  0
  198.2198  180.7842  152.3541 H   0  0  0  0  0  0  0  0  0  0  0  0
  199.0972  181.0405  154.9261 H   0  0  0  0  0  0  0  0  0  0  0  0
  196.3083  183.4689  154.2917 H   0  0  0  0  0  0  0  0  0  0  0  0
  196.7064  185.8438  153.8066 H   0  0  0  0  0  0  0  0  0  0  0  0
  198.2620  187.4383  153.4845 H   0  0  0  0  0  0  0  0  0  0  0  0
  200.9722  185.1557  154.0562 H   0  0  0  0  0  0  0  0  0  0  0  0
  200.5428  182.7845  154.6529 H   0  0  0  0  0  0  0  0  0  0  0  0
  197.4990  180.3516  156.6750 H   0  0  0  0  0  0  0  0  0  0  0  0
  198.4002  181.7774  157.0738 H   0  0  0  0  0  0  0  0  0  0  0  0
  196.3587  183.2117  156.6001 H   0  0  0  0  0  0  0  0  0  0  0  0
  195.5432  181.7796  155.9833 H   0  0  0  0  0  0  0  0  0  0  0  0
  194.0782  183.1272  157.9125 H   0  0  0  0  0  0  0  0  0  0  0  0
  193.9456  181.8772  159.1718 H   0  0  0  0  0  0  0  0  0  0  0  0
  193.7768  181.4366  157.4719 H   0  0  0  0  0  0  0  0  0  0  0  0
  196.4514  183.6466  158.9359 H   0  0  0  0  0  0  0  0  0  0  0  0
  197.5759  182.3038  159.0842 H   0  0  0  0  0  0  0  0  0  0  0  0
  196.1350  182.3508  160.0880 H   0  0  0  0  0  0  0  0  0  0  0  0
  196.7813  178.9022  151.3260 H   0  0  0  0  0  0  0  0  0  0  0  0
  195.8083  180.2210  151.9251 H   0  0  0  0  0  0  0  0  0  0  0  0
  195.9699  178.7391  152.8709 H   0  0  0  0  0  0  0  0  0  0  0  0
  195.8637  180.8423  158.1628 H   0  0  0  0  0  0  0  0  0  0  0  0
  1  2  1  0
  2  3  2  0
  2  7  1  0
  3  4  1  0
  3 17  1  0
  4  5  2  0
  4  8  1  0
  5  6  1  0
  5 36  1  0
  6  7  2  0
  6 37  1  0
  7 38  1  0
  8  9  2  0
  8 39  1  0
  9 10  1  0
  9 19  1  0
 10 11  1  0
 10 17  1  0
 11 12  2  0
 11 16  1  0
 12 13  1  0
 12 40  1  0
 13 14  2  0
 13 41  1  0
 14 15  1  0
 14 42  1  0
 15 16  2  0
 15 43  1  0
 16 44  1  0
 17 18  2  0
 19 20  1  0
 19 34  1  0
 19 45  1  6
 20 21  1  0
 20 35  1  0
 21 22  1  0
 21 29  1  0
 21 46  1  1
 22 23  1  0
 22 28  2  0
 23 24  2  0
 23 47  1  0
 24 25  1  0
 24 48  1  0
 25 26  1  0
 25 27  2  0
 26 49  1  0
 27 28  1  0
 27 50  1  0
 28 51  1  0
 29 30  1  0
 29 52  1  1
 29 53  1  0
 30 31  1  0
 30 54  1  1
 30 55  1  0
 31 32  1  0
 31 33  1  0
 31 65  1  1
 32 56  1  6
 32 57  1  0
 32 58  1  0
 33 59  1  6
 33 60  1  0
 33 61  1  0
 34 62  1  6
 34 63  1  0
 34 64  1  0
M  CHG  1  31   1
M  END
>  <s_epik_cmdline>  (632) 
J2VwaWtfcHl0aG9uJywgJy1waCcsICc3LjAwMDAwMCcsICctcGh0JywgJzIuMDAwMDAwJywgJy1tcycsICcxNicsICctdG4nLCAnOCcsICctbWEnLCAnMjAwJywgJy1pbWFlJywgJzxpbmZpbGUubWFlPicsICctb21hZScsICc8b3V0ZmlsZS5tYWU+Jw==

>  <s_epik_input>  (632) 
Q2xjMVtjSF1bY0hdW2NIXWMoYzEyKVtjSF1jKG4oYzI9TyktYzNbY0hdW2NIXVtjSF1bY0hdW2NIXTMpW0NAQEhdKFtDSDNdKVtOSF1bQ0BIXShbQ0gyXVtDSDJdTihbQ0gzXSlbQ0gzXSljNFtjSF1bY0hdYyhbT0hdKVtjSF1bY0hdNA==

>  <s_i_glide_gridfile>  (632) 
ATP-Grid

>  <s_lp_Force_Field>  (632) 
OPLS_2005

>  <s_lp_Variant>  (632) 
rxn207____EMOL1936181____EMOL76738571-1

>  <s_lp_label>  (632) 
2399_sdstereoexpander_1_neutralizer_1_epik_1_stereoizer_1

>  <s_m_source_file>  (632) 
ATP-VSW-LIGPREP-003-in.maegz

>  <s_sd_BIOSOLVEIT.INFINISEE\_QUERY\_NAME>  (632) 
Ref-Lig

>  <s_sd_BIOSOLVEIT.INFINISEE\_QUERY\_SMILES>  (632) 
S(c1nc2c(cc1C[NH2+]Cc3ccc(cc3)C[NH+](C)C)cccc2)Cc4ccccc4

>  <s_sd_BIOSOLVEIT.INFINISEE\_REACTION\_NAME>  (632) 
rxn207

>  <s_sd_BIOSOLVEIT.INFINISEE\_REAGENT1\_NAME>  (632) 
EMOL1936181

>  <s_sd_BIOSOLVEIT.INFINISEE\_REAGENT1\_SMILES>  (632) 
O=C(c1ccc(O)cc1)CCN(C)C

>  <s_sd_BIOSOLVEIT.INFINISEE\_REAGENT2\_NAME>  (632) 
EMOL76738571

>  <s_sd_BIOSOLVEIT.INFINISEE\_REAGENT2\_SMILES>  (632) 
Clc1c2c(ccc1)C=C(N(c3ccccc3)C2=O)C(N)C

>  <s_sd_BIOSOLVEIT.INFINISEE\_SPACE>  (632) 
eXplore_7tr_2022-12

>  <s_vsw_compound_code>  (632) 
76739

>  <s_vsw_variant>  (632) 
76739-1

>  <r_epik_Charging_Adjusted_Penalty>  (632) 
0.199614717845402

>  <r_epik_Ionization_Penalty>  (632) 
0.20030000000000001

>  <r_epik_Ionization_Penalty_Charging>  (632) 
0.0016000000000000001

>  <r_epik_Ionization_Penalty_Neutral>  (632) 
0.19869999999999999

>  <r_epik_State_Penalty>  (632) 
0.19800000000000001

>  <r_i_docking_score>  (632) 
-4.4145857535010604

>  <r_i_glide_ecoul>  (632) 
-11.0260305404663

>  <r_i_glide_eff_state_penalty>  (632) 
0.19800000000000001

>  <r_i_glide_einternal>  (632) 
5.8280358314514196

>  <r_i_glide_emodel>  (632) 
-59.1456814224846

>  <r_i_glide_energy>  (632) 
-43.470084190368702

>  <r_i_glide_erotb>  (632) 
0.62307610117220102

>  <r_i_glide_esite>  (632) 
-0.10000000000000001

>  <r_i_glide_evdw>  (632) 
-32.444053649902301

>  <r_i_glide_gscore>  (632) 
-4.6125857535010599

>  <r_i_glide_hbond>  (632) 
-0.35800568734927601

>  <r_i_glide_ligand_efficiency>  (632) 
-0.129840757455914

>  <r_i_glide_ligand_efficiency_ln>  (632) 
-0.97530581788453996

>  <r_i_glide_ligand_efficiency_sa>  (632) 
-0.42063364964654998

>  <r_i_glide_lipo>  (632) 
-1.10537554544762

>  <r_i_glide_metal>  (632) 
-0

>  <r_i_glide_rewards>  (632) 
-0.39617335831130701

>  <r_lp_Energy>  (632) 
52.170226999999997

>  <r_lp_tautomer_probability>  (632) 
0.999999999997365

>  <r_qp_ACxDN^.5/SA>  (632) 
0.0133673

>  <r_qp_CIQPlogS>  (632) 
-5.1580000000000004

>  <r_qp_EA(eV)>  (632) 
0.56599999999999995

>  <r_qp_FISA>  (632) 
88.100999999999999

>  <r_qp_FOSA>  (632) 
249.96700000000001

>  <r_qp_IP(eV)>  (632) 
8.6630000000000003

>  <r_qp_Jm>  (632) 
0.00029561062194383001

>  <r_qp_PISA>  (632) 
369.34899999999999

>  <r_qp_PSA>  (632) 
64.704999999999998

>  <r_qp_PercentHumanOralAbsorption>  (632) 
86.921999999999997

>  <r_qp_QPPCaco>  (632) 
89.998000000000005

>  <r_qp_QPPMDCK>  (632) 
95.126000000000005

>  <r_qp_QPlogBB>  (632) 
0.13100000000000001

>  <r_qp_QPlogHERG>  (632) 
-7.8049999999999997

>  <r_qp_QPlogKhsa>  (632) 
0.78300000000000003

>  <r_qp_QPlogKp>  (632) 
-5.1989999999999998

>  <r_qp_QPlogPC16>  (632) 
15.851000000000001

>  <r_qp_QPlogPo/w>  (632) 
4.2699999999999996

>  <r_qp_QPlogPoct>  (632) 
24.443000000000001

>  <r_qp_QPlogPw>  (632) 
13.003

>  <r_qp_QPlogS>  (632) 
-4.008

>  <r_qp_QPpolrz>  (632) 
50.609999999999999

>  <r_qp_SASA>  (632) 
767.02599999999995

>  <r_qp_SAamideO>  (632) 
0

>  <r_qp_SAfluorine>  (632) 
0

>  <r_qp_WPSA>  (632) 
59.609000000000002

>  <r_qp_accptHB>  (632) 
7.25

>  <r_qp_dip^2/V>  (632) 
0.037217899999999998

>  <r_qp_dipole>  (632) 
7.3680000000000003

>  <r_qp_donorHB>  (632) 
2

>  <r_qp_glob>  (632) 
0.81092529999999996

>  <r_qp_mol_MW>  (632) 
476.017

>  <r_qp_volume>  (632) 
1458.6099999999999

>  <r_sd_BIOSOLVEIT.INFINISEE\_FTREES\_SIMILARITY>  (632) 
0.91800000000000004

>  <r_sd_BIOSOLVEIT.LOGP>  (632) 
3.25

>  <r_sd_BIOSOLVEIT.MOLECULAR\_WEIGHT>  (632) 
478.03300000000002

>  <r_sd_BIOSOLVEIT.TPSA>  (632) 
63.280000000000001

>  <i_epik_Tot_Q>  (632) 
1

>  <i_epik_Tot_abs_Q>  (632) 
1

>  <i_f3d_flags>  (632) 
0

>  <i_i_glide_confnum>  (632) 
9

>  <i_i_glide_lignum>  (632) 
1005

>  <i_i_glide_posenum>  (632) 
19

>  <i_i_glide_rotatable_bonds>  (632) 
9

>  <i_lp_mmshare_version>  (632) 
65135

>  <i_m_ct_format>  (632) 
2

>  <i_m_source_file_index>  (632) 
2399

>  <i_qp_#NandO>  (632) 
5

>  <i_qp_#acid>  (632) 
0

>  <i_qp_#amide>  (632) 
0

>  <i_qp_#amidine>  (632) 
0

>  <i_qp_#amine>  (632) 
2

>  <i_qp_#in34>  (632) 
0

>  <i_qp_#in56>  (632) 
22

>  <i_qp_#metab>  (632) 
5

>  <i_qp_#nonHatm>  (632) 
34

>  <i_qp_#noncon>  (632) 
0

>  <i_qp_#ringatoms>  (632) 
22

>  <i_qp_#rotor>  (632) 
8

>  <i_qp_#rtvFG>  (632) 
0

>  <i_qp_#stars>  (632) 
0

>  <i_qp_CNS>  (632) 
1

>  <i_qp_HumanOralAbsorption>  (632) 
3

>  <i_qp_RuleOfFive>  (632) 
0

>  <i_qp_RuleOfThree>  (632) 
0

>  <i_sd_BIOSOLVEIT.INFINISEE\_RESULT\_RANK>  (632) 
20429

>  <i_sd_version>  (632) 
0

>  <b_lp_Chiralities_Consistent>  (632) 
1

>  <b_sd_chiral_flag>  (632) 
0

>  <canonical_id>  (632) 
ATP-HTVS-631C0C315D5A

>  <compound_code>  (632) 
76739

>  <title>  (632) 
rxn207____EMOL1936181____EMOL76738571

>  <variant>  (632) 
76739-1

>  <source_file>  (632) 
运行/运行/ATP-VSW/ATP-VSW-DOCK_HTVS_1-003_lib/ATP-VSW-DOCK_HTVS_1-003_lib.mae

>  <canonical_smiles>  (632) 
C[C@@H](N[C@H](CC[NH+](C)C)c1ccc(O)cc1)c1cc2cccc(Cl)c2c(=O)n1-c1ccccc1

>  <scaffold>  (632) 
O=c1c2ccccc2cc(CNCc2ccccc2)n1-c1ccccc1

>  <molecular_formula>  (632) 
C28H31ClN3O2+

$$$$
ATP-HTVS-638532F00CCB
     RDKit          3D

 63 66  0  0  0  0  0  0  0  0999 V2000
  203.4408  176.4695  150.8127 O   0  0  0  0  0  0  0  0  0  0  0  0
  203.5806  176.2264  152.0035 N   0  0  0  0  0  0  0  0  0  0  0  0
  204.2525  176.9191  152.7715 O   0  0  0  0  0  0  0  0  0  0  0  0
  202.9274  175.0189  152.5509 C   0  0  0  0  0  0  0  0  0  0  0  0
  202.4756  174.9047  153.9039 C   0  0  0  0  0  0  0  0  0  0  0  0
  201.8390  173.7111  154.3127 C   0  0  0  0  0  0  0  0  0  0  0  0
  201.6391  172.6459  153.4209 C   0  0  0  0  0  0  0  0  0  0  0  0
  202.0801  172.7569  152.0980 C   0  0  0  0  0  0  0  0  0  0  0  0
  202.7172  173.9333  151.6693 C   0  0  0  0  0  0  0  0  0  0  0  0
  202.5592  176.0280  154.9394 C   0  0  1  0  0  0  0  0  0  0  0  0
  201.2991  176.8989  154.9108 C   0  0  0  0  0  0  0  0  0  0  0  0
  200.3514  176.5892  154.1954 O   0  0  0  0  0  0  0  0  0  0  0  0
  201.3408  177.9937  155.6895 N   0  0  0  0  0  0  0  0  0  0  0  0
  200.3431  178.9871  155.8934 C   0  0  0  0  0  0  0  0  0  0  0  0
  199.1004  178.8820  155.3596 N   0  0  0  0  0  0  0  0  0  0  0  0
  198.1893  179.8425  155.5812 C   0  0  0  0  0  0  0  0  0  0  0  0
  198.4505  180.9973  156.3346 C   0  0  0  0  0  0  0  0  0  0  0  0
  197.4410  181.9696  156.4762 N   0  0  0  0  0  0  0  0  0  0  0  0
  196.8542  182.0535  157.8073 C   0  0  1  0  0  0  0  0  0  0  0  0
  196.5049  183.4702  158.2344 C   0  0  0  0  0  0  0  0  0  0  0  0
  197.1849  184.5693  157.6745 C   0  0  0  0  0  0  0  0  0  0  0  0
  196.8968  185.8794  158.1024 C   0  0  0  0  0  0  0  0  0  0  0  0
  195.9583  186.0925  159.1295 C   0  0  0  0  0  0  0  0  0  0  0  0
  195.2474  184.9950  159.6657 C   0  0  0  0  0  0  0  0  0  0  0  0
  195.5172  183.6888  159.2175 C   0  0  0  0  0  0  0  0  0  0  0  0
  195.7046  187.4977  159.6423 C   0  0  1  0  0  0  0  0  0  0  0  0
  196.7839  188.0044  160.5318 N   0  0  1  0  0  0  0  0  0  0  0  0
  198.0842  188.2420  159.8581 C   0  0  2  0  0  0  0  0  0  0  0  0
  196.3576  189.1981  161.2973 C   0  0  2  0  0  0  0  0  0  0  0  0
  199.7437  181.1324  156.9093 C   0  0  0  0  0  0  0  0  0  0  0  0
  200.7053  180.1042  156.6969 C   0  0  0  0  0  0  0  0  0  0  0  0
  201.9967  180.2374  157.2719 C   0  0  0  0  0  0  0  0  0  0  0  0
  202.3318  181.3651  158.0434 C   0  0  0  0  0  0  0  0  0  0  0  0
  201.3824  182.3786  158.2483 C   0  0  0  0  0  0  0  0  0  0  0  0
  200.0995  182.2585  157.6823 C   0  0  0  0  0  0  0  0  0  0  0  0
  201.4754  173.6075  155.3204 H   0  0  0  0  0  0  0  0  0  0  0  0
  201.1559  171.7351  153.7462 H   0  0  0  0  0  0  0  0  0  0  0  0
  201.9412  171.9364  151.4109 H   0  0  0  0  0  0  0  0  0  0  0  0
  203.0458  173.9930  150.6423 H   0  0  0  0  0  0  0  0  0  0  0  0
  202.6435  175.5775  155.9390 H   0  0  0  0  0  0  0  0  0  0  0  0
  203.4482  176.6530  154.7807 H   0  0  0  0  0  0  0  0  0  0  0  0
  202.2095  178.1418  156.1799 H   0  0  0  0  0  0  0  0  0  0  0  0
  197.2169  179.6815  155.1397 H   0  0  0  0  0  0  0  0  0  0  0  0
  196.7203  181.9500  155.7621 H   0  0  0  0  0  0  0  0  0  0  0  0
  195.9525  181.4338  157.8260 H   0  0  0  0  0  0  0  0  0  0  0  0
  197.5441  181.6450  158.5464 H   0  0  0  0  0  0  0  0  0  0  0  0
  197.9504  184.4411  156.9277 H   0  0  0  0  0  0  0  0  0  0  0  0
  197.4245  186.6971  157.6406 H   0  0  0  0  0  0  0  0  0  0  0  0
  194.4869  185.1523  160.4205 H   0  0  0  0  0  0  0  0  0  0  0  0
  194.9695  182.8532  159.6328 H   0  0  0  0  0  0  0  0  0  0  0  0
  195.5678  188.1762  158.8018 H   0  0  0  0  0  0  0  0  0  0  0  0
  194.7655  187.4662  160.1956 H   0  0  0  0  0  0  0  0  0  0  0  0
  197.9727  188.9556  159.0401 H   0  0  0  0  0  0  0  0  0  0  0  0
  198.5157  187.3156  159.4752 H   0  0  0  0  0  0  0  0  0  0  0  0
  198.8280  188.6584  160.5382 H   0  0  0  0  0  0  0  0  0  0  0  0
  196.1636  190.0399  160.6314 H   0  0  0  0  0  0  0  0  0  0  0  0
  197.1380  189.4944  162.0009 H   0  0  0  0  0  0  0  0  0  0  0  0
  195.4503  189.0033  161.8696 H   0  0  0  0  0  0  0  0  0  0  0  0
  202.7590  179.4840  157.1408 H   0  0  0  0  0  0  0  0  0  0  0  0
  203.3180  181.4584  158.4738 H   0  0  0  0  0  0  0  0  0  0  0  0
  201.6222  183.2424  158.8525 H   0  0  0  0  0  0  0  0  0  0  0  0
  199.3821  183.0394  157.8660 H   0  0  0  0  0  0  0  0  0  0  0  0
  196.9401  187.2788  161.2182 H   0  0  0  0  0  0  0  0  0  0  0  0
  1  2  1  0
  2  3  2  0
  2  4  1  0
  4  5  1  0
  4  9  2  0
  5  6  2  0
  5 10  1  0
  6  7  1  0
  6 36  1  0
  7  8  2  0
  7 37  1  0
  8  9  1  0
  8 38  1  0
  9 39  1  0
 10 11  1  0
 10 40  1  1
 10 41  1  0
 11 12  2  0
 11 13  1  0
 13 14  1  0
 13 42  1  0
 14 15  1  0
 14 31  2  0
 15 16  2  0
 16 17  1  0
 16 43  1  0
 17 18  1  0
 17 30  2  0
 18 19  1  0
 18 44  1  0
 19 20  1  0
 19 45  1  6
 19 46  1  0
 20 21  1  0
 20 25  2  0
 21 22  2  0
 21 47  1  0
 22 23  1  0
 22 48  1  0
 23 24  2  0
 23 26  1  0
 24 25  1  0
 24 49  1  0
 25 50  1  0
 26 27  1  0
 26 51  1  6
 26 52  1  0
 27 28  1  0
 27 29  1  0
 27 63  1  1
 28 53  1  6
 28 54  1  0
 28 55  1  0
 29 56  1  6
 29 57  1  0
 29 58  1  0
 30 31  1  0
 30 35  1  0
 31 32  1  0
 32 33  2  0
 32 59  1  0
 33 34  1  0
 33 60  1  0
 34 35  2  0
 34 61  1  0
 35 62  1  0
M  CHG  3   1  -1   2   1  27   1
M  END
>  <s_epik_cmdline>  (633) 
J2VwaWtfcHl0aG9uJywgJy1waCcsICc3LjAwMDAwMCcsICctcGh0JywgJzIuMDAwMDAwJywgJy1tcycsICcxNicsICctdG4nLCAnOCcsICctbWEnLCAnMjAwJywgJy1pbWFlJywgJzxpbmZpbGUubWFlPicsICctb21hZScsICc8b3V0ZmlsZS5tYWU+Jw==

>  <s_epik_input>  (633) 
W2NIXTFbY0hdW2NIXVtjSF1jKGMxW04rXShbTy1dKT1PKVtDSDJdQyg9TylbTkhdYyhjKGMyMylbY0hdW2NIXVtjSF1bY0hdMyluW2NIXWMyW05IXVtDSDJdYzRbY0hdW2NIXWMoW2NIXVtjSF00KVtDSDJdTihbQ0gzXSlbQ0gzXQ==

>  <s_i_glide_gridfile>  (633) 
ATP-Grid

>  <s_lp_Force_Field>  (633) 
OPLS_2005

>  <s_lp_Variant>  (633) 
rxn502b____EMOL480467____EMOL7515103____EMOL50155899-1

>  <s_lp_label>  (633) 
2274_sdstereoexpander_1_neutralizer_1_epik_1_stereoizer_1

>  <s_m_source_file>  (633) 
ATP-VSW-LIGPREP-001-in.maegz

>  <s_sd_BIOSOLVEIT.INFINISEE\_QUERY\_NAME>  (633) 
Ref-Lig

>  <s_sd_BIOSOLVEIT.INFINISEE\_QUERY\_SMILES>  (633) 
S(c1nc2c(cc1C[NH2+]Cc3ccc(cc3)C[NH+](C)C)cccc2)Cc4ccccc4

>  <s_sd_BIOSOLVEIT.INFINISEE\_REACTION\_NAME>  (633) 
rxn502b

>  <s_sd_BIOSOLVEIT.INFINISEE\_REAGENT1\_NAME>  (633) 
EMOL480467

>  <s_sd_BIOSOLVEIT.INFINISEE\_REAGENT1\_SMILES>  (633) 
[O-][N+](=O)c1c(cccc1)CC(=O)O

>  <s_sd_BIOSOLVEIT.INFINISEE\_REAGENT2\_NAME>  (633) 
EMOL7515103

>  <s_sd_BIOSOLVEIT.INFINISEE\_REAGENT2\_SMILES>  (633) 
Brc1c2c(c(nc1)N)cccc2

>  <s_sd_BIOSOLVEIT.INFINISEE\_REAGENT3\_NAME>  (633) 
EMOL50155899

>  <s_sd_BIOSOLVEIT.INFINISEE\_REAGENT3\_SMILES>  (633) 
N(Cc1ccc(cc1)CN)(C)C

>  <s_sd_BIOSOLVEIT.INFINISEE\_SPACE>  (633) 
eXplore_7tr_2022-12

>  <s_vsw_compound_code>  (633) 
72737

>  <s_vsw_variant>  (633) 
72737-1

>  <r_epik_Charging_Adjusted_Penalty>  (633) 
0.095945382898027301

>  <r_epik_Ionization_Penalty>  (633) 
0.051799999999999999

>  <r_epik_Ionization_Penalty_Charging>  (633) 
0.039199999999999999

>  <r_epik_Ionization_Penalty_Neutral>  (633) 
0.0126

>  <r_epik_State_Penalty>  (633) 
0.0567

>  <r_i_docking_score>  (633) 
-3.3019203225996501

>  <r_i_glide_ecoul>  (633) 
-6.9157776832580602

>  <r_i_glide_eff_state_penalty>  (633) 
0.0567

>  <r_i_glide_einternal>  (633) 
5.5910587310790998

>  <r_i_glide_emodel>  (633) 
-50.5446903646923

>  <r_i_glide_energy>  (633) 
-41.649282932281501

>  <r_i_glide_erotb>  (633) 
0.73007673240422

>  <r_i_glide_esite>  (633) 
-0.046544897694621098

>  <r_i_glide_evdw>  (633) 
-34.733505249023402

>  <r_i_glide_gscore>  (633) 
-3.3586203225996498

>  <r_i_glide_hbond>  (633) 
0

>  <r_i_glide_ligand_efficiency>  (633) 
-0.094340580645704206

>  <r_i_glide_ligand_efficiency_ln>  (633) 
-0.72484479298384397

>  <r_i_glide_ligand_efficiency_sa>  (633) 
-0.30859429466807298

>  <r_i_glide_lipo>  (633) 
-1.02614712004671

>  <r_i_glide_metal>  (633) 
-0

>  <r_i_glide_rewards>  (633) 
-0.24196312232265299

>  <r_lp_Energy>  (633) 
30.994447999999998

>  <r_qp_ACxDN^.5/SA>  (633) 
0.014605399999999999

>  <r_qp_CIQPlogS>  (633) 
-5.9779999999999998

>  <r_qp_EA(eV)>  (633) 
1.1579999999999999

>  <r_qp_FISA>  (633) 
112.517

>  <r_qp_FOSA>  (633) 
211.17500000000001

>  <r_qp_IP(eV)>  (633) 
7.9710000000000001

>  <r_qp_Jm>  (633) 
0.018792798270487899

>  <r_qp_PISA>  (633) 
402.517

>  <r_qp_PSA>  (633) 
101.071

>  <r_qp_PercentHumanOralAbsorption>  (633) 
92.790000000000006

>  <r_qp_QPPCaco>  (633) 
211.738

>  <r_qp_QPPMDCK>  (633) 
102.211

>  <r_qp_QPlogBB>  (633) 
-0.63800000000000001

>  <r_qp_QPlogHERG>  (633) 
-6.7300000000000004

>  <r_qp_QPlogKhsa>  (633) 
0.623

>  <r_qp_QPlogKp>  (633) 
-3.3740000000000001

>  <r_qp_QPlogPC16>  (633) 
15.429

>  <r_qp_QPlogPo/w>  (633) 
4.1360000000000001

>  <r_qp_QPlogPoct>  (633) 
23.635999999999999

>  <r_qp_QPlogPw>  (633) 
13.301

>  <r_qp_QPlogS>  (633) 
-4.024

>  <r_qp_QPpolrz>  (633) 
48.835000000000001

>  <r_qp_SASA>  (633) 
726.20899999999995

>  <r_qp_SAamideO>  (633) 
0

>  <r_qp_SAfluorine>  (633) 
0

>  <r_qp_WPSA>  (633) 
0

>  <r_qp_accptHB>  (633) 
7.5

>  <r_qp_dip^2/V>  (633) 
0.0160199

>  <r_qp_dipole>  (633) 
4.774

>  <r_qp_donorHB>  (633) 
2

>  <r_qp_glob>  (633) 
0.84226659999999998

>  <r_qp_mol_MW>  (633) 
469.54199999999997

>  <r_qp_volume>  (633) 
1422.3920000000001

>  <r_sd_BIOSOLVEIT.INFINISEE\_FTREES\_SIMILARITY>  (633) 
0.92400000000000004

>  <r_sd_BIOSOLVEIT.LOGP>  (633) 
3.5808

>  <r_sd_BIOSOLVEIT.MOLECULAR\_WEIGHT>  (633) 
470.55000000000001

>  <r_sd_BIOSOLVEIT.TPSA>  (633) 
104.28

>  <i_epik_Tot_Q>  (633) 
1

>  <i_epik_Tot_abs_Q>  (633) 
3

>  <i_f3d_flags>  (633) 
0

>  <i_i_glide_confnum>  (633) 
7

>  <i_i_glide_lignum>  (633) 
797

>  <i_i_glide_posenum>  (633) 
17

>  <i_i_glide_rotatable_bonds>  (633) 
10

>  <i_lp_mmshare_version>  (633) 
65135

>  <i_m_ct_format>  (633) 
2

>  <i_m_source_file_index>  (633) 
2274

>  <i_qp_#NandO>  (633) 
8

>  <i_qp_#acid>  (633) 
0

>  <i_qp_#amide>  (633) 
0

>  <i_qp_#amidine>  (633) 
0

>  <i_qp_#amine>  (633) 
1

>  <i_qp_#in34>  (633) 
0

>  <i_qp_#in56>  (633) 
22

>  <i_qp_#metab>  (633) 
9

>  <i_qp_#nonHatm>  (633) 
35

>  <i_qp_#noncon>  (633) 
0

>  <i_qp_#ringatoms>  (633) 
22

>  <i_qp_#rotor>  (633) 
9

>  <i_qp_#rtvFG>  (633) 
0

>  <i_qp_#stars>  (633) 
1

>  <i_qp_CNS>  (633) 
1

>  <i_qp_HumanOralAbsorption>  (633) 
3

>  <i_qp_RuleOfFive>  (633) 
0

>  <i_qp_RuleOfThree>  (633) 
1

>  <i_sd_BIOSOLVEIT.INFINISEE\_RESULT\_RANK>  (633) 
9586

>  <i_sd_version>  (633) 
0

>  <b_lp_Chiralities_Consistent>  (633) 
1

>  <b_sd_chiral_flag>  (633) 
0

>  <canonical_id>  (633) 
ATP-HTVS-638532F00CCB

>  <compound_code>  (633) 
72737

>  <title>  (633) 
rxn502b____EMOL480467____EMOL7515103____EMOL50155899

>  <variant>  (633) 
72737-1

>  <source_file>  (633) 
运行/运行/ATP-VSW/ATP-VSW-DOCK_HTVS_1-001_lib/ATP-VSW-DOCK_HTVS_1-001_lib

>  <canonical_smiles>  (633) 
C[NH+](C)Cc1ccc(CNc2cnc(NC(=O)Cc3ccccc3[N+](=O)[O-])c3ccccc23)cc1

>  <scaffold>  (633) 
O=C(Cc1ccccc1)Nc1ncc(NCc2ccccc2)c2ccccc12

>  <molecular_formula>  (633) 
C27H28N5O3+

$$$$
ATP-HTVS-63A2B85F1850
     RDKit          3D

 60 63  0  0  0  0  0  0  0  0999 V2000
  196.8730  181.4388  150.9075 S   0  0  0  0  0  0  0  0  0  0  0  0
  197.4258  183.0776  150.6504 C   0  0  0  0  0  0  0  0  0  0  0  0
  197.5628  183.7833  151.8956 C   0  0  0  0  0  0  0  0  0  0  0  0
  197.9493  185.1494  151.7728 C   0  0  0  0  0  0  0  0  0  0  0  0
  198.1997  185.7598  150.5264 C   0  0  0  0  0  0  0  0  0  0  0  0
  198.0731  185.0263  149.3368 C   0  0  0  0  0  0  0  0  0  0  0  0
  197.6833  183.6778  149.3994 C   0  0  0  0  0  0  0  0  0  0  0  0
  197.2519  182.9154  153.0327 C   0  0  0  0  0  0  0  0  0  0  0  0
  197.2615  183.3129  154.3872 N   0  0  0  0  0  0  0  0  0  0  0  0
  198.0802  184.3568  154.9797 C   0  0  1  0  0  0  0  0  0  0  0  0
  197.5674  184.8252  156.3216 C   0  0  0  0  0  0  0  0  0  0  0  0
  197.2536  183.9029  157.3382 C   0  0  0  0  0  0  0  0  0  0  0  0
  196.7565  184.3664  158.5726 C   0  0  0  0  0  0  0  0  0  0  0  0
  196.5570  185.7509  158.7942 C   0  0  0  0  0  0  0  0  0  0  0  0
  196.1258  186.1606  160.0627 N   0  0  0  0  0  0  0  0  0  0  0  0
  195.9174  187.5558  160.4238 C   0  0  1  0  0  0  0  0  0  0  0  0
  197.1956  188.4059  160.3803 C   0  0  1  0  0  0  0  0  0  0  0  0
  197.0278  189.6564  161.0307 O   0  0  0  0  0  0  0  0  0  0  0  0
  196.8258  186.6691  157.7507 C   0  0  0  0  0  0  0  0  0  0  0  0
  197.3554  186.2034  156.5323 C   0  0  0  0  0  0  0  0  0  0  0  0
  196.8980  181.6458  152.6300 C   0  0  0  0  0  0  0  0  0  0  0  0
  196.5426  180.4772  153.5042 C   0  0  1  0  0  0  0  0  0  0  0  0
  197.7091  179.8555  154.1551 N   0  0  0  0  0  0  0  0  0  0  0  0
  198.6070  179.1266  153.4351 C   0  0  0  0  0  0  0  0  0  0  0  0
  198.5313  179.0037  152.2109 O   0  0  0  0  0  0  0  0  0  0  0  0
  199.7557  178.4482  154.1340 C   0  0  0  0  0  0  0  0  0  0  0  0
  201.0569  178.5402  153.5797 C   0  0  0  0  0  0  0  0  0  0  0  0
  202.1463  177.8944  154.2017 C   0  0  0  0  0  0  0  0  0  0  0  0
  203.4836  177.9879  153.6286 C   0  0  0  0  0  0  0  0  0  0  0  0
  204.5433  178.0598  153.1745 N   0  0  0  0  0  0  0  0  0  0  0  0
  201.9436  177.1510  155.3812 C   0  0  0  0  0  0  0  0  0  0  0  0
  200.6488  177.0349  155.9241 C   0  0  0  0  0  0  0  0  0  0  0  0
  199.5561  177.6480  155.2868 C   0  0  0  0  0  0  0  0  0  0  0  0
  197.7826  180.0779  155.6053 C   0  0  2  0  0  0  0  0  0  0  0  0
  198.0301  185.7823  152.6465 H   0  0  0  0  0  0  0  0  0  0  0  0
  198.4830  186.8001  150.4854 H   0  0  0  0  0  0  0  0  0  0  0  0
  198.2586  185.4912  148.3793 H   0  0  0  0  0  0  0  0  0  0  0  0
  197.5665  183.0944  148.4930 H   0  0  0  0  0  0  0  0  0  0  0  0
  196.8441  182.6685  155.0406 H   0  0  0  0  0  0  0  0  0  0  0  0
  199.1079  184.0004  155.0838 H   0  0  0  0  0  0  0  0  0  0  0  0
  198.1032  185.2449  154.3421 H   0  0  0  0  0  0  0  0  0  0  0  0
  197.3763  182.8405  157.1886 H   0  0  0  0  0  0  0  0  0  0  0  0
  196.5328  183.6509  159.3569 H   0  0  0  0  0  0  0  0  0  0  0  0
  195.8331  185.4469  160.7103 H   0  0  0  0  0  0  0  0  0  0  0  0
  195.1542  187.9708  159.7652 H   0  0  0  0  0  0  0  0  0  0  0  0
  195.5145  187.5554  161.4317 H   0  0  0  0  0  0  0  0  0  0  0  0
  197.9358  187.8438  160.9281 H   0  0  0  0  0  0  0  0  0  0  0  0
  197.6070  188.5436  159.3696 H   0  0  0  0  0  0  0  0  0  0  0  0
  197.8177  189.8367  161.5268 H   0  0  0  0  0  0  0  0  0  0  0  0
  196.6647  187.7357  157.8751 H   0  0  0  0  0  0  0  0  0  0  0  0
  197.5951  186.9073  155.7510 H   0  0  0  0  0  0  0  0  0  0  0  0
  195.8295  180.8143  154.2568 H   0  0  0  0  0  0  0  0  0  0  0  0
  196.0030  179.7145  152.9334 H   0  0  0  0  0  0  0  0  0  0  0  0
  201.2182  179.1065  152.6697 H   0  0  0  0  0  0  0  0  0  0  0  0
  202.7654  176.6594  155.8784 H   0  0  0  0  0  0  0  0  0  0  0  0
  200.4872  176.4779  156.8351 H   0  0  0  0  0  0  0  0  0  0  0  0
  198.5726  177.4897  155.7089 H   0  0  0  0  0  0  0  0  0  0  0  0
  197.3963  179.2078  156.1329 H   0  0  0  0  0  0  0  0  0  0  0  0
  197.1870  180.9297  155.9436 H   0  0  0  0  0  0  0  0  0  0  0  0
  198.8055  180.2678  155.9268 H   0  0  0  0  0  0  0  0  0  0  0  0
  1  2  1  0
  1 21  1  0
  2  3  1  0
  2  7  2  0
  3  4  2  0
  3  8  1  0
  4  5  1  0
  4 35  1  0
  5  6  2  0
  5 36  1  0
  6  7  1  0
  6 37  1  0
  7 38  1  0
  8  9  1  0
  8 21  2  0
  9 10  1  0
  9 39  1  0
 10 11  1  0
 10 40  1  1
 10 41  1  0
 11 12  1  0
 11 20  2  0
 12 13  2  0
 12 42  1  0
 13 14  1  0
 13 43  1  0
 14 15  1  0
 14 19  2  0
 15 16  1  0
 15 44  1  0
 16 17  1  0
 16 45  1  6
 16 46  1  0
 17 18  1  0
 17 47  1  1
 17 48  1  0
 18 49  1  0
 19 20  1  0
 19 50  1  0
 20 51  1  0
 21 22  1  0
 22 23  1  0
 22 52  1  1
 22 53  1  0
 23 24  1  0
 23 34  1  0
 24 25  2  0
 24 26  1  0
 26 27  1  0
 26 33  2  0
 27 28  2  0
 27 54  1  0
 28 29  1  0
 28 31  1  0
 29 30  3  0
 31 32  2  0
 31 55  1  0
 32 33  1  0
 32 56  1  0
 33 57  1  0
 34 58  1  1
 34 59  1  0
 34 60  1  0
M  END
>  <s_epik_cmdline>  (634) 
J2VwaWtfcHl0aG9uJywgJy1waCcsICc3LjAwMDAwMCcsICctcGh0JywgJzIuMDAwMDAwJywgJy1tcycsICcxNicsICctdG4nLCAnOCcsICctbWEnLCAnMjAwJywgJy1pbWFlJywgJzxpbmZpbGUubWFlPicsICctb21hZScsICc8b3V0ZmlsZS5tYWU+Jw==

>  <s_epik_input>  (634) 
W2NIXTFbY0hdW2NIXWMoQyNOKVtjSF1jMUMoPU8pTihbQ0gzXSlbQ0gyXWMoczIpYyhjKGMyMylbY0hdW2NIXVtjSF1bY0hdMylbTkhdW0NIMl1jNFtjSF1bY0hdYyhbY0hdW2NIXTQpW05IXVtDSDJdW0NIMl1bT0hd

>  <s_i_glide_gridfile>  (634) 
ATP-Grid

>  <s_lp_Force_Field>  (634) 
OPLS_2005

>  <s_lp_Variant>  (634) 
rxn502c____EMOL483931____EMOL49259969____EMOL324170366-1

>  <s_lp_label>  (634) 
2675_sdstereoexpander_1_neutralizer_1_epik_1_stereoizer_1

>  <s_m_source_file>  (634) 
ATP-VSW-LIGPREP-002-in.maegz

>  <s_sd_BIOSOLVEIT.INFINISEE\_QUERY\_NAME>  (634) 
Ref-Lig

>  <s_sd_BIOSOLVEIT.INFINISEE\_QUERY\_SMILES>  (634) 
S(c1nc2c(cc1C[NH2+]Cc3ccc(cc3)C[NH+](C)C)cccc2)Cc4ccccc4

>  <s_sd_BIOSOLVEIT.INFINISEE\_REACTION\_NAME>  (634) 
rxn502c

>  <s_sd_BIOSOLVEIT.INFINISEE\_REAGENT1\_NAME>  (634) 
EMOL483931

>  <s_sd_BIOSOLVEIT.INFINISEE\_REAGENT1\_SMILES>  (634) 
O=C(O)c1cc(C#N)ccc1

>  <s_sd_BIOSOLVEIT.INFINISEE\_REAGENT2\_NAME>  (634) 
EMOL49259969

>  <s_sd_BIOSOLVEIT.INFINISEE\_REAGENT2\_SMILES>  (634) 
ClC=1c2c(SC1CNC)cccc2

>  <s_sd_BIOSOLVEIT.INFINISEE\_REAGENT3\_NAME>  (634) 
EMOL324170366

>  <s_sd_BIOSOLVEIT.INFINISEE\_REAGENT3\_SMILES>  (634) 
OCCNc1ccc(cc1)CN

>  <s_sd_BIOSOLVEIT.INFINISEE\_SPACE>  (634) 
eXplore_7tr_2022-12

>  <s_vsw_compound_code>  (634) 
85570

>  <s_vsw_variant>  (634) 
85570-1

>  <r_epik_Charging_Adjusted_Penalty>  (634) 
0.0083718636805958195

>  <r_epik_Ionization_Penalty>  (634) 
0.0083999999999999995

>  <r_epik_Ionization_Penalty_Charging>  (634) 
0

>  <r_epik_Ionization_Penalty_Neutral>  (634) 
0.0083999999999999995

>  <r_epik_State_Penalty>  (634) 
0.0083999999999999995

>  <r_i_docking_score>  (634) 
-3.48496606644906

>  <r_i_glide_ecoul>  (634) 
-4.9228615760803196

>  <r_i_glide_eff_state_penalty>  (634) 
0.0083999999999999995

>  <r_i_glide_einternal>  (634) 
2.6869366168975799

>  <r_i_glide_emodel>  (634) 
-49.840783970202096

>  <r_i_glide_energy>  (634) 
-41.550478458404498

>  <r_i_glide_erotb>  (634) 
0.91244014982932597

>  <r_i_glide_esite>  (634) 
-0.0633239149133447

>  <r_i_glide_evdw>  (634) 
-36.627616882324197

>  <r_i_glide_gscore>  (634) 
-3.49336606644906

>  <r_i_glide_hbond>  (634) 
-0.16

>  <r_i_glide_ligand_efficiency>  (634) 
-0.10249900195438399

>  <r_i_glide_ligand_efficiency_ln>  (634) 
-0.76992675406574895

>  <r_i_glide_ligand_efficiency_sa>  (634) 
-0.33205697596026901

>  <r_i_glide_lipo>  (634) 
-1.4121286299277001

>  <r_i_glide_metal>  (634) 
-0

>  <r_i_glide_rewards>  (634) 
-0.20054359090908999

>  <r_lp_Energy>  (634) 
41.162241999999999

>  <r_qp_ACxDN^.5/SA>  (634) 
0.0174507

>  <r_qp_CIQPlogS>  (634) 
-6.5960000000000001

>  <r_qp_EA(eV)>  (634) 
0.69899999999999995

>  <r_qp_FISA>  (634) 
174.84999999999999

>  <r_qp_FOSA>  (634) 
179.90199999999999

>  <r_qp_IP(eV)>  (634) 
7.8440000000000003

>  <r_qp_Jm>  (634) 
2.7354459416291101e-05

>  <r_qp_PISA>  (634) 
430.137

>  <r_qp_PSA>  (634) 
97.399000000000001

>  <r_qp_PercentHumanOralAbsorption>  (634) 
79.763999999999996

>  <r_qp_QPPCaco>  (634) 
54.287999999999997

>  <r_qp_QPPMDCK>  (634) 
33.838999999999999

>  <r_qp_QPlogBB>  (634) 
-1.585

>  <r_qp_QPlogHERG>  (634) 
-7.9960000000000004

>  <r_qp_QPlogKhsa>  (634) 
0.46100000000000002

>  <r_qp_QPlogKp>  (634) 
-4.2329999999999997

>  <r_qp_QPlogPC16>  (634) 
17.315000000000001

>  <r_qp_QPlogPo/w>  (634) 
3.718

>  <r_qp_QPlogPoct>  (634) 
27.187000000000001

>  <r_qp_QPlogPw>  (634) 
15.847

>  <r_qp_QPlogS>  (634) 
-6.0019999999999998

>  <r_qp_QPpolrz>  (634) 
50.177999999999997

>  <r_qp_SASA>  (634) 
813.88099999999997

>  <r_qp_SAamideO>  (634) 
0

>  <r_qp_SAfluorine>  (634) 
0

>  <r_qp_WPSA>  (634) 
28.992999999999999

>  <r_qp_accptHB>  (634) 
8.1999999999999993

>  <r_qp_dip^2/V>  (634) 
0.098135299999999995

>  <r_qp_dipole>  (634) 
12.057

>  <r_qp_donorHB>  (634) 
3

>  <r_qp_glob>  (634) 
0.77219170000000004

>  <r_qp_mol_MW>  (634) 
470.58800000000002

>  <r_qp_volume>  (634) 
1481.433

>  <r_sd_BIOSOLVEIT.INFINISEE\_FTREES\_SIMILARITY>  (634) 
0.90900000000000003

>  <r_sd_BIOSOLVEIT.LOGP>  (634) 
5.0614800000000004

>  <r_sd_BIOSOLVEIT.MOLECULAR\_WEIGHT>  (634) 
470.59300000000002

>  <r_sd_BIOSOLVEIT.TPSA>  (634) 
88.390000000000001

>  <i_epik_Tot_Q>  (634) 
0

>  <i_epik_Tot_abs_Q>  (634) 
0

>  <i_f3d_flags>  (634) 
0

>  <i_i_glide_confnum>  (634) 
7

>  <i_i_glide_lignum>  (634) 
1299

>  <i_i_glide_posenum>  (634) 
16

>  <i_i_glide_rotatable_bonds>  (634) 
11

>  <i_lp_mmshare_version>  (634) 
65135

>  <i_m_ct_format>  (634) 
2

>  <i_m_source_file_index>  (634) 
2675

>  <i_qp_#NandO>  (634) 
6

>  <i_qp_#acid>  (634) 
0

>  <i_qp_#amide>  (634) 
0

>  <i_qp_#amidine>  (634) 
0

>  <i_qp_#amine>  (634) 
1

>  <i_qp_#in34>  (634) 
0

>  <i_qp_#in56>  (634) 
21

>  <i_qp_#metab>  (634) 
8

>  <i_qp_#nonHatm>  (634) 
34

>  <i_qp_#noncon>  (634) 
0

>  <i_qp_#ringatoms>  (634) 
21

>  <i_qp_#rotor>  (634) 
11

>  <i_qp_#rtvFG>  (634) 
0

>  <i_qp_#stars>  (634) 
1

>  <i_qp_CNS>  (634) 
-2

>  <i_qp_HumanOralAbsorption>  (634) 
2

>  <i_qp_RuleOfFive>  (634) 
0

>  <i_qp_RuleOfThree>  (634) 
2

>  <i_sd_BIOSOLVEIT.INFINISEE\_RESULT\_RANK>  (634) 
49515

>  <i_sd_version>  (634) 
0

>  <b_lp_Chiralities_Consistent>  (634) 
1

>  <b_sd_chiral_flag>  (634) 
0

>  <canonical_id>  (634) 
ATP-HTVS-63A2B85F1850

>  <compound_code>  (634) 
85570

>  <title>  (634) 
rxn502c____EMOL483931____EMOL49259969____EMOL324170366

>  <variant>  (634) 
85570-1

>  <source_file>  (634) 
运行/运行/ATP-VSW/ATP-VSW-DOCK_HTVS_1-002_lib.maegz

>  <canonical_smiles>  (634) 
CN(Cc1sc2ccccc2c1NCc1ccc(NCCO)cc1)C(=O)c1cccc(C#N)c1

>  <scaffold>  (634) 
O=C(NCc1sc2ccccc2c1NCc1ccccc1)c1ccccc1

>  <molecular_formula>  (634) 
C27H26N4O2S

$$$$
ATP-HTVS-63DD1309BB6A
     RDKit          3D

 64 67  0  0  0  0  0  0  0  0999 V2000
  200.3953  182.6080  156.4480 O   0  0  0  0  0  0  0  0  0  0  0  0
  199.5094  181.8055  156.7458 C   0  0  0  0  0  0  0  0  0  0  0  0
  198.3192  182.1074  157.2957 N   0  0  0  0  0  0  0  0  0  0  0  0
  197.9272  183.3195  157.9358 C   0  0  0  0  0  0  0  0  0  0  0  0
  198.8274  184.2944  158.2149 N   0  0  0  0  0  0  0  0  0  0  0  0
  198.4423  185.4184  158.8370 C   0  0  0  0  0  0  0  0  0  0  0  0
  197.1022  185.6884  159.2020 C   0  0  0  0  0  0  0  0  0  0  0  0
  196.7022  186.9342  159.7430 N   0  0  0  0  0  0  0  0  0  0  0  0
  197.4666  188.1704  159.5635 C   0  0  1  0  0  0  0  0  0  0  0  0
  198.3333  188.2049  158.3183 C   0  0  0  0  0  0  0  0  0  0  0  0
  197.7738  187.8693  157.0621 C   0  0  0  0  0  0  0  0  0  0  0  0
  198.5883  187.7858  155.9269 C   0  0  0  0  0  0  0  0  0  0  0  0
  199.9584  188.1192  155.9929 C   0  0  0  0  0  0  0  0  0  0  0  0
  200.5050  188.4705  157.2459 C   0  0  0  0  0  0  0  0  0  0  0  0
  199.7047  188.5105  158.4055 C   0  0  0  0  0  0  0  0  0  0  0  0
  200.8319  188.0789  154.7462 C   0  0  1  0  0  0  0  0  0  0  0  0
  200.4613  189.0603  153.7119 N   0  0  0  0  0  0  0  0  0  0  0  0
  199.1173  188.8142  153.1590 C   0  0  1  0  0  0  0  0  0  0  0  0
  199.0169  187.4677  152.4139 C   0  0  2  0  0  0  0  0  0  0  0  0
  201.4852  189.1344  152.6564 C   0  0  1  0  0  0  0  0  0  0  0  0
  201.2595  190.3326  151.7043 C   0  0  2  0  0  0  0  0  0  0  0  0
  196.1566  184.6485  158.9802 C   0  0  0  0  0  0  0  0  0  0  0  0
  196.5785  183.4396  158.3488 C   0  0  0  0  0  0  0  0  0  0  0  0
  195.6397  182.3938  158.1526 C   0  0  0  0  0  0  0  0  0  0  0  0
  194.3054  182.5508  158.5626 C   0  0  0  0  0  0  0  0  0  0  0  0
  193.8851  183.7549  159.1491 C   0  0  0  0  0  0  0  0  0  0  0  0
  194.8038  184.7941  159.3688 C   0  0  0  0  0  0  0  0  0  0  0  0
  199.7266  180.3355  156.5253 C   0  0  0  0  0  0  0  0  0  0  0  0
  198.8616  179.5413  155.7174 C   0  0  0  0  0  0  0  0  0  0  0  0
  197.6849  180.0731  155.0450 C   0  0  0  0  0  0  0  0  0  0  0  0
  196.7516  180.5036  154.5037 N   0  0  0  0  0  0  0  0  0  0  0  0
  199.1476  178.1713  155.5498 C   0  0  0  0  0  0  0  0  0  0  0  0
  200.2579  177.5766  156.1750 C   0  0  0  0  0  0  0  0  0  0  0  0
  201.1090  178.3575  156.9760 C   0  0  0  0  0  0  0  0  0  0  0  0
  200.8473  179.7296  157.1391 C   0  0  0  0  0  0  0  0  0  0  0  0
  199.2259  186.1508  159.0102 H   0  0  0  0  0  0  0  0  0  0  0  0
  195.7194  187.0650  159.9324 H   0  0  0  0  0  0  0  0  0  0  0  0
  196.7551  189.0004  159.5248 H   0  0  0  0  0  0  0  0  0  0  0  0
  198.0798  188.3437  160.4450 H   0  0  0  0  0  0  0  0  0  0  0  0
  196.7135  187.6396  157.0013 H   0  0  0  0  0  0  0  0  0  0  0  0
  198.1656  187.4554  154.9915 H   0  0  0  0  0  0  0  0  0  0  0  0
  201.5716  188.6558  157.3326 H   0  0  0  0  0  0  0  0  0  0  0  0
  200.1540  188.7338  159.3634 H   0  0  0  0  0  0  0  0  0  0  0  0
  201.8636  188.2575  155.0585 H   0  0  0  0  0  0  0  0  0  0  0  0
  200.8278  187.0653  154.3297 H   0  0  0  0  0  0  0  0  0  0  0  0
  198.3763  188.8691  153.9434 H   0  0  0  0  0  0  0  0  0  0  0  0
  198.8499  189.6332  152.4834 H   0  0  0  0  0  0  0  0  0  0  0  0
  198.0040  187.3132  152.0383 H   0  0  0  0  0  0  0  0  0  0  0  0
  199.2263  186.6326  153.0704 H   0  0  0  0  0  0  0  0  0  0  0  0
  199.7242  187.4065  151.5811 H   0  0  0  0  0  0  0  0  0  0  0  0
  202.4802  189.2541  153.1038 H   0  0  0  0  0  0  0  0  0  0  0  0
  201.4788  188.1965  152.0915 H   0  0  0  0  0  0  0  0  0  0  0  0
  201.9663  190.3141  150.8738 H   0  0  0  0  0  0  0  0  0  0  0  0
  201.3621  191.2874  152.2224 H   0  0  0  0  0  0  0  0  0  0  0  0
  200.2807  190.3326  151.2283 H   0  0  0  0  0  0  0  0  0  0  0  0
  195.9065  181.4604  157.6721 H   0  0  0  0  0  0  0  0  0  0  0  0
  193.6053  181.7475  158.3853 H   0  0  0  0  0  0  0  0  0  0  0  0
  192.8466  183.8829  159.4174 H   0  0  0  0  0  0  0  0  0  0  0  0
  194.4395  185.7017  159.8221 H   0  0  0  0  0  0  0  0  0  0  0  0
  198.5013  177.5595  154.9388 H   0  0  0  0  0  0  0  0  0  0  0  0
  200.4477  176.5237  156.0481 H   0  0  0  0  0  0  0  0  0  0  0  0
  201.9454  177.9025  157.4731 H   0  0  0  0  0  0  0  0  0  0  0  0
  201.5077  180.3210  157.7593 H   0  0  0  0  0  0  0  0  0  0  0  0
  197.6597  181.3444  157.3859 H   0  0  0  0  0  0  0  0  0  0  0  0
  1  2  2  0
  2  3  1  0
  2 28  1  0
  3  4  1  0
  3 64  1  0
  4  5  1  0
  4 23  2  0
  5  6  2  0
  6  7  1  0
  6 36  1  0
  7  8  1  0
  7 22  2  0
  8  9  1  0
  8 37  1  0
  9 10  1  0
  9 38  1  6
  9 39  1  0
 10 11  1  0
 10 15  2  0
 11 12  2  0
 11 40  1  0
 12 13  1  0
 12 41  1  0
 13 14  2  0
 13 16  1  0
 14 15  1  0
 14 42  1  0
 15 43  1  0
 16 17  1  0
 16 44  1  1
 16 45  1  0
 17 18  1  0
 17 20  1  0
 18 19  1  0
 18 46  1  1
 18 47  1  0
 19 48  1  6
 19 49  1  0
 19 50  1  0
 20 21  1  0
 20 51  1  1
 20 52  1  0
 21 53  1  6
 21 54  1  0
 21 55  1  0
 22 23  1  0
 22 27  1  0
 23 24  1  0
 24 25  2  0
 24 56  1  0
 25 26  1  0
 25 57  1  0
 26 27  2  0
 26 58  1  0
 27 59  1  0
 28 29  1  0
 28 35  2  0
 29 30  1  0
 29 32  2  0
 30 31  3  0
 32 33  1  0
 32 60  1  0
 33 34  2  0
 33 61  1  0
 34 35  1  0
 34 62  1  0
 35 63  1  0
M  END
>  <s_epik_cmdline>  (635) 
J2VwaWtfcHl0aG9uJywgJy1waCcsICc3LjAwMDAwMCcsICctcGh0JywgJzIuMDAwMDAwJywgJy1tcycsICcxNicsICctdG4nLCAnOCcsICctbWEnLCAnMjAwJywgJy1pbWFlJywgJzxpbmZpbGUubWFlPicsICctb21hZScsICc8b3V0ZmlsZS5tYWU+Jw==

>  <s_epik_input>  (635) 
W2NIXTFbY0hdW2NIXVtjSF1jKEMjTiljMUMoPU8pW05IXWMoYyhjMjMpW2NIXVtjSF1bY0hdW2NIXTMpbltjSF1jMltOSF1bQ0gyXWM0W2NIXVtjSF1jKFtjSF1bY0hdNClbQ0gyXU4oW0NIMl1bQ0gzXSlbQ0gyXVtDSDNd

>  <s_i_glide_gridfile>  (635) 
ATP-Grid

>  <s_lp_Force_Field>  (635) 
OPLS_2005

>  <s_lp_Variant>  (635) 
rxn502b____EMOL43467976____EMOL7515103____EMOL2868412-1

>  <s_lp_label>  (635) 
2481_sdstereoexpander_1_neutralizer_1_epik_1_stereoizer_1

>  <s_m_source_file>  (635) 
ATP-VSW-LIGPREP-002-in.maegz

>  <s_sd_BIOSOLVEIT.INFINISEE\_QUERY\_NAME>  (635) 
Ref-Lig

>  <s_sd_BIOSOLVEIT.INFINISEE\_QUERY\_SMILES>  (635) 
S(c1nc2c(cc1C[NH2+]Cc3ccc(cc3)C[NH+](C)C)cccc2)Cc4ccccc4

>  <s_sd_BIOSOLVEIT.INFINISEE\_REACTION\_NAME>  (635) 
rxn502b

>  <s_sd_BIOSOLVEIT.INFINISEE\_REAGENT1\_NAME>  (635) 
EMOL43467976

>  <s_sd_BIOSOLVEIT.INFINISEE\_REAGENT1\_SMILES>  (635) 
ClC(=O)c1c(C#N)cccc1

>  <s_sd_BIOSOLVEIT.INFINISEE\_REAGENT2\_NAME>  (635) 
EMOL7515103

>  <s_sd_BIOSOLVEIT.INFINISEE\_REAGENT2\_SMILES>  (635) 
Brc1c2c(c(nc1)N)cccc2

>  <s_sd_BIOSOLVEIT.INFINISEE\_REAGENT3\_NAME>  (635) 
EMOL2868412

>  <s_sd_BIOSOLVEIT.INFINISEE\_REAGENT3\_SMILES>  (635) 
N(Cc1ccc(cc1)CN)(CC)CC

>  <s_sd_BIOSOLVEIT.INFINISEE\_SPACE>  (635) 
eXplore_7tr_2022-12

>  <s_vsw_compound_code>  (635) 
79362

>  <s_vsw_variant>  (635) 
79362-1

>  <r_epik_Charging_Adjusted_Penalty>  (635) 
0.0046256880161822398

>  <r_epik_Ionization_Penalty>  (635) 
2.1516000000000002

>  <r_epik_Ionization_Penalty_Charging>  (635) 
0

>  <r_epik_Ionization_Penalty_Neutral>  (635) 
2.1516000000000002

>  <r_epik_State_Penalty>  (635) 
0.0045999999999999999

>  <r_i_docking_score>  (635) 
-3.34205032023594

>  <r_i_glide_ecoul>  (635) 
-2.8954529762268102

>  <r_i_glide_eff_state_penalty>  (635) 
0.0045999999999999999

>  <r_i_glide_einternal>  (635) 
5.1130700111389196

>  <r_i_glide_emodel>  (635) 
-48.056254576722097

>  <r_i_glide_energy>  (635) 
-41.648279666900599

>  <r_i_glide_erotb>  (635) 
0.75021712618605396

>  <r_i_glide_esite>  (635) 
-0.088238480855481902

>  <r_i_glide_evdw>  (635) 
-38.7528266906738

>  <r_i_glide_gscore>  (635) 
-3.3466503202359399

>  <r_i_glide_hbond>  (635) 
0

>  <r_i_glide_ligand_efficiency>  (635) 
-0.095487152006741197

>  <r_i_glide_ligand_efficiency_ln>  (635) 
-0.73365421810232101

>  <r_i_glide_ligand_efficiency_sa>  (635) 
-0.31234480561494299

>  <r_i_glide_lipo>  (635) 
-1.3883069118715301

>  <r_i_glide_metal>  (635) 
-0

>  <r_i_glide_rewards>  (635) 
-0.248362772727271

>  <r_lp_Energy>  (635) 
39.168841999999998

>  <r_qp_ACxDN^.5/SA>  (635) 
0.013374499999999999

>  <r_qp_CIQPlogS>  (635) 
-6.6639999999999997

>  <r_qp_EA(eV)>  (635) 
0.997

>  <r_qp_FISA>  (635) 
129.16800000000001

>  <r_qp_FOSA>  (635) 
276.88499999999999

>  <r_qp_IP(eV)>  (635) 
7.8799999999999999

>  <r_qp_Jm>  (635) 
2.9399400740617201e-05

>  <r_qp_PISA>  (635) 
439.863

>  <r_qp_PSA>  (635) 
85.426000000000002

>  <r_qp_PercentHumanOralAbsorption>  (635) 
92.344999999999999

>  <r_qp_QPPCaco>  (635) 
147.196

>  <r_qp_QPPMDCK>  (635) 
68.995999999999995

>  <r_qp_QPlogBB>  (635) 
-1.1200000000000001

>  <r_qp_QPlogHERG>  (635) 
-8.1929999999999996

>  <r_qp_QPlogKhsa>  (635) 
0.73899999999999999

>  <r_qp_QPlogKp>  (635) 
-3.4529999999999998

>  <r_qp_QPlogPC16>  (635) 
17.257000000000001

>  <r_qp_QPlogPo/w>  (635) 
4.5430000000000001

>  <r_qp_QPlogPoct>  (635) 
25.972999999999999

>  <r_qp_QPlogPw>  (635) 
14.228999999999999

>  <r_qp_QPlogS>  (635) 
-6.7450000000000001

>  <r_qp_QPpolrz>  (635) 
53.311

>  <r_qp_SASA>  (635) 
845.91600000000005

>  <r_qp_SAamideO>  (635) 
0

>  <r_qp_SAfluorine>  (635) 
0

>  <r_qp_WPSA>  (635) 
0

>  <r_qp_accptHB>  (635) 
8

>  <r_qp_dip^2/V>  (635) 
0.069107100000000005

>  <r_qp_dipole>  (635) 
10.321

>  <r_qp_donorHB>  (635) 
2

>  <r_qp_glob>  (635) 
0.76285639999999999

>  <r_qp_mol_MW>  (635) 
463.58100000000002

>  <r_qp_volume>  (635) 
1541.3720000000001

>  <r_sd_BIOSOLVEIT.INFINISEE\_FTREES\_SIMILARITY>  (635) 
0.91500000000000004

>  <r_sd_BIOSOLVEIT.LOGP>  (635) 
4.3955799999999998

>  <r_sd_BIOSOLVEIT.MOLECULAR\_WEIGHT>  (635) 
464.58999999999997

>  <r_sd_BIOSOLVEIT.TPSA>  (635) 
82.25

>  <i_epik_Tot_Q>  (635) 
0

>  <i_epik_Tot_abs_Q>  (635) 
0

>  <i_f3d_flags>  (635) 
0

>  <i_i_glide_confnum>  (635) 
5

>  <i_i_glide_lignum>  (635) 
1079

>  <i_i_glide_posenum>  (635) 
14

>  <i_i_glide_rotatable_bonds>  (635) 
10

>  <i_lp_mmshare_version>  (635) 
65135

>  <i_m_ct_format>  (635) 
2

>  <i_m_source_file_index>  (635) 
2481

>  <i_qp_#NandO>  (635) 
6

>  <i_qp_#acid>  (635) 
0

>  <i_qp_#amide>  (635) 
0

>  <i_qp_#amidine>  (635) 
0

>  <i_qp_#amine>  (635) 
1

>  <i_qp_#in34>  (635) 
0

>  <i_qp_#in56>  (635) 
22

>  <i_qp_#metab>  (635) 
7

>  <i_qp_#nonHatm>  (635) 
35

>  <i_qp_#noncon>  (635) 
0

>  <i_qp_#ringatoms>  (635) 
22

>  <i_qp_#rotor>  (635) 
10

>  <i_qp_#rtvFG>  (635) 
0

>  <i_qp_#stars>  (635) 
2

>  <i_qp_CNS>  (635) 
-2

>  <i_qp_HumanOralAbsorption>  (635) 
1

>  <i_qp_RuleOfFive>  (635) 
0

>  <i_qp_RuleOfThree>  (635) 
2

>  <i_sd_BIOSOLVEIT.INFINISEE\_RESULT\_RANK>  (635) 
28794

>  <i_sd_version>  (635) 
0

>  <b_lp_Chiralities_Consistent>  (635) 
1

>  <b_sd_chiral_flag>  (635) 
0

>  <canonical_id>  (635) 
ATP-HTVS-63DD1309BB6A

>  <compound_code>  (635) 
79362

>  <title>  (635) 
rxn502b____EMOL43467976____EMOL7515103____EMOL2868412

>  <variant>  (635) 
79362-1

>  <source_file>  (635) 
运行/运行/ATP-VSW/ATP-VSW-DOCK_HTVS_1-002_lib.maegz

>  <canonical_smiles>  (635) 
CCN(CC)Cc1ccc(CNc2cnc(NC(=O)c3ccccc3C#N)c3ccccc23)cc1

>  <scaffold>  (635) 
O=C(Nc1ncc(NCc2ccccc2)c2ccccc12)c1ccccc1

>  <molecular_formula>  (635) 
C29H29N5O

$$$$
ATP-HTVS-63DFF8A88018
     RDKit          3D

 64 67  0  0  0  0  0  0  0  0999 V2000
  203.6626  183.0323  161.9150 O   0  0  0  0  0  0  0  0  0  0  0  0
  202.8873  182.9096  160.7950 C   0  0  0  0  0  0  0  0  0  0  0  0
  201.6345  183.5582  160.7176 C   0  0  0  0  0  0  0  0  0  0  0  0
  200.8265  183.4164  159.5632 C   0  0  0  0  0  0  0  0  0  0  0  0
  199.5609  184.0266  159.5355 N   0  0  0  0  0  0  0  0  0  0  0  0
  198.3441  183.6057  159.0291 C   0  0  0  0  0  0  0  0  0  0  0  0
  197.2319  184.1416  159.5455 N   0  0  0  0  0  0  0  0  0  0  0  0
  196.0112  183.8107  159.0520 C   0  0  0  0  0  0  0  0  0  0  0  0
  194.8782  184.4726  159.5832 N   0  0  0  0  0  0  0  0  0  0  0  0
  195.0007  185.7563  160.2891 C   0  0  1  0  0  0  0  0  0  0  0  0
  195.9162  186.8254  159.6848 C   0  0  0  0  0  0  0  0  0  0  0  0
  196.2613  186.8190  158.3103 C   0  0  0  0  0  0  0  0  0  0  0  0
  197.1796  187.7467  157.8010 C   0  0  0  0  0  0  0  0  0  0  0  0
  197.7333  188.7306  158.6417 C   0  0  0  0  0  0  0  0  0  0  0  0
  197.3616  188.7769  159.9996 C   0  0  0  0  0  0  0  0  0  0  0  0
  196.4534  187.8308  160.5188 C   0  0  0  0  0  0  0  0  0  0  0  0
  193.5617  184.0091  159.1786 C   0  0  2  0  0  0  0  0  0  0  0  0
  195.9316  182.8859  157.9942 C   0  0  0  0  0  0  0  0  0  0  0  0
  197.1370  182.3639  157.4991 C   0  0  0  0  0  0  0  0  0  0  0  0
  198.3119  182.7426  158.0179 N   0  0  0  0  0  0  0  0  0  0  0  0
  197.1298  181.4914  156.4134 N   0  0  0  0  0  0  0  0  0  0  0  0
  198.1415  180.4386  156.3715 C   0  0  1  0  0  0  0  0  0  0  0  0
  197.7444  179.2677  155.4469 C   0  0  2  0  0  0  0  0  0  0  0  0
  198.6096  178.1926  155.7286 O   0  0  0  0  0  0  0  0  0  0  0  0
  197.7064  179.6359  153.9626 C   0  0  0  0  0  0  0  0  0  0  0  0
  196.7395  180.5522  153.4912 C   0  0  0  0  0  0  0  0  0  0  0  0
  196.6783  180.9072  152.1344 C   0  0  0  0  0  0  0  0  0  0  0  0
  197.5695  180.3280  151.2134 C   0  0  0  0  0  0  0  0  0  0  0  0
  198.5296  179.4000  151.6641 C   0  0  0  0  0  0  0  0  0  0  0  0
  198.6042  179.0589  153.0307 C   0  0  0  0  0  0  0  0  0  0  0  0
  197.4834  180.7034  149.7491 C   0  0  2  0  0  0  0  0  0  0  0  0
  201.3064  182.6444  158.4827 C   0  0  0  0  0  0  0  0  0  0  0  0
  202.5520  181.9993  158.5620 C   0  0  0  0  0  0  0  0  0  0  0  0
  203.3462  182.1355  159.7142 C   0  0  0  0  0  0  0  0  0  0  0  0
  203.2630  183.5383  162.6060 H   0  0  0  0  0  0  0  0  0  0  0  0
  201.2903  184.1602  161.5464 H   0  0  0  0  0  0  0  0  0  0  0  0
  199.4737  184.7722  160.1974 H   0  0  0  0  0  0  0  0  0  0  0  0
  194.0091  186.2023  160.3897 H   0  0  0  0  0  0  0  0  0  0  0  0
  195.3389  185.5428  161.3059 H   0  0  0  0  0  0  0  0  0  0  0  0
  195.8591  186.0825  157.6311 H   0  0  0  0  0  0  0  0  0  0  0  0
  197.4868  187.6710  156.7651 H   0  0  0  0  0  0  0  0  0  0  0  0
  198.4523  189.4342  158.2435 H   0  0  0  0  0  0  0  0  0  0  0  0
  197.7949  189.5211  160.6515 H   0  0  0  0  0  0  0  0  0  0  0  0
  196.2053  187.8608  161.5764 H   0  0  0  0  0  0  0  0  0  0  0  0
  193.4822  182.9312  159.3277 H   0  0  0  0  0  0  0  0  0  0  0  0
  193.3978  184.2320  158.1342 H   0  0  0  0  0  0  0  0  0  0  0  0
  192.7714  184.4995  159.7487 H   0  0  0  0  0  0  0  0  0  0  0  0
  194.9964  182.6313  157.4981 H   0  0  0  0  0  0  0  0  0  0  0  0
  196.2118  181.1826  156.1301 H   0  0  0  0  0  0  0  0  0  0  0  0
  199.0888  180.8569  156.0345 H   0  0  0  0  0  0  0  0  0  0  0  0
  198.3071  180.0699  157.3875 H   0  0  0  0  0  0  0  0  0  0  0  0
  196.7555  178.9056  155.7266 H   0  0  0  0  0  0  0  0  0  0  0  0
  198.3804  177.8911  156.6073 H   0  0  0  0  0  0  0  0  0  0  0  0
  196.0164  180.9925  154.1582 H   0  0  0  0  0  0  0  0  0  0  0  0
  195.9386  181.6221  151.8128 H   0  0  0  0  0  0  0  0  0  0  0  0
  199.2111  178.9405  150.9631 H   0  0  0  0  0  0  0  0  0  0  0  0
  199.3445  178.3400  153.3475 H   0  0  0  0  0  0  0  0  0  0  0  0
  198.4319  180.5204  149.2436 H   0  0  0  0  0  0  0  0  0  0  0  0
  197.2384  181.7608  149.6391 H   0  0  0  0  0  0  0  0  0  0  0  0
  196.7067  180.1154  149.2595 H   0  0  0  0  0  0  0  0  0  0  0  0
  200.7457  182.5252  157.5682 H   0  0  0  0  0  0  0  0  0  0  0  0
  202.8937  181.4067  157.7293 H   0  0  0  0  0  0  0  0  0  0  0  0
  204.3129  181.6479  159.7630 H   0  0  0  0  0  0  0  0  0  0  0  0
  197.2966  184.8502  160.2787 H   0  0  0  0  0  0  0  0  0  0  0  0
  1  2  1  0
  1 35  1  0
  2  3  2  0
  2 34  1  0
  3  4  1  0
  3 36  1  0
  4  5  1  0
  4 32  2  0
  5  6  1  0
  5 37  1  0
  6  7  2  0
  6 20  1  0
  7  8  1  0
  7 64  1  0
  8  9  1  0
  8 18  2  0
  9 10  1  0
  9 17  1  0
 10 11  1  0
 10 38  1  1
 10 39  1  0
 11 12  2  0
 11 16  1  0
 12 13  1  0
 12 40  1  0
 13 14  2  0
 13 41  1  0
 14 15  1  0
 14 42  1  0
 15 16  2  0
 15 43  1  0
 16 44  1  0
 17 45  1  6
 17 46  1  0
 17 47  1  0
 18 19  1  0
 18 48  1  0
 19 20  2  0
 19 21  1  0
 21 22  1  0
 21 49  1  0
 22 23  1  0
 22 50  1  6
 22 51  1  0
 23 24  1  0
 23 25  1  0
 23 52  1  1
 24 53  1  0
 25 26  1  0
 25 30  2  0
 26 27  2  0
 26 54  1  0
 27 28  1  0
 27 55  1  0
 28 29  2  0
 28 31  1  0
 29 30  1  0
 29 56  1  0
 30 57  1  0
 31 58  1  6
 31 59  1  0
 31 60  1  0
 32 33  1  0
 32 61  1  0
 33 34  2  0
 33 62  1  0
 34 63  1  0
M  CHG  1   7   1
M  END
>  <s_epik_cmdline>  (636) 
J2VwaWtfcHl0aG9uJywgJy1waCcsICc3LjAwMDAwMCcsICctcGh0JywgJzIuMDAwMDAwJywgJy1tcycsICcxNicsICctdG4nLCAnOCcsICctbWEnLCAnMjAwJywgJy1pbWFlJywgJzxpbmZpbGUubWFlPicsICctb21hZScsICc8b3V0ZmlsZS5tYWU+Jw==

>  <s_epik_input>  (636) 
W2NIXTFbY0hdW2NIXVtjSF1bY0hdYzFbQ0gyXU4oW0NIM10pYyhuYzJbTkhdYyhbY0hdYzNbT0hdKVtjSF1bY0hdW2NIXTMpW2NIXWMobjIpW05IXVtDSDJdW0NASF0oW09IXSljNFtjSF1bY0hdYyhbQ0gzXSlbY0hdW2NIXTQ=

>  <s_i_glide_gridfile>  (636) 
ATP-Grid

>  <s_lp_Force_Field>  (636) 
OPLS_2005

>  <s_lp_Variant>  (636) 
YAS_R028____OTV2128104____OTV1106784____OTV1268163____OTV1055862-3

>  <s_lp_label>  (636) 
49_sdstereoexpander_1_neutralizer_1_epik_2_stereoizer_1

>  <s_m_source_file>  (636) 
ATP-VSW-LIGPREP-001-in.maegz

>  <s_sd_BIOSOLVEIT.INFINISEE\_QUERY\_NAME>  (636) 
Ref-Lig

>  <s_sd_BIOSOLVEIT.INFINISEE\_QUERY\_SMILES>  (636) 
S(c1nc2c(cc1C[NH2+]Cc3ccc(cc3)C[NH+](C)C)cccc2)Cc4ccccc4

>  <s_sd_BIOSOLVEIT.INFINISEE\_REACTION\_NAME>  (636) 
YAS_R028

>  <s_sd_BIOSOLVEIT.INFINISEE\_REAGENT1\_NAME>  (636) 
OTV2128104

>  <s_sd_BIOSOLVEIT.INFINISEE\_REAGENT1\_SMILES>  (636) 
Clc1nc(Cl)cc(Cl)n1

>  <s_sd_BIOSOLVEIT.INFINISEE\_REAGENT2\_NAME>  (636) 
OTV1106784

>  <s_sd_BIOSOLVEIT.INFINISEE\_REAGENT2\_SMILES>  (636) 
Oc1cc(N)ccc1

>  <s_sd_BIOSOLVEIT.INFINISEE\_REAGENT3\_NAME>  (636) 
OTV1268163

>  <s_sd_BIOSOLVEIT.INFINISEE\_REAGENT3\_SMILES>  (636) 
N(Cc1ccccc1)C

>  <s_sd_BIOSOLVEIT.INFINISEE\_REAGENT4\_NAME>  (636) 
OTV1055862

>  <s_sd_BIOSOLVEIT.INFINISEE\_REAGENT4\_SMILES>  (636) 
OC(c1ccc(cc1)C)CN

>  <s_sd_BIOSOLVEIT.INFINISEE\_SPACE>  (636) 
CHEMriya_12bn_2022-01

>  <s_vsw_compound_code>  (636) 
1537

>  <s_vsw_variant>  (636) 
1537-3

>  <r_epik_Charging_Adjusted_Penalty>  (636) 
0.80179840212875397

>  <r_epik_Ionization_Penalty>  (636) 
0.12920000000000001

>  <r_epik_Ionization_Penalty_Charging>  (636) 
0.1283

>  <r_epik_Ionization_Penalty_Neutral>  (636) 
0.00089999999999999998

>  <r_epik_State_Penalty>  (636) 
0.67349999999999999

>  <r_i_docking_score>  (636) 
-4.7943360024633002

>  <r_i_glide_ecoul>  (636) 
-9.1615896224975604

>  <r_i_glide_eff_state_penalty>  (636) 
0.67349999999999999

>  <r_i_glide_einternal>  (636) 
3.5975797176361102

>  <r_i_glide_emodel>  (636) 
-69.981645227372695

>  <r_i_glide_energy>  (636) 
-48.861243247985797

>  <r_i_glide_erotb>  (636) 
0.86776031109485896

>  <r_i_glide_esite>  (636) 
-0.070293238117260598

>  <r_i_glide_evdw>  (636) 
-39.699653625488303

>  <r_i_glide_gscore>  (636) 
-5.4678360024632999

>  <r_i_glide_hbond>  (636) 
-0.16

>  <r_i_glide_ligand_efficiency>  (636) 
-0.141009882425391

>  <r_i_glide_ligand_efficiency_ln>  (636) 
-1.0592032995139899

>  <r_i_glide_ligand_efficiency_sa>  (636) 
-0.45681727866507998

>  <r_i_glide_lipo>  (636) 
-1.9472343326086501

>  <r_i_glide_metal>  (636) 
-0

>  <r_i_glide_rewards>  (636) 
-0.79884761818320105

>  <r_lp_Energy>  (636) 
18.009557999999998

>  <r_lp_tautomer_probability>  (636) 
0.57501057701194902

>  <r_qp_ACxDN^.5/SA>  (636) 
0.016042000000000001

>  <r_qp_CIQPlogS>  (636) 
-7.2430000000000003

>  <r_qp_EA(eV)>  (636) 
0.10299999999999999

>  <r_qp_FISA>  (636) 
122.801

>  <r_qp_FOSA>  (636) 
208.02099999999999

>  <r_qp_IP(eV)>  (636) 
7.9809999999999999

>  <r_qp_Jm>  (636) 
0.103374605829852

>  <r_qp_PISA>  (636) 
410.97800000000001

>  <r_qp_PSA>  (636) 
84.606999999999999

>  <r_qp_PercentHumanOralAbsorption>  (636) 
100

>  <r_qp_QPPCaco>  (636) 
678.22799999999995

>  <r_qp_QPPMDCK>  (636) 
325.15199999999999

>  <r_qp_QPlogBB>  (636) 
-1.298

>  <r_qp_QPlogHERG>  (636) 
-6.3019999999999996

>  <r_qp_QPlogKhsa>  (636) 
0.65800000000000003

>  <r_qp_QPlogKp>  (636) 
-1.2789999999999999

>  <r_qp_QPlogPC16>  (636) 
16.091999999999999

>  <r_qp_QPlogPo/w>  (636) 
4.8499999999999996

>  <r_qp_QPlogPoct>  (636) 
25.425999999999998

>  <r_qp_QPlogPw>  (636) 
14.428000000000001

>  <r_qp_QPlogS>  (636) 
-5.3650000000000002

>  <r_qp_QPpolrz>  (636) 
47.814

>  <r_qp_SASA>  (636) 
741.80100000000004

>  <r_qp_SAamideO>  (636) 
0

>  <r_qp_SAfluorine>  (636) 
0

>  <r_qp_WPSA>  (636) 
0

>  <r_qp_accptHB>  (636) 
5.9500000000000002

>  <r_qp_dip^2/V>  (636) 
0.0266845

>  <r_qp_dipole>  (636) 
6.1710000000000003

>  <r_qp_donorHB>  (636) 
4

>  <r_qp_glob>  (636) 
0.82632090000000002

>  <r_qp_mol_MW>  (636) 
455.55799999999999

>  <r_qp_volume>  (636) 
1426.942

>  <r_sd_BIOSOLVEIT.INFINISEE\_FTREES\_SIMILARITY>  (636) 
0.91800000000000004

>  <r_sd_BIOSOLVEIT.LOGP>  (636) 
5.0161199999999999

>  <r_sd_BIOSOLVEIT.MOLECULAR\_WEIGHT>  (636) 
455.55900000000003

>  <r_sd_BIOSOLVEIT.TPSA>  (636) 
93.540000000000006

>  <i_epik_Tot_Q>  (636) 
1

>  <i_epik_Tot_abs_Q>  (636) 
1

>  <i_f3d_flags>  (636) 
0

>  <i_i_glide_confnum>  (636) 
9

>  <i_i_glide_lignum>  (636) 
7

>  <i_i_glide_posenum>  (636) 
4

>  <i_i_glide_rotatable_bonds>  (636) 
11

>  <i_lp_mmshare_version>  (636) 
65135

>  <i_m_ct_format>  (636) 
2

>  <i_m_source_file_index>  (636) 
49

>  <i_qp_#NandO>  (636) 
7

>  <i_qp_#acid>  (636) 
0

>  <i_qp_#amide>  (636) 
0

>  <i_qp_#amidine>  (636) 
0

>  <i_qp_#amine>  (636) 
0

>  <i_qp_#in34>  (636) 
0

>  <i_qp_#in56>  (636) 
24

>  <i_qp_#metab>  (636) 
6

>  <i_qp_#nonHatm>  (636) 
34

>  <i_qp_#noncon>  (636) 
0

>  <i_qp_#ringatoms>  (636) 
24

>  <i_qp_#rotor>  (636) 
11

>  <i_qp_#rtvFG>  (636) 
0

>  <i_qp_#stars>  (636) 
0

>  <i_qp_CNS>  (636) 
-2

>  <i_qp_HumanOralAbsorption>  (636) 
3

>  <i_qp_RuleOfFive>  (636) 
0

>  <i_qp_RuleOfThree>  (636) 
0

>  <i_sd_BIOSOLVEIT.INFINISEE\_RESULT\_RANK>  (636) 
20945

>  <i_sd_version>  (636) 
0

>  <b_lp_Chiralities_Consistent>  (636) 
1

>  <b_sd_chiral_flag>  (636) 
0

>  <canonical_id>  (636) 
ATP-HTVS-63DFF8A88018

>  <compound_code>  (636) 
1537

>  <title>  (636) 
YAS_R028____OTV2128104____OTV1106784____OTV1268163____OTV1055862

>  <variant>  (636) 
1537-3

>  <source_file>  (636) 
运行/运行/ATP-VSW/ATP-VSW-DOCK_HTVS_1-001_lib/ATP-VSW-DOCK_HTVS_1-001_lib

>  <canonical_smiles>  (636) 
Cc1ccc([C@@H](O)CNc2cc(N(C)Cc3ccccc3)[nH+]c(Nc3cccc(O)c3)n2)cc1

>  <scaffold>  (636) 
c1ccc(CCNc2cc(NCc3ccccc3)[nH+]c(Nc3ccccc3)n2)cc1

>  <molecular_formula>  (636) 
C27H30N5O2+

$$$$
ATP-HTVS-63E5F33A32FB
     RDKit          3D

 58 60  0  0  0  0  0  0  0  0999 V2000
  199.0160  182.8861  151.7096 O   0  0  0  0  0  0  0  0  0  0  0  0
  198.6224  183.5554  150.5691 C   0  0  0  0  0  0  0  0  0  0  0  0
  198.3248  184.9360  150.7079 C   0  0  0  0  0  0  0  0  0  0  0  0
  198.5076  185.5112  151.9522 O   0  0  0  0  0  0  0  0  0  0  0  0
  198.4745  186.9321  152.0527 C   0  0  2  0  0  0  0  0  0  0  0  0
  197.8460  185.6597  149.5837 C   0  0  0  0  0  0  0  0  0  0  0  0
  197.6718  185.0281  148.3390 C   0  0  0  0  0  0  0  0  0  0  0  0
  197.9863  183.6657  148.2040 C   0  0  0  0  0  0  0  0  0  0  0  0
  198.4643  182.9326  149.3056 C   0  0  0  0  0  0  0  0  0  0  0  0
  199.6350  181.6037  151.6135 C   0  0  1  0  0  0  0  0  0  0  0  0
  199.5105  180.9773  152.9517 C   0  0  0  0  0  0  0  0  0  0  0  0
  198.2673  181.0147  153.5037 O   0  0  0  0  0  0  0  0  0  0  0  0
  198.3342  180.3194  154.6641 C   0  0  0  0  0  0  0  0  0  0  0  0
  199.5932  179.8270  154.8554 C   0  0  0  0  0  0  0  0  0  0  0  0
  200.3587  180.2470  153.7341 C   0  0  0  0  0  0  0  0  0  0  0  0
  197.0826  180.2642  155.4594 C   0  0  1  0  0  0  0  0  0  0  0  0
  196.8030  181.5628  156.1046 N   0  0  1  0  0  0  0  0  0  0  0  0
  197.6490  181.8573  157.2804 C   0  0  1  0  0  0  0  0  0  0  0  0
  197.2014  183.1051  158.0472 C   0  0  0  0  0  0  0  0  0  0  0  0
  196.0269  183.1320  158.8405 C   0  0  0  0  0  0  0  0  0  0  0  0
  195.7058  184.2914  159.5837 C   0  0  0  0  0  0  0  0  0  0  0  0
  196.4906  185.4561  159.4528 C   0  0  0  0  0  0  0  0  0  0  0  0
  197.6411  185.4378  158.6484 C   0  0  0  0  0  0  0  0  0  0  0  0
  198.0098  184.2682  157.9666 C   0  0  0  0  0  0  0  0  0  0  0  0
  195.0652  181.9429  158.9286 C   0  0  1  0  0  0  0  0  0  0  0  0
  193.8016  182.0716  158.1389 N   0  0  1  0  0  0  0  0  0  0  0  0
  192.9401  180.8777  158.3027 C   0  0  2  0  0  0  0  0  0  0  0  0
  193.0406  183.3178  158.3487 C   0  0  2  0  0  0  0  0  0  0  0  0
  196.8985  182.3015  155.4187 H   0  0  0  0  0  0  0  0  0  0  0  0
  198.6324  187.2295  153.0904 H   0  0  0  0  0  0  0  0  0  0  0  0
  197.5151  187.3412  151.7422 H   0  0  0  0  0  0  0  0  0  0  0  0
  199.2520  187.3925  151.4435 H   0  0  0  0  0  0  0  0  0  0  0  0
  197.5928  186.7057  149.6591 H   0  0  0  0  0  0  0  0  0  0  0  0
  197.3001  185.5756  147.4834 H   0  0  0  0  0  0  0  0  0  0  0  0
  197.8546  183.1637  147.2572 H   0  0  0  0  0  0  0  0  0  0  0  0
  198.6733  181.8865  149.1360 H   0  0  0  0  0  0  0  0  0  0  0  0
  199.1512  180.9117  150.9203 H   0  0  0  0  0  0  0  0  0  0  0  0
  200.6828  181.7188  151.3297 H   0  0  0  0  0  0  0  0  0  0  0  0
  199.9180  179.2342  155.7000 H   0  0  0  0  0  0  0  0  0  0  0  0
  201.3898  180.0235  153.5102 H   0  0  0  0  0  0  0  0  0  0  0  0
  196.2461  180.0097  154.8174 H   0  0  0  0  0  0  0  0  0  0  0  0
  197.1559  179.4529  156.1796 H   0  0  0  0  0  0  0  0  0  0  0  0
  197.6259  180.9903  157.9420 H   0  0  0  0  0  0  0  0  0  0  0  0
  198.6839  181.9711  156.9482 H   0  0  0  0  0  0  0  0  0  0  0  0
  194.8624  184.3293  160.2421 H   0  0  0  0  0  0  0  0  0  0  0  0
  196.1637  186.3676  159.9363 H   0  0  0  0  0  0  0  0  0  0  0  0
  198.2361  186.3423  158.5570 H   0  0  0  0  0  0  0  0  0  0  0  0
  198.9094  184.2702  157.3745 H   0  0  0  0  0  0  0  0  0  0  0  0
  195.5993  181.0711  158.6087 H   0  0  0  0  0  0  0  0  0  0  0  0
  194.8354  181.7419  159.9754 H   0  0  0  0  0  0  0  0  0  0  0  0
  192.5873  180.7776  159.3315 H   0  0  0  0  0  0  0  0  0  0  0  0
  193.4627  179.9427  158.0960 H   0  0  0  0  0  0  0  0  0  0  0  0
  192.0615  180.9444  157.6573 H   0  0  0  0  0  0  0  0  0  0  0  0
  192.8314  183.4783  159.4092 H   0  0  0  0  0  0  0  0  0  0  0  0
  192.0918  183.2299  157.7909 H   0  0  0  0  0  0  0  0  0  0  0  0
  193.5908  184.1793  157.9627 H   0  0  0  0  0  0  0  0  0  0  0  0
  195.8419  181.5338  156.4105 H   0  0  0  0  0  0  0  0  0  0  0  0
  193.9962  182.1299  157.1358 H   0  0  0  0  0  0  0  0  0  0  0  0
  1  2  1  0
  1 10  1  0
  2  3  1  0
  2  9  2  0
  3  4  1  0
  3  6  2  0
  4  5  1  0
  5 30  1  1
  5 31  1  0
  5 32  1  0
  6  7  1  0
  6 33  1  0
  7  8  2  0
  7 34  1  0
  8  9  1  0
  8 35  1  0
  9 36  1  0
 10 11  1  0
 10 37  1  6
 10 38  1  0
 11 12  1  0
 11 15  2  0
 12 13  1  0
 13 14  2  0
 13 16  1  0
 14 15  1  0
 14 39  1  0
 15 40  1  0
 16 17  1  0
 16 41  1  6
 16 42  1  0
 17 18  1  0
 17 29  1  6
 17 57  1  0
 18 19  1  0
 18 43  1  1
 18 44  1  0
 19 20  1  0
 19 24  2  0
 20 21  2  0
 20 25  1  0
 21 22  1  0
 21 45  1  0
 22 23  2  0
 22 46  1  0
 23 24  1  0
 23 47  1  0
 24 48  1  0
 25 26  1  0
 25 49  1  6
 25 50  1  0
 26 27  1  0
 26 28  1  0
 26 58  1  6
 27 51  1  1
 27 52  1  0
 27 53  1  0
 28 54  1  1
 28 55  1  0
 28 56  1  0
M  CHG  2  17   1  26   1
M  END
>  <s_epik_cmdline>  (637) 
J2VwaWtfcHl0aG9uJywgJy1waCcsICc3LjAwMDAwMCcsICctcGh0JywgJzIuMDAwMDAwJywgJy1tcycsICcxNicsICctdG4nLCAnOCcsICctbWEnLCAnMjAwJywgJy1pbWFlJywgJzxpbmZpbGUubWFlPicsICctb21hZScsICc8b3V0ZmlsZS5tYWU+Jw==

>  <s_epik_input>  (637) 
W2NIXTFbY0hdW2NIXVtjSF1jKE9bQ0gzXSljMU9bQ0gyXWMyb2MoW2NIXVtjSF0yKVtDSDJdW05IXVtDSDJdYzNjKFtDSDJdTihbQ0gzXSlbQ0gzXSlbY0hdW2NIXVtjSF1bY0hdMw==

>  <s_i_glide_gridfile>  (637) 
ATP-Grid

>  <s_lp_Force_Field>  (637) 
OPLS_2005

>  <s_lp_Variant>  (637) 
m_270004bbb____8353320____24720270-1

>  <s_lp_label>  (637) 
734_sdstereoexpander_1_neutralizer_1_epik_1_stereoizer_1

>  <s_m_source_file>  (637) 
ATP-VSW-LIGPREP-002-in.maegz

>  <s_sd_BIOSOLVEIT.INFINISEE\_QUERY\_NAME>  (637) 
Ref-Lig

>  <s_sd_BIOSOLVEIT.INFINISEE\_QUERY\_SMILES>  (637) 
S(c1nc2c(cc1C[NH2+]Cc3ccc(cc3)C[NH+](C)C)cccc2)Cc4ccccc4

>  <s_sd_BIOSOLVEIT.INFINISEE\_REACTION\_NAME>  (637) 
m_270004bbb

>  <s_sd_BIOSOLVEIT.INFINISEE\_REAGENT1\_SMILES>  (637) 
[R1*]NCc1c(cccc1)CN(C)C

>  <s_sd_BIOSOLVEIT.INFINISEE\_REAGENT2\_SMILES>  (637) 
[R1*]CC=1OC(=CC1)COc2c(OC)cccc2

>  <s_sd_BIOSOLVEIT.INFINISEE\_SPACE>  (637) 
REALSpace_44bn_2023-08

>  <s_vsw_compound_code>  (637) 
23458

>  <s_vsw_variant>  (637) 
23458-1

>  <r_epik_Charging_Adjusted_Penalty>  (637) 
0.20877590809186

>  <r_epik_Ionization_Penalty>  (637) 
0.1051

>  <r_epik_Ionization_Penalty_Charging>  (637) 
0.1051

>  <r_epik_Ionization_Penalty_Neutral>  (637) 
0

>  <r_epik_State_Penalty>  (637) 
0.1036

>  <r_i_docking_score>  (637) 
-4.7887657870487397

>  <r_i_glide_ecoul>  (637) 
-14.116269111633301

>  <r_i_glide_eff_state_penalty>  (637) 
0.1036

>  <r_i_glide_einternal>  (637) 
4.5388131141662598

>  <r_i_glide_emodel>  (637) 
-60.067224420791099

>  <r_i_glide_energy>  (637) 
-39.775099754333503

>  <r_i_glide_erotb>  (637) 
1.0620272489378499

>  <r_i_glide_esite>  (637) 
-0.16627022602778599

>  <r_i_glide_evdw>  (637) 
-25.658830642700199

>  <r_i_glide_gscore>  (637) 
-4.8923657870487398

>  <r_i_glide_hbond>  (637) 
-0.19171964145207299

>  <r_i_glide_ligand_efficiency>  (637) 
-0.17102734953745499

>  <r_i_glide_ligand_efficiency_ln>  (637) 
-1.10538774792399

>  <r_i_glide_ligand_efficiency_sa>  (637) 
-0.519339762917711

>  <r_i_glide_lipo>  (637) 
-1.16985695144491

>  <r_i_glide_metal>  (637) 
-0

>  <r_i_glide_rewards>  (637) 
-1.0261643181818201

>  <r_lp_Energy>  (637) 
22.457678999999999

>  <r_lp_tautomer_probability>  (637) 
1

>  <r_qp_ACxDN^.5/SA>  (637) 
0.0072420999999999996

>  <r_qp_CIQPlogS>  (637) 
-3.6739999999999999

>  <r_qp_EA(eV)>  (637) 
-0.129

>  <r_qp_FISA>  (637) 
13.459

>  <r_qp_FOSA>  (637) 
350.15100000000001

>  <r_qp_IP(eV)>  (637) 
8.7750000000000004

>  <r_qp_Jm>  (637) 
0.0114254766935032

>  <r_qp_PISA>  (637) 
395.83699999999999

>  <r_qp_PSA>  (637) 
40.576999999999998

>  <r_qp_PercentHumanOralAbsorption>  (637) 
100

>  <r_qp_QPPCaco>  (637) 
459.27499999999998

>  <r_qp_QPPMDCK>  (637) 
261.12599999999998

>  <r_qp_QPlogBB>  (637) 
0.60499999999999998

>  <r_qp_QPlogHERG>  (637) 
-8.6370000000000005

>  <r_qp_QPlogKhsa>  (637) 
0.69099999999999995

>  <r_qp_QPlogKp>  (637) 
-3.5379999999999998

>  <r_qp_QPlogPC16>  (637) 
13.797000000000001

>  <r_qp_QPlogPo/w>  (637) 
4.5839999999999996

>  <r_qp_QPlogPoct>  (637) 
18.411000000000001

>  <r_qp_QPlogPw>  (637) 
9.0069999999999997

>  <r_qp_QPlogS>  (637) 
-3.984

>  <r_qp_QPpolrz>  (637) 
44.140999999999998

>  <r_qp_SASA>  (637) 
759.447

>  <r_qp_SAamideO>  (637) 
0

>  <r_qp_SAfluorine>  (637) 
0

>  <r_qp_WPSA>  (637) 
0

>  <r_qp_accptHB>  (637) 
5.5

>  <r_qp_dip^2/V>  (637) 
0.0064117000000000002

>  <r_qp_dipole>  (637) 
2.9119999999999999

>  <r_qp_donorHB>  (637) 
1

>  <r_qp_glob>  (637) 
0.76733479999999998

>  <r_qp_mol_MW>  (637) 
380.48599999999999

>  <r_qp_volume>  (637) 
1322.7439999999999

>  <r_sd_BIOSOLVEIT.INFINISEE\_FTREES\_SIMILARITY>  (637) 
0.92700000000000005

>  <r_sd_BIOSOLVEIT.LOGP>  (637) 
1.7753000000000001

>  <r_sd_BIOSOLVEIT.MOLECULAR\_WEIGHT>  (637) 
382.50099999999998

>  <r_sd_BIOSOLVEIT.TPSA>  (637) 
52.649999999999999

>  <i_epik_Tot_Q>  (637) 
2

>  <i_epik_Tot_abs_Q>  (637) 
2

>  <i_f3d_flags>  (637) 
0

>  <i_i_glide_confnum>  (637) 
4

>  <i_i_glide_lignum>  (637) 
229

>  <i_i_glide_posenum>  (637) 
5

>  <i_i_glide_rotatable_bonds>  (637) 
10

>  <i_lp_mmshare_version>  (637) 
65135

>  <i_m_ct_format>  (637) 
2

>  <i_m_source_file_index>  (637) 
734

>  <i_qp_#NandO>  (637) 
5

>  <i_qp_#acid>  (637) 
0

>  <i_qp_#amide>  (637) 
0

>  <i_qp_#amidine>  (637) 
0

>  <i_qp_#amine>  (637) 
2

>  <i_qp_#in34>  (637) 
0

>  <i_qp_#in56>  (637) 
17

>  <i_qp_#metab>  (637) 
9

>  <i_qp_#nonHatm>  (637) 
28

>  <i_qp_#noncon>  (637) 
0

>  <i_qp_#ringatoms>  (637) 
17

>  <i_qp_#rotor>  (637) 
10

>  <i_qp_#rtvFG>  (637) 
0

>  <i_qp_#stars>  (637) 
1

>  <i_qp_CNS>  (637) 
2

>  <i_qp_HumanOralAbsorption>  (637) 
3

>  <i_qp_RuleOfFive>  (637) 
0

>  <i_qp_RuleOfThree>  (637) 
1

>  <i_sd_BIOSOLVEIT.INFINISEE\_REAGENT1\_NAME>  (637) 
8353320

>  <i_sd_BIOSOLVEIT.INFINISEE\_REAGENT2\_NAME>  (637) 
24720270

>  <i_sd_BIOSOLVEIT.INFINISEE\_RESULT\_RANK>  (637) 
6669

>  <i_sd_version>  (637) 
0

>  <b_lp_Chiralities_Consistent>  (637) 
1

>  <b_sd_chiral_flag>  (637) 
0

>  <canonical_id>  (637) 
ATP-HTVS-63E5F33A32FB

>  <compound_code>  (637) 
23458

>  <title>  (637) 
m_270004bbb____8353320____24720270

>  <variant>  (637) 
23458-1

>  <source_file>  (637) 
运行/运行/ATP-VSW/ATP-VSW-DOCK_HTVS_1-002_lib.maegz

>  <canonical_smiles>  (637) 
COc1ccccc1OCc1ccc(C[NH2+]Cc2ccccc2C[NH+](C)C)o1

>  <scaffold>  (637) 
c1ccc(C[NH2+]Cc2ccc(COc3ccccc3)o2)cc1

>  <molecular_formula>  (637) 
C23H30N2O3+2

$$$$
ATP-HTVS-64561A556005
     RDKit          3D

 62 65  0  0  0  0  0  0  0  0999 V2000
  203.0240  184.3120  158.4396 O   0  0  0  0  0  0  0  0  0  0  0  0
  201.8374  184.0009  158.3534 C   0  0  0  0  0  0  0  0  0  0  0  0
  200.7971  184.8157  158.5990 N   0  0  0  0  0  0  0  0  0  0  0  0
  200.7775  186.2103  158.8681 C   0  0  0  0  0  0  0  0  0  0  0  0
  201.8979  186.8855  159.2193 N   0  0  0  0  0  0  0  0  0  0  0  0
  201.8486  188.2043  159.4902 C   0  0  0  0  0  0  0  0  0  0  0  0
  200.6377  188.9358  159.4002 C   0  0  0  0  0  0  0  0  0  0  0  0
  199.4740  188.2542  158.9949 C   0  0  0  0  0  0  0  0  0  0  0  0
  199.5110  186.8611  158.7552 C   0  0  0  0  0  0  0  0  0  0  0  0
  198.3332  186.1692  158.3790 N   0  0  0  0  0  0  0  0  0  0  0  0
  197.1240  186.0820  159.1324 C   0  0  0  0  0  0  0  0  0  0  0  0
  196.7921  187.0408  160.1335 C   0  0  0  0  0  0  0  0  0  0  0  0
  195.6022  186.9460  160.8849 C   0  0  0  0  0  0  0  0  0  0  0  0
  194.7124  185.8810  160.6727 C   0  0  0  0  0  0  0  0  0  0  0  0
  195.0292  184.9042  159.7126 C   0  0  0  0  0  0  0  0  0  0  0  0
  196.2124  185.0076  158.9520 C   0  0  0  0  0  0  0  0  0  0  0  0
  198.3610  185.5862  157.0118 C   0  0  1  0  0  0  0  0  0  0  0  0
  197.7604  186.4763  155.9260 C   0  0  0  0  0  0  0  0  0  0  0  0
  197.9142  187.6968  155.9399 O   0  0  0  0  0  0  0  0  0  0  0  0
  197.1443  185.8424  154.9308 N   0  0  0  0  0  0  0  0  0  0  0  0
  200.5933  190.3069  159.7186 C   0  0  0  0  0  0  0  0  0  0  0  0
  201.7720  190.9754  160.1062 C   0  0  0  0  0  0  0  0  0  0  0  0
  202.9861  190.2656  160.1764 C   0  0  0  0  0  0  0  0  0  0  0  0
  203.0211  188.8936  159.8702 C   0  0  0  0  0  0  0  0  0  0  0  0
  201.4547  182.5877  158.0010 C   0  0  0  0  0  0  0  0  0  0  0  0
  200.3059  182.3025  157.2252 C   0  0  0  0  0  0  0  0  0  0  0  0
  199.9750  180.9714  156.8973 C   0  0  0  0  0  0  0  0  0  0  0  0
  200.7998  179.9114  157.3271 C   0  0  0  0  0  0  0  0  0  0  0  0
  201.9592  180.1933  158.0766 C   0  0  0  0  0  0  0  0  0  0  0  0
  202.2930  181.5213  158.3987 C   0  0  0  0  0  0  0  0  0  0  0  0
  200.4333  178.4711  157.0022 C   0  0  1  0  0  0  0  0  0  0  0  0
  201.5493  177.7422  156.3419 N   0  0  2  0  0  0  0  0  0  0  0  0
  201.8829  178.2743  155.0009 C   0  0  2  0  0  0  0  0  0  0  0  0
  201.3180  176.2830  156.3213 C   0  0  2  0  0  0  0  0  0  0  0  0
  199.8770  184.4221  158.4579 H   0  0  0  0  0  0  0  0  0  0  0  0
  198.5585  188.8210  158.8822 H   0  0  0  0  0  0  0  0  0  0  0  0
  197.4244  187.8737  160.3955 H   0  0  0  0  0  0  0  0  0  0  0  0
  195.3801  187.6951  161.6390 H   0  0  0  0  0  0  0  0  0  0  0  0
  193.8007  185.8113  161.2496 H   0  0  0  0  0  0  0  0  0  0  0  0
  194.3685  184.0663  159.5478 H   0  0  0  0  0  0  0  0  0  0  0  0
  196.3856  184.2033  158.2502 H   0  0  0  0  0  0  0  0  0  0  0  0
  199.3797  185.4465  156.6422 H   0  0  0  0  0  0  0  0  0  0  0  0
  197.9087  184.5938  156.9663 H   0  0  0  0  0  0  0  0  0  0  0  0
  197.0250  184.8438  154.9374 H   0  0  0  0  0  0  0  0  0  0  0  0
  196.7558  186.4154  154.1861 H   0  0  0  0  0  0  0  0  0  0  0  0
  199.6609  190.8487  159.6805 H   0  0  0  0  0  0  0  0  0  0  0  0
  201.7420  192.0284  160.3483 H   0  0  0  0  0  0  0  0  0  0  0  0
  203.8940  190.7746  160.4678 H   0  0  0  0  0  0  0  0  0  0  0  0
  203.9483  188.3430  159.9268 H   0  0  0  0  0  0  0  0  0  0  0  0
  199.6515  183.0858  156.8785 H   0  0  0  0  0  0  0  0  0  0  0  0
  199.0752  180.7696  156.3350 H   0  0  0  0  0  0  0  0  0  0  0  0
  202.6014  179.4000  158.4240 H   0  0  0  0  0  0  0  0  0  0  0  0
  203.1838  181.7236  158.9726 H   0  0  0  0  0  0  0  0  0  0  0  0
  200.1518  177.9814  157.9354 H   0  0  0  0  0  0  0  0  0  0  0  0
  199.5462  178.4400  156.3674 H   0  0  0  0  0  0  0  0  0  0  0  0
  201.0359  178.1900  154.3172 H   0  0  0  0  0  0  0  0  0  0  0  0
  202.7235  177.7258  154.5721 H   0  0  0  0  0  0  0  0  0  0  0  0
  202.1772  179.3241  155.0507 H   0  0  0  0  0  0  0  0  0  0  0  0
  200.4445  176.0324  155.7168 H   0  0  0  0  0  0  0  0  0  0  0  0
  201.1573  175.9012  157.3306 H   0  0  0  0  0  0  0  0  0  0  0  0
  202.1845  175.7646  155.9075 H   0  0  0  0  0  0  0  0  0  0  0  0
  202.3830  177.8820  156.9068 H   0  0  0  0  0  0  0  0  0  0  0  0
  1  2  2  0
  2  3  1  0
  2 25  1  0
  3  4  1  0
  3 35  1  0
  4  5  2  0
  4  9  1  0
  5  6  1  0
  6  7  1  0
  6 24  2  0
  7  8  1  0
  7 21  2  0
  8  9  2  0
  8 36  1  0
  9 10  1  0
 10 11  1  0
 10 17  1  0
 11 12  2  0
 11 16  1  0
 12 13  1  0
 12 37  1  0
 13 14  2  0
 13 38  1  0
 14 15  1  0
 14 39  1  0
 15 16  2  0
 15 40  1  0
 16 41  1  0
 17 18  1  0
 17 42  1  6
 17 43  1  0
 18 19  2  0
 18 20  1  0
 20 44  1  0
 20 45  1  0
 21 22  1  0
 21 46  1  0
 22 23  2  0
 22 47  1  0
 23 24  1  0
 23 48  1  0
 24 49  1  0
 25 26  1  0
 25 30  2  0
 26 27  2  0
 26 50  1  0
 27 28  1  0
 27 51  1  0
 28 29  2  0
 28 31  1  0
 29 30  1  0
 29 52  1  0
 30 53  1  0
 31 32  1  0
 31 54  1  1
 31 55  1  0
 32 33  1  0
 32 34  1  0
 32 62  1  1
 33 56  1  6
 33 57  1  0
 33 58  1  0
 34 59  1  6
 34 60  1  0
 34 61  1  0
M  CHG  1  32   1
M  END
>  <s_epik_cmdline>  (638) 
J2VwaWtfcHl0aG9uJywgJy1waCcsICc3LjAwMDAwMCcsICctcGh0JywgJzIuMDAwMDAwJywgJy1tcycsICcxNicsICctdG4nLCAnOCcsICctbWEnLCAnMjAwJywgJy1pbWFlJywgJzxpbmZpbGUubWFlPicsICctb21hZScsICc8b3V0ZmlsZS5tYWU+Jw==

>  <s_epik_input>  (638) 
W0NIM11OKFtDSDNdKVtDSDJdYyhbY0hdW2NIXTEpW2NIXVtjSF1jMUMoPU8pW05IXWMobjIpYyhbY0hdYyhjMjMpW2NIXVtjSF1bY0hdW2NIXTMpTihbQ0gyXUMoPU8pW05IMl0pYzRbY0hdW2NIXVtjSF1bY0hdW2NIXTQ=

>  <s_i_glide_gridfile>  (638) 
ATP-Grid

>  <s_lp_Force_Field>  (638) 
OPLS_2005

>  <s_lp_Variant>  (638) 
rxn502b____EMOL18624763____EMOL44466703____EMOL2871571-1

>  <s_lp_label>  (638) 
2390_sdstereoexpander_1_neutralizer_1_epik_1_stereoizer_1

>  <s_m_source_file>  (638) 
ATP-VSW-LIGPREP-001-in.maegz

>  <s_sd_BIOSOLVEIT.INFINISEE\_QUERY\_NAME>  (638) 
Ref-Lig

>  <s_sd_BIOSOLVEIT.INFINISEE\_QUERY\_SMILES>  (638) 
S(c1nc2c(cc1C[NH2+]Cc3ccc(cc3)C[NH+](C)C)cccc2)Cc4ccccc4

>  <s_sd_BIOSOLVEIT.INFINISEE\_REACTION\_NAME>  (638) 
rxn502b

>  <s_sd_BIOSOLVEIT.INFINISEE\_REAGENT1\_NAME>  (638) 
EMOL18624763

>  <s_sd_BIOSOLVEIT.INFINISEE\_REAGENT1\_SMILES>  (638) 
O=C(O)c1ccc(cc1)CN(C)C

>  <s_sd_BIOSOLVEIT.INFINISEE\_REAGENT2\_NAME>  (638) 
EMOL44466703

>  <s_sd_BIOSOLVEIT.INFINISEE\_REAGENT2\_SMILES>  (638) 
Brc1c(nc2c(c1)cccc2)N

>  <s_sd_BIOSOLVEIT.INFINISEE\_REAGENT3\_NAME>  (638) 
EMOL2871571

>  <s_sd_BIOSOLVEIT.INFINISEE\_REAGENT3\_SMILES>  (638) 
O=C(N)CNc1ccccc1

>  <s_sd_BIOSOLVEIT.INFINISEE\_SPACE>  (638) 
eXplore_7tr_2022-12

>  <s_vsw_compound_code>  (638) 
76449

>  <s_vsw_variant>  (638) 
76449-1

>  <r_epik_Charging_Adjusted_Penalty>  (638) 
0.10433640840748

>  <r_epik_Ionization_Penalty>  (638) 
0.052200000000000003

>  <r_epik_Ionization_Penalty_Charging>  (638) 
0.052200000000000003

>  <r_epik_Ionization_Penalty_Neutral>  (638) 
0

>  <r_epik_State_Penalty>  (638) 
0.052200000000000003

>  <r_i_docking_score>  (638) 
-4.7249782101476203

>  <r_i_glide_ecoul>  (638) 
-10.134972572326699

>  <r_i_glide_eff_state_penalty>  (638) 
0.052200000000000003

>  <r_i_glide_einternal>  (638) 
4.3218684196472203

>  <r_i_glide_emodel>  (638) 
-53.198406270851002

>  <r_i_glide_energy>  (638) 
-39.706870079040499

>  <r_i_glide_erotb>  (638) 
0.68038231840782104

>  <r_i_glide_esite>  (638) 
0

>  <r_i_glide_evdw>  (638) 
-29.571897506713899

>  <r_i_glide_gscore>  (638) 
-4.7771782101476203

>  <r_i_glide_hbond>  (638) 
-0.32000000000000001

>  <r_i_glide_ligand_efficiency>  (638) 
-0.13896994735728299

>  <r_i_glide_ligand_efficiency_ln>  (638) 
-1.04388021777128

>  <r_i_glide_ligand_efficiency_sa>  (638) 
-0.45020868095236499

>  <r_i_glide_lipo>  (638) 
-1.4772266534610099

>  <r_i_glide_metal>  (638) 
-0

>  <r_i_glide_rewards>  (638) 
-0.66149311390973997

>  <r_lp_Energy>  (638) 
32.123063000000002

>  <r_qp_ACxDN^.5/SA>  (638) 
0.018753499999999999

>  <r_qp_CIQPlogS>  (638) 
-4.5700000000000003

>  <r_qp_EA(eV)>  (638) 
0.91800000000000004

>  <r_qp_FISA>  (638) 
145.12899999999999

>  <r_qp_FOSA>  (638) 
211.863

>  <r_qp_IP(eV)>  (638) 
8.3010000000000002

>  <r_qp_Jm>  (638) 
0.0070080636566915303

>  <r_qp_PISA>  (638) 
428.05700000000002

>  <r_qp_PSA>  (638) 
101.09099999999999

>  <r_qp_PercentHumanOralAbsorption>  (638) 
76.519999999999996

>  <r_qp_QPPCaco>  (638) 
61.014000000000003

>  <r_qp_QPPMDCK>  (638) 
47.340000000000003

>  <r_qp_QPlogBB>  (638) 
-1.048

>  <r_qp_QPlogHERG>  (638) 
-6.2309999999999999

>  <r_qp_QPlogKhsa>  (638) 
0.20300000000000001

>  <r_qp_QPlogKp>  (638) 
-3.9809999999999999

>  <r_qp_QPlogPC16>  (638) 
16.626000000000001

>  <r_qp_QPlogPo/w>  (638) 
3.0089999999999999

>  <r_qp_QPlogPoct>  (638) 
27.215

>  <r_qp_QPlogPw>  (638) 
18.657

>  <r_qp_QPlogS>  (638) 
-3.8300000000000001

>  <r_qp_QPpolrz>  (638) 
51.545999999999999

>  <r_qp_SASA>  (638) 
785.048

>  <r_qp_SAamideO>  (638) 
29.033999999999999

>  <r_qp_SAfluorine>  (638) 
0

>  <r_qp_WPSA>  (638) 
0

>  <r_qp_accptHB>  (638) 
8.5

>  <r_qp_dip^2/V>  (638) 
0.059256900000000001

>  <r_qp_dipole>  (638) 
9.327

>  <r_qp_donorHB>  (638) 
3

>  <r_qp_glob>  (638) 
0.7956993

>  <r_qp_mol_MW>  (638) 
453.54300000000001

>  <r_qp_volume>  (638) 
1467.981

>  <r_sd_BIOSOLVEIT.INFINISEE\_FTREES\_SIMILARITY>  (638) 
0.91900000000000004

>  <r_sd_BIOSOLVEIT.LOGP>  (638) 
2.7549999999999999

>  <r_sd_BIOSOLVEIT.MOLECULAR\_WEIGHT>  (638) 
454.55099999999999

>  <r_sd_BIOSOLVEIT.TPSA>  (638) 
92.760000000000005

>  <i_epik_Tot_Q>  (638) 
1

>  <i_epik_Tot_abs_Q>  (638) 
1

>  <i_f3d_flags>  (638) 
0

>  <i_i_glide_confnum>  (638) 
7

>  <i_i_glide_lignum>  (638) 
887

>  <i_i_glide_posenum>  (638) 
4

>  <i_i_glide_rotatable_bonds>  (638) 
9

>  <i_lp_mmshare_version>  (638) 
65135

>  <i_m_ct_format>  (638) 
2

>  <i_m_source_file_index>  (638) 
2390

>  <i_qp_#NandO>  (638) 
7

>  <i_qp_#acid>  (638) 
0

>  <i_qp_#amide>  (638) 
1

>  <i_qp_#amidine>  (638) 
0

>  <i_qp_#amine>  (638) 
1

>  <i_qp_#in34>  (638) 
0

>  <i_qp_#in56>  (638) 
22

>  <i_qp_#metab>  (638) 
6

>  <i_qp_#nonHatm>  (638) 
34

>  <i_qp_#noncon>  (638) 
0

>  <i_qp_#ringatoms>  (638) 
22

>  <i_qp_#rotor>  (638) 
8

>  <i_qp_#rtvFG>  (638) 
0

>  <i_qp_#stars>  (638) 
0

>  <i_qp_CNS>  (638) 
-2

>  <i_qp_HumanOralAbsorption>  (638) 
3

>  <i_qp_RuleOfFive>  (638) 
0

>  <i_qp_RuleOfThree>  (638) 
0

>  <i_sd_BIOSOLVEIT.INFINISEE\_RESULT\_RANK>  (638) 
19359

>  <i_sd_version>  (638) 
0

>  <b_lp_Chiralities_Consistent>  (638) 
1

>  <b_sd_chiral_flag>  (638) 
0

>  <canonical_id>  (638) 
ATP-HTVS-64561A556005

>  <compound_code>  (638) 
76449

>  <title>  (638) 
rxn502b____EMOL18624763____EMOL44466703____EMOL2871571

>  <variant>  (638) 
76449-1

>  <source_file>  (638) 
运行/运行/ATP-VSW/ATP-VSW-DOCK_HTVS_1-001_lib/ATP-VSW-DOCK_HTVS_1-001_lib

>  <canonical_smiles>  (638) 
C[NH+](C)Cc1ccc(C(=O)Nc2nc3ccccc3cc2N(CC(N)=O)c2ccccc2)cc1

>  <scaffold>  (638) 
O=C(Nc1nc2ccccc2cc1Nc1ccccc1)c1ccccc1

>  <molecular_formula>  (638) 
C27H28N5O2+

$$$$
ATP-HTVS-6480B695D089
     RDKit          3D

 62 65  0  0  0  0  0  0  0  0999 V2000
  202.7117  183.6684  160.4252 Cl  0  0  0  0  0  0  0  0  0  0  0  0
  202.5006  182.4789  159.1975 C   0  0  0  0  0  0  0  0  0  0  0  0
  201.2787  182.4056  158.5090 C   0  0  0  0  0  0  0  0  0  0  0  0
  201.0682  181.4418  157.4884 C   0  0  0  0  0  0  0  0  0  0  0  0
  199.8606  181.3544  156.7694 N   0  0  0  0  0  0  0  0  0  0  0  0
  198.6497  181.8939  156.9535 C   0  0  0  0  0  0  0  0  0  0  0  0
  198.2307  182.6938  157.9392 N   0  0  0  0  0  0  0  0  0  0  0  0
  196.9098  183.0037  157.7486 C   0  0  0  0  0  0  0  0  0  0  0  0
  196.1413  183.8837  158.6390 C   0  0  0  0  0  0  0  0  0  0  0  0
  194.7553  183.6860  158.8178 C   0  0  0  0  0  0  0  0  0  0  0  0
  194.0184  184.5196  159.6771 C   0  0  0  0  0  0  0  0  0  0  0  0
  194.6549  185.5796  160.3509 C   0  0  0  0  0  0  0  0  0  0  0  0
  193.7398  186.6328  161.3711 Cl  0  0  0  0  0  0  0  0  0  0  0  0
  196.0327  185.7957  160.1738 C   0  0  0  0  0  0  0  0  0  0  0  0
  196.7693  184.9455  159.3287 C   0  0  0  0  0  0  0  0  0  0  0  0
  196.4904  182.3586  156.6127 C   0  0  0  0  0  0  0  0  0  0  0  0
  197.6033  181.7128  156.1441 N   0  0  0  0  0  0  0  0  0  0  0  0
  197.6728  180.9633  154.9673 N   0  0  0  0  0  0  0  0  0  0  0  0
  197.1902  181.4568  153.9005 C   0  0  0  0  0  0  0  0  0  0  0  0
  197.1945  180.8025  152.5807 C   0  0  0  0  0  0  0  0  0  0  0  0
  196.8987  181.5690  151.4355 C   0  0  0  0  0  0  0  0  0  0  0  0
  196.9507  180.9879  150.1558 C   0  0  0  0  0  0  0  0  0  0  0  0
  197.2606  179.6223  150.0106 C   0  0  0  0  0  0  0  0  0  0  0  0
  197.5468  178.8459  151.1492 C   0  0  0  0  0  0  0  0  0  0  0  0
  197.5116  179.4334  152.4299 C   0  0  0  0  0  0  0  0  0  0  0  0
  202.1200  180.5388  157.1777 C   0  0  0  0  0  0  0  0  0  0  0  0
  203.3535  180.6383  157.8674 C   0  0  0  0  0  0  0  0  0  0  0  0
  203.5475  181.6060  158.8721 C   0  0  0  0  0  0  0  0  0  0  0  0
  201.9571  179.4392  156.1119 C   0  0  1  0  0  0  0  0  0  0  0  0
  200.8742  178.4545  156.4597 N   0  0  2  0  0  0  0  0  0  0  0  0
  201.0089  177.8706  157.8171 C   0  0  2  0  0  0  0  0  0  0  0  0
  200.6843  177.3782  155.4564 C   0  0  2  0  0  0  0  0  0  0  0  0
  201.8413  180.0407  154.6778 C   0  0  1  0  0  0  0  0  0  0  0  0
  203.0514  180.7497  154.3054 N   0  0  0  0  0  0  0  0  0  0  0  0
  203.8339  180.1113  154.2577 H   0  0  0  0  0  0  0  0  0  0  0  0
  202.9467  181.1359  153.3774 H   0  0  0  0  0  0  0  0  0  0  0  0
  200.5277  183.1242  158.7824 H   0  0  0  0  0  0  0  0  0  0  0  0
  199.9294  180.7812  155.9435 H   0  0  0  0  0  0  0  0  0  0  0  0
  194.2466  182.9055  158.2722 H   0  0  0  0  0  0  0  0  0  0  0  0
  192.9514  184.3759  159.7627 H   0  0  0  0  0  0  0  0  0  0  0  0
  196.5142  186.6204  160.6835 H   0  0  0  0  0  0  0  0  0  0  0  0
  197.8222  185.1346  159.2007 H   0  0  0  0  0  0  0  0  0  0  0  0
  195.5529  182.3294  156.1142 H   0  0  0  0  0  0  0  0  0  0  0  0
  196.7495  182.4596  153.9053 H   0  0  0  0  0  0  0  0  0  0  0  0
  196.6641  182.6201  151.5282 H   0  0  0  0  0  0  0  0  0  0  0  0
  196.7637  181.6026  149.2904 H   0  0  0  0  0  0  0  0  0  0  0  0
  197.2866  179.1751  149.0272 H   0  0  0  0  0  0  0  0  0  0  0  0
  197.7970  177.8009  151.0405 H   0  0  0  0  0  0  0  0  0  0  0  0
  197.7324  178.8274  153.2964 H   0  0  0  0  0  0  0  0  0  0  0  0
  204.1688  179.9738  157.6336 H   0  0  0  0  0  0  0  0  0  0  0  0
  204.4964  181.6792  159.3819 H   0  0  0  0  0  0  0  0  0  0  0  0
  202.8791  178.8710  156.1244 H   0  0  0  0  0  0  0  0  0  0  0  0
  201.9446  177.3222  157.9180 H   0  0  0  0  0  0  0  0  0  0  0  0
  200.1827  177.1914  158.0319 H   0  0  0  0  0  0  0  0  0  0  0  0
  200.9861  178.6379  158.5883 H   0  0  0  0  0  0  0  0  0  0  0  0
  201.6163  176.8386  155.2784 H   0  0  0  0  0  0  0  0  0  0  0  0
  200.3154  177.7632  154.5071 H   0  0  0  0  0  0  0  0  0  0  0  0
  199.9383  176.6590  155.7959 H   0  0  0  0  0  0  0  0  0  0  0  0
  201.7033  179.2731  153.9187 H   0  0  0  0  0  0  0  0  0  0  0  0
  200.9983  180.7259  154.5824 H   0  0  0  0  0  0  0  0  0  0  0  0
  200.0048  178.9675  156.5010 H   0  0  0  0  0  0  0  0  0  0  0  0
  198.7795  183.0032  158.7259 H   0  0  0  0  0  0  0  0  0  0  0  0
  1  2  1  0
  2  3  2  0
  2 28  1  0
  3  4  1  0
  3 37  1  0
  4  5  1  0
  4 26  2  0
  5  6  1  0
  5 38  1  0
  6  7  2  0
  6 17  1  0
  7  8  1  0
  7 62  1  0
  8  9  1  0
  8 16  2  0
  9 10  1  0
  9 15  2  0
 10 11  2  0
 10 39  1  0
 11 12  1  0
 11 40  1  0
 12 13  1  0
 12 14  2  0
 14 15  1  0
 14 41  1  0
 15 42  1  0
 16 17  1  0
 16 43  1  0
 17 18  1  0
 18 19  2  0
 19 20  1  0
 19 44  1  0
 20 21  2  0
 20 25  1  0
 21 22  1  0
 21 45  1  0
 22 23  2  0
 22 46  1  0
 23 24  1  0
 23 47  1  0
 24 25  2  0
 24 48  1  0
 25 49  1  0
 26 27  1  0
 26 29  1  0
 27 28  2  0
 27 50  1  0
 28 51  1  0
 29 30  1  0
 29 33  1  0
 29 52  1  6
 30 31  1  0
 30 32  1  0
 30 61  1  1
 31 53  1  6
 31 54  1  0
 31 55  1  0
 32 56  1  6
 32 57  1  0
 32 58  1  0
 33 34  1  0
 33 59  1  6
 33 60  1  0
 34 35  1  0
 34 36  1  0
M  CHG  2   7   1  30   1
M  END
>  <s_epik_Chemistry_Notes>  (639) 
This compound has an imine and may undergo hydrolysis.

>  <s_epik_cmdline>  (639) 
J2VwaWtfcHl0aG9uJywgJy1waCcsICc3LjAwMDAwMCcsICctcGh0JywgJzIuMDAwMDAwJywgJy1tcycsICcxNicsICctdG4nLCAnOCcsICctbWEnLCAnMjAwJywgJy1pbWFlJywgJzxpbmZpbGUubWFlPicsICctb21hZScsICc8b3V0ZmlsZS5tYWU+Jw==

>  <s_epik_input>  (639) 
W0NIM11OKFtDSDNdKVtDQEBIXShbQ0gyXVtOSDJdKWMoW2NIXVtjSF0xKWMoW2NIXWMxQ2wpW05IXWMybmMoLWMzW2NIXVtjSF1jKENsKVtjSF1bY0hdMylbY0hdbjIvTj1bQ0hdL2M0W2NIXVtjSF1bY0hdW2NIXVtjSF00

>  <s_i_glide_gridfile>  (639) 
ATP-Grid

>  <s_lp_Force_Field>  (639) 
OPLS_2005

>  <s_lp_Variant>  (639) 
rxn102c____EMOL331057570____EMOL27484968-5

>  <s_lp_label>  (639) 
2335_sdstereoexpander_1_neutralizer_1_epik_3_stereoizer_1

>  <s_m_source_file>  (639) 
ATP-VSW-LIGPREP-001-in.maegz

>  <s_sd_BIOSOLVEIT.INFINISEE\_QUERY\_NAME>  (639) 
Ref-Lig

>  <s_sd_BIOSOLVEIT.INFINISEE\_QUERY\_SMILES>  (639) 
S(c1nc2c(cc1C[NH2+]Cc3ccc(cc3)C[NH+](C)C)cccc2)Cc4ccccc4

>  <s_sd_BIOSOLVEIT.INFINISEE\_REACTION\_NAME>  (639) 
rxn102c

>  <s_sd_BIOSOLVEIT.INFINISEE\_REAGENT1\_NAME>  (639) 
EMOL331057570

>  <s_sd_BIOSOLVEIT.INFINISEE\_REAGENT1\_SMILES>  (639) 
Clc1c(ccc(Cl)c1)C(N(C)C)CN

>  <s_sd_BIOSOLVEIT.INFINISEE\_REAGENT2\_NAME>  (639) 
EMOL27484968

>  <s_sd_BIOSOLVEIT.INFINISEE\_REAGENT2\_SMILES>  (639) 
Clc1ccc(cc1)C=2N=C(N(N=Cc3ccccc3)C2)N

>  <s_sd_BIOSOLVEIT.INFINISEE\_SPACE>  (639) 
eXplore_7tr_2022-12

>  <s_vsw_compound_code>  (639) 
74689

>  <s_vsw_variant>  (639) 
74689-5

>  <r_epik_Charging_Adjusted_Penalty>  (639) 
2.4144274572587201

>  <r_epik_Ionization_Penalty>  (639) 
0.65039999999999998

>  <r_epik_Ionization_Penalty_Charging>  (639) 
0.13780000000000001

>  <r_epik_Ionization_Penalty_Neutral>  (639) 
0.51259999999999994

>  <r_epik_State_Penalty>  (639) 
2.2766999999999999

>  <r_i_docking_score>  (639) 
-2.45925339690874

>  <r_i_glide_ecoul>  (639) 
-7.5257549285888699

>  <r_i_glide_eff_state_penalty>  (639) 
2.2766999999999999

>  <r_i_glide_einternal>  (639) 
4.5809979438781703

>  <r_i_glide_emodel>  (639) 
-62.221345875875599

>  <r_i_glide_energy>  (639) 
-43.617174148559599

>  <r_i_glide_erotb>  (639) 
0.49828571102055602

>  <r_i_glide_esite>  (639) 
-0.113174513525141

>  <r_i_glide_evdw>  (639) 
-36.091419219970703

>  <r_i_glide_gscore>  (639) 
-4.73595339690874

>  <r_i_glide_hbond>  (639) 
0

>  <r_i_glide_ligand_efficiency>  (639) 
-0.072330982262021601

>  <r_i_glide_ligand_efficiency_ln>  (639) 
-0.54331805509842401

>  <r_i_glide_ligand_efficiency_sa>  (639) 
-0.2343243034586

>  <r_i_glide_lipo>  (639) 
-1.9315812122991001

>  <r_i_glide_metal>  (639) 
-0

>  <r_i_glide_rewards>  (639) 
-0.25604918181818098

>  <r_lp_Energy>  (639) 
45.804490999999999

>  <r_qp_ACxDN^.5/SA>  (639) 
0.0143292

>  <r_qp_CIQPlogS>  (639) 
-5.7610000000000001

>  <r_qp_EA(eV)>  (639) 
1.2989999999999999

>  <r_qp_FISA>  (639) 
72.241

>  <r_qp_FOSA>  (639) 
126.765

>  <r_qp_IP(eV)>  (639) 
7.9379999999999997

>  <r_qp_Jm>  (639) 
0.00032439516383706398

>  <r_qp_PISA>  (639) 
445.73700000000002

>  <r_qp_PSA>  (639) 
60.746000000000002

>  <r_qp_PercentHumanOralAbsorption>  (639) 
93.658000000000001

>  <r_qp_QPPCaco>  (639) 
127.244

>  <r_qp_QPPMDCK>  (639) 
385.85700000000003

>  <r_qp_QPlogBB>  (639) 
0.40300000000000002

>  <r_qp_QPlogHERG>  (639) 
-8.4160000000000004

>  <r_qp_QPlogKhsa>  (639) 
0.83099999999999996

>  <r_qp_QPlogKp>  (639) 
-4.5419999999999998

>  <r_qp_QPlogPC16>  (639) 
17.247

>  <r_qp_QPlogPo/w>  (639) 
4.96

>  <r_qp_QPlogPoct>  (639) 
27.114000000000001

>  <r_qp_QPlogPw>  (639) 
13.994

>  <r_qp_QPlogS>  (639) 
-4.6399999999999997

>  <r_qp_QPpolrz>  (639) 
51.146000000000001

>  <r_qp_SASA>  (639) 
785.68899999999996

>  <r_qp_SAamideO>  (639) 
0

>  <r_qp_SAfluorine>  (639) 
0

>  <r_qp_WPSA>  (639) 
140.94499999999999

>  <r_qp_accptHB>  (639) 
6.5

>  <r_qp_dip^2/V>  (639) 
0.1165002

>  <r_qp_dipole>  (639) 
13.086

>  <r_qp_donorHB>  (639) 
3

>  <r_qp_glob>  (639) 
0.79571559999999997

>  <r_qp_mol_MW>  (639) 
493.43799999999999

>  <r_qp_volume>  (639) 
1469.8240000000001

>  <r_sd_BIOSOLVEIT.INFINISEE\_FTREES\_SIMILARITY>  (639) 
0.92100000000000004

>  <r_sd_BIOSOLVEIT.LOGP>  (639) 
3.9102000000000001

>  <r_sd_BIOSOLVEIT.MOLECULAR\_WEIGHT>  (639) 
495.45499999999998

>  <r_sd_BIOSOLVEIT.TPSA>  (639) 
74.290000000000006

>  <i_epik_Tot_Q>  (639) 
2

>  <i_epik_Tot_abs_Q>  (639) 
2

>  <i_f3d_flags>  (639) 
0

>  <i_i_glide_confnum>  (639) 
3

>  <i_i_glide_lignum>  (639) 
841

>  <i_i_glide_posenum>  (639) 
8

>  <i_i_glide_rotatable_bonds>  (639) 
8

>  <i_lp_mmshare_version>  (639) 
65135

>  <i_m_ct_format>  (639) 
2

>  <i_m_source_file_index>  (639) 
2335

>  <i_qp_#NandO>  (639) 
6

>  <i_qp_#acid>  (639) 
0

>  <i_qp_#amide>  (639) 
0

>  <i_qp_#amidine>  (639) 
0

>  <i_qp_#amine>  (639) 
2

>  <i_qp_#in34>  (639) 
0

>  <i_qp_#in56>  (639) 
23

>  <i_qp_#metab>  (639) 
6

>  <i_qp_#nonHatm>  (639) 
34

>  <i_qp_#noncon>  (639) 
0

>  <i_qp_#ringatoms>  (639) 
23

>  <i_qp_#rotor>  (639) 
9

>  <i_qp_#rtvFG>  (639) 
0

>  <i_qp_#stars>  (639) 
1

>  <i_qp_CNS>  (639) 
1

>  <i_qp_HumanOralAbsorption>  (639) 
3

>  <i_qp_RuleOfFive>  (639) 
0

>  <i_qp_RuleOfThree>  (639) 
0

>  <i_sd_BIOSOLVEIT.INFINISEE\_RESULT\_RANK>  (639) 
14554

>  <i_sd_version>  (639) 
0

>  <b_lp_Chiralities_Consistent>  (639) 
1

>  <b_sd_chiral_flag>  (639) 
0

>  <canonical_id>  (639) 
ATP-HTVS-6480B695D089

>  <compound_code>  (639) 
74689

>  <title>  (639) 
rxn102c____EMOL331057570____EMOL27484968

>  <variant>  (639) 
74689-5

>  <source_file>  (639) 
运行/运行/ATP-VSW/ATP-VSW-DOCK_HTVS_1-001_lib/ATP-VSW-DOCK_HTVS_1-001_lib

>  <canonical_smiles>  (639) 
C[NH+](C)[C@@H](CN)c1ccc(Cl)cc1Nc1[nH+]c(-c2ccc(Cl)cc2)cn1/N=C/c1ccccc1

>  <scaffold>  (639) 
C(=Nn1cc(-c2ccccc2)[nH+]c1Nc1ccccc1)c1ccccc1

>  <molecular_formula>  (639) 
C26H28Cl2N6+2

$$$$
ATP-HTVS-64A2B9E187D2
     RDKit          3D

 61 64  0  0  0  0  0  0  0  0999 V2000
  202.1867  181.2598  146.4927 Cl  0  0  0  0  0  0  0  0  0  0  0  0
  200.7508  181.9884  147.1245 C   0  0  0  0  0  0  0  0  0  0  0  0
  200.0103  181.2975  148.0966 C   0  0  0  0  0  0  0  0  0  0  0  0
  198.8302  181.8490  148.6574 C   0  0  0  0  0  0  0  0  0  0  0  0
  198.4147  183.1382  148.2105 C   0  0  0  0  0  0  0  0  0  0  0  0
  197.2421  183.7685  148.7099 N   0  0  0  0  0  0  0  0  0  0  0  0
  196.8134  183.7576  149.9840 C   0  0  0  0  0  0  0  0  0  0  0  0
  195.7345  184.2391  150.2937 O   0  0  0  0  0  0  0  0  0  0  0  0
  197.7222  183.1310  151.0555 C   0  0  1  0  0  0  0  0  0  0  0  0
  197.8985  181.6458  151.0091 N   0  0  0  0  0  0  0  0  0  0  0  0
  197.9639  181.0621  149.6589 C   0  0  2  0  0  0  0  0  0  0  0  0
  198.4157  179.5998  149.7225 C   0  0  0  0  0  0  0  0  0  0  0  0
  197.8051  178.6005  148.9130 C   0  0  0  0  0  0  0  0  0  0  0  0
  196.7775  178.9346  148.0906 F   0  0  0  0  0  0  0  0  0  0  0  0
  198.2662  177.2659  148.9532 C   0  0  0  0  0  0  0  0  0  0  0  0
  199.3364  176.9119  149.7959 C   0  0  0  0  0  0  0  0  0  0  0  0
  199.9566  177.8958  150.5957 C   0  0  0  0  0  0  0  0  0  0  0  0
  199.4939  179.2236  150.5527 C   0  0  0  0  0  0  0  0  0  0  0  0
  196.8793  180.9725  151.8332 C   0  0  1  0  0  0  0  0  0  0  0  0
  197.3564  180.7128  153.2541 C   0  0  0  0  0  0  0  0  0  0  0  0
  197.2780  181.7274  154.2308 C   0  0  0  0  0  0  0  0  0  0  0  0
  197.6693  181.4756  155.5594 C   0  0  0  0  0  0  0  0  0  0  0  0
  197.5828  182.5206  156.4472 O   0  0  0  0  0  0  0  0  0  0  0  0
  196.9788  182.2318  157.7033 C   0  0  1  0  0  0  0  0  0  0  0  0
  196.0274  183.3857  158.0719 C   0  0  1  0  0  0  0  0  0  0  0  0
  194.9668  183.0343  159.0517 N   0  0  1  0  0  0  0  0  0  0  0  0
  194.1536  184.2117  159.4240 C   0  0  2  0  0  0  0  0  0  0  0  0
  194.0968  181.9209  158.6118 C   0  0  2  0  0  0  0  0  0  0  0  0
  198.1305  180.1861  155.9145 C   0  0  0  0  0  0  0  0  0  0  0  0
  198.2313  179.1783  154.9393 C   0  0  0  0  0  0  0  0  0  0  0  0
  197.8628  179.4433  153.6069 C   0  0  0  0  0  0  0  0  0  0  0  0
  199.1513  183.8145  147.2089 C   0  0  0  0  0  0  0  0  0  0  0  0
  200.3220  183.2481  146.6716 C   0  0  0  0  0  0  0  0  0  0  0  0
  200.3980  180.3279  148.3660 H   0  0  0  0  0  0  0  0  0  0  0  0
  196.6952  184.3160  148.0623 H   0  0  0  0  0  0  0  0  0  0  0  0
  198.7049  183.5936  150.9742 H   0  0  0  0  0  0  0  0  0  0  0  0
  197.3595  183.4528  152.0397 H   0  0  0  0  0  0  0  0  0  0  0  0
  196.9510  181.0703  149.2751 H   0  0  0  0  0  0  0  0  0  0  0  0
  197.7995  176.5198  148.3227 H   0  0  0  0  0  0  0  0  0  0  0  0
  199.6994  175.9003  149.8226 H   0  0  0  0  0  0  0  0  0  0  0  0
  200.7994  177.6466  151.2265 H   0  0  0  0  0  0  0  0  0  0  0  0
  199.9772  179.9812  151.1527 H   0  0  0  0  0  0  0  0  0  0  0  0
  195.9481  181.5452  151.8436 H   0  0  0  0  0  0  0  0  0  0  0  0
  196.5797  180.0011  151.4413 H   0  0  0  0  0  0  0  0  0  0  0  0
  196.8734  182.6984  153.9800 H   0  0  0  0  0  0  0  0  0  0  0  0
  196.4295  181.2799  157.6471 H   0  0  0  0  0  0  0  0  0  0  0  0
  197.7650  182.1208  158.4572 H   0  0  0  0  0  0  0  0  0  0  0  0
  196.6149  184.2164  158.4512 H   0  0  0  0  0  0  0  0  0  0  0  0
  195.5540  183.7602  157.1687 H   0  0  0  0  0  0  0  0  0  0  0  0
  193.6329  184.6251  158.5599 H   0  0  0  0  0  0  0  0  0  0  0  0
  194.7503  185.0015  159.8800 H   0  0  0  0  0  0  0  0  0  0  0  0
  193.3834  183.9294  160.1346 H   0  0  0  0  0  0  0  0  0  0  0  0
  193.5443  182.1871  157.7206 H   0  0  0  0  0  0  0  0  0  0  0  0
  193.3316  181.6416  159.3240 H   0  0  0  0  0  0  0  0  0  0  0  0
  194.7109  181.0461  158.4067 H   0  0  0  0  0  0  0  0  0  0  0  0
  198.3950  179.9598  156.9354 H   0  0  0  0  0  0  0  0  0  0  0  0
  198.5755  178.1961  155.2189 H   0  0  0  0  0  0  0  0  0  0  0  0
  197.9366  178.6586  152.8690 H   0  0  0  0  0  0  0  0  0  0  0  0
  198.8281  184.7844  146.8603 H   0  0  0  0  0  0  0  0  0  0  0  0
  200.8967  183.7643  145.9206 H   0  0  0  0  0  0  0  0  0  0  0  0
  195.4433  182.7195  159.8841 H   0  0  0  0  0  0  0  0  0  0  0  0
  1  2  1  0
  2  3  2  0
  2 33  1  0
  3  4  1  0
  3 34  1  0
  4  5  2  0
  4 11  1  0
  5  6  1  0
  5 32  1  0
  6  7  1  0
  6 35  1  0
  7  8  2  0
  7  9  1  0
  9 10  1  0
  9 36  1  6
  9 37  1  0
 10 11  1  0
 10 19  1  0
 11 12  1  0
 11 38  1  6
 12 13  1  0
 12 18  2  0
 13 14  1  0
 13 15  2  0
 15 16  1  0
 15 39  1  0
 16 17  2  0
 16 40  1  0
 17 18  1  0
 17 41  1  0
 18 42  1  0
 19 20  1  0
 19 43  1  1
 19 44  1  0
 20 21  1  0
 20 31  2  0
 21 22  2  0
 21 45  1  0
 22 23  1  0
 22 29  1  0
 23 24  1  0
 24 25  1  0
 24 46  1  6
 24 47  1  0
 25 26  1  0
 25 48  1  1
 25 49  1  0
 26 27  1  0
 26 28  1  0
 26 61  1  1
 27 50  1  6
 27 51  1  0
 27 52  1  0
 28 53  1  6
 28 54  1  0
 28 55  1  0
 29 30  2  0
 29 56  1  0
 30 31  1  0
 30 57  1  0
 31 58  1  0
 32 33  2  0
 32 59  1  0
 33 60  1  0
M  CHG  1  26   1
M  END
>  <s_epik_cmdline>  (640) 
J2VwaWtfcHl0aG9uJywgJy1waCcsICc3LjAwMDAwMCcsICctcGh0JywgJzIuMDAwMDAwJywgJy1tcycsICcxNicsICctdG4nLCAnOCcsICctbWEnLCAnMjAwJywgJy1pbWFlJywgJzxpbmZpbGUubWFlPicsICctb21hZScsICc8b3V0ZmlsZS5tYWU+Jw==

>  <s_epik_input>  (640) 
Q2xjKFtjSF0xKVtjSF1bY0hdYyhjMTIpW05IXUMoPU8pW0NIMl1OKFtDQEBIXTJjM2MoRilbY0hdW2NIXVtjSF1bY0hdMylbQ0gyXWM0W2NIXWMoW2NIXVtjSF1bY0hdNClPW0NIMl1bQ0gyXU4oW0NIM10pW0NIM10=

>  <s_i_glide_gridfile>  (640) 
ATP-Grid

>  <s_lp_Force_Field>  (640) 
OPLS_2005

>  <s_lp_Variant>  (640) 
m_270004bda____24171218____24720380-2

>  <s_lp_label>  (640) 
990_sdstereoexpander_3_neutralizer_1_epik_1_stereoizer_1

>  <s_m_source_file>  (640) 
ATP-VSW-LIGPREP-003-in.maegz

>  <s_sd_BIOSOLVEIT.INFINISEE\_QUERY\_NAME>  (640) 
Ref-Lig

>  <s_sd_BIOSOLVEIT.INFINISEE\_QUERY\_SMILES>  (640) 
S(c1nc2c(cc1C[NH2+]Cc3ccc(cc3)C[NH+](C)C)cccc2)Cc4ccccc4

>  <s_sd_BIOSOLVEIT.INFINISEE\_REACTION\_NAME>  (640) 
m_270004bda

>  <s_sd_BIOSOLVEIT.INFINISEE\_REAGENT1\_SMILES>  (640) 
[R1*]N1C(c2c(F)cccc2)c3c(NC(=O)C1)ccc(Cl)c3

>  <s_sd_BIOSOLVEIT.INFINISEE\_REAGENT2\_SMILES>  (640) 
[R1*]Cc1cc(OCCN(C)C)ccc1

>  <s_sd_BIOSOLVEIT.INFINISEE\_SPACE>  (640) 
REALSpace_44bn_2023-08

>  <s_vsw_compound_code>  (640) 
31651

>  <s_vsw_variant>  (640) 
31651-2

>  <r_epik_Charging_Adjusted_Penalty>  (640) 
0.057010874531307099

>  <r_epik_Ionization_Penalty>  (640) 
0.032199999999999999

>  <r_epik_Ionization_Penalty_Charging>  (640) 
0.024799999999999999

>  <r_epik_Ionization_Penalty_Neutral>  (640) 
0.0074000000000000003

>  <r_epik_State_Penalty>  (640) 
0.032199999999999999

>  <r_i_docking_score>  (640) 
-2.18765448061502

>  <r_i_glide_ecoul>  (640) 
-8.7938919067382795

>  <r_i_glide_eff_state_penalty>  (640) 
0.032199999999999999

>  <r_i_glide_einternal>  (640) 
6.9345993995666504

>  <r_i_glide_emodel>  (640) 
-42.656192574330298

>  <r_i_glide_energy>  (640) 
-38.831113815307603

>  <r_i_glide_erotb>  (640) 
0.55091173246375202

>  <r_i_glide_esite>  (640) 
0

>  <r_i_glide_evdw>  (640) 
-30.0372219085693

>  <r_i_glide_gscore>  (640) 
-2.21985448061502

>  <r_i_glide_hbond>  (640) 
-0.223267233137252

>  <r_i_glide_ligand_efficiency>  (640) 
-0.066292560018636995

>  <r_i_glide_ligand_efficiency_ln>  (640) 
-0.48652302942009201

>  <r_i_glide_ligand_efficiency_sa>  (640) 
-0.21263566183526

>  <r_i_glide_lipo>  (640) 
-0.86341852877473402

>  <r_i_glide_metal>  (640) 
-0

>  <r_i_glide_rewards>  (640) 
1.13686443027242

>  <r_lp_Energy>  (640) 
49.331916999999997

>  <r_lp_tautomer_probability>  (640) 
1

>  <r_qp_ACxDN^.5/SA>  (640) 
0.0095096999999999994

>  <r_qp_CIQPlogS>  (640) 
-4.6760000000000002

>  <r_qp_EA(eV)>  (640) 
0.53800000000000003

>  <r_qp_FISA>  (640) 
60.189999999999998

>  <r_qp_FOSA>  (640) 
277.84800000000001

>  <r_qp_IP(eV)>  (640) 
8.968

>  <r_qp_Jm>  (640) 
0.00024371421863153699

>  <r_qp_PISA>  (640) 
348.36399999999998

>  <r_qp_PSA>  (640) 
52.280000000000001

>  <r_qp_PercentHumanOralAbsorption>  (640) 
92.385000000000005

>  <r_qp_QPPCaco>  (640) 
165.54400000000001

>  <r_qp_QPPMDCK>  (640) 
225.96899999999999

>  <r_qp_QPlogBB>  (640) 
0.56200000000000006

>  <r_qp_QPlogHERG>  (640) 
-7.8440000000000003

>  <r_qp_QPlogKhsa>  (640) 
0.78100000000000003

>  <r_qp_QPlogKp>  (640) 
-4.9509999999999996

>  <r_qp_QPlogPC16>  (640) 
14.904

>  <r_qp_QPlogPo/w>  (640) 
4.3940000000000001

>  <r_qp_QPlogPoct>  (640) 
22.443999999999999

>  <r_qp_QPlogPw>  (640) 
11.641999999999999

>  <r_qp_QPlogS>  (640) 
-4.3330000000000002

>  <r_qp_QPpolrz>  (640) 
50.247

>  <r_qp_SASA>  (640) 
762.38

>  <r_qp_SAamideO>  (640) 
0

>  <r_qp_SAfluorine>  (640) 
14.762

>  <r_qp_WPSA>  (640) 
75.977000000000004

>  <r_qp_accptHB>  (640) 
7.25

>  <r_qp_dip^2/V>  (640) 
0.012519300000000001

>  <r_qp_dipole>  (640) 
4.2199999999999998

>  <r_qp_donorHB>  (640) 
1

>  <r_qp_glob>  (640) 
0.80232749999999997

>  <r_qp_mol_MW>  (640) 
467.97000000000003

>  <r_qp_volume>  (640) 
1422.45

>  <r_sd_BIOSOLVEIT.INFINISEE\_FTREES\_SIMILARITY>  (640) 
0.91600000000000004

>  <r_sd_BIOSOLVEIT.LOGP>  (640) 
2.129

>  <r_sd_BIOSOLVEIT.MOLECULAR\_WEIGHT>  (640) 
469.98500000000001

>  <r_sd_BIOSOLVEIT.TPSA>  (640) 
47.210000000000001

>  <i_epik_Tot_Q>  (640) 
1

>  <i_epik_Tot_abs_Q>  (640) 
1

>  <i_f3d_flags>  (640) 
0

>  <i_i_glide_confnum>  (640) 
5

>  <i_i_glide_lignum>  (640) 
369

>  <i_i_glide_posenum>  (640) 
5

>  <i_i_glide_rotatable_bonds>  (640) 
7

>  <i_lp_mmshare_version>  (640) 
65135

>  <i_m_ct_format>  (640) 
2

>  <i_m_source_file_index>  (640) 
990

>  <i_qp_#NandO>  (640) 
5

>  <i_qp_#acid>  (640) 
0

>  <i_qp_#amide>  (640) 
0

>  <i_qp_#amidine>  (640) 
0

>  <i_qp_#amine>  (640) 
2

>  <i_qp_#in34>  (640) 
0

>  <i_qp_#in56>  (640) 
18

>  <i_qp_#metab>  (640) 
8

>  <i_qp_#nonHatm>  (640) 
33

>  <i_qp_#noncon>  (640) 
2

>  <i_qp_#ringatoms>  (640) 
23

>  <i_qp_#rotor>  (640) 
6

>  <i_qp_#rtvFG>  (640) 
0

>  <i_qp_#stars>  (640) 
0

>  <i_qp_CNS>  (640) 
2

>  <i_qp_HumanOralAbsorption>  (640) 
3

>  <i_qp_RuleOfFive>  (640) 
0

>  <i_qp_RuleOfThree>  (640) 
1

>  <i_sd_BIOSOLVEIT.INFINISEE\_REAGENT1\_NAME>  (640) 
24171218

>  <i_sd_BIOSOLVEIT.INFINISEE\_REAGENT2\_NAME>  (640) 
24720380

>  <i_sd_BIOSOLVEIT.INFINISEE\_RESULT\_RANK>  (640) 
25273

>  <i_sd_version>  (640) 
0

>  <b_lp_Chiralities_Consistent>  (640) 
1

>  <b_sd_chiral_flag>  (640) 
0

>  <canonical_id>  (640) 
ATP-HTVS-64A2B9E187D2

>  <compound_code>  (640) 
31651

>  <title>  (640) 
m_270004bda____24171218____24720380

>  <variant>  (640) 
31651-2

>  <source_file>  (640) 
运行/运行/ATP-VSW/ATP-VSW-DOCK_HTVS_1-003_lib/ATP-VSW-DOCK_HTVS_1-003_lib.mae

>  <canonical_smiles>  (640) 
C[NH+](C)CCOc1cccc(CN2CC(=O)Nc3ccc(Cl)cc3[C@H]2c2ccccc2F)c1

>  <scaffold>  (640) 
O=C1CN(Cc2ccccc2)C(c2ccccc2)c2ccccc2N1

>  <molecular_formula>  (640) 
C26H28ClFN3O2+

$$$$
ATP-HTVS-64F4A1A461ED
     RDKit          3D

 65 68  0  0  0  0  0  0  0  0999 V2000
  197.8252  183.3871  153.3755 O   0  0  0  0  0  0  0  0  0  0  0  0
  197.3926  182.6991  154.4739 N   0  0  0  0  0  0  0  0  0  0  0  0
  197.5061  183.1186  155.7472 C   0  0  0  0  0  0  0  0  0  0  0  0
  197.0057  182.1344  156.5024 N   0  0  0  0  0  0  0  0  0  0  0  0
  196.6205  181.0867  155.7177 C   0  0  0  0  0  0  0  0  0  0  0  0
  196.8664  181.4424  154.4243 C   0  0  0  0  0  0  0  0  0  0  0  0
  198.1426  184.4009  156.2150 C   0  0  2  0  0  0  0  0  0  0  0  0
  199.5623  184.2764  156.5411 N   0  0  0  0  0  0  0  0  0  0  0  0
  200.3851  183.7594  155.4475 C   0  0  1  0  0  0  0  0  0  0  0  0
  201.0438  182.4351  155.7776 C   0  0  0  0  0  0  0  0  0  0  0  0
  200.3304  181.4134  156.4566 C   0  0  0  0  0  0  0  0  0  0  0  0
  200.9384  180.1784  156.7624 C   0  0  0  0  0  0  0  0  0  0  0  0
  202.2925  179.9849  156.4338 C   0  0  0  0  0  0  0  0  0  0  0  0
  203.0019  180.9845  155.7313 C   0  0  0  0  0  0  0  0  0  0  0  0
  202.3798  182.2090  155.3907 C   0  0  0  0  0  0  0  0  0  0  0  0
  200.1450  179.0520  157.4280 C   0  0  1  0  0  0  0  0  0  0  0  0
  199.9458  177.8510  156.5785 N   0  0  2  0  0  0  0  0  0  0  0  0
  201.1738  177.0298  156.4004 C   0  0  2  0  0  0  0  0  0  0  0  0
  199.2991  178.1491  155.2874 C   0  0  2  0  0  0  0  0  0  0  0  0
  197.4116  184.9670  157.3646 C   0  0  0  0  0  0  0  0  0  0  0  0
  196.7713  185.3931  158.3138 C   0  0  0  0  0  0  0  0  0  0  0  0
  195.9865  185.9190  159.4139 C   0  0  0  0  0  0  0  0  0  0  0  0
  194.7889  185.2952  159.8130 C   0  0  0  0  0  0  0  0  0  0  0  0
  194.0560  185.8835  160.8609 C   0  0  0  0  0  0  0  0  0  0  0  0
  194.4499  186.9925  161.5196 N   0  0  0  0  0  0  0  0  0  0  0  0
  195.6008  187.5798  161.1255 C   0  0  0  0  0  0  0  0  0  0  0  0
  196.4036  187.0828  160.0837 C   0  0  0  0  0  0  0  0  0  0  0  0
  196.7393  183.9308  152.6480 C   0  0  1  0  0  0  0  0  0  0  0  0
  197.1799  184.4441  151.2970 C   0  0  0  0  0  0  0  0  0  0  0  0
  198.2616  185.3448  151.1929 C   0  0  0  0  0  0  0  0  0  0  0  0
  198.6524  185.8293  149.9296 C   0  0  0  0  0  0  0  0  0  0  0  0
  197.9640  185.4151  148.7725 C   0  0  0  0  0  0  0  0  0  0  0  0
  196.8844  184.5191  148.8767 C   0  0  0  0  0  0  0  0  0  0  0  0
  196.4937  184.0334  150.1381 C   0  0  0  0  0  0  0  0  0  0  0  0
  199.9211  185.1886  156.7853 H   0  0  0  0  0  0  0  0  0  0  0  0
  196.2295  180.1641  156.1386 H   0  0  0  0  0  0  0  0  0  0  0  0
  196.7438  180.9080  153.4972 H   0  0  0  0  0  0  0  0  0  0  0  0
  198.0373  185.1223  155.4039 H   0  0  0  0  0  0  0  0  0  0  0  0
  199.8122  183.6157  154.5333 H   0  0  0  0  0  0  0  0  0  0  0  0
  201.1482  184.5016  155.1821 H   0  0  0  0  0  0  0  0  0  0  0  0
  199.3051  181.5542  156.7683 H   0  0  0  0  0  0  0  0  0  0  0  0
  202.7463  179.0493  156.7022 H   0  0  0  0  0  0  0  0  0  0  0  0
  204.0303  180.8116  155.4308 H   0  0  0  0  0  0  0  0  0  0  0  0
  202.9291  182.9808  154.8573 H   0  0  0  0  0  0  0  0  0  0  0  0
  200.6289  178.7715  158.3660 H   0  0  0  0  0  0  0  0  0  0  0  0
  199.1628  179.4273  157.7029 H   0  0  0  0  0  0  0  0  0  0  0  0
  201.9378  177.5637  155.8553 H   0  0  0  0  0  0  0  0  0  0  0  0
  200.9367  176.0896  155.8826 H   0  0  0  0  0  0  0  0  0  0  0  0
  201.5873  176.7546  157.3685 H   0  0  0  0  0  0  0  0  0  0  0  0
  199.9186  178.8016  154.6702 H   0  0  0  0  0  0  0  0  0  0  0  0
  198.3330  178.6353  155.4336 H   0  0  0  0  0  0  0  0  0  0  0  0
  199.1338  177.2334  154.7216 H   0  0  0  0  0  0  0  0  0  0  0  0
  194.4167  184.4108  159.3151 H   0  0  0  0  0  0  0  0  0  0  0  0
  193.1217  185.4464  161.1794 H   0  0  0  0  0  0  0  0  0  0  0  0
  195.8948  188.4708  161.6598 H   0  0  0  0  0  0  0  0  0  0  0  0
  197.3152  187.5919  159.8051 H   0  0  0  0  0  0  0  0  0  0  0  0
  195.9736  183.1702  152.4919 H   0  0  0  0  0  0  0  0  0  0  0  0
  196.2832  184.7382  153.2238 H   0  0  0  0  0  0  0  0  0  0  0  0
  198.7883  185.6675  152.0784 H   0  0  0  0  0  0  0  0  0  0  0  0
  199.4780  186.5222  149.8470 H   0  0  0  0  0  0  0  0  0  0  0  0
  198.2633  185.7840  147.8028 H   0  0  0  0  0  0  0  0  0  0  0  0
  196.3515  184.2097  147.9888 H   0  0  0  0  0  0  0  0  0  0  0  0
  195.6617  183.3472  150.2108 H   0  0  0  0  0  0  0  0  0  0  0  0
  199.2672  177.3073  157.0993 H   0  0  0  0  0  0  0  0  0  0  0  0
  196.9853  182.1249  157.5181 H   0  0  0  0  0  0  0  0  0  0  0  0
  1  2  1  0
  1 28  1  0
  2  3  1  0
  2  6  1  0
  3  4  2  0
  3  7  1  0
  4  5  1  0
  4 65  1  0
  5  6  2  0
  5 36  1  0
  6 37  1  0
  7  8  1  0
  7 20  1  0
  7 38  1  6
  8  9  1  0
  8 35  1  0
  9 10  1  0
  9 39  1  6
  9 40  1  0
 10 11  2  0
 10 15  1  0
 11 12  1  0
 11 41  1  0
 12 13  2  0
 12 16  1  0
 13 14  1  0
 13 42  1  0
 14 15  2  0
 14 43  1  0
 15 44  1  0
 16 17  1  0
 16 45  1  1
 16 46  1  0
 17 18  1  0
 17 19  1  0
 17 64  1  1
 18 47  1  6
 18 48  1  0
 18 49  1  0
 19 50  1  6
 19 51  1  0
 19 52  1  0
 20 21  3  0
 21 22  1  0
 22 23  2  0
 22 27  1  0
 23 24  1  0
 23 53  1  0
 24 25  2  0
 24 54  1  0
 25 26  1  0
 26 27  2  0
 26 55  1  0
 27 56  1  0
 28 29  1  0
 28 57  1  6
 28 58  1  0
 29 30  2  0
 29 34  1  0
 30 31  1  0
 30 59  1  0
 31 32  2  0
 31 60  1  0
 32 33  1  0
 32 61  1  0
 33 34  2  0
 33 62  1  0
 34 63  1  0
M  CHG  2   4   1  17   1
M  END
>  <s_epik_cmdline>  (641) 
J2VwaWtfcHl0aG9uJywgJy1waCcsICc3LjAwMDAwMCcsICctcGh0JywgJzIuMDAwMDAwJywgJy1tcycsICcxNicsICctdG4nLCAnOCcsICctbWEnLCAnMjAwJywgJy1pbWFlJywgJzxpbmZpbGUubWFlPicsICctb21hZScsICc8b3V0ZmlsZS5tYWU+Jw==

>  <s_epik_input>  (641) 
W2NIXTFbY0hdW2NIXVtjSF1bY0hdYzFbQ0gyXU9uMmMobltjSF1bY0hdMilbQ0BIXShbTkhdW0NIMl1jM1tjSF1jKFtjSF1bY0hdW2NIXTMpW0NIMl1OKFtDSDNdKVtDSDNdKUMjQ2M0W2NIXVtjSF1uW2NIXVtjSF00

>  <s_i_glide_gridfile>  (641) 
ATP-Grid

>  <s_lp_Force_Field>  (641) 
OPLS_2005

>  <s_lp_Variant>  (641) 
rxn403____EMOL2873214____EMOL4867949____EMOL517880-1

>  <s_lp_label>  (641) 
2377_sdstereoexpander_1_neutralizer_1_epik_1_stereoizer_1

>  <s_m_source_file>  (641) 
ATP-VSW-LIGPREP-003-in.maegz

>  <s_sd_BIOSOLVEIT.INFINISEE\_QUERY\_NAME>  (641) 
Ref-Lig

>  <s_sd_BIOSOLVEIT.INFINISEE\_QUERY\_SMILES>  (641) 
S(c1nc2c(cc1C[NH2+]Cc3ccc(cc3)C[NH+](C)C)cccc2)Cc4ccccc4

>  <s_sd_BIOSOLVEIT.INFINISEE\_REACTION\_NAME>  (641) 
rxn403

>  <s_sd_BIOSOLVEIT.INFINISEE\_REAGENT1\_NAME>  (641) 
EMOL2873214

>  <s_sd_BIOSOLVEIT.INFINISEE\_REAGENT1\_SMILES>  (641) 
N(Cc1cc(ccc1)CN)(C)C

>  <s_sd_BIOSOLVEIT.INFINISEE\_REAGENT2\_NAME>  (641) 
EMOL4867949

>  <s_sd_BIOSOLVEIT.INFINISEE\_REAGENT2\_SMILES>  (641) 
O=CC1=NC=CN1OCc2ccccc2

>  <s_sd_BIOSOLVEIT.INFINISEE\_REAGENT3\_NAME>  (641) 
EMOL517880

>  <s_sd_BIOSOLVEIT.INFINISEE\_REAGENT3\_SMILES>  (641) 
n1ccc(C#C)cc1

>  <s_sd_BIOSOLVEIT.INFINISEE\_SPACE>  (641) 
eXplore_7tr_2022-12

>  <s_vsw_compound_code>  (641) 
76035

>  <s_vsw_variant>  (641) 
76035-1

>  <r_epik_Charging_Adjusted_Penalty>  (641) 
0.47074744690284598

>  <r_epik_Ionization_Penalty>  (641) 
0.44550000000000001

>  <r_epik_Ionization_Penalty_Charging>  (641) 
0.045400000000000003

>  <r_epik_Ionization_Penalty_Neutral>  (641) 
0.40010000000000001

>  <r_epik_State_Penalty>  (641) 
0.42530000000000001

>  <r_i_docking_score>  (641) 
-5.2879042934320903

>  <r_i_glide_ecoul>  (641) 
-14.1843662261963

>  <r_i_glide_eff_state_penalty>  (641) 
0.42530000000000001

>  <r_i_glide_einternal>  (641) 
5.6126475334167498

>  <r_i_glide_emodel>  (641) 
-71.724176778223807

>  <r_i_glide_energy>  (641) 
-47.426233291625998

>  <r_i_glide_erotb>  (641) 
0.87816611409644896

>  <r_i_glide_esite>  (641) 
-0.18115803160969901

>  <r_i_glide_evdw>  (641) 
-33.241867065429702

>  <r_i_glide_gscore>  (641) 
-5.7132042934320904

>  <r_i_glide_hbond>  (641) 
-0.10615016973652899

>  <r_i_glide_ligand_efficiency>  (641) 
-0.15552659686565001

>  <r_i_glide_ligand_efficiency_ln>  (641) 
-1.1682463791106199

>  <r_i_glide_ligand_efficiency_sa>  (641) 
-0.50384579802623697

>  <r_i_glide_lipo>  (641) 
-1.97280464625411

>  <r_i_glide_metal>  (641) 
-0

>  <r_i_glide_rewards>  (641) 
-0.54150927272727101

>  <r_lp_Energy>  (641) 
18.340160999999998

>  <r_lp_tautomer_probability>  (641) 
1

>  <r_qp_ACxDN^.5/SA>  (641) 
0.0098697000000000003

>  <r_qp_CIQPlogS>  (641) 
-4.1769999999999996

>  <r_qp_EA(eV)>  (641) 
0.57599999999999996

>  <r_qp_FISA>  (641) 
66.515000000000001

>  <r_qp_FOSA>  (641) 
224.512

>  <r_qp_IP(eV)>  (641) 
9.0030000000000001

>  <r_qp_Jm>  (641) 
0.0015815655984066899

>  <r_qp_PISA>  (641) 
590.45699999999999

>  <r_qp_PSA>  (641) 
54.603999999999999

>  <r_qp_PercentHumanOralAbsorption>  (641) 
92.537999999999997

>  <r_qp_QPPCaco>  (641) 
144.191

>  <r_qp_QPPMDCK>  (641) 
74.649000000000001

>  <r_qp_QPlogBB>  (641) 
-0.111

>  <r_qp_QPlogHERG>  (641) 
-9.9990000000000006

>  <r_qp_QPlogKhsa>  (641) 
0.61899999999999999

>  <r_qp_QPlogKp>  (641) 
-3.734

>  <r_qp_QPlogPC16>  (641) 
18.103999999999999

>  <r_qp_QPlogPo/w>  (641) 
4.6029999999999998

>  <r_qp_QPlogPoct>  (641) 
24.567

>  <r_qp_QPlogPw>  (641) 
13.917

>  <r_qp_QPlogS>  (641) 
-4.7210000000000001

>  <r_qp_QPpolrz>  (641) 
55.174999999999997

>  <r_qp_SASA>  (641) 
881.48400000000004

>  <r_qp_SAamideO>  (641) 
0

>  <r_qp_SAfluorine>  (641) 
0

>  <r_qp_WPSA>  (641) 
0

>  <r_qp_accptHB>  (641) 
8.6999999999999993

>  <r_qp_dip^2/V>  (641) 
0.013434

>  <r_qp_dipole>  (641) 
4.5899999999999999

>  <r_qp_donorHB>  (641) 
1

>  <r_qp_glob>  (641) 
0.74049390000000004

>  <r_qp_mol_MW>  (641) 
451.56999999999999

>  <r_qp_volume>  (641) 
1568.037

>  <r_sd_BIOSOLVEIT.INFINISEE\_FTREES\_SIMILARITY>  (641) 
0.91900000000000004

>  <r_sd_BIOSOLVEIT.LOGP>  (641) 
1.4077999999999999

>  <r_sd_BIOSOLVEIT.MOLECULAR\_WEIGHT>  (641) 
453.58699999999999

>  <r_sd_BIOSOLVEIT.TPSA>  (641) 
60.990000000000002

>  <i_epik_Tot_Q>  (641) 
2

>  <i_epik_Tot_abs_Q>  (641) 
2

>  <i_f3d_flags>  (641) 
0

>  <i_i_glide_confnum>  (641) 
12

>  <i_i_glide_lignum>  (641) 
997

>  <i_i_glide_posenum>  (641) 
20

>  <i_i_glide_rotatable_bonds>  (641) 
11

>  <i_lp_mmshare_version>  (641) 
65135

>  <i_m_ct_format>  (641) 
2

>  <i_m_source_file_index>  (641) 
2377

>  <i_qp_#NandO>  (641) 
6

>  <i_qp_#acid>  (641) 
0

>  <i_qp_#amide>  (641) 
0

>  <i_qp_#amidine>  (641) 
0

>  <i_qp_#amine>  (641) 
2

>  <i_qp_#in34>  (641) 
0

>  <i_qp_#in56>  (641) 
23

>  <i_qp_#metab>  (641) 
8

>  <i_qp_#nonHatm>  (641) 
34

>  <i_qp_#noncon>  (641) 
0

>  <i_qp_#ringatoms>  (641) 
23

>  <i_qp_#rotor>  (641) 
11

>  <i_qp_#rtvFG>  (641) 
1

>  <i_qp_#stars>  (641) 
3

>  <i_qp_CNS>  (641) 
1

>  <i_qp_HumanOralAbsorption>  (641) 
3

>  <i_qp_RuleOfFive>  (641) 
0

>  <i_qp_RuleOfThree>  (641) 
1

>  <i_sd_BIOSOLVEIT.INFINISEE\_RESULT\_RANK>  (641) 
18222

>  <i_sd_version>  (641) 
0

>  <b_lp_Chiralities_Consistent>  (641) 
1

>  <b_sd_chiral_flag>  (641) 
0

>  <canonical_id>  (641) 
ATP-HTVS-64F4A1A461ED

>  <compound_code>  (641) 
76035

>  <title>  (641) 
rxn403____EMOL2873214____EMOL4867949____EMOL517880

>  <variant>  (641) 
76035-1

>  <source_file>  (641) 
运行/运行/ATP-VSW/ATP-VSW-DOCK_HTVS_1-003_lib/ATP-VSW-DOCK_HTVS_1-003_lib.mae

>  <canonical_smiles>  (641) 
C[NH+](C)Cc1cccc(CN[C@H](C#Cc2ccncc2)c2[nH+]ccn2OCc2ccccc2)c1

>  <scaffold>  (641) 
C(#CC(NCc1ccccc1)c1[nH+]ccn1OCc1ccccc1)c1ccncc1

>  <molecular_formula>  (641) 
C28H31N5O+2

$$$$
ATP-HTVS-651F2B2980F4
     RDKit          3D

 60 63  0  0  0  0  0  0  0  0999 V2000
  196.5589  179.4533  151.8921 S   0  0  0  0  0  0  0  0  0  0  0  0
  197.5522  180.4324  152.9537 C   0  0  0  0  0  0  0  0  0  0  0  0
  198.8627  180.0275  152.9028 C   0  0  0  0  0  0  0  0  0  0  0  0
  199.0874  178.9461  151.9985 C   0  0  0  0  0  0  0  0  0  0  0  0
  197.9481  178.5428  151.3597 C   0  0  0  0  0  0  0  0  0  0  0  0
  196.9538  181.5163  153.8083 C   0  0  2  0  0  0  0  0  0  0  0  0
  197.5721  182.8577  153.4861 C   0  0  0  0  0  0  0  0  0  0  0  0
  197.4260  183.5949  152.2470 C   0  0  0  0  0  0  0  0  0  0  0  0
  198.1248  184.8307  152.3802 C   0  0  0  0  0  0  0  0  0  0  0  0
  198.6599  184.8222  153.6522 N   0  0  0  0  0  0  0  0  0  0  0  0
  198.3582  183.6420  154.3012 C   0  0  0  0  0  0  0  0  0  0  0  0
  198.1911  185.7765  151.3451 C   0  0  0  0  0  0  0  0  0  0  0  0
  197.5504  185.5104  150.1234 C   0  0  0  0  0  0  0  0  0  0  0  0
  196.8381  184.3072  149.9571 C   0  0  0  0  0  0  0  0  0  0  0  0
  196.7753  183.3617  151.0053 C   0  0  0  0  0  0  0  0  0  0  0  0
  196.9642  181.1443  155.3153 C   0  0  1  0  0  0  0  0  0  0  0  0
  196.3444  182.2011  156.1399 N   0  0  1  0  0  0  0  0  0  0  0  0
  196.4221  181.9887  157.5966 C   0  0  1  0  0  0  0  0  0  0  0  0
  196.2220  183.2831  158.3602 C   0  0  0  0  0  0  0  0  0  0  0  0
  197.2787  184.2118  158.4372 C   0  0  0  0  0  0  0  0  0  0  0  0
  197.1244  185.4272  159.1418 C   0  0  0  0  0  0  0  0  0  0  0  0
  195.9023  185.6818  159.8022 C   0  0  0  0  0  0  0  0  0  0  0  0
  194.8421  184.7518  159.7307 C   0  0  0  0  0  0  0  0  0  0  0  0
  194.9980  183.5561  159.0086 C   0  0  0  0  0  0  0  0  0  0  0  0
  198.2474  186.4679  159.1840 C   0  0  2  0  0  0  0  0  0  0  0  0
  198.1813  187.4309  158.0423 N   0  0  1  0  0  0  0  0  0  0  0  0
  198.2211  186.8121  156.6912 C   0  0  2  0  0  0  0  0  0  0  0  0
  197.0732  188.4070  158.1596 C   0  0  2  0  0  0  0  0  0  0  0  0
  199.6505  185.8396  159.3300 C   0  0  2  0  0  0  0  0  0  0  0  0
  196.7788  183.0740  155.8945 H   0  0  0  0  0  0  0  0  0  0  0  0
  199.6601  180.4677  153.4811 H   0  0  0  0  0  0  0  0  0  0  0  0
  200.0652  178.5076  151.8562 H   0  0  0  0  0  0  0  0  0  0  0  0
  197.8456  177.7498  150.6347 H   0  0  0  0  0  0  0  0  0  0  0  0
  195.9090  181.6015  153.5363 H   0  0  0  0  0  0  0  0  0  0  0  0
  199.2244  185.5564  154.0485 H   0  0  0  0  0  0  0  0  0  0  0  0
  198.7362  183.4641  155.2981 H   0  0  0  0  0  0  0  0  0  0  0  0
  198.7330  186.6967  151.4878 H   0  0  0  0  0  0  0  0  0  0  0  0
  197.6003  186.2305  149.3210 H   0  0  0  0  0  0  0  0  0  0  0  0
  196.3489  184.1108  149.0149 H   0  0  0  0  0  0  0  0  0  0  0  0
  196.2353  182.4376  150.8578 H   0  0  0  0  0  0  0  0  0  0  0  0
  196.4406  180.2009  155.4850 H   0  0  0  0  0  0  0  0  0  0  0  0
  197.9914  180.9838  155.6408 H   0  0  0  0  0  0  0  0  0  0  0  0
  195.6664  181.2724  157.9043 H   0  0  0  0  0  0  0  0  0  0  0  0
  197.3977  181.5733  157.8607 H   0  0  0  0  0  0  0  0  0  0  0  0
  198.2036  183.9763  157.9316 H   0  0  0  0  0  0  0  0  0  0  0  0
  195.7524  186.6002  160.3533 H   0  0  0  0  0  0  0  0  0  0  0  0
  193.8989  184.9665  160.2175 H   0  0  0  0  0  0  0  0  0  0  0  0
  194.1787  182.8502  158.9474 H   0  0  0  0  0  0  0  0  0  0  0  0
  198.0947  187.0528  160.0958 H   0  0  0  0  0  0  0  0  0  0  0  0
  197.3640  186.1640  156.5102 H   0  0  0  0  0  0  0  0  0  0  0  0
  199.1271  186.2282  156.5575 H   0  0  0  0  0  0  0  0  0  0  0  0
  198.2090  187.5694  155.9080 H   0  0  0  0  0  0  0  0  0  0  0  0
  196.0984  187.9126  158.1867 H   0  0  0  0  0  0  0  0  0  0  0  0
  197.0708  189.0892  157.3064 H   0  0  0  0  0  0  0  0  0  0  0  0
  197.1794  189.0153  159.0618 H   0  0  0  0  0  0  0  0  0  0  0  0
  199.6582  185.1189  160.1449 H   0  0  0  0  0  0  0  0  0  0  0  0
  200.4049  186.5903  159.5512 H   0  0  0  0  0  0  0  0  0  0  0  0
  199.9784  185.2976  158.4411 H   0  0  0  0  0  0  0  0  0  0  0  0
  199.0182  187.9894  158.1250 H   0  0  0  0  0  0  0  0  0  0  0  0
  195.3577  182.2752  155.8991 H   0  0  0  0  0  0  0  0  0  0  0  0
  1  2  1  0
  1  5  1  0
  2  3  2  0
  2  6  1  0
  3  4  1  0
  3 31  1  0
  4  5  2  0
  4 32  1  0
  5 33  1  0
  6  7  1  0
  6 16  1  0
  6 34  1  6
  7  8  1  0
  7 11  2  0
  8  9  1  0
  8 15  2  0
  9 10  1  0
  9 12  2  0
 10 11  1  0
 10 35  1  0
 11 36  1  0
 12 13  1  0
 12 37  1  0
 13 14  2  0
 13 38  1  0
 14 15  1  0
 14 39  1  0
 15 40  1  0
 16 17  1  0
 16 41  1  6
 16 42  1  0
 17 18  1  0
 17 30  1  1
 17 60  1  0
 18 19  1  0
 18 43  1  1
 18 44  1  0
 19 20  2  0
 19 24  1  0
 20 21  1  0
 20 45  1  0
 21 22  2  0
 21 25  1  0
 22 23  1  0
 22 46  1  0
 23 24  2  0
 23 47  1  0
 24 48  1  0
 25 26  1  0
 25 29  1  0
 25 49  1  1
 26 27  1  0
 26 28  1  0
 26 59  1  6
 27 50  1  6
 27 51  1  0
 27 52  1  0
 28 53  1  1
 28 54  1  0
 28 55  1  0
 29 56  1  1
 29 57  1  0
 29 58  1  0
M  CHG  2  17   1  26   1
M  END
>  <s_epik_cmdline>  (642) 
J2VwaWtfcHl0aG9uJywgJy1waCcsICc3LjAwMDAwMCcsICctcGh0JywgJzIuMDAwMDAwJywgJy1tcycsICcxNicsICctdG4nLCAnOCcsICctbWEnLCAnMjAwJywgJy1pbWFlJywgJzxpbmZpbGUubWFlPicsICctb21hZScsICc8b3V0ZmlsZS5tYWU+Jw==

>  <s_epik_input>  (642) 
W2NIXTFbY0hdW2NIXVtjSF1jKGMxMilbbkhdW2NIXWMyW0NAQEhdKGMzc1tjSF1bY0hdW2NIXTMpW0NIMl1bTkhdW0NIMl1jNFtjSF1jKFtjSF1bY0hdW2NIXTQpW0NAQEhdKFtDSDNdKU4oW0NIM10pW0NIM10=

>  <s_i_glide_gridfile>  (642) 
ATP-Grid

>  <s_lp_Force_Field>  (642) 
OPLS_2005

>  <s_lp_Variant>  (642) 
a4____269397____430368-1

>  <s_lp_label>  (642) 
498_sdstereoexpander_1_neutralizer_1_epik_1_stereoizer_1

>  <s_m_source_file>  (642) 
ATP-VSW-LIGPREP-002-in.maegz

>  <s_sd_BIOSOLVEIT.INFINISEE\_QUERY\_NAME>  (642) 
Ref-Lig

>  <s_sd_BIOSOLVEIT.INFINISEE\_QUERY\_SMILES>  (642) 
S(c1nc2c(cc1C[NH2+]Cc3ccc(cc3)C[NH+](C)C)cccc2)Cc4ccccc4

>  <s_sd_BIOSOLVEIT.INFINISEE\_REACTION\_NAME>  (642) 
a4

>  <s_sd_BIOSOLVEIT.INFINISEE\_REAGENT1\_SMILES>  (642) 
[R1*]NCC(C=1SC=CC1)C=2c3c(NC2)cccc3

>  <s_sd_BIOSOLVEIT.INFINISEE\_REAGENT2\_SMILES>  (642) 
[R1*]Cc1cc(ccc1)C(N(C)C)C

>  <s_sd_BIOSOLVEIT.INFINISEE\_SPACE>  (642) 
FreedomSpace_5bn_2023-06

>  <s_vsw_compound_code>  (642) 
15906

>  <s_vsw_variant>  (642) 
15906-1

>  <r_epik_Charging_Adjusted_Penalty>  (642) 
0.25470631676194599

>  <r_epik_Ionization_Penalty>  (642) 
0.128

>  <r_epik_Ionization_Penalty_Charging>  (642) 
0.128

>  <r_epik_Ionization_Penalty_Neutral>  (642) 
0

>  <r_epik_State_Penalty>  (642) 
0.12670000000000001

>  <r_i_docking_score>  (642) 
-5.4777248891074297

>  <r_i_glide_ecoul>  (642) 
-10.469331741333001

>  <r_i_glide_eff_state_penalty>  (642) 
0.12670000000000001

>  <r_i_glide_einternal>  (642) 
3.4938876628875701

>  <r_i_glide_emodel>  (642) 
-67.488873668524406

>  <r_i_glide_energy>  (642) 
-44.9671115875244

>  <r_i_glide_erotb>  (642) 
0.83629522000691103

>  <r_i_glide_esite>  (642) 
-0.087759835097691696

>  <r_i_glide_evdw>  (642) 
-34.497779846191399

>  <r_i_glide_gscore>  (642) 
-5.6044248891074302

>  <r_i_glide_hbond>  (642) 
-0.20000000000000001

>  <r_i_glide_ligand_efficiency>  (642) 
-0.188887065141636

>  <r_i_glide_ligand_efficiency_ln>  (642) 
-1.2542600964873001

>  <r_i_glide_ligand_efficiency_sa>  (642) 
-0.58032090773769496

>  <r_i_glide_lipo>  (642) 
-2.21403338414349

>  <r_i_glide_metal>  (642) 
-0

>  <r_i_glide_rewards>  (642) 
-0.64363813636363498

>  <r_lp_Energy>  (642) 
17.333449000000002

>  <r_qp_ACxDN^.5/SA>  (642) 
0.0073039000000000003

>  <r_qp_CIQPlogS>  (642) 
-5.0119999999999996

>  <r_qp_EA(eV)>  (642) 
0.106

>  <r_qp_FISA>  (642) 
45.631999999999998

>  <r_qp_FOSA>  (642) 
227.81999999999999

>  <r_qp_IP(eV)>  (642) 
8.3550000000000004

>  <r_qp_Jm>  (642) 
0.0065653853516808901

>  <r_qp_PISA>  (642) 
393.73399999999998

>  <r_qp_PSA>  (642) 
30.814

>  <r_qp_PercentHumanOralAbsorption>  (642) 
100

>  <r_qp_QPPCaco>  (642) 
227.49600000000001

>  <r_qp_QPPMDCK>  (642) 
139.511

>  <r_qp_QPlogBB>  (642) 
0.48299999999999998

>  <r_qp_QPlogHERG>  (642) 
-7.2880000000000003

>  <r_qp_QPlogKhsa>  (642) 
1.0629999999999999

>  <r_qp_QPlogKp>  (642) 
-4.3310000000000004

>  <r_qp_QPlogPC16>  (642) 
13.894

>  <r_qp_QPlogPo/w>  (642) 
4.9279999999999999

>  <r_qp_QPlogPoct>  (642) 
19.597999999999999

>  <r_qp_QPlogPw>  (642) 
8.9540000000000006

>  <r_qp_QPlogS>  (642) 
-3.4580000000000002

>  <r_qp_QPpolrz>  (642) 
44.500999999999998

>  <r_qp_SASA>  (642) 
677.68799999999999

>  <r_qp_SAamideO>  (642) 
0

>  <r_qp_SAfluorine>  (642) 
0

>  <r_qp_WPSA>  (642) 
10.503

>  <r_qp_accptHB>  (642) 
3.5

>  <r_qp_dip^2/V>  (642) 
0.010399

>  <r_qp_dipole>  (642) 
3.677

>  <r_qp_donorHB>  (642) 
2

>  <r_qp_glob>  (642) 
0.85008010000000001

>  <r_qp_mol_MW>  (642) 
403.584

>  <r_qp_volume>  (642) 
1300.1310000000001

>  <r_sd_BIOSOLVEIT.INFINISEE\_FTREES\_SIMILARITY>  (642) 
0.90400000000000003

>  <r_sd_BIOSOLVEIT.LOGP>  (642) 
3.3304

>  <r_sd_BIOSOLVEIT.MOLECULAR\_WEIGHT>  (642) 
405.60599999999999

>  <r_sd_BIOSOLVEIT.TPSA>  (642) 
36.840000000000003

>  <i_epik_Tot_Q>  (642) 
2

>  <i_epik_Tot_abs_Q>  (642) 
2

>  <i_f3d_flags>  (642) 
0

>  <i_i_glide_confnum>  (642) 
2

>  <i_i_glide_lignum>  (642) 
155

>  <i_i_glide_posenum>  (642) 
9

>  <i_i_glide_rotatable_bonds>  (642) 
8

>  <i_lp_mmshare_version>  (642) 
65135

>  <i_m_ct_format>  (642) 
2

>  <i_m_source_file_index>  (642) 
498

>  <i_qp_#NandO>  (642) 
3

>  <i_qp_#acid>  (642) 
0

>  <i_qp_#amide>  (642) 
0

>  <i_qp_#amidine>  (642) 
0

>  <i_qp_#amine>  (642) 
2

>  <i_qp_#in34>  (642) 
0

>  <i_qp_#in56>  (642) 
20

>  <i_qp_#metab>  (642) 
7

>  <i_qp_#nonHatm>  (642) 
29

>  <i_qp_#noncon>  (642) 
0

>  <i_qp_#ringatoms>  (642) 
20

>  <i_qp_#rotor>  (642) 
8

>  <i_qp_#rtvFG>  (642) 
0

>  <i_qp_#stars>  (642) 
0

>  <i_qp_CNS>  (642) 
2

>  <i_qp_HumanOralAbsorption>  (642) 
3

>  <i_qp_RuleOfFive>  (642) 
0

>  <i_qp_RuleOfThree>  (642) 
1

>  <i_sd_BIOSOLVEIT.INFINISEE\_REAGENT1\_NAME>  (642) 
269397

>  <i_sd_BIOSOLVEIT.INFINISEE\_REAGENT2\_NAME>  (642) 
430368

>  <i_sd_BIOSOLVEIT.INFINISEE\_RESULT\_RANK>  (642) 
74211

>  <i_sd_version>  (642) 
0

>  <b_lp_Chiralities_Consistent>  (642) 
1

>  <b_sd_chiral_flag>  (642) 
0

>  <canonical_id>  (642) 
ATP-HTVS-651F2B2980F4

>  <compound_code>  (642) 
15906

>  <title>  (642) 
a4____269397____430368

>  <variant>  (642) 
15906-1

>  <source_file>  (642) 
运行/运行/ATP-VSW/ATP-VSW-DOCK_HTVS_1-002_lib.maegz

>  <canonical_smiles>  (642) 
C[C@H](c1cccc(C[NH2+]C[C@H](c2cccs2)c2c[nH]c3ccccc23)c1)[NH+](C)C

>  <scaffold>  (642) 
c1ccc(C[NH2+]CC(c2cccs2)c2c[nH]c3ccccc23)cc1

>  <molecular_formula>  (642) 
C25H31N3S+2

$$$$
ATP-HTVS-65263582E7F4
     RDKit          3D

 67 70  0  0  0  0  0  0  0  0999 V2000
  199.3070  182.5362  157.3845 O   0  0  0  0  0  0  0  0  0  0  0  0
  198.2367  182.0407  156.9780 C   0  0  0  0  0  0  0  0  0  0  0  0
  197.2339  182.7850  156.5247 N   0  0  0  0  0  0  0  0  0  0  0  0
  197.2342  184.2510  156.4660 C   0  0  1  0  0  0  0  0  0  0  0  0
  196.8610  184.9038  157.8101 C   0  0  0  0  0  0  0  0  0  0  0  0
  196.9575  186.3074  157.9671 C   0  0  0  0  0  0  0  0  0  0  0  0
  196.6658  186.9201  159.2061 C   0  0  0  0  0  0  0  0  0  0  0  0
  196.2275  186.1360  160.2936 C   0  0  0  0  0  0  0  0  0  0  0  0
  196.0816  184.7449  160.1410 C   0  0  0  0  0  0  0  0  0  0  0  0
  196.3833  184.1366  158.9097 C   0  0  0  0  0  0  0  0  0  0  0  0
  196.8352  188.4130  159.3652 C   0  0  2  0  0  0  0  0  0  0  0  0
  198.5398  184.8307  155.8412 C   0  0  1  0  0  0  0  0  0  0  0  0
  198.8413  184.3428  154.4685 N   0  0  1  0  0  0  0  0  0  0  0  0
  199.1497  182.9036  154.3230 C   0  0  2  0  0  0  0  0  0  0  0  0
  197.8543  184.7893  153.4671 C   0  0  2  0  0  0  0  0  0  0  0  0
  198.0542  180.7223  156.7566 N   0  0  0  0  0  0  0  0  0  0  0  0
  199.1138  179.7221  156.7646 C   0  0  1  0  0  0  0  0  0  0  0  0
  198.9397  178.6533  155.6472 C   0  0  2  0  0  0  0  0  0  0  0  0
  200.2242  178.0470  155.2357 N   0  0  0  0  0  0  0  0  0  0  0  0
  200.5801  178.3752  153.9666 C   0  0  0  0  0  0  0  0  0  0  0  0
  201.6188  178.0871  153.3726 O   0  0  0  0  0  0  0  0  0  0  0  0
  199.3998  179.0378  153.3697 C   0  0  0  0  0  0  0  0  0  0  0  0
  198.4464  179.2444  154.3372 C   0  0  0  0  0  0  0  0  0  0  0  0
  197.2147  179.8593  154.0280 C   0  0  0  0  0  0  0  0  0  0  0  0
  197.0154  180.3005  152.6950 C   0  0  0  0  0  0  0  0  0  0  0  0
  198.0065  180.0825  151.7027 C   0  0  0  0  0  0  0  0  0  0  0  0
  199.2214  179.4391  152.0350 C   0  0  0  0  0  0  0  0  0  0  0  0
  200.9715  177.1595  156.1345 C   0  0  1  0  0  0  0  0  0  0  0  0
  201.4491  175.8314  155.5287 C   0  0  0  0  0  0  0  0  0  0  0  0
  202.3535  175.0332  156.2580 C   0  0  0  0  0  0  0  0  0  0  0  0
  202.8439  173.8152  155.7196 C   0  0  0  0  0  0  0  0  0  0  0  0
  202.4199  173.3976  154.4415 C   0  0  0  0  0  0  0  0  0  0  0  0
  201.5100  174.1878  153.7167 C   0  0  0  0  0  0  0  0  0  0  0  0
  201.0117  175.3871  154.2594 C   0  0  0  0  0  0  0  0  0  0  0  0
  196.3809  182.3099  156.3059 H   0  0  0  0  0  0  0  0  0  0  0  0
  196.3803  184.4760  155.8363 H   0  0  0  0  0  0  0  0  0  0  0  0
  197.2739  186.9439  157.1512 H   0  0  0  0  0  0  0  0  0  0  0  0
  196.0053  186.5876  161.2546 H   0  0  0  0  0  0  0  0  0  0  0  0
  195.7525  184.1149  160.9547 H   0  0  0  0  0  0  0  0  0  0  0  0
  196.2526  183.0677  158.8425 H   0  0  0  0  0  0  0  0  0  0  0  0
  196.9211  188.6848  160.4206 H   0  0  0  0  0  0  0  0  0  0  0  0
  195.9821  188.9263  158.9191 H   0  0  0  0  0  0  0  0  0  0  0  0
  197.7378  188.7515  158.8560 H   0  0  0  0  0  0  0  0  0  0  0  0
  198.4425  185.9069  155.7688 H   0  0  0  0  0  0  0  0  0  0  0  0
  199.3712  184.6262  156.5132 H   0  0  0  0  0  0  0  0  0  0  0  0
  198.2567  182.3209  154.5591 H   0  0  0  0  0  0  0  0  0  0  0  0
  199.9023  182.6018  155.0702 H   0  0  0  0  0  0  0  0  0  0  0  0
  199.4952  182.6853  153.3365 H   0  0  0  0  0  0  0  0  0  0  0  0
  196.8634  184.3779  153.6678 H   0  0  0  0  0  0  0  0  0  0  0  0
  198.1434  184.4638  152.4663 H   0  0  0  0  0  0  0  0  0  0  0  0
  197.7621  185.8811  153.4413 H   0  0  0  0  0  0  0  0  0  0  0  0
  197.1123  180.3883  156.5613 H   0  0  0  0  0  0  0  0  0  0  0  0
  200.0603  180.2305  156.5984 H   0  0  0  0  0  0  0  0  0  0  0  0
  199.1967  179.2398  157.7378 H   0  0  0  0  0  0  0  0  0  0  0  0
  198.2615  177.8767  155.9720 H   0  0  0  0  0  0  0  0  0  0  0  0
  196.4509  180.0066  154.7816 H   0  0  0  0  0  0  0  0  0  0  0  0
  196.1091  180.8253  152.4398 H   0  0  0  0  0  0  0  0  0  0  0  0
  197.8407  180.4144  150.6861 H   0  0  0  0  0  0  0  0  0  0  0  0
  199.9735  179.2342  151.2869 H   0  0  0  0  0  0  0  0  0  0  0  0
  201.8367  177.6990  156.5285 H   0  0  0  0  0  0  0  0  0  0  0  0
  200.3459  176.9338  156.9990 H   0  0  0  0  0  0  0  0  0  0  0  0
  202.6996  175.3427  157.2384 H   0  0  0  0  0  0  0  0  0  0  0  0
  203.5331  173.2042  156.2886 H   0  0  0  0  0  0  0  0  0  0  0  0
  202.7959  172.4619  154.0195 H   0  0  0  0  0  0  0  0  0  0  0  0
  201.1918  173.8743  152.7356 H   0  0  0  0  0  0  0  0  0  0  0  0
  200.2906  175.9722  153.6880 H   0  0  0  0  0  0  0  0  0  0  0  0
  199.6937  184.8302  154.2358 H   0  0  0  0  0  0  0  0  0  0  0  0
  1  2  2  0
  2  3  1  0
  2 16  1  0
  3  4  1  0
  3 35  1  0
  4  5  1  0
  4 12  1  0
  4 36  1  6
  5  6  1  0
  5 10  2  0
  6  7  2  0
  6 37  1  0
  7  8  1  0
  7 11  1  0
  8  9  2  0
  8 38  1  0
  9 10  1  0
  9 39  1  0
 10 40  1  0
 11 41  1  1
 11 42  1  0
 11 43  1  0
 12 13  1  0
 12 44  1  6
 12 45  1  0
 13 14  1  0
 13 15  1  0
 13 67  1  6
 14 46  1  1
 14 47  1  0
 14 48  1  0
 15 49  1  1
 15 50  1  0
 15 51  1  0
 16 17  1  0
 16 52  1  0
 17 18  1  0
 17 53  1  6
 17 54  1  0
 18 19  1  0
 18 23  1  0
 18 55  1  1
 19 20  1  0
 19 28  1  0
 20 21  2  0
 20 22  1  0
 22 23  1  0
 22 27  2  0
 23 24  2  0
 24 25  1  0
 24 56  1  0
 25 26  2  0
 25 57  1  0
 26 27  1  0
 26 58  1  0
 27 59  1  0
 28 29  1  0
 28 60  1  1
 28 61  1  0
 29 30  2  0
 29 34  1  0
 30 31  1  0
 30 62  1  0
 31 32  2  0
 31 63  1  0
 32 33  1  0
 32 64  1  0
 33 34  2  0
 33 65  1  0
 34 66  1  0
M  CHG  1  13   1
M  END
>  <s_epik_cmdline>  (643) 
J2VwaWtfcHl0aG9uJywgJy1waCcsICc3LjAwMDAwMCcsICctcGh0JywgJzIuMDAwMDAwJywgJy1tcycsICcxNicsICctdG4nLCAnOCcsICctbWEnLCAnMjAwJywgJy1pbWFlJywgJzxpbmZpbGUubWFlPicsICctb21hZScsICc8b3V0ZmlsZS5tYWU+Jw==

>  <s_epik_input>  (643) 
W2NIXTFbY0hdW2NIXWMoW0NIM10pW2NIXWMxW0NAQEhdKFtDSDJdTihbQ0gzXSlbQ0gzXSlbTkhdQyg9TylbTkhdW0NIMl1bQ0BASF0oYyhjMjMpW2NIXVtjSF1bY0hdW2NIXTMpTihDMj1PKVtDSDJdYzRbY0hdW2NIXVtjSF1bY0hdW2NIXTQ=

>  <s_i_glide_gridfile>  (643) 
ATP-Grid

>  <s_lp_Force_Field>  (643) 
OPLS_2005

>  <s_lp_Variant>  (643) 
m_2708bba____23824752____12219706-2

>  <s_lp_label>  (643) 
1140_sdstereoexpander_2_neutralizer_1_epik_1_stereoizer_1

>  <s_m_source_file>  (643) 
ATP-VSW-LIGPREP-002-in.maegz

>  <s_sd_BIOSOLVEIT.INFINISEE\_QUERY\_NAME>  (643) 
Ref-Lig

>  <s_sd_BIOSOLVEIT.INFINISEE\_QUERY\_SMILES>  (643) 
S(c1nc2c(cc1C[NH2+]Cc3ccc(cc3)C[NH+](C)C)cccc2)Cc4ccccc4

>  <s_sd_BIOSOLVEIT.INFINISEE\_REACTION\_NAME>  (643) 
m_2708bba

>  <s_sd_BIOSOLVEIT.INFINISEE\_REAGENT1\_SMILES>  (643) 
[R1*]C(=O)NC(c1cc(ccc1)C)CN(C)C

>  <s_sd_BIOSOLVEIT.INFINISEE\_REAGENT2\_SMILES>  (643) 
[R1*]NCC1N(C(=O)c2c1cccc2)Cc3ccccc3

>  <s_sd_BIOSOLVEIT.INFINISEE\_SPACE>  (643) 
REALSpace_44bn_2023-08

>  <s_vsw_compound_code>  (643) 
36450

>  <s_vsw_variant>  (643) 
36450-2

>  <r_epik_Charging_Adjusted_Penalty>  (643) 
0.016315174646713299

>  <r_epik_Ionization_Penalty>  (643) 
0.0082000000000000007

>  <r_epik_Ionization_Penalty_Charging>  (643) 
0.0082000000000000007

>  <r_epik_Ionization_Penalty_Neutral>  (643) 
0

>  <r_epik_State_Penalty>  (643) 
0.0082000000000000007

>  <r_i_docking_score>  (643) 
-4.7541191485955698

>  <r_i_glide_ecoul>  (643) 
-8.4729766845703107

>  <r_i_glide_eff_state_penalty>  (643) 
0.0082000000000000007

>  <r_i_glide_einternal>  (643) 
13.7578802108765

>  <r_i_glide_emodel>  (643) 
-54.976482261112103

>  <r_i_glide_energy>  (643) 
-45.034015655517599

>  <r_i_glide_erotb>  (643) 
0.86421519144854497

>  <r_i_glide_esite>  (643) 
-0.168348542407388

>  <r_i_glide_evdw>  (643) 
-36.561038970947301

>  <r_i_glide_gscore>  (643) 
-4.7623191485955703

>  <r_i_glide_hbond>  (643) 
-0.0362492325974254

>  <r_i_glide_ligand_efficiency>  (643) 
-0.139827033782223

>  <r_i_glide_ligand_efficiency_ln>  (643) 
-1.05031826845006

>  <r_i_glide_ligand_efficiency_sa>  (643) 
-0.45298530824605099

>  <r_i_glide_lipo>  (643) 
-2.0334352121074901

>  <r_i_glide_metal>  (643) 
-0

>  <r_i_glide_rewards>  (643) 
-0.28950290169889897

>  <r_lp_Energy>  (643) 
46.841797999999997

>  <r_qp_ACxDN^.5/SA>  (643) 
0.0129456

>  <r_qp_CIQPlogS>  (643) 
-5.1470000000000002

>  <r_qp_EA(eV)>  (643) 
0.01

>  <r_qp_FISA>  (643) 
47.726999999999997

>  <r_qp_FOSA>  (643) 
277.92099999999999

>  <r_qp_IP(eV)>  (643) 
8.718

>  <r_qp_Jm>  (643) 
0.077991933152534304

>  <r_qp_PISA>  (643) 
439.053

>  <r_qp_PSA>  (643) 
71.808000000000007

>  <r_qp_PercentHumanOralAbsorption>  (643) 
100

>  <r_qp_QPPCaco>  (643) 
701.52800000000002

>  <r_qp_QPPMDCK>  (643) 
471.62799999999999

>  <r_qp_QPlogBB>  (643) 
-0

>  <r_qp_QPlogHERG>  (643) 
-5.9850000000000003

>  <r_qp_QPlogKhsa>  (643) 
0.51600000000000001

>  <r_qp_QPlogKp>  (643) 
-2.1469999999999998

>  <r_qp_QPlogPC16>  (643) 
15.643000000000001

>  <r_qp_QPlogPo/w>  (643) 
4.4199999999999999

>  <r_qp_QPlogPoct>  (643) 
23.948

>  <r_qp_QPlogPw>  (643) 
13.805

>  <r_qp_QPlogS>  (643) 
-4.6210000000000004

>  <r_qp_QPpolrz>  (643) 
51.353999999999999

>  <r_qp_SASA>  (643) 
764.70100000000002

>  <r_qp_SAamideO>  (643) 
11.829000000000001

>  <r_qp_SAfluorine>  (643) 
0

>  <r_qp_WPSA>  (643) 
0

>  <r_qp_accptHB>  (643) 
7

>  <r_qp_dip^2/V>  (643) 
0.018754300000000002

>  <r_qp_dipole>  (643) 
5.234

>  <r_qp_donorHB>  (643) 
2

>  <r_qp_glob>  (643) 
0.81411509999999998

>  <r_qp_mol_MW>  (643) 
456.58600000000001

>  <r_qp_volume>  (643) 
1460.558

>  <r_sd_BIOSOLVEIT.INFINISEE\_FTREES\_SIMILARITY>  (643) 
0.91200000000000003

>  <r_sd_BIOSOLVEIT.LOGP>  (643) 
2.8771200000000001

>  <r_sd_BIOSOLVEIT.MOLECULAR\_WEIGHT>  (643) 
457.59500000000003

>  <r_sd_BIOSOLVEIT.TPSA>  (643) 
65.879999999999995

>  <i_epik_Tot_Q>  (643) 
1

>  <i_epik_Tot_abs_Q>  (643) 
1

>  <i_f3d_flags>  (643) 
0

>  <i_i_glide_confnum>  (643) 
12

>  <i_i_glide_lignum>  (643) 
392

>  <i_i_glide_posenum>  (643) 
11

>  <i_i_glide_rotatable_bonds>  (643) 
10

>  <i_lp_mmshare_version>  (643) 
65135

>  <i_m_ct_format>  (643) 
2

>  <i_m_source_file_index>  (643) 
1140

>  <i_qp_#NandO>  (643) 
6

>  <i_qp_#acid>  (643) 
0

>  <i_qp_#amide>  (643) 
1

>  <i_qp_#amidine>  (643) 
0

>  <i_qp_#amine>  (643) 
1

>  <i_qp_#in34>  (643) 
0

>  <i_qp_#in56>  (643) 
21

>  <i_qp_#metab>  (643) 
6

>  <i_qp_#nonHatm>  (643) 
34

>  <i_qp_#noncon>  (643) 
1

>  <i_qp_#ringatoms>  (643) 
21

>  <i_qp_#rotor>  (643) 
8

>  <i_qp_#rtvFG>  (643) 
0

>  <i_qp_#stars>  (643) 
0

>  <i_qp_CNS>  (643) 
1

>  <i_qp_HumanOralAbsorption>  (643) 
3

>  <i_qp_RuleOfFive>  (643) 
0

>  <i_qp_RuleOfThree>  (643) 
0

>  <i_sd_BIOSOLVEIT.INFINISEE\_REAGENT1\_NAME>  (643) 
23824752

>  <i_sd_BIOSOLVEIT.INFINISEE\_REAGENT2\_NAME>  (643) 
12219706

>  <i_sd_BIOSOLVEIT.INFINISEE\_RESULT\_RANK>  (643) 
36047

>  <i_sd_version>  (643) 
0

>  <b_lp_Chiralities_Consistent>  (643) 
1

>  <b_sd_chiral_flag>  (643) 
0

>  <canonical_id>  (643) 
ATP-HTVS-65263582E7F4

>  <compound_code>  (643) 
36450

>  <title>  (643) 
m_2708bba____23824752____12219706

>  <variant>  (643) 
36450-2

>  <source_file>  (643) 
运行/运行/ATP-VSW/ATP-VSW-DOCK_HTVS_1-002_lib.maegz

>  <canonical_smiles>  (643) 
Cc1cccc([C@@H](C[NH+](C)C)NC(=O)NC[C@H]2c3ccccc3C(=O)N2Cc2ccccc2)c1

>  <scaffold>  (643) 
O=C(NCc1ccccc1)NCC1c2ccccc2C(=O)N1Cc1ccccc1

>  <molecular_formula>  (643) 
C28H33N4O2+

$$$$
ATP-HTVS-654FE4E3AAA7
     RDKit          3D

 58 60  0  0  0  0  0  0  0  0999 V2000
  199.1805  182.6897  151.5289 O   0  0  0  0  0  0  0  0  0  0  0  0
  198.1985  182.1978  152.0805 C   0  0  0  0  0  0  0  0  0  0  0  0
  197.3894  181.2401  151.5192 N   0  0  0  0  0  0  0  0  0  0  0  0
  197.7773  180.5067  150.3492 C   0  0  0  0  0  0  0  0  0  0  0  0
  197.5244  179.1114  150.2875 C   0  0  0  0  0  0  0  0  0  0  0  0
  197.8768  178.3605  149.1488 C   0  0  0  0  0  0  0  0  0  0  0  0
  198.4983  178.9918  148.0550 C   0  0  0  0  0  0  0  0  0  0  0  0
  198.7519  180.3739  148.1012 C   0  0  0  0  0  0  0  0  0  0  0  0
  198.3791  181.1261  149.2255 C   0  0  0  0  0  0  0  0  0  0  0  0
  196.1028  180.8633  152.1292 C   0  0  2  0  0  0  0  0  0  0  0  0
  197.8591  182.7197  153.4412 C   0  0  0  0  0  0  0  0  0  0  0  0
  197.6508  181.8540  154.5383 C   0  0  0  0  0  0  0  0  0  0  0  0
  197.4100  182.3994  155.8098 C   0  0  0  0  0  0  0  0  0  0  0  0
  197.4592  183.7372  156.0396 N   0  0  0  0  0  0  0  0  0  0  0  0
  197.6562  184.5612  154.9920 C   0  0  0  0  0  0  0  0  0  0  0  0
  197.8703  184.1152  153.6810 C   0  0  0  0  0  0  0  0  0  0  0  0
  197.1131  181.5229  156.8606 N   0  0  0  0  0  0  0  0  0  0  0  0
  197.2200  181.8935  158.2420 C   0  0  1  0  0  0  0  0  0  0  0  0
  196.3057  182.9767  158.7470 C   0  0  0  0  0  0  0  0  0  0  0  0
  196.9126  184.0977  159.2907 C   0  0  0  0  0  0  0  0  0  0  0  0
  196.1571  185.2169  159.6584 C   0  0  0  0  0  0  0  0  0  0  0  0
  194.7245  185.1252  159.5692 C   0  0  0  0  0  0  0  0  0  0  0  0
  194.0931  183.9621  159.0397 C   0  0  0  0  0  0  0  0  0  0  0  0
  194.8820  182.8559  158.6112 C   0  0  0  0  0  0  0  0  0  0  0  0
  196.7754  186.5489  160.1187 C   0  0  1  0  0  0  0  0  0  0  0  0
  197.5087  187.3343  159.0831 N   0  0  1  0  0  0  0  0  0  0  0  0
  198.4991  186.5845  158.2677 C   0  0  1  0  0  0  0  0  0  0  0  0
  199.6330  185.9466  159.1445 C   0  0  2  0  0  0  0  0  0  0  0  0
  196.5851  188.1434  158.2627 C   0  0  2  0  0  0  0  0  0  0  0  0
  197.0696  178.5971  151.1222 H   0  0  0  0  0  0  0  0  0  0  0  0
  197.6759  177.2988  149.1152 H   0  0  0  0  0  0  0  0  0  0  0  0
  198.7753  178.4215  147.1773 H   0  0  0  0  0  0  0  0  0  0  0  0
  199.2292  180.8713  147.2674 H   0  0  0  0  0  0  0  0  0  0  0  0
  198.5663  182.1923  149.1948 H   0  0  0  0  0  0  0  0  0  0  0  0
  195.4397  180.3750  151.4149 H   0  0  0  0  0  0  0  0  0  0  0  0
  195.5648  181.7379  152.4997 H   0  0  0  0  0  0  0  0  0  0  0  0
  196.2284  180.1507  152.9446 H   0  0  0  0  0  0  0  0  0  0  0  0
  197.7202  180.7790  154.4264 H   0  0  0  0  0  0  0  0  0  0  0  0
  197.6412  185.6216  155.2072 H   0  0  0  0  0  0  0  0  0  0  0  0
  198.0802  184.8169  152.8813 H   0  0  0  0  0  0  0  0  0  0  0  0
  196.6684  180.6190  156.7029 H   0  0  0  0  0  0  0  0  0  0  0  0
  197.1332  181.0269  158.8732 H   0  0  0  0  0  0  0  0  0  0  0  0
  198.2407  182.2789  158.3458 H   0  0  0  0  0  0  0  0  0  0  0  0
  198.0122  184.0879  159.3427 H   0  0  0  0  0  0  0  0  0  0  0  0
  194.1128  185.9815  159.8395 H   0  0  0  0  0  0  0  0  0  0  0  0
  193.0152  183.9351  158.9179 H   0  0  0  0  0  0  0  0  0  0  0  0
  194.4414  181.9631  158.1440 H   0  0  0  0  0  0  0  0  0  0  0  0
  196.0549  187.1840  160.6095 H   0  0  0  0  0  0  0  0  0  0  0  0
  197.4933  186.3030  160.8766 H   0  0  0  0  0  0  0  0  0  0  0  0
  197.9420  185.8867  157.6587 H   0  0  0  0  0  0  0  0  0  0  0  0
  198.9612  187.2359  157.5311 H   0  0  0  0  0  0  0  0  0  0  0  0
  200.1189  185.1603  158.5585 H   0  0  0  0  0  0  0  0  0  0  0  0
  199.2526  185.3840  160.0044 H   0  0  0  0  0  0  0  0  0  0  0  0
  200.3809  186.6739  159.4378 H   0  0  0  0  0  0  0  0  0  0  0  0
  195.9176  187.5036  157.6836 H   0  0  0  0  0  0  0  0  0  0  0  0
  197.1214  188.7930  157.5701 H   0  0  0  0  0  0  0  0  0  0  0  0
  195.9684  188.7800  158.9072 H   0  0  0  0  0  0  0  0  0  0  0  0
  198.0583  188.0256  159.5868 H   0  0  0  0  0  0  0  0  0  0  0  0
  1  2  2  0
  2  3  1  0
  2 11  1  0
  3  4  1  0
  3 10  1  0
  4  5  2  0
  4  9  1  0
  5  6  1  0
  5 30  1  0
  6  7  2  0
  6 31  1  0
  7  8  1  0
  7 32  1  0
  8  9  2  0
  8 33  1  0
  9 34  1  0
 10 35  1  6
 10 36  1  0
 10 37  1  0
 11 12  1  0
 11 16  2  0
 12 13  2  0
 12 38  1  0
 13 14  1  0
 13 17  1  0
 14 15  2  0
 15 16  1  0
 15 39  1  0
 16 40  1  0
 17 18  1  0
 17 41  1  0
 18 19  1  0
 18 42  1  1
 18 43  1  0
 19 20  2  0
 19 24  1  0
 20 21  1  0
 20 44  1  0
 21 22  2  0
 21 25  1  0
 22 23  1  0
 22 45  1  0
 23 24  2  0
 23 46  1  0
 24 47  1  0
 25 26  1  0
 25 48  1  1
 25 49  1  0
 26 27  1  0
 26 29  1  0
 26 58  1  1
 27 28  1  0
 27 50  1  6
 27 51  1  0
 28 52  1  6
 28 53  1  0
 28 54  1  0
 29 55  1  6
 29 56  1  0
 29 57  1  0
M  CHG  1  26   1
M  END
>  <s_epik_cmdline>  (644) 
J2VwaWtfcHl0aG9uJywgJy1waCcsICc3LjAwMDAwMCcsICctcGh0JywgJzIuMDAwMDAwJywgJy1tcycsICcxNicsICctdG4nLCAnOCcsICctbWEnLCAnMjAwJywgJy1pbWFlJywgJzxpbmZpbGUubWFlPicsICctb21hZScsICc8b3V0ZmlsZS5tYWU+Jw==

>  <s_epik_input>  (644) 
W2NIXTFbY0hdW2NIXVtjSF1bY0hdYzFOKFtDSDNdKUMoPU8pYzJbY0hdYyhuW2NIXVtjSF0yKVtOSF1bQ0gyXWMzW2NIXWMoW2NIXVtjSF1bY0hdMylbQ0gyXU4oW0NIM10pW0NIMl1bQ0gzXQ==

>  <s_i_glide_gridfile>  (644) 
ATP-Grid

>  <s_lp_Force_Field>  (644) 
OPLS_2005

>  <s_lp_Variant>  (644) 
m_27bbd____1281192____6388738-1

>  <s_lp_label>  (644) 
905_sdstereoexpander_1_neutralizer_1_epik_1_stereoizer_1

>  <s_m_source_file>  (644) 
ATP-VSW-LIGPREP-001-in.maegz

>  <s_sd_BIOSOLVEIT.INFINISEE\_QUERY\_NAME>  (644) 
Ref-Lig

>  <s_sd_BIOSOLVEIT.INFINISEE\_QUERY\_SMILES>  (644) 
S(c1nc2c(cc1C[NH2+]Cc3ccc(cc3)C[NH+](C)C)cccc2)Cc4ccccc4

>  <s_sd_BIOSOLVEIT.INFINISEE\_REACTION\_NAME>  (644) 
m_27bbd

>  <s_sd_BIOSOLVEIT.INFINISEE\_REAGENT1\_SMILES>  (644) 
[R1*]NCc1cc(ccc1)CN(CC)C

>  <s_sd_BIOSOLVEIT.INFINISEE\_REAGENT2\_SMILES>  (644) 
[R1*]c1nccc(c1)C(=O)N(c2ccccc2)C

>  <s_sd_BIOSOLVEIT.INFINISEE\_SPACE>  (644) 
REALSpace_44bn_2023-08

>  <s_vsw_compound_code>  (644) 
28929

>  <s_vsw_variant>  (644) 
28929-1

>  <r_epik_Charging_Adjusted_Penalty>  (644) 
0.0564066539916546

>  <r_epik_Ionization_Penalty>  (644) 
0.030499999999999999

>  <r_epik_Ionization_Penalty_Charging>  (644) 
0.028199999999999999

>  <r_epik_Ionization_Penalty_Neutral>  (644) 
0.0023

>  <r_epik_State_Penalty>  (644) 
0.028199999999999999

>  <r_i_docking_score>  (644) 
-4.0685860233189102

>  <r_i_glide_ecoul>  (644) 
-6.4408240318298304

>  <r_i_glide_eff_state_penalty>  (644) 
0.028199999999999999

>  <r_i_glide_einternal>  (644) 
6.44106101989746

>  <r_i_glide_emodel>  (644) 
-47.622004762685698

>  <r_i_glide_energy>  (644) 
-37.5228400230408

>  <r_i_glide_erotb>  (644) 
1.0279437826153199

>  <r_i_glide_esite>  (644) 
-0.085817601974821994

>  <r_i_glide_evdw>  (644) 
-31.082015991210898

>  <r_i_glide_gscore>  (644) 
-4.0967860233189102

>  <r_i_glide_hbond>  (644) 
-0.10002517881185399

>  <r_i_glide_ligand_efficiency>  (644) 
-0.140296069769618

>  <r_i_glide_ligand_efficiency_ln>  (644) 
-0.93160302890026903

>  <r_i_glide_ligand_efficiency_sa>  (644) 
-0.431033975246986

>  <r_i_glide_lipo>  (644) 
-1.62157681047455

>  <r_i_glide_metal>  (644) 
-0

>  <r_i_glide_rewards>  (644) 
-0.79708581033798598

>  <r_lp_Energy>  (644) 
41.237169000000002

>  <r_lp_tautomer_probability>  (644) 
0.99999977220005198

>  <r_qp_ACxDN^.5/SA>  (644) 
0.0085304999999999999

>  <r_qp_CIQPlogS>  (644) 
-4.5439999999999996

>  <r_qp_EA(eV)>  (644) 
0.29699999999999999

>  <r_qp_FISA>  (644) 
63.219000000000001

>  <r_qp_FOSA>  (644) 
304.81400000000002

>  <r_qp_IP(eV)>  (644) 
8.6059999999999999

>  <r_qp_Jm>  (644) 
0.0065414009175217003

>  <r_qp_PISA>  (644) 
393.93599999999998

>  <r_qp_PSA>  (644) 
53.665999999999997

>  <r_qp_PercentHumanOralAbsorption>  (644) 
100

>  <r_qp_QPPCaco>  (644) 
621.29399999999998

>  <r_qp_QPPMDCK>  (644) 
327.19600000000003

>  <r_qp_QPlogBB>  (644) 
-0.216

>  <r_qp_QPlogHERG>  (644) 
-7.7290000000000001

>  <r_qp_QPlogKhsa>  (644) 
0.66500000000000004

>  <r_qp_QPlogKp>  (644) 
-2.5910000000000002

>  <r_qp_QPlogPC16>  (644) 
14.413

>  <r_qp_QPlogPo/w>  (644) 
4.5590000000000002

>  <r_qp_QPlogPoct>  (644) 
20.510000000000002

>  <r_qp_QPlogPw>  (644) 
10.765000000000001

>  <r_qp_QPlogS>  (644) 
-5.1820000000000004

>  <r_qp_QPpolrz>  (644) 
46.786999999999999

>  <r_qp_SASA>  (644) 
761.96799999999996

>  <r_qp_SAamideO>  (644) 
0

>  <r_qp_SAfluorine>  (644) 
0

>  <r_qp_WPSA>  (644) 
0

>  <r_qp_accptHB>  (644) 
6.5

>  <r_qp_dip^2/V>  (644) 
0.025330200000000001

>  <r_qp_dipole>  (644) 
5.8630000000000004

>  <r_qp_donorHB>  (644) 
1

>  <r_qp_glob>  (644) 
0.77803020000000001

>  <r_qp_mol_MW>  (644) 
388.51100000000002

>  <r_qp_volume>  (644) 
1357.2270000000001

>  <r_sd_BIOSOLVEIT.INFINISEE\_FTREES\_SIMILARITY>  (644) 
0.91900000000000004

>  <r_sd_BIOSOLVEIT.LOGP>  (644) 
3.0049000000000001

>  <r_sd_BIOSOLVEIT.MOLECULAR\_WEIGHT>  (644) 
389.51999999999998

>  <r_sd_BIOSOLVEIT.TPSA>  (644) 
49.670000000000002

>  <i_epik_Tot_Q>  (644) 
1

>  <i_epik_Tot_abs_Q>  (644) 
1

>  <i_f3d_flags>  (644) 
0

>  <i_i_glide_confnum>  (644) 
3

>  <i_i_glide_lignum>  (644) 
163

>  <i_i_glide_posenum>  (644) 
18

>  <i_i_glide_rotatable_bonds>  (644) 
9

>  <i_lp_mmshare_version>  (644) 
65135

>  <i_m_ct_format>  (644) 
2

>  <i_m_source_file_index>  (644) 
905

>  <i_qp_#NandO>  (644) 
5

>  <i_qp_#acid>  (644) 
0

>  <i_qp_#amide>  (644) 
0

>  <i_qp_#amidine>  (644) 
0

>  <i_qp_#amine>  (644) 
1

>  <i_qp_#in34>  (644) 
0

>  <i_qp_#in56>  (644) 
18

>  <i_qp_#metab>  (644) 
6

>  <i_qp_#nonHatm>  (644) 
29

>  <i_qp_#noncon>  (644) 
0

>  <i_qp_#ringatoms>  (644) 
18

>  <i_qp_#rotor>  (644) 
8

>  <i_qp_#rtvFG>  (644) 
0

>  <i_qp_#stars>  (644) 
0

>  <i_qp_CNS>  (644) 
1

>  <i_qp_HumanOralAbsorption>  (644) 
3

>  <i_qp_RuleOfFive>  (644) 
0

>  <i_qp_RuleOfThree>  (644) 
0

>  <i_sd_BIOSOLVEIT.INFINISEE\_REAGENT1\_NAME>  (644) 
1281192

>  <i_sd_BIOSOLVEIT.INFINISEE\_REAGENT2\_NAME>  (644) 
6388738

>  <i_sd_BIOSOLVEIT.INFINISEE\_RESULT\_RANK>  (644) 
19136

>  <i_sd_version>  (644) 
0

>  <b_lp_Chiralities_Consistent>  (644) 
1

>  <b_sd_chiral_flag>  (644) 
0

>  <canonical_id>  (644) 
ATP-HTVS-654FE4E3AAA7

>  <compound_code>  (644) 
28929

>  <title>  (644) 
m_27bbd____1281192____6388738

>  <variant>  (644) 
28929-1

>  <source_file>  (644) 
运行/运行/ATP-VSW/ATP-VSW-DOCK_HTVS_1-001_lib/ATP-VSW-DOCK_HTVS_1-001_lib

>  <canonical_smiles>  (644) 
CC[N@@H+](C)Cc1cccc(CNc2cc(C(=O)N(C)c3ccccc3)ccn2)c1

>  <scaffold>  (644) 
O=C(Nc1ccccc1)c1ccnc(NCc2ccccc2)c1

>  <molecular_formula>  (644) 
C24H29N4O+

$$$$
ATP-HTVS-655331016ABF
     RDKit          3D

 66 69  0  0  0  0  0  0  0  0999 V2000
  201.5373  181.9496  159.0069 F   0  0  0  0  0  0  0  0  0  0  0  0
  201.3119  183.2615  159.2718 C   0  0  0  0  0  0  0  0  0  0  0  0
  201.7746  183.8220  160.4830 C   0  0  0  0  0  0  0  0  0  0  0  0
  201.5600  185.1909  160.7408 C   0  0  0  0  0  0  0  0  0  0  0  0
  200.9044  185.9965  159.7925 C   0  0  0  0  0  0  0  0  0  0  0  0
  200.4257  185.4450  158.5788 C   0  0  0  0  0  0  0  0  0  0  0  0
  200.6540  184.0754  158.3211 C   0  0  0  0  0  0  0  0  0  0  0  0
  199.7302  186.3485  157.5467 C   0  0  1  0  0  0  0  0  0  0  0  0
  198.6325  185.7889  156.7500 N   0  0  0  0  0  0  0  0  0  0  0  0
  197.7131  184.8568  157.2405 C   0  0  0  0  0  0  0  0  0  0  0  0
  197.6297  183.6833  156.5901 N   0  0  0  0  0  0  0  0  0  0  0  0
  196.8241  182.7141  157.0372 C   0  0  0  0  0  0  0  0  0  0  0  0
  196.0092  182.8865  158.0938 N   0  0  0  0  0  0  0  0  0  0  0  0
  195.9854  184.0954  158.7325 C   0  0  0  0  0  0  0  0  0  0  0  0
  196.8541  185.1398  158.3361 C   0  0  0  0  0  0  0  0  0  0  0  0
  196.7837  186.4014  158.9648 C   0  0  0  0  0  0  0  0  0  0  0  0
  195.8817  186.5919  160.0240 C   0  0  0  0  0  0  0  0  0  0  0  0
  194.9995  185.5568  160.4211 C   0  0  0  0  0  0  0  0  0  0  0  0
  195.0561  184.3018  159.7688 C   0  0  0  0  0  0  0  0  0  0  0  0
  196.8271  181.4476  156.4638 N   0  0  0  0  0  0  0  0  0  0  0  0
  197.4165  181.1562  155.1626 C   0  0  1  0  0  0  0  0  0  0  0  0
  197.0256  179.7684  154.6472 C   0  0  1  0  0  0  0  0  0  0  0  0
  197.3925  179.5790  153.1822 C   0  0  0  0  0  0  0  0  0  0  0  0
  198.6688  179.0922  152.8286 C   0  0  0  0  0  0  0  0  0  0  0  0
  199.0069  178.9088  151.4693 C   0  0  0  0  0  0  0  0  0  0  0  0
  198.0783  179.2088  150.4491 C   0  0  0  0  0  0  0  0  0  0  0  0
  196.7978  179.6941  150.8066 C   0  0  0  0  0  0  0  0  0  0  0  0
  196.4666  179.8758  152.1629 C   0  0  0  0  0  0  0  0  0  0  0  0
  198.4483  178.9904  148.9887 C   0  0  1  0  0  0  0  0  0  0  0  0
  197.9587  177.6939  148.4428 N   0  0  2  0  0  0  0  0  0  0  0  0
  198.4761  176.4974  149.1602 C   0  0  2  0  0  0  0  0  0  0  0  0
  198.1812  177.5987  146.9865 C   0  0  2  0  0  0  0  0  0  0  0  0
  202.4741  182.9590  161.5148 C   0  0  1  0  0  0  0  0  0  0  0  0
  203.5768  182.2574  160.9807 O   0  0  0  0  0  0  0  0  0  0  0  0
  201.9128  185.6369  161.6652 H   0  0  0  0  0  0  0  0  0  0  0  0
  200.7526  187.0442  160.0048 H   0  0  0  0  0  0  0  0  0  0  0  0
  200.3217  183.6311  157.3950 H   0  0  0  0  0  0  0  0  0  0  0  0
  199.3686  187.2400  158.0825 H   0  0  0  0  0  0  0  0  0  0  0  0
  200.5285  186.6946  156.8702 H   0  0  0  0  0  0  0  0  0  0  0  0
  198.7284  185.8206  155.7328 H   0  0  0  0  0  0  0  0  0  0  0  0
  197.3640  187.2575  158.6288 H   0  0  0  0  0  0  0  0  0  0  0  0
  195.8251  187.5499  160.5225 H   0  0  0  0  0  0  0  0  0  0  0  0
  194.2638  185.7435  161.2089 H   0  0  0  0  0  0  0  0  0  0  0  0
  194.3484  183.5110  160.0280 H   0  0  0  0  0  0  0  0  0  0  0  0
  196.2442  180.7331  156.8968 H   0  0  0  0  0  0  0  0  0  0  0  0
  197.0376  181.9089  154.4737 H   0  0  0  0  0  0  0  0  0  0  0  0
  198.5039  181.2568  155.2040 H   0  0  0  0  0  0  0  0  0  0  0  0
  197.4916  178.9879  155.2521 H   0  0  0  0  0  0  0  0  0  0  0  0
  195.9527  179.6445  154.7844 H   0  0  0  0  0  0  0  0  0  0  0  0
  199.3818  178.8258  153.5952 H   0  0  0  0  0  0  0  0  0  0  0  0
  199.9826  178.5173  151.2175 H   0  0  0  0  0  0  0  0  0  0  0  0
  196.0627  179.9111  150.0464 H   0  0  0  0  0  0  0  0  0  0  0  0
  195.4838  180.2254  152.4265 H   0  0  0  0  0  0  0  0  0  0  0  0
  198.0244  179.8204  148.4150 H   0  0  0  0  0  0  0  0  0  0  0  0
  199.5316  179.0603  148.8434 H   0  0  0  0  0  0  0  0  0  0  0  0
  199.5588  176.4499  149.0800 H   0  0  0  0  0  0  0  0  0  0  0  0
  198.0674  175.5829  148.7336 H   0  0  0  0  0  0  0  0  0  0  0  0
  198.2131  176.4878  150.2140 H   0  0  0  0  0  0  0  0  0  0  0  0
  199.2463  177.6459  146.7395 H   0  0  0  0  0  0  0  0  0  0  0  0
  197.6739  178.4111  146.4557 H   0  0  0  0  0  0  0  0  0  0  0  0
  197.7935  176.6563  146.5979 H   0  0  0  0  0  0  0  0  0  0  0  0
  202.8092  183.5733  162.3525 H   0  0  0  0  0  0  0  0  0  0  0  0
  201.7578  182.2411  161.9147 H   0  0  0  0  0  0  0  0  0  0  0  0
  203.2612  181.7005  160.2861 H   0  0  0  0  0  0  0  0  0  0  0  0
  195.3736  182.1442  158.3747 H   0  0  0  0  0  0  0  0  0  0  0  0
  196.9561  177.6968  148.5709 H   0  0  0  0  0  0  0  0  0  0  0  0
  1  2  1  0
  2  3  2  0
  2  7  1  0
  3  4  1  0
  3 33  1  0
  4  5  2  0
  4 35  1  0
  5  6  1  0
  5 36  1  0
  6  7  2  0
  6  8  1  0
  7 37  1  0
  8  9  1  0
  8 38  1  1
  8 39  1  0
  9 10  1  0
  9 40  1  0
 10 11  2  0
 10 15  1  0
 11 12  1  0
 12 13  2  0
 12 20  1  0
 13 14  1  0
 13 65  1  0
 14 15  1  0
 14 19  2  0
 15 16  2  0
 16 17  1  0
 16 41  1  0
 17 18  2  0
 17 42  1  0
 18 19  1  0
 18 43  1  0
 19 44  1  0
 20 21  1  0
 20 45  1  0
 21 22  1  0
 21 46  1  6
 21 47  1  0
 22 23  1  0
 22 48  1  1
 22 49  1  0
 23 24  1  0
 23 28  2  0
 24 25  2  0
 24 50  1  0
 25 26  1  0
 25 51  1  0
 26 27  2  0
 26 29  1  0
 27 28  1  0
 27 52  1  0
 28 53  1  0
 29 30  1  0
 29 54  1  6
 29 55  1  0
 30 31  1  0
 30 32  1  0
 30 66  1  6
 31 56  1  1
 31 57  1  0
 31 58  1  0
 32 59  1  1
 32 60  1  0
 32 61  1  0
 33 34  1  0
 33 62  1  1
 33 63  1  0
 34 64  1  0
M  CHG  2  13   1  30   1
M  END
>  <s_epik_cmdline>  (645) 
J2VwaWtfcHl0aG9uJywgJy1waCcsICc3LjAwMDAwMCcsICctcGh0JywgJzIuMDAwMDAwJywgJy1tcycsICcxNicsICctdG4nLCAnOCcsICctbWEnLCAnMjAwJywgJy1pbWFlJywgJzxpbmZpbGUubWFlPicsICctb21hZScsICc8b3V0ZmlsZS5tYWU+Jw==

>  <s_epik_input>  (645) 
RmMxYyhbQ0gyXVtPSF0pW2NIXVtjSF1jKFtjSF0xKVtDSDJdW05IXWMoYyhjMjMpW2NIXVtjSF1bY0hdW2NIXTMpbmMobjIpW05IXVtDSDJdW0NIMl1jNFtjSF1bY0hdYyhbY0hdW2NIXTQpW0NIMl1OKFtDSDNdKVtDSDNd

>  <s_i_glide_gridfile>  (645) 
ATP-Grid

>  <s_lp_Force_Field>  (645) 
OPLS_2005

>  <s_lp_Variant>  (645) 
m_282030aaa____21912298____22360182____21967972-1

>  <s_lp_label>  (645) 
943_sdstereoexpander_1_neutralizer_1_epik_1_stereoizer_1

>  <s_m_source_file>  (645) 
ATP-VSW-LIGPREP-002-in.maegz

>  <s_sd_BIOSOLVEIT.INFINISEE\_QUERY\_NAME>  (645) 
Ref-Lig

>  <s_sd_BIOSOLVEIT.INFINISEE\_QUERY\_SMILES>  (645) 
S(c1nc2c(cc1C[NH2+]Cc3ccc(cc3)C[NH+](C)C)cccc2)Cc4ccccc4

>  <s_sd_BIOSOLVEIT.INFINISEE\_REACTION\_NAME>  (645) 
m_282030aaa

>  <s_sd_BIOSOLVEIT.INFINISEE\_REAGENT1\_SMILES>  (645) 
[R1*]NCc1cc(F)c(cc1)CO

>  <s_sd_BIOSOLVEIT.INFINISEE\_REAGENT2\_SMILES>  (645) 
[R2*]c1nc([R1*])c2c(n1)cccc2

>  <s_sd_BIOSOLVEIT.INFINISEE\_REAGENT3\_SMILES>  (645) 
[R2*]NCCc1ccc(cc1)CN(C)C

>  <s_sd_BIOSOLVEIT.INFINISEE\_SPACE>  (645) 
REALSpace_44bn_2023-08

>  <s_vsw_compound_code>  (645) 
30146

>  <s_vsw_variant>  (645) 
30146-1

>  <r_epik_Charging_Adjusted_Penalty>  (645) 
0.11709506449003999

>  <r_epik_Ionization_Penalty>  (645) 
0.055599999999999997

>  <r_epik_Ionization_Penalty_Charging>  (645) 
0.055500000000000001

>  <r_epik_Ionization_Penalty_Neutral>  (645) 
0

>  <r_epik_State_Penalty>  (645) 
0.061600000000000002

>  <r_i_docking_score>  (645) 
-4.7381812300251198

>  <r_i_glide_ecoul>  (645) 
-5.0860314369201696

>  <r_i_glide_eff_state_penalty>  (645) 
0.061600000000000002

>  <r_i_glide_einternal>  (645) 
9.9369678497314506

>  <r_i_glide_emodel>  (645) 
-55.601177135426198

>  <r_i_glide_energy>  (645) 
-39.941122531890898

>  <r_i_glide_erotb>  (645) 
0.85066737856169505

>  <r_i_glide_esite>  (645) 
-0.174669999466286

>  <r_i_glide_evdw>  (645) 
-34.855091094970703

>  <r_i_glide_gscore>  (645) 
-4.7997812300251201

>  <r_i_glide_hbond>  (645) 
-0.20000000000000001

>  <r_i_glide_ligand_efficiency>  (645) 
-0.13935827147132701

>  <r_i_glide_ligand_efficiency_ln>  (645) 
-1.0467971351943799

>  <r_i_glide_ligand_efficiency_sa>  (645) 
-0.45146670033346498

>  <r_i_glide_lipo>  (645) 
-2.4106715204598701

>  <r_i_glide_metal>  (645) 
-0

>  <r_i_glide_rewards>  (645) 
-0.359447818374104

>  <r_lp_Energy>  (645) 
17.972705999999999

>  <r_qp_ACxDN^.5/SA>  (645) 
0.015944799999999999

>  <r_qp_CIQPlogS>  (645) 
-5.9969999999999999

>  <r_qp_EA(eV)>  (645) 
0.60999999999999999

>  <r_qp_FISA>  (645) 
69.992000000000004

>  <r_qp_FOSA>  (645) 
310.61200000000002

>  <r_qp_IP(eV)>  (645) 
8.0229999999999997

>  <r_qp_Jm>  (645) 
0.079771682921355697

>  <r_qp_PISA>  (645) 
310.68000000000001

>  <r_qp_PSA>  (645) 
66.497

>  <r_qp_PercentHumanOralAbsorption>  (645) 
100

>  <r_qp_QPPCaco>  (645) 
535.87599999999998

>  <r_qp_QPPMDCK>  (645) 
442.036

>  <r_qp_QPlogBB>  (645) 
-0.27700000000000002

>  <r_qp_QPlogHERG>  (645) 
-6.3719999999999999

>  <r_qp_QPlogKhsa>  (645) 
0.60199999999999998

>  <r_qp_QPlogKp>  (645) 
-2.722

>  <r_qp_QPlogPC16>  (645) 
14.413

>  <r_qp_QPlogPo/w>  (645) 
4.5599999999999996

>  <r_qp_QPlogPoct>  (645) 
23.446000000000002

>  <r_qp_QPlogPw>  (645) 
12.640000000000001

>  <r_qp_QPlogS>  (645) 
-4.0389999999999997

>  <r_qp_QPpolrz>  (645) 
46.356999999999999

>  <r_qp_SASA>  (645) 
727.80799999999999

>  <r_qp_SAamideO>  (645) 
0

>  <r_qp_SAfluorine>  (645) 
36.524000000000001

>  <r_qp_WPSA>  (645) 
36.524000000000001

>  <r_qp_accptHB>  (645) 
6.7000000000000002

>  <r_qp_dip^2/V>  (645) 
0.010635199999999999

>  <r_qp_dipole>  (645) 
3.879

>  <r_qp_donorHB>  (645) 
3

>  <r_qp_glob>  (645) 
0.83729659999999995

>  <r_qp_mol_MW>  (645) 
459.565

>  <r_qp_volume>  (645) 
1414.479

>  <r_sd_BIOSOLVEIT.INFINISEE\_FTREES\_SIMILARITY>  (645) 
0.91700000000000004

>  <r_sd_BIOSOLVEIT.LOGP>  (645) 
3.1724000000000001

>  <r_sd_BIOSOLVEIT.MOLECULAR\_WEIGHT>  (645) 
460.57400000000001

>  <r_sd_BIOSOLVEIT.TPSA>  (645) 
74.510000000000005

>  <i_epik_Tot_Q>  (645) 
2

>  <i_epik_Tot_abs_Q>  (645) 
2

>  <i_f3d_flags>  (645) 
0

>  <i_i_glide_confnum>  (645) 
9

>  <i_i_glide_lignum>  (645) 
294

>  <i_i_glide_posenum>  (645) 
3

>  <i_i_glide_rotatable_bonds>  (645) 
11

>  <i_lp_mmshare_version>  (645) 
65135

>  <i_m_ct_format>  (645) 
2

>  <i_m_source_file_index>  (645) 
943

>  <i_qp_#NandO>  (645) 
6

>  <i_qp_#acid>  (645) 
0

>  <i_qp_#amide>  (645) 
0

>  <i_qp_#amidine>  (645) 
0

>  <i_qp_#amine>  (645) 
1

>  <i_qp_#in34>  (645) 
0

>  <i_qp_#in56>  (645) 
22

>  <i_qp_#metab>  (645) 
5

>  <i_qp_#nonHatm>  (645) 
34

>  <i_qp_#noncon>  (645) 
0

>  <i_qp_#ringatoms>  (645) 
22

>  <i_qp_#rotor>  (645) 
11

>  <i_qp_#rtvFG>  (645) 
0

>  <i_qp_#stars>  (645) 
0

>  <i_qp_CNS>  (645) 
0

>  <i_qp_HumanOralAbsorption>  (645) 
3

>  <i_qp_RuleOfFive>  (645) 
0

>  <i_qp_RuleOfThree>  (645) 
0

>  <i_sd_BIOSOLVEIT.INFINISEE\_REAGENT1\_NAME>  (645) 
21912298

>  <i_sd_BIOSOLVEIT.INFINISEE\_REAGENT2\_NAME>  (645) 
22360182

>  <i_sd_BIOSOLVEIT.INFINISEE\_REAGENT3\_NAME>  (645) 
21967972

>  <i_sd_BIOSOLVEIT.INFINISEE\_RESULT\_RANK>  (645) 
21902

>  <i_sd_version>  (645) 
0

>  <b_lp_Chiralities_Consistent>  (645) 
1

>  <b_sd_chiral_flag>  (645) 
0

>  <canonical_id>  (645) 
ATP-HTVS-655331016ABF

>  <compound_code>  (645) 
30146

>  <title>  (645) 
m_282030aaa____21912298____22360182____21967972

>  <variant>  (645) 
30146-1

>  <source_file>  (645) 
运行/运行/ATP-VSW/ATP-VSW-DOCK_HTVS_1-002_lib.maegz

>  <canonical_smiles>  (645) 
C[NH+](C)Cc1ccc(CCNc2nc(NCc3ccc(CO)c(F)c3)c3ccccc3[nH+]2)cc1

>  <scaffold>  (645) 
c1ccc(CCNc2nc(NCc3ccccc3)c3ccccc3[nH+]2)cc1

>  <molecular_formula>  (645) 
C27H32FN5O+2

$$$$
ATP-HTVS-656A250247D8
     RDKit          3D

 51 53  0  0  0  0  0  0  0  0999 V2000
  193.5696  181.4344  158.5303 Cl  0  0  0  0  0  0  0  0  0  0  0  0
  194.7184  182.7193  158.5793 C   0  0  0  0  0  0  0  0  0  0  0  0
  194.3548  184.1421  159.5127 S   0  0  0  0  0  0  0  0  0  0  0  0
  195.8794  184.8652  159.0423 C   0  0  0  0  0  0  0  0  0  0  0  0
  196.1873  186.1861  159.6273 C   0  0  0  0  0  0  0  0  0  0  0  0
  195.9194  186.3446  160.8205 O   0  0  0  0  0  0  0  0  0  0  0  0
  196.7408  187.1450  158.8335 N   0  0  0  0  0  0  0  0  0  0  0  0
  196.9743  186.8814  157.5270 C   0  0  0  0  0  0  0  0  0  0  0  0
  197.1544  186.6804  156.4020 N   0  0  0  0  0  0  0  0  0  0  0  0
  197.1240  188.4327  159.3320 C   0  0  0  0  0  0  0  0  0  0  0  0
  196.3513  189.1464  160.2792 C   0  0  0  0  0  0  0  0  0  0  0  0
  196.7391  190.4136  160.7372 C   0  0  0  0  0  0  0  0  0  0  0  0
  197.9068  191.0121  160.2387 C   0  0  0  0  0  0  0  0  0  0  0  0
  198.6849  190.3289  159.2860 C   0  0  0  0  0  0  0  0  0  0  0  0
  198.2928  189.0535  158.8251 C   0  0  0  0  0  0  0  0  0  0  0  0
  196.6074  184.0271  158.2393 C   0  0  0  0  0  0  0  0  0  0  0  0
  195.9317  182.8091  157.9535 C   0  0  0  0  0  0  0  0  0  0  0  0
  196.5121  181.8343  157.1431 N   0  0  0  0  0  0  0  0  0  0  0  0
  197.0498  182.1788  155.8326 C   0  0  1  0  0  0  0  0  0  0  0  0
  197.7615  181.0353  155.1279 C   0  0  0  0  0  0  0  0  0  0  0  0
  198.3192  179.9697  155.8658 C   0  0  0  0  0  0  0  0  0  0  0  0
  199.0048  178.9220  155.2208 C   0  0  0  0  0  0  0  0  0  0  0  0
  199.1342  178.9395  153.8176 C   0  0  0  0  0  0  0  0  0  0  0  0
  198.5723  179.9933  153.0720 C   0  0  0  0  0  0  0  0  0  0  0  0
  197.8930  181.0431  153.7237 C   0  0  0  0  0  0  0  0  0  0  0  0
  199.5780  177.7767  156.0401 C   0  0  1  0  0  0  0  0  0  0  0  0
  200.3474  178.2467  157.2182 N   0  0  2  0  0  0  0  0  0  0  0  0
  201.5504  179.0395  156.8656 C   0  0  2  0  0  0  0  0  0  0  0  0
  200.6618  177.1527  158.1560 C   0  0  2  0  0  0  0  0  0  0  0  0
  195.4138  188.7551  160.6588 H   0  0  0  0  0  0  0  0  0  0  0  0
  196.1325  190.9181  161.4701 H   0  0  0  0  0  0  0  0  0  0  0  0
  198.2203  191.9794  160.6038 H   0  0  0  0  0  0  0  0  0  0  0  0
  199.5931  190.7818  158.9134 H   0  0  0  0  0  0  0  0  0  0  0  0
  198.9088  188.5555  158.0868 H   0  0  0  0  0  0  0  0  0  0  0  0
  197.5969  184.2375  157.8581 H   0  0  0  0  0  0  0  0  0  0  0  0
  196.0782  180.9114  157.2153 H   0  0  0  0  0  0  0  0  0  0  0  0
  196.2285  182.5226  155.2066 H   0  0  0  0  0  0  0  0  0  0  0  0
  197.7483  183.0086  155.9194 H   0  0  0  0  0  0  0  0  0  0  0  0
  198.2133  179.9496  156.9407 H   0  0  0  0  0  0  0  0  0  0  0  0
  199.6357  178.1312  153.3063 H   0  0  0  0  0  0  0  0  0  0  0  0
  198.6613  179.9929  151.9963 H   0  0  0  0  0  0  0  0  0  0  0  0
  197.4727  181.8519  153.1413 H   0  0  0  0  0  0  0  0  0  0  0  0
  198.7502  177.1515  156.3697 H   0  0  0  0  0  0  0  0  0  0  0  0
  200.2164  177.1496  155.4169 H   0  0  0  0  0  0  0  0  0  0  0  0
  202.2523  178.4489  156.2754 H   0  0  0  0  0  0  0  0  0  0  0  0
  202.0682  179.3821  157.7624 H   0  0  0  0  0  0  0  0  0  0  0  0
  201.2892  179.9245  156.2855 H   0  0  0  0  0  0  0  0  0  0  0  0
  201.3121  176.4102  157.6920 H   0  0  0  0  0  0  0  0  0  0  0  0
  199.7385  176.6681  158.4660 H   0  0  0  0  0  0  0  0  0  0  0  0
  201.1482  177.5352  159.0545 H   0  0  0  0  0  0  0  0  0  0  0  0
  199.7059  178.8478  157.7197 H   0  0  0  0  0  0  0  0  0  0  0  0
  1  2  1  0
  2  3  1  0
  2 17  2  0
  3  4  1  0
  4  5  1  0
  4 16  2  0
  5  6  2  0
  5  7  1  0
  7  8  1  0
  7 10  1  0
  8  9  3  0
 10 11  2  0
 10 15  1  0
 11 12  1  0
 11 30  1  0
 12 13  2  0
 12 31  1  0
 13 14  1  0
 13 32  1  0
 14 15  2  0
 14 33  1  0
 15 34  1  0
 16 17  1  0
 16 35  1  0
 17 18  1  0
 18 19  1  0
 18 36  1  0
 19 20  1  0
 19 37  1  6
 19 38  1  0
 20 21  2  0
 20 25  1  0
 21 22  1  0
 21 39  1  0
 22 23  2  0
 22 26  1  0
 23 24  1  0
 23 40  1  0
 24 25  2  0
 24 41  1  0
 25 42  1  0
 26 27  1  0
 26 43  1  1
 26 44  1  0
 27 28  1  0
 27 29  1  0
 27 51  1  1
 28 45  1  6
 28 46  1  0
 28 47  1  0
 29 48  1  6
 29 49  1  0
 29 50  1  0
M  CHG  1  27   1
M  END
>  <s_epik_cmdline>  (646) 
J2VwaWtfcHl0aG9uJywgJy1waCcsICc3LjAwMDAwMCcsICctcGh0JywgJzIuMDAwMDAwJywgJy1tcycsICcxNicsICctdG4nLCAnOCcsICctbWEnLCAnMjAwJywgJy1pbWFlJywgJzxpbmZpbGUubWFlPicsICctb21hZScsICc8b3V0ZmlsZS5tYWU+Jw==

>  <s_epik_input>  (646) 
W2NIXTFbY0hdW2NIXVtjSF1bY0hdYzFOKEMjTilDKD1PKWMoc2MyQ2wpW2NIXWMyW05IXVtDSDJdYzNbY0hdYyhbY0hdW2NIXVtjSF0zKVtDSDJdTihbQ0gzXSlbQ0gzXQ==

>  <s_i_glide_gridfile>  (646) 
ATP-Grid

>  <s_lp_Force_Field>  (646) 
OPLS_2005

>  <s_lp_Variant>  (646) 
rxn512b____EMOL36822768____EMOL44846536____EMOL2873214-1

>  <s_lp_label>  (646) 
2563_sdstereoexpander_1_neutralizer_1_epik_1_stereoizer_1

>  <s_m_source_file>  (646) 
ATP-VSW-LIGPREP-002-in.maegz

>  <s_sd_BIOSOLVEIT.INFINISEE\_QUERY\_NAME>  (646) 
Ref-Lig

>  <s_sd_BIOSOLVEIT.INFINISEE\_QUERY\_SMILES>  (646) 
S(c1nc2c(cc1C[NH2+]Cc3ccc(cc3)C[NH+](C)C)cccc2)Cc4ccccc4

>  <s_sd_BIOSOLVEIT.INFINISEE\_REACTION\_NAME>  (646) 
rxn512b

>  <s_sd_BIOSOLVEIT.INFINISEE\_REAGENT1\_NAME>  (646) 
EMOL36822768

>  <s_sd_BIOSOLVEIT.INFINISEE\_REAGENT1\_SMILES>  (646) 
N#CNc1ccccc1

>  <s_sd_BIOSOLVEIT.INFINISEE\_REAGENT2\_NAME>  (646) 
EMOL44846536

>  <s_sd_BIOSOLVEIT.INFINISEE\_REAGENT2\_SMILES>  (646) 
BrC1=C(Cl)SC(C(=O)O)=C1

>  <s_sd_BIOSOLVEIT.INFINISEE\_REAGENT3\_NAME>  (646) 
EMOL2873214

>  <s_sd_BIOSOLVEIT.INFINISEE\_REAGENT3\_SMILES>  (646) 
N(Cc1cc(ccc1)CN)(C)C

>  <s_sd_BIOSOLVEIT.INFINISEE\_SPACE>  (646) 
eXplore_7tr_2022-12

>  <s_vsw_compound_code>  (646) 
81986

>  <s_vsw_variant>  (646) 
81986-1

>  <r_epik_Charging_Adjusted_Penalty>  (646) 
0.086140609825027206

>  <r_epik_Ionization_Penalty>  (646) 
0.043299999999999998

>  <r_epik_Ionization_Penalty_Charging>  (646) 
0.043099999999999999

>  <r_epik_Ionization_Penalty_Neutral>  (646) 
0.00020000000000000001

>  <r_epik_State_Penalty>  (646) 
0.043099999999999999

>  <r_i_docking_score>  (646) 
-4.8952885890657596

>  <r_i_glide_ecoul>  (646) 
-8.0008974075317401

>  <r_i_glide_eff_state_penalty>  (646) 
0.043099999999999999

>  <r_i_glide_einternal>  (646) 
5.2520785331726101

>  <r_i_glide_emodel>  (646) 
-68.000071632724101

>  <r_i_glide_energy>  (646) 
-50.532185554504402

>  <r_i_glide_erotb>  (646) 
0.76551173506548698

>  <r_i_glide_esite>  (646) 
-0.15026693489241

>  <r_i_glide_evdw>  (646) 
-42.531288146972699

>  <r_i_glide_gscore>  (646) 
-4.9383885890657604

>  <r_i_glide_hbond>  (646) 
-0.16

>  <r_i_glide_ligand_efficiency>  (646) 
-0.168803054795371

>  <r_i_glide_ligand_efficiency_ln>  (646) 
-1.120896953088

>  <r_i_glide_ligand_efficiency_sa>  (646) 
-0.51861646489287705

>  <r_i_glide_lipo>  (646) 
-0.52928830034185703

>  <r_i_glide_metal>  (646) 
-0

>  <r_i_glide_rewards>  (646) 
-1.5376460704185799

>  <r_lp_Energy>  (646) 
33.874032

>  <r_lp_tautomer_probability>  (646) 
0.99999274205267796

>  <r_qp_ACxDN^.5/SA>  (646) 
0.011200099999999999

>  <r_qp_CIQPlogS>  (646) 
-3.7679999999999998

>  <r_qp_EA(eV)>  (646) 
0.93799999999999994

>  <r_qp_FISA>  (646) 
129.93100000000001

>  <r_qp_FOSA>  (646) 
204.47200000000001

>  <r_qp_IP(eV)>  (646) 
8.6419999999999995

>  <r_qp_Jm>  (646) 
0.00071088847825944703

>  <r_qp_PISA>  (646) 
242.62899999999999

>  <r_qp_PSA>  (646) 
73.546000000000006

>  <r_qp_PercentHumanOralAbsorption>  (646) 
70.884

>  <r_qp_QPPCaco>  (646) 
36.104999999999997

>  <r_qp_QPPMDCK>  (646) 
53.738999999999997

>  <r_qp_QPlogBB>  (646) 
-0.115

>  <r_qp_QPlogHERG>  (646) 
-6.6909999999999998

>  <r_qp_QPlogKhsa>  (646) 
0.23100000000000001

>  <r_qp_QPlogKp>  (646) 
-6.4169999999999998

>  <r_qp_QPlogPC16>  (646) 
13.417

>  <r_qp_QPlogPo/w>  (646) 
2.7429999999999999

>  <r_qp_QPlogPoct>  (646) 
20.715

>  <r_qp_QPlogPw>  (646) 
10.984999999999999

>  <r_qp_QPlogS>  (646) 
-2.3599999999999999

>  <r_qp_QPpolrz>  (646) 
41.445999999999998

>  <r_qp_SASA>  (646) 
669.63499999999999

>  <r_qp_SAamideO>  (646) 
0

>  <r_qp_SAfluorine>  (646) 
0

>  <r_qp_WPSA>  (646) 
92.602999999999994

>  <r_qp_accptHB>  (646) 
7.5

>  <r_qp_dip^2/V>  (646) 
0.079406599999999994

>  <r_qp_dipole>  (646) 
10.002000000000001

>  <r_qp_donorHB>  (646) 
1

>  <r_qp_glob>  (646) 
0.84245190000000003

>  <r_qp_mol_MW>  (646) 
424.947

>  <r_qp_volume>  (646) 
1259.874

>  <r_sd_BIOSOLVEIT.INFINISEE\_FTREES\_SIMILARITY>  (646) 
0.91200000000000003

>  <r_sd_BIOSOLVEIT.LOGP>  (646) 
3.7859799999999999

>  <r_sd_BIOSOLVEIT.MOLECULAR\_WEIGHT>  (646) 
425.96100000000001

>  <r_sd_BIOSOLVEIT.TPSA>  (646) 
60.57

>  <i_epik_Tot_Q>  (646) 
1

>  <i_epik_Tot_abs_Q>  (646) 
1

>  <i_f3d_flags>  (646) 
0

>  <i_i_glide_confnum>  (646) 
6

>  <i_i_glide_lignum>  (646) 
1138

>  <i_i_glide_posenum>  (646) 
16

>  <i_i_glide_rotatable_bonds>  (646) 
8

>  <i_lp_mmshare_version>  (646) 
65135

>  <i_m_ct_format>  (646) 
2

>  <i_m_source_file_index>  (646) 
2563

>  <i_qp_#NandO>  (646) 
5

>  <i_qp_#acid>  (646) 
0

>  <i_qp_#amide>  (646) 
0

>  <i_qp_#amidine>  (646) 
0

>  <i_qp_#amine>  (646) 
2

>  <i_qp_#in34>  (646) 
0

>  <i_qp_#in56>  (646) 
17

>  <i_qp_#metab>  (646) 
6

>  <i_qp_#nonHatm>  (646) 
29

>  <i_qp_#noncon>  (646) 
0

>  <i_qp_#ringatoms>  (646) 
17

>  <i_qp_#rotor>  (646) 
8

>  <i_qp_#rtvFG>  (646) 
0

>  <i_qp_#stars>  (646) 
0

>  <i_qp_CNS>  (646) 
1

>  <i_qp_HumanOralAbsorption>  (646) 
2

>  <i_qp_RuleOfFive>  (646) 
0

>  <i_qp_RuleOfThree>  (646) 
0

>  <i_sd_BIOSOLVEIT.INFINISEE\_RESULT\_RANK>  (646) 
37233

>  <i_sd_version>  (646) 
0

>  <b_lp_Chiralities_Consistent>  (646) 
1

>  <b_sd_chiral_flag>  (646) 
0

>  <canonical_id>  (646) 
ATP-HTVS-656A250247D8

>  <compound_code>  (646) 
81986

>  <title>  (646) 
rxn512b____EMOL36822768____EMOL44846536____EMOL2873214

>  <variant>  (646) 
81986-1

>  <source_file>  (646) 
运行/运行/ATP-VSW/ATP-VSW-DOCK_HTVS_1-002_lib.maegz

>  <canonical_smiles>  (646) 
C[NH+](C)Cc1cccc(CNc2cc(C(=O)N(C#N)c3ccccc3)sc2Cl)c1

>  <scaffold>  (646) 
O=C(Nc1ccccc1)c1cc(NCc2ccccc2)cs1

>  <molecular_formula>  (646) 
C22H22ClN4OS+

$$$$
ATP-HTVS-657E323E2351
     RDKit          3D

 62 65  0  0  0  0  0  0  0  0999 V2000
  196.2852  181.7940  155.7669 O   0  0  0  0  0  0  0  0  0  0  0  0
  197.3387  182.0208  156.3572 C   0  0  0  0  0  0  0  0  0  0  0  0
  198.4873  181.3562  156.1669 N   0  0  0  0  0  0  0  0  0  0  0  0
  198.8459  180.4738  155.1068 C   0  0  0  0  0  0  0  0  0  0  0  0
  198.0173  180.2175  154.0625 N   0  0  0  0  0  0  0  0  0  0  0  0
  198.4195  179.3979  153.0712 C   0  0  0  0  0  0  0  0  0  0  0  0
  199.6856  178.7830  153.0190 C   0  0  0  0  0  0  0  0  0  0  0  0
  200.0070  177.9325  151.9325 N   0  0  0  0  0  0  0  0  0  0  0  0
  200.2720  178.3790  150.6044 C   0  0  0  0  0  0  0  0  0  0  0  0
  200.6769  177.4978  149.5615 C   0  0  0  0  0  0  0  0  0  0  0  0
  200.8662  177.9781  148.2404 C   0  0  0  0  0  0  0  0  0  0  0  0
  200.7059  179.3438  147.9339 C   0  0  0  0  0  0  0  0  0  0  0  0
  200.3458  180.2340  148.9621 C   0  0  0  0  0  0  0  0  0  0  0  0
  200.1272  179.7561  150.2741 C   0  0  0  0  0  0  0  0  0  0  0  0
  200.2360  176.5301  152.3358 C   0  0  1  0  0  0  0  0  0  0  0  0
  199.5865  175.4301  151.4921 C   0  0  0  0  0  0  0  0  0  0  0  0
  198.4839  175.5727  150.9648 O   0  0  0  0  0  0  0  0  0  0  0  0
  200.2638  174.2825  151.3881 N   0  0  0  0  0  0  0  0  0  0  0  0
  200.5772  179.0598  154.0938 C   0  0  0  0  0  0  0  0  0  0  0  0
  200.1482  179.9118  155.1569 C   0  0  0  0  0  0  0  0  0  0  0  0
  201.0434  180.2003  156.2282 C   0  0  0  0  0  0  0  0  0  0  0  0
  202.3305  179.6448  156.2480 C   0  0  0  0  0  0  0  0  0  0  0  0
  202.7472  178.8085  155.2006 C   0  0  0  0  0  0  0  0  0  0  0  0
  201.8891  178.5344  154.1190 C   0  0  0  0  0  0  0  0  0  0  0  0
  197.4090  183.0955  157.4057 C   0  0  0  0  0  0  0  0  0  0  0  0
  196.5231  183.1282  158.5169 C   0  0  0  0  0  0  0  0  0  0  0  0
  196.6272  184.1807  159.4575 C   0  0  0  0  0  0  0  0  0  0  0  0
  197.5773  185.2047  159.2880 C   0  0  0  0  0  0  0  0  0  0  0  0
  198.4438  185.1785  158.1823 C   0  0  0  0  0  0  0  0  0  0  0  0
  198.3613  184.1283  157.2498 C   0  0  0  0  0  0  0  0  0  0  0  0
  195.4723  182.0462  158.7533 C   0  0  1  0  0  0  0  0  0  0  0  0
  194.1535  182.3548  158.1436 N   0  0  1  0  0  0  0  0  0  0  0  0
  193.2160  181.2145  158.2356 C   0  0  2  0  0  0  0  0  0  0  0  0
  193.5455  183.6162  158.6263 C   0  0  2  0  0  0  0  0  0  0  0  0
  199.2158  181.5521  156.8393 H   0  0  0  0  0  0  0  0  0  0  0  0
  197.7023  179.2411  152.2767 H   0  0  0  0  0  0  0  0  0  0  0  0
  200.8347  176.4352  149.7439 H   0  0  0  0  0  0  0  0  0  0  0  0
  201.1279  177.2812  147.4568 H   0  0  0  0  0  0  0  0  0  0  0  0
  200.8666  179.6990  146.9233 H   0  0  0  0  0  0  0  0  0  0  0  0
  200.2367  181.2890  148.7468 H   0  0  0  0  0  0  0  0  0  0  0  0
  199.8459  180.4787  151.0285 H   0  0  0  0  0  0  0  0  0  0  0  0
  201.3058  176.3296  152.3472 H   0  0  0  0  0  0  0  0  0  0  0  0
  199.9030  176.3673  153.3650 H   0  0  0  0  0  0  0  0  0  0  0  0
  201.1492  174.1684  151.8684 H   0  0  0  0  0  0  0  0  0  0  0  0
  199.9391  173.5875  150.7287 H   0  0  0  0  0  0  0  0  0  0  0  0
  200.7737  180.8402  157.0572 H   0  0  0  0  0  0  0  0  0  0  0  0
  203.0023  179.8405  157.0719 H   0  0  0  0  0  0  0  0  0  0  0  0
  203.7216  178.3500  155.2336 H   0  0  0  0  0  0  0  0  0  0  0  0
  202.2623  177.9056  153.3179 H   0  0  0  0  0  0  0  0  0  0  0  0
  195.9684  184.2168  160.3115 H   0  0  0  0  0  0  0  0  0  0  0  0
  197.6370  186.0146  160.0032 H   0  0  0  0  0  0  0  0  0  0  0  0
  199.1690  185.9668  158.0430 H   0  0  0  0  0  0  0  0  0  0  0  0
  199.0197  184.1300  156.3934 H   0  0  0  0  0  0  0  0  0  0  0  0
  195.8468  181.0796  158.4154 H   0  0  0  0  0  0  0  0  0  0  0  0
  195.3382  181.9286  159.8242 H   0  0  0  0  0  0  0  0  0  0  0  0
  192.9780  180.9899  159.2749 H   0  0  0  0  0  0  0  0  0  0  0  0
  193.6319  180.3148  157.7814 H   0  0  0  0  0  0  0  0  0  0  0  0
  192.2888  181.4387  157.7063 H   0  0  0  0  0  0  0  0  0  0  0  0
  193.3905  183.6065  159.7051 H   0  0  0  0  0  0  0  0  0  0  0  0
  192.5766  183.7571  158.1513 H   0  0  0  0  0  0  0  0  0  0  0  0
  194.1562  184.4881  158.3843 H   0  0  0  0  0  0  0  0  0  0  0  0
  194.2837  182.4863  157.1384 H   0  0  0  0  0  0  0  0  0  0  0  0
  1  2  2  0
  2  3  1  0
  2 25  1  0
  3  4  1  0
  3 35  1  0
  4  5  1  0
  4 20  2  0
  5  6  2  0
  6  7  1  0
  6 36  1  0
  7  8  1  0
  7 19  2  0
  8  9  1  0
  8 15  1  0
  9 10  2  0
  9 14  1  0
 10 11  1  0
 10 37  1  0
 11 12  2  0
 11 38  1  0
 12 13  1  0
 12 39  1  0
 13 14  2  0
 13 40  1  0
 14 41  1  0
 15 16  1  0
 15 42  1  1
 15 43  1  0
 16 17  2  0
 16 18  1  0
 18 44  1  0
 18 45  1  0
 19 20  1  0
 19 24  1  0
 20 21  1  0
 21 22  2  0
 21 46  1  0
 22 23  1  0
 22 47  1  0
 23 24  2  0
 23 48  1  0
 24 49  1  0
 25 26  1  0
 25 30  2  0
 26 27  2  0
 26 31  1  0
 27 28  1  0
 27 50  1  0
 28 29  2  0
 28 51  1  0
 29 30  1  0
 29 52  1  0
 30 53  1  0
 31 32  1  0
 31 54  1  6
 31 55  1  0
 32 33  1  0
 32 34  1  0
 32 62  1  6
 33 56  1  1
 33 57  1  0
 33 58  1  0
 34 59  1  1
 34 60  1  0
 34 61  1  0
M  CHG  1  32   1
M  END
>  <s_epik_cmdline>  (647) 
J2VwaWtfcHl0aG9uJywgJy1waCcsICc3LjAwMDAwMCcsICctcGh0JywgJzIuMDAwMDAwJywgJy1tcycsICcxNicsICctdG4nLCAnOCcsICctbWEnLCAnMjAwJywgJy1pbWFlJywgJzxpbmZpbGUubWFlPicsICctb21hZScsICc8b3V0ZmlsZS5tYWU+Jw==

>  <s_epik_input>  (647) 
W2NIXTFbY0hdW2NIXVtjSF1jKFtDSDJdTihbQ0gzXSlbQ0gzXSljMUMoPU8pW05IXWMoYyhjMjMpW2NIXVtjSF1bY0hdW2NIXTMpbltjSF1jMk4oW0NIMl1DKD1PKVtOSDJdKWM0W2NIXVtjSF1bY0hdW2NIXVtjSF00

>  <s_i_glide_gridfile>  (647) 
ATP-Grid

>  <s_lp_Force_Field>  (647) 
OPLS_2005

>  <s_lp_Variant>  (647) 
rxn502b____EMOL5415347____EMOL7515103____EMOL2871571-1

>  <s_lp_label>  (647) 
2391_sdstereoexpander_1_neutralizer_1_epik_1_stereoizer_1

>  <s_m_source_file>  (647) 
ATP-VSW-LIGPREP-001-in.maegz

>  <s_sd_BIOSOLVEIT.INFINISEE\_QUERY\_NAME>  (647) 
Ref-Lig

>  <s_sd_BIOSOLVEIT.INFINISEE\_QUERY\_SMILES>  (647) 
S(c1nc2c(cc1C[NH2+]Cc3ccc(cc3)C[NH+](C)C)cccc2)Cc4ccccc4

>  <s_sd_BIOSOLVEIT.INFINISEE\_REACTION\_NAME>  (647) 
rxn502b

>  <s_sd_BIOSOLVEIT.INFINISEE\_REAGENT1\_NAME>  (647) 
EMOL5415347

>  <s_sd_BIOSOLVEIT.INFINISEE\_REAGENT1\_SMILES>  (647) 
O=C(O)c1c(cccc1)CN(C)C

>  <s_sd_BIOSOLVEIT.INFINISEE\_REAGENT2\_NAME>  (647) 
EMOL7515103

>  <s_sd_BIOSOLVEIT.INFINISEE\_REAGENT2\_SMILES>  (647) 
Brc1c2c(c(nc1)N)cccc2

>  <s_sd_BIOSOLVEIT.INFINISEE\_REAGENT3\_NAME>  (647) 
EMOL2871571

>  <s_sd_BIOSOLVEIT.INFINISEE\_REAGENT3\_SMILES>  (647) 
O=C(N)CNc1ccccc1

>  <s_sd_BIOSOLVEIT.INFINISEE\_SPACE>  (647) 
eXplore_7tr_2022-12

>  <s_vsw_compound_code>  (647) 
76481

>  <s_vsw_variant>  (647) 
76481-1

>  <r_epik_Charging_Adjusted_Penalty>  (647) 
0.120106230221407

>  <r_epik_Ionization_Penalty>  (647) 
0.060100000000000001

>  <r_epik_Ionization_Penalty_Charging>  (647) 
0.060100000000000001

>  <r_epik_Ionization_Penalty_Neutral>  (647) 
0.0001

>  <r_epik_State_Penalty>  (647) 
0.060100000000000001

>  <r_i_docking_score>  (647) 
-3.9472966794648801

>  <r_i_glide_ecoul>  (647) 
-9.8585329055786097

>  <r_i_glide_eff_state_penalty>  (647) 
0.060100000000000001

>  <r_i_glide_einternal>  (647) 
3.8798789978027299

>  <r_i_glide_emodel>  (647) 
-51.372925610914002

>  <r_i_glide_energy>  (647) 
-39.386803627014203

>  <r_i_glide_erotb>  (647) 
0.68038231840782104

>  <r_i_glide_esite>  (647) 
-0.176188697281731

>  <r_i_glide_evdw>  (647) 
-29.528270721435501

>  <r_i_glide_gscore>  (647) 
-4.0073966794648799

>  <r_i_glide_hbond>  (647) 
-0.51650561898141101

>  <r_i_glide_ligand_efficiency>  (647) 
-0.116096961160732

>  <r_i_glide_ligand_efficiency_ln>  (647) 
-0.872068554415385

>  <r_i_glide_ligand_efficiency_sa>  (647) 
-0.37610908502666102

>  <r_i_glide_lipo>  (647) 
-0.429655473617853

>  <r_i_glide_metal>  (647) 
-0

>  <r_i_glide_rewards>  (647) 
-0.61023573608313697

>  <r_lp_Energy>  (647) 
34.775266999999999

>  <r_qp_ACxDN^.5/SA>  (647) 
0.0189543

>  <r_qp_CIQPlogS>  (647) 
-4.5700000000000003

>  <r_qp_EA(eV)>  (647) 
1.3360000000000001

>  <r_qp_FISA>  (647) 
119.664

>  <r_qp_FOSA>  (647) 
191.70599999999999

>  <r_qp_IP(eV)>  (647) 
8.3940000000000001

>  <r_qp_Jm>  (647) 
0.133114148128992

>  <r_qp_PISA>  (647) 
465.36399999999998

>  <r_qp_PSA>  (647) 
95.510999999999996

>  <r_qp_PercentHumanOralAbsorption>  (647) 
78.858000000000004

>  <r_qp_QPPCaco>  (647) 
78.876000000000005

>  <r_qp_QPPMDCK>  (647) 
86.346000000000004

>  <r_qp_QPlogBB>  (647) 
-0.78400000000000003

>  <r_qp_QPlogHERG>  (647) 
-6.4260000000000002

>  <r_qp_QPlogKhsa>  (647) 
0.13600000000000001

>  <r_qp_QPlogKp>  (647) 
-3.3799999999999999

>  <r_qp_QPlogPC16>  (647) 
16.477

>  <r_qp_QPlogPo/w>  (647) 
3.0670000000000002

>  <r_qp_QPlogPoct>  (647) 
26.757999999999999

>  <r_qp_QPlogPw>  (647) 
19.925999999999998

>  <r_qp_QPlogS>  (647) 
-3.1520000000000001

>  <r_qp_QPpolrz>  (647) 
50.856000000000002

>  <r_qp_SASA>  (647) 
776.73400000000004

>  <r_qp_SAamideO>  (647) 
45.362000000000002

>  <r_qp_SAfluorine>  (647) 
0

>  <r_qp_WPSA>  (647) 
0

>  <r_qp_accptHB>  (647) 
8.5

>  <r_qp_dip^2/V>  (647) 
0.0494828

>  <r_qp_dipole>  (647) 
8.4469999999999992

>  <r_qp_donorHB>  (647) 
3

>  <r_qp_glob>  (647) 
0.79464349999999995

>  <r_qp_mol_MW>  (647) 
453.54300000000001

>  <r_qp_volume>  (647) 
1441.848

>  <r_sd_BIOSOLVEIT.INFINISEE\_FTREES\_SIMILARITY>  (647) 
0.91800000000000004

>  <r_sd_BIOSOLVEIT.LOGP>  (647) 
2.7549999999999999

>  <r_sd_BIOSOLVEIT.MOLECULAR\_WEIGHT>  (647) 
454.55099999999999

>  <r_sd_BIOSOLVEIT.TPSA>  (647) 
92.760000000000005

>  <i_epik_Tot_Q>  (647) 
1

>  <i_epik_Tot_abs_Q>  (647) 
1

>  <i_f3d_flags>  (647) 
0

>  <i_i_glide_confnum>  (647) 
6

>  <i_i_glide_lignum>  (647) 
889

>  <i_i_glide_posenum>  (647) 
6

>  <i_i_glide_rotatable_bonds>  (647) 
9

>  <i_lp_mmshare_version>  (647) 
65135

>  <i_m_ct_format>  (647) 
2

>  <i_m_source_file_index>  (647) 
2391

>  <i_qp_#NandO>  (647) 
7

>  <i_qp_#acid>  (647) 
0

>  <i_qp_#amide>  (647) 
1

>  <i_qp_#amidine>  (647) 
0

>  <i_qp_#amine>  (647) 
1

>  <i_qp_#in34>  (647) 
0

>  <i_qp_#in56>  (647) 
22

>  <i_qp_#metab>  (647) 
7

>  <i_qp_#nonHatm>  (647) 
34

>  <i_qp_#noncon>  (647) 
0

>  <i_qp_#ringatoms>  (647) 
22

>  <i_qp_#rotor>  (647) 
8

>  <i_qp_#rtvFG>  (647) 
0

>  <i_qp_#stars>  (647) 
1

>  <i_qp_CNS>  (647) 
-1

>  <i_qp_HumanOralAbsorption>  (647) 
2

>  <i_qp_RuleOfFive>  (647) 
0

>  <i_qp_RuleOfThree>  (647) 
1

>  <i_sd_BIOSOLVEIT.INFINISEE\_RESULT\_RANK>  (647) 
19518

>  <i_sd_version>  (647) 
0

>  <b_lp_Chiralities_Consistent>  (647) 
1

>  <b_sd_chiral_flag>  (647) 
0

>  <canonical_id>  (647) 
ATP-HTVS-657E323E2351

>  <compound_code>  (647) 
76481

>  <title>  (647) 
rxn502b____EMOL5415347____EMOL7515103____EMOL2871571

>  <variant>  (647) 
76481-1

>  <source_file>  (647) 
运行/运行/ATP-VSW/ATP-VSW-DOCK_HTVS_1-001_lib/ATP-VSW-DOCK_HTVS_1-001_lib

>  <canonical_smiles>  (647) 
C[NH+](C)Cc1ccccc1C(=O)Nc1ncc(N(CC(N)=O)c2ccccc2)c2ccccc12

>  <scaffold>  (647) 
O=C(Nc1ncc(Nc2ccccc2)c2ccccc12)c1ccccc1

>  <molecular_formula>  (647) 
C27H28N5O2+

$$$$
ATP-HTVS-65B75474615F
     RDKit          3D

 46 49  0  0  0  0  0  0  0  0999 V2000
  198.3627  179.0533  153.5369 N   0  0  0  0  0  0  0  0  0  0  0  0
  197.7391  179.8658  152.6854 C   0  0  0  0  0  0  0  0  0  0  0  0
  197.2664  181.0759  152.9958 N   0  0  0  0  0  0  0  0  0  0  0  0
  197.4326  181.5275  154.2566 C   0  0  0  0  0  0  0  0  0  0  0  0
  198.0611  180.7209  155.2381 C   0  0  0  0  0  0  0  0  0  0  0  0
  198.5107  179.4469  154.8199 C   0  0  0  0  0  0  0  0  0  0  0  0
  199.1479  178.5732  155.7150 N   0  0  0  0  0  0  0  0  0  0  0  0
  199.8360  177.3692  155.2617 C   0  0  1  0  0  0  0  0  0  0  0  0
  201.2020  177.2126  155.9407 C   0  0  1  0  0  0  0  0  0  0  0  0
  202.0100  176.0887  155.3184 C   0  0  0  0  0  0  0  0  0  0  0  0
  201.6223  174.7465  155.5142 C   0  0  0  0  0  0  0  0  0  0  0  0
  202.3725  173.7039  154.9390 C   0  0  0  0  0  0  0  0  0  0  0  0
  203.5141  173.9994  154.1699 C   0  0  0  0  0  0  0  0  0  0  0  0
  204.2615  172.9641  153.6185 N   0  0  0  0  0  0  0  0  0  0  0  0
  203.8985  175.3384  153.9630 C   0  0  0  0  0  0  0  0  0  0  0  0
  203.1460  176.3808  154.5345 C   0  0  0  0  0  0  0  0  0  0  0  0
  198.2201  181.1977  156.5597 C   0  0  0  0  0  0  0  0  0  0  0  0
  197.7762  182.4871  156.9030 C   0  0  0  0  0  0  0  0  0  0  0  0
  197.1634  183.2976  155.9305 C   0  0  0  0  0  0  0  0  0  0  0  0
  197.0019  182.8191  154.6159 C   0  0  0  0  0  0  0  0  0  0  0  0
  197.5586  179.3873  151.2970 C   0  0  0  0  0  0  0  0  0  0  0  0
  196.5178  179.8970  150.4876 C   0  0  0  0  0  0  0  0  0  0  0  0
  196.3460  179.4369  149.1662 C   0  0  0  0  0  0  0  0  0  0  0  0
  197.2124  178.4651  148.6349 C   0  0  0  0  0  0  0  0  0  0  0  0
  198.2501  177.9469  149.4299 C   0  0  0  0  0  0  0  0  0  0  0  0
  198.4200  178.4028  150.7532 C   0  0  0  0  0  0  0  0  0  0  0  0
  198.9497  178.6723  156.7045 H   0  0  0  0  0  0  0  0  0  0  0  0
  199.1968  176.5122  155.4742 H   0  0  0  0  0  0  0  0  0  0  0  0
  200.0072  177.3731  154.1844 H   0  0  0  0  0  0  0  0  0  0  0  0
  201.7652  178.1445  155.8521 H   0  0  0  0  0  0  0  0  0  0  0  0
  201.0793  177.0256  157.0091 H   0  0  0  0  0  0  0  0  0  0  0  0
  200.7531  174.5163  156.1087 H   0  0  0  0  0  0  0  0  0  0  0  0
  202.0776  172.6755  155.0899 H   0  0  0  0  0  0  0  0  0  0  0  0
  205.0688  173.1286  153.0390 H   0  0  0  0  0  0  0  0  0  0  0  0
  203.9613  171.9935  153.7332 H   0  0  0  0  0  0  0  0  0  0  0  0
  204.7705  175.5707  153.3698 H   0  0  0  0  0  0  0  0  0  0  0  0
  203.4492  177.4046  154.3753 H   0  0  0  0  0  0  0  0  0  0  0  0
  198.6828  180.5879  157.3203 H   0  0  0  0  0  0  0  0  0  0  0  0
  197.8823  182.8460  157.9175 H   0  0  0  0  0  0  0  0  0  0  0  0
  196.7910  184.2767  156.1943 H   0  0  0  0  0  0  0  0  0  0  0  0
  196.5078  183.4341  153.8752 H   0  0  0  0  0  0  0  0  0  0  0  0
  195.8462  180.6456  150.8823 H   0  0  0  0  0  0  0  0  0  0  0  0
  195.5471  179.8338  148.5558 H   0  0  0  0  0  0  0  0  0  0  0  0
  197.0821  178.1188  147.6204 H   0  0  0  0  0  0  0  0  0  0  0  0
  198.9194  177.2036  149.0186 H   0  0  0  0  0  0  0  0  0  0  0  0
  199.2247  177.9984  151.3491 H   0  0  0  0  0  0  0  0  0  0  0  0
  1  2  2  0
  1  6  1  0
  2  3  1  0
  2 21  1  0
  3  4  2  0
  4  5  1  0
  4 20  1  0
  5  6  2  0
  5 17  1  0
  6  7  1  0
  7  8  1  0
  7 27  1  0
  8  9  1  0
  8 28  1  6
  8 29  1  0
  9 10  1  0
  9 30  1  1
  9 31  1  0
 10 11  1  0
 10 16  2  0
 11 12  2  0
 11 32  1  0
 12 13  1  0
 12 33  1  0
 13 14  1  0
 13 15  2  0
 14 34  1  0
 14 35  1  0
 15 16  1  0
 15 36  1  0
 16 37  1  0
 17 18  2  0
 17 38  1  0
 18 19  1  0
 18 39  1  0
 19 20  2  0
 19 40  1  0
 20 41  1  0
 21 22  2  0
 21 26  1  0
 22 23  1  0
 22 42  1  0
 23 24  2  0
 23 43  1  0
 24 25  1  0
 24 44  1  0
 25 26  2  0
 25 45  1  0
 26 46  1  0
M  END
>  <s_epik_cmdline>  (648) 
J2VwaWtfcHl0aG9uJywgJy1waCcsICc3LjAwMDAwMCcsICctcGh0JywgJzIuMDAwMDAwJywgJy1tcycsICcxNicsICctdG4nLCAnOCcsICctbWEnLCAnMjAwJywgJy1pbWFlJywgJzxpbmZpbGUubWFlPicsICctb21hZScsICc8b3V0ZmlsZS5tYWU+Jw==

>  <s_epik_input>  (648) 
W2NIXTFbY0hdW2NIXVtjSF1bY0hdYzEtYyhuMiluYyhjKGMyMylbY0hdW2NIXVtjSF1bY0hdMylbTkhdW0NIMl1bQ0gyXWM0W2NIXVtjSF1jKFtOSDJdKVtjSF1bY0hdNA==

>  <s_i_glide_gridfile>  (648) 
ATP-Grid

>  <s_lp_Force_Field>  (648) 
OPLS_2005

>  <s_lp_Variant>  (648) 
m_270166bbb____16815466____16818234-1

>  <s_lp_label>  (648) 
1265_sdstereoexpander_1_neutralizer_1_epik_1_stereoizer_1

>  <s_m_source_file>  (648) 
ATP-VSW-LIGPREP-001-in.maegz

>  <s_sd_BIOSOLVEIT.INFINISEE\_QUERY\_NAME>  (648) 
Ref-Lig

>  <s_sd_BIOSOLVEIT.INFINISEE\_QUERY\_SMILES>  (648) 
S(c1nc2c(cc1C[NH2+]Cc3ccc(cc3)C[NH+](C)C)cccc2)Cc4ccccc4

>  <s_sd_BIOSOLVEIT.INFINISEE\_REACTION\_NAME>  (648) 
m_270166bbb

>  <s_sd_BIOSOLVEIT.INFINISEE\_REAGENT1\_SMILES>  (648) 
[R1*]NCCc1ccc(N)cc1

>  <s_sd_BIOSOLVEIT.INFINISEE\_REAGENT2\_SMILES>  (648) 
[R1*]c1nc(nc2c1cccc2)c3ccccc3

>  <s_sd_BIOSOLVEIT.INFINISEE\_SPACE>  (648) 
REALSpace_44bn_2023-08

>  <s_vsw_compound_code>  (648) 
40449

>  <s_vsw_variant>  (648) 
40449-1

>  <r_epik_Charging_Adjusted_Penalty>  (648) 
0.018694408883148699

>  <r_epik_Ionization_Penalty>  (648) 
0.019

>  <r_epik_Ionization_Penalty_Charging>  (648) 
0

>  <r_epik_Ionization_Penalty_Neutral>  (648) 
0.019

>  <r_epik_State_Penalty>  (648) 
0.018700000000000001

>  <r_i_docking_score>  (648) 
-4.1495464861087896

>  <r_i_glide_ecoul>  (648) 
-4.7231178283691397

>  <r_i_glide_eff_state_penalty>  (648) 
0.018700000000000001

>  <r_i_glide_einternal>  (648) 
2.1230230331420898

>  <r_i_glide_emodel>  (648) 
-42.184582790925802

>  <r_i_glide_energy>  (648) 
-33.881824493408203

>  <r_i_glide_erotb>  (648) 
0.81705581814603501

>  <r_i_glide_esite>  (648) 
-0.168730694936089

>  <r_i_glide_evdw>  (648) 
-29.158706665039102

>  <r_i_glide_gscore>  (648) 
-4.1682464861087896

>  <r_i_glide_hbond>  (648) 
-0.20508313724208299

>  <r_i_glide_ligand_efficiency>  (648) 
-0.15959794177341499

>  <r_i_glide_ligand_efficiency_ln>  (648) 
-0.97450737649007702

>  <r_i_glide_ligand_efficiency_sa>  (648) 
-0.47280827451616603

>  <r_i_glide_lipo>  (648) 
-1.28265207476934

>  <r_i_glide_metal>  (648) 
-0

>  <r_i_glide_rewards>  (648) 
-1.1624333898000001

>  <r_lp_Energy>  (648) 
19.278293999999999

>  <r_lp_tautomer_probability>  (648) 
0.99997800024199801

>  <r_qp_ACxDN^.5/SA>  (648) 
0.0082526000000000006

>  <r_qp_CIQPlogS>  (648) 
-5.8810000000000002

>  <r_qp_EA(eV)>  (648) 
0.82099999999999995

>  <r_qp_FISA>  (648) 
79.287999999999997

>  <r_qp_FOSA>  (648) 
60.079999999999998

>  <r_qp_IP(eV)>  (648) 
8.1660000000000004

>  <r_qp_Jm>  (648) 
0.115472315095346

>  <r_qp_PISA>  (648) 
531.20500000000004

>  <r_qp_PSA>  (648) 
55.024999999999999

>  <r_qp_PercentHumanOralAbsorption>  (648) 
100

>  <r_qp_QPPCaco>  (648) 
1753.912

>  <r_qp_QPPMDCK>  (648) 
908.01599999999996

>  <r_qp_QPlogBB>  (648) 
-0.63400000000000001

>  <r_qp_QPlogHERG>  (648) 
-7.3819999999999997

>  <r_qp_QPlogKhsa>  (648) 
0.68300000000000005

>  <r_qp_QPlogKp>  (648) 
-0.53300000000000003

>  <r_qp_QPlogPC16>  (648) 
13.853999999999999

>  <r_qp_QPlogPo/w>  (648) 
4.8310000000000004

>  <r_qp_QPlogPoct>  (648) 
19.617000000000001

>  <r_qp_QPlogPw>  (648) 
11.271000000000001

>  <r_qp_QPlogS>  (648) 
-5.9359999999999999

>  <r_qp_QPpolrz>  (648) 
41.386000000000003

>  <r_qp_SASA>  (648) 
670.57299999999998

>  <r_qp_SAamideO>  (648) 
0

>  <r_qp_SAfluorine>  (648) 
0

>  <r_qp_WPSA>  (648) 
0

>  <r_qp_accptHB>  (648) 
3.5

>  <r_qp_dip^2/V>  (648) 
0.0286

>  <r_qp_dipole>  (648) 
5.7530000000000001

>  <r_qp_donorHB>  (648) 
2.5

>  <r_qp_glob>  (648) 
0.79502229999999996

>  <r_qp_mol_MW>  (648) 
340.42700000000002

>  <r_qp_volume>  (648) 
1157.4190000000001

>  <r_sd_BIOSOLVEIT.INFINISEE\_FTREES\_SIMILARITY>  (648) 
0.91000000000000003

>  <r_sd_BIOSOLVEIT.LOGP>  (648) 
4.5335999999999999

>  <r_sd_BIOSOLVEIT.MOLECULAR\_WEIGHT>  (648) 
340.428

>  <r_sd_BIOSOLVEIT.TPSA>  (648) 
63.829999999999998

>  <i_epik_Tot_Q>  (648) 
0

>  <i_epik_Tot_abs_Q>  (648) 
0

>  <i_f3d_flags>  (648) 
0

>  <i_i_glide_confnum>  (648) 
2

>  <i_i_glide_lignum>  (648) 
345

>  <i_i_glide_posenum>  (648) 
16

>  <i_i_glide_rotatable_bonds>  (648) 
5

>  <i_lp_mmshare_version>  (648) 
65135

>  <i_m_ct_format>  (648) 
2

>  <i_m_source_file_index>  (648) 
1265

>  <i_qp_#NandO>  (648) 
4

>  <i_qp_#acid>  (648) 
0

>  <i_qp_#amide>  (648) 
0

>  <i_qp_#amidine>  (648) 
0

>  <i_qp_#amine>  (648) 
0

>  <i_qp_#in34>  (648) 
0

>  <i_qp_#in56>  (648) 
22

>  <i_qp_#metab>  (648) 
2

>  <i_qp_#nonHatm>  (648) 
26

>  <i_qp_#noncon>  (648) 
0

>  <i_qp_#ringatoms>  (648) 
22

>  <i_qp_#rotor>  (648) 
6

>  <i_qp_#rtvFG>  (648) 
0

>  <i_qp_#stars>  (648) 
1

>  <i_qp_CNS>  (648) 
-1

>  <i_qp_HumanOralAbsorption>  (648) 
3

>  <i_qp_RuleOfFive>  (648) 
0

>  <i_qp_RuleOfThree>  (648) 
1

>  <i_sd_BIOSOLVEIT.INFINISEE\_REAGENT1\_NAME>  (648) 
16815466

>  <i_sd_BIOSOLVEIT.INFINISEE\_REAGENT2\_NAME>  (648) 
16818234

>  <i_sd_BIOSOLVEIT.INFINISEE\_RESULT\_RANK>  (648) 
44480

>  <i_sd_version>  (648) 
0

>  <b_lp_Chiralities_Consistent>  (648) 
1

>  <b_sd_chiral_flag>  (648) 
0

>  <canonical_id>  (648) 
ATP-HTVS-65B75474615F

>  <compound_code>  (648) 
40449

>  <title>  (648) 
m_270166bbb____16815466____16818234

>  <variant>  (648) 
40449-1

>  <source_file>  (648) 
运行/运行/ATP-VSW/ATP-VSW-DOCK_HTVS_1-001_lib/ATP-VSW-DOCK_HTVS_1-001_lib

>  <canonical_smiles>  (648) 
Nc1ccc(CCNc2nc(-c3ccccc3)nc3ccccc23)cc1

>  <scaffold>  (648) 
c1ccc(CCNc2nc(-c3ccccc3)nc3ccccc23)cc1

>  <molecular_formula>  (648) 
C22H20N4

$$$$
ATP-HTVS-65F1321BFD60
     RDKit          3D

 48 51  0  0  0  0  0  0  0  0999 V2000
  199.2880  183.4693  158.3096 F   0  0  0  0  0  0  0  0  0  0  0  0
  197.9395  183.5033  158.4380 C   0  0  0  0  0  0  0  0  0  0  0  0
  197.1279  182.7783  157.5583 C   0  0  0  0  0  0  0  0  0  0  0  0
  195.7464  182.7316  157.7394 C   0  0  0  0  0  0  0  0  0  0  0  0
  195.1606  183.4369  158.8107 C   0  0  0  0  0  0  0  0  0  0  0  0
  195.9747  184.1775  159.7072 C   0  0  0  0  0  0  0  0  0  0  0  0
  197.3719  184.2118  159.5101 C   0  0  0  0  0  0  0  0  0  0  0  0
  193.6589  183.3865  158.9713 C   0  0  2  0  0  0  0  0  0  0  0  0
  197.7366  181.9602  156.4649 C   0  0  1  0  0  0  0  0  0  0  0  0
  198.3808  182.6864  155.3721 N   0  0  0  0  0  0  0  0  0  0  0  0
  198.9684  181.7607  154.3716 C   0  0  2  0  0  0  0  0  0  0  0  0
  197.9595  181.2240  153.3255 C   0  0  0  0  0  0  0  0  0  0  0  0
  197.3193  182.1232  152.4033 C   0  0  0  0  0  0  0  0  0  0  0  0
  197.5827  183.5329  152.4051 N   0  0  0  0  0  0  0  0  0  0  0  0
  197.7218  184.3302  153.4739 C   0  0  0  0  0  0  0  0  0  0  0  0
  198.0046  185.5209  153.3706 O   0  0  0  0  0  0  0  0  0  0  0  0
  197.4468  183.7314  154.8590 C   0  0  1  0  0  0  0  0  0  0  0  0
  196.4413  181.6263  151.4020 C   0  0  0  0  0  0  0  0  0  0  0  0
  196.1637  180.2430  151.3257 C   0  0  0  0  0  0  0  0  0  0  0  0
  196.8047  179.3673  152.2235 C   0  0  0  0  0  0  0  0  0  0  0  0
  197.7110  179.8383  153.1851 C   0  0  0  0  0  0  0  0  0  0  0  0
  199.8839  180.6342  154.9781 C   0  0  0  0  0  0  0  0  0  0  0  0
  201.2741  180.6089  154.7656 C   0  0  0  0  0  0  0  0  0  0  0  0
  202.0856  179.5678  155.3189 C   0  0  0  0  0  0  0  0  0  0  0  0
  201.4803  178.5891  156.1168 C   0  0  0  0  0  0  0  0  0  0  0  0
  200.0951  178.6000  156.3300 C   0  0  0  0  0  0  0  0  0  0  0  0
  199.2924  179.6120  155.7659 C   0  0  0  0  0  0  0  0  0  0  0  0
  195.1387  182.1140  157.0988 H   0  0  0  0  0  0  0  0  0  0  0  0
  195.5270  184.7491  160.5027 H   0  0  0  0  0  0  0  0  0  0  0  0
  198.0256  184.7726  160.1601 H   0  0  0  0  0  0  0  0  0  0  0  0
  193.3618  183.8620  159.9049 H   0  0  0  0  0  0  0  0  0  0  0  0
  193.2993  182.3489  158.9299 H   0  0  0  0  0  0  0  0  0  0  0  0
  193.1919  183.9403  158.1597 H   0  0  0  0  0  0  0  0  0  0  0  0
  198.4656  181.3389  156.9748 H   0  0  0  0  0  0  0  0  0  0  0  0
  196.9927  181.2519  156.0680 H   0  0  0  0  0  0  0  0  0  0  0  0
  199.6533  182.4044  153.8139 H   0  0  0  0  0  0  0  0  0  0  0  0
  197.5832  184.0088  151.5141 H   0  0  0  0  0  0  0  0  0  0  0  0
  196.4462  183.3020  154.8063 H   0  0  0  0  0  0  0  0  0  0  0  0
  197.3745  184.5644  155.5677 H   0  0  0  0  0  0  0  0  0  0  0  0
  195.9722  182.3218  150.7079 H   0  0  0  0  0  0  0  0  0  0  0  0
  195.4779  179.8645  150.5777 H   0  0  0  0  0  0  0  0  0  0  0  0
  196.5937  178.3201  152.1729 H   0  0  0  0  0  0  0  0  0  0  0  0
  198.1977  179.0864  153.7903 H   0  0  0  0  0  0  0  0  0  0  0  0
  201.7565  181.3573  154.1476 H   0  0  0  0  0  0  0  0  0  0  0  0
  203.1457  179.5307  155.1231 H   0  0  0  0  0  0  0  0  0  0  0  0
  202.0761  177.7856  156.5638 H   0  0  0  0  0  0  0  0  0  0  0  0
  199.6205  177.8595  156.9255 H   0  0  0  0  0  0  0  0  0  0  0  0
  198.2108  179.6328  155.9424 H   0  0  0  0  0  0  0  0  0  0  0  0
  1  2  1  0
  2  3  2  0
  2  7  1  0
  3  4  1  0
  3  9  1  0
  4  5  2  0
  4 28  1  0
  5  6  1  0
  5  8  1  0
  6  7  2  0
  6 29  1  0
  7 30  1  0
  8 31  1  1
  8 32  1  0
  8 33  1  0
  9 10  1  0
  9 34  1  1
  9 35  1  0
 10 11  1  0
 10 17  1  0
 11 12  1  0
 11 22  1  0
 11 36  1  6
 12 13  1  0
 12 21  2  0
 13 14  1  0
 13 18  2  0
 14 15  1  0
 14 37  1  0
 15 16  2  0
 15 17  1  0
 17 38  1  6
 17 39  1  0
 18 19  1  0
 18 40  1  0
 19 20  2  0
 19 41  1  0
 20 21  1  0
 20 42  1  0
 21 43  1  0
 22 23  2  0
 22 27  1  0
 23 24  1  0
 23 44  1  0
 24 25  2  0
 24 45  1  0
 25 26  1  0
 25 46  1  0
 26 27  2  0
 26 47  1  0
 27 48  1  0
M  END
>  <s_epik_cmdline>  (649) 
J2VwaWtfcHl0aG9uJywgJy1waCcsICc3LjAwMDAwMCcsICctcGh0JywgJzIuMDAwMDAwJywgJy1tcycsICcxNicsICctdG4nLCAnOCcsICctbWEnLCAnMjAwJywgJy1pbWFlJywgJzxpbmZpbGUubWFlPicsICctb21hZScsICc8b3V0ZmlsZS5tYWU+Jw==

>  <s_epik_input>  (649) 
W2NIXTFbY0hdW2NIXVtjSF1bY0hdYzFbQ0BASF0yTihbQ0gyXWMoYzNGKVtjSF1jKFtDSDNdKVtjSF1bY0hdMylbQ0gyXUMoPU8pW05IXWMoYzI0KVtjSF1bY0hdW2NIXVtjSF00

>  <s_i_glide_gridfile>  (649) 
ATP-Grid

>  <s_lp_Force_Field>  (649) 
OPLS_2005

>  <s_lp_Variant>  (649) 
m_2230bdc____17849930____14472260-2

>  <s_lp_label>  (649) 
730_sdstereoexpander_3_neutralizer_1_epik_1_stereoizer_1

>  <s_m_source_file>  (649) 
ATP-VSW-LIGPREP-002-in.maegz

>  <s_sd_BIOSOLVEIT.INFINISEE\_QUERY\_NAME>  (649) 
Ref-Lig

>  <s_sd_BIOSOLVEIT.INFINISEE\_QUERY\_SMILES>  (649) 
S(c1nc2c(cc1C[NH2+]Cc3ccc(cc3)C[NH+](C)C)cccc2)Cc4ccccc4

>  <s_sd_BIOSOLVEIT.INFINISEE\_REACTION\_NAME>  (649) 
m_2230bdc

>  <s_sd_BIOSOLVEIT.INFINISEE\_REAGENT1\_SMILES>  (649) 
[R1*]N1C(c2c(NC(=O)C1)cccc2)c3ccccc3

>  <s_sd_BIOSOLVEIT.INFINISEE\_REAGENT2\_SMILES>  (649) 
[R1*]Cc1c(F)ccc(c1)C

>  <s_sd_BIOSOLVEIT.INFINISEE\_SPACE>  (649) 
REALSpace_44bn_2023-08

>  <s_vsw_compound_code>  (649) 
23330

>  <s_vsw_variant>  (649) 
23330-2

>  <r_epik_Charging_Adjusted_Penalty>  (649) 
0.0087634984339075902

>  <r_epik_Ionization_Penalty>  (649) 
0.0088000000000000005

>  <r_epik_Ionization_Penalty_Charging>  (649) 
0

>  <r_epik_Ionization_Penalty_Neutral>  (649) 
0.0088000000000000005

>  <r_epik_State_Penalty>  (649) 
0.0088000000000000005

>  <r_i_docking_score>  (649) 
-1.48038393582607

>  <r_i_glide_ecoul>  (649) 
-1.4564784765243499

>  <r_i_glide_eff_state_penalty>  (649) 
0.0088000000000000005

>  <r_i_glide_einternal>  (649) 
1.97736060619354

>  <r_i_glide_emodel>  (649) 
-34.300722620057201

>  <r_i_glide_energy>  (649) 
-32.1842311620712

>  <r_i_glide_erotb>  (649) 
0.44291010722313801

>  <r_i_glide_esite>  (649) 
-0.028068371487115999

>  <r_i_glide_evdw>  (649) 
-30.7277526855469

>  <r_i_glide_gscore>  (649) 
-1.4891839358260699

>  <r_i_glide_hbond>  (649) 
0

>  <r_i_glide_ligand_efficiency>  (649) 
-0.054829034660224797

>  <r_i_glide_ligand_efficiency_ln>  (649) 
-0.34460897422369202

>  <r_i_glide_ligand_efficiency_sa>  (649) 
-0.164487103799967

>  <r_i_glide_lipo>  (649) 
-1.06488786441576

>  <r_i_glide_metal>  (649) 
-0

>  <r_i_glide_rewards>  (649) 
0.91572159860966396

>  <r_lp_Energy>  (649) 
52.478316999999997

>  <r_qp_ACxDN^.5/SA>  (649) 
0.0071183000000000001

>  <r_qp_CIQPlogS>  (649) 
-4.6420000000000003

>  <r_qp_EA(eV)>  (649) 
0.218

>  <r_qp_FISA>  (649) 
60.655000000000001

>  <r_qp_FOSA>  (649) 
127.23399999999999

>  <r_qp_IP(eV)>  (649) 
9.4700000000000006

>  <r_qp_Jm>  (649) 
0.0052753979745660696

>  <r_qp_PISA>  (649) 
407.98599999999999

>  <r_qp_PSA>  (649) 
40.500999999999998

>  <r_qp_PercentHumanOralAbsorption>  (649) 
100

>  <r_qp_QPPCaco>  (649) 
657.05899999999997

>  <r_qp_QPPMDCK>  (649) 
549.46100000000001

>  <r_qp_QPlogBB>  (649) 
0.35099999999999998

>  <r_qp_QPlogHERG>  (649) 
-6.8630000000000004

>  <r_qp_QPlogKhsa>  (649) 
0.76800000000000002

>  <r_qp_QPlogKp>  (649) 
-3.0710000000000002

>  <r_qp_QPlogPC16>  (649) 
12.118

>  <r_qp_QPlogPo/w>  (649) 
4.2370000000000001

>  <r_qp_QPlogPoct>  (649) 
18.446999999999999

>  <r_qp_QPlogPw>  (649) 
9.8970000000000002

>  <r_qp_QPlogS>  (649) 
-4.7640000000000002

>  <r_qp_QPpolrz>  (649) 
42.149000000000001

>  <r_qp_SASA>  (649) 
632.17600000000004

>  <r_qp_SAamideO>  (649) 
0

>  <r_qp_SAfluorine>  (649) 
36.301000000000002

>  <r_qp_WPSA>  (649) 
36.301000000000002

>  <r_qp_accptHB>  (649) 
4.5

>  <r_qp_dip^2/V>  (649) 
0.030509000000000001

>  <r_qp_dipole>  (649) 
5.9020000000000001

>  <r_qp_donorHB>  (649) 
1

>  <r_qp_glob>  (649) 
0.83565339999999999

>  <r_qp_mol_MW>  (649) 
360.43000000000001

>  <r_qp_volume>  (649) 
1141.692

>  <r_sd_BIOSOLVEIT.INFINISEE\_FTREES\_SIMILARITY>  (649) 
0.92800000000000005

>  <r_sd_BIOSOLVEIT.LOGP>  (649) 
3.2607200000000001

>  <r_sd_BIOSOLVEIT.MOLECULAR\_WEIGHT>  (649) 
361.43799999999999

>  <r_sd_BIOSOLVEIT.TPSA>  (649) 
33.539999999999999

>  <i_epik_Tot_Q>  (649) 
0

>  <i_epik_Tot_abs_Q>  (649) 
0

>  <i_f3d_flags>  (649) 
0

>  <i_i_glide_confnum>  (649) 
4

>  <i_i_glide_lignum>  (649) 
228

>  <i_i_glide_posenum>  (649) 
1

>  <i_i_glide_rotatable_bonds>  (649) 
3

>  <i_lp_mmshare_version>  (649) 
65135

>  <i_m_ct_format>  (649) 
2

>  <i_m_source_file_index>  (649) 
730

>  <i_qp_#NandO>  (649) 
3

>  <i_qp_#acid>  (649) 
0

>  <i_qp_#amide>  (649) 
0

>  <i_qp_#amidine>  (649) 
0

>  <i_qp_#amine>  (649) 
1

>  <i_qp_#in34>  (649) 
0

>  <i_qp_#in56>  (649) 
18

>  <i_qp_#metab>  (649) 
8

>  <i_qp_#nonHatm>  (649) 
27

>  <i_qp_#noncon>  (649) 
2

>  <i_qp_#ringatoms>  (649) 
23

>  <i_qp_#rotor>  (649) 
2

>  <i_qp_#rtvFG>  (649) 
0

>  <i_qp_#stars>  (649) 
0

>  <i_qp_CNS>  (649) 
1

>  <i_qp_HumanOralAbsorption>  (649) 
3

>  <i_qp_RuleOfFive>  (649) 
0

>  <i_qp_RuleOfThree>  (649) 
1

>  <i_sd_BIOSOLVEIT.INFINISEE\_REAGENT1\_NAME>  (649) 
17849930

>  <i_sd_BIOSOLVEIT.INFINISEE\_REAGENT2\_NAME>  (649) 
14472260

>  <i_sd_BIOSOLVEIT.INFINISEE\_RESULT\_RANK>  (649) 
6462

>  <i_sd_version>  (649) 
0

>  <b_lp_Chiralities_Consistent>  (649) 
1

>  <b_sd_chiral_flag>  (649) 
0

>  <canonical_id>  (649) 
ATP-HTVS-65F1321BFD60

>  <compound_code>  (649) 
23330

>  <title>  (649) 
m_2230bdc____17849930____14472260

>  <variant>  (649) 
23330-2

>  <source_file>  (649) 
运行/运行/ATP-VSW/ATP-VSW-DOCK_HTVS_1-002_lib.maegz

>  <canonical_smiles>  (649) 
Cc1ccc(F)c(CN2CC(=O)Nc3ccccc3[C@@H]2c2ccccc2)c1

>  <scaffold>  (649) 
O=C1CN(Cc2ccccc2)C(c2ccccc2)c2ccccc2N1

>  <molecular_formula>  (649) 
C23H21FN2O

$$$$
ATP-HTVS-65F4836C7042
     RDKit          3D

 57 60  0  0  0  0  0  0  0  0999 V2000
  199.0484  178.6743  152.6399 S   0  0  0  0  0  0  0  0  0  0  0  0
  199.8587  178.5031  154.1909 C   0  0  0  0  0  0  0  0  0  0  0  0
  199.1884  179.2617  155.2048 C   0  0  0  0  0  0  0  0  0  0  0  0
  199.7684  179.2360  156.4993 C   0  0  0  0  0  0  0  0  0  0  0  0
  200.9261  178.4900  156.7860 C   0  0  0  0  0  0  0  0  0  0  0  0
  201.5467  177.7430  155.7718 C   0  0  0  0  0  0  0  0  0  0  0  0
  201.0133  177.7488  154.4718 C   0  0  0  0  0  0  0  0  0  0  0  0
  198.0059  179.9286  154.6885 C   0  0  0  0  0  0  0  0  0  0  0  0
  197.2158  180.7200  155.5701 C   0  0  0  0  0  0  0  0  0  0  0  0
  196.5870  181.4131  156.3505 C   0  0  0  0  0  0  0  0  0  0  0  0
  195.8794  182.2192  157.3553 C   0  0  1  0  0  0  0  0  0  0  0  0
  194.7000  181.4391  157.7190 N   0  0  2  0  0  0  0  0  0  0  0  0
  196.7518  182.5736  158.5752 C   0  0  1  0  0  0  0  0  0  0  0  0
  196.4153  183.9264  159.1853 C   0  0  0  0  0  0  0  0  0  0  0  0
  197.3801  184.9561  159.1857 C   0  0  0  0  0  0  0  0  0  0  0  0
  197.0706  186.2205  159.7252 C   0  0  0  0  0  0  0  0  0  0  0  0
  197.9967  187.2073  159.7120 F   0  0  0  0  0  0  0  0  0  0  0  0
  195.7972  186.4625  160.2706 C   0  0  0  0  0  0  0  0  0  0  0  0
  194.8320  185.4361  160.2739 C   0  0  0  0  0  0  0  0  0  0  0  0
  195.1410  184.1722  159.7384 C   0  0  0  0  0  0  0  0  0  0  0  0
  197.8125  179.6812  153.3444 C   0  0  0  0  0  0  0  0  0  0  0  0
  196.6959  180.1862  152.4743 C   0  0  1  0  0  0  0  0  0  0  0  0
  197.0581  181.3908  151.7010 N   0  0  0  0  0  0  0  0  0  0  0  0
  197.1463  181.3692  150.3456 C   0  0  0  0  0  0  0  0  0  0  0  0
  196.9462  180.3560  149.6632 O   0  0  0  0  0  0  0  0  0  0  0  0
  197.5251  182.6434  149.6436 C   0  0  0  0  0  0  0  0  0  0  0  0
  196.7339  183.8208  149.7380 C   0  0  0  0  0  0  0  0  0  0  0  0
  195.5592  183.8397  150.4391 O   0  0  0  0  0  0  0  0  0  0  0  0
  197.1477  185.0148  149.1185 C   0  0  0  0  0  0  0  0  0  0  0  0
  198.3361  185.0431  148.3746 C   0  0  0  0  0  0  0  0  0  0  0  0
  199.1116  183.8792  148.2440 C   0  0  0  0  0  0  0  0  0  0  0  0
  198.7101  182.6884  148.8793 C   0  0  0  0  0  0  0  0  0  0  0  0
  197.4521  182.5740  152.4966 C   0  0  2  0  0  0  0  0  0  0  0  0
  194.1476  181.2820  156.8941 H   0  0  0  0  0  0  0  0  0  0  0  0
  194.1494  181.9231  158.3923 H   0  0  0  0  0  0  0  0  0  0  0  0
  199.2984  179.7861  157.3012 H   0  0  0  0  0  0  0  0  0  0  0  0
  201.3373  178.4847  157.7866 H   0  0  0  0  0  0  0  0  0  0  0  0
  202.4323  177.1652  155.9954 H   0  0  0  0  0  0  0  0  0  0  0  0
  201.4955  177.1828  153.6890 H   0  0  0  0  0  0  0  0  0  0  0  0
  195.5431  183.1311  156.8555 H   0  0  0  0  0  0  0  0  0  0  0  0
  196.6381  181.8000  159.3316 H   0  0  0  0  0  0  0  0  0  0  0  0
  197.8067  182.5641  158.3155 H   0  0  0  0  0  0  0  0  0  0  0  0
  198.3633  184.7896  158.7665 H   0  0  0  0  0  0  0  0  0  0  0  0
  195.5637  187.4316  160.6845 H   0  0  0  0  0  0  0  0  0  0  0  0
  193.8508  185.6222  160.6870 H   0  0  0  0  0  0  0  0  0  0  0  0
  194.3892  183.3991  159.7492 H   0  0  0  0  0  0  0  0  0  0  0  0
  196.3367  179.3676  151.8394 H   0  0  0  0  0  0  0  0  0  0  0  0
  195.8403  180.4384  153.0954 H   0  0  0  0  0  0  0  0  0  0  0  0
  195.5417  183.2478  151.1794 H   0  0  0  0  0  0  0  0  0  0  0  0
  196.5549  185.9138  149.2221 H   0  0  0  0  0  0  0  0  0  0  0  0
  198.6585  185.9551  147.8985 H   0  0  0  0  0  0  0  0  0  0  0  0
  200.0208  183.9017  147.6616 H   0  0  0  0  0  0  0  0  0  0  0  0
  199.3190  181.8057  148.7776 H   0  0  0  0  0  0  0  0  0  0  0  0
  198.5108  182.7973  152.3122 H   0  0  0  0  0  0  0  0  0  0  0  0
  197.3187  182.4044  153.5633 H   0  0  0  0  0  0  0  0  0  0  0  0
  196.8488  183.4572  152.2659 H   0  0  0  0  0  0  0  0  0  0  0  0
  194.9750  180.5061  158.1126 H   0  0  0  0  0  0  0  0  0  0  0  0
  1  2  1  0
  1 21  1  0
  2  3  1  0
  2  7  2  0
  3  4  2  0
  3  8  1  0
  4  5  1  0
  4 36  1  0
  5  6  2  0
  5 37  1  0
  6  7  1  0
  6 38  1  0
  7 39  1  0
  8  9  1  0
  8 21  2  0
  9 10  3  0
 10 11  1  0
 11 12  1  0
 11 13  1  0
 11 40  1  6
 12 34  1  6
 12 35  1  0
 12 57  1  0
 13 14  1  0
 13 41  1  1
 13 42  1  0
 14 15  1  0
 14 20  2  0
 15 16  2  0
 15 43  1  0
 16 17  1  0
 16 18  1  0
 18 19  2  0
 18 44  1  0
 19 20  1  0
 19 45  1  0
 20 46  1  0
 21 22  1  0
 22 23  1  0
 22 47  1  6
 22 48  1  0
 23 24  1  0
 23 33  1  0
 24 25  2  0
 24 26  1  0
 26 27  1  0
 26 32  2  0
 27 28  1  0
 27 29  2  0
 28 49  1  0
 29 30  1  0
 29 50  1  0
 30 31  2  0
 30 51  1  0
 31 32  1  0
 31 52  1  0
 32 53  1  0
 33 54  1  1
 33 55  1  0
 33 56  1  0
M  CHG  1  12   1
M  END
>  <s_epik_cmdline>  (650) 
J2VwaWtfcHl0aG9uJywgJy1waCcsICc3LjAwMDAwMCcsICctcGh0JywgJzIuMDAwMDAwJywgJy1tcycsICcxNicsICctdG4nLCAnOCcsICctbWEnLCAnMjAwJywgJy1pbWFlJywgJzxpbmZpbGUubWFlPicsICctb21hZScsICc8b3V0ZmlsZS5tYWU+Jw==

>  <s_epik_input>  (650) 
W2NIXTFbY0hdW2NIXVtjSF1jKFtPSF0pYzFDKD1PKU4oW0NIM10pW0NIMl1jKHMyKWMoYyhjMjMpW2NIXVtjSF1bY0hdW2NIXTMpQyNDW0NAQEhdKFtOSDJdKVtDSDJdYzRbY0hdYyhGKVtjSF1bY0hdW2NIXTQ=

>  <s_i_glide_gridfile>  (650) 
ATP-Grid

>  <s_lp_Force_Field>  (650) 
OPLS_2005

>  <s_lp_Variant>  (650) 
rxn503c____EMOL478035____EMOL49259969____EMOL313110234-4

>  <s_lp_label>  (650) 
2644_sdstereoexpander_2_neutralizer_1_epik_2_stereoizer_1

>  <s_m_source_file>  (650) 
ATP-VSW-LIGPREP-001-in.maegz

>  <s_sd_BIOSOLVEIT.INFINISEE\_QUERY\_NAME>  (650) 
Ref-Lig

>  <s_sd_BIOSOLVEIT.INFINISEE\_QUERY\_SMILES>  (650) 
S(c1nc2c(cc1C[NH2+]Cc3ccc(cc3)C[NH+](C)C)cccc2)Cc4ccccc4

>  <s_sd_BIOSOLVEIT.INFINISEE\_REACTION\_NAME>  (650) 
rxn503c

>  <s_sd_BIOSOLVEIT.INFINISEE\_REAGENT1\_NAME>  (650) 
EMOL478035

>  <s_sd_BIOSOLVEIT.INFINISEE\_REAGENT1\_SMILES>  (650) 
O=C(O)c1c(O)cccc1

>  <s_sd_BIOSOLVEIT.INFINISEE\_REAGENT2\_NAME>  (650) 
EMOL49259969

>  <s_sd_BIOSOLVEIT.INFINISEE\_REAGENT2\_SMILES>  (650) 
ClC=1c2c(SC1CNC)cccc2

>  <s_sd_BIOSOLVEIT.INFINISEE\_REAGENT3\_NAME>  (650) 
EMOL313110234

>  <s_sd_BIOSOLVEIT.INFINISEE\_REAGENT3\_SMILES>  (650) 
Fc1cc(ccc1)CC(N)C#C

>  <s_sd_BIOSOLVEIT.INFINISEE\_SPACE>  (650) 
eXplore_7tr_2022-12

>  <s_vsw_compound_code>  (650) 
84577

>  <s_vsw_variant>  (650) 
84577-4

>  <r_epik_Charging_Adjusted_Penalty>  (650) 
1.21575498988359

>  <r_epik_Ionization_Penalty>  (650) 
0.63549999999999995

>  <r_epik_Ionization_Penalty_Charging>  (650) 
0.58030000000000004

>  <r_epik_Ionization_Penalty_Neutral>  (650) 
0.055199999999999999

>  <r_epik_State_Penalty>  (650) 
0.63549999999999995

>  <r_i_docking_score>  (650) 
-6.7131225125310401

>  <r_i_glide_ecoul>  (650) 
-15.4359216690063

>  <r_i_glide_eff_state_penalty>  (650) 
0.63549999999999995

>  <r_i_glide_einternal>  (650) 
8.6129016876220703

>  <r_i_glide_emodel>  (650) 
-81.203723621153699

>  <r_i_glide_energy>  (650) 
-52.396424293518102

>  <r_i_glide_erotb>  (650) 
0.46685289725444301

>  <r_i_glide_esite>  (650) 
-0.10000000000000001

>  <r_i_glide_evdw>  (650) 
-36.960502624511697

>  <r_i_glide_gscore>  (650) 
-7.3486225125310396

>  <r_i_glide_hbond>  (650) 
-0.53603289544564703

>  <r_i_glide_ligand_efficiency>  (650) 
-0.20342795492518301

>  <r_i_glide_ligand_efficiency_ln>  (650) 
-1.49296368809878

>  <r_i_glide_ligand_efficiency_sa>  (650) 
-0.65250214834287601

>  <r_i_glide_lipo>  (650) 
-2.0782676802436999

>  <r_i_glide_metal>  (650) 
-0

>  <r_i_glide_rewards>  (650) 
-0.93776145251959797

>  <r_lp_Energy>  (650) 
26.653186999999999

>  <r_lp_tautomer_probability>  (650) 
0.999999999997365

>  <r_qp_ACxDN^.5/SA>  (650) 
0.0084510999999999996

>  <r_qp_CIQPlogS>  (650) 
-7.1539999999999999

>  <r_qp_EA(eV)>  (650) 
0.88100000000000001

>  <r_qp_FISA>  (650) 
112.51900000000001

>  <r_qp_FOSA>  (650) 
128.64400000000001

>  <r_qp_IP(eV)>  (650) 
8.6780000000000008

>  <r_qp_Jm>  (650) 
0.018882791370007399

>  <r_qp_PISA>  (650) 
328.96499999999997

>  <r_qp_PSA>  (650) 
73.174000000000007

>  <r_qp_PercentHumanOralAbsorption>  (650) 
100

>  <r_qp_QPPCaco>  (650) 
211.72800000000001

>  <r_qp_QPPMDCK>  (650) 
210.81899999999999

>  <r_qp_QPlogBB>  (650) 
-0.33700000000000002

>  <r_qp_QPlogHERG>  (650) 
-5.218

>  <r_qp_QPlogKhsa>  (650) 
0.97899999999999998

>  <r_qp_QPlogKp>  (650) 
-3.633

>  <r_qp_QPlogPC16>  (650) 
13.834

>  <r_qp_QPlogPo/w>  (650) 
4.9690000000000003

>  <r_qp_QPlogPoct>  (650) 
20.396999999999998

>  <r_qp_QPlogPw>  (650) 
8.8900000000000006

>  <r_qp_QPlogS>  (650) 
-3.7519999999999998

>  <r_qp_QPpolrz>  (650) 
42.901000000000003

>  <r_qp_SASA>  (650) 
627.52700000000004

>  <r_qp_SAamideO>  (650) 
0

>  <r_qp_SAfluorine>  (650) 
30.637

>  <r_qp_WPSA>  (650) 
57.399000000000001

>  <r_qp_accptHB>  (650) 
3.75

>  <r_qp_dip^2/V>  (650) 
0.051728999999999997

>  <r_qp_dipole>  (650) 
8.1739999999999995

>  <r_qp_donorHB>  (650) 
2

>  <r_qp_glob>  (650) 
0.91403829999999997

>  <r_qp_mol_MW>  (650) 
458.54899999999998

>  <r_qp_volume>  (650) 
1291.6600000000001

>  <r_sd_BIOSOLVEIT.INFINISEE\_FTREES\_SIMILARITY>  (650) 
0.91000000000000003

>  <r_sd_BIOSOLVEIT.LOGP>  (650) 
4.2229000000000001

>  <r_sd_BIOSOLVEIT.MOLECULAR\_WEIGHT>  (650) 
459.56200000000001

>  <r_sd_BIOSOLVEIT.TPSA>  (650) 
68.180000000000007

>  <i_epik_Tot_Q>  (650) 
1

>  <i_epik_Tot_abs_Q>  (650) 
1

>  <i_f3d_flags>  (650) 
0

>  <i_i_glide_confnum>  (650) 
4

>  <i_i_glide_lignum>  (650) 
1133

>  <i_i_glide_posenum>  (650) 
19

>  <i_i_glide_rotatable_bonds>  (650) 
9

>  <i_lp_mmshare_version>  (650) 
65135

>  <i_m_ct_format>  (650) 
2

>  <i_m_source_file_index>  (650) 
2644

>  <i_qp_#NandO>  (650) 
4

>  <i_qp_#acid>  (650) 
0

>  <i_qp_#amide>  (650) 
0

>  <i_qp_#amidine>  (650) 
0

>  <i_qp_#amine>  (650) 
1

>  <i_qp_#in34>  (650) 
0

>  <i_qp_#in56>  (650) 
21

>  <i_qp_#metab>  (650) 
7

>  <i_qp_#nonHatm>  (650) 
33

>  <i_qp_#noncon>  (650) 
0

>  <i_qp_#ringatoms>  (650) 
21

>  <i_qp_#rotor>  (650) 
9

>  <i_qp_#rtvFG>  (650) 
0

>  <i_qp_#stars>  (650) 
0

>  <i_qp_CNS>  (650) 
1

>  <i_qp_HumanOralAbsorption>  (650) 
3

>  <i_qp_RuleOfFive>  (650) 
0

>  <i_qp_RuleOfThree>  (650) 
1

>  <i_sd_BIOSOLVEIT.INFINISEE\_RESULT\_RANK>  (650) 
45595

>  <i_sd_version>  (650) 
0

>  <b_lp_Chiralities_Consistent>  (650) 
1

>  <b_sd_chiral_flag>  (650) 
0

>  <canonical_id>  (650) 
ATP-HTVS-65F4836C7042

>  <compound_code>  (650) 
84577

>  <title>  (650) 
rxn503c____EMOL478035____EMOL49259969____EMOL313110234

>  <variant>  (650) 
84577-4

>  <source_file>  (650) 
运行/运行/ATP-VSW/ATP-VSW-DOCK_HTVS_1-001_lib/ATP-VSW-DOCK_HTVS_1-001_lib

>  <canonical_smiles>  (650) 
CN(Cc1sc2ccccc2c1C#C[C@@H]([NH3+])Cc1cccc(F)c1)C(=O)c1ccccc1O

>  <scaffold>  (650) 
O=C(NCc1sc2ccccc2c1C#CCCc1ccccc1)c1ccccc1

>  <molecular_formula>  (650) 
C27H24FN2O2S+

$$$$
ATP-HTVS-6612EA4E183C
     RDKit          3D

 63 66  0  0  0  0  0  0  0  0999 V2000
  201.8392  180.3871  154.3238 F   0  0  0  0  0  0  0  0  0  0  0  0
  201.3216  179.1577  154.5939 C   0  0  0  0  0  0  0  0  0  0  0  0
  200.8302  178.8411  155.8873 C   0  0  0  0  0  0  0  0  0  0  0  0
  200.3886  177.5284  156.1525 C   0  0  0  0  0  0  0  0  0  0  0  0
  200.3546  176.5665  155.1265 C   0  0  0  0  0  0  0  0  0  0  0  0
  200.7721  176.9075  153.8248 C   0  0  0  0  0  0  0  0  0  0  0  0
  200.7032  175.9388  152.7400 C   0  0  0  0  0  0  0  0  0  0  0  0
  200.6483  175.1705  151.8757 N   0  0  0  0  0  0  0  0  0  0  0  0
  201.2473  178.2050  153.5649 C   0  0  0  0  0  0  0  0  0  0  0  0
  200.7144  179.8995  156.9833 C   0  0  2  0  0  0  0  0  0  0  0  0
  200.2839  181.2435  156.5556 N   0  0  0  0  0  0  0  0  0  0  0  0
  199.4061  181.5649  155.5393 C   0  0  0  0  0  0  0  0  0  0  0  0
  199.1625  182.8506  155.2915 N   0  0  0  0  0  0  0  0  0  0  0  0
  198.2616  183.1946  154.3379 C   0  0  0  0  0  0  0  0  0  0  0  0
  197.8544  184.5398  154.2511 N   0  0  0  0  0  0  0  0  0  0  0  0
  198.0207  185.4515  155.3814 C   0  0  1  0  0  0  0  0  0  0  0  0
  197.7433  184.9203  156.7944 C   0  0  0  0  0  0  0  0  0  0  0  0
  196.8565  183.8433  157.0176 C   0  0  0  0  0  0  0  0  0  0  0  0
  196.7029  183.2947  158.3057 C   0  0  0  0  0  0  0  0  0  0  0  0
  197.4005  183.8481  159.3990 C   0  0  0  0  0  0  0  0  0  0  0  0
  198.2532  184.9527  159.1908 C   0  0  0  0  0  0  0  0  0  0  0  0
  198.4216  185.4843  157.8962 C   0  0  0  0  0  0  0  0  0  0  0  0
  195.7966  182.0843  158.4765 C   0  0  1  0  0  0  0  0  0  0  0  0
  194.3794  182.4011  158.1644 N   0  0  2  0  0  0  0  0  0  0  0  0
  193.8738  183.6096  158.8598 C   0  0  2  0  0  0  0  0  0  0  0  0
  193.4888  181.2291  158.3027 C   0  0  2  0  0  0  0  0  0  0  0  0
  197.6838  182.1958  153.5242 C   0  0  0  0  0  0  0  0  0  0  0  0
  198.0627  180.8659  153.7882 C   0  0  0  0  0  0  0  0  0  0  0  0
  198.8598  180.5751  154.8276 N   0  0  0  0  0  0  0  0  0  0  0  0
  197.6361  179.8066  152.9757 C   0  0  0  0  0  0  0  0  0  0  0  0
  196.7905  180.0585  151.8746 C   0  0  0  0  0  0  0  0  0  0  0  0
  196.3458  181.3791  151.6361 C   0  0  0  0  0  0  0  0  0  0  0  0
  196.7739  182.4491  152.4573 C   0  0  0  0  0  0  0  0  0  0  0  0
  202.0106  179.9507  157.8031 C   0  0  2  0  0  0  0  0  0  0  0  0
  199.9758  177.2726  157.1201 H   0  0  0  0  0  0  0  0  0  0  0  0
  199.9681  175.5800  155.3376 H   0  0  0  0  0  0  0  0  0  0  0  0
  201.5028  178.5082  152.5614 H   0  0  0  0  0  0  0  0  0  0  0  0
  199.9297  179.5522  157.6510 H   0  0  0  0  0  0  0  0  0  0  0  0
  200.6479  182.0219  157.0715 H   0  0  0  0  0  0  0  0  0  0  0  0
  197.0757  184.7308  153.6402 H   0  0  0  0  0  0  0  0  0  0  0  0
  199.0541  185.7922  155.3432 H   0  0  0  0  0  0  0  0  0  0  0  0
  197.3896  186.3258  155.2008 H   0  0  0  0  0  0  0  0  0  0  0  0
  196.2961  183.4030  156.2008 H   0  0  0  0  0  0  0  0  0  0  0  0
  197.2858  183.4234  160.3925 H   0  0  0  0  0  0  0  0  0  0  0  0
  198.8058  185.3693  160.0211 H   0  0  0  0  0  0  0  0  0  0  0  0
  199.1279  186.2857  157.7399 H   0  0  0  0  0  0  0  0  0  0  0  0
  196.1573  181.2969  157.8123 H   0  0  0  0  0  0  0  0  0  0  0  0
  195.8757  181.6962  159.4927 H   0  0  0  0  0  0  0  0  0  0  0  0
  193.9704  183.4850  159.9385 H   0  0  0  0  0  0  0  0  0  0  0  0
  192.8310  183.7931  158.5941 H   0  0  0  0  0  0  0  0  0  0  0  0
  194.4281  184.5102  158.5765 H   0  0  0  0  0  0  0  0  0  0  0  0
  193.4617  180.8918  159.3338 H   0  0  0  0  0  0  0  0  0  0  0  0
  193.8415  180.4081  157.6789 H   0  0  0  0  0  0  0  0  0  0  0  0
  192.4779  181.4749  157.9698 H   0  0  0  0  0  0  0  0  0  0  0  0
  198.0034  178.8077  153.1429 H   0  0  0  0  0  0  0  0  0  0  0  0
  196.4558  179.2349  151.2454 H   0  0  0  0  0  0  0  0  0  0  0  0
  195.6393  181.5583  150.8327 H   0  0  0  0  0  0  0  0  0  0  0  0
  196.4014  183.4495  152.2545 H   0  0  0  0  0  0  0  0  0  0  0  0
  202.2512  178.9548  158.1857 H   0  0  0  0  0  0  0  0  0  0  0  0
  201.9445  180.6282  158.6588 H   0  0  0  0  0  0  0  0  0  0  0  0
  202.8412  180.2599  157.1682 H   0  0  0  0  0  0  0  0  0  0  0  0
  199.0700  179.5765  155.0332 H   0  0  0  0  0  0  0  0  0  0  0  0
  194.3171  182.6300  157.1765 H   0  0  0  0  0  0  0  0  0  0  0  0
  1  2  1  0
  2  3  2  0
  2  9  1  0
  3  4  1  0
  3 10  1  0
  4  5  2  0
  4 35  1  0
  5  6  1  0
  5 36  1  0
  6  7  1  0
  6  9  2  0
  7  8  3  0
  9 37  1  0
 10 11  1  0
 10 34  1  0
 10 38  1  1
 11 12  1  0
 11 39  1  0
 12 13  1  0
 12 29  2  0
 13 14  2  0
 14 15  1  0
 14 27  1  0
 15 16  1  0
 15 40  1  0
 16 17  1  0
 16 41  1  1
 16 42  1  0
 17 18  2  0
 17 22  1  0
 18 19  1  0
 18 43  1  0
 19 20  2  0
 19 23  1  0
 20 21  1  0
 20 44  1  0
 21 22  2  0
 21 45  1  0
 22 46  1  0
 23 24  1  0
 23 47  1  6
 23 48  1  0
 24 25  1  0
 24 26  1  0
 24 63  1  6
 25 49  1  1
 25 50  1  0
 25 51  1  0
 26 52  1  1
 26 53  1  0
 26 54  1  0
 27 28  1  0
 27 33  2  0
 28 29  1  0
 28 30  2  0
 29 62  1  0
 30 31  1  0
 30 55  1  0
 31 32  2  0
 31 56  1  0
 32 33  1  0
 32 57  1  0
 33 58  1  0
 34 59  1  1
 34 60  1  0
 34 61  1  0
M  CHG  2  24   1  29   1
M  END
>  <s_epik_cmdline>  (651) 
J2VwaWtfcHl0aG9uJywgJy1waCcsICc3LjAwMDAwMCcsICctcGh0JywgJzIuMDAwMDAwJywgJy1tcycsICcxNicsICctdG4nLCAnOCcsICctbWEnLCAnMjAwJywgJy1pbWFlJywgJzxpbmZpbGUubWFlPicsICctb21hZScsICc8b3V0ZmlsZS5tYWU+Jw==

>  <s_epik_input>  (651) 
TiNDYyhbY0hdMSlbY0hdW2NIXWMoYzFGKVtDQEBIXShbQ0gzXSlbTkhdYyhuYyhjMjMpW2NIXVtjSF1bY0hdW2NIXTMpbmMyW05IXVtDSDJdYzRbY0hdYyhbY0hdW2NIXVtjSF00KVtDSDJdTihbQ0gzXSlbQ0gzXQ==

>  <s_i_glide_gridfile>  (651) 
ATP-Grid

>  <s_lp_Force_Field>  (651) 
OPLS_2005

>  <s_lp_Variant>  (651) 
m_282030aaa____21916804____22360182____21940090-1

>  <s_lp_label>  (651) 
1705_sdstereoexpander_1_neutralizer_1_epik_1_stereoizer_1

>  <s_m_source_file>  (651) 
ATP-VSW-LIGPREP-002-in.maegz

>  <s_sd_BIOSOLVEIT.INFINISEE\_QUERY\_NAME>  (651) 
Ref-Lig

>  <s_sd_BIOSOLVEIT.INFINISEE\_QUERY\_SMILES>  (651) 
S(c1nc2c(cc1C[NH2+]Cc3ccc(cc3)C[NH+](C)C)cccc2)Cc4ccccc4

>  <s_sd_BIOSOLVEIT.INFINISEE\_REACTION\_NAME>  (651) 
m_282030aaa

>  <s_sd_BIOSOLVEIT.INFINISEE\_REAGENT1\_SMILES>  (651) 
[R1*]NC(c1c(F)cc(C#N)cc1)C

>  <s_sd_BIOSOLVEIT.INFINISEE\_REAGENT2\_SMILES>  (651) 
[R2*]c1nc([R1*])c2c(n1)cccc2

>  <s_sd_BIOSOLVEIT.INFINISEE\_REAGENT3\_SMILES>  (651) 
[R2*]NCc1cc(ccc1)CN(C)C

>  <s_sd_BIOSOLVEIT.INFINISEE\_SPACE>  (651) 
REALSpace_44bn_2023-08

>  <s_vsw_compound_code>  (651) 
54530

>  <s_vsw_variant>  (651) 
54530-1

>  <r_epik_Charging_Adjusted_Penalty>  (651) 
0.11944587278758299

>  <r_epik_Ionization_Penalty>  (651) 
0.057700000000000001

>  <r_epik_Ionization_Penalty_Charging>  (651) 
0.057700000000000001

>  <r_epik_Ionization_Penalty_Neutral>  (651) 
0

>  <r_epik_State_Penalty>  (651) 
0.061800000000000001

>  <r_i_docking_score>  (651) 
-3.9295828016964802

>  <r_i_glide_ecoul>  (651) 
-9.1962051391601598

>  <r_i_glide_eff_state_penalty>  (651) 
0.061800000000000001

>  <r_i_glide_einternal>  (651) 
2.20277047157288

>  <r_i_glide_emodel>  (651) 
-61.234310269583901

>  <r_i_glide_energy>  (651) 
-44.026218414306598

>  <r_i_glide_erotb>  (651) 
0.67492909152656

>  <r_i_glide_esite>  (651) 
-0.123874328001693

>  <r_i_glide_evdw>  (651) 
-34.830013275146499

>  <r_i_glide_gscore>  (651) 
-3.9913828016964801

>  <r_i_glide_hbond>  (651) 
-0.20000000000000001

>  <r_i_glide_ligand_efficiency>  (651) 
-0.115575964755779

>  <r_i_glide_ligand_efficiency_ln>  (651) 
-0.86815506195890502

>  <r_i_glide_ligand_efficiency_sa>  (651) 
-0.374421258926737

>  <r_i_glide_lipo>  (651) 
-0.850277443968946

>  <r_i_glide_metal>  (651) 
-0

>  <r_i_glide_rewards>  (651) 
-0.37122868662105701

>  <r_lp_Energy>  (651) 
22.147963000000001

>  <r_qp_ACxDN^.5/SA>  (651) 
0.0117161

>  <r_qp_CIQPlogS>  (651) 
-7.0659999999999998

>  <r_qp_EA(eV)>  (651) 
0.85999999999999999

>  <r_qp_FISA>  (651) 
98.379999999999995

>  <r_qp_FOSA>  (651) 
282.89299999999997

>  <r_qp_IP(eV)>  (651) 
8.0800000000000001

>  <r_qp_Jm>  (651) 
9.2741946841227004e-05

>  <r_qp_PISA>  (651) 
376.06200000000001

>  <r_qp_PSA>  (651) 
70.510000000000005

>  <r_qp_PercentHumanOralAbsorption>  (651) 
100

>  <r_qp_QPPCaco>  (651) 
288.31099999999998

>  <r_qp_QPPMDCK>  (651) 
201.244

>  <r_qp_QPlogBB>  (651) 
-0.56599999999999995

>  <r_qp_QPlogHERG>  (651) 
-7.46

>  <r_qp_QPlogKhsa>  (651) 
0.84299999999999997

>  <r_qp_QPlogKp>  (651) 
-3.206

>  <r_qp_QPlogPC16>  (651) 
15.387

>  <r_qp_QPlogPo/w>  (651) 
4.8410000000000002

>  <r_qp_QPlogPoct>  (651) 
23.116

>  <r_qp_QPlogPw>  (651) 
12.19

>  <r_qp_QPlogS>  (651) 
-6.484

>  <r_qp_QPpolrz>  (651) 
49.655000000000001

>  <r_qp_SASA>  (651) 
784.59299999999996

>  <r_qp_SAamideO>  (651) 
0

>  <r_qp_SAfluorine>  (651) 
27.257999999999999

>  <r_qp_WPSA>  (651) 
27.257999999999999

>  <r_qp_accptHB>  (651) 
6.5

>  <r_qp_dip^2/V>  (651) 
0.0118359

>  <r_qp_dipole>  (651) 
4.1420000000000003

>  <r_qp_donorHB>  (651) 
2

>  <r_qp_glob>  (651) 
0.78935540000000004

>  <r_qp_mol_MW>  (651) 
454.54899999999998

>  <r_qp_volume>  (651) 
1449.1990000000001

>  <r_sd_BIOSOLVEIT.INFINISEE\_FTREES\_SIMILARITY>  (651) 
0.90500000000000003

>  <r_sd_BIOSOLVEIT.LOGP>  (651) 
4.0702800000000003

>  <r_sd_BIOSOLVEIT.MOLECULAR\_WEIGHT>  (651) 
455.55799999999999

>  <r_sd_BIOSOLVEIT.TPSA>  (651) 
78.069999999999993

>  <i_epik_Tot_Q>  (651) 
2

>  <i_epik_Tot_abs_Q>  (651) 
2

>  <i_f3d_flags>  (651) 
0

>  <i_i_glide_confnum>  (651) 
4

>  <i_i_glide_lignum>  (651) 
592

>  <i_i_glide_posenum>  (651) 
2

>  <i_i_glide_rotatable_bonds>  (651) 
8

>  <i_lp_mmshare_version>  (651) 
65135

>  <i_m_ct_format>  (651) 
2

>  <i_m_source_file_index>  (651) 
1705

>  <i_qp_#NandO>  (651) 
6

>  <i_qp_#acid>  (651) 
0

>  <i_qp_#amide>  (651) 
0

>  <i_qp_#amidine>  (651) 
0

>  <i_qp_#amine>  (651) 
1

>  <i_qp_#in34>  (651) 
0

>  <i_qp_#in56>  (651) 
22

>  <i_qp_#metab>  (651) 
4

>  <i_qp_#nonHatm>  (651) 
34

>  <i_qp_#noncon>  (651) 
0

>  <i_qp_#ringatoms>  (651) 
22

>  <i_qp_#rotor>  (651) 
9

>  <i_qp_#rtvFG>  (651) 
0

>  <i_qp_#stars>  (651) 
0

>  <i_qp_CNS>  (651) 
1

>  <i_qp_HumanOralAbsorption>  (651) 
1

>  <i_qp_RuleOfFive>  (651) 
0

>  <i_qp_RuleOfThree>  (651) 
1

>  <i_sd_BIOSOLVEIT.INFINISEE\_REAGENT1\_NAME>  (651) 
21916804

>  <i_sd_BIOSOLVEIT.INFINISEE\_REAGENT2\_NAME>  (651) 
22360182

>  <i_sd_BIOSOLVEIT.INFINISEE\_REAGENT3\_NAME>  (651) 
21940090

>  <i_sd_BIOSOLVEIT.INFINISEE\_RESULT\_RANK>  (651) 
72019

>  <i_sd_version>  (651) 
0

>  <b_lp_Chiralities_Consistent>  (651) 
1

>  <b_sd_chiral_flag>  (651) 
0

>  <canonical_id>  (651) 
ATP-HTVS-6612EA4E183C

>  <compound_code>  (651) 
54530

>  <title>  (651) 
m_282030aaa____21916804____22360182____21940090

>  <variant>  (651) 
54530-1

>  <source_file>  (651) 
运行/运行/ATP-VSW/ATP-VSW-DOCK_HTVS_1-002_lib.maegz

>  <canonical_smiles>  (651) 
C[C@@H](Nc1nc(NCc2cccc(C[NH+](C)C)c2)c2ccccc2[nH+]1)c1ccc(C#N)cc1F

>  <scaffold>  (651) 
c1ccc(CNc2nc(NCc3ccccc3)c3ccccc3[nH+]2)cc1

>  <molecular_formula>  (651) 
C27H29FN6+2

$$$$
ATP-HTVS-665A86DAD15F
     RDKit          3D

 56 58  0  0  0  0  0  0  0  0999 V2000
  197.1360  185.4337  149.2995 Cl  0  0  0  0  0  0  0  0  0  0  0  0
  197.8825  184.3549  150.4204 C   0  0  0  0  0  0  0  0  0  0  0  0
  198.7701  184.8322  151.4092 C   0  0  0  0  0  0  0  0  0  0  0  0
  199.3855  183.9278  152.2918 C   0  0  0  0  0  0  0  0  0  0  0  0
  199.1322  182.5426  152.1877 C   0  0  0  0  0  0  0  0  0  0  0  0
  198.1862  182.0634  151.2524 C   0  0  0  0  0  0  0  0  0  0  0  0
  197.8314  180.6731  151.1908 N   0  0  0  0  0  0  0  0  0  0  0  0
  197.4775  179.9082  152.2591 C   0  0  0  0  0  0  0  0  0  0  0  0
  197.0927  178.7430  152.1210 O   0  0  0  0  0  0  0  0  0  0  0  0
  197.6088  180.4226  153.6494 C   0  0  0  0  0  0  0  0  0  0  0  0
  196.5705  181.7409  154.1378 S   0  0  0  0  0  0  0  0  0  0  0  0
  197.3720  181.8352  155.6826 C   0  0  0  0  0  0  0  0  0  0  0  0
  196.9931  183.1192  156.7639 Cl  0  0  0  0  0  0  0  0  0  0  0  0
  198.2959  180.8453  155.8546 C   0  0  0  0  0  0  0  0  0  0  0  0
  198.4104  180.0141  154.6942 C   0  0  0  0  0  0  0  0  0  0  0  0
  199.3204  178.9383  154.6363 N   0  0  0  0  0  0  0  0  0  0  0  0
  199.9890  178.3956  155.8112 C   0  0  1  0  0  0  0  0  0  0  0  0
  200.9811  177.2876  155.5038 C   0  0  0  0  0  0  0  0  0  0  0  0
  201.2370  176.2897  156.4662 C   0  0  0  0  0  0  0  0  0  0  0  0
  202.1682  175.2692  156.1937 C   0  0  0  0  0  0  0  0  0  0  0  0
  202.8519  175.2299  154.9562 C   0  0  0  0  0  0  0  0  0  0  0  0
  202.6254  176.2593  154.0190 C   0  0  0  0  0  0  0  0  0  0  0  0
  201.6885  177.2735  154.2820 C   0  0  0  0  0  0  0  0  0  0  0  0
  203.7952  174.0851  154.6230 C   0  0  1  0  0  0  0  0  0  0  0  0
  203.1552  173.0356  153.7649 N   0  0  2  0  0  0  0  0  0  0  0  0
  202.9898  173.4545  152.3493 C   0  0  2  0  0  0  0  0  0  0  0  0
  201.9129  172.4820  154.3368 C   0  0  2  0  0  0  0  0  0  0  0  0
  197.8794  180.0246  149.8671 C   0  0  2  0  0  0  0  0  0  0  0  0
  197.5884  182.9777  150.3539 C   0  0  0  0  0  0  0  0  0  0  0  0
  199.0829  186.3146  151.5337 C   0  0  2  0  0  0  0  0  0  0  0  0
  200.0408  184.2813  153.0708 H   0  0  0  0  0  0  0  0  0  0  0  0
  199.6744  181.8887  152.8556 H   0  0  0  0  0  0  0  0  0  0  0  0
  198.8970  180.7102  156.7412 H   0  0  0  0  0  0  0  0  0  0  0  0
  199.3032  178.3423  153.8173 H   0  0  0  0  0  0  0  0  0  0  0  0
  200.5364  179.1863  156.3216 H   0  0  0  0  0  0  0  0  0  0  0  0
  199.2289  178.0291  156.5040 H   0  0  0  0  0  0  0  0  0  0  0  0
  200.7198  176.3076  157.4160 H   0  0  0  0  0  0  0  0  0  0  0  0
  202.3567  174.5095  156.9378 H   0  0  0  0  0  0  0  0  0  0  0  0
  203.1517  176.2708  153.0755 H   0  0  0  0  0  0  0  0  0  0  0  0
  201.5233  178.0317  153.5319 H   0  0  0  0  0  0  0  0  0  0  0  0
  204.6956  174.4658  154.1518 H   0  0  0  0  0  0  0  0  0  0  0  0
  204.1217  173.6140  155.5542 H   0  0  0  0  0  0  0  0  0  0  0  0
  202.2895  174.2800  152.2398 H   0  0  0  0  0  0  0  0  0  0  0  0
  202.6001  172.6239  151.7530 H   0  0  0  0  0  0  0  0  0  0  0  0
  203.9489  173.7498  151.9242 H   0  0  0  0  0  0  0  0  0  0  0  0
  201.1127  173.2195  154.4116 H   0  0  0  0  0  0  0  0  0  0  0  0
  202.1119  172.0679  155.3272 H   0  0  0  0  0  0  0  0  0  0  0  0
  201.5470  171.6638  153.7108 H   0  0  0  0  0  0  0  0  0  0  0  0
  196.9793  179.4503  149.6395 H   0  0  0  0  0  0  0  0  0  0  0  0
  198.7305  179.3327  149.8475 H   0  0  0  0  0  0  0  0  0  0  0  0
  198.0443  180.7179  149.0452 H   0  0  0  0  0  0  0  0  0  0  0  0
  196.8713  182.6348  149.6181 H   0  0  0  0  0  0  0  0  0  0  0  0
  199.7996  186.4888  152.3335 H   0  0  0  0  0  0  0  0  0  0  0  0
  198.1805  186.8887  151.7481 H   0  0  0  0  0  0  0  0  0  0  0  0
  199.5230  186.6674  150.6030 H   0  0  0  0  0  0  0  0  0  0  0  0
  203.7836  172.2504  153.7488 H   0  0  0  0  0  0  0  0  0  0  0  0
  1  2  1  0
  2  3  2  0
  2 29  1  0
  3  4  1  0
  3 30  1  0
  4  5  2  0
  4 31  1  0
  5  6  1  0
  5 32  1  0
  6  7  1  0
  6 29  2  0
  7  8  1  0
  7 28  1  0
  8  9  2  0
  8 10  1  0
 10 11  1  0
 10 15  2  0
 11 12  1  0
 12 13  1  0
 12 14  2  0
 14 15  1  0
 14 33  1  0
 15 16  1  0
 16 17  1  0
 16 34  1  0
 17 18  1  0
 17 35  1  1
 17 36  1  0
 18 19  1  0
 18 23  2  0
 19 20  2  0
 19 37  1  0
 20 21  1  0
 20 38  1  0
 21 22  2  0
 21 24  1  0
 22 23  1  0
 22 39  1  0
 23 40  1  0
 24 25  1  0
 24 41  1  6
 24 42  1  0
 25 26  1  0
 25 27  1  0
 25 56  1  6
 26 43  1  1
 26 44  1  0
 26 45  1  0
 27 46  1  1
 27 47  1  0
 27 48  1  0
 28 49  1  6
 28 50  1  0
 28 51  1  0
 29 52  1  0
 30 53  1  1
 30 54  1  0
 30 55  1  0
M  CHG  1  25   1
M  END
>  <s_epik_cmdline>  (652) 
J2VwaWtfcHl0aG9uJywgJy1waCcsICc3LjAwMDAwMCcsICctcGh0JywgJzIuMDAwMDAwJywgJy1tcycsICcxNicsICctdG4nLCAnOCcsICctbWEnLCAnMjAwJywgJy1pbWFlJywgJzxpbmZpbGUubWFlPicsICctb21hZScsICc8b3V0ZmlsZS5tYWU+Jw==

>  <s_epik_input>  (652) 
Q2xjMWMoW0NIM10pW2NIXVtjSF1jKFtjSF0xKU4oW0NIM10pQyg9TyljMnNjKENsKVtjSF1jMltOSF1bQ0gyXWMzW2NIXVtjSF1jKFtjSF1bY0hdMylbQ0gyXU4oW0NIM10pW0NIM10=

>  <s_i_glide_gridfile>  (652) 
ATP-Grid

>  <s_lp_Force_Field>  (652) 
OPLS_2005

>  <s_lp_Variant>  (652) 
rxn512b____EMOL31531197____EMOL49851977____EMOL50155899-1

>  <s_lp_label>  (652) 
2462_sdstereoexpander_1_neutralizer_1_epik_1_stereoizer_1

>  <s_m_source_file>  (652) 
ATP-VSW-LIGPREP-002-in.maegz

>  <s_sd_BIOSOLVEIT.INFINISEE\_QUERY\_NAME>  (652) 
Ref-Lig

>  <s_sd_BIOSOLVEIT.INFINISEE\_QUERY\_SMILES>  (652) 
S(c1nc2c(cc1C[NH2+]Cc3ccc(cc3)C[NH+](C)C)cccc2)Cc4ccccc4

>  <s_sd_BIOSOLVEIT.INFINISEE\_REACTION\_NAME>  (652) 
rxn512b

>  <s_sd_BIOSOLVEIT.INFINISEE\_REAGENT1\_NAME>  (652) 
EMOL31531197

>  <s_sd_BIOSOLVEIT.INFINISEE\_REAGENT1\_SMILES>  (652) 
Clc1c(ccc(NC)c1)C

>  <s_sd_BIOSOLVEIT.INFINISEE\_REAGENT2\_NAME>  (652) 
EMOL49851977

>  <s_sd_BIOSOLVEIT.INFINISEE\_REAGENT2\_SMILES>  (652) 
BrC1=C(SC(Cl)=C1)C(=O)O

>  <s_sd_BIOSOLVEIT.INFINISEE\_REAGENT3\_NAME>  (652) 
EMOL50155899

>  <s_sd_BIOSOLVEIT.INFINISEE\_REAGENT3\_SMILES>  (652) 
N(Cc1ccc(cc1)CN)(C)C

>  <s_sd_BIOSOLVEIT.INFINISEE\_SPACE>  (652) 
eXplore_7tr_2022-12

>  <s_vsw_compound_code>  (652) 
78754

>  <s_vsw_variant>  (652) 
78754-1

>  <r_epik_Charging_Adjusted_Penalty>  (652) 
0.080189274810459593

>  <r_epik_Ionization_Penalty>  (652) 
0.0402

>  <r_epik_Ionization_Penalty_Charging>  (652) 
0.040099999999999997

>  <r_epik_Ionization_Penalty_Neutral>  (652) 
0.0001

>  <r_epik_State_Penalty>  (652) 
0.040099999999999997

>  <r_i_docking_score>  (652) 
-3.6918479484698699

>  <r_i_glide_ecoul>  (652) 
-4.8019442558288601

>  <r_i_glide_eff_state_penalty>  (652) 
0.040099999999999997

>  <r_i_glide_einternal>  (652) 
5.8667955398559597

>  <r_i_glide_emodel>  (652) 
-46.354145517164703

>  <r_i_glide_energy>  (652) 
-37.505877971649198

>  <r_i_glide_erotb>  (652) 
0.65677567333271103

>  <r_i_glide_esite>  (652) 
-0.121173452458258

>  <r_i_glide_evdw>  (652) 
-32.703933715820298

>  <r_i_glide_gscore>  (652) 
-3.7319479484698701

>  <r_i_glide_hbond>  (652) 
-0.085035789100138606

>  <r_i_glide_ligand_efficiency>  (652) 
-0.123061598282329

>  <r_i_glide_ligand_efficiency_ln>  (652) 
-0.838828079797594

>  <r_i_glide_ligand_efficiency_sa>  (652) 
-0.38238099798397002

>  <r_i_glide_lipo>  (652) 
-1.22117607782559

>  <r_i_glide_metal>  (652) 
-0

>  <r_i_glide_rewards>  (652) 
-0.60584997825324405

>  <r_lp_Energy>  (652) 
34.831631000000002

>  <r_lp_tautomer_probability>  (652) 
0.99999274205267796

>  <r_qp_ACxDN^.5/SA>  (652) 
0

>  <r_qp_CIQPlogS>  (652) 
-5.4969999999999999

>  <r_qp_EA(eV)>  (652) 
0.48999999999999999

>  <r_qp_FISA>  (652) 
46.472000000000001

>  <r_qp_FOSA>  (652) 
344.90199999999999

>  <r_qp_IP(eV)>  (652) 
8.2989999999999995

>  <r_qp_Jm>  (652) 
0.0010792332568823699

>  <r_qp_PISA>  (652) 
188.12799999999999

>  <r_qp_PSA>  (652) 
45.356999999999999

>  <r_qp_PercentHumanOralAbsorption>  (652) 
100

>  <r_qp_QPPCaco>  (652) 
223.358

>  <r_qp_QPPMDCK>  (652) 
454.35000000000002

>  <r_qp_QPlogBB>  (652) 
0.77300000000000002

>  <r_qp_QPlogHERG>  (652) 
-6.2400000000000002

>  <r_qp_QPlogKhsa>  (652) 
0.84799999999999998

>  <r_qp_QPlogKp>  (652) 
-5.1660000000000004

>  <r_qp_QPlogPC16>  (652) 
12.941000000000001

>  <r_qp_QPlogPo/w>  (652) 
4.7939999999999996

>  <r_qp_QPlogPoct>  (652) 
17.742999999999999

>  <r_qp_QPlogPw>  (652) 
6.3819999999999997

>  <r_qp_QPlogS>  (652) 
-3.4660000000000002

>  <r_qp_QPpolrz>  (652) 
44.432000000000002

>  <r_qp_SASA>  (652) 
685.18499999999995

>  <r_qp_SAamideO>  (652) 
0

>  <r_qp_SAfluorine>  (652) 
0

>  <r_qp_WPSA>  (652) 
105.68300000000001

>  <r_qp_accptHB>  (652) 
5

>  <r_qp_dip^2/V>  (652) 
0.0147355

>  <r_qp_dipole>  (652) 
4.4290000000000003

>  <r_qp_donorHB>  (652) 
0

>  <r_qp_glob>  (652) 
0.85421820000000004

>  <r_qp_mol_MW>  (652) 
462.43599999999998

>  <r_qp_volume>  (652) 
1331.4280000000001

>  <r_sd_BIOSOLVEIT.INFINISEE\_FTREES\_SIMILARITY>  (652) 
0.91600000000000004

>  <r_sd_BIOSOLVEIT.LOGP>  (652) 
4.8965199999999998

>  <r_sd_BIOSOLVEIT.MOLECULAR\_WEIGHT>  (652) 
463.44900000000001

>  <r_sd_BIOSOLVEIT.TPSA>  (652) 
36.780000000000001

>  <i_epik_Tot_Q>  (652) 
1

>  <i_epik_Tot_abs_Q>  (652) 
1

>  <i_f3d_flags>  (652) 
0

>  <i_i_glide_confnum>  (652) 
6

>  <i_i_glide_lignum>  (652) 
1064

>  <i_i_glide_posenum>  (652) 
6

>  <i_i_glide_rotatable_bonds>  (652) 
8

>  <i_lp_mmshare_version>  (652) 
65135

>  <i_m_ct_format>  (652) 
2

>  <i_m_source_file_index>  (652) 
2462

>  <i_qp_#NandO>  (652) 
4

>  <i_qp_#acid>  (652) 
0

>  <i_qp_#amide>  (652) 
0

>  <i_qp_#amidine>  (652) 
0

>  <i_qp_#amine>  (652) 
2

>  <i_qp_#in34>  (652) 
0

>  <i_qp_#in56>  (652) 
17

>  <i_qp_#metab>  (652) 
6

>  <i_qp_#nonHatm>  (652) 
30

>  <i_qp_#noncon>  (652) 
0

>  <i_qp_#ringatoms>  (652) 
17

>  <i_qp_#rotor>  (652) 
7

>  <i_qp_#rtvFG>  (652) 
0

>  <i_qp_#stars>  (652) 
0

>  <i_qp_CNS>  (652) 
2

>  <i_qp_HumanOralAbsorption>  (652) 
3

>  <i_qp_RuleOfFive>  (652) 
0

>  <i_qp_RuleOfThree>  (652) 
0

>  <i_sd_BIOSOLVEIT.INFINISEE\_RESULT\_RANK>  (652) 
26982

>  <i_sd_version>  (652) 
0

>  <b_lp_Chiralities_Consistent>  (652) 
1

>  <b_sd_chiral_flag>  (652) 
0

>  <canonical_id>  (652) 
ATP-HTVS-665A86DAD15F

>  <compound_code>  (652) 
78754

>  <title>  (652) 
rxn512b____EMOL31531197____EMOL49851977____EMOL50155899

>  <variant>  (652) 
78754-1

>  <source_file>  (652) 
运行/运行/ATP-VSW/ATP-VSW-DOCK_HTVS_1-002_lib.maegz

>  <canonical_smiles>  (652) 
Cc1ccc(N(C)C(=O)c2sc(Cl)cc2NCc2ccc(C[NH+](C)C)cc2)cc1Cl

>  <scaffold>  (652) 
O=C(Nc1ccccc1)c1sccc1NCc1ccccc1

>  <molecular_formula>  (652) 
C23H26Cl2N3OS+

$$$$
ATP-HTVS-66618B00A972
     RDKit          3D

 60 62  0  0  0  0  0  0  0  0999 V2000
  197.0565  185.5114  159.7188 S   0  0  0  0  0  0  0  0  0  0  0  0
  195.3677  185.0545  159.8569 C   0  0  0  0  0  0  0  0  0  0  0  0
  195.1177  183.8031  159.4738 N   0  0  0  0  0  0  0  0  0  0  0  0
  196.2717  183.1359  159.0632 C   0  0  0  0  0  0  0  0  0  0  0  0
  197.4062  183.9057  159.1642 C   0  0  0  0  0  0  0  0  0  0  0  0
  196.1835  181.7389  158.5373 C   0  0  1  0  0  0  0  0  0  0  0  0
  195.9933  181.7409  157.0760 N   0  0  1  0  0  0  0  0  0  0  0  0
  197.1678  182.1842  156.2975 C   0  0  1  0  0  0  0  0  0  0  0  0
  197.1558  181.6184  154.8833 C   0  0  0  0  0  0  0  0  0  0  0  0
  197.4963  180.2648  154.5907 C   0  0  0  0  0  0  0  0  0  0  0  0
  197.3991  179.8192  153.2521 C   0  0  0  0  0  0  0  0  0  0  0  0
  197.0489  180.7013  152.2133 C   0  0  0  0  0  0  0  0  0  0  0  0
  197.0132  180.2568  150.9316 F   0  0  0  0  0  0  0  0  0  0  0  0
  196.7449  182.0397  152.5020 C   0  0  0  0  0  0  0  0  0  0  0  0
  196.7835  182.4897  153.8328 C   0  0  0  0  0  0  0  0  0  0  0  0
  197.9459  179.2639  155.6693 C   0  0  1  0  0  0  0  0  0  0  0  0
  199.4262  179.0545  155.7146 N   0  0  1  0  0  0  0  0  0  0  0  0
  199.8796  178.4890  157.0175 C   0  0  1  0  0  0  0  0  0  0  0  0
  201.4002  178.5668  157.2400 C   0  0  2  0  0  0  0  0  0  0  0  0
  199.9345  178.2635  154.5620 C   0  0  2  0  0  0  0  0  0  0  0  0
  194.3159  185.9878  160.3475 C   0  0  1  0  0  0  0  0  0  0  0  0
  194.5599  186.2362  161.7269 O   0  0  0  0  0  0  0  0  0  0  0  0
  193.7166  187.1335  162.3199 C   0  0  0  0  0  0  0  0  0  0  0  0
  192.6935  186.6927  163.1904 C   0  0  0  0  0  0  0  0  0  0  0  0
  191.8851  187.6378  163.8581 C   0  0  0  0  0  0  0  0  0  0  0  0
  192.0528  189.0235  163.6531 C   0  0  0  0  0  0  0  0  0  0  0  0
  191.2413  189.8994  164.3259 O   0  0  0  0  0  0  0  0  0  0  0  0
  191.3965  191.2913  164.0759 C   0  0  2  0  0  0  0  0  0  0  0  0
  193.0751  189.4509  162.7597 C   0  0  0  0  0  0  0  0  0  0  0  0
  193.8983  188.5059  162.1302 C   0  0  0  0  0  0  0  0  0  0  0  0
  195.8351  180.7576  156.8909 H   0  0  0  0  0  0  0  0  0  0  0  0
  198.4163  183.6377  158.9041 H   0  0  0  0  0  0  0  0  0  0  0  0
  197.0808  181.1697  158.7768 H   0  0  0  0  0  0  0  0  0  0  0  0
  195.3647  181.1898  158.9987 H   0  0  0  0  0  0  0  0  0  0  0  0
  197.1682  183.2793  156.2695 H   0  0  0  0  0  0  0  0  0  0  0  0
  198.1079  181.8943  156.7720 H   0  0  0  0  0  0  0  0  0  0  0  0
  197.6036  178.7922  152.9934 H   0  0  0  0  0  0  0  0  0  0  0  0
  196.4545  182.7171  151.7085 H   0  0  0  0  0  0  0  0  0  0  0  0
  196.5136  183.5137  154.0403 H   0  0  0  0  0  0  0  0  0  0  0  0
  197.6076  179.6185  156.6388 H   0  0  0  0  0  0  0  0  0  0  0  0
  197.4335  178.3096  155.5287 H   0  0  0  0  0  0  0  0  0  0  0  0
  199.4079  179.0417  157.8285 H   0  0  0  0  0  0  0  0  0  0  0  0
  199.5502  177.4533  157.1081 H   0  0  0  0  0  0  0  0  0  0  0  0
  201.6625  178.1337  158.2088 H   0  0  0  0  0  0  0  0  0  0  0  0
  201.7395  179.6021  157.2393 H   0  0  0  0  0  0  0  0  0  0  0  0
  201.9663  178.0162  156.4880 H   0  0  0  0  0  0  0  0  0  0  0  0
  199.4762  177.2705  154.5681 H   0  0  0  0  0  0  0  0  0  0  0  0
  201.0198  178.1363  154.5842 H   0  0  0  0  0  0  0  0  0  0  0  0
  199.7098  178.7439  153.6076 H   0  0  0  0  0  0  0  0  0  0  0  0
  194.3478  186.9057  159.7625 H   0  0  0  0  0  0  0  0  0  0  0  0
  193.3318  185.5395  160.2323 H   0  0  0  0  0  0  0  0  0  0  0  0
  192.5523  185.6395  163.3696 H   0  0  0  0  0  0  0  0  0  0  0  0
  191.1450  187.3101  164.5584 H   0  0  0  0  0  0  0  0  0  0  0  0
  190.7046  191.8925  164.6615 H   0  0  0  0  0  0  0  0  0  0  0  0
  191.2101  191.5093  163.0283 H   0  0  0  0  0  0  0  0  0  0  0  0
  192.3919  191.6141  164.3595 H   0  0  0  0  0  0  0  0  0  0  0  0
  193.2746  190.5031  162.5329 H   0  0  0  0  0  0  0  0  0  0  0  0
  194.6676  188.8431  161.4421 H   0  0  0  0  0  0  0  0  0  0  0  0
  199.8268  179.9766  155.6639 H   0  0  0  0  0  0  0  0  0  0  0  0
  195.1609  182.2429  156.7904 H   0  0  0  0  0  0  0  0  0  0  0  0
  1  2  1  0
  1  5  1  0
  2  3  2  0
  2 21  1  0
  3  4  1  0
  4  5  2  0
  4  6  1  0
  5 32  1  0
  6  7  1  0
  6 33  1  6
  6 34  1  0
  7  8  1  0
  7 31  1  6
  7 60  1  0
  8  9  1  0
  8 35  1  6
  8 36  1  0
  9 10  2  0
  9 15  1  0
 10 11  1  0
 10 16  1  0
 11 12  2  0
 11 37  1  0
 12 13  1  0
 12 14  1  0
 14 15  2  0
 14 38  1  0
 15 39  1  0
 16 17  1  0
 16 40  1  1
 16 41  1  0
 17 18  1  0
 17 20  1  0
 17 59  1  6
 18 19  1  0
 18 42  1  1
 18 43  1  0
 19 44  1  1
 19 45  1  0
 19 46  1  0
 20 47  1  6
 20 48  1  0
 20 49  1  0
 21 22  1  0
 21 50  1  6
 21 51  1  0
 22 23  1  0
 23 24  1  0
 23 30  2  0
 24 25  2  0
 24 52  1  0
 25 26  1  0
 25 53  1  0
 26 27  1  0
 26 29  2  0
 27 28  1  0
 28 54  1  1
 28 55  1  0
 28 56  1  0
 29 30  1  0
 29 57  1  0
 30 58  1  0
M  CHG  2   7   1  17   1
M  END
>  <s_epik_cmdline>  (653) 
J2VwaWtfcHl0aG9uJywgJy1waCcsICc3LjAwMDAwMCcsICctcGh0JywgJzIuMDAwMDAwJywgJy1tcycsICcxNicsICctdG4nLCAnOCcsICctbWEnLCAnMjAwJywgJy1pbWFlJywgJzxpbmZpbGUubWFlPicsICctb21hZScsICc8b3V0ZmlsZS5tYWU+Jw==

>  <s_epik_input>  (653) 
W0NIM11PYyhbY0hdW2NIXTEpW2NIXVtjSF1jMU9bQ0gyXWMyc1tjSF1jKG4yKVtDSDJdW05IXVtDSDJdYzNjKFtjSF1jKEYpW2NIXVtjSF0zKVtDSDJdTihbQ0gzXSlbQ0gyXVtDSDNd

>  <s_i_glide_gridfile>  (653) 
ATP-Grid

>  <s_lp_Force_Field>  (653) 
OPLS_2005

>  <s_lp_Variant>  (653) 
m_270004bbb____24792670____7548988-1

>  <s_lp_label>  (653) 
1379_sdstereoexpander_1_neutralizer_1_epik_1_stereoizer_1

>  <s_m_source_file>  (653) 
ATP-VSW-LIGPREP-002-in.maegz

>  <s_sd_BIOSOLVEIT.INFINISEE\_QUERY\_NAME>  (653) 
Ref-Lig

>  <s_sd_BIOSOLVEIT.INFINISEE\_QUERY\_SMILES>  (653) 
S(c1nc2c(cc1C[NH2+]Cc3ccc(cc3)C[NH+](C)C)cccc2)Cc4ccccc4

>  <s_sd_BIOSOLVEIT.INFINISEE\_REACTION\_NAME>  (653) 
m_270004bbb

>  <s_sd_BIOSOLVEIT.INFINISEE\_REAGENT1\_SMILES>  (653) 
[R1*]NCc1c(cc(F)cc1)CN(CC)C

>  <s_sd_BIOSOLVEIT.INFINISEE\_REAGENT2\_SMILES>  (653) 
[R1*]CC=1N=C(SC1)COc2ccc(OC)cc2

>  <s_sd_BIOSOLVEIT.INFINISEE\_SPACE>  (653) 
REALSpace_44bn_2023-08

>  <s_vsw_compound_code>  (653) 
44098

>  <s_vsw_variant>  (653) 
44098-1

>  <r_epik_Charging_Adjusted_Penalty>  (653) 
0.47514642973629001

>  <r_epik_Ionization_Penalty>  (653) 
0.23899999999999999

>  <r_epik_Ionization_Penalty_Charging>  (653) 
0.23899999999999999

>  <r_epik_Ionization_Penalty_Neutral>  (653) 
0

>  <r_epik_State_Penalty>  (653) 
0.23619999999999999

>  <r_i_docking_score>  (653) 
-6.7289102870080901

>  <r_i_glide_ecoul>  (653) 
-18.263252258300799

>  <r_i_glide_eff_state_penalty>  (653) 
0.23619999999999999

>  <r_i_glide_einternal>  (653) 
12.567302703857401

>  <r_i_glide_emodel>  (653) 
-91.086170915954398

>  <r_i_glide_energy>  (653) 
-58.038726806640597

>  <r_i_glide_erotb>  (653) 
0.96117231633538802

>  <r_i_glide_esite>  (653) 
-0.153333407566351

>  <r_i_glide_evdw>  (653) 
-39.775474548339801

>  <r_i_glide_gscore>  (653) 
-6.9651102870080903

>  <r_i_glide_hbond>  (653) 
-0.36320661323952602

>  <r_i_glide_ligand_efficiency>  (653) 
-0.22429700956693599

>  <r_i_glide_ligand_efficiency_ln>  (653) 
-1.5288817345580701

>  <r_i_glide_ligand_efficiency_sa>  (653) 
-0.69694295832448105

>  <r_i_glide_lipo>  (653) 
-1.6274739775753

>  <r_i_glide_metal>  (653) 
-0

>  <r_i_glide_rewards>  (653) 
-1.0540070388001901

>  <r_lp_Energy>  (653) 
23.150915999999999

>  <r_lp_tautomer_probability>  (653) 
1

>  <r_qp_ACxDN^.5/SA>  (653) 
0.0085348000000000004

>  <r_qp_CIQPlogS>  (653) 
-4.2679999999999998

>  <r_qp_EA(eV)>  (653) 
0.81799999999999995

>  <r_qp_FISA>  (653) 
18.178000000000001

>  <r_qp_FOSA>  (653) 
371.44499999999999

>  <r_qp_IP(eV)>  (653) 
8.6750000000000007

>  <r_qp_Jm>  (653) 
0.0071453683930328901

>  <r_qp_PISA>  (653) 
283.39999999999998

>  <r_qp_PSA>  (653) 
45.182000000000002

>  <r_qp_PercentHumanOralAbsorption>  (653) 
100

>  <r_qp_QPPCaco>  (653) 
414.303

>  <r_qp_QPPMDCK>  (653) 
713.90499999999997

>  <r_qp_QPlogBB>  (653) 
0.71999999999999997

>  <r_qp_QPlogHERG>  (653) 
-7.774

>  <r_qp_QPlogKhsa>  (653) 
0.60699999999999998

>  <r_qp_QPlogKp>  (653) 
-3.9249999999999998

>  <r_qp_QPlogPC16>  (653) 
13.486000000000001

>  <r_qp_QPlogPo/w>  (653) 
4.7089999999999996

>  <r_qp_QPlogPoct>  (653) 
19.518000000000001

>  <r_qp_QPlogPw>  (653) 
9.0749999999999993

>  <r_qp_QPlogS>  (653) 
-3.8540000000000001

>  <r_qp_QPpolrz>  (653) 
44.761000000000003

>  <r_qp_SASA>  (653) 
761.58900000000006

>  <r_qp_SAamideO>  (653) 
0

>  <r_qp_SAfluorine>  (653) 
46.972000000000001

>  <r_qp_WPSA>  (653) 
88.566000000000003

>  <r_qp_accptHB>  (653) 
6.5

>  <r_qp_dip^2/V>  (653) 
0.0054665

>  <r_qp_dipole>  (653) 
2.7480000000000002

>  <r_qp_donorHB>  (653) 
1

>  <r_qp_glob>  (653) 
0.78752089999999997

>  <r_qp_mol_MW>  (653) 
429.55099999999999

>  <r_qp_volume>  (653) 
1381.105

>  <r_sd_BIOSOLVEIT.INFINISEE\_FTREES\_SIMILARITY>  (653) 
0.90900000000000003

>  <r_sd_BIOSOLVEIT.LOGP>  (653) 
2.1680000000000001

>  <r_sd_BIOSOLVEIT.MOLECULAR\_WEIGHT>  (653) 
431.572

>  <r_sd_BIOSOLVEIT.TPSA>  (653) 
52.399999999999999

>  <i_epik_Tot_Q>  (653) 
2

>  <i_epik_Tot_abs_Q>  (653) 
2

>  <i_f3d_flags>  (653) 
0

>  <i_i_glide_confnum>  (653) 
8

>  <i_i_glide_lignum>  (653) 
481

>  <i_i_glide_posenum>  (653) 
7

>  <i_i_glide_rotatable_bonds>  (653) 
11

>  <i_lp_mmshare_version>  (653) 
65135

>  <i_m_ct_format>  (653) 
2

>  <i_m_source_file_index>  (653) 
1379

>  <i_qp_#NandO>  (653) 
5

>  <i_qp_#acid>  (653) 
0

>  <i_qp_#amide>  (653) 
0

>  <i_qp_#amidine>  (653) 
0

>  <i_qp_#amine>  (653) 
2

>  <i_qp_#in34>  (653) 
0

>  <i_qp_#in56>  (653) 
17

>  <i_qp_#metab>  (653) 
9

>  <i_qp_#nonHatm>  (653) 
30

>  <i_qp_#noncon>  (653) 
0

>  <i_qp_#ringatoms>  (653) 
17

>  <i_qp_#rotor>  (653) 
11

>  <i_qp_#rtvFG>  (653) 
0

>  <i_qp_#stars>  (653) 
1

>  <i_qp_CNS>  (653) 
2

>  <i_qp_HumanOralAbsorption>  (653) 
3

>  <i_qp_RuleOfFive>  (653) 
0

>  <i_qp_RuleOfThree>  (653) 
1

>  <i_sd_BIOSOLVEIT.INFINISEE\_REAGENT1\_NAME>  (653) 
24792670

>  <i_sd_BIOSOLVEIT.INFINISEE\_REAGENT2\_NAME>  (653) 
7548988

>  <i_sd_BIOSOLVEIT.INFINISEE\_RESULT\_RANK>  (653) 
51332

>  <i_sd_version>  (653) 
0

>  <b_lp_Chiralities_Consistent>  (653) 
1

>  <b_sd_chiral_flag>  (653) 
0

>  <canonical_id>  (653) 
ATP-HTVS-66618B00A972

>  <compound_code>  (653) 
44098

>  <title>  (653) 
m_270004bbb____24792670____7548988

>  <variant>  (653) 
44098-1

>  <source_file>  (653) 
运行/运行/ATP-VSW/ATP-VSW-DOCK_HTVS_1-002_lib.maegz

>  <canonical_smiles>  (653) 
CC[N@@H+](C)Cc1cc(F)ccc1C[NH2+]Cc1csc(COc2ccc(OC)cc2)n1

>  <scaffold>  (653) 
c1ccc(C[NH2+]Cc2csc(COc3ccccc3)n2)cc1

>  <molecular_formula>  (653) 
C23H30FN3O2S+2

$$$$
ATP-HTVS-667EB58ED22D
     RDKit          3D

 55 58  0  0  0  0  0  0  0  0999 V2000
  200.0539  182.5078  157.6915 N   0  0  0  0  0  0  0  0  0  0  0  0
  200.2028  183.2585  158.7861 C   0  0  0  0  0  0  0  0  0  0  0  0
  199.1953  183.8250  159.4562 N   0  0  0  0  0  0  0  0  0  0  0  0
  197.9335  183.6223  159.0259 C   0  0  0  0  0  0  0  0  0  0  0  0
  197.6796  182.8361  157.8733 C   0  0  0  0  0  0  0  0  0  0  0  0
  198.8081  182.2781  157.2270 C   0  0  0  0  0  0  0  0  0  0  0  0
  198.6682  181.4798  156.0792 N   0  0  0  0  0  0  0  0  0  0  0  0
  199.6048  180.3907  155.8045 C   0  0  1  0  0  0  0  0  0  0  0  0
  199.1493  179.0531  156.4151 C   0  0  1  0  0  0  0  0  0  0  0  0
  200.0134  177.8767  155.9842 C   0  0  0  0  0  0  0  0  0  0  0  0
  200.0595  177.4919  154.6286 C   0  0  0  0  0  0  0  0  0  0  0  0
  200.8491  176.3979  154.2252 C   0  0  0  0  0  0  0  0  0  0  0  0
  201.5989  175.6742  155.1758 C   0  0  0  0  0  0  0  0  0  0  0  0
  201.5474  176.0515  156.5317 C   0  0  0  0  0  0  0  0  0  0  0  0
  200.7532  177.1431  156.9379 C   0  0  0  0  0  0  0  0  0  0  0  0
  202.4657  174.5039  154.7370 C   0  0  1  0  0  0  0  0  0  0  0  0
  203.9000  174.7216  154.9330 N   0  0  0  0  0  0  0  0  0  0  0  0
  204.3791  175.8130  154.0906 C   0  0  2  0  0  0  0  0  0  0  0  0
  204.6172  173.5035  154.5737 C   0  0  2  0  0  0  0  0  0  0  0  0
  196.3507  182.6306  157.4343 C   0  0  0  0  0  0  0  0  0  0  0  0
  195.2798  183.2077  158.1399 C   0  0  0  0  0  0  0  0  0  0  0  0
  195.5231  183.9908  159.2825 C   0  0  0  0  0  0  0  0  0  0  0  0
  196.8469  184.1969  159.7167 C   0  0  0  0  0  0  0  0  0  0  0  0
  201.5796  183.4504  159.3068 C   0  0  0  0  0  0  0  0  0  0  0  0
  202.7012  182.9529  158.5954 C   0  0  0  0  0  0  0  0  0  0  0  0
  204.0082  183.1356  159.0882 C   0  0  0  0  0  0  0  0  0  0  0  0
  204.2168  183.8156  160.3012 C   0  0  0  0  0  0  0  0  0  0  0  0
  203.1152  184.3094  161.0229 C   0  0  0  0  0  0  0  0  0  0  0  0
  201.8080  184.1271  160.5311 C   0  0  0  0  0  0  0  0  0  0  0  0
  197.7203  181.3182  155.7731 H   0  0  0  0  0  0  0  0  0  0  0  0
  199.6635  180.2975  154.7210 H   0  0  0  0  0  0  0  0  0  0  0  0
  200.6146  180.6207  156.1442 H   0  0  0  0  0  0  0  0  0  0  0  0
  199.1505  179.1286  157.5015 H   0  0  0  0  0  0  0  0  0  0  0  0
  198.1214  178.8326  156.1311 H   0  0  0  0  0  0  0  0  0  0  0  0
  199.4809  178.0301  153.8915 H   0  0  0  0  0  0  0  0  0  0  0  0
  200.8826  176.1218  153.1826 H   0  0  0  0  0  0  0  0  0  0  0  0
  202.1205  175.5003  157.2621 H   0  0  0  0  0  0  0  0  0  0  0  0
  200.7091  177.4133  157.9826 H   0  0  0  0  0  0  0  0  0  0  0  0
  202.1594  173.6302  155.3149 H   0  0  0  0  0  0  0  0  0  0  0  0
  202.2647  174.2666  153.6908 H   0  0  0  0  0  0  0  0  0  0  0  0
  205.4504  175.9647  154.2268 H   0  0  0  0  0  0  0  0  0  0  0  0
  203.8888  176.7536  154.3459 H   0  0  0  0  0  0  0  0  0  0  0  0
  204.1971  175.6098  153.0341 H   0  0  0  0  0  0  0  0  0  0  0  0
  205.6900  173.6320  154.7232 H   0  0  0  0  0  0  0  0  0  0  0  0
  204.4506  173.2292  153.5310 H   0  0  0  0  0  0  0  0  0  0  0  0
  204.2948  172.6664  155.1943 H   0  0  0  0  0  0  0  0  0  0  0  0
  196.1172  182.0344  156.5630 H   0  0  0  0  0  0  0  0  0  0  0  0
  194.2703  183.0446  157.7867 H   0  0  0  0  0  0  0  0  0  0  0  0
  194.6954  184.4348  159.8169 H   0  0  0  0  0  0  0  0  0  0  0  0
  197.0410  184.7988  160.5900 H   0  0  0  0  0  0  0  0  0  0  0  0
  202.5721  182.4239  157.6621 H   0  0  0  0  0  0  0  0  0  0  0  0
  204.8512  182.7558  158.5300 H   0  0  0  0  0  0  0  0  0  0  0  0
  205.2197  183.9609  160.6751 H   0  0  0  0  0  0  0  0  0  0  0  0
  203.2685  184.8279  161.9577 H   0  0  0  0  0  0  0  0  0  0  0  0
  200.9830  184.5118  161.1123 H   0  0  0  0  0  0  0  0  0  0  0  0
  1  2  2  0
  1  6  1  0
  2  3  1  0
  2 24  1  0
  3  4  2  0
  4  5  1  0
  4 23  1  0
  5  6  2  0
  5 20  1  0
  6  7  1  0
  7  8  1  0
  7 30  1  0
  8  9  1  0
  8 31  1  6
  8 32  1  0
  9 10  1  0
  9 33  1  1
  9 34  1  0
 10 11  1  0
 10 15  2  0
 11 12  2  0
 11 35  1  0
 12 13  1  0
 12 36  1  0
 13 14  2  0
 13 16  1  0
 14 15  1  0
 14 37  1  0
 15 38  1  0
 16 17  1  0
 16 39  1  1
 16 40  1  0
 17 18  1  0
 17 19  1  0
 18 41  1  6
 18 42  1  0
 18 43  1  0
 19 44  1  6
 19 45  1  0
 19 46  1  0
 20 21  2  0
 20 47  1  0
 21 22  1  0
 21 48  1  0
 22 23  2  0
 22 49  1  0
 23 50  1  0
 24 25  2  0
 24 29  1  0
 25 26  1  0
 25 51  1  0
 26 27  2  0
 26 52  1  0
 27 28  1  0
 27 53  1  0
 28 29  2  0
 28 54  1  0
 29 55  1  0
M  END
>  <s_epik_cmdline>  (654) 
J2VwaWtfcHl0aG9uJywgJy1waCcsICc3LjAwMDAwMCcsICctcGh0JywgJzIuMDAwMDAwJywgJy1tcycsICcxNicsICctdG4nLCAnOCcsICctbWEnLCAnMjAwJywgJy1pbWFlJywgJzxpbmZpbGUubWFlPicsICctb21hZScsICc8b3V0ZmlsZS5tYWU+Jw==

>  <s_epik_input>  (654) 
W2NIXTFbY0hdW2NIXVtjSF1bY0hdYzEtYyhuMiluYyhjKGMyMylbY0hdW2NIXVtjSF1bY0hdMylbTkhdW0NIMl1bQ0gyXWM0W2NIXVtjSF1jKFtjSF1bY0hdNClbQ0gyXU4oW0NIM10pW0NIM10=

>  <s_i_glide_gridfile>  (654) 
ATP-Grid

>  <s_lp_Force_Field>  (654) 
OPLS_2005

>  <s_lp_Variant>  (654) 
m_27bbd____15775612____61045-2

>  <s_lp_label>  (654) 
660_sdstereoexpander_1_neutralizer_1_epik_2_stereoizer_1

>  <s_m_source_file>  (654) 
ATP-VSW-LIGPREP-002-in.maegz

>  <s_sd_BIOSOLVEIT.INFINISEE\_QUERY\_NAME>  (654) 
Ref-Lig

>  <s_sd_BIOSOLVEIT.INFINISEE\_QUERY\_SMILES>  (654) 
S(c1nc2c(cc1C[NH2+]Cc3ccc(cc3)C[NH+](C)C)cccc2)Cc4ccccc4

>  <s_sd_BIOSOLVEIT.INFINISEE\_REACTION\_NAME>  (654) 
m_27bbd

>  <s_sd_BIOSOLVEIT.INFINISEE\_REAGENT1\_SMILES>  (654) 
[R1*]NCCc1ccc(cc1)CN(C)C

>  <s_sd_BIOSOLVEIT.INFINISEE\_REAGENT2\_SMILES>  (654) 
[R1*]c1nc(nc2c1cccc2)c3ccccc3

>  <s_sd_BIOSOLVEIT.INFINISEE\_SPACE>  (654) 
REALSpace_44bn_2023-08

>  <s_vsw_compound_code>  (654) 
21090

>  <s_vsw_variant>  (654) 
21090-2

>  <r_epik_Charging_Adjusted_Penalty>  (654) 
1.6120844765654101

>  <r_epik_Ionization_Penalty>  (654) 
1.6123000000000001

>  <r_epik_Ionization_Penalty_Charging>  (654) 
0

>  <r_epik_Ionization_Penalty_Neutral>  (654) 
1.6123000000000001

>  <r_epik_State_Penalty>  (654) 
1.6121000000000001

>  <r_i_docking_score>  (654) 
-1.95139084828723

>  <r_i_glide_ecoul>  (654) 
-3.4411361217498802

>  <r_i_glide_eff_state_penalty>  (654) 
1.6121000000000001

>  <r_i_glide_einternal>  (654) 
0.77238285541534402

>  <r_i_glide_emodel>  (654) 
-43.598775531220298

>  <r_i_glide_energy>  (654) 
-35.627529859542797

>  <r_i_glide_erotb>  (654) 
0.79650236802274599

>  <r_i_glide_esite>  (654) 
-0.022101231533586702

>  <r_i_glide_evdw>  (654) 
-32.186393737792997

>  <r_i_glide_gscore>  (654) 
-3.5634908482872301

>  <r_i_glide_hbond>  (654) 
-0.112967633545135

>  <r_i_glide_ligand_efficiency>  (654) 
-0.067289339596111206

>  <r_i_glide_ligand_efficiency_ln>  (654) 
-0.44681902125537198

>  <r_i_glide_ligand_efficiency_sa>  (654) 
-0.20673416999837599

>  <r_i_glide_lipo>  (654) 
-1.20173801765148

>  <r_i_glide_metal>  (654) 
-0

>  <r_i_glide_rewards>  (654) 
-0.89769622842763797

>  <r_lp_Energy>  (654) 
19.105573

>  <r_lp_tautomer_probability>  (654) 
0.99997800024199801

>  <r_qp_ACxDN^.5/SA>  (654) 
0.0072890999999999997

>  <r_qp_CIQPlogS>  (654) 
-5.4619999999999997

>  <r_qp_EA(eV)>  (654) 
0.88500000000000001

>  <r_qp_FISA>  (654) 
17.337

>  <r_qp_FOSA>  (654) 
214.386

>  <r_qp_IP(eV)>  (654) 
8.3759999999999994

>  <r_qp_Jm>  (654) 
1.52650677594632

>  <r_qp_PISA>  (654) 
385.63600000000002

>  <r_qp_PSA>  (654) 
31.574000000000002

>  <r_qp_PercentHumanOralAbsorption>  (654) 
100

>  <r_qp_QPPCaco>  (654) 
1691.9670000000001

>  <r_qp_QPPMDCK>  (654) 
966.26099999999997

>  <r_qp_QPlogBB>  (654) 
0.39500000000000002

>  <r_qp_QPlogHERG>  (654) 
-5.859

>  <r_qp_QPlogKhsa>  (654) 
0.77100000000000002

>  <r_qp_QPlogKp>  (654) 
-1.871

>  <r_qp_QPlogPC16>  (654) 
12.627000000000001

>  <r_qp_QPlogPo/w>  (654) 
4.8470000000000004

>  <r_qp_QPlogPoct>  (654) 
17.597000000000001

>  <r_qp_QPlogPw>  (654) 
8.2989999999999995

>  <r_qp_QPlogS>  (654) 
-3.528

>  <r_qp_QPpolrz>  (654) 
41.588999999999999

>  <r_qp_SASA>  (654) 
617.35900000000004

>  <r_qp_SAamideO>  (654) 
0

>  <r_qp_SAfluorine>  (654) 
0

>  <r_qp_WPSA>  (654) 
0

>  <r_qp_accptHB>  (654) 
4.5

>  <r_qp_dip^2/V>  (654) 
0.0098330999999999991

>  <r_qp_dipole>  (654) 
3.4540000000000002

>  <r_qp_donorHB>  (654) 
1

>  <r_qp_glob>  (654) 
0.89111560000000001

>  <r_qp_mol_MW>  (654) 
382.50700000000001

>  <r_qp_volume>  (654) 
1213.2760000000001

>  <r_sd_BIOSOLVEIT.INFINISEE\_FTREES\_SIMILARITY>  (654) 
0.94699999999999995

>  <r_sd_BIOSOLVEIT.LOGP>  (654) 
3.5958999999999999

>  <r_sd_BIOSOLVEIT.MOLECULAR\_WEIGHT>  (654) 
383.51600000000002

>  <r_sd_BIOSOLVEIT.TPSA>  (654) 
42.25

>  <i_epik_Tot_Q>  (654) 
0

>  <i_epik_Tot_abs_Q>  (654) 
0

>  <i_f3d_flags>  (654) 
0

>  <i_i_glide_confnum>  (654) 
1

>  <i_i_glide_lignum>  (654) 
210

>  <i_i_glide_posenum>  (654) 
10

>  <i_i_glide_rotatable_bonds>  (654) 
7

>  <i_lp_mmshare_version>  (654) 
65135

>  <i_m_ct_format>  (654) 
2

>  <i_m_source_file_index>  (654) 
660

>  <i_qp_#NandO>  (654) 
4

>  <i_qp_#acid>  (654) 
0

>  <i_qp_#amide>  (654) 
0

>  <i_qp_#amidine>  (654) 
0

>  <i_qp_#amine>  (654) 
1

>  <i_qp_#in34>  (654) 
0

>  <i_qp_#in56>  (654) 
22

>  <i_qp_#metab>  (654) 
3

>  <i_qp_#nonHatm>  (654) 
29

>  <i_qp_#noncon>  (654) 
0

>  <i_qp_#ringatoms>  (654) 
22

>  <i_qp_#rotor>  (654) 
7

>  <i_qp_#rtvFG>  (654) 
0

>  <i_qp_#stars>  (654) 
0

>  <i_qp_CNS>  (654) 
1

>  <i_qp_HumanOralAbsorption>  (654) 
3

>  <i_qp_RuleOfFive>  (654) 
0

>  <i_qp_RuleOfThree>  (654) 
0

>  <i_sd_BIOSOLVEIT.INFINISEE\_REAGENT1\_NAME>  (654) 
15775612

>  <i_sd_BIOSOLVEIT.INFINISEE\_REAGENT2\_NAME>  (654) 
61045

>  <i_sd_BIOSOLVEIT.INFINISEE\_RESULT\_RANK>  (654) 
401

>  <i_sd_version>  (654) 
0

>  <b_lp_Chiralities_Consistent>  (654) 
1

>  <b_sd_chiral_flag>  (654) 
0

>  <canonical_id>  (654) 
ATP-HTVS-667EB58ED22D

>  <compound_code>  (654) 
21090

>  <title>  (654) 
m_27bbd____15775612____61045

>  <variant>  (654) 
21090-2

>  <source_file>  (654) 
运行/运行/ATP-VSW/ATP-VSW-DOCK_HTVS_1-002_lib.maegz

>  <canonical_smiles>  (654) 
CN(C)Cc1ccc(CCNc2nc(-c3ccccc3)nc3ccccc23)cc1

>  <scaffold>  (654) 
c1ccc(CCNc2nc(-c3ccccc3)nc3ccccc23)cc1

>  <molecular_formula>  (654) 
C25H26N4

$$$$
ATP-HTVS-669A511FBD29
     RDKit          3D

 58 61  0  0  0  0  0  0  0  0999 V2000
  195.2177  183.0734  159.2199 S   0  0  0  0  0  0  0  0  0  0  0  0
  196.1899  184.5304  159.1143 C   0  0  0  0  0  0  0  0  0  0  0  0
  197.0153  184.5223  157.9444 C   0  0  0  0  0  0  0  0  0  0  0  0
  197.8188  185.6765  157.7339 C   0  0  0  0  0  0  0  0  0  0  0  0
  197.8306  186.7554  158.6342 C   0  0  0  0  0  0  0  0  0  0  0  0
  197.0309  186.7164  159.7866 C   0  0  0  0  0  0  0  0  0  0  0  0
  196.2036  185.6057  160.0279 C   0  0  0  0  0  0  0  0  0  0  0  0
  196.8510  183.2997  157.1679 C   0  0  0  0  0  0  0  0  0  0  0  0
  195.9233  182.4741  157.7568 C   0  0  0  0  0  0  0  0  0  0  0  0
  197.5144  182.9256  155.8704 C   0  0  1  0  0  0  0  0  0  0  0  0
  198.1395  183.9738  155.0712 N   0  0  0  0  0  0  0  0  0  0  0  0
  197.2782  184.5130  154.0323 C   0  0  1  0  0  0  0  0  0  0  0  0
  197.1228  183.5693  152.8287 C   0  0  0  0  0  0  0  0  0  0  0  0
  196.8113  182.4003  153.0074 O   0  0  0  0  0  0  0  0  0  0  0  0
  197.3405  184.1356  151.4673 C   0  0  0  0  0  0  0  0  0  0  0  0
  196.9359  183.3660  150.3442 C   0  0  0  0  0  0  0  0  0  0  0  0
  197.1436  183.8405  149.0306 C   0  0  0  0  0  0  0  0  0  0  0  0
  197.7544  185.0972  148.8350 C   0  0  0  0  0  0  0  0  0  0  0  0
  198.1687  185.8629  149.9476 C   0  0  0  0  0  0  0  0  0  0  0  0
  197.9721  185.3837  151.2572 C   0  0  0  0  0  0  0  0  0  0  0  0
  198.5378  181.8925  156.1105 C   0  0  0  0  0  0  0  0  0  0  0  0
  199.3949  181.0387  156.2685 C   0  0  0  0  0  0  0  0  0  0  0  0
  200.4409  180.0365  156.4985 C   0  0  1  0  0  0  0  0  0  0  0  0
  199.9863  178.6994  156.1560 N   0  0  0  0  0  0  0  0  0  0  0  0
  200.9447  177.6865  156.6041 C   0  0  2  0  0  0  0  0  0  0  0  0
  201.1524  176.5600  155.5858 C   0  0  0  0  0  0  0  0  0  0  0  0
  200.5732  176.6124  154.2978 C   0  0  0  0  0  0  0  0  0  0  0  0
  200.7795  175.5767  153.3722 C   0  0  0  0  0  0  0  0  0  0  0  0
  201.5695  174.4648  153.7221 C   0  0  0  0  0  0  0  0  0  0  0  0
  202.1549  174.3994  154.9983 C   0  0  0  0  0  0  0  0  0  0  0  0
  201.9569  175.4390  155.9250 C   0  0  0  0  0  0  0  0  0  0  0  0
  200.4420  177.1622  157.9533 C   0  0  2  0  0  0  0  0  0  0  0  0
  198.3722  184.7484  155.6675 H   0  0  0  0  0  0  0  0  0  0  0  0
  199.0986  178.5416  156.6253 H   0  0  0  0  0  0  0  0  0  0  0  0
  198.4681  185.7644  156.8810 H   0  0  0  0  0  0  0  0  0  0  0  0
  198.4776  187.6002  158.4327 H   0  0  0  0  0  0  0  0  0  0  0  0
  197.0669  187.5422  160.4838 H   0  0  0  0  0  0  0  0  0  0  0  0
  195.5885  185.5627  160.9165 H   0  0  0  0  0  0  0  0  0  0  0  0
  195.5881  181.5192  157.3679 H   0  0  0  0  0  0  0  0  0  0  0  0
  196.7753  182.4239  155.2664 H   0  0  0  0  0  0  0  0  0  0  0  0
  196.2984  184.7117  154.4658 H   0  0  0  0  0  0  0  0  0  0  0  0
  197.6840  185.4689  153.7638 H   0  0  0  0  0  0  0  0  0  0  0  0
  196.4772  182.3986  150.4923 H   0  0  0  0  0  0  0  0  0  0  0  0
  196.8313  183.2374  148.1836 H   0  0  0  0  0  0  0  0  0  0  0  0
  197.9073  185.4646  147.8278 H   0  0  0  0  0  0  0  0  0  0  0  0
  198.6470  186.8201  149.8003 H   0  0  0  0  0  0  0  0  0  0  0  0
  198.3288  185.9914  152.0748 H   0  0  0  0  0  0  0  0  0  0  0  0
  201.3042  180.3118  155.8922 H   0  0  0  0  0  0  0  0  0  0  0  0
  200.7157  180.1110  157.5495 H   0  0  0  0  0  0  0  0  0  0  0  0
  201.9273  178.1456  156.7389 H   0  0  0  0  0  0  0  0  0  0  0  0
  199.9534  177.4468  153.9952 H   0  0  0  0  0  0  0  0  0  0  0  0
  200.3203  175.6354  152.3993 H   0  0  0  0  0  0  0  0  0  0  0  0
  201.7250  173.6684  153.0122 H   0  0  0  0  0  0  0  0  0  0  0  0
  202.7602  173.5448  155.2674 H   0  0  0  0  0  0  0  0  0  0  0  0
  202.4274  175.3703  156.8956 H   0  0  0  0  0  0  0  0  0  0  0  0
  201.1395  176.4511  158.3752 H   0  0  0  0  0  0  0  0  0  0  0  0
  199.4916  176.6470  157.8334 H   0  0  0  0  0  0  0  0  0  0  0  0
  200.3172  177.9535  158.6919 H   0  0  0  0  0  0  0  0  0  0  0  0
  1  2  1  0
  1  9  1  0
  2  3  1  0
  2  7  2  0
  3  4  2  0
  3  8  1  0
  4  5  1  0
  4 35  1  0
  5  6  2  0
  5 36  1  0
  6  7  1  0
  6 37  1  0
  7 38  1  0
  8  9  2  0
  8 10  1  0
  9 39  1  0
 10 11  1  0
 10 21  1  0
 10 40  1  6
 11 12  1  0
 11 33  1  0
 12 13  1  0
 12 41  1  1
 12 42  1  0
 13 14  2  0
 13 15  1  0
 15 16  2  0
 15 20  1  0
 16 17  1  0
 16 43  1  0
 17 18  2  0
 17 44  1  0
 18 19  1  0
 18 45  1  0
 19 20  2  0
 19 46  1  0
 20 47  1  0
 21 22  3  0
 22 23  1  0
 23 24  1  0
 23 48  1  6
 23 49  1  0
 24 25  1  0
 24 34  1  0
 25 26  1  0
 25 32  1  0
 25 50  1  1
 26 27  2  0
 26 31  1  0
 27 28  1  0
 27 51  1  0
 28 29  2  0
 28 52  1  0
 29 30  1  0
 29 53  1  0
 30 31  2  0
 30 54  1  0
 31 55  1  0
 32 56  1  1
 32 57  1  0
 32 58  1  0
M  END
>  <s_epik_cmdline>  (655) 
J2VwaWtfcHl0aG9uJywgJy1waCcsICc3LjAwMDAwMCcsICctcGh0JywgJzIuMDAwMDAwJywgJy1tcycsICcxNicsICctdG4nLCAnOCcsICctbWEnLCAnMjAwJywgJy1pbWFlJywgJzxpbmZpbGUubWFlPicsICctb21hZScsICc8b3V0ZmlsZS5tYWU+Jw==

>  <s_epik_input>  (655) 
W2NIXTFbY0hdW2NIXVtjSF1bY0hdYzFDKD1PKVtDSDJdW05IXVtDQEhdKGMoW2NIXXMyKWMoYzIzKVtjSF1bY0hdW2NIXVtjSF0zKUMjQ1tDSDJdW05IXVtDQEBIXShbQ0gzXSljNFtjSF1bY0hdW2NIXVtjSF1bY0hdNA==

>  <s_i_glide_gridfile>  (655) 
ATP-Grid

>  <s_lp_Force_Field>  (655) 
OPLS_2005

>  <s_lp_Variant>  (655) 
rxn403____EMOL530587____EMOL514874____EMOL1468452-4

>  <s_lp_label>  (655) 
2842_sdstereoexpander_4_neutralizer_1_epik_1_stereoizer_1

>  <s_m_source_file>  (655) 
ATP-VSW-LIGPREP-002-in.maegz

>  <s_sd_BIOSOLVEIT.INFINISEE\_QUERY\_NAME>  (655) 
Ref-Lig

>  <s_sd_BIOSOLVEIT.INFINISEE\_QUERY\_SMILES>  (655) 
S(c1nc2c(cc1C[NH2+]Cc3ccc(cc3)C[NH+](C)C)cccc2)Cc4ccccc4

>  <s_sd_BIOSOLVEIT.INFINISEE\_REACTION\_NAME>  (655) 
rxn403

>  <s_sd_BIOSOLVEIT.INFINISEE\_REAGENT1\_NAME>  (655) 
EMOL530587

>  <s_sd_BIOSOLVEIT.INFINISEE\_REAGENT1\_SMILES>  (655) 
O=C(c1ccccc1)CN

>  <s_sd_BIOSOLVEIT.INFINISEE\_REAGENT2\_NAME>  (655) 
EMOL514874

>  <s_sd_BIOSOLVEIT.INFINISEE\_REAGENT2\_SMILES>  (655) 
S1c2c(cccc2)C(=C1)C=O

>  <s_sd_BIOSOLVEIT.INFINISEE\_REAGENT3\_NAME>  (655) 
EMOL1468452

>  <s_sd_BIOSOLVEIT.INFINISEE\_REAGENT3\_SMILES>  (655) 
N(C(c1ccccc1)C)CC#C

>  <s_sd_BIOSOLVEIT.INFINISEE\_SPACE>  (655) 
eXplore_7tr_2022-12

>  <s_vsw_compound_code>  (655) 
90914

>  <s_vsw_variant>  (655) 
90914-4

>  <r_epik_Charging_Adjusted_Penalty>  (655) 
0.28742848438644503

>  <r_epik_Ionization_Penalty>  (655) 
0.2873

>  <r_epik_Ionization_Penalty_Charging>  (655) 
0

>  <r_epik_Ionization_Penalty_Neutral>  (655) 
0.2873

>  <r_epik_State_Penalty>  (655) 
0.28739999999999999

>  <r_i_docking_score>  (655) 
-4.5383217227169697

>  <r_i_glide_ecoul>  (655) 
-2.8707478046417201

>  <r_i_glide_eff_state_penalty>  (655) 
0.28739999999999999

>  <r_i_glide_einternal>  (655) 
8.3018751144409197

>  <r_i_glide_emodel>  (655) 
-54.741215975463099

>  <r_i_glide_energy>  (655) 
-44.847481966018698

>  <r_i_glide_erotb>  (655) 
0.72603303807073605

>  <r_i_glide_esite>  (655) 
-0.037286552697817998

>  <r_i_glide_evdw>  (655) 
-41.976734161377003

>  <r_i_glide_gscore>  (655) 
-4.8257217227169704

>  <r_i_glide_hbond>  (655) 
-0.023050323691984599

>  <r_i_glide_ligand_efficiency>  (655) 
-0.141822553834905

>  <r_i_glide_ligand_efficiency_ln>  (655) 
-1.01625394369419

>  <r_i_glide_ligand_efficiency_sa>  (655) 
-0.45025854178053198

>  <r_i_glide_lipo>  (655) 
-2.5432292783600698

>  <r_i_glide_metal>  (655) 
-0

>  <r_i_glide_rewards>  (655) 
-0.41873972727272601

>  <r_lp_Energy>  (655) 
29.348037999999999

>  <r_lp_tautomer_probability>  (655) 
0.99990000499974996

>  <r_qp_ACxDN^.5/SA>  (655) 
0.0097187999999999997

>  <r_qp_CIQPlogS>  (655) 
-5.2140000000000004

>  <r_qp_EA(eV)>  (655) 
0.64900000000000002

>  <r_qp_FISA>  (655) 
71.325999999999993

>  <r_qp_FOSA>  (655) 
162.298

>  <r_qp_IP(eV)>  (655) 
8.7729999999999997

>  <r_qp_Jm>  (655) 
0.0037799944294056101

>  <r_qp_PISA>  (655) 
453.65600000000001

>  <r_qp_PSA>  (655) 
52.033000000000001

>  <r_qp_PercentHumanOralAbsorption>  (655) 
92.941000000000003

>  <r_qp_QPPCaco>  (655) 
129.81299999999999

>  <r_qp_QPPMDCK>  (655) 
110.767

>  <r_qp_QPlogBB>  (655) 
0.154

>  <r_qp_QPlogHERG>  (655) 
-8.0169999999999995

>  <r_qp_QPlogKhsa>  (655) 
0.90500000000000003

>  <r_qp_QPlogKp>  (655) 
-4.4009999999999998

>  <r_qp_QPlogPC16>  (655) 
15.423999999999999

>  <r_qp_QPlogPo/w>  (655) 
4.8109999999999999

>  <r_qp_QPlogPoct>  (655) 
21.553000000000001

>  <r_qp_QPlogPw>  (655) 
10.702999999999999

>  <r_qp_QPlogS>  (655) 
-3.6640000000000001

>  <r_qp_QPpolrz>  (655) 
46.859000000000002

>  <r_qp_SASA>  (655) 
727.56799999999998

>  <r_qp_SAamideO>  (655) 
0

>  <r_qp_SAfluorine>  (655) 
0

>  <r_qp_WPSA>  (655) 
40.287999999999997

>  <r_qp_accptHB>  (655) 
5

>  <r_qp_dip^2/V>  (655) 
0.017399600000000001

>  <r_qp_dipole>  (655) 
4.8949999999999996

>  <r_qp_donorHB>  (655) 
2

>  <r_qp_glob>  (655) 
0.82265109999999997

>  <r_qp_mol_MW>  (655) 
438.58600000000001

>  <r_qp_volume>  (655) 
1376.8499999999999

>  <r_sd_BIOSOLVEIT.INFINISEE\_FTREES\_SIMILARITY>  (655) 
0.90500000000000003

>  <r_sd_BIOSOLVEIT.LOGP>  (655) 
3.7166999999999999

>  <r_sd_BIOSOLVEIT.MOLECULAR\_WEIGHT>  (655) 
440.60700000000003

>  <r_sd_BIOSOLVEIT.TPSA>  (655) 
50.289999999999999

>  <i_epik_Tot_Q>  (655) 
0

>  <i_epik_Tot_abs_Q>  (655) 
0

>  <i_f3d_flags>  (655) 
0

>  <i_i_glide_confnum>  (655) 
15

>  <i_i_glide_lignum>  (655) 
1402

>  <i_i_glide_posenum>  (655) 
1

>  <i_i_glide_rotatable_bonds>  (655) 
10

>  <i_lp_mmshare_version>  (655) 
65135

>  <i_m_ct_format>  (655) 
2

>  <i_m_source_file_index>  (655) 
2842

>  <i_qp_#NandO>  (655) 
3

>  <i_qp_#acid>  (655) 
0

>  <i_qp_#amide>  (655) 
0

>  <i_qp_#amidine>  (655) 
0

>  <i_qp_#amine>  (655) 
2

>  <i_qp_#in34>  (655) 
0

>  <i_qp_#in56>  (655) 
21

>  <i_qp_#metab>  (655) 
8

>  <i_qp_#nonHatm>  (655) 
32

>  <i_qp_#noncon>  (655) 
0

>  <i_qp_#ringatoms>  (655) 
21

>  <i_qp_#rotor>  (655) 
10

>  <i_qp_#rtvFG>  (655) 
0

>  <i_qp_#stars>  (655) 
1

>  <i_qp_CNS>  (655) 
1

>  <i_qp_HumanOralAbsorption>  (655) 
3

>  <i_qp_RuleOfFive>  (655) 
0

>  <i_qp_RuleOfThree>  (655) 
1

>  <i_sd_BIOSOLVEIT.INFINISEE\_RESULT\_RANK>  (655) 
67943

>  <i_sd_version>  (655) 
0

>  <b_lp_Chiralities_Consistent>  (655) 
1

>  <b_sd_chiral_flag>  (655) 
0

>  <canonical_id>  (655) 
ATP-HTVS-669A511FBD29

>  <compound_code>  (655) 
90914

>  <title>  (655) 
rxn403____EMOL530587____EMOL514874____EMOL1468452

>  <variant>  (655) 
90914-4

>  <source_file>  (655) 
运行/运行/ATP-VSW/ATP-VSW-DOCK_HTVS_1-002_lib.maegz

>  <canonical_smiles>  (655) 
C[C@H](NCC#C[C@H](NCC(=O)c1ccccc1)c1csc2ccccc12)c1ccccc1

>  <scaffold>  (655) 
O=C(CNC(C#CCNCc1ccccc1)c1csc2ccccc12)c1ccccc1

>  <molecular_formula>  (655) 
C28H26N2OS

$$$$
ATP-HTVS-66A9CC424D71
     RDKit          3D

 53 55  0  0  0  0  0  0  0  0999 V2000
  198.0958  185.4350  146.3488 Cl  0  0  0  0  0  0  0  0  0  0  0  0
  198.0450  184.1265  147.4717 C   0  0  0  0  0  0  0  0  0  0  0  0
  198.8220  182.9751  147.2495 C   0  0  0  0  0  0  0  0  0  0  0  0
  198.7695  181.9050  148.1748 C   0  0  0  0  0  0  0  0  0  0  0  0
  197.9299  181.9756  149.3121 C   0  0  0  0  0  0  0  0  0  0  0  0
  197.9492  180.8939  150.1776 O   0  0  0  0  0  0  0  0  0  0  0  0
  197.2282  180.9446  151.4137 C   0  0  1  0  0  0  0  0  0  0  0  0
  197.9145  181.9301  152.3054 C   0  0  0  0  0  0  0  0  0  0  0  0
  199.4888  181.6396  153.0466 S   0  0  0  0  0  0  0  0  0  0  0  0
  199.5109  183.2899  153.6175 C   0  0  0  0  0  0  0  0  0  0  0  0
  198.3662  183.9539  153.2646 C   0  0  0  0  0  0  0  0  0  0  0  0
  197.4391  183.1493  152.5540 N   0  0  0  0  0  0  0  0  0  0  0  0
  198.0131  185.3937  153.5323 C   0  0  1  0  0  0  0  0  0  0  0  0
  197.4012  185.5142  154.8640 N   0  0  1  0  0  0  0  0  0  0  0  0
  198.3221  185.2202  155.9834 C   0  0  1  0  0  0  0  0  0  0  0  0
  197.5587  184.9447  157.2535 C   0  0  0  0  0  0  0  0  0  0  0  0
  196.8397  183.7386  157.3826 C   0  0  0  0  0  0  0  0  0  0  0  0
  196.1507  183.4589  158.5870 C   0  0  0  0  0  0  0  0  0  0  0  0
  196.2119  184.3831  159.6436 C   0  0  0  0  0  0  0  0  0  0  0  0
  196.9413  185.5844  159.5142 C   0  0  0  0  0  0  0  0  0  0  0  0
  197.6154  185.8658  158.3100 C   0  0  0  0  0  0  0  0  0  0  0  0
  195.3252  182.1883  158.7020 C   0  0  1  0  0  0  0  0  0  0  0  0
  193.9567  182.3242  158.1414 N   0  0  2  0  0  0  0  0  0  0  0  0
  193.2285  183.5155  158.6216 C   0  0  2  0  0  0  0  0  0  0  0  0
  193.1572  181.0864  158.2681 C   0  0  2  0  0  0  0  0  0  0  0  0
  197.1116  183.1147  149.4951 C   0  0  0  0  0  0  0  0  0  0  0  0
  197.1989  184.2024  148.5900 C   0  0  0  0  0  0  0  0  0  0  0  0
  197.0286  186.4494  154.9603 H   0  0  0  0  0  0  0  0  0  0  0  0
  199.4449  182.9041  146.3689 H   0  0  0  0  0  0  0  0  0  0  0  0
  199.3734  181.0236  147.9965 H   0  0  0  0  0  0  0  0  0  0  0  0
  196.1772  181.2138  151.2759 H   0  0  0  0  0  0  0  0  0  0  0  0
  197.2625  179.9642  151.8878 H   0  0  0  0  0  0  0  0  0  0  0  0
  200.3853  183.6392  154.1560 H   0  0  0  0  0  0  0  0  0  0  0  0
  198.8677  186.0646  153.4417 H   0  0  0  0  0  0  0  0  0  0  0  0
  197.2849  185.7509  152.8079 H   0  0  0  0  0  0  0  0  0  0  0  0
  198.9079  184.3048  155.8384 H   0  0  0  0  0  0  0  0  0  0  0  0
  199.0265  186.0479  156.1043 H   0  0  0  0  0  0  0  0  0  0  0  0
  196.8106  183.0219  156.5745 H   0  0  0  0  0  0  0  0  0  0  0  0
  195.6754  184.1978  160.5641 H   0  0  0  0  0  0  0  0  0  0  0  0
  196.9761  186.3027  160.3216 H   0  0  0  0  0  0  0  0  0  0  0  0
  198.1946  186.7721  158.2152 H   0  0  0  0  0  0  0  0  0  0  0  0
  195.8705  181.3700  158.2269 H   0  0  0  0  0  0  0  0  0  0  0  0
  195.2440  181.9111  159.7592 H   0  0  0  0  0  0  0  0  0  0  0  0
  193.0782  183.5052  159.6992 H   0  0  0  0  0  0  0  0  0  0  0  0
  192.2407  183.5406  158.1534 H   0  0  0  0  0  0  0  0  0  0  0  0
  193.7317  184.4508  158.3775 H   0  0  0  0  0  0  0  0  0  0  0  0
  192.9981  180.8212  159.3178 H   0  0  0  0  0  0  0  0  0  0  0  0
  193.6421  180.2415  157.7789 H   0  0  0  0  0  0  0  0  0  0  0  0
  192.1886  181.2114  157.7867 H   0  0  0  0  0  0  0  0  0  0  0  0
  196.4012  183.1931  150.3062 H   0  0  0  0  0  0  0  0  0  0  0  0
  196.6003  185.0832  148.7667 H   0  0  0  0  0  0  0  0  0  0  0  0
  194.0293  182.4748  157.1289 H   0  0  0  0  0  0  0  0  0  0  0  0
  196.6211  184.8738  154.8907 H   0  0  0  0  0  0  0  0  0  0  0  0
  1  2  1  0
  2  3  1  0
  2 27  2  0
  3  4  2  0
  3 29  1  0
  4  5  1  0
  4 30  1  0
  5  6  1  0
  5 26  2  0
  6  7  1  0
  7  8  1  0
  7 31  1  6
  7 32  1  0
  8  9  1  0
  8 12  2  0
  9 10  1  0
 10 11  2  0
 10 33  1  0
 11 12  1  0
 11 13  1  0
 13 14  1  0
 13 34  1  1
 13 35  1  0
 14 15  1  0
 14 28  1  1
 14 53  1  0
 15 16  1  0
 15 36  1  6
 15 37  1  0
 16 17  2  0
 16 21  1  0
 17 18  1  0
 17 38  1  0
 18 19  2  0
 18 22  1  0
 19 20  1  0
 19 39  1  0
 20 21  2  0
 20 40  1  0
 21 41  1  0
 22 23  1  0
 22 42  1  6
 22 43  1  0
 23 24  1  0
 23 25  1  0
 23 52  1  6
 24 44  1  1
 24 45  1  0
 24 46  1  0
 25 47  1  1
 25 48  1  0
 25 49  1  0
 26 27  1  0
 26 50  1  0
 27 51  1  0
M  CHG  2  14   1  23   1
M  END
>  <s_epik_cmdline>  (656) 
J2VwaWtfcHl0aG9uJywgJy1waCcsICc3LjAwMDAwMCcsICctcGh0JywgJzIuMDAwMDAwJywgJy1tcycsICcxNicsICctdG4nLCAnOCcsICctbWEnLCAnMjAwJywgJy1pbWFlJywgJzxpbmZpbGUubWFlPicsICctb21hZScsICc8b3V0ZmlsZS5tYWU+Jw==

>  <s_epik_input>  (656) 
Q2xjMVtjSF1bY0hdYyhbY0hdW2NIXTEpT1tDSDJdYzJzW2NIXWMobjIpW0NIMl1bTkhdW0NIMl1jM1tjSF1jKFtjSF1bY0hdW2NIXTMpW0NIMl1OKFtDSDNdKVtDSDNd

>  <s_i_glide_gridfile>  (656) 
ATP-Grid

>  <s_lp_Force_Field>  (656) 
OPLS_2005

>  <s_lp_Variant>  (656) 
m_270004bbb____8349656____7548984-1

>  <s_lp_label>  (656) 
775_sdstereoexpander_1_neutralizer_1_epik_1_stereoizer_1

>  <s_m_source_file>  (656) 
ATP-VSW-LIGPREP-002-in.maegz

>  <s_sd_BIOSOLVEIT.INFINISEE\_QUERY\_NAME>  (656) 
Ref-Lig

>  <s_sd_BIOSOLVEIT.INFINISEE\_QUERY\_SMILES>  (656) 
S(c1nc2c(cc1C[NH2+]Cc3ccc(cc3)C[NH+](C)C)cccc2)Cc4ccccc4

>  <s_sd_BIOSOLVEIT.INFINISEE\_REACTION\_NAME>  (656) 
m_270004bbb

>  <s_sd_BIOSOLVEIT.INFINISEE\_REAGENT1\_SMILES>  (656) 
[R1*]NCc1cc(ccc1)CN(C)C

>  <s_sd_BIOSOLVEIT.INFINISEE\_REAGENT2\_SMILES>  (656) 
[R1*]CC=1N=C(SC1)COc2ccc(Cl)cc2

>  <s_sd_BIOSOLVEIT.INFINISEE\_SPACE>  (656) 
REALSpace_44bn_2023-08

>  <s_vsw_compound_code>  (656) 
24770

>  <s_vsw_variant>  (656) 
24770-1

>  <r_epik_Charging_Adjusted_Penalty>  (656) 
0.43793549869592902

>  <r_epik_Ionization_Penalty>  (656) 
0.22059999999999999

>  <r_epik_Ionization_Penalty_Charging>  (656) 
0.22059999999999999

>  <r_epik_Ionization_Penalty_Neutral>  (656) 
0

>  <r_epik_State_Penalty>  (656) 
0.21729999999999999

>  <r_i_docking_score>  (656) 
-4.5434425305489796

>  <r_i_glide_ecoul>  (656) 
-12.3283853530884

>  <r_i_glide_eff_state_penalty>  (656) 
0.21729999999999999

>  <r_i_glide_einternal>  (656) 
2.3720653057098402

>  <r_i_glide_emodel>  (656) 
-61.352259809281101

>  <r_i_glide_energy>  (656) 
-40.383645057678201

>  <r_i_glide_erotb>  (656) 
0.96272788359518202

>  <r_i_glide_esite>  (656) 
-0.10000000000000001

>  <r_i_glide_evdw>  (656) 
-28.055259704589801

>  <r_i_glide_gscore>  (656) 
-4.7607425305489803

>  <r_i_glide_hbond>  (656) 
-0.20000000000000001

>  <r_i_glide_ligand_efficiency>  (656) 
-0.16827564927959199

>  <r_i_glide_ligand_efficiency_ln>  (656) 
-1.0576385166075799

>  <r_i_glide_ligand_efficiency_sa>  (656) 
-0.50482694728416599

>  <r_i_glide_lipo>  (656) 
-1.5166951259514101

>  <r_i_glide_metal>  (656) 
-0

>  <r_i_glide_rewards>  (656) 
-0.65475449999999902

>  <r_lp_Energy>  (656) 
14.204432000000001

>  <r_lp_tautomer_probability>  (656) 
1

>  <r_qp_ACxDN^.5/SA>  (656) 
0.0073940000000000004

>  <r_qp_CIQPlogS>  (656) 
-4.0099999999999998

>  <r_qp_EA(eV)>  (656) 
0.873

>  <r_qp_FISA>  (656) 
25.411999999999999

>  <r_qp_FOSA>  (656) 
286.60399999999998

>  <r_qp_IP(eV)>  (656) 
8.9939999999999998

>  <r_qp_Jm>  (656) 
0.000468367849266078

>  <r_qp_PISA>  (656) 
345.298

>  <r_qp_PSA>  (656) 
39.073999999999998

>  <r_qp_PercentHumanOralAbsorption>  (656) 
100

>  <r_qp_QPPCaco>  (656) 
353.76600000000002

>  <r_qp_QPPMDCK>  (656) 
898.61000000000001

>  <r_qp_QPlogBB>  (656) 
0.81599999999999995

>  <r_qp_QPlogHERG>  (656) 
-8.5899999999999999

>  <r_qp_QPlogKhsa>  (656) 
0.71999999999999997

>  <r_qp_QPlogKp>  (656) 
-4.0330000000000004

>  <r_qp_QPlogPC16>  (656) 
14.595000000000001

>  <r_qp_QPlogPo/w>  (656) 
4.8890000000000002

>  <r_qp_QPlogPoct>  (656) 
19.352

>  <r_qp_QPlogPw>  (656) 
9.2970000000000006

>  <r_qp_QPlogS>  (656) 
-4.9009999999999998

>  <r_qp_QPpolrz>  (656) 
44.935000000000002

>  <r_qp_SASA>  (656) 
777.65800000000002

>  <r_qp_SAamideO>  (656) 
0

>  <r_qp_SAfluorine>  (656) 
0

>  <r_qp_WPSA>  (656) 
120.34399999999999

>  <r_qp_accptHB>  (656) 
5.75

>  <r_qp_dip^2/V>  (656) 
0.0046519999999999999

>  <r_qp_dipole>  (656) 
2.4950000000000001

>  <r_qp_donorHB>  (656) 
1

>  <r_qp_glob>  (656) 
0.75533819999999996

>  <r_qp_mol_MW>  (656) 
401.95299999999997

>  <r_qp_volume>  (656) 
1338.5909999999999

>  <r_sd_BIOSOLVEIT.INFINISEE\_FTREES\_SIMILARITY>  (656) 
0.92400000000000004

>  <r_sd_BIOSOLVEIT.LOGP>  (656) 
2.2835999999999999

>  <r_sd_BIOSOLVEIT.MOLECULAR\_WEIGHT>  (656) 
403.97399999999999

>  <r_sd_BIOSOLVEIT.TPSA>  (656) 
43.170000000000002

>  <i_epik_Tot_Q>  (656) 
2

>  <i_epik_Tot_abs_Q>  (656) 
2

>  <i_f3d_flags>  (656) 
0

>  <i_i_glide_confnum>  (656) 
7

>  <i_i_glide_lignum>  (656) 
238

>  <i_i_glide_posenum>  (656) 
20

>  <i_i_glide_rotatable_bonds>  (656) 
9

>  <i_lp_mmshare_version>  (656) 
65135

>  <i_m_ct_format>  (656) 
2

>  <i_m_source_file_index>  (656) 
775

>  <i_qp_#NandO>  (656) 
4

>  <i_qp_#acid>  (656) 
0

>  <i_qp_#amide>  (656) 
0

>  <i_qp_#amidine>  (656) 
0

>  <i_qp_#amine>  (656) 
2

>  <i_qp_#in34>  (656) 
0

>  <i_qp_#in56>  (656) 
17

>  <i_qp_#metab>  (656) 
8

>  <i_qp_#nonHatm>  (656) 
27

>  <i_qp_#noncon>  (656) 
0

>  <i_qp_#ringatoms>  (656) 
17

>  <i_qp_#rotor>  (656) 
9

>  <i_qp_#rtvFG>  (656) 
0

>  <i_qp_#stars>  (656) 
0

>  <i_qp_CNS>  (656) 
2

>  <i_qp_HumanOralAbsorption>  (656) 
3

>  <i_qp_RuleOfFive>  (656) 
0

>  <i_qp_RuleOfThree>  (656) 
1

>  <i_sd_BIOSOLVEIT.INFINISEE\_REAGENT1\_NAME>  (656) 
8349656

>  <i_sd_BIOSOLVEIT.INFINISEE\_REAGENT2\_NAME>  (656) 
7548984

>  <i_sd_BIOSOLVEIT.INFINISEE\_RESULT\_RANK>  (656) 
9584

>  <i_sd_version>  (656) 
0

>  <b_lp_Chiralities_Consistent>  (656) 
1

>  <b_sd_chiral_flag>  (656) 
0

>  <canonical_id>  (656) 
ATP-HTVS-66A9CC424D71

>  <compound_code>  (656) 
24770

>  <title>  (656) 
m_270004bbb____8349656____7548984

>  <variant>  (656) 
24770-1

>  <source_file>  (656) 
运行/运行/ATP-VSW/ATP-VSW-DOCK_HTVS_1-002_lib.maegz

>  <canonical_smiles>  (656) 
C[NH+](C)Cc1cccc(C[NH2+]Cc2csc(COc3ccc(Cl)cc3)n2)c1

>  <scaffold>  (656) 
c1ccc(C[NH2+]Cc2csc(COc3ccccc3)n2)cc1

>  <molecular_formula>  (656) 
C21H26ClN3OS+2

$$$$
ATP-HTVS-66BD7620CABA
     RDKit          3D

 68 72  0  0  0  0  0  0  0  0999 V2000
  198.7895  182.8646  158.1196 O   0  0  0  0  0  0  0  0  0  0  0  0
  197.6705  182.5755  157.6813 C   0  0  0  0  0  0  0  0  0  0  0  0
  197.4508  181.7264  156.6640 N   0  0  0  0  0  0  0  0  0  0  0  0
  198.3760  180.8246  156.0708 C   0  0  0  0  0  0  0  0  0  0  0  0
  199.4702  180.3894  156.7389 N   0  0  0  0  0  0  0  0  0  0  0  0
  200.2847  179.4771  156.1802 C   0  0  0  0  0  0  0  0  0  0  0  0
  200.1088  178.9647  154.8803 C   0  0  0  0  0  0  0  0  0  0  0  0
  201.0341  178.0260  154.3622 N   0  0  0  0  0  0  0  0  0  0  0  0
  202.3683  178.3370  153.9914 C   0  0  0  0  0  0  0  0  0  0  0  0
  202.7187  179.6689  153.6431 C   0  0  0  0  0  0  0  0  0  0  0  0
  204.0307  179.9849  153.2232 C   0  0  0  0  0  0  0  0  0  0  0  0
  205.0108  178.9758  153.1212 C   0  0  0  0  0  0  0  0  0  0  0  0
  204.6768  177.6540  153.4633 C   0  0  0  0  0  0  0  0  0  0  0  0
  203.3830  177.3460  153.9164 C   0  0  0  0  0  0  0  0  0  0  0  0
  200.6167  176.6217  154.5119 C   0  0  2  0  0  0  0  0  0  0  0  0
  201.3026  175.9657  155.6450 C   0  0  0  0  0  0  0  0  0  0  0  0
  201.8496  175.4542  156.5295 N   0  0  0  0  0  0  0  0  0  0  0  0
  200.6878  175.8044  153.1954 C   0  0  2  0  0  0  0  0  0  0  0  0
  198.9774  179.4386  154.1557 C   0  0  0  0  0  0  0  0  0  0  0  0
  198.0911  180.3746  154.7586 C   0  0  0  0  0  0  0  0  0  0  0  0
  196.9692  180.8496  154.0275 C   0  0  0  0  0  0  0  0  0  0  0  0
  196.7386  180.4071  152.7147 C   0  0  0  0  0  0  0  0  0  0  0  0
  197.6177  179.4892  152.1167 C   0  0  0  0  0  0  0  0  0  0  0  0
  198.7343  179.0198  152.8317 C   0  0  0  0  0  0  0  0  0  0  0  0
  196.4277  183.2404  158.2226 C   0  0  0  0  0  0  0  0  0  0  0  0
  196.3869  184.5836  158.7153 C   0  0  0  0  0  0  0  0  0  0  0  0
  197.4392  185.4859  158.5899 N   0  0  0  0  0  0  0  0  0  0  0  0
  198.1341  185.6828  157.3217 C   0  0  1  0  0  0  0  0  0  0  0  0
  198.2267  187.1773  156.9789 C   0  0  1  0  0  0  0  0  0  0  0  0
  198.7884  187.9397  158.1194 N   0  0  2  0  0  0  0  0  0  0  0  0
  198.0106  187.7576  159.3694 C   0  0  1  0  0  0  0  0  0  0  0  0
  197.9071  186.2644  159.7388 C   0  0  1  0  0  0  0  0  0  0  0  0
  198.9563  189.3708  157.7729 C   0  0  2  0  0  0  0  0  0  0  0  0
  195.1875  185.0499  159.3094 C   0  0  0  0  0  0  0  0  0  0  0  0
  194.0350  184.2321  159.3887 C   0  0  0  0  0  0  0  0  0  0  0  0
  194.0760  182.9379  158.8741 C   0  0  0  0  0  0  0  0  0  0  0  0
  195.2501  182.4385  158.3214 C   0  0  0  0  0  0  0  0  0  0  0  0
  196.4969  181.6493  156.3356 H   0  0  0  0  0  0  0  0  0  0  0  0
  201.1142  179.1511  156.7931 H   0  0  0  0  0  0  0  0  0  0  0  0
  201.9762  180.4580  153.6937 H   0  0  0  0  0  0  0  0  0  0  0  0
  204.2964  181.0089  152.9759 H   0  0  0  0  0  0  0  0  0  0  0  0
  206.0193  179.2027  152.7990 H   0  0  0  0  0  0  0  0  0  0  0  0
  205.3985  176.8600  153.3874 H   0  0  0  0  0  0  0  0  0  0  0  0
  203.2205  176.3164  154.1874 H   0  0  0  0  0  0  0  0  0  0  0  0
  199.5731  176.6272  154.8149 H   0  0  0  0  0  0  0  0  0  0  0  0
  200.2762  174.8027  153.3363 H   0  0  0  0  0  0  0  0  0  0  0  0
  201.7039  175.6532  152.8157 H   0  0  0  0  0  0  0  0  0  0  0  0
  200.1100  176.2789  152.3977 H   0  0  0  0  0  0  0  0  0  0  0  0
  196.2766  181.5693  154.4406 H   0  0  0  0  0  0  0  0  0  0  0  0
  195.8877  180.7827  152.1627 H   0  0  0  0  0  0  0  0  0  0  0  0
  197.4439  179.1522  151.1070 H   0  0  0  0  0  0  0  0  0  0  0  0
  199.4116  178.3341  152.3538 H   0  0  0  0  0  0  0  0  0  0  0  0
  199.1341  185.2748  157.4102 H   0  0  0  0  0  0  0  0  0  0  0  0
  197.6233  185.1607  156.5077 H   0  0  0  0  0  0  0  0  0  0  0  0
  198.8401  187.2955  156.0796 H   0  0  0  0  0  0  0  0  0  0  0  0
  197.2306  187.5416  156.7377 H   0  0  0  0  0  0  0  0  0  0  0  0
  198.4628  188.3177  160.1977 H   0  0  0  0  0  0  0  0  0  0  0  0
  197.0082  188.1558  159.2296 H   0  0  0  0  0  0  0  0  0  0  0  0
  197.2547  186.1205  160.6044 H   0  0  0  0  0  0  0  0  0  0  0  0
  198.8774  185.8781  160.0299 H   0  0  0  0  0  0  0  0  0  0  0  0
  197.9976  189.8076  157.4950 H   0  0  0  0  0  0  0  0  0  0  0  0
  199.6452  189.4887  156.9264 H   0  0  0  0  0  0  0  0  0  0  0  0
  199.3652  189.9395  158.6165 H   0  0  0  0  0  0  0  0  0  0  0  0
  195.1173  186.0666  159.6759 H   0  0  0  0  0  0  0  0  0  0  0  0
  193.1272  184.6269  159.8108 H   0  0  0  0  0  0  0  0  0  0  0  0
  193.2003  182.3134  158.9113 H   0  0  0  0  0  0  0  0  0  0  0  0
  195.2405  181.4277  157.9565 H   0  0  0  0  0  0  0  0  0  0  0  0
  199.7054  187.5699  158.2982 H   0  0  0  0  0  0  0  0  0  0  0  0
  1  2  2  0
  2  3  1  0
  2 25  1  0
  3  4  1  0
  3 38  1  0
  4  5  1  0
  4 20  2  0
  5  6  2  0
  6  7  1  0
  6 39  1  0
  7  8  1  0
  7 19  2  0
  8  9  1  0
  8 15  1  0
  9 10  2  0
  9 14  1  0
 10 11  1  0
 10 40  1  0
 11 12  2  0
 11 41  1  0
 12 13  1  0
 12 42  1  0
 13 14  2  0
 13 43  1  0
 14 44  1  0
 15 16  1  0
 15 18  1  0
 15 45  1  1
 16 17  3  0
 18 46  1  1
 18 47  1  0
 18 48  1  0
 19 20  1  0
 19 24  1  0
 20 21  1  0
 21 22  2  0
 21 49  1  0
 22 23  1  0
 22 50  1  0
 23 24  2  0
 23 51  1  0
 24 52  1  0
 25 26  1  0
 25 37  2  0
 26 27  1  0
 26 34  2  0
 27 28  1  0
 27 32  1  0
 28 29  1  0
 28 53  1  1
 28 54  1  0
 29 30  1  0
 29 55  1  6
 29 56  1  0
 30 31  1  0
 30 33  1  0
 30 68  1  1
 31 32  1  0
 31 57  1  1
 31 58  1  0
 32 59  1  1
 32 60  1  0
 33 61  1  6
 33 62  1  0
 33 63  1  0
 34 35  1  0
 34 64  1  0
 35 36  2  0
 35 65  1  0
 36 37  1  0
 36 66  1  0
 37 67  1  0
M  CHG  1  30   1
M  END
>  <s_epik_cmdline>  (657) 
J2VwaWtfcHl0aG9uJywgJy1waCcsICc3LjAwMDAwMCcsICctcGh0JywgJzIuMDAwMDAwJywgJy1tcycsICcxNicsICctdG4nLCAnOCcsICctbWEnLCAnMjAwJywgJy1pbWFlJywgJzxpbmZpbGUubWFlPicsICctb21hZScsICc8b3V0ZmlsZS5tYWU+Jw==

>  <s_epik_input>  (657) 
W0NIMl0xW0NIMl1OKFtDSDNdKVtDSDJdW0NIMl1OMWMoW2NIXVtjSF1bY0hdW2NIXTIpYzJDKD1PKVtOSF1jKGMoYzM0KVtjSF1bY0hdW2NIXVtjSF00KW5bY0hdYzNOKFtDQEhdKEMjTilbQ0gzXSljNVtjSF1bY0hdW2NIXVtjSF1bY0hdNQ==

>  <s_i_glide_gridfile>  (657) 
ATP-Grid

>  <s_lp_Force_Field>  (657) 
OPLS_2005

>  <s_lp_Variant>  (657) 
rxn502b____EMOL725548____EMOL7515103____EMOL36790511-2

>  <s_lp_label>  (657) 
2734_sdstereoexpander_2_neutralizer_1_epik_1_stereoizer_1

>  <s_m_source_file>  (657) 
ATP-VSW-LIGPREP-001-in.maegz

>  <s_sd_BIOSOLVEIT.INFINISEE\_QUERY\_NAME>  (657) 
Ref-Lig

>  <s_sd_BIOSOLVEIT.INFINISEE\_QUERY\_SMILES>  (657) 
S(c1nc2c(cc1C[NH2+]Cc3ccc(cc3)C[NH+](C)C)cccc2)Cc4ccccc4

>  <s_sd_BIOSOLVEIT.INFINISEE\_REACTION\_NAME>  (657) 
rxn502b

>  <s_sd_BIOSOLVEIT.INFINISEE\_REAGENT1\_NAME>  (657) 
EMOL725548

>  <s_sd_BIOSOLVEIT.INFINISEE\_REAGENT1\_SMILES>  (657) 
O=C(O)c1c(N2CCN(CC2)C)cccc1

>  <s_sd_BIOSOLVEIT.INFINISEE\_REAGENT2\_NAME>  (657) 
EMOL7515103

>  <s_sd_BIOSOLVEIT.INFINISEE\_REAGENT2\_SMILES>  (657) 
Brc1c2c(c(nc1)N)cccc2

>  <s_sd_BIOSOLVEIT.INFINISEE\_REAGENT3\_NAME>  (657) 
EMOL36790511

>  <s_sd_BIOSOLVEIT.INFINISEE\_REAGENT3\_SMILES>  (657) 
N#CC(Nc1ccccc1)C

>  <s_sd_BIOSOLVEIT.INFINISEE\_SPACE>  (657) 
eXplore_7tr_2022-12

>  <s_vsw_compound_code>  (657) 
87457

>  <s_vsw_variant>  (657) 
87457-2

>  <r_epik_Charging_Adjusted_Penalty>  (657) 
0.12949746992303099

>  <r_epik_Ionization_Penalty>  (657) 
0.064799999999999996

>  <r_epik_Ionization_Penalty_Charging>  (657) 
0.064699999999999994

>  <r_epik_Ionization_Penalty_Neutral>  (657) 
0

>  <r_epik_State_Penalty>  (657) 
0.064699999999999994

>  <r_i_docking_score>  (657) 
-3.5627341708381501

>  <r_i_glide_ecoul>  (657) 
-5.0372548103332502

>  <r_i_glide_eff_state_penalty>  (657) 
0.064699999999999994

>  <r_i_glide_einternal>  (657) 
3.1653077602386501

>  <r_i_glide_emodel>  (657) 
-51.7540257571195

>  <r_i_glide_energy>  (657) 
-42.038116931915297

>  <r_i_glide_erotb>  (657) 
0.50543625781342305

>  <r_i_glide_esite>  (657) 
-0.088803484744693198

>  <r_i_glide_evdw>  (657) 
-37.000862121582003

>  <r_i_glide_gscore>  (657) 
-3.6274341708381499

>  <r_i_glide_hbond>  (657) 
0

>  <r_i_glide_ligand_efficiency>  (657) 
-0.096290112725355398

>  <r_i_glide_ligand_efficiency_ln>  (657) 
-0.77267351931559902

>  <r_i_glide_ligand_efficiency_sa>  (657) 
-0.320860017334682

>  <r_i_glide_lipo>  (657) 
-1.01824358238697

>  <r_i_glide_metal>  (657) 
-0

>  <r_i_glide_rewards>  (657) 
-0.42019203389081899

>  <r_lp_Energy>  (657) 
66.465052

>  <r_qp_ACxDN^.5/SA>  (657) 
0.0100982

>  <r_qp_CIQPlogS>  (657) 
-7.1390000000000002

>  <r_qp_EA(eV)>  (657) 
1.218

>  <r_qp_FISA>  (657) 
101.009

>  <r_qp_FOSA>  (657) 
293.17399999999998

>  <r_qp_IP(eV)>  (657) 
8.4280000000000008

>  <r_qp_Jm>  (657) 
1.8650268293818402e-05

>  <r_qp_PISA>  (657) 
447.55200000000002

>  <r_qp_PSA>  (657) 
74.959000000000003

>  <r_qp_PercentHumanOralAbsorption>  (657) 
100

>  <r_qp_QPPCaco>  (657) 
272.226

>  <r_qp_QPPMDCK>  (657) 
134.108

>  <r_qp_QPlogBB>  (657) 
-0.52300000000000002

>  <r_qp_QPlogHERG>  (657) 
-8.0440000000000005

>  <r_qp_QPlogKhsa>  (657) 
0.88500000000000001

>  <r_qp_QPlogKp>  (657) 
-3.2909999999999999

>  <r_qp_QPlogPC16>  (657) 
17.009

>  <r_qp_QPlogPo/w>  (657) 
4.8090000000000002

>  <r_qp_QPlogPoct>  (657) 
25.428999999999998

>  <r_qp_QPlogPw>  (657) 
13.99

>  <r_qp_QPlogS>  (657) 
-7.1289999999999996

>  <r_qp_QPpolrz>  (657) 
56.883000000000003

>  <r_qp_SASA>  (657) 
841.73500000000001

>  <r_qp_SAamideO>  (657) 
0

>  <r_qp_SAfluorine>  (657) 
0

>  <r_qp_WPSA>  (657) 
0

>  <r_qp_accptHB>  (657) 
8.5

>  <r_qp_dip^2/V>  (657) 
0.018958699999999998

>  <r_qp_dipole>  (657) 
5.4459999999999997

>  <r_qp_donorHB>  (657) 
1

>  <r_qp_glob>  (657) 
0.77432970000000001

>  <r_qp_mol_MW>  (657) 
490.60700000000003

>  <r_qp_volume>  (657) 
1564.605

>  <r_sd_BIOSOLVEIT.INFINISEE\_FTREES\_SIMILARITY>  (657) 
0.90800000000000003

>  <r_sd_BIOSOLVEIT.LOGP>  (657) 
3.8719800000000002

>  <r_sd_BIOSOLVEIT.MOLECULAR\_WEIGHT>  (657) 
491.61599999999999

>  <r_sd_BIOSOLVEIT.TPSA>  (657) 
76.700000000000003

>  <i_epik_Tot_Q>  (657) 
1

>  <i_epik_Tot_abs_Q>  (657) 
1

>  <i_f3d_flags>  (657) 
0

>  <i_i_glide_confnum>  (657) 
3

>  <i_i_glide_lignum>  (657) 
1215

>  <i_i_glide_posenum>  (657) 
10

>  <i_i_glide_rotatable_bonds>  (657) 
7

>  <i_lp_mmshare_version>  (657) 
65135

>  <i_m_ct_format>  (657) 
2

>  <i_m_source_file_index>  (657) 
2734

>  <i_qp_#NandO>  (657) 
7

>  <i_qp_#acid>  (657) 
0

>  <i_qp_#amide>  (657) 
0

>  <i_qp_#amidine>  (657) 
0

>  <i_qp_#amine>  (657) 
1

>  <i_qp_#in34>  (657) 
0

>  <i_qp_#in56>  (657) 
28

>  <i_qp_#metab>  (657) 
5

>  <i_qp_#nonHatm>  (657) 
37

>  <i_qp_#noncon>  (657) 
4

>  <i_qp_#ringatoms>  (657) 
28

>  <i_qp_#rotor>  (657) 
6

>  <i_qp_#rtvFG>  (657) 
0

>  <i_qp_#stars>  (657) 
1

>  <i_qp_CNS>  (657) 
1

>  <i_qp_HumanOralAbsorption>  (657) 
1

>  <i_qp_RuleOfFive>  (657) 
0

>  <i_qp_RuleOfThree>  (657) 
1

>  <i_sd_BIOSOLVEIT.INFINISEE\_RESULT\_RANK>  (657) 
56352

>  <i_sd_version>  (657) 
0

>  <b_lp_Chiralities_Consistent>  (657) 
1

>  <b_sd_chiral_flag>  (657) 
0

>  <canonical_id>  (657) 
ATP-HTVS-66BD7620CABA

>  <compound_code>  (657) 
87457

>  <title>  (657) 
rxn502b____EMOL725548____EMOL7515103____EMOL36790511

>  <variant>  (657) 
87457-2

>  <source_file>  (657) 
运行/运行/ATP-VSW/ATP-VSW-DOCK_HTVS_1-001_lib/ATP-VSW-DOCK_HTVS_1-001_lib

>  <canonical_smiles>  (657) 
C[C@@H](C#N)N(c1ccccc1)c1cnc(NC(=O)c2ccccc2N2CC[NH+](C)CC2)c2ccccc12

>  <scaffold>  (657) 
O=C(Nc1ncc(Nc2ccccc2)c2ccccc12)c1ccccc1N1CC[NH2+]CC1

>  <molecular_formula>  (657) 
C30H31N6O+

$$$$
ATP-HTVS-66EE35E24140
     RDKit          3D

 69 72  0  0  0  0  0  0  0  0999 V2000
  196.8222  179.0427  151.0952 O   0  0  0  0  0  0  0  0  0  0  0  0
  197.9563  178.5577  151.2881 C   0  0  0  0  0  0  0  0  0  0  0  0
  198.7291  178.8764  152.3200 N   0  0  0  0  0  0  0  0  0  0  0  0
  198.4247  179.6653  153.4657 C   0  0  0  0  0  0  0  0  0  0  0  0
  197.2566  180.3318  153.5686 N   0  0  0  0  0  0  0  0  0  0  0  0
  196.9762  181.0539  154.6640 C   0  0  0  0  0  0  0  0  0  0  0  0
  197.8583  181.1855  155.7633 C   0  0  0  0  0  0  0  0  0  0  0  0
  197.5336  181.9817  156.8679 N   0  0  0  0  0  0  0  0  0  0  0  0
  196.1414  182.2458  157.2140 C   0  0  1  0  0  0  0  0  0  0  0  0
  195.8938  183.3361  158.2197 C   0  0  0  0  0  0  0  0  0  0  0  0
  196.9045  184.2836  158.5082 C   0  0  0  0  0  0  0  0  0  0  0  0
  196.6557  185.3270  159.4093 C   0  0  0  0  0  0  0  0  0  0  0  0
  195.3973  185.4342  160.0352 C   0  0  0  0  0  0  0  0  0  0  0  0
  194.3820  184.5059  159.7379 C   0  0  0  0  0  0  0  0  0  0  0  0
  194.6366  183.4525  158.8351 C   0  0  0  0  0  0  0  0  0  0  0  0
  197.7551  186.3267  159.7131 C   0  0  1  0  0  0  0  0  0  0  0  0
  197.8212  187.4659  158.7254 N   0  0  1  0  0  0  0  0  0  0  0  0
  197.9798  186.9948  157.3214 C   0  0  1  0  0  0  0  0  0  0  0  0
  198.3764  188.0848  156.3128 C   0  0  2  0  0  0  0  0  0  0  0  0
  196.7156  188.4411  158.9206 C   0  0  1  0  0  0  0  0  0  0  0  0
  196.7593  189.1860  160.2610 C   0  0  2  0  0  0  0  0  0  0  0  0
  199.0934  180.4856  155.6741 C   0  0  0  0  0  0  0  0  0  0  0  0
  199.3847  179.7128  154.5101 C   0  0  0  0  0  0  0  0  0  0  0  0
  200.6216  179.0203  154.4211 C   0  0  0  0  0  0  0  0  0  0  0  0
  201.5599  179.0876  155.4662 C   0  0  0  0  0  0  0  0  0  0  0  0
  201.2753  179.8546  156.6074 C   0  0  0  0  0  0  0  0  0  0  0  0
  200.0592  180.5553  156.7031 C   0  0  0  0  0  0  0  0  0  0  0  0
  198.5331  177.5241  150.3420 C   0  0  0  0  0  0  0  0  0  0  0  0
  198.3369  177.5111  148.9248 C   0  0  0  0  0  0  0  0  0  0  0  0
  198.8848  176.4426  148.1703 C   0  0  0  0  0  0  0  0  0  0  0  0
  199.6683  175.4422  148.7697 C   0  0  0  0  0  0  0  0  0  0  0  0
  199.8949  175.4716  150.1465 C   0  0  0  0  0  0  0  0  0  0  0  0
  199.3181  176.4904  150.9299 C   0  0  0  0  0  0  0  0  0  0  0  0
  197.5569  178.5177  148.1294 C   0  0  0  0  0  0  0  0  0  0  0  0
  196.4389  178.9633  148.4399 O   0  0  0  0  0  0  0  0  0  0  0  0
  198.1983  179.0330  146.8470 C   0  0  2  0  0  0  0  0  0  0  0  0
  199.6162  178.4000  152.3636 H   0  0  0  0  0  0  0  0  0  0  0  0
  196.0208  181.5510  154.6100 H   0  0  0  0  0  0  0  0  0  0  0  0
  198.1344  181.8792  157.6829 H   0  0  0  0  0  0  0  0  0  0  0  0
  195.5631  182.5368  156.3277 H   0  0  0  0  0  0  0  0  0  0  0  0
  195.6873  181.3341  157.5941 H   0  0  0  0  0  0  0  0  0  0  0  0
  197.8509  184.2146  157.9999 H   0  0  0  0  0  0  0  0  0  0  0  0
  195.1963  186.2383  160.7332 H   0  0  0  0  0  0  0  0  0  0  0  0
  193.4123  184.6021  160.1989 H   0  0  0  0  0  0  0  0  0  0  0  0
  193.8502  182.7538  158.5932 H   0  0  0  0  0  0  0  0  0  0  0  0
  197.5436  186.6767  160.7151 H   0  0  0  0  0  0  0  0  0  0  0  0
  198.7036  185.8049  159.7231 H   0  0  0  0  0  0  0  0  0  0  0  0
  198.7595  186.2408  157.2850 H   0  0  0  0  0  0  0  0  0  0  0  0
  197.0604  186.5275  156.9767 H   0  0  0  0  0  0  0  0  0  0  0  0
  198.4920  187.6497  155.3188 H   0  0  0  0  0  0  0  0  0  0  0  0
  199.3258  188.5435  156.5849 H   0  0  0  0  0  0  0  0  0  0  0  0
  197.6229  188.8648  156.2214 H   0  0  0  0  0  0  0  0  0  0  0  0
  196.7576  189.2213  158.1578 H   0  0  0  0  0  0  0  0  0  0  0  0
  195.7700  187.9273  158.7717 H   0  0  0  0  0  0  0  0  0  0  0  0
  195.9520  189.9138  160.2982 H   0  0  0  0  0  0  0  0  0  0  0  0
  197.6969  189.7312  160.3672 H   0  0  0  0  0  0  0  0  0  0  0  0
  196.6431  188.5449  161.1345 H   0  0  0  0  0  0  0  0  0  0  0  0
  200.8885  178.4250  153.5579 H   0  0  0  0  0  0  0  0  0  0  0  0
  202.4947  178.5521  155.3938 H   0  0  0  0  0  0  0  0  0  0  0  0
  201.9980  179.9017  157.4081 H   0  0  0  0  0  0  0  0  0  0  0  0
  199.8825  181.1447  157.5901 H   0  0  0  0  0  0  0  0  0  0  0  0
  198.7106  176.3514  147.1140 H   0  0  0  0  0  0  0  0  0  0  0  0
  200.0846  174.6496  148.1721 H   0  0  0  0  0  0  0  0  0  0  0  0
  200.4847  174.7013  150.6122 H   0  0  0  0  0  0  0  0  0  0  0  0
  199.4926  176.4406  151.9886 H   0  0  0  0  0  0  0  0  0  0  0  0
  198.7332  178.2613  146.2902 H   0  0  0  0  0  0  0  0  0  0  0  0
  198.8998  179.8344  147.0739 H   0  0  0  0  0  0  0  0  0  0  0  0
  197.4327  179.4281  146.1834 H   0  0  0  0  0  0  0  0  0  0  0  0
  198.6804  187.9552  158.9545 H   0  0  0  0  0  0  0  0  0  0  0  0
  1  2  2  0
  2  3  1  0
  2 28  1  0
  3  4  1  0
  3 37  1  0
  4  5  1  0
  4 23  2  0
  5  6  2  0
  6  7  1  0
  6 38  1  0
  7  8  1  0
  7 22  2  0
  8  9  1  0
  8 39  1  0
  9 10  1  0
  9 40  1  6
  9 41  1  0
 10 11  2  0
 10 15  1  0
 11 12  1  0
 11 42  1  0
 12 13  2  0
 12 16  1  0
 13 14  1  0
 13 43  1  0
 14 15  2  0
 14 44  1  0
 15 45  1  0
 16 17  1  0
 16 46  1  1
 16 47  1  0
 17 18  1  0
 17 20  1  0
 17 69  1  1
 18 19  1  0
 18 48  1  1
 18 49  1  0
 19 50  1  6
 19 51  1  0
 19 52  1  0
 20 21  1  0
 20 53  1  6
 20 54  1  0
 21 55  1  6
 21 56  1  0
 21 57  1  0
 22 23  1  0
 22 27  1  0
 23 24  1  0
 24 25  2  0
 24 58  1  0
 25 26  1  0
 25 59  1  0
 26 27  2  0
 26 60  1  0
 27 61  1  0
 28 29  1  0
 28 33  2  0
 29 30  2  0
 29 34  1  0
 30 31  1  0
 30 62  1  0
 31 32  2  0
 31 63  1  0
 32 33  1  0
 32 64  1  0
 33 65  1  0
 34 35  2  0
 34 36  1  0
 36 66  1  6
 36 67  1  0
 36 68  1  0
M  CHG  1  17   1
M  END
>  <s_epik_cmdline>  (658) 
J2VwaWtfcHl0aG9uJywgJy1waCcsICc3LjAwMDAwMCcsICctcGh0JywgJzIuMDAwMDAwJywgJy1tcycsICcxNicsICctdG4nLCAnOCcsICctbWEnLCAnMjAwJywgJy1pbWFlJywgJzxpbmZpbGUubWFlPicsICctb21hZScsICc8b3V0ZmlsZS5tYWU+Jw==

>  <s_epik_input>  (658) 
W2NIXTFbY0hdW2NIXVtjSF1jKEMoPU8pW0NIM10pYzFDKD1PKVtOSF1jKGMoYzIzKVtjSF1bY0hdW2NIXVtjSF0zKW5bY0hdYzJbTkhdW0NIMl1jNFtjSF1jKFtjSF1bY0hdW2NIXTQpW0NIMl1OKFtDSDJdW0NIM10pW0NIMl1bQ0gzXQ==

>  <s_i_glide_gridfile>  (658) 
ATP-Grid

>  <s_lp_Force_Field>  (658) 
OPLS_2005

>  <s_lp_Variant>  (658) 
rxn502b____EMOL711278____EMOL7515103____EMOL44153840-1

>  <s_lp_label>  (658) 
2628_sdstereoexpander_1_neutralizer_1_epik_1_stereoizer_1

>  <s_m_source_file>  (658) 
ATP-VSW-LIGPREP-001-in.maegz

>  <s_sd_BIOSOLVEIT.INFINISEE\_QUERY\_NAME>  (658) 
Ref-Lig

>  <s_sd_BIOSOLVEIT.INFINISEE\_QUERY\_SMILES>  (658) 
S(c1nc2c(cc1C[NH2+]Cc3ccc(cc3)C[NH+](C)C)cccc2)Cc4ccccc4

>  <s_sd_BIOSOLVEIT.INFINISEE\_REACTION\_NAME>  (658) 
rxn502b

>  <s_sd_BIOSOLVEIT.INFINISEE\_REAGENT1\_NAME>  (658) 
EMOL711278

>  <s_sd_BIOSOLVEIT.INFINISEE\_REAGENT1\_SMILES>  (658) 
O=C(O)c1c(cccc1)C(=O)C

>  <s_sd_BIOSOLVEIT.INFINISEE\_REAGENT2\_NAME>  (658) 
EMOL7515103

>  <s_sd_BIOSOLVEIT.INFINISEE\_REAGENT2\_SMILES>  (658) 
Brc1c2c(c(nc1)N)cccc2

>  <s_sd_BIOSOLVEIT.INFINISEE\_REAGENT3\_NAME>  (658) 
EMOL44153840

>  <s_sd_BIOSOLVEIT.INFINISEE\_REAGENT3\_SMILES>  (658) 
N(Cc1cc(ccc1)CN)(CC)CC

>  <s_sd_BIOSOLVEIT.INFINISEE\_SPACE>  (658) 
eXplore_7tr_2022-12

>  <s_vsw_compound_code>  (658) 
84065

>  <s_vsw_variant>  (658) 
84065-1

>  <r_epik_Charging_Adjusted_Penalty>  (658) 
0.035901477740998201

>  <r_epik_Ionization_Penalty>  (658) 
0.018100000000000002

>  <r_epik_Ionization_Penalty_Charging>  (658) 
0.017999999999999999

>  <r_epik_Ionization_Penalty_Neutral>  (658) 
0.00020000000000000001

>  <r_epik_State_Penalty>  (658) 
0.017999999999999999

>  <r_i_docking_score>  (658) 
-4.3757231194580104

>  <r_i_glide_ecoul>  (658) 
-3.4275138378143302

>  <r_i_glide_eff_state_penalty>  (658) 
0.017999999999999999

>  <r_i_glide_einternal>  (658) 
4.5904479026794398

>  <r_i_glide_emodel>  (658) 
-59.860461997997099

>  <r_i_glide_energy>  (658) 
-46.583275556564303

>  <r_i_glide_erotb>  (658) 
0.699730791427293

>  <r_i_glide_esite>  (658) 
-0.050522935394082501

>  <r_i_glide_evdw>  (658) 
-43.15576171875

>  <r_i_glide_gscore>  (658) 
-4.3937231194580102

>  <r_i_glide_hbond>  (658) 
0

>  <r_i_glide_ligand_efficiency>  (658) 
-0.121547864429389

>  <r_i_glide_ligand_efficiency_ln>  (658) 
-0.95466456628886698

>  <r_i_glide_ligand_efficiency_sa>  (658) 
-0.40134220512494401

>  <r_i_glide_lipo>  (658) 
-1.9911151443763999

>  <r_i_glide_metal>  (658) 
-0

>  <r_i_glide_rewards>  (658) 
-0.37990066950517198

>  <r_lp_Energy>  (658) 
40.306035999999999

>  <r_lp_tautomer_probability>  (658) 
0.99995000000000001

>  <r_qp_ACxDN^.5/SA>  (658) 
0.0169144

>  <r_qp_CIQPlogS>  (658) 
-5.8090000000000002

>  <r_qp_EA(eV)>  (658) 
0.81499999999999995

>  <r_qp_FISA>  (658) 
53.777000000000001

>  <r_qp_FOSA>  (658) 
259.86200000000002

>  <r_qp_IP(eV)>  (658) 
7.649

>  <r_qp_Jm>  (658) 
1.56023015336948

>  <r_qp_PISA>  (658) 
397.04700000000003

>  <r_qp_PSA>  (658) 
78.061000000000007

>  <r_qp_PercentHumanOralAbsorption>  (658) 
100

>  <r_qp_QPPCaco>  (658) 
763.53899999999999

>  <r_qp_QPPMDCK>  (658) 
408.86900000000003

>  <r_qp_QPlogBB>  (658) 
-0.112

>  <r_qp_QPlogHERG>  (658) 
-6.2149999999999999

>  <r_qp_QPlogKhsa>  (658) 
0.498

>  <r_qp_QPlogKp>  (658) 
-2.214

>  <r_qp_QPlogPC16>  (658) 
15.188000000000001

>  <r_qp_QPlogPo/w>  (658) 
4.343

>  <r_qp_QPlogPoct>  (658) 
24.643000000000001

>  <r_qp_QPlogPw>  (658) 
13.592000000000001

>  <r_qp_QPlogS>  (658) 
-3.274

>  <r_qp_QPpolrz>  (658) 
49.316000000000003

>  <r_qp_SASA>  (658) 
710.68600000000004

>  <r_qp_SAamideO>  (658) 
0

>  <r_qp_SAfluorine>  (658) 
0

>  <r_qp_WPSA>  (658) 
0

>  <r_qp_accptHB>  (658) 
8.5

>  <r_qp_dip^2/V>  (658) 
0.051957900000000001

>  <r_qp_dipole>  (658) 
8.6850000000000005

>  <r_qp_donorHB>  (658) 
2

>  <r_qp_glob>  (658) 
0.87246429999999997

>  <r_qp_mol_MW>  (658) 
480.608

>  <r_qp_volume>  (658) 
1451.7470000000001

>  <r_sd_BIOSOLVEIT.INFINISEE\_FTREES\_SIMILARITY>  (658) 
0.91000000000000003

>  <r_sd_BIOSOLVEIT.LOGP>  (658) 
4.7264999999999997

>  <r_sd_BIOSOLVEIT.MOLECULAR\_WEIGHT>  (658) 
481.61700000000002

>  <r_sd_BIOSOLVEIT.TPSA>  (658) 
75.530000000000001

>  <i_epik_Tot_Q>  (658) 
1

>  <i_epik_Tot_abs_Q>  (658) 
1

>  <i_f3d_flags>  (658) 
0

>  <i_i_glide_confnum>  (658) 
3

>  <i_i_glide_lignum>  (658) 
1124

>  <i_i_glide_posenum>  (658) 
10

>  <i_i_glide_rotatable_bonds>  (658) 
11

>  <i_lp_mmshare_version>  (658) 
65135

>  <i_m_ct_format>  (658) 
2

>  <i_m_source_file_index>  (658) 
2628

>  <i_qp_#NandO>  (658) 
6

>  <i_qp_#acid>  (658) 
0

>  <i_qp_#amide>  (658) 
0

>  <i_qp_#amidine>  (658) 
0

>  <i_qp_#amine>  (658) 
1

>  <i_qp_#in34>  (658) 
0

>  <i_qp_#in56>  (658) 
22

>  <i_qp_#metab>  (658) 
7

>  <i_qp_#nonHatm>  (658) 
36

>  <i_qp_#noncon>  (658) 
0

>  <i_qp_#ringatoms>  (658) 
22

>  <i_qp_#rotor>  (658) 
10

>  <i_qp_#rtvFG>  (658) 
0

>  <i_qp_#stars>  (658) 
1

>  <i_qp_CNS>  (658) 
1

>  <i_qp_HumanOralAbsorption>  (658) 
3

>  <i_qp_RuleOfFive>  (658) 
0

>  <i_qp_RuleOfThree>  (658) 
1

>  <i_sd_BIOSOLVEIT.INFINISEE\_RESULT\_RANK>  (658) 
44104

>  <i_sd_version>  (658) 
0

>  <b_lp_Chiralities_Consistent>  (658) 
1

>  <b_sd_chiral_flag>  (658) 
0

>  <canonical_id>  (658) 
ATP-HTVS-66EE35E24140

>  <compound_code>  (658) 
84065

>  <title>  (658) 
rxn502b____EMOL711278____EMOL7515103____EMOL44153840

>  <variant>  (658) 
84065-1

>  <source_file>  (658) 
运行/运行/ATP-VSW/ATP-VSW-DOCK_HTVS_1-001_lib/ATP-VSW-DOCK_HTVS_1-001_lib

>  <canonical_smiles>  (658) 
CC[NH+](CC)Cc1cccc(CNc2cnc(NC(=O)c3ccccc3C(C)=O)c3ccccc23)c1

>  <scaffold>  (658) 
O=C(Nc1ncc(NCc2ccccc2)c2ccccc12)c1ccccc1

>  <molecular_formula>  (658) 
C30H33N4O2+

$$$$
ATP-HTVS-66FFB530802B
     RDKit          3D

 64 67  0  0  0  0  0  0  0  0999 V2000
  196.4540  183.6333  150.7420 F   0  0  0  0  0  0  0  0  0  0  0  0
  196.7699  183.4238  152.0438 C   0  0  0  0  0  0  0  0  0  0  0  0
  196.4481  182.2075  152.6731 C   0  0  0  0  0  0  0  0  0  0  0  0
  196.7553  181.9890  154.0334 C   0  0  0  0  0  0  0  0  0  0  0  0
  197.4006  182.9833  154.8262 C   0  0  0  0  0  0  0  0  0  0  0  0
  197.7286  182.7976  156.2027 N   0  0  0  0  0  0  0  0  0  0  0  0
  198.5238  183.6830  156.9827 C   0  0  0  0  0  0  0  0  0  0  0  0
  199.7599  183.2948  157.5571 C   0  0  0  0  0  0  0  0  0  0  0  0
  200.2508  181.9807  157.3422 N   0  0  0  0  0  0  0  0  0  0  0  0
  201.2431  181.6737  156.4900 C   0  0  0  0  0  0  0  0  0  0  0  0
  202.0338  182.5119  156.0404 O   0  0  0  0  0  0  0  0  0  0  0  0
  201.3253  180.2294  156.0687 C   0  0  0  0  0  0  0  0  0  0  0  0
  202.2304  179.8428  155.0501 C   0  0  0  0  0  0  0  0  0  0  0  0
  202.2693  178.5214  154.5694 C   0  0  0  0  0  0  0  0  0  0  0  0
  201.3835  177.5549  155.0902 C   0  0  0  0  0  0  0  0  0  0  0  0
  200.4717  177.9279  156.1009 C   0  0  0  0  0  0  0  0  0  0  0  0
  200.4477  179.2414  156.5877 C   0  0  0  0  0  0  0  0  0  0  0  0
  201.4145  176.1209  154.6039 C   0  0  1  0  0  0  0  0  0  0  0  0
  202.3787  175.2728  155.3627 N   0  0  2  0  0  0  0  0  0  0  0  0
  202.3498  173.8658  154.8783 C   0  0  2  0  0  0  0  0  0  0  0  0
  202.2288  175.3281  156.8397 C   0  0  2  0  0  0  0  0  0  0  0  0
  200.4613  184.2292  158.3751 C   0  0  0  0  0  0  0  0  0  0  0  0
  199.9078  185.5302  158.5512 C   0  0  0  0  0  0  0  0  0  0  0  0
  198.7439  185.8965  157.9852 N   0  0  0  0  0  0  0  0  0  0  0  0
  198.0737  184.9968  157.2400 C   0  0  0  0  0  0  0  0  0  0  0  0
  200.6063  186.4596  159.3554 C   0  0  0  0  0  0  0  0  0  0  0  0
  201.8133  186.1036  159.9870 C   0  0  0  0  0  0  0  0  0  0  0  0
  202.3494  184.8136  159.8158 C   0  0  0  0  0  0  0  0  0  0  0  0
  201.6675  183.8800  159.0187 C   0  0  0  0  0  0  0  0  0  0  0  0
  196.9799  181.8389  157.0547 C   0  0  1  0  0  0  0  0  0  0  0  0
  195.7301  182.3812  157.7829 C   0  0  0  0  0  0  0  0  0  0  0  0
  195.6116  183.5795  158.0966 O   0  0  0  0  0  0  0  0  0  0  0  0
  194.7872  181.4770  158.0602 N   0  0  0  0  0  0  0  0  0  0  0  0
  193.5383  181.8671  158.5220 N   0  0  0  0  0  0  0  0  0  0  0  0
  197.7318  184.2007  154.1529 C   0  0  0  0  0  0  0  0  0  0  0  0
  197.4153  184.4206  152.7989 C   0  0  0  0  0  0  0  0  0  0  0  0
  195.9399  181.4412  152.1085 H   0  0  0  0  0  0  0  0  0  0  0  0
  196.4367  181.0356  154.4263 H   0  0  0  0  0  0  0  0  0  0  0  0
  199.6156  181.2328  157.6006 H   0  0  0  0  0  0  0  0  0  0  0  0
  202.8999  180.5743  154.6180 H   0  0  0  0  0  0  0  0  0  0  0  0
  202.9740  178.2673  153.7849 H   0  0  0  0  0  0  0  0  0  0  0  0
  199.7750  177.2137  156.5161 H   0  0  0  0  0  0  0  0  0  0  0  0
  199.7247  179.4479  157.3684 H   0  0  0  0  0  0  0  0  0  0  0  0
  200.4044  175.7040  154.6448 H   0  0  0  0  0  0  0  0  0  0  0  0
  201.7068  176.1154  153.5508 H   0  0  0  0  0  0  0  0  0  0  0  0
  201.3839  173.4084  155.0909 H   0  0  0  0  0  0  0  0  0  0  0  0
  203.1201  173.2617  155.3614 H   0  0  0  0  0  0  0  0  0  0  0  0
  202.5075  173.8011  153.7998 H   0  0  0  0  0  0  0  0  0  0  0  0
  201.2280  175.0069  157.1156 H   0  0  0  0  0  0  0  0  0  0  0  0
  202.3646  176.3209  157.2601 H   0  0  0  0  0  0  0  0  0  0  0  0
  202.9762  174.6961  157.3225 H   0  0  0  0  0  0  0  0  0  0  0  0
  197.1355  185.3457  156.8368 H   0  0  0  0  0  0  0  0  0  0  0  0
  200.1825  187.4431  159.5003 H   0  0  0  0  0  0  0  0  0  0  0  0
  202.3331  186.8202  160.6096 H   0  0  0  0  0  0  0  0  0  0  0  0
  203.2817  184.5234  160.2825 H   0  0  0  0  0  0  0  0  0  0  0  0
  202.0988  182.8997  158.9110 H   0  0  0  0  0  0  0  0  0  0  0  0
  196.6745  180.9232  156.5357 H   0  0  0  0  0  0  0  0  0  0  0  0
  197.6435  181.4314  157.8192 H   0  0  0  0  0  0  0  0  0  0  0  0
  194.9539  180.4779  157.8794 H   0  0  0  0  0  0  0  0  0  0  0  0
  193.5841  182.8618  158.7522 H   0  0  0  0  0  0  0  0  0  0  0  0
  192.8690  181.7517  157.7684 H   0  0  0  0  0  0  0  0  0  0  0  0
  198.2312  185.0206  154.6476 H   0  0  0  0  0  0  0  0  0  0  0  0
  197.6717  185.3618  152.3275 H   0  0  0  0  0  0  0  0  0  0  0  0
  203.2896  175.6470  155.1615 H   0  0  0  0  0  0  0  0  0  0  0  0
  1  2  1  0
  2  3  1  0
  2 36  2  0
  3  4  2  0
  3 37  1  0
  4  5  1  0
  4 38  1  0
  5  6  1  0
  5 35  2  0
  6  7  1  0
  6 30  1  0
  7  8  2  0
  7 25  1  0
  8  9  1  0
  8 22  1  0
  9 10  1  0
  9 39  1  0
 10 11  2  0
 10 12  1  0
 12 13  1  0
 12 17  2  0
 13 14  2  0
 13 40  1  0
 14 15  1  0
 14 41  1  0
 15 16  2  0
 15 18  1  0
 16 17  1  0
 16 42  1  0
 17 43  1  0
 18 19  1  0
 18 44  1  6
 18 45  1  0
 19 20  1  0
 19 21  1  0
 19 64  1  1
 20 46  1  6
 20 47  1  0
 20 48  1  0
 21 49  1  6
 21 50  1  0
 21 51  1  0
 22 23  1  0
 22 29  2  0
 23 24  1  0
 23 26  2  0
 24 25  2  0
 25 52  1  0
 26 27  1  0
 26 53  1  0
 27 28  2  0
 27 54  1  0
 28 29  1  0
 28 55  1  0
 29 56  1  0
 30 31  1  0
 30 57  1  6
 30 58  1  0
 31 32  2  0
 31 33  1  0
 33 34  1  0
 33 59  1  0
 34 60  1  0
 34 61  1  0
 35 36  1  0
 35 62  1  0
 36 63  1  0
M  CHG  1  19   1
M  END
>  <s_epik_cmdline>  (659) 
J2VwaWtfcHl0aG9uJywgJy1waCcsICc3LjAwMDAwMCcsICctcGh0JywgJzIuMDAwMDAwJywgJy1tcycsICcxNicsICctdG4nLCAnOCcsICctbWEnLCAnMjAwJywgJy1pbWFlJywgJzxpbmZpbGUubWFlPicsICctb21hZScsICc8b3V0ZmlsZS5tYWU+Jw==

>  <s_epik_input>  (659) 
W2NIXTFbY0hdW2NIXVtjSF1jKGMxMiluW2NIXWMoTihjKFtjSF1bY0hdMylbY0hdW2NIXWMzRilbQ0gyXUMoPU8pW05IXVtOSDJdKWMyW05IXUMoPU8pYzRbY0hdW2NIXWMoW2NIXVtjSF00KVtDSDJdTihbQ0gzXSlbQ0gzXQ==

>  <s_i_glide_gridfile>  (659) 
ATP-Grid

>  <s_lp_Force_Field>  (659) 
OPLS_2005

>  <s_lp_Variant>  (659) 
rxn502b____EMOL18624763____EMOL13728749____EMOL2859841-1

>  <s_lp_label>  (659) 
2677_sdstereoexpander_1_neutralizer_1_epik_1_stereoizer_1

>  <s_m_source_file>  (659) 
ATP-VSW-LIGPREP-003-in.maegz

>  <s_sd_BIOSOLVEIT.INFINISEE\_QUERY\_NAME>  (659) 
Ref-Lig

>  <s_sd_BIOSOLVEIT.INFINISEE\_QUERY\_SMILES>  (659) 
S(c1nc2c(cc1C[NH2+]Cc3ccc(cc3)C[NH+](C)C)cccc2)Cc4ccccc4

>  <s_sd_BIOSOLVEIT.INFINISEE\_REACTION\_NAME>  (659) 
rxn502b

>  <s_sd_BIOSOLVEIT.INFINISEE\_REAGENT1\_NAME>  (659) 
EMOL18624763

>  <s_sd_BIOSOLVEIT.INFINISEE\_REAGENT1\_SMILES>  (659) 
O=C(O)c1ccc(cc1)CN(C)C

>  <s_sd_BIOSOLVEIT.INFINISEE\_REAGENT2\_NAME>  (659) 
EMOL13728749

>  <s_sd_BIOSOLVEIT.INFINISEE\_REAGENT2\_SMILES>  (659) 
Brc1c(N)c2c(nc1)cccc2

>  <s_sd_BIOSOLVEIT.INFINISEE\_REAGENT3\_NAME>  (659) 
EMOL2859841

>  <s_sd_BIOSOLVEIT.INFINISEE\_REAGENT3\_SMILES>  (659) 
Fc1ccc(NCC(=O)NN)cc1

>  <s_sd_BIOSOLVEIT.INFINISEE\_SPACE>  (659) 
eXplore_7tr_2022-12

>  <s_vsw_compound_code>  (659) 
85635

>  <s_vsw_variant>  (659) 
85635-1

>  <r_epik_Charging_Adjusted_Penalty>  (659) 
0.105369931083659

>  <r_epik_Ionization_Penalty>  (659) 
0.056899999999999999

>  <r_epik_Ionization_Penalty_Charging>  (659) 
0.052699999999999997

>  <r_epik_Ionization_Penalty_Neutral>  (659) 
0.0043

>  <r_epik_State_Penalty>  (659) 
0.052699999999999997

>  <r_i_docking_score>  (659) 
-3.7481725813561102

>  <r_i_glide_ecoul>  (659) 
-11.529360771179199

>  <r_i_glide_eff_state_penalty>  (659) 
0.052699999999999997

>  <r_i_glide_einternal>  (659) 
9.7945613861084002

>  <r_i_glide_emodel>  (659) 
-50.7489760699954

>  <r_i_glide_energy>  (659) 
-42.3788614273071

>  <r_i_glide_erotb>  (659) 
0.68421773096689498

>  <r_i_glide_esite>  (659) 
-0.19803940253077301

>  <r_i_glide_evdw>  (659) 
-30.849500656127901

>  <r_i_glide_gscore>  (659) 
-3.8008725813561099

>  <r_i_glide_hbond>  (659) 
-0.154002591285649

>  <r_i_glide_ligand_efficiency>  (659) 
-0.10411590503767

>  <r_i_glide_ligand_efficiency_ln>  (659) 
-0.81774999333124199

>  <r_i_glide_ligand_efficiency_sa>  (659) 
-0.34378314347655498

>  <r_i_glide_lipo>  (659) 
-0.62635946960276501

>  <r_i_glide_metal>  (659) 
-0

>  <r_i_glide_rewards>  (659) 
-0.234809700420537

>  <r_lp_Energy>  (659) 
42.494611999999996

>  <r_qp_ACxDN^.5/SA>  (659) 
0.022361800000000001

>  <r_qp_CIQPlogS>  (659) 
-5.585

>  <r_qp_EA(eV)>  (659) 
1.288

>  <r_qp_FISA>  (659) 
168.65100000000001

>  <r_qp_FOSA>  (659) 
194.971

>  <r_qp_IP(eV)>  (659) 
8.1820000000000004

>  <r_qp_Jm>  (659) 
0.000219728560648457

>  <r_qp_PISA>  (659) 
394.25599999999997

>  <r_qp_PSA>  (659) 
116.991

>  <r_qp_PercentHumanOralAbsorption>  (659) 
78.555000000000007

>  <r_qp_QPPCaco>  (659) 
62.155999999999999

>  <r_qp_QPPMDCK>  (659) 
49.200000000000003

>  <r_qp_QPlogBB>  (659) 
-1.3049999999999999

>  <r_qp_QPlogHERG>  (659) 
-7.6719999999999997

>  <r_qp_QPlogKhsa>  (659) 
0.36699999999999999

>  <r_qp_QPlogKp>  (659) 
-4.4370000000000003

>  <r_qp_QPlogPC16>  (659) 
16.698

>  <r_qp_QPlogPo/w>  (659) 
3.3319999999999999

>  <r_qp_QPlogPoct>  (659) 
29.358000000000001

>  <r_qp_QPlogPw>  (659) 
18.239999999999998

>  <r_qp_QPlogS>  (659) 
-4.9080000000000004

>  <r_qp_QPpolrz>  (659) 
51.215000000000003

>  <r_qp_SASA>  (659) 
804.94399999999996

>  <r_qp_SAamideO>  (659) 
0

>  <r_qp_SAfluorine>  (659) 
47.067

>  <r_qp_WPSA>  (659) 
47.067

>  <r_qp_accptHB>  (659) 
9

>  <r_qp_dip^2/V>  (659) 
0.083911799999999995

>  <r_qp_dipole>  (659) 
11.157999999999999

>  <r_qp_donorHB>  (659) 
4

>  <r_qp_glob>  (659) 
0.78160580000000002

>  <r_qp_mol_MW>  (659) 
486.548

>  <r_qp_volume>  (659) 
1483.825

>  <r_sd_BIOSOLVEIT.INFINISEE\_FTREES\_SIMILARITY>  (659) 
0.90900000000000003

>  <r_sd_BIOSOLVEIT.LOGP>  (659) 
2.3986999999999998

>  <r_sd_BIOSOLVEIT.MOLECULAR\_WEIGHT>  (659) 
487.55599999999998

>  <r_sd_BIOSOLVEIT.TPSA>  (659) 
104.79000000000001

>  <i_epik_Tot_Q>  (659) 
1

>  <i_epik_Tot_abs_Q>  (659) 
1

>  <i_f3d_flags>  (659) 
0

>  <i_i_glide_confnum>  (659) 
2

>  <i_i_glide_lignum>  (659) 
1263

>  <i_i_glide_posenum>  (659) 
13

>  <i_i_glide_rotatable_bonds>  (659) 
10

>  <i_lp_mmshare_version>  (659) 
65135

>  <i_m_ct_format>  (659) 
2

>  <i_m_source_file_index>  (659) 
2677

>  <i_qp_#NandO>  (659) 
8

>  <i_qp_#acid>  (659) 
0

>  <i_qp_#amide>  (659) 
0

>  <i_qp_#amidine>  (659) 
0

>  <i_qp_#amine>  (659) 
1

>  <i_qp_#in34>  (659) 
0

>  <i_qp_#in56>  (659) 
22

>  <i_qp_#metab>  (659) 
5

>  <i_qp_#nonHatm>  (659) 
36

>  <i_qp_#noncon>  (659) 
0

>  <i_qp_#ringatoms>  (659) 
22

>  <i_qp_#rotor>  (659) 
9

>  <i_qp_#rtvFG>  (659) 
1

>  <i_qp_#stars>  (659) 
0

>  <i_qp_CNS>  (659) 
-2

>  <i_qp_HumanOralAbsorption>  (659) 
3

>  <i_qp_RuleOfFive>  (659) 
0

>  <i_qp_RuleOfThree>  (659) 
0

>  <i_sd_BIOSOLVEIT.INFINISEE\_RESULT\_RANK>  (659) 
49791

>  <i_sd_version>  (659) 
0

>  <b_lp_Chiralities_Consistent>  (659) 
1

>  <b_sd_chiral_flag>  (659) 
0

>  <canonical_id>  (659) 
ATP-HTVS-66FFB530802B

>  <compound_code>  (659) 
85635

>  <title>  (659) 
rxn502b____EMOL18624763____EMOL13728749____EMOL2859841

>  <variant>  (659) 
85635-1

>  <source_file>  (659) 
运行/运行/ATP-VSW/ATP-VSW-DOCK_HTVS_1-003_lib/ATP-VSW-DOCK_HTVS_1-003_lib.mae

>  <canonical_smiles>  (659) 
C[NH+](C)Cc1ccc(C(=O)Nc2c(N(CC(=O)NN)c3ccc(F)cc3)cnc3ccccc23)cc1

>  <scaffold>  (659) 
O=C(Nc1c(Nc2ccccc2)cnc2ccccc12)c1ccccc1

>  <molecular_formula>  (659) 
C27H28FN6O2+

$$$$
ATP-HTVS-67024B617AFA
     RDKit          3D

 63 66  0  0  0  0  0  0  0  0999 V2000
  197.6436  180.0018  150.2209 S   0  0  0  0  0  0  0  0  0  0  0  0
  198.6783  178.8065  150.9988 C   0  0  0  0  0  0  0  0  0  0  0  0
  198.7565  179.0375  152.4069 C   0  0  0  0  0  0  0  0  0  0  0  0
  199.5832  178.1685  153.1664 C   0  0  0  0  0  0  0  0  0  0  0  0
  200.2577  177.0914  152.5705 C   0  0  0  0  0  0  0  0  0  0  0  0
  200.1407  176.8745  151.1877 C   0  0  0  0  0  0  0  0  0  0  0  0
  199.3596  177.7370  150.3991 C   0  0  0  0  0  0  0  0  0  0  0  0
  197.9261  180.1535  152.7998 C   0  0  0  0  0  0  0  0  0  0  0  0
  197.8650  180.4943  154.1589 C   0  0  0  0  0  0  0  0  0  0  0  0
  197.8281  180.7996  155.3435 C   0  0  0  0  0  0  0  0  0  0  0  0
  197.8289  181.4203  156.6796 C   0  0  1  0  0  0  0  0  0  0  0  0
  196.3823  181.4548  157.0609 N   0  0  1  0  0  0  0  0  0  0  0  0
  196.0763  182.0371  158.3832 C   0  0  1  0  0  0  0  0  0  0  0  0
  196.4695  183.5350  158.4753 C   0  0  0  0  0  0  0  0  0  0  0  0
  195.5166  184.5873  158.6510 C   0  0  0  0  0  0  0  0  0  0  0  0
  194.2000  184.3480  158.8457 F   0  0  0  0  0  0  0  0  0  0  0  0
  195.9308  185.9354  158.6438 C   0  0  0  0  0  0  0  0  0  0  0  0
  197.2826  186.2747  158.4296 C   0  0  0  0  0  0  0  0  0  0  0  0
  198.2298  185.2306  158.2707 C   0  0  0  0  0  0  0  0  0  0  0  0
  197.8418  183.8797  158.3398 C   0  0  0  0  0  0  0  0  0  0  0  0
  194.6014  181.7710  158.7286 C   0  0  2  0  0  0  0  0  0  0  0  0
  197.3084  180.7777  151.7429 C   0  0  0  0  0  0  0  0  0  0  0  0
  196.4249  181.9936  151.7720 C   0  0  1  0  0  0  0  0  0  0  0  0
  197.1649  183.2628  151.5974 N   0  0  0  0  0  0  0  0  0  0  0  0
  196.7466  184.2099  150.7236 C   0  0  0  0  0  0  0  0  0  0  0  0
  195.6402  184.1712  150.1748 O   0  0  0  0  0  0  0  0  0  0  0  0
  197.7026  185.3673  150.3536 C   0  0  1  0  0  0  0  0  0  0  0  0
  198.3037  185.1497  148.9739 C   0  0  0  0  0  0  0  0  0  0  0  0
  199.7030  185.0817  148.8044 C   0  0  0  0  0  0  0  0  0  0  0  0
  200.2485  184.8940  147.5190 C   0  0  0  0  0  0  0  0  0  0  0  0
  199.4023  184.7751  146.3969 C   0  0  0  0  0  0  0  0  0  0  0  0
  199.9629  184.6036  145.0685 C   0  0  0  0  0  0  0  0  0  0  0  0
  200.4078  184.4701  144.0100 N   0  0  0  0  0  0  0  0  0  0  0  0
  198.0056  184.8339  146.5643 C   0  0  0  0  0  0  0  0  0  0  0  0
  197.4643  185.0210  147.8467 C   0  0  0  0  0  0  0  0  0  0  0  0
  198.3491  183.4703  152.4449 C   0  0  2  0  0  0  0  0  0  0  0  0
  195.8526  181.9457  156.3566 H   0  0  0  0  0  0  0  0  0  0  0  0
  199.6637  178.3129  154.2358 H   0  0  0  0  0  0  0  0  0  0  0  0
  200.8494  176.4268  153.1818 H   0  0  0  0  0  0  0  0  0  0  0  0
  200.6572  176.0467  150.7291 H   0  0  0  0  0  0  0  0  0  0  0  0
  199.2698  177.5816  149.3369 H   0  0  0  0  0  0  0  0  0  0  0  0
  198.4146  180.7630  157.3367 H   0  0  0  0  0  0  0  0  0  0  0  0
  198.2796  182.3741  156.6224 H   0  0  0  0  0  0  0  0  0  0  0  0
  196.6758  181.5123  159.1366 H   0  0  0  0  0  0  0  0  0  0  0  0
  195.1797  186.6910  158.8183 H   0  0  0  0  0  0  0  0  0  0  0  0
  197.5743  187.3155  158.4211 H   0  0  0  0  0  0  0  0  0  0  0  0
  199.2604  185.4971  158.0748 H   0  0  0  0  0  0  0  0  0  0  0  0
  198.5918  183.1160  158.2239 H   0  0  0  0  0  0  0  0  0  0  0  0
  194.3585  182.1875  159.6695 H   0  0  0  0  0  0  0  0  0  0  0  0
  194.3400  180.6936  158.7885 H   0  0  0  0  0  0  0  0  0  0  0  0
  193.9249  182.2157  158.0009 H   0  0  0  0  0  0  0  0  0  0  0  0
  195.6734  181.8661  150.9933 H   0  0  0  0  0  0  0  0  0  0  0  0
  195.8601  182.0394  152.7094 H   0  0  0  0  0  0  0  0  0  0  0  0
  197.1477  186.3038  150.3529 H   0  0  0  0  0  0  0  0  0  0  0  0
  198.5033  185.5224  151.0754 H   0  0  0  0  0  0  0  0  0  0  0  0
  200.3626  185.1744  149.6548 H   0  0  0  0  0  0  0  0  0  0  0  0
  201.3211  184.8469  147.3981 H   0  0  0  0  0  0  0  0  0  0  0  0
  197.3374  184.7335  145.7203 H   0  0  0  0  0  0  0  0  0  0  0  0
  196.3925  185.0515  147.9552 H   0  0  0  0  0  0  0  0  0  0  0  0
  198.2903  184.4175  152.9957 H   0  0  0  0  0  0  0  0  0  0  0  0
  199.2599  183.4189  151.8415 H   0  0  0  0  0  0  0  0  0  0  0  0
  198.4355  182.7092  153.2304 H   0  0  0  0  0  0  0  0  0  0  0  0
  196.0264  180.4882  157.1251 H   0  0  0  0  0  0  0  0  0  0  0  0
  1  2  1  0
  1 22  1  0
  2  3  1  0
  2  7  2  0
  3  4  2  0
  3  8  1  0
  4  5  1  0
  4 38  1  0
  5  6  2  0
  5 39  1  0
  6  7  1  0
  6 40  1  0
  7 41  1  0
  8  9  1  0
  8 22  2  0
  9 10  3  0
 10 11  1  0
 11 12  1  0
 11 42  1  1
 11 43  1  0
 12 13  1  0
 12 37  1  6
 12 63  1  0
 13 14  1  0
 13 21  1  0
 13 44  1  1
 14 15  1  0
 14 20  2  0
 15 16  1  0
 15 17  2  0
 17 18  1  0
 17 45  1  0
 18 19  2  0
 18 46  1  0
 19 20  1  0
 19 47  1  0
 20 48  1  0
 21 49  1  1
 21 50  1  0
 21 51  1  0
 22 23  1  0
 23 24  1  0
 23 52  1  6
 23 53  1  0
 24 25  1  0
 24 36  1  0
 25 26  2  0
 25 27  1  0
 27 28  1  0
 27 54  1  6
 27 55  1  0
 28 29  1  0
 28 35  2  0
 29 30  2  0
 29 56  1  0
 30 31  1  0
 30 57  1  0
 31 32  1  0
 31 34  2  0
 32 33  3  0
 34 35  1  0
 34 58  1  0
 35 59  1  0
 36 60  1  1
 36 61  1  0
 36 62  1  0
M  CHG  1  12   1
M  END
>  <s_epik_cmdline>  (660) 
J2VwaWtfcHl0aG9uJywgJy1waCcsICc3LjAwMDAwMCcsICctcGh0JywgJzIuMDAwMDAwJywgJy1tcycsICcxNicsICctdG4nLCAnOCcsICctbWEnLCAnMjAwJywgJy1pbWFlJywgJzxpbmZpbGUubWFlPicsICctb21hZScsICc8b3V0ZmlsZS5tYWU+Jw==

>  <s_epik_input>  (660) 
TiNDYyhbY0hdW2NIXTEpW2NIXVtjSF1jMVtDSDJdQyg9TylOKFtDSDNdKVtDSDJdYyhzMiljKGMoYzIzKVtjSF1bY0hdW2NIXVtjSF0zKUMjQ1tDSDJdW05IXVtDQEhdKFtDSDNdKWM0YyhGKVtjSF1bY0hdW2NIXVtjSF00

>  <s_i_glide_gridfile>  (660) 
ATP-Grid

>  <s_lp_Force_Field>  (660) 
OPLS_2005

>  <s_lp_Variant>  (660) 
rxn503c____EMOL525400____EMOL49259969____EMOL317509298-3

>  <s_lp_label>  (660) 
3030_sdstereoexpander_1_neutralizer_1_epik_2_stereoizer_1

>  <s_m_source_file>  (660) 
ATP-VSW-LIGPREP-002-in.maegz

>  <s_sd_BIOSOLVEIT.INFINISEE\_QUERY\_NAME>  (660) 
Ref-Lig

>  <s_sd_BIOSOLVEIT.INFINISEE\_QUERY\_SMILES>  (660) 
S(c1nc2c(cc1C[NH2+]Cc3ccc(cc3)C[NH+](C)C)cccc2)Cc4ccccc4

>  <s_sd_BIOSOLVEIT.INFINISEE\_REACTION\_NAME>  (660) 
rxn503c

>  <s_sd_BIOSOLVEIT.INFINISEE\_REAGENT1\_NAME>  (660) 
EMOL525400

>  <s_sd_BIOSOLVEIT.INFINISEE\_REAGENT1\_SMILES>  (660) 
O=C(O)Cc1ccc(C#N)cc1

>  <s_sd_BIOSOLVEIT.INFINISEE\_REAGENT2\_NAME>  (660) 
EMOL49259969

>  <s_sd_BIOSOLVEIT.INFINISEE\_REAGENT2\_SMILES>  (660) 
ClC=1c2c(SC1CNC)cccc2

>  <s_sd_BIOSOLVEIT.INFINISEE\_REAGENT3\_NAME>  (660) 
EMOL317509298

>  <s_sd_BIOSOLVEIT.INFINISEE\_REAGENT3\_SMILES>  (660) 
Fc1c(cccc1)C(NCC#C)C

>  <s_sd_BIOSOLVEIT.INFINISEE\_SPACE>  (660) 
eXplore_7tr_2022-12

>  <s_vsw_compound_code>  (660) 
96930

>  <s_vsw_variant>  (660) 
96930-3

>  <r_epik_Charging_Adjusted_Penalty>  (660) 
1.2181870816929601

>  <r_epik_Ionization_Penalty>  (660) 
0.60909999999999997

>  <r_epik_Ionization_Penalty_Charging>  (660) 
0.60909999999999997

>  <r_epik_Ionization_Penalty_Neutral>  (660) 
0

>  <r_epik_State_Penalty>  (660) 
0.60909999999999997

>  <r_i_docking_score>  (660) 
-5.08429538675973

>  <r_i_glide_ecoul>  (660) 
-12.7613668441772

>  <r_i_glide_eff_state_penalty>  (660) 
0.60909999999999997

>  <r_i_glide_einternal>  (660) 
9.4876184463500994

>  <r_i_glide_emodel>  (660) 
-68.347641917107097

>  <r_i_glide_energy>  (660) 
-48.913542747497601

>  <r_i_glide_erotb>  (660) 
0.744196682012085

>  <r_i_glide_esite>  (660) 
-0.104696587683686

>  <r_i_glide_evdw>  (660) 
-36.152175903320298

>  <r_i_glide_gscore>  (660) 
-5.6933953867597298

>  <r_i_glide_hbond>  (660) 
-0.48671514514692199

>  <r_i_glide_ligand_efficiency>  (660) 
-0.141230427409993

>  <r_i_glide_ligand_efficiency_ln>  (660) 
-1.1092558916037301

>  <r_i_glide_ligand_efficiency_sa>  (660) 
-0.46633259608105199

>  <r_i_glide_lipo>  (660) 
-1.4531559164593699

>  <r_i_glide_metal>  (660) 
-0

>  <r_i_glide_rewards>  (660) 
-0.67121059768923597

>  <r_lp_Energy>  (660) 
17.399236999999999

>  <r_qp_ACxDN^.5/SA>  (660) 
0.0079947000000000004

>  <r_qp_CIQPlogS>  (660) 
-7.476

>  <r_qp_EA(eV)>  (660) 
0.88200000000000001

>  <r_qp_FISA>  (660) 
85.561999999999998

>  <r_qp_FOSA>  (660) 
193.90100000000001

>  <r_qp_IP(eV)>  (660) 
8.6419999999999995

>  <r_qp_Jm>  (660) 
0.0012914703447742799

>  <r_qp_PISA>  (660) 
428.411

>  <r_qp_PSA>  (660) 
59.052

>  <r_qp_PercentHumanOralAbsorption>  (660) 
100

>  <r_qp_QPPCaco>  (660) 
353.14699999999999

>  <r_qp_QPPMDCK>  (660) 
330.59399999999999

>  <r_qp_QPlogBB>  (660) 
-0.36199999999999999

>  <r_qp_QPlogHERG>  (660) 
-5.6600000000000001

>  <r_qp_QPlogKhsa>  (660) 
0.68100000000000005

>  <r_qp_QPlogKp>  (660) 
-2.6899999999999999

>  <r_qp_QPlogPC16>  (660) 
15.769

>  <r_qp_QPlogPo/w>  (660) 
4.9029999999999996

>  <r_qp_QPlogPoct>  (660) 
21.946999999999999

>  <r_qp_QPlogPw>  (660) 
10.516

>  <r_qp_QPlogS>  (660) 
-5.8940000000000001

>  <r_qp_QPpolrz>  (660) 
50.134999999999998

>  <r_qp_SASA>  (660) 
750.50099999999998

>  <r_qp_SAamideO>  (660) 
4.2039999999999997

>  <r_qp_SAfluorine>  (660) 
8.7629999999999999

>  <r_qp_WPSA>  (660) 
42.625999999999998

>  <r_qp_accptHB>  (660) 
6

>  <r_qp_dip^2/V>  (660) 
0.020563399999999999

>  <r_qp_dipole>  (660) 
5.4880000000000004

>  <r_qp_donorHB>  (660) 
1

>  <r_qp_glob>  (660) 
0.83109509999999998

>  <r_qp_mol_MW>  (660) 
495.613

>  <r_qp_volume>  (660) 
1464.722

>  <r_sd_BIOSOLVEIT.INFINISEE\_FTREES\_SIMILARITY>  (660) 
0.90200000000000002

>  <r_sd_BIOSOLVEIT.LOGP>  (660) 
4.7892799999999998

>  <r_sd_BIOSOLVEIT.MOLECULAR\_WEIGHT>  (660) 
496.62599999999998

>  <r_sd_BIOSOLVEIT.TPSA>  (660) 
60.710000000000001

>  <i_epik_Tot_Q>  (660) 
1

>  <i_epik_Tot_abs_Q>  (660) 
1

>  <i_f3d_flags>  (660) 
0

>  <i_i_glide_confnum>  (660) 
5

>  <i_i_glide_lignum>  (660) 
94

>  <i_i_glide_posenum>  (660) 
13

>  <i_i_glide_rotatable_bonds>  (660) 
10

>  <i_lp_mmshare_version>  (660) 
65135

>  <i_m_ct_format>  (660) 
2

>  <i_m_source_file_index>  (660) 
3030

>  <i_qp_#NandO>  (660) 
4

>  <i_qp_#acid>  (660) 
0

>  <i_qp_#amide>  (660) 
1

>  <i_qp_#amidine>  (660) 
0

>  <i_qp_#amine>  (660) 
1

>  <i_qp_#in34>  (660) 
0

>  <i_qp_#in56>  (660) 
21

>  <i_qp_#metab>  (660) 
7

>  <i_qp_#nonHatm>  (660) 
36

>  <i_qp_#noncon>  (660) 
0

>  <i_qp_#ringatoms>  (660) 
21

>  <i_qp_#rotor>  (660) 
10

>  <i_qp_#rtvFG>  (660) 
0

>  <i_qp_#stars>  (660) 
0

>  <i_qp_CNS>  (660) 
1

>  <i_qp_HumanOralAbsorption>  (660) 
3

>  <i_qp_RuleOfFive>  (660) 
0

>  <i_qp_RuleOfThree>  (660) 
2

>  <i_sd_BIOSOLVEIT.INFINISEE\_RESULT\_RANK>  (660) 
89324

>  <i_sd_version>  (660) 
0

>  <b_lp_Chiralities_Consistent>  (660) 
1

>  <b_sd_chiral_flag>  (660) 
0

>  <canonical_id>  (660) 
ATP-HTVS-67024B617AFA

>  <compound_code>  (660) 
96930

>  <title>  (660) 
rxn503c____EMOL525400____EMOL49259969____EMOL317509298

>  <variant>  (660) 
96930-3

>  <source_file>  (660) 
运行/运行/ATP-VSW/ATP-VSW-DOCK_HTVS_1-003_lib/ATP-VSW-DOCK_HTVS_1-003_lib.mae

>  <canonical_smiles>  (660) 
C[C@@H]([NH2+]CC#Cc1c(CN(C)C(=O)Cc2ccc(C#N)cc2)sc2ccccc12)c1ccccc1F

>  <scaffold>  (660) 
O=C(Cc1ccccc1)NCc1sc2ccccc2c1C#CC[NH2+]Cc1ccccc1

>  <molecular_formula>  (660) 
C30H27FN3OS+

$$$$
ATP-HTVS-673A54B483CC
     RDKit          3D

 60 63  0  0  0  0  0  0  0  0999 V2000
  198.7308  183.9678  144.9675 Cl  0  0  0  0  0  0  0  0  0  0  0  0
  198.6183  184.5203  146.5982 C   0  0  0  0  0  0  0  0  0  0  0  0
  199.7823  184.8583  147.3161 C   0  0  0  0  0  0  0  0  0  0  0  0
  199.6849  185.3106  148.6472 C   0  0  0  0  0  0  0  0  0  0  0  0
  198.4209  185.4246  149.2652 C   0  0  0  0  0  0  0  0  0  0  0  0
  197.2588  185.0924  148.5372 C   0  0  0  0  0  0  0  0  0  0  0  0
  197.3574  184.6356  147.2108 C   0  0  0  0  0  0  0  0  0  0  0  0
  198.3073  185.9007  150.7051 C   0  0  1  0  0  0  0  0  0  0  0  0
  198.0117  184.7564  151.7023 C   0  0  2  0  0  0  0  0  0  0  0  0
  196.7326  184.2118  151.4207 O   0  0  0  0  0  0  0  0  0  0  0  0
  198.0519  185.2256  153.1660 C   0  0  0  0  0  0  0  0  0  0  0  0
  198.4254  186.3630  153.4482 O   0  0  0  0  0  0  0  0  0  0  0  0
  197.7131  184.2911  154.0724 N   0  0  0  0  0  0  0  0  0  0  0  0
  197.4556  184.4318  155.4597 C   0  0  0  0  0  0  0  0  0  0  0  0
  197.2538  185.6486  156.0260 N   0  0  0  0  0  0  0  0  0  0  0  0
  197.0024  185.7582  157.3472 C   0  0  0  0  0  0  0  0  0  0  0  0
  196.9538  184.6119  158.1801 C   0  0  0  0  0  0  0  0  0  0  0  0
  197.1490  183.3409  157.6028 C   0  0  0  0  0  0  0  0  0  0  0  0
  197.4036  183.2247  156.2191 C   0  0  0  0  0  0  0  0  0  0  0  0
  197.6739  181.9438  155.6857 N   0  0  0  0  0  0  0  0  0  0  0  0
  199.1126  181.6916  155.5195 C   0  0  1  0  0  0  0  0  0  0  0  0
  199.8756  182.0823  156.7359 C   0  0  0  0  0  0  0  0  0  0  0  0
  200.4710  182.3805  157.6938 N   0  0  0  0  0  0  0  0  0  0  0  0
  199.4606  180.2747  155.0915 C   0  0  0  0  0  0  0  0  0  0  0  0
  200.0418  180.0376  153.8231 C   0  0  0  0  0  0  0  0  0  0  0  0
  200.3216  178.7224  153.4092 C   0  0  0  0  0  0  0  0  0  0  0  0
  200.0797  177.6417  154.2810 C   0  0  0  0  0  0  0  0  0  0  0  0
  199.5589  177.8764  155.5637 C   0  0  0  0  0  0  0  0  0  0  0  0
  199.2804  179.1912  155.9802 C   0  0  0  0  0  0  0  0  0  0  0  0
  196.6443  181.4609  154.7490 C   0  0  1  0  0  0  0  0  0  0  0  0
  196.6957  179.9500  154.4510 C   0  0  2  0  0  0  0  0  0  0  0  0
  196.7198  184.7428  159.5663 C   0  0  0  0  0  0  0  0  0  0  0  0
  196.5043  186.0151  160.1271 C   0  0  0  0  0  0  0  0  0  0  0  0
  196.5259  187.1580  159.3075 C   0  0  0  0  0  0  0  0  0  0  0  0
  196.7762  187.0241  157.9266 C   0  0  0  0  0  0  0  0  0  0  0  0
  200.7510  184.7677  146.8497 H   0  0  0  0  0  0  0  0  0  0  0  0
  200.5822  185.5644  149.1935 H   0  0  0  0  0  0  0  0  0  0  0  0
  196.2849  185.1834  148.9934 H   0  0  0  0  0  0  0  0  0  0  0  0
  196.4592  184.3829  146.6682 H   0  0  0  0  0  0  0  0  0  0  0  0
  199.2437  186.3946  150.9687 H   0  0  0  0  0  0  0  0  0  0  0  0
  197.5424  186.6729  150.7628 H   0  0  0  0  0  0  0  0  0  0  0  0
  198.7647  183.9758  151.5821 H   0  0  0  0  0  0  0  0  0  0  0  0
  196.5111  183.5571  152.0645 H   0  0  0  0  0  0  0  0  0  0  0  0
  197.5979  183.3502  153.7360 H   0  0  0  0  0  0  0  0  0  0  0  0
  197.1436  182.4575  158.2201 H   0  0  0  0  0  0  0  0  0  0  0  0
  199.4705  182.3688  154.7385 H   0  0  0  0  0  0  0  0  0  0  0  0
  200.1944  180.8548  153.1411 H   0  0  0  0  0  0  0  0  0  0  0  0
  200.6641  178.5378  152.4028 H   0  0  0  0  0  0  0  0  0  0  0  0
  200.2426  176.6254  153.9382 H   0  0  0  0  0  0  0  0  0  0  0  0
  199.3065  177.0479  156.2117 H   0  0  0  0  0  0  0  0  0  0  0  0
  198.8230  179.3528  156.9377 H   0  0  0  0  0  0  0  0  0  0  0  0
  195.6651  181.7063  155.1593 H   0  0  0  0  0  0  0  0  0  0  0  0
  196.7048  181.9852  153.7933 H   0  0  0  0  0  0  0  0  0  0  0  0
  195.9418  179.6752  153.7086 H   0  0  0  0  0  0  0  0  0  0  0  0
  196.5173  179.3522  155.3571 H   0  0  0  0  0  0  0  0  0  0  0  0
  197.6220  179.6446  153.9682 H   0  0  0  0  0  0  0  0  0  0  0  0
  196.7059  183.8670  160.1990 H   0  0  0  0  0  0  0  0  0  0  0  0
  196.3212  186.1191  161.1867 H   0  0  0  0  0  0  0  0  0  0  0  0
  196.3601  188.1343  159.7401 H   0  0  0  0  0  0  0  0  0  0  0  0
  196.7929  187.9081  157.3054 H   0  0  0  0  0  0  0  0  0  0  0  0
  1  2  1  0
  2  3  1  0
  2  7  2  0
  3  4  2  0
  3 36  1  0
  4  5  1  0
  4 37  1  0
  5  6  2  0
  5  8  1  0
  6  7  1  0
  6 38  1  0
  7 39  1  0
  8  9  1  0
  8 40  1  1
  8 41  1  0
  9 10  1  0
  9 11  1  0
  9 42  1  1
 10 43  1  0
 11 12  2  0
 11 13  1  0
 13 14  1  0
 13 44  1  0
 14 15  2  0
 14 19  1  0
 15 16  1  0
 16 17  1  0
 16 35  2  0
 17 18  1  0
 17 32  2  0
 18 19  2  0
 18 45  1  0
 19 20  1  0
 20 21  1  0
 20 30  1  0
 21 22  1  0
 21 24  1  0
 21 46  1  6
 22 23  3  0
 24 25  2  0
 24 29  1  0
 25 26  1  0
 25 47  1  0
 26 27  2  0
 26 48  1  0
 27 28  1  0
 27 49  1  0
 28 29  2  0
 28 50  1  0
 29 51  1  0
 30 31  1  0
 30 52  1  1
 30 53  1  0
 31 54  1  6
 31 55  1  0
 31 56  1  0
 32 33  1  0
 32 57  1  0
 33 34  2  0
 33 58  1  0
 34 35  1  0
 34 59  1  0
 35 60  1  0
M  END
>  <s_epik_cmdline>  (661) 
J2VwaWtfcHl0aG9uJywgJy1waCcsICc3LjAwMDAwMCcsICctcGh0JywgJzIuMDAwMDAwJywgJy1tcycsICcxNicsICctdG4nLCAnOCcsICctbWEnLCAnMjAwJywgJy1pbWFlJywgJzxpbmZpbGUubWFlPicsICctb21hZScsICc8b3V0ZmlsZS5tYWU+Jw==

>  <s_epik_input>  (661) 
Q2xjMVtjSF1bY0hdYyhbY0hdW2NIXTEpW0NIMl1bQ0BIXShbT0hdKUMoPU8pW05IXWMobjIpYyhbY0hdYyhjMjMpW2NIXVtjSF1bY0hdW2NIXTMpTihbQ0gyXVtDSDNdKVtDQEBIXShDI04pYzRbY0hdW2NIXVtjSF1bY0hdW2NIXTQ=

>  <s_i_glide_gridfile>  (661) 
ATP-Grid

>  <s_lp_Force_Field>  (661) 
OPLS_2005

>  <s_lp_Variant>  (661) 
rxn502b____EMOL44462884____EMOL44466703____EMOL49839592-2

>  <s_lp_label>  (661) 
2683_sdstereoexpander_2_neutralizer_1_epik_1_stereoizer_1

>  <s_m_source_file>  (661) 
ATP-VSW-LIGPREP-003-in.maegz

>  <s_sd_BIOSOLVEIT.INFINISEE\_QUERY\_NAME>  (661) 
Ref-Lig

>  <s_sd_BIOSOLVEIT.INFINISEE\_QUERY\_SMILES>  (661) 
S(c1nc2c(cc1C[NH2+]Cc3ccc(cc3)C[NH+](C)C)cccc2)Cc4ccccc4

>  <s_sd_BIOSOLVEIT.INFINISEE\_REACTION\_NAME>  (661) 
rxn502b

>  <s_sd_BIOSOLVEIT.INFINISEE\_REAGENT1\_NAME>  (661) 
EMOL44462884

>  <s_sd_BIOSOLVEIT.INFINISEE\_REAGENT1\_SMILES>  (661) 
Clc1ccc(cc1)CC(O)C(=O)O

>  <s_sd_BIOSOLVEIT.INFINISEE\_REAGENT2\_NAME>  (661) 
EMOL44466703

>  <s_sd_BIOSOLVEIT.INFINISEE\_REAGENT2\_SMILES>  (661) 
Brc1c(nc2c(c1)cccc2)N

>  <s_sd_BIOSOLVEIT.INFINISEE\_REAGENT3\_NAME>  (661) 
EMOL49839592

>  <s_sd_BIOSOLVEIT.INFINISEE\_REAGENT3\_SMILES>  (661) 
N#CC(NCC)c1ccccc1

>  <s_sd_BIOSOLVEIT.INFINISEE\_SPACE>  (661) 
eXplore_7tr_2022-12

>  <s_vsw_compound_code>  (661) 
85827

>  <s_vsw_variant>  (661) 
85827-2

>  <r_epik_Charging_Adjusted_Penalty>  (661) 
0.017616418634180401

>  <r_epik_Ionization_Penalty>  (661) 
0.012500000000000001

>  <r_epik_Ionization_Penalty_Charging>  (661) 
0

>  <r_epik_Ionization_Penalty_Neutral>  (661) 
0.012500000000000001

>  <r_epik_State_Penalty>  (661) 
0.017600000000000001

>  <r_i_docking_score>  (661) 
-3.7249297121149998

>  <r_i_glide_ecoul>  (661) 
-2.1981251239776598

>  <r_i_glide_eff_state_penalty>  (661) 
0.017600000000000001

>  <r_i_glide_einternal>  (661) 
6.1010308265686

>  <r_i_glide_emodel>  (661) 
-47.566025084043702

>  <r_i_glide_energy>  (661) 
-40.591290712356603

>  <r_i_glide_erotb>  (661) 
0.60451234402686405

>  <r_i_glide_esite>  (661) 
-0.043986797179975903

>  <r_i_glide_evdw>  (661) 
-38.393165588378899

>  <r_i_glide_gscore>  (661) 
-3.7425297121150001

>  <r_i_glide_hbond>  (661) 
0

>  <r_i_glide_ligand_efficiency>  (661) 
-0.106426563203286

>  <r_i_glide_ligand_efficiency_ln>  (661) 
-0.81770474217004296

>  <r_i_glide_ligand_efficiency_sa>  (661) 
-0.34812834499085199

>  <r_i_glide_lipo>  (661) 
-1.8969638716217301

>  <r_i_glide_metal>  (661) 
-0

>  <r_i_glide_rewards>  (661) 
-0.15671433932456699

>  <r_lp_Energy>  (661) 
33.114344000000003

>  <r_qp_ACxDN^.5/SA>  (661) 
0.014104800000000001

>  <r_qp_CIQPlogS>  (661) 
-8.2579999999999991

>  <r_qp_EA(eV)>  (661) 
1.1020000000000001

>  <r_qp_FISA>  (661) 
135.001

>  <r_qp_FOSA>  (661) 
129.00200000000001

>  <r_qp_IP(eV)>  (661) 
8.9160000000000004

>  <r_qp_Jm>  (661) 
0.00117183946692338

>  <r_qp_PISA>  (661) 
436.392

>  <r_qp_PSA>  (661) 
91.685000000000002

>  <r_qp_PercentHumanOralAbsorption>  (661) 
100

>  <r_qp_QPPCaco>  (661) 
519.61500000000001

>  <r_qp_QPPMDCK>  (661) 
601.87699999999995

>  <r_qp_QPlogBB>  (661) 
-1.258

>  <r_qp_QPlogHERG>  (661) 
-6.7969999999999997

>  <r_qp_QPlogKhsa>  (661) 
0.59099999999999997

>  <r_qp_QPlogKp>  (661) 
-1.51

>  <r_qp_QPlogPC16>  (661) 
16.713000000000001

>  <r_qp_QPlogPo/w>  (661) 
4.8949999999999996

>  <r_qp_QPlogPoct>  (661) 
24.474

>  <r_qp_QPlogPw>  (661) 
13.797000000000001

>  <r_qp_QPlogS>  (661) 
-7.1070000000000002

>  <r_qp_QPpolrz>  (661) 
49.704999999999998

>  <r_qp_SASA>  (661) 
772.03999999999996

>  <r_qp_SAamideO>  (661) 
0

>  <r_qp_SAfluorine>  (661) 
0

>  <r_qp_WPSA>  (661) 
71.644999999999996

>  <r_qp_accptHB>  (661) 
7.7000000000000002

>  <r_qp_dip^2/V>  (661) 
0.0232815

>  <r_qp_dipole>  (661) 
5.8140000000000001

>  <r_qp_donorHB>  (661) 
2

>  <r_qp_glob>  (661) 
0.80325880000000005

>  <r_qp_mol_MW>  (661) 
484.98399999999998

>  <r_qp_volume>  (661) 
1452.098

>  <r_sd_BIOSOLVEIT.INFINISEE\_FTREES\_SIMILARITY>  (661) 
0.90900000000000003

>  <r_sd_BIOSOLVEIT.LOGP>  (661) 
5.5214800000000004

>  <r_sd_BIOSOLVEIT.MOLECULAR\_WEIGHT>  (661) 
484.98500000000001

>  <r_sd_BIOSOLVEIT.TPSA>  (661) 
89.25

>  <i_epik_Tot_Q>  (661) 
0

>  <i_epik_Tot_abs_Q>  (661) 
0

>  <i_f3d_flags>  (661) 
0

>  <i_i_glide_confnum>  (661) 
3

>  <i_i_glide_lignum>  (661) 
1265

>  <i_i_glide_posenum>  (661) 
9

>  <i_i_glide_rotatable_bonds>  (661) 
10

>  <i_lp_mmshare_version>  (661) 
65135

>  <i_m_ct_format>  (661) 
2

>  <i_m_source_file_index>  (661) 
2683

>  <i_qp_#NandO>  (661) 
6

>  <i_qp_#acid>  (661) 
0

>  <i_qp_#amide>  (661) 
0

>  <i_qp_#amidine>  (661) 
0

>  <i_qp_#amine>  (661) 
0

>  <i_qp_#in34>  (661) 
0

>  <i_qp_#in56>  (661) 
22

>  <i_qp_#metab>  (661) 
5

>  <i_qp_#nonHatm>  (661) 
35

>  <i_qp_#noncon>  (661) 
0

>  <i_qp_#ringatoms>  (661) 
22

>  <i_qp_#rotor>  (661) 
10

>  <i_qp_#rtvFG>  (661) 
0

>  <i_qp_#stars>  (661) 
1

>  <i_qp_CNS>  (661) 
-2

>  <i_qp_HumanOralAbsorption>  (661) 
1

>  <i_qp_RuleOfFive>  (661) 
0

>  <i_qp_RuleOfThree>  (661) 
1

>  <i_sd_BIOSOLVEIT.INFINISEE\_RESULT\_RANK>  (661) 
50533

>  <i_sd_version>  (661) 
0

>  <b_lp_Chiralities_Consistent>  (661) 
1

>  <b_sd_chiral_flag>  (661) 
0

>  <canonical_id>  (661) 
ATP-HTVS-673A54B483CC

>  <compound_code>  (661) 
85827

>  <title>  (661) 
rxn502b____EMOL44462884____EMOL44466703____EMOL49839592

>  <variant>  (661) 
85827-2

>  <source_file>  (661) 
运行/运行/ATP-VSW/ATP-VSW-DOCK_HTVS_1-003_lib/ATP-VSW-DOCK_HTVS_1-003_lib.mae

>  <canonical_smiles>  (661) 
CCN(c1cc2ccccc2nc1NC(=O)[C@@H](O)Cc1ccc(Cl)cc1)[C@@H](C#N)c1ccccc1

>  <scaffold>  (661) 
O=C(CCc1ccccc1)Nc1nc2ccccc2cc1NCc1ccccc1

>  <molecular_formula>  (661) 
C28H25ClN4O2

$$$$
ATP-HTVS-675C8FFFA49B
     RDKit          3D

 55 58  0  0  0  0  0  0  0  0999 V2000
  200.6036  175.5352  146.7149 F   0  0  0  0  0  0  0  0  0  0  0  0
  200.0498  176.7690  146.6448 C   0  0  0  0  0  0  0  0  0  0  0  0
  199.4630  177.3424  147.7888 C   0  0  0  0  0  0  0  0  0  0  0  0
  198.8879  178.6345  147.7202 C   0  0  0  0  0  0  0  0  0  0  0  0
  198.8857  179.3278  146.4884 C   0  0  0  0  0  0  0  0  0  0  0  0
  199.4706  178.7515  145.3476 C   0  0  0  0  0  0  0  0  0  0  0  0
  200.0608  177.4781  145.4311 C   0  0  0  0  0  0  0  0  0  0  0  0
  198.2992  179.2502  148.9545 C   0  0  0  0  0  0  0  0  0  0  0  0
  197.7634  178.5562  149.8177 O   0  0  0  0  0  0  0  0  0  0  0  0
  198.4265  180.5915  149.0022 N   0  0  0  0  0  0  0  0  0  0  0  0
  198.3416  181.4280  150.1413 C   0  0  0  0  0  0  0  0  0  0  0  0
  198.6254  180.9402  151.3686 N   0  0  0  0  0  0  0  0  0  0  0  0
  198.6320  181.7646  152.4263 C   0  0  0  0  0  0  0  0  0  0  0  0
  198.2477  183.1227  152.3665 C   0  0  0  0  0  0  0  0  0  0  0  0
  198.1275  183.9040  153.5368 N   0  0  0  0  0  0  0  0  0  0  0  0
  197.6936  183.5034  154.8125 C   0  0  0  0  0  0  0  0  0  0  0  0
  197.3033  182.1697  155.1089 C   0  0  0  0  0  0  0  0  0  0  0  0
  196.9377  181.8097  156.4056 C   0  0  0  0  0  0  0  0  0  0  0  0
  196.8395  182.7868  157.4225 C   0  0  0  0  0  0  0  0  0  0  0  0
  197.1654  184.1266  157.1344 C   0  0  0  0  0  0  0  0  0  0  0  0
  197.6137  184.4794  155.8426 C   0  0  0  0  0  0  0  0  0  0  0  0
  196.3267  182.3664  158.7791 C   0  0  1  0  0  0  0  0  0  0  0  0
  194.7940  182.2847  158.8145 C   0  0  1  0  0  0  0  0  0  0  0  0
  194.2514  181.4179  157.7342 N   0  0  1  0  0  0  0  0  0  0  0  0
  192.7954  181.2274  157.8027 C   0  0  2  0  0  0  0  0  0  0  0  0
  198.0077  183.6652  151.0740 C   0  0  0  0  0  0  0  0  0  0  0  0
  198.0789  182.8068  149.9408 C   0  0  0  0  0  0  0  0  0  0  0  0
  197.8875  183.3417  148.6434 C   0  0  0  0  0  0  0  0  0  0  0  0
  197.5947  184.7034  148.4686 C   0  0  0  0  0  0  0  0  0  0  0  0
  197.4951  185.5475  149.5886 C   0  0  0  0  0  0  0  0  0  0  0  0
  197.7032  185.0334  150.8838 C   0  0  0  0  0  0  0  0  0  0  0  0
  194.4196  181.8979  156.8396 H   0  0  0  0  0  0  0  0  0  0  0  0
  199.4706  176.7921  148.7185 H   0  0  0  0  0  0  0  0  0  0  0  0
  198.4390  180.3067  146.3968 H   0  0  0  0  0  0  0  0  0  0  0  0
  199.4652  179.2771  144.4059 H   0  0  0  0  0  0  0  0  0  0  0  0
  200.4948  177.0332  144.5465 H   0  0  0  0  0  0  0  0  0  0  0  0
  198.7372  181.0407  148.1585 H   0  0  0  0  0  0  0  0  0  0  0  0
  198.9307  181.2926  153.3501 H   0  0  0  0  0  0  0  0  0  0  0  0
  198.2111  184.8982  153.4147 H   0  0  0  0  0  0  0  0  0  0  0  0
  197.2618  181.3809  154.3790 H   0  0  0  0  0  0  0  0  0  0  0  0
  196.6818  180.7806  156.5979 H   0  0  0  0  0  0  0  0  0  0  0  0
  197.0574  184.8883  157.8987 H   0  0  0  0  0  0  0  0  0  0  0  0
  197.8681  185.5056  155.6395 H   0  0  0  0  0  0  0  0  0  0  0  0
  196.7540  181.3906  159.0277 H   0  0  0  0  0  0  0  0  0  0  0  0
  196.6829  183.0695  159.5336 H   0  0  0  0  0  0  0  0  0  0  0  0
  194.4862  181.8484  159.7571 H   0  0  0  0  0  0  0  0  0  0  0  0
  194.3518  183.2780  158.7468 H   0  0  0  0  0  0  0  0  0  0  0  0
  192.4698  180.6344  156.9520 H   0  0  0  0  0  0  0  0  0  0  0  0
  192.2800  182.1851  157.7339 H   0  0  0  0  0  0  0  0  0  0  0  0
  192.5132  180.7129  158.7225 H   0  0  0  0  0  0  0  0  0  0  0  0
  197.9503  182.7194  147.7609 H   0  0  0  0  0  0  0  0  0  0  0  0
  197.4233  185.0883  147.4704 H   0  0  0  0  0  0  0  0  0  0  0  0
  197.2457  186.5898  149.4433 H   0  0  0  0  0  0  0  0  0  0  0  0
  197.6208  185.7118  151.7188 H   0  0  0  0  0  0  0  0  0  0  0  0
  194.7311  180.5290  157.7389 H   0  0  0  0  0  0  0  0  0  0  0  0
  1  2  1  0
  2  3  2  0
  2  7  1  0
  3  4  1  0
  3 33  1  0
  4  5  2  0
  4  8  1  0
  5  6  1  0
  5 34  1  0
  6  7  2  0
  6 35  1  0
  7 36  1  0
  8  9  2  0
  8 10  1  0
 10 11  1  0
 10 37  1  0
 11 12  1  0
 11 27  2  0
 12 13  2  0
 13 14  1  0
 13 38  1  0
 14 15  1  0
 14 26  2  0
 15 16  1  0
 15 39  1  0
 16 17  1  0
 16 21  2  0
 17 18  2  0
 17 40  1  0
 18 19  1  0
 18 41  1  0
 19 20  2  0
 19 22  1  0
 20 21  1  0
 20 42  1  0
 21 43  1  0
 22 23  1  0
 22 44  1  1
 22 45  1  0
 23 24  1  0
 23 46  1  1
 23 47  1  0
 24 25  1  0
 24 32  1  6
 24 55  1  0
 25 48  1  6
 25 49  1  0
 25 50  1  0
 26 27  1  0
 26 31  1  0
 27 28  1  0
 28 29  2  0
 28 51  1  0
 29 30  1  0
 29 52  1  0
 30 31  2  0
 30 53  1  0
 31 54  1  0
M  CHG  1  24   1
M  END
>  <s_epik_cmdline>  (662) 
J2VwaWtfcHl0aG9uJywgJy1waCcsICc3LjAwMDAwMCcsICctcGh0JywgJzIuMDAwMDAwJywgJy1tcycsICcxNicsICctdG4nLCAnOCcsICctbWEnLCAnMjAwJywgJy1pbWFlJywgJzxpbmZpbGUubWFlPicsICctb21hZScsICc8b3V0ZmlsZS5tYWU+Jw==

>  <s_epik_input>  (662) 
RmMxW2NIXWMoW2NIXVtjSF1bY0hdMSlDKD1PKVtOSF1jKGMoYzIzKVtjSF1bY0hdW2NIXVtjSF0zKW5bY0hdYzJbTkhdYzRbY0hdW2NIXWMoW2NIXVtjSF00KVtDSDJdW0NIMl1bTkhdW0NIM10=

>  <s_i_glide_gridfile>  (662) 
ATP-Grid

>  <s_lp_Force_Field>  (662) 
OPLS_2005

>  <s_lp_Variant>  (662) 
rxn502b____EMOL511643____EMOL7515103____EMOL38100949-1

>  <s_lp_label>  (662) 
2672_sdstereoexpander_1_neutralizer_1_epik_1_stereoizer_1

>  <s_m_source_file>  (662) 
ATP-VSW-LIGPREP-003-in.maegz

>  <s_sd_BIOSOLVEIT.INFINISEE\_QUERY\_NAME>  (662) 
Ref-Lig

>  <s_sd_BIOSOLVEIT.INFINISEE\_QUERY\_SMILES>  (662) 
S(c1nc2c(cc1C[NH2+]Cc3ccc(cc3)C[NH+](C)C)cccc2)Cc4ccccc4

>  <s_sd_BIOSOLVEIT.INFINISEE\_REACTION\_NAME>  (662) 
rxn502b

>  <s_sd_BIOSOLVEIT.INFINISEE\_REAGENT1\_NAME>  (662) 
EMOL511643

>  <s_sd_BIOSOLVEIT.INFINISEE\_REAGENT1\_SMILES>  (662) 
Fc1cc(ccc1)C(=O)O

>  <s_sd_BIOSOLVEIT.INFINISEE\_REAGENT2\_NAME>  (662) 
EMOL7515103

>  <s_sd_BIOSOLVEIT.INFINISEE\_REAGENT2\_SMILES>  (662) 
Brc1c2c(c(nc1)N)cccc2

>  <s_sd_BIOSOLVEIT.INFINISEE\_REAGENT3\_NAME>  (662) 
EMOL38100949

>  <s_sd_BIOSOLVEIT.INFINISEE\_REAGENT3\_SMILES>  (662) 
N(CCc1ccc(N)cc1)C

>  <s_sd_BIOSOLVEIT.INFINISEE\_SPACE>  (662) 
eXplore_7tr_2022-12

>  <s_vsw_compound_code>  (662) 
85475

>  <s_vsw_variant>  (662) 
85475-1

>  <r_epik_Charging_Adjusted_Penalty>  (662) 
0.0010861976419340199

>  <r_epik_Ionization_Penalty>  (662) 
0.00059999999999999995

>  <r_epik_Ionization_Penalty_Charging>  (662) 
0.00050000000000000001

>  <r_epik_Ionization_Penalty_Neutral>  (662) 
0.0001

>  <r_epik_State_Penalty>  (662) 
0.00050000000000000001

>  <r_i_docking_score>  (662) 
-4.9657684147722199

>  <r_i_glide_ecoul>  (662) 
-11.3508548736572

>  <r_i_glide_eff_state_penalty>  (662) 
0.00050000000000000001

>  <r_i_glide_einternal>  (662) 
7.397216796875

>  <r_i_glide_emodel>  (662) 
-56.5600821402235

>  <r_i_glide_energy>  (662) 
-41.057975769042997

>  <r_i_glide_erotb>  (662) 
0.56052526727079299

>  <r_i_glide_esite>  (662) 
-0.095627473014444603

>  <r_i_glide_evdw>  (662) 
-29.7071208953857

>  <r_i_glide_gscore>  (662) 
-4.9662684147722196

>  <r_i_glide_hbond>  (662) 
-0.36965383820702302

>  <r_i_glide_ligand_efficiency>  (662) 
-0.16018607789587799

>  <r_i_glide_ligand_efficiency_ln>  (662) 
-1.1199329600566199

>  <r_i_glide_ligand_efficiency_sa>  (662) 
-0.50320544530857203

>  <r_i_glide_lipo>  (662) 
-0.69111679831320105

>  <r_i_glide_metal>  (662) 
-0

>  <r_i_glide_rewards>  (662) 
-1.1824112966904701

>  <r_lp_Energy>  (662) 
33.612755999999997

>  <r_qp_ACxDN^.5/SA>  (662) 
0.012323600000000001

>  <r_qp_CIQPlogS>  (662) 
-5.54

>  <r_qp_EA(eV)>  (662) 
1.2170000000000001

>  <r_qp_FISA>  (662) 
98.802000000000007

>  <r_qp_FOSA>  (662) 
163.83099999999999

>  <r_qp_IP(eV)>  (662) 
7.9900000000000002

>  <r_qp_Jm>  (662) 
0.00045780173388272101

>  <r_qp_PISA>  (662) 
463.45299999999997

>  <r_qp_PSA>  (662) 
71.281999999999996

>  <r_qp_PercentHumanOralAbsorption>  (662) 
100

>  <r_qp_QPPCaco>  (662) 
285.66899999999998

>  <r_qp_QPPMDCK>  (662) 
255.35300000000001

>  <r_qp_QPlogBB>  (662) 
-0.46899999999999997

>  <r_qp_QPlogHERG>  (662) 
-8.2620000000000005

>  <r_qp_QPlogKhsa>  (662) 
0.75900000000000001

>  <r_qp_QPlogKp>  (662) 
-3.0979999999999999

>  <r_qp_QPlogPC16>  (662) 
15.334

>  <r_qp_QPlogPo/w>  (662) 
4.6059999999999999

>  <r_qp_QPlogPoct>  (662) 
23.637

>  <r_qp_QPlogPw>  (662) 
13.688000000000001

>  <r_qp_QPlogS>  (662) 
-5.8579999999999997

>  <r_qp_QPpolrz>  (662) 
47.951000000000001

>  <r_qp_SASA>  (662) 
773.01199999999994

>  <r_qp_SAamideO>  (662) 
0

>  <r_qp_SAfluorine>  (662) 
46.926000000000002

>  <r_qp_WPSA>  (662) 
46.926000000000002

>  <r_qp_accptHB>  (662) 
5.5

>  <r_qp_dip^2/V>  (662) 
0.0149876

>  <r_qp_dipole>  (662) 
4.5039999999999996

>  <r_qp_donorHB>  (662) 
3

>  <r_qp_glob>  (662) 
0.76557500000000001

>  <r_qp_mol_MW>  (662) 
414.48099999999999

>  <r_qp_volume>  (662) 
1353.671

>  <r_sd_BIOSOLVEIT.INFINISEE\_FTREES\_SIMILARITY>  (662) 
0.90900000000000003

>  <r_sd_BIOSOLVEIT.LOGP>  (662) 
4.1055000000000001

>  <r_sd_BIOSOLVEIT.MOLECULAR\_WEIGHT>  (662) 
415.49000000000001

>  <r_sd_BIOSOLVEIT.TPSA>  (662) 
70.629999999999995

>  <i_epik_Tot_Q>  (662) 
1

>  <i_epik_Tot_abs_Q>  (662) 
1

>  <i_f3d_flags>  (662) 
0

>  <i_i_glide_confnum>  (662) 
8

>  <i_i_glide_lignum>  (662) 
1259

>  <i_i_glide_posenum>  (662) 
6

>  <i_i_glide_rotatable_bonds>  (662) 
8

>  <i_lp_mmshare_version>  (662) 
65135

>  <i_m_ct_format>  (662) 
2

>  <i_m_source_file_index>  (662) 
2672

>  <i_qp_#NandO>  (662) 
5

>  <i_qp_#acid>  (662) 
0

>  <i_qp_#amide>  (662) 
0

>  <i_qp_#amidine>  (662) 
0

>  <i_qp_#amine>  (662) 
1

>  <i_qp_#in34>  (662) 
0

>  <i_qp_#in56>  (662) 
22

>  <i_qp_#metab>  (662) 
5

>  <i_qp_#nonHatm>  (662) 
31

>  <i_qp_#noncon>  (662) 
0

>  <i_qp_#ringatoms>  (662) 
22

>  <i_qp_#rotor>  (662) 
7

>  <i_qp_#rtvFG>  (662) 
0

>  <i_qp_#stars>  (662) 
1

>  <i_qp_CNS>  (662) 
0

>  <i_qp_HumanOralAbsorption>  (662) 
3

>  <i_qp_RuleOfFive>  (662) 
0

>  <i_qp_RuleOfThree>  (662) 
1

>  <i_sd_BIOSOLVEIT.INFINISEE\_RESULT\_RANK>  (662) 
49254

>  <i_sd_version>  (662) 
0

>  <b_lp_Chiralities_Consistent>  (662) 
1

>  <b_sd_chiral_flag>  (662) 
0

>  <canonical_id>  (662) 
ATP-HTVS-675C8FFFA49B

>  <compound_code>  (662) 
85475

>  <title>  (662) 
rxn502b____EMOL511643____EMOL7515103____EMOL38100949

>  <variant>  (662) 
85475-1

>  <source_file>  (662) 
运行/运行/ATP-VSW/ATP-VSW-DOCK_HTVS_1-003_lib/ATP-VSW-DOCK_HTVS_1-003_lib.mae

>  <canonical_smiles>  (662) 
C[NH2+]CCc1ccc(Nc2cnc(NC(=O)c3cccc(F)c3)c3ccccc23)cc1

>  <scaffold>  (662) 
O=C(Nc1ncc(Nc2ccccc2)c2ccccc12)c1ccccc1

>  <molecular_formula>  (662) 
C25H24FN4O+

$$$$
ATP-HTVS-675D7E7E37EF
     RDKit          3D

 55 58  0  0  0  0  0  0  0  0999 V2000
  194.4175  183.7222  158.5829 O   0  0  0  0  0  0  0  0  0  0  0  0
  195.5331  184.2284  158.7029 C   0  0  0  0  0  0  0  0  0  0  0  0
  195.6485  185.5522  159.1406 N   0  0  0  0  0  0  0  0  0  0  0  0
  196.7712  186.1517  159.2754 C   0  0  0  0  0  0  0  0  0  0  0  0
  198.0577  185.4510  159.0143 C   0  0  0  0  0  0  0  0  0  0  0  0
  197.9764  184.1167  158.5579 C   0  0  0  0  0  0  0  0  0  0  0  0
  196.6691  183.5236  158.4152 N   0  0  0  0  0  0  0  0  0  0  0  0
  196.5484  182.1173  157.9567 C   0  0  1  0  0  0  0  0  0  0  0  0
  196.8873  181.9094  156.4723 C   0  0  0  0  0  0  0  0  0  0  0  0
  196.9500  182.8584  155.6915 O   0  0  0  0  0  0  0  0  0  0  0  0
  197.1501  180.6386  156.1311 N   0  0  0  0  0  0  0  0  0  0  0  0
  197.6478  180.1582  154.8963 C   0  0  0  0  0  0  0  0  0  0  0  0
  198.6607  179.1655  154.9067 C   0  0  0  0  0  0  0  0  0  0  0  0
  199.1553  178.6811  156.1310 N   0  0  0  0  0  0  0  0  0  0  0  0
  200.4803  178.1048  156.2819 C   0  0  2  0  0  0  0  0  0  0  0  0
  200.6298  177.5094  157.6880 C   0  0  2  0  0  0  0  0  0  0  0  0
  201.5699  179.1546  156.0157 C   0  0  2  0  0  0  0  0  0  0  0  0
  199.1630  178.6831  153.6725 C   0  0  0  0  0  0  0  0  0  0  0  0
  198.6498  179.1642  152.4507 C   0  0  0  0  0  0  0  0  0  0  0  0
  197.6386  180.1417  152.4470 C   0  0  0  0  0  0  0  0  0  0  0  0
  197.1411  180.6393  153.6659 C   0  0  0  0  0  0  0  0  0  0  0  0
  199.1810  183.4228  158.2595 C   0  0  0  0  0  0  0  0  0  0  0  0
  200.4354  184.0464  158.4125 C   0  0  0  0  0  0  0  0  0  0  0  0
  200.5071  185.3646  158.8909 C   0  0  0  0  0  0  0  0  0  0  0  0
  199.3279  186.0550  159.2030 C   0  0  0  0  0  0  0  0  0  0  0  0
  196.7291  187.5644  159.7373 C   0  0  0  0  0  0  0  0  0  0  0  0
  195.9696  187.9120  160.8808 C   0  0  0  0  0  0  0  0  0  0  0  0
  195.9445  189.2487  161.3319 C   0  0  0  0  0  0  0  0  0  0  0  0
  196.6726  190.2395  160.6459 C   0  0  0  0  0  0  0  0  0  0  0  0
  197.4120  189.9025  159.4981 C   0  0  0  0  0  0  0  0  0  0  0  0
  197.4221  188.5766  159.0312 C   0  0  0  0  0  0  0  0  0  0  0  0
  197.2173  181.5097  158.5620 H   0  0  0  0  0  0  0  0  0  0  0  0
  195.5705  181.6640  158.1395 H   0  0  0  0  0  0  0  0  0  0  0  0
  196.9876  179.9410  156.8585 H   0  0  0  0  0  0  0  0  0  0  0  0
  198.5487  178.6659  156.9609 H   0  0  0  0  0  0  0  0  0  0  0  0
  200.5778  177.2675  155.5894 H   0  0  0  0  0  0  0  0  0  0  0  0
  201.6101  177.0439  157.8035 H   0  0  0  0  0  0  0  0  0  0  0  0
  199.8699  176.7429  157.8596 H   0  0  0  0  0  0  0  0  0  0  0  0
  200.5214  178.2673  158.4682 H   0  0  0  0  0  0  0  0  0  0  0  0
  202.5601  178.7235  156.1249 H   0  0  0  0  0  0  0  0  0  0  0  0
  201.4907  179.9834  156.7155 H   0  0  0  0  0  0  0  0  0  0  0  0
  201.5090  179.5675  155.0122 H   0  0  0  0  0  0  0  0  0  0  0  0
  199.9225  177.9201  153.6461 H   0  0  0  0  0  0  0  0  0  0  0  0
  199.0259  178.7712  151.5178 H   0  0  0  0  0  0  0  0  0  0  0  0
  197.2453  180.5081  151.5087 H   0  0  0  0  0  0  0  0  0  0  0  0
  196.3662  181.3909  153.6575 H   0  0  0  0  0  0  0  0  0  0  0  0
  199.1762  182.4074  157.8946 H   0  0  0  0  0  0  0  0  0  0  0  0
  201.3462  183.5187  158.1643 H   0  0  0  0  0  0  0  0  0  0  0  0
  201.4604  185.8572  159.0206 H   0  0  0  0  0  0  0  0  0  0  0  0
  199.4353  187.0574  159.5894 H   0  0  0  0  0  0  0  0  0  0  0  0
  195.4133  187.1559  161.4194 H   0  0  0  0  0  0  0  0  0  0  0  0
  195.3483  189.5199  162.1877 H   0  0  0  0  0  0  0  0  0  0  0  0
  196.6624  191.2592  160.9990 H   0  0  0  0  0  0  0  0  0  0  0  0
  197.9841  190.6568  158.9769 H   0  0  0  0  0  0  0  0  0  0  0  0
  197.9863  188.3369  158.1398 H   0  0  0  0  0  0  0  0  0  0  0  0
  1  2  2  0
  2  3  1  0
  2  7  1  0
  3  4  2  0
  4  5  1  0
  4 26  1  0
  5  6  1  0
  5 25  2  0
  6  7  1  0
  6 22  2  0
  7  8  1  0
  8  9  1  0
  8 32  1  1
  8 33  1  0
  9 10  2  0
  9 11  1  0
 11 12  1  0
 11 34  1  0
 12 13  1  0
 12 21  2  0
 13 14  1  0
 13 18  2  0
 14 15  1  0
 14 35  1  0
 15 16  1  0
 15 17  1  0
 15 36  1  6
 16 37  1  6
 16 38  1  0
 16 39  1  0
 17 40  1  6
 17 41  1  0
 17 42  1  0
 18 19  1  0
 18 43  1  0
 19 20  2  0
 19 44  1  0
 20 21  1  0
 20 45  1  0
 21 46  1  0
 22 23  1  0
 22 47  1  0
 23 24  2  0
 23 48  1  0
 24 25  1  0
 24 49  1  0
 25 50  1  0
 26 27  2  0
 26 31  1  0
 27 28  1  0
 27 51  1  0
 28 29  2  0
 28 52  1  0
 29 30  1  0
 29 53  1  0
 30 31  2  0
 30 54  1  0
 31 55  1  0
M  END
>  <s_epik_cmdline>  (663) 
J2VwaWtfcHl0aG9uJywgJy1waCcsICc3LjAwMDAwMCcsICctcGh0JywgJzIuMDAwMDAwJywgJy1tcycsICcxNicsICctdG4nLCAnOCcsICctbWEnLCAnMjAwJywgJy1pbWFlJywgJzxpbmZpbGUubWFlPicsICctb21hZScsICc8b3V0ZmlsZS5tYWU+Jw==

>  <s_epik_input>  (663) 
W2NIXTFbY0hdW2NIXVtjSF1bY0hdYzEtYzJuYyg9TyluKGMoYzIzKVtjSF1bY0hdW2NIXVtjSF0zKVtDSDJdQyg9TylbTkhdYzRjKFtOSF1bQ0hdKFtDSDNdKVtDSDNdKVtjSF1bY0hdW2NIXVtjSF00

>  <s_i_glide_gridfile>  (663) 
ATP-Grid

>  <s_lp_Force_Field>  (663) 
OPLS_2005

>  <s_lp_Variant>  (663) 
rxn101____EMOL108753642____EMOL30145481-1

>  <s_lp_label>  (663) 
2650_sdstereoexpander_1_neutralizer_1_epik_1_stereoizer_1

>  <s_m_source_file>  (663) 
ATP-VSW-LIGPREP-001-in.maegz

>  <s_sd_BIOSOLVEIT.INFINISEE\_QUERY\_NAME>  (663) 
Ref-Lig

>  <s_sd_BIOSOLVEIT.INFINISEE\_QUERY\_SMILES>  (663) 
S(c1nc2c(cc1C[NH2+]Cc3ccc(cc3)C[NH+](C)C)cccc2)Cc4ccccc4

>  <s_sd_BIOSOLVEIT.INFINISEE\_REACTION\_NAME>  (663) 
rxn101

>  <s_sd_BIOSOLVEIT.INFINISEE\_REAGENT1\_NAME>  (663) 
EMOL108753642

>  <s_sd_BIOSOLVEIT.INFINISEE\_REAGENT1\_SMILES>  (663) 
N(c1c(N)cccc1)C(C)C

>  <s_sd_BIOSOLVEIT.INFINISEE\_REAGENT2\_NAME>  (663) 
EMOL30145481

>  <s_sd_BIOSOLVEIT.INFINISEE\_REAGENT2\_SMILES>  (663) 
O=C1N=C(c2c(N1CC(=O)O)cccc2)c3ccccc3

>  <s_sd_BIOSOLVEIT.INFINISEE\_SPACE>  (663) 
eXplore_7tr_2022-12

>  <s_vsw_compound_code>  (663) 
84769

>  <s_vsw_variant>  (663) 
84769-1

>  <r_epik_Charging_Adjusted_Penalty>  (663) 
0.00527195315943506

>  <r_epik_Ionization_Penalty>  (663) 
0.0053

>  <r_epik_Ionization_Penalty_Charging>  (663) 
0

>  <r_epik_Ionization_Penalty_Neutral>  (663) 
0.0053

>  <r_epik_State_Penalty>  (663) 
0.0053

>  <r_i_docking_score>  (663) 
-4.3909549127089598

>  <r_i_glide_ecoul>  (663) 
-5.2939968109130904

>  <r_i_glide_eff_state_penalty>  (663) 
0.0053

>  <r_i_glide_einternal>  (663) 
3.3696215152740501

>  <r_i_glide_emodel>  (663) 
-54.4867991019564

>  <r_i_glide_energy>  (663) 
-43.666700363159201

>  <r_i_glide_erotb>  (663) 
0.69539339701561398

>  <r_i_glide_esite>  (663) 
-0.26671543858066399

>  <r_i_glide_evdw>  (663) 
-38.372703552246101

>  <r_i_glide_gscore>  (663) 
-4.3962549127089598

>  <r_i_glide_hbond>  (663) 
-0.286046733976073

>  <r_i_glide_ligand_efficiency>  (663) 
-0.14164370686157901

>  <r_i_glide_ligand_efficiency_ln>  (663) 
-0.990294899423106

>  <r_i_glide_ligand_efficiency_sa>  (663) 
-0.444956799758638

>  <r_i_glide_lipo>  (663) 
-1.07984718643709

>  <r_i_glide_metal>  (663) 
-0

>  <r_i_glide_rewards>  (663) 
-0.74630425148147606

>  <r_lp_Energy>  (663) 
36.803417000000003

>  <r_qp_ACxDN^.5/SA>  (663) 
0.0131232

>  <r_qp_CIQPlogS>  (663) 
-6.0810000000000004

>  <r_qp_EA(eV)>  (663) 
0.88600000000000001

>  <r_qp_FISA>  (663) 
94.402000000000001

>  <r_qp_FOSA>  (663) 
197.07300000000001

>  <r_qp_IP(eV)>  (663) 
8.1880000000000006

>  <r_qp_Jm>  (663) 
0.0152759212265358

>  <r_qp_PISA>  (663) 
462.87400000000002

>  <r_qp_PSA>  (663) 
85.668000000000006

>  <r_qp_PercentHumanOralAbsorption>  (663) 
100

>  <r_qp_QPPCaco>  (663) 
1260.9200000000001

>  <r_qp_QPPMDCK>  (663) 
635.596

>  <r_qp_QPlogBB>  (663) 
-0.82699999999999996

>  <r_qp_QPlogHERG>  (663) 
-7.2649999999999997

>  <r_qp_QPlogKhsa>  (663) 
0.60199999999999998

>  <r_qp_QPlogKp>  (663) 
-1.0529999999999999

>  <r_qp_QPlogPC16>  (663) 
15.234999999999999

>  <r_qp_QPlogPo/w>  (663) 
4.548

>  <r_qp_QPlogPoct>  (663) 
23.966000000000001

>  <r_qp_QPlogPw>  (663) 
13.826000000000001

>  <r_qp_QPlogS>  (663) 
-6.3789999999999996

>  <r_qp_QPpolrz>  (663) 
48.340000000000003

>  <r_qp_SASA>  (663) 
754.34900000000005

>  <r_qp_SAamideO>  (663) 
0

>  <r_qp_SAfluorine>  (663) 
0

>  <r_qp_WPSA>  (663) 
0

>  <r_qp_accptHB>  (663) 
7

>  <r_qp_dip^2/V>  (663) 
0.086471900000000004

>  <r_qp_dipole>  (663) 
10.794

>  <r_qp_donorHB>  (663) 
2

>  <r_qp_glob>  (663) 
0.7821205

>  <r_qp_mol_MW>  (663) 
412.49000000000001

>  <r_qp_volume>  (663) 
1347.4770000000001

>  <r_sd_BIOSOLVEIT.INFINISEE\_FTREES\_SIMILARITY>  (663) 
0.91000000000000003

>  <r_sd_BIOSOLVEIT.LOGP>  (663) 
4.5225

>  <r_sd_BIOSOLVEIT.MOLECULAR\_WEIGHT>  (663) 
412.49099999999999

>  <r_sd_BIOSOLVEIT.TPSA>  (663) 
76.019999999999996

>  <i_epik_Tot_Q>  (663) 
0

>  <i_epik_Tot_abs_Q>  (663) 
0

>  <i_f3d_flags>  (663) 
0

>  <i_i_glide_confnum>  (663) 
3

>  <i_i_glide_lignum>  (663) 
1134

>  <i_i_glide_posenum>  (663) 
16

>  <i_i_glide_rotatable_bonds>  (663) 
7

>  <i_lp_mmshare_version>  (663) 
65135

>  <i_m_ct_format>  (663) 
2

>  <i_m_source_file_index>  (663) 
2650

>  <i_qp_#NandO>  (663) 
6

>  <i_qp_#acid>  (663) 
0

>  <i_qp_#amide>  (663) 
0

>  <i_qp_#amidine>  (663) 
0

>  <i_qp_#amine>  (663) 
0

>  <i_qp_#in34>  (663) 
0

>  <i_qp_#in56>  (663) 
22

>  <i_qp_#metab>  (663) 
6

>  <i_qp_#nonHatm>  (663) 
31

>  <i_qp_#noncon>  (663) 
0

>  <i_qp_#ringatoms>  (663) 
22

>  <i_qp_#rotor>  (663) 
6

>  <i_qp_#rtvFG>  (663) 
0

>  <i_qp_#stars>  (663) 
1

>  <i_qp_CNS>  (663) 
-1

>  <i_qp_HumanOralAbsorption>  (663) 
1

>  <i_qp_RuleOfFive>  (663) 
0

>  <i_qp_RuleOfThree>  (663) 
1

>  <i_sd_BIOSOLVEIT.INFINISEE\_RESULT\_RANK>  (663) 
46373

>  <i_sd_version>  (663) 
0

>  <b_lp_Chiralities_Consistent>  (663) 
1

>  <b_sd_chiral_flag>  (663) 
0

>  <canonical_id>  (663) 
ATP-HTVS-675D7E7E37EF

>  <compound_code>  (663) 
84769

>  <title>  (663) 
rxn101____EMOL108753642____EMOL30145481

>  <variant>  (663) 
84769-1

>  <source_file>  (663) 
运行/运行/ATP-VSW/ATP-VSW-DOCK_HTVS_1-001_lib/ATP-VSW-DOCK_HTVS_1-001_lib

>  <canonical_smiles>  (663) 
CC(C)Nc1ccccc1NC(=O)Cn1c(=O)nc(-c2ccccc2)c2ccccc21

>  <scaffold>  (663) 
O=C(Cn1c(=O)nc(-c2ccccc2)c2ccccc21)Nc1ccccc1

>  <molecular_formula>  (663) 
C25H24N4O2

$$$$
ATP-HTVS-676B1F951E41
     RDKit          3D

 55 57  0  0  0  0  0  0  0  0999 V2000
  203.5354  183.3001  162.1735 Cl  0  0  0  0  0  0  0  0  0  0  0  0
  203.1621  182.5109  160.6818 C   0  0  0  0  0  0  0  0  0  0  0  0
  203.7389  181.2644  160.3722 C   0  0  0  0  0  0  0  0  0  0  0  0
  203.4431  180.6369  159.1418 C   0  0  0  0  0  0  0  0  0  0  0  0
  202.5505  181.2335  158.2168 C   0  0  0  0  0  0  0  0  0  0  0  0
  201.9860  182.4882  158.5287 C   0  0  0  0  0  0  0  0  0  0  0  0
  202.2921  183.1209  159.7620 C   0  0  0  0  0  0  0  0  0  0  0  0
  202.2476  180.5043  156.8938 C   0  0  1  0  0  0  0  0  0  0  0  0
  200.9110  180.7751  156.3755 N   0  0  0  0  0  0  0  0  0  0  0  0
  200.6679  181.9309  155.7230 N   0  0  0  0  0  0  0  0  0  0  0  0
  199.3881  181.9694  155.4728 N   0  0  0  0  0  0  0  0  0  0  0  0
  198.8035  180.7861  155.9152 C   0  0  0  0  0  0  0  0  0  0  0  0
  199.7679  179.9989  156.4840 C   0  0  0  0  0  0  0  0  0  0  0  0
  197.3312  180.5195  155.7655 C   0  0  1  0  0  0  0  0  0  0  0  0
  196.4900  181.4631  156.5355 N   0  0  1  0  0  0  0  0  0  0  0  0
  196.8577  181.7579  157.9385 C   0  0  1  0  0  0  0  0  0  0  0  0
  196.4980  183.1566  158.3405 C   0  0  0  0  0  0  0  0  0  0  0  0
  195.4751  183.4169  159.2800 C   0  0  0  0  0  0  0  0  0  0  0  0
  195.2080  184.7417  159.6864 C   0  0  0  0  0  0  0  0  0  0  0  0
  195.9492  185.8192  159.1306 C   0  0  0  0  0  0  0  0  0  0  0  0
  196.9277  185.5776  158.1450 C   0  0  0  0  0  0  0  0  0  0  0  0
  197.2222  184.2263  157.7764 C   0  0  0  0  0  0  0  0  0  0  0  0
  195.6897  187.2562  159.5696 C   0  0  1  0  0  0  0  0  0  0  0  0
  196.7473  187.8398  160.4474 N   0  0  1  0  0  0  0  0  0  0  0  0
  198.0705  187.9946  159.7961 C   0  0  2  0  0  0  0  0  0  0  0  0
  196.3196  189.0998  161.0927 C   0  0  2  0  0  0  0  0  0  0  0  0
  196.9616  180.5209  154.2798 C   0  0  2  0  0  0  0  0  0  0  0  0
  196.4699  182.3609  156.0284 H   0  0  0  0  0  0  0  0  0  0  0  0
  204.4131  180.7914  161.0751 H   0  0  0  0  0  0  0  0  0  0  0  0
  203.9078  179.6885  158.9224 H   0  0  0  0  0  0  0  0  0  0  0  0
  201.3234  183.0088  157.8504 H   0  0  0  0  0  0  0  0  0  0  0  0
  201.8511  184.0817  159.9761 H   0  0  0  0  0  0  0  0  0  0  0  0
  202.9895  180.7761  156.1425 H   0  0  0  0  0  0  0  0  0  0  0  0
  202.3397  179.4283  157.0428 H   0  0  0  0  0  0  0  0  0  0  0  0
  199.7256  179.0346  156.9619 H   0  0  0  0  0  0  0  0  0  0  0  0
  197.1259  179.5065  156.1310 H   0  0  0  0  0  0  0  0  0  0  0  0
  196.3747  181.0436  158.6105 H   0  0  0  0  0  0  0  0  0  0  0  0
  197.9318  181.6622  158.1323 H   0  0  0  0  0  0  0  0  0  0  0  0
  194.9124  182.5945  159.7091 H   0  0  0  0  0  0  0  0  0  0  0  0
  194.4445  184.9190  160.4146 H   0  0  0  0  0  0  0  0  0  0  0  0
  197.4591  186.3748  157.6939 H   0  0  0  0  0  0  0  0  0  0  0  0
  198.0254  184.0440  157.0892 H   0  0  0  0  0  0  0  0  0  0  0  0
  195.5623  187.8789  158.6844 H   0  0  0  0  0  0  0  0  0  0  0  0
  194.7418  187.2776  160.1079 H   0  0  0  0  0  0  0  0  0  0  0  0
  197.9805  188.6561  158.9360 H   0  0  0  0  0  0  0  0  0  0  0  0
  198.4402  187.0213  159.4121 H   0  0  0  0  0  0  0  0  0  0  0  0
  198.7845  188.4811  160.4849 H   0  0  0  0  0  0  0  0  0  0  0  0
  196.1005  189.8687  160.3493 H   0  0  0  0  0  0  0  0  0  0  0  0
  197.1123  189.4794  161.7373 H   0  0  0  0  0  0  0  0  0  0  0  0
  195.4311  188.9645  161.7132 H   0  0  0  0  0  0  0  0  0  0  0  0
  197.5610  179.7972  153.7254 H   0  0  0  0  0  0  0  0  0  0  0  0
  197.1245  181.5033  153.8257 H   0  0  0  0  0  0  0  0  0  0  0  0
  195.9200  180.2560  154.1326 H   0  0  0  0  0  0  0  0  0  0  0  0
  196.8747  187.1786  161.2062 H   0  0  0  0  0  0  0  0  0  0  0  0
  195.5461  181.1204  156.5484 H   0  0  0  0  0  0  0  0  0  0  0  0
  1  2  1  0
  2  3  1  0
  2  7  2  0
  3  4  2  0
  3 29  1  0
  4  5  1  0
  4 30  1  0
  5  6  2  0
  5  8  1  0
  6  7  1  0
  6 31  1  0
  7 32  1  0
  8  9  1  0
  8 33  1  6
  8 34  1  0
  9 10  1  0
  9 13  1  0
 10 11  2  0
 11 12  1  0
 12 13  2  0
 12 14  1  0
 13 35  1  0
 14 15  1  0
 14 27  1  0
 14 36  1  1
 15 16  1  0
 15 28  1  6
 15 55  1  0
 16 17  1  0
 16 37  1  1
 16 38  1  0
 17 18  1  0
 17 22  2  0
 18 19  2  0
 18 39  1  0
 19 20  1  0
 19 40  1  0
 20 21  2  0
 20 23  1  0
 21 22  1  0
 21 41  1  0
 22 42  1  0
 23 24  1  0
 23 43  1  6
 23 44  1  0
 24 25  1  0
 24 26  1  0
 24 54  1  1
 25 45  1  6
 25 46  1  0
 25 47  1  0
 26 48  1  6
 26 49  1  0
 26 50  1  0
 27 51  1  6
 27 52  1  0
 27 53  1  0
M  CHG  2  15   1  24   1
M  END
>  <s_epik_cmdline>  (664) 
J2VwaWtfcHl0aG9uJywgJy1waCcsICc3LjAwMDAwMCcsICctcGh0JywgJzIuMDAwMDAwJywgJy1tcycsICcxNicsICctdG4nLCAnOCcsICctbWEnLCAnMjAwJywgJy1pbWFlJywgJzxpbmZpbGUubWFlPicsICctb21hZScsICc8b3V0ZmlsZS5tYWU+Jw==

>  <s_epik_input>  (664) 
Q2xjMVtjSF1bY0hdYyhbY0hdW2NIXTEpW0NIMl1uMm5uYyhbY0hdMilbQ0BIXShbQ0gzXSlbTkhdW0NIMl1jM1tjSF1bY0hdYyhbY0hdW2NIXTMpW0NIMl1OKFtDSDNdKVtDSDNd

>  <s_i_glide_gridfile>  (664) 
ATP-Grid

>  <s_lp_Force_Field>  (664) 
OPLS_2005

>  <s_lp_Variant>  (664) 
rxn207____EMOL46100660____EMOL50155899-2

>  <s_lp_label>  (664) 
2360_sdstereoexpander_2_neutralizer_1_epik_1_stereoizer_1

>  <s_m_source_file>  (664) 
ATP-VSW-LIGPREP-001-in.maegz

>  <s_sd_BIOSOLVEIT.INFINISEE\_QUERY\_NAME>  (664) 
Ref-Lig

>  <s_sd_BIOSOLVEIT.INFINISEE\_QUERY\_SMILES>  (664) 
S(c1nc2c(cc1C[NH2+]Cc3ccc(cc3)C[NH+](C)C)cccc2)Cc4ccccc4

>  <s_sd_BIOSOLVEIT.INFINISEE\_REACTION\_NAME>  (664) 
rxn207

>  <s_sd_BIOSOLVEIT.INFINISEE\_REAGENT1\_NAME>  (664) 
EMOL46100660

>  <s_sd_BIOSOLVEIT.INFINISEE\_REAGENT1\_SMILES>  (664) 
Clc1ccc(cc1)CN2N=NC(C(=O)C)=C2

>  <s_sd_BIOSOLVEIT.INFINISEE\_REAGENT2\_NAME>  (664) 
EMOL50155899

>  <s_sd_BIOSOLVEIT.INFINISEE\_REAGENT2\_SMILES>  (664) 
N(Cc1ccc(cc1)CN)(C)C

>  <s_sd_BIOSOLVEIT.INFINISEE\_SPACE>  (664) 
eXplore_7tr_2022-12

>  <s_vsw_compound_code>  (664) 
75489

>  <s_vsw_variant>  (664) 
75489-2

>  <r_epik_Charging_Adjusted_Penalty>  (664) 
0.57844711612965305

>  <r_epik_Ionization_Penalty>  (664) 
0.28939999999999999

>  <r_epik_Ionization_Penalty_Charging>  (664) 
0.28939999999999999

>  <r_epik_Ionization_Penalty_Neutral>  (664) 
0

>  <r_epik_State_Penalty>  (664) 
0.28899999999999998

>  <r_i_docking_score>  (664) 
-4.5519897215787397

>  <r_i_glide_ecoul>  (664) 
-11.484515190124499

>  <r_i_glide_eff_state_penalty>  (664) 
0.28899999999999998

>  <r_i_glide_einternal>  (664) 
4.3192605972290004

>  <r_i_glide_emodel>  (664) 
-60.094633289802204

>  <r_i_glide_energy>  (664) 
-41.414427757263198

>  <r_i_glide_erotb>  (664) 
0.91448244210798102

>  <r_i_glide_esite>  (664) 
-0.099004265619011295

>  <r_i_glide_evdw>  (664) 
-29.9299125671387

>  <r_i_glide_gscore>  (664) 
-4.8409897215787403

>  <r_i_glide_hbond>  (664) 
-0.0033869611661947398

>  <r_i_glide_ligand_efficiency>  (664) 
-0.168592211910324

>  <r_i_glide_ligand_efficiency_ln>  (664) 
-1.05962816176785

>  <r_i_glide_ligand_efficiency_sa>  (664) 
-0.50577663517531901

>  <r_i_glide_lipo>  (664) 
-1.43117998457136

>  <r_i_glide_metal>  (664) 
-0

>  <r_i_glide_rewards>  (664) 
-1.00272804545454

>  <r_lp_Energy>  (664) 
10.515461

>  <r_lp_tautomer_probability>  (664) 
1

>  <r_qp_ACxDN^.5/SA>  (664) 
0.010200499999999999

>  <r_qp_CIQPlogS>  (664) 
-3.5430000000000001

>  <r_qp_EA(eV)>  (664) 
0.50800000000000001

>  <r_qp_FISA>  (664) 
59.326000000000001

>  <r_qp_FOSA>  (664) 
305.85300000000001

>  <r_qp_IP(eV)>  (664) 
9.0749999999999993

>  <r_qp_Jm>  (664) 
0.086592685116107806

>  <r_qp_PISA>  (664) 
176.88399999999999

>  <r_qp_PSA>  (664) 
51.296999999999997

>  <r_qp_PercentHumanOralAbsorption>  (664) 
84.938999999999993

>  <r_qp_QPPCaco>  (664) 
168.697

>  <r_qp_QPPMDCK>  (664) 
158.29599999999999

>  <r_qp_QPlogBB>  (664) 
0.51900000000000002

>  <r_qp_QPlogHERG>  (664) 
-5.2119999999999997

>  <r_qp_QPlogKhsa>  (664) 
0.33600000000000002

>  <r_qp_QPlogKp>  (664) 
-5.3470000000000004

>  <r_qp_QPlogPC16>  (664) 
11.505000000000001

>  <r_qp_QPlogPo/w>  (664) 
3.097

>  <r_qp_QPlogPoct>  (664) 
17.234000000000002

>  <r_qp_QPlogPw>  (664) 
8.3670000000000009

>  <r_qp_QPlogS>  (664) 
-1.3

>  <r_qp_QPpolrz>  (664) 
37.341999999999999

>  <r_qp_SASA>  (664) 
588.20500000000004

>  <r_qp_SAamideO>  (664) 
0

>  <r_qp_SAfluorine>  (664) 
0

>  <r_qp_WPSA>  (664) 
46.142000000000003

>  <r_qp_accptHB>  (664) 
6

>  <r_qp_dip^2/V>  (664) 
0.023774300000000002

>  <r_qp_dipole>  (664) 
5.2809999999999997

>  <r_qp_donorHB>  (664) 
1

>  <r_qp_glob>  (664) 
0.91446269999999996

>  <r_qp_mol_MW>  (664) 
383.923

>  <r_qp_volume>  (664) 
1172.992

>  <r_sd_BIOSOLVEIT.INFINISEE\_FTREES\_SIMILARITY>  (664) 
0.92000000000000004

>  <r_sd_BIOSOLVEIT.LOGP>  (664) 
1.4489000000000001

>  <r_sd_BIOSOLVEIT.MOLECULAR\_WEIGHT>  (664) 
385.94

>  <r_sd_BIOSOLVEIT.TPSA>  (664) 
51.759999999999998

>  <i_epik_Tot_Q>  (664) 
2

>  <i_epik_Tot_abs_Q>  (664) 
2

>  <i_f3d_flags>  (664) 
0

>  <i_i_glide_confnum>  (664) 
3

>  <i_i_glide_lignum>  (664) 
861

>  <i_i_glide_posenum>  (664) 
6

>  <i_i_glide_rotatable_bonds>  (664) 
8

>  <i_lp_mmshare_version>  (664) 
65135

>  <i_m_ct_format>  (664) 
2

>  <i_m_source_file_index>  (664) 
2360

>  <i_qp_#NandO>  (664) 
5

>  <i_qp_#acid>  (664) 
0

>  <i_qp_#amide>  (664) 
0

>  <i_qp_#amidine>  (664) 
0

>  <i_qp_#amine>  (664) 
2

>  <i_qp_#in34>  (664) 
0

>  <i_qp_#in56>  (664) 
17

>  <i_qp_#metab>  (664) 
6

>  <i_qp_#nonHatm>  (664) 
27

>  <i_qp_#noncon>  (664) 
0

>  <i_qp_#ringatoms>  (664) 
17

>  <i_qp_#rotor>  (664) 
8

>  <i_qp_#rtvFG>  (664) 
0

>  <i_qp_#stars>  (664) 
0

>  <i_qp_CNS>  (664) 
2

>  <i_qp_HumanOralAbsorption>  (664) 
3

>  <i_qp_RuleOfFive>  (664) 
0

>  <i_qp_RuleOfThree>  (664) 
0

>  <i_sd_BIOSOLVEIT.INFINISEE\_RESULT\_RANK>  (664) 
16746

>  <i_sd_version>  (664) 
0

>  <b_lp_Chiralities_Consistent>  (664) 
1

>  <b_sd_chiral_flag>  (664) 
0

>  <canonical_id>  (664) 
ATP-HTVS-676B1F951E41

>  <compound_code>  (664) 
75489

>  <title>  (664) 
rxn207____EMOL46100660____EMOL50155899

>  <variant>  (664) 
75489-2

>  <source_file>  (664) 
运行/运行/ATP-VSW/ATP-VSW-DOCK_HTVS_1-001_lib/ATP-VSW-DOCK_HTVS_1-001_lib

>  <canonical_smiles>  (664) 
C[C@H]([NH2+]Cc1ccc(C[NH+](C)C)cc1)c1cn(Cc2ccc(Cl)cc2)nn1

>  <scaffold>  (664) 
c1ccc(C[NH2+]Cc2cn(Cc3ccccc3)nn2)cc1

>  <molecular_formula>  (664) 
C21H28ClN5+2

$$$$
ATP-HTVS-6778D00A26F1
     RDKit          3D

 54 57  0  0  0  0  0  0  0  0999 V2000
  202.3759  176.7297  154.1301 S   0  0  0  0  0  0  0  0  0  0  0  0
  201.0596  177.7956  154.5248 C   0  0  0  0  0  0  0  0  0  0  0  0
  200.2606  178.3848  153.5157 C   0  0  0  0  0  0  0  0  0  0  0  0
  200.4984  178.1461  152.2010 F   0  0  0  0  0  0  0  0  0  0  0  0
  199.1909  179.2317  153.8718 C   0  0  0  0  0  0  0  0  0  0  0  0
  198.9081  179.5085  155.2286 C   0  0  0  0  0  0  0  0  0  0  0  0
  199.7078  178.9049  156.2268 C   0  0  0  0  0  0  0  0  0  0  0  0
  200.7805  178.0622  155.8805 C   0  0  0  0  0  0  0  0  0  0  0  0
  197.7712  180.4193  155.6081 C   0  0  0  0  0  0  0  0  0  0  0  0
  196.7498  180.4816  154.9249 O   0  0  0  0  0  0  0  0  0  0  0  0
  198.0313  181.1920  156.6807 N   0  0  0  0  0  0  0  0  0  0  0  0
  197.1714  182.0895  157.3843 C   0  0  0  0  0  0  0  0  0  0  0  0
  197.7199  183.1792  158.1193 C   0  0  0  0  0  0  0  0  0  0  0  0
  199.1167  183.3318  158.1543 N   0  0  0  0  0  0  0  0  0  0  0  0
  199.7616  183.5318  159.4574 C   0  0  1  0  0  0  0  0  0  0  0  0
  201.2174  184.0141  159.3323 C   0  0  1  0  0  0  0  0  0  0  0  0
  201.5148  184.6927  160.5350 O   0  0  0  0  0  0  0  0  0  0  0  0
  202.1938  182.8873  159.0277 C   0  0  0  0  0  0  0  0  0  0  0  0
  202.8524  182.2036  160.0722 C   0  0  0  0  0  0  0  0  0  0  0  0
  203.7684  181.1709  159.7879 C   0  0  0  0  0  0  0  0  0  0  0  0
  204.0307  180.8132  158.4506 C   0  0  0  0  0  0  0  0  0  0  0  0
  203.3771  181.4903  157.4021 C   0  0  0  0  0  0  0  0  0  0  0  0
  202.4630  182.5258  157.6919 C   0  0  0  0  0  0  0  0  0  0  0  0
  204.4647  180.4479  160.9260 C   0  0  2  0  0  0  0  0  0  0  0  0
  196.8237  184.0756  158.7793 C   0  0  0  0  0  0  0  0  0  0  0  0
  195.4339  183.7718  158.8114 C   0  0  0  0  0  0  0  0  0  0  0  0
  194.9843  182.6939  158.1370 N   0  0  0  0  0  0  0  0  0  0  0  0
  195.7796  181.8815  157.4153 C   0  0  0  0  0  0  0  0  0  0  0  0
  194.5181  184.6025  159.4974 C   0  0  0  0  0  0  0  0  0  0  0  0
  194.9812  185.7542  160.1581 C   0  0  0  0  0  0  0  0  0  0  0  0
  196.3461  186.0921  160.1026 C   0  0  0  0  0  0  0  0  0  0  0  0
  197.2529  185.2798  159.3908 C   0  0  0  0  0  0  0  0  0  0  0  0
  198.5923  179.6754  153.0880 H   0  0  0  0  0  0  0  0  0  0  0  0
  199.5003  179.0652  157.2747 H   0  0  0  0  0  0  0  0  0  0  0  0
  201.3651  177.6074  156.6699 H   0  0  0  0  0  0  0  0  0  0  0  0
  198.9732  181.0940  157.0261 H   0  0  0  0  0  0  0  0  0  0  0  0
  199.6143  182.7172  157.5281 H   0  0  0  0  0  0  0  0  0  0  0  0
  199.2212  184.2347  160.0758 H   0  0  0  0  0  0  0  0  0  0  0  0
  199.7634  182.5977  160.0157 H   0  0  0  0  0  0  0  0  0  0  0  0
  201.2890  184.7562  158.5367 H   0  0  0  0  0  0  0  0  0  0  0  0
  201.4087  184.0874  161.2547 H   0  0  0  0  0  0  0  0  0  0  0  0
  202.6625  182.4562  161.1038 H   0  0  0  0  0  0  0  0  0  0  0  0
  204.7345  180.0263  158.2202 H   0  0  0  0  0  0  0  0  0  0  0  0
  203.5833  181.2129  156.3725 H   0  0  0  0  0  0  0  0  0  0  0  0
  201.9685  183.0350  156.8757 H   0  0  0  0  0  0  0  0  0  0  0  0
  205.3750  179.9552  160.5821 H   0  0  0  0  0  0  0  0  0  0  0  0
  203.7941  179.6940  161.3344 H   0  0  0  0  0  0  0  0  0  0  0  0
  204.7414  181.1431  161.7215 H   0  0  0  0  0  0  0  0  0  0  0  0
  195.2581  181.0893  156.8982 H   0  0  0  0  0  0  0  0  0  0  0  0
  193.4585  184.3862  159.4759 H   0  0  0  0  0  0  0  0  0  0  0  0
  194.2749  186.3936  160.6789 H   0  0  0  0  0  0  0  0  0  0  0  0
  196.6951  186.9775  160.6152 H   0  0  0  0  0  0  0  0  0  0  0  0
  198.2910  185.5787  159.3135 H   0  0  0  0  0  0  0  0  0  0  0  0
  193.9831  182.5032  158.0957 H   0  0  0  0  0  0  0  0  0  0  0  0
  1  2  1  0
  2  3  2  0
  2  8  1  0
  3  4  1  0
  3  5  1  0
  5  6  2  0
  5 33  1  0
  6  7  1  0
  6  9  1  0
  7  8  2  0
  7 34  1  0
  8 35  1  0
  9 10  2  0
  9 11  1  0
 11 12  1  0
 11 36  1  0
 12 13  2  0
 12 28  1  0
 13 14  1  0
 13 25  1  0
 14 15  1  0
 14 37  1  0
 15 16  1  0
 15 38  1  1
 15 39  1  0
 16 17  1  0
 16 18  1  0
 16 40  1  6
 17 41  1  0
 18 19  1  0
 18 23  2  0
 19 20  2  0
 19 42  1  0
 20 21  1  0
 20 24  1  0
 21 22  2  0
 21 43  1  0
 22 23  1  0
 22 44  1  0
 23 45  1  0
 24 46  1  6
 24 47  1  0
 24 48  1  0
 25 26  1  0
 25 32  2  0
 26 27  1  0
 26 29  2  0
 27 28  2  0
 27 54  1  0
 28 49  1  0
 29 30  1  0
 29 50  1  0
 30 31  2  0
 30 51  1  0
 31 32  1  0
 31 52  1  0
 32 53  1  0
M  CHG  2   1  -1  27   1
M  END
>  <s_epik_cmdline>  (665) 
J2VwaWtfcHl0aG9uJywgJy1waCcsICc3LjAwMDAwMCcsICctcGh0JywgJzIuMDAwMDAwJywgJy1tcycsICcxNicsICctdG4nLCAnOCcsICctbWEnLCAnMjAwJywgJy1pbWFlJywgJzxpbmZpbGUubWFlPicsICctb21hZScsICc8b3V0ZmlsZS5tYWU+Jw==

>  <s_epik_input>  (665) 
W1NIXWMxYyhGKVtjSF1jKFtjSF1bY0hdMSlDKD1PKVtOSF1jKFtjSF1uYyhjMjMpW2NIXVtjSF1bY0hdW2NIXTMpYzJbTkhdW0NIMl1bQ0BASF0oW09IXSljNFtjSF1jKFtDSDNdKVtjSF1bY0hdW2NIXTQ=

>  <s_i_glide_gridfile>  (665) 
ATP-Grid

>  <s_lp_Force_Field>  (665) 
OPLS_2005

>  <s_lp_Variant>  (665) 
rxn502b____EMOL39304293____EMOL30488121____EMOL44834539-2

>  <s_lp_label>  (665) 
2754_sdstereoexpander_2_neutralizer_1_epik_1_stereoizer_1

>  <s_m_source_file>  (665) 
ATP-VSW-LIGPREP-001-in.maegz

>  <s_sd_BIOSOLVEIT.INFINISEE\_QUERY\_NAME>  (665) 
Ref-Lig

>  <s_sd_BIOSOLVEIT.INFINISEE\_QUERY\_SMILES>  (665) 
S(c1nc2c(cc1C[NH2+]Cc3ccc(cc3)C[NH+](C)C)cccc2)Cc4ccccc4

>  <s_sd_BIOSOLVEIT.INFINISEE\_REACTION\_NAME>  (665) 
rxn502b

>  <s_sd_BIOSOLVEIT.INFINISEE\_REAGENT1\_NAME>  (665) 
EMOL39304293

>  <s_sd_BIOSOLVEIT.INFINISEE\_REAGENT1\_SMILES>  (665) 
Sc1c(F)cc(cc1)C(=O)O

>  <s_sd_BIOSOLVEIT.INFINISEE\_REAGENT2\_NAME>  (665) 
EMOL30488121

>  <s_sd_BIOSOLVEIT.INFINISEE\_REAGENT2\_SMILES>  (665) 
Brc1c(N)cnc2c1cccc2

>  <s_sd_BIOSOLVEIT.INFINISEE\_REAGENT3\_NAME>  (665) 
EMOL44834539

>  <s_sd_BIOSOLVEIT.INFINISEE\_REAGENT3\_SMILES>  (665) 
OC(c1cc(ccc1)C)CN

>  <s_sd_BIOSOLVEIT.INFINISEE\_SPACE>  (665) 
eXplore_7tr_2022-12

>  <s_vsw_compound_code>  (665) 
88097

>  <s_vsw_variant>  (665) 
88097-2

>  <r_epik_Charging_Adjusted_Penalty>  (665) 
0.075124348231006194

>  <r_epik_Ionization_Penalty>  (665) 
0.037699999999999997

>  <r_epik_Ionization_Penalty_Charging>  (665) 
0.037699999999999997

>  <r_epik_Ionization_Penalty_Neutral>  (665) 
0

>  <r_epik_State_Penalty>  (665) 
0.037400000000000003

>  <r_i_docking_score>  (665) 
-4.0207639857811897

>  <r_i_glide_ecoul>  (665) 
-3.07837963104248

>  <r_i_glide_eff_state_penalty>  (665) 
0.037400000000000003

>  <r_i_glide_einternal>  (665) 
4.0276026725768999

>  <r_i_glide_emodel>  (665) 
-46.274595008322798

>  <r_i_glide_energy>  (665) 
-36.676024436950698

>  <r_i_glide_erotb>  (665) 
0.69990970812129705

>  <r_i_glide_esite>  (665) 
-0.21395653176049301

>  <r_i_glide_evdw>  (665) 
-33.597644805908203

>  <r_i_glide_gscore>  (665) 
-4.0581639857811904

>  <r_i_glide_hbond>  (665) 
0

>  <r_i_glide_ligand_efficiency>  (665) 
-0.12564887455566201

>  <r_i_glide_ligand_efficiency_ln>  (665) 
-0.90035865830319906

>  <r_i_glide_ligand_efficiency_sa>  (665) 
-0.39891031083571699

>  <r_i_glide_lipo>  (665) 
-1.8143404067459601

>  <r_i_glide_metal>  (665) 
-0

>  <r_i_glide_rewards>  (665) 
-0.58813757044424797

>  <r_lp_Energy>  (665) 
34.495117999999998

>  <r_qp_ACxDN^.5/SA>  (665) 
0.020116700000000001

>  <r_qp_CIQPlogS>  (665) 
-6.7210000000000001

>  <r_qp_EA(eV)>  (665) 
1.1459999999999999

>  <r_qp_FISA>  (665) 
105.864

>  <r_qp_FOSA>  (665) 
106.223

>  <r_qp_IP(eV)>  (665) 
8.4870000000000001

>  <r_qp_Jm>  (665) 
0.27543954012970601

>  <r_qp_PISA>  (665) 
328.86099999999999

>  <r_qp_PSA>  (665) 
76.004999999999995

>  <r_qp_PercentHumanOralAbsorption>  (665) 
100

>  <r_qp_QPPCaco>  (665) 
981.73800000000006

>  <r_qp_QPPMDCK>  (665) 
1900.924

>  <r_qp_QPlogBB>  (665) 
-0.59099999999999997

>  <r_qp_QPlogHERG>  (665) 
-5.2489999999999997

>  <r_qp_QPlogKhsa>  (665) 
0.30299999999999999

>  <r_qp_QPlogKp>  (665) 
-1.544

>  <r_qp_QPlogPC16>  (665) 
14.093

>  <r_qp_QPlogPo/w>  (665) 
4.0460000000000003

>  <r_qp_QPlogPoct>  (665) 
23.859999999999999

>  <r_qp_QPlogPw>  (665) 
14.677

>  <r_qp_QPlogS>  (665) 
-4.6669999999999998

>  <r_qp_QPpolrz>  (665) 
42.122

>  <r_qp_SASA>  (665) 
649.24800000000005

>  <r_qp_SAamideO>  (665) 
0

>  <r_qp_SAfluorine>  (665) 
36.027999999999999

>  <r_qp_WPSA>  (665) 
108.3

>  <r_qp_accptHB>  (665) 
6.7000000000000002

>  <r_qp_dip^2/V>  (665) 
0.0121228

>  <r_qp_dipole>  (665) 
3.9020000000000001

>  <r_qp_donorHB>  (665) 
3.7999999999999998

>  <r_qp_glob>  (665) 
0.86720969999999997

>  <r_qp_mol_MW>  (665) 
447.52600000000001

>  <r_qp_volume>  (665) 
1256.1869999999999

>  <r_sd_BIOSOLVEIT.INFINISEE\_FTREES\_SIMILARITY>  (665) 
0.90700000000000003

>  <r_sd_BIOSOLVEIT.LOGP>  (665) 
5.7490199999999998

>  <r_sd_BIOSOLVEIT.MOLECULAR\_WEIGHT>  (665) 
447.53100000000001

>  <r_sd_BIOSOLVEIT.TPSA>  (665) 
74.25

>  <i_epik_Tot_Q>  (665) 
0

>  <i_epik_Tot_abs_Q>  (665) 
2

>  <i_f3d_flags>  (665) 
0

>  <i_i_glide_confnum>  (665) 
6

>  <i_i_glide_lignum>  (665) 
1237

>  <i_i_glide_posenum>  (665) 
4

>  <i_i_glide_rotatable_bonds>  (665) 
8

>  <i_lp_mmshare_version>  (665) 
65135

>  <i_m_ct_format>  (665) 
2

>  <i_m_source_file_index>  (665) 
2754

>  <i_qp_#NandO>  (665) 
5

>  <i_qp_#acid>  (665) 
0

>  <i_qp_#amide>  (665) 
0

>  <i_qp_#amidine>  (665) 
0

>  <i_qp_#amine>  (665) 
0

>  <i_qp_#in34>  (665) 
0

>  <i_qp_#in56>  (665) 
22

>  <i_qp_#metab>  (665) 
7

>  <i_qp_#nonHatm>  (665) 
32

>  <i_qp_#noncon>  (665) 
0

>  <i_qp_#ringatoms>  (665) 
22

>  <i_qp_#rotor>  (665) 
8

>  <i_qp_#rtvFG>  (665) 
1

>  <i_qp_#stars>  (665) 
0

>  <i_qp_CNS>  (665) 
-1

>  <i_qp_HumanOralAbsorption>  (665) 
3

>  <i_qp_RuleOfFive>  (665) 
0

>  <i_qp_RuleOfThree>  (665) 
1

>  <i_sd_BIOSOLVEIT.INFINISEE\_RESULT\_RANK>  (665) 
58671

>  <i_sd_version>  (665) 
0

>  <b_lp_Chiralities_Consistent>  (665) 
1

>  <b_sd_chiral_flag>  (665) 
0

>  <canonical_id>  (665) 
ATP-HTVS-6778D00A26F1

>  <compound_code>  (665) 
88097

>  <title>  (665) 
rxn502b____EMOL39304293____EMOL30488121____EMOL44834539

>  <variant>  (665) 
88097-2

>  <source_file>  (665) 
运行/运行/ATP-VSW/ATP-VSW-DOCK_HTVS_1-001_lib/ATP-VSW-DOCK_HTVS_1-001_lib

>  <canonical_smiles>  (665) 
Cc1cccc([C@H](O)CNc2c(NC(=O)c3ccc([S-])c(F)c3)c[nH+]c3ccccc23)c1

>  <scaffold>  (665) 
O=C(Nc1c[nH+]c2ccccc2c1NCCc1ccccc1)c1ccccc1

>  <molecular_formula>  (665) 
C25H22FN3O2S

$$$$
ATP-HTVS-677D6479829E
     RDKit          3D

 45 48  0  0  0  0  0  0  0  0999 V2000
  198.3445  192.9514  157.0631 F   0  0  0  0  0  0  0  0  0  0  0  0
  198.3417  191.7254  157.6394 C   0  0  0  0  0  0  0  0  0  0  0  0
  198.7478  190.5978  156.9008 C   0  0  0  0  0  0  0  0  0  0  0  0
  199.1554  190.7349  155.6157 F   0  0  0  0  0  0  0  0  0  0  0  0
  198.7346  189.3243  157.4991 C   0  0  0  0  0  0  0  0  0  0  0  0
  198.3168  189.1812  158.8415 C   0  0  0  0  0  0  0  0  0  0  0  0
  197.9187  190.3072  159.5813 C   0  0  0  0  0  0  0  0  0  0  0  0
  197.9296  191.5773  158.9798 C   0  0  0  0  0  0  0  0  0  0  0  0
  197.5591  192.6560  159.7038 F   0  0  0  0  0  0  0  0  0  0  0  0
  198.3361  187.8245  159.5040 C   0  0  1  0  0  0  0  0  0  0  0  0
  197.5533  186.8129  158.7809 N   0  0  0  0  0  0  0  0  0  0  0  0
  198.0121  185.4576  159.1411 C   0  0  1  0  0  0  0  0  0  0  0  0
  197.1127  184.3305  158.6099 C   0  0  0  0  0  0  0  0  0  0  0  0
  195.8083  184.1482  159.1472 C   0  0  0  0  0  0  0  0  0  0  0  0
  195.2733  185.0221  160.1320 N   0  0  0  0  0  0  0  0  0  0  0  0
  195.4185  186.3533  160.1739 C   0  0  0  0  0  0  0  0  0  0  0  0
  194.9703  187.0058  161.1135 O   0  0  0  0  0  0  0  0  0  0  0  0
  196.0979  187.0590  158.9840 C   0  0  1  0  0  0  0  0  0  0  0  0
  195.0233  183.0500  158.7375 C   0  0  0  0  0  0  0  0  0  0  0  0
  195.5087  182.1494  157.7731 C   0  0  0  0  0  0  0  0  0  0  0  0
  196.7909  182.3266  157.2277 C   0  0  0  0  0  0  0  0  0  0  0  0
  197.5887  183.4051  157.6401 C   0  0  0  0  0  0  0  0  0  0  0  0
  199.4674  185.2311  158.7216 C   0  0  0  0  0  0  0  0  0  0  0  0
  200.3386  184.4504  159.5149 C   0  0  0  0  0  0  0  0  0  0  0  0
  201.6715  184.2381  159.1037 C   0  0  0  0  0  0  0  0  0  0  0  0
  202.1405  184.7934  157.8988 C   0  0  0  0  0  0  0  0  0  0  0  0
  201.2713  185.5606  157.0984 C   0  0  0  0  0  0  0  0  0  0  0  0
  199.9385  185.7558  157.4979 C   0  0  0  0  0  0  0  0  0  0  0  0
  199.0617  188.4706  156.9229 H   0  0  0  0  0  0  0  0  0  0  0  0
  197.6268  190.1945  160.6159 H   0  0  0  0  0  0  0  0  0  0  0  0
  199.3970  187.5840  159.5753 H   0  0  0  0  0  0  0  0  0  0  0  0
  197.9723  187.8925  160.5326 H   0  0  0  0  0  0  0  0  0  0  0  0
  197.9853  185.3826  160.2299 H   0  0  0  0  0  0  0  0  0  0  0  0
  194.6634  184.6078  160.8175 H   0  0  0  0  0  0  0  0  0  0  0  0
  195.8944  188.1292  159.0455 H   0  0  0  0  0  0  0  0  0  0  0  0
  195.5746  186.7435  158.0793 H   0  0  0  0  0  0  0  0  0  0  0  0
  194.0334  182.9026  159.1412 H   0  0  0  0  0  0  0  0  0  0  0  0
  194.8972  181.3234  157.4410 H   0  0  0  0  0  0  0  0  0  0  0  0
  197.1622  181.6302  156.4920 H   0  0  0  0  0  0  0  0  0  0  0  0
  198.5751  183.4786  157.1967 H   0  0  0  0  0  0  0  0  0  0  0  0
  199.9891  184.0067  160.4361 H   0  0  0  0  0  0  0  0  0  0  0  0
  202.3270  183.6302  159.7057 H   0  0  0  0  0  0  0  0  0  0  0  0
  203.1552  184.6229  157.5718 H   0  0  0  0  0  0  0  0  0  0  0  0
  201.6108  185.9823  156.1636 H   0  0  0  0  0  0  0  0  0  0  0  0
  199.2688  186.3144  156.8592 H   0  0  0  0  0  0  0  0  0  0  0  0
  1  2  1  0
  2  3  1  0
  2  8  2  0
  3  4  1  0
  3  5  2  0
  5  6  1  0
  5 29  1  0
  6  7  2  0
  6 10  1  0
  7  8  1  0
  7 30  1  0
  8  9  1  0
 10 11  1  0
 10 31  1  1
 10 32  1  0
 11 12  1  0
 11 18  1  0
 12 13  1  0
 12 23  1  0
 12 33  1  1
 13 14  1  0
 13 22  2  0
 14 15  1  0
 14 19  2  0
 15 16  1  0
 15 34  1  0
 16 17  2  0
 16 18  1  0
 18 35  1  1
 18 36  1  0
 19 20  1  0
 19 37  1  0
 20 21  2  0
 20 38  1  0
 21 22  1  0
 21 39  1  0
 22 40  1  0
 23 24  2  0
 23 28  1  0
 24 25  1  0
 24 41  1  0
 25 26  2  0
 25 42  1  0
 26 27  1  0
 26 43  1  0
 27 28  2  0
 27 44  1  0
 28 45  1  0
M  END
>  <s_epik_cmdline>  (666) 
J2VwaWtfcHl0aG9uJywgJy1waCcsICc3LjAwMDAwMCcsICctcGh0JywgJzIuMDAwMDAwJywgJy1tcycsICcxNicsICctdG4nLCAnOCcsICctbWEnLCAnMjAwJywgJy1pbWFlJywgJzxpbmZpbGUubWFlPicsICctb21hZScsICc8b3V0ZmlsZS5tYWU+Jw==

>  <s_epik_input>  (666) 
W2NIXTFbY0hdW2NIXVtjSF1bY0hdYzFbQ0BIXTJOKFtDSDJdYyhbY0hdYzNGKVtjSF1jKEYpYzNGKVtDSDJdQyg9TylbTkhdYyhjMjQpW2NIXVtjSF1bY0hdW2NIXTQ=

>  <s_i_glide_gridfile>  (666) 
ATP-Grid

>  <s_lp_Force_Field>  (666) 
OPLS_2005

>  <s_lp_Variant>  (666) 
m_270004bda____24170338____7548748-1

>  <s_lp_label>  (666) 
1276_sdstereoexpander_1_neutralizer_1_epik_1_stereoizer_1

>  <s_m_source_file>  (666) 
ATP-VSW-LIGPREP-002-in.maegz

>  <s_sd_BIOSOLVEIT.INFINISEE\_QUERY\_NAME>  (666) 
Ref-Lig

>  <s_sd_BIOSOLVEIT.INFINISEE\_QUERY\_SMILES>  (666) 
S(c1nc2c(cc1C[NH2+]Cc3ccc(cc3)C[NH+](C)C)cccc2)Cc4ccccc4

>  <s_sd_BIOSOLVEIT.INFINISEE\_REACTION\_NAME>  (666) 
m_270004bda

>  <s_sd_BIOSOLVEIT.INFINISEE\_REAGENT1\_SMILES>  (666) 
[R1*]N1C(c2c(NC(=O)C1)cccc2)c3ccccc3

>  <s_sd_BIOSOLVEIT.INFINISEE\_REAGENT2\_SMILES>  (666) 
[R1*]Cc1cc(F)c(F)c(F)c1

>  <s_sd_BIOSOLVEIT.INFINISEE\_SPACE>  (666) 
REALSpace_44bn_2023-08

>  <s_vsw_compound_code>  (666) 
40802

>  <s_vsw_variant>  (666) 
40802-1

>  <r_epik_Charging_Adjusted_Penalty>  (666) 
0.0087634984339075902

>  <r_epik_Ionization_Penalty>  (666) 
0.0088000000000000005

>  <r_epik_Ionization_Penalty_Charging>  (666) 
0

>  <r_epik_Ionization_Penalty_Neutral>  (666) 
0.0088000000000000005

>  <r_epik_State_Penalty>  (666) 
0.0088000000000000005

>  <r_i_docking_score>  (666) 
-1.5387416906426199

>  <r_i_glide_ecoul>  (666) 
-0.90038096904754605

>  <r_i_glide_eff_state_penalty>  (666) 
0.0088000000000000005

>  <r_i_glide_einternal>  (666) 
0.370830208063126

>  <r_i_glide_emodel>  (666) 
-33.744945451089997

>  <r_i_glide_energy>  (666) 
-30.950637698173502

>  <r_i_glide_erotb>  (666) 
0.398479659089227

>  <r_i_glide_esite>  (666) 
0

>  <r_i_glide_evdw>  (666) 
-30.050256729126001

>  <r_i_glide_gscore>  (666) 
-1.54754169064262

>  <r_i_glide_hbond>  (666) 
0

>  <r_i_glide_ligand_efficiency>  (666) 
-0.054955060380093498

>  <r_i_glide_ligand_efficiency_ln>  (666) 
-0.35518676161952201

>  <r_i_glide_ligand_efficiency_sa>  (666) 
-0.166875930113598

>  <r_i_glide_lipo>  (666) 
-0.92498222373081596

>  <r_i_glide_metal>  (666) 
-0

>  <r_i_glide_rewards>  (666) 
0.61653085581240197

>  <r_lp_Energy>  (666) 
37.862754000000002

>  <r_qp_ACxDN^.5/SA>  (666) 
0.0069303000000000003

>  <r_qp_CIQPlogS>  (666) 
-5.0899999999999999

>  <r_qp_EA(eV)>  (666) 
0.68500000000000005

>  <r_qp_FISA>  (666) 
58.232999999999997

>  <r_qp_FOSA>  (666) 
48.729999999999997

>  <r_qp_IP(eV)>  (666) 
9.1630000000000003

>  <r_qp_Jm>  (666) 
0.00123081667431069

>  <r_qp_PISA>  (666) 
411.95400000000001

>  <r_qp_PSA>  (666) 
41.317

>  <r_qp_PercentHumanOralAbsorption>  (666) 
100

>  <r_qp_QPPCaco>  (666) 
692.75400000000002

>  <r_qp_QPPMDCK>  (666) 
1906.7170000000001

>  <r_qp_QPlogBB>  (666) 
0.57899999999999996

>  <r_qp_QPlogHERG>  (666) 
-7.1950000000000003

>  <r_qp_QPlogKhsa>  (666) 
0.77600000000000002

>  <r_qp_QPlogKp>  (666) 
-3.012

>  <r_qp_QPlogPC16>  (666) 
11.566000000000001

>  <r_qp_QPlogPo/w>  (666) 
4.6459999999999999

>  <r_qp_QPlogPoct>  (666) 
19.437999999999999

>  <r_qp_QPlogPw>  (666) 
9.9819999999999993

>  <r_qp_QPlogS>  (666) 
-5.4800000000000004

>  <r_qp_QPpolrz>  (666) 
42.414000000000001

>  <r_qp_SASA>  (666) 
649.32399999999996

>  <r_qp_SAamideO>  (666) 
0

>  <r_qp_SAfluorine>  (666) 
130.40700000000001

>  <r_qp_WPSA>  (666) 
130.40700000000001

>  <r_qp_accptHB>  (666) 
4.5

>  <r_qp_dip^2/V>  (666) 
0.067664299999999997

>  <r_qp_dipole>  (666) 
8.8109999999999999

>  <r_qp_donorHB>  (666) 
1

>  <r_qp_glob>  (666) 
0.81628389999999995

>  <r_qp_mol_MW>  (666) 
382.38400000000001

>  <r_qp_volume>  (666) 
1147.3779999999999

>  <r_sd_BIOSOLVEIT.INFINISEE\_FTREES\_SIMILARITY>  (666) 
0.91000000000000003

>  <r_sd_BIOSOLVEIT.LOGP>  (666) 
3.2305000000000001

>  <r_sd_BIOSOLVEIT.MOLECULAR\_WEIGHT>  (666) 
383.39100000000002

>  <r_sd_BIOSOLVEIT.TPSA>  (666) 
33.539999999999999

>  <i_epik_Tot_Q>  (666) 
0

>  <i_epik_Tot_abs_Q>  (666) 
0

>  <i_f3d_flags>  (666) 
0

>  <i_i_glide_confnum>  (666) 
2

>  <i_i_glide_lignum>  (666) 
447

>  <i_i_glide_posenum>  (666) 
17

>  <i_i_glide_rotatable_bonds>  (666) 
3

>  <i_lp_mmshare_version>  (666) 
65135

>  <i_m_ct_format>  (666) 
2

>  <i_m_source_file_index>  (666) 
1276

>  <i_qp_#NandO>  (666) 
3

>  <i_qp_#acid>  (666) 
0

>  <i_qp_#amide>  (666) 
0

>  <i_qp_#amidine>  (666) 
0

>  <i_qp_#amine>  (666) 
1

>  <i_qp_#in34>  (666) 
0

>  <i_qp_#in56>  (666) 
18

>  <i_qp_#metab>  (666) 
7

>  <i_qp_#nonHatm>  (666) 
28

>  <i_qp_#noncon>  (666) 
2

>  <i_qp_#ringatoms>  (666) 
23

>  <i_qp_#rotor>  (666) 
2

>  <i_qp_#rtvFG>  (666) 
0

>  <i_qp_#stars>  (666) 
0

>  <i_qp_CNS>  (666) 
2

>  <i_qp_HumanOralAbsorption>  (666) 
3

>  <i_qp_RuleOfFive>  (666) 
0

>  <i_qp_RuleOfThree>  (666) 
1

>  <i_sd_BIOSOLVEIT.INFINISEE\_REAGENT1\_NAME>  (666) 
24170338

>  <i_sd_BIOSOLVEIT.INFINISEE\_REAGENT2\_NAME>  (666) 
7548748

>  <i_sd_BIOSOLVEIT.INFINISEE\_RESULT\_RANK>  (666) 
45211

>  <i_sd_version>  (666) 
0

>  <b_lp_Chiralities_Consistent>  (666) 
1

>  <b_sd_chiral_flag>  (666) 
0

>  <canonical_id>  (666) 
ATP-HTVS-677D6479829E

>  <compound_code>  (666) 
40802

>  <title>  (666) 
m_270004bda____24170338____7548748

>  <variant>  (666) 
40802-1

>  <source_file>  (666) 
运行/运行/ATP-VSW/ATP-VSW-DOCK_HTVS_1-002_lib.maegz

>  <canonical_smiles>  (666) 
O=C1CN(Cc2cc(F)c(F)c(F)c2)[C@H](c2ccccc2)c2ccccc2N1

>  <scaffold>  (666) 
O=C1CN(Cc2ccccc2)C(c2ccccc2)c2ccccc2N1

>  <molecular_formula>  (666) 
C22H17F3N2O

$$$$
ATP-HTVS-67830652660F
     RDKit          3D

 57 60  0  0  0  0  0  0  0  0999 V2000
  200.5531  174.4821  151.6656 S   0  0  0  0  0  0  0  0  0  0  0  0
  201.3495  174.2850  153.2124 C   0  0  0  0  0  0  0  0  0  0  0  0
  201.2188  175.4656  154.0226 C   0  0  0  0  0  0  0  0  0  0  0  0
  201.8457  175.3958  155.2992 C   0  0  0  0  0  0  0  0  0  0  0  0
  202.5475  174.2550  155.7349 C   0  0  0  0  0  0  0  0  0  0  0  0
  202.6427  173.1207  154.9159 C   0  0  0  0  0  0  0  0  0  0  0  0
  202.0401  173.1369  153.6490 C   0  0  0  0  0  0  0  0  0  0  0  0
  200.4485  176.5063  153.3298 C   0  0  0  0  0  0  0  0  0  0  0  0
  200.1532  177.7835  153.8665 N   0  0  0  0  0  0  0  0  0  0  0  0
  200.0996  178.0981  155.2845 C   0  0  1  0  0  0  0  0  0  0  0  0
  199.6128  179.4984  155.5817 C   0  0  0  0  0  0  0  0  0  0  0  0
  200.5308  180.4900  155.9742 C   0  0  0  0  0  0  0  0  0  0  0  0
  200.0873  181.7956  156.2622 C   0  0  0  0  0  0  0  0  0  0  0  0
  198.7150  182.1130  156.1582 C   0  0  0  0  0  0  0  0  0  0  0  0
  197.7931  181.1065  155.7892 C   0  0  0  0  0  0  0  0  0  0  0  0
  198.2412  179.8096  155.4833 C   0  0  0  0  0  0  0  0  0  0  0  0
  198.2179  183.5255  156.4229 C   0  0  1  0  0  0  0  0  0  0  0  0
  198.1799  184.3629  155.1916 N   0  0  2  0  0  0  0  0  0  0  0  0
  197.7567  185.7503  155.4796 C   0  0  2  0  0  0  0  0  0  0  0  0
  197.3833  183.7792  154.0815 C   0  0  2  0  0  0  0  0  0  0  0  0
  200.0643  176.1068  152.0627 C   0  0  0  0  0  0  0  0  0  0  0  0
  199.2804  176.8268  151.0195 C   0  0  0  0  0  0  0  0  0  0  0  0
  198.4928  177.7143  151.3462 O   0  0  0  0  0  0  0  0  0  0  0  0
  199.5535  176.5136  149.7362 N   0  0  0  0  0  0  0  0  0  0  0  0
  199.0104  177.0837  148.5405 C   0  0  0  0  0  0  0  0  0  0  0  0
  199.7503  177.0085  147.3282 C   0  0  0  0  0  0  0  0  0  0  0  0
  201.0639  176.3747  147.2637 C   0  0  0  0  0  0  0  0  0  0  0  0
  202.1080  175.8780  147.2137 N   0  0  0  0  0  0  0  0  0  0  0  0
  199.2162  177.5474  146.1359 C   0  0  0  0  0  0  0  0  0  0  0  0
  197.9514  178.1607  146.1321 C   0  0  0  0  0  0  0  0  0  0  0  0
  197.2205  178.2509  147.3293 C   0  0  0  0  0  0  0  0  0  0  0  0
  197.7366  177.7067  148.5188 C   0  0  0  0  0  0  0  0  0  0  0  0
  201.8112  176.2249  155.9853 H   0  0  0  0  0  0  0  0  0  0  0  0
  203.0091  174.2530  156.7139 H   0  0  0  0  0  0  0  0  0  0  0  0
  203.1666  172.2340  155.2425 H   0  0  0  0  0  0  0  0  0  0  0  0
  202.1160  172.2636  153.0147 H   0  0  0  0  0  0  0  0  0  0  0  0
  199.5789  178.3808  153.2857 H   0  0  0  0  0  0  0  0  0  0  0  0
  199.4624  177.3808  155.8055 H   0  0  0  0  0  0  0  0  0  0  0  0
  201.0955  178.0439  155.7084 H   0  0  0  0  0  0  0  0  0  0  0  0
  201.5813  180.2484  156.0510 H   0  0  0  0  0  0  0  0  0  0  0  0
  200.8144  182.5439  156.5487 H   0  0  0  0  0  0  0  0  0  0  0  0
  196.7380  181.3270  155.7219 H   0  0  0  0  0  0  0  0  0  0  0  0
  197.5312  179.0524  155.1831 H   0  0  0  0  0  0  0  0  0  0  0  0
  197.2295  183.4852  156.8836 H   0  0  0  0  0  0  0  0  0  0  0  0
  198.8761  183.9917  157.1614 H   0  0  0  0  0  0  0  0  0  0  0  0
  196.7490  185.7782  155.8986 H   0  0  0  0  0  0  0  0  0  0  0  0
  197.7517  186.3478  154.5668 H   0  0  0  0  0  0  0  0  0  0  0  0
  198.4359  186.2334  156.1841 H   0  0  0  0  0  0  0  0  0  0  0  0
  196.3512  183.6415  154.3987 H   0  0  0  0  0  0  0  0  0  0  0  0
  197.7714  182.8118  153.7522 H   0  0  0  0  0  0  0  0  0  0  0  0
  197.3842  184.4320  153.2069 H   0  0  0  0  0  0  0  0  0  0  0  0
  200.3077  175.8541  149.6082 H   0  0  0  0  0  0  0  0  0  0  0  0
  199.7559  177.4619  145.2012 H   0  0  0  0  0  0  0  0  0  0  0  0
  197.5385  178.5473  145.2099 H   0  0  0  0  0  0  0  0  0  0  0  0
  196.2417  178.7059  147.3341 H   0  0  0  0  0  0  0  0  0  0  0  0
  197.1284  177.7880  149.4057 H   0  0  0  0  0  0  0  0  0  0  0  0
  199.1326  184.4085  154.8598 H   0  0  0  0  0  0  0  0  0  0  0  0
  1  2  1  0
  1 21  1  0
  2  3  1  0
  2  7  2  0
  3  4  2  0
  3  8  1  0
  4  5  1  0
  4 33  1  0
  5  6  2  0
  5 34  1  0
  6  7  1  0
  6 35  1  0
  7 36  1  0
  8  9  1  0
  8 21  2  0
  9 10  1  0
  9 37  1  0
 10 11  1  0
 10 38  1  1
 10 39  1  0
 11 12  1  0
 11 16  2  0
 12 13  2  0
 12 40  1  0
 13 14  1  0
 13 41  1  0
 14 15  2  0
 14 17  1  0
 15 16  1  0
 15 42  1  0
 16 43  1  0
 17 18  1  0
 17 44  1  1
 17 45  1  0
 18 19  1  0
 18 20  1  0
 18 57  1  6
 19 46  1  1
 19 47  1  0
 19 48  1  0
 20 49  1  1
 20 50  1  0
 20 51  1  0
 21 22  1  0
 22 23  2  0
 22 24  1  0
 24 25  1  0
 24 52  1  0
 25 26  1  0
 25 32  2  0
 26 27  1  0
 26 29  2  0
 27 28  3  0
 29 30  1  0
 29 53  1  0
 30 31  2  0
 30 54  1  0
 31 32  1  0
 31 55  1  0
 32 56  1  0
M  CHG  1  18   1
M  END
>  <s_epik_cmdline>  (667) 
J2VwaWtfcHl0aG9uJywgJy1waCcsICc3LjAwMDAwMCcsICctcGh0JywgJzIuMDAwMDAwJywgJy1tcycsICcxNicsICctdG4nLCAnOCcsICctbWEnLCAnMjAwJywgJy1pbWFlJywgJzxpbmZpbGUubWFlPicsICctb21hZScsICc8b3V0ZmlsZS5tYWU+Jw==

>  <s_epik_input>  (667) 
W2NIXTFbY0hdW2NIXVtjSF1jKEMjTiljMVtOSF1DKD1PKWMoczIpYyhjKGMyMylbY0hdW2NIXVtjSF1bY0hdMylbTkhdW0NIMl1jNFtjSF1bY0hdYyhbY0hdW2NIXTQpW0NIMl1OKFtDSDNdKVtDSDNd

>  <s_i_glide_gridfile>  (667) 
ATP-Grid

>  <s_lp_Force_Field>  (667) 
OPLS_2005

>  <s_lp_Variant>  (667) 
rxn512c____EMOL476547____EMOL523944____EMOL50155899-1

>  <s_lp_label>  (667) 
2397_sdstereoexpander_1_neutralizer_1_epik_1_stereoizer_1

>  <s_m_source_file>  (667) 
ATP-VSW-LIGPREP-002-in.maegz

>  <s_sd_BIOSOLVEIT.INFINISEE\_QUERY\_NAME>  (667) 
Ref-Lig

>  <s_sd_BIOSOLVEIT.INFINISEE\_QUERY\_SMILES>  (667) 
S(c1nc2c(cc1C[NH2+]Cc3ccc(cc3)C[NH+](C)C)cccc2)Cc4ccccc4

>  <s_sd_BIOSOLVEIT.INFINISEE\_REACTION\_NAME>  (667) 
rxn512c

>  <s_sd_BIOSOLVEIT.INFINISEE\_REAGENT1\_NAME>  (667) 
EMOL476547

>  <s_sd_BIOSOLVEIT.INFINISEE\_REAGENT1\_SMILES>  (667) 
N#Cc1c(N)cccc1

>  <s_sd_BIOSOLVEIT.INFINISEE\_REAGENT2\_NAME>  (667) 
EMOL523944

>  <s_sd_BIOSOLVEIT.INFINISEE\_REAGENT2\_SMILES>  (667) 
ClC=1c2c(SC1C(=O)O)cccc2

>  <s_sd_BIOSOLVEIT.INFINISEE\_REAGENT3\_NAME>  (667) 
EMOL50155899

>  <s_sd_BIOSOLVEIT.INFINISEE\_REAGENT3\_SMILES>  (667) 
N(Cc1ccc(cc1)CN)(C)C

>  <s_sd_BIOSOLVEIT.INFINISEE\_SPACE>  (667) 
eXplore_7tr_2022-12

>  <s_vsw_compound_code>  (667) 
76674

>  <s_vsw_variant>  (667) 
76674-1

>  <r_epik_Charging_Adjusted_Penalty>  (667) 
0.080189274810459593

>  <r_epik_Ionization_Penalty>  (667) 
0.0402

>  <r_epik_Ionization_Penalty_Charging>  (667) 
0.040099999999999997

>  <r_epik_Ionization_Penalty_Neutral>  (667) 
0.0001

>  <r_epik_State_Penalty>  (667) 
0.040099999999999997

>  <r_i_docking_score>  (667) 
-3.5447532294502699

>  <r_i_glide_ecoul>  (667) 
-5.2426376342773402

>  <r_i_glide_eff_state_penalty>  (667) 
0.040099999999999997

>  <r_i_glide_einternal>  (667) 
3.6748509407043501

>  <r_i_glide_emodel>  (667) 
-48.844792860205601

>  <r_i_glide_energy>  (667) 
-39.604812622070298

>  <r_i_glide_erotb>  (667) 
0.71715318169643705

>  <r_i_glide_esite>  (667) 
-0.000156950580825992

>  <r_i_glide_evdw>  (667) 
-34.362174987792997

>  <r_i_glide_gscore>  (667) 
-3.5848532294502702

>  <r_i_glide_hbond>  (667) 
0

>  <r_i_glide_ligand_efficiency>  (667) 
-0.110773538420321

>  <r_i_glide_ligand_efficiency_ln>  (667) 
-0.793766874397552

>  <r_i_glide_ligand_efficiency_sa>  (667) 
-0.35168406243103301

>  <r_i_glide_lipo>  (667) 
-1.24084708779023

>  <r_i_glide_metal>  (667) 
-0

>  <r_i_glide_rewards>  (667) 
-0.55649797824440195

>  <r_lp_Energy>  (667) 
39.296033000000001

>  <r_qp_ACxDN^.5/SA>  (667) 
0.0074396000000000002

>  <r_qp_CIQPlogS>  (667) 
-5.9370000000000003

>  <r_qp_EA(eV)>  (667) 
0.872

>  <r_qp_FISA>  (667) 
104.09699999999999

>  <r_qp_FOSA>  (667) 
203.23400000000001

>  <r_qp_IP(eV)>  (667) 
8.1180000000000003

>  <r_qp_Jm>  (667) 
2.7412701107105401e-06

>  <r_qp_PISA>  (667) 
472.512

>  <r_qp_PSA>  (667) 
75.837000000000003

>  <r_qp_PercentHumanOralAbsorption>  (667) 
86.313000000000002

>  <r_qp_QPPCaco>  (667) 
63.466000000000001

>  <r_qp_QPPMDCK>  (667) 
43.030999999999999

>  <r_qp_QPlogBB>  (667) 
-0.251

>  <r_qp_QPlogHERG>  (667) 
-9.0890000000000004

>  <r_qp_QPlogKhsa>  (667) 
0.96999999999999997

>  <r_qp_QPlogKp>  (667) 
-5.1310000000000002

>  <r_qp_QPlogPC16>  (667) 
16.251999999999999

>  <r_qp_QPlogPo/w>  (667) 
4.6289999999999996

>  <r_qp_QPlogPoct>  (667) 
21.920000000000002

>  <r_qp_QPlogPw>  (667) 
11.201000000000001

>  <r_qp_QPlogS>  (667) 
-6.0750000000000002

>  <r_qp_QPpolrz>  (667) 
50.549999999999997

>  <r_qp_SASA>  (667) 
806.49099999999999

>  <r_qp_SAamideO>  (667) 
0

>  <r_qp_SAfluorine>  (667) 
0

>  <r_qp_WPSA>  (667) 
26.648

>  <r_qp_accptHB>  (667) 
6

>  <r_qp_dip^2/V>  (667) 
0.022373400000000002

>  <r_qp_dipole>  (667) 
5.6609999999999996

>  <r_qp_donorHB>  (667) 
1

>  <r_qp_glob>  (667) 
0.76200509999999999

>  <r_qp_mol_MW>  (667) 
440.56200000000001

>  <r_qp_volume>  (667) 
1432.481

>  <r_sd_BIOSOLVEIT.INFINISEE\_FTREES\_SIMILARITY>  (667) 
0.91800000000000004

>  <r_sd_BIOSOLVEIT.LOGP>  (667) 
4.2818800000000001

>  <r_sd_BIOSOLVEIT.MOLECULAR\_WEIGHT>  (667) 
441.57600000000002

>  <r_sd_BIOSOLVEIT.TPSA>  (667) 
69.359999999999999

>  <i_epik_Tot_Q>  (667) 
1

>  <i_epik_Tot_abs_Q>  (667) 
1

>  <i_f3d_flags>  (667) 
0

>  <i_i_glide_confnum>  (667) 
6

>  <i_i_glide_lignum>  (667) 
1001

>  <i_i_glide_posenum>  (667) 
7

>  <i_i_glide_rotatable_bonds>  (667) 
8

>  <i_lp_mmshare_version>  (667) 
65135

>  <i_m_ct_format>  (667) 
2

>  <i_m_source_file_index>  (667) 
2397

>  <i_qp_#NandO>  (667) 
5

>  <i_qp_#acid>  (667) 
0

>  <i_qp_#amide>  (667) 
0

>  <i_qp_#amidine>  (667) 
0

>  <i_qp_#amine>  (667) 
2

>  <i_qp_#in34>  (667) 
0

>  <i_qp_#in56>  (667) 
21

>  <i_qp_#metab>  (667) 
6

>  <i_qp_#nonHatm>  (667) 
32

>  <i_qp_#noncon>  (667) 
0

>  <i_qp_#ringatoms>  (667) 
21

>  <i_qp_#rotor>  (667) 
8

>  <i_qp_#rtvFG>  (667) 
0

>  <i_qp_#stars>  (667) 
1

>  <i_qp_CNS>  (667) 
1

>  <i_qp_HumanOralAbsorption>  (667) 
3

>  <i_qp_RuleOfFive>  (667) 
0

>  <i_qp_RuleOfThree>  (667) 
1

>  <i_sd_BIOSOLVEIT.INFINISEE\_RESULT\_RANK>  (667) 
20185

>  <i_sd_version>  (667) 
0

>  <b_lp_Chiralities_Consistent>  (667) 
1

>  <b_sd_chiral_flag>  (667) 
0

>  <canonical_id>  (667) 
ATP-HTVS-67830652660F

>  <compound_code>  (667) 
76674

>  <title>  (667) 
rxn512c____EMOL476547____EMOL523944____EMOL50155899

>  <variant>  (667) 
76674-1

>  <source_file>  (667) 
运行/运行/ATP-VSW/ATP-VSW-DOCK_HTVS_1-002_lib.maegz

>  <canonical_smiles>  (667) 
C[NH+](C)Cc1ccc(CNc2c(C(=O)Nc3ccccc3C#N)sc3ccccc23)cc1

>  <scaffold>  (667) 
O=C(Nc1ccccc1)c1sc2ccccc2c1NCc1ccccc1

>  <molecular_formula>  (667) 
C26H25N4OS+

$$$$
ATP-HTVS-67B30DFDD52C
     RDKit          3D

 67 70  0  0  0  0  0  0  0  0999 V2000
  196.8897  186.6447  158.5865 S   0  0  1  0  0  0  0  0  0  0  0  0
  196.3189  187.2780  157.3929 O   0  0  0  0  0  0  0  0  0  0  0  0
  198.3215  186.7815  158.8970 O   0  0  0  0  0  0  0  0  0  0  0  0
  196.0654  187.2760  159.9519 N   0  0  0  0  0  0  0  0  0  0  0  0
  196.4008  184.8977  158.6099 C   0  0  0  0  0  0  0  0  0  0  0  0
  197.2825  183.8155  158.3164 C   0  0  0  0  0  0  0  0  0  0  0  0
  196.7725  182.4958  158.4353 C   0  0  0  0  0  0  0  0  0  0  0  0
  195.4335  182.2427  158.7477 C   0  0  0  0  0  0  0  0  0  0  0  0
  194.5632  183.3119  158.9935 C   0  0  0  0  0  0  0  0  0  0  0  0
  195.0511  184.6312  158.9456 C   0  0  0  0  0  0  0  0  0  0  0  0
  198.7282  184.0593  157.8606 C   0  0  1  0  0  0  0  0  0  0  0  0
  199.5717  182.8972  157.5289 N   0  0  0  0  0  0  0  0  0  0  0  0
  199.2720  182.0159  156.4692 C   0  0  0  0  0  0  0  0  0  0  0  0
  200.0157  180.9006  156.2862 N   0  0  0  0  0  0  0  0  0  0  0  0
  199.6810  180.0185  155.3249 C   0  0  0  0  0  0  0  0  0  0  0  0
  200.5443  178.9121  155.1754 N   0  0  0  0  0  0  0  0  0  0  0  0
  199.9609  177.5602  155.1777 C   0  0  1  0  0  0  0  0  0  0  0  0
  200.9862  176.4640  155.2410 C   0  0  0  0  0  0  0  0  0  0  0  0
  201.3648  175.7728  154.0662 C   0  0  0  0  0  0  0  0  0  0  0  0
  202.2721  174.6924  154.1268 C   0  0  0  0  0  0  0  0  0  0  0  0
  202.8035  174.3231  155.3762 C   0  0  0  0  0  0  0  0  0  0  0  0
  202.4261  175.0185  156.5374 C   0  0  0  0  0  0  0  0  0  0  0  0
  201.5222  176.0967  156.4803 C   0  0  0  0  0  0  0  0  0  0  0  0
  202.6502  173.9103  152.8717 C   0  0  1  0  0  0  0  0  0  0  0  0
  201.9465  172.6063  152.7763 N   0  0  2  0  0  0  0  0  0  0  0  0
  202.3928  171.8175  151.6058 C   0  0  2  0  0  0  0  0  0  0  0  0
  200.4722  172.7377  152.8089 C   0  0  2  0  0  0  0  0  0  0  0  0
  198.5897  180.2577  154.4727 C   0  0  0  0  0  0  0  0  0  0  0  0
  197.8343  181.4438  154.7215 C   0  0  0  0  0  0  0  0  0  0  0  0
  198.2212  182.2817  155.6999 N   0  0  0  0  0  0  0  0  0  0  0  0
  196.7284  181.7754  153.9102 C   0  0  0  0  0  0  0  0  0  0  0  0
  196.3450  180.9362  152.8413 C   0  0  0  0  0  0  0  0  0  0  0  0
  197.1045  179.7781  152.5816 C   0  0  0  0  0  0  0  0  0  0  0  0
  198.2330  179.4669  153.3513 C   0  0  0  0  0  0  0  0  0  0  0  0
  200.7722  182.7134  158.3436 C   0  0  2  0  0  0  0  0  0  0  0  0
  196.1308  188.2936  159.9438 H   0  0  0  0  0  0  0  0  0  0  0  0
  196.4934  186.9307  160.8085 H   0  0  0  0  0  0  0  0  0  0  0  0
  197.3727  181.6140  158.2633 H   0  0  0  0  0  0  0  0  0  0  0  0
  195.0930  181.2150  158.7758 H   0  0  0  0  0  0  0  0  0  0  0  0
  193.5281  183.1077  159.2292 H   0  0  0  0  0  0  0  0  0  0  0  0
  194.3693  185.4391  159.1572 H   0  0  0  0  0  0  0  0  0  0  0  0
  198.7112  184.7382  157.0041 H   0  0  0  0  0  0  0  0  0  0  0  0
  199.2385  184.5863  158.6609 H   0  0  0  0  0  0  0  0  0  0  0  0
  201.4082  178.9986  155.6788 H   0  0  0  0  0  0  0  0  0  0  0  0
  199.2108  177.4548  155.9748 H   0  0  0  0  0  0  0  0  0  0  0  0
  199.4741  177.3035  154.2460 H   0  0  0  0  0  0  0  0  0  0  0  0
  200.9217  176.0368  153.1182 H   0  0  0  0  0  0  0  0  0  0  0  0
  203.4980  173.4940  155.4615 H   0  0  0  0  0  0  0  0  0  0  0  0
  202.8321  174.7226  157.4964 H   0  0  0  0  0  0  0  0  0  0  0  0
  201.2172  176.6244  157.3692 H   0  0  0  0  0  0  0  0  0  0  0  0
  202.4351  174.5060  151.9818 H   0  0  0  0  0  0  0  0  0  0  0  0
  203.7285  173.7504  152.8845 H   0  0  0  0  0  0  0  0  0  0  0  0
  202.1847  172.3400  150.6705 H   0  0  0  0  0  0  0  0  0  0  0  0
  201.8795  170.8568  151.5777 H   0  0  0  0  0  0  0  0  0  0  0  0
  203.4614  171.6107  151.6601 H   0  0  0  0  0  0  0  0  0  0  0  0
  200.1139  173.3377  151.9684 H   0  0  0  0  0  0  0  0  0  0  0  0
  200.1265  173.1969  153.7340 H   0  0  0  0  0  0  0  0  0  0  0  0
  199.9913  171.7652  152.7592 H   0  0  0  0  0  0  0  0  0  0  0  0
  196.1401  182.6766  154.0896 H   0  0  0  0  0  0  0  0  0  0  0  0
  195.5190  181.1789  152.2007 H   0  0  0  0  0  0  0  0  0  0  0  0
  196.8484  179.1184  151.7683 H   0  0  0  0  0  0  0  0  0  0  0  0
  198.8365  178.6450  152.9963 H   0  0  0  0  0  0  0  0  0  0  0  0
  200.7632  181.7432  158.8363 H   0  0  0  0  0  0  0  0  0  0  0  0
  200.8783  183.4690  159.1246 H   0  0  0  0  0  0  0  0  0  0  0  0
  201.6527  182.7739  157.7064 H   0  0  0  0  0  0  0  0  0  0  0  0
  197.6528  183.1173  155.8709 H   0  0  0  0  0  0  0  0  0  0  0  0
  202.2282  172.0416  153.5758 H   0  0  0  0  0  0  0  0  0  0  0  0
  1  2  2  0
  1  3  2  0
  1  4  1  1
  1  5  1  0
  4 36  1  0
  4 37  1  0
  5  6  1  0
  5 10  2  0
  6  7  2  0
  6 11  1  0
  7  8  1  0
  7 38  1  0
  8  9  2  0
  8 39  1  0
  9 10  1  0
  9 40  1  0
 10 41  1  0
 11 12  1  0
 11 42  1  6
 11 43  1  0
 12 13  1  0
 12 35  1  0
 13 14  1  0
 13 30  2  0
 14 15  2  0
 15 16  1  0
 15 28  1  0
 16 17  1  0
 16 44  1  0
 17 18  1  0
 17 45  1  1
 17 46  1  0
 18 19  2  0
 18 23  1  0
 19 20  1  0
 19 47  1  0
 20 21  2  0
 20 24  1  0
 21 22  1  0
 21 48  1  0
 22 23  2  0
 22 49  1  0
 23 50  1  0
 24 25  1  0
 24 51  1  6
 24 52  1  0
 25 26  1  0
 25 27  1  0
 25 67  1  1
 26 53  1  6
 26 54  1  0
 26 55  1  0
 27 56  1  6
 27 57  1  0
 27 58  1  0
 28 29  1  0
 28 34  2  0
 29 30  1  0
 29 31  2  0
 30 66  1  0
 31 32  1  0
 31 59  1  0
 32 33  2  0
 32 60  1  0
 33 34  1  0
 33 61  1  0
 34 62  1  0
 35 63  1  1
 35 64  1  0
 35 65  1  0
M  CHG  2  25   1  30   1
M  END
>  <s_epik_cmdline>  (668) 
J2VwaWtfcHl0aG9uJywgJy1waCcsICc3LjAwMDAwMCcsICctcGh0JywgJzIuMDAwMDAwJywgJy1tcycsICcxNicsICctdG4nLCAnOCcsICctbWEnLCAnMjAwJywgJy1pbWFlJywgJzxpbmZpbGUubWFlPicsICctb21hZScsICc8b3V0ZmlsZS5tYWU+Jw==

>  <s_epik_input>  (668) 
W2NIXTFbY0hdW2NIXVtjSF1jKGMxUyg9TykoPU8pW05IMl0pW0NIMl1OKFtDSDNdKWMobmMoYzIzKVtjSF1bY0hdW2NIXVtjSF0zKW5jMltOSF1bQ0gyXWM0W2NIXWMoW2NIXVtjSF1bY0hdNClbQ0gyXU4oW0NIM10pW0NIM10=

>  <s_i_glide_gridfile>  (668) 
ATP-Grid

>  <s_lp_Force_Field>  (668) 
OPLS_2005

>  <s_lp_Variant>  (668) 
m_282030aaa____21909402____22360182____21940090-1

>  <s_lp_label>  (668) 
887_sdstereoexpander_1_neutralizer_1_epik_1_stereoizer_1

>  <s_m_source_file>  (668) 
ATP-VSW-LIGPREP-003-in.maegz

>  <s_sd_BIOSOLVEIT.INFINISEE\_QUERY\_NAME>  (668) 
Ref-Lig

>  <s_sd_BIOSOLVEIT.INFINISEE\_QUERY\_SMILES>  (668) 
S(c1nc2c(cc1C[NH2+]Cc3ccc(cc3)C[NH+](C)C)cccc2)Cc4ccccc4

>  <s_sd_BIOSOLVEIT.INFINISEE\_REACTION\_NAME>  (668) 
m_282030aaa

>  <s_sd_BIOSOLVEIT.INFINISEE\_REAGENT1\_SMILES>  (668) 
[R1*]N(Cc1c(S(=O)(=O)N)cccc1)C

>  <s_sd_BIOSOLVEIT.INFINISEE\_REAGENT2\_SMILES>  (668) 
[R2*]c1nc([R1*])c2c(n1)cccc2

>  <s_sd_BIOSOLVEIT.INFINISEE\_REAGENT3\_SMILES>  (668) 
[R2*]NCc1cc(ccc1)CN(C)C

>  <s_sd_BIOSOLVEIT.INFINISEE\_SPACE>  (668) 
REALSpace_44bn_2023-08

>  <s_vsw_compound_code>  (668) 
28355

>  <s_vsw_variant>  (668) 
28355-1

>  <r_epik_Charging_Adjusted_Penalty>  (668) 
0.101941801915548

>  <r_epik_Ionization_Penalty>  (668) 
0.051400000000000001

>  <r_epik_Ionization_Penalty_Charging>  (668) 
0.051200000000000002

>  <r_epik_Ionization_Penalty_Neutral>  (668) 
0.00020000000000000001

>  <r_epik_State_Penalty>  (668) 
0.050700000000000002

>  <r_i_docking_score>  (668) 
-4.5946058672419197

>  <r_i_glide_ecoul>  (668) 
-7.5584583282470703

>  <r_i_glide_eff_state_penalty>  (668) 
0.050700000000000002

>  <r_i_glide_einternal>  (668) 
8.22039699554443

>  <r_i_glide_emodel>  (668) 
-63.257704429594497

>  <r_i_glide_energy>  (668) 
-47.239805221557603

>  <r_i_glide_erotb>  (668) 
0.58741885616192202

>  <r_i_glide_esite>  (668) 
-0.097617995736169999

>  <r_i_glide_evdw>  (668) 
-39.681346893310497

>  <r_i_glide_gscore>  (668) 
-4.6453058672419196

>  <r_i_glide_hbond>  (668) 
-0.094906177685193105

>  <r_i_glide_ligand_efficiency>  (668) 
-0.131274453349769

>  <r_i_glide_ligand_efficiency_ln>  (668) 
-1.00861795964273

>  <r_i_glide_ligand_efficiency_sa>  (668) 
-0.42940744123195601

>  <r_i_glide_lipo>  (668) 
-1.41709484036877

>  <r_i_glide_metal>  (668) 
-0

>  <r_i_glide_rewards>  (668) 
-0.50526961571112305

>  <r_lp_Energy>  (668) 
25.769555

>  <r_lp_tautomer_probability>  (668) 
0.99350799999861505

>  <r_qp_ACxDN^.5/SA>  (668) 
0.020824800000000001

>  <r_qp_CIQPlogS>  (668) 
-5.5609999999999999

>  <r_qp_EA(eV)>  (668) 
0.69499999999999995

>  <r_qp_FISA>  (668) 
122.408

>  <r_qp_FOSA>  (668) 
272.673

>  <r_qp_IP(eV)>  (668) 
8.093

>  <r_qp_Jm>  (668) 
0.0089204588982587305

>  <r_qp_PISA>  (668) 
393.971

>  <r_qp_PSA>  (668) 
92.632999999999996

>  <r_qp_PercentHumanOralAbsorption>  (668) 
87.346000000000004

>  <r_qp_QPPCaco>  (668) 
170.61000000000001

>  <r_qp_QPPMDCK>  (668) 
82.049000000000007

>  <r_qp_QPlogBB>  (668) 
-0.92000000000000004

>  <r_qp_QPlogHERG>  (668) 
-7.4089999999999998

>  <r_qp_QPlogKhsa>  (668) 
0.32100000000000001

>  <r_qp_QPlogKp>  (668) 
-3.4900000000000002

>  <r_qp_QPlogPC16>  (668) 
16.405000000000001

>  <r_qp_QPlogPo/w>  (668) 
3.4929999999999999

>  <r_qp_QPlogPoct>  (668) 
27.024999999999999

>  <r_qp_QPlogPw>  (668) 
16.678999999999998

>  <r_qp_QPlogS>  (668) 
-4.25

>  <r_qp_QPpolrz>  (668) 
50.744999999999997

>  <r_qp_SASA>  (668) 
790.13900000000001

>  <r_qp_SAamideO>  (668) 
0

>  <r_qp_SAfluorine>  (668) 
0

>  <r_qp_WPSA>  (668) 
1.0880000000000001

>  <r_qp_accptHB>  (668) 
9.5

>  <r_qp_dip^2/V>  (668) 
0.041887399999999998

>  <r_qp_dipole>  (668) 
7.8949999999999996

>  <r_qp_donorHB>  (668) 
3

>  <r_qp_glob>  (668) 
0.79781360000000001

>  <r_qp_mol_MW>  (668) 
490.62200000000001

>  <r_qp_volume>  (668) 
1488.1949999999999

>  <r_sd_BIOSOLVEIT.INFINISEE\_FTREES\_SIMILARITY>  (668) 
0.91900000000000004

>  <r_sd_BIOSOLVEIT.LOGP>  (668) 
2.8208000000000002

>  <r_sd_BIOSOLVEIT.MOLECULAR\_WEIGHT>  (668) 
491.63600000000002

>  <r_sd_BIOSOLVEIT.TPSA>  (668) 
105.65000000000001

>  <i_epik_Tot_Q>  (668) 
2

>  <i_epik_Tot_abs_Q>  (668) 
2

>  <i_f3d_flags>  (668) 
0

>  <i_i_glide_confnum>  (668) 
3

>  <i_i_glide_lignum>  (668) 
351

>  <i_i_glide_posenum>  (668) 
15

>  <i_i_glide_rotatable_bonds>  (668) 
9

>  <i_lp_mmshare_version>  (668) 
65135

>  <i_m_ct_format>  (668) 
2

>  <i_m_source_file_index>  (668) 
887

>  <i_qp_#NandO>  (668) 
8

>  <i_qp_#acid>  (668) 
0

>  <i_qp_#amide>  (668) 
0

>  <i_qp_#amidine>  (668) 
0

>  <i_qp_#amine>  (668) 
1

>  <i_qp_#in34>  (668) 
0

>  <i_qp_#in56>  (668) 
22

>  <i_qp_#metab>  (668) 
4

>  <i_qp_#nonHatm>  (668) 
35

>  <i_qp_#noncon>  (668) 
0

>  <i_qp_#ringatoms>  (668) 
22

>  <i_qp_#rotor>  (668) 
10

>  <i_qp_#rtvFG>  (668) 
0

>  <i_qp_#stars>  (668) 
0

>  <i_qp_CNS>  (668) 
-1

>  <i_qp_HumanOralAbsorption>  (668) 
3

>  <i_qp_RuleOfFive>  (668) 
0

>  <i_qp_RuleOfThree>  (668) 
0

>  <i_sd_BIOSOLVEIT.INFINISEE\_REAGENT1\_NAME>  (668) 
21909402

>  <i_sd_BIOSOLVEIT.INFINISEE\_REAGENT2\_NAME>  (668) 
22360182

>  <i_sd_BIOSOLVEIT.INFINISEE\_REAGENT3\_NAME>  (668) 
21940090

>  <i_sd_BIOSOLVEIT.INFINISEE\_RESULT\_RANK>  (668) 
17727

>  <i_sd_version>  (668) 
0

>  <b_lp_Chiralities_Consistent>  (668) 
1

>  <b_sd_chiral_flag>  (668) 
0

>  <canonical_id>  (668) 
ATP-HTVS-67B30DFDD52C

>  <compound_code>  (668) 
28355

>  <title>  (668) 
m_282030aaa____21909402____22360182____21940090

>  <variant>  (668) 
28355-1

>  <source_file>  (668) 
运行/运行/ATP-VSW/ATP-VSW-DOCK_HTVS_1-003_lib/ATP-VSW-DOCK_HTVS_1-003_lib.mae

>  <canonical_smiles>  (668) 
CN(Cc1ccccc1S(N)(=O)=O)c1nc(NCc2cccc(C[NH+](C)C)c2)c2ccccc2[nH+]1

>  <scaffold>  (668) 
c1ccc(CNc2nc(NCc3ccccc3)c3ccccc3[nH+]2)cc1

>  <molecular_formula>  (668) 
C26H32N6O2S+2

$$$$
ATP-HTVS-67E3C63FBC34
     RDKit          3D

 57 60  0  0  0  0  0  0  0  0999 V2000
  201.0479  185.8756  159.7657 O   0  0  0  0  0  0  0  0  0  0  0  0
  200.8385  184.7350  159.3725 C   0  0  0  0  0  0  0  0  0  0  0  0
  201.8317  183.9807  158.8798 N   0  0  0  0  0  0  0  0  0  0  0  0
  201.7077  182.6753  158.3339 C   0  0  0  0  0  0  0  0  0  0  0  0
  200.6212  182.3116  157.4941 C   0  0  0  0  0  0  0  0  0  0  0  0
  200.5731  180.9899  156.9770 C   0  0  0  0  0  0  0  0  0  0  0  0
  201.5749  180.0558  157.2845 C   0  0  0  0  0  0  0  0  0  0  0  0
  202.6581  180.4317  158.0972 C   0  0  0  0  0  0  0  0  0  0  0  0
  202.7277  181.7387  158.6123 C   0  0  0  0  0  0  0  0  0  0  0  0
  199.5659  183.3576  157.1109 C   0  0  2  0  0  0  0  0  0  0  0  0
  198.6940  183.7966  158.2217 N   0  0  0  0  0  0  0  0  0  0  0  0
  197.8547  184.9324  157.7868 C   0  0  1  0  0  0  0  0  0  0  0  0
  196.7028  185.2869  158.7419 C   0  0  0  0  0  0  0  0  0  0  0  0
  195.6199  184.3737  158.9453 C   0  0  0  0  0  0  0  0  0  0  0  0
  194.5876  184.6995  159.8473 C   0  0  0  0  0  0  0  0  0  0  0  0
  194.6175  185.9017  160.5671 C   0  0  0  0  0  0  0  0  0  0  0  0
  195.6670  186.8175  160.3608 C   0  0  0  0  0  0  0  0  0  0  0  0
  196.7050  186.5268  159.4490 C   0  0  0  0  0  0  0  0  0  0  0  0
  197.8121  187.5667  159.2771 C   0  0  1  0  0  0  0  0  0  0  0  0
  197.6595  188.4412  158.0192 C   0  0  2  0  0  0  0  0  0  0  0  0
  195.5390  183.0385  158.1961 C   0  0  1  0  0  0  0  0  0  0  0  0
  194.3033  182.1745  158.5071 C   0  0  2  0  0  0  0  0  0  0  0  0
  199.4277  184.1185  159.4878 C   0  0  1  0  0  0  0  0  0  0  0  0
  198.7414  182.8455  155.9311 C   0  0  0  0  0  0  0  0  0  0  0  0
  199.0537  183.2103  154.5966 C   0  0  0  0  0  0  0  0  0  0  0  0
  198.2686  182.7498  153.5181 C   0  0  0  0  0  0  0  0  0  0  0  0
  197.1501  181.9320  153.7704 C   0  0  0  0  0  0  0  0  0  0  0  0
  196.8324  181.5500  155.0891 C   0  0  0  0  0  0  0  0  0  0  0  0
  197.6389  181.9811  156.1693 C   0  0  0  0  0  0  0  0  0  0  0  0
  202.7663  184.3532  158.9659 H   0  0  0  0  0  0  0  0  0  0  0  0
  199.7818  180.6397  156.3338 H   0  0  0  0  0  0  0  0  0  0  0  0
  201.4998  179.0579  156.8807 H   0  0  0  0  0  0  0  0  0  0  0  0
  203.4289  179.7115  158.3204 H   0  0  0  0  0  0  0  0  0  0  0  0
  203.5675  182.0101  159.2357 H   0  0  0  0  0  0  0  0  0  0  0  0
  200.1123  184.2253  156.7484 H   0  0  0  0  0  0  0  0  0  0  0  0
  198.5170  185.7697  157.5885 H   0  0  0  0  0  0  0  0  0  0  0  0
  197.3703  184.7375  156.8303 H   0  0  0  0  0  0  0  0  0  0  0  0
  193.7485  184.0419  160.0327 H   0  0  0  0  0  0  0  0  0  0  0  0
  193.8255  186.1148  161.2649 H   0  0  0  0  0  0  0  0  0  0  0  0
  195.6688  187.7568  160.9017 H   0  0  0  0  0  0  0  0  0  0  0  0
  197.8259  188.2049  160.1615 H   0  0  0  0  0  0  0  0  0  0  0  0
  198.7893  187.0834  159.2823 H   0  0  0  0  0  0  0  0  0  0  0  0
  198.4813  189.1534  157.9602 H   0  0  0  0  0  0  0  0  0  0  0  0
  196.7300  189.0101  158.0376 H   0  0  0  0  0  0  0  0  0  0  0  0
  197.6683  187.8522  157.1011 H   0  0  0  0  0  0  0  0  0  0  0  0
  195.5584  183.2447  157.1296 H   0  0  0  0  0  0  0  0  0  0  0  0
  196.4258  182.4635  158.4194 H   0  0  0  0  0  0  0  0  0  0  0  0
  194.3043  181.2554  157.9211 H   0  0  0  0  0  0  0  0  0  0  0  0
  193.3642  182.6804  158.2930 H   0  0  0  0  0  0  0  0  0  0  0  0
  194.3291  181.8779  159.5496 H   0  0  0  0  0  0  0  0  0  0  0  0
  199.5296  183.2000  160.0644 H   0  0  0  0  0  0  0  0  0  0  0  0
  198.8324  184.7676  160.1352 H   0  0  0  0  0  0  0  0  0  0  0  0
  199.9108  183.8409  154.3951 H   0  0  0  0  0  0  0  0  0  0  0  0
  198.5406  183.0025  152.4947 H   0  0  0  0  0  0  0  0  0  0  0  0
  196.5321  181.5833  152.9561 H   0  0  0  0  0  0  0  0  0  0  0  0
  195.9711  180.9355  155.3004 H   0  0  0  0  0  0  0  0  0  0  0  0
  197.4194  181.6501  157.1637 H   0  0  0  0  0  0  0  0  0  0  0  0
  1  2  2  0
  2  3  1  0
  2 23  1  0
  3  4  1  0
  3 30  1  0
  4  5  1  0
  4  9  2  0
  5  6  2  0
  5 10  1  0
  6  7  1  0
  6 31  1  0
  7  8  2  0
  7 32  1  0
  8  9  1  0
  8 33  1  0
  9 34  1  0
 10 11  1  0
 10 24  1  0
 10 35  1  6
 11 12  1  0
 11 23  1  0
 12 13  1  0
 12 36  1  6
 12 37  1  0
 13 14  2  0
 13 18  1  0
 14 15  1  0
 14 21  1  0
 15 16  2  0
 15 38  1  0
 16 17  1  0
 16 39  1  0
 17 18  2  0
 17 40  1  0
 18 19  1  0
 19 20  1  0
 19 41  1  1
 19 42  1  0
 20 43  1  6
 20 44  1  0
 20 45  1  0
 21 22  1  0
 21 46  1  6
 21 47  1  0
 22 48  1  6
 22 49  1  0
 22 50  1  0
 23 51  1  1
 23 52  1  0
 24 25  2  0
 24 29  1  0
 25 26  1  0
 25 53  1  0
 26 27  2  0
 26 54  1  0
 27 28  1  0
 27 55  1  0
 28 29  2  0
 28 56  1  0
 29 57  1  0
M  END
>  <s_epik_cmdline>  (669) 
J2VwaWtfcHl0aG9uJywgJy1waCcsICc3LjAwMDAwMCcsICctcGh0JywgJzIuMDAwMDAwJywgJy1tcycsICcxNicsICctdG4nLCAnOCcsICctbWEnLCAnMjAwJywgJy1pbWFlJywgJzxpbmZpbGUubWFlPicsICctb21hZScsICc8b3V0ZmlsZS5tYWU+Jw==

>  <s_epik_input>  (669) 
W2NIXTFbY0hdW2NIXVtjSF1bY0hdYzFbQ0BIXShjKGMyMylbY0hdW2NIXVtjSF1bY0hdMylOKFtDSDJdQyg9TylbTkhdMilbQ0gyXWM0YyhbQ0gyXVtDSDNdKVtjSF1bY0hdW2NIXWM0W0NIMl1bQ0gzXQ==

>  <s_i_glide_gridfile>  (669) 
ATP-Grid

>  <s_lp_Force_Field>  (669) 
OPLS_2005

>  <s_lp_Variant>  (669) 
m_2230bdc____17849930____22384506-1

>  <s_lp_label>  (669) 
1529_sdstereoexpander_1_neutralizer_1_epik_1_stereoizer_1

>  <s_m_source_file>  (669) 
ATP-VSW-LIGPREP-001-in.maegz

>  <s_sd_BIOSOLVEIT.INFINISEE\_QUERY\_NAME>  (669) 
Ref-Lig

>  <s_sd_BIOSOLVEIT.INFINISEE\_QUERY\_SMILES>  (669) 
S(c1nc2c(cc1C[NH2+]Cc3ccc(cc3)C[NH+](C)C)cccc2)Cc4ccccc4

>  <s_sd_BIOSOLVEIT.INFINISEE\_REACTION\_NAME>  (669) 
m_2230bdc

>  <s_sd_BIOSOLVEIT.INFINISEE\_REAGENT1\_SMILES>  (669) 
[R1*]N1C(c2c(NC(=O)C1)cccc2)c3ccccc3

>  <s_sd_BIOSOLVEIT.INFINISEE\_REAGENT2\_SMILES>  (669) 
[R1*]Cc1c(cccc1CC)CC

>  <s_sd_BIOSOLVEIT.INFINISEE\_SPACE>  (669) 
REALSpace_44bn_2023-08

>  <s_vsw_compound_code>  (669) 
48897

>  <s_vsw_variant>  (669) 
48897-1

>  <r_epik_Charging_Adjusted_Penalty>  (669) 
0.0087634984339075902

>  <r_epik_Ionization_Penalty>  (669) 
0.0088000000000000005

>  <r_epik_Ionization_Penalty_Charging>  (669) 
0

>  <r_epik_Ionization_Penalty_Neutral>  (669) 
0.0088000000000000005

>  <r_epik_State_Penalty>  (669) 
0.0088000000000000005

>  <r_i_docking_score>  (669) 
-1.7789631375405099

>  <r_i_glide_ecoul>  (669) 
-1.23816931247711

>  <r_i_glide_eff_state_penalty>  (669) 
0.0088000000000000005

>  <r_i_glide_einternal>  (669) 
3.9130294322967498

>  <r_i_glide_emodel>  (669) 
-34.694237086647199

>  <r_i_glide_energy>  (669) 
-33.000403046608

>  <r_i_glide_erotb>  (669) 
0.394521094457563

>  <r_i_glide_esite>  (669) 
0

>  <r_i_glide_evdw>  (669) 
-31.762233734130898

>  <r_i_glide_gscore>  (669) 
-1.7877631375405101

>  <r_i_glide_hbond>  (669) 
0

>  <r_i_glide_ligand_efficiency>  (669) 
-0.061343556466914098

>  <r_i_glide_ligand_efficiency_ln>  (669) 
-0.40733744788385901

>  <r_i_glide_ligand_efficiency_sa>  (669) 
-0.18846684046916901

>  <r_i_glide_lipo>  (669) 
-1.44419438955057

>  <r_i_glide_metal>  (669) 
-0

>  <r_i_glide_rewards>  (669) 
1.0357472411306099

>  <r_lp_Energy>  (669) 
43.358350000000002

>  <r_qp_ACxDN^.5/SA>  (669) 
0.0065379000000000001

>  <r_qp_CIQPlogS>  (669) 
-5.1340000000000003

>  <r_qp_EA(eV)>  (669) 
0.32000000000000001

>  <r_qp_FISA>  (669) 
55.526000000000003

>  <r_qp_FOSA>  (669) 
219.52699999999999

>  <r_qp_IP(eV)>  (669) 
8.9670000000000005

>  <r_qp_Jm>  (669) 
0.0034186009839260898

>  <r_qp_PISA>  (669) 
413.24099999999999

>  <r_qp_PSA>  (669) 
37.194000000000003

>  <r_qp_PercentHumanOralAbsorption>  (669) 
100

>  <r_qp_QPPCaco>  (669) 
734.93399999999997

>  <r_qp_QPPMDCK>  (669) 
392.33699999999999

>  <r_qp_QPlogBB>  (669) 
0.17899999999999999

>  <r_qp_QPlogHERG>  (669) 
-7.0369999999999999

>  <r_qp_QPlogKhsa>  (669) 
1.046

>  <r_qp_QPlogKp>  (669) 
-2.766

>  <r_qp_QPlogPC16>  (669) 
13.595000000000001

>  <r_qp_QPlogPo/w>  (669) 
4.9889999999999999

>  <r_qp_QPlogPoct>  (669) 
19.452000000000002

>  <r_qp_QPlogPw>  (669) 
9.5790000000000006

>  <r_qp_QPlogS>  (669) 
-5.2850000000000001

>  <r_qp_QPpolrz>  (669) 
46.276000000000003

>  <r_qp_SASA>  (669) 
688.29399999999998

>  <r_qp_SAamideO>  (669) 
0

>  <r_qp_SAfluorine>  (669) 
0

>  <r_qp_WPSA>  (669) 
0

>  <r_qp_accptHB>  (669) 
4.5

>  <r_qp_dip^2/V>  (669) 
0.016867299999999998

>  <r_qp_dipole>  (669) 
4.6390000000000002

>  <r_qp_donorHB>  (669) 
1

>  <r_qp_glob>  (669) 
0.82644399999999996

>  <r_qp_mol_MW>  (669) 
384.51999999999998

>  <r_qp_volume>  (669) 
1275.655

>  <r_sd_BIOSOLVEIT.INFINISEE\_FTREES\_SIMILARITY>  (669) 
0.90700000000000003

>  <r_sd_BIOSOLVEIT.LOGP>  (669) 
3.9380000000000002

>  <r_sd_BIOSOLVEIT.MOLECULAR\_WEIGHT>  (669) 
385.52800000000002

>  <r_sd_BIOSOLVEIT.TPSA>  (669) 
33.539999999999999

>  <i_epik_Tot_Q>  (669) 
0

>  <i_epik_Tot_abs_Q>  (669) 
0

>  <i_f3d_flags>  (669) 
0

>  <i_i_glide_confnum>  (669) 
3

>  <i_i_glide_lignum>  (669) 
405

>  <i_i_glide_posenum>  (669) 
3

>  <i_i_glide_rotatable_bonds>  (669) 
5

>  <i_lp_mmshare_version>  (669) 
65135

>  <i_m_ct_format>  (669) 
2

>  <i_m_source_file_index>  (669) 
1529

>  <i_qp_#NandO>  (669) 
3

>  <i_qp_#acid>  (669) 
0

>  <i_qp_#amide>  (669) 
0

>  <i_qp_#amidine>  (669) 
0

>  <i_qp_#amine>  (669) 
1

>  <i_qp_#in34>  (669) 
0

>  <i_qp_#in56>  (669) 
18

>  <i_qp_#metab>  (669) 
9

>  <i_qp_#nonHatm>  (669) 
29

>  <i_qp_#noncon>  (669) 
2

>  <i_qp_#ringatoms>  (669) 
23

>  <i_qp_#rotor>  (669) 
4

>  <i_qp_#rtvFG>  (669) 
0

>  <i_qp_#stars>  (669) 
1

>  <i_qp_CNS>  (669) 
1

>  <i_qp_HumanOralAbsorption>  (669) 
3

>  <i_qp_RuleOfFive>  (669) 
0

>  <i_qp_RuleOfThree>  (669) 
1

>  <i_sd_BIOSOLVEIT.INFINISEE\_REAGENT1\_NAME>  (669) 
17849930

>  <i_sd_BIOSOLVEIT.INFINISEE\_REAGENT2\_NAME>  (669) 
22384506

>  <i_sd_BIOSOLVEIT.INFINISEE\_RESULT\_RANK>  (669) 
61144

>  <i_sd_version>  (669) 
0

>  <b_lp_Chiralities_Consistent>  (669) 
1

>  <b_sd_chiral_flag>  (669) 
0

>  <canonical_id>  (669) 
ATP-HTVS-67E3C63FBC34

>  <compound_code>  (669) 
48897

>  <title>  (669) 
m_2230bdc____17849930____22384506

>  <variant>  (669) 
48897-1

>  <source_file>  (669) 
运行/运行/ATP-VSW/ATP-VSW-DOCK_HTVS_1-001_lib/ATP-VSW-DOCK_HTVS_1-001_lib

>  <canonical_smiles>  (669) 
CCc1cccc(CC)c1CN1CC(=O)Nc2ccccc2[C@H]1c1ccccc1

>  <scaffold>  (669) 
O=C1CN(Cc2ccccc2)C(c2ccccc2)c2ccccc2N1

>  <molecular_formula>  (669) 
C26H28N2O

$$$$
ATP-HTVS-67F14CF2E487
     RDKit          3D

 55 57  0  0  0  0  0  0  0  0999 V2000
  200.1375  181.3964  155.7392 O   0  0  0  0  0  0  0  0  0  0  0  0
  198.9923  181.5355  155.3028 C   0  0  0  0  0  0  0  0  0  0  0  0
  198.0690  180.5397  155.3210 N   0  0  0  0  0  0  0  0  0  0  0  0
  198.3525  179.2611  155.9885 C   0  0  1  0  0  0  0  0  0  0  0  0
  199.3464  178.3444  155.2805 C   0  0  0  0  0  0  0  0  0  0  0  0
  199.9086  177.2660  155.9978 C   0  0  0  0  0  0  0  0  0  0  0  0
  200.8373  176.4023  155.3839 C   0  0  0  0  0  0  0  0  0  0  0  0
  201.2123  176.6131  154.0432 C   0  0  0  0  0  0  0  0  0  0  0  0
  200.6511  177.6808  153.3172 C   0  0  0  0  0  0  0  0  0  0  0  0
  199.7186  178.5378  153.9295 C   0  0  0  0  0  0  0  0  0  0  0  0
  196.7564  180.6257  154.6660 C   0  0  2  0  0  0  0  0  0  0  0  0
  198.5850  182.8601  154.7062 C   0  0  0  0  0  0  0  0  0  0  0  0
  199.1732  183.1824  153.5294 N   0  0  0  0  0  0  0  0  0  0  0  0
  198.8672  184.3613  152.9544 C   0  0  0  0  0  0  0  0  0  0  0  0
  197.9714  185.2849  153.5199 C   0  0  0  0  0  0  0  0  0  0  0  0
  197.3595  184.9561  154.7377 C   0  0  0  0  0  0  0  0  0  0  0  0
  197.6767  183.7331  155.3644 C   0  0  0  0  0  0  0  0  0  0  0  0
  197.0617  183.3803  156.5795 N   0  0  0  0  0  0  0  0  0  0  0  0
  196.9074  184.1569  157.7368 C   0  0  0  0  0  0  0  0  0  0  0  0
  196.1371  183.6478  158.8120 C   0  0  0  0  0  0  0  0  0  0  0  0
  195.9406  184.4437  159.9656 C   0  0  0  0  0  0  0  0  0  0  0  0
  196.4798  185.7397  160.0519 C   0  0  0  0  0  0  0  0  0  0  0  0
  197.2735  186.2338  159.0003 C   0  0  0  0  0  0  0  0  0  0  0  0
  197.5037  185.4368  157.8656 C   0  0  0  0  0  0  0  0  0  0  0  0
  195.4551  182.2751  158.7358 C   0  0  1  0  0  0  0  0  0  0  0  0
  194.0903  182.3358  158.1557 N   0  0  2  0  0  0  0  0  0  0  0  0
  193.2612  183.4712  158.6043 C   0  0  2  0  0  0  0  0  0  0  0  0
  193.3770  181.0511  158.2762 C   0  0  2  0  0  0  0  0  0  0  0  0
  198.7221  179.4588  156.9962 H   0  0  0  0  0  0  0  0  0  0  0  0
  197.4335  178.6903  156.1335 H   0  0  0  0  0  0  0  0  0  0  0  0
  199.6192  177.1009  157.0282 H   0  0  0  0  0  0  0  0  0  0  0  0
  201.2662  175.5837  155.9440 H   0  0  0  0  0  0  0  0  0  0  0  0
  201.9305  175.9590  153.5705 H   0  0  0  0  0  0  0  0  0  0  0  0
  200.9397  177.8516  152.2906 H   0  0  0  0  0  0  0  0  0  0  0  0
  199.3002  179.3473  153.3484 H   0  0  0  0  0  0  0  0  0  0  0  0
  196.8132  181.1493  153.7097 H   0  0  0  0  0  0  0  0  0  0  0  0
  196.0321  181.1442  155.2969 H   0  0  0  0  0  0  0  0  0  0  0  0
  196.3510  179.6377  154.4508 H   0  0  0  0  0  0  0  0  0  0  0  0
  199.3606  184.5850  152.0155 H   0  0  0  0  0  0  0  0  0  0  0  0
  197.7305  186.2162  153.0295 H   0  0  0  0  0  0  0  0  0  0  0  0
  196.6456  185.6324  155.1820 H   0  0  0  0  0  0  0  0  0  0  0  0
  196.7285  182.4231  156.6234 H   0  0  0  0  0  0  0  0  0  0  0  0
  195.3374  184.0742  160.7821 H   0  0  0  0  0  0  0  0  0  0  0  0
  196.2823  186.3605  160.9144 H   0  0  0  0  0  0  0  0  0  0  0  0
  197.6993  187.2284  159.0644 H   0  0  0  0  0  0  0  0  0  0  0  0
  198.1326  185.8366  157.0871 H   0  0  0  0  0  0  0  0  0  0  0  0
  196.0597  181.5492  158.1901 H   0  0  0  0  0  0  0  0  0  0  0  0
  195.4202  181.8668  159.7381 H   0  0  0  0  0  0  0  0  0  0  0  0
  193.1488  183.5074  159.6885 H   0  0  0  0  0  0  0  0  0  0  0  0
  192.2799  183.4077  158.1484 H   0  0  0  0  0  0  0  0  0  0  0  0
  193.6874  184.4283  158.2907 H   0  0  0  0  0  0  0  0  0  0  0  0
  193.2009  180.7812  159.3187 H   0  0  0  0  0  0  0  0  0  0  0  0
  193.9405  180.2466  157.8074 H   0  0  0  0  0  0  0  0  0  0  0  0
  192.4081  181.0986  157.7681 H   0  0  0  0  0  0  0  0  0  0  0  0
  194.1739  182.4985  157.1461 H   0  0  0  0  0  0  0  0  0  0  0  0
  1  2  2  0
  2  3  1  0
  2 12  1  0
  3  4  1  0
  3 11  1  0
  4  5  1  0
  4 29  1  1
  4 30  1  0
  5  6  2  0
  5 10  1  0
  6  7  1  0
  6 31  1  0
  7  8  2  0
  7 32  1  0
  8  9  1  0
  8 33  1  0
  9 10  2  0
  9 34  1  0
 10 35  1  0
 11 36  1  6
 11 37  1  0
 11 38  1  0
 12 13  1  0
 12 17  2  0
 13 14  2  0
 14 15  1  0
 14 39  1  0
 15 16  2  0
 15 40  1  0
 16 17  1  0
 16 41  1  0
 17 18  1  0
 18 19  1  0
 18 42  1  0
 19 20  1  0
 19 24  2  0
 20 21  2  0
 20 25  1  0
 21 22  1  0
 21 43  1  0
 22 23  2  0
 22 44  1  0
 23 24  1  0
 23 45  1  0
 24 46  1  0
 25 26  1  0
 25 47  1  6
 25 48  1  0
 26 27  1  0
 26 28  1  0
 26 55  1  6
 27 49  1  1
 27 50  1  0
 27 51  1  0
 28 52  1  1
 28 53  1  0
 28 54  1  0
M  CHG  1  26   1
M  END
>  <s_epik_cmdline>  (670) 
J2VwaWtfcHl0aG9uJywgJy1waCcsICc3LjAwMDAwMCcsICctcGh0JywgJzIuMDAwMDAwJywgJy1tcycsICcxNicsICctdG4nLCAnOCcsICctbWEnLCAnMjAwJywgJy1pbWFlJywgJzxpbmZpbGUubWFlPicsICctb21hZScsICc8b3V0ZmlsZS5tYWU+Jw==

>  <s_epik_input>  (670) 
W2NIXTFbY0hdW2NIXVtjSF1bY0hdYzFbQ0gyXU4oW0NIM10pQyg9TyljMm5bY0hdW2NIXVtjSF1jMltOSF1jM2MoW0NIMl1OKFtDSDNdKVtDSDNdKVtjSF1bY0hdW2NIXVtjSF0z

>  <s_i_glide_gridfile>  (670) 
ATP-Grid

>  <s_lp_Force_Field>  (670) 
OPLS_2005

>  <s_lp_Variant>  (670) 
rxn514b____EMOL480996____EMOL17095497____EMOL975590-1

>  <s_lp_label>  (670) 
2790_sdstereoexpander_1_neutralizer_1_epik_1_stereoizer_1

>  <s_m_source_file>  (670) 
ATP-VSW-LIGPREP-001-in.maegz

>  <s_sd_BIOSOLVEIT.INFINISEE\_QUERY\_NAME>  (670) 
Ref-Lig

>  <s_sd_BIOSOLVEIT.INFINISEE\_QUERY\_SMILES>  (670) 
S(c1nc2c(cc1C[NH2+]Cc3ccc(cc3)C[NH+](C)C)cccc2)Cc4ccccc4

>  <s_sd_BIOSOLVEIT.INFINISEE\_REACTION\_NAME>  (670) 
rxn514b

>  <s_sd_BIOSOLVEIT.INFINISEE\_REAGENT1\_NAME>  (670) 
EMOL480996

>  <s_sd_BIOSOLVEIT.INFINISEE\_REAGENT1\_SMILES>  (670) 
N(Cc1ccccc1)C

>  <s_sd_BIOSOLVEIT.INFINISEE\_REAGENT2\_NAME>  (670) 
EMOL17095497

>  <s_sd_BIOSOLVEIT.INFINISEE\_REAGENT2\_SMILES>  (670) 
O=C(OC(C)(C)C)Nc1c(nccc1)C(=O)O

>  <s_sd_BIOSOLVEIT.INFINISEE\_REAGENT3\_NAME>  (670) 
EMOL975590

>  <s_sd_BIOSOLVEIT.INFINISEE\_REAGENT3\_SMILES>  (670) 
Brc1c(cccc1)CN(C)C

>  <s_sd_BIOSOLVEIT.INFINISEE\_SPACE>  (670) 
eXplore_7tr_2022-12

>  <s_vsw_compound_code>  (670) 
89249

>  <s_vsw_variant>  (670) 
89249-1

>  <r_epik_Charging_Adjusted_Penalty>  (670) 
0.074139713783215794

>  <r_epik_Ionization_Penalty>  (670) 
0.037100000000000001

>  <r_epik_Ionization_Penalty_Charging>  (670) 
0.037100000000000001

>  <r_epik_Ionization_Penalty_Neutral>  (670) 
0

>  <r_epik_State_Penalty>  (670) 
0.037100000000000001

>  <r_i_docking_score>  (670) 
-4.5755651788154097

>  <r_i_glide_ecoul>  (670) 
-10.225949287414601

>  <r_i_glide_eff_state_penalty>  (670) 
0.037100000000000001

>  <r_i_glide_einternal>  (670) 
4.2773599624633798

>  <r_i_glide_emodel>  (670) 
-58.321231809820297

>  <r_i_glide_energy>  (670) 
-42.459111213684103

>  <r_i_glide_erotb>  (670) 
0.82334991291613402

>  <r_i_glide_esite>  (670) 
-0.178040616124817

>  <r_i_glide_evdw>  (670) 
-32.233161926269503

>  <r_i_glide_gscore>  (670) 
-4.6126651788154103

>  <r_i_glide_hbond>  (670) 
-0.20000000000000001

>  <r_i_glide_ligand_efficiency>  (670) 
-0.16341304210054999

>  <r_i_glide_ligand_efficiency_ln>  (670) 
-1.0561747877018799

>  <r_i_glide_ligand_efficiency_sa>  (670) 
-0.496218240952018

>  <r_i_glide_lipo>  (670) 
-1.06346953163562

>  <r_i_glide_metal>  (670) 
-0

>  <r_i_glide_rewards>  (670) 
-0.84895445454545304

>  <r_lp_Energy>  (670) 
34.995829000000001

>  <r_lp_tautomer_probability>  (670) 
0.999999999999999

>  <r_qp_ACxDN^.5/SA>  (670) 
0

>  <r_qp_CIQPlogS>  (670) 
-4.5049999999999999

>  <r_qp_EA(eV)>  (670) 
0.45700000000000002

>  <r_qp_FISA>  (670) 
42.999000000000002

>  <r_qp_FOSA>  (670) 
179.19499999999999

>  <r_qp_IP(eV)>  (670) 
8.2370000000000001

>  <r_qp_Jm>  (670) 
1.25726233120804

>  <r_qp_PISA>  (670) 
426.68700000000001

>  <r_qp_PSA>  (670) 
48.575000000000003

>  <r_qp_PercentHumanOralAbsorption>  (670) 
100

>  <r_qp_QPPCaco>  (670) 
966.13300000000004

>  <r_qp_QPPMDCK>  (670) 
527.298

>  <r_qp_QPlogBB>  (670) 
0.14599999999999999

>  <r_qp_QPlogHERG>  (670) 
-6.6680000000000001

>  <r_qp_QPlogKhsa>  (670) 
0.40500000000000003

>  <r_qp_QPlogKp>  (670) 
-2.1989999999999998

>  <r_qp_QPlogPC16>  (670) 
12.91

>  <r_qp_QPlogPo/w>  (670) 
4.2830000000000004

>  <r_qp_QPlogPoct>  (670) 
17.187000000000001

>  <r_qp_QPlogPw>  (670) 
8.3490000000000002

>  <r_qp_QPlogS>  (670) 
-3.2749999999999999

>  <r_qp_QPpolrz>  (670) 
42.445

>  <r_qp_SASA>  (670) 
648.88099999999997

>  <r_qp_SAamideO>  (670) 
0

>  <r_qp_SAfluorine>  (670) 
0

>  <r_qp_WPSA>  (670) 
0

>  <r_qp_accptHB>  (670) 
5.5

>  <r_qp_dip^2/V>  (670) 
0.020222199999999999

>  <r_qp_dipole>  (670) 
4.9770000000000003

>  <r_qp_donorHB>  (670) 
0

>  <r_qp_glob>  (670) 
0.85320799999999997

>  <r_qp_mol_MW>  (670) 
374.48500000000001

>  <r_qp_volume>  (670) 
1224.847

>  <r_sd_BIOSOLVEIT.INFINISEE\_FTREES\_SIMILARITY>  (670) 
0.90600000000000003

>  <r_sd_BIOSOLVEIT.LOGP>  (670) 
2.7418999999999998

>  <r_sd_BIOSOLVEIT.MOLECULAR\_WEIGHT>  (670) 
375.49299999999999

>  <r_sd_BIOSOLVEIT.TPSA>  (670) 
49.670000000000002

>  <i_epik_Tot_Q>  (670) 
1

>  <i_epik_Tot_abs_Q>  (670) 
1

>  <i_f3d_flags>  (670) 
0

>  <i_i_glide_confnum>  (670) 
6

>  <i_i_glide_lignum>  (670) 
1260

>  <i_i_glide_posenum>  (670) 
11

>  <i_i_glide_rotatable_bonds>  (670) 
8

>  <i_lp_mmshare_version>  (670) 
65135

>  <i_m_ct_format>  (670) 
2

>  <i_m_source_file_index>  (670) 
2790

>  <i_qp_#NandO>  (670) 
5

>  <i_qp_#acid>  (670) 
0

>  <i_qp_#amide>  (670) 
0

>  <i_qp_#amidine>  (670) 
0

>  <i_qp_#amine>  (670) 
1

>  <i_qp_#in34>  (670) 
0

>  <i_qp_#in56>  (670) 
18

>  <i_qp_#metab>  (670) 
8

>  <i_qp_#nonHatm>  (670) 
28

>  <i_qp_#noncon>  (670) 
0

>  <i_qp_#ringatoms>  (670) 
18

>  <i_qp_#rotor>  (670) 
7

>  <i_qp_#rtvFG>  (670) 
0

>  <i_qp_#stars>  (670) 
0

>  <i_qp_CNS>  (670) 
1

>  <i_qp_HumanOralAbsorption>  (670) 
3

>  <i_qp_RuleOfFive>  (670) 
0

>  <i_qp_RuleOfThree>  (670) 
1

>  <i_sd_BIOSOLVEIT.INFINISEE\_RESULT\_RANK>  (670) 
62636

>  <i_sd_version>  (670) 
0

>  <b_lp_Chiralities_Consistent>  (670) 
1

>  <b_sd_chiral_flag>  (670) 
0

>  <canonical_id>  (670) 
ATP-HTVS-67F14CF2E487

>  <compound_code>  (670) 
89249

>  <title>  (670) 
rxn514b____EMOL480996____EMOL17095497____EMOL975590

>  <variant>  (670) 
89249-1

>  <source_file>  (670) 
运行/运行/ATP-VSW/ATP-VSW-DOCK_HTVS_1-001_lib/ATP-VSW-DOCK_HTVS_1-001_lib

>  <canonical_smiles>  (670) 
CN(Cc1ccccc1)C(=O)c1ncccc1Nc1ccccc1C[NH+](C)C

>  <scaffold>  (670) 
O=C(NCc1ccccc1)c1ncccc1Nc1ccccc1

>  <molecular_formula>  (670) 
C23H27N4O+

$$$$
ATP-HTVS-6804FBE9529D
     RDKit          3D

 61 64  0  0  0  0  0  0  0  0999 V2000
  203.9398  185.1569  162.8399 Cl  0  0  0  0  0  0  0  0  0  0  0  0
  203.1799  184.0562  161.7440 C   0  0  0  0  0  0  0  0  0  0  0  0
  202.1365  184.4842  160.8895 C   0  0  0  0  0  0  0  0  0  0  0  0
  201.7347  185.8209  160.9188 N   0  0  0  0  0  0  0  0  0  0  0  0
  201.5225  183.5654  159.9997 C   0  0  0  0  0  0  0  0  0  0  0  0
  201.9778  182.2281  159.9797 C   0  0  0  0  0  0  0  0  0  0  0  0
  203.0225  181.8095  160.8239 C   0  0  0  0  0  0  0  0  0  0  0  0
  203.6233  182.7218  161.7073 C   0  0  0  0  0  0  0  0  0  0  0  0
  200.4045  184.0405  159.0708 C   0  0  1  0  0  0  0  0  0  0  0  0
  199.8247  183.0380  158.1835 N   0  0  0  0  0  0  0  0  0  0  0  0
  198.9528  183.3939  157.1369 C   0  0  0  0  0  0  0  0  0  0  0  0
  198.7501  184.7018  156.8815 N   0  0  0  0  0  0  0  0  0  0  0  0
  197.9128  185.0649  155.8979 C   0  0  0  0  0  0  0  0  0  0  0  0
  197.2645  184.1789  155.1428 N   0  0  0  0  0  0  0  0  0  0  0  0
  197.4445  182.8531  155.3421 C   0  0  0  0  0  0  0  0  0  0  0  0
  198.3179  182.4049  156.3600 C   0  0  0  0  0  0  0  0  0  0  0  0
  198.5056  181.0157  156.5459 C   0  0  0  0  0  0  0  0  0  0  0  0
  197.8387  180.0964  155.7148 C   0  0  0  0  0  0  0  0  0  0  0  0
  196.9632  180.5535  154.7088 C   0  0  0  0  0  0  0  0  0  0  0  0
  196.7634  181.9363  154.5249 C   0  0  0  0  0  0  0  0  0  0  0  0
  197.6265  186.4064  155.7087 N   0  0  0  0  0  0  0  0  0  0  0  0
  197.7922  187.4354  156.7339 C   0  0  1  0  0  0  0  0  0  0  0  0
  197.1170  187.2072  158.1026 C   0  0  0  0  0  0  0  0  0  0  0  0
  197.4093  188.0215  159.2341 C   0  0  0  0  0  0  0  0  0  0  0  0
  196.7612  187.7619  160.4683 C   0  0  0  0  0  0  0  0  0  0  0  0
  195.8150  186.7310  160.5917 C   0  0  0  0  0  0  0  0  0  0  0  0
  195.1615  186.5283  161.7622 F   0  0  0  0  0  0  0  0  0  0  0  0
  195.5434  185.9149  159.4849 C   0  0  0  0  0  0  0  0  0  0  0  0
  196.1830  186.1617  158.2627 C   0  0  0  0  0  0  0  0  0  0  0  0
  198.4129  189.1785  159.1809 C   0  0  1  0  0  0  0  0  0  0  0  0
  197.7651  190.4865  158.9111 N   0  0  1  0  0  0  0  0  0  0  0  0
  196.8117  190.8908  159.9679 C   0  0  2  0  0  0  0  0  0  0  0  0
  198.7620  191.5486  158.6468 C   0  0  2  0  0  0  0  0  0  0  0  0
  201.1415  186.1968  160.1947 H   0  0  0  0  0  0  0  0  0  0  0  0
  202.2954  186.4914  161.4274 H   0  0  0  0  0  0  0  0  0  0  0  0
  201.5478  181.4952  159.3123 H   0  0  0  0  0  0  0  0  0  0  0  0
  203.3656  180.7838  160.7945 H   0  0  0  0  0  0  0  0  0  0  0  0
  204.4310  182.4012  162.3495 H   0  0  0  0  0  0  0  0  0  0  0  0
  199.6037  184.4549  159.6833 H   0  0  0  0  0  0  0  0  0  0  0  0
  200.8072  184.8628  158.4752 H   0  0  0  0  0  0  0  0  0  0  0  0
  199.9604  182.0687  158.4066 H   0  0  0  0  0  0  0  0  0  0  0  0
  199.1525  180.6206  157.3143 H   0  0  0  0  0  0  0  0  0  0  0  0
  197.9662  179.0335  155.8845 H   0  0  0  0  0  0  0  0  0  0  0  0
  196.4384  179.8385  154.0871 H   0  0  0  0  0  0  0  0  0  0  0  0
  196.0658  182.2809  153.7745 H   0  0  0  0  0  0  0  0  0  0  0  0
  197.0145  186.6322  154.9365 H   0  0  0  0  0  0  0  0  0  0  0  0
  198.8668  187.5636  156.8718 H   0  0  0  0  0  0  0  0  0  0  0  0
  197.4084  188.3693  156.3162 H   0  0  0  0  0  0  0  0  0  0  0  0
  196.9847  188.3655  161.3371 H   0  0  0  0  0  0  0  0  0  0  0  0
  194.8295  185.1089  159.5647 H   0  0  0  0  0  0  0  0  0  0  0  0
  195.9457  185.5029  157.4468 H   0  0  0  0  0  0  0  0  0  0  0  0
  198.9569  189.2156  160.1293 H   0  0  0  0  0  0  0  0  0  0  0  0
  199.1784  189.0022  158.4233 H   0  0  0  0  0  0  0  0  0  0  0  0
  197.3079  190.9671  160.9359 H   0  0  0  0  0  0  0  0  0  0  0  0
  195.9618  190.2165  160.0511 H   0  0  0  0  0  0  0  0  0  0  0  0
  196.3781  191.8528  159.7314 H   0  0  0  0  0  0  0  0  0  0  0  0
  199.3918  191.7132  159.5216 H   0  0  0  0  0  0  0  0  0  0  0  0
  198.2719  192.4912  158.4006 H   0  0  0  0  0  0  0  0  0  0  0  0
  199.4092  191.2861  157.8077 H   0  0  0  0  0  0  0  0  0  0  0  0
  196.5948  184.4587  154.4253 H   0  0  0  0  0  0  0  0  0  0  0  0
  197.2269  190.3807  158.0631 H   0  0  0  0  0  0  0  0  0  0  0  0
  1  2  1  0
  2  3  2  0
  2  8  1  0
  3  4  1  0
  3  5  1  0
  4 34  1  0
  4 35  1  0
  5  6  2  0
  5  9  1  0
  6  7  1  0
  6 36  1  0
  7  8  2  0
  7 37  1  0
  8 38  1  0
  9 10  1  0
  9 39  1  1
  9 40  1  0
 10 11  1  0
 10 41  1  0
 11 12  2  0
 11 16  1  0
 12 13  1  0
 13 14  2  0
 13 21  1  0
 14 15  1  0
 14 60  1  0
 15 16  1  0
 15 20  2  0
 16 17  2  0
 17 18  1  0
 17 42  1  0
 18 19  2  0
 18 43  1  0
 19 20  1  0
 19 44  1  0
 20 45  1  0
 21 22  1  0
 21 46  1  0
 22 23  1  0
 22 47  1  1
 22 48  1  0
 23 24  2  0
 23 29  1  0
 24 25  1  0
 24 30  1  0
 25 26  2  0
 25 49  1  0
 26 27  1  0
 26 28  1  0
 28 29  2  0
 28 50  1  0
 29 51  1  0
 30 31  1  0
 30 52  1  1
 30 53  1  0
 31 32  1  0
 31 33  1  0
 31 61  1  6
 32 54  1  1
 32 55  1  0
 32 56  1  0
 33 57  1  1
 33 58  1  0
 33 59  1  0
M  CHG  2  14   1  31   1
M  END
>  <s_epik_cmdline>  (671) 
J2VwaWtfcHl0aG9uJywgJy1waCcsICc3LjAwMDAwMCcsICctcGh0JywgJzIuMDAwMDAwJywgJy1tcycsICcxNicsICctdG4nLCAnOCcsICctbWEnLCAnMjAwJywgJy1pbWFlJywgJzxpbmZpbGUubWFlPicsICctb21hZScsICc8b3V0ZmlsZS5tYWU+Jw==

>  <s_epik_input>  (671) 
Q2xjMWMoW05IMl0pYyhbY0hdW2NIXVtjSF0xKVtDSDJdW05IXWMoYyhjMjMpW2NIXVtjSF1bY0hdW2NIXTMpbmMobjIpW05IXVtDSDJdYzRjKFtDSDJdTihbQ0gzXSlbQ0gzXSlbY0hdYyhGKVtjSF1bY0hdNA==

>  <s_i_glide_gridfile>  (671) 
ATP-Grid

>  <s_lp_Force_Field>  (671) 
OPLS_2005

>  <s_lp_Variant>  (671) 
m_282030aaa____21896940____22360182____21936236-1

>  <s_lp_label>  (671) 
1665_sdstereoexpander_1_neutralizer_1_epik_1_stereoizer_1

>  <s_m_source_file>  (671) 
ATP-VSW-LIGPREP-001-in.maegz

>  <s_sd_BIOSOLVEIT.INFINISEE\_QUERY\_NAME>  (671) 
Ref-Lig

>  <s_sd_BIOSOLVEIT.INFINISEE\_QUERY\_SMILES>  (671) 
S(c1nc2c(cc1C[NH2+]Cc3ccc(cc3)C[NH+](C)C)cccc2)Cc4ccccc4

>  <s_sd_BIOSOLVEIT.INFINISEE\_REACTION\_NAME>  (671) 
m_282030aaa

>  <s_sd_BIOSOLVEIT.INFINISEE\_REAGENT1\_SMILES>  (671) 
[R1*]NCc1c(cc(F)cc1)CN(C)C

>  <s_sd_BIOSOLVEIT.INFINISEE\_REAGENT2\_SMILES>  (671) 
[R2*]c1nc([R1*])c2c(n1)cccc2

>  <s_sd_BIOSOLVEIT.INFINISEE\_REAGENT3\_SMILES>  (671) 
[R2*]NCc1c(N)c(Cl)ccc1

>  <s_sd_BIOSOLVEIT.INFINISEE\_SPACE>  (671) 
REALSpace_44bn_2023-08

>  <s_vsw_compound_code>  (671) 
53249

>  <s_vsw_variant>  (671) 
53249-1

>  <r_epik_Charging_Adjusted_Penalty>  (671) 
0.12949415229074401

>  <r_epik_Ionization_Penalty>  (671) 
0.061600000000000002

>  <r_epik_Ionization_Penalty_Charging>  (671) 
0.0613

>  <r_epik_Ionization_Penalty_Neutral>  (671) 
0.00029999999999999997

>  <r_epik_State_Penalty>  (671) 
0.068199999999999997

>  <r_i_docking_score>  (671) 
-4.4147092980552696

>  <r_i_glide_ecoul>  (671) 
-7.0637335777282697

>  <r_i_glide_eff_state_penalty>  (671) 
0.068199999999999997

>  <r_i_glide_einternal>  (671) 
1.67693042755127

>  <r_i_glide_emodel>  (671) 
-56.201767109735101

>  <r_i_glide_energy>  (671) 
-39.292432308197

>  <r_i_glide_erotb>  (671) 
0.64773326217041804

>  <r_i_glide_esite>  (671) 
0

>  <r_i_glide_evdw>  (671) 
-32.2286987304688

>  <r_i_glide_gscore>  (671) 
-4.4829092980552696

>  <r_i_glide_hbond>  (671) 
0

>  <r_i_glide_ligand_efficiency>  (671) 
-0.13377906963803901

>  <r_i_glide_ligand_efficiency_ln>  (671) 
-0.98180848974608803

>  <r_i_glide_ligand_efficiency_sa>  (671) 
-0.429100957998793

>  <r_i_glide_lipo>  (671) 
-1.91664150577516

>  <r_i_glide_metal>  (671) 
-0

>  <r_i_glide_rewards>  (671) 
-0.54300608126784999

>  <r_lp_Energy>  (671) 
22.582203

>  <r_qp_ACxDN^.5/SA>  (671) 
0.016665800000000001

>  <r_qp_CIQPlogS>  (671) 
-6.306

>  <r_qp_EA(eV)>  (671) 
0.67200000000000004

>  <r_qp_FISA>  (671) 
71.049999999999997

>  <r_qp_FOSA>  (671) 
194.876

>  <r_qp_IP(eV)>  (671) 
8.125

>  <r_qp_Jm>  (671) 
0.092886441691207799

>  <r_qp_PISA>  (671) 
319.65199999999999

>  <r_qp_PSA>  (671) 
67.251000000000005

>  <r_qp_PercentHumanOralAbsorption>  (671) 
100

>  <r_qp_QPPCaco>  (671) 
523.64300000000003

>  <r_qp_QPPMDCK>  (671) 
824.81899999999996

>  <r_qp_QPlogBB>  (671) 
0.002

>  <r_qp_QPlogHERG>  (671) 
-5.9729999999999999

>  <r_qp_QPlogKhsa>  (671) 
0.54300000000000004

>  <r_qp_QPlogKp>  (671) 
-2.9009999999999998

>  <r_qp_QPlogPC16>  (671) 
14.119999999999999

>  <r_qp_QPlogPo/w>  (671) 
4.375

>  <r_qp_QPlogPoct>  (671) 
23.542000000000002

>  <r_qp_QPlogPw>  (671) 
13.079000000000001

>  <r_qp_QPlogS>  (671) 
-3.798

>  <r_qp_QPpolrz>  (671) 
44.005000000000003

>  <r_qp_SASA>  (671) 
673.53300000000002

>  <r_qp_SAamideO>  (671) 
0

>  <r_qp_SAfluorine>  (671) 
37.262999999999998

>  <r_qp_WPSA>  (671) 
87.954999999999998

>  <r_qp_accptHB>  (671) 
6

>  <r_qp_dip^2/V>  (671) 
0.022267100000000001

>  <r_qp_dipole>  (671) 
5.4240000000000004

>  <r_qp_donorHB>  (671) 
3.5

>  <r_qp_glob>  (671) 
0.86465420000000004

>  <r_qp_mol_MW>  (671) 
464.97199999999998

>  <r_qp_volume>  (671) 
1321.46

>  <r_sd_BIOSOLVEIT.INFINISEE\_FTREES\_SIMILARITY>  (671) 
0.90500000000000003

>  <r_sd_BIOSOLVEIT.LOGP>  (671) 
3.8732000000000002

>  <r_sd_BIOSOLVEIT.MOLECULAR\_WEIGHT>  (671) 
465.98099999999999

>  <r_sd_BIOSOLVEIT.TPSA>  (671) 
80.299999999999997

>  <i_epik_Tot_Q>  (671) 
2

>  <i_epik_Tot_abs_Q>  (671) 
2

>  <i_f3d_flags>  (671) 
0

>  <i_i_glide_confnum>  (671) 
4

>  <i_i_glide_lignum>  (671) 
456

>  <i_i_glide_posenum>  (671) 
18

>  <i_i_glide_rotatable_bonds>  (671) 
8

>  <i_lp_mmshare_version>  (671) 
65135

>  <i_m_ct_format>  (671) 
2

>  <i_m_source_file_index>  (671) 
1665

>  <i_qp_#NandO>  (671) 
6

>  <i_qp_#acid>  (671) 
0

>  <i_qp_#amide>  (671) 
0

>  <i_qp_#amidine>  (671) 
0

>  <i_qp_#amine>  (671) 
1

>  <i_qp_#in34>  (671) 
0

>  <i_qp_#in56>  (671) 
22

>  <i_qp_#metab>  (671) 
6

>  <i_qp_#nonHatm>  (671) 
33

>  <i_qp_#noncon>  (671) 
0

>  <i_qp_#ringatoms>  (671) 
22

>  <i_qp_#rotor>  (671) 
9

>  <i_qp_#rtvFG>  (671) 
0

>  <i_qp_#stars>  (671) 
0

>  <i_qp_CNS>  (671) 
1

>  <i_qp_HumanOralAbsorption>  (671) 
3

>  <i_qp_RuleOfFive>  (671) 
0

>  <i_qp_RuleOfThree>  (671) 
0

>  <i_sd_BIOSOLVEIT.INFINISEE\_REAGENT1\_NAME>  (671) 
21896940

>  <i_sd_BIOSOLVEIT.INFINISEE\_REAGENT2\_NAME>  (671) 
22360182

>  <i_sd_BIOSOLVEIT.INFINISEE\_REAGENT3\_NAME>  (671) 
21936236

>  <i_sd_BIOSOLVEIT.INFINISEE\_RESULT\_RANK>  (671) 
69668

>  <i_sd_version>  (671) 
0

>  <b_lp_Chiralities_Consistent>  (671) 
1

>  <b_sd_chiral_flag>  (671) 
0

>  <canonical_id>  (671) 
ATP-HTVS-6804FBE9529D

>  <compound_code>  (671) 
53249

>  <title>  (671) 
m_282030aaa____21896940____22360182____21936236

>  <variant>  (671) 
53249-1

>  <source_file>  (671) 
运行/运行/ATP-VSW/ATP-VSW-DOCK_HTVS_1-001_lib/ATP-VSW-DOCK_HTVS_1-001_lib

>  <canonical_smiles>  (671) 
C[NH+](C)Cc1cc(F)ccc1CNc1nc(NCc2cccc(Cl)c2N)c2ccccc2[nH+]1

>  <scaffold>  (671) 
c1ccc(CNc2nc(NCc3ccccc3)c3ccccc3[nH+]2)cc1

>  <molecular_formula>  (671) 
C25H28ClFN6+2

$$$$
ATP-HTVS-681E21A5C336
     RDKit          3D

 51 54  0  0  0  0  0  0  0  0999 V2000
  197.1999  186.4483  158.0578 Cl  0  0  0  0  0  0  0  0  0  0  0  0
  197.1459  184.9152  157.2646 C   0  0  0  0  0  0  0  0  0  0  0  0
  196.6912  183.7599  157.9410 C   0  0  0  0  0  0  0  0  0  0  0  0
  196.1887  183.8367  159.5925 Cl  0  0  0  0  0  0  0  0  0  0  0  0
  196.6380  182.5280  157.2601 C   0  0  0  0  0  0  0  0  0  0  0  0
  197.0217  182.4530  155.9087 C   0  0  0  0  0  0  0  0  0  0  0  0
  197.4910  183.5985  155.2289 C   0  0  0  0  0  0  0  0  0  0  0  0
  197.5479  184.8329  155.9153 C   0  0  0  0  0  0  0  0  0  0  0  0
  197.9331  183.5062  153.7679 C   0  0  1  0  0  0  0  0  0  0  0  0
  198.8183  182.3633  153.4255 N   0  0  0  0  0  0  0  0  0  0  0  0
  198.9874  182.1451  152.0346 C   0  0  0  0  0  0  0  0  0  0  0  0
  197.9801  182.5381  151.1167 C   0  0  0  0  0  0  0  0  0  0  0  0
  198.1480  182.3235  149.7323 C   0  0  0  0  0  0  0  0  0  0  0  0
  199.3311  181.7384  149.2432 C   0  0  0  0  0  0  0  0  0  0  0  0
  200.3471  181.3645  150.1399 C   0  0  0  0  0  0  0  0  0  0  0  0
  200.1781  181.5647  151.5225 C   0  0  0  0  0  0  0  0  0  0  0  0
  196.7197  183.1636  151.6258 C   0  0  0  0  0  0  0  0  0  0  0  0
  195.7242  183.3168  150.9186 O   0  0  0  0  0  0  0  0  0  0  0  0
  196.7461  183.5239  152.9088 N   0  0  0  0  0  0  0  0  0  0  0  0
  199.7249  181.9178  154.4138 C   0  0  0  0  0  0  0  0  0  0  0  0
  199.9252  180.5271  154.6041 C   0  0  0  0  0  0  0  0  0  0  0  0
  200.8076  180.0552  155.6025 C   0  0  0  0  0  0  0  0  0  0  0  0
  201.4884  180.9721  156.4265 C   0  0  0  0  0  0  0  0  0  0  0  0
  201.2965  182.3542  156.2453 C   0  0  0  0  0  0  0  0  0  0  0  0
  200.4370  182.8216  155.2363 C   0  0  0  0  0  0  0  0  0  0  0  0
  201.0467  178.5661  155.7648 C   0  0  1  0  0  0  0  0  0  0  0  0
  200.0935  177.9508  156.7271 N   0  0  1  0  0  0  0  0  0  0  0  0
  199.6082  176.6367  156.2599 C   0  0  2  0  0  0  0  0  0  0  0  0
  200.6334  177.8767  158.1027 C   0  0  2  0  0  0  0  0  0  0  0  0
  196.2974  181.6361  157.7641 H   0  0  0  0  0  0  0  0  0  0  0  0
  196.9715  181.5051  155.3949 H   0  0  0  0  0  0  0  0  0  0  0  0
  197.8845  185.7253  155.4033 H   0  0  0  0  0  0  0  0  0  0  0  0
  198.4977  184.4097  153.5295 H   0  0  0  0  0  0  0  0  0  0  0  0
  197.3729  182.6104  149.0367 H   0  0  0  0  0  0  0  0  0  0  0  0
  199.4606  181.5788  148.1810 H   0  0  0  0  0  0  0  0  0  0  0  0
  201.2588  180.9200  149.7684 H   0  0  0  0  0  0  0  0  0  0  0  0
  200.9834  181.2825  152.1795 H   0  0  0  0  0  0  0  0  0  0  0  0
  195.8550  183.8104  153.3080 H   0  0  0  0  0  0  0  0  0  0  0  0
  199.3926  179.8327  153.9666 H   0  0  0  0  0  0  0  0  0  0  0  0
  202.1707  180.6220  157.1864 H   0  0  0  0  0  0  0  0  0  0  0  0
  201.8062  183.0589  156.8797 H   0  0  0  0  0  0  0  0  0  0  0  0
  200.3192  183.8871  155.1233 H   0  0  0  0  0  0  0  0  0  0  0  0
  200.9658  178.1099  154.7783 H   0  0  0  0  0  0  0  0  0  0  0  0
  202.0809  178.3840  156.0630 H   0  0  0  0  0  0  0  0  0  0  0  0
  200.4200  175.9139  156.1971 H   0  0  0  0  0  0  0  0  0  0  0  0
  199.1480  176.7252  155.2749 H   0  0  0  0  0  0  0  0  0  0  0  0
  198.8486  176.2551  156.9409 H   0  0  0  0  0  0  0  0  0  0  0  0
  201.5396  177.2725  158.1303 H   0  0  0  0  0  0  0  0  0  0  0  0
  199.9085  177.4345  158.7879 H   0  0  0  0  0  0  0  0  0  0  0  0
  200.8864  178.8693  158.4721 H   0  0  0  0  0  0  0  0  0  0  0  0
  199.2617  178.5279  156.7820 H   0  0  0  0  0  0  0  0  0  0  0  0
  1  2  1  0
  2  3  2  0
  2  8  1  0
  3  4  1  0
  3  5  1  0
  5  6  2  0
  5 30  1  0
  6  7  1  0
  6 31  1  0
  7  8  2  0
  7  9  1  0
  8 32  1  0
  9 10  1  0
  9 19  1  0
  9 33  1  6
 10 11  1  0
 10 20  1  0
 11 12  1  0
 11 16  2  0
 12 13  2  0
 12 17  1  0
 13 14  1  0
 13 34  1  0
 14 15  2  0
 14 35  1  0
 15 16  1  0
 15 36  1  0
 16 37  1  0
 17 18  2  0
 17 19  1  0
 19 38  1  0
 20 21  2  0
 20 25  1  0
 21 22  1  0
 21 39  1  0
 22 23  2  0
 22 26  1  0
 23 24  1  0
 23 40  1  0
 24 25  2  0
 24 41  1  0
 25 42  1  0
 26 27  1  0
 26 43  1  6
 26 44  1  0
 27 28  1  0
 27 29  1  0
 27 51  1  1
 28 45  1  6
 28 46  1  0
 28 47  1  0
 29 48  1  6
 29 49  1  0
 29 50  1  0
M  CHG  1  27   1
M  END
>  <s_epik_Chemistry_Notes>  (672) 
This compound contains an acetal/aminal-like group ( X-CH(R)-Y where X, Y are N, S, or O) that may be acid/base labile, releasing an aldehyde.

>  <s_epik_cmdline>  (672) 
J2VwaWtfcHl0aG9uJywgJy1waCcsICc3LjAwMDAwMCcsICctcGh0JywgJzIuMDAwMDAwJywgJy1tcycsICcxNicsICctdG4nLCAnOCcsICctbWEnLCAnMjAwJywgJy1pbWFlJywgJzxpbmZpbGUubWFlPicsICctb21hZScsICc8b3V0ZmlsZS5tYWU+Jw==

>  <s_epik_input>  (672) 
W2NIXTFbY0hdW2NIXWMoW0NIMl1OKFtDSDNdKVtDSDNdKVtjSF1jMU4yW0NASF0oYyhbY0hdMylbY0hdW2NIXWMoQ2wpYzNDbClbTkhdQyg9TyljKGMyNClbY0hdW2NIXVtjSF1bY0hdNA==

>  <s_i_glide_gridfile>  (672) 
ATP-Grid

>  <s_lp_Force_Field>  (672) 
OPLS_2005

>  <s_lp_Variant>  (672) 
rxn102b____EMOL4279023____EMOL1362850-1

>  <s_lp_label>  (672) 
2826_sdstereoexpander_1_neutralizer_1_epik_1_stereoizer_1

>  <s_m_source_file>  (672) 
ATP-VSW-LIGPREP-002-in.maegz

>  <s_sd_BIOSOLVEIT.INFINISEE\_QUERY\_NAME>  (672) 
Ref-Lig

>  <s_sd_BIOSOLVEIT.INFINISEE\_QUERY\_SMILES>  (672) 
S(c1nc2c(cc1C[NH2+]Cc3ccc(cc3)C[NH+](C)C)cccc2)Cc4ccccc4

>  <s_sd_BIOSOLVEIT.INFINISEE\_REACTION\_NAME>  (672) 
rxn102b

>  <s_sd_BIOSOLVEIT.INFINISEE\_REAGENT1\_NAME>  (672) 
EMOL4279023

>  <s_sd_BIOSOLVEIT.INFINISEE\_REAGENT1\_SMILES>  (672) 
Brc1cc(ccc1)CN(C)C

>  <s_sd_BIOSOLVEIT.INFINISEE\_REAGENT2\_NAME>  (672) 
EMOL1362850

>  <s_sd_BIOSOLVEIT.INFINISEE\_REAGENT2\_SMILES>  (672) 
Clc1c(Cl)ccc(c1)C2Nc3c(cccc3)C(=O)N2

>  <s_sd_BIOSOLVEIT.INFINISEE\_SPACE>  (672) 
eXplore_7tr_2022-12

>  <s_vsw_compound_code>  (672) 
90402

>  <s_vsw_variant>  (672) 
90402-1

>  <r_epik_Charging_Adjusted_Penalty>  (672) 
0.086910724133295897

>  <r_epik_Ionization_Penalty>  (672) 
0.043499999999999997

>  <r_epik_Ionization_Penalty_Charging>  (672) 
0.043499999999999997

>  <r_epik_Ionization_Penalty_Neutral>  (672) 
0

>  <r_epik_State_Penalty>  (672) 
0.043499999999999997

>  <r_i_docking_score>  (672) 
-1.83227151274136

>  <r_i_glide_ecoul>  (672) 
-8.9002447128295898

>  <r_i_glide_eff_state_penalty>  (672) 
0.043499999999999997

>  <r_i_glide_einternal>  (672) 
2.2988233566284202

>  <r_i_glide_emodel>  (672) 
-41.2159977814119

>  <r_i_glide_energy>  (672) 
-36.160353660583503

>  <r_i_glide_erotb>  (672) 
0.32614642946110101

>  <r_i_glide_esite>  (672) 
-0.185564576888264

>  <r_i_glide_evdw>  (672) 
-27.260108947753899

>  <r_i_glide_gscore>  (672) 
-1.8757715127413599

>  <r_i_glide_hbond>  (672) 
-0.16674533676908901

>  <r_i_glide_ligand_efficiency>  (672) 
-0.063181776301426198

>  <r_i_glide_ligand_efficiency_ln>  (672) 
-0.41954371402109297

>  <r_i_glide_ligand_efficiency_sa>  (672) 
-0.194114434189711

>  <r_i_glide_lipo>  (672) 
-0.41411383373982302

>  <r_i_glide_metal>  (672) 
-0

>  <r_i_glide_rewards>  (672) 
1.2625479595068501

>  <r_lp_Energy>  (672) 
29.387328

>  <r_qp_ACxDN^.5/SA>  (672) 
0.0076457000000000001

>  <r_qp_CIQPlogS>  (672) 
-6.0949999999999998

>  <r_qp_EA(eV)>  (672) 
0.754

>  <r_qp_FISA>  (672) 
71.763999999999996

>  <r_qp_FOSA>  (672) 
150.06899999999999

>  <r_qp_IP(eV)>  (672) 
8.4629999999999992

>  <r_qp_Jm>  (672) 
0.00050626259271551095

>  <r_qp_PISA>  (672) 
314.68700000000001

>  <r_qp_PSA>  (672) 
48.512

>  <r_qp_PercentHumanOralAbsorption>  (672) 
100

>  <r_qp_QPPCaco>  (672) 
515.53399999999999

>  <r_qp_QPPMDCK>  (672) 
1176.385

>  <r_qp_QPlogBB>  (672) 
0.46400000000000002

>  <r_qp_QPlogHERG>  (672) 
-6.2229999999999999

>  <r_qp_QPlogKhsa>  (672) 
0.90500000000000003

>  <r_qp_QPlogKp>  (672) 
-3.6040000000000001

>  <r_qp_QPlogPC16>  (672) 
13.398

>  <r_qp_QPlogPo/w>  (672) 
4.6989999999999998

>  <r_qp_QPlogPoct>  (672) 
19.939

>  <r_qp_QPlogPw>  (672) 
9.9109999999999996

>  <r_qp_QPlogS>  (672) 
-5.3209999999999997

>  <r_qp_QPpolrz>  (672) 
44.685000000000002

>  <r_qp_SASA>  (672) 
653.96000000000004

>  <r_qp_SAamideO>  (672) 
0

>  <r_qp_SAfluorine>  (672) 
0

>  <r_qp_WPSA>  (672) 
117.44

>  <r_qp_accptHB>  (672) 
5

>  <r_qp_dip^2/V>  (672) 
0.026868699999999999

>  <r_qp_dipole>  (672) 
5.7430000000000003

>  <r_qp_donorHB>  (672) 
1

>  <r_qp_glob>  (672) 
0.84773220000000005

>  <r_qp_mol_MW>  (672) 
426.34399999999999

>  <r_qp_volume>  (672) 
1227.347

>  <r_sd_BIOSOLVEIT.INFINISEE\_FTREES\_SIMILARITY>  (672) 
0.90600000000000003

>  <r_sd_BIOSOLVEIT.LOGP>  (672) 
4.2182000000000004

>  <r_sd_BIOSOLVEIT.MOLECULAR\_WEIGHT>  (672) 
427.35300000000001

>  <r_sd_BIOSOLVEIT.TPSA>  (672) 
36.780000000000001

>  <i_epik_Tot_Q>  (672) 
1

>  <i_epik_Tot_abs_Q>  (672) 
1

>  <i_f3d_flags>  (672) 
0

>  <i_i_glide_confnum>  (672) 
5

>  <i_i_glide_lignum>  (672) 
1382

>  <i_i_glide_posenum>  (672) 
14

>  <i_i_glide_rotatable_bonds>  (672) 
4

>  <i_lp_mmshare_version>  (672) 
65135

>  <i_m_ct_format>  (672) 
2

>  <i_m_source_file_index>  (672) 
2826

>  <i_qp_#NandO>  (672) 
4

>  <i_qp_#acid>  (672) 
0

>  <i_qp_#amide>  (672) 
0

>  <i_qp_#amidine>  (672) 
0

>  <i_qp_#amine>  (672) 
1

>  <i_qp_#in34>  (672) 
0

>  <i_qp_#in56>  (672) 
22

>  <i_qp_#metab>  (672) 
4

>  <i_qp_#nonHatm>  (672) 
29

>  <i_qp_#noncon>  (672) 
1

>  <i_qp_#ringatoms>  (672) 
22

>  <i_qp_#rotor>  (672) 
2

>  <i_qp_#rtvFG>  (672) 
0

>  <i_qp_#stars>  (672) 
0

>  <i_qp_CNS>  (672) 
2

>  <i_qp_HumanOralAbsorption>  (672) 
3

>  <i_qp_RuleOfFive>  (672) 
0

>  <i_qp_RuleOfThree>  (672) 
0

>  <i_sd_BIOSOLVEIT.INFINISEE\_RESULT\_RANK>  (672) 
66020

>  <i_sd_version>  (672) 
0

>  <b_lp_Chiralities_Consistent>  (672) 
1

>  <b_sd_chiral_flag>  (672) 
0

>  <canonical_id>  (672) 
ATP-HTVS-681E21A5C336

>  <compound_code>  (672) 
90402

>  <title>  (672) 
rxn102b____EMOL4279023____EMOL1362850

>  <variant>  (672) 
90402-1

>  <source_file>  (672) 
运行/运行/ATP-VSW/ATP-VSW-DOCK_HTVS_1-002_lib.maegz

>  <canonical_smiles>  (672) 
C[NH+](C)Cc1cccc(N2c3ccccc3C(=O)N[C@H]2c2ccc(Cl)c(Cl)c2)c1

>  <scaffold>  (672) 
O=C1NC(c2ccccc2)N(c2ccccc2)c2ccccc21

>  <molecular_formula>  (672) 
C23H22Cl2N3O+

$$$$
ATP-HTVS-684B476D1E6A
     RDKit          3D

 62 65  0  0  0  0  0  0  0  0999 V2000
  200.2460  184.2556  156.8011 O   0  0  0  0  0  0  0  0  0  0  0  0
  199.9347  183.1965  157.3167 C   0  0  0  0  0  0  0  0  0  0  0  0
  198.9831  183.0208  158.2726 N   0  0  0  0  0  0  0  0  0  0  0  0
  198.1307  184.0323  158.8211 C   0  0  0  0  0  0  0  0  0  0  0  0
  198.5962  185.3057  159.2745 C   0  0  0  0  0  0  0  0  0  0  0  0
  199.9767  185.6474  159.3732 N   0  0  0  0  0  0  0  0  0  0  0  0
  200.3577  187.0731  159.3449 C   0  0  1  0  0  0  0  0  0  0  0  0
  200.3540  187.6015  157.9657 C   0  0  0  0  0  0  0  0  0  0  0  0
  200.3533  188.0132  156.8819 N   0  0  0  0  0  0  0  0  0  0  0  0
  200.8544  184.6644  160.0347 C   0  0  1  0  0  0  0  0  0  0  0  0
  202.2717  185.1411  160.2883 C   0  0  0  0  0  0  0  0  0  0  0  0
  202.6704  185.4934  161.5922 C   0  0  0  0  0  0  0  0  0  0  0  0
  203.9757  185.9612  161.8252 C   0  0  0  0  0  0  0  0  0  0  0  0
  204.8847  186.0721  160.7544 C   0  0  0  0  0  0  0  0  0  0  0  0
  204.4946  185.7054  159.4509 C   0  0  0  0  0  0  0  0  0  0  0  0
  203.1880  185.2356  159.2173 C   0  0  0  0  0  0  0  0  0  0  0  0
  197.6015  186.2498  159.6750 C   0  0  0  0  0  0  0  0  0  0  0  0
  196.2823  185.9964  159.6950 N   0  0  0  0  0  0  0  0  0  0  0  0
  195.8423  184.7705  159.3488 C   0  0  0  0  0  0  0  0  0  0  0  0
  196.7330  183.7550  158.9091 C   0  0  0  0  0  0  0  0  0  0  0  0
  196.2136  182.4873  158.5617 C   0  0  0  0  0  0  0  0  0  0  0  0
  194.8242  182.2656  158.5423 C   0  0  0  0  0  0  0  0  0  0  0  0
  193.9482  183.2908  158.8990 C   0  0  0  0  0  0  0  0  0  0  0  0
  194.4580  184.5246  159.3547 C   0  0  0  0  0  0  0  0  0  0  0  0
  200.5749  181.9153  156.8582 C   0  0  0  0  0  0  0  0  0  0  0  0
  199.9937  181.1185  155.8344 C   0  0  0  0  0  0  0  0  0  0  0  0
  200.6707  179.9565  155.3989 C   0  0  0  0  0  0  0  0  0  0  0  0
  201.9009  179.5934  155.9727 C   0  0  0  0  0  0  0  0  0  0  0  0
  202.4743  180.3886  156.9791 C   0  0  0  0  0  0  0  0  0  0  0  0
  201.8132  181.5504  157.4166 C   0  0  0  0  0  0  0  0  0  0  0  0
  198.6668  181.4634  155.1650 C   0  0  1  0  0  0  0  0  0  0  0  0
  197.5225  180.7424  155.7708 N   0  0  2  0  0  0  0  0  0  0  0  0
  197.2511  179.4156  155.1631 C   0  0  2  0  0  0  0  0  0  0  0  0
  196.3164  181.5968  155.7970 C   0  0  2  0  0  0  0  0  0  0  0  0
  198.7958  182.0834  158.5600 H   0  0  0  0  0  0  0  0  0  0  0  0
  199.7266  187.7109  159.9730 H   0  0  0  0  0  0  0  0  0  0  0  0
  201.3730  187.2490  159.7139 H   0  0  0  0  0  0  0  0  0  0  0  0
  200.3887  184.3380  160.9632 H   0  0  0  0  0  0  0  0  0  0  0  0
  200.9797  183.7518  159.4549 H   0  0  0  0  0  0  0  0  0  0  0  0
  201.9581  185.4312  162.4025 H   0  0  0  0  0  0  0  0  0  0  0  0
  204.2625  186.2537  162.8241 H   0  0  0  0  0  0  0  0  0  0  0  0
  205.8816  186.4412  160.9373 H   0  0  0  0  0  0  0  0  0  0  0  0
  205.1899  185.8085  158.6299 H   0  0  0  0  0  0  0  0  0  0  0  0
  202.8817  184.9776  158.2122 H   0  0  0  0  0  0  0  0  0  0  0  0
  197.8459  187.2263  160.0501 H   0  0  0  0  0  0  0  0  0  0  0  0
  196.8572  181.6510  158.2554 H   0  0  0  0  0  0  0  0  0  0  0  0
  194.4287  181.2950  158.2745 H   0  0  0  0  0  0  0  0  0  0  0  0
  192.8816  183.1235  158.8855 H   0  0  0  0  0  0  0  0  0  0  0  0
  193.7755  185.2938  159.7016 H   0  0  0  0  0  0  0  0  0  0  0  0
  200.2513  179.3446  154.6121 H   0  0  0  0  0  0  0  0  0  0  0  0
  202.4107  178.7042  155.6379 H   0  0  0  0  0  0  0  0  0  0  0  0
  203.4191  180.1058  157.4147 H   0  0  0  0  0  0  0  0  0  0  0  0
  202.2703  182.1643  158.1768 H   0  0  0  0  0  0  0  0  0  0  0  0
  198.4982  182.5372  155.2359 H   0  0  0  0  0  0  0  0  0  0  0  0
  198.7108  181.2795  154.0923 H   0  0  0  0  0  0  0  0  0  0  0  0
  196.8940  179.5408  154.1397 H   0  0  0  0  0  0  0  0  0  0  0  0
  196.4757  178.9003  155.7321 H   0  0  0  0  0  0  0  0  0  0  0  0
  198.1278  178.7598  155.1565 H   0  0  0  0  0  0  0  0  0  0  0  0
  195.9262  181.7501  154.7813 H   0  0  0  0  0  0  0  0  0  0  0  0
  196.5139  182.5143  156.3567 H   0  0  0  0  0  0  0  0  0  0  0  0
  195.5537  181.0582  156.3560 H   0  0  0  0  0  0  0  0  0  0  0  0
  197.7686  180.5289  156.7282 H   0  0  0  0  0  0  0  0  0  0  0  0
  1  2  2  0
  2  3  1  0
  2 25  1  0
  3  4  1  0
  3 35  1  0
  4  5  2  0
  4 20  1  0
  5  6  1  0
  5 17  1  0
  6  7  1  0
  6 10  1  0
  7  8  1  0
  7 36  1  1
  7 37  1  0
  8  9  3  0
 10 11  1  0
 10 38  1  1
 10 39  1  0
 11 12  2  0
 11 16  1  0
 12 13  1  0
 12 40  1  0
 13 14  2  0
 13 41  1  0
 14 15  1  0
 14 42  1  0
 15 16  2  0
 15 43  1  0
 16 44  1  0
 17 18  2  0
 17 45  1  0
 18 19  1  0
 19 20  1  0
 19 24  2  0
 20 21  2  0
 21 22  1  0
 21 46  1  0
 22 23  2  0
 22 47  1  0
 23 24  1  0
 23 48  1  0
 24 49  1  0
 25 26  1  0
 25 30  2  0
 26 27  2  0
 26 31  1  0
 27 28  1  0
 27 50  1  0
 28 29  2  0
 28 51  1  0
 29 30  1  0
 29 52  1  0
 30 53  1  0
 31 32  1  0
 31 54  1  6
 31 55  1  0
 32 33  1  0
 32 34  1  0
 32 62  1  1
 33 56  1  6
 33 57  1  0
 33 58  1  0
 34 59  1  6
 34 60  1  0
 34 61  1  0
M  CHG  1  32   1
M  END
>  <s_epik_cmdline>  (673) 
J2VwaWtfcHl0aG9uJywgJy1waCcsICc3LjAwMDAwMCcsICctcGh0JywgJzIuMDAwMDAwJywgJy1tcycsICcxNicsICctdG4nLCAnOCcsICctbWEnLCAnMjAwJywgJy1pbWFlJywgJzxpbmZpbGUubWFlPicsICctb21hZScsICc8b3V0ZmlsZS5tYWU+Jw==

>  <s_epik_input>  (673) 
W2NIXTFbY0hdW2NIXVtjSF1jKFtDSDJdTihbQ0gzXSlbQ0gzXSljMUMoPU8pW05IXWMoYyhjMjMpW2NIXVtjSF1bY0hdW2NIXTMpYyhbY0hdbjIpTihbQ0gyXUMjTilbQ0gyXWM0W2NIXVtjSF1bY0hdW2NIXVtjSF00

>  <s_i_glide_gridfile>  (673) 
ATP-Grid

>  <s_lp_Force_Field>  (673) 
OPLS_2005

>  <s_lp_Variant>  (673) 
rxn502b____EMOL5415347____EMOL13728749____EMOL300091282-1

>  <s_lp_label>  (673) 
2261_sdstereoexpander_1_neutralizer_1_epik_1_stereoizer_1

>  <s_m_source_file>  (673) 
ATP-VSW-LIGPREP-002-in.maegz

>  <s_sd_BIOSOLVEIT.INFINISEE\_QUERY\_NAME>  (673) 
Ref-Lig

>  <s_sd_BIOSOLVEIT.INFINISEE\_QUERY\_SMILES>  (673) 
S(c1nc2c(cc1C[NH2+]Cc3ccc(cc3)C[NH+](C)C)cccc2)Cc4ccccc4

>  <s_sd_BIOSOLVEIT.INFINISEE\_REACTION\_NAME>  (673) 
rxn502b

>  <s_sd_BIOSOLVEIT.INFINISEE\_REAGENT1\_NAME>  (673) 
EMOL5415347

>  <s_sd_BIOSOLVEIT.INFINISEE\_REAGENT1\_SMILES>  (673) 
O=C(O)c1c(cccc1)CN(C)C

>  <s_sd_BIOSOLVEIT.INFINISEE\_REAGENT2\_NAME>  (673) 
EMOL13728749

>  <s_sd_BIOSOLVEIT.INFINISEE\_REAGENT2\_SMILES>  (673) 
Brc1c(N)c2c(nc1)cccc2

>  <s_sd_BIOSOLVEIT.INFINISEE\_REAGENT3\_NAME>  (673) 
EMOL300091282

>  <s_sd_BIOSOLVEIT.INFINISEE\_REAGENT3\_SMILES>  (673) 
N#CCNCc1ccccc1

>  <s_sd_BIOSOLVEIT.INFINISEE\_SPACE>  (673) 
eXplore_7tr_2022-12

>  <s_vsw_compound_code>  (673) 
72322

>  <s_vsw_variant>  (673) 
72322-1

>  <r_epik_Charging_Adjusted_Penalty>  (673) 
0.14093146563278799

>  <r_epik_Ionization_Penalty>  (673) 
0.082699999999999996

>  <r_epik_Ionization_Penalty_Charging>  (673) 
0.060600000000000001

>  <r_epik_Ionization_Penalty_Neutral>  (673) 
0.021999999999999999

>  <r_epik_State_Penalty>  (673) 
0.080299999999999996

>  <r_i_docking_score>  (673) 
-3.82090535284981

>  <r_i_glide_ecoul>  (673) 
-8.1060056686401403

>  <r_i_glide_eff_state_penalty>  (673) 
0.080299999999999996

>  <r_i_glide_einternal>  (673) 
5.7840495109558097

>  <r_i_glide_emodel>  (673) 
-50.302301927283501

>  <r_i_glide_energy>  (673) 
-39.467265129089398

>  <r_i_glide_erotb>  (673) 
0.69137857178598805

>  <r_i_glide_esite>  (673) 
-0.074341834840479903

>  <r_i_glide_evdw>  (673) 
-31.361259460449201

>  <r_i_glide_gscore>  (673) 
-3.9012053528498098

>  <r_i_glide_hbond>  (673) 
0

>  <r_i_glide_ligand_efficiency>  (673) 
-0.112379569201465

>  <r_i_glide_ligand_efficiency_ln>  (673) 
-0.84414516520948801

>  <r_i_glide_ligand_efficiency_sa>  (673) 
-0.36406617817960302

>  <r_i_glide_lipo>  (673) 
-1.06832641736471

>  <r_i_glide_metal>  (673) 
-0

>  <r_i_glide_rewards>  (673) 
-0.66595184911212801

>  <r_lp_Energy>  (673) 
39.931508000000001

>  <r_qp_ACxDN^.5/SA>  (673) 
0.0107607

>  <r_qp_CIQPlogS>  (673) 
-6.4109999999999996

>  <r_qp_EA(eV)>  (673) 
1.111

>  <r_qp_FISA>  (673) 
75.109999999999999

>  <r_qp_FOSA>  (673) 
208.53200000000001

>  <r_qp_IP(eV)>  (673) 
8.6539999999999999

>  <r_qp_Jm>  (673) 
0.011594235402322

>  <r_qp_PISA>  (673) 
459.80200000000002

>  <r_qp_PSA>  (673) 
70.141999999999996

>  <r_qp_PercentHumanOralAbsorption>  (673) 
100

>  <r_qp_QPPCaco>  (673) 
479.221

>  <r_qp_QPPMDCK>  (673) 
247.131

>  <r_qp_QPlogBB>  (673) 
-0.313

>  <r_qp_QPlogHERG>  (673) 
-7.258

>  <r_qp_QPlogKhsa>  (673) 
0.53500000000000003

>  <r_qp_QPlogKp>  (673) 
-2.4830000000000001

>  <r_qp_QPlogPC16>  (673) 
15.464

>  <r_qp_QPlogPo/w>  (673) 
4.4119999999999999

>  <r_qp_QPlogPoct>  (673) 
23.277000000000001

>  <r_qp_QPlogPw>  (673) 
12.506

>  <r_qp_QPlogS>  (673) 
-5.1059999999999999

>  <r_qp_QPpolrz>  (673) 
49.774000000000001

>  <r_qp_SASA>  (673) 
743.44399999999996

>  <r_qp_SAamideO>  (673) 
0

>  <r_qp_SAfluorine>  (673) 
0

>  <r_qp_WPSA>  (673) 
0

>  <r_qp_accptHB>  (673) 
8

>  <r_qp_dip^2/V>  (673) 
0.063693399999999997

>  <r_qp_dipole>  (673) 
9.5510000000000002

>  <r_qp_donorHB>  (673) 
1

>  <r_qp_glob>  (673) 
0.8265093

>  <r_qp_mol_MW>  (673) 
449.55399999999997

>  <r_qp_volume>  (673) 
1432.1759999999999

>  <r_sd_BIOSOLVEIT.INFINISEE\_FTREES\_SIMILARITY>  (673) 
0.92600000000000005

>  <r_sd_BIOSOLVEIT.LOGP>  (673) 
3.6617799999999998

>  <r_sd_BIOSOLVEIT.MOLECULAR\_WEIGHT>  (673) 
450.56299999999999

>  <r_sd_BIOSOLVEIT.TPSA>  (673) 
73.459999999999994

>  <i_epik_Tot_Q>  (673) 
1

>  <i_epik_Tot_abs_Q>  (673) 
1

>  <i_f3d_flags>  (673) 
0

>  <i_i_glide_confnum>  (673) 
8

>  <i_i_glide_lignum>  (673) 
895

>  <i_i_glide_posenum>  (673) 
18

>  <i_i_glide_rotatable_bonds>  (673) 
9

>  <i_lp_mmshare_version>  (673) 
65135

>  <i_m_ct_format>  (673) 
2

>  <i_m_source_file_index>  (673) 
2261

>  <i_qp_#NandO>  (673) 
6

>  <i_qp_#acid>  (673) 
0

>  <i_qp_#amide>  (673) 
0

>  <i_qp_#amidine>  (673) 
0

>  <i_qp_#amine>  (673) 
1

>  <i_qp_#in34>  (673) 
0

>  <i_qp_#in56>  (673) 
22

>  <i_qp_#metab>  (673) 
6

>  <i_qp_#nonHatm>  (673) 
34

>  <i_qp_#noncon>  (673) 
0

>  <i_qp_#ringatoms>  (673) 
22

>  <i_qp_#rotor>  (673) 
9

>  <i_qp_#rtvFG>  (673) 
0

>  <i_qp_#stars>  (673) 
1

>  <i_qp_CNS>  (673) 
1

>  <i_qp_HumanOralAbsorption>  (673) 
3

>  <i_qp_RuleOfFive>  (673) 
0

>  <i_qp_RuleOfThree>  (673) 
0

>  <i_sd_BIOSOLVEIT.INFINISEE\_RESULT\_RANK>  (673) 
8472

>  <i_sd_version>  (673) 
0

>  <b_lp_Chiralities_Consistent>  (673) 
1

>  <b_sd_chiral_flag>  (673) 
0

>  <canonical_id>  (673) 
ATP-HTVS-684B476D1E6A

>  <compound_code>  (673) 
72322

>  <title>  (673) 
rxn502b____EMOL5415347____EMOL13728749____EMOL300091282

>  <variant>  (673) 
72322-1

>  <source_file>  (673) 
运行/运行/ATP-VSW/ATP-VSW-DOCK_HTVS_1-002_lib.maegz

>  <canonical_smiles>  (673) 
C[NH+](C)Cc1ccccc1C(=O)Nc1c(N(CC#N)Cc2ccccc2)cnc2ccccc12

>  <scaffold>  (673) 
O=C(Nc1c(NCc2ccccc2)cnc2ccccc12)c1ccccc1

>  <molecular_formula>  (673) 
C28H28N5O+

$$$$
ATP-HTVS-68829DCC26F9
     RDKit          3D

 60 63  0  0  0  0  0  0  0  0999 V2000
  198.5107  182.1911  154.3296 O   0  0  0  0  0  0  0  0  0  0  0  0
  197.4653  181.5964  154.6294 C   0  0  0  0  0  0  0  0  0  0  0  0
  197.2462  181.0613  155.8306 N   0  0  0  0  0  0  0  0  0  0  0  0
  198.1942  181.0893  156.9336 C   0  0  1  0  0  0  0  0  0  0  0  0
  198.1160  182.3741  157.7216 C   0  0  0  0  0  0  0  0  0  0  0  0
  196.8656  182.8386  158.1773 C   0  0  0  0  0  0  0  0  0  0  0  0
  196.7901  184.0799  158.8607 C   0  0  0  0  0  0  0  0  0  0  0  0
  195.5287  184.5504  159.2554 N   0  0  0  0  0  0  0  0  0  0  0  0
  195.3078  185.9511  159.6075 C   0  0  2  0  0  0  0  0  0  0  0  0
  195.7202  186.9122  158.4707 C   0  0  2  0  0  0  0  0  0  0  0  0
  195.8604  186.3086  161.0071 C   0  0  2  0  0  0  0  0  0  0  0  0
  197.9939  184.8042  159.1045 C   0  0  0  0  0  0  0  0  0  0  0  0
  199.2318  184.2958  158.6779 C   0  0  0  0  0  0  0  0  0  0  0  0
  199.3044  183.0851  157.9748 C   0  0  0  0  0  0  0  0  0  0  0  0
  196.3469  181.4040  153.6095 C   0  0  1  0  0  0  0  0  0  0  0  0
  196.8366  181.4490  152.2381 N   0  0  0  0  0  0  0  0  0  0  0  0
  197.2962  180.3503  151.5024 C   0  0  0  0  0  0  0  0  0  0  0  0
  197.6539  180.8955  150.2420 C   0  0  0  0  0  0  0  0  0  0  0  0
  197.4323  182.2370  150.2097 N   0  0  0  0  0  0  0  0  0  0  0  0
  196.9639  182.5182  151.4171 C   0  0  0  0  0  0  0  0  0  0  0  0
  196.5490  183.9339  151.7951 C   0  0  1  0  0  0  0  0  0  0  0  0
  197.5742  184.8639  151.4362 O   0  0  0  0  0  0  0  0  0  0  0  0
  197.8686  185.1198  150.1128 C   0  0  0  0  0  0  0  0  0  0  0  0
  199.1029  185.7415  149.8283 C   0  0  0  0  0  0  0  0  0  0  0  0
  199.5573  185.8759  148.5077 C   0  0  0  0  0  0  0  0  0  0  0  0
  198.7780  185.4036  147.4363 C   0  0  0  0  0  0  0  0  0  0  0  0
  197.5367  184.8080  147.7040 C   0  0  0  0  0  0  0  0  0  0  0  0
  197.0522  184.7306  149.0134 C   0  0  0  0  0  0  0  0  0  0  0  0
  198.1561  180.0406  149.2455 C   0  0  0  0  0  0  0  0  0  0  0  0
  198.3089  178.6584  149.4651 C   0  0  0  0  0  0  0  0  0  0  0  0
  197.9609  178.1137  150.7416 C   0  0  0  0  0  0  0  0  0  0  0  0
  197.4437  178.9631  151.7666 C   0  0  0  0  0  0  0  0  0  0  0  0
  196.3672  180.5893  156.0253 H   0  0  0  0  0  0  0  0  0  0  0  0
  197.9684  180.2499  157.5931 H   0  0  0  0  0  0  0  0  0  0  0  0
  199.2135  180.9471  156.5580 H   0  0  0  0  0  0  0  0  0  0  0  0
  195.9691  182.2733  157.9697 H   0  0  0  0  0  0  0  0  0  0  0  0
  194.7354  184.0650  158.8682 H   0  0  0  0  0  0  0  0  0  0  0  0
  194.2363  186.0215  159.7007 H   0  0  0  0  0  0  0  0  0  0  0  0
  195.5223  187.9457  158.7327 H   0  0  0  0  0  0  0  0  0  0  0  0
  195.1819  186.6671  157.5522 H   0  0  0  0  0  0  0  0  0  0  0  0
  196.7783  186.8869  158.2199 H   0  0  0  0  0  0  0  0  0  0  0  0
  195.6006  187.3398  161.2743 H   0  0  0  0  0  0  0  0  0  0  0  0
  196.9331  186.1862  161.1052 H   0  0  0  0  0  0  0  0  0  0  0  0
  195.3444  185.6821  161.7421 H   0  0  0  0  0  0  0  0  0  0  0  0
  198.0124  185.7737  159.5935 H   0  0  0  0  0  0  0  0  0  0  0  0
  200.1198  184.8678  158.8689 H   0  0  0  0  0  0  0  0  0  0  0  0
  200.2597  182.7306  157.6165 H   0  0  0  0  0  0  0  0  0  0  0  0
  195.8676  180.4407  153.8092 H   0  0  0  0  0  0  0  0  0  0  0  0
  195.6012  182.1871  153.7720 H   0  0  0  0  0  0  0  0  0  0  0  0
  195.5984  184.1717  151.3251 H   0  0  0  0  0  0  0  0  0  0  0  0
  196.4077  184.0357  152.8642 H   0  0  0  0  0  0  0  0  0  0  0  0
  199.7560  186.0197  150.6574 H   0  0  0  0  0  0  0  0  0  0  0  0
  200.5181  186.3287  148.3081 H   0  0  0  0  0  0  0  0  0  0  0  0
  199.1332  185.4649  146.4104 H   0  0  0  0  0  0  0  0  0  0  0  0
  196.9560  184.3502  146.9126 H   0  0  0  0  0  0  0  0  0  0  0  0
  196.0871  184.2510  149.1777 H   0  0  0  0  0  0  0  0  0  0  0  0
  198.4156  180.4751  148.2983 H   0  0  0  0  0  0  0  0  0  0  0  0
  198.6865  178.0246  148.6749 H   0  0  0  0  0  0  0  0  0  0  0  0
  198.0893  177.0442  150.9128 H   0  0  0  0  0  0  0  0  0  0  0  0
  197.1812  178.5698  152.7461 H   0  0  0  0  0  0  0  0  0  0  0  0
  1  2  2  0
  2  3  1  0
  2 15  1  0
  3  4  1  0
  3 33  1  0
  4  5  1  0
  4 34  1  1
  4 35  1  0
  5  6  1  0
  5 14  2  0
  6  7  2  0
  6 36  1  0
  7  8  1  0
  7 12  1  0
  8  9  1  0
  8 37  1  0
  9 10  1  0
  9 11  1  0
  9 38  1  1
 10 39  1  1
 10 40  1  0
 10 41  1  0
 11 42  1  1
 11 43  1  0
 11 44  1  0
 12 13  2  0
 12 45  1  0
 13 14  1  0
 13 46  1  0
 14 47  1  0
 15 16  1  0
 15 48  1  1
 15 49  1  0
 16 17  1  0
 16 20  1  0
 17 18  1  0
 17 32  2  0
 18 19  1  0
 18 29  2  0
 19 20  2  0
 20 21  1  0
 21 22  1  0
 21 50  1  6
 21 51  1  0
 22 23  1  0
 23 24  2  0
 23 28  1  0
 24 25  1  0
 24 52  1  0
 25 26  2  0
 25 53  1  0
 26 27  1  0
 26 54  1  0
 27 28  2  0
 27 55  1  0
 28 56  1  0
 29 30  1  0
 29 57  1  0
 30 31  2  0
 30 58  1  0
 31 32  1  0
 31 59  1  0
 32 60  1  0
M  END
>  <s_epik_cmdline>  (674) 
J2VwaWtfcHl0aG9uJywgJy1waCcsICc3LjAwMDAwMCcsICctcGh0JywgJzIuMDAwMDAwJywgJy1tcycsICcxNicsICctdG4nLCAnOCcsICctbWEnLCAnMjAwJywgJy1pbWFlJywgJzxpbmZpbGUubWFlPicsICctb21hZScsICc8b3V0ZmlsZS5tYWU+Jw==

>  <s_epik_input>  (674) 
W0NIM11bQ0hdKFtDSDNdKVtOSF1jKFtjSF1bY0hdW2NIXTEpW2NIXWMxW0NIMl1bTkhdQyg9TylbQ0gyXW4yYyhuYyhjMjMpW2NIXVtjSF1bY0hdW2NIXTMpW0NIMl1PYzRbY0hdW2NIXVtjSF1bY0hdW2NIXTQ=

>  <s_i_glide_gridfile>  (674) 
ATP-Grid

>  <s_lp_Force_Field>  (674) 
OPLS_2005

>  <s_lp_Variant>  (674) 
m_527bbb____6951180____214828-1

>  <s_lp_label>  (674) 
751_sdstereoexpander_1_neutralizer_1_epik_1_stereoizer_1

>  <s_m_source_file>  (674) 
ATP-VSW-LIGPREP-002-in.maegz

>  <s_sd_BIOSOLVEIT.INFINISEE\_QUERY\_NAME>  (674) 
Ref-Lig

>  <s_sd_BIOSOLVEIT.INFINISEE\_QUERY\_SMILES>  (674) 
S(c1nc2c(cc1C[NH2+]Cc3ccc(cc3)C[NH+](C)C)cccc2)Cc4ccccc4

>  <s_sd_BIOSOLVEIT.INFINISEE\_REACTION\_NAME>  (674) 
m_527bbb

>  <s_sd_BIOSOLVEIT.INFINISEE\_REAGENT1\_SMILES>  (674) 
[R1*]NCc1cc(NC(C)C)ccc1

>  <s_sd_BIOSOLVEIT.INFINISEE\_REAGENT2\_SMILES>  (674) 
[R1*]C(=O)CN1c2c(N=C1COc3ccccc3)cccc2

>  <s_sd_BIOSOLVEIT.INFINISEE\_SPACE>  (674) 
REALSpace_44bn_2023-08

>  <s_vsw_compound_code>  (674) 
24002

>  <s_vsw_variant>  (674) 
24002-1

>  <r_epik_Charging_Adjusted_Penalty>  (674) 
0.042187842092252098

>  <r_epik_Ionization_Penalty>  (674) 
0.042200000000000001

>  <r_epik_Ionization_Penalty_Charging>  (674) 
0

>  <r_epik_Ionization_Penalty_Neutral>  (674) 
0.042200000000000001

>  <r_epik_State_Penalty>  (674) 
0.042200000000000001

>  <r_i_docking_score>  (674) 
-3.9473953687990702

>  <r_i_glide_ecoul>  (674) 
-3.98904228210449

>  <r_i_glide_eff_state_penalty>  (674) 
0.042200000000000001

>  <r_i_glide_einternal>  (674) 
1.81736183166504

>  <r_i_glide_emodel>  (674) 
-49.643523481375297

>  <r_i_glide_energy>  (674) 
-39.571260452270501

>  <r_i_glide_erotb>  (674) 
0.97356474773853996

>  <r_i_glide_esite>  (674) 
-0.091373297191027894

>  <r_i_glide_evdw>  (674) 
-35.582218170166001

>  <r_i_glide_gscore>  (674) 
-3.98959536879907

>  <r_i_glide_hbond>  (674) 
-0.0062592535659598096

>  <r_i_glide_ligand_efficiency>  (674) 
-0.123356105274971

>  <r_i_glide_ligand_efficiency_ln>  (674) 
-0.88392942500793803

>  <r_i_glide_ligand_efficiency_sa>  (674) 
-0.39163122210794699

>  <r_i_glide_lipo>  (674) 
-1.96570961433955

>  <r_i_glide_metal>  (674) 
-0

>  <r_i_glide_rewards>  (674) 
-0.52235070061709599

>  <r_lp_Energy>  (674) 
13.065302000000001

>  <r_lp_tautomer_probability>  (674) 
1

>  <r_qp_ACxDN^.5/SA>  (674) 
0.0116335

>  <r_qp_CIQPlogS>  (674) 
-6.1779999999999999

>  <r_qp_EA(eV)>  (674) 
0.55300000000000005

>  <r_qp_FISA>  (674) 
49.121000000000002

>  <r_qp_FOSA>  (674) 
225.965

>  <r_qp_IP(eV)>  (674) 
8.0250000000000004

>  <r_qp_Jm>  (674) 
7.5713537342422503

>  <r_qp_PISA>  (674) 
423.90800000000002

>  <r_qp_PSA>  (674) 
65.159999999999997

>  <r_qp_PercentHumanOralAbsorption>  (674) 
100

>  <r_qp_QPPCaco>  (674) 
2349.5500000000002

>  <r_qp_QPPMDCK>  (674) 
1850.567

>  <r_qp_QPlogBB>  (674) 
-0.434

>  <r_qp_QPlogHERG>  (674) 
-4.6310000000000002

>  <r_qp_QPlogKhsa>  (674) 
0.45400000000000001

>  <r_qp_QPlogKp>  (674) 
-0.067000000000000004

>  <r_qp_QPlogPC16>  (674) 
14.567

>  <r_qp_QPlogPo/w>  (674) 
4.8019999999999996

>  <r_qp_QPlogPoct>  (674) 
21.588999999999999

>  <r_qp_QPlogPw>  (674) 
12.706

>  <r_qp_QPlogS>  (674) 
-4.6849999999999996

>  <r_qp_QPpolrz>  (674) 
46.466999999999999

>  <r_qp_SASA>  (674) 
698.99400000000003

>  <r_qp_SAamideO>  (674) 
19.986999999999998

>  <r_qp_SAfluorine>  (674) 
0

>  <r_qp_WPSA>  (674) 
0

>  <r_qp_accptHB>  (674) 
5.75

>  <r_qp_dip^2/V>  (674) 
0.0168145

>  <r_qp_dipole>  (674) 
4.7789999999999999

>  <r_qp_donorHB>  (674) 
2

>  <r_qp_glob>  (674) 
0.84849180000000002

>  <r_qp_mol_MW>  (674) 
428.53300000000002

>  <r_qp_volume>  (674) 
1358.1079999999999

>  <r_sd_BIOSOLVEIT.INFINISEE\_FTREES\_SIMILARITY>  (674) 
0.92600000000000005

>  <r_sd_BIOSOLVEIT.LOGP>  (674) 
4.7519999999999998

>  <r_sd_BIOSOLVEIT.MOLECULAR\_WEIGHT>  (674) 
428.53300000000002

>  <r_sd_BIOSOLVEIT.TPSA>  (674) 
68.180000000000007

>  <i_epik_Tot_Q>  (674) 
0

>  <i_epik_Tot_abs_Q>  (674) 
0

>  <i_f3d_flags>  (674) 
0

>  <i_i_glide_confnum>  (674) 
12

>  <i_i_glide_lignum>  (674) 
234

>  <i_i_glide_posenum>  (674) 
19

>  <i_i_glide_rotatable_bonds>  (674) 
10

>  <i_lp_mmshare_version>  (674) 
65135

>  <i_m_ct_format>  (674) 
2

>  <i_m_source_file_index>  (674) 
751

>  <i_qp_#NandO>  (674) 
6

>  <i_qp_#acid>  (674) 
0

>  <i_qp_#amide>  (674) 
1

>  <i_qp_#amidine>  (674) 
0

>  <i_qp_#amine>  (674) 
0

>  <i_qp_#in34>  (674) 
0

>  <i_qp_#in56>  (674) 
21

>  <i_qp_#metab>  (674) 
7

>  <i_qp_#nonHatm>  (674) 
32

>  <i_qp_#noncon>  (674) 
0

>  <i_qp_#ringatoms>  (674) 
21

>  <i_qp_#rotor>  (674) 
9

>  <i_qp_#rtvFG>  (674) 
0

>  <i_qp_#stars>  (674) 
0

>  <i_qp_CNS>  (674) 
0

>  <i_qp_HumanOralAbsorption>  (674) 
3

>  <i_qp_RuleOfFive>  (674) 
0

>  <i_qp_RuleOfThree>  (674) 
1

>  <i_sd_BIOSOLVEIT.INFINISEE\_REAGENT1\_NAME>  (674) 
6951180

>  <i_sd_BIOSOLVEIT.INFINISEE\_REAGENT2\_NAME>  (674) 
214828

>  <i_sd_BIOSOLVEIT.INFINISEE\_RESULT\_RANK>  (674) 
7886

>  <i_sd_version>  (674) 
0

>  <b_lp_Chiralities_Consistent>  (674) 
1

>  <b_sd_chiral_flag>  (674) 
0

>  <canonical_id>  (674) 
ATP-HTVS-68829DCC26F9

>  <compound_code>  (674) 
24002

>  <title>  (674) 
m_527bbb____6951180____214828

>  <variant>  (674) 
24002-1

>  <source_file>  (674) 
运行/运行/ATP-VSW/ATP-VSW-DOCK_HTVS_1-002_lib.maegz

>  <canonical_smiles>  (674) 
CC(C)Nc1cccc(CNC(=O)Cn2c(COc3ccccc3)nc3ccccc32)c1

>  <scaffold>  (674) 
O=C(Cn1c(COc2ccccc2)nc2ccccc21)NCc1ccccc1

>  <molecular_formula>  (674) 
C26H28N4O2

$$$$
ATP-HTVS-68B1DBF07479
     RDKit          3D

 58 61  0  0  0  0  0  0  0  0999 V2000
  197.6025  183.8423  148.6765 Cl  0  0  0  0  0  0  0  0  0  0  0  0
  197.5919  184.0513  150.4022 C   0  0  0  0  0  0  0  0  0  0  0  0
  197.1590  183.0013  151.2601 C   0  0  0  0  0  0  0  0  0  0  0  0
  196.8417  181.7828  150.6916 O   0  0  0  0  0  0  0  0  0  0  0  0
  196.3390  180.6842  151.4711 C   0  0  1  0  0  0  0  0  0  0  0  0
  197.2382  180.1470  152.5790 C   0  0  0  0  0  0  0  0  0  0  0  0
  196.9301  180.4897  153.8237 N   0  0  0  0  0  0  0  0  0  0  0  0
  197.8110  180.2459  154.8100 C   0  0  0  0  0  0  0  0  0  0  0  0
  197.6075  180.8628  156.0600 N   0  0  0  0  0  0  0  0  0  0  0  0
  196.3016  181.4397  156.3639 C   0  0  1  0  0  0  0  0  0  0  0  0
  196.2060  182.0998  157.7688 C   0  0  2  0  0  0  0  0  0  0  0  0
  194.7968  182.4846  158.1322 N   0  0  2  0  0  0  0  0  0  0  0  0
  194.6854  183.5283  159.1821 C   0  0  2  0  0  0  0  0  0  0  0  0
  193.9534  181.3137  158.4736 C   0  0  2  0  0  0  0  0  0  0  0  0
  197.1651  183.2889  157.8902 C   0  0  0  0  0  0  0  0  0  0  0  0
  197.1750  184.2957  156.9017 C   0  0  0  0  0  0  0  0  0  0  0  0
  198.0142  185.4192  157.0264 C   0  0  0  0  0  0  0  0  0  0  0  0
  198.8452  185.5488  158.1549 C   0  0  0  0  0  0  0  0  0  0  0  0
  199.6564  186.6367  158.2866 O   0  0  0  0  0  0  0  0  0  0  0  0
  198.8335  184.5548  159.1517 C   0  0  0  0  0  0  0  0  0  0  0  0
  197.9961  183.4323  159.0204 C   0  0  0  0  0  0  0  0  0  0  0  0
  198.9265  179.4307  154.5515 C   0  0  0  0  0  0  0  0  0  0  0  0
  199.1105  178.9931  153.2137 C   0  0  0  0  0  0  0  0  0  0  0  0
  198.2880  179.4095  152.2299 N   0  0  0  0  0  0  0  0  0  0  0  0
  200.1314  178.0646  152.9339 C   0  0  0  0  0  0  0  0  0  0  0  0
  200.9752  177.6024  153.9561 C   0  0  0  0  0  0  0  0  0  0  0  0
  200.8226  178.0863  155.2726 C   0  0  0  0  0  0  0  0  0  0  0  0
  199.8096  179.0211  155.5675 C   0  0  0  0  0  0  0  0  0  0  0  0
  197.0890  183.2890  152.6399 C   0  0  0  0  0  0  0  0  0  0  0  0
  197.5577  184.4857  153.1823 C   0  0  0  0  0  0  0  0  0  0  0  0
  197.9899  185.5183  152.3400 C   0  0  0  0  0  0  0  0  0  0  0  0
  197.9814  185.2983  150.9477 C   0  0  0  0  0  0  0  0  0  0  0  0
  195.3547  180.9281  151.8647 H   0  0  0  0  0  0  0  0  0  0  0  0
  196.1817  179.8580  150.7793 H   0  0  0  0  0  0  0  0  0  0  0  0
  198.0665  180.4078  156.8355 H   0  0  0  0  0  0  0  0  0  0  0  0
  196.0410  182.1726  155.6001 H   0  0  0  0  0  0  0  0  0  0  0  0
  195.5714  180.6449  156.2602 H   0  0  0  0  0  0  0  0  0  0  0  0
  196.5275  181.3647  158.5121 H   0  0  0  0  0  0  0  0  0  0  0  0
  195.1774  183.2020  160.1002 H   0  0  0  0  0  0  0  0  0  0  0  0
  193.6449  183.7542  159.4139 H   0  0  0  0  0  0  0  0  0  0  0  0
  195.1320  184.4724  158.8752 H   0  0  0  0  0  0  0  0  0  0  0  0
  194.3809  180.7607  159.3091 H   0  0  0  0  0  0  0  0  0  0  0  0
  193.8370  180.6377  157.6332 H   0  0  0  0  0  0  0  0  0  0  0  0
  192.9513  181.6270  158.7620 H   0  0  0  0  0  0  0  0  0  0  0  0
  196.5141  184.2226  156.0543 H   0  0  0  0  0  0  0  0  0  0  0  0
  198.0125  186.1761  156.2560 H   0  0  0  0  0  0  0  0  0  0  0  0
  199.5710  187.2530  157.5759 H   0  0  0  0  0  0  0  0  0  0  0  0
  199.4674  184.6572  160.0202 H   0  0  0  0  0  0  0  0  0  0  0  0
  197.9763  182.6850  159.7999 H   0  0  0  0  0  0  0  0  0  0  0  0
  200.2331  177.6918  151.9159 H   0  0  0  0  0  0  0  0  0  0  0  0
  201.7502  176.8877  153.7253 H   0  0  0  0  0  0  0  0  0  0  0  0
  201.4728  177.7247  156.0632 H   0  0  0  0  0  0  0  0  0  0  0  0
  199.6857  179.3483  156.5909 H   0  0  0  0  0  0  0  0  0  0  0  0
  196.6436  182.6746  153.3714 H   0  0  0  0  0  0  0  0  0  0  0  0
  197.5380  184.6044  154.2458 H   0  0  0  0  0  0  0  0  0  0  0  0
  198.2719  186.4667  152.7881 H   0  0  0  0  0  0  0  0  0  0  0  0
  198.2858  186.1142  150.2937 H   0  0  0  0  0  0  0  0  0  0  0  0
  194.3868  182.8620  157.2726 H   0  0  0  0  0  0  0  0  0  0  0  0
  1  2  1  0
  2  3  1  0
  2 32  2  0
  3  4  1  0
  3 29  2  0
  4  5  1  0
  5  6  1  0
  5 33  1  1
  5 34  1  0
  6  7  2  0
  6 24  1  0
  7  8  1  0
  8  9  1  0
  8 22  2  0
  9 10  1  0
  9 35  1  0
 10 11  1  0
 10 36  1  6
 10 37  1  0
 11 12  1  0
 11 15  1  0
 11 38  1  1
 12 13  1  0
 12 14  1  0
 12 58  1  6
 13 39  1  1
 13 40  1  0
 13 41  1  0
 14 42  1  1
 14 43  1  0
 14 44  1  0
 15 16  1  0
 15 21  2  0
 16 17  2  0
 16 45  1  0
 17 18  1  0
 17 46  1  0
 18 19  1  0
 18 20  2  0
 19 47  1  0
 20 21  1  0
 20 48  1  0
 21 49  1  0
 22 23  1  0
 22 28  1  0
 23 24  2  0
 23 25  1  0
 25 26  2  0
 25 50  1  0
 26 27  1  0
 26 51  1  0
 27 28  2  0
 27 52  1  0
 28 53  1  0
 29 30  1  0
 29 54  1  0
 30 31  2  0
 30 55  1  0
 31 32  1  0
 31 56  1  0
 32 57  1  0
M  CHG  1  12   1
M  END
>  <s_epik_cmdline>  (675) 
J2VwaWtfcHl0aG9uJywgJy1waCcsICc3LjAwMDAwMCcsICctcGh0JywgJzIuMDAwMDAwJywgJy1tcycsICcxNicsICctdG4nLCAnOCcsICctbWEnLCAnMjAwJywgJy1pbWFlJywgJzxpbmZpbGUubWFlPicsICctb21hZScsICc8b3V0ZmlsZS5tYWU+Jw==

>  <s_epik_input>  (675) 
W2NIXTFbY0hdW2NIXVtjSF1jKGMxQ2wpT1tDSDJdYyhuYyhjMjMpW2NIXVtjSF1bY0hdW2NIXTMpbmMyW05IXVtDSDJdW0NASF0oTihbQ0gzXSlbQ0gzXSljNFtjSF1bY0hdYyhbT0hdKVtjSF1bY0hdNA==

>  <s_i_glide_gridfile>  (675) 
ATP-Grid

>  <s_lp_Force_Field>  (675) 
OPLS_2005

>  <s_lp_Variant>  (675) 
YAS_R006____OTV5753507____OTV0107930010____OTV1000393-1

>  <s_lp_label>  (675) 
108_sdstereoexpander_1_neutralizer_1_epik_1_stereoizer_1

>  <s_m_source_file>  (675) 
ATP-VSW-LIGPREP-002-in.maegz

>  <s_sd_BIOSOLVEIT.INFINISEE\_QUERY\_NAME>  (675) 
Ref-Lig

>  <s_sd_BIOSOLVEIT.INFINISEE\_QUERY\_SMILES>  (675) 
S(c1nc2c(cc1C[NH2+]Cc3ccc(cc3)C[NH+](C)C)cccc2)Cc4ccccc4

>  <s_sd_BIOSOLVEIT.INFINISEE\_REACTION\_NAME>  (675) 
YAS_R006

>  <s_sd_BIOSOLVEIT.INFINISEE\_REAGENT1\_NAME>  (675) 
OTV5753507

>  <s_sd_BIOSOLVEIT.INFINISEE\_REAGENT1\_SMILES>  (675) 
Nc1ccccc1

>  <s_sd_BIOSOLVEIT.INFINISEE\_REAGENT2\_NAME>  (675) 
OTV0107930010

>  <s_sd_BIOSOLVEIT.INFINISEE\_REAGENT2\_SMILES>  (675) 
Clc1c(OCC(=O)O)cccc1

>  <s_sd_BIOSOLVEIT.INFINISEE\_REAGENT3\_NAME>  (675) 
OTV1000393

>  <s_sd_BIOSOLVEIT.INFINISEE\_REAGENT3\_SMILES>  (675) 
Oc1ccc(cc1)C(N(C)C)CN

>  <s_sd_BIOSOLVEIT.INFINISEE\_SPACE>  (675) 
CHEMriya_12bn_2022-01

>  <s_vsw_compound_code>  (675) 
3426

>  <s_vsw_variant>  (675) 
3426-1

>  <r_epik_Charging_Adjusted_Penalty>  (675) 
0.072945810160635505

>  <r_epik_Ionization_Penalty>  (675) 
0.042200000000000001

>  <r_epik_Ionization_Penalty_Charging>  (675) 
0.036499999999999998

>  <r_epik_Ionization_Penalty_Neutral>  (675) 
0.0057999999999999996

>  <r_epik_State_Penalty>  (675) 
0.036499999999999998

>  <r_i_docking_score>  (675) 
-4.41596673342604

>  <r_i_glide_ecoul>  (675) 
-10.0900001525879

>  <r_i_glide_eff_state_penalty>  (675) 
0.036499999999999998

>  <r_i_glide_einternal>  (675) 
2.1623270511627202

>  <r_i_glide_emodel>  (675) 
-63.0689369794787

>  <r_i_glide_energy>  (675) 
-46.261825561523402

>  <r_i_glide_erotb>  (675) 
0.69306302670410602

>  <r_i_glide_esite>  (675) 
-0.17291960247952101

>  <r_i_glide_evdw>  (675) 
-36.171825408935497

>  <r_i_glide_gscore>  (675) 
-4.4524667334260402

>  <r_i_glide_hbond>  (675) 
-0.20000000000000001

>  <r_i_glide_ligand_efficiency>  (675) 
-0.137998960419564

>  <r_i_glide_ligand_efficiency_ln>  (675) 
-0.988855326320912

>  <r_i_glide_ligand_efficiency_sa>  (675) 
-0.438119389374931

>  <r_i_glide_lipo>  (675) 
-1.0000265104266299

>  <r_i_glide_metal>  (675) 
-0

>  <r_i_glide_rewards>  (675) 
-0.45049235388902698

>  <r_lp_Energy>  (675) 
17.181739

>  <r_lp_tautomer_probability>  (675) 
0.99997800023936201

>  <r_qp_ACxDN^.5/SA>  (675) 
0.0129871

>  <r_qp_CIQPlogS>  (675) 
-6.1459999999999999

>  <r_qp_EA(eV)>  (675) 
1.0509999999999999

>  <r_qp_FISA>  (675) 
80.575000000000003

>  <r_qp_FOSA>  (675) 
187.184

>  <r_qp_IP(eV)>  (675) 
8.6579999999999995

>  <r_qp_Jm>  (675) 
0.13256412575614199

>  <r_qp_PISA>  (675) 
332.56299999999999

>  <r_qp_PSA>  (675) 
64.212999999999994

>  <r_qp_PercentHumanOralAbsorption>  (675) 
100

>  <r_qp_QPPCaco>  (675) 
425.31

>  <r_qp_QPPMDCK>  (675) 
424.08300000000003

>  <r_qp_QPlogBB>  (675) 
-0.13700000000000001

>  <r_qp_QPlogHERG>  (675) 
-5.7110000000000003

>  <r_qp_QPlogKhsa>  (675) 
0.61799999999999999

>  <r_qp_QPlogKp>  (675) 
-3.0310000000000001

>  <r_qp_QPlogPC16>  (675) 
14.085000000000001

>  <r_qp_QPlogPo/w>  (675) 
4.3810000000000002

>  <r_qp_QPlogPoct>  (675) 
21.25

>  <r_qp_QPlogPw>  (675) 
10.974

>  <r_qp_QPlogS>  (675) 
-3.4980000000000002

>  <r_qp_QPpolrz>  (675) 
43.531999999999996

>  <r_qp_SASA>  (675) 
653.36099999999999

>  <r_qp_SAamideO>  (675) 
0

>  <r_qp_SAfluorine>  (675) 
0

>  <r_qp_WPSA>  (675) 
53.039000000000001

>  <r_qp_accptHB>  (675) 
6

>  <r_qp_dip^2/V>  (675) 
0.028954299999999999

>  <r_qp_dipole>  (675) 
6.1509999999999998

>  <r_qp_donorHB>  (675) 
2

>  <r_qp_glob>  (675) 
0.88464379999999998

>  <r_qp_mol_MW>  (675) 
448.95100000000002

>  <r_qp_volume>  (675) 
1306.577

>  <r_sd_BIOSOLVEIT.INFINISEE\_FTREES\_SIMILARITY>  (675) 
0.90700000000000003

>  <r_sd_BIOSOLVEIT.LOGP>  (675) 
3.8654999999999999

>  <r_sd_BIOSOLVEIT.MOLECULAR\_WEIGHT>  (675) 
449.959

>  <r_sd_BIOSOLVEIT.TPSA>  (675) 
71.709999999999994

>  <i_epik_Tot_Q>  (675) 
1

>  <i_epik_Tot_abs_Q>  (675) 
1

>  <i_f3d_flags>  (675) 
0

>  <i_i_glide_confnum>  (675) 
8

>  <i_i_glide_lignum>  (675) 
91

>  <i_i_glide_posenum>  (675) 
3

>  <i_i_glide_rotatable_bonds>  (675) 
9

>  <i_lp_mmshare_version>  (675) 
65135

>  <i_m_ct_format>  (675) 
2

>  <i_m_source_file_index>  (675) 
108

>  <i_qp_#NandO>  (675) 
6

>  <i_qp_#acid>  (675) 
0

>  <i_qp_#amide>  (675) 
0

>  <i_qp_#amidine>  (675) 
0

>  <i_qp_#amine>  (675) 
1

>  <i_qp_#in34>  (675) 
0

>  <i_qp_#in56>  (675) 
22

>  <i_qp_#metab>  (675) 
5

>  <i_qp_#nonHatm>  (675) 
32

>  <i_qp_#noncon>  (675) 
0

>  <i_qp_#ringatoms>  (675) 
22

>  <i_qp_#rotor>  (675) 
9

>  <i_qp_#rtvFG>  (675) 
0

>  <i_qp_#stars>  (675) 
0

>  <i_qp_CNS>  (675) 
1

>  <i_qp_HumanOralAbsorption>  (675) 
3

>  <i_qp_RuleOfFive>  (675) 
0

>  <i_qp_RuleOfThree>  (675) 
0

>  <i_sd_BIOSOLVEIT.INFINISEE\_RESULT\_RANK>  (675) 
57691

>  <i_sd_version>  (675) 
0

>  <b_lp_Chiralities_Consistent>  (675) 
1

>  <b_sd_chiral_flag>  (675) 
0

>  <canonical_id>  (675) 
ATP-HTVS-68B1DBF07479

>  <compound_code>  (675) 
3426

>  <title>  (675) 
YAS_R006____OTV5753507____OTV0107930010____OTV1000393

>  <variant>  (675) 
3426-1

>  <source_file>  (675) 
运行/运行/ATP-VSW/ATP-VSW-DOCK_HTVS_1-002_lib.maegz

>  <canonical_smiles>  (675) 
C[NH+](C)[C@@H](CNc1nc(COc2ccccc2Cl)nc2ccccc12)c1ccc(O)cc1

>  <scaffold>  (675) 
c1ccc(CCNc2nc(COc3ccccc3)nc3ccccc23)cc1

>  <molecular_formula>  (675) 
C25H26ClN4O2+

$$$$
ATP-HTVS-69239F8CDE40
     RDKit          3D

 62 65  0  0  0  0  0  0  0  0999 V2000
  199.3553  181.3271  149.5880 F   0  0  0  0  0  0  0  0  0  0  0  0
  198.3922  182.2705  149.7206 C   0  0  0  0  0  0  0  0  0  0  0  0
  197.6480  182.3656  150.9200 C   0  0  0  0  0  0  0  0  0  0  0  0
  196.6355  183.3501  151.0225 C   0  0  0  0  0  0  0  0  0  0  0  0
  196.3939  184.2378  149.9570 C   0  0  0  0  0  0  0  0  0  0  0  0
  197.1490  184.1472  148.7745 C   0  0  0  0  0  0  0  0  0  0  0  0
  198.1467  183.1619  148.6559 C   0  0  0  0  0  0  0  0  0  0  0  0
  197.9444  181.4059  152.0776 C   0  0  1  0  0  0  0  0  0  0  0  0
  197.7182  181.9771  153.4219 N   0  0  0  0  0  0  0  0  0  0  0  0
  198.5663  182.9501  153.8721 C   0  0  0  0  0  0  0  0  0  0  0  0
  199.5987  183.2516  153.2632 O   0  0  0  0  0  0  0  0  0  0  0  0
  198.1238  183.6939  155.0538 C   0  0  0  0  0  0  0  0  0  0  0  0
  197.7841  185.0985  154.7634 C   0  0  0  0  0  0  0  0  0  0  0  0
  197.8848  185.6526  153.6673 O   0  0  0  0  0  0  0  0  0  0  0  0
  197.3102  185.8055  155.8125 N   0  0  0  0  0  0  0  0  0  0  0  0
  197.1678  185.3060  157.1347 C   0  0  0  0  0  0  0  0  0  0  0  0
  197.5363  183.9786  157.4171 C   0  0  0  0  0  0  0  0  0  0  0  0
  197.3734  183.4680  158.7278 C   0  0  0  0  0  0  0  0  0  0  0  0
  196.8568  184.2847  159.7429 C   0  0  0  0  0  0  0  0  0  0  0  0
  196.4955  185.6130  159.4585 C   0  0  0  0  0  0  0  0  0  0  0  0
  196.6372  186.1299  158.1549 C   0  0  0  0  0  0  0  0  0  0  0  0
  198.0536  183.1647  156.3045 C   0  0  0  0  0  0  0  0  0  0  0  0
  198.3788  181.8506  156.6296 N   0  0  0  0  0  0  0  0  0  0  0  0
  199.6206  181.2288  156.5447 C   0  0  0  0  0  0  0  0  0  0  0  0
  199.7113  179.8758  156.9165 C   0  0  0  0  0  0  0  0  0  0  0  0
  200.9545  179.2136  156.8994 C   0  0  0  0  0  0  0  0  0  0  0  0
  202.1143  179.9092  156.4878 C   0  0  0  0  0  0  0  0  0  0  0  0
  202.0191  181.2513  156.0699 C   0  0  0  0  0  0  0  0  0  0  0  0
  200.7841  181.9089  156.1109 C   0  0  0  0  0  0  0  0  0  0  0  0
  201.0593  177.7751  157.3739 C   0  0  1  0  0  0  0  0  0  0  0  0
  201.1869  176.8469  156.2269 N   0  0  2  0  0  0  0  0  0  0  0  0
  199.9234  176.6692  155.4807 C   0  0  2  0  0  0  0  0  0  0  0  0
  201.7847  175.5531  156.6153 C   0  0  2  0  0  0  0  0  0  0  0  0
  196.4797  181.5092  154.0863 C   0  0  2  0  0  0  0  0  0  0  0  0
  196.0457  183.4512  151.9224 H   0  0  0  0  0  0  0  0  0  0  0  0
  195.6340  184.9977  150.0465 H   0  0  0  0  0  0  0  0  0  0  0  0
  196.9568  184.8316  147.9609 H   0  0  0  0  0  0  0  0  0  0  0  0
  198.7295  183.0859  147.7500 H   0  0  0  0  0  0  0  0  0  0  0  0
  197.3018  180.5419  151.9138 H   0  0  0  0  0  0  0  0  0  0  0  0
  198.9694  181.0277  152.0070 H   0  0  0  0  0  0  0  0  0  0  0  0
  197.0324  186.7565  155.6243 H   0  0  0  0  0  0  0  0  0  0  0  0
  197.6326  182.4507  158.9731 H   0  0  0  0  0  0  0  0  0  0  0  0
  196.7641  183.8786  160.7417 H   0  0  0  0  0  0  0  0  0  0  0  0
  196.1162  186.2401  160.2495 H   0  0  0  0  0  0  0  0  0  0  0  0
  196.3534  187.1483  157.9418 H   0  0  0  0  0  0  0  0  0  0  0  0
  197.6670  181.3320  157.1322 H   0  0  0  0  0  0  0  0  0  0  0  0
  198.8188  179.3528  157.2381 H   0  0  0  0  0  0  0  0  0  0  0  0
  203.0839  179.4337  156.5168 H   0  0  0  0  0  0  0  0  0  0  0  0
  202.8988  181.8019  155.7549 H   0  0  0  0  0  0  0  0  0  0  0  0
  200.7297  182.9413  155.8043 H   0  0  0  0  0  0  0  0  0  0  0  0
  201.9401  177.7140  158.0147 H   0  0  0  0  0  0  0  0  0  0  0  0
  200.2053  177.5043  157.9996 H   0  0  0  0  0  0  0  0  0  0  0  0
  199.1591  176.2553  156.1317 H   0  0  0  0  0  0  0  0  0  0  0  0
  200.0655  175.9858  154.6446 H   0  0  0  0  0  0  0  0  0  0  0  0
  199.5551  177.6120  155.0772 H   0  0  0  0  0  0  0  0  0  0  0  0
  201.1590  175.0383  157.3376 H   0  0  0  0  0  0  0  0  0  0  0  0
  202.7494  175.7061  157.0879 H   0  0  0  0  0  0  0  0  0  0  0  0
  201.9348  174.9046  155.7497 H   0  0  0  0  0  0  0  0  0  0  0  0
  195.6696  182.2234  153.8970 H   0  0  0  0  0  0  0  0  0  0  0  0
  196.5643  181.3588  155.1593 H   0  0  0  0  0  0  0  0  0  0  0  0
  196.1548  180.5466  153.6747 H   0  0  0  0  0  0  0  0  0  0  0  0
  201.8462  177.2856  155.5989 H   0  0  0  0  0  0  0  0  0  0  0  0
  1  2  1  0
  2  3  1  0
  2  7  2  0
  3  4  2  0
  3  8  1  0
  4  5  1  0
  4 35  1  0
  5  6  2  0
  5 36  1  0
  6  7  1  0
  6 37  1  0
  7 38  1  0
  8  9  1  0
  8 39  1  6
  8 40  1  0
  9 10  1  0
  9 34  1  0
 10 11  2  0
 10 12  1  0
 12 13  1  0
 12 22  2  0
 13 14  2  0
 13 15  1  0
 15 16  1  0
 15 41  1  0
 16 17  1  0
 16 21  2  0
 17 18  2  0
 17 22  1  0
 18 19  1  0
 18 42  1  0
 19 20  2  0
 19 43  1  0
 20 21  1  0
 20 44  1  0
 21 45  1  0
 22 23  1  0
 23 24  1  0
 23 46  1  0
 24 25  2  0
 24 29  1  0
 25 26  1  0
 25 47  1  0
 26 27  2  0
 26 30  1  0
 27 28  1  0
 27 48  1  0
 28 29  2  0
 28 49  1  0
 29 50  1  0
 30 31  1  0
 30 51  1  1
 30 52  1  0
 31 32  1  0
 31 33  1  0
 31 62  1  6
 32 53  1  1
 32 54  1  0
 32 55  1  0
 33 56  1  1
 33 57  1  0
 33 58  1  0
 34 59  1  1
 34 60  1  0
 34 61  1  0
M  CHG  1  31   1
M  END
>  <s_epik_cmdline>  (676) 
J2VwaWtfcHl0aG9uJywgJy1waCcsICc3LjAwMDAwMCcsICctcGh0JywgJzIuMDAwMDAwJywgJy1tcycsICcxNicsICctdG4nLCAnOCcsICctbWEnLCAnMjAwJywgJy1pbWFlJywgJzxpbmZpbGUubWFlPicsICctb21hZScsICc8b3V0ZmlsZS5tYWU+Jw==

>  <s_epik_input>  (676) 
W2NIXTFbY0hdW2NIXVtjSF1jKGMxRilbQ0gyXU4oW0NIM10pQyg9TyljKGMoPU8pW25IXTIpYyhjKGMyMylbY0hdW2NIXVtjSF1bY0hdMylbTkhdYzRbY0hdYyhbY0hdW2NIXVtjSF00KVtDSDJdTihbQ0gzXSlbQ0gzXQ==

>  <s_i_glide_gridfile>  (676) 
ATP-Grid

>  <s_lp_Force_Field>  (676) 
OPLS_2005

>  <s_lp_Variant>  (676) 
rxn512c____EMOL525078____EMOL43362984____EMOL3728368-1

>  <s_lp_label>  (676) 
2649_sdstereoexpander_1_neutralizer_1_epik_1_stereoizer_1

>  <s_m_source_file>  (676) 
ATP-VSW-LIGPREP-003-in.maegz

>  <s_sd_BIOSOLVEIT.INFINISEE\_QUERY\_NAME>  (676) 
Ref-Lig

>  <s_sd_BIOSOLVEIT.INFINISEE\_QUERY\_SMILES>  (676) 
S(c1nc2c(cc1C[NH2+]Cc3ccc(cc3)C[NH+](C)C)cccc2)Cc4ccccc4

>  <s_sd_BIOSOLVEIT.INFINISEE\_REACTION\_NAME>  (676) 
rxn512c

>  <s_sd_BIOSOLVEIT.INFINISEE\_REAGENT1\_NAME>  (676) 
EMOL525078

>  <s_sd_BIOSOLVEIT.INFINISEE\_REAGENT1\_SMILES>  (676) 
Fc1c(cccc1)CNC

>  <s_sd_BIOSOLVEIT.INFINISEE\_REAGENT2\_NAME>  (676) 
EMOL43362984

>  <s_sd_BIOSOLVEIT.INFINISEE\_REAGENT2\_SMILES>  (676) 
ClC=1c2c(NC(=O)C1C(=O)O)cccc2

>  <s_sd_BIOSOLVEIT.INFINISEE\_REAGENT3\_NAME>  (676) 
EMOL3728368

>  <s_sd_BIOSOLVEIT.INFINISEE\_REAGENT3\_SMILES>  (676) 
N(Cc1cc(N)ccc1)(C)C

>  <s_sd_BIOSOLVEIT.INFINISEE\_SPACE>  (676) 
eXplore_7tr_2022-12

>  <s_vsw_compound_code>  (676) 
84739

>  <s_vsw_variant>  (676) 
84739-1

>  <r_epik_Charging_Adjusted_Penalty>  (676) 
0.090577746284591004

>  <r_epik_Ionization_Penalty>  (676) 
0.047199999999999999

>  <r_epik_Ionization_Penalty_Charging>  (676) 
0.0453

>  <r_epik_Ionization_Penalty_Neutral>  (676) 
0.0019

>  <r_epik_State_Penalty>  (676) 
0.0453

>  <r_i_docking_score>  (676) 
-3.0538173113359299

>  <r_i_glide_ecoul>  (676) 
-7.1659665107727104

>  <r_i_glide_eff_state_penalty>  (676) 
0.0453

>  <r_i_glide_einternal>  (676) 
3.27886915206909

>  <r_i_glide_emodel>  (676) 
-52.415406104425401

>  <r_i_glide_energy>  (676) 
-42.639149188995397

>  <r_i_glide_erotb>  (676) 
0.57170382603576797

>  <r_i_glide_esite>  (676) 
-0.039215737736790997

>  <r_i_glide_evdw>  (676) 
-35.473182678222699

>  <r_i_glide_gscore>  (676) 
-3.09911731133593

>  <r_i_glide_hbond>  (676) 
0

>  <r_i_glide_ligand_efficiency>  (676) 
-0.089818156215762807

>  <r_i_glide_ligand_efficiency_ln>  (676) 
-0.67467390074830602

>  <r_i_glide_ligand_efficiency_sa>  (676) 
-0.29097595850354102

>  <r_i_glide_lipo>  (676) 
-2.0319364063490402

>  <r_i_glide_metal>  (676) 
-0

>  <r_i_glide_rewards>  (676) 
1.2488851172411699

>  <r_lp_Energy>  (676) 
57.928308000000001

>  <r_qp_ACxDN^.5/SA>  (676) 
0

>  <r_qp_CIQPlogS>  (676) 
-6.298

>  <r_qp_EA(eV)>  (676) 
1.123

>  <r_qp_FISA>  (676) 
89.625

>  <r_qp_FOSA>  (676) 
240.267

>  <r_qp_IP(eV)>  (676) 
8.4740000000000002

>  <r_qp_Jm>  (676) 
0.0112471186785428

>  <r_qp_PISA>  (676) 
355.71300000000002

>  <r_qp_PSA>  (676) 
77.153999999999996

>  <r_qp_PercentHumanOralAbsorption>  (676) 
100

>  <r_qp_QPPCaco>  (676) 
349.05000000000001

>  <r_qp_QPPMDCK>  (676) 
241.815

>  <r_qp_QPlogBB>  (676) 
-0.24199999999999999

>  <r_qp_QPlogHERG>  (676) 
-6.5279999999999996

>  <r_qp_QPlogKhsa>  (676) 
0.70699999999999996

>  <r_qp_QPlogKp>  (676) 
-3.3090000000000002

>  <r_qp_QPlogPC16>  (676) 
13.907

>  <r_qp_QPlogPo/w>  (676) 
4.7089999999999996

>  <r_qp_QPlogPoct>  (676) 
19.780999999999999

>  <r_qp_QPlogPw>  (676) 
8.8339999999999996

>  <r_qp_QPlogS>  (676) 
-4.3019999999999996

>  <r_qp_QPpolrz>  (676) 
47.771000000000001

>  <r_qp_SASA>  (676) 
711.03999999999996

>  <r_qp_SAamideO>  (676) 
0

>  <r_qp_SAfluorine>  (676) 
25.436

>  <r_qp_WPSA>  (676) 
25.436

>  <r_qp_accptHB>  (676) 
6

>  <r_qp_dip^2/V>  (676) 
0.034909900000000001

>  <r_qp_dipole>  (676) 
6.9279999999999999

>  <r_qp_donorHB>  (676) 
0

>  <r_qp_glob>  (676) 
0.84096899999999997

>  <r_qp_mol_MW>  (676) 
458.53399999999999

>  <r_qp_volume>  (676) 
1374.876

>  <r_sd_BIOSOLVEIT.INFINISEE\_FTREES\_SIMILARITY>  (676) 
0.91000000000000003

>  <r_sd_BIOSOLVEIT.LOGP>  (676) 
3.3275000000000001

>  <r_sd_BIOSOLVEIT.MOLECULAR\_WEIGHT>  (676) 
459.54199999999997

>  <r_sd_BIOSOLVEIT.TPSA>  (676) 
69.640000000000001

>  <i_epik_Tot_Q>  (676) 
1

>  <i_epik_Tot_abs_Q>  (676) 
1

>  <i_f3d_flags>  (676) 
0

>  <i_i_glide_confnum>  (676) 
2

>  <i_i_glide_lignum>  (676) 
1224

>  <i_i_glide_posenum>  (676) 
18

>  <i_i_glide_rotatable_bonds>  (676) 
8

>  <i_lp_mmshare_version>  (676) 
65135

>  <i_m_ct_format>  (676) 
2

>  <i_m_source_file_index>  (676) 
2649

>  <i_qp_#NandO>  (676) 
6

>  <i_qp_#acid>  (676) 
0

>  <i_qp_#amide>  (676) 
0

>  <i_qp_#amidine>  (676) 
0

>  <i_qp_#amine>  (676) 
1

>  <i_qp_#in34>  (676) 
0

>  <i_qp_#in56>  (676) 
22

>  <i_qp_#metab>  (676) 
5

>  <i_qp_#nonHatm>  (676) 
34

>  <i_qp_#noncon>  (676) 
0

>  <i_qp_#ringatoms>  (676) 
22

>  <i_qp_#rotor>  (676) 
7

>  <i_qp_#rtvFG>  (676) 
0

>  <i_qp_#stars>  (676) 
0

>  <i_qp_CNS>  (676) 
1

>  <i_qp_HumanOralAbsorption>  (676) 
3

>  <i_qp_RuleOfFive>  (676) 
0

>  <i_qp_RuleOfThree>  (676) 
0

>  <i_sd_BIOSOLVEIT.INFINISEE\_RESULT\_RANK>  (676) 
46298

>  <i_sd_version>  (676) 
0

>  <b_lp_Chiralities_Consistent>  (676) 
1

>  <b_sd_chiral_flag>  (676) 
0

>  <canonical_id>  (676) 
ATP-HTVS-69239F8CDE40

>  <compound_code>  (676) 
84739

>  <title>  (676) 
rxn512c____EMOL525078____EMOL43362984____EMOL3728368

>  <variant>  (676) 
84739-1

>  <source_file>  (676) 
运行/运行/ATP-VSW/ATP-VSW-DOCK_HTVS_1-003_lib/ATP-VSW-DOCK_HTVS_1-003_lib.mae

>  <canonical_smiles>  (676) 
CN(Cc1ccccc1F)C(=O)c1c(Nc2cccc(C[NH+](C)C)c2)c2ccccc2[nH]c1=O

>  <scaffold>  (676) 
O=C(NCc1ccccc1)c1c(Nc2ccccc2)c2ccccc2[nH]c1=O

>  <molecular_formula>  (676) 
C27H28FN4O2+

$$$$
ATP-HTVS-694143BD68F7
     RDKit          3D

 55 58  0  0  0  0  0  0  0  0999 V2000
  197.9546  179.0278  146.8855 Cl  0  0  0  0  0  0  0  0  0  0  0  0
  198.3501  177.8160  148.0589 C   0  0  0  0  0  0  0  0  0  0  0  0
  198.0430  178.0115  149.4281 C   0  0  0  0  0  0  0  0  0  0  0  0
  197.4446  179.2009  149.7914 O   0  0  0  0  0  0  0  0  0  0  0  0
  196.8674  179.3500  151.0884 C   0  0  1  0  0  0  0  0  0  0  0  0
  196.8779  180.8238  151.4866 C   0  0  0  0  0  0  0  0  0  0  0  0
  196.4935  181.6777  150.6869 O   0  0  0  0  0  0  0  0  0  0  0  0
  197.3279  181.0741  152.7286 N   0  0  0  0  0  0  0  0  0  0  0  0
  197.4165  182.2963  153.4515 C   0  0  0  0  0  0  0  0  0  0  0  0
  197.9252  182.2638  154.7808 C   0  0  0  0  0  0  0  0  0  0  0  0
  198.3247  181.0249  155.3266 N   0  0  0  0  0  0  0  0  0  0  0  0
  199.7516  180.8333  155.6331 C   0  0  2  0  0  0  0  0  0  0  0  0
  200.6031  181.2687  154.5161 C   0  0  0  0  0  0  0  0  0  0  0  0
  201.2689  181.6194  153.6373 N   0  0  0  0  0  0  0  0  0  0  0  0
  200.1013  179.4155  156.0489 C   0  0  0  0  0  0  0  0  0  0  0  0
  200.8108  179.1886  157.2483 C   0  0  0  0  0  0  0  0  0  0  0  0
  201.1360  177.8779  157.6406 C   0  0  0  0  0  0  0  0  0  0  0  0
  200.7550  176.7899  156.8359 C   0  0  0  0  0  0  0  0  0  0  0  0
  200.0392  177.0097  155.6405 C   0  0  0  0  0  0  0  0  0  0  0  0
  199.7167  178.3213  155.2461 C   0  0  0  0  0  0  0  0  0  0  0  0
  197.3006  180.3595  156.1312 C   0  0  2  0  0  0  0  0  0  0  0  0
  198.0104  183.4850  155.5175 C   0  0  0  0  0  0  0  0  0  0  0  0
  197.6067  184.6911  154.8858 C   0  0  0  0  0  0  0  0  0  0  0  0
  197.1299  184.6620  153.6279 N   0  0  0  0  0  0  0  0  0  0  0  0
  197.0119  183.5337  152.9034 C   0  0  0  0  0  0  0  0  0  0  0  0
  197.6913  185.9301  155.5519 C   0  0  0  0  0  0  0  0  0  0  0  0
  198.1978  185.9860  156.8622 C   0  0  0  0  0  0  0  0  0  0  0  0
  198.5952  184.8006  157.5062 C   0  0  0  0  0  0  0  0  0  0  0  0
  198.4773  183.5555  156.8546 C   0  0  0  0  0  0  0  0  0  0  0  0
  198.3976  176.9939  150.3476 C   0  0  0  0  0  0  0  0  0  0  0  0
  199.0339  175.8160  149.9072 C   0  0  0  0  0  0  0  0  0  0  0  0
  199.3257  175.6337  148.5432 C   0  0  0  0  0  0  0  0  0  0  0  0
  198.9848  176.6349  147.6189 C   0  0  0  0  0  0  0  0  0  0  0  0
  195.8327  179.0111  151.0563 H   0  0  0  0  0  0  0  0  0  0  0  0
  197.3809  178.7956  151.8726 H   0  0  0  0  0  0  0  0  0  0  0  0
  197.6304  180.2647  153.2480 H   0  0  0  0  0  0  0  0  0  0  0  0
  200.0450  181.4653  156.4702 H   0  0  0  0  0  0  0  0  0  0  0  0
  201.1030  180.0192  157.8766 H   0  0  0  0  0  0  0  0  0  0  0  0
  201.6827  177.7146  158.5566 H   0  0  0  0  0  0  0  0  0  0  0  0
  201.0105  175.7851  157.1378 H   0  0  0  0  0  0  0  0  0  0  0  0
  199.7346  176.1768  155.0259 H   0  0  0  0  0  0  0  0  0  0  0  0
  199.1619  178.4851  154.3370 H   0  0  0  0  0  0  0  0  0  0  0  0
  196.3293  180.8562  156.0768 H   0  0  0  0  0  0  0  0  0  0  0  0
  197.6009  180.3197  157.1784 H   0  0  0  0  0  0  0  0  0  0  0  0
  197.1565  179.3329  155.7909 H   0  0  0  0  0  0  0  0  0  0  0  0
  196.5759  183.6760  151.9274 H   0  0  0  0  0  0  0  0  0  0  0  0
  197.3661  186.8381  155.0637 H   0  0  0  0  0  0  0  0  0  0  0  0
  198.2676  186.9331  157.3748 H   0  0  0  0  0  0  0  0  0  0  0  0
  198.9884  184.8438  158.5109 H   0  0  0  0  0  0  0  0  0  0  0  0
  198.7450  182.6657  157.4089 H   0  0  0  0  0  0  0  0  0  0  0  0
  198.2099  177.0768  151.4032 H   0  0  0  0  0  0  0  0  0  0  0  0
  199.2959  175.0512  150.6208 H   0  0  0  0  0  0  0  0  0  0  0  0
  199.8069  174.7236  148.2149 H   0  0  0  0  0  0  0  0  0  0  0  0
  199.2123  176.5026  146.5692 H   0  0  0  0  0  0  0  0  0  0  0  0
  196.8120  185.5370  153.2120 H   0  0  0  0  0  0  0  0  0  0  0  0
  1  2  1  0
  2  3  1  0
  2 33  2  0
  3  4  1  0
  3 30  2  0
  4  5  1  0
  5  6  1  0
  5 34  1  6
  5 35  1  0
  6  7  2  0
  6  8  1  0
  8  9  1  0
  8 36  1  0
  9 10  2  0
  9 25  1  0
 10 11  1  0
 10 22  1  0
 11 12  1  0
 11 21  1  0
 12 13  1  0
 12 15  1  0
 12 37  1  1
 13 14  3  0
 15 16  2  0
 15 20  1  0
 16 17  1  0
 16 38  1  0
 17 18  2  0
 17 39  1  0
 18 19  1  0
 18 40  1  0
 19 20  2  0
 19 41  1  0
 20 42  1  0
 21 43  1  1
 21 44  1  0
 21 45  1  0
 22 23  1  0
 22 29  2  0
 23 24  1  0
 23 26  2  0
 24 25  2  0
 24 55  1  0
 25 46  1  0
 26 27  1  0
 26 47  1  0
 27 28  2  0
 27 48  1  0
 28 29  1  0
 28 49  1  0
 29 50  1  0
 30 31  1  0
 30 51  1  0
 31 32  2  0
 31 52  1  0
 32 33  1  0
 32 53  1  0
 33 54  1  0
M  CHG  1  24   1
M  END
>  <s_epik_cmdline>  (677) 
J2VwaWtfcHl0aG9uJywgJy1waCcsICc3LjAwMDAwMCcsICctcGh0JywgJzIuMDAwMDAwJywgJy1tcycsICcxNicsICctdG4nLCAnOCcsICctbWEnLCAnMjAwJywgJy1pbWFlJywgJzxpbmZpbGUubWFlPicsICctb21hZScsICc8b3V0ZmlsZS5tYWU+Jw==

>  <s_epik_input>  (677) 
W2NIXTFbY0hdW2NIXVtjSF1jKGMxQ2wpT1tDSDJdQyg9TylbTkhdYyhbY0hdbmMoYzIzKVtjSF1bY0hdW2NIXVtjSF0zKWMyTihbQ0gzXSlbQ0BIXShDI04pYzRbY0hdW2NIXVtjSF1bY0hdW2NIXTQ=

>  <s_i_glide_gridfile>  (677) 
ATP-Grid

>  <s_lp_Force_Field>  (677) 
OPLS_2005

>  <s_lp_Variant>  (677) 
rxn502b____EMOL15318088____EMOL30488121____EMOL24630243-2

>  <s_lp_label>  (677) 
3070_sdstereoexpander_2_neutralizer_1_epik_1_stereoizer_1

>  <s_m_source_file>  (677) 
ATP-VSW-LIGPREP-002-in.maegz

>  <s_sd_BIOSOLVEIT.INFINISEE\_QUERY\_NAME>  (677) 
Ref-Lig

>  <s_sd_BIOSOLVEIT.INFINISEE\_QUERY\_SMILES>  (677) 
S(c1nc2c(cc1C[NH2+]Cc3ccc(cc3)C[NH+](C)C)cccc2)Cc4ccccc4

>  <s_sd_BIOSOLVEIT.INFINISEE\_REACTION\_NAME>  (677) 
rxn502b

>  <s_sd_BIOSOLVEIT.INFINISEE\_REAGENT1\_NAME>  (677) 
EMOL15318088

>  <s_sd_BIOSOLVEIT.INFINISEE\_REAGENT1\_SMILES>  (677) 
Clc1c(OCC(Cl)=O)cccc1

>  <s_sd_BIOSOLVEIT.INFINISEE\_REAGENT2\_NAME>  (677) 
EMOL30488121

>  <s_sd_BIOSOLVEIT.INFINISEE\_REAGENT2\_SMILES>  (677) 
Brc1c(N)cnc2c1cccc2

>  <s_sd_BIOSOLVEIT.INFINISEE\_REAGENT3\_NAME>  (677) 
EMOL24630243

>  <s_sd_BIOSOLVEIT.INFINISEE\_REAGENT3\_SMILES>  (677) 
N#CC(NC)c1ccccc1

>  <s_sd_BIOSOLVEIT.INFINISEE\_SPACE>  (677) 
eXplore_7tr_2022-12

>  <s_vsw_compound_code>  (677) 
98210

>  <s_vsw_variant>  (677) 
98210-2

>  <r_epik_Charging_Adjusted_Penalty>  (677) 
0.14162437667406599

>  <r_epik_Ionization_Penalty>  (677) 
0.070800000000000002

>  <r_epik_Ionization_Penalty_Charging>  (677) 
0.070800000000000002

>  <r_epik_Ionization_Penalty_Neutral>  (677) 
0

>  <r_epik_State_Penalty>  (677) 
0.070800000000000002

>  <r_i_docking_score>  (677) 
-4.0389667174024098

>  <r_i_glide_ecoul>  (677) 
-5.3586726188659703

>  <r_i_glide_eff_state_penalty>  (677) 
0.070800000000000002

>  <r_i_glide_einternal>  (677) 
2.1497707366943399

>  <r_i_glide_emodel>  (677) 
-53.3404301694437

>  <r_i_glide_energy>  (677) 
-40.472880840301499

>  <r_i_glide_erotb>  (677) 
0.67124842020854802

>  <r_i_glide_esite>  (677) 
-0.044334093090072302

>  <r_i_glide_evdw>  (677) 
-35.114208221435497

>  <r_i_glide_gscore>  (677) 
-4.10976671740241

>  <r_i_glide_hbond>  (677) 
0

>  <r_i_glide_ligand_efficiency>  (677) 
-0.122392930830376

>  <r_i_glide_ligand_efficiency_ln>  (677) 
-0.89824528529985503

>  <r_i_glide_ligand_efficiency_sa>  (677) 
-0.39257952692968401

>  <r_i_glide_lipo>  (677) 
-1.53722633106446

>  <r_i_glide_metal>  (677) 
-0

>  <r_i_glide_rewards>  (677) 
-0.63994340955476103

>  <r_lp_Energy>  (677) 
37.809190000000001

>  <r_lp_tautomer_probability>  (677) 
1

>  <r_qp_ACxDN^.5/SA>  (677) 
0.0099057999999999993

>  <r_qp_CIQPlogS>  (677) 
-8.1210000000000004

>  <r_qp_EA(eV)>  (677) 
1.1379999999999999

>  <r_qp_FISA>  (677) 
105.331

>  <r_qp_FOSA>  (677) 
77.352999999999994

>  <r_qp_IP(eV)>  (677) 
8.7650000000000006

>  <r_qp_Jm>  (677) 
0.035965796864128603

>  <r_qp_PISA>  (677) 
462.42000000000002

>  <r_qp_PSA>  (677) 
79.805000000000007

>  <r_qp_PercentHumanOralAbsorption>  (677) 
100

>  <r_qp_QPPCaco>  (677) 
993.22000000000003

>  <r_qp_QPPMDCK>  (677) 
776.40300000000002

>  <r_qp_QPlogBB>  (677) 
-0.79600000000000004

>  <r_qp_QPlogHERG>  (677) 
-6.125

>  <r_qp_QPlogKhsa>  (677) 
0.53900000000000003

>  <r_qp_QPlogKp>  (677) 
-1.0640000000000001

>  <r_qp_QPlogPC16>  (677) 
14.896000000000001

>  <r_qp_QPlogPo/w>  (677) 
4.6859999999999999

>  <r_qp_QPlogPoct>  (677) 
21.811

>  <r_qp_QPlogPw>  (677) 
11.582000000000001

>  <r_qp_QPlogS>  (677) 
-6.04

>  <r_qp_QPpolrz>  (677) 
45.805

>  <r_qp_SASA>  (677) 
681.41800000000001

>  <r_qp_SAamideO>  (677) 
0

>  <r_qp_SAfluorine>  (677) 
0

>  <r_qp_WPSA>  (677) 
36.314999999999998

>  <r_qp_accptHB>  (677) 
6.75

>  <r_qp_dip^2/V>  (677) 
0.076283100000000006

>  <r_qp_dipole>  (677) 
10.021000000000001

>  <r_qp_donorHB>  (677) 
1

>  <r_qp_glob>  (677) 
0.85243530000000001

>  <r_qp_mol_MW>  (677) 
456.93000000000001

>  <r_qp_volume>  (677) 
1316.3309999999999

>  <r_sd_BIOSOLVEIT.INFINISEE\_FTREES\_SIMILARITY>  (677) 
0.90200000000000002

>  <r_sd_BIOSOLVEIT.LOGP>  (677) 
5.6067799999999997

>  <r_sd_BIOSOLVEIT.MOLECULAR\_WEIGHT>  (677) 
456.93099999999998

>  <r_sd_BIOSOLVEIT.TPSA>  (677) 
78.25

>  <i_epik_Tot_Q>  (677) 
1

>  <i_epik_Tot_abs_Q>  (677) 
1

>  <i_f3d_flags>  (677) 
0

>  <i_i_glide_confnum>  (677) 
4

>  <i_i_glide_lignum>  (677) 
119

>  <i_i_glide_posenum>  (677) 
14

>  <i_i_glide_rotatable_bonds>  (677) 
8

>  <i_lp_mmshare_version>  (677) 
65135

>  <i_m_ct_format>  (677) 
2

>  <i_m_source_file_index>  (677) 
3070

>  <i_qp_#NandO>  (677) 
6

>  <i_qp_#acid>  (677) 
0

>  <i_qp_#amide>  (677) 
0

>  <i_qp_#amidine>  (677) 
0

>  <i_qp_#amine>  (677) 
0

>  <i_qp_#in34>  (677) 
0

>  <i_qp_#in56>  (677) 
22

>  <i_qp_#metab>  (677) 
6

>  <i_qp_#nonHatm>  (677) 
33

>  <i_qp_#noncon>  (677) 
0

>  <i_qp_#ringatoms>  (677) 
22

>  <i_qp_#rotor>  (677) 
8

>  <i_qp_#rtvFG>  (677) 
0

>  <i_qp_#stars>  (677) 
1

>  <i_qp_CNS>  (677) 
-1

>  <i_qp_HumanOralAbsorption>  (677) 
3

>  <i_qp_RuleOfFive>  (677) 
0

>  <i_qp_RuleOfThree>  (677) 
1

>  <i_sd_BIOSOLVEIT.INFINISEE\_RESULT\_RANK>  (677) 
93108

>  <i_sd_version>  (677) 
0

>  <b_lp_Chiralities_Consistent>  (677) 
1

>  <b_sd_chiral_flag>  (677) 
0

>  <canonical_id>  (677) 
ATP-HTVS-694143BD68F7

>  <compound_code>  (677) 
98210

>  <title>  (677) 
rxn502b____EMOL15318088____EMOL30488121____EMOL24630243

>  <variant>  (677) 
98210-2

>  <source_file>  (677) 
运行/运行/ATP-VSW/ATP-VSW-DOCK_HTVS_1-003_lib/ATP-VSW-DOCK_HTVS_1-003_lib.mae

>  <canonical_smiles>  (677) 
CN(c1c(NC(=O)COc2ccccc2Cl)c[nH+]c2ccccc12)[C@H](C#N)c1ccccc1

>  <scaffold>  (677) 
O=C(COc1ccccc1)Nc1c[nH+]c2ccccc2c1NCc1ccccc1

>  <molecular_formula>  (677) 
C26H22ClN4O2+

$$$$
ATP-HTVS-697A85B30C1D
     RDKit          3D

 68 71  0  0  0  0  0  0  0  0999 V2000
  199.4703  184.8450  155.0935 O   0  0  0  0  0  0  0  0  0  0  0  0
  199.0224  185.9533  154.7903 C   0  0  0  0  0  0  0  0  0  0  0  0
  197.9139  186.4324  155.3674 N   0  0  0  0  0  0  0  0  0  0  0  0
  197.0618  185.7122  156.3054 C   0  0  1  0  0  0  0  0  0  0  0  0
  197.6968  185.5873  157.7052 C   0  0  2  0  0  0  0  0  0  0  0  0
  196.9363  184.6823  158.5942 N   0  0  0  0  0  0  0  0  0  0  0  0
  197.6891  184.3253  159.7983 C   0  0  1  0  0  0  0  0  0  0  0  0
  199.0667  183.6819  159.5569 C   0  0  2  0  0  0  0  0  0  0  0  0
  195.6179  185.2033  158.9927 C   0  0  1  0  0  0  0  0  0  0  0  0
  194.6396  184.1591  159.5168 C   0  0  2  0  0  0  0  0  0  0  0  0
  198.0349  186.9558  158.3095 C   0  0  0  0  0  0  0  0  0  0  0  0
  199.3716  187.2784  158.6443 C   0  0  0  0  0  0  0  0  0  0  0  0
  199.6754  188.5196  159.2390 C   0  0  0  0  0  0  0  0  0  0  0  0
  198.6460  189.4409  159.5132 C   0  0  0  0  0  0  0  0  0  0  0  0
  197.3153  189.1300  159.1732 C   0  0  0  0  0  0  0  0  0  0  0  0
  197.0210  187.9082  158.5341 C   0  0  0  0  0  0  0  0  0  0  0  0
  199.6378  186.8684  153.8118 C   0  0  0  0  0  0  0  0  0  0  0  0
  200.4781  186.3581  152.8018 N   0  0  0  0  0  0  0  0  0  0  0  0
  201.2886  187.2407  152.0298 C   0  0  0  0  0  0  0  0  0  0  0  0
  201.0710  188.6412  152.1241 C   0  0  0  0  0  0  0  0  0  0  0  0
  201.8465  189.5500  151.3670 C   0  0  0  0  0  0  0  0  0  0  0  0
  202.8580  189.0798  150.5145 C   0  0  0  0  0  0  0  0  0  0  0  0
  203.0995  187.6995  150.4232 C   0  0  0  0  0  0  0  0  0  0  0  0
  202.3250  186.7922  151.1722 C   0  0  0  0  0  0  0  0  0  0  0  0
  200.0394  189.1785  153.0378 C   0  0  0  0  0  0  0  0  0  0  0  0
  199.7386  190.3706  153.0830 O   0  0  0  0  0  0  0  0  0  0  0  0
  199.4038  188.2047  153.9297 C   0  0  0  0  0  0  0  0  0  0  0  0
  200.3311  185.0089  152.2098 C   0  0  1  0  0  0  0  0  0  0  0  0
  199.6068  184.9584  150.8717 C   0  0  0  0  0  0  0  0  0  0  0  0
  200.0942  184.1305  149.8402 C   0  0  0  0  0  0  0  0  0  0  0  0
  199.4033  184.0374  148.6170 C   0  0  0  0  0  0  0  0  0  0  0  0
  198.2176  184.7732  148.4157 C   0  0  0  0  0  0  0  0  0  0  0  0
  197.7187  185.5927  149.4504 C   0  0  0  0  0  0  0  0  0  0  0  0
  198.4150  185.6888  150.6719 C   0  0  0  0  0  0  0  0  0  0  0  0
  197.4839  184.6781  147.0962 C   0  0  2  0  0  0  0  0  0  0  0  0
  197.5926  187.3522  155.1090 H   0  0  0  0  0  0  0  0  0  0  0  0
  196.1657  186.3273  156.3363 H   0  0  0  0  0  0  0  0  0  0  0  0
  196.8001  184.7236  155.9121 H   0  0  0  0  0  0  0  0  0  0  0  0
  198.6418  185.0849  157.4961 H   0  0  0  0  0  0  0  0  0  0  0  0
  197.8042  185.2096  160.4221 H   0  0  0  0  0  0  0  0  0  0  0  0
  197.1149  183.6045  160.3782 H   0  0  0  0  0  0  0  0  0  0  0  0
  199.5245  183.4009  160.5078 H   0  0  0  0  0  0  0  0  0  0  0  0
  199.7785  184.3495  159.0761 H   0  0  0  0  0  0  0  0  0  0  0  0
  198.9679  182.7858  158.9431 H   0  0  0  0  0  0  0  0  0  0  0  0
  195.7283  185.9626  159.7606 H   0  0  0  0  0  0  0  0  0  0  0  0
  195.1302  185.6680  158.1442 H   0  0  0  0  0  0  0  0  0  0  0  0
  193.6812  184.6385  159.6909 H   0  0  0  0  0  0  0  0  0  0  0  0
  194.9590  183.7449  160.4668 H   0  0  0  0  0  0  0  0  0  0  0  0
  194.4847  183.3554  158.8000 H   0  0  0  0  0  0  0  0  0  0  0  0
  200.1707  186.5699  158.4574 H   0  0  0  0  0  0  0  0  0  0  0  0
  200.6950  188.7621  159.5019 H   0  0  0  0  0  0  0  0  0  0  0  0
  198.8675  190.3816  160.0019 H   0  0  0  0  0  0  0  0  0  0  0  0
  196.5096  189.8140  159.3938 H   0  0  0  0  0  0  0  0  0  0  0  0
  195.9978  187.7238  158.2617 H   0  0  0  0  0  0  0  0  0  0  0  0
  201.6806  190.6164  151.4430 H   0  0  0  0  0  0  0  0  0  0  0  0
  203.4558  189.7756  149.9391 H   0  0  0  0  0  0  0  0  0  0  0  0
  203.8847  187.3305  149.7810 H   0  0  0  0  0  0  0  0  0  0  0  0
  202.5741  185.7509  151.0658 H   0  0  0  0  0  0  0  0  0  0  0  0
  198.7784  188.6371  154.6952 H   0  0  0  0  0  0  0  0  0  0  0  0
  201.3014  184.5140  152.1450 H   0  0  0  0  0  0  0  0  0  0  0  0
  199.7566  184.3169  152.8216 H   0  0  0  0  0  0  0  0  0  0  0  0
  200.9903  183.5475  149.9904 H   0  0  0  0  0  0  0  0  0  0  0  0
  199.7856  183.3929  147.8368 H   0  0  0  0  0  0  0  0  0  0  0  0
  196.8035  186.1512  149.3052 H   0  0  0  0  0  0  0  0  0  0  0  0
  198.0170  186.3087  151.4630 H   0  0  0  0  0  0  0  0  0  0  0  0
  197.0077  185.6265  146.8531 H   0  0  0  0  0  0  0  0  0  0  0  0
  196.7207  183.9040  147.1527 H   0  0  0  0  0  0  0  0  0  0  0  0
  198.1694  184.4298  146.2865 H   0  0  0  0  0  0  0  0  0  0  0  0
  1  2  2  0
  2  3  1  0
  2 17  1  0
  3  4  1  0
  3 36  1  0
  4  5  1  0
  4 37  1  1
  4 38  1  0
  5  6  1  0
  5 11  1  0
  5 39  1  6
  6  7  1  0
  6  9  1  0
  7  8  1  0
  7 40  1  1
  7 41  1  0
  8 42  1  1
  8 43  1  0
  8 44  1  0
  9 10  1  0
  9 45  1  1
  9 46  1  0
 10 47  1  1
 10 48  1  0
 10 49  1  0
 11 12  2  0
 11 16  1  0
 12 13  1  0
 12 50  1  0
 13 14  2  0
 13 51  1  0
 14 15  1  0
 14 52  1  0
 15 16  2  0
 15 53  1  0
 16 54  1  0
 17 18  1  0
 17 27  2  0
 18 19  1  0
 18 28  1  0
 19 20  1  0
 19 24  2  0
 20 21  2  0
 20 25  1  0
 21 22  1  0
 21 55  1  0
 22 23  2  0
 22 56  1  0
 23 24  1  0
 23 57  1  0
 24 58  1  0
 25 26  2  0
 25 27  1  0
 27 59  1  0
 28 29  1  0
 28 60  1  6
 28 61  1  0
 29 30  1  0
 29 34  2  0
 30 31  2  0
 30 62  1  0
 31 32  1  0
 31 63  1  0
 32 33  2  0
 32 35  1  0
 33 34  1  0
 33 64  1  0
 34 65  1  0
 35 66  1  6
 35 67  1  0
 35 68  1  0
M  END
>  <s_epik_cmdline>  (678) 
J2VwaWtfcHl0aG9uJywgJy1waCcsICc3LjAwMDAwMCcsICctcGh0JywgJzIuMDAwMDAwJywgJy1tcycsICcxNicsICctdG4nLCAnOCcsICctbWEnLCAnMjAwJywgJy1pbWFlJywgJzxpbmZpbGUubWFlPicsICctb21hZScsICc8b3V0ZmlsZS5tYWU+Jw==

>  <s_epik_input>  (678) 
W2NIXTFbY0hdYyhbQ0gzXSlbY0hdW2NIXWMxW0NIMl1uMmMoW2NIXWMoPU8pYyhjMjMpW2NIXVtjSF1bY0hdW2NIXTMpQyg9TylbTkhdW0NIMl1bQ0BIXShOKFtDSDJdW0NIM10pW0NIMl1bQ0gzXSljNFtjSF1bY0hdW2NIXVtjSF1bY0hdNA==

>  <s_i_glide_gridfile>  (678) 
ATP-Grid

>  <s_lp_Force_Field>  (678) 
OPLS_2005

>  <s_lp_Variant>  (678) 
YAS_R012____OTV5753507____OTV1778944____OTV7020410249-3

>  <s_lp_label>  (678) 
164_sdstereoexpander_1_neutralizer_1_epik_2_stereoizer_1

>  <s_m_source_file>  (678) 
ATP-VSW-LIGPREP-001-in.maegz

>  <s_sd_BIOSOLVEIT.INFINISEE\_QUERY\_NAME>  (678) 
Ref-Lig

>  <s_sd_BIOSOLVEIT.INFINISEE\_QUERY\_SMILES>  (678) 
S(c1nc2c(cc1C[NH2+]Cc3ccc(cc3)C[NH+](C)C)cccc2)Cc4ccccc4

>  <s_sd_BIOSOLVEIT.INFINISEE\_REACTION\_NAME>  (678) 
YAS_R012

>  <s_sd_BIOSOLVEIT.INFINISEE\_REAGENT1\_NAME>  (678) 
OTV5753507

>  <s_sd_BIOSOLVEIT.INFINISEE\_REAGENT1\_SMILES>  (678) 
Nc1ccccc1

>  <s_sd_BIOSOLVEIT.INFINISEE\_REAGENT2\_NAME>  (678) 
OTV1778944

>  <s_sd_BIOSOLVEIT.INFINISEE\_REAGENT2\_SMILES>  (678) 
ClCc1ccc(cc1)C

>  <s_sd_BIOSOLVEIT.INFINISEE\_REAGENT3\_NAME>  (678) 
OTV7020410249

>  <s_sd_BIOSOLVEIT.INFINISEE\_REAGENT3\_SMILES>  (678) 
N(C(c1ccccc1)CN)(CC)CC

>  <s_sd_BIOSOLVEIT.INFINISEE\_SPACE>  (678) 
CHEMriya_12bn_2022-01

>  <s_vsw_compound_code>  (678) 
5217

>  <s_vsw_variant>  (678) 
5217-3

>  <r_epik_Charging_Adjusted_Penalty>  (678) 
1.3355796990922499

>  <r_epik_Ionization_Penalty>  (678) 
1.3355999999999999

>  <r_epik_Ionization_Penalty_Charging>  (678) 
0

>  <r_epik_Ionization_Penalty_Neutral>  (678) 
1.3355999999999999

>  <r_epik_State_Penalty>  (678) 
1.3355999999999999

>  <r_i_docking_score>  (678) 
-1.88928429654037

>  <r_i_glide_ecoul>  (678) 
-1.0325908660888701

>  <r_i_glide_eff_state_penalty>  (678) 
1.3355999999999999

>  <r_i_glide_einternal>  (678) 
1.85971975326538

>  <r_i_glide_emodel>  (678) 
-36.8802676550361

>  <r_i_glide_energy>  (678) 
-31.358827590942401

>  <r_i_glide_erotb>  (678) 
0.64616582181743798

>  <r_i_glide_esite>  (678) 
-8.7203129858430905e-05

>  <r_i_glide_evdw>  (678) 
-30.326236724853501

>  <r_i_glide_gscore>  (678) 
-3.2248842965403699

>  <r_i_glide_hbond>  (678) 
0

>  <r_i_glide_ligand_efficiency>  (678) 
-0.053979551329724901

>  <r_i_glide_ligand_efficiency_ln>  (678) 
-0.41473983349642302

>  <r_i_glide_ligand_efficiency_sa>  (678) 
-0.176570691584502

>  <r_i_glide_lipo>  (678) 
-1.9788664490719501

>  <r_i_glide_metal>  (678) 
-0

>  <r_i_glide_rewards>  (678) 
-0.22089599999999801

>  <r_lp_Energy>  (678) 
35.973477000000003

>  <r_qp_ACxDN^.5/SA>  (678) 
0.0091278999999999996

>  <r_qp_CIQPlogS>  (678) 
-6.1879999999999997

>  <r_qp_EA(eV)>  (678) 
0.71999999999999997

>  <r_qp_FISA>  (678) 
85.489999999999995

>  <r_qp_FOSA>  (678) 
322.452

>  <r_qp_IP(eV)>  (678) 
8.5609999999999999

>  <r_qp_Jm>  (678) 
0.0053723780078216501

>  <r_qp_PISA>  (678) 
358.94099999999997

>  <r_qp_PSA>  (678) 
68.683000000000007

>  <r_qp_PercentHumanOralAbsorption>  (678) 
100

>  <r_qp_QPPCaco>  (678) 
382.02699999999999

>  <r_qp_QPPMDCK>  (678) 
193.43000000000001

>  <r_qp_QPlogBB>  (678) 
-0.432

>  <r_qp_QPlogHERG>  (678) 
-6.9119999999999999

>  <r_qp_QPlogKhsa>  (678) 
0.86499999999999999

>  <r_qp_QPlogKp>  (678) 
-3.0289999999999999

>  <r_qp_QPlogPC16>  (678) 
15.254

>  <r_qp_QPlogPo/w>  (678) 
4.9340000000000002

>  <r_qp_QPlogPoct>  (678) 
22.286999999999999

>  <r_qp_QPlogPw>  (678) 
10.962

>  <r_qp_QPlogS>  (678) 
-4.9109999999999996

>  <r_qp_QPpolrz>  (678) 
50.639000000000003

>  <r_qp_SASA>  (678) 
766.88300000000004

>  <r_qp_SAamideO>  (678) 
0

>  <r_qp_SAfluorine>  (678) 
0

>  <r_qp_WPSA>  (678) 
0

>  <r_qp_accptHB>  (678) 
7

>  <r_qp_dip^2/V>  (678) 
0.018223099999999999

>  <r_qp_dipole>  (678) 
5.1900000000000004

>  <r_qp_donorHB>  (678) 
1

>  <r_qp_glob>  (678) 
0.81819790000000003

>  <r_qp_mol_MW>  (678) 
467.61000000000001

>  <r_qp_volume>  (678) 
1477.8620000000001

>  <r_sd_BIOSOLVEIT.INFINISEE\_FTREES\_SIMILARITY>  (678) 
0.90100000000000002

>  <r_sd_BIOSOLVEIT.LOGP>  (678) 
3.86402

>  <r_sd_BIOSOLVEIT.MOLECULAR\_WEIGHT>  (678) 
468.61799999999999

>  <r_sd_BIOSOLVEIT.TPSA>  (678) 
53.850000000000001

>  <i_epik_Tot_Q>  (678) 
0

>  <i_epik_Tot_abs_Q>  (678) 
0

>  <i_f3d_flags>  (678) 
0

>  <i_i_glide_confnum>  (678) 
3

>  <i_i_glide_lignum>  (678) 
36

>  <i_i_glide_posenum>  (678) 
5

>  <i_i_glide_rotatable_bonds>  (678) 
10

>  <i_lp_mmshare_version>  (678) 
65135

>  <i_m_ct_format>  (678) 
2

>  <i_m_source_file_index>  (678) 
164

>  <i_qp_#NandO>  (678) 
5

>  <i_qp_#acid>  (678) 
0

>  <i_qp_#amide>  (678) 
0

>  <i_qp_#amidine>  (678) 
0

>  <i_qp_#amine>  (678) 
1

>  <i_qp_#in34>  (678) 
0

>  <i_qp_#in56>  (678) 
22

>  <i_qp_#metab>  (678) 
7

>  <i_qp_#nonHatm>  (678) 
35

>  <i_qp_#noncon>  (678) 
0

>  <i_qp_#ringatoms>  (678) 
22

>  <i_qp_#rotor>  (678) 
9

>  <i_qp_#rtvFG>  (678) 
0

>  <i_qp_#stars>  (678) 
0

>  <i_qp_CNS>  (678) 
1

>  <i_qp_HumanOralAbsorption>  (678) 
3

>  <i_qp_RuleOfFive>  (678) 
0

>  <i_qp_RuleOfThree>  (678) 
1

>  <i_sd_BIOSOLVEIT.INFINISEE\_RESULT\_RANK>  (678) 
97323

>  <i_sd_version>  (678) 
0

>  <b_lp_Chiralities_Consistent>  (678) 
1

>  <b_sd_chiral_flag>  (678) 
0

>  <canonical_id>  (678) 
ATP-HTVS-697A85B30C1D

>  <compound_code>  (678) 
5217

>  <title>  (678) 
YAS_R012____OTV5753507____OTV1778944____OTV7020410249

>  <variant>  (678) 
5217-3

>  <source_file>  (678) 
运行/运行/ATP-VSW/ATP-VSW-DOCK_HTVS_1-001_lib/ATP-VSW-DOCK_HTVS_1-001_lib

>  <canonical_smiles>  (678) 
CCN(CC)[C@@H](CNC(=O)c1cc(=O)c2ccccc2n1Cc1ccc(C)cc1)c1ccccc1

>  <scaffold>  (678) 
O=C(NCCc1ccccc1)c1cc(=O)c2ccccc2n1Cc1ccccc1

>  <molecular_formula>  (678) 
C30H33N3O2

$$$$
ATP-HTVS-69A2FC5C8ACC
     RDKit          3D

 51 54  0  0  0  0  0  0  0  0999 V2000
  198.8844  185.5177  159.7170 O   0  0  0  0  0  0  0  0  0  0  0  0
  198.2165  184.6749  158.8860 C   0  0  0  0  0  0  0  0  0  0  0  0
  198.2048  184.8970  157.4888 C   0  0  0  0  0  0  0  0  0  0  0  0
  197.5189  183.9991  156.6509 C   0  0  0  0  0  0  0  0  0  0  0  0
  196.8454  182.8836  157.2034 C   0  0  0  0  0  0  0  0  0  0  0  0
  196.8564  182.6723  158.5927 C   0  0  0  0  0  0  0  0  0  0  0  0
  197.5399  183.5656  159.4329 C   0  0  0  0  0  0  0  0  0  0  0  0
  196.1666  181.8750  156.3029 C   0  0  1  0  0  0  0  0  0  0  0  0
  196.9591  180.6364  156.1428 N   0  0  1  0  0  0  0  0  0  0  0  0
  198.4052  180.8227  155.8769 C   0  0  1  0  0  0  0  0  0  0  0  0
  198.9778  179.5999  155.2333 C   0  0  0  0  0  0  0  0  0  0  0  0
  198.8698  179.1814  153.8669 C   0  0  0  0  0  0  0  0  0  0  0  0
  199.5715  178.0728  153.6764 N   0  0  0  0  0  0  0  0  0  0  0  0
  200.1118  177.7258  154.8708 N   0  0  0  0  0  0  0  0  0  0  0  0
  200.9211  176.5606  155.0060 C   0  0  0  0  0  0  0  0  0  0  0  0
  201.1557  175.7105  153.8978 C   0  0  0  0  0  0  0  0  0  0  0  0
  201.9642  174.5645  154.0273 C   0  0  0  0  0  0  0  0  0  0  0  0
  202.5511  174.2511  155.2696 C   0  0  0  0  0  0  0  0  0  0  0  0
  202.3239  175.0879  156.3779 C   0  0  0  0  0  0  0  0  0  0  0  0
  201.5136  176.2319  156.2493 C   0  0  0  0  0  0  0  0  0  0  0  0
  199.7566  178.6500  155.8328 C   0  0  0  0  0  0  0  0  0  0  0  0
  198.1292  179.7851  152.7280 C   0  0  0  0  0  0  0  0  0  0  0  0
  198.5343  179.5495  151.3886 C   0  0  0  0  0  0  0  0  0  0  0  0
  197.8183  180.1544  150.3295 C   0  0  0  0  0  0  0  0  0  0  0  0
  196.7560  180.9698  150.5297 N   0  0  0  0  0  0  0  0  0  0  0  0
  196.3675  181.1863  151.7993 C   0  0  0  0  0  0  0  0  0  0  0  0
  196.9949  180.6087  152.9065 C   0  0  0  0  0  0  0  0  0  0  0  0
  198.9382  186.0830  156.8849 C   0  0  2  0  0  0  0  0  0  0  0  0
  196.8175  180.0730  156.9851 H   0  0  0  0  0  0  0  0  0  0  0  0
  199.2667  186.2548  159.2636 H   0  0  0  0  0  0  0  0  0  0  0  0
  197.5261  184.1518  155.5802 H   0  0  0  0  0  0  0  0  0  0  0  0
  196.3673  181.8017  159.0098 H   0  0  0  0  0  0  0  0  0  0  0  0
  197.5664  183.3851  160.4947 H   0  0  0  0  0  0  0  0  0  0  0  0
  195.1806  181.6183  156.7020 H   0  0  0  0  0  0  0  0  0  0  0  0
  196.0041  182.3409  155.3298 H   0  0  0  0  0  0  0  0  0  0  0  0
  198.5549  181.6738  155.2180 H   0  0  0  0  0  0  0  0  0  0  0  0
  198.9217  181.0619  156.8077 H   0  0  0  0  0  0  0  0  0  0  0  0
  200.7204  175.9308  152.9330 H   0  0  0  0  0  0  0  0  0  0  0  0
  202.1402  173.9253  153.1743 H   0  0  0  0  0  0  0  0  0  0  0  0
  203.1723  173.3733  155.3695 H   0  0  0  0  0  0  0  0  0  0  0  0
  202.7765  174.8565  157.3315 H   0  0  0  0  0  0  0  0  0  0  0  0
  201.3656  176.8513  157.1197 H   0  0  0  0  0  0  0  0  0  0  0  0
  200.0801  178.5741  156.8643 H   0  0  0  0  0  0  0  0  0  0  0  0
  199.3809  178.9200  151.1646 H   0  0  0  0  0  0  0  0  0  0  0  0
  198.1053  180.0013  149.2981 H   0  0  0  0  0  0  0  0  0  0  0  0
  195.5378  181.8497  151.9741 H   0  0  0  0  0  0  0  0  0  0  0  0
  196.5510  180.8362  153.8499 H   0  0  0  0  0  0  0  0  0  0  0  0
  198.8150  186.1218  155.8009 H   0  0  0  0  0  0  0  0  0  0  0  0
  200.0073  186.0304  157.0978 H   0  0  0  0  0  0  0  0  0  0  0  0
  198.5459  187.0126  157.2965 H   0  0  0  0  0  0  0  0  0  0  0  0
  196.5450  180.0891  155.4112 H   0  0  0  0  0  0  0  0  0  0  0  0
  1  2  1  0
  1 30  1  0
  2  3  2  0
  2  7  1  0
  3  4  1  0
  3 28  1  0
  4  5  2  0
  4 31  1  0
  5  6  1  0
  5  8  1  0
  6  7  2  0
  6 32  1  0
  7 33  1  0
  8  9  1  0
  8 34  1  1
  8 35  1  0
  9 10  1  0
  9 29  1  1
  9 51  1  0
 10 11  1  0
 10 36  1  6
 10 37  1  0
 11 12  1  0
 11 21  2  0
 12 13  2  0
 12 22  1  0
 13 14  1  0
 14 15  1  0
 14 21  1  0
 15 16  2  0
 15 20  1  0
 16 17  1  0
 16 38  1  0
 17 18  2  0
 17 39  1  0
 18 19  1  0
 18 40  1  0
 19 20  2  0
 19 41  1  0
 20 42  1  0
 21 43  1  0
 22 23  2  0
 22 27  1  0
 23 24  1  0
 23 44  1  0
 24 25  2  0
 24 45  1  0
 25 26  1  0
 26 27  2  0
 26 46  1  0
 27 47  1  0
 28 48  1  6
 28 49  1  0
 28 50  1  0
M  CHG  1   9   1
M  END
>  <s_epik_cmdline>  (679) 
J2VwaWtfcHl0aG9uJywgJy1waCcsICc3LjAwMDAwMCcsICctcGh0JywgJzIuMDAwMDAwJywgJy1tcycsICcxNicsICctdG4nLCAnOCcsICctbWEnLCAnMjAwJywgJy1pbWFlJywgJzxpbmZpbGUubWFlPicsICctb21hZScsICc8b3V0ZmlsZS5tYWU+Jw==

>  <s_epik_input>  (679) 
W09IXWMxYyhbQ0gzXSlbY0hdYyhbY0hdW2NIXTEpW0NIMl1bTkhdW0NIMl1jMmMoLWMzW2NIXVtjSF1uW2NIXVtjSF0zKW5uKFtjSF0yKS1jNFtjSF1bY0hdW2NIXVtjSF1bY0hdNA==

>  <s_i_glide_gridfile>  (679) 
ATP-Grid

>  <s_lp_Force_Field>  (679) 
OPLS_2005

>  <s_lp_Variant>  (679) 
a4____269872____2778-1

>  <s_lp_label>  (679) 
517_sdstereoexpander_1_neutralizer_1_epik_1_stereoizer_1

>  <s_m_source_file>  (679) 
ATP-VSW-LIGPREP-003-in.maegz

>  <s_sd_BIOSOLVEIT.INFINISEE\_QUERY\_NAME>  (679) 
Ref-Lig

>  <s_sd_BIOSOLVEIT.INFINISEE\_QUERY\_SMILES>  (679) 
S(c1nc2c(cc1C[NH2+]Cc3ccc(cc3)C[NH+](C)C)cccc2)Cc4ccccc4

>  <s_sd_BIOSOLVEIT.INFINISEE\_REACTION\_NAME>  (679) 
a4

>  <s_sd_BIOSOLVEIT.INFINISEE\_REAGENT1\_SMILES>  (679) 
[R1*]NCC=1C(=NN(c2ccccc2)C1)c3ccncc3

>  <s_sd_BIOSOLVEIT.INFINISEE\_REAGENT2\_SMILES>  (679) 
[R1*]Cc1cc(c(O)cc1)C

>  <s_sd_BIOSOLVEIT.INFINISEE\_SPACE>  (679) 
FreedomSpace_5bn_2023-06

>  <s_vsw_compound_code>  (679) 
16515

>  <s_vsw_variant>  (679) 
16515-1

>  <r_epik_Charging_Adjusted_Penalty>  (679) 
0.14603028504159099

>  <r_epik_Ionization_Penalty>  (679) 
0.079899999999999999

>  <r_epik_Ionization_Penalty_Charging>  (679) 
0.072999999999999995

>  <r_epik_Ionization_Penalty_Neutral>  (679) 
0.0068999999999999999

>  <r_epik_State_Penalty>  (679) 
0.072999999999999995

>  <r_i_docking_score>  (679) 
-4.9509779518084498

>  <r_i_glide_ecoul>  (679) 
-11.337587356567401

>  <r_i_glide_eff_state_penalty>  (679) 
0.072999999999999995

>  <r_i_glide_einternal>  (679) 
2.8733654022216801

>  <r_i_glide_emodel>  (679) 
-59.186239807281098

>  <r_i_glide_energy>  (679) 
-41.354904174804702

>  <r_i_glide_erotb>  (679) 
0.8394040250982

>  <r_i_glide_esite>  (679) 
-0.11158570221896801

>  <r_i_glide_evdw>  (679) 
-30.017316818237301

>  <r_i_glide_gscore>  (679) 
-5.0239779518084502

>  <r_i_glide_hbond>  (679) 
-0.172680903661973

>  <r_i_glide_ligand_efficiency>  (679) 
-0.176820641136016

>  <r_i_glide_ligand_efficiency_ln>  (679) 
-1.14283107830665

>  <r_i_glide_ligand_efficiency_sa>  (679) 
-0.53693160827722197

>  <r_i_glide_lipo>  (679) 
-1.27616769935601

>  <r_i_glide_metal>  (679) 
-0

>  <r_i_glide_rewards>  (679) 
-1.10144372727273

>  <r_lp_Energy>  (679) 
12.052474999999999

>  <r_lp_tautomer_probability>  (679) 
0.999999999997365

>  <r_qp_ACxDN^.5/SA>  (679) 
0.0093629000000000004

>  <r_qp_CIQPlogS>  (679) 
-5.0999999999999996

>  <r_qp_EA(eV)>  (679) 
0.67300000000000004

>  <r_qp_FISA>  (679) 
89.962999999999994

>  <r_qp_FOSA>  (679) 
143.88900000000001

>  <r_qp_IP(eV)>  (679) 
8.8879999999999999

>  <r_qp_Jm>  (679) 
0.0012219002260329299

>  <r_qp_PISA>  (679) 
483.61200000000002

>  <r_qp_PSA>  (679) 
62.478000000000002

>  <r_qp_PercentHumanOralAbsorption>  (679) 
100

>  <r_qp_QPPCaco>  (679) 
346.48399999999998

>  <r_qp_QPPMDCK>  (679) 
174.053

>  <r_qp_QPlogBB>  (679) 
-0.31

>  <r_qp_QPlogHERG>  (679) 
-8.0239999999999991

>  <r_qp_QPlogKhsa>  (679) 
0.82799999999999996

>  <r_qp_QPlogKp>  (679) 
-3.056

>  <r_qp_QPlogPC16>  (679) 
14.494

>  <r_qp_QPlogPo/w>  (679) 
4.4320000000000004

>  <r_qp_QPlogPoct>  (679) 
21.172000000000001

>  <r_qp_QPlogPw>  (679) 
11.852

>  <r_qp_QPlogS>  (679) 
-5.4249999999999998

>  <r_qp_QPpolrz>  (679) 
45.664000000000001

>  <r_qp_SASA>  (679) 
717.46400000000006

>  <r_qp_SAamideO>  (679) 
0

>  <r_qp_SAfluorine>  (679) 
0

>  <r_qp_WPSA>  (679) 
0

>  <r_qp_accptHB>  (679) 
4.75

>  <r_qp_dip^2/V>  (679) 
0.036828399999999997

>  <r_qp_dipole>  (679) 
6.8109999999999999

>  <r_qp_donorHB>  (679) 
2

>  <r_qp_glob>  (679) 
0.78618969999999999

>  <r_qp_mol_MW>  (679) 
370.45299999999997

>  <r_qp_volume>  (679) 
1259.6320000000001

>  <r_sd_BIOSOLVEIT.INFINISEE\_FTREES\_SIMILARITY>  (679) 
0.90400000000000003

>  <r_sd_BIOSOLVEIT.LOGP>  (679) 
3.2119200000000001

>  <r_sd_BIOSOLVEIT.MOLECULAR\_WEIGHT>  (679) 
371.46199999999999

>  <r_sd_BIOSOLVEIT.TPSA>  (679) 
67.549999999999997

>  <i_epik_Tot_Q>  (679) 
1

>  <i_epik_Tot_abs_Q>  (679) 
1

>  <i_f3d_flags>  (679) 
0

>  <i_i_glide_confnum>  (679) 
3

>  <i_i_glide_lignum>  (679) 
241

>  <i_i_glide_posenum>  (679) 
6

>  <i_i_glide_rotatable_bonds>  (679) 
7

>  <i_lp_mmshare_version>  (679) 
65135

>  <i_m_ct_format>  (679) 
2

>  <i_m_source_file_index>  (679) 
517

>  <i_qp_#NandO>  (679) 
5

>  <i_qp_#acid>  (679) 
0

>  <i_qp_#amide>  (679) 
0

>  <i_qp_#amidine>  (679) 
0

>  <i_qp_#amine>  (679) 
1

>  <i_qp_#in34>  (679) 
0

>  <i_qp_#in56>  (679) 
23

>  <i_qp_#metab>  (679) 
7

>  <i_qp_#nonHatm>  (679) 
28

>  <i_qp_#noncon>  (679) 
0

>  <i_qp_#ringatoms>  (679) 
23

>  <i_qp_#rotor>  (679) 
5

>  <i_qp_#rtvFG>  (679) 
0

>  <i_qp_#stars>  (679) 
1

>  <i_qp_CNS>  (679) 
1

>  <i_qp_HumanOralAbsorption>  (679) 
3

>  <i_qp_RuleOfFive>  (679) 
0

>  <i_qp_RuleOfThree>  (679) 
1

>  <i_sd_BIOSOLVEIT.INFINISEE\_REAGENT1\_NAME>  (679) 
269872

>  <i_sd_BIOSOLVEIT.INFINISEE\_REAGENT2\_NAME>  (679) 
2778

>  <i_sd_BIOSOLVEIT.INFINISEE\_RESULT\_RANK>  (679) 
78339

>  <i_sd_version>  (679) 
0

>  <b_lp_Chiralities_Consistent>  (679) 
1

>  <b_sd_chiral_flag>  (679) 
0

>  <canonical_id>  (679) 
ATP-HTVS-69A2FC5C8ACC

>  <compound_code>  (679) 
16515

>  <title>  (679) 
a4____269872____2778

>  <variant>  (679) 
16515-1

>  <source_file>  (679) 
运行/运行/ATP-VSW/ATP-VSW-DOCK_HTVS_1-003_lib/ATP-VSW-DOCK_HTVS_1-003_lib.mae

>  <canonical_smiles>  (679) 
Cc1cc(C[NH2+]Cc2cn(-c3ccccc3)nc2-c2ccncc2)ccc1O

>  <scaffold>  (679) 
c1ccc(C[NH2+]Cc2cn(-c3ccccc3)nc2-c2ccncc2)cc1

>  <molecular_formula>  (679) 
C23H23N4O+

$$$$
ATP-HTVS-69AD6B8D3733
     RDKit          3D

 56 59  0  0  0  0  0  0  0  0999 V2000
  194.9671  184.6791  159.7283 S   0  0  0  0  0  0  0  0  0  0  0  0
  196.2684  185.7950  160.0384 C   0  0  0  0  0  0  0  0  0  0  0  0
  197.4777  185.1799  159.7956 C   0  0  0  0  0  0  0  0  0  0  0  0
  197.3822  183.8747  159.3095 C   0  0  0  0  0  0  0  0  0  0  0  0
  196.0782  183.4370  159.2062 C   0  0  0  0  0  0  0  0  0  0  0  0
  195.6134  182.1053  158.7667 C   0  0  1  0  0  0  0  0  0  0  0  0
  195.8138  181.8239  157.3228 N   0  0  1  0  0  0  0  0  0  0  0  0
  197.2141  181.9552  156.8409 C   0  0  1  0  0  0  0  0  0  0  0  0
  197.1397  181.6382  155.3697 C   0  0  0  0  0  0  0  0  0  0  0  0
  196.8325  182.5754  154.4762 N   0  0  0  0  0  0  0  0  0  0  0  0
  196.8489  181.8766  153.2742 C   0  0  0  0  0  0  0  0  0  0  0  0
  197.1142  180.5028  153.5054 C   0  0  0  0  0  0  0  0  0  0  0  0
  197.3942  180.4034  154.8616 N   0  0  0  0  0  0  0  0  0  0  0  0
  197.8204  179.2088  155.5981 C   0  0  1  0  0  0  0  0  0  0  0  0
  199.2034  178.6829  155.2108 C   0  0  0  0  0  0  0  0  0  0  0  0
  200.1411  178.2862  156.1758 C   0  0  0  0  0  0  0  0  0  0  0  0
  201.4019  177.8116  155.7579 C   0  0  0  0  0  0  0  0  0  0  0  0
  201.7500  177.6984  154.3975 C   0  0  0  0  0  0  0  0  0  0  0  0
  200.8280  178.0806  153.4291 C   0  0  0  0  0  0  0  0  0  0  0  0
  199.6181  178.5846  153.8600 C   0  0  0  0  0  0  0  0  0  0  0  0
  197.0723  179.5902  152.4007 C   0  0  0  0  0  0  0  0  0  0  0  0
  196.9935  180.0258  151.1091 C   0  0  0  0  0  0  0  0  0  0  0  0
  196.7097  181.3938  150.8618 C   0  0  0  0  0  0  0  0  0  0  0  0
  196.6078  182.2934  151.9479 C   0  0  0  0  0  0  0  0  0  0  0  0
  196.0041  187.1879  160.5321 C   0  0  1  0  0  0  0  0  0  0  0  0
  196.6075  188.2725  159.7013 N   0  0  2  0  0  0  0  0  0  0  0  0
  197.9970  188.0223  159.2540 C   0  0  2  0  0  0  0  0  0  0  0  0
  196.5212  189.5944  160.3536 C   0  0  2  0  0  0  0  0  0  0  0  0
  195.5472  180.8727  157.1885 H   0  0  0  0  0  0  0  0  0  0  0  0
  198.4562  185.6221  159.9099 H   0  0  0  0  0  0  0  0  0  0  0  0
  198.2655  183.3197  159.0337 H   0  0  0  0  0  0  0  0  0  0  0  0
  196.1030  181.3252  159.3562 H   0  0  0  0  0  0  0  0  0  0  0  0
  194.5476  182.0160  158.9810 H   0  0  0  0  0  0  0  0  0  0  0  0
  197.6148  182.9504  156.9628 H   0  0  0  0  0  0  0  0  0  0  0  0
  197.8707  181.2834  157.3853 H   0  0  0  0  0  0  0  0  0  0  0  0
  197.8452  179.4128  156.6627 H   0  0  0  0  0  0  0  0  0  0  0  0
  197.0521  178.4485  155.4846 H   0  0  0  0  0  0  0  0  0  0  0  0
  199.8907  178.3673  157.2256 H   0  0  0  0  0  0  0  0  0  0  0  0
  202.1265  177.5212  156.4891 H   0  0  0  0  0  0  0  0  0  0  0  0
  202.7034  177.3472  154.0530 H   0  0  0  0  0  0  0  0  0  0  0  0
  201.0036  178.0566  152.3595 H   0  0  0  0  0  0  0  0  0  0  0  0
  199.1221  178.9495  153.0346 H   0  0  0  0  0  0  0  0  0  0  0  0
  197.2681  178.5297  152.5469 H   0  0  0  0  0  0  0  0  0  0  0  0
  197.1210  179.3226  150.2880 H   0  0  0  0  0  0  0  0  0  0  0  0
  196.5277  181.7047  149.8534 H   0  0  0  0  0  0  0  0  0  0  0  0
  196.3325  183.3167  151.7587 H   0  0  0  0  0  0  0  0  0  0  0  0
  194.9250  187.3526  160.5759 H   0  0  0  0  0  0  0  0  0  0  0  0
  196.3398  187.2779  161.5629 H   0  0  0  0  0  0  0  0  0  0  0  0
  198.6445  187.8309  160.1174 H   0  0  0  0  0  0  0  0  0  0  0  0
  198.4130  188.8277  158.6624 H   0  0  0  0  0  0  0  0  0  0  0  0
  198.0325  187.2011  158.5454 H   0  0  0  0  0  0  0  0  0  0  0  0
  197.1018  189.6096  161.2785 H   0  0  0  0  0  0  0  0  0  0  0  0
  195.4898  189.8511  160.5843 H   0  0  0  0  0  0  0  0  0  0  0  0
  196.9180  190.3663  159.6917 H   0  0  0  0  0  0  0  0  0  0  0  0
  195.2084  182.4417  156.7681 H   0  0  0  0  0  0  0  0  0  0  0  0
  196.0472  188.3244  158.8633 H   0  0  0  0  0  0  0  0  0  0  0  0
  1  2  1  0
  1  5  1  0
  2  3  2  0
  2 25  1  0
  3  4  1  0
  3 30  1  0
  4  5  2  0
  4 31  1  0
  5  6  1  0
  6  7  1  0
  6 32  1  1
  6 33  1  0
  7  8  1  0
  7 29  1  1
  7 55  1  0
  8  9  1  0
  8 34  1  6
  8 35  1  0
  9 10  2  0
  9 13  1  0
 10 11  1  0
 11 12  1  0
 11 24  2  0
 12 13  1  0
 12 21  2  0
 13 14  1  0
 14 15  1  0
 14 36  1  1
 14 37  1  0
 15 16  2  0
 15 20  1  0
 16 17  1  0
 16 38  1  0
 17 18  2  0
 17 39  1  0
 18 19  1  0
 18 40  1  0
 19 20  2  0
 19 41  1  0
 20 42  1  0
 21 22  1  0
 21 43  1  0
 22 23  2  0
 22 44  1  0
 23 24  1  0
 23 45  1  0
 24 46  1  0
 25 26  1  0
 25 47  1  1
 25 48  1  0
 26 27  1  0
 26 28  1  0
 26 56  1  6
 27 49  1  1
 27 50  1  0
 27 51  1  0
 28 52  1  1
 28 53  1  0
 28 54  1  0
M  CHG  2   7   1  26   1
M  END
>  <s_epik_cmdline>  (680) 
J2VwaWtfcHl0aG9uJywgJy1waCcsICc3LjAwMDAwMCcsICctcGh0JywgJzIuMDAwMDAwJywgJy1tcycsICcxNicsICctdG4nLCAnOCcsICctbWEnLCAnMjAwJywgJy1pbWFlJywgJzxpbmZpbGUubWFlPicsICctb21hZScsICc8b3V0ZmlsZS5tYWU+Jw==

>  <s_epik_input>  (680) 
W0NIM11OKFtDSDNdKVtDSDJdYzFzYyhbY0hdW2NIXTEpW0NIMl1bTkhdW0NIMl1jKG4yKW4oYyhjMjMpW2NIXVtjSF1bY0hdW2NIXTMpW0NIMl1jNFtjSF1bY0hdW2NIXVtjSF1bY0hdNA==

>  <s_i_glide_gridfile>  (680) 
ATP-Grid

>  <s_lp_Force_Field>  (680) 
OPLS_2005

>  <s_lp_Variant>  (680) 
m_270004bbb____13774140____24720860-1

>  <s_lp_label>  (680) 
1646_sdstereoexpander_1_neutralizer_1_epik_1_stereoizer_1

>  <s_m_source_file>  (680) 
ATP-VSW-LIGPREP-003-in.maegz

>  <s_sd_BIOSOLVEIT.INFINISEE\_QUERY\_NAME>  (680) 
Ref-Lig

>  <s_sd_BIOSOLVEIT.INFINISEE\_QUERY\_SMILES>  (680) 
S(c1nc2c(cc1C[NH2+]Cc3ccc(cc3)C[NH+](C)C)cccc2)Cc4ccccc4

>  <s_sd_BIOSOLVEIT.INFINISEE\_REACTION\_NAME>  (680) 
m_270004bbb

>  <s_sd_BIOSOLVEIT.INFINISEE\_REAGENT1\_SMILES>  (680) 
[R1*]NCC=1SC(=CC1)CN(C)C

>  <s_sd_BIOSOLVEIT.INFINISEE\_REAGENT2\_SMILES>  (680) 
[R1*]CC1=Nc2c(N1Cc3ccccc3)cccc2

>  <s_sd_BIOSOLVEIT.INFINISEE\_SPACE>  (680) 
REALSpace_44bn_2023-08

>  <s_vsw_compound_code>  (680) 
52643

>  <s_vsw_variant>  (680) 
52643-1

>  <r_epik_Charging_Adjusted_Penalty>  (680) 
0.21286710854251301

>  <r_epik_Ionization_Penalty>  (680) 
0.1086

>  <r_epik_Ionization_Penalty_Charging>  (680) 
0.10780000000000001

>  <r_epik_Ionization_Penalty_Neutral>  (680) 
0.00080000000000000004

>  <r_epik_State_Penalty>  (680) 
0.1051

>  <r_i_docking_score>  (680) 
-5.8118793831195399

>  <r_i_glide_ecoul>  (680) 
-12.8615102767944

>  <r_i_glide_eff_state_penalty>  (680) 
0.1051

>  <r_i_glide_einternal>  (680) 
4.8321366310119602

>  <r_i_glide_emodel>  (680) 
-75.267637529148004

>  <r_i_glide_energy>  (680) 
-48.421359062194803

>  <r_i_glide_erotb>  (680) 
0.88694463982063798

>  <r_i_glide_esite>  (680) 
-0.184818966608532

>  <r_i_glide_evdw>  (680) 
-35.559848785400398

>  <r_i_glide_gscore>  (680) 
-5.9169793831195401

>  <r_i_glide_hbond>  (680) 
-0.38953583037316603

>  <r_i_glide_ligand_efficiency>  (680) 
-0.207567120825698

>  <r_i_glide_ligand_efficiency_ln>  (680) 
-1.34155240581763

>  <r_i_glide_ligand_efficiency_sa>  (680) 
-0.63029602932320605

>  <r_i_glide_lipo>  (680) 
-1.56481310880566

>  <r_i_glide_metal>  (680) 
-0

>  <r_i_glide_rewards>  (680) 
-0.95753713636363502

>  <r_lp_Energy>  (680) 
13.939007999999999

>  <r_qp_ACxDN^.5/SA>  (680) 
0.0081966999999999995

>  <r_qp_CIQPlogS>  (680) 
-4.258

>  <r_qp_EA(eV)>  (680) 
0.33500000000000002

>  <r_qp_FISA>  (680) 
32.020000000000003

>  <r_qp_FOSA>  (680) 
221.78200000000001

>  <r_qp_IP(eV)>  (680) 
8.5289999999999999

>  <r_qp_Jm>  (680) 
0.21459793547570999

>  <r_qp_PISA>  (680) 
329.16800000000001

>  <r_qp_PSA>  (680) 
32.993000000000002

>  <r_qp_PercentHumanOralAbsorption>  (680) 
94.751000000000005

>  <r_qp_QPPCaco>  (680) 
306.238

>  <r_qp_QPPMDCK>  (680) 
236.95699999999999

>  <r_qp_QPlogBB>  (680) 
0.67900000000000005

>  <r_qp_QPlogHERG>  (680) 
-6.2300000000000004

>  <r_qp_QPlogKhsa>  (680) 
0.60199999999999998

>  <r_qp_QPlogKp>  (680) 
-4.3070000000000004

>  <r_qp_QPlogPC16>  (680) 
12.443

>  <r_qp_QPlogPo/w>  (680) 
3.9809999999999999

>  <r_qp_QPlogPoct>  (680) 
17.463999999999999

>  <r_qp_QPlogPw>  (680) 
8.2780000000000005

>  <r_qp_QPlogS>  (680) 
-1.9530000000000001

>  <r_qp_QPpolrz>  (680) 
39.970999999999997

>  <r_qp_SASA>  (680) 
610

>  <r_qp_SAamideO>  (680) 
0

>  <r_qp_SAfluorine>  (680) 
0

>  <r_qp_WPSA>  (680) 
27.030000000000001

>  <r_qp_accptHB>  (680) 
5

>  <r_qp_dip^2/V>  (680) 
0.014828900000000001

>  <r_qp_dipole>  (680) 
4.2229999999999999

>  <r_qp_donorHB>  (680) 
1

>  <r_qp_glob>  (680) 
0.89644659999999998

>  <r_qp_mol_MW>  (680) 
390.54500000000002

>  <r_qp_volume>  (680) 
1202.3579999999999

>  <r_sd_BIOSOLVEIT.INFINISEE\_FTREES\_SIMILARITY>  (680) 
0.90500000000000003

>  <r_sd_BIOSOLVEIT.LOGP>  (680) 
2.0541999999999998

>  <r_sd_BIOSOLVEIT.MOLECULAR\_WEIGHT>  (680) 
392.56700000000001

>  <r_sd_BIOSOLVEIT.TPSA>  (680) 
38.869999999999997

>  <i_epik_Tot_Q>  (680) 
2

>  <i_epik_Tot_abs_Q>  (680) 
2

>  <i_f3d_flags>  (680) 
0

>  <i_i_glide_confnum>  (680) 
7

>  <i_i_glide_lignum>  (680) 
621

>  <i_i_glide_posenum>  (680) 
14

>  <i_i_glide_rotatable_bonds>  (680) 
8

>  <i_lp_mmshare_version>  (680) 
65135

>  <i_m_ct_format>  (680) 
2

>  <i_m_source_file_index>  (680) 
1646

>  <i_qp_#NandO>  (680) 
4

>  <i_qp_#acid>  (680) 
0

>  <i_qp_#amide>  (680) 
0

>  <i_qp_#amidine>  (680) 
0

>  <i_qp_#amine>  (680) 
2

>  <i_qp_#in34>  (680) 
0

>  <i_qp_#in56>  (680) 
20

>  <i_qp_#metab>  (680) 
7

>  <i_qp_#nonHatm>  (680) 
28

>  <i_qp_#noncon>  (680) 
0

>  <i_qp_#ringatoms>  (680) 
20

>  <i_qp_#rotor>  (680) 
8

>  <i_qp_#rtvFG>  (680) 
0

>  <i_qp_#stars>  (680) 
0

>  <i_qp_CNS>  (680) 
2

>  <i_qp_HumanOralAbsorption>  (680) 
3

>  <i_qp_RuleOfFive>  (680) 
0

>  <i_qp_RuleOfThree>  (680) 
1

>  <i_sd_BIOSOLVEIT.INFINISEE\_REAGENT1\_NAME>  (680) 
13774140

>  <i_sd_BIOSOLVEIT.INFINISEE\_REAGENT2\_NAME>  (680) 
24720860

>  <i_sd_BIOSOLVEIT.INFINISEE\_RESULT\_RANK>  (680) 
68536

>  <i_sd_version>  (680) 
0

>  <b_lp_Chiralities_Consistent>  (680) 
1

>  <b_sd_chiral_flag>  (680) 
0

>  <canonical_id>  (680) 
ATP-HTVS-69AD6B8D3733

>  <compound_code>  (680) 
52643

>  <title>  (680) 
m_270004bbb____13774140____24720860

>  <variant>  (680) 
52643-1

>  <source_file>  (680) 
运行/运行/ATP-VSW/ATP-VSW-DOCK_HTVS_1-003_lib/ATP-VSW-DOCK_HTVS_1-003_lib.mae

>  <canonical_smiles>  (680) 
C[NH+](C)Cc1ccc(C[NH2+]Cc2nc3ccccc3n2Cc2ccccc2)s1

>  <scaffold>  (680) 
c1ccc(Cn2c(C[NH2+]Cc3cccs3)nc3ccccc32)cc1

>  <molecular_formula>  (680) 
C23H28N4S+2

$$$$
ATP-HTVS-69DE697C6F69
     RDKit          3D

 64 67  0  0  0  0  0  0  0  0999 V2000
  199.1610  179.7601  151.3420 O   0  0  0  0  0  0  0  0  0  0  0  0
  198.6947  179.6371  152.4801 C   0  0  0  0  0  0  0  0  0  0  0  0
  197.5007  180.1861  152.8393 N   0  0  0  0  0  0  0  0  0  0  0  0
  196.6919  180.9697  151.8818 C   0  0  2  0  0  0  0  0  0  0  0  0
  196.3205  180.2046  150.6726 C   0  0  0  0  0  0  0  0  0  0  0  0
  196.0221  179.6044  149.7267 N   0  0  0  0  0  0  0  0  0  0  0  0
  197.2750  182.3447  151.5675 C   0  0  0  0  0  0  0  0  0  0  0  0
  197.1088  183.4104  152.4792 C   0  0  0  0  0  0  0  0  0  0  0  0
  197.6286  184.6843  152.1804 C   0  0  0  0  0  0  0  0  0  0  0  0
  198.3178  184.8977  150.9705 C   0  0  0  0  0  0  0  0  0  0  0  0
  198.4934  183.8359  150.0630 C   0  0  0  0  0  0  0  0  0  0  0  0
  197.9751  182.5639  150.3617 C   0  0  0  0  0  0  0  0  0  0  0  0
  196.8816  180.1064  154.1673 C   0  0  2  0  0  0  0  0  0  0  0  0
  199.4429  178.7694  153.4272 C   0  0  0  0  0  0  0  0  0  0  0  0
  200.1499  177.6913  152.9040 N   0  0  0  0  0  0  0  0  0  0  0  0
  200.7271  176.9216  153.8961 C   0  0  0  0  0  0  0  0  0  0  0  0
  200.3807  177.5653  155.1155 C   0  0  0  0  0  0  0  0  0  0  0  0
  200.8231  176.9629  156.3178 C   0  0  0  0  0  0  0  0  0  0  0  0
  201.6126  175.7951  156.3037 C   0  0  0  0  0  0  0  0  0  0  0  0
  201.9695  175.1953  155.0811 C   0  0  0  0  0  0  0  0  0  0  0  0
  201.5168  175.7493  153.8628 C   0  0  0  0  0  0  0  0  0  0  0  0
  199.6315  178.7491  154.8015 C   0  0  0  0  0  0  0  0  0  0  0  0
  199.1780  179.6303  155.7953 N   0  0  0  0  0  0  0  0  0  0  0  0
  199.4855  181.0392  155.7024 C   0  0  1  0  0  0  0  0  0  0  0  0
  198.8051  181.8685  156.7724 C   0  0  0  0  0  0  0  0  0  0  0  0
  197.5527  181.4938  157.3137 C   0  0  0  0  0  0  0  0  0  0  0  0
  196.9770  182.2377  158.3592 C   0  0  0  0  0  0  0  0  0  0  0  0
  197.6233  183.3956  158.8481 C   0  0  0  0  0  0  0  0  0  0  0  0
  198.8609  183.7821  158.2922 C   0  0  0  0  0  0  0  0  0  0  0  0
  199.4449  183.0223  157.2626 C   0  0  0  0  0  0  0  0  0  0  0  0
  196.9965  184.2242  159.9600 C   0  0  1  0  0  0  0  0  0  0  0  0
  195.9136  185.1121  159.4771 N   0  0  1  0  0  0  0  0  0  0  0  0
  196.3732  186.1564  158.5294 C   0  0  2  0  0  0  0  0  0  0  0  0
  194.7520  184.3568  158.9589 C   0  0  2  0  0  0  0  0  0  0  0  0
  195.7152  181.1883  152.3130 H   0  0  0  0  0  0  0  0  0  0  0  0
  196.5701  183.2570  153.4056 H   0  0  0  0  0  0  0  0  0  0  0  0
  197.4899  185.5007  152.8751 H   0  0  0  0  0  0  0  0  0  0  0  0
  198.7116  185.8750  150.7368 H   0  0  0  0  0  0  0  0  0  0  0  0
  199.0278  183.9893  149.1373 H   0  0  0  0  0  0  0  0  0  0  0  0
  198.1264  181.7557  149.6610 H   0  0  0  0  0  0  0  0  0  0  0  0
  197.2027  181.0055  154.6885 H   0  0  0  0  0  0  0  0  0  0  0  0
  197.1963  179.2237  154.7305 H   0  0  0  0  0  0  0  0  0  0  0  0
  195.7882  180.1411  154.0867 H   0  0  0  0  0  0  0  0  0  0  0  0
  200.2017  177.5327  151.9104 H   0  0  0  0  0  0  0  0  0  0  0  0
  200.5605  177.4299  157.2514 H   0  0  0  0  0  0  0  0  0  0  0  0
  201.9635  175.3827  157.2452 H   0  0  0  0  0  0  0  0  0  0  0  0
  202.5938  174.3115  155.0798 H   0  0  0  0  0  0  0  0  0  0  0  0
  201.7964  175.2937  152.9193 H   0  0  0  0  0  0  0  0  0  0  0  0
  199.0940  179.2523  156.7173 H   0  0  0  0  0  0  0  0  0  0  0  0
  200.5635  181.2288  155.7472 H   0  0  0  0  0  0  0  0  0  0  0  0
  199.1248  181.3925  154.7282 H   0  0  0  0  0  0  0  0  0  0  0  0
  197.0063  180.6360  156.9405 H   0  0  0  0  0  0  0  0  0  0  0  0
  196.0311  181.9141  158.7731 H   0  0  0  0  0  0  0  0  0  0  0  0
  199.3702  184.6663  158.6488 H   0  0  0  0  0  0  0  0  0  0  0  0
  200.3888  183.3252  156.8330 H   0  0  0  0  0  0  0  0  0  0  0  0
  196.6179  183.5568  160.7373 H   0  0  0  0  0  0  0  0  0  0  0  0
  197.7604  184.8444  160.4252 H   0  0  0  0  0  0  0  0  0  0  0  0
  196.7902  185.7153  157.6233 H   0  0  0  0  0  0  0  0  0  0  0  0
  197.1385  186.7820  158.9902 H   0  0  0  0  0  0  0  0  0  0  0  0
  195.5478  186.8053  158.2319 H   0  0  0  0  0  0  0  0  0  0  0  0
  194.9689  183.8282  158.0292 H   0  0  0  0  0  0  0  0  0  0  0  0
  193.9648  185.0395  158.7136 H   0  0  0  0  0  0  0  0  0  0  0  0
  194.3607  183.6574  159.7029 H   0  0  0  0  0  0  0  0  0  0  0  0
  195.5797  185.6121  160.2895 H   0  0  0  0  0  0  0  0  0  0  0  0
  1  2  2  0
  2  3  1  0
  2 14  1  0
  3  4  1  0
  3 13  1  0
  4  5  1  0
  4  7  1  0
  4 35  1  1
  5  6  3  0
  7  8  2  0
  7 12  1  0
  8  9  1  0
  8 36  1  0
  9 10  2  0
  9 37  1  0
 10 11  1  0
 10 38  1  0
 11 12  2  0
 11 39  1  0
 12 40  1  0
 13 41  1  1
 13 42  1  0
 13 43  1  0
 14 15  1  0
 14 22  2  0
 15 16  1  0
 15 44  1  0
 16 17  1  0
 16 21  2  0
 17 18  2  0
 17 22  1  0
 18 19  1  0
 18 45  1  0
 19 20  2  0
 19 46  1  0
 20 21  1  0
 20 47  1  0
 21 48  1  0
 22 23  1  0
 23 24  1  0
 23 49  1  0
 24 25  1  0
 24 50  1  6
 24 51  1  0
 25 26  1  0
 25 30  2  0
 26 27  2  0
 26 52  1  0
 27 28  1  0
 27 53  1  0
 28 29  2  0
 28 31  1  0
 29 30  1  0
 29 54  1  0
 30 55  1  0
 31 32  1  0
 31 56  1  1
 31 57  1  0
 32 33  1  0
 32 34  1  0
 32 64  1  1
 33 58  1  6
 33 59  1  0
 33 60  1  0
 34 61  1  6
 34 62  1  0
 34 63  1  0
M  CHG  1  32   1
M  END
>  <s_epik_cmdline>  (681) 
J2VwaWtfcHl0aG9uJywgJy1waCcsICc3LjAwMDAwMCcsICctcGh0JywgJzIuMDAwMDAwJywgJy1tcycsICcxNicsICctdG4nLCAnOCcsICctbWEnLCAnMjAwJywgJy1pbWFlJywgJzxpbmZpbGUubWFlPicsICctb21hZScsICc8b3V0ZmlsZS5tYWU+Jw==

>  <s_epik_input>  (681) 
W2NIXTFbY0hdW2NIXVtjSF1bY0hdYzFbQ0BASF0oQyNOKU4oW0NIM10pQyg9TyljKFtuSF0yKWMoYyhjMjMpW2NIXVtjSF1bY0hdW2NIXTMpW05IXVtDSDJdYzRbY0hdW2NIXWMoW2NIXVtjSF00KVtDSDJdTihbQ0gzXSlbQ0gzXQ==

>  <s_i_glide_gridfile>  (681) 
ATP-Grid

>  <s_lp_Force_Field>  (681) 
OPLS_2005

>  <s_lp_Variant>  (681) 
rxn512b____EMOL24630243____EMOL719673____EMOL50155899-2

>  <s_lp_label>  (681) 
2191_sdstereoexpander_2_neutralizer_1_epik_1_stereoizer_1

>  <s_m_source_file>  (681) 
ATP-VSW-LIGPREP-002-in.maegz

>  <s_sd_BIOSOLVEIT.INFINISEE\_QUERY\_NAME>  (681) 
Ref-Lig

>  <s_sd_BIOSOLVEIT.INFINISEE\_QUERY\_SMILES>  (681) 
S(c1nc2c(cc1C[NH2+]Cc3ccc(cc3)C[NH+](C)C)cccc2)Cc4ccccc4

>  <s_sd_BIOSOLVEIT.INFINISEE\_REACTION\_NAME>  (681) 
rxn512b

>  <s_sd_BIOSOLVEIT.INFINISEE\_REAGENT1\_NAME>  (681) 
EMOL24630243

>  <s_sd_BIOSOLVEIT.INFINISEE\_REAGENT1\_SMILES>  (681) 
N#CC(NC)c1ccccc1

>  <s_sd_BIOSOLVEIT.INFINISEE\_REAGENT2\_NAME>  (681) 
EMOL719673

>  <s_sd_BIOSOLVEIT.INFINISEE\_REAGENT2\_SMILES>  (681) 
BrC=1c2c(NC1C(=O)O)cccc2

>  <s_sd_BIOSOLVEIT.INFINISEE\_REAGENT3\_NAME>  (681) 
EMOL50155899

>  <s_sd_BIOSOLVEIT.INFINISEE\_REAGENT3\_SMILES>  (681) 
N(Cc1ccc(cc1)CN)(C)C

>  <s_sd_BIOSOLVEIT.INFINISEE\_SPACE>  (681) 
eXplore_7tr_2022-12

>  <s_vsw_compound_code>  (681) 
70082

>  <s_vsw_variant>  (681) 
70082-2

>  <r_epik_Charging_Adjusted_Penalty>  (681) 
0.080497280019778697

>  <r_epik_Ionization_Penalty>  (681) 
0.040399999999999998

>  <r_epik_Ionization_Penalty_Charging>  (681) 
0.0402

>  <r_epik_Ionization_Penalty_Neutral>  (681) 
0.0001

>  <r_epik_State_Penalty>  (681) 
0.0402

>  <r_i_docking_score>  (681) 
-4.0714625626747596

>  <r_i_glide_ecoul>  (681) 
-5.57843065261841

>  <r_i_glide_eff_state_penalty>  (681) 
0.0402

>  <r_i_glide_einternal>  (681) 
3.6121768951415998

>  <r_i_glide_emodel>  (681) 
-51.982107635778

>  <r_i_glide_energy>  (681) 
-40.760632038116498

>  <r_i_glide_erotb>  (681) 
0.68578793105906799

>  <r_i_glide_esite>  (681) 
-0.050142551943051103

>  <r_i_glide_evdw>  (681) 
-35.182201385497997

>  <r_i_glide_gscore>  (681) 
-4.11166256267476

>  <r_i_glide_hbond>  (681) 
0

>  <r_i_glide_ligand_efficiency>  (681) 
-0.119748898902199

>  <r_i_glide_ligand_efficiency_ln>  (681) 
-0.89950028075150301

>  <r_i_glide_ligand_efficiency_sa>  (681) 
-0.38793994561754203

>  <r_i_glide_lipo>  (681) 
-1.5506473540543999

>  <r_i_glide_metal>  (681) 
-0

>  <r_i_glide_rewards>  (681) 
-0.60078592056870705

>  <r_lp_Energy>  (681) 
30.669457999999999

>  <r_qp_ACxDN^.5/SA>  (681) 
0.0086230000000000005

>  <r_qp_CIQPlogS>  (681) 
-5.9580000000000002

>  <r_qp_EA(eV)>  (681) 
0.35299999999999998

>  <r_qp_FISA>  (681) 
111.935

>  <r_qp_FOSA>  (681) 
251.84800000000001

>  <r_qp_IP(eV)>  (681) 
7.8810000000000002

>  <r_qp_Jm>  (681) 
3.3934770678992897e-05

>  <r_qp_PISA>  (681) 
390.01400000000001

>  <r_qp_PSA>  (681) 
77.391999999999996

>  <r_qp_PercentHumanOralAbsorption>  (681) 
82.305999999999997

>  <r_qp_QPPCaco>  (681) 
53.484000000000002

>  <r_qp_QPPMDCK>  (681) 
25.555

>  <r_qp_QPlogBB>  (681) 
-0.307

>  <r_qp_QPlogHERG>  (681) 
-7.8460000000000001

>  <r_qp_QPlogKhsa>  (681) 
0.83899999999999997

>  <r_qp_QPlogKp>  (681) 
-5.4699999999999998

>  <r_qp_QPlogPC16>  (681) 
15.253

>  <r_qp_QPlogPo/w>  (681) 
4.1719999999999997

>  <r_qp_QPlogPoct>  (681) 
21.928999999999998

>  <r_qp_QPlogPw>  (681) 
10.829000000000001

>  <r_qp_QPlogS>  (681) 
-4.6539999999999999

>  <r_qp_QPpolrz>  (681) 
49.036000000000001

>  <r_qp_SASA>  (681) 
753.79700000000003

>  <r_qp_SAamideO>  (681) 
0

>  <r_qp_SAfluorine>  (681) 
0

>  <r_qp_WPSA>  (681) 
0

>  <r_qp_accptHB>  (681) 
6.5

>  <r_qp_dip^2/V>  (681) 
0.042214399999999999

>  <r_qp_dipole>  (681) 
7.7709999999999999

>  <r_qp_donorHB>  (681) 
1

>  <r_qp_glob>  (681) 
0.81448359999999997

>  <r_qp_mol_MW>  (681) 
451.56999999999999

>  <r_qp_volume>  (681) 
1430.4010000000001

>  <r_sd_BIOSOLVEIT.INFINISEE\_FTREES\_SIMILARITY>  (681) 
0.93400000000000005

>  <r_sd_BIOSOLVEIT.LOGP>  (681) 
3.7613799999999999

>  <r_sd_BIOSOLVEIT.MOLECULAR\_WEIGHT>  (681) 
452.57900000000001

>  <r_sd_BIOSOLVEIT.TPSA>  (681) 
76.359999999999999

>  <i_epik_Tot_Q>  (681) 
1

>  <i_epik_Tot_abs_Q>  (681) 
1

>  <i_f3d_flags>  (681) 
0

>  <i_i_glide_confnum>  (681) 
2

>  <i_i_glide_lignum>  (681) 
825

>  <i_i_glide_posenum>  (681) 
7

>  <i_i_glide_rotatable_bonds>  (681) 
9

>  <i_lp_mmshare_version>  (681) 
65135

>  <i_m_ct_format>  (681) 
2

>  <i_m_source_file_index>  (681) 
2191

>  <i_qp_#NandO>  (681) 
6

>  <i_qp_#acid>  (681) 
0

>  <i_qp_#amide>  (681) 
0

>  <i_qp_#amidine>  (681) 
0

>  <i_qp_#amine>  (681) 
2

>  <i_qp_#in34>  (681) 
0

>  <i_qp_#in56>  (681) 
21

>  <i_qp_#metab>  (681) 
7

>  <i_qp_#nonHatm>  (681) 
34

>  <i_qp_#noncon>  (681) 
0

>  <i_qp_#ringatoms>  (681) 
21

>  <i_qp_#rotor>  (681) 
9

>  <i_qp_#rtvFG>  (681) 
0

>  <i_qp_#stars>  (681) 
1

>  <i_qp_CNS>  (681) 
1

>  <i_qp_HumanOralAbsorption>  (681) 
2

>  <i_qp_RuleOfFive>  (681) 
0

>  <i_qp_RuleOfThree>  (681) 
1

>  <i_sd_BIOSOLVEIT.INFINISEE\_RESULT\_RANK>  (681) 
2821

>  <i_sd_version>  (681) 
0

>  <b_lp_Chiralities_Consistent>  (681) 
1

>  <b_sd_chiral_flag>  (681) 
0

>  <canonical_id>  (681) 
ATP-HTVS-69DE697C6F69

>  <compound_code>  (681) 
70082

>  <title>  (681) 
rxn512b____EMOL24630243____EMOL719673____EMOL50155899

>  <variant>  (681) 
70082-2

>  <source_file>  (681) 
运行/运行/ATP-VSW/ATP-VSW-DOCK_HTVS_1-002_lib.maegz

>  <canonical_smiles>  (681) 
CN(C(=O)c1[nH]c2ccccc2c1NCc1ccc(C[NH+](C)C)cc1)[C@H](C#N)c1ccccc1

>  <scaffold>  (681) 
O=C(NCc1ccccc1)c1[nH]c2ccccc2c1NCc1ccccc1

>  <molecular_formula>  (681) 
C28H30N5O+

$$$$
ATP-HTVS-6A46373CBB09
     RDKit          3D

 55 58  0  0  0  0  0  0  0  0999 V2000
  198.7481  175.8313  149.3240 Cl  0  0  0  0  0  0  0  0  0  0  0  0
  197.9992  177.4361  149.0810 C   0  0  2  0  0  0  0  0  0  0  0  0
  198.5901  178.1017  147.8473 C   0  0  0  0  0  0  0  0  0  0  0  0
  199.9144  178.5937  147.8660 C   0  0  0  0  0  0  0  0  0  0  0  0
  200.4493  179.2374  146.7350 C   0  0  0  0  0  0  0  0  0  0  0  0
  199.6656  179.3828  145.5747 C   0  0  0  0  0  0  0  0  0  0  0  0
  198.3472  178.8889  145.5485 C   0  0  0  0  0  0  0  0  0  0  0  0
  197.8081  178.2511  146.6819 C   0  0  0  0  0  0  0  0  0  0  0  0
  198.1374  178.3224  150.3260 C   0  0  0  0  0  0  0  0  0  0  0  0
  198.5419  177.8371  151.3821 O   0  0  0  0  0  0  0  0  0  0  0  0
  197.7951  179.6168  150.1535 N   0  0  0  0  0  0  0  0  0  0  0  0
  197.7678  180.6598  151.1232 C   0  0  0  0  0  0  0  0  0  0  0  0
  197.8234  180.3936  152.4453 N   0  0  0  0  0  0  0  0  0  0  0  0
  197.7955  181.3959  153.3403 C   0  0  0  0  0  0  0  0  0  0  0  0
  197.6571  182.7556  152.9916 C   0  0  0  0  0  0  0  0  0  0  0  0
  197.5876  183.7605  153.9808 N   0  0  0  0  0  0  0  0  0  0  0  0
  197.3052  183.6349  155.3519 C   0  0  0  0  0  0  0  0  0  0  0  0
  196.6965  182.4665  155.8674 C   0  0  0  0  0  0  0  0  0  0  0  0
  196.4798  182.3212  157.2501 C   0  0  0  0  0  0  0  0  0  0  0  0
  196.8199  183.3583  158.1379 C   0  0  0  0  0  0  0  0  0  0  0  0
  196.5669  183.1493  159.4958 N   0  0  0  0  0  0  0  0  0  0  0  0
  196.0627  184.2431  160.3112 C   0  0  1  0  0  0  0  0  0  0  0  0
  194.7232  184.8206  159.8081 C   0  0  1  0  0  0  0  0  0  0  0  0
  194.3308  185.8884  160.6419 O   0  0  0  0  0  0  0  0  0  0  0  0
  197.3760  184.5553  157.6283 C   0  0  0  0  0  0  0  0  0  0  0  0
  197.6241  184.6856  156.2437 C   0  0  0  0  0  0  0  0  0  0  0  0
  197.6142  183.0614  151.6068 C   0  0  0  0  0  0  0  0  0  0  0  0
  197.6851  182.0031  150.6558 C   0  0  0  0  0  0  0  0  0  0  0  0
  197.7008  182.3130  149.2753 C   0  0  0  0  0  0  0  0  0  0  0  0
  197.6178  183.6447  148.8324 C   0  0  0  0  0  0  0  0  0  0  0  0
  197.5276  184.6896  149.7672 C   0  0  0  0  0  0  0  0  0  0  0  0
  197.5227  184.3998  151.1456 C   0  0  0  0  0  0  0  0  0  0  0  0
  196.9358  177.2531  148.9260 H   0  0  0  0  0  0  0  0  0  0  0  0
  200.5232  178.4912  148.7524 H   0  0  0  0  0  0  0  0  0  0  0  0
  201.4623  179.6156  146.7583 H   0  0  0  0  0  0  0  0  0  0  0  0
  200.0793  179.8598  144.6984 H   0  0  0  0  0  0  0  0  0  0  0  0
  197.7538  178.9926  144.6524 H   0  0  0  0  0  0  0  0  0  0  0  0
  196.7933  177.8785  146.6525 H   0  0  0  0  0  0  0  0  0  0  0  0
  197.5927  179.8919  149.2052 H   0  0  0  0  0  0  0  0  0  0  0  0
  197.8526  181.0765  154.3667 H   0  0  0  0  0  0  0  0  0  0  0  0
  197.7209  184.7066  153.6619 H   0  0  0  0  0  0  0  0  0  0  0  0
  196.3710  181.6664  155.2153 H   0  0  0  0  0  0  0  0  0  0  0  0
  196.0286  181.4135  157.6173 H   0  0  0  0  0  0  0  0  0  0  0  0
  196.3439  182.2082  159.7901 H   0  0  0  0  0  0  0  0  0  0  0  0
  195.9188  183.8418  161.3149 H   0  0  0  0  0  0  0  0  0  0  0  0
  196.8247  185.0207  160.3839 H   0  0  0  0  0  0  0  0  0  0  0  0
  194.8048  185.2063  158.7943 H   0  0  0  0  0  0  0  0  0  0  0  0
  193.9411  184.0564  159.8076 H   0  0  0  0  0  0  0  0  0  0  0  0
  193.5224  186.2392  160.2985 H   0  0  0  0  0  0  0  0  0  0  0  0
  197.6187  185.3725  158.2944 H   0  0  0  0  0  0  0  0  0  0  0  0
  198.0634  185.5976  155.8668 H   0  0  0  0  0  0  0  0  0  0  0  0
  197.8013  181.5391  148.5365 H   0  0  0  0  0  0  0  0  0  0  0  0
  197.6296  183.8562  147.7704 H   0  0  0  0  0  0  0  0  0  0  0  0
  197.4805  185.7130  149.4202 H   0  0  0  0  0  0  0  0  0  0  0  0
  197.4711  185.2217  151.8386 H   0  0  0  0  0  0  0  0  0  0  0  0
  1  2  1  0
  2  3  1  0
  2  9  1  0
  2 33  1  6
  3  4  2  0
  3  8  1  0
  4  5  1  0
  4 34  1  0
  5  6  2  0
  5 35  1  0
  6  7  1  0
  6 36  1  0
  7  8  2  0
  7 37  1  0
  8 38  1  0
  9 10  2  0
  9 11  1  0
 11 12  1  0
 11 39  1  0
 12 13  1  0
 12 28  2  0
 13 14  2  0
 14 15  1  0
 14 40  1  0
 15 16  1  0
 15 27  2  0
 16 17  1  0
 16 41  1  0
 17 18  1  0
 17 26  2  0
 18 19  2  0
 18 42  1  0
 19 20  1  0
 19 43  1  0
 20 21  1  0
 20 25  2  0
 21 22  1  0
 21 44  1  0
 22 23  1  0
 22 45  1  1
 22 46  1  0
 23 24  1  0
 23 47  1  6
 23 48  1  0
 24 49  1  0
 25 26  1  0
 25 50  1  0
 26 51  1  0
 27 28  1  0
 27 32  1  0
 28 29  1  0
 29 30  2  0
 29 52  1  0
 30 31  1  0
 30 53  1  0
 31 32  2  0
 31 54  1  0
 32 55  1  0
M  END
>  <s_epik_cmdline>  (682) 
J2VwaWtfcHl0aG9uJywgJy1waCcsICc3LjAwMDAwMCcsICctcGh0JywgJzIuMDAwMDAwJywgJy1tcycsICcxNicsICctdG4nLCAnOCcsICctbWEnLCAnMjAwJywgJy1pbWFlJywgJzxpbmZpbGUubWFlPicsICctb21hZScsICc8b3V0ZmlsZS5tYWU+Jw==

>  <s_epik_input>  (682) 
W2NIXTFbY0hdW2NIXVtjSF1bY0hdYzFbQ0BASF0oQ2wpQyg9TylbTkhdYyhjKGMyMylbY0hdW2NIXVtjSF1bY0hdMyluW2NIXWMyW05IXWM0W2NIXVtjSF1jKFtjSF1bY0hdNClbTkhdW0NIMl1bQ0gyXVtPSF0=

>  <s_i_glide_gridfile>  (682) 
ATP-Grid

>  <s_lp_Force_Field>  (682) 
OPLS_2005

>  <s_lp_Variant>  (682) 
rxn502b____EMOL480530____EMOL7515103____EMOL8314610-1

>  <s_lp_label>  (682) 
2479_sdstereoexpander_1_neutralizer_1_epik_1_stereoizer_1

>  <s_m_source_file>  (682) 
ATP-VSW-LIGPREP-002-in.maegz

>  <s_sd_BIOSOLVEIT.INFINISEE\_QUERY\_NAME>  (682) 
Ref-Lig

>  <s_sd_BIOSOLVEIT.INFINISEE\_QUERY\_SMILES>  (682) 
S(c1nc2c(cc1C[NH2+]Cc3ccc(cc3)C[NH+](C)C)cccc2)Cc4ccccc4

>  <s_sd_BIOSOLVEIT.INFINISEE\_REACTION\_NAME>  (682) 
rxn502b

>  <s_sd_BIOSOLVEIT.INFINISEE\_REAGENT1\_NAME>  (682) 
EMOL480530

>  <s_sd_BIOSOLVEIT.INFINISEE\_REAGENT1\_SMILES>  (682) 
ClC(=O)C(Cl)c1ccccc1

>  <s_sd_BIOSOLVEIT.INFINISEE\_REAGENT2\_NAME>  (682) 
EMOL7515103

>  <s_sd_BIOSOLVEIT.INFINISEE\_REAGENT2\_SMILES>  (682) 
Brc1c2c(c(nc1)N)cccc2

>  <s_sd_BIOSOLVEIT.INFINISEE\_REAGENT3\_NAME>  (682) 
EMOL8314610

>  <s_sd_BIOSOLVEIT.INFINISEE\_REAGENT3\_SMILES>  (682) 
OCCNc1ccc(N)cc1

>  <s_sd_BIOSOLVEIT.INFINISEE\_SPACE>  (682) 
eXplore_7tr_2022-12

>  <s_vsw_compound_code>  (682) 
79298

>  <s_vsw_variant>  (682) 
79298-1

>  <r_epik_Charging_Adjusted_Penalty>  (682) 
0.044226146665207501

>  <r_epik_Ionization_Penalty>  (682) 
0.035900000000000001

>  <r_epik_Ionization_Penalty_Charging>  (682) 
0

>  <r_epik_Ionization_Penalty_Neutral>  (682) 
0.035900000000000001

>  <r_epik_State_Penalty>  (682) 
0.044200000000000003

>  <r_i_docking_score>  (682) 
-3.3710920360022398

>  <r_i_glide_ecoul>  (682) 
-2.6960077285766602

>  <r_i_glide_eff_state_penalty>  (682) 
0.044200000000000003

>  <r_i_glide_einternal>  (682) 
5.0988364219665501

>  <r_i_glide_emodel>  (682) 
-44.842524594850502

>  <r_i_glide_energy>  (682) 
-38.921978950500502

>  <r_i_glide_erotb>  (682) 
0.80183979816780704

>  <r_i_glide_esite>  (682) 
-0.020829039347774199

>  <r_i_glide_evdw>  (682) 
-36.2259712219238

>  <r_i_glide_gscore>  (682) 
-3.4152920360022399

>  <r_i_glide_hbond>  (682) 
-0.15211369728646501

>  <r_i_glide_ligand_efficiency>  (682) 
-0.10534662612506999

>  <r_i_glide_ligand_efficiency_ln>  (682) 
-0.75487939935919202

>  <r_i_glide_ligand_efficiency_sa>  (682) 
-0.33445468987809601

>  <r_i_glide_lipo>  (682) 
-1.33572429216262

>  <r_i_glide_metal>  (682) 
-0

>  <r_i_glide_rewards>  (682) 
-0.49276508499048999

>  <r_lp_Energy>  (682) 
36.577981000000001

>  <r_qp_ACxDN^.5/SA>  (682) 
0.0167718

>  <r_qp_CIQPlogS>  (682) 
-6.6870000000000003

>  <r_qp_EA(eV)>  (682) 
1.002

>  <r_qp_FISA>  (682) 
123.045

>  <r_qp_FOSA>  (682) 
105.511

>  <r_qp_IP(eV)>  (682) 
7.359

>  <r_qp_Jm>  (682) 
0.0063579909172208904

>  <r_qp_PISA>  (682) 
509.642

>  <r_qp_PSA>  (682) 
89.909000000000006

>  <r_qp_PercentHumanOralAbsorption>  (682) 
100

>  <r_qp_QPPCaco>  (682) 
674.63300000000004

>  <r_qp_QPPMDCK>  (682) 
695.73299999999995

>  <r_qp_QPlogBB>  (682) 
-1.2549999999999999

>  <r_qp_QPlogHERG>  (682) 
-7.867

>  <r_qp_QPlogKhsa>  (682) 
0.505

>  <r_qp_QPlogKp>  (682) 
-1.1279999999999999

>  <r_qp_QPlogPC16>  (682) 
17.312000000000001

>  <r_qp_QPlogPo/w>  (682) 
4.7080000000000002

>  <r_qp_QPlogPoct>  (682) 
26.844999999999999

>  <r_qp_QPlogPw>  (682) 
16.439

>  <r_qp_QPlogS>  (682) 
-6.7190000000000003

>  <r_qp_QPpolrz>  (682) 
49.093000000000004

>  <r_qp_SASA>  (682) 
798.95899999999995

>  <r_qp_SAamideO>  (682) 
0

>  <r_qp_SAfluorine>  (682) 
0

>  <r_qp_WPSA>  (682) 
60.761000000000003

>  <r_qp_accptHB>  (682) 
6.7000000000000002

>  <r_qp_dip^2/V>  (682) 
0.053734799999999999

>  <r_qp_dipole>  (682) 
8.6839999999999993

>  <r_qp_donorHB>  (682) 
4

>  <r_qp_glob>  (682) 
0.75869339999999996

>  <r_qp_mol_MW>  (682) 
446.935

>  <r_qp_volume>  (682) 
1403.261

>  <r_sd_BIOSOLVEIT.INFINISEE\_FTREES\_SIMILARITY>  (682) 
0.91500000000000004

>  <r_sd_BIOSOLVEIT.LOGP>  (682) 
5.3011999999999997

>  <r_sd_BIOSOLVEIT.MOLECULAR\_WEIGHT>  (682) 
446.93599999999998

>  <r_sd_BIOSOLVEIT.TPSA>  (682) 
86.280000000000001

>  <i_epik_Tot_Q>  (682) 
0

>  <i_epik_Tot_abs_Q>  (682) 
0

>  <i_f3d_flags>  (682) 
0

>  <i_i_glide_confnum>  (682) 
7

>  <i_i_glide_lignum>  (682) 
1075

>  <i_i_glide_posenum>  (682) 
6

>  <i_i_glide_rotatable_bonds>  (682) 
10

>  <i_lp_mmshare_version>  (682) 
65135

>  <i_m_ct_format>  (682) 
2

>  <i_m_source_file_index>  (682) 
2479

>  <i_qp_#NandO>  (682) 
6

>  <i_qp_#acid>  (682) 
0

>  <i_qp_#amide>  (682) 
0

>  <i_qp_#amidine>  (682) 
0

>  <i_qp_#amine>  (682) 
0

>  <i_qp_#in34>  (682) 
0

>  <i_qp_#in56>  (682) 
22

>  <i_qp_#metab>  (682) 
8

>  <i_qp_#nonHatm>  (682) 
32

>  <i_qp_#noncon>  (682) 
0

>  <i_qp_#ringatoms>  (682) 
22

>  <i_qp_#rotor>  (682) 
9

>  <i_qp_#rtvFG>  (682) 
1

>  <i_qp_#stars>  (682) 
3

>  <i_qp_CNS>  (682) 
-2

>  <i_qp_HumanOralAbsorption>  (682) 
1

>  <i_qp_RuleOfFive>  (682) 
0

>  <i_qp_RuleOfThree>  (682) 
2

>  <i_sd_BIOSOLVEIT.INFINISEE\_RESULT\_RANK>  (682) 
28694

>  <i_sd_version>  (682) 
0

>  <b_lp_Chiralities_Consistent>  (682) 
1

>  <b_sd_chiral_flag>  (682) 
0

>  <canonical_id>  (682) 
ATP-HTVS-6A46373CBB09

>  <compound_code>  (682) 
79298

>  <title>  (682) 
rxn502b____EMOL480530____EMOL7515103____EMOL8314610

>  <variant>  (682) 
79298-1

>  <source_file>  (682) 
运行/运行/ATP-VSW/ATP-VSW-DOCK_HTVS_1-002_lib.maegz

>  <canonical_smiles>  (682) 
O=C(Nc1ncc(Nc2ccc(NCCO)cc2)c2ccccc12)[C@H](Cl)c1ccccc1

>  <scaffold>  (682) 
O=C(Cc1ccccc1)Nc1ncc(Nc2ccccc2)c2ccccc12

>  <molecular_formula>  (682) 
C25H23ClN4O2

$$$$
ATP-HTVS-6A615EE15C98
     RDKit          3D

 60 63  0  0  0  0  0  0  0  0999 V2000
  200.4478  176.6900  156.0452 F   0  0  0  0  0  0  0  0  0  0  0  0
  199.9393  177.8768  155.6069 C   0  0  0  0  0  0  0  0  0  0  0  0
  199.6623  178.0588  154.2331 C   0  0  0  0  0  0  0  0  0  0  0  0
  199.1081  179.2848  153.7762 C   0  0  0  0  0  0  0  0  0  0  0  0
  198.8512  180.3520  154.6789 C   0  0  0  0  0  0  0  0  0  0  0  0
  199.1771  180.1794  156.0604 C   0  0  0  0  0  0  0  0  0  0  0  0
  199.6933  178.9359  156.5030 C   0  0  0  0  0  0  0  0  0  0  0  0
  198.2337  181.6038  154.1746 C   0  0  0  0  0  0  0  0  0  0  0  0
  198.3110  181.9102  152.8810 N   0  0  0  0  0  0  0  0  0  0  0  0
  197.6862  183.1054  152.7376 N   0  0  0  0  0  0  0  0  0  0  0  0
  197.5919  183.7370  151.4794 C   0  0  0  0  0  0  0  0  0  0  0  0
  197.2397  182.9855  150.3388 C   0  0  0  0  0  0  0  0  0  0  0  0
  197.1535  183.6163  149.0838 C   0  0  0  0  0  0  0  0  0  0  0  0
  197.4156  184.9936  148.9668 C   0  0  0  0  0  0  0  0  0  0  0  0
  197.7716  185.7443  150.1039 C   0  0  0  0  0  0  0  0  0  0  0  0
  197.8578  185.1179  151.3621 C   0  0  0  0  0  0  0  0  0  0  0  0
  197.1806  183.5434  153.9380 C   0  0  0  0  0  0  0  0  0  0  0  0
  197.5077  182.6144  154.8808 C   0  0  0  0  0  0  0  0  0  0  0  0
  197.1307  182.6991  156.3282 C   0  0  1  0  0  0  0  0  0  0  0  0
  195.9460  181.8567  156.6195 N   0  0  1  0  0  0  0  0  0  0  0  0
  195.6512  181.6682  158.0551 C   0  0  1  0  0  0  0  0  0  0  0  0
  195.4433  182.9807  158.7807 C   0  0  0  0  0  0  0  0  0  0  0  0
  196.5407  183.7957  159.1170 C   0  0  0  0  0  0  0  0  0  0  0  0
  196.3495  185.0669  159.6833 C   0  0  0  0  0  0  0  0  0  0  0  0
  195.0470  185.4773  160.0307 C   0  0  0  0  0  0  0  0  0  0  0  0
  194.8369  186.6844  160.6369 O   0  0  0  0  0  0  0  0  0  0  0  0
  193.9500  184.6386  159.7355 C   0  0  0  0  0  0  0  0  0  0  0  0
  194.1374  183.4067  159.0955 C   0  0  0  0  0  0  0  0  0  0  0  0
  197.5598  185.9623  159.8857 C   0  0  1  0  0  0  0  0  0  0  0  0
  197.5810  187.1665  159.0528 N   0  0  0  0  0  0  0  0  0  0  0  0
  198.6811  188.0197  159.4897 C   0  0  2  0  0  0  0  0  0  0  0  0
  197.7885  186.8375  157.6446 C   0  0  2  0  0  0  0  0  0  0  0  0
  195.0937  182.2263  156.1803 H   0  0  0  0  0  0  0  0  0  0  0  0
  199.8666  177.2572  153.5282 H   0  0  0  0  0  0  0  0  0  0  0  0
  198.8938  179.3894  152.7142 H   0  0  0  0  0  0  0  0  0  0  0  0
  199.0529  180.9473  156.8090 H   0  0  0  0  0  0  0  0  0  0  0  0
  199.8866  178.8007  157.5549 H   0  0  0  0  0  0  0  0  0  0  0  0
  197.0410  181.9271  150.4349 H   0  0  0  0  0  0  0  0  0  0  0  0
  196.8861  183.0458  148.2092 H   0  0  0  0  0  0  0  0  0  0  0  0
  197.3426  185.4720  148.0013 H   0  0  0  0  0  0  0  0  0  0  0  0
  197.9756  186.7993  150.0129 H   0  0  0  0  0  0  0  0  0  0  0  0
  198.1268  185.6914  152.2374 H   0  0  0  0  0  0  0  0  0  0  0  0
  196.6256  184.4730  154.0252 H   0  0  0  0  0  0  0  0  0  0  0  0
  197.9568  182.4007  156.9710 H   0  0  0  0  0  0  0  0  0  0  0  0
  196.8739  183.7629  156.5054 H   0  0  0  0  0  0  0  0  0  0  0  0
  194.7519  181.0591  158.1433 H   0  0  0  0  0  0  0  0  0  0  0  0
  196.4473  181.1088  158.5506 H   0  0  0  0  0  0  0  0  0  0  0  0
  197.5548  183.4916  158.9160 H   0  0  0  0  0  0  0  0  0  0  0  0
  195.6156  187.2225  160.5908 H   0  0  0  0  0  0  0  0  0  0  0  0
  192.9570  184.9568  160.0113 H   0  0  0  0  0  0  0  0  0  0  0  0
  193.2843  182.7864  158.8662 H   0  0  0  0  0  0  0  0  0  0  0  0
  197.5427  186.2456  160.9338 H   0  0  0  0  0  0  0  0  0  0  0  0
  198.4762  185.3896  159.7262 H   0  0  0  0  0  0  0  0  0  0  0  0
  198.7225  188.9368  158.8999 H   0  0  0  0  0  0  0  0  0  0  0  0
  199.6451  187.5150  159.3958 H   0  0  0  0  0  0  0  0  0  0  0  0
  198.5530  188.3139  160.5328 H   0  0  0  0  0  0  0  0  0  0  0  0
  197.8445  187.7463  157.0417 H   0  0  0  0  0  0  0  0  0  0  0  0
  196.9643  186.2404  157.2538 H   0  0  0  0  0  0  0  0  0  0  0  0
  198.7151  186.2807  157.4927 H   0  0  0  0  0  0  0  0  0  0  0  0
  196.0647  180.9165  156.2627 H   0  0  0  0  0  0  0  0  0  0  0  0
  1  2  1  0
  2  3  1  0
  2  7  2  0
  3  4  2  0
  3 34  1  0
  4  5  1  0
  4 35  1  0
  5  6  2  0
  5  8  1  0
  6  7  1  0
  6 36  1  0
  7 37  1  0
  8  9  2  0
  8 18  1  0
  9 10  1  0
 10 11  1  0
 10 17  1  0
 11 12  2  0
 11 16  1  0
 12 13  1  0
 12 38  1  0
 13 14  2  0
 13 39  1  0
 14 15  1  0
 14 40  1  0
 15 16  2  0
 15 41  1  0
 16 42  1  0
 17 18  2  0
 17 43  1  0
 18 19  1  0
 19 20  1  0
 19 44  1  1
 19 45  1  0
 20 21  1  0
 20 33  1  6
 20 60  1  0
 21 22  1  0
 21 46  1  6
 21 47  1  0
 22 23  2  0
 22 28  1  0
 23 24  1  0
 23 48  1  0
 24 25  2  0
 24 29  1  0
 25 26  1  0
 25 27  1  0
 26 49  1  0
 27 28  2  0
 27 50  1  0
 28 51  1  0
 29 30  1  0
 29 52  1  1
 29 53  1  0
 30 31  1  0
 30 32  1  0
 31 54  1  6
 31 55  1  0
 31 56  1  0
 32 57  1  6
 32 58  1  0
 32 59  1  0
M  CHG  1  20   1
M  END
>  <s_epik_cmdline>  (683) 
J2VwaWtfcHl0aG9uJywgJy1waCcsICc3LjAwMDAwMCcsICctcGh0JywgJzIuMDAwMDAwJywgJy1tcycsICcxNicsICctdG4nLCAnOCcsICctbWEnLCAnMjAwJywgJy1pbWFlJywgJzxpbmZpbGUubWFlPicsICctb21hZScsICc8b3V0ZmlsZS5tYWU+Jw==

>  <s_epik_input>  (683) 
RmMxW2NIXVtjSF1jKFtjSF1bY0hdMSktYzJubigtYzNbY0hdW2NIXVtjSF1bY0hdW2NIXTMpW2NIXWMyW0NIMl1bTkhdW0NIMl1jNFtjSF1jKGMoW09IXSlbY0hdW2NIXTQpW0NIMl1OKFtDSDNdKVtDSDNd

>  <s_i_glide_gridfile>  (683) 
ATP-Grid

>  <s_lp_Force_Field>  (683) 
OPLS_2005

>  <s_lp_Variant>  (683) 
a4____241131____222282-3

>  <s_lp_label>  (683) 
177_sdstereoexpander_1_neutralizer_1_epik_3_stereoizer_1

>  <s_m_source_file>  (683) 
ATP-VSW-LIGPREP-002-in.maegz

>  <s_sd_BIOSOLVEIT.INFINISEE\_QUERY\_NAME>  (683) 
Ref-Lig

>  <s_sd_BIOSOLVEIT.INFINISEE\_QUERY\_SMILES>  (683) 
S(c1nc2c(cc1C[NH2+]Cc3ccc(cc3)C[NH+](C)C)cccc2)Cc4ccccc4

>  <s_sd_BIOSOLVEIT.INFINISEE\_REACTION\_NAME>  (683) 
a4

>  <s_sd_BIOSOLVEIT.INFINISEE\_REAGENT1\_SMILES>  (683) 
[R1*]NCC=1C(=NN(c2ccccc2)C1)c3ccc(F)cc3

>  <s_sd_BIOSOLVEIT.INFINISEE\_REAGENT2\_SMILES>  (683) 
[R1*]Cc1cc(c(O)cc1)CN(C)C

>  <s_sd_BIOSOLVEIT.INFINISEE\_SPACE>  (683) 
FreedomSpace_5bn_2023-06

>  <s_vsw_compound_code>  (683) 
5634

>  <s_vsw_variant>  (683) 
5634-3

>  <r_epik_Charging_Adjusted_Penalty>  (683) 
1.2753669951753399

>  <r_epik_Ionization_Penalty>  (683) 
1.6032

>  <r_epik_Ionization_Penalty_Charging>  (683) 
0.074899999999999994

>  <r_epik_Ionization_Penalty_Neutral>  (683) 
1.5283

>  <r_epik_State_Penalty>  (683) 
1.2003999999999999

>  <r_i_docking_score>  (683) 
-4.2626547249423501

>  <r_i_glide_ecoul>  (683) 
-10.8031454086304

>  <r_i_glide_eff_state_penalty>  (683) 
1.2003999999999999

>  <r_i_glide_einternal>  (683) 
3.0453219413757302

>  <r_i_glide_emodel>  (683) 
-66.613350824022305

>  <r_i_glide_energy>  (683) 
-45.547999382019

>  <r_i_glide_erotb>  (683) 
0.74771181411374799

>  <r_i_glide_esite>  (683) 
-0.107224090329923

>  <r_i_glide_evdw>  (683) 
-34.7448539733887

>  <r_i_glide_gscore>  (683) 
-5.4630547249423502

>  <r_i_glide_hbond>  (683) 
-0.20523049165819601

>  <r_i_glide_ligand_efficiency>  (683) 
-0.133207960154449

>  <r_i_glide_ligand_efficiency_ln>  (683) 
-0.95452458849390198

>  <r_i_glide_ligand_efficiency_sa>  (683) 
-0.42290891167085598

>  <r_i_glide_lipo>  (683) 
-1.95873481981844

>  <r_i_glide_metal>  (683) 
-0

>  <r_i_glide_rewards>  (683) 
-0.58186262728555105

>  <r_lp_Energy>  (683) 
19.367058

>  <r_qp_ACxDN^.5/SA>  (683) 
0.0096009000000000008

>  <r_qp_CIQPlogS>  (683) 
-5.0739999999999998

>  <r_qp_EA(eV)>  (683) 
0.64700000000000002

>  <r_qp_FISA>  (683) 
58.097000000000001

>  <r_qp_FOSA>  (683) 
237.381

>  <r_qp_IP(eV)>  (683) 
8.8219999999999992

>  <r_qp_Jm>  (683) 
0.00016790594931694999

>  <r_qp_PISA>  (683) 
433.685

>  <r_qp_PSA>  (683) 
52.719999999999999

>  <r_qp_PercentHumanOralAbsorption>  (683) 
96.188000000000002

>  <r_qp_QPPCaco>  (683) 
173.286

>  <r_qp_QPPMDCK>  (683) 
158.94300000000001

>  <r_qp_QPlogBB>  (683) 
0.42099999999999999

>  <r_qp_QPlogHERG>  (683) 
-8.5109999999999992

>  <r_qp_QPlogKhsa>  (683) 
1.056

>  <r_qp_QPlogKp>  (683) 
-4.516

>  <r_qp_QPlogPC16>  (683) 
15.052

>  <r_qp_QPlogPo/w>  (683) 
4.9820000000000002

>  <r_qp_QPlogPoct>  (683) 
22.518999999999998

>  <r_qp_QPlogPw>  (683) 
11.497

>  <r_qp_QPlogS>  (683) 
-4.8929999999999998

>  <r_qp_QPpolrz>  (683) 
49.914999999999999

>  <r_qp_SASA>  (683) 
773.32899999999995

>  <r_qp_SAamideO>  (683) 
0

>  <r_qp_SAfluorine>  (683) 
44.165999999999997

>  <r_qp_WPSA>  (683) 
44.165999999999997

>  <r_qp_accptHB>  (683) 
5.25

>  <r_qp_dip^2/V>  (683) 
0.0097885999999999997

>  <r_qp_dipole>  (683) 
3.7149999999999999

>  <r_qp_donorHB>  (683) 
2

>  <r_qp_glob>  (683) 
0.78628339999999997

>  <r_qp_mol_MW>  (683) 
430.524

>  <r_qp_volume>  (683) 
1409.8330000000001

>  <r_sd_BIOSOLVEIT.INFINISEE\_FTREES\_SIMILARITY>  (683) 
0.93000000000000005

>  <r_sd_BIOSOLVEIT.LOGP>  (683) 
2.2921

>  <r_sd_BIOSOLVEIT.MOLECULAR\_WEIGHT>  (683) 
432.54000000000002

>  <r_sd_BIOSOLVEIT.TPSA>  (683) 
59.100000000000001

>  <i_epik_Tot_Q>  (683) 
1

>  <i_epik_Tot_abs_Q>  (683) 
1

>  <i_f3d_flags>  (683) 
0

>  <i_i_glide_confnum>  (683) 
10

>  <i_i_glide_lignum>  (683) 
137

>  <i_i_glide_posenum>  (683) 
8

>  <i_i_glide_rotatable_bonds>  (683) 
9

>  <i_lp_mmshare_version>  (683) 
65135

>  <i_m_ct_format>  (683) 
2

>  <i_m_source_file_index>  (683) 
177

>  <i_qp_#NandO>  (683) 
5

>  <i_qp_#acid>  (683) 
0

>  <i_qp_#amide>  (683) 
0

>  <i_qp_#amidine>  (683) 
0

>  <i_qp_#amine>  (683) 
2

>  <i_qp_#in34>  (683) 
0

>  <i_qp_#in56>  (683) 
23

>  <i_qp_#metab>  (683) 
6

>  <i_qp_#nonHatm>  (683) 
32

>  <i_qp_#noncon>  (683) 
0

>  <i_qp_#ringatoms>  (683) 
23

>  <i_qp_#rotor>  (683) 
7

>  <i_qp_#rtvFG>  (683) 
0

>  <i_qp_#stars>  (683) 
0

>  <i_qp_CNS>  (683) 
1

>  <i_qp_HumanOralAbsorption>  (683) 
3

>  <i_qp_RuleOfFive>  (683) 
0

>  <i_qp_RuleOfThree>  (683) 
0

>  <i_sd_BIOSOLVEIT.INFINISEE\_REAGENT1\_NAME>  (683) 
241131

>  <i_sd_BIOSOLVEIT.INFINISEE\_REAGENT2\_NAME>  (683) 
222282

>  <i_sd_BIOSOLVEIT.INFINISEE\_RESULT\_RANK>  (683) 
4748

>  <i_sd_version>  (683) 
0

>  <b_lp_Chiralities_Consistent>  (683) 
1

>  <b_sd_chiral_flag>  (683) 
0

>  <canonical_id>  (683) 
ATP-HTVS-6A615EE15C98

>  <compound_code>  (683) 
5634

>  <title>  (683) 
a4____241131____222282

>  <variant>  (683) 
5634-3

>  <source_file>  (683) 
运行/运行/ATP-VSW/ATP-VSW-DOCK_HTVS_1-002_lib.maegz

>  <canonical_smiles>  (683) 
CN(C)Cc1cc(C[NH2+]Cc2cn(-c3ccccc3)nc2-c2ccc(F)cc2)ccc1O

>  <scaffold>  (683) 
c1ccc(C[NH2+]Cc2cn(-c3ccccc3)nc2-c2ccccc2)cc1

>  <molecular_formula>  (683) 
C26H28FN4O+

$$$$
ATP-HTVS-6A632AA0CEB9
     RDKit          3D

 58 61  0  0  0  0  0  0  0  0999 V2000
  197.9533  186.6464  151.5907 F   0  0  0  0  0  0  0  0  0  0  0  0
  198.2858  185.5168  152.2558 C   0  0  0  0  0  0  0  0  0  0  0  0
  199.4264  184.7952  151.8694 C   0  0  0  0  0  0  0  0  0  0  0  0
  199.7701  183.6016  152.5465 C   0  0  0  0  0  0  0  0  0  0  0  0
  198.9574  183.1128  153.5939 C   0  0  0  0  0  0  0  0  0  0  0  0
  197.8054  183.8470  153.9622 C   0  0  0  0  0  0  0  0  0  0  0  0
  197.4804  185.0572  153.3078 C   0  0  0  0  0  0  0  0  0  0  0  0
  199.3218  181.8675  154.2975 C   0  0  0  0  0  0  0  0  0  0  0  0
  200.1317  180.9205  153.6722 N   0  0  0  0  0  0  0  0  0  0  0  0
  200.3065  179.9275  154.5420 C   0  0  0  0  0  0  0  0  0  0  0  0
  199.6343  180.2160  155.7503 N   0  0  0  0  0  0  0  0  0  0  0  0
  199.0222  181.4463  155.5611 C   0  0  0  0  0  0  0  0  0  0  0  0
  198.2634  182.0833  156.6770 C   0  0  1  0  0  0  0  0  0  0  0  0
  196.8723  181.5716  156.7841 N   0  0  1  0  0  0  0  0  0  0  0  0
  196.3010  181.6223  158.1429 C   0  0  1  0  0  0  0  0  0  0  0  0
  196.2657  183.0078  158.7520 C   0  0  0  0  0  0  0  0  0  0  0  0
  197.4410  183.5804  159.2545 C   0  0  0  0  0  0  0  0  0  0  0  0
  197.4119  184.9014  159.7766 C   0  0  0  0  0  0  0  0  0  0  0  0
  196.2048  185.6011  159.8284 C   0  0  0  0  0  0  0  0  0  0  0  0
  195.0056  184.9868  159.3985 C   0  0  0  0  0  0  0  0  0  0  0  0
  195.0421  183.6998  158.8372 C   0  0  0  0  0  0  0  0  0  0  0  0
  196.1850  187.0136  160.3940 C   0  0  1  0  0  0  0  0  0  0  0  0
  196.6917  188.0524  159.4858 N   0  0  0  0  0  0  0  0  0  0  0  0
  198.0950  187.8716  159.1232 C   0  0  2  0  0  0  0  0  0  0  0  0
  196.5828  189.3406  160.1512 C   0  0  2  0  0  0  0  0  0  0  0  0
  199.6641  179.3671  156.8209 C   0  0  0  0  0  0  0  0  0  0  0  0
  200.3500  178.1915  156.7486 C   0  0  0  0  0  0  0  0  0  0  0  0
  201.0361  177.8530  155.5540 C   0  0  0  0  0  0  0  0  0  0  0  0
  201.0193  178.6985  154.4713 C   0  0  0  0  0  0  0  0  0  0  0  0
  200.3623  177.2513  157.9264 C   0  0  2  0  0  0  0  0  0  0  0  0
  196.2570  182.0648  156.1475 H   0  0  0  0  0  0  0  0  0  0  0  0
  200.0406  185.1425  151.0506 H   0  0  0  0  0  0  0  0  0  0  0  0
  200.6534  183.0597  152.2393 H   0  0  0  0  0  0  0  0  0  0  0  0
  197.1208  183.5103  154.7256 H   0  0  0  0  0  0  0  0  0  0  0  0
  196.6037  185.6021  153.6143 H   0  0  0  0  0  0  0  0  0  0  0  0
  198.8233  181.8752  157.5935 H   0  0  0  0  0  0  0  0  0  0  0  0
  198.2693  183.1629  156.6034 H   0  0  0  0  0  0  0  0  0  0  0  0
  195.2813  181.2442  158.0869 H   0  0  0  0  0  0  0  0  0  0  0  0
  196.8625  180.9719  158.8055 H   0  0  0  0  0  0  0  0  0  0  0  0
  198.3953  183.0707  159.2542 H   0  0  0  0  0  0  0  0  0  0  0  0
  198.3228  185.3286  160.1280 H   0  0  0  0  0  0  0  0  0  0  0  0
  194.0517  185.4906  159.4808 H   0  0  0  0  0  0  0  0  0  0  0  0
  194.1308  183.2508  158.4735 H   0  0  0  0  0  0  0  0  0  0  0  0
  195.1533  187.2676  160.6691 H   0  0  0  0  0  0  0  0  0  0  0  0
  196.7468  187.0147  161.3301 H   0  0  0  0  0  0  0  0  0  0  0  0
  198.4537  188.6986  158.5029 H   0  0  0  0  0  0  0  0  0  0  0  0
  198.2400  186.9747  158.5292 H   0  0  0  0  0  0  0  0  0  0  0  0
  198.7244  187.8203  160.0102 H   0  0  0  0  0  0  0  0  0  0  0  0
  196.9253  190.1387  159.4926 H   0  0  0  0  0  0  0  0  0  0  0  0
  197.1771  189.3687  161.0645 H   0  0  0  0  0  0  0  0  0  0  0  0
  195.5478  189.5598  160.4188 H   0  0  0  0  0  0  0  0  0  0  0  0
  199.0999  179.6283  157.7302 H   0  0  0  0  0  0  0  0  0  0  0  0
  201.5653  176.9107  155.4825 H   0  0  0  0  0  0  0  0  0  0  0  0
  201.5297  178.4429  153.5424 H   0  0  0  0  0  0  0  0  0  0  0  0
  201.2105  176.5767  157.8800 H   0  0  0  0  0  0  0  0  0  0  0  0
  199.4645  176.6416  157.9196 H   0  0  0  0  0  0  0  0  0  0  0  0
  200.4109  177.7968  158.8686 H   0  0  0  0  0  0  0  0  0  0  0  0
  196.8458  180.5971  156.5327 H   0  0  0  0  0  0  0  0  0  0  0  0
  1  2  1  0
  2  3  1  0
  2  7  2  0
  3  4  2  0
  3 32  1  0
  4  5  1  0
  4 33  1  0
  5  6  2  0
  5  8  1  0
  6  7  1  0
  6 34  1  0
  7 35  1  0
  8  9  1  0
  8 12  2  0
  9 10  2  0
 10 11  1  0
 10 29  1  0
 11 12  1  0
 11 26  1  0
 12 13  1  0
 13 14  1  0
 13 36  1  1
 13 37  1  0
 14 15  1  0
 14 31  1  6
 14 58  1  0
 15 16  1  0
 15 38  1  6
 15 39  1  0
 16 17  1  0
 16 21  2  0
 17 18  2  0
 17 40  1  0
 18 19  1  0
 18 41  1  0
 19 20  2  0
 19 22  1  0
 20 21  1  0
 20 42  1  0
 21 43  1  0
 22 23  1  0
 22 44  1  1
 22 45  1  0
 23 24  1  0
 23 25  1  0
 24 46  1  6
 24 47  1  0
 24 48  1  0
 25 49  1  6
 25 50  1  0
 25 51  1  0
 26 27  2  0
 26 52  1  0
 27 28  1  0
 27 30  1  0
 28 29  2  0
 28 53  1  0
 29 54  1  0
 30 55  1  6
 30 56  1  0
 30 57  1  0
M  CHG  1  14   1
M  END
>  <s_epik_cmdline>  (684) 
J2VwaWtfcHl0aG9uJywgJy1waCcsICc3LjAwMDAwMCcsICctcGh0JywgJzIuMDAwMDAwJywgJy1tcycsICcxNicsICctdG4nLCAnOCcsICctbWEnLCAnMjAwJywgJy1pbWFlJywgJzxpbmZpbGUubWFlPicsICctb21hZScsICc8b3V0ZmlsZS5tYWU+Jw==

>  <s_epik_input>  (684) 
RmMxW2NIXVtjSF1jKFtjSF1bY0hdMSktYyhuMiljKG4oYzIzKVtjSF1jKFtDSDNdKVtjSF1bY0hdMylbQ0gyXVtOSF1bQ0gyXWM0W2NIXVtjSF1jKFtjSF1bY0hdNClbQ0gyXU4oW0NIM10pW0NIM10=

>  <s_i_glide_gridfile>  (684) 
ATP-Grid

>  <s_lp_Force_Field>  (684) 
OPLS_2005

>  <s_lp_Variant>  (684) 
m_270004bbb____8288884____13441680-4

>  <s_lp_label>  (684) 
1416_sdstereoexpander_1_neutralizer_1_epik_4_stereoizer_1

>  <s_m_source_file>  (684) 
ATP-VSW-LIGPREP-003-in.maegz

>  <s_sd_BIOSOLVEIT.INFINISEE\_QUERY\_NAME>  (684) 
Ref-Lig

>  <s_sd_BIOSOLVEIT.INFINISEE\_QUERY\_SMILES>  (684) 
S(c1nc2c(cc1C[NH2+]Cc3ccc(cc3)C[NH+](C)C)cccc2)Cc4ccccc4

>  <s_sd_BIOSOLVEIT.INFINISEE\_REACTION\_NAME>  (684) 
m_270004bbb

>  <s_sd_BIOSOLVEIT.INFINISEE\_REAGENT1\_SMILES>  (684) 
[R1*]NCc1ccc(cc1)CN(C)C

>  <s_sd_BIOSOLVEIT.INFINISEE\_REAGENT2\_SMILES>  (684) 
[R1*]CC=1N2C(=NC1c3ccc(F)cc3)C=CC(=C2)C

>  <s_sd_BIOSOLVEIT.INFINISEE\_SPACE>  (684) 
REALSpace_44bn_2023-08

>  <s_vsw_compound_code>  (684) 
45283

>  <s_vsw_variant>  (684) 
45283-4

>  <r_epik_Charging_Adjusted_Penalty>  (684) 
2.1395233417724802

>  <r_epik_Ionization_Penalty>  (684) 
1.7414000000000001

>  <r_epik_Ionization_Penalty_Charging>  (684) 
0.29880000000000001

>  <r_epik_Ionization_Penalty_Neutral>  (684) 
1.4424999999999999

>  <r_epik_State_Penalty>  (684) 
1.8407

>  <r_i_docking_score>  (684) 
-2.7184364691801801

>  <r_i_glide_ecoul>  (684) 
-9.0594244003295898

>  <r_i_glide_eff_state_penalty>  (684) 
1.8407

>  <r_i_glide_einternal>  (684) 
3.5924236774444598

>  <r_i_glide_emodel>  (684) 
-53.196922511339899

>  <r_i_glide_energy>  (684) 
-38.671030998230002

>  <r_i_glide_erotb>  (684) 
0.72351109212039699

>  <r_i_glide_esite>  (684) 
-0.11161830718150501

>  <r_i_glide_evdw>  (684) 
-29.611606597900401

>  <r_i_glide_gscore>  (684) 
-4.5591364691801797

>  <r_i_glide_hbond>  (684) 
-0.031894202602574903

>  <r_i_glide_ligand_efficiency>  (684) 
-0.090614548972672598

>  <r_i_glide_ligand_efficiency_ln>  (684) 
-0.61765838553542296

>  <r_i_glide_ligand_efficiency_sa>  (684) 
-0.281560471761022

>  <r_i_glide_lipo>  (684) 
-1.2626579148196999

>  <r_i_glide_metal>  (684) 
-0

>  <r_i_glide_rewards>  (684) 
-1.03698314675234

>  <r_lp_Energy>  (684) 
19.986788000000001

>  <r_qp_ACxDN^.5/SA>  (684) 
0.0067016000000000003

>  <r_qp_CIQPlogS>  (684) 
-4.5629999999999997

>  <r_qp_EA(eV)>  (684) 
0.61499999999999999

>  <r_qp_FISA>  (684) 
36.853999999999999

>  <r_qp_FOSA>  (684) 
302.678

>  <r_qp_IP(eV)>  (684) 
8.7460000000000004

>  <r_qp_Jm>  (684) 
0.00021298071509551501

>  <r_qp_PISA>  (684) 
359.52999999999997

>  <r_qp_PSA>  (684) 
35.081000000000003

>  <r_qp_PercentHumanOralAbsorption>  (684) 
100

>  <r_qp_QPPCaco>  (684) 
275.55500000000001

>  <r_qp_QPPMDCK>  (684) 
272.05700000000002

>  <r_qp_QPlogBB>  (684) 
0.72299999999999998

>  <r_qp_QPlogHERG>  (684) 
-8.0549999999999997

>  <r_qp_QPlogKhsa>  (684) 
1.0569999999999999

>  <r_qp_QPlogKp>  (684) 
-4.4809999999999999

>  <r_qp_QPlogPC16>  (684) 
13.569000000000001

>  <r_qp_QPlogPo/w>  (684) 
4.9699999999999998

>  <r_qp_QPlogPoct>  (684) 
20.222999999999999

>  <r_qp_QPlogPw>  (684) 
9.2929999999999993

>  <r_qp_QPlogS>  (684) 
-4.7949999999999999

>  <r_qp_QPpolrz>  (684) 
47.539000000000001

>  <r_qp_SASA>  (684) 
746.09000000000003

>  <r_qp_SAamideO>  (684) 
0

>  <r_qp_SAfluorine>  (684) 
47.027999999999999

>  <r_qp_WPSA>  (684) 
47.027999999999999

>  <r_qp_accptHB>  (684) 
5

>  <r_qp_dip^2/V>  (684) 
0.0310747

>  <r_qp_dipole>  (684) 
6.4820000000000002

>  <r_qp_donorHB>  (684) 
1

>  <r_qp_glob>  (684) 
0.79259270000000004

>  <r_qp_mol_MW>  (684) 
402.51299999999998

>  <r_qp_volume>  (684) 
1352.116

>  <r_sd_BIOSOLVEIT.INFINISEE\_FTREES\_SIMILARITY>  (684) 
0.90800000000000003

>  <r_sd_BIOSOLVEIT.LOGP>  (684) 
2.3569200000000001

>  <r_sd_BIOSOLVEIT.MOLECULAR\_WEIGHT>  (684) 
404.52999999999997

>  <r_sd_BIOSOLVEIT.TPSA>  (684) 
38.869999999999997

>  <i_epik_Tot_Q>  (684) 
1

>  <i_epik_Tot_abs_Q>  (684) 
1

>  <i_f3d_flags>  (684) 
0

>  <i_i_glide_confnum>  (684) 
8

>  <i_i_glide_lignum>  (684) 
549

>  <i_i_glide_posenum>  (684) 
18

>  <i_i_glide_rotatable_bonds>  (684) 
7

>  <i_lp_mmshare_version>  (684) 
65135

>  <i_m_ct_format>  (684) 
2

>  <i_m_source_file_index>  (684) 
1416

>  <i_qp_#NandO>  (684) 
4

>  <i_qp_#acid>  (684) 
0

>  <i_qp_#amide>  (684) 
0

>  <i_qp_#amidine>  (684) 
0

>  <i_qp_#amine>  (684) 
2

>  <i_qp_#in34>  (684) 
0

>  <i_qp_#in56>  (684) 
21

>  <i_qp_#metab>  (684) 
6

>  <i_qp_#nonHatm>  (684) 
30

>  <i_qp_#noncon>  (684) 
0

>  <i_qp_#ringatoms>  (684) 
21

>  <i_qp_#rotor>  (684) 
6

>  <i_qp_#rtvFG>  (684) 
0

>  <i_qp_#stars>  (684) 
0

>  <i_qp_CNS>  (684) 
2

>  <i_qp_HumanOralAbsorption>  (684) 
3

>  <i_qp_RuleOfFive>  (684) 
0

>  <i_qp_RuleOfThree>  (684) 
0

>  <i_sd_BIOSOLVEIT.INFINISEE\_REAGENT1\_NAME>  (684) 
8288884

>  <i_sd_BIOSOLVEIT.INFINISEE\_REAGENT2\_NAME>  (684) 
13441680

>  <i_sd_BIOSOLVEIT.INFINISEE\_RESULT\_RANK>  (684) 
53779

>  <i_sd_version>  (684) 
0

>  <b_lp_Chiralities_Consistent>  (684) 
1

>  <b_sd_chiral_flag>  (684) 
0

>  <canonical_id>  (684) 
ATP-HTVS-6A632AA0CEB9

>  <compound_code>  (684) 
45283

>  <title>  (684) 
m_270004bbb____8288884____13441680

>  <variant>  (684) 
45283-4

>  <source_file>  (684) 
运行/运行/ATP-VSW/ATP-VSW-DOCK_HTVS_1-003_lib/ATP-VSW-DOCK_HTVS_1-003_lib.mae

>  <canonical_smiles>  (684) 
Cc1ccc2nc(-c3ccc(F)cc3)c(C[NH2+]Cc3ccc(CN(C)C)cc3)n2c1

>  <scaffold>  (684) 
c1ccc(C[NH2+]Cc2c(-c3ccccc3)nc3ccccn23)cc1

>  <molecular_formula>  (684) 
C25H28FN4+

$$$$
ATP-HTVS-6A75058F52BE
     RDKit          3D

 68 71  0  0  0  0  0  0  0  0999 V2000
  204.5513  181.9921  159.1866 O   0  0  0  0  0  0  0  0  0  0  0  0
  203.8333  181.9522  158.1990 N   0  0  0  0  0  0  0  0  0  0  0  0
  204.2235  181.5927  157.0918 O   0  0  0  0  0  0  0  0  0  0  0  0
  202.4216  182.3642  158.3301 C   0  0  0  0  0  0  0  0  0  0  0  0
  201.9533  183.0454  159.4869 C   0  0  0  0  0  0  0  0  0  0  0  0
  200.5972  183.4360  159.5828 C   0  0  0  0  0  0  0  0  0  0  0  0
  199.6842  183.1684  158.5276 C   0  0  0  0  0  0  0  0  0  0  0  0
  200.1732  182.5214  157.3636 C   0  0  0  0  0  0  0  0  0  0  0  0
  201.5132  182.1031  157.2841 C   0  0  0  0  0  0  0  0  0  0  0  0
  198.2578  183.5415  158.6427 C   0  0  0  0  0  0  0  0  0  0  0  0
  197.9552  184.6383  159.3178 N   0  0  0  0  0  0  0  0  0  0  0  0
  196.6093  184.7425  159.3021 N   0  0  0  0  0  0  0  0  0  0  0  0
  195.9506  185.7836  160.0036 C   0  0  0  0  0  0  0  0  0  0  0  0
  196.5974  187.0230  160.2192 C   0  0  0  0  0  0  0  0  0  0  0  0
  195.9549  188.0405  160.9463 C   0  0  0  0  0  0  0  0  0  0  0  0
  194.6711  187.8251  161.4800 C   0  0  0  0  0  0  0  0  0  0  0  0
  194.0128  186.6034  161.2558 C   0  0  0  0  0  0  0  0  0  0  0  0
  194.6515  185.5864  160.5196 C   0  0  0  0  0  0  0  0  0  0  0  0
  196.0543  183.7071  158.5769 C   0  0  0  0  0  0  0  0  0  0  0  0
  197.0707  182.8895  158.1557 C   0  0  0  0  0  0  0  0  0  0  0  0
  196.9021  181.5637  157.4450 C   0  0  1  0  0  0  0  0  0  0  0  0
  197.3655  181.5975  156.0452 N   0  0  1  0  0  0  0  0  0  0  0  0
  196.4068  182.0936  155.0434 C   0  0  1  0  0  0  0  0  0  0  0  0
  197.1308  182.3650  153.7290 C   0  0  0  0  0  0  0  0  0  0  0  0
  197.4628  181.2981  152.8691 C   0  0  0  0  0  0  0  0  0  0  0  0
  198.1061  181.5418  151.6399 C   0  0  0  0  0  0  0  0  0  0  0  0
  198.4332  182.8609  151.2659 C   0  0  0  0  0  0  0  0  0  0  0  0
  198.1072  183.9323  152.1238 C   0  0  0  0  0  0  0  0  0  0  0  0
  197.4612  183.6863  153.3488 C   0  0  0  0  0  0  0  0  0  0  0  0
  198.4755  180.3731  150.7454 C   0  0  1  0  0  0  0  0  0  0  0  0
  197.4355  180.0155  149.7328 N   0  0  1  0  0  0  0  0  0  0  0  0
  197.8576  178.9180  148.8019 C   0  0  2  0  0  0  0  0  0  0  0  0
  198.3406  177.6349  149.5197 C   0  0  2  0  0  0  0  0  0  0  0  0
  198.8998  179.3820  147.7687 C   0  0  2  0  0  0  0  0  0  0  0  0
  196.0774  179.7962  150.3030 C   0  0  2  0  0  0  0  0  0  0  0  0
  198.1554  182.2188  155.9918 H   0  0  0  0  0  0  0  0  0  0  0  0
  202.6431  183.2774  160.2892 H   0  0  0  0  0  0  0  0  0  0  0  0
  200.2729  183.9466  160.4791 H   0  0  0  0  0  0  0  0  0  0  0  0
  199.5638  182.3349  156.4928 H   0  0  0  0  0  0  0  0  0  0  0  0
  201.8373  181.5872  156.3921 H   0  0  0  0  0  0  0  0  0  0  0  0
  197.5929  187.1947  159.8347 H   0  0  0  0  0  0  0  0  0  0  0  0
  196.4533  188.9831  161.1159 H   0  0  0  0  0  0  0  0  0  0  0  0
  194.1758  188.6112  162.0342 H   0  0  0  0  0  0  0  0  0  0  0  0
  193.0139  186.4489  161.6378 H   0  0  0  0  0  0  0  0  0  0  0  0
  194.1351  184.6529  160.3564 H   0  0  0  0  0  0  0  0  0  0  0  0
  194.9806  183.6076  158.4541 H   0  0  0  0  0  0  0  0  0  0  0  0
  197.4964  180.7965  157.9401 H   0  0  0  0  0  0  0  0  0  0  0  0
  195.8625  181.2357  157.4752 H   0  0  0  0  0  0  0  0  0  0  0  0
  195.5901  181.3780  154.9077 H   0  0  0  0  0  0  0  0  0  0  0  0
  195.9556  183.0067  155.4140 H   0  0  0  0  0  0  0  0  0  0  0  0
  197.2247  180.2891  153.1615 H   0  0  0  0  0  0  0  0  0  0  0  0
  198.9242  183.0569  150.3175 H   0  0  0  0  0  0  0  0  0  0  0  0
  198.3371  184.9443  151.8134 H   0  0  0  0  0  0  0  0  0  0  0  0
  197.1952  184.5225  153.9802 H   0  0  0  0  0  0  0  0  0  0  0  0
  199.4133  180.6116  150.2387 H   0  0  0  0  0  0  0  0  0  0  0  0
  198.6825  179.5374  151.4127 H   0  0  0  0  0  0  0  0  0  0  0  0
  196.9758  178.6434  148.2208 H   0  0  0  0  0  0  0  0  0  0  0  0
  198.6204  176.8664  148.7898 H   0  0  0  0  0  0  0  0  0  0  0  0
  197.5595  177.2000  150.1362 H   0  0  0  0  0  0  0  0  0  0  0  0
  199.2161  177.8130  150.1561 H   0  0  0  0  0  0  0  0  0  0  0  0
  199.1890  178.5417  147.1324 H   0  0  0  0  0  0  0  0  0  0  0  0
  199.8171  179.7459  148.2318 H   0  0  0  0  0  0  0  0  0  0  0  0
  198.5078  180.1610  147.1165 H   0  0  0  0  0  0  0  0  0  0  0  0
  196.0599  178.8838  150.8976 H   0  0  0  0  0  0  0  0  0  0  0  0
  195.3340  179.6992  149.5092 H   0  0  0  0  0  0  0  0  0  0  0  0
  195.7443  180.6154  150.9470 H   0  0  0  0  0  0  0  0  0  0  0  0
  197.3339  180.8374  149.1524 H   0  0  0  0  0  0  0  0  0  0  0  0
  197.6418  180.6603  155.7794 H   0  0  0  0  0  0  0  0  0  0  0  0
  1  2  1  0
  2  3  2  0
  2  4  1  0
  4  5  1  0
  4  9  2  0
  5  6  2  0
  5 37  1  0
  6  7  1  0
  6 38  1  0
  7  8  2  0
  7 10  1  0
  8  9  1  0
  8 39  1  0
  9 40  1  0
 10 11  2  0
 10 20  1  0
 11 12  1  0
 12 13  1  0
 12 19  1  0
 13 14  2  0
 13 18  1  0
 14 15  1  0
 14 41  1  0
 15 16  2  0
 15 42  1  0
 16 17  1  0
 16 43  1  0
 17 18  2  0
 17 44  1  0
 18 45  1  0
 19 20  2  0
 19 46  1  0
 20 21  1  0
 21 22  1  0
 21 47  1  1
 21 48  1  0
 22 23  1  0
 22 36  1  1
 22 68  1  0
 23 24  1  0
 23 49  1  6
 23 50  1  0
 24 25  2  0
 24 29  1  0
 25 26  1  0
 25 51  1  0
 26 27  2  0
 26 30  1  0
 27 28  1  0
 27 52  1  0
 28 29  2  0
 28 53  1  0
 29 54  1  0
 30 31  1  0
 30 55  1  6
 30 56  1  0
 31 32  1  0
 31 35  1  0
 31 67  1  6
 32 33  1  0
 32 34  1  0
 32 57  1  6
 33 58  1  6
 33 59  1  0
 33 60  1  0
 34 61  1  6
 34 62  1  0
 34 63  1  0
 35 64  1  1
 35 65  1  0
 35 66  1  0
M  CHG  4   1  -1   2   1  22   1  31   1
M  END
>  <s_epik_cmdline>  (685) 
J2VwaWtfcHl0aG9uJywgJy1waCcsICc3LjAwMDAwMCcsICctcGh0JywgJzIuMDAwMDAwJywgJy1tcycsICcxNicsICctdG4nLCAnOCcsICctbWEnLCAnMjAwJywgJy1pbWFlJywgJzxpbmZpbGUubWFlPicsICctb21hZScsICc8b3V0ZmlsZS5tYWU+Jw==

>  <s_epik_input>  (685) 
W08tXVtOK10oPU8pYzFbY0hdW2NIXWMoW2NIXVtjSF0xKS1jMm5uKC1jM1tjSF1bY0hdW2NIXVtjSF1bY0hdMylbY0hdYzJbQ0gyXVtOSF1bQ0gyXWM0W2NIXWMoW2NIXVtjSF1bY0hdNClbQ0gyXU4oW0NIM10pW0NIXShbQ0gzXSlbQ0gzXQ==

>  <s_i_glide_gridfile>  (685) 
ATP-Grid

>  <s_lp_Force_Field>  (685) 
OPLS_2005

>  <s_lp_Variant>  (685) 
m_207dba____5167038____134021-2

>  <s_lp_label>  (685) 
885_sdstereoexpander_1_neutralizer_1_epik_1_stereoizer_2

>  <s_m_source_file>  (685) 
ATP-VSW-LIGPREP-001-in.maegz

>  <s_sd_BIOSOLVEIT.INFINISEE\_QUERY\_NAME>  (685) 
Ref-Lig

>  <s_sd_BIOSOLVEIT.INFINISEE\_QUERY\_SMILES>  (685) 
S(c1nc2c(cc1C[NH2+]Cc3ccc(cc3)C[NH+](C)C)cccc2)Cc4ccccc4

>  <s_sd_BIOSOLVEIT.INFINISEE\_REACTION\_NAME>  (685) 
m_207dba

>  <s_sd_BIOSOLVEIT.INFINISEE\_REAGENT1\_SMILES>  (685) 
[R1*]NCc1cc(ccc1)CN(C(C)C)C

>  <s_sd_BIOSOLVEIT.INFINISEE\_REAGENT2\_SMILES>  (685) 
[R1*]CC=1C(=NN(c2ccccc2)C1)c3ccc([N+]([O-])=O)cc3

>  <s_sd_BIOSOLVEIT.INFINISEE\_SPACE>  (685) 
REALSpace_44bn_2023-08

>  <s_vsw_compound_code>  (685) 
28289

>  <s_vsw_variant>  (685) 
28289-2

>  <r_epik_Charging_Adjusted_Penalty>  (685) 
0.25385788821264799

>  <r_epik_Ionization_Penalty>  (685) 
0.12759999999999999

>  <r_epik_Ionization_Penalty_Charging>  (685) 
0.12759999999999999

>  <r_epik_Ionization_Penalty_Neutral>  (685) 
0

>  <r_epik_State_Penalty>  (685) 
0.1263

>  <r_i_docking_score>  (685) 
-4.8401022274414398

>  <r_i_glide_ecoul>  (685) 
-10.3462686538696

>  <r_i_glide_eff_state_penalty>  (685) 
0.1263

>  <r_i_glide_einternal>  (685) 
3.52385449409485

>  <r_i_glide_emodel>  (685) 
-60.7623363419196

>  <r_i_glide_energy>  (685) 
-43.461697578430197

>  <r_i_glide_erotb>  (685) 
0.72711026094401499

>  <r_i_glide_esite>  (685) 
-0.049012329458587398

>  <r_i_glide_evdw>  (685) 
-33.115428924560497

>  <r_i_glide_gscore>  (685) 
-4.9664022274414403

>  <r_i_glide_hbond>  (685) 
0

>  <r_i_glide_ligand_efficiency>  (685) 
-0.138288635069755

>  <r_i_glide_ligand_efficiency_ln>  (685) 
-1.06250985920468

>  <r_i_glide_ligand_efficiency_sa>  (685) 
-0.45235129472255198

>  <r_i_glide_lipo>  (685) 
-1.7838861212470201

>  <r_i_glide_metal>  (685) 
-0

>  <r_i_glide_rewards>  (685) 
-0.65290229337137795

>  <r_lp_Energy>  (685) 
29.309424

>  <r_lp_tautomer_probability>  (685) 
1

>  <r_qp_ACxDN^.5/SA>  (685) 
0.0075643000000000004

>  <r_qp_CIQPlogS>  (685) 
-5.8579999999999997

>  <r_qp_EA(eV)>  (685) 
1.2090000000000001

>  <r_qp_FISA>  (685) 
124.242

>  <r_qp_FOSA>  (685) 
265.59300000000002

>  <r_qp_IP(eV)>  (685) 
9.0190000000000001

>  <r_qp_Jm>  (685) 
9.2127610118645703e-05

>  <r_qp_PISA>  (685) 
337.25999999999999

>  <r_qp_PSA>  (685) 
76.468999999999994

>  <r_qp_PercentHumanOralAbsorption>  (685) 
82.028999999999996

>  <r_qp_QPPCaco>  (685) 
40.880000000000003

>  <r_qp_QPPMDCK>  (685) 
19.113

>  <r_qp_QPlogBB>  (685) 
-0.28100000000000003

>  <r_qp_QPlogHERG>  (685) 
-7.0949999999999998

>  <r_qp_QPlogKhsa>  (685) 
1.1100000000000001

>  <r_qp_QPlogKp>  (685) 
-5.9779999999999998

>  <r_qp_QPlogPC16>  (685) 
14.91

>  <r_qp_QPlogPo/w>  (685) 
4.4820000000000002

>  <r_qp_QPlogPoct>  (685) 
22.067

>  <r_qp_QPlogPw>  (685) 
9.7249999999999996

>  <r_qp_QPlogS>  (685) 
-3.7290000000000001

>  <r_qp_QPpolrz>  (685) 
49.274999999999999

>  <r_qp_SASA>  (685) 
727.09500000000003

>  <r_qp_SAamideO>  (685) 
0

>  <r_qp_SAfluorine>  (685) 
0

>  <r_qp_WPSA>  (685) 
0

>  <r_qp_accptHB>  (685) 
5.5

>  <r_qp_dip^2/V>  (685) 
0.074853799999999998

>  <r_qp_dipole>  (685) 
10.356999999999999

>  <r_qp_donorHB>  (685) 
1

>  <r_qp_glob>  (685) 
0.8453851

>  <r_qp_mol_MW>  (685) 
469.58499999999998

>  <r_qp_volume>  (685) 
1432.9179999999999

>  <r_sd_BIOSOLVEIT.INFINISEE\_FTREES\_SIMILARITY>  (685) 
0.92000000000000004

>  <r_sd_BIOSOLVEIT.LOGP>  (685) 
3.1341999999999999

>  <r_sd_BIOSOLVEIT.MOLECULAR\_WEIGHT>  (685) 
471.60199999999998

>  <r_sd_BIOSOLVEIT.TPSA>  (685) 
84.689999999999998

>  <i_epik_Tot_Q>  (685) 
2

>  <i_epik_Tot_abs_Q>  (685) 
4

>  <i_f3d_flags>  (685) 
0

>  <i_i_glide_confnum>  (685) 
2

>  <i_i_glide_lignum>  (685) 
154

>  <i_i_glide_posenum>  (685) 
1

>  <i_i_glide_rotatable_bonds>  (685) 
10

>  <i_lp_mmshare_version>  (685) 
65135

>  <i_m_ct_format>  (685) 
2

>  <i_m_source_file_index>  (685) 
885

>  <i_qp_#NandO>  (685) 
7

>  <i_qp_#acid>  (685) 
0

>  <i_qp_#amide>  (685) 
0

>  <i_qp_#amidine>  (685) 
0

>  <i_qp_#amine>  (685) 
2

>  <i_qp_#in34>  (685) 
0

>  <i_qp_#in56>  (685) 
23

>  <i_qp_#metab>  (685) 
6

>  <i_qp_#nonHatm>  (685) 
35

>  <i_qp_#noncon>  (685) 
0

>  <i_qp_#ringatoms>  (685) 
23

>  <i_qp_#rotor>  (685) 
8

>  <i_qp_#rtvFG>  (685) 
0

>  <i_qp_#stars>  (685) 
0

>  <i_qp_CNS>  (685) 
1

>  <i_qp_HumanOralAbsorption>  (685) 
3

>  <i_qp_RuleOfFive>  (685) 
0

>  <i_qp_RuleOfThree>  (685) 
0

>  <i_sd_BIOSOLVEIT.INFINISEE\_REAGENT1\_NAME>  (685) 
5167038

>  <i_sd_BIOSOLVEIT.INFINISEE\_REAGENT2\_NAME>  (685) 
134021

>  <i_sd_BIOSOLVEIT.INFINISEE\_RESULT\_RANK>  (685) 
17565

>  <i_sd_version>  (685) 
0

>  <b_lp_Chiralities_Consistent>  (685) 
1

>  <b_sd_chiral_flag>  (685) 
0

>  <canonical_id>  (685) 
ATP-HTVS-6A75058F52BE

>  <compound_code>  (685) 
28289

>  <title>  (685) 
m_207dba____5167038____134021

>  <variant>  (685) 
28289-2

>  <source_file>  (685) 
运行/运行/ATP-VSW/ATP-VSW-DOCK_HTVS_1-001_lib/ATP-VSW-DOCK_HTVS_1-001_lib

>  <canonical_smiles>  (685) 
CC(C)[N@@H+](C)Cc1cccc(C[NH2+]Cc2cn(-c3ccccc3)nc2-c2ccc([N+](=O)[O-])cc2)c1

>  <scaffold>  (685) 
c1ccc(C[NH2+]Cc2cn(-c3ccccc3)nc2-c2ccccc2)cc1

>  <molecular_formula>  (685) 
C28H33N5O2+2

$$$$
ATP-HTVS-6A7606C4C92F
     RDKit          3D

 53 56  0  0  0  0  0  0  0  0999 V2000
  198.4573  183.0543  159.1971 O   0  0  0  0  0  0  0  0  0  0  0  0
  198.7440  184.2198  158.9366 C   0  0  0  0  0  0  0  0  0  0  0  0
  199.8552  184.5466  158.2611 N   0  0  0  0  0  0  0  0  0  0  0  0
  200.7808  183.6048  157.7526 C   0  0  0  0  0  0  0  0  0  0  0  0
  201.7095  182.9626  158.6163 C   0  0  0  0  0  0  0  0  0  0  0  0
  202.6387  182.0487  158.0447 C   0  0  0  0  0  0  0  0  0  0  0  0
  202.6609  181.7953  156.7171 N   0  0  0  0  0  0  0  0  0  0  0  0
  201.7672  182.4075  155.9153 C   0  0  0  0  0  0  0  0  0  0  0  0
  200.7958  183.3227  156.3631 C   0  0  0  0  0  0  0  0  0  0  0  0
  199.8434  183.9193  155.3973 C   0  0  0  0  0  0  0  0  0  0  0  0
  200.3136  184.5692  154.2341 C   0  0  0  0  0  0  0  0  0  0  0  0
  199.4150  185.1309  153.3052 C   0  0  0  0  0  0  0  0  0  0  0  0
  198.0273  185.0569  153.5282 C   0  0  0  0  0  0  0  0  0  0  0  0
  197.5426  184.4087  154.6764 C   0  0  0  0  0  0  0  0  0  0  0  0
  198.4439  183.8340  155.5917 C   0  0  0  0  0  0  0  0  0  0  0  0
  203.5615  181.4005  158.8913 C   0  0  0  0  0  0  0  0  0  0  0  0
  203.5762  181.6443  160.2787 C   0  0  0  0  0  0  0  0  0  0  0  0
  202.6593  182.5494  160.8414 C   0  0  0  0  0  0  0  0  0  0  0  0
  201.7353  183.2095  160.0133 C   0  0  0  0  0  0  0  0  0  0  0  0
  197.8402  185.3709  159.3174 C   0  0  0  0  0  0  0  0  0  0  0  0
  196.5260  185.1838  159.8574 C   0  0  0  0  0  0  0  0  0  0  0  0
  195.7493  186.3201  160.1761 C   0  0  0  0  0  0  0  0  0  0  0  0
  196.2376  187.6228  159.9836 C   0  0  0  0  0  0  0  0  0  0  0  0
  197.5248  187.8104  159.4672 C   0  0  0  0  0  0  0  0  0  0  0  0
  198.3151  186.6970  159.1457 C   0  0  0  0  0  0  0  0  0  0  0  0
  195.8901  183.8152  160.1178 C   0  0  1  0  0  0  0  0  0  0  0  0
  195.2592  183.2557  158.8982 N   0  0  2  0  0  0  0  0  0  0  0  0
  193.9178  183.8217  158.6402 C   0  0  2  0  0  0  0  0  0  0  0  0
  195.2421  181.7816  158.8816 C   0  0  2  0  0  0  0  0  0  0  0  0
  199.9995  185.5049  157.9832 H   0  0  0  0  0  0  0  0  0  0  0  0
  201.8255  182.1532  154.8671 H   0  0  0  0  0  0  0  0  0  0  0  0
  201.3755  184.6333  154.0450 H   0  0  0  0  0  0  0  0  0  0  0  0
  199.7915  185.6145  152.4156 H   0  0  0  0  0  0  0  0  0  0  0  0
  197.3345  185.4884  152.8225 H   0  0  0  0  0  0  0  0  0  0  0  0
  196.4783  184.3362  154.8475 H   0  0  0  0  0  0  0  0  0  0  0  0
  198.0438  183.3120  156.4482 H   0  0  0  0  0  0  0  0  0  0  0  0
  204.2655  180.7078  158.4587 H   0  0  0  0  0  0  0  0  0  0  0  0
  204.2897  181.1346  160.9101 H   0  0  0  0  0  0  0  0  0  0  0  0
  202.6587  182.7418  161.9049 H   0  0  0  0  0  0  0  0  0  0  0  0
  201.0504  183.9013  160.4776 H   0  0  0  0  0  0  0  0  0  0  0  0
  194.7546  186.2045  160.5754 H   0  0  0  0  0  0  0  0  0  0  0  0
  195.6330  188.4835  160.2307 H   0  0  0  0  0  0  0  0  0  0  0  0
  197.9145  188.8068  159.3134 H   0  0  0  0  0  0  0  0  0  0  0  0
  199.3033  186.9211  158.7679 H   0  0  0  0  0  0  0  0  0  0  0  0
  196.6088  183.1252  160.5597 H   0  0  0  0  0  0  0  0  0  0  0  0
  195.1394  183.9190  160.9013 H   0  0  0  0  0  0  0  0  0  0  0  0
  193.2308  183.6223  159.4606 H   0  0  0  0  0  0  0  0  0  0  0  0
  193.4728  183.4128  157.7371 H   0  0  0  0  0  0  0  0  0  0  0  0
  193.9831  184.9010  158.5261 H   0  0  0  0  0  0  0  0  0  0  0  0
  194.6488  181.3871  159.7064 H   0  0  0  0  0  0  0  0  0  0  0  0
  196.2525  181.3779  158.9623 H   0  0  0  0  0  0  0  0  0  0  0  0
  194.8160  181.4180  157.9443 H   0  0  0  0  0  0  0  0  0  0  0  0
  195.8375  183.5221  158.1169 H   0  0  0  0  0  0  0  0  0  0  0  0
  1  2  2  0
  2  3  1  0
  2 20  1  0
  3  4  1  0
  3 30  1  0
  4  5  1  0
  4  9  2  0
  5  6  1  0
  5 19  2  0
  6  7  1  0
  6 16  2  0
  7  8  2  0
  8  9  1  0
  8 31  1  0
  9 10  1  0
 10 11  2  0
 10 15  1  0
 11 12  1  0
 11 32  1  0
 12 13  2  0
 12 33  1  0
 13 14  1  0
 13 34  1  0
 14 15  2  0
 14 35  1  0
 15 36  1  0
 16 17  1  0
 16 37  1  0
 17 18  2  0
 17 38  1  0
 18 19  1  0
 18 39  1  0
 19 40  1  0
 20 21  1  0
 20 25  2  0
 21 22  2  0
 21 26  1  0
 22 23  1  0
 22 41  1  0
 23 24  2  0
 23 42  1  0
 24 25  1  0
 24 43  1  0
 25 44  1  0
 26 27  1  0
 26 45  1  1
 26 46  1  0
 27 28  1  0
 27 29  1  0
 27 53  1  6
 28 47  1  1
 28 48  1  0
 28 49  1  0
 29 50  1  1
 29 51  1  0
 29 52  1  0
M  CHG  1  27   1
M  END
>  <s_epik_cmdline>  (686) 
J2VwaWtfcHl0aG9uJywgJy1waCcsICc3LjAwMDAwMCcsICctcGh0JywgJzIuMDAwMDAwJywgJy1tcycsICcxNicsICctdG4nLCAnOCcsICctbWEnLCAnMjAwJywgJy1pbWFlJywgJzxpbmZpbGUubWFlPicsICctb21hZScsICc8b3V0ZmlsZS5tYWU+Jw==

>  <s_epik_input>  (686) 
W2NIXTFbY0hdW2NIXVtjSF1jKFtDSDJdTihbQ0gzXSlbQ0gzXSljMUMoPU8pW05IXWMyYygtYzNbY0hdW2NIXVtjSF1bY0hdW2NIXTMpW2NIXW5jKGMyNClbY0hdW2NIXVtjSF1bY0hdNA==

>  <s_i_glide_gridfile>  (686) 
ATP-Grid

>  <s_lp_Force_Field>  (686) 
OPLS_2005

>  <s_lp_Variant>  (686) 
rxn501b____EMOL5415347____EMOL13728749____EMOL530468-1

>  <s_lp_label>  (686) 
2885_sdstereoexpander_1_neutralizer_1_epik_1_stereoizer_1

>  <s_m_source_file>  (686) 
ATP-VSW-LIGPREP-002-in.maegz

>  <s_sd_BIOSOLVEIT.INFINISEE\_QUERY\_NAME>  (686) 
Ref-Lig

>  <s_sd_BIOSOLVEIT.INFINISEE\_QUERY\_SMILES>  (686) 
S(c1nc2c(cc1C[NH2+]Cc3ccc(cc3)C[NH+](C)C)cccc2)Cc4ccccc4

>  <s_sd_BIOSOLVEIT.INFINISEE\_REACTION\_NAME>  (686) 
rxn501b

>  <s_sd_BIOSOLVEIT.INFINISEE\_REAGENT1\_NAME>  (686) 
EMOL5415347

>  <s_sd_BIOSOLVEIT.INFINISEE\_REAGENT1\_SMILES>  (686) 
O=C(O)c1c(cccc1)CN(C)C

>  <s_sd_BIOSOLVEIT.INFINISEE\_REAGENT2\_NAME>  (686) 
EMOL13728749

>  <s_sd_BIOSOLVEIT.INFINISEE\_REAGENT2\_SMILES>  (686) 
Brc1c(N)c2c(nc1)cccc2

>  <s_sd_BIOSOLVEIT.INFINISEE\_REAGENT3\_NAME>  (686) 
EMOL530468

>  <s_sd_BIOSOLVEIT.INFINISEE\_REAGENT3\_SMILES>  (686) 
OB(O)c1ccccc1

>  <s_sd_BIOSOLVEIT.INFINISEE\_SPACE>  (686) 
eXplore_7tr_2022-12

>  <s_vsw_compound_code>  (686) 
92290

>  <s_vsw_variant>  (686) 
92290-1

>  <r_epik_Charging_Adjusted_Penalty>  (686) 
0.131781859323641

>  <r_epik_Ionization_Penalty>  (686) 
0.061600000000000002

>  <r_epik_Ionization_Penalty_Charging>  (686) 
0.060600000000000001

>  <r_epik_Ionization_Penalty_Neutral>  (686) 
0.00089999999999999998

>  <r_epik_State_Penalty>  (686) 
0.071099999999999997

>  <r_i_docking_score>  (686) 
-4.3415430472711503

>  <r_i_glide_ecoul>  (686) 
-4.4002785682678196

>  <r_i_glide_eff_state_penalty>  (686) 
0.071099999999999997

>  <r_i_glide_einternal>  (686) 
3.2981226444244398

>  <r_i_glide_emodel>  (686) 
-45.180196237016403

>  <r_i_glide_energy>  (686) 
-34.012699604034403

>  <r_i_glide_erotb>  (686) 
0.66382409097296402

>  <r_i_glide_esite>  (686) 
0

>  <r_i_glide_evdw>  (686) 
-29.612421035766602

>  <r_i_glide_gscore>  (686) 
-4.4126430472711498

>  <r_i_glide_hbond>  (686) 
0

>  <r_i_glide_ligand_efficiency>  (686) 
-0.14970838094038499

>  <r_i_glide_ligand_efficiency_ln>  (686) 
-0.99410326579241504

>  <r_i_glide_ligand_efficiency_sa>  (686) 
-0.45995157719306501

>  <r_i_glide_lipo>  (686) 
-1.7916675819492001

>  <r_i_glide_metal>  (686) 
-0

>  <r_i_glide_rewards>  (686) 
-1.14413671926641

>  <r_lp_Energy>  (686) 
37.156937999999997

>  <r_qp_ACxDN^.5/SA>  (686) 
0.0083707

>  <r_qp_CIQPlogS>  (686) 
-5.0410000000000004

>  <r_qp_EA(eV)>  (686) 
1.0329999999999999

>  <r_qp_FISA>  (686) 
32.042999999999999

>  <r_qp_FOSA>  (686) 
148.714

>  <r_qp_IP(eV)>  (686) 
8.7460000000000004

>  <r_qp_Jm>  (686) 
0.23797413373717899

>  <r_qp_PISA>  (686) 
476.29500000000002

>  <r_qp_PSA>  (686) 
43.341000000000001

>  <r_qp_PercentHumanOralAbsorption>  (686) 
100

>  <r_qp_QPPCaco>  (686) 
1227.2539999999999

>  <r_qp_QPPMDCK>  (686) 
682.89999999999998

>  <r_qp_QPlogBB>  (686) 
0.36399999999999999

>  <r_qp_QPlogHERG>  (686) 
-6.9779999999999998

>  <r_qp_QPlogKhsa>  (686) 
0.70699999999999996

>  <r_qp_QPlogKp>  (686) 
-2.0150000000000001

>  <r_qp_QPlogPC16>  (686) 
13.526999999999999

>  <r_qp_QPlogPo/w>  (686) 
4.5739999999999998

>  <r_qp_QPlogPoct>  (686) 
19.579000000000001

>  <r_qp_QPlogPw>  (686) 
10.537000000000001

>  <r_qp_QPlogS>  (686) 
-4.1900000000000004

>  <r_qp_QPpolrz>  (686) 
44.732999999999997

>  <r_qp_SASA>  (686) 
657.05200000000002

>  <r_qp_SAamideO>  (686) 
0

>  <r_qp_SAfluorine>  (686) 
0

>  <r_qp_WPSA>  (686) 
0

>  <r_qp_accptHB>  (686) 
5.5

>  <r_qp_dip^2/V>  (686) 
0.024241700000000001

>  <r_qp_dipole>  (686) 
5.4779999999999998

>  <r_qp_donorHB>  (686) 
1

>  <r_qp_glob>  (686) 
0.84866870000000005

>  <r_qp_mol_MW>  (686) 
381.476

>  <r_qp_volume>  (686) 
1238.1110000000001

>  <r_sd_BIOSOLVEIT.INFINISEE\_FTREES\_SIMILARITY>  (686) 
0.90500000000000003

>  <r_sd_BIOSOLVEIT.LOGP>  (686) 
3.7986

>  <r_sd_BIOSOLVEIT.MOLECULAR\_WEIGHT>  (686) 
382.48500000000001

>  <r_sd_BIOSOLVEIT.TPSA>  (686) 
46.43

>  <i_epik_Tot_Q>  (686) 
1

>  <i_epik_Tot_abs_Q>  (686) 
1

>  <i_f3d_flags>  (686) 
0

>  <i_i_glide_confnum>  (686) 
6

>  <i_i_glide_lignum>  (686) 
1423

>  <i_i_glide_posenum>  (686) 
10

>  <i_i_glide_rotatable_bonds>  (686) 
6

>  <i_lp_mmshare_version>  (686) 
65135

>  <i_m_ct_format>  (686) 
2

>  <i_m_source_file_index>  (686) 
2885

>  <i_qp_#NandO>  (686) 
4

>  <i_qp_#acid>  (686) 
0

>  <i_qp_#amide>  (686) 
0

>  <i_qp_#amidine>  (686) 
0

>  <i_qp_#amine>  (686) 
1

>  <i_qp_#in34>  (686) 
0

>  <i_qp_#in56>  (686) 
22

>  <i_qp_#metab>  (686) 
3

>  <i_qp_#nonHatm>  (686) 
29

>  <i_qp_#noncon>  (686) 
0

>  <i_qp_#ringatoms>  (686) 
22

>  <i_qp_#rotor>  (686) 
5

>  <i_qp_#rtvFG>  (686) 
0

>  <i_qp_#stars>  (686) 
1

>  <i_qp_CNS>  (686) 
1

>  <i_qp_HumanOralAbsorption>  (686) 
3

>  <i_qp_RuleOfFive>  (686) 
0

>  <i_qp_RuleOfThree>  (686) 
0

>  <i_sd_BIOSOLVEIT.INFINISEE\_RESULT\_RANK>  (686) 
73089

>  <i_sd_version>  (686) 
0

>  <b_lp_Chiralities_Consistent>  (686) 
1

>  <b_sd_chiral_flag>  (686) 
0

>  <canonical_id>  (686) 
ATP-HTVS-6A7606C4C92F

>  <compound_code>  (686) 
92290

>  <title>  (686) 
rxn501b____EMOL5415347____EMOL13728749____EMOL530468

>  <variant>  (686) 
92290-1

>  <source_file>  (686) 
运行/运行/ATP-VSW/ATP-VSW-DOCK_HTVS_1-002_lib.maegz

>  <canonical_smiles>  (686) 
C[NH+](C)Cc1ccccc1C(=O)Nc1c(-c2ccccc2)cnc2ccccc12

>  <scaffold>  (686) 
O=C(Nc1c(-c2ccccc2)cnc2ccccc12)c1ccccc1

>  <molecular_formula>  (686) 
C25H24N3O+

$$$$
ATP-HTVS-6A9F3E67E2B3
     RDKit          3D

 56 58  0  0  0  0  0  0  0  0999 V2000
  198.7466  175.8391  148.0888 Cl  0  0  0  0  0  0  0  0  0  0  0  0
  199.6077  176.3454  149.4897 C   0  0  0  0  0  0  0  0  0  0  0  0
  199.2419  175.8686  150.7611 C   0  0  0  0  0  0  0  0  0  0  0  0
  199.9584  176.2796  151.9013 C   0  0  0  0  0  0  0  0  0  0  0  0
  201.0501  177.1848  151.7998 C   0  0  0  0  0  0  0  0  0  0  0  0
  201.7759  177.5880  152.9882 N   0  0  0  0  0  0  0  0  0  0  0  0
  200.9589  177.7673  154.1581 C   0  0  0  0  0  0  0  0  0  0  0  0
  201.2289  177.0321  155.7476 S   0  0  0  0  0  0  0  0  0  0  0  0
  199.8251  177.8774  156.3451 C   0  0  0  0  0  0  0  0  0  0  0  0
  199.1539  178.5149  155.3285 C   0  0  0  0  0  0  0  0  0  0  0  0
  199.8380  178.5012  154.1083 N   0  0  0  0  0  0  0  0  0  0  0  0
  197.8196  179.1618  155.4283 C   0  0  1  0  0  0  0  0  0  0  0  0
  197.8872  180.2395  156.4277 N   0  0  1  0  0  0  0  0  0  0  0  0
  198.0650  181.5882  155.8531 C   0  0  1  0  0  0  0  0  0  0  0  0
  198.2072  182.6460  156.9425 C   0  0  0  0  0  0  0  0  0  0  0  0
  197.0903  183.2444  157.5850 C   0  0  0  0  0  0  0  0  0  0  0  0
  197.3100  184.2285  158.5760 C   0  0  0  0  0  0  0  0  0  0  0  0
  198.6126  184.5883  158.9617 C   0  0  0  0  0  0  0  0  0  0  0  0
  199.7161  183.9828  158.3345 C   0  0  0  0  0  0  0  0  0  0  0  0
  199.5143  183.0232  157.3266 C   0  0  0  0  0  0  0  0  0  0  0  0
  195.6459  182.8531  157.2957 C   0  0  1  0  0  0  0  0  0  0  0  0
  195.1002  181.7672  158.1534 N   0  0  2  0  0  0  0  0  0  0  0  0
  193.6471  181.5498  157.9978 C   0  0  2  0  0  0  0  0  0  0  0  0
  195.4785  181.8741  159.5703 C   0  0  2  0  0  0  0  0  0  0  0  0
  203.1370  177.7177  153.0052 C   0  0  0  0  0  0  0  0  0  0  0  0
  203.8526  177.4620  152.0343 O   0  0  0  0  0  0  0  0  0  0  0  0
  203.8708  178.1632  154.2757 C   0  0  2  0  0  0  0  0  0  0  0  0
  201.3806  177.6786  150.5087 C   0  0  0  0  0  0  0  0  0  0  0  0
  200.6773  177.2484  149.3650 C   0  0  0  0  0  0  0  0  0  0  0  0
  197.0285  180.1307  156.9540 H   0  0  0  0  0  0  0  0  0  0  0  0
  198.4145  175.1791  150.8639 H   0  0  0  0  0  0  0  0  0  0  0  0
  199.6593  175.8808  152.8588 H   0  0  0  0  0  0  0  0  0  0  0  0
  199.5386  177.7875  157.3770 H   0  0  0  0  0  0  0  0  0  0  0  0
  197.4553  179.5254  154.4645 H   0  0  0  0  0  0  0  0  0  0  0  0
  197.0778  178.4353  155.7574 H   0  0  0  0  0  0  0  0  0  0  0  0
  198.9666  181.6011  155.2319 H   0  0  0  0  0  0  0  0  0  0  0  0
  197.2506  181.8197  155.1626 H   0  0  0  0  0  0  0  0  0  0  0  0
  196.4716  184.6828  159.0840 H   0  0  0  0  0  0  0  0  0  0  0  0
  198.7599  185.3185  159.7470 H   0  0  0  0  0  0  0  0  0  0  0  0
  200.7170  184.2636  158.6266 H   0  0  0  0  0  0  0  0  0  0  0  0
  200.3735  182.5723  156.8545 H   0  0  0  0  0  0  0  0  0  0  0  0
  195.0315  183.7435  157.4306 H   0  0  0  0  0  0  0  0  0  0  0  0
  195.5760  182.5369  156.2627 H   0  0  0  0  0  0  0  0  0  0  0  0
  193.0841  182.4333  158.3026 H   0  0  0  0  0  0  0  0  0  0  0  0
  193.3286  180.6950  158.5974 H   0  0  0  0  0  0  0  0  0  0  0  0
  193.3743  181.2971  156.9743 H   0  0  0  0  0  0  0  0  0  0  0  0
  195.1019  182.8049  159.9993 H   0  0  0  0  0  0  0  0  0  0  0  0
  196.5582  181.8413  159.6857 H   0  0  0  0  0  0  0  0  0  0  0  0
  195.0825  181.0298  160.1326 H   0  0  0  0  0  0  0  0  0  0  0  0
  203.3482  178.9570  154.8050 H   0  0  0  0  0  0  0  0  0  0  0  0
  204.8791  178.5401  154.0435 H   0  0  0  0  0  0  0  0  0  0  0  0
  204.0028  177.3004  154.9163 H   0  0  0  0  0  0  0  0  0  0  0  0
  202.1856  178.3845  150.3627 H   0  0  0  0  0  0  0  0  0  0  0  0
  200.9611  177.6081  148.3881 H   0  0  0  0  0  0  0  0  0  0  0  0
  195.4843  180.8829  157.8623 H   0  0  0  0  0  0  0  0  0  0  0  0
  198.6460  180.0144  157.0575 H   0  0  0  0  0  0  0  0  0  0  0  0
  1  2  1  0
  2  3  1  0
  2 29  2  0
  3  4  2  0
  3 31  1  0
  4  5  1  0
  4 32  1  0
  5  6  1  0
  5 28  2  0
  6  7  1  0
  6 25  1  0
  7  8  1  0
  7 11  2  0
  8  9  1  0
  9 10  2  0
  9 33  1  0
 10 11  1  0
 10 12  1  0
 12 13  1  0
 12 34  1  6
 12 35  1  0
 13 14  1  0
 13 30  1  1
 13 56  1  0
 14 15  1  0
 14 36  1  6
 14 37  1  0
 15 16  1  0
 15 20  2  0
 16 17  2  0
 16 21  1  0
 17 18  1  0
 17 38  1  0
 18 19  2  0
 18 39  1  0
 19 20  1  0
 19 40  1  0
 20 41  1  0
 21 22  1  0
 21 42  1  6
 21 43  1  0
 22 23  1  0
 22 24  1  0
 22 55  1  6
 23 44  1  1
 23 45  1  0
 23 46  1  0
 24 47  1  1
 24 48  1  0
 24 49  1  0
 25 26  2  0
 25 27  1  0
 27 50  1  1
 27 51  1  0
 27 52  1  0
 28 29  1  0
 28 53  1  0
 29 54  1  0
M  CHG  2  13   1  22   1
M  END
>  <s_epik_cmdline>  (687) 
J2VwaWtfcHl0aG9uJywgJy1waCcsICc3LjAwMDAwMCcsICctcGh0JywgJzIuMDAwMDAwJywgJy1tcycsICcxNicsICctdG4nLCAnOCcsICctbWEnLCAnMjAwJywgJy1pbWFlJywgJzxpbmZpbGUubWFlPicsICctb21hZScsICc8b3V0ZmlsZS5tYWU+Jw==

>  <s_epik_input>  (687) 
Q2xjMVtjSF1bY0hdYyhbY0hdW2NIXTEpTihDKD1PKVtDSDNdKWMyc1tjSF1jKG4yKVtDSDJdW05IXVtDSDJdYzNjKFtDSDJdTihbQ0gzXSlbQ0gzXSlbY0hdW2NIXVtjSF1bY0hdMw==

>  <s_i_glide_gridfile>  (687) 
ATP-Grid

>  <s_lp_Force_Field>  (687) 
OPLS_2005

>  <s_lp_Variant>  (687) 
m_270004bbb____8353320____7548974-1

>  <s_lp_label>  (687) 
1011_sdstereoexpander_1_neutralizer_1_epik_1_stereoizer_1

>  <s_m_source_file>  (687) 
ATP-VSW-LIGPREP-001-in.maegz

>  <s_sd_BIOSOLVEIT.INFINISEE\_QUERY\_NAME>  (687) 
Ref-Lig

>  <s_sd_BIOSOLVEIT.INFINISEE\_QUERY\_SMILES>  (687) 
S(c1nc2c(cc1C[NH2+]Cc3ccc(cc3)C[NH+](C)C)cccc2)Cc4ccccc4

>  <s_sd_BIOSOLVEIT.INFINISEE\_REACTION\_NAME>  (687) 
m_270004bbb

>  <s_sd_BIOSOLVEIT.INFINISEE\_REAGENT1\_SMILES>  (687) 
[R1*]NCc1c(cccc1)CN(C)C

>  <s_sd_BIOSOLVEIT.INFINISEE\_REAGENT2\_SMILES>  (687) 
[R1*]CC=1N=C(SC1)N(c2ccc(Cl)cc2)C(=O)C

>  <s_sd_BIOSOLVEIT.INFINISEE\_SPACE>  (687) 
REALSpace_44bn_2023-08

>  <s_vsw_compound_code>  (687) 
32321

>  <s_vsw_variant>  (687) 
32321-1

>  <r_epik_Charging_Adjusted_Penalty>  (687) 
0.49843931718293

>  <r_epik_Ionization_Penalty>  (687) 
0.25130000000000002

>  <r_epik_Ionization_Penalty_Charging>  (687) 
0.25130000000000002

>  <r_epik_Ionization_Penalty_Neutral>  (687) 
0

>  <r_epik_State_Penalty>  (687) 
0.24709999999999999

>  <r_i_docking_score>  (687) 
-5.2438445538612699

>  <r_i_glide_ecoul>  (687) 
-17.575504302978501

>  <r_i_glide_eff_state_penalty>  (687) 
0.24709999999999999

>  <r_i_glide_einternal>  (687) 
3.8728475570678702

>  <r_i_glide_emodel>  (687) 
-68.788072107887103

>  <r_i_glide_energy>  (687) 
-43.146909713745103

>  <r_i_glide_erotb>  (687) 
0.74937990826423195

>  <r_i_glide_esite>  (687) 
-0.20001044319312

>  <r_i_glide_evdw>  (687) 
-25.571405410766602

>  <r_i_glide_gscore>  (687) 
-5.4909445538612696

>  <r_i_glide_hbond>  (687) 
-0.40000000000000002

>  <r_i_glide_ligand_efficiency>  (687) 
-0.180822225995216

>  <r_i_glide_ligand_efficiency_ln>  (687) 
-1.20070743040952

>  <r_i_glide_ligand_efficiency_sa>  (687) 
-0.55554316675951199

>  <r_i_glide_lipo>  (687) 
-0.80492728476545705

>  <r_i_glide_metal>  (687) 
-0

>  <r_i_glide_rewards>  (687) 
-0.92049081818181699

>  <r_lp_Energy>  (687) 
34.229294000000003

>  <r_lp_tautomer_probability>  (687) 
1

>  <r_qp_ACxDN^.5/SA>  (687) 
0.0119729

>  <r_qp_CIQPlogS>  (687) 
-3.6469999999999998

>  <r_qp_EA(eV)>  (687) 
1.117

>  <r_qp_FISA>  (687) 
46.593000000000004

>  <r_qp_FOSA>  (687) 
246.72800000000001

>  <r_qp_IP(eV)>  (687) 
8.6229999999999993

>  <r_qp_Jm>  (687) 
0.050832169026788901

>  <r_qp_PISA>  (687) 
277.505

>  <r_qp_PSA>  (687) 
55.707999999999998

>  <r_qp_PercentHumanOralAbsorption>  (687) 
89.028000000000006

>  <r_qp_QPPCaco>  (687) 
222.77199999999999

>  <r_qp_QPPMDCK>  (687) 
407.87099999999998

>  <r_qp_QPlogBB>  (687) 
0.69899999999999995

>  <r_qp_QPlogHERG>  (687) 
-6.5449999999999999

>  <r_qp_QPlogKhsa>  (687) 
0.24399999999999999

>  <r_qp_QPlogKp>  (687) 
-4.758

>  <r_qp_QPlogPC16>  (687) 
13.459

>  <r_qp_QPlogPo/w>  (687) 
3.4260000000000002

>  <r_qp_QPlogPoct>  (687) 
20.751999999999999

>  <r_qp_QPlogPw>  (687) 
11.146000000000001

>  <r_qp_QPlogS>  (687) 
-2.169

>  <r_qp_QPpolrz>  (687) 
43.351999999999997

>  <r_qp_SASA>  (687) 
668.178

>  <r_qp_SAamideO>  (687) 
0

>  <r_qp_SAfluorine>  (687) 
0

>  <r_qp_WPSA>  (687) 
97.352999999999994

>  <r_qp_accptHB>  (687) 
8

>  <r_qp_dip^2/V>  (687) 
0.031406999999999997

>  <r_qp_dipole>  (687) 
6.3879999999999999

>  <r_qp_donorHB>  (687) 
1

>  <r_qp_glob>  (687) 
0.86175409999999997

>  <r_qp_mol_MW>  (687) 
428.97899999999998

>  <r_qp_volume>  (687) 
1299.1690000000001

>  <r_sd_BIOSOLVEIT.INFINISEE\_FTREES\_SIMILARITY>  (687) 
0.91600000000000004

>  <r_sd_BIOSOLVEIT.LOGP>  (687) 
2.3892000000000002

>  <r_sd_BIOSOLVEIT.TPSA>  (687) 
54.25

>  <i_epik_Tot_Q>  (687) 
2

>  <i_epik_Tot_abs_Q>  (687) 
2

>  <i_f3d_flags>  (687) 
0

>  <i_i_glide_confnum>  (687) 
6

>  <i_i_glide_lignum>  (687) 
213

>  <i_i_glide_posenum>  (687) 
12

>  <i_i_glide_rotatable_bonds>  (687) 
9

>  <i_lp_mmshare_version>  (687) 
65135

>  <i_m_ct_format>  (687) 
2

>  <i_m_source_file_index>  (687) 
1011

>  <i_qp_#NandO>  (687) 
5

>  <i_qp_#acid>  (687) 
0

>  <i_qp_#amide>  (687) 
0

>  <i_qp_#amidine>  (687) 
0

>  <i_qp_#amine>  (687) 
2

>  <i_qp_#in34>  (687) 
0

>  <i_qp_#in56>  (687) 
17

>  <i_qp_#metab>  (687) 
6

>  <i_qp_#nonHatm>  (687) 
29

>  <i_qp_#noncon>  (687) 
0

>  <i_qp_#ringatoms>  (687) 
17

>  <i_qp_#rotor>  (687) 
8

>  <i_qp_#rtvFG>  (687) 
0

>  <i_qp_#stars>  (687) 
0

>  <i_qp_CNS>  (687) 
2

>  <i_qp_HumanOralAbsorption>  (687) 
3

>  <i_qp_RuleOfFive>  (687) 
0

>  <i_qp_RuleOfThree>  (687) 
0

>  <i_sd_BIOSOLVEIT.INFINISEE\_REAGENT1\_NAME>  (687) 
8353320

>  <i_sd_BIOSOLVEIT.INFINISEE\_REAGENT2\_NAME>  (687) 
7548974

>  <i_sd_BIOSOLVEIT.INFINISEE\_RESULT\_RANK>  (687) 
26721

>  <i_sd_BIOSOLVEIT.MOLECULAR\_WEIGHT>  (687) 
431

>  <i_sd_version>  (687) 
0

>  <b_lp_Chiralities_Consistent>  (687) 
1

>  <b_sd_chiral_flag>  (687) 
0

>  <canonical_id>  (687) 
ATP-HTVS-6A9F3E67E2B3

>  <compound_code>  (687) 
32321

>  <title>  (687) 
m_270004bbb____8353320____7548974

>  <variant>  (687) 
32321-1

>  <source_file>  (687) 
运行/运行/ATP-VSW/ATP-VSW-DOCK_HTVS_1-001_lib/ATP-VSW-DOCK_HTVS_1-001_lib

>  <canonical_smiles>  (687) 
CC(=O)N(c1ccc(Cl)cc1)c1nc(C[NH2+]Cc2ccccc2C[NH+](C)C)cs1

>  <scaffold>  (687) 
c1ccc(C[NH2+]Cc2csc(Nc3ccccc3)n2)cc1

>  <molecular_formula>  (687) 
C22H27ClN4OS+2

$$$$
ATP-HTVS-6AEF3DDEB613
     RDKit          3D

 63 66  0  0  0  0  0  0  0  0999 V2000
  196.7464  181.1400  151.9180 O   0  0  0  0  0  0  0  0  0  0  0  0
  197.3429  182.2003  152.1596 C   0  0  0  0  0  0  0  0  0  0  0  0
  197.4557  183.3135  151.1726 C   0  0  0  0  0  0  0  0  0  0  0  0
  197.0868  183.0732  149.8313 C   0  0  0  0  0  0  0  0  0  0  0  0
  197.1510  184.1146  148.8819 C   0  0  0  0  0  0  0  0  0  0  0  0
  197.5891  185.3888  149.2698 C   0  0  0  0  0  0  0  0  0  0  0  0
  197.9601  185.6363  150.5982 C   0  0  0  0  0  0  0  0  0  0  0  0
  197.8894  184.6122  151.5579 C   0  0  0  0  0  0  0  0  0  0  0  0
  198.0698  182.3880  153.4978 C   0  0  1  0  0  0  0  0  0  0  0  0
  198.0293  181.2785  154.4526 N   0  0  0  0  0  0  0  0  0  0  0  0
  198.8219  180.1481  154.2233 C   0  0  0  0  0  0  0  0  0  0  0  0
  198.5559  179.2687  155.2939 C   0  0  0  0  0  0  0  0  0  0  0  0
  197.6331  179.8996  156.1302 N   0  0  0  0  0  0  0  0  0  0  0  0
  197.3387  181.1142  155.6046 C   0  0  0  0  0  0  0  0  0  0  0  0
  196.4860  182.0698  156.1685 N   0  0  0  0  0  0  0  0  0  0  0  0
  195.8275  181.7941  157.4378 C   0  0  1  0  0  0  0  0  0  0  0  0
  195.5886  183.0159  158.2985 C   0  0  0  0  0  0  0  0  0  0  0  0
  196.6487  183.9019  158.5741 C   0  0  0  0  0  0  0  0  0  0  0  0
  196.4484  185.0007  159.4302 C   0  0  0  0  0  0  0  0  0  0  0  0
  195.1827  185.2174  160.0097 C   0  0  0  0  0  0  0  0  0  0  0  0
  194.1200  184.3461  159.7217 C   0  0  0  0  0  0  0  0  0  0  0  0
  194.3227  183.2412  158.8750 C   0  0  0  0  0  0  0  0  0  0  0  0
  197.6148  185.9017  159.7546 C   0  0  1  0  0  0  0  0  0  0  0  0
  197.7438  187.0885  158.9056 N   0  0  0  0  0  0  0  0  0  0  0  0
  199.0269  187.7781  159.0841 C   0  0  1  0  0  0  0  0  0  0  0  0
  200.2535  186.9397  158.7081 C   0  0  2  0  0  0  0  0  0  0  0  0
  196.6317  188.0398  159.0731 C   0  0  1  0  0  0  0  0  0  0  0  0
  196.4829  188.6385  160.4993 C   0  0  2  0  0  0  0  0  0  0  0  0
  199.1572  178.0196  155.3992 C   0  0  0  0  0  0  0  0  0  0  0  0
  200.0596  177.6666  154.3686 C   0  0  0  0  0  0  0  0  0  0  0  0
  200.3361  178.5458  153.3036 C   0  0  0  0  0  0  0  0  0  0  0  0
  199.7234  179.8146  153.2101 C   0  0  0  0  0  0  0  0  0  0  0  0
  196.7647  182.0855  149.5142 H   0  0  0  0  0  0  0  0  0  0  0  0
  196.8580  183.9363  147.8604 H   0  0  0  0  0  0  0  0  0  0  0  0
  197.6258  186.1589  148.5253 H   0  0  0  0  0  0  0  0  0  0  0  0
  198.2798  186.6145  150.8992 H   0  0  0  0  0  0  0  0  0  0  0  0
  198.1769  184.8382  152.5686 H   0  0  0  0  0  0  0  0  0  0  0  0
  199.1134  182.6264  153.3037 H   0  0  0  0  0  0  0  0  0  0  0  0
  197.6381  183.2491  154.0064 H   0  0  0  0  0  0  0  0  0  0  0  0
  196.1106  182.8178  155.6008 H   0  0  0  0  0  0  0  0  0  0  0  0
  194.8757  181.2949  157.2467 H   0  0  0  0  0  0  0  0  0  0  0  0
  196.4305  181.1257  158.0544 H   0  0  0  0  0  0  0  0  0  0  0  0
  197.6235  183.7232  158.1405 H   0  0  0  0  0  0  0  0  0  0  0  0
  195.0115  186.0572  160.6603 H   0  0  0  0  0  0  0  0  0  0  0  0
  193.1437  184.5386  160.1349 H   0  0  0  0  0  0  0  0  0  0  0  0
  193.4991  182.5733  158.6556 H   0  0  0  0  0  0  0  0  0  0  0  0
  197.5430  186.1781  160.8007 H   0  0  0  0  0  0  0  0  0  0  0  0
  198.4919  185.2640  159.6660 H   0  0  0  0  0  0  0  0  0  0  0  0
  199.0143  188.6832  158.4716 H   0  0  0  0  0  0  0  0  0  0  0  0
  199.1661  188.0891  160.1168 H   0  0  0  0  0  0  0  0  0  0  0  0
  201.1505  187.5499  158.7892 H   0  0  0  0  0  0  0  0  0  0  0  0
  200.1858  186.5484  157.6944 H   0  0  0  0  0  0  0  0  0  0  0  0
  200.4020  186.1113  159.3972 H   0  0  0  0  0  0  0  0  0  0  0  0
  196.7370  188.8375  158.3337 H   0  0  0  0  0  0  0  0  0  0  0  0
  195.7005  187.5456  158.7909 H   0  0  0  0  0  0  0  0  0  0  0  0
  195.6573  189.3446  160.5406 H   0  0  0  0  0  0  0  0  0  0  0  0
  197.3675  189.1772  160.8360 H   0  0  0  0  0  0  0  0  0  0  0  0
  196.2713  187.8810  161.2496 H   0  0  0  0  0  0  0  0  0  0  0  0
  198.9278  177.3633  156.2270 H   0  0  0  0  0  0  0  0  0  0  0  0
  200.5455  176.7012  154.4036 H   0  0  0  0  0  0  0  0  0  0  0  0
  201.0373  178.2422  152.5348 H   0  0  0  0  0  0  0  0  0  0  0  0
  199.9307  180.4821  152.3887 H   0  0  0  0  0  0  0  0  0  0  0  0
  197.1631  179.4801  156.9356 H   0  0  0  0  0  0  0  0  0  0  0  0
  1  2  2  0
  2  3  1  0
  2  9  1  0
  3  4  2  0
  3  8  1  0
  4  5  1  0
  4 33  1  0
  5  6  2  0
  5 34  1  0
  6  7  1  0
  6 35  1  0
  7  8  2  0
  7 36  1  0
  8 37  1  0
  9 10  1  0
  9 38  1  6
  9 39  1  0
 10 11  1  0
 10 14  1  0
 11 12  1  0
 11 32  2  0
 12 13  1  0
 12 29  2  0
 13 14  2  0
 13 63  1  0
 14 15  1  0
 15 16  1  0
 15 40  1  0
 16 17  1  0
 16 41  1  6
 16 42  1  0
 17 18  2  0
 17 22  1  0
 18 19  1  0
 18 43  1  0
 19 20  2  0
 19 23  1  0
 20 21  1  0
 20 44  1  0
 21 22  2  0
 21 45  1  0
 22 46  1  0
 23 24  1  0
 23 47  1  1
 23 48  1  0
 24 25  1  0
 24 27  1  0
 25 26  1  0
 25 49  1  6
 25 50  1  0
 26 51  1  6
 26 52  1  0
 26 53  1  0
 27 28  1  0
 27 54  1  6
 27 55  1  0
 28 56  1  6
 28 57  1  0
 28 58  1  0
 29 30  1  0
 29 59  1  0
 30 31  2  0
 30 60  1  0
 31 32  1  0
 31 61  1  0
 32 62  1  0
M  CHG  1  13   1
M  END
>  <s_epik_cmdline>  (688) 
J2VwaWtfcHl0aG9uJywgJy1waCcsICc3LjAwMDAwMCcsICctcGh0JywgJzIuMDAwMDAwJywgJy1tcycsICcxNicsICctdG4nLCAnOCcsICctbWEnLCAnMjAwJywgJy1pbWFlJywgJzxpbmZpbGUubWFlPicsICctb21hZScsICc8b3V0ZmlsZS5tYWU+Jw==

>  <s_epik_input>  (688) 
W2NIXTFbY0hdW2NIXVtjSF1bY0hdYzFDKD1PKVtDSDJdbjJjKG5jKGMyMylbY0hdW2NIXVtjSF1bY0hdMylbTkhdW0NIMl1jNFtjSF1jKFtjSF1bY0hdW2NIXTQpW0NIMl1OKFtDSDJdW0NIM10pW0NIMl1bQ0gzXQ==

>  <s_i_glide_gridfile>  (688) 
ATP-Grid

>  <s_lp_Force_Field>  (688) 
OPLS_2005

>  <s_lp_Variant>  (688) 
m_27bbd____895130____24798446-3

>  <s_lp_label>  (688) 
769_sdstereoexpander_1_neutralizer_1_epik_3_stereoizer_1

>  <s_m_source_file>  (688) 
ATP-VSW-LIGPREP-001-in.maegz

>  <s_sd_BIOSOLVEIT.INFINISEE\_QUERY\_NAME>  (688) 
Ref-Lig

>  <s_sd_BIOSOLVEIT.INFINISEE\_QUERY\_SMILES>  (688) 
S(c1nc2c(cc1C[NH2+]Cc3ccc(cc3)C[NH+](C)C)cccc2)Cc4ccccc4

>  <s_sd_BIOSOLVEIT.INFINISEE\_REACTION\_NAME>  (688) 
m_27bbd

>  <s_sd_BIOSOLVEIT.INFINISEE\_REAGENT1\_SMILES>  (688) 
[R1*]NCc1cc(ccc1)CN(CC)CC

>  <s_sd_BIOSOLVEIT.INFINISEE\_REAGENT2\_SMILES>  (688) 
[R1*]C1=Nc2c(N1CC(=O)c3ccccc3)cccc2

>  <s_sd_BIOSOLVEIT.INFINISEE\_SPACE>  (688) 
REALSpace_44bn_2023-08

>  <s_vsw_compound_code>  (688) 
24577

>  <s_vsw_variant>  (688) 
24577-3

>  <r_epik_Charging_Adjusted_Penalty>  (688) 
2.7967329016898299

>  <r_epik_Ionization_Penalty>  (688) 
2.4376000000000002

>  <r_epik_Ionization_Penalty_Charging>  (688) 
0.3569

>  <r_epik_Ionization_Penalty_Neutral>  (688) 
2.0807000000000002

>  <r_epik_State_Penalty>  (688) 
2.4398

>  <r_i_docking_score>  (688) 
-2.4493197885857199

>  <r_i_glide_ecoul>  (688) 
-4.65557909011841

>  <r_i_glide_eff_state_penalty>  (688) 
2.4398

>  <r_i_glide_einternal>  (688) 
4.2459335327148402

>  <r_i_glide_emodel>  (688) 
-56.363379639937897

>  <r_i_glide_energy>  (688) 
-39.274113178253202

>  <r_i_glide_erotb>  (688) 
0.86893014298694604

>  <r_i_glide_esite>  (688) 
-0.25432397929495598

>  <r_i_glide_evdw>  (688) 
-34.618534088134801

>  <r_i_glide_gscore>  (688) 
-4.8891197885857203

>  <r_i_glide_hbond>  (688) 
-0.32966086823933299

>  <r_i_glide_ligand_efficiency>  (688) 
-0.076541243393303898

>  <r_i_glide_ligand_efficiency_ln>  (688) 
-0.54846946660015405

>  <r_i_glide_ligand_efficiency_sa>  (688) 
-0.24300330028224101

>  <r_i_glide_lipo>  (688) 
-2.02590087975025

>  <r_i_glide_metal>  (688) 
-0

>  <r_i_glide_rewards>  (688) 
-0.71890063636363399

>  <r_lp_Energy>  (688) 
35.526339

>  <r_qp_ACxDN^.5/SA>  (688) 
0.0086426000000000003

>  <r_qp_CIQPlogS>  (688) 
-5.6980000000000004

>  <r_qp_EA(eV)>  (688) 
0.879

>  <r_qp_FISA>  (688) 
49.683999999999997

>  <r_qp_FOSA>  (688) 
281.017

>  <r_qp_IP(eV)>  (688) 
8.2110000000000003

>  <r_qp_Jm>  (688) 
0.33630247925098

>  <r_qp_PISA>  (688) 
363.53500000000003

>  <r_qp_PSA>  (688) 
51.942

>  <r_qp_PercentHumanOralAbsorption>  (688) 
100

>  <r_qp_QPPCaco>  (688) 
834.91800000000001

>  <r_qp_QPPMDCK>  (688) 
450.33499999999998

>  <r_qp_QPlogBB>  (688) 
-0.096000000000000002

>  <r_qp_QPlogHERG>  (688) 
-6.3739999999999997

>  <r_qp_QPlogKhsa>  (688) 
0.71099999999999997

>  <r_qp_QPlogKp>  (688) 
-2.2570000000000001

>  <r_qp_QPlogPC16>  (688) 
13.882999999999999

>  <r_qp_QPlogPo/w>  (688) 
4.8479999999999999

>  <r_qp_QPlogPoct>  (688) 
19.734999999999999

>  <r_qp_QPlogPw>  (688) 
9.3689999999999998

>  <r_qp_QPlogS>  (688) 
-3.8460000000000001

>  <r_qp_QPpolrz>  (688) 
45.103000000000002

>  <r_qp_SASA>  (688) 
694.23599999999999

>  <r_qp_SAamideO>  (688) 
0

>  <r_qp_SAfluorine>  (688) 
0

>  <r_qp_WPSA>  (688) 
0

>  <r_qp_accptHB>  (688) 
6

>  <r_qp_dip^2/V>  (688) 
0.020830000000000001

>  <r_qp_dipole>  (688) 
5.3120000000000003

>  <r_qp_donorHB>  (688) 
1

>  <r_qp_glob>  (688) 
0.85278120000000002

>  <r_qp_mol_MW>  (688) 
426.56

>  <r_qp_volume>  (688) 
1354.472

>  <r_sd_BIOSOLVEIT.INFINISEE\_FTREES\_SIMILARITY>  (688) 
0.92500000000000004

>  <r_sd_BIOSOLVEIT.LOGP>  (688) 
3.956

>  <r_sd_BIOSOLVEIT.MOLECULAR\_WEIGHT>  (688) 
427.56900000000002

>  <r_sd_BIOSOLVEIT.TPSA>  (688) 
51.359999999999999

>  <i_epik_Tot_Q>  (688) 
1

>  <i_epik_Tot_abs_Q>  (688) 
1

>  <i_f3d_flags>  (688) 
0

>  <i_i_glide_confnum>  (688) 
9

>  <i_i_glide_lignum>  (688) 
117

>  <i_i_glide_posenum>  (688) 
10

>  <i_i_glide_rotatable_bonds>  (688) 
10

>  <i_lp_mmshare_version>  (688) 
65135

>  <i_m_ct_format>  (688) 
2

>  <i_m_source_file_index>  (688) 
769

>  <i_qp_#NandO>  (688) 
5

>  <i_qp_#acid>  (688) 
0

>  <i_qp_#amide>  (688) 
0

>  <i_qp_#amidine>  (688) 
0

>  <i_qp_#amine>  (688) 
1

>  <i_qp_#in34>  (688) 
0

>  <i_qp_#in56>  (688) 
21

>  <i_qp_#metab>  (688) 
4

>  <i_qp_#nonHatm>  (688) 
32

>  <i_qp_#noncon>  (688) 
0

>  <i_qp_#ringatoms>  (688) 
21

>  <i_qp_#rotor>  (688) 
10

>  <i_qp_#rtvFG>  (688) 
0

>  <i_qp_#stars>  (688) 
0

>  <i_qp_CNS>  (688) 
1

>  <i_qp_HumanOralAbsorption>  (688) 
3

>  <i_qp_RuleOfFive>  (688) 
0

>  <i_qp_RuleOfThree>  (688) 
0

>  <i_sd_BIOSOLVEIT.INFINISEE\_REAGENT1\_NAME>  (688) 
895130

>  <i_sd_BIOSOLVEIT.INFINISEE\_REAGENT2\_NAME>  (688) 
24798446

>  <i_sd_BIOSOLVEIT.INFINISEE\_RESULT\_RANK>  (688) 
9190

>  <i_sd_version>  (688) 
0

>  <b_lp_Chiralities_Consistent>  (688) 
1

>  <b_sd_chiral_flag>  (688) 
0

>  <canonical_id>  (688) 
ATP-HTVS-6AEF3DDEB613

>  <compound_code>  (688) 
24577

>  <title>  (688) 
m_27bbd____895130____24798446

>  <variant>  (688) 
24577-3

>  <source_file>  (688) 
运行/运行/ATP-VSW/ATP-VSW-DOCK_HTVS_1-001_lib/ATP-VSW-DOCK_HTVS_1-001_lib

>  <canonical_smiles>  (688) 
CCN(CC)Cc1cccc(CNc2[nH+]c3ccccc3n2CC(=O)c2ccccc2)c1

>  <scaffold>  (688) 
O=C(Cn1c(NCc2ccccc2)[nH+]c2ccccc21)c1ccccc1

>  <molecular_formula>  (688) 
C27H31N4O+

$$$$
ATP-HTVS-6B0687E57A6A
     RDKit          3D

 51 54  0  0  0  0  0  0  0  0999 V2000
  198.9840  179.2596  152.7800 O   0  0  0  0  0  0  0  0  0  0  0  0
  198.2760  179.0264  151.6520 C   0  0  0  0  0  0  0  0  0  0  0  0
  197.0883  179.7657  151.7339 C   0  0  0  0  0  0  0  0  0  0  0  0
  196.3202  179.8552  150.5457 C   0  0  0  0  0  0  0  0  0  0  0  0
  196.7283  179.1636  149.3708 C   0  0  0  0  0  0  0  0  0  0  0  0
  197.8724  178.3260  149.3868 C   0  0  0  0  0  0  0  0  0  0  0  0
  198.6398  178.2425  150.5609 C   0  0  0  0  0  0  0  0  0  0  0  0
  197.0227  180.3009  153.0901 C   0  0  0  0  0  0  0  0  0  0  0  0
  198.1581  179.8078  153.7134 C   0  0  0  0  0  0  0  0  0  0  0  0
  198.6856  179.8609  155.1252 C   0  0  1  0  0  0  0  0  0  0  0  0
  197.5637  180.0877  156.0854 N   0  0  1  0  0  0  0  0  0  0  0  0
  197.7509  181.1919  157.0580 C   0  0  1  0  0  0  0  0  0  0  0  0
  197.0909  182.4886  156.5549 C   0  0  1  0  0  0  0  0  0  0  0  0
  196.9727  183.5421  157.6460 C   0  0  0  0  0  0  0  0  0  0  0  0
  195.9738  183.4466  158.6529 C   0  0  0  0  0  0  0  0  0  0  0  0
  195.9041  184.4419  159.6555 C   0  0  0  0  0  0  0  0  0  0  0  0
  196.8061  185.5233  159.6575 C   0  0  0  0  0  0  0  0  0  0  0  0
  197.7871  185.6197  158.6539 C   0  0  0  0  0  0  0  0  0  0  0  0
  197.8721  184.6317  157.6543 C   0  0  0  0  0  0  0  0  0  0  0  0
  194.9674  182.2956  158.6958 C   0  0  1  0  0  0  0  0  0  0  0  0
  193.7257  182.6267  158.1045 O   0  0  0  0  0  0  0  0  0  0  0  0
  199.5706  178.6628  155.6031 C   0  0  0  0  0  0  0  0  0  0  0  0
  199.9982  178.6174  156.9612 C   0  0  0  0  0  0  0  0  0  0  0  0
  200.7997  177.5446  157.4289 C   0  0  0  0  0  0  0  0  0  0  0  0
  201.2278  176.5233  156.5489 C   0  0  0  0  0  0  0  0  0  0  0  0
  200.8317  176.5738  155.2126 C   0  0  0  0  0  0  0  0  0  0  0  0
  200.0043  177.5875  154.7750 C   0  0  0  0  0  0  0  0  0  0  0  0
  196.7137  180.2780  155.5695 H   0  0  0  0  0  0  0  0  0  0  0  0
  195.4366  180.5134  150.5377 H   0  0  0  0  0  0  0  0  0  0  0  0
  196.1507  179.2645  148.4636 H   0  0  0  0  0  0  0  0  0  0  0  0
  198.1826  177.7940  148.4763 H   0  0  0  0  0  0  0  0  0  0  0  0
  199.5251  177.6369  150.5830 H   0  0  0  0  0  0  0  0  0  0  0  0
  196.2474  180.9750  153.4989 H   0  0  0  0  0  0  0  0  0  0  0  0
  199.3135  180.7603  155.1539 H   0  0  0  0  0  0  0  0  0  0  0  0
  197.3292  180.8594  158.0006 H   0  0  0  0  0  0  0  0  0  0  0  0
  198.7989  181.3616  157.3057 H   0  0  0  0  0  0  0  0  0  0  0  0
  197.6928  182.8898  155.7350 H   0  0  0  0  0  0  0  0  0  0  0  0
  196.1004  182.3038  156.1352 H   0  0  0  0  0  0  0  0  0  0  0  0
  195.1560  184.3719  160.4312 H   0  0  0  0  0  0  0  0  0  0  0  0
  196.7481  186.2798  160.4259 H   0  0  0  0  0  0  0  0  0  0  0  0
  198.4759  186.4525  158.6491 H   0  0  0  0  0  0  0  0  0  0  0  0
  198.6324  184.7180  156.8910 H   0  0  0  0  0  0  0  0  0  0  0  0
  195.2947  181.4162  158.1691 H   0  0  0  0  0  0  0  0  0  0  0  0
  194.8400  181.9639  159.7286 H   0  0  0  0  0  0  0  0  0  0  0  0
  193.8149  182.6726  157.1495 H   0  0  0  0  0  0  0  0  0  0  0  0
  199.6962  179.3589  157.7089 H   0  0  0  0  0  0  0  0  0  0  0  0
  201.1024  177.4801  158.4623 H   0  0  0  0  0  0  0  0  0  0  0  0
  201.8581  175.6825  156.8559 H   0  0  0  0  0  0  0  0  0  0  0  0
  201.1183  175.8441  154.4671 H   0  0  0  0  0  0  0  0  0  0  0  0
  199.8165  177.3773  153.7441 H   0  0  0  0  0  0  0  0  0  0  0  0
  197.3774  179.2379  156.6242 H   0  0  0  0  0  0  0  0  0  0  0  0
  1  2  1  0
  1  9  1  0
  2  3  1  0
  2  7  2  0
  3  4  2  0
  3  8  1  0
  4  5  1  0
  4 29  1  0
  5  6  2  0
  5 30  1  0
  6  7  1  0
  6 31  1  0
  7 32  1  0
  8  9  2  0
  8 33  1  0
  9 10  1  0
 10 11  1  0
 10 22  1  0
 10 34  1  6
 11 12  1  0
 11 28  1  6
 11 51  1  0
 12 13  1  0
 12 35  1  1
 12 36  1  0
 13 14  1  0
 13 37  1  6
 13 38  1  0
 14 15  1  0
 14 19  2  0
 15 16  2  0
 15 20  1  0
 16 17  1  0
 16 39  1  0
 17 18  2  0
 17 40  1  0
 18 19  1  0
 18 41  1  0
 19 42  1  0
 20 21  1  0
 20 43  1  6
 20 44  1  0
 21 45  1  0
 22 23  2  0
 22 27  1  0
 23 24  1  0
 23 46  1  0
 24 25  2  0
 24 47  1  0
 25 26  1  0
 25 48  1  0
 26 27  2  0
 26 49  1  0
 27 50  1  0
M  CHG  1  11   1
M  END
>  <s_epik_cmdline>  (689) 
J2VwaWtfcHl0aG9uJywgJy1waCcsICc3LjAwMDAwMCcsICctcGh0JywgJzIuMDAwMDAwJywgJy1tcycsICcxNicsICctdG4nLCAnOCcsICctbWEnLCAnMjAwJywgJy1pbWFlJywgJzxpbmZpbGUubWFlPicsICctb21hZScsICc8b3V0ZmlsZS5tYWU+Jw==

>  <s_epik_input>  (689) 
W2NIXTFbY0hdW2NIXVtjSF1jKGMxMilbY0hdYyhvMilbQ0BIXShjM1tjSF1bY0hdW2NIXVtjSF1bY0hdMylbTkhdW0NIMl1bQ0gyXWM0YyhbQ0gyXVtPSF0pW2NIXVtjSF1bY0hdW2NIXTQ=

>  <s_i_glide_gridfile>  (689) 
ATP-Grid

>  <s_lp_Force_Field>  (689) 
OPLS_2005

>  <s_lp_Variant>  (689) 
m_2230beb____22393922____14187374-2

>  <s_lp_label>  (689) 
1228_sdstereoexpander_2_neutralizer_1_epik_1_stereoizer_1

>  <s_m_source_file>  (689) 
ATP-VSW-LIGPREP-001-in.maegz

>  <s_sd_BIOSOLVEIT.INFINISEE\_QUERY\_NAME>  (689) 
Ref-Lig

>  <s_sd_BIOSOLVEIT.INFINISEE\_QUERY\_SMILES>  (689) 
S(c1nc2c(cc1C[NH2+]Cc3ccc(cc3)C[NH+](C)C)cccc2)Cc4ccccc4

>  <s_sd_BIOSOLVEIT.INFINISEE\_REACTION\_NAME>  (689) 
m_2230beb

>  <s_sd_BIOSOLVEIT.INFINISEE\_REAGENT1\_SMILES>  (689) 
[R1*]NC(c1ccccc1)C=2Oc3c(cccc3)C2

>  <s_sd_BIOSOLVEIT.INFINISEE\_REAGENT2\_SMILES>  (689) 
[R1*]CCc1c(cccc1)CO

>  <s_sd_BIOSOLVEIT.INFINISEE\_SPACE>  (689) 
REALSpace_44bn_2023-08

>  <s_vsw_compound_code>  (689) 
39265

>  <s_vsw_variant>  (689) 
39265-2

>  <r_epik_Charging_Adjusted_Penalty>  (689) 
0.063539274150015396

>  <r_epik_Ionization_Penalty>  (689) 
0.031800000000000002

>  <r_epik_Ionization_Penalty_Charging>  (689) 
0.031800000000000002

>  <r_epik_Ionization_Penalty_Neutral>  (689) 
0

>  <r_epik_State_Penalty>  (689) 
0.031800000000000002

>  <r_i_docking_score>  (689) 
-6.0888013835978203

>  <r_i_glide_ecoul>  (689) 
-14.5650577545166

>  <r_i_glide_eff_state_penalty>  (689) 
0.031800000000000002

>  <r_i_glide_einternal>  (689) 
20.2861022949219

>  <r_i_glide_emodel>  (689) 
-61.016096114036301

>  <r_i_glide_energy>  (689) 
-45.438276290893597

>  <r_i_glide_erotb>  (689) 
1.04360797246086

>  <r_i_glide_esite>  (689) 
-0.10000000000000001

>  <r_i_glide_evdw>  (689) 
-30.873218536376999

>  <r_i_glide_gscore>  (689) 
-6.1206013835978199

>  <r_i_glide_hbond>  (689) 
-0.41090310313849798

>  <r_i_glide_ligand_efficiency>  (689) 
-0.225511162355475

>  <r_i_glide_ligand_efficiency_ln>  (689) 
-1.4173725803655

>  <r_i_glide_ligand_efficiency_sa>  (689) 
-0.676533486323176

>  <r_i_glide_lipo>  (689) 
-1.73479252656021

>  <r_i_glide_metal>  (689) 
-0

>  <r_i_glide_rewards>  (689) 
-1.1900941363636399

>  <r_lp_Energy>  (689) 
16.694033000000001

>  <r_qp_ACxDN^.5/SA>  (689) 
0.0076080000000000002

>  <r_qp_CIQPlogS>  (689) 
-5.1050000000000004

>  <r_qp_EA(eV)>  (689) 
0.255

>  <r_qp_FISA>  (689) 
60.389000000000003

>  <r_qp_FOSA>  (689) 
89.206999999999994

>  <r_qp_IP(eV)>  (689) 
8.8469999999999995

>  <r_qp_Jm>  (689) 
0.059364151105459402

>  <r_qp_PISA>  (689) 
538.17600000000004

>  <r_qp_PSA>  (689) 
42.841999999999999

>  <r_qp_PercentHumanOralAbsorption>  (689) 
100

>  <r_qp_QPPCaco>  (689) 
660.89700000000005

>  <r_qp_QPPMDCK>  (689) 
349.79700000000003

>  <r_qp_QPlogBB>  (689) 
-0.14999999999999999

>  <r_qp_QPlogHERG>  (689) 
-8.0730000000000004

>  <r_qp_QPlogKhsa>  (689) 
0.76700000000000002

>  <r_qp_QPlogKp>  (689) 
-2.0310000000000001

>  <r_qp_QPlogPC16>  (689) 
14.179

>  <r_qp_QPlogPo/w>  (689) 
4.8230000000000004

>  <r_qp_QPlogPoct>  (689) 
18.882000000000001

>  <r_qp_QPlogPw>  (689) 
10.255000000000001

>  <r_qp_QPlogS>  (689) 
-4.7489999999999997

>  <r_qp_QPpolrz>  (689) 
42.348999999999997

>  <r_qp_SASA>  (689) 
687.77099999999996

>  <r_qp_SAamideO>  (689) 
0

>  <r_qp_SAfluorine>  (689) 
0

>  <r_qp_WPSA>  (689) 
0

>  <r_qp_accptHB>  (689) 
3.7000000000000002

>  <r_qp_dip^2/V>  (689) 
0.0041079000000000003

>  <r_qp_dipole>  (689) 
2.2309999999999999

>  <r_qp_donorHB>  (689) 
2

>  <r_qp_glob>  (689) 
0.79927930000000003

>  <r_qp_mol_MW>  (689) 
357.45100000000002

>  <r_qp_volume>  (689) 
1211.8979999999999

>  <r_sd_BIOSOLVEIT.INFINISEE\_FTREES\_SIMILARITY>  (689) 
0.91100000000000003

>  <r_sd_BIOSOLVEIT.LOGP>  (689) 
3.8206000000000002

>  <r_sd_BIOSOLVEIT.MOLECULAR\_WEIGHT>  (689) 
358.459

>  <r_sd_BIOSOLVEIT.TPSA>  (689) 
49.979999999999997

>  <i_epik_Tot_Q>  (689) 
1

>  <i_epik_Tot_abs_Q>  (689) 
1

>  <i_f3d_flags>  (689) 
0

>  <i_i_glide_confnum>  (689) 
7

>  <i_i_glide_lignum>  (689) 
332

>  <i_i_glide_posenum>  (689) 
19

>  <i_i_glide_rotatable_bonds>  (689) 
8

>  <i_lp_mmshare_version>  (689) 
65135

>  <i_m_ct_format>  (689) 
2

>  <i_m_source_file_index>  (689) 
1228

>  <i_qp_#NandO>  (689) 
3

>  <i_qp_#acid>  (689) 
0

>  <i_qp_#amide>  (689) 
0

>  <i_qp_#amidine>  (689) 
0

>  <i_qp_#amine>  (689) 
1

>  <i_qp_#in34>  (689) 
0

>  <i_qp_#in56>  (689) 
21

>  <i_qp_#metab>  (689) 
6

>  <i_qp_#nonHatm>  (689) 
27

>  <i_qp_#noncon>  (689) 
0

>  <i_qp_#ringatoms>  (689) 
21

>  <i_qp_#rotor>  (689) 
8

>  <i_qp_#rtvFG>  (689) 
0

>  <i_qp_#stars>  (689) 
1

>  <i_qp_CNS>  (689) 
1

>  <i_qp_HumanOralAbsorption>  (689) 
3

>  <i_qp_RuleOfFive>  (689) 
0

>  <i_qp_RuleOfThree>  (689) 
0

>  <i_sd_BIOSOLVEIT.INFINISEE\_REAGENT1\_NAME>  (689) 
22393922

>  <i_sd_BIOSOLVEIT.INFINISEE\_REAGENT2\_NAME>  (689) 
14187374

>  <i_sd_BIOSOLVEIT.INFINISEE\_RESULT\_RANK>  (689) 
42112

>  <i_sd_version>  (689) 
0

>  <b_lp_Chiralities_Consistent>  (689) 
1

>  <b_sd_chiral_flag>  (689) 
0

>  <canonical_id>  (689) 
ATP-HTVS-6B0687E57A6A

>  <compound_code>  (689) 
39265

>  <title>  (689) 
m_2230beb____22393922____14187374

>  <variant>  (689) 
39265-2

>  <source_file>  (689) 
运行/运行/ATP-VSW/ATP-VSW-DOCK_HTVS_1-001_lib/ATP-VSW-DOCK_HTVS_1-001_lib

>  <canonical_smiles>  (689) 
OCc1ccccc1CC[NH2+][C@@H](c1ccccc1)c1cc2ccccc2o1

>  <scaffold>  (689) 
c1ccc(CC[NH2+]C(c2ccccc2)c2cc3ccccc3o2)cc1

>  <molecular_formula>  (689) 
C24H24NO2+

$$$$
ATP-HTVS-6B1624881868
     RDKit          3D

 52 54  0  0  0  0  0  0  0  0999 V2000
  199.5369  193.4386  156.9180 F   0  0  0  0  0  0  0  0  0  0  0  0
  199.8083  192.3363  156.1792 C   0  0  0  0  0  0  0  0  0  0  0  0
  199.2615  191.0811  156.5393 C   0  0  0  0  0  0  0  0  0  0  0  0
  198.3794  190.9688  157.6617 N   0  0  0  0  0  0  0  0  0  0  0  0
  198.6008  189.9940  158.6077 C   0  0  0  0  0  0  0  0  0  0  0  0
  199.6020  189.2602  158.5862 O   0  0  0  0  0  0  0  0  0  0  0  0
  197.5785  189.7729  159.6997 C   0  0  0  0  0  0  0  0  0  0  0  0
  197.0637  188.4672  159.9985 C   0  0  0  0  0  0  0  0  0  0  0  0
  197.5054  187.3280  159.2827 N   0  0  0  0  0  0  0  0  0  0  0  0
  196.9559  186.0384  159.1980 C   0  0  0  0  0  0  0  0  0  0  0  0
  197.6965  184.9931  158.5900 C   0  0  0  0  0  0  0  0  0  0  0  0
  197.1393  183.6904  158.4874 C   0  0  0  0  0  0  0  0  0  0  0  0
  195.8644  183.4298  159.0504 C   0  0  0  0  0  0  0  0  0  0  0  0
  195.2084  184.4522  159.7621 C   0  0  0  0  0  0  0  0  0  0  0  0
  195.6720  185.7527  159.6795 C   0  0  0  0  0  0  0  0  0  0  0  0
  195.1682  182.0661  158.8664 C   0  0  1  0  0  0  0  0  0  0  0  0
  193.8668  182.0746  158.1224 N   0  0  2  0  0  0  0  0  0  0  0  0
  193.0211  183.2823  158.2910 C   0  0  2  0  0  0  0  0  0  0  0  0
  193.0583  180.8733  158.3800 C   0  0  2  0  0  0  0  0  0  0  0  0
  196.1154  188.4086  161.0576 C   0  0  0  0  0  0  0  0  0  0  0  0
  195.5786  189.4669  161.6788 N   0  0  0  0  0  0  0  0  0  0  0  0
  196.1037  190.6667  161.4155 C   0  0  0  0  0  0  0  0  0  0  0  0
  197.1498  190.8552  160.5044 C   0  0  0  0  0  0  0  0  0  0  0  0
  197.2103  191.8540  157.6273 C   0  0  2  0  0  0  0  0  0  0  0  0
  199.5667  189.9492  155.7349 C   0  0  0  0  0  0  0  0  0  0  0  0
  200.3970  190.0723  154.6024 C   0  0  0  0  0  0  0  0  0  0  0  0
  200.9287  191.3287  154.2578 C   0  0  0  0  0  0  0  0  0  0  0  0
  200.6284  192.4596  155.0408 C   0  0  0  0  0  0  0  0  0  0  0  0
  198.4172  187.4457  158.8202 H   0  0  0  0  0  0  0  0  0  0  0  0
  198.6979  185.1835  158.1724 H   0  0  0  0  0  0  0  0  0  0  0  0
  197.6821  182.9167  157.9336 H   0  0  0  0  0  0  0  0  0  0  0  0
  194.2730  184.2993  160.2717 H   0  0  0  0  0  0  0  0  0  0  0  0
  194.9811  186.5000  159.9928 H   0  0  0  0  0  0  0  0  0  0  0  0
  195.8688  181.4000  158.3342 H   0  0  0  0  0  0  0  0  0  0  0  0
  195.0501  181.6149  159.8598 H   0  0  0  0  0  0  0  0  0  0  0  0
  192.7250  183.4447  159.3267 H   0  0  0  0  0  0  0  0  0  0  0  0
  192.0590  183.1462  157.8078 H   0  0  0  0  0  0  0  0  0  0  0  0
  193.5303  184.1719  157.9061 H   0  0  0  0  0  0  0  0  0  0  0  0
  192.8013  180.7846  159.4311 H   0  0  0  0  0  0  0  0  0  0  0  0
  193.5344  179.9476  158.1213 H   0  0  0  0  0  0  0  0  0  0  0  0
  192.1230  180.9097  157.8292 H   0  0  0  0  0  0  0  0  0  0  0  0
  195.7821  187.4638  161.5028 H   0  0  0  0  0  0  0  0  0  0  0  0
  195.7045  191.5008  161.9647 H   0  0  0  0  0  0  0  0  0  0  0  0
  197.6114  191.8364  160.4183 H   0  0  0  0  0  0  0  0  0  0  0  0
  196.3441  191.2567  157.4290 H   0  0  0  0  0  0  0  0  0  0  0  0
  197.2580  192.5885  156.8401 H   0  0  0  0  0  0  0  0  0  0  0  0
  197.0498  192.4277  158.5522 H   0  0  0  0  0  0  0  0  0  0  0  0
  199.1510  188.9776  155.9688 H   0  0  0  0  0  0  0  0  0  0  0  0
  200.6181  189.2020  153.9989 H   0  0  0  0  0  0  0  0  0  0  0  0
  201.5724  191.4276  153.3976 H   0  0  0  0  0  0  0  0  0  0  0  0
  201.0310  193.4284  154.7818 H   0  0  0  0  0  0  0  0  0  0  0  0
  194.0848  182.0838  157.1041 H   0  0  0  0  0  0  0  0  0  0  0  0
  1  2  1  0
  2  3  1  0
  2 28  2  0
  3  4  1  0
  3 25  2  0
  4  5  1  0
  4 24  1  0
  5  6  2  0
  5  7  1  0
  7  8  1  0
  7 23  2  0
  8  9  1  0
  8 20  2  0
  9 10  1  0
  9 29  1  0
 10 11  1  0
 10 15  2  0
 11 12  2  0
 11 30  1  0
 12 13  1  0
 12 31  1  0
 13 14  2  0
 13 16  1  0
 14 15  1  0
 14 32  1  0
 15 33  1  0
 16 17  1  0
 16 34  1  6
 16 35  1  0
 17 18  1  0
 17 19  1  0
 17 52  1  6
 18 36  1  1
 18 37  1  0
 18 38  1  0
 19 39  1  1
 19 40  1  0
 19 41  1  0
 20 21  1  0
 20 42  1  0
 21 22  2  0
 22 23  1  0
 22 43  1  0
 23 44  1  0
 24 45  1  6
 24 46  1  0
 24 47  1  0
 25 26  1  0
 25 48  1  0
 26 27  2  0
 26 49  1  0
 27 28  1  0
 27 50  1  0
 28 51  1  0
M  CHG  1  17   1
M  END
>  <s_epik_cmdline>  (690) 
J2VwaWtfcHl0aG9uJywgJy1waCcsICc3LjAwMDAwMCcsICctcGh0JywgJzIuMDAwMDAwJywgJy1tcycsICcxNicsICctdG4nLCAnOCcsICctbWEnLCAnMjAwJywgJy1pbWFlJywgJzxpbmZpbGUubWFlPicsICctb21hZScsICc8b3V0ZmlsZS5tYWU+Jw==

>  <s_epik_input>  (690) 
W2NIXTFbY0hdW2NIXVtjSF1jKGMxRilOKFtDSDNdKUMoPU8pYzJjKFtjSF1uW2NIXVtjSF0yKVtOSF1jM1tjSF1bY0hdYyhbY0hdW2NIXTMpW0NIMl1OKFtDSDNdKVtDSDNd

>  <s_i_glide_gridfile>  (690) 
ATP-Grid

>  <s_lp_Force_Field>  (690) 
OPLS_2005

>  <s_lp_Variant>  (690) 
rxn514b____EMOL2726699____EMOL17240199____EMOL2732950-1

>  <s_lp_label>  (690) 
2996_sdstereoexpander_1_neutralizer_1_epik_1_stereoizer_1

>  <s_m_source_file>  (690) 
ATP-VSW-LIGPREP-002-in.maegz

>  <s_sd_BIOSOLVEIT.INFINISEE\_QUERY\_NAME>  (690) 
Ref-Lig

>  <s_sd_BIOSOLVEIT.INFINISEE\_QUERY\_SMILES>  (690) 
S(c1nc2c(cc1C[NH2+]Cc3ccc(cc3)C[NH+](C)C)cccc2)Cc4ccccc4

>  <s_sd_BIOSOLVEIT.INFINISEE\_REACTION\_NAME>  (690) 
rxn514b

>  <s_sd_BIOSOLVEIT.INFINISEE\_REAGENT1\_NAME>  (690) 
EMOL2726699

>  <s_sd_BIOSOLVEIT.INFINISEE\_REAGENT1\_SMILES>  (690) 
Fc1c(NC)cccc1

>  <s_sd_BIOSOLVEIT.INFINISEE\_REAGENT2\_NAME>  (690) 
EMOL17240199

>  <s_sd_BIOSOLVEIT.INFINISEE\_REAGENT2\_SMILES>  (690) 
O=C(OC(C)(C)C)Nc1c(ccnc1)C(=O)O

>  <s_sd_BIOSOLVEIT.INFINISEE\_REAGENT3\_NAME>  (690) 
EMOL2732950

>  <s_sd_BIOSOLVEIT.INFINISEE\_REAGENT3\_SMILES>  (690) 
Brc1ccc(cc1)CN(C)C

>  <s_sd_BIOSOLVEIT.INFINISEE\_SPACE>  (690) 
eXplore_7tr_2022-12

>  <s_vsw_compound_code>  (690) 
95842

>  <s_vsw_variant>  (690) 
95842-1

>  <r_epik_Charging_Adjusted_Penalty>  (690) 
0.074139713783215794

>  <r_epik_Ionization_Penalty>  (690) 
0.037600000000000001

>  <r_epik_Ionization_Penalty_Charging>  (690) 
0.037100000000000001

>  <r_epik_Ionization_Penalty_Neutral>  (690) 
0.00050000000000000001

>  <r_epik_State_Penalty>  (690) 
0.037100000000000001

>  <r_i_docking_score>  (690) 
-4.1365672022558604

>  <r_i_glide_ecoul>  (690) 
-7.7584571838378897

>  <r_i_glide_eff_state_penalty>  (690) 
0.037100000000000001

>  <r_i_glide_einternal>  (690) 
5.84818315505981

>  <r_i_glide_emodel>  (690) 
-46.533428343630497

>  <r_i_glide_energy>  (690) 
-35.68359375

>  <r_i_glide_erotb>  (690) 
0.80801291096181105

>  <r_i_glide_esite>  (690) 
-0.102073644455867

>  <r_i_glide_evdw>  (690) 
-27.925136566162099

>  <r_i_glide_gscore>  (690) 
-4.1736672022558601

>  <r_i_glide_hbond>  (690) 
-0.16800460550218899

>  <r_i_glide_ligand_efficiency>  (690) 
-0.14773454293770899

>  <r_i_glide_ligand_efficiency_ln>  (690) 
-0.95484116517125595

>  <r_i_glide_ligand_efficiency_sa>  (690) 
-0.448609083351454

>  <r_i_glide_lipo>  (690) 
-1.2714879395879899

>  <r_i_glide_metal>  (690) 
-0

>  <r_i_glide_rewards>  (690) 
-0.88008851778783503

>  <r_lp_Energy>  (690) 
47.733370999999998

>  <r_lp_tautomer_probability>  (690) 
0.999999999999999

>  <r_qp_ACxDN^.5/SA>  (690) 
0

>  <r_qp_CIQPlogS>  (690) 
-4.3579999999999997

>  <r_qp_EA(eV)>  (690) 
0.47399999999999998

>  <r_qp_FISA>  (690) 
65.620999999999995

>  <r_qp_FOSA>  (690) 
227.06899999999999

>  <r_qp_IP(eV)>  (690) 
8.2669999999999995

>  <r_qp_Jm>  (690) 
0.031822583252300002

>  <r_qp_PISA>  (690) 
370.32999999999998

>  <r_qp_PSA>  (690) 
52.558999999999997

>  <r_qp_PercentHumanOralAbsorption>  (690) 
100

>  <r_qp_QPPCaco>  (690) 
589.54499999999996

>  <r_qp_QPPMDCK>  (690) 
456.67200000000003

>  <r_qp_QPlogBB>  (690) 
0.002

>  <r_qp_QPlogHERG>  (690) 
-7.1680000000000001

>  <r_qp_QPlogKhsa>  (690) 
0.36699999999999999

>  <r_qp_QPlogKp>  (690) 
-2.911

>  <r_qp_QPlogPC16>  (690) 
12.663

>  <r_qp_QPlogPo/w>  (690) 
4.0529999999999999

>  <r_qp_QPlogPoct>  (690) 
17.966999999999999

>  <r_qp_QPlogPw>  (690) 
8.952

>  <r_qp_QPlogS>  (690) 
-4.1639999999999997

>  <r_qp_QPpolrz>  (690) 
43.277999999999999

>  <r_qp_SASA>  (690) 
693.947

>  <r_qp_SAamideO>  (690) 
0

>  <r_qp_SAfluorine>  (690) 
30.927

>  <r_qp_WPSA>  (690) 
30.927

>  <r_qp_accptHB>  (690) 
6

>  <r_qp_dip^2/V>  (690) 
0.034384699999999997

>  <r_qp_dipole>  (690) 
6.5380000000000003

>  <r_qp_donorHB>  (690) 
0

>  <r_qp_glob>  (690) 
0.80569829999999998

>  <r_qp_mol_MW>  (690) 
378.44799999999998

>  <r_qp_volume>  (690) 
1243.0830000000001

>  <r_sd_BIOSOLVEIT.INFINISEE\_FTREES\_SIMILARITY>  (690) 
0.90300000000000002

>  <r_sd_BIOSOLVEIT.LOGP>  (690) 
2.8854000000000002

>  <r_sd_BIOSOLVEIT.MOLECULAR\_WEIGHT>  (690) 
379.45699999999999

>  <r_sd_BIOSOLVEIT.TPSA>  (690) 
49.670000000000002

>  <i_epik_Tot_Q>  (690) 
1

>  <i_epik_Tot_abs_Q>  (690) 
1

>  <i_f3d_flags>  (690) 
0

>  <i_i_glide_confnum>  (690) 
6

>  <i_i_glide_lignum>  (690) 
62

>  <i_i_glide_posenum>  (690) 
11

>  <i_i_glide_rotatable_bonds>  (690) 
7

>  <i_lp_mmshare_version>  (690) 
65135

>  <i_m_ct_format>  (690) 
2

>  <i_m_source_file_index>  (690) 
2996

>  <i_qp_#NandO>  (690) 
5

>  <i_qp_#acid>  (690) 
0

>  <i_qp_#amide>  (690) 
0

>  <i_qp_#amidine>  (690) 
0

>  <i_qp_#amine>  (690) 
1

>  <i_qp_#in34>  (690) 
0

>  <i_qp_#in56>  (690) 
18

>  <i_qp_#metab>  (690) 
7

>  <i_qp_#nonHatm>  (690) 
28

>  <i_qp_#noncon>  (690) 
0

>  <i_qp_#ringatoms>  (690) 
18

>  <i_qp_#rotor>  (690) 
6

>  <i_qp_#rtvFG>  (690) 
0

>  <i_qp_#stars>  (690) 
0

>  <i_qp_CNS>  (690) 
1

>  <i_qp_HumanOralAbsorption>  (690) 
3

>  <i_qp_RuleOfFive>  (690) 
0

>  <i_qp_RuleOfThree>  (690) 
1

>  <i_sd_BIOSOLVEIT.INFINISEE\_RESULT\_RANK>  (690) 
85353

>  <i_sd_version>  (690) 
0

>  <b_lp_Chiralities_Consistent>  (690) 
1

>  <b_sd_chiral_flag>  (690) 
0

>  <canonical_id>  (690) 
ATP-HTVS-6B1624881868

>  <compound_code>  (690) 
95842

>  <title>  (690) 
rxn514b____EMOL2726699____EMOL17240199____EMOL2732950

>  <variant>  (690) 
95842-1

>  <source_file>  (690) 
运行/运行/ATP-VSW/ATP-VSW-DOCK_HTVS_1-003_lib/ATP-VSW-DOCK_HTVS_1-003_lib.mae

>  <canonical_smiles>  (690) 
CN(C(=O)c1ccncc1Nc1ccc(C[NH+](C)C)cc1)c1ccccc1F

>  <scaffold>  (690) 
O=C(Nc1ccccc1)c1ccncc1Nc1ccccc1

>  <molecular_formula>  (690) 
C22H24FN4O+

$$$$
ATP-HTVS-6B545AE439E8
     RDKit          3D

 55 58  0  0  0  0  0  0  0  0999 V2000
  197.1187  178.7671  152.1167 O   0  0  0  0  0  0  0  0  0  0  0  0
  197.5278  179.3788  151.1248 C   0  0  0  0  0  0  0  0  0  0  0  0
  197.7683  180.7038  151.0601 N   0  0  0  0  0  0  0  0  0  0  0  0
  197.7595  181.6602  152.1117 C   0  0  0  0  0  0  0  0  0  0  0  0
  197.6525  181.2755  153.4036 N   0  0  0  0  0  0  0  0  0  0  0  0
  197.7034  182.1928  154.3947 C   0  0  0  0  0  0  0  0  0  0  0  0
  197.8197  183.5788  154.1654 C   0  0  0  0  0  0  0  0  0  0  0  0
  197.8251  184.5076  155.2268 N   0  0  0  0  0  0  0  0  0  0  0  0
  197.4113  184.3626  156.5595 C   0  0  0  0  0  0  0  0  0  0  0  0
  196.5129  183.3511  156.9570 C   0  0  0  0  0  0  0  0  0  0  0  0
  196.1677  183.1909  158.3242 C   0  0  0  0  0  0  0  0  0  0  0  0
  196.6698  184.0875  159.2953 C   0  0  0  0  0  0  0  0  0  0  0  0
  197.5227  185.1381  158.8938 C   0  0  0  0  0  0  0  0  0  0  0  0
  197.8929  185.2663  157.5377 C   0  0  0  0  0  0  0  0  0  0  0  0
  195.2627  182.0343  158.6983 C   0  0  1  0  0  0  0  0  0  0  0  0
  193.8944  182.1847  158.1413 N   0  0  1  0  0  0  0  0  0  0  0  0
  193.0598  180.9826  158.3438 C   0  0  2  0  0  0  0  0  0  0  0  0
  193.2302  183.4274  158.5744 C   0  0  2  0  0  0  0  0  0  0  0  0
  197.9718  183.9995  152.8110 C   0  0  0  0  0  0  0  0  0  0  0  0
  197.9495  183.0282  151.7693 C   0  0  0  0  0  0  0  0  0  0  0  0
  198.1459  183.4450  150.4211 C   0  0  0  0  0  0  0  0  0  0  0  0
  198.3546  184.8014  150.1144 C   0  0  0  0  0  0  0  0  0  0  0  0
  198.3623  185.7627  151.1418 C   0  0  0  0  0  0  0  0  0  0  0  0
  198.1646  185.3618  152.4810 C   0  0  0  0  0  0  0  0  0  0  0  0
  197.8246  178.6387  149.8581 C   0  0  0  0  0  0  0  0  0  0  0  0
  197.5666  179.2377  148.6035 C   0  0  0  0  0  0  0  0  0  0  0  0
  197.8370  178.5371  147.4093 C   0  0  0  0  0  0  0  0  0  0  0  0
  198.3546  177.2342  147.4662 C   0  0  0  0  0  0  0  0  0  0  0  0
  198.6059  176.6232  148.7105 C   0  0  0  0  0  0  0  0  0  0  0  0
  198.3484  177.3250  149.9053 C   0  0  0  0  0  0  0  0  0  0  0  0
  198.1004  181.0359  150.1630 H   0  0  0  0  0  0  0  0  0  0  0  0
  197.6274  181.7856  155.3966 H   0  0  0  0  0  0  0  0  0  0  0  0
  198.2160  185.4107  155.0115 H   0  0  0  0  0  0  0  0  0  0  0  0
  196.0951  182.6747  156.2201 H   0  0  0  0  0  0  0  0  0  0  0  0
  196.4063  183.9836  160.3446 H   0  0  0  0  0  0  0  0  0  0  0  0
  197.8963  185.8509  159.6263 H   0  0  0  0  0  0  0  0  0  0  0  0
  198.5600  186.0690  157.2456 H   0  0  0  0  0  0  0  0  0  0  0  0
  195.7400  181.1169  158.3482 H   0  0  0  0  0  0  0  0  0  0  0  0
  195.2150  181.9390  159.7821 H   0  0  0  0  0  0  0  0  0  0  0  0
  192.8888  180.7724  159.3972 H   0  0  0  0  0  0  0  0  0  0  0  0
  193.5499  180.1077  157.9302 H   0  0  0  0  0  0  0  0  0  0  0  0
  192.0943  181.0679  157.8438 H   0  0  0  0  0  0  0  0  0  0  0  0
  193.1557  183.5257  159.6591 H   0  0  0  0  0  0  0  0  0  0  0  0
  192.2195  183.4343  158.1721 H   0  0  0  0  0  0  0  0  0  0  0  0
  193.7614  184.3078  158.2018 H   0  0  0  0  0  0  0  0  0  0  0  0
  198.1585  182.7391  149.6024 H   0  0  0  0  0  0  0  0  0  0  0  0
  198.5059  185.0979  149.0841 H   0  0  0  0  0  0  0  0  0  0  0  0
  198.5242  186.8041  150.8950 H   0  0  0  0  0  0  0  0  0  0  0  0
  198.1789  186.1335  153.2375 H   0  0  0  0  0  0  0  0  0  0  0  0
  197.1591  180.2368  148.5371 H   0  0  0  0  0  0  0  0  0  0  0  0
  197.6338  179.0002  146.4569 H   0  0  0  0  0  0  0  0  0  0  0  0
  198.5473  176.6957  146.5491 H   0  0  0  0  0  0  0  0  0  0  0  0
  198.9882  175.6160  148.7481 H   0  0  0  0  0  0  0  0  0  0  0  0
  198.5339  176.8572  150.8604 H   0  0  0  0  0  0  0  0  0  0  0  0
  193.9488  182.2873  157.1224 H   0  0  0  0  0  0  0  0  0  0  0  0
  1  2  2  0
  2  3  1  0
  2 25  1  0
  3  4  1  0
  3 31  1  0
  4  5  1  0
  4 20  2  0
  5  6  2  0
  6  7  1  0
  6 32  1  0
  7  8  1  0
  7 19  2  0
  8  9  1  0
  8 33  1  0
  9 10  2  0
  9 14  1  0
 10 11  1  0
 10 34  1  0
 11 12  2  0
 11 15  1  0
 12 13  1  0
 12 35  1  0
 13 14  2  0
 13 36  1  0
 14 37  1  0
 15 16  1  0
 15 38  1  6
 15 39  1  0
 16 17  1  0
 16 18  1  0
 16 55  1  6
 17 40  1  1
 17 41  1  0
 17 42  1  0
 18 43  1  1
 18 44  1  0
 18 45  1  0
 19 20  1  0
 19 24  1  0
 20 21  1  0
 21 22  2  0
 21 46  1  0
 22 23  1  0
 22 47  1  0
 23 24  2  0
 23 48  1  0
 24 49  1  0
 25 26  2  0
 25 30  1  0
 26 27  1  0
 26 50  1  0
 27 28  2  0
 27 51  1  0
 28 29  1  0
 28 52  1  0
 29 30  2  0
 29 53  1  0
 30 54  1  0
M  CHG  1  16   1
M  END
>  <s_epik_cmdline>  (691) 
J2VwaWtfcHl0aG9uJywgJy1waCcsICc3LjAwMDAwMCcsICctcGh0JywgJzIuMDAwMDAwJywgJy1tcycsICcxNicsICctdG4nLCAnOCcsICctbWEnLCAnMjAwJywgJy1pbWFlJywgJzxpbmZpbGUubWFlPicsICctb21hZScsICc8b3V0ZmlsZS5tYWU+Jw==

>  <s_epik_input>  (691) 
W2NIXTFbY0hdW2NIXVtjSF1bY0hdYzFDKD1PKVtOSF1jKGMoYzIzKVtjSF1bY0hdW2NIXVtjSF0zKW5bY0hdYzJbTkhdYzRbY0hdYyhbY0hdW2NIXVtjSF00KVtDSDJdTihbQ0gzXSlbQ0gzXQ==

>  <s_i_glide_gridfile>  (691) 
ATP-Grid

>  <s_lp_Force_Field>  (691) 
OPLS_2005

>  <s_lp_Variant>  (691) 
rxn502c____EMOL478180____EMOL29936549____EMOL3728368-1

>  <s_lp_label>  (691) 
2222_sdstereoexpander_1_neutralizer_1_epik_1_stereoizer_1

>  <s_m_source_file>  (691) 
ATP-VSW-LIGPREP-001-in.maegz

>  <s_sd_BIOSOLVEIT.INFINISEE\_QUERY\_NAME>  (691) 
Ref-Lig

>  <s_sd_BIOSOLVEIT.INFINISEE\_QUERY\_SMILES>  (691) 
S(c1nc2c(cc1C[NH2+]Cc3ccc(cc3)C[NH+](C)C)cccc2)Cc4ccccc4

>  <s_sd_BIOSOLVEIT.INFINISEE\_REACTION\_NAME>  (691) 
rxn502c

>  <s_sd_BIOSOLVEIT.INFINISEE\_REAGENT1\_NAME>  (691) 
EMOL478180

>  <s_sd_BIOSOLVEIT.INFINISEE\_REAGENT1\_SMILES>  (691) 
[O-]C(=O)c1ccccc1

>  <s_sd_BIOSOLVEIT.INFINISEE\_REAGENT2\_NAME>  (691) 
EMOL29936549

>  <s_sd_BIOSOLVEIT.INFINISEE\_REAGENT2\_SMILES>  (691) 
Clc1c2c(c(nc1)N)cccc2

>  <s_sd_BIOSOLVEIT.INFINISEE\_REAGENT3\_NAME>  (691) 
EMOL3728368

>  <s_sd_BIOSOLVEIT.INFINISEE\_REAGENT3\_SMILES>  (691) 
N(Cc1cc(N)ccc1)(C)C

>  <s_sd_BIOSOLVEIT.INFINISEE\_SPACE>  (691) 
eXplore_7tr_2022-12

>  <s_vsw_compound_code>  (691) 
71073

>  <s_vsw_variant>  (691) 
71073-1

>  <r_epik_Charging_Adjusted_Penalty>  (691) 
0.0905741757774641

>  <r_epik_Ionization_Penalty>  (691) 
0.045400000000000003

>  <r_epik_Ionization_Penalty_Charging>  (691) 
0.0453

>  <r_epik_Ionization_Penalty_Neutral>  (691) 
0.0001

>  <r_epik_State_Penalty>  (691) 
0.0453

>  <r_i_docking_score>  (691) 
-4.4094861439281301

>  <r_i_glide_ecoul>  (691) 
-8.0337362289428693

>  <r_i_glide_eff_state_penalty>  (691) 
0.0453

>  <r_i_glide_einternal>  (691) 
1.34092998504639

>  <r_i_glide_emodel>  (691) 
-56.4645979386001

>  <r_i_glide_energy>  (691) 
-40.3777723312378

>  <r_i_glide_erotb>  (691) 
0.74336557954494098

>  <r_i_glide_esite>  (691) 
-0.10000000000000001

>  <r_i_glide_evdw>  (691) 
-32.344036102294901

>  <r_i_glide_gscore>  (691) 
-4.4547861439281302

>  <r_i_glide_hbond>  (691) 
-0.20000000000000001

>  <r_i_glide_ligand_efficiency>  (691) 
-0.146982871464271

>  <r_i_glide_ligand_efficiency_ln>  (691) 
-1.0018832971001299

>  <r_i_glide_ligand_efficiency_sa>  (691) 
-0.456709955514434

>  <r_i_glide_lipo>  (691) 
-1.2578276041007499

>  <r_i_glide_metal>  (691) 
-0

>  <r_i_glide_rewards>  (691) 
-0.81806187991614399

>  <r_lp_Energy>  (691) 
31.627555999999998

>  <r_qp_ACxDN^.5/SA>  (691) 
0.0114591

>  <r_qp_CIQPlogS>  (691) 
-5.0940000000000003

>  <r_qp_EA(eV)>  (691) 
1.089

>  <r_qp_FISA>  (691) 
67.141999999999996

>  <r_qp_FOSA>  (691) 
167.92400000000001

>  <r_qp_IP(eV)>  (691) 
7.7110000000000003

>  <r_qp_Jm>  (691) 
0.0076117549197644201

>  <r_qp_PISA>  (691) 
505.41699999999997

>  <r_qp_PSA>  (691) 
60.768000000000001

>  <r_qp_PercentHumanOralAbsorption>  (691) 
100

>  <r_qp_QPPCaco>  (691) 
570.28399999999999

>  <r_qp_QPPMDCK>  (691) 
298.25900000000001

>  <r_qp_QPlogBB>  (691) 
-0.123

>  <r_qp_QPlogHERG>  (691) 
-8.1240000000000006

>  <r_qp_QPlogKhsa>  (691) 
0.72199999999999998

>  <r_qp_QPlogKp>  (691) 
-2.4630000000000001

>  <r_qp_QPlogPC16>  (691) 
15.077

>  <r_qp_QPlogPo/w>  (691) 
4.5030000000000001

>  <r_qp_QPlogPoct>  (691) 
22.558

>  <r_qp_QPlogPw>  (691) 
12.911

>  <r_qp_QPlogS>  (691) 
-5.2539999999999996

>  <r_qp_QPpolrz>  (691) 
47.701999999999998

>  <r_qp_SASA>  (691) 
740.48299999999995

>  <r_qp_SAamideO>  (691) 
0

>  <r_qp_SAfluorine>  (691) 
0

>  <r_qp_WPSA>  (691) 
0

>  <r_qp_accptHB>  (691) 
6

>  <r_qp_dip^2/V>  (691) 
0.043361299999999998

>  <r_qp_dipole>  (691) 
7.5700000000000003

>  <r_qp_donorHB>  (691) 
2

>  <r_qp_glob>  (691) 
0.78645030000000005

>  <r_qp_mol_MW>  (691) 
396.49099999999999

>  <r_qp_volume>  (691) 
1321.394

>  <r_sd_BIOSOLVEIT.INFINISEE\_FTREES\_SIMILARITY>  (691) 
0.92900000000000005

>  <r_sd_BIOSOLVEIT.LOGP>  (691) 
3.8752

>  <r_sd_BIOSOLVEIT.MOLECULAR\_WEIGHT>  (691) 
397.5

>  <r_sd_BIOSOLVEIT.TPSA>  (691) 
58.460000000000001

>  <i_epik_Tot_Q>  (691) 
1

>  <i_epik_Tot_abs_Q>  (691) 
1

>  <i_f3d_flags>  (691) 
0

>  <i_i_glide_confnum>  (691) 
2

>  <i_i_glide_lignum>  (691) 
748

>  <i_i_glide_posenum>  (691) 
2

>  <i_i_glide_rotatable_bonds>  (691) 
7

>  <i_lp_mmshare_version>  (691) 
65135

>  <i_m_ct_format>  (691) 
2

>  <i_m_source_file_index>  (691) 
2222

>  <i_qp_#NandO>  (691) 
5

>  <i_qp_#acid>  (691) 
0

>  <i_qp_#amide>  (691) 
0

>  <i_qp_#amidine>  (691) 
0

>  <i_qp_#amine>  (691) 
1

>  <i_qp_#in34>  (691) 
0

>  <i_qp_#in56>  (691) 
22

>  <i_qp_#metab>  (691) 
6

>  <i_qp_#nonHatm>  (691) 
30

>  <i_qp_#noncon>  (691) 
0

>  <i_qp_#ringatoms>  (691) 
22

>  <i_qp_#rotor>  (691) 
6

>  <i_qp_#rtvFG>  (691) 
0

>  <i_qp_#stars>  (691) 
2

>  <i_qp_CNS>  (691) 
1

>  <i_qp_HumanOralAbsorption>  (691) 
3

>  <i_qp_RuleOfFive>  (691) 
0

>  <i_qp_RuleOfThree>  (691) 
0

>  <i_sd_BIOSOLVEIT.INFINISEE\_RESULT\_RANK>  (691) 
5299

>  <i_sd_version>  (691) 
0

>  <b_lp_Chiralities_Consistent>  (691) 
1

>  <b_sd_chiral_flag>  (691) 
0

>  <canonical_id>  (691) 
ATP-HTVS-6B545AE439E8

>  <compound_code>  (691) 
71073

>  <title>  (691) 
rxn502c____EMOL478180____EMOL29936549____EMOL3728368

>  <variant>  (691) 
71073-1

>  <source_file>  (691) 
运行/运行/ATP-VSW/ATP-VSW-DOCK_HTVS_1-001_lib/ATP-VSW-DOCK_HTVS_1-001_lib

>  <canonical_smiles>  (691) 
C[NH+](C)Cc1cccc(Nc2cnc(NC(=O)c3ccccc3)c3ccccc23)c1

>  <scaffold>  (691) 
O=C(Nc1ncc(Nc2ccccc2)c2ccccc12)c1ccccc1

>  <molecular_formula>  (691) 
C25H25N4O+

$$$$
ATP-HTVS-6B6B8E0C727E
     RDKit          3D

 62 64  0  0  0  0  0  0  0  0999 V2000
  201.5579  180.2547  155.7554 S   0  0  0  0  0  0  0  0  0  0  0  0
  200.0060  179.5564  155.3851 C   0  0  0  0  0  0  0  0  0  0  0  0
  198.9840  180.2755  155.9438 C   0  0  0  0  0  0  0  0  0  0  0  0
  199.4409  181.4141  156.6620 C   0  0  0  0  0  0  0  0  0  0  0  0
  198.5155  182.2736  157.2667 N   0  0  0  0  0  0  0  0  0  0  0  0
  198.9159  183.4382  158.0330 C   0  0  1  0  0  0  0  0  0  0  0  0
  197.7373  184.2397  158.5366 C   0  0  0  0  0  0  0  0  0  0  0  0
  197.6894  185.6252  158.2870 C   0  0  0  0  0  0  0  0  0  0  0  0
  196.6174  186.4002  158.7741 C   0  0  0  0  0  0  0  0  0  0  0  0
  195.5679  185.7742  159.4792 C   0  0  0  0  0  0  0  0  0  0  0  0
  195.6069  184.3864  159.7202 C   0  0  0  0  0  0  0  0  0  0  0  0
  196.6947  183.6200  159.2566 C   0  0  0  0  0  0  0  0  0  0  0  0
  196.6000  187.9042  158.5489 C   0  0  1  0  0  0  0  0  0  0  0  0
  197.3551  188.6747  159.5746 N   0  0  1  0  0  0  0  0  0  0  0  0
  196.7530  188.5991  160.9256 C   0  0  2  0  0  0  0  0  0  0  0  0
  198.8101  188.3868  159.5750 C   0  0  2  0  0  0  0  0  0  0  0  0
  200.8101  181.5229  156.6812 C   0  0  0  0  0  0  0  0  0  0  0  0
  199.8829  178.3696  154.4978 C   0  0  1  0  0  0  0  0  0  0  0  0
  199.5513  178.8054  153.0540 C   0  0  0  0  0  0  0  0  0  0  0  0
  200.4222  178.8757  152.2104 O   0  0  0  0  0  0  0  0  0  0  0  0
  198.2740  179.1147  152.8095 N   0  0  0  0  0  0  0  0  0  0  0  0
  197.6568  179.4952  151.5307 C   0  0  1  0  0  0  0  0  0  0  0  0
  197.8864  178.4479  150.4016 C   0  0  0  0  0  0  0  0  0  0  0  0
  197.3950  178.7264  149.0880 C   0  0  0  0  0  0  0  0  0  0  0  0
  197.6121  177.8202  148.0188 C   0  0  0  0  0  0  0  0  0  0  0  0
  198.3310  176.6310  148.2515 C   0  0  0  0  0  0  0  0  0  0  0  0
  198.7833  176.3283  149.5507 C   0  0  0  0  0  0  0  0  0  0  0  0
  198.5474  177.2324  150.6478 C   0  0  0  0  0  0  0  0  0  0  0  0
  196.1490  179.6141  151.7966 C   0  0  2  0  0  0  0  0  0  0  0  0
  198.1962  180.8863  151.1101 C   0  0  2  0  0  0  0  0  0  0  0  0
  197.9344  180.0434  155.8367 H   0  0  0  0  0  0  0  0  0  0  0  0
  197.5272  182.0833  157.1719 H   0  0  0  0  0  0  0  0  0  0  0  0
  199.5339  183.1377  158.8845 H   0  0  0  0  0  0  0  0  0  0  0  0
  199.5420  184.0535  157.3869 H   0  0  0  0  0  0  0  0  0  0  0  0
  198.4944  186.0941  157.7424 H   0  0  0  0  0  0  0  0  0  0  0  0
  194.7370  186.3564  159.8492 H   0  0  0  0  0  0  0  0  0  0  0  0
  194.8014  183.9154  160.2637 H   0  0  0  0  0  0  0  0  0  0  0  0
  196.7220  182.5574  159.4508 H   0  0  0  0  0  0  0  0  0  0  0  0
  196.9830  188.1299  157.5543 H   0  0  0  0  0  0  0  0  0  0  0  0
  195.5597  188.2356  158.5582 H   0  0  0  0  0  0  0  0  0  0  0  0
  196.7464  187.5774  161.3016 H   0  0  0  0  0  0  0  0  0  0  0  0
  195.7245  188.9651  160.9096 H   0  0  0  0  0  0  0  0  0  0  0  0
  197.3098  189.2083  161.6379 H   0  0  0  0  0  0  0  0  0  0  0  0
  199.0117  187.3577  159.8613 H   0  0  0  0  0  0  0  0  0  0  0  0
  199.3491  189.0311  160.2755 H   0  0  0  0  0  0  0  0  0  0  0  0
  199.2330  188.5412  158.5809 H   0  0  0  0  0  0  0  0  0  0  0  0
  201.4308  182.2625  157.1674 H   0  0  0  0  0  0  0  0  0  0  0  0
  200.8261  177.8077  154.5099 H   0  0  0  0  0  0  0  0  0  0  0  0
  199.1055  177.6845  154.8695 H   0  0  0  0  0  0  0  0  0  0  0  0
  197.6614  179.1613  153.6148 H   0  0  0  0  0  0  0  0  0  0  0  0
  196.8560  179.6394  148.8928 H   0  0  0  0  0  0  0  0  0  0  0  0
  197.2222  178.0494  147.0347 H   0  0  0  0  0  0  0  0  0  0  0  0
  198.5211  175.9467  147.4224 H   0  0  0  0  0  0  0  0  0  0  0  0
  199.3519  175.4243  149.7204 H   0  0  0  0  0  0  0  0  0  0  0  0
  198.9084  176.9993  151.6494 H   0  0  0  0  0  0  0  0  0  0  0  0
  195.6039  179.9271  150.9070 H   0  0  0  0  0  0  0  0  0  0  0  0
  195.9416  180.3539  152.5728 H   0  0  0  0  0  0  0  0  0  0  0  0
  195.7175  178.6671  152.1224 H   0  0  0  0  0  0  0  0  0  0  0  0
  197.7196  181.2660  150.2039 H   0  0  0  0  0  0  0  0  0  0  0  0
  199.2711  180.8782  150.9257 H   0  0  0  0  0  0  0  0  0  0  0  0
  198.0076  181.6245  151.8947 H   0  0  0  0  0  0  0  0  0  0  0  0
  197.2753  189.6430  159.3021 H   0  0  0  0  0  0  0  0  0  0  0  0
  1  2  1  0
  1 17  1  0
  2  3  2  0
  2 18  1  0
  3  4  1  0
  3 31  1  0
  4  5  1  0
  4 17  2  0
  5  6  1  0
  5 32  1  0
  6  7  1  0
  6 33  1  1
  6 34  1  0
  7  8  2  0
  7 12  1  0
  8  9  1  0
  8 35  1  0
  9 10  2  0
  9 13  1  0
 10 11  1  0
 10 36  1  0
 11 12  2  0
 11 37  1  0
 12 38  1  0
 13 14  1  0
 13 39  1  6
 13 40  1  0
 14 15  1  0
 14 16  1  0
 14 62  1  6
 15 41  1  1
 15 42  1  0
 15 43  1  0
 16 44  1  1
 16 45  1  0
 16 46  1  0
 17 47  1  0
 18 19  1  0
 18 48  1  6
 18 49  1  0
 19 20  2  0
 19 21  1  0
 22 21  1  1
 21 50  1  0
 22 23  1  0
 22 29  1  0
 22 30  1  0
 23 24  2  0
 23 28  1  0
 24 25  1  0
 24 51  1  0
 25 26  2  0
 25 52  1  0
 26 27  1  0
 26 53  1  0
 27 28  2  0
 27 54  1  0
 28 55  1  0
 29 56  1  6
 29 57  1  0
 29 58  1  0
 30 59  1  6
 30 60  1  0
 30 61  1  0
M  CHG  1  14   1
M  END
>  <s_epik_cmdline>  (692) 
J2VwaWtfcHl0aG9uJywgJy1waCcsICc3LjAwMDAwMCcsICctcGh0JywgJzIuMDAwMDAwJywgJy1tcycsICcxNicsICctdG4nLCAnOCcsICctbWEnLCAnMjAwJywgJy1pbWFlJywgJzxpbmZpbGUubWFlPicsICctb21hZScsICc8b3V0ZmlsZS5tYWU+Jw==

>  <s_epik_input>  (692) 
W2NIXTFbY0hdW2NIXWMoW0NIMl1OKFtDSDNdKVtDSDNdKVtjSF1jMVtDSDJdW05IXWMoW2NIXTIpW2NIXXNjMltDSDJdQyg9TylbTkhdQyhbQ0gzXSkoW0NIM10pYzNbY0hdW2NIXVtjSF1bY0hdW2NIXTM=

>  <s_i_glide_gridfile>  (692) 
ATP-Grid

>  <s_lp_Force_Field>  (692) 
OPLS_2005

>  <s_lp_Variant>  (692) 
rxn512b____EMOL5758830____EMOL15801711____EMOL2873214-1

>  <s_lp_label>  (692) 
3036_sdstereoexpander_1_neutralizer_1_epik_1_stereoizer_1

>  <s_m_source_file>  (692) 
ATP-VSW-LIGPREP-002-in.maegz

>  <s_sd_BIOSOLVEIT.INFINISEE\_QUERY\_NAME>  (692) 
Ref-Lig

>  <s_sd_BIOSOLVEIT.INFINISEE\_QUERY\_SMILES>  (692) 
S(c1nc2c(cc1C[NH2+]Cc3ccc(cc3)C[NH+](C)C)cccc2)Cc4ccccc4

>  <s_sd_BIOSOLVEIT.INFINISEE\_REACTION\_NAME>  (692) 
rxn512b

>  <s_sd_BIOSOLVEIT.INFINISEE\_REAGENT1\_NAME>  (692) 
EMOL5758830

>  <s_sd_BIOSOLVEIT.INFINISEE\_REAGENT1\_SMILES>  (692) 
NC(c1ccccc1)(C)C

>  <s_sd_BIOSOLVEIT.INFINISEE\_REAGENT2\_NAME>  (692) 
EMOL15801711

>  <s_sd_BIOSOLVEIT.INFINISEE\_REAGENT2\_SMILES>  (692) 
BrC1=CSC(=C1)CC(=O)O

>  <s_sd_BIOSOLVEIT.INFINISEE\_REAGENT3\_NAME>  (692) 
EMOL2873214

>  <s_sd_BIOSOLVEIT.INFINISEE\_REAGENT3\_SMILES>  (692) 
N(Cc1cc(ccc1)CN)(C)C

>  <s_sd_BIOSOLVEIT.INFINISEE\_SPACE>  (692) 
eXplore_7tr_2022-12

>  <s_vsw_compound_code>  (692) 
97122

>  <s_vsw_variant>  (692) 
97122-1

>  <r_epik_Charging_Adjusted_Penalty>  (692) 
0.086140609825027206

>  <r_epik_Ionization_Penalty>  (692) 
0.043099999999999999

>  <r_epik_Ionization_Penalty_Charging>  (692) 
0.043099999999999999

>  <r_epik_Ionization_Penalty_Neutral>  (692) 
0

>  <r_epik_State_Penalty>  (692) 
0.043099999999999999

>  <r_i_docking_score>  (692) 
-4.1870362998458797

>  <r_i_glide_ecoul>  (692) 
-5.1055836677551296

>  <r_i_glide_eff_state_penalty>  (692) 
0.043099999999999999

>  <r_i_glide_einternal>  (692) 
1.19656610488892

>  <r_i_glide_emodel>  (692) 
-50.829249826118499

>  <r_i_glide_energy>  (692) 
-37.117088794708302

>  <r_i_glide_erotb>  (692) 
0.88745024524377802

>  <r_i_glide_esite>  (692) 
-0.017033980198117301

>  <r_i_glide_evdw>  (692) 
-32.011505126953097

>  <r_i_glide_gscore>  (692) 
-4.2301362998458796

>  <r_i_glide_hbond>  (692) 
0

>  <r_i_glide_ligand_efficiency>  (692) 
-0.13956787666152901

>  <r_i_glide_ligand_efficiency_ln>  (692) 
-0.95134026873945998

>  <r_i_glide_ligand_efficiency_sa>  (692) 
-0.43366984265799802

>  <r_i_glide_lipo>  (692) 
-2.2064607583806199

>  <r_i_glide_metal>  (692) 
-0

>  <r_i_glide_rewards>  (692) 
-0.52767899999999801

>  <r_lp_Energy>  (692) 
16.679435999999999

>  <r_lp_tautomer_probability>  (692) 
0.99999274205267796

>  <r_qp_ACxDN^.5/SA>  (692) 
0.0096707000000000008

>  <r_qp_CIQPlogS>  (692) 
-3.798

>  <r_qp_EA(eV)>  (692) 
0.048000000000000001

>  <r_qp_FISA>  (692) 
43.984999999999999

>  <r_qp_FOSA>  (692) 
376.803

>  <r_qp_IP(eV)>  (692) 
8.0199999999999996

>  <r_qp_Jm>  (692) 
0.00064239966745375599

>  <r_qp_PISA>  (692) 
339.71600000000001

>  <r_qp_PSA>  (692) 
49.909999999999997

>  <r_qp_PercentHumanOralAbsorption>  (692) 
92.938000000000002

>  <r_qp_QPPCaco>  (692) 
168.54400000000001

>  <r_qp_QPPMDCK>  (692) 
220.73099999999999

>  <r_qp_QPlogBB>  (692) 
0.42999999999999999

>  <r_qp_QPlogHERG>  (692) 
-6.9660000000000002

>  <r_qp_QPlogKhsa>  (692) 
0.69199999999999995

>  <r_qp_QPlogKp>  (692) 
-4.3949999999999996

>  <r_qp_QPlogPC16>  (692) 
15.327

>  <r_qp_QPlogPo/w>  (692) 
4.4640000000000004

>  <r_qp_QPlogPoct>  (692) 
22.323

>  <r_qp_QPlogPw>  (692) 
11.997999999999999

>  <r_qp_QPlogS>  (692) 
-4.423

>  <r_qp_QPpolrz>  (692) 
49.203000000000003

>  <r_qp_SASA>  (692) 
804.30100000000004

>  <r_qp_SAamideO>  (692) 
18.326000000000001

>  <r_qp_SAfluorine>  (692) 
0

>  <r_qp_WPSA>  (692) 
43.795999999999999

>  <r_qp_accptHB>  (692) 
5.5

>  <r_qp_dip^2/V>  (692) 
0.030434200000000002

>  <r_qp_dipole>  (692) 
6.6349999999999998

>  <r_qp_donorHB>  (692) 
2

>  <r_qp_glob>  (692) 
0.7690844

>  <r_qp_mol_MW>  (692) 
421.59899999999999

>  <r_qp_volume>  (692) 
1446.575

>  <r_sd_BIOSOLVEIT.INFINISEE\_FTREES\_SIMILARITY>  (692) 
0.90200000000000002

>  <r_sd_BIOSOLVEIT.LOGP>  (692) 
3.5987

>  <r_sd_BIOSOLVEIT.MOLECULAR\_WEIGHT>  (692) 
422.613

>  <r_sd_BIOSOLVEIT.TPSA>  (692) 
45.57

>  <i_epik_Tot_Q>  (692) 
1

>  <i_epik_Tot_abs_Q>  (692) 
1

>  <i_f3d_flags>  (692) 
0

>  <i_i_glide_confnum>  (692) 
7

>  <i_i_glide_lignum>  (692) 
98

>  <i_i_glide_posenum>  (692) 
17

>  <i_i_glide_rotatable_bonds>  (692) 
10

>  <i_lp_mmshare_version>  (692) 
65135

>  <i_m_ct_format>  (692) 
2

>  <i_m_source_file_index>  (692) 
3036

>  <i_qp_#NandO>  (692) 
4

>  <i_qp_#acid>  (692) 
0

>  <i_qp_#amide>  (692) 
1

>  <i_qp_#amidine>  (692) 
0

>  <i_qp_#amine>  (692) 
2

>  <i_qp_#in34>  (692) 
0

>  <i_qp_#in56>  (692) 
17

>  <i_qp_#metab>  (692) 
7

>  <i_qp_#nonHatm>  (692) 
30

>  <i_qp_#noncon>  (692) 
0

>  <i_qp_#ringatoms>  (692) 
17

>  <i_qp_#rotor>  (692) 
9

>  <i_qp_#rtvFG>  (692) 
0

>  <i_qp_#stars>  (692) 
0

>  <i_qp_CNS>  (692) 
1

>  <i_qp_HumanOralAbsorption>  (692) 
3

>  <i_qp_RuleOfFive>  (692) 
0

>  <i_qp_RuleOfThree>  (692) 
1

>  <i_sd_BIOSOLVEIT.INFINISEE\_RESULT\_RANK>  (692) 
89843

>  <i_sd_version>  (692) 
0

>  <b_lp_Chiralities_Consistent>  (692) 
1

>  <b_sd_chiral_flag>  (692) 
0

>  <canonical_id>  (692) 
ATP-HTVS-6B6B8E0C727E

>  <compound_code>  (692) 
97122

>  <title>  (692) 
rxn512b____EMOL5758830____EMOL15801711____EMOL2873214

>  <variant>  (692) 
97122-1

>  <source_file>  (692) 
运行/运行/ATP-VSW/ATP-VSW-DOCK_HTVS_1-003_lib/ATP-VSW-DOCK_HTVS_1-003_lib.mae

>  <canonical_smiles>  (692) 
C[NH+](C)Cc1cccc(CNc2csc(CC(=O)NC(C)(C)c3ccccc3)c2)c1

>  <scaffold>  (692) 
O=C(Cc1cc(NCc2ccccc2)cs1)NCc1ccccc1

>  <molecular_formula>  (692) 
C25H32N3OS+

$$$$
ATP-HTVS-6B709F2DA304
     RDKit          3D

 54 56  0  0  0  0  0  0  0  0999 V2000
  197.0682  186.6564  160.1381 O   0  0  0  0  0  0  0  0  0  0  0  0
  196.9212  185.4476  159.4917 C   0  0  0  0  0  0  0  0  0  0  0  0
  198.0885  184.6726  159.3279 C   0  0  0  0  0  0  0  0  0  0  0  0
  198.0397  183.4099  158.7068 C   0  0  0  0  0  0  0  0  0  0  0  0
  196.8033  182.8983  158.2573 C   0  0  0  0  0  0  0  0  0  0  0  0
  195.6327  183.6597  158.4222 C   0  0  0  0  0  0  0  0  0  0  0  0
  195.6902  184.9415  159.0081 C   0  0  0  0  0  0  0  0  0  0  0  0
  196.7286  181.5253  157.6156 C   0  0  1  0  0  0  0  0  0  0  0  0
  197.3821  181.4374  156.3212 N   0  0  0  0  0  0  0  0  0  0  0  0
  196.5123  181.9213  155.2583 C   0  0  1  0  0  0  0  0  0  0  0  0
  197.0128  181.6130  153.8690 C   0  0  0  0  0  0  0  0  0  0  0  0
  197.8956  180.5822  153.4276 C   0  0  0  0  0  0  0  0  0  0  0  0
  198.5033  179.6428  154.2269 O   0  0  0  0  0  0  0  0  0  0  0  0
  199.4807  178.7879  153.6447 C   0  0  1  0  0  0  0  0  0  0  0  0
  200.1204  177.8789  154.6781 C   0  0  0  0  0  0  0  0  0  0  0  0
  199.7568  177.9685  156.0401 C   0  0  0  0  0  0  0  0  0  0  0  0
  200.3584  177.1262  156.9922 C   0  0  0  0  0  0  0  0  0  0  0  0
  201.3281  176.1878  156.5908 C   0  0  0  0  0  0  0  0  0  0  0  0
  201.6910  176.0889  155.2341 C   0  0  0  0  0  0  0  0  0  0  0  0
  201.0888  176.9306  154.2781 C   0  0  0  0  0  0  0  0  0  0  0  0
  198.0795  180.5854  152.1117 N   0  0  0  0  0  0  0  0  0  0  0  0
  197.3289  181.6156  151.6754 N   0  0  0  0  0  0  0  0  0  0  0  0
  196.6760  182.2500  152.7084 C   0  0  0  0  0  0  0  0  0  0  0  0
  197.2942  181.9174  150.2616 C   0  0  2  0  0  0  0  0  0  0  0  0
  195.9705  187.5532  160.2561 C   0  0  2  0  0  0  0  0  0  0  0  0
  196.5482  188.8911  160.7452 C   0  0  2  0  0  0  0  0  0  0  0  0
  194.9135  187.0405  161.2517 C   0  0  2  0  0  0  0  0  0  0  0  0
  197.6210  180.4674  156.1506 H   0  0  0  0  0  0  0  0  0  0  0  0
  199.0357  185.0559  159.6798 H   0  0  0  0  0  0  0  0  0  0  0  0
  198.9457  182.8351  158.5738 H   0  0  0  0  0  0  0  0  0  0  0  0
  194.6868  183.2564  158.0877 H   0  0  0  0  0  0  0  0  0  0  0  0
  194.7719  185.5103  159.0968 H   0  0  0  0  0  0  0  0  0  0  0  0
  197.1960  180.8159  158.2903 H   0  0  0  0  0  0  0  0  0  0  0  0
  195.6829  181.2213  157.5309 H   0  0  0  0  0  0  0  0  0  0  0  0
  195.5295  181.4579  155.3852 H   0  0  0  0  0  0  0  0  0  0  0  0
  196.3555  182.9914  155.3963 H   0  0  0  0  0  0  0  0  0  0  0  0
  199.0221  178.1727  152.8691 H   0  0  0  0  0  0  0  0  0  0  0  0
  200.2678  179.3805  153.1736 H   0  0  0  0  0  0  0  0  0  0  0  0
  199.0126  178.6719  156.3781 H   0  0  0  0  0  0  0  0  0  0  0  0
  200.0623  177.2044  158.0279 H   0  0  0  0  0  0  0  0  0  0  0  0
  201.7873  175.5403  157.3195 H   0  0  0  0  0  0  0  0  0  0  0  0
  202.4339  175.3653  154.9324 H   0  0  0  0  0  0  0  0  0  0  0  0
  201.3755  176.8502  153.2400 H   0  0  0  0  0  0  0  0  0  0  0  0
  196.0121  183.0850  152.5400 H   0  0  0  0  0  0  0  0  0  0  0  0
  196.6371  182.7681  150.0764 H   0  0  0  0  0  0  0  0  0  0  0  0
  196.9266  181.0532  149.7066 H   0  0  0  0  0  0  0  0  0  0  0  0
  198.2991  182.1635  149.9173 H   0  0  0  0  0  0  0  0  0  0  0  0
  195.5406  187.7110  159.2720 H   0  0  0  0  0  0  0  0  0  0  0  0
  195.7720  189.6497  160.8365 H   0  0  0  0  0  0  0  0  0  0  0  0
  197.3058  189.2770  160.0654 H   0  0  0  0  0  0  0  0  0  0  0  0
  197.0174  188.7867  161.7229 H   0  0  0  0  0  0  0  0  0  0  0  0
  194.1196  187.7779  161.3896 H   0  0  0  0  0  0  0  0  0  0  0  0
  195.3606  186.8724  162.2330 H   0  0  0  0  0  0  0  0  0  0  0  0
  194.4431  186.1030  160.9212 H   0  0  0  0  0  0  0  0  0  0  0  0
  1  2  1  0
  1 25  1  0
  2  3  1  0
  2  7  2  0
  3  4  2  0
  3 29  1  0
  4  5  1  0
  4 30  1  0
  5  6  2  0
  5  8  1  0
  6  7  1  0
  6 31  1  0
  7 32  1  0
  8  9  1  0
  8 33  1  1
  8 34  1  0
  9 10  1  0
  9 28  1  0
 10 11  1  0
 10 35  1  1
 10 36  1  0
 11 12  1  0
 11 23  2  0
 12 13  1  0
 12 21  2  0
 13 14  1  0
 14 15  1  0
 14 37  1  6
 14 38  1  0
 15 16  2  0
 15 20  1  0
 16 17  1  0
 16 39  1  0
 17 18  2  0
 17 40  1  0
 18 19  1  0
 18 41  1  0
 19 20  2  0
 19 42  1  0
 20 43  1  0
 21 22  1  0
 22 23  1  0
 22 24  1  0
 23 44  1  0
 24 45  1  1
 24 46  1  0
 24 47  1  0
 25 26  1  0
 25 27  1  0
 25 48  1  6
 26 49  1  1
 26 50  1  0
 26 51  1  0
 27 52  1  1
 27 53  1  0
 27 54  1  0
M  END
>  <s_epik_cmdline>  (693) 
J2VwaWtfcHl0aG9uJywgJy1waCcsICc3LjAwMDAwMCcsICctcGh0JywgJzIuMDAwMDAwJywgJy1tcycsICcxNicsICctdG4nLCAnOCcsICctbWEnLCAnMjAwJywgJy1pbWFlJywgJzxpbmZpbGUubWFlPicsICctb21hZScsICc8b3V0ZmlsZS5tYWU+Jw==

>  <s_epik_input>  (693) 
W0NIM11bQ0hdKFtDSDNdKU9jMVtjSF1bY0hdYyhbY0hdW2NIXTEpW0NIMl1bTkhdW0NIMl1jMmMobm4oW2NIXTIpW0NIM10pT1tDSDJdYzNbY0hdW2NIXVtjSF1bY0hdW2NIXTM=

>  <s_i_glide_gridfile>  (693) 
ATP-Grid

>  <s_lp_Force_Field>  (693) 
OPLS_2005

>  <s_lp_Variant>  (693) 
m_270004bbb____24792678____7548188-2

>  <s_lp_label>  (693) 
1975_sdstereoexpander_1_neutralizer_1_epik_2_stereoizer_1

>  <s_m_source_file>  (693) 
ATP-VSW-LIGPREP-003-in.maegz

>  <s_sd_BIOSOLVEIT.INFINISEE\_QUERY\_NAME>  (693) 
Ref-Lig

>  <s_sd_BIOSOLVEIT.INFINISEE\_QUERY\_SMILES>  (693) 
S(c1nc2c(cc1C[NH2+]Cc3ccc(cc3)C[NH+](C)C)cccc2)Cc4ccccc4

>  <s_sd_BIOSOLVEIT.INFINISEE\_REACTION\_NAME>  (693) 
m_270004bbb

>  <s_sd_BIOSOLVEIT.INFINISEE\_REAGENT1\_SMILES>  (693) 
[R1*]NCC=1C(OCc2ccccc2)=NN(C1)C

>  <s_sd_BIOSOLVEIT.INFINISEE\_REAGENT2\_SMILES>  (693) 
[R1*]Cc1ccc(OC(C)C)cc1

>  <s_sd_BIOSOLVEIT.INFINISEE\_SPACE>  (693) 
REALSpace_44bn_2023-08

>  <s_vsw_compound_code>  (693) 
63171

>  <s_vsw_variant>  (693) 
63171-2

>  <r_epik_Charging_Adjusted_Penalty>  (693) 
1.2919275178257099

>  <r_epik_Ionization_Penalty>  (693) 
1.3671

>  <r_epik_Ionization_Penalty_Charging>  (693) 
0

>  <r_epik_Ionization_Penalty_Neutral>  (693) 
1.3671

>  <r_epik_State_Penalty>  (693) 
1.2919

>  <r_i_docking_score>  (693) 
-2.0302821305491099

>  <r_i_glide_ecoul>  (693) 
-3.27147364616394

>  <r_i_glide_eff_state_penalty>  (693) 
1.2919

>  <r_i_glide_einternal>  (693) 
1.7583539485931401

>  <r_i_glide_emodel>  (693) 
-44.923665245265703

>  <r_i_glide_energy>  (693) 
-37.532089948654203

>  <r_i_glide_erotb>  (693) 
1.1521670282538199

>  <r_i_glide_esite>  (693) 
0

>  <r_i_glide_evdw>  (693) 
-34.260616302490199

>  <r_i_glide_gscore>  (693) 
-3.3221821305491099

>  <r_i_glide_hbond>  (693) 
0

>  <r_i_glide_ligand_efficiency>  (693) 
-0.075195634464781794

>  <r_i_glide_ligand_efficiency_ln>  (693) 
-0.47261620817494598

>  <r_i_glide_ligand_efficiency_sa>  (693) 
-0.225586903146513

>  <r_i_glide_lipo>  (693) 
-1.32590405289515

>  <r_i_glide_metal>  (693) 
-0

>  <r_i_glide_rewards>  (693) 
-0.94469324385866904

>  <r_lp_Energy>  (693) 
19.268898

>  <r_lp_tautomer_probability>  (693) 
1

>  <r_qp_ACxDN^.5/SA>  (693) 
0.0059966999999999998

>  <r_qp_CIQPlogS>  (693) 
-5.1120000000000001

>  <r_qp_EA(eV)>  (693) 
-0.43099999999999999

>  <r_qp_FISA>  (693) 
28.954999999999998

>  <r_qp_FOSA>  (693) 
335.19600000000003

>  <r_qp_IP(eV)>  (693) 
8.5410000000000004

>  <r_qp_Jm>  (693) 
0.411280274095006

>  <r_qp_PISA>  (693) 
261.19799999999998

>  <r_qp_PSA>  (693) 
38.976999999999997

>  <r_qp_PercentHumanOralAbsorption>  (693) 
100

>  <r_qp_QPPCaco>  (693) 
1312.8630000000001

>  <r_qp_QPPMDCK>  (693) 
734.53200000000004

>  <r_qp_QPlogBB>  (693) 
0.16300000000000001

>  <r_qp_QPlogHERG>  (693) 
-5.657

>  <r_qp_QPlogKhsa>  (693) 
0.753

>  <r_qp_QPlogKp>  (693) 
-2.3319999999999999

>  <r_qp_QPlogPC16>  (693) 
11.548999999999999

>  <r_qp_QPlogPo/w>  (693) 
4.7560000000000002

>  <r_qp_QPlogPoct>  (693) 
15.727

>  <r_qp_QPlogPw>  (693) 
6.3710000000000004

>  <r_qp_QPlogS>  (693) 
-3.617

>  <r_qp_QPpolrz>  (693) 
38.058999999999997

>  <r_qp_SASA>  (693) 
625.34900000000005

>  <r_qp_SAamideO>  (693) 
0

>  <r_qp_SAfluorine>  (693) 
0

>  <r_qp_WPSA>  (693) 
0

>  <r_qp_accptHB>  (693) 
3.75

>  <r_qp_dip^2/V>  (693) 
0.015536599999999999

>  <r_qp_dipole>  (693) 
4.2939999999999996

>  <r_qp_donorHB>  (693) 
1

>  <r_qp_glob>  (693) 
0.8669036

>  <r_qp_mol_MW>  (693) 
365.47399999999999

>  <r_qp_volume>  (693) 
1186.8409999999999

>  <r_sd_BIOSOLVEIT.INFINISEE\_FTREES\_SIMILARITY>  (693) 
0.90200000000000002

>  <r_sd_BIOSOLVEIT.LOGP>  (693) 
3.0499000000000001

>  <r_sd_BIOSOLVEIT.MOLECULAR\_WEIGHT>  (693) 
366.48200000000003

>  <r_sd_BIOSOLVEIT.TPSA>  (693) 
52.890000000000001

>  <i_epik_Tot_Q>  (693) 
0

>  <i_epik_Tot_abs_Q>  (693) 
0

>  <i_f3d_flags>  (693) 
0

>  <i_i_glide_confnum>  (693) 
9

>  <i_i_glide_lignum>  (693) 
744

>  <i_i_glide_posenum>  (693) 
14

>  <i_i_glide_rotatable_bonds>  (693) 
9

>  <i_lp_mmshare_version>  (693) 
65135

>  <i_m_ct_format>  (693) 
2

>  <i_m_source_file_index>  (693) 
1975

>  <i_qp_#NandO>  (693) 
5

>  <i_qp_#acid>  (693) 
0

>  <i_qp_#amide>  (693) 
0

>  <i_qp_#amidine>  (693) 
0

>  <i_qp_#amine>  (693) 
1

>  <i_qp_#in34>  (693) 
0

>  <i_qp_#in56>  (693) 
17

>  <i_qp_#metab>  (693) 
6

>  <i_qp_#nonHatm>  (693) 
27

>  <i_qp_#noncon>  (693) 
0

>  <i_qp_#ringatoms>  (693) 
17

>  <i_qp_#rotor>  (693) 
9

>  <i_qp_#rtvFG>  (693) 
0

>  <i_qp_#stars>  (693) 
0

>  <i_qp_CNS>  (693) 
1

>  <i_qp_HumanOralAbsorption>  (693) 
3

>  <i_qp_RuleOfFive>  (693) 
0

>  <i_qp_RuleOfThree>  (693) 
0

>  <i_sd_BIOSOLVEIT.INFINISEE\_REAGENT1\_NAME>  (693) 
24792678

>  <i_sd_BIOSOLVEIT.INFINISEE\_REAGENT2\_NAME>  (693) 
7548188

>  <i_sd_BIOSOLVEIT.INFINISEE\_RESULT\_RANK>  (693) 
89006

>  <i_sd_version>  (693) 
0

>  <b_lp_Chiralities_Consistent>  (693) 
1

>  <b_sd_chiral_flag>  (693) 
0

>  <canonical_id>  (693) 
ATP-HTVS-6B709F2DA304

>  <compound_code>  (693) 
63171

>  <title>  (693) 
m_270004bbb____24792678____7548188

>  <variant>  (693) 
63171-2

>  <source_file>  (693) 
运行/运行/ATP-VSW/ATP-VSW-DOCK_HTVS_1-003_lib/ATP-VSW-DOCK_HTVS_1-003_lib.mae

>  <canonical_smiles>  (693) 
CC(C)Oc1ccc(CNCc2cn(C)nc2OCc2ccccc2)cc1

>  <scaffold>  (693) 
c1ccc(CNCc2c[nH]nc2OCc2ccccc2)cc1

>  <molecular_formula>  (693) 
C22H27N3O2

$$$$
ATP-HTVS-6BE395388015
     RDKit          3D

 68 71  0  0  0  0  0  0  0  0999 V2000
  199.1551  185.0835  152.8567 O   0  0  0  0  0  0  0  0  0  0  0  0
  198.2482  184.3073  153.1330 C   0  0  0  0  0  0  0  0  0  0  0  0
  197.2861  184.6511  154.0238 N   0  0  0  0  0  0  0  0  0  0  0  0
  197.3484  185.8434  154.8736 C   0  0  1  0  0  0  0  0  0  0  0  0
  198.1318  185.5678  156.1978 C   0  0  1  0  0  0  0  0  0  0  0  0
  198.3278  186.7526  157.0818 N   0  0  0  0  0  0  0  0  0  0  0  0
  199.2565  186.4677  158.2038 C   0  0  1  0  0  0  0  0  0  0  0  0
  198.8136  185.4752  159.3014 C   0  0  2  0  0  0  0  0  0  0  0  0
  198.8686  187.9134  156.3314 C   0  0  1  0  0  0  0  0  0  0  0  0
  198.7307  189.2429  157.1018 C   0  0  2  0  0  0  0  0  0  0  0  0
  197.4468  184.3787  156.9131 C   0  0  0  0  0  0  0  0  0  0  0  0
  197.8715  183.0571  156.6826 C   0  0  0  0  0  0  0  0  0  0  0  0
  197.2709  181.9752  157.3382 C   0  0  0  0  0  0  0  0  0  0  0  0
  196.2761  182.2206  158.3314 C   0  0  0  0  0  0  0  0  0  0  0  0
  195.8723  183.5325  158.5885 C   0  0  0  0  0  0  0  0  0  0  0  0
  196.4356  184.6057  157.8712 C   0  0  0  0  0  0  0  0  0  0  0  0
  198.0991  182.9220  152.6338 C   0  0  0  0  0  0  0  0  0  0  0  0
  198.5570  182.5389  151.3458 N   0  0  0  0  0  0  0  0  0  0  0  0
  198.1955  181.2618  150.8203 C   0  0  0  0  0  0  0  0  0  0  0  0
  197.5598  180.3080  151.6588 C   0  0  0  0  0  0  0  0  0  0  0  0
  197.1940  179.0370  151.1725 C   0  0  0  0  0  0  0  0  0  0  0  0
  197.4343  178.6898  149.8324 C   0  0  0  0  0  0  0  0  0  0  0  0
  198.0460  179.6195  148.9810 C   0  0  0  0  0  0  0  0  0  0  0  0
  198.4332  180.8773  149.4702 C   0  0  0  0  0  0  0  0  0  0  0  0
  197.2450  180.6413  153.0635 C   0  0  0  0  0  0  0  0  0  0  0  0
  196.7885  179.8248  153.8607 O   0  0  0  0  0  0  0  0  0  0  0  0
  197.4970  182.0251  153.4487 C   0  0  0  0  0  0  0  0  0  0  0  0
  199.5589  183.2756  150.5505 C   0  0  1  0  0  0  0  0  0  0  0  0
  199.0544  184.0454  149.3290 C   0  0  0  0  0  0  0  0  0  0  0  0
  199.9503  184.9074  148.6647 C   0  0  0  0  0  0  0  0  0  0  0  0
  199.5497  185.6083  147.5091 C   0  0  0  0  0  0  0  0  0  0  0  0
  198.2446  185.4356  147.0037 C   0  0  0  0  0  0  0  0  0  0  0  0
  197.3438  184.5850  147.6624 C   0  0  0  0  0  0  0  0  0  0  0  0
  197.7390  183.9013  148.8257 C   0  0  0  0  0  0  0  0  0  0  0  0
  200.5145  186.5519  146.8241 C   0  0  2  0  0  0  0  0  0  0  0  0
  196.5593  183.9664  154.2274 H   0  0  0  0  0  0  0  0  0  0  0  0
  197.7523  186.6553  154.2582 H   0  0  0  0  0  0  0  0  0  0  0  0
  196.3287  186.1176  155.1363 H   0  0  0  0  0  0  0  0  0  0  0  0
  199.1212  185.2153  155.9161 H   0  0  0  0  0  0  0  0  0  0  0  0
  200.2193  186.1689  157.7882 H   0  0  0  0  0  0  0  0  0  0  0  0
  199.4298  187.3930  158.7455 H   0  0  0  0  0  0  0  0  0  0  0  0
  199.5094  185.4650  160.1378 H   0  0  0  0  0  0  0  0  0  0  0  0
  198.7404  184.4609  158.9042 H   0  0  0  0  0  0  0  0  0  0  0  0
  197.8432  185.7851  159.6992 H   0  0  0  0  0  0  0  0  0  0  0  0
  199.9088  187.7266  156.0534 H   0  0  0  0  0  0  0  0  0  0  0  0
  198.3372  188.1179  155.4010 H   0  0  0  0  0  0  0  0  0  0  0  0
  199.0876  190.0733  156.4880 H   0  0  0  0  0  0  0  0  0  0  0  0
  199.3024  189.2759  158.0314 H   0  0  0  0  0  0  0  0  0  0  0  0
  197.6799  189.4388  157.3316 H   0  0  0  0  0  0  0  0  0  0  0  0
  198.6644  182.8704  155.9689 H   0  0  0  0  0  0  0  0  0  0  0  0
  197.5969  180.9707  157.1654 H   0  0  0  0  0  0  0  0  0  0  0  0
  195.9071  181.4025  158.9135 H   0  0  0  0  0  0  0  0  0  0  0  0
  195.1951  183.7391  159.4073 H   0  0  0  0  0  0  0  0  0  0  0  0
  196.0736  185.6178  158.0573 H   0  0  0  0  0  0  0  0  0  0  0  0
  196.7281  178.3181  151.8352 H   0  0  0  0  0  0  0  0  0  0  0  0
  197.1497  177.7170  149.4587 H   0  0  0  0  0  0  0  0  0  0  0  0
  198.2212  179.3718  147.9449 H   0  0  0  0  0  0  0  0  0  0  0  0
  198.8998  181.5364  148.7581 H   0  0  0  0  0  0  0  0  0  0  0  0
  197.1410  182.2471  154.4435 H   0  0  0  0  0  0  0  0  0  0  0  0
  200.1441  183.9703  151.1480 H   0  0  0  0  0  0  0  0  0  0  0  0
  200.3245  182.5659  150.2278 H   0  0  0  0  0  0  0  0  0  0  0  0
  200.9573  185.0222  149.0401 H   0  0  0  0  0  0  0  0  0  0  0  0
  197.9244  185.9752  146.1219 H   0  0  0  0  0  0  0  0  0  0  0  0
  196.3468  184.4418  147.2726 H   0  0  0  0  0  0  0  0  0  0  0  0
  197.0294  183.2412  149.3024 H   0  0  0  0  0  0  0  0  0  0  0  0
  200.2400  186.7006  145.7793 H   0  0  0  0  0  0  0  0  0  0  0  0
  201.5310  186.1582  146.8571 H   0  0  0  0  0  0  0  0  0  0  0  0
  200.5023  187.5202  147.3253 H   0  0  0  0  0  0  0  0  0  0  0  0
  1  2  2  0
  2  3  1  0
  2 17  1  0
  3  4  1  0
  3 36  1  0
  4  5  1  0
  4 37  1  6
  4 38  1  0
  5  6  1  0
  5 11  1  0
  5 39  1  6
  6  7  1  0
  6  9  1  0
  7  8  1  0
  7 40  1  6
  7 41  1  0
  8 42  1  1
  8 43  1  0
  8 44  1  0
  9 10  1  0
  9 45  1  6
  9 46  1  0
 10 47  1  6
 10 48  1  0
 10 49  1  0
 11 12  2  0
 11 16  1  0
 12 13  1  0
 12 50  1  0
 13 14  2  0
 13 51  1  0
 14 15  1  0
 14 52  1  0
 15 16  2  0
 15 53  1  0
 16 54  1  0
 17 18  1  0
 17 27  2  0
 18 19  1  0
 18 28  1  0
 19 20  1  0
 19 24  2  0
 20 21  2  0
 20 25  1  0
 21 22  1  0
 21 55  1  0
 22 23  2  0
 22 56  1  0
 23 24  1  0
 23 57  1  0
 24 58  1  0
 25 26  2  0
 25 27  1  0
 27 59  1  0
 28 29  1  0
 28 60  1  1
 28 61  1  0
 29 30  1  0
 29 34  2  0
 30 31  2  0
 30 62  1  0
 31 32  1  0
 31 35  1  0
 32 33  2  0
 32 63  1  0
 33 34  1  0
 33 64  1  0
 34 65  1  0
 35 66  1  6
 35 67  1  0
 35 68  1  0
M  END
>  <s_epik_cmdline>  (694) 
J2VwaWtfcHl0aG9uJywgJy1waCcsICc3LjAwMDAwMCcsICctcGh0JywgJzIuMDAwMDAwJywgJy1tcycsICcxNicsICctdG4nLCAnOCcsICctbWEnLCAnMjAwJywgJy1pbWFlJywgJzxpbmZpbGUubWFlPicsICctb21hZScsICc8b3V0ZmlsZS5tYWU+Jw==

>  <s_epik_input>  (694) 
W2NIXTFbY0hdW2NIXWMoW0NIM10pW2NIXWMxW0NIMl1uMmMoW2NIXWMoPU8pYyhjMjMpW2NIXVtjSF1bY0hdW2NIXTMpQyg9TylbTkhdW0NIMl1bQ0BASF0oTihbQ0gyXVtDSDNdKVtDSDJdW0NIM10pYzRbY0hdW2NIXVtjSF1bY0hdW2NIXTQ=

>  <s_i_glide_gridfile>  (694) 
ATP-Grid

>  <s_lp_Force_Field>  (694) 
OPLS_2005

>  <s_lp_Variant>  (694) 
YAS_R012____OTV5753507____OTV998646____OTV7020410249-4

>  <s_lp_label>  (694) 
164_sdstereoexpander_2_neutralizer_1_epik_2_stereoizer_1

>  <s_m_source_file>  (694) 
ATP-VSW-LIGPREP-002-in.maegz

>  <s_sd_BIOSOLVEIT.INFINISEE\_QUERY\_NAME>  (694) 
Ref-Lig

>  <s_sd_BIOSOLVEIT.INFINISEE\_QUERY\_SMILES>  (694) 
S(c1nc2c(cc1C[NH2+]Cc3ccc(cc3)C[NH+](C)C)cccc2)Cc4ccccc4

>  <s_sd_BIOSOLVEIT.INFINISEE\_REACTION\_NAME>  (694) 
YAS_R012

>  <s_sd_BIOSOLVEIT.INFINISEE\_REAGENT1\_NAME>  (694) 
OTV5753507

>  <s_sd_BIOSOLVEIT.INFINISEE\_REAGENT1\_SMILES>  (694) 
Nc1ccccc1

>  <s_sd_BIOSOLVEIT.INFINISEE\_REAGENT2\_NAME>  (694) 
OTV998646

>  <s_sd_BIOSOLVEIT.INFINISEE\_REAGENT2\_SMILES>  (694) 
ClCc1cc(ccc1)C

>  <s_sd_BIOSOLVEIT.INFINISEE\_REAGENT3\_NAME>  (694) 
OTV7020410249

>  <s_sd_BIOSOLVEIT.INFINISEE\_REAGENT3\_SMILES>  (694) 
N(C(c1ccccc1)CN)(CC)CC

>  <s_sd_BIOSOLVEIT.INFINISEE\_SPACE>  (694) 
CHEMriya_12bn_2022-01

>  <s_vsw_compound_code>  (694) 
5218

>  <s_vsw_variant>  (694) 
5218-4

>  <r_epik_Charging_Adjusted_Penalty>  (694) 
1.3355796990922499

>  <r_epik_Ionization_Penalty>  (694) 
1.3355999999999999

>  <r_epik_Ionization_Penalty_Charging>  (694) 
0

>  <r_epik_Ionization_Penalty_Neutral>  (694) 
1.3355999999999999

>  <r_epik_State_Penalty>  (694) 
1.3355999999999999

>  <r_i_docking_score>  (694) 
-1.3667673768133299

>  <r_i_glide_ecoul>  (694) 
-1.0974813699722299

>  <r_i_glide_eff_state_penalty>  (694) 
1.3355999999999999

>  <r_i_glide_einternal>  (694) 
4.3996472358703604

>  <r_i_glide_emodel>  (694) 
-38.569592376195502

>  <r_i_glide_energy>  (694) 
-34.735863327979999

>  <r_i_glide_erotb>  (694) 
0.64616582181743798

>  <r_i_glide_esite>  (694) 
-0.0076033103232516896

>  <r_i_glide_evdw>  (694) 
-33.638381958007798

>  <r_i_glide_gscore>  (694) 
-2.7023673768133301

>  <r_i_glide_hbond>  (694) 
0

>  <r_i_glide_ligand_efficiency>  (694) 
-0.039050496480380899

>  <r_i_glide_ligand_efficiency_ln>  (694) 
-0.30003577297811401

>  <r_i_glide_ligand_efficiency_sa>  (694) 
-0.127736763281729

>  <r_i_glide_lipo>  (694) 
-1.2734925849112899

>  <r_i_glide_metal>  (694) 
-0

>  <r_i_glide_rewards>  (694) 
-0.22089599999999801

>  <r_lp_Energy>  (694) 
35.303379

>  <r_qp_ACxDN^.5/SA>  (694) 
0.0092385000000000002

>  <r_qp_CIQPlogS>  (694) 
-6.1879999999999997

>  <r_qp_EA(eV)>  (694) 
0.71299999999999997

>  <r_qp_FISA>  (694) 
78.863

>  <r_qp_FOSA>  (694) 
322.13299999999998

>  <r_qp_IP(eV)>  (694) 
8.6509999999999998

>  <r_qp_Jm>  (694) 
0.010170814351278701

>  <r_qp_PISA>  (694) 
356.70699999999999

>  <r_qp_PSA>  (694) 
62.104999999999997

>  <r_qp_PercentHumanOralAbsorption>  (694) 
100

>  <r_qp_QPPCaco>  (694) 
441.51100000000002

>  <r_qp_QPPMDCK>  (694) 
226.18000000000001

>  <r_qp_QPlogBB>  (694) 
-0.34599999999999997

>  <r_qp_QPlogHERG>  (694) 
-6.7329999999999997

>  <r_qp_QPlogKhsa>  (694) 
0.873

>  <r_qp_QPlogKp>  (694) 
-2.915

>  <r_qp_QPlogPC16>  (694) 
15.167

>  <r_qp_QPlogPo/w>  (694) 
4.9900000000000002

>  <r_qp_QPlogPoct>  (694) 
23.012

>  <r_qp_QPlogPw>  (694) 
10.880000000000001

>  <r_qp_QPlogS>  (694) 
-4.7480000000000002

>  <r_qp_QPpolrz>  (694) 
50.665999999999997

>  <r_qp_SASA>  (694) 
757.70299999999997

>  <r_qp_SAamideO>  (694) 
0

>  <r_qp_SAfluorine>  (694) 
0

>  <r_qp_WPSA>  (694) 
0

>  <r_qp_accptHB>  (694) 
7

>  <r_qp_dip^2/V>  (694) 
0.069564699999999993

>  <r_qp_dipole>  (694) 
10.143000000000001

>  <r_qp_donorHB>  (694) 
1

>  <r_qp_glob>  (694) 
0.8285593

>  <r_qp_mol_MW>  (694) 
467.61000000000001

>  <r_qp_volume>  (694) 
1479.0609999999999

>  <r_sd_BIOSOLVEIT.INFINISEE\_FTREES\_SIMILARITY>  (694) 
0.90100000000000002

>  <r_sd_BIOSOLVEIT.LOGP>  (694) 
3.86402

>  <r_sd_BIOSOLVEIT.MOLECULAR\_WEIGHT>  (694) 
468.61799999999999

>  <r_sd_BIOSOLVEIT.TPSA>  (694) 
53.850000000000001

>  <i_epik_Tot_Q>  (694) 
0

>  <i_epik_Tot_abs_Q>  (694) 
0

>  <i_f3d_flags>  (694) 
0

>  <i_i_glide_confnum>  (694) 
3

>  <i_i_glide_lignum>  (694) 
124

>  <i_i_glide_posenum>  (694) 
13

>  <i_i_glide_rotatable_bonds>  (694) 
10

>  <i_lp_mmshare_version>  (694) 
65135

>  <i_m_ct_format>  (694) 
2

>  <i_m_source_file_index>  (694) 
164

>  <i_qp_#NandO>  (694) 
5

>  <i_qp_#acid>  (694) 
0

>  <i_qp_#amide>  (694) 
0

>  <i_qp_#amidine>  (694) 
0

>  <i_qp_#amine>  (694) 
1

>  <i_qp_#in34>  (694) 
0

>  <i_qp_#in56>  (694) 
22

>  <i_qp_#metab>  (694) 
7

>  <i_qp_#nonHatm>  (694) 
35

>  <i_qp_#noncon>  (694) 
0

>  <i_qp_#ringatoms>  (694) 
22

>  <i_qp_#rotor>  (694) 
9

>  <i_qp_#rtvFG>  (694) 
0

>  <i_qp_#stars>  (694) 
0

>  <i_qp_CNS>  (694) 
1

>  <i_qp_HumanOralAbsorption>  (694) 
3

>  <i_qp_RuleOfFive>  (694) 
0

>  <i_qp_RuleOfThree>  (694) 
1

>  <i_sd_BIOSOLVEIT.INFINISEE\_RESULT\_RANK>  (694) 
97324

>  <i_sd_version>  (694) 
0

>  <b_lp_Chiralities_Consistent>  (694) 
1

>  <b_sd_chiral_flag>  (694) 
0

>  <canonical_id>  (694) 
ATP-HTVS-6BE395388015

>  <compound_code>  (694) 
5218

>  <title>  (694) 
YAS_R012____OTV5753507____OTV998646____OTV7020410249

>  <variant>  (694) 
5218-4

>  <source_file>  (694) 
运行/运行/ATP-VSW/ATP-VSW-DOCK_HTVS_1-002_lib.maegz

>  <canonical_smiles>  (694) 
CCN(CC)[C@H](CNC(=O)c1cc(=O)c2ccccc2n1Cc1cccc(C)c1)c1ccccc1

>  <scaffold>  (694) 
O=C(NCCc1ccccc1)c1cc(=O)c2ccccc2n1Cc1ccccc1

>  <molecular_formula>  (694) 
C30H33N3O2

$$$$
ATP-HTVS-6BFC96102A75
     RDKit          3D

 51 54  0  0  0  0  0  0  0  0999 V2000
  193.2796  182.2074  158.5304 F   0  0  0  0  0  0  0  0  0  0  0  0
  194.4637  182.8465  158.6529 C   0  0  0  0  0  0  0  0  0  0  0  0
  195.6239  182.2561  158.1277 C   0  0  0  0  0  0  0  0  0  0  0  0
  196.8622  182.9077  158.2485 C   0  0  0  0  0  0  0  0  0  0  0  0
  197.9815  182.3593  157.7321 F   0  0  0  0  0  0  0  0  0  0  0  0
  196.9450  184.1421  158.9164 C   0  0  0  0  0  0  0  0  0  0  0  0
  195.7773  184.7485  159.4507 C   0  0  0  0  0  0  0  0  0  0  0  0
  194.5377  184.0820  159.3202 C   0  0  0  0  0  0  0  0  0  0  0  0
  195.8425  186.0684  160.1663 C   0  0  0  0  0  0  0  0  0  0  0  0
  195.0874  186.3241  161.1034 O   0  0  0  0  0  0  0  0  0  0  0  0
  196.7595  186.9106  159.6478 N   0  0  0  0  0  0  0  0  0  0  0  0
  197.0434  188.2811  159.9209 C   0  0  0  0  0  0  0  0  0  0  0  0
  198.0425  188.9190  159.1292 C   0  0  0  0  0  0  0  0  0  0  0  0
  198.6724  188.2014  158.0773 N   0  0  0  0  0  0  0  0  0  0  0  0
  199.8308  187.3898  158.2549 C   0  0  0  0  0  0  0  0  0  0  0  0
  200.2602  186.4473  157.2911 C   0  0  0  0  0  0  0  0  0  0  0  0
  201.3599  185.6029  157.5322 C   0  0  0  0  0  0  0  0  0  0  0  0
  202.0778  185.7085  158.7342 C   0  0  0  0  0  0  0  0  0  0  0  0
  201.6963  186.6671  159.6894 C   0  0  0  0  0  0  0  0  0  0  0  0
  200.5831  187.5009  159.4535 C   0  0  0  0  0  0  0  0  0  0  0  0
  197.9459  188.1956  156.7832 C   0  0  1  0  0  0  0  0  0  0  0  0
  198.8133  188.5189  155.6391 C   0  0  0  0  0  0  0  0  0  0  0  0
  199.5086  188.7631  154.7441 N   0  0  0  0  0  0  0  0  0  0  0  0
  197.0795  186.9352  156.5043 C   0  0  2  0  0  0  0  0  0  0  0  0
  198.4020  190.2668  159.4597 C   0  0  0  0  0  0  0  0  0  0  0  0
  197.7156  190.9282  160.5190 C   0  0  0  0  0  0  0  0  0  0  0  0
  196.7375  190.2832  161.1788 N   0  0  0  0  0  0  0  0  0  0  0  0
  196.3906  189.0074  160.9363 C   0  0  0  0  0  0  0  0  0  0  0  0
  198.0698  192.2372  160.9100 C   0  0  0  0  0  0  0  0  0  0  0  0
  199.1130  192.9089  160.2554 C   0  0  0  0  0  0  0  0  0  0  0  0
  199.7992  192.2743  159.2014 C   0  0  0  0  0  0  0  0  0  0  0  0
  199.4435  190.9667  158.7998 C   0  0  0  0  0  0  0  0  0  0  0  0
  195.5639  181.3175  157.5999 H   0  0  0  0  0  0  0  0  0  0  0  0
  197.9111  184.6157  158.9973 H   0  0  0  0  0  0  0  0  0  0  0  0
  193.6323  184.5258  159.7140 H   0  0  0  0  0  0  0  0  0  0  0  0
  197.2821  186.5434  158.8700 H   0  0  0  0  0  0  0  0  0  0  0  0
  199.7911  186.3176  156.3302 H   0  0  0  0  0  0  0  0  0  0  0  0
  201.6384  184.8769  156.7861 H   0  0  0  0  0  0  0  0  0  0  0  0
  202.9250  185.0571  158.9127 H   0  0  0  0  0  0  0  0  0  0  0  0
  202.2522  186.7653  160.6113 H   0  0  0  0  0  0  0  0  0  0  0  0
  200.3257  188.2265  160.2129 H   0  0  0  0  0  0  0  0  0  0  0  0
  197.2801  189.0507  156.8082 H   0  0  0  0  0  0  0  0  0  0  0  0
  196.6383  186.9916  155.5110 H   0  0  0  0  0  0  0  0  0  0  0  0
  196.2329  186.8161  157.1760 H   0  0  0  0  0  0  0  0  0  0  0  0
  197.6417  186.0027  156.5312 H   0  0  0  0  0  0  0  0  0  0  0  0
  195.6030  188.6208  161.5710 H   0  0  0  0  0  0  0  0  0  0  0  0
  197.5526  192.7512  161.7069 H   0  0  0  0  0  0  0  0  0  0  0  0
  199.3796  193.9135  160.5670 H   0  0  0  0  0  0  0  0  0  0  0  0
  200.6088  192.7987  158.7149 H   0  0  0  0  0  0  0  0  0  0  0  0
  200.0108  190.4941  158.0108 H   0  0  0  0  0  0  0  0  0  0  0  0
  196.2593  190.7653  161.9448 H   0  0  0  0  0  0  0  0  0  0  0  0
  1  2  1  0
  2  3  1  0
  2  8  2  0
  3  4  2  0
  3 33  1  0
  4  5  1  0
  4  6  1  0
  6  7  2  0
  6 34  1  0
  7  8  1  0
  7  9  1  0
  8 35  1  0
  9 10  2  0
  9 11  1  0
 11 12  1  0
 11 36  1  0
 12 13  2  0
 12 28  1  0
 13 14  1  0
 13 25  1  0
 14 15  1  0
 14 21  1  0
 15 16  2  0
 15 20  1  0
 16 17  1  0
 16 37  1  0
 17 18  2  0
 17 38  1  0
 18 19  1  0
 18 39  1  0
 19 20  2  0
 19 40  1  0
 20 41  1  0
 21 22  1  0
 21 24  1  0
 21 42  1  1
 22 23  3  0
 24 43  1  6
 24 44  1  0
 24 45  1  0
 25 26  1  0
 25 32  2  0
 26 27  1  0
 26 29  2  0
 27 28  2  0
 27 51  1  0
 28 46  1  0
 29 30  1  0
 29 47  1  0
 30 31  2  0
 30 48  1  0
 31 32  1  0
 31 49  1  0
 32 50  1  0
M  CHG  1  27   1
M  END
>  <s_epik_cmdline>  (695) 
J2VwaWtfcHl0aG9uJywgJy1waCcsICc3LjAwMDAwMCcsICctcGh0JywgJzIuMDAwMDAwJywgJy1tcycsICcxNicsICctdG4nLCAnOCcsICctbWEnLCAnMjAwJywgJy1pbWFlJywgJzxpbmZpbGUubWFlPicsICctb21hZScsICc8b3V0ZmlsZS5tYWU+Jw==

>  <s_epik_input>  (695) 
RmMxW2NIXWMoRilbY0hdYyhbY0hdMSlDKD1PKVtOSF1jKFtjSF1uYyhjMjMpW2NIXVtjSF1bY0hdW2NIXTMpYzJOKFtDQEBIXShDI04pW0NIM10pYzRbY0hdW2NIXVtjSF1bY0hdW2NIXTQ=

>  <s_i_glide_gridfile>  (695) 
ATP-Grid

>  <s_lp_Force_Field>  (695) 
OPLS_2005

>  <s_lp_Variant>  (695) 
rxn502b____EMOL495084____EMOL30488121____EMOL36790511-3

>  <s_lp_label>  (695) 
2845_sdstereoexpander_1_neutralizer_1_epik_2_stereoizer_1

>  <s_m_source_file>  (695) 
ATP-VSW-LIGPREP-001-in.maegz

>  <s_sd_BIOSOLVEIT.INFINISEE\_QUERY\_NAME>  (695) 
Ref-Lig

>  <s_sd_BIOSOLVEIT.INFINISEE\_QUERY\_SMILES>  (695) 
S(c1nc2c(cc1C[NH2+]Cc3ccc(cc3)C[NH+](C)C)cccc2)Cc4ccccc4

>  <s_sd_BIOSOLVEIT.INFINISEE\_REACTION\_NAME>  (695) 
rxn502b

>  <s_sd_BIOSOLVEIT.INFINISEE\_REAGENT1\_NAME>  (695) 
EMOL495084

>  <s_sd_BIOSOLVEIT.INFINISEE\_REAGENT1\_SMILES>  (695) 
Fc1cc(F)cc(c1)C(=O)O

>  <s_sd_BIOSOLVEIT.INFINISEE\_REAGENT2\_NAME>  (695) 
EMOL30488121

>  <s_sd_BIOSOLVEIT.INFINISEE\_REAGENT2\_SMILES>  (695) 
Brc1c(N)cnc2c1cccc2

>  <s_sd_BIOSOLVEIT.INFINISEE\_REAGENT3\_NAME>  (695) 
EMOL36790511

>  <s_sd_BIOSOLVEIT.INFINISEE\_REAGENT3\_SMILES>  (695) 
N#CC(Nc1ccccc1)C

>  <s_sd_BIOSOLVEIT.INFINISEE\_SPACE>  (695) 
eXplore_7tr_2022-12

>  <s_vsw_compound_code>  (695) 
91009

>  <s_vsw_variant>  (695) 
91009-3

>  <r_epik_Charging_Adjusted_Penalty>  (695) 
4.0670177451220102

>  <r_epik_Ionization_Penalty>  (695) 
2.0444

>  <r_epik_Ionization_Penalty_Charging>  (695) 
2.0335000000000001

>  <r_epik_Ionization_Penalty_Neutral>  (695) 
0.0109

>  <r_epik_State_Penalty>  (695) 
2.0335000000000001

>  <r_i_docking_score>  (695) 
-1.6809147643348401

>  <r_i_glide_ecoul>  (695) 
-3.61592674255371

>  <r_i_glide_eff_state_penalty>  (695) 
2.0335000000000001

>  <r_i_glide_einternal>  (695) 
0.59404039382934604

>  <r_i_glide_emodel>  (695) 
-49.144329043631103

>  <r_i_glide_energy>  (695) 
-38.008497238159201

>  <r_i_glide_erotb>  (695) 
0.53878356896981205

>  <r_i_glide_esite>  (695) 
-0.15300055337089799

>  <r_i_glide_evdw>  (695) 
-34.392570495605497

>  <r_i_glide_gscore>  (695) 
-3.71441476433484

>  <r_i_glide_hbond>  (695) 
0

>  <r_i_glide_ligand_efficiency>  (695) 
-0.052528586385463802

>  <r_i_glide_ligand_efficiency_ln>  (695) 
-0.37640263574051003

>  <r_i_glide_ligand_efficiency_sa>  (695) 
-0.166767866380718

>  <r_i_glide_lipo>  (695) 
-0.92390139262386295

>  <r_i_glide_metal>  (695) 
-0

>  <r_i_glide_rewards>  (695) 
-0.91427885114656304

>  <r_lp_Energy>  (695) 
39.430954999999997

>  <r_qp_ACxDN^.5/SA>  (695) 
0.0084063000000000002

>  <r_qp_CIQPlogS>  (695) 
-8.048

>  <r_qp_EA(eV)>  (695) 
1.4199999999999999

>  <r_qp_FISA>  (695) 
91.840000000000003

>  <r_qp_FOSA>  (695) 
72.418999999999997

>  <r_qp_IP(eV)>  (695) 
8.9100000000000001

>  <r_qp_Jm>  (695) 
0.0077047644111075501

>  <r_qp_PISA>  (695) 
409.12299999999999

>  <r_qp_PSA>  (695) 
66.242999999999995

>  <r_qp_PercentHumanOralAbsorption>  (695) 
100

>  <r_qp_QPPCaco>  (695) 
1333.461

>  <r_qp_QPPMDCK>  (695) 
1873.0250000000001

>  <r_qp_QPlogBB>  (695) 
-0.439

>  <r_qp_QPlogHERG>  (695) 
-5.8440000000000003

>  <r_qp_QPlogKhsa>  (695) 
0.67800000000000005

>  <r_qp_QPlogKp>  (695) 
-1.1950000000000001

>  <r_qp_QPlogPC16>  (695) 
12.989000000000001

>  <r_qp_QPlogPo/w>  (695) 
4.9450000000000003

>  <r_qp_QPlogPoct>  (695) 
20.195

>  <r_qp_QPlogPw>  (695) 
10.288

>  <r_qp_QPlogS>  (695) 
-6.5499999999999998

>  <r_qp_QPpolrz>  (695) 
43.609999999999999

>  <r_qp_SASA>  (695) 
654.26999999999998

>  <r_qp_SAamideO>  (695) 
0

>  <r_qp_SAfluorine>  (695) 
80.888000000000005

>  <r_qp_WPSA>  (695) 
80.888000000000005

>  <r_qp_accptHB>  (695) 
5.5

>  <r_qp_dip^2/V>  (695) 
0.0557058

>  <r_qp_dipole>  (695) 
8.3179999999999996

>  <r_qp_donorHB>  (695) 
1

>  <r_qp_glob>  (695) 
0.85411780000000004

>  <r_qp_mol_MW>  (695) 
428.44

>  <r_qp_volume>  (695) 
1242.1220000000001

>  <r_sd_BIOSOLVEIT.INFINISEE\_FTREES\_SIMILARITY>  (695) 
0.90500000000000003

>  <r_sd_BIOSOLVEIT.LOGP>  (695) 
5.81548

>  <r_sd_BIOSOLVEIT.MOLECULAR\_WEIGHT>  (695) 
428.44

>  <r_sd_BIOSOLVEIT.TPSA>  (695) 
69.019999999999996

>  <i_epik_Tot_Q>  (695) 
1

>  <i_epik_Tot_abs_Q>  (695) 
1

>  <i_f3d_flags>  (695) 
0

>  <i_i_glide_confnum>  (695) 
6

>  <i_i_glide_lignum>  (695) 
1306

>  <i_i_glide_posenum>  (695) 
12

>  <i_i_glide_rotatable_bonds>  (695) 
6

>  <i_lp_mmshare_version>  (695) 
65135

>  <i_m_ct_format>  (695) 
2

>  <i_m_source_file_index>  (695) 
2845

>  <i_qp_#NandO>  (695) 
5

>  <i_qp_#acid>  (695) 
0

>  <i_qp_#amide>  (695) 
0

>  <i_qp_#amidine>  (695) 
0

>  <i_qp_#amine>  (695) 
0

>  <i_qp_#in34>  (695) 
0

>  <i_qp_#in56>  (695) 
22

>  <i_qp_#metab>  (695) 
4

>  <i_qp_#nonHatm>  (695) 
32

>  <i_qp_#noncon>  (695) 
0

>  <i_qp_#ringatoms>  (695) 
22

>  <i_qp_#rotor>  (695) 
6

>  <i_qp_#rtvFG>  (695) 
0

>  <i_qp_#stars>  (695) 
1

>  <i_qp_CNS>  (695) 
0

>  <i_qp_HumanOralAbsorption>  (695) 
1

>  <i_qp_RuleOfFive>  (695) 
0

>  <i_qp_RuleOfThree>  (695) 
1

>  <i_sd_BIOSOLVEIT.INFINISEE\_RESULT\_RANK>  (695) 
68388

>  <i_sd_version>  (695) 
0

>  <b_lp_Chiralities_Consistent>  (695) 
1

>  <b_sd_chiral_flag>  (695) 
0

>  <canonical_id>  (695) 
ATP-HTVS-6BFC96102A75

>  <compound_code>  (695) 
91009

>  <title>  (695) 
rxn502b____EMOL495084____EMOL30488121____EMOL36790511

>  <variant>  (695) 
91009-3

>  <source_file>  (695) 
运行/运行/ATP-VSW/ATP-VSW-DOCK_HTVS_1-001_lib/ATP-VSW-DOCK_HTVS_1-001_lib

>  <canonical_smiles>  (695) 
C[C@H](C#N)N(c1ccccc1)c1c(NC(=O)c2cc(F)cc(F)c2)c[nH+]c2ccccc12

>  <scaffold>  (695) 
O=C(Nc1c[nH+]c2ccccc2c1Nc1ccccc1)c1ccccc1

>  <molecular_formula>  (695) 
C25H19F2N4O+

$$$$
ATP-HTVS-6C10A5B04019
     RDKit          3D

 64 67  0  0  0  0  0  0  0  0999 V2000
  194.5665  186.6708  161.8244 O   0  0  0  0  0  0  0  0  0  0  0  0
  194.7472  186.1234  160.5339 C   0  0  1  0  0  0  0  0  0  0  0  0
  196.0063  185.2506  160.5231 C   0  0  1  0  0  0  0  0  0  0  0  0
  196.3266  184.6969  159.1499 C   0  0  0  0  0  0  0  0  0  0  0  0
  196.9442  185.5177  158.1842 C   0  0  0  0  0  0  0  0  0  0  0  0
  197.2588  184.9996  156.9132 C   0  0  0  0  0  0  0  0  0  0  0  0
  196.9628  183.6556  156.5989 C   0  0  0  0  0  0  0  0  0  0  0  0
  196.3312  182.8413  157.5641 C   0  0  0  0  0  0  0  0  0  0  0  0
  196.0178  183.3577  158.8346 C   0  0  0  0  0  0  0  0  0  0  0  0
  197.2922  183.1086  155.2173 C   0  0  1  0  0  0  0  0  0  0  0  0
  197.7471  181.7218  155.1951 N   0  0  0  0  0  0  0  0  0  0  0  0
  198.8880  181.2972  155.8527 C   0  0  0  0  0  0  0  0  0  0  0  0
  198.9045  180.0231  156.2317 N   0  0  0  0  0  0  0  0  0  0  0  0
  199.9854  179.5762  156.9021 C   0  0  0  0  0  0  0  0  0  0  0  0
  199.9522  178.2384  157.3224 N   0  0  0  0  0  0  0  0  0  0  0  0
  200.9395  177.2906  156.8098 C   0  0  1  0  0  0  0  0  0  0  0  0
  201.2317  177.4005  155.3238 C   0  0  0  0  0  0  0  0  0  0  0  0
  200.3664  176.7876  154.3990 C   0  0  0  0  0  0  0  0  0  0  0  0
  200.6078  176.8720  153.0115 C   0  0  0  0  0  0  0  0  0  0  0  0
  199.6961  176.2502  152.1432 N   0  0  0  0  0  0  0  0  0  0  0  0
  199.9182  176.1332  150.7103 C   0  0  2  0  0  0  0  0  0  0  0  0
  198.5768  175.9399  149.9903 C   0  0  2  0  0  0  0  0  0  0  0  0
  200.8927  174.9901  150.3976 C   0  0  2  0  0  0  0  0  0  0  0  0
  201.7429  177.5898  152.5555 C   0  0  0  0  0  0  0  0  0  0  0  0
  202.6073  178.2138  153.4764 C   0  0  0  0  0  0  0  0  0  0  0  0
  202.3501  178.1237  154.8566 C   0  0  0  0  0  0  0  0  0  0  0  0
  201.0679  180.4428  157.1983 C   0  0  0  0  0  0  0  0  0  0  0  0
  200.9564  181.7826  156.7284 C   0  0  0  0  0  0  0  0  0  0  0  0
  199.8612  182.1873  156.0532 N   0  0  0  0  0  0  0  0  0  0  0  0
  202.0026  182.6952  157.0034 C   0  0  0  0  0  0  0  0  0  0  0  0
  203.1458  182.2895  157.7225 C   0  0  0  0  0  0  0  0  0  0  0  0
  203.2393  180.9616  158.1906 C   0  0  0  0  0  0  0  0  0  0  0  0
  202.1964  180.0527  157.9520 C   0  0  0  0  0  0  0  0  0  0  0  0
  195.2404  187.3218  161.9699 H   0  0  0  0  0  0  0  0  0  0  0  0
  193.8718  185.5323  160.2596 H   0  0  0  0  0  0  0  0  0  0  0  0
  194.8317  186.9355  159.8118 H   0  0  0  0  0  0  0  0  0  0  0  0
  196.8670  185.8223  160.8717 H   0  0  0  0  0  0  0  0  0  0  0  0
  195.8786  184.4196  161.2146 H   0  0  0  0  0  0  0  0  0  0  0  0
  197.1774  186.5462  158.4162 H   0  0  0  0  0  0  0  0  0  0  0  0
  197.7205  185.6410  156.1774 H   0  0  0  0  0  0  0  0  0  0  0  0
  196.0728  181.8166  157.3323 H   0  0  0  0  0  0  0  0  0  0  0  0
  195.5393  182.7167  159.5601 H   0  0  0  0  0  0  0  0  0  0  0  0
  196.4066  183.1995  154.5886 H   0  0  0  0  0  0  0  0  0  0  0  0
  198.0532  183.7402  154.7546 H   0  0  0  0  0  0  0  0  0  0  0  0
  197.0176  181.0216  155.1416 H   0  0  0  0  0  0  0  0  0  0  0  0
  198.9879  177.8817  157.4564 H   0  0  0  0  0  0  0  0  0  0  0  0
  201.8937  177.3609  157.3316 H   0  0  0  0  0  0  0  0  0  0  0  0
  200.5809  176.2783  157.0139 H   0  0  0  0  0  0  0  0  0  0  0  0
  199.5149  176.2439  154.7770 H   0  0  0  0  0  0  0  0  0  0  0  0
  198.9040  175.7659  152.5433 H   0  0  0  0  0  0  0  0  0  0  0  0
  200.3231  177.0736  150.3363 H   0  0  0  0  0  0  0  0  0  0  0  0
  198.7245  175.8963  148.9107 H   0  0  0  0  0  0  0  0  0  0  0  0
  197.9117  176.7768  150.1996 H   0  0  0  0  0  0  0  0  0  0  0  0
  198.0780  175.0238  150.3037 H   0  0  0  0  0  0  0  0  0  0  0  0
  201.0771  174.9187  149.3289 H   0  0  0  0  0  0  0  0  0  0  0  0
  200.4977  174.0315  150.7303 H   0  0  0  0  0  0  0  0  0  0  0  0
  201.8550  175.1309  150.8887 H   0  0  0  0  0  0  0  0  0  0  0  0
  201.9711  177.6813  151.5034 H   0  0  0  0  0  0  0  0  0  0  0  0
  203.4635  178.7669  153.1198 H   0  0  0  0  0  0  0  0  0  0  0  0
  203.0197  178.6079  155.5521 H   0  0  0  0  0  0  0  0  0  0  0  0
  201.9039  183.7197  156.6678 H   0  0  0  0  0  0  0  0  0  0  0  0
  203.9419  182.9899  157.9260 H   0  0  0  0  0  0  0  0  0  0  0  0
  204.1097  180.6331  158.7392 H   0  0  0  0  0  0  0  0  0  0  0  0
  202.2836  179.0626  158.3730 H   0  0  0  0  0  0  0  0  0  0  0  0
  1  2  1  0
  1 34  1  0
  2  3  1  0
  2 35  1  6
  2 36  1  0
  3  4  1  0
  3 37  1  1
  3 38  1  0
  4  5  1  0
  4  9  2  0
  5  6  2  0
  5 39  1  0
  6  7  1  0
  6 40  1  0
  7  8  2  0
  7 10  1  0
  8  9  1  0
  8 41  1  0
  9 42  1  0
 10 11  1  0
 10 43  1  6
 10 44  1  0
 11 12  1  0
 11 45  1  0
 12 13  2  0
 12 29  1  0
 13 14  1  0
 14 15  1  0
 14 27  2  0
 15 16  1  0
 15 46  1  0
 16 17  1  0
 16 47  1  1
 16 48  1  0
 17 18  1  0
 17 26  2  0
 18 19  2  0
 18 49  1  0
 19 20  1  0
 19 24  1  0
 20 21  1  0
 20 50  1  0
 21 22  1  0
 21 23  1  0
 21 51  1  6
 22 52  1  6
 22 53  1  0
 22 54  1  0
 23 55  1  6
 23 56  1  0
 23 57  1  0
 24 25  2  0
 24 58  1  0
 25 26  1  0
 25 59  1  0
 26 60  1  0
 27 28  1  0
 27 33  1  0
 28 29  2  0
 28 30  1  0
 30 31  2  0
 30 61  1  0
 31 32  1  0
 31 62  1  0
 32 33  2  0
 32 63  1  0
 33 64  1  0
M  END
>  <s_epik_cmdline>  (696) 
J2VwaWtfcHl0aG9uJywgJy1waCcsICc3LjAwMDAwMCcsICctcGh0JywgJzIuMDAwMDAwJywgJy1tcycsICcxNicsICctdG4nLCAnOCcsICctbWEnLCAnMjAwJywgJy1pbWFlJywgJzxpbmZpbGUubWFlPicsICctb21hZScsICc8b3V0ZmlsZS5tYWU+Jw==

>  <s_epik_input>  (696) 
W09IXVtDSDJdW0NIMl1jMVtjSF1bY0hdYyhbY0hdW2NIXTEpW0NIMl1bTkhdYyhuYyhjMjMpW2NIXVtjSF1bY0hdW2NIXTMpbmMyW05IXVtDSDJdYzRbY0hdYyhbTkhdW0NIXShbQ0gzXSlbQ0gzXSlbY0hdW2NIXVtjSF00

>  <s_i_glide_gridfile>  (696) 
ATP-Grid

>  <s_lp_Force_Field>  (696) 
OPLS_2005

>  <s_lp_Variant>  (696) 
m_282030aaa____21919794____22360182____21958260-3

>  <s_lp_label>  (696) 
1739_sdstereoexpander_1_neutralizer_1_epik_3_stereoizer_1

>  <s_m_source_file>  (696) 
ATP-VSW-LIGPREP-003-in.maegz

>  <s_sd_BIOSOLVEIT.INFINISEE\_QUERY\_NAME>  (696) 
Ref-Lig

>  <s_sd_BIOSOLVEIT.INFINISEE\_QUERY\_SMILES>  (696) 
S(c1nc2c(cc1C[NH2+]Cc3ccc(cc3)C[NH+](C)C)cccc2)Cc4ccccc4

>  <s_sd_BIOSOLVEIT.INFINISEE\_REACTION\_NAME>  (696) 
m_282030aaa

>  <s_sd_BIOSOLVEIT.INFINISEE\_REAGENT1\_SMILES>  (696) 
[R1*]NCc1cc(NC(C)C)ccc1

>  <s_sd_BIOSOLVEIT.INFINISEE\_REAGENT2\_SMILES>  (696) 
[R2*]c1nc([R1*])c2c(n1)cccc2

>  <s_sd_BIOSOLVEIT.INFINISEE\_REAGENT3\_SMILES>  (696) 
[R2*]NCc1ccc(cc1)CCO

>  <s_sd_BIOSOLVEIT.INFINISEE\_SPACE>  (696) 
REALSpace_44bn_2023-08

>  <s_vsw_compound_code>  (696) 
55619

>  <s_vsw_variant>  (696) 
55619-3

>  <r_epik_Charging_Adjusted_Penalty>  (696) 
2.15591280895126

>  <r_epik_Ionization_Penalty>  (696) 
2.3820999999999999

>  <r_epik_Ionization_Penalty_Charging>  (696) 
0

>  <r_epik_Ionization_Penalty_Neutral>  (696) 
2.3820999999999999

>  <r_epik_State_Penalty>  (696) 
2.1558999999999999

>  <r_i_docking_score>  (696) 
-1.5143963540765499

>  <r_i_glide_ecoul>  (696) 
-6.8025918006896999

>  <r_i_glide_eff_state_penalty>  (696) 
2.1558999999999999

>  <r_i_glide_einternal>  (696) 
4.8003907203674299

>  <r_i_glide_emodel>  (696) 
-46.599946187216098

>  <r_i_glide_energy>  (696) 
-39.6129822731018

>  <r_i_glide_erotb>  (696) 
0.92205772982852596

>  <r_i_glide_esite>  (696) 
-0.13368037316109399

>  <r_i_glide_evdw>  (696) 
-32.810390472412102

>  <r_i_glide_gscore>  (696) 
-3.6702963540765499

>  <r_i_glide_hbond>  (696) 
-0.16

>  <r_i_glide_ligand_efficiency>  (696) 
-0.045890798608380197

>  <r_i_glide_ligand_efficiency_ln>  (696) 
-0.33679390802194997

>  <r_i_glide_ligand_efficiency_sa>  (696) 
-0.14719631179574599

>  <r_i_glide_lipo>  (696) 
-1.2393650079290099

>  <r_i_glide_metal>  (696) 
-0

>  <r_i_glide_rewards>  (696) 
-0.39840040909090801

>  <r_lp_Energy>  (696) 
13.558506

>  <r_qp_ACxDN^.5/SA>  (696) 
0.016202899999999999

>  <r_qp_CIQPlogS>  (696) 
-6.9340000000000002

>  <r_qp_EA(eV)>  (696) 
0.68899999999999995

>  <r_qp_FISA>  (696) 
98.177000000000007

>  <r_qp_FOSA>  (696) 
277.19200000000001

>  <r_qp_IP(eV)>  (696) 
8.125

>  <r_qp_Jm>  (696) 
0.55014245927814798

>  <r_qp_PISA>  (696) 
328.209

>  <r_qp_PSA>  (696) 
76.963999999999999

>  <r_qp_PercentHumanOralAbsorption>  (696) 
100

>  <r_qp_QPPCaco>  (696) 
1161.153

>  <r_qp_QPPMDCK>  (696) 
581.41700000000003

>  <r_qp_QPlogBB>  (696) 
-1.0009999999999999

>  <r_qp_QPlogHERG>  (696) 
-5.492

>  <r_qp_QPlogKhsa>  (696) 
0.59599999999999997

>  <r_qp_QPlogKp>  (696) 
-1.117

>  <r_qp_QPlogPC16>  (696) 
14.879

>  <r_qp_QPlogPo/w>  (696) 
4.7469999999999999

>  <r_qp_QPlogPoct>  (696) 
24.087

>  <r_qp_QPlogPw>  (696) 
13.359

>  <r_qp_QPlogS>  (696) 
-4.7880000000000003

>  <r_qp_QPpolrz>  (696) 
45.146999999999998

>  <r_qp_SASA>  (696) 
703.57799999999997

>  <r_qp_SAamideO>  (696) 
0

>  <r_qp_SAfluorine>  (696) 
0

>  <r_qp_WPSA>  (696) 
0

>  <r_qp_accptHB>  (696) 
5.7000000000000002

>  <r_qp_dip^2/V>  (696) 
0.0192062

>  <r_qp_dipole>  (696) 
5.1479999999999997

>  <r_qp_donorHB>  (696) 
4

>  <r_qp_glob>  (696) 
0.85202420000000001

>  <r_qp_mol_MW>  (696) 
441.57499999999999

>  <r_qp_volume>  (696) 
1380.0619999999999

>  <r_sd_BIOSOLVEIT.INFINISEE\_FTREES\_SIMILARITY>  (696) 
0.90400000000000003

>  <r_sd_BIOSOLVEIT.LOGP>  (696) 
5.2091000000000003

>  <r_sd_BIOSOLVEIT.MOLECULAR\_WEIGHT>  (696) 
441.57600000000002

>  <r_sd_BIOSOLVEIT.TPSA>  (696) 
82.099999999999994

>  <i_epik_Tot_Q>  (696) 
0

>  <i_epik_Tot_abs_Q>  (696) 
0

>  <i_f3d_flags>  (696) 
0

>  <i_i_glide_confnum>  (696) 
10

>  <i_i_glide_lignum>  (696) 
647

>  <i_i_glide_posenum>  (696) 
16

>  <i_i_glide_rotatable_bonds>  (696) 
11

>  <i_lp_mmshare_version>  (696) 
65135

>  <i_m_ct_format>  (696) 
2

>  <i_m_source_file_index>  (696) 
1739

>  <i_qp_#NandO>  (696) 
6

>  <i_qp_#acid>  (696) 
0

>  <i_qp_#amide>  (696) 
0

>  <i_qp_#amidine>  (696) 
0

>  <i_qp_#amine>  (696) 
0

>  <i_qp_#in34>  (696) 
0

>  <i_qp_#in56>  (696) 
22

>  <i_qp_#metab>  (696) 
7

>  <i_qp_#nonHatm>  (696) 
33

>  <i_qp_#noncon>  (696) 
0

>  <i_qp_#ringatoms>  (696) 
22

>  <i_qp_#rotor>  (696) 
11

>  <i_qp_#rtvFG>  (696) 
0

>  <i_qp_#stars>  (696) 
0

>  <i_qp_CNS>  (696) 
-2

>  <i_qp_HumanOralAbsorption>  (696) 
3

>  <i_qp_RuleOfFive>  (696) 
0

>  <i_qp_RuleOfThree>  (696) 
1

>  <i_sd_BIOSOLVEIT.INFINISEE\_REAGENT1\_NAME>  (696) 
21919794

>  <i_sd_BIOSOLVEIT.INFINISEE\_REAGENT2\_NAME>  (696) 
22360182

>  <i_sd_BIOSOLVEIT.INFINISEE\_REAGENT3\_NAME>  (696) 
21958260

>  <i_sd_BIOSOLVEIT.INFINISEE\_RESULT\_RANK>  (696) 
74009

>  <i_sd_version>  (696) 
0

>  <b_lp_Chiralities_Consistent>  (696) 
1

>  <b_sd_chiral_flag>  (696) 
0

>  <canonical_id>  (696) 
ATP-HTVS-6C10A5B04019

>  <compound_code>  (696) 
55619

>  <title>  (696) 
m_282030aaa____21919794____22360182____21958260

>  <variant>  (696) 
55619-3

>  <source_file>  (696) 
运行/运行/ATP-VSW/ATP-VSW-DOCK_HTVS_1-003_lib/ATP-VSW-DOCK_HTVS_1-003_lib.mae

>  <canonical_smiles>  (696) 
CC(C)Nc1cccc(CNc2nc(NCc3ccc(CCO)cc3)nc3ccccc23)c1

>  <scaffold>  (696) 
c1ccc(CNc2nc(NCc3ccccc3)c3ccccc3n2)cc1

>  <molecular_formula>  (696) 
C27H31N5O

$$$$
ATP-HTVS-6C50DB0A272F
     RDKit          3D

 58 60  0  0  0  0  0  0  0  0999 V2000
  198.1883  187.1471  157.5865 O   0  0  0  0  0  0  0  0  0  0  0  0
  197.6600  187.2775  158.6949 C   0  0  0  0  0  0  0  0  0  0  0  0
  197.9373  188.3445  159.5032 N   0  0  0  0  0  0  0  0  0  0  0  0
  199.0863  189.2696  159.2367 C   0  0  2  0  0  0  0  0  0  0  0  0
  198.7418  190.4985  158.3660 C   0  0  0  0  0  0  0  0  0  0  0  0
  199.6341  190.9356  157.3488 C   0  0  0  0  0  0  0  0  0  0  0  0
  199.3435  192.0778  156.5742 C   0  0  0  0  0  0  0  0  0  0  0  0
  198.1585  192.8054  156.7871 C   0  0  0  0  0  0  0  0  0  0  0  0
  197.2652  192.3857  157.7931 C   0  0  0  0  0  0  0  0  0  0  0  0
  197.5561  191.2525  158.5823 C   0  0  0  0  0  0  0  0  0  0  0  0
  200.4008  188.5301  158.8282 C   0  0  2  0  0  0  0  0  0  0  0  0
  197.1169  188.7567  160.6712 C   0  0  2  0  0  0  0  0  0  0  0  0
  196.6984  186.1879  159.1882 C   0  0  0  0  0  0  0  0  0  0  0  0
  197.0125  184.7903  159.1519 C   0  0  0  0  0  0  0  0  0  0  0  0
  198.2444  184.2958  158.6523 N   0  0  0  0  0  0  0  0  0  0  0  0
  198.4677  183.1539  157.8522 C   0  0  0  0  0  0  0  0  0  0  0  0
  199.7997  182.8651  157.4536 C   0  0  0  0  0  0  0  0  0  0  0  0
  200.0983  181.7008  156.7065 C   0  0  0  0  0  0  0  0  0  0  0  0
  199.0647  180.8004  156.3721 C   0  0  0  0  0  0  0  0  0  0  0  0
  197.7357  181.1037  156.7230 C   0  0  0  0  0  0  0  0  0  0  0  0
  197.4319  182.2870  157.4256 C   0  0  0  0  0  0  0  0  0  0  0  0
  199.3592  179.5077  155.6298 C   0  0  1  0  0  0  0  0  0  0  0  0
  199.5531  178.3515  156.5349 N   0  0  1  0  0  0  0  0  0  0  0  0
  199.6501  177.0816  155.7965 C   0  0  2  0  0  0  0  0  0  0  0  0
  200.6888  178.5203  157.4822 C   0  0  2  0  0  0  0  0  0  0  0  0
  196.0483  183.8696  159.6590 C   0  0  0  0  0  0  0  0  0  0  0  0
  194.8457  184.2510  160.1320 N   0  0  0  0  0  0  0  0  0  0  0  0
  194.5549  185.5688  160.1524 C   0  0  0  0  0  0  0  0  0  0  0  0
  195.4167  186.5679  159.6671 C   0  0  0  0  0  0  0  0  0  0  0  0
  199.3649  189.7085  160.1909 H   0  0  0  0  0  0  0  0  0  0  0  0
  200.5714  190.4339  157.1495 H   0  0  0  0  0  0  0  0  0  0  0  0
  200.0458  192.3993  155.8176 H   0  0  0  0  0  0  0  0  0  0  0  0
  197.9281  193.6804  156.1890 H   0  0  0  0  0  0  0  0  0  0  0  0
  196.3571  192.9407  157.9756 H   0  0  0  0  0  0  0  0  0  0  0  0
  196.8551  191.0147  159.3720 H   0  0  0  0  0  0  0  0  0  0  0  0
  201.2786  189.1777  158.9293 H   0  0  0  0  0  0  0  0  0  0  0  0
  200.3559  188.1635  157.7964 H   0  0  0  0  0  0  0  0  0  0  0  0
  200.5772  187.6715  159.4809 H   0  0  0  0  0  0  0  0  0  0  0  0
  196.7985  187.9148  161.3063 H   0  0  0  0  0  0  0  0  0  0  0  0
  196.2156  189.2579  160.3141 H   0  0  0  0  0  0  0  0  0  0  0  0
  197.5755  189.5345  161.2786 H   0  0  0  0  0  0  0  0  0  0  0  0
  199.0296  184.9348  158.6814 H   0  0  0  0  0  0  0  0  0  0  0  0
  200.6050  183.5374  157.7106 H   0  0  0  0  0  0  0  0  0  0  0  0
  201.1252  181.4935  156.4188 H   0  0  0  0  0  0  0  0  0  0  0  0
  196.9380  180.4175  156.4804 H   0  0  0  0  0  0  0  0  0  0  0  0
  196.3849  182.4743  157.6301 H   0  0  0  0  0  0  0  0  0  0  0  0
  198.5132  179.3049  154.9704 H   0  0  0  0  0  0  0  0  0  0  0  0
  200.2329  179.6502  154.9902 H   0  0  0  0  0  0  0  0  0  0  0  0
  200.5269  177.0749  155.1474 H   0  0  0  0  0  0  0  0  0  0  0  0
  198.7604  176.9537  155.1832 H   0  0  0  0  0  0  0  0  0  0  0  0
  199.7149  176.2391  156.4852 H   0  0  0  0  0  0  0  0  0  0  0  0
  201.6281  178.6557  156.9429 H   0  0  0  0  0  0  0  0  0  0  0  0
  200.7881  177.6509  158.1332 H   0  0  0  0  0  0  0  0  0  0  0  0
  200.5461  179.3855  158.1315 H   0  0  0  0  0  0  0  0  0  0  0  0
  196.2649  182.8029  159.7154 H   0  0  0  0  0  0  0  0  0  0  0  0
  193.6127  185.8527  160.6085 H   0  0  0  0  0  0  0  0  0  0  0  0
  195.1111  187.6156  159.6665 H   0  0  0  0  0  0  0  0  0  0  0  0
  198.7135  178.2606  157.1131 H   0  0  0  0  0  0  0  0  0  0  0  0
  1  2  2  0
  2  3  1  0
  2 13  1  0
  3  4  1  0
  3 12  1  0
  4  5  1  0
  4 11  1  0
  4 30  1  1
  5  6  2  0
  5 10  1  0
  6  7  1  0
  6 31  1  0
  7  8  2  0
  7 32  1  0
  8  9  1  0
  8 33  1  0
  9 10  2  0
  9 34  1  0
 10 35  1  0
 11 36  1  6
 11 37  1  0
 11 38  1  0
 12 39  1  1
 12 40  1  0
 12 41  1  0
 13 14  1  0
 13 29  2  0
 14 15  1  0
 14 26  2  0
 15 16  1  0
 15 42  1  0
 16 17  1  0
 16 21  2  0
 17 18  2  0
 17 43  1  0
 18 19  1  0
 18 44  1  0
 19 20  2  0
 19 22  1  0
 20 21  1  0
 20 45  1  0
 21 46  1  0
 22 23  1  0
 22 47  1  6
 22 48  1  0
 23 24  1  0
 23 25  1  0
 23 58  1  1
 24 49  1  6
 24 50  1  0
 24 51  1  0
 25 52  1  6
 25 53  1  0
 25 54  1  0
 26 27  1  0
 26 55  1  0
 27 28  2  0
 28 29  1  0
 28 56  1  0
 29 57  1  0
M  CHG  1  23   1
M  END
>  <s_epik_cmdline>  (697) 
J2VwaWtfcHl0aG9uJywgJy1waCcsICc3LjAwMDAwMCcsICctcGh0JywgJzIuMDAwMDAwJywgJy1tcycsICcxNicsICctdG4nLCAnOCcsICctbWEnLCAnMjAwJywgJy1pbWFlJywgJzxpbmZpbGUubWFlPicsICctb21hZScsICc8b3V0ZmlsZS5tYWU+Jw==

>  <s_epik_input>  (697) 
W2NIXTFbY0hdW2NIXVtjSF1bY0hdYzFbQ0BIXShbQ0gzXSlOKFtDSDNdKUMoPU8pYzJjKFtjSF1uW2NIXVtjSF0yKVtOSF1jM1tjSF1bY0hdYyhbY0hdW2NIXTMpW0NIMl1OKFtDSDNdKVtDSDNd

>  <s_i_glide_gridfile>  (697) 
ATP-Grid

>  <s_lp_Force_Field>  (697) 
OPLS_2005

>  <s_lp_Variant>  (697) 
rxn514b____EMOL17149431____EMOL17240199____EMOL2732950-2

>  <s_lp_label>  (697) 
3073_sdstereoexpander_2_neutralizer_1_epik_1_stereoizer_1

>  <s_m_source_file>  (697) 
ATP-VSW-LIGPREP-001-in.maegz

>  <s_sd_BIOSOLVEIT.INFINISEE\_QUERY\_NAME>  (697) 
Ref-Lig

>  <s_sd_BIOSOLVEIT.INFINISEE\_QUERY\_SMILES>  (697) 
S(c1nc2c(cc1C[NH2+]Cc3ccc(cc3)C[NH+](C)C)cccc2)Cc4ccccc4

>  <s_sd_BIOSOLVEIT.INFINISEE\_REACTION\_NAME>  (697) 
rxn514b

>  <s_sd_BIOSOLVEIT.INFINISEE\_REAGENT1\_NAME>  (697) 
EMOL17149431

>  <s_sd_BIOSOLVEIT.INFINISEE\_REAGENT1\_SMILES>  (697) 
N(C(c1ccccc1)C)C

>  <s_sd_BIOSOLVEIT.INFINISEE\_REAGENT2\_NAME>  (697) 
EMOL17240199

>  <s_sd_BIOSOLVEIT.INFINISEE\_REAGENT2\_SMILES>  (697) 
O=C(OC(C)(C)C)Nc1c(ccnc1)C(=O)O

>  <s_sd_BIOSOLVEIT.INFINISEE\_REAGENT3\_NAME>  (697) 
EMOL2732950

>  <s_sd_BIOSOLVEIT.INFINISEE\_REAGENT3\_SMILES>  (697) 
Brc1ccc(cc1)CN(C)C

>  <s_sd_BIOSOLVEIT.INFINISEE\_SPACE>  (697) 
eXplore_7tr_2022-12

>  <s_vsw_compound_code>  (697) 
98305

>  <s_vsw_variant>  (697) 
98305-2

>  <r_epik_Charging_Adjusted_Penalty>  (697) 
0.074139713783215794

>  <r_epik_Ionization_Penalty>  (697) 
0.037400000000000003

>  <r_epik_Ionization_Penalty_Charging>  (697) 
0.037100000000000001

>  <r_epik_Ionization_Penalty_Neutral>  (697) 
0.00040000000000000002

>  <r_epik_State_Penalty>  (697) 
0.037100000000000001

>  <r_i_docking_score>  (697) 
-4.3026329039367397

>  <r_i_glide_ecoul>  (697) 
-8.8681850433349592

>  <r_i_glide_eff_state_penalty>  (697) 
0.037100000000000001

>  <r_i_glide_einternal>  (697) 
5.9401078224182102

>  <r_i_glide_emodel>  (697) 
-50.733800065173703

>  <r_i_glide_energy>  (697) 
-38.608781814575202

>  <r_i_glide_erotb>  (697) 
0.77095783696149101

>  <r_i_glide_esite>  (697) 
-0.11426930500777099

>  <r_i_glide_evdw>  (697) 
-29.740596771240199

>  <r_i_glide_gscore>  (697) 
-4.3397329039367296

>  <r_i_glide_hbond>  (697) 
-0.20000000000000001

>  <r_i_glide_ligand_efficiency>  (697) 
-0.14836665185988701

>  <r_i_glide_ligand_efficiency_ln>  (697) 
-0.98519382964493596

>  <r_i_glide_ligand_efficiency_sa>  (697) 
-0.45582936036816901

>  <r_i_glide_lipo>  (697) 
-1.09593654700103

>  <r_i_glide_metal>  (697) 
-0

>  <r_i_glide_rewards>  (697) 
-0.88322729382716603

>  <r_lp_Energy>  (697) 
38.737113000000001

>  <r_lp_tautomer_probability>  (697) 
0.999999999999999

>  <r_qp_ACxDN^.5/SA>  (697) 
0

>  <r_qp_CIQPlogS>  (697) 
-4.5709999999999997

>  <r_qp_EA(eV)>  (697) 
0.434

>  <r_qp_FISA>  (697) 
55.527000000000001

>  <r_qp_FOSA>  (697) 
305.80399999999997

>  <r_qp_IP(eV)>  (697) 
8.1129999999999995

>  <r_qp_Jm>  (697) 
0.016317213382045701

>  <r_qp_PISA>  (697) 
381.11900000000003

>  <r_qp_PSA>  (697) 
51.265000000000001

>  <r_qp_PercentHumanOralAbsorption>  (697) 
100

>  <r_qp_QPPCaco>  (697) 
734.91200000000003

>  <r_qp_QPPMDCK>  (697) 
392.32499999999999

>  <r_qp_QPlogBB>  (697) 
-0.050999999999999997

>  <r_qp_QPlogHERG>  (697) 
-7.452

>  <r_qp_QPlogKhsa>  (697) 
0.60299999999999998

>  <r_qp_QPlogKp>  (697) 
-2.5910000000000002

>  <r_qp_QPlogPC16>  (697) 
13.811999999999999

>  <r_qp_QPlogPo/w>  (697) 
4.6440000000000001

>  <r_qp_QPlogPoct>  (697) 
18.599

>  <r_qp_QPlogPw>  (697) 
8.8420000000000005

>  <r_qp_QPlogS>  (697) 
-4.7859999999999996

>  <r_qp_QPpolrz>  (697) 
46.579000000000001

>  <r_qp_SASA>  (697) 
742.45000000000005

>  <r_qp_SAamideO>  (697) 
0

>  <r_qp_SAfluorine>  (697) 
0

>  <r_qp_WPSA>  (697) 
0

>  <r_qp_accptHB>  (697) 
6

>  <r_qp_dip^2/V>  (697) 
0.0147078

>  <r_qp_dipole>  (697) 
4.4379999999999997

>  <r_qp_donorHB>  (697) 
0

>  <r_qp_glob>  (697) 
0.79132709999999995

>  <r_qp_mol_MW>  (697) 
388.51100000000002

>  <r_qp_volume>  (697) 
1339.021

>  <r_sd_BIOSOLVEIT.INFINISEE\_FTREES\_SIMILARITY>  (697) 
0.90200000000000002

>  <r_sd_BIOSOLVEIT.LOGP>  (697) 
3.3029000000000002

>  <r_sd_BIOSOLVEIT.MOLECULAR\_WEIGHT>  (697) 
389.51999999999998

>  <r_sd_BIOSOLVEIT.TPSA>  (697) 
49.670000000000002

>  <i_epik_Tot_Q>  (697) 
1

>  <i_epik_Tot_abs_Q>  (697) 
1

>  <i_f3d_flags>  (697) 
0

>  <i_i_glide_confnum>  (697) 
6

>  <i_i_glide_lignum>  (697) 
42

>  <i_i_glide_posenum>  (697) 
5

>  <i_i_glide_rotatable_bonds>  (697) 
8

>  <i_lp_mmshare_version>  (697) 
65135

>  <i_m_ct_format>  (697) 
2

>  <i_m_source_file_index>  (697) 
3073

>  <i_qp_#NandO>  (697) 
5

>  <i_qp_#acid>  (697) 
0

>  <i_qp_#amide>  (697) 
0

>  <i_qp_#amidine>  (697) 
0

>  <i_qp_#amine>  (697) 
1

>  <i_qp_#in34>  (697) 
0

>  <i_qp_#in56>  (697) 
18

>  <i_qp_#metab>  (697) 
8

>  <i_qp_#nonHatm>  (697) 
29

>  <i_qp_#noncon>  (697) 
0

>  <i_qp_#ringatoms>  (697) 
18

>  <i_qp_#rotor>  (697) 
7

>  <i_qp_#rtvFG>  (697) 
0

>  <i_qp_#stars>  (697) 
0

>  <i_qp_CNS>  (697) 
1

>  <i_qp_HumanOralAbsorption>  (697) 
3

>  <i_qp_RuleOfFive>  (697) 
0

>  <i_qp_RuleOfThree>  (697) 
1

>  <i_sd_BIOSOLVEIT.INFINISEE\_RESULT\_RANK>  (697) 
93625

>  <i_sd_version>  (697) 
0

>  <b_lp_Chiralities_Consistent>  (697) 
1

>  <b_sd_chiral_flag>  (697) 
0

>  <canonical_id>  (697) 
ATP-HTVS-6C50DB0A272F

>  <compound_code>  (697) 
98305

>  <title>  (697) 
rxn514b____EMOL17149431____EMOL17240199____EMOL2732950

>  <variant>  (697) 
98305-2

>  <source_file>  (697) 
运行/运行/ATP-VSW/ATP-VSW-DOCK_HTVS_1-002_lib.maegz

>  <canonical_smiles>  (697) 
C[C@@H](c1ccccc1)N(C)C(=O)c1ccncc1Nc1ccc(C[NH+](C)C)cc1

>  <scaffold>  (697) 
O=C(NCc1ccccc1)c1ccncc1Nc1ccccc1

>  <molecular_formula>  (697) 
C24H29N4O+

$$$$
ATP-HTVS-6C7D9744EE21
     RDKit          3D

 59 62  0  0  0  0  0  0  0  0999 V2000
  200.1147  176.5782  147.1582 F   0  0  0  0  0  0  0  0  0  0  0  0
  199.1612  177.3205  147.7674 C   0  0  0  0  0  0  0  0  0  0  0  0
  199.3565  177.7608  149.0995 C   0  0  0  0  0  0  0  0  0  0  0  0
  198.3450  178.4671  149.7905 C   0  0  0  0  0  0  0  0  0  0  0  0
  197.1335  178.7878  149.0913 C   0  0  0  0  0  0  0  0  0  0  0  0
  196.1274  179.4690  149.6770 N   0  0  0  0  0  0  0  0  0  0  0  0
  196.2630  179.8498  150.9610 C   0  0  0  0  0  0  0  0  0  0  0  0
  197.4006  179.5851  151.7520 C   0  0  0  0  0  0  0  0  0  0  0  0
  198.4788  178.8575  151.1643 C   0  0  0  0  0  0  0  0  0  0  0  0
  199.6509  178.5457  151.9133 N   0  0  0  0  0  0  0  0  0  0  0  0
  200.0457  177.2300  152.2954 C   0  0  0  0  0  0  0  0  0  0  0  0
  200.9791  177.0103  153.3432 C   0  0  0  0  0  0  0  0  0  0  0  0
  201.3840  175.7077  153.7123 C   0  0  0  0  0  0  0  0  0  0  0  0
  200.8850  174.5832  153.0313 C   0  0  0  0  0  0  0  0  0  0  0  0
  199.9537  174.7693  151.9930 C   0  0  0  0  0  0  0  0  0  0  0  0
  199.5189  176.0723  151.6498 C   0  0  0  0  0  0  0  0  0  0  0  0
  200.4130  179.7096  152.4332 C   0  0  1  0  0  0  0  0  0  0  0  0
  201.1544  180.4545  151.4072 C   0  0  0  0  0  0  0  0  0  0  0  0
  201.7362  181.0436  150.6041 N   0  0  0  0  0  0  0  0  0  0  0  0
  197.4004  180.0691  153.1778 C   0  0  0  0  0  0  0  0  0  0  0  0
  197.5643  179.2932  154.1204 O   0  0  0  0  0  0  0  0  0  0  0  0
  197.2531  181.3970  153.3167 N   0  0  0  0  0  0  0  0  0  0  0  0
  197.3129  182.1570  154.5161 C   0  0  0  0  0  0  0  0  0  0  0  0
  196.7015  181.7349  155.7200 C   0  0  0  0  0  0  0  0  0  0  0  0
  196.7343  182.5612  156.8641 C   0  0  0  0  0  0  0  0  0  0  0  0
  197.3931  183.8070  156.8122 C   0  0  0  0  0  0  0  0  0  0  0  0
  198.0197  184.2206  155.6225 C   0  0  0  0  0  0  0  0  0  0  0  0
  197.9754  183.4003  154.4786 C   0  0  0  0  0  0  0  0  0  0  0  0
  196.0516  182.1122  158.1408 C   0  0  1  0  0  0  0  0  0  0  0  0
  194.5983  182.4362  158.1331 N   0  0  2  0  0  0  0  0  0  0  0  0
  194.2672  183.6788  158.8661 C   0  0  2  0  0  0  0  0  0  0  0  0
  193.7753  181.2959  158.5725 C   0  0  2  0  0  0  0  0  0  0  0  0
  196.9711  178.3574  147.7537 C   0  0  0  0  0  0  0  0  0  0  0  0
  197.9690  177.6242  147.0909 C   0  0  0  0  0  0  0  0  0  0  0  0
  200.2983  177.5208  149.5556 H   0  0  0  0  0  0  0  0  0  0  0  0
  195.4240  180.4014  151.3655 H   0  0  0  0  0  0  0  0  0  0  0  0
  201.3911  177.8397  153.9043 H   0  0  0  0  0  0  0  0  0  0  0  0
  202.0736  175.5746  154.5338 H   0  0  0  0  0  0  0  0  0  0  0  0
  201.1877  173.5811  153.3123 H   0  0  0  0  0  0  0  0  0  0  0  0
  199.5518  173.9214  151.4507 H   0  0  0  0  0  0  0  0  0  0  0  0
  198.7736  176.1355  150.8716 H   0  0  0  0  0  0  0  0  0  0  0  0
  199.7516  180.4534  152.8952 H   0  0  0  0  0  0  0  0  0  0  0  0
  201.1365  179.4375  153.2172 H   0  0  0  0  0  0  0  0  0  0  0  0
  197.2687  181.9317  152.4596 H   0  0  0  0  0  0  0  0  0  0  0  0
  196.1828  180.7888  155.7597 H   0  0  0  0  0  0  0  0  0  0  0  0
  197.4244  184.4458  157.6834 H   0  0  0  0  0  0  0  0  0  0  0  0
  198.5274  185.1722  155.5866 H   0  0  0  0  0  0  0  0  0  0  0  0
  198.4584  183.7382  153.5727 H   0  0  0  0  0  0  0  0  0  0  0  0
  196.2205  181.0391  158.2418 H   0  0  0  0  0  0  0  0  0  0  0  0
  196.5400  182.5502  159.0146 H   0  0  0  0  0  0  0  0  0  0  0  0
  194.5430  183.5999  159.9206 H   0  0  0  0  0  0  0  0  0  0  0  0
  193.1965  183.8932  158.8193 H   0  0  0  0  0  0  0  0  0  0  0  0
  194.7912  184.5366  158.4420 H   0  0  0  0  0  0  0  0  0  0  0  0
  193.9985  181.0368  159.6104 H   0  0  0  0  0  0  0  0  0  0  0  0
  193.9474  180.4259  157.9413 H   0  0  0  0  0  0  0  0  0  0  0  0
  192.7176  181.5348  158.4909 H   0  0  0  0  0  0  0  0  0  0  0  0
  196.0490  178.5756  147.2317 H   0  0  0  0  0  0  0  0  0  0  0  0
  197.8213  177.2827  146.0756 H   0  0  0  0  0  0  0  0  0  0  0  0
  194.3302  182.5930  157.1638 H   0  0  0  0  0  0  0  0  0  0  0  0
  1  2  1  0
  2  3  1  0
  2 34  2  0
  3  4  2  0
  3 35  1  0
  4  5  1  0
  4  9  1  0
  5  6  1  0
  5 33  2  0
  6  7  2  0
  7  8  1  0
  7 36  1  0
  8  9  2  0
  8 20  1  0
  9 10  1  0
 10 11  1  0
 10 17  1  0
 11 12  2  0
 11 16  1  0
 12 13  1  0
 12 37  1  0
 13 14  2  0
 13 38  1  0
 14 15  1  0
 14 39  1  0
 15 16  2  0
 15 40  1  0
 16 41  1  0
 17 18  1  0
 17 42  1  1
 17 43  1  0
 18 19  3  0
 20 21  2  0
 20 22  1  0
 22 23  1  0
 22 44  1  0
 23 24  2  0
 23 28  1  0
 24 25  1  0
 24 45  1  0
 25 26  2  0
 25 29  1  0
 26 27  1  0
 26 46  1  0
 27 28  2  0
 27 47  1  0
 28 48  1  0
 29 30  1  0
 29 49  1  1
 29 50  1  0
 30 31  1  0
 30 32  1  0
 30 59  1  6
 31 51  1  1
 31 52  1  0
 31 53  1  0
 32 54  1  1
 32 55  1  0
 32 56  1  0
 33 34  1  0
 33 57  1  0
 34 58  1  0
M  CHG  1  30   1
M  END
>  <s_epik_cmdline>  (698) 
J2VwaWtfcHl0aG9uJywgJy1waCcsICc3LjAwMDAwMCcsICctcGh0JywgJzIuMDAwMDAwJywgJy1tcycsICcxNicsICctdG4nLCAnOCcsICctbWEnLCAnMjAwJywgJy1pbWFlJywgJzxpbmZpbGUubWFlPicsICctb21hZScsICc8b3V0ZmlsZS5tYWU+Jw==

>  <s_epik_input>  (698) 
W2NIXTFbY0hdW2NIXWMoW0NIMl1OKFtDSDNdKVtDSDNdKVtjSF1jMVtOSF1DKD1PKWMoW2NIXW5jKGMyMylbY0hdW2NIXWMoRilbY0hdMiljM04oW0NIMl1DI04pYzRbY0hdW2NIXVtjSF1bY0hdW2NIXTQ=

>  <s_i_glide_gridfile>  (698) 
ATP-Grid

>  <s_lp_Force_Field>  (698) 
OPLS_2005

>  <s_lp_Variant>  (698) 
rxn512c____EMOL712348____EMOL36725275____EMOL3728368-1

>  <s_lp_label>  (698) 
2201_sdstereoexpander_1_neutralizer_1_epik_1_stereoizer_1

>  <s_m_source_file>  (698) 
ATP-VSW-LIGPREP-002-in.maegz

>  <s_sd_BIOSOLVEIT.INFINISEE\_QUERY\_NAME>  (698) 
Ref-Lig

>  <s_sd_BIOSOLVEIT.INFINISEE\_QUERY\_SMILES>  (698) 
S(c1nc2c(cc1C[NH2+]Cc3ccc(cc3)C[NH+](C)C)cccc2)Cc4ccccc4

>  <s_sd_BIOSOLVEIT.INFINISEE\_REACTION\_NAME>  (698) 
rxn512c

>  <s_sd_BIOSOLVEIT.INFINISEE\_REAGENT1\_NAME>  (698) 
EMOL712348

>  <s_sd_BIOSOLVEIT.INFINISEE\_REAGENT1\_SMILES>  (698) 
N#CCNc1ccccc1

>  <s_sd_BIOSOLVEIT.INFINISEE\_REAGENT2\_NAME>  (698) 
EMOL36725275

>  <s_sd_BIOSOLVEIT.INFINISEE\_REAGENT2\_SMILES>  (698) 
Clc1c2c(ncc1C(=O)O)ccc(F)c2

>  <s_sd_BIOSOLVEIT.INFINISEE\_REAGENT3\_NAME>  (698) 
EMOL3728368

>  <s_sd_BIOSOLVEIT.INFINISEE\_REAGENT3\_SMILES>  (698) 
N(Cc1cc(N)ccc1)(C)C

>  <s_sd_BIOSOLVEIT.INFINISEE\_SPACE>  (698) 
eXplore_7tr_2022-12

>  <s_vsw_compound_code>  (698) 
70402

>  <s_vsw_variant>  (698) 
70402-1

>  <r_epik_Charging_Adjusted_Penalty>  (698) 
0.099390134255996299

>  <r_epik_Ionization_Penalty>  (698) 
0.051200000000000002

>  <r_epik_Ionization_Penalty_Charging>  (698) 
0.049700000000000001

>  <r_epik_Ionization_Penalty_Neutral>  (698) 
0.0015

>  <r_epik_State_Penalty>  (698) 
0.049700000000000001

>  <r_i_docking_score>  (698) 
-4.6995557817418696

>  <r_i_glide_ecoul>  (698) 
-8.9194393157959002

>  <r_i_glide_eff_state_penalty>  (698) 
0.049700000000000001

>  <r_i_glide_einternal>  (698) 
5.7175836563110396

>  <r_i_glide_emodel>  (698) 
-58.569320567691904

>  <r_i_glide_energy>  (698) 
-43.559545516967802

>  <r_i_glide_erotb>  (698) 
0.58324278795298601

>  <r_i_glide_esite>  (698) 
-0.1121919266002

>  <r_i_glide_evdw>  (698) 
-34.640106201171903

>  <r_i_glide_gscore>  (698) 
-4.7492557817418701

>  <r_i_glide_hbond>  (698) 
-0.20000000000000001

>  <r_i_glide_ligand_efficiency>  (698) 
-0.13822222887476099

>  <r_i_glide_ligand_efficiency_ln>  (698) 
-1.0382636902614799

>  <r_i_glide_ligand_efficiency_sa>  (698) 
-0.447786363335201

>  <r_i_glide_lipo>  (698) 
-1.5902334341634199

>  <r_i_glide_metal>  (698) 
-0

>  <r_i_glide_rewards>  (698) 
-0.36015200150325599

>  <r_lp_Energy>  (698) 
39.330191999999997

>  <r_qp_ACxDN^.5/SA>  (698) 
0.0096308000000000001

>  <r_qp_CIQPlogS>  (698) 
-6.6959999999999997

>  <r_qp_EA(eV)>  (698) 
1.6000000000000001

>  <r_qp_FISA>  (698) 
90.650000000000006

>  <r_qp_FOSA>  (698) 
205.511

>  <r_qp_IP(eV)>  (698) 
8.5090000000000003

>  <r_qp_Jm>  (698) 
0.000260251495473188

>  <r_qp_PISA>  (698) 
435.67500000000001

>  <r_qp_PSA>  (698) 
74.923000000000002

>  <r_qp_PercentHumanOralAbsorption>  (698) 
100

>  <r_qp_QPPCaco>  (698) 
341.31999999999999

>  <r_qp_QPPMDCK>  (698) 
309.48200000000003

>  <r_qp_QPlogBB>  (698) 
-0.372

>  <r_qp_QPlogHERG>  (698) 
-7.7220000000000004

>  <r_qp_QPlogKhsa>  (698) 
0.67600000000000005

>  <r_qp_QPlogKp>  (698) 
-2.9500000000000002

>  <r_qp_QPlogPC16>  (698) 
15.276999999999999

>  <r_qp_QPlogPo/w>  (698) 
4.6779999999999999

>  <r_qp_QPlogPoct>  (698) 
22.516999999999999

>  <r_qp_QPlogPw>  (698) 
12.276999999999999

>  <r_qp_QPlogS>  (698) 
-6.2910000000000004

>  <r_qp_QPpolrz>  (698) 
50.369

>  <r_qp_SASA>  (698) 
778.75199999999995

>  <r_qp_SAamideO>  (698) 
0

>  <r_qp_SAfluorine>  (698) 
46.915999999999997

>  <r_qp_WPSA>  (698) 
46.915999999999997

>  <r_qp_accptHB>  (698) 
7.5

>  <r_qp_dip^2/V>  (698) 
0.0026472000000000002

>  <r_qp_dipole>  (698) 
1.95

>  <r_qp_donorHB>  (698) 
1

>  <r_qp_glob>  (698) 
0.79071639999999999

>  <r_qp_mol_MW>  (698) 
453.51799999999997

>  <r_qp_volume>  (698) 
1436.7529999999999

>  <r_sd_BIOSOLVEIT.INFINISEE\_FTREES\_SIMILARITY>  (698) 
0.93200000000000005

>  <r_sd_BIOSOLVEIT.LOGP>  (698) 
3.9323800000000002

>  <r_sd_BIOSOLVEIT.MOLECULAR\_WEIGHT>  (698) 
454.52699999999999

>  <r_sd_BIOSOLVEIT.TPSA>  (698) 
73.459999999999994

>  <i_epik_Tot_Q>  (698) 
1

>  <i_epik_Tot_abs_Q>  (698) 
1

>  <i_f3d_flags>  (698) 
0

>  <i_i_glide_confnum>  (698) 
1

>  <i_i_glide_lignum>  (698) 
833

>  <i_i_glide_posenum>  (698) 
19

>  <i_i_glide_rotatable_bonds>  (698) 
8

>  <i_lp_mmshare_version>  (698) 
65135

>  <i_m_ct_format>  (698) 
2

>  <i_m_source_file_index>  (698) 
2201

>  <i_qp_#NandO>  (698) 
6

>  <i_qp_#acid>  (698) 
0

>  <i_qp_#amide>  (698) 
0

>  <i_qp_#amidine>  (698) 
0

>  <i_qp_#amine>  (698) 
1

>  <i_qp_#in34>  (698) 
0

>  <i_qp_#in56>  (698) 
22

>  <i_qp_#metab>  (698) 
7

>  <i_qp_#nonHatm>  (698) 
34

>  <i_qp_#noncon>  (698) 
0

>  <i_qp_#ringatoms>  (698) 
22

>  <i_qp_#rotor>  (698) 
8

>  <i_qp_#rtvFG>  (698) 
0

>  <i_qp_#stars>  (698) 
0

>  <i_qp_CNS>  (698) 
1

>  <i_qp_HumanOralAbsorption>  (698) 
1

>  <i_qp_RuleOfFive>  (698) 
0

>  <i_qp_RuleOfThree>  (698) 
2

>  <i_sd_BIOSOLVEIT.INFINISEE\_RESULT\_RANK>  (698) 
3768

>  <i_sd_version>  (698) 
0

>  <b_lp_Chiralities_Consistent>  (698) 
1

>  <b_sd_chiral_flag>  (698) 
0

>  <canonical_id>  (698) 
ATP-HTVS-6C7D9744EE21

>  <compound_code>  (698) 
70402

>  <title>  (698) 
rxn512c____EMOL712348____EMOL36725275____EMOL3728368

>  <variant>  (698) 
70402-1

>  <source_file>  (698) 
运行/运行/ATP-VSW/ATP-VSW-DOCK_HTVS_1-002_lib.maegz

>  <canonical_smiles>  (698) 
C[NH+](C)Cc1cccc(NC(=O)c2cnc3ccc(F)cc3c2N(CC#N)c2ccccc2)c1

>  <scaffold>  (698) 
O=C(Nc1ccccc1)c1cnc2ccccc2c1Nc1ccccc1

>  <molecular_formula>  (698) 
C27H25FN5O+

$$$$
ATP-HTVS-6C953A1E72F9
     RDKit          3D

 58 61  0  0  0  0  0  0  0  0999 V2000
  200.4025  183.6302  159.3522 S   0  0  0  0  0  0  0  0  0  0  0  0
  201.8192  182.6251  159.5711 C   0  0  0  0  0  0  0  0  0  0  0  0
  202.0121  181.7577  158.4464 C   0  0  0  0  0  0  0  0  0  0  0  0
  203.1541  180.9162  158.4931 C   0  0  0  0  0  0  0  0  0  0  0  0
  204.0369  180.9154  159.5905 C   0  0  0  0  0  0  0  0  0  0  0  0
  203.8080  181.7722  160.6823 C   0  0  0  0  0  0  0  0  0  0  0  0
  202.6937  182.6269  160.6729 C   0  0  0  0  0  0  0  0  0  0  0  0
  200.9626  181.9229  157.4486 C   0  0  0  0  0  0  0  0  0  0  0  0
  200.9193  181.1548  156.2654 N   0  0  0  0  0  0  0  0  0  0  0  0
  200.9059  179.6946  156.3417 C   0  0  1  0  0  0  0  0  0  0  0  0
  199.4760  179.1320  156.4274 C   0  0  2  0  0  0  0  0  0  0  0  0
  199.5500  177.7334  156.5304 O   0  0  0  0  0  0  0  0  0  0  0  0
  198.6115  179.5674  155.2568 C   0  0  0  0  0  0  0  0  0  0  0  0
  198.9355  179.1476  153.9494 C   0  0  0  0  0  0  0  0  0  0  0  0
  198.1617  179.5726  152.8550 C   0  0  0  0  0  0  0  0  0  0  0  0
  197.0678  180.4373  153.0587 C   0  0  0  0  0  0  0  0  0  0  0  0
  196.7462  180.8641  154.3621 C   0  0  0  0  0  0  0  0  0  0  0  0
  197.4959  180.4045  155.4591 C   0  0  0  0  0  0  0  0  0  0  0  0
  196.2289  180.8870  151.8827 C   0  0  2  0  0  0  0  0  0  0  0  0
  200.0655  182.9090  157.7996 C   0  0  0  0  0  0  0  0  0  0  0  0
  198.8727  183.3653  157.0072 C   0  0  1  0  0  0  0  0  0  0  0  0
  197.7536  183.8019  157.8590 N   0  0  0  0  0  0  0  0  0  0  0  0
  197.4935  185.1311  158.0392 C   0  0  0  0  0  0  0  0  0  0  0  0
  198.1308  186.0085  157.4619 O   0  0  0  0  0  0  0  0  0  0  0  0
  196.4664  185.5424  159.0611 C   0  0  0  0  0  0  0  0  0  0  0  0
  196.7553  186.6125  159.9525 C   0  0  0  0  0  0  0  0  0  0  0  0
  195.8232  187.0002  160.9407 C   0  0  0  0  0  0  0  0  0  0  0  0
  194.5974  186.3166  161.0422 C   0  0  0  0  0  0  0  0  0  0  0  0
  193.6860  186.6464  162.0009 O   0  0  0  0  0  0  0  0  0  0  0  0
  194.3039  185.2724  160.1405 C   0  0  0  0  0  0  0  0  0  0  0  0
  195.1962  184.9262  159.1178 C   0  0  0  0  0  0  0  0  0  0  0  0
  197.0361  182.6831  158.4988 C   0  0  2  0  0  0  0  0  0  0  0  0
  203.3625  180.2541  157.6636 H   0  0  0  0  0  0  0  0  0  0  0  0
  204.8917  180.2539  159.5853 H   0  0  0  0  0  0  0  0  0  0  0  0
  204.4911  181.7793  161.5195 H   0  0  0  0  0  0  0  0  0  0  0  0
  202.5041  183.2954  161.4990 H   0  0  0  0  0  0  0  0  0  0  0  0
  200.2627  181.4907  155.5730 H   0  0  0  0  0  0  0  0  0  0  0  0
  201.4101  179.3018  155.4573 H   0  0  0  0  0  0  0  0  0  0  0  0
  201.4650  179.3375  157.2029 H   0  0  0  0  0  0  0  0  0  0  0  0
  199.0235  179.4934  157.3495 H   0  0  0  0  0  0  0  0  0  0  0  0
  198.7903  177.4847  157.0822 H   0  0  0  0  0  0  0  0  0  0  0  0
  199.7863  178.5016  153.7953 H   0  0  0  0  0  0  0  0  0  0  0  0
  198.4192  179.2390  151.8611 H   0  0  0  0  0  0  0  0  0  0  0  0
  195.9120  181.5288  154.5332 H   0  0  0  0  0  0  0  0  0  0  0  0
  197.2169  180.7087  156.4590 H   0  0  0  0  0  0  0  0  0  0  0  0
  195.7619  181.8527  152.0834 H   0  0  0  0  0  0  0  0  0  0  0  0
  195.4454  180.1534  151.6908 H   0  0  0  0  0  0  0  0  0  0  0  0
  196.8416  180.9809  150.9855 H   0  0  0  0  0  0  0  0  0  0  0  0
  199.1919  184.1268  156.2869 H   0  0  0  0  0  0  0  0  0  0  0  0
  198.5112  182.5495  156.3871 H   0  0  0  0  0  0  0  0  0  0  0  0
  197.7087  187.1310  159.8970 H   0  0  0  0  0  0  0  0  0  0  0  0
  196.0506  187.8192  161.6148 H   0  0  0  0  0  0  0  0  0  0  0  0
  192.8442  186.2552  161.8165 H   0  0  0  0  0  0  0  0  0  0  0  0
  193.3751  184.7341  160.2095 H   0  0  0  0  0  0  0  0  0  0  0  0
  194.8926  184.1676  158.4003 H   0  0  0  0  0  0  0  0  0  0  0  0
  196.1265  182.4330  157.9469 H   0  0  0  0  0  0  0  0  0  0  0  0
  196.7859  182.8910  159.5435 H   0  0  0  0  0  0  0  0  0  0  0  0
  197.6060  181.7650  158.5068 H   0  0  0  0  0  0  0  0  0  0  0  0
  1  2  1  0
  1 20  1  0
  2  3  1  0
  2  7  2  0
  3  4  2  0
  3  8  1  0
  4  5  1  0
  4 33  1  0
  5  6  2  0
  5 34  1  0
  6  7  1  0
  6 35  1  0
  7 36  1  0
  8  9  1  0
  8 20  2  0
  9 10  1  0
  9 37  1  0
 10 11  1  0
 10 38  1  6
 10 39  1  0
 11 12  1  0
 11 13  1  0
 11 40  1  1
 12 41  1  0
 13 14  1  0
 13 18  2  0
 14 15  2  0
 14 42  1  0
 15 16  1  0
 15 43  1  0
 16 17  2  0
 16 19  1  0
 17 18  1  0
 17 44  1  0
 18 45  1  0
 19 46  1  1
 19 47  1  0
 19 48  1  0
 20 21  1  0
 21 22  1  0
 21 49  1  6
 21 50  1  0
 22 23  1  0
 22 32  1  0
 23 24  2  0
 23 25  1  0
 25 26  1  0
 25 31  2  0
 26 27  2  0
 26 51  1  0
 27 28  1  0
 27 52  1  0
 28 29  1  0
 28 30  2  0
 29 53  1  0
 30 31  1  0
 30 54  1  0
 31 55  1  0
 32 56  1  6
 32 57  1  0
 32 58  1  0
M  END
>  <s_epik_cmdline>  (699) 
J2VwaWtfcHl0aG9uJywgJy1waCcsICc3LjAwMDAwMCcsICctcGh0JywgJzIuMDAwMDAwJywgJy1tcycsICcxNicsICctdG4nLCAnOCcsICctbWEnLCAnMjAwJywgJy1pbWFlJywgJzxpbmZpbGUubWFlPicsICctb21hZScsICc8b3V0ZmlsZS5tYWU+Jw==

>  <s_epik_input>  (699) 
W2NIXTFbY0hdYyhbT0hdKVtjSF1bY0hdYzFDKD1PKU4oW0NIM10pW0NIMl1jKHMyKWMoYyhjMjMpW2NIXVtjSF1bY0hdW2NIXTMpW05IXVtDSDJdW0NASF0oW09IXSljNFtjSF1bY0hdYyhbQ0gzXSlbY0hdW2NIXTQ=

>  <s_i_glide_gridfile>  (699) 
ATP-Grid

>  <s_lp_Force_Field>  (699) 
OPLS_2005

>  <s_lp_Variant>  (699) 
rxn502c____EMOL490868____EMOL49259969____EMOL42769518-1

>  <s_lp_label>  (699) 
2650_sdstereoexpander_1_neutralizer_1_epik_1_stereoizer_1

>  <s_m_source_file>  (699) 
ATP-VSW-LIGPREP-002-in.maegz

>  <s_sd_BIOSOLVEIT.INFINISEE\_QUERY\_NAME>  (699) 
Ref-Lig

>  <s_sd_BIOSOLVEIT.INFINISEE\_QUERY\_SMILES>  (699) 
S(c1nc2c(cc1C[NH2+]Cc3ccc(cc3)C[NH+](C)C)cccc2)Cc4ccccc4

>  <s_sd_BIOSOLVEIT.INFINISEE\_REACTION\_NAME>  (699) 
rxn502c

>  <s_sd_BIOSOLVEIT.INFINISEE\_REAGENT1\_NAME>  (699) 
EMOL490868

>  <s_sd_BIOSOLVEIT.INFINISEE\_REAGENT1\_SMILES>  (699) 
O=C(O)c1ccc(O)cc1

>  <s_sd_BIOSOLVEIT.INFINISEE\_REAGENT2\_NAME>  (699) 
EMOL49259969

>  <s_sd_BIOSOLVEIT.INFINISEE\_REAGENT2\_SMILES>  (699) 
ClC=1c2c(SC1CNC)cccc2

>  <s_sd_BIOSOLVEIT.INFINISEE\_REAGENT3\_NAME>  (699) 
EMOL42769518

>  <s_sd_BIOSOLVEIT.INFINISEE\_REAGENT3\_SMILES>  (699) 
OC(c1ccc(cc1)C)CN

>  <s_sd_BIOSOLVEIT.INFINISEE\_SPACE>  (699) 
eXplore_7tr_2022-12

>  <s_vsw_compound_code>  (699) 
84770

>  <s_vsw_variant>  (699) 
84770-1

>  <r_epik_Charging_Adjusted_Penalty>  (699) 
0.015469854786694199

>  <r_epik_Ionization_Penalty>  (699) 
0.0155

>  <r_epik_Ionization_Penalty_Charging>  (699) 
0

>  <r_epik_Ionization_Penalty_Neutral>  (699) 
0.0155

>  <r_epik_State_Penalty>  (699) 
0.0155

>  <r_i_docking_score>  (699) 
-5.0817536003961603

>  <r_i_glide_ecoul>  (699) 
-8.3152656555175799

>  <r_i_glide_eff_state_penalty>  (699) 
0.0155

>  <r_i_glide_einternal>  (699) 
4.5498609542846697

>  <r_i_glide_emodel>  (699) 
-60.0111563234682

>  <r_i_glide_energy>  (699) 
-46.463077545166001

>  <r_i_glide_erotb>  (699) 
0.80303495361378197

>  <r_i_glide_esite>  (699) 
-0.0068941916432516499

>  <r_i_glide_evdw>  (699) 
-38.147811889648402

>  <r_i_glide_gscore>  (699) 
-5.0972536003961597

>  <r_i_glide_hbond>  (699) 
-0.16

>  <r_i_glide_ligand_efficiency>  (699) 
-0.15880480001238001

>  <r_i_glide_ligand_efficiency_ln>  (699) 
-1.13794315450007

>  <r_i_glide_ligand_efficiency_sa>  (699) 
-0.50417381261205796

>  <r_i_glide_lipo>  (699) 
-2.1485946824688602

>  <r_i_glide_metal>  (699) 
-0

>  <r_i_glide_rewards>  (699) 
-0.430119237087766

>  <r_lp_Energy>  (699) 
39.245651000000002

>  <r_lp_tautomer_probability>  (699) 
0.999999999997365

>  <r_qp_ACxDN^.5/SA>  (699) 
0.0143988

>  <r_qp_CIQPlogS>  (699) 
-5.7709999999999999

>  <r_qp_EA(eV)>  (699) 
0.63500000000000001

>  <r_qp_FISA>  (699) 
122.517

>  <r_qp_FOSA>  (699) 
187.84299999999999

>  <r_qp_IP(eV)>  (699) 
8.282

>  <r_qp_Jm>  (699) 
0.00097638314255756497

>  <r_qp_PISA>  (699) 
436.15100000000001

>  <r_qp_PSA>  (699) 
82.539000000000001

>  <r_qp_PercentHumanOralAbsorption>  (699) 
92.308999999999997

>  <r_qp_QPPCaco>  (699) 
170.20500000000001

>  <r_qp_QPPMDCK>  (699) 
116.916

>  <r_qp_QPlogBB>  (699) 
-0.83699999999999997

>  <r_qp_QPlogHERG>  (699) 
-7.8330000000000002

>  <r_qp_QPlogKhsa>  (699) 
0.67600000000000005

>  <r_qp_QPlogKp>  (699) 
-3.4399999999999999

>  <r_qp_QPlogPC16>  (699) 
16.263000000000002

>  <r_qp_QPlogPo/w>  (699) 
4.3440000000000003

>  <r_qp_QPlogPoct>  (699) 
24.651

>  <r_qp_QPlogPw>  (699) 
14.159000000000001

>  <r_qp_QPlogS>  (699) 
-5.2210000000000001

>  <r_qp_QPpolrz>  (699) 
48.685000000000002

>  <r_qp_SASA>  (699) 
775.87800000000004

>  <r_qp_SAamideO>  (699) 
0

>  <r_qp_SAfluorine>  (699) 
0

>  <r_qp_WPSA>  (699) 
29.367000000000001

>  <r_qp_accptHB>  (699) 
6.4500000000000002

>  <r_qp_dip^2/V>  (699) 
0.0307446

>  <r_qp_dipole>  (699) 
6.5860000000000003

>  <r_qp_donorHB>  (699) 
3

>  <r_qp_glob>  (699) 
0.78399260000000004

>  <r_qp_mol_MW>  (699) 
446.56299999999999

>  <r_qp_volume>  (699) 
1410.623

>  <r_sd_BIOSOLVEIT.INFINISEE\_FTREES\_SIMILARITY>  (699) 
0.91000000000000003

>  <r_sd_BIOSOLVEIT.LOGP>  (699) 
5.3330200000000003

>  <r_sd_BIOSOLVEIT.MOLECULAR\_WEIGHT>  (699) 
446.56700000000001

>  <r_sd_BIOSOLVEIT.TPSA>  (699) 
72.799999999999997

>  <i_epik_Tot_Q>  (699) 
0

>  <i_epik_Tot_abs_Q>  (699) 
0

>  <i_f3d_flags>  (699) 
0

>  <i_i_glide_confnum>  (699) 
3

>  <i_i_glide_lignum>  (699) 
1243

>  <i_i_glide_posenum>  (699) 
4

>  <i_i_glide_rotatable_bonds>  (699) 
10

>  <i_lp_mmshare_version>  (699) 
65135

>  <i_m_ct_format>  (699) 
2

>  <i_m_source_file_index>  (699) 
2650

>  <i_qp_#NandO>  (699) 
5

>  <i_qp_#acid>  (699) 
0

>  <i_qp_#amide>  (699) 
0

>  <i_qp_#amidine>  (699) 
0

>  <i_qp_#amine>  (699) 
1

>  <i_qp_#in34>  (699) 
0

>  <i_qp_#in56>  (699) 
21

>  <i_qp_#metab>  (699) 
6

>  <i_qp_#nonHatm>  (699) 
32

>  <i_qp_#noncon>  (699) 
0

>  <i_qp_#ringatoms>  (699) 
21

>  <i_qp_#rotor>  (699) 
9

>  <i_qp_#rtvFG>  (699) 
0

>  <i_qp_#stars>  (699) 
0

>  <i_qp_CNS>  (699) 
-1

>  <i_qp_HumanOralAbsorption>  (699) 
3

>  <i_qp_RuleOfFive>  (699) 
0

>  <i_qp_RuleOfThree>  (699) 
0

>  <i_sd_BIOSOLVEIT.INFINISEE\_RESULT\_RANK>  (699) 
46376

>  <i_sd_version>  (699) 
0

>  <b_lp_Chiralities_Consistent>  (699) 
1

>  <b_sd_chiral_flag>  (699) 
0

>  <canonical_id>  (699) 
ATP-HTVS-6C953A1E72F9

>  <compound_code>  (699) 
84770

>  <title>  (699) 
rxn502c____EMOL490868____EMOL49259969____EMOL42769518

>  <variant>  (699) 
84770-1

>  <source_file>  (699) 
运行/运行/ATP-VSW/ATP-VSW-DOCK_HTVS_1-002_lib.maegz

>  <canonical_smiles>  (699) 
Cc1ccc([C@@H](O)CNc2c(CN(C)C(=O)c3ccc(O)cc3)sc3ccccc23)cc1

>  <scaffold>  (699) 
O=C(NCc1sc2ccccc2c1NCCc1ccccc1)c1ccccc1

>  <molecular_formula>  (699) 
C26H26N2O3S

$$$$
ATP-HTVS-6C98FCD8FCFE
     RDKit          3D

 60 63  0  0  0  0  0  0  0  0999 V2000
  197.6614  184.7465  153.4722 S   0  0  0  0  0  0  0  0  0  0  0  0
  197.5896  183.0194  153.1900 C   0  0  0  0  0  0  0  0  0  0  0  0
  198.2338  182.3056  154.2511 C   0  0  0  0  0  0  0  0  0  0  0  0
  198.2237  180.8888  154.1437 C   0  0  0  0  0  0  0  0  0  0  0  0
  197.6340  180.2239  153.0480 C   0  0  0  0  0  0  0  0  0  0  0  0
  197.0251  180.9633  152.0172 C   0  0  0  0  0  0  0  0  0  0  0  0
  196.9962  182.3657  152.0952 C   0  0  0  0  0  0  0  0  0  0  0  0
  198.7879  183.1892  155.2623 C   0  0  0  0  0  0  0  0  0  0  0  0
  199.5323  182.6311  156.3356 N   0  0  0  0  0  0  0  0  0  0  0  0
  200.4004  183.4009  157.2306 C   0  0  1  0  0  0  0  0  0  0  0  0
  201.2411  182.5783  158.1791 C   0  0  0  0  0  0  0  0  0  0  0  0
  201.4616  182.9820  159.5366 C   0  0  0  0  0  0  0  0  0  0  0  0
  202.2607  182.1920  160.3942 C   0  0  0  0  0  0  0  0  0  0  0  0
  202.8481  180.9988  159.9304 C   0  0  0  0  0  0  0  0  0  0  0  0
  202.6284  180.5876  158.6011 C   0  0  0  0  0  0  0  0  0  0  0  0
  201.8203  181.3531  157.7406 C   0  0  0  0  0  0  0  0  0  0  0  0
  200.8378  184.2361  160.1159 C   0  0  2  0  0  0  0  0  0  0  0  0
  201.4388  184.1925  156.4056 C   0  0  0  0  0  0  0  0  0  0  0  0
  201.5732  185.4083  156.5154 O   0  0  0  0  0  0  0  0  0  0  0  0
  202.1344  183.4056  155.5455 O   0  0  0  0  0  0  0  0  0  0  0  0
  203.0555  184.0425  154.6958 C   0  0  2  0  0  0  0  0  0  0  0  0
  198.4642  184.5173  155.0131 C   0  0  0  0  0  0  0  0  0  0  0  0
  198.6911  185.7938  155.7531 C   0  0  0  0  0  0  0  0  0  0  0  0
  199.2155  186.7160  155.1384 O   0  0  0  0  0  0  0  0  0  0  0  0
  198.2526  185.9316  157.0555 N   0  0  0  0  0  0  0  0  0  0  0  0
  197.5698  184.8928  157.7904 C   0  0  0  0  0  0  0  0  0  0  0  0
  197.8432  184.7282  159.1824 C   0  0  0  0  0  0  0  0  0  0  0  0
  197.2558  183.6472  159.8791 C   0  0  0  0  0  0  0  0  0  0  0  0
  196.3623  182.7573  159.2527 C   0  0  0  0  0  0  0  0  0  0  0  0
  196.0305  182.9587  157.9000 C   0  0  0  0  0  0  0  0  0  0  0  0
  196.6216  184.0205  157.1971 C   0  0  0  0  0  0  0  0  0  0  0  0
  198.5135  187.2299  157.7341 C   0  0  1  0  0  0  0  0  0  0  0  0
  199.8940  187.2949  158.4796 C   0  0  1  0  0  0  0  0  0  0  0  0
  200.0167  188.5818  159.0718 O   0  0  0  0  0  0  0  0  0  0  0  0
  198.6717  180.2892  154.9226 H   0  0  0  0  0  0  0  0  0  0  0  0
  197.6584  179.1446  152.9878 H   0  0  0  0  0  0  0  0  0  0  0  0
  196.5844  180.4639  151.1676 H   0  0  0  0  0  0  0  0  0  0  0  0
  196.5331  182.9565  151.3182 H   0  0  0  0  0  0  0  0  0  0  0  0
  199.7142  181.6391  156.2722 H   0  0  0  0  0  0  0  0  0  0  0  0
  199.7756  184.0908  157.7924 H   0  0  0  0  0  0  0  0  0  0  0  0
  202.3906  182.5136  161.4188 H   0  0  0  0  0  0  0  0  0  0  0  0
  203.4499  180.4111  160.6101 H   0  0  0  0  0  0  0  0  0  0  0  0
  203.0860  179.6850  158.2241 H   0  0  0  0  0  0  0  0  0  0  0  0
  201.6656  181.0284  156.7136 H   0  0  0  0  0  0  0  0  0  0  0  0
  201.2612  184.4499  161.1146 H   0  0  0  0  0  0  0  0  0  0  0  0
  199.7932  184.0698  160.1479 H   0  0  0  0  0  0  0  0  0  0  0  0
  201.0936  185.0487  159.4547 H   0  0  0  0  0  0  0  0  0  0  0  0
  203.5849  183.2779  154.1340 H   0  0  0  0  0  0  0  0  0  0  0  0
  203.7605  184.6250  155.2932 H   0  0  0  0  0  0  0  0  0  0  0  0
  202.5330  184.7197  154.0146 H   0  0  0  0  0  0  0  0  0  0  0  0
  198.5244  185.3790  159.7522 H   0  0  0  0  0  0  0  0  0  0  0  0
  197.5576  183.4564  160.9009 H   0  0  0  0  0  0  0  0  0  0  0  0
  195.9530  181.9008  159.7989 H   0  0  0  0  0  0  0  0  0  0  0  0
  195.3439  182.2787  157.3958 H   0  0  0  0  0  0  0  0  0  0  0  0
  196.3283  184.1240  156.1388 H   0  0  0  0  0  0  0  0  0  0  0  0
  198.4184  188.0701  157.0276 H   0  0  0  0  0  0  0  0  0  0  0  0
  197.7170  187.3805  158.4730 H   0  0  0  0  0  0  0  0  0  0  0  0
  199.9790  186.5804  159.2767 H   0  0  0  0  0  0  0  0  0  0  0  0
  200.7308  187.1770  157.7733 H   0  0  0  0  0  0  0  0  0  0  0  0
  199.4972  188.5910  159.8666 H   0  0  0  0  0  0  0  0  0  0  0  0
  1  2  1  0
  1 22  1  0
  2  3  1  0
  2  7  2  0
  3  4  2  0
  3  8  1  0
  4  5  1  0
  4 35  1  0
  5  6  2  0
  5 36  1  0
  6  7  1  0
  6 37  1  0
  7 38  1  0
  8  9  1  0
  8 22  2  0
  9 10  1  0
  9 39  1  0
 10 11  1  0
 10 18  1  0
 10 40  1  1
 11 12  1  0
 11 16  2  0
 12 13  2  0
 12 17  1  0
 13 14  1  0
 13 41  1  0
 14 15  2  0
 14 42  1  0
 15 16  1  0
 15 43  1  0
 16 44  1  0
 17 45  1  1
 17 46  1  0
 17 47  1  0
 18 19  2  0
 18 20  1  0
 20 21  1  0
 21 48  1  6
 21 49  1  0
 21 50  1  0
 22 23  1  0
 23 24  2  0
 23 25  1  0
 25 26  1  0
 25 32  1  0
 26 27  2  0
 26 31  1  0
 27 28  1  0
 27 51  1  0
 28 29  2  0
 28 52  1  0
 29 30  1  0
 29 53  1  0
 30 31  2  0
 30 54  1  0
 31 55  1  0
 32 33  1  0
 32 56  1  6
 32 57  1  0
 33 34  1  0
 33 58  1  1
 33 59  1  0
 34 60  1  0
M  END
>  <s_epik_Chemistry_Notes>  (700) 
This compound has an ester and may undergo hydrolysis at high or low pH.

>  <s_epik_cmdline>  (700) 
J2VwaWtfcHl0aG9uJywgJy1waCcsICc3LjAwMDAwMCcsICctcGh0JywgJzIuMDAwMDAwJywgJy1tcycsICcxNicsICctdG4nLCAnOCcsICctbWEnLCAnMjAwJywgJy1pbWFlJywgJzxpbmZpbGUubWFlPicsICctb21hZScsICc8b3V0ZmlsZS5tYWU+Jw==

>  <s_epik_input>  (700) 
W2NIXTFbY0hdW2NIXVtjSF1bY0hdYzFOKFtDSDJdW0NIMl1bT0hdKUMoPU8pYyhzMiljKGMoYzIzKVtjSF1bY0hdW2NIXVtjSF0zKVtOSF1bQ0BIXShDKD1PKU9bQ0gzXSljNGMoW0NIM10pW2NIXVtjSF1bY0hdW2NIXTQ=

>  <s_i_glide_gridfile>  (700) 
ATP-Grid

>  <s_lp_Force_Field>  (700) 
OPLS_2005

>  <s_lp_Variant>  (700) 
rxn512c____EMOL483896____EMOL523944____EMOL14063112-2

>  <s_lp_label>  (700) 
3011_sdstereoexpander_2_neutralizer_1_epik_1_stereoizer_1

>  <s_m_source_file>  (700) 
ATP-VSW-LIGPREP-002-in.maegz

>  <s_sd_BIOSOLVEIT.INFINISEE\_QUERY\_NAME>  (700) 
Ref-Lig

>  <s_sd_BIOSOLVEIT.INFINISEE\_QUERY\_SMILES>  (700) 
S(c1nc2c(cc1C[NH2+]Cc3ccc(cc3)C[NH+](C)C)cccc2)Cc4ccccc4

>  <s_sd_BIOSOLVEIT.INFINISEE\_REACTION\_NAME>  (700) 
rxn512c

>  <s_sd_BIOSOLVEIT.INFINISEE\_REAGENT1\_NAME>  (700) 
EMOL483896

>  <s_sd_BIOSOLVEIT.INFINISEE\_REAGENT1\_SMILES>  (700) 
OCCNc1ccccc1

>  <s_sd_BIOSOLVEIT.INFINISEE\_REAGENT2\_NAME>  (700) 
EMOL523944

>  <s_sd_BIOSOLVEIT.INFINISEE\_REAGENT2\_SMILES>  (700) 
ClC=1c2c(SC1C(=O)O)cccc2

>  <s_sd_BIOSOLVEIT.INFINISEE\_REAGENT3\_NAME>  (700) 
EMOL14063112

>  <s_sd_BIOSOLVEIT.INFINISEE\_REAGENT3\_SMILES>  (700) 
O=C(OC)C(N)c1c(cccc1)C

>  <s_sd_BIOSOLVEIT.INFINISEE\_SPACE>  (700) 
eXplore_7tr_2022-12

>  <s_vsw_compound_code>  (700) 
96322

>  <s_vsw_variant>  (700) 
96322-2

>  <r_epik_Charging_Adjusted_Penalty>  (700) 
0

>  <r_epik_Ionization_Penalty>  (700) 
0.00020000000000000001

>  <r_epik_Ionization_Penalty_Charging>  (700) 
0

>  <r_epik_Ionization_Penalty_Neutral>  (700) 
0.00020000000000000001

>  <r_epik_State_Penalty>  (700) 
-0

>  <r_i_docking_score>  (700) 
-2.3309913647272098

>  <r_i_glide_ecoul>  (700) 
-1.7718088626861599

>  <r_i_glide_eff_state_penalty>  (700) 
-0

>  <r_i_glide_einternal>  (700) 
3.1385073661804199

>  <r_i_glide_emodel>  (700) 
-34.6809975558904

>  <r_i_glide_energy>  (700) 
-31.298132181167599

>  <r_i_glide_erotb>  (700) 
0.808651611712211

>  <r_i_glide_esite>  (700) 
-0.00094382567498932401

>  <r_i_glide_evdw>  (700) 
-29.526323318481399

>  <r_i_glide_gscore>  (700) 
-2.3309913647272098

>  <r_i_glide_hbond>  (700) 
0

>  <r_i_glide_ligand_efficiency>  (700) 
-0.068558569550800294

>  <r_i_glide_ligand_efficiency_ln>  (700) 
-0.51498137456138204

>  <r_i_glide_ligand_efficiency_sa>  (700) 
-0.22210315073440401

>  <r_i_glide_lipo>  (700) 
-1.1841193861314201

>  <r_i_glide_metal>  (700) 
-0

>  <r_i_glide_rewards>  (700) 
-0.212492269306018

>  <r_lp_Energy>  (700) 
45.298622999999999

>  <r_lp_tautomer_probability>  (700) 
1

>  <r_qp_ACxDN^.5/SA>  (700) 
0.0091409999999999998

>  <r_qp_CIQPlogS>  (700) 
-6.3949999999999996

>  <r_qp_EA(eV)>  (700) 
0.88100000000000001

>  <r_qp_FISA>  (700) 
109.86499999999999

>  <r_qp_FOSA>  (700) 
186.196

>  <r_qp_IP(eV)>  (700) 
8.3539999999999992

>  <r_qp_Jm>  (700) 
0.0059305662712335703

>  <r_qp_PISA>  (700) 
402.221

>  <r_qp_PSA>  (700) 
85.652000000000001

>  <r_qp_PercentHumanOralAbsorption>  (700) 
96.384

>  <r_qp_QPPCaco>  (700) 
224.36199999999999

>  <r_qp_QPPMDCK>  (700) 
168.52099999999999

>  <r_qp_QPlogBB>  (700) 
-0.55600000000000005

>  <r_qp_QPlogHERG>  (700) 
-6.9130000000000003

>  <r_qp_QPlogKhsa>  (700) 
0.75800000000000001

>  <r_qp_QPlogKp>  (700) 
-3.3260000000000001

>  <r_qp_QPlogPC16>  (700) 
15.369

>  <r_qp_QPlogPo/w>  (700) 
4.673

>  <r_qp_QPlogPoct>  (700) 
22.291

>  <r_qp_QPlogPw>  (700) 
11.057

>  <r_qp_QPlogS>  (700) 
-4.577

>  <r_qp_QPpolrz>  (700) 
48.462000000000003

>  <r_qp_SASA>  (700) 
732.96100000000001

>  <r_qp_SAamideO>  (700) 
0

>  <r_qp_SAfluorine>  (700) 
0

>  <r_qp_WPSA>  (700) 
34.679000000000002

>  <r_qp_accptHB>  (700) 
6.7000000000000002

>  <r_qp_dip^2/V>  (700) 
0.0573578

>  <r_qp_dipole>  (700) 
9.0030000000000001

>  <r_qp_donorHB>  (700) 
1

>  <r_qp_glob>  (700) 
0.83088189999999995

>  <r_qp_mol_MW>  (700) 
474.57299999999998

>  <r_qp_volume>  (700) 
1413.1310000000001

>  <r_sd_BIOSOLVEIT.INFINISEE\_FTREES\_SIMILARITY>  (700) 
0.90200000000000002

>  <r_sd_BIOSOLVEIT.LOGP>  (700) 
5.17502

>  <r_sd_BIOSOLVEIT.MOLECULAR\_WEIGHT>  (700) 
474.577

>  <r_sd_BIOSOLVEIT.TPSA>  (700) 
78.870000000000005

>  <i_epik_Tot_Q>  (700) 
0

>  <i_epik_Tot_abs_Q>  (700) 
0

>  <i_f3d_flags>  (700) 
0

>  <i_i_glide_confnum>  (700) 
6

>  <i_i_glide_lignum>  (700) 
75

>  <i_i_glide_posenum>  (700) 
3

>  <i_i_glide_rotatable_bonds>  (700) 
11

>  <i_lp_mmshare_version>  (700) 
65135

>  <i_m_ct_format>  (700) 
2

>  <i_m_source_file_index>  (700) 
3011

>  <i_qp_#NandO>  (700) 
6

>  <i_qp_#acid>  (700) 
0

>  <i_qp_#amide>  (700) 
0

>  <i_qp_#amidine>  (700) 
0

>  <i_qp_#amine>  (700) 
1

>  <i_qp_#in34>  (700) 
0

>  <i_qp_#in56>  (700) 
21

>  <i_qp_#metab>  (700) 
7

>  <i_qp_#nonHatm>  (700) 
34

>  <i_qp_#noncon>  (700) 
0

>  <i_qp_#ringatoms>  (700) 
21

>  <i_qp_#rotor>  (700) 
9

>  <i_qp_#rtvFG>  (700) 
1

>  <i_qp_#stars>  (700) 
0

>  <i_qp_CNS>  (700) 
1

>  <i_qp_HumanOralAbsorption>  (700) 
3

>  <i_qp_RuleOfFive>  (700) 
0

>  <i_qp_RuleOfThree>  (700) 
1

>  <i_sd_BIOSOLVEIT.INFINISEE\_RESULT\_RANK>  (700) 
86864

>  <i_sd_version>  (700) 
0

>  <b_lp_Chiralities_Consistent>  (700) 
1

>  <b_sd_chiral_flag>  (700) 
0

>  <canonical_id>  (700) 
ATP-HTVS-6C98FCD8FCFE

>  <compound_code>  (700) 
96322

>  <title>  (700) 
rxn512c____EMOL483896____EMOL523944____EMOL14063112

>  <variant>  (700) 
96322-2

>  <source_file>  (700) 
运行/运行/ATP-VSW/ATP-VSW-DOCK_HTVS_1-003_lib/ATP-VSW-DOCK_HTVS_1-003_lib.mae

>  <canonical_smiles>  (700) 
COC(=O)[C@@H](Nc1c(C(=O)N(CCO)c2ccccc2)sc2ccccc12)c1ccccc1C

>  <scaffold>  (700) 
O=C(Nc1ccccc1)c1sc2ccccc2c1NCc1ccccc1

>  <molecular_formula>  (700) 
C27H26N2O4S

$$$$
ATP-HTVS-6CCE19BA0E53
     RDKit          3D

 53 55  0  0  0  0  0  0  0  0999 V2000
  196.7182  180.3662  151.7813 F   0  0  0  0  0  0  0  0  0  0  0  0
  197.2338  180.4147  153.0349 C   0  0  0  0  0  0  0  0  0  0  0  0
  198.2755  179.5394  153.4067 C   0  0  0  0  0  0  0  0  0  0  0  0
  198.8006  179.5967  154.7146 C   0  0  0  0  0  0  0  0  0  0  0  0
  198.3137  180.5435  155.6331 C   0  0  0  0  0  0  0  0  0  0  0  0
  197.2928  181.4427  155.2531 C   0  0  0  0  0  0  0  0  0  0  0  0
  196.8089  182.4408  156.1050 N   0  0  0  0  0  0  0  0  0  0  0  0
  197.4910  182.7770  157.3468 C   0  0  1  0  0  0  0  0  0  0  0  0
  197.0565  184.1284  157.9015 C   0  0  0  0  0  0  0  0  0  0  0  0
  196.2602  184.1935  159.0742 C   0  0  0  0  0  0  0  0  0  0  0  0
  195.8562  183.0475  159.7164 O   0  0  0  0  0  0  0  0  0  0  0  0
  194.7970  182.3487  159.0705 C   0  0  2  0  0  0  0  0  0  0  0  0
  195.9004  185.4440  159.6310 C   0  0  0  0  0  0  0  0  0  0  0  0
  195.1613  185.4354  160.7957 O   0  0  0  0  0  0  0  0  0  0  0  0
  194.8108  186.6752  161.3922 C   0  0  2  0  0  0  0  0  0  0  0  0
  196.3053  186.6340  158.9793 C   0  0  0  0  0  0  0  0  0  0  0  0
  197.0647  186.5814  157.7983 C   0  0  0  0  0  0  0  0  0  0  0  0
  197.4503  185.3311  157.2507 C   0  0  0  0  0  0  0  0  0  0  0  0
  198.2174  185.3159  156.0581 C   0  0  0  0  0  0  0  0  0  0  0  0
  198.5912  186.5168  155.4300 C   0  0  0  0  0  0  0  0  0  0  0  0
  198.2102  187.7505  155.9838 C   0  0  0  0  0  0  0  0  0  0  0  0
  197.4440  187.7821  157.1631 C   0  0  0  0  0  0  0  0  0  0  0  0
  196.7485  181.3618  153.9568 C   0  0  0  0  0  0  0  0  0  0  0  0
  198.8255  178.5385  152.4077 C   0  0  1  0  0  0  0  0  0  0  0  0
  199.8472  179.1302  151.5072 N   0  0  2  0  0  0  0  0  0  0  0  0
  200.1783  178.2252  150.3825 C   0  0  2  0  0  0  0  0  0  0  0  0
  201.0658  179.5917  152.2150 C   0  0  2  0  0  0  0  0  0  0  0  0
  199.5944  178.9291  155.0210 H   0  0  0  0  0  0  0  0  0  0  0  0
  198.7298  180.5621  156.6299 H   0  0  0  0  0  0  0  0  0  0  0  0
  195.9639  182.9384  155.8585 H   0  0  0  0  0  0  0  0  0  0  0  0
  197.3222  181.9776  158.0705 H   0  0  0  0  0  0  0  0  0  0  0  0
  198.5710  182.8033  157.1888 H   0  0  0  0  0  0  0  0  0  0  0  0
  194.6046  181.4250  159.6170 H   0  0  0  0  0  0  0  0  0  0  0  0
  195.0259  182.0699  158.0433 H   0  0  0  0  0  0  0  0  0  0  0  0
  193.8845  182.9451  159.0665 H   0  0  0  0  0  0  0  0  0  0  0  0
  194.2405  186.4839  162.3003 H   0  0  0  0  0  0  0  0  0  0  0  0
  194.1823  187.2704  160.7304 H   0  0  0  0  0  0  0  0  0  0  0  0
  195.6950  187.2485  161.6728 H   0  0  0  0  0  0  0  0  0  0  0  0
  196.0371  187.6073  159.3681 H   0  0  0  0  0  0  0  0  0  0  0  0
  198.5290  184.3902  155.5991 H   0  0  0  0  0  0  0  0  0  0  0  0
  199.1707  186.4899  154.5205 H   0  0  0  0  0  0  0  0  0  0  0  0
  198.4964  188.6725  155.5012 H   0  0  0  0  0  0  0  0  0  0  0  0
  197.1507  188.7325  157.5815 H   0  0  0  0  0  0  0  0  0  0  0  0
  195.9555  182.0351  153.6625 H   0  0  0  0  0  0  0  0  0  0  0  0
  199.2483  177.6833  152.9374 H   0  0  0  0  0  0  0  0  0  0  0  0
  197.9921  178.1573  151.8147 H   0  0  0  0  0  0  0  0  0  0  0  0
  200.6374  177.3039  150.7438 H   0  0  0  0  0  0  0  0  0  0  0  0
  200.8748  178.7028  149.6928 H   0  0  0  0  0  0  0  0  0  0  0  0
  199.2848  177.9595  149.8162 H   0  0  0  0  0  0  0  0  0  0  0  0
  201.5560  178.7649  152.7315 H   0  0  0  0  0  0  0  0  0  0  0  0
  200.8361  180.3638  152.9502 H   0  0  0  0  0  0  0  0  0  0  0  0
  201.7807  180.0239  151.5137 H   0  0  0  0  0  0  0  0  0  0  0  0
  199.4191  179.9502  151.0994 H   0  0  0  0  0  0  0  0  0  0  0  0
  1  2  1  0
  2  3  2  0
  2 23  1  0
  3  4  1  0
  3 24  1  0
  4  5  2  0
  4 28  1  0
  5  6  1  0
  5 29  1  0
  6  7  1  0
  6 23  2  0
  7  8  1  0
  7 30  1  0
  8  9  1  0
  8 31  1  1
  8 32  1  0
  9 10  2  0
  9 18  1  0
 10 11  1  0
 10 13  1  0
 11 12  1  0
 12 33  1  1
 12 34  1  0
 12 35  1  0
 13 14  1  0
 13 16  2  0
 14 15  1  0
 15 36  1  1
 15 37  1  0
 15 38  1  0
 16 17  1  0
 16 39  1  0
 17 18  1  0
 17 22  2  0
 18 19  2  0
 19 20  1  0
 19 40  1  0
 20 21  2  0
 20 41  1  0
 21 22  1  0
 21 42  1  0
 22 43  1  0
 23 44  1  0
 24 25  1  0
 24 45  1  1
 24 46  1  0
 25 26  1  0
 25 27  1  0
 25 53  1  6
 26 47  1  1
 26 48  1  0
 26 49  1  0
 27 50  1  1
 27 51  1  0
 27 52  1  0
M  CHG  1  25   1
M  END
>  <s_epik_cmdline>  (701) 
J2VwaWtfcHl0aG9uJywgJy1waCcsICc3LjAwMDAwMCcsICctcGh0JywgJzIuMDAwMDAwJywgJy1tcycsICcxNicsICctdG4nLCAnOCcsICctbWEnLCAnMjAwJywgJy1pbWFlJywgJzxpbmZpbGUubWFlPicsICctb21hZScsICc8b3V0ZmlsZS5tYWU+Jw==

>  <s_epik_input>  (701) 
W0NIM11OKFtDSDNdKVtDSDJdYyhjMUYpW2NIXVtjSF1jKFtjSF0xKVtOSF1bQ0gyXWMoYyhPW0NIM10pYyhbY0hdMilPW0NIM10pYyhjMjMpW2NIXVtjSF1bY0hdW2NIXTM=

>  <s_i_glide_gridfile>  (701) 
ATP-Grid

>  <s_lp_Force_Field>  (701) 
OPLS_2005

>  <s_lp_Variant>  (701) 
m_270004dbb____8156874____24720450-1

>  <s_lp_label>  (701) 
1286_sdstereoexpander_1_neutralizer_1_epik_1_stereoizer_1

>  <s_m_source_file>  (701) 
ATP-VSW-LIGPREP-003-in.maegz

>  <s_sd_BIOSOLVEIT.INFINISEE\_QUERY\_NAME>  (701) 
Ref-Lig

>  <s_sd_BIOSOLVEIT.INFINISEE\_QUERY\_SMILES>  (701) 
S(c1nc2c(cc1C[NH2+]Cc3ccc(cc3)C[NH+](C)C)cccc2)Cc4ccccc4

>  <s_sd_BIOSOLVEIT.INFINISEE\_REACTION\_NAME>  (701) 
m_270004dbb

>  <s_sd_BIOSOLVEIT.INFINISEE\_REAGENT1\_SMILES>  (701) 
[R1*]Nc1cc(F)c(cc1)CN(C)C

>  <s_sd_BIOSOLVEIT.INFINISEE\_REAGENT2\_SMILES>  (701) 
[R1*]Cc1c(OC)c(OC)cc2c1cccc2

>  <s_sd_BIOSOLVEIT.INFINISEE\_SPACE>  (701) 
REALSpace_44bn_2023-08

>  <s_vsw_compound_code>  (701) 
41123

>  <s_vsw_variant>  (701) 
41123-1

>  <r_epik_Charging_Adjusted_Penalty>  (701) 
0.097724069631781402

>  <r_epik_Ionization_Penalty>  (701) 
0.048899999999999999

>  <r_epik_Ionization_Penalty_Charging>  (701) 
0.048899999999999999

>  <r_epik_Ionization_Penalty_Neutral>  (701) 
0

>  <r_epik_State_Penalty>  (701) 
0.048899999999999999

>  <r_i_docking_score>  (701) 
-3.9357755173866602

>  <r_i_glide_ecoul>  (701) 
-3.3303987979888898

>  <r_i_glide_eff_state_penalty>  (701) 
0.048899999999999999

>  <r_i_glide_einternal>  (701) 
1.01816654205322

>  <r_i_glide_emodel>  (701) 
-45.171526527395301

>  <r_i_glide_energy>  (701) 
-34.430708169937098

>  <r_i_glide_erotb>  (701) 
0.56503575381728099

>  <r_i_glide_esite>  (701) 
-0.058898475465546003

>  <r_i_glide_evdw>  (701) 
-31.1003093719482

>  <r_i_glide_gscore>  (701) 
-3.9846755173866599

>  <r_i_glide_hbond>  (701) 
-0.038453318723049502

>  <r_i_glide_ligand_efficiency>  (701) 
-0.14576946360691301

>  <r_i_glide_ligand_efficiency_ln>  (701) 
-0.91618365411706904

>  <r_i_glide_ligand_efficiency_sa>  (701) 
-0.437308390340308

>  <r_i_glide_lipo>  (701) 
-1.3105437809282701

>  <r_i_glide_metal>  (701) 
-0

>  <r_i_glide_rewards>  (701) 
-1.08724040779134

>  <r_lp_Energy>  (701) 
32.11936

>  <r_qp_ACxDN^.5/SA>  (701) 
0.0065742999999999999

>  <r_qp_CIQPlogS>  (701) 
-4.8150000000000004

>  <r_qp_EA(eV)>  (701) 
1.0129999999999999

>  <r_qp_FISA>  (701) 
4.4050000000000002

>  <r_qp_FOSA>  (701) 
361.637

>  <r_qp_IP(eV)>  (701) 
8.1500000000000004

>  <r_qp_Jm>  (701) 
0.049682846689011802

>  <r_qp_PISA>  (701) 
283.88099999999997

>  <r_qp_PSA>  (701) 
30.442

>  <r_qp_PercentHumanOralAbsorption>  (701) 
100

>  <r_qp_QPPCaco>  (701) 
2244.0059999999999

>  <r_qp_QPPMDCK>  (701) 
2027.412

>  <r_qp_QPlogBB>  (701) 
0.57999999999999996

>  <r_qp_QPlogHERG>  (701) 
-6.7489999999999997

>  <r_qp_QPlogKhsa>  (701) 
0.755

>  <r_qp_QPlogKp>  (701) 
-1.9910000000000001

>  <r_qp_QPlogPC16>  (701) 
11.593999999999999

>  <r_qp_QPlogPo/w>  (701) 
4.9530000000000003

>  <r_qp_QPlogPoct>  (701) 
17.027999999999999

>  <r_qp_QPlogPw>  (701) 
7.6920000000000002

>  <r_qp_QPlogS>  (701) 
-4.8789999999999996

>  <r_qp_QPpolrz>  (701) 
40.835000000000001

>  <r_qp_SASA>  (701) 
684.47900000000004

>  <r_qp_SAamideO>  (701) 
0

>  <r_qp_SAfluorine>  (701) 
34.555999999999997

>  <r_qp_WPSA>  (701) 
34.555999999999997

>  <r_qp_accptHB>  (701) 
4.5

>  <r_qp_dip^2/V>  (701) 
0.0152325

>  <r_qp_dipole>  (701) 
4.3090000000000002

>  <r_qp_donorHB>  (701) 
1

>  <r_qp_glob>  (701) 
0.80613349999999995

>  <r_qp_mol_MW>  (701) 
368.44999999999999

>  <r_qp_volume>  (701) 
1218.7180000000001

>  <r_sd_BIOSOLVEIT.INFINISEE\_FTREES\_SIMILARITY>  (701) 
0.91000000000000003

>  <r_sd_BIOSOLVEIT.LOGP>  (701) 
3.2526999999999999

>  <r_sd_BIOSOLVEIT.MOLECULAR\_WEIGHT>  (701) 
369.45699999999999

>  <r_sd_BIOSOLVEIT.TPSA>  (701) 
34.93

>  <i_epik_Tot_Q>  (701) 
1

>  <i_epik_Tot_abs_Q>  (701) 
1

>  <i_f3d_flags>  (701) 
0

>  <i_i_glide_confnum>  (701) 
3

>  <i_i_glide_lignum>  (701) 
520

>  <i_i_glide_posenum>  (701) 
9

>  <i_i_glide_rotatable_bonds>  (701) 
7

>  <i_lp_mmshare_version>  (701) 
65135

>  <i_m_ct_format>  (701) 
2

>  <i_m_source_file_index>  (701) 
1286

>  <i_qp_#NandO>  (701) 
4

>  <i_qp_#acid>  (701) 
0

>  <i_qp_#amide>  (701) 
0

>  <i_qp_#amidine>  (701) 
0

>  <i_qp_#amine>  (701) 
1

>  <i_qp_#in34>  (701) 
0

>  <i_qp_#in56>  (701) 
16

>  <i_qp_#metab>  (701) 
7

>  <i_qp_#nonHatm>  (701) 
27

>  <i_qp_#noncon>  (701) 
0

>  <i_qp_#ringatoms>  (701) 
16

>  <i_qp_#rotor>  (701) 
7

>  <i_qp_#rtvFG>  (701) 
0

>  <i_qp_#stars>  (701) 
1

>  <i_qp_CNS>  (701) 
2

>  <i_qp_HumanOralAbsorption>  (701) 
3

>  <i_qp_RuleOfFive>  (701) 
0

>  <i_qp_RuleOfThree>  (701) 
1

>  <i_sd_BIOSOLVEIT.INFINISEE\_REAGENT1\_NAME>  (701) 
8156874

>  <i_sd_BIOSOLVEIT.INFINISEE\_REAGENT2\_NAME>  (701) 
24720450

>  <i_sd_BIOSOLVEIT.INFINISEE\_RESULT\_RANK>  (701) 
45813

>  <i_sd_version>  (701) 
0

>  <b_lp_Chiralities_Consistent>  (701) 
1

>  <b_sd_chiral_flag>  (701) 
0

>  <canonical_id>  (701) 
ATP-HTVS-6CCE19BA0E53

>  <compound_code>  (701) 
41123

>  <title>  (701) 
m_270004dbb____8156874____24720450

>  <variant>  (701) 
41123-1

>  <source_file>  (701) 
运行/运行/ATP-VSW/ATP-VSW-DOCK_HTVS_1-003_lib/ATP-VSW-DOCK_HTVS_1-003_lib.mae

>  <canonical_smiles>  (701) 
COc1cc2ccccc2c(CNc2ccc(C[NH+](C)C)c(F)c2)c1OC

>  <scaffold>  (701) 
c1ccc(NCc2cccc3ccccc23)cc1

>  <molecular_formula>  (701) 
C22H26FN2O2+

$$$$
ATP-HTVS-6D0E62C9397C
     RDKit          3D

 59 61  0  0  0  0  0  0  0  0999 V2000
  195.5467  179.0497  151.8234 F   0  0  0  0  0  0  0  0  0  0  0  0
  196.4295  180.0611  151.6591 C   0  0  0  0  0  0  0  0  0  0  0  0
  196.8469  180.8046  152.7752 C   0  0  0  0  0  0  0  0  0  0  0  0
  197.7767  181.8551  152.6015 C   0  0  0  0  0  0  0  0  0  0  0  0
  198.2681  182.1709  151.3115 C   0  0  0  0  0  0  0  0  0  0  0  0
  197.8297  181.4147  150.2043 C   0  0  0  0  0  0  0  0  0  0  0  0
  196.9075  180.3668  150.3738 C   0  0  0  0  0  0  0  0  0  0  0  0
  199.1721  183.3712  151.1037 C   0  0  1  0  0  0  0  0  0  0  0  0
  198.9561  184.4866  152.0422 N   0  0  0  0  0  0  0  0  0  0  0  0
  199.9472  184.8555  152.9104 C   0  0  0  0  0  0  0  0  0  0  0  0
  201.0029  184.2295  153.0139 O   0  0  0  0  0  0  0  0  0  0  0  0
  199.7545  186.0469  153.8160 C   0  0  0  0  0  0  0  0  0  0  0  0
  199.3163  187.2990  153.3599 C   0  0  0  0  0  0  0  0  0  0  0  0
  199.1534  188.3710  154.1681 N   0  0  0  0  0  0  0  0  0  0  0  0
  199.4225  188.2258  155.4858 C   0  0  0  0  0  0  0  0  0  0  0  0
  199.9243  187.0450  156.0521 C   0  0  0  0  0  0  0  0  0  0  0  0
  200.1879  186.9878  157.4307 N   0  0  0  0  0  0  0  0  0  0  0  0
  200.5388  185.7414  158.1089 C   0  0  1  0  0  0  0  0  0  0  0  0
  199.3943  184.7572  158.2666 C   0  0  0  0  0  0  0  0  0  0  0  0
  199.2279  183.6818  157.3639 C   0  0  0  0  0  0  0  0  0  0  0  0
  198.1289  182.8047  157.4820 C   0  0  0  0  0  0  0  0  0  0  0  0
  197.2329  182.9525  158.5602 C   0  0  0  0  0  0  0  0  0  0  0  0
  197.4344  183.9762  159.5063 C   0  0  0  0  0  0  0  0  0  0  0  0
  198.4883  184.9007  159.3364 C   0  0  0  0  0  0  0  0  0  0  0  0
  196.0707  181.9952  158.6954 C   0  0  1  0  0  0  0  0  0  0  0  0
  194.7929  182.5347  158.1229 N   0  0  2  0  0  0  0  0  0  0  0  0
  194.3775  183.8248  158.7559 C   0  0  2  0  0  0  0  0  0  0  0  0
  193.7010  181.5477  158.1650 C   0  0  2  0  0  0  0  0  0  0  0  0
  200.1431  185.9569  155.1734 C   0  0  0  0  0  0  0  0  0  0  0  0
  197.5864  185.0660  152.0854 C   0  0  1  0  0  0  0  0  0  0  0  0
  196.5760  184.4570  151.2107 C   0  0  0  0  0  0  0  0  0  0  0  0
  195.7478  184.0261  150.5324 N   0  0  0  0  0  0  0  0  0  0  0  0
  196.4457  180.5996  153.7528 H   0  0  0  0  0  0  0  0  0  0  0  0
  198.0552  182.4379  153.4625 H   0  0  0  0  0  0  0  0  0  0  0  0
  198.1561  181.6743  149.2046 H   0  0  0  0  0  0  0  0  0  0  0  0
  196.5436  179.8125  149.5215 H   0  0  0  0  0  0  0  0  0  0  0  0
  200.2123  182.9914  151.0897 H   0  0  0  0  0  0  0  0  0  0  0  0
  199.0336  183.7677  150.0880 H   0  0  0  0  0  0  0  0  0  0  0  0
  199.1229  187.4775  152.3201 H   0  0  0  0  0  0  0  0  0  0  0  0
  199.2616  189.1027  156.0886 H   0  0  0  0  0  0  0  0  0  0  0  0
  199.8863  187.7583  158.0063 H   0  0  0  0  0  0  0  0  0  0  0  0
  201.3758  185.2624  157.6142 H   0  0  0  0  0  0  0  0  0  0  0  0
  200.9046  186.0014  159.1056 H   0  0  0  0  0  0  0  0  0  0  0  0
  199.9358  183.5237  156.5398 H   0  0  0  0  0  0  0  0  0  0  0  0
  197.9966  182.0191  156.7502 H   0  0  0  0  0  0  0  0  0  0  0  0
  196.7779  184.0864  160.3497 H   0  0  0  0  0  0  0  0  0  0  0  0
  198.6014  185.7127  160.0332 H   0  0  0  0  0  0  0  0  0  0  0  0
  196.3380  181.0632  158.1870 H   0  0  0  0  0  0  0  0  0  0  0  0
  195.9273  181.7208  159.7454 H   0  0  0  0  0  0  0  0  0  0  0  0
  194.2213  183.7052  159.8264 H   0  0  0  0  0  0  0  0  0  0  0  0
  193.4505  184.1958  158.3057 H   0  0  0  0  0  0  0  0  0  0  0  0
  195.1006  184.6213  158.5956 H   0  0  0  0  0  0  0  0  0  0  0  0
  193.4795  181.2254  159.1814 H   0  0  0  0  0  0  0  0  0  0  0  0
  193.9516  180.6631  157.5766 H   0  0  0  0  0  0  0  0  0  0  0  0
  192.7981  181.9780  157.7334 H   0  0  0  0  0  0  0  0  0  0  0  0
  200.6107  185.0110  155.5423 H   0  0  0  0  0  0  0  0  0  0  0  0
  197.2079  185.0407  153.1129 H   0  0  0  0  0  0  0  0  0  0  0  0
  197.6019  186.1014  151.7532 H   0  0  0  0  0  0  0  0  0  0  0  0
  194.9306  182.7116  157.1583 H   0  0  0  0  0  0  0  0  0  0  0  0
  1  2  1  0
  2  3  1  0
  2  7  2  0
  3  4  2  0
  3 33  1  0
  4  5  1  0
  4 34  1  0
  5  6  2  0
  5  8  1  0
  6  7  1  0
  6 35  1  0
  7 36  1  0
  8  9  1  0
  8 37  1  6
  8 38  1  0
  9 10  1  0
  9 30  1  0
 10 11  2  0
 10 12  1  0
 12 13  1  0
 12 29  2  0
 13 14  2  0
 13 39  1  0
 14 15  1  0
 15 16  2  0
 15 40  1  0
 16 17  1  0
 16 29  1  0
 17 18  1  0
 17 41  1  0
 18 19  1  0
 18 42  1  6
 18 43  1  0
 19 20  1  0
 19 24  2  0
 20 21  2  0
 20 44  1  0
 21 22  1  0
 21 45  1  0
 22 23  2  0
 22 25  1  0
 23 24  1  0
 23 46  1  0
 24 47  1  0
 25 26  1  0
 25 48  1  6
 25 49  1  0
 26 27  1  0
 26 28  1  0
 26 59  1  6
 27 50  1  1
 27 51  1  0
 27 52  1  0
 28 53  1  1
 28 54  1  0
 28 55  1  0
 29 56  1  0
 30 31  1  0
 30 57  1  1
 30 58  1  0
 31 32  3  0
M  CHG  1  26   1
M  END
>  <s_epik_cmdline>  (702) 
J2VwaWtfcHl0aG9uJywgJy1waCcsICc3LjAwMDAwMCcsICctcGh0JywgJzIuMDAwMDAwJywgJy1tcycsICcxNicsICctdG4nLCAnOCcsICctbWEnLCAnMjAwJywgJy1pbWFlJywgJzxpbmZpbGUubWFlPicsICctb21hZScsICc8b3V0ZmlsZS5tYWU+Jw==

>  <s_epik_input>  (702) 
RmMxW2NIXVtjSF1jKFtjSF1bY0hdMSlbQ0gyXU4oW0NIMl1DI04pQyg9TyljMltjSF1uW2NIXWMoW2NIXTIpW05IXVtDSDJdYzNbY0hdW2NIXWMoW2NIXVtjSF0zKVtDSDJdTihbQ0gzXSlbQ0gzXQ==

>  <s_i_glide_gridfile>  (702) 
ATP-Grid

>  <s_lp_Force_Field>  (702) 
OPLS_2005

>  <s_lp_Variant>  (702) 
rxn512a____EMOL50155899____EMOL8295720____EMOL37358747-1

>  <s_lp_label>  (702) 
2748_sdstereoexpander_1_neutralizer_1_epik_1_stereoizer_1

>  <s_m_source_file>  (702) 
ATP-VSW-LIGPREP-003-in.maegz

>  <s_sd_BIOSOLVEIT.INFINISEE\_QUERY\_NAME>  (702) 
Ref-Lig

>  <s_sd_BIOSOLVEIT.INFINISEE\_QUERY\_SMILES>  (702) 
S(c1nc2c(cc1C[NH2+]Cc3ccc(cc3)C[NH+](C)C)cccc2)Cc4ccccc4

>  <s_sd_BIOSOLVEIT.INFINISEE\_REACTION\_NAME>  (702) 
rxn512a

>  <s_sd_BIOSOLVEIT.INFINISEE\_REAGENT1\_NAME>  (702) 
EMOL50155899

>  <s_sd_BIOSOLVEIT.INFINISEE\_REAGENT1\_SMILES>  (702) 
N(Cc1ccc(cc1)CN)(C)C

>  <s_sd_BIOSOLVEIT.INFINISEE\_REAGENT2\_NAME>  (702) 
EMOL8295720

>  <s_sd_BIOSOLVEIT.INFINISEE\_REAGENT2\_SMILES>  (702) 
Ic1cncc(c1)C(=O)O

>  <s_sd_BIOSOLVEIT.INFINISEE\_REAGENT3\_NAME>  (702) 
EMOL37358747

>  <s_sd_BIOSOLVEIT.INFINISEE\_REAGENT3\_SMILES>  (702) 
Fc1ccc(cc1)CNCC#N

>  <s_sd_BIOSOLVEIT.INFINISEE\_SPACE>  (702) 
eXplore_7tr_2022-12

>  <s_vsw_compound_code>  (702) 
87907

>  <s_vsw_variant>  (702) 
87907-1

>  <r_epik_Charging_Adjusted_Penalty>  (702) 
0.078407994868761793

>  <r_epik_Ionization_Penalty>  (702) 
0.040500000000000001

>  <r_epik_Ionization_Penalty_Charging>  (702) 
0.039199999999999999

>  <r_epik_Ionization_Penalty_Neutral>  (702) 
0.0012999999999999999

>  <r_epik_State_Penalty>  (702) 
0.039199999999999999

>  <r_i_docking_score>  (702) 
-3.6815938860764001

>  <r_i_glide_ecoul>  (702) 
-7.8385248184204102

>  <r_i_glide_eff_state_penalty>  (702) 
0.039199999999999999

>  <r_i_glide_einternal>  (702) 
3.8561377525329599

>  <r_i_glide_emodel>  (702) 
-48.104480728057602

>  <r_i_glide_energy>  (702) 
-36.5746622085571

>  <r_i_glide_erotb>  (702) 
0.74461951042470897

>  <r_i_glide_esite>  (702) 
-0.104789186665738

>  <r_i_glide_evdw>  (702) 
-28.736137390136701

>  <r_i_glide_gscore>  (702) 
-3.7207938860763998

>  <r_i_glide_hbond>  (702) 
-0.29881703267658399

>  <r_i_glide_ligand_efficiency>  (702) 
-0.115049808939887

>  <r_i_glide_ligand_efficiency_ln>  (702) 
-0.82440922755156099

>  <r_i_glide_ligand_efficiency_sa>  (702) 
-0.36526037505787001

>  <r_i_glide_lipo>  (702) 
-0.87977952532997705

>  <r_i_glide_metal>  (702) 
-0

>  <r_i_glide_rewards>  (702) 
-0.56944205955890803

>  <r_lp_Energy>  (702) 
26.838536000000001

>  <r_lp_tautomer_probability>  (702) 
0.999999999999999

>  <r_qp_ACxDN^.5/SA>  (702) 
0.0118475

>  <r_qp_CIQPlogS>  (702) 
-5.399

>  <r_qp_EA(eV)>  (702) 
0.50900000000000001

>  <r_qp_FISA>  (702) 
126.956

>  <r_qp_FOSA>  (702) 
283.03199999999998

>  <r_qp_IP(eV)>  (702) 
8.7530000000000001

>  <r_qp_Jm>  (702) 
0.000499811009390856

>  <r_qp_PISA>  (702) 
302.63

>  <r_qp_PSA>  (702) 
82.201999999999998

>  <r_qp_PercentHumanOralAbsorption>  (702) 
86.298000000000002

>  <r_qp_QPPCaco>  (702) 
154.47999999999999

>  <r_qp_QPPMDCK>  (702) 
131.56999999999999

>  <r_qp_QPlogBB>  (702) 
-0.84999999999999998

>  <r_qp_QPlogHERG>  (702) 
-6.9470000000000001

>  <r_qp_QPlogKhsa>  (702) 
0.20000000000000001

>  <r_qp_QPlogKp>  (702) 
-3.8959999999999999

>  <r_qp_QPlogPC16>  (702) 
14.284000000000001

>  <r_qp_QPlogPo/w>  (702) 
3.4460000000000002

>  <r_qp_QPlogPoct>  (702) 
22.823

>  <r_qp_QPlogPw>  (702) 
12.609

>  <r_qp_QPlogS>  (702) 
-5.04

>  <r_qp_QPpolrz>  (702) 
46.627000000000002

>  <r_qp_SASA>  (702) 
759.654

>  <r_qp_SAamideO>  (702) 
0

>  <r_qp_SAfluorine>  (702) 
47.036000000000001

>  <r_qp_WPSA>  (702) 
47.036000000000001

>  <r_qp_accptHB>  (702) 
9

>  <r_qp_dip^2/V>  (702) 
0.066591399999999995

>  <r_qp_dipole>  (702) 
9.6799999999999997

>  <r_qp_donorHB>  (702) 
1

>  <r_qp_glob>  (702) 
0.79940120000000003

>  <r_qp_mol_MW>  (702) 
431.512

>  <r_qp_volume>  (702) 
1407.096

>  <r_sd_BIOSOLVEIT.INFINISEE\_FTREES\_SIMILARITY>  (702) 
0.90700000000000003

>  <r_sd_BIOSOLVEIT.LOGP>  (702) 
2.6432799999999999

>  <r_sd_BIOSOLVEIT.MOLECULAR\_WEIGHT>  (702) 
432.51999999999998

>  <r_sd_BIOSOLVEIT.TPSA>  (702) 
73.459999999999994

>  <i_epik_Tot_Q>  (702) 
1

>  <i_epik_Tot_abs_Q>  (702) 
1

>  <i_f3d_flags>  (702) 
0

>  <i_i_glide_confnum>  (702) 
4

>  <i_i_glide_lignum>  (702) 
1304

>  <i_i_glide_posenum>  (702) 
19

>  <i_i_glide_rotatable_bonds>  (702) 
10

>  <i_lp_mmshare_version>  (702) 
65135

>  <i_m_ct_format>  (702) 
2

>  <i_m_source_file_index>  (702) 
2748

>  <i_qp_#NandO>  (702) 
6

>  <i_qp_#acid>  (702) 
0

>  <i_qp_#amide>  (702) 
0

>  <i_qp_#amidine>  (702) 
0

>  <i_qp_#amine>  (702) 
1

>  <i_qp_#in34>  (702) 
0

>  <i_qp_#in56>  (702) 
18

>  <i_qp_#metab>  (702) 
10

>  <i_qp_#nonHatm>  (702) 
32

>  <i_qp_#noncon>  (702) 
0

>  <i_qp_#ringatoms>  (702) 
18

>  <i_qp_#rotor>  (702) 
10

>  <i_qp_#rtvFG>  (702) 
0

>  <i_qp_#stars>  (702) 
1

>  <i_qp_CNS>  (702) 
0

>  <i_qp_HumanOralAbsorption>  (702) 
1

>  <i_qp_RuleOfFive>  (702) 
0

>  <i_qp_RuleOfThree>  (702) 
1

>  <i_sd_BIOSOLVEIT.INFINISEE\_RESULT\_RANK>  (702) 
57898

>  <i_sd_version>  (702) 
0

>  <b_lp_Chiralities_Consistent>  (702) 
1

>  <b_sd_chiral_flag>  (702) 
0

>  <canonical_id>  (702) 
ATP-HTVS-6D0E62C9397C

>  <compound_code>  (702) 
87907

>  <title>  (702) 
rxn512a____EMOL50155899____EMOL8295720____EMOL37358747

>  <variant>  (702) 
87907-1

>  <source_file>  (702) 
运行/运行/ATP-VSW/ATP-VSW-DOCK_HTVS_1-003_lib/ATP-VSW-DOCK_HTVS_1-003_lib.mae

>  <canonical_smiles>  (702) 
C[NH+](C)Cc1ccc(CNc2cncc(C(=O)N(CC#N)Cc3ccc(F)cc3)c2)cc1

>  <scaffold>  (702) 
O=C(NCc1ccccc1)c1cncc(NCc2ccccc2)c1

>  <molecular_formula>  (702) 
C25H27FN5O+

$$$$
ATP-HTVS-6D22B46DE244
     RDKit          3D

 59 62  0  0  0  0  0  0  0  0999 V2000
  202.4935  182.2854  161.0938 F   0  0  0  0  0  0  0  0  0  0  0  0
  201.8998  183.4165  160.5991 C   0  0  0  0  0  0  0  0  0  0  0  0
  200.9180  183.3289  159.5871 C   0  0  0  0  0  0  0  0  0  0  0  0
  200.3990  184.4951  158.9857 C   0  0  0  0  0  0  0  0  0  0  0  0
  200.6765  185.7688  159.5170 C   0  0  0  0  0  0  0  0  0  0  0  0
  201.6753  185.8891  160.5283 C   0  0  0  0  0  0  0  0  0  0  0  0
  202.3040  184.7071  161.0347 C   0  0  0  0  0  0  0  0  0  0  0  0
  199.9415  186.9890  158.9285 C   0  0  1  0  0  0  0  0  0  0  0  0
  198.5482  187.2485  159.2806 N   0  0  0  0  0  0  0  0  0  0  0  0
  197.5253  186.2784  159.1810 C   0  0  0  0  0  0  0  0  0  0  0  0
  197.6955  185.1928  158.4169 N   0  0  0  0  0  0  0  0  0  0  0  0
  196.8131  184.1984  158.4205 C   0  0  0  0  0  0  0  0  0  0  0  0
  195.6920  184.2518  159.1554 N   0  0  0  0  0  0  0  0  0  0  0  0
  195.3863  185.3596  159.8498 C   0  0  0  0  0  0  0  0  0  0  0  0
  196.3317  186.4110  159.9438 C   0  0  0  0  0  0  0  0  0  0  0  0
  196.0107  187.5520  160.7544 C   0  0  0  0  0  0  0  0  0  0  0  0
  194.7538  187.6411  161.4109 C   0  0  0  0  0  0  0  0  0  0  0  0
  193.8117  186.5959  161.2580 C   0  0  0  0  0  0  0  0  0  0  0  0
  194.1131  185.4702  160.4602 C   0  0  0  0  0  0  0  0  0  0  0  0
  197.0815  183.0109  157.7426 N   0  0  0  0  0  0  0  0  0  0  0  0
  198.3254  182.7461  157.0367 C   0  0  1  0  0  0  0  0  0  0  0  0
  198.3425  181.4855  156.2059 C   0  0  0  0  0  0  0  0  0  0  0  0
  199.4290  180.5760  156.2931 C   0  0  0  0  0  0  0  0  0  0  0  0
  199.4345  179.3926  155.5191 C   0  0  0  0  0  0  0  0  0  0  0  0
  198.3583  179.1428  154.6474 C   0  0  0  0  0  0  0  0  0  0  0  0
  197.2876  180.0532  154.5482 C   0  0  0  0  0  0  0  0  0  0  0  0
  197.2787  181.2213  155.3274 C   0  0  0  0  0  0  0  0  0  0  0  0
  200.5696  178.3774  155.6151 C   0  0  1  0  0  0  0  0  0  0  0  0
  200.3488  177.3553  156.6728 N   0  0  2  0  0  0  0  0  0  0  0  0
  200.3510  177.9190  158.0371 C   0  0  2  0  0  0  0  0  0  0  0  0
  201.2996  176.2244  156.5625 C   0  0  2  0  0  0  0  0  0  0  0  0
  200.6221  182.3395  159.2554 H   0  0  0  0  0  0  0  0  0  0  0  0
  199.7814  184.4556  158.0905 H   0  0  0  0  0  0  0  0  0  0  0  0
  201.9765  186.8826  160.8662 H   0  0  0  0  0  0  0  0  0  0  0  0
  203.1021  184.7939  161.7608 H   0  0  0  0  0  0  0  0  0  0  0  0
  200.5075  187.8775  159.1805 H   0  0  0  0  0  0  0  0  0  0  0  0
  199.9737  186.9286  157.8438 H   0  0  0  0  0  0  0  0  0  0  0  0
  198.4141  188.0303  159.9122 H   0  0  0  0  0  0  0  0  0  0  0  0
  196.6717  188.4095  160.8358 H   0  0  0  0  0  0  0  0  0  0  0  0
  194.4857  188.5463  161.9623 H   0  0  0  0  0  0  0  0  0  0  0  0
  192.8602  186.6514  161.7787 H   0  0  0  0  0  0  0  0  0  0  0  0
  193.4193  184.6294  160.4113 H   0  0  0  0  0  0  0  0  0  0  0  0
  196.3926  182.2780  157.7740 H   0  0  0  0  0  0  0  0  0  0  0  0
  198.6000  183.5948  156.4010 H   0  0  0  0  0  0  0  0  0  0  0  0
  199.1272  182.5603  157.7434 H   0  0  0  0  0  0  0  0  0  0  0  0
  200.2658  180.7665  156.9529 H   0  0  0  0  0  0  0  0  0  0  0  0
  198.3550  178.2439  154.0546 H   0  0  0  0  0  0  0  0  0  0  0  0
  196.4607  179.8671  153.8811 H   0  0  0  0  0  0  0  0  0  0  0  0
  196.4705  181.9349  155.2448 H   0  0  0  0  0  0  0  0  0  0  0  0
  200.6543  177.8701  154.6505 H   0  0  0  0  0  0  0  0  0  0  0  0
  201.5209  178.8872  155.7699 H   0  0  0  0  0  0  0  0  0  0  0  0
  201.2973  178.4110  158.2721 H   0  0  0  0  0  0  0  0  0  0  0  0
  200.1538  177.1533  158.7888 H   0  0  0  0  0  0  0  0  0  0  0  0
  199.5526  178.6469  158.0951 H   0  0  0  0  0  0  0  0  0  0  0  0
  202.3282  176.5615  156.7006 H   0  0  0  0  0  0  0  0  0  0  0  0
  201.2283  175.7448  155.5855 H   0  0  0  0  0  0  0  0  0  0  0  0
  201.1087  175.4642  157.3202 H   0  0  0  0  0  0  0  0  0  0  0  0
  194.9932  183.4825  159.1641 H   0  0  0  0  0  0  0  0  0  0  0  0
  199.4110  176.9966  156.5372 H   0  0  0  0  0  0  0  0  0  0  0  0
  1  2  1  0
  2  3  1  0
  2  7  2  0
  3  4  2  0
  3 32  1  0
  4  5  1  0
  4 33  1  0
  5  6  2  0
  5  8  1  0
  6  7  1  0
  6 34  1  0
  7 35  1  0
  8  9  1  0
  8 36  1  6
  8 37  1  0
  9 10  1  0
  9 38  1  0
 10 11  2  0
 10 15  1  0
 11 12  1  0
 12 13  2  0
 12 20  1  0
 13 14  1  0
 13 58  1  0
 14 15  1  0
 14 19  2  0
 15 16  2  0
 16 17  1  0
 16 39  1  0
 17 18  2  0
 17 40  1  0
 18 19  1  0
 18 41  1  0
 19 42  1  0
 20 21  1  0
 20 43  1  0
 21 22  1  0
 21 44  1  6
 21 45  1  0
 22 23  2  0
 22 27  1  0
 23 24  1  0
 23 46  1  0
 24 25  2  0
 24 28  1  0
 25 26  1  0
 25 47  1  0
 26 27  2  0
 26 48  1  0
 27 49  1  0
 28 29  1  0
 28 50  1  6
 28 51  1  0
 29 30  1  0
 29 31  1  0
 29 59  1  6
 30 52  1  1
 30 53  1  0
 30 54  1  0
 31 55  1  1
 31 56  1  0
 31 57  1  0
M  CHG  2  13   1  29   1
M  END
>  <s_epik_cmdline>  (703) 
J2VwaWtfcHl0aG9uJywgJy1waCcsICc3LjAwMDAwMCcsICctcGh0JywgJzIuMDAwMDAwJywgJy1tcycsICcxNicsICctdG4nLCAnOCcsICctbWEnLCAnMjAwJywgJy1pbWFlJywgJzxpbmZpbGUubWFlPicsICctb21hZScsICc8b3V0ZmlsZS5tYWU+Jw==

>  <s_epik_input>  (703) 
RmMxW2NIXVtjSF1jKFtjSF1bY0hdMSlbQ0gyXVtOSF1jKGMoYzIzKVtjSF1bY0hdW2NIXVtjSF0zKW5jKG4yKVtOSF1bQ0gyXWM0W2NIXWMoW2NIXVtjSF1bY0hdNClbQ0gyXU4oW0NIM10pW0NIM10=

>  <s_i_glide_gridfile>  (703) 
ATP-Grid

>  <s_lp_Force_Field>  (703) 
OPLS_2005

>  <s_lp_Variant>  (703) 
m_282030aaa____21930854____22360182____21940090-1

>  <s_lp_label>  (703) 
801_sdstereoexpander_1_neutralizer_1_epik_1_stereoizer_1

>  <s_m_source_file>  (703) 
ATP-VSW-LIGPREP-001-in.maegz

>  <s_sd_BIOSOLVEIT.INFINISEE\_QUERY\_NAME>  (703) 
Ref-Lig

>  <s_sd_BIOSOLVEIT.INFINISEE\_QUERY\_SMILES>  (703) 
S(c1nc2c(cc1C[NH2+]Cc3ccc(cc3)C[NH+](C)C)cccc2)Cc4ccccc4

>  <s_sd_BIOSOLVEIT.INFINISEE\_REACTION\_NAME>  (703) 
m_282030aaa

>  <s_sd_BIOSOLVEIT.INFINISEE\_REAGENT1\_SMILES>  (703) 
[R1*]NCc1ccc(F)cc1

>  <s_sd_BIOSOLVEIT.INFINISEE\_REAGENT2\_SMILES>  (703) 
[R2*]c1nc([R1*])c2c(n1)cccc2

>  <s_sd_BIOSOLVEIT.INFINISEE\_REAGENT3\_SMILES>  (703) 
[R2*]NCc1cc(ccc1)CN(C)C

>  <s_sd_BIOSOLVEIT.INFINISEE\_SPACE>  (703) 
REALSpace_44bn_2023-08

>  <s_vsw_compound_code>  (703) 
25601

>  <s_vsw_variant>  (703) 
25601-1

>  <r_epik_Charging_Adjusted_Penalty>  (703) 
0.12687947855880299

>  <r_epik_Ionization_Penalty>  (703) 
0.0608

>  <r_epik_Ionization_Penalty_Charging>  (703) 
0.0608

>  <r_epik_Ionization_Penalty_Neutral>  (703) 
0

>  <r_epik_State_Penalty>  (703) 
0.066100000000000006

>  <r_i_docking_score>  (703) 
-4.4854124953865799

>  <r_i_glide_ecoul>  (703) 
-5.2017140388488796

>  <r_i_glide_eff_state_penalty>  (703) 
0.066100000000000006

>  <r_i_glide_einternal>  (703) 
1.22798907756805

>  <r_i_glide_emodel>  (703) 
-55.6041830987675

>  <r_i_glide_energy>  (703) 
-36.865498065948501

>  <r_i_glide_erotb>  (703) 
0.79370015344465406

>  <r_i_glide_esite>  (703) 
-0.069017440473073705

>  <r_i_glide_evdw>  (703) 
-31.663784027099599

>  <r_i_glide_gscore>  (703) 
-4.5515124953865804

>  <r_i_glide_hbond>  (703) 
0

>  <r_i_glide_ligand_efficiency>  (703) 
-0.144690725657632

>  <r_i_glide_ligand_efficiency_ln>  (703) 
-1.01159797909417

>  <r_i_glide_ligand_efficiency_sa>  (703) 
-0.45452864564107298

>  <r_i_glide_lipo>  (703) 
-1.7998856240999901

>  <r_i_glide_metal>  (703) 
-0

>  <r_i_glide_rewards>  (703) 
-1.11286327707586

>  <r_lp_Energy>  (703) 
15.578571999999999

>  <r_qp_ACxDN^.5/SA>  (703) 
0.010599000000000001

>  <r_qp_CIQPlogS>  (703) 
-5.8540000000000001

>  <r_qp_EA(eV)>  (703) 
0.71399999999999997

>  <r_qp_FISA>  (703) 
50.530999999999999

>  <r_qp_FOSA>  (703) 
235.45500000000001

>  <r_qp_IP(eV)>  (703) 
8.1440000000000001

>  <r_qp_Jm>  (703) 
0.0961499421719305

>  <r_qp_PISA>  (703) 
348.541

>  <r_qp_PSA>  (703) 
46.709000000000003

>  <r_qp_PercentHumanOralAbsorption>  (703) 
100

>  <r_qp_QPPCaco>  (703) 
819.62599999999998

>  <r_qp_QPPMDCK>  (703) 
666.09100000000001

>  <r_qp_QPlogBB>  (703) 
0.097000000000000003

>  <r_qp_QPlogHERG>  (703) 
-6.298

>  <r_qp_QPlogKhsa>  (703) 
0.73699999999999999

>  <r_qp_QPlogKp>  (703) 
-2.5169999999999999

>  <r_qp_QPlogPC16>  (703) 
13.116

>  <r_qp_QPlogPo/w>  (703) 
4.7149999999999999

>  <r_qp_QPlogPoct>  (703) 
19.942

>  <r_qp_QPlogPw>  (703) 
10.140000000000001

>  <r_qp_QPlogS>  (703) 
-4.1180000000000003

>  <r_qp_QPpolrz>  (703) 
43.125

>  <r_qp_SASA>  (703) 
667.14400000000001

>  <r_qp_SAamideO>  (703) 
0

>  <r_qp_SAfluorine>  (703) 
32.616999999999997

>  <r_qp_WPSA>  (703) 
32.616999999999997

>  <r_qp_accptHB>  (703) 
5

>  <r_qp_dip^2/V>  (703) 
0.0069664000000000002

>  <r_qp_dipole>  (703) 
2.9820000000000002

>  <r_qp_donorHB>  (703) 
2

>  <r_qp_glob>  (703) 
0.85304230000000003

>  <r_qp_mol_MW>  (703) 
415.512

>  <r_qp_volume>  (703) 
1276.55

>  <r_sd_BIOSOLVEIT.INFINISEE\_FTREES\_SIMILARITY>  (703) 
0.92300000000000004

>  <r_sd_BIOSOLVEIT.LOGP>  (703) 
3.6375999999999999

>  <r_sd_BIOSOLVEIT.MOLECULAR\_WEIGHT>  (703) 
416.52100000000002

>  <r_sd_BIOSOLVEIT.TPSA>  (703) 
54.280000000000001

>  <i_epik_Tot_Q>  (703) 
2

>  <i_epik_Tot_abs_Q>  (703) 
2

>  <i_f3d_flags>  (703) 
0

>  <i_i_glide_confnum>  (703) 
7

>  <i_i_glide_lignum>  (703) 
134

>  <i_i_glide_posenum>  (703) 
2

>  <i_i_glide_rotatable_bonds>  (703) 
8

>  <i_lp_mmshare_version>  (703) 
65135

>  <i_m_ct_format>  (703) 
2

>  <i_m_source_file_index>  (703) 
801

>  <i_qp_#NandO>  (703) 
5

>  <i_qp_#acid>  (703) 
0

>  <i_qp_#amide>  (703) 
0

>  <i_qp_#amidine>  (703) 
0

>  <i_qp_#amine>  (703) 
1

>  <i_qp_#in34>  (703) 
0

>  <i_qp_#in56>  (703) 
22

>  <i_qp_#metab>  (703) 
4

>  <i_qp_#nonHatm>  (703) 
31

>  <i_qp_#noncon>  (703) 
0

>  <i_qp_#ringatoms>  (703) 
22

>  <i_qp_#rotor>  (703) 
8

>  <i_qp_#rtvFG>  (703) 
0

>  <i_qp_#stars>  (703) 
0

>  <i_qp_CNS>  (703) 
1

>  <i_qp_HumanOralAbsorption>  (703) 
3

>  <i_qp_RuleOfFive>  (703) 
0

>  <i_qp_RuleOfThree>  (703) 
0

>  <i_sd_BIOSOLVEIT.INFINISEE\_REAGENT1\_NAME>  (703) 
21930854

>  <i_sd_BIOSOLVEIT.INFINISEE\_REAGENT2\_NAME>  (703) 
22360182

>  <i_sd_BIOSOLVEIT.INFINISEE\_REAGENT3\_NAME>  (703) 
21940090

>  <i_sd_BIOSOLVEIT.INFINISEE\_RESULT\_RANK>  (703) 
11385

>  <i_sd_version>  (703) 
0

>  <b_lp_Chiralities_Consistent>  (703) 
1

>  <b_sd_chiral_flag>  (703) 
0

>  <canonical_id>  (703) 
ATP-HTVS-6D22B46DE244

>  <compound_code>  (703) 
25601

>  <title>  (703) 
m_282030aaa____21930854____22360182____21940090

>  <variant>  (703) 
25601-1

>  <source_file>  (703) 
运行/运行/ATP-VSW/ATP-VSW-DOCK_HTVS_1-001_lib/ATP-VSW-DOCK_HTVS_1-001_lib

>  <canonical_smiles>  (703) 
C[NH+](C)Cc1cccc(CNc2nc(NCc3ccc(F)cc3)c3ccccc3[nH+]2)c1

>  <scaffold>  (703) 
c1ccc(CNc2nc(NCc3ccccc3)c3ccccc3[nH+]2)cc1

>  <molecular_formula>  (703) 
C25H28FN5+2

$$$$
ATP-HTVS-6D2ED4476584
     RDKit          3D

 59 62  0  0  0  0  0  0  0  0999 V2000
  198.7863  180.8704  153.8121 O   0  0  0  0  0  0  0  0  0  0  0  0
  199.1709  180.5911  154.9474 C   0  0  0  0  0  0  0  0  0  0  0  0
  199.1384  181.4552  155.9785 N   0  0  0  0  0  0  0  0  0  0  0  0
  198.6163  182.7815  155.9136 C   0  0  0  0  0  0  0  0  0  0  0  0
  197.5630  183.1404  156.7969 C   0  0  0  0  0  0  0  0  0  0  0  0
  197.0943  182.2844  157.8158 N   0  0  0  0  0  0  0  0  0  0  0  0
  196.8942  182.7265  159.2024 C   0  0  1  0  0  0  0  0  0  0  0  0
  196.5716  184.1929  159.4822 C   0  0  0  0  0  0  0  0  0  0  0  0
  197.4795  185.2374  159.1043 C   0  0  0  0  0  0  0  0  0  0  0  0
  197.1597  186.5839  159.2576 C   0  0  0  0  0  0  0  0  0  0  0  0
  198.0084  187.5821  158.6471 C   0  0  0  0  0  0  0  0  0  0  0  0
  198.6551  188.3947  158.1237 N   0  0  0  0  0  0  0  0  0  0  0  0
  195.9532  186.9301  159.8712 C   0  0  0  0  0  0  0  0  0  0  0  0
  195.0848  185.9336  160.3587 C   0  0  0  0  0  0  0  0  0  0  0  0
  195.4196  184.5667  160.1752 C   0  0  0  0  0  0  0  0  0  0  0  0
  197.0594  184.4351  156.6594 C   0  0  0  0  0  0  0  0  0  0  0  0
  197.5140  185.3657  155.8414 N   0  0  0  0  0  0  0  0  0  0  0  0
  198.5839  185.0811  155.0790 C   0  0  0  0  0  0  0  0  0  0  0  0
  199.1776  183.7848  155.0620 C   0  0  0  0  0  0  0  0  0  0  0  0
  200.2561  183.5433  154.1802 C   0  0  0  0  0  0  0  0  0  0  0  0
  200.7157  184.5530  153.3220 C   0  0  0  0  0  0  0  0  0  0  0  0
  200.1426  185.8340  153.3529 C   0  0  0  0  0  0  0  0  0  0  0  0
  199.0986  186.1008  154.2505 C   0  0  0  0  0  0  0  0  0  0  0  0
  199.7215  179.2287  155.2556 C   0  0  0  0  0  0  0  0  0  0  0  0
  200.2228  178.9041  156.5384 C   0  0  0  0  0  0  0  0  0  0  0  0
  200.7304  177.6211  156.8072 C   0  0  0  0  0  0  0  0  0  0  0  0
  200.7526  176.6445  155.7923 C   0  0  0  0  0  0  0  0  0  0  0  0
  200.2704  176.9655  154.5072 C   0  0  0  0  0  0  0  0  0  0  0  0
  199.7730  178.2510  154.2349 C   0  0  0  0  0  0  0  0  0  0  0  0
  201.3024  175.2606  156.0786 C   0  0  1  0  0  0  0  0  0  0  0  0
  202.7444  175.1454  155.7526 N   0  0  2  0  0  0  0  0  0  0  0  0
  203.0491  175.3409  154.3151 C   0  0  2  0  0  0  0  0  0  0  0  0
  203.3190  173.8781  156.2561 C   0  0  2  0  0  0  0  0  0  0  0  0
  199.3329  181.0770  156.8950 H   0  0  0  0  0  0  0  0  0  0  0  0
  197.3218  181.3068  157.7335 H   0  0  0  0  0  0  0  0  0  0  0  0
  196.0929  182.1209  159.6344 H   0  0  0  0  0  0  0  0  0  0  0  0
  197.7998  182.4623  159.7514 H   0  0  0  0  0  0  0  0  0  0  0  0
  198.4144  184.9340  158.6003 H   0  0  0  0  0  0  0  0  0  0  0  0
  195.6667  187.9834  159.9558 H   0  0  0  0  0  0  0  0  0  0  0  0
  194.1723  186.2092  160.8710 H   0  0  0  0  0  0  0  0  0  0  0  0
  194.7117  183.8153  160.4931 H   0  0  0  0  0  0  0  0  0  0  0  0
  196.1873  184.7380  157.3109 H   0  0  0  0  0  0  0  0  0  0  0  0
  200.7261  182.5744  154.1330 H   0  0  0  0  0  0  0  0  0  0  0  0
  201.5235  184.3404  152.6429 H   0  0  0  0  0  0  0  0  0  0  0  0
  200.4907  186.6126  152.6946 H   0  0  0  0  0  0  0  0  0  0  0  0
  198.6336  187.0775  154.2834 H   0  0  0  0  0  0  0  0  0  0  0  0
  200.2139  179.6200  157.3462 H   0  0  0  0  0  0  0  0  0  0  0  0
  201.0864  177.3952  157.8016 H   0  0  0  0  0  0  0  0  0  0  0  0
  200.2900  176.2300  153.7165 H   0  0  0  0  0  0  0  0  0  0  0  0
  199.4184  178.4767  153.2390 H   0  0  0  0  0  0  0  0  0  0  0  0
  201.1532  175.0525  157.1388 H   0  0  0  0  0  0  0  0  0  0  0  0
  200.7310  174.5114  155.5304 H   0  0  0  0  0  0  0  0  0  0  0  0
  202.5317  174.6017  153.7005 H   0  0  0  0  0  0  0  0  0  0  0  0
  204.1190  175.2559  154.1264 H   0  0  0  0  0  0  0  0  0  0  0  0
  202.7584  176.3335  153.9751 H   0  0  0  0  0  0  0  0  0  0  0  0
  202.8583  173.0109  155.7781 H   0  0  0  0  0  0  0  0  0  0  0  0
  203.1833  173.7959  157.3355 H   0  0  0  0  0  0  0  0  0  0  0  0
  204.3888  173.8393  156.0615 H   0  0  0  0  0  0  0  0  0  0  0  0
  203.1966  175.9000  156.2549 H   0  0  0  0  0  0  0  0  0  0  0  0
  1  2  2  0
  2  3  1  0
  2 24  1  0
  3  4  1  0
  3 34  1  0
  4  5  2  0
  4 19  1  0
  5  6  1  0
  5 16  1  0
  6  7  1  0
  6 35  1  0
  7  8  1  0
  7 36  1  1
  7 37  1  0
  8  9  1  0
  8 15  2  0
  9 10  2  0
  9 38  1  0
 10 11  1  0
 10 13  1  0
 11 12  3  0
 13 14  2  0
 13 39  1  0
 14 15  1  0
 14 40  1  0
 15 41  1  0
 16 17  2  0
 16 42  1  0
 17 18  1  0
 18 19  1  0
 18 23  2  0
 19 20  2  0
 20 21  1  0
 20 43  1  0
 21 22  2  0
 21 44  1  0
 22 23  1  0
 22 45  1  0
 23 46  1  0
 24 25  1  0
 24 29  2  0
 25 26  2  0
 25 47  1  0
 26 27  1  0
 26 48  1  0
 27 28  2  0
 27 30  1  0
 28 29  1  0
 28 49  1  0
 29 50  1  0
 30 31  1  0
 30 51  1  1
 30 52  1  0
 31 32  1  0
 31 33  1  0
 31 59  1  1
 32 53  1  6
 32 54  1  0
 32 55  1  0
 33 56  1  6
 33 57  1  0
 33 58  1  0
M  CHG  1  31   1
M  END
>  <s_epik_cmdline>  (704) 
J2VwaWtfcHl0aG9uJywgJy1waCcsICc3LjAwMDAwMCcsICctcGh0JywgJzIuMDAwMDAwJywgJy1tcycsICcxNicsICctdG4nLCAnOCcsICctbWEnLCAnMjAwJywgJy1pbWFlJywgJzxpbmZpbGUubWFlPicsICctb21hZScsICc8b3V0ZmlsZS5tYWU+Jw==

>  <s_epik_input>  (704) 
W0NIM11OKFtDSDNdKVtDSDJdYyhbY0hdW2NIXTEpW2NIXVtjSF1jMUMoPU8pW05IXWMoYyhjMjMpW2NIXVtjSF1bY0hdW2NIXTMpYyhbY0hdbjIpW05IXVtDSDJdYzRbY0hdYyhDI04pW2NIXVtjSF1bY0hdNA==

>  <s_i_glide_gridfile>  (704) 
ATP-Grid

>  <s_lp_Force_Field>  (704) 
OPLS_2005

>  <s_lp_Variant>  (704) 
rxn502b____EMOL18624763____EMOL13728749____EMOL10367123-1

>  <s_lp_label>  (704) 
3015_sdstereoexpander_1_neutralizer_1_epik_1_stereoizer_1

>  <s_m_source_file>  (704) 
ATP-VSW-LIGPREP-002-in.maegz

>  <s_sd_BIOSOLVEIT.INFINISEE\_QUERY\_NAME>  (704) 
Ref-Lig

>  <s_sd_BIOSOLVEIT.INFINISEE\_QUERY\_SMILES>  (704) 
S(c1nc2c(cc1C[NH2+]Cc3ccc(cc3)C[NH+](C)C)cccc2)Cc4ccccc4

>  <s_sd_BIOSOLVEIT.INFINISEE\_REACTION\_NAME>  (704) 
rxn502b

>  <s_sd_BIOSOLVEIT.INFINISEE\_REAGENT1\_NAME>  (704) 
EMOL18624763

>  <s_sd_BIOSOLVEIT.INFINISEE\_REAGENT1\_SMILES>  (704) 
O=C(O)c1ccc(cc1)CN(C)C

>  <s_sd_BIOSOLVEIT.INFINISEE\_REAGENT2\_NAME>  (704) 
EMOL13728749

>  <s_sd_BIOSOLVEIT.INFINISEE\_REAGENT2\_SMILES>  (704) 
Brc1c(N)c2c(nc1)cccc2

>  <s_sd_BIOSOLVEIT.INFINISEE\_REAGENT3\_NAME>  (704) 
EMOL10367123

>  <s_sd_BIOSOLVEIT.INFINISEE\_REAGENT3\_SMILES>  (704) 
N#Cc1cc(ccc1)CN

>  <s_sd_BIOSOLVEIT.INFINISEE\_SPACE>  (704) 
eXplore_7tr_2022-12

>  <s_vsw_compound_code>  (704) 
96450

>  <s_vsw_variant>  (704) 
96450-1

>  <r_epik_Charging_Adjusted_Penalty>  (704) 
0.14474419833576699

>  <r_epik_Ionization_Penalty>  (704) 
0.091899999999999996

>  <r_epik_Ionization_Penalty_Charging>  (704) 
0.052699999999999997

>  <r_epik_Ionization_Penalty_Neutral>  (704) 
0.039300000000000002

>  <r_epik_State_Penalty>  (704) 
0.092100000000000001

>  <r_i_docking_score>  (704) 
-4.0000350929864101

>  <r_i_glide_ecoul>  (704) 
-4.06292772293091

>  <r_i_glide_eff_state_penalty>  (704) 
0.092100000000000001

>  <r_i_glide_einternal>  (704) 
1.0703470706939699

>  <r_i_glide_emodel>  (704) 
-50.918614013545898

>  <r_i_glide_energy>  (704) 
-38.930252552032499

>  <r_i_glide_erotb>  (704) 
0.73224968592044304

>  <r_i_glide_esite>  (704) 
-0.076171549715988801

>  <r_i_glide_evdw>  (704) 
-34.867324829101598

>  <r_i_glide_gscore>  (704) 
-4.0921350929864104

>  <r_i_glide_hbond>  (704) 
0

>  <r_i_glide_ligand_efficiency>  (704) 
-0.121213184635952

>  <r_i_glide_ligand_efficiency_ln>  (704) 
-0.88958709360689803

>  <r_i_glide_ligand_efficiency_sa>  (704) 
-0.38879545051479603

>  <r_i_glide_lipo>  (704) 
-1.8881667126958599

>  <r_i_glide_metal>  (704) 
-0

>  <r_i_glide_rewards>  (704) 
-0.50724111660028304

>  <r_lp_Energy>  (704) 
36.080247

>  <r_qp_ACxDN^.5/SA>  (704) 
0.0151661

>  <r_qp_CIQPlogS>  (704) 
-6.1070000000000002

>  <r_qp_EA(eV)>  (704) 
1.016

>  <r_qp_FISA>  (704) 
127.93899999999999

>  <r_qp_FOSA>  (704) 
214.364

>  <r_qp_IP(eV)>  (704) 
8.5800000000000001

>  <r_qp_Jm>  (704) 
0.00034148662252282003

>  <r_qp_PISA>  (704) 
403.68299999999999

>  <r_qp_PSA>  (704) 
82.313000000000002

>  <r_qp_PercentHumanOralAbsorption>  (704) 
86.741

>  <r_qp_QPPCaco>  (704) 
151.19900000000001

>  <r_qp_QPPMDCK>  (704) 
71.027000000000001

>  <r_qp_QPlogBB>  (704) 
-0.83799999999999997

>  <r_qp_QPlogHERG>  (704) 
-7.3479999999999999

>  <r_qp_QPlogKhsa>  (704) 
0.439

>  <r_qp_QPlogKp>  (704) 
-3.75

>  <r_qp_QPlogPC16>  (704) 
15.289

>  <r_qp_QPlogPo/w>  (704) 
3.5499999999999998

>  <r_qp_QPlogPoct>  (704) 
24.626000000000001

>  <r_qp_QPlogPw>  (704) 
14.175000000000001

>  <r_qp_QPlogS>  (704) 
-5.3559999999999999

>  <r_qp_QPpolrz>  (704) 
47.881

>  <r_qp_SASA>  (704) 
745.98699999999997

>  <r_qp_SAamideO>  (704) 
0

>  <r_qp_SAfluorine>  (704) 
0

>  <r_qp_WPSA>  (704) 
0

>  <r_qp_accptHB>  (704) 
8

>  <r_qp_dip^2/V>  (704) 
0.098189899999999997

>  <r_qp_dipole>  (704) 
11.65

>  <r_qp_donorHB>  (704) 
2

>  <r_qp_glob>  (704) 
0.80442899999999995

>  <r_qp_mol_MW>  (704) 
435.52699999999999

>  <r_qp_volume>  (704) 
1382.231

>  <r_sd_BIOSOLVEIT.INFINISEE\_FTREES\_SIMILARITY>  (704) 
0.90200000000000002

>  <r_sd_BIOSOLVEIT.LOGP>  (704) 
3.61538

>  <r_sd_BIOSOLVEIT.MOLECULAR\_WEIGHT>  (704) 
436.536

>  <r_sd_BIOSOLVEIT.TPSA>  (704) 
82.25

>  <i_epik_Tot_Q>  (704) 
1

>  <i_epik_Tot_abs_Q>  (704) 
1

>  <i_f3d_flags>  (704) 
0

>  <i_i_glide_confnum>  (704) 
3

>  <i_i_glide_lignum>  (704) 
78

>  <i_i_glide_posenum>  (704) 
2

>  <i_i_glide_rotatable_bonds>  (704) 
8

>  <i_lp_mmshare_version>  (704) 
65135

>  <i_m_ct_format>  (704) 
2

>  <i_m_source_file_index>  (704) 
3015

>  <i_qp_#NandO>  (704) 
6

>  <i_qp_#acid>  (704) 
0

>  <i_qp_#amide>  (704) 
0

>  <i_qp_#amidine>  (704) 
0

>  <i_qp_#amine>  (704) 
1

>  <i_qp_#in34>  (704) 
0

>  <i_qp_#in56>  (704) 
22

>  <i_qp_#metab>  (704) 
6

>  <i_qp_#nonHatm>  (704) 
33

>  <i_qp_#noncon>  (704) 
0

>  <i_qp_#ringatoms>  (704) 
22

>  <i_qp_#rotor>  (704) 
8

>  <i_qp_#rtvFG>  (704) 
0

>  <i_qp_#stars>  (704) 
0

>  <i_qp_CNS>  (704) 
0

>  <i_qp_HumanOralAbsorption>  (704) 
3

>  <i_qp_RuleOfFive>  (704) 
0

>  <i_qp_RuleOfThree>  (704) 
0

>  <i_sd_BIOSOLVEIT.INFINISEE\_RESULT\_RANK>  (704) 
87500

>  <i_sd_version>  (704) 
0

>  <b_lp_Chiralities_Consistent>  (704) 
1

>  <b_sd_chiral_flag>  (704) 
0

>  <canonical_id>  (704) 
ATP-HTVS-6D2ED4476584

>  <compound_code>  (704) 
96450

>  <title>  (704) 
rxn502b____EMOL18624763____EMOL13728749____EMOL10367123

>  <variant>  (704) 
96450-1

>  <source_file>  (704) 
运行/运行/ATP-VSW/ATP-VSW-DOCK_HTVS_1-003_lib/ATP-VSW-DOCK_HTVS_1-003_lib.mae

>  <canonical_smiles>  (704) 
C[NH+](C)Cc1ccc(C(=O)Nc2c(NCc3cccc(C#N)c3)cnc3ccccc23)cc1

>  <scaffold>  (704) 
O=C(Nc1c(NCc2ccccc2)cnc2ccccc12)c1ccccc1

>  <molecular_formula>  (704) 
C27H26N5O+

$$$$
ATP-HTVS-6D4BCDFA1C91
     RDKit          3D

 61 64  0  0  0  0  0  0  0  0999 V2000
  197.1235  185.2305  154.7370 Cl  0  0  0  0  0  0  0  0  0  0  0  0
  197.5342  185.2745  156.4046 C   0  0  0  0  0  0  0  0  0  0  0  0
  197.2958  184.1826  157.3136 C   0  0  0  0  0  0  0  0  0  0  0  0
  197.6179  184.4200  158.6850 C   0  0  0  0  0  0  0  0  0  0  0  0
  198.1748  185.6204  159.0977 C   0  0  0  0  0  0  0  0  0  0  0  0
  198.4281  186.6826  158.2012 C   0  0  0  0  0  0  0  0  0  0  0  0
  198.0966  186.4880  156.8585 C   0  0  0  0  0  0  0  0  0  0  0  0
  196.6401  182.8544  156.8441 C   0  0  2  0  0  0  0  0  0  0  0  0
  195.7520  182.2207  157.8902 N   0  0  1  0  0  0  0  0  0  0  0  0
  196.4623  181.4035  158.9320 C   0  0  2  0  0  0  0  0  0  0  0  0
  194.7391  183.1634  158.4679 C   0  0  2  0  0  0  0  0  0  0  0  0
  197.6927  181.8528  156.2682 C   0  0  1  0  0  0  0  0  0  0  0  0
  197.1090  180.6378  155.6929 N   0  0  0  0  0  0  0  0  0  0  0  0
  198.0177  179.8064  155.0027 C   0  0  0  0  0  0  0  0  0  0  0  0
  198.1226  179.8423  153.5860 C   0  0  0  0  0  0  0  0  0  0  0  0
  198.9562  179.0204  152.9120 N   0  0  0  0  0  0  0  0  0  0  0  0
  199.7154  178.1171  153.5648 C   0  0  0  0  0  0  0  0  0  0  0  0
  199.6785  178.0127  154.9789 C   0  0  0  0  0  0  0  0  0  0  0  0
  198.8267  178.8771  155.6992 C   0  0  0  0  0  0  0  0  0  0  0  0
  200.4742  177.0465  155.6387 C   0  0  0  0  0  0  0  0  0  0  0  0
  201.3094  176.1877  154.8967 C   0  0  0  0  0  0  0  0  0  0  0  0
  201.3475  176.2829  153.4928 C   0  0  0  0  0  0  0  0  0  0  0  0
  200.5502  177.2424  152.8380 C   0  0  0  0  0  0  0  0  0  0  0  0
  197.2738  180.7733  152.9332 N   0  0  0  0  0  0  0  0  0  0  0  0
  197.2036  181.0687  151.6199 C   0  0  0  0  0  0  0  0  0  0  0  0
  197.8475  180.5167  150.7292 O   0  0  0  0  0  0  0  0  0  0  0  0
  196.2286  182.1794  151.2352 C   0  0  1  0  0  0  0  0  0  0  0  0
  196.9743  183.4305  150.7954 C   0  0  0  0  0  0  0  0  0  0  0  0
  197.1336  183.7851  149.4437 C   0  0  0  0  0  0  0  0  0  0  0  0
  197.8268  184.9656  149.1087 C   0  0  0  0  0  0  0  0  0  0  0  0
  198.3539  185.8066  150.1118 C   0  0  0  0  0  0  0  0  0  0  0  0
  198.1998  185.4529  151.4637 C   0  0  0  0  0  0  0  0  0  0  0  0
  197.5305  184.2473  151.7868 C   0  0  0  0  0  0  0  0  0  0  0  0
  197.3757  183.7942  159.4973 H   0  0  0  0  0  0  0  0  0  0  0  0
  198.3538  185.7208  160.1430 H   0  0  0  0  0  0  0  0  0  0  0  0
  198.8486  187.6103  158.5710 H   0  0  0  0  0  0  0  0  0  0  0  0
  198.2680  187.2793  156.1295 H   0  0  0  0  0  0  0  0  0  0  0  0
  195.9570  183.0633  155.9973 H   0  0  0  0  0  0  0  0  0  0  0  0
  197.2083  181.9239  159.5104 H   0  0  0  0  0  0  0  0  0  0  0  0
  197.0412  180.5909  158.4924 H   0  0  0  0  0  0  0  0  0  0  0  0
  195.7318  181.0008  159.6628 H   0  0  0  0  0  0  0  0  0  0  0  0
  195.1397  184.0737  158.9068 H   0  0  0  0  0  0  0  0  0  0  0  0
  194.1720  182.6974  159.2707 H   0  0  0  0  0  0  0  0  0  0  0  0
  194.0145  183.5245  157.7363 H   0  0  0  0  0  0  0  0  0  0  0  0
  198.2872  182.3602  155.5032 H   0  0  0  0  0  0  0  0  0  0  0  0
  198.4104  181.5957  157.0516 H   0  0  0  0  0  0  0  0  0  0  0  0
  196.5181  180.1079  156.3451 H   0  0  0  0  0  0  0  0  0  0  0  0
  198.7796  178.8011  156.7757 H   0  0  0  0  0  0  0  0  0  0  0  0
  200.4504  176.9616  156.7156 H   0  0  0  0  0  0  0  0  0  0  0  0
  201.9271  175.4563  155.4009 H   0  0  0  0  0  0  0  0  0  0  0  0
  201.9884  175.6268  152.9192 H   0  0  0  0  0  0  0  0  0  0  0  0
  200.5772  177.3091  151.7588 H   0  0  0  0  0  0  0  0  0  0  0  0
  196.6869  181.2921  153.5682 H   0  0  0  0  0  0  0  0  0  0  0  0
  195.6139  181.8116  150.4239 H   0  0  0  0  0  0  0  0  0  0  0  0
  195.5496  182.4029  152.0644 H   0  0  0  0  0  0  0  0  0  0  0  0
  196.7413  183.1312  148.6808 H   0  0  0  0  0  0  0  0  0  0  0  0
  197.9560  185.2179  148.0719 H   0  0  0  0  0  0  0  0  0  0  0  0
  198.8917  186.7069  149.8460 H   0  0  0  0  0  0  0  0  0  0  0  0
  198.5999  186.0875  152.2470 H   0  0  0  0  0  0  0  0  0  0  0  0
  197.4235  183.8773  152.7847 H   0  0  0  0  0  0  0  0  0  0  0  0
  195.1903  181.5437  157.3892 H   0  0  0  0  0  0  0  0  0  0  0  0
  1  2  1  0
  2  3  1  0
  2  7  2  0
  3  4  2  0
  3  8  1  0
  4  5  1  0
  4 34  1  0
  5  6  2  0
  5 35  1  0
  6  7  1  0
  6 36  1  0
  7 37  1  0
  8  9  1  0
  8 12  1  0
  8 38  1  6
  9 10  1  0
  9 11  1  0
  9 61  1  6
 10 39  1  1
 10 40  1  0
 10 41  1  0
 11 42  1  1
 11 43  1  0
 11 44  1  0
 12 13  1  0
 12 45  1  6
 12 46  1  0
 13 14  1  0
 13 47  1  0
 14 15  1  0
 14 19  2  0
 15 16  2  0
 15 24  1  0
 16 17  1  0
 17 18  1  0
 17 23  2  0
 18 19  1  0
 18 20  2  0
 19 48  1  0
 20 21  1  0
 20 49  1  0
 21 22  2  0
 21 50  1  0
 22 23  1  0
 22 51  1  0
 23 52  1  0
 24 25  1  0
 24 53  1  0
 25 26  2  0
 25 27  1  0
 27 28  1  0
 27 54  1  6
 27 55  1  0
 28 29  2  0
 28 33  1  0
 29 30  1  0
 29 56  1  0
 30 31  2  0
 30 57  1  0
 31 32  1  0
 31 58  1  0
 32 33  2  0
 32 59  1  0
 33 60  1  0
M  CHG  1   9   1
M  END
>  <s_epik_cmdline>  (705) 
J2VwaWtfcHl0aG9uJywgJy1waCcsICc3LjAwMDAwMCcsICctcGh0JywgJzIuMDAwMDAwJywgJy1tcycsICcxNicsICctdG4nLCAnOCcsICctbWEnLCAnMjAwJywgJy1pbWFlJywgJzxpbmZpbGUubWFlPicsICctb21hZScsICc8b3V0ZmlsZS5tYWU+Jw==

>  <s_epik_input>  (705) 
W2NIXTFbY0hdW2NIXVtjSF1jKGMxQ2wpW0NASF0oTihbQ0gzXSlbQ0gzXSlbQ0gyXVtOSF1jKFtjSF1jKGMyMylbY0hdW2NIXVtjSF1bY0hdMyljKG4yKVtOSF1DKD1PKVtDSDJdYzRbY0hdW2NIXVtjSF1bY0hdW2NIXTQ=

>  <s_i_glide_gridfile>  (705) 
ATP-Grid

>  <s_lp_Force_Field>  (705) 
OPLS_2005

>  <s_lp_Variant>  (705) 
rxn502b____EMOL530620____EMOL44466703____EMOL932560-2

>  <s_lp_label>  (705) 
2361_sdstereoexpander_2_neutralizer_1_epik_1_stereoizer_1

>  <s_m_source_file>  (705) 
ATP-VSW-LIGPREP-001-in.maegz

>  <s_sd_BIOSOLVEIT.INFINISEE\_QUERY\_NAME>  (705) 
Ref-Lig

>  <s_sd_BIOSOLVEIT.INFINISEE\_QUERY\_SMILES>  (705) 
S(c1nc2c(cc1C[NH2+]Cc3ccc(cc3)C[NH+](C)C)cccc2)Cc4ccccc4

>  <s_sd_BIOSOLVEIT.INFINISEE\_REACTION\_NAME>  (705) 
rxn502b

>  <s_sd_BIOSOLVEIT.INFINISEE\_REAGENT1\_NAME>  (705) 
EMOL530620

>  <s_sd_BIOSOLVEIT.INFINISEE\_REAGENT1\_SMILES>  (705) 
ClC(=O)Cc1ccccc1

>  <s_sd_BIOSOLVEIT.INFINISEE\_REAGENT2\_NAME>  (705) 
EMOL44466703

>  <s_sd_BIOSOLVEIT.INFINISEE\_REAGENT2\_SMILES>  (705) 
Brc1c(nc2c(c1)cccc2)N

>  <s_sd_BIOSOLVEIT.INFINISEE\_REAGENT3\_NAME>  (705) 
EMOL932560

>  <s_sd_BIOSOLVEIT.INFINISEE\_REAGENT3\_SMILES>  (705) 
Clc1c(cccc1)C(N(C)C)CN

>  <s_sd_BIOSOLVEIT.INFINISEE\_SPACE>  (705) 
eXplore_7tr_2022-12

>  <s_vsw_compound_code>  (705) 
75521

>  <s_vsw_variant>  (705) 
75521-2

>  <r_epik_Charging_Adjusted_Penalty>  (705) 
0.110683155112174

>  <r_epik_Ionization_Penalty>  (705) 
0.057099999999999998

>  <r_epik_Ionization_Penalty_Charging>  (705) 
0.055300000000000002

>  <r_epik_Ionization_Penalty_Neutral>  (705) 
0.0018

>  <r_epik_State_Penalty>  (705) 
0.055300000000000002

>  <r_i_docking_score>  (705) 
-5.0985090822916401

>  <r_i_glide_ecoul>  (705) 
-11.6089744567871

>  <r_i_glide_eff_state_penalty>  (705) 
0.055300000000000002

>  <r_i_glide_einternal>  (705) 
12.938594818115201

>  <r_i_glide_emodel>  (705) 
-59.970609450252901

>  <r_i_glide_energy>  (705) 
-44.433116912841797

>  <r_i_glide_erotb>  (705) 
0.57067449912122004

>  <r_i_glide_esite>  (705) 
-0.182775987424355

>  <r_i_glide_evdw>  (705) 
-32.824142456054702

>  <r_i_glide_gscore>  (705) 
-5.15380908229164

>  <r_i_glide_hbond>  (705) 
-0.16

>  <r_i_glide_ligand_efficiency>  (705) 
-0.15450027522095899

>  <r_i_glide_ligand_efficiency_ln>  (705) 
-1.13388202123446

>  <r_i_glide_ligand_efficiency_sa>  (705) 
-0.49556493618744701

>  <r_i_glide_lipo>  (705) 
-1.4429135293035

>  <r_i_glide_metal>  (705) 
-0

>  <r_i_glide_rewards>  (705) 
-0.55624077336420097

>  <r_lp_Energy>  (705) 
29.570518

>  <r_qp_ACxDN^.5/SA>  (705) 
0.0128045

>  <r_qp_CIQPlogS>  (705) 
-6.1550000000000002

>  <r_qp_EA(eV)>  (705) 
0.80300000000000005

>  <r_qp_FISA>  (705) 
42.216999999999999

>  <r_qp_FOSA>  (705) 
167.49199999999999

>  <r_qp_IP(eV)>  (705) 
8.4629999999999992

>  <r_qp_Jm>  (705) 
0.17187942331292

>  <r_qp_PISA>  (705) 
476.24099999999999

>  <r_qp_PSA>  (705) 
57.957999999999998

>  <r_qp_PercentHumanOralAbsorption>  (705) 
100

>  <r_qp_QPPCaco>  (705) 
982.77300000000002

>  <r_qp_QPPMDCK>  (705) 
803.71199999999999

>  <r_qp_QPlogBB>  (705) 
0.157

>  <r_qp_QPlogHERG>  (705) 
-7.1669999999999998

>  <r_qp_QPlogKhsa>  (705) 
0.746

>  <r_qp_QPlogKp>  (705) 
-1.9139999999999999

>  <r_qp_QPlogPC16>  (705) 
15.362

>  <r_qp_QPlogPo/w>  (705) 
4.9939999999999998

>  <r_qp_QPlogPoct>  (705) 
23.247

>  <r_qp_QPlogPw>  (705) 
12.552

>  <r_qp_QPlogS>  (705) 
-4.5119999999999996

>  <r_qp_QPpolrz>  (705) 
48.683999999999997

>  <r_qp_SASA>  (705) 
717.90099999999995

>  <r_qp_SAamideO>  (705) 
0

>  <r_qp_SAfluorine>  (705) 
0

>  <r_qp_WPSA>  (705) 
31.951000000000001

>  <r_qp_accptHB>  (705) 
6.5

>  <r_qp_dip^2/V>  (705) 
0.036513499999999997

>  <r_qp_dipole>  (705) 
7.1109999999999998

>  <r_qp_donorHB>  (705) 
2

>  <r_qp_glob>  (705) 
0.83700160000000001

>  <r_qp_mol_MW>  (705) 
458.98899999999998

>  <r_qp_volume>  (705) 
1384.9659999999999

>  <r_sd_BIOSOLVEIT.INFINISEE\_FTREES\_SIMILARITY>  (705) 
0.92000000000000004

>  <r_sd_BIOSOLVEIT.LOGP>  (705) 
4.3670999999999998

>  <r_sd_BIOSOLVEIT.MOLECULAR\_WEIGHT>  (705) 
459.99799999999999

>  <r_sd_BIOSOLVEIT.TPSA>  (705) 
58.460000000000001

>  <i_epik_Tot_Q>  (705) 
1

>  <i_epik_Tot_abs_Q>  (705) 
1

>  <i_f3d_flags>  (705) 
0

>  <i_i_glide_confnum>  (705) 
7

>  <i_i_glide_lignum>  (705) 
868

>  <i_i_glide_posenum>  (705) 
9

>  <i_i_glide_rotatable_bonds>  (705) 
9

>  <i_lp_mmshare_version>  (705) 
65135

>  <i_m_ct_format>  (705) 
2

>  <i_m_source_file_index>  (705) 
2361

>  <i_qp_#NandO>  (705) 
5

>  <i_qp_#acid>  (705) 
0

>  <i_qp_#amide>  (705) 
0

>  <i_qp_#amidine>  (705) 
0

>  <i_qp_#amine>  (705) 
1

>  <i_qp_#in34>  (705) 
0

>  <i_qp_#in56>  (705) 
22

>  <i_qp_#metab>  (705) 
6

>  <i_qp_#nonHatm>  (705) 
33

>  <i_qp_#noncon>  (705) 
0

>  <i_qp_#ringatoms>  (705) 
22

>  <i_qp_#rotor>  (705) 
8

>  <i_qp_#rtvFG>  (705) 
0

>  <i_qp_#stars>  (705) 
1

>  <i_qp_CNS>  (705) 
1

>  <i_qp_HumanOralAbsorption>  (705) 
3

>  <i_qp_RuleOfFive>  (705) 
0

>  <i_qp_RuleOfThree>  (705) 
0

>  <i_sd_BIOSOLVEIT.INFINISEE\_RESULT\_RANK>  (705) 
16816

>  <i_sd_version>  (705) 
0

>  <b_lp_Chiralities_Consistent>  (705) 
1

>  <b_sd_chiral_flag>  (705) 
0

>  <canonical_id>  (705) 
ATP-HTVS-6D4BCDFA1C91

>  <compound_code>  (705) 
75521

>  <title>  (705) 
rxn502b____EMOL530620____EMOL44466703____EMOL932560

>  <variant>  (705) 
75521-2

>  <source_file>  (705) 
运行/运行/ATP-VSW/ATP-VSW-DOCK_HTVS_1-001_lib/ATP-VSW-DOCK_HTVS_1-001_lib

>  <canonical_smiles>  (705) 
C[NH+](C)[C@H](CNc1cc2ccccc2nc1NC(=O)Cc1ccccc1)c1ccccc1Cl

>  <scaffold>  (705) 
O=C(Cc1ccccc1)Nc1nc2ccccc2cc1NCCc1ccccc1

>  <molecular_formula>  (705) 
C27H28ClN4O+

$$$$
ATP-HTVS-6D7E0E0D5192
     RDKit          3D

 54 57  0  0  0  0  0  0  0  0999 V2000
  201.4204  179.5963  153.4511 Cl  0  0  0  0  0  0  0  0  0  0  0  0
  201.3262  178.2052  154.4779 C   0  0  0  0  0  0  0  0  0  0  0  0
  200.3499  178.1012  155.5006 C   0  0  0  0  0  0  0  0  0  0  0  0
  200.3079  176.9332  156.2956 C   0  0  0  0  0  0  0  0  0  0  0  0
  201.2393  175.8993  156.0965 C   0  0  0  0  0  0  0  0  0  0  0  0
  202.2124  176.0121  155.0884 C   0  0  0  0  0  0  0  0  0  0  0  0
  202.2545  177.1645  154.2852 C   0  0  0  0  0  0  0  0  0  0  0  0
  199.3513  179.2282  155.7627 C   0  0  2  0  0  0  0  0  0  0  0  0
  199.1577  179.4608  157.1400 O   0  0  0  0  0  0  0  0  0  0  0  0
  197.9768  178.8726  155.1720 C   0  0  1  0  0  0  0  0  0  0  0  0
  196.9858  179.9426  155.2972 N   0  0  0  0  0  0  0  0  0  0  0  0
  197.0776  181.0665  154.4523 C   0  0  0  0  0  0  0  0  0  0  0  0
  197.3646  182.3492  154.9945 C   0  0  0  0  0  0  0  0  0  0  0  0
  197.5304  182.4869  156.4058 N   0  0  0  0  0  0  0  0  0  0  0  0
  197.4657  183.6079  157.1553 C   0  0  0  0  0  0  0  0  0  0  0  0
  197.1923  184.7221  156.7106 O   0  0  0  0  0  0  0  0  0  0  0  0
  197.7806  183.4402  158.6473 C   0  0  2  0  0  0  0  0  0  0  0  0
  196.4101  184.0145  159.6394 Cl  0  0  0  0  0  0  0  0  0  0  0  0
  199.0733  184.1734  159.0110 C   0  0  0  0  0  0  0  0  0  0  0  0
  200.2232  183.4339  159.3629 C   0  0  0  0  0  0  0  0  0  0  0  0
  201.4111  184.0840  159.7388 C   0  0  0  0  0  0  0  0  0  0  0  0
  201.4735  185.4868  159.7420 C   0  0  0  0  0  0  0  0  0  0  0  0
  200.3444  186.2383  159.3630 C   0  0  0  0  0  0  0  0  0  0  0  0
  199.1457  185.5843  159.0082 C   0  0  0  0  0  0  0  0  0  0  0  0
  197.5397  183.4418  154.1041 C   0  0  0  0  0  0  0  0  0  0  0  0
  197.4168  183.2730  152.7726 N   0  0  0  0  0  0  0  0  0  0  0  0
  197.0913  182.0916  152.2114 C   0  0  0  0  0  0  0  0  0  0  0  0
  196.8927  180.9509  153.0447 C   0  0  0  0  0  0  0  0  0  0  0  0
  196.4865  179.7417  152.4226 C   0  0  0  0  0  0  0  0  0  0  0  0
  196.3608  179.6488  151.0262 C   0  0  0  0  0  0  0  0  0  0  0  0
  196.6128  180.7657  150.2189 C   0  0  0  0  0  0  0  0  0  0  0  0
  196.9532  182.0001  150.8054 C   0  0  0  0  0  0  0  0  0  0  0  0
  199.5636  176.8318  157.0724 H   0  0  0  0  0  0  0  0  0  0  0  0
  201.2159  175.0224  156.7238 H   0  0  0  0  0  0  0  0  0  0  0  0
  202.9294  175.2166  154.9367 H   0  0  0  0  0  0  0  0  0  0  0  0
  203.0131  177.2554  153.5223 H   0  0  0  0  0  0  0  0  0  0  0  0
  199.7250  180.1509  155.3403 H   0  0  0  0  0  0  0  0  0  0  0  0
  198.5670  178.7857  157.4854 H   0  0  0  0  0  0  0  0  0  0  0  0
  198.1336  178.6310  154.1231 H   0  0  0  0  0  0  0  0  0  0  0  0
  197.5751  177.9973  155.6667 H   0  0  0  0  0  0  0  0  0  0  0  0
  196.6769  180.0566  156.2681 H   0  0  0  0  0  0  0  0  0  0  0  0
  197.7010  181.6274  156.9035 H   0  0  0  0  0  0  0  0  0  0  0  0
  197.8779  182.3794  158.8838 H   0  0  0  0  0  0  0  0  0  0  0  0
  200.2130  182.3546  159.3638 H   0  0  0  0  0  0  0  0  0  0  0  0
  202.2696  183.4958  160.0336 H   0  0  0  0  0  0  0  0  0  0  0  0
  202.3877  185.9832  160.0429 H   0  0  0  0  0  0  0  0  0  0  0  0
  200.3917  187.3174  159.3835 H   0  0  0  0  0  0  0  0  0  0  0  0
  198.2762  186.1767  158.7486 H   0  0  0  0  0  0  0  0  0  0  0  0
  197.8062  184.4500  154.4013 H   0  0  0  0  0  0  0  0  0  0  0  0
  196.2547  178.8685  153.0045 H   0  0  0  0  0  0  0  0  0  0  0  0
  196.0761  178.7155  150.5687 H   0  0  0  0  0  0  0  0  0  0  0  0
  196.5113  180.6619  149.1487 H   0  0  0  0  0  0  0  0  0  0  0  0
  197.1092  182.8588  150.1716 H   0  0  0  0  0  0  0  0  0  0  0  0
  197.5678  184.0743  152.1641 H   0  0  0  0  0  0  0  0  0  0  0  0
  1  2  1  0
  2  3  1  0
  2  7  2  0
  3  4  2  0
  3  8  1  0
  4  5  1  0
  4 33  1  0
  5  6  2  0
  5 34  1  0
  6  7  1  0
  6 35  1  0
  7 36  1  0
  8  9  1  0
  8 10  1  0
  8 37  1  6
  9 38  1  0
 10 11  1  0
 10 39  1  6
 10 40  1  0
 11 12  1  0
 11 41  1  0
 12 13  2  0
 12 28  1  0
 13 14  1  0
 13 25  1  0
 14 15  1  0
 14 42  1  0
 15 16  2  0
 15 17  1  0
 17 18  1  0
 17 19  1  0
 17 43  1  6
 19 20  2  0
 19 24  1  0
 20 21  1  0
 20 44  1  0
 21 22  2  0
 21 45  1  0
 22 23  1  0
 22 46  1  0
 23 24  2  0
 23 47  1  0
 24 48  1  0
 25 26  2  0
 25 49  1  0
 26 27  1  0
 26 54  1  0
 27 28  1  0
 27 32  2  0
 28 29  2  0
 29 30  1  0
 29 50  1  0
 30 31  2  0
 30 51  1  0
 31 32  1  0
 31 52  1  0
 32 53  1  0
M  CHG  1  26   1
M  END
>  <s_epik_cmdline>  (706) 
J2VwaWtfcHl0aG9uJywgJy1waCcsICc3LjAwMDAwMCcsICctcGh0JywgJzIuMDAwMDAwJywgJy1tcycsICcxNicsICctdG4nLCAnOCcsICctbWEnLCAnMjAwJywgJy1pbWFlJywgJzxpbmZpbGUubWFlPicsICctb21hZScsICc8b3V0ZmlsZS5tYWU+Jw==

>  <s_epik_input>  (706) 
W2NIXTFbY0hdW2NIXVtjSF1jKGMxQ2wpW0NASF0oW09IXSlbQ0gyXVtOSF1jKGMoYzIzKVtjSF1bY0hdW2NIXVtjSF0zKWMoW2NIXW4yKVtOSF1DKD1PKVtDQEhdKENsKWM0W2NIXVtjSF1bY0hdW2NIXVtjSF00

>  <s_i_glide_gridfile>  (706) 
ATP-Grid

>  <s_lp_Force_Field>  (706) 
OPLS_2005

>  <s_lp_Variant>  (706) 
rxn502b____EMOL480530____EMOL30488121____EMOL932909-2

>  <s_lp_label>  (706) 
2356_sdstereoexpander_2_neutralizer_1_epik_1_stereoizer_1

>  <s_m_source_file>  (706) 
ATP-VSW-LIGPREP-002-in.maegz

>  <s_sd_BIOSOLVEIT.INFINISEE\_QUERY\_NAME>  (706) 
Ref-Lig

>  <s_sd_BIOSOLVEIT.INFINISEE\_QUERY\_SMILES>  (706) 
S(c1nc2c(cc1C[NH2+]Cc3ccc(cc3)C[NH+](C)C)cccc2)Cc4ccccc4

>  <s_sd_BIOSOLVEIT.INFINISEE\_REACTION\_NAME>  (706) 
rxn502b

>  <s_sd_BIOSOLVEIT.INFINISEE\_REAGENT1\_NAME>  (706) 
EMOL480530

>  <s_sd_BIOSOLVEIT.INFINISEE\_REAGENT1\_SMILES>  (706) 
ClC(=O)C(Cl)c1ccccc1

>  <s_sd_BIOSOLVEIT.INFINISEE\_REAGENT2\_NAME>  (706) 
EMOL30488121

>  <s_sd_BIOSOLVEIT.INFINISEE\_REAGENT2\_SMILES>  (706) 
Brc1c(N)cnc2c1cccc2

>  <s_sd_BIOSOLVEIT.INFINISEE\_REAGENT3\_NAME>  (706) 
EMOL932909

>  <s_sd_BIOSOLVEIT.INFINISEE\_REAGENT3\_SMILES>  (706) 
Clc1c(cccc1)C(O)CN

>  <s_sd_BIOSOLVEIT.INFINISEE\_SPACE>  (706) 
eXplore_7tr_2022-12

>  <s_vsw_compound_code>  (706) 
75362

>  <s_vsw_variant>  (706) 
75362-2

>  <r_epik_Charging_Adjusted_Penalty>  (706) 
0.041133574017051998

>  <r_epik_Ionization_Penalty>  (706) 
0.0206

>  <r_epik_Ionization_Penalty_Charging>  (706) 
0.0206

>  <r_epik_Ionization_Penalty_Neutral>  (706) 
0

>  <r_epik_State_Penalty>  (706) 
0.0206

>  <r_i_docking_score>  (706) 
-4.9844932944252003

>  <r_i_glide_ecoul>  (706) 
-10.4277048110962

>  <r_i_glide_eff_state_penalty>  (706) 
0.0206

>  <r_i_glide_einternal>  (706) 
5.5720801353454599

>  <r_i_glide_emodel>  (706) 
-59.633736420953497

>  <r_i_glide_energy>  (706) 
-43.6457071304321

>  <r_i_glide_erotb>  (706) 
0.55436537828488897

>  <r_i_glide_esite>  (706) 
-0.164498609423472

>  <r_i_glide_evdw>  (706) 
-33.218002319335902

>  <r_i_glide_gscore>  (706) 
-5.0050932944252002

>  <r_i_glide_hbond>  (706) 
-0.275504509270175

>  <r_i_glide_ligand_efficiency>  (706) 
-0.15576541545078801

>  <r_i_glide_ligand_efficiency_ln>  (706) 
-1.1161639207773699

>  <r_i_glide_ligand_efficiency_sa>  (706) 
-0.49452436812239098

>  <r_i_glide_lipo>  (706) 
-1.67189844365795

>  <r_i_glide_metal>  (706) 
-0

>  <r_i_glide_rewards>  (706) 
-0.22250127272727099

>  <r_lp_Energy>  (706) 
36.565035999999999

>  <r_qp_ACxDN^.5/SA>  (706) 
0.015735300000000001

>  <r_qp_CIQPlogS>  (706) 
-7.367

>  <r_qp_EA(eV)>  (706) 
0.99099999999999999

>  <r_qp_FISA>  (706) 
99.597999999999999

>  <r_qp_FOSA>  (706) 
33.134999999999998

>  <r_qp_IP(eV)>  (706) 
8.452

>  <r_qp_Jm>  (706) 
0.251605637024027

>  <r_qp_PISA>  (706) 
467.46899999999999

>  <r_qp_PSA>  (706) 
74.305999999999997

>  <r_qp_PercentHumanOralAbsorption>  (706) 
100

>  <r_qp_QPPCaco>  (706) 
1125.6700000000001

>  <r_qp_QPPMDCK>  (706) 
1586.8109999999999

>  <r_qp_QPlogBB>  (706) 
-0.65500000000000003

>  <r_qp_QPlogHERG>  (706) 
-6.327

>  <r_qp_QPlogKhsa>  (706) 
0.504

>  <r_qp_QPlogKp>  (706) 
-0.93999999999999995

>  <r_qp_QPlogPC16>  (706) 
15.475

>  <r_qp_QPlogPo/w>  (706) 
4.6879999999999997

>  <r_qp_QPlogPoct>  (706) 
23.542999999999999

>  <r_qp_QPlogPw>  (706) 
13.984

>  <r_qp_QPlogS>  (706) 
-5.3280000000000003

>  <r_qp_QPpolrz>  (706) 
44.957000000000001

>  <r_qp_SASA>  (706) 
682.45899999999995

>  <r_qp_SAamideO>  (706) 
0

>  <r_qp_SAfluorine>  (706) 
0

>  <r_qp_WPSA>  (706) 
82.257000000000005

>  <r_qp_accptHB>  (706) 
6.2000000000000002

>  <r_qp_dip^2/V>  (706) 
0.022556400000000001

>  <r_qp_dipole>  (706) 
5.4020000000000001

>  <r_qp_donorHB>  (706) 
3

>  <r_qp_glob>  (706) 
0.84144989999999997

>  <r_qp_mol_MW>  (706) 
466.36599999999999

>  <r_qp_volume>  (706) 
1293.9280000000001

>  <r_sd_BIOSOLVEIT.INFINISEE\_FTREES\_SIMILARITY>  (706) 
0.92000000000000004

>  <r_sd_BIOSOLVEIT.LOGP>  (706) 
5.9523000000000001

>  <r_sd_BIOSOLVEIT.MOLECULAR\_WEIGHT>  (706) 
466.36599999999999

>  <r_sd_BIOSOLVEIT.TPSA>  (706) 
74.25

>  <i_epik_Tot_Q>  (706) 
1

>  <i_epik_Tot_abs_Q>  (706) 
1

>  <i_f3d_flags>  (706) 
0

>  <i_i_glide_confnum>  (706) 
3

>  <i_i_glide_lignum>  (706) 
955

>  <i_i_glide_posenum>  (706) 
3

>  <i_i_glide_rotatable_bonds>  (706) 
9

>  <i_lp_mmshare_version>  (706) 
65135

>  <i_m_ct_format>  (706) 
2

>  <i_m_source_file_index>  (706) 
2356

>  <i_qp_#NandO>  (706) 
5

>  <i_qp_#acid>  (706) 
0

>  <i_qp_#amide>  (706) 
0

>  <i_qp_#amidine>  (706) 
0

>  <i_qp_#amine>  (706) 
0

>  <i_qp_#in34>  (706) 
0

>  <i_qp_#in56>  (706) 
22

>  <i_qp_#metab>  (706) 
7

>  <i_qp_#nonHatm>  (706) 
32

>  <i_qp_#noncon>  (706) 
0

>  <i_qp_#ringatoms>  (706) 
22

>  <i_qp_#rotor>  (706) 
8

>  <i_qp_#rtvFG>  (706) 
1

>  <i_qp_#stars>  (706) 
1

>  <i_qp_CNS>  (706) 
-1

>  <i_qp_HumanOralAbsorption>  (706) 
3

>  <i_qp_RuleOfFive>  (706) 
0

>  <i_qp_RuleOfThree>  (706) 
1

>  <i_sd_BIOSOLVEIT.INFINISEE\_RESULT\_RANK>  (706) 
16410

>  <i_sd_version>  (706) 
0

>  <b_lp_Chiralities_Consistent>  (706) 
1

>  <b_sd_chiral_flag>  (706) 
0

>  <canonical_id>  (706) 
ATP-HTVS-6D7E0E0D5192

>  <compound_code>  (706) 
75362

>  <title>  (706) 
rxn502b____EMOL480530____EMOL30488121____EMOL932909

>  <variant>  (706) 
75362-2

>  <source_file>  (706) 
运行/运行/ATP-VSW/ATP-VSW-DOCK_HTVS_1-002_lib.maegz

>  <canonical_smiles>  (706) 
O=C(Nc1c[nH+]c2ccccc2c1NC[C@@H](O)c1ccccc1Cl)[C@H](Cl)c1ccccc1

>  <scaffold>  (706) 
O=C(Cc1ccccc1)Nc1c[nH+]c2ccccc2c1NCCc1ccccc1

>  <molecular_formula>  (706) 
C25H22Cl2N3O2+

$$$$
ATP-HTVS-6E0FE1B5DEAA
     RDKit          3D

 62 65  0  0  0  0  0  0  0  0999 V2000
  200.9384  180.7915  153.6968 F   0  0  0  0  0  0  0  0  0  0  0  0
  200.9690  181.6252  154.7143 C   0  0  0  0  0  0  0  0  0  0  0  0
  201.3181  181.1420  156.0133 C   0  0  0  0  0  0  0  0  0  0  0  0
  201.2800  182.0071  157.1367 C   0  0  0  0  0  0  0  0  0  0  0  0
  200.8805  183.3504  156.9896 C   0  0  0  0  0  0  0  0  0  0  0  0
  200.5499  183.8107  155.6846 C   0  0  0  0  0  0  0  0  0  0  0  0
  200.6059  182.9729  154.5654 C   0  0  0  0  0  0  0  0  0  0  0  0
  200.6973  184.2891  158.1752 C   0  0  1  0  0  0  0  0  0  0  0  0
  199.3571  184.8357  158.4292 N   0  0  0  0  0  0  0  0  0  0  0  0
  198.1625  184.0821  158.4072 C   0  0  0  0  0  0  0  0  0  0  0  0
  198.1677  182.9303  157.7086 N   0  0  0  0  0  0  0  0  0  0  0  0
  197.0418  182.2330  157.5978 C   0  0  0  0  0  0  0  0  0  0  0  0
  195.8788  182.5892  158.1481 N   0  0  0  0  0  0  0  0  0  0  0  0
  195.8053  183.7147  158.8615 C   0  0  0  0  0  0  0  0  0  0  0  0
  196.9608  184.5369  159.0295 C   0  0  0  0  0  0  0  0  0  0  0  0
  196.8622  185.7359  159.7693 C   0  0  0  0  0  0  0  0  0  0  0  0
  195.6304  186.1076  160.3450 C   0  0  0  0  0  0  0  0  0  0  0  0
  194.4915  185.2844  160.1744 C   0  0  0  0  0  0  0  0  0  0  0  0
  194.5833  184.0946  159.4178 C   0  0  0  0  0  0  0  0  0  0  0  0
  197.0769  181.0882  156.8478 N   0  0  0  0  0  0  0  0  0  0  0  0
  198.0717  180.7882  155.8295 C   0  0  1  0  0  0  0  0  0  0  0  0
  197.4606  180.9250  154.4323 C   0  0  0  0  0  0  0  0  0  0  0  0
  196.6972  180.0769  153.9662 O   0  0  0  0  0  0  0  0  0  0  0  0
  197.8557  182.0212  153.7875 N   0  0  0  0  0  0  0  0  0  0  0  0
  197.5764  182.4181  152.4737 C   0  0  0  0  0  0  0  0  0  0  0  0
  197.4270  181.4845  151.4209 C   0  0  0  0  0  0  0  0  0  0  0  0
  197.1342  181.8969  150.1024 C   0  0  0  0  0  0  0  0  0  0  0  0
  197.0200  183.2707  149.8122 C   0  0  0  0  0  0  0  0  0  0  0  0
  197.2379  184.2214  150.8274 C   0  0  0  0  0  0  0  0  0  0  0  0
  197.5213  183.8046  152.1491 C   0  0  0  0  0  0  0  0  0  0  0  0
  201.5842  181.4198  158.4899 C   0  0  1  0  0  0  0  0  0  0  0  0
  202.9459  181.7028  158.9073 N   0  0  0  0  0  0  0  0  0  0  0  0
  203.1312  181.3081  160.2945 C   0  0  2  0  0  0  0  0  0  0  0  0
  203.8744  180.9590  158.0629 C   0  0  2  0  0  0  0  0  0  0  0  0
  201.5647  180.1046  156.1268 H   0  0  0  0  0  0  0  0  0  0  0  0
  200.0864  184.7903  155.5890 H   0  0  0  0  0  0  0  0  0  0  0  0
  200.3291  183.3339  153.5883 H   0  0  0  0  0  0  0  0  0  0  0  0
  201.0787  183.8663  159.1057 H   0  0  0  0  0  0  0  0  0  0  0  0
  201.3502  185.1337  157.9770 H   0  0  0  0  0  0  0  0  0  0  0  0
  199.3490  185.6554  159.0094 H   0  0  0  0  0  0  0  0  0  0  0  0
  197.7182  186.3778  159.9095 H   0  0  0  0  0  0  0  0  0  0  0  0
  195.5501  187.0223  160.9025 H   0  0  0  0  0  0  0  0  0  0  0  0
  193.5264  185.5770  160.5779 H   0  0  0  0  0  0  0  0  0  0  0  0
  193.7043  183.4800  159.2407 H   0  0  0  0  0  0  0  0  0  0  0  0
  196.3707  180.3947  157.0835 H   0  0  0  0  0  0  0  0  0  0  0  0
  198.9669  181.3800  155.9077 H   0  0  0  0  0  0  0  0  0  0  0  0
  198.3982  179.7282  155.9729 H   0  0  0  0  0  0  0  0  0  0  0  0
  198.4507  182.6631  154.3232 H   0  0  0  0  0  0  0  0  0  0  0  0
  197.5708  180.4092  151.5925 H   0  0  0  0  0  0  0  0  0  0  0  0
  196.9977  181.1622  149.3271 H   0  0  0  0  0  0  0  0  0  0  0  0
  196.7576  183.5930  148.8185 H   0  0  0  0  0  0  0  0  0  0  0  0
  197.1780  185.2789  150.6030 H   0  0  0  0  0  0  0  0  0  0  0  0
  197.7217  184.5242  152.9129 H   0  0  0  0  0  0  0  0  0  0  0  0
  200.8696  181.8206  159.2000 H   0  0  0  0  0  0  0  0  0  0  0  0
  201.4070  180.3345  158.4770 H   0  0  0  0  0  0  0  0  0  0  0  0
  204.1555  181.5318  160.5926 H   0  0  0  0  0  0  0  0  0  0  0  0
  202.9424  180.2419  160.4343 H   0  0  0  0  0  0  0  0  0  0  0  0
  202.4602  181.8750  160.9441 H   0  0  0  0  0  0  0  0  0  0  0  0
  204.9008  181.1396  158.3719 H   0  0  0  0  0  0  0  0  0  0  0  0
  203.7989  181.2739  157.0217 H   0  0  0  0  0  0  0  0  0  0  0  0
  203.6696  179.8878  158.1041 H   0  0  0  0  0  0  0  0  0  0  0  0
  195.0312  182.0199  157.9995 H   0  0  0  0  0  0  0  0  0  0  0  0
  1  2  1  0
  2  3  2  0
  2  7  1  0
  3  4  1  0
  3 35  1  0
  4  5  2  0
  4 31  1  0
  5  6  1  0
  5  8  1  0
  6  7  2  0
  6 36  1  0
  7 37  1  0
  8  9  1  0
  8 38  1  1
  8 39  1  0
  9 10  1  0
  9 40  1  0
 10 11  2  0
 10 15  1  0
 11 12  1  0
 12 13  2  0
 12 20  1  0
 13 14  1  0
 13 62  1  0
 14 15  1  0
 14 19  2  0
 15 16  2  0
 16 17  1  0
 16 41  1  0
 17 18  2  0
 17 42  1  0
 18 19  1  0
 18 43  1  0
 19 44  1  0
 20 21  1  0
 20 45  1  0
 21 22  1  0
 21 46  1  6
 21 47  1  0
 22 23  2  0
 22 24  1  0
 24 25  1  0
 24 48  1  0
 25 26  2  0
 25 30  1  0
 26 27  1  0
 26 49  1  0
 27 28  2  0
 27 50  1  0
 28 29  1  0
 28 51  1  0
 29 30  2  0
 29 52  1  0
 30 53  1  0
 31 32  1  0
 31 54  1  1
 31 55  1  0
 32 33  1  0
 32 34  1  0
 33 56  1  1
 33 57  1  0
 33 58  1  0
 34 59  1  1
 34 60  1  0
 34 61  1  0
M  CHG  1  13   1
M  END
>  <s_epik_cmdline>  (707) 
J2VwaWtfcHl0aG9uJywgJy1waCcsICc3LjAwMDAwMCcsICctcGh0JywgJzIuMDAwMDAwJywgJy1tcycsICcxNicsICctdG4nLCAnOCcsICctbWEnLCAnMjAwJywgJy1pbWFlJywgJzxpbmZpbGUubWFlPicsICctb21hZScsICc8b3V0ZmlsZS5tYWU+Jw==

>  <s_epik_input>  (707) 
RmMxW2NIXWMoW0NIMl1OKFtDSDNdKVtDSDNdKWMoW2NIXVtjSF0xKVtDSDJdW05IXWMoYyhjMjMpW2NIXVtjSF1bY0hdW2NIXTMpbmMobjIpW05IXVtDSDJdQyg9TylbTkhdYzRbY0hdW2NIXVtjSF1bY0hdW2NIXTQ=

>  <s_i_glide_gridfile>  (707) 
ATP-Grid

>  <s_lp_Force_Field>  (707) 
OPLS_2005

>  <s_lp_Variant>  (707) 
m_282030aaa____21927484____22360182____21974936-2

>  <s_lp_label>  (707) 
2059_sdstereoexpander_1_neutralizer_1_epik_2_stereoizer_1

>  <s_m_source_file>  (707) 
ATP-VSW-LIGPREP-001-in.maegz

>  <s_sd_BIOSOLVEIT.INFINISEE\_QUERY\_NAME>  (707) 
Ref-Lig

>  <s_sd_BIOSOLVEIT.INFINISEE\_QUERY\_SMILES>  (707) 
S(c1nc2c(cc1C[NH2+]Cc3ccc(cc3)C[NH+](C)C)cccc2)Cc4ccccc4

>  <s_sd_BIOSOLVEIT.INFINISEE\_REACTION\_NAME>  (707) 
m_282030aaa

>  <s_sd_BIOSOLVEIT.INFINISEE\_REAGENT1\_SMILES>  (707) 
[R1*]NCC(=O)Nc1ccccc1

>  <s_sd_BIOSOLVEIT.INFINISEE\_REAGENT2\_SMILES>  (707) 
[R2*]c1nc([R1*])c2c(n1)cccc2

>  <s_sd_BIOSOLVEIT.INFINISEE\_REAGENT3\_SMILES>  (707) 
[R2*]NCc1c(cc(F)cc1)CN(C)C

>  <s_sd_BIOSOLVEIT.INFINISEE\_SPACE>  (707) 
REALSpace_44bn_2023-08

>  <s_vsw_compound_code>  (707) 
65857

>  <s_vsw_variant>  (707) 
65857-2

>  <r_epik_Charging_Adjusted_Penalty>  (707) 
1.5712976392420599

>  <r_epik_Ionization_Penalty>  (707) 
1.5636000000000001

>  <r_epik_Ionization_Penalty_Charging>  (707) 
0.0083999999999999995

>  <r_epik_Ionization_Penalty_Neutral>  (707) 
1.5551999999999999

>  <r_epik_State_Penalty>  (707) 
1.5629

>  <r_i_docking_score>  (707) 
-1.95498268451728

>  <r_i_glide_ecoul>  (707) 
-2.3631103038787802

>  <r_i_glide_eff_state_penalty>  (707) 
1.5629

>  <r_i_glide_einternal>  (707) 
6.9809761047363299

>  <r_i_glide_emodel>  (707) 
-42.733135960019503

>  <r_i_glide_energy>  (707) 
-33.715157270431497

>  <r_i_glide_erotb>  (707) 
0.76226179845369901

>  <r_i_glide_esite>  (707) 
-0.25031874375396002

>  <r_i_glide_evdw>  (707) 
-31.352046966552699

>  <r_i_glide_gscore>  (707) 
-3.5178826845172799

>  <r_i_glide_hbond>  (707) 
-0.20000000000000001

>  <r_i_glide_ligand_efficiency>  (707) 
-0.057499490721096502

>  <r_i_glide_ligand_efficiency_ln>  (707) 
-0.43191051041676898

>  <r_i_glide_ligand_efficiency_sa>  (707) 
-0.18627602848855099

>  <r_i_glide_lipo>  (707) 
-1.6318831384893899

>  <r_i_glide_metal>  (707) 
-0

>  <r_i_glide_rewards>  (707) 
-0.27587370681818002

>  <r_lp_Energy>  (707) 
20.164584999999999

>  <r_qp_ACxDN^.5/SA>  (707) 
0.0134699

>  <r_qp_CIQPlogS>  (707) 
-6.0289999999999999

>  <r_qp_EA(eV)>  (707) 
0.60099999999999998

>  <r_qp_FISA>  (707) 
83.379000000000005

>  <r_qp_FOSA>  (707) 
156.65199999999999

>  <r_qp_IP(eV)>  (707) 
7.9710000000000001

>  <r_qp_Jm>  (707) 
0.0142345403891781

>  <r_qp_PISA>  (707) 
464.64800000000002

>  <r_qp_PSA>  (707) 
80.763999999999996

>  <r_qp_PercentHumanOralAbsorption>  (707) 
100

>  <r_qp_QPPCaco>  (707) 
400.05500000000001

>  <r_qp_QPPMDCK>  (707) 
367.80500000000001

>  <r_qp_QPlogBB>  (707) 
-0.313

>  <r_qp_QPlogHERG>  (707) 
-7.5540000000000003

>  <r_qp_QPlogKhsa>  (707) 
0.69699999999999995

>  <r_qp_QPlogKp>  (707) 
-2.6179999999999999

>  <r_qp_QPlogPC16>  (707) 
15.406000000000001

>  <r_qp_QPlogPo/w>  (707) 
4.7599999999999998

>  <r_qp_QPlogPoct>  (707) 
24.114999999999998

>  <r_qp_QPlogPw>  (707) 
13.231

>  <r_qp_QPlogS>  (707) 
-4.8899999999999997

>  <r_qp_QPpolrz>  (707) 
48.999000000000002

>  <r_qp_SASA>  (707) 
751.67600000000004

>  <r_qp_SAamideO>  (707) 
0

>  <r_qp_SAfluorine>  (707) 
46.997

>  <r_qp_WPSA>  (707) 
46.997

>  <r_qp_accptHB>  (707) 
6.75

>  <r_qp_dip^2/V>  (707) 
0.0468487

>  <r_qp_dipole>  (707) 
8.1319999999999997

>  <r_qp_donorHB>  (707) 
2.25

>  <r_qp_glob>  (707) 
0.80963450000000003

>  <r_qp_mol_MW>  (707) 
458.53699999999998

>  <r_qp_volume>  (707) 
1411.665

>  <r_sd_BIOSOLVEIT.INFINISEE\_FTREES\_SIMILARITY>  (707) 
0.90100000000000002

>  <r_sd_BIOSOLVEIT.LOGP>  (707) 
3.0760999999999998

>  <r_sd_BIOSOLVEIT.MOLECULAR\_WEIGHT>  (707) 
459.54599999999999

>  <r_sd_BIOSOLVEIT.TPSA>  (707) 
83.379999999999995

>  <i_epik_Tot_Q>  (707) 
1

>  <i_epik_Tot_abs_Q>  (707) 
1

>  <i_f3d_flags>  (707) 
0

>  <i_i_glide_confnum>  (707) 
9

>  <i_i_glide_lignum>  (707) 
631

>  <i_i_glide_posenum>  (707) 
4

>  <i_i_glide_rotatable_bonds>  (707) 
10

>  <i_lp_mmshare_version>  (707) 
65135

>  <i_m_ct_format>  (707) 
2

>  <i_m_source_file_index>  (707) 
2059

>  <i_qp_#NandO>  (707) 
7

>  <i_qp_#acid>  (707) 
0

>  <i_qp_#amide>  (707) 
0

>  <i_qp_#amidine>  (707) 
0

>  <i_qp_#amine>  (707) 
1

>  <i_qp_#in34>  (707) 
0

>  <i_qp_#in56>  (707) 
22

>  <i_qp_#metab>  (707) 
6

>  <i_qp_#nonHatm>  (707) 
34

>  <i_qp_#noncon>  (707) 
0

>  <i_qp_#ringatoms>  (707) 
22

>  <i_qp_#rotor>  (707) 
9

>  <i_qp_#rtvFG>  (707) 
0

>  <i_qp_#stars>  (707) 
1

>  <i_qp_CNS>  (707) 
0

>  <i_qp_HumanOralAbsorption>  (707) 
3

>  <i_qp_RuleOfFive>  (707) 
0

>  <i_qp_RuleOfThree>  (707) 
0

>  <i_sd_BIOSOLVEIT.INFINISEE\_REAGENT1\_NAME>  (707) 
21927484

>  <i_sd_BIOSOLVEIT.INFINISEE\_REAGENT2\_NAME>  (707) 
22360182

>  <i_sd_BIOSOLVEIT.INFINISEE\_REAGENT3\_NAME>  (707) 
21974936

>  <i_sd_BIOSOLVEIT.INFINISEE\_RESULT\_RANK>  (707) 
94688

>  <i_sd_version>  (707) 
0

>  <b_lp_Chiralities_Consistent>  (707) 
1

>  <b_sd_chiral_flag>  (707) 
0

>  <canonical_id>  (707) 
ATP-HTVS-6E0FE1B5DEAA

>  <compound_code>  (707) 
65857

>  <title>  (707) 
m_282030aaa____21927484____22360182____21974936

>  <variant>  (707) 
65857-2

>  <source_file>  (707) 
运行/运行/ATP-VSW/ATP-VSW-DOCK_HTVS_1-001_lib/ATP-VSW-DOCK_HTVS_1-001_lib

>  <canonical_smiles>  (707) 
CN(C)Cc1cc(F)ccc1CNc1nc(NCC(=O)Nc2ccccc2)[nH+]c2ccccc12

>  <scaffold>  (707) 
O=C(CNc1nc(NCc2ccccc2)c2ccccc2[nH+]1)Nc1ccccc1

>  <molecular_formula>  (707) 
C26H28FN6O+

$$$$
ATP-HTVS-6E162A247368
     RDKit          3D

 59 61  0  0  0  0  0  0  0  0999 V2000
  200.7851  183.4872  151.9895 S   0  0  0  0  0  0  0  0  0  0  0  0
  199.5218  184.1667  153.0138 C   0  0  0  0  0  0  0  0  0  0  0  0
  198.1653  183.7068  152.7039 C   0  0  0  0  0  0  0  0  0  0  0  0
  197.4950  184.4562  151.9633 O   0  0  0  0  0  0  0  0  0  0  0  0
  197.6978  182.5158  153.1949 N   0  0  0  0  0  0  0  0  0  0  0  0
  198.3982  181.6709  154.1192 C   0  0  0  0  0  0  0  0  0  0  0  0
  197.7010  181.1370  155.2471 C   0  0  0  0  0  0  0  0  0  0  0  0
  198.3824  180.2569  156.1479 C   0  0  0  0  0  0  0  0  0  0  0  0
  199.7372  179.8961  155.9279 C   0  0  0  0  0  0  0  0  0  0  0  0
  200.3936  180.4272  154.7872 C   0  0  0  0  0  0  0  0  0  0  0  0
  199.7497  181.2805  153.8602 C   0  0  0  0  0  0  0  0  0  0  0  0
  196.3613  182.0435  152.7601 C   0  0  1  0  0  0  0  0  0  0  0  0
  196.4697  180.7614  151.8921 C   0  0  1  0  0  0  0  0  0  0  0  0
  196.9752  179.4987  152.6368 C   0  0  2  0  0  0  0  0  0  0  0  0
  200.0528  185.0776  153.9012 C   0  0  0  0  0  0  0  0  0  0  0  0
  199.3312  185.9820  154.7131 N   0  0  0  0  0  0  0  0  0  0  0  0
  197.9406  185.8124  155.1464 C   0  0  1  0  0  0  0  0  0  0  0  0
  197.8325  185.0782  156.4733 C   0  0  0  0  0  0  0  0  0  0  0  0
  197.0548  183.9003  156.5905 C   0  0  0  0  0  0  0  0  0  0  0  0
  196.9390  183.2310  157.8324 C   0  0  0  0  0  0  0  0  0  0  0  0
  197.6313  183.7581  158.9469 C   0  0  0  0  0  0  0  0  0  0  0  0
  198.4006  184.9332  158.8407 C   0  0  0  0  0  0  0  0  0  0  0  0
  198.5037  185.5914  157.6039 C   0  0  0  0  0  0  0  0  0  0  0  0
  196.0567  181.9858  158.0119 C   0  0  1  0  0  0  0  0  0  0  0  0
  194.6188  182.3449  158.1412 N   0  0  2  0  0  0  0  0  0  0  0  0
  194.3692  183.4140  159.1482 C   0  0  2  0  0  0  0  0  0  0  0  0
  193.7961  181.1471  158.4178 C   0  0  2  0  0  0  0  0  0  0  0  0
  201.4964  185.0610  153.9235 C   0  0  0  0  0  0  0  0  0  0  0  0
  202.0102  184.1724  153.0199 C   0  0  0  0  0  0  0  0  0  0  0  0
  196.6340  181.3071  155.3989 H   0  0  0  0  0  0  0  0  0  0  0  0
  197.8362  179.7654  156.9916 H   0  0  0  0  0  0  0  0  0  0  0  0
  200.2490  179.1668  156.5860 H   0  0  0  0  0  0  0  0  0  0  0  0
  201.3723  180.1029  154.5419 H   0  0  0  0  0  0  0  0  0  0  0  0
  200.1923  181.5040  152.9071 H   0  0  0  0  0  0  0  0  0  0  0  0
  195.6811  181.8740  153.5923 H   0  0  0  0  0  0  0  0  0  0  0  0
  195.8017  182.7707  152.1646 H   0  0  0  0  0  0  0  0  0  0  0  0
  195.4902  180.5352  151.4514 H   0  0  0  0  0  0  0  0  0  0  0  0
  197.1295  180.9814  151.0471 H   0  0  0  0  0  0  0  0  0  0  0  0
  196.9996  178.6190  151.9855 H   0  0  0  0  0  0  0  0  0  0  0  0
  196.3324  179.3065  153.5059 H   0  0  0  0  0  0  0  0  0  0  0  0
  197.9891  179.6382  153.0013 H   0  0  0  0  0  0  0  0  0  0  0  0
  199.8063  186.8145  155.0223 H   0  0  0  0  0  0  0  0  0  0  0  0
  197.4615  186.7986  155.2291 H   0  0  0  0  0  0  0  0  0  0  0  0
  197.3350  185.2802  154.4170 H   0  0  0  0  0  0  0  0  0  0  0  0
  196.5151  183.5470  155.7236 H   0  0  0  0  0  0  0  0  0  0  0  0
  197.5315  183.2742  159.9082 H   0  0  0  0  0  0  0  0  0  0  0  0
  198.8962  185.3397  159.7085 H   0  0  0  0  0  0  0  0  0  0  0  0
  199.0918  186.4911  157.5128 H   0  0  0  0  0  0  0  0  0  0  0  0
  196.1064  181.3110  157.1727 H   0  0  0  0  0  0  0  0  0  0  0  0
  196.4035  181.4463  158.9047 H   0  0  0  0  0  0  0  0  0  0  0  0
  194.7362  183.0820  160.1267 H   0  0  0  0  0  0  0  0  0  0  0  0
  193.3020  183.6631  159.2218 H   0  0  0  0  0  0  0  0  0  0  0  0
  194.8885  184.3431  158.8955 H   0  0  0  0  0  0  0  0  0  0  0  0
  194.1156  180.6583  159.3339 H   0  0  0  0  0  0  0  0  0  0  0  0
  193.8658  180.4429  157.5947 H   0  0  0  0  0  0  0  0  0  0  0  0
  192.7484  181.4091  158.5150 H   0  0  0  0  0  0  0  0  0  0  0  0
  202.0511  185.7103  154.5931 H   0  0  0  0  0  0  0  0  0  0  0  0
  203.0397  183.9280  152.9111 H   0  0  0  0  0  0  0  0  0  0  0  0
  194.3099  182.6782  157.2171 H   0  0  0  0  0  0  0  0  0  0  0  0
  1  2  1  0
  1 29  1  0
  2  3  1  0
  2 15  2  0
  3  4  2  0
  3  5  1  0
  5  6  1  0
  5 12  1  0
  6  7  2  0
  6 11  1  0
  7  8  1  0
  7 30  1  0
  8  9  2  0
  8 31  1  0
  9 10  1  0
  9 32  1  0
 10 11  2  0
 10 33  1  0
 11 34  1  0
 12 13  1  0
 12 35  1  1
 12 36  1  0
 13 14  1  0
 13 37  1  6
 13 38  1  0
 14 39  1  6
 14 40  1  0
 14 41  1  0
 15 16  1  0
 15 28  1  0
 16 17  1  0
 16 42  1  0
 17 18  1  0
 17 43  1  1
 17 44  1  0
 18 19  2  0
 18 23  1  0
 19 20  1  0
 19 45  1  0
 20 21  2  0
 20 24  1  0
 21 22  1  0
 21 46  1  0
 22 23  2  0
 22 47  1  0
 23 48  1  0
 24 25  1  0
 24 49  1  6
 24 50  1  0
 25 26  1  0
 25 27  1  0
 25 59  1  6
 26 51  1  1
 26 52  1  0
 26 53  1  0
 27 54  1  1
 27 55  1  0
 27 56  1  0
 28 29  2  0
 28 57  1  0
 29 58  1  0
M  CHG  1  25   1
M  END
>  <s_epik_cmdline>  (708) 
J2VwaWtfcHl0aG9uJywgJy1waCcsICc3LjAwMDAwMCcsICctcGh0JywgJzIuMDAwMDAwJywgJy1tcycsICcxNicsICctdG4nLCAnOCcsICctbWEnLCAnMjAwJywgJy1pbWFlJywgJzxpbmZpbGUubWFlPicsICctb21hZScsICc8b3V0ZmlsZS5tYWU+Jw==

>  <s_epik_input>  (708) 
W2NIXTFbY0hdW2NIXVtjSF1bY0hdYzFOKFtDSDJdW0NIMl1bQ0gzXSlDKD1PKWMyc1tjSF1bY0hdYzJbTkhdW0NIMl1jM1tjSF1jKFtjSF1bY0hdW2NIXTMpW0NIMl1OKFtDSDNdKVtDSDNd

>  <s_i_glide_gridfile>  (708) 
ATP-Grid

>  <s_lp_Force_Field>  (708) 
OPLS_2005

>  <s_lp_Variant>  (708) 
rxn512b____EMOL975329____EMOL525138____EMOL2873214-1

>  <s_lp_label>  (708) 
2302_sdstereoexpander_1_neutralizer_1_epik_1_stereoizer_1

>  <s_m_source_file>  (708) 
ATP-VSW-LIGPREP-001-in.maegz

>  <s_sd_BIOSOLVEIT.INFINISEE\_QUERY\_NAME>  (708) 
Ref-Lig

>  <s_sd_BIOSOLVEIT.INFINISEE\_QUERY\_SMILES>  (708) 
S(c1nc2c(cc1C[NH2+]Cc3ccc(cc3)C[NH+](C)C)cccc2)Cc4ccccc4

>  <s_sd_BIOSOLVEIT.INFINISEE\_REACTION\_NAME>  (708) 
rxn512b

>  <s_sd_BIOSOLVEIT.INFINISEE\_REAGENT1\_NAME>  (708) 
EMOL975329

>  <s_sd_BIOSOLVEIT.INFINISEE\_REAGENT1\_SMILES>  (708) 
N(c1ccccc1)CCC

>  <s_sd_BIOSOLVEIT.INFINISEE\_REAGENT2\_NAME>  (708) 
EMOL525138

>  <s_sd_BIOSOLVEIT.INFINISEE\_REAGENT2\_SMILES>  (708) 
BrC1=C(SC=C1)C(=O)O

>  <s_sd_BIOSOLVEIT.INFINISEE\_REAGENT3\_NAME>  (708) 
EMOL2873214

>  <s_sd_BIOSOLVEIT.INFINISEE\_REAGENT3\_SMILES>  (708) 
N(Cc1cc(ccc1)CN)(C)C

>  <s_sd_BIOSOLVEIT.INFINISEE\_SPACE>  (708) 
eXplore_7tr_2022-12

>  <s_vsw_compound_code>  (708) 
73633

>  <s_vsw_variant>  (708) 
73633-1

>  <r_epik_Charging_Adjusted_Penalty>  (708) 
0.086140609825027206

>  <r_epik_Ionization_Penalty>  (708) 
0.043099999999999999

>  <r_epik_Ionization_Penalty_Charging>  (708) 
0.043099999999999999

>  <r_epik_Ionization_Penalty_Neutral>  (708) 
0

>  <r_epik_State_Penalty>  (708) 
0.043099999999999999

>  <r_i_docking_score>  (708) 
-3.4760421157055399

>  <r_i_glide_ecoul>  (708) 
-9.9001226425170898

>  <r_i_glide_eff_state_penalty>  (708) 
0.043099999999999999

>  <r_i_glide_einternal>  (708) 
9.18719577789307

>  <r_i_glide_emodel>  (708) 
-44.725129123666797

>  <r_i_glide_energy>  (708) 
-36.903086662292502

>  <r_i_glide_erotb>  (708) 
0.943232445649556

>  <r_i_glide_esite>  (708) 
-0.111876449285541

>  <r_i_glide_evdw>  (708) 
-27.002964019775401

>  <r_i_glide_gscore>  (708) 
-3.5191421157055398

>  <r_i_glide_hbond>  (708) 
-0.20000000000000001

>  <r_i_glide_ligand_efficiency>  (708) 
-0.119863521231226

>  <r_i_glide_ligand_efficiency_ln>  (708) 
-0.79592549967385795

>  <r_i_glide_ligand_efficiency_sa>  (708) 
-0.368258712651302

>  <r_i_glide_lipo>  (708) 
-0.69141277242285604

>  <r_i_glide_metal>  (708) 
-0

>  <r_i_glide_rewards>  (708) 
-0.62391874228036803

>  <r_lp_Energy>  (708) 
38.730510000000002

>  <r_lp_tautomer_probability>  (708) 
0.99999274205267796

>  <r_qp_ACxDN^.5/SA>  (708) 
0

>  <r_qp_CIQPlogS>  (708) 
-4.3319999999999999

>  <r_qp_EA(eV)>  (708) 
0.36399999999999999

>  <r_qp_FISA>  (708) 
38.136000000000003

>  <r_qp_FOSA>  (708) 
352.32100000000003

>  <r_qp_IP(eV)>  (708) 
8.1489999999999991

>  <r_qp_Jm>  (708) 
0.00277291504835158

>  <r_qp_PISA>  (708) 
302.84800000000001

>  <r_qp_PSA>  (708) 
42.222000000000001

>  <r_qp_PercentHumanOralAbsorption>  (708) 
100

>  <r_qp_QPPCaco>  (708) 
267.95299999999997

>  <r_qp_QPPMDCK>  (708) 
239.63200000000001

>  <r_qp_QPlogBB>  (708) 
0.52500000000000002

>  <r_qp_QPlogHERG>  (708) 
-7.5419999999999998

>  <r_qp_QPlogKhsa>  (708) 
0.82699999999999996

>  <r_qp_QPlogKp>  (708) 
-4.4169999999999998

>  <r_qp_QPlogPC16>  (708) 
13.494

>  <r_qp_QPlogPo/w>  (708) 
4.8760000000000003

>  <r_qp_QPlogPoct>  (708) 
17.760999999999999

>  <r_qp_QPlogPw>  (708) 
6.7549999999999999

>  <r_qp_QPlogS>  (708) 
-3.7509999999999999

>  <r_qp_QPpolrz>  (708) 
45.119999999999997

>  <r_qp_SASA>  (708) 
732.66899999999998

>  <r_qp_SAamideO>  (708) 
0

>  <r_qp_SAfluorine>  (708) 
0

>  <r_qp_WPSA>  (708) 
39.363999999999997

>  <r_qp_accptHB>  (708) 
5

>  <r_qp_dip^2/V>  (708) 
0.0305876

>  <r_qp_dipole>  (708) 
6.4340000000000002

>  <r_qp_donorHB>  (708) 
0

>  <r_qp_glob>  (708) 
0.80760169999999998

>  <r_qp_mol_MW>  (708) 
407.57299999999998

>  <r_qp_volume>  (708) 
1353.3489999999999

>  <r_sd_BIOSOLVEIT.INFINISEE\_FTREES\_SIMILARITY>  (708) 
0.92300000000000004

>  <r_sd_BIOSOLVEIT.LOGP>  (708) 
4.0614999999999997

>  <r_sd_BIOSOLVEIT.MOLECULAR\_WEIGHT>  (708) 
408.58600000000001

>  <r_sd_BIOSOLVEIT.TPSA>  (708) 
36.780000000000001

>  <i_epik_Tot_Q>  (708) 
1

>  <i_epik_Tot_abs_Q>  (708) 
1

>  <i_f3d_flags>  (708) 
0

>  <i_i_glide_confnum>  (708) 
7

>  <i_i_glide_lignum>  (708) 
817

>  <i_i_glide_posenum>  (708) 
15

>  <i_i_glide_rotatable_bonds>  (708) 
10

>  <i_lp_mmshare_version>  (708) 
65135

>  <i_m_ct_format>  (708) 
2

>  <i_m_source_file_index>  (708) 
2302

>  <i_qp_#NandO>  (708) 
4

>  <i_qp_#acid>  (708) 
0

>  <i_qp_#amide>  (708) 
0

>  <i_qp_#amidine>  (708) 
0

>  <i_qp_#amine>  (708) 
2

>  <i_qp_#in34>  (708) 
0

>  <i_qp_#in56>  (708) 
17

>  <i_qp_#metab>  (708) 
6

>  <i_qp_#nonHatm>  (708) 
29

>  <i_qp_#noncon>  (708) 
0

>  <i_qp_#ringatoms>  (708) 
17

>  <i_qp_#rotor>  (708) 
9

>  <i_qp_#rtvFG>  (708) 
0

>  <i_qp_#stars>  (708) 
0

>  <i_qp_CNS>  (708) 
2

>  <i_qp_HumanOralAbsorption>  (708) 
3

>  <i_qp_RuleOfFive>  (708) 
0

>  <i_qp_RuleOfThree>  (708) 
0

>  <i_sd_BIOSOLVEIT.INFINISEE\_RESULT\_RANK>  (708) 
11818

>  <i_sd_version>  (708) 
0

>  <b_lp_Chiralities_Consistent>  (708) 
1

>  <b_sd_chiral_flag>  (708) 
0

>  <canonical_id>  (708) 
ATP-HTVS-6E162A247368

>  <compound_code>  (708) 
73633

>  <title>  (708) 
rxn512b____EMOL975329____EMOL525138____EMOL2873214

>  <variant>  (708) 
73633-1

>  <source_file>  (708) 
运行/运行/ATP-VSW/ATP-VSW-DOCK_HTVS_1-001_lib/ATP-VSW-DOCK_HTVS_1-001_lib

>  <canonical_smiles>  (708) 
CCCN(C(=O)c1sccc1NCc1cccc(C[NH+](C)C)c1)c1ccccc1

>  <scaffold>  (708) 
O=C(Nc1ccccc1)c1sccc1NCc1ccccc1

>  <molecular_formula>  (708) 
C24H30N3OS+

$$$$
ATP-HTVS-6E22C1143CC0
     RDKit          3D

 48 51  0  0  0  0  0  0  0  0999 V2000
  196.7711  183.8980  151.0191 N   0  0  0  0  0  0  0  0  0  0  0  0
  197.1466  184.3070  152.2506 C   0  0  0  0  0  0  0  0  0  0  0  0
  197.5107  183.4292  153.2769 C   0  0  0  0  0  0  0  0  0  0  0  0
  197.4927  182.0408  153.0207 C   0  0  0  0  0  0  0  0  0  0  0  0
  197.0974  181.6043  151.7340 C   0  0  0  0  0  0  0  0  0  0  0  0
  196.7578  182.5724  150.7742 C   0  0  0  0  0  0  0  0  0  0  0  0
  197.8662  181.0797  154.0630 C   0  0  0  0  0  0  0  0  0  0  0  0
  198.6350  180.0496  153.7323 N   0  0  0  0  0  0  0  0  0  0  0  0
  198.8378  179.3551  154.8776 N   0  0  0  0  0  0  0  0  0  0  0  0
  199.6474  178.1874  154.9110 C   0  0  0  0  0  0  0  0  0  0  0  0
  200.1835  177.6507  153.7148 C   0  0  0  0  0  0  0  0  0  0  0  0
  200.9883  176.4967  153.7461 C   0  0  0  0  0  0  0  0  0  0  0  0
  201.2786  175.8723  154.9754 C   0  0  0  0  0  0  0  0  0  0  0  0
  200.7590  176.4012  156.1682 C   0  0  0  0  0  0  0  0  0  0  0  0
  199.9518  177.5488  156.1390 C   0  0  0  0  0  0  0  0  0  0  0  0
  198.1509  179.9450  155.9147 C   0  0  0  0  0  0  0  0  0  0  0  0
  197.5215  181.0676  155.4496 C   0  0  0  0  0  0  0  0  0  0  0  0
  196.5874  181.9934  156.1929 C   0  0  1  0  0  0  0  0  0  0  0  0
  196.6737  181.8146  157.6323 N   0  0  0  0  0  0  0  0  0  0  0  0
  195.5814  182.4319  158.3584 C   0  0  1  0  0  0  0  0  0  0  0  0
  195.9153  183.7853  158.9555 C   0  0  0  0  0  0  0  0  0  0  0  0
  194.8926  184.4828  159.6325 C   0  0  0  0  0  0  0  0  0  0  0  0
  195.1505  185.7360  160.2231 C   0  0  0  0  0  0  0  0  0  0  0  0
  194.0995  186.4217  160.9536 C   0  0  0  0  0  0  0  0  0  0  0  0
  193.2056  187.0186  161.5346 C   0  0  0  0  0  0  0  0  0  0  0  0
  196.4377  186.2999  160.1378 C   0  0  0  0  0  0  0  0  0  0  0  0
  197.4627  185.6096  159.4616 C   0  0  0  0  0  0  0  0  0  0  0  0
  197.2104  184.3529  158.8877 C   0  0  0  0  0  0  0  0  0  0  0  0
  196.6074  180.8135  157.7979 H   0  0  0  0  0  0  0  0  0  0  0  0
  197.1597  185.3737  152.4248 H   0  0  0  0  0  0  0  0  0  0  0  0
  197.8263  183.8148  154.2395 H   0  0  0  0  0  0  0  0  0  0  0  0
  197.0811  180.5527  151.4916 H   0  0  0  0  0  0  0  0  0  0  0  0
  196.4822  182.2736  149.7660 H   0  0  0  0  0  0  0  0  0  0  0  0
  199.9731  178.1136  152.7622 H   0  0  0  0  0  0  0  0  0  0  0  0
  201.3798  176.0873  152.8274 H   0  0  0  0  0  0  0  0  0  0  0  0
  201.8917  174.9801  155.0013 H   0  0  0  0  0  0  0  0  0  0  0  0
  200.9837  175.9281  157.1143 H   0  0  0  0  0  0  0  0  0  0  0  0
  199.5579  177.9214  157.0731 H   0  0  0  0  0  0  0  0  0  0  0  0
  198.1391  179.5164  156.9017 H   0  0  0  0  0  0  0  0  0  0  0  0
  196.7733  183.0456  155.9984 H   0  0  0  0  0  0  0  0  0  0  0  0
  195.5718  181.7852  155.8656 H   0  0  0  0  0  0  0  0  0  0  0  0
  194.6748  182.4957  157.7512 H   0  0  0  0  0  0  0  0  0  0  0  0
  195.3445  181.7588  159.1892 H   0  0  0  0  0  0  0  0  0  0  0  0
  193.8993  184.0481  159.6884 H   0  0  0  0  0  0  0  0  0  0  0  0
  192.4234  187.5580  162.0307 H   0  0  0  0  0  0  0  0  0  0  0  0
  196.6447  187.2588  160.6003 H   0  0  0  0  0  0  0  0  0  0  0  0
  198.4509  186.0353  159.4134 H   0  0  0  0  0  0  0  0  0  0  0  0
  198.0165  183.8423  158.3788 H   0  0  0  0  0  0  0  0  0  0  0  0
  1  2  2  0
  1  6  1  0
  2  3  1  0
  2 30  1  0
  3  4  2  0
  3 31  1  0
  4  5  1  0
  4  7  1  0
  5  6  2  0
  5 32  1  0
  6 33  1  0
  7  8  2  0
  7 17  1  0
  8  9  1  0
  9 10  1  0
  9 16  1  0
 10 11  2  0
 10 15  1  0
 11 12  1  0
 11 34  1  0
 12 13  2  0
 12 35  1  0
 13 14  1  0
 13 36  1  0
 14 15  2  0
 14 37  1  0
 15 38  1  0
 16 17  2  0
 16 39  1  0
 17 18  1  0
 18 19  1  0
 18 40  1  1
 18 41  1  0
 19 20  1  0
 19 29  1  0
 20 21  1  0
 20 42  1  6
 20 43  1  0
 21 22  1  0
 21 28  2  0
 22 23  2  0
 22 44  1  0
 23 24  1  0
 23 26  1  0
 24 25  3  0
 25 45  1  0
 26 27  2  0
 26 46  1  0
 27 28  1  0
 27 47  1  0
 28 48  1  0
M  END
>  <s_epik_cmdline>  (709) 
J2VwaWtfcHl0aG9uJywgJy1waCcsICc3LjAwMDAwMCcsICctcGh0JywgJzIuMDAwMDAwJywgJy1tcycsICcxNicsICctdG4nLCAnOCcsICctbWEnLCAnMjAwJywgJy1pbWFlJywgJzxpbmZpbGUubWFlPicsICctb21hZScsICc8b3V0ZmlsZS5tYWU+Jw==

>  <s_epik_input>  (709) 
W2NIXTFbY0hdbltjSF1bY0hdYzEtYzJubigtYzNbY0hdW2NIXVtjSF1bY0hdW2NIXTMpW2NIXWMyW0NIMl1bTkhdW0NIMl1jNFtjSF1jKEMjW0NIXSlbY0hdW2NIXVtjSF00

>  <s_i_glide_gridfile>  (709) 
ATP-Grid

>  <s_lp_Force_Field>  (709) 
OPLS_2005

>  <s_lp_Variant>  (709) 
m_270004bbb____8292364____14924994-2

>  <s_lp_label>  (709) 
1991_sdstereoexpander_1_neutralizer_1_epik_2_stereoizer_1

>  <s_m_source_file>  (709) 
ATP-VSW-LIGPREP-003-in.maegz

>  <s_sd_BIOSOLVEIT.INFINISEE\_QUERY\_NAME>  (709) 
Ref-Lig

>  <s_sd_BIOSOLVEIT.INFINISEE\_QUERY\_SMILES>  (709) 
S(c1nc2c(cc1C[NH2+]Cc3ccc(cc3)C[NH+](C)C)cccc2)Cc4ccccc4

>  <s_sd_BIOSOLVEIT.INFINISEE\_REACTION\_NAME>  (709) 
m_270004bbb

>  <s_sd_BIOSOLVEIT.INFINISEE\_REAGENT1\_SMILES>  (709) 
[R1*]NCC=1C(=NN(c2ccccc2)C1)c3ccncc3

>  <s_sd_BIOSOLVEIT.INFINISEE\_REAGENT2\_SMILES>  (709) 
[R1*]Cc1cc(C#C)ccc1

>  <s_sd_BIOSOLVEIT.INFINISEE\_SPACE>  (709) 
REALSpace_44bn_2023-08

>  <s_vsw_compound_code>  (709) 
63683

>  <s_vsw_variant>  (709) 
63683-2

>  <r_epik_Charging_Adjusted_Penalty>  (709) 
1.1320930981020001

>  <r_epik_Ionization_Penalty>  (709) 
1.1321000000000001

>  <r_epik_Ionization_Penalty_Charging>  (709) 
0

>  <r_epik_Ionization_Penalty_Neutral>  (709) 
1.1321000000000001

>  <r_epik_State_Penalty>  (709) 
1.1321000000000001

>  <r_i_docking_score>  (709) 
-3.7283032820557498

>  <r_i_glide_ecoul>  (709) 
-6.0490221977233896

>  <r_i_glide_eff_state_penalty>  (709) 
1.1321000000000001

>  <r_i_glide_einternal>  (709) 
4.2294564247131303

>  <r_i_glide_emodel>  (709) 
-56.738884113704799

>  <r_i_glide_energy>  (709) 
-44.255176067352302

>  <r_i_glide_erotb>  (709) 
1.0132190948595801

>  <r_i_glide_esite>  (709) 
-0.0332531458468905

>  <r_i_glide_evdw>  (709) 
-38.206153869628899

>  <r_i_glide_gscore>  (709) 
-4.8604032820557501

>  <r_i_glide_hbond>  (709) 
-0.16

>  <r_i_glide_ligand_efficiency>  (709) 
-0.133153688644848

>  <r_i_glide_ligand_efficiency_ln>  (709) 
-0.860601865239499

>  <r_i_glide_ligand_efficiency_sa>  (709) 
-0.40433302205440502

>  <r_i_glide_lipo>  (709) 
-1.9384518442921199

>  <r_i_glide_metal>  (709) 
-0

>  <r_i_glide_rewards>  (709) 
-0.92425636363636299

>  <r_lp_Energy>  (709) 
16.640791

>  <r_lp_tautomer_probability>  (709) 
1

>  <r_qp_ACxDN^.5/SA>  (709) 
0.0073413999999999997

>  <r_qp_CIQPlogS>  (709) 
-5.3079999999999998

>  <r_qp_EA(eV)>  (709) 
0.65500000000000003

>  <r_qp_FISA>  (709) 
53.609999999999999

>  <r_qp_FOSA>  (709) 
103.20099999999999

>  <r_qp_IP(eV)>  (709) 
8.8849999999999998

>  <r_qp_Jm>  (709) 
0.025328771850724699

>  <r_qp_PISA>  (709) 
510.5

>  <r_qp_PSA>  (709) 
40.43

>  <r_qp_PercentHumanOralAbsorption>  (709) 
100

>  <r_qp_QPPCaco>  (709) 
766.33199999999999

>  <r_qp_QPPMDCK>  (709) 
410.48599999999999

>  <r_qp_QPlogBB>  (709) 
0.127

>  <r_qp_QPlogHERG>  (709) 
-7.6349999999999998

>  <r_qp_QPlogKhsa>  (709) 
0.85899999999999999

>  <r_qp_QPlogKp>  (709) 
-2.2919999999999998

>  <r_qp_QPlogPC16>  (709) 
13.682

>  <r_qp_QPlogPo/w>  (709) 
4.7480000000000002

>  <r_qp_QPlogPoct>  (709) 
19.213000000000001

>  <r_qp_QPlogPw>  (709) 
10.196

>  <r_qp_QPlogS>  (709) 
-4.8659999999999997

>  <r_qp_QPpolrz>  (709) 
43.515999999999998

>  <r_qp_SASA>  (709) 
667.31100000000004

>  <r_qp_SAamideO>  (709) 
0

>  <r_qp_SAfluorine>  (709) 
0

>  <r_qp_WPSA>  (709) 
0

>  <r_qp_accptHB>  (709) 
4

>  <r_qp_dip^2/V>  (709) 
0.032654200000000001

>  <r_qp_dipole>  (709) 
6.2590000000000003

>  <r_qp_donorHB>  (709) 
1.5

>  <r_qp_glob>  (709) 
0.81817030000000002

>  <r_qp_mol_MW>  (709) 
364.44900000000001

>  <r_qp_volume>  (709) 
1199.527

>  <r_sd_BIOSOLVEIT.INFINISEE\_FTREES\_SIMILARITY>  (709) 
0.90200000000000002

>  <r_sd_BIOSOLVEIT.LOGP>  (709) 
3.1791999999999998

>  <r_sd_BIOSOLVEIT.MOLECULAR\_WEIGHT>  (709) 
365.45800000000003

>  <r_sd_BIOSOLVEIT.TPSA>  (709) 
47.32

>  <i_epik_Tot_Q>  (709) 
0

>  <i_epik_Tot_abs_Q>  (709) 
0

>  <i_f3d_flags>  (709) 
0

>  <i_i_glide_confnum>  (709) 
12

>  <i_i_glide_lignum>  (709) 
752

>  <i_i_glide_posenum>  (709) 
9

>  <i_i_glide_rotatable_bonds>  (709) 
7

>  <i_lp_mmshare_version>  (709) 
65135

>  <i_m_ct_format>  (709) 
2

>  <i_m_source_file_index>  (709) 
1991

>  <i_qp_#NandO>  (709) 
4

>  <i_qp_#acid>  (709) 
0

>  <i_qp_#amide>  (709) 
0

>  <i_qp_#amidine>  (709) 
0

>  <i_qp_#amine>  (709) 
1

>  <i_qp_#in34>  (709) 
0

>  <i_qp_#in56>  (709) 
23

>  <i_qp_#metab>  (709) 
5

>  <i_qp_#nonHatm>  (709) 
28

>  <i_qp_#noncon>  (709) 
0

>  <i_qp_#ringatoms>  (709) 
23

>  <i_qp_#rotor>  (709) 
5

>  <i_qp_#rtvFG>  (709) 
0

>  <i_qp_#stars>  (709) 
1

>  <i_qp_CNS>  (709) 
1

>  <i_qp_HumanOralAbsorption>  (709) 
3

>  <i_qp_RuleOfFive>  (709) 
0

>  <i_qp_RuleOfThree>  (709) 
0

>  <i_sd_BIOSOLVEIT.INFINISEE\_REAGENT1\_NAME>  (709) 
8292364

>  <i_sd_BIOSOLVEIT.INFINISEE\_REAGENT2\_NAME>  (709) 
14924994

>  <i_sd_BIOSOLVEIT.INFINISEE\_RESULT\_RANK>  (709) 
90232

>  <i_sd_version>  (709) 
0

>  <b_lp_Chiralities_Consistent>  (709) 
1

>  <b_sd_chiral_flag>  (709) 
0

>  <canonical_id>  (709) 
ATP-HTVS-6E22C1143CC0

>  <compound_code>  (709) 
63683

>  <title>  (709) 
m_270004bbb____8292364____14924994

>  <variant>  (709) 
63683-2

>  <source_file>  (709) 
运行/运行/ATP-VSW/ATP-VSW-DOCK_HTVS_1-003_lib/ATP-VSW-DOCK_HTVS_1-003_lib.mae

>  <canonical_smiles>  (709) 
C#Cc1cccc(CNCc2cn(-c3ccccc3)nc2-c2ccncc2)c1

>  <scaffold>  (709) 
c1ccc(CNCc2cn(-c3ccccc3)nc2-c2ccncc2)cc1

>  <molecular_formula>  (709) 
C24H20N4

$$$$
ATP-HTVS-6E53E23A0DE7
     RDKit          3D

 63 66  0  0  0  0  0  0  0  0999 V2000
  199.9381  178.9537  153.6790 O   0  0  0  0  0  0  0  0  0  0  0  0
  200.3326  178.4786  154.7434 C   0  0  0  0  0  0  0  0  0  0  0  0
  200.3078  179.1265  155.9163 N   0  0  0  0  0  0  0  0  0  0  0  0
  199.8042  180.4125  156.1635 C   0  0  0  0  0  0  0  0  0  0  0  0
  200.4918  181.2252  157.0795 C   0  0  0  0  0  0  0  0  0  0  0  0
  200.0399  182.5259  157.4225 C   0  0  0  0  0  0  0  0  0  0  0  0
  200.8334  183.3077  158.3933 C   0  0  0  0  0  0  0  0  0  0  0  0
  201.3344  182.7061  159.5793 C   0  0  0  0  0  0  0  0  0  0  0  0
  202.0686  183.4411  160.5232 C   0  0  0  0  0  0  0  0  0  0  0  0
  202.3037  184.8149  160.3037 C   0  0  0  0  0  0  0  0  0  0  0  0
  202.9977  185.5546  161.2129 O   0  0  0  0  0  0  0  0  0  0  0  0
  201.8228  185.4220  159.1318 C   0  0  0  0  0  0  0  0  0  0  0  0
  201.1391  184.6576  158.1596 C   0  0  0  0  0  0  0  0  0  0  0  0
  198.8324  182.9951  156.8105 C   0  0  0  0  0  0  0  0  0  0  0  0
  198.1781  182.1926  155.8563 C   0  0  0  0  0  0  0  0  0  0  0  0
  198.6180  180.8959  155.5571 C   0  0  0  0  0  0  0  0  0  0  0  0
  198.1974  184.3589  157.1691 C   0  0  1  0  0  0  0  0  0  0  0  0
  198.0656  185.2319  155.9916 C   0  0  0  0  0  0  0  0  0  0  0  0
  197.9636  185.9103  155.0654 N   0  0  0  0  0  0  0  0  0  0  0  0
  196.9485  184.2961  158.0258 C   0  0  0  0  0  0  0  0  0  0  0  0
  196.7757  185.2482  159.0598 C   0  0  0  0  0  0  0  0  0  0  0  0
  195.6142  185.2122  159.8571 C   0  0  0  0  0  0  0  0  0  0  0  0
  194.6282  184.2310  159.6222 C   0  0  0  0  0  0  0  0  0  0  0  0
  194.8104  183.2781  158.6045 C   0  0  0  0  0  0  0  0  0  0  0  0
  195.9613  183.3080  157.8136 C   0  0  0  0  0  0  0  0  0  0  0  0
  200.8469  177.0732  154.8342 C   0  0  0  0  0  0  0  0  0  0  0  0
  201.5254  176.5790  155.9859 C   0  0  0  0  0  0  0  0  0  0  0  0
  201.9852  175.2523  156.0263 C   0  0  0  0  0  0  0  0  0  0  0  0
  201.7413  174.3901  154.9302 C   0  0  0  0  0  0  0  0  0  0  0  0
  201.0073  174.8541  153.8278 C   0  0  0  0  0  0  0  0  0  0  0  0
  200.6197  176.2064  153.7505 C   0  0  0  0  0  0  0  0  0  0  0  0
  202.3018  172.9668  154.9239 C   0  0  1  0  0  0  0  0  0  0  0  0
  203.2751  172.7072  153.8403 N   0  0  2  0  0  0  0  0  0  0  0  0
  204.5972  173.3169  154.0289 C   0  0  2  0  0  0  0  0  0  0  0  0
  202.8003  172.8620  152.4511 C   0  0  2  0  0  0  0  0  0  0  0  0
  200.7814  178.6732  156.6807 H   0  0  0  0  0  0  0  0  0  0  0  0
  201.3888  180.8309  157.5382 H   0  0  0  0  0  0  0  0  0  0  0  0
  201.1514  181.6556  159.7724 H   0  0  0  0  0  0  0  0  0  0  0  0
  202.4497  182.9523  161.4054 H   0  0  0  0  0  0  0  0  0  0  0  0
  203.2461  185.0511  161.9710 H   0  0  0  0  0  0  0  0  0  0  0  0
  201.9712  186.4829  158.9606 H   0  0  0  0  0  0  0  0  0  0  0  0
  200.8429  185.1451  157.2515 H   0  0  0  0  0  0  0  0  0  0  0  0
  197.2879  182.5354  155.3531 H   0  0  0  0  0  0  0  0  0  0  0  0
  198.0381  180.2567  154.8982 H   0  0  0  0  0  0  0  0  0  0  0  0
  198.8436  184.9410  157.8327 H   0  0  0  0  0  0  0  0  0  0  0  0
  197.5245  186.0088  159.2506 H   0  0  0  0  0  0  0  0  0  0  0  0
  195.4725  185.9467  160.6451 H   0  0  0  0  0  0  0  0  0  0  0  0
  193.7231  184.1983  160.2082 H   0  0  0  0  0  0  0  0  0  0  0  0
  194.0803  182.5115  158.3843 H   0  0  0  0  0  0  0  0  0  0  0  0
  196.0289  182.5494  157.0450 H   0  0  0  0  0  0  0  0  0  0  0  0
  201.6937  177.1927  156.8499 H   0  0  0  0  0  0  0  0  0  0  0  0
  202.5109  174.8978  156.9047 H   0  0  0  0  0  0  0  0  0  0  0  0
  200.7014  174.2196  153.0213 H   0  0  0  0  0  0  0  0  0  0  0  0
  200.1209  176.5416  152.8531 H   0  0  0  0  0  0  0  0  0  0  0  0
  202.7832  172.7572  155.8810 H   0  0  0  0  0  0  0  0  0  0  0  0
  201.4739  172.2521  154.8768 H   0  0  0  0  0  0  0  0  0  0  0  0
  204.5099  174.4149  154.0237 H   0  0  0  0  0  0  0  0  0  0  0  0
  205.2834  173.0021  153.2359 H   0  0  0  0  0  0  0  0  0  0  0  0
  205.0383  172.9959  154.9746 H   0  0  0  0  0  0  0  0  0  0  0  0
  202.6926  173.9204  152.2057 H   0  0  0  0  0  0  0  0  0  0  0  0
  201.8447  172.3612  152.3170 H   0  0  0  0  0  0  0  0  0  0  0  0
  203.5044  172.4408  151.7022 H   0  0  0  0  0  0  0  0  0  0  0  0
  203.4366  171.7031  153.9543 H   0  0  0  0  0  0  0  0  0  0  0  0
  1  2  2  0
  2  3  1  0
  2 26  1  0
  3  4  1  0
  3 36  1  0
  4  5  2  0
  4 16  1  0
  5  6  1  0
  5 37  1  0
  6  7  1  0
  6 14  2  0
  7  8  1  0
  7 13  2  0
  8  9  2  0
  8 38  1  0
  9 10  1  0
  9 39  1  0
 10 11  1  0
 10 12  2  0
 11 40  1  0
 12 13  1  0
 12 41  1  0
 13 42  1  0
 14 15  1  0
 14 17  1  0
 15 16  2  0
 15 43  1  0
 16 44  1  0
 17 18  1  0
 17 20  1  0
 17 45  1  1
 18 19  3  0
 20 21  2  0
 20 25  1  0
 21 22  1  0
 21 46  1  0
 22 23  2  0
 22 47  1  0
 23 24  1  0
 23 48  1  0
 24 25  2  0
 24 49  1  0
 25 50  1  0
 26 27  1  0
 26 31  2  0
 27 28  2  0
 27 51  1  0
 28 29  1  0
 28 52  1  0
 29 30  2  0
 29 32  1  0
 30 31  1  0
 30 53  1  0
 31 54  1  0
 32 33  1  0
 32 55  1  1
 32 56  1  0
 33 34  1  0
 33 35  1  0
 33 63  1  6
 34 57  1  1
 34 58  1  0
 34 59  1  0
 35 60  1  6
 35 61  1  0
 35 62  1  0
M  CHG  1  33   1
M  END
>  <s_epik_cmdline>  (710) 
J2VwaWtfcHl0aG9uJywgJy1waCcsICc3LjAwMDAwMCcsICctcGh0JywgJzIuMDAwMDAwJywgJy1tcycsICcxNicsICctdG4nLCAnOCcsICctbWEnLCAnMjAwJywgJy1pbWFlJywgJzxpbmZpbGUubWFlPicsICctb21hZScsICc8b3V0ZmlsZS5tYWU+Jw==

>  <s_epik_input>  (710) 
W0NIM11OKFtDSDNdKVtDSDJdYyhbY0hdW2NIXTEpW2NIXVtjSF1jMUMoPU8pW05IXWMyW2NIXWMoLWMzW2NIXVtjSF1jKFtPSF0pW2NIXVtjSF0zKWMoW2NIXVtjSF0yKVtDQEBIXShDI04pYzRbY0hdW2NIXVtjSF1bY0hdW2NIXTQ=

>  <s_i_glide_gridfile>  (710) 
ATP-Grid

>  <s_lp_Force_Field>  (710) 
OPLS_2005

>  <s_lp_Variant>  (710) 
rxn501c____EMOL18624763____EMOL713289____EMOL517106-2

>  <s_lp_label>  (710) 
2716_sdstereoexpander_2_neutralizer_1_epik_1_stereoizer_1

>  <s_m_source_file>  (710) 
ATP-VSW-LIGPREP-003-in.maegz

>  <s_sd_BIOSOLVEIT.INFINISEE\_QUERY\_NAME>  (710) 
Ref-Lig

>  <s_sd_BIOSOLVEIT.INFINISEE\_QUERY\_SMILES>  (710) 
S(c1nc2c(cc1C[NH2+]Cc3ccc(cc3)C[NH+](C)C)cccc2)Cc4ccccc4

>  <s_sd_BIOSOLVEIT.INFINISEE\_REACTION\_NAME>  (710) 
rxn501c

>  <s_sd_BIOSOLVEIT.INFINISEE\_REAGENT1\_NAME>  (710) 
EMOL18624763

>  <s_sd_BIOSOLVEIT.INFINISEE\_REAGENT1\_SMILES>  (710) 
O=C(O)c1ccc(cc1)CN(C)C

>  <s_sd_BIOSOLVEIT.INFINISEE\_REAGENT2\_NAME>  (710) 
EMOL713289

>  <s_sd_BIOSOLVEIT.INFINISEE\_REAGENT2\_SMILES>  (710) 
Clc1c(ccc(N)c1)C(C#N)c2ccccc2

>  <s_sd_BIOSOLVEIT.INFINISEE\_REAGENT3\_NAME>  (710) 
EMOL517106

>  <s_sd_BIOSOLVEIT.INFINISEE\_REAGENT3\_SMILES>  (710) 
Oc1ccc(cc1)B(O)O

>  <s_sd_BIOSOLVEIT.INFINISEE\_SPACE>  (710) 
eXplore_7tr_2022-12

>  <s_vsw_compound_code>  (710) 
86883

>  <s_vsw_variant>  (710) 
86883-2

>  <r_epik_Charging_Adjusted_Penalty>  (710) 
0.108558204811781

>  <r_epik_Ionization_Penalty>  (710) 
0.055300000000000002

>  <r_epik_Ionization_Penalty_Charging>  (710) 
0.054300000000000001

>  <r_epik_Ionization_Penalty_Neutral>  (710) 
0.001

>  <r_epik_State_Penalty>  (710) 
0.054300000000000001

>  <r_i_docking_score>  (710) 
-4.88500832388325

>  <r_i_glide_ecoul>  (710) 
-9.3143024444580096

>  <r_i_glide_eff_state_penalty>  (710) 
0.054300000000000001

>  <r_i_glide_einternal>  (710) 
4.6857147216796902

>  <r_i_glide_emodel>  (710) 
-57.7356687103482

>  <r_i_glide_energy>  (710) 
-42.792963027954102

>  <r_i_glide_erotb>  (710) 
0.65905764600185002

>  <r_i_glide_esite>  (710) 
-0.12640179884628

>  <r_i_glide_evdw>  (710) 
-33.478660583496101

>  <r_i_glide_gscore>  (710) 
-4.9393083238832496

>  <r_i_glide_hbond>  (710) 
-0.19672227121438801

>  <r_i_glide_ligand_efficiency>  (710) 
-0.13957166639666399

>  <r_i_glide_ligand_efficiency_ln>  (710) 
-1.07236774401077

>  <r_i_glide_ligand_efficiency_sa>  (710) 
-0.45654817526594699

>  <r_i_glide_lipo>  (710) 
-1.7008508729582901

>  <r_i_glide_metal>  (710) 
-0

>  <r_i_glide_rewards>  (710) 
-0.50331263102263002

>  <r_lp_Energy>  (710) 
38.662382000000001

>  <r_lp_tautomer_probability>  (710) 
0.999999999997365

>  <r_qp_ACxDN^.5/SA>  (710) 
0.011494900000000001

>  <r_qp_CIQPlogS>  (710) 
-7.2300000000000004

>  <r_qp_EA(eV)>  (710) 
0.53100000000000003

>  <r_qp_FISA>  (710) 
166.71000000000001

>  <r_qp_FOSA>  (710) 
184.05699999999999

>  <r_qp_IP(eV)>  (710) 
8.9440000000000008

>  <r_qp_Jm>  (710) 
3.0375841355167101e-06

>  <r_qp_PISA>  (710) 
479.68099999999998

>  <r_qp_PSA>  (710) 
89.138000000000005

>  <r_qp_PercentHumanOralAbsorption>  (710) 
86.698999999999998

>  <r_qp_QPPCaco>  (710) 
64.846999999999994

>  <r_qp_QPPMDCK>  (710) 
28.446000000000002

>  <r_qp_QPlogBB>  (710) 
-1.468

>  <r_qp_QPlogHERG>  (710) 
-8.3100000000000005

>  <r_qp_QPlogKhsa>  (710) 
0.94999999999999996

>  <r_qp_QPlogKp>  (710) 
-4.101

>  <r_qp_QPlogPC16>  (710) 
17.498999999999999

>  <r_qp_QPlogPo/w>  (710) 
4.6669999999999998

>  <r_qp_QPlogPoct>  (710) 
25.795999999999999

>  <r_qp_QPlogPw>  (710) 
13.707000000000001

>  <r_qp_QPlogS>  (710) 
-7.0810000000000004

>  <r_qp_QPpolrz>  (710) 
53.18

>  <r_qp_SASA>  (710) 
830.447

>  <r_qp_SAamideO>  (710) 
0

>  <r_qp_SAfluorine>  (710) 
0

>  <r_qp_WPSA>  (710) 
0

>  <r_qp_accptHB>  (710) 
6.75

>  <r_qp_dip^2/V>  (710) 
0.086971699999999999

>  <r_qp_dipole>  (710) 
11.468999999999999

>  <r_qp_donorHB>  (710) 
2

>  <r_qp_glob>  (710) 
0.76734749999999996

>  <r_qp_mol_MW>  (710) 
461.56200000000001

>  <r_qp_volume>  (710) 
1512.546

>  <r_sd_BIOSOLVEIT.INFINISEE\_FTREES\_SIMILARITY>  (710) 
0.90800000000000003

>  <r_sd_BIOSOLVEIT.LOGP>  (710) 
4.6114800000000002

>  <r_sd_BIOSOLVEIT.MOLECULAR\_WEIGHT>  (710) 
462.56999999999999

>  <r_sd_BIOSOLVEIT.TPSA>  (710) 
77.560000000000002

>  <i_epik_Tot_Q>  (710) 
1

>  <i_epik_Tot_abs_Q>  (710) 
1

>  <i_f3d_flags>  (710) 
0

>  <i_i_glide_confnum>  (710) 
10

>  <i_i_glide_lignum>  (710) 
1289

>  <i_i_glide_posenum>  (710) 
18

>  <i_i_glide_rotatable_bonds>  (710) 
9

>  <i_lp_mmshare_version>  (710) 
65135

>  <i_m_ct_format>  (710) 
2

>  <i_m_source_file_index>  (710) 
2716

>  <i_qp_#NandO>  (710) 
5

>  <i_qp_#acid>  (710) 
0

>  <i_qp_#amide>  (710) 
0

>  <i_qp_#amidine>  (710) 
0

>  <i_qp_#amine>  (710) 
1

>  <i_qp_#in34>  (710) 
0

>  <i_qp_#in56>  (710) 
24

>  <i_qp_#metab>  (710) 
5

>  <i_qp_#nonHatm>  (710) 
35

>  <i_qp_#noncon>  (710) 
0

>  <i_qp_#ringatoms>  (710) 
24

>  <i_qp_#rotor>  (710) 
9

>  <i_qp_#rtvFG>  (710) 
0

>  <i_qp_#stars>  (710) 
2

>  <i_qp_CNS>  (710) 
-2

>  <i_qp_HumanOralAbsorption>  (710) 
1

>  <i_qp_RuleOfFive>  (710) 
0

>  <i_qp_RuleOfThree>  (710) 
1

>  <i_sd_BIOSOLVEIT.INFINISEE\_RESULT\_RANK>  (710) 
54351

>  <i_sd_version>  (710) 
0

>  <b_lp_Chiralities_Consistent>  (710) 
1

>  <b_sd_chiral_flag>  (710) 
0

>  <canonical_id>  (710) 
ATP-HTVS-6E53E23A0DE7

>  <compound_code>  (710) 
86883

>  <title>  (710) 
rxn501c____EMOL18624763____EMOL713289____EMOL517106

>  <variant>  (710) 
86883-2

>  <source_file>  (710) 
运行/运行/ATP-VSW/ATP-VSW-DOCK_HTVS_1-003_lib/ATP-VSW-DOCK_HTVS_1-003_lib.mae

>  <canonical_smiles>  (710) 
C[NH+](C)Cc1ccc(C(=O)Nc2ccc([C@@H](C#N)c3ccccc3)c(-c3ccc(O)cc3)c2)cc1

>  <scaffold>  (710) 
O=C(Nc1ccc(Cc2ccccc2)c(-c2ccccc2)c1)c1ccccc1

>  <molecular_formula>  (710) 
C30H28N3O2+

$$$$
ATP-HTVS-6E858FDBC7BE
     RDKit          3D

 57 60  0  0  0  0  0  0  0  0999 V2000
  198.0097  184.2359  156.1510 S   0  0  0  0  0  0  0  0  0  0  0  0
  196.9679  184.2041  157.5636 C   0  0  0  0  0  0  0  0  0  0  0  0
  196.2850  182.9517  157.6720 C   0  0  0  0  0  0  0  0  0  0  0  0
  195.3992  182.8008  158.7693 C   0  0  0  0  0  0  0  0  0  0  0  0
  195.1993  183.8375  159.7054 C   0  0  0  0  0  0  0  0  0  0  0  0
  195.8923  185.0527  159.5723 C   0  0  0  0  0  0  0  0  0  0  0  0
  196.7782  185.2355  158.4968 C   0  0  0  0  0  0  0  0  0  0  0  0
  196.6465  182.0488  156.6035 C   0  0  0  0  0  0  0  0  0  0  0  0
  197.5561  182.6083  155.7347 C   0  0  0  0  0  0  0  0  0  0  0  0
  198.1540  181.9255  154.5451 C   0  0  1  0  0  0  0  0  0  0  0  0
  198.4079  182.8236  153.4222 N   0  0  0  0  0  0  0  0  0  0  0  0
  197.2893  182.9668  152.4967 C   0  0  1  0  0  0  0  0  0  0  0  0
  197.4927  184.1667  151.6651 C   0  0  0  0  0  0  0  0  0  0  0  0
  197.6585  185.1064  151.0058 N   0  0  0  0  0  0  0  0  0  0  0  0
  197.0958  181.7344  151.6164 C   0  0  0  0  0  0  0  0  0  0  0  0
  196.3412  180.6429  152.0936 C   0  0  0  0  0  0  0  0  0  0  0  0
  196.1990  179.4762  151.3207 C   0  0  0  0  0  0  0  0  0  0  0  0
  196.7866  179.4025  150.0455 C   0  0  0  0  0  0  0  0  0  0  0  0
  197.5309  180.4892  149.5544 C   0  0  0  0  0  0  0  0  0  0  0  0
  197.6944  181.6465  150.3372 C   0  0  0  0  0  0  0  0  0  0  0  0
  199.4030  181.2379  154.8959 C   0  0  0  0  0  0  0  0  0  0  0  0
  200.4090  180.5862  155.1183 C   0  0  0  0  0  0  0  0  0  0  0  0
  201.6026  179.7654  155.3545 C   0  0  1  0  0  0  0  0  0  0  0  0
  201.5144  178.9770  156.5764 N   0  0  0  0  0  0  0  0  0  0  0  0
  200.5711  177.8665  156.5047 C   0  0  1  0  0  0  0  0  0  0  0  0
  201.0786  176.7058  155.6517 C   0  0  0  0  0  0  0  0  0  0  0  0
  202.0045  175.7775  156.1764 C   0  0  0  0  0  0  0  0  0  0  0  0
  202.4677  174.7043  155.3944 C   0  0  0  0  0  0  0  0  0  0  0  0
  203.3497  173.8243  155.9220 F   0  0  0  0  0  0  0  0  0  0  0  0
  202.0191  174.5533  154.0704 C   0  0  0  0  0  0  0  0  0  0  0  0
  201.1060  175.4825  153.5321 C   0  0  0  0  0  0  0  0  0  0  0  0
  200.6340  176.5521  154.3206 C   0  0  0  0  0  0  0  0  0  0  0  0
  200.2722  177.4328  157.9480 C   0  0  2  0  0  0  0  0  0  0  0  0
  198.6319  183.7392  153.7853 H   0  0  0  0  0  0  0  0  0  0  0  0
  201.3334  179.5556  157.3845 H   0  0  0  0  0  0  0  0  0  0  0  0
  194.8670  181.8665  158.8801 H   0  0  0  0  0  0  0  0  0  0  0  0
  194.5182  183.7008  160.5351 H   0  0  0  0  0  0  0  0  0  0  0  0
  195.7489  185.8489  160.2861 H   0  0  0  0  0  0  0  0  0  0  0  0
  197.3143  186.1628  158.3736 H   0  0  0  0  0  0  0  0  0  0  0  0
  196.2348  181.0519  156.5223 H   0  0  0  0  0  0  0  0  0  0  0  0
  197.4958  181.1109  154.2514 H   0  0  0  0  0  0  0  0  0  0  0  0
  196.3861  183.1581  153.0714 H   0  0  0  0  0  0  0  0  0  0  0  0
  195.8723  180.6793  153.0661 H   0  0  0  0  0  0  0  0  0  0  0  0
  195.6440  178.6419  151.7239 H   0  0  0  0  0  0  0  0  0  0  0  0
  196.6743  178.5125  149.4411 H   0  0  0  0  0  0  0  0  0  0  0  0
  197.9761  180.4388  148.5725 H   0  0  0  0  0  0  0  0  0  0  0  0
  198.2891  182.4593  149.9412 H   0  0  0  0  0  0  0  0  0  0  0  0
  201.7841  179.1346  154.4807 H   0  0  0  0  0  0  0  0  0  0  0  0
  202.4437  180.4539  155.4406 H   0  0  0  0  0  0  0  0  0  0  0  0
  199.6232  178.2097  156.0847 H   0  0  0  0  0  0  0  0  0  0  0  0
  202.3832  175.8735  157.1802 H   0  0  0  0  0  0  0  0  0  0  0  0
  202.3842  173.7302  153.4731 H   0  0  0  0  0  0  0  0  0  0  0  0
  200.7597  175.3672  152.5148 H   0  0  0  0  0  0  0  0  0  0  0  0
  199.9253  177.2570  153.9023 H   0  0  0  0  0  0  0  0  0  0  0  0
  199.5282  176.6449  157.9337 H   0  0  0  0  0  0  0  0  0  0  0  0
  199.8558  178.2591  158.5275 H   0  0  0  0  0  0  0  0  0  0  0  0
  201.1482  177.0701  158.4897 H   0  0  0  0  0  0  0  0  0  0  0  0
  1  2  1  0
  1  9  1  0
  2  3  1  0
  2  7  2  0
  3  4  2  0
  3  8  1  0
  4  5  1  0
  4 36  1  0
  5  6  2  0
  5 37  1  0
  6  7  1  0
  6 38  1  0
  7 39  1  0
  8  9  2  0
  8 40  1  0
  9 10  1  0
 10 11  1  0
 10 21  1  0
 10 41  1  6
 11 12  1  0
 11 34  1  0
 12 13  1  0
 12 15  1  0
 12 42  1  1
 13 14  3  0
 15 16  2  0
 15 20  1  0
 16 17  1  0
 16 43  1  0
 17 18  2  0
 17 44  1  0
 18 19  1  0
 18 45  1  0
 19 20  2  0
 19 46  1  0
 20 47  1  0
 21 22  3  0
 22 23  1  0
 23 24  1  0
 23 48  1  6
 23 49  1  0
 24 25  1  0
 24 35  1  0
 25 26  1  0
 25 33  1  0
 25 50  1  6
 26 27  1  0
 26 32  2  0
 27 28  2  0
 27 51  1  0
 28 29  1  0
 28 30  1  0
 30 31  2  0
 30 52  1  0
 31 32  1  0
 31 53  1  0
 32 54  1  0
 33 55  1  6
 33 56  1  0
 33 57  1  0
M  END
>  <s_epik_cmdline>  (711) 
J2VwaWtfcHl0aG9uJywgJy1waCcsICc3LjAwMDAwMCcsICctcGh0JywgJzIuMDAwMDAwJywgJy1tcycsICcxNicsICctdG4nLCAnOCcsICctbWEnLCAnMjAwJywgJy1pbWFlJywgJzxpbmZpbGUubWFlPicsICctb21hZScsICc8b3V0ZmlsZS5tYWU+Jw==

>  <s_epik_input>  (711) 
W2NIXTFbY0hdW2NIXVtjSF1bY0hdYzFbQ0BIXShDI04pW05IXVtDQEhdKGMoczIpW2NIXWMoYzIzKVtjSF1bY0hdW2NIXVtjSF0zKUMjQ1tDSDJdW05IXVtDQEhdKFtDSDNdKWM0W2NIXWMoRilbY0hdW2NIXVtjSF00

>  <s_i_glide_gridfile>  (711) 
ATP-Grid

>  <s_lp_Force_Field>  (711) 
OPLS_2005

>  <s_lp_Variant>  (711) 
rxn403____EMOL44390368____EMOL720244____EMOL317509042-1

>  <s_lp_label>  (711) 
2535_sdstereoexpander_2_neutralizer_1_epik_1_stereoizer_1

>  <s_m_source_file>  (711) 
ATP-VSW-LIGPREP-002-in.maegz

>  <s_sd_BIOSOLVEIT.INFINISEE\_QUERY\_NAME>  (711) 
Ref-Lig

>  <s_sd_BIOSOLVEIT.INFINISEE\_QUERY\_SMILES>  (711) 
S(c1nc2c(cc1C[NH2+]Cc3ccc(cc3)C[NH+](C)C)cccc2)Cc4ccccc4

>  <s_sd_BIOSOLVEIT.INFINISEE\_REACTION\_NAME>  (711) 
rxn403

>  <s_sd_BIOSOLVEIT.INFINISEE\_REAGENT1\_NAME>  (711) 
EMOL44390368

>  <s_sd_BIOSOLVEIT.INFINISEE\_REAGENT1\_SMILES>  (711) 
N#CC(N)c1ccccc1

>  <s_sd_BIOSOLVEIT.INFINISEE\_REAGENT2\_NAME>  (711) 
EMOL720244

>  <s_sd_BIOSOLVEIT.INFINISEE\_REAGENT2\_SMILES>  (711) 
S1c2c(cccc2)C=C1C=O

>  <s_sd_BIOSOLVEIT.INFINISEE\_REAGENT3\_NAME>  (711) 
EMOL317509042

>  <s_sd_BIOSOLVEIT.INFINISEE\_REAGENT3\_SMILES>  (711) 
Fc1cc(ccc1)C(NCC#C)C

>  <s_sd_BIOSOLVEIT.INFINISEE\_SPACE>  (711) 
eXplore_7tr_2022-12

>  <s_vsw_compound_code>  (711) 
81090

>  <s_vsw_variant>  (711) 
81090-1

>  <r_epik_Charging_Adjusted_Penalty>  (711) 
0.296850908861781

>  <r_epik_Ionization_Penalty>  (711) 
0.3009

>  <r_epik_Ionization_Penalty_Charging>  (711) 
0

>  <r_epik_Ionization_Penalty_Neutral>  (711) 
0.3009

>  <r_epik_State_Penalty>  (711) 
0.2969

>  <r_i_docking_score>  (711) 
-3.98554458005606

>  <r_i_glide_ecoul>  (711) 
-1.4223283529281601

>  <r_i_glide_eff_state_penalty>  (711) 
0.2969

>  <r_i_glide_einternal>  (711) 
4.40938472747803

>  <r_i_glide_emodel>  (711) 
-49.492229670541398

>  <r_i_glide_energy>  (711) 
-40.412989974021897

>  <r_i_glide_erotb>  (711) 
0.58545341530561701

>  <r_i_glide_esite>  (711) 
0

>  <r_i_glide_evdw>  (711) 
-38.9906616210938

>  <r_i_glide_gscore>  (711) 
-4.28244458005606

>  <r_i_glide_hbond>  (711) 
0

>  <r_i_glide_ligand_efficiency>  (711) 
-0.120774078183517

>  <r_i_glide_ligand_efficiency_ln>  (711) 
-0.88636447855905098

>  <r_i_glide_ligand_efficiency_sa>  (711) 
-0.38738700149573102

>  <r_i_glide_lipo>  (711) 
-1.9679993918926799

>  <r_i_glide_metal>  (711) 
-0

>  <r_i_glide_rewards>  (711) 
-0.73701626947509302

>  <r_lp_Energy>  (711) 
16.579301000000001

>  <r_qp_ACxDN^.5/SA>  (711) 
0.0088645000000000009

>  <r_qp_CIQPlogS>  (711) 
-6.7130000000000001

>  <r_qp_EA(eV)>  (711) 
0.66700000000000004

>  <r_qp_FISA>  (711) 
92.977999999999994

>  <r_qp_FOSA>  (711) 
149.59800000000001

>  <r_qp_IP(eV)>  (711) 
8.7650000000000006

>  <r_qp_Jm>  (711) 
0.00013292112715995101

>  <r_qp_PISA>  (711) 
433.73899999999998

>  <r_qp_PSA>  (711) 
50.101999999999997

>  <r_qp_PercentHumanOralAbsorption>  (711) 
89.700999999999993

>  <r_qp_QPPCaco>  (711) 
80.908000000000001

>  <r_qp_QPPMDCK>  (711) 
67.558999999999997

>  <r_qp_QPlogBB>  (711) 
-0.027

>  <r_qp_QPlogHERG>  (711) 
-7.7069999999999999

>  <r_qp_QPlogKhsa>  (711) 
1.018

>  <r_qp_QPlogKp>  (711) 
-4.8700000000000001

>  <r_qp_QPlogPC16>  (711) 
15.157

>  <r_qp_QPlogPo/w>  (711) 
4.8860000000000001

>  <r_qp_QPlogPoct>  (711) 
21.706

>  <r_qp_QPlogPw>  (711) 
10.199999999999999

>  <r_qp_QPlogS>  (711) 
-4.6630000000000003

>  <r_qp_QPpolrz>  (711) 
46.895000000000003

>  <r_qp_SASA>  (711) 
717.91899999999998

>  <r_qp_SAamideO>  (711) 
0

>  <r_qp_SAfluorine>  (711) 
22.960999999999999

>  <r_qp_WPSA>  (711) 
41.603999999999999

>  <r_qp_accptHB>  (711) 
4.5

>  <r_qp_dip^2/V>  (711) 
0.036974300000000002

>  <r_qp_dipole>  (711) 
7.1500000000000004

>  <r_qp_donorHB>  (711) 
2

>  <r_qp_glob>  (711) 
0.83598879999999998

>  <r_qp_mol_MW>  (711) 
453.57600000000002

>  <r_qp_volume>  (711) 
1382.5029999999999

>  <r_sd_BIOSOLVEIT.INFINISEE\_FTREES\_SIMILARITY>  (711) 
0.91300000000000003

>  <r_sd_BIOSOLVEIT.LOGP>  (711) 
4.2377799999999999

>  <r_sd_BIOSOLVEIT.MOLECULAR\_WEIGHT>  (711) 
455.59699999999998

>  <r_sd_BIOSOLVEIT.TPSA>  (711) 
57.009999999999998

>  <i_epik_Tot_Q>  (711) 
0

>  <i_epik_Tot_abs_Q>  (711) 
0

>  <i_f3d_flags>  (711) 
0

>  <i_i_glide_confnum>  (711) 
9

>  <i_i_glide_lignum>  (711) 
1118

>  <i_i_glide_posenum>  (711) 
16

>  <i_i_glide_rotatable_bonds>  (711) 
9

>  <i_lp_mmshare_version>  (711) 
65135

>  <i_m_ct_format>  (711) 
2

>  <i_m_source_file_index>  (711) 
2535

>  <i_qp_#NandO>  (711) 
3

>  <i_qp_#acid>  (711) 
0

>  <i_qp_#amide>  (711) 
0

>  <i_qp_#amidine>  (711) 
0

>  <i_qp_#amine>  (711) 
2

>  <i_qp_#in34>  (711) 
0

>  <i_qp_#in56>  (711) 
21

>  <i_qp_#metab>  (711) 
9

>  <i_qp_#nonHatm>  (711) 
33

>  <i_qp_#noncon>  (711) 
0

>  <i_qp_#ringatoms>  (711) 
21

>  <i_qp_#rotor>  (711) 
10

>  <i_qp_#rtvFG>  (711) 
0

>  <i_qp_#stars>  (711) 
1

>  <i_qp_CNS>  (711) 
1

>  <i_qp_HumanOralAbsorption>  (711) 
3

>  <i_qp_RuleOfFive>  (711) 
0

>  <i_qp_RuleOfThree>  (711) 
1

>  <i_sd_BIOSOLVEIT.INFINISEE\_RESULT\_RANK>  (711) 
34032

>  <i_sd_version>  (711) 
0

>  <b_lp_Chiralities_Consistent>  (711) 
1

>  <b_sd_chiral_flag>  (711) 
0

>  <canonical_id>  (711) 
ATP-HTVS-6E858FDBC7BE

>  <compound_code>  (711) 
81090

>  <title>  (711) 
rxn403____EMOL44390368____EMOL720244____EMOL317509042

>  <variant>  (711) 
81090-1

>  <source_file>  (711) 
运行/运行/ATP-VSW/ATP-VSW-DOCK_HTVS_1-002_lib.maegz

>  <canonical_smiles>  (711) 
C[C@@H](NCC#C[C@H](N[C@@H](C#N)c1ccccc1)c1cc2ccccc2s1)c1cccc(F)c1

>  <scaffold>  (711) 
C(#CC(NCc1ccccc1)c1cc2ccccc2s1)CNCc1ccccc1

>  <molecular_formula>  (711) 
C28H24FN3S

$$$$
ATP-HTVS-6E87A6CCCD27
     RDKit          3D

 57 60  0  0  0  0  0  0  0  0999 V2000
  199.5336  188.4821  154.6206 O   0  0  0  0  0  0  0  0  0  0  0  0
  199.1471  187.3867  154.2125 C   0  0  0  0  0  0  0  0  0  0  0  0
  198.4792  186.4826  154.9551 N   0  0  0  0  0  0  0  0  0  0  0  0
  197.8668  186.6482  156.2346 C   0  0  0  0  0  0  0  0  0  0  0  0
  197.4853  185.5159  156.9982 C   0  0  0  0  0  0  0  0  0  0  0  0
  197.7477  184.1768  156.4859 C   0  0  0  0  0  0  0  0  0  0  0  0
  197.9780  183.0536  156.0747 C   0  0  0  0  0  0  0  0  0  0  0  0
  198.2780  181.7244  155.5466 C   0  0  1  0  0  0  0  0  0  0  0  0
  197.0495  180.9165  155.7256 N   0  0  1  0  0  0  0  0  0  0  0  0
  197.1528  179.5401  155.2061 C   0  0  1  0  0  0  0  0  0  0  0  0
  197.5391  179.5215  153.7342 C   0  0  0  0  0  0  0  0  0  0  0  0
  198.8662  179.2254  153.3545 C   0  0  0  0  0  0  0  0  0  0  0  0
  199.2298  179.2342  151.9934 C   0  0  0  0  0  0  0  0  0  0  0  0
  198.2728  179.5393  151.0071 C   0  0  0  0  0  0  0  0  0  0  0  0
  196.9467  179.8310  151.3814 C   0  0  0  0  0  0  0  0  0  0  0  0
  196.5841  179.8280  152.7406 C   0  0  0  0  0  0  0  0  0  0  0  0
  196.8304  185.7077  158.2444 C   0  0  0  0  0  0  0  0  0  0  0  0
  196.5784  187.0413  158.6759 C   0  0  0  0  0  0  0  0  0  0  0  0
  196.9293  188.1109  157.9355 N   0  0  0  0  0  0  0  0  0  0  0  0
  197.5530  187.9192  156.7610 C   0  0  0  0  0  0  0  0  0  0  0  0
  195.9466  187.2486  159.9174 C   0  0  0  0  0  0  0  0  0  0  0  0
  195.5473  186.1696  160.7217 C   0  0  0  0  0  0  0  0  0  0  0  0
  195.7957  184.8546  160.2947 C   0  0  0  0  0  0  0  0  0  0  0  0
  196.4321  184.6211  159.0656 C   0  0  0  0  0  0  0  0  0  0  0  0
  199.4886  186.9240  152.8282 C   0  0  0  0  0  0  0  0  0  0  0  0
  198.5665  186.1664  152.0714 C   0  0  0  0  0  0  0  0  0  0  0  0
  198.8795  185.7612  150.7602 C   0  0  0  0  0  0  0  0  0  0  0  0
  200.1192  186.1128  150.1761 C   0  0  0  0  0  0  0  0  0  0  0  0
  201.0328  186.8847  150.9315 C   0  0  0  0  0  0  0  0  0  0  0  0
  200.7158  187.2932  152.2410 C   0  0  0  0  0  0  0  0  0  0  0  0
  200.4842  185.7010  148.7903 C   0  0  0  0  0  0  0  0  0  0  0  0
  201.5562  185.9861  148.2576 O   0  0  0  0  0  0  0  0  0  0  0  0
  199.4689  184.8792  147.9978 C   0  0  2  0  0  0  0  0  0  0  0  0
  196.8155  180.8317  156.7084 H   0  0  0  0  0  0  0  0  0  0  0  0
  198.3732  185.5715  154.5312 H   0  0  0  0  0  0  0  0  0  0  0  0
  198.5463  181.8542  154.4979 H   0  0  0  0  0  0  0  0  0  0  0  0
  199.1284  181.2962  156.0790 H   0  0  0  0  0  0  0  0  0  0  0  0
  197.8765  178.9835  155.8054 H   0  0  0  0  0  0  0  0  0  0  0  0
  196.1917  179.0426  155.3383 H   0  0  0  0  0  0  0  0  0  0  0  0
  199.6112  178.9957  154.1042 H   0  0  0  0  0  0  0  0  0  0  0  0
  200.2521  179.0247  151.7094 H   0  0  0  0  0  0  0  0  0  0  0  0
  198.5565  179.5568  149.9647 H   0  0  0  0  0  0  0  0  0  0  0  0
  196.2113  180.0758  150.6299 H   0  0  0  0  0  0  0  0  0  0  0  0
  195.5643  180.0596  153.0098 H   0  0  0  0  0  0  0  0  0  0  0  0
  197.7517  188.8305  156.2168 H   0  0  0  0  0  0  0  0  0  0  0  0
  195.7619  188.2610  160.2497 H   0  0  0  0  0  0  0  0  0  0  0  0
  195.0685  186.3508  161.6733 H   0  0  0  0  0  0  0  0  0  0  0  0
  195.5204  184.0149  160.9182 H   0  0  0  0  0  0  0  0  0  0  0  0
  196.6141  183.5967  158.7827 H   0  0  0  0  0  0  0  0  0  0  0  0
  197.6055  185.9014  152.4864 H   0  0  0  0  0  0  0  0  0  0  0  0
  198.1475  185.1850  150.2127 H   0  0  0  0  0  0  0  0  0  0  0  0
  201.9820  187.1759  150.5063 H   0  0  0  0  0  0  0  0  0  0  0  0
  201.4245  187.8934  152.7964 H   0  0  0  0  0  0  0  0  0  0  0  0
  199.2534  183.9414  148.5090 H   0  0  0  0  0  0  0  0  0  0  0  0
  199.8625  184.6445  147.0086 H   0  0  0  0  0  0  0  0  0  0  0  0
  198.5414  185.4370  147.8725 H   0  0  0  0  0  0  0  0  0  0  0  0
  196.2800  181.3848  155.2661 H   0  0  0  0  0  0  0  0  0  0  0  0
  1  2  2  0
  2  3  1  0
  2 25  1  0
  3  4  1  0
  3 35  1  0
  4  5  2  0
  4 20  1  0
  5  6  1  0
  5 17  1  0
  6  7  3  0
  7  8  1  0
  8  9  1  0
  8 36  1  6
  8 37  1  0
  9 10  1  0
  9 34  1  1
  9 57  1  0
 10 11  1  0
 10 38  1  1
 10 39  1  0
 11 12  2  0
 11 16  1  0
 12 13  1  0
 12 40  1  0
 13 14  2  0
 13 41  1  0
 14 15  1  0
 14 42  1  0
 15 16  2  0
 15 43  1  0
 16 44  1  0
 17 18  1  0
 17 24  2  0
 18 19  1  0
 18 21  2  0
 19 20  2  0
 20 45  1  0
 21 22  1  0
 21 46  1  0
 22 23  2  0
 22 47  1  0
 23 24  1  0
 23 48  1  0
 24 49  1  0
 25 26  1  0
 25 30  2  0
 26 27  2  0
 26 50  1  0
 27 28  1  0
 27 51  1  0
 28 29  2  0
 28 31  1  0
 29 30  1  0
 29 52  1  0
 30 53  1  0
 31 32  2  0
 31 33  1  0
 33 54  1  1
 33 55  1  0
 33 56  1  0
M  CHG  1   9   1
M  END
>  <s_epik_cmdline>  (712) 
J2VwaWtfcHl0aG9uJywgJy1waCcsICc3LjAwMDAwMCcsICctcGh0JywgJzIuMDAwMDAwJywgJy1tcycsICcxNicsICctdG4nLCAnOCcsICctbWEnLCAnMjAwJywgJy1pbWFlJywgJzxpbmZpbGUubWFlPicsICctb21hZScsICc8b3V0ZmlsZS5tYWU+Jw==

>  <s_epik_input>  (712) 
W2NIXTFbY0hdYyhDKD1PKVtDSDNdKVtjSF1bY0hdYzFDKD1PKVtOSF1jKFtjSF1uYyhjMjMpW2NIXVtjSF1bY0hdW2NIXTMpYzJDI0NbQ0gyXVtOSF1bQ0gyXWM0W2NIXVtjSF1bY0hdW2NIXVtjSF00

>  <s_i_glide_gridfile>  (712) 
ATP-Grid

>  <s_lp_Force_Field>  (712) 
OPLS_2005

>  <s_lp_Variant>  (712) 
rxn503c____EMOL474653____EMOL44472687____EMOL1197208-2

>  <s_lp_label>  (712) 
3001_sdstereoexpander_1_neutralizer_1_epik_2_stereoizer_1

>  <s_m_source_file>  (712) 
ATP-VSW-LIGPREP-001-in.maegz

>  <s_sd_BIOSOLVEIT.INFINISEE\_QUERY\_NAME>  (712) 
Ref-Lig

>  <s_sd_BIOSOLVEIT.INFINISEE\_QUERY\_SMILES>  (712) 
S(c1nc2c(cc1C[NH2+]Cc3ccc(cc3)C[NH+](C)C)cccc2)Cc4ccccc4

>  <s_sd_BIOSOLVEIT.INFINISEE\_REACTION\_NAME>  (712) 
rxn503c

>  <s_sd_BIOSOLVEIT.INFINISEE\_REAGENT1\_NAME>  (712) 
EMOL474653

>  <s_sd_BIOSOLVEIT.INFINISEE\_REAGENT1\_SMILES>  (712) 
O=C(O)c1ccc(cc1)C(=O)C

>  <s_sd_BIOSOLVEIT.INFINISEE\_REAGENT2\_NAME>  (712) 
EMOL44472687

>  <s_sd_BIOSOLVEIT.INFINISEE\_REAGENT2\_SMILES>  (712) 
Clc1c(N)cnc2c1cccc2

>  <s_sd_BIOSOLVEIT.INFINISEE\_REAGENT3\_NAME>  (712) 
EMOL1197208

>  <s_sd_BIOSOLVEIT.INFINISEE\_REAGENT3\_SMILES>  (712) 
N(CC#C)Cc1ccccc1

>  <s_sd_BIOSOLVEIT.INFINISEE\_SPACE>  (712) 
eXplore_7tr_2022-12

>  <s_vsw_compound_code>  (712) 
96001

>  <s_vsw_variant>  (712) 
96001-2

>  <r_epik_Charging_Adjusted_Penalty>  (712) 
1.1372904760564899

>  <r_epik_Ionization_Penalty>  (712) 
0.56879999999999997

>  <r_epik_Ionization_Penalty_Charging>  (712) 
0.56859999999999999

>  <r_epik_Ionization_Penalty_Neutral>  (712) 
0.00020000000000000001

>  <r_epik_State_Penalty>  (712) 
0.56859999999999999

>  <r_i_docking_score>  (712) 
-4.1757021785051398

>  <r_i_glide_ecoul>  (712) 
-7.3101620674133301

>  <r_i_glide_eff_state_penalty>  (712) 
0.56859999999999999

>  <r_i_glide_einternal>  (712) 
5.5243673324584996

>  <r_i_glide_emodel>  (712) 
-54.3284030608446

>  <r_i_glide_energy>  (712) 
-40.075676441192599

>  <r_i_glide_erotb>  (712) 
0.73843150421096604

>  <r_i_glide_esite>  (712) 
-0.091671102840371499

>  <r_i_glide_evdw>  (712) 
-32.765514373779297

>  <r_i_glide_gscore>  (712) 
-4.7443021785051398

>  <r_i_glide_hbond>  (712) 
-0.026427143082088999

>  <r_i_glide_ligand_efficiency>  (712) 
-0.126536429651671

>  <r_i_glide_ligand_efficiency_ln>  (712) 
-0.92865454387077495

>  <r_i_glide_ligand_efficiency_sa>  (712) 
-0.40586994162979401

>  <r_i_glide_lipo>  (712) 
-1.93598504714167

>  <r_i_glide_metal>  (712) 
-0

>  <r_i_glide_rewards>  (712) 
-0.69385036085101903

>  <r_lp_Energy>  (712) 
36.807814999999998

>  <r_lp_tautomer_probability>  (712) 
0.99995000000000001

>  <r_qp_ACxDN^.5/SA>  (712) 
0.011891499999999999

>  <r_qp_CIQPlogS>  (712) 
-5.4509999999999996

>  <r_qp_EA(eV)>  (712) 
1.3109999999999999

>  <r_qp_FISA>  (712) 
126.339

>  <r_qp_FOSA>  (712) 
160.86799999999999

>  <r_qp_IP(eV)>  (712) 
8.7210000000000001

>  <r_qp_Jm>  (712) 
0.000167568989022975

>  <r_qp_PISA>  (712) 
545.28099999999995

>  <r_qp_PSA>  (712) 
89.209000000000003

>  <r_qp_PercentHumanOralAbsorption>  (712) 
93.096999999999994

>  <r_qp_QPPCaco>  (712) 
156.57599999999999

>  <r_qp_QPPMDCK>  (712) 
73.760999999999996

>  <r_qp_QPlogBB>  (712) 
-1.024

>  <r_qp_QPlogHERG>  (712) 
-8.9309999999999992

>  <r_qp_QPlogKhsa>  (712) 
0.79600000000000004

>  <r_qp_QPlogKp>  (712) 
-3.222

>  <r_qp_QPlogPC16>  (712) 
17.347000000000001

>  <r_qp_QPlogPo/w>  (712) 
4.5890000000000004

>  <r_qp_QPlogPoct>  (712) 
25.004999999999999

>  <r_qp_QPlogPw>  (712) 
14.351000000000001

>  <r_qp_QPlogS>  (712) 
-6.1909999999999998

>  <r_qp_QPpolrz>  (712) 
52.426000000000002

>  <r_qp_SASA>  (712) 
832.48800000000006

>  <r_qp_SAamideO>  (712) 
0

>  <r_qp_SAfluorine>  (712) 
0

>  <r_qp_WPSA>  (712) 
0

>  <r_qp_accptHB>  (712) 
7

>  <r_qp_dip^2/V>  (712) 
0.051737199999999997

>  <r_qp_dipole>  (712) 
8.6969999999999992

>  <r_qp_donorHB>  (712) 
2

>  <r_qp_glob>  (712) 
0.74831979999999998

>  <r_qp_mol_MW>  (712) 
433.50900000000001

>  <r_qp_volume>  (712) 
1462.01

>  <r_sd_BIOSOLVEIT.INFINISEE\_FTREES\_SIMILARITY>  (712) 
0.90300000000000002

>  <r_sd_BIOSOLVEIT.LOGP>  (712) 
3.8048000000000002

>  <r_sd_BIOSOLVEIT.MOLECULAR\_WEIGHT>  (712) 
434.517

>  <r_sd_BIOSOLVEIT.TPSA>  (712) 
75.670000000000002

>  <i_epik_Tot_Q>  (712) 
1

>  <i_epik_Tot_abs_Q>  (712) 
1

>  <i_f3d_flags>  (712) 
0

>  <i_i_glide_confnum>  (712) 
10

>  <i_i_glide_lignum>  (712) 
1450

>  <i_i_glide_posenum>  (712) 
19

>  <i_i_glide_rotatable_bonds>  (712) 
9

>  <i_lp_mmshare_version>  (712) 
65135

>  <i_m_ct_format>  (712) 
2

>  <i_m_source_file_index>  (712) 
3001

>  <i_qp_#NandO>  (712) 
5

>  <i_qp_#acid>  (712) 
0

>  <i_qp_#amide>  (712) 
0

>  <i_qp_#amidine>  (712) 
0

>  <i_qp_#amine>  (712) 
1

>  <i_qp_#in34>  (712) 
0

>  <i_qp_#in56>  (712) 
22

>  <i_qp_#metab>  (712) 
4

>  <i_qp_#nonHatm>  (712) 
33

>  <i_qp_#noncon>  (712) 
0

>  <i_qp_#ringatoms>  (712) 
22

>  <i_qp_#rotor>  (712) 
8

>  <i_qp_#rtvFG>  (712) 
0

>  <i_qp_#stars>  (712) 
2

>  <i_qp_CNS>  (712) 
-2

>  <i_qp_HumanOralAbsorption>  (712) 
3

>  <i_qp_RuleOfFive>  (712) 
0

>  <i_qp_RuleOfThree>  (712) 
1

>  <i_sd_BIOSOLVEIT.INFINISEE\_RESULT\_RANK>  (712) 
85710

>  <i_sd_version>  (712) 
0

>  <b_lp_Chiralities_Consistent>  (712) 
1

>  <b_sd_chiral_flag>  (712) 
0

>  <canonical_id>  (712) 
ATP-HTVS-6E87A6CCCD27

>  <compound_code>  (712) 
96001

>  <title>  (712) 
rxn503c____EMOL474653____EMOL44472687____EMOL1197208

>  <variant>  (712) 
96001-2

>  <source_file>  (712) 
运行/运行/ATP-VSW/ATP-VSW-DOCK_HTVS_1-001_lib/ATP-VSW-DOCK_HTVS_1-001_lib

>  <canonical_smiles>  (712) 
CC(=O)c1ccc(C(=O)Nc2cnc3ccccc3c2C#CC[NH2+]Cc2ccccc2)cc1

>  <scaffold>  (712) 
O=C(Nc1cnc2ccccc2c1C#CC[NH2+]Cc1ccccc1)c1ccccc1

>  <molecular_formula>  (712) 
C28H24N3O2+

$$$$
ATP-HTVS-6EB205788321
     RDKit          3D

 53 56  0  0  0  0  0  0  0  0999 V2000
  200.0348  182.4589  157.0436 O   0  0  0  0  0  0  0  0  0  0  0  0
  199.1395  182.9607  157.7047 C   0  0  0  0  0  0  0  0  0  0  0  0
  197.8822  182.8823  157.2667 N   0  0  0  0  0  0  0  0  0  0  0  0
  196.7765  183.4031  157.9745 C   0  0  0  0  0  0  0  0  0  0  0  0
  196.7833  184.7106  158.5651 C   0  0  0  0  0  0  0  0  0  0  0  0
  195.5860  185.1438  159.2142 C   0  0  0  0  0  0  0  0  0  0  0  0
  194.4686  184.3034  159.2923 C   0  0  0  0  0  0  0  0  0  0  0  0
  194.4856  183.0280  158.7224 C   0  0  0  0  0  0  0  0  0  0  0  0
  195.6524  182.5749  158.0733 C   0  0  0  0  0  0  0  0  0  0  0  0
  198.0351  185.6147  158.4272 C   0  0  2  0  0  0  0  0  0  0  0  0
  199.2545  185.1296  159.1406 N   0  0  0  0  0  0  0  0  0  0  0  0
  200.4768  185.9484  158.8554 C   0  0  1  0  0  0  0  0  0  0  0  0
  201.4491  186.0658  160.0560 C   0  0  0  0  0  0  0  0  0  0  0  0
  201.9599  187.3644  160.4411 C   0  0  0  0  0  0  0  0  0  0  0  0
  201.5550  188.5553  159.7846 N   0  0  0  0  0  0  0  0  0  0  0  0
  201.8028  189.8439  160.4148 C   0  0  2  0  0  0  0  0  0  0  0  0
  202.9136  187.4411  161.5064 C   0  0  0  0  0  0  0  0  0  0  0  0
  203.3528  186.2751  162.1789 C   0  0  0  0  0  0  0  0  0  0  0  0
  202.8232  185.0305  161.7921 C   0  0  0  0  0  0  0  0  0  0  0  0
  201.8719  184.9090  160.7573 C   0  0  0  0  0  0  0  0  0  0  0  0
  201.2076  185.5501  157.5493 C   0  0  2  0  0  0  0  0  0  0  0  0
  199.4849  183.6396  159.0524 C   0  0  1  0  0  0  0  0  0  0  0  0
  197.6994  187.0808  158.7543 C   0  0  0  0  0  0  0  0  0  0  0  0
  197.5789  188.0659  157.7557 C   0  0  0  0  0  0  0  0  0  0  0  0
  197.2403  189.4007  158.1055 C   0  0  0  0  0  0  0  0  0  0  0  0
  197.0211  189.7563  159.4442 C   0  0  0  0  0  0  0  0  0  0  0  0
  197.1543  188.7905  160.4621 C   0  0  0  0  0  0  0  0  0  0  0  0
  197.4741  187.4802  160.0663 C   0  0  0  0  0  0  0  0  0  0  0  0
  197.7147  182.2341  156.5001 H   0  0  0  0  0  0  0  0  0  0  0  0
  195.4259  186.1277  159.6287 H   0  0  0  0  0  0  0  0  0  0  0  0
  193.5885  184.7154  159.7564 H   0  0  0  0  0  0  0  0  0  0  0  0
  193.5972  182.4195  158.7300 H   0  0  0  0  0  0  0  0  0  0  0  0
  195.6726  181.5908  157.6228 H   0  0  0  0  0  0  0  0  0  0  0  0
  198.2747  185.6076  157.3627 H   0  0  0  0  0  0  0  0  0  0  0  0
  200.1788  186.9630  158.6390 H   0  0  0  0  0  0  0  0  0  0  0  0
  200.7348  188.5423  159.1892 H   0  0  0  0  0  0  0  0  0  0  0  0
  201.2029  190.6358  159.9424 H   0  0  0  0  0  0  0  0  0  0  0  0
  202.8587  190.1142  160.3188 H   0  0  0  0  0  0  0  0  0  0  0  0
  201.5408  189.8242  161.4781 H   0  0  0  0  0  0  0  0  0  0  0  0
  203.3340  188.3969  161.8277 H   0  0  0  0  0  0  0  0  0  0  0  0
  204.0633  186.3236  162.9998 H   0  0  0  0  0  0  0  0  0  0  0  0
  203.1205  184.1240  162.2771 H   0  0  0  0  0  0  0  0  0  0  0  0
  201.5727  183.9025  160.5926 H   0  0  0  0  0  0  0  0  0  0  0  0
  202.0344  186.2387  157.3169 H   0  0  0  0  0  0  0  0  0  0  0  0
  200.5015  185.5425  156.7010 H   0  0  0  0  0  0  0  0  0  0  0  0
  201.6764  184.5701  157.6265 H   0  0  0  0  0  0  0  0  0  0  0  0
  198.8833  183.1853  159.8705 H   0  0  0  0  0  0  0  0  0  0  0  0
  200.4800  183.3308  159.1972 H   0  0  0  0  0  0  0  0  0  0  0  0
  197.7192  187.7907  156.7104 H   0  0  0  0  0  0  0  0  0  0  0  0
  197.1441  190.1525  157.3314 H   0  0  0  0  0  0  0  0  0  0  0  0
  196.7225  190.7705  159.6996 H   0  0  0  0  0  0  0  0  0  0  0  0
  196.9548  189.0377  161.5001 H   0  0  0  0  0  0  0  0  0  0  0  0
  197.5467  186.7265  160.8575 H   0  0  0  0  0  0  0  0  0  0  0  0
  1  2  2  0
  2  3  1  0
  2 22  1  0
  3  4  1  0
  3 29  1  0
  4  5  1  0
  4  9  2  0
  5  6  2  0
  5 10  1  0
  6  7  1  0
  6 30  1  0
  7  8  2  0
  7 31  1  0
  8  9  1  0
  8 32  1  0
  9 33  1  0
 10 11  1  0
 10 23  1  0
 10 34  1  6
 11 12  1  0
 11 22  1  0
 12 13  1  0
 12 21  1  0
 12 35  1  6
 13 14  1  0
 13 20  2  0
 14 15  1  0
 14 17  2  0
 15 16  1  0
 15 36  1  0
 16 37  1  6
 16 38  1  0
 16 39  1  0
 17 18  1  0
 17 40  1  0
 18 19  2  0
 18 41  1  0
 19 20  1  0
 19 42  1  0
 20 43  1  0
 21 44  1  6
 21 45  1  0
 21 46  1  0
 22 47  1  1
 22 48  1  0
 23 24  2  0
 23 28  1  0
 24 25  1  0
 24 49  1  0
 25 26  2  0
 25 50  1  0
 26 27  1  0
 26 51  1  0
 27 28  2  0
 27 52  1  0
 28 53  1  0
M  END
>  <s_epik_cmdline>  (713) 
J2VwaWtfcHl0aG9uJywgJy1waCcsICc3LjAwMDAwMCcsICctcGh0JywgJzIuMDAwMDAwJywgJy1tcycsICcxNicsICctdG4nLCAnOCcsICctbWEnLCAnMjAwJywgJy1pbWFlJywgJzxpbmZpbGUubWFlPicsICctb21hZScsICc8b3V0ZmlsZS5tYWU+Jw==

>  <s_epik_input>  (713) 
W2NIXTFbY0hdW2NIXVtjSF1bY0hdYzFbQ0BIXShjKGMyMylbY0hdW2NIXVtjSF1bY0hdMylOKFtDSDJdQyg9TylbTkhdMilbQ0BIXShbQ0gzXSljNGMoW05IXVtDSDNdKVtjSF1bY0hdW2NIXVtjSF00

>  <s_i_glide_gridfile>  (713) 
ATP-Grid

>  <s_lp_Force_Field>  (713) 
OPLS_2005

>  <s_lp_Variant>  (713) 
rxn207____EMOL44457831____EMOL6185419-1

>  <s_lp_label>  (713) 
2202_sdstereoexpander_1_neutralizer_1_epik_1_stereoizer_1

>  <s_m_source_file>  (713) 
ATP-VSW-LIGPREP-002-in.maegz

>  <s_sd_BIOSOLVEIT.INFINISEE\_QUERY\_NAME>  (713) 
Ref-Lig

>  <s_sd_BIOSOLVEIT.INFINISEE\_QUERY\_SMILES>  (713) 
S(c1nc2c(cc1C[NH2+]Cc3ccc(cc3)C[NH+](C)C)cccc2)Cc4ccccc4

>  <s_sd_BIOSOLVEIT.INFINISEE\_REACTION\_NAME>  (713) 
rxn207

>  <s_sd_BIOSOLVEIT.INFINISEE\_REAGENT1\_NAME>  (713) 
EMOL44457831

>  <s_sd_BIOSOLVEIT.INFINISEE\_REAGENT1\_SMILES>  (713) 
O=C(c1c(NC)cccc1)C

>  <s_sd_BIOSOLVEIT.INFINISEE\_REAGENT2\_NAME>  (713) 
EMOL6185419

>  <s_sd_BIOSOLVEIT.INFINISEE\_REAGENT2\_SMILES>  (713) 
O=C1Nc2c(cccc2)C(NC1)c3ccccc3

>  <s_sd_BIOSOLVEIT.INFINISEE\_SPACE>  (713) 
eXplore_7tr_2022-12

>  <s_vsw_compound_code>  (713) 
70434

>  <s_vsw_variant>  (713) 
70434-1

>  <r_epik_Charging_Adjusted_Penalty>  (713) 
0.015067901314457699

>  <r_epik_Ionization_Penalty>  (713) 
0.018800000000000001

>  <r_epik_Ionization_Penalty_Charging>  (713) 
0

>  <r_epik_Ionization_Penalty_Neutral>  (713) 
0.018800000000000001

>  <r_epik_State_Penalty>  (713) 
0.015100000000000001

>  <r_i_docking_score>  (713) 
-1.6075234958262501

>  <r_i_glide_ecoul>  (713) 
-1.55255663394928

>  <r_i_glide_eff_state_penalty>  (713) 
0.015100000000000001

>  <r_i_glide_einternal>  (713) 
1.8894411325454701

>  <r_i_glide_emodel>  (713) 
-31.214635745314698

>  <r_i_glide_energy>  (713) 
-29.128629326820398

>  <r_i_glide_erotb>  (713) 
0.41966185557728902

>  <r_i_glide_esite>  (713) 
-0.037056924247376298

>  <r_i_glide_evdw>  (713) 
-27.576072692871101

>  <r_i_glide_gscore>  (713) 
-1.62262349582625

>  <r_i_glide_hbond>  (713) 
0

>  <r_i_glide_ligand_efficiency>  (713) 
-0.057411553422366202

>  <r_i_glide_ligand_efficiency_ln>  (713) 
-0.371063621777459

>  <r_i_glide_ligand_efficiency_sa>  (713) 
-0.174335289786967

>  <r_i_glide_lipo>  (713) 
-1.3556313434313301

>  <r_i_glide_metal>  (713) 
-0

>  <r_i_glide_rewards>  (713) 
0.96209004601110804

>  <r_lp_Energy>  (713) 
44.506838999999999

>  <r_qp_ACxDN^.5/SA>  (713) 
0.012551400000000001

>  <r_qp_CIQPlogS>  (713) 
-4.4139999999999997

>  <r_qp_EA(eV)>  (713) 
0.41699999999999998

>  <r_qp_FISA>  (713) 
67.738

>  <r_qp_FOSA>  (713) 
142.297

>  <r_qp_IP(eV)>  (713) 
8.2309999999999999

>  <r_qp_Jm>  (713) 
0.044282660686787101

>  <r_qp_PISA>  (713) 
409.67200000000003

>  <r_qp_PSA>  (713) 
51.548000000000002

>  <r_qp_PercentHumanOralAbsorption>  (713) 
100

>  <r_qp_QPPCaco>  (713) 
562.91300000000001

>  <r_qp_QPPMDCK>  (713) 
294.09399999999999

>  <r_qp_QPlogBB>  (713) 
0.182

>  <r_qp_QPlogHERG>  (713) 
-6.3479999999999999

>  <r_qp_QPlogKhsa>  (713) 
0.59899999999999998

>  <r_qp_QPlogKp>  (713) 
-3.0990000000000002

>  <r_qp_QPlogPC16>  (713) 
12.974

>  <r_qp_QPlogPo/w>  (713) 
3.71

>  <r_qp_QPlogPoct>  (713) 
20.431000000000001

>  <r_qp_QPlogPw>  (713) 
12.143000000000001

>  <r_qp_QPlogS>  (713) 
-3.8239999999999998

>  <r_qp_QPpolrz>  (713) 
42.774999999999999

>  <r_qp_SASA>  (713) 
619.70600000000002

>  <r_qp_SAamideO>  (713) 
0

>  <r_qp_SAfluorine>  (713) 
0

>  <r_qp_WPSA>  (713) 
0

>  <r_qp_accptHB>  (713) 
5.5

>  <r_qp_dip^2/V>  (713) 
0.017177000000000001

>  <r_qp_dipole>  (713) 
4.4889999999999999

>  <r_qp_donorHB>  (713) 
2

>  <r_qp_glob>  (713) 
0.86797800000000003

>  <r_qp_mol_MW>  (713) 
371.48099999999999

>  <r_qp_volume>  (713) 
1172.99

>  <r_sd_BIOSOLVEIT.INFINISEE\_FTREES\_SIMILARITY>  (713) 
0.93200000000000005

>  <r_sd_BIOSOLVEIT.LOGP>  (713) 
3.4159000000000002

>  <r_sd_BIOSOLVEIT.MOLECULAR\_WEIGHT>  (713) 
372.48899999999998

>  <r_sd_BIOSOLVEIT.TPSA>  (713) 
45.57

>  <i_epik_Tot_Q>  (713) 
0

>  <i_epik_Tot_abs_Q>  (713) 
0

>  <i_f3d_flags>  (713) 
0

>  <i_i_glide_confnum>  (713) 
3

>  <i_i_glide_lignum>  (713) 
835

>  <i_i_glide_posenum>  (713) 
1

>  <i_i_glide_rotatable_bonds>  (713) 
4

>  <i_lp_mmshare_version>  (713) 
65135

>  <i_m_ct_format>  (713) 
2

>  <i_m_source_file_index>  (713) 
2202

>  <i_qp_#NandO>  (713) 
4

>  <i_qp_#acid>  (713) 
0

>  <i_qp_#amide>  (713) 
0

>  <i_qp_#amidine>  (713) 
0

>  <i_qp_#amine>  (713) 
1

>  <i_qp_#in34>  (713) 
0

>  <i_qp_#in56>  (713) 
18

>  <i_qp_#metab>  (713) 
11

>  <i_qp_#nonHatm>  (713) 
28

>  <i_qp_#noncon>  (713) 
2

>  <i_qp_#ringatoms>  (713) 
23

>  <i_qp_#rotor>  (713) 
3

>  <i_qp_#rtvFG>  (713) 
0

>  <i_qp_#stars>  (713) 
1

>  <i_qp_CNS>  (713) 
1

>  <i_qp_HumanOralAbsorption>  (713) 
1

>  <i_qp_RuleOfFive>  (713) 
0

>  <i_qp_RuleOfThree>  (713) 
1

>  <i_sd_BIOSOLVEIT.INFINISEE\_RESULT\_RANK>  (713) 
3918

>  <i_sd_version>  (713) 
0

>  <b_lp_Chiralities_Consistent>  (713) 
1

>  <b_sd_chiral_flag>  (713) 
0

>  <canonical_id>  (713) 
ATP-HTVS-6EB205788321

>  <compound_code>  (713) 
70434

>  <title>  (713) 
rxn207____EMOL44457831____EMOL6185419

>  <variant>  (713) 
70434-1

>  <source_file>  (713) 
运行/运行/ATP-VSW/ATP-VSW-DOCK_HTVS_1-002_lib.maegz

>  <canonical_smiles>  (713) 
CNc1ccccc1[C@@H](C)N1CC(=O)Nc2ccccc2[C@H]1c1ccccc1

>  <scaffold>  (713) 
O=C1CN(Cc2ccccc2)C(c2ccccc2)c2ccccc2N1

>  <molecular_formula>  (713) 
C24H25N3O

$$$$
ATP-HTVS-6EF9F712D3BB
     RDKit          3D

 53 55  0  0  0  0  0  0  0  0999 V2000
  198.4147  185.3984  147.0090 Br  0  0  0  0  0  0  0  0  0  0  0  0
  197.9063  184.1274  148.3282 C   0  0  0  0  0  0  0  0  0  0  0  0
  196.7843  184.3670  149.1511 C   0  0  0  0  0  0  0  0  0  0  0  0
  196.3964  183.4158  150.1121 C   0  0  0  0  0  0  0  0  0  0  0  0
  197.1528  182.2330  150.2814 C   0  0  0  0  0  0  0  0  0  0  0  0
  196.7957  181.2972  151.2115 O   0  0  0  0  0  0  0  0  0  0  0  0
  196.9146  181.5832  152.5511 C   0  0  0  0  0  0  0  0  0  0  0  0
  196.7502  180.5054  153.3510 N   0  0  0  0  0  0  0  0  0  0  0  0
  196.7950  180.6792  154.6864 C   0  0  0  0  0  0  0  0  0  0  0  0
  196.9925  181.9404  155.2808 C   0  0  0  0  0  0  0  0  0  0  0  0
  197.1611  183.0630  154.4521 C   0  0  0  0  0  0  0  0  0  0  0  0
  197.1519  182.8851  153.0644 C   0  0  0  0  0  0  0  0  0  0  0  0
  197.0437  182.1022  156.7755 C   0  0  1  0  0  0  0  0  0  0  0  0
  195.7359  181.8361  157.4119 N   0  0  1  0  0  0  0  0  0  0  0  0
  195.7299  182.0049  158.8813 C   0  0  1  0  0  0  0  0  0  0  0  0
  195.9670  183.4473  159.3055 C   0  0  0  0  0  0  0  0  0  0  0  0
  197.2840  183.9448  159.4211 C   0  0  0  0  0  0  0  0  0  0  0  0
  197.5012  185.2978  159.7328 C   0  0  0  0  0  0  0  0  0  0  0  0
  196.4089  186.1577  159.9870 C   0  0  0  0  0  0  0  0  0  0  0  0
  195.0994  185.6472  159.9180 C   0  0  0  0  0  0  0  0  0  0  0  0
  194.8757  184.3004  159.5659 C   0  0  0  0  0  0  0  0  0  0  0  0
  196.6528  187.6231  160.3255 C   0  0  1  0  0  0  0  0  0  0  0  0
  196.7473  188.4994  159.1267 N   0  0  1  0  0  0  0  0  0  0  0  0
  196.7964  189.9281  159.5083 C   0  0  2  0  0  0  0  0  0  0  0  0
  197.8522  188.1510  158.1966 C   0  0  2  0  0  0  0  0  0  0  0  0
  198.2725  181.9976  149.4575 C   0  0  0  0  0  0  0  0  0  0  0  0
  198.6504  182.9451  148.4887 C   0  0  0  0  0  0  0  0  0  0  0  0
  194.9987  182.3614  156.9605 H   0  0  0  0  0  0  0  0  0  0  0  0
  196.2161  185.2770  149.0282 H   0  0  0  0  0  0  0  0  0  0  0  0
  195.5205  183.5827  150.7204 H   0  0  0  0  0  0  0  0  0  0  0  0
  196.6633  179.8025  155.3069 H   0  0  0  0  0  0  0  0  0  0  0  0
  197.3029  184.0533  154.8626 H   0  0  0  0  0  0  0  0  0  0  0  0
  197.2848  183.7625  152.4526 H   0  0  0  0  0  0  0  0  0  0  0  0
  197.8084  181.4402  157.1854 H   0  0  0  0  0  0  0  0  0  0  0  0
  197.3612  183.1317  156.9508 H   0  0  0  0  0  0  0  0  0  0  0  0
  194.7677  181.6530  159.2595 H   0  0  0  0  0  0  0  0  0  0  0  0
  196.4857  181.3519  159.3244 H   0  0  0  0  0  0  0  0  0  0  0  0
  198.1334  183.3058  159.2358 H   0  0  0  0  0  0  0  0  0  0  0  0
  198.5126  185.6730  159.7814 H   0  0  0  0  0  0  0  0  0  0  0  0
  194.2506  186.2871  160.1042 H   0  0  0  0  0  0  0  0  0  0  0  0
  193.8607  183.9364  159.4747 H   0  0  0  0  0  0  0  0  0  0  0  0
  195.8332  187.9688  160.9575 H   0  0  0  0  0  0  0  0  0  0  0  0
  197.5471  187.7220  160.9314 H   0  0  0  0  0  0  0  0  0  0  0  0
  197.6970  190.1499  160.0854 H   0  0  0  0  0  0  0  0  0  0  0  0
  195.9318  190.1996  160.1172 H   0  0  0  0  0  0  0  0  0  0  0  0
  196.7905  190.5669  158.6233 H   0  0  0  0  0  0  0  0  0  0  0  0
  198.8178  188.2041  158.7018 H   0  0  0  0  0  0  0  0  0  0  0  0
  197.8778  188.8357  157.3460 H   0  0  0  0  0  0  0  0  0  0  0  0
  197.7338  187.1492  157.7846 H   0  0  0  0  0  0  0  0  0  0  0  0
  198.8463  181.0854  149.5741 H   0  0  0  0  0  0  0  0  0  0  0  0
  199.5165  182.7634  147.8663 H   0  0  0  0  0  0  0  0  0  0  0  0
  195.8869  188.3736  158.6140 H   0  0  0  0  0  0  0  0  0  0  0  0
  195.5411  180.8386  157.2879 H   0  0  0  0  0  0  0  0  0  0  0  0
  1  2  1  0
  2  3  1  0
  2 27  2  0
  3  4  2  0
  3 29  1  0
  4  5  1  0
  4 30  1  0
  5  6  1  0
  5 26  2  0
  6  7  1  0
  7  8  1  0
  7 12  2  0
  8  9  2  0
  9 10  1  0
  9 31  1  0
 10 11  2  0
 10 13  1  0
 11 12  1  0
 11 32  1  0
 12 33  1  0
 13 14  1  0
 13 34  1  1
 13 35  1  0
 14 15  1  0
 14 28  1  6
 14 53  1  0
 15 16  1  0
 15 36  1  1
 15 37  1  0
 16 17  1  0
 16 21  2  0
 17 18  2  0
 17 38  1  0
 18 19  1  0
 18 39  1  0
 19 20  2  0
 19 22  1  0
 20 21  1  0
 20 40  1  0
 21 41  1  0
 22 23  1  0
 22 42  1  1
 22 43  1  0
 23 24  1  0
 23 25  1  0
 23 52  1  6
 24 44  1  1
 24 45  1  0
 24 46  1  0
 25 47  1  1
 25 48  1  0
 25 49  1  0
 26 27  1  0
 26 50  1  0
 27 51  1  0
M  CHG  2  14   1  23   1
M  END
>  <s_epik_cmdline>  (714) 
J2VwaWtfcHl0aG9uJywgJy1waCcsICc3LjAwMDAwMCcsICctcGh0JywgJzIuMDAwMDAwJywgJy1tcycsICcxNicsICctdG4nLCAnOCcsICctbWEnLCAnMjAwJywgJy1pbWFlJywgJzxpbmZpbGUubWFlPicsICctb21hZScsICc8b3V0ZmlsZS5tYWU+Jw==

>  <s_epik_input>  (714) 
QnJjMVtjSF1bY0hdYyhbY0hdW2NIXTEpT2MybltjSF1jKFtjSF1bY0hdMilbQ0gyXVtOSF1bQ0gyXWMzW2NIXVtjSF1jKFtjSF1bY0hdMylbQ0gyXU4oW0NIM10pW0NIM10=

>  <s_i_glide_gridfile>  (714) 
ATP-Grid

>  <s_lp_Force_Field>  (714) 
OPLS_2005

>  <s_lp_Variant>  (714) 
m_270004bbb____8288884____20640242-1

>  <s_lp_label>  (714) 
1197_sdstereoexpander_1_neutralizer_1_epik_1_stereoizer_1

>  <s_m_source_file>  (714) 
ATP-VSW-LIGPREP-002-in.maegz

>  <s_sd_BIOSOLVEIT.INFINISEE\_QUERY\_NAME>  (714) 
Ref-Lig

>  <s_sd_BIOSOLVEIT.INFINISEE\_QUERY\_SMILES>  (714) 
S(c1nc2c(cc1C[NH2+]Cc3ccc(cc3)C[NH+](C)C)cccc2)Cc4ccccc4

>  <s_sd_BIOSOLVEIT.INFINISEE\_REACTION\_NAME>  (714) 
m_270004bbb

>  <s_sd_BIOSOLVEIT.INFINISEE\_REAGENT1\_SMILES>  (714) 
[R1*]NCc1ccc(cc1)CN(C)C

>  <s_sd_BIOSOLVEIT.INFINISEE\_REAGENT2\_SMILES>  (714) 
[R1*]Cc1cnc(Oc2ccc(Br)cc2)cc1

>  <s_sd_BIOSOLVEIT.INFINISEE\_SPACE>  (714) 
REALSpace_44bn_2023-08

>  <s_vsw_compound_code>  (714) 
38274

>  <s_vsw_variant>  (714) 
38274-1

>  <r_epik_Charging_Adjusted_Penalty>  (714) 
0.42394423779197299

>  <r_epik_Ionization_Penalty>  (714) 
0.20999999999999999

>  <r_epik_Ionization_Penalty_Charging>  (714) 
0.20999999999999999

>  <r_epik_Ionization_Penalty_Neutral>  (714) 
0

>  <r_epik_State_Penalty>  (714) 
0.214

>  <r_i_docking_score>  (714) 
-6.27229934947262

>  <r_i_glide_ecoul>  (714) 
-12.959820747375501

>  <r_i_glide_eff_state_penalty>  (714) 
0.214

>  <r_i_glide_einternal>  (714) 
2.0179190635681201

>  <r_i_glide_emodel>  (714) 
-79.270718719398204

>  <r_i_glide_energy>  (714) 
-48.894360542297399

>  <r_i_glide_erotb>  (714) 
0.75773174054959602

>  <r_i_glide_esite>  (714) 
-0.10000000000000001

>  <r_i_glide_evdw>  (714) 
-35.934539794921903

>  <r_i_glide_gscore>  (714) 
-6.4862993494726204

>  <r_i_glide_hbond>  (714) 
-0.40000000000000002

>  <r_i_glide_ligand_efficiency>  (714) 
-0.23230738331380099

>  <r_i_glide_ligand_efficiency_ln>  (714) 
-1.4600878816207601

>  <r_i_glide_ligand_efficiency_sa>  (714) 
-0.69692214917575501

>  <r_i_glide_lipo>  (714) 
-2.28991285180616

>  <r_i_glide_metal>  (714) 
-0

>  <r_i_glide_rewards>  (714) 
-0.71341813636363605

>  <r_lp_Energy>  (714) 
17.776261000000002

>  <r_lp_tautomer_probability>  (714) 
1

>  <r_qp_ACxDN^.5/SA>  (714) 
0.0066769000000000004

>  <r_qp_CIQPlogS>  (714) 
-4.8730000000000002

>  <r_qp_EA(eV)>  (714) 
0.435

>  <r_qp_FISA>  (714) 
37.649000000000001

>  <r_qp_FOSA>  (714) 
250.80000000000001

>  <r_qp_IP(eV)>  (714) 
9.0690000000000008

>  <r_qp_Jm>  (714) 
0.00057121106428761903

>  <r_qp_PISA>  (714) 
383.01299999999998

>  <r_qp_PSA>  (714) 
39.448

>  <r_qp_PercentHumanOralAbsorption>  (714) 
100

>  <r_qp_QPPCaco>  (714) 
270.81400000000002

>  <r_qp_QPPMDCK>  (714) 
391.596

>  <r_qp_QPlogBB>  (714) 
0.64500000000000002

>  <r_qp_QPlogHERG>  (714) 
-8.532

>  <r_qp_QPlogKhsa>  (714) 
0.82499999999999996

>  <r_qp_QPlogKp>  (714) 
-4.2210000000000001

>  <r_qp_QPlogPC16>  (714) 
14.208

>  <r_qp_QPlogPo/w>  (714) 
4.7800000000000002

>  <r_qp_QPlogPoct>  (714) 
18.809000000000001

>  <r_qp_QPlogPw>  (714) 
9.0350000000000001

>  <r_qp_QPlogS>  (714) 
-4.6520000000000001

>  <r_qp_QPpolrz>  (714) 
44.472999999999999

>  <r_qp_SASA>  (714) 
748.85199999999998

>  <r_qp_SAamideO>  (714) 
0

>  <r_qp_SAfluorine>  (714) 
0

>  <r_qp_WPSA>  (714) 
77.390000000000001

>  <r_qp_accptHB>  (714) 
5

>  <r_qp_dip^2/V>  (714) 
0.0059160000000000003

>  <r_qp_dipole>  (714) 
2.7749999999999999

>  <r_qp_donorHB>  (714) 
1

>  <r_qp_glob>  (714) 
0.77003739999999998

>  <r_qp_mol_MW>  (714) 
426.35500000000002

>  <r_qp_volume>  (714) 
1302.01

>  <r_sd_BIOSOLVEIT.INFINISEE\_FTREES\_SIMILARITY>  (714) 
0.91100000000000003

>  <r_sd_BIOSOLVEIT.LOGP>  (714) 
2.5445000000000002

>  <r_sd_BIOSOLVEIT.MOLECULAR\_WEIGHT>  (714) 
428.37099999999998

>  <r_sd_BIOSOLVEIT.TPSA>  (714) 
43.170000000000002

>  <i_epik_Tot_Q>  (714) 
2

>  <i_epik_Tot_abs_Q>  (714) 
2

>  <i_f3d_flags>  (714) 
0

>  <i_i_glide_confnum>  (714) 
1

>  <i_i_glide_lignum>  (714) 
413

>  <i_i_glide_posenum>  (714) 
9

>  <i_i_glide_rotatable_bonds>  (714) 
8

>  <i_lp_mmshare_version>  (714) 
65135

>  <i_m_ct_format>  (714) 
2

>  <i_m_source_file_index>  (714) 
1197

>  <i_qp_#NandO>  (714) 
4

>  <i_qp_#acid>  (714) 
0

>  <i_qp_#amide>  (714) 
0

>  <i_qp_#amidine>  (714) 
0

>  <i_qp_#amine>  (714) 
2

>  <i_qp_#in34>  (714) 
0

>  <i_qp_#in56>  (714) 
18

>  <i_qp_#metab>  (714) 
6

>  <i_qp_#nonHatm>  (714) 
27

>  <i_qp_#noncon>  (714) 
0

>  <i_qp_#ringatoms>  (714) 
18

>  <i_qp_#rotor>  (714) 
8

>  <i_qp_#rtvFG>  (714) 
0

>  <i_qp_#stars>  (714) 
0

>  <i_qp_CNS>  (714) 
2

>  <i_qp_HumanOralAbsorption>  (714) 
3

>  <i_qp_RuleOfFive>  (714) 
0

>  <i_qp_RuleOfThree>  (714) 
0

>  <i_sd_BIOSOLVEIT.INFINISEE\_REAGENT1\_NAME>  (714) 
8288884

>  <i_sd_BIOSOLVEIT.INFINISEE\_REAGENT2\_NAME>  (714) 
20640242

>  <i_sd_BIOSOLVEIT.INFINISEE\_RESULT\_RANK>  (714) 
39995

>  <i_sd_version>  (714) 
0

>  <b_lp_Chiralities_Consistent>  (714) 
1

>  <b_sd_chiral_flag>  (714) 
0

>  <canonical_id>  (714) 
ATP-HTVS-6EF9F712D3BB

>  <compound_code>  (714) 
38274

>  <title>  (714) 
m_270004bbb____8288884____20640242

>  <variant>  (714) 
38274-1

>  <source_file>  (714) 
运行/运行/ATP-VSW/ATP-VSW-DOCK_HTVS_1-002_lib.maegz

>  <canonical_smiles>  (714) 
C[NH+](C)Cc1ccc(C[NH2+]Cc2ccc(Oc3ccc(Br)cc3)nc2)cc1

>  <scaffold>  (714) 
c1ccc(C[NH2+]Cc2ccc(Oc3ccccc3)nc2)cc1

>  <molecular_formula>  (714) 
C22H26BrN3O+2

$$$$
ATP-HTVS-6F05C87B1F67
     RDKit          3D

 67 70  0  0  0  0  0  0  0  0999 V2000
  194.9425  186.6856  160.5322 O   0  0  0  0  0  0  0  0  0  0  0  0
  196.1499  186.7554  160.3100 C   0  0  0  0  0  0  0  0  0  0  0  0
  196.8971  187.8669  160.5181 O   0  0  0  0  0  0  0  0  0  0  0  0
  196.2675  189.0554  160.9437 C   0  0  2  0  0  0  0  0  0  0  0  0
  196.9642  185.5522  159.8052 C   0  0  1  0  0  0  0  0  0  0  0  0
  196.1525  184.3321  159.3435 C   0  0  0  0  0  0  0  0  0  0  0  0
  194.8075  184.4428  158.9163 C   0  0  0  0  0  0  0  0  0  0  0  0
  194.0763  183.3017  158.5321 C   0  0  0  0  0  0  0  0  0  0  0  0
  194.6795  182.0281  158.5341 C   0  0  0  0  0  0  0  0  0  0  0  0
  196.0261  181.9092  158.9342 C   0  0  0  0  0  0  0  0  0  0  0  0
  196.7559  183.0467  159.3365 C   0  0  0  0  0  0  0  0  0  0  0  0
  197.9654  185.9694  158.7184 C   0  0  0  0  0  0  0  0  0  0  0  0
  199.1614  185.7196  158.8774 O   0  0  0  0  0  0  0  0  0  0  0  0
  197.4752  186.5667  157.6183 N   0  0  0  0  0  0  0  0  0  0  0  0
  198.2444  187.0777  156.5391 C   0  0  0  0  0  0  0  0  0  0  0  0
  198.8534  186.2225  155.5834 C   0  0  0  0  0  0  0  0  0  0  0  0
  198.6882  184.8407  155.7100 N   0  0  0  0  0  0  0  0  0  0  0  0
  197.9536  184.1862  154.6323 C   0  0  1  0  0  0  0  0  0  0  0  0
  197.8178  182.6924  154.8222 C   0  0  0  0  0  0  0  0  0  0  0  0
  198.6080  181.9791  155.7566 C   0  0  0  0  0  0  0  0  0  0  0  0
  198.4413  180.5907  155.9248 C   0  0  0  0  0  0  0  0  0  0  0  0
  197.4297  179.9326  155.1922 C   0  0  0  0  0  0  0  0  0  0  0  0
  196.7028  180.6181  154.2063 C   0  0  0  0  0  0  0  0  0  0  0  0
  196.8923  181.9952  154.0235 C   0  0  0  0  0  0  0  0  0  0  0  0
  199.3373  179.8290  156.8950 C   0  0  1  0  0  0  0  0  0  0  0  0
  200.1572  178.7536  156.2577 N   0  0  1  0  0  0  0  0  0  0  0  0
  199.3975  177.7597  155.4591 C   0  0  2  0  0  0  0  0  0  0  0  0
  201.3013  179.2851  155.4841 C   0  0  2  0  0  0  0  0  0  0  0  0
  199.5845  186.8101  154.5145 C   0  0  0  0  0  0  0  0  0  0  0  0
  199.6199  188.2257  154.4117 C   0  0  0  0  0  0  0  0  0  0  0  0
  199.0238  189.0263  155.3273 N   0  0  0  0  0  0  0  0  0  0  0  0
  198.3688  188.4648  156.3623 C   0  0  0  0  0  0  0  0  0  0  0  0
  200.3153  188.8147  153.3322 C   0  0  0  0  0  0  0  0  0  0  0  0
  200.9824  188.0228  152.3748 C   0  0  0  0  0  0  0  0  0  0  0  0
  200.9710  186.6237  152.4986 C   0  0  0  0  0  0  0  0  0  0  0  0
  200.2931  186.0196  153.5712 C   0  0  0  0  0  0  0  0  0  0  0  0
  197.0067  189.8373  161.1309 H   0  0  0  0  0  0  0  0  0  0  0  0
  195.6930  188.8717  161.8524 H   0  0  0  0  0  0  0  0  0  0  0  0
  195.5752  189.3819  160.1676 H   0  0  0  0  0  0  0  0  0  0  0  0
  197.5264  185.2146  160.6683 H   0  0  0  0  0  0  0  0  0  0  0  0
  194.3534  185.4210  158.8535 H   0  0  0  0  0  0  0  0  0  0  0  0
  193.0547  183.4060  158.1990 H   0  0  0  0  0  0  0  0  0  0  0  0
  194.1207  181.1505  158.2132 H   0  0  0  0  0  0  0  0  0  0  0  0
  196.4992  180.9407  158.9394 H   0  0  0  0  0  0  0  0  0  0  0  0
  197.7836  182.9204  159.6541 H   0  0  0  0  0  0  0  0  0  0  0  0
  196.4826  186.7416  157.5908 H   0  0  0  0  0  0  0  0  0  0  0  0
  198.3222  184.5916  156.6203 H   0  0  0  0  0  0  0  0  0  0  0  0
  196.9518  184.6221  154.5511 H   0  0  0  0  0  0  0  0  0  0  0  0
  198.4437  184.3068  153.6654 H   0  0  0  0  0  0  0  0  0  0  0  0
  199.3715  182.4892  156.3423 H   0  0  0  0  0  0  0  0  0  0  0  0
  197.2492  178.8648  155.3521 H   0  0  0  0  0  0  0  0  0  0  0  0
  195.9959  180.0955  153.5921 H   0  0  0  0  0  0  0  0  0  0  0  0
  196.3046  182.5379  153.2766 H   0  0  0  0  0  0  0  0  0  0  0  0
  200.0223  180.5296  157.3696 H   0  0  0  0  0  0  0  0  0  0  0  0
  198.7455  179.4803  157.7246 H   0  0  0  0  0  0  0  0  0  0  0  0
  198.9243  178.2288  154.6070 H   0  0  0  0  0  0  0  0  0  0  0  0
  198.5784  177.3798  156.0731 H   0  0  0  0  0  0  0  0  0  0  0  0
  200.0180  176.8961  155.1921 H   0  0  0  0  0  0  0  0  0  0  0  0
  200.9475  179.8953  154.6539 H   0  0  0  0  0  0  0  0  0  0  0  0
  201.8940  178.4663  155.0743 H   0  0  0  0  0  0  0  0  0  0  0  0
  201.9568  179.8935  156.1073 H   0  0  0  0  0  0  0  0  0  0  0  0
  197.8965  189.1471  157.0527 H   0  0  0  0  0  0  0  0  0  0  0  0
  200.3534  189.8901  153.2485 H   0  0  0  0  0  0  0  0  0  0  0  0
  201.5245  188.4863  151.5610 H   0  0  0  0  0  0  0  0  0  0  0  0
  201.4917  186.0047  151.7803 H   0  0  0  0  0  0  0  0  0  0  0  0
  200.3426  184.9453  153.6671 H   0  0  0  0  0  0  0  0  0  0  0  0
  200.5616  178.2486  157.0402 H   0  0  0  0  0  0  0  0  0  0  0  0
  1  2  2  0
  2  3  1  0
  2  5  1  0
  3  4  1  0
  4 37  1  1
  4 38  1  0
  4 39  1  0
  5  6  1  0
  5 12  1  0
  5 40  1  1
  6  7  2  0
  6 11  1  0
  7  8  1  0
  7 41  1  0
  8  9  2  0
  8 42  1  0
  9 10  1  0
  9 43  1  0
 10 11  2  0
 10 44  1  0
 11 45  1  0
 12 13  2  0
 12 14  1  0
 14 15  1  0
 14 46  1  0
 15 16  2  0
 15 32  1  0
 16 17  1  0
 16 29  1  0
 17 18  1  0
 17 47  1  0
 18 19  1  0
 18 48  1  6
 18 49  1  0
 19 20  2  0
 19 24  1  0
 20 21  1  0
 20 50  1  0
 21 22  2  0
 21 25  1  0
 22 23  1  0
 22 51  1  0
 23 24  2  0
 23 52  1  0
 24 53  1  0
 25 26  1  0
 25 54  1  1
 25 55  1  0
 26 27  1  0
 26 28  1  0
 26 67  1  1
 27 56  1  6
 27 57  1  0
 27 58  1  0
 28 59  1  6
 28 60  1  0
 28 61  1  0
 29 30  1  0
 29 36  2  0
 30 31  1  0
 30 33  2  0
 31 32  2  0
 32 62  1  0
 33 34  1  0
 33 63  1  0
 34 35  2  0
 34 64  1  0
 35 36  1  0
 35 65  1  0
 36 66  1  0
M  CHG  1  26   1
M  END
>  <s_epik_Chemistry_Notes>  (715) 
This compound has an ester and may undergo hydrolysis at high or low pH.

>  <s_epik_cmdline>  (715) 
J2VwaWtfcHl0aG9uJywgJy1waCcsICc3LjAwMDAwMCcsICctcGh0JywgJzIuMDAwMDAwJywgJy1tcycsICcxNicsICctdG4nLCAnOCcsICctbWEnLCAnMjAwJywgJy1pbWFlJywgJzxpbmZpbGUubWFlPicsICctb21hZScsICc8b3V0ZmlsZS5tYWU+Jw==

>  <s_epik_input>  (715) 
W2NIXTFbY0hdW2NIXVtjSF1bY0hdYzFbQ0BIXShDKD1PKU9bQ0gzXSlDKD1PKVtOSF1jKFtjSF1uYyhjMjMpW2NIXVtjSF1bY0hdW2NIXTMpYzJbTkhdW0NIMl1jNFtjSF1jKFtjSF1bY0hdW2NIXTQpW0NIMl1OKFtDSDNdKVtDSDNd

>  <s_i_glide_gridfile>  (715) 
ATP-Grid

>  <s_lp_Force_Field>  (715) 
OPLS_2005

>  <s_lp_Variant>  (715) 
rxn502b____EMOL5809732____EMOL30488121____EMOL2873214-6

>  <s_lp_label>  (715) 
2213_sdstereoexpander_2_neutralizer_1_epik_4_stereoizer_1

>  <s_m_source_file>  (715) 
ATP-VSW-LIGPREP-001-in.maegz

>  <s_sd_BIOSOLVEIT.INFINISEE\_QUERY\_NAME>  (715) 
Ref-Lig

>  <s_sd_BIOSOLVEIT.INFINISEE\_QUERY\_SMILES>  (715) 
S(c1nc2c(cc1C[NH2+]Cc3ccc(cc3)C[NH+](C)C)cccc2)Cc4ccccc4

>  <s_sd_BIOSOLVEIT.INFINISEE\_REACTION\_NAME>  (715) 
rxn502b

>  <s_sd_BIOSOLVEIT.INFINISEE\_REAGENT1\_NAME>  (715) 
EMOL5809732

>  <s_sd_BIOSOLVEIT.INFINISEE\_REAGENT1\_SMILES>  (715) 
O=C(OC)C(c1ccccc1)C(=O)O

>  <s_sd_BIOSOLVEIT.INFINISEE\_REAGENT2\_NAME>  (715) 
EMOL30488121

>  <s_sd_BIOSOLVEIT.INFINISEE\_REAGENT2\_SMILES>  (715) 
Brc1c(N)cnc2c1cccc2

>  <s_sd_BIOSOLVEIT.INFINISEE\_REAGENT3\_NAME>  (715) 
EMOL2873214

>  <s_sd_BIOSOLVEIT.INFINISEE\_REAGENT3\_SMILES>  (715) 
N(Cc1cc(ccc1)CN)(C)C

>  <s_sd_BIOSOLVEIT.INFINISEE\_SPACE>  (715) 
eXplore_7tr_2022-12

>  <s_vsw_compound_code>  (715) 
70785

>  <s_vsw_variant>  (715) 
70785-6

>  <r_epik_Charging_Adjusted_Penalty>  (715) 
2.0515227600045098

>  <r_epik_Ionization_Penalty>  (715) 
1.6705000000000001

>  <r_epik_Ionization_Penalty_Charging>  (715) 
0.0441

>  <r_epik_Ionization_Penalty_Neutral>  (715) 
1.6264000000000001

>  <r_epik_State_Penalty>  (715) 
2.0074000000000001

>  <r_i_docking_score>  (715) 
-2.2488728459862899

>  <r_i_glide_ecoul>  (715) 
-7.1379380226135298

>  <r_i_glide_eff_state_penalty>  (715) 
2.0074000000000001

>  <r_i_glide_einternal>  (715) 
10.3750915527344

>  <r_i_glide_emodel>  (715) 
-56.047122102016097

>  <r_i_glide_energy>  (715) 
-45.792150974273703

>  <r_i_glide_erotb>  (715) 
0.69452035073392704

>  <r_i_glide_esite>  (715) 
-0.039226824853596597

>  <r_i_glide_evdw>  (715) 
-38.654212951660199

>  <r_i_glide_gscore>  (715) 
-4.25627284598629

>  <r_i_glide_hbond>  (715) 
0

>  <r_i_glide_ligand_efficiency>  (715) 
-0.062468690166285798

>  <r_i_glide_ligand_efficiency_ln>  (715) 
-0.49064329747130703

>  <r_i_glide_ligand_efficiency_sa>  (715) 
-0.20626707001642799

>  <r_i_glide_lipo>  (715) 
-1.0820987613389099

>  <r_i_glide_metal>  (715) 
-0

>  <r_i_glide_rewards>  (715) 
-0.82606625955266999

>  <r_lp_Energy>  (715) 
29.597660999999999

>  <r_qp_ACxDN^.5/SA>  (715) 
0.0103106

>  <r_qp_CIQPlogS>  (715) 
-6.2880000000000003

>  <r_qp_EA(eV)>  (715) 
0.91300000000000003

>  <r_qp_FISA>  (715) 
83.305000000000007

>  <r_qp_FOSA>  (715) 
259.661

>  <r_qp_IP(eV)>  (715) 
8.4280000000000008

>  <r_qp_Jm>  (715) 
0.058288744184716697

>  <r_qp_PISA>  (715) 
384.44299999999998

>  <r_qp_PSA>  (715) 
93.203999999999994

>  <r_qp_PercentHumanOralAbsorption>  (715) 
100

>  <r_qp_QPPCaco>  (715) 
400.69900000000001

>  <r_qp_QPPMDCK>  (715) 
203.66800000000001

>  <r_qp_QPlogBB>  (715) 
-0.34499999999999997

>  <r_qp_QPlogHERG>  (715) 
-6.484

>  <r_qp_QPlogKhsa>  (715) 
0.70499999999999996

>  <r_qp_QPlogKp>  (715) 
-2.899

>  <r_qp_QPlogPC16>  (715) 
15.098000000000001

>  <r_qp_QPlogPo/w>  (715) 
4.6139999999999999

>  <r_qp_QPlogPoct>  (715) 
22.715

>  <r_qp_QPlogPw>  (715) 
11.518000000000001

>  <r_qp_QPlogS>  (715) 
-4.0190000000000001

>  <r_qp_QPpolrz>  (715) 
49.814

>  <r_qp_SASA>  (715) 
727.40899999999999

>  <r_qp_SAamideO>  (715) 
0

>  <r_qp_SAfluorine>  (715) 
0

>  <r_qp_WPSA>  (715) 
0

>  <r_qp_accptHB>  (715) 
7.5

>  <r_qp_dip^2/V>  (715) 
0.038498699999999997

>  <r_qp_dipole>  (715) 
7.4740000000000002

>  <r_qp_donorHB>  (715) 
1

>  <r_qp_glob>  (715) 
0.85217549999999997

>  <r_qp_mol_MW>  (715) 
482.58100000000002

>  <r_qp_volume>  (715) 
1451.155

>  <r_sd_BIOSOLVEIT.INFINISEE\_FTREES\_SIMILARITY>  (715) 
0.93000000000000005

>  <r_sd_BIOSOLVEIT.LOGP>  (715) 
3.3866999999999998

>  <r_sd_BIOSOLVEIT.MOLECULAR\_WEIGHT>  (715) 
483.589

>  <r_sd_BIOSOLVEIT.TPSA>  (715) 
84.760000000000005

>  <i_epik_Tot_Q>  (715) 
1

>  <i_epik_Tot_abs_Q>  (715) 
1

>  <i_f3d_flags>  (715) 
0

>  <i_i_glide_confnum>  (715) 
8

>  <i_i_glide_lignum>  (715) 
745

>  <i_i_glide_posenum>  (715) 
18

>  <i_i_glide_rotatable_bonds>  (715) 
11

>  <i_lp_mmshare_version>  (715) 
65135

>  <i_m_ct_format>  (715) 
2

>  <i_m_source_file_index>  (715) 
2213

>  <i_qp_#NandO>  (715) 
7

>  <i_qp_#acid>  (715) 
0

>  <i_qp_#amide>  (715) 
0

>  <i_qp_#amidine>  (715) 
0

>  <i_qp_#amine>  (715) 
1

>  <i_qp_#in34>  (715) 
0

>  <i_qp_#in56>  (715) 
22

>  <i_qp_#metab>  (715) 
8

>  <i_qp_#nonHatm>  (715) 
36

>  <i_qp_#noncon>  (715) 
0

>  <i_qp_#ringatoms>  (715) 
22

>  <i_qp_#rotor>  (715) 
9

>  <i_qp_#rtvFG>  (715) 
1

>  <i_qp_#stars>  (715) 
0

>  <i_qp_CNS>  (715) 
1

>  <i_qp_HumanOralAbsorption>  (715) 
3

>  <i_qp_RuleOfFive>  (715) 
0

>  <i_qp_RuleOfThree>  (715) 
1

>  <i_sd_BIOSOLVEIT.INFINISEE\_RESULT\_RANK>  (715) 
4671

>  <i_sd_version>  (715) 
0

>  <b_lp_Chiralities_Consistent>  (715) 
1

>  <b_sd_chiral_flag>  (715) 
0

>  <canonical_id>  (715) 
ATP-HTVS-6F05C87B1F67

>  <compound_code>  (715) 
70785

>  <title>  (715) 
rxn502b____EMOL5809732____EMOL30488121____EMOL2873214

>  <variant>  (715) 
70785-6

>  <source_file>  (715) 
运行/运行/ATP-VSW/ATP-VSW-DOCK_HTVS_1-001_lib/ATP-VSW-DOCK_HTVS_1-001_lib

>  <canonical_smiles>  (715) 
COC(=O)[C@H](C(=O)Nc1cnc2ccccc2c1NCc1cccc(C[NH+](C)C)c1)c1ccccc1

>  <scaffold>  (715) 
O=C(Cc1ccccc1)Nc1cnc2ccccc2c1NCc1ccccc1

>  <molecular_formula>  (715) 
C29H31N4O3+

$$$$
ATP-HTVS-6F07AE7177E0
     RDKit          3D

 52 55  0  0  0  0  0  0  0  0999 V2000
  198.4185  187.1264  155.8683 S   0  0  0  0  0  0  0  0  0  0  0  0
  197.9573  187.5873  157.4910 C   0  0  0  0  0  0  0  0  0  0  0  0
  198.7280  188.4848  158.2553 C   0  0  0  0  0  0  0  0  0  0  0  0
  199.8639  188.9991  157.7414 F   0  0  0  0  0  0  0  0  0  0  0  0
  198.3467  188.8487  159.5624 C   0  0  0  0  0  0  0  0  0  0  0  0
  197.1541  188.3586  160.0972 C   0  0  0  0  0  0  0  0  0  0  0  0
  196.3531  187.6202  159.2265 C   0  0  0  0  0  0  0  0  0  0  0  0
  196.7678  187.0873  158.0055 C   0  0  0  0  0  0  0  0  0  0  0  0
  200.0932  186.4584  156.0396 C   0  0  1  0  0  0  0  0  0  0  0  0
  200.1955  185.6137  157.2777 C   0  0  0  0  0  0  0  0  0  0  0  0
  201.0450  185.8725  158.4079 C   0  0  0  0  0  0  0  0  0  0  0  0
  200.8014  184.8289  159.3284 C   0  0  0  0  0  0  0  0  0  0  0  0
  199.8683  183.9672  158.8003 O   0  0  0  0  0  0  0  0  0  0  0  0
  199.5090  184.4450  157.5565 C   0  0  0  0  0  0  0  0  0  0  0  0
  198.5104  183.6713  156.7597 C   0  0  0  0  0  0  0  0  0  0  0  0
  198.1600  184.0506  155.6445 O   0  0  0  0  0  0  0  0  0  0  0  0
  198.0001  182.5605  157.3115 N   0  0  0  0  0  0  0  0  0  0  0  0
  196.6846  181.9937  157.0035 C   0  0  1  0  0  0  0  0  0  0  0  0
  195.6833  181.9019  158.1951 C   0  0  2  0  0  0  0  0  0  0  0  0
  194.3496  181.4775  157.7429 N   0  0  2  0  0  0  0  0  0  0  0  0
  195.5279  183.2069  158.9778 C   0  0  0  0  0  0  0  0  0  0  0  0
  196.6629  183.8773  159.4515 C   0  0  0  0  0  0  0  0  0  0  0  0
  196.5590  185.0129  160.2353 C   0  0  0  0  0  0  0  0  0  0  0  0
  195.2746  185.4355  160.6195 C   0  0  0  0  0  0  0  0  0  0  0  0
  194.1394  184.8960  160.0568 C   0  0  0  0  0  0  0  0  0  0  0  0
  194.2569  183.7303  159.2688 C   0  0  0  0  0  0  0  0  0  0  0  0
  201.4530  184.7250  160.5675 C   0  0  0  0  0  0  0  0  0  0  0  0
  202.3967  185.7090  160.9161 C   0  0  0  0  0  0  0  0  0  0  0  0
  202.6684  186.7667  160.0234 C   0  0  0  0  0  0  0  0  0  0  0  0
  201.9987  186.8479  158.7833 C   0  0  0  0  0  0  0  0  0  0  0  0
  193.7524  181.3356  158.5471 H   0  0  0  0  0  0  0  0  0  0  0  0
  194.4722  180.5258  157.3042 H   0  0  0  0  0  0  0  0  0  0  0  0
  198.9284  189.5338  160.1468 H   0  0  0  0  0  0  0  0  0  0  0  0
  196.8222  188.5982  161.1039 H   0  0  0  0  0  0  0  0  0  0  0  0
  195.3762  187.3640  159.4996 H   0  0  0  0  0  0  0  0  0  0  0  0
  196.1473  186.3633  157.4886 H   0  0  0  0  0  0  0  0  0  0  0  0
  200.3305  185.8756  155.1520 H   0  0  0  0  0  0  0  0  0  0  0  0
  200.8022  187.2855  156.0717 H   0  0  0  0  0  0  0  0  0  0  0  0
  198.4343  182.2437  158.1689 H   0  0  0  0  0  0  0  0  0  0  0  0
  196.2208  182.5544  156.1921 H   0  0  0  0  0  0  0  0  0  0  0  0
  196.9037  180.9977  156.6362 H   0  0  0  0  0  0  0  0  0  0  0  0
  196.0491  181.1591  158.9050 H   0  0  0  0  0  0  0  0  0  0  0  0
  197.6564  183.5470  159.2990 H   0  0  0  0  0  0  0  0  0  0  0  0
  197.4494  185.5885  160.4544 H   0  0  0  0  0  0  0  0  0  0  0  0
  195.1798  186.3698  161.1654 H   0  0  0  0  0  0  0  0  0  0  0  0
  193.1708  185.3461  160.2263 H   0  0  0  0  0  0  0  0  0  0  0  0
  193.3509  183.2480  158.9681 H   0  0  0  0  0  0  0  0  0  0  0  0
  201.2333  183.9092  161.2413 H   0  0  0  0  0  0  0  0  0  0  0  0
  202.9134  185.6532  161.8634 H   0  0  0  0  0  0  0  0  0  0  0  0
  203.3950  187.5205  160.2899 H   0  0  0  0  0  0  0  0  0  0  0  0
  202.2170  187.6646  158.1112 H   0  0  0  0  0  0  0  0  0  0  0  0
  193.9548  182.1071  157.0882 H   0  0  0  0  0  0  0  0  0  0  0  0
  1  2  1  0
  1  9  1  0
  2  3  1  0
  2  8  2  0
  3  4  1  0
  3  5  2  0
  5  6  1  0
  5 33  1  0
  6  7  2  0
  6 34  1  0
  7  8  1  0
  7 35  1  0
  8 36  1  0
  9 10  1  0
  9 37  1  6
  9 38  1  0
 10 11  1  0
 10 14  2  0
 11 12  1  0
 11 30  2  0
 12 13  1  0
 12 27  2  0
 13 14  1  0
 14 15  1  0
 15 16  2  0
 15 17  1  0
 17 18  1  0
 17 39  1  0
 18 19  1  0
 18 40  1  6
 18 41  1  0
 19 20  1  0
 19 21  1  0
 19 42  1  1
 20 31  1  1
 20 32  1  0
 20 52  1  0
 21 22  2  0
 21 26  1  0
 22 23  1  0
 22 43  1  0
 23 24  2  0
 23 44  1  0
 24 25  1  0
 24 45  1  0
 25 26  2  0
 25 46  1  0
 26 47  1  0
 27 28  1  0
 27 48  1  0
 28 29  2  0
 28 49  1  0
 29 30  1  0
 29 50  1  0
 30 51  1  0
M  CHG  1  20   1
M  END
>  <s_epik_cmdline>  (716) 
J2VwaWtfcHl0aG9uJywgJy1waCcsICc3LjAwMDAwMCcsICctcGh0JywgJzIuMDAwMDAwJywgJy1tcycsICcxNicsICctdG4nLCAnOCcsICctbWEnLCAnMjAwJywgJy1pbWFlJywgJzxpbmZpbGUubWFlPicsICctb21hZScsICc8b3V0ZmlsZS5tYWU+Jw==

>  <s_epik_input>  (716) 
W2NIXTFbY0hdW2NIXVtjSF1jKEYpYzFTW0NIMl1jMmMob2MoYzIzKVtjSF1bY0hdW2NIXVtjSF0zKUMoPU8pW05IXVtDSDJdW0NASF0oW05IMl0pYzRbY0hdW2NIXVtjSF1bY0hdW2NIXTQ=

>  <s_i_glide_gridfile>  (716) 
ATP-Grid

>  <s_lp_Force_Field>  (716) 
OPLS_2005

>  <s_lp_Variant>  (716) 
m_270006bbb____11615382____8411686-1

>  <s_lp_label>  (716) 
1510_sdstereoexpander_1_neutralizer_1_epik_1_stereoizer_1

>  <s_m_source_file>  (716) 
ATP-VSW-LIGPREP-001-in.maegz

>  <s_sd_BIOSOLVEIT.INFINISEE\_QUERY\_NAME>  (716) 
Ref-Lig

>  <s_sd_BIOSOLVEIT.INFINISEE\_QUERY\_SMILES>  (716) 
S(c1nc2c(cc1C[NH2+]Cc3ccc(cc3)C[NH+](C)C)cccc2)Cc4ccccc4

>  <s_sd_BIOSOLVEIT.INFINISEE\_REACTION\_NAME>  (716) 
m_270006bbb

>  <s_sd_BIOSOLVEIT.INFINISEE\_REAGENT1\_SMILES>  (716) 
[R1*]NCC(N)c1ccccc1

>  <s_sd_BIOSOLVEIT.INFINISEE\_REAGENT2\_SMILES>  (716) 
[R1*]C(=O)C=1Oc2c(cccc2)C1CSc3c(F)cccc3

>  <s_sd_BIOSOLVEIT.INFINISEE\_SPACE>  (716) 
REALSpace_44bn_2023-08

>  <s_vsw_compound_code>  (716) 
48289

>  <s_vsw_variant>  (716) 
48289-1

>  <r_epik_Charging_Adjusted_Penalty>  (716) 
0.13704053916911399

>  <r_epik_Ionization_Penalty>  (716) 
0.068500000000000005

>  <r_epik_Ionization_Penalty_Charging>  (716) 
0.068500000000000005

>  <r_epik_Ionization_Penalty_Neutral>  (716) 
0

>  <r_epik_State_Penalty>  (716) 
0.068500000000000005

>  <r_i_docking_score>  (716) 
-5.8894698694766996

>  <r_i_glide_ecoul>  (716) 
-12.7937479019165

>  <r_i_glide_eff_state_penalty>  (716) 
0.068500000000000005

>  <r_i_glide_einternal>  (716) 
10.069744110107401

>  <r_i_glide_emodel>  (716) 
-60.939754846046498

>  <r_i_glide_energy>  (716) 
-41.606781959533699

>  <r_i_glide_erotb>  (716) 
0.54612896789153798

>  <r_i_glide_esite>  (716) 
-0.123840510035836

>  <r_i_glide_evdw>  (716) 
-28.813034057617202

>  <r_i_glide_gscore>  (716) 
-5.9579698694766998

>  <r_i_glide_hbond>  (716) 
-0.31920967605799799

>  <r_i_glide_ligand_efficiency>  (716) 
-0.19631566231589001

>  <r_i_glide_ligand_efficiency_ln>  (716) 
-1.33815172525902

>  <r_i_glide_ligand_efficiency_sa>  (716) 
-0.60999840668422001

>  <r_i_glide_lipo>  (716) 
-1.6352508833807

>  <r_i_glide_metal>  (716) 
-0

>  <r_i_glide_rewards>  (716) 
-1.06608387972537

>  <r_lp_Energy>  (716) 
22.998366000000001

>  <r_qp_ACxDN^.5/SA>  (716) 
0.010498

>  <r_qp_CIQPlogS>  (716) 
-5.9630000000000001

>  <r_qp_EA(eV)>  (716) 
0.90500000000000003

>  <r_qp_FISA>  (716) 
77.953000000000003

>  <r_qp_FOSA>  (716) 
63.450000000000003

>  <r_qp_IP(eV)>  (716) 
8.7080000000000002

>  <r_qp_Jm>  (716) 
0.0074447565089981399

>  <r_qp_PISA>  (716) 
554.68600000000004

>  <r_qp_PSA>  (716) 
69.873999999999995

>  <r_qp_PercentHumanOralAbsorption>  (716) 
100

>  <r_qp_QPPCaco>  (716) 
450.375

>  <r_qp_QPPMDCK>  (716) 
414.71899999999999

>  <r_qp_QPlogBB>  (716) 
-0.26200000000000001

>  <r_qp_QPlogHERG>  (716) 
-8.4719999999999995

>  <r_qp_QPlogKhsa>  (716) 
0.77500000000000002

>  <r_qp_QPlogKp>  (716) 
-2.2970000000000002

>  <r_qp_QPlogPC16>  (716) 
15.669

>  <r_qp_QPlogPo/w>  (716) 
4.9690000000000003

>  <r_qp_QPlogPoct>  (716) 
22.681999999999999

>  <r_qp_QPlogPw>  (716) 
12.887

>  <r_qp_QPlogS>  (716) 
-5.4550000000000001

>  <r_qp_QPpolrz>  (716) 
46.393000000000001

>  <r_qp_SASA>  (716) 
742.45100000000002

>  <r_qp_SAamideO>  (716) 
0

>  <r_qp_SAfluorine>  (716) 
21.765999999999998

>  <r_qp_WPSA>  (716) 
46.362000000000002

>  <r_qp_accptHB>  (716) 
4.5

>  <r_qp_dip^2/V>  (716) 
0.019924600000000001

>  <r_qp_dipole>  (716) 
5.1070000000000002

>  <r_qp_donorHB>  (716) 
3

>  <r_qp_glob>  (716) 
0.77945359999999997

>  <r_qp_mol_MW>  (716) 
420.5

>  <r_qp_volume>  (716) 
1309

>  <r_sd_BIOSOLVEIT.INFINISEE\_FTREES\_SIMILARITY>  (716) 
0.90700000000000003

>  <r_sd_BIOSOLVEIT.LOGP>  (716) 
4.5772000000000004

>  <r_sd_BIOSOLVEIT.MOLECULAR\_WEIGHT>  (716) 
421.51299999999998

>  <r_sd_BIOSOLVEIT.TPSA>  (716) 
69.879999999999995

>  <i_epik_Tot_Q>  (716) 
1

>  <i_epik_Tot_abs_Q>  (716) 
1

>  <i_f3d_flags>  (716) 
0

>  <i_i_glide_confnum>  (716) 
3

>  <i_i_glide_lignum>  (716) 
389

>  <i_i_glide_posenum>  (716) 
17

>  <i_i_glide_rotatable_bonds>  (716) 
8

>  <i_lp_mmshare_version>  (716) 
65135

>  <i_m_ct_format>  (716) 
2

>  <i_m_source_file_index>  (716) 
1510

>  <i_qp_#NandO>  (716) 
4

>  <i_qp_#acid>  (716) 
0

>  <i_qp_#amide>  (716) 
0

>  <i_qp_#amidine>  (716) 
0

>  <i_qp_#amine>  (716) 
1

>  <i_qp_#in34>  (716) 
0

>  <i_qp_#in56>  (716) 
21

>  <i_qp_#metab>  (716) 
6

>  <i_qp_#nonHatm>  (716) 
30

>  <i_qp_#noncon>  (716) 
0

>  <i_qp_#ringatoms>  (716) 
21

>  <i_qp_#rotor>  (716) 
8

>  <i_qp_#rtvFG>  (716) 
0

>  <i_qp_#stars>  (716) 
1

>  <i_qp_CNS>  (716) 
0

>  <i_qp_HumanOralAbsorption>  (716) 
3

>  <i_qp_RuleOfFive>  (716) 
0

>  <i_qp_RuleOfThree>  (716) 
0

>  <i_sd_BIOSOLVEIT.INFINISEE\_REAGENT1\_NAME>  (716) 
11615382

>  <i_sd_BIOSOLVEIT.INFINISEE\_REAGENT2\_NAME>  (716) 
8411686

>  <i_sd_BIOSOLVEIT.INFINISEE\_RESULT\_RANK>  (716) 
60081

>  <i_sd_version>  (716) 
0

>  <b_lp_Chiralities_Consistent>  (716) 
1

>  <b_sd_chiral_flag>  (716) 
0

>  <canonical_id>  (716) 
ATP-HTVS-6F07AE7177E0

>  <compound_code>  (716) 
48289

>  <title>  (716) 
m_270006bbb____11615382____8411686

>  <variant>  (716) 
48289-1

>  <source_file>  (716) 
运行/运行/ATP-VSW/ATP-VSW-DOCK_HTVS_1-001_lib/ATP-VSW-DOCK_HTVS_1-001_lib

>  <canonical_smiles>  (716) 
[NH3+][C@@H](CNC(=O)c1oc2ccccc2c1CSc1ccccc1F)c1ccccc1

>  <scaffold>  (716) 
O=C(NCCc1ccccc1)c1oc2ccccc2c1CSc1ccccc1

>  <molecular_formula>  (716) 
C24H22FN2O2S+

$$$$
ATP-HTVS-6F1494FEFC60
     RDKit          3D

 56 59  0  0  0  0  0  0  0  0999 V2000
  198.9449  180.8519  150.8599 O   0  0  0  0  0  0  0  0  0  0  0  0
  197.9143  180.5936  151.4801 C   0  0  0  0  0  0  0  0  0  0  0  0
  197.0855  181.5381  151.9587 N   0  0  0  0  0  0  0  0  0  0  0  0
  197.3771  182.9313  151.9908 C   0  0  0  0  0  0  0  0  0  0  0  0
  197.5132  183.5924  153.2382 C   0  0  0  0  0  0  0  0  0  0  0  0
  197.3642  182.8911  154.5033 C   0  0  0  0  0  0  0  0  0  0  0  0
  197.2372  182.2889  155.5559 C   0  0  0  0  0  0  0  0  0  0  0  0
  197.1144  181.6585  156.8792 C   0  0  1  0  0  0  0  0  0  0  0  0
  195.6932  181.8608  157.2744 N   0  0  1  0  0  0  0  0  0  0  0  0
  195.4554  181.9650  158.7289 C   0  0  1  0  0  0  0  0  0  0  0  0
  195.8139  183.3474  159.2613 C   0  0  0  0  0  0  0  0  0  0  0  0
  194.7963  184.2572  159.6286 C   0  0  0  0  0  0  0  0  0  0  0  0
  195.1377  185.5506  160.0871 C   0  0  0  0  0  0  0  0  0  0  0  0
  196.4908  185.9550  160.1294 C   0  0  0  0  0  0  0  0  0  0  0  0
  197.4981  185.0496  159.7375 C   0  0  0  0  0  0  0  0  0  0  0  0
  197.1680  183.7336  159.3586 C   0  0  0  0  0  0  0  0  0  0  0  0
  197.8001  184.9726  153.2296 C   0  0  0  0  0  0  0  0  0  0  0  0
  197.9638  185.6957  152.1038 N   0  0  0  0  0  0  0  0  0  0  0  0
  197.8307  185.0786  150.9084 C   0  0  0  0  0  0  0  0  0  0  0  0
  197.5231  183.6925  150.7991 C   0  0  0  0  0  0  0  0  0  0  0  0
  197.3710  183.1137  149.5139 C   0  0  0  0  0  0  0  0  0  0  0  0
  197.5599  183.8775  148.3546 C   0  0  0  0  0  0  0  0  0  0  0  0
  197.8706  185.2410  148.4612 C   0  0  0  0  0  0  0  0  0  0  0  0
  197.9921  185.8340  149.7325 C   0  0  0  0  0  0  0  0  0  0  0  0
  197.5135  179.1405  151.7187 C   0  0  1  0  0  0  0  0  0  0  0  0
  198.7495  178.2907  152.0271 C   0  0  0  0  0  0  0  0  0  0  0  0
  199.2000  177.2509  151.1682 C   0  0  0  0  0  0  0  0  0  0  0  0
  198.5228  176.9258  149.9220 C   0  0  0  0  0  0  0  0  0  0  0  0
  197.9828  176.6678  148.9324 N   0  0  0  0  0  0  0  0  0  0  0  0
  200.3390  176.4961  151.5228 C   0  0  0  0  0  0  0  0  0  0  0  0
  201.0350  176.7684  152.7150 C   0  0  0  0  0  0  0  0  0  0  0  0
  200.5984  177.8005  153.5638 C   0  0  0  0  0  0  0  0  0  0  0  0
  199.4630  178.5566  153.2201 C   0  0  0  0  0  0  0  0  0  0  0  0
  195.2729  182.6414  156.7973 H   0  0  0  0  0  0  0  0  0  0  0  0
  196.2709  181.2384  152.4717 H   0  0  0  0  0  0  0  0  0  0  0  0
  197.3494  180.5927  156.8058 H   0  0  0  0  0  0  0  0  0  0  0  0
  197.8362  182.1395  157.5468 H   0  0  0  0  0  0  0  0  0  0  0  0
  194.3982  181.7722  158.9037 H   0  0  0  0  0  0  0  0  0  0  0  0
  195.9923  181.1890  159.2722 H   0  0  0  0  0  0  0  0  0  0  0  0
  193.7518  183.9729  159.5768 H   0  0  0  0  0  0  0  0  0  0  0  0
  194.3576  186.2364  160.3986 H   0  0  0  0  0  0  0  0  0  0  0  0
  196.7580  186.9414  160.4843 H   0  0  0  0  0  0  0  0  0  0  0  0
  198.5368  185.3426  159.7830 H   0  0  0  0  0  0  0  0  0  0  0  0
  197.9607  183.0396  159.1165 H   0  0  0  0  0  0  0  0  0  0  0  0
  197.9171  185.5176  154.1567 H   0  0  0  0  0  0  0  0  0  0  0  0
  197.1347  182.0709  149.3882 H   0  0  0  0  0  0  0  0  0  0  0  0
  197.4822  183.4058  147.3853 H   0  0  0  0  0  0  0  0  0  0  0  0
  198.0153  185.8254  147.5652 H   0  0  0  0  0  0  0  0  0  0  0  0
  198.2243  186.8849  149.8100 H   0  0  0  0  0  0  0  0  0  0  0  0
  196.8237  179.0729  152.5594 H   0  0  0  0  0  0  0  0  0  0  0  0
  196.9570  178.8021  150.8417 H   0  0  0  0  0  0  0  0  0  0  0  0
  200.6851  175.7022  150.8764 H   0  0  0  0  0  0  0  0  0  0  0  0
  201.9064  176.1865  152.9758 H   0  0  0  0  0  0  0  0  0  0  0  0
  201.1342  178.0115  154.4793 H   0  0  0  0  0  0  0  0  0  0  0  0
  199.1387  179.3452  153.8854 H   0  0  0  0  0  0  0  0  0  0  0  0
  195.1919  181.0393  156.9682 H   0  0  0  0  0  0  0  0  0  0  0  0
  1  2  2  0
  2  3  1  0
  2 25  1  0
  3  4  1  0
  3 35  1  0
  4  5  2  0
  4 20  1  0
  5  6  1  0
  5 17  1  0
  6  7  3  0
  7  8  1  0
  8  9  1  0
  8 36  1  6
  8 37  1  0
  9 10  1  0
  9 34  1  6
  9 56  1  0
 10 11  1  0
 10 38  1  6
 10 39  1  0
 11 12  2  0
 11 16  1  0
 12 13  1  0
 12 40  1  0
 13 14  2  0
 13 41  1  0
 14 15  1  0
 14 42  1  0
 15 16  2  0
 15 43  1  0
 16 44  1  0
 17 18  2  0
 17 45  1  0
 18 19  1  0
 19 20  1  0
 19 24  2  0
 20 21  2  0
 21 22  1  0
 21 46  1  0
 22 23  2  0
 22 47  1  0
 23 24  1  0
 23 48  1  0
 24 49  1  0
 25 26  1  0
 25 50  1  1
 25 51  1  0
 26 27  1  0
 26 33  2  0
 27 28  1  0
 27 30  2  0
 28 29  3  0
 30 31  1  0
 30 52  1  0
 31 32  2  0
 31 53  1  0
 32 33  1  0
 32 54  1  0
 33 55  1  0
M  CHG  1   9   1
M  END
>  <s_epik_cmdline>  (717) 
J2VwaWtfcHl0aG9uJywgJy1waCcsICc3LjAwMDAwMCcsICctcGh0JywgJzIuMDAwMDAwJywgJy1tcycsICcxNicsICctdG4nLCAnOCcsICctbWEnLCAnMjAwJywgJy1pbWFlJywgJzxpbmZpbGUubWFlPicsICctb21hZScsICc8b3V0ZmlsZS5tYWU+Jw==

>  <s_epik_input>  (717) 
W2NIXTFbY0hdW2NIXVtjSF1jKEMjTiljMVtDSDJdQyg9TylbTkhdYyhjKGMyMylbY0hdW2NIXVtjSF1bY0hdMyljKFtjSF1uMilDI0NbQ0gyXVtOSF1bQ0gyXWM0W2NIXVtjSF1bY0hdW2NIXVtjSF00

>  <s_i_glide_gridfile>  (717) 
ATP-Grid

>  <s_lp_Force_Field>  (717) 
OPLS_2005

>  <s_lp_Variant>  (717) 
rxn503b____EMOL3801098____EMOL13728749____EMOL1197208-2

>  <s_lp_label>  (717) 
2647_sdstereoexpander_1_neutralizer_1_epik_2_stereoizer_1

>  <s_m_source_file>  (717) 
ATP-VSW-LIGPREP-003-in.maegz

>  <s_sd_BIOSOLVEIT.INFINISEE\_QUERY\_NAME>  (717) 
Ref-Lig

>  <s_sd_BIOSOLVEIT.INFINISEE\_QUERY\_SMILES>  (717) 
S(c1nc2c(cc1C[NH2+]Cc3ccc(cc3)C[NH+](C)C)cccc2)Cc4ccccc4

>  <s_sd_BIOSOLVEIT.INFINISEE\_REACTION\_NAME>  (717) 
rxn503b

>  <s_sd_BIOSOLVEIT.INFINISEE\_REAGENT1\_NAME>  (717) 
EMOL3801098

>  <s_sd_BIOSOLVEIT.INFINISEE\_REAGENT1\_SMILES>  (717) 
O=C(O)Cc1c(C#N)cccc1

>  <s_sd_BIOSOLVEIT.INFINISEE\_REAGENT2\_NAME>  (717) 
EMOL13728749

>  <s_sd_BIOSOLVEIT.INFINISEE\_REAGENT2\_SMILES>  (717) 
Brc1c(N)c2c(nc1)cccc2

>  <s_sd_BIOSOLVEIT.INFINISEE\_REAGENT3\_NAME>  (717) 
EMOL1197208

>  <s_sd_BIOSOLVEIT.INFINISEE\_REAGENT3\_SMILES>  (717) 
N(CC#C)Cc1ccccc1

>  <s_sd_BIOSOLVEIT.INFINISEE\_SPACE>  (717) 
eXplore_7tr_2022-12

>  <s_vsw_compound_code>  (717) 
84675

>  <s_vsw_variant>  (717) 
84675-2

>  <r_epik_Charging_Adjusted_Penalty>  (717) 
1.1372904760564899

>  <r_epik_Ionization_Penalty>  (717) 
0.56879999999999997

>  <r_epik_Ionization_Penalty_Charging>  (717) 
0.56859999999999999

>  <r_epik_Ionization_Penalty_Neutral>  (717) 
0.0001

>  <r_epik_State_Penalty>  (717) 
0.56859999999999999

>  <r_i_docking_score>  (717) 
-5.35850679518457

>  <r_i_glide_ecoul>  (717) 
-9.2187337875366193

>  <r_i_glide_eff_state_penalty>  (717) 
0.56859999999999999

>  <r_i_glide_einternal>  (717) 
5.6030468940734899

>  <r_i_glide_emodel>  (717) 
-69.134540095394001

>  <r_i_glide_energy>  (717) 
-47.481028556823702

>  <r_i_glide_erotb>  (717) 
0.85458772009548101

>  <r_i_glide_esite>  (717) 
-0.10000000000000001

>  <r_i_glide_evdw>  (717) 
-38.262294769287102

>  <r_i_glide_gscore>  (717) 
-5.92710679518457

>  <r_i_glide_hbond>  (717) 
-0.192147660031282

>  <r_i_glide_ligand_efficiency>  (717) 
-0.16237899379347201

>  <r_i_glide_ligand_efficiency_ln>  (717) 
-1.1917041663857399

>  <r_i_glide_ligand_efficiency_sa>  (717) 
-0.520836196455704

>  <r_i_glide_lipo>  (717) 
-2.2456704230503099

>  <r_i_glide_metal>  (717) 
-0

>  <r_i_glide_rewards>  (717) 
-0.94795162560360702

>  <r_lp_Energy>  (717) 
26.949013999999998

>  <r_qp_ACxDN^.5/SA>  (717) 
0.0123111

>  <r_qp_CIQPlogS>  (717) 
-6.5830000000000002

>  <r_qp_EA(eV)>  (717) 
1.349

>  <r_qp_FISA>  (717) 
98.287000000000006

>  <r_qp_FOSA>  (717) 
76.739000000000004

>  <r_qp_IP(eV)>  (717) 
8.9619999999999997

>  <r_qp_Jm>  (717) 
0.00258384884123404

>  <r_qp_PISA>  (717) 
571.649

>  <r_qp_PSA>  (717) 
84.829999999999998

>  <r_qp_PercentHumanOralAbsorption>  (717) 
100

>  <r_qp_QPPCaco>  (717) 
288.89499999999998

>  <r_qp_QPPMDCK>  (717) 
143.006

>  <r_qp_QPlogBB>  (717) 
-0.59399999999999997

>  <r_qp_QPlogHERG>  (717) 
-8.1579999999999995

>  <r_qp_QPlogKhsa>  (717) 
0.67600000000000005

>  <r_qp_QPlogKp>  (717) 
-2.516

>  <r_qp_QPlogPC16>  (717) 
16.271000000000001

>  <r_qp_QPlogPo/w>  (717) 
4.5590000000000002

>  <r_qp_QPlogPoct>  (717) 
24.097000000000001

>  <r_qp_QPlogPw>  (717) 
13.419

>  <r_qp_QPlogS>  (717) 
-5.7060000000000004

>  <r_qp_QPpolrz>  (717) 
48.863999999999997

>  <r_qp_SASA>  (717) 
746.67499999999995

>  <r_qp_SAamideO>  (717) 
0

>  <r_qp_SAfluorine>  (717) 
0

>  <r_qp_WPSA>  (717) 
0

>  <r_qp_accptHB>  (717) 
6.5

>  <r_qp_dip^2/V>  (717) 
0.087068499999999993

>  <r_qp_dipole>  (717) 
10.972

>  <r_qp_donorHB>  (717) 
2

>  <r_qp_glob>  (717) 
0.80388720000000002

>  <r_qp_mol_MW>  (717) 
430.50799999999998

>  <r_qp_volume>  (717) 
1382.7470000000001

>  <r_sd_BIOSOLVEIT.INFINISEE\_FTREES\_SIMILARITY>  (717) 
0.91000000000000003

>  <r_sd_BIOSOLVEIT.LOGP>  (717) 
3.4027799999999999

>  <r_sd_BIOSOLVEIT.MOLECULAR\_WEIGHT>  (717) 
431.517

>  <r_sd_BIOSOLVEIT.TPSA>  (717) 
82.390000000000001

>  <i_epik_Tot_Q>  (717) 
1

>  <i_epik_Tot_abs_Q>  (717) 
1

>  <i_f3d_flags>  (717) 
0

>  <i_i_glide_confnum>  (717) 
12

>  <i_i_glide_lignum>  (717) 
1222

>  <i_i_glide_posenum>  (717) 
11

>  <i_i_glide_rotatable_bonds>  (717) 
9

>  <i_lp_mmshare_version>  (717) 
65135

>  <i_m_ct_format>  (717) 
2

>  <i_m_source_file_index>  (717) 
2647

>  <i_qp_#NandO>  (717) 
5

>  <i_qp_#acid>  (717) 
0

>  <i_qp_#amide>  (717) 
0

>  <i_qp_#amidine>  (717) 
0

>  <i_qp_#amine>  (717) 
1

>  <i_qp_#in34>  (717) 
0

>  <i_qp_#in56>  (717) 
22

>  <i_qp_#metab>  (717) 
5

>  <i_qp_#nonHatm>  (717) 
33

>  <i_qp_#noncon>  (717) 
0

>  <i_qp_#ringatoms>  (717) 
22

>  <i_qp_#rotor>  (717) 
9

>  <i_qp_#rtvFG>  (717) 
0

>  <i_qp_#stars>  (717) 
1

>  <i_qp_CNS>  (717) 
1

>  <i_qp_HumanOralAbsorption>  (717) 
3

>  <i_qp_RuleOfFive>  (717) 
0

>  <i_qp_RuleOfThree>  (717) 
1

>  <i_sd_BIOSOLVEIT.INFINISEE\_RESULT\_RANK>  (717) 
46057

>  <i_sd_version>  (717) 
0

>  <b_lp_Chiralities_Consistent>  (717) 
1

>  <b_sd_chiral_flag>  (717) 
0

>  <canonical_id>  (717) 
ATP-HTVS-6F1494FEFC60

>  <compound_code>  (717) 
84675

>  <title>  (717) 
rxn503b____EMOL3801098____EMOL13728749____EMOL1197208

>  <variant>  (717) 
84675-2

>  <source_file>  (717) 
运行/运行/ATP-VSW/ATP-VSW-DOCK_HTVS_1-003_lib/ATP-VSW-DOCK_HTVS_1-003_lib.mae

>  <canonical_smiles>  (717) 
N#Cc1ccccc1CC(=O)Nc1c(C#CC[NH2+]Cc2ccccc2)cnc2ccccc12

>  <scaffold>  (717) 
O=C(Cc1ccccc1)Nc1c(C#CC[NH2+]Cc2ccccc2)cnc2ccccc12

>  <molecular_formula>  (717) 
C28H23N4O+

$$$$
ATP-HTVS-6F734E803CC4
     RDKit          3D

 57 60  0  0  0  0  0  0  0  0999 V2000
  198.2645  185.0979  155.6539 O   0  0  0  0  0  0  0  0  0  0  0  0
  198.2507  183.9200  156.0133 C   0  0  0  0  0  0  0  0  0  0  0  0
  198.2177  182.8612  155.1828 N   0  0  0  0  0  0  0  0  0  0  0  0
  198.1305  182.8421  153.7598 C   0  0  0  0  0  0  0  0  0  0  0  0
  197.9213  183.9671  153.0280 N   0  0  0  0  0  0  0  0  0  0  0  0
  197.8292  183.9085  151.6832 C   0  0  0  0  0  0  0  0  0  0  0  0
  197.9415  182.6839  150.9888 C   0  0  0  0  0  0  0  0  0  0  0  0
  198.1602  181.5138  151.7200 C   0  0  0  0  0  0  0  0  0  0  0  0
  198.2604  181.5645  153.1295 C   0  0  0  0  0  0  0  0  0  0  0  0
  198.4065  180.3685  153.8746 N   0  0  0  0  0  0  0  0  0  0  0  0
  199.3719  179.3798  153.3396 C   0  0  2  0  0  0  0  0  0  0  0  0
  198.8122  178.5797  152.2304 C   0  0  0  0  0  0  0  0  0  0  0  0
  198.3746  177.9675  151.3497 N   0  0  0  0  0  0  0  0  0  0  0  0
  200.0059  178.4335  154.3645 C   0  0  0  0  0  0  0  0  0  0  0  0
  199.2238  177.8151  155.3742 C   0  0  0  0  0  0  0  0  0  0  0  0
  199.8455  177.0226  156.3429 C   0  0  0  0  0  0  0  0  0  0  0  0
  201.2202  176.7081  156.2856 C   0  0  0  0  0  0  0  0  0  0  0  0
  201.9857  177.2594  155.2322 C   0  0  0  0  0  0  0  0  0  0  0  0
  201.4011  178.1394  154.2830 C   0  0  0  0  0  0  0  0  0  0  0  0
  197.1124  179.9403  154.4138 C   0  0  2  0  0  0  0  0  0  0  0  0
  197.8477  182.6194  149.5774 C   0  0  0  0  0  0  0  0  0  0  0  0
  197.6317  183.7975  148.8434 C   0  0  0  0  0  0  0  0  0  0  0  0
  197.5162  185.0247  149.5190 C   0  0  0  0  0  0  0  0  0  0  0  0
  197.6281  185.0766  150.9232 C   0  0  0  0  0  0  0  0  0  0  0  0
  198.3008  183.6005  157.5099 C   0  0  1  0  0  0  0  0  0  0  0  0
  196.9188  183.7038  158.1406 C   0  0  0  0  0  0  0  0  0  0  0  0
  196.5508  184.8471  158.8986 C   0  0  0  0  0  0  0  0  0  0  0  0
  197.4830  185.8545  159.0391 O   0  0  0  0  0  0  0  0  0  0  0  0
  197.1287  187.0040  159.7937 C   0  0  2  0  0  0  0  0  0  0  0  0
  195.2556  184.8972  159.4752 C   0  0  0  0  0  0  0  0  0  0  0  0
  194.3506  183.8351  159.2943 C   0  0  0  0  0  0  0  0  0  0  0  0
  194.7250  182.7082  158.5474 C   0  0  0  0  0  0  0  0  0  0  0  0
  196.0042  182.6421  157.9743 C   0  0  0  0  0  0  0  0  0  0  0  0
  198.2733  181.9453  155.6036 H   0  0  0  0  0  0  0  0  0  0  0  0
  198.2145  180.6040  151.1448 H   0  0  0  0  0  0  0  0  0  0  0  0
  200.1939  179.9424  152.8905 H   0  0  0  0  0  0  0  0  0  0  0  0
  198.1577  177.9039  155.4412 H   0  0  0  0  0  0  0  0  0  0  0  0
  199.2220  176.6254  157.1256 H   0  0  0  0  0  0  0  0  0  0  0  0
  201.6589  176.0467  157.0193 H   0  0  0  0  0  0  0  0  0  0  0  0
  203.0514  177.0122  155.1675 H   0  0  0  0  0  0  0  0  0  0  0  0
  202.0145  178.5484  153.4908 H   0  0  0  0  0  0  0  0  0  0  0  0
  196.4055  180.7629  154.5010 H   0  0  0  0  0  0  0  0  0  0  0  0
  197.2190  179.5003  155.3988 H   0  0  0  0  0  0  0  0  0  0  0  0
  196.6813  179.2078  153.7354 H   0  0  0  0  0  0  0  0  0  0  0  0
  197.9472  181.6734  149.0668 H   0  0  0  0  0  0  0  0  0  0  0  0
  197.5622  183.7539  147.7652 H   0  0  0  0  0  0  0  0  0  0  0  0
  197.3504  185.9310  148.9579 H   0  0  0  0  0  0  0  0  0  0  0  0
  197.5648  186.0192  151.4449 H   0  0  0  0  0  0  0  0  0  0  0  0
  198.6945  182.5968  157.6652 H   0  0  0  0  0  0  0  0  0  0  0  0
  199.0073  184.2757  157.9877 H   0  0  0  0  0  0  0  0  0  0  0  0
  197.9682  187.6991  159.8002 H   0  0  0  0  0  0  0  0  0  0  0  0
  196.9055  186.7466  160.8304 H   0  0  0  0  0  0  0  0  0  0  0  0
  196.2744  187.5228  159.3553 H   0  0  0  0  0  0  0  0  0  0  0  0
  194.9279  185.7444  160.0559 H   0  0  0  0  0  0  0  0  0  0  0  0
  193.3607  183.8951  159.7262 H   0  0  0  0  0  0  0  0  0  0  0  0
  194.0283  181.8935  158.4005 H   0  0  0  0  0  0  0  0  0  0  0  0
  196.2743  181.7637  157.3992 H   0  0  0  0  0  0  0  0  0  0  0  0
  1  2  2  0
  2  3  1  0
  2 25  1  0
  3  4  1  0
  3 34  1  0
  4  5  2  0
  4  9  1  0
  5  6  1  0
  6  7  1  0
  6 24  2  0
  7  8  1  0
  7 21  2  0
  8  9  2  0
  8 35  1  0
  9 10  1  0
 10 11  1  0
 10 20  1  0
 11 12  1  0
 11 14  1  0
 11 36  1  6
 12 13  3  0
 14 15  2  0
 14 19  1  0
 15 16  1  0
 15 37  1  0
 16 17  2  0
 16 38  1  0
 17 18  1  0
 17 39  1  0
 18 19  2  0
 18 40  1  0
 19 41  1  0
 20 42  1  1
 20 43  1  0
 20 44  1  0
 21 22  1  0
 21 45  1  0
 22 23  2  0
 22 46  1  0
 23 24  1  0
 23 47  1  0
 24 48  1  0
 25 26  1  0
 25 49  1  6
 25 50  1  0
 26 27  1  0
 26 33  2  0
 27 28  1  0
 27 30  2  0
 28 29  1  0
 29 51  1  1
 29 52  1  0
 29 53  1  0
 30 31  1  0
 30 54  1  0
 31 32  2  0
 31 55  1  0
 32 33  1  0
 32 56  1  0
 33 57  1  0
M  END
>  <s_epik_cmdline>  (718) 
J2VwaWtfcHl0aG9uJywgJy1waCcsICc3LjAwMDAwMCcsICctcGh0JywgJzIuMDAwMDAwJywgJy1tcycsICcxNicsICctdG4nLCAnOCcsICctbWEnLCAnMjAwJywgJy1pbWFlJywgJzxpbmZpbGUubWFlPicsICctb21hZScsICc8b3V0ZmlsZS5tYWU+Jw==

>  <s_epik_input>  (718) 
W2NIXTFbY0hdW2NIXVtjSF1jKE9bQ0gzXSljMVtDSDJdQyg9TylbTkhdYyhuMiljKFtjSF1jKGMyMylbY0hdW2NIXVtjSF1bY0hdMylOKFtDSDNdKVtDQEhdKEMjTiljNFtjSF1bY0hdW2NIXVtjSF1bY0hdNA==

>  <s_i_glide_gridfile>  (718) 
ATP-Grid

>  <s_lp_Force_Field>  (718) 
OPLS_2005

>  <s_lp_Variant>  (718) 
rxn502b____EMOL32280493____EMOL44466703____EMOL24630243-2

>  <s_lp_label>  (718) 
2819_sdstereoexpander_2_neutralizer_1_epik_1_stereoizer_1

>  <s_m_source_file>  (718) 
ATP-VSW-LIGPREP-001-in.maegz

>  <s_sd_BIOSOLVEIT.INFINISEE\_QUERY\_NAME>  (718) 
Ref-Lig

>  <s_sd_BIOSOLVEIT.INFINISEE\_QUERY\_SMILES>  (718) 
S(c1nc2c(cc1C[NH2+]Cc3ccc(cc3)C[NH+](C)C)cccc2)Cc4ccccc4

>  <s_sd_BIOSOLVEIT.INFINISEE\_REACTION\_NAME>  (718) 
rxn502b

>  <s_sd_BIOSOLVEIT.INFINISEE\_REAGENT1\_NAME>  (718) 
EMOL32280493

>  <s_sd_BIOSOLVEIT.INFINISEE\_REAGENT1\_SMILES>  (718) 
ClC(=O)Cc1c(OC)cccc1

>  <s_sd_BIOSOLVEIT.INFINISEE\_REAGENT2\_NAME>  (718) 
EMOL44466703

>  <s_sd_BIOSOLVEIT.INFINISEE\_REAGENT2\_SMILES>  (718) 
Brc1c(nc2c(c1)cccc2)N

>  <s_sd_BIOSOLVEIT.INFINISEE\_REAGENT3\_NAME>  (718) 
EMOL24630243

>  <s_sd_BIOSOLVEIT.INFINISEE\_REAGENT3\_SMILES>  (718) 
N#CC(NC)c1ccccc1

>  <s_sd_BIOSOLVEIT.INFINISEE\_SPACE>  (718) 
eXplore_7tr_2022-12

>  <s_vsw_compound_code>  (718) 
90177

>  <s_vsw_variant>  (718) 
90177-2

>  <r_epik_Charging_Adjusted_Penalty>  (718) 
0.0041592969277776401

>  <r_epik_Ionization_Penalty>  (718) 
0.0028

>  <r_epik_Ionization_Penalty_Charging>  (718) 
0

>  <r_epik_Ionization_Penalty_Neutral>  (718) 
0.0028

>  <r_epik_State_Penalty>  (718) 
0.0041999999999999997

>  <r_i_docking_score>  (718) 
-3.3159237533377302

>  <r_i_glide_ecoul>  (718) 
-1.9608501195907599

>  <r_i_glide_eff_state_penalty>  (718) 
0.0041999999999999997

>  <r_i_glide_einternal>  (718) 
1.7811264991760301

>  <r_i_glide_emodel>  (718) 
-46.082413927176603

>  <r_i_glide_energy>  (718) 
-38.735435843467698

>  <r_i_glide_erotb>  (718) 
0.73232020996712799

>  <r_i_glide_esite>  (718) 
-0.013149577644631399

>  <r_i_glide_evdw>  (718) 
-36.774585723877003

>  <r_i_glide_gscore>  (718) 
-3.3201237533377301

>  <r_i_glide_hbond>  (718) 
0

>  <r_i_glide_ligand_efficiency>  (718) 
-0.10048253797993099

>  <r_i_glide_ligand_efficiency_ln>  (718) 
-0.73744427380797795

>  <r_i_glide_ligand_efficiency_sa>  (718) 
-0.32230118976009597

>  <r_i_glide_lipo>  (718) 
-1.4320927628287301

>  <r_i_glide_metal>  (718) 
-0

>  <r_i_glide_rewards>  (718) 
-0.474344818699032

>  <r_lp_Energy>  (718) 
33.402464000000002

>  <r_lp_tautomer_probability>  (718) 
1

>  <r_qp_ACxDN^.5/SA>  (718) 
0.0093512999999999999

>  <r_qp_CIQPlogS>  (718) 
-7.7039999999999997

>  <r_qp_EA(eV)>  (718) 
0.97199999999999998

>  <r_qp_FISA>  (718) 
99.054000000000002

>  <r_qp_FOSA>  (718) 
158.346

>  <r_qp_IP(eV)>  (718) 
8.7560000000000002

>  <r_qp_Jm>  (718) 
0.012789129650349401

>  <r_qp_PISA>  (718) 
464.423

>  <r_qp_PSA>  (718) 
76.736999999999995

>  <r_qp_PercentHumanOralAbsorption>  (718) 
100

>  <r_qp_QPPCaco>  (718) 
1139.134

>  <r_qp_QPPMDCK>  (718) 
569.50900000000001

>  <r_qp_QPlogBB>  (718) 
-0.89000000000000001

>  <r_qp_QPlogHERG>  (718) 
-6.5839999999999996

>  <r_qp_QPlogKhsa>  (718) 
0.65800000000000003

>  <r_qp_QPlogKp>  (718) 
-0.94099999999999995

>  <r_qp_QPlogPC16>  (718) 
15.079000000000001

>  <r_qp_QPlogPo/w>  (718) 
4.8899999999999997

>  <r_qp_QPlogPoct>  (718) 
21.164999999999999

>  <r_qp_QPlogPw>  (718) 
11.638

>  <r_qp_QPlogS>  (718) 
-6.5919999999999996

>  <r_qp_QPpolrz>  (718) 
47.793999999999997

>  <r_qp_SASA>  (718) 
721.82299999999998

>  <r_qp_SAamideO>  (718) 
0

>  <r_qp_SAfluorine>  (718) 
0

>  <r_qp_WPSA>  (718) 
0

>  <r_qp_accptHB>  (718) 
6.75

>  <r_qp_dip^2/V>  (718) 
0.00042190000000000001

>  <r_qp_dipole>  (718) 
0.75900000000000001

>  <r_qp_donorHB>  (718) 
1

>  <r_qp_glob>  (718) 
0.82466019999999995

>  <r_qp_mol_MW>  (718) 
436.512

>  <r_qp_volume>  (718) 
1365.5599999999999

>  <r_sd_BIOSOLVEIT.INFINISEE\_FTREES\_SIMILARITY>  (718) 
0.90600000000000003

>  <r_sd_BIOSOLVEIT.LOGP>  (718) 
5.12568

>  <r_sd_BIOSOLVEIT.MOLECULAR\_WEIGHT>  (718) 
436.51299999999998

>  <r_sd_BIOSOLVEIT.TPSA>  (718) 
78.25

>  <i_epik_Tot_Q>  (718) 
0

>  <i_epik_Tot_abs_Q>  (718) 
0

>  <i_f3d_flags>  (718) 
0

>  <i_i_glide_confnum>  (718) 
2

>  <i_i_glide_lignum>  (718) 
1287

>  <i_i_glide_posenum>  (718) 
16

>  <i_i_glide_rotatable_bonds>  (718) 
8

>  <i_lp_mmshare_version>  (718) 
65135

>  <i_m_ct_format>  (718) 
2

>  <i_m_source_file_index>  (718) 
2819

>  <i_qp_#NandO>  (718) 
6

>  <i_qp_#acid>  (718) 
0

>  <i_qp_#amide>  (718) 
0

>  <i_qp_#amidine>  (718) 
0

>  <i_qp_#amine>  (718) 
0

>  <i_qp_#in34>  (718) 
0

>  <i_qp_#in56>  (718) 
22

>  <i_qp_#metab>  (718) 
5

>  <i_qp_#nonHatm>  (718) 
33

>  <i_qp_#noncon>  (718) 
0

>  <i_qp_#ringatoms>  (718) 
22

>  <i_qp_#rotor>  (718) 
8

>  <i_qp_#rtvFG>  (718) 
0

>  <i_qp_#stars>  (718) 
3

>  <i_qp_CNS>  (718) 
-1

>  <i_qp_HumanOralAbsorption>  (718) 
1

>  <i_qp_RuleOfFive>  (718) 
0

>  <i_qp_RuleOfThree>  (718) 
1

>  <i_sd_BIOSOLVEIT.INFINISEE\_RESULT\_RANK>  (718) 
65509

>  <i_sd_version>  (718) 
0

>  <b_lp_Chiralities_Consistent>  (718) 
1

>  <b_sd_chiral_flag>  (718) 
0

>  <canonical_id>  (718) 
ATP-HTVS-6F734E803CC4

>  <compound_code>  (718) 
90177

>  <title>  (718) 
rxn502b____EMOL32280493____EMOL44466703____EMOL24630243

>  <variant>  (718) 
90177-2

>  <source_file>  (718) 
运行/运行/ATP-VSW/ATP-VSW-DOCK_HTVS_1-001_lib/ATP-VSW-DOCK_HTVS_1-001_lib

>  <canonical_smiles>  (718) 
COc1ccccc1CC(=O)Nc1nc2ccccc2cc1N(C)[C@H](C#N)c1ccccc1

>  <scaffold>  (718) 
O=C(Cc1ccccc1)Nc1nc2ccccc2cc1NCc1ccccc1

>  <molecular_formula>  (718) 
C27H24N4O2

$$$$
ATP-HTVS-6F858A0E8812
     RDKit          3D

 53 56  0  0  0  0  0  0  0  0999 V2000
  198.1078  183.5537  159.1513 F   0  0  0  0  0  0  0  0  0  0  0  0
  196.8089  183.8894  159.3321 C   0  0  0  0  0  0  0  0  0  0  0  0
  195.7860  183.1143  158.7478 C   0  0  0  0  0  0  0  0  0  0  0  0
  194.4413  183.4841  158.9409 C   0  0  0  0  0  0  0  0  0  0  0  0
  194.1211  184.6020  159.7326 C   0  0  0  0  0  0  0  0  0  0  0  0
  195.1421  185.3824  160.3309 C   0  0  0  0  0  0  0  0  0  0  0  0
  194.9127  186.4868  161.1258 O   0  0  0  0  0  0  0  0  0  0  0  0
  193.5685  186.8214  161.4385 C   0  0  2  0  0  0  0  0  0  0  0  0
  196.4846  185.0170  160.1088 C   0  0  0  0  0  0  0  0  0  0  0  0
  196.1239  181.8898  157.9182 C   0  0  1  0  0  0  0  0  0  0  0  0
  196.2287  182.2527  156.4957 N   0  0  1  0  0  0  0  0  0  0  0  0
  196.9069  181.2638  155.6337 C   0  0  1  0  0  0  0  0  0  0  0  0
  196.9470  181.7143  154.1497 C   0  0  2  0  0  0  0  0  0  0  0  0
  197.7833  180.7985  153.3384 N   0  0  0  0  0  0  0  0  0  0  0  0
  198.9155  181.3786  152.8762 C   0  0  0  0  0  0  0  0  0  0  0  0
  199.8371  180.8693  152.2397 O   0  0  0  0  0  0  0  0  0  0  0  0
  198.8217  182.8102  153.2352 C   0  0  0  0  0  0  0  0  0  0  0  0
  197.6647  183.0338  153.9569 C   0  0  0  0  0  0  0  0  0  0  0  0
  197.2962  184.3307  154.3605 C   0  0  0  0  0  0  0  0  0  0  0  0
  198.1655  185.3951  154.0334 C   0  0  0  0  0  0  0  0  0  0  0  0
  199.3598  185.1581  153.3086 C   0  0  0  0  0  0  0  0  0  0  0  0
  199.7006  183.8511  152.8924 C   0  0  0  0  0  0  0  0  0  0  0  0
  197.3419  179.4383  153.0292 C   0  0  1  0  0  0  0  0  0  0  0  0
  197.3124  179.1213  151.5411 C   0  0  0  0  0  0  0  0  0  0  0  0
  198.2621  178.2369  150.9846 C   0  0  0  0  0  0  0  0  0  0  0  0
  198.2487  177.9490  149.6051 C   0  0  0  0  0  0  0  0  0  0  0  0
  197.2858  178.5523  148.7752 C   0  0  0  0  0  0  0  0  0  0  0  0
  196.3390  179.4375  149.3242 C   0  0  0  0  0  0  0  0  0  0  0  0
  196.3514  179.7276  150.7034 C   0  0  0  0  0  0  0  0  0  0  0  0
  195.2834  182.4203  156.1505 H   0  0  0  0  0  0  0  0  0  0  0  0
  193.6457  182.9124  158.4807 H   0  0  0  0  0  0  0  0  0  0  0  0
  193.0770  184.8548  159.8570 H   0  0  0  0  0  0  0  0  0  0  0  0
  193.5590  187.7176  162.0599 H   0  0  0  0  0  0  0  0  0  0  0  0
  193.0799  186.0248  162.0003 H   0  0  0  0  0  0  0  0  0  0  0  0
  192.9828  187.0373  160.5446 H   0  0  0  0  0  0  0  0  0  0  0  0
  197.2766  185.6064  160.5473 H   0  0  0  0  0  0  0  0  0  0  0  0
  197.0534  181.4451  158.2809 H   0  0  0  0  0  0  0  0  0  0  0  0
  195.3273  181.1585  158.0349 H   0  0  0  0  0  0  0  0  0  0  0  0
  197.9212  181.1207  156.0104 H   0  0  0  0  0  0  0  0  0  0  0  0
  196.3994  180.3013  155.7296 H   0  0  0  0  0  0  0  0  0  0  0  0
  195.9475  181.7846  153.7232 H   0  0  0  0  0  0  0  0  0  0  0  0
  196.3723  184.5215  154.8860 H   0  0  0  0  0  0  0  0  0  0  0  0
  197.9104  186.4007  154.3313 H   0  0  0  0  0  0  0  0  0  0  0  0
  200.0084  185.9851  153.0586 H   0  0  0  0  0  0  0  0  0  0  0  0
  200.5942  183.6573  152.3181 H   0  0  0  0  0  0  0  0  0  0  0  0
  197.9956  178.7342  153.5425 H   0  0  0  0  0  0  0  0  0  0  0  0
  196.3445  179.2761  153.4330 H   0  0  0  0  0  0  0  0  0  0  0  0
  199.0089  177.7738  151.6126 H   0  0  0  0  0  0  0  0  0  0  0  0
  198.9757  177.2679  149.1829 H   0  0  0  0  0  0  0  0  0  0  0  0
  197.2664  178.3266  147.7192 H   0  0  0  0  0  0  0  0  0  0  0  0
  195.5817  179.8522  148.6758 H   0  0  0  0  0  0  0  0  0  0  0  0
  195.6266  180.4109  151.1202 H   0  0  0  0  0  0  0  0  0  0  0  0
  196.7474  183.1142  156.4316 H   0  0  0  0  0  0  0  0  0  0  0  0
  1  2  1  0
  2  3  2  0
  2  9  1  0
  3  4  1  0
  3 10  1  0
  4  5  2  0
  4 31  1  0
  5  6  1  0
  5 32  1  0
  6  7  1  0
  6  9  2  0
  7  8  1  0
  8 33  1  1
  8 34  1  0
  8 35  1  0
  9 36  1  0
 10 11  1  0
 10 37  1  1
 10 38  1  0
 11 12  1  0
 11 30  1  6
 11 53  1  0
 12 13  1  0
 12 39  1  1
 12 40  1  0
 13 14  1  0
 13 18  1  0
 13 41  1  6
 14 15  1  0
 14 23  1  0
 15 16  2  0
 15 17  1  0
 17 18  1  0
 17 22  2  0
 18 19  2  0
 19 20  1  0
 19 42  1  0
 20 21  2  0
 20 43  1  0
 21 22  1  0
 21 44  1  0
 22 45  1  0
 23 24  1  0
 23 46  1  1
 23 47  1  0
 24 25  2  0
 24 29  1  0
 25 26  1  0
 25 48  1  0
 26 27  2  0
 26 49  1  0
 27 28  1  0
 27 50  1  0
 28 29  2  0
 28 51  1  0
 29 52  1  0
M  CHG  1  11   1
M  END
>  <s_epik_cmdline>  (719) 
J2VwaWtfcHl0aG9uJywgJy1waCcsICc3LjAwMDAwMCcsICctcGh0JywgJzIuMDAwMDAwJywgJy1tcycsICcxNicsICctdG4nLCAnOCcsICctbWEnLCAnMjAwJywgJy1pbWFlJywgJzxpbmZpbGUubWFlPicsICctb21hZScsICc8b3V0ZmlsZS5tYWU+Jw==

>  <s_epik_input>  (719) 
W0NIM11PYyhbY0hdMSlbY0hdW2NIXWMoYzFGKVtDSDJdW05IXVtDSDJdW0NAQEhdKGMoYzIzKVtjSF1bY0hdW2NIXVtjSF0zKU4oQzI9TylbQ0gyXWM0W2NIXVtjSF1bY0hdW2NIXVtjSF00

>  <s_i_glide_gridfile>  (719) 
ATP-Grid

>  <s_lp_Force_Field>  (719) 
OPLS_2005

>  <s_lp_Variant>  (719) 
m_270004bbb____12219716____11686696-1

>  <s_lp_label>  (719) 
1594_sdstereoexpander_1_neutralizer_1_epik_1_stereoizer_1

>  <s_m_source_file>  (719) 
ATP-VSW-LIGPREP-003-in.maegz

>  <s_sd_BIOSOLVEIT.INFINISEE\_QUERY\_NAME>  (719) 
Ref-Lig

>  <s_sd_BIOSOLVEIT.INFINISEE\_QUERY\_SMILES>  (719) 
S(c1nc2c(cc1C[NH2+]Cc3ccc(cc3)C[NH+](C)C)cccc2)Cc4ccccc4

>  <s_sd_BIOSOLVEIT.INFINISEE\_REACTION\_NAME>  (719) 
m_270004bbb

>  <s_sd_BIOSOLVEIT.INFINISEE\_REAGENT1\_SMILES>  (719) 
[R1*]NCC1N(C(=O)c2c1cccc2)Cc3ccccc3

>  <s_sd_BIOSOLVEIT.INFINISEE\_REAGENT2\_SMILES>  (719) 
[R1*]Cc1c(F)cc(OC)cc1

>  <s_sd_BIOSOLVEIT.INFINISEE\_SPACE>  (719) 
REALSpace_44bn_2023-08

>  <s_vsw_compound_code>  (719) 
50979

>  <s_vsw_variant>  (719) 
50979-1

>  <r_epik_Charging_Adjusted_Penalty>  (719) 
0.124297884975544

>  <r_epik_Ionization_Penalty>  (719) 
0.062100000000000002

>  <r_epik_Ionization_Penalty_Charging>  (719) 
0.062100000000000002

>  <r_epik_Ionization_Penalty_Neutral>  (719) 
0

>  <r_epik_State_Penalty>  (719) 
0.062100000000000002

>  <r_i_docking_score>  (719) 
-5.7483543131688402

>  <r_i_glide_ecoul>  (719) 
-10.329779624939

>  <r_i_glide_eff_state_penalty>  (719) 
0.062100000000000002

>  <r_i_glide_einternal>  (719) 
2.0889148712158199

>  <r_i_glide_emodel>  (719) 
-66.242528405755905

>  <r_i_glide_energy>  (719) 
-43.9588079452515

>  <r_i_glide_erotb>  (719) 
0.76409230606485301

>  <r_i_glide_esite>  (719) 
-0.090885312416141104

>  <r_i_glide_evdw>  (719) 
-33.6290283203125

>  <r_i_glide_gscore>  (719) 
-5.8104543131688402

>  <r_i_glide_hbond>  (719) 
-0.20000000000000001

>  <r_i_glide_ligand_efficiency>  (719) 
-0.19821911424720201

>  <r_i_glide_ligand_efficiency_ln>  (719) 
-1.3162273720272899

>  <r_i_glide_ligand_efficiency_sa>  (719) 
-0.60899191919067097

>  <r_i_glide_lipo>  (719) 
-2.1568283193615501

>  <r_i_glide_metal>  (719) 
-0

>  <r_i_glide_rewards>  (719) 
-0.895914627699536

>  <r_lp_Energy>  (719) 
44.323242

>  <r_lp_tautomer_probability>  (719) 
1

>  <r_qp_ACxDN^.5/SA>  (719) 
0.0074371999999999997

>  <r_qp_CIQPlogS>  (719) 
-5.2000000000000002

>  <r_qp_EA(eV)>  (719) 
0.36699999999999999

>  <r_qp_FISA>  (719) 
39.274999999999999

>  <r_qp_FOSA>  (719) 
185.64599999999999

>  <r_qp_IP(eV)>  (719) 
9.2850000000000001

>  <r_qp_Jm>  (719) 
0.040743543745364798

>  <r_qp_PISA>  (719) 
453.85000000000002

>  <r_qp_PSA>  (719) 
49.216999999999999

>  <r_qp_PercentHumanOralAbsorption>  (719) 
100

>  <r_qp_QPPCaco>  (719) 
1047.9860000000001

>  <r_qp_QPPMDCK>  (719) 
810.822

>  <r_qp_QPlogBB>  (719) 
0.19900000000000001

>  <r_qp_QPlogHERG>  (719) 
-7.6379999999999999

>  <r_qp_QPlogKhsa>  (719) 
0.72599999999999998

>  <r_qp_QPlogKp>  (719) 
-2.0350000000000001

>  <r_qp_QPlogPC16>  (719) 
13.532999999999999

>  <r_qp_QPlogPo/w>  (719) 
4.8570000000000002

>  <r_qp_QPlogPoct>  (719) 
19.478000000000002

>  <r_qp_QPlogPw>  (719) 
9.8729999999999993

>  <r_qp_QPlogS>  (719) 
-4.9459999999999997

>  <r_qp_QPpolrz>  (719) 
44.307000000000002

>  <r_qp_SASA>  (719) 
705.91499999999996

>  <r_qp_SAamideO>  (719) 
0

>  <r_qp_SAfluorine>  (719) 
27.143999999999998

>  <r_qp_WPSA>  (719) 
27.143999999999998

>  <r_qp_accptHB>  (719) 
5.25

>  <r_qp_dip^2/V>  (719) 
0.046172199999999997

>  <r_qp_dipole>  (719) 
7.6420000000000003

>  <r_qp_donorHB>  (719) 
1

>  <r_qp_glob>  (719) 
0.80127720000000002

>  <r_qp_mol_MW>  (719) 
390.45600000000002

>  <r_qp_volume>  (719) 
1264.896

>  <r_sd_BIOSOLVEIT.INFINISEE\_FTREES\_SIMILARITY>  (719) 
0.90600000000000003

>  <r_sd_BIOSOLVEIT.LOGP>  (719) 
3.2949999999999999

>  <r_sd_BIOSOLVEIT.MOLECULAR\_WEIGHT>  (719) 
391.464

>  <r_sd_BIOSOLVEIT.TPSA>  (719) 
46.149999999999999

>  <i_epik_Tot_Q>  (719) 
1

>  <i_epik_Tot_abs_Q>  (719) 
1

>  <i_f3d_flags>  (719) 
0

>  <i_i_glide_confnum>  (719) 
2

>  <i_i_glide_lignum>  (719) 
604

>  <i_i_glide_posenum>  (719) 
1

>  <i_i_glide_rotatable_bonds>  (719) 
7

>  <i_lp_mmshare_version>  (719) 
65135

>  <i_m_ct_format>  (719) 
2

>  <i_m_source_file_index>  (719) 
1594

>  <i_qp_#NandO>  (719) 
4

>  <i_qp_#acid>  (719) 
0

>  <i_qp_#amide>  (719) 
0

>  <i_qp_#amidine>  (719) 
0

>  <i_qp_#amine>  (719) 
1

>  <i_qp_#in34>  (719) 
0

>  <i_qp_#in56>  (719) 
21

>  <i_qp_#metab>  (719) 
5

>  <i_qp_#nonHatm>  (719) 
29

>  <i_qp_#noncon>  (719) 
1

>  <i_qp_#ringatoms>  (719) 
21

>  <i_qp_#rotor>  (719) 
7

>  <i_qp_#rtvFG>  (719) 
0

>  <i_qp_#stars>  (719) 
1

>  <i_qp_CNS>  (719) 
1

>  <i_qp_HumanOralAbsorption>  (719) 
3

>  <i_qp_RuleOfFive>  (719) 
0

>  <i_qp_RuleOfThree>  (719) 
0

>  <i_sd_BIOSOLVEIT.INFINISEE\_REAGENT1\_NAME>  (719) 
12219716

>  <i_sd_BIOSOLVEIT.INFINISEE\_REAGENT2\_NAME>  (719) 
11686696

>  <i_sd_BIOSOLVEIT.INFINISEE\_RESULT\_RANK>  (719) 
65405

>  <i_sd_version>  (719) 
0

>  <b_lp_Chiralities_Consistent>  (719) 
1

>  <b_sd_chiral_flag>  (719) 
0

>  <canonical_id>  (719) 
ATP-HTVS-6F858A0E8812

>  <compound_code>  (719) 
50979

>  <title>  (719) 
m_270004bbb____12219716____11686696

>  <variant>  (719) 
50979-1

>  <source_file>  (719) 
运行/运行/ATP-VSW/ATP-VSW-DOCK_HTVS_1-003_lib/ATP-VSW-DOCK_HTVS_1-003_lib.mae

>  <canonical_smiles>  (719) 
COc1ccc(C[NH2+]C[C@H]2c3ccccc3C(=O)N2Cc2ccccc2)c(F)c1

>  <scaffold>  (719) 
O=C1c2ccccc2C(C[NH2+]Cc2ccccc2)N1Cc1ccccc1

>  <molecular_formula>  (719) 
C24H24FN2O2+

$$$$
ATP-HTVS-6FE04A77CC41
     RDKit          3D

 62 65  0  0  0  0  0  0  0  0999 V2000
  196.9424  184.3791  152.2789 O   0  0  0  0  0  0  0  0  0  0  0  0
  197.3232  183.3563  152.8484 C   0  0  0  0  0  0  0  0  0  0  0  0
  198.0012  183.3253  154.0085 N   0  0  0  0  0  0  0  0  0  0  0  0
  198.2213  184.3453  154.9765 C   0  0  0  0  0  0  0  0  0  0  0  0
  197.5178  185.5043  154.9474 N   0  0  0  0  0  0  0  0  0  0  0  0
  197.7010  186.4169  155.9184 C   0  0  0  0  0  0  0  0  0  0  0  0
  198.5815  186.2431  157.0002 C   0  0  0  0  0  0  0  0  0  0  0  0
  198.6342  187.2380  158.0008 N   0  0  0  0  0  0  0  0  0  0  0  0
  198.2361  186.9954  159.3899 C   0  0  1  0  0  0  0  0  0  0  0  0
  197.0661  186.0446  159.6221 C   0  0  0  0  0  0  0  0  0  0  0  0
  197.2197  184.6409  159.4891 C   0  0  0  0  0  0  0  0  0  0  0  0
  196.1070  183.7879  159.6190 C   0  0  0  0  0  0  0  0  0  0  0  0
  194.8481  184.3204  160.0020 C   0  0  0  0  0  0  0  0  0  0  0  0
  194.7036  185.7207  160.1831 C   0  0  0  0  0  0  0  0  0  0  0  0
  195.8074  186.5846  159.9852 C   0  0  0  0  0  0  0  0  0  0  0  0
  196.2884  182.3062  159.3033 C   0  0  1  0  0  0  0  0  0  0  0  0
  195.6347  181.8345  158.0462 N   0  0  2  0  0  0  0  0  0  0  0  0
  196.1185  182.5450  156.8351 C   0  0  2  0  0  0  0  0  0  0  0  0
  194.1622  181.8067  158.1186 C   0  0  2  0  0  0  0  0  0  0  0  0
  199.3243  185.0267  157.0662 C   0  0  0  0  0  0  0  0  0  0  0  0
  199.1081  184.0492  156.0414 C   0  0  0  0  0  0  0  0  0  0  0  0
  199.7490  182.7756  156.1735 C   0  0  0  0  0  0  0  0  0  0  0  0
  200.5672  182.4867  157.2801 C   0  0  0  0  0  0  0  0  0  0  0  0
  200.7940  183.4736  158.2585 C   0  0  0  0  0  0  0  0  0  0  0  0
  200.2044  184.7520  158.1253 C   0  0  0  0  0  0  0  0  0  0  0  0
  197.1408  182.0067  152.1932 C   0  0  0  0  0  0  0  0  0  0  0  0
  196.9691  180.8084  152.9455 C   0  0  0  0  0  0  0  0  0  0  0  0
  196.9980  180.8731  154.3265 O   0  0  0  0  0  0  0  0  0  0  0  0
  197.1535  179.6855  155.0787 C   0  0  2  0  0  0  0  0  0  0  0  0
  196.7845  179.5802  152.2525 C   0  0  0  0  0  0  0  0  0  0  0  0
  196.7563  179.5488  150.8457 C   0  0  0  0  0  0  0  0  0  0  0  0
  196.9259  180.7292  150.1132 C   0  0  0  0  0  0  0  0  0  0  0  0
  197.1067  181.9518  150.7799 C   0  0  0  0  0  0  0  0  0  0  0  0
  198.3249  182.4071  154.2753 H   0  0  0  0  0  0  0  0  0  0  0  0
  197.0883  187.3104  155.8422 H   0  0  0  0  0  0  0  0  0  0  0  0
  199.0570  188.1308  157.7721 H   0  0  0  0  0  0  0  0  0  0  0  0
  199.0856  186.6143  159.9500 H   0  0  0  0  0  0  0  0  0  0  0  0
  197.9987  187.9648  159.8386 H   0  0  0  0  0  0  0  0  0  0  0  0
  198.1750  184.1720  159.2616 H   0  0  0  0  0  0  0  0  0  0  0  0
  193.9822  183.6808  160.1586 H   0  0  0  0  0  0  0  0  0  0  0  0
  193.7334  186.1227  160.4546 H   0  0  0  0  0  0  0  0  0  0  0  0
  195.6868  187.6606  160.1228 H   0  0  0  0  0  0  0  0  0  0  0  0
  197.3569  182.0806  159.2185 H   0  0  0  0  0  0  0  0  0  0  0  0
  195.9319  181.7172  160.1235 H   0  0  0  0  0  0  0  0  0  0  0  0
  195.9532  183.6206  156.8760 H   0  0  0  0  0  0  0  0  0  0  0  0
  195.6253  182.1495  155.9446 H   0  0  0  0  0  0  0  0  0  0  0  0
  197.1830  182.3358  156.7509 H   0  0  0  0  0  0  0  0  0  0  0  0
  193.7399  182.8103  158.1309 H   0  0  0  0  0  0  0  0  0  0  0  0
  193.8583  181.2318  158.9976 H   0  0  0  0  0  0  0  0  0  0  0  0
  193.7655  181.2927  157.2437 H   0  0  0  0  0  0  0  0  0  0  0  0
  199.5618  181.9682  155.4793 H   0  0  0  0  0  0  0  0  0  0  0  0
  200.9907  181.4909  157.4164 H   0  0  0  0  0  0  0  0  0  0  0  0
  201.3844  183.2534  159.1300 H   0  0  0  0  0  0  0  0  0  0  0  0
  200.4407  185.4953  158.8804 H   0  0  0  0  0  0  0  0  0  0  0  0
  197.1810  179.9388  156.1336 H   0  0  0  0  0  0  0  0  0  0  0  0
  198.0768  179.1632  154.8335 H   0  0  0  0  0  0  0  0  0  0  0  0
  196.2988  179.0358  154.9556 H   0  0  0  0  0  0  0  0  0  0  0  0
  196.6347  178.6430  152.7680 H   0  0  0  0  0  0  0  0  0  0  0  0
  196.5981  178.6239  150.3127 H   0  0  0  0  0  0  0  0  0  0  0  0
  196.9131  180.7010  149.0345 H   0  0  0  0  0  0  0  0  0  0  0  0
  197.2390  182.8558  150.2090 H   0  0  0  0  0  0  0  0  0  0  0  0
  195.9129  180.8779  157.9197 H   0  0  0  0  0  0  0  0  0  0  0  0
  1  2  2  0
  2  3  1  0
  2 26  1  0
  3  4  1  0
  3 34  1  0
  4  5  1  0
  4 21  2  0
  5  6  2  0
  6  7  1  0
  6 35  1  0
  7  8  1  0
  7 20  2  0
  8  9  1  0
  8 36  1  0
  9 10  1  0
  9 37  1  1
  9 38  1  0
 10 11  2  0
 10 15  1  0
 11 12  1  0
 11 39  1  0
 12 13  2  0
 12 16  1  0
 13 14  1  0
 13 40  1  0
 14 15  2  0
 14 41  1  0
 15 42  1  0
 16 17  1  0
 16 43  1  6
 16 44  1  0
 17 18  1  0
 17 19  1  0
 17 62  1  6
 18 45  1  1
 18 46  1  0
 18 47  1  0
 19 48  1  1
 19 49  1  0
 19 50  1  0
 20 21  1  0
 20 25  1  0
 21 22  1  0
 22 23  2  0
 22 51  1  0
 23 24  1  0
 23 52  1  0
 24 25  2  0
 24 53  1  0
 25 54  1  0
 26 27  1  0
 26 33  2  0
 27 28  1  0
 27 30  2  0
 28 29  1  0
 29 55  1  1
 29 56  1  0
 29 57  1  0
 30 31  1  0
 30 58  1  0
 31 32  2  0
 31 59  1  0
 32 33  1  0
 32 60  1  0
 33 61  1  0
M  CHG  1  17   1
M  END
>  <s_epik_cmdline>  (720) 
J2VwaWtfcHl0aG9uJywgJy1waCcsICc3LjAwMDAwMCcsICctcGh0JywgJzIuMDAwMDAwJywgJy1tcycsICcxNicsICctdG4nLCAnOCcsICctbWEnLCAnMjAwJywgJy1pbWFlJywgJzxpbmZpbGUubWFlPicsICctb21hZScsICc8b3V0ZmlsZS5tYWU+Jw==

>  <s_epik_input>  (720) 
W2NIXTFbY0hdW2NIXVtjSF1jKE9bQ0gzXSljMUMoPU8pW05IXWMoYyhjMjMpW2NIXVtjSF1bY0hdW2NIXTMpbltjSF1jMltOSF1bQ0gyXWM0W2NIXWMoW2NIXVtjSF1bY0hdNClbQ0gyXU4oW0NIM10pW0NIM10=

>  <s_i_glide_gridfile>  (720) 
ATP-Grid

>  <s_lp_Force_Field>  (720) 
OPLS_2005

>  <s_lp_Variant>  (720) 
rxn502b____EMOL485008____EMOL7515103____EMOL2873214-1

>  <s_lp_label>  (720) 
2244_sdstereoexpander_1_neutralizer_1_epik_1_stereoizer_1

>  <s_m_source_file>  (720) 
ATP-VSW-LIGPREP-001-in.maegz

>  <s_sd_BIOSOLVEIT.INFINISEE\_QUERY\_NAME>  (720) 
Ref-Lig

>  <s_sd_BIOSOLVEIT.INFINISEE\_QUERY\_SMILES>  (720) 
S(c1nc2c(cc1C[NH2+]Cc3ccc(cc3)C[NH+](C)C)cccc2)Cc4ccccc4

>  <s_sd_BIOSOLVEIT.INFINISEE\_REACTION\_NAME>  (720) 
rxn502b

>  <s_sd_BIOSOLVEIT.INFINISEE\_REAGENT1\_NAME>  (720) 
EMOL485008

>  <s_sd_BIOSOLVEIT.INFINISEE\_REAGENT1\_SMILES>  (720) 
O=C(O)c1c(OC)cccc1

>  <s_sd_BIOSOLVEIT.INFINISEE\_REAGENT2\_NAME>  (720) 
EMOL7515103

>  <s_sd_BIOSOLVEIT.INFINISEE\_REAGENT2\_SMILES>  (720) 
Brc1c2c(c(nc1)N)cccc2

>  <s_sd_BIOSOLVEIT.INFINISEE\_REAGENT3\_NAME>  (720) 
EMOL2873214

>  <s_sd_BIOSOLVEIT.INFINISEE\_REAGENT3\_SMILES>  (720) 
N(Cc1cc(ccc1)CN)(C)C

>  <s_sd_BIOSOLVEIT.INFINISEE\_SPACE>  (720) 
eXplore_7tr_2022-12

>  <s_vsw_compound_code>  (720) 
71777

>  <s_vsw_variant>  (720) 
71777-1

>  <r_epik_Charging_Adjusted_Penalty>  (720) 
0.088195370499548398

>  <r_epik_Ionization_Penalty>  (720) 
0.044200000000000003

>  <r_epik_Ionization_Penalty_Charging>  (720) 
0.0441

>  <r_epik_Ionization_Penalty_Neutral>  (720) 
0.0001

>  <r_epik_State_Penalty>  (720) 
0.0441

>  <r_i_docking_score>  (720) 
-5.24355766827584

>  <r_i_glide_ecoul>  (720) 
-9.1359491348266602

>  <r_i_glide_eff_state_penalty>  (720) 
0.0441

>  <r_i_glide_einternal>  (720) 
12.052966117858899

>  <r_i_glide_emodel>  (720) 
-58.827696487252297

>  <r_i_glide_energy>  (720) 
-43.552041053772001

>  <r_i_glide_erotb>  (720) 
0.71722435937715501

>  <r_i_glide_esite>  (720) 
-0.135968937927226

>  <r_i_glide_evdw>  (720) 
-34.416091918945298

>  <r_i_glide_gscore>  (720) 
-5.2876576682758403

>  <r_i_glide_hbond>  (720) 
-0.20000000000000001

>  <r_i_glide_ligand_efficiency>  (720) 
-0.15889568691745001

>  <r_i_glide_ligand_efficiency_ln>  (720) 
-1.1661400757359599

>  <r_i_glide_ligand_efficiency_sa>  (720) 
-0.50966337008197404

>  <r_i_glide_lipo>  (720) 
-1.9541576690090501

>  <r_i_glide_metal>  (720) 
-0

>  <r_i_glide_rewards>  (720) 
-0.623558454545453

>  <r_lp_Energy>  (720) 
37.987287999999999

>  <r_lp_tautomer_probability>  (720) 
1

>  <r_qp_ACxDN^.5/SA>  (720) 
0.0124633

>  <r_qp_CIQPlogS>  (720) 
-5.4950000000000001

>  <r_qp_EA(eV)>  (720) 
0.78600000000000003

>  <r_qp_FISA>  (720) 
65.203999999999994

>  <r_qp_FOSA>  (720) 
291.17399999999998

>  <r_qp_IP(eV)>  (720) 
7.5830000000000002

>  <r_qp_Jm>  (720) 
0.00218579353564577

>  <r_qp_PISA>  (720) 
466.27999999999997

>  <r_qp_PSA>  (720) 
66.424999999999997

>  <r_qp_PercentHumanOralAbsorption>  (720) 
100

>  <r_qp_QPPCaco>  (720) 
594.93299999999999

>  <r_qp_QPPMDCK>  (720) 
312.21699999999998

>  <r_qp_QPlogBB>  (720) 
-0.27000000000000002

>  <r_qp_QPlogHERG>  (720) 
-8.3460000000000001

>  <r_qp_QPlogKhsa>  (720) 
0.78700000000000003

>  <r_qp_QPlogKp>  (720) 
-2.3730000000000002

>  <r_qp_QPlogPC16>  (720) 
16.367999999999999

>  <r_qp_QPlogPo/w>  (720) 
4.8979999999999997

>  <r_qp_QPlogPoct>  (720) 
24.456

>  <r_qp_QPlogPw>  (720) 
13.619999999999999

>  <r_qp_QPlogS>  (720) 
-5.931

>  <r_qp_QPpolrz>  (720) 
52.127000000000002

>  <r_qp_SASA>  (720) 
822.65800000000002

>  <r_qp_SAamideO>  (720) 
0

>  <r_qp_SAfluorine>  (720) 
0

>  <r_qp_WPSA>  (720) 
0

>  <r_qp_accptHB>  (720) 
7.25

>  <r_qp_dip^2/V>  (720) 
0.035666700000000003

>  <r_qp_dipole>  (720) 
7.2489999999999997

>  <r_qp_donorHB>  (720) 
2

>  <r_qp_glob>  (720) 
0.76118699999999995

>  <r_qp_mol_MW>  (720) 
440.54399999999998

>  <r_qp_volume>  (720) 
1473.394

>  <r_sd_BIOSOLVEIT.INFINISEE\_FTREES\_SIMILARITY>  (720) 
0.92700000000000005

>  <r_sd_BIOSOLVEIT.LOGP>  (720) 
3.7523

>  <r_sd_BIOSOLVEIT.MOLECULAR\_WEIGHT>  (720) 
441.55200000000002

>  <r_sd_BIOSOLVEIT.TPSA>  (720) 
67.689999999999998

>  <i_epik_Tot_Q>  (720) 
1

>  <i_epik_Tot_abs_Q>  (720) 
1

>  <i_f3d_flags>  (720) 
0

>  <i_i_glide_confnum>  (720) 
7

>  <i_i_glide_lignum>  (720) 
766

>  <i_i_glide_posenum>  (720) 
7

>  <i_i_glide_rotatable_bonds>  (720) 
9

>  <i_lp_mmshare_version>  (720) 
65135

>  <i_m_ct_format>  (720) 
2

>  <i_m_source_file_index>  (720) 
2244

>  <i_qp_#NandO>  (720) 
6

>  <i_qp_#acid>  (720) 
0

>  <i_qp_#amide>  (720) 
0

>  <i_qp_#amidine>  (720) 
0

>  <i_qp_#amine>  (720) 
1

>  <i_qp_#in34>  (720) 
0

>  <i_qp_#in56>  (720) 
22

>  <i_qp_#metab>  (720) 
8

>  <i_qp_#nonHatm>  (720) 
33

>  <i_qp_#noncon>  (720) 
0

>  <i_qp_#ringatoms>  (720) 
22

>  <i_qp_#rotor>  (720) 
8

>  <i_qp_#rtvFG>  (720) 
0

>  <i_qp_#stars>  (720) 
2

>  <i_qp_CNS>  (720) 
1

>  <i_qp_HumanOralAbsorption>  (720) 
3

>  <i_qp_RuleOfFive>  (720) 
0

>  <i_qp_RuleOfThree>  (720) 
2

>  <i_sd_BIOSOLVEIT.INFINISEE\_RESULT\_RANK>  (720) 
7176

>  <i_sd_version>  (720) 
0

>  <b_lp_Chiralities_Consistent>  (720) 
1

>  <b_sd_chiral_flag>  (720) 
0

>  <canonical_id>  (720) 
ATP-HTVS-6FE04A77CC41

>  <compound_code>  (720) 
71777

>  <title>  (720) 
rxn502b____EMOL485008____EMOL7515103____EMOL2873214

>  <variant>  (720) 
71777-1

>  <source_file>  (720) 
运行/运行/ATP-VSW/ATP-VSW-DOCK_HTVS_1-001_lib/ATP-VSW-DOCK_HTVS_1-001_lib

>  <canonical_smiles>  (720) 
COc1ccccc1C(=O)Nc1ncc(NCc2cccc(C[NH+](C)C)c2)c2ccccc12

>  <scaffold>  (720) 
O=C(Nc1ncc(NCc2ccccc2)c2ccccc12)c1ccccc1

>  <molecular_formula>  (720) 
C27H29N4O2+

$$$$
ATP-HTVS-702B49CD2E82
     RDKit          3D

 55 58  0  0  0  0  0  0  0  0999 V2000
  195.0199  181.9364  157.9917 Cl  0  0  0  0  0  0  0  0  0  0  0  0
  195.9088  183.3965  158.2323 C   0  0  0  0  0  0  0  0  0  0  0  0
  195.3652  184.3000  159.1504 C   0  0  0  0  0  0  0  0  0  0  0  0
  194.2048  183.9434  159.7727 O   0  0  0  0  0  0  0  0  0  0  0  0
  195.9776  185.5291  159.4059 C   0  0  0  0  0  0  0  0  0  0  0  0
  197.1500  185.9054  158.6800 C   0  0  0  0  0  0  0  0  0  0  0  0
  197.6990  187.1828  158.9436 C   0  0  0  0  0  0  0  0  0  0  0  0
  197.1369  188.0379  159.9175 C   0  0  0  0  0  0  0  0  0  0  0  0
  195.9945  187.6405  160.6382 C   0  0  0  0  0  0  0  0  0  0  0  0
  195.4208  186.3913  160.3743 C   0  0  0  0  0  0  0  0  0  0  0  0
  197.7186  184.9995  157.7251 C   0  0  0  0  0  0  0  0  0  0  0  0
  198.9106  185.3427  156.9981 N   0  0  0  0  0  0  0  0  0  0  0  0
  200.1790  185.5429  157.6277 C   0  0  0  0  0  0  0  0  0  0  0  0
  201.2896  186.1559  156.9865 C   0  0  0  0  0  0  0  0  0  0  0  0
  202.5259  186.3092  157.6506 C   0  0  0  0  0  0  0  0  0  0  0  0
  202.6835  185.8807  158.9810 C   0  0  0  0  0  0  0  0  0  0  0  0
  201.5914  185.3034  159.6493 C   0  0  0  0  0  0  0  0  0  0  0  0
  200.3612  185.1294  158.9773 C   0  0  0  0  0  0  0  0  0  0  0  0
  198.6767  185.9439  155.6662 C   0  0  1  0  0  0  0  0  0  0  0  0
  197.7713  185.1270  154.7176 C   0  0  1  0  0  0  0  0  0  0  0  0
  197.5386  185.8375  153.4478 N   0  0  2  0  0  0  0  0  0  0  0  0
  197.1078  183.7211  157.5332 C   0  0  0  0  0  0  0  0  0  0  0  0
  197.6867  182.8404  156.6086 N   0  0  0  0  0  0  0  0  0  0  0  0
  198.0195  181.4794  156.9965 C   0  0  1  0  0  0  0  0  0  0  0  0
  198.4330  180.6311  155.8226 C   0  0  0  0  0  0  0  0  0  0  0  0
  197.6786  180.5985  154.6255 C   0  0  0  0  0  0  0  0  0  0  0  0
  198.0504  179.7345  153.5729 C   0  0  0  0  0  0  0  0  0  0  0  0
  199.1856  178.9066  153.7170 C   0  0  0  0  0  0  0  0  0  0  0  0
  199.9361  178.9327  154.9122 C   0  0  0  0  0  0  0  0  0  0  0  0
  199.5588  179.8001  155.9557 C   0  0  0  0  0  0  0  0  0  0  0  0
  196.9596  185.2393  152.8650 H   0  0  0  0  0  0  0  0  0  0  0  0
  198.4211  186.0273  152.9901 H   0  0  0  0  0  0  0  0  0  0  0  0
  198.5818  187.5385  158.4284 H   0  0  0  0  0  0  0  0  0  0  0  0
  197.5853  188.9927  160.1323 H   0  0  0  0  0  0  0  0  0  0  0  0
  195.5560  188.2910  161.3806 H   0  0  0  0  0  0  0  0  0  0  0  0
  194.5383  186.0871  160.9220 H   0  0  0  0  0  0  0  0  0  0  0  0
  201.2605  186.5415  155.9782 H   0  0  0  0  0  0  0  0  0  0  0  0
  203.3580  186.7543  157.1324 H   0  0  0  0  0  0  0  0  0  0  0  0
  203.6388  186.0000  159.4841 H   0  0  0  0  0  0  0  0  0  0  0  0
  201.6951  184.9881  160.6809 H   0  0  0  0  0  0  0  0  0  0  0  0
  199.5535  184.6855  159.5406 H   0  0  0  0  0  0  0  0  0  0  0  0
  198.3007  186.9594  155.7984 H   0  0  0  0  0  0  0  0  0  0  0  0
  199.5995  186.0231  155.0875 H   0  0  0  0  0  0  0  0  0  0  0  0
  198.2731  184.2021  154.4531 H   0  0  0  0  0  0  0  0  0  0  0  0
  196.7790  184.9155  155.1261 H   0  0  0  0  0  0  0  0  0  0  0  0
  198.4799  183.2753  156.1607 H   0  0  0  0  0  0  0  0  0  0  0  0
  198.8453  181.5576  157.7061 H   0  0  0  0  0  0  0  0  0  0  0  0
  197.1905  180.9322  157.4599 H   0  0  0  0  0  0  0  0  0  0  0  0
  196.7850  181.1965  154.5266 H   0  0  0  0  0  0  0  0  0  0  0  0
  197.4646  179.6870  152.6617 H   0  0  0  0  0  0  0  0  0  0  0  0
  199.4845  178.2419  152.9148 H   0  0  0  0  0  0  0  0  0  0  0  0
  200.7934  178.2848  155.0431 H   0  0  0  0  0  0  0  0  0  0  0  0
  200.1042  179.7945  156.8848 H   0  0  0  0  0  0  0  0  0  0  0  0
  197.0533  186.6893  153.6451 H   0  0  0  0  0  0  0  0  0  0  0  0
  193.9711  183.0803  159.4660 H   0  0  0  0  0  0  0  0  0  0  0  0
  1  2  1  0
  2  3  2  0
  2 22  1  0
  3  4  1  0
  3  5  1  0
  4 55  1  0
  5  6  1  0
  5 10  2  0
  6  7  2  0
  6 11  1  0
  7  8  1  0
  7 33  1  0
  8  9  2  0
  8 34  1  0
  9 10  1  0
  9 35  1  0
 10 36  1  0
 11 12  1  0
 11 22  2  0
 12 13  1  0
 12 19  1  0
 13 14  2  0
 13 18  1  0
 14 15  1  0
 14 37  1  0
 15 16  2  0
 15 38  1  0
 16 17  1  0
 16 39  1  0
 17 18  2  0
 17 40  1  0
 18 41  1  0
 19 20  1  0
 19 42  1  1
 19 43  1  0
 20 21  1  0
 20 44  1  6
 20 45  1  0
 21 31  1  6
 21 32  1  0
 21 54  1  0
 22 23  1  0
 23 24  1  0
 23 46  1  0
 24 25  1  0
 24 47  1  1
 24 48  1  0
 25 26  2  0
 25 30  1  0
 26 27  1  0
 26 49  1  0
 27 28  2  0
 27 50  1  0
 28 29  1  0
 28 51  1  0
 29 30  2  0
 29 52  1  0
 30 53  1  0
M  CHG  1  21   1
M  END
>  <s_epik_cmdline>  (721) 
J2VwaWtfcHl0aG9uJywgJy1waCcsICc3LjAwMDAwMCcsICctcGh0JywgJzIuMDAwMDAwJywgJy1tcycsICcxNicsICctdG4nLCAnOCcsICctbWEnLCAnMjAwJywgJy1pbWFlJywgJzxpbmZpbGUubWFlPicsICctb21hZScsICc8b3V0ZmlsZS5tYWU+Jw==

>  <s_epik_input>  (721) 
W2NIXTFbY0hdW2NIXVtjSF1bY0hdYzFbQ0gyXVtOSF1DKD1DKENsKUMyPU8pW0NAQEhdKGMoYzIzKVtjSF1bY0hdW2NIXVtjSF0zKU4oW0NIMl1bQ0gyXVtOSDJdKWM0W2NIXVtjSF1bY0hdW2NIXVtjSF00

>  <s_i_glide_gridfile>  (721) 
ATP-Grid

>  <s_lp_Force_Field>  (721) 
OPLS_2005

>  <s_lp_Variant>  (721) 
rxn207____EMOL1096385____EMOL530647-1

>  <s_lp_label>  (721) 
2346_sdstereoexpander_1_neutralizer_1_epik_1_stereoizer_1

>  <s_m_source_file>  (721) 
ATP-VSW-LIGPREP-003-in.maegz

>  <s_sd_BIOSOLVEIT.INFINISEE\_QUERY\_NAME>  (721) 
Ref-Lig

>  <s_sd_BIOSOLVEIT.INFINISEE\_QUERY\_SMILES>  (721) 
S(c1nc2c(cc1C[NH2+]Cc3ccc(cc3)C[NH+](C)C)cccc2)Cc4ccccc4

>  <s_sd_BIOSOLVEIT.INFINISEE\_REACTION\_NAME>  (721) 
rxn207

>  <s_sd_BIOSOLVEIT.INFINISEE\_REAGENT1\_NAME>  (721) 
EMOL1096385

>  <s_sd_BIOSOLVEIT.INFINISEE\_REAGENT1\_SMILES>  (721) 
ClC=1C(=O)c2c(cccc2)C(=O)C1NCc3ccccc3

>  <s_sd_BIOSOLVEIT.INFINISEE\_REAGENT2\_NAME>  (721) 
EMOL530647

>  <s_sd_BIOSOLVEIT.INFINISEE\_REAGENT2\_SMILES>  (721) 
N(c1ccccc1)CCN

>  <s_sd_BIOSOLVEIT.INFINISEE\_SPACE>  (721) 
eXplore_7tr_2022-12

>  <s_vsw_compound_code>  (721) 
75043

>  <s_vsw_variant>  (721) 
75043-1

>  <r_epik_Charging_Adjusted_Penalty>  (721) 
0.00812629616748522

>  <r_epik_Ionization_Penalty>  (721) 
0.0083000000000000001

>  <r_epik_Ionization_Penalty_Charging>  (721) 
0.00059999999999999995

>  <r_epik_Ionization_Penalty_Neutral>  (721) 
0.0076

>  <r_epik_State_Penalty>  (721) 
0.0074999999999999997

>  <r_i_docking_score>  (721) 
-3.5794056047898599

>  <r_i_glide_ecoul>  (721) 
-5.1252961158752397

>  <r_i_glide_eff_state_penalty>  (721) 
0.0074999999999999997

>  <r_i_glide_einternal>  (721) 
2.1421885490417498

>  <r_i_glide_emodel>  (721) 
-43.251889426158002

>  <r_i_glide_energy>  (721) 
-34.307817935943604

>  <r_i_glide_erotb>  (721) 
0.67616351223673199

>  <r_i_glide_esite>  (721) 
-0.0210113515866997

>  <r_i_glide_evdw>  (721) 
-29.182521820068398

>  <r_i_glide_gscore>  (721) 
-3.5869056047898602

>  <r_i_glide_hbond>  (721) 
0

>  <r_i_glide_ligand_efficiency>  (721) 
-0.119313520159662

>  <r_i_glide_ligand_efficiency_ln>  (721) 
-0.81327995415603405

>  <r_i_glide_ligand_efficiency_sa>  (721) 
-0.370734847819568

>  <r_i_glide_lipo>  (721) 
-1.46144316614609

>  <r_i_glide_metal>  (721) 
-0

>  <r_i_glide_rewards>  (721) 
-0.55269409090908905

>  <r_lp_Energy>  (721) 
37.993383999999999

>  <r_qp_ACxDN^.5/SA>  (721) 
0.0101072

>  <r_qp_CIQPlogS>  (721) 
-6.2690000000000001

>  <r_qp_EA(eV)>  (721) 
0.88600000000000001

>  <r_qp_FISA>  (721) 
90.197000000000003

>  <r_qp_FOSA>  (721) 
50.415999999999997

>  <r_qp_IP(eV)>  (721) 
8.125

>  <r_qp_Jm>  (721) 
0.15348880691011599

>  <r_qp_PISA>  (721) 
451.32100000000003

>  <r_qp_PSA>  (721) 
55.713999999999999

>  <r_qp_PercentHumanOralAbsorption>  (721) 
100

>  <r_qp_QPPCaco>  (721) 
344.71800000000002

>  <r_qp_QPPMDCK>  (721) 
330.05599999999998

>  <r_qp_QPlogBB>  (721) 
-0.26000000000000001

>  <r_qp_QPlogHERG>  (721) 
-6.609

>  <r_qp_QPlogKhsa>  (721) 
0.64100000000000001

>  <r_qp_QPlogKp>  (721) 
-2.79

>  <r_qp_QPlogPC16>  (721) 
14.759

>  <r_qp_QPlogPo/w>  (721) 
4.5700000000000003

>  <r_qp_QPlogPoct>  (721) 
21.812999999999999

>  <r_qp_QPlogPw>  (721) 
12.042999999999999

>  <r_qp_QPlogS>  (721) 
-3.645

>  <r_qp_QPpolrz>  (721) 
41.676000000000002

>  <r_qp_SASA>  (721) 
643.10299999999995

>  <r_qp_SAamideO>  (721) 
0

>  <r_qp_SAfluorine>  (721) 
0

>  <r_qp_WPSA>  (721) 
51.168999999999997

>  <r_qp_accptHB>  (721) 
3.25

>  <r_qp_dip^2/V>  (721) 
0.0047951000000000001

>  <r_qp_dipole>  (721) 
2.4300000000000002

>  <r_qp_donorHB>  (721) 
4

>  <r_qp_glob>  (721) 
0.86414740000000001

>  <r_qp_mol_MW>  (721) 
417.93700000000001

>  <r_qp_volume>  (721) 
1231.8420000000001

>  <r_sd_BIOSOLVEIT.INFINISEE\_FTREES\_SIMILARITY>  (721) 
0.92100000000000004

>  <r_sd_BIOSOLVEIT.LOGP>  (721) 
3.9127000000000001

>  <r_sd_BIOSOLVEIT.MOLECULAR\_WEIGHT>  (721) 
418.94600000000003

>  <r_sd_BIOSOLVEIT.TPSA>  (721) 
59.979999999999997

>  <i_epik_Tot_Q>  (721) 
1

>  <i_epik_Tot_abs_Q>  (721) 
1

>  <i_f3d_flags>  (721) 
0

>  <i_i_glide_confnum>  (721) 
6

>  <i_i_glide_lignum>  (721) 
977

>  <i_i_glide_posenum>  (721) 
1

>  <i_i_glide_rotatable_bonds>  (721) 
8

>  <i_lp_mmshare_version>  (721) 
65135

>  <i_m_ct_format>  (721) 
2

>  <i_m_source_file_index>  (721) 
2346

>  <i_qp_#NandO>  (721) 
4

>  <i_qp_#acid>  (721) 
0

>  <i_qp_#amide>  (721) 
0

>  <i_qp_#amidine>  (721) 
0

>  <i_qp_#amine>  (721) 
1

>  <i_qp_#in34>  (721) 
0

>  <i_qp_#in56>  (721) 
22

>  <i_qp_#metab>  (721) 
8

>  <i_qp_#nonHatm>  (721) 
30

>  <i_qp_#noncon>  (721) 
0

>  <i_qp_#ringatoms>  (721) 
22

>  <i_qp_#rotor>  (721) 
9

>  <i_qp_#rtvFG>  (721) 
0

>  <i_qp_#stars>  (721) 
1

>  <i_qp_CNS>  (721) 
0

>  <i_qp_HumanOralAbsorption>  (721) 
3

>  <i_qp_RuleOfFive>  (721) 
0

>  <i_qp_RuleOfThree>  (721) 
1

>  <i_sd_BIOSOLVEIT.INFINISEE\_RESULT\_RANK>  (721) 
15592

>  <i_sd_version>  (721) 
0

>  <b_lp_Chiralities_Consistent>  (721) 
1

>  <b_sd_chiral_flag>  (721) 
0

>  <canonical_id>  (721) 
ATP-HTVS-702B49CD2E82

>  <compound_code>  (721) 
75043

>  <title>  (721) 
rxn207____EMOL1096385____EMOL530647

>  <variant>  (721) 
75043-1

>  <source_file>  (721) 
运行/运行/ATP-VSW/ATP-VSW-DOCK_HTVS_1-003_lib/ATP-VSW-DOCK_HTVS_1-003_lib.mae

>  <canonical_smiles>  (721) 
[NH3+]CCN(c1ccccc1)c1c(NCc2ccccc2)c(Cl)c(O)c2ccccc12

>  <scaffold>  (721) 
c1ccc(CNc2ccc3ccccc3c2Nc2ccccc2)cc1

>  <molecular_formula>  (721) 
C25H25ClN3O+

$$$$
ATP-HTVS-7075BC6FC110
     RDKit          3D

 61 64  0  0  0  0  0  0  0  0999 V2000
  196.7800  184.7496  149.3320 Cl  0  0  0  0  0  0  0  0  0  0  0  0
  197.8398  184.8473  150.6947 C   0  0  0  0  0  0  0  0  0  0  0  0
  198.7563  185.8393  150.6757 N   0  0  0  0  0  0  0  0  0  0  0  0
  199.5983  185.9582  151.7205 C   0  0  0  0  0  0  0  0  0  0  0  0
  199.5602  185.1091  152.8390 C   0  0  0  0  0  0  0  0  0  0  0  0
  198.5981  184.0874  152.8669 C   0  0  0  0  0  0  0  0  0  0  0  0
  197.7227  183.9287  151.7704 C   0  0  0  0  0  0  0  0  0  0  0  0
  196.6430  182.8479  151.7951 C   0  0  1  0  0  0  0  0  0  0  0  0
  197.1199  181.4743  152.0068 N   0  0  0  0  0  0  0  0  0  0  0  0
  197.3407  181.0331  153.3348 C   0  0  0  0  0  0  0  0  0  0  0  0
  196.6059  181.5991  154.3184 N   0  0  0  0  0  0  0  0  0  0  0  0
  196.7447  181.2131  155.5840 C   0  0  0  0  0  0  0  0  0  0  0  0
  197.5951  180.2510  155.9281 N   0  0  0  0  0  0  0  0  0  0  0  0
  198.3472  179.6279  155.0066 C   0  0  0  0  0  0  0  0  0  0  0  0
  198.2751  180.0245  153.6518 C   0  0  0  0  0  0  0  0  0  0  0  0
  199.1224  179.3902  152.7068 C   0  0  0  0  0  0  0  0  0  0  0  0
  199.9713  178.3385  153.1036 C   0  0  0  0  0  0  0  0  0  0  0  0
  200.0130  177.9348  154.4561 C   0  0  0  0  0  0  0  0  0  0  0  0
  199.2034  178.5889  155.4070 C   0  0  0  0  0  0  0  0  0  0  0  0
  195.9709  181.8552  156.5287 N   0  0  0  0  0  0  0  0  0  0  0  0
  196.1947  181.7622  157.9652 C   0  0  1  0  0  0  0  0  0  0  0  0
  196.0770  183.0754  158.7053 C   0  0  0  0  0  0  0  0  0  0  0  0
  197.2484  183.7042  159.1683 C   0  0  0  0  0  0  0  0  0  0  0  0
  197.1594  184.9037  159.8763 C   0  0  0  0  0  0  0  0  0  0  0  0
  195.9185  185.5541  160.0578 C   0  0  0  0  0  0  0  0  0  0  0  0
  194.7488  184.8975  159.6225 C   0  0  0  0  0  0  0  0  0  0  0  0
  194.8206  183.6648  158.9449 C   0  0  0  0  0  0  0  0  0  0  0  0
  195.8475  186.9260  160.7265 C   0  0  1  0  0  0  0  0  0  0  0  0
  196.3559  188.0556  159.8882 N   0  0  2  0  0  0  0  0  0  0  0  0
  197.7045  187.8745  159.2868 C   0  0  2  0  0  0  0  0  0  0  0  0
  196.2984  189.3436  160.6158 C   0  0  2  0  0  0  0  0  0  0  0  0
  196.5155  180.4496  151.1596 C   0  0  2  0  0  0  0  0  0  0  0  0
  200.3303  186.7509  151.6595 H   0  0  0  0  0  0  0  0  0  0  0  0
  200.2532  185.2386  153.6579 H   0  0  0  0  0  0  0  0  0  0  0  0
  198.5439  183.4431  153.7328 H   0  0  0  0  0  0  0  0  0  0  0  0
  195.9470  183.1613  152.5722 H   0  0  0  0  0  0  0  0  0  0  0  0
  196.0459  182.8605  150.8867 H   0  0  0  0  0  0  0  0  0  0  0  0
  199.1313  179.6897  151.6668 H   0  0  0  0  0  0  0  0  0  0  0  0
  200.5957  177.8389  152.3682 H   0  0  0  0  0  0  0  0  0  0  0  0
  200.6741  177.1340  154.7612 H   0  0  0  0  0  0  0  0  0  0  0  0
  199.2254  178.2758  156.4429 H   0  0  0  0  0  0  0  0  0  0  0  0
  195.1224  182.3297  156.1931 H   0  0  0  0  0  0  0  0  0  0  0  0
  195.4696  181.0772  158.3911 H   0  0  0  0  0  0  0  0  0  0  0  0
  197.1815  181.3535  158.1771 H   0  0  0  0  0  0  0  0  0  0  0  0
  198.2205  183.2694  158.9758 H   0  0  0  0  0  0  0  0  0  0  0  0
  198.0789  185.3504  160.2386 H   0  0  0  0  0  0  0  0  0  0  0  0
  193.7739  185.3522  159.7749 H   0  0  0  0  0  0  0  0  0  0  0  0
  193.9177  183.1796  158.5958 H   0  0  0  0  0  0  0  0  0  0  0  0
  194.8036  187.1440  160.9745 H   0  0  0  0  0  0  0  0  0  0  0  0
  196.3523  186.8844  161.6891 H   0  0  0  0  0  0  0  0  0  0  0  0
  198.4371  187.6895  160.0726 H   0  0  0  0  0  0  0  0  0  0  0  0
  198.0271  188.7596  158.7397 H   0  0  0  0  0  0  0  0  0  0  0  0
  197.7233  187.0541  158.5699 H   0  0  0  0  0  0  0  0  0  0  0  0
  196.9555  189.3332  161.4873 H   0  0  0  0  0  0  0  0  0  0  0  0
  195.2860  189.5728  160.9507 H   0  0  0  0  0  0  0  0  0  0  0  0
  196.6200  190.1603  159.9697 H   0  0  0  0  0  0  0  0  0  0  0  0
  197.0487  179.4988  151.1838 H   0  0  0  0  0  0  0  0  0  0  0  0
  196.4988  180.7845  150.1217 H   0  0  0  0  0  0  0  0  0  0  0  0
  195.4950  180.2588  151.4920 H   0  0  0  0  0  0  0  0  0  0  0  0
  197.6045  179.8908  156.8951 H   0  0  0  0  0  0  0  0  0  0  0  0
  195.7171  188.1421  159.1113 H   0  0  0  0  0  0  0  0  0  0  0  0
  1  2  1  0
  2  3  1  0
  2  7  2  0
  3  4  2  0
  4  5  1  0
  4 33  1  0
  5  6  2  0
  5 34  1  0
  6  7  1  0
  6 35  1  0
  7  8  1  0
  8  9  1  0
  8 36  1  1
  8 37  1  0
  9 10  1  0
  9 32  1  0
 10 11  2  0
 10 15  1  0
 11 12  1  0
 12 13  2  0
 12 20  1  0
 13 14  1  0
 13 60  1  0
 14 15  1  0
 14 19  2  0
 15 16  2  0
 16 17  1  0
 16 38  1  0
 17 18  2  0
 17 39  1  0
 18 19  1  0
 18 40  1  0
 19 41  1  0
 20 21  1  0
 20 42  1  0
 21 22  1  0
 21 43  1  1
 21 44  1  0
 22 23  1  0
 22 27  2  0
 23 24  2  0
 23 45  1  0
 24 25  1  0
 24 46  1  0
 25 26  2  0
 25 28  1  0
 26 27  1  0
 26 47  1  0
 27 48  1  0
 28 29  1  0
 28 49  1  1
 28 50  1  0
 29 30  1  0
 29 31  1  0
 29 61  1  6
 30 51  1  1
 30 52  1  0
 30 53  1  0
 31 54  1  1
 31 55  1  0
 31 56  1  0
 32 57  1  6
 32 58  1  0
 32 59  1  0
M  CHG  2  13   1  29   1
M  END
>  <s_epik_cmdline>  (722) 
J2VwaWtfcHl0aG9uJywgJy1waCcsICc3LjAwMDAwMCcsICctcGh0JywgJzIuMDAwMDAwJywgJy1tcycsICcxNicsICctdG4nLCAnOCcsICctbWEnLCAnMjAwJywgJy1pbWFlJywgJzxpbmZpbGUubWFlPicsICctb21hZScsICc8b3V0ZmlsZS5tYWU+Jw==

>  <s_epik_input>  (722) 
Q2xjMW5bY0hdW2NIXVtjSF1jMVtDSDJdTihbQ0gzXSljKGMoYzIzKVtjSF1bY0hdW2NIXVtjSF0zKW5jKG4yKVtOSF1bQ0gyXWM0W2NIXVtjSF1jKFtjSF1bY0hdNClbQ0gyXU4oW0NIM10pW0NIM10=

>  <s_i_glide_gridfile>  (722) 
ATP-Grid

>  <s_lp_Force_Field>  (722) 
OPLS_2005

>  <s_lp_Variant>  (722) 
m_282030aaa____21929760____22360182____21976216-1

>  <s_lp_label>  (722) 
1251_sdstereoexpander_1_neutralizer_1_epik_1_stereoizer_1

>  <s_m_source_file>  (722) 
ATP-VSW-LIGPREP-003-in.maegz

>  <s_sd_BIOSOLVEIT.INFINISEE\_QUERY\_NAME>  (722) 
Ref-Lig

>  <s_sd_BIOSOLVEIT.INFINISEE\_QUERY\_SMILES>  (722) 
S(c1nc2c(cc1C[NH2+]Cc3ccc(cc3)C[NH+](C)C)cccc2)Cc4ccccc4

>  <s_sd_BIOSOLVEIT.INFINISEE\_REACTION\_NAME>  (722) 
m_282030aaa

>  <s_sd_BIOSOLVEIT.INFINISEE\_REAGENT1\_SMILES>  (722) 
[R1*]NCc1ccc(cc1)CN(C)C

>  <s_sd_BIOSOLVEIT.INFINISEE\_REAGENT2\_SMILES>  (722) 
[R2*]c1nc([R1*])c2c(n1)cccc2

>  <s_sd_BIOSOLVEIT.INFINISEE\_REAGENT3\_SMILES>  (722) 
[R2*]N(Cc1c(Cl)nccc1)C

>  <s_sd_BIOSOLVEIT.INFINISEE\_SPACE>  (722) 
REALSpace_44bn_2023-08

>  <s_vsw_compound_code>  (722) 
40003

>  <s_vsw_variant>  (722) 
40003-1

>  <r_epik_Charging_Adjusted_Penalty>  (722) 
0.083981343921351495

>  <r_epik_Ionization_Penalty>  (722) 
0.0448

>  <r_epik_Ionization_Penalty_Charging>  (722) 
0.0448

>  <r_epik_Ionization_Penalty_Neutral>  (722) 
0

>  <r_epik_State_Penalty>  (722) 
0.039199999999999999

>  <r_i_docking_score>  (722) 
-4.7422281860517899

>  <r_i_glide_ecoul>  (722) 
-6.8341703414917001

>  <r_i_glide_eff_state_penalty>  (722) 
0.039199999999999999

>  <r_i_glide_einternal>  (722) 
5.76401567459106

>  <r_i_glide_emodel>  (722) 
-61.721282123613499

>  <r_i_glide_energy>  (722) 
-42.454340934753397

>  <r_i_glide_erotb>  (722) 
0.69576385238525196

>  <r_i_glide_esite>  (722) 
-0.25944907298844

>  <r_i_glide_evdw>  (722) 
-35.620170593261697

>  <r_i_glide_gscore>  (722) 
-4.78142818605179

>  <r_i_glide_hbond>  (722) 
-0.233375409830618

>  <r_i_glide_ligand_efficiency>  (722) 
-0.14819463081411799

>  <r_i_glide_ligand_efficiency_ln>  (722) 
-1.06191415911512

>  <r_i_glide_ligand_efficiency_sa>  (722) 
-0.47048862515721102

>  <r_i_glide_lipo>  (722) 
-1.80090112973518

>  <r_i_glide_metal>  (722) 
-0

>  <r_i_glide_rewards>  (722) 
-0.37733234499595902

>  <r_lp_Energy>  (722) 
26.651589999999999

>  <r_qp_ACxDN^.5/SA>  (722) 
0.0087092999999999997

>  <r_qp_CIQPlogS>  (722) 
-6.1760000000000002

>  <r_qp_EA(eV)>  (722) 
0.84899999999999998

>  <r_qp_FISA>  (722) 
61.866

>  <r_qp_FOSA>  (722) 
226.125

>  <r_qp_IP(eV)>  (722) 
8.2620000000000005

>  <r_qp_Jm>  (722) 
0.045392012860453898

>  <r_qp_PISA>  (722) 
353.49799999999999

>  <r_qp_PSA>  (722) 
50.417000000000002

>  <r_qp_PercentHumanOralAbsorption>  (722) 
100

>  <r_qp_QPPCaco>  (722) 
639.91300000000001

>  <r_qp_QPPMDCK>  (722) 
614.42700000000002

>  <r_qp_QPlogBB>  (722) 
0.033000000000000002

>  <r_qp_QPlogHERG>  (722) 
-6.2789999999999999

>  <r_qp_QPlogKhsa>  (722) 
0.77300000000000002

>  <r_qp_QPlogKp>  (722) 
-2.7090000000000001

>  <r_qp_QPlogPC16>  (722) 
14.156000000000001

>  <r_qp_QPlogPo/w>  (722) 
4.8799999999999999

>  <r_qp_QPlogPoct>  (722) 
20.289000000000001

>  <r_qp_QPlogPw>  (722) 
9.8290000000000006

>  <r_qp_QPlogS>  (722) 
-4.2839999999999998

>  <r_qp_QPpolrz>  (722) 
45.945999999999998

>  <r_qp_SASA>  (722) 
688.91499999999996

>  <r_qp_SAamideO>  (722) 
0

>  <r_qp_SAfluorine>  (722) 
0

>  <r_qp_WPSA>  (722) 
47.426000000000002

>  <r_qp_accptHB>  (722) 
6

>  <r_qp_dip^2/V>  (722) 
0.013858499999999999

>  <r_qp_dipole>  (722) 
4.319

>  <r_qp_donorHB>  (722) 
1

>  <r_qp_glob>  (722) 
0.85572219999999999

>  <r_qp_mol_MW>  (722) 
446.98099999999999

>  <r_qp_volume>  (722) 
1345.8610000000001

>  <r_sd_BIOSOLVEIT.INFINISEE\_FTREES\_SIMILARITY>  (722) 
0.91100000000000003

>  <r_sd_BIOSOLVEIT.LOGP>  (722) 
3.5712000000000002

>  <r_sd_BIOSOLVEIT.MOLECULAR\_WEIGHT>  (722) 
447.99099999999999

>  <r_sd_BIOSOLVEIT.TPSA>  (722) 
58.380000000000003

>  <i_epik_Tot_Q>  (722) 
2

>  <i_epik_Tot_abs_Q>  (722) 
2

>  <i_f3d_flags>  (722) 
0

>  <i_i_glide_confnum>  (722) 
3

>  <i_i_glide_lignum>  (722) 
513

>  <i_i_glide_posenum>  (722) 
2

>  <i_i_glide_rotatable_bonds>  (722) 
8

>  <i_lp_mmshare_version>  (722) 
65135

>  <i_m_ct_format>  (722) 
2

>  <i_m_source_file_index>  (722) 
1251

>  <i_qp_#NandO>  (722) 
6

>  <i_qp_#acid>  (722) 
0

>  <i_qp_#amide>  (722) 
0

>  <i_qp_#amidine>  (722) 
0

>  <i_qp_#amine>  (722) 
1

>  <i_qp_#in34>  (722) 
0

>  <i_qp_#in56>  (722) 
22

>  <i_qp_#metab>  (722) 
5

>  <i_qp_#nonHatm>  (722) 
32

>  <i_qp_#noncon>  (722) 
0

>  <i_qp_#ringatoms>  (722) 
22

>  <i_qp_#rotor>  (722) 
8

>  <i_qp_#rtvFG>  (722) 
0

>  <i_qp_#stars>  (722) 
0

>  <i_qp_CNS>  (722) 
1

>  <i_qp_HumanOralAbsorption>  (722) 
3

>  <i_qp_RuleOfFive>  (722) 
0

>  <i_qp_RuleOfThree>  (722) 
0

>  <i_sd_BIOSOLVEIT.INFINISEE\_REAGENT1\_NAME>  (722) 
21929760

>  <i_sd_BIOSOLVEIT.INFINISEE\_REAGENT2\_NAME>  (722) 
22360182

>  <i_sd_BIOSOLVEIT.INFINISEE\_REAGENT3\_NAME>  (722) 
21976216

>  <i_sd_BIOSOLVEIT.INFINISEE\_RESULT\_RANK>  (722) 
43506

>  <i_sd_version>  (722) 
0

>  <b_lp_Chiralities_Consistent>  (722) 
1

>  <b_sd_chiral_flag>  (722) 
0

>  <canonical_id>  (722) 
ATP-HTVS-7075BC6FC110

>  <compound_code>  (722) 
40003

>  <title>  (722) 
m_282030aaa____21929760____22360182____21976216

>  <variant>  (722) 
40003-1

>  <source_file>  (722) 
运行/运行/ATP-VSW/ATP-VSW-DOCK_HTVS_1-003_lib/ATP-VSW-DOCK_HTVS_1-003_lib.mae

>  <canonical_smiles>  (722) 
CN(Cc1cccnc1Cl)c1nc(NCc2ccc(C[NH+](C)C)cc2)[nH+]c2ccccc12

>  <scaffold>  (722) 
c1ccc(CNc2nc(NCc3cccnc3)c3ccccc3[nH+]2)cc1

>  <molecular_formula>  (722) 
C25H29ClN6+2

$$$$
ATP-HTVS-708569B81B35
     RDKit          3D

 61 64  0  0  0  0  0  0  0  0999 V2000
  194.0429  184.2337  159.6551 Cl  0  0  0  0  0  0  0  0  0  0  0  0
  195.7148  184.5269  159.3738 C   0  0  0  0  0  0  0  0  0  0  0  0
  196.1329  185.7247  158.7617 C   0  0  0  0  0  0  0  0  0  0  0  0
  197.5095  185.9723  158.5482 C   0  0  0  0  0  0  0  0  0  0  0  0
  198.4556  185.0032  158.9509 C   0  0  0  0  0  0  0  0  0  0  0  0
  198.0339  183.8040  159.5550 C   0  0  0  0  0  0  0  0  0  0  0  0
  196.6644  183.5661  159.7625 C   0  0  0  0  0  0  0  0  0  0  0  0
  197.9889  187.2485  157.8740 C   0  0  2  0  0  0  0  0  0  0  0  0
  197.0708  188.3173  157.9662 O   0  0  0  0  0  0  0  0  0  0  0  0
  198.3770  186.9991  156.4788 C   0  0  0  0  0  0  0  0  0  0  0  0
  198.6887  186.7486  155.3218 C   0  0  0  0  0  0  0  0  0  0  0  0
  199.0196  186.4143  153.9792 C   0  0  0  0  0  0  0  0  0  0  0  0
  199.9360  187.2098  153.2023 C   0  0  0  0  0  0  0  0  0  0  0  0
  200.0621  186.5827  151.9299 C   0  0  0  0  0  0  0  0  0  0  0  0
  199.2439  185.4789  151.9648 N   0  0  0  0  0  0  0  0  0  0  0  0
  198.6105  185.3530  153.1991 C   0  0  0  0  0  0  0  0  0  0  0  0
  197.7243  184.1868  153.4543 C   0  0  0  0  0  0  0  0  0  0  0  0
  197.1962  184.0178  154.5541 O   0  0  0  0  0  0  0  0  0  0  0  0
  197.5802  183.3315  152.4282 N   0  0  0  0  0  0  0  0  0  0  0  0
  196.8861  182.0573  152.4659 C   0  0  1  0  0  0  0  0  0  0  0  0
  197.6140  180.9933  153.2660 C   0  0  0  0  0  0  0  0  0  0  0  0
  198.9128  180.5668  152.9069 C   0  0  0  0  0  0  0  0  0  0  0  0
  199.5626  179.5649  153.6620 C   0  0  0  0  0  0  0  0  0  0  0  0
  198.9124  178.9849  154.7758 C   0  0  0  0  0  0  0  0  0  0  0  0
  197.6259  179.4273  155.1337 C   0  0  0  0  0  0  0  0  0  0  0  0
  196.9786  180.4221  154.3835 C   0  0  0  0  0  0  0  0  0  0  0  0
  199.6086  177.9254  155.6213 C   0  0  1  0  0  0  0  0  0  0  0  0
  199.9474  178.3842  156.9901 N   0  0  1  0  0  0  0  0  0  0  0  0
  200.8073  177.4129  157.7043 C   0  0  2  0  0  0  0  0  0  0  0  0
  200.5203  179.7527  157.0589 C   0  0  2  0  0  0  0  0  0  0  0  0
  200.8902  187.0885  150.9155 C   0  0  0  0  0  0  0  0  0  0  0  0
  201.6082  188.2748  151.1379 C   0  0  0  0  0  0  0  0  0  0  0  0
  201.5103  188.9213  152.3856 C   0  0  0  0  0  0  0  0  0  0  0  0
  200.6938  188.3888  153.4088 C   0  0  0  0  0  0  0  0  0  0  0  0
  195.3866  186.4430  158.4552 H   0  0  0  0  0  0  0  0  0  0  0  0
  199.5098  185.1725  158.7841 H   0  0  0  0  0  0  0  0  0  0  0  0
  198.7592  183.0646  159.8626 H   0  0  0  0  0  0  0  0  0  0  0  0
  196.3473  182.6455  160.2290 H   0  0  0  0  0  0  0  0  0  0  0  0
  198.8966  187.5720  158.3844 H   0  0  0  0  0  0  0  0  0  0  0  0
  197.2612  188.8091  158.7516 H   0  0  0  0  0  0  0  0  0  0  0  0
  199.1600  184.8250  151.2056 H   0  0  0  0  0  0  0  0  0  0  0  0
  197.9917  183.5757  151.5452 H   0  0  0  0  0  0  0  0  0  0  0  0
  195.8757  182.2167  152.8409 H   0  0  0  0  0  0  0  0  0  0  0  0
  196.7873  181.6944  151.4404 H   0  0  0  0  0  0  0  0  0  0  0  0
  199.4162  181.0188  152.0626 H   0  0  0  0  0  0  0  0  0  0  0  0
  200.5613  179.2505  153.3885 H   0  0  0  0  0  0  0  0  0  0  0  0
  197.1384  179.0092  156.0020 H   0  0  0  0  0  0  0  0  0  0  0  0
  195.9987  180.7636  154.6873 H   0  0  0  0  0  0  0  0  0  0  0  0
  198.9640  177.0424  155.6954 H   0  0  0  0  0  0  0  0  0  0  0  0
  200.5112  177.6048  155.1045 H   0  0  0  0  0  0  0  0  0  0  0  0
  201.7789  177.3193  157.2151 H   0  0  0  0  0  0  0  0  0  0  0  0
  200.3443  176.4256  157.7123 H   0  0  0  0  0  0  0  0  0  0  0  0
  200.9755  177.7160  158.7379 H   0  0  0  0  0  0  0  0  0  0  0  0
  201.4425  179.8076  156.4722 H   0  0  0  0  0  0  0  0  0  0  0  0
  200.7695  180.0336  158.0858 H   0  0  0  0  0  0  0  0  0  0  0  0
  199.8350  180.5130  156.6872 H   0  0  0  0  0  0  0  0  0  0  0  0
  200.9424  186.5919  149.9586 H   0  0  0  0  0  0  0  0  0  0  0  0
  202.2226  188.6898  150.3521 H   0  0  0  0  0  0  0  0  0  0  0  0
  202.0641  189.8357  152.5547 H   0  0  0  0  0  0  0  0  0  0  0  0
  200.6333  188.8984  154.3579 H   0  0  0  0  0  0  0  0  0  0  0  0
  199.0533  178.3835  157.4749 H   0  0  0  0  0  0  0  0  0  0  0  0
  1  2  1  0
  2  3  2  0
  2  7  1  0
  3  4  1  0
  3 35  1  0
  4  5  2  0
  4  8  1  0
  5  6  1  0
  5 36  1  0
  6  7  2  0
  6 37  1  0
  7 38  1  0
  8  9  1  0
  8 10  1  0
  8 39  1  1
  9 40  1  0
 10 11  3  0
 11 12  1  0
 12 13  1  0
 12 16  2  0
 13 14  1  0
 13 34  2  0
 14 15  1  0
 14 31  2  0
 15 16  1  0
 15 41  1  0
 16 17  1  0
 17 18  2  0
 17 19  1  0
 19 20  1  0
 19 42  1  0
 20 21  1  0
 20 43  1  1
 20 44  1  0
 21 22  1  0
 21 26  2  0
 22 23  2  0
 22 45  1  0
 23 24  1  0
 23 46  1  0
 24 25  2  0
 24 27  1  0
 25 26  1  0
 25 47  1  0
 26 48  1  0
 27 28  1  0
 27 49  1  1
 27 50  1  0
 28 29  1  0
 28 30  1  0
 28 61  1  1
 29 51  1  6
 29 52  1  0
 29 53  1  0
 30 54  1  6
 30 55  1  0
 30 56  1  0
 31 32  1  0
 31 57  1  0
 32 33  2  0
 32 58  1  0
 33 34  1  0
 33 59  1  0
 34 60  1  0
M  CHG  1  28   1
M  END
>  <s_epik_cmdline>  (723) 
J2VwaWtfcHl0aG9uJywgJy1waCcsICc3LjAwMDAwMCcsICctcGh0JywgJzIuMDAwMDAwJywgJy1tcycsICcxNicsICctdG4nLCAnOCcsICctbWEnLCAnMjAwJywgJy1pbWFlJywgJzxpbmZpbGUubWFlPicsICctb21hZScsICc8b3V0ZmlsZS5tYWU+Jw==

>  <s_epik_input>  (723) 
Q2xjMVtjSF1jKFtjSF1bY0hdW2NIXTEpW0NASF0oW09IXSlDI0NjMmMoW25IXWMoYzIzKVtjSF1bY0hdW2NIXVtjSF0zKUMoPU8pW05IXVtDSDJdYzRbY0hdW2NIXWMoW2NIXVtjSF00KVtDSDJdTihbQ0gzXSlbQ0gzXQ==

>  <s_i_glide_gridfile>  (723) 
ATP-Grid

>  <s_lp_Force_Field>  (723) 
OPLS_2005

>  <s_lp_Variant>  (723) 
rxn513b____EMOL50155899____EMOL719673____EMOL40864115-2

>  <s_lp_label>  (723) 
2861_sdstereoexpander_2_neutralizer_1_epik_1_stereoizer_1

>  <s_m_source_file>  (723) 
ATP-VSW-LIGPREP-001-in.maegz

>  <s_sd_BIOSOLVEIT.INFINISEE\_QUERY\_NAME>  (723) 
Ref-Lig

>  <s_sd_BIOSOLVEIT.INFINISEE\_QUERY\_SMILES>  (723) 
S(c1nc2c(cc1C[NH2+]Cc3ccc(cc3)C[NH+](C)C)cccc2)Cc4ccccc4

>  <s_sd_BIOSOLVEIT.INFINISEE\_REACTION\_NAME>  (723) 
rxn513b

>  <s_sd_BIOSOLVEIT.INFINISEE\_REAGENT1\_NAME>  (723) 
EMOL50155899

>  <s_sd_BIOSOLVEIT.INFINISEE\_REAGENT1\_SMILES>  (723) 
N(Cc1ccc(cc1)CN)(C)C

>  <s_sd_BIOSOLVEIT.INFINISEE\_REAGENT2\_NAME>  (723) 
EMOL719673

>  <s_sd_BIOSOLVEIT.INFINISEE\_REAGENT2\_SMILES>  (723) 
BrC=1c2c(NC1C(=O)O)cccc2

>  <s_sd_BIOSOLVEIT.INFINISEE\_REAGENT3\_NAME>  (723) 
EMOL40864115

>  <s_sd_BIOSOLVEIT.INFINISEE\_REAGENT3\_SMILES>  (723) 
Clc1cc(ccc1)C(O)C#C

>  <s_sd_BIOSOLVEIT.INFINISEE\_SPACE>  (723) 
eXplore_7tr_2022-12

>  <s_vsw_compound_code>  (723) 
91521

>  <s_vsw_variant>  (723) 
91521-2

>  <r_epik_Charging_Adjusted_Penalty>  (723) 
0.0903365638524595

>  <r_epik_Ionization_Penalty>  (723) 
0.047800000000000002

>  <r_epik_Ionization_Penalty_Charging>  (723) 
0.045199999999999997

>  <r_epik_Ionization_Penalty_Neutral>  (723) 
0.0027000000000000001

>  <r_epik_State_Penalty>  (723) 
0.045199999999999997

>  <r_i_docking_score>  (723) 
-4.2478476367007003

>  <r_i_glide_ecoul>  (723) 
-8.0573225021362305

>  <r_i_glide_eff_state_penalty>  (723) 
0.045199999999999997

>  <r_i_glide_einternal>  (723) 
4.1687345504760698

>  <r_i_glide_emodel>  (723) 
-57.383636905649198

>  <r_i_glide_energy>  (723) 
-43.437243461608901

>  <r_i_glide_erotb>  (723) 
0.63280883125612597

>  <r_i_glide_esite>  (723) 
-0.12198797730505299

>  <r_i_glide_evdw>  (723) 
-35.379920959472699

>  <r_i_glide_gscore>  (723) 
-4.2930476367006998

>  <r_i_glide_hbond>  (723) 
-0.20000000000000001

>  <r_i_glide_ligand_efficiency>  (723) 
-0.12493669519708001

>  <r_i_glide_ligand_efficiency_ln>  (723) 
-0.93846869103758002

>  <r_i_glide_ligand_efficiency_sa>  (723) 
-0.40474639169730597

>  <r_i_glide_lipo>  (723) 
-1.4420848400849799

>  <r_i_glide_metal>  (723) 
-0

>  <r_i_glide_rewards>  (723) 
-0.18418922727272599

>  <r_lp_Energy>  (723) 
9.9932020000000001

>  <r_qp_ACxDN^.5/SA>  (723) 
0.014486799999999999

>  <r_qp_CIQPlogS>  (723) 
-6.3710000000000004

>  <r_qp_EA(eV)>  (723) 
0.63600000000000001

>  <r_qp_FISA>  (723) 
114.01300000000001

>  <r_qp_FOSA>  (723) 
214.47200000000001

>  <r_qp_IP(eV)>  (723) 
8.375

>  <r_qp_Jm>  (723) 
0.0024136188472662799

>  <r_qp_PISA>  (723) 
368.45299999999997

>  <r_qp_PSA>  (723) 
75.545000000000002

>  <r_qp_PercentHumanOralAbsorption>  (723) 
94.698999999999998

>  <r_qp_QPPCaco>  (723) 
204.93199999999999

>  <r_qp_QPPMDCK>  (723) 
172.602

>  <r_qp_QPlogBB>  (723) 
-0.60099999999999998

>  <r_qp_QPlogHERG>  (723) 
-6.9189999999999996

>  <r_qp_QPlogKhsa>  (723) 
0.746

>  <r_qp_QPlogKp>  (723) 
-3.5209999999999999

>  <r_qp_QPlogPC16>  (723) 
15.686

>  <r_qp_QPlogPo/w>  (723) 
4.5049999999999999

>  <r_qp_QPlogPoct>  (723) 
24.283000000000001

>  <r_qp_QPlogPw>  (723) 
13.316000000000001

>  <r_qp_QPlogS>  (723) 
-4.7699999999999996

>  <r_qp_QPpolrz>  (723) 
48.034999999999997

>  <r_qp_SASA>  (723) 
741.27599999999995

>  <r_qp_SAamideO>  (723) 
0

>  <r_qp_SAfluorine>  (723) 
0

>  <r_qp_WPSA>  (723) 
44.338000000000001

>  <r_qp_accptHB>  (723) 
6.2000000000000002

>  <r_qp_dip^2/V>  (723) 
0.023544699999999998

>  <r_qp_dipole>  (723) 
5.7629999999999999

>  <r_qp_donorHB>  (723) 
3

>  <r_qp_glob>  (723) 
0.82055100000000003

>  <r_qp_mol_MW>  (723) 
471.98500000000001

>  <r_qp_volume>  (723) 
1410.5250000000001

>  <r_sd_BIOSOLVEIT.INFINISEE\_FTREES\_SIMILARITY>  (723) 
0.90500000000000003

>  <r_sd_BIOSOLVEIT.LOGP>  (723) 
3.4809000000000001

>  <r_sd_BIOSOLVEIT.MOLECULAR\_WEIGHT>  (723) 
472.99299999999999

>  <r_sd_BIOSOLVEIT.TPSA>  (723) 
69.560000000000002

>  <i_epik_Tot_Q>  (723) 
1

>  <i_epik_Tot_abs_Q>  (723) 
1

>  <i_f3d_flags>  (723) 
0

>  <i_i_glide_confnum>  (723) 
2

>  <i_i_glide_lignum>  (723) 
1321

>  <i_i_glide_posenum>  (723) 
8

>  <i_i_glide_rotatable_bonds>  (723) 
10

>  <i_lp_mmshare_version>  (723) 
65135

>  <i_m_ct_format>  (723) 
2

>  <i_m_source_file_index>  (723) 
2861

>  <i_qp_#NandO>  (723) 
5

>  <i_qp_#acid>  (723) 
0

>  <i_qp_#amide>  (723) 
0

>  <i_qp_#amidine>  (723) 
0

>  <i_qp_#amine>  (723) 
1

>  <i_qp_#in34>  (723) 
0

>  <i_qp_#in56>  (723) 
21

>  <i_qp_#metab>  (723) 
5

>  <i_qp_#nonHatm>  (723) 
34

>  <i_qp_#noncon>  (723) 
0

>  <i_qp_#ringatoms>  (723) 
21

>  <i_qp_#rotor>  (723) 
9

>  <i_qp_#rtvFG>  (723) 
0

>  <i_qp_#stars>  (723) 
0

>  <i_qp_CNS>  (723) 
0

>  <i_qp_HumanOralAbsorption>  (723) 
3

>  <i_qp_RuleOfFive>  (723) 
0

>  <i_qp_RuleOfThree>  (723) 
0

>  <i_sd_BIOSOLVEIT.INFINISEE\_RESULT\_RANK>  (723) 
70260

>  <i_sd_version>  (723) 
0

>  <b_lp_Chiralities_Consistent>  (723) 
1

>  <b_sd_chiral_flag>  (723) 
0

>  <canonical_id>  (723) 
ATP-HTVS-708569B81B35

>  <compound_code>  (723) 
91521

>  <title>  (723) 
rxn513b____EMOL50155899____EMOL719673____EMOL40864115

>  <variant>  (723) 
91521-2

>  <source_file>  (723) 
运行/运行/ATP-VSW/ATP-VSW-DOCK_HTVS_1-001_lib/ATP-VSW-DOCK_HTVS_1-001_lib

>  <canonical_smiles>  (723) 
C[NH+](C)Cc1ccc(CNC(=O)c2[nH]c3ccccc3c2C#C[C@@H](O)c2cccc(Cl)c2)cc1

>  <scaffold>  (723) 
O=C(NCc1ccccc1)c1[nH]c2ccccc2c1C#CCc1ccccc1

>  <molecular_formula>  (723) 
C28H27ClN3O2+

$$$$
ATP-HTVS-70C7181F988B
     RDKit          3D

 61 64  0  0  0  0  0  0  0  0999 V2000
  202.4290  177.0425  154.5330 Cl  0  0  0  0  0  0  0  0  0  0  0  0
  200.9003  177.8391  154.4437 C   0  0  0  0  0  0  0  0  0  0  0  0
  200.4009  178.2690  153.1999 C   0  0  0  0  0  0  0  0  0  0  0  0
  199.1591  178.9290  153.1267 C   0  0  0  0  0  0  0  0  0  0  0  0
  198.4110  179.1670  154.2975 C   0  0  0  0  0  0  0  0  0  0  0  0
  198.9088  178.7198  155.5398 C   0  0  0  0  0  0  0  0  0  0  0  0
  200.1508  178.0614  155.6151 C   0  0  0  0  0  0  0  0  0  0  0  0
  197.0664  179.8708  154.2110 C   0  0  1  0  0  0  0  0  0  0  0  0
  197.2003  181.2976  153.9532 N   0  0  0  0  0  0  0  0  0  0  0  0
  197.1194  181.9314  152.7184 C   0  0  0  0  0  0  0  0  0  0  0  0
  197.3244  183.3124  152.9989 C   0  0  0  0  0  0  0  0  0  0  0  0
  197.5489  183.5190  154.3454 N   0  0  0  0  0  0  0  0  0  0  0  0
  197.4428  182.2894  154.8492 C   0  0  0  0  0  0  0  0  0  0  0  0
  197.6135  182.0298  156.3130 C   0  0  1  0  0  0  0  0  0  0  0  0
  196.3420  181.8345  156.9981 N   0  0  0  0  0  0  0  0  0  0  0  0
  196.5038  181.9109  158.4368 C   0  0  1  0  0  0  0  0  0  0  0  0
  196.0028  183.2234  158.9898 C   0  0  0  0  0  0  0  0  0  0  0  0
  196.9082  184.2578  159.2798 C   0  0  0  0  0  0  0  0  0  0  0  0
  196.4323  185.4808  159.7969 C   0  0  0  0  0  0  0  0  0  0  0  0
  195.0597  185.6567  160.0426 C   0  0  0  0  0  0  0  0  0  0  0  0
  194.1559  184.6267  159.7352 C   0  0  0  0  0  0  0  0  0  0  0  0
  194.6245  183.4119  159.2013 C   0  0  0  0  0  0  0  0  0  0  0  0
  197.4057  186.5847  160.1110 C   0  0  1  0  0  0  0  0  0  0  0  0
  197.7197  187.4330  158.9320 N   0  0  2  0  0  0  0  0  0  0  0  0
  198.9329  188.2643  159.1479 C   0  0  1  0  0  0  0  0  0  0  0  0
  200.2416  187.4531  159.0921 C   0  0  2  0  0  0  0  0  0  0  0  0
  196.5596  188.2499  158.4984 C   0  0  2  0  0  0  0  0  0  0  0  0
  197.2928  184.2328  151.9268 C   0  0  0  0  0  0  0  0  0  0  0  0
  197.0779  183.7834  150.6070 C   0  0  0  0  0  0  0  0  0  0  0  0
  196.8947  182.4105  150.3469 C   0  0  0  0  0  0  0  0  0  0  0  0
  196.9071  181.4772  151.4010 C   0  0  0  0  0  0  0  0  0  0  0  0
  195.9893  180.8875  156.8409 H   0  0  0  0  0  0  0  0  0  0  0  0
  200.9696  178.0799  152.3026 H   0  0  0  0  0  0  0  0  0  0  0  0
  198.7829  179.2435  152.1654 H   0  0  0  0  0  0  0  0  0  0  0  0
  198.3377  178.8739  156.4422 H   0  0  0  0  0  0  0  0  0  0  0  0
  200.5215  177.7191  156.5718 H   0  0  0  0  0  0  0  0  0  0  0  0
  196.4926  179.4228  153.4014 H   0  0  0  0  0  0  0  0  0  0  0  0
  196.4772  179.7126  155.1142 H   0  0  0  0  0  0  0  0  0  0  0  0
  198.2589  181.1657  156.4710 H   0  0  0  0  0  0  0  0  0  0  0  0
  198.1295  182.8941  156.7348 H   0  0  0  0  0  0  0  0  0  0  0  0
  195.9217  181.1038  158.8876 H   0  0  0  0  0  0  0  0  0  0  0  0
  197.5404  181.7548  158.7283 H   0  0  0  0  0  0  0  0  0  0  0  0
  197.9632  184.1087  159.0996 H   0  0  0  0  0  0  0  0  0  0  0  0
  194.6895  186.5876  160.4511 H   0  0  0  0  0  0  0  0  0  0  0  0
  193.0981  184.7731  159.8941 H   0  0  0  0  0  0  0  0  0  0  0  0
  193.9295  182.6250  158.9503 H   0  0  0  0  0  0  0  0  0  0  0  0
  197.0370  187.2051  160.9315 H   0  0  0  0  0  0  0  0  0  0  0  0
  198.2896  186.0552  160.4570 H   0  0  0  0  0  0  0  0  0  0  0  0
  198.9905  189.0290  158.3732 H   0  0  0  0  0  0  0  0  0  0  0  0
  198.8411  188.8062  160.0917 H   0  0  0  0  0  0  0  0  0  0  0  0
  201.0949  188.0998  159.3051 H   0  0  0  0  0  0  0  0  0  0  0  0
  200.3915  187.0293  158.0983 H   0  0  0  0  0  0  0  0  0  0  0  0
  200.2765  186.6346  159.8122 H   0  0  0  0  0  0  0  0  0  0  0  0
  196.2682  188.9608  159.2753 H   0  0  0  0  0  0  0  0  0  0  0  0
  195.6959  187.6233  158.2701 H   0  0  0  0  0  0  0  0  0  0  0  0
  196.7883  188.8115  157.5904 H   0  0  0  0  0  0  0  0  0  0  0  0
  197.4469  185.2828  152.1272 H   0  0  0  0  0  0  0  0  0  0  0  0
  197.0757  184.4879  149.7890 H   0  0  0  0  0  0  0  0  0  0  0  0
  196.7506  182.0700  149.3317 H   0  0  0  0  0  0  0  0  0  0  0  0
  196.7700  180.4253  151.2018 H   0  0  0  0  0  0  0  0  0  0  0  0
  197.9224  186.8127  158.1608 H   0  0  0  0  0  0  0  0  0  0  0  0
  1  2  1  0
  2  3  1  0
  2  7  2  0
  3  4  2  0
  3 33  1  0
  4  5  1  0
  4 34  1  0
  5  6  2  0
  5  8  1  0
  6  7  1  0
  6 35  1  0
  7 36  1  0
  8  9  1  0
  8 37  1  6
  8 38  1  0
  9 10  1  0
  9 13  1  0
 10 11  1  0
 10 31  2  0
 11 12  1  0
 11 28  2  0
 12 13  2  0
 13 14  1  0
 14 15  1  0
 14 39  1  6
 14 40  1  0
 15 16  1  0
 15 32  1  0
 16 17  1  0
 16 41  1  1
 16 42  1  0
 17 18  2  0
 17 22  1  0
 18 19  1  0
 18 43  1  0
 19 20  2  0
 19 23  1  0
 20 21  1  0
 20 44  1  0
 21 22  2  0
 21 45  1  0
 22 46  1  0
 23 24  1  0
 23 47  1  1
 23 48  1  0
 24 25  1  0
 24 27  1  0
 24 61  1  6
 25 26  1  0
 25 49  1  6
 25 50  1  0
 26 51  1  1
 26 52  1  0
 26 53  1  0
 27 54  1  1
 27 55  1  0
 27 56  1  0
 28 29  1  0
 28 57  1  0
 29 30  2  0
 29 58  1  0
 30 31  1  0
 30 59  1  0
 31 60  1  0
M  CHG  1  24   1
M  END
>  <s_epik_cmdline>  (724) 
J2VwaWtfcHl0aG9uJywgJy1waCcsICc3LjAwMDAwMCcsICctcGh0JywgJzIuMDAwMDAwJywgJy1tcycsICcxNicsICctdG4nLCAnOCcsICctbWEnLCAnMjAwJywgJy1pbWFlJywgJzxpbmZpbGUubWFlPicsICctb21hZScsICc8b3V0ZmlsZS5tYWU+Jw==

>  <s_epik_input>  (724) 
Q2xjMVtjSF1bY0hdYyhbY0hdW2NIXTEpW0NIMl1uMmMobmMoYzIzKVtjSF1bY0hdW2NIXVtjSF0zKVtDSDJdW05IXVtDSDJdYzRbY0hdYyhbY0hdW2NIXVtjSF00KVtDSDJdTihbQ0gzXSlbQ0gyXVtDSDNd

>  <s_i_glide_gridfile>  (724) 
ATP-Grid

>  <s_lp_Force_Field>  (724) 
OPLS_2005

>  <s_lp_Variant>  (724) 
m_270004bbb____8294988____7549102-2

>  <s_lp_label>  (724) 
718_sdstereoexpander_1_neutralizer_1_epik_1_stereoizer_2

>  <s_m_source_file>  (724) 
ATP-VSW-LIGPREP-002-in.maegz

>  <s_sd_BIOSOLVEIT.INFINISEE\_QUERY\_NAME>  (724) 
Ref-Lig

>  <s_sd_BIOSOLVEIT.INFINISEE\_QUERY\_SMILES>  (724) 
S(c1nc2c(cc1C[NH2+]Cc3ccc(cc3)C[NH+](C)C)cccc2)Cc4ccccc4

>  <s_sd_BIOSOLVEIT.INFINISEE\_REACTION\_NAME>  (724) 
m_270004bbb

>  <s_sd_BIOSOLVEIT.INFINISEE\_REAGENT1\_SMILES>  (724) 
[R1*]NCc1cc(ccc1)CN(CC)C

>  <s_sd_BIOSOLVEIT.INFINISEE\_REAGENT2\_SMILES>  (724) 
[R1*]CC1=Nc2c(N1Cc3ccc(Cl)cc3)cccc2

>  <s_sd_BIOSOLVEIT.INFINISEE\_SPACE>  (724) 
REALSpace_44bn_2023-08

>  <s_vsw_compound_code>  (724) 
22946

>  <s_vsw_variant>  (724) 
22946-2

>  <r_epik_Charging_Adjusted_Penalty>  (724) 
0.47655237381032101

>  <r_epik_Ionization_Penalty>  (724) 
0.48870000000000002

>  <r_epik_Ionization_Penalty_Charging>  (724) 
0.028799999999999999

>  <r_epik_Ionization_Penalty_Neutral>  (724) 
0.45989999999999998

>  <r_epik_State_Penalty>  (724) 
0.44779999999999998

>  <r_i_docking_score>  (724) 
-3.59148496402518

>  <r_i_glide_ecoul>  (724) 
-6.2987174987793004

>  <r_i_glide_eff_state_penalty>  (724) 
0.44779999999999998

>  <r_i_glide_einternal>  (724) 
1.88809430599213

>  <r_i_glide_emodel>  (724) 
-53.3916556412657

>  <r_i_glide_energy>  (724) 
-41.442680358886697

>  <r_i_glide_erotb>  (724) 
0.84573153025199099

>  <r_i_glide_esite>  (724) 
-0.042784485841517401

>  <r_i_glide_evdw>  (724) 
-35.143962860107401

>  <r_i_glide_gscore>  (724) 
-4.03928496402518

>  <r_i_glide_hbond>  (724) 
-0.13088990847415399

>  <r_i_glide_ligand_efficiency>  (724) 
-0.11585435367823201

>  <r_i_glide_ligand_efficiency_ln>  (724) 
-0.80998992518342305

>  <r_i_glide_ligand_efficiency_sa>  (724) 
-0.36394262472351502

>  <r_i_glide_lipo>  (724) 
-1.5593083775937799

>  <r_i_glide_metal>  (724) 
-0

>  <r_i_glide_rewards>  (724) 
-0.45002795454545302

>  <r_lp_Energy>  (724) 
18.715654000000001

>  <r_qp_ACxDN^.5/SA>  (724) 
0.0071996999999999998

>  <r_qp_CIQPlogS>  (724) 
-5.1890000000000001

>  <r_qp_EA(eV)>  (724) 
0.223

>  <r_qp_FISA>  (724) 
35.430999999999997

>  <r_qp_FOSA>  (724) 
273.99599999999998

>  <r_qp_IP(eV)>  (724) 
8.6660000000000004

>  <r_qp_Jm>  (724) 
0.0099729693866771399

>  <r_qp_PISA>  (724) 
335.93000000000001

>  <r_qp_PSA>  (724) 
34.326000000000001

>  <r_qp_PercentHumanOralAbsorption>  (724) 
100

>  <r_qp_QPPCaco>  (724) 
284.25599999999997

>  <r_qp_QPPMDCK>  (724) 
288.86399999999998

>  <r_qp_QPlogBB>  (724) 
0.61099999999999999

>  <r_qp_QPlogHERG>  (724) 
-7.0309999999999997

>  <r_qp_QPlogKhsa>  (724) 
0.93300000000000005

>  <r_qp_QPlogKp>  (724) 
-4.25

>  <r_qp_QPlogPC16>  (724) 
13.862

>  <r_qp_QPlogPo/w>  (724) 
4.9420000000000002

>  <r_qp_QPlogPoct>  (724) 
19.129000000000001

>  <r_qp_QPlogPw>  (724) 
8.3379999999999992

>  <r_qp_QPlogS>  (724) 
-3.387

>  <r_qp_QPpolrz>  (724) 
45.139000000000003

>  <r_qp_SASA>  (724) 
694.47299999999996

>  <r_qp_SAamideO>  (724) 
0

>  <r_qp_SAfluorine>  (724) 
0

>  <r_qp_WPSA>  (724) 
49.116

>  <r_qp_accptHB>  (724) 
5

>  <r_qp_dip^2/V>  (724) 
0.0047257999999999996

>  <r_qp_dipole>  (724) 
2.5219999999999998

>  <r_qp_donorHB>  (724) 
1

>  <r_qp_glob>  (724) 
0.84890319999999997

>  <r_qp_mol_MW>  (724) 
432.995

>  <r_qp_volume>  (724) 
1345.9300000000001

>  <r_sd_BIOSOLVEIT.INFINISEE\_FTREES\_SIMILARITY>  (724) 
0.92900000000000005

>  <r_sd_BIOSOLVEIT.LOGP>  (724) 
3.0362

>  <r_sd_BIOSOLVEIT.MOLECULAR\_WEIGHT>  (724) 
435.012

>  <r_sd_BIOSOLVEIT.TPSA>  (724) 
38.869999999999997

>  <i_epik_Tot_Q>  (724) 
1

>  <i_epik_Tot_abs_Q>  (724) 
1

>  <i_f3d_flags>  (724) 
0

>  <i_i_glide_confnum>  (724) 
7

>  <i_i_glide_lignum>  (724) 
221

>  <i_i_glide_posenum>  (724) 
1

>  <i_i_glide_rotatable_bonds>  (724) 
9

>  <i_lp_mmshare_version>  (724) 
65135

>  <i_m_ct_format>  (724) 
2

>  <i_m_source_file_index>  (724) 
718

>  <i_qp_#NandO>  (724) 
4

>  <i_qp_#acid>  (724) 
0

>  <i_qp_#amide>  (724) 
0

>  <i_qp_#amidine>  (724) 
0

>  <i_qp_#amine>  (724) 
2

>  <i_qp_#in34>  (724) 
0

>  <i_qp_#in56>  (724) 
21

>  <i_qp_#metab>  (724) 
6

>  <i_qp_#nonHatm>  (724) 
31

>  <i_qp_#noncon>  (724) 
0

>  <i_qp_#ringatoms>  (724) 
21

>  <i_qp_#rotor>  (724) 
9

>  <i_qp_#rtvFG>  (724) 
0

>  <i_qp_#stars>  (724) 
0

>  <i_qp_CNS>  (724) 
2

>  <i_qp_HumanOralAbsorption>  (724) 
3

>  <i_qp_RuleOfFive>  (724) 
0

>  <i_qp_RuleOfThree>  (724) 
0

>  <i_sd_BIOSOLVEIT.INFINISEE\_REAGENT1\_NAME>  (724) 
8294988

>  <i_sd_BIOSOLVEIT.INFINISEE\_REAGENT2\_NAME>  (724) 
7549102

>  <i_sd_BIOSOLVEIT.INFINISEE\_RESULT\_RANK>  (724) 
5633

>  <i_sd_version>  (724) 
0

>  <b_lp_Chiralities_Consistent>  (724) 
1

>  <b_sd_chiral_flag>  (724) 
0

>  <canonical_id>  (724) 
ATP-HTVS-70C7181F988B

>  <compound_code>  (724) 
22946

>  <title>  (724) 
m_270004bbb____8294988____7549102

>  <variant>  (724) 
22946-2

>  <source_file>  (724) 
运行/运行/ATP-VSW/ATP-VSW-DOCK_HTVS_1-002_lib.maegz

>  <canonical_smiles>  (724) 
CC[N@H+](C)Cc1cccc(CNCc2nc3ccccc3n2Cc2ccc(Cl)cc2)c1

>  <scaffold>  (724) 
c1ccc(CNCc2nc3ccccc3n2Cc2ccccc2)cc1

>  <molecular_formula>  (724) 
C26H30ClN4+

$$$$
ATP-HTVS-70E37A6C21BA
     RDKit          3D

 63 66  0  0  0  0  0  0  0  0999 V2000
  201.1420  176.8168  152.6842 O   0  0  0  0  0  0  0  0  0  0  0  0
  200.4538  177.4920  153.4509 C   0  0  0  0  0  0  0  0  0  0  0  0
  199.4416  178.3022  153.0916 N   0  0  0  0  0  0  0  0  0  0  0  0
  198.7659  178.4074  151.8450 C   0  0  0  0  0  0  0  0  0  0  0  0
  199.1815  177.7453  150.7437 N   0  0  0  0  0  0  0  0  0  0  0  0
  198.5281  177.8947  149.5724 C   0  0  0  0  0  0  0  0  0  0  0  0
  197.3739  178.7072  149.4621 C   0  0  0  0  0  0  0  0  0  0  0  0
  196.9022  179.3721  150.6029 C   0  0  0  0  0  0  0  0  0  0  0  0
  197.6108  179.2406  151.8148 C   0  0  0  0  0  0  0  0  0  0  0  0
  197.1889  179.9577  152.9500 N   0  0  0  0  0  0  0  0  0  0  0  0
  196.8478  181.3744  152.8280 C   0  0  2  0  0  0  0  0  0  0  0  0
  197.6158  182.0331  151.7528 C   0  0  0  0  0  0  0  0  0  0  0  0
  198.2201  182.5616  150.9168 N   0  0  0  0  0  0  0  0  0  0  0  0
  196.9919  182.0884  154.1654 C   0  0  0  0  0  0  0  0  0  0  0  0
  196.6353  181.4133  155.3423 C   0  0  0  0  0  0  0  0  0  0  0  0
  196.7265  182.0453  156.5980 C   0  0  0  0  0  0  0  0  0  0  0  0
  197.1865  183.3883  156.6951 C   0  0  0  0  0  0  0  0  0  0  0  0
  197.2792  184.0703  157.8913 O   0  0  0  0  0  0  0  0  0  0  0  0
  196.9196  183.3885  159.0770 C   0  0  2  0  0  0  0  0  0  0  0  0
  197.5473  184.0553  155.5124 C   0  0  0  0  0  0  0  0  0  0  0  0
  197.4529  183.4249  154.2567 C   0  0  0  0  0  0  0  0  0  0  0  0
  196.7185  178.8631  148.2220 C   0  0  0  0  0  0  0  0  0  0  0  0
  197.2292  178.2382  147.0759 C   0  0  0  0  0  0  0  0  0  0  0  0
  198.3790  177.4262  147.1719 C   0  0  0  0  0  0  0  0  0  0  0  0
  199.0094  177.2493  148.4166 C   0  0  0  0  0  0  0  0  0  0  0  0
  200.6747  177.4465  154.9402 C   0  0  0  0  0  0  0  0  0  0  0  0
  200.9656  176.2240  155.6222 C   0  0  0  0  0  0  0  0  0  0  0  0
  201.1293  176.2525  157.0236 C   0  0  0  0  0  0  0  0  0  0  0  0
  201.0862  177.4593  157.7393 C   0  0  0  0  0  0  0  0  0  0  0  0
  200.8091  178.6659  157.0745 C   0  0  0  0  0  0  0  0  0  0  0  0
  200.5957  178.6549  155.6832 C   0  0  0  0  0  0  0  0  0  0  0  0
  201.0992  174.8492  154.9393 C   0  0  1  0  0  0  0  0  0  0  0  0
  202.5123  174.4388  154.7063 N   0  0  2  0  0  0  0  0  0  0  0  0
  202.6140  173.3149  153.7490 C   0  0  2  0  0  0  0  0  0  0  0  0
  203.2821  174.1415  155.9396 C   0  0  2  0  0  0  0  0  0  0  0  0
  199.0016  178.7947  153.8506 H   0  0  0  0  0  0  0  0  0  0  0  0
  196.0235  179.9968  150.5452 H   0  0  0  0  0  0  0  0  0  0  0  0
  197.5370  179.7177  153.8674 H   0  0  0  0  0  0  0  0  0  0  0  0
  195.7892  181.4288  152.5451 H   0  0  0  0  0  0  0  0  0  0  0  0
  196.2417  180.4059  155.3393 H   0  0  0  0  0  0  0  0  0  0  0  0
  196.3860  181.4465  157.4378 H   0  0  0  0  0  0  0  0  0  0  0  0
  197.0592  184.0078  159.9825 H   0  0  0  0  0  0  0  0  0  0  0  0
  197.5320  182.4991  159.2074 H   0  0  0  0  0  0  0  0  0  0  0  0
  195.8688  183.1096  159.0424 H   0  0  0  0  0  0  0  0  0  0  0  0
  197.8701  185.0834  155.5736 H   0  0  0  0  0  0  0  0  0  0  0  0
  197.7083  183.9846  153.3697 H   0  0  0  0  0  0  0  0  0  0  0  0
  195.8348  179.4790  148.1443 H   0  0  0  0  0  0  0  0  0  0  0  0
  196.7423  178.3529  146.1172 H   0  0  0  0  0  0  0  0  0  0  0  0
  198.7706  176.9410  146.2907 H   0  0  0  0  0  0  0  0  0  0  0  0
  199.8889  176.6243  148.4907 H   0  0  0  0  0  0  0  0  0  0  0  0
  201.3061  175.3484  157.5736 H   0  0  0  0  0  0  0  0  0  0  0  0
  201.2744  177.4538  158.8044 H   0  0  0  0  0  0  0  0  0  0  0  0
  200.7835  179.5934  157.6378 H   0  0  0  0  0  0  0  0  0  0  0  0
  200.3852  179.6028  155.2102 H   0  0  0  0  0  0  0  0  0  0  0  0
  200.5914  174.0971  155.5520 H   0  0  0  0  0  0  0  0  0  0  0  0
  200.5629  174.8172  153.9868 H   0  0  0  0  0  0  0  0  0  0  0  0
  202.1344  172.4178  154.1446 H   0  0  0  0  0  0  0  0  0  0  0  0
  203.6587  173.0692  153.5542 H   0  0  0  0  0  0  0  0  0  0  0  0
  202.1508  173.5582  152.7920 H   0  0  0  0  0  0  0  0  0  0  0  0
  202.7869  173.3585  156.5193 H   0  0  0  0  0  0  0  0  0  0  0  0
  203.3899  175.0252  156.5703 H   0  0  0  0  0  0  0  0  0  0  0  0
  204.2966  173.7967  155.7056 H   0  0  0  0  0  0  0  0  0  0  0  0
  202.9472  175.2341  154.2622 H   0  0  0  0  0  0  0  0  0  0  0  0
  1  2  2  0
  2  3  1  0
  2 26  1  0
  3  4  1  0
  3 36  1  0
  4  5  2  0
  4  9  1  0
  5  6  1  0
  6  7  1  0
  6 25  2  0
  7  8  1  0
  7 22  2  0
  8  9  2  0
  8 37  1  0
  9 10  1  0
 10 11  1  0
 10 38  1  0
 11 12  1  0
 11 14  1  0
 11 39  1  6
 12 13  3  0
 14 15  1  0
 14 21  2  0
 15 16  2  0
 15 40  1  0
 16 17  1  0
 16 41  1  0
 17 18  1  0
 17 20  2  0
 18 19  1  0
 19 42  1  1
 19 43  1  0
 19 44  1  0
 20 21  1  0
 20 45  1  0
 21 46  1  0
 22 23  1  0
 22 47  1  0
 23 24  2  0
 23 48  1  0
 24 25  1  0
 24 49  1  0
 25 50  1  0
 26 27  1  0
 26 31  2  0
 27 28  2  0
 27 32  1  0
 28 29  1  0
 28 51  1  0
 29 30  2  0
 29 52  1  0
 30 31  1  0
 30 53  1  0
 31 54  1  0
 32 33  1  0
 32 55  1  1
 32 56  1  0
 33 34  1  0
 33 35  1  0
 33 63  1  6
 34 57  1  1
 34 58  1  0
 34 59  1  0
 35 60  1  1
 35 61  1  0
 35 62  1  0
M  CHG  1  33   1
M  END
>  <s_epik_cmdline>  (725) 
J2VwaWtfcHl0aG9uJywgJy1waCcsICc3LjAwMDAwMCcsICctcGh0JywgJzIuMDAwMDAwJywgJy1tcycsICcxNicsICctdG4nLCAnOCcsICctbWEnLCAnMjAwJywgJy1pbWFlJywgJzxpbmZpbGUubWFlPicsICctb21hZScsICc8b3V0ZmlsZS5tYWU+Jw==

>  <s_epik_input>  (725) 
W2NIXTFbY0hdW2NIXVtjSF1jKFtDSDJdTihbQ0gzXSlbQ0gzXSljMUMoPU8pW05IXWMobjIpYyhbY0hdYyhjMjMpW2NIXVtjSF1bY0hdW2NIXTMpW05IXVtDQEhdKEMjTiljNFtjSF1bY0hdYyhPW0NIM10pW2NIXVtjSF00

>  <s_i_glide_gridfile>  (725) 
ATP-Grid

>  <s_lp_Force_Field>  (725) 
OPLS_2005

>  <s_lp_Variant>  (725) 
rxn502b____EMOL5415347____EMOL44466703____EMOL37339719-2

>  <s_lp_label>  (725) 
2743_sdstereoexpander_2_neutralizer_1_epik_1_stereoizer_1

>  <s_m_source_file>  (725) 
ATP-VSW-LIGPREP-003-in.maegz

>  <s_sd_BIOSOLVEIT.INFINISEE\_QUERY\_NAME>  (725) 
Ref-Lig

>  <s_sd_BIOSOLVEIT.INFINISEE\_QUERY\_SMILES>  (725) 
S(c1nc2c(cc1C[NH2+]Cc3ccc(cc3)C[NH+](C)C)cccc2)Cc4ccccc4

>  <s_sd_BIOSOLVEIT.INFINISEE\_REACTION\_NAME>  (725) 
rxn502b

>  <s_sd_BIOSOLVEIT.INFINISEE\_REAGENT1\_NAME>  (725) 
EMOL5415347

>  <s_sd_BIOSOLVEIT.INFINISEE\_REAGENT1\_SMILES>  (725) 
O=C(O)c1c(cccc1)CN(C)C

>  <s_sd_BIOSOLVEIT.INFINISEE\_REAGENT2\_NAME>  (725) 
EMOL44466703

>  <s_sd_BIOSOLVEIT.INFINISEE\_REAGENT2\_SMILES>  (725) 
Brc1c(nc2c(c1)cccc2)N

>  <s_sd_BIOSOLVEIT.INFINISEE\_REAGENT3\_NAME>  (725) 
EMOL37339719

>  <s_sd_BIOSOLVEIT.INFINISEE\_REAGENT3\_SMILES>  (725) 
O(c1ccc(cc1)C(N)C#N)C

>  <s_sd_BIOSOLVEIT.INFINISEE\_SPACE>  (725) 
eXplore_7tr_2022-12

>  <s_vsw_compound_code>  (725) 
87747

>  <s_vsw_variant>  (725) 
87747-2

>  <r_epik_Charging_Adjusted_Penalty>  (725) 
0.120106230221407

>  <r_epik_Ionization_Penalty>  (725) 
0.060100000000000001

>  <r_epik_Ionization_Penalty_Charging>  (725) 
0.060100000000000001

>  <r_epik_Ionization_Penalty_Neutral>  (725) 
0.0001

>  <r_epik_State_Penalty>  (725) 
0.060100000000000001

>  <r_i_docking_score>  (725) 
-4.35087995786348

>  <r_i_glide_ecoul>  (725) 
-4.2979760169982901

>  <r_i_glide_eff_state_penalty>  (725) 
0.060100000000000001

>  <r_i_glide_einternal>  (725) 
9.31591892242432

>  <r_i_glide_emodel>  (725) 
-53.967367426512602

>  <r_i_glide_energy>  (725) 
-42.9678025245667

>  <r_i_glide_erotb>  (725) 
0.64881446491091099

>  <r_i_glide_esite>  (725) 
-0.00056848624543584601

>  <r_i_glide_evdw>  (725) 
-38.669826507568402

>  <r_i_glide_gscore>  (725) 
-4.4109799578634803

>  <r_i_glide_hbond>  (725) 
0

>  <r_i_glide_ligand_efficiency>  (725) 
-0.12431085593895599

>  <r_i_glide_ligand_efficiency_ln>  (725) 
-0.95511471332904396

>  <r_i_glide_ligand_efficiency_sa>  (725) 
-0.406629052370725

>  <r_i_glide_lipo>  (725) 
-2.2288479831035701

>  <r_i_glide_metal>  (725) 
-0

>  <r_i_glide_rewards>  (725) 
-0.25219022549722497

>  <r_lp_Energy>  (725) 
35.954363999999998

>  <r_lp_tautomer_probability>  (725) 
1

>  <r_qp_ACxDN^.5/SA>  (725) 
0.0167718

>  <r_qp_CIQPlogS>  (725) 
-6.4119999999999999

>  <r_qp_EA(eV)>  (725) 
0.85299999999999998

>  <r_qp_FISA>  (725) 
98.691000000000003

>  <r_qp_FOSA>  (725) 
244.124

>  <r_qp_IP(eV)>  (725) 
8.6590000000000007

>  <r_qp_Jm>  (725) 
0.0052090150966965301

>  <r_qp_PISA>  (725) 
394.99200000000002

>  <r_qp_PSA>  (725) 
91.456000000000003

>  <r_qp_PercentHumanOralAbsorption>  (725) 
93.159000000000006

>  <r_qp_QPPCaco>  (725) 
286.35899999999998

>  <r_qp_QPPMDCK>  (725) 
141.649

>  <r_qp_QPlogBB>  (725) 
-0.52600000000000002

>  <r_qp_QPlogHERG>  (725) 
-6.8239999999999998

>  <r_qp_QPlogKhsa>  (725) 
0.42199999999999999

>  <r_qp_QPlogKp>  (725) 
-3.145

>  <r_qp_QPlogPC16>  (725) 
15.412000000000001

>  <r_qp_QPlogPo/w>  (725) 
3.798

>  <r_qp_QPlogPoct>  (725) 
24.431999999999999

>  <r_qp_QPlogPw>  (725) 
14.414999999999999

>  <r_qp_QPlogS>  (725) 
-4.806

>  <r_qp_QPpolrz>  (725) 
49.302999999999997

>  <r_qp_SASA>  (725) 
737.80799999999999

>  <r_qp_SAamideO>  (725) 
0

>  <r_qp_SAfluorine>  (725) 
0

>  <r_qp_WPSA>  (725) 
0

>  <r_qp_accptHB>  (725) 
8.75

>  <r_qp_dip^2/V>  (725) 
0.020922400000000001

>  <r_qp_dipole>  (725) 
5.4809999999999999

>  <r_qp_donorHB>  (725) 
2

>  <r_qp_glob>  (725) 
0.8342562

>  <r_qp_mol_MW>  (725) 
465.55399999999997

>  <r_qp_volume>  (725) 
1435.874

>  <r_sd_BIOSOLVEIT.INFINISEE\_FTREES\_SIMILARITY>  (725) 
0.90700000000000003

>  <r_sd_BIOSOLVEIT.LOGP>  (725) 
3.81698

>  <r_sd_BIOSOLVEIT.MOLECULAR\_WEIGHT>  (725) 
466.56200000000001

>  <r_sd_BIOSOLVEIT.TPSA>  (725) 
91.480000000000004

>  <i_epik_Tot_Q>  (725) 
1

>  <i_epik_Tot_abs_Q>  (725) 
1

>  <i_f3d_flags>  (725) 
0

>  <i_i_glide_confnum>  (725) 
4

>  <i_i_glide_lignum>  (725) 
1299

>  <i_i_glide_posenum>  (725) 
5

>  <i_i_glide_rotatable_bonds>  (725) 
9

>  <i_lp_mmshare_version>  (725) 
65135

>  <i_m_ct_format>  (725) 
2

>  <i_m_source_file_index>  (725) 
2743

>  <i_qp_#NandO>  (725) 
7

>  <i_qp_#acid>  (725) 
0

>  <i_qp_#amide>  (725) 
0

>  <i_qp_#amidine>  (725) 
0

>  <i_qp_#amine>  (725) 
1

>  <i_qp_#in34>  (725) 
0

>  <i_qp_#in56>  (725) 
22

>  <i_qp_#metab>  (725) 
6

>  <i_qp_#nonHatm>  (725) 
35

>  <i_qp_#noncon>  (725) 
0

>  <i_qp_#ringatoms>  (725) 
22

>  <i_qp_#rotor>  (725) 
9

>  <i_qp_#rtvFG>  (725) 
0

>  <i_qp_#stars>  (725) 
0

>  <i_qp_CNS>  (725) 
1

>  <i_qp_HumanOralAbsorption>  (725) 
3

>  <i_qp_RuleOfFive>  (725) 
0

>  <i_qp_RuleOfThree>  (725) 
0

>  <i_sd_BIOSOLVEIT.INFINISEE\_RESULT\_RANK>  (725) 
57205

>  <i_sd_version>  (725) 
0

>  <b_lp_Chiralities_Consistent>  (725) 
1

>  <b_sd_chiral_flag>  (725) 
0

>  <canonical_id>  (725) 
ATP-HTVS-70E37A6C21BA

>  <compound_code>  (725) 
87747

>  <title>  (725) 
rxn502b____EMOL5415347____EMOL44466703____EMOL37339719

>  <variant>  (725) 
87747-2

>  <source_file>  (725) 
运行/运行/ATP-VSW/ATP-VSW-DOCK_HTVS_1-003_lib/ATP-VSW-DOCK_HTVS_1-003_lib.mae

>  <canonical_smiles>  (725) 
COc1ccc([C@@H](C#N)Nc2cc3ccccc3nc2NC(=O)c2ccccc2C[NH+](C)C)cc1

>  <scaffold>  (725) 
O=C(Nc1nc2ccccc2cc1NCc1ccccc1)c1ccccc1

>  <molecular_formula>  (725) 
C28H28N5O2+

$$$$
ATP-HTVS-7191B1059E2A
     RDKit          3D

 55 57  0  0  0  0  0  0  0  0999 V2000
  197.1243  181.5852  154.8853 O   0  0  0  0  0  0  0  0  0  0  0  0
  197.9676  180.9624  155.5293 C   0  0  0  0  0  0  0  0  0  0  0  0
  198.3521  181.2901  156.7810 N   0  0  0  0  0  0  0  0  0  0  0  0
  197.7607  182.2927  157.5963 C   0  0  0  0  0  0  0  0  0  0  0  0
  198.5506  183.0520  158.3916 N   0  0  0  0  0  0  0  0  0  0  0  0
  197.9651  183.9653  159.2025 C   0  0  0  0  0  0  0  0  0  0  0  0
  196.5637  184.1746  159.2805 C   0  0  0  0  0  0  0  0  0  0  0  0
  196.0369  185.1086  160.1966 N   0  0  0  0  0  0  0  0  0  0  0  0
  195.3991  186.3056  159.6437 C   0  0  1  0  0  0  0  0  0  0  0  0
  196.3485  187.3976  159.2088 C   0  0  0  0  0  0  0  0  0  0  0  0
  196.7662  187.4808  157.8652 C   0  0  0  0  0  0  0  0  0  0  0  0
  197.5806  188.5478  157.4406 C   0  0  0  0  0  0  0  0  0  0  0  0
  197.9916  189.5312  158.3676 C   0  0  0  0  0  0  0  0  0  0  0  0
  197.5842  189.4342  159.7195 C   0  0  0  0  0  0  0  0  0  0  0  0
  196.7637  188.3687  160.1364 C   0  0  0  0  0  0  0  0  0  0  0  0
  198.8925  190.6647  157.9218 C   0  0  1  0  0  0  0  0  0  0  0  0
  198.1277  191.8197  157.3929 N   0  0  2  0  0  0  0  0  0  0  0  0
  198.9669  192.6918  156.5416 C   0  0  2  0  0  0  0  0  0  0  0  0
  197.4425  192.5965  158.4513 C   0  0  2  0  0  0  0  0  0  0  0  0
  195.7384  183.3679  158.4650 C   0  0  0  0  0  0  0  0  0  0  0  0
  196.3551  182.4114  157.6375 C   0  0  0  0  0  0  0  0  0  0  0  0
  194.2247  183.3984  158.4825 C   0  0  2  0  0  0  0  0  0  0  0  0
  198.7288  179.8419  154.8769 C   0  0  0  0  0  0  0  0  0  0  0  0
  198.8680  179.8340  153.4708 C   0  0  0  0  0  0  0  0  0  0  0  0
  199.5668  178.7932  152.8262 C   0  0  0  0  0  0  0  0  0  0  0  0
  200.1234  177.7493  153.5861 C   0  0  0  0  0  0  0  0  0  0  0  0
  199.9670  177.7350  154.9868 C   0  0  0  0  0  0  0  0  0  0  0  0
  199.2636  178.7741  155.6297 C   0  0  0  0  0  0  0  0  0  0  0  0
  199.1562  180.8158  157.1661 H   0  0  0  0  0  0  0  0  0  0  0  0
  198.6430  184.5210  159.8340 H   0  0  0  0  0  0  0  0  0  0  0  0
  196.5844  185.2623  161.0377 H   0  0  0  0  0  0  0  0  0  0  0  0
  194.8045  186.0853  158.7557 H   0  0  0  0  0  0  0  0  0  0  0  0
  194.7188  186.7040  160.4021 H   0  0  0  0  0  0  0  0  0  0  0  0
  196.4256  186.7507  157.1464 H   0  0  0  0  0  0  0  0  0  0  0  0
  197.8800  188.6076  156.4010 H   0  0  0  0  0  0  0  0  0  0  0  0
  197.8901  190.1780  160.4510 H   0  0  0  0  0  0  0  0  0  0  0  0
  196.4192  188.3209  161.1599 H   0  0  0  0  0  0  0  0  0  0  0  0
  199.5336  190.9698  158.7485 H   0  0  0  0  0  0  0  0  0  0  0  0
  199.5548  190.2661  157.1535 H   0  0  0  0  0  0  0  0  0  0  0  0
  199.7817  193.1317  157.1201 H   0  0  0  0  0  0  0  0  0  0  0  0
  198.3797  193.5072  156.1170 H   0  0  0  0  0  0  0  0  0  0  0  0
  199.4039  192.1339  155.7122 H   0  0  0  0  0  0  0  0  0  0  0  0
  198.1581  193.0152  159.1609 H   0  0  0  0  0  0  0  0  0  0  0  0
  196.7495  191.9668  159.0075 H   0  0  0  0  0  0  0  0  0  0  0  0
  196.8686  193.4204  158.0233 H   0  0  0  0  0  0  0  0  0  0  0  0
  195.7279  181.7346  157.0774 H   0  0  0  0  0  0  0  0  0  0  0  0
  193.8400  182.5825  157.8715 H   0  0  0  0  0  0  0  0  0  0  0  0
  193.8463  184.3467  158.1124 H   0  0  0  0  0  0  0  0  0  0  0  0
  193.8985  183.2278  159.4967 H   0  0  0  0  0  0  0  0  0  0  0  0
  198.4414  180.6311  152.8788 H   0  0  0  0  0  0  0  0  0  0  0  0
  199.6745  178.8047  151.7496 H   0  0  0  0  0  0  0  0  0  0  0  0
  200.6586  176.9520  153.0942 H   0  0  0  0  0  0  0  0  0  0  0  0
  200.3830  176.9274  155.5731 H   0  0  0  0  0  0  0  0  0  0  0  0
  199.1406  178.7256  156.7043 H   0  0  0  0  0  0  0  0  0  0  0  0
  197.4058  191.4297  156.7994 H   0  0  0  0  0  0  0  0  0  0  0  0
  1  2  2  0
  2  3  1  0
  2 23  1  0
  3  4  1  0
  3 29  1  0
  4  5  1  0
  4 21  2  0
  5  6  2  0
  6  7  1  0
  6 30  1  0
  7  8  1  0
  7 20  2  0
  8  9  1  0
  8 31  1  0
  9 10  1  0
  9 32  1  6
  9 33  1  0
 10 11  1  0
 10 15  2  0
 11 12  2  0
 11 34  1  0
 12 13  1  0
 12 35  1  0
 13 14  2  0
 13 16  1  0
 14 15  1  0
 14 36  1  0
 15 37  1  0
 16 17  1  0
 16 38  1  1
 16 39  1  0
 17 18  1  0
 17 19  1  0
 17 55  1  6
 18 40  1  1
 18 41  1  0
 18 42  1  0
 19 43  1  1
 19 44  1  0
 19 45  1  0
 20 21  1  0
 20 22  1  0
 21 46  1  0
 22 47  1  6
 22 48  1  0
 22 49  1  0
 23 24  2  0
 23 28  1  0
 24 25  1  0
 24 50  1  0
 25 26  2  0
 25 51  1  0
 26 27  1  0
 26 52  1  0
 27 28  2  0
 27 53  1  0
 28 54  1  0
M  CHG  1  17   1
M  END
>  <s_epik_cmdline>  (726) 
J2VwaWtfcHl0aG9uJywgJy1waCcsICc3LjAwMDAwMCcsICctcGh0JywgJzIuMDAwMDAwJywgJy1tcycsICcxNicsICctdG4nLCAnOCcsICctbWEnLCAnMjAwJywgJy1pbWFlJywgJzxpbmZpbGUubWFlPicsICctb21hZScsICc8b3V0ZmlsZS5tYWU+Jw==

>  <s_epik_input>  (726) 
W2NIXTFbY0hdW2NIXVtjSF1bY0hdYzFDKD1PKVtOSF1jMm5bY0hdYyhjKFtjSF0yKVtDSDNdKVtOSF1bQ0gyXWMzW2NIXVtjSF1jKFtjSF1bY0hdMylbQ0gyXU4oW0NIM10pW0NIM10=

>  <s_i_glide_gridfile>  (726) 
ATP-Grid

>  <s_lp_Force_Field>  (726) 
OPLS_2005

>  <s_lp_Variant>  (726) 
rxn502c____EMOL478180____EMOL1839538____EMOL50155899-1

>  <s_lp_label>  (726) 
2846_sdstereoexpander_1_neutralizer_1_epik_1_stereoizer_1

>  <s_m_source_file>  (726) 
ATP-VSW-LIGPREP-001-in.maegz

>  <s_sd_BIOSOLVEIT.INFINISEE\_QUERY\_NAME>  (726) 
Ref-Lig

>  <s_sd_BIOSOLVEIT.INFINISEE\_QUERY\_SMILES>  (726) 
S(c1nc2c(cc1C[NH2+]Cc3ccc(cc3)C[NH+](C)C)cccc2)Cc4ccccc4

>  <s_sd_BIOSOLVEIT.INFINISEE\_REACTION\_NAME>  (726) 
rxn502c

>  <s_sd_BIOSOLVEIT.INFINISEE\_REAGENT1\_NAME>  (726) 
EMOL478180

>  <s_sd_BIOSOLVEIT.INFINISEE\_REAGENT1\_SMILES>  (726) 
[O-]C(=O)c1ccccc1

>  <s_sd_BIOSOLVEIT.INFINISEE\_REAGENT2\_NAME>  (726) 
EMOL1839538

>  <s_sd_BIOSOLVEIT.INFINISEE\_REAGENT2\_SMILES>  (726) 
Clc1c(cc(nc1)N)C

>  <s_sd_BIOSOLVEIT.INFINISEE\_REAGENT3\_NAME>  (726) 
EMOL50155899

>  <s_sd_BIOSOLVEIT.INFINISEE\_REAGENT3\_SMILES>  (726) 
N(Cc1ccc(cc1)CN)(C)C

>  <s_sd_BIOSOLVEIT.INFINISEE\_SPACE>  (726) 
eXplore_7tr_2022-12

>  <s_vsw_compound_code>  (726) 
91041

>  <s_vsw_variant>  (726) 
91041-1

>  <r_epik_Charging_Adjusted_Penalty>  (726) 
0.078407994868761793

>  <r_epik_Ionization_Penalty>  (726) 
0.039699999999999999

>  <r_epik_Ionization_Penalty_Charging>  (726) 
0.039199999999999999

>  <r_epik_Ionization_Penalty_Neutral>  (726) 
0.00050000000000000001

>  <r_epik_State_Penalty>  (726) 
0.039199999999999999

>  <r_i_docking_score>  (726) 
-3.5065248608188901

>  <r_i_glide_ecoul>  (726) 
-4.1342625617981001

>  <r_i_glide_eff_state_penalty>  (726) 
0.039199999999999999

>  <r_i_glide_einternal>  (726) 
11.8632612228394

>  <r_i_glide_emodel>  (726) 
-42.784124129284599

>  <r_i_glide_energy>  (726) 
-37.3707242012024

>  <r_i_glide_erotb>  (726) 
0.96057489840215704

>  <r_i_glide_esite>  (726) 
-0.091988669987591795

>  <r_i_glide_evdw>  (726) 
-33.236461639404297

>  <r_i_glide_gscore>  (726) 
-3.5457248608188898

>  <r_i_glide_hbond>  (726) 
0

>  <r_i_glide_ligand_efficiency>  (726) 
-0.12523303074353201

>  <r_i_glide_ligand_efficiency_ln>  (726) 
-0.80940889392063198

>  <r_i_glide_ligand_efficiency_sa>  (726) 
-0.38028123964798199

>  <r_i_glide_lipo>  (726) 
-1.2833941684480701

>  <r_i_glide_metal>  (726) 
-0

>  <r_i_glide_rewards>  (726) 
-0.84895445454545304

>  <r_lp_Energy>  (726) 
23.233519000000001

>  <r_lp_tautomer_probability>  (726) 
0.999999999999999

>  <r_qp_ACxDN^.5/SA>  (726) 
0.0123777

>  <r_qp_CIQPlogS>  (726) 
-4.2320000000000002

>  <r_qp_EA(eV)>  (726) 
0.28299999999999997

>  <r_qp_FISA>  (726) 
76.438999999999993

>  <r_qp_FOSA>  (726) 
298.83699999999999

>  <r_qp_IP(eV)>  (726) 
8.0579999999999998

>  <r_qp_Jm>  (726) 
0.0038610336155394998

>  <r_qp_PISA>  (726) 
367.37799999999999

>  <r_qp_PSA>  (726) 
63.655000000000001

>  <r_qp_PercentHumanOralAbsorption>  (726) 
100

>  <r_qp_QPPCaco>  (726) 
465.50900000000001

>  <r_qp_QPPMDCK>  (726) 
239.49600000000001

>  <r_qp_QPlogBB>  (726) 
-0.30199999999999999

>  <r_qp_QPlogHERG>  (726) 
-7.6020000000000003

>  <r_qp_QPlogKhsa>  (726) 
0.54000000000000004

>  <r_qp_QPlogKp>  (726) 
-3.0249999999999999

>  <r_qp_QPlogPC16>  (726) 
14.055

>  <r_qp_QPlogPo/w>  (726) 
3.9020000000000001

>  <r_qp_QPlogPoct>  (726) 
21.632000000000001

>  <r_qp_QPlogPw>  (726) 
12.313000000000001

>  <r_qp_QPlogS>  (726) 
-4.9619999999999997

>  <r_qp_QPpolrz>  (726) 
45.124000000000002

>  <r_qp_SASA>  (726) 
742.65499999999997

>  <r_qp_SAamideO>  (726) 
0

>  <r_qp_SAfluorine>  (726) 
0

>  <r_qp_WPSA>  (726) 
0

>  <r_qp_accptHB>  (726) 
6.5

>  <r_qp_dip^2/V>  (726) 
0.040593600000000001

>  <r_qp_dipole>  (726) 
7.2809999999999997

>  <r_qp_donorHB>  (726) 
2

>  <r_qp_glob>  (726) 
0.77802950000000004

>  <r_qp_mol_MW>  (726) 
374.48500000000001

>  <r_qp_volume>  (726) 
1305.952

>  <r_sd_BIOSOLVEIT.INFINISEE\_FTREES\_SIMILARITY>  (726) 
0.90500000000000003

>  <r_sd_BIOSOLVEIT.LOGP>  (726) 
2.8989199999999999

>  <r_sd_BIOSOLVEIT.MOLECULAR\_WEIGHT>  (726) 
375.49299999999999

>  <r_sd_BIOSOLVEIT.TPSA>  (726) 
58.460000000000001

>  <i_epik_Tot_Q>  (726) 
1

>  <i_epik_Tot_abs_Q>  (726) 
1

>  <i_f3d_flags>  (726) 
0

>  <i_i_glide_confnum>  (726) 
1

>  <i_i_glide_lignum>  (726) 
1307

>  <i_i_glide_posenum>  (726) 
14

>  <i_i_glide_rotatable_bonds>  (726) 
8

>  <i_lp_mmshare_version>  (726) 
65135

>  <i_m_ct_format>  (726) 
2

>  <i_m_source_file_index>  (726) 
2846

>  <i_qp_#NandO>  (726) 
5

>  <i_qp_#acid>  (726) 
0

>  <i_qp_#amide>  (726) 
0

>  <i_qp_#amidine>  (726) 
0

>  <i_qp_#amine>  (726) 
1

>  <i_qp_#in34>  (726) 
0

>  <i_qp_#in56>  (726) 
18

>  <i_qp_#metab>  (726) 
7

>  <i_qp_#nonHatm>  (726) 
28

>  <i_qp_#noncon>  (726) 
0

>  <i_qp_#ringatoms>  (726) 
18

>  <i_qp_#rotor>  (726) 
7

>  <i_qp_#rtvFG>  (726) 
0

>  <i_qp_#stars>  (726) 
0

>  <i_qp_CNS>  (726) 
1

>  <i_qp_HumanOralAbsorption>  (726) 
3

>  <i_qp_RuleOfFive>  (726) 
0

>  <i_qp_RuleOfThree>  (726) 
1

>  <i_sd_BIOSOLVEIT.INFINISEE\_RESULT\_RANK>  (726) 
68538

>  <i_sd_version>  (726) 
0

>  <b_lp_Chiralities_Consistent>  (726) 
1

>  <b_sd_chiral_flag>  (726) 
0

>  <canonical_id>  (726) 
ATP-HTVS-7191B1059E2A

>  <compound_code>  (726) 
91041

>  <title>  (726) 
rxn502c____EMOL478180____EMOL1839538____EMOL50155899

>  <variant>  (726) 
91041-1

>  <source_file>  (726) 
运行/运行/ATP-VSW/ATP-VSW-DOCK_HTVS_1-001_lib/ATP-VSW-DOCK_HTVS_1-001_lib

>  <canonical_smiles>  (726) 
Cc1cc(NC(=O)c2ccccc2)ncc1NCc1ccc(C[NH+](C)C)cc1

>  <scaffold>  (726) 
O=C(Nc1ccc(NCc2ccccc2)cn1)c1ccccc1

>  <molecular_formula>  (726) 
C23H27N4O+

$$$$
ATP-HTVS-71BAC3B18036
     RDKit          3D

 65 68  0  0  0  0  0  0  0  0999 V2000
  200.4791  190.3824  152.8476 F   0  0  0  0  0  0  0  0  0  0  0  0
  199.9668  189.2892  153.4870 C   0  0  0  0  0  0  0  0  0  0  0  0
  199.7965  189.2955  154.8860 C   0  0  0  0  0  0  0  0  0  0  0  0
  200.1139  190.4535  155.7027 C   0  0  0  0  0  0  0  0  0  0  0  0
  200.3578  191.3855  156.3524 N   0  0  0  0  0  0  0  0  0  0  0  0
  199.2663  188.1507  155.5262 C   0  0  0  0  0  0  0  0  0  0  0  0
  198.8842  187.0182  154.7870 C   0  0  0  0  0  0  0  0  0  0  0  0
  199.0382  187.0057  153.3797 C   0  0  0  0  0  0  0  0  0  0  0  0
  199.5833  188.1561  152.7332 C   0  0  0  0  0  0  0  0  0  0  0  0
  198.5834  185.8270  152.5527 C   0  0  0  0  0  0  0  0  0  0  0  0
  198.4469  185.9180  151.3291 O   0  0  0  0  0  0  0  0  0  0  0  0
  198.2870  184.7262  153.2816 N   0  0  0  0  0  0  0  0  0  0  0  0
  197.9685  183.4096  152.8600 C   0  0  0  0  0  0  0  0  0  0  0  0
  198.0227  183.0470  151.5577 N   0  0  0  0  0  0  0  0  0  0  0  0
  197.7354  181.7852  151.1894 C   0  0  0  0  0  0  0  0  0  0  0  0
  197.3735  180.7971  152.1383 C   0  0  0  0  0  0  0  0  0  0  0  0
  197.3206  181.1518  153.5002 C   0  0  0  0  0  0  0  0  0  0  0  0
  197.6243  182.4807  153.8826 C   0  0  0  0  0  0  0  0  0  0  0  0
  197.5844  182.8753  155.2380 N   0  0  0  0  0  0  0  0  0  0  0  0
  196.9474  182.0528  156.2614 C   0  0  1  0  0  0  0  0  0  0  0  0
  196.5310  182.8392  157.4915 C   0  0  0  0  0  0  0  0  0  0  0  0
  197.3353  183.8836  157.9939 C   0  0  0  0  0  0  0  0  0  0  0  0
  196.9138  184.6313  159.1105 C   0  0  0  0  0  0  0  0  0  0  0  0
  195.6913  184.3222  159.7430 C   0  0  0  0  0  0  0  0  0  0  0  0
  194.8952  183.2748  159.2500 C   0  0  0  0  0  0  0  0  0  0  0  0
  195.3127  182.5336  158.1348 C   0  0  0  0  0  0  0  0  0  0  0  0
  197.7598  185.7859  159.6088 C   0  0  1  0  0  0  0  0  0  0  0  0
  197.8522  186.8920  158.6167 N   0  0  1  0  0  0  0  0  0  0  0  0
  196.5168  187.3743  158.1220 C   0  0  1  0  0  0  0  0  0  0  0  0
  196.4423  187.4548  156.5756 C   0  0  2  0  0  0  0  0  0  0  0  0
  198.7326  187.9950  159.1104 C   0  0  1  0  0  0  0  0  0  0  0  0
  200.2185  187.5842  159.2390 C   0  0  2  0  0  0  0  0  0  0  0  0
  197.0794  179.4801  151.7311 C   0  0  0  0  0  0  0  0  0  0  0  0
  197.1481  179.1430  150.3665 C   0  0  0  0  0  0  0  0  0  0  0  0
  197.5060  180.1129  149.4154 C   0  0  0  0  0  0  0  0  0  0  0  0
  197.7962  181.4260  149.8278 C   0  0  0  0  0  0  0  0  0  0  0  0
  199.1369  188.1292  156.6084 H   0  0  0  0  0  0  0  0  0  0  0  0
  198.4611  186.1798  155.3521 H   0  0  0  0  0  0  0  0  0  0  0  0
  199.7051  188.1729  151.6498 H   0  0  0  0  0  0  0  0  0  0  0  0
  198.3545  184.8278  154.2775 H   0  0  0  0  0  0  0  0  0  0  0  0
  197.0574  180.4011  154.2310 H   0  0  0  0  0  0  0  0  0  0  0  0
  197.7941  183.8193  155.5072 H   0  0  0  0  0  0  0  0  0  0  0  0
  196.0684  181.5485  155.8555 H   0  0  0  0  0  0  0  0  0  0  0  0
  197.6515  181.2851  156.5815 H   0  0  0  0  0  0  0  0  0  0  0  0
  198.2652  184.1311  157.5037 H   0  0  0  0  0  0  0  0  0  0  0  0
  195.3514  184.8949  160.5931 H   0  0  0  0  0  0  0  0  0  0  0  0
  193.9509  183.0535  159.7211 H   0  0  0  0  0  0  0  0  0  0  0  0
  194.6897  181.7329  157.7581 H   0  0  0  0  0  0  0  0  0  0  0  0
  197.3404  186.1789  160.5366 H   0  0  0  0  0  0  0  0  0  0  0  0
  198.7446  185.3734  159.8539 H   0  0  0  0  0  0  0  0  0  0  0  0
  195.7116  186.7071  158.4541 H   0  0  0  0  0  0  0  0  0  0  0  0
  196.2910  188.3442  158.5839 H   0  0  0  0  0  0  0  0  0  0  0  0
  195.3899  187.6601  156.2932 H   0  0  0  0  0  0  0  0  0  0  0  0
  196.7318  186.5031  156.1223 H   0  0  0  0  0  0  0  0  0  0  0  0
  197.1060  188.2224  156.2136 H   0  0  0  0  0  0  0  0  0  0  0  0
  198.6764  188.8441  158.4285 H   0  0  0  0  0  0  0  0  0  0  0  0
  198.3682  188.3631  160.0721 H   0  0  0  0  0  0  0  0  0  0  0  0
  200.8383  188.4451  159.4970 H   0  0  0  0  0  0  0  0  0  0  0  0
  200.6127  187.1678  158.3112 H   0  0  0  0  0  0  0  0  0  0  0  0
  200.3793  186.8472  160.0264 H   0  0  0  0  0  0  0  0  0  0  0  0
  196.8082  178.7297  152.4600 H   0  0  0  0  0  0  0  0  0  0  0  0
  196.9379  178.1386  150.0383 H   0  0  0  0  0  0  0  0  0  0  0  0
  197.5569  179.8472  148.3703 H   0  0  0  0  0  0  0  0  0  0  0  0
  198.0728  182.1720  149.0970 H   0  0  0  0  0  0  0  0  0  0  0  0
  198.3315  186.4786  157.8263 H   0  0  0  0  0  0  0  0  0  0  0  0
  1  2  1  0
  2  3  2  0
  2  9  1  0
  3  4  1  0
  3  6  1  0
  4  5  3  0
  6  7  2  0
  6 37  1  0
  7  8  1  0
  7 38  1  0
  8  9  2  0
  8 10  1  0
  9 39  1  0
 10 11  2  0
 10 12  1  0
 12 13  1  0
 12 40  1  0
 13 14  2  0
 13 18  1  0
 14 15  1  0
 15 16  1  0
 15 36  2  0
 16 17  1  0
 16 33  2  0
 17 18  2  0
 17 41  1  0
 18 19  1  0
 19 20  1  0
 19 42  1  0
 20 21  1  0
 20 43  1  6
 20 44  1  0
 21 22  2  0
 21 26  1  0
 22 23  1  0
 22 45  1  0
 23 24  2  0
 23 27  1  0
 24 25  1  0
 24 46  1  0
 25 26  2  0
 25 47  1  0
 26 48  1  0
 27 28  1  0
 27 49  1  1
 27 50  1  0
 28 29  1  0
 28 31  1  0
 28 65  1  6
 29 30  1  0
 29 51  1  1
 29 52  1  0
 30 53  1  1
 30 54  1  0
 30 55  1  0
 31 32  1  0
 31 56  1  6
 31 57  1  0
 32 58  1  1
 32 59  1  0
 32 60  1  0
 33 34  1  0
 33 61  1  0
 34 35  2  0
 34 62  1  0
 35 36  1  0
 35 63  1  0
 36 64  1  0
M  CHG  1  28   1
M  END
>  <s_epik_cmdline>  (727) 
J2VwaWtfcHl0aG9uJywgJy1waCcsICc3LjAwMDAwMCcsICctcGh0JywgJzIuMDAwMDAwJywgJy1tcycsICcxNicsICctdG4nLCAnOCcsICctbWEnLCAnMjAwJywgJy1pbWFlJywgJzxpbmZpbGUubWFlPicsICctb21hZScsICc8b3V0ZmlsZS5tYWU+Jw==

>  <s_epik_input>  (727) 
RmMxYyhDI04pW2NIXVtjSF1jKFtjSF0xKUMoPU8pW05IXWMobjIpYyhbY0hdYyhjMjMpW2NIXVtjSF1bY0hdW2NIXTMpW05IXVtDSDJdYzRbY0hdYyhbY0hdW2NIXVtjSF00KVtDSDJdTihbQ0gyXVtDSDNdKVtDSDJdW0NIM10=

>  <s_i_glide_gridfile>  (727) 
ATP-Grid

>  <s_lp_Force_Field>  (727) 
OPLS_2005

>  <s_lp_Variant>  (727) 
rxn502b____EMOL911931____EMOL44466703____EMOL44153840-1

>  <s_lp_label>  (727) 
2639_sdstereoexpander_1_neutralizer_1_epik_1_stereoizer_1

>  <s_m_source_file>  (727) 
ATP-VSW-LIGPREP-003-in.maegz

>  <s_sd_BIOSOLVEIT.INFINISEE\_QUERY\_NAME>  (727) 
Ref-Lig

>  <s_sd_BIOSOLVEIT.INFINISEE\_QUERY\_SMILES>  (727) 
S(c1nc2c(cc1C[NH2+]Cc3ccc(cc3)C[NH+](C)C)cccc2)Cc4ccccc4

>  <s_sd_BIOSOLVEIT.INFINISEE\_REACTION\_NAME>  (727) 
rxn502b

>  <s_sd_BIOSOLVEIT.INFINISEE\_REAGENT1\_NAME>  (727) 
EMOL911931

>  <s_sd_BIOSOLVEIT.INFINISEE\_REAGENT1\_SMILES>  (727) 
Fc1c(C#N)ccc(c1)C(=O)O

>  <s_sd_BIOSOLVEIT.INFINISEE\_REAGENT2\_NAME>  (727) 
EMOL44466703

>  <s_sd_BIOSOLVEIT.INFINISEE\_REAGENT2\_SMILES>  (727) 
Brc1c(nc2c(c1)cccc2)N

>  <s_sd_BIOSOLVEIT.INFINISEE\_REAGENT3\_NAME>  (727) 
EMOL44153840

>  <s_sd_BIOSOLVEIT.INFINISEE\_REAGENT3\_SMILES>  (727) 
N(Cc1cc(ccc1)CN)(CC)CC

>  <s_sd_BIOSOLVEIT.INFINISEE\_SPACE>  (727) 
eXplore_7tr_2022-12

>  <s_vsw_compound_code>  (727) 
84419

>  <s_vsw_variant>  (727) 
84419-1

>  <r_epik_Charging_Adjusted_Penalty>  (727) 
0.035901477740998201

>  <r_epik_Ionization_Penalty>  (727) 
0.018200000000000001

>  <r_epik_Ionization_Penalty_Charging>  (727) 
0.017999999999999999

>  <r_epik_Ionization_Penalty_Neutral>  (727) 
0.00029999999999999997

>  <r_epik_State_Penalty>  (727) 
0.017999999999999999

>  <r_i_docking_score>  (727) 
-3.5200149393600499

>  <r_i_glide_ecoul>  (727) 
-2.8656580448150599

>  <r_i_glide_eff_state_penalty>  (727) 
0.017999999999999999

>  <r_i_glide_einternal>  (727) 
3.8432888984680198

>  <r_i_glide_emodel>  (727) 
-51.553528382495699

>  <r_i_glide_energy>  (727) 
-42.055759668350198

>  <r_i_glide_erotb>  (727) 
0.69717943793183001

>  <r_i_glide_esite>  (727) 
-0.0196246772173841

>  <r_i_glide_evdw>  (727) 
-39.190101623535199

>  <r_i_glide_gscore>  (727) 
-3.5380149393600502

>  <r_i_glide_hbond>  (727) 
0

>  <r_i_glide_ligand_efficiency>  (727) 
-0.097778192760001506

>  <r_i_glide_ligand_efficiency_ln>  (727) 
-0.76797215995484003

>  <r_i_glide_ligand_efficiency_sa>  (727) 
-0.32285647863626599

>  <r_i_glide_lipo>  (727) 
-1.56706510694822

>  <r_i_glide_metal>  (727) 
-0

>  <r_i_glide_rewards>  (727) 
-0.25915080522726203

>  <r_lp_Energy>  (727) 
30.360064000000001

>  <r_qp_ACxDN^.5/SA>  (727) 
0.014465499999999999

>  <r_qp_CIQPlogS>  (727) 
-7.024

>  <r_qp_EA(eV)>  (727) 
1.2649999999999999

>  <r_qp_FISA>  (727) 
124.53100000000001

>  <r_qp_FOSA>  (727) 
212.99000000000001

>  <r_qp_IP(eV)>  (727) 
8.3170000000000002

>  <r_qp_Jm>  (727) 
0.00022874303183569101

>  <r_qp_PISA>  (727) 
403.02800000000002

>  <r_qp_PSA>  (727) 
85.403000000000006

>  <r_qp_PercentHumanOralAbsorption>  (727) 
92.709000000000003

>  <r_qp_QPPCaco>  (727) 
162.88200000000001

>  <r_qp_QPPMDCK>  (727) 
130.036

>  <r_qp_QPlogBB>  (727) 
-0.80300000000000005

>  <r_qp_QPlogHERG>  (727) 
-7.2489999999999997

>  <r_qp_QPlogKhsa>  (727) 
0.66700000000000004

>  <r_qp_QPlogKp>  (727) 
-3.4969999999999999

>  <r_qp_QPlogPC16>  (727) 
16.027999999999999

>  <r_qp_QPlogPo/w>  (727) 
4.4699999999999998

>  <r_qp_QPlogPoct>  (727) 
25.434000000000001

>  <r_qp_QPlogPw>  (727) 
13.808

>  <r_qp_QPlogS>  (727) 
-5.8259999999999996

>  <r_qp_QPpolrz>  (727) 
51.314999999999998

>  <r_qp_SASA>  (727) 
782.11599999999999

>  <r_qp_SAamideO>  (727) 
0

>  <r_qp_SAfluorine>  (727) 
41.567

>  <r_qp_WPSA>  (727) 
41.567

>  <r_qp_accptHB>  (727) 
8

>  <r_qp_dip^2/V>  (727) 
0.055119799999999997

>  <r_qp_dipole>  (727) 
9.0939999999999994

>  <r_qp_donorHB>  (727) 
2

>  <r_qp_glob>  (727) 
0.81035250000000003

>  <r_qp_mol_MW>  (727) 
481.57100000000003

>  <r_qp_volume>  (727) 
1500.2719999999999

>  <r_sd_BIOSOLVEIT.INFINISEE\_FTREES\_SIMILARITY>  (727) 
0.91000000000000003

>  <r_sd_BIOSOLVEIT.LOGP>  (727) 
4.5346799999999998

>  <r_sd_BIOSOLVEIT.MOLECULAR\_WEIGHT>  (727) 
482.57999999999998

>  <r_sd_BIOSOLVEIT.TPSA>  (727) 
82.25

>  <i_epik_Tot_Q>  (727) 
1

>  <i_epik_Tot_abs_Q>  (727) 
1

>  <i_f3d_flags>  (727) 
0

>  <i_i_glide_confnum>  (727) 
7

>  <i_i_glide_lignum>  (727) 
1215

>  <i_i_glide_posenum>  (727) 
12

>  <i_i_glide_rotatable_bonds>  (727) 
10

>  <i_lp_mmshare_version>  (727) 
65135

>  <i_m_ct_format>  (727) 
2

>  <i_m_source_file_index>  (727) 
2639

>  <i_qp_#NandO>  (727) 
6

>  <i_qp_#acid>  (727) 
0

>  <i_qp_#amide>  (727) 
0

>  <i_qp_#amidine>  (727) 
0

>  <i_qp_#amine>  (727) 
1

>  <i_qp_#in34>  (727) 
0

>  <i_qp_#in56>  (727) 
22

>  <i_qp_#metab>  (727) 
5

>  <i_qp_#nonHatm>  (727) 
36

>  <i_qp_#noncon>  (727) 
0

>  <i_qp_#ringatoms>  (727) 
22

>  <i_qp_#rotor>  (727) 
10

>  <i_qp_#rtvFG>  (727) 
0

>  <i_qp_#stars>  (727) 
0

>  <i_qp_CNS>  (727) 
0

>  <i_qp_HumanOralAbsorption>  (727) 
3

>  <i_qp_RuleOfFive>  (727) 
0

>  <i_qp_RuleOfThree>  (727) 
1

>  <i_sd_BIOSOLVEIT.INFINISEE\_RESULT\_RANK>  (727) 
45082

>  <i_sd_version>  (727) 
0

>  <b_lp_Chiralities_Consistent>  (727) 
1

>  <b_sd_chiral_flag>  (727) 
0

>  <canonical_id>  (727) 
ATP-HTVS-71BAC3B18036

>  <compound_code>  (727) 
84419

>  <title>  (727) 
rxn502b____EMOL911931____EMOL44466703____EMOL44153840

>  <variant>  (727) 
84419-1

>  <source_file>  (727) 
运行/运行/ATP-VSW/ATP-VSW-DOCK_HTVS_1-003_lib/ATP-VSW-DOCK_HTVS_1-003_lib.mae

>  <canonical_smiles>  (727) 
CC[NH+](CC)Cc1cccc(CNc2cc3ccccc3nc2NC(=O)c2ccc(C#N)c(F)c2)c1

>  <scaffold>  (727) 
O=C(Nc1nc2ccccc2cc1NCc1ccccc1)c1ccccc1

>  <molecular_formula>  (727) 
C29H29FN5O+

$$$$
ATP-HTVS-71BF5DD28E53
     RDKit          3D

 47 50  0  0  0  0  0  0  0  0999 V2000
  202.5205  174.1275  155.1675 Cl  0  0  0  0  0  0  0  0  0  0  0  0
  201.5454  175.5455  155.0442 C   0  0  0  0  0  0  0  0  0  0  0  0
  200.8737  175.8534  153.8433 C   0  0  0  0  0  0  0  0  0  0  0  0
  200.9640  175.0329  152.7697 F   0  0  0  0  0  0  0  0  0  0  0  0
  200.0859  177.0141  153.7641 C   0  0  0  0  0  0  0  0  0  0  0  0
  199.9451  177.8539  154.8838 C   0  0  0  0  0  0  0  0  0  0  0  0
  200.6080  177.5564  156.0952 C   0  0  0  0  0  0  0  0  0  0  0  0
  201.4155  176.3939  156.1576 C   0  0  0  0  0  0  0  0  0  0  0  0
  200.4600  178.4677  157.3177 C   0  0  1  0  0  0  0  0  0  0  0  0
  201.5481  178.3489  158.2014 O   0  0  0  0  0  0  0  0  0  0  0  0
  200.2895  179.9688  156.9879 C   0  0  1  0  0  0  0  0  0  0  0  0
  198.8761  180.3334  156.9311 N   0  0  0  0  0  0  0  0  0  0  0  0
  198.5768  181.6118  156.2897 C   0  0  1  0  0  0  0  0  0  0  0  0
  198.0630  181.4463  154.8660 C   0  0  0  0  0  0  0  0  0  0  0  0
  198.4291  182.3946  153.8860 C   0  0  0  0  0  0  0  0  0  0  0  0
  197.9531  182.2751  152.5648 C   0  0  0  0  0  0  0  0  0  0  0  0
  197.1122  181.2019  152.2137 C   0  0  0  0  0  0  0  0  0  0  0  0
  196.7460  180.2505  153.1854 C   0  0  0  0  0  0  0  0  0  0  0  0
  197.2056  180.3810  154.5103 C   0  0  0  0  0  0  0  0  0  0  0  0
  197.6043  182.3898  157.1186 C   0  0  0  0  0  0  0  0  0  0  0  0
  198.0248  183.6013  157.6032 O   0  0  0  0  0  0  0  0  0  0  0  0
  196.9814  184.1063  158.3501 C   0  0  0  0  0  0  0  0  0  0  0  0
  195.8973  183.1934  158.3274 C   0  0  0  0  0  0  0  0  0  0  0  0
  194.7369  183.5513  159.0468 C   0  0  0  0  0  0  0  0  0  0  0  0
  194.6757  184.7720  159.7505 C   0  0  0  0  0  0  0  0  0  0  0  0
  195.7720  185.6599  159.7501 C   0  0  0  0  0  0  0  0  0  0  0  0
  196.9419  185.3263  159.0417 C   0  0  0  0  0  0  0  0  0  0  0  0
  196.3238  182.0956  157.5199 C   0  0  0  0  0  0  0  0  0  0  0  0
  198.3643  179.5829  156.4750 H   0  0  0  0  0  0  0  0  0  0  0  0
  199.5638  177.2529  152.8477 H   0  0  0  0  0  0  0  0  0  0  0  0
  199.3221  178.7304  154.7916 H   0  0  0  0  0  0  0  0  0  0  0  0
  201.9514  176.1396  157.0604 H   0  0  0  0  0  0  0  0  0  0  0  0
  199.5940  178.1125  157.8747 H   0  0  0  0  0  0  0  0  0  0  0  0
  202.3654  178.4451  157.7203 H   0  0  0  0  0  0  0  0  0  0  0  0
  200.7626  180.5986  157.7420 H   0  0  0  0  0  0  0  0  0  0  0  0
  200.7903  180.2025  156.0520 H   0  0  0  0  0  0  0  0  0  0  0  0
  199.4928  182.2009  156.2420 H   0  0  0  0  0  0  0  0  0  0  0  0
  199.0657  183.2248  154.1465 H   0  0  0  0  0  0  0  0  0  0  0  0
  198.2300  183.0099  151.8224 H   0  0  0  0  0  0  0  0  0  0  0  0
  196.7437  181.1106  151.2004 H   0  0  0  0  0  0  0  0  0  0  0  0
  196.0922  179.4323  152.9223 H   0  0  0  0  0  0  0  0  0  0  0  0
  196.8828  179.6577  155.2474 H   0  0  0  0  0  0  0  0  0  0  0  0
  193.8892  182.8835  159.0384 H   0  0  0  0  0  0  0  0  0  0  0  0
  193.7731  185.0374  160.2816 H   0  0  0  0  0  0  0  0  0  0  0  0
  195.7113  186.5979  160.2826 H   0  0  0  0  0  0  0  0  0  0  0  0
  197.7908  185.9916  159.0201 H   0  0  0  0  0  0  0  0  0  0  0  0
  195.7572  181.2027  157.2881 H   0  0  0  0  0  0  0  0  0  0  0  0
  1  2  1  0
  2  3  2  0
  2  8  1  0
  3  4  1  0
  3  5  1  0
  5  6  2  0
  5 30  1  0
  6  7  1  0
  6 31  1  0
  7  8  2  0
  7  9  1  0
  8 32  1  0
  9 10  1  0
  9 11  1  0
  9 33  1  1
 10 34  1  0
 11 12  1  0
 11 35  1  1
 11 36  1  0
 12 13  1  0
 12 29  1  0
 13 14  1  0
 13 20  1  0
 13 37  1  6
 14 15  2  0
 14 19  1  0
 15 16  1  0
 15 38  1  0
 16 17  2  0
 16 39  1  0
 17 18  1  0
 17 40  1  0
 18 19  2  0
 18 41  1  0
 19 42  1  0
 20 21  1  0
 20 28  2  0
 21 22  1  0
 22 23  1  0
 22 27  2  0
 23 24  2  0
 23 28  1  0
 24 25  1  0
 24 43  1  0
 25 26  2  0
 25 44  1  0
 26 27  1  0
 26 45  1  0
 27 46  1  0
 28 47  1  0
M  END
>  <s_epik_cmdline>  (728) 
J2VwaWtfcHl0aG9uJywgJy1waCcsICc3LjAwMDAwMCcsICctcGh0JywgJzIuMDAwMDAwJywgJy1tcycsICcxNicsICctdG4nLCAnOCcsICctbWEnLCAnMjAwJywgJy1pbWFlJywgJzxpbmZpbGUubWFlPicsICctb21hZScsICc8b3V0ZmlsZS5tYWU+Jw==

>  <s_epik_input>  (728) 
Q2xjMWMoRilbY0hdW2NIXWMoW2NIXTEpW0NAQEhdKFtPSF0pW0NIMl1bTkhdW0NAQEhdKGMyW2NIXVtjSF1bY0hdW2NIXVtjSF0yKWMobzMpW2NIXWMoYzM0KVtjSF1bY0hdW2NIXVtjSF00

>  <s_i_glide_gridfile>  (728) 
ATP-Grid

>  <s_lp_Force_Field>  (728) 
OPLS_2005

>  <s_lp_Variant>  (728) 
m_2230beb____22393922____22378236-7

>  <s_lp_label>  (728) 
1805_sdstereoexpander_3_neutralizer_1_epik_2_stereoizer_1

>  <s_m_source_file>  (728) 
ATP-VSW-LIGPREP-001-in.maegz

>  <s_sd_BIOSOLVEIT.INFINISEE\_QUERY\_NAME>  (728) 
Ref-Lig

>  <s_sd_BIOSOLVEIT.INFINISEE\_QUERY\_SMILES>  (728) 
S(c1nc2c(cc1C[NH2+]Cc3ccc(cc3)C[NH+](C)C)cccc2)Cc4ccccc4

>  <s_sd_BIOSOLVEIT.INFINISEE\_REACTION\_NAME>  (728) 
m_2230beb

>  <s_sd_BIOSOLVEIT.INFINISEE\_REAGENT1\_SMILES>  (728) 
[R1*]NC(c1ccccc1)C=2Oc3c(cccc3)C2

>  <s_sd_BIOSOLVEIT.INFINISEE\_REAGENT2\_SMILES>  (728) 
[R1*]CC(O)c1cc(Cl)c(F)cc1

>  <s_sd_BIOSOLVEIT.INFINISEE\_SPACE>  (728) 
REALSpace_44bn_2023-08

>  <s_vsw_compound_code>  (728) 
57729

>  <s_vsw_variant>  (728) 
57729-7

>  <r_epik_Charging_Adjusted_Penalty>  (728) 
1.7493180743543399

>  <r_epik_Ionization_Penalty>  (728) 
1.7493000000000001

>  <r_epik_Ionization_Penalty_Charging>  (728) 
0

>  <r_epik_Ionization_Penalty_Neutral>  (728) 
1.7493000000000001

>  <r_epik_State_Penalty>  (728) 
1.7493000000000001

>  <r_i_docking_score>  (728) 
-2.5716178621785302

>  <r_i_glide_ecoul>  (728) 
-4.89963579177856

>  <r_i_glide_eff_state_penalty>  (728) 
1.7493000000000001

>  <r_i_glide_einternal>  (728) 
9.2190046310424805

>  <r_i_glide_emodel>  (728) 
-45.774844737002297

>  <r_i_glide_energy>  (728) 
-38.829521656036398

>  <r_i_glide_erotb>  (728) 
0.62409124787070602

>  <r_i_glide_esite>  (728) 
0

>  <r_i_glide_evdw>  (728) 
-33.929885864257798

>  <r_i_glide_gscore>  (728) 
-4.32091786217853

>  <r_i_glide_hbond>  (728) 
-0.293376441180006

>  <r_i_glide_ligand_efficiency>  (728) 
-0.091843495077804704

>  <r_i_glide_ligand_efficiency_ln>  (728) 
-0.59360490857217896

>  <r_i_glide_ligand_efficiency_sa>  (728) 
-0.27889094398200498

>  <r_i_glide_lipo>  (728) 
-1.42221098339672

>  <r_i_glide_metal>  (728) 
-0

>  <r_i_glide_rewards>  (728) 
-0.79798202349283598

>  <r_lp_Energy>  (728) 
23.948369

>  <r_qp_ACxDN^.5/SA>  (728) 
0.0081639999999999994

>  <r_qp_CIQPlogS>  (728) 
-5.8860000000000001

>  <r_qp_EA(eV)>  (728) 
0.33100000000000002

>  <r_qp_FISA>  (728) 
44.598999999999997

>  <r_qp_FOSA>  (728) 
61.219000000000001

>  <r_qp_IP(eV)>  (728) 
8.7639999999999993

>  <r_qp_Jm>  (728) 
0.093535657074393097

>  <r_qp_PISA>  (728) 
446.26299999999998

>  <r_qp_PSA>  (728) 
39.136000000000003

>  <r_qp_PercentHumanOralAbsorption>  (728) 
100

>  <r_qp_QPPCaco>  (728) 
932.96299999999997

>  <r_qp_QPPMDCK>  (728) 
1557.325

>  <r_qp_QPlogBB>  (728) 
0.33500000000000002

>  <r_qp_QPlogHERG>  (728) 
-7.0039999999999996

>  <r_qp_QPlogKhsa>  (728) 
0.71499999999999997

>  <r_qp_QPlogKp>  (728) 
-2.1600000000000001

>  <r_qp_QPlogPC16>  (728) 
13.079000000000001

>  <r_qp_QPlogPo/w>  (728) 
4.9210000000000003

>  <r_qp_QPlogPoct>  (728) 
18.734999999999999

>  <r_qp_QPlogPw>  (728) 
9.6609999999999996

>  <r_qp_QPlogS>  (728) 
-4.4669999999999996

>  <r_qp_QPpolrz>  (728) 
40.475000000000001

>  <r_qp_SASA>  (728) 
640.93200000000002

>  <r_qp_SAamideO>  (728) 
0

>  <r_qp_SAfluorine>  (728) 
41.345999999999997

>  <r_qp_WPSA>  (728) 
88.849999999999994

>  <r_qp_accptHB>  (728) 
3.7000000000000002

>  <r_qp_dip^2/V>  (728) 
0.0127178

>  <r_qp_dipole>  (728) 
3.859

>  <r_qp_donorHB>  (728) 
2

>  <r_qp_glob>  (728) 
0.83825959999999999

>  <r_qp_mol_MW>  (728) 
395.86000000000001

>  <r_qp_volume>  (728) 
1170.95

>  <r_sd_BIOSOLVEIT.INFINISEE\_FTREES\_SIMILARITY>  (728) 
0.90400000000000003

>  <r_sd_BIOSOLVEIT.LOGP>  (728) 
4.6116999999999999

>  <r_sd_BIOSOLVEIT.MOLECULAR\_WEIGHT>  (728) 
396.86700000000002

>  <r_sd_BIOSOLVEIT.TPSA>  (728) 
49.979999999999997

>  <i_epik_Tot_Q>  (728) 
0

>  <i_epik_Tot_abs_Q>  (728) 
0

>  <i_f3d_flags>  (728) 
0

>  <i_i_glide_confnum>  (728) 
3

>  <i_i_glide_lignum>  (728) 
522

>  <i_i_glide_posenum>  (728) 
3

>  <i_i_glide_rotatable_bonds>  (728) 
7

>  <i_lp_mmshare_version>  (728) 
65135

>  <i_m_ct_format>  (728) 
2

>  <i_m_source_file_index>  (728) 
1805

>  <i_qp_#NandO>  (728) 
3

>  <i_qp_#acid>  (728) 
0

>  <i_qp_#amide>  (728) 
0

>  <i_qp_#amidine>  (728) 
0

>  <i_qp_#amine>  (728) 
1

>  <i_qp_#in34>  (728) 
0

>  <i_qp_#in56>  (728) 
21

>  <i_qp_#metab>  (728) 
5

>  <i_qp_#nonHatm>  (728) 
28

>  <i_qp_#noncon>  (728) 
0

>  <i_qp_#ringatoms>  (728) 
21

>  <i_qp_#rotor>  (728) 
7

>  <i_qp_#rtvFG>  (728) 
0

>  <i_qp_#stars>  (728) 
0

>  <i_qp_CNS>  (728) 
1

>  <i_qp_HumanOralAbsorption>  (728) 
3

>  <i_qp_RuleOfFive>  (728) 
0

>  <i_qp_RuleOfThree>  (728) 
0

>  <i_sd_BIOSOLVEIT.INFINISEE\_REAGENT1\_NAME>  (728) 
22393922

>  <i_sd_BIOSOLVEIT.INFINISEE\_REAGENT2\_NAME>  (728) 
22378236

>  <i_sd_BIOSOLVEIT.INFINISEE\_RESULT\_RANK>  (728) 
78157

>  <i_sd_version>  (728) 
0

>  <b_lp_Chiralities_Consistent>  (728) 
1

>  <b_sd_chiral_flag>  (728) 
0

>  <canonical_id>  (728) 
ATP-HTVS-71BF5DD28E53

>  <compound_code>  (728) 
57729

>  <title>  (728) 
m_2230beb____22393922____22378236

>  <variant>  (728) 
57729-7

>  <source_file>  (728) 
运行/运行/ATP-VSW/ATP-VSW-DOCK_HTVS_1-001_lib/ATP-VSW-DOCK_HTVS_1-001_lib

>  <canonical_smiles>  (728) 
O[C@@H](CN[C@@H](c1ccccc1)c1cc2ccccc2o1)c1ccc(F)c(Cl)c1

>  <scaffold>  (728) 
c1ccc(CCNC(c2ccccc2)c2cc3ccccc3o2)cc1

>  <molecular_formula>  (728) 
C23H19ClFNO2

$$$$
ATP-HTVS-71D6C35FE659
     RDKit          3D

 53 56  0  0  0  0  0  0  0  0999 V2000
  201.1338  178.7085  157.2067 Cl  0  0  0  0  0  0  0  0  0  0  0  0
  201.1865  180.4276  157.3341 C   0  0  0  0  0  0  0  0  0  0  0  0
  200.4514  181.2274  156.4341 C   0  0  0  0  0  0  0  0  0  0  0  0
  200.5042  182.6320  156.5394 C   0  0  0  0  0  0  0  0  0  0  0  0
  201.2731  183.2452  157.5555 C   0  0  0  0  0  0  0  0  0  0  0  0
  201.9940  182.4320  158.4598 C   0  0  0  0  0  0  0  0  0  0  0  0
  201.9607  181.0299  158.3348 C   0  0  0  0  0  0  0  0  0  0  0  0
  201.2800  184.7691  157.6862 C   0  0  1  0  0  0  0  0  0  0  0  0
  200.0973  185.1973  158.5560 C   0  0  0  0  0  0  0  0  0  0  0  0
  200.2430  185.4238  159.7581 O   0  0  0  0  0  0  0  0  0  0  0  0
  198.9060  185.2954  157.9263 N   0  0  0  0  0  0  0  0  0  0  0  0
  197.6739  185.5741  158.5363 C   0  0  0  0  0  0  0  0  0  0  0  0
  197.3454  186.8898  158.9757 C   0  0  0  0  0  0  0  0  0  0  0  0
  198.2142  187.9975  158.8447 N   0  0  0  0  0  0  0  0  0  0  0  0
  198.7181  188.5440  157.6335 C   0  0  0  0  0  0  0  0  0  0  0  0
  199.4984  189.7328  157.6176 C   0  0  0  0  0  0  0  0  0  0  0  0
  199.9370  190.2998  156.3973 C   0  0  0  0  0  0  0  0  0  0  0  0
  199.6702  189.6526  155.1795 C   0  0  0  0  0  0  0  0  0  0  0  0
  198.9325  188.4586  155.1768 C   0  0  0  0  0  0  0  0  0  0  0  0
  198.4220  187.9332  156.3905 C   0  0  0  0  0  0  0  0  0  0  0  0
  198.4481  188.7058  160.1138 C   0  0  1  0  0  0  0  0  0  0  0  0
  197.8935  190.0719  160.1520 C   0  0  0  0  0  0  0  0  0  0  0  0
  197.4570  191.1405  160.1961 N   0  0  0  0  0  0  0  0  0  0  0  0
  196.0890  187.0647  159.5952 C   0  0  0  0  0  0  0  0  0  0  0  0
  195.1748  186.0786  159.7470 N   0  0  0  0  0  0  0  0  0  0  0  0
  195.4539  184.8577  159.2673 C   0  0  0  0  0  0  0  0  0  0  0  0
  196.6969  184.5515  158.6546 C   0  0  0  0  0  0  0  0  0  0  0  0
  196.9436  183.2401  158.1769 C   0  0  0  0  0  0  0  0  0  0  0  0
  195.9772  182.2330  158.3242 C   0  0  0  0  0  0  0  0  0  0  0  0
  194.7398  182.5378  158.9260 C   0  0  0  0  0  0  0  0  0  0  0  0
  194.4834  183.8404  159.3874 C   0  0  0  0  0  0  0  0  0  0  0  0
  202.6137  185.3550  158.1950 C   0  0  2  0  0  0  0  0  0  0  0  0
  199.8488  180.7657  155.6666 H   0  0  0  0  0  0  0  0  0  0  0  0
  199.9262  183.2338  155.8511 H   0  0  0  0  0  0  0  0  0  0  0  0
  202.5669  182.8585  159.2683 H   0  0  0  0  0  0  0  0  0  0  0  0
  202.5210  180.4201  159.0265 H   0  0  0  0  0  0  0  0  0  0  0  0
  201.1272  185.1801  156.6879 H   0  0  0  0  0  0  0  0  0  0  0  0
  198.8808  185.0574  156.9406 H   0  0  0  0  0  0  0  0  0  0  0  0
  199.7706  190.2601  158.5168 H   0  0  0  0  0  0  0  0  0  0  0  0
  200.4715  191.2391  156.4090 H   0  0  0  0  0  0  0  0  0  0  0  0
  200.0086  190.0786  154.2462 H   0  0  0  0  0  0  0  0  0  0  0  0
  198.7122  187.9460  154.2551 H   0  0  0  0  0  0  0  0  0  0  0  0
  197.8077  187.0527  156.3160 H   0  0  0  0  0  0  0  0  0  0  0  0
  197.9635  188.2009  160.9424 H   0  0  0  0  0  0  0  0  0  0  0  0
  199.5121  188.7193  160.3461 H   0  0  0  0  0  0  0  0  0  0  0  0
  195.7862  188.0310  159.9494 H   0  0  0  0  0  0  0  0  0  0  0  0
  197.8758  182.9767  157.7011 H   0  0  0  0  0  0  0  0  0  0  0  0
  196.1872  181.2325  157.9757 H   0  0  0  0  0  0  0  0  0  0  0  0
  194.0042  181.7532  159.0338 H   0  0  0  0  0  0  0  0  0  0  0  0
  193.5275  184.0810  159.8341 H   0  0  0  0  0  0  0  0  0  0  0  0
  202.8455  185.0423  159.2119 H   0  0  0  0  0  0  0  0  0  0  0  0
  202.5912  186.4462  158.2038 H   0  0  0  0  0  0  0  0  0  0  0  0
  203.4395  185.0513  157.5550 H   0  0  0  0  0  0  0  0  0  0  0  0
  1  2  1  0
  2  3  1  0
  2  7  2  0
  3  4  2  0
  3 33  1  0
  4  5  1  0
  4 34  1  0
  5  6  2  0
  5  8  1  0
  6  7  1  0
  6 35  1  0
  7 36  1  0
  8  9  1  0
  8 32  1  0
  8 37  1  6
  9 10  2  0
  9 11  1  0
 11 12  1  0
 11 38  1  0
 12 13  2  0
 12 27  1  0
 13 14  1  0
 13 24  1  0
 14 15  1  0
 14 21  1  0
 15 16  2  0
 15 20  1  0
 16 17  1  0
 16 39  1  0
 17 18  2  0
 17 40  1  0
 18 19  1  0
 18 41  1  0
 19 20  2  0
 19 42  1  0
 20 43  1  0
 21 22  1  0
 21 44  1  1
 21 45  1  0
 22 23  3  0
 24 25  2  0
 24 46  1  0
 25 26  1  0
 26 27  1  0
 26 31  2  0
 27 28  2  0
 28 29  1  0
 28 47  1  0
 29 30  2  0
 29 48  1  0
 30 31  1  0
 30 49  1  0
 31 50  1  0
 32 51  1  1
 32 52  1  0
 32 53  1  0
M  END
>  <s_epik_cmdline>  (729) 
J2VwaWtfcHl0aG9uJywgJy1waCcsICc3LjAwMDAwMCcsICctcGh0JywgJzIuMDAwMDAwJywgJy1tcycsICcxNicsICctdG4nLCAnOCcsICctbWEnLCAnMjAwJywgJy1pbWFlJywgJzxpbmZpbGUubWFlPicsICctb21hZScsICc8b3V0ZmlsZS5tYWU+Jw==

>  <s_epik_input>  (729) 
Q2xjMVtjSF1bY0hdYyhbY0hdW2NIXTEpW0NASF0oW0NIM10pQyg9TylbTkhdYyhjKGMyMylbY0hdW2NIXVtjSF1bY0hdMyljKFtjSF1uMilOKFtDSDJdQyNOKWM0W2NIXVtjSF1bY0hdW2NIXVtjSF00

>  <s_i_glide_gridfile>  (729) 
ATP-Grid

>  <s_lp_Force_Field>  (729) 
OPLS_2005

>  <s_lp_Variant>  (729) 
rxn502b____EMOL49828498____EMOL13728749____EMOL712348-2

>  <s_lp_label>  (729) 
2425_sdstereoexpander_2_neutralizer_1_epik_1_stereoizer_1

>  <s_m_source_file>  (729) 
ATP-VSW-LIGPREP-002-in.maegz

>  <s_sd_BIOSOLVEIT.INFINISEE\_QUERY\_NAME>  (729) 
Ref-Lig

>  <s_sd_BIOSOLVEIT.INFINISEE\_QUERY\_SMILES>  (729) 
S(c1nc2c(cc1C[NH2+]Cc3ccc(cc3)C[NH+](C)C)cccc2)Cc4ccccc4

>  <s_sd_BIOSOLVEIT.INFINISEE\_REACTION\_NAME>  (729) 
rxn502b

>  <s_sd_BIOSOLVEIT.INFINISEE\_REAGENT1\_NAME>  (729) 
EMOL49828498

>  <s_sd_BIOSOLVEIT.INFINISEE\_REAGENT1\_SMILES>  (729) 
Clc1ccc(cc1)C(C(Cl)=O)C

>  <s_sd_BIOSOLVEIT.INFINISEE\_REAGENT2\_NAME>  (729) 
EMOL13728749

>  <s_sd_BIOSOLVEIT.INFINISEE\_REAGENT2\_SMILES>  (729) 
Brc1c(N)c2c(nc1)cccc2

>  <s_sd_BIOSOLVEIT.INFINISEE\_REAGENT3\_NAME>  (729) 
EMOL712348

>  <s_sd_BIOSOLVEIT.INFINISEE\_REAGENT3\_SMILES>  (729) 
N#CCNc1ccccc1

>  <s_sd_BIOSOLVEIT.INFINISEE\_SPACE>  (729) 
eXplore_7tr_2022-12

>  <s_vsw_compound_code>  (729) 
77570

>  <s_vsw_variant>  (729) 
77570-2

>  <r_epik_Charging_Adjusted_Penalty>  (729) 
0.0013238908211000799

>  <r_epik_Ionization_Penalty>  (729) 
0.0012999999999999999

>  <r_epik_Ionization_Penalty_Charging>  (729) 
0

>  <r_epik_Ionization_Penalty_Neutral>  (729) 
0.0012999999999999999

>  <r_epik_State_Penalty>  (729) 
0.0012999999999999999

>  <r_i_docking_score>  (729) 
-3.3659914292764399

>  <r_i_glide_ecoul>  (729) 
-2.5177669525146502

>  <r_i_glide_eff_state_penalty>  (729) 
0.0012999999999999999

>  <r_i_glide_einternal>  (729) 
2.8463370800018302

>  <r_i_glide_emodel>  (729) 
-42.393222551310501

>  <r_i_glide_energy>  (729) 
-35.623628616333001

>  <r_i_glide_erotb>  (729) 
0.51361344666407005

>  <r_i_glide_esite>  (729) 
-0.060425435733066801

>  <r_i_glide_evdw>  (729) 
-33.105861663818402

>  <r_i_glide_gscore>  (729) 
-3.36729142927644

>  <r_i_glide_hbond>  (729) 
0

>  <r_i_glide_ligand_efficiency>  (729) 
-0.105187232164889

>  <r_i_glide_ligand_efficiency_ln>  (729) 
-0.75373723447599805

>  <r_i_glide_ligand_efficiency_sa>  (729) 
-0.33394864559854298

>  <r_i_glide_lipo>  (729) 
-1.32947142323388

>  <r_i_glide_metal>  (729) 
-0

>  <r_i_glide_rewards>  (729) 
-0.45804989090544701

>  <r_lp_Energy>  (729) 
33.805799

>  <r_qp_ACxDN^.5/SA>  (729) 
0.0083578000000000003

>  <r_qp_CIQPlogS>  (729) 
-8.3040000000000003

>  <r_qp_EA(eV)>  (729) 
1.361

>  <r_qp_FISA>  (729) 
98.781000000000006

>  <r_qp_FOSA>  (729) 
113.146

>  <r_qp_IP(eV)>  (729) 
8.6660000000000004

>  <r_qp_Jm>  (729) 
0.0100955173323994

>  <r_qp_PISA>  (729) 
390.07799999999997

>  <r_qp_PSA>  (729) 
68.694999999999993

>  <r_qp_PercentHumanOralAbsorption>  (729) 
100

>  <r_qp_QPPCaco>  (729) 
1145.924

>  <r_qp_QPPMDCK>  (729) 
1162.519

>  <r_qp_QPlogBB>  (729) 
-0.60599999999999998

>  <r_qp_QPlogHERG>  (729) 
-5.6200000000000001

>  <r_qp_QPlogKhsa>  (729) 
0.71699999999999997

>  <r_qp_QPlogKp>  (729) 
-1.294

>  <r_qp_QPlogPC16>  (729) 
14.084

>  <r_qp_QPlogPo/w>  (729) 
4.9660000000000002

>  <r_qp_QPlogPoct>  (729) 
20.202999999999999

>  <r_qp_QPlogPw>  (729) 
9.9860000000000007

>  <r_qp_QPlogS>  (729) 
-6.3460000000000001

>  <r_qp_QPpolrz>  (729) 
43.942

>  <r_qp_SASA>  (729) 
658.06700000000001

>  <r_qp_SAamideO>  (729) 
0

>  <r_qp_SAfluorine>  (729) 
0

>  <r_qp_WPSA>  (729) 
56.061999999999998

>  <r_qp_accptHB>  (729) 
5.5

>  <r_qp_dip^2/V>  (729) 
0.055813000000000001

>  <r_qp_dipole>  (729) 
8.4220000000000006

>  <r_qp_donorHB>  (729) 
1

>  <r_qp_glob>  (729) 
0.86229619999999996

>  <r_qp_mol_MW>  (729) 
440.93099999999998

>  <r_qp_volume>  (729) 
1270.991

>  <r_sd_BIOSOLVEIT.INFINISEE\_FTREES\_SIMILARITY>  (729) 
0.91700000000000004

>  <r_sd_BIOSOLVEIT.LOGP>  (729) 
6.2920800000000003

>  <r_sd_BIOSOLVEIT.MOLECULAR\_WEIGHT>  (729) 
440.93200000000002

>  <r_sd_BIOSOLVEIT.TPSA>  (729) 
69.019999999999996

>  <i_epik_Tot_Q>  (729) 
0

>  <i_epik_Tot_abs_Q>  (729) 
0

>  <i_f3d_flags>  (729) 
0

>  <i_i_glide_confnum>  (729) 
3

>  <i_i_glide_lignum>  (729) 
1035

>  <i_i_glide_posenum>  (729) 
16

>  <i_i_glide_rotatable_bonds>  (729) 
7

>  <i_lp_mmshare_version>  (729) 
65135

>  <i_m_ct_format>  (729) 
2

>  <i_m_source_file_index>  (729) 
2425

>  <i_qp_#NandO>  (729) 
5

>  <i_qp_#acid>  (729) 
0

>  <i_qp_#amide>  (729) 
0

>  <i_qp_#amidine>  (729) 
0

>  <i_qp_#amine>  (729) 
0

>  <i_qp_#in34>  (729) 
0

>  <i_qp_#in56>  (729) 
22

>  <i_qp_#metab>  (729) 
5

>  <i_qp_#nonHatm>  (729) 
32

>  <i_qp_#noncon>  (729) 
0

>  <i_qp_#ringatoms>  (729) 
22

>  <i_qp_#rotor>  (729) 
7

>  <i_qp_#rtvFG>  (729) 
0

>  <i_qp_#stars>  (729) 
0

>  <i_qp_CNS>  (729) 
0

>  <i_qp_HumanOralAbsorption>  (729) 
1

>  <i_qp_RuleOfFive>  (729) 
0

>  <i_qp_RuleOfThree>  (729) 
1

>  <i_sd_BIOSOLVEIT.INFINISEE\_RESULT\_RANK>  (729) 
22911

>  <i_sd_version>  (729) 
0

>  <b_lp_Chiralities_Consistent>  (729) 
1

>  <b_sd_chiral_flag>  (729) 
0

>  <canonical_id>  (729) 
ATP-HTVS-71D6C35FE659

>  <compound_code>  (729) 
77570

>  <title>  (729) 
rxn502b____EMOL49828498____EMOL13728749____EMOL712348

>  <variant>  (729) 
77570-2

>  <source_file>  (729) 
运行/运行/ATP-VSW/ATP-VSW-DOCK_HTVS_1-002_lib.maegz

>  <canonical_smiles>  (729) 
C[C@H](C(=O)Nc1c(N(CC#N)c2ccccc2)cnc2ccccc12)c1ccc(Cl)cc1

>  <scaffold>  (729) 
O=C(Cc1ccccc1)Nc1c(Nc2ccccc2)cnc2ccccc12

>  <molecular_formula>  (729) 
C26H21ClN4O

$$$$
ATP-HTVS-7201DD4C282A
     RDKit          3D

 50 53  0  0  0  0  0  0  0  0999 V2000
  198.1874  184.4039  154.5264 N   0  0  0  0  0  0  0  0  0  0  0  0
  198.4331  184.7211  153.2426 C   0  0  0  0  0  0  0  0  0  0  0  0
  198.1676  183.9272  152.1970 N   0  0  0  0  0  0  0  0  0  0  0  0
  197.6045  182.7254  152.4375 C   0  0  0  0  0  0  0  0  0  0  0  0
  197.3329  182.2882  153.7639 C   0  0  0  0  0  0  0  0  0  0  0  0
  197.6588  183.1914  154.8033 C   0  0  0  0  0  0  0  0  0  0  0  0
  197.4419  182.8523  156.1494 N   0  0  0  0  0  0  0  0  0  0  0  0
  197.5183  183.6240  157.3336 C   0  0  0  0  0  0  0  0  0  0  0  0
  196.7311  183.2452  158.4701 C   0  0  0  0  0  0  0  0  0  0  0  0
  196.7930  184.0125  159.6461 C   0  0  0  0  0  0  0  0  0  0  0  0
  197.5540  185.2011  159.7081 C   0  0  0  0  0  0  0  0  0  0  0  0
  198.3359  185.5745  158.6099 C   0  0  0  0  0  0  0  0  0  0  0  0
  198.3441  184.7775  157.4518 C   0  0  0  0  0  0  0  0  0  0  0  0
  195.7605  182.0563  158.4399 C   0  0  1  0  0  0  0  0  0  0  0  0
  194.3370  182.4173  158.1351 N   0  0  1  0  0  0  0  0  0  0  0  0
  193.4279  181.2624  158.3012 C   0  0  2  0  0  0  0  0  0  0  0  0
  193.8260  183.6213  158.8357 C   0  0  2  0  0  0  0  0  0  0  0  0
  196.7494  181.0191  153.9947 C   0  0  0  0  0  0  0  0  0  0  0  0
  196.4323  180.1898  152.9047 C   0  0  0  0  0  0  0  0  0  0  0  0
  196.6867  180.6235  151.5884 C   0  0  0  0  0  0  0  0  0  0  0  0
  197.2736  181.8831  151.3645 C   0  0  0  0  0  0  0  0  0  0  0  0
  199.0656  186.0341  153.0028 C   0  0  0  0  0  0  0  0  0  0  0  0
  199.7656  186.2824  151.8060 C   0  0  0  0  0  0  0  0  0  0  0  0
  200.3562  187.5398  151.5692 C   0  0  0  0  0  0  0  0  0  0  0  0
  200.2405  188.5704  152.5214 C   0  0  0  0  0  0  0  0  0  0  0  0
  199.5581  188.3303  153.7266 C   0  0  0  0  0  0  0  0  0  0  0  0
  198.9868  187.0675  153.9730 C   0  0  0  0  0  0  0  0  0  0  0  0
  197.0432  181.9350  156.2563 H   0  0  0  0  0  0  0  0  0  0  0  0
  196.2065  183.7501  160.5093 H   0  0  0  0  0  0  0  0  0  0  0  0
  197.5229  185.8358  160.5838 H   0  0  0  0  0  0  0  0  0  0  0  0
  198.9361  186.4695  158.6397 H   0  0  0  0  0  0  0  0  0  0  0  0
  199.0071  185.1174  156.6745 H   0  0  0  0  0  0  0  0  0  0  0  0
  196.0874  181.3145  157.7063 H   0  0  0  0  0  0  0  0  0  0  0  0
  195.8193  181.5348  159.4067 H   0  0  0  0  0  0  0  0  0  0  0  0
  193.4337  180.9069  159.3324 H   0  0  0  0  0  0  0  0  0  0  0  0
  193.7097  180.4272  157.6570 H   0  0  0  0  0  0  0  0  0  0  0  0
  192.4101  181.5412  158.0345 H   0  0  0  0  0  0  0  0  0  0  0  0
  193.9226  183.4852  159.9118 H   0  0  0  0  0  0  0  0  0  0  0  0
  192.7637  183.8167  158.6007 H   0  0  0  0  0  0  0  0  0  0  0  0
  194.3400  184.5368  158.5556 H   0  0  0  0  0  0  0  0  0  0  0  0
  196.5348  180.6624  154.9880 H   0  0  0  0  0  0  0  0  0  0  0  0
  195.9770  179.2214  153.0668 H   0  0  0  0  0  0  0  0  0  0  0  0
  196.4317  179.9859  150.7490 H   0  0  0  0  0  0  0  0  0  0  0  0
  197.4764  182.2220  150.3556 H   0  0  0  0  0  0  0  0  0  0  0  0
  199.8582  185.5059  151.0609 H   0  0  0  0  0  0  0  0  0  0  0  0
  200.8864  187.7179  150.6465 H   0  0  0  0  0  0  0  0  0  0  0  0
  200.6720  189.5425  152.3207 H   0  0  0  0  0  0  0  0  0  0  0  0
  199.4599  189.1265  154.4536 H   0  0  0  0  0  0  0  0  0  0  0  0
  198.4558  186.9092  154.8980 H   0  0  0  0  0  0  0  0  0  0  0  0
  194.2692  182.6216  157.1384 H   0  0  0  0  0  0  0  0  0  0  0  0
  1  2  2  0
  1  6  1  0
  2  3  1  0
  2 22  1  0
  3  4  2  0
  4  5  1  0
  4 21  1  0
  5  6  2  0
  5 18  1  0
  6  7  1  0
  7  8  1  0
  7 28  1  0
  8  9  1  0
  8 13  2  0
  9 10  2  0
  9 14  1  0
 10 11  1  0
 10 29  1  0
 11 12  2  0
 11 30  1  0
 12 13  1  0
 12 31  1  0
 13 32  1  0
 14 15  1  0
 14 33  1  6
 14 34  1  0
 15 16  1  0
 15 17  1  0
 15 50  1  6
 16 35  1  1
 16 36  1  0
 16 37  1  0
 17 38  1  1
 17 39  1  0
 17 40  1  0
 18 19  2  0
 18 41  1  0
 19 20  1  0
 19 42  1  0
 20 21  2  0
 20 43  1  0
 21 44  1  0
 22 23  2  0
 22 27  1  0
 23 24  1  0
 23 45  1  0
 24 25  2  0
 24 46  1  0
 25 26  1  0
 25 47  1  0
 26 27  2  0
 26 48  1  0
 27 49  1  0
M  CHG  1  15   1
M  END
>  <s_epik_cmdline>  (730) 
J2VwaWtfcHl0aG9uJywgJy1waCcsICc3LjAwMDAwMCcsICctcGh0JywgJzIuMDAwMDAwJywgJy1tcycsICcxNicsICctdG4nLCAnOCcsICctbWEnLCAnMjAwJywgJy1pbWFlJywgJzxpbmZpbGUubWFlPicsICctb21hZScsICc8b3V0ZmlsZS5tYWU+Jw==

>  <s_epik_input>  (730) 
W2NIXTFbY0hdW2NIXVtjSF1bY0hdYzEtYyhuMiluYyhjKGMyMylbY0hdW2NIXVtjSF1bY0hdMylbTkhdYzRjKFtDSDJdTihbQ0gzXSlbQ0gzXSlbY0hdW2NIXVtjSF1bY0hdNA==

>  <s_i_glide_gridfile>  (730) 
ATP-Grid

>  <s_lp_Force_Field>  (730) 
OPLS_2005

>  <s_lp_Variant>  (730) 
a2____102774____250005-1

>  <s_lp_label>  (730) 
209_sdstereoexpander_1_neutralizer_1_epik_1_stereoizer_1

>  <s_m_source_file>  (730) 
ATP-VSW-LIGPREP-001-in.maegz

>  <s_sd_BIOSOLVEIT.INFINISEE\_QUERY\_NAME>  (730) 
Ref-Lig

>  <s_sd_BIOSOLVEIT.INFINISEE\_QUERY\_SMILES>  (730) 
S(c1nc2c(cc1C[NH2+]Cc3ccc(cc3)C[NH+](C)C)cccc2)Cc4ccccc4

>  <s_sd_BIOSOLVEIT.INFINISEE\_REACTION\_NAME>  (730) 
a2

>  <s_sd_BIOSOLVEIT.INFINISEE\_REAGENT1\_SMILES>  (730) 
[R1*]Nc1c(cccc1)CN(C)C

>  <s_sd_BIOSOLVEIT.INFINISEE\_REAGENT2\_SMILES>  (730) 
[R1*]c1nc(nc2c1cccc2)c3ccccc3

>  <s_sd_BIOSOLVEIT.INFINISEE\_SPACE>  (730) 
FreedomSpace_5bn_2023-06

>  <s_vsw_compound_code>  (730) 
6657

>  <s_vsw_variant>  (730) 
6657-1

>  <r_epik_Charging_Adjusted_Penalty>  (730) 
0.074139713783215794

>  <r_epik_Ionization_Penalty>  (730) 
0.037400000000000003

>  <r_epik_Ionization_Penalty_Charging>  (730) 
0.037100000000000001

>  <r_epik_Ionization_Penalty_Neutral>  (730) 
0.00040000000000000002

>  <r_epik_State_Penalty>  (730) 
0.037100000000000001

>  <r_i_docking_score>  (730) 
-4.5489854026352399

>  <r_i_glide_ecoul>  (730) 
-9.0839996337890607

>  <r_i_glide_eff_state_penalty>  (730) 
0.037100000000000001

>  <r_i_glide_einternal>  (730) 
2.0000848770141602

>  <r_i_glide_emodel>  (730) 
-54.840112114621299

>  <r_i_glide_energy>  (730) 
-39.3612575531006

>  <r_i_glide_erotb>  (730) 
0.60533368641083696

>  <r_i_glide_esite>  (730) 
-0.124979539922859

>  <r_i_glide_evdw>  (730) 
-30.277257919311499

>  <r_i_glide_gscore>  (730) 
-4.5860854026352396

>  <r_i_glide_hbond>  (730) 
-0.20000000000000001

>  <r_i_glide_ligand_efficiency>  (730) 
-0.168480940838342

>  <r_i_glide_ligand_efficiency_ln>  (730) 
-1.0589288058478701

>  <r_i_glide_ligand_efficiency_sa>  (730) 
-0.505442821959741

>  <r_i_glide_lipo>  (730) 
-0.98868964328590403

>  <r_i_glide_metal>  (730) 
-0

>  <r_i_glide_rewards>  (730) 
-1.00128706480338

>  <r_lp_Energy>  (730) 
24.474769999999999

>  <r_lp_tautomer_probability>  (730) 
0.99997800024199801

>  <r_qp_ACxDN^.5/SA>  (730) 
0.0067999999999999996

>  <r_qp_CIQPlogS>  (730) 
-4.8890000000000002

>  <r_qp_EA(eV)>  (730) 
1.0189999999999999

>  <r_qp_FISA>  (730) 
15.429

>  <r_qp_FOSA>  (730) 
162.52799999999999

>  <r_qp_IP(eV)>  (730) 
8.1940000000000008

>  <r_qp_Jm>  (730) 
0.16650853089128101

>  <r_qp_PISA>  (730) 
483.80399999999997

>  <r_qp_PSA>  (730) 
29.486999999999998

>  <r_qp_PercentHumanOralAbsorption>  (730) 
100

>  <r_qp_QPPCaco>  (730) 
1763.943

>  <r_qp_QPPMDCK>  (730) 
1010.765

>  <r_qp_QPlogBB>  (730) 
0.50800000000000001

>  <r_qp_QPlogHERG>  (730) 
-7.4829999999999997

>  <r_qp_QPlogKhsa>  (730) 
0.76100000000000001

>  <r_qp_QPlogKp>  (730) 
-1.6819999999999999

>  <r_qp_QPlogPC16>  (730) 
13.000999999999999

>  <r_qp_QPlogPo/w>  (730) 
4.7880000000000003

>  <r_qp_QPlogPoct>  (730) 
18.091999999999999

>  <r_qp_QPlogPw>  (730) 
9.5020000000000007

>  <r_qp_QPlogS>  (730) 
-4.6459999999999999

>  <r_qp_QPpolrz>  (730) 
42.796999999999997

>  <r_qp_SASA>  (730) 
661.76099999999997

>  <r_qp_SAamideO>  (730) 
0

>  <r_qp_SAfluorine>  (730) 
0

>  <r_qp_WPSA>  (730) 
0

>  <r_qp_accptHB>  (730) 
4.5

>  <r_qp_dip^2/V>  (730) 
0.0193733

>  <r_qp_dipole>  (730) 
4.7969999999999997

>  <r_qp_donorHB>  (730) 
1

>  <r_qp_glob>  (730) 
0.81970299999999996

>  <r_qp_mol_MW>  (730) 
354.45400000000001

>  <r_qp_volume>  (730) 
1187.925

>  <r_sd_BIOSOLVEIT.INFINISEE\_FTREES\_SIMILARITY>  (730) 
0.92100000000000004

>  <r_sd_BIOSOLVEIT.LOGP>  (730) 
3.6848999999999998

>  <r_sd_BIOSOLVEIT.MOLECULAR\_WEIGHT>  (730) 
355.46300000000002

>  <r_sd_BIOSOLVEIT.TPSA>  (730) 
42.25

>  <i_epik_Tot_Q>  (730) 
1

>  <i_epik_Tot_abs_Q>  (730) 
1

>  <i_f3d_flags>  (730) 
0

>  <i_i_glide_confnum>  (730) 
4

>  <i_i_glide_lignum>  (730) 
45

>  <i_i_glide_posenum>  (730) 
6

>  <i_i_glide_rotatable_bonds>  (730) 
5

>  <i_lp_mmshare_version>  (730) 
65135

>  <i_m_ct_format>  (730) 
2

>  <i_m_source_file_index>  (730) 
209

>  <i_qp_#NandO>  (730) 
4

>  <i_qp_#acid>  (730) 
0

>  <i_qp_#amide>  (730) 
0

>  <i_qp_#amidine>  (730) 
0

>  <i_qp_#amine>  (730) 
1

>  <i_qp_#in34>  (730) 
0

>  <i_qp_#in56>  (730) 
22

>  <i_qp_#metab>  (730) 
3

>  <i_qp_#nonHatm>  (730) 
27

>  <i_qp_#noncon>  (730) 
0

>  <i_qp_#ringatoms>  (730) 
22

>  <i_qp_#rotor>  (730) 
5

>  <i_qp_#rtvFG>  (730) 
0

>  <i_qp_#stars>  (730) 
1

>  <i_qp_CNS>  (730) 
2

>  <i_qp_HumanOralAbsorption>  (730) 
3

>  <i_qp_RuleOfFive>  (730) 
0

>  <i_qp_RuleOfThree>  (730) 
0

>  <i_sd_BIOSOLVEIT.INFINISEE\_REAGENT1\_NAME>  (730) 
102774

>  <i_sd_BIOSOLVEIT.INFINISEE\_REAGENT2\_NAME>  (730) 
250005

>  <i_sd_BIOSOLVEIT.INFINISEE\_RESULT\_RANK>  (730) 
15044

>  <i_sd_version>  (730) 
0

>  <b_lp_Chiralities_Consistent>  (730) 
1

>  <b_sd_chiral_flag>  (730) 
0

>  <canonical_id>  (730) 
ATP-HTVS-7201DD4C282A

>  <compound_code>  (730) 
6657

>  <title>  (730) 
a2____102774____250005

>  <variant>  (730) 
6657-1

>  <source_file>  (730) 
运行/运行/ATP-VSW/ATP-VSW-DOCK_HTVS_1-001_lib/ATP-VSW-DOCK_HTVS_1-001_lib

>  <canonical_smiles>  (730) 
C[NH+](C)Cc1ccccc1Nc1nc(-c2ccccc2)nc2ccccc12

>  <scaffold>  (730) 
c1ccc(Nc2nc(-c3ccccc3)nc3ccccc23)cc1

>  <molecular_formula>  (730) 
C23H23N4+

$$$$
ATP-HTVS-72573E055255
     RDKit          3D

 51 54  0  0  0  0  0  0  0  0999 V2000
  200.8089  183.8627  159.5912 F   0  0  0  0  0  0  0  0  0  0  0  0
  201.6600  182.8302  159.3800 C   0  0  0  0  0  0  0  0  0  0  0  0
  202.8373  182.7135  160.1481 C   0  0  0  0  0  0  0  0  0  0  0  0
  203.7117  181.6308  159.9251 C   0  0  0  0  0  0  0  0  0  0  0  0
  203.4098  180.6688  158.9428 C   0  0  0  0  0  0  0  0  0  0  0  0
  202.2291  180.7759  158.1813 C   0  0  0  0  0  0  0  0  0  0  0  0
  201.9478  179.7841  157.2339 N   0  0  0  0  0  0  0  0  0  0  0  0
  200.6341  179.4167  156.9562 N   0  0  0  0  0  0  0  0  0  0  0  0
  200.1588  179.3739  155.7063 C   0  0  0  0  0  0  0  0  0  0  0  0
  200.8268  179.6911  154.7220 O   0  0  0  0  0  0  0  0  0  0  0  0
  198.7094  178.9037  155.5523 C   0  0  1  0  0  0  0  0  0  0  0  0
  197.9993  179.6787  154.5412 N   0  0  0  0  0  0  0  0  0  0  0  0
  198.1261  179.5127  153.1634 C   0  0  0  0  0  0  0  0  0  0  0  0
  197.2814  180.5026  152.5927 C   0  0  0  0  0  0  0  0  0  0  0  0
  196.6626  181.2453  153.5765 N   0  0  0  0  0  0  0  0  0  0  0  0
  197.1275  180.7073  154.7080 C   0  0  0  0  0  0  0  0  0  0  0  0
  196.6861  181.2107  156.0551 C   0  0  1  0  0  0  0  0  0  0  0  0
  197.1198  182.5565  156.1853 O   0  0  0  0  0  0  0  0  0  0  0  0
  196.7214  183.2441  157.3101 C   0  0  0  0  0  0  0  0  0  0  0  0
  197.2038  184.5601  157.4610 C   0  0  0  0  0  0  0  0  0  0  0  0
  196.8134  185.3497  158.5604 C   0  0  0  0  0  0  0  0  0  0  0  0
  195.9339  184.8265  159.5254 C   0  0  0  0  0  0  0  0  0  0  0  0
  195.4517  183.5121  159.3908 C   0  0  0  0  0  0  0  0  0  0  0  0
  195.8480  182.7193  158.2971 C   0  0  0  0  0  0  0  0  0  0  0  0
  197.2080  180.5886  151.1816 C   0  0  0  0  0  0  0  0  0  0  0  0
  197.9629  179.7153  150.3680 C   0  0  0  0  0  0  0  0  0  0  0  0
  198.7962  178.7404  150.9560 C   0  0  0  0  0  0  0  0  0  0  0  0
  198.8783  178.6383  152.3585 C   0  0  0  0  0  0  0  0  0  0  0  0
  201.3618  181.8709  158.3932 C   0  0  0  0  0  0  0  0  0  0  0  0
  203.1622  183.7543  161.1992 C   0  0  2  0  0  0  0  0  0  0  0  0
  204.6182  181.5310  160.5031 H   0  0  0  0  0  0  0  0  0  0  0  0
  204.0839  179.8381  158.7823 H   0  0  0  0  0  0  0  0  0  0  0  0
  202.6492  179.0667  157.0935 H   0  0  0  0  0  0  0  0  0  0  0  0
  200.0784  179.1375  157.7521 H   0  0  0  0  0  0  0  0  0  0  0  0
  198.6911  177.8486  155.2695 H   0  0  0  0  0  0  0  0  0  0  0  0
  198.1998  178.9810  156.5107 H   0  0  0  0  0  0  0  0  0  0  0  0
  195.5983  181.1412  156.1061 H   0  0  0  0  0  0  0  0  0  0  0  0
  197.1194  180.6398  156.8762 H   0  0  0  0  0  0  0  0  0  0  0  0
  197.8724  184.9697  156.7160 H   0  0  0  0  0  0  0  0  0  0  0  0
  197.1843  186.3600  158.6565 H   0  0  0  0  0  0  0  0  0  0  0  0
  195.6299  185.4311  160.3663 H   0  0  0  0  0  0  0  0  0  0  0  0
  194.7717  183.1084  160.1254 H   0  0  0  0  0  0  0  0  0  0  0  0
  195.4512  181.7177  158.2352 H   0  0  0  0  0  0  0  0  0  0  0  0
  196.5810  181.3427  150.7269 H   0  0  0  0  0  0  0  0  0  0  0  0
  197.9162  179.7963  149.2903 H   0  0  0  0  0  0  0  0  0  0  0  0
  199.3817  178.0795  150.3325 H   0  0  0  0  0  0  0  0  0  0  0  0
  199.5253  177.9056  152.8161 H   0  0  0  0  0  0  0  0  0  0  0  0
  200.4546  181.9706  157.8158 H   0  0  0  0  0  0  0  0  0  0  0  0
  204.1021  183.5317  161.7064 H   0  0  0  0  0  0  0  0  0  0  0  0
  202.3713  183.7974  161.9491 H   0  0  0  0  0  0  0  0  0  0  0  0
  203.2513  184.7392  160.7389 H   0  0  0  0  0  0  0  0  0  0  0  0
  1  2  1  0
  2  3  2  0
  2 29  1  0
  3  4  1  0
  3 30  1  0
  4  5  2  0
  4 31  1  0
  5  6  1  0
  5 32  1  0
  6  7  1  0
  6 29  2  0
  7  8  1  0
  7 33  1  0
  8  9  1  0
  8 34  1  0
  9 10  2  0
  9 11  1  0
 11 12  1  0
 11 35  1  6
 11 36  1  0
 12 13  1  0
 12 16  1  0
 13 14  1  0
 13 28  2  0
 14 15  1  0
 14 25  2  0
 15 16  2  0
 16 17  1  0
 17 18  1  0
 17 37  1  6
 17 38  1  0
 18 19  1  0
 19 20  2  0
 19 24  1  0
 20 21  1  0
 20 39  1  0
 21 22  2  0
 21 40  1  0
 22 23  1  0
 22 41  1  0
 23 24  2  0
 23 42  1  0
 24 43  1  0
 25 26  1  0
 25 44  1  0
 26 27  2  0
 26 45  1  0
 27 28  1  0
 27 46  1  0
 28 47  1  0
 29 48  1  0
 30 49  1  1
 30 50  1  0
 30 51  1  0
M  END
>  <s_epik_cmdline>  (731) 
J2VwaWtfcHl0aG9uJywgJy1waCcsICc3LjAwMDAwMCcsICctcGh0JywgJzIuMDAwMDAwJywgJy1tcycsICcxNicsICctdG4nLCAnOCcsICctbWEnLCAnMjAwJywgJy1pbWFlJywgJzxpbmZpbGUubWFlPicsICctb21hZScsICc8b3V0ZmlsZS5tYWU+Jw==

>  <s_epik_input>  (731) 
RmMxYyhbQ0gzXSlbY0hdW2NIXWMoW2NIXTEpW05IXVtOSF1DKD1PKVtDSDJdbjJjKG5jKGMyMylbY0hdW2NIXVtjSF1bY0hdMylbQ0gyXU9jNFtjSF1bY0hdW2NIXVtjSF1bY0hdNA==

>  <s_i_glide_gridfile>  (731) 
ATP-Grid

>  <s_lp_Force_Field>  (731) 
OPLS_2005

>  <s_lp_Variant>  (731) 
m_527bbb____18052162____214828-1

>  <s_lp_label>  (731) 
2047_sdstereoexpander_1_neutralizer_1_epik_1_stereoizer_1

>  <s_m_source_file>  (731) 
ATP-VSW-LIGPREP-003-in.maegz

>  <s_sd_BIOSOLVEIT.INFINISEE\_QUERY\_NAME>  (731) 
Ref-Lig

>  <s_sd_BIOSOLVEIT.INFINISEE\_QUERY\_SMILES>  (731) 
S(c1nc2c(cc1C[NH2+]Cc3ccc(cc3)C[NH+](C)C)cccc2)Cc4ccccc4

>  <s_sd_BIOSOLVEIT.INFINISEE\_REACTION\_NAME>  (731) 
m_527bbb

>  <s_sd_BIOSOLVEIT.INFINISEE\_REAGENT1\_SMILES>  (731) 
[R1*]NNc1cc(F)c(cc1)C

>  <s_sd_BIOSOLVEIT.INFINISEE\_REAGENT2\_SMILES>  (731) 
[R1*]C(=O)CN1c2c(N=C1COc3ccccc3)cccc2

>  <s_sd_BIOSOLVEIT.INFINISEE\_SPACE>  (731) 
REALSpace_44bn_2023-08

>  <s_vsw_compound_code>  (731) 
65475

>  <s_vsw_variant>  (731) 
65475-1

>  <r_epik_Charging_Adjusted_Penalty>  (731) 
0.026081203140666

>  <r_epik_Ionization_Penalty>  (731) 
0.026100000000000002

>  <r_epik_Ionization_Penalty_Charging>  (731) 
0

>  <r_epik_Ionization_Penalty_Neutral>  (731) 
0.026100000000000002

>  <r_epik_State_Penalty>  (731) 
0.026100000000000002

>  <r_i_docking_score>  (731) 
-3.9256267984229898

>  <r_i_glide_ecoul>  (731) 
-5.5752234458923304

>  <r_i_glide_eff_state_penalty>  (731) 
0.026100000000000002

>  <r_i_glide_einternal>  (731) 
1.3009008169174201

>  <r_i_glide_emodel>  (731) 
-48.931338196403097

>  <r_i_glide_energy>  (731) 
-38.8337721824646

>  <r_i_glide_erotb>  (731) 
0.96072382450109794

>  <r_i_glide_esite>  (731) 
-0.12530961544157199

>  <r_i_glide_evdw>  (731) 
-33.258548736572301

>  <r_i_glide_gscore>  (731) 
-3.9517267984229898

>  <r_i_glide_hbond>  (731) 
-0.27822717416894099

>  <r_i_glide_ligand_efficiency>  (731) 
-0.13085422661410001

>  <r_i_glide_ligand_efficiency_ln>  (731) 
-0.89194518173153103

>  <r_i_glide_ligand_efficiency_sa>  (731) 
-0.40659450601581398

>  <r_i_glide_lipo>  (731) 
-1.1628661809601299

>  <r_i_glide_metal>  (731) 
-0

>  <r_i_glide_rewards>  (731) 
-0.84683669864098499

>  <r_lp_Energy>  (731) 
21.076319000000002

>  <r_lp_tautomer_probability>  (731) 
1

>  <r_qp_ACxDN^.5/SA>  (731) 
0.0116373

>  <r_qp_CIQPlogS>  (731) 
-6.335

>  <r_qp_EA(eV)>  (731) 
0.43099999999999999

>  <r_qp_FISA>  (731) 
84.911000000000001

>  <r_qp_FOSA>  (731) 
133.81999999999999

>  <r_qp_IP(eV)>  (731) 
8.7279999999999998

>  <r_qp_Jm>  (731) 
0.101999524118183

>  <r_qp_PISA>  (731) 
453.589

>  <r_qp_PSA>  (731) 
72.152000000000001

>  <r_qp_PercentHumanOralAbsorption>  (731) 
100

>  <r_qp_QPPCaco>  (731) 
1551.2639999999999

>  <r_qp_QPPMDCK>  (731) 
1109.961

>  <r_qp_QPlogBB>  (731) 
-0.66000000000000003

>  <r_qp_QPlogHERG>  (731) 
-6.7969999999999997

>  <r_qp_QPlogKhsa>  (731) 
0.58199999999999996

>  <r_qp_QPlogKp>  (731) 
-0.81399999999999995

>  <r_qp_QPlogPC16>  (731) 
14.045

>  <r_qp_QPlogPo/w>  (731) 
4.6900000000000004

>  <r_qp_QPlogPoct>  (731) 
21.111999999999998

>  <r_qp_QPlogPw>  (731) 
12.122

>  <r_qp_QPlogS>  (731) 
-5.7839999999999998

>  <r_qp_QPpolrz>  (731) 
44.195999999999998

>  <r_qp_SASA>  (731) 
698.76199999999994

>  <r_qp_SAamideO>  (731) 
0

>  <r_qp_SAfluorine>  (731) 
26.442

>  <r_qp_WPSA>  (731) 
26.442

>  <r_qp_accptHB>  (731) 
5.75

>  <r_qp_dip^2/V>  (731) 
0.024068900000000001

>  <r_qp_dipole>  (731) 
5.5119999999999996

>  <r_qp_donorHB>  (731) 
2

>  <r_qp_glob>  (731) 
0.80832680000000001

>  <r_qp_mol_MW>  (731) 
404.44299999999998

>  <r_qp_volume>  (731) 
1262.1959999999999

>  <r_sd_BIOSOLVEIT.INFINISEE\_FTREES\_SIMILARITY>  (731) 
0.90200000000000002

>  <r_sd_BIOSOLVEIT.LOGP>  (731) 
4.2061200000000003

>  <r_sd_BIOSOLVEIT.MOLECULAR\_WEIGHT>  (731) 
404.44299999999998

>  <r_sd_BIOSOLVEIT.TPSA>  (731) 
68.180000000000007

>  <i_epik_Tot_Q>  (731) 
0

>  <i_epik_Tot_abs_Q>  (731) 
0

>  <i_f3d_flags>  (731) 
0

>  <i_i_glide_confnum>  (731) 
8

>  <i_i_glide_lignum>  (731) 
761

>  <i_i_glide_posenum>  (731) 
13

>  <i_i_glide_rotatable_bonds>  (731) 
8

>  <i_lp_mmshare_version>  (731) 
65135

>  <i_m_ct_format>  (731) 
2

>  <i_m_source_file_index>  (731) 
2047

>  <i_qp_#NandO>  (731) 
6

>  <i_qp_#acid>  (731) 
0

>  <i_qp_#amide>  (731) 
0

>  <i_qp_#amidine>  (731) 
0

>  <i_qp_#amine>  (731) 
0

>  <i_qp_#in34>  (731) 
0

>  <i_qp_#in56>  (731) 
21

>  <i_qp_#metab>  (731) 
4

>  <i_qp_#nonHatm>  (731) 
30

>  <i_qp_#noncon>  (731) 
0

>  <i_qp_#ringatoms>  (731) 
21

>  <i_qp_#rotor>  (731) 
7

>  <i_qp_#rtvFG>  (731) 
1

>  <i_qp_#stars>  (731) 
1

>  <i_qp_CNS>  (731) 
0

>  <i_qp_HumanOralAbsorption>  (731) 
3

>  <i_qp_RuleOfFive>  (731) 
0

>  <i_qp_RuleOfThree>  (731) 
1

>  <i_sd_BIOSOLVEIT.INFINISEE\_REAGENT1\_NAME>  (731) 
18052162

>  <i_sd_BIOSOLVEIT.INFINISEE\_REAGENT2\_NAME>  (731) 
214828

>  <i_sd_BIOSOLVEIT.INFINISEE\_RESULT\_RANK>  (731) 
93766

>  <i_sd_version>  (731) 
0

>  <b_lp_Chiralities_Consistent>  (731) 
1

>  <b_sd_chiral_flag>  (731) 
0

>  <canonical_id>  (731) 
ATP-HTVS-72573E055255

>  <compound_code>  (731) 
65475

>  <title>  (731) 
m_527bbb____18052162____214828

>  <variant>  (731) 
65475-1

>  <source_file>  (731) 
运行/运行/ATP-VSW/ATP-VSW-DOCK_HTVS_1-003_lib/ATP-VSW-DOCK_HTVS_1-003_lib.mae

>  <canonical_smiles>  (731) 
Cc1ccc(NNC(=O)Cn2c(COc3ccccc3)nc3ccccc32)cc1F

>  <scaffold>  (731) 
O=C(Cn1c(COc2ccccc2)nc2ccccc21)NNc1ccccc1

>  <molecular_formula>  (731) 
C23H21FN4O2

$$$$
ATP-HTVS-72B2F4D4EA61
     RDKit          3D

 59 62  0  0  0  0  0  0  0  0999 V2000
  193.4164  186.3359  162.4884 O   0  0  0  0  0  0  0  0  0  0  0  0
  194.2165  186.8392  161.6632 C   0  0  0  0  0  0  0  0  0  0  0  0
  194.5942  188.0219  161.7327 O   0  0  0  0  0  0  0  0  0  0  0  0
  194.7567  185.9989  160.5397 C   0  0  0  0  0  0  0  0  0  0  0  0
  194.0850  184.8267  160.1301 C   0  0  0  0  0  0  0  0  0  0  0  0
  194.5750  184.0494  159.0704 C   0  0  0  0  0  0  0  0  0  0  0  0
  195.7701  184.4232  158.4194 C   0  0  0  0  0  0  0  0  0  0  0  0
  196.2794  183.6276  157.3105 C   0  0  0  0  0  0  0  0  0  0  0  0
  196.6552  183.0088  156.3262 C   0  0  0  0  0  0  0  0  0  0  0  0
  197.1133  182.2939  155.1166 C   0  0  2  0  0  0  0  0  0  0  0  0
  198.2858  181.5187  155.4765 N   0  0  0  0  0  0  0  0  0  0  0  0
  198.6183  180.5364  154.4683 C   0  0  1  0  0  0  0  0  0  0  0  0
  199.9236  179.8421  154.7787 C   0  0  0  0  0  0  0  0  0  0  0  0
  199.9739  178.8352  155.7668 C   0  0  0  0  0  0  0  0  0  0  0  0
  201.1879  178.1536  156.0206 C   0  0  0  0  0  0  0  0  0  0  0  0
  202.3337  178.4887  155.2668 C   0  0  0  0  0  0  0  0  0  0  0  0
  202.2868  179.4989  154.2961 C   0  0  0  0  0  0  0  0  0  0  0  0
  201.0835  180.1774  154.0442 C   0  0  0  0  0  0  0  0  0  0  0  0
  201.2187  177.0049  157.0276 C   0  0  1  0  0  0  0  0  0  0  0  0
  201.3325  175.6602  156.3928 N   0  0  2  0  0  0  0  0  0  0  0  0
  202.7101  175.1234  156.3212 C   0  0  2  0  0  0  0  0  0  0  0  0
  200.6082  175.5265  155.1102 C   0  0  2  0  0  0  0  0  0  0  0  0
  197.3640  183.2248  153.9641 C   0  0  0  0  0  0  0  0  0  0  0  0
  196.8064  182.8810  152.7563 O   0  0  0  0  0  0  0  0  0  0  0  0
  197.1818  183.8589  151.8579 C   0  0  0  0  0  0  0  0  0  0  0  0
  198.0038  184.8103  152.5127 C   0  0  0  0  0  0  0  0  0  0  0  0
  198.4915  185.8857  151.7370 C   0  0  0  0  0  0  0  0  0  0  0  0
  198.1568  186.0035  150.3688 C   0  0  0  0  0  0  0  0  0  0  0  0
  197.3314  185.0420  149.7466 C   0  0  0  0  0  0  0  0  0  0  0  0
  196.8422  183.9520  150.4954 C   0  0  0  0  0  0  0  0  0  0  0  0
  198.1246  184.3666  153.8698 C   0  0  0  0  0  0  0  0  0  0  0  0
  196.4242  185.6157  158.7895 C   0  0  0  0  0  0  0  0  0  0  0  0
  195.9279  186.3923  159.8578 C   0  0  0  0  0  0  0  0  0  0  0  0
  198.0703  181.0599  156.3483 H   0  0  0  0  0  0  0  0  0  0  0  0
  193.1590  184.5639  160.5888 H   0  0  0  0  0  0  0  0  0  0  0  0
  194.0156  183.1905  158.7285 H   0  0  0  0  0  0  0  0  0  0  0  0
  196.3118  181.5966  154.8613 H   0  0  0  0  0  0  0  0  0  0  0  0
  197.8077  179.8085  154.3744 H   0  0  0  0  0  0  0  0  0  0  0  0
  198.7323  181.0156  153.5025 H   0  0  0  0  0  0  0  0  0  0  0  0
  199.0663  178.5767  156.3046 H   0  0  0  0  0  0  0  0  0  0  0  0
  203.2617  177.9639  155.3793 H   0  0  0  0  0  0  0  0  0  0  0  0
  203.1758  179.7017  153.7162 H   0  0  0  0  0  0  0  0  0  0  0  0
  201.0643  180.9445  153.2775 H   0  0  0  0  0  0  0  0  0  0  0  0
  202.0081  177.1629  157.7651 H   0  0  0  0  0  0  0  0  0  0  0  0
  200.2970  177.0318  157.6134 H   0  0  0  0  0  0  0  0  0  0  0  0
  203.3523  175.7760  155.7321 H   0  0  0  0  0  0  0  0  0  0  0  0
  202.7165  174.1359  155.8578 H   0  0  0  0  0  0  0  0  0  0  0  0
  203.1247  175.0194  157.3231 H   0  0  0  0  0  0  0  0  0  0  0  0
  201.0459  176.1177  154.3077 H   0  0  0  0  0  0  0  0  0  0  0  0
  199.5730  175.8318  155.2519 H   0  0  0  0  0  0  0  0  0  0  0  0
  200.6025  174.4907  154.7686 H   0  0  0  0  0  0  0  0  0  0  0  0
  199.1214  186.6299  152.2007 H   0  0  0  0  0  0  0  0  0  0  0  0
  198.5346  186.8391  149.7955 H   0  0  0  0  0  0  0  0  0  0  0  0
  197.0790  185.1449  148.6985 H   0  0  0  0  0  0  0  0  0  0  0  0
  196.2178  183.2020  150.0354 H   0  0  0  0  0  0  0  0  0  0  0  0
  198.6885  184.8322  154.6624 H   0  0  0  0  0  0  0  0  0  0  0  0
  197.2974  185.9544  158.2442 H   0  0  0  0  0  0  0  0  0  0  0  0
  196.4367  187.2995  160.1447 H   0  0  0  0  0  0  0  0  0  0  0  0
  200.8540  175.0498  157.0397 H   0  0  0  0  0  0  0  0  0  0  0  0
  1  2  1  0
  2  3  2  0
  2  4  1  0
  4  5  1  0
  4 33  2  0
  5  6  2  0
  5 35  1  0
  6  7  1  0
  6 36  1  0
  7  8  1  0
  7 32  2  0
  8  9  3  0
  9 10  1  0
 10 11  1  0
 10 23  1  0
 10 37  1  6
 11 12  1  0
 11 34  1  0
 12 13  1  0
 12 38  1  6
 12 39  1  0
 13 14  2  0
 13 18  1  0
 14 15  1  0
 14 40  1  0
 15 16  2  0
 15 19  1  0
 16 17  1  0
 16 41  1  0
 17 18  2  0
 17 42  1  0
 18 43  1  0
 19 20  1  0
 19 44  1  1
 19 45  1  0
 20 21  1  0
 20 22  1  0
 20 59  1  1
 21 46  1  6
 21 47  1  0
 21 48  1  0
 22 49  1  6
 22 50  1  0
 22 51  1  0
 23 24  1  0
 23 31  2  0
 24 25  1  0
 25 26  1  0
 25 30  2  0
 26 27  2  0
 26 31  1  0
 27 28  1  0
 27 52  1  0
 28 29  2  0
 28 53  1  0
 29 30  1  0
 29 54  1  0
 30 55  1  0
 31 56  1  0
 32 33  1  0
 32 57  1  0
 33 58  1  0
M  CHG  2   1  -1  20   1
M  END
>  <s_epik_cmdline>  (732) 
J2VwaWtfcHl0aG9uJywgJy1waCcsICc3LjAwMDAwMCcsICctcGh0JywgJzIuMDAwMDAwJywgJy1tcycsICcxNicsICctdG4nLCAnOCcsICctbWEnLCAnMjAwJywgJy1pbWFlJywgJzxpbmZpbGUubWFlPicsICctb21hZScsICc8b3V0ZmlsZS5tYWU+Jw==

>  <s_epik_input>  (732) 
W09IXUMoPU8pYzFbY0hdW2NIXWMoW2NIXVtjSF0xKUMjQ1tDQEBIXShjKG8yKVtjSF1jKGMyMylbY0hdW2NIXVtjSF1bY0hdMylbTkhdW0NIMl1jNFtjSF1jKFtjSF1bY0hdW2NIXTQpW0NIMl1OKFtDSDNdKVtDSDNd

>  <s_i_glide_gridfile>  (732) 
ATP-Grid

>  <s_lp_Force_Field>  (732) 
OPLS_2005

>  <s_lp_Variant>  (732) 
rxn403____EMOL2873214____EMOL514739____EMOL31600616-2

>  <s_lp_label>  (732) 
2669_sdstereoexpander_2_neutralizer_1_epik_1_stereoizer_1

>  <s_m_source_file>  (732) 
ATP-VSW-LIGPREP-003-in.maegz

>  <s_sd_BIOSOLVEIT.INFINISEE\_QUERY\_NAME>  (732) 
Ref-Lig

>  <s_sd_BIOSOLVEIT.INFINISEE\_QUERY\_SMILES>  (732) 
S(c1nc2c(cc1C[NH2+]Cc3ccc(cc3)C[NH+](C)C)cccc2)Cc4ccccc4

>  <s_sd_BIOSOLVEIT.INFINISEE\_REACTION\_NAME>  (732) 
rxn403

>  <s_sd_BIOSOLVEIT.INFINISEE\_REAGENT1\_NAME>  (732) 
EMOL2873214

>  <s_sd_BIOSOLVEIT.INFINISEE\_REAGENT1\_SMILES>  (732) 
N(Cc1cc(ccc1)CN)(C)C

>  <s_sd_BIOSOLVEIT.INFINISEE\_REAGENT2\_NAME>  (732) 
EMOL514739

>  <s_sd_BIOSOLVEIT.INFINISEE\_REAGENT2\_SMILES>  (732) 
O=CC=1Oc2c(cccc2)C1

>  <s_sd_BIOSOLVEIT.INFINISEE\_REAGENT3\_NAME>  (732) 
EMOL31600616

>  <s_sd_BIOSOLVEIT.INFINISEE\_REAGENT3\_SMILES>  (732) 
O=C(O)c1ccc(C#C)cc1

>  <s_sd_BIOSOLVEIT.INFINISEE\_SPACE>  (732) 
eXplore_7tr_2022-12

>  <s_vsw_compound_code>  (732) 
85379

>  <s_vsw_variant>  (732) 
85379-2

>  <r_epik_Charging_Adjusted_Penalty>  (732) 
0.25608652067677701

>  <r_epik_Ionization_Penalty>  (732) 
0.2079

>  <r_epik_Ionization_Penalty_Charging>  (732) 
0.045600000000000002

>  <r_epik_Ionization_Penalty_Neutral>  (732) 
0.1623

>  <r_epik_State_Penalty>  (732) 
0.21049999999999999

>  <r_i_docking_score>  (732) 
-4.9139121598963298

>  <r_i_glide_ecoul>  (732) 
-5.6412262916564897

>  <r_i_glide_eff_state_penalty>  (732) 
0.21049999999999999

>  <r_i_glide_einternal>  (732) 
5.0666122436523402

>  <r_i_glide_emodel>  (732) 
-52.391479692871499

>  <r_i_glide_energy>  (732) 
-38.8686394691467

>  <r_i_glide_erotb>  (732) 
0.62248706684450905

>  <r_i_glide_esite>  (732) 
0

>  <r_i_glide_evdw>  (732) 
-33.227413177490199

>  <r_i_glide_gscore>  (732) 
-5.1244121598963304

>  <r_i_glide_hbond>  (732) 
-0.135384312371228

>  <r_i_glide_ligand_efficiency>  (732) 
-0.14890642908776699

>  <r_i_glide_ligand_efficiency_ln>  (732) 
-1.0928286214854499

>  <r_i_glide_ligand_efficiency_sa>  (732) 
-0.47762248269943303

>  <r_i_glide_lipo>  (732) 
-2.1823897420645202

>  <r_i_glide_metal>  (732) 
-0

>  <r_i_glide_rewards>  (732) 
-0.92157056968210704

>  <r_lp_Energy>  (732) 
16.358405999999999

>  <r_qp_ACxDN^.5/SA>  (732) 
0.0115458

>  <r_qp_CIQPlogS>  (732) 
-4.8280000000000003

>  <r_qp_EA(eV)>  (732) 
0.98799999999999999

>  <r_qp_FISA>  (732) 
121.145

>  <r_qp_FOSA>  (732) 
186.27099999999999

>  <r_qp_IP(eV)>  (732) 
8.6989999999999998

>  <r_qp_Jm>  (732) 
0.00010494042217240999

>  <r_qp_PISA>  (732) 
427.50799999999998

>  <r_qp_PSA>  (732) 
74.257000000000005

>  <r_qp_PercentHumanOralAbsorption>  (732) 
60.409999999999997

>  <r_qp_QPPCaco>  (732) 
11.079000000000001

>  <r_qp_QPPMDCK>  (732) 
5.9269999999999996

>  <r_qp_QPlogBB>  (732) 
-0.39900000000000002

>  <r_qp_QPlogHERG>  (732) 
-6.2140000000000004

>  <r_qp_QPlogKhsa>  (732) 
0.59999999999999998

>  <r_qp_QPlogKp>  (732) 
-5.5069999999999997

>  <r_qp_QPlogPC16>  (732) 
15.334

>  <r_qp_QPlogPo/w>  (732) 
2.5230000000000001

>  <r_qp_QPlogPoct>  (732) 
22.294

>  <r_qp_QPlogPw>  (732) 
12.074

>  <r_qp_QPlogS>  (732) 
-4.1139999999999999

>  <r_qp_QPpolrz>  (732) 
47.280000000000001

>  <r_qp_SASA>  (732) 
734.92399999999998

>  <r_qp_SAamideO>  (732) 
0

>  <r_qp_SAfluorine>  (732) 
0

>  <r_qp_WPSA>  (732) 
0

>  <r_qp_accptHB>  (732) 
6

>  <r_qp_dip^2/V>  (732) 
0.021026699999999999

>  <r_qp_dipole>  (732) 
5.3819999999999997

>  <r_qp_donorHB>  (732) 
2

>  <r_qp_glob>  (732) 
0.81470489999999995

>  <r_qp_mol_MW>  (732) 
438.52499999999998

>  <r_qp_volume>  (732) 
1377.578

>  <r_sd_BIOSOLVEIT.INFINISEE\_FTREES\_SIMILARITY>  (732) 
0.90900000000000003

>  <r_sd_BIOSOLVEIT.LOGP>  (732) 
1.2971999999999999

>  <r_sd_BIOSOLVEIT.MOLECULAR\_WEIGHT>  (732) 
439.53199999999998

>  <r_sd_BIOSOLVEIT.TPSA>  (732) 
74.319999999999993

>  <i_epik_Tot_Q>  (732) 
0

>  <i_epik_Tot_abs_Q>  (732) 
2

>  <i_f3d_flags>  (732) 
0

>  <i_i_glide_confnum>  (732) 
7

>  <i_i_glide_lignum>  (732) 
1249

>  <i_i_glide_posenum>  (732) 
19

>  <i_i_glide_rotatable_bonds>  (732) 
9

>  <i_lp_mmshare_version>  (732) 
65135

>  <i_m_ct_format>  (732) 
2

>  <i_m_source_file_index>  (732) 
2669

>  <i_qp_#NandO>  (732) 
5

>  <i_qp_#acid>  (732) 
1

>  <i_qp_#amide>  (732) 
0

>  <i_qp_#amidine>  (732) 
0

>  <i_qp_#amine>  (732) 
2

>  <i_qp_#in34>  (732) 
0

>  <i_qp_#in56>  (732) 
21

>  <i_qp_#metab>  (732) 
6

>  <i_qp_#nonHatm>  (732) 
33

>  <i_qp_#noncon>  (732) 
0

>  <i_qp_#ringatoms>  (732) 
21

>  <i_qp_#rotor>  (732) 
9

>  <i_qp_#rtvFG>  (732) 
0

>  <i_qp_#stars>  (732) 
0

>  <i_qp_CNS>  (732) 
0

>  <i_qp_HumanOralAbsorption>  (732) 
2

>  <i_qp_RuleOfFive>  (732) 
0

>  <i_qp_RuleOfThree>  (732) 
1

>  <i_sd_BIOSOLVEIT.INFINISEE\_RESULT\_RANK>  (732) 
48705

>  <i_sd_version>  (732) 
0

>  <b_lp_Chiralities_Consistent>  (732) 
1

>  <b_sd_chiral_flag>  (732) 
0

>  <canonical_id>  (732) 
ATP-HTVS-72B2F4D4EA61

>  <compound_code>  (732) 
85379

>  <title>  (732) 
rxn403____EMOL2873214____EMOL514739____EMOL31600616

>  <variant>  (732) 
85379-2

>  <source_file>  (732) 
运行/运行/ATP-VSW/ATP-VSW-DOCK_HTVS_1-003_lib/ATP-VSW-DOCK_HTVS_1-003_lib.mae

>  <canonical_smiles>  (732) 
C[NH+](C)Cc1cccc(CN[C@@H](C#Cc2ccc(C(=O)[O-])cc2)c2cc3ccccc3o2)c1

>  <scaffold>  (732) 
C(#CC(NCc1ccccc1)c1cc2ccccc2o1)c1ccccc1

>  <molecular_formula>  (732) 
C28H26N2O3

$$$$
ATP-HTVS-72BD9FFCF62D
     RDKit          3D

 53 56  0  0  0  0  0  0  0  0999 V2000
  194.7413  184.4057  159.5614 Br  0  0  0  0  0  0  0  0  0  0  0  0
  196.5936  184.5428  159.1240 C   0  0  0  0  0  0  0  0  0  0  0  0
  197.2540  183.5267  158.3687 C   0  0  0  0  0  0  0  0  0  0  0  0
  198.6529  183.6482  158.1676 C   0  0  0  0  0  0  0  0  0  0  0  0
  199.3493  184.7873  158.6173 C   0  0  0  0  0  0  0  0  0  0  0  0
  198.6851  185.8013  159.3317 C   0  0  0  0  0  0  0  0  0  0  0  0
  197.3098  185.6644  159.6047 C   0  0  0  0  0  0  0  0  0  0  0  0
  196.4444  182.3385  157.8109 C   0  0  2  0  0  0  0  0  0  0  0  0
  196.0807  181.4411  158.9302 N   0  0  2  0  0  0  0  0  0  0  0  0
  197.1693  181.5215  156.6985 C   0  0  1  0  0  0  0  0  0  0  0  0
  196.3667  181.3488  155.4963 N   0  0  0  0  0  0  0  0  0  0  0  0
  196.9360  180.7012  154.4139 C   0  0  0  0  0  0  0  0  0  0  0  0
  197.9668  179.8673  154.6082 N   0  0  0  0  0  0  0  0  0  0  0  0
  198.5233  179.2126  153.5726 C   0  0  0  0  0  0  0  0  0  0  0  0
  199.5987  178.3436  153.8287 N   0  0  0  0  0  0  0  0  0  0  0  0
  199.8660  177.8237  155.1687 C   0  0  1  0  0  0  0  0  0  0  0  0
  200.7681  176.5935  155.2058 C   0  0  0  0  0  0  0  0  0  0  0  0
  201.5192  176.3139  156.3704 C   0  0  0  0  0  0  0  0  0  0  0  0
  202.3426  175.1729  156.4333 C   0  0  0  0  0  0  0  0  0  0  0  0
  202.4214  174.2920  155.3401 C   0  0  0  0  0  0  0  0  0  0  0  0
  201.6714  174.5589  154.1796 C   0  0  0  0  0  0  0  0  0  0  0  0
  200.8527  175.7028  154.1104 C   0  0  0  0  0  0  0  0  0  0  0  0
  198.0122  179.3802  152.2656 C   0  0  0  0  0  0  0  0  0  0  0  0
  196.9342  180.2891  152.1234 C   0  0  0  0  0  0  0  0  0  0  0  0
  196.4436  180.9425  153.1963 N   0  0  0  0  0  0  0  0  0  0  0  0
  196.3647  180.5194  150.8582 C   0  0  0  0  0  0  0  0  0  0  0  0
  196.8672  179.8417  149.7339 C   0  0  0  0  0  0  0  0  0  0  0  0
  197.9374  178.9380  149.8681 C   0  0  0  0  0  0  0  0  0  0  0  0
  198.5074  178.7016  151.1353 C   0  0  0  0  0  0  0  0  0  0  0  0
  195.5076  181.9211  159.5943 H   0  0  0  0  0  0  0  0  0  0  0  0
  196.8980  181.1011  159.4156 H   0  0  0  0  0  0  0  0  0  0  0  0
  199.2502  182.9060  157.6557 H   0  0  0  0  0  0  0  0  0  0  0  0
  200.4047  184.8708  158.4087 H   0  0  0  0  0  0  0  0  0  0  0  0
  199.2482  186.6499  159.7104 H   0  0  0  0  0  0  0  0  0  0  0  0
  196.8115  186.4186  160.2057 H   0  0  0  0  0  0  0  0  0  0  0  0
  195.5028  182.7412  157.4220 H   0  0  0  0  0  0  0  0  0  0  0  0
  198.0458  182.0253  156.2975 H   0  0  0  0  0  0  0  0  0  0  0  0
  197.5177  180.5513  157.0903 H   0  0  0  0  0  0  0  0  0  0  0  0
  195.6658  182.0591  155.2859 H   0  0  0  0  0  0  0  0  0  0  0  0
  200.1869  178.0301  153.0720 H   0  0  0  0  0  0  0  0  0  0  0  0
  200.3395  178.6240  155.7375 H   0  0  0  0  0  0  0  0  0  0  0  0
  198.9312  177.5820  155.6801 H   0  0  0  0  0  0  0  0  0  0  0  0
  201.4616  176.9718  157.2249 H   0  0  0  0  0  0  0  0  0  0  0  0
  202.9156  174.9670  157.3263 H   0  0  0  0  0  0  0  0  0  0  0  0
  203.0528  173.4161  155.3905 H   0  0  0  0  0  0  0  0  0  0  0  0
  201.7208  173.8747  153.3464 H   0  0  0  0  0  0  0  0  0  0  0  0
  200.2677  175.8621  153.2159 H   0  0  0  0  0  0  0  0  0  0  0  0
  195.5488  181.2187  150.7480 H   0  0  0  0  0  0  0  0  0  0  0  0
  196.4397  180.0156  148.7620 H   0  0  0  0  0  0  0  0  0  0  0  0
  198.3208  178.4313  148.9960 H   0  0  0  0  0  0  0  0  0  0  0  0
  199.3206  177.9949  151.2126 H   0  0  0  0  0  0  0  0  0  0  0  0
  195.6882  181.6175  153.0781 H   0  0  0  0  0  0  0  0  0  0  0  0
  195.6063  180.6008  158.5550 H   0  0  0  0  0  0  0  0  0  0  0  0
  1  2  1  0
  2  3  1  0
  2  7  2  0
  3  4  2  0
  3  8  1  0
  4  5  1  0
  4 32  1  0
  5  6  2  0
  5 33  1  0
  6  7  1  0
  6 34  1  0
  7 35  1  0
  8  9  1  0
  8 10  1  0
  8 36  1  6
  9 30  1  1
  9 31  1  0
  9 53  1  0
 10 11  1  0
 10 37  1  6
 10 38  1  0
 11 12  1  0
 11 39  1  0
 12 13  1  0
 12 25  2  0
 13 14  2  0
 14 15  1  0
 14 23  1  0
 15 16  1  0
 15 40  1  0
 16 17  1  0
 16 41  1  1
 16 42  1  0
 17 18  2  0
 17 22  1  0
 18 19  1  0
 18 43  1  0
 19 20  2  0
 19 44  1  0
 20 21  1  0
 20 45  1  0
 21 22  2  0
 21 46  1  0
 22 47  1  0
 23 24  1  0
 23 29  2  0
 24 25  1  0
 24 26  2  0
 25 52  1  0
 26 27  1  0
 26 48  1  0
 27 28  2  0
 27 49  1  0
 28 29  1  0
 28 50  1  0
 29 51  1  0
M  CHG  2   9   1  25   1
M  END
>  <s_epik_cmdline>  (733) 
J2VwaWtfcHl0aG9uJywgJy1waCcsICc3LjAwMDAwMCcsICctcGh0JywgJzIuMDAwMDAwJywgJy1tcycsICcxNicsICctdG4nLCAnOCcsICctbWEnLCAnMjAwJywgJy1pbWFlJywgJzxpbmZpbGUubWFlPicsICctb21hZScsICc8b3V0ZmlsZS5tYWU+Jw==

>  <s_epik_input>  (733) 
W2NIXTFbY0hdW2NIXVtjSF1jKGMxQnIpW0NASF0oW05IMl0pW0NIMl1bTkhdYyhuYyhjMjMpW2NIXVtjSF1bY0hdW2NIXTMpbmMyW05IXVtDSDJdYzRbY0hdW2NIXVtjSF1bY0hdW2NIXTQ=

>  <s_i_glide_gridfile>  (733) 
ATP-Grid

>  <s_lp_Force_Field>  (733) 
OPLS_2005

>  <s_lp_Variant>  (733) 
m_270166bbb____18184680____17625580-2

>  <s_lp_label>  (733) 
1859_sdstereoexpander_2_neutralizer_1_epik_1_stereoizer_1

>  <s_m_source_file>  (733) 
ATP-VSW-LIGPREP-002-in.maegz

>  <s_sd_BIOSOLVEIT.INFINISEE\_QUERY\_NAME>  (733) 
Ref-Lig

>  <s_sd_BIOSOLVEIT.INFINISEE\_QUERY\_SMILES>  (733) 
S(c1nc2c(cc1C[NH2+]Cc3ccc(cc3)C[NH+](C)C)cccc2)Cc4ccccc4

>  <s_sd_BIOSOLVEIT.INFINISEE\_REACTION\_NAME>  (733) 
m_270166bbb

>  <s_sd_BIOSOLVEIT.INFINISEE\_REAGENT1\_SMILES>  (733) 
[R1*]NCC(N)c1c(Br)cccc1

>  <s_sd_BIOSOLVEIT.INFINISEE\_REAGENT2\_SMILES>  (733) 
[R1*]c1nc(NCc2ccccc2)c3c(n1)cccc3

>  <s_sd_BIOSOLVEIT.INFINISEE\_SPACE>  (733) 
REALSpace_44bn_2023-08

>  <s_vsw_compound_code>  (733) 
59458

>  <s_vsw_variant>  (733) 
59458-2

>  <r_epik_Charging_Adjusted_Penalty>  (733) 
0.30051975708251499

>  <r_epik_Ionization_Penalty>  (733) 
0.15329999999999999

>  <r_epik_Ionization_Penalty_Charging>  (733) 
0.15329999999999999

>  <r_epik_Ionization_Penalty_Neutral>  (733) 
0.0001

>  <r_epik_State_Penalty>  (733) 
0.14729999999999999

>  <r_i_docking_score>  (733) 
-5.8122787885907101

>  <r_i_glide_ecoul>  (733) 
-10.6681575775146

>  <r_i_glide_eff_state_penalty>  (733) 
0.14729999999999999

>  <r_i_glide_einternal>  (733) 
10.9715528488159

>  <r_i_glide_emodel>  (733) 
-68.646801392465093

>  <r_i_glide_energy>  (733) 
-44.062868118286097

>  <r_i_glide_erotb>  (733) 
0.59304252196595897

>  <r_i_glide_esite>  (733) 
-0.21711663476065099

>  <r_i_glide_evdw>  (733) 
-33.394710540771499

>  <r_i_glide_gscore>  (733) 
-5.9595787885907097

>  <r_i_glide_hbond>  (733) 
-0.32749966271341302

>  <r_i_glide_ligand_efficiency>  (733) 
-0.20042340650312801

>  <r_i_glide_ligand_efficiency_ln>  (733) 
-1.3308644559140601

>  <r_i_glide_ligand_efficiency_sa>  (733) 
-0.61576420336968096

>  <r_i_glide_lipo>  (733) 
-2.17468784941684

>  <r_i_glide_metal>  (733) 
-0

>  <r_i_glide_rewards>  (733) 
-0.56335799999999903

>  <r_lp_Energy>  (733) 
18.744582000000001

>  <r_qp_ACxDN^.5/SA>  (733) 
0.0119854

>  <r_qp_CIQPlogS>  (733) 
-6.6230000000000002

>  <r_qp_EA(eV)>  (733) 
0.64200000000000002

>  <r_qp_FISA>  (733) 
91.206000000000003

>  <r_qp_FOSA>  (733) 
60.813000000000002

>  <r_qp_IP(eV)>  (733) 
8.077

>  <r_qp_Jm>  (733) 
0.040469427196384002

>  <r_qp_PISA>  (733) 
448.959

>  <r_qp_PSA>  (733) 
66.859999999999999

>  <r_qp_PercentHumanOralAbsorption>  (733) 
100

>  <r_qp_QPPCaco>  (733) 
337.20800000000003

>  <r_qp_QPPMDCK>  (733) 
391.04199999999997

>  <r_qp_QPlogBB>  (733) 
-0.23699999999999999

>  <r_qp_QPlogHERG>  (733) 
-7.1289999999999996

>  <r_qp_QPlogKhsa>  (733) 
0.55700000000000005

>  <r_qp_QPlogKp>  (733) 
-2.9129999999999998

>  <r_qp_QPlogPC16>  (733) 
14.817

>  <r_qp_QPlogPo/w>  (733) 
4.3179999999999996

>  <r_qp_QPlogPoct>  (733) 
22.558

>  <r_qp_QPlogPw>  (733) 
13.057

>  <r_qp_QPlogS>  (733) 
-4.1310000000000002

>  <r_qp_QPpolrz>  (733) 
42.180999999999997

>  <r_qp_SASA>  (733) 
667.47699999999998

>  <r_qp_SAamideO>  (733) 
0

>  <r_qp_SAfluorine>  (733) 
0

>  <r_qp_WPSA>  (733) 
66.498999999999995

>  <r_qp_accptHB>  (733) 
4

>  <r_qp_dip^2/V>  (733) 
0.0178707

>  <r_qp_dipole>  (733) 
4.6859999999999999

>  <r_qp_donorHB>  (733) 
4

>  <r_qp_glob>  (733) 
0.83130760000000004

>  <r_qp_mol_MW>  (733) 
448.36399999999998

>  <r_qp_volume>  (733) 
1228.992

>  <r_sd_BIOSOLVEIT.INFINISEE\_FTREES\_SIMILARITY>  (733) 
0.90300000000000002

>  <r_sd_BIOSOLVEIT.LOGP>  (733) 
4.3994999999999997

>  <r_sd_BIOSOLVEIT.MOLECULAR\_WEIGHT>  (733) 
449.37400000000002

>  <r_sd_BIOSOLVEIT.TPSA>  (733) 
77.480000000000004

>  <i_epik_Tot_Q>  (733) 
2

>  <i_epik_Tot_abs_Q>  (733) 
2

>  <i_f3d_flags>  (733) 
0

>  <i_i_glide_confnum>  (733) 
3

>  <i_i_glide_lignum>  (733) 
658

>  <i_i_glide_posenum>  (733) 
8

>  <i_i_glide_rotatable_bonds>  (733) 
7

>  <i_lp_mmshare_version>  (733) 
65135

>  <i_m_ct_format>  (733) 
2

>  <i_m_source_file_index>  (733) 
1859

>  <i_qp_#NandO>  (733) 
5

>  <i_qp_#acid>  (733) 
0

>  <i_qp_#amide>  (733) 
0

>  <i_qp_#amidine>  (733) 
0

>  <i_qp_#amine>  (733) 
1

>  <i_qp_#in34>  (733) 
0

>  <i_qp_#in56>  (733) 
22

>  <i_qp_#metab>  (733) 
5

>  <i_qp_#nonHatm>  (733) 
29

>  <i_qp_#noncon>  (733) 
0

>  <i_qp_#ringatoms>  (733) 
22

>  <i_qp_#rotor>  (733) 
8

>  <i_qp_#rtvFG>  (733) 
0

>  <i_qp_#stars>  (733) 
0

>  <i_qp_CNS>  (733) 
0

>  <i_qp_HumanOralAbsorption>  (733) 
3

>  <i_qp_RuleOfFive>  (733) 
0

>  <i_qp_RuleOfThree>  (733) 
0

>  <i_sd_BIOSOLVEIT.INFINISEE\_REAGENT1\_NAME>  (733) 
18184680

>  <i_sd_BIOSOLVEIT.INFINISEE\_REAGENT2\_NAME>  (733) 
17625580

>  <i_sd_BIOSOLVEIT.INFINISEE\_RESULT\_RANK>  (733) 
81698

>  <i_sd_version>  (733) 
0

>  <b_lp_Chiralities_Consistent>  (733) 
1

>  <b_sd_chiral_flag>  (733) 
0

>  <canonical_id>  (733) 
ATP-HTVS-72BD9FFCF62D

>  <compound_code>  (733) 
59458

>  <title>  (733) 
m_270166bbb____18184680____17625580

>  <variant>  (733) 
59458-2

>  <source_file>  (733) 
运行/运行/ATP-VSW/ATP-VSW-DOCK_HTVS_1-002_lib.maegz

>  <canonical_smiles>  (733) 
[NH3+][C@H](CNc1nc(NCc2ccccc2)c2ccccc2[nH+]1)c1ccccc1Br

>  <scaffold>  (733) 
c1ccc(CCNc2nc(NCc3ccccc3)c3ccccc3[nH+]2)cc1

>  <molecular_formula>  (733) 
C23H24BrN5+2

$$$$
ATP-HTVS-72D66A1ED57F
     RDKit          3D

 64 67  0  0  0  0  0  0  0  0999 V2000
  204.2206  181.0892  160.9015 F   0  0  0  0  0  0  0  0  0  0  0  0
  203.2836  181.4890  160.0110 C   0  0  0  0  0  0  0  0  0  0  0  0
  203.3933  181.1666  158.6430 C   0  0  0  0  0  0  0  0  0  0  0  0
  202.4094  181.5974  157.7160 C   0  0  0  0  0  0  0  0  0  0  0  0
  201.2745  182.3419  158.1435 C   0  0  0  0  0  0  0  0  0  0  0  0
  200.2527  182.7233  157.2253 N   0  0  0  0  0  0  0  0  0  0  0  0
  198.8712  182.9418  157.5262 C   0  0  0  0  0  0  0  0  0  0  0  0
  197.8281  182.2211  156.8722 C   0  0  0  0  0  0  0  0  0  0  0  0
  196.5203  182.3880  157.2118 N   0  0  0  0  0  0  0  0  0  0  0  0
  196.1845  183.2373  158.1952 C   0  0  0  0  0  0  0  0  0  0  0  0
  197.1605  184.0263  158.8693 C   0  0  0  0  0  0  0  0  0  0  0  0
  198.5117  183.8972  158.4983 C   0  0  0  0  0  0  0  0  0  0  0  0
  196.7925  184.9365  159.8781 C   0  0  0  0  0  0  0  0  0  0  0  0
  195.4390  185.0826  160.2103 C   0  0  0  0  0  0  0  0  0  0  0  0
  194.4586  184.3215  159.5454 C   0  0  0  0  0  0  0  0  0  0  0  0
  194.8311  183.4023  158.5450 C   0  0  0  0  0  0  0  0  0  0  0  0
  198.2406  181.3085  155.8870 N   0  0  0  0  0  0  0  0  0  0  0  0
  197.5900  180.5623  155.0041 C   0  0  0  0  0  0  0  0  0  0  0  0
  196.3546  180.5451  154.8716 O   0  0  0  0  0  0  0  0  0  0  0  0
  198.4331  179.7787  154.0696 C   0  0  0  0  0  0  0  0  0  0  0  0
  199.6617  179.1464  154.4553 C   0  0  0  0  0  0  0  0  0  0  0  0
  200.3824  178.4494  153.4447 C   0  0  0  0  0  0  0  0  0  0  0  0
  199.9060  178.3280  152.1258 C   0  0  0  0  0  0  0  0  0  0  0  0
  198.7020  178.9417  151.7646 C   0  0  0  0  0  0  0  0  0  0  0  0
  197.9759  179.6608  152.7308 C   0  0  0  0  0  0  0  0  0  0  0  0
  200.2596  179.1560  155.8886 C   0  0  1  0  0  0  0  0  0  0  0  0
  199.9559  177.9179  156.6638 N   0  0  1  0  0  0  0  0  0  0  0  0
  200.1848  176.6560  155.9310 C   0  0  2  0  0  0  0  0  0  0  0  0
  200.6818  177.9373  157.9520 C   0  0  2  0  0  0  0  0  0  0  0  0
  200.6745  183.3206  155.9423 C   0  0  1  0  0  0  0  0  0  0  0  0
  200.8305  184.8537  155.9611 C   0  0  0  0  0  0  0  0  0  0  0  0
  201.1775  185.4310  156.9898 O   0  0  0  0  0  0  0  0  0  0  0  0
  200.5697  185.4994  154.8115 N   0  0  0  0  0  0  0  0  0  0  0  0
  200.7001  186.8777  154.7159 N   0  0  0  0  0  0  0  0  0  0  0  0
  201.1794  182.6351  159.5382 C   0  0  0  0  0  0  0  0  0  0  0  0
  202.1774  182.2329  160.4494 C   0  0  0  0  0  0  0  0  0  0  0  0
  204.2403  180.5787  158.3140 H   0  0  0  0  0  0  0  0  0  0  0  0
  202.5229  181.2977  156.6817 H   0  0  0  0  0  0  0  0  0  0  0  0
  199.2469  184.5457  158.9552 H   0  0  0  0  0  0  0  0  0  0  0  0
  197.5474  185.5119  160.3931 H   0  0  0  0  0  0  0  0  0  0  0  0
  195.1564  185.7926  160.9771 H   0  0  0  0  0  0  0  0  0  0  0  0
  193.4166  184.4533  159.7777 H   0  0  0  0  0  0  0  0  0  0  0  0
  194.1024  182.8277  157.9966 H   0  0  0  0  0  0  0  0  0  0  0  0
  199.2764  181.2818  155.7997 H   0  0  0  0  0  0  0  0  0  0  0  0
  201.2993  177.9479  153.6843 H   0  0  0  0  0  0  0  0  0  0  0  0
  200.4610  177.7388  151.4028 H   0  0  0  0  0  0  0  0  0  0  0  0
  198.3463  178.8762  150.7451 H   0  0  0  0  0  0  0  0  0  0  0  0
  197.0558  180.1452  152.4284 H   0  0  0  0  0  0  0  0  0  0  0  0
  201.3561  179.2479  155.7315 H   0  0  0  0  0  0  0  0  0  0  0  0
  199.9320  179.9624  156.5611 H   0  0  0  0  0  0  0  0  0  0  0  0
  201.2171  176.5918  155.5890 H   0  0  0  0  0  0  0  0  0  0  0  0
  199.4908  176.5358  155.1018 H   0  0  0  0  0  0  0  0  0  0  0  0
  200.0041  175.8437  156.6168 H   0  0  0  0  0  0  0  0  0  0  0  0
  201.7603  177.9512  157.7891 H   0  0  0  0  0  0  0  0  0  0  0  0
  200.4162  177.0903  158.5793 H   0  0  0  0  0  0  0  0  0  0  0  0
  200.4322  178.8449  158.4998 H   0  0  0  0  0  0  0  0  0  0  0  0
  201.6213  182.9032  155.5634 H   0  0  0  0  0  0  0  0  0  0  0  0
  199.9650  183.0890  155.1475 H   0  0  0  0  0  0  0  0  0  0  0  0
  200.2841  184.9964  153.9839 H   0  0  0  0  0  0  0  0  0  0  0  0
  199.8797  187.3223  155.1213 H   0  0  0  0  0  0  0  0  0  0  0  0
  201.5116  187.1725  155.2555 H   0  0  0  0  0  0  0  0  0  0  0  0
  200.3343  183.1615  159.9854 H   0  0  0  0  0  0  0  0  0  0  0  0
  202.0448  182.4782  161.4930 H   0  0  0  0  0  0  0  0  0  0  0  0
  198.9679  177.9309  156.9115 H   0  0  0  0  0  0  0  0  0  0  0  0
  1  2  1  0
  2  3  1  0
  2 36  2  0
  3  4  2  0
  3 37  1  0
  4  5  1  0
  4 38  1  0
  5  6  1  0
  5 35  2  0
  6  7  1  0
  6 30  1  0
  7  8  1  0
  7 12  2  0
  8  9  2  0
  8 17  1  0
  9 10  1  0
 10 11  1  0
 10 16  2  0
 11 12  1  0
 11 13  2  0
 12 39  1  0
 13 14  1  0
 13 40  1  0
 14 15  2  0
 14 41  1  0
 15 16  1  0
 15 42  1  0
 16 43  1  0
 17 18  1  0
 17 44  1  0
 18 19  2  0
 18 20  1  0
 20 21  1  0
 20 25  2  0
 21 22  2  0
 21 26  1  0
 22 23  1  0
 22 45  1  0
 23 24  2  0
 23 46  1  0
 24 25  1  0
 24 47  1  0
 25 48  1  0
 26 27  1  0
 26 49  1  6
 26 50  1  0
 27 28  1  0
 27 29  1  0
 27 64  1  1
 28 51  1  6
 28 52  1  0
 28 53  1  0
 29 54  1  6
 29 55  1  0
 29 56  1  0
 30 31  1  0
 30 57  1  6
 30 58  1  0
 31 32  2  0
 31 33  1  0
 33 34  1  0
 33 59  1  0
 34 60  1  0
 34 61  1  0
 35 36  1  0
 35 62  1  0
 36 63  1  0
M  CHG  1  27   1
M  END
>  <s_epik_cmdline>  (734) 
J2VwaWtfcHl0aG9uJywgJy1waCcsICc3LjAwMDAwMCcsICctcGh0JywgJzIuMDAwMDAwJywgJy1tcycsICcxNicsICctdG4nLCAnOCcsICctbWEnLCAnMjAwJywgJy1pbWFlJywgJzxpbmZpbGUubWFlPicsICctb21hZScsICc8b3V0ZmlsZS5tYWU+Jw==

>  <s_epik_input>  (734) 
RmMxW2NIXVtjSF1jKFtjSF1bY0hdMSlOKFtDSDJdQyg9TylbTkhdW05IMl0pYyhbY0hdYyhjMjMpW2NIXVtjSF1bY0hdW2NIXTMpYyhuMilbTkhdQyg9TyljNGMoW0NIMl1OKFtDSDNdKVtDSDNdKVtjSF1bY0hdW2NIXVtjSF00

>  <s_i_glide_gridfile>  (734) 
ATP-Grid

>  <s_lp_Force_Field>  (734) 
OPLS_2005

>  <s_lp_Variant>  (734) 
rxn502b____EMOL5415347____EMOL44466703____EMOL2859841-1

>  <s_lp_label>  (734) 
2677_sdstereoexpander_1_neutralizer_1_epik_1_stereoizer_1

>  <s_m_source_file>  (734) 
ATP-VSW-LIGPREP-001-in.maegz

>  <s_sd_BIOSOLVEIT.INFINISEE\_QUERY\_NAME>  (734) 
Ref-Lig

>  <s_sd_BIOSOLVEIT.INFINISEE\_QUERY\_SMILES>  (734) 
S(c1nc2c(cc1C[NH2+]Cc3ccc(cc3)C[NH+](C)C)cccc2)Cc4ccccc4

>  <s_sd_BIOSOLVEIT.INFINISEE\_REACTION\_NAME>  (734) 
rxn502b

>  <s_sd_BIOSOLVEIT.INFINISEE\_REAGENT1\_NAME>  (734) 
EMOL5415347

>  <s_sd_BIOSOLVEIT.INFINISEE\_REAGENT1\_SMILES>  (734) 
O=C(O)c1c(cccc1)CN(C)C

>  <s_sd_BIOSOLVEIT.INFINISEE\_REAGENT2\_NAME>  (734) 
EMOL44466703

>  <s_sd_BIOSOLVEIT.INFINISEE\_REAGENT2\_SMILES>  (734) 
Brc1c(nc2c(c1)cccc2)N

>  <s_sd_BIOSOLVEIT.INFINISEE\_REAGENT3\_NAME>  (734) 
EMOL2859841

>  <s_sd_BIOSOLVEIT.INFINISEE\_REAGENT3\_SMILES>  (734) 
Fc1ccc(NCC(=O)NN)cc1

>  <s_sd_BIOSOLVEIT.INFINISEE\_SPACE>  (734) 
eXplore_7tr_2022-12

>  <s_vsw_compound_code>  (734) 
85633

>  <s_vsw_variant>  (734) 
85633-1

>  <r_epik_Charging_Adjusted_Penalty>  (734) 
0.120106230221407

>  <r_epik_Ionization_Penalty>  (734) 
0.060199999999999997

>  <r_epik_Ionization_Penalty_Charging>  (734) 
0.060100000000000001

>  <r_epik_Ionization_Penalty_Neutral>  (734) 
0.0001

>  <r_epik_State_Penalty>  (734) 
0.060100000000000001

>  <r_i_docking_score>  (734) 
-4.2251913338763201

>  <r_i_glide_ecoul>  (734) 
-5.4079837799072301

>  <r_i_glide_eff_state_penalty>  (734) 
0.060100000000000001

>  <r_i_glide_einternal>  (734) 
6.3144612312316903

>  <r_i_glide_emodel>  (734) 
-53.421551609866498

>  <r_i_glide_energy>  (734) 
-41.968606948852504

>  <r_i_glide_erotb>  (734) 
0.68421773096689498

>  <r_i_glide_esite>  (734) 
-0.15865526091027199

>  <r_i_glide_evdw>  (734) 
-36.560623168945298

>  <r_i_glide_gscore>  (734) 
-4.2852913338763203

>  <r_i_glide_hbond>  (734) 
-0.20000000000000001

>  <r_i_glide_ligand_efficiency>  (734) 
-0.117366425941009

>  <r_i_glide_ligand_efficiency_ln>  (734) 
-0.92182259757380003

>  <r_i_glide_ligand_efficiency_sa>  (734) 
-0.38753539945707699

>  <r_i_glide_lipo>  (734) 
-1.63738034506018

>  <r_i_glide_metal>  (734) 
-0

>  <r_i_glide_rewards>  (734) 
-0.33424473343941202

>  <r_lp_Energy>  (734) 
37.307290999999999

>  <r_qp_ACxDN^.5/SA>  (734) 
0.0233317

>  <r_qp_CIQPlogS>  (734) 
-5.585

>  <r_qp_EA(eV)>  (734) 
1.3480000000000001

>  <r_qp_FISA>  (734) 
153.04499999999999

>  <r_qp_FOSA>  (734) 
145.93600000000001

>  <r_qp_IP(eV)>  (734) 
8.9149999999999991

>  <r_qp_Jm>  (734) 
0.0018903666334460999

>  <r_qp_PISA>  (734) 
425.44600000000003

>  <r_qp_PSA>  (734) 
112.074

>  <r_qp_PercentHumanOralAbsorption>  (734) 
81.751999999999995

>  <r_qp_QPPCaco>  (734) 
87.393000000000001

>  <r_qp_QPPMDCK>  (734) 
71.099999999999994

>  <r_qp_QPlogBB>  (734) 
-1.0189999999999999

>  <r_qp_QPlogHERG>  (734) 
-7.3579999999999997

>  <r_qp_QPlogKhsa>  (734) 
0.36699999999999999

>  <r_qp_QPlogKp>  (734) 
-4.04

>  <r_qp_QPlogPC16>  (734) 
16.533000000000001

>  <r_qp_QPlogPo/w>  (734) 
3.4260000000000002

>  <r_qp_QPlogPoct>  (734) 
28.352

>  <r_qp_QPlogPw>  (734) 
18.265000000000001

>  <r_qp_QPlogS>  (734) 
-4.3710000000000004

>  <r_qp_QPpolrz>  (734) 
50.936999999999998

>  <r_qp_SASA>  (734) 
771.48400000000004

>  <r_qp_SAamideO>  (734) 
0

>  <r_qp_SAfluorine>  (734) 
47.057000000000002

>  <r_qp_WPSA>  (734) 
47.057000000000002

>  <r_qp_accptHB>  (734) 
9

>  <r_qp_dip^2/V>  (734) 
0.0097354999999999994

>  <r_qp_dipole>  (734) 
3.782

>  <r_qp_donorHB>  (734) 
4

>  <r_qp_glob>  (734) 
0.81022819999999995

>  <r_qp_mol_MW>  (734) 
486.548

>  <r_qp_volume>  (734) 
1469.4459999999999

>  <r_sd_BIOSOLVEIT.INFINISEE\_FTREES\_SIMILARITY>  (734) 
0.90900000000000003

>  <r_sd_BIOSOLVEIT.LOGP>  (734) 
2.3986999999999998

>  <r_sd_BIOSOLVEIT.MOLECULAR\_WEIGHT>  (734) 
487.55599999999998

>  <r_sd_BIOSOLVEIT.TPSA>  (734) 
104.79000000000001

>  <i_epik_Tot_Q>  (734) 
1

>  <i_epik_Tot_abs_Q>  (734) 
1

>  <i_f3d_flags>  (734) 
0

>  <i_i_glide_confnum>  (734) 
1

>  <i_i_glide_lignum>  (734) 
1182

>  <i_i_glide_posenum>  (734) 
14

>  <i_i_glide_rotatable_bonds>  (734) 
10

>  <i_lp_mmshare_version>  (734) 
65135

>  <i_m_ct_format>  (734) 
2

>  <i_m_source_file_index>  (734) 
2677

>  <i_qp_#NandO>  (734) 
8

>  <i_qp_#acid>  (734) 
0

>  <i_qp_#amide>  (734) 
0

>  <i_qp_#amidine>  (734) 
0

>  <i_qp_#amine>  (734) 
1

>  <i_qp_#in34>  (734) 
0

>  <i_qp_#in56>  (734) 
22

>  <i_qp_#metab>  (734) 
4

>  <i_qp_#nonHatm>  (734) 
36

>  <i_qp_#noncon>  (734) 
0

>  <i_qp_#ringatoms>  (734) 
22

>  <i_qp_#rotor>  (734) 
9

>  <i_qp_#rtvFG>  (734) 
1

>  <i_qp_#stars>  (734) 
0

>  <i_qp_CNS>  (734) 
-2

>  <i_qp_HumanOralAbsorption>  (734) 
3

>  <i_qp_RuleOfFive>  (734) 
0

>  <i_qp_RuleOfThree>  (734) 
0

>  <i_sd_BIOSOLVEIT.INFINISEE\_RESULT\_RANK>  (734) 
49789

>  <i_sd_version>  (734) 
0

>  <b_lp_Chiralities_Consistent>  (734) 
1

>  <b_sd_chiral_flag>  (734) 
0

>  <canonical_id>  (734) 
ATP-HTVS-72D66A1ED57F

>  <compound_code>  (734) 
85633

>  <title>  (734) 
rxn502b____EMOL5415347____EMOL44466703____EMOL2859841

>  <variant>  (734) 
85633-1

>  <source_file>  (734) 
运行/运行/ATP-VSW/ATP-VSW-DOCK_HTVS_1-001_lib/ATP-VSW-DOCK_HTVS_1-001_lib

>  <canonical_smiles>  (734) 
C[NH+](C)Cc1ccccc1C(=O)Nc1nc2ccccc2cc1N(CC(=O)NN)c1ccc(F)cc1

>  <scaffold>  (734) 
O=C(Nc1nc2ccccc2cc1Nc1ccccc1)c1ccccc1

>  <molecular_formula>  (734) 
C27H28FN6O2+

$$$$
ATP-HTVS-72E6B3102DA2
     RDKit          3D

 57 60  0  0  0  0  0  0  0  0999 V2000
  194.2079  186.6252  161.0175 Br  0  0  0  0  0  0  0  0  0  0  0  0
  195.1381  185.2524  160.0821 C   0  0  0  0  0  0  0  0  0  0  0  0
  196.5435  185.2444  160.0929 C   0  0  0  0  0  0  0  0  0  0  0  0
  197.2498  184.2173  159.4386 C   0  0  0  0  0  0  0  0  0  0  0  0
  196.5520  183.1962  158.7588 C   0  0  0  0  0  0  0  0  0  0  0  0
  195.1410  183.2147  158.7337 C   0  0  0  0  0  0  0  0  0  0  0  0
  194.4351  184.2402  159.3955 C   0  0  0  0  0  0  0  0  0  0  0  0
  197.3221  182.0780  158.0809 C   0  0  1  0  0  0  0  0  0  0  0  0
  196.9961  181.9030  156.6739 N   0  0  0  0  0  0  0  0  0  0  0  0
  197.6745  180.9396  155.9009 C   0  0  0  0  0  0  0  0  0  0  0  0
  198.6656  180.2252  156.4736 N   0  0  0  0  0  0  0  0  0  0  0  0
  199.3413  179.3280  155.7098 C   0  0  0  0  0  0  0  0  0  0  0  0
  199.0090  179.1547  154.3327 C   0  0  0  0  0  0  0  0  0  0  0  0
  198.0067  179.8535  153.7715 N   0  0  0  0  0  0  0  0  0  0  0  0
  197.3520  180.7683  154.5299 C   0  0  0  0  0  0  0  0  0  0  0  0
  196.3944  181.5808  153.9105 N   0  0  0  0  0  0  0  0  0  0  0  0
  196.3020  181.6827  152.4571 C   0  0  1  0  0  0  0  0  0  0  0  0
  197.6125  182.0426  151.7808 C   0  0  0  0  0  0  0  0  0  0  0  0
  198.2765  183.2289  152.1522 C   0  0  0  0  0  0  0  0  0  0  0  0
  199.4830  183.5947  151.5028 C   0  0  0  0  0  0  0  0  0  0  0  0
  200.0584  182.7165  150.5458 C   0  0  0  0  0  0  0  0  0  0  0  0
  199.4176  181.4979  150.2278 C   0  0  0  0  0  0  0  0  0  0  0  0
  198.1825  181.1571  150.8252 C   0  0  0  0  0  0  0  0  0  0  0  0
  200.1462  184.9288  151.8171 C   0  0  1  0  0  0  0  0  0  0  0  0
  199.3479  186.1329  151.5269 N   0  0  0  0  0  0  0  0  0  0  0  0
  198.1253  186.2412  152.3277 C   0  0  2  0  0  0  0  0  0  0  0  0
  198.9966  186.1739  150.1156 C   0  0  2  0  0  0  0  0  0  0  0  0
  199.7572  178.2484  153.5469 C   0  0  0  0  0  0  0  0  0  0  0  0
  200.8055  177.5014  154.1083 C   0  0  0  0  0  0  0  0  0  0  0  0
  201.1219  177.6579  155.4693 C   0  0  0  0  0  0  0  0  0  0  0  0
  200.3904  178.5686  156.2586 C   0  0  0  0  0  0  0  0  0  0  0  0
  197.0792  186.0209  160.6181 H   0  0  0  0  0  0  0  0  0  0  0  0
  198.3291  184.2133  159.4698 H   0  0  0  0  0  0  0  0  0  0  0  0
  194.5986  182.4380  158.2120 H   0  0  0  0  0  0  0  0  0  0  0  0
  193.3558  184.2512  159.3754 H   0  0  0  0  0  0  0  0  0  0  0  0
  198.3895  182.2878  158.1412 H   0  0  0  0  0  0  0  0  0  0  0  0
  197.1417  181.1511  158.6323 H   0  0  0  0  0  0  0  0  0  0  0  0
  196.2751  182.4806  156.2699 H   0  0  0  0  0  0  0  0  0  0  0  0
  195.9361  182.2980  154.4572 H   0  0  0  0  0  0  0  0  0  0  0  0
  195.8992  180.7562  152.0525 H   0  0  0  0  0  0  0  0  0  0  0  0
  195.5811  182.4683  152.2324 H   0  0  0  0  0  0  0  0  0  0  0  0
  197.8379  183.8614  152.8957 H   0  0  0  0  0  0  0  0  0  0  0  0
  200.9944  182.9676  150.0704 H   0  0  0  0  0  0  0  0  0  0  0  0
  199.8886  180.7991  149.5411 H   0  0  0  0  0  0  0  0  0  0  0  0
  197.7091  180.2151  150.6137 H   0  0  0  0  0  0  0  0  0  0  0  0
  200.4346  184.9206  152.8681 H   0  0  0  0  0  0  0  0  0  0  0  0
  201.0853  184.9990  151.2633 H   0  0  0  0  0  0  0  0  0  0  0  0
  197.6325  187.2099  152.1493 H   0  0  0  0  0  0  0  0  0  0  0  0
  198.3760  186.1840  153.3880 H   0  0  0  0  0  0  0  0  0  0  0  0
  197.4586  185.4561  152.0928 H   0  0  0  0  0  0  0  0  0  0  0  0
  198.3756  187.0374  149.9032 H   0  0  0  0  0  0  0  0  0  0  0  0
  198.4148  185.3001  149.8343 H   0  0  0  0  0  0  0  0  0  0  0  0
  199.8891  186.2182  149.4802 H   0  0  0  0  0  0  0  0  0  0  0  0
  199.5181  178.1341  152.4992 H   0  0  0  0  0  0  0  0  0  0  0  0
  201.3640  176.8053  153.4972 H   0  0  0  0  0  0  0  0  0  0  0  0
  201.9262  177.0882  155.9095 H   0  0  0  0  0  0  0  0  0  0  0  0
  200.6353  178.6857  157.3036 H   0  0  0  0  0  0  0  0  0  0  0  0
  1  2  1  0
  2  3  1  0
  2  7  2  0
  3  4  2  0
  3 32  1  0
  4  5  1  0
  4 33  1  0
  5  6  2  0
  5  8  1  0
  6  7  1  0
  6 34  1  0
  7 35  1  0
  8  9  1  0
  8 36  1  6
  8 37  1  0
  9 10  1  0
  9 38  1  0
 10 11  2  0
 10 15  1  0
 11 12  1  0
 12 13  1  0
 12 31  2  0
 13 14  1  0
 13 28  2  0
 14 15  2  0
 15 16  1  0
 16 17  1  0
 16 39  1  0
 17 18  1  0
 17 40  1  6
 17 41  1  0
 18 19  2  0
 18 23  1  0
 19 20  1  0
 19 42  1  0
 20 21  2  0
 20 24  1  0
 21 22  1  0
 21 43  1  0
 22 23  2  0
 22 44  1  0
 23 45  1  0
 24 25  1  0
 24 46  1  1
 24 47  1  0
 25 26  1  0
 25 27  1  0
 26 48  1  1
 26 49  1  0
 26 50  1  0
 27 51  1  1
 27 52  1  0
 27 53  1  0
 28 29  1  0
 28 54  1  0
 29 30  2  0
 29 55  1  0
 30 31  1  0
 30 56  1  0
 31 57  1  0
M  END
>  <s_epik_cmdline>  (735) 
J2VwaWtfcHl0aG9uJywgJy1waCcsICc3LjAwMDAwMCcsICctcGh0JywgJzIuMDAwMDAwJywgJy1tcycsICcxNicsICctdG4nLCAnOCcsICctbWEnLCAnMjAwJywgJy1pbWFlJywgJzxpbmZpbGUubWFlPicsICctb21hZScsICc8b3V0ZmlsZS5tYWU+Jw==

>  <s_epik_input>  (735) 
QnJjMVtjSF1bY0hdYyhbY0hdW2NIXTEpW0NIMl1bTkhdYyhuMiljKG5jKGMyMylbY0hdW2NIXVtjSF1bY0hdMylbTkhdW0NIMl1jNFtjSF1jKFtjSF1bY0hdW2NIXTQpW0NIMl1OKFtDSDNdKVtDSDNd

>  <s_i_glide_gridfile>  (735) 
ATP-Grid

>  <s_lp_Force_Field>  (735) 
OPLS_2005

>  <s_lp_Variant>  (735) 
m_282030aaa____21928956____23157418____21940090-2

>  <s_lp_label>  (735) 
937_sdstereoexpander_1_neutralizer_1_epik_2_stereoizer_1

>  <s_m_source_file>  (735) 
ATP-VSW-LIGPREP-001-in.maegz

>  <s_sd_BIOSOLVEIT.INFINISEE\_QUERY\_NAME>  (735) 
Ref-Lig

>  <s_sd_BIOSOLVEIT.INFINISEE\_QUERY\_SMILES>  (735) 
S(c1nc2c(cc1C[NH2+]Cc3ccc(cc3)C[NH+](C)C)cccc2)Cc4ccccc4

>  <s_sd_BIOSOLVEIT.INFINISEE\_REACTION\_NAME>  (735) 
m_282030aaa

>  <s_sd_BIOSOLVEIT.INFINISEE\_REAGENT1\_SMILES>  (735) 
[R1*]NCc1ccc(Br)cc1

>  <s_sd_BIOSOLVEIT.INFINISEE\_REAGENT2\_SMILES>  (735) 
[R1*]c1nc2c(nc1[R2*])cccc2

>  <s_sd_BIOSOLVEIT.INFINISEE\_REAGENT3\_SMILES>  (735) 
[R2*]NCc1cc(ccc1)CN(C)C

>  <s_sd_BIOSOLVEIT.INFINISEE\_SPACE>  (735) 
REALSpace_44bn_2023-08

>  <s_vsw_compound_code>  (735) 
29953

>  <s_vsw_variant>  (735) 
29953-2

>  <r_epik_Charging_Adjusted_Penalty>  (735) 
1.56114245651254

>  <r_epik_Ionization_Penalty>  (735) 
1.5615000000000001

>  <r_epik_Ionization_Penalty_Charging>  (735) 
0

>  <r_epik_Ionization_Penalty_Neutral>  (735) 
1.5615000000000001

>  <r_epik_State_Penalty>  (735) 
1.5610999999999999

>  <r_i_docking_score>  (735) 
-1.61026209167292

>  <r_i_glide_ecoul>  (735) 
-2.3435008525848402

>  <r_i_glide_eff_state_penalty>  (735) 
1.5610999999999999

>  <r_i_glide_einternal>  (735) 
2.4722816944122301

>  <r_i_glide_emodel>  (735) 
-45.770729834522399

>  <r_i_glide_energy>  (735) 
-39.149817228317303

>  <r_i_glide_erotb>  (735) 
0.62452431420741605

>  <r_i_glide_esite>  (735) 
-0.117240193420382

>  <r_i_glide_evdw>  (735) 
-36.806316375732401

>  <r_i_glide_gscore>  (735) 
-3.1713620916729202

>  <r_i_glide_hbond>  (735) 
0

>  <r_i_glide_ligand_efficiency>  (735) 
-0.051943938441062001

>  <r_i_glide_ligand_efficiency_ln>  (735) 
-0.36316345027880997

>  <r_i_glide_ligand_efficiency_sa>  (735) 
-0.16317568304098101

>  <r_i_glide_lipo>  (735) 
-1.3259741748765199

>  <r_i_glide_metal>  (735) 
-0

>  <r_i_glide_rewards>  (735) 
-0.16083109090909101

>  <r_lp_Energy>  (735) 
24.424533

>  <r_qp_ACxDN^.5/SA>  (735) 
0.011011200000000001

>  <r_qp_CIQPlogS>  (735) 
-7.0940000000000003

>  <r_qp_EA(eV)>  (735) 
0.80500000000000005

>  <r_qp_FISA>  (735) 
36.18

>  <r_qp_FOSA>  (735) 
174.75999999999999

>  <r_qp_IP(eV)>  (735) 
8.2379999999999995

>  <r_qp_Jm>  (735) 
0.49475168383434598

>  <r_qp_PISA>  (735) 
370.58100000000002

>  <r_qp_PSA>  (735) 
47.213000000000001

>  <r_qp_PercentHumanOralAbsorption>  (735) 
100

>  <r_qp_QPPCaco>  (735) 
1121.26

>  <r_qp_QPPMDCK>  (735) 
1331.019

>  <r_qp_QPlogBB>  (735) 
0.32300000000000001

>  <r_qp_QPlogHERG>  (735) 
-5.8410000000000002

>  <r_qp_QPlogKhsa>  (735) 
0.76500000000000001

>  <r_qp_QPlogKp>  (735) 
-2.1749999999999998

>  <r_qp_QPlogPC16>  (735) 
13.872999999999999

>  <r_qp_QPlogPo/w>  (735) 
4.9870000000000001

>  <r_qp_QPlogPoct>  (735) 
20.420000000000002

>  <r_qp_QPlogPw>  (735) 
10.141999999999999

>  <r_qp_QPlogS>  (735) 
-3.8079999999999998

>  <r_qp_QPpolrz>  (735) 
43.473999999999997

>  <r_qp_SASA>  (735) 
642.16800000000001

>  <r_qp_SAamideO>  (735) 
0

>  <r_qp_SAfluorine>  (735) 
0

>  <r_qp_WPSA>  (735) 
60.648000000000003

>  <r_qp_accptHB>  (735) 
5

>  <r_qp_dip^2/V>  (735) 
0.015817600000000001

>  <r_qp_dipole>  (735) 
4.5

>  <r_qp_donorHB>  (735) 
2

>  <r_qp_glob>  (735) 
0.88781509999999997

>  <r_qp_mol_MW>  (735) 
476.41800000000001

>  <r_qp_volume>  (735) 
1279.998

>  <r_sd_BIOSOLVEIT.INFINISEE\_FTREES\_SIMILARITY>  (735) 
0.91800000000000004

>  <r_sd_BIOSOLVEIT.LOGP>  (735) 
4.2610000000000001

>  <r_sd_BIOSOLVEIT.MOLECULAR\_WEIGHT>  (735) 
477.42700000000002

>  <r_sd_BIOSOLVEIT.TPSA>  (735) 
54.280000000000001

>  <i_epik_Tot_Q>  (735) 
0

>  <i_epik_Tot_abs_Q>  (735) 
0

>  <i_f3d_flags>  (735) 
0

>  <i_i_glide_confnum>  (735) 
3

>  <i_i_glide_lignum>  (735) 
181

>  <i_i_glide_posenum>  (735) 
3

>  <i_i_glide_rotatable_bonds>  (735) 
8

>  <i_lp_mmshare_version>  (735) 
65135

>  <i_m_ct_format>  (735) 
2

>  <i_m_source_file_index>  (735) 
937

>  <i_qp_#NandO>  (735) 
5

>  <i_qp_#acid>  (735) 
0

>  <i_qp_#amide>  (735) 
0

>  <i_qp_#amidine>  (735) 
0

>  <i_qp_#amine>  (735) 
1

>  <i_qp_#in34>  (735) 
0

>  <i_qp_#in56>  (735) 
22

>  <i_qp_#metab>  (735) 
4

>  <i_qp_#nonHatm>  (735) 
31

>  <i_qp_#noncon>  (735) 
0

>  <i_qp_#ringatoms>  (735) 
22

>  <i_qp_#rotor>  (735) 
8

>  <i_qp_#rtvFG>  (735) 
0

>  <i_qp_#stars>  (735) 
0

>  <i_qp_CNS>  (735) 
1

>  <i_qp_HumanOralAbsorption>  (735) 
3

>  <i_qp_RuleOfFive>  (735) 
0

>  <i_qp_RuleOfThree>  (735) 
0

>  <i_sd_BIOSOLVEIT.INFINISEE\_REAGENT1\_NAME>  (735) 
21928956

>  <i_sd_BIOSOLVEIT.INFINISEE\_REAGENT2\_NAME>  (735) 
23157418

>  <i_sd_BIOSOLVEIT.INFINISEE\_REAGENT3\_NAME>  (735) 
21940090

>  <i_sd_BIOSOLVEIT.INFINISEE\_RESULT\_RANK>  (735) 
21496

>  <i_sd_version>  (735) 
0

>  <b_lp_Chiralities_Consistent>  (735) 
1

>  <b_sd_chiral_flag>  (735) 
0

>  <canonical_id>  (735) 
ATP-HTVS-72E6B3102DA2

>  <compound_code>  (735) 
29953

>  <title>  (735) 
m_282030aaa____21928956____23157418____21940090

>  <variant>  (735) 
29953-2

>  <source_file>  (735) 
运行/运行/ATP-VSW/ATP-VSW-DOCK_HTVS_1-001_lib/ATP-VSW-DOCK_HTVS_1-001_lib

>  <canonical_smiles>  (735) 
CN(C)Cc1cccc(CNc2nc3ccccc3nc2NCc2ccc(Br)cc2)c1

>  <scaffold>  (735) 
c1ccc(CNc2nc3ccccc3nc2NCc2ccccc2)cc1

>  <molecular_formula>  (735) 
C25H26BrN5

$$$$
ATP-HTVS-7317133B38FB
     RDKit          3D

 63 66  0  0  0  0  0  0  0  0999 V2000
  204.3265  172.6445  154.0139 O   0  0  0  0  0  0  0  0  0  0  0  0
  203.6461  173.7873  154.2923 C   0  0  0  0  0  0  0  0  0  0  0  0
  202.3105  173.7396  154.7326 C   0  0  0  0  0  0  0  0  0  0  0  0
  201.6099  174.9320  155.0029 C   0  0  0  0  0  0  0  0  0  0  0  0
  202.2431  176.1918  154.8844 C   0  0  0  0  0  0  0  0  0  0  0  0
  203.5896  176.2318  154.4483 C   0  0  0  0  0  0  0  0  0  0  0  0
  204.2822  175.0367  154.1489 C   0  0  0  0  0  0  0  0  0  0  0  0
  201.4823  177.4851  155.2204 C   0  0  2  0  0  0  0  0  0  0  0  0
  201.3460  177.7154  156.6951 N   0  0  1  0  0  0  0  0  0  0  0  0
  200.8799  179.0802  157.0583 C   0  0  2  0  0  0  0  0  0  0  0  0
  200.5746  176.6898  157.4321 C   0  0  2  0  0  0  0  0  0  0  0  0
  200.1281  177.5821  154.4656 C   0  0  1  0  0  0  0  0  0  0  0  0
  200.2846  177.7035  153.0142 N   0  0  0  0  0  0  0  0  0  0  0  0
  199.2755  178.3762  152.3062 C   0  0  0  0  0  0  0  0  0  0  0  0
  198.6610  179.4122  152.9174 N   0  0  0  0  0  0  0  0  0  0  0  0
  197.6101  179.9689  152.3129 C   0  0  0  0  0  0  0  0  0  0  0  0
  197.1341  179.6266  151.1093 N   0  0  0  0  0  0  0  0  0  0  0  0
  197.7744  178.6482  150.4387 C   0  0  0  0  0  0  0  0  0  0  0  0
  198.8775  177.9575  151.0138 C   0  0  0  0  0  0  0  0  0  0  0  0
  199.5122  176.9065  150.3180 C   0  0  0  0  0  0  0  0  0  0  0  0
  199.0584  176.5371  149.0382 C   0  0  0  0  0  0  0  0  0  0  0  0
  197.9789  177.2261  148.4506 C   0  0  0  0  0  0  0  0  0  0  0  0
  197.3496  178.2771  149.1445 C   0  0  0  0  0  0  0  0  0  0  0  0
  196.9071  181.1087  153.0550 C   0  0  2  0  0  0  0  0  0  0  0  0
  197.6279  182.4617  152.9037 C   0  0  1  0  0  0  0  0  0  0  0  0
  197.6059  183.0040  151.4863 C   0  0  0  0  0  0  0  0  0  0  0  0
  196.5136  183.7831  151.0497 C   0  0  0  0  0  0  0  0  0  0  0  0
  196.4862  184.2822  149.7328 C   0  0  0  0  0  0  0  0  0  0  0  0
  197.5454  184.0016  148.8492 C   0  0  0  0  0  0  0  0  0  0  0  0
  198.6374  183.2270  149.2854 C   0  0  0  0  0  0  0  0  0  0  0  0
  198.6689  182.7315  150.6024 C   0  0  0  0  0  0  0  0  0  0  0  0
  196.6137  180.7605  154.5276 C   0  0  2  0  0  0  0  0  0  0  0  0
  203.8122  171.8363  154.0872 H   0  0  0  0  0  0  0  0  0  0  0  0
  201.8104  172.7884  154.8731 H   0  0  0  0  0  0  0  0  0  0  0  0
  200.5758  174.8489  155.3089 H   0  0  0  0  0  0  0  0  0  0  0  0
  204.1095  177.1813  154.3375 H   0  0  0  0  0  0  0  0  0  0  0  0
  205.3046  175.0725  153.8022 H   0  0  0  0  0  0  0  0  0  0  0  0
  202.1110  178.3104  154.8704 H   0  0  0  0  0  0  0  0  0  0  0  0
  199.8692  179.3061  156.7113 H   0  0  0  0  0  0  0  0  0  0  0  0
  201.5596  179.8385  156.6690 H   0  0  0  0  0  0  0  0  0  0  0  0
  200.8410  179.1905  158.1386 H   0  0  0  0  0  0  0  0  0  0  0  0
  199.5730  176.5771  157.0135 H   0  0  0  0  0  0  0  0  0  0  0  0
  200.4480  176.9632  158.4838 H   0  0  0  0  0  0  0  0  0  0  0  0
  201.0945  175.7319  157.4182 H   0  0  0  0  0  0  0  0  0  0  0  0
  199.5133  176.7061  154.6615 H   0  0  0  0  0  0  0  0  0  0  0  0
  199.5719  178.4307  154.8660 H   0  0  0  0  0  0  0  0  0  0  0  0
  200.6715  176.8860  152.5625 H   0  0  0  0  0  0  0  0  0  0  0  0
  200.3473  176.3736  150.7397 H   0  0  0  0  0  0  0  0  0  0  0  0
  199.5461  175.7334  148.5002 H   0  0  0  0  0  0  0  0  0  0  0  0
  197.6204  176.9361  147.4700 H   0  0  0  0  0  0  0  0  0  0  0  0
  196.5172  178.8028  148.6969 H   0  0  0  0  0  0  0  0  0  0  0  0
  195.9279  181.2315  152.5901 H   0  0  0  0  0  0  0  0  0  0  0  0
  197.1552  183.2007  153.5483 H   0  0  0  0  0  0  0  0  0  0  0  0
  198.6589  182.3808  153.2552 H   0  0  0  0  0  0  0  0  0  0  0  0
  195.6970  183.9946  151.7261 H   0  0  0  0  0  0  0  0  0  0  0  0
  195.6570  184.8855  149.3882 H   0  0  0  0  0  0  0  0  0  0  0  0
  197.5171  184.3788  147.8371 H   0  0  0  0  0  0  0  0  0  0  0  0
  199.4511  183.0132  148.6081 H   0  0  0  0  0  0  0  0  0  0  0  0
  199.5089  182.1371  150.9310 H   0  0  0  0  0  0  0  0  0  0  0  0
  196.0421  179.8359  154.6125 H   0  0  0  0  0  0  0  0  0  0  0  0
  196.0339  181.5462  155.0169 H   0  0  0  0  0  0  0  0  0  0  0  0
  197.5302  180.6262  155.1026 H   0  0  0  0  0  0  0  0  0  0  0  0
  202.2926  177.6586  157.0505 H   0  0  0  0  0  0  0  0  0  0  0  0
  1  2  1  0
  1 33  1  0
  2  3  1  0
  2  7  2  0
  3  4  2  0
  3 34  1  0
  4  5  1  0
  4 35  1  0
  5  6  2  0
  5  8  1  0
  6  7  1  0
  6 36  1  0
  7 37  1  0
  8  9  1  0
  8 12  1  0
  8 38  1  6
  9 10  1  0
  9 11  1  0
  9 63  1  1
 10 39  1  6
 10 40  1  0
 10 41  1  0
 11 42  1  6
 11 43  1  0
 11 44  1  0
 12 13  1  0
 12 45  1  6
 12 46  1  0
 13 14  1  0
 13 47  1  0
 14 15  1  0
 14 19  2  0
 15 16  2  0
 16 17  1  0
 16 24  1  0
 17 18  2  0
 18 19  1  0
 18 23  1  0
 19 20  1  0
 20 21  2  0
 20 48  1  0
 21 22  1  0
 21 49  1  0
 22 23  2  0
 22 50  1  0
 23 51  1  0
 24 25  1  0
 24 32  1  0
 24 52  1  6
 25 26  1  0
 25 53  1  1
 25 54  1  0
 26 27  2  0
 26 31  1  0
 27 28  1  0
 27 55  1  0
 28 29  2  0
 28 56  1  0
 29 30  1  0
 29 57  1  0
 30 31  2  0
 30 58  1  0
 31 59  1  0
 32 60  1  6
 32 61  1  0
 32 62  1  0
M  CHG  1   9   1
M  END
>  <s_epik_cmdline>  (736) 
J2VwaWtfcHl0aG9uJywgJy1waCcsICc3LjAwMDAwMCcsICctcGh0JywgJzIuMDAwMDAwJywgJy1tcycsICcxNicsICctdG4nLCAnOCcsICctbWEnLCAnMjAwJywgJy1pbWFlJywgJzxpbmZpbGUubWFlPicsICctb21hZScsICc8b3V0ZmlsZS5tYWU+Jw==

>  <s_epik_input>  (736) 
W09IXWMxW2NIXVtjSF1jKFtjSF1bY0hdMSlbQ0BIXShOKFtDSDNdKVtDSDNdKVtDSDJdW05IXWMoYyhjMjMpW2NIXVtjSF1bY0hdW2NIXTMpbmMobjIpW0NAQEhdKFtDSDNdKVtDSDJdYzRbY0hdW2NIXVtjSF1bY0hdW2NIXTQ=

>  <s_i_glide_gridfile>  (736) 
ATP-Grid

>  <s_lp_Force_Field>  (736) 
OPLS_2005

>  <s_lp_Variant>  (736) 
YAS_R006____OTV5753507____OTV1048435____OTV1000393-8

>  <s_lp_label>  (736) 
111_sdstereoexpander_4_neutralizer_1_epik_2_stereoizer_1

>  <s_m_source_file>  (736) 
ATP-VSW-LIGPREP-002-in.maegz

>  <s_sd_BIOSOLVEIT.INFINISEE\_QUERY\_NAME>  (736) 
Ref-Lig

>  <s_sd_BIOSOLVEIT.INFINISEE\_QUERY\_SMILES>  (736) 
S(c1nc2c(cc1C[NH2+]Cc3ccc(cc3)C[NH+](C)C)cccc2)Cc4ccccc4

>  <s_sd_BIOSOLVEIT.INFINISEE\_REACTION\_NAME>  (736) 
YAS_R006

>  <s_sd_BIOSOLVEIT.INFINISEE\_REAGENT1\_NAME>  (736) 
OTV5753507

>  <s_sd_BIOSOLVEIT.INFINISEE\_REAGENT1\_SMILES>  (736) 
Nc1ccccc1

>  <s_sd_BIOSOLVEIT.INFINISEE\_REAGENT2\_NAME>  (736) 
OTV1048435

>  <s_sd_BIOSOLVEIT.INFINISEE\_REAGENT2\_SMILES>  (736) 
O=C(O)C(Cc1ccccc1)C

>  <s_sd_BIOSOLVEIT.INFINISEE\_REAGENT3\_NAME>  (736) 
OTV1000393

>  <s_sd_BIOSOLVEIT.INFINISEE\_REAGENT3\_SMILES>  (736) 
Oc1ccc(cc1)C(N(C)C)CN

>  <s_sd_BIOSOLVEIT.INFINISEE\_SPACE>  (736) 
CHEMriya_12bn_2022-01

>  <s_vsw_compound_code>  (736) 
3522

>  <s_vsw_variant>  (736) 
3522-8

>  <r_epik_Charging_Adjusted_Penalty>  (736) 
0.586974990671431

>  <r_epik_Ionization_Penalty>  (736) 
0.4002

>  <r_epik_Ionization_Penalty_Charging>  (736) 
0.036499999999999998

>  <r_epik_Ionization_Penalty_Neutral>  (736) 
0.36370000000000002

>  <r_epik_State_Penalty>  (736) 
0.55049999999999999

>  <r_i_docking_score>  (736) 
-4.4150772918102899

>  <r_i_glide_ecoul>  (736) 
-11.3707485198975

>  <r_i_glide_eff_state_penalty>  (736) 
0.55049999999999999

>  <r_i_glide_einternal>  (736) 
3.3852307796478298

>  <r_i_glide_emodel>  (736) 
-62.106991487630097

>  <r_i_glide_energy>  (736) 
-45.110536575317397

>  <r_i_glide_erotb>  (736) 
0.76031387511357695

>  <r_i_glide_esite>  (736) 
0

>  <r_i_glide_evdw>  (736) 
-33.739788055419901

>  <r_i_glide_gscore>  (736) 
-4.9655772918102903

>  <r_i_glide_hbond>  (736) 
-0.16

>  <r_i_glide_ligand_efficiency>  (736) 
-0.137971165369071

>  <r_i_glide_ligand_efficiency_ln>  (736) 
-0.98865615609788304

>  <r_i_glide_ligand_efficiency_sa>  (736) 
-0.43803114559025103

>  <r_i_glide_lipo>  (736) 
-1.37122217037005

>  <r_i_glide_metal>  (736) 
-0

>  <r_i_glide_rewards>  (736) 
-0.80206731579819701

>  <r_lp_Energy>  (736) 
11.953609999999999

>  <r_lp_tautomer_probability>  (736) 
0.99997800023936201

>  <r_qp_ACxDN^.5/SA>  (736) 
0.0110904

>  <r_qp_CIQPlogS>  (736) 
-5.9820000000000002

>  <r_qp_EA(eV)>  (736) 
0.89000000000000001

>  <r_qp_FISA>  (736) 
68.557000000000002

>  <r_qp_FOSA>  (736) 
270.149

>  <r_qp_IP(eV)>  (736) 
8.5579999999999998

>  <r_qp_Jm>  (736) 
0.10922187312131799

>  <r_qp_PISA>  (736) 
330.75700000000001

>  <r_qp_PSA>  (736) 
58.045999999999999

>  <r_qp_PercentHumanOralAbsorption>  (736) 
100

>  <r_qp_QPPCaco>  (736) 
552.93799999999999

>  <r_qp_QPPMDCK>  (736) 
288.46499999999997

>  <r_qp_QPlogBB>  (736) 
-0.16300000000000001

>  <r_qp_QPlogHERG>  (736) 
-5.6820000000000004

>  <r_qp_QPlogKhsa>  (736) 
0.88500000000000001

>  <r_qp_QPlogKp>  (736) 
-2.8159999999999998

>  <r_qp_QPlogPC16>  (736) 
14.048

>  <r_qp_QPlogPo/w>  (736) 
4.8760000000000003

>  <r_qp_QPlogPoct>  (736) 
21.113

>  <r_qp_QPlogPw>  (736) 
10.162000000000001

>  <r_qp_QPlogS>  (736) 
-3.7749999999999999

>  <r_qp_QPpolrz>  (736) 
45.575000000000003

>  <r_qp_SASA>  (736) 
669.46299999999997

>  <r_qp_SAamideO>  (736) 
0

>  <r_qp_SAfluorine>  (736) 
0

>  <r_qp_WPSA>  (736) 
0

>  <r_qp_accptHB>  (736) 
5.25

>  <r_qp_dip^2/V>  (736) 
0.017793400000000001

>  <r_qp_dipole>  (736) 
4.9160000000000004

>  <r_qp_donorHB>  (736) 
2

>  <r_qp_glob>  (736) 
0.88589689999999999

>  <r_qp_mol_MW>  (736) 
426.56

>  <r_qp_volume>  (736) 
1358.0540000000001

>  <r_sd_BIOSOLVEIT.INFINISEE\_FTREES\_SIMILARITY>  (736) 
0.90700000000000003

>  <r_sd_BIOSOLVEIT.LOGP>  (736) 
3.9792999999999998

>  <r_sd_BIOSOLVEIT.MOLECULAR\_WEIGHT>  (736) 
427.56900000000002

>  <r_sd_BIOSOLVEIT.TPSA>  (736) 
62.479999999999997

>  <i_epik_Tot_Q>  (736) 
1

>  <i_epik_Tot_abs_Q>  (736) 
1

>  <i_f3d_flags>  (736) 
0

>  <i_i_glide_confnum>  (736) 
8

>  <i_i_glide_lignum>  (736) 
94

>  <i_i_glide_posenum>  (736) 
18

>  <i_i_glide_rotatable_bonds>  (736) 
9

>  <i_lp_mmshare_version>  (736) 
65135

>  <i_m_ct_format>  (736) 
2

>  <i_m_source_file_index>  (736) 
111

>  <i_qp_#NandO>  (736) 
5

>  <i_qp_#acid>  (736) 
0

>  <i_qp_#amide>  (736) 
0

>  <i_qp_#amidine>  (736) 
0

>  <i_qp_#amine>  (736) 
1

>  <i_qp_#in34>  (736) 
0

>  <i_qp_#in56>  (736) 
22

>  <i_qp_#metab>  (736) 
5

>  <i_qp_#nonHatm>  (736) 
32

>  <i_qp_#noncon>  (736) 
0

>  <i_qp_#ringatoms>  (736) 
22

>  <i_qp_#rotor>  (736) 
9

>  <i_qp_#rtvFG>  (736) 
0

>  <i_qp_#stars>  (736) 
0

>  <i_qp_CNS>  (736) 
1

>  <i_qp_HumanOralAbsorption>  (736) 
3

>  <i_qp_RuleOfFive>  (736) 
0

>  <i_qp_RuleOfThree>  (736) 
0

>  <i_sd_BIOSOLVEIT.INFINISEE\_RESULT\_RANK>  (736) 
59510

>  <i_sd_version>  (736) 
0

>  <b_lp_Chiralities_Consistent>  (736) 
1

>  <b_sd_chiral_flag>  (736) 
0

>  <canonical_id>  (736) 
ATP-HTVS-7317133B38FB

>  <compound_code>  (736) 
3522

>  <title>  (736) 
YAS_R006____OTV5753507____OTV1048435____OTV1000393

>  <variant>  (736) 
3522-8

>  <source_file>  (736) 
运行/运行/ATP-VSW/ATP-VSW-DOCK_HTVS_1-002_lib.maegz

>  <canonical_smiles>  (736) 
C[C@@H](Cc1ccccc1)c1nc(NC[C@H](c2ccc(O)cc2)[NH+](C)C)c2ccccc2n1

>  <scaffold>  (736) 
c1ccc(CCNc2nc(CCc3ccccc3)nc3ccccc23)cc1

>  <molecular_formula>  (736) 
C27H31N4O+

$$$$
ATP-HTVS-73425E104865
     RDKit          3D

 57 60  0  0  0  0  0  0  0  0999 V2000
  202.1089  181.1383  154.7122 O   0  0  0  0  0  0  0  0  0  0  0  0
  201.6349  180.4188  155.5926 C   0  0  0  0  0  0  0  0  0  0  0  0
  201.2307  180.8869  156.7827 N   0  0  0  0  0  0  0  0  0  0  0  0
  201.4223  182.2531  157.2605 C   0  0  1  0  0  0  0  0  0  0  0  0
  200.2381  182.7657  158.0357 C   0  0  0  0  0  0  0  0  0  0  0  0
  200.2383  183.5204  159.2486 C   0  0  0  0  0  0  0  0  0  0  0  0
  199.0104  183.8477  159.6245 N   0  0  0  0  0  0  0  0  0  0  0  0
  198.1862  183.2980  158.7078 N   0  0  0  0  0  0  0  0  0  0  0  0
  196.7814  183.4319  158.8224 C   0  0  0  0  0  0  0  0  0  0  0  0
  196.2221  184.6278  159.3224 C   0  0  0  0  0  0  0  0  0  0  0  0
  194.8259  184.7696  159.4235 C   0  0  0  0  0  0  0  0  0  0  0  0
  193.9811  183.7213  159.0177 C   0  0  0  0  0  0  0  0  0  0  0  0
  194.5315  182.5186  158.5341 C   0  0  0  0  0  0  0  0  0  0  0  0
  195.9286  182.3739  158.4358 C   0  0  0  0  0  0  0  0  0  0  0  0
  198.9086  182.6469  157.7314 C   0  0  0  0  0  0  0  0  0  0  0  0
  201.3665  183.9379  160.0838 C   0  0  0  0  0  0  0  0  0  0  0  0
  202.3589  183.0206  160.4884 C   0  0  0  0  0  0  0  0  0  0  0  0
  203.4259  183.4850  161.2825 C   0  0  0  0  0  0  0  0  0  0  0  0
  203.5532  184.7673  161.6760 N   0  0  0  0  0  0  0  0  0  0  0  0
  202.5979  185.6407  161.2936 C   0  0  0  0  0  0  0  0  0  0  0  0
  201.4937  185.2794  160.5005 C   0  0  0  0  0  0  0  0  0  0  0  0
  201.4762  178.9364  155.3734 C   0  0  0  0  0  0  0  0  0  0  0  0
  201.2328  178.0478  156.4505 C   0  0  0  0  0  0  0  0  0  0  0  0
  201.1376  176.6605  156.2280 C   0  0  0  0  0  0  0  0  0  0  0  0
  201.2788  176.1361  154.9284 C   0  0  0  0  0  0  0  0  0  0  0  0
  201.5181  177.0118  153.8504 C   0  0  0  0  0  0  0  0  0  0  0  0
  201.6153  178.4002  154.0723 C   0  0  0  0  0  0  0  0  0  0  0  0
  201.1623  174.6431  154.6844 C   0  0  1  0  0  0  0  0  0  0  0  0
  202.4837  173.9973  154.5108 N   0  0  2  0  0  0  0  0  0  0  0  0
  202.3745  172.6796  153.8459 C   0  0  2  0  0  0  0  0  0  0  0  0
  203.2742  173.9221  155.7618 C   0  0  2  0  0  0  0  0  0  0  0  0
  200.8386  180.2281  157.4362 H   0  0  0  0  0  0  0  0  0  0  0  0
  202.3292  182.2464  157.8595 H   0  0  0  0  0  0  0  0  0  0  0  0
  201.6353  182.9387  156.4393 H   0  0  0  0  0  0  0  0  0  0  0  0
  196.8657  185.4417  159.6209 H   0  0  0  0  0  0  0  0  0  0  0  0
  194.3999  185.6891  159.7943 H   0  0  0  0  0  0  0  0  0  0  0  0
  192.9114  183.8396  159.0851 H   0  0  0  0  0  0  0  0  0  0  0  0
  193.8823  181.7098  158.2304 H   0  0  0  0  0  0  0  0  0  0  0  0
  196.3338  181.4418  158.0670 H   0  0  0  0  0  0  0  0  0  0  0  0
  198.4205  182.1531  156.9067 H   0  0  0  0  0  0  0  0  0  0  0  0
  202.3048  181.9781  160.2078 H   0  0  0  0  0  0  0  0  0  0  0  0
  204.2032  182.8074  161.6042 H   0  0  0  0  0  0  0  0  0  0  0  0
  202.7229  186.6626  161.6261 H   0  0  0  0  0  0  0  0  0  0  0  0
  200.7578  186.0178  160.2146 H   0  0  0  0  0  0  0  0  0  0  0  0
  201.1472  178.4015  157.4667 H   0  0  0  0  0  0  0  0  0  0  0  0
  200.9603  176.0033  157.0676 H   0  0  0  0  0  0  0  0  0  0  0  0
  201.6298  176.6266  152.8455 H   0  0  0  0  0  0  0  0  0  0  0  0
  201.8183  179.0490  153.2310 H   0  0  0  0  0  0  0  0  0  0  0  0
  200.6139  174.1652  155.4963 H   0  0  0  0  0  0  0  0  0  0  0  0
  200.5710  174.5061  153.7780 H   0  0  0  0  0  0  0  0  0  0  0  0
  201.8087  171.9751  154.4585 H   0  0  0  0  0  0  0  0  0  0  0  0
  203.3654  172.2617  153.6609 H   0  0  0  0  0  0  0  0  0  0  0  0
  201.8759  172.7690  152.8796 H   0  0  0  0  0  0  0  0  0  0  0  0
  202.7673  173.3199  156.5158 H   0  0  0  0  0  0  0  0  0  0  0  0
  203.4455  174.9149  156.1774 H   0  0  0  0  0  0  0  0  0  0  0  0
  204.2507  173.4747  155.5724 H   0  0  0  0  0  0  0  0  0  0  0  0
  203.0025  174.5887  153.8769 H   0  0  0  0  0  0  0  0  0  0  0  0
  1  2  2  0
  2  3  1  0
  2 22  1  0
  3  4  1  0
  3 32  1  0
  4  5  1  0
  4 33  1  1
  4 34  1  0
  5  6  1  0
  5 15  2  0
  6  7  2  0
  6 16  1  0
  7  8  1  0
  8  9  1  0
  8 15  1  0
  9 10  2  0
  9 14  1  0
 10 11  1  0
 10 35  1  0
 11 12  2  0
 11 36  1  0
 12 13  1  0
 12 37  1  0
 13 14  2  0
 13 38  1  0
 14 39  1  0
 15 40  1  0
 16 17  2  0
 16 21  1  0
 17 18  1  0
 17 41  1  0
 18 19  2  0
 18 42  1  0
 19 20  1  0
 20 21  2  0
 20 43  1  0
 21 44  1  0
 22 23  1  0
 22 27  2  0
 23 24  2  0
 23 45  1  0
 24 25  1  0
 24 46  1  0
 25 26  2  0
 25 28  1  0
 26 27  1  0
 26 47  1  0
 27 48  1  0
 28 29  1  0
 28 49  1  1
 28 50  1  0
 29 30  1  0
 29 31  1  0
 29 57  1  6
 30 51  1  1
 30 52  1  0
 30 53  1  0
 31 54  1  1
 31 55  1  0
 31 56  1  0
M  CHG  1  29   1
M  END
>  <s_epik_cmdline>  (737) 
J2VwaWtfcHl0aG9uJywgJy1waCcsICc3LjAwMDAwMCcsICctcGh0JywgJzIuMDAwMDAwJywgJy1tcycsICcxNicsICctdG4nLCAnOCcsICctbWEnLCAnMjAwJywgJy1pbWFlJywgJzxpbmZpbGUubWFlPicsICctb21hZScsICc8b3V0ZmlsZS5tYWU+Jw==

>  <s_epik_input>  (737) 
W0NIM11OKFtDSDNdKVtDSDJdYyhbY0hdW2NIXTEpW2NIXVtjSF1jMUMoPU8pW05IXVtDSDJdYzJjKC1jM1tjSF1bY0hdbltjSF1bY0hdMylubihbY0hdMiktYzRbY0hdW2NIXVtjSF1bY0hdW2NIXTQ=

>  <s_i_glide_gridfile>  (737) 
ATP-Grid

>  <s_lp_Force_Field>  (737) 
OPLS_2005

>  <s_lp_Variant>  (737) 
a1____269872____134-1

>  <s_lp_label>  (737) 
557_sdstereoexpander_1_neutralizer_1_epik_1_stereoizer_1

>  <s_m_source_file>  (737) 
ATP-VSW-LIGPREP-002-in.maegz

>  <s_sd_BIOSOLVEIT.INFINISEE\_QUERY\_NAME>  (737) 
Ref-Lig

>  <s_sd_BIOSOLVEIT.INFINISEE\_QUERY\_SMILES>  (737) 
S(c1nc2c(cc1C[NH2+]Cc3ccc(cc3)C[NH+](C)C)cccc2)Cc4ccccc4

>  <s_sd_BIOSOLVEIT.INFINISEE\_REACTION\_NAME>  (737) 
a1

>  <s_sd_BIOSOLVEIT.INFINISEE\_REAGENT1\_SMILES>  (737) 
[R1*]NCC=1C(=NN(c2ccccc2)C1)c3ccncc3

>  <s_sd_BIOSOLVEIT.INFINISEE\_REAGENT2\_SMILES>  (737) 
[R1*]C(=O)c1ccc(cc1)CN(C)C

>  <s_sd_BIOSOLVEIT.INFINISEE\_SPACE>  (737) 
FreedomSpace_5bn_2023-06

>  <s_vsw_compound_code>  (737) 
17794

>  <s_vsw_variant>  (737) 
17794-1

>  <r_epik_Charging_Adjusted_Penalty>  (737) 
0.111094614012498

>  <r_epik_Ionization_Penalty>  (737) 
0.0579

>  <r_epik_Ionization_Penalty_Charging>  (737) 
0.053199999999999997

>  <r_epik_Ionization_Penalty_Neutral>  (737) 
0.0047000000000000002

>  <r_epik_State_Penalty>  (737) 
0.0579

>  <r_i_docking_score>  (737) 
-4.2849913855553403

>  <r_i_glide_ecoul>  (737) 
-5.0484728813171396

>  <r_i_glide_eff_state_penalty>  (737) 
0.0579

>  <r_i_glide_einternal>  (737) 
4.22369337081909

>  <r_i_glide_emodel>  (737) 
-51.800586379844802

>  <r_i_glide_energy>  (737) 
-39.5137362480164

>  <r_i_glide_erotb>  (737) 
0.81121001595873299

>  <r_i_glide_esite>  (737) 
-0.00014170209252329399

>  <r_i_glide_evdw>  (737) 
-34.465263366699197

>  <r_i_glide_gscore>  (737) 
-4.3428913855553404

>  <r_i_glide_hbond>  (737) 
0

>  <r_i_glide_ligand_efficiency>  (737) 
-0.13822552856630099

>  <r_i_glide_ligand_efficiency_ln>  (737) 
-0.96639687665785501

>  <r_i_glide_ligand_efficiency_sa>  (737) 
-0.43421900060771801

>  <r_i_glide_lipo>  (737) 
-1.99730779049143

>  <r_i_glide_metal>  (737) 
-0

>  <r_i_glide_rewards>  (737) 
-0.67611780839758795

>  <r_lp_Energy>  (737) 
19.572075000000002

>  <r_lp_tautomer_probability>  (737) 
1

>  <r_qp_ACxDN^.5/SA>  (737) 
0.0088655000000000001

>  <r_qp_CIQPlogS>  (737) 
-5.1070000000000002

>  <r_qp_EA(eV)>  (737) 
0.69999999999999996

>  <r_qp_FISA>  (737) 
84.210999999999999

>  <r_qp_FOSA>  (737) 
212.65000000000001

>  <r_qp_IP(eV)>  (737) 
8.9049999999999994

>  <r_qp_Jm>  (737) 
0.000537556821004409

>  <r_qp_PISA>  (737) 
492.71600000000001

>  <r_qp_PSA>  (737) 
68.578999999999994

>  <r_qp_PercentHumanOralAbsorption>  (737) 
100

>  <r_qp_QPPCaco>  (737) 
392.85000000000002

>  <r_qp_QPPMDCK>  (737) 
199.35900000000001

>  <r_qp_QPlogBB>  (737) 
-0.30299999999999999

>  <r_qp_QPlogHERG>  (737) 
-8.4359999999999999

>  <r_qp_QPlogKhsa>  (737) 
0.77200000000000002

>  <r_qp_QPlogKp>  (737) 
-2.9180000000000001

>  <r_qp_QPlogPC16>  (737) 
15.664999999999999

>  <r_qp_QPlogPo/w>  (737) 
4.5250000000000004

>  <r_qp_QPlogPoct>  (737) 
23.065999999999999

>  <r_qp_QPlogPw>  (737) 
12.800000000000001

>  <r_qp_QPlogS>  (737) 
-5.9660000000000002

>  <r_qp_QPpolrz>  (737) 
51.029000000000003

>  <r_qp_SASA>  (737) 
789.577

>  <r_qp_SAamideO>  (737) 
0

>  <r_qp_SAfluorine>  (737) 
0

>  <r_qp_WPSA>  (737) 
0

>  <r_qp_accptHB>  (737) 
7

>  <r_qp_dip^2/V>  (737) 
0.061781299999999997

>  <r_qp_dipole>  (737) 
9.2720000000000002

>  <r_qp_donorHB>  (737) 
1

>  <r_qp_glob>  (737) 
0.76341130000000001

>  <r_qp_mol_MW>  (737) 
411.505

>  <r_qp_volume>  (737) 
1391.4970000000001

>  <r_sd_BIOSOLVEIT.INFINISEE\_FTREES\_SIMILARITY>  (737) 
0.90200000000000002

>  <r_sd_BIOSOLVEIT.LOGP>  (737) 
2.5087999999999999

>  <r_sd_BIOSOLVEIT.MOLECULAR\_WEIGHT>  (737) 
412.51400000000001

>  <r_sd_BIOSOLVEIT.TPSA>  (737) 
64.25

>  <i_epik_Tot_Q>  (737) 
1

>  <i_epik_Tot_abs_Q>  (737) 
1

>  <i_f3d_flags>  (737) 
0

>  <i_i_glide_confnum>  (737) 
3

>  <i_i_glide_lignum>  (737) 
161

>  <i_i_glide_posenum>  (737) 
12

>  <i_i_glide_rotatable_bonds>  (737) 
8

>  <i_lp_mmshare_version>  (737) 
65135

>  <i_m_ct_format>  (737) 
2

>  <i_m_source_file_index>  (737) 
557

>  <i_qp_#NandO>  (737) 
6

>  <i_qp_#acid>  (737) 
0

>  <i_qp_#amide>  (737) 
0

>  <i_qp_#amidine>  (737) 
0

>  <i_qp_#amine>  (737) 
1

>  <i_qp_#in34>  (737) 
0

>  <i_qp_#in56>  (737) 
23

>  <i_qp_#metab>  (737) 
5

>  <i_qp_#nonHatm>  (737) 
31

>  <i_qp_#noncon>  (737) 
0

>  <i_qp_#ringatoms>  (737) 
23

>  <i_qp_#rotor>  (737) 
5

>  <i_qp_#rtvFG>  (737) 
0

>  <i_qp_#stars>  (737) 
1

>  <i_qp_CNS>  (737) 
1

>  <i_qp_HumanOralAbsorption>  (737) 
3

>  <i_qp_RuleOfFive>  (737) 
0

>  <i_qp_RuleOfThree>  (737) 
1

>  <i_sd_BIOSOLVEIT.INFINISEE\_REAGENT1\_NAME>  (737) 
269872

>  <i_sd_BIOSOLVEIT.INFINISEE\_REAGENT2\_NAME>  (737) 
134

>  <i_sd_BIOSOLVEIT.INFINISEE\_RESULT\_RANK>  (737) 
86625

>  <i_sd_version>  (737) 
0

>  <b_lp_Chiralities_Consistent>  (737) 
1

>  <b_sd_chiral_flag>  (737) 
0

>  <canonical_id>  (737) 
ATP-HTVS-73425E104865

>  <compound_code>  (737) 
17794

>  <title>  (737) 
a1____269872____134

>  <variant>  (737) 
17794-1

>  <source_file>  (737) 
运行/运行/ATP-VSW/ATP-VSW-DOCK_HTVS_1-002_lib.maegz

>  <canonical_smiles>  (737) 
C[NH+](C)Cc1ccc(C(=O)NCc2cn(-c3ccccc3)nc2-c2ccncc2)cc1

>  <scaffold>  (737) 
O=C(NCc1cn(-c2ccccc2)nc1-c1ccncc1)c1ccccc1

>  <molecular_formula>  (737) 
C25H26N5O+

$$$$
ATP-HTVS-736CCC940701
     RDKit          3D

 59 62  0  0  0  0  0  0  0  0999 V2000
  201.1082  182.0747  154.5768 O   0  0  0  0  0  0  0  0  0  0  0  0
  200.1851  181.6461  155.2694 C   0  0  0  0  0  0  0  0  0  0  0  0
  199.3275  180.6999  154.8576 N   0  0  0  0  0  0  0  0  0  0  0  0
  199.2371  180.1931  153.4963 C   0  0  1  0  0  0  0  0  0  0  0  0
  199.6241  178.7816  153.3912 C   0  0  0  0  0  0  0  0  0  0  0  0
  199.9460  177.6098  153.2873 C   0  0  0  0  0  0  0  0  0  0  0  0
  200.3642  176.2252  153.1753 C   0  0  0  0  0  0  0  0  0  0  0  0
  199.8766  175.3706  152.1497 C   0  0  0  0  0  0  0  0  0  0  0  0
  200.3253  174.0359  152.1151 C   0  0  0  0  0  0  0  0  0  0  0  0
  201.2334  173.5393  153.0645 C   0  0  0  0  0  0  0  0  0  0  0  0
  201.6264  172.2357  152.9883 O   0  0  0  0  0  0  0  0  0  0  0  0
  201.7223  174.3907  154.0713 C   0  0  0  0  0  0  0  0  0  0  0  0
  201.2897  175.7261  154.1226 C   0  0  0  0  0  0  0  0  0  0  0  0
  198.8752  175.8300  151.0855 C   0  0  1  0  0  0  0  0  0  0  0  0
  199.5408  176.1509  149.7986 N   0  0  1  0  0  0  0  0  0  0  0  0
  198.5752  176.3623  148.6934 C   0  0  2  0  0  0  0  0  0  0  0  0
  200.5013  177.2762  149.9050 C   0  0  2  0  0  0  0  0  0  0  0  0
  199.9195  182.1913  156.6474 C   0  0  0  0  0  0  0  0  0  0  0  0
  200.9425  182.4514  157.6045 C   0  0  0  0  0  0  0  0  0  0  0  0
  200.5648  183.0629  158.8372 C   0  0  0  0  0  0  0  0  0  0  0  0
  199.2892  183.4082  159.1112 N   0  0  0  0  0  0  0  0  0  0  0  0
  198.3098  183.1301  158.2253 C   0  0  0  0  0  0  0  0  0  0  0  0
  196.9346  183.4924  158.6360 C   0  0  0  0  0  0  0  0  0  0  0  0
  196.7039  184.5909  159.4975 C   0  0  0  0  0  0  0  0  0  0  0  0
  195.4007  184.9595  159.8801 C   0  0  0  0  0  0  0  0  0  0  0  0
  194.2967  184.2363  159.3971 C   0  0  0  0  0  0  0  0  0  0  0  0
  194.5025  183.1373  158.5438 C   0  0  0  0  0  0  0  0  0  0  0  0
  195.8091  182.7640  158.1757 C   0  0  0  0  0  0  0  0  0  0  0  0
  198.5916  182.5306  156.9833 C   0  0  0  0  0  0  0  0  0  0  0  0
  201.5516  183.3099  159.8140 C   0  0  0  0  0  0  0  0  0  0  0  0
  202.8998  182.9861  159.5851 C   0  0  0  0  0  0  0  0  0  0  0  0
  203.2770  182.4006  158.3643 C   0  0  0  0  0  0  0  0  0  0  0  0
  202.3051  182.1257  157.3855 C   0  0  0  0  0  0  0  0  0  0  0  0
  198.6412  180.3698  155.5233 H   0  0  0  0  0  0  0  0  0  0  0  0
  198.2070  180.2861  153.1616 H   0  0  0  0  0  0  0  0  0  0  0  0
  199.8453  180.7627  152.7937 H   0  0  0  0  0  0  0  0  0  0  0  0
  199.9689  173.3675  151.3457 H   0  0  0  0  0  0  0  0  0  0  0  0
  202.2448  171.9102  153.6405 H   0  0  0  0  0  0  0  0  0  0  0  0
  202.4282  174.0329  154.8064 H   0  0  0  0  0  0  0  0  0  0  0  0
  201.6667  176.3822  154.8981 H   0  0  0  0  0  0  0  0  0  0  0  0
  198.1555  175.0236  150.9370 H   0  0  0  0  0  0  0  0  0  0  0  0
  198.2803  176.6887  151.4001 H   0  0  0  0  0  0  0  0  0  0  0  0
  197.9074  177.1979  148.9124 H   0  0  0  0  0  0  0  0  0  0  0  0
  197.9674  175.4711  148.5277 H   0  0  0  0  0  0  0  0  0  0  0  0
  199.1008  176.5839  147.7618 H   0  0  0  0  0  0  0  0  0  0  0  0
  199.9862  178.1905  150.1981 H   0  0  0  0  0  0  0  0  0  0  0  0
  201.0071  177.4624  148.9572 H   0  0  0  0  0  0  0  0  0  0  0  0
  201.2795  177.0790  150.6421 H   0  0  0  0  0  0  0  0  0  0  0  0
  197.5369  185.1660  159.8741 H   0  0  0  0  0  0  0  0  0  0  0  0
  195.2488  185.8099  160.5279 H   0  0  0  0  0  0  0  0  0  0  0  0
  193.2930  184.5253  159.6754 H   0  0  0  0  0  0  0  0  0  0  0  0
  193.6587  182.5789  158.1619 H   0  0  0  0  0  0  0  0  0  0  0  0
  195.9311  181.9129  157.5193 H   0  0  0  0  0  0  0  0  0  0  0  0
  197.7916  182.3653  156.2782 H   0  0  0  0  0  0  0  0  0  0  0  0
  201.2608  183.7495  160.7584 H   0  0  0  0  0  0  0  0  0  0  0  0
  203.6448  183.1929  160.3406 H   0  0  0  0  0  0  0  0  0  0  0  0
  204.3127  182.1585  158.1766 H   0  0  0  0  0  0  0  0  0  0  0  0
  202.6388  181.6679  156.4663 H   0  0  0  0  0  0  0  0  0  0  0  0
  200.0755  175.3310  149.5545 H   0  0  0  0  0  0  0  0  0  0  0  0
  1  2  2  0
  2  3  1  0
  2 18  1  0
  3  4  1  0
  3 34  1  0
  4  5  1  0
  4 35  1  6
  4 36  1  0
  5  6  3  0
  6  7  1  0
  7  8  2  0
  7 13  1  0
  8  9  1  0
  8 14  1  0
  9 10  2  0
  9 37  1  0
 10 11  1  0
 10 12  1  0
 11 38  1  0
 12 13  2  0
 12 39  1  0
 13 40  1  0
 14 15  1  0
 14 41  1  6
 14 42  1  0
 15 16  1  0
 15 17  1  0
 15 59  1  6
 16 43  1  1
 16 44  1  0
 16 45  1  0
 17 46  1  1
 17 47  1  0
 17 48  1  0
 18 19  1  0
 18 29  2  0
 19 20  1  0
 19 33  2  0
 20 21  1  0
 20 30  2  0
 21 22  2  0
 22 23  1  0
 22 29  1  0
 23 24  2  0
 23 28  1  0
 24 25  1  0
 24 49  1  0
 25 26  2  0
 25 50  1  0
 26 27  1  0
 26 51  1  0
 27 28  2  0
 27 52  1  0
 28 53  1  0
 29 54  1  0
 30 31  1  0
 30 55  1  0
 31 32  2  0
 31 56  1  0
 32 33  1  0
 32 57  1  0
 33 58  1  0
M  CHG  1  15   1
M  END
>  <s_epik_cmdline>  (738) 
J2VwaWtfcHl0aG9uJywgJy1waCcsICc3LjAwMDAwMCcsICctcGh0JywgJzIuMDAwMDAwJywgJy1tcycsICcxNicsICctdG4nLCAnOCcsICctbWEnLCAnMjAwJywgJy1pbWFlJywgJzxpbmZpbGUubWFlPicsICctb21hZScsICc8b3V0ZmlsZS5tYWU+Jw==

>  <s_epik_input>  (738) 
W2NIXTFbY0hdW2NIXVtjSF1bY0hdYzEtYyhuYyhjMjMpW2NIXVtjSF1bY0hdW2NIXTMpW2NIXWMyQyg9TylbTkhdW0NIMl1DI0NjNGMoW0NIMl1OKFtDSDNdKVtDSDNdKVtjSF1jKFtPSF0pW2NIXVtjSF00

>  <s_i_glide_gridfile>  (738) 
ATP-Grid

>  <s_lp_Force_Field>  (738) 
OPLS_2005

>  <s_lp_Variant>  (738) 
rxn505b____EMOL487485____EMOL531122____EMOL12033097-1

>  <s_lp_label>  (738) 
2746_sdstereoexpander_1_neutralizer_1_epik_1_stereoizer_1

>  <s_m_source_file>  (738) 
ATP-VSW-LIGPREP-001-in.maegz

>  <s_sd_BIOSOLVEIT.INFINISEE\_QUERY\_NAME>  (738) 
Ref-Lig

>  <s_sd_BIOSOLVEIT.INFINISEE\_QUERY\_SMILES>  (738) 
S(c1nc2c(cc1C[NH2+]Cc3ccc(cc3)C[NH+](C)C)cccc2)Cc4ccccc4

>  <s_sd_BIOSOLVEIT.INFINISEE\_REACTION\_NAME>  (738) 
rxn505b

>  <s_sd_BIOSOLVEIT.INFINISEE\_REAGENT1\_NAME>  (738) 
EMOL487485

>  <s_sd_BIOSOLVEIT.INFINISEE\_REAGENT1\_SMILES>  (738) 
O=C(O)c1c2c(nc(c3ccccc3)c1)cccc2

>  <s_sd_BIOSOLVEIT.INFINISEE\_REAGENT2\_NAME>  (738) 
EMOL531122

>  <s_sd_BIOSOLVEIT.INFINISEE\_REAGENT2\_SMILES>  (738) 
NCC#C

>  <s_sd_BIOSOLVEIT.INFINISEE\_REAGENT3\_NAME>  (738) 
EMOL12033097

>  <s_sd_BIOSOLVEIT.INFINISEE\_REAGENT3\_SMILES>  (738) 
Brc1c(cc(O)cc1)CN(C)C

>  <s_sd_BIOSOLVEIT.INFINISEE\_SPACE>  (738) 
eXplore_7tr_2022-12

>  <s_vsw_compound_code>  (738) 
87841

>  <s_vsw_variant>  (738) 
87841-1

>  <r_epik_Charging_Adjusted_Penalty>  (738) 
0.117479370392368

>  <r_epik_Ionization_Penalty>  (738) 
0.067400000000000002

>  <r_epik_Ionization_Penalty_Charging>  (738) 
0.051400000000000001

>  <r_epik_Ionization_Penalty_Neutral>  (738) 
0.016

>  <r_epik_State_Penalty>  (738) 
0.066100000000000006

>  <r_i_docking_score>  (738) 
-4.6301825098683196

>  <r_i_glide_ecoul>  (738) 
-7.4682593345642099

>  <r_i_glide_eff_state_penalty>  (738) 
0.066100000000000006

>  <r_i_glide_einternal>  (738) 
2.5254757404327401

>  <r_i_glide_emodel>  (738) 
-55.943779532119798

>  <r_i_glide_energy>  (738) 
-41.112035274505601

>  <r_i_glide_erotb>  (738) 
0.73225972538924

>  <r_i_glide_esite>  (738) 
-0.0064532055013251204

>  <r_i_glide_evdw>  (738) 
-33.643775939941399

>  <r_i_glide_gscore>  (738) 
-4.6962825098683201

>  <r_i_glide_hbond>  (738) 
-0.111820160250337

>  <r_i_glide_ligand_efficiency>  (738) 
-0.14030856090510099

>  <r_i_glide_ligand_efficiency_ln>  (738) 
-1.0297286163927299

>  <r_i_glide_ligand_efficiency_sa>  (738) 
-0.45004452537089201

>  <r_i_glide_lipo>  (738) 
-2.0750566723241999

>  <r_i_glide_metal>  (738) 
-0

>  <r_i_glide_rewards>  (738) 
-0.43278449999999902

>  <r_lp_Energy>  (738) 
28.695330999999999

>  <r_qp_ACxDN^.5/SA>  (738) 
0.010873300000000001

>  <r_qp_CIQPlogS>  (738) 
-5.7789999999999999

>  <r_qp_EA(eV)>  (738) 
1.208

>  <r_qp_FISA>  (738) 
107.17100000000001

>  <r_qp_FOSA>  (738) 
211.87799999999999

>  <r_qp_IP(eV)>  (738) 
8.907

>  <r_qp_Jm>  (738) 
0.00030105038385837599

>  <r_qp_PISA>  (738) 
493.84699999999998

>  <r_qp_PSA>  (738) 
73.626999999999995

>  <r_qp_PercentHumanOralAbsorption>  (738) 
100

>  <r_qp_QPPCaco>  (738) 
237.95699999999999

>  <r_qp_QPPMDCK>  (738) 
115.95699999999999

>  <r_qp_QPlogBB>  (738) 
-0.745

>  <r_qp_QPlogHERG>  (738) 
-8.4359999999999999

>  <r_qp_QPlogKhsa>  (738) 
0.93100000000000005

>  <r_qp_QPlogKp>  (738) 
-3.0499999999999998

>  <r_qp_QPlogPC16>  (738) 
16.661999999999999

>  <r_qp_QPlogPo/w>  (738) 
4.9329999999999998

>  <r_qp_QPlogPoct>  (738) 
23.667999999999999

>  <r_qp_QPlogPw>  (738) 
13.084

>  <r_qp_QPlogS>  (738) 
-6.1109999999999998

>  <r_qp_QPpolrz>  (738) 
51.639000000000003

>  <r_qp_SASA>  (738) 
812.89599999999996

>  <r_qp_SAamideO>  (738) 
0

>  <r_qp_SAfluorine>  (738) 
0

>  <r_qp_WPSA>  (738) 
0

>  <r_qp_accptHB>  (738) 
6.25

>  <r_qp_dip^2/V>  (738) 
0.010989000000000001

>  <r_qp_dipole>  (738) 
3.9980000000000002

>  <r_qp_donorHB>  (738) 
2

>  <r_qp_glob>  (738) 
0.76376630000000001

>  <r_qp_mol_MW>  (738) 
435.524

>  <r_qp_volume>  (738) 
1454.607

>  <r_sd_BIOSOLVEIT.INFINISEE\_FTREES\_SIMILARITY>  (738) 
0.90700000000000003

>  <r_sd_BIOSOLVEIT.LOGP>  (738) 
3.0333999999999999

>  <r_sd_BIOSOLVEIT.MOLECULAR\_WEIGHT>  (738) 
436.53199999999998

>  <r_sd_BIOSOLVEIT.TPSA>  (738) 
66.659999999999997

>  <i_epik_Tot_Q>  (738) 
1

>  <i_epik_Tot_abs_Q>  (738) 
1

>  <i_f3d_flags>  (738) 
0

>  <i_i_glide_confnum>  (738) 
4

>  <i_i_glide_lignum>  (738) 
1224

>  <i_i_glide_posenum>  (738) 
11

>  <i_i_glide_rotatable_bonds>  (738) 
9

>  <i_lp_mmshare_version>  (738) 
65135

>  <i_m_ct_format>  (738) 
2

>  <i_m_source_file_index>  (738) 
2746

>  <i_qp_#NandO>  (738) 
5

>  <i_qp_#acid>  (738) 
0

>  <i_qp_#amide>  (738) 
0

>  <i_qp_#amidine>  (738) 
0

>  <i_qp_#amine>  (738) 
1

>  <i_qp_#in34>  (738) 
0

>  <i_qp_#in56>  (738) 
22

>  <i_qp_#metab>  (738) 
4

>  <i_qp_#nonHatm>  (738) 
33

>  <i_qp_#noncon>  (738) 
0

>  <i_qp_#ringatoms>  (738) 
22

>  <i_qp_#rotor>  (738) 
8

>  <i_qp_#rtvFG>  (738) 
0

>  <i_qp_#stars>  (738) 
1

>  <i_qp_CNS>  (738) 
0

>  <i_qp_HumanOralAbsorption>  (738) 
3

>  <i_qp_RuleOfFive>  (738) 
0

>  <i_qp_RuleOfThree>  (738) 
1

>  <i_sd_BIOSOLVEIT.INFINISEE\_RESULT\_RANK>  (738) 
57658

>  <i_sd_version>  (738) 
0

>  <b_lp_Chiralities_Consistent>  (738) 
1

>  <b_sd_chiral_flag>  (738) 
0

>  <canonical_id>  (738) 
ATP-HTVS-736CCC940701

>  <compound_code>  (738) 
87841

>  <title>  (738) 
rxn505b____EMOL487485____EMOL531122____EMOL12033097

>  <variant>  (738) 
87841-1

>  <source_file>  (738) 
运行/运行/ATP-VSW/ATP-VSW-DOCK_HTVS_1-001_lib/ATP-VSW-DOCK_HTVS_1-001_lib

>  <canonical_smiles>  (738) 
C[NH+](C)Cc1cc(O)ccc1C#CCNC(=O)c1cc(-c2ccccc2)nc2ccccc12

>  <scaffold>  (738) 
O=C(NCC#Cc1ccccc1)c1cc(-c2ccccc2)nc2ccccc12

>  <molecular_formula>  (738) 
C28H26N3O2+

$$$$
ATP-HTVS-738A9E09AC53
     RDKit          3D

 53 56  0  0  0  0  0  0  0  0999 V2000
  198.7736  185.8374  148.6956 F   0  0  0  0  0  0  0  0  0  0  0  0
  198.2258  185.0794  149.6750 C   0  0  0  0  0  0  0  0  0  0  0  0
  198.4485  185.4094  151.0262 C   0  0  0  0  0  0  0  0  0  0  0  0
  197.8987  184.6116  152.0488 C   0  0  0  0  0  0  0  0  0  0  0  0
  197.1247  183.4755  151.7221 C   0  0  0  0  0  0  0  0  0  0  0  0
  196.8962  183.1567  150.3684 C   0  0  0  0  0  0  0  0  0  0  0  0
  197.4449  183.9554  149.3445 C   0  0  0  0  0  0  0  0  0  0  0  0
  196.5242  182.6168  152.8212 C   0  0  1  0  0  0  0  0  0  0  0  0
  197.4218  181.4193  153.1453 C   0  0  0  0  0  0  0  0  0  0  0  0
  197.5703  180.5350  152.3008 O   0  0  0  0  0  0  0  0  0  0  0  0
  198.0008  181.4410  154.3574 N   0  0  0  0  0  0  0  0  0  0  0  0
  198.7931  180.4458  155.0029 C   0  0  0  0  0  0  0  0  0  0  0  0
  199.0060  179.2197  154.4683 N   0  0  0  0  0  0  0  0  0  0  0  0
  199.7508  178.3021  155.1238 C   0  0  0  0  0  0  0  0  0  0  0  0
  200.3438  178.5931  156.3737 C   0  0  0  0  0  0  0  0  0  0  0  0
  200.1256  179.8542  156.9367 C   0  0  0  0  0  0  0  0  0  0  0  0
  199.3296  180.8205  156.2746 C   0  0  0  0  0  0  0  0  0  0  0  0
  199.1234  182.0854  156.8766 N   0  0  0  0  0  0  0  0  0  0  0  0
  197.9397  182.5016  157.5482 C   0  0  0  0  0  0  0  0  0  0  0  0
  196.7000  181.8515  157.2915 C   0  0  0  0  0  0  0  0  0  0  0  0
  195.5273  182.2305  157.9858 C   0  0  0  0  0  0  0  0  0  0  0  0
  195.5612  183.2265  158.9684 C   0  0  0  0  0  0  0  0  0  0  0  0
  196.7731  183.8775  159.2412 C   0  0  0  0  0  0  0  0  0  0  0  0
  197.9288  183.5520  158.5075 C   0  0  0  0  0  0  0  0  0  0  0  0
  200.3469  182.9189  156.9980 C   0  0  1  0  0  0  0  0  0  0  0  0
  200.0847  184.3172  156.5917 C   0  0  0  0  0  0  0  0  0  0  0  0
  199.8642  185.4024  156.2760 N   0  0  0  0  0  0  0  0  0  0  0  0
  201.1102  182.8021  158.3489 C   0  0  2  0  0  0  0  0  0  0  0  0
  201.1364  177.6402  157.0511 C   0  0  0  0  0  0  0  0  0  0  0  0
  201.3448  176.3697  156.4826 C   0  0  0  0  0  0  0  0  0  0  0  0
  200.7625  176.0676  155.2397 C   0  0  0  0  0  0  0  0  0  0  0  0
  199.9848  177.0288  154.5640 C   0  0  0  0  0  0  0  0  0  0  0  0
  199.0466  186.2747  151.2760 H   0  0  0  0  0  0  0  0  0  0  0  0
  198.0751  184.8735  153.0821 H   0  0  0  0  0  0  0  0  0  0  0  0
  196.3108  182.2857  150.1163 H   0  0  0  0  0  0  0  0  0  0  0  0
  197.2757  183.7029  148.3076 H   0  0  0  0  0  0  0  0  0  0  0  0
  196.3477  183.2212  153.7112 H   0  0  0  0  0  0  0  0  0  0  0  0
  195.5523  182.2377  152.5052 H   0  0  0  0  0  0  0  0  0  0  0  0
  197.8218  182.2446  154.9362 H   0  0  0  0  0  0  0  0  0  0  0  0
  200.5531  180.0426  157.9033 H   0  0  0  0  0  0  0  0  0  0  0  0
  196.6152  181.0504  156.5795 H   0  0  0  0  0  0  0  0  0  0  0  0
  194.5908  181.7384  157.7369 H   0  0  0  0  0  0  0  0  0  0  0  0
  194.6683  183.5055  159.5126 H   0  0  0  0  0  0  0  0  0  0  0  0
  196.8435  184.6440  159.9959 H   0  0  0  0  0  0  0  0  0  0  0  0
  198.7912  184.1576  158.7346 H   0  0  0  0  0  0  0  0  0  0  0  0
  201.0134  182.5946  156.2074 H   0  0  0  0  0  0  0  0  0  0  0  0
  202.0288  183.3905  158.2998 H   0  0  0  0  0  0  0  0  0  0  0  0
  201.4382  181.7890  158.5757 H   0  0  0  0  0  0  0  0  0  0  0  0
  200.5735  183.1364  159.2292 H   0  0  0  0  0  0  0  0  0  0  0  0
  201.5973  177.8784  157.9987 H   0  0  0  0  0  0  0  0  0  0  0  0
  201.9601  175.6420  156.9950 H   0  0  0  0  0  0  0  0  0  0  0  0
  200.9259  175.0938  154.7974 H   0  0  0  0  0  0  0  0  0  0  0  0
  199.5591  176.7895  153.6044 H   0  0  0  0  0  0  0  0  0  0  0  0
  1  2  1  0
  2  3  1  0
  2  7  2  0
  3  4  2  0
  3 33  1  0
  4  5  1  0
  4 34  1  0
  5  6  2  0
  5  8  1  0
  6  7  1  0
  6 35  1  0
  7 36  1  0
  8  9  1  0
  8 37  1  1
  8 38  1  0
  9 10  2  0
  9 11  1  0
 11 12  1  0
 11 39  1  0
 12 13  2  0
 12 17  1  0
 13 14  1  0
 14 15  1  0
 14 32  2  0
 15 16  1  0
 15 29  2  0
 16 17  2  0
 16 40  1  0
 17 18  1  0
 18 19  1  0
 18 25  1  0
 19 20  2  0
 19 24  1  0
 20 21  1  0
 20 41  1  0
 21 22  2  0
 21 42  1  0
 22 23  1  0
 22 43  1  0
 23 24  2  0
 23 44  1  0
 24 45  1  0
 25 26  1  0
 25 28  1  0
 25 46  1  6
 26 27  3  0
 28 47  1  6
 28 48  1  0
 28 49  1  0
 29 30  1  0
 29 50  1  0
 30 31  2  0
 30 51  1  0
 31 32  1  0
 31 52  1  0
 32 53  1  0
M  END
>  <s_epik_cmdline>  (739) 
J2VwaWtfcHl0aG9uJywgJy1waCcsICc3LjAwMDAwMCcsICctcGh0JywgJzIuMDAwMDAwJywgJy1tcycsICcxNicsICctdG4nLCAnOCcsICctbWEnLCAnMjAwJywgJy1pbWFlJywgJzxpbmZpbGUubWFlPicsICctb21hZScsICc8b3V0ZmlsZS5tYWU+Jw==

>  <s_epik_input>  (739) 
RmMxW2NIXVtjSF1jKFtjSF1bY0hdMSlbQ0gyXUMoPU8pW05IXWMobjIpYyhbY0hdYyhjMjMpW2NIXVtjSF1bY0hdW2NIXTMpTihbQ0BASF0oQyNOKVtDSDNdKWM0W2NIXVtjSF1bY0hdW2NIXVtjSF00

>  <s_i_glide_gridfile>  (739) 
ATP-Grid

>  <s_lp_Force_Field>  (739) 
OPLS_2005

>  <s_lp_Variant>  (739) 
rxn502b____EMOL512495____EMOL44466703____EMOL36790511-1

>  <s_lp_label>  (739) 
2376_sdstereoexpander_1_neutralizer_1_epik_1_stereoizer_1

>  <s_m_source_file>  (739) 
ATP-VSW-LIGPREP-002-in.maegz

>  <s_sd_BIOSOLVEIT.INFINISEE\_QUERY\_NAME>  (739) 
Ref-Lig

>  <s_sd_BIOSOLVEIT.INFINISEE\_QUERY\_SMILES>  (739) 
S(c1nc2c(cc1C[NH2+]Cc3ccc(cc3)C[NH+](C)C)cccc2)Cc4ccccc4

>  <s_sd_BIOSOLVEIT.INFINISEE\_REACTION\_NAME>  (739) 
rxn502b

>  <s_sd_BIOSOLVEIT.INFINISEE\_REAGENT1\_NAME>  (739) 
EMOL512495

>  <s_sd_BIOSOLVEIT.INFINISEE\_REAGENT1\_SMILES>  (739) 
Fc1ccc(cc1)CC(=O)O

>  <s_sd_BIOSOLVEIT.INFINISEE\_REAGENT2\_NAME>  (739) 
EMOL44466703

>  <s_sd_BIOSOLVEIT.INFINISEE\_REAGENT2\_SMILES>  (739) 
Brc1c(nc2c(c1)cccc2)N

>  <s_sd_BIOSOLVEIT.INFINISEE\_REAGENT3\_NAME>  (739) 
EMOL36790511

>  <s_sd_BIOSOLVEIT.INFINISEE\_REAGENT3\_SMILES>  (739) 
N#CC(Nc1ccccc1)C

>  <s_sd_BIOSOLVEIT.INFINISEE\_SPACE>  (739) 
eXplore_7tr_2022-12

>  <s_vsw_compound_code>  (739) 
76002

>  <s_vsw_variant>  (739) 
76002-1

>  <r_epik_Charging_Adjusted_Penalty>  (739) 
0.0021692260655481999

>  <r_epik_Ionization_Penalty>  (739) 
0.0014

>  <r_epik_Ionization_Penalty_Charging>  (739) 
0

>  <r_epik_Ionization_Penalty_Neutral>  (739) 
0.0014

>  <r_epik_State_Penalty>  (739) 
0.0022000000000000001

>  <r_i_docking_score>  (739) 
-3.47106866595984

>  <r_i_glide_ecoul>  (739) 
-1.6433305740356401

>  <r_i_glide_eff_state_penalty>  (739) 
0.0022000000000000001

>  <r_i_glide_einternal>  (739) 
1.0118540525436399

>  <r_i_glide_emodel>  (739) 
-44.6295292115256

>  <r_i_glide_energy>  (739) 
-36.890252113342299

>  <r_i_glide_erotb>  (739) 
0.55026169557267401

>  <r_i_glide_esite>  (739) 
-0.029488553194138799

>  <r_i_glide_evdw>  (739) 
-35.246921539306598

>  <r_i_glide_gscore>  (739) 
-3.4732686659598402

>  <r_i_glide_hbond>  (739) 
0

>  <r_i_glide_ligand_efficiency>  (739) 
-0.108470895811245

>  <r_i_glide_ligand_efficiency_ln>  (739) 
-0.77726689206670296

>  <r_i_glide_ligand_efficiency_sa>  (739) 
-0.34437362783956998

>  <r_i_glide_lipo>  (739) 
-1.3690329082627699

>  <r_i_glide_metal>  (739) 
-0

>  <r_i_glide_rewards>  (739) 
-0.61616323700492204

>  <r_lp_Energy>  (739) 
27.997886999999999

>  <r_qp_ACxDN^.5/SA>  (739) 
0.0084610999999999992

>  <r_qp_CIQPlogS>  (739) 
-7.9669999999999996

>  <r_qp_EA(eV)>  (739) 
1.155

>  <r_qp_FISA>  (739) 
106.822

>  <r_qp_FOSA>  (739) 
105.509

>  <r_qp_IP(eV)>  (739) 
8.8160000000000007

>  <r_qp_Jm>  (739) 
0.013969957654650301

>  <r_qp_PISA>  (739) 
406.197

>  <r_qp_PSA>  (739) 
70.144999999999996

>  <r_qp_PercentHumanOralAbsorption>  (739) 
100

>  <r_qp_QPPCaco>  (739) 
961.404

>  <r_qp_QPPMDCK>  (739) 
705.42399999999998

>  <r_qp_QPlogBB>  (739) 
-0.72699999999999998

>  <r_qp_QPlogHERG>  (739) 
-5.6109999999999998

>  <r_qp_QPlogKhsa>  (739) 
0.68799999999999994

>  <r_qp_QPlogKp>  (739) 
-1.385

>  <r_qp_QPlogPC16>  (739) 
13.558

>  <r_qp_QPlogPo/w>  (739) 
4.7649999999999997

>  <r_qp_QPlogPoct>  (739) 
19.422000000000001

>  <r_qp_QPlogPw>  (739) 
10.122

>  <r_qp_QPlogS>  (739) 
-6.0970000000000004

>  <r_qp_QPpolrz>  (739) 
43.631999999999998

>  <r_qp_SASA>  (739) 
650.03200000000004

>  <r_qp_SAamideO>  (739) 
0

>  <r_qp_SAfluorine>  (739) 
31.504000000000001

>  <r_qp_WPSA>  (739) 
31.504000000000001

>  <r_qp_accptHB>  (739) 
5.5

>  <r_qp_dip^2/V>  (739) 
0.0097631000000000003

>  <r_qp_dipole>  (739) 
3.5070000000000001

>  <r_qp_donorHB>  (739) 
1

>  <r_qp_glob>  (739) 
0.86764269999999999

>  <r_qp_mol_MW>  (739) 
424.476

>  <r_qp_volume>  (739) 
1259.4069999999999

>  <r_sd_BIOSOLVEIT.INFINISEE\_FTREES\_SIMILARITY>  (739) 
0.91900000000000004

>  <r_sd_BIOSOLVEIT.LOGP>  (739) 
5.6052799999999996

>  <r_sd_BIOSOLVEIT.MOLECULAR\_WEIGHT>  (739) 
424.47699999999998

>  <r_sd_BIOSOLVEIT.TPSA>  (739) 
69.019999999999996

>  <i_epik_Tot_Q>  (739) 
0

>  <i_epik_Tot_abs_Q>  (739) 
0

>  <i_f3d_flags>  (739) 
0

>  <i_i_glide_confnum>  (739) 
6

>  <i_i_glide_lignum>  (739) 
980

>  <i_i_glide_posenum>  (739) 
15

>  <i_i_glide_rotatable_bonds>  (739) 
7

>  <i_lp_mmshare_version>  (739) 
65135

>  <i_m_ct_format>  (739) 
2

>  <i_m_source_file_index>  (739) 
2376

>  <i_qp_#NandO>  (739) 
5

>  <i_qp_#acid>  (739) 
0

>  <i_qp_#amide>  (739) 
0

>  <i_qp_#amidine>  (739) 
0

>  <i_qp_#amine>  (739) 
0

>  <i_qp_#in34>  (739) 
0

>  <i_qp_#in56>  (739) 
22

>  <i_qp_#metab>  (739) 
4

>  <i_qp_#nonHatm>  (739) 
32

>  <i_qp_#noncon>  (739) 
0

>  <i_qp_#ringatoms>  (739) 
22

>  <i_qp_#rotor>  (739) 
7

>  <i_qp_#rtvFG>  (739) 
0

>  <i_qp_#stars>  (739) 
0

>  <i_qp_CNS>  (739) 
-1

>  <i_qp_HumanOralAbsorption>  (739) 
3

>  <i_qp_RuleOfFive>  (739) 
0

>  <i_qp_RuleOfThree>  (739) 
1

>  <i_sd_BIOSOLVEIT.INFINISEE\_RESULT\_RANK>  (739) 
18143

>  <i_sd_version>  (739) 
0

>  <b_lp_Chiralities_Consistent>  (739) 
1

>  <b_sd_chiral_flag>  (739) 
0

>  <canonical_id>  (739) 
ATP-HTVS-738A9E09AC53

>  <compound_code>  (739) 
76002

>  <title>  (739) 
rxn502b____EMOL512495____EMOL44466703____EMOL36790511

>  <variant>  (739) 
76002-1

>  <source_file>  (739) 
运行/运行/ATP-VSW/ATP-VSW-DOCK_HTVS_1-002_lib.maegz

>  <canonical_smiles>  (739) 
C[C@H](C#N)N(c1ccccc1)c1cc2ccccc2nc1NC(=O)Cc1ccc(F)cc1

>  <scaffold>  (739) 
O=C(Cc1ccccc1)Nc1nc2ccccc2cc1Nc1ccccc1

>  <molecular_formula>  (739) 
C26H21FN4O

$$$$
ATP-HTVS-7398D4493E72
     RDKit          3D

 59 62  0  0  0  0  0  0  0  0999 V2000
  198.3989  186.6226  151.5158 Cl  0  0  0  0  0  0  0  0  0  0  0  0
  198.8504  187.0336  153.1342 C   0  0  0  0  0  0  0  0  0  0  0  0
  198.9505  186.0873  154.2007 C   0  0  0  0  0  0  0  0  0  0  0  0
  199.4019  186.5499  155.4671 C   0  0  0  0  0  0  0  0  0  0  0  0
  199.6458  187.9220  155.6992 C   0  0  0  0  0  0  0  0  0  0  0  0
  199.5358  188.8434  154.6511 C   0  0  0  0  0  0  0  0  0  0  0  0
  199.1610  188.3884  153.3762 C   0  0  0  0  0  0  0  0  0  0  0  0
  199.5515  185.6002  156.5581 C   0  0  0  0  0  0  0  0  0  0  0  0
  199.1815  184.3068  156.4588 C   0  0  0  0  0  0  0  0  0  0  0  0
  198.7340  183.8055  155.1670 N   0  0  0  0  0  0  0  0  0  0  0  0
  198.4791  182.4008  154.9669 C   0  0  0  0  0  0  0  0  0  0  0  0
  199.4524  181.4223  155.2720 C   0  0  0  0  0  0  0  0  0  0  0  0
  199.1488  180.0524  155.1567 C   0  0  0  0  0  0  0  0  0  0  0  0
  197.8983  179.6336  154.6568 C   0  0  0  0  0  0  0  0  0  0  0  0
  196.9467  180.5951  154.2698 C   0  0  0  0  0  0  0  0  0  0  0  0
  197.2324  181.9691  154.4393 C   0  0  0  0  0  0  0  0  0  0  0  0
  198.6381  184.6127  154.0558 C   0  0  0  0  0  0  0  0  0  0  0  0
  198.3436  184.1655  152.9466 O   0  0  0  0  0  0  0  0  0  0  0  0
  199.2158  183.3928  157.7213 C   0  0  2  0  0  0  0  0  0  0  0  0
  197.9055  183.0278  158.2375 N   0  0  0  0  0  0  0  0  0  0  0  0
  196.9694  183.8965  158.8331 C   0  0  0  0  0  0  0  0  0  0  0  0
  195.7573  183.3841  159.3772 C   0  0  0  0  0  0  0  0  0  0  0  0
  194.8406  184.2882  159.9641 C   0  0  0  0  0  0  0  0  0  0  0  0
  195.1126  185.6780  160.0036 C   0  0  0  0  0  0  0  0  0  0  0  0
  194.2765  186.5494  160.6278 O   0  0  0  0  0  0  0  0  0  0  0  0
  196.2649  186.1794  159.3945 C   0  0  0  0  0  0  0  0  0  0  0  0
  197.1968  185.2993  158.8329 C   0  0  0  0  0  0  0  0  0  0  0  0
  195.4325  181.8877  159.3278 C   0  0  1  0  0  0  0  0  0  0  0  0
  194.7888  181.4532  158.0722 N   0  0  1  0  0  0  0  0  0  0  0  0
  193.3682  181.8171  157.9348 C   0  0  2  0  0  0  0  0  0  0  0  0
  195.5574  181.8033  156.8773 C   0  0  2  0  0  0  0  0  0  0  0  0
  200.1211  183.8582  158.8844 C   0  0  2  0  0  0  0  0  0  0  0  0
  199.9157  188.2585  156.6910 H   0  0  0  0  0  0  0  0  0  0  0  0
  199.7582  189.8838  154.8253 H   0  0  0  0  0  0  0  0  0  0  0  0
  199.0967  189.0930  152.5596 H   0  0  0  0  0  0  0  0  0  0  0  0
  199.9416  186.0230  157.4683 H   0  0  0  0  0  0  0  0  0  0  0  0
  200.4486  181.7001  155.5884 H   0  0  0  0  0  0  0  0  0  0  0  0
  199.8710  179.3089  155.4776 H   0  0  0  0  0  0  0  0  0  0  0  0
  197.6439  178.5851  154.6308 H   0  0  0  0  0  0  0  0  0  0  0  0
  195.9649  180.2885  153.9298 H   0  0  0  0  0  0  0  0  0  0  0  0
  196.4596  182.6896  154.1959 H   0  0  0  0  0  0  0  0  0  0  0  0
  199.6873  182.4272  157.4731 H   0  0  0  0  0  0  0  0  0  0  0  0
  197.7389  182.0275  158.2155 H   0  0  0  0  0  0  0  0  0  0  0  0
  193.9201  183.8965  160.4074 H   0  0  0  0  0  0  0  0  0  0  0  0
  193.4108  186.1789  160.7035 H   0  0  0  0  0  0  0  0  0  0  0  0
  196.5047  187.2222  159.3809 H   0  0  0  0  0  0  0  0  0  0  0  0
  198.0728  185.7759  158.4067 H   0  0  0  0  0  0  0  0  0  0  0  0
  196.3353  181.2886  159.4853 H   0  0  0  0  0  0  0  0  0  0  0  0
  194.7427  181.6132  160.1216 H   0  0  0  0  0  0  0  0  0  0  0  0
  193.2735  182.8993  157.8656 H   0  0  0  0  0  0  0  0  0  0  0  0
  192.7885  181.4201  158.7626 H   0  0  0  0  0  0  0  0  0  0  0  0
  192.9744  181.3779  157.0163 H   0  0  0  0  0  0  0  0  0  0  0  0
  195.6566  182.8700  156.7090 H   0  0  0  0  0  0  0  0  0  0  0  0
  195.0552  181.4253  155.9968 H   0  0  0  0  0  0  0  0  0  0  0  0
  196.5205  181.2901  156.9487 H   0  0  0  0  0  0  0  0  0  0  0  0
  201.1262  184.0981  158.5140 H   0  0  0  0  0  0  0  0  0  0  0  0
  200.1925  183.0036  159.5671 H   0  0  0  0  0  0  0  0  0  0  0  0
  199.7040  184.6988  159.4508 H   0  0  0  0  0  0  0  0  0  0  0  0
  194.8662  180.4163  158.1006 H   0  0  0  0  0  0  0  0  0  0  0  0
  1  2  1  0
  2  3  2  0
  2  7  1  0
  3  4  1  0
  3 17  1  0
  4  5  2  0
  4  8  1  0
  5  6  1  0
  5 33  1  0
  6  7  2  0
  6 34  1  0
  7 35  1  0
  8  9  2  0
  8 36  1  0
  9 10  1  0
  9 19  1  0
 10 11  1  0
 10 17  1  0
 11 12  2  0
 11 16  1  0
 12 13  1  0
 12 37  1  0
 13 14  2  0
 13 38  1  0
 14 15  1  0
 14 39  1  0
 15 16  2  0
 15 40  1  0
 16 41  1  0
 17 18  2  0
 19 20  1  0
 19 32  1  0
 19 42  1  6
 20 21  1  0
 20 43  1  0
 21 22  2  0
 21 27  1  0
 22 23  1  0
 22 28  1  0
 23 24  2  0
 23 44  1  0
 24 25  1  0
 24 26  1  0
 25 45  1  0
 26 27  2  0
 26 46  1  0
 27 47  1  0
 28 29  1  0
 28 48  1  1
 28 49  1  0
 29 30  1  0
 29 31  1  0
 29 59  1  1
 30 50  1  6
 30 51  1  0
 30 52  1  0
 31 53  1  6
 31 54  1  0
 31 55  1  0
 32 56  1  6
 32 57  1  0
 32 58  1  0
M  CHG  1  29   1
M  END
>  <s_epik_cmdline>  (740) 
J2VwaWtfcHl0aG9uJywgJy1waCcsICc3LjAwMDAwMCcsICctcGh0JywgJzIuMDAwMDAwJywgJy1tcycsICcxNicsICctdG4nLCAnOCcsICctbWEnLCAnMjAwJywgJy1pbWFlJywgJzxpbmZpbGUubWFlPicsICctb21hZScsICc8b3V0ZmlsZS5tYWU+Jw==

>  <s_epik_input>  (740) 
Q2xjMVtjSF1bY0hdW2NIXWMoYzEyKVtjSF1jKG4oYzI9TyktYzNbY0hdW2NIXVtjSF1bY0hdW2NIXTMpW0NAQEhdKFtDSDNdKVtOSF1jNGMoW0NIMl1OKFtDSDNdKVtDSDNdKVtjSF1jKFtPSF0pW2NIXVtjSF00

>  <s_i_glide_gridfile>  (740) 
ATP-Grid

>  <s_lp_Force_Field>  (740) 
OPLS_2005

>  <s_lp_Variant>  (740) 
rxn102b____EMOL12033097____EMOL76738571-1

>  <s_lp_label>  (740) 
2427_sdstereoexpander_1_neutralizer_1_epik_1_stereoizer_1

>  <s_m_source_file>  (740) 
ATP-VSW-LIGPREP-001-in.maegz

>  <s_sd_BIOSOLVEIT.INFINISEE\_QUERY\_NAME>  (740) 
Ref-Lig

>  <s_sd_BIOSOLVEIT.INFINISEE\_QUERY\_SMILES>  (740) 
S(c1nc2c(cc1C[NH2+]Cc3ccc(cc3)C[NH+](C)C)cccc2)Cc4ccccc4

>  <s_sd_BIOSOLVEIT.INFINISEE\_REACTION\_NAME>  (740) 
rxn102b

>  <s_sd_BIOSOLVEIT.INFINISEE\_REAGENT1\_NAME>  (740) 
EMOL12033097

>  <s_sd_BIOSOLVEIT.INFINISEE\_REAGENT1\_SMILES>  (740) 
Brc1c(cc(O)cc1)CN(C)C

>  <s_sd_BIOSOLVEIT.INFINISEE\_REAGENT2\_NAME>  (740) 
EMOL76738571

>  <s_sd_BIOSOLVEIT.INFINISEE\_REAGENT2\_SMILES>  (740) 
Clc1c2c(ccc1)C=C(N(c3ccccc3)C2=O)C(N)C

>  <s_sd_BIOSOLVEIT.INFINISEE\_SPACE>  (740) 
eXplore_7tr_2022-12

>  <s_vsw_compound_code>  (740) 
77633

>  <s_vsw_variant>  (740) 
77633-1

>  <r_epik_Charging_Adjusted_Penalty>  (740) 
0.083971809784930504

>  <r_epik_Ionization_Penalty>  (740) 
0.047100000000000003

>  <r_epik_Ionization_Penalty_Charging>  (740) 
0.042000000000000003

>  <r_epik_Ionization_Penalty_Neutral>  (740) 
0.0051000000000000004

>  <r_epik_State_Penalty>  (740) 
0.042000000000000003

>  <r_i_docking_score>  (740) 
-5.0086759159548704

>  <r_i_glide_ecoul>  (740) 
-12.6638269424438

>  <r_i_glide_eff_state_penalty>  (740) 
0.042000000000000003

>  <r_i_glide_einternal>  (740) 
2.2573578357696502

>  <r_i_glide_emodel>  (740) 
-55.545441144903698

>  <r_i_glide_energy>  (740) 
-38.252434730529799

>  <r_i_glide_erotb>  (740) 
0.49702746552365001

>  <r_i_glide_esite>  (740) 
-0.108523387519659

>  <r_i_glide_evdw>  (740) 
-25.588607788085898

>  <r_i_glide_gscore>  (740) 
-5.0506759159548702

>  <r_i_glide_hbond>  (740) 
-0.223965623937948

>  <r_i_glide_ligand_efficiency>  (740) 
-0.15652112237359

>  <r_i_glide_ligand_efficiency_ln>  (740) 
-1.1215790689312299

>  <r_i_glide_ligand_efficiency_sa>  (740) 
-0.49692358804809

>  <r_i_glide_lipo>  (740) 
-1.4632384392500399

>  <r_i_glide_metal>  (740) 
-0

>  <r_i_glide_rewards>  (740) 
-0.57297149999999897

>  <r_lp_Energy>  (740) 
45.806041

>  <r_qp_ACxDN^.5/SA>  (740) 
0.0136069

>  <r_qp_CIQPlogS>  (740) 
-5.8369999999999997

>  <r_qp_EA(eV)>  (740) 
0.63600000000000001

>  <r_qp_FISA>  (740) 
82.900000000000006

>  <r_qp_FOSA>  (740) 
222.12

>  <r_qp_IP(eV)>  (740) 
7.9059999999999997

>  <r_qp_Jm>  (740) 
0.0050862953306725902

>  <r_qp_PISA>  (740) 
336.923

>  <r_qp_PSA>  (740) 
61.594999999999999

>  <r_qp_PercentHumanOralAbsorption>  (740) 
100

>  <r_qp_QPPCaco>  (740) 
404.25900000000001

>  <r_qp_QPPMDCK>  (740) 
436.14299999999997

>  <r_qp_QPlogBB>  (740) 
-0.042999999999999997

>  <r_qp_QPlogHERG>  (740) 
-6.5060000000000002

>  <r_qp_QPlogKhsa>  (740) 
0.66100000000000003

>  <r_qp_QPlogKp>  (740) 
-3.347

>  <r_qp_QPlogPC16>  (740) 
14.442

>  <r_qp_QPlogPo/w>  (740) 
4.258

>  <r_qp_QPlogPoct>  (740) 
22.670999999999999

>  <r_qp_QPlogPw>  (740) 
12.538

>  <r_qp_QPlogS>  (740) 
-4.5979999999999999

>  <r_qp_QPpolrz>  (740) 
46.735999999999997

>  <r_qp_SASA>  (740) 
701.55399999999997

>  <r_qp_SAamideO>  (740) 
0

>  <r_qp_SAfluorine>  (740) 
0

>  <r_qp_WPSA>  (740) 
59.612000000000002

>  <r_qp_accptHB>  (740) 
6.75

>  <r_qp_dip^2/V>  (740) 
0.022785199999999999

>  <r_qp_dipole>  (740) 
5.5199999999999996

>  <r_qp_donorHB>  (740) 
2

>  <r_qp_glob>  (740) 
0.83680540000000003

>  <r_qp_mol_MW>  (740) 
447.96300000000002

>  <r_qp_volume>  (740) 
1337.4590000000001

>  <r_sd_BIOSOLVEIT.INFINISEE\_FTREES\_SIMILARITY>  (740) 
0.91700000000000004

>  <r_sd_BIOSOLVEIT.LOGP>  (740) 
4.1673

>  <r_sd_BIOSOLVEIT.MOLECULAR\_WEIGHT>  (740) 
448.971

>  <r_sd_BIOSOLVEIT.TPSA>  (740) 
58.700000000000003

>  <i_epik_Tot_Q>  (740) 
1

>  <i_epik_Tot_abs_Q>  (740) 
1

>  <i_f3d_flags>  (740) 
0

>  <i_i_glide_confnum>  (740) 
6

>  <i_i_glide_lignum>  (740) 
933

>  <i_i_glide_posenum>  (740) 
5

>  <i_i_glide_rotatable_bonds>  (740) 
7

>  <i_lp_mmshare_version>  (740) 
65135

>  <i_m_ct_format>  (740) 
2

>  <i_m_source_file_index>  (740) 
2427

>  <i_qp_#NandO>  (740) 
5

>  <i_qp_#acid>  (740) 
0

>  <i_qp_#amide>  (740) 
0

>  <i_qp_#amidine>  (740) 
0

>  <i_qp_#amine>  (740) 
1

>  <i_qp_#in34>  (740) 
0

>  <i_qp_#in56>  (740) 
22

>  <i_qp_#metab>  (740) 
7

>  <i_qp_#nonHatm>  (740) 
32

>  <i_qp_#noncon>  (740) 
0

>  <i_qp_#ringatoms>  (740) 
22

>  <i_qp_#rotor>  (740) 
6

>  <i_qp_#rtvFG>  (740) 
0

>  <i_qp_#stars>  (740) 
0

>  <i_qp_CNS>  (740) 
1

>  <i_qp_HumanOralAbsorption>  (740) 
3

>  <i_qp_RuleOfFive>  (740) 
0

>  <i_qp_RuleOfThree>  (740) 
1

>  <i_sd_BIOSOLVEIT.INFINISEE\_RESULT\_RANK>  (740) 
23001

>  <i_sd_version>  (740) 
0

>  <b_lp_Chiralities_Consistent>  (740) 
1

>  <b_sd_chiral_flag>  (740) 
0

>  <canonical_id>  (740) 
ATP-HTVS-7398D4493E72

>  <compound_code>  (740) 
77633

>  <title>  (740) 
rxn102b____EMOL12033097____EMOL76738571

>  <variant>  (740) 
77633-1

>  <source_file>  (740) 
运行/运行/ATP-VSW/ATP-VSW-DOCK_HTVS_1-001_lib/ATP-VSW-DOCK_HTVS_1-001_lib

>  <canonical_smiles>  (740) 
C[C@@H](Nc1ccc(O)cc1C[NH+](C)C)c1cc2cccc(Cl)c2c(=O)n1-c1ccccc1

>  <scaffold>  (740) 
O=c1c2ccccc2cc(CNc2ccccc2)n1-c1ccccc1

>  <molecular_formula>  (740) 
C26H27ClN3O2+

$$$$
ATP-HTVS-73D804AB38E4
     RDKit          3D

 67 70  0  0  0  0  0  0  0  0999 V2000
  200.3363  188.2306  153.6040 O   0  0  0  0  0  0  0  0  0  0  0  0
  200.3137  187.4047  154.6976 C   0  0  0  0  0  0  0  0  0  0  0  0
  201.2469  187.6755  155.7442 C   0  0  0  0  0  0  0  0  0  0  0  0
  201.2918  186.8513  156.8898 C   0  0  0  0  0  0  0  0  0  0  0  0
  200.4548  185.7101  156.9876 C   0  0  0  0  0  0  0  0  0  0  0  0
  199.5812  185.4293  155.8901 C   0  0  0  0  0  0  0  0  0  0  0  0
  199.4588  186.2909  154.8041 C   0  0  0  0  0  0  0  0  0  0  0  0
  200.4671  184.8346  158.2398 C   0  0  1  0  0  0  0  0  0  0  0  0
  199.1932  184.7668  158.9768 N   0  0  0  0  0  0  0  0  0  0  0  0
  198.0590  184.0630  158.5188 C   0  0  0  0  0  0  0  0  0  0  0  0
  198.2194  183.1335  157.5568 N   0  0  0  0  0  0  0  0  0  0  0  0
  197.1543  182.4984  157.0458 C   0  0  0  0  0  0  0  0  0  0  0  0
  195.9121  182.7268  157.4797 N   0  0  0  0  0  0  0  0  0  0  0  0
  195.6977  183.6083  158.4760 C   0  0  0  0  0  0  0  0  0  0  0  0
  196.7755  184.3330  159.0354 C   0  0  0  0  0  0  0  0  0  0  0  0
  196.5388  185.2844  160.0548 C   0  0  0  0  0  0  0  0  0  0  0  0
  195.2298  185.4778  160.5289 C   0  0  0  0  0  0  0  0  0  0  0  0
  194.1638  184.7461  159.9758 C   0  0  0  0  0  0  0  0  0  0  0  0
  194.3882  183.8201  158.9435 C   0  0  0  0  0  0  0  0  0  0  0  0
  197.3252  181.6604  155.9575 N   0  0  0  0  0  0  0  0  0  0  0  0
  198.5792  181.4996  155.2265 C   0  0  1  0  0  0  0  0  0  0  0  0
  199.6959  180.8423  156.0188 C   0  0  0  0  0  0  0  0  0  0  0  0
  199.7022  179.4522  156.2338 C   0  0  0  0  0  0  0  0  0  0  0  0
  200.7365  178.8599  156.9938 C   0  0  0  0  0  0  0  0  0  0  0  0
  201.7397  179.6681  157.5739 C   0  0  0  0  0  0  0  0  0  0  0  0
  201.7293  181.0612  157.3655 C   0  0  0  0  0  0  0  0  0  0  0  0
  200.7306  181.6347  156.5539 C   0  0  0  0  0  0  0  0  0  0  0  0
  200.7727  177.3567  157.1641 C   0  0  1  0  0  0  0  0  0  0  0  0
  201.7688  176.7129  156.2676 N   0  0  2  0  0  0  0  0  0  0  0  0
  201.5863  177.0319  154.8292 C   0  0  2  0  0  0  0  0  0  0  0  0
  201.8517  175.2521  156.4893 C   0  0  2  0  0  0  0  0  0  0  0  0
  199.3360  188.0576  152.5936 C   0  0  1  0  0  0  0  0  0  0  0  0
  199.4808  186.7285  151.7981 C   0  0  1  0  0  0  0  0  0  0  0  0
  198.3414  186.6373  150.9676 O   0  0  0  0  0  0  0  0  0  0  0  0
  201.8814  188.5409  155.6755 H   0  0  0  0  0  0  0  0  0  0  0  0
  201.9650  187.1152  157.7205 H   0  0  0  0  0  0  0  0  0  0  0  0
  198.9832  184.5482  155.8607 H   0  0  0  0  0  0  0  0  0  0  0  0
  198.7383  186.0505  154.0491 H   0  0  0  0  0  0  0  0  0  0  0  0
  200.7841  183.8135  158.0016 H   0  0  0  0  0  0  0  0  0  0  0  0
  201.2477  185.2153  158.9239 H   0  0  0  0  0  0  0  0  0  0  0  0
  199.1056  185.3767  159.7785 H   0  0  0  0  0  0  0  0  0  0  0  0
  197.3468  185.8528  160.4907 H   0  0  0  0  0  0  0  0  0  0  0  0
  195.0498  186.1935  161.3191 H   0  0  0  0  0  0  0  0  0  0  0  0
  193.1625  184.9113  160.3289 H   0  0  0  0  0  0  0  0  0  0  0  0
  193.5655  183.2774  158.4984 H   0  0  0  0  0  0  0  0  0  0  0  0
  196.5054  181.1908  155.6028 H   0  0  0  0  0  0  0  0  0  0  0  0
  198.4017  180.9041  154.3314 H   0  0  0  0  0  0  0  0  0  0  0  0
  198.9128  182.4746  154.8665 H   0  0  0  0  0  0  0  0  0  0  0  0
  198.9208  178.8454  155.7926 H   0  0  0  0  0  0  0  0  0  0  0  0
  202.5413  179.2231  158.1499 H   0  0  0  0  0  0  0  0  0  0  0  0
  202.4938  181.6825  157.8158 H   0  0  0  0  0  0  0  0  0  0  0  0
  200.7204  182.6945  156.3549 H   0  0  0  0  0  0  0  0  0  0  0  0
  201.0204  177.1420  158.2041 H   0  0  0  0  0  0  0  0  0  0  0  0
  199.7770  176.9524  156.9829 H   0  0  0  0  0  0  0  0  0  0  0  0
  200.6189  176.6788  154.4693 H   0  0  0  0  0  0  0  0  0  0  0  0
  202.3696  176.5659  154.2291 H   0  0  0  0  0  0  0  0  0  0  0  0
  201.6517  178.1037  154.6400 H   0  0  0  0  0  0  0  0  0  0  0  0
  200.9119  174.7673  156.2319 H   0  0  0  0  0  0  0  0  0  0  0  0
  202.0787  175.0193  157.5274 H   0  0  0  0  0  0  0  0  0  0  0  0
  202.6381  174.8090  155.8808 H   0  0  0  0  0  0  0  0  0  0  0  0
  198.3610  188.2109  153.0793 H   0  0  0  0  0  0  0  0  0  0  0  0
  199.4283  188.9301  151.9437 H   0  0  0  0  0  0  0  0  0  0  0  0
  200.4059  186.7952  151.2004 H   0  0  0  0  0  0  0  0  0  0  0  0
  199.4881  185.8637  152.4342 H   0  0  0  0  0  0  0  0  0  0  0  0
  197.5644  186.6379  151.5149 H   0  0  0  0  0  0  0  0  0  0  0  0
  195.0977  182.2752  157.0412 H   0  0  0  0  0  0  0  0  0  0  0  0
  202.6649  177.1024  156.5357 H   0  0  0  0  0  0  0  0  0  0  0  0
  1  2  1  0
  1 32  1  0
  2  3  1  0
  2  7  2  0
  3  4  2  0
  3 35  1  0
  4  5  1  0
  4 36  1  0
  5  6  2  0
  5  8  1  0
  6  7  1  0
  6 37  1  0
  7 38  1  0
  8  9  1  0
  8 39  1  6
  8 40  1  0
  9 10  1  0
  9 41  1  0
 10 11  2  0
 10 15  1  0
 11 12  1  0
 12 13  2  0
 12 20  1  0
 13 14  1  0
 13 66  1  0
 14 15  1  0
 14 19  2  0
 15 16  2  0
 16 17  1  0
 16 42  1  0
 17 18  2  0
 17 43  1  0
 18 19  1  0
 18 44  1  0
 19 45  1  0
 20 21  1  0
 20 46  1  0
 21 22  1  0
 21 47  1  6
 21 48  1  0
 22 23  2  0
 22 27  1  0
 23 24  1  0
 23 49  1  0
 24 25  2  0
 24 28  1  0
 25 26  1  0
 25 50  1  0
 26 27  2  0
 26 51  1  0
 27 52  1  0
 28 29  1  0
 28 53  1  1
 28 54  1  0
 29 30  1  0
 29 31  1  0
 29 67  1  1
 30 55  1  6
 30 56  1  0
 30 57  1  0
 31 58  1  6
 31 59  1  0
 31 60  1  0
 32 33  1  0
 32 61  1  1
 32 62  1  0
 33 34  1  0
 33 63  1  6
 33 64  1  0
 34 65  1  0
M  CHG  2  13   1  29   1
M  END
>  <s_epik_cmdline>  (741) 
J2VwaWtfcHl0aG9uJywgJy1waCcsICc3LjAwMDAwMCcsICctcGh0JywgJzIuMDAwMDAwJywgJy1tcycsICcxNicsICctdG4nLCAnOCcsICctbWEnLCAnMjAwJywgJy1pbWFlJywgJzxpbmZpbGUubWFlPicsICctb21hZScsICc8b3V0ZmlsZS5tYWU+Jw==

>  <s_epik_input>  (741) 
W09IXVtDSDJdW0NIMl1PYzFbY0hdW2NIXWMoW2NIXVtjSF0xKVtDSDJdW05IXWMoYyhjMjMpW2NIXVtjSF1bY0hdW2NIXTMpbmMobjIpW05IXVtDSDJdYzRbY0hdYyhbY0hdW2NIXVtjSF00KVtDSDJdTihbQ0gzXSlbQ0gzXQ==

>  <s_i_glide_gridfile>  (741) 
ATP-Grid

>  <s_lp_Force_Field>  (741) 
OPLS_2005

>  <s_lp_Variant>  (741) 
m_282030aaa____21933754____22360182____21940090-1

>  <s_lp_label>  (741) 
1882_sdstereoexpander_1_neutralizer_1_epik_1_stereoizer_1

>  <s_m_source_file>  (741) 
ATP-VSW-LIGPREP-003-in.maegz

>  <s_sd_BIOSOLVEIT.INFINISEE\_QUERY\_NAME>  (741) 
Ref-Lig

>  <s_sd_BIOSOLVEIT.INFINISEE\_QUERY\_SMILES>  (741) 
S(c1nc2c(cc1C[NH2+]Cc3ccc(cc3)C[NH+](C)C)cccc2)Cc4ccccc4

>  <s_sd_BIOSOLVEIT.INFINISEE\_REACTION\_NAME>  (741) 
m_282030aaa

>  <s_sd_BIOSOLVEIT.INFINISEE\_REAGENT1\_SMILES>  (741) 
[R1*]NCc1ccc(OCCO)cc1

>  <s_sd_BIOSOLVEIT.INFINISEE\_REAGENT2\_SMILES>  (741) 
[R2*]c1nc([R1*])c2c(n1)cccc2

>  <s_sd_BIOSOLVEIT.INFINISEE\_REAGENT3\_SMILES>  (741) 
[R2*]NCc1cc(ccc1)CN(C)C

>  <s_sd_BIOSOLVEIT.INFINISEE\_SPACE>  (741) 
REALSpace_44bn_2023-08

>  <s_vsw_compound_code>  (741) 
60195

>  <s_vsw_variant>  (741) 
60195-1

>  <r_epik_Charging_Adjusted_Penalty>  (741) 
0.12676660783234101

>  <r_epik_Ionization_Penalty>  (741) 
0.0608

>  <r_epik_Ionization_Penalty_Charging>  (741) 
0.0608

>  <r_epik_Ionization_Penalty_Neutral>  (741) 
0

>  <r_epik_State_Penalty>  (741) 
0.066000000000000003

>  <r_i_docking_score>  (741) 
-3.7111868147091398

>  <r_i_glide_ecoul>  (741) 
-6.1075687408447301

>  <r_i_glide_eff_state_penalty>  (741) 
0.066000000000000003

>  <r_i_glide_einternal>  (741) 
2.4299328327178999

>  <r_i_glide_emodel>  (741) 
-51.111395734876197

>  <r_i_glide_energy>  (741) 
-36.814243316650398

>  <r_i_glide_erotb>  (741) 
0.95265848019923105

>  <r_i_glide_esite>  (741) 
-0.151054330629105

>  <r_i_glide_evdw>  (741) 
-30.7066745758057

>  <r_i_glide_gscore>  (741) 
-3.7771868147091401

>  <r_i_glide_hbond>  (741) 
-0.104710320712795

>  <r_i_glide_ligand_efficiency>  (741) 
-0.10915255337379801

>  <r_i_glide_ligand_efficiency_ln>  (741) 
-0.81990526263345997

>  <r_i_glide_ligand_efficiency_sa>  (741) 
-0.35361189963367301

>  <r_i_glide_lipo>  (741) 
-1.52204264910403

>  <r_i_glide_metal>  (741) 
-0

>  <r_i_glide_rewards>  (741) 
-0.50056895454545303

>  <r_lp_Energy>  (741) 
17.010553000000002

>  <r_lp_tautomer_probability>  (741) 
1

>  <r_qp_ACxDN^.5/SA>  (741) 
0.017400700000000002

>  <r_qp_CIQPlogS>  (741) 
-5.6790000000000003

>  <r_qp_EA(eV)>  (741) 
0.53000000000000003

>  <r_qp_FISA>  (741) 
67.772999999999996

>  <r_qp_FOSA>  (741) 
265.28500000000003

>  <r_qp_IP(eV)>  (741) 
7.915

>  <r_qp_Jm>  (741) 
0.48971546349410899

>  <r_qp_PISA>  (741) 
408.50700000000001

>  <r_qp_PSA>  (741) 
75.123000000000005

>  <r_qp_PercentHumanOralAbsorption>  (741) 
100

>  <r_qp_QPPCaco>  (741) 
562.47699999999998

>  <r_qp_QPPMDCK>  (741) 
293.84800000000001

>  <r_qp_QPlogBB>  (741) 
-0.42399999999999999

>  <r_qp_QPlogHERG>  (741) 
-7.0279999999999996

>  <r_qp_QPlogKhsa>  (741) 
0.45100000000000001

>  <r_qp_QPlogKp>  (741) 
-2.2400000000000002

>  <r_qp_QPlogPC16>  (741) 
15.439

>  <r_qp_QPlogPo/w>  (741) 
4.3150000000000004

>  <r_qp_QPlogPoct>  (741) 
23.954000000000001

>  <r_qp_QPlogPw>  (741) 
13.827999999999999

>  <r_qp_QPlogS>  (741) 
-3.7309999999999999

>  <r_qp_QPpolrz>  (741) 
47.049999999999997

>  <r_qp_SASA>  (741) 
741.56500000000005

>  <r_qp_SAamideO>  (741) 
0

>  <r_qp_SAfluorine>  (741) 
0

>  <r_qp_WPSA>  (741) 
0

>  <r_qp_accptHB>  (741) 
7.4500000000000002

>  <r_qp_dip^2/V>  (741) 
0.0087764000000000002

>  <r_qp_dipole>  (741) 
3.536

>  <r_qp_donorHB>  (741) 
3

>  <r_qp_glob>  (741) 
0.82563169999999997

>  <r_qp_mol_MW>  (741) 
457.57400000000001

>  <r_qp_volume>  (741) 
1424.479

>  <r_sd_BIOSOLVEIT.INFINISEE\_FTREES\_SIMILARITY>  (741) 
0.90300000000000002

>  <r_sd_BIOSOLVEIT.LOGP>  (741) 
2.8696000000000002

>  <r_sd_BIOSOLVEIT.MOLECULAR\_WEIGHT>  (741) 
458.58300000000003

>  <r_sd_BIOSOLVEIT.TPSA>  (741) 
83.739999999999995

>  <i_epik_Tot_Q>  (741) 
2

>  <i_epik_Tot_abs_Q>  (741) 
2

>  <i_f3d_flags>  (741) 
0

>  <i_i_glide_confnum>  (741) 
15

>  <i_i_glide_lignum>  (741) 
707

>  <i_i_glide_posenum>  (741) 
1

>  <i_i_glide_rotatable_bonds>  (741) 
12

>  <i_lp_mmshare_version>  (741) 
65135

>  <i_m_ct_format>  (741) 
2

>  <i_m_source_file_index>  (741) 
1882

>  <i_qp_#NandO>  (741) 
7

>  <i_qp_#acid>  (741) 
0

>  <i_qp_#amide>  (741) 
0

>  <i_qp_#amidine>  (741) 
0

>  <i_qp_#amine>  (741) 
1

>  <i_qp_#in34>  (741) 
0

>  <i_qp_#in56>  (741) 
22

>  <i_qp_#metab>  (741) 
7

>  <i_qp_#nonHatm>  (741) 
34

>  <i_qp_#noncon>  (741) 
0

>  <i_qp_#ringatoms>  (741) 
22

>  <i_qp_#rotor>  (741) 
12

>  <i_qp_#rtvFG>  (741) 
0

>  <i_qp_#stars>  (741) 
0

>  <i_qp_CNS>  (741) 
0

>  <i_qp_HumanOralAbsorption>  (741) 
3

>  <i_qp_RuleOfFive>  (741) 
0

>  <i_qp_RuleOfThree>  (741) 
1

>  <i_sd_BIOSOLVEIT.INFINISEE\_REAGENT1\_NAME>  (741) 
21933754

>  <i_sd_BIOSOLVEIT.INFINISEE\_REAGENT2\_NAME>  (741) 
22360182

>  <i_sd_BIOSOLVEIT.INFINISEE\_REAGENT3\_NAME>  (741) 
21940090

>  <i_sd_BIOSOLVEIT.INFINISEE\_RESULT\_RANK>  (741) 
83171

>  <i_sd_version>  (741) 
0

>  <b_lp_Chiralities_Consistent>  (741) 
1

>  <b_sd_chiral_flag>  (741) 
0

>  <canonical_id>  (741) 
ATP-HTVS-73D804AB38E4

>  <compound_code>  (741) 
60195

>  <title>  (741) 
m_282030aaa____21933754____22360182____21940090

>  <variant>  (741) 
60195-1

>  <source_file>  (741) 
运行/运行/ATP-VSW/ATP-VSW-DOCK_HTVS_1-003_lib/ATP-VSW-DOCK_HTVS_1-003_lib.mae

>  <canonical_smiles>  (741) 
C[NH+](C)Cc1cccc(CNc2nc(NCc3ccc(OCCO)cc3)c3ccccc3[nH+]2)c1

>  <scaffold>  (741) 
c1ccc(CNc2nc(NCc3ccccc3)c3ccccc3[nH+]2)cc1

>  <molecular_formula>  (741) 
C27H33N5O2+2

$$$$
ATP-HTVS-7418424385E1
     RDKit          3D

 56 58  0  0  0  0  0  0  0  0999 V2000
  196.8866  185.7981  159.8170 Cl  0  0  0  0  0  0  0  0  0  0  0  0
  196.6888  184.3008  158.9651 C   0  0  0  0  0  0  0  0  0  0  0  0
  197.7824  183.6402  158.3626 C   0  0  0  0  0  0  0  0  0  0  0  0
  199.1128  184.1493  158.4107 N   0  0  0  0  0  0  0  0  0  0  0  0
  199.7352  184.7374  157.3487 C   0  0  0  0  0  0  0  0  0  0  0  0
  200.8234  185.2938  157.4801 O   0  0  0  0  0  0  0  0  0  0  0  0
  199.1210  184.7267  155.9821 C   0  0  0  0  0  0  0  0  0  0  0  0
  199.4685  186.1325  154.9715 S   0  0  0  0  0  0  0  0  0  0  0  0
  198.5365  185.4610  153.6615 C   0  0  0  0  0  0  0  0  0  0  0  0
  198.3751  186.3516  152.1760 Cl  0  0  0  0  0  0  0  0  0  0  0  0
  198.0349  184.2129  153.9696 C   0  0  0  0  0  0  0  0  0  0  0  0
  197.2642  183.4098  153.1129 N   0  0  0  0  0  0  0  0  0  0  0  0
  196.6919  182.1157  153.4959 C   0  0  1  0  0  0  0  0  0  0  0  0
  197.6791  180.9544  153.5120 C   0  0  0  0  0  0  0  0  0  0  0  0
  197.9679  180.2822  154.7277 C   0  0  0  0  0  0  0  0  0  0  0  0
  198.8422  179.1800  154.7614 C   0  0  0  0  0  0  0  0  0  0  0  0
  199.3895  178.6976  153.5493 C   0  0  0  0  0  0  0  0  0  0  0  0
  199.1466  179.3925  152.3479 C   0  0  0  0  0  0  0  0  0  0  0  0
  198.2896  180.5111  152.3182 C   0  0  0  0  0  0  0  0  0  0  0  0
  199.1745  178.5039  156.0940 C   0  0  1  0  0  0  0  0  0  0  0  0
  200.6175  178.5499  156.4807 N   0  0  1  0  0  0  0  0  0  0  0  0
  200.8737  177.8510  157.7640 C   0  0  2  0  0  0  0  0  0  0  0  0
  201.5697  178.0956  155.4381 C   0  0  2  0  0  0  0  0  0  0  0  0
  198.4018  183.7898  155.2921 C   0  0  0  0  0  0  0  0  0  0  0  0
  199.7814  184.0796  159.7263 C   0  0  1  0  0  0  0  0  0  0  0  0
  201.0221  183.1708  159.7100 C   0  0  2  0  0  0  0  0  0  0  0  0
  197.5656  182.3963  157.7326 C   0  0  0  0  0  0  0  0  0  0  0  0
  196.2568  181.9102  157.5606 C   0  0  0  0  0  0  0  0  0  0  0  0
  195.1756  182.5799  158.1346 C   0  0  0  0  0  0  0  0  0  0  0  0
  195.3829  183.7764  158.8476 C   0  0  0  0  0  0  0  0  0  0  0  0
  197.1107  183.7043  152.1530 H   0  0  0  0  0  0  0  0  0  0  0  0
  196.1784  182.1662  154.4633 H   0  0  0  0  0  0  0  0  0  0  0  0
  195.9066  181.8528  152.7858 H   0  0  0  0  0  0  0  0  0  0  0  0
  197.5208  180.6262  155.6481 H   0  0  0  0  0  0  0  0  0  0  0  0
  200.0344  177.8155  153.5579 H   0  0  0  0  0  0  0  0  0  0  0  0
  199.6353  179.0637  151.4477 H   0  0  0  0  0  0  0  0  0  0  0  0
  198.0933  181.0301  151.3767 H   0  0  0  0  0  0  0  0  0  0  0  0
  198.6274  179.0469  156.8691 H   0  0  0  0  0  0  0  0  0  0  0  0
  198.8008  177.4762  156.0804 H   0  0  0  0  0  0  0  0  0  0  0  0
  200.6557  176.7847  157.6807 H   0  0  0  0  0  0  0  0  0  0  0  0
  200.2781  178.2483  158.5889 H   0  0  0  0  0  0  0  0  0  0  0  0
  201.9262  177.9490  158.0391 H   0  0  0  0  0  0  0  0  0  0  0  0
  201.3162  177.0797  155.1434 H   0  0  0  0  0  0  0  0  0  0  0  0
  202.5935  178.0635  155.8204 H   0  0  0  0  0  0  0  0  0  0  0  0
  201.4731  178.7112  154.5407 H   0  0  0  0  0  0  0  0  0  0  0  0
  198.1430  182.8018  155.6310 H   0  0  0  0  0  0  0  0  0  0  0  0
  200.0344  185.0838  160.0727 H   0  0  0  0  0  0  0  0  0  0  0  0
  199.0824  183.6681  160.4548 H   0  0  0  0  0  0  0  0  0  0  0  0
  201.4697  183.1053  160.7024 H   0  0  0  0  0  0  0  0  0  0  0  0
  201.7909  183.5414  159.0330 H   0  0  0  0  0  0  0  0  0  0  0  0
  200.7517  182.1677  159.3839 H   0  0  0  0  0  0  0  0  0  0  0  0
  198.4150  181.8652  157.2993 H   0  0  0  0  0  0  0  0  0  0  0  0
  196.0590  181.0322  156.9764 H   0  0  0  0  0  0  0  0  0  0  0  0
  194.1772  182.1968  157.9496 H   0  0  0  0  0  0  0  0  0  0  0  0
  194.5319  184.2793  159.2793 H   0  0  0  0  0  0  0  0  0  0  0  0
  200.8237  179.5234  156.6483 H   0  0  0  0  0  0  0  0  0  0  0  0
  1  2  1  0
  2  3  1  0
  2 30  2  0
  3  4  1  0
  3 27  2  0
  4  5  1  0
  4 25  1  0
  5  6  2  0
  5  7  1  0
  7  8  1  0
  7 24  2  0
  8  9  1  0
  9 10  1  0
  9 11  2  0
 11 12  1  0
 11 24  1  0
 12 13  1  0
 12 31  1  0
 13 14  1  0
 13 32  1  1
 13 33  1  0
 14 15  2  0
 14 19  1  0
 15 16  1  0
 15 34  1  0
 16 17  2  0
 16 20  1  0
 17 18  1  0
 17 35  1  0
 18 19  2  0
 18 36  1  0
 19 37  1  0
 20 21  1  0
 20 38  1  1
 20 39  1  0
 21 22  1  0
 21 23  1  0
 21 56  1  1
 22 40  1  6
 22 41  1  0
 22 42  1  0
 23 43  1  6
 23 44  1  0
 23 45  1  0
 24 46  1  0
 25 26  1  0
 25 47  1  1
 25 48  1  0
 26 49  1  1
 26 50  1  0
 26 51  1  0
 27 28  1  0
 27 52  1  0
 28 29  2  0
 28 53  1  0
 29 30  1  0
 29 54  1  0
 30 55  1  0
M  CHG  1  21   1
M  END
>  <s_epik_cmdline>  (742) 
J2VwaWtfcHl0aG9uJywgJy1waCcsICc3LjAwMDAwMCcsICctcGh0JywgJzIuMDAwMDAwJywgJy1tcycsICcxNicsICctdG4nLCAnOCcsICctbWEnLCAnMjAwJywgJy1pbWFlJywgJzxpbmZpbGUubWFlPicsICctb21hZScsICc8b3V0ZmlsZS5tYWU+Jw==

>  <s_epik_input>  (742) 
W2NIXTFbY0hdW2NIXVtjSF1jKGMxQ2wpTihbQ0gyXVtDSDNdKUMoPU8pYzJzYyhDbCljKFtjSF0yKVtOSF1bQ0gyXWMzW2NIXWMoW2NIXVtjSF1bY0hdMylbQ0gyXU4oW0NIM10pW0NIM10=

>  <s_i_glide_gridfile>  (742) 
ATP-Grid

>  <s_lp_Force_Field>  (742) 
OPLS_2005

>  <s_lp_Variant>  (742) 
rxn512b____EMOL31407316____EMOL44846536____EMOL2873214-1

>  <s_lp_label>  (742) 
2319_sdstereoexpander_1_neutralizer_1_epik_1_stereoizer_1

>  <s_m_source_file>  (742) 
ATP-VSW-LIGPREP-003-in.maegz

>  <s_sd_BIOSOLVEIT.INFINISEE\_QUERY\_NAME>  (742) 
Ref-Lig

>  <s_sd_BIOSOLVEIT.INFINISEE\_QUERY\_SMILES>  (742) 
S(c1nc2c(cc1C[NH2+]Cc3ccc(cc3)C[NH+](C)C)cccc2)Cc4ccccc4

>  <s_sd_BIOSOLVEIT.INFINISEE\_REACTION\_NAME>  (742) 
rxn512b

>  <s_sd_BIOSOLVEIT.INFINISEE\_REAGENT1\_NAME>  (742) 
EMOL31407316

>  <s_sd_BIOSOLVEIT.INFINISEE\_REAGENT1\_SMILES>  (742) 
Clc1c(NCC)cccc1

>  <s_sd_BIOSOLVEIT.INFINISEE\_REAGENT2\_NAME>  (742) 
EMOL44846536

>  <s_sd_BIOSOLVEIT.INFINISEE\_REAGENT2\_SMILES>  (742) 
BrC1=C(Cl)SC(C(=O)O)=C1

>  <s_sd_BIOSOLVEIT.INFINISEE\_REAGENT3\_NAME>  (742) 
EMOL2873214

>  <s_sd_BIOSOLVEIT.INFINISEE\_REAGENT3\_SMILES>  (742) 
N(Cc1cc(ccc1)CN)(C)C

>  <s_sd_BIOSOLVEIT.INFINISEE\_SPACE>  (742) 
eXplore_7tr_2022-12

>  <s_vsw_compound_code>  (742) 
74179

>  <s_vsw_variant>  (742) 
74179-1

>  <r_epik_Charging_Adjusted_Penalty>  (742) 
0.086140609825027206

>  <r_epik_Ionization_Penalty>  (742) 
0.043200000000000002

>  <r_epik_Ionization_Penalty_Charging>  (742) 
0.043099999999999999

>  <r_epik_Ionization_Penalty_Neutral>  (742) 
0.0001

>  <r_epik_State_Penalty>  (742) 
0.043099999999999999

>  <r_i_docking_score>  (742) 
-3.69780098901514

>  <r_i_glide_ecoul>  (742) 
-7.7243680953979501

>  <r_i_glide_eff_state_penalty>  (742) 
0.043099999999999999

>  <r_i_glide_einternal>  (742) 
3.493807554245

>  <r_i_glide_emodel>  (742) 
-50.2301543821306

>  <r_i_glide_energy>  (742) 
-39.768080711364703

>  <r_i_glide_erotb>  (742) 
0.65677567333271103

>  <r_i_glide_esite>  (742) 
-0.047349378467107801

>  <r_i_glide_evdw>  (742) 
-32.043712615966797

>  <r_i_glide_gscore>  (742) 
-3.7409009890151399

>  <r_i_glide_hbond>  (742) 
0

>  <r_i_glide_ligand_efficiency>  (742) 
-0.123260032967171

>  <r_i_glide_ligand_efficiency_ln>  (742) 
-0.84018067547305197

>  <r_i_glide_ligand_efficiency_sa>  (742) 
-0.382997580686322

>  <r_i_glide_lipo>  (742) 
-1.0577982615535

>  <r_i_glide_metal>  (742) 
-0

>  <r_i_glide_rewards>  (742) 
-0.53168817721920703

>  <r_lp_Energy>  (742) 
34.784089999999999

>  <r_lp_tautomer_probability>  (742) 
0.99999274205267796

>  <r_qp_ACxDN^.5/SA>  (742) 
0.0091552999999999999

>  <r_qp_CIQPlogS>  (742) 
-5.1459999999999999

>  <r_qp_EA(eV)>  (742) 
0.63700000000000001

>  <r_qp_FISA>  (742) 
47.231999999999999

>  <r_qp_FOSA>  (742) 
298.67500000000001

>  <r_qp_IP(eV)>  (742) 
8.298

>  <r_qp_Jm>  (742) 
0.0043855251430832002

>  <r_qp_PISA>  (742) 
169.99299999999999

>  <r_qp_PSA>  (742) 
42.991

>  <r_qp_PercentHumanOralAbsorption>  (742) 
93.817999999999998

>  <r_qp_QPPCaco>  (742) 
219.68299999999999

>  <r_qp_QPPMDCK>  (742) 
683.33600000000001

>  <r_qp_QPlogBB>  (742) 
0.81000000000000005

>  <r_qp_QPlogHERG>  (742) 
-5.8070000000000004

>  <r_qp_QPlogKhsa>  (742) 
0.63800000000000001

>  <r_qp_QPlogKp>  (742) 
-5.1479999999999997

>  <r_qp_QPlogPC16>  (742) 
12.956

>  <r_qp_QPlogPo/w>  (742) 
4.2629999999999999

>  <r_qp_QPlogPoct>  (742) 
19.846

>  <r_qp_QPlogPw>  (742) 
8.4329999999999998

>  <r_qp_QPlogS>  (742) 
-2.875

>  <r_qp_QPpolrz>  (742) 
42.064

>  <r_qp_SASA>  (742) 
655.36099999999999

>  <r_qp_SAamideO>  (742) 
0

>  <r_qp_SAfluorine>  (742) 
0

>  <r_qp_WPSA>  (742) 
139.46000000000001

>  <r_qp_accptHB>  (742) 
6

>  <r_qp_dip^2/V>  (742) 
0.070564500000000002

>  <r_qp_dipole>  (742) 
9.5510000000000002

>  <r_qp_donorHB>  (742) 
1

>  <r_qp_glob>  (742) 
0.87565539999999997

>  <r_qp_mol_MW>  (742) 
462.43599999999998

>  <r_qp_volume>  (742) 
1292.626

>  <r_sd_BIOSOLVEIT.INFINISEE\_FTREES\_SIMILARITY>  (742) 
0.92200000000000004

>  <r_sd_BIOSOLVEIT.LOGP>  (742) 
4.9782000000000002

>  <r_sd_BIOSOLVEIT.MOLECULAR\_WEIGHT>  (742) 
463.44900000000001

>  <r_sd_BIOSOLVEIT.TPSA>  (742) 
36.780000000000001

>  <i_epik_Tot_Q>  (742) 
1

>  <i_epik_Tot_abs_Q>  (742) 
1

>  <i_f3d_flags>  (742) 
0

>  <i_i_glide_confnum>  (742) 
3

>  <i_i_glide_lignum>  (742) 
959

>  <i_i_glide_posenum>  (742) 
3

>  <i_i_glide_rotatable_bonds>  (742) 
9

>  <i_lp_mmshare_version>  (742) 
65135

>  <i_m_ct_format>  (742) 
2

>  <i_m_source_file_index>  (742) 
2319

>  <i_qp_#NandO>  (742) 
4

>  <i_qp_#acid>  (742) 
0

>  <i_qp_#amide>  (742) 
0

>  <i_qp_#amidine>  (742) 
0

>  <i_qp_#amine>  (742) 
2

>  <i_qp_#in34>  (742) 
0

>  <i_qp_#in56>  (742) 
17

>  <i_qp_#metab>  (742) 
6

>  <i_qp_#nonHatm>  (742) 
30

>  <i_qp_#noncon>  (742) 
0

>  <i_qp_#ringatoms>  (742) 
17

>  <i_qp_#rotor>  (742) 
8

>  <i_qp_#rtvFG>  (742) 
0

>  <i_qp_#stars>  (742) 
0

>  <i_qp_CNS>  (742) 
2

>  <i_qp_HumanOralAbsorption>  (742) 
3

>  <i_qp_RuleOfFive>  (742) 
0

>  <i_qp_RuleOfThree>  (742) 
0

>  <i_sd_BIOSOLVEIT.INFINISEE\_RESULT\_RANK>  (742) 
13199

>  <i_sd_version>  (742) 
0

>  <b_lp_Chiralities_Consistent>  (742) 
1

>  <b_sd_chiral_flag>  (742) 
0

>  <canonical_id>  (742) 
ATP-HTVS-7418424385E1

>  <compound_code>  (742) 
74179

>  <title>  (742) 
rxn512b____EMOL31407316____EMOL44846536____EMOL2873214

>  <variant>  (742) 
74179-1

>  <source_file>  (742) 
运行/运行/ATP-VSW/ATP-VSW-DOCK_HTVS_1-003_lib/ATP-VSW-DOCK_HTVS_1-003_lib.mae

>  <canonical_smiles>  (742) 
CCN(C(=O)c1cc(NCc2cccc(C[NH+](C)C)c2)c(Cl)s1)c1ccccc1Cl

>  <scaffold>  (742) 
O=C(Nc1ccccc1)c1cc(NCc2ccccc2)cs1

>  <molecular_formula>  (742) 
C23H26Cl2N3OS+

$$$$
ATP-HTVS-74641C70E223
     RDKit          3D

 51 54  0  0  0  0  0  0  0  0999 V2000
  196.0756  183.8292  150.7379 Cl  0  0  0  0  0  0  0  0  0  0  0  0
  197.2892  182.7657  150.1062 C   0  0  0  0  0  0  0  0  0  0  0  0
  197.8516  183.0379  148.8375 C   0  0  0  0  0  0  0  0  0  0  0  0
  197.3742  184.4315  147.9334 Cl  0  0  0  0  0  0  0  0  0  0  0  0
  198.7936  182.1572  148.2742 C   0  0  0  0  0  0  0  0  0  0  0  0
  199.1820  180.9983  148.9685 C   0  0  0  0  0  0  0  0  0  0  0  0
  198.6366  180.7268  150.2356 C   0  0  0  0  0  0  0  0  0  0  0  0
  197.7027  181.6098  150.8220 C   0  0  0  0  0  0  0  0  0  0  0  0
  197.1782  181.2795  152.1879 C   0  0  0  0  0  0  0  0  0  0  0  0
  196.6409  180.1899  152.3874 O   0  0  0  0  0  0  0  0  0  0  0  0
  197.4090  182.2195  153.1240 N   0  0  0  0  0  0  0  0  0  0  0  0
  197.1590  182.1800  154.5309 C   0  0  0  0  0  0  0  0  0  0  0  0
  197.3679  183.3603  155.2994 C   0  0  0  0  0  0  0  0  0  0  0  0
  197.8009  184.5507  154.6842 N   0  0  0  0  0  0  0  0  0  0  0  0
  199.2437  184.7197  154.4700 C   0  0  2  0  0  0  0  0  0  0  0  0
  199.9793  184.6929  155.7484 C   0  0  0  0  0  0  0  0  0  0  0  0
  200.5515  184.6713  156.7537 N   0  0  0  0  0  0  0  0  0  0  0  0
  199.6327  185.9655  153.6819 C   0  0  0  0  0  0  0  0  0  0  0  0
  199.2215  187.2484  154.1095 C   0  0  0  0  0  0  0  0  0  0  0  0
  199.5541  188.3908  153.3570 C   0  0  0  0  0  0  0  0  0  0  0  0
  200.3177  188.2590  152.1814 C   0  0  0  0  0  0  0  0  0  0  0  0
  200.7395  186.9845  151.7561 C   0  0  0  0  0  0  0  0  0  0  0  0
  200.3971  185.8407  152.5033 C   0  0  0  0  0  0  0  0  0  0  0  0
  196.7953  185.2390  153.8809 C   0  0  2  0  0  0  0  0  0  0  0  0
  197.1109  183.3393  156.6978 C   0  0  0  0  0  0  0  0  0  0  0  0
  196.6522  182.1388  157.2912 C   0  0  0  0  0  0  0  0  0  0  0  0
  196.4967  181.0373  156.5315 N   0  0  0  0  0  0  0  0  0  0  0  0
  196.7252  181.0094  155.2067 C   0  0  0  0  0  0  0  0  0  0  0  0
  196.3716  182.0858  158.6677 C   0  0  0  0  0  0  0  0  0  0  0  0
  196.5658  183.2209  159.4747 C   0  0  0  0  0  0  0  0  0  0  0  0
  197.0304  184.4171  158.9056 C   0  0  0  0  0  0  0  0  0  0  0  0
  197.2874  184.4808  157.5219 C   0  0  0  0  0  0  0  0  0  0  0  0
  199.2060  182.3592  147.2964 H   0  0  0  0  0  0  0  0  0  0  0  0
  199.9010  180.3202  148.5313 H   0  0  0  0  0  0  0  0  0  0  0  0
  198.9540  179.8404  150.7683 H   0  0  0  0  0  0  0  0  0  0  0  0
  197.8156  183.0816  152.7898 H   0  0  0  0  0  0  0  0  0  0  0  0
  199.5909  183.8436  153.9205 H   0  0  0  0  0  0  0  0  0  0  0  0
  198.6185  187.3563  154.9997 H   0  0  0  0  0  0  0  0  0  0  0  0
  199.2200  189.3655  153.6805 H   0  0  0  0  0  0  0  0  0  0  0  0
  200.5803  189.1354  151.6073 H   0  0  0  0  0  0  0  0  0  0  0  0
  201.3282  186.8833  150.8560 H   0  0  0  0  0  0  0  0  0  0  0  0
  200.7233  184.8683  152.1655 H   0  0  0  0  0  0  0  0  0  0  0  0
  195.9532  184.5979  153.6590 H   0  0  0  0  0  0  0  0  0  0  0  0
  197.1915  185.5728  152.9220 H   0  0  0  0  0  0  0  0  0  0  0  0
  196.4237  186.0988  154.4377 H   0  0  0  0  0  0  0  0  0  0  0  0
  196.5219  180.0533  154.7500 H   0  0  0  0  0  0  0  0  0  0  0  0
  196.0429  181.1561  159.1196 H   0  0  0  0  0  0  0  0  0  0  0  0
  196.3837  183.1588  160.5360 H   0  0  0  0  0  0  0  0  0  0  0  0
  197.1959  185.2839  159.5327 H   0  0  0  0  0  0  0  0  0  0  0  0
  197.6413  185.4129  157.1112 H   0  0  0  0  0  0  0  0  0  0  0  0
  196.1489  180.1562  157.0195 H   0  0  0  0  0  0  0  0  0  0  0  0
  1  2  1  0
  2  3  2  0
  2  8  1  0
  3  4  1  0
  3  5  1  0
  5  6  2  0
  5 33  1  0
  6  7  1  0
  6 34  1  0
  7  8  2  0
  7 35  1  0
  8  9  1  0
  9 10  2  0
  9 11  1  0
 11 12  1  0
 11 36  1  0
 12 13  2  0
 12 28  1  0
 13 14  1  0
 13 25  1  0
 14 15  1  0
 14 24  1  0
 15 16  1  0
 15 18  1  0
 15 37  1  6
 16 17  3  0
 18 19  2  0
 18 23  1  0
 19 20  1  0
 19 38  1  0
 20 21  2  0
 20 39  1  0
 21 22  1  0
 21 40  1  0
 22 23  2  0
 22 41  1  0
 23 42  1  0
 24 43  1  6
 24 44  1  0
 24 45  1  0
 25 26  1  0
 25 32  2  0
 26 27  1  0
 26 29  2  0
 27 28  2  0
 27 51  1  0
 28 46  1  0
 29 30  1  0
 29 47  1  0
 30 31  2  0
 30 48  1  0
 31 32  1  0
 31 49  1  0
 32 50  1  0
M  CHG  1  27   1
M  END
>  <s_epik_cmdline>  (743) 
J2VwaWtfcHl0aG9uJywgJy1waCcsICc3LjAwMDAwMCcsICctcGh0JywgJzIuMDAwMDAwJywgJy1tcycsICcxNicsICctdG4nLCAnOCcsICctbWEnLCAnMjAwJywgJy1pbWFlJywgJzxpbmZpbGUubWFlPicsICctb21hZScsICc8b3V0ZmlsZS5tYWU+Jw==

>  <s_epik_input>  (743) 
Q2xjMWMoQ2wpW2NIXVtjSF1bY0hdYzFDKD1PKVtOSF1jKFtjSF1uYyhjMjMpW2NIXVtjSF1bY0hdW2NIXTMpYzJOKFtDSDNdKVtDQEhdKEMjTiljNFtjSF1bY0hdW2NIXVtjSF1bY0hdNA==

>  <s_i_glide_gridfile>  (743) 
ATP-Grid

>  <s_lp_Force_Field>  (743) 
OPLS_2005

>  <s_lp_Variant>  (743) 
rxn502b____EMOL489760____EMOL30488121____EMOL24630243-2

>  <s_lp_label>  (743) 
2840_sdstereoexpander_2_neutralizer_1_epik_1_stereoizer_1

>  <s_m_source_file>  (743) 
ATP-VSW-LIGPREP-002-in.maegz

>  <s_sd_BIOSOLVEIT.INFINISEE\_QUERY\_NAME>  (743) 
Ref-Lig

>  <s_sd_BIOSOLVEIT.INFINISEE\_QUERY\_SMILES>  (743) 
S(c1nc2c(cc1C[NH2+]Cc3ccc(cc3)C[NH+](C)C)cccc2)Cc4ccccc4

>  <s_sd_BIOSOLVEIT.INFINISEE\_REACTION\_NAME>  (743) 
rxn502b

>  <s_sd_BIOSOLVEIT.INFINISEE\_REAGENT1\_NAME>  (743) 
EMOL489760

>  <s_sd_BIOSOLVEIT.INFINISEE\_REAGENT1\_SMILES>  (743) 
Clc1c(Cl)cccc1C(=O)O

>  <s_sd_BIOSOLVEIT.INFINISEE\_REAGENT2\_NAME>  (743) 
EMOL30488121

>  <s_sd_BIOSOLVEIT.INFINISEE\_REAGENT2\_SMILES>  (743) 
Brc1c(N)cnc2c1cccc2

>  <s_sd_BIOSOLVEIT.INFINISEE\_REAGENT3\_NAME>  (743) 
EMOL24630243

>  <s_sd_BIOSOLVEIT.INFINISEE\_REAGENT3\_SMILES>  (743) 
N#CC(NC)c1ccccc1

>  <s_sd_BIOSOLVEIT.INFINISEE\_SPACE>  (743) 
eXplore_7tr_2022-12

>  <s_vsw_compound_code>  (743) 
90850

>  <s_vsw_variant>  (743) 
90850-2

>  <r_epik_Charging_Adjusted_Penalty>  (743) 
0.24711713607581701

>  <r_epik_Ionization_Penalty>  (743) 
0.1239

>  <r_epik_Ionization_Penalty_Charging>  (743) 
0.1236

>  <r_epik_Ionization_Penalty_Neutral>  (743) 
0.00040000000000000002

>  <r_epik_State_Penalty>  (743) 
0.1236

>  <r_i_docking_score>  (743) 
-4.0712876006056602

>  <r_i_glide_ecoul>  (743) 
-10.0321245193481

>  <r_i_glide_eff_state_penalty>  (743) 
0.1236

>  <r_i_glide_einternal>  (743) 
2.0397460460662802

>  <r_i_glide_emodel>  (743) 
-55.841108687690003

>  <r_i_glide_energy>  (743) 
-41.443789482116699

>  <r_i_glide_erotb>  (743) 
0.56537921924877699

>  <r_i_glide_esite>  (743) 
-0.10959744943222299

>  <r_i_glide_evdw>  (743) 
-31.411664962768601

>  <r_i_glide_gscore>  (743) 
-4.1948876006056599

>  <r_i_glide_hbond>  (743) 
-0.129338642130545

>  <r_i_glide_ligand_efficiency>  (743) 
-0.12722773751892699

>  <r_i_glide_ligand_efficiency_ln>  (743) 
-0.911672272884124

>  <r_i_glide_ligand_efficiency_sa>  (743) 
-0.40392288828752698

>  <r_i_glide_lipo>  (743) 
-0.91595615264027297

>  <r_i_glide_metal>  (743) 
-0

>  <r_i_glide_rewards>  (743) 
-0.52997264961074997

>  <r_lp_Energy>  (743) 
43.477756999999997

>  <r_qp_ACxDN^.5/SA>  (743) 
0.0087820999999999993

>  <r_qp_CIQPlogS>  (743) 
-8.5190000000000001

>  <r_qp_EA(eV)>  (743) 
1.147

>  <r_qp_FISA>  (743) 
110.31100000000001

>  <r_qp_FOSA>  (743) 
45.228000000000002

>  <r_qp_IP(eV)>  (743) 
8.7650000000000006

>  <r_qp_Jm>  (743) 
0.0027496486165292898

>  <r_qp_PISA>  (743) 
453.41899999999998

>  <r_qp_PSA>  (743) 
68.613

>  <r_qp_PercentHumanOralAbsorption>  (743) 
100

>  <r_qp_QPPCaco>  (743) 
890.88800000000003

>  <r_qp_QPPMDCK>  (743) 
1113.95

>  <r_qp_QPlogBB>  (743) 
-0.66000000000000003

>  <r_qp_QPlogHERG>  (743) 
-6.2969999999999997

>  <r_qp_QPlogKhsa>  (743) 
0.70099999999999996

>  <r_qp_QPlogKp>  (743) 
-1.379

>  <r_qp_QPlogPC16>  (743) 
14.914

>  <r_qp_QPlogPo/w>  (743) 
4.9340000000000002

>  <r_qp_QPlogPoct>  (743) 
21.155000000000001

>  <r_qp_QPlogPw>  (743) 
11.275

>  <r_qp_QPlogS>  (743) 
-6.8460000000000001

>  <r_qp_QPpolrz>  (743) 
45.978999999999999

>  <r_qp_SASA>  (743) 
683.21000000000004

>  <r_qp_SAamideO>  (743) 
0

>  <r_qp_SAfluorine>  (743) 
0

>  <r_qp_WPSA>  (743) 
74.251999999999995

>  <r_qp_accptHB>  (743) 
6

>  <r_qp_dip^2/V>  (743) 
0.038838999999999999

>  <r_qp_dipole>  (743) 
7.0800000000000001

>  <r_qp_donorHB>  (743) 
1

>  <r_qp_glob>  (743) 
0.83914820000000001

>  <r_qp_mol_MW>  (743) 
461.34899999999999

>  <r_qp_volume>  (743) 
1290.748

>  <r_sd_BIOSOLVEIT.INFINISEE\_FTREES\_SIMILARITY>  (743) 
0.90600000000000003

>  <r_sd_BIOSOLVEIT.LOGP>  (743) 
6.49498

>  <r_sd_BIOSOLVEIT.MOLECULAR\_WEIGHT>  (743) 
461.35000000000002

>  <r_sd_BIOSOLVEIT.TPSA>  (743) 
69.019999999999996

>  <i_epik_Tot_Q>  (743) 
1

>  <i_epik_Tot_abs_Q>  (743) 
1

>  <i_f3d_flags>  (743) 
0

>  <i_i_glide_confnum>  (743) 
7

>  <i_i_glide_lignum>  (743) 
1398

>  <i_i_glide_posenum>  (743) 
13

>  <i_i_glide_rotatable_bonds>  (743) 
6

>  <i_lp_mmshare_version>  (743) 
65135

>  <i_m_ct_format>  (743) 
2

>  <i_m_source_file_index>  (743) 
2840

>  <i_qp_#NandO>  (743) 
5

>  <i_qp_#acid>  (743) 
0

>  <i_qp_#amide>  (743) 
0

>  <i_qp_#amidine>  (743) 
0

>  <i_qp_#amine>  (743) 
0

>  <i_qp_#in34>  (743) 
0

>  <i_qp_#in56>  (743) 
22

>  <i_qp_#metab>  (743) 
4

>  <i_qp_#nonHatm>  (743) 
32

>  <i_qp_#noncon>  (743) 
0

>  <i_qp_#ringatoms>  (743) 
22

>  <i_qp_#rotor>  (743) 
6

>  <i_qp_#rtvFG>  (743) 
0

>  <i_qp_#stars>  (743) 
2

>  <i_qp_CNS>  (743) 
0

>  <i_qp_HumanOralAbsorption>  (743) 
1

>  <i_qp_RuleOfFive>  (743) 
0

>  <i_qp_RuleOfThree>  (743) 
1

>  <i_sd_BIOSOLVEIT.INFINISEE\_RESULT\_RANK>  (743) 
67609

>  <i_sd_version>  (743) 
0

>  <b_lp_Chiralities_Consistent>  (743) 
1

>  <b_sd_chiral_flag>  (743) 
0

>  <canonical_id>  (743) 
ATP-HTVS-74641C70E223

>  <compound_code>  (743) 
90850

>  <title>  (743) 
rxn502b____EMOL489760____EMOL30488121____EMOL24630243

>  <variant>  (743) 
90850-2

>  <source_file>  (743) 
运行/运行/ATP-VSW/ATP-VSW-DOCK_HTVS_1-002_lib.maegz

>  <canonical_smiles>  (743) 
CN(c1c(NC(=O)c2cccc(Cl)c2Cl)c[nH+]c2ccccc12)[C@H](C#N)c1ccccc1

>  <scaffold>  (743) 
O=C(Nc1c[nH+]c2ccccc2c1NCc1ccccc1)c1ccccc1

>  <molecular_formula>  (743) 
C25H19Cl2N4O+

$$$$
ATP-HTVS-74C5B06FA80B
     RDKit          3D

 62 65  0  0  0  0  0  0  0  0999 V2000
  197.1776  179.4723  152.8784 O   0  0  0  0  0  0  0  0  0  0  0  0
  197.3047  180.4132  153.6620 C   0  0  0  0  0  0  0  0  0  0  0  0
  197.6153  180.3805  154.9775 N   0  0  0  0  0  0  0  0  0  0  0  0
  197.6437  181.7207  155.6025 C   0  0  1  0  0  0  0  0  0  0  0  0
  197.4606  182.6295  154.4078 C   0  0  0  0  0  0  0  0  0  0  0  0
  197.2514  181.8466  153.2880 C   0  0  0  0  0  0  0  0  0  0  0  0
  197.0681  182.3988  152.0121 C   0  0  0  0  0  0  0  0  0  0  0  0
  197.0784  183.8101  151.9002 C   0  0  0  0  0  0  0  0  0  0  0  0
  197.2757  184.6188  153.0481 C   0  0  0  0  0  0  0  0  0  0  0  0
  197.4812  184.0366  154.3194 C   0  0  0  0  0  0  0  0  0  0  0  0
  196.5000  181.8642  156.6238 C   0  0  1  0  0  0  0  0  0  0  0  0
  196.5750  183.1136  157.3643 N   0  0  0  0  0  0  0  0  0  0  0  0
  195.8603  183.3796  158.4645 C   0  0  0  0  0  0  0  0  0  0  0  0
  195.0099  182.6278  158.9341 O   0  0  0  0  0  0  0  0  0  0  0  0
  196.1305  184.7146  159.0966 C   0  0  0  0  0  0  0  0  0  0  0  0
  195.1404  185.3324  159.8907 C   0  0  0  0  0  0  0  0  0  0  0  0
  195.3823  186.5819  160.4927 C   0  0  0  0  0  0  0  0  0  0  0  0
  196.6197  187.2244  160.3006 C   0  0  0  0  0  0  0  0  0  0  0  0
  197.6247  186.5949  159.5399 C   0  0  0  0  0  0  0  0  0  0  0  0
  197.3847  185.3512  158.9376 C   0  0  0  0  0  0  0  0  0  0  0  0
  196.8849  188.5769  160.9222 C   0  0  1  0  0  0  0  0  0  0  0  0
  196.4567  189.7163  160.0670 N   0  0  1  0  0  0  0  0  0  0  0  0
  196.6653  191.0341  160.7225 C   0  0  1  0  0  0  0  0  0  0  0  0
  195.8237  191.2365  161.9968 C   0  0  2  0  0  0  0  0  0  0  0  0
  197.0723  189.7001  158.7124 C   0  0  2  0  0  0  0  0  0  0  0  0
  198.0769  179.2049  155.7236 C   0  0  1  0  0  0  0  0  0  0  0  0
  199.4151  178.6094  155.2740 C   0  0  0  0  0  0  0  0  0  0  0  0
  200.2912  179.2791  154.3869 C   0  0  0  0  0  0  0  0  0  0  0  0
  201.4974  178.6746  153.9830 C   0  0  0  0  0  0  0  0  0  0  0  0
  201.8586  177.4103  154.4837 C   0  0  0  0  0  0  0  0  0  0  0  0
  201.0091  176.7486  155.3887 C   0  0  0  0  0  0  0  0  0  0  0  0
  199.7935  177.3479  155.7817 C   0  0  0  0  0  0  0  0  0  0  0  0
  198.6186  181.8797  156.0634 H   0  0  0  0  0  0  0  0  0  0  0  0
  196.9366  181.7678  151.1441 H   0  0  0  0  0  0  0  0  0  0  0  0
  196.9254  184.2699  150.9359 H   0  0  0  0  0  0  0  0  0  0  0  0
  197.2545  185.6967  152.9511 H   0  0  0  0  0  0  0  0  0  0  0  0
  197.6253  184.6567  155.1900 H   0  0  0  0  0  0  0  0  0  0  0  0
  195.5452  181.7962  156.1094 H   0  0  0  0  0  0  0  0  0  0  0  0
  196.5438  181.0410  157.3396 H   0  0  0  0  0  0  0  0  0  0  0  0
  197.2270  183.8079  157.0379 H   0  0  0  0  0  0  0  0  0  0  0  0
  194.1734  184.8597  160.0264 H   0  0  0  0  0  0  0  0  0  0  0  0
  194.6075  187.0509  161.0846 H   0  0  0  0  0  0  0  0  0  0  0  0
  198.5859  187.0728  159.4076 H   0  0  0  0  0  0  0  0  0  0  0  0
  198.1763  184.9087  158.3463 H   0  0  0  0  0  0  0  0  0  0  0  0
  196.3529  188.5921  161.8669 H   0  0  0  0  0  0  0  0  0  0  0  0
  197.9475  188.6409  161.1524 H   0  0  0  0  0  0  0  0  0  0  0  0
  197.7235  191.1523  160.9596 H   0  0  0  0  0  0  0  0  0  0  0  0
  196.4368  191.8201  160.0078 H   0  0  0  0  0  0  0  0  0  0  0  0
  195.9461  192.2365  162.3970 H   0  0  0  0  0  0  0  0  0  0  0  0
  196.1156  190.5743  162.8085 H   0  0  0  0  0  0  0  0  0  0  0  0
  194.7666  191.0911  161.7952 H   0  0  0  0  0  0  0  0  0  0  0  0
  198.1589  189.7654  158.7900 H   0  0  0  0  0  0  0  0  0  0  0  0
  196.7256  190.5392  158.1097 H   0  0  0  0  0  0  0  0  0  0  0  0
  196.8192  188.7956  158.1546 H   0  0  0  0  0  0  0  0  0  0  0  0
  198.1815  179.4704  156.7762 H   0  0  0  0  0  0  0  0  0  0  0  0
  197.3034  178.4343  155.6938 H   0  0  0  0  0  0  0  0  0  0  0  0
  200.0664  180.2590  153.9916 H   0  0  0  0  0  0  0  0  0  0  0  0
  202.1392  179.1890  153.2852 H   0  0  0  0  0  0  0  0  0  0  0  0
  202.7930  176.9572  154.1780 H   0  0  0  0  0  0  0  0  0  0  0  0
  201.2883  175.7823  155.7838 H   0  0  0  0  0  0  0  0  0  0  0  0
  199.1488  176.8345  156.4828 H   0  0  0  0  0  0  0  0  0  0  0  0
  195.4592  189.5963  159.9281 H   0  0  0  0  0  0  0  0  0  0  0  0
  1  2  2  0
  2  3  1  0
  2  6  1  0
  3  4  1  0
  3 26  1  0
  4  5  1  0
  4 11  1  0
  4 33  1  1
  5  6  1  0
  5 10  2  0
  6  7  2  0
  7  8  1  0
  7 34  1  0
  8  9  2  0
  8 35  1  0
  9 10  1  0
  9 36  1  0
 10 37  1  0
 11 12  1  0
 11 38  1  6
 11 39  1  0
 12 13  1  0
 12 40  1  0
 13 14  2  0
 13 15  1  0
 15 16  1  0
 15 20  2  0
 16 17  2  0
 16 41  1  0
 17 18  1  0
 17 42  1  0
 18 19  2  0
 18 21  1  0
 19 20  1  0
 19 43  1  0
 20 44  1  0
 21 22  1  0
 21 45  1  1
 21 46  1  0
 22 23  1  0
 22 25  1  0
 22 62  1  6
 23 24  1  0
 23 47  1  1
 23 48  1  0
 24 49  1  1
 24 50  1  0
 24 51  1  0
 25 52  1  1
 25 53  1  0
 25 54  1  0
 26 27  1  0
 26 55  1  1
 26 56  1  0
 27 28  2  0
 27 32  1  0
 28 29  1  0
 28 57  1  0
 29 30  2  0
 29 58  1  0
 30 31  1  0
 30 59  1  0
 31 32  2  0
 31 60  1  0
 32 61  1  0
M  CHG  1  22   1
M  END
>  <s_epik_cmdline>  (744) 
J2VwaWtfcHl0aG9uJywgJy1waCcsICc3LjAwMDAwMCcsICctcGh0JywgJzIuMDAwMDAwJywgJy1tcycsICcxNicsICctdG4nLCAnOCcsICctbWEnLCAnMjAwJywgJy1pbWFlJywgJzxpbmZpbGUubWFlPicsICctb21hZScsICc8b3V0ZmlsZS5tYWU+Jw==

>  <s_epik_input>  (744) 
W2NIXTFbY0hdW2NIXVtjSF1bY0hdYzFbQ0gyXU4oQyg9TyljKGMyMylbY0hdW2NIXVtjSF1bY0hdMylbQ0BASF0yW0NIMl1bTkhdQyg9TyljNFtjSF1bY0hdYyhbY0hdW2NIXTQpW0NIMl1OKFtDSDNdKVtDSDJdW0NIM10=

>  <s_i_glide_gridfile>  (744) 
ATP-Grid

>  <s_lp_Force_Field>  (744) 
OPLS_2005

>  <s_lp_Variant>  (744) 
m_22bbg____12219680____24598008-3

>  <s_lp_label>  (744) 
1105_sdstereoexpander_2_neutralizer_1_epik_1_stereoizer_1

>  <s_m_source_file>  (744) 
ATP-VSW-LIGPREP-003-in.maegz

>  <s_sd_BIOSOLVEIT.INFINISEE\_QUERY\_NAME>  (744) 
Ref-Lig

>  <s_sd_BIOSOLVEIT.INFINISEE\_QUERY\_SMILES>  (744) 
S(c1nc2c(cc1C[NH2+]Cc3ccc(cc3)C[NH+](C)C)cccc2)Cc4ccccc4

>  <s_sd_BIOSOLVEIT.INFINISEE\_REACTION\_NAME>  (744) 
m_22bbg

>  <s_sd_BIOSOLVEIT.INFINISEE\_REAGENT1\_SMILES>  (744) 
[R1*]NCC1N(C(=O)c2c1cccc2)Cc3ccccc3

>  <s_sd_BIOSOLVEIT.INFINISEE\_REAGENT2\_SMILES>  (744) 
[R1*]C(=O)c1ccc(cc1)CN(CC)C

>  <s_sd_BIOSOLVEIT.INFINISEE\_SPACE>  (744) 
REALSpace_44bn_2023-08

>  <s_vsw_compound_code>  (744) 
35331

>  <s_vsw_variant>  (744) 
35331-3

>  <r_epik_Charging_Adjusted_Penalty>  (744) 
0.068160882338332895

>  <r_epik_Ionization_Penalty>  (744) 
0.034099999999999998

>  <r_epik_Ionization_Penalty_Charging>  (744) 
0.034099999999999998

>  <r_epik_Ionization_Penalty_Neutral>  (744) 
0

>  <r_epik_State_Penalty>  (744) 
0.034099999999999998

>  <r_i_docking_score>  (744) 
-4.0004861128807896

>  <r_i_glide_ecoul>  (744) 
-6.2140741348266602

>  <r_i_glide_eff_state_penalty>  (744) 
0.034099999999999998

>  <r_i_glide_einternal>  (744) 
1.4809807538986199

>  <r_i_glide_emodel>  (744) 
-60.2913953650556

>  <r_i_glide_energy>  (744) 
-46.8591661453247

>  <r_i_glide_erotb>  (744) 
0.86531819378929398

>  <r_i_glide_esite>  (744) 
-0.11934003093807

>  <r_i_glide_evdw>  (744) 
-40.645092010497997

>  <r_i_glide_gscore>  (744) 
-4.0345861128807901

>  <r_i_glide_hbond>  (744) 
0

>  <r_i_glide_ligand_efficiency>  (744) 
-0.12501519102752501

>  <r_i_glide_ligand_efficiency_ln>  (744) 
-0.89581788980686095

>  <r_i_glide_ligand_efficiency_sa>  (744) 
-0.396898491039681

>  <r_i_glide_lipo>  (744) 
-1.3290121913467501

>  <r_i_glide_metal>  (744) 
-0

>  <r_i_glide_rewards>  (744) 
-0.48718636363636197

>  <r_lp_Energy>  (744) 
45.566930999999997

>  <r_qp_ACxDN^.5/SA>  (744) 
0.0093223999999999998

>  <r_qp_CIQPlogS>  (744) 
-5.0439999999999996

>  <r_qp_EA(eV)>  (744) 
0.47399999999999998

>  <r_qp_FISA>  (744) 
82.515000000000001

>  <r_qp_FOSA>  (744) 
281.43900000000002

>  <r_qp_IP(eV)>  (744) 
9.2729999999999997

>  <r_qp_Jm>  (744) 
0.0020138839677770002

>  <r_qp_PISA>  (744) 
440.56299999999999

>  <r_qp_PSA>  (744) 
69.269999999999996

>  <r_qp_PercentHumanOralAbsorption>  (744) 
100

>  <r_qp_QPPCaco>  (744) 
407.67500000000001

>  <r_qp_QPPMDCK>  (744) 
207.50399999999999

>  <r_qp_QPlogBB>  (744) 
-0.44700000000000001

>  <r_qp_QPlogHERG>  (744) 
-8.0730000000000004

>  <r_qp_QPlogKhsa>  (744) 
0.70399999999999996

>  <r_qp_QPlogKp>  (744) 
-2.7829999999999999

>  <r_qp_QPlogPC16>  (744) 
15.808

>  <r_qp_QPlogPo/w>  (744) 
4.6420000000000003

>  <r_qp_QPlogPoct>  (744) 
23.077000000000002

>  <r_qp_QPlogPw>  (744) 
12.301

>  <r_qp_QPlogS>  (744) 
-5.5439999999999996

>  <r_qp_QPpolrz>  (744) 
50.993000000000002

>  <r_qp_SASA>  (744) 
804.51700000000005

>  <r_qp_SAamideO>  (744) 
0

>  <r_qp_SAfluorine>  (744) 
0

>  <r_qp_WPSA>  (744) 
0

>  <r_qp_accptHB>  (744) 
7.5

>  <r_qp_dip^2/V>  (744) 
0.053947799999999997

>  <r_qp_dipole>  (744) 
8.8480000000000008

>  <r_qp_donorHB>  (744) 
1

>  <r_qp_glob>  (744) 
0.77051480000000006

>  <r_qp_mol_MW>  (744) 
427.54500000000002

>  <r_qp_volume>  (744) 
1451.1969999999999

>  <r_sd_BIOSOLVEIT.INFINISEE\_FTREES\_SIMILARITY>  (744) 
0.91300000000000003

>  <r_sd_BIOSOLVEIT.LOGP>  (744) 
2.8483000000000001

>  <r_sd_BIOSOLVEIT.MOLECULAR\_WEIGHT>  (744) 
428.553

>  <r_sd_BIOSOLVEIT.TPSA>  (744) 
53.850000000000001

>  <i_epik_Tot_Q>  (744) 
1

>  <i_epik_Tot_abs_Q>  (744) 
1

>  <i_f3d_flags>  (744) 
0

>  <i_i_glide_confnum>  (744) 
2

>  <i_i_glide_lignum>  (744) 
424

>  <i_i_glide_posenum>  (744) 
17

>  <i_i_glide_rotatable_bonds>  (744) 
9

>  <i_lp_mmshare_version>  (744) 
65135

>  <i_m_ct_format>  (744) 
2

>  <i_m_source_file_index>  (744) 
1105

>  <i_qp_#NandO>  (744) 
5

>  <i_qp_#acid>  (744) 
0

>  <i_qp_#amide>  (744) 
0

>  <i_qp_#amidine>  (744) 
0

>  <i_qp_#amine>  (744) 
1

>  <i_qp_#in34>  (744) 
0

>  <i_qp_#in56>  (744) 
21

>  <i_qp_#metab>  (744) 
4

>  <i_qp_#nonHatm>  (744) 
32

>  <i_qp_#noncon>  (744) 
1

>  <i_qp_#ringatoms>  (744) 
21

>  <i_qp_#rotor>  (744) 
8

>  <i_qp_#rtvFG>  (744) 
0

>  <i_qp_#stars>  (744) 
0

>  <i_qp_CNS>  (744) 
1

>  <i_qp_HumanOralAbsorption>  (744) 
3

>  <i_qp_RuleOfFive>  (744) 
0

>  <i_qp_RuleOfThree>  (744) 
0

>  <i_sd_BIOSOLVEIT.INFINISEE\_REAGENT1\_NAME>  (744) 
12219680

>  <i_sd_BIOSOLVEIT.INFINISEE\_REAGENT2\_NAME>  (744) 
24598008

>  <i_sd_BIOSOLVEIT.INFINISEE\_RESULT\_RANK>  (744) 
33641

>  <i_sd_version>  (744) 
0

>  <b_lp_Chiralities_Consistent>  (744) 
1

>  <b_sd_chiral_flag>  (744) 
0

>  <canonical_id>  (744) 
ATP-HTVS-74C5B06FA80B

>  <compound_code>  (744) 
35331

>  <title>  (744) 
m_22bbg____12219680____24598008

>  <variant>  (744) 
35331-3

>  <source_file>  (744) 
运行/运行/ATP-VSW/ATP-VSW-DOCK_HTVS_1-003_lib/ATP-VSW-DOCK_HTVS_1-003_lib.mae

>  <canonical_smiles>  (744) 
CC[N@@H+](C)Cc1ccc(C(=O)NC[C@@H]2c3ccccc3C(=O)N2Cc2ccccc2)cc1

>  <scaffold>  (744) 
O=C(NCC1c2ccccc2C(=O)N1Cc1ccccc1)c1ccccc1

>  <molecular_formula>  (744) 
C27H30N3O2+

$$$$
ATP-HTVS-74E2CC654FC3
     RDKit          3D

 61 64  0  0  0  0  0  0  0  0999 V2000
  198.4329  179.4398  153.4745 S   0  0  0  0  0  0  0  0  0  0  0  0
  199.5802  179.3493  154.8029 C   0  0  0  0  0  0  0  0  0  0  0  0
  199.2834  180.3238  155.8198 C   0  0  0  0  0  0  0  0  0  0  0  0
  200.1803  180.3553  156.9256 C   0  0  0  0  0  0  0  0  0  0  0  0
  201.2610  179.4646  157.0412 C   0  0  0  0  0  0  0  0  0  0  0  0
  201.5116  178.5171  156.0339 C   0  0  0  0  0  0  0  0  0  0  0  0
  200.6714  178.4628  154.9080 C   0  0  0  0  0  0  0  0  0  0  0  0
  198.0898  181.1059  155.4726 C   0  0  0  0  0  0  0  0  0  0  0  0
  197.5333  182.1262  156.2845 N   0  0  0  0  0  0  0  0  0  0  0  0
  197.6216  182.0780  157.7330 C   0  0  1  0  0  0  0  0  0  0  0  0
  196.7550  183.0913  158.4382 C   0  0  0  0  0  0  0  0  0  0  0  0
  195.3639  182.9041  158.5160 C   0  0  0  0  0  0  0  0  0  0  0  0
  194.5736  183.8379  159.2124 C   0  0  0  0  0  0  0  0  0  0  0  0
  195.1684  184.9556  159.8398 C   0  0  0  0  0  0  0  0  0  0  0  0
  194.3387  185.8230  160.5597 N   0  0  0  0  0  0  0  0  0  0  0  0
  194.8188  187.0763  161.1153 C   0  0  1  0  0  0  0  0  0  0  0  0
  193.7112  187.7934  161.9005 C   0  0  1  0  0  0  0  0  0  0  0  0
  194.0720  189.1340  162.1219 O   0  0  0  0  0  0  0  0  0  0  0  0
  196.5637  185.1511  159.7369 C   0  0  0  0  0  0  0  0  0  0  0  0
  197.3512  184.2171  159.0401 C   0  0  0  0  0  0  0  0  0  0  0  0
  197.5643  180.7359  154.2475 C   0  0  0  0  0  0  0  0  0  0  0  0
  196.3440  181.2980  153.5682 C   0  0  1  0  0  0  0  0  0  0  0  0
  196.6619  182.2627  152.4978 N   0  0  0  0  0  0  0  0  0  0  0  0
  196.6697  181.8565  151.1956 C   0  0  0  0  0  0  0  0  0  0  0  0
  196.3420  180.7143  150.8555 O   0  0  0  0  0  0  0  0  0  0  0  0
  197.0887  182.8244  150.1163 C   0  0  0  0  0  0  0  0  0  0  0  0
  198.1003  182.5143  149.1438 C   0  0  0  0  0  0  0  0  0  0  0  0
  198.8001  181.2267  149.1045 C   0  0  0  0  0  0  0  0  0  0  0  0
  199.3506  180.1343  149.0272 C   0  0  0  0  0  0  0  0  0  0  0  0
  198.4569  183.4691  148.1643 C   0  0  0  0  0  0  0  0  0  0  0  0
  197.8281  184.7332  148.1326 C   0  0  0  0  0  0  0  0  0  0  0  0
  196.8219  185.0239  149.0678 C   0  0  0  0  0  0  0  0  0  0  0  0
  196.4201  184.0665  150.0240 C   0  0  0  0  0  0  0  0  0  0  0  0
  196.9841  183.6296  152.9753 C   0  0  2  0  0  0  0  0  0  0  0  0
  200.0582  181.0653  157.7225 H   0  0  0  0  0  0  0  0  0  0  0  0
  201.8995  179.5170  157.9110 H   0  0  0  0  0  0  0  0  0  0  0  0
  202.3403  177.8373  156.1316 H   0  0  0  0  0  0  0  0  0  0  0  0
  200.8711  177.7389  154.1268 H   0  0  0  0  0  0  0  0  0  0  0  0
  196.6640  182.5276  155.9498 H   0  0  0  0  0  0  0  0  0  0  0  0
  197.3732  181.0734  158.0839 H   0  0  0  0  0  0  0  0  0  0  0  0
  198.6345  182.3171  158.0405 H   0  0  0  0  0  0  0  0  0  0  0  0
  194.9158  182.0390  158.0437 H   0  0  0  0  0  0  0  0  0  0  0  0
  193.5054  183.6745  159.2603 H   0  0  0  0  0  0  0  0  0  0  0  0
  193.3490  185.6289  160.5760 H   0  0  0  0  0  0  0  0  0  0  0  0
  195.6705  186.8915  161.7709 H   0  0  0  0  0  0  0  0  0  0  0  0
  195.1659  187.6987  160.2922 H   0  0  0  0  0  0  0  0  0  0  0  0
  192.7698  187.7940  161.3492 H   0  0  0  0  0  0  0  0  0  0  0  0
  193.5370  187.2953  162.8520 H   0  0  0  0  0  0  0  0  0  0  0  0
  194.1221  189.5476  161.2829 H   0  0  0  0  0  0  0  0  0  0  0  0
  197.0488  185.9983  160.2003 H   0  0  0  0  0  0  0  0  0  0  0  0
  198.4185  184.3627  158.9821 H   0  0  0  0  0  0  0  0  0  0  0  0
  195.7562  180.4480  153.2106 H   0  0  0  0  0  0  0  0  0  0  0  0
  195.7041  181.7776  154.3110 H   0  0  0  0  0  0  0  0  0  0  0  0
  199.8120  179.1729  148.9724 H   0  0  0  0  0  0  0  0  0  0  0  0
  199.1970  183.2244  147.4084 H   0  0  0  0  0  0  0  0  0  0  0  0
  198.1138  185.4623  147.3785 H   0  0  0  0  0  0  0  0  0  0  0  0
  196.3474  185.9934  149.0402 H   0  0  0  0  0  0  0  0  0  0  0  0
  195.6120  184.2847  150.7178 H   0  0  0  0  0  0  0  0  0  0  0  0
  198.0708  183.7815  152.9166 H   0  0  0  0  0  0  0  0  0  0  0  0
  196.7447  183.7036  154.0478 H   0  0  0  0  0  0  0  0  0  0  0  0
  196.4386  184.3829  152.4356 H   0  0  0  0  0  0  0  0  0  0  0  0
  1  2  1  0
  1 21  1  0
  2  3  1  0
  2  7  2  0
  3  4  2  0
  3  8  1  0
  4  5  1  0
  4 35  1  0
  5  6  2  0
  5 36  1  0
  6  7  1  0
  6 37  1  0
  7 38  1  0
  8  9  1  0
  8 21  2  0
  9 10  1  0
  9 39  1  0
 10 11  1  0
 10 40  1  1
 10 41  1  0
 11 12  1  0
 11 20  2  0
 12 13  2  0
 12 42  1  0
 13 14  1  0
 13 43  1  0
 14 15  1  0
 14 19  2  0
 15 16  1  0
 15 44  1  0
 16 17  1  0
 16 45  1  1
 16 46  1  0
 17 18  1  0
 17 47  1  6
 17 48  1  0
 18 49  1  0
 19 20  1  0
 19 50  1  0
 20 51  1  0
 21 22  1  0
 22 23  1  0
 22 52  1  6
 22 53  1  0
 23 24  1  0
 23 34  1  0
 24 25  2  0
 24 26  1  0
 26 27  1  0
 26 33  2  0
 27 28  1  0
 27 30  2  0
 28 29  3  0
 29 54  1  0
 30 31  1  0
 30 55  1  0
 31 32  2  0
 31 56  1  0
 32 33  1  0
 32 57  1  0
 33 58  1  0
 34 59  1  1
 34 60  1  0
 34 61  1  0
M  END
>  <s_epik_cmdline>  (745) 
J2VwaWtfcHl0aG9uJywgJy1waCcsICc3LjAwMDAwMCcsICctcGh0JywgJzIuMDAwMDAwJywgJy1tcycsICcxNicsICctdG4nLCAnOCcsICctbWEnLCAnMjAwJywgJy1pbWFlJywgJzxpbmZpbGUubWFlPicsICctb21hZScsICc8b3V0ZmlsZS5tYWU+Jw==

>  <s_epik_input>  (745) 
W2NIXTFbY0hdW2NIXVtjSF1jKEMjW0NIXSljMUMoPU8pTihbQ0gzXSlbQ0gyXWMoczIpYyhjKGMyMylbY0hdW2NIXVtjSF1bY0hdMylbTkhdW0NIMl1jNFtjSF1bY0hdYyhbY0hdW2NIXTQpW05IXVtDSDJdW0NIMl1bT0hd

>  <s_i_glide_gridfile>  (745) 
ATP-Grid

>  <s_lp_Force_Field>  (745) 
OPLS_2005

>  <s_lp_Variant>  (745) 
rxn502c____EMOL43450422____EMOL49259969____EMOL324170366-1

>  <s_lp_label>  (745) 
2453_sdstereoexpander_1_neutralizer_1_epik_1_stereoizer_1

>  <s_m_source_file>  (745) 
ATP-VSW-LIGPREP-002-in.maegz

>  <s_sd_BIOSOLVEIT.INFINISEE\_QUERY\_NAME>  (745) 
Ref-Lig

>  <s_sd_BIOSOLVEIT.INFINISEE\_QUERY\_SMILES>  (745) 
S(c1nc2c(cc1C[NH2+]Cc3ccc(cc3)C[NH+](C)C)cccc2)Cc4ccccc4

>  <s_sd_BIOSOLVEIT.INFINISEE\_REACTION\_NAME>  (745) 
rxn502c

>  <s_sd_BIOSOLVEIT.INFINISEE\_REAGENT1\_NAME>  (745) 
EMOL43450422

>  <s_sd_BIOSOLVEIT.INFINISEE\_REAGENT1\_SMILES>  (745) 
O=C(O)c1c(C#C)cccc1

>  <s_sd_BIOSOLVEIT.INFINISEE\_REAGENT2\_NAME>  (745) 
EMOL49259969

>  <s_sd_BIOSOLVEIT.INFINISEE\_REAGENT2\_SMILES>  (745) 
ClC=1c2c(SC1CNC)cccc2

>  <s_sd_BIOSOLVEIT.INFINISEE\_REAGENT3\_NAME>  (745) 
EMOL324170366

>  <s_sd_BIOSOLVEIT.INFINISEE\_REAGENT3\_SMILES>  (745) 
OCCNc1ccc(cc1)CN

>  <s_sd_BIOSOLVEIT.INFINISEE\_SPACE>  (745) 
eXplore_7tr_2022-12

>  <s_vsw_compound_code>  (745) 
78466

>  <s_vsw_variant>  (745) 
78466-1

>  <r_epik_Charging_Adjusted_Penalty>  (745) 
0.0083718636805958195

>  <r_epik_Ionization_Penalty>  (745) 
0.0083999999999999995

>  <r_epik_Ionization_Penalty_Charging>  (745) 
0

>  <r_epik_Ionization_Penalty_Neutral>  (745) 
0.0083999999999999995

>  <r_epik_State_Penalty>  (745) 
0.0083999999999999995

>  <r_i_docking_score>  (745) 
-4.29443214148555

>  <r_i_glide_ecoul>  (745) 
-4.3954486846923801

>  <r_i_glide_eff_state_penalty>  (745) 
0.0083999999999999995

>  <r_i_glide_einternal>  (745) 
4.0462412834167498

>  <r_i_glide_emodel>  (745) 
-58.710188057703

>  <r_i_glide_energy>  (745) 
-47.424955368041999

>  <r_i_glide_erotb>  (745) 
1.00754068083644

>  <r_i_glide_esite>  (745) 
-0.074675999108752097

>  <r_i_glide_evdw>  (745) 
-43.029506683349602

>  <r_i_glide_gscore>  (745) 
-4.3028321414855499

>  <r_i_glide_hbond>  (745) 
-0.26839591281056802

>  <r_i_glide_ligand_efficiency>  (745) 
-0.12630682769075199

>  <r_i_glide_ligand_efficiency_ln>  (745) 
-0.94876051479565304

>  <r_i_glide_ligand_efficiency_sa>  (745) 
-0.40918508908790202

>  <r_i_glide_lipo>  (745) 
-1.85560488607394

>  <r_i_glide_metal>  (745) 
-0

>  <r_i_glide_rewards>  (745) 
-0.30090338745739398

>  <r_lp_Energy>  (745) 
35.805529

>  <r_qp_ACxDN^.5/SA>  (745) 
0.018259600000000001

>  <r_qp_CIQPlogS>  (745) 
-6.0819999999999999

>  <r_qp_EA(eV)>  (745) 
0.435

>  <r_qp_FISA>  (745) 
104.247

>  <r_qp_FOSA>  (745) 
177.898

>  <r_qp_IP(eV)>  (745) 
7.9089999999999998

>  <r_qp_Jm>  (745) 
0.17763803499720701

>  <r_qp_PISA>  (745) 
369.76499999999999

>  <r_qp_PSA>  (745) 
70.816000000000003

>  <r_qp_PercentHumanOralAbsorption>  (745) 
93.584000000000003

>  <r_qp_QPPCaco>  (745) 
253.64699999999999

>  <r_qp_QPPMDCK>  (745) 
192.113

>  <r_qp_QPlogBB>  (745) 
-0.53800000000000003

>  <r_qp_QPlogHERG>  (745) 
-6.157

>  <r_qp_QPlogKhsa>  (745) 
0.47399999999999998

>  <r_qp_QPlogKp>  (745) 
-3.145

>  <r_qp_QPlogPC16>  (745) 
15.231999999999999

>  <r_qp_QPlogPo/w>  (745) 
4.032

>  <r_qp_QPlogPoct>  (745) 
24.535

>  <r_qp_QPlogPw>  (745) 
13.907

>  <r_qp_QPlogS>  (745) 
-3.278

>  <r_qp_QPpolrz>  (745) 
45.049999999999997

>  <r_qp_SASA>  (745) 
686.46299999999997

>  <r_qp_SAamideO>  (745) 
0

>  <r_qp_SAfluorine>  (745) 
0

>  <r_qp_WPSA>  (745) 
34.554000000000002

>  <r_qp_accptHB>  (745) 
6.7000000000000002

>  <r_qp_dip^2/V>  (745) 
0.044135500000000001

>  <r_qp_dipole>  (745) 
7.7690000000000001

>  <r_qp_donorHB>  (745) 
3.5

>  <r_qp_glob>  (745) 
0.8680525

>  <r_qp_mol_MW>  (745) 
469.60000000000002

>  <r_qp_volume>  (745) 
1367.721

>  <r_sd_BIOSOLVEIT.INFINISEE\_FTREES\_SIMILARITY>  (745) 
0.91600000000000004

>  <r_sd_BIOSOLVEIT.LOGP>  (745) 
5.1711

>  <r_sd_BIOSOLVEIT.MOLECULAR\_WEIGHT>  (745) 
469.60500000000002

>  <r_sd_BIOSOLVEIT.TPSA>  (745) 
64.599999999999994

>  <i_epik_Tot_Q>  (745) 
0

>  <i_epik_Tot_abs_Q>  (745) 
0

>  <i_f3d_flags>  (745) 
0

>  <i_i_glide_confnum>  (745) 
17

>  <i_i_glide_lignum>  (745) 
1063

>  <i_i_glide_posenum>  (745) 
14

>  <i_i_glide_rotatable_bonds>  (745) 
12

>  <i_lp_mmshare_version>  (745) 
65135

>  <i_m_ct_format>  (745) 
2

>  <i_m_source_file_index>  (745) 
2453

>  <i_qp_#NandO>  (745) 
5

>  <i_qp_#acid>  (745) 
0

>  <i_qp_#amide>  (745) 
0

>  <i_qp_#amidine>  (745) 
0

>  <i_qp_#amine>  (745) 
1

>  <i_qp_#in34>  (745) 
0

>  <i_qp_#in56>  (745) 
21

>  <i_qp_#metab>  (745) 
8

>  <i_qp_#nonHatm>  (745) 
34

>  <i_qp_#noncon>  (745) 
0

>  <i_qp_#ringatoms>  (745) 
21

>  <i_qp_#rotor>  (745) 
11

>  <i_qp_#rtvFG>  (745) 
0

>  <i_qp_#stars>  (745) 
0

>  <i_qp_CNS>  (745) 
0

>  <i_qp_HumanOralAbsorption>  (745) 
3

>  <i_qp_RuleOfFive>  (745) 
0

>  <i_qp_RuleOfThree>  (745) 
1

>  <i_sd_BIOSOLVEIT.INFINISEE\_RESULT\_RANK>  (745) 
25881

>  <i_sd_version>  (745) 
0

>  <b_lp_Chiralities_Consistent>  (745) 
1

>  <b_sd_chiral_flag>  (745) 
0

>  <canonical_id>  (745) 
ATP-HTVS-74E2CC654FC3

>  <compound_code>  (745) 
78466

>  <title>  (745) 
rxn502c____EMOL43450422____EMOL49259969____EMOL324170366

>  <variant>  (745) 
78466-1

>  <source_file>  (745) 
运行/运行/ATP-VSW/ATP-VSW-DOCK_HTVS_1-002_lib.maegz

>  <canonical_smiles>  (745) 
C#Cc1ccccc1C(=O)N(C)Cc1sc2ccccc2c1NCc1ccc(NCCO)cc1

>  <scaffold>  (745) 
O=C(NCc1sc2ccccc2c1NCc1ccccc1)c1ccccc1

>  <molecular_formula>  (745) 
C28H27N3O2S

$$$$
ATP-HTVS-750E4CFCB0FA
     RDKit          3D

 60 63  0  0  0  0  0  0  0  0999 V2000
  199.6405  181.2385  151.8720 S   0  0  0  0  0  0  0  0  0  0  0  0
  198.3700  182.0993  151.0601 C   0  0  0  0  0  0  0  0  0  0  0  0
  197.5864  182.8388  151.9940 C   0  0  0  0  0  0  0  0  0  0  0  0
  196.6194  183.7379  151.4523 C   0  0  0  0  0  0  0  0  0  0  0  0
  196.4514  183.8934  150.0632 C   0  0  0  0  0  0  0  0  0  0  0  0
  197.1928  183.0928  149.1746 C   0  0  0  0  0  0  0  0  0  0  0  0
  198.1350  182.1725  149.6812 C   0  0  0  0  0  0  0  0  0  0  0  0
  197.9262  182.5214  153.3699 C   0  0  0  0  0  0  0  0  0  0  0  0
  197.2025  183.1407  154.4043 N   0  0  0  0  0  0  0  0  0  0  0  0
  197.0327  182.6053  155.7471 C   0  0  1  0  0  0  0  0  0  0  0  0
  197.0838  183.6574  156.8412 C   0  0  0  0  0  0  0  0  0  0  0  0
  197.5457  184.9657  156.5710 C   0  0  0  0  0  0  0  0  0  0  0  0
  197.5856  185.9313  157.5910 C   0  0  0  0  0  0  0  0  0  0  0  0
  197.1843  185.5903  158.8982 C   0  0  0  0  0  0  0  0  0  0  0  0
  196.7529  184.2732  159.1739 C   0  0  0  0  0  0  0  0  0  0  0  0
  196.6925  183.3132  158.1505 C   0  0  0  0  0  0  0  0  0  0  0  0
  197.2088  186.6303  160.0047 C   0  0  1  0  0  0  0  0  0  0  0  0
  195.8800  187.2566  160.2223 N   0  0  1  0  0  0  0  0  0  0  0  0
  194.8458  186.2812  160.6421 C   0  0  2  0  0  0  0  0  0  0  0  0
  195.9342  188.4160  161.1423 C   0  0  2  0  0  0  0  0  0  0  0  0
  198.9528  181.5937  153.4483 C   0  0  0  0  0  0  0  0  0  0  0  0
  199.6285  180.8991  154.5759 C   0  0  0  0  0  0  0  0  0  0  0  0
  200.0811  181.5962  155.4817 O   0  0  0  0  0  0  0  0  0  0  0  0
  199.6733  179.5401  154.6174 N   0  0  0  0  0  0  0  0  0  0  0  0
  199.4057  178.7166  153.4715 C   0  0  0  0  0  0  0  0  0  0  0  0
  198.2746  178.9626  152.6401 C   0  0  0  0  0  0  0  0  0  0  0  0
  198.1110  178.2670  151.4308 C   0  0  0  0  0  0  0  0  0  0  0  0
  198.9742  177.2137  151.1113 C   0  0  0  0  0  0  0  0  0  0  0  0
  198.7421  176.4479  149.9007 C   0  0  0  0  0  0  0  0  0  0  0  0
  198.5534  175.8411  148.9421 N   0  0  0  0  0  0  0  0  0  0  0  0
  200.0551  176.9012  151.9648 C   0  0  0  0  0  0  0  0  0  0  0  0
  200.2657  177.6474  153.1467 C   0  0  0  0  0  0  0  0  0  0  0  0
  200.1795  178.8699  155.8242 C   0  0  2  0  0  0  0  0  0  0  0  0
  196.0350  184.3526  152.1347 H   0  0  0  0  0  0  0  0  0  0  0  0
  195.7494  184.6184  149.6785 H   0  0  0  0  0  0  0  0  0  0  0  0
  197.0693  183.2134  148.0986 H   0  0  0  0  0  0  0  0  0  0  0  0
  198.7168  181.5731  148.9992 H   0  0  0  0  0  0  0  0  0  0  0  0
  196.5224  183.8415  154.1436 H   0  0  0  0  0  0  0  0  0  0  0  0
  196.0759  182.0783  155.7952 H   0  0  0  0  0  0  0  0  0  0  0  0
  197.7898  181.8687  155.9872 H   0  0  0  0  0  0  0  0  0  0  0  0
  197.8680  185.2385  155.5766 H   0  0  0  0  0  0  0  0  0  0  0  0
  197.9295  186.9289  157.3585 H   0  0  0  0  0  0  0  0  0  0  0  0
  196.4364  184.0007  160.1699 H   0  0  0  0  0  0  0  0  0  0  0  0
  196.3379  182.3150  158.3697 H   0  0  0  0  0  0  0  0  0  0  0  0
  197.5426  186.1451  160.9194 H   0  0  0  0  0  0  0  0  0  0  0  0
  197.9487  187.3971  159.7665 H   0  0  0  0  0  0  0  0  0  0  0  0
  195.1145  185.8241  161.5976 H   0  0  0  0  0  0  0  0  0  0  0  0
  194.7198  185.4908  159.9034 H   0  0  0  0  0  0  0  0  0  0  0  0
  193.8700  186.7547  160.7386 H   0  0  0  0  0  0  0  0  0  0  0  0
  196.2966  188.1167  162.1231 H   0  0  0  0  0  0  0  0  0  0  0  0
  194.9427  188.8515  161.2746 H   0  0  0  0  0  0  0  0  0  0  0  0
  196.5903  189.1986  160.7624 H   0  0  0  0  0  0  0  0  0  0  0  0
  197.5913  179.7886  152.8731 H   0  0  0  0  0  0  0  0  0  0  0  0
  197.3024  178.5639  150.7837 H   0  0  0  0  0  0  0  0  0  0  0  0
  200.7220  176.0861  151.7222 H   0  0  0  0  0  0  0  0  0  0  0  0
  201.1319  177.4296  153.7410 H   0  0  0  0  0  0  0  0  0  0  0  0
  200.2486  177.7872  155.7087 H   0  0  0  0  0  0  0  0  0  0  0  0
  199.5063  179.0214  156.6678 H   0  0  0  0  0  0  0  0  0  0  0  0
  201.1732  179.2230  156.1044 H   0  0  0  0  0  0  0  0  0  0  0  0
  195.5860  187.6199  159.3262 H   0  0  0  0  0  0  0  0  0  0  0  0
  1  2  1  0
  1 21  1  0
  2  3  1  0
  2  7  2  0
  3  4  2  0
  3  8  1  0
  4  5  1  0
  4 34  1  0
  5  6  2  0
  5 35  1  0
  6  7  1  0
  6 36  1  0
  7 37  1  0
  8  9  1  0
  8 21  2  0
  9 10  1  0
  9 38  1  0
 10 11  1  0
 10 39  1  6
 10 40  1  0
 11 12  1  0
 11 16  2  0
 12 13  2  0
 12 41  1  0
 13 14  1  0
 13 42  1  0
 14 15  2  0
 14 17  1  0
 15 16  1  0
 15 43  1  0
 16 44  1  0
 17 18  1  0
 17 45  1  1
 17 46  1  0
 18 19  1  0
 18 20  1  0
 18 60  1  6
 19 47  1  1
 19 48  1  0
 19 49  1  0
 20 50  1  1
 20 51  1  0
 20 52  1  0
 21 22  1  0
 22 23  2  0
 22 24  1  0
 24 25  1  0
 24 33  1  0
 25 26  1  0
 25 32  2  0
 26 27  2  0
 26 53  1  0
 27 28  1  0
 27 54  1  0
 28 29  1  0
 28 31  2  0
 29 30  3  0
 31 32  1  0
 31 55  1  0
 32 56  1  0
 33 57  1  6
 33 58  1  0
 33 59  1  0
M  CHG  1  18   1
M  END
>  <s_epik_cmdline>  (746) 
J2VwaWtfcHl0aG9uJywgJy1waCcsICc3LjAwMDAwMCcsICctcGh0JywgJzIuMDAwMDAwJywgJy1tcycsICcxNicsICctdG4nLCAnOCcsICctbWEnLCAnMjAwJywgJy1pbWFlJywgJzxpbmZpbGUubWFlPicsICctb21hZScsICc8b3V0ZmlsZS5tYWU+Jw==

>  <s_epik_input>  (746) 
TiNDYyhbY0hdW2NIXTEpW2NIXVtjSF1jMU4oW0NIM10pQyg9TyljKHMyKWMoYyhjMjMpW2NIXVtjSF1bY0hdW2NIXTMpW05IXVtDSDJdYzRbY0hdW2NIXWMoW2NIXVtjSF00KVtDSDJdTihbQ0gzXSlbQ0gzXQ==

>  <s_i_glide_gridfile>  (746) 
ATP-Grid

>  <s_lp_Force_Field>  (746) 
OPLS_2005

>  <s_lp_Variant>  (746) 
rxn512c____EMOL17281285____EMOL523944____EMOL50155899-1

>  <s_lp_label>  (746) 
2183_sdstereoexpander_1_neutralizer_1_epik_1_stereoizer_1

>  <s_m_source_file>  (746) 
ATP-VSW-LIGPREP-002-in.maegz

>  <s_sd_BIOSOLVEIT.INFINISEE\_QUERY\_NAME>  (746) 
Ref-Lig

>  <s_sd_BIOSOLVEIT.INFINISEE\_QUERY\_SMILES>  (746) 
S(c1nc2c(cc1C[NH2+]Cc3ccc(cc3)C[NH+](C)C)cccc2)Cc4ccccc4

>  <s_sd_BIOSOLVEIT.INFINISEE\_REACTION\_NAME>  (746) 
rxn512c

>  <s_sd_BIOSOLVEIT.INFINISEE\_REAGENT1\_NAME>  (746) 
EMOL17281285

>  <s_sd_BIOSOLVEIT.INFINISEE\_REAGENT1\_SMILES>  (746) 
N#Cc1ccc(NC)cc1

>  <s_sd_BIOSOLVEIT.INFINISEE\_REAGENT2\_NAME>  (746) 
EMOL523944

>  <s_sd_BIOSOLVEIT.INFINISEE\_REAGENT2\_SMILES>  (746) 
ClC=1c2c(SC1C(=O)O)cccc2

>  <s_sd_BIOSOLVEIT.INFINISEE\_REAGENT3\_NAME>  (746) 
EMOL50155899

>  <s_sd_BIOSOLVEIT.INFINISEE\_REAGENT3\_SMILES>  (746) 
N(Cc1ccc(cc1)CN)(C)C

>  <s_sd_BIOSOLVEIT.INFINISEE\_SPACE>  (746) 
eXplore_7tr_2022-12

>  <s_vsw_compound_code>  (746) 
69826

>  <s_vsw_variant>  (746) 
69826-1

>  <r_epik_Charging_Adjusted_Penalty>  (746) 
0.080189274810459593

>  <r_epik_Ionization_Penalty>  (746) 
0.040099999999999997

>  <r_epik_Ionization_Penalty_Charging>  (746) 
0.040099999999999997

>  <r_epik_Ionization_Penalty_Neutral>  (746) 
0

>  <r_epik_State_Penalty>  (746) 
0.040099999999999997

>  <r_i_docking_score>  (746) 
-3.5320177631310998

>  <r_i_glide_ecoul>  (746) 
-3.4022486209869398

>  <r_i_glide_eff_state_penalty>  (746) 
0.040099999999999997

>  <r_i_glide_einternal>  (746) 
5.7676339149475098

>  <r_i_glide_emodel>  (746) 
-43.884587932779397

>  <r_i_glide_energy>  (746) 
-35.594005823135397

>  <r_i_glide_erotb>  (746) 
0.67752607461633796

>  <r_i_glide_esite>  (746) 
-0.043960143567342701

>  <r_i_glide_evdw>  (746) 
-32.191757202148402

>  <r_i_glide_gscore>  (746) 
-3.5721177631311001

>  <r_i_glide_hbond>  (746) 
0

>  <r_i_glide_ligand_efficiency>  (746) 
-0.10703084130700299

>  <r_i_glide_ligand_efficiency_ln>  (746) 
-0.78550246271112201

>  <r_i_glide_ligand_efficiency_sa>  (746) 
-0.34330509746042498

>  <r_i_glide_lipo>  (746) 
-1.5215563442525499

>  <r_i_glide_metal>  (746) 
-0

>  <r_i_glide_rewards>  (746) 
-0.56420219667208604

>  <r_lp_Energy>  (746) 
46.527051999999998

>  <r_qp_ACxDN^.5/SA>  (746) 
0

>  <r_qp_CIQPlogS>  (746) 
-5.8739999999999997

>  <r_qp_EA(eV)>  (746) 
0.85699999999999998

>  <r_qp_FISA>  (746) 
110.05800000000001

>  <r_qp_FOSA>  (746) 
236.03100000000001

>  <r_qp_IP(eV)>  (746) 
8.2089999999999996

>  <r_qp_Jm>  (746) 
4.3140577865698599e-06

>  <r_qp_PISA>  (746) 
430.02699999999999

>  <r_qp_PSA>  (746) 
65.313000000000002

>  <r_qp_PercentHumanOralAbsorption>  (746) 
84.963999999999999

>  <r_qp_QPPCaco>  (746) 
55.720999999999997

>  <r_qp_QPPMDCK>  (746) 
42.375999999999998

>  <r_qp_QPlogBB>  (746) 
-0.26700000000000002

>  <r_qp_QPlogHERG>  (746) 
-8.7469999999999999

>  <r_qp_QPlogKhsa>  (746) 
0.81799999999999995

>  <r_qp_QPlogKp>  (746) 
-5.3899999999999997

>  <r_qp_QPlogPC16>  (746) 
16.169

>  <r_qp_QPlogPo/w>  (746) 
4.5720000000000001

>  <r_qp_QPlogPoct>  (746) 
22.25

>  <r_qp_QPlogPw>  (746) 
9.9990000000000006

>  <r_qp_QPlogS>  (746) 
-5.633

>  <r_qp_QPpolrz>  (746) 
51.795000000000002

>  <r_qp_SASA>  (746) 
812.70299999999997

>  <r_qp_SAamideO>  (746) 
0

>  <r_qp_SAfluorine>  (746) 
0

>  <r_qp_WPSA>  (746) 
36.585999999999999

>  <r_qp_accptHB>  (746) 
6.5

>  <r_qp_dip^2/V>  (746) 
0.095993499999999995

>  <r_qp_dipole>  (746) 
11.894

>  <r_qp_donorHB>  (746) 
0

>  <r_qp_glob>  (746) 
0.77063199999999998

>  <r_qp_mol_MW>  (746) 
454.589

>  <r_qp_volume>  (746) 
1473.7380000000001

>  <r_sd_BIOSOLVEIT.INFINISEE\_FTREES\_SIMILARITY>  (746) 
0.93600000000000005

>  <r_sd_BIOSOLVEIT.LOGP>  (746) 
4.3061800000000003

>  <r_sd_BIOSOLVEIT.MOLECULAR\_WEIGHT>  (746) 
455.60199999999998

>  <r_sd_BIOSOLVEIT.TPSA>  (746) 
60.57

>  <i_epik_Tot_Q>  (746) 
1

>  <i_epik_Tot_abs_Q>  (746) 
1

>  <i_f3d_flags>  (746) 
0

>  <i_i_glide_confnum>  (746) 
3

>  <i_i_glide_lignum>  (746) 
814

>  <i_i_glide_posenum>  (746) 
13

>  <i_i_glide_rotatable_bonds>  (746) 
8

>  <i_lp_mmshare_version>  (746) 
65135

>  <i_m_ct_format>  (746) 
2

>  <i_m_source_file_index>  (746) 
2183

>  <i_qp_#NandO>  (746) 
5

>  <i_qp_#acid>  (746) 
0

>  <i_qp_#amide>  (746) 
0

>  <i_qp_#amidine>  (746) 
0

>  <i_qp_#amine>  (746) 
2

>  <i_qp_#in34>  (746) 
0

>  <i_qp_#in56>  (746) 
21

>  <i_qp_#metab>  (746) 
5

>  <i_qp_#nonHatm>  (746) 
33

>  <i_qp_#noncon>  (746) 
0

>  <i_qp_#ringatoms>  (746) 
21

>  <i_qp_#rotor>  (746) 
8

>  <i_qp_#rtvFG>  (746) 
0

>  <i_qp_#stars>  (746) 
0

>  <i_qp_CNS>  (746) 
1

>  <i_qp_HumanOralAbsorption>  (746) 
3

>  <i_qp_RuleOfFive>  (746) 
0

>  <i_qp_RuleOfThree>  (746) 
0

>  <i_sd_BIOSOLVEIT.INFINISEE\_RESULT\_RANK>  (746) 
2275

>  <i_sd_version>  (746) 
0

>  <b_lp_Chiralities_Consistent>  (746) 
1

>  <b_sd_chiral_flag>  (746) 
0

>  <canonical_id>  (746) 
ATP-HTVS-750E4CFCB0FA

>  <compound_code>  (746) 
69826

>  <title>  (746) 
rxn512c____EMOL17281285____EMOL523944____EMOL50155899

>  <variant>  (746) 
69826-1

>  <source_file>  (746) 
运行/运行/ATP-VSW/ATP-VSW-DOCK_HTVS_1-002_lib.maegz

>  <canonical_smiles>  (746) 
CN(C(=O)c1sc2ccccc2c1NCc1ccc(C[NH+](C)C)cc1)c1ccc(C#N)cc1

>  <scaffold>  (746) 
O=C(Nc1ccccc1)c1sc2ccccc2c1NCc1ccccc1

>  <molecular_formula>  (746) 
C27H27N4OS+

$$$$
ATP-HTVS-7598FFEE7603
     RDKit          3D

 63 66  0  0  0  0  0  0  0  0999 V2000
  201.9714  173.8990  146.1965 O   0  0  0  0  0  0  0  0  0  0  0  0
  201.8940  175.0988  145.9503 N   0  0  0  0  0  0  0  0  0  0  0  0
  202.7242  175.7105  145.2868 O   0  0  0  0  0  0  0  0  0  0  0  0
  200.7429  175.8483  146.4929 C   0  0  0  0  0  0  0  0  0  0  0  0
  200.5144  177.1912  146.1136 C   0  0  0  0  0  0  0  0  0  0  0  0
  199.4151  177.9059  146.6293 C   0  0  0  0  0  0  0  0  0  0  0  0
  198.5294  177.2886  147.5369 C   0  0  0  0  0  0  0  0  0  0  0  0
  198.7501  175.9459  147.9101 C   0  0  0  0  0  0  0  0  0  0  0  0
  199.8482  175.2338  147.3985 C   0  0  0  0  0  0  0  0  0  0  0  0
  197.3364  178.0570  148.0867 C   0  0  1  0  0  0  0  0  0  0  0  0
  197.5493  178.4983  149.5390 C   0  0  0  0  0  0  0  0  0  0  0  0
  198.0646  177.7286  150.3495 O   0  0  0  0  0  0  0  0  0  0  0  0
  197.1426  179.7441  149.8371 N   0  0  0  0  0  0  0  0  0  0  0  0
  197.1737  180.3985  151.0987 C   0  0  0  0  0  0  0  0  0  0  0  0
  197.0791  179.7076  152.2557 N   0  0  0  0  0  0  0  0  0  0  0  0
  197.0858  180.3599  153.4313 C   0  0  0  0  0  0  0  0  0  0  0  0
  197.1707  181.7660  153.5461 C   0  0  0  0  0  0  0  0  0  0  0  0
  197.1638  182.4076  154.8024 N   0  0  0  0  0  0  0  0  0  0  0  0
  196.5975  181.7339  155.9662 C   0  0  1  0  0  0  0  0  0  0  0  0
  196.6528  182.5457  157.2481 C   0  0  0  0  0  0  0  0  0  0  0  0
  197.8196  183.2579  157.5925 C   0  0  0  0  0  0  0  0  0  0  0  0
  197.8984  183.9576  158.8159 C   0  0  0  0  0  0  0  0  0  0  0  0
  196.7818  183.9696  159.6801 C   0  0  0  0  0  0  0  0  0  0  0  0
  195.6082  183.2739  159.3307 C   0  0  0  0  0  0  0  0  0  0  0  0
  195.5492  182.5537  158.1225 C   0  0  0  0  0  0  0  0  0  0  0  0
  199.1652  184.7113  159.1878 C   0  0  1  0  0  0  0  0  0  0  0  0
  200.2044  183.8359  159.7912 N   0  0  1  0  0  0  0  0  0  0  0  0
  200.8454  182.9094  158.8273 C   0  0  2  0  0  0  0  0  0  0  0  0
  201.2184  184.6095  160.5436 C   0  0  2  0  0  0  0  0  0  0  0  0
  197.2653  182.5076  152.3388 C   0  0  0  0  0  0  0  0  0  0  0  0
  197.2617  181.8166  151.0942 C   0  0  0  0  0  0  0  0  0  0  0  0
  197.3740  182.5524  149.8878 C   0  0  0  0  0  0  0  0  0  0  0  0
  197.4691  183.9548  149.9055 C   0  0  0  0  0  0  0  0  0  0  0  0
  197.4761  184.6369  151.1324 C   0  0  0  0  0  0  0  0  0  0  0  0
  197.3723  183.9203  152.3391 C   0  0  0  0  0  0  0  0  0  0  0  0
  201.1791  177.6845  145.4195 H   0  0  0  0  0  0  0  0  0  0  0  0
  199.2561  178.9286  146.3199 H   0  0  0  0  0  0  0  0  0  0  0  0
  198.0751  175.4600  148.6017 H   0  0  0  0  0  0  0  0  0  0  0  0
  199.9997  174.2098  147.7121 H   0  0  0  0  0  0  0  0  0  0  0  0
  197.1415  178.9205  147.4511 H   0  0  0  0  0  0  0  0  0  0  0  0
  196.4444  177.4332  148.0300 H   0  0  0  0  0  0  0  0  0  0  0  0
  196.8324  180.3060  149.0616 H   0  0  0  0  0  0  0  0  0  0  0  0
  197.0134  179.7176  154.2947 H   0  0  0  0  0  0  0  0  0  0  0  0
  197.0379  183.4086  154.8051 H   0  0  0  0  0  0  0  0  0  0  0  0
  195.5623  181.4733  155.7453 H   0  0  0  0  0  0  0  0  0  0  0  0
  197.1306  180.8028  156.1649 H   0  0  0  0  0  0  0  0  0  0  0  0
  198.6610  183.2401  156.9143 H   0  0  0  0  0  0  0  0  0  0  0  0
  196.8109  184.5167  160.6114 H   0  0  0  0  0  0  0  0  0  0  0  0
  194.7508  183.2875  159.9892 H   0  0  0  0  0  0  0  0  0  0  0  0
  194.6538  182.0059  157.8606 H   0  0  0  0  0  0  0  0  0  0  0  0
  199.5589  185.2323  158.3138 H   0  0  0  0  0  0  0  0  0  0  0  0
  198.8887  185.4881  159.9033 H   0  0  0  0  0  0  0  0  0  0  0  0
  201.3257  183.4589  158.0172 H   0  0  0  0  0  0  0  0  0  0  0  0
  200.1221  182.2303  158.3857 H   0  0  0  0  0  0  0  0  0  0  0  0
  201.5995  182.2909  159.3174 H   0  0  0  0  0  0  0  0  0  0  0  0
  201.7757  185.2706  159.8784 H   0  0  0  0  0  0  0  0  0  0  0  0
  201.9299  183.9441  161.0347 H   0  0  0  0  0  0  0  0  0  0  0  0
  200.7596  185.2213  161.3207 H   0  0  0  0  0  0  0  0  0  0  0  0
  197.3968  182.0657  148.9256 H   0  0  0  0  0  0  0  0  0  0  0  0
  197.5439  184.5039  148.9789 H   0  0  0  0  0  0  0  0  0  0  0  0
  197.5623  185.7148  151.1494 H   0  0  0  0  0  0  0  0  0  0  0  0
  197.3671  184.4739  153.2647 H   0  0  0  0  0  0  0  0  0  0  0  0
  199.7238  183.2604  160.4680 H   0  0  0  0  0  0  0  0  0  0  0  0
  1  2  1  0
  2  3  2  0
  2  4  1  0
  4  5  1  0
  4  9  2  0
  5  6  2  0
  5 36  1  0
  6  7  1  0
  6 37  1  0
  7  8  2  0
  7 10  1  0
  8  9  1  0
  8 38  1  0
  9 39  1  0
 10 11  1  0
 10 40  1  6
 10 41  1  0
 11 12  2  0
 11 13  1  0
 13 14  1  0
 13 42  1  0
 14 15  1  0
 14 31  2  0
 15 16  2  0
 16 17  1  0
 16 43  1  0
 17 18  1  0
 17 30  2  0
 18 19  1  0
 18 44  1  0
 19 20  1  0
 19 45  1  6
 19 46  1  0
 20 21  2  0
 20 25  1  0
 21 22  1  0
 21 47  1  0
 22 23  2  0
 22 26  1  0
 23 24  1  0
 23 48  1  0
 24 25  2  0
 24 49  1  0
 25 50  1  0
 26 27  1  0
 26 51  1  6
 26 52  1  0
 27 28  1  0
 27 29  1  0
 27 63  1  1
 28 53  1  6
 28 54  1  0
 28 55  1  0
 29 56  1  6
 29 57  1  0
 29 58  1  0
 30 31  1  0
 30 35  1  0
 31 32  1  0
 32 33  2  0
 32 59  1  0
 33 34  1  0
 33 60  1  0
 34 35  2  0
 34 61  1  0
 35 62  1  0
M  CHG  3   1  -1   2   1  27   1
M  END
>  <s_epik_cmdline>  (747) 
J2VwaWtfcHl0aG9uJywgJy1waCcsICc3LjAwMDAwMCcsICctcGh0JywgJzIuMDAwMDAwJywgJy1tcycsICcxNicsICctdG4nLCAnOCcsICctbWEnLCAnMjAwJywgJy1pbWFlJywgJzxpbmZpbGUubWFlPicsICctb21hZScsICc8b3V0ZmlsZS5tYWU+Jw==

>  <s_epik_input>  (747) 
W08tXVtOK10oPU8pYzFbY0hdW2NIXWMoW2NIXVtjSF0xKVtDSDJdQyg9TylbTkhdYyhjKGMyMylbY0hdW2NIXVtjSF1bY0hdMyluW2NIXWMyW05IXVtDSDJdYzRbY0hdYyhbY0hdW2NIXVtjSF00KVtDSDJdTihbQ0gzXSlbQ0gzXQ==

>  <s_i_glide_gridfile>  (747) 
ATP-Grid

>  <s_lp_Force_Field>  (747) 
OPLS_2005

>  <s_lp_Variant>  (747) 
rxn502b____EMOL529866____EMOL7515103____EMOL2873214-1

>  <s_lp_label>  (747) 
2274_sdstereoexpander_1_neutralizer_1_epik_1_stereoizer_1

>  <s_m_source_file>  (747) 
ATP-VSW-LIGPREP-003-in.maegz

>  <s_sd_BIOSOLVEIT.INFINISEE\_QUERY\_NAME>  (747) 
Ref-Lig

>  <s_sd_BIOSOLVEIT.INFINISEE\_QUERY\_SMILES>  (747) 
S(c1nc2c(cc1C[NH2+]Cc3ccc(cc3)C[NH+](C)C)cccc2)Cc4ccccc4

>  <s_sd_BIOSOLVEIT.INFINISEE\_REACTION\_NAME>  (747) 
rxn502b

>  <s_sd_BIOSOLVEIT.INFINISEE\_REAGENT1\_NAME>  (747) 
EMOL529866

>  <s_sd_BIOSOLVEIT.INFINISEE\_REAGENT1\_SMILES>  (747) 
[O-][N+](=O)c1ccc(cc1)CC(=O)O

>  <s_sd_BIOSOLVEIT.INFINISEE\_REAGENT2\_NAME>  (747) 
EMOL7515103

>  <s_sd_BIOSOLVEIT.INFINISEE\_REAGENT2\_SMILES>  (747) 
Brc1c2c(c(nc1)N)cccc2

>  <s_sd_BIOSOLVEIT.INFINISEE\_REAGENT3\_NAME>  (747) 
EMOL2873214

>  <s_sd_BIOSOLVEIT.INFINISEE\_REAGENT3\_SMILES>  (747) 
N(Cc1cc(ccc1)CN)(C)C

>  <s_sd_BIOSOLVEIT.INFINISEE\_SPACE>  (747) 
eXplore_7tr_2022-12

>  <s_vsw_compound_code>  (747) 
72739

>  <s_vsw_variant>  (747) 
72739-1

>  <r_epik_Charging_Adjusted_Penalty>  (747) 
0.103728699602769

>  <r_epik_Ionization_Penalty>  (747) 
0.055199999999999999

>  <r_epik_Ionization_Penalty_Charging>  (747) 
0.0441

>  <r_epik_Ionization_Penalty_Neutral>  (747) 
0.0111

>  <r_epik_State_Penalty>  (747) 
0.0596

>  <r_i_docking_score>  (747) 
-3.31860378293044

>  <r_i_glide_ecoul>  (747) 
-2.52104687690735

>  <r_i_glide_eff_state_penalty>  (747) 
0.0596

>  <r_i_glide_einternal>  (747) 
2.6285967826843302

>  <r_i_glide_emodel>  (747) 
-52.777132444845599

>  <r_i_glide_energy>  (747) 
-42.875573396682697

>  <r_i_glide_erotb>  (747) 
0.73007673240422

>  <r_i_glide_esite>  (747) 
-0.0391245849581471

>  <r_i_glide_evdw>  (747) 
-40.354526519775398

>  <r_i_glide_gscore>  (747) 
-3.3782037829304401

>  <r_i_glide_hbond>  (747) 
0

>  <r_i_glide_ligand_efficiency>  (747) 
-0.094817250940869596

>  <r_i_glide_ligand_efficiency_ln>  (747) 
-0.72850718279590398

>  <r_i_glide_ligand_efficiency_sa>  (747) 
-0.31015351480980802

>  <r_i_glide_lipo>  (747) 
-1.35460459651606

>  <r_i_glide_metal>  (747) 
-0

>  <r_i_glide_rewards>  (747) 
-0.31866797633558203

>  <r_lp_Energy>  (747) 
30.787420999999998

>  <r_qp_ACxDN^.5/SA>  (747) 
0.012822699999999999

>  <r_qp_CIQPlogS>  (747) 
-5.9779999999999998

>  <r_qp_EA(eV)>  (747) 
1.4319999999999999

>  <r_qp_FISA>  (747) 
174.01300000000001

>  <r_qp_FOSA>  (747) 
263.07499999999999

>  <r_qp_IP(eV)>  (747) 
7.9909999999999997

>  <r_qp_Jm>  (747) 
2.29998510977164e-05

>  <r_qp_PISA>  (747) 
390.08699999999999

>  <r_qp_PSA>  (747) 
106.68600000000001

>  <r_qp_PercentHumanOralAbsorption>  (747) 
82.415999999999997

>  <r_qp_QPPCaco>  (747) 
55.287999999999997

>  <r_qp_QPPMDCK>  (747) 
23.942

>  <r_qp_QPlogBB>  (747) 
-1.5509999999999999

>  <r_qp_QPlogHERG>  (747) 
-7.883

>  <r_qp_QPlogKhsa>  (747) 
0.78100000000000003

>  <r_qp_QPlogKp>  (747) 
-4.5510000000000002

>  <r_qp_QPlogPC16>  (747) 
16.835999999999999

>  <r_qp_QPlogPo/w>  (747) 
4.1470000000000002

>  <r_qp_QPlogPoct>  (747) 
24.876999999999999

>  <r_qp_QPlogPw>  (747) 
13.878

>  <r_qp_QPlogS>  (747) 
-5.7590000000000003

>  <r_qp_QPpolrz>  (747) 
51.968000000000004

>  <r_qp_SASA>  (747) 
827.17600000000004

>  <r_qp_SAamideO>  (747) 
0

>  <r_qp_SAfluorine>  (747) 
0

>  <r_qp_WPSA>  (747) 
0

>  <r_qp_accptHB>  (747) 
7.5

>  <r_qp_dip^2/V>  (747) 
0.029477400000000001

>  <r_qp_dipole>  (747) 
6.6580000000000004

>  <r_qp_donorHB>  (747) 
2

>  <r_qp_glob>  (747) 
0.76735739999999997

>  <r_qp_mol_MW>  (747) 
469.54199999999997

>  <r_qp_volume>  (747) 
1503.646

>  <r_sd_BIOSOLVEIT.INFINISEE\_FTREES\_SIMILARITY>  (747) 
0.92400000000000004

>  <r_sd_BIOSOLVEIT.LOGP>  (747) 
3.5808

>  <r_sd_BIOSOLVEIT.MOLECULAR\_WEIGHT>  (747) 
470.55000000000001

>  <r_sd_BIOSOLVEIT.TPSA>  (747) 
104.28

>  <i_epik_Tot_Q>  (747) 
1

>  <i_epik_Tot_abs_Q>  (747) 
3

>  <i_f3d_flags>  (747) 
0

>  <i_i_glide_confnum>  (747) 
7

>  <i_i_glide_lignum>  (747) 
928

>  <i_i_glide_posenum>  (747) 
15

>  <i_i_glide_rotatable_bonds>  (747) 
10

>  <i_lp_mmshare_version>  (747) 
65135

>  <i_m_ct_format>  (747) 
2

>  <i_m_source_file_index>  (747) 
2274

>  <i_qp_#NandO>  (747) 
8

>  <i_qp_#acid>  (747) 
0

>  <i_qp_#amide>  (747) 
0

>  <i_qp_#amidine>  (747) 
0

>  <i_qp_#amine>  (747) 
1

>  <i_qp_#in34>  (747) 
0

>  <i_qp_#in56>  (747) 
22

>  <i_qp_#metab>  (747) 
9

>  <i_qp_#nonHatm>  (747) 
35

>  <i_qp_#noncon>  (747) 
0

>  <i_qp_#ringatoms>  (747) 
22

>  <i_qp_#rotor>  (747) 
9

>  <i_qp_#rtvFG>  (747) 
0

>  <i_qp_#stars>  (747) 
1

>  <i_qp_CNS>  (747) 
-2

>  <i_qp_HumanOralAbsorption>  (747) 
2

>  <i_qp_RuleOfFive>  (747) 
0

>  <i_qp_RuleOfThree>  (747) 
2

>  <i_sd_BIOSOLVEIT.INFINISEE\_RESULT\_RANK>  (747) 
9588

>  <i_sd_version>  (747) 
0

>  <b_lp_Chiralities_Consistent>  (747) 
1

>  <b_sd_chiral_flag>  (747) 
0

>  <canonical_id>  (747) 
ATP-HTVS-7598FFEE7603

>  <compound_code>  (747) 
72739

>  <title>  (747) 
rxn502b____EMOL529866____EMOL7515103____EMOL2873214

>  <variant>  (747) 
72739-1

>  <source_file>  (747) 
运行/运行/ATP-VSW/ATP-VSW-DOCK_HTVS_1-003_lib/ATP-VSW-DOCK_HTVS_1-003_lib.mae

>  <canonical_smiles>  (747) 
C[NH+](C)Cc1cccc(CNc2cnc(NC(=O)Cc3ccc([N+](=O)[O-])cc3)c3ccccc23)c1

>  <scaffold>  (747) 
O=C(Cc1ccccc1)Nc1ncc(NCc2ccccc2)c2ccccc12

>  <molecular_formula>  (747) 
C27H28N5O3+

$$$$
ATP-HTVS-75A4DAB7424E
     RDKit          3D

 54 57  0  0  0  0  0  0  0  0999 V2000
  201.9124  173.8155  152.5612 F   0  0  0  0  0  0  0  0  0  0  0  0
  201.8152  174.4451  153.7581 C   0  0  0  0  0  0  0  0  0  0  0  0
  201.0314  175.6168  153.8757 C   0  0  0  0  0  0  0  0  0  0  0  0
  200.9022  176.2746  155.1254 C   0  0  0  0  0  0  0  0  0  0  0  0
  201.6067  175.7475  156.2311 C   0  0  0  0  0  0  0  0  0  0  0  0
  202.3967  174.6038  156.1086 C   0  0  0  0  0  0  0  0  0  0  0  0
  202.4911  173.9335  154.8828 C   0  0  0  0  0  0  0  0  0  0  0  0
  200.0332  177.5368  155.2171 C   0  0  1  0  0  0  0  0  0  0  0  0
  200.3981  178.4852  156.3798 C   0  0  2  0  0  0  0  0  0  0  0  0
  199.9523  177.9676  157.6940 N   0  0  2  0  0  0  0  0  0  0  0  0
  199.7850  179.8140  156.2771 C   0  0  0  0  0  0  0  0  0  0  0  0
  199.2568  180.9058  156.1719 C   0  0  0  0  0  0  0  0  0  0  0  0
  198.5743  182.1839  155.9855 C   0  0  0  0  0  0  0  0  0  0  0  0
  197.7936  182.3935  154.8169 C   0  0  0  0  0  0  0  0  0  0  0  0
  197.7104  181.3661  153.8217 N   0  0  0  0  0  0  0  0  0  0  0  0
  197.1689  181.3847  152.5895 C   0  0  0  0  0  0  0  0  0  0  0  0
  196.5239  182.2946  152.0768 O   0  0  0  0  0  0  0  0  0  0  0  0
  197.4274  180.1796  151.8484 C   0  0  0  0  0  0  0  0  0  0  0  0
  197.7241  179.2130  151.1641 C   0  0  0  0  0  0  0  0  0  0  0  0
  198.1219  178.0785  150.3558 C   0  0  0  0  0  0  0  0  0  0  0  0
  197.8754  178.0674  148.9698 C   0  0  0  0  0  0  0  0  0  0  0  0
  198.2551  176.9469  148.2045 C   0  0  0  0  0  0  0  0  0  0  0  0
  198.8787  175.8446  148.8247 C   0  0  0  0  0  0  0  0  0  0  0  0
  199.1297  175.8609  150.2092 C   0  0  0  0  0  0  0  0  0  0  0  0
  198.7494  176.9809  150.9718 C   0  0  0  0  0  0  0  0  0  0  0  0
  197.1498  183.6455  154.6892 C   0  0  0  0  0  0  0  0  0  0  0  0
  197.2455  184.6307  155.5936 N   0  0  0  0  0  0  0  0  0  0  0  0
  197.9785  184.4419  156.7037 C   0  0  0  0  0  0  0  0  0  0  0  0
  198.6789  183.2274  156.9505 C   0  0  0  0  0  0  0  0  0  0  0  0
  199.4537  183.1125  158.1313 C   0  0  0  0  0  0  0  0  0  0  0  0
  199.5181  184.1650  159.0630 C   0  0  0  0  0  0  0  0  0  0  0  0
  198.8197  185.3582  158.8174 C   0  0  0  0  0  0  0  0  0  0  0  0
  198.0622  185.4896  157.6398 C   0  0  0  0  0  0  0  0  0  0  0  0
  200.2315  178.5820  158.4474 H   0  0  0  0  0  0  0  0  0  0  0  0
  200.3283  177.0397  157.8287 H   0  0  0  0  0  0  0  0  0  0  0  0
  200.5393  175.9830  152.9886 H   0  0  0  0  0  0  0  0  0  0  0  0
  201.6284  176.1567  157.2175 H   0  0  0  0  0  0  0  0  0  0  0  0
  202.9032  174.2384  156.9851 H   0  0  0  0  0  0  0  0  0  0  0  0
  203.0854  173.0262  154.8113 H   0  0  0  0  0  0  0  0  0  0  0  0
  200.1179  178.0734  154.2683 H   0  0  0  0  0  0  0  0  0  0  0  0
  198.9804  177.2447  155.2888 H   0  0  0  0  0  0  0  0  0  0  0  0
  201.4766  178.6494  156.3946 H   0  0  0  0  0  0  0  0  0  0  0  0
  198.1760  180.5030  154.0620 H   0  0  0  0  0  0  0  0  0  0  0  0
  197.3882  178.9083  148.4945 H   0  0  0  0  0  0  0  0  0  0  0  0
  198.0534  176.9289  147.1444 H   0  0  0  0  0  0  0  0  0  0  0  0
  199.1625  174.9829  148.2365 H   0  0  0  0  0  0  0  0  0  0  0  0
  199.6095  175.0169  150.6813 H   0  0  0  0  0  0  0  0  0  0  0  0
  198.9256  177.0088  152.0330 H   0  0  0  0  0  0  0  0  0  0  0  0
  196.5098  183.8945  153.8630 H   0  0  0  0  0  0  0  0  0  0  0  0
  200.0211  182.2244  158.3504 H   0  0  0  0  0  0  0  0  0  0  0  0
  200.1059  184.0571  159.9621 H   0  0  0  0  0  0  0  0  0  0  0  0
  198.8726  186.1774  159.5227 H   0  0  0  0  0  0  0  0  0  0  0  0
  197.5273  186.4067  157.4426 H   0  0  0  0  0  0  0  0  0  0  0  0
  198.9120  177.8595  157.7528 H   0  0  0  0  0  0  0  0  0  0  0  0
  1  2  1  0
  2  3  2  0
  2  7  1  0
  3  4  1  0
  3 36  1  0
  4  5  2  0
  4  8  1  0
  5  6  1  0
  5 37  1  0
  6  7  2  0
  6 38  1  0
  7 39  1  0
  8  9  1  0
  8 40  1  6
  8 41  1  0
  9 10  1  0
  9 11  1  0
  9 42  1  1
 10 34  1  1
 10 35  1  0
 10 54  1  0
 11 12  3  0
 12 13  1  0
 13 14  2  0
 13 29  1  0
 14 15  1  0
 14 26  1  0
 15 16  1  0
 15 43  1  0
 16 17  2  0
 16 18  1  0
 18 19  3  0
 19 20  1  0
 20 21  2  0
 20 25  1  0
 21 22  1  0
 21 44  1  0
 22 23  2  0
 22 45  1  0
 23 24  1  0
 23 46  1  0
 24 25  2  0
 24 47  1  0
 25 48  1  0
 26 27  2  0
 26 49  1  0
 27 28  1  0
 28 29  1  0
 28 33  2  0
 29 30  2  0
 30 31  1  0
 30 50  1  0
 31 32  2  0
 31 51  1  0
 32 33  1  0
 32 52  1  0
 33 53  1  0
M  CHG  1  10   1
M  END
>  <s_epik_cmdline>  (748) 
J2VwaWtfcHl0aG9uJywgJy1waCcsICc3LjAwMDAwMCcsICctcGh0JywgJzIuMDAwMDAwJywgJy1tcycsICcxNicsICctdG4nLCAnOCcsICctbWEnLCAnMjAwJywgJy1pbWFlJywgJzxpbmZpbGUubWFlPicsICctb21hZScsICc8b3V0ZmlsZS5tYWU+Jw==

>  <s_epik_input>  (748) 
RmMxW2NIXWMoW2NIXVtjSF1bY0hdMSlbQ0gyXVtDQEhdKFtOSDJdKUMjQ2MoYyhjMjMpW2NIXVtjSF1bY0hdW2NIXTMpYyhbY0hdbjIpW05IXUMoPU8pQyNDYzRbY0hdW2NIXVtjSF1bY0hdW2NIXTQ=

>  <s_i_glide_gridfile>  (748) 
ATP-Grid

>  <s_lp_Force_Field>  (748) 
OPLS_2005

>  <s_lp_Variant>  (748) 
rxn503b____EMOL530803____EMOL30488121____EMOL313110234-4

>  <s_lp_label>  (748) 
2451_sdstereoexpander_2_neutralizer_1_epik_2_stereoizer_1

>  <s_m_source_file>  (748) 
ATP-VSW-LIGPREP-001-in.maegz

>  <s_sd_BIOSOLVEIT.INFINISEE\_QUERY\_NAME>  (748) 
Ref-Lig

>  <s_sd_BIOSOLVEIT.INFINISEE\_QUERY\_SMILES>  (748) 
S(c1nc2c(cc1C[NH2+]Cc3ccc(cc3)C[NH+](C)C)cccc2)Cc4ccccc4

>  <s_sd_BIOSOLVEIT.INFINISEE\_REACTION\_NAME>  (748) 
rxn503b

>  <s_sd_BIOSOLVEIT.INFINISEE\_REAGENT1\_NAME>  (748) 
EMOL530803

>  <s_sd_BIOSOLVEIT.INFINISEE\_REAGENT1\_SMILES>  (748) 
O=C(O)C#Cc1ccccc1

>  <s_sd_BIOSOLVEIT.INFINISEE\_REAGENT2\_NAME>  (748) 
EMOL30488121

>  <s_sd_BIOSOLVEIT.INFINISEE\_REAGENT2\_SMILES>  (748) 
Brc1c(N)cnc2c1cccc2

>  <s_sd_BIOSOLVEIT.INFINISEE\_REAGENT3\_NAME>  (748) 
EMOL313110234

>  <s_sd_BIOSOLVEIT.INFINISEE\_REAGENT3\_SMILES>  (748) 
Fc1cc(ccc1)CC(N)C#C

>  <s_sd_BIOSOLVEIT.INFINISEE\_SPACE>  (748) 
eXplore_7tr_2022-12

>  <s_vsw_compound_code>  (748) 
78401

>  <s_vsw_variant>  (748) 
78401-4

>  <r_epik_Charging_Adjusted_Penalty>  (748) 
1.22591159016581

>  <r_epik_Ionization_Penalty>  (748) 
0.61299999999999999

>  <r_epik_Ionization_Penalty_Charging>  (748) 
0.61299999999999999

>  <r_epik_Ionization_Penalty_Neutral>  (748) 
0.0001

>  <r_epik_State_Penalty>  (748) 
0.61299999999999999

>  <r_i_docking_score>  (748) 
-4.6816998538218204

>  <r_i_glide_ecoul>  (748) 
-10.0702562332153

>  <r_i_glide_eff_state_penalty>  (748) 
0.61299999999999999

>  <r_i_glide_einternal>  (748) 
7.9631896018981898

>  <r_i_glide_emodel>  (748) 
-60.187848950808103

>  <r_i_glide_energy>  (748) 
-43.933190345764203

>  <r_i_glide_erotb>  (748) 
0.633006832056629

>  <r_i_glide_esite>  (748) 
-0.108115166893701

>  <r_i_glide_evdw>  (748) 
-33.8629341125488

>  <r_i_glide_gscore>  (748) 
-5.29469985382182

>  <r_i_glide_hbond>  (748) 
-0.19066665712873501

>  <r_i_glide_ligand_efficiency>  (748) 
-0.14186969254005499

>  <r_i_glide_ligand_efficiency_ln>  (748) 
-1.04118580694546

>  <r_i_glide_ligand_efficiency_sa>  (748) 
-0.45505190867781597

>  <r_i_glide_lipo>  (748) 
-1.9785413780644601

>  <r_i_glide_metal>  (748) 
-0

>  <r_i_glide_rewards>  (748) 
-0.446698343181817

>  <r_lp_Energy>  (748) 
22.940937999999999

>  <r_qp_ACxDN^.5/SA>  (748) 
0.011131

>  <r_qp_CIQPlogS>  (748) 
-6.2850000000000001

>  <r_qp_EA(eV)>  (748) 
1.2110000000000001

>  <r_qp_FISA>  (748) 
124.405

>  <r_qp_FOSA>  (748) 
51.863

>  <r_qp_IP(eV)>  (748) 
8.6579999999999995

>  <r_qp_Jm>  (748) 
0.0036826520668285598

>  <r_qp_PISA>  (748) 
486.71300000000002

>  <r_qp_PSA>  (748) 
78.114999999999995

>  <r_qp_PercentHumanOralAbsorption>  (748) 
93.798000000000002

>  <r_qp_QPPCaco>  (748) 
163.33099999999999

>  <r_qp_QPPMDCK>  (748) 
123.5

>  <r_qp_QPlogBB>  (748) 
-0.626

>  <r_qp_QPlogHERG>  (748) 
-7.2919999999999998

>  <r_qp_QPlogKhsa>  (748) 
0.84299999999999997

>  <r_qp_QPlogKp>  (748) 
-3.3919999999999999

>  <r_qp_QPlogPC16>  (748) 
15.231999999999999

>  <r_qp_QPlogPo/w>  (748) 
4.6529999999999996

>  <r_qp_QPlogPoct>  (748) 
23.969000000000001

>  <r_qp_QPlogPw>  (748) 
12.635999999999999

>  <r_qp_QPlogS>  (748) 
-4.6790000000000003

>  <r_qp_QPpolrz>  (748) 
46.302

>  <r_qp_SASA>  (748) 
700.22400000000005

>  <r_qp_SAamideO>  (748) 
0

>  <r_qp_SAfluorine>  (748) 
37.243000000000002

>  <r_qp_WPSA>  (748) 
37.243000000000002

>  <r_qp_accptHB>  (748) 
4.5

>  <r_qp_dip^2/V>  (748) 
0.093141399999999999

>  <r_qp_dipole>  (748) 
11.101000000000001

>  <r_qp_donorHB>  (748) 
3

>  <r_qp_glob>  (748) 
0.83232360000000005

>  <r_qp_mol_MW>  (748) 
433.48399999999998

>  <r_qp_volume>  (748) 
1322.9590000000001

>  <r_sd_BIOSOLVEIT.INFINISEE\_FTREES\_SIMILARITY>  (748) 
0.91600000000000004

>  <r_sd_BIOSOLVEIT.LOGP>  (748) 
3.5688

>  <r_sd_BIOSOLVEIT.MOLECULAR\_WEIGHT>  (748) 
434.49200000000002

>  <r_sd_BIOSOLVEIT.TPSA>  (748) 
69.629999999999995

>  <i_epik_Tot_Q>  (748) 
1

>  <i_epik_Tot_abs_Q>  (748) 
1

>  <i_f3d_flags>  (748) 
0

>  <i_i_glide_confnum>  (748) 
2

>  <i_i_glide_lignum>  (748) 
958

>  <i_i_glide_posenum>  (748) 
1

>  <i_i_glide_rotatable_bonds>  (748) 
8

>  <i_lp_mmshare_version>  (748) 
65135

>  <i_m_ct_format>  (748) 
2

>  <i_m_source_file_index>  (748) 
2451

>  <i_qp_#NandO>  (748) 
4

>  <i_qp_#acid>  (748) 
0

>  <i_qp_#amide>  (748) 
0

>  <i_qp_#amidine>  (748) 
0

>  <i_qp_#amine>  (748) 
1

>  <i_qp_#in34>  (748) 
0

>  <i_qp_#in56>  (748) 
22

>  <i_qp_#metab>  (748) 
5

>  <i_qp_#nonHatm>  (748) 
33

>  <i_qp_#noncon>  (748) 
0

>  <i_qp_#ringatoms>  (748) 
22

>  <i_qp_#rotor>  (748) 
8

>  <i_qp_#rtvFG>  (748) 
0

>  <i_qp_#stars>  (748) 
1

>  <i_qp_CNS>  (748) 
0

>  <i_qp_HumanOralAbsorption>  (748) 
3

>  <i_qp_RuleOfFive>  (748) 
0

>  <i_qp_RuleOfThree>  (748) 
0

>  <i_sd_BIOSOLVEIT.INFINISEE\_RESULT\_RANK>  (748) 
25633

>  <i_sd_version>  (748) 
0

>  <b_lp_Chiralities_Consistent>  (748) 
1

>  <b_sd_chiral_flag>  (748) 
0

>  <canonical_id>  (748) 
ATP-HTVS-75A4DAB7424E

>  <compound_code>  (748) 
78401

>  <title>  (748) 
rxn503b____EMOL530803____EMOL30488121____EMOL313110234

>  <variant>  (748) 
78401-4

>  <source_file>  (748) 
运行/运行/ATP-VSW/ATP-VSW-DOCK_HTVS_1-001_lib/ATP-VSW-DOCK_HTVS_1-001_lib

>  <canonical_smiles>  (748) 
[NH3+][C@H](C#Cc1c(NC(=O)C#Cc2ccccc2)cnc2ccccc12)Cc1cccc(F)c1

>  <scaffold>  (748) 
O=C(C#Cc1ccccc1)Nc1cnc2ccccc2c1C#CCCc1ccccc1

>  <molecular_formula>  (748) 
C28H21FN3O+

$$$$
ATP-HTVS-75AC094BF9E0
     RDKit          3D

 51 54  0  0  0  0  0  0  0  0999 V2000
  197.6380  188.8871  159.6677 Cl  0  0  0  0  0  0  0  0  0  0  0  0
  197.1854  187.3165  159.1267 C   0  0  0  0  0  0  0  0  0  0  0  0
  196.7523  186.3262  160.0589 C   0  0  0  0  0  0  0  0  0  0  0  0
  196.4391  185.0241  159.6643 C   0  0  0  0  0  0  0  0  0  0  0  0
  196.4199  184.7026  158.2717 C   0  0  0  0  0  0  0  0  0  0  0  0
  196.8775  185.6744  157.3263 C   0  0  0  0  0  0  0  0  0  0  0  0
  197.2691  186.9612  157.7571 C   0  0  0  0  0  0  0  0  0  0  0  0
  195.8925  183.3325  157.7986 C   0  0  2  0  0  0  0  0  0  0  0  0
  194.4529  183.0468  158.1483 N   0  0  1  0  0  0  0  0  0  0  0  0
  194.1341  181.6051  158.3411 C   0  0  2  0  0  0  0  0  0  0  0  0
  193.8763  183.8200  159.2895 C   0  0  2  0  0  0  0  0  0  0  0  0
  196.8947  182.2132  158.2024 C   0  0  1  0  0  0  0  0  0  0  0  0
  198.2733  182.4050  157.6013 C   0  0  0  0  0  0  0  0  0  0  0  0
  198.6287  181.9071  156.3164 C   0  0  0  0  0  0  0  0  0  0  0  0
  199.9571  182.1283  155.8688 C   0  0  0  0  0  0  0  0  0  0  0  0
  200.8699  182.7888  156.6105 N   0  0  0  0  0  0  0  0  0  0  0  0
  200.5335  183.2588  157.8371 C   0  0  0  0  0  0  0  0  0  0  0  0
  201.5850  184.0002  158.5665 C   0  0  0  0  0  0  0  0  0  0  0  0
  201.2839  184.8116  159.6913 C   0  0  0  0  0  0  0  0  0  0  0  0
  202.1972  185.5201  160.3847 N   0  0  0  0  0  0  0  0  0  0  0  0
  203.4808  185.4574  159.9844 C   0  0  0  0  0  0  0  0  0  0  0  0
  203.9044  184.6885  158.8859 C   0  0  0  0  0  0  0  0  0  0  0  0
  202.9419  183.9513  158.1744 C   0  0  0  0  0  0  0  0  0  0  0  0
  199.2469  183.0656  158.3631 C   0  0  0  0  0  0  0  0  0  0  0  0
  200.3290  181.6486  154.5914 C   0  0  0  0  0  0  0  0  0  0  0  0
  199.4116  180.9644  153.7762 C   0  0  0  0  0  0  0  0  0  0  0  0
  198.1025  180.7404  154.2304 C   0  0  0  0  0  0  0  0  0  0  0  0
  197.7091  181.2065  155.4998 C   0  0  0  0  0  0  0  0  0  0  0  0
  196.6507  186.6078  161.1034 H   0  0  0  0  0  0  0  0  0  0  0  0
  196.1477  184.2990  160.3900 H   0  0  0  0  0  0  0  0  0  0  0  0
  196.9224  185.4306  156.2742 H   0  0  0  0  0  0  0  0  0  0  0  0
  197.6471  187.6827  157.0404 H   0  0  0  0  0  0  0  0  0  0  0  0
  195.9057  183.3396  156.7127 H   0  0  0  0  0  0  0  0  0  0  0  0
  194.6983  181.1897  159.1778 H   0  0  0  0  0  0  0  0  0  0  0  0
  194.3448  181.0389  157.4380 H   0  0  0  0  0  0  0  0  0  0  0  0
  193.0811  181.4590  158.5882 H   0  0  0  0  0  0  0  0  0  0  0  0
  194.4163  183.6233  160.1697 H   0  0  0  0  0  0  0  0  0  0  0  0
  192.7872  183.6030  159.4107 H   0  0  0  0  0  0  0  0  0  0  0  0
  193.9279  184.8952  159.0762 H   0  0  0  0  0  0  0  0  0  0  0  0
  196.9714  182.1923  159.2863 H   0  0  0  0  0  0  0  0  0  0  0  0
  196.5904  181.2123  157.9198 H   0  0  0  0  0  0  0  0  0  0  0  0
  200.2752  184.9210  160.0564 H   0  0  0  0  0  0  0  0  0  0  0  0
  204.1894  186.0370  160.5551 H   0  0  0  0  0  0  0  0  0  0  0  0
  204.9426  184.6651  158.5938 H   0  0  0  0  0  0  0  0  0  0  0  0
  203.2573  183.3572  157.3279 H   0  0  0  0  0  0  0  0  0  0  0  0
  198.9789  183.4046  159.3547 H   0  0  0  0  0  0  0  0  0  0  0  0
  201.3338  181.8215  154.2398 H   0  0  0  0  0  0  0  0  0  0  0  0
  199.7150  180.6105  152.8007 H   0  0  0  0  0  0  0  0  0  0  0  0
  197.3948  180.2112  153.6094 H   0  0  0  0  0  0  0  0  0  0  0  0
  196.6965  181.0054  155.8141 H   0  0  0  0  0  0  0  0  0  0  0  0
  193.9511  183.2841  157.2915 H   0  0  0  0  0  0  0  0  0  0  0  0
  1  2  1  0
  2  3  1  0
  2  7  2  0
  3  4  2  0
  3 29  1  0
  4  5  1  0
  4 30  1  0
  5  6  2  0
  5  8  1  0
  6  7  1  0
  6 31  1  0
  7 32  1  0
  8  9  1  0
  8 12  1  0
  8 33  1  6
  9 10  1  0
  9 11  1  0
  9 51  1  6
 10 34  1  1
 10 35  1  0
 10 36  1  0
 11 37  1  1
 11 38  1  0
 11 39  1  0
 12 13  1  0
 12 40  1  1
 12 41  1  0
 13 14  1  0
 13 24  2  0
 14 15  1  0
 14 28  2  0
 15 16  1  0
 15 25  2  0
 16 17  2  0
 17 18  1  0
 17 24  1  0
 18 19  2  0
 18 23  1  0
 19 20  1  0
 19 42  1  0
 20 21  2  0
 21 22  1  0
 21 43  1  0
 22 23  2  0
 22 44  1  0
 23 45  1  0
 24 46  1  0
 25 26  1  0
 25 47  1  0
 26 27  2  0
 26 48  1  0
 27 28  1  0
 27 49  1  0
 28 50  1  0
M  CHG  1   9   1
M  END
>  <s_epik_cmdline>  (749) 
J2VwaWtfcHl0aG9uJywgJy1waCcsICc3LjAwMDAwMCcsICctcGh0JywgJzIuMDAwMDAwJywgJy1tcycsICcxNicsICctdG4nLCAnOCcsICctbWEnLCAnMjAwJywgJy1pbWFlJywgJzxpbmZpbGUubWFlPicsICctb21hZScsICc8b3V0ZmlsZS5tYWU+Jw==

>  <s_epik_input>  (749) 
Q2xjMVtjSF1bY0hdYyhbY0hdW2NIXTEpW0NASF0oTihbQ0gzXSlbQ0gzXSlbQ0gyXWMyW2NIXWMobmMoYzIzKVtjSF1bY0hdW2NIXVtjSF0zKS1jNFtjSF1uW2NIXVtjSF1bY0hdNA==

>  <s_i_glide_gridfile>  (749) 
ATP-Grid

>  <s_lp_Force_Field>  (749) 
OPLS_2005

>  <s_lp_Variant>  (749) 
rxn112____EMOL300011913____EMOL13081280-1

>  <s_lp_label>  (749) 
2808_sdstereoexpander_1_neutralizer_1_epik_1_stereoizer_1

>  <s_m_source_file>  (749) 
ATP-VSW-LIGPREP-003-in.maegz

>  <s_sd_BIOSOLVEIT.INFINISEE\_QUERY\_NAME>  (749) 
Ref-Lig

>  <s_sd_BIOSOLVEIT.INFINISEE\_QUERY\_SMILES>  (749) 
S(c1nc2c(cc1C[NH2+]Cc3ccc(cc3)C[NH+](C)C)cccc2)Cc4ccccc4

>  <s_sd_BIOSOLVEIT.INFINISEE\_REACTION\_NAME>  (749) 
rxn112

>  <s_sd_BIOSOLVEIT.INFINISEE\_REAGENT1\_NAME>  (749) 
EMOL300011913

>  <s_sd_BIOSOLVEIT.INFINISEE\_REAGENT1\_SMILES>  (749) 
O=C(O)c1c2c(nc(c3cnccc3)c1)cccc2

>  <s_sd_BIOSOLVEIT.INFINISEE\_REAGENT2\_NAME>  (749) 
EMOL13081280

>  <s_sd_BIOSOLVEIT.INFINISEE\_REAGENT2\_SMILES>  (749) 
Clc1ccc(cc1)C(N(C)C)CN

>  <s_sd_BIOSOLVEIT.INFINISEE\_SPACE>  (749) 
eXplore_7tr_2022-12

>  <s_vsw_compound_code>  (749) 
89827

>  <s_vsw_variant>  (749) 
89827-1

>  <r_epik_Charging_Adjusted_Penalty>  (749) 
0.13777405312212801

>  <r_epik_Ionization_Penalty>  (749) 
0.099599999999999994

>  <r_epik_Ionization_Penalty_Charging>  (749) 
0.098900000000000002

>  <r_epik_Ionization_Penalty_Neutral>  (749) 
0.00069999999999999999

>  <r_epik_State_Penalty>  (749) 
0.038899999999999997

>  <r_i_docking_score>  (749) 
-3.9023763764586299

>  <r_i_glide_ecoul>  (749) 
-6.9423184394836399

>  <r_i_glide_eff_state_penalty>  (749) 
0.038899999999999997

>  <r_i_glide_einternal>  (749) 
5.3765134811401403

>  <r_i_glide_emodel>  (749) 
-42.443567207998697

>  <r_i_glide_energy>  (749) 
-32.937870502471903

>  <r_i_glide_erotb>  (749) 
0.51539902673525395

>  <r_i_glide_esite>  (749) 
-0.095706423635395901

>  <r_i_glide_evdw>  (749) 
-25.995552062988299

>  <r_i_glide_gscore>  (749) 
-3.9412763764586298

>  <r_i_glide_hbond>  (749) 
-0.18990533621799

>  <r_i_glide_ligand_efficiency>  (749) 
-0.139370584873522

>  <r_i_glide_ligand_efficiency_ln>  (749) 
-0.90078304643582197

>  <r_i_glide_ligand_efficiency_sa>  (749) 
-0.42321118056072399

>  <r_i_glide_lipo>  (749) 
-1.0725215924503499

>  <r_i_glide_metal>  (749) 
-0

>  <r_i_glide_rewards>  (749) 
-0.757416681818181

>  <r_lp_Energy>  (749) 
26.767316000000001

>  <r_qp_ACxDN^.5/SA>  (749) 
0

>  <r_qp_CIQPlogS>  (749) 
-5.4939999999999998

>  <r_qp_EA(eV)>  (749) 
1.111

>  <r_qp_FISA>  (749) 
37.356000000000002

>  <r_qp_FOSA>  (749) 
155.09299999999999

>  <r_qp_IP(eV)>  (749) 
8.9250000000000007

>  <r_qp_Jm>  (749) 
0.060024067363198597

>  <r_qp_PISA>  (749) 
391.10700000000003

>  <r_qp_PSA>  (749) 
28.065999999999999

>  <r_qp_PercentHumanOralAbsorption>  (749) 
100

>  <r_qp_QPPCaco>  (749) 
1092.8219999999999

>  <r_qp_QPPMDCK>  (749) 
1365.1489999999999

>  <r_qp_QPlogBB>  (749) 
0.47399999999999998

>  <r_qp_QPlogHERG>  (749) 
-6.5650000000000004

>  <r_qp_QPlogKhsa>  (749) 
0.72799999999999998

>  <r_qp_QPlogKp>  (749) 
-2.4129999999999998

>  <r_qp_QPlogPC16>  (749) 
12.983000000000001

>  <r_qp_QPlogPo/w>  (749) 
4.9480000000000004

>  <r_qp_QPlogPoct>  (749) 
17.190000000000001

>  <r_qp_QPlogPw>  (749) 
7.5460000000000003

>  <r_qp_QPlogS>  (749) 
-4.3979999999999997

>  <r_qp_QPpolrz>  (749) 
42.982999999999997

>  <r_qp_SASA>  (749) 
648.41300000000001

>  <r_qp_SAamideO>  (749) 
0

>  <r_qp_SAfluorine>  (749) 
0

>  <r_qp_WPSA>  (749) 
64.855999999999995

>  <r_qp_accptHB>  (749) 
4.5

>  <r_qp_dip^2/V>  (749) 
0.0253776

>  <r_qp_dipole>  (749) 
5.5519999999999996

>  <r_qp_donorHB>  (749) 
0

>  <r_qp_glob>  (749) 
0.84910509999999995

>  <r_qp_mol_MW>  (749) 
387.911

>  <r_qp_volume>  (749) 
1214.7080000000001

>  <r_sd_BIOSOLVEIT.INFINISEE\_FTREES\_SIMILARITY>  (749) 
0.90600000000000003

>  <r_sd_BIOSOLVEIT.LOGP>  (749) 
4.3784999999999998

>  <r_sd_BIOSOLVEIT.MOLECULAR\_WEIGHT>  (749) 
388.92000000000002

>  <r_sd_BIOSOLVEIT.TPSA>  (749) 
30.219999999999999

>  <i_epik_Tot_Q>  (749) 
1

>  <i_epik_Tot_abs_Q>  (749) 
1

>  <i_f3d_flags>  (749) 
0

>  <i_i_glide_confnum>  (749) 
4

>  <i_i_glide_lignum>  (749) 
1337

>  <i_i_glide_posenum>  (749) 
10

>  <i_i_glide_rotatable_bonds>  (749) 
5

>  <i_lp_mmshare_version>  (749) 
65135

>  <i_m_ct_format>  (749) 
2

>  <i_m_source_file_index>  (749) 
2808

>  <i_qp_#NandO>  (749) 
3

>  <i_qp_#acid>  (749) 
0

>  <i_qp_#amide>  (749) 
0

>  <i_qp_#amidine>  (749) 
0

>  <i_qp_#amine>  (749) 
1

>  <i_qp_#in34>  (749) 
0

>  <i_qp_#in56>  (749) 
22

>  <i_qp_#metab>  (749) 
5

>  <i_qp_#nonHatm>  (749) 
28

>  <i_qp_#noncon>  (749) 
0

>  <i_qp_#ringatoms>  (749) 
22

>  <i_qp_#rotor>  (749) 
5

>  <i_qp_#rtvFG>  (749) 
0

>  <i_qp_#stars>  (749) 
0

>  <i_qp_CNS>  (749) 
2

>  <i_qp_HumanOralAbsorption>  (749) 
3

>  <i_qp_RuleOfFive>  (749) 
0

>  <i_qp_RuleOfThree>  (749) 
0

>  <i_sd_BIOSOLVEIT.INFINISEE\_RESULT\_RANK>  (749) 
64250

>  <i_sd_version>  (749) 
0

>  <b_lp_Chiralities_Consistent>  (749) 
1

>  <b_sd_chiral_flag>  (749) 
0

>  <canonical_id>  (749) 
ATP-HTVS-75AC094BF9E0

>  <compound_code>  (749) 
89827

>  <title>  (749) 
rxn112____EMOL300011913____EMOL13081280

>  <variant>  (749) 
89827-1

>  <source_file>  (749) 
运行/运行/ATP-VSW/ATP-VSW-DOCK_HTVS_1-003_lib/ATP-VSW-DOCK_HTVS_1-003_lib.mae

>  <canonical_smiles>  (749) 
C[NH+](C)[C@H](Cc1cc(-c2cccnc2)nc2ccccc12)c1ccc(Cl)cc1

>  <scaffold>  (749) 
c1ccc(CCc2cc(-c3cccnc3)nc3ccccc23)cc1

>  <molecular_formula>  (749) 
C24H23ClN3+

$$$$
ATP-HTVS-75B300C751D2
     RDKit          3D

 65 69  0  0  0  0  0  0  0  0999 V2000
  199.0429  183.0555  158.8511 N   0  0  0  0  0  0  0  0  0  0  0  0
  199.6714  184.2829  158.8262 C   0  0  0  0  0  0  0  0  0  0  0  0
  198.7356  185.3241  158.5459 C   0  0  0  0  0  0  0  0  0  0  0  0
  197.4983  184.6739  158.4445 N   0  0  0  0  0  0  0  0  0  0  0  0
  197.7634  183.3508  158.6106 C   0  0  0  0  0  0  0  0  0  0  0  0
  196.7059  182.2643  158.5378 C   0  0  1  0  0  0  0  0  0  0  0  0
  196.5968  181.8520  157.1106 N   0  0  1  0  0  0  0  0  0  0  0  0
  197.8024  181.2442  156.5035 C   0  0  1  0  0  0  0  0  0  0  0  0
  197.6176  181.0644  155.0110 C   0  0  0  0  0  0  0  0  0  0  0  0
  197.1757  179.8354  154.5122 C   0  0  0  0  0  0  0  0  0  0  0  0
  197.0673  179.6304  153.1244 C   0  0  0  0  0  0  0  0  0  0  0  0
  197.3739  180.6656  152.2075 C   0  0  0  0  0  0  0  0  0  0  0  0
  197.2855  180.4612  150.8034 N   0  0  0  0  0  0  0  0  0  0  0  0
  198.0689  181.2722  149.8724 C   0  0  1  0  0  0  0  0  0  0  0  0
  198.8745  180.3817  148.9153 C   0  0  1  0  0  0  0  0  0  0  0  0
  198.0111  179.3701  148.2551 N   0  0  2  0  0  0  0  0  0  0  0  0
  197.2745  178.5427  149.2451 C   0  0  1  0  0  0  0  0  0  0  0  0
  196.4504  179.4171  150.2131 C   0  0  1  0  0  0  0  0  0  0  0  0
  198.7460  178.5591  147.2750 C   0  0  2  0  0  0  0  0  0  0  0  0
  197.7843  181.9156  152.7340 C   0  0  0  0  0  0  0  0  0  0  0  0
  197.9180  182.1101  154.1203 C   0  0  0  0  0  0  0  0  0  0  0  0
  196.2078  185.3101  158.2026 C   0  0  1  0  0  0  0  0  0  0  0  0
  195.6700  186.0378  159.4356 C   0  0  0  0  0  0  0  0  0  0  0  0
  194.5687  185.5127  160.1626 C   0  0  0  0  0  0  0  0  0  0  0  0
  194.0528  186.2317  161.2668 C   0  0  0  0  0  0  0  0  0  0  0  0
  194.6682  187.4270  161.7094 C   0  0  0  0  0  0  0  0  0  0  0  0
  195.7622  187.9347  160.9853 C   0  0  0  0  0  0  0  0  0  0  0  0
  196.2306  187.2786  159.8371 C   0  0  0  0  0  0  0  0  0  0  0  0
  199.1644  186.6660  158.4331 C   0  0  0  0  0  0  0  0  0  0  0  0
  200.5022  186.9932  158.7130 C   0  0  0  0  0  0  0  0  0  0  0  0
  201.4498  185.9772  158.9628 C   0  0  0  0  0  0  0  0  0  0  0  0
  201.0392  184.6227  158.9911 C   0  0  0  0  0  0  0  0  0  0  0  0
  195.8774  181.1346  157.0668 H   0  0  0  0  0  0  0  0  0  0  0  0
  196.9897  181.4149  159.1578 H   0  0  0  0  0  0  0  0  0  0  0  0
  195.7435  182.6196  158.9086 H   0  0  0  0  0  0  0  0  0  0  0  0
  198.6887  181.8695  156.5964 H   0  0  0  0  0  0  0  0  0  0  0  0
  198.0229  180.2923  156.9904 H   0  0  0  0  0  0  0  0  0  0  0  0
  196.9480  179.0340  155.2038 H   0  0  0  0  0  0  0  0  0  0  0  0
  196.7693  178.6486  152.8015 H   0  0  0  0  0  0  0  0  0  0  0  0
  197.3839  181.9170  149.3145 H   0  0  0  0  0  0  0  0  0  0  0  0
  198.7871  181.9253  150.3649 H   0  0  0  0  0  0  0  0  0  0  0  0
  199.3847  180.9996  148.1739 H   0  0  0  0  0  0  0  0  0  0  0  0
  199.6504  179.8600  149.4816 H   0  0  0  0  0  0  0  0  0  0  0  0
  196.6350  177.8308  148.7209 H   0  0  0  0  0  0  0  0  0  0  0  0
  197.9984  177.9563  149.8183 H   0  0  0  0  0  0  0  0  0  0  0  0
  195.9532  178.7891  150.9488 H   0  0  0  0  0  0  0  0  0  0  0  0
  195.6364  179.9034  149.6686 H   0  0  0  0  0  0  0  0  0  0  0  0
  199.4976  177.9518  147.7848 H   0  0  0  0  0  0  0  0  0  0  0  0
  199.2551  179.1875  146.5438 H   0  0  0  0  0  0  0  0  0  0  0  0
  198.0755  177.8904  146.7348 H   0  0  0  0  0  0  0  0  0  0  0  0
  198.0082  182.7516  152.0922 H   0  0  0  0  0  0  0  0  0  0  0  0
  198.2657  183.0711  154.4795 H   0  0  0  0  0  0  0  0  0  0  0  0
  196.3303  186.0119  157.3780 H   0  0  0  0  0  0  0  0  0  0  0  0
  195.4943  184.5691  157.8626 H   0  0  0  0  0  0  0  0  0  0  0  0
  194.0865  184.5969  159.8475 H   0  0  0  0  0  0  0  0  0  0  0  0
  193.1907  185.8509  161.8066 H   0  0  0  0  0  0  0  0  0  0  0  0
  194.2899  187.9640  162.5652 H   0  0  0  0  0  0  0  0  0  0  0  0
  196.2331  188.8534  161.2799 H   0  0  0  0  0  0  0  0  0  0  0  0
  196.9887  187.7904  159.2955 H   0  0  0  0  0  0  0  0  0  0  0  0
  198.5143  187.4660  158.1245 H   0  0  0  0  0  0  0  0  0  0  0  0
  200.8019  188.0323  158.7056 H   0  0  0  0  0  0  0  0  0  0  0  0
  202.4908  186.2438  159.0990 H   0  0  0  0  0  0  0  0  0  0  0  0
  201.7773  183.8400  159.1276 H   0  0  0  0  0  0  0  0  0  0  0  0
  197.3101  179.8944  147.7450 H   0  0  0  0  0  0  0  0  0  0  0  0
  196.2896  182.6333  156.5522 H   0  0  0  0  0  0  0  0  0  0  0  0
  1  2  1  0
  1  5  2  0
  2  3  1  0
  2 32  2  0
  3  4  1  0
  3 29  2  0
  4  5  1  0
  4 22  1  0
  5  6  1  0
  6  7  1  0
  6 34  1  1
  6 35  1  0
  7  8  1  0
  7 33  1  1
  7 65  1  0
  8  9  1  0
  8 36  1  6
  8 37  1  0
  9 10  1  0
  9 21  2  0
 10 11  2  0
 10 38  1  0
 11 12  1  0
 11 39  1  0
 12 13  1  0
 12 20  2  0
 13 14  1  0
 13 18  1  0
 14 15  1  0
 14 40  1  6
 14 41  1  0
 15 16  1  0
 15 42  1  6
 15 43  1  0
 16 17  1  0
 16 19  1  0
 16 64  1  6
 17 18  1  0
 17 44  1  6
 17 45  1  0
 18 46  1  1
 18 47  1  0
 19 48  1  1
 19 49  1  0
 19 50  1  0
 20 21  1  0
 20 51  1  0
 21 52  1  0
 22 23  1  0
 22 53  1  6
 22 54  1  0
 23 24  2  0
 23 28  1  0
 24 25  1  0
 24 55  1  0
 25 26  2  0
 25 56  1  0
 26 27  1  0
 26 57  1  0
 27 28  2  0
 27 58  1  0
 28 59  1  0
 29 30  1  0
 29 60  1  0
 30 31  2  0
 30 61  1  0
 31 32  1  0
 31 62  1  0
 32 63  1  0
M  CHG  2   7   1  16   1
M  END
>  <s_epik_cmdline>  (750) 
J2VwaWtfcHl0aG9uJywgJy1waCcsICc3LjAwMDAwMCcsICctcGh0JywgJzIuMDAwMDAwJywgJy1tcycsICcxNicsICctdG4nLCAnOCcsICctbWEnLCAnMjAwJywgJy1pbWFlJywgJzxpbmZpbGUubWFlPicsICctb21hZScsICc8b3V0ZmlsZS5tYWU+Jw==

>  <s_epik_input>  (750) 
W2NIXTFbY0hdW2NIXVtjSF1bY0hdYzFbQ0gyXW4oYyhjMjMpW2NIXVtjSF1bY0hdW2NIXTMpYyhuMilbQ0gyXVtOSF1bQ0gyXWM0W2NIXVtjSF1jKFtjSF1bY0hdNClONVtDSDJdW0NIMl1OKFtDSDNdKVtDSDJdW0NIMl01

>  <s_i_glide_gridfile>  (750) 
ATP-Grid

>  <s_lp_Force_Field>  (750) 
OPLS_2005

>  <s_lp_Variant>  (750) 
m_270004bbb____12902882____24720860-2

>  <s_lp_label>  (750) 
1041_sdstereoexpander_1_neutralizer_1_epik_2_stereoizer_1

>  <s_m_source_file>  (750) 
ATP-VSW-LIGPREP-002-in.maegz

>  <s_sd_BIOSOLVEIT.INFINISEE\_QUERY\_NAME>  (750) 
Ref-Lig

>  <s_sd_BIOSOLVEIT.INFINISEE\_QUERY\_SMILES>  (750) 
S(c1nc2c(cc1C[NH2+]Cc3ccc(cc3)C[NH+](C)C)cccc2)Cc4ccccc4

>  <s_sd_BIOSOLVEIT.INFINISEE\_REACTION\_NAME>  (750) 
m_270004bbb

>  <s_sd_BIOSOLVEIT.INFINISEE\_REAGENT1\_SMILES>  (750) 
[R1*]NCc1ccc(N2CCN(CC2)C)cc1

>  <s_sd_BIOSOLVEIT.INFINISEE\_REAGENT2\_SMILES>  (750) 
[R1*]CC1=Nc2c(N1Cc3ccccc3)cccc2

>  <s_sd_BIOSOLVEIT.INFINISEE\_SPACE>  (750) 
REALSpace_44bn_2023-08

>  <s_vsw_compound_code>  (750) 
33282

>  <s_vsw_variant>  (750) 
33282-2

>  <r_epik_Charging_Adjusted_Penalty>  (750) 
1.09809227273249

>  <r_epik_Ionization_Penalty>  (750) 
0.51419999999999999

>  <r_epik_Ionization_Penalty_Charging>  (750) 
0.51339999999999997

>  <r_epik_Ionization_Penalty_Neutral>  (750) 
0.00080000000000000004

>  <r_epik_State_Penalty>  (750) 
0.5847

>  <r_i_docking_score>  (750) 
-4.3636180171393102

>  <r_i_glide_ecoul>  (750) 
-9.5478258132934606

>  <r_i_glide_eff_state_penalty>  (750) 
0.5847

>  <r_i_glide_einternal>  (750) 
2.0542540550231898

>  <r_i_glide_emodel>  (750) 
-58.843511848573399

>  <r_i_glide_energy>  (750) 
-39.345204353332498

>  <r_i_glide_erotb>  (750) 
0.760239253932252

>  <r_i_glide_esite>  (750) 
-0.091773339751649197

>  <r_i_glide_evdw>  (750) 
-29.797378540039102

>  <r_i_glide_gscore>  (750) 
-4.94831801713931

>  <r_i_glide_hbond>  (750) 
-0.097303287701679203

>  <r_i_glide_ligand_efficiency>  (750) 
-0.136363063035604

>  <r_i_glide_ligand_efficiency_ln>  (750) 
-0.97713302177220296

>  <r_i_glide_ligand_efficiency_sa>  (750) 
-0.43292573892451103

>  <r_i_glide_lipo>  (750) 
-1.65813369478346

>  <r_i_glide_metal>  (750) 
-0

>  <r_i_glide_rewards>  (750) 
-0.93930414983880195

>  <r_lp_Energy>  (750) 
38.170247000000003

>  <r_qp_ACxDN^.5/SA>  (750) 
0.0094593000000000003

>  <r_qp_CIQPlogS>  (750) 
-4.7309999999999999

>  <r_qp_EA(eV)>  (750) 
0.33100000000000002

>  <r_qp_FISA>  (750) 
38.499000000000002

>  <r_qp_FOSA>  (750) 
273.31400000000002

>  <r_qp_IP(eV)>  (750) 
8.0960000000000001

>  <r_qp_Jm>  (750) 
0.057960662712484401

>  <r_qp_PISA>  (750) 
322.48599999999999

>  <r_qp_PSA>  (750) 
35.947000000000003

>  <r_qp_PercentHumanOralAbsorption>  (750) 
94.989000000000004

>  <r_qp_QPPCaco>  (750) 
265.83800000000002

>  <r_qp_QPPMDCK>  (750) 
144.607

>  <r_qp_QPlogBB>  (750) 
0.69599999999999995

>  <r_qp_QPlogHERG>  (750) 
-5.8029999999999999

>  <r_qp_QPlogKhsa>  (750) 
0.83699999999999997

>  <r_qp_QPlogKp>  (750) 
-4.6420000000000003

>  <r_qp_QPlogPC16>  (750) 
13.359

>  <r_qp_QPlogPo/w>  (750) 
4.21

>  <r_qp_QPlogPoct>  (750) 
20.225000000000001

>  <r_qp_QPlogPw>  (750) 
9.7520000000000007

>  <r_qp_QPlogS>  (750) 
-2.2240000000000002

>  <r_qp_QPpolrz>  (750) 
46.192999999999998

>  <r_qp_SASA>  (750) 
634.298

>  <r_qp_SAamideO>  (750) 
0

>  <r_qp_SAfluorine>  (750) 
0

>  <r_qp_WPSA>  (750) 
0

>  <r_qp_accptHB>  (750) 
6

>  <r_qp_dip^2/V>  (750) 
0.0104089

>  <r_qp_dipole>  (750) 
3.7170000000000001

>  <r_qp_donorHB>  (750) 
1

>  <r_qp_glob>  (750) 
0.92085709999999998

>  <r_qp_mol_MW>  (750) 
425.57499999999999

>  <r_qp_volume>  (750) 
1327.335

>  <r_sd_BIOSOLVEIT.INFINISEE\_FTREES\_SIMILARITY>  (750) 
0.91500000000000004

>  <r_sd_BIOSOLVEIT.LOGP>  (750) 
1.6829000000000001

>  <r_sd_BIOSOLVEIT.MOLECULAR\_WEIGHT>  (750) 
427.59300000000002

>  <r_sd_BIOSOLVEIT.TPSA>  (750) 
42.109999999999999

>  <i_epik_Tot_Q>  (750) 
2

>  <i_epik_Tot_abs_Q>  (750) 
2

>  <i_f3d_flags>  (750) 
0

>  <i_i_glide_confnum>  (750) 
6

>  <i_i_glide_lignum>  (750) 
340

>  <i_i_glide_posenum>  (750) 
2

>  <i_i_glide_rotatable_bonds>  (750) 
7

>  <i_lp_mmshare_version>  (750) 
65135

>  <i_m_ct_format>  (750) 
2

>  <i_m_source_file_index>  (750) 
1041

>  <i_qp_#NandO>  (750) 
5

>  <i_qp_#acid>  (750) 
0

>  <i_qp_#amide>  (750) 
0

>  <i_qp_#amidine>  (750) 
0

>  <i_qp_#amine>  (750) 
2

>  <i_qp_#in34>  (750) 
0

>  <i_qp_#in56>  (750) 
27

>  <i_qp_#metab>  (750) 
5

>  <i_qp_#nonHatm>  (750) 
32

>  <i_qp_#noncon>  (750) 
4

>  <i_qp_#ringatoms>  (750) 
27

>  <i_qp_#rotor>  (750) 
6

>  <i_qp_#rtvFG>  (750) 
0

>  <i_qp_#stars>  (750) 
0

>  <i_qp_CNS>  (750) 
2

>  <i_qp_HumanOralAbsorption>  (750) 
3

>  <i_qp_RuleOfFive>  (750) 
0

>  <i_qp_RuleOfThree>  (750) 
0

>  <i_sd_BIOSOLVEIT.INFINISEE\_REAGENT1\_NAME>  (750) 
12902882

>  <i_sd_BIOSOLVEIT.INFINISEE\_REAGENT2\_NAME>  (750) 
24720860

>  <i_sd_BIOSOLVEIT.INFINISEE\_RESULT\_RANK>  (750) 
29003

>  <i_sd_version>  (750) 
0

>  <b_lp_Chiralities_Consistent>  (750) 
1

>  <b_sd_chiral_flag>  (750) 
0

>  <canonical_id>  (750) 
ATP-HTVS-75B300C751D2

>  <compound_code>  (750) 
33282

>  <title>  (750) 
m_270004bbb____12902882____24720860

>  <variant>  (750) 
33282-2

>  <source_file>  (750) 
运行/运行/ATP-VSW/ATP-VSW-DOCK_HTVS_1-002_lib.maegz

>  <canonical_smiles>  (750) 
C[NH+]1CCN(c2ccc(C[NH2+]Cc3nc4ccccc4n3Cc3ccccc3)cc2)CC1

>  <scaffold>  (750) 
c1ccc(Cn2c(C[NH2+]Cc3ccc(N4CC[NH2+]CC4)cc3)nc3ccccc32)cc1

>  <molecular_formula>  (750) 
C27H33N5+2

$$$$
ATP-HTVS-75F52EFCCD23
     RDKit          3D

 55 57  0  0  0  0  0  0  0  0999 V2000
  202.0483  183.5683  155.1905 F   0  0  0  0  0  0  0  0  0  0  0  0
  201.0093  183.9346  155.9768 C   0  0  0  0  0  0  0  0  0  0  0  0
  201.2738  184.1737  157.2843 N   0  0  0  0  0  0  0  0  0  0  0  0
  200.2805  184.5422  158.1184 C   0  0  0  0  0  0  0  0  0  0  0  0
  198.9320  184.6902  157.6914 C   0  0  0  0  0  0  0  0  0  0  0  0
  197.8740  185.0459  158.5544 N   0  0  0  0  0  0  0  0  0  0  0  0
  196.6357  184.3631  158.6541 C   0  0  0  0  0  0  0  0  0  0  0  0
  195.5325  184.9078  159.3693 C   0  0  0  0  0  0  0  0  0  0  0  0
  194.3134  184.2234  159.4710 C   0  0  0  0  0  0  0  0  0  0  0  0
  194.1480  182.9737  158.8535 C   0  0  0  0  0  0  0  0  0  0  0  0
  195.2164  182.4007  158.1426 C   0  0  0  0  0  0  0  0  0  0  0  0
  196.4493  183.0796  158.0553 C   0  0  0  0  0  0  0  0  0  0  0  0
  197.9570  186.4374  159.0593 C   0  0  1  0  0  0  0  0  0  0  0  0
  197.4365  187.4062  158.0724 C   0  0  0  0  0  0  0  0  0  0  0  0
  197.0697  188.1736  157.2967 N   0  0  0  0  0  0  0  0  0  0  0  0
  198.6714  184.4478  156.3134 C   0  0  0  0  0  0  0  0  0  0  0  0
  199.7106  184.0802  155.4279 C   0  0  0  0  0  0  0  0  0  0  0  0
  199.4431  183.8197  153.9650 C   0  0  0  0  0  0  0  0  0  0  0  0
  200.1105  183.0262  153.3114 O   0  0  0  0  0  0  0  0  0  0  0  0
  198.4432  184.5684  153.4243 N   0  0  0  0  0  0  0  0  0  0  0  0
  197.9790  184.4878  152.0827 C   0  0  0  0  0  0  0  0  0  0  0  0
  197.3125  183.3520  151.5840 C   0  0  0  0  0  0  0  0  0  0  0  0
  197.1891  182.2067  152.4012 N   0  0  0  0  0  0  0  0  0  0  0  0
  196.5715  180.9643  151.9876 C   0  0  2  0  0  0  0  0  0  0  0  0
  196.4848  180.0155  153.1954 C   0  0  2  0  0  0  0  0  0  0  0  0
  197.3182  180.2598  150.8311 C   0  0  2  0  0  0  0  0  0  0  0  0
  196.7622  183.3912  150.2754 C   0  0  0  0  0  0  0  0  0  0  0  0
  196.9308  184.5272  149.4690 C   0  0  0  0  0  0  0  0  0  0  0  0
  197.5805  185.6682  149.9717 C   0  0  0  0  0  0  0  0  0  0  0  0
  198.0903  185.6627  151.2877 C   0  0  0  0  0  0  0  0  0  0  0  0
  200.7168  184.7344  159.5730 C   0  0  2  0  0  0  0  0  0  0  0  0
  195.5682  185.8649  159.8590 H   0  0  0  0  0  0  0  0  0  0  0  0
  193.4997  184.6687  160.0263 H   0  0  0  0  0  0  0  0  0  0  0  0
  193.1977  182.4552  158.9199 H   0  0  0  0  0  0  0  0  0  0  0  0
  195.0876  181.4376  157.6586 H   0  0  0  0  0  0  0  0  0  0  0  0
  197.2325  182.5842  157.5038 H   0  0  0  0  0  0  0  0  0  0  0  0
  197.4662  186.5443  160.0307 H   0  0  0  0  0  0  0  0  0  0  0  0
  198.9662  186.7766  159.1888 H   0  0  0  0  0  0  0  0  0  0  0  0
  197.6595  184.5367  155.9381 H   0  0  0  0  0  0  0  0  0  0  0  0
  197.9865  185.2325  154.0236 H   0  0  0  0  0  0  0  0  0  0  0  0
  197.5549  182.2646  153.3420 H   0  0  0  0  0  0  0  0  0  0  0  0
  195.5503  181.2162  151.7088 H   0  0  0  0  0  0  0  0  0  0  0  0
  195.9669  179.0917  152.9278 H   0  0  0  0  0  0  0  0  0  0  0  0
  195.9502  180.4558  154.0445 H   0  0  0  0  0  0  0  0  0  0  0  0
  197.4780  179.7293  153.5551 H   0  0  0  0  0  0  0  0  0  0  0  0
  196.7870  179.3495  150.5535 H   0  0  0  0  0  0  0  0  0  0  0  0
  198.3166  179.9616  151.1540 H   0  0  0  0  0  0  0  0  0  0  0  0
  197.4261  180.8573  149.9312 H   0  0  0  0  0  0  0  0  0  0  0  0
  196.2114  182.5622  149.8780 H   0  0  0  0  0  0  0  0  0  0  0  0
  196.5389  184.5295  148.4611 H   0  0  0  0  0  0  0  0  0  0  0  0
  197.6524  186.5579  149.3638 H   0  0  0  0  0  0  0  0  0  0  0  0
  198.5412  186.5539  151.7015 H   0  0  0  0  0  0  0  0  0  0  0  0
  200.3103  185.5876  160.0719 H   0  0  0  0  0  0  0  0  0  0  0  0
  201.8128  184.8331  159.6066 H   0  0  0  0  0  0  0  0  0  0  0  0
  200.4651  183.8344  160.1514 H   0  0  0  0  0  0  0  0  0  0  0  0
  1  2  1  0
  2  3  2  0
  2 17  1  0
  3  4  1  0
  4  5  2  0
  4 31  1  0
  5  6  1  0
  5 16  1  0
  6  7  1  0
  6 13  1  0
  7  8  2  0
  7 12  1  0
  8  9  1  0
  8 32  1  0
  9 10  2  0
  9 33  1  0
 10 11  1  0
 10 34  1  0
 11 12  2  0
 11 35  1  0
 12 36  1  0
 13 14  1  0
 13 37  1  1
 13 38  1  0
 14 15  3  0
 16 17  2  0
 16 39  1  0
 17 18  1  0
 18 19  2  0
 18 20  1  0
 20 21  1  0
 20 40  1  0
 21 22  1  0
 21 30  2  0
 22 23  1  0
 22 27  2  0
 23 24  1  0
 23 41  1  0
 24 25  1  0
 24 26  1  0
 24 42  1  6
 25 43  1  6
 25 44  1  0
 25 45  1  0
 26 46  1  6
 26 47  1  0
 26 48  1  0
 27 28  1  0
 27 49  1  0
 28 29  2  0
 28 50  1  0
 29 30  1  0
 29 51  1  0
 30 52  1  0
 31 53  1  1
 31 54  1  0
 31 55  1  0
M  END
>  <s_epik_cmdline>  (751) 
J2VwaWtfcHl0aG9uJywgJy1waCcsICc3LjAwMDAwMCcsICctcGh0JywgJzIuMDAwMDAwJywgJy1tcycsICcxNicsICctdG4nLCAnOCcsICctbWEnLCAnMjAwJywgJy1pbWFlJywgJzxpbmZpbGUubWFlPicsICctb21hZScsICc8b3V0ZmlsZS5tYWU+Jw==

>  <s_epik_input>  (751) 
W2NIXTFbY0hdW2NIXVtjSF1bY0hdYzFOKFtDSDJdQyNOKWMoYyhbQ0gzXSluYzJGKVtjSF1jMkMoPU8pW05IXWMzYyhbTkhdW0NIXShbQ0gzXSlbQ0gzXSlbY0hdW2NIXVtjSF1bY0hdMw==

>  <s_i_glide_gridfile>  (751) 
ATP-Grid

>  <s_lp_Force_Field>  (751) 
OPLS_2005

>  <s_lp_Variant>  (751) 
rxn512b____EMOL712348____EMOL337714226____EMOL108753642-1

>  <s_lp_label>  (751) 
2947_sdstereoexpander_1_neutralizer_1_epik_1_stereoizer_1

>  <s_m_source_file>  (751) 
ATP-VSW-LIGPREP-001-in.maegz

>  <s_sd_BIOSOLVEIT.INFINISEE\_QUERY\_NAME>  (751) 
Ref-Lig

>  <s_sd_BIOSOLVEIT.INFINISEE\_QUERY\_SMILES>  (751) 
S(c1nc2c(cc1C[NH2+]Cc3ccc(cc3)C[NH+](C)C)cccc2)Cc4ccccc4

>  <s_sd_BIOSOLVEIT.INFINISEE\_REACTION\_NAME>  (751) 
rxn512b

>  <s_sd_BIOSOLVEIT.INFINISEE\_REAGENT1\_NAME>  (751) 
EMOL712348

>  <s_sd_BIOSOLVEIT.INFINISEE\_REAGENT1\_SMILES>  (751) 
N#CCNc1ccccc1

>  <s_sd_BIOSOLVEIT.INFINISEE\_REAGENT2\_NAME>  (751) 
EMOL337714226

>  <s_sd_BIOSOLVEIT.INFINISEE\_REAGENT2\_SMILES>  (751) 
Brc1c(nc(F)c(c1)C(=O)O)C

>  <s_sd_BIOSOLVEIT.INFINISEE\_REAGENT3\_NAME>  (751) 
EMOL108753642

>  <s_sd_BIOSOLVEIT.INFINISEE\_REAGENT3\_SMILES>  (751) 
N(c1c(N)cccc1)C(C)C

>  <s_sd_BIOSOLVEIT.INFINISEE\_SPACE>  (751) 
eXplore_7tr_2022-12

>  <s_vsw_compound_code>  (751) 
94273

>  <s_vsw_variant>  (751) 
94273-1

>  <r_epik_Charging_Adjusted_Penalty>  (751) 
0

>  <r_epik_Ionization_Penalty>  (751) 
0.0047999999999999996

>  <r_epik_Ionization_Penalty_Charging>  (751) 
0

>  <r_epik_Ionization_Penalty_Neutral>  (751) 
0.0047999999999999996

>  <r_epik_State_Penalty>  (751) 
-0

>  <r_i_docking_score>  (751) 
-3.6027385069244402

>  <r_i_glide_ecoul>  (751) 
-1.43221318721771

>  <r_i_glide_eff_state_penalty>  (751) 
-0

>  <r_i_glide_einternal>  (751) 
7.2960438728332502

>  <r_i_glide_emodel>  (751) 
-37.7802492385363

>  <r_i_glide_energy>  (751) 
-33.712211966514602

>  <r_i_glide_erotb>  (751) 
0.680441202496335

>  <r_i_glide_esite>  (751) 
-0.0119198684893506

>  <r_i_glide_evdw>  (751) 
-32.279998779296903

>  <r_i_glide_gscore>  (751) 
-3.6027385069244402

>  <r_i_glide_hbond>  (751) 
0

>  <r_i_glide_ligand_efficiency>  (751) 
-0.116217371191111

>  <r_i_glide_ligand_efficiency_ln>  (751) 
-0.812527943986879

>  <r_i_glide_ligand_efficiency_sa>  (751) 
-0.36508300091364798

>  <r_i_glide_lipo>  (751) 
-1.71924313057774

>  <r_i_glide_metal>  (751) 
-0

>  <r_i_glide_rewards>  (751) 
-0.72318479330618501

>  <r_lp_Energy>  (751) 
31.609411000000001

>  <r_lp_tautomer_probability>  (751) 
1

>  <r_qp_ACxDN^.5/SA>  (751) 
0.013194000000000001

>  <r_qp_CIQPlogS>  (751) 
-7.1310000000000002

>  <r_qp_EA(eV)>  (751) 
1.089

>  <r_qp_FISA>  (751) 
97.941999999999993

>  <r_qp_FOSA>  (751) 
228.136

>  <r_qp_IP(eV)>  (751) 
8.1699999999999999

>  <r_qp_Jm>  (751) 
0.0068794731551039398

>  <r_qp_PISA>  (751) 
332.245

>  <r_qp_PSA>  (751) 
82.433000000000007

>  <r_qp_PercentHumanOralAbsorption>  (751) 
100

>  <r_qp_QPPCaco>  (751) 
1167.124

>  <r_qp_QPPMDCK>  (751) 
948.78099999999995

>  <r_qp_QPlogBB>  (751) 
-0.77000000000000002

>  <r_qp_QPlogHERG>  (751) 
-5.8529999999999998

>  <r_qp_QPlogKhsa>  (751) 
0.54400000000000004

>  <r_qp_QPlogKp>  (751) 
-1.3859999999999999

>  <r_qp_QPlogPC16>  (751) 
13.605

>  <r_qp_QPlogPo/w>  (751) 
4.5170000000000003

>  <r_qp_QPlogPoct>  (751) 
22.145

>  <r_qp_QPlogPw>  (751) 
11.901999999999999

>  <r_qp_QPlogS>  (751) 
-6.3970000000000002

>  <r_qp_QPpolrz>  (751) 
44.293999999999997

>  <r_qp_SASA>  (751) 
696.70699999999999

>  <r_qp_SAamideO>  (751) 
0

>  <r_qp_SAfluorine>  (751) 
38.384999999999998

>  <r_qp_WPSA>  (751) 
38.384999999999998

>  <r_qp_accptHB>  (751) 
6.5

>  <r_qp_dip^2/V>  (751) 
0.0668956

>  <r_qp_dipole>  (751) 
9.3599999999999994

>  <r_qp_donorHB>  (751) 
2

>  <r_qp_glob>  (751) 
0.83090430000000004

>  <r_qp_mol_MW>  (751) 
417.48500000000001

>  <r_qp_volume>  (751) 
1309.6469999999999

>  <r_sd_BIOSOLVEIT.INFINISEE\_FTREES\_SIMILARITY>  (751) 
0.90300000000000002

>  <r_sd_BIOSOLVEIT.LOGP>  (751) 
5.2633999999999999

>  <r_sd_BIOSOLVEIT.MOLECULAR\_WEIGHT>  (751) 
417.48599999999999

>  <r_sd_BIOSOLVEIT.TPSA>  (751) 
81.049999999999997

>  <i_epik_Tot_Q>  (751) 
0

>  <i_epik_Tot_abs_Q>  (751) 
0

>  <i_f3d_flags>  (751) 
0

>  <i_i_glide_confnum>  (751) 
4

>  <i_i_glide_lignum>  (751) 
1394

>  <i_i_glide_posenum>  (751) 
7

>  <i_i_glide_rotatable_bonds>  (751) 
8

>  <i_lp_mmshare_version>  (751) 
65135

>  <i_m_ct_format>  (751) 
2

>  <i_m_source_file_index>  (751) 
2947

>  <i_qp_#NandO>  (751) 
6

>  <i_qp_#acid>  (751) 
0

>  <i_qp_#amide>  (751) 
0

>  <i_qp_#amidine>  (751) 
0

>  <i_qp_#amine>  (751) 
0

>  <i_qp_#in34>  (751) 
0

>  <i_qp_#in56>  (751) 
18

>  <i_qp_#metab>  (751) 
9

>  <i_qp_#nonHatm>  (751) 
31

>  <i_qp_#noncon>  (751) 
0

>  <i_qp_#ringatoms>  (751) 
18

>  <i_qp_#rotor>  (751) 
8

>  <i_qp_#rtvFG>  (751) 
0

>  <i_qp_#stars>  (751) 
1

>  <i_qp_CNS>  (751) 
-1

>  <i_qp_HumanOralAbsorption>  (751) 
1

>  <i_qp_RuleOfFive>  (751) 
0

>  <i_qp_RuleOfThree>  (751) 
2

>  <i_sd_BIOSOLVEIT.INFINISEE\_RESULT\_RANK>  (751) 
79840

>  <i_sd_version>  (751) 
0

>  <b_lp_Chiralities_Consistent>  (751) 
1

>  <b_sd_chiral_flag>  (751) 
0

>  <canonical_id>  (751) 
ATP-HTVS-75F52EFCCD23

>  <compound_code>  (751) 
94273

>  <title>  (751) 
rxn512b____EMOL712348____EMOL337714226____EMOL108753642

>  <variant>  (751) 
94273-1

>  <source_file>  (751) 
运行/运行/ATP-VSW/ATP-VSW-DOCK_HTVS_1-001_lib/ATP-VSW-DOCK_HTVS_1-001_lib

>  <canonical_smiles>  (751) 
Cc1nc(F)c(C(=O)Nc2ccccc2NC(C)C)cc1N(CC#N)c1ccccc1

>  <scaffold>  (751) 
O=C(Nc1ccccc1)c1cncc(Nc2ccccc2)c1

>  <molecular_formula>  (751) 
C24H24FN5O

$$$$
ATP-HTVS-76416D54A342
     RDKit          3D

 48 51  0  0  0  0  0  0  0  0999 V2000
  201.1969  190.3668  156.2180 F   0  0  0  0  0  0  0  0  0  0  0  0
  200.0757  190.3040  156.9777 C   0  0  0  0  0  0  0  0  0  0  0  0
  199.8243  189.1685  157.7727 C   0  0  0  0  0  0  0  0  0  0  0  0
  198.6735  189.1145  158.5937 C   0  0  0  0  0  0  0  0  0  0  0  0
  197.7711  190.1935  158.5967 C   0  0  0  0  0  0  0  0  0  0  0  0
  198.0142  191.3230  157.7942 C   0  0  0  0  0  0  0  0  0  0  0  0
  199.1705  191.3826  156.9887 C   0  0  0  0  0  0  0  0  0  0  0  0
  197.0294  192.4661  157.8211 C   0  0  2  0  0  0  0  0  0  0  0  0
  198.4210  187.9054  159.4782 C   0  0  1  0  0  0  0  0  0  0  0  0
  197.5809  186.8831  158.8266 N   0  0  0  0  0  0  0  0  0  0  0  0
  198.0075  185.5228  159.2205 C   0  0  1  0  0  0  0  0  0  0  0  0
  197.0520  184.3982  158.7838 C   0  0  0  0  0  0  0  0  0  0  0  0
  195.7641  184.2908  159.3787 C   0  0  0  0  0  0  0  0  0  0  0  0
  195.2985  185.2327  160.3318 N   0  0  0  0  0  0  0  0  0  0  0  0
  195.4847  186.5571  160.2931 C   0  0  0  0  0  0  0  0  0  0  0  0
  195.1200  187.2731  161.2191 O   0  0  0  0  0  0  0  0  0  0  0  0
  196.1338  187.1724  159.0386 C   0  0  1  0  0  0  0  0  0  0  0  0
  194.9229  183.2060  159.0556 C   0  0  0  0  0  0  0  0  0  0  0  0
  195.3359  182.2326  158.1325 C   0  0  0  0  0  0  0  0  0  0  0  0
  196.6024  182.3308  157.5294 C   0  0  0  0  0  0  0  0  0  0  0  0
  197.4530  183.4015  157.8505 C   0  0  0  0  0  0  0  0  0  0  0  0
  199.4360  185.2263  158.7540 C   0  0  0  0  0  0  0  0  0  0  0  0
  200.3099  184.4452  159.5459 C   0  0  0  0  0  0  0  0  0  0  0  0
  201.6178  184.1631  159.0962 C   0  0  0  0  0  0  0  0  0  0  0  0
  202.0571  184.6453  157.8492 C   0  0  0  0  0  0  0  0  0  0  0  0
  201.1884  185.4124  157.0496 C   0  0  0  0  0  0  0  0  0  0  0  0
  199.8824  185.6856  157.4949 C   0  0  0  0  0  0  0  0  0  0  0  0
  200.5385  188.3565  157.7624 H   0  0  0  0  0  0  0  0  0  0  0  0
  196.8968  190.1676  159.2303 H   0  0  0  0  0  0  0  0  0  0  0  0
  199.3721  192.2547  156.3846 H   0  0  0  0  0  0  0  0  0  0  0  0
  197.4489  193.3640  157.3705 H   0  0  0  0  0  0  0  0  0  0  0  0
  196.7500  192.6861  158.8514 H   0  0  0  0  0  0  0  0  0  0  0  0
  196.1315  192.1871  157.2727 H   0  0  0  0  0  0  0  0  0  0  0  0
  199.4172  187.5376  159.7316 H   0  0  0  0  0  0  0  0  0  0  0  0
  197.9876  188.2117  160.4346 H   0  0  0  0  0  0  0  0  0  0  0  0
  198.0233  185.4998  160.3110 H   0  0  0  0  0  0  0  0  0  0  0  0
  194.7093  184.8806  161.0687 H   0  0  0  0  0  0  0  0  0  0  0  0
  195.9401  188.2432  159.0428 H   0  0  0  0  0  0  0  0  0  0  0  0
  195.5818  186.8047  158.1670 H   0  0  0  0  0  0  0  0  0  0  0  0
  193.9461  183.1226  159.5067 H   0  0  0  0  0  0  0  0  0  0  0  0
  194.6946  181.4024  157.8794 H   0  0  0  0  0  0  0  0  0  0  0  0
  196.9209  181.5801  156.8247 H   0  0  0  0  0  0  0  0  0  0  0  0
  198.4204  183.4142  157.3629 H   0  0  0  0  0  0  0  0  0  0  0  0
  199.9827  184.0555  160.4998 H   0  0  0  0  0  0  0  0  0  0  0  0
  202.2731  183.5589  159.7026 H   0  0  0  0  0  0  0  0  0  0  0  0
  203.0510  184.4223  157.4952 H   0  0  0  0  0  0  0  0  0  0  0  0
  201.5070  185.7800  156.0835 H   0  0  0  0  0  0  0  0  0  0  0  0
  199.2186  186.2637  156.8664 H   0  0  0  0  0  0  0  0  0  0  0  0
  1  2  1  0
  2  3  1  0
  2  7  2  0
  3  4  2  0
  3 28  1  0
  4  5  1  0
  4  9  1  0
  5  6  2  0
  5 29  1  0
  6  7  1  0
  6  8  1  0
  7 30  1  0
  8 31  1  6
  8 32  1  0
  8 33  1  0
  9 10  1  0
  9 34  1  1
  9 35  1  0
 10 11  1  0
 10 17  1  0
 11 12  1  0
 11 22  1  0
 11 36  1  1
 12 13  1  0
 12 21  2  0
 13 14  1  0
 13 18  2  0
 14 15  1  0
 14 37  1  0
 15 16  2  0
 15 17  1  0
 17 38  1  1
 17 39  1  0
 18 19  1  0
 18 40  1  0
 19 20  2  0
 19 41  1  0
 20 21  1  0
 20 42  1  0
 21 43  1  0
 22 23  2  0
 22 27  1  0
 23 24  1  0
 23 44  1  0
 24 25  2  0
 24 45  1  0
 25 26  1  0
 25 46  1  0
 26 27  2  0
 26 47  1  0
 27 48  1  0
M  END
>  <s_epik_cmdline>  (752) 
J2VwaWtfcHl0aG9uJywgJy1waCcsICc3LjAwMDAwMCcsICctcGh0JywgJzIuMDAwMDAwJywgJy1tcycsICcxNicsICctdG4nLCAnOCcsICctbWEnLCAnMjAwJywgJy1pbWFlJywgJzxpbmZpbGUubWFlPicsICctb21hZScsICc8b3V0ZmlsZS5tYWU+Jw==

>  <s_epik_input>  (752) 
W2NIXTFbY0hdW2NIXVtjSF1bY0hdYzFbQ0BIXTJOKFtDSDJdYyhbY0hdYzNGKVtjSF1jKFtjSF0zKVtDSDNdKVtDSDJdQyg9TylbTkhdYyhjMjQpW2NIXVtjSF1bY0hdW2NIXTQ=

>  <s_i_glide_gridfile>  (752) 
ATP-Grid

>  <s_lp_Force_Field>  (752) 
OPLS_2005

>  <s_lp_Variant>  (752) 
m_2230bdc____17849930____22389014-1

>  <s_lp_label>  (752) 
730_sdstereoexpander_1_neutralizer_1_epik_1_stereoizer_1

>  <s_m_source_file>  (752) 
ATP-VSW-LIGPREP-003-in.maegz

>  <s_sd_BIOSOLVEIT.INFINISEE\_QUERY\_NAME>  (752) 
Ref-Lig

>  <s_sd_BIOSOLVEIT.INFINISEE\_QUERY\_SMILES>  (752) 
S(c1nc2c(cc1C[NH2+]Cc3ccc(cc3)C[NH+](C)C)cccc2)Cc4ccccc4

>  <s_sd_BIOSOLVEIT.INFINISEE\_REACTION\_NAME>  (752) 
m_2230bdc

>  <s_sd_BIOSOLVEIT.INFINISEE\_REAGENT1\_SMILES>  (752) 
[R1*]N1C(c2c(NC(=O)C1)cccc2)c3ccccc3

>  <s_sd_BIOSOLVEIT.INFINISEE\_REAGENT2\_SMILES>  (752) 
[R1*]Cc1cc(F)cc(c1)C

>  <s_sd_BIOSOLVEIT.INFINISEE\_SPACE>  (752) 
REALSpace_44bn_2023-08

>  <s_vsw_compound_code>  (752) 
23331

>  <s_vsw_variant>  (752) 
23331-1

>  <r_epik_Charging_Adjusted_Penalty>  (752) 
0.0087634984339075902

>  <r_epik_Ionization_Penalty>  (752) 
0.0088000000000000005

>  <r_epik_Ionization_Penalty_Charging>  (752) 
0

>  <r_epik_Ionization_Penalty_Neutral>  (752) 
0.0088000000000000005

>  <r_epik_State_Penalty>  (752) 
0.0088000000000000005

>  <r_i_docking_score>  (752) 
-1.5642566217743401

>  <r_i_glide_ecoul>  (752) 
0.33739009499549899

>  <r_i_glide_eff_state_penalty>  (752) 
0.0088000000000000005

>  <r_i_glide_einternal>  (752) 
0.27705982327461198

>  <r_i_glide_emodel>  (752) 
-32.762166705109003

>  <r_i_glide_energy>  (752) 
-29.9865597188473

>  <r_i_glide_erotb>  (752) 
0.44291010722313801

>  <r_i_glide_esite>  (752) 
0

>  <r_i_glide_evdw>  (752) 
-30.323949813842798

>  <r_i_glide_gscore>  (752) 
-1.57305662177434

>  <r_i_glide_hbond>  (752) 
0

>  <r_i_glide_ligand_efficiency>  (752) 
-0.057935430436086698

>  <r_i_glide_ligand_efficiency_ln>  (752) 
-0.364133152763154

>  <r_i_glide_ligand_efficiency_sa>  (752) 
-0.17380629111731399

>  <r_i_glide_lipo>  (752) 
-1.19875194548946

>  <r_i_glide_metal>  (752) 
-0

>  <r_i_glide_rewards>  (752) 
0.64837419293478904

>  <r_lp_Energy>  (752) 
38.315871999999999

>  <r_qp_ACxDN^.5/SA>  (752) 
0.0070377

>  <r_qp_CIQPlogS>  (752) 
-4.6420000000000003

>  <r_qp_EA(eV)>  (752) 
0.376

>  <r_qp_FISA>  (752) 
71.528999999999996

>  <r_qp_FOSA>  (752) 
134.10599999999999

>  <r_qp_IP(eV)>  (752) 
9.0299999999999994

>  <r_qp_Jm>  (752) 
0.00188139110928754

>  <r_qp_PISA>  (752) 
387.16899999999998

>  <r_qp_PSA>  (752) 
42.810000000000002

>  <r_qp_PercentHumanOralAbsorption>  (752) 
100

>  <r_qp_QPPCaco>  (752) 
518.19600000000003

>  <r_qp_QPPMDCK>  (752) 
484.13799999999998

>  <r_qp_QPlogBB>  (752) 
0.26700000000000002

>  <r_qp_QPlogHERG>  (752) 
-6.8230000000000004

>  <r_qp_QPlogKhsa>  (752) 
0.79900000000000004

>  <r_qp_QPlogKp>  (752) 
-3.3439999999999999

>  <r_qp_QPlogPC16>  (752) 
12.090999999999999

>  <r_qp_QPlogPo/w>  (752) 
4.2519999999999998

>  <r_qp_QPlogPoct>  (752) 
18.547000000000001

>  <r_qp_QPlogPw>  (752) 
9.8499999999999996

>  <r_qp_QPlogS>  (752) 
-4.9379999999999997

>  <r_qp_QPpolrz>  (752) 
42.43

>  <r_qp_SASA>  (752) 
639.41399999999999

>  <r_qp_SAamideO>  (752) 
0

>  <r_qp_SAfluorine>  (752) 
46.610999999999997

>  <r_qp_WPSA>  (752) 
46.610999999999997

>  <r_qp_accptHB>  (752) 
4.5

>  <r_qp_dip^2/V>  (752) 
0.026095

>  <r_qp_dipole>  (752) 
5.4870000000000001

>  <r_qp_donorHB>  (752) 
1

>  <r_qp_glob>  (752) 
0.83196970000000003

>  <r_qp_mol_MW>  (752) 
360.43000000000001

>  <r_qp_volume>  (752) 
1153.6849999999999

>  <r_sd_BIOSOLVEIT.INFINISEE\_FTREES\_SIMILARITY>  (752) 
0.92800000000000005

>  <r_sd_BIOSOLVEIT.LOGP>  (752) 
3.2607200000000001

>  <r_sd_BIOSOLVEIT.MOLECULAR\_WEIGHT>  (752) 
361.43799999999999

>  <r_sd_BIOSOLVEIT.TPSA>  (752) 
33.539999999999999

>  <i_epik_Tot_Q>  (752) 
0

>  <i_epik_Tot_abs_Q>  (752) 
0

>  <i_f3d_flags>  (752) 
0

>  <i_i_glide_confnum>  (752) 
3

>  <i_i_glide_lignum>  (752) 
310

>  <i_i_glide_posenum>  (752) 
7

>  <i_i_glide_rotatable_bonds>  (752) 
3

>  <i_lp_mmshare_version>  (752) 
65135

>  <i_m_ct_format>  (752) 
2

>  <i_m_source_file_index>  (752) 
730

>  <i_qp_#NandO>  (752) 
3

>  <i_qp_#acid>  (752) 
0

>  <i_qp_#amide>  (752) 
0

>  <i_qp_#amidine>  (752) 
0

>  <i_qp_#amine>  (752) 
1

>  <i_qp_#in34>  (752) 
0

>  <i_qp_#in56>  (752) 
18

>  <i_qp_#metab>  (752) 
8

>  <i_qp_#nonHatm>  (752) 
27

>  <i_qp_#noncon>  (752) 
2

>  <i_qp_#ringatoms>  (752) 
23

>  <i_qp_#rotor>  (752) 
2

>  <i_qp_#rtvFG>  (752) 
0

>  <i_qp_#stars>  (752) 
0

>  <i_qp_CNS>  (752) 
1

>  <i_qp_HumanOralAbsorption>  (752) 
3

>  <i_qp_RuleOfFive>  (752) 
0

>  <i_qp_RuleOfThree>  (752) 
1

>  <i_sd_BIOSOLVEIT.INFINISEE\_REAGENT1\_NAME>  (752) 
17849930

>  <i_sd_BIOSOLVEIT.INFINISEE\_REAGENT2\_NAME>  (752) 
22389014

>  <i_sd_BIOSOLVEIT.INFINISEE\_RESULT\_RANK>  (752) 
6463

>  <i_sd_version>  (752) 
0

>  <b_lp_Chiralities_Consistent>  (752) 
1

>  <b_sd_chiral_flag>  (752) 
0

>  <canonical_id>  (752) 
ATP-HTVS-76416D54A342

>  <compound_code>  (752) 
23331

>  <title>  (752) 
m_2230bdc____17849930____22389014

>  <variant>  (752) 
23331-1

>  <source_file>  (752) 
运行/运行/ATP-VSW/ATP-VSW-DOCK_HTVS_1-003_lib/ATP-VSW-DOCK_HTVS_1-003_lib.mae

>  <canonical_smiles>  (752) 
Cc1cc(F)cc(CN2CC(=O)Nc3ccccc3[C@H]2c2ccccc2)c1

>  <scaffold>  (752) 
O=C1CN(Cc2ccccc2)C(c2ccccc2)c2ccccc2N1

>  <molecular_formula>  (752) 
C23H21FN2O

$$$$
ATP-HTVS-767E37D8A78C
     RDKit          3D

 55 57  0  0  0  0  0  0  0  0999 V2000
  199.7433  188.8137  159.1899 Cl  0  0  0  0  0  0  0  0  0  0  0  0
  199.1911  187.2002  158.9786 C   0  0  0  0  0  0  0  0  0  0  0  0
  197.5486  186.8153  159.3860 S   0  0  0  0  0  0  0  0  0  0  0  0
  197.8073  185.1363  158.9437 C   0  0  0  0  0  0  0  0  0  0  0  0
  196.6160  184.2604  159.0410 C   0  0  0  0  0  0  0  0  0  0  0  0
  195.9219  184.3299  160.0613 O   0  0  0  0  0  0  0  0  0  0  0  0
  196.3021  183.4399  158.0049 N   0  0  0  0  0  0  0  0  0  0  0  0
  196.9960  183.4377  156.7423 C   0  0  0  0  0  0  0  0  0  0  0  0
  197.5594  182.2558  156.2082 C   0  0  0  0  0  0  0  0  0  0  0  0
  197.6030  181.0646  156.9312 N   0  0  0  0  0  0  0  0  0  0  0  0
  198.1705  182.2840  154.9456 C   0  0  0  0  0  0  0  0  0  0  0  0
  198.3191  183.5027  154.2494 C   0  0  0  0  0  0  0  0  0  0  0  0
  197.8058  184.6906  154.7875 C   0  0  0  0  0  0  0  0  0  0  0  0
  197.1518  184.6556  156.0251 C   0  0  0  0  0  0  0  0  0  0  0  0
  195.1799  182.5005  158.1616 C   0  0  2  0  0  0  0  0  0  0  0  0
  199.1101  184.9112  158.5402 C   0  0  0  0  0  0  0  0  0  0  0  0
  199.6472  183.6640  158.1426 N   0  0  0  0  0  0  0  0  0  0  0  0
  200.9092  183.5444  157.4212 C   0  0  1  0  0  0  0  0  0  0  0  0
  201.1958  182.1578  156.8664 C   0  0  0  0  0  0  0  0  0  0  0  0
  200.9506  181.8696  155.5069 C   0  0  0  0  0  0  0  0  0  0  0  0
  201.1453  180.5524  155.0311 C   0  0  0  0  0  0  0  0  0  0  0  0
  201.6426  179.5444  155.8850 C   0  0  0  0  0  0  0  0  0  0  0  0
  201.9560  179.8580  157.2310 C   0  0  0  0  0  0  0  0  0  0  0  0
  201.7045  181.1512  157.7226 C   0  0  0  0  0  0  0  0  0  0  0  0
  201.8545  178.1186  155.3717 C   0  0  1  0  0  0  0  0  0  0  0  0
  200.7814  177.1654  155.7775 N   0  0  1  0  0  0  0  0  0  0  0  0
  201.1245  175.7726  155.4055 C   0  0  2  0  0  0  0  0  0  0  0  0
  200.3913  177.2655  157.2068 C   0  0  2  0  0  0  0  0  0  0  0  0
  199.8932  186.1119  158.5363 C   0  0  0  0  0  0  0  0  0  0  0  0
  197.8978  180.1975  156.5069 H   0  0  0  0  0  0  0  0  0  0  0  0
  196.9980  180.9108  157.7402 H   0  0  0  0  0  0  0  0  0  0  0  0
  198.5683  181.3619  154.5017 H   0  0  0  0  0  0  0  0  0  0  0  0
  198.8527  183.5264  153.3037 H   0  0  0  0  0  0  0  0  0  0  0  0
  197.9438  185.6383  154.2814 H   0  0  0  0  0  0  0  0  0  0  0  0
  196.7613  185.5925  156.4330 H   0  0  0  0  0  0  0  0  0  0  0  0
  195.0085  181.9276  157.2501 H   0  0  0  0  0  0  0  0  0  0  0  0
  194.2539  183.0368  158.3746 H   0  0  0  0  0  0  0  0  0  0  0  0
  195.3697  181.7797  158.9604 H   0  0  0  0  0  0  0  0  0  0  0  0
  199.0020  182.8825  158.0606 H   0  0  0  0  0  0  0  0  0  0  0  0
  200.9238  184.2537  156.5940 H   0  0  0  0  0  0  0  0  0  0  0  0
  201.7213  183.8185  158.1013 H   0  0  0  0  0  0  0  0  0  0  0  0
  200.5817  182.6437  154.8236 H   0  0  0  0  0  0  0  0  0  0  0  0
  200.8881  180.3134  154.0064 H   0  0  0  0  0  0  0  0  0  0  0  0
  202.3867  179.1069  157.8867 H   0  0  0  0  0  0  0  0  0  0  0  0
  201.8714  181.3632  158.7777 H   0  0  0  0  0  0  0  0  0  0  0  0
  201.9264  178.1298  154.2808 H   0  0  0  0  0  0  0  0  0  0  0  0
  202.8171  177.7589  155.7317 H   0  0  0  0  0  0  0  0  0  0  0  0
  202.0467  175.4508  155.8943 H   0  0  0  0  0  0  0  0  0  0  0  0
  201.2563  175.6670  154.3266 H   0  0  0  0  0  0  0  0  0  0  0  0
  200.3387  175.0839  155.7116 H   0  0  0  0  0  0  0  0  0  0  0  0
  201.2488  177.0458  157.8475 H   0  0  0  0  0  0  0  0  0  0  0  0
  199.5903  176.5784  157.4512 H   0  0  0  0  0  0  0  0  0  0  0  0
  200.0135  178.2611  157.4529 H   0  0  0  0  0  0  0  0  0  0  0  0
  200.9291  186.1503  158.2324 H   0  0  0  0  0  0  0  0  0  0  0  0
  199.9551  177.4202  155.2543 H   0  0  0  0  0  0  0  0  0  0  0  0
  1  2  1  0
  2  3  1  0
  2 29  2  0
  3  4  1  0
  4  5  1  0
  4 16  2  0
  5  6  2  0
  5  7  1  0
  7  8  1  0
  7 15  1  0
  8  9  1  0
  8 14  2  0
  9 10  1  0
  9 11  2  0
 10 30  1  0
 10 31  1  0
 11 12  1  0
 11 32  1  0
 12 13  2  0
 12 33  1  0
 13 14  1  0
 13 34  1  0
 14 35  1  0
 15 36  1  6
 15 37  1  0
 15 38  1  0
 16 17  1  0
 16 29  1  0
 17 18  1  0
 17 39  1  0
 18 19  1  0
 18 40  1  6
 18 41  1  0
 19 20  1  0
 19 24  2  0
 20 21  2  0
 20 42  1  0
 21 22  1  0
 21 43  1  0
 22 23  2  0
 22 25  1  0
 23 24  1  0
 23 44  1  0
 24 45  1  0
 25 26  1  0
 25 46  1  6
 25 47  1  0
 26 27  1  0
 26 28  1  0
 26 55  1  6
 27 48  1  1
 27 49  1  0
 27 50  1  0
 28 51  1  1
 28 52  1  0
 28 53  1  0
 29 54  1  0
M  CHG  1  26   1
M  END
>  <s_epik_cmdline>  (753) 
J2VwaWtfcHl0aG9uJywgJy1waCcsICc3LjAwMDAwMCcsICctcGh0JywgJzIuMDAwMDAwJywgJy1tcycsICcxNicsICctdG4nLCAnOCcsICctbWEnLCAnMjAwJywgJy1pbWFlJywgJzxpbmZpbGUubWFlPicsICctb21hZScsICc8b3V0ZmlsZS5tYWU+Jw==

>  <s_epik_input>  (753) 
W2NIXTFbY0hdW2NIXVtjSF1jKFtOSDJdKWMxTihbQ0gzXSlDKD1PKWMoc2MyQ2wpYyhbY0hdMilbTkhdW0NIMl1jM1tjSF1bY0hdYyhbY0hdW2NIXTMpW0NIMl1OKFtDSDNdKVtDSDNd

>  <s_i_glide_gridfile>  (753) 
ATP-Grid

>  <s_lp_Force_Field>  (753) 
OPLS_2005

>  <s_lp_Variant>  (753) 
rxn512b____EMOL2735375____EMOL49851977____EMOL50155899-1

>  <s_lp_label>  (753) 
2329_sdstereoexpander_1_neutralizer_1_epik_1_stereoizer_1

>  <s_m_source_file>  (753) 
ATP-VSW-LIGPREP-002-in.maegz

>  <s_sd_BIOSOLVEIT.INFINISEE\_QUERY\_NAME>  (753) 
Ref-Lig

>  <s_sd_BIOSOLVEIT.INFINISEE\_QUERY\_SMILES>  (753) 
S(c1nc2c(cc1C[NH2+]Cc3ccc(cc3)C[NH+](C)C)cccc2)Cc4ccccc4

>  <s_sd_BIOSOLVEIT.INFINISEE\_REACTION\_NAME>  (753) 
rxn512b

>  <s_sd_BIOSOLVEIT.INFINISEE\_REAGENT1\_NAME>  (753) 
EMOL2735375

>  <s_sd_BIOSOLVEIT.INFINISEE\_REAGENT1\_SMILES>  (753) 
N(c1c(N)cccc1)C

>  <s_sd_BIOSOLVEIT.INFINISEE\_REAGENT2\_NAME>  (753) 
EMOL49851977

>  <s_sd_BIOSOLVEIT.INFINISEE\_REAGENT2\_SMILES>  (753) 
BrC1=C(SC(Cl)=C1)C(=O)O

>  <s_sd_BIOSOLVEIT.INFINISEE\_REAGENT3\_NAME>  (753) 
EMOL50155899

>  <s_sd_BIOSOLVEIT.INFINISEE\_REAGENT3\_SMILES>  (753) 
N(Cc1ccc(cc1)CN)(C)C

>  <s_sd_BIOSOLVEIT.INFINISEE\_SPACE>  (753) 
eXplore_7tr_2022-12

>  <s_vsw_compound_code>  (753) 
74498

>  <s_vsw_variant>  (753) 
74498-1

>  <r_epik_Charging_Adjusted_Penalty>  (753) 
0.080189274810459593

>  <r_epik_Ionization_Penalty>  (753) 
0.040599999999999997

>  <r_epik_Ionization_Penalty_Charging>  (753) 
0.040099999999999997

>  <r_epik_Ionization_Penalty_Neutral>  (753) 
0.00050000000000000001

>  <r_epik_State_Penalty>  (753) 
0.040099999999999997

>  <r_i_docking_score>  (753) 
-3.33590904639428

>  <r_i_glide_ecoul>  (753) 
-7.2058739662170401

>  <r_i_glide_eff_state_penalty>  (753) 
0.040099999999999997

>  <r_i_glide_einternal>  (753) 
1.7376685142517101

>  <r_i_glide_emodel>  (753) 
-45.942883483474901

>  <r_i_glide_energy>  (753) 
-36.703709125518799

>  <r_i_glide_erotb>  (753) 
0.75256507117160198

>  <r_i_glide_esite>  (753) 
-0.12555135073849799

>  <r_i_glide_evdw>  (753) 
-29.4978351593018

>  <r_i_glide_gscore>  (753) 
-3.3760090463942798

>  <r_i_glide_hbond>  (753) 
-0.0313362997479954

>  <r_i_glide_ligand_efficiency>  (753) 
-0.11503134642738901

>  <r_i_glide_ligand_efficiency_ln>  (753) 
-0.76383858026961604

>  <r_i_glide_ligand_efficiency_sa>  (753) 
-0.353412740713483

>  <r_i_glide_lipo>  (753) 
-0.55302055038158504

>  <r_i_glide_metal>  (753) 
-0

>  <r_i_glide_rewards>  (753) 
-0.86289306380016195

>  <r_lp_Energy>  (753) 
40.928311000000001

>  <r_lp_tautomer_probability>  (753) 
0.99999274205267796

>  <r_qp_ACxDN^.5/SA>  (753) 
0.0096714000000000001

>  <r_qp_CIQPlogS>  (753) 
-4.4340000000000002

>  <r_qp_EA(eV)>  (753) 
0.40899999999999997

>  <r_qp_FISA>  (753) 
81.844999999999999

>  <r_qp_FOSA>  (753) 
281.89800000000002

>  <r_qp_IP(eV)>  (753) 
8.1050000000000004

>  <r_qp_Jm>  (753) 
5.8447185322664798e-05

>  <r_qp_PISA>  (753) 
297.262

>  <r_qp_PSA>  (753) 
68.194999999999993

>  <r_qp_PercentHumanOralAbsorption>  (753) 
88.200999999999993

>  <r_qp_QPPCaco>  (753) 
103.172

>  <r_qp_QPPMDCK>  (753) 
180.79300000000001

>  <r_qp_QPlogBB>  (753) 
0.224

>  <r_qp_QPlogHERG>  (753) 
-7.9619999999999997

>  <r_qp_QPlogKhsa>  (753) 
0.754

>  <r_qp_QPlogKp>  (753) 
-5.3380000000000001

>  <r_qp_QPlogPC16>  (753) 
14.657

>  <r_qp_QPlogPo/w>  (753) 
4.3070000000000004

>  <r_qp_QPlogPoct>  (753) 
20.838000000000001

>  <r_qp_QPlogPw>  (753) 
10.503

>  <r_qp_QPlogS>  (753) 
-4.5279999999999996

>  <r_qp_QPpolrz>  (753) 
45.835999999999999

>  <r_qp_SASA>  (753) 
759.81700000000001

>  <r_qp_SAamideO>  (753) 
0

>  <r_qp_SAfluorine>  (753) 
0

>  <r_qp_WPSA>  (753) 
98.811999999999998

>  <r_qp_accptHB>  (753) 
6

>  <r_qp_dip^2/V>  (753) 
0.0084693000000000008

>  <r_qp_dipole>  (753) 
3.3900000000000001

>  <r_qp_donorHB>  (753) 
1.5

>  <r_qp_glob>  (753) 
0.77995930000000002

>  <r_qp_mol_MW>  (753) 
428.97899999999998

>  <r_qp_volume>  (753) 
1356.5129999999999

>  <r_sd_BIOSOLVEIT.INFINISEE\_FTREES\_SIMILARITY>  (753) 
0.92200000000000004

>  <r_sd_BIOSOLVEIT.LOGP>  (753) 
3.5169000000000001

>  <r_sd_BIOSOLVEIT.MOLECULAR\_WEIGHT>  (753) 
429.99200000000002

>  <r_sd_BIOSOLVEIT.TPSA>  (753) 
62.799999999999997

>  <i_epik_Tot_Q>  (753) 
1

>  <i_epik_Tot_abs_Q>  (753) 
1

>  <i_f3d_flags>  (753) 
0

>  <i_i_glide_confnum>  (753) 
10

>  <i_i_glide_lignum>  (753) 
941

>  <i_i_glide_posenum>  (753) 
15

>  <i_i_glide_rotatable_bonds>  (753) 
8

>  <i_lp_mmshare_version>  (753) 
65135

>  <i_m_ct_format>  (753) 
2

>  <i_m_source_file_index>  (753) 
2329

>  <i_qp_#NandO>  (753) 
5

>  <i_qp_#acid>  (753) 
0

>  <i_qp_#amide>  (753) 
0

>  <i_qp_#amidine>  (753) 
0

>  <i_qp_#amine>  (753) 
2

>  <i_qp_#in34>  (753) 
0

>  <i_qp_#in56>  (753) 
17

>  <i_qp_#metab>  (753) 
8

>  <i_qp_#nonHatm>  (753) 
29

>  <i_qp_#noncon>  (753) 
0

>  <i_qp_#ringatoms>  (753) 
17

>  <i_qp_#rotor>  (753) 
8

>  <i_qp_#rtvFG>  (753) 
0

>  <i_qp_#stars>  (753) 
0

>  <i_qp_CNS>  (753) 
1

>  <i_qp_HumanOralAbsorption>  (753) 
3

>  <i_qp_RuleOfFive>  (753) 
0

>  <i_qp_RuleOfThree>  (753) 
1

>  <i_sd_BIOSOLVEIT.INFINISEE\_RESULT\_RANK>  (753) 
13940

>  <i_sd_version>  (753) 
0

>  <b_lp_Chiralities_Consistent>  (753) 
1

>  <b_sd_chiral_flag>  (753) 
0

>  <canonical_id>  (753) 
ATP-HTVS-767E37D8A78C

>  <compound_code>  (753) 
74498

>  <title>  (753) 
rxn512b____EMOL2735375____EMOL49851977____EMOL50155899

>  <variant>  (753) 
74498-1

>  <source_file>  (753) 
运行/运行/ATP-VSW/ATP-VSW-DOCK_HTVS_1-002_lib.maegz

>  <canonical_smiles>  (753) 
CN(C(=O)c1sc(Cl)cc1NCc1ccc(C[NH+](C)C)cc1)c1ccccc1N

>  <scaffold>  (753) 
O=C(Nc1ccccc1)c1sccc1NCc1ccccc1

>  <molecular_formula>  (753) 
C22H26ClN4OS+

$$$$
ATP-HTVS-7694DCD97798
     RDKit          3D

 54 57  0  0  0  0  0  0  0  0999 V2000
  194.0888  183.9517  160.2946 F   0  0  0  0  0  0  0  0  0  0  0  0
  195.0671  184.7592  159.8268 C   0  0  0  0  0  0  0  0  0  0  0  0
  195.2832  185.9884  160.4944 C   0  0  0  0  0  0  0  0  0  0  0  0
  194.5199  186.3365  161.5593 F   0  0  0  0  0  0  0  0  0  0  0  0
  196.3018  186.8622  160.0739 C   0  0  0  0  0  0  0  0  0  0  0  0
  197.0972  186.5106  158.9681 C   0  0  0  0  0  0  0  0  0  0  0  0
  196.8737  185.2893  158.2908 C   0  0  0  0  0  0  0  0  0  0  0  0
  195.8678  184.3852  158.7111 C   0  0  0  0  0  0  0  0  0  0  0  0
  195.6934  183.0598  157.9314 C   0  0  1  0  0  0  0  0  0  0  0  0
  196.9406  182.2850  157.9698 N   0  0  0  0  0  0  0  0  0  0  0  0
  197.1654  181.4058  156.8128 C   0  0  1  0  0  0  0  0  0  0  0  0
  197.7121  182.1565  155.6107 C   0  0  0  0  0  0  0  0  0  0  0  0
  198.9661  182.7738  155.7226 C   0  0  0  0  0  0  0  0  0  0  0  0
  199.5274  183.5100  154.6413 C   0  0  0  0  0  0  0  0  0  0  0  0
  200.7728  184.1169  154.6879 O   0  0  0  0  0  0  0  0  0  0  0  0
  201.4469  184.2616  155.9386 C   0  0  1  0  0  0  0  0  0  0  0  0
  201.8528  182.9407  156.5771 C   0  0  0  0  0  0  0  0  0  0  0  0
  201.8436  182.8024  157.9809 C   0  0  0  0  0  0  0  0  0  0  0  0
  202.1084  181.5495  158.5686 C   0  0  0  0  0  0  0  0  0  0  0  0
  202.3660  180.4296  157.7555 C   0  0  0  0  0  0  0  0  0  0  0  0
  202.3785  180.5649  156.3536 C   0  0  0  0  0  0  0  0  0  0  0  0
  202.1236  181.8164  155.7675 C   0  0  0  0  0  0  0  0  0  0  0  0
  198.7794  183.6206  153.4447 C   0  0  0  0  0  0  0  0  0  0  0  0
  197.5053  183.0031  153.3366 C   0  0  0  0  0  0  0  0  0  0  0  0
  196.9752  182.2614  154.4153 C   0  0  0  0  0  0  0  0  0  0  0  0
  196.7474  183.1411  152.1591 C   0  0  0  0  0  0  0  0  0  0  0  0
  197.2439  183.8988  151.0791 C   0  0  0  0  0  0  0  0  0  0  0  0
  198.5100  184.5080  151.1715 C   0  0  0  0  0  0  0  0  0  0  0  0
  199.2788  184.3656  152.3446 C   0  0  0  0  0  0  0  0  0  0  0  0
  194.5124  182.1548  158.3674 C   0  0  1  0  0  0  0  0  0  0  0  0
  193.2621  182.7995  158.1346 O   0  0  0  0  0  0  0  0  0  0  0  0
  196.9259  181.6762  158.7847 H   0  0  0  0  0  0  0  0  0  0  0  0
  196.4678  187.7882  160.6061 H   0  0  0  0  0  0  0  0  0  0  0  0
  197.8879  187.1743  158.6377 H   0  0  0  0  0  0  0  0  0  0  0  0
  197.4926  185.0315  157.4416 H   0  0  0  0  0  0  0  0  0  0  0  0
  195.5415  183.3713  156.8980 H   0  0  0  0  0  0  0  0  0  0  0  0
  197.9007  180.6456  157.0863 H   0  0  0  0  0  0  0  0  0  0  0  0
  196.2675  180.8605  156.5436 H   0  0  0  0  0  0  0  0  0  0  0  0
  199.4706  182.6445  156.6685 H   0  0  0  0  0  0  0  0  0  0  0  0
  202.3495  184.8605  155.7770 H   0  0  0  0  0  0  0  0  0  0  0  0
  200.8200  184.8336  156.6248 H   0  0  0  0  0  0  0  0  0  0  0  0
  201.5938  183.6480  158.6058 H   0  0  0  0  0  0  0  0  0  0  0  0
  202.0469  181.4372  159.6413 H   0  0  0  0  0  0  0  0  0  0  0  0
  202.5278  179.4577  158.1986 H   0  0  0  0  0  0  0  0  0  0  0  0
  202.5187  179.6962  155.7265 H   0  0  0  0  0  0  0  0  0  0  0  0
  202.0911  181.9043  154.6915 H   0  0  0  0  0  0  0  0  0  0  0  0
  195.9957  181.8056  154.3447 H   0  0  0  0  0  0  0  0  0  0  0  0
  195.7702  182.6841  152.1024 H   0  0  0  0  0  0  0  0  0  0  0  0
  196.6447  184.0131  150.1870 H   0  0  0  0  0  0  0  0  0  0  0  0
  198.8842  185.0943  150.3421 H   0  0  0  0  0  0  0  0  0  0  0  0
  200.2447  184.8492  152.3922 H   0  0  0  0  0  0  0  0  0  0  0  0
  194.4735  181.2253  157.8120 H   0  0  0  0  0  0  0  0  0  0  0  0
  194.5951  181.9060  159.4223 H   0  0  0  0  0  0  0  0  0  0  0  0
  193.2129  183.0125  157.1980 H   0  0  0  0  0  0  0  0  0  0  0  0
  1  2  1  0
  2  3  2  0
  2  8  1  0
  3  4  1  0
  3  5  1  0
  5  6  2  0
  5 33  1  0
  6  7  1  0
  6 34  1  0
  7  8  2  0
  7 35  1  0
  8  9  1  0
  9 10  1  0
  9 30  1  0
  9 36  1  6
 10 11  1  0
 10 32  1  0
 11 12  1  0
 11 37  1  1
 11 38  1  0
 12 13  1  0
 12 25  2  0
 13 14  2  0
 13 39  1  0
 14 15  1  0
 14 23  1  0
 15 16  1  0
 16 17  1  0
 16 40  1  6
 16 41  1  0
 17 18  2  0
 17 22  1  0
 18 19  1  0
 18 42  1  0
 19 20  2  0
 19 43  1  0
 20 21  1  0
 20 44  1  0
 21 22  2  0
 21 45  1  0
 22 46  1  0
 23 24  1  0
 23 29  2  0
 24 25  1  0
 24 26  2  0
 25 47  1  0
 26 27  1  0
 26 48  1  0
 27 28  2  0
 27 49  1  0
 28 29  1  0
 28 50  1  0
 29 51  1  0
 30 31  1  0
 30 52  1  6
 30 53  1  0
 31 54  1  0
M  END
>  <s_epik_cmdline>  (754) 
J2VwaWtfcHl0aG9uJywgJy1waCcsICc3LjAwMDAwMCcsICctcGh0JywgJzIuMDAwMDAwJywgJy1tcycsICcxNicsICctdG4nLCAnOCcsICctbWEnLCAnMjAwJywgJy1pbWFlJywgJzxpbmZpbGUubWFlPicsICctb21hZScsICc8b3V0ZmlsZS5tYWU+Jw==

>  <s_epik_input>  (754) 
RmMxYyhGKVtjSF1bY0hdW2NIXWMxW0NASF0oW0NIMl1bT0hdKVtOSF1bQ0gyXWMoW2NIXWMoYzIzKVtjSF1bY0hdW2NIXVtjSF0zKVtjSF1jMk9bQ0gyXWM0W2NIXVtjSF1bY0hdW2NIXVtjSF00

>  <s_i_glide_gridfile>  (754) 
ATP-Grid

>  <s_lp_Force_Field>  (754) 
OPLS_2005

>  <s_lp_Variant>  (754) 
m_270004beb____23852590____8127862-3

>  <s_lp_label>  (754) 
1132_sdstereoexpander_1_neutralizer_1_epik_2_stereoizer_1

>  <s_m_source_file>  (754) 
ATP-VSW-LIGPREP-003-in.maegz

>  <s_sd_BIOSOLVEIT.INFINISEE\_QUERY\_NAME>  (754) 
Ref-Lig

>  <s_sd_BIOSOLVEIT.INFINISEE\_QUERY\_SMILES>  (754) 
S(c1nc2c(cc1C[NH2+]Cc3ccc(cc3)C[NH+](C)C)cccc2)Cc4ccccc4

>  <s_sd_BIOSOLVEIT.INFINISEE\_REACTION\_NAME>  (754) 
m_270004beb

>  <s_sd_BIOSOLVEIT.INFINISEE\_REAGENT1\_SMILES>  (754) 
[R1*]NC(c1c(F)c(F)ccc1)CO

>  <s_sd_BIOSOLVEIT.INFINISEE\_REAGENT2\_SMILES>  (754) 
[R1*]Cc1cc(OCc2ccccc2)c3c(c1)cccc3

>  <s_sd_BIOSOLVEIT.INFINISEE\_SPACE>  (754) 
REALSpace_44bn_2023-08

>  <s_vsw_compound_code>  (754) 
36195

>  <s_vsw_variant>  (754) 
36195-3

>  <r_epik_Charging_Adjusted_Penalty>  (754) 
0.74199115077676303

>  <r_epik_Ionization_Penalty>  (754) 
0.74199999999999999

>  <r_epik_Ionization_Penalty_Charging>  (754) 
0

>  <r_epik_Ionization_Penalty_Neutral>  (754) 
0.74199999999999999

>  <r_epik_State_Penalty>  (754) 
0.74199999999999999

>  <r_i_docking_score>  (754) 
-3.91202102521058

>  <r_i_glide_ecoul>  (754) 
-10.5233354568481

>  <r_i_glide_eff_state_penalty>  (754) 
0.74199999999999999

>  <r_i_glide_einternal>  (754) 
12.7039289474487

>  <r_i_glide_emodel>  (754) 
-45.447872327016498

>  <r_i_glide_energy>  (754) 
-39.0446615219116

>  <r_i_glide_erotb>  (754) 
0.78707408045792704

>  <r_i_glide_esite>  (754) 
0

>  <r_i_glide_evdw>  (754) 
-28.521326065063501

>  <r_i_glide_gscore>  (754) 
-4.6540210252105796

>  <r_i_glide_hbond>  (754) 
-0.16

>  <r_i_glide_ligand_efficiency>  (754) 
-0.12619422661969601

>  <r_i_glide_ligand_efficiency_ln>  (754) 
-0.88228063023127801

>  <r_i_glide_ligand_efficiency_sa>  (754) 
-0.39642410149283602

>  <r_i_glide_lipo>  (754) 
-1.2912551746319401

>  <r_i_glide_metal>  (754) 
-0

>  <r_i_glide_rewards>  (754) 
-0.98527330925616197

>  <r_lp_Energy>  (754) 
27.419754000000001

>  <r_qp_ACxDN^.5/SA>  (754) 
0.0087434000000000001

>  <r_qp_CIQPlogS>  (754) 
-6.3339999999999996

>  <r_qp_EA(eV)>  (754) 
0.54400000000000004

>  <r_qp_FISA>  (754) 
60.341999999999999

>  <r_qp_FOSA>  (754) 
110.539

>  <r_qp_IP(eV)>  (754) 
8.2140000000000004

>  <r_qp_Jm>  (754) 
0.30149854096263501

>  <r_qp_PISA>  (754) 
427.44499999999999

>  <r_qp_PSA>  (754) 
39.810000000000002

>  <r_qp_PercentHumanOralAbsorption>  (754) 
93.747

>  <r_qp_QPPCaco>  (754) 
661.577

>  <r_qp_QPPMDCK>  (754) 
584.19399999999996

>  <r_qp_QPlogBB>  (754) 
-0.0040000000000000001

>  <r_qp_QPlogHERG>  (754) 
-6.2939999999999996

>  <r_qp_QPlogKhsa>  (754) 
0.80600000000000005

>  <r_qp_QPlogKp>  (754) 
-2.3239999999999998

>  <r_qp_QPlogPC16>  (754) 
13.444000000000001

>  <r_qp_QPlogPo/w>  (754) 
5

>  <r_qp_QPlogPoct>  (754) 
19.298999999999999

>  <r_qp_QPlogPw>  (754) 
9.423

>  <r_qp_QPlogS>  (754) 
-3.819

>  <r_qp_QPpolrz>  (754) 
42.020000000000003

>  <r_qp_SASA>  (754) 
638.899

>  <r_qp_SAamideO>  (754) 
0

>  <r_qp_SAfluorine>  (754) 
40.573

>  <r_qp_WPSA>  (754) 
40.573

>  <r_qp_accptHB>  (754) 
3.9500000000000002

>  <r_qp_dip^2/V>  (754) 
0.0108991

>  <r_qp_dipole>  (754) 
3.6850000000000001

>  <r_qp_donorHB>  (754) 
2

>  <r_qp_glob>  (754) 
0.87655280000000002

>  <r_qp_mol_MW>  (754) 
419.47000000000003

>  <r_qp_volume>  (754) 
1246.144

>  <r_sd_BIOSOLVEIT.INFINISEE\_FTREES\_SIMILARITY>  (754) 
0.91300000000000003

>  <r_sd_BIOSOLVEIT.LOGP>  (754) 
4.4939999999999998

>  <r_sd_BIOSOLVEIT.MOLECULAR\_WEIGHT>  (754) 
420.47699999999998

>  <r_sd_BIOSOLVEIT.TPSA>  (754) 
46.07

>  <i_epik_Tot_Q>  (754) 
0

>  <i_epik_Tot_abs_Q>  (754) 
0

>  <i_f3d_flags>  (754) 
0

>  <i_i_glide_confnum>  (754) 
5

>  <i_i_glide_lignum>  (754) 
440

>  <i_i_glide_posenum>  (754) 
20

>  <i_i_glide_rotatable_bonds>  (754) 
9

>  <i_lp_mmshare_version>  (754) 
65135

>  <i_m_ct_format>  (754) 
2

>  <i_m_source_file_index>  (754) 
1132

>  <i_qp_#NandO>  (754) 
3

>  <i_qp_#acid>  (754) 
0

>  <i_qp_#amide>  (754) 
0

>  <i_qp_#amidine>  (754) 
0

>  <i_qp_#amine>  (754) 
1

>  <i_qp_#in34>  (754) 
0

>  <i_qp_#in56>  (754) 
22

>  <i_qp_#metab>  (754) 
7

>  <i_qp_#nonHatm>  (754) 
31

>  <i_qp_#noncon>  (754) 
0

>  <i_qp_#ringatoms>  (754) 
22

>  <i_qp_#rotor>  (754) 
9

>  <i_qp_#rtvFG>  (754) 
0

>  <i_qp_#stars>  (754) 
0

>  <i_qp_CNS>  (754) 
1

>  <i_qp_HumanOralAbsorption>  (754) 
3

>  <i_qp_RuleOfFive>  (754) 
1

>  <i_qp_RuleOfThree>  (754) 
1

>  <i_sd_BIOSOLVEIT.INFINISEE\_REAGENT1\_NAME>  (754) 
23852590

>  <i_sd_BIOSOLVEIT.INFINISEE\_REAGENT2\_NAME>  (754) 
8127862

>  <i_sd_BIOSOLVEIT.INFINISEE\_RESULT\_RANK>  (754) 
35567

>  <i_sd_version>  (754) 
0

>  <b_lp_Chiralities_Consistent>  (754) 
1

>  <b_sd_chiral_flag>  (754) 
0

>  <canonical_id>  (754) 
ATP-HTVS-7694DCD97798

>  <compound_code>  (754) 
36195

>  <title>  (754) 
m_270004beb____23852590____8127862

>  <variant>  (754) 
36195-3

>  <source_file>  (754) 
运行/运行/ATP-VSW/ATP-VSW-DOCK_HTVS_1-003_lib/ATP-VSW-DOCK_HTVS_1-003_lib.mae

>  <canonical_smiles>  (754) 
OC[C@H](NCc1cc(OCc2ccccc2)c2ccccc2c1)c1cccc(F)c1F

>  <scaffold>  (754) 
c1ccc(CNCc2cc(OCc3ccccc3)c3ccccc3c2)cc1

>  <molecular_formula>  (754) 
C26H23F2NO2

$$$$
ATP-HTVS-76CE1997AF40
     RDKit          3D

 47 49  0  0  0  0  0  0  0  0999 V2000
  199.4367  178.6633  154.8456 S   0  0  0  0  0  0  0  0  0  0  0  0
  200.1083  179.3540  156.3061 C   0  0  0  0  0  0  0  0  0  0  0  0
  199.6171  180.5280  156.8724 N   0  0  0  0  0  0  0  0  0  0  0  0
  198.3293  181.0778  156.4660 C   0  0  1  0  0  0  0  0  0  0  0  0
  197.8126  182.2083  157.3455 C   0  0  0  0  0  0  0  0  0  0  0  0
  196.4229  182.4168  157.4584 C   0  0  0  0  0  0  0  0  0  0  0  0
  195.9214  183.4523  158.2701 C   0  0  0  0  0  0  0  0  0  0  0  0
  196.8042  184.2844  158.9934 C   0  0  0  0  0  0  0  0  0  0  0  0
  198.1932  184.0666  158.8933 C   0  0  0  0  0  0  0  0  0  0  0  0
  198.6953  183.0475  158.0632 C   0  0  0  0  0  0  0  0  0  0  0  0
  196.2684  185.4152  159.8588 C   0  0  1  0  0  0  0  0  0  0  0  0
  196.6811  186.7568  159.3718 N   0  0  2  0  0  0  0  0  0  0  0  0
  196.3082  187.8314  160.3212 C   0  0  2  0  0  0  0  0  0  0  0  0
  196.2341  187.0559  157.9912 C   0  0  2  0  0  0  0  0  0  0  0  0
  201.1438  178.5877  156.7765 C   0  0  0  0  0  0  0  0  0  0  0  0
  201.4347  177.4666  155.9451 C   0  0  0  0  0  0  0  0  0  0  0  0
  200.6208  177.3723  154.8443 C   0  0  0  0  0  0  0  0  0  0  0  0
  200.6355  176.3688  153.7732 C   0  0  0  0  0  0  0  0  0  0  0  0
  199.9533  176.5765  152.5497 C   0  0  0  0  0  0  0  0  0  0  0  0
  199.9615  175.5959  151.5371 C   0  0  0  0  0  0  0  0  0  0  0  0
  199.2389  175.8389  150.3000 C   0  0  0  0  0  0  0  0  0  0  0  0
  198.6622  176.0358  149.3160 N   0  0  0  0  0  0  0  0  0  0  0  0
  200.6691  174.3936  151.7315 C   0  0  0  0  0  0  0  0  0  0  0  0
  201.3572  174.1730  152.9382 C   0  0  0  0  0  0  0  0  0  0  0  0
  201.3412  175.1550  153.9476 C   0  0  0  0  0  0  0  0  0  0  0  0
  199.9707  180.8416  157.7630 H   0  0  0  0  0  0  0  0  0  0  0  0
  198.4192  181.4532  155.4469 H   0  0  0  0  0  0  0  0  0  0  0  0
  197.5828  180.2806  156.4558 H   0  0  0  0  0  0  0  0  0  0  0  0
  195.7270  181.7787  156.9270 H   0  0  0  0  0  0  0  0  0  0  0  0
  194.8517  183.5961  158.3229 H   0  0  0  0  0  0  0  0  0  0  0  0
  198.8890  184.6873  159.4381 H   0  0  0  0  0  0  0  0  0  0  0  0
  199.7644  182.9178  157.9932 H   0  0  0  0  0  0  0  0  0  0  0  0
  195.1794  185.3640  159.9075 H   0  0  0  0  0  0  0  0  0  0  0  0
  196.6347  185.2666  160.8740 H   0  0  0  0  0  0  0  0  0  0  0  0
  195.2244  187.8998  160.4268 H   0  0  0  0  0  0  0  0  0  0  0  0
  196.6816  188.8012  159.9864 H   0  0  0  0  0  0  0  0  0  0  0  0
  196.7220  187.6513  161.3130 H   0  0  0  0  0  0  0  0  0  0  0  0
  195.1478  187.0373  157.9194 H   0  0  0  0  0  0  0  0  0  0  0  0
  196.6323  186.3398  157.2711 H   0  0  0  0  0  0  0  0  0  0  0  0
  196.5764  188.0431  157.6776 H   0  0  0  0  0  0  0  0  0  0  0  0
  201.7137  178.7819  157.6735 H   0  0  0  0  0  0  0  0  0  0  0  0
  202.2388  176.7856  156.1854 H   0  0  0  0  0  0  0  0  0  0  0  0
  199.4177  177.4986  152.3723 H   0  0  0  0  0  0  0  0  0  0  0  0
  200.6891  173.6387  150.9565 H   0  0  0  0  0  0  0  0  0  0  0  0
  201.8974  173.2493  153.0927 H   0  0  0  0  0  0  0  0  0  0  0  0
  201.8704  174.9552  154.8687 H   0  0  0  0  0  0  0  0  0  0  0  0
  197.6918  186.7452  159.3389 H   0  0  0  0  0  0  0  0  0  0  0  0
  1  2  1  0
  1 17  1  0
  2  3  1  0
  2 15  2  0
  3  4  1  0
  3 26  1  0
  4  5  1  0
  4 27  1  6
  4 28  1  0
  5  6  1  0
  5 10  2  0
  6  7  2  0
  6 29  1  0
  7  8  1  0
  7 30  1  0
  8  9  2  0
  8 11  1  0
  9 10  1  0
  9 31  1  0
 10 32  1  0
 11 12  1  0
 11 33  1  1
 11 34  1  0
 12 13  1  0
 12 14  1  0
 12 47  1  6
 13 35  1  1
 13 36  1  0
 13 37  1  0
 14 38  1  1
 14 39  1  0
 14 40  1  0
 15 16  1  0
 15 41  1  0
 16 17  2  0
 16 42  1  0
 17 18  1  0
 18 19  1  0
 18 25  2  0
 19 20  2  0
 19 43  1  0
 20 21  1  0
 20 23  1  0
 21 22  3  0
 23 24  2  0
 23 44  1  0
 24 25  1  0
 24 45  1  0
 25 46  1  0
M  CHG  1  12   1
M  END
>  <s_epik_cmdline>  (755) 
J2VwaWtfcHl0aG9uJywgJy1waCcsICc3LjAwMDAwMCcsICctcGh0JywgJzIuMDAwMDAwJywgJy1tcycsICcxNicsICctdG4nLCAnOCcsICctbWEnLCAnMjAwJywgJy1pbWFlJywgJzxpbmZpbGUubWFlPicsICctb21hZScsICc8b3V0ZmlsZS5tYWU+Jw==

>  <s_epik_input>  (755) 
W2NIXTFbY0hdW2NIXWMoQyNOKVtjSF1jMS1jKFtjSF1bY0hdMilzYzJbTkhdW0NIMl1jM1tjSF1bY0hdYyhbY0hdW2NIXTMpW0NIMl1OKFtDSDNdKVtDSDNd

>  <s_i_glide_gridfile>  (755) 
ATP-Grid

>  <s_lp_Force_Field>  (755) 
OPLS_2005

>  <s_lp_Variant>  (755) 
WXDL_15E____QS5063____LN00213588____BT1207-1

>  <s_lp_label>  (755) 
631_sdstereoexpander_1_neutralizer_1_epik_1_stereoizer_1

>  <s_m_source_file>  (755) 
ATP-VSW-LIGPREP-003-in.maegz

>  <s_sd_BIOSOLVEIT.INFINISEE\_QUERY\_NAME>  (755) 
Ref-Lig

>  <s_sd_BIOSOLVEIT.INFINISEE\_QUERY\_SMILES>  (755) 
S(c1nc2c(cc1C[NH2+]Cc3ccc(cc3)C[NH+](C)C)cccc2)Cc4ccccc4

>  <s_sd_BIOSOLVEIT.INFINISEE\_REACTION\_NAME>  (755) 
WXDL_15E

>  <s_sd_BIOSOLVEIT.INFINISEE\_REAGENT1\_NAME>  (755) 
QS5063

>  <s_sd_BIOSOLVEIT.INFINISEE\_REAGENT1\_SMILES>  (755) 
O=Cc1ccc(cc1)CN(C)C

>  <s_sd_BIOSOLVEIT.INFINISEE\_REAGENT2\_NAME>  (755) 
LN00213588

>  <s_sd_BIOSOLVEIT.INFINISEE\_REAGENT2\_SMILES>  (755) 
BrC=1SC(NC(=O)OC(C)(C)C)=CC1

>  <s_sd_BIOSOLVEIT.INFINISEE\_REAGENT3\_NAME>  (755) 
BT1207

>  <s_sd_BIOSOLVEIT.INFINISEE\_REAGENT3\_SMILES>  (755) 
O1CC(COB1c2cc(C#N)ccc2)(C)C

>  <s_sd_BIOSOLVEIT.INFINISEE\_SPACE>  (755) 
GalaXi_12bn_2023-03

>  <s_vsw_compound_code>  (755) 
20163

>  <s_vsw_variant>  (755) 
20163-1

>  <r_epik_Charging_Adjusted_Penalty>  (755) 
0.080548725256081297

>  <r_epik_Ionization_Penalty>  (755) 
0.040300000000000002

>  <r_epik_Ionization_Penalty_Charging>  (755) 
0.040300000000000002

>  <r_epik_Ionization_Penalty_Neutral>  (755) 
0.0001

>  <r_epik_State_Penalty>  (755) 
0.040300000000000002

>  <r_i_docking_score>  (755) 
-4.0946476443588402

>  <r_i_glide_ecoul>  (755) 
-3.3309288024902299

>  <r_i_glide_eff_state_penalty>  (755) 
0.040300000000000002

>  <r_i_glide_einternal>  (755) 
0.95581865310668901

>  <r_i_glide_emodel>  (755) 
-46.726752431447103

>  <r_i_glide_energy>  (755) 
-34.2987766265869

>  <r_i_glide_erotb>  (755) 
0.78379594833942701

>  <r_i_glide_esite>  (755) 
-0.035679060715391203

>  <r_i_glide_evdw>  (755) 
-30.967847824096701

>  <r_i_glide_gscore>  (755) 
-4.1349476443588404

>  <r_i_glide_hbond>  (755) 
0

>  <r_i_glide_ligand_efficiency>  (755) 
-0.16378590577435401

>  <r_i_glide_ligand_efficiency_ln>  (755) 
-0.970554198401124

>  <r_i_glide_ligand_efficiency_sa>  (755) 
-0.478912893239617

>  <r_i_glide_lipo>  (755) 
-1.5783480804824299

>  <r_i_glide_metal>  (755) 
-0

>  <r_i_glide_rewards>  (755) 
-1.25668473992208

>  <r_lp_Energy>  (755) 
13.732207000000001

>  <r_qp_ACxDN^.5/SA>  (755) 
0.0065672999999999999

>  <r_qp_CIQPlogS>  (755) 
-5.4480000000000004

>  <r_qp_EA(eV)>  (755) 
0.76000000000000001

>  <r_qp_FISA>  (755) 
93.936999999999998

>  <r_qp_FOSA>  (755) 
224.03100000000001

>  <r_qp_IP(eV)>  (755) 
8.2059999999999995

>  <r_qp_Jm>  (755) 
0.00011925169468446899

>  <r_qp_PISA>  (755) 
352.45800000000003

>  <r_qp_PSA>  (755) 
43.929000000000002

>  <r_qp_PercentHumanOralAbsorption>  (755) 
96.088999999999999

>  <r_qp_QPPCaco>  (755) 
317.685

>  <r_qp_QPPMDCK>  (755) 
190.96100000000001

>  <r_qp_QPlogBB>  (755) 
-0.35899999999999999

>  <r_qp_QPlogHERG>  (755) 
-7.2839999999999998

>  <r_qp_QPlogKhsa>  (755) 
0.71899999999999997

>  <r_qp_QPlogKp>  (755) 
-3.496

>  <r_qp_QPlogPC16>  (755) 
12.797000000000001

>  <r_qp_QPlogPo/w>  (755) 
4.1609999999999996

>  <r_qp_QPlogPoct>  (755) 
17.869

>  <r_qp_QPlogPw>  (755) 
8.9830000000000005

>  <r_qp_QPlogS>  (755) 
-5.9690000000000003

>  <r_qp_QPpolrz>  (755) 
41.045999999999999

>  <r_qp_SASA>  (755) 
685.21100000000001

>  <r_qp_SAamideO>  (755) 
0

>  <r_qp_SAfluorine>  (755) 
0

>  <r_qp_WPSA>  (755) 
14.786

>  <r_qp_accptHB>  (755) 
4.5

>  <r_qp_dip^2/V>  (755) 
0.039916500000000001

>  <r_qp_dipole>  (755) 
6.8970000000000002

>  <r_qp_donorHB>  (755) 
1

>  <r_qp_glob>  (755) 
0.79327250000000005

>  <r_qp_mol_MW>  (755) 
347.47699999999998

>  <r_qp_volume>  (755) 
1191.578

>  <r_sd_BIOSOLVEIT.INFINISEE\_FTREES\_SIMILARITY>  (755) 
0.91100000000000003

>  <r_sd_BIOSOLVEIT.LOGP>  (755) 
3.54338

>  <r_sd_BIOSOLVEIT.MOLECULAR\_WEIGHT>  (755) 
348.49099999999999

>  <r_sd_BIOSOLVEIT.TPSA>  (755) 
40.259999999999998

>  <i_epik_Tot_Q>  (755) 
1

>  <i_epik_Tot_abs_Q>  (755) 
1

>  <i_f3d_flags>  (755) 
0

>  <i_i_glide_confnum>  (755) 
3

>  <i_i_glide_lignum>  (755) 
259

>  <i_i_glide_posenum>  (755) 
8

>  <i_i_glide_rotatable_bonds>  (755) 
6

>  <i_lp_mmshare_version>  (755) 
65135

>  <i_m_ct_format>  (755) 
2

>  <i_m_source_file_index>  (755) 
631

>  <i_qp_#NandO>  (755) 
3

>  <i_qp_#acid>  (755) 
0

>  <i_qp_#amide>  (755) 
0

>  <i_qp_#amidine>  (755) 
0

>  <i_qp_#amine>  (755) 
1

>  <i_qp_#in34>  (755) 
0

>  <i_qp_#in56>  (755) 
17

>  <i_qp_#metab>  (755) 
5

>  <i_qp_#nonHatm>  (755) 
25

>  <i_qp_#noncon>  (755) 
0

>  <i_qp_#ringatoms>  (755) 
17

>  <i_qp_#rotor>  (755) 
6

>  <i_qp_#rtvFG>  (755) 
0

>  <i_qp_#stars>  (755) 
0

>  <i_qp_CNS>  (755) 
1

>  <i_qp_HumanOralAbsorption>  (755) 
3

>  <i_qp_RuleOfFive>  (755) 
0

>  <i_qp_RuleOfThree>  (755) 
1

>  <i_sd_BIOSOLVEIT.INFINISEE\_RESULT\_RANK>  (755) 
43126

>  <i_sd_version>  (755) 
0

>  <b_lp_Chiralities_Consistent>  (755) 
1

>  <b_sd_chiral_flag>  (755) 
0

>  <canonical_id>  (755) 
ATP-HTVS-76CE1997AF40

>  <compound_code>  (755) 
20163

>  <title>  (755) 
WXDL_15E____QS5063____LN00213588____BT1207

>  <variant>  (755) 
20163-1

>  <source_file>  (755) 
运行/运行/ATP-VSW/ATP-VSW-DOCK_HTVS_1-003_lib/ATP-VSW-DOCK_HTVS_1-003_lib.mae

>  <canonical_smiles>  (755) 
C[NH+](C)Cc1ccc(CNc2ccc(-c3cccc(C#N)c3)s2)cc1

>  <scaffold>  (755) 
c1ccc(CNc2ccc(-c3ccccc3)s2)cc1

>  <molecular_formula>  (755) 
C21H22N3S+

$$$$
ATP-HTVS-76EB0BEAC1B9
     RDKit          3D

 61 64  0  0  0  0  0  0  0  0999 V2000
  200.9278  188.6928  156.2156 F   0  0  0  0  0  0  0  0  0  0  0  0
  199.8844  188.5327  157.0630 C   0  0  0  0  0  0  0  0  0  0  0  0
  198.6374  188.1107  156.5683 C   0  0  0  0  0  0  0  0  0  0  0  0
  197.5491  187.9300  157.4412 C   0  0  0  0  0  0  0  0  0  0  0  0
  196.3488  187.4507  156.9145 N   0  0  0  0  0  0  0  0  0  0  0  0
  197.7088  188.1945  158.8281 C   0  0  0  0  0  0  0  0  0  0  0  0
  198.9674  188.6142  159.3171 C   0  0  0  0  0  0  0  0  0  0  0  0
  200.0526  188.7806  158.4369 C   0  0  0  0  0  0  0  0  0  0  0  0
  196.5858  187.9609  159.8428 C   0  0  1  0  0  0  0  0  0  0  0  0
  195.9276  186.6540  159.8300 N   0  0  0  0  0  0  0  0  0  0  0  0
  196.6254  185.4555  159.6019 C   0  0  0  0  0  0  0  0  0  0  0  0
  197.9675  185.4404  159.7498 N   0  0  0  0  0  0  0  0  0  0  0  0
  198.6589  184.3559  159.4149 C   0  0  0  0  0  0  0  0  0  0  0  0
  198.0715  183.2254  159.0331 N   0  0  0  0  0  0  0  0  0  0  0  0
  196.7375  183.1693  158.8841 C   0  0  0  0  0  0  0  0  0  0  0  0
  195.9452  184.2993  159.1720 C   0  0  0  0  0  0  0  0  0  0  0  0
  194.5429  184.2044  158.9899 C   0  0  0  0  0  0  0  0  0  0  0  0
  193.9630  183.0000  158.5378 C   0  0  0  0  0  0  0  0  0  0  0  0
  194.7784  181.8856  158.2500 C   0  0  0  0  0  0  0  0  0  0  0  0
  196.1699  181.9792  158.4161 C   0  0  0  0  0  0  0  0  0  0  0  0
  200.0380  184.4481  159.3995 N   0  0  0  0  0  0  0  0  0  0  0  0
  200.9628  183.4559  158.8305 C   0  0  1  0  0  0  0  0  0  0  0  0
  200.5302  182.7594  157.5384 C   0  0  0  0  0  0  0  0  0  0  0  0
  200.8916  181.4129  157.3083 C   0  0  0  0  0  0  0  0  0  0  0  0
  200.3915  180.7259  156.1860 C   0  0  0  0  0  0  0  0  0  0  0  0
  199.5206  181.3796  155.2883 C   0  0  0  0  0  0  0  0  0  0  0  0
  199.1687  182.7240  155.5089 C   0  0  0  0  0  0  0  0  0  0  0  0
  199.7049  183.4225  156.5991 C   0  0  0  0  0  0  0  0  0  0  0  0
  198.9583  180.6527  154.0852 C   0  0  1  0  0  0  0  0  0  0  0  0
  197.5447  180.2300  154.2537 N   0  0  2  0  0  0  0  0  0  0  0  0
  197.3337  179.3154  155.4005 C   0  0  2  0  0  0  0  0  0  0  0  0
  197.0001  179.6752  152.9938 C   0  0  2  0  0  0  0  0  0  0  0  0
  198.5283  187.8922  155.5159 H   0  0  0  0  0  0  0  0  0  0  0  0
  195.6444  187.1160  157.5571 H   0  0  0  0  0  0  0  0  0  0  0  0
  196.3051  187.0644  155.9793 H   0  0  0  0  0  0  0  0  0  0  0  0
  199.1140  188.7770  160.3775 H   0  0  0  0  0  0  0  0  0  0  0  0
  201.0170  189.0801  158.8184 H   0  0  0  0  0  0  0  0  0  0  0  0
  196.9554  188.1438  160.8559 H   0  0  0  0  0  0  0  0  0  0  0  0
  195.8271  188.7237  159.6617 H   0  0  0  0  0  0  0  0  0  0  0  0
  194.9283  186.6389  159.6937 H   0  0  0  0  0  0  0  0  0  0  0  0
  193.8925  185.0376  159.2033 H   0  0  0  0  0  0  0  0  0  0  0  0
  192.8919  182.9071  158.4293 H   0  0  0  0  0  0  0  0  0  0  0  0
  194.3387  180.9538  157.9171 H   0  0  0  0  0  0  0  0  0  0  0  0
  196.7761  181.1169  158.1777 H   0  0  0  0  0  0  0  0  0  0  0  0
  200.4297  185.3401  159.6665 H   0  0  0  0  0  0  0  0  0  0  0  0
  201.9317  183.9309  158.6568 H   0  0  0  0  0  0  0  0  0  0  0  0
  201.1296  182.7029  159.6029 H   0  0  0  0  0  0  0  0  0  0  0  0
  201.5065  180.8765  158.0243 H   0  0  0  0  0  0  0  0  0  0  0  0
  200.6494  179.6899  156.0354 H   0  0  0  0  0  0  0  0  0  0  0  0
  198.4512  183.2240  154.8699 H   0  0  0  0  0  0  0  0  0  0  0  0
  199.3986  184.4469  156.7411 H   0  0  0  0  0  0  0  0  0  0  0  0
  199.0343  181.3333  153.2358 H   0  0  0  0  0  0  0  0  0  0  0  0
  199.5880  179.7937  153.8587 H   0  0  0  0  0  0  0  0  0  0  0  0
  197.9279  178.4057  155.3022 H   0  0  0  0  0  0  0  0  0  0  0  0
  196.2840  179.0354  155.4751 H   0  0  0  0  0  0  0  0  0  0  0  0
  197.5987  179.7910  156.3445 H   0  0  0  0  0  0  0  0  0  0  0  0
  197.5320  178.7673  152.7061 H   0  0  0  0  0  0  0  0  0  0  0  0
  197.0901  180.3931  152.1776 H   0  0  0  0  0  0  0  0  0  0  0  0
  195.9447  179.4314  153.0986 H   0  0  0  0  0  0  0  0  0  0  0  0
  198.6241  182.4098  158.7687 H   0  0  0  0  0  0  0  0  0  0  0  0
  197.0120  181.0658  154.4593 H   0  0  0  0  0  0  0  0  0  0  0  0
  1  2  1  0
  2  3  2  0
  2  8  1  0
  3  4  1  0
  3 33  1  0
  4  5  1  0
  4  6  2  0
  5 34  1  0
  5 35  1  0
  6  7  1  0
  6  9  1  0
  7  8  2  0
  7 36  1  0
  8 37  1  0
  9 10  1  0
  9 38  1  1
  9 39  1  0
 10 11  1  0
 10 40  1  0
 11 12  2  0
 11 16  1  0
 12 13  1  0
 13 14  2  0
 13 21  1  0
 14 15  1  0
 14 60  1  0
 15 16  1  0
 15 20  2  0
 16 17  2  0
 17 18  1  0
 17 41  1  0
 18 19  2  0
 18 42  1  0
 19 20  1  0
 19 43  1  0
 20 44  1  0
 21 22  1  0
 21 45  1  0
 22 23  1  0
 22 46  1  6
 22 47  1  0
 23 24  1  0
 23 28  2  0
 24 25  2  0
 24 48  1  0
 25 26  1  0
 25 49  1  0
 26 27  2  0
 26 29  1  0
 27 28  1  0
 27 50  1  0
 28 51  1  0
 29 30  1  0
 29 52  1  6
 29 53  1  0
 30 31  1  0
 30 32  1  0
 30 61  1  1
 31 54  1  6
 31 55  1  0
 31 56  1  0
 32 57  1  6
 32 58  1  0
 32 59  1  0
M  CHG  2  14   1  30   1
M  END
>  <s_epik_cmdline>  (756) 
J2VwaWtfcHl0aG9uJywgJy1waCcsICc3LjAwMDAwMCcsICctcGh0JywgJzIuMDAwMDAwJywgJy1tcycsICcxNicsICctdG4nLCAnOCcsICctbWEnLCAnMjAwJywgJy1pbWFlJywgJzxpbmZpbGUubWFlPicsICctb21hZScsICc8b3V0ZmlsZS5tYWU+Jw==

>  <s_epik_input>  (756) 
RmMxW2NIXWMoW05IMl0pYyhbY0hdW2NIXTEpW0NIMl1bTkhdYyhjKGMyMylbY0hdW2NIXVtjSF1bY0hdMyluYyhuMilbTkhdW0NIMl1jNFtjSF1bY0hdYyhbY0hdW2NIXTQpW0NIMl1OKFtDSDNdKVtDSDNd

>  <s_i_glide_gridfile>  (756) 
ATP-Grid

>  <s_lp_Force_Field>  (756) 
OPLS_2005

>  <s_lp_Variant>  (756) 
m_282030aaa____21929760____22360182____21938720-1

>  <s_lp_label>  (756) 
1183_sdstereoexpander_1_neutralizer_1_epik_1_stereoizer_1

>  <s_m_source_file>  (756) 
ATP-VSW-LIGPREP-001-in.maegz

>  <s_sd_BIOSOLVEIT.INFINISEE\_QUERY\_NAME>  (756) 
Ref-Lig

>  <s_sd_BIOSOLVEIT.INFINISEE\_QUERY\_SMILES>  (756) 
S(c1nc2c(cc1C[NH2+]Cc3ccc(cc3)C[NH+](C)C)cccc2)Cc4ccccc4

>  <s_sd_BIOSOLVEIT.INFINISEE\_REACTION\_NAME>  (756) 
m_282030aaa

>  <s_sd_BIOSOLVEIT.INFINISEE\_REAGENT1\_SMILES>  (756) 
[R1*]NCc1ccc(cc1)CN(C)C

>  <s_sd_BIOSOLVEIT.INFINISEE\_REAGENT2\_SMILES>  (756) 
[R2*]c1nc([R1*])c2c(n1)cccc2

>  <s_sd_BIOSOLVEIT.INFINISEE\_REAGENT3\_SMILES>  (756) 
[R2*]NCc1c(N)cc(F)cc1

>  <s_sd_BIOSOLVEIT.INFINISEE\_SPACE>  (756) 
REALSpace_44bn_2023-08

>  <s_vsw_compound_code>  (756) 
37825

>  <s_vsw_variant>  (756) 
37825-1

>  <r_epik_Charging_Adjusted_Penalty>  (756) 
0.110782188572458

>  <r_epik_Ionization_Penalty>  (756) 
0.056300000000000003

>  <r_epik_Ionization_Penalty_Charging>  (756) 
0.055899999999999998

>  <r_epik_Ionization_Penalty_Neutral>  (756) 
0.00040000000000000002

>  <r_epik_State_Penalty>  (756) 
0.054899999999999997

>  <r_i_docking_score>  (756) 
-4.0745648426609797

>  <r_i_glide_ecoul>  (756) 
-10.1503505706787

>  <r_i_glide_eff_state_penalty>  (756) 
0.054899999999999997

>  <r_i_glide_einternal>  (756) 
1.1688919067382799

>  <r_i_glide_emodel>  (756) 
-58.208831868846602

>  <r_i_glide_energy>  (756) 
-41.646173477172901

>  <r_i_glide_erotb>  (756) 
0.74454719589574203

>  <r_i_glide_esite>  (756) 
-0.028758772282610898

>  <r_i_glide_evdw>  (756) 
-31.495822906494102

>  <r_i_glide_gscore>  (756) 
-4.1294648426609797

>  <r_i_glide_hbond>  (756) 
0

>  <r_i_glide_ligand_efficiency>  (756) 
-0.12733015133315601

>  <r_i_glide_ligand_efficiency_ln>  (756) 
-0.91240613671455395

>  <r_i_glide_ligand_efficiency_sa>  (756) 
-0.404248031880037

>  <r_i_glide_lipo>  (756) 
-1.20074833205068

>  <r_i_glide_metal>  (756) 
-0

>  <r_i_glide_rewards>  (756) 
-0.54716120329692097

>  <r_lp_Energy>  (756) 
22.565263999999999

>  <r_qp_ACxDN^.5/SA>  (756) 
0.0155981

>  <r_qp_CIQPlogS>  (756) 
-5.6219999999999999

>  <r_qp_EA(eV)>  (756) 
0.60299999999999998

>  <r_qp_FISA>  (756) 
73.302000000000007

>  <r_qp_FOSA>  (756) 
230.57599999999999

>  <r_qp_IP(eV)>  (756) 
8.0419999999999998

>  <r_qp_Jm>  (756) 
0.0300335953300656

>  <r_qp_PISA>  (756) 
368.75700000000001

>  <r_qp_PSA>  (756) 
69.084999999999994

>  <r_qp_PercentHumanOralAbsorption>  (756) 
100

>  <r_qp_QPPCaco>  (756) 
498.517

>  <r_qp_QPPMDCK>  (756) 
466.58100000000002

>  <r_qp_QPlogBB>  (756) 
-0.186

>  <r_qp_QPlogHERG>  (756) 
-6.8799999999999999

>  <r_qp_QPlogKhsa>  (756) 
0.59499999999999997

>  <r_qp_QPlogKp>  (756) 
-2.77

>  <r_qp_QPlogPC16>  (756) 
14.398

>  <r_qp_QPlogPo/w>  (756) 
4.4349999999999996

>  <r_qp_QPlogPoct>  (756) 
23.896000000000001

>  <r_qp_QPlogPw>  (756) 
13.525

>  <r_qp_QPlogS>  (756) 
-4.3860000000000001

>  <r_qp_QPpolrz>  (756) 
45.832000000000001

>  <r_qp_SASA>  (756) 
719.63499999999999

>  <r_qp_SAamideO>  (756) 
0

>  <r_qp_SAfluorine>  (756) 
47.000999999999998

>  <r_qp_WPSA>  (756) 
47.000999999999998

>  <r_qp_accptHB>  (756) 
6

>  <r_qp_dip^2/V>  (756) 
0.020966499999999999

>  <r_qp_dipole>  (756) 
5.3310000000000004

>  <r_qp_donorHB>  (756) 
3.5

>  <r_qp_glob>  (756) 
0.82305930000000005

>  <r_qp_mol_MW>  (756) 
430.52699999999999

>  <r_qp_volume>  (756) 
1355.4010000000001

>  <r_sd_BIOSOLVEIT.INFINISEE\_FTREES\_SIMILARITY>  (756) 
0.91200000000000003

>  <r_sd_BIOSOLVEIT.LOGP>  (756) 
3.2198000000000002

>  <r_sd_BIOSOLVEIT.MOLECULAR\_WEIGHT>  (756) 
431.536

>  <r_sd_BIOSOLVEIT.TPSA>  (756) 
80.299999999999997

>  <i_epik_Tot_Q>  (756) 
2

>  <i_epik_Tot_abs_Q>  (756) 
2

>  <i_f3d_flags>  (756) 
0

>  <i_i_glide_confnum>  (756) 
2

>  <i_i_glide_lignum>  (756) 
294

>  <i_i_glide_posenum>  (756) 
20

>  <i_i_glide_rotatable_bonds>  (756) 
8

>  <i_lp_mmshare_version>  (756) 
65135

>  <i_m_ct_format>  (756) 
2

>  <i_m_source_file_index>  (756) 
1183

>  <i_qp_#NandO>  (756) 
6

>  <i_qp_#acid>  (756) 
0

>  <i_qp_#amide>  (756) 
0

>  <i_qp_#amidine>  (756) 
0

>  <i_qp_#amine>  (756) 
1

>  <i_qp_#in34>  (756) 
0

>  <i_qp_#in56>  (756) 
22

>  <i_qp_#metab>  (756) 
6

>  <i_qp_#nonHatm>  (756) 
32

>  <i_qp_#noncon>  (756) 
0

>  <i_qp_#ringatoms>  (756) 
22

>  <i_qp_#rotor>  (756) 
9

>  <i_qp_#rtvFG>  (756) 
0

>  <i_qp_#stars>  (756) 
0

>  <i_qp_CNS>  (756) 
0

>  <i_qp_HumanOralAbsorption>  (756) 
3

>  <i_qp_RuleOfFive>  (756) 
0

>  <i_qp_RuleOfThree>  (756) 
0

>  <i_sd_BIOSOLVEIT.INFINISEE\_REAGENT1\_NAME>  (756) 
21929760

>  <i_sd_BIOSOLVEIT.INFINISEE\_REAGENT2\_NAME>  (756) 
22360182

>  <i_sd_BIOSOLVEIT.INFINISEE\_REAGENT3\_NAME>  (756) 
21938720

>  <i_sd_BIOSOLVEIT.INFINISEE\_RESULT\_RANK>  (756) 
39051

>  <i_sd_version>  (756) 
0

>  <b_lp_Chiralities_Consistent>  (756) 
1

>  <b_sd_chiral_flag>  (756) 
0

>  <canonical_id>  (756) 
ATP-HTVS-76EB0BEAC1B9

>  <compound_code>  (756) 
37825

>  <title>  (756) 
m_282030aaa____21929760____22360182____21938720

>  <variant>  (756) 
37825-1

>  <source_file>  (756) 
运行/运行/ATP-VSW/ATP-VSW-DOCK_HTVS_1-001_lib/ATP-VSW-DOCK_HTVS_1-001_lib

>  <canonical_smiles>  (756) 
C[NH+](C)Cc1ccc(CNc2nc(NCc3ccc(F)cc3N)c3ccccc3[nH+]2)cc1

>  <scaffold>  (756) 
c1ccc(CNc2nc(NCc3ccccc3)c3ccccc3[nH+]2)cc1

>  <molecular_formula>  (756) 
C25H29FN6+2

$$$$
ATP-HTVS-772EF906400E
     RDKit          3D

 64 67  0  0  0  0  0  0  0  0999 V2000
  200.5055  190.6257  153.3232 F   0  0  0  0  0  0  0  0  0  0  0  0
  200.0622  189.3568  153.4723 C   0  0  0  0  0  0  0  0  0  0  0  0
  199.6047  188.9011  154.7233 C   0  0  0  0  0  0  0  0  0  0  0  0
  199.1503  187.5729  154.8615 C   0  0  0  0  0  0  0  0  0  0  0  0
  199.1593  186.6906  153.7518 C   0  0  0  0  0  0  0  0  0  0  0  0
  199.6092  187.1621  152.5057 C   0  0  0  0  0  0  0  0  0  0  0  0
  200.0638  188.4878  152.3632 C   0  0  0  0  0  0  0  0  0  0  0  0
  198.6896  185.3100  153.8981 C   0  0  0  0  0  0  0  0  0  0  0  0
  199.0122  184.3739  153.0190 N   0  0  0  0  0  0  0  0  0  0  0  0
  198.3771  183.2382  153.4183 N   0  0  0  0  0  0  0  0  0  0  0  0
  198.4836  182.0083  152.6687 C   0  0  0  0  0  0  0  0  0  0  0  0
  199.6335  181.5861  152.5167 O   0  0  0  0  0  0  0  0  0  0  0  0
  197.2534  181.3479  151.9449 C   0  0  1  0  0  0  0  0  0  0  0  0
  196.3511  182.4034  151.5054 N   0  0  0  0  0  0  0  0  0  0  0  0
  197.7267  180.5340  150.7150 C   0  0  0  0  0  0  0  0  0  0  0  0
  198.3361  181.1838  149.6120 C   0  0  0  0  0  0  0  0  0  0  0  0
  198.7563  180.4345  148.4850 C   0  0  0  0  0  0  0  0  0  0  0  0
  198.5630  179.0474  148.4420 C   0  0  0  0  0  0  0  0  0  0  0  0
  197.9539  178.3860  149.5206 C   0  0  0  0  0  0  0  0  0  0  0  0
  197.5497  179.1275  150.6425 C   0  0  0  0  0  0  0  0  0  0  0  0
  196.4096  180.4307  152.8722 C   0  0  2  0  0  0  0  0  0  0  0  0
  197.7018  183.4631  154.6209 C   0  0  0  0  0  0  0  0  0  0  0  0
  197.8676  184.7826  154.9308 C   0  0  0  0  0  0  0  0  0  0  0  0
  196.8990  182.4498  155.3515 C   0  0  1  0  0  0  0  0  0  0  0  0
  196.6743  182.6537  156.8025 C   0  0  1  0  0  0  0  0  0  0  0  0
  195.5562  181.8607  157.3615 N   0  0  1  0  0  0  0  0  0  0  0  0
  195.3309  181.9923  158.8117 C   0  0  1  0  0  0  0  0  0  0  0  0
  195.5821  183.4156  159.3678 C   0  0  0  0  0  0  0  0  0  0  0  0
  194.4932  184.2439  159.7161 C   0  0  0  0  0  0  0  0  0  0  0  0
  194.7332  185.5601  160.1398 C   0  0  0  0  0  0  0  0  0  0  0  0
  196.0522  186.0917  160.1628 C   0  0  0  0  0  0  0  0  0  0  0  0
  197.1219  185.2592  159.8127 C   0  0  0  0  0  0  0  0  0  0  0  0
  196.8945  183.9119  159.4963 C   0  0  0  0  0  0  0  0  0  0  0  0
  199.6122  189.8464  155.9136 C   0  0  2  0  0  0  0  0  0  0  0  0
  195.5023  182.3558  152.0468 H   0  0  0  0  0  0  0  0  0  0  0  0
  196.7389  183.3089  151.7332 H   0  0  0  0  0  0  0  0  0  0  0  0
  194.7153  182.1317  156.8261 H   0  0  0  0  0  0  0  0  0  0  0  0
  198.7909  187.2314  155.8220 H   0  0  0  0  0  0  0  0  0  0  0  0
  199.6026  186.5102  151.6440 H   0  0  0  0  0  0  0  0  0  0  0  0
  200.4137  188.8337  151.4058 H   0  0  0  0  0  0  0  0  0  0  0  0
  198.4823  182.2548  149.6239 H   0  0  0  0  0  0  0  0  0  0  0  0
  199.2292  180.9451  147.6479 H   0  0  0  0  0  0  0  0  0  0  0  0
  198.8802  178.4725  147.5832 H   0  0  0  0  0  0  0  0  0  0  0  0
  197.7914  177.3157  149.5025 H   0  0  0  0  0  0  0  0  0  0  0  0
  197.0857  178.5676  151.4338 H   0  0  0  0  0  0  0  0  0  0  0  0
  197.0679  179.6633  153.3138 H   0  0  0  0  0  0  0  0  0  0  0  0
  195.6286  179.9142  152.3065 H   0  0  0  0  0  0  0  0  0  0  0  0
  195.8837  180.9817  153.6339 H   0  0  0  0  0  0  0  0  0  0  0  0
  197.4394  185.3228  155.7666 H   0  0  0  0  0  0  0  0  0  0  0  0
  195.9032  182.5187  154.9225 H   0  0  0  0  0  0  0  0  0  0  0  0
  197.3270  181.4387  155.2526 H   0  0  0  0  0  0  0  0  0  0  0  0
  197.6423  182.4281  157.2805 H   0  0  0  0  0  0  0  0  0  0  0  0
  196.3953  183.7222  156.8979 H   0  0  0  0  0  0  0  0  0  0  0  0
  194.3122  181.6792  159.0067 H   0  0  0  0  0  0  0  0  0  0  0  0
  195.9833  181.2976  159.3361 H   0  0  0  0  0  0  0  0  0  0  0  0
  193.4686  183.8810  159.6483 H   0  0  0  0  0  0  0  0  0  0  0  0
  193.9085  186.1890  160.4485 H   0  0  0  0  0  0  0  0  0  0  0  0
  196.2381  187.1044  160.4829 H   0  0  0  0  0  0  0  0  0  0  0  0
  198.1389  185.6436  159.7760 H   0  0  0  0  0  0  0  0  0  0  0  0
  197.7712  183.3076  159.2872 H   0  0  0  0  0  0  0  0  0  0  0  0
  199.3324  189.3360  156.8352 H   0  0  0  0  0  0  0  0  0  0  0  0
  198.9151  190.6685  155.7525 H   0  0  0  0  0  0  0  0  0  0  0  0
  200.6073  190.2698  156.0518 H   0  0  0  0  0  0  0  0  0  0  0  0
  195.6997  180.8452  157.2128 H   0  0  0  0  0  0  0  0  0  0  0  0
  1  2  1  0
  2  3  2  0
  2  7  1  0
  3  4  1  0
  3 34  1  0
  4  5  2  0
  4 38  1  0
  5  6  1  0
  5  8  1  0
  6  7  2  0
  6 39  1  0
  7 40  1  0
  8  9  2  0
  8 23  1  0
  9 10  1  0
 10 11  1  0
 10 22  1  0
 11 12  2  0
 11 13  1  0
 13 14  1  6
 13 15  1  0
 13 21  1  0
 14 35  1  0
 14 36  1  0
 15 16  2  0
 15 20  1  0
 16 17  1  0
 16 41  1  0
 17 18  2  0
 17 42  1  0
 18 19  1  0
 18 43  1  0
 19 20  2  0
 19 44  1  0
 20 45  1  0
 21 46  1  1
 21 47  1  0
 21 48  1  0
 22 23  2  0
 22 24  1  0
 23 49  1  0
 24 25  1  0
 24 50  1  6
 24 51  1  0
 25 26  1  0
 25 52  1  1
 25 53  1  0
 26 27  1  0
 26 37  1  6
 26 64  1  0
 27 28  1  0
 27 54  1  6
 27 55  1  0
 28 29  2  0
 28 33  1  0
 29 30  1  0
 29 56  1  0
 30 31  2  0
 30 57  1  0
 31 32  1  0
 31 58  1  0
 32 33  2  0
 32 59  1  0
 33 60  1  0
 34 61  1  1
 34 62  1  0
 34 63  1  0
M  CHG  1  26   1
M  END
>  <s_epik_cmdline>  (757) 
J2VwaWtfcHl0aG9uJywgJy1waCcsICc3LjAwMDAwMCcsICctcGh0JywgJzIuMDAwMDAwJywgJy1tcycsICcxNicsICctdG4nLCAnOCcsICctbWEnLCAnMjAwJywgJy1pbWFlJywgJzxpbmZpbGUubWFlPicsICctb21hZScsICc8b3V0ZmlsZS5tYWU+Jw==

>  <s_epik_input>  (757) 
W2NIXTFbY0hdW2NIXVtjSF1bY0hdYzFbQ0BAXShbTkgyXSkoW0NIM10pQyg9TyluKG5jMi1jKFtjSF1bY0hdMylbY0hdYyhjM0YpW0NIM10pYyhbY0hdMilbQ0gyXVtDSDJdW05IXVtDSDJdYzRbY0hdW2NIXVtjSF1bY0hdW2NIXTQ=

>  <s_i_glide_gridfile>  (757) 
ATP-Grid

>  <s_lp_Force_Field>  (757) 
OPLS_2005

>  <s_lp_Variant>  (757) 
Shen____49239300____25682267____40180766-2

>  <s_lp_label>  (757) 
648_sdstereoexpander_2_neutralizer_1_epik_1_stereoizer_1

>  <s_m_source_file>  (757) 
ATP-VSW-LIGPREP-002-in.maegz

>  <s_sd_BIOSOLVEIT.INFINISEE\_QUERY\_NAME>  (757) 
Ref-Lig

>  <s_sd_BIOSOLVEIT.INFINISEE\_QUERY\_SMILES>  (757) 
S(c1nc2c(cc1C[NH2+]Cc3ccc(cc3)C[NH+](C)C)cccc2)Cc4ccccc4

>  <s_sd_BIOSOLVEIT.INFINISEE\_REACTION\_NAME>  (757) 
Shen

>  <s_sd_BIOSOLVEIT.INFINISEE\_REAGENT1\_SMILES>  (757) 
O=C(CCNCc1ccccc1)C

>  <s_sd_BIOSOLVEIT.INFINISEE\_REAGENT2\_SMILES>  (757) 
Fc1c(cc(cc1)C(=O)OCC)C

>  <s_sd_BIOSOLVEIT.INFINISEE\_REAGENT3\_SMILES>  (757) 
O=C(NN)C(N)(c1ccccc1)C

>  <s_sd_BIOSOLVEIT.INFINISEE\_SPACE>  (757) 
KnowledgeSpace_290tr_2019-05

>  <s_vsw_compound_code>  (757) 
20706

>  <s_vsw_variant>  (757) 
20706-2

>  <r_epik_Charging_Adjusted_Penalty>  (757) 
0.065241008616714599

>  <r_epik_Ionization_Penalty>  (757) 
0.035999999999999997

>  <r_epik_Ionization_Penalty_Charging>  (757) 
0.0293

>  <r_epik_Ionization_Penalty_Neutral>  (757) 
0.0067000000000000002

>  <r_epik_State_Penalty>  (757) 
0.035999999999999997

>  <r_i_docking_score>  (757) 
-5.7472783149045004

>  <r_i_glide_ecoul>  (757) 
-12.1325330734253

>  <r_i_glide_eff_state_penalty>  (757) 
0.035999999999999997

>  <r_i_glide_einternal>  (757) 
19.847713470458999

>  <r_i_glide_emodel>  (757) 
-62.650689143011299

>  <r_i_glide_energy>  (757) 
-46.813273429870598

>  <r_i_glide_erotb>  (757) 
0.76826713990077899

>  <r_i_glide_esite>  (757) 
-0.100655396226035

>  <r_i_glide_evdw>  (757) 
-34.680740356445298

>  <r_i_glide_gscore>  (757) 
-5.7832783149044902

>  <r_i_glide_hbond>  (757) 
-0.40000000000000002

>  <r_i_glide_ligand_efficiency>  (757) 
-0.16903759749719099

>  <r_i_glide_ligand_efficiency_ln>  (757) 
-1.2697349854587401

>  <r_i_glide_ligand_efficiency_sa>  (757) 
-0.54761619506779602

>  <r_i_glide_lipo>  (757) 
-1.9112700539196501

>  <r_i_glide_metal>  (757) 
-0

>  <r_i_glide_rewards>  (757) 
-0.58570302582352696

>  <r_lp_Energy>  (757) 
29.165265999999999

>  <r_qp_ACxDN^.5/SA>  (757) 
0.013058999999999999

>  <r_qp_CIQPlogS>  (757) 
-5.2080000000000002

>  <r_qp_EA(eV)>  (757) 
0.81399999999999995

>  <r_qp_FISA>  (757) 
77.447999999999993

>  <r_qp_FOSA>  (757) 
221.13999999999999

>  <r_qp_IP(eV)>  (757) 
9.1809999999999992

>  <r_qp_Jm>  (757) 
0.00019424752074091801

>  <r_qp_PISA>  (757) 
458.69499999999999

>  <r_qp_PSA>  (757) 
67.846999999999994

>  <r_qp_PercentHumanOralAbsorption>  (757) 
91.629000000000005

>  <r_qp_QPPCaco>  (757) 
113.569

>  <r_qp_QPPMDCK>  (757) 
93.742000000000004

>  <r_qp_QPlogBB>  (757) 
0.14000000000000001

>  <r_qp_QPlogHERG>  (757) 
-8.6150000000000002

>  <r_qp_QPlogKhsa>  (757) 
0.96499999999999997

>  <r_qp_QPlogKp>  (757) 
-4.6879999999999997

>  <r_qp_QPlogPC16>  (757) 
16.216999999999999

>  <r_qp_QPlogPo/w>  (757) 
4.7649999999999997

>  <r_qp_QPlogPoct>  (757) 
25.190999999999999

>  <r_qp_QPlogPw>  (757) 
13.834

>  <r_qp_QPlogS>  (757) 
-4.6829999999999998

>  <r_qp_QPpolrz>  (757) 
52.088999999999999

>  <r_qp_SASA>  (757) 
795.79600000000005

>  <r_qp_SAamideO>  (757) 
0

>  <r_qp_SAfluorine>  (757) 
38.514000000000003

>  <r_qp_WPSA>  (757) 
38.514000000000003

>  <r_qp_accptHB>  (757) 
6

>  <r_qp_dip^2/V>  (757) 
0.0060245000000000003

>  <r_qp_dipole>  (757) 
2.98

>  <r_qp_donorHB>  (757) 
3

>  <r_qp_glob>  (757) 
0.78718270000000001

>  <r_qp_mol_MW>  (757) 
456.56200000000001

>  <r_qp_volume>  (757) 
1474.241

>  <r_sd_BIOSOLVEIT.INFINISEE\_FTREES\_SIMILARITY>  (757) 
0.91100000000000003

>  <r_sd_BIOSOLVEIT.LOGP>  (757) 
3.1012200000000001

>  <r_sd_BIOSOLVEIT.MOLECULAR\_WEIGHT>  (757) 
458.57799999999997

>  <r_sd_BIOSOLVEIT.TPSA>  (757) 
79.140000000000001

>  <i_epik_Tot_Q>  (757) 
1

>  <i_epik_Tot_abs_Q>  (757) 
1

>  <i_f3d_flags>  (757) 
0

>  <i_i_glide_confnum>  (757) 
9

>  <i_i_glide_lignum>  (757) 
202

>  <i_i_glide_posenum>  (757) 
12

>  <i_i_glide_rotatable_bonds>  (757) 
9

>  <i_lp_mmshare_version>  (757) 
65135

>  <i_m_ct_format>  (757) 
2

>  <i_m_source_file_index>  (757) 
648

>  <i_qp_#NandO>  (757) 
5

>  <i_qp_#acid>  (757) 
0

>  <i_qp_#amide>  (757) 
0

>  <i_qp_#amidine>  (757) 
0

>  <i_qp_#amine>  (757) 
2

>  <i_qp_#in34>  (757) 
0

>  <i_qp_#in56>  (757) 
23

>  <i_qp_#metab>  (757) 
6

>  <i_qp_#nonHatm>  (757) 
34

>  <i_qp_#noncon>  (757) 
0

>  <i_qp_#ringatoms>  (757) 
23

>  <i_qp_#rotor>  (757) 
8

>  <i_qp_#rtvFG>  (757) 
0

>  <i_qp_#stars>  (757) 
1

>  <i_qp_CNS>  (757) 
1

>  <i_qp_HumanOralAbsorption>  (757) 
3

>  <i_qp_RuleOfFive>  (757) 
0

>  <i_qp_RuleOfThree>  (757) 
0

>  <i_sd_BIOSOLVEIT.INFINISEE\_REAGENT1\_NAME>  (757) 
49239300

>  <i_sd_BIOSOLVEIT.INFINISEE\_REAGENT2\_NAME>  (757) 
25682267

>  <i_sd_BIOSOLVEIT.INFINISEE\_REAGENT3\_NAME>  (757) 
40180766

>  <i_sd_BIOSOLVEIT.INFINISEE\_RESULT\_RANK>  (757) 
39951

>  <i_sd_version>  (757) 
0

>  <b_lp_Chiralities_Consistent>  (757) 
1

>  <b_sd_chiral_flag>  (757) 
0

>  <canonical_id>  (757) 
ATP-HTVS-772EF906400E

>  <compound_code>  (757) 
20706

>  <title>  (757) 
Shen____49239300____25682267____40180766

>  <variant>  (757) 
20706-2

>  <source_file>  (757) 
运行/运行/ATP-VSW/ATP-VSW-DOCK_HTVS_1-002_lib.maegz

>  <canonical_smiles>  (757) 
Cc1cc(-c2cc(CC[NH2+]Cc3ccccc3)n(C(=O)[C@@](C)(N)c3ccccc3)n2)ccc1F

>  <scaffold>  (757) 
O=C(Cc1ccccc1)n1nc(-c2ccccc2)cc1CC[NH2+]Cc1ccccc1

>  <molecular_formula>  (757) 
C28H30FN4O+

$$$$
ATP-HTVS-773D20A649CC
     RDKit          3D

 61 64  0  0  0  0  0  0  0  0999 V2000
  196.0190  179.9312  149.7472 F   0  0  0  0  0  0  0  0  0  0  0  0
  197.1056  180.0193  150.5537 C   0  0  0  0  0  0  0  0  0  0  0  0
  197.4664  181.2474  151.1625 C   0  0  0  0  0  0  0  0  0  0  0  0
  196.6221  182.4103  150.8977 C   0  0  0  0  0  0  0  0  0  0  0  0
  195.9565  183.3360  150.6863 N   0  0  0  0  0  0  0  0  0  0  0  0
  198.6162  181.3095  152.0084 C   0  0  0  0  0  0  0  0  0  0  0  0
  199.3687  180.1213  152.2092 C   0  0  0  0  0  0  0  0  0  0  0  0
  198.9959  178.9091  151.6057 C   0  0  0  0  0  0  0  0  0  0  0  0
  197.8690  178.8576  150.7739 C   0  0  0  0  0  0  0  0  0  0  0  0
  199.0726  182.5827  152.6896 C   0  0  0  0  0  0  0  0  0  0  0  0
  198.9231  183.6912  152.1696 O   0  0  0  0  0  0  0  0  0  0  0  0
  199.6480  182.3896  153.8849 N   0  0  0  0  0  0  0  0  0  0  0  0
  199.9739  183.3586  154.8638 C   0  0  0  0  0  0  0  0  0  0  0  0
  199.2284  184.4751  155.0387 N   0  0  0  0  0  0  0  0  0  0  0  0
  199.5353  185.3239  156.0382 C   0  0  0  0  0  0  0  0  0  0  0  0
  200.6028  185.1109  156.9397 C   0  0  0  0  0  0  0  0  0  0  0  0
  200.8806  185.9702  158.0160 N   0  0  0  0  0  0  0  0  0  0  0  0
  199.8023  186.6648  158.7232 C   0  0  1  0  0  0  0  0  0  0  0  0
  198.4976  185.8905  158.9145 C   0  0  0  0  0  0  0  0  0  0  0  0
  197.2672  186.5014  158.6151 C   0  0  0  0  0  0  0  0  0  0  0  0
  196.0716  185.7484  158.7100 C   0  0  0  0  0  0  0  0  0  0  0  0
  196.1082  184.3936  159.1163 C   0  0  0  0  0  0  0  0  0  0  0  0
  197.3398  183.8173  159.5159 C   0  0  0  0  0  0  0  0  0  0  0  0
  198.5280  184.5504  159.3606 C   0  0  0  0  0  0  0  0  0  0  0  0
  194.8332  183.5457  159.1337 C   0  0  1  0  0  0  0  0  0  0  0  0
  194.7979  182.4454  158.1232 N   0  0  2  0  0  0  0  0  0  0  0  0
  193.7490  181.4471  158.4072 C   0  0  2  0  0  0  0  0  0  0  0  0
  196.0924  181.7730  157.8542 C   0  0  2  0  0  0  0  0  0  0  0  0
  201.4021  183.9708  156.7383 C   0  0  0  0  0  0  0  0  0  0  0  0
  201.0870  183.0767  155.6961 C   0  0  0  0  0  0  0  0  0  0  0  0
  201.8933  181.9306  155.5154 N   0  0  0  0  0  0  0  0  0  0  0  0
  201.4853  180.6121  155.6422 C   0  0  0  0  0  0  0  0  0  0  0  0
  202.5620  179.8110  155.3856 C   0  0  0  0  0  0  0  0  0  0  0  0
  203.6714  180.6557  155.1038 C   0  0  0  0  0  0  0  0  0  0  0  0
  203.2385  181.9480  155.1912 C   0  0  0  0  0  0  0  0  0  0  0  0
  200.2527  180.1153  152.8281 H   0  0  0  0  0  0  0  0  0  0  0  0
  199.5769  178.0160  151.7852 H   0  0  0  0  0  0  0  0  0  0  0  0
  197.5866  177.9270  150.3025 H   0  0  0  0  0  0  0  0  0  0  0  0
  199.9027  181.4393  154.1162 H   0  0  0  0  0  0  0  0  0  0  0  0
  198.8839  186.1791  156.1296 H   0  0  0  0  0  0  0  0  0  0  0  0
  201.7184  185.7921  158.5513 H   0  0  0  0  0  0  0  0  0  0  0  0
  200.1676  186.8936  159.7248 H   0  0  0  0  0  0  0  0  0  0  0  0
  199.5993  187.6183  158.2306 H   0  0  0  0  0  0  0  0  0  0  0  0
  197.2357  187.5278  158.2640 H   0  0  0  0  0  0  0  0  0  0  0  0
  195.1480  186.2185  158.4089 H   0  0  0  0  0  0  0  0  0  0  0  0
  197.3744  182.7943  159.8961 H   0  0  0  0  0  0  0  0  0  0  0  0
  199.4692  184.0766  159.5667 H   0  0  0  0  0  0  0  0  0  0  0  0
  194.7159  183.1430  160.1338 H   0  0  0  0  0  0  0  0  0  0  0  0
  193.9683  184.1831  158.9665 H   0  0  0  0  0  0  0  0  0  0  0  0
  193.9173  180.9901  159.3791 H   0  0  0  0  0  0  0  0  0  0  0  0
  193.7568  180.6460  157.6656 H   0  0  0  0  0  0  0  0  0  0  0  0
  192.7504  181.8963  158.3921 H   0  0  0  0  0  0  0  0  0  0  0  0
  196.4584  181.2925  158.7752 H   0  0  0  0  0  0  0  0  0  0  0  0
  196.8660  182.4823  157.5321 H   0  0  0  0  0  0  0  0  0  0  0  0
  195.9771  181.0494  157.0595 H   0  0  0  0  0  0  0  0  0  0  0  0
  202.2310  183.7614  157.3991 H   0  0  0  0  0  0  0  0  0  0  0  0
  200.4682  180.3582  155.9080 H   0  0  0  0  0  0  0  0  0  0  0  0
  202.5614  178.7305  155.4109 H   0  0  0  0  0  0  0  0  0  0  0  0
  204.6806  180.3498  154.8703 H   0  0  0  0  0  0  0  0  0  0  0  0
  203.7653  182.8815  155.0540 H   0  0  0  0  0  0  0  0  0  0  0  0
  194.5212  182.8361  157.2261 H   0  0  0  0  0  0  0  0  0  0  0  0
  1  2  1  0
  2  3  2  0
  2  9  1  0
  3  4  1  0
  3  6  1  0
  4  5  3  0
  6  7  2  0
  6 10  1  0
  7  8  1  0
  7 36  1  0
  8  9  2  0
  8 37  1  0
  9 38  1  0
 10 11  2  0
 10 12  1  0
 12 13  1  0
 12 39  1  0
 13 14  1  0
 13 30  2  0
 14 15  2  0
 15 16  1  0
 15 40  1  0
 16 17  1  0
 16 29  2  0
 17 18  1  0
 17 41  1  0
 18 19  1  0
 18 42  1  1
 18 43  1  0
 19 20  1  0
 19 24  2  0
 20 21  2  0
 20 44  1  0
 21 22  1  0
 21 45  1  0
 22 23  2  0
 22 25  1  0
 23 24  1  0
 23 46  1  0
 24 47  1  0
 25 26  1  0
 25 48  1  1
 25 49  1  0
 26 27  1  0
 26 28  1  0
 26 61  1  6
 27 50  1  1
 27 51  1  0
 27 52  1  0
 28 53  1  1
 28 54  1  0
 28 55  1  0
 29 30  1  0
 29 56  1  0
 30 31  1  0
 31 32  1  0
 31 35  1  0
 32 33  2  0
 32 57  1  0
 33 34  1  0
 33 58  1  0
 34 35  2  0
 34 59  1  0
 35 60  1  0
M  CHG  1  26   1
M  END
>  <s_epik_cmdline>  (758) 
J2VwaWtfcHl0aG9uJywgJy1waCcsICc3LjAwMDAwMCcsICctcGh0JywgJzIuMDAwMDAwJywgJy1tcycsICcxNicsICctdG4nLCAnOCcsICctbWEnLCAnMjAwJywgJy1pbWFlJywgJzxpbmZpbGUubWFlPicsICctb21hZScsICc8b3V0ZmlsZS5tYWU+Jw==

>  <s_epik_input>  (758) 
RmMxYyhDI04pYyhbY0hdW2NIXVtjSF0xKUMoPU8pW05IXWMybltjSF1jKFtjSF1jMi1uM1tjSF1bY0hdW2NIXVtjSF0zKVtOSF1bQ0gyXWM0W2NIXVtjSF1jKFtjSF1bY0hdNClbQ0gyXU4oW0NIM10pW0NIM10=

>  <s_i_glide_gridfile>  (758) 
ATP-Grid

>  <s_lp_Force_Field>  (758) 
OPLS_2005

>  <s_lp_Variant>  (758) 
rxn502b____EMOL44385606____EMOL4363915____EMOL50155899-3

>  <s_lp_label>  (758) 
2491_sdstereoexpander_1_neutralizer_1_epik_3_stereoizer_1

>  <s_m_source_file>  (758) 
ATP-VSW-LIGPREP-001-in.maegz

>  <s_sd_BIOSOLVEIT.INFINISEE\_QUERY\_NAME>  (758) 
Ref-Lig

>  <s_sd_BIOSOLVEIT.INFINISEE\_QUERY\_SMILES>  (758) 
S(c1nc2c(cc1C[NH2+]Cc3ccc(cc3)C[NH+](C)C)cccc2)Cc4ccccc4

>  <s_sd_BIOSOLVEIT.INFINISEE\_REACTION\_NAME>  (758) 
rxn502b

>  <s_sd_BIOSOLVEIT.INFINISEE\_REAGENT1\_NAME>  (758) 
EMOL44385606

>  <s_sd_BIOSOLVEIT.INFINISEE\_REAGENT1\_SMILES>  (758) 
Fc1c(C#N)c(ccc1)C(=O)O

>  <s_sd_BIOSOLVEIT.INFINISEE\_REAGENT2\_NAME>  (758) 
EMOL4363915

>  <s_sd_BIOSOLVEIT.INFINISEE\_REAGENT2\_SMILES>  (758) 
Brc1cnc(N)c(N2C=CC=C2)c1

>  <s_sd_BIOSOLVEIT.INFINISEE\_REAGENT3\_NAME>  (758) 
EMOL50155899

>  <s_sd_BIOSOLVEIT.INFINISEE\_REAGENT3\_SMILES>  (758) 
N(Cc1ccc(cc1)CN)(C)C

>  <s_sd_BIOSOLVEIT.INFINISEE\_SPACE>  (758) 
eXplore_7tr_2022-12

>  <s_vsw_compound_code>  (758) 
79681

>  <s_vsw_variant>  (758) 
79681-3

>  <r_epik_Charging_Adjusted_Penalty>  (758) 
1.7387528568739301

>  <r_epik_Ionization_Penalty>  (758) 
0.081500000000000003

>  <r_epik_Ionization_Penalty_Charging>  (758) 
0.039199999999999999

>  <r_epik_Ionization_Penalty_Neutral>  (758) 
0.042299999999999997

>  <r_epik_State_Penalty>  (758) 
1.6995

>  <r_i_docking_score>  (758) 
-2.3269318805952

>  <r_i_glide_ecoul>  (758) 
-8.4930543899536097

>  <r_i_glide_eff_state_penalty>  (758) 
1.6995

>  <r_i_glide_einternal>  (758) 
5.9730267524719203

>  <r_i_glide_emodel>  (758) 
-49.555150490730298

>  <r_i_glide_energy>  (758) 
-38.128170967102101

>  <r_i_glide_erotb>  (758) 
0.73294346739628302

>  <r_i_glide_esite>  (758) 
-0.098170421036502795

>  <r_i_glide_evdw>  (758) 
-29.635116577148398

>  <r_i_glide_gscore>  (758) 
-4.0264318805952

>  <r_i_glide_hbond>  (758) 
-0.20000000000000001

>  <r_i_glide_ligand_efficiency>  (758) 
-0.066483768017005798

>  <r_i_glide_ligand_efficiency_ln>  (758) 
-0.51081319126126001

>  <r_i_glide_ligand_efficiency_sa>  (758) 
-0.21747281347709099

>  <r_i_glide_lipo>  (758) 
-1.18791293106647

>  <r_i_glide_metal>  (758) 
-0

>  <r_i_glide_rewards>  (758) 
-0.51757800853804903

>  <r_lp_Energy>  (758) 
28.691206000000001

>  <r_qp_ACxDN^.5/SA>  (758) 
0.0142922

>  <r_qp_CIQPlogS>  (758) 
-6.8230000000000004

>  <r_qp_EA(eV)>  (758) 
1.0640000000000001

>  <r_qp_FISA>  (758) 
112.02200000000001

>  <r_qp_FOSA>  (758) 
198.001

>  <r_qp_IP(eV)>  (758) 
8.4640000000000004

>  <r_qp_Jm>  (758) 
0.000108330615861655

>  <r_qp_PISA>  (758) 
440.84399999999999

>  <r_qp_PSA>  (758) 
89.245000000000005

>  <r_qp_PercentHumanOralAbsorption>  (758) 
94.983999999999995

>  <r_qp_QPPCaco>  (758) 
214.042

>  <r_qp_QPPMDCK>  (758) 
172.87200000000001

>  <r_qp_QPlogBB>  (758) 
-0.59999999999999998

>  <r_qp_QPlogHERG>  (758) 
-7.6689999999999996

>  <r_qp_QPlogKhsa>  (758) 
0.70199999999999996

>  <r_qp_QPlogKp>  (758) 
-3.3260000000000001

>  <r_qp_QPlogPC16>  (758) 
16.154

>  <r_qp_QPlogPo/w>  (758) 
4.4960000000000004

>  <r_qp_QPlogPoct>  (758) 
25.763999999999999

>  <r_qp_QPlogPw>  (758) 
14.444000000000001

>  <r_qp_QPlogS>  (758) 
-6.3099999999999996

>  <r_qp_QPpolrz>  (758) 
52.383000000000003

>  <r_qp_SASA>  (758) 
791.60199999999998

>  <r_qp_SAamideO>  (758) 
0

>  <r_qp_SAfluorine>  (758) 
40.734999999999999

>  <r_qp_WPSA>  (758) 
40.734999999999999

>  <r_qp_accptHB>  (758) 
8

>  <r_qp_dip^2/V>  (758) 
0.053103600000000001

>  <r_qp_dipole>  (758) 
8.8829999999999991

>  <r_qp_donorHB>  (758) 
2

>  <r_qp_glob>  (758) 
0.79550489999999996

>  <r_qp_mol_MW>  (758) 
468.53199999999998

>  <r_qp_volume>  (758) 
1485.857

>  <r_sd_BIOSOLVEIT.INFINISEE\_FTREES\_SIMILARITY>  (758) 
0.91500000000000004

>  <r_sd_BIOSOLVEIT.LOGP>  (758) 
3.3919800000000002

>  <r_sd_BIOSOLVEIT.MOLECULAR\_WEIGHT>  (758) 
469.541

>  <r_sd_BIOSOLVEIT.TPSA>  (758) 
87.180000000000007

>  <i_epik_Tot_Q>  (758) 
1

>  <i_epik_Tot_abs_Q>  (758) 
1

>  <i_f3d_flags>  (758) 
0

>  <i_i_glide_confnum>  (758) 
6

>  <i_i_glide_lignum>  (758) 
976

>  <i_i_glide_posenum>  (758) 
3

>  <i_i_glide_rotatable_bonds>  (758) 
9

>  <i_lp_mmshare_version>  (758) 
65135

>  <i_m_ct_format>  (758) 
2

>  <i_m_source_file_index>  (758) 
2491

>  <i_qp_#NandO>  (758) 
7

>  <i_qp_#acid>  (758) 
0

>  <i_qp_#amide>  (758) 
0

>  <i_qp_#amidine>  (758) 
0

>  <i_qp_#amine>  (758) 
1

>  <i_qp_#in34>  (758) 
0

>  <i_qp_#in56>  (758) 
23

>  <i_qp_#metab>  (758) 
6

>  <i_qp_#nonHatm>  (758) 
35

>  <i_qp_#noncon>  (758) 
0

>  <i_qp_#ringatoms>  (758) 
23

>  <i_qp_#rotor>  (758) 
8

>  <i_qp_#rtvFG>  (758) 
0

>  <i_qp_#stars>  (758) 
0

>  <i_qp_CNS>  (758) 
1

>  <i_qp_HumanOralAbsorption>  (758) 
1

>  <i_qp_RuleOfFive>  (758) 
0

>  <i_qp_RuleOfThree>  (758) 
1

>  <i_sd_BIOSOLVEIT.INFINISEE\_RESULT\_RANK>  (758) 
29575

>  <i_sd_version>  (758) 
0

>  <b_lp_Chiralities_Consistent>  (758) 
1

>  <b_sd_chiral_flag>  (758) 
0

>  <canonical_id>  (758) 
ATP-HTVS-773D20A649CC

>  <compound_code>  (758) 
79681

>  <title>  (758) 
rxn502b____EMOL44385606____EMOL4363915____EMOL50155899

>  <variant>  (758) 
79681-3

>  <source_file>  (758) 
运行/运行/ATP-VSW/ATP-VSW-DOCK_HTVS_1-001_lib/ATP-VSW-DOCK_HTVS_1-001_lib

>  <canonical_smiles>  (758) 
C[NH+](C)Cc1ccc(CNc2cnc(NC(=O)c3cccc(F)c3C#N)c(-n3cccc3)c2)cc1

>  <scaffold>  (758) 
O=C(Nc1ncc(NCc2ccccc2)cc1-n1cccc1)c1ccccc1

>  <molecular_formula>  (758) 
C27H26FN6O+

$$$$
ATP-HTVS-7743C5ABCFDD
     RDKit          3D

 44 47  0  0  0  0  0  0  0  0999 V2000
  199.9516  189.3169  152.6154 F   0  0  0  0  0  0  0  0  0  0  0  0
  199.4788  188.4229  153.5170 C   0  0  0  0  0  0  0  0  0  0  0  0
  199.2951  187.0750  153.1453 C   0  0  0  0  0  0  0  0  0  0  0  0
  198.7896  186.1456  154.0816 C   0  0  0  0  0  0  0  0  0  0  0  0
  198.4882  186.5737  155.3930 C   0  0  0  0  0  0  0  0  0  0  0  0
  198.6766  187.9146  155.7673 C   0  0  0  0  0  0  0  0  0  0  0  0
  199.1777  188.8385  154.8318 C   0  0  0  0  0  0  0  0  0  0  0  0
  198.6396  184.6999  153.7153 C   0  0  0  0  0  0  0  0  0  0  0  0
  199.4218  184.1793  152.9169 O   0  0  0  0  0  0  0  0  0  0  0  0
  197.5793  184.0755  154.2613 N   0  0  0  0  0  0  0  0  0  0  0  0
  197.3156  182.6833  154.1919 C   0  0  0  0  0  0  0  0  0  0  0  0
  197.3422  181.9132  155.3838 C   0  0  0  0  0  0  0  0  0  0  0  0
  197.6891  182.4740  156.6234 N   0  0  0  0  0  0  0  0  0  0  0  0
  198.9773  182.4341  157.0151 C   0  0  0  0  0  0  0  0  0  0  0  0
  200.0902  182.3602  157.3206 N   0  0  0  0  0  0  0  0  0  0  0  0
  196.7205  182.9821  157.5048 C   0  0  0  0  0  0  0  0  0  0  0  0
  196.9164  184.2442  158.1104 C   0  0  0  0  0  0  0  0  0  0  0  0
  195.9389  184.7909  158.9650 C   0  0  0  0  0  0  0  0  0  0  0  0
  194.7741  184.0558  159.2586 C   0  0  0  0  0  0  0  0  0  0  0  0
  194.5925  182.7765  158.6954 C   0  0  0  0  0  0  0  0  0  0  0  0
  195.5583  182.2458  157.8177 C   0  0  0  0  0  0  0  0  0  0  0  0
  197.1017  180.5290  155.2803 C   0  0  0  0  0  0  0  0  0  0  0  0
  196.8131  179.9110  154.1184 N   0  0  0  0  0  0  0  0  0  0  0  0
  196.7474  180.6382  152.9817 C   0  0  0  0  0  0  0  0  0  0  0  0
  196.9861  182.0430  152.9681 C   0  0  0  0  0  0  0  0  0  0  0  0
  196.8920  182.7569  151.7470 C   0  0  0  0  0  0  0  0  0  0  0  0
  196.6170  182.0844  150.5463 C   0  0  0  0  0  0  0  0  0  0  0  0
  196.3805  180.6972  150.5525 C   0  0  0  0  0  0  0  0  0  0  0  0
  196.4373  179.9898  151.7669 C   0  0  0  0  0  0  0  0  0  0  0  0
  199.5451  186.7557  152.1408 H   0  0  0  0  0  0  0  0  0  0  0  0
  198.1270  185.8691  156.1245 H   0  0  0  0  0  0  0  0  0  0  0  0
  198.4444  188.2229  156.7772 H   0  0  0  0  0  0  0  0  0  0  0  0
  199.3167  189.8682  155.1183 H   0  0  0  0  0  0  0  0  0  0  0  0
  197.0321  184.5813  154.9403 H   0  0  0  0  0  0  0  0  0  0  0  0
  197.8195  184.8005  157.9167 H   0  0  0  0  0  0  0  0  0  0  0  0
  196.0792  185.7757  159.3851 H   0  0  0  0  0  0  0  0  0  0  0  0
  194.0166  184.4754  159.9084 H   0  0  0  0  0  0  0  0  0  0  0  0
  193.7060  182.2038  158.9185 H   0  0  0  0  0  0  0  0  0  0  0  0
  195.3943  181.2709  157.3857 H   0  0  0  0  0  0  0  0  0  0  0  0
  197.1483  179.8943  156.1526 H   0  0  0  0  0  0  0  0  0  0  0  0
  197.0329  183.8269  151.7025 H   0  0  0  0  0  0  0  0  0  0  0  0
  196.5947  182.6443  149.6221 H   0  0  0  0  0  0  0  0  0  0  0  0
  196.1651  180.1843  149.6268 H   0  0  0  0  0  0  0  0  0  0  0  0
  196.2515  178.9260  151.7826 H   0  0  0  0  0  0  0  0  0  0  0  0
  1  2  1  0
  2  3  2  0
  2  7  1  0
  3  4  1  0
  3 30  1  0
  4  5  2  0
  4  8  1  0
  5  6  1  0
  5 31  1  0
  6  7  2  0
  6 32  1  0
  7 33  1  0
  8  9  2  0
  8 10  1  0
 10 11  1  0
 10 34  1  0
 11 12  2  0
 11 25  1  0
 12 13  1  0
 12 22  1  0
 13 14  1  0
 13 16  1  0
 14 15  3  0
 16 17  2  0
 16 21  1  0
 17 18  1  0
 17 35  1  0
 18 19  2  0
 18 36  1  0
 19 20  1  0
 19 37  1  0
 20 21  2  0
 20 38  1  0
 21 39  1  0
 22 23  2  0
 22 40  1  0
 23 24  1  0
 24 25  1  0
 24 29  2  0
 25 26  2  0
 26 27  1  0
 26 41  1  0
 27 28  2  0
 27 42  1  0
 28 29  1  0
 28 43  1  0
 29 44  1  0
M  END
>  <s_epik_cmdline>  (759) 
J2VwaWtfcHl0aG9uJywgJy1waCcsICc3LjAwMDAwMCcsICctcGh0JywgJzIuMDAwMDAwJywgJy1tcycsICcxNicsICctdG4nLCAnOCcsICctbWEnLCAnMjAwJywgJy1pbWFlJywgJzxpbmZpbGUubWFlPicsICctb21hZScsICc8b3V0ZmlsZS5tYWU+Jw==

>  <s_epik_input>  (759) 
RmMxW2NIXWMoW2NIXVtjSF1bY0hdMSlDKD1PKVtOSF1jKGMoYzIzKVtjSF1bY0hdW2NIXVtjSF0zKWMoW2NIXW4yKU4oQyNOKWM0W2NIXVtjSF1bY0hdW2NIXVtjSF00

>  <s_i_glide_gridfile>  (759) 
ATP-Grid

>  <s_lp_Force_Field>  (759) 
OPLS_2005

>  <s_lp_Variant>  (759) 
rxn502b____EMOL511643____EMOL13728749____EMOL36822768-1

>  <s_lp_label>  (759) 
2938_sdstereoexpander_1_neutralizer_1_epik_1_stereoizer_1

>  <s_m_source_file>  (759) 
ATP-VSW-LIGPREP-003-in.maegz

>  <s_sd_BIOSOLVEIT.INFINISEE\_QUERY\_NAME>  (759) 
Ref-Lig

>  <s_sd_BIOSOLVEIT.INFINISEE\_QUERY\_SMILES>  (759) 
S(c1nc2c(cc1C[NH2+]Cc3ccc(cc3)C[NH+](C)C)cccc2)Cc4ccccc4

>  <s_sd_BIOSOLVEIT.INFINISEE\_REACTION\_NAME>  (759) 
rxn502b

>  <s_sd_BIOSOLVEIT.INFINISEE\_REAGENT1\_NAME>  (759) 
EMOL511643

>  <s_sd_BIOSOLVEIT.INFINISEE\_REAGENT1\_SMILES>  (759) 
Fc1cc(ccc1)C(=O)O

>  <s_sd_BIOSOLVEIT.INFINISEE\_REAGENT2\_NAME>  (759) 
EMOL13728749

>  <s_sd_BIOSOLVEIT.INFINISEE\_REAGENT2\_SMILES>  (759) 
Brc1c(N)c2c(nc1)cccc2

>  <s_sd_BIOSOLVEIT.INFINISEE\_REAGENT3\_NAME>  (759) 
EMOL36822768

>  <s_sd_BIOSOLVEIT.INFINISEE\_REAGENT3\_SMILES>  (759) 
N#CNc1ccccc1

>  <s_sd_BIOSOLVEIT.INFINISEE\_SPACE>  (759) 
eXplore_7tr_2022-12

>  <s_vsw_compound_code>  (759) 
93987

>  <s_vsw_variant>  (759) 
93987-1

>  <r_epik_Charging_Adjusted_Penalty>  (759) 
0.0091185400822431407

>  <r_epik_Ionization_Penalty>  (759) 
0.00080000000000000004

>  <r_epik_Ionization_Penalty_Charging>  (759) 
0

>  <r_epik_Ionization_Penalty_Neutral>  (759) 
0.00080000000000000004

>  <r_epik_State_Penalty>  (759) 
0.0091000000000000004

>  <r_i_docking_score>  (759) 
-3.20517045360338

>  <r_i_glide_ecoul>  (759) 
-0.75560563802719105

>  <r_i_glide_eff_state_penalty>  (759) 
0.0091000000000000004

>  <r_i_glide_einternal>  (759) 
6.3199329376220703

>  <r_i_glide_emodel>  (759) 
-38.520956593418497

>  <r_i_glide_energy>  (759) 
-34.3952998518944

>  <r_i_glide_erotb>  (759) 
0.66409722755152101

>  <r_i_glide_esite>  (759) 
-0.046002310079967301

>  <r_i_glide_evdw>  (759) 
-33.639694213867202

>  <r_i_glide_gscore>  (759) 
-3.2142704536033802

>  <r_i_glide_hbond>  (759) 
0

>  <r_i_glide_ligand_efficiency>  (759) 
-0.110523119089772

>  <r_i_glide_ligand_efficiency_ln>  (759) 
-0.733902757765164

>  <r_i_glide_ligand_efficiency_sa>  (759) 
-0.33956203802565099

>  <r_i_glide_lipo>  (759) 
-1.0786329382692601

>  <r_i_glide_metal>  (759) 
-0

>  <r_i_glide_rewards>  (759) 
-0.95840687640823197

>  <r_lp_Energy>  (759) 
34.926741999999997

>  <r_qp_ACxDN^.5/SA>  (759) 
0.0084215000000000002

>  <r_qp_CIQPlogS>  (759) 
-6.1079999999999997

>  <r_qp_EA(eV)>  (759) 
1.5109999999999999

>  <r_qp_FISA>  (759) 
94.283000000000001

>  <r_qp_FOSA>  (759) 
0

>  <r_qp_IP(eV)>  (759) 
8.6210000000000004

>  <r_qp_Jm>  (759) 
0.11600333107291699

>  <r_qp_PISA>  (759) 
511.88099999999997

>  <r_qp_PSA>  (759) 
71.325999999999993

>  <r_qp_PercentHumanOralAbsorption>  (759) 
100

>  <r_qp_QPPCaco>  (759) 
1264.1880000000001

>  <r_qp_QPPMDCK>  (759) 
1151.9680000000001

>  <r_qp_QPlogBB>  (759) 
-0.55600000000000005

>  <r_qp_QPlogHERG>  (759) 
-6.875

>  <r_qp_QPlogKhsa>  (759) 
0.502

>  <r_qp_QPlogKp>  (759) 
-0.97399999999999998

>  <r_qp_QPlogPC16>  (759) 
13.249000000000001

>  <r_qp_QPlogPo/w>  (759) 
4.4279999999999999

>  <r_qp_QPlogPoct>  (759) 
18.911000000000001

>  <r_qp_QPlogPw>  (759) 
11.210000000000001

>  <r_qp_QPlogS>  (759) 
-5.5439999999999996

>  <r_qp_QPpolrz>  (759) 
42.213999999999999

>  <r_qp_SASA>  (759) 
653.08699999999999

>  <r_qp_SAamideO>  (759) 
0

>  <r_qp_SAfluorine>  (759) 
46.923000000000002

>  <r_qp_WPSA>  (759) 
46.923000000000002

>  <r_qp_accptHB>  (759) 
5.5

>  <r_qp_dip^2/V>  (759) 
0.0059665999999999999

>  <r_qp_dipole>  (759) 
2.6379999999999999

>  <r_qp_donorHB>  (759) 
1

>  <r_qp_glob>  (759) 
0.82065560000000004

>  <r_qp_mol_MW>  (759) 
382.39600000000002

>  <r_qp_volume>  (759) 
1166.6759999999999

>  <r_sd_BIOSOLVEIT.INFINISEE\_FTREES\_SIMILARITY>  (759) 
0.90400000000000003

>  <r_sd_BIOSOLVEIT.LOGP>  (759) 
5.2453799999999999

>  <r_sd_BIOSOLVEIT.MOLECULAR\_WEIGHT>  (759) 
382.39699999999999

>  <r_sd_BIOSOLVEIT.TPSA>  (759) 
69.019999999999996

>  <i_epik_Tot_Q>  (759) 
0

>  <i_epik_Tot_abs_Q>  (759) 
0

>  <i_f3d_flags>  (759) 
0

>  <i_i_glide_confnum>  (759) 
6

>  <i_i_glide_lignum>  (759) 
1450

>  <i_i_glide_posenum>  (759) 
2

>  <i_i_glide_rotatable_bonds>  (759) 
5

>  <i_lp_mmshare_version>  (759) 
65135

>  <i_m_ct_format>  (759) 
2

>  <i_m_source_file_index>  (759) 
2938

>  <i_qp_#NandO>  (759) 
5

>  <i_qp_#acid>  (759) 
0

>  <i_qp_#amide>  (759) 
0

>  <i_qp_#amidine>  (759) 
0

>  <i_qp_#amine>  (759) 
0

>  <i_qp_#in34>  (759) 
0

>  <i_qp_#in56>  (759) 
22

>  <i_qp_#metab>  (759) 
2

>  <i_qp_#nonHatm>  (759) 
29

>  <i_qp_#noncon>  (759) 
0

>  <i_qp_#ringatoms>  (759) 
22

>  <i_qp_#rotor>  (759) 
5

>  <i_qp_#rtvFG>  (759) 
0

>  <i_qp_#stars>  (759) 
1

>  <i_qp_CNS>  (759) 
0

>  <i_qp_HumanOralAbsorption>  (759) 
3

>  <i_qp_RuleOfFive>  (759) 
0

>  <i_qp_RuleOfThree>  (759) 
0

>  <i_sd_BIOSOLVEIT.INFINISEE\_RESULT\_RANK>  (759) 
78922

>  <i_sd_version>  (759) 
0

>  <b_lp_Chiralities_Consistent>  (759) 
1

>  <b_sd_chiral_flag>  (759) 
0

>  <canonical_id>  (759) 
ATP-HTVS-7743C5ABCFDD

>  <compound_code>  (759) 
93987

>  <title>  (759) 
rxn502b____EMOL511643____EMOL13728749____EMOL36822768

>  <variant>  (759) 
93987-1

>  <source_file>  (759) 
运行/运行/ATP-VSW/ATP-VSW-DOCK_HTVS_1-003_lib/ATP-VSW-DOCK_HTVS_1-003_lib.mae

>  <canonical_smiles>  (759) 
N#CN(c1ccccc1)c1cnc2ccccc2c1NC(=O)c1cccc(F)c1

>  <scaffold>  (759) 
O=C(Nc1c(Nc2ccccc2)cnc2ccccc12)c1ccccc1

>  <molecular_formula>  (759) 
C23H15FN4O

$$$$
ATP-HTVS-7752C713B971
     RDKit          3D

 55 58  0  0  0  0  0  0  0  0999 V2000
  199.5664  174.8858  147.3298 Cl  0  0  0  0  0  0  0  0  0  0  0  0
  199.2994  175.9651  148.6433 C   0  0  0  0  0  0  0  0  0  0  0  0
  200.0522  175.8377  149.8269 C   0  0  0  0  0  0  0  0  0  0  0  0
  199.8419  176.7319  150.8946 C   0  0  0  0  0  0  0  0  0  0  0  0
  198.8694  177.7502  150.7904 C   0  0  0  0  0  0  0  0  0  0  0  0
  198.7550  178.6421  151.8945 N   0  0  0  0  0  0  0  0  0  0  0  0
  197.7681  179.5129  152.1920 C   0  0  0  0  0  0  0  0  0  0  0  0
  196.7201  179.6189  151.5594 O   0  0  0  0  0  0  0  0  0  0  0  0
  198.0265  180.3745  153.3965 C   0  0  0  0  0  0  0  0  0  0  0  0
  197.7811  181.7800  153.3941 C   0  0  0  0  0  0  0  0  0  0  0  0
  198.0149  182.4959  154.6035 C   0  0  0  0  0  0  0  0  0  0  0  0
  198.3917  181.7908  155.7670 C   0  0  0  0  0  0  0  0  0  0  0  0
  198.6386  180.4702  155.7547 N   0  0  0  0  0  0  0  0  0  0  0  0
  198.4767  179.7944  154.5986 C   0  0  0  0  0  0  0  0  0  0  0  0
  198.4693  182.4518  157.0137 N   0  0  0  0  0  0  0  0  0  0  0  0
  197.4448  182.0341  157.9732 C   0  0  1  0  0  0  0  0  0  0  0  0
  196.0802  182.7196  157.7283 C   0  0  1  0  0  0  0  0  0  0  0  0
  194.9908  181.8333  158.1256 N   0  0  2  0  0  0  0  0  0  0  0  0
  195.9649  184.0759  158.4578 C   0  0  0  0  0  0  0  0  0  0  0  0
  196.5523  185.2342  157.9010 C   0  0  0  0  0  0  0  0  0  0  0  0
  196.4226  186.4893  158.5081 C   0  0  0  0  0  0  0  0  0  0  0  0
  195.7027  186.6324  159.7047 C   0  0  0  0  0  0  0  0  0  0  0  0
  195.1052  185.4903  160.2849 C   0  0  0  0  0  0  0  0  0  0  0  0
  195.2439  184.2188  159.6772 C   0  0  0  0  0  0  0  0  0  0  0  0
  199.8306  182.5962  157.5262 C   0  0  2  0  0  0  0  0  0  0  0  0
  197.8749  183.8960  154.6205 C   0  0  0  0  0  0  0  0  0  0  0  0
  197.3885  184.5866  153.5010 C   0  0  0  0  0  0  0  0  0  0  0  0
  197.1396  183.8951  152.3035 C   0  0  0  0  0  0  0  0  0  0  0  0
  197.3603  182.5015  152.2389 C   0  0  0  0  0  0  0  0  0  0  0  0
  198.1234  177.8787  149.5908 C   0  0  0  0  0  0  0  0  0  0  0  0
  198.3320  176.9795  148.5304 C   0  0  0  0  0  0  0  0  0  0  0  0
  194.1076  182.2184  157.8273 H   0  0  0  0  0  0  0  0  0  0  0  0
  195.0323  181.6816  159.1221 H   0  0  0  0  0  0  0  0  0  0  0  0
  200.8036  175.0658  149.9050 H   0  0  0  0  0  0  0  0  0  0  0  0
  200.4427  176.6356  151.7856 H   0  0  0  0  0  0  0  0  0  0  0  0
  199.4990  178.5835  152.5740 H   0  0  0  0  0  0  0  0  0  0  0  0
  198.6970  178.7344  154.6565 H   0  0  0  0  0  0  0  0  0  0  0  0
  197.3543  180.9497  157.9163 H   0  0  0  0  0  0  0  0  0  0  0  0
  197.7591  182.2551  158.9906 H   0  0  0  0  0  0  0  0  0  0  0  0
  195.9220  182.8662  156.6611 H   0  0  0  0  0  0  0  0  0  0  0  0
  197.0649  185.2103  156.9607 H   0  0  0  0  0  0  0  0  0  0  0  0
  196.8548  187.3554  158.0310 H   0  0  0  0  0  0  0  0  0  0  0  0
  195.5837  187.6063  160.1618 H   0  0  0  0  0  0  0  0  0  0  0  0
  194.5182  185.5977  161.1817 H   0  0  0  0  0  0  0  0  0  0  0  0
  194.7469  183.3903  160.1632 H   0  0  0  0  0  0  0  0  0  0  0  0
  200.4799  183.0499  156.7791 H   0  0  0  0  0  0  0  0  0  0  0  0
  200.2619  181.6428  157.8242 H   0  0  0  0  0  0  0  0  0  0  0  0
  199.8276  183.2571  158.3990 H   0  0  0  0  0  0  0  0  0  0  0  0
  198.2137  184.4327  155.4803 H   0  0  0  0  0  0  0  0  0  0  0  0
  197.2446  185.6564  153.5511 H   0  0  0  0  0  0  0  0  0  0  0  0
  196.8236  184.4332  151.4221 H   0  0  0  0  0  0  0  0  0  0  0  0
  197.2050  182.0200  151.2909 H   0  0  0  0  0  0  0  0  0  0  0  0
  197.4046  178.6666  149.4382 H   0  0  0  0  0  0  0  0  0  0  0  0
  197.7659  177.0860  147.6155 H   0  0  0  0  0  0  0  0  0  0  0  0
  195.1072  180.8982  157.7162 H   0  0  0  0  0  0  0  0  0  0  0  0
  1  2  1  0
  2  3  1  0
  2 31  2  0
  3  4  2  0
  3 34  1  0
  4  5  1  0
  4 35  1  0
  5  6  1  0
  5 30  2  0
  6  7  1  0
  6 36  1  0
  7  8  2  0
  7  9  1  0
  9 10  2  0
  9 14  1  0
 10 11  1  0
 10 29  1  0
 11 12  2  0
 11 26  1  0
 12 13  1  0
 12 15  1  0
 13 14  2  0
 14 37  1  0
 15 16  1  0
 15 25  1  0
 16 17  1  0
 16 38  1  1
 16 39  1  0
 17 18  1  0
 17 19  1  0
 17 40  1  6
 18 32  1  1
 18 33  1  0
 18 55  1  0
 19 20  2  0
 19 24  1  0
 20 21  1  0
 20 41  1  0
 21 22  2  0
 21 42  1  0
 22 23  1  0
 22 43  1  0
 23 24  2  0
 23 44  1  0
 24 45  1  0
 25 46  1  6
 25 47  1  0
 25 48  1  0
 26 27  2  0
 26 49  1  0
 27 28  1  0
 27 50  1  0
 28 29  2  0
 28 51  1  0
 29 52  1  0
 30 31  1  0
 30 53  1  0
 31 54  1  0
M  CHG  1  18   1
M  END
>  <s_epik_cmdline>  (760) 
J2VwaWtfcHl0aG9uJywgJy1waCcsICc3LjAwMDAwMCcsICctcGh0JywgJzIuMDAwMDAwJywgJy1tcycsICcxNicsICctdG4nLCAnOCcsICctbWEnLCAnMjAwJywgJy1pbWFlJywgJzxpbmZpbGUubWFlPicsICctb21hZScsICc8b3V0ZmlsZS5tYWU+Jw==

>  <s_epik_input>  (760) 
Q2xjMVtjSF1bY0hdYyhbY0hdW2NIXTEpW05IXUMoPU8pYzJbY0hdbmMoYyhjMjMpW2NIXVtjSF1bY0hdW2NIXTMpTihbQ0gzXSlbQ0gyXVtDQEBIXShbTkgyXSljNFtjSF1bY0hdW2NIXVtjSF1bY0hdNA==

>  <s_i_glide_gridfile>  (760) 
ATP-Grid

>  <s_lp_Force_Field>  (760) 
OPLS_2005

>  <s_lp_Variant>  (760) 
rxn102c____EMOL2799272____EMOL42975864-2

>  <s_lp_label>  (760) 
2819_sdstereoexpander_2_neutralizer_1_epik_1_stereoizer_1

>  <s_m_source_file>  (760) 
ATP-VSW-LIGPREP-002-in.maegz

>  <s_sd_BIOSOLVEIT.INFINISEE\_QUERY\_NAME>  (760) 
Ref-Lig

>  <s_sd_BIOSOLVEIT.INFINISEE\_QUERY\_SMILES>  (760) 
S(c1nc2c(cc1C[NH2+]Cc3ccc(cc3)C[NH+](C)C)cccc2)Cc4ccccc4

>  <s_sd_BIOSOLVEIT.INFINISEE\_REACTION\_NAME>  (760) 
rxn102c

>  <s_sd_BIOSOLVEIT.INFINISEE\_REAGENT1\_NAME>  (760) 
EMOL2799272

>  <s_sd_BIOSOLVEIT.INFINISEE\_REAGENT1\_SMILES>  (760) 
Clc1ncc(c2c1cccc2)C(=O)Nc3ccc(Cl)cc3

>  <s_sd_BIOSOLVEIT.INFINISEE\_REAGENT2\_NAME>  (760) 
EMOL42975864

>  <s_sd_BIOSOLVEIT.INFINISEE\_REAGENT2\_SMILES>  (760) 
N(CC(N)c1ccccc1)C

>  <s_sd_BIOSOLVEIT.INFINISEE\_SPACE>  (760) 
eXplore_7tr_2022-12

>  <s_vsw_compound_code>  (760) 
90178

>  <s_vsw_variant>  (760) 
90178-2

>  <r_epik_Charging_Adjusted_Penalty>  (760) 
0.052222929186552199

>  <r_epik_Ionization_Penalty>  (760) 
0.045400000000000003

>  <r_epik_Ionization_Penalty_Charging>  (760) 
0.045400000000000003

>  <r_epik_Ionization_Penalty_Neutral>  (760) 
0.0001

>  <r_epik_State_Penalty>  (760) 
0.0068999999999999999

>  <r_i_docking_score>  (760) 
-5.1432814621140501

>  <r_i_glide_ecoul>  (760) 
-7.9203028678893999

>  <r_i_glide_eff_state_penalty>  (760) 
0.0068999999999999999

>  <r_i_glide_einternal>  (760) 
9.4981613159179705

>  <r_i_glide_emodel>  (760) 
-59.557969158933503

>  <r_i_glide_energy>  (760) 
-43.891311168670697

>  <r_i_glide_erotb>  (760) 
0.63978904638367695

>  <r_i_glide_esite>  (760) 
-0.11451090452964501

>  <r_i_glide_evdw>  (760) 
-35.9710083007812

>  <r_i_glide_gscore>  (760) 
-5.15018146211405

>  <r_i_glide_hbond>  (760) 
-0.21755623885758599

>  <r_i_glide_ligand_efficiency>  (760) 
-0.165912305229485

>  <r_i_glide_ligand_efficiency_ln>  (760) 
-1.15996759235377

>  <r_i_glide_ligand_efficiency_sa>  (760) 
-0.52119370504496998

>  <r_i_glide_lipo>  (760) 
-1.68699129986229

>  <r_i_glide_metal>  (760) 
-0

>  <r_i_glide_rewards>  (760) 
-0.78431622002573698

>  <r_lp_Energy>  (760) 
34.159742999999999

>  <r_qp_ACxDN^.5/SA>  (760) 
0.0128053

>  <r_qp_CIQPlogS>  (760) 
-6.0510000000000002

>  <r_qp_EA(eV)>  (760) 
1.2629999999999999

>  <r_qp_FISA>  (760) 
90.617999999999995

>  <r_qp_FOSA>  (760) 
100.901

>  <r_qp_IP(eV)>  (760) 
8.6240000000000006

>  <r_qp_Jm>  (760) 
0.011641241225060399

>  <r_qp_PISA>  (760) 
413.12

>  <r_qp_PSA>  (760) 
69.254999999999995

>  <r_qp_PercentHumanOralAbsorption>  (760) 
100

>  <r_qp_QPPCaco>  (760) 
341.55799999999999

>  <r_qp_QPPMDCK>  (760) 
423.17200000000003

>  <r_qp_QPlogBB>  (760) 
-0.13900000000000001

>  <r_qp_QPlogHERG>  (760) 
-6.8049999999999997

>  <r_qp_QPlogKhsa>  (760) 
0.68500000000000005

>  <r_qp_QPlogKp>  (760) 
-3.125

>  <r_qp_QPlogPC16>  (760) 
14.784000000000001

>  <r_qp_QPlogPo/w>  (760) 
4.4489999999999998

>  <r_qp_QPlogPoct>  (760) 
22.969999999999999

>  <r_qp_QPlogPw>  (760) 
12.573

>  <r_qp_QPlogS>  (760) 
-4.444

>  <r_qp_QPpolrz>  (760) 
44.319000000000003

>  <r_qp_SASA>  (760) 
676.30100000000004

>  <r_qp_SAamideO>  (760) 
0

>  <r_qp_SAfluorine>  (760) 
0

>  <r_qp_WPSA>  (760) 
71.659999999999997

>  <r_qp_accptHB>  (760) 
5

>  <r_qp_dip^2/V>  (760) 
0.056164699999999998

>  <r_qp_dipole>  (760) 
8.4619999999999997

>  <r_qp_donorHB>  (760) 
3

>  <r_qp_glob>  (760) 
0.84077820000000003

>  <r_qp_mol_MW>  (760) 
430.93599999999998

>  <r_qp_volume>  (760) 
1274.924

>  <r_sd_BIOSOLVEIT.INFINISEE\_FTREES\_SIMILARITY>  (760) 
0.90600000000000003

>  <r_sd_BIOSOLVEIT.LOGP>  (760) 
4.5598999999999998

>  <r_sd_BIOSOLVEIT.MOLECULAR\_WEIGHT>  (760) 
431.94499999999999

>  <r_sd_BIOSOLVEIT.TPSA>  (760) 
72.870000000000005

>  <i_epik_Tot_Q>  (760) 
1

>  <i_epik_Tot_abs_Q>  (760) 
1

>  <i_f3d_flags>  (760) 
0

>  <i_i_glide_confnum>  (760) 
6

>  <i_i_glide_lignum>  (760) 
1375

>  <i_i_glide_posenum>  (760) 
17

>  <i_i_glide_rotatable_bonds>  (760) 
7

>  <i_lp_mmshare_version>  (760) 
65135

>  <i_m_ct_format>  (760) 
2

>  <i_m_source_file_index>  (760) 
2819

>  <i_qp_#NandO>  (760) 
5

>  <i_qp_#acid>  (760) 
0

>  <i_qp_#amide>  (760) 
0

>  <i_qp_#amidine>  (760) 
0

>  <i_qp_#amine>  (760) 
1

>  <i_qp_#in34>  (760) 
0

>  <i_qp_#in56>  (760) 
22

>  <i_qp_#metab>  (760) 
5

>  <i_qp_#nonHatm>  (760) 
31

>  <i_qp_#noncon>  (760) 
0

>  <i_qp_#ringatoms>  (760) 
22

>  <i_qp_#rotor>  (760) 
7

>  <i_qp_#rtvFG>  (760) 
0

>  <i_qp_#stars>  (760) 
0

>  <i_qp_CNS>  (760) 
0

>  <i_qp_HumanOralAbsorption>  (760) 
3

>  <i_qp_RuleOfFive>  (760) 
0

>  <i_qp_RuleOfThree>  (760) 
0

>  <i_sd_BIOSOLVEIT.INFINISEE\_RESULT\_RANK>  (760) 
65510

>  <i_sd_version>  (760) 
0

>  <b_lp_Chiralities_Consistent>  (760) 
1

>  <b_sd_chiral_flag>  (760) 
0

>  <canonical_id>  (760) 
ATP-HTVS-7752C713B971

>  <compound_code>  (760) 
90178

>  <title>  (760) 
rxn102c____EMOL2799272____EMOL42975864

>  <variant>  (760) 
90178-2

>  <source_file>  (760) 
运行/运行/ATP-VSW/ATP-VSW-DOCK_HTVS_1-002_lib.maegz

>  <canonical_smiles>  (760) 
CN(C[C@@H]([NH3+])c1ccccc1)c1ncc(C(=O)Nc2ccc(Cl)cc2)c2ccccc12

>  <scaffold>  (760) 
O=C(Nc1ccccc1)c1cnc(NCCc2ccccc2)c2ccccc12

>  <molecular_formula>  (760) 
C25H24ClN4O+

$$$$
ATP-HTVS-776FBC5F0312
     RDKit          3D

 57 60  0  0  0  0  0  0  0  0999 V2000
  198.6133  185.0017  150.4977 S   0  0  0  0  0  0  0  0  0  0  0  0
  199.5267  186.1865  151.4174 C   0  0  0  0  0  0  0  0  0  0  0  0
  200.4873  186.9631  150.8136 N   0  0  0  0  0  0  0  0  0  0  0  0
  201.0887  187.8684  151.6192 C   0  0  0  0  0  0  0  0  0  0  0  0
  200.8165  187.9909  152.9944 C   0  0  0  0  0  0  0  0  0  0  0  0
  199.8463  187.1589  153.5829 C   0  0  0  0  0  0  0  0  0  0  0  0
  199.1212  186.2101  152.7996 C   0  0  0  0  0  0  0  0  0  0  0  0
  198.0532  185.2245  153.0609 C   0  0  0  0  0  0  0  0  0  0  0  0
  197.4261  184.9926  154.3089 N   0  0  0  0  0  0  0  0  0  0  0  0
  197.5708  185.8069  155.5061 C   0  0  1  0  0  0  0  0  0  0  0  0
  197.4722  185.0831  156.8424 C   0  0  0  0  0  0  0  0  0  0  0  0
  196.7441  183.8873  156.9950 C   0  0  0  0  0  0  0  0  0  0  0  0
  196.6099  183.2560  158.2530 C   0  0  0  0  0  0  0  0  0  0  0  0
  197.2630  183.8261  159.3668 C   0  0  0  0  0  0  0  0  0  0  0  0
  198.0512  184.9960  159.2201 C   0  0  0  0  0  0  0  0  0  0  0  0
  198.1472  185.6201  157.9568 C   0  0  0  0  0  0  0  0  0  0  0  0
  195.6849  182.0571  158.4212 C   0  0  1  0  0  0  0  0  0  0  0  0
  194.2783  182.3798  158.1493 N   0  0  1  0  0  0  0  0  0  0  0  0
  193.4143  181.2082  158.3852 C   0  0  2  0  0  0  0  0  0  0  0  0
  193.8006  183.5999  158.8534 C   0  0  2  0  0  0  0  0  0  0  0  0
  197.7490  184.4923  151.9239 C   0  0  0  0  0  0  0  0  0  0  0  0
  196.8230  183.3469  151.6558 C   0  0  0  0  0  0  0  0  0  0  0  0
  196.0183  183.4610  150.7260 O   0  0  0  0  0  0  0  0  0  0  0  0
  196.9093  182.1906  152.4062 N   0  0  0  0  0  0  0  0  0  0  0  0
  197.7185  182.0001  153.5793 C   0  0  0  0  0  0  0  0  0  0  0  0
  199.0303  182.3732  153.5910 N   0  0  0  0  0  0  0  0  0  0  0  0
  199.6743  182.3259  154.7836 C   0  0  0  0  0  0  0  0  0  0  0  0
  199.1218  181.7569  155.9314 C   0  0  0  0  0  0  0  0  0  0  0  0
  197.8466  181.1813  155.8708 C   0  0  0  0  0  0  0  0  0  0  0  0
  197.1064  181.4019  154.6995 C   0  0  0  0  0  0  0  0  0  0  0  0
  196.2038  181.0040  151.9168 C   0  0  2  0  0  0  0  0  0  0  0  0
  201.8174  188.5352  151.1674 H   0  0  0  0  0  0  0  0  0  0  0  0
  201.3262  188.7177  153.6172 H   0  0  0  0  0  0  0  0  0  0  0  0
  199.7188  187.3230  154.6335 H   0  0  0  0  0  0  0  0  0  0  0  0
  196.7485  184.2374  154.3384 H   0  0  0  0  0  0  0  0  0  0  0  0
  198.5804  186.2083  155.5984 H   0  0  0  0  0  0  0  0  0  0  0  0
  196.8248  186.6035  155.4581 H   0  0  0  0  0  0  0  0  0  0  0  0
  196.1736  183.5113  156.1547 H   0  0  0  0  0  0  0  0  0  0  0  0
  197.1763  183.3895  160.3501 H   0  0  0  0  0  0  0  0  0  0  0  0
  198.5465  185.4561  160.0720 H   0  0  0  0  0  0  0  0  0  0  0  0
  198.7441  186.5180  157.8377 H   0  0  0  0  0  0  0  0  0  0  0  0
  195.8631  181.2962  157.6777 H   0  0  0  0  0  0  0  0  0  0  0  0
  195.8279  181.6377  159.4222 H   0  0  0  0  0  0  0  0  0  0  0  0
  193.5022  180.8939  159.4218 H   0  0  0  0  0  0  0  0  0  0  0  0
  193.7255  180.3615  157.7794 H   0  0  0  0  0  0  0  0  0  0  0  0
  192.3755  181.4130  158.1309 H   0  0  0  0  0  0  0  0  0  0  0  0
  193.9366  183.4727  159.9337 H   0  0  0  0  0  0  0  0  0  0  0  0
  192.7467  183.8137  158.6295 H   0  0  0  0  0  0  0  0  0  0  0  0
  194.3652  184.4962  158.5620 H   0  0  0  0  0  0  0  0  0  0  0  0
  200.6729  182.7703  154.8204 H   0  0  0  0  0  0  0  0  0  0  0  0
  199.6432  181.7622  156.8855 H   0  0  0  0  0  0  0  0  0  0  0  0
  197.4688  180.6274  156.7147 H   0  0  0  0  0  0  0  0  0  0  0  0
  196.0449  181.1764  154.6783 H   0  0  0  0  0  0  0  0  0  0  0  0
  196.2506  180.1581  152.6043 H   0  0  0  0  0  0  0  0  0  0  0  0
  196.6519  180.6734  150.9771 H   0  0  0  0  0  0  0  0  0  0  0  0
  195.1642  181.2024  151.7282 H   0  0  0  0  0  0  0  0  0  0  0  0
  194.1798  182.5947  157.1532 H   0  0  0  0  0  0  0  0  0  0  0  0
  1  2  1  0
  1 21  1  0
  2  3  1  0
  2  7  2  0
  3  4  2  0
  4  5  1  0
  4 32  1  0
  5  6  2  0
  5 33  1  0
  6  7  1  0
  6 34  1  0
  7  8  1  0
  8  9  1  0
  8 21  2  0
  9 10  1  0
  9 35  1  0
 10 11  1  0
 10 36  1  6
 10 37  1  0
 11 12  2  0
 11 16  1  0
 12 13  1  0
 12 38  1  0
 13 14  2  0
 13 17  1  0
 14 15  1  0
 14 39  1  0
 15 16  2  0
 15 40  1  0
 16 41  1  0
 17 18  1  0
 17 42  1  6
 17 43  1  0
 18 19  1  0
 18 20  1  0
 18 57  1  6
 19 44  1  1
 19 45  1  0
 19 46  1  0
 20 47  1  1
 20 48  1  0
 20 49  1  0
 21 22  1  0
 22 23  2  0
 22 24  1  0
 24 25  1  0
 24 31  1  0
 25 26  1  0
 25 30  2  0
 26 27  2  0
 27 28  1  0
 27 50  1  0
 28 29  2  0
 28 51  1  0
 29 30  1  0
 29 52  1  0
 30 53  1  0
 31 54  1  1
 31 55  1  0
 31 56  1  0
M  CHG  1  18   1
M  END
>  <s_epik_cmdline>  (761) 
J2VwaWtfcHl0aG9uJywgJy1waCcsICc3LjAwMDAwMCcsICctcGh0JywgJzIuMDAwMDAwJywgJy1tcycsICcxNicsICctdG4nLCAnOCcsICctbWEnLCAnMjAwJywgJy1pbWFlJywgJzxpbmZpbGUubWFlPicsICctb21hZScsICc8b3V0ZmlsZS5tYWU+Jw==

>  <s_epik_input>  (761) 
W2NIXTFbY0hdW2NIXVtjSF1uYzFOKFtDSDNdKUMoPU8pYyhzMiljKGMoYzIzKVtjSF1bY0hdW2NIXW4zKVtOSF1bQ0gyXWM0W2NIXWMoW2NIXVtjSF1bY0hdNClbQ0gyXU4oW0NIM10pW0NIM10=

>  <s_i_glide_gridfile>  (761) 
ATP-Grid

>  <s_lp_Force_Field>  (761) 
OPLS_2005

>  <s_lp_Variant>  (761) 
rxn512c____EMOL488509____EMOL44845843____EMOL2873214-1

>  <s_lp_label>  (761) 
3088_sdstereoexpander_1_neutralizer_1_epik_1_stereoizer_1

>  <s_m_source_file>  (761) 
ATP-VSW-LIGPREP-002-in.maegz

>  <s_sd_BIOSOLVEIT.INFINISEE\_QUERY\_NAME>  (761) 
Ref-Lig

>  <s_sd_BIOSOLVEIT.INFINISEE\_QUERY\_SMILES>  (761) 
S(c1nc2c(cc1C[NH2+]Cc3ccc(cc3)C[NH+](C)C)cccc2)Cc4ccccc4

>  <s_sd_BIOSOLVEIT.INFINISEE\_REACTION\_NAME>  (761) 
rxn512c

>  <s_sd_BIOSOLVEIT.INFINISEE\_REAGENT1\_NAME>  (761) 
EMOL488509

>  <s_sd_BIOSOLVEIT.INFINISEE\_REAGENT1\_SMILES>  (761) 
n1c(NC)cccc1

>  <s_sd_BIOSOLVEIT.INFINISEE\_REAGENT2\_NAME>  (761) 
EMOL44845843

>  <s_sd_BIOSOLVEIT.INFINISEE\_REAGENT2\_SMILES>  (761) 
ClC=1c2c(SC1C(=O)O)nccc2

>  <s_sd_BIOSOLVEIT.INFINISEE\_REAGENT3\_NAME>  (761) 
EMOL2873214

>  <s_sd_BIOSOLVEIT.INFINISEE\_REAGENT3\_SMILES>  (761) 
N(Cc1cc(ccc1)CN)(C)C

>  <s_sd_BIOSOLVEIT.INFINISEE\_SPACE>  (761) 
eXplore_7tr_2022-12

>  <s_vsw_compound_code>  (761) 
98786

>  <s_vsw_variant>  (761) 
98786-1

>  <r_epik_Charging_Adjusted_Penalty>  (761) 
0.13800592652482199

>  <r_epik_Ionization_Penalty>  (761) 
0.095000000000000001

>  <r_epik_Ionization_Penalty_Charging>  (761) 
0.043099999999999999

>  <r_epik_Ionization_Penalty_Neutral>  (761) 
0.051900000000000002

>  <r_epik_State_Penalty>  (761) 
0.094899999999999998

>  <r_i_docking_score>  (761) 
-4.1395812723486003

>  <r_i_glide_ecoul>  (761) 
-11.1160898208618

>  <r_i_glide_eff_state_penalty>  (761) 
0.094899999999999998

>  <r_i_glide_einternal>  (761) 
5.5896525382995597

>  <r_i_glide_emodel>  (761) 
-59.661173250876999

>  <r_i_glide_energy>  (761) 
-45.182568550109899

>  <r_i_glide_erotb>  (761) 
0.74446679193337595

>  <r_i_glide_esite>  (761) 
-0.14246085239884501

>  <r_i_glide_evdw>  (761) 
-34.066478729247997

>  <r_i_glide_gscore>  (761) 
-4.2344812723486003

>  <r_i_glide_hbond>  (761) 
-0.20000000000000001

>  <r_i_glide_ligand_efficiency>  (761) 
-0.13353487975318101

>  <r_i_glide_ligand_efficiency_ln>  (761) 
-0.93360243984494495

>  <r_i_glide_ligand_efficiency_sa>  (761) 
-0.41948388719588497

>  <r_i_glide_lipo>  (761) 
-0.805946211382365

>  <r_i_glide_metal>  (761) 
-0

>  <r_i_glide_rewards>  (761) 
-0.45980359090909001

>  <r_lp_Energy>  (761) 
39.880643999999997

>  <r_qp_ACxDN^.5/SA>  (761) 
0

>  <r_qp_CIQPlogS>  (761) 
-4.1529999999999996

>  <r_qp_EA(eV)>  (761) 
0.90400000000000003

>  <r_qp_FISA>  (761) 
63.866999999999997

>  <r_qp_FOSA>  (761) 
213.59999999999999

>  <r_qp_IP(eV)>  (761) 
8.2200000000000006

>  <r_qp_Jm>  (761) 
0.17910548235294599

>  <r_qp_PISA>  (761) 
334.72699999999998

>  <r_qp_PSA>  (761) 
62.530999999999999

>  <r_qp_PercentHumanOralAbsorption>  (761) 
85.224999999999994

>  <r_qp_QPPCaco>  (761) 
152.773

>  <r_qp_QPPMDCK>  (761) 
124.98

>  <r_qp_QPlogBB>  (761) 
0.47699999999999998

>  <r_qp_QPlogHERG>  (761) 
-6.5190000000000001

>  <r_qp_QPlogKhsa>  (761) 
0.16700000000000001

>  <r_qp_QPlogKp>  (761) 
-4.9710000000000001

>  <r_qp_QPlogPC16>  (761) 
13.185

>  <r_qp_QPlogPo/w>  (761) 
3.2770000000000001

>  <r_qp_QPlogPoct>  (761) 
19.326000000000001

>  <r_qp_QPlogPw>  (761) 
9.3529999999999998

>  <r_qp_QPlogS>  (761) 
-1.411

>  <r_qp_QPpolrz>  (761) 
43.82

>  <r_qp_SASA>  (761) 
648.09799999999996

>  <r_qp_SAamideO>  (761) 
0

>  <r_qp_SAfluorine>  (761) 
0

>  <r_qp_WPSA>  (761) 
35.904000000000003

>  <r_qp_accptHB>  (761) 
7

>  <r_qp_dip^2/V>  (761) 
0.063177200000000003

>  <r_qp_dipole>  (761) 
8.9969999999999999

>  <r_qp_donorHB>  (761) 
0

>  <r_qp_glob>  (761) 
0.88022420000000001

>  <r_qp_mol_MW>  (761) 
431.55399999999997

>  <r_qp_volume>  (761) 
1281.1610000000001

>  <r_sd_BIOSOLVEIT.INFINISEE\_FTREES\_SIMILARITY>  (761) 
0.90100000000000002

>  <r_sd_BIOSOLVEIT.LOGP>  (761) 
3.2244999999999999

>  <r_sd_BIOSOLVEIT.MOLECULAR\_WEIGHT>  (761) 
432.56799999999998

>  <r_sd_BIOSOLVEIT.TPSA>  (761) 
62.560000000000002

>  <i_epik_Tot_Q>  (761) 
1

>  <i_epik_Tot_abs_Q>  (761) 
1

>  <i_f3d_flags>  (761) 
0

>  <i_i_glide_confnum>  (761) 
3

>  <i_i_glide_lignum>  (761) 
136

>  <i_i_glide_posenum>  (761) 
15

>  <i_i_glide_rotatable_bonds>  (761) 
8

>  <i_lp_mmshare_version>  (761) 
65135

>  <i_m_ct_format>  (761) 
2

>  <i_m_source_file_index>  (761) 
3088

>  <i_qp_#NandO>  (761) 
6

>  <i_qp_#acid>  (761) 
0

>  <i_qp_#amide>  (761) 
0

>  <i_qp_#amidine>  (761) 
0

>  <i_qp_#amine>  (761) 
2

>  <i_qp_#in34>  (761) 
0

>  <i_qp_#in56>  (761) 
21

>  <i_qp_#metab>  (761) 
8

>  <i_qp_#nonHatm>  (761) 
31

>  <i_qp_#noncon>  (761) 
0

>  <i_qp_#ringatoms>  (761) 
21

>  <i_qp_#rotor>  (761) 
7

>  <i_qp_#rtvFG>  (761) 
0

>  <i_qp_#stars>  (761) 
0

>  <i_qp_CNS>  (761) 
2

>  <i_qp_HumanOralAbsorption>  (761) 
3

>  <i_qp_RuleOfFive>  (761) 
0

>  <i_qp_RuleOfThree>  (761) 
1

>  <i_sd_BIOSOLVEIT.INFINISEE\_RESULT\_RANK>  (761) 
95558

>  <i_sd_version>  (761) 
0

>  <b_lp_Chiralities_Consistent>  (761) 
1

>  <b_sd_chiral_flag>  (761) 
0

>  <canonical_id>  (761) 
ATP-HTVS-776FBC5F0312

>  <compound_code>  (761) 
98786

>  <title>  (761) 
rxn512c____EMOL488509____EMOL44845843____EMOL2873214

>  <variant>  (761) 
98786-1

>  <source_file>  (761) 
运行/运行/ATP-VSW/ATP-VSW-DOCK_HTVS_1-003_lib/ATP-VSW-DOCK_HTVS_1-003_lib.mae

>  <canonical_smiles>  (761) 
CN(C(=O)c1sc2ncccc2c1NCc1cccc(C[NH+](C)C)c1)c1ccccn1

>  <scaffold>  (761) 
O=C(Nc1ccccn1)c1sc2ncccc2c1NCc1ccccc1

>  <molecular_formula>  (761) 
C24H26N5OS+

$$$$
ATP-HTVS-77ED8C900CC0
     RDKit          3D

 56 59  0  0  0  0  0  0  0  0999 V2000
  199.7134  185.5579  159.0680 Br  0  0  0  0  0  0  0  0  0  0  0  0
  198.5097  184.5885  157.8022 C   0  0  1  0  0  0  0  0  0  0  0  0
  197.1264  184.4847  158.4376 C   0  0  0  0  0  0  0  0  0  0  0  0
  196.5409  185.5790  159.1189 C   0  0  0  0  0  0  0  0  0  0  0  0
  195.2754  185.4496  159.7197 C   0  0  0  0  0  0  0  0  0  0  0  0
  194.5699  184.2369  159.6242 C   0  0  0  0  0  0  0  0  0  0  0  0
  195.1343  183.1474  158.9313 C   0  0  0  0  0  0  0  0  0  0  0  0
  196.4091  183.2711  158.3437 C   0  0  0  0  0  0  0  0  0  0  0  0
  198.4214  185.2818  156.4359 C   0  0  0  0  0  0  0  0  0  0  0  0
  198.4309  186.5116  156.3798 O   0  0  0  0  0  0  0  0  0  0  0  0
  198.3223  184.4848  155.3517 N   0  0  0  0  0  0  0  0  0  0  0  0
  198.2576  184.8766  153.9826 C   0  0  0  0  0  0  0  0  0  0  0  0
  197.6074  184.0374  153.0304 C   0  0  0  0  0  0  0  0  0  0  0  0
  196.9761  182.8419  153.4206 N   0  0  0  0  0  0  0  0  0  0  0  0
  197.5667  181.7516  154.0702 C   0  0  0  0  0  0  0  0  0  0  0  0
  196.7307  180.7710  154.6232 C   0  0  0  0  0  0  0  0  0  0  0  0
  197.2869  179.6582  155.2874 C   0  0  0  0  0  0  0  0  0  0  0  0
  198.6851  179.5179  155.4101 C   0  0  0  0  0  0  0  0  0  0  0  0
  199.1570  178.3744  156.0848 N   0  0  0  0  0  0  0  0  0  0  0  0
  200.5769  178.1207  156.3324 C   0  0  1  0  0  0  0  0  0  0  0  0
  200.9323  178.4238  157.7890 C   0  0  1  0  0  0  0  0  0  0  0  0
  200.3426  177.4416  158.6132 O   0  0  0  0  0  0  0  0  0  0  0  0
  199.5204  180.5032  154.8430 C   0  0  0  0  0  0  0  0  0  0  0  0
  198.9626  181.6067  154.1739 C   0  0  0  0  0  0  0  0  0  0  0  0
  197.5452  184.4533  151.6759 C   0  0  0  0  0  0  0  0  0  0  0  0
  198.1752  185.6704  151.2996 C   0  0  0  0  0  0  0  0  0  0  0  0
  198.8037  186.4107  152.2312 N   0  0  0  0  0  0  0  0  0  0  0  0
  198.8817  186.0647  153.5258 C   0  0  0  0  0  0  0  0  0  0  0  0
  198.1556  186.1065  149.9678 C   0  0  0  0  0  0  0  0  0  0  0  0
  197.4847  185.3529  148.9860 C   0  0  0  0  0  0  0  0  0  0  0  0
  196.8527  184.1463  149.3426 C   0  0  0  0  0  0  0  0  0  0  0  0
  196.8811  183.6962  150.6774 C   0  0  0  0  0  0  0  0  0  0  0  0
  198.9428  183.5913  157.6854 H   0  0  0  0  0  0  0  0  0  0  0  0
  197.0537  186.5253  159.1846 H   0  0  0  0  0  0  0  0  0  0  0  0
  194.8384  186.2874  160.2412 H   0  0  0  0  0  0  0  0  0  0  0  0
  193.5891  184.1493  160.0690 H   0  0  0  0  0  0  0  0  0  0  0  0
  194.5929  182.2132  158.8481 H   0  0  0  0  0  0  0  0  0  0  0  0
  196.8223  182.4220  157.8134 H   0  0  0  0  0  0  0  0  0  0  0  0
  198.1445  183.5019  155.5218 H   0  0  0  0  0  0  0  0  0  0  0  0
  196.0073  182.7328  153.1227 H   0  0  0  0  0  0  0  0  0  0  0  0
  195.6552  180.8696  154.5509 H   0  0  0  0  0  0  0  0  0  0  0  0
  196.6196  178.9169  155.7095 H   0  0  0  0  0  0  0  0  0  0  0  0
  198.4862  177.9444  156.7301 H   0  0  0  0  0  0  0  0  0  0  0  0
  200.8163  177.0819  156.0902 H   0  0  0  0  0  0  0  0  0  0  0  0
  201.2398  178.7173  155.7026 H   0  0  0  0  0  0  0  0  0  0  0  0
  202.0061  178.3438  157.9300 H   0  0  0  0  0  0  0  0  0  0  0  0
  200.6431  179.4267  158.0957 H   0  0  0  0  0  0  0  0  0  0  0  0
  199.4007  177.5036  158.5160 H   0  0  0  0  0  0  0  0  0  0  0  0
  200.5991  180.4619  154.9032 H   0  0  0  0  0  0  0  0  0  0  0  0
  199.6187  182.3440  153.7349 H   0  0  0  0  0  0  0  0  0  0  0  0
  199.4271  186.7566  154.1518 H   0  0  0  0  0  0  0  0  0  0  0  0
  198.6389  187.0325  149.7000 H   0  0  0  0  0  0  0  0  0  0  0  0
  197.4515  185.6932  147.9605 H   0  0  0  0  0  0  0  0  0  0  0  0
  196.3492  183.5703  148.5783 H   0  0  0  0  0  0  0  0  0  0  0  0
  196.3974  182.7592  150.9188 H   0  0  0  0  0  0  0  0  0  0  0  0
  199.2639  187.2696  151.9340 H   0  0  0  0  0  0  0  0  0  0  0  0
  1  2  1  0
  2  3  1  0
  2  9  1  0
  2 33  1  6
  3  4  2  0
  3  8  1  0
  4  5  1  0
  4 34  1  0
  5  6  2  0
  5 35  1  0
  6  7  1  0
  6 36  1  0
  7  8  2  0
  7 37  1  0
  8 38  1  0
  9 10  2  0
  9 11  1  0
 11 12  1  0
 11 39  1  0
 12 13  2  0
 12 28  1  0
 13 14  1  0
 13 25  1  0
 14 15  1  0
 14 40  1  0
 15 16  1  0
 15 24  2  0
 16 17  2  0
 16 41  1  0
 17 18  1  0
 17 42  1  0
 18 19  1  0
 18 23  2  0
 19 20  1  0
 19 43  1  0
 20 21  1  0
 20 44  1  6
 20 45  1  0
 21 22  1  0
 21 46  1  6
 21 47  1  0
 22 48  1  0
 23 24  1  0
 23 49  1  0
 24 50  1  0
 25 26  1  0
 25 32  2  0
 26 27  1  0
 26 29  2  0
 27 28  2  0
 27 56  1  0
 28 51  1  0
 29 30  1  0
 29 52  1  0
 30 31  2  0
 30 53  1  0
 31 32  1  0
 31 54  1  0
 32 55  1  0
M  CHG  1  27   1
M  END
>  <s_epik_cmdline>  (762) 
J2VwaWtfcHl0aG9uJywgJy1waCcsICc3LjAwMDAwMCcsICctcGh0JywgJzIuMDAwMDAwJywgJy1tcycsICcxNicsICctdG4nLCAnOCcsICctbWEnLCAnMjAwJywgJy1pbWFlJywgJzxpbmZpbGUubWFlPicsICctb21hZScsICc8b3V0ZmlsZS5tYWU+Jw==

>  <s_epik_input>  (762) 
W2NIXTFbY0hdW2NIXVtjSF1bY0hdYzFbQ0BIXShCcilDKD1PKVtOSF1jKFtjSF1uYyhjMjMpW2NIXVtjSF1bY0hdW2NIXTMpYzJbTkhdYzRbY0hdW2NIXWMoW2NIXVtjSF00KVtOSF1bQ0gyXVtDSDJdW09IXQ==

>  <s_i_glide_gridfile>  (762) 
ATP-Grid

>  <s_lp_Force_Field>  (762) 
OPLS_2005

>  <s_lp_Variant>  (762) 
rxn502b____EMOL535380____EMOL30488121____EMOL8314610-4

>  <s_lp_label>  (762) 
2493_sdstereoexpander_2_neutralizer_1_epik_2_stereoizer_1

>  <s_m_source_file>  (762) 
ATP-VSW-LIGPREP-003-in.maegz

>  <s_sd_BIOSOLVEIT.INFINISEE\_QUERY\_NAME>  (762) 
Ref-Lig

>  <s_sd_BIOSOLVEIT.INFINISEE\_QUERY\_SMILES>  (762) 
S(c1nc2c(cc1C[NH2+]Cc3ccc(cc3)C[NH+](C)C)cccc2)Cc4ccccc4

>  <s_sd_BIOSOLVEIT.INFINISEE\_REACTION\_NAME>  (762) 
rxn502b

>  <s_sd_BIOSOLVEIT.INFINISEE\_REAGENT1\_NAME>  (762) 
EMOL535380

>  <s_sd_BIOSOLVEIT.INFINISEE\_REAGENT1\_SMILES>  (762) 
BrC(c1ccccc1)C(=O)O

>  <s_sd_BIOSOLVEIT.INFINISEE\_REAGENT2\_NAME>  (762) 
EMOL30488121

>  <s_sd_BIOSOLVEIT.INFINISEE\_REAGENT2\_SMILES>  (762) 
Brc1c(N)cnc2c1cccc2

>  <s_sd_BIOSOLVEIT.INFINISEE\_REAGENT3\_NAME>  (762) 
EMOL8314610

>  <s_sd_BIOSOLVEIT.INFINISEE\_REAGENT3\_SMILES>  (762) 
OCCNc1ccc(N)cc1

>  <s_sd_BIOSOLVEIT.INFINISEE\_SPACE>  (762) 
eXplore_7tr_2022-12

>  <s_vsw_compound_code>  (762) 
79747

>  <s_vsw_variant>  (762) 
79747-4

>  <r_epik_Charging_Adjusted_Penalty>  (762) 
0.92913805223329704

>  <r_epik_Ionization_Penalty>  (762) 
0.47799999999999998

>  <r_epik_Ionization_Penalty_Charging>  (762) 
0.45119999999999999

>  <r_epik_Ionization_Penalty_Neutral>  (762) 
0.026800000000000001

>  <r_epik_State_Penalty>  (762) 
0.47799999999999998

>  <r_i_docking_score>  (762) 
-4.9084976723352698

>  <r_i_glide_ecoul>  (762) 
-11.091713905334499

>  <r_i_glide_eff_state_penalty>  (762) 
0.47799999999999998

>  <r_i_glide_einternal>  (762) 
8.7675380706787092

>  <r_i_glide_emodel>  (762) 
-63.742287169051501

>  <r_i_glide_energy>  (762) 
-48.980019569397001

>  <r_i_glide_erotb>  (762) 
0.67195920542512

>  <r_i_glide_esite>  (762) 
-0.14543806783416499

>  <r_i_glide_evdw>  (762) 
-37.8883056640625

>  <r_i_glide_gscore>  (762) 
-5.3864976723352704

>  <r_i_glide_hbond>  (762) 
-0.35316278884397201

>  <r_i_glide_ligand_efficiency>  (762) 
-0.15339055226047699

>  <r_i_glide_ligand_efficiency_ln>  (762) 
-1.0991464294290101

>  <r_i_glide_ligand_efficiency_sa>  (762) 
-0.48698464747794301

>  <r_i_glide_lipo>  (762) 
-1.9426058025793

>  <r_i_glide_metal>  (762) 
-0

>  <r_i_glide_rewards>  (762) 
-0.059077849499659801

>  <r_lp_Energy>  (762) 
42.310960999999999

>  <r_qp_ACxDN^.5/SA>  (762) 
0.018005799999999999

>  <r_qp_CIQPlogS>  (762) 
-7.5640000000000001

>  <r_qp_EA(eV)>  (762) 
1.089

>  <r_qp_FISA>  (762) 
118.169

>  <r_qp_FOSA>  (762) 
91.617999999999995

>  <r_qp_IP(eV)>  (762) 
7.7869999999999999

>  <r_qp_Jm>  (762) 
0.092115843390810595

>  <r_qp_PISA>  (762) 
504.42200000000003

>  <r_qp_PSA>  (762) 
88.063999999999993

>  <r_qp_PercentHumanOralAbsorption>  (762) 
100

>  <r_qp_QPPCaco>  (762) 
750.42499999999995

>  <r_qp_QPPMDCK>  (762) 
529.52700000000004

>  <r_qp_QPlogBB>  (762) 
-1.147

>  <r_qp_QPlogHERG>  (762) 
-7.2309999999999999

>  <r_qp_QPlogKhsa>  (762) 
0.42399999999999999

>  <r_qp_QPlogKp>  (762) 
-1.056

>  <r_qp_QPlogPC16>  (762) 
16.390999999999998

>  <r_qp_QPlogPo/w>  (762) 
4.3710000000000004

>  <r_qp_QPlogPoct>  (762) 
26.206

>  <r_qp_QPlogPw>  (762) 
16.228000000000002

>  <r_qp_QPlogS>  (762) 
-5.6710000000000003

>  <r_qp_QPpolrz>  (762) 
47.188000000000002

>  <r_qp_SASA>  (762) 
744.20399999999995

>  <r_qp_SAamideO>  (762) 
0

>  <r_qp_SAfluorine>  (762) 
0

>  <r_qp_WPSA>  (762) 
29.995999999999999

>  <r_qp_accptHB>  (762) 
6.7000000000000002

>  <r_qp_dip^2/V>  (762) 
0.056768600000000002

>  <r_qp_dipole>  (762) 
8.7769999999999992

>  <r_qp_donorHB>  (762) 
4

>  <r_qp_glob>  (762) 
0.79647800000000002

>  <r_qp_mol_MW>  (762) 
491.38600000000002

>  <r_qp_volume>  (762) 
1356.9100000000001

>  <r_sd_BIOSOLVEIT.INFINISEE\_FTREES\_SIMILARITY>  (762) 
0.91400000000000003

>  <r_sd_BIOSOLVEIT.LOGP>  (762) 
5.4573

>  <r_sd_BIOSOLVEIT.MOLECULAR\_WEIGHT>  (762) 
491.387

>  <r_sd_BIOSOLVEIT.TPSA>  (762) 
86.280000000000001

>  <i_epik_Tot_Q>  (762) 
1

>  <i_epik_Tot_abs_Q>  (762) 
1

>  <i_f3d_flags>  (762) 
0

>  <i_i_glide_confnum>  (762) 
10

>  <i_i_glide_lignum>  (762) 
1078

>  <i_i_glide_posenum>  (762) 
4

>  <i_i_glide_rotatable_bonds>  (762) 
10

>  <i_lp_mmshare_version>  (762) 
65135

>  <i_m_ct_format>  (762) 
2

>  <i_m_source_file_index>  (762) 
2493

>  <i_qp_#NandO>  (762) 
6

>  <i_qp_#acid>  (762) 
0

>  <i_qp_#amide>  (762) 
0

>  <i_qp_#amidine>  (762) 
0

>  <i_qp_#amine>  (762) 
0

>  <i_qp_#in34>  (762) 
0

>  <i_qp_#in56>  (762) 
22

>  <i_qp_#metab>  (762) 
8

>  <i_qp_#nonHatm>  (762) 
32

>  <i_qp_#noncon>  (762) 
0

>  <i_qp_#ringatoms>  (762) 
22

>  <i_qp_#rotor>  (762) 
9

>  <i_qp_#rtvFG>  (762) 
1

>  <i_qp_#stars>  (762) 
2

>  <i_qp_CNS>  (762) 
-2

>  <i_qp_HumanOralAbsorption>  (762) 
3

>  <i_qp_RuleOfFive>  (762) 
0

>  <i_qp_RuleOfThree>  (762) 
1

>  <i_sd_BIOSOLVEIT.INFINISEE\_RESULT\_RANK>  (762) 
29862

>  <i_sd_version>  (762) 
0

>  <b_lp_Chiralities_Consistent>  (762) 
1

>  <b_sd_chiral_flag>  (762) 
0

>  <canonical_id>  (762) 
ATP-HTVS-77ED8C900CC0

>  <compound_code>  (762) 
79747

>  <title>  (762) 
rxn502b____EMOL535380____EMOL30488121____EMOL8314610

>  <variant>  (762) 
79747-4

>  <source_file>  (762) 
运行/运行/ATP-VSW/ATP-VSW-DOCK_HTVS_1-003_lib/ATP-VSW-DOCK_HTVS_1-003_lib.mae

>  <canonical_smiles>  (762) 
O=C(Nc1c[nH+]c2ccccc2c1Nc1ccc(NCCO)cc1)[C@@H](Br)c1ccccc1

>  <scaffold>  (762) 
O=C(Cc1ccccc1)Nc1c[nH+]c2ccccc2c1Nc1ccccc1

>  <molecular_formula>  (762) 
C25H24BrN4O2+

$$$$
ATP-HTVS-77F3EA8C01D2
     RDKit          3D

 62 65  0  0  0  0  0  0  0  0999 V2000
  204.8864  182.7970  162.1699 Cl  0  0  0  0  0  0  0  0  0  0  0  0
  204.0647  182.0996  160.8245 C   0  0  0  0  0  0  0  0  0  0  0  0
  202.7155  182.4211  160.5848 C   0  0  0  0  0  0  0  0  0  0  0  0
  202.0443  181.8558  159.4871 C   0  0  0  0  0  0  0  0  0  0  0  0
  202.7079  180.9618  158.6188 C   0  0  0  0  0  0  0  0  0  0  0  0
  204.0620  180.6413  158.8666 C   0  0  0  0  0  0  0  0  0  0  0  0
  204.7374  181.2099  159.9648 C   0  0  0  0  0  0  0  0  0  0  0  0
  202.0017  180.3662  157.4674 C   0  0  0  0  0  0  0  0  0  0  0  0
  200.7450  180.4194  157.2841 N   0  0  0  0  0  0  0  0  0  0  0  0
  200.1451  179.8423  156.1750 N   0  0  0  0  0  0  0  0  0  0  0  0
  200.3616  178.6001  155.7134 C   0  0  0  0  0  0  0  0  0  0  0  0
  199.6249  178.4947  154.5880 N   0  0  0  0  0  0  0  0  0  0  0  0
  198.9364  179.6636  154.3792 C   0  0  0  0  0  0  0  0  0  0  0  0
  198.0627  179.8914  153.2075 C   0  0  0  0  0  0  0  0  0  0  0  0
  197.1844  180.9996  153.1597 C   0  0  0  0  0  0  0  0  0  0  0  0
  196.3482  181.2070  152.0480 C   0  0  0  0  0  0  0  0  0  0  0  0
  196.3711  180.3108  150.9642 C   0  0  0  0  0  0  0  0  0  0  0  0
  197.2475  179.2108  150.9910 C   0  0  0  0  0  0  0  0  0  0  0  0
  198.0868  179.0109  152.1025 C   0  0  0  0  0  0  0  0  0  0  0  0
  199.2433  180.5233  155.4067 C   0  0  0  0  0  0  0  0  0  0  0  0
  201.1424  177.6408  156.2259 N   0  0  0  0  0  0  0  0  0  0  0  0
  201.7319  176.5555  155.5572 C   0  0  0  0  0  0  0  0  0  0  0  0
  202.1468  175.4306  156.2857 C   0  0  0  0  0  0  0  0  0  0  0  0
  202.7558  174.3388  155.6284 C   0  0  0  0  0  0  0  0  0  0  0  0
  202.9340  174.3577  154.2225 C   0  0  0  0  0  0  0  0  0  0  0  0
  202.5026  175.4876  153.4959 C   0  0  0  0  0  0  0  0  0  0  0  0
  201.9447  176.5874  154.1558 C   0  0  0  0  0  0  0  0  0  0  0  0
  203.5921  173.1863  153.4888 C   0  0  2  0  0  0  0  0  0  0  0  0
  204.9200  173.4957  152.9180 N   0  0  0  0  0  0  0  0  0  0  0  0
  205.6377  172.3077  152.4464 C   0  0  2  0  0  0  0  0  0  0  0  0
  204.9042  174.4860  151.8411 C   0  0  2  0  0  0  0  0  0  0  0  0
  202.5999  172.5982  152.4448 C   0  0  1  0  0  0  0  0  0  0  0  0
  201.4990  171.8433  153.0663 N   0  0  2  0  0  0  0  0  0  0  0  0
  200.8974  171.4794  152.3512 H   0  0  0  0  0  0  0  0  0  0  0  0
  200.9878  172.4153  153.7161 H   0  0  0  0  0  0  0  0  0  0  0  0
  202.1932  183.1059  161.2394 H   0  0  0  0  0  0  0  0  0  0  0  0
  201.0110  182.1192  159.3180 H   0  0  0  0  0  0  0  0  0  0  0  0
  204.5896  179.9559  158.2158 H   0  0  0  0  0  0  0  0  0  0  0  0
  205.7728  180.9654  160.1469 H   0  0  0  0  0  0  0  0  0  0  0  0
  202.6324  179.8574  156.7390 H   0  0  0  0  0  0  0  0  0  0  0  0
  197.1332  181.6964  153.9828 H   0  0  0  0  0  0  0  0  0  0  0  0
  195.6781  182.0547  152.0338 H   0  0  0  0  0  0  0  0  0  0  0  0
  195.7222  180.4629  150.1154 H   0  0  0  0  0  0  0  0  0  0  0  0
  197.2738  178.5188  150.1610 H   0  0  0  0  0  0  0  0  0  0  0  0
  198.7473  178.1561  152.0913 H   0  0  0  0  0  0  0  0  0  0  0  0
  198.9378  181.5246  155.6460 H   0  0  0  0  0  0  0  0  0  0  0  0
  201.4414  177.7428  157.1875 H   0  0  0  0  0  0  0  0  0  0  0  0
  201.9931  175.3940  157.3460 H   0  0  0  0  0  0  0  0  0  0  0  0
  203.0840  173.4839  156.2172 H   0  0  0  0  0  0  0  0  0  0  0  0
  202.6571  175.5353  152.4309 H   0  0  0  0  0  0  0  0  0  0  0  0
  201.7147  177.4693  153.5685 H   0  0  0  0  0  0  0  0  0  0  0  0
  203.7853  172.4283  154.2432 H   0  0  0  0  0  0  0  0  0  0  0  0
  205.7085  171.5269  153.2144 H   0  0  0  0  0  0  0  0  0  0  0  0
  206.6485  172.5801  152.1507 H   0  0  0  0  0  0  0  0  0  0  0  0
  205.1785  171.8720  151.5618 H   0  0  0  0  0  0  0  0  0  0  0  0
  204.4864  175.4374  152.1775 H   0  0  0  0  0  0  0  0  0  0  0  0
  204.2955  174.1267  151.0158 H   0  0  0  0  0  0  0  0  0  0  0  0
  205.9254  174.6313  151.4337 H   0  0  0  0  0  0  0  0  0  0  0  0
  202.1819  173.3866  151.8127 H   0  0  0  0  0  0  0  0  0  0  0  0
  203.0860  171.8935  151.7641 H   0  0  0  0  0  0  0  0  0  0  0  0
  201.9439  171.0708  153.5622 H   0  0  0  0  0  0  0  0  0  0  0  0
  199.5874  177.6823  153.9822 H   0  0  0  0  0  0  0  0  0  0  0  0
  1  2  1  0
  2  3  1  0
  2  7  2  0
  3  4  2  0
  3 36  1  0
  4  5  1  0
  4 37  1  0
  5  6  2  0
  5  8  1  0
  6  7  1  0
  6 38  1  0
  7 39  1  0
  8  9  2  0
  8 40  1  0
  9 10  1  0
 10 11  1  0
 10 20  1  0
 11 12  2  0
 11 21  1  0
 12 13  1  0
 12 62  1  0
 13 14  1  0
 13 20  2  0
 14 15  2  0
 14 19  1  0
 15 16  1  0
 15 41  1  0
 16 17  2  0
 16 42  1  0
 17 18  1  0
 17 43  1  0
 18 19  2  0
 18 44  1  0
 19 45  1  0
 20 46  1  0
 21 22  1  0
 21 47  1  0
 22 23  1  0
 22 27  2  0
 23 24  2  0
 23 48  1  0
 24 25  1  0
 24 49  1  0
 25 26  2  0
 25 28  1  0
 26 27  1  0
 26 50  1  0
 27 51  1  0
 28 29  1  0
 28 32  1  0
 28 52  1  1
 29 30  1  0
 29 31  1  0
 30 53  1  1
 30 54  1  0
 30 55  1  0
 31 56  1  1
 31 57  1  0
 31 58  1  0
 32 33  1  0
 32 59  1  6
 32 60  1  0
 33 34  1  6
 33 35  1  0
 33 61  1  0
M  CHG  2  12   1  33   1
M  END
>  <s_epik_Chemistry_Notes>  (763) 
This compound has an imine and may undergo hydrolysis.

>  <s_epik_cmdline>  (763) 
J2VwaWtfcHl0aG9uJywgJy1waCcsICc3LjAwMDAwMCcsICctcGh0JywgJzIuMDAwMDAwJywgJy1tcycsICcxNicsICctdG4nLCAnOCcsICctbWEnLCAnMjAwJywgJy1pbWFlJywgJzxpbmZpbGUubWFlPicsICctb21hZScsICc8b3V0ZmlsZS5tYWU+Jw==

>  <s_epik_input>  (763) 
Q2xjMVtjSF1bY0hdYyhbY0hdW2NIXTEpL1tDSF09Ti9uMmMobmMoW2NIXTIpLWMzW2NIXVtjSF1bY0hdW2NIXVtjSF0zKVtOSF1jNFtjSF1bY0hdYyhbY0hdW2NIXTQpW0NASF0oTihbQ0gzXSlbQ0gzXSlbQ0gyXVtOSDJd

>  <s_i_glide_gridfile>  (763) 
ATP-Grid

>  <s_lp_Force_Field>  (763) 
OPLS_2005

>  <s_lp_Variant>  (763) 
rxn102c____EMOL13081280____EMOL50763906-2

>  <s_lp_label>  (763) 
2506_sdstereoexpander_2_neutralizer_1_epik_1_stereoizer_1

>  <s_m_source_file>  (763) 
ATP-VSW-LIGPREP-002-in.maegz

>  <s_sd_BIOSOLVEIT.INFINISEE\_QUERY\_NAME>  (763) 
Ref-Lig

>  <s_sd_BIOSOLVEIT.INFINISEE\_QUERY\_SMILES>  (763) 
S(c1nc2c(cc1C[NH2+]Cc3ccc(cc3)C[NH+](C)C)cccc2)Cc4ccccc4

>  <s_sd_BIOSOLVEIT.INFINISEE\_REACTION\_NAME>  (763) 
rxn102c

>  <s_sd_BIOSOLVEIT.INFINISEE\_REAGENT1\_NAME>  (763) 
EMOL13081280

>  <s_sd_BIOSOLVEIT.INFINISEE\_REAGENT1\_SMILES>  (763) 
Clc1ccc(cc1)C(N(C)C)CN

>  <s_sd_BIOSOLVEIT.INFINISEE\_REAGENT2\_NAME>  (763) 
EMOL50763906

>  <s_sd_BIOSOLVEIT.INFINISEE\_REAGENT2\_SMILES>  (763) 
Clc1ccc(cc1)C=NN2C(=NC(c3ccccc3)=C2)N

>  <s_sd_BIOSOLVEIT.INFINISEE\_SPACE>  (763) 
eXplore_7tr_2022-12

>  <s_vsw_compound_code>  (763) 
80162

>  <s_vsw_variant>  (763) 
80162-2

>  <r_epik_Charging_Adjusted_Penalty>  (763) 
0.29013998467202901

>  <r_epik_Ionization_Penalty>  (763) 
0.2621

>  <r_epik_Ionization_Penalty_Charging>  (763) 
0.0054999999999999997

>  <r_epik_Ionization_Penalty_Neutral>  (763) 
0.25650000000000001

>  <r_epik_State_Penalty>  (763) 
0.28460000000000002

>  <r_i_docking_score>  (763) 
-4.4687021851467499

>  <r_i_glide_ecoul>  (763) 
-8.8029508590698207

>  <r_i_glide_eff_state_penalty>  (763) 
0.28460000000000002

>  <r_i_glide_einternal>  (763) 
9.4150419235229492

>  <r_i_glide_emodel>  (763) 
-53.670349511610503

>  <r_i_glide_energy>  (763) 
-38.931445121765101

>  <r_i_glide_erotb>  (763) 
0.56839626315579395

>  <r_i_glide_esite>  (763) 
-0.15288688437692299

>  <r_i_glide_evdw>  (763) 
-30.128494262695298

>  <r_i_glide_gscore>  (763) 
-4.7533021851467501

>  <r_i_glide_hbond>  (763) 
-0.20000000000000001

>  <r_i_glide_ligand_efficiency>  (763) 
-0.13541521773171999

>  <r_i_glide_ligand_efficiency_ln>  (763) 
-0.99381622827502603

>  <r_i_glide_ligand_efficiency_sa>  (763) 
-0.43434895917211602

>  <r_i_glide_lipo>  (763) 
-1.63169480083844

>  <r_i_glide_metal>  (763) 
-0

>  <r_i_glide_rewards>  (763) 
-0.51024942109194105

>  <r_lp_Energy>  (763) 
44.531858999999997

>  <r_qp_ACxDN^.5/SA>  (763) 
0.014732200000000001

>  <r_qp_CIQPlogS>  (763) 
-5.0720000000000001

>  <r_qp_EA(eV)>  (763) 
1.052

>  <r_qp_FISA>  (763) 
70.399000000000001

>  <r_qp_FOSA>  (763) 
174.946

>  <r_qp_IP(eV)>  (763) 
8.0069999999999997

>  <r_qp_Jm>  (763) 
0.0015821418316107601

>  <r_qp_PISA>  (763) 
448.65699999999998

>  <r_qp_PSA>  (763) 
62.710999999999999

>  <r_qp_PercentHumanOralAbsorption>  (763) 
90.834999999999994

>  <r_qp_QPPCaco>  (763) 
132.46600000000001

>  <r_qp_QPPMDCK>  (763) 
165.09899999999999

>  <r_qp_QPlogBB>  (763) 
0.25900000000000001

>  <r_qp_QPlogHERG>  (763) 
-8.3450000000000006

>  <r_qp_QPlogKhsa>  (763) 
0.71499999999999997

>  <r_qp_QPlogKp>  (763) 
-4.4980000000000002

>  <r_qp_QPlogPC16>  (763) 
16.315000000000001

>  <r_qp_QPlogPo/w>  (763) 
4.4249999999999998

>  <r_qp_QPlogPoct>  (763) 
24.576000000000001

>  <r_qp_QPlogPw>  (763) 
13.923999999999999

>  <r_qp_QPlogS>  (763) 
-3.9649999999999999

>  <r_qp_QPpolrz>  (763) 
49.335000000000001

>  <r_qp_SASA>  (763) 
764.19799999999998

>  <r_qp_SAamideO>  (763) 
0

>  <r_qp_SAfluorine>  (763) 
0

>  <r_qp_WPSA>  (763) 
70.195999999999998

>  <r_qp_accptHB>  (763) 
6.5

>  <r_qp_dip^2/V>  (763) 
0.0030471000000000001

>  <r_qp_dipole>  (763) 
2.0830000000000002

>  <r_qp_donorHB>  (763) 
3

>  <r_qp_glob>  (763) 
0.80095300000000003

>  <r_qp_mol_MW>  (763) 
458.99200000000002

>  <r_qp_volume>  (763) 
1423.876

>  <r_sd_BIOSOLVEIT.INFINISEE\_FTREES\_SIMILARITY>  (763) 
0.91400000000000003

>  <r_sd_BIOSOLVEIT.LOGP>  (763) 
3.2568000000000001

>  <r_sd_BIOSOLVEIT.MOLECULAR\_WEIGHT>  (763) 
461.00999999999999

>  <r_sd_BIOSOLVEIT.TPSA>  (763) 
74.290000000000006

>  <i_epik_Tot_Q>  (763) 
2

>  <i_epik_Tot_abs_Q>  (763) 
2

>  <i_f3d_flags>  (763) 
0

>  <i_i_glide_confnum>  (763) 
4

>  <i_i_glide_lignum>  (763) 
1094

>  <i_i_glide_posenum>  (763) 
20

>  <i_i_glide_rotatable_bonds>  (763) 
8

>  <i_lp_mmshare_version>  (763) 
65135

>  <i_m_ct_format>  (763) 
2

>  <i_m_source_file_index>  (763) 
2506

>  <i_qp_#NandO>  (763) 
6

>  <i_qp_#acid>  (763) 
0

>  <i_qp_#amide>  (763) 
0

>  <i_qp_#amidine>  (763) 
0

>  <i_qp_#amine>  (763) 
2

>  <i_qp_#in34>  (763) 
0

>  <i_qp_#in56>  (763) 
23

>  <i_qp_#metab>  (763) 
4

>  <i_qp_#nonHatm>  (763) 
33

>  <i_qp_#noncon>  (763) 
0

>  <i_qp_#ringatoms>  (763) 
23

>  <i_qp_#rotor>  (763) 
9

>  <i_qp_#rtvFG>  (763) 
0

>  <i_qp_#stars>  (763) 
0

>  <i_qp_CNS>  (763) 
1

>  <i_qp_HumanOralAbsorption>  (763) 
3

>  <i_qp_RuleOfFive>  (763) 
0

>  <i_qp_RuleOfThree>  (763) 
0

>  <i_sd_BIOSOLVEIT.INFINISEE\_RESULT\_RANK>  (763) 
31326

>  <i_sd_version>  (763) 
0

>  <b_lp_Chiralities_Consistent>  (763) 
1

>  <b_sd_chiral_flag>  (763) 
0

>  <canonical_id>  (763) 
ATP-HTVS-77F3EA8C01D2

>  <compound_code>  (763) 
80162

>  <title>  (763) 
rxn102c____EMOL13081280____EMOL50763906

>  <variant>  (763) 
80162-2

>  <source_file>  (763) 
运行/运行/ATP-VSW/ATP-VSW-DOCK_HTVS_1-002_lib.maegz

>  <canonical_smiles>  (763) 
CN(C)[C@H](C[NH3+])c1ccc(Nc2[nH+]c(-c3ccccc3)cn2/N=C/c2ccc(Cl)cc2)cc1

>  <scaffold>  (763) 
C(=Nn1cc(-c2ccccc2)[nH+]c1Nc1ccccc1)c1ccccc1

>  <molecular_formula>  (763) 
C26H29ClN6+2

$$$$
ATP-HTVS-780990BE0E68
     RDKit          3D

 56 59  0  0  0  0  0  0  0  0999 V2000
  197.5163  184.2612  152.2366 F   0  0  0  0  0  0  0  0  0  0  0  0
  197.1323  182.9620  152.2910 C   0  0  0  0  0  0  0  0  0  0  0  0
  197.0932  182.3465  153.5280 C   0  0  0  0  0  0  0  0  0  0  0  0
  196.7696  180.9771  153.6503 C   0  0  0  0  0  0  0  0  0  0  0  0
  196.3673  180.2526  152.4800 C   0  0  0  0  0  0  0  0  0  0  0  0
  196.3457  180.9146  151.2259 C   0  0  0  0  0  0  0  0  0  0  0  0
  196.7447  182.2699  151.1190 C   0  0  0  0  0  0  0  0  0  0  0  0
  196.7892  180.2449  155.0028 C   0  0  2  0  0  0  0  0  0  0  0  0
  196.5059  181.1537  156.1458 N   0  0  1  0  0  0  0  0  0  0  0  0
  197.6575  182.0033  156.6197 C   0  0  1  0  0  0  0  0  0  0  0  0
  197.0196  183.0428  157.4542 C   0  0  0  0  0  0  0  0  0  0  0  0
  196.5373  183.9325  158.1423 C   0  0  0  0  0  0  0  0  0  0  0  0
  195.9867  184.9194  159.0438 C   0  0  0  0  0  0  0  0  0  0  0  0
  196.6014  186.1595  159.3249 C   0  0  0  0  0  0  0  0  0  0  0  0
  195.9671  187.0320  160.2404 C   0  0  0  0  0  0  0  0  0  0  0  0
  194.7499  186.6210  160.8386 C   0  0  0  0  0  0  0  0  0  0  0  0
  194.1560  185.4541  160.4993 N   0  0  0  0  0  0  0  0  0  0  0  0
  194.7706  184.6073  159.6634 C   0  0  0  0  0  0  0  0  0  0  0  0
  194.1248  187.5258  161.7355 N   0  0  0  0  0  0  0  0  0  0  0  0
  193.1047  187.3380  162.5932 C   0  0  0  0  0  0  0  0  0  0  0  0
  192.6712  186.2343  162.9326 O   0  0  0  0  0  0  0  0  0  0  0  0
  192.5957  188.5846  163.2686 C   0  0  0  0  0  0  0  0  0  0  0  0
  191.9619  188.4973  164.5320 C   0  0  0  0  0  0  0  0  0  0  0  0
  191.4535  189.6536  165.1594 C   0  0  0  0  0  0  0  0  0  0  0  0
  190.8444  189.5689  166.3779 O   0  0  0  0  0  0  0  0  0  0  0  0
  191.5867  190.9067  164.5310 C   0  0  0  0  0  0  0  0  0  0  0  0
  192.2246  191.0067  163.2819 C   0  0  0  0  0  0  0  0  0  0  0  0
  192.7374  189.8564  162.6582 C   0  0  0  0  0  0  0  0  0  0  0  0
  196.5581  188.2864  160.5163 C   0  0  0  0  0  0  0  0  0  0  0  0
  197.7732  188.6506  159.9146 C   0  0  0  0  0  0  0  0  0  0  0  0
  198.4126  187.7731  159.0249 C   0  0  0  0  0  0  0  0  0  0  0  0
  197.8297  186.5311  158.7290 C   0  0  0  0  0  0  0  0  0  0  0  0
  198.0902  179.4514  155.2427 C   0  0  2  0  0  0  0  0  0  0  0  0
  195.6765  181.7110  155.8938 H   0  0  0  0  0  0  0  0  0  0  0  0
  197.2854  183.0497  154.2859 H   0  0  0  0  0  0  0  0  0  0  0  0
  196.0335  179.1938  152.5385 H   0  0  0  0  0  0  0  0  0  0  0  0
  196.0279  180.4078  150.3413 H   0  0  0  0  0  0  0  0  0  0  0  0
  196.7461  182.8295  150.1638 H   0  0  0  0  0  0  0  0  0  0  0  0
  195.9808  179.5043  155.0278 H   0  0  0  0  0  0  0  0  0  0  0  0
  198.3786  181.4049  157.2308 H   0  0  0  0  0  0  0  0  0  0  0  0
  198.2904  182.4956  155.9146 H   0  0  0  0  0  0  0  0  0  0  0  0
  194.2616  183.6676  159.4858 H   0  0  0  0  0  0  0  0  0  0  0  0
  194.4569  188.4777  161.6664 H   0  0  0  0  0  0  0  0  0  0  0  0
  191.8484  187.5356  165.0200 H   0  0  0  0  0  0  0  0  0  0  0  0
  190.8671  188.6928  166.7318 H   0  0  0  0  0  0  0  0  0  0  0  0
  191.2015  191.7984  165.0010 H   0  0  0  0  0  0  0  0  0  0  0  0
  192.3235  191.9606  162.7891 H   0  0  0  0  0  0  0  0  0  0  0  0
  193.1934  189.9537  161.6862 H   0  0  0  0  0  0  0  0  0  0  0  0
  196.1194  188.9879  161.2065 H   0  0  0  0  0  0  0  0  0  0  0  0
  198.2292  189.5964  160.1640 H   0  0  0  0  0  0  0  0  0  0  0  0
  199.3528  188.0555  158.5772 H   0  0  0  0  0  0  0  0  0  0  0  0
  198.3455  185.8766  158.0421 H   0  0  0  0  0  0  0  0  0  0  0  0
  198.2766  178.7313  154.4459 H   0  0  0  0  0  0  0  0  0  0  0  0
  198.0500  178.8917  156.1794 H   0  0  0  0  0  0  0  0  0  0  0  0
  198.9583  180.1119  155.2872 H   0  0  0  0  0  0  0  0  0  0  0  0
  196.1979  180.5345  156.9211 H   0  0  0  0  0  0  0  0  0  0  0  0
  1  2  1  0
  2  3  2  0
  2  7  1  0
  3  4  1  0
  3 35  1  0
  4  5  2  0
  4  8  1  0
  5  6  1  0
  5 36  1  0
  6  7  2  0
  6 37  1  0
  7 38  1  0
  8  9  1  0
  8 33  1  0
  8 39  1  6
  9 10  1  0
  9 34  1  6
  9 56  1  0
 10 11  1  0
 10 40  1  1
 10 41  1  0
 11 12  3  0
 12 13  1  0
 13 14  2  0
 13 18  1  0
 14 15  1  0
 14 32  1  0
 15 16  2  0
 15 29  1  0
 16 17  1  0
 16 19  1  0
 17 18  2  0
 18 42  1  0
 19 20  1  0
 19 43  1  0
 20 21  2  0
 20 22  1  0
 22 23  1  0
 22 28  2  0
 23 24  2  0
 23 44  1  0
 24 25  1  0
 24 26  1  0
 25 45  1  0
 26 27  2  0
 26 46  1  0
 27 28  1  0
 27 47  1  0
 28 48  1  0
 29 30  2  0
 29 49  1  0
 30 31  1  0
 30 50  1  0
 31 32  2  0
 31 51  1  0
 32 52  1  0
 33 53  1  6
 33 54  1  0
 33 55  1  0
M  CHG  1   9   1
M  END
>  <s_epik_cmdline>  (764) 
J2VwaWtfcHl0aG9uJywgJy1waCcsICc3LjAwMDAwMCcsICctcGh0JywgJzIuMDAwMDAwJywgJy1tcycsICcxNicsICctdG4nLCAnOCcsICctbWEnLCAnMjAwJywgJy1pbWFlJywgJzxpbmZpbGUubWFlPicsICctb21hZScsICc8b3V0ZmlsZS5tYWU+Jw==

>  <s_epik_input>  (764) 
RmMxW2NIXWMoW2NIXVtjSF1bY0hdMSlbQ0BASF0oW0NIM10pW05IXVtDSDJdQyNDYzJbY0hdbmMoYyhjMjMpW2NIXVtjSF1bY0hdW2NIXTMpW05IXUMoPU8pYzRbY0hdYyhbT0hdKVtjSF1bY0hdW2NIXTQ=

>  <s_i_glide_gridfile>  (764) 
ATP-Grid

>  <s_lp_Force_Field>  (764) 
OPLS_2005

>  <s_lp_Variant>  (764) 
rxn503b____EMOL519605____EMOL7515103____EMOL317509042-3

>  <s_lp_label>  (764) 
2618_sdstereoexpander_1_neutralizer_1_epik_2_stereoizer_1

>  <s_m_source_file>  (764) 
ATP-VSW-LIGPREP-003-in.maegz

>  <s_sd_BIOSOLVEIT.INFINISEE\_QUERY\_NAME>  (764) 
Ref-Lig

>  <s_sd_BIOSOLVEIT.INFINISEE\_QUERY\_SMILES>  (764) 
S(c1nc2c(cc1C[NH2+]Cc3ccc(cc3)C[NH+](C)C)cccc2)Cc4ccccc4

>  <s_sd_BIOSOLVEIT.INFINISEE\_REACTION\_NAME>  (764) 
rxn503b

>  <s_sd_BIOSOLVEIT.INFINISEE\_REAGENT1\_NAME>  (764) 
EMOL519605

>  <s_sd_BIOSOLVEIT.INFINISEE\_REAGENT1\_SMILES>  (764) 
O=C(O)c1cc(O)ccc1

>  <s_sd_BIOSOLVEIT.INFINISEE\_REAGENT2\_NAME>  (764) 
EMOL7515103

>  <s_sd_BIOSOLVEIT.INFINISEE\_REAGENT2\_SMILES>  (764) 
Brc1c2c(c(nc1)N)cccc2

>  <s_sd_BIOSOLVEIT.INFINISEE\_REAGENT3\_NAME>  (764) 
EMOL317509042

>  <s_sd_BIOSOLVEIT.INFINISEE\_REAGENT3\_SMILES>  (764) 
Fc1cc(ccc1)C(NCC#C)C

>  <s_sd_BIOSOLVEIT.INFINISEE\_SPACE>  (764) 
eXplore_7tr_2022-12

>  <s_vsw_compound_code>  (764) 
83747

>  <s_vsw_variant>  (764) 
83747-3

>  <r_epik_Charging_Adjusted_Penalty>  (764) 
1.26014688583507

>  <r_epik_Ionization_Penalty>  (764) 
0.63260000000000005

>  <r_epik_Ionization_Penalty_Charging>  (764) 
0.62760000000000005

>  <r_epik_Ionization_Penalty_Neutral>  (764) 
0.0050000000000000001

>  <r_epik_State_Penalty>  (764) 
0.63260000000000005

>  <r_i_docking_score>  (764) 
-6.8080311750360698

>  <r_i_glide_ecoul>  (764) 
-12.7041931152344

>  <r_i_glide_eff_state_penalty>  (764) 
0.63260000000000005

>  <r_i_glide_einternal>  (764) 
6.27807664871216

>  <r_i_glide_emodel>  (764) 
-92.053093936602494

>  <r_i_glide_energy>  (764) 
-59.172935485839801

>  <r_i_glide_erotb>  (764) 
0.72034826401853402

>  <r_i_glide_esite>  (764) 
-0.090740604689311499

>  <r_i_glide_evdw>  (764) 
-46.468742370605497

>  <r_i_glide_gscore>  (764) 
-7.4406311750360699

>  <r_i_glide_hbond>  (764) 
-0.54026008402495995

>  <r_i_glide_ligand_efficiency>  (764) 
-0.20630397500109299

>  <r_i_glide_ligand_efficiency_ln>  (764) 
-1.5140708832291401

>  <r_i_glide_ligand_efficiency_sa>  (764) 
-0.66172708145936299

>  <r_i_glide_lipo>  (764) 
-2.4326195912099302

>  <r_i_glide_metal>  (764) 
-0

>  <r_i_glide_rewards>  (764) 
-0.86829307331497596

>  <r_lp_Energy>  (764) 
24.252707999999998

>  <r_lp_tautomer_probability>  (764) 
0.999999999997365

>  <r_qp_ACxDN^.5/SA>  (764) 
0.0121023

>  <r_qp_CIQPlogS>  (764) 
-5.9480000000000004

>  <r_qp_EA(eV)>  (764) 
1.1990000000000001

>  <r_qp_FISA>  (764) 
128.16399999999999

>  <r_qp_FOSA>  (764) 
128.63499999999999

>  <r_qp_IP(eV)>  (764) 
8.3940000000000001

>  <r_qp_Jm>  (764) 
6.4133655119297004e-05

>  <r_qp_PISA>  (764) 
519.16499999999996

>  <r_qp_PSA>  (764) 
80.298000000000002

>  <r_qp_PercentHumanOralAbsorption>  (764) 
94.281999999999996

>  <r_qp_QPPCaco>  (764) 
150.459

>  <r_qp_QPPMDCK>  (764) 
127.748

>  <r_qp_QPlogBB>  (764) 
-0.93799999999999994

>  <r_qp_QPlogHERG>  (764) 
-8.8369999999999997

>  <r_qp_QPlogKhsa>  (764) 
0.86599999999999999

>  <r_qp_QPlogKp>  (764) 
-3.347

>  <r_qp_QPlogPC16>  (764) 
16.818000000000001

>  <r_qp_QPlogPo/w>  (764) 
4.8440000000000003

>  <r_qp_QPlogPoct>  (764) 
25.765000000000001

>  <r_qp_QPlogPw>  (764) 
14.412000000000001

>  <r_qp_QPlogS>  (764) 
-6.4889999999999999

>  <r_qp_QPpolrz>  (764) 
50.957000000000001

>  <r_qp_SASA>  (764) 
822.923

>  <r_qp_SAamideO>  (764) 
0

>  <r_qp_SAfluorine>  (764) 
46.957999999999998

>  <r_qp_WPSA>  (764) 
46.957999999999998

>  <r_qp_accptHB>  (764) 
5.75

>  <r_qp_dip^2/V>  (764) 
0.074619900000000003

>  <r_qp_dipole>  (764) 
10.335000000000001

>  <r_qp_donorHB>  (764) 
3

>  <r_qp_glob>  (764) 
0.74645799999999995

>  <r_qp_mol_MW>  (764) 
439.488

>  <r_qp_volume>  (764) 
1431.5260000000001

>  <r_sd_BIOSOLVEIT.INFINISEE\_FTREES\_SIMILARITY>  (764) 
0.91100000000000003

>  <r_sd_BIOSOLVEIT.LOGP>  (764) 
4.0079000000000002

>  <r_sd_BIOSOLVEIT.MOLECULAR\_WEIGHT>  (764) 
440.49599999999998

>  <r_sd_BIOSOLVEIT.TPSA>  (764) 
78.829999999999998

>  <i_epik_Tot_Q>  (764) 
1

>  <i_epik_Tot_abs_Q>  (764) 
1

>  <i_f3d_flags>  (764) 
0

>  <i_i_glide_confnum>  (764) 
2

>  <i_i_glide_lignum>  (764) 
1192

>  <i_i_glide_posenum>  (764) 
10

>  <i_i_glide_rotatable_bonds>  (764) 
9

>  <i_lp_mmshare_version>  (764) 
65135

>  <i_m_ct_format>  (764) 
2

>  <i_m_source_file_index>  (764) 
2618

>  <i_qp_#NandO>  (764) 
5

>  <i_qp_#acid>  (764) 
0

>  <i_qp_#amide>  (764) 
0

>  <i_qp_#amidine>  (764) 
0

>  <i_qp_#amine>  (764) 
1

>  <i_qp_#in34>  (764) 
0

>  <i_qp_#in56>  (764) 
22

>  <i_qp_#metab>  (764) 
6

>  <i_qp_#nonHatm>  (764) 
33

>  <i_qp_#noncon>  (764) 
0

>  <i_qp_#ringatoms>  (764) 
22

>  <i_qp_#rotor>  (764) 
8

>  <i_qp_#rtvFG>  (764) 
0

>  <i_qp_#stars>  (764) 
2

>  <i_qp_CNS>  (764) 
-1

>  <i_qp_HumanOralAbsorption>  (764) 
1

>  <i_qp_RuleOfFive>  (764) 
0

>  <i_qp_RuleOfThree>  (764) 
1

>  <i_sd_BIOSOLVEIT.INFINISEE\_RESULT\_RANK>  (764) 
43229

>  <i_sd_version>  (764) 
0

>  <b_lp_Chiralities_Consistent>  (764) 
1

>  <b_sd_chiral_flag>  (764) 
0

>  <canonical_id>  (764) 
ATP-HTVS-780990BE0E68

>  <compound_code>  (764) 
83747

>  <title>  (764) 
rxn503b____EMOL519605____EMOL7515103____EMOL317509042

>  <variant>  (764) 
83747-3

>  <source_file>  (764) 
运行/运行/ATP-VSW/ATP-VSW-DOCK_HTVS_1-003_lib/ATP-VSW-DOCK_HTVS_1-003_lib.mae

>  <canonical_smiles>  (764) 
C[C@@H]([NH2+]CC#Cc1cnc(NC(=O)c2cccc(O)c2)c2ccccc12)c1cccc(F)c1

>  <scaffold>  (764) 
O=C(Nc1ncc(C#CC[NH2+]Cc2ccccc2)c2ccccc12)c1ccccc1

>  <molecular_formula>  (764) 
C27H23FN3O2+

$$$$
ATP-HTVS-7820955A714C
     RDKit          3D

 54 57  0  0  0  0  0  0  0  0999 V2000
  198.9865  184.8546  159.3333 F   0  0  0  0  0  0  0  0  0  0  0  0
  197.9799  184.1081  158.8229 C   0  0  0  0  0  0  0  0  0  0  0  0
  198.2488  183.1554  157.8226 C   0  0  0  0  0  0  0  0  0  0  0  0
  197.2130  182.3633  157.2777 C   0  0  0  0  0  0  0  0  0  0  0  0
  195.8932  182.5532  157.7593 C   0  0  0  0  0  0  0  0  0  0  0  0
  195.6240  183.5076  158.7591 C   0  0  0  0  0  0  0  0  0  0  0  0
  196.6669  184.2865  159.2935 C   0  0  0  0  0  0  0  0  0  0  0  0
  197.5325  181.3127  156.2015 C   0  0  2  0  0  0  0  0  0  0  0  0
  196.3856  180.6238  155.7296 O   0  0  0  0  0  0  0  0  0  0  0  0
  198.4852  180.2412  156.7831 C   0  0  1  0  0  0  0  0  0  0  0  0
  198.6921  179.1217  155.8483 N   0  0  1  0  0  0  0  0  0  0  0  0
  199.9824  179.1586  155.1122 C   0  0  1  0  0  0  0  0  0  0  0  0
  199.8424  178.4068  153.8168 C   0  0  0  0  0  0  0  0  0  0  0  0
  200.3214  177.1059  153.4438 C   0  0  0  0  0  0  0  0  0  0  0  0
  199.9574  176.8123  152.2032 N   0  0  0  0  0  0  0  0  0  0  0  0
  199.2336  177.8581  151.7446 N   0  0  0  0  0  0  0  0  0  0  0  0
  198.6491  177.8497  150.4419 C   0  0  0  0  0  0  0  0  0  0  0  0
  198.9383  176.8122  149.5215 C   0  0  0  0  0  0  0  0  0  0  0  0
  198.3523  176.8084  148.2402 C   0  0  0  0  0  0  0  0  0  0  0  0
  197.4677  177.8355  147.8683 C   0  0  0  0  0  0  0  0  0  0  0  0
  197.1637  178.8669  148.7776 C   0  0  0  0  0  0  0  0  0  0  0  0
  197.7530  178.8754  150.0562 C   0  0  0  0  0  0  0  0  0  0  0  0
  199.1706  178.8396  152.7089 C   0  0  0  0  0  0  0  0  0  0  0  0
  201.1009  176.1126  154.2084 C   0  0  0  0  0  0  0  0  0  0  0  0
  201.7079  175.0045  153.5604 C   0  0  0  0  0  0  0  0  0  0  0  0
  202.4486  174.0777  154.3208 C   0  0  0  0  0  0  0  0  0  0  0  0
  202.6425  174.2141  155.6492 N   0  0  0  0  0  0  0  0  0  0  0  0
  202.0548  175.2582  156.2692 C   0  0  0  0  0  0  0  0  0  0  0  0
  201.2584  176.2249  155.6109 C   0  0  0  0  0  0  0  0  0  0  0  0
  198.1366  181.9916  154.9562 C   0  0  2  0  0  0  0  0  0  0  0  0
  198.5724  178.2643  156.3738 H   0  0  0  0  0  0  0  0  0  0  0  0
  199.2660  183.0391  157.4783 H   0  0  0  0  0  0  0  0  0  0  0  0
  195.0713  181.9755  157.3643 H   0  0  0  0  0  0  0  0  0  0  0  0
  194.6126  183.6450  159.1126 H   0  0  0  0  0  0  0  0  0  0  0  0
  196.4624  185.0217  160.0587 H   0  0  0  0  0  0  0  0  0  0  0  0
  196.0180  180.1236  156.4594 H   0  0  0  0  0  0  0  0  0  0  0  0
  199.4394  180.6748  157.0780 H   0  0  0  0  0  0  0  0  0  0  0  0
  198.0496  179.8375  157.6886 H   0  0  0  0  0  0  0  0  0  0  0  0
  200.2303  180.2068  154.8785 H   0  0  0  0  0  0  0  0  0  0  0  0
  200.7857  178.7769  155.7510 H   0  0  0  0  0  0  0  0  0  0  0  0
  199.6117  176.0106  149.7880 H   0  0  0  0  0  0  0  0  0  0  0  0
  198.5756  176.0125  147.5460 H   0  0  0  0  0  0  0  0  0  0  0  0
  197.0128  177.8258  146.8880 H   0  0  0  0  0  0  0  0  0  0  0  0
  196.4770  179.6538  148.5054 H   0  0  0  0  0  0  0  0  0  0  0  0
  197.4949  179.6795  150.7266 H   0  0  0  0  0  0  0  0  0  0  0  0
  198.6463  179.7670  152.5330 H   0  0  0  0  0  0  0  0  0  0  0  0
  201.6100  174.8490  152.5023 H   0  0  0  0  0  0  0  0  0  0  0  0
  202.9025  173.2060  153.8537 H   0  0  0  0  0  0  0  0  0  0  0  0
  202.2063  175.3391  157.3294 H   0  0  0  0  0  0  0  0  0  0  0  0
  200.7997  177.0185  156.1916 H   0  0  0  0  0  0  0  0  0  0  0  0
  199.0873  182.4751  155.1797 H   0  0  0  0  0  0  0  0  0  0  0  0
  197.4614  182.7408  154.5395 H   0  0  0  0  0  0  0  0  0  0  0  0
  198.3201  181.2716  154.1611 H   0  0  0  0  0  0  0  0  0  0  0  0
  197.9112  179.1710  155.2121 H   0  0  0  0  0  0  0  0  0  0  0  0
  1  2  1  0
  2  3  2  0
  2  7  1  0
  3  4  1  0
  3 32  1  0
  4  5  2  0
  4  8  1  0
  5  6  1  0
  5 33  1  0
  6  7  2  0
  6 34  1  0
  7 35  1  0
  8  9  1  6
  8 10  1  0
  8 30  1  0
  9 36  1  0
 10 11  1  0
 10 37  1  1
 10 38  1  0
 11 12  1  0
 11 31  1  1
 11 54  1  0
 12 13  1  0
 12 39  1  6
 12 40  1  0
 13 14  1  0
 13 23  2  0
 14 15  2  0
 14 24  1  0
 15 16  1  0
 16 17  1  0
 16 23  1  0
 17 18  2  0
 17 22  1  0
 18 19  1  0
 18 41  1  0
 19 20  2  0
 19 42  1  0
 20 21  1  0
 20 43  1  0
 21 22  2  0
 21 44  1  0
 22 45  1  0
 23 46  1  0
 24 25  2  0
 24 29  1  0
 25 26  1  0
 25 47  1  0
 26 27  2  0
 26 48  1  0
 27 28  1  0
 28 29  2  0
 28 49  1  0
 29 50  1  0
 30 51  1  1
 30 52  1  0
 30 53  1  0
M  CHG  1  11   1
M  END
>  <s_epik_cmdline>  (765) 
J2VwaWtfcHl0aG9uJywgJy1waCcsICc3LjAwMDAwMCcsICctcGh0JywgJzIuMDAwMDAwJywgJy1tcycsICcxNicsICctdG4nLCAnOCcsICctbWEnLCAnMjAwJywgJy1pbWFlJywgJzxpbmZpbGUubWFlPicsICctb21hZScsICc8b3V0ZmlsZS5tYWU+Jw==

>  <s_epik_input>  (765) 
RmMxW2NIXWMoW2NIXVtjSF1bY0hdMSlbQ0BAXShbT0hdKShbQ0gzXSlbQ0gyXVtOSF1bQ0gyXWMyYygtYzNbY0hdW2NIXW5bY0hdW2NIXTMpbm4oW2NIXTIpLWM0W2NIXVtjSF1bY0hdW2NIXVtjSF00

>  <s_i_glide_gridfile>  (765) 
ATP-Grid

>  <s_lp_Force_Field>  (765) 
OPLS_2005

>  <s_lp_Variant>  (765) 
m_270004bbb____13159934____7547806-2

>  <s_lp_label>  (765) 
1366_sdstereoexpander_2_neutralizer_1_epik_1_stereoizer_1

>  <s_m_source_file>  (765) 
ATP-VSW-LIGPREP-002-in.maegz

>  <s_sd_BIOSOLVEIT.INFINISEE\_QUERY\_NAME>  (765) 
Ref-Lig

>  <s_sd_BIOSOLVEIT.INFINISEE\_QUERY\_SMILES>  (765) 
S(c1nc2c(cc1C[NH2+]Cc3ccc(cc3)C[NH+](C)C)cccc2)Cc4ccccc4

>  <s_sd_BIOSOLVEIT.INFINISEE\_REACTION\_NAME>  (765) 
m_270004bbb

>  <s_sd_BIOSOLVEIT.INFINISEE\_REAGENT1\_SMILES>  (765) 
[R1*]NCC(O)(c1cc(F)ccc1)C

>  <s_sd_BIOSOLVEIT.INFINISEE\_REAGENT2\_SMILES>  (765) 
[R1*]CC=1C(=NN(c2ccccc2)C1)c3ccncc3

>  <s_sd_BIOSOLVEIT.INFINISEE\_SPACE>  (765) 
REALSpace_44bn_2023-08

>  <s_vsw_compound_code>  (765) 
43682

>  <s_vsw_variant>  (765) 
43682-2

>  <r_epik_Charging_Adjusted_Penalty>  (765) 
0.15846101541806601

>  <r_epik_Ionization_Penalty>  (765) 
0.081600000000000006

>  <r_epik_Ionization_Penalty_Charging>  (765) 
0.076899999999999996

>  <r_epik_Ionization_Penalty_Neutral>  (765) 
0.0047000000000000002

>  <r_epik_State_Penalty>  (765) 
0.081600000000000006

>  <r_i_docking_score>  (765) 
-5.3139110247388697

>  <r_i_glide_ecoul>  (765) 
-12.253501892089799

>  <r_i_glide_eff_state_penalty>  (765) 
0.081600000000000006

>  <r_i_glide_einternal>  (765) 
5.3096556663513201

>  <r_i_glide_emodel>  (765) 
-63.154483650894299

>  <r_i_glide_energy>  (765) 
-44.614234924316399

>  <r_i_glide_erotb>  (765) 
0.72365019355933602

>  <r_i_glide_esite>  (765) 
-0.097420406942344898

>  <r_i_glide_evdw>  (765) 
-32.360733032226598

>  <r_i_glide_gscore>  (765) 
-5.3955110247388696

>  <r_i_glide_hbond>  (765) 
-0.253971986010194

>  <r_i_glide_ligand_efficiency>  (765) 
-0.17713036749129599

>  <r_i_glide_ligand_efficiency_ln>  (765) 
-1.2073784845186899

>  <r_i_glide_ligand_efficiency_sa>  (765) 
-0.55038523503651704

>  <r_i_glide_lipo>  (765) 
-1.51890888025103

>  <r_i_glide_metal>  (765) 
-0

>  <r_i_glide_rewards>  (765) 
-0.79279800966983105

>  <r_lp_Energy>  (765) 
15.441134999999999

>  <r_lp_tautomer_probability>  (765) 
1

>  <r_qp_ACxDN^.5/SA>  (765) 
0.010914399999999999

>  <r_qp_CIQPlogS>  (765) 
-5.7450000000000001

>  <r_qp_EA(eV)>  (765) 
0.59599999999999997

>  <r_qp_FISA>  (765) 
79.421999999999997

>  <r_qp_FOSA>  (765) 
119.726

>  <r_qp_IP(eV)>  (765) 
8.8949999999999996

>  <r_qp_Jm>  (765) 
0.084200306056121693

>  <r_qp_PISA>  (765) 
392.04000000000002

>  <r_qp_PSA>  (765) 
56.192

>  <r_qp_PercentHumanOralAbsorption>  (765) 
100

>  <r_qp_QPPCaco>  (765) 
436.15600000000001

>  <r_qp_QPPMDCK>  (765) 
303.22000000000003

>  <r_qp_QPlogBB>  (765) 
-0.014

>  <r_qp_QPlogHERG>  (765) 
-5.9649999999999999

>  <r_qp_QPlogKhsa>  (765) 
0.67500000000000004

>  <r_qp_QPlogKp>  (765) 
-3.089

>  <r_qp_QPlogPC16>  (765) 
13.038

>  <r_qp_QPlogPo/w>  (765) 
4.1580000000000004

>  <r_qp_QPlogPoct>  (765) 
19.812999999999999

>  <r_qp_QPlogPw>  (765) 
10.699999999999999

>  <r_qp_QPlogS>  (765) 
-3.5910000000000002

>  <r_qp_QPpolrz>  (765) 
41.689999999999998

>  <r_qp_SASA>  (765) 
615.47299999999996

>  <r_qp_SAamideO>  (765) 
0

>  <r_qp_SAfluorine>  (765) 
24.285

>  <r_qp_WPSA>  (765) 
24.285

>  <r_qp_accptHB>  (765) 
4.75

>  <r_qp_dip^2/V>  (765) 
0.020194199999999999

>  <r_qp_dipole>  (765) 
4.9189999999999996

>  <r_qp_donorHB>  (765) 
2

>  <r_qp_glob>  (765) 
0.88643919999999998

>  <r_qp_mol_MW>  (765) 
402.47000000000003

>  <r_qp_volume>  (765) 
1198.2270000000001

>  <r_sd_BIOSOLVEIT.INFINISEE\_FTREES\_SIMILARITY>  (765) 
0.90900000000000003

>  <r_sd_BIOSOLVEIT.LOGP>  (765) 
3.0445000000000002

>  <r_sd_BIOSOLVEIT.MOLECULAR\_WEIGHT>  (765) 
403.47899999999998

>  <r_sd_BIOSOLVEIT.TPSA>  (765) 
67.549999999999997

>  <i_epik_Tot_Q>  (765) 
1

>  <i_epik_Tot_abs_Q>  (765) 
1

>  <i_f3d_flags>  (765) 
0

>  <i_i_glide_confnum>  (765) 
2

>  <i_i_glide_lignum>  (765) 
479

>  <i_i_glide_posenum>  (765) 
5

>  <i_i_glide_rotatable_bonds>  (765) 
8

>  <i_lp_mmshare_version>  (765) 
65135

>  <i_m_ct_format>  (765) 
2

>  <i_m_source_file_index>  (765) 
1366

>  <i_qp_#NandO>  (765) 
5

>  <i_qp_#acid>  (765) 
0

>  <i_qp_#amide>  (765) 
0

>  <i_qp_#amidine>  (765) 
0

>  <i_qp_#amine>  (765) 
1

>  <i_qp_#in34>  (765) 
0

>  <i_qp_#in56>  (765) 
23

>  <i_qp_#metab>  (765) 
6

>  <i_qp_#nonHatm>  (765) 
30

>  <i_qp_#noncon>  (765) 
0

>  <i_qp_#ringatoms>  (765) 
23

>  <i_qp_#rotor>  (765) 
6

>  <i_qp_#rtvFG>  (765) 
0

>  <i_qp_#stars>  (765) 
0

>  <i_qp_CNS>  (765) 
1

>  <i_qp_HumanOralAbsorption>  (765) 
3

>  <i_qp_RuleOfFive>  (765) 
0

>  <i_qp_RuleOfThree>  (765) 
0

>  <i_sd_BIOSOLVEIT.INFINISEE\_REAGENT1\_NAME>  (765) 
13159934

>  <i_sd_BIOSOLVEIT.INFINISEE\_REAGENT2\_NAME>  (765) 
7547806

>  <i_sd_BIOSOLVEIT.INFINISEE\_RESULT\_RANK>  (765) 
50507

>  <i_sd_version>  (765) 
0

>  <b_lp_Chiralities_Consistent>  (765) 
1

>  <b_sd_chiral_flag>  (765) 
0

>  <canonical_id>  (765) 
ATP-HTVS-7820955A714C

>  <compound_code>  (765) 
43682

>  <title>  (765) 
m_270004bbb____13159934____7547806

>  <variant>  (765) 
43682-2

>  <source_file>  (765) 
运行/运行/ATP-VSW/ATP-VSW-DOCK_HTVS_1-002_lib.maegz

>  <canonical_smiles>  (765) 
C[C@@](O)(C[NH2+]Cc1cn(-c2ccccc2)nc1-c1ccncc1)c1cccc(F)c1

>  <scaffold>  (765) 
c1ccc(CC[NH2+]Cc2cn(-c3ccccc3)nc2-c2ccncc2)cc1

>  <molecular_formula>  (765) 
C24H24FN4O+

$$$$
ATP-HTVS-78252FECAF69
     RDKit          3D

 57 60  0  0  0  0  0  0  0  0999 V2000
  197.4390  185.3430  159.7588 N   0  0  0  0  0  0  0  0  0  0  0  0
  196.1491  185.0729  159.4668 C   0  0  0  0  0  0  0  0  0  0  0  0
  195.1628  185.9755  159.8922 N   0  0  0  0  0  0  0  0  0  0  0  0
  195.4959  187.1339  160.7146 C   0  0  1  0  0  0  0  0  0  0  0  0
  196.3935  188.1750  160.0098 C   0  0  2  0  0  0  0  0  0  0  0  0
  195.7680  183.9341  158.7330 C   0  0  0  0  0  0  0  0  0  0  0  0
  196.7839  183.0600  158.2871 C   0  0  0  0  0  0  0  0  0  0  0  0
  198.1295  183.3621  158.5570 C   0  0  0  0  0  0  0  0  0  0  0  0
  198.4030  184.5182  159.3052 C   0  0  0  0  0  0  0  0  0  0  0  0
  196.4197  181.8019  157.5426 C   0  0  1  0  0  0  0  0  0  0  0  0
  196.3462  182.0496  156.0906 N   0  0  1  0  0  0  0  0  0  0  0  0
  196.4409  180.8336  155.2634 C   0  0  1  0  0  0  0  0  0  0  0  0
  197.8791  180.5307  154.9531 C   0  0  0  0  0  0  0  0  0  0  0  0
  198.6503  180.8587  153.7921 C   0  0  0  0  0  0  0  0  0  0  0  0
  199.9025  180.4393  153.9190 N   0  0  0  0  0  0  0  0  0  0  0  0
  199.9715  179.8265  155.1209 N   0  0  0  0  0  0  0  0  0  0  0  0
  198.7574  179.8585  155.7612 C   0  0  0  0  0  0  0  0  0  0  0  0
  201.2267  179.2426  155.5754 C   0  0  1  0  0  0  0  0  0  0  0  0
  201.3331  177.7807  155.1756 C   0  0  0  0  0  0  0  0  0  0  0  0
  201.4174  176.7761  156.1632 C   0  0  0  0  0  0  0  0  0  0  0  0
  201.5273  175.4240  155.7871 C   0  0  0  0  0  0  0  0  0  0  0  0
  201.5446  175.0674  154.4252 C   0  0  0  0  0  0  0  0  0  0  0  0
  201.4557  176.0663  153.4364 C   0  0  0  0  0  0  0  0  0  0  0  0
  201.3542  177.4192  153.8110 C   0  0  0  0  0  0  0  0  0  0  0  0
  198.2661  181.5727  152.5576 C   0  0  0  0  0  0  0  0  0  0  0  0
  196.9341  181.5974  152.0739 C   0  0  0  0  0  0  0  0  0  0  0  0
  196.5438  182.2904  150.9792 N   0  0  0  0  0  0  0  0  0  0  0  0
  197.4814  182.9659  150.2838 C   0  0  0  0  0  0  0  0  0  0  0  0
  198.8498  182.9721  150.6334 C   0  0  0  0  0  0  0  0  0  0  0  0
  199.2379  182.2672  151.7961 C   0  0  0  0  0  0  0  0  0  0  0  0
  195.4379  182.4750  155.9202 H   0  0  0  0  0  0  0  0  0  0  0  0
  194.2134  185.8531  159.5609 H   0  0  0  0  0  0  0  0  0  0  0  0
  194.5580  187.6075  160.9989 H   0  0  0  0  0  0  0  0  0  0  0  0
  195.9505  186.7915  161.6446 H   0  0  0  0  0  0  0  0  0  0  0  0
  196.5723  189.0318  160.6612 H   0  0  0  0  0  0  0  0  0  0  0  0
  195.9420  188.5355  159.0872 H   0  0  0  0  0  0  0  0  0  0  0  0
  197.3754  187.7840  159.7448 H   0  0  0  0  0  0  0  0  0  0  0  0
  194.7281  183.7297  158.5097 H   0  0  0  0  0  0  0  0  0  0  0  0
  198.9401  182.7231  158.2235 H   0  0  0  0  0  0  0  0  0  0  0  0
  199.4176  184.7962  159.5422 H   0  0  0  0  0  0  0  0  0  0  0  0
  197.1718  181.0456  157.7698 H   0  0  0  0  0  0  0  0  0  0  0  0
  195.4552  181.4331  157.8924 H   0  0  0  0  0  0  0  0  0  0  0  0
  195.9843  179.9645  155.7410 H   0  0  0  0  0  0  0  0  0  0  0  0
  195.8316  181.0362  154.4075 H   0  0  0  0  0  0  0  0  0  0  0  0
  198.6269  179.4047  156.7370 H   0  0  0  0  0  0  0  0  0  0  0  0
  202.0665  179.8000  155.1539 H   0  0  0  0  0  0  0  0  0  0  0  0
  201.2891  179.3498  156.6613 H   0  0  0  0  0  0  0  0  0  0  0  0
  201.4079  177.0404  157.2108 H   0  0  0  0  0  0  0  0  0  0  0  0
  201.5961  174.6582  156.5441 H   0  0  0  0  0  0  0  0  0  0  0  0
  201.6233  174.0285  154.1404 H   0  0  0  0  0  0  0  0  0  0  0  0
  201.4658  175.7957  152.3909 H   0  0  0  0  0  0  0  0  0  0  0  0
  201.2913  178.1815  153.0475 H   0  0  0  0  0  0  0  0  0  0  0  0
  196.1495  181.0302  152.5436 H   0  0  0  0  0  0  0  0  0  0  0  0
  197.1319  183.4966  149.4017 H   0  0  0  0  0  0  0  0  0  0  0  0
  199.5748  183.4928  150.0229 H   0  0  0  0  0  0  0  0  0  0  0  0
  200.2853  182.2642  152.0777 H   0  0  0  0  0  0  0  0  0  0  0  0
  197.0617  182.7054  155.8201 H   0  0  0  0  0  0  0  0  0  0  0  0
  1  2  1  0
  1  9  2  0
  2  3  1  0
  2  6  2  0
  3  4  1  0
  3 32  1  0
  4  5  1  0
  4 33  1  1
  4 34  1  0
  5 35  1  1
  5 36  1  0
  5 37  1  0
  6  7  1  0
  6 38  1  0
  7  8  2  0
  7 10  1  0
  8  9  1  0
  8 39  1  0
  9 40  1  0
 10 11  1  0
 10 41  1  6
 10 42  1  0
 11 12  1  0
 11 31  1  1
 11 57  1  0
 12 13  1  0
 12 43  1  1
 12 44  1  0
 13 14  1  0
 13 17  2  0
 14 15  2  0
 14 25  1  0
 15 16  1  0
 16 17  1  0
 16 18  1  0
 17 45  1  0
 18 19  1  0
 18 46  1  6
 18 47  1  0
 19 20  2  0
 19 24  1  0
 20 21  1  0
 20 48  1  0
 21 22  2  0
 21 49  1  0
 22 23  1  0
 22 50  1  0
 23 24  2  0
 23 51  1  0
 24 52  1  0
 25 26  2  0
 25 30  1  0
 26 27  1  0
 26 53  1  0
 27 28  2  0
 28 29  1  0
 28 54  1  0
 29 30  2  0
 29 55  1  0
 30 56  1  0
M  CHG  1  11   1
M  END
>  <s_epik_cmdline>  (766) 
J2VwaWtfcHl0aG9uJywgJy1waCcsICc3LjAwMDAwMCcsICctcGh0JywgJzIuMDAwMDAwJywgJy1tcycsICcxNicsICctdG4nLCAnOCcsICctbWEnLCAnMjAwJywgJy1pbWFlJywgJzxpbmZpbGUubWFlPicsICctb21hZScsICc8b3V0ZmlsZS5tYWU+Jw==

>  <s_epik_input>  (766) 
W0NIM11bQ0gyXVtOSF1jMW5bY0hdW2NIXWMoW2NIXTEpW0NIMl1bTkhdW0NIMl1jMmMoLWMzW2NIXW5bY0hdW2NIXVtjSF0zKW5uKFtjSF0yKVtDSDJdYzRbY0hdW2NIXVtjSF1bY0hdW2NIXTQ=

>  <s_i_glide_gridfile>  (766) 
ATP-Grid

>  <s_lp_Force_Field>  (766) 
OPLS_2005

>  <s_lp_Variant>  (766) 
m_270004bbb____23868360____7547868-1

>  <s_lp_label>  (766) 
2143_sdstereoexpander_1_neutralizer_1_epik_1_stereoizer_1

>  <s_m_source_file>  (766) 
ATP-VSW-LIGPREP-003-in.maegz

>  <s_sd_BIOSOLVEIT.INFINISEE\_QUERY\_NAME>  (766) 
Ref-Lig

>  <s_sd_BIOSOLVEIT.INFINISEE\_QUERY\_SMILES>  (766) 
S(c1nc2c(cc1C[NH2+]Cc3ccc(cc3)C[NH+](C)C)cccc2)Cc4ccccc4

>  <s_sd_BIOSOLVEIT.INFINISEE\_REACTION\_NAME>  (766) 
m_270004bbb

>  <s_sd_BIOSOLVEIT.INFINISEE\_REAGENT1\_SMILES>  (766) 
[R1*]NCc1cc(ncc1)NCC

>  <s_sd_BIOSOLVEIT.INFINISEE\_REAGENT2\_SMILES>  (766) 
[R1*]CC=1C(=NN(C1)Cc2ccccc2)c3cnccc3

>  <s_sd_BIOSOLVEIT.INFINISEE\_SPACE>  (766) 
REALSpace_44bn_2023-08

>  <s_vsw_compound_code>  (766) 
68547

>  <s_vsw_variant>  (766) 
68547-1

>  <r_epik_Charging_Adjusted_Penalty>  (766) 
0.31061711746071502

>  <r_epik_Ionization_Penalty>  (766) 
0.21260000000000001

>  <r_epik_Ionization_Penalty_Charging>  (766) 
0.2082

>  <r_epik_Ionization_Penalty_Neutral>  (766) 
0.0044000000000000003

>  <r_epik_State_Penalty>  (766) 
0.1024

>  <r_i_docking_score>  (766) 
-4.8326570531133104

>  <r_i_glide_ecoul>  (766) 
-10.9728136062622

>  <r_i_glide_eff_state_penalty>  (766) 
0.1024

>  <r_i_glide_einternal>  (766) 
2.6930060386657702

>  <r_i_glide_emodel>  (766) 
-63.905597386290999

>  <r_i_glide_energy>  (766) 
-44.910534858703599

>  <r_i_glide_erotb>  (766) 
0.98215838759191099

>  <r_i_glide_esite>  (766) 
-0.094854672479336294

>  <r_i_glide_evdw>  (766) 
-33.937721252441399

>  <r_i_glide_gscore>  (766) 
-4.9350570531133098

>  <r_i_glide_hbond>  (766) 
-0.402974779390812

>  <r_i_glide_ligand_efficiency>  (766) 
-0.16108856843711

>  <r_i_glide_ligand_efficiency_ln>  (766) 
-1.0980323384833499

>  <r_i_glide_ligand_efficiency_sa>  (766) 
-0.50053963561788395

>  <r_i_glide_lipo>  (766) 
-1.3914282034554899

>  <r_i_glide_metal>  (766) 
-0

>  <r_i_glide_rewards>  (766) 
-0.68514968181818003

>  <r_lp_Energy>  (766) 
11.596672999999999

>  <r_qp_ACxDN^.5/SA>  (766) 
0.0108634

>  <r_qp_CIQPlogS>  (766) 
-5.194

>  <r_qp_EA(eV)>  (766) 
0.14399999999999999

>  <r_qp_FISA>  (766) 
72.575999999999993

>  <r_qp_FOSA>  (766) 
234.34700000000001

>  <r_qp_IP(eV)>  (766) 
8.343

>  <r_qp_Jm>  (766) 
0.0030277494180446399

>  <r_qp_PISA>  (766) 
474.16899999999998

>  <r_qp_PSA>  (766) 
64.209000000000003

>  <r_qp_PercentHumanOralAbsorption>  (766) 
100

>  <r_qp_QPPCaco>  (766) 
506.48399999999998

>  <r_qp_QPPMDCK>  (766) 
262.36099999999999

>  <r_qp_QPlogBB>  (766) 
-0.34300000000000003

>  <r_qp_QPlogHERG>  (766) 
-8.2959999999999994

>  <r_qp_QPlogKhsa>  (766) 
0.77500000000000002

>  <r_qp_QPlogKp>  (766) 
-2.4809999999999999

>  <r_qp_QPlogPC16>  (766) 
15.529

>  <r_qp_QPlogPo/w>  (766) 
4.7699999999999996

>  <r_qp_QPlogPoct>  (766) 
22.146000000000001

>  <r_qp_QPlogPw>  (766) 
12.391999999999999

>  <r_qp_QPlogS>  (766) 
-5.6379999999999999

>  <r_qp_QPpolrz>  (766) 
48.375999999999998

>  <r_qp_SASA>  (766) 
781.09100000000001

>  <r_qp_SAamideO>  (766) 
0

>  <r_qp_SAfluorine>  (766) 
0

>  <r_qp_WPSA>  (766) 
0

>  <r_qp_accptHB>  (766) 
6

>  <r_qp_dip^2/V>  (766) 
0.0085672999999999999

>  <r_qp_dipole>  (766) 
3.4359999999999999

>  <r_qp_donorHB>  (766) 
2

>  <r_qp_glob>  (766) 
0.76662059999999999

>  <r_qp_mol_MW>  (766) 
398.50999999999999

>  <r_qp_volume>  (766) 
1377.768

>  <r_sd_BIOSOLVEIT.INFINISEE\_FTREES\_SIMILARITY>  (766) 
0.90100000000000002

>  <r_sd_BIOSOLVEIT.LOGP>  (766) 
3.0838000000000001

>  <r_sd_BIOSOLVEIT.MOLECULAR\_WEIGHT>  (766) 
399.51900000000001

>  <r_sd_BIOSOLVEIT.TPSA>  (766) 
72.239999999999995

>  <i_epik_Tot_Q>  (766) 
1

>  <i_epik_Tot_abs_Q>  (766) 
1

>  <i_f3d_flags>  (766) 
0

>  <i_i_glide_confnum>  (766) 
6

>  <i_i_glide_lignum>  (766) 
796

>  <i_i_glide_posenum>  (766) 
6

>  <i_i_glide_rotatable_bonds>  (766) 
9

>  <i_lp_mmshare_version>  (766) 
65135

>  <i_m_ct_format>  (766) 
2

>  <i_m_source_file_index>  (766) 
2143

>  <i_qp_#NandO>  (766) 
6

>  <i_qp_#acid>  (766) 
0

>  <i_qp_#amide>  (766) 
0

>  <i_qp_#amidine>  (766) 
0

>  <i_qp_#amine>  (766) 
1

>  <i_qp_#in34>  (766) 
0

>  <i_qp_#in56>  (766) 
23

>  <i_qp_#metab>  (766) 
8

>  <i_qp_#nonHatm>  (766) 
30

>  <i_qp_#noncon>  (766) 
0

>  <i_qp_#ringatoms>  (766) 
23

>  <i_qp_#rotor>  (766) 
8

>  <i_qp_#rtvFG>  (766) 
0

>  <i_qp_#stars>  (766) 
1

>  <i_qp_CNS>  (766) 
1

>  <i_qp_HumanOralAbsorption>  (766) 
3

>  <i_qp_RuleOfFive>  (766) 
0

>  <i_qp_RuleOfThree>  (766) 
1

>  <i_sd_BIOSOLVEIT.INFINISEE\_REAGENT1\_NAME>  (766) 
23868360

>  <i_sd_BIOSOLVEIT.INFINISEE\_REAGENT2\_NAME>  (766) 
7547868

>  <i_sd_BIOSOLVEIT.INFINISEE\_RESULT\_RANK>  (766) 
99952

>  <i_sd_version>  (766) 
0

>  <b_lp_Chiralities_Consistent>  (766) 
1

>  <b_sd_chiral_flag>  (766) 
0

>  <canonical_id>  (766) 
ATP-HTVS-78252FECAF69

>  <compound_code>  (766) 
68547

>  <title>  (766) 
m_270004bbb____23868360____7547868

>  <variant>  (766) 
68547-1

>  <source_file>  (766) 
运行/运行/ATP-VSW/ATP-VSW-DOCK_HTVS_1-003_lib/ATP-VSW-DOCK_HTVS_1-003_lib.mae

>  <canonical_smiles>  (766) 
CCNc1cc(C[NH2+]Cc2cn(Cc3ccccc3)nc2-c2cccnc2)ccn1

>  <scaffold>  (766) 
c1ccc(Cn2cc(C[NH2+]Cc3ccncc3)c(-c3cccnc3)n2)cc1

>  <molecular_formula>  (766) 
C24H27N6+

$$$$
ATP-HTVS-792F02E01A4E
     RDKit          3D

 63 66  0  0  0  0  0  0  0  0999 V2000
  197.5415  179.0463  150.3766 O   0  0  0  0  0  0  0  0  0  0  0  0
  198.3774  178.2544  149.9357 C   0  0  0  0  0  0  0  0  0  0  0  0
  198.7380  178.2866  148.6035 N   0  0  0  0  0  0  0  0  0  0  0  0
  199.8569  177.6030  147.9807 C   0  0  0  0  0  0  0  0  0  0  0  0
  199.6869  177.0265  146.6953 C   0  0  0  0  0  0  0  0  0  0  0  0
  200.7315  176.3227  146.0672 C   0  0  0  0  0  0  0  0  0  0  0  0
  201.9463  176.1214  146.7402 C   0  0  0  0  0  0  0  0  0  0  0  0
  202.1358  176.6754  148.0111 C   0  0  0  0  0  0  0  0  0  0  0  0
  201.1232  177.4628  148.6049 C   0  0  0  0  0  0  0  0  0  0  0  0
  197.9330  179.1757  147.7381 C   0  0  1  0  0  0  0  0  0  0  0  0
  196.4959  178.8466  147.7139 C   0  0  0  0  0  0  0  0  0  0  0  0
  195.3701  178.5912  147.7014 N   0  0  0  0  0  0  0  0  0  0  0  0
  199.0705  177.2994  150.8384 C   0  0  0  0  0  0  0  0  0  0  0  0
  198.9492  175.8785  150.4729 C   0  0  0  0  0  0  0  0  0  0  0  0
  198.3004  175.4357  149.5337 O   0  0  0  0  0  0  0  0  0  0  0  0
  199.6619  175.0212  151.2383 N   0  0  0  0  0  0  0  0  0  0  0  0
  200.4901  175.3783  152.3283 C   0  0  0  0  0  0  0  0  0  0  0  0
  200.6108  176.7360  152.6909 C   0  0  0  0  0  0  0  0  0  0  0  0
  201.4739  177.0841  153.7547 C   0  0  0  0  0  0  0  0  0  0  0  0
  202.0944  176.0781  154.5302 C   0  0  0  0  0  0  0  0  0  0  0  0
  201.9578  174.7288  154.1656 C   0  0  0  0  0  0  0  0  0  0  0  0
  201.1783  174.3761  153.0466 C   0  0  0  0  0  0  0  0  0  0  0  0
  199.8232  177.7213  151.8935 C   0  0  0  0  0  0  0  0  0  0  0  0
  199.9299  179.0602  152.2606 N   0  0  0  0  0  0  0  0  0  0  0  0
  199.3432  179.6472  153.3921 C   0  0  0  0  0  0  0  0  0  0  0  0
  198.9807  178.8855  154.5282 C   0  0  0  0  0  0  0  0  0  0  0  0
  198.4567  179.5038  155.6627 C   0  0  0  0  0  0  0  0  0  0  0  0
  198.2058  180.8776  155.6436 C   0  0  0  0  0  0  0  0  0  0  0  0
  198.5229  181.6545  154.5124 C   0  0  0  0  0  0  0  0  0  0  0  0
  199.1135  181.0422  153.3903 C   0  0  0  0  0  0  0  0  0  0  0  0
  197.6155  181.5219  156.8653 C   0  0  1  0  0  0  0  0  0  0  0  0
  196.1510  181.9389  156.6385 C   0  0  1  0  0  0  0  0  0  0  0  0
  195.5493  182.6845  157.7691 N   0  0  1  0  0  0  0  0  0  0  0  0
  195.2496  181.8369  158.9382 C   0  0  2  0  0  0  0  0  0  0  0  0
  196.2894  183.9220  158.1429 C   0  0  2  0  0  0  0  0  0  0  0  0
  198.7455  177.0998  146.1614 H   0  0  0  0  0  0  0  0  0  0  0  0
  200.5682  175.9043  145.0860 H   0  0  0  0  0  0  0  0  0  0  0  0
  202.7293  175.5299  146.2811 H   0  0  0  0  0  0  0  0  0  0  0  0
  203.0492  176.5061  148.5550 H   0  0  0  0  0  0  0  0  0  0  0  0
  201.3508  177.8972  149.5662 H   0  0  0  0  0  0  0  0  0  0  0  0
  198.0457  180.2005  148.0890 H   0  0  0  0  0  0  0  0  0  0  0  0
  198.2658  179.2142  146.7046 H   0  0  0  0  0  0  0  0  0  0  0  0
  199.6553  174.0558  150.9521 H   0  0  0  0  0  0  0  0  0  0  0  0
  201.6079  178.1112  154.0574 H   0  0  0  0  0  0  0  0  0  0  0  0
  202.6654  176.3662  155.4019 H   0  0  0  0  0  0  0  0  0  0  0  0
  202.4374  173.9614  154.7616 H   0  0  0  0  0  0  0  0  0  0  0  0
  201.0738  173.3390  152.7787 H   0  0  0  0  0  0  0  0  0  0  0  0
  199.9906  179.7056  151.4864 H   0  0  0  0  0  0  0  0  0  0  0  0
  199.0974  177.8198  154.5887 H   0  0  0  0  0  0  0  0  0  0  0  0
  198.2564  178.9071  156.5322 H   0  0  0  0  0  0  0  0  0  0  0  0
  198.3234  182.7198  154.5058 H   0  0  0  0  0  0  0  0  0  0  0  0
  199.3573  181.6444  152.5260 H   0  0  0  0  0  0  0  0  0  0  0  0
  197.6630  180.8198  157.7014 H   0  0  0  0  0  0  0  0  0  0  0  0
  198.2780  182.3529  157.0846 H   0  0  0  0  0  0  0  0  0  0  0  0
  196.0694  182.5650  155.7499 H   0  0  0  0  0  0  0  0  0  0  0  0
  195.5518  181.0522  156.4263 H   0  0  0  0  0  0  0  0  0  0  0  0
  196.1543  181.3825  159.3474 H   0  0  0  0  0  0  0  0  0  0  0  0
  194.5608  181.0377  158.6591 H   0  0  0  0  0  0  0  0  0  0  0  0
  194.7777  182.4233  159.7277 H   0  0  0  0  0  0  0  0  0  0  0  0
  197.2703  183.7093  158.5671 H   0  0  0  0  0  0  0  0  0  0  0  0
  195.7510  184.4882  158.8987 H   0  0  0  0  0  0  0  0  0  0  0  0
  196.4276  184.5642  157.2748 H   0  0  0  0  0  0  0  0  0  0  0  0
  194.6528  182.9671  157.3943 H   0  0  0  0  0  0  0  0  0  0  0  0
  1  2  2  0
  2  3  1  0
  2 13  1  0
  3  4  1  0
  3 10  1  0
  4  5  2  0
  4  9  1  0
  5  6  1  0
  5 36  1  0
  6  7  2  0
  6 37  1  0
  7  8  1  0
  7 38  1  0
  8  9  2  0
  8 39  1  0
  9 40  1  0
 10 11  1  0
 10 41  1  1
 10 42  1  0
 11 12  3  0
 13 14  1  0
 13 23  2  0
 14 15  2  0
 14 16  1  0
 16 17  1  0
 16 43  1  0
 17 18  1  0
 17 22  2  0
 18 19  2  0
 18 23  1  0
 19 20  1  0
 19 44  1  0
 20 21  2  0
 20 45  1  0
 21 22  1  0
 21 46  1  0
 22 47  1  0
 23 24  1  0
 24 25  1  0
 24 48  1  0
 25 26  1  0
 25 30  2  0
 26 27  2  0
 26 49  1  0
 27 28  1  0
 27 50  1  0
 28 29  2  0
 28 31  1  0
 29 30  1  0
 29 51  1  0
 30 52  1  0
 31 32  1  0
 31 53  1  1
 31 54  1  0
 32 33  1  0
 32 55  1  6
 32 56  1  0
 33 34  1  0
 33 35  1  0
 33 63  1  6
 34 57  1  1
 34 58  1  0
 34 59  1  0
 35 60  1  1
 35 61  1  0
 35 62  1  0
M  CHG  1  33   1
M  END
>  <s_epik_cmdline>  (767) 
J2VwaWtfcHl0aG9uJywgJy1waCcsICc3LjAwMDAwMCcsICctcGh0JywgJzIuMDAwMDAwJywgJy1tcycsICcxNicsICctdG4nLCAnOCcsICctbWEnLCAnMjAwJywgJy1pbWFlJywgJzxpbmZpbGUubWFlPicsICctb21hZScsICc8b3V0ZmlsZS5tYWU+Jw==

>  <s_epik_input>  (767) 
W2NIXTFbY0hdW2NIXVtjSF1bY0hdYzFOKFtDSDJdQyNOKUMoPU8pYyhjKD1PKVtuSF0yKWMoYyhjMjMpW2NIXVtjSF1bY0hdW2NIXTMpW05IXWM0W2NIXVtjSF1jKFtjSF1bY0hdNClbQ0gyXVtDSDJdTihbQ0gzXSlbQ0gzXQ==

>  <s_i_glide_gridfile>  (767) 
ATP-Grid

>  <s_lp_Force_Field>  (767) 
OPLS_2005

>  <s_lp_Variant>  (767) 
rxn512c____EMOL712348____EMOL43362984____EMOL31232878-1

>  <s_lp_label>  (767) 
2941_sdstereoexpander_1_neutralizer_1_epik_1_stereoizer_1

>  <s_m_source_file>  (767) 
ATP-VSW-LIGPREP-001-in.maegz

>  <s_sd_BIOSOLVEIT.INFINISEE\_QUERY\_NAME>  (767) 
Ref-Lig

>  <s_sd_BIOSOLVEIT.INFINISEE\_QUERY\_SMILES>  (767) 
S(c1nc2c(cc1C[NH2+]Cc3ccc(cc3)C[NH+](C)C)cccc2)Cc4ccccc4

>  <s_sd_BIOSOLVEIT.INFINISEE\_REACTION\_NAME>  (767) 
rxn512c

>  <s_sd_BIOSOLVEIT.INFINISEE\_REAGENT1\_NAME>  (767) 
EMOL712348

>  <s_sd_BIOSOLVEIT.INFINISEE\_REAGENT1\_SMILES>  (767) 
N#CCNc1ccccc1

>  <s_sd_BIOSOLVEIT.INFINISEE\_REAGENT2\_NAME>  (767) 
EMOL43362984

>  <s_sd_BIOSOLVEIT.INFINISEE\_REAGENT2\_SMILES>  (767) 
ClC=1c2c(NC(=O)C1C(=O)O)cccc2

>  <s_sd_BIOSOLVEIT.INFINISEE\_REAGENT3\_NAME>  (767) 
EMOL31232878

>  <s_sd_BIOSOLVEIT.INFINISEE\_REAGENT3\_SMILES>  (767) 
N(CCc1ccc(N)cc1)(C)C

>  <s_sd_BIOSOLVEIT.INFINISEE\_SPACE>  (767) 
eXplore_7tr_2022-12

>  <s_vsw_compound_code>  (767) 
94081

>  <s_vsw_variant>  (767) 
94081-1

>  <r_epik_Charging_Adjusted_Penalty>  (767) 
0.0083897554596531095

>  <r_epik_Ionization_Penalty>  (767) 
0.0041999999999999997

>  <r_epik_Ionization_Penalty_Charging>  (767) 
0.0041999999999999997

>  <r_epik_Ionization_Penalty_Neutral>  (767) 
0

>  <r_epik_State_Penalty>  (767) 
0.0041999999999999997

>  <r_i_docking_score>  (767) 
-2.1315470618729799

>  <r_i_glide_ecoul>  (767) 
-8.7273101806640607

>  <r_i_glide_eff_state_penalty>  (767) 
0.0041999999999999997

>  <r_i_glide_einternal>  (767) 
2.5389208793640101

>  <r_i_glide_emodel>  (767) 
-47.690471621747299

>  <r_i_glide_energy>  (767) 
-40.762134552002003

>  <r_i_glide_erotb>  (767) 
0.64881446491091099

>  <r_i_glide_esite>  (767) 
-0.073121221048839294

>  <r_i_glide_evdw>  (767) 
-32.034824371337898

>  <r_i_glide_gscore>  (767) 
-2.1357470618729799

>  <r_i_glide_hbond>  (767) 
-0.299097439477713

>  <r_i_glide_ligand_efficiency>  (767) 
-0.060901344624942302

>  <r_i_glide_ligand_efficiency_ln>  (767) 
-0.46792188721931699

>  <r_i_glide_ligand_efficiency_sa>  (767) 
-0.19921233641174399

>  <r_i_glide_lipo>  (767) 
-0.720539246925048

>  <r_i_glide_metal>  (767) 
-0

>  <r_i_glide_rewards>  (767) 
1.2190341263342099

>  <r_lp_Energy>  (767) 
71.314278000000002

>  <r_qp_ACxDN^.5/SA>  (767) 
0

>  <r_qp_CIQPlogS>  (767) 
-6.7519999999999998

>  <r_qp_EA(eV)>  (767) 
1.1459999999999999

>  <r_qp_FISA>  (767) 
133.89099999999999

>  <r_qp_FOSA>  (767) 
253.613

>  <r_qp_IP(eV)>  (767) 
8.3100000000000005

>  <r_qp_Jm>  (767) 
0.00013029940522724399

>  <r_qp_PISA>  (767) 
416.06099999999998

>  <r_qp_PSA>  (767) 
100.27500000000001

>  <r_qp_PercentHumanOralAbsorption>  (767) 
90.460999999999999

>  <r_qp_QPPCaco>  (767) 
132.773

>  <r_qp_QPPMDCK>  (767) 
61.718000000000004

>  <r_qp_QPlogBB>  (767) 
-1.036

>  <r_qp_QPlogHERG>  (767) 
-7.7530000000000001

>  <r_qp_QPlogKhsa>  (767) 
0.53800000000000003

>  <r_qp_QPlogKp>  (767) 
-3.7200000000000002

>  <r_qp_QPlogPC16>  (767) 
15.997

>  <r_qp_QPlogPo/w>  (767) 
4.3579999999999997

>  <r_qp_QPlogPoct>  (767) 
22.443999999999999

>  <r_qp_QPlogPw>  (767) 
10.795999999999999

>  <r_qp_QPlogS>  (767) 
-5.8330000000000002

>  <r_qp_QPpolrz>  (767) 
51.43

>  <r_qp_SASA>  (767) 
803.56500000000005

>  <r_qp_SAamideO>  (767) 
0

>  <r_qp_SAfluorine>  (767) 
0

>  <r_qp_WPSA>  (767) 
0

>  <r_qp_accptHB>  (767) 
7.5

>  <r_qp_dip^2/V>  (767) 
0.083893700000000002

>  <r_qp_dipole>  (767) 
11.157999999999999

>  <r_qp_donorHB>  (767) 
0

>  <r_qp_glob>  (767) 
0.78300950000000002

>  <r_qp_mol_MW>  (767) 
465.55399999999997

>  <r_qp_volume>  (767) 
1484.002

>  <r_sd_BIOSOLVEIT.INFINISEE\_FTREES\_SIMILARITY>  (767) 
0.90400000000000003

>  <r_sd_BIOSOLVEIT.LOGP>  (767) 
3.1290800000000001

>  <r_sd_BIOSOLVEIT.MOLECULAR\_WEIGHT>  (767) 
466.56200000000001

>  <r_sd_BIOSOLVEIT.TPSA>  (767) 
93.430000000000007

>  <i_epik_Tot_Q>  (767) 
1

>  <i_epik_Tot_abs_Q>  (767) 
1

>  <i_f3d_flags>  (767) 
0

>  <i_i_glide_confnum>  (767) 
5

>  <i_i_glide_lignum>  (767) 
1389

>  <i_i_glide_posenum>  (767) 
5

>  <i_i_glide_rotatable_bonds>  (767) 
9

>  <i_lp_mmshare_version>  (767) 
65135

>  <i_m_ct_format>  (767) 
2

>  <i_m_source_file_index>  (767) 
2941

>  <i_qp_#NandO>  (767) 
7

>  <i_qp_#acid>  (767) 
0

>  <i_qp_#amide>  (767) 
0

>  <i_qp_#amidine>  (767) 
0

>  <i_qp_#amine>  (767) 
1

>  <i_qp_#in34>  (767) 
0

>  <i_qp_#in56>  (767) 
22

>  <i_qp_#metab>  (767) 
5

>  <i_qp_#nonHatm>  (767) 
35

>  <i_qp_#noncon>  (767) 
0

>  <i_qp_#ringatoms>  (767) 
22

>  <i_qp_#rotor>  (767) 
9

>  <i_qp_#rtvFG>  (767) 
0

>  <i_qp_#stars>  (767) 
0

>  <i_qp_CNS>  (767) 
-2

>  <i_qp_HumanOralAbsorption>  (767) 
3

>  <i_qp_RuleOfFive>  (767) 
0

>  <i_qp_RuleOfThree>  (767) 
1

>  <i_sd_BIOSOLVEIT.INFINISEE\_RESULT\_RANK>  (767) 
79236

>  <i_sd_version>  (767) 
0

>  <b_lp_Chiralities_Consistent>  (767) 
1

>  <b_sd_chiral_flag>  (767) 
0

>  <canonical_id>  (767) 
ATP-HTVS-792F02E01A4E

>  <compound_code>  (767) 
94081

>  <title>  (767) 
rxn512c____EMOL712348____EMOL43362984____EMOL31232878

>  <variant>  (767) 
94081-1

>  <source_file>  (767) 
运行/运行/ATP-VSW/ATP-VSW-DOCK_HTVS_1-001_lib/ATP-VSW-DOCK_HTVS_1-001_lib

>  <canonical_smiles>  (767) 
C[NH+](C)CCc1ccc(Nc2c(C(=O)N(CC#N)c3ccccc3)c(=O)[nH]c3ccccc23)cc1

>  <scaffold>  (767) 
O=C(Nc1ccccc1)c1c(Nc2ccccc2)c2ccccc2[nH]c1=O

>  <molecular_formula>  (767) 
C28H28N5O2+

$$$$
ATP-HTVS-794646D3B9C8
     RDKit          3D

 65 69  0  0  0  0  0  0  0  0999 V2000
  196.5706  182.1822  158.9323 F   0  0  0  0  0  0  0  0  0  0  0  0
  196.9249  182.6438  157.7118 C   0  0  0  0  0  0  0  0  0  0  0  0
  197.1976  181.7487  156.6701 C   0  0  0  0  0  0  0  0  0  0  0  0
  197.5525  182.2159  155.3805 C   0  0  0  0  0  0  0  0  0  0  0  0
  197.6648  183.6242  155.1496 C   0  0  0  0  0  0  0  0  0  0  0  0
  198.0747  184.1890  153.9249 N   0  0  0  0  0  0  0  0  0  0  0  0
  197.3956  185.3544  153.3676 C   0  0  1  0  0  0  0  0  0  0  0  0
  198.4209  186.4584  153.0272 C   0  0  1  0  0  0  0  0  0  0  0  0
  199.5277  185.9274  152.1972 N   0  0  2  0  0  0  0  0  0  0  0  0
  200.2154  184.7871  152.8453 C   0  0  1  0  0  0  0  0  0  0  0  0
  199.2184  183.6701  153.1825 C   0  0  1  0  0  0  0  0  0  0  0  0
  200.4775  186.9863  151.8004 C   0  0  2  0  0  0  0  0  0  0  0  0
  197.3803  184.5055  156.2206 C   0  0  0  0  0  0  0  0  0  0  0  0
  197.0068  184.0226  157.4894 C   0  0  0  0  0  0  0  0  0  0  0  0
  197.7338  181.1848  154.2958 C   0  0  0  0  0  0  0  0  0  0  0  0
  197.2067  181.3284  153.1929 O   0  0  0  0  0  0  0  0  0  0  0  0
  198.5442  180.1695  154.6452 N   0  0  0  0  0  0  0  0  0  0  0  0
  199.0399  179.1010  153.8579 C   0  0  0  0  0  0  0  0  0  0  0  0
  198.6897  178.9313  152.5564 N   0  0  0  0  0  0  0  0  0  0  0  0
  199.1429  177.8699  151.8582 C   0  0  0  0  0  0  0  0  0  0  0  0
  200.0124  176.9204  152.4398 C   0  0  0  0  0  0  0  0  0  0  0  0
  200.4168  177.1089  153.7745 C   0  0  0  0  0  0  0  0  0  0  0  0
  199.9366  178.2143  154.5141 C   0  0  0  0  0  0  0  0  0  0  0  0
  200.3308  178.3886  155.8698 N   0  0  0  0  0  0  0  0  0  0  0  0
  201.1488  179.4341  156.3749 C   0  0  0  0  0  0  0  0  0  0  0  0
  201.5859  180.4897  155.5275 C   0  0  0  0  0  0  0  0  0  0  0  0
  202.3849  181.5465  156.0178 C   0  0  0  0  0  0  0  0  0  0  0  0
  202.7789  181.5641  157.3697 C   0  0  0  0  0  0  0  0  0  0  0  0
  202.3620  180.5247  158.2207 C   0  0  0  0  0  0  0  0  0  0  0  0
  201.5617  179.4709  157.7336 C   0  0  0  0  0  0  0  0  0  0  0  0
  200.0480  177.2307  156.7320 C   0  0  1  0  0  0  0  0  0  0  0  0
  201.1176  176.2224  156.6593 C   0  0  0  0  0  0  0  0  0  0  0  0
  201.9550  175.4302  156.5791 N   0  0  0  0  0  0  0  0  0  0  0  0
  200.4660  175.8004  151.7114 C   0  0  0  0  0  0  0  0  0  0  0  0
  200.0449  175.6168  150.3814 C   0  0  0  0  0  0  0  0  0  0  0  0
  199.1716  176.5477  149.7898 C   0  0  0  0  0  0  0  0  0  0  0  0
  198.7250  177.6629  150.5259 C   0  0  0  0  0  0  0  0  0  0  0  0
  197.1057  180.6896  156.8698 H   0  0  0  0  0  0  0  0  0  0  0  0
  196.8742  185.0326  152.4656 H   0  0  0  0  0  0  0  0  0  0  0  0
  196.6150  185.7371  154.0298 H   0  0  0  0  0  0  0  0  0  0  0  0
  197.9473  187.2897  152.4986 H   0  0  0  0  0  0  0  0  0  0  0  0
  198.8229  186.8651  153.9557 H   0  0  0  0  0  0  0  0  0  0  0  0
  201.0083  184.3919  152.2043 H   0  0  0  0  0  0  0  0  0  0  0  0
  200.6898  185.1234  153.7672 H   0  0  0  0  0  0  0  0  0  0  0  0
  199.7411  182.8984  153.7498 H   0  0  0  0  0  0  0  0  0  0  0  0
  198.8564  183.2075  152.2612 H   0  0  0  0  0  0  0  0  0  0  0  0
  201.0040  187.3731  152.6762 H   0  0  0  0  0  0  0  0  0  0  0  0
  199.9644  187.8242  151.3188 H   0  0  0  0  0  0  0  0  0  0  0  0
  201.2235  186.6041  151.0960 H   0  0  0  0  0  0  0  0  0  0  0  0
  197.4485  185.5749  156.0871 H   0  0  0  0  0  0  0  0  0  0  0  0
  196.7862  184.7076  158.2949 H   0  0  0  0  0  0  0  0  0  0  0  0
  198.9050  180.1830  155.5871 H   0  0  0  0  0  0  0  0  0  0  0  0
  201.0998  176.3926  154.2003 H   0  0  0  0  0  0  0  0  0  0  0  0
  201.3138  180.5128  154.4820 H   0  0  0  0  0  0  0  0  0  0  0  0
  202.7000  182.3460  155.3561 H   0  0  0  0  0  0  0  0  0  0  0  0
  203.4032  182.3625  157.7515 H   0  0  0  0  0  0  0  0  0  0  0  0
  202.6680  180.5187  159.2550 H   0  0  0  0  0  0  0  0  0  0  0  0
  201.2950  178.6943  158.4383 H   0  0  0  0  0  0  0  0  0  0  0  0
  199.8971  177.4981  157.7778 H   0  0  0  0  0  0  0  0  0  0  0  0
  199.1248  176.7513  156.3967 H   0  0  0  0  0  0  0  0  0  0  0  0
  201.1316  175.0802  152.1647 H   0  0  0  0  0  0  0  0  0  0  0  0
  200.3918  174.7626  149.8149 H   0  0  0  0  0  0  0  0  0  0  0  0
  198.8449  176.4072  148.7690 H   0  0  0  0  0  0  0  0  0  0  0  0
  198.0453  178.3700  150.0752 H   0  0  0  0  0  0  0  0  0  0  0  0
  199.1068  185.5683  151.3544 H   0  0  0  0  0  0  0  0  0  0  0  0
  1  2  1  0
  2  3  2  0
  2 14  1  0
  3  4  1  0
  3 38  1  0
  4  5  2  0
  4 15  1  0
  5  6  1  0
  5 13  1  0
  6  7  1  0
  6 11  1  0
  7  8  1  0
  7 39  1  6
  7 40  1  0
  8  9  1  0
  8 41  1  6
  8 42  1  0
  9 10  1  0
  9 12  1  0
  9 65  1  6
 10 11  1  0
 10 43  1  6
 10 44  1  0
 11 45  1  1
 11 46  1  0
 12 47  1  1
 12 48  1  0
 12 49  1  0
 13 14  2  0
 13 50  1  0
 14 51  1  0
 15 16  2  0
 15 17  1  0
 17 18  1  0
 17 52  1  0
 18 19  2  0
 18 23  1  0
 19 20  1  0
 20 21  1  0
 20 37  2  0
 21 22  1  0
 21 34  2  0
 22 23  2  0
 22 53  1  0
 23 24  1  0
 24 25  1  0
 24 31  1  0
 25 26  2  0
 25 30  1  0
 26 27  1  0
 26 54  1  0
 27 28  2  0
 27 55  1  0
 28 29  1  0
 28 56  1  0
 29 30  2  0
 29 57  1  0
 30 58  1  0
 31 32  1  0
 31 59  1  1
 31 60  1  0
 32 33  3  0
 34 35  1  0
 34 61  1  0
 35 36  2  0
 35 62  1  0
 36 37  1  0
 36 63  1  0
 37 64  1  0
M  CHG  1   9   1
M  END
>  <s_epik_cmdline>  (768) 
J2VwaWtfcHl0aG9uJywgJy1waCcsICc3LjAwMDAwMCcsICctcGh0JywgJzIuMDAwMDAwJywgJy1tcycsICcxNicsICctdG4nLCAnOCcsICctbWEnLCAnMjAwJywgJy1pbWFlJywgJzxpbmZpbGUubWFlPicsICctb21hZScsICc8b3V0ZmlsZS5tYWU+Jw==

>  <s_epik_input>  (768) 
W0NIMl0xW0NIMl1OKFtDSDNdKVtDSDJdW0NIMl1OMWMoW2NIXVtjSF0yKWMoW2NIXWMyRilDKD1PKVtOSF1jKG4zKWMoW2NIXWMoYzM0KVtjSF1bY0hdW2NIXVtjSF00KU4oW0NIMl1DI04pYzVbY0hdW2NIXVtjSF1bY0hdW2NIXTU=

>  <s_i_glide_gridfile>  (768) 
ATP-Grid

>  <s_lp_Force_Field>  (768) 
OPLS_2005

>  <s_lp_Variant>  (768) 
rxn502b____EMOL30151713____EMOL44466703____EMOL712348-1

>  <s_lp_label>  (768) 
2864_sdstereoexpander_1_neutralizer_1_epik_1_stereoizer_1

>  <s_m_source_file>  (768) 
ATP-VSW-LIGPREP-001-in.maegz

>  <s_sd_BIOSOLVEIT.INFINISEE\_QUERY\_NAME>  (768) 
Ref-Lig

>  <s_sd_BIOSOLVEIT.INFINISEE\_QUERY\_SMILES>  (768) 
S(c1nc2c(cc1C[NH2+]Cc3ccc(cc3)C[NH+](C)C)cccc2)Cc4ccccc4

>  <s_sd_BIOSOLVEIT.INFINISEE\_REACTION\_NAME>  (768) 
rxn502b

>  <s_sd_BIOSOLVEIT.INFINISEE\_REAGENT1\_NAME>  (768) 
EMOL30151713

>  <s_sd_BIOSOLVEIT.INFINISEE\_REAGENT1\_SMILES>  (768) 
Fc1cc(c(N2CCN(CC2)C)cc1)C(=O)O

>  <s_sd_BIOSOLVEIT.INFINISEE\_REAGENT2\_NAME>  (768) 
EMOL44466703

>  <s_sd_BIOSOLVEIT.INFINISEE\_REAGENT2\_SMILES>  (768) 
Brc1c(nc2c(c1)cccc2)N

>  <s_sd_BIOSOLVEIT.INFINISEE\_REAGENT3\_NAME>  (768) 
EMOL712348

>  <s_sd_BIOSOLVEIT.INFINISEE\_REAGENT3\_SMILES>  (768) 
N#CCNc1ccccc1

>  <s_sd_BIOSOLVEIT.INFINISEE\_SPACE>  (768) 
eXplore_7tr_2022-12

>  <s_vsw_compound_code>  (768) 
91617

>  <s_vsw_variant>  (768) 
91617-1

>  <r_epik_Charging_Adjusted_Penalty>  (768) 
0.139142692159267

>  <r_epik_Ionization_Penalty>  (768) 
0.069599999999999995

>  <r_epik_Ionization_Penalty_Charging>  (768) 
0.069599999999999995

>  <r_epik_Ionization_Penalty_Neutral>  (768) 
0

>  <r_epik_State_Penalty>  (768) 
0.069599999999999995

>  <r_i_docking_score>  (768) 
-2.75290965763502

>  <r_i_glide_ecoul>  (768) 
-3.3189065456390399

>  <r_i_glide_eff_state_penalty>  (768) 
0.069599999999999995

>  <r_i_glide_einternal>  (768) 
1.0574748516082799

>  <r_i_glide_emodel>  (768) 
-45.538827285432298

>  <r_i_glide_energy>  (768) 
-37.299199819564798

>  <r_i_glide_erotb>  (768) 
0.49805638631555599

>  <r_i_glide_esite>  (768) 
-0.122006287948836

>  <r_i_glide_evdw>  (768) 
-33.980293273925803

>  <r_i_glide_gscore>  (768) 
-2.8225096576350199

>  <r_i_glide_hbond>  (768) 
0

>  <r_i_glide_ligand_efficiency>  (768) 
-0.074402963719865295

>  <r_i_glide_ligand_efficiency_ln>  (768) 
-0.59704156738203695

>  <r_i_glide_ligand_efficiency_sa>  (768) 
-0.24792718123614099

>  <r_i_glide_lipo>  (768) 
-0.61928344933407797

>  <r_i_glide_metal>  (768) 
-0

>  <r_i_glide_rewards>  (768) 
-0.38242566112551202

>  <r_lp_Energy>  (768) 
59.750323000000002

>  <r_qp_ACxDN^.5/SA>  (768) 
0.0109932

>  <r_qp_CIQPlogS>  (768) 
-7.2199999999999998

>  <r_qp_EA(eV)>  (768) 
1.1319999999999999

>  <r_qp_FISA>  (768) 
106.252

>  <r_qp_FOSA>  (768) 
204.35300000000001

>  <r_qp_IP(eV)>  (768) 
8.6120000000000001

>  <r_qp_Jm>  (768) 
0.000117356359909216

>  <r_qp_PISA>  (768) 
415.63499999999999

>  <r_qp_PSA>  (768) 
74.290000000000006

>  <r_qp_PercentHumanOralAbsorption>  (768) 
95.484999999999999

>  <r_qp_QPPCaco>  (768) 
242.77699999999999

>  <r_qp_QPPMDCK>  (768) 
214.28999999999999

>  <r_qp_QPlogBB>  (768) 
-0.35599999999999998

>  <r_qp_QPlogHERG>  (768) 
-7.2670000000000003

>  <r_qp_QPlogKhsa>  (768) 
0.68300000000000005

>  <r_qp_QPlogKp>  (768) 
-3.5

>  <r_qp_QPlogPC16>  (768) 
15.552

>  <r_qp_QPlogPo/w>  (768) 
4.415

>  <r_qp_QPlogPoct>  (768) 
24.539999999999999

>  <r_qp_QPlogPw>  (768) 
13.66

>  <r_qp_QPlogS>  (768) 
-6.125

>  <r_qp_QPpolrz>  (768) 
53.267000000000003

>  <r_qp_SASA>  (768) 
773.20799999999997

>  <r_qp_SAamideO>  (768) 
0

>  <r_qp_SAfluorine>  (768) 
46.968000000000004

>  <r_qp_WPSA>  (768) 
46.968000000000004

>  <r_qp_accptHB>  (768) 
8.5

>  <r_qp_dip^2/V>  (768) 
0.019502800000000001

>  <r_qp_dipole>  (768) 
5.3760000000000003

>  <r_qp_donorHB>  (768) 
1

>  <r_qp_glob>  (768) 
0.81297240000000004

>  <r_qp_mol_MW>  (768) 
494.56999999999999

>  <r_qp_volume>  (768) 
1481.873

>  <r_sd_BIOSOLVEIT.INFINISEE\_FTREES\_SIMILARITY>  (768) 
0.90500000000000003

>  <r_sd_BIOSOLVEIT.LOGP>  (768) 
3.6225800000000001

>  <r_sd_BIOSOLVEIT.MOLECULAR\_WEIGHT>  (768) 
495.57900000000001

>  <r_sd_BIOSOLVEIT.TPSA>  (768) 
76.700000000000003

>  <i_epik_Tot_Q>  (768) 
1

>  <i_epik_Tot_abs_Q>  (768) 
1

>  <i_f3d_flags>  (768) 
0

>  <i_i_glide_confnum>  (768) 
7

>  <i_i_glide_lignum>  (768) 
1324

>  <i_i_glide_posenum>  (768) 
16

>  <i_i_glide_rotatable_bonds>  (768) 
7

>  <i_lp_mmshare_version>  (768) 
65135

>  <i_m_ct_format>  (768) 
2

>  <i_m_source_file_index>  (768) 
2864

>  <i_qp_#NandO>  (768) 
7

>  <i_qp_#acid>  (768) 
0

>  <i_qp_#amide>  (768) 
0

>  <i_qp_#amidine>  (768) 
0

>  <i_qp_#amine>  (768) 
1

>  <i_qp_#in34>  (768) 
0

>  <i_qp_#in56>  (768) 
28

>  <i_qp_#metab>  (768) 
4

>  <i_qp_#nonHatm>  (768) 
37

>  <i_qp_#noncon>  (768) 
4

>  <i_qp_#ringatoms>  (768) 
28

>  <i_qp_#rotor>  (768) 
6

>  <i_qp_#rtvFG>  (768) 
0

>  <i_qp_#stars>  (768) 
0

>  <i_qp_CNS>  (768) 
1

>  <i_qp_HumanOralAbsorption>  (768) 
3

>  <i_qp_RuleOfFive>  (768) 
0

>  <i_qp_RuleOfThree>  (768) 
1

>  <i_sd_BIOSOLVEIT.INFINISEE\_RESULT\_RANK>  (768) 
70617

>  <i_sd_version>  (768) 
0

>  <b_lp_Chiralities_Consistent>  (768) 
1

>  <b_sd_chiral_flag>  (768) 
0

>  <canonical_id>  (768) 
ATP-HTVS-794646D3B9C8

>  <compound_code>  (768) 
91617

>  <title>  (768) 
rxn502b____EMOL30151713____EMOL44466703____EMOL712348

>  <variant>  (768) 
91617-1

>  <source_file>  (768) 
运行/运行/ATP-VSW/ATP-VSW-DOCK_HTVS_1-001_lib/ATP-VSW-DOCK_HTVS_1-001_lib

>  <canonical_smiles>  (768) 
C[NH+]1CCN(c2ccc(F)cc2C(=O)Nc2nc3ccccc3cc2N(CC#N)c2ccccc2)CC1

>  <scaffold>  (768) 
O=C(Nc1nc2ccccc2cc1Nc1ccccc1)c1ccccc1N1CC[NH2+]CC1

>  <molecular_formula>  (768) 
C29H28FN6O+

$$$$
ATP-HTVS-795FA74A51DE
     RDKit          3D

 59 62  0  0  0  0  0  0  0  0999 V2000
  201.4349  181.2437  155.1526 O   0  0  0  0  0  0  0  0  0  0  0  0
  200.2059  181.2086  155.2156 C   0  0  0  0  0  0  0  0  0  0  0  0
  199.4264  180.4977  156.0623 N   0  0  0  0  0  0  0  0  0  0  0  0
  197.9721  180.6992  155.8404 C   0  0  2  0  0  0  0  0  0  0  0  0
  197.9721  181.5710  154.6057 C   0  0  0  0  0  0  0  0  0  0  0  0
  199.2790  181.8786  154.2751 C   0  0  0  0  0  0  0  0  0  0  0  0
  199.6005  182.6788  153.1642 C   0  0  0  0  0  0  0  0  0  0  0  0
  198.5298  183.1936  152.3974 C   0  0  0  0  0  0  0  0  0  0  0  0
  197.1871  182.9157  152.7567 C   0  0  0  0  0  0  0  0  0  0  0  0
  196.8939  182.0937  153.8688 C   0  0  0  0  0  0  0  0  0  0  0  0
  197.3912  181.4745  157.0276 C   0  0  1  0  0  0  0  0  0  0  0  0
  195.9461  181.7818  156.9221 N   0  0  1  0  0  0  0  0  0  0  0  0
  195.2022  181.8424  158.1997 C   0  0  1  0  0  0  0  0  0  0  0  0
  195.3801  183.1685  158.9122 C   0  0  0  0  0  0  0  0  0  0  0  0
  194.2292  183.9013  159.3155 C   0  0  0  0  0  0  0  0  0  0  0  0
  194.4053  185.1601  159.9241 C   0  0  0  0  0  0  0  0  0  0  0  0
  195.7040  185.7032  160.0695 C   0  0  0  0  0  0  0  0  0  0  0  0
  196.8378  184.9277  159.7556 C   0  0  0  0  0  0  0  0  0  0  0  0
  196.6642  183.6669  159.1864 C   0  0  0  0  0  0  0  0  0  0  0  0
  195.8761  187.0825  160.6371 C   0  0  0  0  0  0  0  0  0  0  0  0
  195.2725  187.3374  161.6706 O   0  0  0  0  0  0  0  0  0  0  0  0
  196.6698  187.9852  159.9840 N   0  0  0  0  0  0  0  0  0  0  0  0
  196.7903  189.3418  160.5410 C   0  0  2  0  0  0  0  0  0  0  0  0
  197.3616  187.8338  158.6873 C   0  0  2  0  0  0  0  0  0  0  0  0
  199.9312  179.4880  157.0003 C   0  0  1  0  0  0  0  0  0  0  0  0
  200.3484  178.1891  156.3258 C   0  0  0  0  0  0  0  0  0  0  0  0
  199.9440  177.8807  155.0053 C   0  0  0  0  0  0  0  0  0  0  0  0
  200.3520  176.6847  154.3957 C   0  0  0  0  0  0  0  0  0  0  0  0
  201.1525  175.7717  155.1036 C   0  0  0  0  0  0  0  0  0  0  0  0
  201.5486  176.0613  156.4253 C   0  0  0  0  0  0  0  0  0  0  0  0
  201.1452  177.2646  157.0369 C   0  0  0  0  0  0  0  0  0  0  0  0
  195.7684  182.6096  156.3720 H   0  0  0  0  0  0  0  0  0  0  0  0
  197.4738  179.7382  155.6559 H   0  0  0  0  0  0  0  0  0  0  0  0
  200.6295  182.8737  152.8947 H   0  0  0  0  0  0  0  0  0  0  0  0
  198.7370  183.8040  151.5312 H   0  0  0  0  0  0  0  0  0  0  0  0
  196.3739  183.3232  152.1720 H   0  0  0  0  0  0  0  0  0  0  0  0
  195.8699  181.8964  154.1426 H   0  0  0  0  0  0  0  0  0  0  0  0
  197.5506  180.8813  157.9244 H   0  0  0  0  0  0  0  0  0  0  0  0
  197.9704  182.3998  157.1218 H   0  0  0  0  0  0  0  0  0  0  0  0
  194.1593  181.6629  157.9576 H   0  0  0  0  0  0  0  0  0  0  0  0
  195.4933  181.0545  158.8859 H   0  0  0  0  0  0  0  0  0  0  0  0
  193.2282  183.5132  159.1831 H   0  0  0  0  0  0  0  0  0  0  0  0
  193.5287  185.7210  160.2627 H   0  0  0  0  0  0  0  0  0  0  0  0
  197.8340  185.2879  159.9626 H   0  0  0  0  0  0  0  0  0  0  0  0
  197.5742  183.1219  158.9313 H   0  0  0  0  0  0  0  0  0  0  0  0
  195.8449  189.7298  160.9305 H   0  0  0  0  0  0  0  0  0  0  0  0
  197.1215  190.0678  159.7949 H   0  0  0  0  0  0  0  0  0  0  0  0
  197.5254  189.3583  161.3462 H   0  0  0  0  0  0  0  0  0  0  0  0
  197.8376  186.8605  158.5061 H   0  0  0  0  0  0  0  0  0  0  0  0
  198.1564  188.5822  158.6030 H   0  0  0  0  0  0  0  0  0  0  0  0
  196.6692  188.0659  157.8752 H   0  0  0  0  0  0  0  0  0  0  0  0
  200.7697  179.8918  157.5834 H   0  0  0  0  0  0  0  0  0  0  0  0
  199.1575  179.2380  157.7248 H   0  0  0  0  0  0  0  0  0  0  0  0
  199.3148  178.5437  154.4289 H   0  0  0  0  0  0  0  0  0  0  0  0
  200.0466  176.4757  153.3813 H   0  0  0  0  0  0  0  0  0  0  0  0
  201.4706  174.8546  154.6304 H   0  0  0  0  0  0  0  0  0  0  0  0
  202.1648  175.3621  156.9689 H   0  0  0  0  0  0  0  0  0  0  0  0
  201.4447  177.4821  158.0519 H   0  0  0  0  0  0  0  0  0  0  0  0
  195.5259  180.9967  156.4343 H   0  0  0  0  0  0  0  0  0  0  0  0
  1  2  2  0
  2  3  1  0
  2  6  1  0
  3  4  1  0
  3 25  1  0
  4  5  1  0
  4 11  1  0
  4 33  1  6
  5  6  1  0
  5 10  2  0
  6  7  2  0
  7  8  1  0
  7 34  1  0
  8  9  2  0
  8 35  1  0
  9 10  1  0
  9 36  1  0
 10 37  1  0
 11 12  1  0
 11 38  1  1
 11 39  1  0
 12 13  1  0
 12 32  1  6
 12 59  1  0
 13 14  1  0
 13 40  1  6
 13 41  1  0
 14 15  1  0
 14 19  2  0
 15 16  2  0
 15 42  1  0
 16 17  1  0
 16 43  1  0
 17 18  2  0
 17 20  1  0
 18 19  1  0
 18 44  1  0
 19 45  1  0
 20 21  2  0
 20 22  1  0
 22 23  1  0
 22 24  1  0
 23 46  1  1
 23 47  1  0
 23 48  1  0
 24 49  1  6
 24 50  1  0
 24 51  1  0
 25 26  1  0
 25 52  1  1
 25 53  1  0
 26 27  2  0
 26 31  1  0
 27 28  1  0
 27 54  1  0
 28 29  2  0
 28 55  1  0
 29 30  1  0
 29 56  1  0
 30 31  2  0
 30 57  1  0
 31 58  1  0
M  CHG  1  12   1
M  END
>  <s_epik_cmdline>  (769) 
J2VwaWtfcHl0aG9uJywgJy1waCcsICc3LjAwMDAwMCcsICctcGh0JywgJzIuMDAwMDAwJywgJy1tcycsICcxNicsICctdG4nLCAnOCcsICctbWEnLCAnMjAwJywgJy1pbWFlJywgJzxpbmZpbGUubWFlPicsICctb21hZScsICc8b3V0ZmlsZS5tYWU+Jw==

>  <s_epik_input>  (769) 
W2NIXTFbY0hdW2NIXVtjSF1bY0hdYzFbQ0gyXU4oQyg9TyljKGMyMylbY0hdW2NIXVtjSF1bY0hdMylbQ0BIXTJbQ0gyXVtOSF1bQ0gyXWM0W2NIXVtjSF1jKFtjSF1bY0hdNClDKD1PKU4oW0NIM10pW0NIM10=

>  <s_i_glide_gridfile>  (769) 
ATP-Grid

>  <s_lp_Force_Field>  (769) 
OPLS_2005

>  <s_lp_Variant>  (769) 
m_270004bbb____12219716____13581236-1

>  <s_lp_label>  (769) 
2080_sdstereoexpander_1_neutralizer_1_epik_1_stereoizer_1

>  <s_m_source_file>  (769) 
ATP-VSW-LIGPREP-001-in.maegz

>  <s_sd_BIOSOLVEIT.INFINISEE\_QUERY\_NAME>  (769) 
Ref-Lig

>  <s_sd_BIOSOLVEIT.INFINISEE\_QUERY\_SMILES>  (769) 
S(c1nc2c(cc1C[NH2+]Cc3ccc(cc3)C[NH+](C)C)cccc2)Cc4ccccc4

>  <s_sd_BIOSOLVEIT.INFINISEE\_REACTION\_NAME>  (769) 
m_270004bbb

>  <s_sd_BIOSOLVEIT.INFINISEE\_REAGENT1\_SMILES>  (769) 
[R1*]NCC1N(C(=O)c2c1cccc2)Cc3ccccc3

>  <s_sd_BIOSOLVEIT.INFINISEE\_REAGENT2\_SMILES>  (769) 
[R1*]Cc1ccc(cc1)C(=O)N(C)C

>  <s_sd_BIOSOLVEIT.INFINISEE\_SPACE>  (769) 
REALSpace_44bn_2023-08

>  <s_vsw_compound_code>  (769) 
66529

>  <s_vsw_variant>  (769) 
66529-1

>  <r_epik_Charging_Adjusted_Penalty>  (769) 
0.14323168750422

>  <r_epik_Ionization_Penalty>  (769) 
0.071599999999999997

>  <r_epik_Ionization_Penalty_Charging>  (769) 
0.071599999999999997

>  <r_epik_Ionization_Penalty_Neutral>  (769) 
0

>  <r_epik_State_Penalty>  (769) 
0.071599999999999997

>  <r_i_docking_score>  (769) 
-5.39740696215501

>  <r_i_glide_ecoul>  (769) 
-9.3716201782226598

>  <r_i_glide_eff_state_penalty>  (769) 
0.071599999999999997

>  <r_i_glide_einternal>  (769) 
5.9162516593933097

>  <r_i_glide_emodel>  (769) 
-67.540358831719004

>  <r_i_glide_energy>  (769) 
-47.406646728515597

>  <r_i_glide_erotb>  (769) 
0.80411371803424103

>  <r_i_glide_esite>  (769) 
-0.126896523137567

>  <r_i_glide_evdw>  (769) 
-38.035026550292997

>  <r_i_glide_gscore>  (769) 
-5.4690069621550101

>  <r_i_glide_hbond>  (769) 
-0.034788115737711199

>  <r_i_glide_ligand_efficiency>  (769) 
-0.17410990200500001

>  <r_i_glide_ligand_efficiency_ln>  (769) 
-1.21728068062428

>  <r_i_glide_ligand_efficiency_sa>  (769) 
-0.54694547692220097

>  <r_i_glide_lipo>  (769) 
-1.66479815938596

>  <r_i_glide_metal>  (769) 
-0

>  <r_i_glide_rewards>  (769) 
-1.13914352767997

>  <r_lp_Energy>  (769) 
51.146464000000002

>  <r_qp_ACxDN^.5/SA>  (769) 
0.0096191000000000002

>  <r_qp_CIQPlogS>  (769) 
-4.7610000000000001

>  <r_qp_EA(eV)>  (769) 
0.315

>  <r_qp_FISA>  (769) 
81.623000000000005

>  <r_qp_FOSA>  (769) 
248.83199999999999

>  <r_qp_IP(eV)>  (769) 
9.407

>  <r_qp_Jm>  (769) 
0.00329857227233571

>  <r_qp_PISA>  (769) 
449.24700000000001

>  <r_qp_PSA>  (769) 
70.084000000000003

>  <r_qp_PercentHumanOralAbsorption>  (769) 
100

>  <r_qp_QPPCaco>  (769) 
415.68599999999998

>  <r_qp_QPPMDCK>  (769) 
211.91399999999999

>  <r_qp_QPlogBB>  (769) 
-0.36599999999999999

>  <r_qp_QPlogHERG>  (769) 
-8.0399999999999991

>  <r_qp_QPlogKhsa>  (769) 
0.60199999999999998

>  <r_qp_QPlogKp>  (769) 
-2.8319999999999999

>  <r_qp_QPlogPC16>  (769) 
15.324

>  <r_qp_QPlogPo/w>  (769) 
4.3170000000000002

>  <r_qp_QPlogPoct>  (769) 
22.216000000000001

>  <r_qp_QPlogPw>  (769) 
12.515000000000001

>  <r_qp_QPlogS>  (769) 
-5.266

>  <r_qp_QPpolrz>  (769) 
49.543999999999997

>  <r_qp_SASA>  (769) 
779.702

>  <r_qp_SAamideO>  (769) 
0

>  <r_qp_SAfluorine>  (769) 
0

>  <r_qp_WPSA>  (769) 
0

>  <r_qp_accptHB>  (769) 
7.5

>  <r_qp_dip^2/V>  (769) 
0.024548299999999999

>  <r_qp_dipole>  (769) 
5.8559999999999999

>  <r_qp_donorHB>  (769) 
1

>  <r_qp_glob>  (769) 
0.7750631

>  <r_qp_mol_MW>  (769) 
413.51799999999997

>  <r_qp_volume>  (769) 
1396.855

>  <r_sd_BIOSOLVEIT.INFINISEE\_FTREES\_SIMILARITY>  (769) 
0.90100000000000002

>  <r_sd_BIOSOLVEIT.LOGP>  (769) 
2.8491

>  <r_sd_BIOSOLVEIT.MOLECULAR\_WEIGHT>  (769) 
414.52600000000001

>  <r_sd_BIOSOLVEIT.TPSA>  (769) 
57.229999999999997

>  <i_epik_Tot_Q>  (769) 
1

>  <i_epik_Tot_abs_Q>  (769) 
1

>  <i_f3d_flags>  (769) 
0

>  <i_i_glide_confnum>  (769) 
8

>  <i_i_glide_lignum>  (769) 
646

>  <i_i_glide_posenum>  (769) 
7

>  <i_i_glide_rotatable_bonds>  (769) 
8

>  <i_lp_mmshare_version>  (769) 
65135

>  <i_m_ct_format>  (769) 
2

>  <i_m_source_file_index>  (769) 
2080

>  <i_qp_#NandO>  (769) 
5

>  <i_qp_#acid>  (769) 
0

>  <i_qp_#amide>  (769) 
0

>  <i_qp_#amidine>  (769) 
0

>  <i_qp_#amine>  (769) 
1

>  <i_qp_#in34>  (769) 
0

>  <i_qp_#in56>  (769) 
21

>  <i_qp_#metab>  (769) 
4

>  <i_qp_#nonHatm>  (769) 
31

>  <i_qp_#noncon>  (769) 
1

>  <i_qp_#ringatoms>  (769) 
21

>  <i_qp_#rotor>  (769) 
7

>  <i_qp_#rtvFG>  (769) 
0

>  <i_qp_#stars>  (769) 
0

>  <i_qp_CNS>  (769) 
1

>  <i_qp_HumanOralAbsorption>  (769) 
3

>  <i_qp_RuleOfFive>  (769) 
0

>  <i_qp_RuleOfThree>  (769) 
0

>  <i_sd_BIOSOLVEIT.INFINISEE\_REAGENT1\_NAME>  (769) 
12219716

>  <i_sd_BIOSOLVEIT.INFINISEE\_REAGENT2\_NAME>  (769) 
13581236

>  <i_sd_BIOSOLVEIT.INFINISEE\_RESULT\_RANK>  (769) 
95992

>  <i_sd_version>  (769) 
0

>  <b_lp_Chiralities_Consistent>  (769) 
1

>  <b_sd_chiral_flag>  (769) 
0

>  <canonical_id>  (769) 
ATP-HTVS-795FA74A51DE

>  <compound_code>  (769) 
66529

>  <title>  (769) 
m_270004bbb____12219716____13581236

>  <variant>  (769) 
66529-1

>  <source_file>  (769) 
运行/运行/ATP-VSW/ATP-VSW-DOCK_HTVS_1-001_lib/ATP-VSW-DOCK_HTVS_1-001_lib

>  <canonical_smiles>  (769) 
CN(C)C(=O)c1ccc(C[NH2+]C[C@H]2c3ccccc3C(=O)N2Cc2ccccc2)cc1

>  <scaffold>  (769) 
O=C1c2ccccc2C(C[NH2+]Cc2ccccc2)N1Cc1ccccc1

>  <molecular_formula>  (769) 
C26H28N3O2+

$$$$
ATP-HTVS-79A32C942736
     RDKit          3D

 62 65  0  0  0  0  0  0  0  0999 V2000
  197.9111  183.6390  158.7372 S   0  0  0  0  0  0  0  0  0  0  0  0
  196.9269  184.9291  159.4298 C   0  0  0  0  0  0  0  0  0  0  0  0
  195.5703  184.7053  159.7572 C   0  0  0  0  0  0  0  0  0  0  0  0
  194.8065  185.7462  160.3191 C   0  0  0  0  0  0  0  0  0  0  0  0
  195.3891  187.0051  160.5526 C   0  0  0  0  0  0  0  0  0  0  0  0
  196.7394  187.2314  160.2124 C   0  0  0  0  0  0  0  0  0  0  0  0
  197.5061  186.1886  159.6585 C   0  0  0  0  0  0  0  0  0  0  0  0
  196.8076  182.7271  157.6255 C   0  0  1  0  0  0  0  0  0  0  0  0
  197.5731  181.7290  156.7240 C   0  0  1  0  0  0  0  0  0  0  0  0
  196.6325  180.9617  155.8862 N   0  0  1  0  0  0  0  0  0  0  0  0
  197.1386  179.6914  155.3352 C   0  0  1  0  0  0  0  0  0  0  0  0
  197.5722  179.8201  153.8882 C   0  0  0  0  0  0  0  0  0  0  0  0
  196.6092  180.0170  152.8775 C   0  0  0  0  0  0  0  0  0  0  0  0
  196.9989  180.1346  151.5310 C   0  0  0  0  0  0  0  0  0  0  0  0
  198.3588  180.0090  151.1740 C   0  0  0  0  0  0  0  0  0  0  0  0
  199.3227  179.7986  152.1808 C   0  0  0  0  0  0  0  0  0  0  0  0
  198.9345  179.6988  153.5315 C   0  0  0  0  0  0  0  0  0  0  0  0
  198.7855  180.1260  149.7147 C   0  0  1  0  0  0  0  0  0  0  0  0
  198.5863  178.9377  148.8811 N   0  0  0  0  0  0  0  0  0  0  0  0
  199.3789  177.8009  149.3283 C   0  0  2  0  0  0  0  0  0  0  0  0
  197.1875  178.5629  148.7199 C   0  0  2  0  0  0  0  0  0  0  0  0
  198.6828  182.3341  155.9142 C   0  0  0  0  0  0  0  0  0  0  0  0
  198.5272  183.3542  154.9788 N   0  0  0  0  0  0  0  0  0  0  0  0
  199.8251  183.6472  154.4832 C   0  0  0  0  0  0  0  0  0  0  0  0
  200.7238  182.8438  155.0450 N   0  0  0  0  0  0  0  0  0  0  0  0
  200.0230  182.0386  155.9312 C   0  0  0  0  0  0  0  0  0  0  0  0
  200.7450  181.0093  156.7488 C   0  0  2  0  0  0  0  0  0  0  0  0
  199.9511  184.6845  153.5195 C   0  0  0  0  0  0  0  0  0  0  0  0
  198.8364  185.3813  153.1133 C   0  0  0  0  0  0  0  0  0  0  0  0
  197.5651  185.0541  153.6317 C   0  0  0  0  0  0  0  0  0  0  0  0
  197.4235  184.0328  154.5364 C   0  0  0  0  0  0  0  0  0  0  0  0
  195.9009  180.6700  156.5138 H   0  0  0  0  0  0  0  0  0  0  0  0
  195.1110  183.7454  159.5918 H   0  0  0  0  0  0  0  0  0  0  0  0
  193.7695  185.5736  160.5597 H   0  0  0  0  0  0  0  0  0  0  0  0
  194.8006  187.8035  160.9809 H   0  0  0  0  0  0  0  0  0  0  0  0
  197.1847  188.2005  160.3988 H   0  0  0  0  0  0  0  0  0  0  0  0
  198.5457  186.3626  159.4090 H   0  0  0  0  0  0  0  0  0  0  0  0
  196.0669  182.1872  158.2158 H   0  0  0  0  0  0  0  0  0  0  0  0
  196.2588  183.4718  157.0509 H   0  0  0  0  0  0  0  0  0  0  0  0
  198.0047  180.9982  157.4093 H   0  0  0  0  0  0  0  0  0  0  0  0
  197.9282  179.2583  155.9570 H   0  0  0  0  0  0  0  0  0  0  0  0
  196.3173  178.9774  155.3769 H   0  0  0  0  0  0  0  0  0  0  0  0
  195.5593  180.0859  153.1160 H   0  0  0  0  0  0  0  0  0  0  0  0
  196.2481  180.2997  150.7752 H   0  0  0  0  0  0  0  0  0  0  0  0
  200.3695  179.7043  151.9250 H   0  0  0  0  0  0  0  0  0  0  0  0
  199.6823  179.5289  154.2917 H   0  0  0  0  0  0  0  0  0  0  0  0
  198.2529  180.9651  149.2683 H   0  0  0  0  0  0  0  0  0  0  0  0
  199.8414  180.3977  149.6801 H   0  0  0  0  0  0  0  0  0  0  0  0
  199.2816  176.9713  148.6253 H   0  0  0  0  0  0  0  0  0  0  0  0
  199.0630  177.4499  150.3126 H   0  0  0  0  0  0  0  0  0  0  0  0
  200.4366  178.0650  149.3797 H   0  0  0  0  0  0  0  0  0  0  0  0
  197.0820  177.7530  147.9979 H   0  0  0  0  0  0  0  0  0  0  0  0
  196.6052  179.4100  148.3589 H   0  0  0  0  0  0  0  0  0  0  0  0
  196.7587  178.2241  149.6617 H   0  0  0  0  0  0  0  0  0  0  0  0
  200.7864  181.3029  157.7982 H   0  0  0  0  0  0  0  0  0  0  0  0
  201.7734  180.8696  156.4093 H   0  0  0  0  0  0  0  0  0  0  0  0
  200.2548  180.0350  156.6990 H   0  0  0  0  0  0  0  0  0  0  0  0
  200.9370  184.9193  153.1291 H   0  0  0  0  0  0  0  0  0  0  0  0
  198.9355  186.1805  152.3840 H   0  0  0  0  0  0  0  0  0  0  0  0
  196.6887  185.6181  153.3297 H   0  0  0  0  0  0  0  0  0  0  0  0
  196.4472  183.7575  154.9157 H   0  0  0  0  0  0  0  0  0  0  0  0
  196.2329  181.5343  155.1482 H   0  0  0  0  0  0  0  0  0  0  0  0
  1  2  1  0
  1  8  1  0
  2  3  2  0
  2  7  1  0
  3  4  1  0
  3 33  1  0
  4  5  2  0
  4 34  1  0
  5  6  1  0
  5 35  1  0
  6  7  2  0
  6 36  1  0
  7 37  1  0
  8  9  1  0
  8 38  1  1
  8 39  1  0
  9 10  1  0
  9 22  1  0
  9 40  1  1
 10 11  1  0
 10 32  1  1
 10 62  1  0
 11 12  1  0
 11 41  1  1
 11 42  1  0
 12 13  1  0
 12 17  2  0
 13 14  2  0
 13 43  1  0
 14 15  1  0
 14 44  1  0
 15 16  2  0
 15 18  1  0
 16 17  1  0
 16 45  1  0
 17 46  1  0
 18 19  1  0
 18 47  1  6
 18 48  1  0
 19 20  1  0
 19 21  1  0
 20 49  1  6
 20 50  1  0
 20 51  1  0
 21 52  1  6
 21 53  1  0
 21 54  1  0
 22 23  1  0
 22 26  2  0
 23 24  1  0
 23 31  1  0
 24 25  2  0
 24 28  1  0
 25 26  1  0
 26 27  1  0
 27 55  1  1
 27 56  1  0
 27 57  1  0
 28 29  2  0
 28 58  1  0
 29 30  1  0
 29 59  1  0
 30 31  2  0
 30 60  1  0
 31 61  1  0
M  CHG  1  10   1
M  END
>  <s_epik_cmdline>  (770) 
J2VwaWtfcHl0aG9uJywgJy1waCcsICc3LjAwMDAwMCcsICctcGh0JywgJzIuMDAwMDAwJywgJy1tcycsICcxNicsICctdG4nLCAnOCcsICctbWEnLCAnMjAwJywgJy1pbWFlJywgJzxpbmZpbGUubWFlPicsICctb21hZScsICc8b3V0ZmlsZS5tYWU+Jw==

>  <s_epik_input>  (770) 
W2NIXTFbY0hdW2NIXVtjSF1bY0hdYzFTW0NIMl1bQ0BIXShjMmMoW0NIM10pbmMobjIzKVtjSF1bY0hdW2NIXVtjSF0zKVtOSF1bQ0gyXWM0W2NIXVtjSF1jKFtjSF1bY0hdNClbQ0gyXU4oW0NIM10pW0NIM10=

>  <s_i_glide_gridfile>  (770) 
ATP-Grid

>  <s_lp_Force_Field>  (770) 
OPLS_2005

>  <s_lp_Variant>  (770) 
rxn207____EMOL36800047____EMOL50155899-12

>  <s_lp_label>  (770) 
2146_sdstereoexpander_2_neutralizer_1_epik_6_stereoizer_1

>  <s_m_source_file>  (770) 
ATP-VSW-LIGPREP-002-in.maegz

>  <s_sd_BIOSOLVEIT.INFINISEE\_QUERY\_NAME>  (770) 
Ref-Lig

>  <s_sd_BIOSOLVEIT.INFINISEE\_QUERY\_SMILES>  (770) 
S(c1nc2c(cc1C[NH2+]Cc3ccc(cc3)C[NH+](C)C)cccc2)Cc4ccccc4

>  <s_sd_BIOSOLVEIT.INFINISEE\_REACTION\_NAME>  (770) 
rxn207

>  <s_sd_BIOSOLVEIT.INFINISEE\_REAGENT1\_NAME>  (770) 
EMOL36800047

>  <s_sd_BIOSOLVEIT.INFINISEE\_REAGENT1\_SMILES>  (770) 
S(c1ccccc1)CC(=O)C=2N3C(=NC2C)C=CC=C3

>  <s_sd_BIOSOLVEIT.INFINISEE\_REAGENT2\_NAME>  (770) 
EMOL50155899

>  <s_sd_BIOSOLVEIT.INFINISEE\_REAGENT2\_SMILES>  (770) 
N(Cc1ccc(cc1)CN)(C)C

>  <s_sd_BIOSOLVEIT.INFINISEE\_SPACE>  (770) 
eXplore_7tr_2022-12

>  <s_vsw_compound_code>  (770) 
68642

>  <s_vsw_variant>  (770) 
68642-12

>  <r_epik_Charging_Adjusted_Penalty>  (770) 
2.8976605268815301

>  <r_epik_Ionization_Penalty>  (770) 
2.0493000000000001

>  <r_epik_Ionization_Penalty_Charging>  (770) 
0.60740000000000005

>  <r_epik_Ionization_Penalty_Neutral>  (770) 
1.4419

>  <r_epik_State_Penalty>  (770) 
2.2902

>  <r_i_docking_score>  (770) 
-2.6041470784389

>  <r_i_glide_ecoul>  (770) 
-9.4135656356811506

>  <r_i_glide_eff_state_penalty>  (770) 
2.2902

>  <r_i_glide_einternal>  (770) 
5.1308975219726598

>  <r_i_glide_emodel>  (770) 
-58.898101277982597

>  <r_i_glide_energy>  (770) 
-41.441622734069803

>  <r_i_glide_erotb>  (770) 
0.74742301550575596

>  <r_i_glide_esite>  (770) 
-0.099188419180716206

>  <r_i_glide_evdw>  (770) 
-32.0280570983887

>  <r_i_glide_gscore>  (770) 
-4.8943470784388996

>  <r_i_glide_hbond>  (770) 
-0.13846153505401601

>  <r_i_glide_ligand_efficiency>  (770) 
-0.084004744465770803

>  <r_i_glide_ligand_efficiency_ln>  (770) 
-0.58731497371140395

>  <r_i_glide_ligand_efficiency_sa>  (770) 
-0.26389087867178901

>  <r_i_glide_lipo>  (770) 
-1.69943566671104

>  <r_i_glide_metal>  (770) 
-0

>  <r_i_glide_rewards>  (770) 
-0.69124677272727097

>  <r_lp_Energy>  (770) 
18.400309

>  <r_qp_ACxDN^.5/SA>  (770) 
0.0080874999999999992

>  <r_qp_CIQPlogS>  (770) 
-4.9359999999999999

>  <r_qp_EA(eV)>  (770) 
0.64200000000000002

>  <r_qp_FISA>  (770) 
30.076000000000001

>  <r_qp_FOSA>  (770) 
256.45600000000002

>  <r_qp_IP(eV)>  (770) 
8.6829999999999998

>  <r_qp_Jm>  (770) 
0.066942808147360602

>  <r_qp_PISA>  (770) 
376.71899999999999

>  <r_qp_PSA>  (770) 
32.136000000000003

>  <r_qp_PercentHumanOralAbsorption>  (770) 
100

>  <r_qp_QPPCaco>  (770) 
319.51400000000001

>  <r_qp_QPPMDCK>  (770) 
218.08699999999999

>  <r_qp_QPlogBB>  (770) 
0.58899999999999997

>  <r_qp_QPlogHERG>  (770) 
-7.0220000000000002

>  <r_qp_QPlogKhsa>  (770) 
0.80200000000000005

>  <r_qp_QPlogKp>  (770) 
-4.008

>  <r_qp_QPlogPC16>  (770) 
13.771000000000001

>  <r_qp_QPlogPo/w>  (770) 
4.6180000000000003

>  <r_qp_QPlogPoct>  (770) 
19.414000000000001

>  <r_qp_QPlogPw>  (770) 
9.0250000000000004

>  <r_qp_QPlogS>  (770) 
-2.8010000000000002

>  <r_qp_QPpolrz>  (770) 
45.027999999999999

>  <r_qp_SASA>  (770) 
680.06500000000005

>  <r_qp_SAamideO>  (770) 
0

>  <r_qp_SAfluorine>  (770) 
0

>  <r_qp_WPSA>  (770) 
16.814

>  <r_qp_accptHB>  (770) 
5.5

>  <r_qp_dip^2/V>  (770) 
0.0141876

>  <r_qp_dipole>  (770) 
4.3490000000000002

>  <r_qp_donorHB>  (770) 
1

>  <r_qp_glob>  (770) 
0.86150669999999996

>  <r_qp_mol_MW>  (770) 
430.61000000000001

>  <r_qp_volume>  (770) 
1333.4159999999999

>  <r_sd_BIOSOLVEIT.INFINISEE\_FTREES\_SIMILARITY>  (770) 
0.95499999999999996

>  <r_sd_BIOSOLVEIT.LOGP>  (770) 
2.88422

>  <r_sd_BIOSOLVEIT.MOLECULAR\_WEIGHT>  (770) 
432.63200000000001

>  <r_sd_BIOSOLVEIT.TPSA>  (770) 
38.869999999999997

>  <i_epik_Tot_Q>  (770) 
1

>  <i_epik_Tot_abs_Q>  (770) 
1

>  <i_f3d_flags>  (770) 
0

>  <i_i_glide_confnum>  (770) 
3

>  <i_i_glide_lignum>  (770) 
788

>  <i_i_glide_posenum>  (770) 
14

>  <i_i_glide_rotatable_bonds>  (770) 
9

>  <i_lp_mmshare_version>  (770) 
65135

>  <i_m_ct_format>  (770) 
2

>  <i_m_source_file_index>  (770) 
2146

>  <i_qp_#NandO>  (770) 
4

>  <i_qp_#acid>  (770) 
0

>  <i_qp_#amide>  (770) 
0

>  <i_qp_#amidine>  (770) 
0

>  <i_qp_#amine>  (770) 
2

>  <i_qp_#in34>  (770) 
0

>  <i_qp_#in56>  (770) 
21

>  <i_qp_#metab>  (770) 
6

>  <i_qp_#nonHatm>  (770) 
31

>  <i_qp_#noncon>  (770) 
0

>  <i_qp_#ringatoms>  (770) 
21

>  <i_qp_#rotor>  (770) 
9

>  <i_qp_#rtvFG>  (770) 
0

>  <i_qp_#stars>  (770) 
0

>  <i_qp_CNS>  (770) 
2

>  <i_qp_HumanOralAbsorption>  (770) 
3

>  <i_qp_RuleOfFive>  (770) 
0

>  <i_qp_RuleOfThree>  (770) 
0

>  <i_sd_BIOSOLVEIT.INFINISEE\_RESULT\_RANK>  (770) 
74

>  <i_sd_version>  (770) 
0

>  <b_lp_Chiralities_Consistent>  (770) 
1

>  <b_sd_chiral_flag>  (770) 
0

>  <canonical_id>  (770) 
ATP-HTVS-79A32C942736

>  <compound_code>  (770) 
68642

>  <title>  (770) 
rxn207____EMOL36800047____EMOL50155899

>  <variant>  (770) 
68642-12

>  <source_file>  (770) 
运行/运行/ATP-VSW/ATP-VSW-DOCK_HTVS_1-002_lib.maegz

>  <canonical_smiles>  (770) 
Cc1nc2ccccn2c1[C@@H](CSc1ccccc1)[NH2+]Cc1ccc(CN(C)C)cc1

>  <scaffold>  (770) 
c1ccc(C[NH2+]C(CSc2ccccc2)c2cnc3ccccn23)cc1

>  <molecular_formula>  (770) 
C26H31N4S+

$$$$
ATP-HTVS-79BEB139CB8F
     RDKit          3D

 55 57  0  0  0  0  0  0  0  0999 V2000
  200.8926  176.9931  151.6574 S   0  0  0  0  0  0  0  0  0  0  0  0
  200.5250  175.4444  152.3740 C   0  0  0  0  0  0  0  0  0  0  0  0
  201.3071  174.9739  153.5207 C   0  0  0  0  0  0  0  0  0  0  0  0
  201.7602  173.6324  153.6772 C   0  0  0  0  0  0  0  0  0  0  0  0
  201.5376  172.6056  152.6521 N   0  0  0  0  0  0  0  0  0  0  0  0
  202.4910  172.3049  151.9431 O   0  0  0  0  0  0  0  0  0  0  0  0
  200.4102  172.1333  152.5323 O   0  0  0  0  0  0  0  0  0  0  0  0
  202.4836  173.2562  154.8309 C   0  0  0  0  0  0  0  0  0  0  0  0
  202.7758  174.1936  155.8343 C   0  0  0  0  0  0  0  0  0  0  0  0
  202.3439  175.5188  155.6868 C   0  0  0  0  0  0  0  0  0  0  0  0
  201.6198  175.9007  154.5399 C   0  0  0  0  0  0  0  0  0  0  0  0
  199.4616  174.8466  151.7378 C   0  0  0  0  0  0  0  0  0  0  0  0
  198.9553  175.6263  150.6545 C   0  0  0  0  0  0  0  0  0  0  0  0
  199.5999  176.8279  150.5011 C   0  0  0  0  0  0  0  0  0  0  0  0
  199.2826  177.9091  149.5241 C   0  0  1  0  0  0  0  0  0  0  0  0
  198.0805  178.6714  149.9255 N   0  0  1  0  0  0  0  0  0  0  0  0
  198.1819  179.3525  151.2349 C   0  0  1  0  0  0  0  0  0  0  0  0
  196.9722  180.2619  151.4911 C   0  0  1  0  0  0  0  0  0  0  0  0
  197.0534  180.9474  152.8429 C   0  0  0  0  0  0  0  0  0  0  0  0
  197.1679  182.3496  152.9332 C   0  0  0  0  0  0  0  0  0  0  0  0
  197.2419  182.9734  154.1948 C   0  0  0  0  0  0  0  0  0  0  0  0
  197.2143  182.1966  155.3749 C   0  0  0  0  0  0  0  0  0  0  0  0
  197.1196  180.7936  155.2802 C   0  0  0  0  0  0  0  0  0  0  0  0
  197.0221  180.1745  154.0230 C   0  0  0  0  0  0  0  0  0  0  0  0
  197.2868  182.8598  156.7393 C   0  0  1  0  0  0  0  0  0  0  0  0
  195.9380  183.0740  157.3371 N   0  0  1  0  0  0  0  0  0  0  0  0
  195.3215  181.8348  157.8619 C   0  0  2  0  0  0  0  0  0  0  0  0
  195.9283  184.1521  158.3496 C   0  0  2  0  0  0  0  0  0  0  0  0
  197.9035  179.3645  149.2124 H   0  0  0  0  0  0  0  0  0  0  0  0
  202.8190  172.2365  154.9347 H   0  0  0  0  0  0  0  0  0  0  0  0
  203.3303  173.8971  156.7102 H   0  0  0  0  0  0  0  0  0  0  0  0
  202.5682  176.2418  156.4586 H   0  0  0  0  0  0  0  0  0  0  0  0
  201.3008  176.9267  154.4716 H   0  0  0  0  0  0  0  0  0  0  0  0
  199.0358  173.8851  152.0092 H   0  0  0  0  0  0  0  0  0  0  0  0
  198.1360  175.2826  150.0423 H   0  0  0  0  0  0  0  0  0  0  0  0
  200.1303  178.5905  149.4182 H   0  0  0  0  0  0  0  0  0  0  0  0
  199.1011  177.4680  148.5434 H   0  0  0  0  0  0  0  0  0  0  0  0
  198.2570  178.6062  152.0277 H   0  0  0  0  0  0  0  0  0  0  0  0
  199.1010  179.9401  151.2655 H   0  0  0  0  0  0  0  0  0  0  0  0
  196.9068  181.0157  150.7050 H   0  0  0  0  0  0  0  0  0  0  0  0
  196.0447  179.6877  151.4553 H   0  0  0  0  0  0  0  0  0  0  0  0
  197.2001  182.9548  152.0391 H   0  0  0  0  0  0  0  0  0  0  0  0
  197.3195  184.0509  154.2437 H   0  0  0  0  0  0  0  0  0  0  0  0
  197.1049  180.1788  156.1664 H   0  0  0  0  0  0  0  0  0  0  0  0
  196.9231  179.0997  153.9792 H   0  0  0  0  0  0  0  0  0  0  0  0
  197.9107  182.2747  157.4184 H   0  0  0  0  0  0  0  0  0  0  0  0
  197.7944  183.8208  156.6167 H   0  0  0  0  0  0  0  0  0  0  0  0
  195.9283  181.4168  158.6662 H   0  0  0  0  0  0  0  0  0  0  0  0
  195.1976  181.0966  157.0706 H   0  0  0  0  0  0  0  0  0  0  0  0
  194.3215  182.0340  158.2505 H   0  0  0  0  0  0  0  0  0  0  0  0
  196.5872  183.9172  159.1868 H   0  0  0  0  0  0  0  0  0  0  0  0
  194.9223  184.2955  158.7468 H   0  0  0  0  0  0  0  0  0  0  0  0
  196.2470  185.1041  157.9231 H   0  0  0  0  0  0  0  0  0  0  0  0
  197.2960  178.0322  149.9573 H   0  0  0  0  0  0  0  0  0  0  0  0
  195.3270  183.3516  156.5833 H   0  0  0  0  0  0  0  0  0  0  0  0
  1  2  1  0
  1 14  1  0
  2  3  1  0
  2 12  2  0
  3  4  1  0
  3 11  2  0
  4  5  1  0
  4  8  2  0
  5  6  1  0
  5  7  2  0
  8  9  1  0
  8 30  1  0
  9 10  2  0
  9 31  1  0
 10 11  1  0
 10 32  1  0
 11 33  1  0
 12 13  1  0
 12 34  1  0
 13 14  2  0
 13 35  1  0
 14 15  1  0
 15 16  1  0
 15 36  1  6
 15 37  1  0
 16 17  1  0
 16 29  1  6
 16 54  1  0
 17 18  1  0
 17 38  1  1
 17 39  1  0
 18 19  1  0
 18 40  1  6
 18 41  1  0
 19 20  1  0
 19 24  2  0
 20 21  2  0
 20 42  1  0
 21 22  1  0
 21 43  1  0
 22 23  2  0
 22 25  1  0
 23 24  1  0
 23 44  1  0
 24 45  1  0
 25 26  1  0
 25 46  1  1
 25 47  1  0
 26 27  1  0
 26 28  1  0
 26 55  1  6
 27 48  1  1
 27 49  1  0
 27 50  1  0
 28 51  1  1
 28 52  1  0
 28 53  1  0
M  CHG  4   5   1   6  -1  16   1  26   1
M  END
>  <s_epik_cmdline>  (771) 
J2VwaWtfcHl0aG9uJywgJy1waCcsICc3LjAwMDAwMCcsICctcGh0JywgJzIuMDAwMDAwJywgJy1tcycsICcxNicsICctdG4nLCAnOCcsICctbWEnLCAnMjAwJywgJy1pbWFlJywgJzxpbmZpbGUubWFlPicsICctb21hZScsICc8b3V0ZmlsZS5tYWU+Jw==

>  <s_epik_input>  (771) 
W2NIXTFbY0hdW2NIXVtjSF1jKFtOK10oW08tXSk9TyljMS1jMnNjKFtjSF1bY0hdMilbQ0gyXVtOSF1bQ0gyXVtDSDJdYzNbY0hdW2NIXWMoW2NIXVtjSF0zKVtDSDJdTihbQ0gzXSlbQ0gzXQ==

>  <s_i_glide_gridfile>  (771) 
ATP-Grid

>  <s_lp_Force_Field>  (771) 
OPLS_2005

>  <s_lp_Variant>  (771) 
m_270004bbb____15775648____7548542-1

>  <s_lp_label>  (771) 
1743_sdstereoexpander_1_neutralizer_1_epik_1_stereoizer_1

>  <s_m_source_file>  (771) 
ATP-VSW-LIGPREP-001-in.maegz

>  <s_sd_BIOSOLVEIT.INFINISEE\_QUERY\_NAME>  (771) 
Ref-Lig

>  <s_sd_BIOSOLVEIT.INFINISEE\_QUERY\_SMILES>  (771) 
S(c1nc2c(cc1C[NH2+]Cc3ccc(cc3)C[NH+](C)C)cccc2)Cc4ccccc4

>  <s_sd_BIOSOLVEIT.INFINISEE\_REACTION\_NAME>  (771) 
m_270004bbb

>  <s_sd_BIOSOLVEIT.INFINISEE\_REAGENT1\_SMILES>  (771) 
[R1*]NCCc1ccc(cc1)CN(C)C

>  <s_sd_BIOSOLVEIT.INFINISEE\_REAGENT2\_SMILES>  (771) 
[R1*]CC=1SC(c2c([N+]([O-])=O)cccc2)=CC1

>  <s_sd_BIOSOLVEIT.INFINISEE\_SPACE>  (771) 
REALSpace_44bn_2023-08

>  <s_vsw_compound_code>  (771) 
55745

>  <s_vsw_variant>  (771) 
55745-1

>  <r_epik_Charging_Adjusted_Penalty>  (771) 
0.127492986648304

>  <r_epik_Ionization_Penalty>  (771) 
0.064399999999999999

>  <r_epik_Ionization_Penalty_Charging>  (771) 
0.064399999999999999

>  <r_epik_Ionization_Penalty_Neutral>  (771) 
0

>  <r_epik_State_Penalty>  (771) 
0.063100000000000003

>  <r_i_docking_score>  (771) 
-4.6813174398799298

>  <r_i_glide_ecoul>  (771) 
-9.7140598297119105

>  <r_i_glide_eff_state_penalty>  (771) 
0.063100000000000003

>  <r_i_glide_einternal>  (771) 
3.3538732528686501

>  <r_i_glide_emodel>  (771) 
-60.761633793980003

>  <r_i_glide_energy>  (771) 
-41.904664993286097

>  <r_i_glide_erotb>  (771) 
0.86709312904320202

>  <r_i_glide_esite>  (771) 
-0.227355258660458

>  <r_i_glide_evdw>  (771) 
-32.190605163574197

>  <r_i_glide_gscore>  (771) 
-4.7444174398799301

>  <r_i_glide_hbond>  (771) 
-0.17736364560123699

>  <r_i_glide_ligand_efficiency>  (771) 
-0.16718990856714

>  <r_i_glide_ligand_efficiency_ln>  (771) 
-1.0805855145768799

>  <r_i_glide_ligand_efficiency_sa>  (771) 
-0.507687031999973

>  <r_i_glide_lipo>  (771) 
-1.44152525020776

>  <r_i_glide_metal>  (771) 
-0

>  <r_i_glide_rewards>  (771) 
-0.69862718181817995

>  <r_lp_Energy>  (771) 
21.844825

>  <r_qp_ACxDN^.5/SA>  (771) 
0.0061678999999999996

>  <r_qp_CIQPlogS>  (771) 
-4.3810000000000002

>  <r_qp_EA(eV)>  (771) 
1.163

>  <r_qp_FISA>  (771) 
83.948999999999998

>  <r_qp_FOSA>  (771) 
279.774

>  <r_qp_IP(eV)>  (771) 
8.907

>  <r_qp_Jm>  (771) 
0.00012287324766996401

>  <r_qp_PISA>  (771) 
338.89100000000002

>  <r_qp_PSA>  (771) 
62.287999999999997

>  <r_qp_PercentHumanOralAbsorption>  (771) 
89.021000000000001

>  <r_qp_QPPCaco>  (771) 
98.540000000000006

>  <r_qp_QPPMDCK>  (771) 
69.513000000000005

>  <r_qp_QPlogBB>  (771) 
0.058999999999999997

>  <r_qp_QPlogHERG>  (771) 
-7.9210000000000003

>  <r_qp_QPlogKhsa>  (771) 
0.96899999999999997

>  <r_qp_QPlogKp>  (771) 
-5.2300000000000004

>  <r_qp_QPlogPC16>  (771) 
13.875

>  <r_qp_QPlogPo/w>  (771) 
4.508

>  <r_qp_QPlogPoct>  (771) 
18.885000000000002

>  <r_qp_QPlogPw>  (771) 
8.4930000000000003

>  <r_qp_QPlogS>  (771) 
-4.2779999999999996

>  <r_qp_QPpolrz>  (771) 
44.490000000000002

>  <r_qp_SASA>  (771) 
729.58399999999995

>  <r_qp_SAamideO>  (771) 
0

>  <r_qp_SAfluorine>  (771) 
0

>  <r_qp_WPSA>  (771) 
26.969999999999999

>  <r_qp_accptHB>  (771) 
4.5

>  <r_qp_dip^2/V>  (771) 
0.028735900000000002

>  <r_qp_dipole>  (771) 
6.1420000000000003

>  <r_qp_donorHB>  (771) 
1

>  <r_qp_glob>  (771) 
0.79479460000000002

>  <r_qp_mol_MW>  (771) 
395.51799999999997

>  <r_qp_volume>  (771) 
1312.9490000000001

>  <r_sd_BIOSOLVEIT.INFINISEE\_FTREES\_SIMILARITY>  (771) 
0.90400000000000003

>  <r_sd_BIOSOLVEIT.LOGP>  (771) 
2.2738999999999998

>  <r_sd_BIOSOLVEIT.MOLECULAR\_WEIGHT>  (771) 
397.53899999999999

>  <r_sd_BIOSOLVEIT.TPSA>  (771) 
66.870000000000005

>  <i_epik_Tot_Q>  (771) 
2

>  <i_epik_Tot_abs_Q>  (771) 
4

>  <i_f3d_flags>  (771) 
0

>  <i_i_glide_confnum>  (771) 
7

>  <i_i_glide_lignum>  (771) 
493

>  <i_i_glide_posenum>  (771) 
5

>  <i_i_glide_rotatable_bonds>  (771) 
9

>  <i_lp_mmshare_version>  (771) 
65135

>  <i_m_ct_format>  (771) 
2

>  <i_m_source_file_index>  (771) 
1743

>  <i_qp_#NandO>  (771) 
5

>  <i_qp_#acid>  (771) 
0

>  <i_qp_#amide>  (771) 
0

>  <i_qp_#amidine>  (771) 
0

>  <i_qp_#amine>  (771) 
2

>  <i_qp_#in34>  (771) 
0

>  <i_qp_#in56>  (771) 
17

>  <i_qp_#metab>  (771) 
7

>  <i_qp_#nonHatm>  (771) 
28

>  <i_qp_#noncon>  (771) 
0

>  <i_qp_#ringatoms>  (771) 
17

>  <i_qp_#rotor>  (771) 
8

>  <i_qp_#rtvFG>  (771) 
0

>  <i_qp_#stars>  (771) 
0

>  <i_qp_CNS>  (771) 
1

>  <i_qp_HumanOralAbsorption>  (771) 
3

>  <i_qp_RuleOfFive>  (771) 
0

>  <i_qp_RuleOfThree>  (771) 
1

>  <i_sd_BIOSOLVEIT.INFINISEE\_REAGENT1\_NAME>  (771) 
15775648

>  <i_sd_BIOSOLVEIT.INFINISEE\_REAGENT2\_NAME>  (771) 
7548542

>  <i_sd_BIOSOLVEIT.INFINISEE\_RESULT\_RANK>  (771) 
74221

>  <i_sd_version>  (771) 
0

>  <b_lp_Chiralities_Consistent>  (771) 
1

>  <b_sd_chiral_flag>  (771) 
0

>  <canonical_id>  (771) 
ATP-HTVS-79BEB139CB8F

>  <compound_code>  (771) 
55745

>  <title>  (771) 
m_270004bbb____15775648____7548542

>  <variant>  (771) 
55745-1

>  <source_file>  (771) 
运行/运行/ATP-VSW/ATP-VSW-DOCK_HTVS_1-001_lib/ATP-VSW-DOCK_HTVS_1-001_lib

>  <canonical_smiles>  (771) 
C[NH+](C)Cc1ccc(CC[NH2+]Cc2ccc(-c3ccccc3[N+](=O)[O-])s2)cc1

>  <scaffold>  (771) 
c1ccc(CC[NH2+]Cc2ccc(-c3ccccc3)s2)cc1

>  <molecular_formula>  (771) 
C22H27N3O2S+2

$$$$
ATP-HTVS-79C7807006E2
     RDKit          3D

 59 62  0  0  0  0  0  0  0  0999 V2000
  196.1855  179.5296  150.3402 F   0  0  0  0  0  0  0  0  0  0  0  0
  197.3161  178.7893  150.2543 C   0  0  0  0  0  0  0  0  0  0  0  0
  197.6365  178.1055  149.0647 C   0  0  0  0  0  0  0  0  0  0  0  0
  196.7547  178.1918  147.9153 C   0  0  0  0  0  0  0  0  0  0  0  0
  196.0503  178.2368  147.0037 N   0  0  0  0  0  0  0  0  0  0  0  0
  198.7844  177.2937  149.0004 C   0  0  0  0  0  0  0  0  0  0  0  0
  199.6379  177.1974  150.1145 C   0  0  0  0  0  0  0  0  0  0  0  0
  199.3319  177.8925  151.3049 C   0  0  0  0  0  0  0  0  0  0  0  0
  198.1610  178.6800  151.3770 C   0  0  0  0  0  0  0  0  0  0  0  0
  200.2858  177.8073  152.4573 C   0  0  0  0  0  0  0  0  0  0  0  0
  201.5004  177.8828  152.2706 O   0  0  0  0  0  0  0  0  0  0  0  0
  199.7162  177.5783  153.6473 N   0  0  0  0  0  0  0  0  0  0  0  0
  200.3949  177.2347  154.8371 C   0  0  0  0  0  0  0  0  0  0  0  0
  200.2293  178.0396  155.9987 C   0  0  0  0  0  0  0  0  0  0  0  0
  199.4571  179.2119  156.1244 N   0  0  0  0  0  0  0  0  0  0  0  0
  199.1221  180.1159  155.0406 C   0  0  1  0  0  0  0  0  0  0  0  0
  198.5463  181.4582  155.4794 C   0  0  0  0  0  0  0  0  0  0  0  0
  197.7849  181.5902  156.6655 C   0  0  0  0  0  0  0  0  0  0  0  0
  197.2537  182.8456  157.0401 C   0  0  0  0  0  0  0  0  0  0  0  0
  197.4753  183.9630  156.2076 C   0  0  0  0  0  0  0  0  0  0  0  0
  198.2196  183.8311  155.0229 C   0  0  0  0  0  0  0  0  0  0  0  0
  198.7578  182.5850  154.6593 C   0  0  0  0  0  0  0  0  0  0  0  0
  196.4623  183.0045  158.3352 C   0  0  1  0  0  0  0  0  0  0  0  0
  194.9929  182.9253  158.1200 N   0  0  2  0  0  0  0  0  0  0  0  0
  194.2049  183.7189  159.0886 C   0  0  2  0  0  0  0  0  0  0  0  0
  194.5079  181.5423  157.9818 C   0  0  2  0  0  0  0  0  0  0  0  0
  200.8494  177.6047  157.1788 C   0  0  0  0  0  0  0  0  0  0  0  0
  201.5395  176.4651  157.2769 N   0  0  0  0  0  0  0  0  0  0  0  0
  201.7605  175.7183  156.1827 C   0  0  0  0  0  0  0  0  0  0  0  0
  201.1441  176.0131  154.9366 C   0  0  0  0  0  0  0  0  0  0  0  0
  201.2618  175.0632  153.8856 C   0  0  0  0  0  0  0  0  0  0  0  0
  202.0412  173.8945  154.0396 C   0  0  0  0  0  0  0  0  0  0  0  0
  202.7500  173.6704  155.2293 C   0  0  0  0  0  0  0  0  0  0  0  0
  202.6175  174.5972  156.2795 C   0  0  0  0  0  0  0  0  0  0  0  0
  199.0095  176.7384  148.1028 H   0  0  0  0  0  0  0  0  0  0  0  0
  200.5251  176.5886  150.0579 H   0  0  0  0  0  0  0  0  0  0  0  0
  197.8961  179.2108  152.2794 H   0  0  0  0  0  0  0  0  0  0  0  0
  199.2166  179.5096  157.0559 H   0  0  0  0  0  0  0  0  0  0  0  0
  200.0342  180.2803  154.4664 H   0  0  0  0  0  0  0  0  0  0  0  0
  198.3903  179.6521  154.3877 H   0  0  0  0  0  0  0  0  0  0  0  0
  197.6001  180.7238  157.2840 H   0  0  0  0  0  0  0  0  0  0  0  0
  197.0779  184.9353  156.4655 H   0  0  0  0  0  0  0  0  0  0  0  0
  198.3808  184.6882  154.3832 H   0  0  0  0  0  0  0  0  0  0  0  0
  199.3249  182.4928  153.7440 H   0  0  0  0  0  0  0  0  0  0  0  0
  196.7728  182.2639  159.0747 H   0  0  0  0  0  0  0  0  0  0  0  0
  196.7354  183.9748  158.7532 H   0  0  0  0  0  0  0  0  0  0  0  0
  194.3610  183.3598  160.1061 H   0  0  0  0  0  0  0  0  0  0  0  0
  193.1397  183.6480  158.8562 H   0  0  0  0  0  0  0  0  0  0  0  0
  194.4786  184.7744  159.0479 H   0  0  0  0  0  0  0  0  0  0  0  0
  194.6858  180.9874  158.9046 H   0  0  0  0  0  0  0  0  0  0  0  0
  195.0239  181.0546  157.1579 H   0  0  0  0  0  0  0  0  0  0  0  0
  193.4400  181.5138  157.7513 H   0  0  0  0  0  0  0  0  0  0  0  0
  200.8371  178.2152  158.0705 H   0  0  0  0  0  0  0  0  0  0  0  0
  200.7302  175.1822  152.9537 H   0  0  0  0  0  0  0  0  0  0  0  0
  202.1041  173.1511  153.2545 H   0  0  0  0  0  0  0  0  0  0  0  0
  203.3400  172.7712  155.3551 H   0  0  0  0  0  0  0  0  0  0  0  0
  203.1420  174.4137  157.2052 H   0  0  0  0  0  0  0  0  0  0  0  0
  194.7966  183.3175  157.2036 H   0  0  0  0  0  0  0  0  0  0  0  0
  198.7094  177.5907  153.7243 H   0  0  0  0  0  0  0  0  0  0  0  0
  1  2  1  0
  2  3  2  0
  2  9  1  0
  3  4  1  0
  3  6  1  0
  4  5  3  0
  6  7  2  0
  6 35  1  0
  7  8  1  0
  7 36  1  0
  8  9  2  0
  8 10  1  0
  9 37  1  0
 10 11  2  0
 10 12  1  0
 12 13  1  0
 12 59  1  0
 13 14  2  0
 13 30  1  0
 14 15  1  0
 14 27  1  0
 15 16  1  0
 15 38  1  0
 16 17  1  0
 16 39  1  6
 16 40  1  0
 17 18  2  0
 17 22  1  0
 18 19  1  0
 18 41  1  0
 19 20  2  0
 19 23  1  0
 20 21  1  0
 20 42  1  0
 21 22  2  0
 21 43  1  0
 22 44  1  0
 23 24  1  0
 23 45  1  1
 23 46  1  0
 24 25  1  0
 24 26  1  0
 24 58  1  6
 25 47  1  1
 25 48  1  0
 25 49  1  0
 26 50  1  1
 26 51  1  0
 26 52  1  0
 27 28  2  0
 27 53  1  0
 28 29  1  0
 29 30  1  0
 29 34  2  0
 30 31  2  0
 31 32  1  0
 31 54  1  0
 32 33  2  0
 32 55  1  0
 33 34  1  0
 33 56  1  0
 34 57  1  0
M  CHG  1  24   1
M  END
>  <s_epik_cmdline>  (772) 
J2VwaWtfcHl0aG9uJywgJy1waCcsICc3LjAwMDAwMCcsICctcGh0JywgJzIuMDAwMDAwJywgJy1tcycsICcxNicsICctdG4nLCAnOCcsICctbWEnLCAnMjAwJywgJy1pbWFlJywgJzxpbmZpbGUubWFlPicsICctb21hZScsICc8b3V0ZmlsZS5tYWU+Jw==

>  <s_epik_input>  (772) 
RmMxYyhDI04pW2NIXVtjSF1jKFtjSF0xKUMoPU8pW05IXWMoYyhjMjMpW2NIXVtjSF1bY0hdW2NIXTMpYyhbY0hdbjIpW05IXVtDSDJdYzRbY0hdYyhbY0hdW2NIXVtjSF00KVtDSDJdTihbQ0gzXSlbQ0gzXQ==

>  <s_i_glide_gridfile>  (772) 
ATP-Grid

>  <s_lp_Force_Field>  (772) 
OPLS_2005

>  <s_lp_Variant>  (772) 
rxn502b____EMOL911931____EMOL13728749____EMOL2873214-1

>  <s_lp_label>  (772) 
2326_sdstereoexpander_1_neutralizer_1_epik_1_stereoizer_1

>  <s_m_source_file>  (772) 
ATP-VSW-LIGPREP-002-in.maegz

>  <s_sd_BIOSOLVEIT.INFINISEE\_QUERY\_NAME>  (772) 
Ref-Lig

>  <s_sd_BIOSOLVEIT.INFINISEE\_QUERY\_SMILES>  (772) 
S(c1nc2c(cc1C[NH2+]Cc3ccc(cc3)C[NH+](C)C)cccc2)Cc4ccccc4

>  <s_sd_BIOSOLVEIT.INFINISEE\_REACTION\_NAME>  (772) 
rxn502b

>  <s_sd_BIOSOLVEIT.INFINISEE\_REAGENT1\_NAME>  (772) 
EMOL911931

>  <s_sd_BIOSOLVEIT.INFINISEE\_REAGENT1\_SMILES>  (772) 
Fc1c(C#N)ccc(c1)C(=O)O

>  <s_sd_BIOSOLVEIT.INFINISEE\_REAGENT2\_NAME>  (772) 
EMOL13728749

>  <s_sd_BIOSOLVEIT.INFINISEE\_REAGENT2\_SMILES>  (772) 
Brc1c(N)c2c(nc1)cccc2

>  <s_sd_BIOSOLVEIT.INFINISEE\_REAGENT3\_NAME>  (772) 
EMOL2873214

>  <s_sd_BIOSOLVEIT.INFINISEE\_REAGENT3\_SMILES>  (772) 
N(Cc1cc(ccc1)CN)(C)C

>  <s_sd_BIOSOLVEIT.INFINISEE\_SPACE>  (772) 
eXplore_7tr_2022-12

>  <s_vsw_compound_code>  (772) 
74402

>  <s_vsw_variant>  (772) 
74402-1

>  <r_epik_Charging_Adjusted_Penalty>  (772) 
0.247624976332734

>  <r_epik_Ionization_Penalty>  (772) 
0.084099999999999994

>  <r_epik_Ionization_Penalty_Charging>  (772) 
0.0441

>  <r_epik_Ionization_Penalty_Neutral>  (772) 
0.040000000000000001

>  <r_epik_State_Penalty>  (772) 
0.20349999999999999

>  <r_i_docking_score>  (772) 
-4.3946210399897003

>  <r_i_glide_ecoul>  (772) 
-6.8097119331359899

>  <r_i_glide_eff_state_penalty>  (772) 
0.20349999999999999

>  <r_i_glide_einternal>  (772) 
5.7330069541931197

>  <r_i_glide_emodel>  (772) 
-56.066055482675203

>  <r_i_glide_energy>  (772) 
-41.825859546661398

>  <r_i_glide_erotb>  (772) 
0.68044991927848297

>  <r_i_glide_esite>  (772) 
-0.13953064701091

>  <r_i_glide_evdw>  (772) 
-35.016147613525398

>  <r_i_glide_gscore>  (772) 
-4.5981210399897003

>  <r_i_glide_hbond>  (772) 
-0.14893210866312201

>  <r_i_glide_ligand_efficiency>  (772) 
-0.12925355999969701

>  <r_i_glide_ligand_efficiency_ln>  (772) 
-0.97089505267863496

>  <r_i_glide_ligand_efficiency_sa>  (772) 
-0.41873135783994703

>  <r_i_glide_lipo>  (772) 
-1.4244251519055999

>  <r_i_glide_metal>  (772) 
-0

>  <r_i_glide_rewards>  (772) 
-0.79341888104188096

>  <r_lp_Energy>  (772) 
35.005856999999999

>  <r_qp_ACxDN^.5/SA>  (772) 
0.015507099999999999

>  <r_qp_CIQPlogS>  (772) 
-6.4640000000000004

>  <r_qp_EA(eV)>  (772) 
1.3280000000000001

>  <r_qp_FISA>  (772) 
125.373

>  <r_qp_FOSA>  (772) 
204.40000000000001

>  <r_qp_IP(eV)>  (772) 
8.3829999999999991

>  <r_qp_Jm>  (772) 
0.000342372855848283

>  <r_qp_PISA>  (772) 
358.334

>  <r_qp_PSA>  (772) 
81.159000000000006

>  <r_qp_PercentHumanOralAbsorption>  (772) 
87.873999999999995

>  <r_qp_QPPCaco>  (772) 
159.91300000000001

>  <r_qp_QPPMDCK>  (772) 
127.327

>  <r_qp_QPlogBB>  (772) 
-0.65700000000000003

>  <r_qp_QPlogHERG>  (772) 
-6.8579999999999997

>  <r_qp_QPlogKhsa>  (772) 
0.44600000000000001

>  <r_qp_QPlogKp>  (772) 
-3.8620000000000001

>  <r_qp_QPlogPC16>  (772) 
14.605

>  <r_qp_QPlogPo/w>  (772) 
3.669

>  <r_qp_QPlogPoct>  (772) 
23.506

>  <r_qp_QPlogPw>  (772) 
13.824

>  <r_qp_QPlogS>  (772) 
-5.2599999999999998

>  <r_qp_QPpolrz>  (772) 
47.332000000000001

>  <r_qp_SASA>  (772) 
729.58100000000002

>  <r_qp_SAamideO>  (772) 
0

>  <r_qp_SAfluorine>  (772) 
41.473999999999997

>  <r_qp_WPSA>  (772) 
41.473999999999997

>  <r_qp_accptHB>  (772) 
8

>  <r_qp_dip^2/V>  (772) 
0.0163874

>  <r_qp_dipole>  (772) 
4.7539999999999996

>  <r_qp_donorHB>  (772) 
2

>  <r_qp_glob>  (772) 
0.82136240000000005

>  <r_qp_mol_MW>  (772) 
453.51799999999997

>  <r_qp_volume>  (772) 
1379.3209999999999

>  <r_sd_BIOSOLVEIT.INFINISEE\_FTREES\_SIMILARITY>  (772) 
0.92200000000000004

>  <r_sd_BIOSOLVEIT.LOGP>  (772) 
3.75448

>  <r_sd_BIOSOLVEIT.MOLECULAR\_WEIGHT>  (772) 
454.52699999999999

>  <r_sd_BIOSOLVEIT.TPSA>  (772) 
82.25

>  <i_epik_Tot_Q>  (772) 
1

>  <i_epik_Tot_abs_Q>  (772) 
1

>  <i_f3d_flags>  (772) 
0

>  <i_i_glide_confnum>  (772) 
2

>  <i_i_glide_lignum>  (772) 
938

>  <i_i_glide_posenum>  (772) 
12

>  <i_i_glide_rotatable_bonds>  (772) 
8

>  <i_lp_mmshare_version>  (772) 
65135

>  <i_m_ct_format>  (772) 
2

>  <i_m_source_file_index>  (772) 
2326

>  <i_qp_#NandO>  (772) 
6

>  <i_qp_#acid>  (772) 
0

>  <i_qp_#amide>  (772) 
0

>  <i_qp_#amidine>  (772) 
0

>  <i_qp_#amine>  (772) 
1

>  <i_qp_#in34>  (772) 
0

>  <i_qp_#in56>  (772) 
22

>  <i_qp_#metab>  (772) 
6

>  <i_qp_#nonHatm>  (772) 
34

>  <i_qp_#noncon>  (772) 
0

>  <i_qp_#ringatoms>  (772) 
22

>  <i_qp_#rotor>  (772) 
8

>  <i_qp_#rtvFG>  (772) 
0

>  <i_qp_#stars>  (772) 
0

>  <i_qp_CNS>  (772) 
1

>  <i_qp_HumanOralAbsorption>  (772) 
3

>  <i_qp_RuleOfFive>  (772) 
0

>  <i_qp_RuleOfThree>  (772) 
0

>  <i_sd_BIOSOLVEIT.INFINISEE\_RESULT\_RANK>  (772) 
13621

>  <i_sd_version>  (772) 
0

>  <b_lp_Chiralities_Consistent>  (772) 
1

>  <b_sd_chiral_flag>  (772) 
0

>  <canonical_id>  (772) 
ATP-HTVS-79C7807006E2

>  <compound_code>  (772) 
74402

>  <title>  (772) 
rxn502b____EMOL911931____EMOL13728749____EMOL2873214

>  <variant>  (772) 
74402-1

>  <source_file>  (772) 
运行/运行/ATP-VSW/ATP-VSW-DOCK_HTVS_1-002_lib.maegz

>  <canonical_smiles>  (772) 
C[NH+](C)Cc1cccc(CNc2cnc3ccccc3c2NC(=O)c2ccc(C#N)c(F)c2)c1

>  <scaffold>  (772) 
O=C(Nc1c(NCc2ccccc2)cnc2ccccc12)c1ccccc1

>  <molecular_formula>  (772) 
C27H25FN5O+

$$$$
ATP-HTVS-79E4EBD82D6A
     RDKit          3D

 62 65  0  0  0  0  0  0  0  0999 V2000
  199.0750  195.4575  157.7972 F   0  0  0  0  0  0  0  0  0  0  0  0
  198.9617  194.1939  158.2756 C   0  0  0  0  0  0  0  0  0  0  0  0
  198.6539  193.1327  157.4050 C   0  0  0  0  0  0  0  0  0  0  0  0
  198.5381  191.8235  157.8986 C   0  0  0  0  0  0  0  0  0  0  0  0
  198.6930  191.5555  159.2816 C   0  0  0  0  0  0  0  0  0  0  0  0
  198.5440  190.2472  159.8253 N   0  0  0  0  0  0  0  0  0  0  0  0
  197.7890  189.2464  159.3293 C   0  0  0  0  0  0  0  0  0  0  0  0
  197.1333  189.3175  158.2952 O   0  0  0  0  0  0  0  0  0  0  0  0
  197.7725  187.9680  160.1589 C   0  0  1  0  0  0  0  0  0  0  0  0
  196.7590  187.0060  159.7198 N   0  0  0  0  0  0  0  0  0  0  0  0
  197.0952  185.7411  159.2047 C   0  0  0  0  0  0  0  0  0  0  0  0
  198.3745  185.4977  158.8664 N   0  0  0  0  0  0  0  0  0  0  0  0
  198.7160  184.2964  158.4091 C   0  0  0  0  0  0  0  0  0  0  0  0
  197.8436  183.2939  158.2952 N   0  0  0  0  0  0  0  0  0  0  0  0
  196.5497  183.4845  158.5838 C   0  0  0  0  0  0  0  0  0  0  0  0
  196.1121  184.7359  159.0680 C   0  0  0  0  0  0  0  0  0  0  0  0
  194.7467  184.9075  159.3744 C   0  0  0  0  0  0  0  0  0  0  0  0
  193.8429  183.8385  159.1724 C   0  0  0  0  0  0  0  0  0  0  0  0
  194.2946  182.5985  158.6716 C   0  0  0  0  0  0  0  0  0  0  0  0
  195.6572  182.4209  158.3859 C   0  0  0  0  0  0  0  0  0  0  0  0
  200.0233  184.0974  158.0146 N   0  0  0  0  0  0  0  0  0  0  0  0
  200.5370  182.9476  157.2591 C   0  0  1  0  0  0  0  0  0  0  0  0
  199.5672  182.3319  156.2587 C   0  0  0  0  0  0  0  0  0  0  0  0
  199.0078  183.1260  155.2357 C   0  0  0  0  0  0  0  0  0  0  0  0
  198.0369  182.5865  154.3721 C   0  0  0  0  0  0  0  0  0  0  0  0
  197.6186  181.2495  154.5219 C   0  0  0  0  0  0  0  0  0  0  0  0
  198.1655  180.4558  155.5502 C   0  0  0  0  0  0  0  0  0  0  0  0
  199.1326  180.9968  156.4188 C   0  0  0  0  0  0  0  0  0  0  0  0
  196.6028  180.6631  153.5608 C   0  0  1  0  0  0  0  0  0  0  0  0
  197.2093  179.9099  152.4620 N   0  0  0  0  0  0  0  0  0  0  0  0
  198.0116  180.7746  151.6018 C   0  0  2  0  0  0  0  0  0  0  0  0
  196.1581  179.3113  151.6527 C   0  0  2  0  0  0  0  0  0  0  0  0
  199.0240  192.6223  160.1505 C   0  0  0  0  0  0  0  0  0  0  0  0
  199.1497  193.9365  159.6475 C   0  0  0  0  0  0  0  0  0  0  0  0
  198.5125  193.3177  156.3539 H   0  0  0  0  0  0  0  0  0  0  0  0
  198.3334  191.0437  157.1785 H   0  0  0  0  0  0  0  0  0  0  0  0
  198.9957  190.0613  160.7171 H   0  0  0  0  0  0  0  0  0  0  0  0
  198.8027  187.5823  160.1315 H   0  0  0  0  0  0  0  0  0  0  0  0
  197.5146  188.2366  161.1842 H   0  0  0  0  0  0  0  0  0  0  0  0
  195.7962  187.2083  159.9327 H   0  0  0  0  0  0  0  0  0  0  0  0
  194.3553  185.8453  159.7393 H   0  0  0  0  0  0  0  0  0  0  0  0
  192.7953  183.9751  159.3998 H   0  0  0  0  0  0  0  0  0  0  0  0
  193.6055  181.7820  158.5165 H   0  0  0  0  0  0  0  0  0  0  0  0
  195.9861  181.4675  157.9958 H   0  0  0  0  0  0  0  0  0  0  0  0
  200.6611  184.8630  158.1843 H   0  0  0  0  0  0  0  0  0  0  0  0
  201.4279  183.2664  156.7168 H   0  0  0  0  0  0  0  0  0  0  0  0
  200.8661  182.1839  157.9646 H   0  0  0  0  0  0  0  0  0  0  0  0
  199.2925  184.1631  155.1329 H   0  0  0  0  0  0  0  0  0  0  0  0
  197.5948  183.2086  153.6075 H   0  0  0  0  0  0  0  0  0  0  0  0
  197.8207  179.4416  155.6995 H   0  0  0  0  0  0  0  0  0  0  0  0
  199.5047  180.3869  157.2304 H   0  0  0  0  0  0  0  0  0  0  0  0
  195.9532  179.9947  154.1285 H   0  0  0  0  0  0  0  0  0  0  0  0
  195.9657  181.4590  153.1689 H   0  0  0  0  0  0  0  0  0  0  0  0
  198.4364  180.2106  150.7696 H   0  0  0  0  0  0  0  0  0  0  0  0
  198.8485  181.2058  152.1506 H   0  0  0  0  0  0  0  0  0  0  0  0
  197.4141  181.5906  151.1928 H   0  0  0  0  0  0  0  0  0  0  0  0
  196.5894  178.7312  150.8361 H   0  0  0  0  0  0  0  0  0  0  0  0
  195.5072  180.0734  151.2216 H   0  0  0  0  0  0  0  0  0  0  0  0
  195.5482  178.6374  152.2535 H   0  0  0  0  0  0  0  0  0  0  0  0
  199.1757  192.4444  161.2059 H   0  0  0  0  0  0  0  0  0  0  0  0
  199.3940  194.7532  160.3159 H   0  0  0  0  0  0  0  0  0  0  0  0
  198.1196  182.3919  157.9102 H   0  0  0  0  0  0  0  0  0  0  0  0
  1  2  1  0
  2  3  1  0
  2 34  2  0
  3  4  2  0
  3 35  1  0
  4  5  1  0
  4 36  1  0
  5  6  1  0
  5 33  2  0
  6  7  1  0
  6 37  1  0
  7  8  2  0
  7  9  1  0
  9 10  1  0
  9 38  1  1
  9 39  1  0
 10 11  1  0
 10 40  1  0
 11 12  2  0
 11 16  1  0
 12 13  1  0
 13 14  2  0
 13 21  1  0
 14 15  1  0
 14 62  1  0
 15 16  1  0
 15 20  2  0
 16 17  2  0
 17 18  1  0
 17 41  1  0
 18 19  2  0
 18 42  1  0
 19 20  1  0
 19 43  1  0
 20 44  1  0
 21 22  1  0
 21 45  1  0
 22 23  1  0
 22 46  1  6
 22 47  1  0
 23 24  1  0
 23 28  2  0
 24 25  2  0
 24 48  1  0
 25 26  1  0
 25 49  1  0
 26 27  2  0
 26 29  1  0
 27 28  1  0
 27 50  1  0
 28 51  1  0
 29 30  1  0
 29 52  1  1
 29 53  1  0
 30 31  1  0
 30 32  1  0
 31 54  1  6
 31 55  1  0
 31 56  1  0
 32 57  1  6
 32 58  1  0
 32 59  1  0
 33 34  1  0
 33 60  1  0
 34 61  1  0
M  CHG  1  14   1
M  END
>  <s_epik_cmdline>  (773) 
J2VwaWtfcHl0aG9uJywgJy1waCcsICc3LjAwMDAwMCcsICctcGh0JywgJzIuMDAwMDAwJywgJy1tcycsICcxNicsICctdG4nLCAnOCcsICctbWEnLCAnMjAwJywgJy1pbWFlJywgJzxpbmZpbGUubWFlPicsICctb21hZScsICc8b3V0ZmlsZS5tYWU+Jw==

>  <s_epik_input>  (773) 
RmMxW2NIXVtjSF1jKFtjSF1bY0hdMSlbTkhdQyg9TylbQ0gyXVtOSF1jKGMoYzIzKVtjSF1bY0hdW2NIXVtjSF0zKW5jKG4yKVtOSF1bQ0gyXWM0W2NIXVtjSF1jKFtjSF1bY0hdNClbQ0gyXU4oW0NIM10pW0NIM10=

>  <s_i_glide_gridfile>  (773) 
ATP-Grid

>  <s_lp_Force_Field>  (773) 
OPLS_2005

>  <s_lp_Variant>  (773) 
m_282030aaa____21912438____22360182____21945542-2

>  <s_lp_label>  (773) 
1994_sdstereoexpander_1_neutralizer_1_epik_2_stereoizer_1

>  <s_m_source_file>  (773) 
ATP-VSW-LIGPREP-001-in.maegz

>  <s_sd_BIOSOLVEIT.INFINISEE\_QUERY\_NAME>  (773) 
Ref-Lig

>  <s_sd_BIOSOLVEIT.INFINISEE\_QUERY\_SMILES>  (773) 
S(c1nc2c(cc1C[NH2+]Cc3ccc(cc3)C[NH+](C)C)cccc2)Cc4ccccc4

>  <s_sd_BIOSOLVEIT.INFINISEE\_REACTION\_NAME>  (773) 
m_282030aaa

>  <s_sd_BIOSOLVEIT.INFINISEE\_REAGENT1\_SMILES>  (773) 
[R1*]NCC(=O)Nc1ccc(F)cc1

>  <s_sd_BIOSOLVEIT.INFINISEE\_REAGENT2\_SMILES>  (773) 
[R2*]c1nc([R1*])c2c(n1)cccc2

>  <s_sd_BIOSOLVEIT.INFINISEE\_REAGENT3\_SMILES>  (773) 
[R2*]NCc1ccc(cc1)CN(C)C

>  <s_sd_BIOSOLVEIT.INFINISEE\_SPACE>  (773) 
REALSpace_44bn_2023-08

>  <s_vsw_compound_code>  (773) 
63777

>  <s_vsw_variant>  (773) 
63777-2

>  <r_epik_Charging_Adjusted_Penalty>  (773) 
1.6441043641450499

>  <r_epik_Ionization_Penalty>  (773) 
1.6366000000000001

>  <r_epik_Ionization_Penalty_Charging>  (773) 
0.0080999999999999996

>  <r_epik_Ionization_Penalty_Neutral>  (773) 
1.6285000000000001

>  <r_epik_State_Penalty>  (773) 
1.6359999999999999

>  <r_i_docking_score>  (773) 
-1.73332368143626

>  <r_i_glide_ecoul>  (773) 
-4.86098432540894

>  <r_i_glide_eff_state_penalty>  (773) 
1.6359999999999999

>  <r_i_glide_einternal>  (773) 
3.52474069595337

>  <r_i_glide_emodel>  (773) 
-50.022286927258499

>  <r_i_glide_energy>  (773) 
-40.063365459442103

>  <r_i_glide_erotb>  (773) 
0.76226179845369901

>  <r_i_glide_esite>  (773) 
-0.071155187932508995

>  <r_i_glide_evdw>  (773) 
-35.202381134033203

>  <r_i_glide_gscore>  (773) 
-3.3693236814362599

>  <r_i_glide_hbond>  (773) 
-0.16

>  <r_i_glide_ligand_efficiency>  (773) 
-0.050980108277537198

>  <r_i_glide_ligand_efficiency_ln>  (773) 
-0.38293981931173099

>  <r_i_glide_ligand_efficiency_sa>  (773) 
-0.16515576021218101

>  <r_i_glide_lipo>  (773) 
-1.08105597231633

>  <r_i_glide_metal>  (773) 
-0

>  <r_i_glide_rewards>  (773) 
-0.330107614128129

>  <r_lp_Energy>  (773) 
17.127624000000001

>  <r_qp_ACxDN^.5/SA>  (773) 
0.0143255

>  <r_qp_CIQPlogS>  (773) 
-6.0289999999999999

>  <r_qp_EA(eV)>  (773) 
0.57299999999999995

>  <r_qp_FISA>  (773) 
75.263999999999996

>  <r_qp_FOSA>  (773) 
216.99199999999999

>  <r_qp_IP(eV)>  (773) 
8.0289999999999999

>  <r_qp_Jm>  (773) 
0.062648692654080296

>  <r_qp_PISA>  (773) 
376.52499999999998

>  <r_qp_PSA>  (773) 
80.718000000000004

>  <r_qp_PercentHumanOralAbsorption>  (773) 
100

>  <r_qp_QPPCaco>  (773) 
477.60300000000001

>  <r_qp_QPPMDCK>  (773) 
397.649

>  <r_qp_QPlogBB>  (773) 
-0.183

>  <r_qp_QPlogHERG>  (773) 
-6.4960000000000004

>  <r_qp_QPlogKhsa>  (773) 
0.64900000000000002

>  <r_qp_QPlogKp>  (773) 
-2.7789999999999999

>  <r_qp_QPlogPC16>  (773) 
14.436999999999999

>  <r_qp_QPlogPo/w>  (773) 
4.5250000000000004

>  <r_qp_QPlogPoct>  (773) 
23.032

>  <r_qp_QPlogPw>  (773) 
12.465

>  <r_qp_QPlogS>  (773) 
-4.0860000000000003

>  <r_qp_QPpolrz>  (773) 
46.984000000000002

>  <r_qp_SASA>  (773) 
706.78099999999995

>  <r_qp_SAamideO>  (773) 
0

>  <r_qp_SAfluorine>  (773) 
37.999000000000002

>  <r_qp_WPSA>  (773) 
37.999000000000002

>  <r_qp_accptHB>  (773) 
6.75

>  <r_qp_dip^2/V>  (773) 
0.024332300000000001

>  <r_qp_dipole>  (773) 
5.7999999999999998

>  <r_qp_donorHB>  (773) 
2.25

>  <r_qp_glob>  (773) 
0.84909590000000001

>  <r_qp_mol_MW>  (773) 
458.53699999999998

>  <r_qp_volume>  (773) 
1382.3389999999999

>  <r_sd_BIOSOLVEIT.INFINISEE\_FTREES\_SIMILARITY>  (773) 
0.90200000000000002

>  <r_sd_BIOSOLVEIT.LOGP>  (773) 
3.0760999999999998

>  <r_sd_BIOSOLVEIT.MOLECULAR\_WEIGHT>  (773) 
459.54599999999999

>  <r_sd_BIOSOLVEIT.TPSA>  (773) 
83.379999999999995

>  <i_epik_Tot_Q>  (773) 
1

>  <i_epik_Tot_abs_Q>  (773) 
1

>  <i_f3d_flags>  (773) 
0

>  <i_i_glide_confnum>  (773) 
6

>  <i_i_glide_lignum>  (773) 
606

>  <i_i_glide_posenum>  (773) 
1

>  <i_i_glide_rotatable_bonds>  (773) 
10

>  <i_lp_mmshare_version>  (773) 
65135

>  <i_m_ct_format>  (773) 
2

>  <i_m_source_file_index>  (773) 
1994

>  <i_qp_#NandO>  (773) 
7

>  <i_qp_#acid>  (773) 
0

>  <i_qp_#amide>  (773) 
0

>  <i_qp_#amidine>  (773) 
0

>  <i_qp_#amine>  (773) 
1

>  <i_qp_#in34>  (773) 
0

>  <i_qp_#in56>  (773) 
22

>  <i_qp_#metab>  (773) 
4

>  <i_qp_#nonHatm>  (773) 
34

>  <i_qp_#noncon>  (773) 
0

>  <i_qp_#ringatoms>  (773) 
22

>  <i_qp_#rotor>  (773) 
9

>  <i_qp_#rtvFG>  (773) 
0

>  <i_qp_#stars>  (773) 
0

>  <i_qp_CNS>  (773) 
0

>  <i_qp_HumanOralAbsorption>  (773) 
3

>  <i_qp_RuleOfFive>  (773) 
0

>  <i_qp_RuleOfThree>  (773) 
0

>  <i_sd_BIOSOLVEIT.INFINISEE\_REAGENT1\_NAME>  (773) 
21912438

>  <i_sd_BIOSOLVEIT.INFINISEE\_REAGENT2\_NAME>  (773) 
22360182

>  <i_sd_BIOSOLVEIT.INFINISEE\_REAGENT3\_NAME>  (773) 
21945542

>  <i_sd_BIOSOLVEIT.INFINISEE\_RESULT\_RANK>  (773) 
90416

>  <i_sd_version>  (773) 
0

>  <b_lp_Chiralities_Consistent>  (773) 
1

>  <b_sd_chiral_flag>  (773) 
0

>  <canonical_id>  (773) 
ATP-HTVS-79E4EBD82D6A

>  <compound_code>  (773) 
63777

>  <title>  (773) 
m_282030aaa____21912438____22360182____21945542

>  <variant>  (773) 
63777-2

>  <source_file>  (773) 
运行/运行/ATP-VSW/ATP-VSW-DOCK_HTVS_1-001_lib/ATP-VSW-DOCK_HTVS_1-001_lib

>  <canonical_smiles>  (773) 
CN(C)Cc1ccc(CNc2nc(NCC(=O)Nc3ccc(F)cc3)c3ccccc3[nH+]2)cc1

>  <scaffold>  (773) 
O=C(CNc1nc(NCc2ccccc2)[nH+]c2ccccc12)Nc1ccccc1

>  <molecular_formula>  (773) 
C26H28FN6O+

$$$$
ATP-HTVS-79EE8ED1543F
     RDKit          3D

 51 54  0  0  0  0  0  0  0  0999 V2000
  198.8154  180.2540  156.6321 O   0  0  0  0  0  0  0  0  0  0  0  0
  198.2451  181.2320  155.7898 C   0  0  1  0  0  0  0  0  0  0  0  0
  197.9423  180.6816  154.3963 C   0  0  0  0  0  0  0  0  0  0  0  0
  197.0775  181.3794  153.5278 C   0  0  0  0  0  0  0  0  0  0  0  0
  196.8066  180.8807  152.2395 C   0  0  0  0  0  0  0  0  0  0  0  0
  197.4254  179.6946  151.7762 C   0  0  0  0  0  0  0  0  0  0  0  0
  197.1395  179.1908  150.4886 N   0  0  0  0  0  0  0  0  0  0  0  0
  196.1243  179.8381  149.6682 C   0  0  2  0  0  0  0  0  0  0  0  0
  197.9420  178.1042  149.9404 C   0  0  2  0  0  0  0  0  0  0  0  0
  198.3311  179.0254  152.6319 C   0  0  0  0  0  0  0  0  0  0  0  0
  198.5775  179.5096  153.9308 C   0  0  0  0  0  0  0  0  0  0  0  0
  197.0167  181.8372  156.5013 C   0  0  1  0  0  0  0  0  0  0  0  0
  197.3461  182.7581  157.6748 C   0  0  0  0  0  0  0  0  0  0  0  0
  196.3329  183.3888  158.4317 C   0  0  0  0  0  0  0  0  0  0  0  0
  196.7125  184.2960  159.4594 C   0  0  0  0  0  0  0  0  0  0  0  0
  198.0049  184.5680  159.7307 N   0  0  0  0  0  0  0  0  0  0  0  0
  198.9748  183.9408  159.0402 C   0  0  0  0  0  0  0  0  0  0  0  0
  200.3617  184.2526  159.4111 C   0  0  0  0  0  0  0  0  0  0  0  0
  200.7447  185.5666  159.7500 C   0  0  0  0  0  0  0  0  0  0  0  0
  202.0871  185.8216  160.0882 C   0  0  0  0  0  0  0  0  0  0  0  0
  203.0436  184.8694  160.0921 N   0  0  0  0  0  0  0  0  0  0  0  0
  202.6848  183.6169  159.7498 C   0  0  0  0  0  0  0  0  0  0  0  0
  201.3680  183.2608  159.4035 C   0  0  0  0  0  0  0  0  0  0  0  0
  198.6916  183.0384  157.9933 C   0  0  0  0  0  0  0  0  0  0  0  0
  195.7059  184.9279  160.2093 C   0  0  0  0  0  0  0  0  0  0  0  0
  194.3428  184.6896  159.9549 C   0  0  0  0  0  0  0  0  0  0  0  0
  193.9679  183.8006  158.9338 C   0  0  0  0  0  0  0  0  0  0  0  0
  194.9621  183.1526  158.1745 C   0  0  0  0  0  0  0  0  0  0  0  0
  198.1641  179.6266  156.9077 H   0  0  0  0  0  0  0  0  0  0  0  0
  198.9859  182.0075  155.6291 H   0  0  0  0  0  0  0  0  0  0  0  0
  196.6239  182.3116  153.8330 H   0  0  0  0  0  0  0  0  0  0  0  0
  196.1178  181.4447  151.6315 H   0  0  0  0  0  0  0  0  0  0  0  0
  195.1503  179.7597  150.1528 H   0  0  0  0  0  0  0  0  0  0  0  0
  196.0579  179.3818  148.6811 H   0  0  0  0  0  0  0  0  0  0  0  0
  196.3538  180.8938  149.5305 H   0  0  0  0  0  0  0  0  0  0  0  0
  197.8701  177.2144  150.5704 H   0  0  0  0  0  0  0  0  0  0  0  0
  198.9914  178.4026  149.8796 H   0  0  0  0  0  0  0  0  0  0  0  0
  197.6016  177.8338  148.9396 H   0  0  0  0  0  0  0  0  0  0  0  0
  198.8438  178.1236  152.3335 H   0  0  0  0  0  0  0  0  0  0  0  0
  199.2837  178.9765  154.5505 H   0  0  0  0  0  0  0  0  0  0  0  0
  196.4413  182.4742  155.8047 H   0  0  0  0  0  0  0  0  0  0  0  0
  196.3450  181.0427  156.8337 H   0  0  0  0  0  0  0  0  0  0  0  0
  200.0169  186.3625  159.7417 H   0  0  0  0  0  0  0  0  0  0  0  0
  202.3949  186.8203  160.3582 H   0  0  0  0  0  0  0  0  0  0  0  0
  203.4688  182.8761  159.7578 H   0  0  0  0  0  0  0  0  0  0  0  0
  201.1419  182.2384  159.1306 H   0  0  0  0  0  0  0  0  0  0  0  0
  199.5004  182.5960  157.4317 H   0  0  0  0  0  0  0  0  0  0  0  0
  195.9982  185.6008  160.9990 H   0  0  0  0  0  0  0  0  0  0  0  0
  193.5873  185.1996  160.5366 H   0  0  0  0  0  0  0  0  0  0  0  0
  192.9193  183.6479  158.7195 H   0  0  0  0  0  0  0  0  0  0  0  0
  194.6514  182.4912  157.3793 H   0  0  0  0  0  0  0  0  0  0  0  0
  1  2  1  0
  1 29  1  0
  2  3  1  0
  2 12  1  0
  2 30  1  6
  3  4  1  0
  3 11  2  0
  4  5  2  0
  4 31  1  0
  5  6  1  0
  5 32  1  0
  6  7  1  0
  6 10  2  0
  7  8  1  0
  7  9  1  0
  8 33  1  1
  8 34  1  0
  8 35  1  0
  9 36  1  1
  9 37  1  0
  9 38  1  0
 10 11  1  0
 10 39  1  0
 11 40  1  0
 12 13  1  0
 12 41  1  6
 12 42  1  0
 13 14  1  0
 13 24  2  0
 14 15  1  0
 14 28  2  0
 15 16  1  0
 15 25  2  0
 16 17  2  0
 17 18  1  0
 17 24  1  0
 18 19  2  0
 18 23  1  0
 19 20  1  0
 19 43  1  0
 20 21  2  0
 20 44  1  0
 21 22  1  0
 22 23  2  0
 22 45  1  0
 23 46  1  0
 24 47  1  0
 25 26  1  0
 25 48  1  0
 26 27  2  0
 26 49  1  0
 27 28  1  0
 27 50  1  0
 28 51  1  0
M  END
>  <s_epik_cmdline>  (774) 
J2VwaWtfcHl0aG9uJywgJy1waCcsICc3LjAwMDAwMCcsICctcGh0JywgJzIuMDAwMDAwJywgJy1tcycsICcxNicsICctdG4nLCAnOCcsICctbWEnLCAnMjAwJywgJy1pbWFlJywgJzxpbmZpbGUubWFlPicsICctb21hZScsICc8b3V0ZmlsZS5tYWU+Jw==

>  <s_epik_input>  (774) 
W0NIM11OKFtDSDNdKWMoW2NIXVtjSF0xKVtjSF1bY0hdYzFbQ0BIXShbT0hdKVtDSDJdYzJbY0hdYyhuYyhjMjMpW2NIXVtjSF1bY0hdW2NIXTMpLWM0W2NIXVtjSF1uW2NIXVtjSF00

>  <s_i_glide_gridfile>  (774) 
ATP-Grid

>  <s_lp_Force_Field>  (774) 
OPLS_2005

>  <s_lp_Variant>  (774) 
rxn112____EMOL628199____EMOL193759265-1

>  <s_lp_label>  (774) 
2782_sdstereoexpander_1_neutralizer_1_epik_1_stereoizer_1

>  <s_m_source_file>  (774) 
ATP-VSW-LIGPREP-001-in.maegz

>  <s_sd_BIOSOLVEIT.INFINISEE\_QUERY\_NAME>  (774) 
Ref-Lig

>  <s_sd_BIOSOLVEIT.INFINISEE\_QUERY\_SMILES>  (774) 
S(c1nc2c(cc1C[NH2+]Cc3ccc(cc3)C[NH+](C)C)cccc2)Cc4ccccc4

>  <s_sd_BIOSOLVEIT.INFINISEE\_REACTION\_NAME>  (774) 
rxn112

>  <s_sd_BIOSOLVEIT.INFINISEE\_REAGENT1\_NAME>  (774) 
EMOL628199

>  <s_sd_BIOSOLVEIT.INFINISEE\_REAGENT1\_SMILES>  (774) 
O=C(O)c1c2c(nc(c3ccncc3)c1)cccc2

>  <s_sd_BIOSOLVEIT.INFINISEE\_REAGENT2\_NAME>  (774) 
EMOL193759265

>  <s_sd_BIOSOLVEIT.INFINISEE\_REAGENT2\_SMILES>  (774) 
OC(c1ccc(N(C)C)cc1)CN

>  <s_sd_BIOSOLVEIT.INFINISEE\_SPACE>  (774) 
eXplore_7tr_2022-12

>  <s_vsw_compound_code>  (774) 
88993

>  <s_vsw_variant>  (774) 
88993-1

>  <r_epik_Charging_Adjusted_Penalty>  (774) 
0.024317030946695

>  <r_epik_Ionization_Penalty>  (774) 
0.0292

>  <r_epik_Ionization_Penalty_Charging>  (774) 
0

>  <r_epik_Ionization_Penalty_Neutral>  (774) 
0.0292

>  <r_epik_State_Penalty>  (774) 
0.024299999999999999

>  <r_i_docking_score>  (774) 
-4.4393652924424103

>  <r_i_glide_ecoul>  (774) 
-4.43741750717163

>  <r_i_glide_eff_state_penalty>  (774) 
0.024299999999999999

>  <r_i_glide_einternal>  (774) 
8.2648572921752894

>  <r_i_glide_emodel>  (774) 
-43.007574491778897

>  <r_i_glide_energy>  (774) 
-36.529057979583698

>  <r_i_glide_erotb>  (774) 
0.56501805263999105

>  <r_i_glide_esite>  (774) 
0

>  <r_i_glide_evdw>  (774) 
-32.091640472412102

>  <r_i_glide_gscore>  (774) 
-4.4636652924424096

>  <r_i_glide_hbond>  (774) 
-0.0380989870390828

>  <r_i_glide_ligand_efficiency>  (774) 
-0.15854876044437199

>  <r_i_glide_ligand_efficiency_ln>  (774) 
-1.02473585492456

>  <r_i_glide_ligand_efficiency_sa>  (774) 
-0.48144741693517501

>  <r_i_glide_lipo>  (774) 
-1.69438314000162

>  <r_i_glide_metal>  (774) 
-0

>  <r_i_glide_rewards>  (774) 
-1.0260065683453501

>  <r_lp_Energy>  (774) 
25.062956

>  <r_qp_ACxDN^.5/SA>  (774) 
0.0074796000000000003

>  <r_qp_CIQPlogS>  (774) 
-5.9649999999999999

>  <r_qp_EA(eV)>  (774) 
0.96899999999999997

>  <r_qp_FISA>  (774) 
68.206999999999994

>  <r_qp_FOSA>  (774) 
189.65700000000001

>  <r_qp_IP(eV)>  (774) 
8.1859999999999999

>  <r_qp_Jm>  (774) 
0.074060082032853206

>  <r_qp_PISA>  (774) 
437.35599999999999

>  <r_qp_PSA>  (774) 
45.381

>  <r_qp_PercentHumanOralAbsorption>  (774) 
100

>  <r_qp_QPPCaco>  (774) 
2234.0390000000002

>  <r_qp_QPPMDCK>  (774) 
1179.4400000000001

>  <r_qp_QPlogBB>  (774) 
-0.503

>  <r_qp_QPlogHERG>  (774) 
-6.798

>  <r_qp_QPlogKhsa>  (774) 
0.71499999999999997

>  <r_qp_QPlogKp>  (774) 
-0.66000000000000003

>  <r_qp_QPlogPC16>  (774) 
13.569000000000001

>  <r_qp_QPlogPo/w>  (774) 
4.9329999999999998

>  <r_qp_QPlogPoct>  (774) 
19.260999999999999

>  <r_qp_QPlogPw>  (774) 
10.093999999999999

>  <r_qp_QPlogS>  (774) 
-6.0380000000000003

>  <r_qp_QPpolrz>  (774) 
43.844999999999999

>  <r_qp_SASA>  (774) 
695.22000000000003

>  <r_qp_SAamideO>  (774) 
0

>  <r_qp_SAfluorine>  (774) 
0

>  <r_qp_WPSA>  (774) 
0

>  <r_qp_accptHB>  (774) 
5.2000000000000002

>  <r_qp_dip^2/V>  (774) 
0.042861099999999999

>  <r_qp_dipole>  (774) 
7.2939999999999996

>  <r_qp_donorHB>  (774) 
1

>  <r_qp_glob>  (774) 
0.80343589999999998

>  <r_qp_mol_MW>  (774) 
369.46499999999997

>  <r_qp_volume>  (774) 
1241.26

>  <r_sd_BIOSOLVEIT.INFINISEE\_FTREES\_SIMILARITY>  (774) 
0.90700000000000003

>  <r_sd_BIOSOLVEIT.LOGP>  (774) 
4.6388999999999996

>  <r_sd_BIOSOLVEIT.MOLECULAR\_WEIGHT>  (774) 
369.46600000000001

>  <r_sd_BIOSOLVEIT.TPSA>  (774) 
49.25

>  <i_epik_Tot_Q>  (774) 
0

>  <i_epik_Tot_abs_Q>  (774) 
0

>  <i_f3d_flags>  (774) 
0

>  <i_i_glide_confnum>  (774) 
6

>  <i_i_glide_lignum>  (774) 
1255

>  <i_i_glide_posenum>  (774) 
6

>  <i_i_glide_rotatable_bonds>  (774) 
6

>  <i_lp_mmshare_version>  (774) 
65135

>  <i_m_ct_format>  (774) 
2

>  <i_m_source_file_index>  (774) 
2782

>  <i_qp_#NandO>  (774) 
4

>  <i_qp_#acid>  (774) 
0

>  <i_qp_#amide>  (774) 
0

>  <i_qp_#amidine>  (774) 
0

>  <i_qp_#amine>  (774) 
0

>  <i_qp_#in34>  (774) 
0

>  <i_qp_#in56>  (774) 
22

>  <i_qp_#metab>  (774) 
5

>  <i_qp_#nonHatm>  (774) 
28

>  <i_qp_#noncon>  (774) 
0

>  <i_qp_#ringatoms>  (774) 
22

>  <i_qp_#rotor>  (774) 
6

>  <i_qp_#rtvFG>  (774) 
0

>  <i_qp_#stars>  (774) 
0

>  <i_qp_CNS>  (774) 
0

>  <i_qp_HumanOralAbsorption>  (774) 
3

>  <i_qp_RuleOfFive>  (774) 
0

>  <i_qp_RuleOfThree>  (774) 
1

>  <i_sd_BIOSOLVEIT.INFINISEE\_RESULT\_RANK>  (774) 
61880

>  <i_sd_version>  (774) 
0

>  <b_lp_Chiralities_Consistent>  (774) 
1

>  <b_sd_chiral_flag>  (774) 
0

>  <canonical_id>  (774) 
ATP-HTVS-79EE8ED1543F

>  <compound_code>  (774) 
88993

>  <title>  (774) 
rxn112____EMOL628199____EMOL193759265

>  <variant>  (774) 
88993-1

>  <source_file>  (774) 
运行/运行/ATP-VSW/ATP-VSW-DOCK_HTVS_1-001_lib/ATP-VSW-DOCK_HTVS_1-001_lib

>  <canonical_smiles>  (774) 
CN(C)c1ccc([C@H](O)Cc2cc(-c3ccncc3)nc3ccccc23)cc1

>  <scaffold>  (774) 
c1ccc(CCc2cc(-c3ccncc3)nc3ccccc23)cc1

>  <molecular_formula>  (774) 
C24H23N3O

$$$$
ATP-HTVS-7A394D6CE484
     RDKit          3D

 56 59  0  0  0  0  0  0  0  0999 V2000
  199.9314  183.4305  155.8695 S   0  0  1  0  0  0  0  0  0  0  0  0
  200.7518  184.6294  156.1974 O   0  0  0  0  0  0  0  0  0  0  0  0
  200.5240  182.1070  155.9998 O   0  0  0  0  0  0  0  0  0  0  0  0
  198.4446  183.5017  156.9137 C   0  0  0  0  0  0  0  0  0  0  0  0
  197.6284  182.3913  157.2687 C   0  0  0  0  0  0  0  0  0  0  0  0
  196.5764  182.5137  158.1147 N   0  0  0  0  0  0  0  0  0  0  0  0
  196.2581  183.7268  158.6375 C   0  0  0  0  0  0  0  0  0  0  0  0
  197.0217  184.8864  158.3408 C   0  0  0  0  0  0  0  0  0  0  0  0
  198.1256  184.7593  157.4739 C   0  0  0  0  0  0  0  0  0  0  0  0
  196.6777  186.1422  158.8983 C   0  0  0  0  0  0  0  0  0  0  0  0
  195.5703  186.2540  159.7588 C   0  0  0  0  0  0  0  0  0  0  0  0
  194.8035  185.1148  160.0560 C   0  0  0  0  0  0  0  0  0  0  0  0
  195.1515  183.8640  159.5045 C   0  0  0  0  0  0  0  0  0  0  0  0
  197.9171  181.0837  156.8481 N   0  0  0  0  0  0  0  0  0  0  0  0
  197.7884  180.5467  155.5524 C   0  0  0  0  0  0  0  0  0  0  0  0
  198.7154  179.5811  155.0661 C   0  0  0  0  0  0  0  0  0  0  0  0
  198.5834  179.1051  153.7455 C   0  0  0  0  0  0  0  0  0  0  0  0
  197.5558  179.5574  152.9044 C   0  0  0  0  0  0  0  0  0  0  0  0
  196.6571  180.5173  153.3766 C   0  0  0  0  0  0  0  0  0  0  0  0
  196.7606  180.9998  154.6891 C   0  0  0  0  0  0  0  0  0  0  0  0
  199.9115  179.1252  155.9128 C   0  0  1  0  0  0  0  0  0  0  0  0
  199.5440  177.8454  156.5464 N   0  0  1  0  0  0  0  0  0  0  0  0
  200.5162  177.3646  157.5529 C   0  0  1  0  0  0  0  0  0  0  0  0
  201.2364  176.2210  156.9278 C   0  0  0  0  0  0  0  0  0  0  0  0
  201.7989  175.3171  156.3792 C   0  0  0  0  0  0  0  0  0  0  0  0
  201.2458  179.0326  155.1410 C   0  0  2  0  0  0  0  0  0  0  0  0
  199.3186  183.6050  154.1919 C   0  0  0  0  0  0  0  0  0  0  0  0
  199.0654  184.9108  153.6760 C   0  0  0  0  0  0  0  0  0  0  0  0
  198.5447  185.0511  152.3508 C   0  0  0  0  0  0  0  0  0  0  0  0
  198.2457  183.8814  151.5888 C   0  0  0  0  0  0  0  0  0  0  0  0
  198.5059  182.5967  152.1451 C   0  0  0  0  0  0  0  0  0  0  0  0
  199.0756  182.4462  153.4246 C   0  0  0  0  0  0  0  0  0  0  0  0
  198.6558  177.9487  157.0444 H   0  0  0  0  0  0  0  0  0  0  0  0
  198.7247  185.6334  157.2584 H   0  0  0  0  0  0  0  0  0  0  0  0
  197.2599  187.0212  158.6700 H   0  0  0  0  0  0  0  0  0  0  0  0
  195.3056  187.2142  160.1774 H   0  0  0  0  0  0  0  0  0  0  0  0
  193.9393  185.2097  160.6942 H   0  0  0  0  0  0  0  0  0  0  0  0
  194.5509  182.9936  159.7282 H   0  0  0  0  0  0  0  0  0  0  0  0
  197.9536  180.4129  157.6016 H   0  0  0  0  0  0  0  0  0  0  0  0
  199.3293  178.4615  153.3196 H   0  0  0  0  0  0  0  0  0  0  0  0
  197.5479  179.2729  151.8727 H   0  0  0  0  0  0  0  0  0  0  0  0
  195.9185  180.9216  152.7094 H   0  0  0  0  0  0  0  0  0  0  0  0
  196.0654  181.7612  155.0129 H   0  0  0  0  0  0  0  0  0  0  0  0
  200.0589  179.8201  156.7338 H   0  0  0  0  0  0  0  0  0  0  0  0
  201.2363  178.1211  157.8720 H   0  0  0  0  0  0  0  0  0  0  0  0
  199.9779  177.0182  158.4393 H   0  0  0  0  0  0  0  0  0  0  0  0
  202.3324  174.5077  155.8967 H   0  0  0  0  0  0  0  0  0  0  0  0
  201.5266  179.9718  154.6730 H   0  0  0  0  0  0  0  0  0  0  0  0
  201.2429  178.2660  154.3715 H   0  0  0  0  0  0  0  0  0  0  0  0
  202.0746  178.7826  155.7968 H   0  0  0  0  0  0  0  0  0  0  0  0
  199.2935  185.8092  154.2832 H   0  0  0  0  0  0  0  0  0  0  0  0
  198.3939  186.0534  151.9122 H   0  0  0  0  0  0  0  0  0  0  0  0
  197.8083  183.9701  150.5822 H   0  0  0  0  0  0  0  0  0  0  0  0
  198.2680  181.7341  151.5443 H   0  0  0  0  0  0  0  0  0  0  0  0
  199.3523  181.4790  153.8138 H   0  0  0  0  0  0  0  0  0  0  0  0
  199.4285  177.1462  155.8214 H   0  0  0  0  0  0  0  0  0  0  0  0
  1  2  2  0
  1  3  2  0
  1  4  1  1
  1 27  1  0
  4  5  1  0
  4  9  2  0
  5  6  2  0
  5 14  1  0
  6  7  1  0
  7  8  1  0
  7 13  2  0
  8  9  1  0
  8 10  2  0
  9 34  1  0
 10 11  1  0
 10 35  1  0
 11 12  2  0
 11 36  1  0
 12 13  1  0
 12 37  1  0
 13 38  1  0
 14 15  1  0
 14 39  1  0
 15 16  1  0
 15 20  2  0
 16 17  2  0
 16 21  1  0
 17 18  1  0
 17 40  1  0
 18 19  2  0
 18 41  1  0
 19 20  1  0
 19 42  1  0
 20 43  1  0
 21 22  1  0
 21 26  1  0
 21 44  1  1
 22 23  1  0
 22 33  1  1
 22 56  1  0
 23 24  1  0
 23 45  1  1
 23 46  1  0
 24 25  3  0
 25 47  1  0
 26 48  1  6
 26 49  1  0
 26 50  1  0
 27 28  2  0
 27 32  1  0
 28 29  1  0
 28 51  1  0
 29 30  2  0
 29 52  1  0
 30 31  1  0
 30 53  1  0
 31 32  2  0
 31 54  1  0
 32 55  1  0
M  CHG  1  22   1
M  END
>  <s_epik_cmdline>  (775) 
J2VwaWtfcHl0aG9uJywgJy1waCcsICc3LjAwMDAwMCcsICctcGh0JywgJzIuMDAwMDAwJywgJy1tcycsICcxNicsICctdG4nLCAnOCcsICctbWEnLCAnMjAwJywgJy1pbWFlJywgJzxpbmZpbGUubWFlPicsICctb21hZScsICc8b3V0ZmlsZS5tYWU+Jw==

>  <s_epik_input>  (775) 
W2NIXTFbY0hdW2NIXVtjSF1bY0hdYzFTKD1PKSg9TyljKFtjSF1jKGMyMylbY0hdW2NIXVtjSF1bY0hdMyljKG4yKVtOSF1jNGMoW2NIXVtjSF1bY0hdW2NIXTQpW0NASF0oW0NIM10pW05IXVtDSDJdQyNbQ0hd

>  <s_i_glide_gridfile>  (775) 
ATP-Grid

>  <s_lp_Force_Field>  (775) 
OPLS_2005

>  <s_lp_Variant>  (775) 
rxn102b____EMOL316258031____EMOL42620813-4

>  <s_lp_label>  (775) 
3117_sdstereoexpander_2_neutralizer_1_epik_2_stereoizer_1

>  <s_m_source_file>  (775) 
ATP-VSW-LIGPREP-001-in.maegz

>  <s_sd_BIOSOLVEIT.INFINISEE\_QUERY\_NAME>  (775) 
Ref-Lig

>  <s_sd_BIOSOLVEIT.INFINISEE\_QUERY\_SMILES>  (775) 
S(c1nc2c(cc1C[NH2+]Cc3ccc(cc3)C[NH+](C)C)cccc2)Cc4ccccc4

>  <s_sd_BIOSOLVEIT.INFINISEE\_REACTION\_NAME>  (775) 
rxn102b

>  <s_sd_BIOSOLVEIT.INFINISEE\_REAGENT1\_NAME>  (775) 
EMOL316258031

>  <s_sd_BIOSOLVEIT.INFINISEE\_REAGENT1\_SMILES>  (775) 
Brc1c(cccc1)C(NCC#C)C

>  <s_sd_BIOSOLVEIT.INFINISEE\_REAGENT2\_NAME>  (775) 
EMOL42620813

>  <s_sd_BIOSOLVEIT.INFINISEE\_REAGENT2\_SMILES>  (775) 
S(=O)(=O)(c1c(nc2c(c1)cccc2)N)c3ccccc3

>  <s_sd_BIOSOLVEIT.INFINISEE\_SPACE>  (775) 
eXplore_7tr_2022-12

>  <s_vsw_compound_code>  (775) 
99713

>  <s_vsw_variant>  (775) 
99713-4

>  <r_epik_Charging_Adjusted_Penalty>  (775) 
0.86444831279192502

>  <r_epik_Ionization_Penalty>  (775) 
0.43219999999999997

>  <r_epik_Ionization_Penalty_Charging>  (775) 
0.43219999999999997

>  <r_epik_Ionization_Penalty_Neutral>  (775) 
0

>  <r_epik_State_Penalty>  (775) 
0.43219999999999997

>  <r_i_docking_score>  (775) 
-3.9745006717406399

>  <r_i_glide_ecoul>  (775) 
-7.3640851974487296

>  <r_i_glide_eff_state_penalty>  (775) 
0.43219999999999997

>  <r_i_glide_einternal>  (775) 
14.674421310424799

>  <r_i_glide_emodel>  (775) 
-51.720872696711503

>  <r_i_glide_energy>  (775) 
-43.022822380065897

>  <r_i_glide_erotb>  (775) 
0.81629556516789503

>  <r_i_glide_esite>  (775) 
-0.17980423694675801

>  <r_i_glide_evdw>  (775) 
-35.658737182617202

>  <r_i_glide_gscore>  (775) 
-4.4067006717406398

>  <r_i_glide_hbond>  (775) 
-0.20000000000000001

>  <r_i_glide_ligand_efficiency>  (775) 
-0.124203145991895

>  <r_i_glide_ligand_efficiency_ln>  (775) 
-0.88999904119920803

>  <r_i_glide_ligand_efficiency_sa>  (775) 
-0.39432040875505098

>  <r_i_glide_lipo>  (775) 
-1.56396277030452

>  <r_i_glide_metal>  (775) 
-0

>  <r_i_glide_rewards>  (775) 
-0.39167959090908999

>  <r_lp_Energy>  (775) 
22.121054000000001

>  <r_qp_ACxDN^.5/SA>  (775) 
0.010756999999999999

>  <r_qp_CIQPlogS>  (775) 
-6.0369999999999999

>  <r_qp_EA(eV)>  (775) 
1.282

>  <r_qp_FISA>  (775) 
77.915999999999997

>  <r_qp_FOSA>  (775) 
108.929

>  <r_qp_IP(eV)>  (775) 
8.2919999999999998

>  <r_qp_Jm>  (775) 
0.145459831482362

>  <r_qp_PISA>  (775) 
495.20400000000001

>  <r_qp_PSA>  (775) 
62.527000000000001

>  <r_qp_PercentHumanOralAbsorption>  (775) 
100

>  <r_qp_QPPCaco>  (775) 
450.73500000000001

>  <r_qp_QPPMDCK>  (775) 
234.476

>  <r_qp_QPlogBB>  (775) 
-0.24299999999999999

>  <r_qp_QPlogHERG>  (775) 
-7.1120000000000001

>  <r_qp_QPlogKhsa>  (775) 
0.65500000000000003

>  <r_qp_QPlogKp>  (775) 
-2.5059999999999998

>  <r_qp_QPlogPC16>  (775) 
14.712999999999999

>  <r_qp_QPlogPo/w>  (775) 
4.4409999999999998

>  <r_qp_QPlogPoct>  (775) 
21.045000000000002

>  <r_qp_QPlogPw>  (775) 
11.603999999999999

>  <r_qp_QPlogS>  (775) 
-3.9769999999999999

>  <r_qp_QPpolrz>  (775) 
45.718000000000004

>  <r_qp_SASA>  (775) 
683.13300000000004

>  <r_qp_SAamideO>  (775) 
0

>  <r_qp_SAfluorine>  (775) 
0

>  <r_qp_WPSA>  (775) 
1.0840000000000001

>  <r_qp_accptHB>  (775) 
6

>  <r_qp_dip^2/V>  (775) 
0.0201187

>  <r_qp_dipole>  (775) 
5.1269999999999998

>  <r_qp_donorHB>  (775) 
1.5

>  <r_qp_glob>  (775) 
0.84598930000000006

>  <r_qp_mol_MW>  (775) 
441.54700000000003

>  <r_qp_volume>  (775) 
1306.346

>  <r_sd_BIOSOLVEIT.INFINISEE\_FTREES\_SIMILARITY>  (775) 
0.90100000000000002

>  <r_sd_BIOSOLVEIT.LOGP>  (775) 
4.7194000000000003

>  <r_sd_BIOSOLVEIT.MOLECULAR\_WEIGHT>  (775) 
442.56

>  <r_sd_BIOSOLVEIT.TPSA>  (775) 
75.670000000000002

>  <i_epik_Tot_Q>  (775) 
1

>  <i_epik_Tot_abs_Q>  (775) 
1

>  <i_f3d_flags>  (775) 
0

>  <i_i_glide_confnum>  (775) 
7

>  <i_i_glide_lignum>  (775) 
68

>  <i_i_glide_posenum>  (775) 
8

>  <i_i_glide_rotatable_bonds>  (775) 
8

>  <i_lp_mmshare_version>  (775) 
65135

>  <i_m_ct_format>  (775) 
2

>  <i_m_source_file_index>  (775) 
3117

>  <i_qp_#NandO>  (775) 
5

>  <i_qp_#acid>  (775) 
0

>  <i_qp_#amide>  (775) 
0

>  <i_qp_#amidine>  (775) 
0

>  <i_qp_#amine>  (775) 
1

>  <i_qp_#in34>  (775) 
0

>  <i_qp_#in56>  (775) 
22

>  <i_qp_#metab>  (775) 
5

>  <i_qp_#nonHatm>  (775) 
32

>  <i_qp_#noncon>  (775) 
0

>  <i_qp_#ringatoms>  (775) 
22

>  <i_qp_#rotor>  (775) 
8

>  <i_qp_#rtvFG>  (775) 
0

>  <i_qp_#stars>  (775) 
1

>  <i_qp_CNS>  (775) 
1

>  <i_qp_HumanOralAbsorption>  (775) 
3

>  <i_qp_RuleOfFive>  (775) 
0

>  <i_qp_RuleOfThree>  (775) 
0

>  <i_sd_BIOSOLVEIT.INFINISEE\_RESULT\_RANK>  (775) 
99050

>  <i_sd_version>  (775) 
0

>  <b_lp_Chiralities_Consistent>  (775) 
1

>  <b_sd_chiral_flag>  (775) 
0

>  <canonical_id>  (775) 
ATP-HTVS-7A394D6CE484

>  <compound_code>  (775) 
99713

>  <title>  (775) 
rxn102b____EMOL316258031____EMOL42620813

>  <variant>  (775) 
99713-4

>  <source_file>  (775) 
运行/运行/ATP-VSW/ATP-VSW-DOCK_HTVS_1-002_lib.maegz

>  <canonical_smiles>  (775) 
C#CC[NH2+][C@@H](C)c1ccccc1Nc1nc2ccccc2cc1S(=O)(=O)c1ccccc1

>  <scaffold>  (775) 
O=S(=O)(c1ccccc1)c1cc2ccccc2nc1Nc1ccccc1

>  <molecular_formula>  (775) 
C26H24N3O2S+

$$$$
ATP-HTVS-7A7B7DA644AB
     RDKit          3D

 70 73  0  0  0  0  0  0  0  0999 V2000
  200.8132  181.7975  157.7346 N   0  0  0  0  0  0  0  0  0  0  0  0
  200.7220  183.0033  158.2984 C   0  0  0  0  0  0  0  0  0  0  0  0
  201.6794  183.5075  159.0786 N   0  0  0  0  0  0  0  0  0  0  0  0
  202.7975  182.7867  159.3125 C   0  0  0  0  0  0  0  0  0  0  0  0
  202.9489  181.5020  158.7476 C   0  0  0  0  0  0  0  0  0  0  0  0
  201.8969  181.0259  157.9434 C   0  0  0  0  0  0  0  0  0  0  0  0
  201.9401  179.7508  157.3451 N   0  0  0  0  0  0  0  0  0  0  0  0
  200.6949  179.0061  157.1693 C   0  0  1  0  0  0  0  0  0  0  0  0
  200.8301  177.7901  156.2589 C   0  0  0  0  0  0  0  0  0  0  0  0
  200.2676  177.7623  154.9511 C   0  0  0  0  0  0  0  0  0  0  0  0
  200.4394  176.6196  154.1446 C   0  0  0  0  0  0  0  0  0  0  0  0
  201.1536  175.5004  154.6168 C   0  0  0  0  0  0  0  0  0  0  0  0
  201.6829  175.5128  155.9163 C   0  0  0  0  0  0  0  0  0  0  0  0
  201.5207  176.6550  156.7272 C   0  0  0  0  0  0  0  0  0  0  0  0
  199.4839  178.9408  154.3859 C   0  0  1  0  0  0  0  0  0  0  0  0
  200.3255  180.0406  153.9124 N   0  0  0  0  0  0  0  0  0  0  0  0
  201.1083  179.6323  152.7489 C   0  0  2  0  0  0  0  0  0  0  0  0
  199.4791  181.1606  153.5285 C   0  0  2  0  0  0  0  0  0  0  0  0
  204.1210  180.7594  159.0081 C   0  0  0  0  0  0  0  0  0  0  0  0
  205.1282  181.3029  159.8258 C   0  0  0  0  0  0  0  0  0  0  0  0
  204.9746  182.5873  160.3822 C   0  0  0  0  0  0  0  0  0  0  0  0
  203.8063  183.3320  160.1275 C   0  0  0  0  0  0  0  0  0  0  0  0
  199.5889  183.7772  158.0928 N   0  0  0  0  0  0  0  0  0  0  0  0
  198.4046  183.3179  157.3661 C   0  0  1  0  0  0  0  0  0  0  0  0
  197.1266  183.2091  158.2656 C   0  0  2  0  0  0  0  0  0  0  0  0
  195.9859  182.4975  157.5748 N   0  0  1  0  0  0  0  0  0  0  0  0
  196.3987  181.5827  156.4883 C   0  0  2  0  0  0  0  0  0  0  0  0
  195.0732  181.7727  158.5046 C   0  0  2  0  0  0  0  0  0  0  0  0
  196.6978  184.5785  158.8479 C   0  0  0  0  0  0  0  0  0  0  0  0
  195.7664  184.6372  159.9250 C   0  0  0  0  0  0  0  0  0  0  0  0
  195.3154  185.8860  160.4227 C   0  0  0  0  0  0  0  0  0  0  0  0
  195.8601  187.0816  159.9396 C   0  0  0  0  0  0  0  0  0  0  0  0
  196.8262  187.0439  158.9204 C   0  0  0  0  0  0  0  0  0  0  0  0
  197.2178  185.8129  158.3645 C   0  0  0  0  0  0  0  0  0  0  0  0
  202.7776  179.1924  157.4409 H   0  0  0  0  0  0  0  0  0  0  0  0
  200.3705  178.6446  158.1438 H   0  0  0  0  0  0  0  0  0  0  0  0
  199.8998  179.6655  156.8303 H   0  0  0  0  0  0  0  0  0  0  0  0
  200.0237  176.5954  153.1469 H   0  0  0  0  0  0  0  0  0  0  0  0
  201.2715  174.6304  153.9884 H   0  0  0  0  0  0  0  0  0  0  0  0
  202.2174  174.6498  156.2873 H   0  0  0  0  0  0  0  0  0  0  0  0
  201.9408  176.6563  157.7212 H   0  0  0  0  0  0  0  0  0  0  0  0
  198.8464  178.5833  153.5761 H   0  0  0  0  0  0  0  0  0  0  0  0
  198.7890  179.3025  155.1463 H   0  0  0  0  0  0  0  0  0  0  0  0
  201.7219  180.4575  152.3870 H   0  0  0  0  0  0  0  0  0  0  0  0
  200.4656  179.3032  151.9305 H   0  0  0  0  0  0  0  0  0  0  0  0
  201.7861  178.8146  152.9955 H   0  0  0  0  0  0  0  0  0  0  0  0
  200.0854  181.9977  153.1830 H   0  0  0  0  0  0  0  0  0  0  0  0
  198.8947  181.5051  154.3809 H   0  0  0  0  0  0  0  0  0  0  0  0
  198.7906  180.8838  152.7293 H   0  0  0  0  0  0  0  0  0  0  0  0
  204.2624  179.7803  158.5834 H   0  0  0  0  0  0  0  0  0  0  0  0
  206.0259  180.7312  160.0214 H   0  0  0  0  0  0  0  0  0  0  0  0
  205.7573  183.0025  161.0029 H   0  0  0  0  0  0  0  0  0  0  0  0
  203.7021  184.3165  160.5580 H   0  0  0  0  0  0  0  0  0  0  0  0
  199.5384  184.6617  158.5660 H   0  0  0  0  0  0  0  0  0  0  0  0
  198.2324  184.0017  156.5344 H   0  0  0  0  0  0  0  0  0  0  0  0
  198.6616  182.3785  156.8833 H   0  0  0  0  0  0  0  0  0  0  0  0
  197.4280  182.5903  159.1133 H   0  0  0  0  0  0  0  0  0  0  0  0
  197.0990  180.8302  156.8441 H   0  0  0  0  0  0  0  0  0  0  0  0
  196.8208  182.1115  155.6402 H   0  0  0  0  0  0  0  0  0  0  0  0
  195.5562  181.0369  156.0832 H   0  0  0  0  0  0  0  0  0  0  0  0
  195.6467  181.0446  159.0838 H   0  0  0  0  0  0  0  0  0  0  0  0
  194.3230  181.2076  157.9343 H   0  0  0  0  0  0  0  0  0  0  0  0
  194.5182  182.3910  159.1832 H   0  0  0  0  0  0  0  0  0  0  0  0
  195.3777  183.7630  160.4071 H   0  0  0  0  0  0  0  0  0  0  0  0
  194.5597  185.9007  161.1894 H   0  0  0  0  0  0  0  0  0  0  0  0
  195.5507  188.0294  160.3555 H   0  0  0  0  0  0  0  0  0  0  0  0
  197.2816  187.9630  158.5677 H   0  0  0  0  0  0  0  0  0  0  0  0
  197.9544  185.8697  157.5774 H   0  0  0  0  0  0  0  0  0  0  0  0
  201.5961  184.4320  159.4972 H   0  0  0  0  0  0  0  0  0  0  0  0
  195.4092  183.1916  157.1226 H   0  0  0  0  0  0  0  0  0  0  0  0
  1  2  1  0
  1  6  2  0
  2  3  2  0
  2 23  1  0
  3  4  1  0
  3 69  1  0
  4  5  1  0
  4 22  2  0
  5  6  1  0
  5 19  2  0
  6  7  1  0
  7  8  1  0
  7 35  1  0
  8  9  1  0
  8 36  1  1
  8 37  1  0
  9 10  1  0
  9 14  2  0
 10 11  2  0
 10 15  1  0
 11 12  1  0
 11 38  1  0
 12 13  2  0
 12 39  1  0
 13 14  1  0
 13 40  1  0
 14 41  1  0
 15 16  1  0
 15 42  1  6
 15 43  1  0
 16 17  1  0
 16 18  1  0
 17 44  1  6
 17 45  1  0
 17 46  1  0
 18 47  1  6
 18 48  1  0
 18 49  1  0
 19 20  1  0
 19 50  1  0
 20 21  2  0
 20 51  1  0
 21 22  1  0
 21 52  1  0
 22 53  1  0
 23 24  1  0
 23 54  1  0
 24 25  1  0
 24 55  1  6
 24 56  1  0
 25 26  1  0
 25 29  1  0
 25 57  1  1
 26 27  1  0
 26 28  1  0
 26 70  1  6
 27 58  1  1
 27 59  1  0
 27 60  1  0
 28 61  1  1
 28 62  1  0
 28 63  1  0
 29 30  2  0
 29 34  1  0
 30 31  1  0
 30 64  1  0
 31 32  2  0
 31 65  1  0
 32 33  1  0
 32 66  1  0
 33 34  2  0
 33 67  1  0
 34 68  1  0
M  CHG  2   3   1  26   1
M  END
>  <s_epik_cmdline>  (776) 
J2VwaWtfcHl0aG9uJywgJy1waCcsICc3LjAwMDAwMCcsICctcGh0JywgJzIuMDAwMDAwJywgJy1tcycsICcxNicsICctdG4nLCAnOCcsICctbWEnLCAnMjAwJywgJy1pbWFlJywgJzxpbmZpbGUubWFlPicsICctb21hZScsICc8b3V0ZmlsZS5tYWU+Jw==

>  <s_epik_input>  (776) 
W2NIXTFbY0hdW2NIXVtjSF1jKFtDSDJdTihbQ0gzXSlbQ0gzXSljMVtDSDJdW05IXWMoYyhjMjMpW2NIXVtjSF1bY0hdW2NIXTMpbmMobjIpW05IXVtDSDJdW0NASF0oTihbQ0gzXSlbQ0gzXSljNFtjSF1bY0hdW2NIXVtjSF1bY0hdNA==

>  <s_i_glide_gridfile>  (776) 
ATP-Grid

>  <s_lp_Force_Field>  (776) 
OPLS_2005

>  <s_lp_Variant>  (776) 
m_282030aaa____21930822____22360182____21973156-5

>  <s_lp_label>  (776) 
1558_sdstereoexpander_1_neutralizer_1_epik_3_stereoizer_1

>  <s_m_source_file>  (776) 
ATP-VSW-LIGPREP-003-in.maegz

>  <s_sd_BIOSOLVEIT.INFINISEE\_QUERY\_NAME>  (776) 
Ref-Lig

>  <s_sd_BIOSOLVEIT.INFINISEE\_QUERY\_SMILES>  (776) 
S(c1nc2c(cc1C[NH2+]Cc3ccc(cc3)C[NH+](C)C)cccc2)Cc4ccccc4

>  <s_sd_BIOSOLVEIT.INFINISEE\_REACTION\_NAME>  (776) 
m_282030aaa

>  <s_sd_BIOSOLVEIT.INFINISEE\_REAGENT1\_SMILES>  (776) 
[R1*]NCC(N(C)C)c1ccccc1

>  <s_sd_BIOSOLVEIT.INFINISEE\_REAGENT2\_SMILES>  (776) 
[R2*]c1nc([R1*])c2c(n1)cccc2

>  <s_sd_BIOSOLVEIT.INFINISEE\_REAGENT3\_SMILES>  (776) 
[R2*]NCc1c(cccc1)CN(C)C

>  <s_sd_BIOSOLVEIT.INFINISEE\_SPACE>  (776) 
REALSpace_44bn_2023-08

>  <s_vsw_compound_code>  (776) 
49827

>  <s_vsw_variant>  (776) 
49827-5

>  <r_epik_Charging_Adjusted_Penalty>  (776) 
1.82945844919209

>  <r_epik_Ionization_Penalty>  (776) 
1.7890999999999999

>  <r_epik_Ionization_Penalty_Charging>  (776) 
0.1474

>  <r_epik_Ionization_Penalty_Neutral>  (776) 
1.6417999999999999

>  <r_epik_State_Penalty>  (776) 
1.6820999999999999

>  <r_i_docking_score>  (776) 
-3.2017317761740198

>  <r_i_glide_ecoul>  (776) 
-8.7482404708862305

>  <r_i_glide_eff_state_penalty>  (776) 
1.6820999999999999

>  <r_i_glide_einternal>  (776) 
11.9320888519287

>  <r_i_glide_emodel>  (776) 
-58.031539373537903

>  <r_i_glide_energy>  (776) 
-41.757563591003397

>  <r_i_glide_erotb>  (776) 
0.67474647278199196

>  <r_i_glide_esite>  (776) 
-0.083974291145384794

>  <r_i_glide_evdw>  (776) 
-33.009323120117202

>  <r_i_glide_gscore>  (776) 
-4.88383177617402

>  <r_i_glide_hbond>  (776) 
-0.325386044258058

>  <r_i_glide_ligand_efficiency>  (776) 
-0.094168581652177105

>  <r_i_glide_ligand_efficiency_ln>  (776) 
-0.70735235489124704

>  <r_i_glide_ligand_efficiency_sa>  (776) 
-0.30506964807136

>  <r_i_glide_lipo>  (776) 
-1.85236000845061

>  <r_i_glide_metal>  (776) 
-0

>  <r_i_glide_rewards>  (776) 
-0.33415567846316402

>  <r_lp_Energy>  (776) 
34.543714000000001

>  <r_qp_ACxDN^.5/SA>  (776) 
0.0122443

>  <r_qp_CIQPlogS>  (776) 
-4.8250000000000002

>  <r_qp_EA(eV)>  (776) 
0.61899999999999999

>  <r_qp_FISA>  (776) 
36.865000000000002

>  <r_qp_FOSA>  (776) 
311.93900000000002

>  <r_qp_IP(eV)>  (776) 
7.9740000000000002

>  <r_qp_Jm>  (776) 
0.0048550900913425198

>  <r_qp_PISA>  (776) 
459.697

>  <r_qp_PSA>  (776) 
46.445

>  <r_qp_PercentHumanOralAbsorption>  (776) 
100

>  <r_qp_QPPCaco>  (776) 
275.495

>  <r_qp_QPPMDCK>  (776) 
150.29300000000001

>  <r_qp_QPlogBB>  (776) 
0.36199999999999999

>  <r_qp_QPlogHERG>  (776) 
-8.6159999999999997

>  <r_qp_QPlogKhsa>  (776) 
0.86699999999999999

>  <r_qp_QPlogKp>  (776) 
-3.7450000000000001

>  <r_qp_QPlogPC16>  (776) 
16.289000000000001

>  <r_qp_QPlogPo/w>  (776) 
4.9130000000000003

>  <r_qp_QPlogPoct>  (776) 
23.859999999999999

>  <r_qp_QPlogPw>  (776) 
12.661

>  <r_qp_QPlogS>  (776) 
-4.2270000000000003

>  <r_qp_QPpolrz>  (776) 
52.265000000000001

>  <r_qp_SASA>  (776) 
808.5

>  <r_qp_SAamideO>  (776) 
0

>  <r_qp_SAfluorine>  (776) 
0

>  <r_qp_WPSA>  (776) 
0

>  <r_qp_accptHB>  (776) 
7

>  <r_qp_dip^2/V>  (776) 
0.0034775000000000001

>  <r_qp_dipole>  (776) 
2.2919999999999998

>  <r_qp_donorHB>  (776) 
2

>  <r_qp_glob>  (776) 
0.78746260000000001

>  <r_qp_mol_MW>  (776) 
454.61700000000002

>  <r_qp_volume>  (776) 
1510.4880000000001

>  <r_sd_BIOSOLVEIT.INFINISEE\_FTREES\_SIMILARITY>  (776) 
0.90600000000000003

>  <r_sd_BIOSOLVEIT.LOGP>  (776) 
2.1840999999999999

>  <r_sd_BIOSOLVEIT.MOLECULAR\_WEIGHT>  (776) 
456.63400000000001

>  <r_sd_BIOSOLVEIT.TPSA>  (776) 
58.719999999999999

>  <i_epik_Tot_Q>  (776) 
2

>  <i_epik_Tot_abs_Q>  (776) 
2

>  <i_f3d_flags>  (776) 
0

>  <i_i_glide_confnum>  (776) 
6

>  <i_i_glide_lignum>  (776) 
599

>  <i_i_glide_posenum>  (776) 
9

>  <i_i_glide_rotatable_bonds>  (776) 
10

>  <i_lp_mmshare_version>  (776) 
65135

>  <i_m_ct_format>  (776) 
2

>  <i_m_source_file_index>  (776) 
1558

>  <i_qp_#NandO>  (776) 
6

>  <i_qp_#acid>  (776) 
0

>  <i_qp_#amide>  (776) 
0

>  <i_qp_#amidine>  (776) 
0

>  <i_qp_#amine>  (776) 
2

>  <i_qp_#in34>  (776) 
0

>  <i_qp_#in56>  (776) 
22

>  <i_qp_#metab>  (776) 
7

>  <i_qp_#nonHatm>  (776) 
34

>  <i_qp_#noncon>  (776) 
0

>  <i_qp_#ringatoms>  (776) 
22

>  <i_qp_#rotor>  (776) 
10

>  <i_qp_#rtvFG>  (776) 
0

>  <i_qp_#stars>  (776) 
1

>  <i_qp_CNS>  (776) 
1

>  <i_qp_HumanOralAbsorption>  (776) 
3

>  <i_qp_RuleOfFive>  (776) 
0

>  <i_qp_RuleOfThree>  (776) 
1

>  <i_sd_BIOSOLVEIT.INFINISEE\_REAGENT1\_NAME>  (776) 
21930822

>  <i_sd_BIOSOLVEIT.INFINISEE\_REAGENT2\_NAME>  (776) 
22360182

>  <i_sd_BIOSOLVEIT.INFINISEE\_REAGENT3\_NAME>  (776) 
21973156

>  <i_sd_BIOSOLVEIT.INFINISEE\_RESULT\_RANK>  (776) 
62888

>  <i_sd_version>  (776) 
0

>  <b_lp_Chiralities_Consistent>  (776) 
1

>  <b_sd_chiral_flag>  (776) 
0

>  <canonical_id>  (776) 
ATP-HTVS-7A7B7DA644AB

>  <compound_code>  (776) 
49827

>  <title>  (776) 
m_282030aaa____21930822____22360182____21973156

>  <variant>  (776) 
49827-5

>  <source_file>  (776) 
运行/运行/ATP-VSW/ATP-VSW-DOCK_HTVS_1-003_lib/ATP-VSW-DOCK_HTVS_1-003_lib.mae

>  <canonical_smiles>  (776) 
CN(C)Cc1ccccc1CNc1nc(NC[C@@H](c2ccccc2)[NH+](C)C)[nH+]c2ccccc12

>  <scaffold>  (776) 
c1ccc(CCNc2nc(NCc3ccccc3)c3ccccc3[nH+]2)cc1

>  <molecular_formula>  (776) 
C28H36N6+2

$$$$
ATP-HTVS-7A7BCDC0632F
     RDKit          3D

 64 67  0  0  0  0  0  0  0  0999 V2000
  199.9552  186.2279  147.1669 O   0  0  0  0  0  0  0  0  0  0  0  0
  199.7038  185.8462  148.4517 C   0  0  0  0  0  0  0  0  0  0  0  0
  200.5965  186.1830  149.4892 C   0  0  0  0  0  0  0  0  0  0  0  0
  200.3039  185.8153  150.8186 C   0  0  0  0  0  0  0  0  0  0  0  0
  199.1146  185.1093  151.1126 C   0  0  0  0  0  0  0  0  0  0  0  0
  198.7963  184.7874  152.4388 N   0  0  0  0  0  0  0  0  0  0  0  0
  198.2415  183.6595  153.0143 C   0  0  0  0  0  0  0  0  0  0  0  0
  197.8924  182.6374  152.2409 N   0  0  0  0  0  0  0  0  0  0  0  0
  197.2851  181.5535  152.7613 C   0  0  0  0  0  0  0  0  0  0  0  0
  196.9369  180.5052  151.8793 N   0  0  0  0  0  0  0  0  0  0  0  0
  197.0318  180.6795  150.4276 C   0  0  1  0  0  0  0  0  0  0  0  0
  197.4768  179.4347  149.6873 C   0  0  0  0  0  0  0  0  0  0  0  0
  196.7507  178.9809  148.5722 C   0  0  0  0  0  0  0  0  0  0  0  0
  197.1870  177.8407  147.8703 C   0  0  0  0  0  0  0  0  0  0  0  0
  198.3274  177.1416  148.2951 C   0  0  0  0  0  0  0  0  0  0  0  0
  199.0564  177.5932  149.4125 C   0  0  0  0  0  0  0  0  0  0  0  0
  198.6331  178.7428  150.1077 C   0  0  0  0  0  0  0  0  0  0  0  0
  196.1253  179.4111  152.3972 C   0  0  2  0  0  0  0  0  0  0  0  0
  197.0362  181.4981  154.1459 C   0  0  0  0  0  0  0  0  0  0  0  0
  197.4663  182.5882  154.9269 C   0  0  0  0  0  0  0  0  0  0  0  0
  198.0776  183.6393  154.3356 N   0  0  0  0  0  0  0  0  0  0  0  0
  197.3235  182.6592  156.3147 N   0  0  0  0  0  0  0  0  0  0  0  0
  196.3315  181.8332  156.9810 C   0  0  1  0  0  0  0  0  0  0  0  0
  196.2957  182.0567  158.5038 C   0  0  2  0  0  0  0  0  0  0  0  0
  195.1151  181.4338  158.9534 O   0  0  0  0  0  0  0  0  0  0  0  0
  196.3949  183.5225  158.9177 C   0  0  0  0  0  0  0  0  0  0  0  0
  197.6637  184.1360  159.0262 C   0  0  0  0  0  0  0  0  0  0  0  0
  197.7655  185.5017  159.3548 C   0  0  0  0  0  0  0  0  0  0  0  0
  196.6044  186.2498  159.6208 C   0  0  0  0  0  0  0  0  0  0  0  0
  195.3408  185.6327  159.5488 C   0  0  0  0  0  0  0  0  0  0  0  0
  195.2340  184.2776  159.1848 C   0  0  0  0  0  0  0  0  0  0  0  0
  196.7089  187.7137  159.9917 C   0  0  2  0  0  0  0  0  0  0  0  0
  198.2356  184.7684  150.0645 C   0  0  0  0  0  0  0  0  0  0  0  0
  198.5289  185.1322  148.7382 C   0  0  0  0  0  0  0  0  0  0  0  0
  200.7645  186.7020  147.0601 H   0  0  0  0  0  0  0  0  0  0  0  0
  201.4927  186.7461  149.2755 H   0  0  0  0  0  0  0  0  0  0  0  0
  200.9944  186.0896  151.6044 H   0  0  0  0  0  0  0  0  0  0  0  0
  199.1195  185.4710  153.1050 H   0  0  0  0  0  0  0  0  0  0  0  0
  196.0501  180.9923  150.0740 H   0  0  0  0  0  0  0  0  0  0  0  0
  197.7315  181.4571  150.1176 H   0  0  0  0  0  0  0  0  0  0  0  0
  195.8627  179.4927  148.2403 H   0  0  0  0  0  0  0  0  0  0  0  0
  196.6350  177.4932  147.0112 H   0  0  0  0  0  0  0  0  0  0  0  0
  198.6430  176.2552  147.7623 H   0  0  0  0  0  0  0  0  0  0  0  0
  199.9397  177.0591  149.7327 H   0  0  0  0  0  0  0  0  0  0  0  0
  199.1994  179.0944  150.9586 H   0  0  0  0  0  0  0  0  0  0  0  0
  195.1855  179.8040  152.7763 H   0  0  0  0  0  0  0  0  0  0  0  0
  196.6631  178.8964  153.1927 H   0  0  0  0  0  0  0  0  0  0  0  0
  195.8795  178.6735  151.6343 H   0  0  0  0  0  0  0  0  0  0  0  0
  196.5420  180.6505  154.6026 H   0  0  0  0  0  0  0  0  0  0  0  0
  197.5554  183.5197  156.7927 H   0  0  0  0  0  0  0  0  0  0  0  0
  195.3582  182.0765  156.5573 H   0  0  0  0  0  0  0  0  0  0  0  0
  196.5197  180.7801  156.7690 H   0  0  0  0  0  0  0  0  0  0  0  0
  197.1437  181.5296  158.9484 H   0  0  0  0  0  0  0  0  0  0  0  0
  195.1743  180.5169  158.6727 H   0  0  0  0  0  0  0  0  0  0  0  0
  198.5609  183.5659  158.8320 H   0  0  0  0  0  0  0  0  0  0  0  0
  198.7387  185.9662  159.4066 H   0  0  0  0  0  0  0  0  0  0  0  0
  194.4421  186.1936  159.7503 H   0  0  0  0  0  0  0  0  0  0  0  0
  194.2523  183.8309  159.0987 H   0  0  0  0  0  0  0  0  0  0  0  0
  196.7455  187.8219  161.0752 H   0  0  0  0  0  0  0  0  0  0  0  0
  195.8475  188.2678  159.6212 H   0  0  0  0  0  0  0  0  0  0  0  0
  197.6065  188.1646  159.5673 H   0  0  0  0  0  0  0  0  0  0  0  0
  197.3144  184.2443  150.2700 H   0  0  0  0  0  0  0  0  0  0  0  0
  197.8272  184.8939  147.9524 H   0  0  0  0  0  0  0  0  0  0  0  0
  198.3899  184.4298  154.8976 H   0  0  0  0  0  0  0  0  0  0  0  0
  1  2  1  0
  1 35  1  0
  2  3  1  0
  2 34  2  0
  3  4  2  0
  3 36  1  0
  4  5  1  0
  4 37  1  0
  5  6  1  0
  5 33  2  0
  6  7  1  0
  6 38  1  0
  7  8  1  0
  7 21  2  0
  8  9  2  0
  9 10  1  0
  9 19  1  0
 10 11  1  0
 10 18  1  0
 11 12  1  0
 11 39  1  6
 11 40  1  0
 12 13  2  0
 12 17  1  0
 13 14  1  0
 13 41  1  0
 14 15  2  0
 14 42  1  0
 15 16  1  0
 15 43  1  0
 16 17  2  0
 16 44  1  0
 17 45  1  0
 18 46  1  1
 18 47  1  0
 18 48  1  0
 19 20  2  0
 19 49  1  0
 20 21  1  0
 20 22  1  0
 21 64  1  0
 22 23  1  0
 22 50  1  0
 23 24  1  0
 23 51  1  6
 23 52  1  0
 24 25  1  0
 24 26  1  0
 24 53  1  1
 25 54  1  0
 26 27  1  0
 26 31  2  0
 27 28  2  0
 27 55  1  0
 28 29  1  0
 28 56  1  0
 29 30  2  0
 29 32  1  0
 30 31  1  0
 30 57  1  0
 31 58  1  0
 32 59  1  1
 32 60  1  0
 32 61  1  0
 33 34  1  0
 33 62  1  0
 34 63  1  0
M  CHG  1  21   1
M  END
>  <s_epik_cmdline>  (777) 
J2VwaWtfcHl0aG9uJywgJy1waCcsICc3LjAwMDAwMCcsICctcGh0JywgJzIuMDAwMDAwJywgJy1tcycsICcxNicsICctdG4nLCAnOCcsICctbWEnLCAnMjAwJywgJy1pbWFlJywgJzxpbmZpbGUubWFlPicsICctb21hZScsICc8b3V0ZmlsZS5tYWU+Jw==

>  <s_epik_input>  (777) 
W09IXWMxW2NIXVtjSF1jKFtjSF1bY0hdMSlbTkhdYzJuYyhOKFtDSDNdKVtDSDJdYzNbY0hdW2NIXVtjSF1bY0hdW2NIXTMpW2NIXWMobjIpW05IXVtDSDJdW0NASF0oW09IXSljNFtjSF1bY0hdYyhbQ0gzXSlbY0hdW2NIXTQ=

>  <s_i_glide_gridfile>  (777) 
ATP-Grid

>  <s_lp_Force_Field>  (777) 
OPLS_2005

>  <s_lp_Variant>  (777) 
YAS_R028____OTV2128104____OTV1509977____OTV1268163____OTV1055862-1

>  <s_lp_label>  (777) 
49_sdstereoexpander_1_neutralizer_1_epik_1_stereoizer_1

>  <s_m_source_file>  (777) 
ATP-VSW-LIGPREP-003-in.maegz

>  <s_sd_BIOSOLVEIT.INFINISEE\_QUERY\_NAME>  (777) 
Ref-Lig

>  <s_sd_BIOSOLVEIT.INFINISEE\_QUERY\_SMILES>  (777) 
S(c1nc2c(cc1C[NH2+]Cc3ccc(cc3)C[NH+](C)C)cccc2)Cc4ccccc4

>  <s_sd_BIOSOLVEIT.INFINISEE\_REACTION\_NAME>  (777) 
YAS_R028

>  <s_sd_BIOSOLVEIT.INFINISEE\_REAGENT1\_NAME>  (777) 
OTV2128104

>  <s_sd_BIOSOLVEIT.INFINISEE\_REAGENT1\_SMILES>  (777) 
Clc1nc(Cl)cc(Cl)n1

>  <s_sd_BIOSOLVEIT.INFINISEE\_REAGENT2\_NAME>  (777) 
OTV1509977

>  <s_sd_BIOSOLVEIT.INFINISEE\_REAGENT2\_SMILES>  (777) 
Oc1ccc(N)cc1

>  <s_sd_BIOSOLVEIT.INFINISEE\_REAGENT3\_NAME>  (777) 
OTV1268163

>  <s_sd_BIOSOLVEIT.INFINISEE\_REAGENT3\_SMILES>  (777) 
N(Cc1ccccc1)C

>  <s_sd_BIOSOLVEIT.INFINISEE\_REAGENT4\_NAME>  (777) 
OTV1055862

>  <s_sd_BIOSOLVEIT.INFINISEE\_REAGENT4\_SMILES>  (777) 
OC(c1ccc(cc1)C)CN

>  <s_sd_BIOSOLVEIT.INFINISEE\_SPACE>  (777) 
CHEMriya_12bn_2022-01

>  <s_vsw_compound_code>  (777) 
1539

>  <s_vsw_variant>  (777) 
1539-1

>  <r_epik_Charging_Adjusted_Penalty>  (777) 
0.26371092217032099

>  <r_epik_Ionization_Penalty>  (777) 
0.0094000000000000004

>  <r_epik_Ionization_Penalty_Charging>  (777) 
0.0092999999999999992

>  <r_epik_Ionization_Penalty_Neutral>  (777) 
0.0001

>  <r_epik_State_Penalty>  (777) 
0.25440000000000002

>  <r_i_docking_score>  (777) 
-4.4909995942889598

>  <r_i_glide_ecoul>  (777) 
-7.1435675621032697

>  <r_i_glide_eff_state_penalty>  (777) 
0.25440000000000002

>  <r_i_glide_einternal>  (777) 
4.6981964111328098

>  <r_i_glide_emodel>  (777) 
-57.455004098262798

>  <r_i_glide_energy>  (777) 
-40.508828639984102

>  <r_i_glide_erotb>  (777) 
0.86776031109485896

>  <r_i_glide_esite>  (777) 
-0.033472351264591901

>  <r_i_glide_evdw>  (777) 
-33.365261077880902

>  <r_i_glide_gscore>  (777) 
-4.7453995942889602

>  <r_i_glide_hbond>  (777) 
-0.16

>  <r_i_glide_ligand_efficiency>  (777) 
-0.13208822336143999

>  <r_i_glide_ligand_efficiency_ln>  (777) 
-0.99218777865022101

>  <r_i_glide_ligand_efficiency_sa>  (777) 
-0.42791456670850297

>  <r_i_glide_lipo>  (777) 
-2.2515929503388099

>  <r_i_glide_metal>  (777) 
-0

>  <r_i_glide_rewards>  (777) 
-0.42829641557088299

>  <r_lp_Energy>  (777) 
14.715106

>  <r_lp_tautomer_probability>  (777) 
0.42498940569696197

>  <r_qp_ACxDN^.5/SA>  (777) 
0.0151641

>  <r_qp_CIQPlogS>  (777) 
-7.2430000000000003

>  <r_qp_EA(eV)>  (777) 
0.062

>  <r_qp_FISA>  (777) 
139.476

>  <r_qp_FOSA>  (777) 
226.65799999999999

>  <r_qp_IP(eV)>  (777) 
7.944

>  <r_qp_Jm>  (777) 
0.0101832425063898

>  <r_qp_PISA>  (777) 
418.61399999999998

>  <r_qp_PSA>  (777) 
87.057000000000002

>  <r_qp_PercentHumanOralAbsorption>  (777) 
100

>  <r_qp_QPPCaco>  (777) 
471.24299999999999

>  <r_qp_QPPMDCK>  (777) 
219.36500000000001

>  <r_qp_QPlogBB>  (777) 
-1.5780000000000001

>  <r_qp_QPlogHERG>  (777) 
-6.8760000000000003

>  <r_qp_QPlogKhsa>  (777) 
0.71599999999999997

>  <r_qp_QPlogKp>  (777) 
-1.5589999999999999

>  <r_qp_QPlogPC16>  (777) 
16.687000000000001

>  <r_qp_QPlogPo/w>  (777) 
4.9199999999999999

>  <r_qp_QPlogPoct>  (777) 
25.518000000000001

>  <r_qp_QPlogPw>  (777) 
14.696999999999999

>  <r_qp_QPlogS>  (777) 
-6.0910000000000002

>  <r_qp_QPpolrz>  (777) 
49.206000000000003

>  <r_qp_SASA>  (777) 
784.74900000000002

>  <r_qp_SAamideO>  (777) 
0

>  <r_qp_SAfluorine>  (777) 
0

>  <r_qp_WPSA>  (777) 
0

>  <r_qp_accptHB>  (777) 
5.9500000000000002

>  <r_qp_dip^2/V>  (777) 
0.0012155

>  <r_qp_dipole>  (777) 
1.3320000000000001

>  <r_qp_donorHB>  (777) 
4

>  <r_qp_glob>  (777) 
0.79308469999999998

>  <r_qp_mol_MW>  (777) 
455.55799999999999

>  <r_qp_volume>  (777) 
1459.915

>  <r_sd_BIOSOLVEIT.INFINISEE\_FTREES\_SIMILARITY>  (777) 
0.91800000000000004

>  <r_sd_BIOSOLVEIT.LOGP>  (777) 
5.0161199999999999

>  <r_sd_BIOSOLVEIT.MOLECULAR\_WEIGHT>  (777) 
455.55900000000003

>  <r_sd_BIOSOLVEIT.TPSA>  (777) 
93.540000000000006

>  <i_epik_Tot_Q>  (777) 
1

>  <i_epik_Tot_abs_Q>  (777) 
1

>  <i_f3d_flags>  (777) 
0

>  <i_i_glide_confnum>  (777) 
12

>  <i_i_glide_lignum>  (777) 
167

>  <i_i_glide_posenum>  (777) 
6

>  <i_i_glide_rotatable_bonds>  (777) 
11

>  <i_lp_mmshare_version>  (777) 
65135

>  <i_m_ct_format>  (777) 
2

>  <i_m_source_file_index>  (777) 
49

>  <i_qp_#NandO>  (777) 
7

>  <i_qp_#acid>  (777) 
0

>  <i_qp_#amide>  (777) 
0

>  <i_qp_#amidine>  (777) 
0

>  <i_qp_#amine>  (777) 
0

>  <i_qp_#in34>  (777) 
0

>  <i_qp_#in56>  (777) 
24

>  <i_qp_#metab>  (777) 
5

>  <i_qp_#nonHatm>  (777) 
34

>  <i_qp_#noncon>  (777) 
0

>  <i_qp_#ringatoms>  (777) 
24

>  <i_qp_#rotor>  (777) 
11

>  <i_qp_#rtvFG>  (777) 
0

>  <i_qp_#stars>  (777) 
0

>  <i_qp_CNS>  (777) 
-2

>  <i_qp_HumanOralAbsorption>  (777) 
3

>  <i_qp_RuleOfFive>  (777) 
0

>  <i_qp_RuleOfThree>  (777) 
1

>  <i_sd_BIOSOLVEIT.INFINISEE\_RESULT\_RANK>  (777) 
20947

>  <i_sd_version>  (777) 
0

>  <b_lp_Chiralities_Consistent>  (777) 
1

>  <b_sd_chiral_flag>  (777) 
0

>  <canonical_id>  (777) 
ATP-HTVS-7A7BCDC0632F

>  <compound_code>  (777) 
1539

>  <title>  (777) 
YAS_R028____OTV2128104____OTV1509977____OTV1268163____OTV1055862

>  <variant>  (777) 
1539-1

>  <source_file>  (777) 
运行/运行/ATP-VSW/ATP-VSW-DOCK_HTVS_1-003_lib/ATP-VSW-DOCK_HTVS_1-003_lib.mae

>  <canonical_smiles>  (777) 
Cc1ccc([C@@H](O)CNc2cc(N(C)Cc3ccccc3)nc(Nc3ccc(O)cc3)[nH+]2)cc1

>  <scaffold>  (777) 
c1ccc(CCNc2cc(NCc3ccccc3)nc(Nc3ccccc3)[nH+]2)cc1

>  <molecular_formula>  (777) 
C27H30N5O2+

$$$$
ATP-HTVS-7AB1442FC022
     RDKit          3D

 69 72  0  0  0  0  0  0  0  0999 V2000
  193.1687  187.2821  163.0569 O   0  0  0  0  0  0  0  0  0  0  0  0
  193.6736  187.7272  161.7962 C   0  0  1  0  0  0  0  0  0  0  0  0
  194.9593  186.9202  161.4693 C   0  0  1  0  0  0  0  0  0  0  0  0
  195.8155  187.5368  160.3998 N   0  0  2  0  0  0  0  0  0  0  0  0
  197.0374  186.7462  160.0791 C   0  0  1  0  0  0  0  0  0  0  0  0
  196.8081  185.5161  159.2219 C   0  0  0  0  0  0  0  0  0  0  0  0
  197.9847  184.8101  158.8339 C   0  0  0  0  0  0  0  0  0  0  0  0
  197.9116  183.6259  158.0692 C   0  0  0  0  0  0  0  0  0  0  0  0
  196.5961  183.1432  157.7556 C   0  0  0  0  0  0  0  0  0  0  0  0
  195.4494  183.8396  158.1544 C   0  0  0  0  0  0  0  0  0  0  0  0
  195.5347  185.0636  158.8415 C   0  0  0  0  0  0  0  0  0  0  0  0
  196.3973  181.8058  157.0332 C   0  0  1  0  0  0  0  0  0  0  0  0
  197.4601  181.4731  156.0548 N   0  0  2  0  0  0  0  0  0  0  0  0
  196.9819  180.8381  154.8052 C   0  0  1  0  0  0  0  0  0  0  0  0
  197.1676  181.8767  153.7286 C   0  0  0  0  0  0  0  0  0  0  0  0
  197.8000  183.0397  153.9238 N   0  0  0  0  0  0  0  0  0  0  0  0
  197.7084  183.6552  152.6845 C   0  0  0  0  0  0  0  0  0  0  0  0
  197.0174  182.8335  151.7585 C   0  0  0  0  0  0  0  0  0  0  0  0
  196.7030  181.6679  152.4602 N   0  0  0  0  0  0  0  0  0  0  0  0
  196.0115  180.5009  151.9216 C   0  0  1  0  0  0  0  0  0  0  0  0
  196.9347  179.6152  151.0998 C   0  0  0  0  0  0  0  0  0  0  0  0
  197.9292  178.8442  151.7316 C   0  0  0  0  0  0  0  0  0  0  0  0
  198.7800  178.0174  150.9703 C   0  0  0  0  0  0  0  0  0  0  0  0
  198.6355  177.9563  149.5716 C   0  0  0  0  0  0  0  0  0  0  0  0
  197.6364  178.7161  148.9344 C   0  0  0  0  0  0  0  0  0  0  0  0
  196.7854  179.5449  149.6956 C   0  0  0  0  0  0  0  0  0  0  0  0
  196.7824  183.2609  150.4298 C   0  0  0  0  0  0  0  0  0  0  0  0
  197.2385  184.5306  150.0208 C   0  0  0  0  0  0  0  0  0  0  0  0
  197.9491  185.3487  150.9215 C   0  0  0  0  0  0  0  0  0  0  0  0
  198.1864  184.9118  152.2454 C   0  0  0  0  0  0  0  0  0  0  0  0
  198.5726  180.7086  156.6755 C   0  0  2  0  0  0  0  0  0  0  0  0
  196.1613  188.9682  160.6355 C   0  0  2  0  0  0  0  0  0  0  0  0
  192.1502  186.3099  162.9926 C   0  0  2  0  0  0  0  0  0  0  0  0
  192.9405  187.6215  160.9937 H   0  0  0  0  0  0  0  0  0  0  0  0
  193.8778  188.7806  161.9374 H   0  0  0  0  0  0  0  0  0  0  0  0
  195.5464  186.8446  162.3867 H   0  0  0  0  0  0  0  0  0  0  0  0
  194.6880  185.9052  161.1890 H   0  0  0  0  0  0  0  0  0  0  0  0
  197.7812  187.3554  159.5759 H   0  0  0  0  0  0  0  0  0  0  0  0
  197.5143  186.3782  160.9554 H   0  0  0  0  0  0  0  0  0  0  0  0
  198.9553  185.1789  159.1245 H   0  0  0  0  0  0  0  0  0  0  0  0
  198.8190  183.1776  157.7323 H   0  0  0  0  0  0  0  0  0  0  0  0
  194.4603  183.4625  157.8872 H   0  0  0  0  0  0  0  0  0  0  0  0
  194.6242  185.6092  159.0773 H   0  0  0  0  0  0  0  0  0  0  0  0
  196.2998  181.0660  157.7943 H   0  0  0  0  0  0  0  0  0  0  0  0
  195.4226  181.8492  156.5390 H   0  0  0  0  0  0  0  0  0  0  0  0
  197.5665  179.9578  154.5812 H   0  0  0  0  0  0  0  0  0  0  0  0
  195.9408  180.5325  154.8470 H   0  0  0  0  0  0  0  0  0  0  0  0
  195.5575  179.8962  152.7050 H   0  0  0  0  0  0  0  0  0  0  0  0
  195.1905  180.8486  151.2975 H   0  0  0  0  0  0  0  0  0  0  0  0
  198.0574  178.8649  152.8013 H   0  0  0  0  0  0  0  0  0  0  0  0
  199.5462  177.4380  151.4622 H   0  0  0  0  0  0  0  0  0  0  0  0
  199.2957  177.3272  148.9878 H   0  0  0  0  0  0  0  0  0  0  0  0
  197.5299  178.6695  147.8592 H   0  0  0  0  0  0  0  0  0  0  0  0
  196.0239  180.1202  149.1928 H   0  0  0  0  0  0  0  0  0  0  0  0
  196.2644  182.6250  149.7392 H   0  0  0  0  0  0  0  0  0  0  0  0
  197.0521  184.8705  149.0108 H   0  0  0  0  0  0  0  0  0  0  0  0
  198.3007  186.3188  150.6002 H   0  0  0  0  0  0  0  0  0  0  0  0
  198.7315  185.5430  152.9292 H   0  0  0  0  0  0  0  0  0  0  0  0
  198.2243  179.6915  156.9138 H   0  0  0  0  0  0  0  0  0  0  0  0
  198.9647  181.1986  157.5395 H   0  0  0  0  0  0  0  0  0  0  0  0
  199.3858  180.5720  155.9603 H   0  0  0  0  0  0  0  0  0  0  0  0
  196.6037  189.1009  161.6206 H   0  0  0  0  0  0  0  0  0  0  0  0
  195.2667  189.5999  160.5932 H   0  0  0  0  0  0  0  0  0  0  0  0
  196.9098  189.3224  159.9187 H   0  0  0  0  0  0  0  0  0  0  0  0
  191.8267  186.0479  164.0054 H   0  0  0  0  0  0  0  0  0  0  0  0
  192.5475  185.4340  162.4966 H   0  0  0  0  0  0  0  0  0  0  0  0
  191.3085  186.6956  162.4184 H   0  0  0  0  0  0  0  0  0  0  0  0
  195.2955  187.5431  159.5379 H   0  0  0  0  0  0  0  0  0  0  0  0
  197.8024  182.3601  155.6945 H   0  0  0  0  0  0  0  0  0  0  0  0
  1  2  1  0
  1 33  1  0
  2  3  1  0
  2 34  1  6
  2 35  1  0
  3  4  1  0
  3 36  1  1
  3 37  1  0
  4  5  1  0
  4 32  1  0
  4 68  1  6
  5  6  1  0
  5 38  1  6
  5 39  1  0
  6  7  1  0
  6 11  2  0
  7  8  2  0
  7 40  1  0
  8  9  1  0
  8 41  1  0
  9 10  2  0
  9 12  1  0
 10 11  1  0
 10 42  1  0
 11 43  1  0
 12 13  1  0
 12 44  1  1
 12 45  1  0
 13 14  1  0
 13 31  1  0
 13 69  1  6
 14 15  1  0
 14 46  1  6
 14 47  1  0
 15 16  2  0
 15 19  1  0
 16 17  1  0
 17 18  1  0
 17 30  2  0
 18 19  1  0
 18 27  2  0
 19 20  1  0
 20 21  1  0
 20 48  1  1
 20 49  1  0
 21 22  2  0
 21 26  1  0
 22 23  1  0
 22 50  1  0
 23 24  2  0
 23 51  1  0
 24 25  1  0
 24 52  1  0
 25 26  2  0
 25 53  1  0
 26 54  1  0
 27 28  1  0
 27 55  1  0
 28 29  2  0
 28 56  1  0
 29 30  1  0
 29 57  1  0
 30 58  1  0
 31 59  1  1
 31 60  1  0
 31 61  1  0
 32 62  1  1
 32 63  1  0
 32 64  1  0
 33 65  1  1
 33 66  1  0
 33 67  1  0
M  CHG  2   4   1  13   1
M  END
>  <s_epik_cmdline>  (778) 
J2VwaWtfcHl0aG9uJywgJy1waCcsICc3LjAwMDAwMCcsICctcGh0JywgJzIuMDAwMDAwJywgJy1tcycsICcxNicsICctdG4nLCAnOCcsICctbWEnLCAnMjAwJywgJy1pbWFlJywgJzxpbmZpbGUubWFlPicsICctb21hZScsICc8b3V0ZmlsZS5tYWU+Jw==

>  <s_epik_input>  (778) 
W0NIM11PW0NIMl1bQ0gyXU4oW0NIM10pW0NIMl1jMVtjSF1bY0hdYyhbY0hdW2NIXTEpW0NIMl1OKFtDSDNdKVtDSDJdYyhuMiluKGMoYzIzKVtjSF1bY0hdW2NIXVtjSF0zKVtDSDJdYzRbY0hdW2NIXVtjSF1bY0hdW2NIXTQ=

>  <s_i_glide_gridfile>  (778) 
ATP-Grid

>  <s_lp_Force_Field>  (778) 
OPLS_2005

>  <s_lp_Variant>  (778) 
m_270004bca____17609654____24720860-4

>  <s_lp_label>  (778) 
907_sdstereoexpander_1_neutralizer_1_epik_2_stereoizer_2

>  <s_m_source_file>  (778) 
ATP-VSW-LIGPREP-001-in.maegz

>  <s_sd_BIOSOLVEIT.INFINISEE\_QUERY\_NAME>  (778) 
Ref-Lig

>  <s_sd_BIOSOLVEIT.INFINISEE\_QUERY\_SMILES>  (778) 
S(c1nc2c(cc1C[NH2+]Cc3ccc(cc3)C[NH+](C)C)cccc2)Cc4ccccc4

>  <s_sd_BIOSOLVEIT.INFINISEE\_REACTION\_NAME>  (778) 
m_270004bca

>  <s_sd_BIOSOLVEIT.INFINISEE\_REAGENT1\_SMILES>  (778) 
[R1*]N(Cc1ccc(cc1)CN(CCOC)C)C

>  <s_sd_BIOSOLVEIT.INFINISEE\_REAGENT2\_SMILES>  (778) 
[R1*]CC1=Nc2c(N1Cc3ccccc3)cccc2

>  <s_sd_BIOSOLVEIT.INFINISEE\_SPACE>  (778) 
REALSpace_44bn_2023-08

>  <s_vsw_compound_code>  (778) 
28993

>  <s_vsw_variant>  (778) 
28993-4

>  <r_epik_Charging_Adjusted_Penalty>  (778) 
1.92409462097896

>  <r_epik_Ionization_Penalty>  (778) 
0.90710000000000002

>  <r_epik_Ionization_Penalty_Charging>  (778) 
0.90469999999999995

>  <r_epik_Ionization_Penalty_Neutral>  (778) 
0.0023999999999999998

>  <r_epik_State_Penalty>  (778) 
1.0194000000000001

>  <r_i_docking_score>  (778) 
-5.1431679964661203

>  <r_i_glide_ecoul>  (778) 
-12.8021383285522

>  <r_i_glide_eff_state_penalty>  (778) 
1.0194000000000001

>  <r_i_glide_einternal>  (778) 
17.771198272705099

>  <r_i_glide_emodel>  (778) 
-69.594214546928697

>  <r_i_glide_energy>  (778) 
-50.018668174743702

>  <r_i_glide_erotb>  (778) 
1.0118085306539999

>  <r_i_glide_esite>  (778) 
-0.0813747353325288

>  <r_i_glide_evdw>  (778) 
-37.216529846191399

>  <r_i_glide_gscore>  (778) 
-6.1625679964661204

>  <r_i_glide_hbond>  (778) 
-0.13092937170301699

>  <r_i_glide_ligand_efficiency>  (778) 
-0.15585357565048799

>  <r_i_glide_ligand_efficiency_ln>  (778) 
-1.14381393251538

>  <r_i_glide_ligand_efficiency_sa>  (778) 
-0.49990569376890198

>  <r_i_glide_lipo>  (778) 
-2.5782772694012599

>  <r_i_glide_metal>  (778) 
-0

>  <r_i_glide_rewards>  (778) 
-0.60264790909090704

>  <r_lp_Energy>  (778) 
25.307272000000001

>  <r_qp_ACxDN^.5/SA>  (778) 
0

>  <r_qp_CIQPlogS>  (778) 
-4.2949999999999999

>  <r_qp_EA(eV)>  (778) 
0.22700000000000001

>  <r_qp_FISA>  (778) 
11.707000000000001

>  <r_qp_FOSA>  (778) 
358.37299999999999

>  <r_qp_IP(eV)>  (778) 
8.4670000000000005

>  <r_qp_Jm>  (778) 
1.1303665270141201

>  <r_qp_PISA>  (778) 
360.26799999999997

>  <r_qp_PSA>  (778) 
29.338000000000001

>  <r_qp_PercentHumanOralAbsorption>  (778) 
100

>  <r_qp_QPPCaco>  (778) 
477.18400000000003

>  <r_qp_QPPMDCK>  (778) 
272.149

>  <r_qp_QPlogBB>  (778) 
0.58799999999999997

>  <r_qp_QPlogHERG>  (778) 
-7.226

>  <r_qp_QPlogKhsa>  (778) 
0.40300000000000002

>  <r_qp_QPlogKp>  (778) 
-3.5350000000000001

>  <r_qp_QPlogPC16>  (778) 
14.106999999999999

>  <r_qp_QPlogPo/w>  (778) 
4.4640000000000004

>  <r_qp_QPlogPoct>  (778) 
19.649999999999999

>  <r_qp_QPlogPw>  (778) 
8.6720000000000006

>  <r_qp_QPlogS>  (778) 
-2.0579999999999998

>  <r_qp_QPpolrz>  (778) 
47.816000000000003

>  <r_qp_SASA>  (778) 
730.34799999999996

>  <r_qp_SAamideO>  (778) 
0

>  <r_qp_SAfluorine>  (778) 
0

>  <r_qp_WPSA>  (778) 
0

>  <r_qp_accptHB>  (778) 
7.2000000000000002

>  <r_qp_dip^2/V>  (778) 
0.020501800000000001

>  <r_qp_dipole>  (778) 
5.4320000000000004

>  <r_qp_donorHB>  (778) 
0

>  <r_qp_glob>  (778) 
0.84403260000000002

>  <r_qp_mol_MW>  (778) 
442.60300000000001

>  <r_qp_volume>  (778) 
1439.0830000000001

>  <r_sd_BIOSOLVEIT.INFINISEE\_FTREES\_SIMILARITY>  (778) 
0.91900000000000004

>  <r_sd_BIOSOLVEIT.LOGP>  (778) 
1.9605999999999999

>  <r_sd_BIOSOLVEIT.MOLECULAR\_WEIGHT>  (778) 
444.61900000000003

>  <r_sd_BIOSOLVEIT.TPSA>  (778) 
35.93

>  <i_epik_Tot_Q>  (778) 
2

>  <i_epik_Tot_abs_Q>  (778) 
2

>  <i_f3d_flags>  (778) 
0

>  <i_i_glide_confnum>  (778) 
10

>  <i_i_glide_lignum>  (778) 
169

>  <i_i_glide_posenum>  (778) 
17

>  <i_i_glide_rotatable_bonds>  (778) 
11

>  <i_lp_mmshare_version>  (778) 
65135

>  <i_m_ct_format>  (778) 
2

>  <i_m_source_file_index>  (778) 
907

>  <i_qp_#NandO>  (778) 
5

>  <i_qp_#acid>  (778) 
0

>  <i_qp_#amide>  (778) 
0

>  <i_qp_#amidine>  (778) 
0

>  <i_qp_#amine>  (778) 
2

>  <i_qp_#in34>  (778) 
0

>  <i_qp_#in56>  (778) 
21

>  <i_qp_#metab>  (778) 
7

>  <i_qp_#nonHatm>  (778) 
33

>  <i_qp_#noncon>  (778) 
0

>  <i_qp_#ringatoms>  (778) 
21

>  <i_qp_#rotor>  (778) 
11

>  <i_qp_#rtvFG>  (778) 
0

>  <i_qp_#stars>  (778) 
0

>  <i_qp_CNS>  (778) 
2

>  <i_qp_HumanOralAbsorption>  (778) 
3

>  <i_qp_RuleOfFive>  (778) 
0

>  <i_qp_RuleOfThree>  (778) 
1

>  <i_sd_BIOSOLVEIT.INFINISEE\_REAGENT1\_NAME>  (778) 
17609654

>  <i_sd_BIOSOLVEIT.INFINISEE\_REAGENT2\_NAME>  (778) 
24720860

>  <i_sd_BIOSOLVEIT.INFINISEE\_RESULT\_RANK>  (778) 
19319

>  <i_sd_version>  (778) 
0

>  <b_lp_Chiralities_Consistent>  (778) 
1

>  <b_sd_chiral_flag>  (778) 
0

>  <canonical_id>  (778) 
ATP-HTVS-7AB1442FC022

>  <compound_code>  (778) 
28993

>  <title>  (778) 
m_270004bca____17609654____24720860

>  <variant>  (778) 
28993-4

>  <source_file>  (778) 
运行/运行/ATP-VSW/ATP-VSW-DOCK_HTVS_1-001_lib/ATP-VSW-DOCK_HTVS_1-001_lib

>  <canonical_smiles>  (778) 
COCC[N@@H+](C)Cc1ccc(C[N@@H+](C)Cc2nc3ccccc3n2Cc2ccccc2)cc1

>  <scaffold>  (778) 
c1ccc(C[NH2+]Cc2nc3ccccc3n2Cc2ccccc2)cc1

>  <molecular_formula>  (778) 
C28H36N4O+2

$$$$
ATP-HTVS-7ABEAEA32F74
     RDKit          3D

 63 66  0  0  0  0  0  0  0  0999 V2000
  197.8368  182.8788  154.3053 S   0  0  0  0  0  0  0  0  0  0  0  0
  197.5303  183.3198  152.6311 C   0  0  0  0  0  0  0  0  0  0  0  0
  197.0854  182.1807  151.8680 C   0  0  0  0  0  0  0  0  0  0  0  0
  196.9179  182.3671  150.4724 C   0  0  0  0  0  0  0  0  0  0  0  0
  197.1511  183.6169  149.8606 C   0  0  0  0  0  0  0  0  0  0  0  0
  197.5244  184.7399  150.6221 C   0  0  0  0  0  0  0  0  0  0  0  0
  197.7015  184.5901  152.0115 C   0  0  0  0  0  0  0  0  0  0  0  0
  196.9084  181.0173  152.7185 C   0  0  0  0  0  0  0  0  0  0  0  0
  197.2074  181.2840  154.0437 C   0  0  0  0  0  0  0  0  0  0  0  0
  197.0595  180.3688  155.2158 C   0  0  2  0  0  0  0  0  0  0  0  0
  197.0226  181.0565  156.5247 N   0  0  1  0  0  0  0  0  0  0  0  0
  195.9885  182.1021  156.6770 C   0  0  1  0  0  0  0  0  0  0  0  0
  196.4128  183.0819  157.7599 C   0  0  0  0  0  0  0  0  0  0  0  0
  197.2605  184.1734  157.4540 C   0  0  0  0  0  0  0  0  0  0  0  0
  197.6405  185.0925  158.4528 C   0  0  0  0  0  0  0  0  0  0  0  0
  197.1597  184.9158  159.7621 C   0  0  0  0  0  0  0  0  0  0  0  0
  196.3095  183.8367  160.0676 C   0  0  0  0  0  0  0  0  0  0  0  0
  195.9403  182.9147  159.0744 C   0  0  0  0  0  0  0  0  0  0  0  0
  198.5329  186.2811  158.1114 C   0  0  1  0  0  0  0  0  0  0  0  0
  197.7642  187.5123  157.7886 N   0  0  1  0  0  0  0  0  0  0  0  0
  196.7431  187.3174  156.7303 C   0  0  2  0  0  0  0  0  0  0  0  0
  197.2049  188.1794  158.9861 C   0  0  2  0  0  0  0  0  0  0  0  0
  198.1763  179.4141  155.3117 C   0  0  0  0  0  0  0  0  0  0  0  0
  199.1055  178.6205  155.3341 C   0  0  0  0  0  0  0  0  0  0  0  0
  200.2107  177.6749  155.3342 C   0  0  0  0  0  0  0  0  0  0  0  0
  201.1425  177.6693  154.2762 C   0  0  0  0  0  0  0  0  0  0  0  0
  202.2092  176.7467  154.2741 C   0  0  0  0  0  0  0  0  0  0  0  0
  202.3481  175.8106  155.3266 C   0  0  0  0  0  0  0  0  0  0  0  0
  201.4187  175.8345  156.3871 C   0  0  0  0  0  0  0  0  0  0  0  0
  200.3546  176.7586  156.3936 C   0  0  0  0  0  0  0  0  0  0  0  0
  203.4826  174.8230  155.3276 C   0  0  0  0  0  0  0  0  0  0  0  0
  203.4239  173.8392  156.1046 O   0  0  0  0  0  0  0  0  0  0  0  0
  204.4652  175.0348  154.5880 O   0  0  0  0  0  0  0  0  0  0  0  0
  196.4781  179.6579  152.2301 C   0  0  2  0  0  0  0  0  0  0  0  0
  196.8193  180.3294  157.2264 H   0  0  0  0  0  0  0  0  0  0  0  0
  196.6442  181.5215  149.8708 H   0  0  0  0  0  0  0  0  0  0  0  0
  197.0480  183.7113  148.7822 H   0  0  0  0  0  0  0  0  0  0  0  0
  197.7143  185.6887  150.1571 H   0  0  0  0  0  0  0  0  0  0  0  0
  197.9997  185.4292  152.6187 H   0  0  0  0  0  0  0  0  0  0  0  0
  196.1498  179.7744  155.1315 H   0  0  0  0  0  0  0  0  0  0  0  0
  195.8873  182.6650  155.7635 H   0  0  0  0  0  0  0  0  0  0  0  0
  195.0286  181.6172  156.9676 H   0  0  0  0  0  0  0  0  0  0  0  0
  197.6125  184.3495  156.4493 H   0  0  0  0  0  0  0  0  0  0  0  0
  197.4314  185.6142  160.5391 H   0  0  0  0  0  0  0  0  0  0  0  0
  195.9381  183.7057  161.0677 H   0  0  0  0  0  0  0  0  0  0  0  0
  195.2987  182.0809  159.3067 H   0  0  0  0  0  0  0  0  0  0  0  0
  199.2106  186.4738  158.9422 H   0  0  0  0  0  0  0  0  0  0  0  0
  199.1690  186.0230  157.2621 H   0  0  0  0  0  0  0  0  0  0  0  0
  195.9712  186.6147  157.0426 H   0  0  0  0  0  0  0  0  0  0  0  0
  197.1973  186.9498  155.8064 H   0  0  0  0  0  0  0  0  0  0  0  0
  196.2310  188.2444  156.5123 H   0  0  0  0  0  0  0  0  0  0  0  0
  196.4529  187.5570  159.4710 H   0  0  0  0  0  0  0  0  0  0  0  0
  196.7265  189.1243  158.7214 H   0  0  0  0  0  0  0  0  0  0  0  0
  197.9904  188.3972  159.7127 H   0  0  0  0  0  0  0  0  0  0  0  0
  201.0453  178.3658  153.4563 H   0  0  0  0  0  0  0  0  0  0  0  0
  202.9198  176.7508  153.4604 H   0  0  0  0  0  0  0  0  0  0  0  0
  201.5257  175.1365  157.2066 H   0  0  0  0  0  0  0  0  0  0  0  0
  199.6476  176.7539  157.2110 H   0  0  0  0  0  0  0  0  0  0  0  0
  195.5453  179.3356  152.6900 H   0  0  0  0  0  0  0  0  0  0  0  0
  197.2349  178.9090  152.4642 H   0  0  0  0  0  0  0  0  0  0  0  0
  196.3310  179.6392  151.1520 H   0  0  0  0  0  0  0  0  0  0  0  0
  198.4379  188.1639  157.4100 H   0  0  0  0  0  0  0  0  0  0  0  0
  197.9312  181.4361  156.7115 H   0  0  0  0  0  0  0  0  0  0  0  0
  1  2  1  0
  1  9  1  0
  2  3  1  0
  2  7  2  0
  3  4  2  0
  3  8  1  0
  4  5  1  0
  4 36  1  0
  5  6  2  0
  5 37  1  0
  6  7  1  0
  6 38  1  0
  7 39  1  0
  8  9  2  0
  8 34  1  0
  9 10  1  0
 10 11  1  0
 10 23  1  0
 10 40  1  6
 11 12  1  0
 11 35  1  1
 11 63  1  0
 12 13  1  0
 12 41  1  6
 12 42  1  0
 13 14  2  0
 13 18  1  0
 14 15  1  0
 14 43  1  0
 15 16  2  0
 15 19  1  0
 16 17  1  0
 16 44  1  0
 17 18  2  0
 17 45  1  0
 18 46  1  0
 19 20  1  0
 19 47  1  1
 19 48  1  0
 20 21  1  0
 20 22  1  0
 20 62  1  6
 21 49  1  1
 21 50  1  0
 21 51  1  0
 22 52  1  1
 22 53  1  0
 22 54  1  0
 23 24  3  0
 24 25  1  0
 25 26  1  0
 25 30  2  0
 26 27  2  0
 26 55  1  0
 27 28  1  0
 27 56  1  0
 28 29  2  0
 28 31  1  0
 29 30  1  0
 29 57  1  0
 30 58  1  0
 31 32  1  0
 31 33  2  0
 34 59  1  1
 34 60  1  0
 34 61  1  0
M  CHG  3  11   1  20   1  32  -1
M  END
>  <s_epik_cmdline>  (779) 
J2VwaWtfcHl0aG9uJywgJy1waCcsICc3LjAwMDAwMCcsICctcGh0JywgJzIuMDAwMDAwJywgJy1tcycsICcxNicsICctdG4nLCAnOCcsICctbWEnLCAnMjAwJywgJy1pbWFlJywgJzxpbmZpbGUubWFlPicsICctb21hZScsICc8b3V0ZmlsZS5tYWU+Jw==

>  <s_epik_input>  (779) 
W2NIXTFbY0hdYyhDKD1PKVtPSF0pW2NIXVtjSF1jMUMjQ1tDQEhdKGMoczIpYyhbQ0gzXSljKGMyMylbY0hdW2NIXVtjSF1bY0hdMylbTkhdW0NIMl1jNFtjSF1jKFtjSF1bY0hdW2NIXTQpW0NIMl1OKFtDSDNdKVtDSDNd

>  <s_i_glide_gridfile>  (779) 
ATP-Grid

>  <s_lp_Force_Field>  (779) 
OPLS_2005

>  <s_lp_Variant>  (779) 
rxn403____EMOL2873214____EMOL721951____EMOL31600616-3

>  <s_lp_label>  (779) 
2923_sdstereoexpander_1_neutralizer_1_epik_2_stereoizer_1

>  <s_m_source_file>  (779) 
ATP-VSW-LIGPREP-001-in.maegz

>  <s_sd_BIOSOLVEIT.INFINISEE\_QUERY\_NAME>  (779) 
Ref-Lig

>  <s_sd_BIOSOLVEIT.INFINISEE\_QUERY\_SMILES>  (779) 
S(c1nc2c(cc1C[NH2+]Cc3ccc(cc3)C[NH+](C)C)cccc2)Cc4ccccc4

>  <s_sd_BIOSOLVEIT.INFINISEE\_REACTION\_NAME>  (779) 
rxn403

>  <s_sd_BIOSOLVEIT.INFINISEE\_REAGENT1\_NAME>  (779) 
EMOL2873214

>  <s_sd_BIOSOLVEIT.INFINISEE\_REAGENT1\_SMILES>  (779) 
N(Cc1cc(ccc1)CN)(C)C

>  <s_sd_BIOSOLVEIT.INFINISEE\_REAGENT2\_NAME>  (779) 
EMOL721951

>  <s_sd_BIOSOLVEIT.INFINISEE\_REAGENT2\_SMILES>  (779) 
S1c2c(cccc2)C(=C1C=O)C

>  <s_sd_BIOSOLVEIT.INFINISEE\_REAGENT3\_NAME>  (779) 
EMOL31600616

>  <s_sd_BIOSOLVEIT.INFINISEE\_REAGENT3\_SMILES>  (779) 
O=C(O)c1ccc(C#C)cc1

>  <s_sd_BIOSOLVEIT.INFINISEE\_SPACE>  (779) 
eXplore_7tr_2022-12

>  <s_vsw_compound_code>  (779) 
93505

>  <s_vsw_variant>  (779) 
93505-3

>  <r_epik_Charging_Adjusted_Penalty>  (779) 
1.4501652960356399

>  <r_epik_Ionization_Penalty>  (779) 
0.73040000000000005

>  <r_epik_Ionization_Penalty_Charging>  (779) 
0.73040000000000005

>  <r_epik_Ionization_Penalty_Neutral>  (779) 
0

>  <r_epik_State_Penalty>  (779) 
0.7198

>  <r_i_docking_score>  (779) 
-4.6379580075134399

>  <r_i_glide_ecoul>  (779) 
-9.6084747314453107

>  <r_i_glide_eff_state_penalty>  (779) 
0.7198

>  <r_i_glide_einternal>  (779) 
4.8230628967285201

>  <r_i_glide_emodel>  (779) 
-69.125063491691606

>  <r_i_glide_energy>  (779) 
-48.238880157470703

>  <r_i_glide_erotb>  (779) 
0.64111273366732902

>  <r_i_glide_esite>  (779) 
-0.098854112320915899

>  <r_i_glide_evdw>  (779) 
-38.630405426025398

>  <r_i_glide_gscore>  (779) 
-5.3577580075134401

>  <r_i_glide_hbond>  (779) 
-0.298989307332995

>  <r_i_glide_ligand_efficiency>  (779) 
-0.136410529632748

>  <r_i_glide_ligand_efficiency_ln>  (779) 
-1.0246550141753801

>  <r_i_glide_ligand_efficiency_sa>  (779) 
-0.44191716109731

>  <r_i_glide_lipo>  (779) 
-1.7178920463541001

>  <r_i_glide_metal>  (779) 
-0

>  <r_i_glide_rewards>  (779) 
-0.51034379415469699

>  <r_lp_Energy>  (779) 
22.611118000000001

>  <r_qp_ACxDN^.5/SA>  (779) 
0.0088775999999999994

>  <r_qp_CIQPlogS>  (779) 
-5.6310000000000002

>  <r_qp_EA(eV)>  (779) 
0.83199999999999996

>  <r_qp_FISA>  (779) 
119.36199999999999

>  <r_qp_FOSA>  (779) 
273.452

>  <r_qp_IP(eV)>  (779) 
8.8360000000000003

>  <r_qp_Jm>  (779) 
2.6989617286233802e-07

>  <r_qp_PISA>  (779) 
460.92399999999998

>  <r_qp_PSA>  (779) 
67.159999999999997

>  <r_qp_PercentHumanOralAbsorption>  (779) 
69.183000000000007

>  <r_qp_QPPCaco>  (779) 
11.518000000000001

>  <r_qp_QPPMDCK>  (779) 
8.202

>  <r_qp_QPlogBB>  (779) 
-0.57199999999999995

>  <r_qp_QPlogHERG>  (779) 
-7.5469999999999997

>  <r_qp_QPlogKhsa>  (779) 
1.145

>  <r_qp_QPlogKp>  (779) 
-5.3570000000000002

>  <r_qp_QPlogPC16>  (779) 
17.847000000000001

>  <r_qp_QPlogPo/w>  (779) 
3.9689999999999999

>  <r_qp_QPlogPoct>  (779) 
24.452000000000002

>  <r_qp_QPlogPw>  (779) 
12.144

>  <r_qp_QPlogS>  (779) 
-6.883

>  <r_qp_QPpolrz>  (779) 
54.865000000000002

>  <r_qp_SASA>  (779) 
876.15499999999997

>  <r_qp_SAamideO>  (779) 
0

>  <r_qp_SAfluorine>  (779) 
0

>  <r_qp_WPSA>  (779) 
22.417000000000002

>  <r_qp_accptHB>  (779) 
5.5

>  <r_qp_dip^2/V>  (779) 
0.0155944

>  <r_qp_dipole>  (779) 
4.931

>  <r_qp_donorHB>  (779) 
2

>  <r_qp_glob>  (779) 
0.74217469999999996

>  <r_qp_mol_MW>  (779) 
468.61200000000002

>  <r_qp_volume>  (779) 
1559.1310000000001

>  <r_sd_BIOSOLVEIT.INFINISEE\_FTREES\_SIMILARITY>  (779) 
0.90400000000000003

>  <r_sd_BIOSOLVEIT.LOGP>  (779) 
2.0741200000000002

>  <r_sd_BIOSOLVEIT.MOLECULAR\_WEIGHT>  (779) 
469.625

>  <r_sd_BIOSOLVEIT.TPSA>  (779) 
61.18

>  <i_epik_Tot_Q>  (779) 
1

>  <i_epik_Tot_abs_Q>  (779) 
3

>  <i_f3d_flags>  (779) 
0

>  <i_i_glide_confnum>  (779) 
3

>  <i_i_glide_lignum>  (779) 
1366

>  <i_i_glide_posenum>  (779) 
7

>  <i_i_glide_rotatable_bonds>  (779) 
9

>  <i_lp_mmshare_version>  (779) 
65135

>  <i_m_ct_format>  (779) 
2

>  <i_m_source_file_index>  (779) 
2923

>  <i_qp_#NandO>  (779) 
4

>  <i_qp_#acid>  (779) 
1

>  <i_qp_#amide>  (779) 
0

>  <i_qp_#amidine>  (779) 
0

>  <i_qp_#amine>  (779) 
2

>  <i_qp_#in34>  (779) 
0

>  <i_qp_#in56>  (779) 
21

>  <i_qp_#metab>  (779) 
7

>  <i_qp_#nonHatm>  (779) 
34

>  <i_qp_#noncon>  (779) 
0

>  <i_qp_#ringatoms>  (779) 
21

>  <i_qp_#rotor>  (779) 
9

>  <i_qp_#rtvFG>  (779) 
0

>  <i_qp_#stars>  (779) 
3

>  <i_qp_CNS>  (779) 
0

>  <i_qp_HumanOralAbsorption>  (779) 
1

>  <i_qp_RuleOfFive>  (779) 
0

>  <i_qp_RuleOfThree>  (779) 
3

>  <i_sd_BIOSOLVEIT.INFINISEE\_RESULT\_RANK>  (779) 
77355

>  <i_sd_version>  (779) 
0

>  <b_lp_Chiralities_Consistent>  (779) 
1

>  <b_sd_chiral_flag>  (779) 
0

>  <canonical_id>  (779) 
ATP-HTVS-7ABEAEA32F74

>  <compound_code>  (779) 
93505

>  <title>  (779) 
rxn403____EMOL2873214____EMOL721951____EMOL31600616

>  <variant>  (779) 
93505-3

>  <source_file>  (779) 
运行/运行/ATP-VSW/ATP-VSW-DOCK_HTVS_1-001_lib/ATP-VSW-DOCK_HTVS_1-001_lib

>  <canonical_smiles>  (779) 
Cc1c([C@@H](C#Cc2ccc(C(=O)[O-])cc2)[NH2+]Cc2cccc(C[NH+](C)C)c2)sc2ccccc12

>  <scaffold>  (779) 
C(#CC([NH2+]Cc1ccccc1)c1cc2ccccc2s1)c1ccccc1

>  <molecular_formula>  (779) 
C29H29N2O2S+

$$$$
ATP-HTVS-7ACA80837BCE
     RDKit          3D

 53 56  0  0  0  0  0  0  0  0999 V2000
  203.1936  181.5798  159.9475 F   0  0  0  0  0  0  0  0  0  0  0  0
  203.3620  181.6078  158.6030 C   0  0  0  0  0  0  0  0  0  0  0  0
  202.3881  182.1895  157.7528 C   0  0  0  0  0  0  0  0  0  0  0  0
  202.6050  182.1763  156.3529 C   0  0  0  0  0  0  0  0  0  0  0  0
  203.7712  181.6000  155.8102 C   0  0  0  0  0  0  0  0  0  0  0  0
  203.9752  181.5905  154.3715 C   0  0  0  0  0  0  0  0  0  0  0  0
  204.1346  181.5809  153.2263 N   0  0  0  0  0  0  0  0  0  0  0  0
  204.7324  181.0273  156.6644 C   0  0  0  0  0  0  0  0  0  0  0  0
  204.5275  181.0346  158.0568 C   0  0  0  0  0  0  0  0  0  0  0  0
  201.1460  182.8176  158.3244 C   0  0  0  0  0  0  0  0  0  0  0  0
  201.1810  183.4305  159.3901 O   0  0  0  0  0  0  0  0  0  0  0  0
  200.0359  182.5864  157.5987 N   0  0  0  0  0  0  0  0  0  0  0  0
  198.6794  182.9107  157.8814 C   0  0  0  0  0  0  0  0  0  0  0  0
  198.3320  183.7767  158.8602 N   0  0  0  0  0  0  0  0  0  0  0  0
  197.0335  184.0303  159.1143 C   0  0  0  0  0  0  0  0  0  0  0  0
  195.9945  183.4204  158.3683 C   0  0  0  0  0  0  0  0  0  0  0  0
  196.3328  182.5228  157.3390 C   0  0  0  0  0  0  0  0  0  0  0  0
  197.6926  182.2600  157.0908 C   0  0  0  0  0  0  0  0  0  0  0  0
  198.0324  181.2838  156.0649 C   0  0  0  0  0  0  0  0  0  0  0  0
  198.3821  180.4293  155.2670 C   0  0  0  0  0  0  0  0  0  0  0  0
  198.8961  179.3961  154.3581 C   0  0  1  0  0  0  0  0  0  0  0  0
  200.0312  178.7624  155.0680 N   0  0  1  0  0  0  0  0  0  0  0  0
  199.6840  177.5904  155.8974 C   0  0  1  0  0  0  0  0  0  0  0  0
  200.6946  176.4878  155.6726 C   0  0  0  0  0  0  0  0  0  0  0  0
  200.7617  175.8291  154.4241 C   0  0  0  0  0  0  0  0  0  0  0  0
  201.6743  174.7719  154.2297 C   0  0  0  0  0  0  0  0  0  0  0  0
  202.5257  174.3778  155.2806 C   0  0  0  0  0  0  0  0  0  0  0  0
  202.4584  175.0373  156.5224 C   0  0  0  0  0  0  0  0  0  0  0  0
  201.5484  176.0943  156.7162 C   0  0  0  0  0  0  0  0  0  0  0  0
  194.6438  183.7217  158.6283 C   0  0  0  0  0  0  0  0  0  0  0  0
  194.3191  184.6341  159.6502 C   0  0  0  0  0  0  0  0  0  0  0  0
  195.3397  185.2515  160.3921 C   0  0  0  0  0  0  0  0  0  0  0  0
  196.6858  184.9438  160.1263 C   0  0  0  0  0  0  0  0  0  0  0  0
  200.7004  178.4461  154.3818 H   0  0  0  0  0  0  0  0  0  0  0  0
  201.8858  182.6279  155.6854 H   0  0  0  0  0  0  0  0  0  0  0  0
  205.6260  180.5717  156.2605 H   0  0  0  0  0  0  0  0  0  0  0  0
  205.2649  180.5899  158.7117 H   0  0  0  0  0  0  0  0  0  0  0  0
  200.1599  182.0200  156.7775 H   0  0  0  0  0  0  0  0  0  0  0  0
  195.5566  182.0408  156.7562 H   0  0  0  0  0  0  0  0  0  0  0  0
  198.1048  178.6933  154.0921 H   0  0  0  0  0  0  0  0  0  0  0  0
  199.2452  179.8745  153.4436 H   0  0  0  0  0  0  0  0  0  0  0  0
  199.6302  177.8904  156.9453 H   0  0  0  0  0  0  0  0  0  0  0  0
  198.7135  177.1816  155.6378 H   0  0  0  0  0  0  0  0  0  0  0  0
  200.1010  176.1061  153.6170 H   0  0  0  0  0  0  0  0  0  0  0  0
  201.7247  174.2594  153.2794 H   0  0  0  0  0  0  0  0  0  0  0  0
  203.2261  173.5657  155.1368 H   0  0  0  0  0  0  0  0  0  0  0  0
  203.1092  174.7303  157.3307 H   0  0  0  0  0  0  0  0  0  0  0  0
  201.5005  176.5876  157.6762 H   0  0  0  0  0  0  0  0  0  0  0  0
  193.8610  183.2781  158.0281 H   0  0  0  0  0  0  0  0  0  0  0  0
  193.2834  184.8821  159.8384 H   0  0  0  0  0  0  0  0  0  0  0  0
  195.0927  185.9699  161.1614 H   0  0  0  0  0  0  0  0  0  0  0  0
  197.4693  185.4330  160.6783 H   0  0  0  0  0  0  0  0  0  0  0  0
  200.4915  179.4454  155.6521 H   0  0  0  0  0  0  0  0  0  0  0  0
  1  2  1  0
  2  3  2  0
  2  9  1  0
  3  4  1  0
  3 10  1  0
  4  5  2  0
  4 35  1  0
  5  6  1  0
  5  8  1  0
  6  7  3  0
  8  9  2  0
  8 36  1  0
  9 37  1  0
 10 11  2  0
 10 12  1  0
 12 13  1  0
 12 38  1  0
 13 14  2  0
 13 18  1  0
 14 15  1  0
 15 16  1  0
 15 33  2  0
 16 17  1  0
 16 30  2  0
 17 18  2  0
 17 39  1  0
 18 19  1  0
 19 20  3  0
 20 21  1  0
 21 22  1  0
 21 40  1  6
 21 41  1  0
 22 23  1  0
 22 34  1  6
 22 53  1  0
 23 24  1  0
 23 42  1  1
 23 43  1  0
 24 25  2  0
 24 29  1  0
 25 26  1  0
 25 44  1  0
 26 27  2  0
 26 45  1  0
 27 28  1  0
 27 46  1  0
 28 29  2  0
 28 47  1  0
 29 48  1  0
 30 31  1  0
 30 49  1  0
 31 32  2  0
 31 50  1  0
 32 33  1  0
 32 51  1  0
 33 52  1  0
M  CHG  1  22   1
M  END
>  <s_epik_cmdline>  (780) 
J2VwaWtfcHl0aG9uJywgJy1waCcsICc3LjAwMDAwMCcsICctcGh0JywgJzIuMDAwMDAwJywgJy1tcycsICcxNicsICctdG4nLCAnOCcsICctbWEnLCAnMjAwJywgJy1pbWFlJywgJzxpbmZpbGUubWFlPicsICctb21hZScsICc8b3V0ZmlsZS5tYWU+Jw==

>  <s_epik_input>  (780) 
TiNDYyhbY0hdW2NIXTEpW2NIXWMoYzFGKUMoPU8pW05IXWMobjIpYyhbY0hdYyhjMjMpW2NIXVtjSF1bY0hdW2NIXTMpQyNDW0NIMl1bTkhdW0NIMl1jNFtjSF1bY0hdW2NIXVtjSF1bY0hdNA==

>  <s_i_glide_gridfile>  (780) 
ATP-Grid

>  <s_lp_Force_Field>  (780) 
OPLS_2005

>  <s_lp_Variant>  (780) 
rxn503b____EMOL911925____EMOL44466703____EMOL1197208-2

>  <s_lp_label>  (780) 
2998_sdstereoexpander_1_neutralizer_1_epik_2_stereoizer_1

>  <s_m_source_file>  (780) 
ATP-VSW-LIGPREP-002-in.maegz

>  <s_sd_BIOSOLVEIT.INFINISEE\_QUERY\_NAME>  (780) 
Ref-Lig

>  <s_sd_BIOSOLVEIT.INFINISEE\_QUERY\_SMILES>  (780) 
S(c1nc2c(cc1C[NH2+]Cc3ccc(cc3)C[NH+](C)C)cccc2)Cc4ccccc4

>  <s_sd_BIOSOLVEIT.INFINISEE\_REACTION\_NAME>  (780) 
rxn503b

>  <s_sd_BIOSOLVEIT.INFINISEE\_REAGENT1\_NAME>  (780) 
EMOL911925

>  <s_sd_BIOSOLVEIT.INFINISEE\_REAGENT1\_SMILES>  (780) 
Fc1c(cc(C#N)cc1)C(=O)O

>  <s_sd_BIOSOLVEIT.INFINISEE\_REAGENT2\_NAME>  (780) 
EMOL44466703

>  <s_sd_BIOSOLVEIT.INFINISEE\_REAGENT2\_SMILES>  (780) 
Brc1c(nc2c(c1)cccc2)N

>  <s_sd_BIOSOLVEIT.INFINISEE\_REAGENT3\_NAME>  (780) 
EMOL1197208

>  <s_sd_BIOSOLVEIT.INFINISEE\_REAGENT3\_SMILES>  (780) 
N(CC#C)Cc1ccccc1

>  <s_sd_BIOSOLVEIT.INFINISEE\_SPACE>  (780) 
eXplore_7tr_2022-12

>  <s_vsw_compound_code>  (780) 
95906

>  <s_vsw_variant>  (780) 
95906-2

>  <r_epik_Charging_Adjusted_Penalty>  (780) 
1.1372904760564899

>  <r_epik_Ionization_Penalty>  (780) 
0.56910000000000005

>  <r_epik_Ionization_Penalty_Charging>  (780) 
0.56859999999999999

>  <r_epik_Ionization_Penalty_Neutral>  (780) 
0.00040000000000000002

>  <r_epik_State_Penalty>  (780) 
0.56859999999999999

>  <r_i_docking_score>  (780) 
-3.8249739234687699

>  <r_i_glide_ecoul>  (780) 
-6.72084617614746

>  <r_i_glide_eff_state_penalty>  (780) 
0.56859999999999999

>  <r_i_glide_einternal>  (780) 
7.7241549491882298

>  <r_i_glide_emodel>  (780) 
-51.156103487462602

>  <r_i_glide_energy>  (780) 
-40.169961929321303

>  <r_i_glide_erotb>  (780) 
0.73547272936214902

>  <r_i_glide_esite>  (780) 
-0.015146026510012499

>  <r_i_glide_evdw>  (780) 
-33.4491157531738

>  <r_i_glide_gscore>  (780) 
-4.3935739234687698

>  <r_i_glide_hbond>  (780) 
0

>  <r_i_glide_ligand_efficiency>  (780) 
-0.115908300711175

>  <r_i_glide_ligand_efficiency_ln>  (780) 
-0.85065439592440095

>  <r_i_glide_ligand_efficiency_sa>  (780) 
-0.37177985322926299

>  <r_i_glide_lipo>  (780) 
-1.73552447679415

>  <r_i_glide_metal>  (780) 
-0

>  <r_i_glide_rewards>  (780) 
-0.69779343544594796

>  <r_lp_Energy>  (780) 
24.114809999999999

>  <r_qp_ACxDN^.5/SA>  (780) 
0.0129722

>  <r_qp_CIQPlogS>  (780) 
-6.6619999999999999

>  <r_qp_EA(eV)>  (780) 
1.1319999999999999

>  <r_qp_FISA>  (780) 
102.057

>  <r_qp_FOSA>  (780) 
87.960999999999999

>  <r_qp_IP(eV)>  (780) 
8.827

>  <r_qp_Jm>  (780) 
0.0018462859349953501

>  <r_qp_PISA>  (780) 
481.82799999999997

>  <r_qp_PSA>  (780) 
83.364000000000004

>  <r_qp_PercentHumanOralAbsorption>  (780) 
95.167000000000002

>  <r_qp_QPPCaco>  (780) 
266.06799999999998

>  <r_qp_QPPMDCK>  (780) 
208.047

>  <r_qp_QPlogBB>  (780) 
-0.43099999999999999

>  <r_qp_QPlogHERG>  (780) 
-7.3970000000000002

>  <r_qp_QPlogKhsa>  (780) 
0.58699999999999997

>  <r_qp_QPlogKp>  (780) 
-2.9980000000000002

>  <r_qp_QPlogPC16>  (780) 
14.872

>  <r_qp_QPlogPo/w>  (780) 
4.2389999999999999

>  <r_qp_QPlogPoct>  (780) 
22.484000000000002

>  <r_qp_QPlogPw>  (780) 
12.976000000000001

>  <r_qp_QPlogS>  (780) 
-5.3739999999999997

>  <r_qp_QPpolrz>  (780) 
46.447000000000003

>  <r_qp_SASA>  (780) 
708.62099999999998

>  <r_qp_SAamideO>  (780) 
0

>  <r_qp_SAfluorine>  (780) 
36.774000000000001

>  <r_qp_WPSA>  (780) 
36.774000000000001

>  <r_qp_accptHB>  (780) 
6.5

>  <r_qp_dip^2/V>  (780) 
0.019491600000000001

>  <r_qp_dipole>  (780) 
5.0869999999999997

>  <r_qp_donorHB>  (780) 
2

>  <r_qp_glob>  (780) 
0.82444790000000001

>  <r_qp_mol_MW>  (780) 
434.47199999999998

>  <r_qp_volume>  (780) 
1327.7560000000001

>  <r_sd_BIOSOLVEIT.INFINISEE\_FTREES\_SIMILARITY>  (780) 
0.90300000000000002

>  <r_sd_BIOSOLVEIT.LOGP>  (780) 
3.6129799999999999

>  <r_sd_BIOSOLVEIT.MOLECULAR\_WEIGHT>  (780) 
435.48000000000002

>  <r_sd_BIOSOLVEIT.TPSA>  (780) 
82.390000000000001

>  <i_epik_Tot_Q>  (780) 
1

>  <i_epik_Tot_abs_Q>  (780) 
1

>  <i_f3d_flags>  (780) 
0

>  <i_i_glide_confnum>  (780) 
6

>  <i_i_glide_lignum>  (780) 
65

>  <i_i_glide_posenum>  (780) 
9

>  <i_i_glide_rotatable_bonds>  (780) 
8

>  <i_lp_mmshare_version>  (780) 
65135

>  <i_m_ct_format>  (780) 
2

>  <i_m_source_file_index>  (780) 
2998

>  <i_qp_#NandO>  (780) 
5

>  <i_qp_#acid>  (780) 
0

>  <i_qp_#amide>  (780) 
0

>  <i_qp_#amidine>  (780) 
0

>  <i_qp_#amine>  (780) 
1

>  <i_qp_#in34>  (780) 
0

>  <i_qp_#in56>  (780) 
22

>  <i_qp_#metab>  (780) 
3

>  <i_qp_#nonHatm>  (780) 
33

>  <i_qp_#noncon>  (780) 
0

>  <i_qp_#ringatoms>  (780) 
22

>  <i_qp_#rotor>  (780) 
8

>  <i_qp_#rtvFG>  (780) 
0

>  <i_qp_#stars>  (780) 
1

>  <i_qp_CNS>  (780) 
1

>  <i_qp_HumanOralAbsorption>  (780) 
3

>  <i_qp_RuleOfFive>  (780) 
0

>  <i_qp_RuleOfThree>  (780) 
0

>  <i_sd_BIOSOLVEIT.INFINISEE\_RESULT\_RANK>  (780) 
85522

>  <i_sd_version>  (780) 
0

>  <b_lp_Chiralities_Consistent>  (780) 
1

>  <b_sd_chiral_flag>  (780) 
0

>  <canonical_id>  (780) 
ATP-HTVS-7ACA80837BCE

>  <compound_code>  (780) 
95906

>  <title>  (780) 
rxn503b____EMOL911925____EMOL44466703____EMOL1197208

>  <variant>  (780) 
95906-2

>  <source_file>  (780) 
运行/运行/ATP-VSW/ATP-VSW-DOCK_HTVS_1-003_lib/ATP-VSW-DOCK_HTVS_1-003_lib.mae

>  <canonical_smiles>  (780) 
N#Cc1ccc(F)c(C(=O)Nc2nc3ccccc3cc2C#CC[NH2+]Cc2ccccc2)c1

>  <scaffold>  (780) 
O=C(Nc1nc2ccccc2cc1C#CC[NH2+]Cc1ccccc1)c1ccccc1

>  <molecular_formula>  (780) 
C27H20FN4O+

$$$$
ATP-HTVS-7AEE8A51E1B1
     RDKit          3D

 50 53  0  0  0  0  0  0  0  0999 V2000
  199.9890  177.2101  152.8548 N   0  0  0  0  0  0  0  0  0  0  0  0
  200.2078  176.0391  152.2544 C   0  0  0  0  0  0  0  0  0  0  0  0
  199.7884  175.7419  151.0217 N   0  0  0  0  0  0  0  0  0  0  0  0
  199.1172  176.6776  150.3199 C   0  0  0  0  0  0  0  0  0  0  0  0
  198.8383  177.9488  150.8858 C   0  0  0  0  0  0  0  0  0  0  0  0
  199.3190  178.1720  152.1956 C   0  0  0  0  0  0  0  0  0  0  0  0
  199.0847  179.3818  152.8642 N   0  0  0  0  0  0  0  0  0  0  0  0
  199.6693  179.6676  154.1763 C   0  0  1  0  0  0  0  0  0  0  0  0
  198.8199  180.5570  155.0616 C   0  0  0  0  0  0  0  0  0  0  0  0
  197.4212  180.6024  154.8958 C   0  0  0  0  0  0  0  0  0  0  0  0
  196.6463  181.4495  155.7009 C   0  0  0  0  0  0  0  0  0  0  0  0
  197.2425  182.2021  156.7380 C   0  0  0  0  0  0  0  0  0  0  0  0
  198.6457  182.1463  156.9119 C   0  0  0  0  0  0  0  0  0  0  0  0
  199.4317  181.3274  156.0741 C   0  0  0  0  0  0  0  0  0  0  0  0
  196.3875  183.0853  157.6378 C   0  0  1  0  0  0  0  0  0  0  0  0
  195.4094  182.3179  158.5492 C   0  0  1  0  0  0  0  0  0  0  0  0
  194.4996  181.4390  157.7810 N   0  0  2  0  0  0  0  0  0  0  0  0
  198.1198  178.9173  150.1472 C   0  0  0  0  0  0  0  0  0  0  0  0
  197.6938  178.6296  148.8373 C   0  0  0  0  0  0  0  0  0  0  0  0
  197.9796  177.3750  148.2638 C   0  0  0  0  0  0  0  0  0  0  0  0
  198.6823  176.4070  149.0080 C   0  0  0  0  0  0  0  0  0  0  0  0
  200.9650  175.0105  153.0078 C   0  0  0  0  0  0  0  0  0  0  0  0
  201.5605  175.3127  154.2602 C   0  0  0  0  0  0  0  0  0  0  0  0
  202.2851  174.3361  154.9732 C   0  0  0  0  0  0  0  0  0  0  0  0
  202.4212  173.0395  154.4458 C   0  0  0  0  0  0  0  0  0  0  0  0
  201.8303  172.7219  153.2103 C   0  0  0  0  0  0  0  0  0  0  0  0
  201.1086  173.6983  152.4952 C   0  0  0  0  0  0  0  0  0  0  0  0
  193.8468  180.9448  158.3881 H   0  0  0  0  0  0  0  0  0  0  0  0
  195.0939  180.7181  157.3700 H   0  0  0  0  0  0  0  0  0  0  0  0
  198.7007  180.1533  152.3447 H   0  0  0  0  0  0  0  0  0  0  0  0
  199.8760  178.7596  154.7566 H   0  0  0  0  0  0  0  0  0  0  0  0
  200.6198  180.1635  153.9992 H   0  0  0  0  0  0  0  0  0  0  0  0
  196.9166  179.9851  154.1678 H   0  0  0  0  0  0  0  0  0  0  0  0
  195.5871  181.4932  155.5033 H   0  0  0  0  0  0  0  0  0  0  0  0
  199.1288  182.7202  157.6909 H   0  0  0  0  0  0  0  0  0  0  0  0
  200.5046  181.2805  156.2178 H   0  0  0  0  0  0  0  0  0  0  0  0
  197.0311  183.7024  158.2599 H   0  0  0  0  0  0  0  0  0  0  0  0
  195.8523  183.7869  156.9973 H   0  0  0  0  0  0  0  0  0  0  0  0
  195.9644  181.7047  159.2580 H   0  0  0  0  0  0  0  0  0  0  0  0
  194.8183  183.0222  159.1413 H   0  0  0  0  0  0  0  0  0  0  0  0
  197.8910  179.8859  150.5649 H   0  0  0  0  0  0  0  0  0  0  0  0
  197.1585  179.3754  148.2616 H   0  0  0  0  0  0  0  0  0  0  0  0
  197.6630  177.1541  147.2543 H   0  0  0  0  0  0  0  0  0  0  0  0
  198.9080  175.4443  148.5661 H   0  0  0  0  0  0  0  0  0  0  0  0
  201.4748  176.3001  154.6878 H   0  0  0  0  0  0  0  0  0  0  0  0
  202.7426  174.5829  155.9208 H   0  0  0  0  0  0  0  0  0  0  0  0
  202.9798  172.2834  154.9794 H   0  0  0  0  0  0  0  0  0  0  0  0
  201.9437  171.7229  152.8140 H   0  0  0  0  0  0  0  0  0  0  0  0
  200.6697  173.4258  151.5465 H   0  0  0  0  0  0  0  0  0  0  0  0
  193.9908  181.9622  157.0727 H   0  0  0  0  0  0  0  0  0  0  0  0
  1  2  2  0
  1  6  1  0
  2  3  1  0
  2 22  1  0
  3  4  2  0
  4  5  1  0
  4 21  1  0
  5  6  2  0
  5 18  1  0
  6  7  1  0
  7  8  1  0
  7 30  1  0
  8  9  1  0
  8 31  1  1
  8 32  1  0
  9 10  1  0
  9 14  2  0
 10 11  2  0
 10 33  1  0
 11 12  1  0
 11 34  1  0
 12 13  2  0
 12 15  1  0
 13 14  1  0
 13 35  1  0
 14 36  1  0
 15 16  1  0
 15 37  1  1
 15 38  1  0
 16 17  1  0
 16 39  1  1
 16 40  1  0
 17 28  1  1
 17 29  1  0
 17 50  1  0
 18 19  2  0
 18 41  1  0
 19 20  1  0
 19 42  1  0
 20 21  2  0
 20 43  1  0
 21 44  1  0
 22 23  2  0
 22 27  1  0
 23 24  1  0
 23 45  1  0
 24 25  2  0
 24 46  1  0
 25 26  1  0
 25 47  1  0
 26 27  2  0
 26 48  1  0
 27 49  1  0
M  CHG  1  17   1
M  END
>  <s_epik_cmdline>  (781) 
J2VwaWtfcHl0aG9uJywgJy1waCcsICc3LjAwMDAwMCcsICctcGh0JywgJzIuMDAwMDAwJywgJy1tcycsICcxNicsICctdG4nLCAnOCcsICctbWEnLCAnMjAwJywgJy1pbWFlJywgJzxpbmZpbGUubWFlPicsICctb21hZScsICc8b3V0ZmlsZS5tYWU+Jw==

>  <s_epik_input>  (781) 
W2NIXTFbY0hdW2NIXVtjSF1bY0hdYzEtYyhuMiluYyhjKGMyMylbY0hdW2NIXVtjSF1bY0hdMylbTkhdW0NIMl1jNFtjSF1bY0hdYyhbY0hdW2NIXTQpW0NIMl1bQ0gyXVtOSDJd

>  <s_i_glide_gridfile>  (781) 
ATP-Grid

>  <s_lp_Force_Field>  (781) 
OPLS_2005

>  <s_lp_Variant>  (781) 
m_270166bbb____16815432____16818234-1

>  <s_lp_label>  (781) 
1456_sdstereoexpander_1_neutralizer_1_epik_1_stereoizer_1

>  <s_m_source_file>  (781) 
ATP-VSW-LIGPREP-001-in.maegz

>  <s_sd_BIOSOLVEIT.INFINISEE\_QUERY\_NAME>  (781) 
Ref-Lig

>  <s_sd_BIOSOLVEIT.INFINISEE\_QUERY\_SMILES>  (781) 
S(c1nc2c(cc1C[NH2+]Cc3ccc(cc3)C[NH+](C)C)cccc2)Cc4ccccc4

>  <s_sd_BIOSOLVEIT.INFINISEE\_REACTION\_NAME>  (781) 
m_270166bbb

>  <s_sd_BIOSOLVEIT.INFINISEE\_REAGENT1\_SMILES>  (781) 
[R1*]NCc1ccc(cc1)CCN

>  <s_sd_BIOSOLVEIT.INFINISEE\_REAGENT2\_SMILES>  (781) 
[R1*]c1nc(nc2c1cccc2)c3ccccc3

>  <s_sd_BIOSOLVEIT.INFINISEE\_SPACE>  (781) 
REALSpace_44bn_2023-08

>  <s_vsw_compound_code>  (781) 
46561

>  <s_vsw_variant>  (781) 
46561-1

>  <r_epik_Charging_Adjusted_Penalty>  (781) 
0.0083579784368863607

>  <r_epik_Ionization_Penalty>  (781) 
0.0085000000000000006

>  <r_epik_Ionization_Penalty_Charging>  (781) 
0.0011000000000000001

>  <r_epik_Ionization_Penalty_Neutral>  (781) 
0.0074000000000000003

>  <r_epik_State_Penalty>  (781) 
0.0071999999999999998

>  <r_i_docking_score>  (781) 
-5.2794475478696503

>  <r_i_glide_ecoul>  (781) 
-11.444348335266101

>  <r_i_glide_eff_state_penalty>  (781) 
0.0071999999999999998

>  <r_i_glide_einternal>  (781) 
5.1331920623779297

>  <r_i_glide_emodel>  (781) 
-56.978780627881697

>  <r_i_glide_energy>  (781) 
-39.874724388122601

>  <r_i_glide_erotb>  (781) 
0.75666710801354597

>  <r_i_glide_esite>  (781) 
-0.10000000000000001

>  <r_i_glide_evdw>  (781) 
-28.430376052856399

>  <r_i_glide_gscore>  (781) 
-5.2866475478696504

>  <r_i_glide_hbond>  (781) 
-0.345680455781955

>  <r_i_glide_ligand_efficiency>  (781) 
-0.19553509436554301

>  <r_i_glide_ligand_efficiency_ln>  (781) 
-1.2289683506488001

>  <r_i_glide_ligand_efficiency_sa>  (781) 
-0.58660528245217602

>  <r_i_glide_lipo>  (781) 
-1.11487659745153

>  <r_i_glide_metal>  (781) 
-0

>  <r_i_glide_rewards>  (781) 
-1.34458654971698

>  <r_lp_Energy>  (781) 
15.965557

>  <r_lp_tautomer_probability>  (781) 
0.99997800024199801

>  <r_qp_ACxDN^.5/SA>  (781) 
0.0094949000000000006

>  <r_qp_CIQPlogS>  (781) 
-5.0490000000000004

>  <r_qp_EA(eV)>  (781) 
0.92100000000000004

>  <r_qp_FISA>  (781) 
85.367000000000004

>  <r_qp_FOSA>  (781) 
116.18600000000001

>  <r_qp_IP(eV)>  (781) 
8.4190000000000005

>  <r_qp_Jm>  (781) 
0.054519706260600799

>  <r_qp_PISA>  (781) 
436.91500000000002

>  <r_qp_PSA>  (781) 
54.826000000000001

>  <r_qp_PercentHumanOralAbsorption>  (781) 
100

>  <r_qp_QPPCaco>  (781) 
383.05700000000002

>  <r_qp_QPPMDCK>  (781) 
193.99299999999999

>  <r_qp_QPlogBB>  (781) 
-0.26100000000000001

>  <r_qp_QPlogHERG>  (781) 
-6.883

>  <r_qp_QPlogKhsa>  (781) 
0.65000000000000002

>  <r_qp_QPlogKp>  (781) 
-2.944

>  <r_qp_QPlogPC16>  (781) 
13.493

>  <r_qp_QPlogPo/w>  (781) 
4.165

>  <r_qp_QPlogPoct>  (781) 
19.989999999999998

>  <r_qp_QPlogPw>  (781) 
11.105

>  <r_qp_QPlogS>  (781) 
-3.8690000000000002

>  <r_qp_QPpolrz>  (781) 
40.508000000000003

>  <r_qp_SASA>  (781) 
638.46799999999996

>  <r_qp_SAamideO>  (781) 
0

>  <r_qp_SAfluorine>  (781) 
0

>  <r_qp_WPSA>  (781) 
0

>  <r_qp_accptHB>  (781) 
3.5

>  <r_qp_dip^2/V>  (781) 
0.022375699999999998

>  <r_qp_dipole>  (781) 
5.125

>  <r_qp_donorHB>  (781) 
3

>  <r_qp_glob>  (781) 
0.8429662

>  <r_qp_mol_MW>  (781) 
354.45400000000001

>  <r_qp_volume>  (781) 
1174.0229999999999

>  <r_sd_BIOSOLVEIT.INFINISEE\_FTREES\_SIMILARITY>  (781) 
0.90800000000000003

>  <r_sd_BIOSOLVEIT.LOGP>  (781) 
3.6932999999999998

>  <r_sd_BIOSOLVEIT.MOLECULAR\_WEIGHT>  (781) 
355.46300000000002

>  <r_sd_BIOSOLVEIT.TPSA>  (781) 
65.450000000000003

>  <i_epik_Tot_Q>  (781) 
1

>  <i_epik_Tot_abs_Q>  (781) 
1

>  <i_f3d_flags>  (781) 
0

>  <i_i_glide_confnum>  (781) 
4

>  <i_i_glide_lignum>  (781) 
382

>  <i_i_glide_posenum>  (781) 
7

>  <i_i_glide_rotatable_bonds>  (781) 
6

>  <i_lp_mmshare_version>  (781) 
65135

>  <i_m_ct_format>  (781) 
2

>  <i_m_source_file_index>  (781) 
1456

>  <i_qp_#NandO>  (781) 
4

>  <i_qp_#acid>  (781) 
0

>  <i_qp_#amide>  (781) 
0

>  <i_qp_#amidine>  (781) 
0

>  <i_qp_#amine>  (781) 
1

>  <i_qp_#in34>  (781) 
0

>  <i_qp_#in56>  (781) 
22

>  <i_qp_#metab>  (781) 
4

>  <i_qp_#nonHatm>  (781) 
27

>  <i_qp_#noncon>  (781) 
0

>  <i_qp_#ringatoms>  (781) 
22

>  <i_qp_#rotor>  (781) 
7

>  <i_qp_#rtvFG>  (781) 
0

>  <i_qp_#stars>  (781) 
0

>  <i_qp_CNS>  (781) 
0

>  <i_qp_HumanOralAbsorption>  (781) 
3

>  <i_qp_RuleOfFive>  (781) 
0

>  <i_qp_RuleOfThree>  (781) 
0

>  <i_sd_BIOSOLVEIT.INFINISEE\_REAGENT1\_NAME>  (781) 
16815432

>  <i_sd_BIOSOLVEIT.INFINISEE\_REAGENT2\_NAME>  (781) 
16818234

>  <i_sd_BIOSOLVEIT.INFINISEE\_RESULT\_RANK>  (781) 
56389

>  <i_sd_version>  (781) 
0

>  <b_lp_Chiralities_Consistent>  (781) 
1

>  <b_sd_chiral_flag>  (781) 
0

>  <canonical_id>  (781) 
ATP-HTVS-7AEE8A51E1B1

>  <compound_code>  (781) 
46561

>  <title>  (781) 
m_270166bbb____16815432____16818234

>  <variant>  (781) 
46561-1

>  <source_file>  (781) 
运行/运行/ATP-VSW/ATP-VSW-DOCK_HTVS_1-001_lib/ATP-VSW-DOCK_HTVS_1-001_lib

>  <canonical_smiles>  (781) 
[NH3+]CCc1ccc(CNc2nc(-c3ccccc3)nc3ccccc23)cc1

>  <scaffold>  (781) 
c1ccc(CNc2nc(-c3ccccc3)nc3ccccc23)cc1

>  <molecular_formula>  (781) 
C23H23N4+

$$$$
ATP-HTVS-7AFD271A302C
     RDKit          3D

 60 62  0  0  0  0  0  0  0  0999 V2000
  196.3587  179.4991  149.4329 Cl  0  0  0  0  0  0  0  0  0  0  0  0
  196.7471  180.3830  150.8670 C   0  0  0  0  0  0  0  0  0  0  0  0
  196.3742  179.8621  152.1218 C   0  0  0  0  0  0  0  0  0  0  0  0
  196.6393  180.5831  153.3165 C   0  0  0  0  0  0  0  0  0  0  0  0
  197.3314  181.8227  153.2561 C   0  0  0  0  0  0  0  0  0  0  0  0
  197.7010  182.3338  151.9845 C   0  0  0  0  0  0  0  0  0  0  0  0
  197.4078  181.6269  150.7971 C   0  0  0  0  0  0  0  0  0  0  0  0
  197.6260  182.5484  154.5039 C   0  0  0  0  0  0  0  0  0  0  0  0
  197.8982  183.8379  154.4279 N   0  0  0  0  0  0  0  0  0  0  0  0
  198.1201  184.2490  155.6900 N   0  0  0  0  0  0  0  0  0  0  0  0
  198.0246  183.2032  156.5784 C   0  0  0  0  0  0  0  0  0  0  0  0
  197.7102  182.0798  155.8562 C   0  0  0  0  0  0  0  0  0  0  0  0
  197.5384  180.6763  156.3759 C   0  0  1  0  0  0  0  0  0  0  0  0
  198.7144  179.8533  155.9804 N   0  0  2  0  0  0  0  0  0  0  0  0
  198.3425  178.5181  155.4340 C   0  0  1  0  0  0  0  0  0  0  0  0
  199.5484  177.6275  155.1751 C   0  0  0  0  0  0  0  0  0  0  0  0
  200.0368  177.4175  153.8657 C   0  0  0  0  0  0  0  0  0  0  0  0
  201.1542  176.5894  153.6440 C   0  0  0  0  0  0  0  0  0  0  0  0
  201.7946  175.9707  154.7362 C   0  0  0  0  0  0  0  0  0  0  0  0
  201.3037  176.1769  156.0460 C   0  0  0  0  0  0  0  0  0  0  0  0
  200.1725  176.9812  156.2596 C   0  0  0  0  0  0  0  0  0  0  0  0
  203.0178  175.1021  154.5237 C   0  0  1  0  0  0  0  0  0  0  0  0
  202.6691  173.6684  154.6709 N   0  0  1  0  0  0  0  0  0  0  0  0
  202.2366  173.0554  153.3960 C   0  0  2  0  0  0  0  0  0  0  0  0
  203.7305  172.8825  155.3326 C   0  0  2  0  0  0  0  0  0  0  0  0
  199.7439  179.8180  157.0415 C   0  0  2  0  0  0  0  0  0  0  0  0
  198.4756  185.6421  155.9532 C   0  0  1  0  0  0  0  0  0  0  0  0
  197.8222  186.6330  154.9735 C   0  0  1  0  0  0  0  0  0  0  0  0
  198.3484  186.5570  153.5982 C   0  0  0  0  0  0  0  0  0  0  0  0
  198.7650  186.4988  152.5197 N   0  0  0  0  0  0  0  0  0  0  0  0
  195.8699  178.9107  152.1856 H   0  0  0  0  0  0  0  0  0  0  0  0
  196.2870  180.1908  154.2521 H   0  0  0  0  0  0  0  0  0  0  0  0
  198.2144  183.2833  151.9100 H   0  0  0  0  0  0  0  0  0  0  0  0
  197.6887  182.0446  149.8332 H   0  0  0  0  0  0  0  0  0  0  0  0
  198.1920  183.3435  157.6355 H   0  0  0  0  0  0  0  0  0  0  0  0
  197.4681  180.6831  157.4718 H   0  0  0  0  0  0  0  0  0  0  0  0
  196.6131  180.2440  156.0122 H   0  0  0  0  0  0  0  0  0  0  0  0
  197.6325  178.0090  156.0853 H   0  0  0  0  0  0  0  0  0  0  0  0
  197.8336  178.6619  154.4828 H   0  0  0  0  0  0  0  0  0  0  0  0
  199.5690  177.9081  153.0176 H   0  0  0  0  0  0  0  0  0  0  0  0
  201.5355  176.4624  152.6409 H   0  0  0  0  0  0  0  0  0  0  0  0
  201.8053  175.7374  156.9010 H   0  0  0  0  0  0  0  0  0  0  0  0
  199.7658  177.0733  157.2551 H   0  0  0  0  0  0  0  0  0  0  0  0
  203.4503  175.2939  153.5394 H   0  0  0  0  0  0  0  0  0  0  0  0
  203.7734  175.4030  155.2505 H   0  0  0  0  0  0  0  0  0  0  0  0
  203.0494  173.0706  152.6688 H   0  0  0  0  0  0  0  0  0  0  0  0
  201.3893  173.5950  152.9705 H   0  0  0  0  0  0  0  0  0  0  0  0
  201.9328  172.0175  153.5378 H   0  0  0  0  0  0  0  0  0  0  0  0
  204.6514  172.9121  154.7522 H   0  0  0  0  0  0  0  0  0  0  0  0
  203.4285  171.8423  155.4428 H   0  0  0  0  0  0  0  0  0  0  0  0
  203.9325  173.2782  156.3292 H   0  0  0  0  0  0  0  0  0  0  0  0
  199.3340  179.2641  157.8824 H   0  0  0  0  0  0  0  0  0  0  0  0
  199.9883  180.8311  157.3773 H   0  0  0  0  0  0  0  0  0  0  0  0
  200.6514  179.2993  156.7172 H   0  0  0  0  0  0  0  0  0  0  0  0
  198.1730  185.8900  156.9741 H   0  0  0  0  0  0  0  0  0  0  0  0
  199.5612  185.7404  155.9128 H   0  0  0  0  0  0  0  0  0  0  0  0
  196.7481  186.4593  154.9384 H   0  0  0  0  0  0  0  0  0  0  0  0
  197.9660  187.6597  155.3142 H   0  0  0  0  0  0  0  0  0  0  0  0
  201.8714  173.6324  155.2922 H   0  0  0  0  0  0  0  0  0  0  0  0
  199.1426  180.3341  155.2049 H   0  0  0  0  0  0  0  0  0  0  0  0
  1  2  1  0
  2  3  1  0
  2  7  2  0
  3  4  2  0
  3 31  1  0
  4  5  1  0
  4 32  1  0
  5  6  2  0
  5  8  1  0
  6  7  1  0
  6 33  1  0
  7 34  1  0
  8  9  2  0
  8 12  1  0
  9 10  1  0
 10 11  1  0
 10 27  1  0
 11 12  2  0
 11 35  1  0
 12 13  1  0
 13 14  1  0
 13 36  1  1
 13 37  1  0
 14 15  1  0
 14 26  1  0
 14 60  1  6
 15 16  1  0
 15 38  1  1
 15 39  1  0
 16 17  1  0
 16 21  2  0
 17 18  2  0
 17 40  1  0
 18 19  1  0
 18 41  1  0
 19 20  2  0
 19 22  1  0
 20 21  1  0
 20 42  1  0
 21 43  1  0
 22 23  1  0
 22 44  1  6
 22 45  1  0
 23 24  1  0
 23 25  1  0
 23 59  1  1
 24 46  1  6
 24 47  1  0
 24 48  1  0
 25 49  1  6
 25 50  1  0
 25 51  1  0
 26 52  1  1
 26 53  1  0
 26 54  1  0
 27 28  1  0
 27 55  1  1
 27 56  1  0
 28 29  1  0
 28 57  1  6
 28 58  1  0
 29 30  3  0
M  CHG  2  14   1  23   1
M  END
>  <s_epik_cmdline>  (782) 
J2VwaWtfcHl0aG9uJywgJy1waCcsICc3LjAwMDAwMCcsICctcGh0JywgJzIuMDAwMDAwJywgJy1tcycsICcxNicsICctdG4nLCAnOCcsICctbWEnLCAnMjAwJywgJy1pbWFlJywgJzxpbmZpbGUubWFlPicsICctb21hZScsICc8b3V0ZmlsZS5tYWU+Jw==

>  <s_epik_input>  (782) 
Q2xjMVtjSF1bY0hdYyhbY0hdW2NIXTEpLWMybm4oW0NIMl1bQ0gyXUMjTilbY0hdYzJbQ0gyXU4oW0NIM10pW0NIMl1jM1tjSF1bY0hdYyhbY0hdW2NIXTMpW0NIMl1OKFtDSDNdKVtDSDNd

>  <s_i_glide_gridfile>  (782) 
ATP-Grid

>  <s_lp_Force_Field>  (782) 
OPLS_2005

>  <s_lp_Variant>  (782) 
m_270004bca____10206040____24714838-2

>  <s_lp_label>  (782) 
1779_sdstereoexpander_1_neutralizer_1_epik_1_stereoizer_2

>  <s_m_source_file>  (782) 
ATP-VSW-LIGPREP-001-in.maegz

>  <s_sd_BIOSOLVEIT.INFINISEE\_QUERY\_NAME>  (782) 
Ref-Lig

>  <s_sd_BIOSOLVEIT.INFINISEE\_QUERY\_SMILES>  (782) 
S(c1nc2c(cc1C[NH2+]Cc3ccc(cc3)C[NH+](C)C)cccc2)Cc4ccccc4

>  <s_sd_BIOSOLVEIT.INFINISEE\_REACTION\_NAME>  (782) 
m_270004bca

>  <s_sd_BIOSOLVEIT.INFINISEE\_REAGENT1\_SMILES>  (782) 
[R1*]N(Cc1ccc(cc1)CN(C)C)C

>  <s_sd_BIOSOLVEIT.INFINISEE\_REAGENT2\_SMILES>  (782) 
[R1*]CC=1C(=NN(C1)CCC#N)c2ccc(Cl)cc2

>  <s_sd_BIOSOLVEIT.INFINISEE\_SPACE>  (782) 
REALSpace_44bn_2023-08

>  <s_vsw_compound_code>  (782) 
56897

>  <s_vsw_variant>  (782) 
56897-2

>  <r_epik_Charging_Adjusted_Penalty>  (782) 
0.56484616120168696

>  <r_epik_Ionization_Penalty>  (782) 
0.28370000000000001

>  <r_epik_Ionization_Penalty_Charging>  (782) 
0.28370000000000001

>  <r_epik_Ionization_Penalty_Neutral>  (782) 
0

>  <r_epik_State_Penalty>  (782) 
0.28120000000000001

>  <r_i_docking_score>  (782) 
-4.22779938077392

>  <r_i_glide_ecoul>  (782) 
-11.226173400878899

>  <r_i_glide_eff_state_penalty>  (782) 
0.28120000000000001

>  <r_i_glide_einternal>  (782) 
6.7250494956970197

>  <r_i_glide_emodel>  (782) 
-57.742043844348999

>  <r_i_glide_energy>  (782) 
-41.812440872192397

>  <r_i_glide_erotb>  (782) 
0.77197248185904299

>  <r_i_glide_esite>  (782) 
-0.10388888654263401

>  <r_i_glide_evdw>  (782) 
-30.586267471313501

>  <r_i_glide_gscore>  (782) 
-4.5089993807739202

>  <r_i_glide_hbond>  (782) 
0

>  <r_i_glide_ligand_efficiency>  (782) 
-0.14092664602579699

>  <r_i_glide_ligand_efficiency_ln>  (782) 
-0.96060208487565002

>  <r_i_glide_ligand_efficiency_sa>  (782) 
-0.43789185498995797

>  <r_i_glide_lipo>  (782) 
-0.99553359239281802

>  <r_i_glide_metal>  (782) 
-0

>  <r_i_glide_rewards>  (782) 
-0.968309999999999

>  <r_lp_Energy>  (782) 
16.526042

>  <r_lp_tautomer_probability>  (782) 
1

>  <r_qp_ACxDN^.5/SA>  (782) 
0

>  <r_qp_CIQPlogS>  (782) 
-4.71

>  <r_qp_EA(eV)>  (782) 
0.114

>  <r_qp_FISA>  (782) 
82.198999999999998

>  <r_qp_FOSA>  (782) 
349.38400000000001

>  <r_qp_IP(eV)>  (782) 
8.9220000000000006

>  <r_qp_Jm>  (782) 
0.00077329230610361302

>  <r_qp_PISA>  (782) 
232.56399999999999

>  <r_qp_PSA>  (782) 
49.305999999999997

>  <r_qp_PercentHumanOralAbsorption>  (782) 
83.359999999999999

>  <r_qp_QPPCaco>  (782) 
102.379

>  <r_qp_QPPMDCK>  (782) 
89.885999999999996

>  <r_qp_QPlogBB>  (782) 
0.13600000000000001

>  <r_qp_QPlogHERG>  (782) 
-6.7990000000000004

>  <r_qp_QPlogKhsa>  (782) 
0.27300000000000002

>  <r_qp_QPlogKp>  (782) 
-5.476

>  <r_qp_QPlogPC16>  (782) 
13.226000000000001

>  <r_qp_QPlogPo/w>  (782) 
3.4900000000000002

>  <r_qp_QPlogPoct>  (782) 
18.591000000000001

>  <r_qp_QPlogPw>  (782) 
8.4900000000000002

>  <r_qp_QPlogS>  (782) 
-3.2610000000000001

>  <r_qp_QPpolrz>  (782) 
44.186999999999998

>  <r_qp_SASA>  (782) 
708.21900000000005

>  <r_qp_SAamideO>  (782) 
0

>  <r_qp_SAfluorine>  (782) 
0

>  <r_qp_WPSA>  (782) 
44.073

>  <r_qp_accptHB>  (782) 
7

>  <r_qp_dip^2/V>  (782) 
0.019054700000000001

>  <r_qp_dipole>  (782) 
5.0659999999999998

>  <r_qp_donorHB>  (782) 
0

>  <r_qp_glob>  (782) 
0.83278209999999997

>  <r_qp_mol_MW>  (782) 
421.97199999999998

>  <r_qp_volume>  (782) 
1346.7929999999999

>  <r_sd_BIOSOLVEIT.INFINISEE\_FTREES\_SIMILARITY>  (782) 
0.90400000000000003

>  <r_sd_BIOSOLVEIT.LOGP>  (782) 
1.97658

>  <r_sd_BIOSOLVEIT.MOLECULAR\_WEIGHT>  (782) 
423.98899999999998

>  <r_sd_BIOSOLVEIT.TPSA>  (782) 
50.490000000000002

>  <i_epik_Tot_Q>  (782) 
2

>  <i_epik_Tot_abs_Q>  (782) 
2

>  <i_f3d_flags>  (782) 
0

>  <i_i_glide_confnum>  (782) 
7

>  <i_i_glide_lignum>  (782) 
506

>  <i_i_glide_posenum>  (782) 
2

>  <i_i_glide_rotatable_bonds>  (782) 
9

>  <i_lp_mmshare_version>  (782) 
65135

>  <i_m_ct_format>  (782) 
2

>  <i_m_source_file_index>  (782) 
1779

>  <i_qp_#NandO>  (782) 
5

>  <i_qp_#acid>  (782) 
0

>  <i_qp_#amide>  (782) 
0

>  <i_qp_#amidine>  (782) 
0

>  <i_qp_#amine>  (782) 
2

>  <i_qp_#in34>  (782) 
0

>  <i_qp_#in56>  (782) 
17

>  <i_qp_#metab>  (782) 
6

>  <i_qp_#nonHatm>  (782) 
30

>  <i_qp_#noncon>  (782) 
0

>  <i_qp_#ringatoms>  (782) 
17

>  <i_qp_#rotor>  (782) 
9

>  <i_qp_#rtvFG>  (782) 
0

>  <i_qp_#stars>  (782) 
0

>  <i_qp_CNS>  (782) 
1

>  <i_qp_HumanOralAbsorption>  (782) 
3

>  <i_qp_RuleOfFive>  (782) 
0

>  <i_qp_RuleOfThree>  (782) 
0

>  <i_sd_BIOSOLVEIT.INFINISEE\_REAGENT1\_NAME>  (782) 
10206040

>  <i_sd_BIOSOLVEIT.INFINISEE\_REAGENT2\_NAME>  (782) 
24714838

>  <i_sd_BIOSOLVEIT.INFINISEE\_RESULT\_RANK>  (782) 
76408

>  <i_sd_version>  (782) 
0

>  <b_lp_Chiralities_Consistent>  (782) 
1

>  <b_sd_chiral_flag>  (782) 
0

>  <canonical_id>  (782) 
ATP-HTVS-7AFD271A302C

>  <compound_code>  (782) 
56897

>  <title>  (782) 
m_270004bca____10206040____24714838

>  <variant>  (782) 
56897-2

>  <source_file>  (782) 
运行/运行/ATP-VSW/ATP-VSW-DOCK_HTVS_1-001_lib/ATP-VSW-DOCK_HTVS_1-001_lib

>  <canonical_smiles>  (782) 
C[NH+](C)Cc1ccc(C[N@H+](C)Cc2cn(CCC#N)nc2-c2ccc(Cl)cc2)cc1

>  <scaffold>  (782) 
c1ccc(C[NH2+]Cc2c[nH]nc2-c2ccccc2)cc1

>  <molecular_formula>  (782) 
C24H30ClN5+2

$$$$
ATP-HTVS-7B1416FC1373
     RDKit          3D

 52 54  0  0  0  0  0  0  0  0999 V2000
  193.5449  181.2830  158.3865 Cl  0  0  0  0  0  0  0  0  0  0  0  0
  194.5930  182.6363  158.5324 C   0  0  0  0  0  0  0  0  0  0  0  0
  193.9972  184.0442  159.3342 S   0  0  0  0  0  0  0  0  0  0  0  0
  195.5180  184.8634  159.0986 C   0  0  0  0  0  0  0  0  0  0  0  0
  195.6418  186.2045  159.6977 C   0  0  0  0  0  0  0  0  0  0  0  0
  194.9340  186.5352  160.6471 O   0  0  0  0  0  0  0  0  0  0  0  0
  196.5384  186.9993  159.0874 N   0  0  0  0  0  0  0  0  0  0  0  0
  196.8638  188.3683  159.3346 C   0  0  0  0  0  0  0  0  0  0  0  0
  197.4693  189.1334  158.2989 C   0  0  0  0  0  0  0  0  0  0  0  0
  197.7576  188.5583  156.9888 C   0  0  0  0  0  0  0  0  0  0  0  0
  197.9837  188.0804  155.8879 C   0  0  0  0  0  0  0  0  0  0  0  0
  197.7979  190.4884  158.5205 C   0  0  0  0  0  0  0  0  0  0  0  0
  197.5434  191.0901  159.7649 C   0  0  0  0  0  0  0  0  0  0  0  0
  196.9593  190.3359  160.7954 C   0  0  0  0  0  0  0  0  0  0  0  0
  196.6317  188.9846  160.5877 C   0  0  0  0  0  0  0  0  0  0  0  0
  196.4034  184.0849  158.3995 C   0  0  0  0  0  0  0  0  0  0  0  0
  195.8747  182.7961  158.0744 C   0  0  0  0  0  0  0  0  0  0  0  0
  196.6086  181.8374  157.3639 N   0  0  0  0  0  0  0  0  0  0  0  0
  197.9776  182.0461  156.9288 C   0  0  1  0  0  0  0  0  0  0  0  0
  198.5629  180.8983  156.1343 C   0  0  0  0  0  0  0  0  0  0  0  0
  199.8123  180.3622  156.5000 C   0  0  0  0  0  0  0  0  0  0  0  0
  200.3755  179.2964  155.7659 C   0  0  0  0  0  0  0  0  0  0  0  0
  199.6892  178.7902  154.6414 C   0  0  0  0  0  0  0  0  0  0  0  0
  198.4401  179.3228  154.2766 C   0  0  0  0  0  0  0  0  0  0  0  0
  197.8743  180.3753  155.0195 C   0  0  0  0  0  0  0  0  0  0  0  0
  201.6973  178.6796  156.2106 C   0  0  1  0  0  0  0  0  0  0  0  0
  201.5306  177.4772  157.0686 N   0  0  1  0  0  0  0  0  0  0  0  0
  200.8247  177.7510  158.3416 C   0  0  2  0  0  0  0  0  0  0  0  0
  200.9610  176.3097  156.3555 C   0  0  2  0  0  0  0  0  0  0  0  0
  196.9633  186.6094  158.2612 H   0  0  0  0  0  0  0  0  0  0  0  0
  198.1683  187.6671  154.9214 H   0  0  0  0  0  0  0  0  0  0  0  0
  198.2492  191.0753  157.7344 H   0  0  0  0  0  0  0  0  0  0  0  0
  197.8071  192.1226  159.9346 H   0  0  0  0  0  0  0  0  0  0  0  0
  196.7789  190.7781  161.7618 H   0  0  0  0  0  0  0  0  0  0  0  0
  196.2139  188.4382  161.4183 H   0  0  0  0  0  0  0  0  0  0  0  0
  197.4045  184.3859  158.1200 H   0  0  0  0  0  0  0  0  0  0  0  0
  196.2466  180.8765  157.3433 H   0  0  0  0  0  0  0  0  0  0  0  0
  198.0234  182.9406  156.3050 H   0  0  0  0  0  0  0  0  0  0  0  0
  198.5931  182.2394  157.8081 H   0  0  0  0  0  0  0  0  0  0  0  0
  200.3332  180.7511  157.3626 H   0  0  0  0  0  0  0  0  0  0  0  0
  200.0961  177.9660  154.0744 H   0  0  0  0  0  0  0  0  0  0  0  0
  197.9064  178.9097  153.4327 H   0  0  0  0  0  0  0  0  0  0  0  0
  196.9136  180.7818  154.7347 H   0  0  0  0  0  0  0  0  0  0  0  0
  202.2861  178.4187  155.3311 H   0  0  0  0  0  0  0  0  0  0  0  0
  202.2956  179.4188  156.7533 H   0  0  0  0  0  0  0  0  0  0  0  0
  199.8069  178.1008  158.1691 H   0  0  0  0  0  0  0  0  0  0  0  0
  201.3611  178.5092  158.9115 H   0  0  0  0  0  0  0  0  0  0  0  0
  200.7497  176.8521  158.9532 H   0  0  0  0  0  0  0  0  0  0  0  0
  199.9277  176.4856  156.0556 H   0  0  0  0  0  0  0  0  0  0  0  0
  200.9504  175.4243  156.9879 H   0  0  0  0  0  0  0  0  0  0  0  0
  201.5455  176.0731  155.4666 H   0  0  0  0  0  0  0  0  0  0  0  0
  202.4878  177.2437  157.3220 H   0  0  0  0  0  0  0  0  0  0  0  0
  1  2  1  0
  2  3  1  0
  2 17  2  0
  3  4  1  0
  4  5  1  0
  4 16  2  0
  5  6  2  0
  5  7  1  0
  7  8  1  0
  7 30  1  0
  8  9  1  0
  8 15  2  0
  9 10  1  0
  9 12  2  0
 10 11  3  0
 11 31  1  0
 12 13  1  0
 12 32  1  0
 13 14  2  0
 13 33  1  0
 14 15  1  0
 14 34  1  0
 15 35  1  0
 16 17  1  0
 16 36  1  0
 17 18  1  0
 18 19  1  0
 18 37  1  0
 19 20  1  0
 19 38  1  6
 19 39  1  0
 20 21  2  0
 20 25  1  0
 21 22  1  0
 21 40  1  0
 22 23  2  0
 22 26  1  0
 23 24  1  0
 23 41  1  0
 24 25  2  0
 24 42  1  0
 25 43  1  0
 26 27  1  0
 26 44  1  6
 26 45  1  0
 27 28  1  0
 27 29  1  0
 27 52  1  1
 28 46  1  6
 28 47  1  0
 28 48  1  0
 29 49  1  6
 29 50  1  0
 29 51  1  0
M  CHG  1  27   1
M  END
>  <s_epik_cmdline>  (783) 
J2VwaWtfcHl0aG9uJywgJy1waCcsICc3LjAwMDAwMCcsICctcGh0JywgJzIuMDAwMDAwJywgJy1tcycsICcxNicsICctdG4nLCAnOCcsICctbWEnLCAnMjAwJywgJy1pbWFlJywgJzxpbmZpbGUubWFlPicsICctb21hZScsICc8b3V0ZmlsZS5tYWU+Jw==

>  <s_epik_input>  (783) 
W2NIXTFbY0hdW2NIXVtjSF1jKEMjW0NIXSljMVtOSF1DKD1PKWMoc2MyQ2wpW2NIXWMyW05IXVtDSDJdYzNbY0hdYyhbY0hdW2NIXVtjSF0zKVtDSDJdTihbQ0gzXSlbQ0gzXQ==

>  <s_i_glide_gridfile>  (783) 
ATP-Grid

>  <s_lp_Force_Field>  (783) 
OPLS_2005

>  <s_lp_Variant>  (783) 
rxn512b____EMOL524429____EMOL44846536____EMOL2873214-1

>  <s_lp_label>  (783) 
3004_sdstereoexpander_1_neutralizer_1_epik_1_stereoizer_1

>  <s_m_source_file>  (783) 
ATP-VSW-LIGPREP-001-in.maegz

>  <s_sd_BIOSOLVEIT.INFINISEE\_QUERY\_NAME>  (783) 
Ref-Lig

>  <s_sd_BIOSOLVEIT.INFINISEE\_QUERY\_SMILES>  (783) 
S(c1nc2c(cc1C[NH2+]Cc3ccc(cc3)C[NH+](C)C)cccc2)Cc4ccccc4

>  <s_sd_BIOSOLVEIT.INFINISEE\_REACTION\_NAME>  (783) 
rxn512b

>  <s_sd_BIOSOLVEIT.INFINISEE\_REAGENT1\_NAME>  (783) 
EMOL524429

>  <s_sd_BIOSOLVEIT.INFINISEE\_REAGENT1\_SMILES>  (783) 
Nc1c(C#C)cccc1

>  <s_sd_BIOSOLVEIT.INFINISEE\_REAGENT2\_NAME>  (783) 
EMOL44846536

>  <s_sd_BIOSOLVEIT.INFINISEE\_REAGENT2\_SMILES>  (783) 
BrC1=C(Cl)SC(C(=O)O)=C1

>  <s_sd_BIOSOLVEIT.INFINISEE\_REAGENT3\_NAME>  (783) 
EMOL2873214

>  <s_sd_BIOSOLVEIT.INFINISEE\_REAGENT3\_SMILES>  (783) 
N(Cc1cc(ccc1)CN)(C)C

>  <s_sd_BIOSOLVEIT.INFINISEE\_SPACE>  (783) 
eXplore_7tr_2022-12

>  <s_vsw_compound_code>  (783) 
96097

>  <s_vsw_variant>  (783) 
96097-1

>  <r_epik_Charging_Adjusted_Penalty>  (783) 
0.086140609825027206

>  <r_epik_Ionization_Penalty>  (783) 
0.043200000000000002

>  <r_epik_Ionization_Penalty_Charging>  (783) 
0.043099999999999999

>  <r_epik_Ionization_Penalty_Neutral>  (783) 
0.0001

>  <r_epik_State_Penalty>  (783) 
0.043099999999999999

>  <r_i_docking_score>  (783) 
-4.9284752641529304

>  <r_i_glide_ecoul>  (783) 
-9.0576143264770508

>  <r_i_glide_eff_state_penalty>  (783) 
0.043099999999999999

>  <r_i_glide_einternal>  (783) 
3.7632741928100599

>  <r_i_glide_emodel>  (783) 
-69.279955126282104

>  <r_i_glide_energy>  (783) 
-51.965630531311

>  <r_i_glide_erotb>  (783) 
0.87855510817451399

>  <r_i_glide_esite>  (783) 
-0.097262116029872003

>  <r_i_glide_evdw>  (783) 
-42.908016204833999

>  <r_i_glide_gscore>  (783) 
-4.9715752641529303

>  <r_i_glide_hbond>  (783) 
-0.16

>  <r_i_glide_ligand_efficiency>  (783) 
-0.16994742290182499

>  <r_i_glide_ligand_efficiency_ln>  (783) 
-1.1284958601414901

>  <r_i_glide_ligand_efficiency_sa>  (783) 
-0.52213232627716799

>  <r_i_glide_lipo>  (783) 
-1.03826048530218

>  <r_i_glide_metal>  (783) 
-0

>  <r_i_glide_rewards>  (783) 
-1.05056481178213

>  <r_lp_Energy>  (783) 
23.228366999999999

>  <r_lp_tautomer_probability>  (783) 
0.99999274205267796

>  <r_qp_ACxDN^.5/SA>  (783) 
0.0115088

>  <r_qp_CIQPlogS>  (783) 
-4.4359999999999999

>  <r_qp_EA(eV)>  (783) 
0.84199999999999997

>  <r_qp_FISA>  (783) 
58.898000000000003

>  <r_qp_FOSA>  (783) 
257.041

>  <r_qp_IP(eV)>  (783) 
8.4380000000000006

>  <r_qp_Jm>  (783) 
0.000255418481663123

>  <r_qp_PISA>  (783) 
345.09399999999999

>  <r_qp_PSA>  (783) 
53.365000000000002

>  <r_qp_PercentHumanOralAbsorption>  (783) 
93.084000000000003

>  <r_qp_QPPCaco>  (783) 
170.28299999999999

>  <r_qp_QPPMDCK>  (783) 
294.59199999999998

>  <r_qp_QPlogBB>  (783) 
0.46700000000000003

>  <r_qp_QPlogHERG>  (783) 
-8.173

>  <r_qp_QPlogKhsa>  (783) 
0.75800000000000001

>  <r_qp_QPlogKp>  (783) 
-4.7460000000000004

>  <r_qp_QPlogPC16>  (783) 
14.945

>  <r_qp_QPlogPo/w>  (783) 
4.4749999999999996

>  <r_qp_QPlogPoct>  (783) 
21.963000000000001

>  <r_qp_QPlogPw>  (783) 
11.632999999999999

>  <r_qp_QPlogS>  (783) 
-4.4740000000000002

>  <r_qp_QPpolrz>  (783) 
45.954000000000001

>  <r_qp_SASA>  (783) 
755.61599999999999

>  <r_qp_SAamideO>  (783) 
0

>  <r_qp_SAfluorine>  (783) 
0

>  <r_qp_WPSA>  (783) 
94.582999999999998

>  <r_qp_accptHB>  (783) 
5.5

>  <r_qp_dip^2/V>  (783) 
0.0051489999999999999

>  <r_qp_dipole>  (783) 
2.6349999999999998

>  <r_qp_donorHB>  (783) 
2.5

>  <r_qp_glob>  (783) 
0.78103230000000001

>  <r_qp_mol_MW>  (783) 
423.959

>  <r_qp_volume>  (783) 
1348.0540000000001

>  <r_sd_BIOSOLVEIT.INFINISEE\_FTREES\_SIMILARITY>  (783) 
0.90300000000000002

>  <r_sd_BIOSOLVEIT.LOGP>  (783) 
3.8917000000000002

>  <r_sd_BIOSOLVEIT.MOLECULAR\_WEIGHT>  (783) 
424.97300000000001

>  <r_sd_BIOSOLVEIT.TPSA>  (783) 
45.57

>  <i_epik_Tot_Q>  (783) 
1

>  <i_epik_Tot_abs_Q>  (783) 
1

>  <i_f3d_flags>  (783) 
0

>  <i_i_glide_confnum>  (783) 
3

>  <i_i_glide_lignum>  (783) 
1453

>  <i_i_glide_posenum>  (783) 
10

>  <i_i_glide_rotatable_bonds>  (783) 
9

>  <i_lp_mmshare_version>  (783) 
65135

>  <i_m_ct_format>  (783) 
2

>  <i_m_source_file_index>  (783) 
3004

>  <i_qp_#NandO>  (783) 
4

>  <i_qp_#acid>  (783) 
0

>  <i_qp_#amide>  (783) 
0

>  <i_qp_#amidine>  (783) 
0

>  <i_qp_#amine>  (783) 
2

>  <i_qp_#in34>  (783) 
0

>  <i_qp_#in56>  (783) 
17

>  <i_qp_#metab>  (783) 
6

>  <i_qp_#nonHatm>  (783) 
29

>  <i_qp_#noncon>  (783) 
0

>  <i_qp_#ringatoms>  (783) 
17

>  <i_qp_#rotor>  (783) 
8

>  <i_qp_#rtvFG>  (783) 
0

>  <i_qp_#stars>  (783) 
0

>  <i_qp_CNS>  (783) 
2

>  <i_qp_HumanOralAbsorption>  (783) 
3

>  <i_qp_RuleOfFive>  (783) 
0

>  <i_qp_RuleOfThree>  (783) 
0

>  <i_sd_BIOSOLVEIT.INFINISEE\_RESULT\_RANK>  (783) 
85938

>  <i_sd_version>  (783) 
0

>  <b_lp_Chiralities_Consistent>  (783) 
1

>  <b_sd_chiral_flag>  (783) 
0

>  <canonical_id>  (783) 
ATP-HTVS-7B1416FC1373

>  <compound_code>  (783) 
96097

>  <title>  (783) 
rxn512b____EMOL524429____EMOL44846536____EMOL2873214

>  <variant>  (783) 
96097-1

>  <source_file>  (783) 
运行/运行/ATP-VSW/ATP-VSW-DOCK_HTVS_1-001_lib/ATP-VSW-DOCK_HTVS_1-001_lib

>  <canonical_smiles>  (783) 
C#Cc1ccccc1NC(=O)c1cc(NCc2cccc(C[NH+](C)C)c2)c(Cl)s1

>  <scaffold>  (783) 
O=C(Nc1ccccc1)c1cc(NCc2ccccc2)cs1

>  <molecular_formula>  (783) 
C23H23ClN3OS+

$$$$
ATP-HTVS-7B85D20A61B3
     RDKit          3D

 66 69  0  0  0  0  0  0  0  0999 V2000
  199.3985  185.7988  148.6536 Cl  0  0  0  0  0  0  0  0  0  0  0  0
  199.0793  185.7053  150.3503 C   0  0  0  0  0  0  0  0  0  0  0  0
  199.9354  186.3065  151.3015 C   0  0  0  0  0  0  0  0  0  0  0  0
  201.1270  187.0356  150.9001 C   0  0  0  0  0  0  0  0  0  0  0  0
  202.0747  187.6191  150.5780 N   0  0  0  0  0  0  0  0  0  0  0  0
  199.6378  186.1924  152.6747 C   0  0  0  0  0  0  0  0  0  0  0  0
  198.4908  185.4872  153.1058 C   0  0  0  0  0  0  0  0  0  0  0  0
  197.6476  184.8853  152.1485 C   0  0  0  0  0  0  0  0  0  0  0  0
  197.9407  184.9987  150.7787 C   0  0  0  0  0  0  0  0  0  0  0  0
  198.2283  185.3534  154.5774 C   0  0  0  0  0  0  0  0  0  0  0  0
  198.8800  186.0123  155.3859 O   0  0  0  0  0  0  0  0  0  0  0  0
  197.2563  184.4903  154.9188 N   0  0  0  0  0  0  0  0  0  0  0  0
  197.1621  183.8167  156.1653 C   0  0  0  0  0  0  0  0  0  0  0  0
  197.2189  182.3957  156.1561 C   0  0  0  0  0  0  0  0  0  0  0  0
  197.4012  181.7079  154.9452 N   0  0  0  0  0  0  0  0  0  0  0  0
  197.4899  180.2491  154.9032 C   0  0  1  0  0  0  0  0  0  0  0  0
  197.6043  179.6848  153.4924 C   0  0  0  0  0  0  0  0  0  0  0  0
  196.5736  179.9003  152.5511 C   0  0  0  0  0  0  0  0  0  0  0  0
  196.6888  179.3946  151.2552 C   0  0  0  0  0  0  0  0  0  0  0  0
  197.8307  178.6785  150.8712 C   0  0  0  0  0  0  0  0  0  0  0  0
  198.8011  178.3580  151.8425 C   0  0  0  0  0  0  0  0  0  0  0  0
  198.7374  178.9580  153.1565 C   0  0  0  0  0  0  0  0  0  0  0  0
  198.0302  178.2345  149.4200 C   0  0  1  0  0  0  0  0  0  0  0  0
  198.5089  179.3348  148.5150 N   0  0  1  0  0  0  0  0  0  0  0  0
  199.9005  179.8330  148.7675 C   0  0  1  0  0  0  0  0  0  0  0  0
  200.0991  180.5918  150.1170 C   0  0  2  0  0  0  0  0  0  0  0  0
  198.3076  178.9774  147.0832 C   0  0  1  0  0  0  0  0  0  0  0  0
  199.1364  177.7544  146.6362 C   0  0  2  0  0  0  0  0  0  0  0  0
  197.1068  181.7083  157.3937 C   0  0  0  0  0  0  0  0  0  0  0  0
  196.9278  182.4018  158.5357 N   0  0  0  0  0  0  0  0  0  0  0  0
  196.8324  183.7398  158.5875 C   0  0  0  0  0  0  0  0  0  0  0  0
  196.9330  184.5024  157.3933 C   0  0  0  0  0  0  0  0  0  0  0  0
  196.7778  185.9090  157.4694 C   0  0  0  0  0  0  0  0  0  0  0  0
  196.5838  186.5473  158.7014 C   0  0  0  0  0  0  0  0  0  0  0  0
  196.5108  185.7895  159.8816 C   0  0  0  0  0  0  0  0  0  0  0  0
  196.6274  184.3864  159.8268 C   0  0  0  0  0  0  0  0  0  0  0  0
  200.3002  186.6453  153.3994 H   0  0  0  0  0  0  0  0  0  0  0  0
  196.7608  184.3368  152.4363 H   0  0  0  0  0  0  0  0  0  0  0  0
  197.2813  184.5384  150.0589 H   0  0  0  0  0  0  0  0  0  0  0  0
  196.7606  184.0474  154.1576 H   0  0  0  0  0  0  0  0  0  0  0  0
  197.5449  182.2053  154.0802 H   0  0  0  0  0  0  0  0  0  0  0  0
  198.3389  179.9161  155.4937 H   0  0  0  0  0  0  0  0  0  0  0  0
  196.5966  179.8117  155.3433 H   0  0  0  0  0  0  0  0  0  0  0  0
  195.6874  180.4530  152.8389 H   0  0  0  0  0  0  0  0  0  0  0  0
  195.9266  179.6224  150.5163 H   0  0  0  0  0  0  0  0  0  0  0  0
  199.7160  177.8324  151.5706 H   0  0  0  0  0  0  0  0  0  0  0  0
  199.5765  178.8734  153.7884 H   0  0  0  0  0  0  0  0  0  0  0  0
  198.7296  177.3993  149.3893 H   0  0  0  0  0  0  0  0  0  0  0  0
  197.0620  177.8663  149.0567 H   0  0  0  0  0  0  0  0  0  0  0  0
  200.5912  178.9780  148.7209 H   0  0  0  0  0  0  0  0  0  0  0  0
  200.1969  180.5118  147.9412 H   0  0  0  0  0  0  0  0  0  0  0  0
  201.1431  180.8941  150.2495 H   0  0  0  0  0  0  0  0  0  0  0  0
  199.9993  179.9708  150.9059 H   0  0  0  0  0  0  0  0  0  0  0  0
  199.3821  181.4315  150.2234 H   0  0  0  0  0  0  0  0  0  0  0  0
  197.2535  178.7749  146.8834 H   0  0  0  0  0  0  0  0  0  0  0  0
  198.5573  179.8251  146.4402 H   0  0  0  0  0  0  0  0  0  0  0  0
  198.9398  177.4903  145.5959 H   0  0  0  0  0  0  0  0  0  0  0  0
  198.8959  176.8721  147.2283 H   0  0  0  0  0  0  0  0  0  0  0  0
  200.2094  177.9322  146.7233 H   0  0  0  0  0  0  0  0  0  0  0  0
  197.1729  180.6297  157.5074 H   0  0  0  0  0  0  0  0  0  0  0  0
  196.8047  186.5271  156.5857 H   0  0  0  0  0  0  0  0  0  0  0  0
  196.4937  187.6261  158.7340 H   0  0  0  0  0  0  0  0  0  0  0  0
  196.3600  186.2881  160.8266 H   0  0  0  0  0  0  0  0  0  0  0  0
  196.5623  183.8103  160.7352 H   0  0  0  0  0  0  0  0  0  0  0  0
  197.8978  180.1335  148.6694 H   0  0  0  0  0  0  0  0  0  0  0  0
  196.8527  181.8640  159.4095 H   0  0  0  0  0  0  0  0  0  0  0  0
  1  2  1  0
  2  3  2  0
  2  9  1  0
  3  4  1  0
  3  6  1  0
  4  5  3  0
  6  7  2  0
  6 37  1  0
  7  8  1  0
  7 10  1  0
  8  9  2  0
  8 38  1  0
  9 39  1  0
 10 11  2  0
 10 12  1  0
 12 13  1  0
 12 40  1  0
 13 14  2  0
 13 32  1  0
 14 15  1  0
 14 29  1  0
 15 16  1  0
 15 41  1  0
 16 17  1  0
 16 42  1  1
 16 43  1  0
 17 18  1  0
 17 22  2  0
 18 19  2  0
 18 44  1  0
 19 20  1  0
 19 45  1  0
 20 21  2  0
 20 23  1  0
 21 22  1  0
 21 46  1  0
 22 47  1  0
 23 24  1  0
 23 48  1  1
 23 49  1  0
 24 25  1  0
 24 27  1  0
 24 65  1  1
 25 26  1  0
 25 50  1  1
 25 51  1  0
 26 52  1  6
 26 53  1  0
 26 54  1  0
 27 28  1  0
 27 55  1  1
 27 56  1  0
 28 57  1  6
 28 58  1  0
 28 59  1  0
 29 30  2  0
 29 60  1  0
 30 31  1  0
 30 66  1  0
 31 32  1  0
 31 36  2  0
 32 33  2  0
 33 34  1  0
 33 61  1  0
 34 35  2  0
 34 62  1  0
 35 36  1  0
 35 63  1  0
 36 64  1  0
M  CHG  2  24   1  30   1
M  END
>  <s_epik_cmdline>  (784) 
J2VwaWtfcHl0aG9uJywgJy1waCcsICc3LjAwMDAwMCcsICctcGh0JywgJzIuMDAwMDAwJywgJy1tcycsICcxNicsICctdG4nLCAnOCcsICctbWEnLCAnMjAwJywgJy1pbWFlJywgJzxpbmZpbGUubWFlPicsICctb21hZScsICc8b3V0ZmlsZS5tYWU+Jw==

>  <s_epik_input>  (784) 
Q2xjMWMoQyNOKVtjSF1jKFtjSF1bY0hdMSlDKD1PKVtOSF1jKGMoYzIzKVtjSF1bY0hdW2NIXVtjSF0zKWMoW2NIXW4yKVtOSF1bQ0gyXWM0W2NIXVtjSF1jKFtjSF1bY0hdNClbQ0gyXU4oW0NIMl1bQ0gzXSlbQ0gyXVtDSDNd

>  <s_i_glide_gridfile>  (784) 
ATP-Grid

>  <s_lp_Force_Field>  (784) 
OPLS_2005

>  <s_lp_Variant>  (784) 
rxn502b____EMOL44817445____EMOL13728749____EMOL2868412-2

>  <s_lp_label>  (784) 
2625_sdstereoexpander_1_neutralizer_1_epik_2_stereoizer_1

>  <s_m_source_file>  (784) 
ATP-VSW-LIGPREP-001-in.maegz

>  <s_sd_BIOSOLVEIT.INFINISEE\_QUERY\_NAME>  (784) 
Ref-Lig

>  <s_sd_BIOSOLVEIT.INFINISEE\_QUERY\_SMILES>  (784) 
S(c1nc2c(cc1C[NH2+]Cc3ccc(cc3)C[NH+](C)C)cccc2)Cc4ccccc4

>  <s_sd_BIOSOLVEIT.INFINISEE\_REACTION\_NAME>  (784) 
rxn502b

>  <s_sd_BIOSOLVEIT.INFINISEE\_REAGENT1\_NAME>  (784) 
EMOL44817445

>  <s_sd_BIOSOLVEIT.INFINISEE\_REAGENT1\_SMILES>  (784) 
Clc1c(C#N)cc(cc1)C(=O)O

>  <s_sd_BIOSOLVEIT.INFINISEE\_REAGENT2\_NAME>  (784) 
EMOL13728749

>  <s_sd_BIOSOLVEIT.INFINISEE\_REAGENT2\_SMILES>  (784) 
Brc1c(N)c2c(nc1)cccc2

>  <s_sd_BIOSOLVEIT.INFINISEE\_REAGENT3\_NAME>  (784) 
EMOL2868412

>  <s_sd_BIOSOLVEIT.INFINISEE\_REAGENT3\_SMILES>  (784) 
N(Cc1ccc(cc1)CN)(CC)CC

>  <s_sd_BIOSOLVEIT.INFINISEE\_SPACE>  (784) 
eXplore_7tr_2022-12

>  <s_vsw_compound_code>  (784) 
83969

>  <s_vsw_variant>  (784) 
83969-2

>  <r_epik_Charging_Adjusted_Penalty>  (784) 
3.2878849784797799

>  <r_epik_Ionization_Penalty>  (784) 
1.6438999999999999

>  <r_epik_Ionization_Penalty_Charging>  (784) 
1.6438999999999999

>  <r_epik_Ionization_Penalty_Neutral>  (784) 
0

>  <r_epik_State_Penalty>  (784) 
1.6438999999999999

>  <r_i_docking_score>  (784) 
-3.0033556887489898

>  <r_i_glide_ecoul>  (784) 
-9.4873952865600604

>  <r_i_glide_eff_state_penalty>  (784) 
1.6438999999999999

>  <r_i_glide_einternal>  (784) 
3.0964384078979501

>  <r_i_glide_emodel>  (784) 
-62.397607004792903

>  <r_i_glide_energy>  (784) 
-45.017535209655797

>  <r_i_glide_erotb>  (784) 
0.65325165256968198

>  <r_i_glide_esite>  (784) 
-0.073514509359447894

>  <r_i_glide_evdw>  (784) 
-35.530139923095703

>  <r_i_glide_gscore>  (784) 
-4.6472556887489898

>  <r_i_glide_hbond>  (784) 
0

>  <r_i_glide_ligand_efficiency>  (784) 
-0.083426546909694296

>  <r_i_glide_ligand_efficiency_ln>  (784) 
-0.65525106999135296

>  <r_i_glide_ligand_efficiency_sa>  (784) 
-0.27546838819325697

>  <r_i_glide_lipo>  (784) 
-1.7472991750623501

>  <r_i_glide_metal>  (784) 
-0

>  <r_i_glide_rewards>  (784) 
-0.280077367758088

>  <r_lp_Energy>  (784) 
44.246265999999999

>  <r_qp_ACxDN^.5/SA>  (784) 
0.013368700000000001

>  <r_qp_CIQPlogS>  (784) 
-7.3550000000000004

>  <r_qp_EA(eV)>  (784) 
1.1539999999999999

>  <r_qp_FISA>  (784) 
129.68899999999999

>  <r_qp_FOSA>  (784) 
259.52499999999998

>  <r_qp_IP(eV)>  (784) 
8.2859999999999996

>  <r_qp_Jm>  (784) 
1.13989849035614e-05

>  <r_qp_PISA>  (784) 
395.24299999999999

>  <r_qp_PSA>  (784) 
84.804000000000002

>  <r_qp_PercentHumanOralAbsorption>  (784) 
94.676000000000002

>  <r_qp_QPPCaco>  (784) 
145.53200000000001

>  <r_qp_QPPMDCK>  (784) 
148.64599999999999

>  <r_qp_QPlogBB>  (784) 
-0.93100000000000005

>  <r_qp_QPlogHERG>  (784) 
-7.7949999999999999

>  <r_qp_QPlogKhsa>  (784) 
0.84199999999999997

>  <r_qp_QPlogKp>  (784) 
-3.6200000000000001

>  <r_qp_QPlogPC16>  (784) 
17.620000000000001

>  <r_qp_QPlogPo/w>  (784) 
4.9560000000000004

>  <r_qp_QPlogPoct>  (784) 
26.553999999999998

>  <r_qp_QPlogPw>  (784) 
13.951000000000001

>  <r_qp_QPlogS>  (784) 
-7.0209999999999999

>  <r_qp_QPpolrz>  (784) 
54.317999999999998

>  <r_qp_SASA>  (784) 
846.27999999999997

>  <r_qp_SAamideO>  (784) 
0

>  <r_qp_SAfluorine>  (784) 
0

>  <r_qp_WPSA>  (784) 
61.823

>  <r_qp_accptHB>  (784) 
8

>  <r_qp_dip^2/V>  (784) 
0.062957799999999994

>  <r_qp_dipole>  (784) 
9.9649999999999999

>  <r_qp_donorHB>  (784) 
2

>  <r_qp_glob>  (784) 
0.77428799999999998

>  <r_qp_mol_MW>  (784) 
498.02600000000001

>  <r_qp_volume>  (784) 
1577.1669999999999

>  <r_sd_BIOSOLVEIT.INFINISEE\_FTREES\_SIMILARITY>  (784) 
0.91100000000000003

>  <r_sd_BIOSOLVEIT.LOGP>  (784) 
5.0489800000000002

>  <r_sd_BIOSOLVEIT.MOLECULAR\_WEIGHT>  (784) 
499.03500000000003

>  <r_sd_BIOSOLVEIT.TPSA>  (784) 
82.25

>  <i_epik_Tot_Q>  (784) 
2

>  <i_epik_Tot_abs_Q>  (784) 
2

>  <i_f3d_flags>  (784) 
0

>  <i_i_glide_confnum>  (784) 
12

>  <i_i_glide_lignum>  (784) 
1116

>  <i_i_glide_posenum>  (784) 
10

>  <i_i_glide_rotatable_bonds>  (784) 
10

>  <i_lp_mmshare_version>  (784) 
65135

>  <i_m_ct_format>  (784) 
2

>  <i_m_source_file_index>  (784) 
2625

>  <i_qp_#NandO>  (784) 
6

>  <i_qp_#acid>  (784) 
0

>  <i_qp_#amide>  (784) 
0

>  <i_qp_#amidine>  (784) 
0

>  <i_qp_#amine>  (784) 
1

>  <i_qp_#in34>  (784) 
0

>  <i_qp_#in56>  (784) 
22

>  <i_qp_#metab>  (784) 
6

>  <i_qp_#nonHatm>  (784) 
36

>  <i_qp_#noncon>  (784) 
0

>  <i_qp_#ringatoms>  (784) 
22

>  <i_qp_#rotor>  (784) 
10

>  <i_qp_#rtvFG>  (784) 
0

>  <i_qp_#stars>  (784) 
1

>  <i_qp_CNS>  (784) 
0

>  <i_qp_HumanOralAbsorption>  (784) 
1

>  <i_qp_RuleOfFive>  (784) 
0

>  <i_qp_RuleOfThree>  (784) 
1

>  <i_sd_BIOSOLVEIT.INFINISEE\_RESULT\_RANK>  (784) 
43862

>  <i_sd_version>  (784) 
0

>  <b_lp_Chiralities_Consistent>  (784) 
1

>  <b_sd_chiral_flag>  (784) 
0

>  <canonical_id>  (784) 
ATP-HTVS-7B85D20A61B3

>  <compound_code>  (784) 
83969

>  <title>  (784) 
rxn502b____EMOL44817445____EMOL13728749____EMOL2868412

>  <variant>  (784) 
83969-2

>  <source_file>  (784) 
运行/运行/ATP-VSW/ATP-VSW-DOCK_HTVS_1-001_lib/ATP-VSW-DOCK_HTVS_1-001_lib

>  <canonical_smiles>  (784) 
CC[NH+](CC)Cc1ccc(CNc2c[nH+]c3ccccc3c2NC(=O)c2ccc(Cl)c(C#N)c2)cc1

>  <scaffold>  (784) 
O=C(Nc1c(NCc2ccccc2)c[nH+]c2ccccc12)c1ccccc1

>  <molecular_formula>  (784) 
C29H30ClN5O+2

$$$$
ATP-HTVS-7B98CE40EDFD
     RDKit          3D

 60 63  0  0  0  0  0  0  0  0999 V2000
  197.3639  184.5620  151.4112 O   0  0  0  0  0  0  0  0  0  0  0  0
  197.7096  183.5350  151.9889 C   0  0  0  0  0  0  0  0  0  0  0  0
  198.4473  183.4751  153.1126 N   0  0  0  0  0  0  0  0  0  0  0  0
  198.7893  184.5107  154.0291 C   0  0  0  0  0  0  0  0  0  0  0  0
  198.3495  185.7819  153.8701 N   0  0  0  0  0  0  0  0  0  0  0  0
  198.6807  186.7224  154.7754 C   0  0  0  0  0  0  0  0  0  0  0  0
  199.4704  186.4681  155.9126 C   0  0  0  0  0  0  0  0  0  0  0  0
  199.7174  187.5019  156.8374 N   0  0  0  0  0  0  0  0  0  0  0  0
  199.2207  187.4435  158.2237 C   0  0  1  0  0  0  0  0  0  0  0  0
  198.2213  186.3442  158.5781 C   0  0  0  0  0  0  0  0  0  0  0  0
  196.8440  186.5515  158.3363 C   0  0  0  0  0  0  0  0  0  0  0  0
  195.9162  185.5291  158.6055 C   0  0  0  0  0  0  0  0  0  0  0  0
  196.3678  184.2827  159.0890 C   0  0  0  0  0  0  0  0  0  0  0  0
  197.7435  184.0789  159.3411 C   0  0  0  0  0  0  0  0  0  0  0  0
  198.6621  185.1211  159.1356 C   0  0  0  0  0  0  0  0  0  0  0  0
  195.3812  183.1599  159.3529 C   0  0  1  0  0  0  0  0  0  0  0  0
  195.0039  182.4063  158.1349 N   0  0  2  0  0  0  0  0  0  0  0  0
  193.9749  181.3924  158.4220 C   0  0  2  0  0  0  0  0  0  0  0  0
  196.1604  181.8299  157.4024 C   0  0  2  0  0  0  0  0  0  0  0  0
  199.9473  185.1468  156.0912 C   0  0  0  0  0  0  0  0  0  0  0  0
  199.5883  184.1416  155.1469 C   0  0  0  0  0  0  0  0  0  0  0  0
  200.0239  182.8016  155.3621 C   0  0  0  0  0  0  0  0  0  0  0  0
  200.8005  182.4845  156.4926 C   0  0  0  0  0  0  0  0  0  0  0  0
  201.1678  183.4867  157.4050 C   0  0  0  0  0  0  0  0  0  0  0  0
  200.7782  184.8108  157.1741 C   0  0  0  0  0  0  0  0  0  0  0  0
  197.3681  182.1780  151.4304 C   0  0  0  0  0  0  0  0  0  0  0  0
  197.6043  181.8141  150.0687 C   0  0  0  0  0  0  0  0  0  0  0  0
  198.2502  182.6989  149.1028 C   0  0  0  0  0  0  0  0  0  0  0  0
  198.8047  183.4268  148.2938 C   0  0  0  0  0  0  0  0  0  0  0  0
  197.2330  180.5289  149.6215 C   0  0  0  0  0  0  0  0  0  0  0  0
  196.6202  179.6109  150.4874 C   0  0  0  0  0  0  0  0  0  0  0  0
  196.3861  179.9593  151.8260 C   0  0  0  0  0  0  0  0  0  0  0  0
  196.7591  181.2326  152.2905 C   0  0  0  0  0  0  0  0  0  0  0  0
  198.7774  182.5582  153.3613 H   0  0  0  0  0  0  0  0  0  0  0  0
  198.2857  187.7092  154.5938 H   0  0  0  0  0  0  0  0  0  0  0  0
  199.8323  188.4302  156.4635 H   0  0  0  0  0  0  0  0  0  0  0  0
  200.0795  187.3784  158.8935 H   0  0  0  0  0  0  0  0  0  0  0  0
  198.7561  188.4082  158.4372 H   0  0  0  0  0  0  0  0  0  0  0  0
  196.4998  187.4964  157.9308 H   0  0  0  0  0  0  0  0  0  0  0  0
  194.8571  185.6977  158.4359 H   0  0  0  0  0  0  0  0  0  0  0  0
  198.0904  183.1094  159.6687 H   0  0  0  0  0  0  0  0  0  0  0  0
  199.7218  184.9615  159.3434 H   0  0  0  0  0  0  0  0  0  0  0  0
  195.8211  182.4815  160.0873 H   0  0  0  0  0  0  0  0  0  0  0  0
  194.4943  183.5952  159.8197 H   0  0  0  0  0  0  0  0  0  0  0  0
  194.3604  180.6380  159.1082 H   0  0  0  0  0  0  0  0  0  0  0  0
  193.6502  180.8984  157.5097 H   0  0  0  0  0  0  0  0  0  0  0  0
  193.1140  181.8621  158.8828 H   0  0  0  0  0  0  0  0  0  0  0  0
  196.7156  181.1300  158.0306 H   0  0  0  0  0  0  0  0  0  0  0  0
  196.8535  182.6039  157.0620 H   0  0  0  0  0  0  0  0  0  0  0  0
  195.8163  181.3002  156.5147 H   0  0  0  0  0  0  0  0  0  0  0  0
  199.7667  181.9954  154.6936 H   0  0  0  0  0  0  0  0  0  0  0  0
  201.0964  181.4529  156.6801 H   0  0  0  0  0  0  0  0  0  0  0  0
  201.7449  183.2439  158.2845 H   0  0  0  0  0  0  0  0  0  0  0  0
  201.1085  185.5855  157.8772 H   0  0  0  0  0  0  0  0  0  0  0  0
  199.2995  184.0643  147.5948 H   0  0  0  0  0  0  0  0  0  0  0  0
  197.4126  180.2380  148.5963 H   0  0  0  0  0  0  0  0  0  0  0  0
  196.3494  178.6372  150.1179 H   0  0  0  0  0  0  0  0  0  0  0  0
  195.9188  179.2539  152.4955 H   0  0  0  0  0  0  0  0  0  0  0  0
  196.5584  181.4905  153.3215 H   0  0  0  0  0  0  0  0  0  0  0  0
  194.5706  183.0558  157.4793 H   0  0  0  0  0  0  0  0  0  0  0  0
  1  2  2  0
  2  3  1  0
  2 26  1  0
  3  4  1  0
  3 34  1  0
  4  5  1  0
  4 21  2  0
  5  6  2  0
  6  7  1  0
  6 35  1  0
  7  8  1  0
  7 20  2  0
  8  9  1  0
  8 36  1  0
  9 10  1  0
  9 37  1  1
  9 38  1  0
 10 11  1  0
 10 15  2  0
 11 12  2  0
 11 39  1  0
 12 13  1  0
 12 40  1  0
 13 14  2  0
 13 16  1  0
 14 15  1  0
 14 41  1  0
 15 42  1  0
 16 17  1  0
 16 43  1  1
 16 44  1  0
 17 18  1  0
 17 19  1  0
 17 60  1  6
 18 45  1  1
 18 46  1  0
 18 47  1  0
 19 48  1  1
 19 49  1  0
 19 50  1  0
 20 21  1  0
 20 25  1  0
 21 22  1  0
 22 23  2  0
 22 51  1  0
 23 24  1  0
 23 52  1  0
 24 25  2  0
 24 53  1  0
 25 54  1  0
 26 27  1  0
 26 33  2  0
 27 28  1  0
 27 30  2  0
 28 29  3  0
 29 55  1  0
 30 31  1  0
 30 56  1  0
 31 32  2  0
 31 57  1  0
 32 33  1  0
 32 58  1  0
 33 59  1  0
M  CHG  1  17   1
M  END
>  <s_epik_cmdline>  (785) 
J2VwaWtfcHl0aG9uJywgJy1waCcsICc3LjAwMDAwMCcsICctcGh0JywgJzIuMDAwMDAwJywgJy1tcycsICcxNicsICctdG4nLCAnOCcsICctbWEnLCAnMjAwJywgJy1pbWFlJywgJzxpbmZpbGUubWFlPicsICctb21hZScsICc8b3V0ZmlsZS5tYWU+Jw==

>  <s_epik_input>  (785) 
W2NIXTFbY0hdW2NIXVtjSF1jKEMjW0NIXSljMUMoPU8pW05IXWMoYyhjMjMpW2NIXVtjSF1bY0hdW2NIXTMpbltjSF1jMltOSF1bQ0gyXWM0W2NIXVtjSF1jKFtjSF1bY0hdNClbQ0gyXU4oW0NIM10pW0NIM10=

>  <s_i_glide_gridfile>  (785) 
ATP-Grid

>  <s_lp_Force_Field>  (785) 
OPLS_2005

>  <s_lp_Variant>  (785) 
rxn502b____EMOL43450422____EMOL7515103____EMOL50155899-1

>  <s_lp_label>  (785) 
2198_sdstereoexpander_1_neutralizer_1_epik_1_stereoizer_1

>  <s_m_source_file>  (785) 
ATP-VSW-LIGPREP-003-in.maegz

>  <s_sd_BIOSOLVEIT.INFINISEE\_QUERY\_NAME>  (785) 
Ref-Lig

>  <s_sd_BIOSOLVEIT.INFINISEE\_QUERY\_SMILES>  (785) 
S(c1nc2c(cc1C[NH2+]Cc3ccc(cc3)C[NH+](C)C)cccc2)Cc4ccccc4

>  <s_sd_BIOSOLVEIT.INFINISEE\_REACTION\_NAME>  (785) 
rxn502b

>  <s_sd_BIOSOLVEIT.INFINISEE\_REAGENT1\_NAME>  (785) 
EMOL43450422

>  <s_sd_BIOSOLVEIT.INFINISEE\_REAGENT1\_SMILES>  (785) 
O=C(O)c1c(C#C)cccc1

>  <s_sd_BIOSOLVEIT.INFINISEE\_REAGENT2\_NAME>  (785) 
EMOL7515103

>  <s_sd_BIOSOLVEIT.INFINISEE\_REAGENT2\_SMILES>  (785) 
Brc1c2c(c(nc1)N)cccc2

>  <s_sd_BIOSOLVEIT.INFINISEE\_REAGENT3\_NAME>  (785) 
EMOL50155899

>  <s_sd_BIOSOLVEIT.INFINISEE\_REAGENT3\_SMILES>  (785) 
N(Cc1ccc(cc1)CN)(C)C

>  <s_sd_BIOSOLVEIT.INFINISEE\_SPACE>  (785) 
eXplore_7tr_2022-12

>  <s_vsw_compound_code>  (785) 
70307

>  <s_vsw_variant>  (785) 
70307-1

>  <r_epik_Charging_Adjusted_Penalty>  (785) 
0.078407994868761793

>  <r_epik_Ionization_Penalty>  (785) 
0.039300000000000002

>  <r_epik_Ionization_Penalty_Charging>  (785) 
0.039199999999999999

>  <r_epik_Ionization_Penalty_Neutral>  (785) 
0.0001

>  <r_epik_State_Penalty>  (785) 
0.039199999999999999

>  <r_i_docking_score>  (785) 
-3.9340044151917102

>  <r_i_glide_ecoul>  (785) 
-7.1120910644531197

>  <r_i_glide_eff_state_penalty>  (785) 
0.039199999999999999

>  <r_i_glide_einternal>  (785) 
8.3493709564209002

>  <r_i_glide_emodel>  (785) 
-48.624875721479803

>  <r_i_glide_energy>  (785) 
-38.7681179046631

>  <r_i_glide_erotb>  (785) 
0.84030275005691701

>  <r_i_glide_esite>  (785) 
-0.094440281341401602

>  <r_i_glide_evdw>  (785) 
-31.65602684021

>  <r_i_glide_gscore>  (785) 
-3.9732044151917099

>  <r_i_glide_hbond>  (785) 
-0.11164111759322699

>  <r_i_glide_ligand_efficiency>  (785) 
-0.11921225500580999

>  <r_i_glide_ligand_efficiency_ln>  (785) 
-0.874902212753911

>  <r_i_glide_ligand_efficiency_sa>  (785) 
-0.38237740004168902

>  <r_i_glide_lipo>  (785) 
-1.5183119919082599

>  <r_i_glide_metal>  (785) 
-0

>  <r_i_glide_rewards>  (785) 
-0.439498772727271

>  <r_lp_Energy>  (785) 
33.495268000000003

>  <r_qp_ACxDN^.5/SA>  (785) 
0.012781900000000001

>  <r_qp_CIQPlogS>  (785) 
-5.6219999999999999

>  <r_qp_EA(eV)>  (785) 
0.87

>  <r_qp_FISA>  (785) 
72.930999999999997

>  <r_qp_FOSA>  (785) 
256.41800000000001

>  <r_qp_IP(eV)>  (785) 
7.7439999999999998

>  <r_qp_Jm>  (785) 
0.0022370577968489299

>  <r_qp_PISA>  (785) 
474.70699999999999

>  <r_qp_PSA>  (785) 
60.354999999999997

>  <r_qp_PercentHumanOralAbsorption>  (785) 
100

>  <r_qp_QPPCaco>  (785) 
502.56299999999999

>  <r_qp_QPPMDCK>  (785) 
260.16699999999997

>  <r_qp_QPlogBB>  (785) 
-0.33900000000000002

>  <r_qp_QPlogHERG>  (785) 
-8.2379999999999995

>  <r_qp_QPlogKhsa>  (785) 
0.83999999999999997

>  <r_qp_QPlogKp>  (785) 
-2.4860000000000002

>  <r_qp_QPlogPC16>  (785) 
16.306000000000001

>  <r_qp_QPlogPo/w>  (785) 
4.9269999999999996

>  <r_qp_QPlogPoct>  (785) 
24.600999999999999

>  <r_qp_QPlogPw>  (785) 
13.679

>  <r_qp_QPlogS>  (785) 
-5.8019999999999996

>  <r_qp_QPpolrz>  (785) 
51.25

>  <r_qp_SASA>  (785) 
804.05700000000002

>  <r_qp_SAamideO>  (785) 
0

>  <r_qp_SAfluorine>  (785) 
0

>  <r_qp_WPSA>  (785) 
0

>  <r_qp_accptHB>  (785) 
6.5

>  <r_qp_dip^2/V>  (785) 
0.038369199999999999

>  <r_qp_dipole>  (785) 
7.4580000000000002

>  <r_qp_donorHB>  (785) 
2.5

>  <r_qp_glob>  (785) 
0.7703411

>  <r_qp_mol_MW>  (785) 
434.54000000000002

>  <r_qp_volume>  (785) 
1449.462

>  <r_sd_BIOSOLVEIT.INFINISEE\_FTREES\_SIMILARITY>  (785) 
0.93300000000000005

>  <r_sd_BIOSOLVEIT.LOGP>  (785) 
3.7250000000000001

>  <r_sd_BIOSOLVEIT.MOLECULAR\_WEIGHT>  (785) 
435.548

>  <r_sd_BIOSOLVEIT.TPSA>  (785) 
58.460000000000001

>  <i_epik_Tot_Q>  (785) 
1

>  <i_epik_Tot_abs_Q>  (785) 
1

>  <i_f3d_flags>  (785) 
0

>  <i_i_glide_confnum>  (785) 
3

>  <i_i_glide_lignum>  (785) 
846

>  <i_i_glide_posenum>  (785) 
5

>  <i_i_glide_rotatable_bonds>  (785) 
9

>  <i_lp_mmshare_version>  (785) 
65135

>  <i_m_ct_format>  (785) 
2

>  <i_m_source_file_index>  (785) 
2198

>  <i_qp_#NandO>  (785) 
5

>  <i_qp_#acid>  (785) 
0

>  <i_qp_#amide>  (785) 
0

>  <i_qp_#amidine>  (785) 
0

>  <i_qp_#amine>  (785) 
1

>  <i_qp_#in34>  (785) 
0

>  <i_qp_#in56>  (785) 
22

>  <i_qp_#metab>  (785) 
7

>  <i_qp_#nonHatm>  (785) 
33

>  <i_qp_#noncon>  (785) 
0

>  <i_qp_#ringatoms>  (785) 
22

>  <i_qp_#rotor>  (785) 
8

>  <i_qp_#rtvFG>  (785) 
0

>  <i_qp_#stars>  (785) 
2

>  <i_qp_CNS>  (785) 
0

>  <i_qp_HumanOralAbsorption>  (785) 
3

>  <i_qp_RuleOfFive>  (785) 
0

>  <i_qp_RuleOfThree>  (785) 
2

>  <i_sd_BIOSOLVEIT.INFINISEE\_RESULT\_RANK>  (785) 
3448

>  <i_sd_version>  (785) 
0

>  <b_lp_Chiralities_Consistent>  (785) 
1

>  <b_sd_chiral_flag>  (785) 
0

>  <canonical_id>  (785) 
ATP-HTVS-7B98CE40EDFD

>  <compound_code>  (785) 
70307

>  <title>  (785) 
rxn502b____EMOL43450422____EMOL7515103____EMOL50155899

>  <variant>  (785) 
70307-1

>  <source_file>  (785) 
运行/运行/ATP-VSW/ATP-VSW-DOCK_HTVS_1-003_lib/ATP-VSW-DOCK_HTVS_1-003_lib.mae

>  <canonical_smiles>  (785) 
C#Cc1ccccc1C(=O)Nc1ncc(NCc2ccc(C[NH+](C)C)cc2)c2ccccc12

>  <scaffold>  (785) 
O=C(Nc1ncc(NCc2ccccc2)c2ccccc12)c1ccccc1

>  <molecular_formula>  (785) 
C28H27N4O+

$$$$
ATP-HTVS-7BBDEC1762B0
     RDKit          3D

 59 62  0  0  0  0  0  0  0  0999 V2000
  204.7521  183.6885  163.4139 Cl  0  0  0  0  0  0  0  0  0  0  0  0
  203.6205  183.7876  162.1139 C   0  0  0  0  0  0  0  0  0  0  0  0
  203.2484  182.6214  161.4218 C   0  0  0  0  0  0  0  0  0  0  0  0
  202.3019  182.6879  160.3826 C   0  0  0  0  0  0  0  0  0  0  0  0
  201.7202  183.9217  160.0229 C   0  0  0  0  0  0  0  0  0  0  0  0
  202.1080  185.0957  160.7070 C   0  0  0  0  0  0  0  0  0  0  0  0
  203.0595  185.0267  161.7479 C   0  0  0  0  0  0  0  0  0  0  0  0
  200.7141  183.9555  158.8855 C   0  0  1  0  0  0  0  0  0  0  0  0
  199.3243  184.0666  159.3148 N   0  0  0  0  0  0  0  0  0  0  0  0
  198.2775  183.4913  158.5756 C   0  0  0  0  0  0  0  0  0  0  0  0
  198.5859  182.6324  157.5828 N   0  0  0  0  0  0  0  0  0  0  0  0
  197.6065  182.0370  156.9010 C   0  0  0  0  0  0  0  0  0  0  0  0
  196.3164  182.2849  157.1288 N   0  0  0  0  0  0  0  0  0  0  0  0
  195.9521  183.1224  158.1134 C   0  0  0  0  0  0  0  0  0  0  0  0
  196.9356  183.7823  158.8854 C   0  0  0  0  0  0  0  0  0  0  0  0
  196.5222  184.6693  159.9069 C   0  0  0  0  0  0  0  0  0  0  0  0
  195.1571  184.9044  160.1450 C   0  0  0  0  0  0  0  0  0  0  0  0
  194.1849  184.2471  159.3669 C   0  0  0  0  0  0  0  0  0  0  0  0
  194.5888  183.3421  158.3809 C   0  0  0  0  0  0  0  0  0  0  0  0
  197.9610  181.1469  155.9055 N   0  0  0  0  0  0  0  0  0  0  0  0
  196.9876  180.4653  155.0793 C   0  0  1  0  0  0  0  0  0  0  0  0
  197.5520  179.7879  153.8552 C   0  0  0  0  0  0  0  0  0  0  0  0
  196.7055  179.6580  152.7312 C   0  0  0  0  0  0  0  0  0  0  0  0
  197.1202  178.9510  151.5829 C   0  0  0  0  0  0  0  0  0  0  0  0
  198.4559  178.4847  151.4895 C   0  0  0  0  0  0  0  0  0  0  0  0
  199.3183  178.5985  152.6178 C   0  0  0  0  0  0  0  0  0  0  0  0
  198.8479  179.2169  153.8024 C   0  0  0  0  0  0  0  0  0  0  0  0
  198.9565  177.8363  150.1895 C   0  0  1  0  0  0  0  0  0  0  0  0
  198.9422  178.7542  149.0021 N   0  0  2  0  0  0  0  0  0  0  0  0
  197.5653  179.1752  148.5681 C   0  0  2  0  0  0  0  0  0  0  0  0
  199.7230  178.2263  147.8609 C   0  0  2  0  0  0  0  0  0  0  0  0
  203.6812  181.6712  161.6956 H   0  0  0  0  0  0  0  0  0  0  0  0
  202.0320  181.7844  159.8559 H   0  0  0  0  0  0  0  0  0  0  0  0
  201.6901  186.0550  160.4351 H   0  0  0  0  0  0  0  0  0  0  0  0
  203.3524  185.9200  162.2799 H   0  0  0  0  0  0  0  0  0  0  0  0
  200.9412  184.7895  158.2193 H   0  0  0  0  0  0  0  0  0  0  0  0
  200.8741  183.0453  158.3050 H   0  0  0  0  0  0  0  0  0  0  0  0
  199.1059  184.8091  159.9621 H   0  0  0  0  0  0  0  0  0  0  0  0
  197.2403  185.1835  160.5240 H   0  0  0  0  0  0  0  0  0  0  0  0
  194.8379  185.5816  160.9123 H   0  0  0  0  0  0  0  0  0  0  0  0
  193.1319  184.4169  159.5271 H   0  0  0  0  0  0  0  0  0  0  0  0
  193.8280  182.8341  157.8358 H   0  0  0  0  0  0  0  0  0  0  0  0
  198.9318  180.8712  155.8411 H   0  0  0  0  0  0  0  0  0  0  0  0
  196.4429  179.7269  155.6777 H   0  0  0  0  0  0  0  0  0  0  0  0
  196.2460  181.1886  154.7285 H   0  0  0  0  0  0  0  0  0  0  0  0
  195.7040  180.0616  152.7364 H   0  0  0  0  0  0  0  0  0  0  0  0
  196.4150  178.8130  150.7997 H   0  0  0  0  0  0  0  0  0  0  0  0
  200.3034  178.1625  152.5998 H   0  0  0  0  0  0  0  0  0  0  0  0
  199.4859  179.2246  154.6780 H   0  0  0  0  0  0  0  0  0  0  0  0
  199.9822  177.4885  150.3466 H   0  0  0  0  0  0  0  0  0  0  0  0
  198.3730  176.9332  149.9851 H   0  0  0  0  0  0  0  0  0  0  0  0
  196.9718  178.2664  148.3368 H   0  0  0  0  0  0  0  0  0  0  0  0
  197.6356  179.7775  147.6366 H   0  0  0  0  0  0  0  0  0  0  0  0
  197.0768  179.7741  149.2929 H   0  0  0  0  0  0  0  0  0  0  0  0
  199.3019  177.2786  147.5097 H   0  0  0  0  0  0  0  0  0  0  0  0
  200.7767  178.0802  148.1064 H   0  0  0  0  0  0  0  0  0  0  0  0
  199.6697  178.9321  147.0249 H   0  0  0  0  0  0  0  0  0  0  0  0
  195.5769  181.8256  156.5881 H   0  0  0  0  0  0  0  0  0  0  0  0
  199.4132  179.5972  149.3016 H   0  0  0  0  0  0  0  0  0  0  0  0
  1  2  1  0
  2  3  1  0
  2  7  2  0
  3  4  2  0
  3 32  1  0
  4  5  1  0
  4 33  1  0
  5  6  2  0
  5  8  1  0
  6  7  1  0
  6 34  1  0
  7 35  1  0
  8  9  1  0
  8 36  1  6
  8 37  1  0
  9 10  1  0
  9 38  1  0
 10 11  2  0
 10 15  1  0
 11 12  1  0
 12 13  2  0
 12 20  1  0
 13 14  1  0
 13 58  1  0
 14 15  1  0
 14 19  2  0
 15 16  2  0
 16 17  1  0
 16 39  1  0
 17 18  2  0
 17 40  1  0
 18 19  1  0
 18 41  1  0
 19 42  1  0
 20 21  1  0
 20 43  1  0
 21 22  1  0
 21 44  1  1
 21 45  1  0
 22 23  1  0
 22 27  2  0
 23 24  2  0
 23 46  1  0
 24 25  1  0
 24 47  1  0
 25 26  2  0
 25 28  1  0
 26 27  1  0
 26 48  1  0
 27 49  1  0
 28 29  1  0
 28 50  1  1
 28 51  1  0
 29 30  1  0
 29 31  1  0
 29 59  1  1
 30 52  1  6
 30 53  1  0
 30 54  1  0
 31 55  1  6
 31 56  1  0
 31 57  1  0
M  CHG  2  13   1  29   1
M  END
>  <s_epik_cmdline>  (786) 
J2VwaWtfcHl0aG9uJywgJy1waCcsICc3LjAwMDAwMCcsICctcGh0JywgJzIuMDAwMDAwJywgJy1tcycsICcxNicsICctdG4nLCAnOCcsICctbWEnLCAnMjAwJywgJy1pbWFlJywgJzxpbmZpbGUubWFlPicsICctb21hZScsICc8b3V0ZmlsZS5tYWU+Jw==

>  <s_epik_input>  (786) 
Q2xjMVtjSF1bY0hdYyhbY0hdW2NIXTEpW0NIMl1bTkhdYyhjKGMyMylbY0hdW2NIXVtjSF1bY0hdMyluYyhuMilbTkhdW0NIMl1jNFtjSF1bY0hdYyhbY0hdW2NIXTQpW0NIMl1OKFtDSDNdKVtDSDNd

>  <s_i_glide_gridfile>  (786) 
ATP-Grid

>  <s_lp_Force_Field>  (786) 
OPLS_2005

>  <s_lp_Variant>  (786) 
m_282030aaa____21931282____22360182____21945542-1

>  <s_lp_label>  (786) 
882_sdstereoexpander_1_neutralizer_1_epik_1_stereoizer_1

>  <s_m_source_file>  (786) 
ATP-VSW-LIGPREP-001-in.maegz

>  <s_sd_BIOSOLVEIT.INFINISEE\_QUERY\_NAME>  (786) 
Ref-Lig

>  <s_sd_BIOSOLVEIT.INFINISEE\_QUERY\_SMILES>  (786) 
S(c1nc2c(cc1C[NH2+]Cc3ccc(cc3)C[NH+](C)C)cccc2)Cc4ccccc4

>  <s_sd_BIOSOLVEIT.INFINISEE\_REACTION\_NAME>  (786) 
m_282030aaa

>  <s_sd_BIOSOLVEIT.INFINISEE\_REAGENT1\_SMILES>  (786) 
[R1*]NCc1ccc(Cl)cc1

>  <s_sd_BIOSOLVEIT.INFINISEE\_REAGENT2\_SMILES>  (786) 
[R2*]c1nc([R1*])c2c(n1)cccc2

>  <s_sd_BIOSOLVEIT.INFINISEE\_REAGENT3\_SMILES>  (786) 
[R2*]NCc1ccc(cc1)CN(C)C

>  <s_sd_BIOSOLVEIT.INFINISEE\_SPACE>  (786) 
REALSpace_44bn_2023-08

>  <s_vsw_compound_code>  (786) 
28193

>  <s_vsw_variant>  (786) 
28193-1

>  <r_epik_Charging_Adjusted_Penalty>  (786) 
0.117215800180024

>  <r_epik_Ionization_Penalty>  (786) 
0.055899999999999998

>  <r_epik_Ionization_Penalty_Charging>  (786) 
0.055899999999999998

>  <r_epik_Ionization_Penalty_Neutral>  (786) 
0

>  <r_epik_State_Penalty>  (786) 
0.0613

>  <r_i_docking_score>  (786) 
-3.7244689765260901

>  <r_i_glide_ecoul>  (786) 
-2.7022664546966602

>  <r_i_glide_eff_state_penalty>  (786) 
0.0613

>  <r_i_glide_einternal>  (786) 
4.0610494613647496

>  <r_i_glide_emodel>  (786) 
-47.755520292516103

>  <r_i_glide_energy>  (786) 
-35.255164861679098

>  <r_i_glide_erotb>  (786) 
0.74007654043360904

>  <r_i_glide_esite>  (786) 
-0.16630235258259801

>  <r_i_glide_evdw>  (786) 
-32.552898406982401

>  <r_i_glide_gscore>  (786) 
-3.7857689765260898

>  <r_i_glide_hbond>  (786) 
-0.0073029208396127804

>  <r_i_glide_ligand_efficiency>  (786) 
-0.12014416053309999

>  <r_i_glide_ligand_efficiency_ln>  (786) 
-0.83998189547291702

>  <r_i_glide_ligand_efficiency_sa>  (786) 
-0.37741854096446797

>  <r_i_glide_lipo>  (786) 
-1.86909185498387

>  <r_i_glide_metal>  (786) 
-0

>  <r_i_glide_rewards>  (786) 
-0.450163499999999

>  <r_lp_Energy>  (786) 
14.949966999999999

>  <r_qp_ACxDN^.5/SA>  (786) 
0.010591400000000001

>  <r_qp_CIQPlogS>  (786) 
-6.1870000000000003

>  <r_qp_EA(eV)>  (786) 
0.68700000000000006

>  <r_qp_FISA>  (786) 
50.042000000000002

>  <r_qp_FOSA>  (786) 
228.19900000000001

>  <r_qp_IP(eV)>  (786) 
8.1329999999999991

>  <r_qp_Jm>  (786) 
0.080878286959154194

>  <r_qp_PISA>  (786) 
341.334

>  <r_qp_PSA>  (786) 
46.777999999999999

>  <r_qp_PercentHumanOralAbsorption>  (786) 
100

>  <r_qp_QPPCaco>  (786) 
828.42399999999998

>  <r_qp_QPPMDCK>  (786) 
818.62800000000004

>  <r_qp_QPlogBB>  (786) 
0.14999999999999999

>  <r_qp_QPlogHERG>  (786) 
-6.0949999999999998

>  <r_qp_QPlogKhsa>  (786) 
0.80900000000000005

>  <r_qp_QPlogKp>  (786) 
-2.5339999999999998

>  <r_qp_QPlogPC16>  (786) 
13.834

>  <r_qp_QPlogPo/w>  (786) 
4.931

>  <r_qp_QPlogPoct>  (786) 
20.379999999999999

>  <r_qp_QPlogPw>  (786) 
10.093999999999999

>  <r_qp_QPlogS>  (786) 
-4.194

>  <r_qp_QPpolrz>  (786) 
44.054000000000002

>  <r_qp_SASA>  (786) 
667.62400000000002

>  <r_qp_SAamideO>  (786) 
0

>  <r_qp_SAfluorine>  (786) 
0

>  <r_qp_WPSA>  (786) 
48.049999999999997

>  <r_qp_accptHB>  (786) 
5

>  <r_qp_dip^2/V>  (786) 
0.0069097999999999998

>  <r_qp_dipole>  (786) 
2.9990000000000001

>  <r_qp_donorHB>  (786) 
2

>  <r_qp_glob>  (786) 
0.86349330000000002

>  <r_qp_mol_MW>  (786) 
431.96699999999998

>  <r_qp_volume>  (786) 
1301.4849999999999

>  <r_sd_BIOSOLVEIT.INFINISEE\_FTREES\_SIMILARITY>  (786) 
0.92000000000000004

>  <r_sd_BIOSOLVEIT.LOGP>  (786) 
4.1519000000000004

>  <r_sd_BIOSOLVEIT.MOLECULAR\_WEIGHT>  (786) 
432.976

>  <r_sd_BIOSOLVEIT.TPSA>  (786) 
54.280000000000001

>  <i_epik_Tot_Q>  (786) 
2

>  <i_epik_Tot_abs_Q>  (786) 
2

>  <i_f3d_flags>  (786) 
0

>  <i_i_glide_confnum>  (786) 
3

>  <i_i_glide_lignum>  (786) 
152

>  <i_i_glide_posenum>  (786) 
8

>  <i_i_glide_rotatable_bonds>  (786) 
8

>  <i_lp_mmshare_version>  (786) 
65135

>  <i_m_ct_format>  (786) 
2

>  <i_m_source_file_index>  (786) 
882

>  <i_qp_#NandO>  (786) 
5

>  <i_qp_#acid>  (786) 
0

>  <i_qp_#amide>  (786) 
0

>  <i_qp_#amidine>  (786) 
0

>  <i_qp_#amine>  (786) 
1

>  <i_qp_#in34>  (786) 
0

>  <i_qp_#in56>  (786) 
22

>  <i_qp_#metab>  (786) 
4

>  <i_qp_#nonHatm>  (786) 
31

>  <i_qp_#noncon>  (786) 
0

>  <i_qp_#ringatoms>  (786) 
22

>  <i_qp_#rotor>  (786) 
8

>  <i_qp_#rtvFG>  (786) 
0

>  <i_qp_#stars>  (786) 
0

>  <i_qp_CNS>  (786) 
1

>  <i_qp_HumanOralAbsorption>  (786) 
3

>  <i_qp_RuleOfFive>  (786) 
0

>  <i_qp_RuleOfThree>  (786) 
0

>  <i_sd_BIOSOLVEIT.INFINISEE\_REAGENT1\_NAME>  (786) 
21931282

>  <i_sd_BIOSOLVEIT.INFINISEE\_REAGENT2\_NAME>  (786) 
22360182

>  <i_sd_BIOSOLVEIT.INFINISEE\_REAGENT3\_NAME>  (786) 
21945542

>  <i_sd_BIOSOLVEIT.INFINISEE\_RESULT\_RANK>  (786) 
17313

>  <i_sd_version>  (786) 
0

>  <b_lp_Chiralities_Consistent>  (786) 
1

>  <b_sd_chiral_flag>  (786) 
0

>  <canonical_id>  (786) 
ATP-HTVS-7BBDEC1762B0

>  <compound_code>  (786) 
28193

>  <title>  (786) 
m_282030aaa____21931282____22360182____21945542

>  <variant>  (786) 
28193-1

>  <source_file>  (786) 
运行/运行/ATP-VSW/ATP-VSW-DOCK_HTVS_1-001_lib/ATP-VSW-DOCK_HTVS_1-001_lib

>  <canonical_smiles>  (786) 
C[NH+](C)Cc1ccc(CNc2nc(NCc3ccc(Cl)cc3)c3ccccc3[nH+]2)cc1

>  <scaffold>  (786) 
c1ccc(CNc2nc(NCc3ccccc3)c3ccccc3[nH+]2)cc1

>  <molecular_formula>  (786) 
C25H28ClN5+2

$$$$
ATP-HTVS-7BEC4E93BD87
     RDKit          3D

 58 61  0  0  0  0  0  0  0  0999 V2000
  199.1523  181.3114  148.5670 S   0  0  0  0  0  0  0  0  0  0  0  0
  198.5148  182.8762  148.9550 C   0  0  0  0  0  0  0  0  0  0  0  0
  198.4877  183.2988  150.2974 C   0  0  0  0  0  0  0  0  0  0  0  0
  197.9791  184.5754  150.6275 C   0  0  0  0  0  0  0  0  0  0  0  0
  197.5239  185.4307  149.5998 C   0  0  0  0  0  0  0  0  0  0  0  0
  197.5481  185.0054  148.2569 C   0  0  0  0  0  0  0  0  0  0  0  0
  198.0433  183.7271  147.9323 C   0  0  0  0  0  0  0  0  0  0  0  0
  197.9873  185.0455  152.0497 C   0  0  0  0  0  0  0  0  0  0  0  0
  198.2710  186.2145  152.3130 O   0  0  0  0  0  0  0  0  0  0  0  0
  197.6271  184.1035  152.9427 N   0  0  0  0  0  0  0  0  0  0  0  0
  197.5408  184.1698  154.3687 C   0  0  0  0  0  0  0  0  0  0  0  0
  197.1404  183.0120  155.1022 C   0  0  0  0  0  0  0  0  0  0  0  0
  196.8995  181.8112  154.4002 N   0  0  0  0  0  0  0  0  0  0  0  0
  197.5935  180.5797  154.7746 C   0  0  1  0  0  0  0  0  0  0  0  0
  199.0030  180.4784  154.1735 C   0  0  1  0  0  0  0  0  0  0  0  0
  199.6681  179.1482  154.4807 C   0  0  0  0  0  0  0  0  0  0  0  0
  199.9570  178.2416  153.4423 C   0  0  0  0  0  0  0  0  0  0  0  0
  200.5984  177.0186  153.7220 C   0  0  0  0  0  0  0  0  0  0  0  0
  200.9680  176.6667  155.0441 C   0  0  0  0  0  0  0  0  0  0  0  0
  201.6241  175.4422  155.3149 N   0  0  0  0  0  0  0  0  0  0  0  0
  202.1331  175.1744  156.6505 C   0  0  2  0  0  0  0  0  0  0  0  0
  201.5486  174.3468  154.3556 C   0  0  2  0  0  0  0  0  0  0  0  0
  200.6616  177.5860  156.0788 C   0  0  0  0  0  0  0  0  0  0  0  0
  200.0170  178.8096  155.8036 C   0  0  0  0  0  0  0  0  0  0  0  0
  196.9605  183.1279  156.5180 C   0  0  0  0  0  0  0  0  0  0  0  0
  197.2977  184.3508  157.1598 C   0  0  0  0  0  0  0  0  0  0  0  0
  197.7203  185.3949  156.4217 N   0  0  0  0  0  0  0  0  0  0  0  0
  197.8271  185.3601  155.0801 C   0  0  0  0  0  0  0  0  0  0  0  0
  197.1798  184.5075  158.5579 C   0  0  0  0  0  0  0  0  0  0  0  0
  196.7077  183.4401  159.3425 C   0  0  0  0  0  0  0  0  0  0  0  0
  196.3159  182.2405  158.7214 C   0  0  0  0  0  0  0  0  0  0  0  0
  196.4191  182.0935  157.3240 C   0  0  0  0  0  0  0  0  0  0  0  0
  198.8747  182.6496  151.0694 H   0  0  0  0  0  0  0  0  0  0  0  0
  197.1521  186.4158  149.8448 H   0  0  0  0  0  0  0  0  0  0  0  0
  197.1805  185.6600  147.4804 H   0  0  0  0  0  0  0  0  0  0  0  0
  198.0660  183.4212  146.8957 H   0  0  0  0  0  0  0  0  0  0  0  0
  197.3780  183.2233  152.5223 H   0  0  0  0  0  0  0  0  0  0  0  0
  196.7447  181.8883  153.4083 H   0  0  0  0  0  0  0  0  0  0  0  0
  197.6833  180.4597  155.8501 H   0  0  0  0  0  0  0  0  0  0  0  0
  196.9836  179.7456  154.4264 H   0  0  0  0  0  0  0  0  0  0  0  0
  198.9633  180.6355  153.0948 H   0  0  0  0  0  0  0  0  0  0  0  0
  199.6252  181.2761  154.5769 H   0  0  0  0  0  0  0  0  0  0  0  0
  199.6937  178.4841  152.4211 H   0  0  0  0  0  0  0  0  0  0  0  0
  200.8223  176.3640  152.8920 H   0  0  0  0  0  0  0  0  0  0  0  0
  201.3014  175.0376  157.3385 H   0  0  0  0  0  0  0  0  0  0  0  0
  202.7473  175.9971  157.0031 H   0  0  0  0  0  0  0  0  0  0  0  0
  202.7505  174.2763  156.6756 H   0  0  0  0  0  0  0  0  0  0  0  0
  200.5483  174.2625  153.9327 H   0  0  0  0  0  0  0  0  0  0  0  0
  201.7804  173.3916  154.8288 H   0  0  0  0  0  0  0  0  0  0  0  0
  202.2573  174.4952  153.5409 H   0  0  0  0  0  0  0  0  0  0  0  0
  200.9140  177.3767  157.1077 H   0  0  0  0  0  0  0  0  0  0  0  0
  199.7956  179.4815  156.6204 H   0  0  0  0  0  0  0  0  0  0  0  0
  198.1421  186.2966  154.6427 H   0  0  0  0  0  0  0  0  0  0  0  0
  197.4561  185.4360  159.0385 H   0  0  0  0  0  0  0  0  0  0  0  0
  196.6349  183.5430  160.4186 H   0  0  0  0  0  0  0  0  0  0  0  0
  195.9440  181.4144  159.3147 H   0  0  0  0  0  0  0  0  0  0  0  0
  196.0539  181.1701  156.8991 H   0  0  0  0  0  0  0  0  0  0  0  0
  197.9459  186.2665  156.9006 H   0  0  0  0  0  0  0  0  0  0  0  0
  1  2  1  0
  2  3  2  0
  2  7  1  0
  3  4  1  0
  3 33  1  0
  4  5  2  0
  4  8  1  0
  5  6  1  0
  5 34  1  0
  6  7  2  0
  6 35  1  0
  7 36  1  0
  8  9  2  0
  8 10  1  0
 10 11  1  0
 10 37  1  0
 11 12  2  0
 11 28  1  0
 12 13  1  0
 12 25  1  0
 13 14  1  0
 13 38  1  0
 14 15  1  0
 14 39  1  1
 14 40  1  0
 15 16  1  0
 15 41  1  6
 15 42  1  0
 16 17  1  0
 16 24  2  0
 17 18  2  0
 17 43  1  0
 18 19  1  0
 18 44  1  0
 19 20  1  0
 19 23  2  0
 20 21  1  0
 20 22  1  0
 21 45  1  1
 21 46  1  0
 21 47  1  0
 22 48  1  6
 22 49  1  0
 22 50  1  0
 23 24  1  0
 23 51  1  0
 24 52  1  0
 25 26  1  0
 25 32  2  0
 26 27  1  0
 26 29  2  0
 27 28  2  0
 27 58  1  0
 28 53  1  0
 29 30  1  0
 29 54  1  0
 30 31  2  0
 30 55  1  0
 31 32  1  0
 31 56  1  0
 32 57  1  0
M  CHG  2   1  -1  27   1
M  END
>  <s_epik_cmdline>  (787) 
J2VwaWtfcHl0aG9uJywgJy1waCcsICc3LjAwMDAwMCcsICctcGh0JywgJzIuMDAwMDAwJywgJy1tcycsICcxNicsICctdG4nLCAnOCcsICctbWEnLCAnMjAwJywgJy1pbWFlJywgJzxpbmZpbGUubWFlPicsICctb21hZScsICc8b3V0ZmlsZS5tYWU+Jw==

>  <s_epik_input>  (787) 
W2NIXTFbY0hdW2NIXVtjSF1jKGMxMiluW2NIXWMoW05IXUMoPU8pYyhbY0hdYzNbU0hdKVtjSF1bY0hdW2NIXTMpYzJbTkhdW0NIMl1bQ0gyXWM0W2NIXVtjSF1jKE4oW0NIM10pW0NIM10pW2NIXVtjSF00

>  <s_i_glide_gridfile>  (787) 
ATP-Grid

>  <s_lp_Force_Field>  (787) 
OPLS_2005

>  <s_lp_Variant>  (787) 
rxn502b____EMOL509335____EMOL30488121____EMOL109645890-1

>  <s_lp_label>  (787) 
2540_sdstereoexpander_1_neutralizer_1_epik_1_stereoizer_1

>  <s_m_source_file>  (787) 
ATP-VSW-LIGPREP-001-in.maegz

>  <s_sd_BIOSOLVEIT.INFINISEE\_QUERY\_NAME>  (787) 
Ref-Lig

>  <s_sd_BIOSOLVEIT.INFINISEE\_QUERY\_SMILES>  (787) 
S(c1nc2c(cc1C[NH2+]Cc3ccc(cc3)C[NH+](C)C)cccc2)Cc4ccccc4

>  <s_sd_BIOSOLVEIT.INFINISEE\_REACTION\_NAME>  (787) 
rxn502b

>  <s_sd_BIOSOLVEIT.INFINISEE\_REAGENT1\_NAME>  (787) 
EMOL509335

>  <s_sd_BIOSOLVEIT.INFINISEE\_REAGENT1\_SMILES>  (787) 
Sc1cc(ccc1)C(=O)O

>  <s_sd_BIOSOLVEIT.INFINISEE\_REAGENT2\_NAME>  (787) 
EMOL30488121

>  <s_sd_BIOSOLVEIT.INFINISEE\_REAGENT2\_SMILES>  (787) 
Brc1c(N)cnc2c1cccc2

>  <s_sd_BIOSOLVEIT.INFINISEE\_REAGENT3\_NAME>  (787) 
EMOL109645890

>  <s_sd_BIOSOLVEIT.INFINISEE\_REAGENT3\_SMILES>  (787) 
N(c1ccc(cc1)CCN)(C)C

>  <s_sd_BIOSOLVEIT.INFINISEE\_SPACE>  (787) 
eXplore_7tr_2022-12

>  <s_vsw_compound_code>  (787) 
81249

>  <s_vsw_variant>  (787) 
81249-1

>  <r_epik_Charging_Adjusted_Penalty>  (787) 
0.181667144669036

>  <r_epik_Ionization_Penalty>  (787) 
0.10730000000000001

>  <r_epik_Ionization_Penalty_Charging>  (787) 
0.078899999999999998

>  <r_epik_Ionization_Penalty_Neutral>  (787) 
0.028400000000000002

>  <r_epik_State_Penalty>  (787) 
0.1028

>  <r_i_docking_score>  (787) 
-3.7849947499928698

>  <r_i_glide_ecoul>  (787) 
-3.8495180606842001

>  <r_i_glide_eff_state_penalty>  (787) 
0.1028

>  <r_i_glide_einternal>  (787) 
1.0605607032775899

>  <r_i_glide_emodel>  (787) 
-51.248180754872301

>  <r_i_glide_energy>  (787) 
-40.123367547988899

>  <r_i_glide_erotb>  (787) 
0.71419069716439398

>  <r_i_glide_esite>  (787) 
-0.056075217539067398

>  <r_i_glide_evdw>  (787) 
-36.273849487304702

>  <r_i_glide_gscore>  (787) 
-3.88779474999287

>  <r_i_glide_hbond>  (787) 
0

>  <r_i_glide_ligand_efficiency>  (787) 
-0.118281085937277

>  <r_i_glide_ligand_efficiency_ln>  (787) 
-0.84756349958355603

>  <r_i_glide_ligand_efficiency_sa>  (787) 
-0.375519040055733

>  <r_i_glide_lipo>  (787) 
-1.44338952937592

>  <r_i_glide_metal>  (787) 
-0

>  <r_i_glide_rewards>  (787) 
-0.71140051677440697

>  <r_lp_Energy>  (787) 
33.604486000000001

>  <r_qp_ACxDN^.5/SA>  (787) 
0.0158627

>  <r_qp_CIQPlogS>  (787) 
-6.9870000000000001

>  <r_qp_EA(eV)>  (787) 
0.90900000000000003

>  <r_qp_FISA>  (787) 
63.244

>  <r_qp_FOSA>  (787) 
165.28100000000001

>  <r_qp_IP(eV)>  (787) 
8.1699999999999999

>  <r_qp_Jm>  (787) 
2.7417475813591601

>  <r_qp_PISA>  (787) 
342.57900000000001

>  <r_qp_PSA>  (787) 
57.340000000000003

>  <r_qp_PercentHumanOralAbsorption>  (787) 
100

>  <r_qp_QPPCaco>  (787) 
2489.7660000000001

>  <r_qp_QPPMDCK>  (787) 
2892.0619999999999

>  <r_qp_QPlogBB>  (787) 
-0.29299999999999998

>  <r_qp_QPlogHERG>  (787) 
-4.8650000000000002

>  <r_qp_QPlogKhsa>  (787) 
0.52400000000000002

>  <r_qp_QPlogKp>  (787) 
-0.70999999999999996

>  <r_qp_QPlogPC16>  (787) 
13.965

>  <r_qp_QPlogPo/w>  (787) 
4.7069999999999999

>  <r_qp_QPlogPoct>  (787) 
22.254000000000001

>  <r_qp_QPlogPw>  (787) 
12.271000000000001

>  <r_qp_QPlogS>  (787) 
-4.4980000000000002

>  <r_qp_QPpolrz>  (787) 
42.712000000000003

>  <r_qp_SASA>  (787) 
632.92499999999995

>  <r_qp_SAamideO>  (787) 
0

>  <r_qp_SAfluorine>  (787) 
0

>  <r_qp_WPSA>  (787) 
61.820999999999998

>  <r_qp_accptHB>  (787) 
6

>  <r_qp_dip^2/V>  (787) 
0.036483300000000003

>  <r_qp_dipole>  (787) 
6.8010000000000002

>  <r_qp_donorHB>  (787) 
2.7999999999999998

>  <r_qp_glob>  (787) 
0.89498219999999995

>  <r_qp_mol_MW>  (787) 
442.57799999999997

>  <r_qp_volume>  (787) 
1267.6579999999999

>  <r_sd_BIOSOLVEIT.INFINISEE\_FTREES\_SIMILARITY>  (787) 
0.91300000000000003

>  <r_sd_BIOSOLVEIT.LOGP>  (787) 
5.8765999999999998

>  <r_sd_BIOSOLVEIT.MOLECULAR\_WEIGHT>  (787) 
442.58300000000003

>  <r_sd_BIOSOLVEIT.TPSA>  (787) 
57.259999999999998

>  <i_epik_Tot_Q>  (787) 
0

>  <i_epik_Tot_abs_Q>  (787) 
2

>  <i_f3d_flags>  (787) 
0

>  <i_i_glide_confnum>  (787) 
2

>  <i_i_glide_lignum>  (787) 
1016

>  <i_i_glide_posenum>  (787) 
2

>  <i_i_glide_rotatable_bonds>  (787) 
8

>  <i_lp_mmshare_version>  (787) 
65135

>  <i_m_ct_format>  (787) 
2

>  <i_m_source_file_index>  (787) 
2540

>  <i_qp_#NandO>  (787) 
5

>  <i_qp_#acid>  (787) 
0

>  <i_qp_#amide>  (787) 
0

>  <i_qp_#amidine>  (787) 
0

>  <i_qp_#amine>  (787) 
0

>  <i_qp_#in34>  (787) 
0

>  <i_qp_#in56>  (787) 
22

>  <i_qp_#metab>  (787) 
6

>  <i_qp_#nonHatm>  (787) 
32

>  <i_qp_#noncon>  (787) 
0

>  <i_qp_#ringatoms>  (787) 
22

>  <i_qp_#rotor>  (787) 
8

>  <i_qp_#rtvFG>  (787) 
1

>  <i_qp_#stars>  (787) 
0

>  <i_qp_CNS>  (787) 
-1

>  <i_qp_HumanOralAbsorption>  (787) 
3

>  <i_qp_RuleOfFive>  (787) 
0

>  <i_qp_RuleOfThree>  (787) 
0

>  <i_sd_BIOSOLVEIT.INFINISEE\_RESULT\_RANK>  (787) 
34569

>  <i_sd_version>  (787) 
0

>  <b_lp_Chiralities_Consistent>  (787) 
1

>  <b_sd_chiral_flag>  (787) 
0

>  <canonical_id>  (787) 
ATP-HTVS-7BEC4E93BD87

>  <compound_code>  (787) 
81249

>  <title>  (787) 
rxn502b____EMOL509335____EMOL30488121____EMOL109645890

>  <variant>  (787) 
81249-1

>  <source_file>  (787) 
运行/运行/ATP-VSW/ATP-VSW-DOCK_HTVS_1-001_lib/ATP-VSW-DOCK_HTVS_1-001_lib

>  <canonical_smiles>  (787) 
CN(C)c1ccc(CCNc2c(NC(=O)c3cccc([S-])c3)c[nH+]c3ccccc23)cc1

>  <scaffold>  (787) 
O=C(Nc1c[nH+]c2ccccc2c1NCCc1ccccc1)c1ccccc1

>  <molecular_formula>  (787) 
C26H26N4OS

$$$$
ATP-HTVS-7BF7B7486D45
     RDKit          3D

 66 69  0  0  0  0  0  0  0  0999 V2000
  196.3612  186.4389  157.9599 O   0  0  0  0  0  0  0  0  0  0  0  0
  196.8313  185.2645  158.5899 C   0  0  1  0  0  0  0  0  0  0  0  0
  197.0727  184.1258  157.6053 C   0  0  0  0  0  0  0  0  0  0  0  0
  196.2879  182.9444  157.5994 C   0  0  0  0  0  0  0  0  0  0  0  0
  196.5552  181.9305  156.6526 C   0  0  0  0  0  0  0  0  0  0  0  0
  197.5898  182.0807  155.7098 C   0  0  0  0  0  0  0  0  0  0  0  0
  198.3733  183.2507  155.7193 C   0  0  0  0  0  0  0  0  0  0  0  0
  198.1116  184.2639  156.6603 C   0  0  0  0  0  0  0  0  0  0  0  0
  197.8540  180.9929  154.6888 C   0  0  1  0  0  0  0  0  0  0  0  0
  198.4396  179.7966  155.2756 N   0  0  0  0  0  0  0  0  0  0  0  0
  199.1459  178.8745  154.4877 C   0  0  0  0  0  0  0  0  0  0  0  0
  199.0753  178.9918  153.1431 N   0  0  0  0  0  0  0  0  0  0  0  0
  199.7217  178.1207  152.3643 C   0  0  0  0  0  0  0  0  0  0  0  0
  200.4724  177.1289  152.8591 N   0  0  0  0  0  0  0  0  0  0  0  0
  200.5929  176.9754  154.1969 C   0  0  0  0  0  0  0  0  0  0  0  0
  199.9197  177.8539  155.0743 C   0  0  0  0  0  0  0  0  0  0  0  0
  200.0570  177.6823  156.4708 C   0  0  0  0  0  0  0  0  0  0  0  0
  200.8723  176.6509  156.9727 C   0  0  0  0  0  0  0  0  0  0  0  0
  201.5363  175.7734  156.0943 C   0  0  0  0  0  0  0  0  0  0  0  0
  201.3916  175.9311  154.7026 C   0  0  0  0  0  0  0  0  0  0  0  0
  199.5979  178.2109  150.9875 N   0  0  0  0  0  0  0  0  0  0  0  0
  198.7276  179.1565  150.3014 C   0  0  1  0  0  0  0  0  0  0  0  0
  198.4737  178.8252  148.8366 C   0  0  0  0  0  0  0  0  0  0  0  0
  199.5421  178.7640  147.9146 C   0  0  0  0  0  0  0  0  0  0  0  0
  199.2992  178.4500  146.5547 C   0  0  0  0  0  0  0  0  0  0  0  0
  197.9795  178.1953  146.1288 C   0  0  0  0  0  0  0  0  0  0  0  0
  196.9177  178.2373  147.0503 C   0  0  0  0  0  0  0  0  0  0  0  0
  197.1606  178.5652  148.3964 C   0  0  0  0  0  0  0  0  0  0  0  0
  200.4581  178.3384  145.5714 C   0  0  1  0  0  0  0  0  0  0  0  0
  200.7477  176.9350  145.1733 N   0  0  2  0  0  0  0  0  0  0  0  0
  200.8377  175.9852  146.3109 C   0  0  2  0  0  0  0  0  0  0  0  0
  201.9234  176.8391  144.2834 C   0  0  2  0  0  0  0  0  0  0  0  0
  195.1428  182.7412  158.5733 C   0  0  2  0  0  0  0  0  0  0  0  0
  196.2228  187.0996  158.6209 H   0  0  0  0  0  0  0  0  0  0  0  0
  197.7733  185.4881  159.0919 H   0  0  0  0  0  0  0  0  0  0  0  0
  196.1263  185.0006  159.3771 H   0  0  0  0  0  0  0  0  0  0  0  0
  195.9465  181.0374  156.6368 H   0  0  0  0  0  0  0  0  0  0  0  0
  199.1710  183.3750  155.0025 H   0  0  0  0  0  0  0  0  0  0  0  0
  198.7136  185.1599  156.6531 H   0  0  0  0  0  0  0  0  0  0  0  0
  196.9151  180.7207  154.2044 H   0  0  0  0  0  0  0  0  0  0  0  0
  198.5093  181.3924  153.9124 H   0  0  0  0  0  0  0  0  0  0  0  0
  198.2562  179.5958  156.2513 H   0  0  0  0  0  0  0  0  0  0  0  0
  199.5498  178.3271  157.1741 H   0  0  0  0  0  0  0  0  0  0  0  0
  200.9760  176.5301  158.0407 H   0  0  0  0  0  0  0  0  0  0  0  0
  202.1466  174.9736  156.4913 H   0  0  0  0  0  0  0  0  0  0  0  0
  201.9020  175.2494  154.0386 H   0  0  0  0  0  0  0  0  0  0  0  0
  200.1066  177.5460  150.4277 H   0  0  0  0  0  0  0  0  0  0  0  0
  197.7746  179.2161  150.8268 H   0  0  0  0  0  0  0  0  0  0  0  0
  199.1747  180.1471  150.3582 H   0  0  0  0  0  0  0  0  0  0  0  0
  200.5507  178.9534  148.2505 H   0  0  0  0  0  0  0  0  0  0  0  0
  197.7785  177.9373  145.0985 H   0  0  0  0  0  0  0  0  0  0  0  0
  195.9098  178.0273  146.7204 H   0  0  0  0  0  0  0  0  0  0  0  0
  196.3378  178.6253  149.0941 H   0  0  0  0  0  0  0  0  0  0  0  0
  200.2333  178.9360  144.6839 H   0  0  0  0  0  0  0  0  0  0  0  0
  201.3539  178.7764  146.0169 H   0  0  0  0  0  0  0  0  0  0  0  0
  201.6600  176.2577  146.9704 H   0  0  0  0  0  0  0  0  0  0  0  0
  201.0079  174.9691  145.9605 H   0  0  0  0  0  0  0  0  0  0  0  0
  199.9279  175.9526  146.9073 H   0  0  0  0  0  0  0  0  0  0  0  0
  202.8297  177.1893  144.7828 H   0  0  0  0  0  0  0  0  0  0  0  0
  201.7717  177.4322  143.3787 H   0  0  0  0  0  0  0  0  0  0  0  0
  202.0849  175.8053  143.9748 H   0  0  0  0  0  0  0  0  0  0  0  0
  194.5931  181.8226  158.3614 H   0  0  0  0  0  0  0  0  0  0  0  0
  194.4372  183.5690  158.5028 H   0  0  0  0  0  0  0  0  0  0  0  0
  195.5204  182.6786  159.5939 H   0  0  0  0  0  0  0  0  0  0  0  0
  200.9579  176.4714  152.2522 H   0  0  0  0  0  0  0  0  0  0  0  0
  199.9684  176.6527  144.5851 H   0  0  0  0  0  0  0  0  0  0  0  0
  1  2  1  0
  1 34  1  0
  2  3  1  0
  2 35  1  1
  2 36  1  0
  3  4  2  0
  3  8  1  0
  4  5  1  0
  4 33  1  0
  5  6  2  0
  5 37  1  0
  6  7  1  0
  6  9  1  0
  7  8  2  0
  7 38  1  0
  8 39  1  0
  9 10  1  0
  9 40  1  6
  9 41  1  0
 10 11  1  0
 10 42  1  0
 11 12  2  0
 11 16  1  0
 12 13  1  0
 13 14  2  0
 13 21  1  0
 14 15  1  0
 14 65  1  0
 15 16  1  0
 15 20  2  0
 16 17  2  0
 17 18  1  0
 17 43  1  0
 18 19  2  0
 18 44  1  0
 19 20  1  0
 19 45  1  0
 20 46  1  0
 21 22  1  0
 21 47  1  0
 22 23  1  0
 22 48  1  1
 22 49  1  0
 23 24  2  0
 23 28  1  0
 24 25  1  0
 24 50  1  0
 25 26  2  0
 25 29  1  0
 26 27  1  0
 26 51  1  0
 27 28  2  0
 27 52  1  0
 28 53  1  0
 29 30  1  0
 29 54  1  6
 29 55  1  0
 30 31  1  0
 30 32  1  0
 30 66  1  6
 31 56  1  1
 31 57  1  0
 31 58  1  0
 32 59  1  1
 32 60  1  0
 32 61  1  0
 33 62  1  6
 33 63  1  0
 33 64  1  0
M  CHG  2  14   1  30   1
M  END
>  <s_epik_cmdline>  (788) 
J2VwaWtfcHl0aG9uJywgJy1waCcsICc3LjAwMDAwMCcsICctcGh0JywgJzIuMDAwMDAwJywgJy1tcycsICcxNicsICctdG4nLCAnOCcsICctbWEnLCAnMjAwJywgJy1pbWFlJywgJzxpbmZpbGUubWFlPicsICctb21hZScsICc8b3V0ZmlsZS5tYWU+Jw==

>  <s_epik_input>  (788) 
W09IXVtDSDJdYzFjKFtDSDNdKVtjSF1jKFtjSF1bY0hdMSlbQ0gyXVtOSF1jKGMoYzIzKVtjSF1bY0hdW2NIXVtjSF0zKW5jKG4yKVtOSF1bQ0gyXWM0W2NIXWMoW2NIXVtjSF1bY0hdNClbQ0gyXU4oW0NIM10pW0NIM10=

>  <s_i_glide_gridfile>  (788) 
ATP-Grid

>  <s_lp_Force_Field>  (788) 
OPLS_2005

>  <s_lp_Variant>  (788) 
m_282030aaa____21892234____22360182____21940090-1

>  <s_lp_label>  (788) 
2099_sdstereoexpander_1_neutralizer_1_epik_1_stereoizer_1

>  <s_m_source_file>  (788) 
ATP-VSW-LIGPREP-002-in.maegz

>  <s_sd_BIOSOLVEIT.INFINISEE\_QUERY\_NAME>  (788) 
Ref-Lig

>  <s_sd_BIOSOLVEIT.INFINISEE\_QUERY\_SMILES>  (788) 
S(c1nc2c(cc1C[NH2+]Cc3ccc(cc3)C[NH+](C)C)cccc2)Cc4ccccc4

>  <s_sd_BIOSOLVEIT.INFINISEE\_REACTION\_NAME>  (788) 
m_282030aaa

>  <s_sd_BIOSOLVEIT.INFINISEE\_REAGENT1\_SMILES>  (788) 
[R1*]NCc1cc(c(cc1)CO)C

>  <s_sd_BIOSOLVEIT.INFINISEE\_REAGENT2\_SMILES>  (788) 
[R2*]c1nc([R1*])c2c(n1)cccc2

>  <s_sd_BIOSOLVEIT.INFINISEE\_REAGENT3\_SMILES>  (788) 
[R2*]NCc1cc(ccc1)CN(C)C

>  <s_sd_BIOSOLVEIT.INFINISEE\_SPACE>  (788) 
REALSpace_44bn_2023-08

>  <s_vsw_compound_code>  (788) 
67138

>  <s_vsw_variant>  (788) 
67138-1

>  <r_epik_Charging_Adjusted_Penalty>  (788) 
0.128387818637758

>  <r_epik_Ionization_Penalty>  (788) 
0.0608

>  <r_epik_Ionization_Penalty_Charging>  (788) 
0.0608

>  <r_epik_Ionization_Penalty_Neutral>  (788) 
0

>  <r_epik_State_Penalty>  (788) 
0.067599999999999993

>  <r_i_docking_score>  (788) 
-3.69880272033171

>  <r_i_glide_ecoul>  (788) 
-7.33493995666504

>  <r_i_glide_eff_state_penalty>  (788) 
0.067599999999999993

>  <r_i_glide_einternal>  (788) 
3.45723533630371

>  <r_i_glide_emodel>  (788) 
-53.130507667211901

>  <r_i_glide_energy>  (788) 
-39.6534938812256

>  <r_i_glide_erotb>  (788) 
0.81285644487214903

>  <r_i_glide_esite>  (788) 
-0.143314286648071

>  <r_i_glide_evdw>  (788) 
-32.318553924560497

>  <r_i_glide_gscore>  (788) 
-3.7664027203317101

>  <r_i_glide_hbond>  (788) 
-0.18149507165914799

>  <r_i_glide_ligand_efficiency>  (788) 
-0.112084930919143

>  <r_i_glide_ligand_efficiency_ln>  (788) 
-0.82259457362624699

>  <r_i_glide_ligand_efficiency_sa>  (788) 
-0.359516263379344

>  <r_i_glide_lipo>  (788) 
-0.91073585701049298

>  <r_i_glide_metal>  (788) 
-0

>  <r_i_glide_rewards>  (788) 
-0.62754526015836898

>  <r_lp_Energy>  (788) 
18.882047

>  <r_qp_ACxDN^.5/SA>  (788) 
0.014505000000000001

>  <r_qp_CIQPlogS>  (788) 
-5.6399999999999997

>  <r_qp_EA(eV)>  (788) 
0.42099999999999999

>  <r_qp_FISA>  (788) 
91.978999999999999

>  <r_qp_FOSA>  (788) 
337.41699999999997

>  <r_qp_IP(eV)>  (788) 
7.8639999999999999

>  <r_qp_Jm>  (788) 
0.0023220063001472601

>  <r_qp_PISA>  (788) 
370.654

>  <r_qp_PSA>  (788) 
69.278000000000006

>  <r_qp_PercentHumanOralAbsorption>  (788) 
100

>  <r_qp_QPPCaco>  (788) 
331.55700000000002

>  <r_qp_QPPMDCK>  (788) 
165.96299999999999

>  <r_qp_QPlogBB>  (788) 
-0.63900000000000001

>  <r_qp_QPlogHERG>  (788) 
-7.5259999999999998

>  <r_qp_QPlogKhsa>  (788) 
0.76100000000000001

>  <r_qp_QPlogKp>  (788) 
-3.0110000000000001

>  <r_qp_QPlogPC16>  (788) 
15.987

>  <r_qp_QPlogPo/w>  (788) 
4.6779999999999999

>  <r_qp_QPlogPoct>  (788) 
24.646000000000001

>  <r_qp_QPlogPw>  (788) 
13.579000000000001

>  <r_qp_QPlogS>  (788) 
-5.2679999999999998

>  <r_qp_QPpolrz>  (788) 
50.045000000000002

>  <r_qp_SASA>  (788) 
800.05100000000004

>  <r_qp_SAamideO>  (788) 
0

>  <r_qp_SAfluorine>  (788) 
0

>  <r_qp_WPSA>  (788) 
0

>  <r_qp_accptHB>  (788) 
6.7000000000000002

>  <r_qp_dip^2/V>  (788) 
0.0161456

>  <r_qp_dipole>  (788) 
4.8819999999999997

>  <r_qp_donorHB>  (788) 
3

>  <r_qp_glob>  (788) 
0.78371279999999999

>  <r_qp_mol_MW>  (788) 
441.57499999999999

>  <r_qp_volume>  (788) 
1476.2650000000001

>  <r_sd_BIOSOLVEIT.INFINISEE\_FTREES\_SIMILARITY>  (788) 
0.90100000000000002

>  <r_sd_BIOSOLVEIT.LOGP>  (788) 
3.29922

>  <r_sd_BIOSOLVEIT.MOLECULAR\_WEIGHT>  (788) 
442.584

>  <r_sd_BIOSOLVEIT.TPSA>  (788) 
74.510000000000005

>  <i_epik_Tot_Q>  (788) 
2

>  <i_epik_Tot_abs_Q>  (788) 
2

>  <i_f3d_flags>  (788) 
0

>  <i_i_glide_confnum>  (788) 
10

>  <i_i_glide_lignum>  (788) 
752

>  <i_i_glide_posenum>  (788) 
4

>  <i_i_glide_rotatable_bonds>  (788) 
10

>  <i_lp_mmshare_version>  (788) 
65135

>  <i_m_ct_format>  (788) 
2

>  <i_m_source_file_index>  (788) 
2099

>  <i_qp_#NandO>  (788) 
6

>  <i_qp_#acid>  (788) 
0

>  <i_qp_#amide>  (788) 
0

>  <i_qp_#amidine>  (788) 
0

>  <i_qp_#amine>  (788) 
1

>  <i_qp_#in34>  (788) 
0

>  <i_qp_#in56>  (788) 
22

>  <i_qp_#metab>  (788) 
7

>  <i_qp_#nonHatm>  (788) 
33

>  <i_qp_#noncon>  (788) 
0

>  <i_qp_#ringatoms>  (788) 
22

>  <i_qp_#rotor>  (788) 
10

>  <i_qp_#rtvFG>  (788) 
0

>  <i_qp_#stars>  (788) 
1

>  <i_qp_CNS>  (788) 
0

>  <i_qp_HumanOralAbsorption>  (788) 
3

>  <i_qp_RuleOfFive>  (788) 
0

>  <i_qp_RuleOfThree>  (788) 
1

>  <i_sd_BIOSOLVEIT.INFINISEE\_REAGENT1\_NAME>  (788) 
21892234

>  <i_sd_BIOSOLVEIT.INFINISEE\_REAGENT2\_NAME>  (788) 
22360182

>  <i_sd_BIOSOLVEIT.INFINISEE\_REAGENT3\_NAME>  (788) 
21940090

>  <i_sd_BIOSOLVEIT.INFINISEE\_RESULT\_RANK>  (788) 
97236

>  <i_sd_version>  (788) 
0

>  <b_lp_Chiralities_Consistent>  (788) 
1

>  <b_sd_chiral_flag>  (788) 
0

>  <canonical_id>  (788) 
ATP-HTVS-7BF7B7486D45

>  <compound_code>  (788) 
67138

>  <title>  (788) 
m_282030aaa____21892234____22360182____21940090

>  <variant>  (788) 
67138-1

>  <source_file>  (788) 
运行/运行/ATP-VSW/ATP-VSW-DOCK_HTVS_1-002_lib.maegz

>  <canonical_smiles>  (788) 
Cc1cc(CNc2nc(NCc3cccc(C[NH+](C)C)c3)[nH+]c3ccccc23)ccc1CO

>  <scaffold>  (788) 
c1ccc(CNc2nc(NCc3ccccc3)c3ccccc3[nH+]2)cc1

>  <molecular_formula>  (788) 
C27H33N5O+2

$$$$
ATP-HTVS-7C2B62D08873
     RDKit          3D

 63 66  0  0  0  0  0  0  0  0999 V2000
  197.8687  186.4432  156.3318 S   0  0  1  0  0  0  0  0  0  0  0  0
  199.3161  186.3132  156.5423 O   0  0  0  0  0  0  0  0  0  0  0  0
  197.2641  187.7700  156.1349 O   0  0  0  0  0  0  0  0  0  0  0  0
  197.4469  185.5000  154.9619 N   0  0  0  0  0  0  0  0  0  0  0  0
  197.0091  185.6276  157.6850 C   0  0  0  0  0  0  0  0  0  0  0  0
  197.1792  184.2452  157.9624 C   0  0  0  0  0  0  0  0  0  0  0  0
  196.4473  183.6598  159.0179 C   0  0  0  0  0  0  0  0  0  0  0  0
  195.5625  184.4326  159.7889 C   0  0  0  0  0  0  0  0  0  0  0  0
  195.4069  185.8038  159.5222 C   0  0  0  0  0  0  0  0  0  0  0  0
  196.1234  186.4007  158.4681 C   0  0  0  0  0  0  0  0  0  0  0  0
  198.1118  183.3406  157.1760 C   0  0  1  0  0  0  0  0  0  0  0  0
  197.3935  182.4311  156.2964 N   0  0  0  0  0  0  0  0  0  0  0  0
  197.9831  181.2465  155.8415 C   0  0  0  0  0  0  0  0  0  0  0  0
  199.1000  180.8069  156.4631 N   0  0  0  0  0  0  0  0  0  0  0  0
  199.6736  179.6647  156.0291 C   0  0  0  0  0  0  0  0  0  0  0  0
  199.1203  178.9541  154.9263 C   0  0  0  0  0  0  0  0  0  0  0  0
  197.9952  179.3845  154.3178 N   0  0  0  0  0  0  0  0  0  0  0  0
  197.4391  180.5411  154.7424 C   0  0  0  0  0  0  0  0  0  0  0  0
  196.3548  181.0612  154.0097 N   0  0  0  0  0  0  0  0  0  0  0  0
  196.1643  180.7896  152.5817 C   0  0  1  0  0  0  0  0  0  0  0  0
  197.4087  180.5220  151.7412 C   0  0  0  0  0  0  0  0  0  0  0  0
  197.4913  179.3554  150.9544 C   0  0  0  0  0  0  0  0  0  0  0  0
  198.6577  179.0748  150.2101 C   0  0  0  0  0  0  0  0  0  0  0  0
  199.7596  179.9538  150.2883 C   0  0  0  0  0  0  0  0  0  0  0  0
  199.6817  181.1172  151.0819 C   0  0  0  0  0  0  0  0  0  0  0  0
  198.5086  181.4015  151.8007 C   0  0  0  0  0  0  0  0  0  0  0  0
  198.7192  177.8329  149.3345 C   0  0  1  0  0  0  0  0  0  0  0  0
  198.3664  178.1658  147.9321 N   0  0  2  0  0  0  0  0  0  0  0  0
  196.9597  178.5939  147.7676 C   0  0  2  0  0  0  0  0  0  0  0  0
  198.7151  177.0866  146.9819 C   0  0  2  0  0  0  0  0  0  0  0  0
  199.7818  177.8060  154.4438 C   0  0  0  0  0  0  0  0  0  0  0  0
  200.9428  177.3154  155.0628 C   0  0  0  0  0  0  0  0  0  0  0  0
  201.4644  177.9966  156.1712 C   0  0  0  0  0  0  0  0  0  0  0  0
  200.8461  179.1720  156.6459 C   0  0  0  0  0  0  0  0  0  0  0  0
  198.0324  185.7570  154.1697 H   0  0  0  0  0  0  0  0  0  0  0  0
  196.4686  185.6334  154.7132 H   0  0  0  0  0  0  0  0  0  0  0  0
  196.5613  182.6056  159.2292 H   0  0  0  0  0  0  0  0  0  0  0  0
  195.0022  183.9623  160.5786 H   0  0  0  0  0  0  0  0  0  0  0  0
  194.7141  186.3913  160.1033 H   0  0  0  0  0  0  0  0  0  0  0  0
  195.9730  187.4491  158.2510 H   0  0  0  0  0  0  0  0  0  0  0  0
  198.8304  183.8962  156.5764 H   0  0  0  0  0  0  0  0  0  0  0  0
  198.6959  182.7935  157.9198 H   0  0  0  0  0  0  0  0  0  0  0  0
  196.5334  182.7552  155.8805 H   0  0  0  0  0  0  0  0  0  0  0  0
  195.8873  181.8867  154.3563 H   0  0  0  0  0  0  0  0  0  0  0  0
  195.4917  179.9312  152.4928 H   0  0  0  0  0  0  0  0  0  0  0  0
  195.6507  181.6453  152.1382 H   0  0  0  0  0  0  0  0  0  0  0  0
  196.6600  178.6665  150.9447 H   0  0  0  0  0  0  0  0  0  0  0  0
  200.6685  179.7474  149.7401 H   0  0  0  0  0  0  0  0  0  0  0  0
  200.5401  181.7656  151.1855 H   0  0  0  0  0  0  0  0  0  0  0  0
  198.4642  182.2665  152.4446 H   0  0  0  0  0  0  0  0  0  0  0  0
  199.7294  177.4165  149.3884 H   0  0  0  0  0  0  0  0  0  0  0  0
  198.0505  177.0520  149.7107 H   0  0  0  0  0  0  0  0  0  0  0  0
  196.2788  177.7836  148.0162 H   0  0  0  0  0  0  0  0  0  0  0  0
  196.7662  178.9006  146.7406 H   0  0  0  0  0  0  0  0  0  0  0  0
  196.7129  179.4460  148.3964 H   0  0  0  0  0  0  0  0  0  0  0  0
  198.1767  176.1672  147.2201 H   0  0  0  0  0  0  0  0  0  0  0  0
  199.7855  176.8742  147.0036 H   0  0  0  0  0  0  0  0  0  0  0  0
  198.4568  177.3860  145.9645 H   0  0  0  0  0  0  0  0  0  0  0  0
  199.4083  177.2984  153.5704 H   0  0  0  0  0  0  0  0  0  0  0  0
  201.4260  176.4131  154.7014 H   0  0  0  0  0  0  0  0  0  0  0  0
  202.3418  177.6091  156.6566 H   0  0  0  0  0  0  0  0  0  0  0  0
  201.2655  179.6924  157.4988 H   0  0  0  0  0  0  0  0  0  0  0  0
  198.9444  178.9544  147.6795 H   0  0  0  0  0  0  0  0  0  0  0  0
  1  2  2  0
  1  3  2  0
  1  4  1  6
  1  5  1  0
  4 35  1  0
  4 36  1  0
  5  6  1  0
  5 10  2  0
  6  7  2  0
  6 11  1  0
  7  8  1  0
  7 37  1  0
  8  9  2  0
  8 38  1  0
  9 10  1  0
  9 39  1  0
 10 40  1  0
 11 12  1  0
 11 41  1  6
 11 42  1  0
 12 13  1  0
 12 43  1  0
 13 14  2  0
 13 18  1  0
 14 15  1  0
 15 16  1  0
 15 34  2  0
 16 17  1  0
 16 31  2  0
 17 18  2  0
 18 19  1  0
 19 20  1  0
 19 44  1  0
 20 21  1  0
 20 45  1  1
 20 46  1  0
 21 22  2  0
 21 26  1  0
 22 23  1  0
 22 47  1  0
 23 24  2  0
 23 27  1  0
 24 25  1  0
 24 48  1  0
 25 26  2  0
 25 49  1  0
 26 50  1  0
 27 28  1  0
 27 51  1  6
 27 52  1  0
 28 29  1  0
 28 30  1  0
 28 63  1  6
 29 53  1  1
 29 54  1  0
 29 55  1  0
 30 56  1  1
 30 57  1  0
 30 58  1  0
 31 32  1  0
 31 59  1  0
 32 33  2  0
 32 60  1  0
 33 34  1  0
 33 61  1  0
 34 62  1  0
M  CHG  1  28   1
M  END
>  <s_epik_cmdline>  (789) 
J2VwaWtfcHl0aG9uJywgJy1waCcsICc3LjAwMDAwMCcsICctcGh0JywgJzIuMDAwMDAwJywgJy1tcycsICcxNicsICctdG4nLCAnOCcsICctbWEnLCAnMjAwJywgJy1pbWFlJywgJzxpbmZpbGUubWFlPicsICctb21hZScsICc8b3V0ZmlsZS5tYWU+Jw==

>  <s_epik_input>  (789) 
W2NIXTFbY0hdW2NIXVtjSF1jKGMxUyg9TykoPU8pW05IMl0pW0NIMl1bTkhdYyhuMiljKG5jKGMyMylbY0hdW2NIXVtjSF1bY0hdMylbTkhdW0NIMl1jNFtjSF1jKFtjSF1bY0hdW2NIXTQpW0NIMl1OKFtDSDNdKVtDSDNd

>  <s_i_glide_gridfile>  (789) 
ATP-Grid

>  <s_lp_Force_Field>  (789) 
OPLS_2005

>  <s_lp_Variant>  (789) 
m_282030aaa____21921182____23157418____21940090-1

>  <s_lp_label>  (789) 
1983_sdstereoexpander_1_neutralizer_1_epik_1_stereoizer_1

>  <s_m_source_file>  (789) 
ATP-VSW-LIGPREP-003-in.maegz

>  <s_sd_BIOSOLVEIT.INFINISEE\_QUERY\_NAME>  (789) 
Ref-Lig

>  <s_sd_BIOSOLVEIT.INFINISEE\_QUERY\_SMILES>  (789) 
S(c1nc2c(cc1C[NH2+]Cc3ccc(cc3)C[NH+](C)C)cccc2)Cc4ccccc4

>  <s_sd_BIOSOLVEIT.INFINISEE\_REACTION\_NAME>  (789) 
m_282030aaa

>  <s_sd_BIOSOLVEIT.INFINISEE\_REAGENT1\_SMILES>  (789) 
[R1*]NCc1c(S(=O)(=O)N)cccc1

>  <s_sd_BIOSOLVEIT.INFINISEE\_REAGENT2\_SMILES>  (789) 
[R1*]c1nc2c(nc1[R2*])cccc2

>  <s_sd_BIOSOLVEIT.INFINISEE\_REAGENT3\_SMILES>  (789) 
[R2*]NCc1cc(ccc1)CN(C)C

>  <s_sd_BIOSOLVEIT.INFINISEE\_SPACE>  (789) 
REALSpace_44bn_2023-08

>  <s_vsw_compound_code>  (789) 
63427

>  <s_vsw_variant>  (789) 
63427-1

>  <r_epik_Charging_Adjusted_Penalty>  (789) 
0.088195370499548398

>  <r_epik_Ionization_Penalty>  (789) 
0.044699999999999997

>  <r_epik_Ionization_Penalty_Charging>  (789) 
0.0441

>  <r_epik_Ionization_Penalty_Neutral>  (789) 
0.00059999999999999995

>  <r_epik_State_Penalty>  (789) 
0.0441

>  <r_i_docking_score>  (789) 
-3.81730885515424

>  <r_i_glide_ecoul>  (789) 
-6.3045721054077104

>  <r_i_glide_eff_state_penalty>  (789) 
0.0441

>  <r_i_glide_einternal>  (789) 
1.7404772043228101

>  <r_i_glide_emodel>  (789) 
-52.009009293825997

>  <r_i_glide_energy>  (789) 
-41.336825370788603

>  <r_i_glide_erotb>  (789) 
0.621681633001678

>  <r_i_glide_esite>  (789) 
-0.083702846429282496

>  <r_i_glide_evdw>  (789) 
-35.032253265380902

>  <r_i_glide_gscore>  (789) 
-3.8614088551542398

>  <r_i_glide_hbond>  (789) 
0

>  <r_i_glide_ligand_efficiency>  (789) 
-0.112273789857478

>  <r_i_glide_ligand_efficiency_ln>  (789) 
-0.84335059799019296

>  <r_i_glide_ligand_efficiency_sa>  (789) 
-0.36372349416889299

>  <r_i_glide_lipo>  (789) 
-1.44985957858318

>  <r_i_glide_metal>  (789) 
-0

>  <r_i_glide_rewards>  (789) 
-0.25222958406325802

>  <r_lp_Energy>  (789) 
29.582519999999999

>  <r_qp_ACxDN^.5/SA>  (789) 
0.0272278

>  <r_qp_CIQPlogS>  (789) 
-5.2119999999999997

>  <r_qp_EA(eV)>  (789) 
0.91600000000000004

>  <r_qp_FISA>  (789) 
90.540999999999997

>  <r_qp_FOSA>  (789) 
182.93799999999999

>  <r_qp_IP(eV)>  (789) 
7.923

>  <r_qp_Jm>  (789) 
1.4056686812957799

>  <r_qp_PISA>  (789) 
424.33600000000001

>  <r_qp_PSA>  (789) 
100.42

>  <r_qp_PercentHumanOralAbsorption>  (789) 
90.635000000000005

>  <r_qp_QPPCaco>  (789) 
342.13299999999998

>  <r_qp_QPPMDCK>  (789) 
171.69200000000001

>  <r_qp_QPlogBB>  (789) 
-0.44600000000000001

>  <r_qp_QPlogHERG>  (789) 
-6.452

>  <r_qp_QPlogKhsa>  (789) 
0.14799999999999999

>  <r_qp_QPlogKp>  (789) 
-2.7959999999999998

>  <r_qp_QPlogPC16>  (789) 
15.635

>  <r_qp_QPlogPo/w>  (789) 
3.1309999999999998

>  <r_qp_QPlogPoct>  (789) 
27.207000000000001

>  <r_qp_QPlogPw>  (789) 
17.911000000000001

>  <r_qp_QPlogS>  (789) 
-2.734

>  <r_qp_QPpolrz>  (789) 
47.365000000000002

>  <r_qp_SASA>  (789) 
697.81500000000005

>  <r_qp_SAamideO>  (789) 
0

>  <r_qp_SAfluorine>  (789) 
0

>  <r_qp_WPSA>  (789) 
0

>  <r_qp_accptHB>  (789) 
9.5

>  <r_qp_dip^2/V>  (789) 
0.024821200000000002

>  <r_qp_dipole>  (789) 
5.8879999999999999

>  <r_qp_donorHB>  (789) 
4

>  <r_qp_glob>  (789) 
0.86586739999999995

>  <r_qp_mol_MW>  (789) 
476.59500000000003

>  <r_qp_volume>  (789) 
1396.498

>  <r_sd_BIOSOLVEIT.INFINISEE\_FTREES\_SIMILARITY>  (789) 
0.90200000000000002

>  <r_sd_BIOSOLVEIT.LOGP>  (789) 
2.7965

>  <r_sd_BIOSOLVEIT.MOLECULAR\_WEIGHT>  (789) 
477.60899999999998

>  <r_sd_BIOSOLVEIT.TPSA>  (789) 
114.44

>  <i_epik_Tot_Q>  (789) 
1

>  <i_epik_Tot_abs_Q>  (789) 
1

>  <i_f3d_flags>  (789) 
0

>  <i_i_glide_confnum>  (789) 
9

>  <i_i_glide_lignum>  (789) 
750

>  <i_i_glide_posenum>  (789) 
10

>  <i_i_glide_rotatable_bonds>  (789) 
9

>  <i_lp_mmshare_version>  (789) 
65135

>  <i_m_ct_format>  (789) 
2

>  <i_m_source_file_index>  (789) 
1983

>  <i_qp_#NandO>  (789) 
8

>  <i_qp_#acid>  (789) 
0

>  <i_qp_#amide>  (789) 
0

>  <i_qp_#amidine>  (789) 
0

>  <i_qp_#amine>  (789) 
1

>  <i_qp_#in34>  (789) 
0

>  <i_qp_#in56>  (789) 
22

>  <i_qp_#metab>  (789) 
5

>  <i_qp_#nonHatm>  (789) 
34

>  <i_qp_#noncon>  (789) 
0

>  <i_qp_#ringatoms>  (789) 
22

>  <i_qp_#rotor>  (789) 
10

>  <i_qp_#rtvFG>  (789) 
0

>  <i_qp_#stars>  (789) 
0

>  <i_qp_CNS>  (789) 
0

>  <i_qp_HumanOralAbsorption>  (789) 
3

>  <i_qp_RuleOfFive>  (789) 
0

>  <i_qp_RuleOfThree>  (789) 
0

>  <i_sd_BIOSOLVEIT.INFINISEE\_REAGENT1\_NAME>  (789) 
21921182

>  <i_sd_BIOSOLVEIT.INFINISEE\_REAGENT2\_NAME>  (789) 
23157418

>  <i_sd_BIOSOLVEIT.INFINISEE\_REAGENT3\_NAME>  (789) 
21940090

>  <i_sd_BIOSOLVEIT.INFINISEE\_RESULT\_RANK>  (789) 
89577

>  <i_sd_version>  (789) 
0

>  <b_lp_Chiralities_Consistent>  (789) 
1

>  <b_sd_chiral_flag>  (789) 
0

>  <canonical_id>  (789) 
ATP-HTVS-7C2B62D08873

>  <compound_code>  (789) 
63427

>  <title>  (789) 
m_282030aaa____21921182____23157418____21940090

>  <variant>  (789) 
63427-1

>  <source_file>  (789) 
运行/运行/ATP-VSW/ATP-VSW-DOCK_HTVS_1-003_lib/ATP-VSW-DOCK_HTVS_1-003_lib.mae

>  <canonical_smiles>  (789) 
C[NH+](C)Cc1cccc(CNc2nc3ccccc3nc2NCc2ccccc2S(N)(=O)=O)c1

>  <scaffold>  (789) 
c1ccc(CNc2nc3ccccc3nc2NCc2ccccc2)cc1

>  <molecular_formula>  (789) 
C25H29N6O2S+

$$$$
ATP-HTVS-7C2D6468D489
     RDKit          3D

 68 71  0  0  0  0  0  0  0  0999 V2000
  196.3581  181.0686  154.5080 O   0  0  0  0  0  0  0  0  0  0  0  0
  197.5448  181.4302  154.5738 C   0  0  0  0  0  0  0  0  0  0  0  0
  197.9602  182.2796  155.5180 N   0  0  0  0  0  0  0  0  0  0  0  0
  197.1838  182.8197  156.5942 C   0  0  0  0  0  0  0  0  0  0  0  0
  197.4550  184.1306  157.0725 C   0  0  0  0  0  0  0  0  0  0  0  0
  198.4693  184.8895  156.4540 N   0  0  0  0  0  0  0  0  0  0  0  0
  198.0680  185.8955  155.4622 C   0  0  1  0  0  0  0  0  0  0  0  0
  197.3384  186.9789  156.1259 C   0  0  0  0  0  0  0  0  0  0  0  0
  196.7557  187.8359  156.6623 N   0  0  0  0  0  0  0  0  0  0  0  0
  199.1422  186.4776  154.5496 C   0  0  0  0  0  0  0  0  0  0  0  0
  198.8938  186.4811  153.1582 C   0  0  0  0  0  0  0  0  0  0  0  0
  199.8471  187.0087  152.2634 C   0  0  0  0  0  0  0  0  0  0  0  0
  201.0620  187.5295  152.7560 C   0  0  0  0  0  0  0  0  0  0  0  0
  201.3101  187.5448  154.1434 C   0  0  0  0  0  0  0  0  0  0  0  0
  200.3462  187.0454  155.0411 C   0  0  0  0  0  0  0  0  0  0  0  0
  199.7710  184.8250  157.0988 C   0  0  2  0  0  0  0  0  0  0  0  0
  196.6898  184.6421  158.1586 C   0  0  0  0  0  0  0  0  0  0  0  0
  195.6477  183.8421  158.7039 C   0  0  0  0  0  0  0  0  0  0  0  0
  195.4273  182.5973  158.2119 N   0  0  0  0  0  0  0  0  0  0  0  0
  196.1548  182.0627  157.2099 C   0  0  0  0  0  0  0  0  0  0  0  0
  194.8211  184.3309  159.7372 C   0  0  0  0  0  0  0  0  0  0  0  0
  195.0362  185.6372  160.2231 C   0  0  0  0  0  0  0  0  0  0  0  0
  196.0811  186.4242  159.6982 C   0  0  0  0  0  0  0  0  0  0  0  0
  196.9303  185.9303  158.6958 C   0  0  0  0  0  0  0  0  0  0  0  0
  198.6021  180.9466  153.5494 C   0  0  2  0  0  0  0  0  0  0  0  0
  198.1075  180.5471  152.1884 N   0  0  0  0  0  0  0  0  0  0  0  0
  197.0149  179.5587  152.1480 C   0  0  1  0  0  0  0  0  0  0  0  0
  196.2153  179.6642  150.8356 C   0  0  2  0  0  0  0  0  0  0  0  0
  199.2086  180.1479  151.2806 C   0  0  1  0  0  0  0  0  0  0  0  0
  200.2083  181.2787  150.9899 C   0  0  2  0  0  0  0  0  0  0  0  0
  199.4101  179.8949  154.2688 C   0  0  0  0  0  0  0  0  0  0  0  0
  200.8276  179.9607  154.3228 C   0  0  0  0  0  0  0  0  0  0  0  0
  201.5971  178.9737  154.9764 C   0  0  0  0  0  0  0  0  0  0  0  0
  200.9619  177.8893  155.6035 C   0  0  0  0  0  0  0  0  0  0  0  0
  199.5608  177.7974  155.5616 C   0  0  0  0  0  0  0  0  0  0  0  0
  198.8049  178.7801  154.8972 C   0  0  0  0  0  0  0  0  0  0  0  0
  198.8997  182.6622  155.4270 H   0  0  0  0  0  0  0  0  0  0  0  0
  197.3007  185.4544  154.8265 H   0  0  0  0  0  0  0  0  0  0  0  0
  197.9537  186.0981  152.7775 H   0  0  0  0  0  0  0  0  0  0  0  0
  199.6418  187.0101  151.2020 H   0  0  0  0  0  0  0  0  0  0  0  0
  201.8012  187.9240  152.0742 H   0  0  0  0  0  0  0  0  0  0  0  0
  202.2370  187.9440  154.5295 H   0  0  0  0  0  0  0  0  0  0  0  0
  200.5526  187.1133  156.0992 H   0  0  0  0  0  0  0  0  0  0  0  0
  199.7621  184.1548  157.9590 H   0  0  0  0  0  0  0  0  0  0  0  0
  200.0506  185.8140  157.4467 H   0  0  0  0  0  0  0  0  0  0  0  0
  200.5264  184.4654  156.3999 H   0  0  0  0  0  0  0  0  0  0  0  0
  195.8681  181.0547  156.9367 H   0  0  0  0  0  0  0  0  0  0  0  0
  194.0285  183.7202  160.1438 H   0  0  0  0  0  0  0  0  0  0  0  0
  194.3869  186.0333  160.9988 H   0  0  0  0  0  0  0  0  0  0  0  0
  196.2092  187.4360  160.0464 H   0  0  0  0  0  0  0  0  0  0  0  0
  197.7169  186.5739  158.2877 H   0  0  0  0  0  0  0  0  0  0  0  0
  199.2214  181.8286  153.4176 H   0  0  0  0  0  0  0  0  0  0  0  0
  197.4112  178.5457  152.2971 H   0  0  0  0  0  0  0  0  0  0  0  0
  196.2594  179.6986  152.8819 H   0  0  0  0  0  0  0  0  0  0  0  0
  195.3337  179.0248  150.9077 H   0  0  0  0  0  0  0  0  0  0  0  0
  196.7626  179.3648  149.9390 H   0  0  0  0  0  0  0  0  0  0  0  0
  195.8628  180.6866  150.6929 H   0  0  0  0  0  0  0  0  0  0  0  0
  199.7271  179.2686  151.6607 H   0  0  0  0  0  0  0  0  0  0  0  0
  198.8239  179.8490  150.3080 H   0  0  0  0  0  0  0  0  0  0  0  0
  200.9750  180.9487  150.2828 H   0  0  0  0  0  0  0  0  0  0  0  0
  200.7388  181.6122  151.8797 H   0  0  0  0  0  0  0  0  0  0  0  0
  199.7024  182.1410  150.5519 H   0  0  0  0  0  0  0  0  0  0  0  0
  201.3535  180.7765  153.8513 H   0  0  0  0  0  0  0  0  0  0  0  0
  202.6756  179.0514  155.0045 H   0  0  0  0  0  0  0  0  0  0  0  0
  201.5482  177.1400  156.1187 H   0  0  0  0  0  0  0  0  0  0  0  0
  199.0616  176.9763  156.0545 H   0  0  0  0  0  0  0  0  0  0  0  0
  197.7309  178.6680  154.8844 H   0  0  0  0  0  0  0  0  0  0  0  0
  194.6778  182.0193  158.6048 H   0  0  0  0  0  0  0  0  0  0  0  0
  1  2  2  0
  2  3  1  0
  2 25  1  0
  3  4  1  0
  3 37  1  0
  4  5  2  0
  4 20  1  0
  5  6  1  0
  5 17  1  0
  6  7  1  0
  6 16  1  0
  7  8  1  0
  7 10  1  0
  7 38  1  6
  8  9  3  0
 10 11  2  0
 10 15  1  0
 11 12  1  0
 11 39  1  0
 12 13  2  0
 12 40  1  0
 13 14  1  0
 13 41  1  0
 14 15  2  0
 14 42  1  0
 15 43  1  0
 16 44  1  1
 16 45  1  0
 16 46  1  0
 17 18  1  0
 17 24  2  0
 18 19  1  0
 18 21  2  0
 19 20  2  0
 19 68  1  0
 20 47  1  0
 21 22  1  0
 21 48  1  0
 22 23  2  0
 22 49  1  0
 23 24  1  0
 23 50  1  0
 24 51  1  0
 25 26  1  0
 25 31  1  0
 25 52  1  6
 26 27  1  0
 26 29  1  0
 27 28  1  0
 27 53  1  1
 27 54  1  0
 28 55  1  1
 28 56  1  0
 28 57  1  0
 29 30  1  0
 29 58  1  1
 29 59  1  0
 30 60  1  6
 30 61  1  0
 30 62  1  0
 31 32  2  0
 31 36  1  0
 32 33  1  0
 32 63  1  0
 33 34  2  0
 33 64  1  0
 34 35  1  0
 34 65  1  0
 35 36  2  0
 35 66  1  0
 36 67  1  0
M  CHG  1  19   1
M  END
>  <s_epik_cmdline>  (790) 
J2VwaWtfcHl0aG9uJywgJy1waCcsICc3LjAwMDAwMCcsICctcGh0JywgJzIuMDAwMDAwJywgJy1tcycsICcxNicsICctdG4nLCAnOCcsICctbWEnLCAnMjAwJywgJy1pbWFlJywgJzxpbmZpbGUubWFlPicsICctb21hZScsICc8b3V0ZmlsZS5tYWU+Jw==

>  <s_epik_input>  (790) 
W2NIXTFbY0hdW2NIXVtjSF1bY0hdYzFbQ0BASF0oTihbQ0gyXVtDSDNdKVtDSDJdW0NIM10pQyg9TylbTkhdYyhbY0hdbmMoYzIzKVtjSF1bY0hdW2NIXVtjSF0zKWMyTihbQ0gzXSlbQ0BASF0oQyNOKWM0W2NIXVtjSF1bY0hdW2NIXVtjSF00

>  <s_i_glide_gridfile>  (790) 
ATP-Grid

>  <s_lp_Force_Field>  (790) 
OPLS_2005

>  <s_lp_Variant>  (790) 
rxn502b____EMOL5759977____EMOL30488121____EMOL24630243-1

>  <s_lp_label>  (790) 
2576_sdstereoexpander_1_neutralizer_1_epik_1_stereoizer_1

>  <s_m_source_file>  (790) 
ATP-VSW-LIGPREP-002-in.maegz

>  <s_sd_BIOSOLVEIT.INFINISEE\_QUERY\_NAME>  (790) 
Ref-Lig

>  <s_sd_BIOSOLVEIT.INFINISEE\_QUERY\_SMILES>  (790) 
S(c1nc2c(cc1C[NH2+]Cc3ccc(cc3)C[NH+](C)C)cccc2)Cc4ccccc4

>  <s_sd_BIOSOLVEIT.INFINISEE\_REACTION\_NAME>  (790) 
rxn502b

>  <s_sd_BIOSOLVEIT.INFINISEE\_REAGENT1\_NAME>  (790) 
EMOL5759977

>  <s_sd_BIOSOLVEIT.INFINISEE\_REAGENT1\_SMILES>  (790) 
O=C(O)C(N(CC)CC)c1ccccc1

>  <s_sd_BIOSOLVEIT.INFINISEE\_REAGENT2\_NAME>  (790) 
EMOL30488121

>  <s_sd_BIOSOLVEIT.INFINISEE\_REAGENT2\_SMILES>  (790) 
Brc1c(N)cnc2c1cccc2

>  <s_sd_BIOSOLVEIT.INFINISEE\_REAGENT3\_NAME>  (790) 
EMOL24630243

>  <s_sd_BIOSOLVEIT.INFINISEE\_REAGENT3\_SMILES>  (790) 
N#CC(NC)c1ccccc1

>  <s_sd_BIOSOLVEIT.INFINISEE\_SPACE>  (790) 
eXplore_7tr_2022-12

>  <s_vsw_compound_code>  (790) 
82402

>  <s_vsw_variant>  (790) 
82402-1

>  <r_epik_Charging_Adjusted_Penalty>  (790) 
0.245671248291747

>  <r_epik_Ionization_Penalty>  (790) 
0.20830000000000001

>  <r_epik_Ionization_Penalty_Charging>  (790) 
0.038699999999999998

>  <r_epik_Ionization_Penalty_Neutral>  (790) 
0.1696

>  <r_epik_State_Penalty>  (790) 
0.20699999999999999

>  <r_i_docking_score>  (790) 
-3.8529847389376402

>  <r_i_glide_ecoul>  (790) 
-4.7726550102233896

>  <r_i_glide_eff_state_penalty>  (790) 
0.20699999999999999

>  <r_i_glide_einternal>  (790) 
4.7685804367065403

>  <r_i_glide_emodel>  (790) 
-51.737395267744603

>  <r_i_glide_energy>  (790) 
-40.357005596160903

>  <r_i_glide_erotb>  (790) 
0.61929813176120196

>  <r_i_glide_esite>  (790) 
-0.10085015224444201

>  <r_i_glide_evdw>  (790) 
-35.5843505859375

>  <r_i_glide_gscore>  (790) 
-4.05998473893764

>  <r_i_glide_hbond>  (790) 
-0.149637987965029

>  <r_i_glide_ligand_efficiency>  (790) 
-0.107027353859379

>  <r_i_glide_ligand_efficiency_ln>  (790) 
-0.84061717441827699

>  <r_i_glide_ligand_efficiency_sa>  (790) 
-0.35339653566323598

>  <r_i_glide_lipo>  (790) 
-1.48082344443321

>  <r_i_glide_metal>  (790) 
-0

>  <r_i_glide_rewards>  (790) 
-0.452855505225779

>  <r_lp_Energy>  (790) 
52.806080000000001

>  <r_qp_ACxDN^.5/SA>  (790) 
0.010665900000000001

>  <r_qp_CIQPlogS>  (790) 
-6.9809999999999999

>  <r_qp_EA(eV)>  (790) 
1.224

>  <r_qp_FISA>  (790) 
88.408000000000001

>  <r_qp_FOSA>  (790) 
214.68199999999999

>  <r_qp_IP(eV)>  (790) 
8.8770000000000007

>  <r_qp_Jm>  (790) 
0.0087749129846182005

>  <r_qp_PISA>  (790) 
446.96499999999997

>  <r_qp_PSA>  (790) 
67.600999999999999

>  <r_qp_PercentHumanOralAbsorption>  (790) 
100

>  <r_qp_QPPCaco>  (790) 
358.45100000000002

>  <r_qp_QPPMDCK>  (790) 
180.56

>  <r_qp_QPlogBB>  (790) 
-0.48099999999999998

>  <r_qp_QPlogHERG>  (790) 
-7.0229999999999997

>  <r_qp_QPlogKhsa>  (790) 
0.627

>  <r_qp_QPlogKp>  (790) 
-2.677

>  <r_qp_QPlogPC16>  (790) 
15.851000000000001

>  <r_qp_QPlogPo/w>  (790) 
4.6109999999999998

>  <r_qp_QPlogPoct>  (790) 
23.245999999999999

>  <r_qp_QPlogPw>  (790) 
12.304

>  <r_qp_QPlogS>  (790) 
-5.0590000000000002

>  <r_qp_QPpolrz>  (790) 
50.914000000000001

>  <r_qp_SASA>  (790) 
750.05499999999995

>  <r_qp_SAamideO>  (790) 
0

>  <r_qp_SAfluorine>  (790) 
0

>  <r_qp_WPSA>  (790) 
0

>  <r_qp_accptHB>  (790) 
8

>  <r_qp_dip^2/V>  (790) 
0.026391700000000001

>  <r_qp_dipole>  (790) 
6.2489999999999997

>  <r_qp_donorHB>  (790) 
1

>  <r_qp_glob>  (790) 
0.83727940000000001

>  <r_qp_mol_MW>  (790) 
477.608

>  <r_qp_volume>  (790) 
1479.7809999999999

>  <r_sd_BIOSOLVEIT.INFINISEE\_FTREES\_SIMILARITY>  (790) 
0.91200000000000003

>  <r_sd_BIOSOLVEIT.LOGP>  (790) 
4.5403799999999999

>  <r_sd_BIOSOLVEIT.MOLECULAR\_WEIGHT>  (790) 
478.61700000000002

>  <r_sd_BIOSOLVEIT.TPSA>  (790) 
73.459999999999994

>  <i_epik_Tot_Q>  (790) 
1

>  <i_epik_Tot_abs_Q>  (790) 
1

>  <i_f3d_flags>  (790) 
0

>  <i_i_glide_confnum>  (790) 
6

>  <i_i_glide_lignum>  (790) 
1146

>  <i_i_glide_posenum>  (790) 
10

>  <i_i_glide_rotatable_bonds>  (790) 
10

>  <i_lp_mmshare_version>  (790) 
65135

>  <i_m_ct_format>  (790) 
2

>  <i_m_source_file_index>  (790) 
2576

>  <i_qp_#NandO>  (790) 
6

>  <i_qp_#acid>  (790) 
0

>  <i_qp_#amide>  (790) 
0

>  <i_qp_#amidine>  (790) 
0

>  <i_qp_#amine>  (790) 
1

>  <i_qp_#in34>  (790) 
0

>  <i_qp_#in56>  (790) 
22

>  <i_qp_#metab>  (790) 
7

>  <i_qp_#nonHatm>  (790) 
36

>  <i_qp_#noncon>  (790) 
0

>  <i_qp_#ringatoms>  (790) 
22

>  <i_qp_#rotor>  (790) 
10

>  <i_qp_#rtvFG>  (790) 
0

>  <i_qp_#stars>  (790) 
0

>  <i_qp_CNS>  (790) 
1

>  <i_qp_HumanOralAbsorption>  (790) 
3

>  <i_qp_RuleOfFive>  (790) 
0

>  <i_qp_RuleOfThree>  (790) 
1

>  <i_sd_BIOSOLVEIT.INFINISEE\_RESULT\_RANK>  (790) 
38601

>  <i_sd_version>  (790) 
0

>  <b_lp_Chiralities_Consistent>  (790) 
1

>  <b_sd_chiral_flag>  (790) 
0

>  <canonical_id>  (790) 
ATP-HTVS-7C2D6468D489

>  <compound_code>  (790) 
82402

>  <title>  (790) 
rxn502b____EMOL5759977____EMOL30488121____EMOL24630243

>  <variant>  (790) 
82402-1

>  <source_file>  (790) 
运行/运行/ATP-VSW/ATP-VSW-DOCK_HTVS_1-002_lib.maegz

>  <canonical_smiles>  (790) 
CCN(CC)[C@@H](C(=O)Nc1c[nH+]c2ccccc2c1N(C)[C@@H](C#N)c1ccccc1)c1ccccc1

>  <scaffold>  (790) 
O=C(Cc1ccccc1)Nc1c[nH+]c2ccccc2c1NCc1ccccc1

>  <molecular_formula>  (790) 
C30H32N5O+

$$$$
ATP-HTVS-7C58C2B4F3B5
     RDKit          3D

 53 55  0  0  0  0  0  0  0  0999 V2000
  197.9291  183.8469  144.2055 O   0  0  0  0  0  0  0  0  0  0  0  0
  198.3378  184.2270  145.4513 C   0  0  0  0  0  0  0  0  0  0  0  0
  197.3916  184.6368  146.4068 C   0  0  0  0  0  0  0  0  0  0  0  0
  197.8029  185.0030  147.7034 C   0  0  0  0  0  0  0  0  0  0  0  0
  199.1700  184.9944  148.0688 C   0  0  0  0  0  0  0  0  0  0  0  0
  199.6211  185.4052  149.4235 C   0  0  0  0  0  0  0  0  0  0  0  0
  198.8359  186.2551  150.2296 C   0  0  0  0  0  0  0  0  0  0  0  0
  199.2099  186.7119  151.4423 N   0  0  0  0  0  0  0  0  0  0  0  0
  200.3710  186.2724  151.9564 C   0  0  0  0  0  0  0  0  0  0  0  0
  201.2327  185.4076  151.2568 C   0  0  0  0  0  0  0  0  0  0  0  0
  200.8564  184.9777  149.9701 C   0  0  0  0  0  0  0  0  0  0  0  0
  200.6725  186.7104  153.3796 C   0  0  1  0  0  0  0  0  0  0  0  0
  199.9584  185.8756  154.3748 N   0  0  1  0  0  0  0  0  0  0  0  0
  198.4867  186.0405  154.4158 C   0  0  1  0  0  0  0  0  0  0  0  0
  197.8798  185.0191  155.3388 C   0  0  0  0  0  0  0  0  0  0  0  0
  197.6952  185.3214  156.6982 C   0  0  0  0  0  0  0  0  0  0  0  0
  197.1069  184.3727  157.5512 C   0  0  0  0  0  0  0  0  0  0  0  0
  196.6597  183.1333  157.0390 C   0  0  0  0  0  0  0  0  0  0  0  0
  196.8532  182.8291  155.6712 C   0  0  0  0  0  0  0  0  0  0  0  0
  197.4688  183.7709  154.8265 C   0  0  0  0  0  0  0  0  0  0  0  0
  195.9693  182.1305  157.9491 C   0  0  1  0  0  0  0  0  0  0  0  0
  194.5174  182.4053  158.1325 N   0  0  1  0  0  0  0  0  0  0  0  0
  193.8230  181.2449  158.7192 C   0  0  2  0  0  0  0  0  0  0  0  0
  194.2219  183.6483  158.8902 C   0  0  2  0  0  0  0  0  0  0  0  0
  200.1093  184.5928  147.0848 C   0  0  0  0  0  0  0  0  0  0  0  0
  199.7018  184.2076  145.7928 C   0  0  0  0  0  0  0  0  0  0  0  0
  200.1760  184.9042  154.2065 H   0  0  0  0  0  0  0  0  0  0  0  0
  198.6289  183.4845  143.6826 H   0  0  0  0  0  0  0  0  0  0  0  0
  196.3417  184.6519  146.1578 H   0  0  0  0  0  0  0  0  0  0  0  0
  197.0292  185.2951  148.3988 H   0  0  0  0  0  0  0  0  0  0  0  0
  197.8810  186.6331  149.8977 H   0  0  0  0  0  0  0  0  0  0  0  0
  202.1580  185.0564  151.6839 H   0  0  0  0  0  0  0  0  0  0  0  0
  201.5178  184.3170  149.4269 H   0  0  0  0  0  0  0  0  0  0  0  0
  201.7476  186.6247  153.5514 H   0  0  0  0  0  0  0  0  0  0  0  0
  200.4137  187.7636  153.5073 H   0  0  0  0  0  0  0  0  0  0  0  0
  198.2336  187.0536  154.7316 H   0  0  0  0  0  0  0  0  0  0  0  0
  198.0007  185.8611  153.4594 H   0  0  0  0  0  0  0  0  0  0  0  0
  197.9768  186.2898  157.0872 H   0  0  0  0  0  0  0  0  0  0  0  0
  196.9627  184.6186  158.5950 H   0  0  0  0  0  0  0  0  0  0  0  0
  196.5034  181.8909  155.2565 H   0  0  0  0  0  0  0  0  0  0  0  0
  197.5815  183.5402  153.7765 H   0  0  0  0  0  0  0  0  0  0  0  0
  196.1037  181.1555  157.4778 H   0  0  0  0  0  0  0  0  0  0  0  0
  196.4895  182.0863  158.9051 H   0  0  0  0  0  0  0  0  0  0  0  0
  194.2242  181.0449  159.7091 H   0  0  0  0  0  0  0  0  0  0  0  0
  193.9457  180.3621  158.1023 H   0  0  0  0  0  0  0  0  0  0  0  0
  192.7513  181.4226  158.7994 H   0  0  0  0  0  0  0  0  0  0  0  0
  194.6774  183.6228  159.8784 H   0  0  0  0  0  0  0  0  0  0  0  0
  193.1483  183.7895  159.0144 H   0  0  0  0  0  0  0  0  0  0  0  0
  194.5814  184.5365  158.3678 H   0  0  0  0  0  0  0  0  0  0  0  0
  201.1688  184.5848  147.2919 H   0  0  0  0  0  0  0  0  0  0  0  0
  200.4478  183.8962  145.0703 H   0  0  0  0  0  0  0  0  0  0  0  0
  194.1405  182.5352  157.1928 H   0  0  0  0  0  0  0  0  0  0  0  0
  200.3201  186.1097  155.2862 H   0  0  0  0  0  0  0  0  0  0  0  0
  1  2  1  0
  1 28  1  0
  2  3  1  0
  2 26  2  0
  3  4  2  0
  3 29  1  0
  4  5  1  0
  4 30  1  0
  5  6  1  0
  5 25  2  0
  6  7  1  0
  6 11  2  0
  7  8  2  0
  7 31  1  0
  8  9  1  0
  9 10  2  0
  9 12  1  0
 10 11  1  0
 10 32  1  0
 11 33  1  0
 12 13  1  0
 12 34  1  1
 12 35  1  0
 13 14  1  0
 13 27  1  6
 13 53  1  0
 14 15  1  0
 14 36  1  1
 14 37  1  0
 15 16  1  0
 15 20  2  0
 16 17  2  0
 16 38  1  0
 17 18  1  0
 17 39  1  0
 18 19  2  0
 18 21  1  0
 19 20  1  0
 19 40  1  0
 20 41  1  0
 21 22  1  0
 21 42  1  6
 21 43  1  0
 22 23  1  0
 22 24  1  0
 22 52  1  6
 23 44  1  1
 23 45  1  0
 23 46  1  0
 24 47  1  1
 24 48  1  0
 24 49  1  0
 25 26  1  0
 25 50  1  0
 26 51  1  0
M  CHG  2  13   1  22   1
M  END
>  <s_epik_cmdline>  (791) 
J2VwaWtfcHl0aG9uJywgJy1waCcsICc3LjAwMDAwMCcsICctcGh0JywgJzIuMDAwMDAwJywgJy1tcycsICcxNicsICctdG4nLCAnOCcsICctbWEnLCAnMjAwJywgJy1pbWFlJywgJzxpbmZpbGUubWFlPicsICctb21hZScsICc8b3V0ZmlsZS5tYWU+Jw==

>  <s_epik_input>  (791) 
W09IXWMxW2NIXVtjSF1jKFtjSF1bY0hdMSktYzJbY0hdbmMoW2NIXVtjSF0yKVtDSDJdW05IXVtDSDJdYzNbY0hdW2NIXWMoW2NIXVtjSF0zKVtDSDJdTihbQ0gzXSlbQ0gzXQ==

>  <s_i_glide_gridfile>  (791) 
ATP-Grid

>  <s_lp_Force_Field>  (791) 
OPLS_2005

>  <s_lp_Variant>  (791) 
WXDL_15E____QS5063____LN00174727____BT0555-1

>  <s_lp_label>  (791) 
627_sdstereoexpander_1_neutralizer_1_epik_1_stereoizer_1

>  <s_m_source_file>  (791) 
ATP-VSW-LIGPREP-003-in.maegz

>  <s_sd_BIOSOLVEIT.INFINISEE\_QUERY\_NAME>  (791) 
Ref-Lig

>  <s_sd_BIOSOLVEIT.INFINISEE\_QUERY\_SMILES>  (791) 
S(c1nc2c(cc1C[NH2+]Cc3ccc(cc3)C[NH+](C)C)cccc2)Cc4ccccc4

>  <s_sd_BIOSOLVEIT.INFINISEE\_REACTION\_NAME>  (791) 
WXDL_15E

>  <s_sd_BIOSOLVEIT.INFINISEE\_REAGENT1\_NAME>  (791) 
QS5063

>  <s_sd_BIOSOLVEIT.INFINISEE\_REAGENT1\_SMILES>  (791) 
O=Cc1ccc(cc1)CN(C)C

>  <s_sd_BIOSOLVEIT.INFINISEE\_REAGENT2\_NAME>  (791) 
LN00174727

>  <s_sd_BIOSOLVEIT.INFINISEE\_REAGENT2\_SMILES>  (791) 
Brc1cnc(cc1)CNC(=O)OC(C)(C)C

>  <s_sd_BIOSOLVEIT.INFINISEE\_REAGENT3\_NAME>  (791) 
BT0555

>  <s_sd_BIOSOLVEIT.INFINISEE\_REAGENT3\_SMILES>  (791) 
Oc1ccc(cc1)B(O)O

>  <s_sd_BIOSOLVEIT.INFINISEE\_SPACE>  (791) 
GalaXi_12bn_2023-03

>  <s_vsw_compound_code>  (791) 
20035

>  <s_vsw_variant>  (791) 
20035-1

>  <r_epik_Charging_Adjusted_Penalty>  (791) 
0.34013417973843102

>  <r_epik_Ionization_Penalty>  (791) 
0.17000000000000001

>  <r_epik_Ionization_Penalty_Charging>  (791) 
0.16889999999999999

>  <r_epik_Ionization_Penalty_Neutral>  (791) 
0.0011000000000000001

>  <r_epik_State_Penalty>  (791) 
0.17119999999999999

>  <r_i_docking_score>  (791) 
-4.3767713205880296

>  <r_i_glide_ecoul>  (791) 
-12.596016883850099

>  <r_i_glide_eff_state_penalty>  (791) 
0.17119999999999999

>  <r_i_glide_einternal>  (791) 
1.3928517103195199

>  <r_i_glide_emodel>  (791) 
-53.2794239208948

>  <r_i_glide_energy>  (791) 
-37.050644874572797

>  <r_i_glide_erotb>  (791) 
0.93585446189056398

>  <r_i_glide_esite>  (791) 
-0.10000000000000001

>  <r_i_glide_evdw>  (791) 
-24.454627990722699

>  <r_i_glide_gscore>  (791) 
-4.5479713205880303

>  <r_i_glide_hbond>  (791) 
-0.288938294119016

>  <r_i_glide_ligand_efficiency>  (791) 
-0.16833735848415499

>  <r_i_glide_ligand_efficiency_ln>  (791) 
-1.02787038328203

>  <r_i_glide_ligand_efficiency_sa>  (791) 
-0.498698762133789

>  <r_i_glide_lipo>  (791) 
-0.95640773806411805

>  <r_i_glide_metal>  (791) 
-0

>  <r_i_glide_rewards>  (791) 
-1.0263458181818199

>  <r_lp_Energy>  (791) 
16.038578999999999

>  <r_lp_tautomer_probability>  (791) 
0.999999999997365

>  <r_qp_ACxDN^.5/SA>  (791) 
0.0102571

>  <r_qp_CIQPlogS>  (791) 
-3.1120000000000001

>  <r_qp_EA(eV)>  (791) 
0.51400000000000001

>  <r_qp_FISA>  (791) 
86.085999999999999

>  <r_qp_FOSA>  (791) 
253.03700000000001

>  <r_qp_IP(eV)>  (791) 
8.8629999999999995

>  <r_qp_Jm>  (791) 
0.00058473742779396496

>  <r_qp_PISA>  (791) 
384.73099999999999

>  <r_qp_PSA>  (791) 
53.631

>  <r_qp_PercentHumanOralAbsorption>  (791) 
82.978999999999999

>  <r_qp_QPPCaco>  (791) 
94.046999999999997

>  <r_qp_QPPMDCK>  (791) 
47.033999999999999

>  <r_qp_QPlogBB>  (791) 
-0.078

>  <r_qp_QPlogHERG>  (791) 
-8.4670000000000005

>  <r_qp_QPlogKhsa>  (791) 
0.57299999999999995

>  <r_qp_QPlogKp>  (791) 
-5.1079999999999997

>  <r_qp_QPlogPC16>  (791) 
13.698

>  <r_qp_QPlogPo/w>  (791) 
3.5379999999999998

>  <r_qp_QPlogPoct>  (791) 
19.460999999999999

>  <r_qp_QPlogPw>  (791) 
10.999000000000001

>  <r_qp_QPlogS>  (791) 
-3.6659999999999999

>  <r_qp_QPpolrz>  (791) 
42.338000000000001

>  <r_qp_SASA>  (791) 
723.85500000000002

>  <r_qp_SAamideO>  (791) 
0

>  <r_qp_SAfluorine>  (791) 
0

>  <r_qp_WPSA>  (791) 
0

>  <r_qp_accptHB>  (791) 
5.25

>  <r_qp_dip^2/V>  (791) 
0.0017608999999999999

>  <r_qp_dipole>  (791) 
1.4830000000000001

>  <r_qp_donorHB>  (791) 
2

>  <r_qp_glob>  (791) 
0.77454579999999995

>  <r_qp_mol_MW>  (791) 
347.459

>  <r_qp_volume>  (791) 
1248.2460000000001

>  <r_sd_BIOSOLVEIT.INFINISEE\_FTREES\_SIMILARITY>  (791) 
0.91700000000000004

>  <r_sd_BIOSOLVEIT.LOGP>  (791) 
1.3623000000000001

>  <r_sd_BIOSOLVEIT.MOLECULAR\_WEIGHT>  (791) 
349.47500000000002

>  <r_sd_BIOSOLVEIT.TPSA>  (791) 
54.170000000000002

>  <i_epik_Tot_Q>  (791) 
2

>  <i_epik_Tot_abs_Q>  (791) 
2

>  <i_f3d_flags>  (791) 
0

>  <i_i_glide_confnum>  (791) 
6

>  <i_i_glide_lignum>  (791) 
253

>  <i_i_glide_posenum>  (791) 
12

>  <i_i_glide_rotatable_bonds>  (791) 
8

>  <i_lp_mmshare_version>  (791) 
65135

>  <i_m_ct_format>  (791) 
2

>  <i_m_source_file_index>  (791) 
627

>  <i_qp_#NandO>  (791) 
4

>  <i_qp_#acid>  (791) 
0

>  <i_qp_#amide>  (791) 
0

>  <i_qp_#amidine>  (791) 
0

>  <i_qp_#amine>  (791) 
2

>  <i_qp_#in34>  (791) 
0

>  <i_qp_#in56>  (791) 
18

>  <i_qp_#metab>  (791) 
7

>  <i_qp_#nonHatm>  (791) 
26

>  <i_qp_#noncon>  (791) 
0

>  <i_qp_#ringatoms>  (791) 
18

>  <i_qp_#rotor>  (791) 
8

>  <i_qp_#rtvFG>  (791) 
0

>  <i_qp_#stars>  (791) 
0

>  <i_qp_CNS>  (791) 
1

>  <i_qp_HumanOralAbsorption>  (791) 
2

>  <i_qp_RuleOfFive>  (791) 
0

>  <i_qp_RuleOfThree>  (791) 
1

>  <i_sd_BIOSOLVEIT.INFINISEE\_RESULT\_RANK>  (791) 
24093

>  <i_sd_version>  (791) 
0

>  <b_lp_Chiralities_Consistent>  (791) 
1

>  <b_sd_chiral_flag>  (791) 
0

>  <canonical_id>  (791) 
ATP-HTVS-7C58C2B4F3B5

>  <compound_code>  (791) 
20035

>  <title>  (791) 
WXDL_15E____QS5063____LN00174727____BT0555

>  <variant>  (791) 
20035-1

>  <source_file>  (791) 
运行/运行/ATP-VSW/ATP-VSW-DOCK_HTVS_1-003_lib/ATP-VSW-DOCK_HTVS_1-003_lib.mae

>  <canonical_smiles>  (791) 
C[NH+](C)Cc1ccc(C[NH2+]Cc2ccc(-c3ccc(O)cc3)cn2)cc1

>  <scaffold>  (791) 
c1ccc(C[NH2+]Cc2ccc(-c3ccccc3)cn2)cc1

>  <molecular_formula>  (791) 
C22H27N3O+2

$$$$
ATP-HTVS-7C6049B0D6CE
     RDKit          3D

 47 50  0  0  0  0  0  0  0  0999 V2000
  203.5526  183.2837  162.1480 Cl  0  0  0  0  0  0  0  0  0  0  0  0
  202.8864  184.7364  161.5095 C   0  0  0  0  0  0  0  0  0  0  0  0
  201.9202  184.6458  160.5156 C   0  0  0  0  0  0  0  0  0  0  0  0
  201.3328  185.8013  159.9387 C   0  0  0  0  0  0  0  0  0  0  0  0
  201.7576  187.0771  160.3969 C   0  0  0  0  0  0  0  0  0  0  0  0
  202.7580  187.1680  161.3978 C   0  0  0  0  0  0  0  0  0  0  0  0
  203.3253  185.9990  161.9641 C   0  0  0  0  0  0  0  0  0  0  0  0
  200.3093  185.7334  158.8081 C   0  0  2  0  0  0  0  0  0  0  0  0
  199.0970  184.9245  159.1189 N   0  0  0  0  0  0  0  0  0  0  0  0
  197.8906  185.4140  158.4114 C   0  0  1  0  0  0  0  0  0  0  0  0
  196.6360  184.5203  158.5585 C   0  0  0  0  0  0  0  0  0  0  0  0
  196.6114  183.2158  157.9801 C   0  0  0  0  0  0  0  0  0  0  0  0
  197.7162  182.6731  157.2851 N   0  0  0  0  0  0  0  0  0  0  0  0
  198.9754  182.7547  157.7062 C   0  0  0  0  0  0  0  0  0  0  0  0
  199.8793  182.2571  157.0451 O   0  0  0  0  0  0  0  0  0  0  0  0
  199.2764  183.4453  159.0402 C   0  0  1  0  0  0  0  0  0  0  0  0
  195.4543  182.4195  158.0744 C   0  0  0  0  0  0  0  0  0  0  0  0
  194.3110  182.9060  158.7229 C   0  0  0  0  0  0  0  0  0  0  0  0
  194.3219  184.1859  159.2996 C   0  0  0  0  0  0  0  0  0  0  0  0
  195.4629  184.9821  159.2123 C   0  0  0  0  0  0  0  0  0  0  0  0
  197.5661  186.8681  158.7732 C   0  0  0  0  0  0  0  0  0  0  0  0
  197.4622  187.8468  157.7598 C   0  0  0  0  0  0  0  0  0  0  0  0
  197.1528  189.1817  158.1117 C   0  0  0  0  0  0  0  0  0  0  0  0
  196.9371  189.5391  159.4492 C   0  0  0  0  0  0  0  0  0  0  0  0
  197.0497  188.5711  160.4696 C   0  0  0  0  0  0  0  0  0  0  0  0
  197.3729  187.2496  160.1193 C   0  0  0  0  0  0  0  0  0  0  0  0
  200.9576  185.4007  157.5250 C   0  0  0  0  0  0  0  0  0  0  0  0
  201.4783  185.0219  156.4850 C   0  0  0  0  0  0  0  0  0  0  0  0
  201.7290  183.6357  160.2413 H   0  0  0  0  0  0  0  0  0  0  0  0
  201.3464  187.9875  159.9768 H   0  0  0  0  0  0  0  0  0  0  0  0
  203.0987  188.1498  161.7337 H   0  0  0  0  0  0  0  0  0  0  0  0
  204.0886  186.0544  162.7235 H   0  0  0  0  0  0  0  0  0  0  0  0
  200.0283  186.7789  158.6354 H   0  0  0  0  0  0  0  0  0  0  0  0
  198.1260  185.4057  157.3404 H   0  0  0  0  0  0  0  0  0  0  0  0
  197.5355  182.0514  156.4996 H   0  0  0  0  0  0  0  0  0  0  0  0
  200.3038  183.1522  159.1497 H   0  0  0  0  0  0  0  0  0  0  0  0
  198.7308  182.9726  159.8611 H   0  0  0  0  0  0  0  0  0  0  0  0
  195.4420  181.4369  157.6240 H   0  0  0  0  0  0  0  0  0  0  0  0
  193.4111  182.3143  158.7540 H   0  0  0  0  0  0  0  0  0  0  0  0
  193.4517  184.5985  159.7805 H   0  0  0  0  0  0  0  0  0  0  0  0
  195.3538  185.9653  159.6385 H   0  0  0  0  0  0  0  0  0  0  0  0
  197.6115  187.5760  156.7211 H   0  0  0  0  0  0  0  0  0  0  0  0
  197.0813  189.9294  157.3365 H   0  0  0  0  0  0  0  0  0  0  0  0
  196.6759  190.5535  159.7136 H   0  0  0  0  0  0  0  0  0  0  0  0
  196.8683  188.8196  161.5043 H   0  0  0  0  0  0  0  0  0  0  0  0
  197.4504  186.4874  160.8847 H   0  0  0  0  0  0  0  0  0  0  0  0
  201.8759  184.5399  155.6208 H   0  0  0  0  0  0  0  0  0  0  0  0
  1  2  1  0
  2  3  2  0
  2  7  1  0
  3  4  1  0
  3 29  1  0
  4  5  2  0
  4  8  1  0
  5  6  1  0
  5 30  1  0
  6  7  2  0
  6 31  1  0
  7 32  1  0
  8  9  1  0
  8 27  1  0
  8 33  1  6
  9 10  1  0
  9 16  1  0
 10 11  1  0
 10 21  1  0
 10 34  1  6
 11 12  1  0
 11 20  2  0
 12 13  1  0
 12 17  2  0
 13 14  1  0
 13 35  1  0
 14 15  2  0
 14 16  1  0
 16 36  1  1
 16 37  1  0
 17 18  1  0
 17 38  1  0
 18 19  2  0
 18 39  1  0
 19 20  1  0
 19 40  1  0
 20 41  1  0
 21 22  2  0
 21 26  1  0
 22 23  1  0
 22 42  1  0
 23 24  2  0
 23 43  1  0
 24 25  1  0
 24 44  1  0
 25 26  2  0
 25 45  1  0
 26 46  1  0
 27 28  3  0
 28 47  1  0
M  END
>  <s_epik_cmdline>  (792) 
J2VwaWtfcHl0aG9uJywgJy1waCcsICc3LjAwMDAwMCcsICctcGh0JywgJzIuMDAwMDAwJywgJy1tcycsICcxNicsICctdG4nLCAnOCcsICctbWEnLCAnMjAwJywgJy1pbWFlJywgJzxpbmZpbGUubWFlPicsICctb21hZScsICc8b3V0ZmlsZS5tYWU+Jw==

>  <s_epik_input>  (792) 
W2NIXTFbY0hdW2NIXVtjSF1bY0hdYzFbQ0BIXTJOKFtDQEhdKEMjW0NIXSljKFtjSF1jM0NsKVtjSF1bY0hdW2NIXTMpW0NIMl1DKD1PKVtOSF1jKGMyNClbY0hdW2NIXVtjSF1bY0hdNA==

>  <s_i_glide_gridfile>  (792) 
ATP-Grid

>  <s_lp_Force_Field>  (792) 
OPLS_2005

>  <s_lp_Variant>  (792) 
rxn207____EMOL41348147____EMOL6185419-1

>  <s_lp_label>  (792) 
2287_sdstereoexpander_1_neutralizer_1_epik_1_stereoizer_1

>  <s_m_source_file>  (792) 
ATP-VSW-LIGPREP-002-in.maegz

>  <s_sd_BIOSOLVEIT.INFINISEE\_QUERY\_NAME>  (792) 
Ref-Lig

>  <s_sd_BIOSOLVEIT.INFINISEE\_QUERY\_SMILES>  (792) 
S(c1nc2c(cc1C[NH2+]Cc3ccc(cc3)C[NH+](C)C)cccc2)Cc4ccccc4

>  <s_sd_BIOSOLVEIT.INFINISEE\_REACTION\_NAME>  (792) 
rxn207

>  <s_sd_BIOSOLVEIT.INFINISEE\_REAGENT1\_NAME>  (792) 
EMOL41348147

>  <s_sd_BIOSOLVEIT.INFINISEE\_REAGENT1\_SMILES>  (792) 
Clc1cc(ccc1)C(=O)C#C

>  <s_sd_BIOSOLVEIT.INFINISEE\_REAGENT2\_NAME>  (792) 
EMOL6185419

>  <s_sd_BIOSOLVEIT.INFINISEE\_REAGENT2\_SMILES>  (792) 
O=C1Nc2c(cccc2)C(NC1)c3ccccc3

>  <s_sd_BIOSOLVEIT.INFINISEE\_SPACE>  (792) 
eXplore_7tr_2022-12

>  <s_vsw_compound_code>  (792) 
73154

>  <s_vsw_variant>  (792) 
73154-1

>  <r_epik_Charging_Adjusted_Penalty>  (792) 
0

>  <r_epik_Ionization_Penalty>  (792) 
0.0001

>  <r_epik_Ionization_Penalty_Charging>  (792) 
0

>  <r_epik_Ionization_Penalty_Neutral>  (792) 
0.0001

>  <r_epik_State_Penalty>  (792) 
-0

>  <r_i_docking_score>  (792) 
-1.44991480964365

>  <r_i_glide_ecoul>  (792) 
-1.48590576648712

>  <r_i_glide_eff_state_penalty>  (792) 
-0

>  <r_i_glide_einternal>  (792) 
2.0363228321075399

>  <r_i_glide_emodel>  (792) 
-32.588085024863602

>  <r_i_glide_energy>  (792) 
-30.799262166023301

>  <r_i_glide_erotb>  (792) 
0.52028540243666999

>  <r_i_glide_esite>  (792) 
-0.0295384089726793

>  <r_i_glide_evdw>  (792) 
-29.313356399536101

>  <r_i_glide_gscore>  (792) 
-1.44991480964365

>  <r_i_glide_hbond>  (792) 
0

>  <r_i_glide_ligand_efficiency>  (792) 
-0.051782671772987503

>  <r_i_glide_ligand_efficiency_ln>  (792) 
-0.33468290941440598

>  <r_i_glide_ligand_efficiency_sa>  (792) 
-0.157242689865456

>  <r_i_glide_lipo>  (792) 
-1.3917986777331799

>  <r_i_glide_metal>  (792) 
-0

>  <r_i_glide_rewards>  (792) 
1.1396905595754201

>  <r_lp_Energy>  (792) 
40.131700000000002

>  <r_lp_tautomer_probability>  (792) 
1

>  <r_qp_ACxDN^.5/SA>  (792) 
0.0084233999999999993

>  <r_qp_CIQPlogS>  (792) 
-5.1429999999999998

>  <r_qp_EA(eV)>  (792) 
0.34699999999999998

>  <r_qp_FISA>  (792) 
68.063000000000002

>  <r_qp_FOSA>  (792) 
65.278999999999996

>  <r_qp_IP(eV)>  (792) 
8.9909999999999997

>  <r_qp_Jm>  (792) 
0.0035225822323889299

>  <r_qp_PISA>  (792) 
452.96600000000001

>  <r_qp_PSA>  (792) 
42.320999999999998

>  <r_qp_PercentHumanOralAbsorption>  (792) 
100

>  <r_qp_QPPCaco>  (792) 
558.92899999999997

>  <r_qp_QPPMDCK>  (792) 
687.97199999999998

>  <r_qp_QPlogBB>  (792) 
0.28899999999999998

>  <r_qp_QPlogHERG>  (792) 
-7.1710000000000003

>  <r_qp_QPlogKhsa>  (792) 
0.82899999999999996

>  <r_qp_QPlogKp>  (792) 
-2.9529999999999998

>  <r_qp_QPlogPC16>  (792) 
13.762

>  <r_qp_QPlogPo/w>  (792) 
4.5810000000000004

>  <r_qp_QPlogPoct>  (792) 
19.760000000000002

>  <r_qp_QPlogPw>  (792) 
10.829000000000001

>  <r_qp_QPlogS>  (792) 
-5.0880000000000001

>  <r_qp_QPpolrz>  (792) 
43.859999999999999

>  <r_qp_SASA>  (792) 
654.29300000000001

>  <r_qp_SAamideO>  (792) 
0

>  <r_qp_SAfluorine>  (792) 
0

>  <r_qp_WPSA>  (792) 
67.983999999999995

>  <r_qp_accptHB>  (792) 
4.5

>  <r_qp_dip^2/V>  (792) 
0.012951600000000001

>  <r_qp_dipole>  (792) 
3.9249999999999998

>  <r_qp_donorHB>  (792) 
1.5

>  <r_qp_glob>  (792) 
0.82991340000000002

>  <r_qp_mol_MW>  (792) 
386.88

>  <r_qp_volume>  (792) 
1189.7629999999999

>  <r_sd_BIOSOLVEIT.INFINISEE\_FTREES\_SIMILARITY>  (792) 
0.92400000000000004

>  <r_sd_BIOSOLVEIT.LOGP>  (792) 
3.6408999999999998

>  <r_sd_BIOSOLVEIT.MOLECULAR\_WEIGHT>  (792) 
387.88799999999998

>  <r_sd_BIOSOLVEIT.TPSA>  (792) 
33.539999999999999

>  <i_epik_Tot_Q>  (792) 
0

>  <i_epik_Tot_abs_Q>  (792) 
0

>  <i_f3d_flags>  (792) 
0

>  <i_i_glide_confnum>  (792) 
4

>  <i_i_glide_lignum>  (792) 
915

>  <i_i_glide_posenum>  (792) 
10

>  <i_i_glide_rotatable_bonds>  (792) 
4

>  <i_lp_mmshare_version>  (792) 
65135

>  <i_m_ct_format>  (792) 
2

>  <i_m_source_file_index>  (792) 
2287

>  <i_qp_#NandO>  (792) 
3

>  <i_qp_#acid>  (792) 
0

>  <i_qp_#amide>  (792) 
0

>  <i_qp_#amidine>  (792) 
0

>  <i_qp_#amine>  (792) 
1

>  <i_qp_#in34>  (792) 
0

>  <i_qp_#in56>  (792) 
18

>  <i_qp_#metab>  (792) 
8

>  <i_qp_#nonHatm>  (792) 
28

>  <i_qp_#noncon>  (792) 
2

>  <i_qp_#ringatoms>  (792) 
23

>  <i_qp_#rotor>  (792) 
3

>  <i_qp_#rtvFG>  (792) 
0

>  <i_qp_#stars>  (792) 
1

>  <i_qp_CNS>  (792) 
1

>  <i_qp_HumanOralAbsorption>  (792) 
3

>  <i_qp_RuleOfFive>  (792) 
0

>  <i_qp_RuleOfThree>  (792) 
1

>  <i_sd_BIOSOLVEIT.INFINISEE\_RESULT\_RANK>  (792) 
10659

>  <i_sd_version>  (792) 
0

>  <b_lp_Chiralities_Consistent>  (792) 
1

>  <b_sd_chiral_flag>  (792) 
0

>  <canonical_id>  (792) 
ATP-HTVS-7C6049B0D6CE

>  <compound_code>  (792) 
73154

>  <title>  (792) 
rxn207____EMOL41348147____EMOL6185419

>  <variant>  (792) 
73154-1

>  <source_file>  (792) 
运行/运行/ATP-VSW/ATP-VSW-DOCK_HTVS_1-002_lib.maegz

>  <canonical_smiles>  (792) 
C#C[C@H](c1cccc(Cl)c1)N1CC(=O)Nc2ccccc2[C@H]1c1ccccc1

>  <scaffold>  (792) 
O=C1CN(Cc2ccccc2)C(c2ccccc2)c2ccccc2N1

>  <molecular_formula>  (792) 
C24H19ClN2O

$$$$
ATP-HTVS-7C6F09AC1D4C
     RDKit          3D

 61 64  0  0  0  0  0  0  0  0999 V2000
  199.5637  182.7564  154.5433 O   0  0  0  0  0  0  0  0  0  0  0  0
  198.4596  182.9478  155.0578 C   0  0  0  0  0  0  0  0  0  0  0  0
  197.4614  182.0354  154.9462 N   0  0  0  0  0  0  0  0  0  0  0  0
  197.2569  181.3264  153.7211 C   0  0  0  0  0  0  0  0  0  0  0  0
  197.1455  179.9165  153.6718 C   0  0  0  0  0  0  0  0  0  0  0  0
  196.8632  179.2356  152.5334 N   0  0  0  0  0  0  0  0  0  0  0  0
  196.6765  179.9338  151.3946 C   0  0  0  0  0  0  0  0  0  0  0  0
  196.7761  181.3331  151.3300 C   0  0  0  0  0  0  0  0  0  0  0  0
  197.0819  182.0367  152.5076 C   0  0  0  0  0  0  0  0  0  0  0  0
  196.6113  181.7303  156.0984 C   0  0  2  0  0  0  0  0  0  0  0  0
  198.1033  184.1765  155.7774 C   0  0  0  0  0  0  0  0  0  0  0  0
  197.4671  185.1621  154.8881 C   0  0  0  0  0  0  0  0  0  0  0  0
  197.2426  185.0345  153.6875 O   0  0  0  0  0  0  0  0  0  0  0  0
  197.1021  186.3046  155.4747 N   0  0  0  0  0  0  0  0  0  0  0  0
  197.3239  186.6542  156.8208 C   0  0  0  0  0  0  0  0  0  0  0  0
  197.9841  185.7509  157.6752 C   0  0  0  0  0  0  0  0  0  0  0  0
  198.1791  186.1255  159.0301 C   0  0  0  0  0  0  0  0  0  0  0  0
  197.7444  187.3783  159.4974 C   0  0  0  0  0  0  0  0  0  0  0  0
  197.0818  188.2692  158.6357 C   0  0  0  0  0  0  0  0  0  0  0  0
  196.8680  187.8949  157.2945 C   0  0  0  0  0  0  0  0  0  0  0  0
  198.3874  184.4399  157.0884 C   0  0  0  0  0  0  0  0  0  0  0  0
  198.9746  183.5387  157.9670 N   0  0  0  0  0  0  0  0  0  0  0  0
  200.2327  183.7195  158.6814 C   0  0  1  0  0  0  0  0  0  0  0  0
  201.1687  182.5296  158.6210 C   0  0  0  0  0  0  0  0  0  0  0  0
  200.9482  181.4883  157.6935 C   0  0  0  0  0  0  0  0  0  0  0  0
  201.7820  180.3627  157.6678 C   0  0  0  0  0  0  0  0  0  0  0  0
  202.8701  180.2888  158.5600 C   0  0  0  0  0  0  0  0  0  0  0  0
  203.1089  181.3242  159.4819 C   0  0  0  0  0  0  0  0  0  0  0  0
  202.2550  182.4426  159.5201 C   0  0  0  0  0  0  0  0  0  0  0  0
  201.4733  179.2675  156.6688 C   0  0  1  0  0  0  0  0  0  0  0  0
  200.3432  178.4059  157.0910 N   0  0  2  0  0  0  0  0  0  0  0  0
  200.6446  177.6061  158.2961 C   0  0  2  0  0  0  0  0  0  0  0  0
  199.8626  177.5581  155.9785 C   0  0  2  0  0  0  0  0  0  0  0  0
  197.2634  179.3254  154.5684 H   0  0  0  0  0  0  0  0  0  0  0  0
  196.4477  179.3699  150.5028 H   0  0  0  0  0  0  0  0  0  0  0  0
  196.6017  181.8772  150.4142 H   0  0  0  0  0  0  0  0  0  0  0  0
  197.1267  183.1123  152.4453 H   0  0  0  0  0  0  0  0  0  0  0  0
  195.9786  180.8571  155.9275 H   0  0  0  0  0  0  0  0  0  0  0  0
  195.9462  182.5700  156.3075 H   0  0  0  0  0  0  0  0  0  0  0  0
  197.2076  181.5314  156.9933 H   0  0  0  0  0  0  0  0  0  0  0  0
  196.6404  186.9708  154.8704 H   0  0  0  0  0  0  0  0  0  0  0  0
  198.6401  185.4625  159.7461 H   0  0  0  0  0  0  0  0  0  0  0  0
  197.9095  187.6553  160.5239 H   0  0  0  0  0  0  0  0  0  0  0  0
  196.7440  189.2340  158.9943 H   0  0  0  0  0  0  0  0  0  0  0  0
  196.3485  188.5693  156.6363 H   0  0  0  0  0  0  0  0  0  0  0  0
  198.6480  182.5827  157.9192 H   0  0  0  0  0  0  0  0  0  0  0  0
  200.7577  184.6117  158.3303 H   0  0  0  0  0  0  0  0  0  0  0  0
  200.0127  183.8653  159.7354 H   0  0  0  0  0  0  0  0  0  0  0  0
  200.1211  181.5201  157.0032 H   0  0  0  0  0  0  0  0  0  0  0  0
  203.5316  179.4377  158.5413 H   0  0  0  0  0  0  0  0  0  0  0  0
  203.9430  181.2605  160.1627 H   0  0  0  0  0  0  0  0  0  0  0  0
  202.4280  183.2316  160.2470 H   0  0  0  0  0  0  0  0  0  0  0  0
  201.2431  179.7451  155.7141 H   0  0  0  0  0  0  0  0  0  0  0  0
  202.3465  178.6470  156.4978 H   0  0  0  0  0  0  0  0  0  0  0  0
  201.4919  176.9463  158.1124 H   0  0  0  0  0  0  0  0  0  0  0  0
  199.7775  177.0084  158.5768 H   0  0  0  0  0  0  0  0  0  0  0  0
  200.8913  178.2351  159.1498 H   0  0  0  0  0  0  0  0  0  0  0  0
  200.6357  176.8607  155.6478 H   0  0  0  0  0  0  0  0  0  0  0  0
  199.5666  178.1667  155.1221 H   0  0  0  0  0  0  0  0  0  0  0  0
  198.9907  176.9815  156.2878 H   0  0  0  0  0  0  0  0  0  0  0  0
  199.5586  178.9945  157.3399 H   0  0  0  0  0  0  0  0  0  0  0  0
  1  2  2  0
  2  3  1  0
  2 11  1  0
  3  4  1  0
  3 10  1  0
  4  5  2  0
  4  9  1  0
  5  6  1  0
  5 34  1  0
  6  7  2  0
  7  8  1  0
  7 35  1  0
  8  9  2  0
  8 36  1  0
  9 37  1  0
 10 38  1  6
 10 39  1  0
 10 40  1  0
 11 12  1  0
 11 21  2  0
 12 13  2  0
 12 14  1  0
 14 15  1  0
 14 41  1  0
 15 16  1  0
 15 20  2  0
 16 17  2  0
 16 21  1  0
 17 18  1  0
 17 42  1  0
 18 19  2  0
 18 43  1  0
 19 20  1  0
 19 44  1  0
 20 45  1  0
 21 22  1  0
 22 23  1  0
 22 46  1  0
 23 24  1  0
 23 47  1  6
 23 48  1  0
 24 25  2  0
 24 29  1  0
 25 26  1  0
 25 49  1  0
 26 27  2  0
 26 30  1  0
 27 28  1  0
 27 50  1  0
 28 29  2  0
 28 51  1  0
 29 52  1  0
 30 31  1  0
 30 53  1  6
 30 54  1  0
 31 32  1  0
 31 33  1  0
 31 61  1  1
 32 55  1  6
 32 56  1  0
 32 57  1  0
 33 58  1  6
 33 59  1  0
 33 60  1  0
M  CHG  1  31   1
M  END
>  <s_epik_cmdline>  (793) 
J2VwaWtfcHl0aG9uJywgJy1waCcsICc3LjAwMDAwMCcsICctcGh0JywgJzIuMDAwMDAwJywgJy1tcycsICcxNicsICctdG4nLCAnOCcsICctbWEnLCAnMjAwJywgJy1pbWFlJywgJzxpbmZpbGUubWFlPicsICctb21hZScsICc8b3V0ZmlsZS5tYWU+Jw==

>  <s_epik_input>  (793) 
W2NIXTFbY0hdW2NIXW5bY0hdYzFOKFtDSDNdKUMoPU8pYyhjKD1PKVtuSF0yKWMoYyhjMjMpW2NIXVtjSF1bY0hdW2NIXTMpW05IXVtDSDJdYzRbY0hdYyhbY0hdW2NIXVtjSF00KVtDSDJdTihbQ0gzXSlbQ0gzXQ==

>  <s_i_glide_gridfile>  (793) 
ATP-Grid

>  <s_lp_Force_Field>  (793) 
OPLS_2005

>  <s_lp_Variant>  (793) 
rxn512c____EMOL36086203____EMOL43362984____EMOL2873214-1

>  <s_lp_label>  (793) 
2823_sdstereoexpander_1_neutralizer_1_epik_1_stereoizer_1

>  <s_m_source_file>  (793) 
ATP-VSW-LIGPREP-002-in.maegz

>  <s_sd_BIOSOLVEIT.INFINISEE\_QUERY\_NAME>  (793) 
Ref-Lig

>  <s_sd_BIOSOLVEIT.INFINISEE\_QUERY\_SMILES>  (793) 
S(c1nc2c(cc1C[NH2+]Cc3ccc(cc3)C[NH+](C)C)cccc2)Cc4ccccc4

>  <s_sd_BIOSOLVEIT.INFINISEE\_REACTION\_NAME>  (793) 
rxn512c

>  <s_sd_BIOSOLVEIT.INFINISEE\_REAGENT1\_NAME>  (793) 
EMOL36086203

>  <s_sd_BIOSOLVEIT.INFINISEE\_REAGENT1\_SMILES>  (793) 
n1cc(NC)ccc1

>  <s_sd_BIOSOLVEIT.INFINISEE\_REAGENT2\_NAME>  (793) 
EMOL43362984

>  <s_sd_BIOSOLVEIT.INFINISEE\_REAGENT2\_SMILES>  (793) 
ClC=1c2c(NC(=O)C1C(=O)O)cccc2

>  <s_sd_BIOSOLVEIT.INFINISEE\_REAGENT3\_NAME>  (793) 
EMOL2873214

>  <s_sd_BIOSOLVEIT.INFINISEE\_REAGENT3\_SMILES>  (793) 
N(Cc1cc(ccc1)CN)(C)C

>  <s_sd_BIOSOLVEIT.INFINISEE\_SPACE>  (793) 
eXplore_7tr_2022-12

>  <s_vsw_compound_code>  (793) 
90306

>  <s_vsw_variant>  (793) 
90306-1

>  <r_epik_Charging_Adjusted_Penalty>  (793) 
0.088196205985618295

>  <r_epik_Ionization_Penalty>  (793) 
0.044600000000000001

>  <r_epik_Ionization_Penalty_Charging>  (793) 
0.0441

>  <r_epik_Ionization_Penalty_Neutral>  (793) 
0.00050000000000000001

>  <r_epik_State_Penalty>  (793) 
0.0441

>  <r_i_docking_score>  (793) 
-3.0024464788466498

>  <r_i_glide_ecoul>  (793) 
-8.3679571151733398

>  <r_i_glide_eff_state_penalty>  (793) 
0.0441

>  <r_i_glide_einternal>  (793) 
17.048915863037099

>  <r_i_glide_emodel>  (793) 
-44.039610196023602

>  <r_i_glide_energy>  (793) 
-41.846854209899902

>  <r_i_glide_erotb>  (793) 
0.71431969347939805

>  <r_i_glide_esite>  (793) 
-0.078237169221173505

>  <r_i_glide_evdw>  (793) 
-33.478897094726598

>  <r_i_glide_gscore>  (793) 
-3.0465464788466501

>  <r_i_glide_hbond>  (793) 
-0.32000000000000001

>  <r_i_glide_ligand_efficiency>  (793) 
-0.090983226631716804

>  <r_i_glide_ligand_efficiency_ln>  (793) 
-0.66772855105962403

>  <r_i_glide_ligand_efficiency_sa>  (793) 
-0.29183182253489098

>  <r_i_glide_lipo>  (793) 
-1.4118730642777499

>  <r_i_glide_metal>  (793) 
-0

>  <r_i_glide_rewards>  (793) 
0.97838248318520504

>  <r_lp_Energy>  (793) 
62.73424

>  <r_qp_ACxDN^.5/SA>  (793) 
0

>  <r_qp_CIQPlogS>  (793) 
-5.0090000000000003

>  <r_qp_EA(eV)>  (793) 
0.85299999999999998

>  <r_qp_FISA>  (793) 
116.086

>  <r_qp_FOSA>  (793) 
241.31200000000001

>  <r_qp_IP(eV)>  (793) 
8.7799999999999994

>  <r_qp_Jm>  (793) 
0.0084253480249437598

>  <r_qp_PISA>  (793) 
403.69299999999998

>  <r_qp_PSA>  (793) 
86.129999999999995

>  <r_qp_PercentHumanOralAbsorption>  (793) 
90.025999999999996

>  <r_qp_QPPCaco>  (793) 
195.864

>  <r_qp_QPPMDCK>  (793) 
93.953999999999994

>  <r_qp_QPlogBB>  (793) 
-0.66700000000000004

>  <r_qp_QPlogHERG>  (793) 
-7.4100000000000001

>  <r_qp_QPlogKhsa>  (793) 
0.28599999999999998

>  <r_qp_QPlogKp>  (793) 
-3.6269999999999998

>  <r_qp_QPlogPC16>  (793) 
15.057

>  <r_qp_QPlogPo/w>  (793) 
3.7669999999999999

>  <r_qp_QPlogPoct>  (793) 
22.672999999999998

>  <r_qp_QPlogPw>  (793) 
11.422000000000001

>  <r_qp_QPlogS>  (793) 
-4.0919999999999996

>  <r_qp_QPpolrz>  (793) 
49.802

>  <r_qp_SASA>  (793) 
761.09100000000001

>  <r_qp_SAamideO>  (793) 
0

>  <r_qp_SAfluorine>  (793) 
0

>  <r_qp_WPSA>  (793) 
0

>  <r_qp_accptHB>  (793) 
8

>  <r_qp_dip^2/V>  (793) 
0.1211526

>  <r_qp_dipole>  (793) 
13.089

>  <r_qp_donorHB>  (793) 
0

>  <r_qp_glob>  (793) 
0.80056499999999997

>  <r_qp_mol_MW>  (793) 
441.53199999999998

>  <r_qp_volume>  (793) 
1414.171

>  <r_sd_BIOSOLVEIT.INFINISEE\_FTREES\_SIMILARITY>  (793) 
0.90600000000000003

>  <r_sd_BIOSOLVEIT.LOGP>  (793) 
2.4563000000000001

>  <r_sd_BIOSOLVEIT.MOLECULAR\_WEIGHT>  (793) 
442.54000000000002

>  <r_sd_BIOSOLVEIT.TPSA>  (793) 
82.530000000000001

>  <i_epik_Tot_Q>  (793) 
1

>  <i_epik_Tot_abs_Q>  (793) 
1

>  <i_f3d_flags>  (793) 
0

>  <i_i_glide_confnum>  (793) 
7

>  <i_i_glide_lignum>  (793) 
1378

>  <i_i_glide_posenum>  (793) 
7

>  <i_i_glide_rotatable_bonds>  (793) 
8

>  <i_lp_mmshare_version>  (793) 
65135

>  <i_m_ct_format>  (793) 
2

>  <i_m_source_file_index>  (793) 
2823

>  <i_qp_#NandO>  (793) 
7

>  <i_qp_#acid>  (793) 
0

>  <i_qp_#amide>  (793) 
0

>  <i_qp_#amidine>  (793) 
0

>  <i_qp_#amine>  (793) 
1

>  <i_qp_#in34>  (793) 
0

>  <i_qp_#in56>  (793) 
22

>  <i_qp_#metab>  (793) 
8

>  <i_qp_#nonHatm>  (793) 
33

>  <i_qp_#noncon>  (793) 
0

>  <i_qp_#ringatoms>  (793) 
22

>  <i_qp_#rotor>  (793) 
7

>  <i_qp_#rtvFG>  (793) 
0

>  <i_qp_#stars>  (793) 
1

>  <i_qp_CNS>  (793) 
1

>  <i_qp_HumanOralAbsorption>  (793) 
3

>  <i_qp_RuleOfFive>  (793) 
0

>  <i_qp_RuleOfThree>  (793) 
1

>  <i_sd_BIOSOLVEIT.INFINISEE\_RESULT\_RANK>  (793) 
65839

>  <i_sd_version>  (793) 
0

>  <b_lp_Chiralities_Consistent>  (793) 
1

>  <b_sd_chiral_flag>  (793) 
0

>  <canonical_id>  (793) 
ATP-HTVS-7C6F09AC1D4C

>  <compound_code>  (793) 
90306

>  <title>  (793) 
rxn512c____EMOL36086203____EMOL43362984____EMOL2873214

>  <variant>  (793) 
90306-1

>  <source_file>  (793) 
运行/运行/ATP-VSW/ATP-VSW-DOCK_HTVS_1-002_lib.maegz

>  <canonical_smiles>  (793) 
CN(C(=O)c1c(NCc2cccc(C[NH+](C)C)c2)c2ccccc2[nH]c1=O)c1cccnc1

>  <scaffold>  (793) 
O=C(Nc1cccnc1)c1c(NCc2ccccc2)c2ccccc2[nH]c1=O

>  <molecular_formula>  (793) 
C26H28N5O2+

$$$$
ATP-HTVS-7CA2ECE32076
     RDKit          3D

 56 59  0  0  0  0  0  0  0  0999 V2000
  197.7097  185.1538  159.7658 F   0  0  0  0  0  0  0  0  0  0  0  0
  196.5089  184.6046  159.4904 C   0  0  0  0  0  0  0  0  0  0  0  0
  195.3413  185.2338  159.9995 C   0  0  0  0  0  0  0  0  0  0  0  0
  194.0868  184.6343  159.7285 C   0  0  0  0  0  0  0  0  0  0  0  0
  193.9878  183.4524  158.9846 C   0  0  0  0  0  0  0  0  0  0  0  0
  195.1535  182.8384  158.4951 C   0  0  0  0  0  0  0  0  0  0  0  0
  196.4033  183.3997  158.7527 C   0  0  0  0  0  0  0  0  0  0  0  0
  197.5808  182.6435  158.2010 C   0  0  1  0  0  0  0  0  0  0  0  0
  198.1763  183.2735  157.0085 N   0  0  0  0  0  0  0  0  0  0  0  0
  199.4816  182.7052  156.6107 C   0  0  2  0  0  0  0  0  0  0  0  0
  199.3223  181.3114  155.9646 C   0  0  0  0  0  0  0  0  0  0  0  0
  198.7545  181.1810  154.6632 C   0  0  0  0  0  0  0  0  0  0  0  0
  198.2572  182.2897  153.9360 N   0  0  0  0  0  0  0  0  0  0  0  0
  197.5630  183.3267  154.4542 C   0  0  0  0  0  0  0  0  0  0  0  0
  197.2453  184.2908  153.7575 O   0  0  0  0  0  0  0  0  0  0  0  0
  197.1315  183.2536  155.9358 C   0  0  1  0  0  0  0  0  0  0  0  0
  198.7053  179.9039  154.0450 C   0  0  0  0  0  0  0  0  0  0  0  0
  199.2007  178.7633  154.7088 C   0  0  0  0  0  0  0  0  0  0  0  0
  199.7271  178.8837  156.0035 C   0  0  0  0  0  0  0  0  0  0  0  0
  199.7427  180.1383  156.6250 C   0  0  0  0  0  0  0  0  0  0  0  0
  200.5581  182.7973  157.7300 C   0  0  0  0  0  0  0  0  0  0  0  0
  201.7457  182.0296  157.6746 C   0  0  0  0  0  0  0  0  0  0  0  0
  202.5808  181.9168  158.8192 C   0  0  0  0  0  0  0  0  0  0  0  0
  202.2601  182.6107  160.0018 C   0  0  0  0  0  0  0  0  0  0  0  0
  201.1269  183.4401  160.0363 C   0  0  0  0  0  0  0  0  0  0  0  0
  200.3474  183.6012  158.8733 C   0  0  0  0  0  0  0  0  0  0  0  0
  195.4094  186.4993  160.8065 C   0  0  0  0  0  0  0  0  0  0  0  0
  194.6638  186.6572  161.7794 O   0  0  0  0  0  0  0  0  0  0  0  0
  196.2664  187.4397  160.3754 N   0  0  0  0  0  0  0  0  0  0  0  0
  196.4297  188.7564  160.9776 C   0  0  1  0  0  0  0  0  0  0  0  0
  197.3447  189.6431  160.1239 C   0  0  1  0  0  0  0  0  0  0  0  0
  197.9411  190.6636  160.9072 O   0  0  0  0  0  0  0  0  0  0  0  0
  193.1891  185.0939  160.1170 H   0  0  0  0  0  0  0  0  0  0  0  0
  193.0282  183.0043  158.7724 H   0  0  0  0  0  0  0  0  0  0  0  0
  195.0848  181.9180  157.9273 H   0  0  0  0  0  0  0  0  0  0  0  0
  198.2055  182.6261  159.1099 H   0  0  0  0  0  0  0  0  0  0  0  0
  197.3930  181.5998  158.0183 H   0  0  0  0  0  0  0  0  0  0  0  0
  199.9171  183.3526  155.8409 H   0  0  0  0  0  0  0  0  0  0  0  0
  198.3715  182.2854  152.9311 H   0  0  0  0  0  0  0  0  0  0  0  0
  196.5519  182.3267  156.0042 H   0  0  0  0  0  0  0  0  0  0  0  0
  196.4024  184.0501  156.1020 H   0  0  0  0  0  0  0  0  0  0  0  0
  198.2744  179.7834  153.0579 H   0  0  0  0  0  0  0  0  0  0  0  0
  199.1612  177.7809  154.2507 H   0  0  0  0  0  0  0  0  0  0  0  0
  200.1274  178.0360  156.5373 H   0  0  0  0  0  0  0  0  0  0  0  0
  200.1356  180.1486  157.6295 H   0  0  0  0  0  0  0  0  0  0  0  0
  201.9772  181.4281  156.8087 H   0  0  0  0  0  0  0  0  0  0  0  0
  203.4362  181.2694  158.7709 H   0  0  0  0  0  0  0  0  0  0  0  0
  202.8829  182.5295  160.8777 H   0  0  0  0  0  0  0  0  0  0  0  0
  200.8205  183.9582  160.9386 H   0  0  0  0  0  0  0  0  0  0  0  0
  199.5152  184.2627  158.9322 H   0  0  0  0  0  0  0  0  0  0  0  0
  196.8392  187.2174  159.5698 H   0  0  0  0  0  0  0  0  0  0  0  0
  195.4601  189.2351  161.1086 H   0  0  0  0  0  0  0  0  0  0  0  0
  196.8495  188.6395  161.9763 H   0  0  0  0  0  0  0  0  0  0  0  0
  198.1584  189.0742  159.6807 H   0  0  0  0  0  0  0  0  0  0  0  0
  196.7826  190.1059  159.3171 H   0  0  0  0  0  0  0  0  0  0  0  0
  198.4999  190.2364  161.5692 H   0  0  0  0  0  0  0  0  0  0  0  0
  1  2  1  0
  2  3  2  0
  2  7  1  0
  3  4  1  0
  3 27  1  0
  4  5  2  0
  4 33  1  0
  5  6  1  0
  5 34  1  0
  6  7  2  0
  6 35  1  0
  7  8  1  0
  8  9  1  0
  8 36  1  1
  8 37  1  0
  9 10  1  0
  9 16  1  0
 10 11  1  0
 10 21  1  0
 10 38  1  6
 11 12  1  0
 11 20  2  0
 12 13  1  0
 12 17  2  0
 13 14  1  0
 13 39  1  0
 14 15  2  0
 14 16  1  0
 16 40  1  6
 16 41  1  0
 17 18  1  0
 17 42  1  0
 18 19  2  0
 18 43  1  0
 19 20  1  0
 19 44  1  0
 20 45  1  0
 21 22  2  0
 21 26  1  0
 22 23  1  0
 22 46  1  0
 23 24  2  0
 23 47  1  0
 24 25  1  0
 24 48  1  0
 25 26  2  0
 25 49  1  0
 26 50  1  0
 27 28  2  0
 27 29  1  0
 29 30  1  0
 29 51  1  0
 30 31  1  0
 30 52  1  1
 30 53  1  0
 31 32  1  0
 31 54  1  6
 31 55  1  0
 32 56  1  0
M  END
>  <s_epik_cmdline>  (794) 
J2VwaWtfcHl0aG9uJywgJy1waCcsICc3LjAwMDAwMCcsICctcGh0JywgJzIuMDAwMDAwJywgJy1tcycsICcxNicsICctdG4nLCAnOCcsICctbWEnLCAnMjAwJywgJy1pbWFlJywgJzxpbmZpbGUubWFlPicsICctb21hZScsICc8b3V0ZmlsZS5tYWU+Jw==

>  <s_epik_input>  (794) 
W09IXVtDSDJdW0NIMl1bTkhdQyg9TyljKGMxRilbY0hdW2NIXVtjSF1jMVtDSDJdTihbQ0BIXTJjM1tjSF1bY0hdW2NIXVtjSF1bY0hdMylbQ0gyXUMoPU8pW05IXWMoYzI0KVtjSF1bY0hdW2NIXVtjSF00

>  <s_i_glide_gridfile>  (794) 
ATP-Grid

>  <s_lp_Force_Field>  (794) 
OPLS_2005

>  <s_lp_Variant>  (794) 
rxn512b____EMOL299981165____EMOL49775718____EMOL6185419-2

>  <s_lp_label>  (794) 
2694_sdstereoexpander_3_neutralizer_1_epik_1_stereoizer_1

>  <s_m_source_file>  (794) 
ATP-VSW-LIGPREP-001-in.maegz

>  <s_sd_BIOSOLVEIT.INFINISEE\_QUERY\_NAME>  (794) 
Ref-Lig

>  <s_sd_BIOSOLVEIT.INFINISEE\_QUERY\_SMILES>  (794) 
S(c1nc2c(cc1C[NH2+]Cc3ccc(cc3)C[NH+](C)C)cccc2)Cc4ccccc4

>  <s_sd_BIOSOLVEIT.INFINISEE\_REACTION\_NAME>  (794) 
rxn512b

>  <s_sd_BIOSOLVEIT.INFINISEE\_REAGENT1\_NAME>  (794) 
EMOL299981165

>  <s_sd_BIOSOLVEIT.INFINISEE\_REAGENT1\_SMILES>  (794) 
OCCN

>  <s_sd_BIOSOLVEIT.INFINISEE\_REAGENT2\_NAME>  (794) 
EMOL49775718

>  <s_sd_BIOSOLVEIT.INFINISEE\_REAGENT2\_SMILES>  (794) 
BrCc1c(F)c(ccc1)C(=O)O

>  <s_sd_BIOSOLVEIT.INFINISEE\_REAGENT3\_NAME>  (794) 
EMOL6185419

>  <s_sd_BIOSOLVEIT.INFINISEE\_REAGENT3\_SMILES>  (794) 
O=C1Nc2c(cccc2)C(NC1)c3ccccc3

>  <s_sd_BIOSOLVEIT.INFINISEE\_SPACE>  (794) 
eXplore_7tr_2022-12

>  <s_vsw_compound_code>  (794) 
86177

>  <s_vsw_variant>  (794) 
86177-2

>  <r_epik_Charging_Adjusted_Penalty>  (794) 
0.0087634984339075902

>  <r_epik_Ionization_Penalty>  (794) 
0.0088000000000000005

>  <r_epik_Ionization_Penalty_Charging>  (794) 
0

>  <r_epik_Ionization_Penalty_Neutral>  (794) 
0.0088000000000000005

>  <r_epik_State_Penalty>  (794) 
0.0088000000000000005

>  <r_i_docking_score>  (794) 
-3.2174375940470901

>  <r_i_glide_ecoul>  (794) 
-9.6099061965942401

>  <r_i_glide_eff_state_penalty>  (794) 
0.0088000000000000005

>  <r_i_glide_einternal>  (794) 
8.0382652282714808

>  <r_i_glide_emodel>  (794) 
-50.9577798744265

>  <r_i_glide_energy>  (794) 
-45.272942543029799

>  <r_i_glide_erotb>  (794) 
0.74162852812217595

>  <r_i_glide_esite>  (794) 
-0.022061346704143302

>  <r_i_glide_evdw>  (794) 
-35.663036346435497

>  <r_i_glide_gscore>  (794) 
-3.22623759404709

>  <r_i_glide_hbond>  (794) 
-0.15915292846915199

>  <r_i_glide_ligand_efficiency>  (794) 
-0.10054492481397199

>  <r_i_glide_ligand_efficiency_ln>  (794) 
-0.72047198134353796

>  <r_i_glide_ligand_efficiency_sa>  (794) 
-0.31921023847075802

>  <r_i_glide_lipo>  (794) 
-1.41346468709087

>  <r_i_glide_metal>  (794) 
-0

>  <r_i_glide_rewards>  (794) 
0.85145058690580899

>  <r_lp_Energy>  (794) 
56.795352999999999

>  <r_qp_ACxDN^.5/SA>  (794) 
0.020899999999999998

>  <r_qp_CIQPlogS>  (794) 
-4.3789999999999996

>  <r_qp_EA(eV)>  (794) 
0.68200000000000005

>  <r_qp_FISA>  (794) 
163.53100000000001

>  <r_qp_FOSA>  (794) 
133.202

>  <r_qp_IP(eV)>  (794) 
9.5619999999999994

>  <r_qp_Jm>  (794) 
0.00101450984556525

>  <r_qp_PISA>  (794) 
412.52499999999998

>  <r_qp_PSA>  (794) 
99.796000000000006

>  <r_qp_PercentHumanOralAbsorption>  (794) 
74.974000000000004

>  <r_qp_QPPCaco>  (794) 
69.507000000000005

>  <r_qp_QPPMDCK>  (794) 
35.555

>  <r_qp_QPlogBB>  (794) 
-1.0429999999999999

>  <r_qp_QPlogHERG>  (794) 
-7.3399999999999999

>  <r_qp_QPlogKhsa>  (794) 
0.223

>  <r_qp_QPlogKp>  (794) 
-4.5670000000000002

>  <r_qp_QPlogPC16>  (794) 
15.18

>  <r_qp_QPlogPo/w>  (794) 
2.5720000000000001

>  <r_qp_QPlogPoct>  (794) 
25.23

>  <r_qp_QPlogPw>  (794) 
17.016999999999999

>  <r_qp_QPlogS>  (794) 
-4.0640000000000001

>  <r_qp_QPpolrz>  (794) 
46.793999999999997

>  <r_qp_SASA>  (794) 
720.99599999999998

>  <r_qp_SAamideO>  (794) 
0

>  <r_qp_SAfluorine>  (794) 
11.738

>  <r_qp_WPSA>  (794) 
11.738

>  <r_qp_accptHB>  (794) 
8.6999999999999993

>  <r_qp_dip^2/V>  (794) 
0.013954599999999999

>  <r_qp_dipole>  (794) 
4.2930000000000001

>  <r_qp_donorHB>  (794) 
3

>  <r_qp_glob>  (794) 
0.80749289999999996

>  <r_qp_mol_MW>  (794) 
433.48099999999999

>  <r_qp_volume>  (794) 
1320.8699999999999

>  <r_sd_BIOSOLVEIT.INFINISEE\_FTREES\_SIMILARITY>  (794) 
0.90900000000000003

>  <r_sd_BIOSOLVEIT.LOGP>  (794) 
1.6744000000000001

>  <r_sd_BIOSOLVEIT.MOLECULAR\_WEIGHT>  (794) 
434.48899999999998

>  <r_sd_BIOSOLVEIT.TPSA>  (794) 
82.870000000000005

>  <i_epik_Tot_Q>  (794) 
0

>  <i_epik_Tot_abs_Q>  (794) 
0

>  <i_f3d_flags>  (794) 
0

>  <i_i_glide_confnum>  (794) 
11

>  <i_i_glide_lignum>  (794) 
1196

>  <i_i_glide_posenum>  (794) 
11

>  <i_i_glide_rotatable_bonds>  (794) 
8

>  <i_lp_mmshare_version>  (794) 
65135

>  <i_m_ct_format>  (794) 
2

>  <i_m_source_file_index>  (794) 
2694

>  <i_qp_#NandO>  (794) 
6

>  <i_qp_#acid>  (794) 
0

>  <i_qp_#amide>  (794) 
0

>  <i_qp_#amidine>  (794) 
0

>  <i_qp_#amine>  (794) 
1

>  <i_qp_#in34>  (794) 
0

>  <i_qp_#in56>  (794) 
18

>  <i_qp_#metab>  (794) 
8

>  <i_qp_#nonHatm>  (794) 
32

>  <i_qp_#noncon>  (794) 
2

>  <i_qp_#ringatoms>  (794) 
23

>  <i_qp_#rotor>  (794) 
6

>  <i_qp_#rtvFG>  (794) 
0

>  <i_qp_#stars>  (794) 
0

>  <i_qp_CNS>  (794) 
-2

>  <i_qp_HumanOralAbsorption>  (794) 
2

>  <i_qp_RuleOfFive>  (794) 
0

>  <i_qp_RuleOfThree>  (794) 
1

>  <i_sd_BIOSOLVEIT.INFINISEE\_RESULT\_RANK>  (794) 
51893

>  <i_sd_version>  (794) 
0

>  <b_lp_Chiralities_Consistent>  (794) 
1

>  <b_sd_chiral_flag>  (794) 
0

>  <canonical_id>  (794) 
ATP-HTVS-7CA2ECE32076

>  <compound_code>  (794) 
86177

>  <title>  (794) 
rxn512b____EMOL299981165____EMOL49775718____EMOL6185419

>  <variant>  (794) 
86177-2

>  <source_file>  (794) 
运行/运行/ATP-VSW/ATP-VSW-DOCK_HTVS_1-001_lib/ATP-VSW-DOCK_HTVS_1-001_lib

>  <canonical_smiles>  (794) 
O=C1CN(Cc2cccc(C(=O)NCCO)c2F)[C@@H](c2ccccc2)c2ccccc2N1

>  <scaffold>  (794) 
O=C1CN(Cc2ccccc2)C(c2ccccc2)c2ccccc2N1

>  <molecular_formula>  (794) 
C25H24FN3O3

$$$$
ATP-HTVS-7CD79F872AFC
     RDKit          3D

 59 62  0  0  0  0  0  0  0  0999 V2000
  197.2552  183.4950  155.9491 N   0  0  0  0  0  0  0  0  0  0  0  0
  197.3163  184.2907  154.9164 C   0  0  0  0  0  0  0  0  0  0  0  0
  197.2465  183.8211  153.6066 N   0  0  0  0  0  0  0  0  0  0  0  0
  197.0751  182.4632  153.3116 C   0  0  0  0  0  0  0  0  0  0  0  0
  196.9907  181.5591  154.3998 C   0  0  0  0  0  0  0  0  0  0  0  0
  197.0982  182.1451  155.7617 C   0  0  0  0  0  0  0  0  0  0  0  0
  197.0134  181.3755  156.8017 N   0  0  0  0  0  0  0  0  0  0  0  0
  197.1332  181.7784  158.2141 C   0  0  1  0  0  0  0  0  0  0  0  0
  195.9865  182.6533  158.6733 C   0  0  0  0  0  0  0  0  0  0  0  0
  194.7414  182.3694  158.2312 N   0  0  0  0  0  0  0  0  0  0  0  0
  193.6653  183.1113  158.5483 C   0  0  0  0  0  0  0  0  0  0  0  0
  193.8151  184.2339  159.3942 C   0  0  0  0  0  0  0  0  0  0  0  0
  195.0940  184.5645  159.8788 C   0  0  0  0  0  0  0  0  0  0  0  0
  196.1945  183.7630  159.5193 C   0  0  0  0  0  0  0  0  0  0  0  0
  196.8314  180.1795  154.1509 C   0  0  0  0  0  0  0  0  0  0  0  0
  196.7611  179.7145  152.8214 C   0  0  0  0  0  0  0  0  0  0  0  0
  196.8393  180.6189  151.7433 C   0  0  0  0  0  0  0  0  0  0  0  0
  196.9900  181.9997  151.9837 C   0  0  0  0  0  0  0  0  0  0  0  0
  197.4358  185.6637  155.0254 N   0  0  0  0  0  0  0  0  0  0  0  0
  197.2254  186.4288  156.2407 C   0  0  1  0  0  0  0  0  0  0  0  0
  198.2501  187.5317  156.4351 C   0  0  0  0  0  0  0  0  0  0  0  0
  198.6619  187.8519  157.7431 C   0  0  0  0  0  0  0  0  0  0  0  0
  199.5454  188.9286  157.9759 C   0  0  0  0  0  0  0  0  0  0  0  0
  200.0654  189.6464  156.8757 C   0  0  0  0  0  0  0  0  0  0  0  0
  199.6756  189.3093  155.5631 C   0  0  0  0  0  0  0  0  0  0  0  0
  198.7631  188.2613  155.3369 C   0  0  0  0  0  0  0  0  0  0  0  0
  199.9113  189.3090  159.4076 C   0  0  1  0  0  0  0  0  0  0  0  0
  198.8536  190.0726  160.1321 N   0  0  1  0  0  0  0  0  0  0  0  0
  198.8137  191.5039  159.7501 C   0  0  2  0  0  0  0  0  0  0  0  0
  197.5004  189.4634  160.1115 C   0  0  2  0  0  0  0  0  0  0  0  0
  197.1487  180.8506  158.7870 H   0  0  0  0  0  0  0  0  0  0  0  0
  198.0962  182.2761  158.3344 H   0  0  0  0  0  0  0  0  0  0  0  0
  192.7366  182.8090  158.0840 H   0  0  0  0  0  0  0  0  0  0  0  0
  192.9577  184.8348  159.6564 H   0  0  0  0  0  0  0  0  0  0  0  0
  195.2264  185.4235  160.5216 H   0  0  0  0  0  0  0  0  0  0  0  0
  197.1854  184.0007  159.8724 H   0  0  0  0  0  0  0  0  0  0  0  0
  196.7754  179.4683  154.9610 H   0  0  0  0  0  0  0  0  0  0  0  0
  196.6582  178.6576  152.6284 H   0  0  0  0  0  0  0  0  0  0  0  0
  196.7946  180.2487  150.7292 H   0  0  0  0  0  0  0  0  0  0  0  0
  197.0583  182.6865  151.1496 H   0  0  0  0  0  0  0  0  0  0  0  0
  197.5980  186.2619  154.2286 H   0  0  0  0  0  0  0  0  0  0  0  0
  196.2306  186.8714  156.1909 H   0  0  0  0  0  0  0  0  0  0  0  0
  197.2214  185.7854  157.1235 H   0  0  0  0  0  0  0  0  0  0  0  0
  198.2698  187.2690  158.5620 H   0  0  0  0  0  0  0  0  0  0  0  0
  200.7442  190.4700  157.0304 H   0  0  0  0  0  0  0  0  0  0  0  0
  200.0721  189.8569  154.7222 H   0  0  0  0  0  0  0  0  0  0  0  0
  198.4499  188.0413  154.3265 H   0  0  0  0  0  0  0  0  0  0  0  0
  200.1481  188.3995  159.9741 H   0  0  0  0  0  0  0  0  0  0  0  0
  200.8395  189.8862  159.3982 H   0  0  0  0  0  0  0  0  0  0  0  0
  198.5330  191.6162  158.7037 H   0  0  0  0  0  0  0  0  0  0  0  0
  199.7790  191.9864  159.8965 H   0  0  0  0  0  0  0  0  0  0  0  0
  198.0806  192.0415  160.3481 H   0  0  0  0  0  0  0  0  0  0  0  0
  197.0792  189.4555  159.1101 H   0  0  0  0  0  0  0  0  0  0  0  0
  196.7910  190.0233  160.7348 H   0  0  0  0  0  0  0  0  0  0  0  0
  197.5550  188.4488  160.4968 H   0  0  0  0  0  0  0  0  0  0  0  0
  197.2459  184.4461  152.8117 H   0  0  0  0  0  0  0  0  0  0  0  0
  199.1505  190.0078  161.1102 H   0  0  0  0  0  0  0  0  0  0  0  0
  194.6137  181.5881  157.5788 H   0  0  0  0  0  0  0  0  0  0  0  0
  196.8047  180.3785  156.7090 H   0  0  0  0  0  0  0  0  0  0  0  0
  1  2  2  0
  1  6  1  0
  2  3  1  0
  2 19  1  0
  3  4  1  0
  3 56  1  0
  4  5  1  0
  4 18  2  0
  5  6  1  0
  5 15  2  0
  6  7  2  0
  7  8  1  0
  7 59  1  0
  8  9  1  0
  8 31  1  1
  8 32  1  0
  9 10  1  0
  9 14  2  0
 10 11  2  0
 10 58  1  0
 11 12  1  0
 11 33  1  0
 12 13  2  0
 12 34  1  0
 13 14  1  0
 13 35  1  0
 14 36  1  0
 15 16  1  0
 15 37  1  0
 16 17  2  0
 16 38  1  0
 17 18  1  0
 17 39  1  0
 18 40  1  0
 19 20  1  0
 19 41  1  0
 20 21  1  0
 20 42  1  6
 20 43  1  0
 21 22  2  0
 21 26  1  0
 22 23  1  0
 22 44  1  0
 23 24  2  0
 23 27  1  0
 24 25  1  0
 24 45  1  0
 25 26  2  0
 25 46  1  0
 26 47  1  0
 27 28  1  0
 27 48  1  1
 27 49  1  0
 28 29  1  0
 28 30  1  0
 28 57  1  1
 29 50  1  6
 29 51  1  0
 29 52  1  0
 30 53  1  6
 30 54  1  0
 30 55  1  0
M  CHG  3   7   1  10   1  28   1
M  END
>  <s_epik_Chemistry_Notes>  (795) 
This compound has an imine and may undergo hydrolysis.

>  <s_epik_cmdline>  (795) 
J2VwaWtfcHl0aG9uJywgJy1waCcsICc3LjAwMDAwMCcsICctcGh0JywgJzIuMDAwMDAwJywgJy1tcycsICcxNicsICctdG4nLCAnOCcsICctbWEnLCAnMjAwJywgJy1pbWFlJywgJzxpbmZpbGUubWFlPicsICctb21hZScsICc8b3V0ZmlsZS5tYWU+Jw==

>  <s_epik_input>  (795) 
W2NIXTFbY0hdW2NIXWMoW0NIMl1OKFtDSDNdKVtDSDNdKVtjSF1jMVtDSDJdW05IXWMobjIpbmMoYyhjMjMpW2NIXVtjSF1bY0hdW2NIXTMpW05IXVtDSDJdYzRuW2NIXVtjSF1bY0hdW2NIXTQ=

>  <s_i_glide_gridfile>  (795) 
ATP-Grid

>  <s_lp_Force_Field>  (795) 
OPLS_2005

>  <s_lp_Variant>  (795) 
m_282030aaa____21930964____22360182____21940090-4

>  <s_lp_label>  (795) 
2124_sdstereoexpander_1_neutralizer_1_epik_4_stereoizer_1

>  <s_m_source_file>  (795) 
ATP-VSW-LIGPREP-001-in.maegz

>  <s_sd_BIOSOLVEIT.INFINISEE\_QUERY\_NAME>  (795) 
Ref-Lig

>  <s_sd_BIOSOLVEIT.INFINISEE\_QUERY\_SMILES>  (795) 
S(c1nc2c(cc1C[NH2+]Cc3ccc(cc3)C[NH+](C)C)cccc2)Cc4ccccc4

>  <s_sd_BIOSOLVEIT.INFINISEE\_REACTION\_NAME>  (795) 
m_282030aaa

>  <s_sd_BIOSOLVEIT.INFINISEE\_REAGENT1\_SMILES>  (795) 
[R1*]NCc1ncccc1

>  <s_sd_BIOSOLVEIT.INFINISEE\_REAGENT2\_SMILES>  (795) 
[R2*]c1nc([R1*])c2c(n1)cccc2

>  <s_sd_BIOSOLVEIT.INFINISEE\_REAGENT3\_SMILES>  (795) 
[R2*]NCc1cc(ccc1)CN(C)C

>  <s_sd_BIOSOLVEIT.INFINISEE\_SPACE>  (795) 
REALSpace_44bn_2023-08

>  <s_vsw_compound_code>  (795) 
67937

>  <s_vsw_variant>  (795) 
67937-4

>  <r_epik_Charging_Adjusted_Penalty>  (795) 
3.3360942649326399

>  <r_epik_Ionization_Penalty>  (795) 
2.5209999999999999

>  <r_epik_Ionization_Penalty_Charging>  (795) 
1.5446

>  <r_epik_Ionization_Penalty_Neutral>  (795) 
0.97640000000000005

>  <r_epik_State_Penalty>  (795) 
1.7915000000000001

>  <r_i_docking_score>  (795) 
-4.97033467445703

>  <r_i_glide_ecoul>  (795) 
-18.9188022613525

>  <r_i_glide_eff_state_penalty>  (795) 
1.7915000000000001

>  <r_i_glide_einternal>  (795) 
4.6307969093322798

>  <r_i_glide_emodel>  (795) 
-86.419768997546697

>  <r_i_glide_energy>  (795) 
-50.065423965454102

>  <r_i_glide_erotb>  (795) 
0.60831217664191495

>  <r_i_glide_esite>  (795) 
-0.30695725708480198

>  <r_i_glide_evdw>  (795) 
-31.146621704101602

>  <r_i_glide_gscore>  (795) 
-6.7618346744570301

>  <r_i_glide_hbond>  (795) 
-0.33295593441622701

>  <r_i_glide_ligand_efficiency>  (795) 
-0.16567782248190099

>  <r_i_glide_ligand_efficiency_ln>  (795) 
-1.1293141941704801

>  <r_i_glide_ligand_efficiency_sa>  (795) 
-0.51479951494777099

>  <r_i_glide_lipo>  (795) 
-1.1680211431990799

>  <r_i_glide_metal>  (795) 
-0

>  <r_i_glide_rewards>  (795) 
-1.1670610919908699

>  <r_lp_Energy>  (795) 
39.591889000000002

>  <r_qp_ACxDN^.5/SA>  (795) 
0.0114898

>  <r_qp_CIQPlogS>  (795) 
-5.1340000000000003

>  <r_qp_EA(eV)>  (795) 
0.064000000000000001

>  <r_qp_FISA>  (795) 
42.231000000000002

>  <r_qp_FOSA>  (795) 
245.67699999999999

>  <r_qp_IP(eV)>  (795) 
8.0109999999999992

>  <r_qp_Jm>  (795) 
0.050318326411185998

>  <r_qp_PISA>  (795) 
450.59899999999999

>  <r_qp_PSA>  (795) 
56.034999999999997

>  <r_qp_PercentHumanOralAbsorption>  (795) 
100

>  <r_qp_QPPCaco>  (795) 
982.49000000000001

>  <r_qp_QPPMDCK>  (795) 
536.95399999999995

>  <r_qp_QPlogBB>  (795) 
0.032000000000000001

>  <r_qp_QPlogHERG>  (795) 
-7.7640000000000002

>  <r_qp_QPlogKhsa>  (795) 
0.66700000000000004

>  <r_qp_QPlogKp>  (795) 
-2.0049999999999999

>  <r_qp_QPlogPC16>  (795) 
14.587

>  <r_qp_QPlogPo/w>  (795) 
4.6779999999999999

>  <r_qp_QPlogPoct>  (795) 
21.635999999999999

>  <r_qp_QPlogPw>  (795) 
11.923

>  <r_qp_QPlogS>  (795) 
-4.8940000000000001

>  <r_qp_QPpolrz>  (795) 
46.298999999999999

>  <r_qp_SASA>  (795) 
738.50599999999997

>  <r_qp_SAamideO>  (795) 
0

>  <r_qp_SAfluorine>  (795) 
0

>  <r_qp_WPSA>  (795) 
0

>  <r_qp_accptHB>  (795) 
6

>  <r_qp_dip^2/V>  (795) 
0.030094699999999999

>  <r_qp_dipole>  (795) 
6.3300000000000001

>  <r_qp_donorHB>  (795) 
2

>  <r_qp_glob>  (795) 
0.7925662

>  <r_qp_mol_MW>  (795) 
398.50999999999999

>  <r_qp_volume>  (795) 
1331.4870000000001

>  <r_sd_BIOSOLVEIT.INFINISEE\_FTREES\_SIMILARITY>  (795) 
0.90100000000000002

>  <r_sd_BIOSOLVEIT.LOGP>  (795) 
2.8935

>  <r_sd_BIOSOLVEIT.MOLECULAR\_WEIGHT>  (795) 
399.51900000000001

>  <r_sd_BIOSOLVEIT.TPSA>  (795) 
67.170000000000002

>  <i_epik_Tot_Q>  (795) 
3

>  <i_epik_Tot_abs_Q>  (795) 
3

>  <i_f3d_flags>  (795) 
0

>  <i_i_glide_confnum>  (795) 
1

>  <i_i_glide_lignum>  (795) 
670

>  <i_i_glide_posenum>  (795) 
8

>  <i_i_glide_rotatable_bonds>  (795) 
7

>  <i_lp_mmshare_version>  (795) 
65135

>  <i_m_ct_format>  (795) 
2

>  <i_m_source_file_index>  (795) 
2124

>  <i_qp_#NandO>  (795) 
6

>  <i_qp_#acid>  (795) 
0

>  <i_qp_#amide>  (795) 
0

>  <i_qp_#amidine>  (795) 
0

>  <i_qp_#amine>  (795) 
1

>  <i_qp_#in34>  (795) 
0

>  <i_qp_#in56>  (795) 
22

>  <i_qp_#metab>  (795) 
5

>  <i_qp_#nonHatm>  (795) 
30

>  <i_qp_#noncon>  (795) 
0

>  <i_qp_#ringatoms>  (795) 
22

>  <i_qp_#rotor>  (795) 
8

>  <i_qp_#rtvFG>  (795) 
0

>  <i_qp_#stars>  (795) 
1

>  <i_qp_CNS>  (795) 
1

>  <i_qp_HumanOralAbsorption>  (795) 
3

>  <i_qp_RuleOfFive>  (795) 
0

>  <i_qp_RuleOfThree>  (795) 
0

>  <i_sd_BIOSOLVEIT.INFINISEE\_REAGENT1\_NAME>  (795) 
21930964

>  <i_sd_BIOSOLVEIT.INFINISEE\_REAGENT2\_NAME>  (795) 
22360182

>  <i_sd_BIOSOLVEIT.INFINISEE\_REAGENT3\_NAME>  (795) 
21940090

>  <i_sd_BIOSOLVEIT.INFINISEE\_RESULT\_RANK>  (795) 
98696

>  <i_sd_version>  (795) 
0

>  <b_lp_Chiralities_Consistent>  (795) 
1

>  <b_sd_chiral_flag>  (795) 
0

>  <canonical_id>  (795) 
ATP-HTVS-7CD79F872AFC

>  <compound_code>  (795) 
67937

>  <title>  (795) 
m_282030aaa____21930964____22360182____21940090

>  <variant>  (795) 
67937-4

>  <source_file>  (795) 
运行/运行/ATP-VSW/ATP-VSW-DOCK_HTVS_1-001_lib/ATP-VSW-DOCK_HTVS_1-001_lib

>  <canonical_smiles>  (795) 
C[NH+](C)Cc1cccc(CNc2n/c(=[NH+]\Cc3cccc[nH+]3)c3ccccc3[nH]2)c1

>  <scaffold>  (795) 
c1ccc(CNc2nc(=[NH+]Cc3cccc[nH+]3)c3ccccc3[nH]2)cc1

>  <molecular_formula>  (795) 
C24H29N6+3

$$$$
ATP-HTVS-7CF383CE087B
     RDKit          3D

 65 68  0  0  0  0  0  0  0  0999 V2000
  200.5453  185.9653  158.5267 O   0  0  0  0  0  0  0  0  0  0  0  0
  199.6096  185.3718  157.9888 C   0  0  0  0  0  0  0  0  0  0  0  0
  199.7585  184.6046  156.8984 N   0  0  0  0  0  0  0  0  0  0  0  0
  201.0039  183.9337  156.5022 C   0  0  1  0  0  0  0  0  0  0  0  0
  200.9787  182.4291  156.7833 C   0  0  0  0  0  0  0  0  0  0  0  0
  202.1346  181.7206  157.1920 C   0  0  0  0  0  0  0  0  0  0  0  0
  202.0560  180.3259  157.4430 C   0  0  0  0  0  0  0  0  0  0  0  0
  200.8179  179.6392  157.3104 C   0  0  0  0  0  0  0  0  0  0  0  0
  199.6757  180.3643  156.9320 C   0  0  0  0  0  0  0  0  0  0  0  0
  199.7723  181.7306  156.6087 C   0  0  0  0  0  0  0  0  0  0  0  0
  200.6988  178.1358  157.5773 C   0  0  1  0  0  0  0  0  0  0  0  0
  200.4625  177.3176  156.3491 N   0  0  2  0  0  0  0  0  0  0  0  0
  201.6873  177.1344  155.5426 C   0  0  2  0  0  0  0  0  0  0  0  0
  199.3175  177.7400  155.5025 C   0  0  2  0  0  0  0  0  0  0  0  0
  198.2337  185.4552  158.5466 C   0  0  0  0  0  0  0  0  0  0  0  0
  197.9956  186.4029  159.5364 N   0  0  0  0  0  0  0  0  0  0  0  0
  196.6979  186.3289  160.0057 C   0  0  0  0  0  0  0  0  0  0  0  0
  196.0940  185.2541  159.2934 C   0  0  0  0  0  0  0  0  0  0  0  0
  194.7449  184.9492  159.5880 C   0  0  0  0  0  0  0  0  0  0  0  0
  194.0287  185.6968  160.5376 C   0  0  0  0  0  0  0  0  0  0  0  0
  194.6473  186.7465  161.2380 C   0  0  0  0  0  0  0  0  0  0  0  0
  195.9851  187.0712  160.9635 C   0  0  0  0  0  0  0  0  0  0  0  0
  197.0691  184.7335  158.3807 C   0  0  0  0  0  0  0  0  0  0  0  0
  196.7340  183.6534  157.5185 C   0  0  0  0  0  0  0  0  0  0  0  0
  196.5374  182.7486  156.7189 C   0  0  0  0  0  0  0  0  0  0  0  0
  196.4672  181.7002  155.6991 C   0  0  1  0  0  0  0  0  0  0  0  0
  196.7608  182.2786  154.4347 O   0  0  0  0  0  0  0  0  0  0  0  0
  197.0120  181.4586  153.3531 C   0  0  0  0  0  0  0  0  0  0  0  0
  197.0539  182.0688  152.0737 C   0  0  0  0  0  0  0  0  0  0  0  0
  197.3057  181.2927  150.9207 C   0  0  0  0  0  0  0  0  0  0  0  0
  197.5397  179.9111  151.0273 C   0  0  0  0  0  0  0  0  0  0  0  0
  197.5124  179.3015  152.2926 C   0  0  0  0  0  0  0  0  0  0  0  0
  197.2415  180.0610  153.4478 C   0  0  0  0  0  0  0  0  0  0  0  0
  196.8035  183.5593  151.9072 C   0  0  1  0  0  0  0  0  0  0  0  0
  195.5461  183.8140  151.3341 O   0  0  0  0  0  0  0  0  0  0  0  0
  198.9062  184.2952  156.4548 H   0  0  0  0  0  0  0  0  0  0  0  0
  201.1387  184.0752  155.4289 H   0  0  0  0  0  0  0  0  0  0  0  0
  201.8709  184.3745  157.0059 H   0  0  0  0  0  0  0  0  0  0  0  0
  203.0785  182.2370  157.2976 H   0  0  0  0  0  0  0  0  0  0  0  0
  202.9536  179.7816  157.7389 H   0  0  0  0  0  0  0  0  0  0  0  0
  198.7214  179.8755  156.9216 H   0  0  0  0  0  0  0  0  0  0  0  0
  198.9110  182.2667  156.2352 H   0  0  0  0  0  0  0  0  0  0  0  0
  201.6093  177.7874  158.0768 H   0  0  0  0  0  0  0  0  0  0  0  0
  199.8907  177.9571  158.3014 H   0  0  0  0  0  0  0  0  0  0  0  0
  202.0499  178.0903  155.1614 H   0  0  0  0  0  0  0  0  0  0  0  0
  201.4894  176.4829  154.6921 H   0  0  0  0  0  0  0  0  0  0  0  0
  202.4789  176.6723  156.1334 H   0  0  0  0  0  0  0  0  0  0  0  0
  199.5010  178.7115  155.0466 H   0  0  0  0  0  0  0  0  0  0  0  0
  198.4044  177.7915  156.0932 H   0  0  0  0  0  0  0  0  0  0  0  0
  199.1515  177.0319  154.6771 H   0  0  0  0  0  0  0  0  0  0  0  0
  198.7136  187.0311  159.8661 H   0  0  0  0  0  0  0  0  0  0  0  0
  194.2538  184.1599  159.0410 H   0  0  0  0  0  0  0  0  0  0  0  0
  192.9902  185.4651  160.7156 H   0  0  0  0  0  0  0  0  0  0  0  0
  194.0909  187.3105  161.9732 H   0  0  0  0  0  0  0  0  0  0  0  0
  196.4581  187.8823  161.4930 H   0  0  0  0  0  0  0  0  0  0  0  0
  197.1898  180.9460  155.9889 H   0  0  0  0  0  0  0  0  0  0  0  0
  195.5116  181.2044  155.7097 H   0  0  0  0  0  0  0  0  0  0  0  0
  197.3232  181.7652  149.9489 H   0  0  0  0  0  0  0  0  0  0  0  0
  197.7430  179.3234  150.1436 H   0  0  0  0  0  0  0  0  0  0  0  0
  197.7027  178.2418  152.3720 H   0  0  0  0  0  0  0  0  0  0  0  0
  197.2290  179.5411  154.3899 H   0  0  0  0  0  0  0  0  0  0  0  0
  196.8515  184.0897  152.8575 H   0  0  0  0  0  0  0  0  0  0  0  0
  197.5896  183.9834  151.2773 H   0  0  0  0  0  0  0  0  0  0  0  0
  194.9323  183.8331  152.0566 H   0  0  0  0  0  0  0  0  0  0  0  0
  200.2157  176.4014  156.6994 H   0  0  0  0  0  0  0  0  0  0  0  0
  1  2  2  0
  2  3  1  0
  2 15  1  0
  3  4  1  0
  3 36  1  0
  4  5  1  0
  4 37  1  6
  4 38  1  0
  5  6  1  0
  5 10  2  0
  6  7  2  0
  6 39  1  0
  7  8  1  0
  7 40  1  0
  8  9  2  0
  8 11  1  0
  9 10  1  0
  9 41  1  0
 10 42  1  0
 11 12  1  0
 11 43  1  1
 11 44  1  0
 12 13  1  0
 12 14  1  0
 12 65  1  1
 13 45  1  6
 13 46  1  0
 13 47  1  0
 14 48  1  6
 14 49  1  0
 14 50  1  0
 15 16  1  0
 15 23  2  0
 16 17  1  0
 16 51  1  0
 17 18  1  0
 17 22  2  0
 18 19  2  0
 18 23  1  0
 19 20  1  0
 19 52  1  0
 20 21  2  0
 20 53  1  0
 21 22  1  0
 21 54  1  0
 22 55  1  0
 23 24  1  0
 24 25  3  0
 25 26  1  0
 26 27  1  0
 26 56  1  1
 26 57  1  0
 27 28  1  0
 28 29  1  0
 28 33  2  0
 29 30  2  0
 29 34  1  0
 30 31  1  0
 30 58  1  0
 31 32  2  0
 31 59  1  0
 32 33  1  0
 32 60  1  0
 33 61  1  0
 34 35  1  0
 34 62  1  1
 34 63  1  0
 35 64  1  0
M  CHG  1  12   1
M  END
>  <s_epik_cmdline>  (796) 
J2VwaWtfcHl0aG9uJywgJy1waCcsICc3LjAwMDAwMCcsICctcGh0JywgJzIuMDAwMDAwJywgJy1tcycsICcxNicsICctdG4nLCAnOCcsICctbWEnLCAnMjAwJywgJy1pbWFlJywgJzxpbmZpbGUubWFlPicsICctb21hZScsICc8b3V0ZmlsZS5tYWU+Jw==

>  <s_epik_input>  (796) 
W0NIM11OKFtDSDNdKVtDSDJdYyhbY0hdW2NIXTEpW2NIXVtjSF1jMVtDSDJdW05IXUMoPU8pYyhbbkhdMiljKGMoYzIzKVtjSF1bY0hdW2NIXVtjSF0zKUMjQ1tDSDJdT2M0YyhbQ0gyXVtPSF0pW2NIXVtjSF1bY0hdW2NIXTQ=

>  <s_i_glide_gridfile>  (796) 
ATP-Grid

>  <s_lp_Force_Field>  (796) 
OPLS_2005

>  <s_lp_Variant>  (796) 
rxn513b____EMOL50155899____EMOL719673____EMOL4853387-1

>  <s_lp_label>  (796) 
2370_sdstereoexpander_1_neutralizer_1_epik_1_stereoizer_1

>  <s_m_source_file>  (796) 
ATP-VSW-LIGPREP-002-in.maegz

>  <s_sd_BIOSOLVEIT.INFINISEE\_QUERY\_NAME>  (796) 
Ref-Lig

>  <s_sd_BIOSOLVEIT.INFINISEE\_QUERY\_SMILES>  (796) 
S(c1nc2c(cc1C[NH2+]Cc3ccc(cc3)C[NH+](C)C)cccc2)Cc4ccccc4

>  <s_sd_BIOSOLVEIT.INFINISEE\_REACTION\_NAME>  (796) 
rxn513b

>  <s_sd_BIOSOLVEIT.INFINISEE\_REAGENT1\_NAME>  (796) 
EMOL50155899

>  <s_sd_BIOSOLVEIT.INFINISEE\_REAGENT1\_SMILES>  (796) 
N(Cc1ccc(cc1)CN)(C)C

>  <s_sd_BIOSOLVEIT.INFINISEE\_REAGENT2\_NAME>  (796) 
EMOL719673

>  <s_sd_BIOSOLVEIT.INFINISEE\_REAGENT2\_SMILES>  (796) 
BrC=1c2c(NC1C(=O)O)cccc2

>  <s_sd_BIOSOLVEIT.INFINISEE\_REAGENT3\_NAME>  (796) 
EMOL4853387

>  <s_sd_BIOSOLVEIT.INFINISEE\_REAGENT3\_SMILES>  (796) 
O(c1c(cccc1)CO)CC#C

>  <s_sd_BIOSOLVEIT.INFINISEE\_SPACE>  (796) 
eXplore_7tr_2022-12

>  <s_vsw_compound_code>  (796) 
75810

>  <s_vsw_variant>  (796) 
75810-1

>  <r_epik_Charging_Adjusted_Penalty>  (796) 
0.0903365638524595

>  <r_epik_Ionization_Penalty>  (796) 
0.045199999999999997

>  <r_epik_Ionization_Penalty_Charging>  (796) 
0.045199999999999997

>  <r_epik_Ionization_Penalty_Neutral>  (796) 
0

>  <r_epik_State_Penalty>  (796) 
0.045199999999999997

>  <r_i_docking_score>  (796) 
-4.5515959620304596

>  <r_i_glide_ecoul>  (796) 
-11.2362327575684

>  <r_i_glide_eff_state_penalty>  (796) 
0.045199999999999997

>  <r_i_glide_einternal>  (796) 
7.3812074661254901

>  <r_i_glide_emodel>  (796) 
-58.550270421869797

>  <r_i_glide_energy>  (796) 
-44.535919189453097

>  <r_i_glide_erotb>  (796) 
0.91962988096379195

>  <r_i_glide_esite>  (796) 
-0.016202779354222901

>  <r_i_glide_evdw>  (796) 
-33.299686431884801

>  <r_i_glide_gscore>  (796) 
-4.5967959620304599

>  <r_i_glide_hbond>  (796) 
-0.251069266345815

>  <r_i_glide_ligand_efficiency>  (796) 
-0.13004559891515599

>  <r_i_glide_ligand_efficiency_ln>  (796) 
-0.99917633089539803

>  <r_i_glide_ligand_efficiency_sa>  (796) 
-0.42538777689552998

>  <r_i_glide_lipo>  (796) 
-1.45367052372169

>  <r_i_glide_metal>  (796) 
-0

>  <r_i_glide_rewards>  (796) 
-0.44506403834303099

>  <r_lp_Energy>  (796) 
15.52511

>  <r_lp_tautomer_probability>  (796) 
1

>  <r_qp_ACxDN^.5/SA>  (796) 
0.0161618

>  <r_qp_CIQPlogS>  (796) 
-6.0030000000000001

>  <r_qp_EA(eV)>  (796) 
0.66600000000000004

>  <r_qp_FISA>  (796) 
128.18899999999999

>  <r_qp_FOSA>  (796) 
236.08500000000001

>  <r_qp_IP(eV)>  (796) 
8.4060000000000006

>  <r_qp_Jm>  (796) 
0.010685925422317799

>  <r_qp_PISA>  (796) 
380.55399999999997

>  <r_qp_PSA>  (796) 
84.143000000000001

>  <r_qp_PercentHumanOralAbsorption>  (796) 
90.227000000000004

>  <r_qp_QPPCaco>  (796) 
150.37799999999999

>  <r_qp_QPPMDCK>  (796) 
70.609999999999999

>  <r_qp_QPlogBB>  (796) 
-0.94799999999999995

>  <r_qp_QPlogHERG>  (796) 
-6.8579999999999997

>  <r_qp_QPlogKhsa>  (796) 
0.61799999999999999

>  <r_qp_QPlogKp>  (796) 
-3.548

>  <r_qp_QPlogPC16>  (796) 
15.797000000000001

>  <r_qp_QPlogPo/w>  (796) 
4.1520000000000001

>  <r_qp_QPlogPoct>  (796) 
24.27

>  <r_qp_QPlogPw>  (796) 
13.785

>  <r_qp_QPlogS>  (796) 
-4.093

>  <r_qp_QPpolrz>  (796) 
48.039000000000001

>  <r_qp_SASA>  (796) 
744.82799999999997

>  <r_qp_SAamideO>  (796) 
0

>  <r_qp_SAfluorine>  (796) 
0

>  <r_qp_WPSA>  (796) 
0

>  <r_qp_accptHB>  (796) 
6.9500000000000002

>  <r_qp_dip^2/V>  (796) 
0.0040197000000000002

>  <r_qp_dipole>  (796) 
2.4060000000000001

>  <r_qp_donorHB>  (796) 
3

>  <r_qp_glob>  (796) 
0.82790569999999997

>  <r_qp_mol_MW>  (796) 
467.56599999999997

>  <r_qp_volume>  (796) 
1439.817

>  <r_sd_BIOSOLVEIT.INFINISEE\_FTREES\_SIMILARITY>  (796) 
0.91900000000000004

>  <r_sd_BIOSOLVEIT.LOGP>  (796) 
2.6652

>  <r_sd_BIOSOLVEIT.MOLECULAR\_WEIGHT>  (796) 
468.57400000000001

>  <r_sd_BIOSOLVEIT.TPSA>  (796) 
78.790000000000006

>  <i_epik_Tot_Q>  (796) 
1

>  <i_epik_Tot_abs_Q>  (796) 
1

>  <i_f3d_flags>  (796) 
0

>  <i_i_glide_confnum>  (796) 
6

>  <i_i_glide_lignum>  (796) 
976

>  <i_i_glide_posenum>  (796) 
1

>  <i_i_glide_rotatable_bonds>  (796) 
12

>  <i_lp_mmshare_version>  (796) 
65135

>  <i_m_ct_format>  (796) 
2

>  <i_m_source_file_index>  (796) 
2370

>  <i_qp_#NandO>  (796) 
6

>  <i_qp_#acid>  (796) 
0

>  <i_qp_#amide>  (796) 
0

>  <i_qp_#amidine>  (796) 
0

>  <i_qp_#amine>  (796) 
1

>  <i_qp_#in34>  (796) 
0

>  <i_qp_#in56>  (796) 
21

>  <i_qp_#metab>  (796) 
6

>  <i_qp_#nonHatm>  (796) 
35

>  <i_qp_#noncon>  (796) 
0

>  <i_qp_#ringatoms>  (796) 
21

>  <i_qp_#rotor>  (796) 
11

>  <i_qp_#rtvFG>  (796) 
0

>  <i_qp_#stars>  (796) 
0

>  <i_qp_CNS>  (796) 
-1

>  <i_qp_HumanOralAbsorption>  (796) 
3

>  <i_qp_RuleOfFive>  (796) 
0

>  <i_qp_RuleOfThree>  (796) 
0

>  <i_sd_BIOSOLVEIT.INFINISEE\_RESULT\_RANK>  (796) 
17747

>  <i_sd_version>  (796) 
0

>  <b_lp_Chiralities_Consistent>  (796) 
1

>  <b_sd_chiral_flag>  (796) 
0

>  <canonical_id>  (796) 
ATP-HTVS-7CF383CE087B

>  <compound_code>  (796) 
75810

>  <title>  (796) 
rxn513b____EMOL50155899____EMOL719673____EMOL4853387

>  <variant>  (796) 
75810-1

>  <source_file>  (796) 
运行/运行/ATP-VSW/ATP-VSW-DOCK_HTVS_1-002_lib.maegz

>  <canonical_smiles>  (796) 
C[NH+](C)Cc1ccc(CNC(=O)c2[nH]c3ccccc3c2C#CCOc2ccccc2CO)cc1

>  <scaffold>  (796) 
O=C(NCc1ccccc1)c1[nH]c2ccccc2c1C#CCOc1ccccc1

>  <molecular_formula>  (796) 
C29H30N3O3+

$$$$
ATP-HTVS-7D198ACE4CB8
     RDKit          3D

 62 65  0  0  0  0  0  0  0  0999 V2000
  200.7535  177.7371  158.1145 O   0  0  0  0  0  0  0  0  0  0  0  0
  200.5959  177.4383  156.9078 C   0  0  0  0  0  0  0  0  0  0  0  0
  200.3450  176.3037  156.4478 O   0  0  0  0  0  0  0  0  0  0  0  0
  200.6766  178.5968  155.8883 C   0  0  2  0  0  0  0  0  0  0  0  0
  199.2693  179.0214  155.4194 C   0  0  1  0  0  0  0  0  0  0  0  0
  198.4487  179.6871  156.4593 N   0  0  1  0  0  0  0  0  0  0  0  0
  197.5465  180.7509  155.9449 C   0  0  1  0  0  0  0  0  0  0  0  0
  197.3055  181.8431  156.9652 C   0  0  0  0  0  0  0  0  0  0  0  0
  198.3978  182.5757  157.4707 C   0  0  0  0  0  0  0  0  0  0  0  0
  198.2030  183.5978  158.4345 C   0  0  0  0  0  0  0  0  0  0  0  0
  199.2382  184.3121  159.0023 O   0  0  0  0  0  0  0  0  0  0  0  0
  200.5766  183.9016  158.7542 C   0  0  1  0  0  0  0  0  0  0  0  0
  201.5230  184.4467  159.8009 C   0  0  0  0  0  0  0  0  0  0  0  0
  202.5037  183.6042  160.3647 C   0  0  0  0  0  0  0  0  0  0  0  0
  203.3879  184.1036  161.3385 C   0  0  0  0  0  0  0  0  0  0  0  0
  203.2952  185.4480  161.7489 C   0  0  0  0  0  0  0  0  0  0  0  0
  202.3194  186.2920  161.1846 C   0  0  0  0  0  0  0  0  0  0  0  0
  201.4347  185.7929  160.2093 C   0  0  0  0  0  0  0  0  0  0  0  0
  196.8857  183.8917  158.8580 C   0  0  0  0  0  0  0  0  0  0  0  0
  195.7861  183.1605  158.3368 C   0  0  0  0  0  0  0  0  0  0  0  0
  196.0001  182.1423  157.3917 C   0  0  0  0  0  0  0  0  0  0  0  0
  194.4755  183.4496  158.7626 C   0  0  0  0  0  0  0  0  0  0  0  0
  194.2478  184.4713  159.7047 C   0  0  0  0  0  0  0  0  0  0  0  0
  195.3294  185.2063  160.2196 C   0  0  0  0  0  0  0  0  0  0  0  0
  196.6423  184.9169  159.8031 C   0  0  0  0  0  0  0  0  0  0  0  0
  201.6373  178.3027  154.6955 C   0  0  1  0  0  0  0  0  0  0  0  0
  201.3121  177.0686  153.8544 C   0  0  0  0  0  0  0  0  0  0  0  0
  200.3969  177.0873  152.7660 C   0  0  0  0  0  0  0  0  0  0  0  0
  200.1239  175.8860  152.0649 C   0  0  0  0  0  0  0  0  0  0  0  0
  200.7608  174.6868  152.4125 C   0  0  0  0  0  0  0  0  0  0  0  0
  201.6953  174.6732  153.4731 C   0  0  0  0  0  0  0  0  0  0  0  0
  201.9648  175.8577  154.1847 C   0  0  0  0  0  0  0  0  0  0  0  0
  199.6443  178.3504  152.3369 C   0  0  2  0  0  0  0  0  0  0  0  0
  197.8927  178.9800  156.9594 H   0  0  0  0  0  0  0  0  0  0  0  0
  201.1185  179.4388  156.4265 H   0  0  0  0  0  0  0  0  0  0  0  0
  199.4318  179.6786  154.5714 H   0  0  0  0  0  0  0  0  0  0  0  0
  198.7137  178.1752  155.0289 H   0  0  0  0  0  0  0  0  0  0  0  0
  197.9767  181.2528  155.0754 H   0  0  0  0  0  0  0  0  0  0  0  0
  196.6080  180.3104  155.5988 H   0  0  0  0  0  0  0  0  0  0  0  0
  199.3858  182.3265  157.1135 H   0  0  0  0  0  0  0  0  0  0  0  0
  200.6634  182.8147  158.7729 H   0  0  0  0  0  0  0  0  0  0  0  0
  200.8967  184.2513  157.7713 H   0  0  0  0  0  0  0  0  0  0  0  0
  202.5790  182.5720  160.0544 H   0  0  0  0  0  0  0  0  0  0  0  0
  204.1372  183.4552  161.7675 H   0  0  0  0  0  0  0  0  0  0  0  0
  203.9744  185.8310  162.4961 H   0  0  0  0  0  0  0  0  0  0  0  0
  202.2452  187.3224  161.5007 H   0  0  0  0  0  0  0  0  0  0  0  0
  200.6844  186.4426  159.7821 H   0  0  0  0  0  0  0  0  0  0  0  0
  195.1612  181.5925  156.9897 H   0  0  0  0  0  0  0  0  0  0  0  0
  193.6390  182.9010  158.3525 H   0  0  0  0  0  0  0  0  0  0  0  0
  193.2388  184.6998  160.0143 H   0  0  0  0  0  0  0  0  0  0  0  0
  195.1524  185.9959  160.9347 H   0  0  0  0  0  0  0  0  0  0  0  0
  197.4592  185.4897  160.2162 H   0  0  0  0  0  0  0  0  0  0  0  0
  201.6962  179.1770  154.0461 H   0  0  0  0  0  0  0  0  0  0  0  0
  202.6505  178.2010  155.0827 H   0  0  0  0  0  0  0  0  0  0  0  0
  199.3965  175.8797  151.2718 H   0  0  0  0  0  0  0  0  0  0  0  0
  200.5252  173.7686  151.8871 H   0  0  0  0  0  0  0  0  0  0  0  0
  202.1727  173.7355  153.7597 H   0  0  0  0  0  0  0  0  0  0  0  0
  202.6866  175.8226  154.9887 H   0  0  0  0  0  0  0  0  0  0  0  0
  199.1251  178.1678  151.3782 H   0  0  0  0  0  0  0  0  0  0  0  0
  200.3560  179.1620  152.1384 H   0  0  0  0  0  0  0  0  0  0  0  0
  198.9247  178.6894  153.0832 H   0  0  0  0  0  0  0  0  0  0  0  0
  199.0572  180.0871  157.1619 H   0  0  0  0  0  0  0  0  0  0  0  0
  1  2  1  0
  2  3  2  0
  2  4  1  0
  4  5  1  0
  4 26  1  0
  4 35  1  1
  5  6  1  0
  5 36  1  6
  5 37  1  0
  6  7  1  0
  6 34  1  1
  6 62  1  0
  7  8  1  0
  7 38  1  6
  7 39  1  0
  8  9  1  0
  8 21  2  0
  9 10  2  0
  9 40  1  0
 10 11  1  0
 10 19  1  0
 11 12  1  0
 12 13  1  0
 12 41  1  6
 12 42  1  0
 13 14  2  0
 13 18  1  0
 14 15  1  0
 14 43  1  0
 15 16  2  0
 15 44  1  0
 16 17  1  0
 16 45  1  0
 17 18  2  0
 17 46  1  0
 18 47  1  0
 19 20  1  0
 19 25  2  0
 20 21  1  0
 20 22  2  0
 21 48  1  0
 22 23  1  0
 22 49  1  0
 23 24  2  0
 23 50  1  0
 24 25  1  0
 24 51  1  0
 25 52  1  0
 26 27  1  0
 26 53  1  6
 26 54  1  0
 27 28  1  0
 27 32  2  0
 28 29  2  0
 28 33  1  0
 29 30  1  0
 29 55  1  0
 30 31  2  0
 30 56  1  0
 31 32  1  0
 31 57  1  0
 32 58  1  0
 33 59  1  6
 33 60  1  0
 33 61  1  0
M  CHG  2   1  -1   6   1
M  END
>  <s_epik_cmdline>  (797) 
J2VwaWtfcHl0aG9uJywgJy1waCcsICc3LjAwMDAwMCcsICctcGh0JywgJzIuMDAwMDAwJywgJy1tcycsICcxNicsICctdG4nLCAnOCcsICctbWEnLCAnMjAwJywgJy1pbWFlJywgJzxpbmZpbGUubWFlPicsICctb21hZScsICc8b3V0ZmlsZS5tYWU+Jw==

>  <s_epik_input>  (797) 
W2NIXTFbY0hdW2NIXVtjSF1jKFtDSDNdKWMxW0NIMl1bQ0BIXShDKD1PKVtPSF0pW0NIMl1bTkhdW0NIMl1jKFtjSF1jKGMyMylbY0hdW2NIXVtjSF1bY0hdMylbY0hdYzJPW0NIMl1jNFtjSF1bY0hdW2NIXVtjSF1bY0hdNA==

>  <s_i_glide_gridfile>  (797) 
ATP-Grid

>  <s_lp_Force_Field>  (797) 
OPLS_2005

>  <s_lp_Variant>  (797) 
m_271304bba____9304166____13059962-2

>  <s_lp_label>  (797) 
1580_sdstereoexpander_2_neutralizer_1_epik_1_stereoizer_1

>  <s_m_source_file>  (797) 
ATP-VSW-LIGPREP-001-in.maegz

>  <s_sd_BIOSOLVEIT.INFINISEE\_QUERY\_NAME>  (797) 
Ref-Lig

>  <s_sd_BIOSOLVEIT.INFINISEE\_QUERY\_SMILES>  (797) 
S(c1nc2c(cc1C[NH2+]Cc3ccc(cc3)C[NH+](C)C)cccc2)Cc4ccccc4

>  <s_sd_BIOSOLVEIT.INFINISEE\_REACTION\_NAME>  (797) 
m_271304bba

>  <s_sd_BIOSOLVEIT.INFINISEE\_REAGENT1\_SMILES>  (797) 
[R1*]NCC(C(=O)O)Cc1c(cccc1)C

>  <s_sd_BIOSOLVEIT.INFINISEE\_REAGENT2\_SMILES>  (797) 
[R1*]Cc1cc(OCc2ccccc2)c3c(c1)cccc3

>  <s_sd_BIOSOLVEIT.INFINISEE\_SPACE>  (797) 
REALSpace_44bn_2023-08

>  <s_vsw_compound_code>  (797) 
50529

>  <s_vsw_variant>  (797) 
50529-2

>  <r_epik_Charging_Adjusted_Penalty>  (797) 
0.0124655762218334

>  <r_epik_Ionization_Penalty>  (797) 
0.0064000000000000003

>  <r_epik_Ionization_Penalty_Charging>  (797) 
0.0064000000000000003

>  <r_epik_Ionization_Penalty_Neutral>  (797) 
0

>  <r_epik_State_Penalty>  (797) 
0.0060000000000000001

>  <r_i_docking_score>  (797) 
-4.01760011912656

>  <r_i_glide_ecoul>  (797) 
-5.5404243469238299

>  <r_i_glide_eff_state_penalty>  (797) 
0.0060000000000000001

>  <r_i_glide_einternal>  (797) 
7.3034954071044904

>  <r_i_glide_emodel>  (797) 
-48.040741810872198

>  <r_i_glide_energy>  (797) 
-39.614429473877003

>  <r_i_glide_erotb>  (797) 
0.92977261941215605

>  <r_i_glide_esite>  (797) 
-0.109597402033282

>  <r_i_glide_evdw>  (797) 
-34.074005126953097

>  <r_i_glide_gscore>  (797) 
-4.0236001191265602

>  <r_i_glide_hbond>  (797) 
-0.227137514759776

>  <r_i_glide_ligand_efficiency>  (797) 
-0.12174545815535

>  <r_i_glide_ligand_efficiency_ln>  (797) 
-0.89349346447363098

>  <r_i_glide_ligand_efficiency_sa>  (797) 
-0.39050273609922498

>  <r_i_glide_lipo>  (797) 
-1.66968386790488

>  <r_i_glide_metal>  (797) 
-0

>  <r_i_glide_rewards>  (797) 
-0.41219004545454402

>  <r_lp_Energy>  (797) 
15.001355999999999

>  <r_qp_ACxDN^.5/SA>  (797) 
0.0045294999999999997

>  <r_qp_CIQPlogS>  (797) 
-7.1459999999999999

>  <r_qp_EA(eV)>  (797) 
0.443

>  <r_qp_FISA>  (797) 
98.799000000000007

>  <r_qp_FOSA>  (797) 
134.608

>  <r_qp_IP(eV)>  (797) 
8.1340000000000003

>  <r_qp_Jm>  (797) 
0.00084082196254341699

>  <r_qp_PISA>  (797) 
484.11799999999999

>  <r_qp_PSA>  (797) 
65.798000000000002

>  <r_qp_PercentHumanOralAbsorption>  (797) 
87.591999999999999

>  <r_qp_QPPCaco>  (797) 
72.358999999999995

>  <r_qp_QPPMDCK>  (797) 
40.729999999999997

>  <r_qp_QPlogBB>  (797) 
-0.57599999999999996

>  <r_qp_QPlogHERG>  (797) 
-5.3630000000000004

>  <r_qp_QPlogKhsa>  (797) 
1.2070000000000001

>  <r_qp_QPlogKp>  (797) 
-2.7370000000000001

>  <r_qp_QPlogPC16>  (797) 
15.397

>  <r_qp_QPlogPo/w>  (797) 
4.6740000000000004

>  <r_qp_QPlogPoct>  (797) 
19.722999999999999

>  <r_qp_QPlogPw>  (797) 
7.8710000000000004

>  <r_qp_QPlogS>  (797) 
-5.9809999999999999

>  <r_qp_QPpolrz>  (797) 
47.640000000000001

>  <r_qp_SASA>  (797) 
717.524

>  <r_qp_SAamideO>  (797) 
0

>  <r_qp_SAfluorine>  (797) 
0

>  <r_qp_WPSA>  (797) 
0

>  <r_qp_accptHB>  (797) 
3.25

>  <r_qp_dip^2/V>  (797) 
0.034336899999999997

>  <r_qp_dipole>  (797) 
6.9059999999999997

>  <r_qp_donorHB>  (797) 
1

>  <r_qp_glob>  (797) 
0.83910790000000002

>  <r_qp_mol_MW>  (797) 
439.553

>  <r_qp_volume>  (797) 
1389.1020000000001

>  <r_sd_BIOSOLVEIT.INFINISEE\_FTREES\_SIMILARITY>  (797) 
0.90600000000000003

>  <r_sd_BIOSOLVEIT.LOGP>  (797) 
3.3994200000000001

>  <r_sd_BIOSOLVEIT.MOLECULAR\_WEIGHT>  (797) 
439.55200000000002

>  <r_sd_BIOSOLVEIT.TPSA>  (797) 
65.969999999999999

>  <i_epik_Tot_Q>  (797) 
0

>  <i_epik_Tot_abs_Q>  (797) 
2

>  <i_f3d_flags>  (797) 
0

>  <i_i_glide_confnum>  (797) 
11

>  <i_i_glide_lignum>  (797) 
422

>  <i_i_glide_posenum>  (797) 
15

>  <i_i_glide_rotatable_bonds>  (797) 
10

>  <i_lp_mmshare_version>  (797) 
65135

>  <i_m_ct_format>  (797) 
2

>  <i_m_source_file_index>  (797) 
1580

>  <i_qp_#NandO>  (797) 
4

>  <i_qp_#acid>  (797) 
1

>  <i_qp_#amide>  (797) 
0

>  <i_qp_#amidine>  (797) 
0

>  <i_qp_#amine>  (797) 
1

>  <i_qp_#in34>  (797) 
0

>  <i_qp_#in56>  (797) 
22

>  <i_qp_#metab>  (797) 
7

>  <i_qp_#nonHatm>  (797) 
33

>  <i_qp_#noncon>  (797) 
0

>  <i_qp_#ringatoms>  (797) 
22

>  <i_qp_#rotor>  (797) 
10

>  <i_qp_#rtvFG>  (797) 
0

>  <i_qp_#stars>  (797) 
1

>  <i_qp_CNS>  (797) 
0

>  <i_qp_HumanOralAbsorption>  (797) 
3

>  <i_qp_RuleOfFive>  (797) 
0

>  <i_qp_RuleOfThree>  (797) 
2

>  <i_sd_BIOSOLVEIT.INFINISEE\_REAGENT1\_NAME>  (797) 
9304166

>  <i_sd_BIOSOLVEIT.INFINISEE\_REAGENT2\_NAME>  (797) 
13059962

>  <i_sd_BIOSOLVEIT.INFINISEE\_RESULT\_RANK>  (797) 
64468

>  <i_sd_version>  (797) 
0

>  <b_lp_Chiralities_Consistent>  (797) 
1

>  <b_sd_chiral_flag>  (797) 
0

>  <canonical_id>  (797) 
ATP-HTVS-7D198ACE4CB8

>  <compound_code>  (797) 
50529

>  <title>  (797) 
m_271304bba____9304166____13059962

>  <variant>  (797) 
50529-2

>  <source_file>  (797) 
运行/运行/ATP-VSW/ATP-VSW-DOCK_HTVS_1-001_lib/ATP-VSW-DOCK_HTVS_1-001_lib

>  <canonical_smiles>  (797) 
Cc1ccccc1C[C@@H](C[NH2+]Cc1cc(OCc2ccccc2)c2ccccc2c1)C(=O)[O-]

>  <scaffold>  (797) 
c1ccc(CCC[NH2+]Cc2cc(OCc3ccccc3)c3ccccc3c2)cc1

>  <molecular_formula>  (797) 
C29H29NO3

$$$$
ATP-HTVS-7D1C8522A3FA
     RDKit          3D

 61 64  0  0  0  0  0  0  0  0999 V2000
  199.1621  185.5512  150.6400 Br  0  0  0  0  0  0  0  0  0  0  0  0
  198.6693  185.0430  152.4004 C   0  0  0  0  0  0  0  0  0  0  0  0
  198.4400  183.6881  152.6927 C   0  0  0  0  0  0  0  0  0  0  0  0
  198.0403  183.2717  153.9906 C   0  0  0  0  0  0  0  0  0  0  0  0
  197.9070  184.2602  155.0073 C   0  0  0  0  0  0  0  0  0  0  0  0
  197.5146  183.9271  156.3296 N   0  0  0  0  0  0  0  0  0  0  0  0
  197.9317  182.8677  157.0357 C   0  0  0  0  0  0  0  0  0  0  0  0
  197.5043  182.6411  158.1594 O   0  0  0  0  0  0  0  0  0  0  0  0
  199.0140  181.9642  156.4256 C   0  0  1  0  0  0  0  0  0  0  0  0
  198.6132  181.1448  155.2428 N   0  0  0  0  0  0  0  0  0  0  0  0
  197.6910  181.8024  154.2928 C   0  0  2  0  0  0  0  0  0  0  0  0
  197.5927  180.9984  152.9865 C   0  0  0  0  0  0  0  0  0  0  0  0
  198.7081  180.2765  152.5067 C   0  0  0  0  0  0  0  0  0  0  0  0
  198.6367  179.5464  151.3052 C   0  0  0  0  0  0  0  0  0  0  0  0
  197.4520  179.5601  150.5463 C   0  0  0  0  0  0  0  0  0  0  0  0
  196.3447  180.3023  150.9955 C   0  0  0  0  0  0  0  0  0  0  0  0
  196.4113  181.0221  152.2092 C   0  0  0  0  0  0  0  0  0  0  0  0
  198.1147  179.8266  155.6631 C   0  0  1  0  0  0  0  0  0  0  0  0
  199.2285  178.7963  155.8103 C   0  0  0  0  0  0  0  0  0  0  0  0
  199.9978  178.7370  156.9847 C   0  0  0  0  0  0  0  0  0  0  0  0
  200.9781  177.7459  157.1318 C   0  0  0  0  0  0  0  0  0  0  0  0
  201.1724  176.7731  156.1329 C   0  0  0  0  0  0  0  0  0  0  0  0
  202.1291  175.8216  156.3855 O   0  0  0  0  0  0  0  0  0  0  0  0
  201.9500  174.5342  155.8425 C   0  0  1  0  0  0  0  0  0  0  0  0
  202.5376  174.4107  154.4241 C   0  0  1  0  0  0  0  0  0  0  0  0
  202.3818  173.0499  153.8460 N   0  0  2  0  0  0  0  0  0  0  0  0
  203.1320  172.9285  152.5801 C   0  0  2  0  0  0  0  0  0  0  0  0
  200.9697  172.6453  153.6698 C   0  0  2  0  0  0  0  0  0  0  0  0
  200.3994  176.8278  154.9522 C   0  0  0  0  0  0  0  0  0  0  0  0
  199.4629  177.8605  154.7765 C   0  0  0  0  0  0  0  0  0  0  0  0
  198.1315  185.6187  154.7040 C   0  0  0  0  0  0  0  0  0  0  0  0
  198.5168  186.0141  153.4062 C   0  0  0  0  0  0  0  0  0  0  0  0
  198.5625  182.9915  151.8740 H   0  0  0  0  0  0  0  0  0  0  0  0
  196.9266  184.5795  156.8203 H   0  0  0  0  0  0  0  0  0  0  0  0
  199.8618  182.5894  156.1335 H   0  0  0  0  0  0  0  0  0  0  0  0
  199.4098  181.3354  157.2258 H   0  0  0  0  0  0  0  0  0  0  0  0
  196.6948  181.8005  154.7411 H   0  0  0  0  0  0  0  0  0  0  0  0
  199.6383  180.2703  153.0562 H   0  0  0  0  0  0  0  0  0  0  0  0
  199.5036  178.9940  150.9730 H   0  0  0  0  0  0  0  0  0  0  0  0
  197.4087  179.0166  149.6178 H   0  0  0  0  0  0  0  0  0  0  0  0
  195.4413  180.3381  150.4042 H   0  0  0  0  0  0  0  0  0  0  0  0
  195.5655  181.6145  152.5336 H   0  0  0  0  0  0  0  0  0  0  0  0
  197.5359  179.9053  156.5866 H   0  0  0  0  0  0  0  0  0  0  0  0
  197.4072  179.4026  154.9515 H   0  0  0  0  0  0  0  0  0  0  0  0
  199.8043  179.4063  157.8076 H   0  0  0  0  0  0  0  0  0  0  0  0
  201.5510  177.7019  158.0432 H   0  0  0  0  0  0  0  0  0  0  0  0
  202.4834  173.8556  156.4951 H   0  0  0  0  0  0  0  0  0  0  0  0
  200.9014  174.2718  155.9008 H   0  0  0  0  0  0  0  0  0  0  0  0
  202.1010  175.1362  153.7287 H   0  0  0  0  0  0  0  0  0  0  0  0
  203.6050  174.6525  154.4765 H   0  0  0  0  0  0  0  0  0  0  0  0
  202.7346  173.6200  151.8366 H   0  0  0  0  0  0  0  0  0  0  0  0
  203.0668  171.9166  152.1810 H   0  0  0  0  0  0  0  0  0  0  0  0
  204.1841  173.1678  152.7320 H   0  0  0  0  0  0  0  0  0  0  0  0
  200.4392  173.3238  153.0026 H   0  0  0  0  0  0  0  0  0  0  0  0
  200.4161  172.6145  154.6064 H   0  0  0  0  0  0  0  0  0  0  0  0
  200.9209  171.6473  153.2409 H   0  0  0  0  0  0  0  0  0  0  0  0
  200.4908  176.0875  154.1640 H   0  0  0  0  0  0  0  0  0  0  0  0
  198.8851  177.9100  153.8705 H   0  0  0  0  0  0  0  0  0  0  0  0
  198.0183  186.3711  155.4716 H   0  0  0  0  0  0  0  0  0  0  0  0
  198.6839  187.0547  153.1792 H   0  0  0  0  0  0  0  0  0  0  0  0
  202.7942  172.3651  154.4680 H   0  0  0  0  0  0  0  0  0  0  0  0
  1  2  1  0
  2  3  2  0
  2 32  1  0
  3  4  1  0
  3 33  1  0
  4  5  2  0
  4 11  1  0
  5  6  1  0
  5 31  1  0
  6  7  1  0
  6 34  1  0
  7  8  2  0
  7  9  1  0
  9 10  1  0
  9 35  1  6
  9 36  1  0
 10 11  1  0
 10 18  1  0
 11 12  1  0
 11 37  1  1
 12 13  2  0
 12 17  1  0
 13 14  1  0
 13 38  1  0
 14 15  2  0
 14 39  1  0
 15 16  1  0
 15 40  1  0
 16 17  2  0
 16 41  1  0
 17 42  1  0
 18 19  1  0
 18 43  1  1
 18 44  1  0
 19 20  1  0
 19 30  2  0
 20 21  2  0
 20 45  1  0
 21 22  1  0
 21 46  1  0
 22 23  1  0
 22 29  2  0
 23 24  1  0
 24 25  1  0
 24 47  1  1
 24 48  1  0
 25 26  1  0
 25 49  1  6
 25 50  1  0
 26 27  1  0
 26 28  1  0
 26 61  1  1
 27 51  1  6
 27 52  1  0
 27 53  1  0
 28 54  1  6
 28 55  1  0
 28 56  1  0
 29 30  1  0
 29 57  1  0
 30 58  1  0
 31 32  2  0
 31 59  1  0
 32 60  1  0
M  CHG  1  26   1
M  END
>  <s_epik_cmdline>  (798) 
J2VwaWtfcHl0aG9uJywgJy1waCcsICc3LjAwMDAwMCcsICctcGh0JywgJzIuMDAwMDAwJywgJy1tcycsICcxNicsICctdG4nLCAnOCcsICctbWEnLCAnMjAwJywgJy1pbWFlJywgJzxpbmZpbGUubWFlPicsICctb21hZScsICc8b3V0ZmlsZS5tYWU+Jw==

>  <s_epik_input>  (798) 
QnJjKFtjSF0xKVtjSF1bY0hdYyhjMTIpW05IXUMoPU8pW0NIMl1OKFtDQEBIXTJjM1tjSF1bY0hdW2NIXVtjSF1bY0hdMylbQ0gyXWM0W2NIXVtjSF1jKFtjSF1bY0hdNClPW0NIMl1bQ0gyXU4oW0NIM10pW0NIM10=

>  <s_i_glide_gridfile>  (798) 
ATP-Grid

>  <s_lp_Force_Field>  (798) 
OPLS_2005

>  <s_lp_Variant>  (798) 
m_270004bda____24170772____7548352-1

>  <s_lp_label>  (798) 
864_sdstereoexpander_1_neutralizer_1_epik_1_stereoizer_1

>  <s_m_source_file>  (798) 
ATP-VSW-LIGPREP-003-in.maegz

>  <s_sd_BIOSOLVEIT.INFINISEE\_QUERY\_NAME>  (798) 
Ref-Lig

>  <s_sd_BIOSOLVEIT.INFINISEE\_QUERY\_SMILES>  (798) 
S(c1nc2c(cc1C[NH2+]Cc3ccc(cc3)C[NH+](C)C)cccc2)Cc4ccccc4

>  <s_sd_BIOSOLVEIT.INFINISEE\_REACTION\_NAME>  (798) 
m_270004bda

>  <s_sd_BIOSOLVEIT.INFINISEE\_REAGENT1\_SMILES>  (798) 
[R1*]N1C(c2c(NC(=O)C1)ccc(Br)c2)c3ccccc3

>  <s_sd_BIOSOLVEIT.INFINISEE\_REAGENT2\_SMILES>  (798) 
[R1*]Cc1ccc(OCCN(C)C)cc1

>  <s_sd_BIOSOLVEIT.INFINISEE\_SPACE>  (798) 
REALSpace_44bn_2023-08

>  <s_vsw_compound_code>  (798) 
27619

>  <s_vsw_variant>  (798) 
27619-1

>  <r_epik_Charging_Adjusted_Penalty>  (798) 
0.056943457182839899

>  <r_epik_Ionization_Penalty>  (798) 
0.032099999999999997

>  <r_epik_Ionization_Penalty_Charging>  (798) 
0.024799999999999999

>  <r_epik_Ionization_Penalty_Neutral>  (798) 
0.0073000000000000001

>  <r_epik_State_Penalty>  (798) 
0.032099999999999997

>  <r_i_docking_score>  (798) 
-1.64612587880599

>  <r_i_glide_ecoul>  (798) 
-4.8827662467956499

>  <r_i_glide_eff_state_penalty>  (798) 
0.032099999999999997

>  <r_i_glide_einternal>  (798) 
3.59820485115051

>  <r_i_glide_emodel>  (798) 
-42.431073769250901

>  <r_i_glide_energy>  (798) 
-38.111030101776102

>  <r_i_glide_erotb>  (798) 
0.49831290830664998

>  <r_i_glide_esite>  (798) 
-0.113032309088649

>  <r_i_glide_evdw>  (798) 
-33.228263854980497

>  <r_i_glide_gscore>  (798) 
-1.6782258788059901

>  <r_i_glide_hbond>  (798) 
-0.0429092308741814

>  <r_i_glide_ligand_efficiency>  (798) 
-0.0514414337126873

>  <r_i_glide_ligand_efficiency_ln>  (798) 
-0.36861245596139702

>  <r_i_glide_ligand_efficiency_sa>  (798) 
-0.163316371791874

>  <r_i_glide_lipo>  (798) 
-1.28786388213551

>  <r_i_glide_metal>  (798) 
-0

>  <r_i_glide_rewards>  (798) 
1.6610947647540699

>  <r_lp_Energy>  (798) 
47.648726000000003

>  <r_lp_tautomer_probability>  (798) 
1

>  <r_qp_ACxDN^.5/SA>  (798) 
0.0090454000000000003

>  <r_qp_CIQPlogS>  (798) 
-5.2169999999999996

>  <r_qp_EA(eV)>  (798) 
0.51800000000000002

>  <r_qp_FISA>  (798) 
73.914000000000001

>  <r_qp_FOSA>  (798) 
273.89699999999999

>  <r_qp_IP(eV)>  (798) 
8.9879999999999995

>  <r_qp_Jm>  (798) 
3.62161987883192e-05

>  <r_qp_PISA>  (798) 
376.81599999999997

>  <r_qp_PSA>  (798) 
55.744

>  <r_qp_PercentHumanOralAbsorption>  (798) 
90.216999999999999

>  <r_qp_QPPCaco>  (798) 
122.679

>  <r_qp_QPPMDCK>  (798) 
165.33500000000001

>  <r_qp_QPlogBB>  (798) 
0.35399999999999998

>  <r_qp_QPlogHERG>  (798) 
-8.5199999999999996

>  <r_qp_QPlogKhsa>  (798) 
0.80800000000000005

>  <r_qp_QPlogKp>  (798) 
-5.1029999999999998

>  <r_qp_QPlogPC16>  (798) 
15.733000000000001

>  <r_qp_QPlogPo/w>  (798) 
4.4210000000000003

>  <r_qp_QPlogPoct>  (798) 
22.681000000000001

>  <r_qp_QPlogPw>  (798) 
12.023

>  <r_qp_QPlogS>  (798) 
-5.032

>  <r_qp_QPpolrz>  (798) 
51.170999999999999

>  <r_qp_SASA>  (798) 
801.51499999999999

>  <r_qp_SAamideO>  (798) 
0

>  <r_qp_SAfluorine>  (798) 
0

>  <r_qp_WPSA>  (798) 
76.887

>  <r_qp_accptHB>  (798) 
7.25

>  <r_qp_dip^2/V>  (798) 
0.0091523999999999998

>  <r_qp_dipole>  (798) 
3.629

>  <r_qp_donorHB>  (798) 
1

>  <r_qp_glob>  (798) 
0.76897490000000002

>  <r_qp_mol_MW>  (798) 
494.43000000000001

>  <r_qp_volume>  (798) 
1438.758

>  <r_sd_BIOSOLVEIT.INFINISEE\_FTREES\_SIMILARITY>  (798) 
0.92000000000000004

>  <r_sd_BIOSOLVEIT.LOGP>  (798) 
2.0990000000000002

>  <r_sd_BIOSOLVEIT.MOLECULAR\_WEIGHT>  (798) 
496.44600000000003

>  <r_sd_BIOSOLVEIT.TPSA>  (798) 
47.210000000000001

>  <i_epik_Tot_Q>  (798) 
1

>  <i_epik_Tot_abs_Q>  (798) 
1

>  <i_f3d_flags>  (798) 
0

>  <i_i_glide_confnum>  (798) 
12

>  <i_i_glide_lignum>  (798) 
337

>  <i_i_glide_posenum>  (798) 
11

>  <i_i_glide_rotatable_bonds>  (798) 
7

>  <i_lp_mmshare_version>  (798) 
65135

>  <i_m_ct_format>  (798) 
2

>  <i_m_source_file_index>  (798) 
864

>  <i_qp_#NandO>  (798) 
5

>  <i_qp_#acid>  (798) 
0

>  <i_qp_#amide>  (798) 
0

>  <i_qp_#amidine>  (798) 
0

>  <i_qp_#amine>  (798) 
2

>  <i_qp_#in34>  (798) 
0

>  <i_qp_#in56>  (798) 
18

>  <i_qp_#metab>  (798) 
8

>  <i_qp_#nonHatm>  (798) 
32

>  <i_qp_#noncon>  (798) 
2

>  <i_qp_#ringatoms>  (798) 
23

>  <i_qp_#rotor>  (798) 
6

>  <i_qp_#rtvFG>  (798) 
0

>  <i_qp_#stars>  (798) 
0

>  <i_qp_CNS>  (798) 
1

>  <i_qp_HumanOralAbsorption>  (798) 
3

>  <i_qp_RuleOfFive>  (798) 
0

>  <i_qp_RuleOfThree>  (798) 
1

>  <i_sd_BIOSOLVEIT.INFINISEE\_REAGENT1\_NAME>  (798) 
24170772

>  <i_sd_BIOSOLVEIT.INFINISEE\_REAGENT2\_NAME>  (798) 
7548352

>  <i_sd_BIOSOLVEIT.INFINISEE\_RESULT\_RANK>  (798) 
16045

>  <i_sd_version>  (798) 
0

>  <b_lp_Chiralities_Consistent>  (798) 
1

>  <b_sd_chiral_flag>  (798) 
0

>  <canonical_id>  (798) 
ATP-HTVS-7D1C8522A3FA

>  <compound_code>  (798) 
27619

>  <title>  (798) 
m_270004bda____24170772____7548352

>  <variant>  (798) 
27619-1

>  <source_file>  (798) 
运行/运行/ATP-VSW/ATP-VSW-DOCK_HTVS_1-003_lib/ATP-VSW-DOCK_HTVS_1-003_lib.mae

>  <canonical_smiles>  (798) 
C[NH+](C)CCOc1ccc(CN2CC(=O)Nc3ccc(Br)cc3[C@H]2c2ccccc2)cc1

>  <scaffold>  (798) 
O=C1CN(Cc2ccccc2)C(c2ccccc2)c2ccccc2N1

>  <molecular_formula>  (798) 
C26H29BrN3O2+

$$$$
ATP-HTVS-7D663BEE19BA
     RDKit          3D

 60 63  0  0  0  0  0  0  0  0999 V2000
  198.8384  184.4971  159.6289 F   0  0  0  0  0  0  0  0  0  0  0  0
  198.0013  183.9059  158.7445 C   0  0  0  0  0  0  0  0  0  0  0  0
  197.0101  183.0249  159.2004 C   0  0  0  0  0  0  0  0  0  0  0  0
  196.1825  182.3631  158.2844 C   0  0  0  0  0  0  0  0  0  0  0  0
  195.2401  181.4659  158.7016 O   0  0  0  0  0  0  0  0  0  0  0  0
  196.3257  182.6285  156.9160 C   0  0  0  0  0  0  0  0  0  0  0  0
  197.3092  183.5257  156.4317 C   0  0  0  0  0  0  0  0  0  0  0  0
  197.4631  183.8046  154.9801 C   0  0  0  0  0  0  0  0  0  0  0  0
  197.5525  182.7979  153.9738 C   0  0  0  0  0  0  0  0  0  0  0  0
  197.7093  183.1924  152.6122 C   0  0  0  0  0  0  0  0  0  0  0  0
  197.7744  184.4941  152.2598 N   0  0  0  0  0  0  0  0  0  0  0  0
  197.7009  185.4379  153.2070 C   0  0  0  0  0  0  0  0  0  0  0  0
  197.5435  185.1516  154.5620 C   0  0  0  0  0  0  0  0  0  0  0  0
  197.8333  182.1629  151.6342 N   0  0  0  0  0  0  0  0  0  0  0  0
  198.0719  182.2614  150.3134 C   0  0  0  0  0  0  0  0  0  0  0  0
  198.2273  183.3071  149.6858 O   0  0  0  0  0  0  0  0  0  0  0  0
  198.1858  180.9440  149.6096 C   0  0  0  0  0  0  0  0  0  0  0  0
  199.0789  180.7842  148.5213 C   0  0  0  0  0  0  0  0  0  0  0  0
  199.1882  179.5409  147.8611 C   0  0  0  0  0  0  0  0  0  0  0  0
  198.4014  178.4418  148.2826 C   0  0  0  0  0  0  0  0  0  0  0  0
  197.4619  178.6273  149.3113 C   0  0  0  0  0  0  0  0  0  0  0  0
  197.3884  179.8492  150.0050 C   0  0  0  0  0  0  0  0  0  0  0  0
  198.5528  177.0691  147.6312 C   0  0  1  0  0  0  0  0  0  0  0  0
  199.4037  176.1273  148.4206 N   0  0  2  0  0  0  0  0  0  0  0  0
  199.7528  174.9218  147.6293 C   0  0  2  0  0  0  0  0  0  0  0  0
  198.8777  175.7391  149.7565 C   0  0  2  0  0  0  0  0  0  0  0  0
  197.5011  181.3412  154.3108 C   0  0  0  0  0  0  0  0  0  0  0  0
  196.5425  180.6521  153.9548 O   0  0  0  0  0  0  0  0  0  0  0  0
  198.6841  180.7523  155.0098 C   0  0  0  0  0  0  0  0  0  0  0  0
  198.6649  179.3804  155.3542 C   0  0  0  0  0  0  0  0  0  0  0  0
  199.7745  178.7794  155.9814 C   0  0  0  0  0  0  0  0  0  0  0  0
  200.9221  179.5426  156.2690 C   0  0  0  0  0  0  0  0  0  0  0  0
  200.9527  180.9092  155.9374 C   0  0  0  0  0  0  0  0  0  0  0  0
  199.8490  181.5081  155.3010 C   0  0  0  0  0  0  0  0  0  0  0  0
  198.1503  184.1676  157.3727 C   0  0  0  0  0  0  0  0  0  0  0  0
  196.9091  182.8065  160.2506 H   0  0  0  0  0  0  0  0  0  0  0  0
  195.3156  180.5788  158.2984 H   0  0  0  0  0  0  0  0  0  0  0  0
  195.6342  182.1507  156.2260 H   0  0  0  0  0  0  0  0  0  0  0  0
  197.7682  186.4617  152.8653 H   0  0  0  0  0  0  0  0  0  0  0  0
  197.4751  185.9612  155.2737 H   0  0  0  0  0  0  0  0  0  0  0  0
  197.7369  181.2244  151.9882 H   0  0  0  0  0  0  0  0  0  0  0  0
  199.6778  181.6249  148.1966 H   0  0  0  0  0  0  0  0  0  0  0  0
  199.9045  179.4398  147.0502 H   0  0  0  0  0  0  0  0  0  0  0  0
  196.8114  177.8283  149.6202 H   0  0  0  0  0  0  0  0  0  0  0  0
  196.6952  179.9250  150.8338 H   0  0  0  0  0  0  0  0  0  0  0  0
  197.5664  176.6317  147.4452 H   0  0  0  0  0  0  0  0  0  0  0  0
  198.9920  177.2169  146.6365 H   0  0  0  0  0  0  0  0  0  0  0  0
  198.8599  174.3575  147.3443 H   0  0  0  0  0  0  0  0  0  0  0  0
  200.3884  174.2522  148.2130 H   0  0  0  0  0  0  0  0  0  0  0  0
  200.2990  175.1719  146.7123 H   0  0  0  0  0  0  0  0  0  0  0  0
  197.8983  175.2906  149.6460 H   0  0  0  0  0  0  0  0  0  0  0  0
  198.8123  176.5697  150.4542 H   0  0  0  0  0  0  0  0  0  0  0  0
  199.5239  174.9969  150.2320 H   0  0  0  0  0  0  0  0  0  0  0  0
  197.7866  178.7762  155.1710 H   0  0  0  0  0  0  0  0  0  0  0  0
  199.7323  177.7352  156.2541 H   0  0  0  0  0  0  0  0  0  0  0  0
  201.7740  179.0791  156.7498 H   0  0  0  0  0  0  0  0  0  0  0  0
  201.8226  181.5016  156.1727 H   0  0  0  0  0  0  0  0  0  0  0  0
  199.9177  182.5592  155.0677 H   0  0  0  0  0  0  0  0  0  0  0  0
  198.9187  184.8539  157.0392 H   0  0  0  0  0  0  0  0  0  0  0  0
  200.2744  176.6103  148.5723 H   0  0  0  0  0  0  0  0  0  0  0  0
  1  2  1  0
  2  3  2  0
  2 35  1  0
  3  4  1  0
  3 36  1  0
  4  5  1  0
  4  6  2  0
  5 37  1  0
  6  7  1  0
  6 38  1  0
  7  8  1  0
  7 35  2  0
  8  9  1  0
  8 13  2  0
  9 10  2  0
  9 27  1  0
 10 11  1  0
 10 14  1  0
 11 12  2  0
 12 13  1  0
 12 39  1  0
 13 40  1  0
 14 15  1  0
 14 41  1  0
 15 16  2  0
 15 17  1  0
 17 18  1  0
 17 22  2  0
 18 19  2  0
 18 42  1  0
 19 20  1  0
 19 43  1  0
 20 21  2  0
 20 23  1  0
 21 22  1  0
 21 44  1  0
 22 45  1  0
 23 24  1  0
 23 46  1  6
 23 47  1  0
 24 25  1  0
 24 26  1  0
 24 60  1  1
 25 48  1  6
 25 49  1  0
 25 50  1  0
 26 51  1  6
 26 52  1  0
 26 53  1  0
 27 28  2  0
 27 29  1  0
 29 30  2  0
 29 34  1  0
 30 31  1  0
 30 54  1  0
 31 32  2  0
 31 55  1  0
 32 33  1  0
 32 56  1  0
 33 34  2  0
 33 57  1  0
 34 58  1  0
 35 59  1  0
M  CHG  1  24   1
M  END
>  <s_epik_cmdline>  (799) 
J2VwaWtfcHl0aG9uJywgJy1waCcsICc3LjAwMDAwMCcsICctcGh0JywgJzIuMDAwMDAwJywgJy1tcycsICcxNicsICctdG4nLCAnOCcsICctbWEnLCAnMjAwJywgJy1pbWFlJywgJzxpbmZpbGUubWFlPicsICctb21hZScsICc8b3V0ZmlsZS5tYWU+Jw==

>  <s_epik_input>  (799) 
RmMxW2NIXWMoW09IXSlbY0hdYyhbY0hdMSktYzJjKEMoPU8pYzNbY0hdW2NIXVtjSF1bY0hdW2NIXTMpYyhuW2NIXVtjSF0yKVtOSF1DKD1PKWM0W2NIXVtjSF1jKFtjSF1bY0hdNClbQ0gyXU4oW0NIM10pW0NIM10=

>  <s_i_glide_gridfile>  (799) 
ATP-Grid

>  <s_lp_Force_Field>  (799) 
OPLS_2005

>  <s_lp_Variant>  (799) 
rxn501c____EMOL18624763____EMOL36251210____EMOL2796733-1

>  <s_lp_label>  (799) 
2489_sdstereoexpander_1_neutralizer_1_epik_1_stereoizer_1

>  <s_m_source_file>  (799) 
ATP-VSW-LIGPREP-001-in.maegz

>  <s_sd_BIOSOLVEIT.INFINISEE\_QUERY\_NAME>  (799) 
Ref-Lig

>  <s_sd_BIOSOLVEIT.INFINISEE\_QUERY\_SMILES>  (799) 
S(c1nc2c(cc1C[NH2+]Cc3ccc(cc3)C[NH+](C)C)cccc2)Cc4ccccc4

>  <s_sd_BIOSOLVEIT.INFINISEE\_REACTION\_NAME>  (799) 
rxn501c

>  <s_sd_BIOSOLVEIT.INFINISEE\_REAGENT1\_NAME>  (799) 
EMOL18624763

>  <s_sd_BIOSOLVEIT.INFINISEE\_REAGENT1\_SMILES>  (799) 
O=C(O)c1ccc(cc1)CN(C)C

>  <s_sd_BIOSOLVEIT.INFINISEE\_REAGENT2\_NAME>  (799) 
EMOL36251210

>  <s_sd_BIOSOLVEIT.INFINISEE\_REAGENT2\_SMILES>  (799) 
Clc1c(c(ncc1)N)C(=O)c2ccccc2

>  <s_sd_BIOSOLVEIT.INFINISEE\_REAGENT3\_NAME>  (799) 
EMOL2796733

>  <s_sd_BIOSOLVEIT.INFINISEE\_REAGENT3\_SMILES>  (799) 
Fc1cc(O)cc(c1)B(O)O

>  <s_sd_BIOSOLVEIT.INFINISEE\_SPACE>  (799) 
eXplore_7tr_2022-12

>  <s_vsw_compound_code>  (799) 
79617

>  <s_vsw_variant>  (799) 
79617-1

>  <r_epik_Charging_Adjusted_Penalty>  (799) 
0.10433640840748

>  <r_epik_Ionization_Penalty>  (799) 
0.058900000000000001

>  <r_epik_Ionization_Penalty_Charging>  (799) 
0.052200000000000003

>  <r_epik_Ionization_Penalty_Neutral>  (799) 
0.0067000000000000002

>  <r_epik_State_Penalty>  (799) 
0.052200000000000003

>  <r_i_docking_score>  (799) 
-3.9597510254138202

>  <r_i_glide_ecoul>  (799) 
-11.3603916168213

>  <r_i_glide_eff_state_penalty>  (799) 
0.052200000000000003

>  <r_i_glide_einternal>  (799) 
3.6228551864624001

>  <r_i_glide_emodel>  (799) 
-56.2393793639839

>  <r_i_glide_energy>  (799) 
-44.647474288940401

>  <r_i_glide_erotb>  (799) 
0.63888680032003098

>  <r_i_glide_esite>  (799) 
-0.018249886462371599

>  <r_i_glide_evdw>  (799) 
-33.287082672119098

>  <r_i_glide_gscore>  (799) 
-4.0119510254138202

>  <r_i_glide_hbond>  (799) 
-0.16

>  <r_i_glide_ligand_efficiency>  (799) 
-0.113135743583252

>  <r_i_glide_ligand_efficiency_ln>  (799) 
-0.86925323201739002

>  <r_i_glide_ligand_efficiency_sa>  (799) 
-0.37007451887472997

>  <r_i_glide_lipo>  (799) 
-0.82467946961187999

>  <r_i_glide_metal>  (799) 
-0

>  <r_i_glide_rewards>  (799) 
-0.279495593530455

>  <r_lp_Energy>  (799) 
37.337254000000001

>  <r_lp_tautomer_probability>  (799) 
0.999999999997365

>  <r_qp_ACxDN^.5/SA>  (799) 
0.0094900000000000002

>  <r_qp_CIQPlogS>  (799) 
-6.2439999999999998

>  <r_qp_EA(eV)>  (799) 
0.86899999999999999

>  <r_qp_FISA>  (799) 
137.45599999999999

>  <r_qp_FOSA>  (799) 
166.364

>  <r_qp_IP(eV)>  (799) 
9.1980000000000004

>  <r_qp_Jm>  (799) 
0.00044919262230498402

>  <r_qp_PISA>  (799) 
413.25299999999999

>  <r_qp_PSA>  (799) 
93.620999999999995

>  <r_qp_PercentHumanOralAbsorption>  (799) 
90.822000000000003

>  <r_qp_QPPCaco>  (799) 
122.831

>  <r_qp_QPPMDCK>  (799) 
102.501

>  <r_qp_QPlogBB>  (799) 
-0.80000000000000004

>  <r_qp_QPlogHERG>  (799) 
-7.2939999999999996

>  <r_qp_QPlogKhsa>  (799) 
0.77200000000000002

>  <r_qp_QPlogKp>  (799) 
-3.8919999999999999

>  <r_qp_QPlogPC16>  (799) 
15.472

>  <r_qp_QPlogPo/w>  (799) 
4.5229999999999997

>  <r_qp_QPlogPoct>  (799) 
23.015000000000001

>  <r_qp_QPlogPw>  (799) 
12.161

>  <r_qp_QPlogS>  (799) 
-5.1280000000000001

>  <r_qp_QPpolrz>  (799) 
50.643000000000001

>  <r_qp_SASA>  (799) 
763.96100000000001

>  <r_qp_SAamideO>  (799) 
0

>  <r_qp_SAfluorine>  (799) 
46.887

>  <r_qp_WPSA>  (799) 
46.887

>  <r_qp_accptHB>  (799) 
7.25

>  <r_qp_dip^2/V>  (799) 
0.020241800000000001

>  <r_qp_dipole>  (799) 
5.4160000000000004

>  <r_qp_donorHB>  (799) 
1

>  <r_qp_glob>  (799) 
0.81058019999999997

>  <r_qp_mol_MW>  (799) 
469.51400000000001

>  <r_qp_volume>  (799) 
1448.9480000000001

>  <r_sd_BIOSOLVEIT.INFINISEE\_FTREES\_SIMILARITY>  (799) 
0.91500000000000004

>  <r_sd_BIOSOLVEIT.LOGP>  (799) 
3.7210999999999999

>  <r_sd_BIOSOLVEIT.MOLECULAR\_WEIGHT>  (799) 
470.52199999999999

>  <r_sd_BIOSOLVEIT.TPSA>  (799) 
83.730000000000004

>  <i_epik_Tot_Q>  (799) 
1

>  <i_epik_Tot_abs_Q>  (799) 
1

>  <i_f3d_flags>  (799) 
0

>  <i_i_glide_confnum>  (799) 
3

>  <i_i_glide_lignum>  (799) 
973

>  <i_i_glide_posenum>  (799) 
19

>  <i_i_glide_rotatable_bonds>  (799) 
9

>  <i_lp_mmshare_version>  (799) 
65135

>  <i_m_ct_format>  (799) 
2

>  <i_m_source_file_index>  (799) 
2489

>  <i_qp_#NandO>  (799) 
6

>  <i_qp_#acid>  (799) 
0

>  <i_qp_#amide>  (799) 
0

>  <i_qp_#amidine>  (799) 
0

>  <i_qp_#amine>  (799) 
1

>  <i_qp_#in34>  (799) 
0

>  <i_qp_#in56>  (799) 
24

>  <i_qp_#metab>  (799) 
4

>  <i_qp_#nonHatm>  (799) 
35

>  <i_qp_#noncon>  (799) 
0

>  <i_qp_#ringatoms>  (799) 
24

>  <i_qp_#rotor>  (799) 
8

>  <i_qp_#rtvFG>  (799) 
0

>  <i_qp_#stars>  (799) 
0

>  <i_qp_CNS>  (799) 
0

>  <i_qp_HumanOralAbsorption>  (799) 
3

>  <i_qp_RuleOfFive>  (799) 
0

>  <i_qp_RuleOfThree>  (799) 
0

>  <i_sd_BIOSOLVEIT.INFINISEE\_RESULT\_RANK>  (799) 
29325

>  <i_sd_version>  (799) 
0

>  <b_lp_Chiralities_Consistent>  (799) 
1

>  <b_sd_chiral_flag>  (799) 
0

>  <canonical_id>  (799) 
ATP-HTVS-7D663BEE19BA

>  <compound_code>  (799) 
79617

>  <title>  (799) 
rxn501c____EMOL18624763____EMOL36251210____EMOL2796733

>  <variant>  (799) 
79617-1

>  <source_file>  (799) 
运行/运行/ATP-VSW/ATP-VSW-DOCK_HTVS_1-001_lib/ATP-VSW-DOCK_HTVS_1-001_lib

>  <canonical_smiles>  (799) 
C[NH+](C)Cc1ccc(C(=O)Nc2nccc(-c3cc(O)cc(F)c3)c2C(=O)c2ccccc2)cc1

>  <scaffold>  (799) 
O=C(Nc1nccc(-c2ccccc2)c1C(=O)c1ccccc1)c1ccccc1

>  <molecular_formula>  (799) 
C28H25FN3O3+

$$$$
ATP-HTVS-7DAC8816801F
     RDKit          3D

 66 69  0  0  0  0  0  0  0  0999 V2000
  205.5962  180.8107  157.2960 F   0  0  0  0  0  0  0  0  0  0  0  0
  204.3425  181.0563  156.8020 C   0  0  0  0  0  0  0  0  0  0  0  0
  203.9525  180.5654  155.5377 C   0  0  0  0  0  0  0  0  0  0  0  0
  204.8191  179.6863  154.7573 C   0  0  0  0  0  0  0  0  0  0  0  0
  205.4928  178.9688  154.1411 N   0  0  0  0  0  0  0  0  0  0  0  0
  202.6740  180.8866  155.0354 C   0  0  0  0  0  0  0  0  0  0  0  0
  201.7529  181.6569  155.7786 C   0  0  0  0  0  0  0  0  0  0  0  0
  202.1255  182.0953  157.0758 C   0  0  0  0  0  0  0  0  0  0  0  0
  203.4289  181.8107  157.5842 C   0  0  0  0  0  0  0  0  0  0  0  0
  201.1467  182.8887  157.9181 C   0  0  0  0  0  0  0  0  0  0  0  0
  201.5586  183.7003  158.7437 O   0  0  0  0  0  0  0  0  0  0  0  0
  199.8339  182.6315  157.6912 N   0  0  0  0  0  0  0  0  0  0  0  0
  198.6738  183.2400  158.2637 C   0  0  0  0  0  0  0  0  0  0  0  0
  197.3976  182.6980  157.9066 C   0  0  0  0  0  0  0  0  0  0  0  0
  197.3096  181.6212  157.0201 N   0  0  0  0  0  0  0  0  0  0  0  0
  197.3352  181.9675  155.5983 C   0  0  1  0  0  0  0  0  0  0  0  0
  197.8211  180.8401  154.6860 C   0  0  0  0  0  0  0  0  0  0  0  0
  198.9949  180.1166  155.0124 C   0  0  0  0  0  0  0  0  0  0  0  0
  199.5091  179.1389  154.1251 C   0  0  0  0  0  0  0  0  0  0  0  0
  198.8178  178.8614  152.9154 C   0  0  0  0  0  0  0  0  0  0  0  0
  197.6120  179.5427  152.6145 C   0  0  0  0  0  0  0  0  0  0  0  0
  197.1163  180.5370  153.4944 C   0  0  0  0  0  0  0  0  0  0  0  0
  200.8316  178.4371  154.4598 C   0  0  1  0  0  0  0  0  0  0  0  0
  200.5797  177.1715  155.2030 N   0  0  1  0  0  0  0  0  0  0  0  0
  201.8280  176.3559  155.2651 C   0  0  1  0  0  0  0  0  0  0  0  0
  201.5803  174.9894  155.9137 C   0  0  2  0  0  0  0  0  0  0  0  0
  200.0111  177.4592  156.5675 C   0  0  1  0  0  0  0  0  0  0  0  0
  201.0119  178.1098  157.5808 C   0  0  2  0  0  0  0  0  0  0  0  0
  196.2359  183.2825  158.5057 C   0  0  0  0  0  0  0  0  0  0  0  0
  196.3802  184.3371  159.4255 C   0  0  0  0  0  0  0  0  0  0  0  0
  197.6079  184.8104  159.7314 N   0  0  0  0  0  0  0  0  0  0  0  0
  198.7349  184.3046  159.1816 C   0  0  0  0  0  0  0  0  0  0  0  0
  195.2556  184.9308  160.0424 C   0  0  0  0  0  0  0  0  0  0  0  0
  193.9783  184.4781  159.7045 C   0  0  0  0  0  0  0  0  0  0  0  0
  193.8147  183.4213  158.7810 C   0  0  0  0  0  0  0  0  0  0  0  0
  194.9342  182.8265  158.1855 C   0  0  0  0  0  0  0  0  0  0  0  0
  202.3333  180.4835  154.0581 H   0  0  0  0  0  0  0  0  0  0  0  0
  200.7450  181.8223  155.3850 H   0  0  0  0  0  0  0  0  0  0  0  0
  203.7565  182.2333  158.5351 H   0  0  0  0  0  0  0  0  0  0  0  0
  199.6095  181.8985  157.0373 H   0  0  0  0  0  0  0  0  0  0  0  0
  196.5995  180.9137  157.2322 H   0  0  0  0  0  0  0  0  0  0  0  0
  196.3275  182.2701  155.3068 H   0  0  0  0  0  0  0  0  0  0  0  0
  197.9738  182.8411  155.4378 H   0  0  0  0  0  0  0  0  0  0  0  0
  199.5446  180.3740  155.9188 H   0  0  0  0  0  0  0  0  0  0  0  0
  199.2045  178.1058  152.2345 H   0  0  0  0  0  0  0  0  0  0  0  0
  197.0606  179.2655  151.7184 H   0  0  0  0  0  0  0  0  0  0  0  0
  196.1895  181.0489  153.2484 H   0  0  0  0  0  0  0  0  0  0  0  0
  201.3870  178.2327  153.5287 H   0  0  0  0  0  0  0  0  0  0  0  0
  201.4560  179.0679  155.0508 H   0  0  0  0  0  0  0  0  0  0  0  0
  202.2262  176.2083  154.2603 H   0  0  0  0  0  0  0  0  0  0  0  0
  202.6379  176.8855  155.7795 H   0  0  0  0  0  0  0  0  0  0  0  0
  202.4962  174.3972  155.9648 H   0  0  0  0  0  0  0  0  0  0  0  0
  200.8244  174.4485  155.3393 H   0  0  0  0  0  0  0  0  0  0  0  0
  201.2230  175.0831  156.9400 H   0  0  0  0  0  0  0  0  0  0  0  0
  199.1298  178.0981  156.5087 H   0  0  0  0  0  0  0  0  0  0  0  0
  199.5942  176.5495  157.0039 H   0  0  0  0  0  0  0  0  0  0  0  0
  200.5339  178.2525  158.5547 H   0  0  0  0  0  0  0  0  0  0  0  0
  201.3770  179.0945  157.2739 H   0  0  0  0  0  0  0  0  0  0  0  0
  201.8894  177.4876  157.7712 H   0  0  0  0  0  0  0  0  0  0  0  0
  199.6385  184.7868  159.5337 H   0  0  0  0  0  0  0  0  0  0  0  0
  195.3628  185.7336  160.7577 H   0  0  0  0  0  0  0  0  0  0  0  0
  193.1142  184.9288  160.1639 H   0  0  0  0  0  0  0  0  0  0  0  0
  192.8208  183.0961  158.5161 H   0  0  0  0  0  0  0  0  0  0  0  0
  194.7654  182.0467  157.4525 H   0  0  0  0  0  0  0  0  0  0  0  0
  199.8763  176.6120  154.6973 H   0  0  0  0  0  0  0  0  0  0  0  0
  197.6805  185.5750  160.3918 H   0  0  0  0  0  0  0  0  0  0  0  0
  1  2  1  0
  2  3  2  0
  2  9  1  0
  3  4  1  0
  3  6  1  0
  4  5  3  0
  6  7  2  0
  6 37  1  0
  7  8  1  0
  7 38  1  0
  8  9  2  0
  8 10  1  0
  9 39  1  0
 10 11  2  0
 10 12  1  0
 12 13  1  0
 12 40  1  0
 13 14  2  0
 13 32  1  0
 14 15  1  0
 14 29  1  0
 15 16  1  0
 15 41  1  0
 16 17  1  0
 16 42  1  6
 16 43  1  0
 17 18  2  0
 17 22  1  0
 18 19  1  0
 18 44  1  0
 19 20  2  0
 19 23  1  0
 20 21  1  0
 20 45  1  0
 21 22  2  0
 21 46  1  0
 22 47  1  0
 23 24  1  0
 23 48  1  6
 23 49  1  0
 24 25  1  0
 24 27  1  0
 24 65  1  6
 25 26  1  0
 25 50  1  6
 25 51  1  0
 26 52  1  1
 26 53  1  0
 26 54  1  0
 27 28  1  0
 27 55  1  6
 27 56  1  0
 28 57  1  1
 28 58  1  0
 28 59  1  0
 29 30  1  0
 29 36  2  0
 30 31  1  0
 30 33  2  0
 31 32  2  0
 31 66  1  0
 32 60  1  0
 33 34  1  0
 33 61  1  0
 34 35  2  0
 34 62  1  0
 35 36  1  0
 35 63  1  0
 36 64  1  0
M  CHG  2  24   1  31   1
M  END
>  <s_epik_cmdline>  (800) 
J2VwaWtfcHl0aG9uJywgJy1waCcsICc3LjAwMDAwMCcsICctcGh0JywgJzIuMDAwMDAwJywgJy1tcycsICcxNicsICctdG4nLCAnOCcsICctbWEnLCAnMjAwJywgJy1pbWFlJywgJzxpbmZpbGUubWFlPicsICctb21hZScsICc8b3V0ZmlsZS5tYWU+Jw==

>  <s_epik_input>  (800) 
RmMxYyhDI04pW2NIXVtjSF1jKFtjSF0xKUMoPU8pW05IXWMoW2NIXW5jKGMyMylbY0hdW2NIXVtjSF1bY0hdMyljMltOSF1bQ0gyXWM0W2NIXWMoW2NIXVtjSF1bY0hdNClbQ0gyXU4oW0NIMl1bQ0gzXSlbQ0gyXVtDSDNd

>  <s_i_glide_gridfile>  (800) 
ATP-Grid

>  <s_lp_Force_Field>  (800) 
OPLS_2005

>  <s_lp_Variant>  (800) 
rxn502b____EMOL911931____EMOL30488121____EMOL44153840-1

>  <s_lp_label>  (800) 
2638_sdstereoexpander_1_neutralizer_1_epik_1_stereoizer_1

>  <s_m_source_file>  (800) 
ATP-VSW-LIGPREP-001-in.maegz

>  <s_sd_BIOSOLVEIT.INFINISEE\_QUERY\_NAME>  (800) 
Ref-Lig

>  <s_sd_BIOSOLVEIT.INFINISEE\_QUERY\_SMILES>  (800) 
S(c1nc2c(cc1C[NH2+]Cc3ccc(cc3)C[NH+](C)C)cccc2)Cc4ccccc4

>  <s_sd_BIOSOLVEIT.INFINISEE\_REACTION\_NAME>  (800) 
rxn502b

>  <s_sd_BIOSOLVEIT.INFINISEE\_REAGENT1\_NAME>  (800) 
EMOL911931

>  <s_sd_BIOSOLVEIT.INFINISEE\_REAGENT1\_SMILES>  (800) 
Fc1c(C#N)ccc(c1)C(=O)O

>  <s_sd_BIOSOLVEIT.INFINISEE\_REAGENT2\_NAME>  (800) 
EMOL30488121

>  <s_sd_BIOSOLVEIT.INFINISEE\_REAGENT2\_SMILES>  (800) 
Brc1c(N)cnc2c1cccc2

>  <s_sd_BIOSOLVEIT.INFINISEE\_REAGENT3\_NAME>  (800) 
EMOL44153840

>  <s_sd_BIOSOLVEIT.INFINISEE\_REAGENT3\_SMILES>  (800) 
N(Cc1cc(ccc1)CN)(CC)CC

>  <s_sd_BIOSOLVEIT.INFINISEE\_SPACE>  (800) 
eXplore_7tr_2022-12

>  <s_vsw_compound_code>  (800) 
84385

>  <s_vsw_variant>  (800) 
84385-1

>  <r_epik_Charging_Adjusted_Penalty>  (800) 
0.19580502592321

>  <r_epik_Ionization_Penalty>  (800) 
0.1027

>  <r_epik_Ionization_Penalty_Charging>  (800) 
0.099000000000000005

>  <r_epik_Ionization_Penalty_Neutral>  (800) 
0.0035999999999999999

>  <r_epik_State_Penalty>  (800) 
0.096799999999999997

>  <r_i_docking_score>  (800) 
-4.6755140328260101

>  <r_i_glide_ecoul>  (800) 
-11.619194984436

>  <r_i_glide_eff_state_penalty>  (800) 
0.096799999999999997

>  <r_i_glide_einternal>  (800) 
3.7453420162200901

>  <r_i_glide_emodel>  (800) 
-65.765776508605796

>  <r_i_glide_energy>  (800) 
-47.678689002990701

>  <r_i_glide_erotb>  (800) 
0.69452465000959196

>  <r_i_glide_esite>  (800) 
-0.107225711129037

>  <r_i_glide_evdw>  (800) 
-36.059494018554702

>  <r_i_glide_gscore>  (800) 
-4.7723140328260101

>  <r_i_glide_hbond>  (800) 
-0.12918427254325801

>  <r_i_glide_ligand_efficiency>  (800) 
-0.129875389800722

>  <r_i_glide_ligand_efficiency_ln>  (800) 
-1.02007084417129

>  <r_i_glide_ligand_efficiency_sa>  (800) 
-0.42883908803156601

>  <r_i_glide_lipo>  (800) 
-1.3390641131986301

>  <r_i_glide_metal>  (800) 
-0

>  <r_i_glide_rewards>  (800) 
-0.34551063737153298

>  <r_lp_Energy>  (800) 
44.383141000000002

>  <r_qp_ACxDN^.5/SA>  (800) 
0.0146082

>  <r_qp_CIQPlogS>  (800) 
-7.024

>  <r_qp_EA(eV)>  (800) 
1.4690000000000001

>  <r_qp_FISA>  (800) 
129.32300000000001

>  <r_qp_FOSA>  (800) 
266.012

>  <r_qp_IP(eV)>  (800) 
8.5649999999999995

>  <r_qp_Jm>  (800) 
0.00014839917845111

>  <r_qp_PISA>  (800) 
337.63799999999998

>  <r_qp_PSA>  (800) 
83.519000000000005

>  <r_qp_PercentHumanOralAbsorption>  (800) 
92.007000000000005

>  <r_qp_QPPCaco>  (800) 
146.69999999999999

>  <r_qp_QPPMDCK>  (800) 
116.038

>  <r_qp_QPlogBB>  (800) 
-0.80500000000000005

>  <r_qp_QPlogHERG>  (800) 
-6.6970000000000001

>  <r_qp_QPlogKhsa>  (800) 
0.72699999999999998

>  <r_qp_QPlogKp>  (800) 
-3.8159999999999998

>  <r_qp_QPlogPC16>  (800) 
15.704000000000001

>  <r_qp_QPlogPo/w>  (800) 
4.4889999999999999

>  <r_qp_QPlogPoct>  (800) 
25.224

>  <r_qp_QPlogPw>  (800) 
13.377000000000001

>  <r_qp_QPlogS>  (800) 
-5.6950000000000003

>  <r_qp_QPpolrz>  (800) 
51.442999999999998

>  <r_qp_SASA>  (800) 
774.47799999999995

>  <r_qp_SAamideO>  (800) 
0

>  <r_qp_SAfluorine>  (800) 
41.505000000000003

>  <r_qp_WPSA>  (800) 
41.505000000000003

>  <r_qp_accptHB>  (800) 
8

>  <r_qp_dip^2/V>  (800) 
0.0368379

>  <r_qp_dipole>  (800) 
7.4809999999999999

>  <r_qp_donorHB>  (800) 
2

>  <r_qp_glob>  (800) 
0.82517079999999998

>  <r_qp_mol_MW>  (800) 
481.57100000000003

>  <r_qp_volume>  (800) 
1519.0830000000001

>  <r_sd_BIOSOLVEIT.INFINISEE\_FTREES\_SIMILARITY>  (800) 
0.91000000000000003

>  <r_sd_BIOSOLVEIT.LOGP>  (800) 
4.5346799999999998

>  <r_sd_BIOSOLVEIT.MOLECULAR\_WEIGHT>  (800) 
482.57999999999998

>  <r_sd_BIOSOLVEIT.TPSA>  (800) 
82.25

>  <i_epik_Tot_Q>  (800) 
2

>  <i_epik_Tot_abs_Q>  (800) 
2

>  <i_f3d_flags>  (800) 
0

>  <i_i_glide_confnum>  (800) 
2

>  <i_i_glide_lignum>  (800) 
1130

>  <i_i_glide_posenum>  (800) 
10

>  <i_i_glide_rotatable_bonds>  (800) 
10

>  <i_lp_mmshare_version>  (800) 
65135

>  <i_m_ct_format>  (800) 
2

>  <i_m_source_file_index>  (800) 
2638

>  <i_qp_#NandO>  (800) 
6

>  <i_qp_#acid>  (800) 
0

>  <i_qp_#amide>  (800) 
0

>  <i_qp_#amidine>  (800) 
0

>  <i_qp_#amine>  (800) 
1

>  <i_qp_#in34>  (800) 
0

>  <i_qp_#in56>  (800) 
22

>  <i_qp_#metab>  (800) 
6

>  <i_qp_#nonHatm>  (800) 
36

>  <i_qp_#noncon>  (800) 
0

>  <i_qp_#ringatoms>  (800) 
22

>  <i_qp_#rotor>  (800) 
10

>  <i_qp_#rtvFG>  (800) 
0

>  <i_qp_#stars>  (800) 
0

>  <i_qp_CNS>  (800) 
0

>  <i_qp_HumanOralAbsorption>  (800) 
3

>  <i_qp_RuleOfFive>  (800) 
0

>  <i_qp_RuleOfThree>  (800) 
0

>  <i_sd_BIOSOLVEIT.INFINISEE\_RESULT\_RANK>  (800) 
45048

>  <i_sd_version>  (800) 
0

>  <b_lp_Chiralities_Consistent>  (800) 
1

>  <b_sd_chiral_flag>  (800) 
0

>  <canonical_id>  (800) 
ATP-HTVS-7DAC8816801F

>  <compound_code>  (800) 
84385

>  <title>  (800) 
rxn502b____EMOL911931____EMOL30488121____EMOL44153840

>  <variant>  (800) 
84385-1

>  <source_file>  (800) 
运行/运行/ATP-VSW/ATP-VSW-DOCK_HTVS_1-001_lib/ATP-VSW-DOCK_HTVS_1-001_lib

>  <canonical_smiles>  (800) 
CC[NH+](CC)Cc1cccc(CNc2c(NC(=O)c3ccc(C#N)c(F)c3)c[nH+]c3ccccc23)c1

>  <scaffold>  (800) 
O=C(Nc1c[nH+]c2ccccc2c1NCc1ccccc1)c1ccccc1

>  <molecular_formula>  (800) 
C29H30FN5O+2

$$$$
ATP-HTVS-7DBCC72663B9
     RDKit          3D

 64 67  0  0  0  0  0  0  0  0999 V2000
  200.0510  175.1097  150.6301 O   0  0  0  0  0  0  0  0  0  0  0  0
  200.3969  175.8339  151.5626 C   0  0  0  0  0  0  0  0  0  0  0  0
  200.3702  177.1950  151.5116 N   0  0  0  0  0  0  0  0  0  0  0  0
  200.7396  178.0193  152.5551 N   0  0  0  0  0  0  0  0  0  0  0  0
  201.0507  177.5544  153.7202 C   0  0  0  0  0  0  0  0  0  0  0  0
  201.2187  176.0984  153.9420 C   0  0  0  0  0  0  0  0  0  0  0  0
  200.8963  175.2446  152.8535 C   0  0  0  0  0  0  0  0  0  0  0  0
  201.0873  173.8495  152.9720 C   0  0  0  0  0  0  0  0  0  0  0  0
  201.6102  173.3049  154.1582 C   0  0  0  0  0  0  0  0  0  0  0  0
  201.9467  174.1476  155.2350 C   0  0  0  0  0  0  0  0  0  0  0  0
  201.7473  175.5392  155.1283 C   0  0  0  0  0  0  0  0  0  0  0  0
  201.2451  178.5077  154.8336 C   0  0  0  0  0  0  0  0  0  0  0  0
  202.0326  179.4497  154.7209 O   0  0  0  0  0  0  0  0  0  0  0  0
  200.4847  178.2876  155.9291 N   0  0  0  0  0  0  0  0  0  0  0  0
  200.4942  179.0753  157.1655 C   0  0  1  0  0  0  0  0  0  0  0  0
  200.4605  180.5898  156.9483 C   0  0  0  0  0  0  0  0  0  0  0  0
  199.2853  181.2651  156.5207 C   0  0  0  0  0  0  0  0  0  0  0  0
  198.0988  180.5359  156.3348 N   0  0  0  0  0  0  0  0  0  0  0  0
  196.8049  181.2021  156.3433 C   0  0  1  0  0  0  0  0  0  0  0  0
  196.4913  181.8335  157.7148 C   0  0  1  0  0  0  0  0  0  0  0  0
  195.1393  182.4363  157.7381 N   0  0  1  0  0  0  0  0  0  0  0  0
  194.0847  181.4572  158.0597 C   0  0  2  0  0  0  0  0  0  0  0  0
  195.0658  183.6259  158.6142 C   0  0  2  0  0  0  0  0  0  0  0  0
  199.3378  182.6636  156.3029 C   0  0  0  0  0  0  0  0  0  0  0  0
  200.5262  183.3857  156.5175 C   0  0  0  0  0  0  0  0  0  0  0  0
  201.6835  182.7175  156.9487 C   0  0  0  0  0  0  0  0  0  0  0  0
  201.6492  181.3246  157.1613 C   0  0  0  0  0  0  0  0  0  0  0  0
  199.8667  177.9061  150.3241 C   0  0  1  0  0  0  0  0  0  0  0  0
  198.4783  178.5490  150.4489 C   0  0  0  0  0  0  0  0  0  0  0  0
  197.7489  178.8173  149.2652 C   0  0  0  0  0  0  0  0  0  0  0  0
  196.4839  179.4373  149.3319 C   0  0  0  0  0  0  0  0  0  0  0  0
  195.9471  179.8058  150.5790 C   0  0  0  0  0  0  0  0  0  0  0  0
  196.6597  179.5413  151.7593 C   0  0  0  0  0  0  0  0  0  0  0  0
  197.9186  178.9163  151.6973 C   0  0  0  0  0  0  0  0  0  0  0  0
  200.8566  173.1964  152.1398 H   0  0  0  0  0  0  0  0  0  0  0  0
  201.7617  172.2344  154.2354 H   0  0  0  0  0  0  0  0  0  0  0  0
  202.3681  173.7286  156.1382 H   0  0  0  0  0  0  0  0  0  0  0  0
  202.0486  176.1620  155.9583 H   0  0  0  0  0  0  0  0  0  0  0  0
  199.8325  177.5163  155.9290 H   0  0  0  0  0  0  0  0  0  0  0  0
  199.6281  178.7938  157.7680 H   0  0  0  0  0  0  0  0  0  0  0  0
  201.3648  178.7993  157.7538 H   0  0  0  0  0  0  0  0  0  0  0  0
  198.0709  179.5829  156.6750 H   0  0  0  0  0  0  0  0  0  0  0  0
  196.7517  181.9380  155.5456 H   0  0  0  0  0  0  0  0  0  0  0  0
  196.0590  180.4483  156.1014 H   0  0  0  0  0  0  0  0  0  0  0  0
  196.5862  181.0941  158.5157 H   0  0  0  0  0  0  0  0  0  0  0  0
  197.2323  182.5913  157.9464 H   0  0  0  0  0  0  0  0  0  0  0  0
  194.2166  181.0351  159.0585 H   0  0  0  0  0  0  0  0  0  0  0  0
  194.0760  180.6391  157.3389 H   0  0  0  0  0  0  0  0  0  0  0  0
  193.1000  181.9251  158.0088 H   0  0  0  0  0  0  0  0  0  0  0  0
  195.3016  183.3697  159.6493 H   0  0  0  0  0  0  0  0  0  0  0  0
  194.0666  184.0618  158.5981 H   0  0  0  0  0  0  0  0  0  0  0  0
  195.7617  184.3985  158.2933 H   0  0  0  0  0  0  0  0  0  0  0  0
  198.4742  183.2076  155.9576 H   0  0  0  0  0  0  0  0  0  0  0  0
  200.5446  184.4500  156.3444 H   0  0  0  0  0  0  0  0  0  0  0  0
  202.6039  183.2644  157.0897 H   0  0  0  0  0  0  0  0  0  0  0  0
  202.5498  180.8152  157.4689 H   0  0  0  0  0  0  0  0  0  0  0  0
  200.5861  178.6846  150.0638 H   0  0  0  0  0  0  0  0  0  0  0  0
  199.8462  177.2505  149.4499 H   0  0  0  0  0  0  0  0  0  0  0  0
  198.1526  178.5502  148.2955 H   0  0  0  0  0  0  0  0  0  0  0  0
  195.9219  179.6262  148.4264 H   0  0  0  0  0  0  0  0  0  0  0  0
  194.9719  180.2667  150.6340 H   0  0  0  0  0  0  0  0  0  0  0  0
  196.2484  179.8170  152.7160 H   0  0  0  0  0  0  0  0  0  0  0  0
  198.4269  178.7424  152.6333 H   0  0  0  0  0  0  0  0  0  0  0  0
  194.9000  182.7396  156.7923 H   0  0  0  0  0  0  0  0  0  0  0  0
  1  2  2  0
  2  3  1  0
  2  7  1  0
  3  4  1  0
  3 28  1  0
  4  5  2  0
  5  6  1  0
  5 12  1  0
  6  7  1  0
  6 11  2  0
  7  8  2  0
  8  9  1  0
  8 35  1  0
  9 10  2  0
  9 36  1  0
 10 11  1  0
 10 37  1  0
 11 38  1  0
 12 13  2  0
 12 14  1  0
 14 15  1  0
 14 39  1  0
 15 16  1  0
 15 40  1  1
 15 41  1  0
 16 17  1  0
 16 27  2  0
 17 18  1  0
 17 24  2  0
 18 19  1  0
 18 42  1  0
 19 20  1  0
 19 43  1  6
 19 44  1  0
 20 21  1  0
 20 45  1  1
 20 46  1  0
 21 22  1  0
 21 23  1  0
 21 64  1  6
 22 47  1  1
 22 48  1  0
 22 49  1  0
 23 50  1  1
 23 51  1  0
 23 52  1  0
 24 25  1  0
 24 53  1  0
 25 26  2  0
 25 54  1  0
 26 27  1  0
 26 55  1  0
 27 56  1  0
 28 29  1  0
 28 57  1  6
 28 58  1  0
 29 30  2  0
 29 34  1  0
 30 31  1  0
 30 59  1  0
 31 32  2  0
 31 60  1  0
 32 33  1  0
 32 61  1  0
 33 34  2  0
 33 62  1  0
 34 63  1  0
M  CHG  1  21   1
M  END
>  <s_epik_cmdline>  (801) 
J2VwaWtfcHl0aG9uJywgJy1waCcsICc3LjAwMDAwMCcsICctcGh0JywgJzIuMDAwMDAwJywgJy1tcycsICcxNicsICctdG4nLCAnOCcsICctbWEnLCAnMjAwJywgJy1pbWFlJywgJzxpbmZpbGUubWFlPicsICctb21hZScsICc8b3V0ZmlsZS5tYWU+Jw==

>  <s_epik_input>  (801) 
W2NIXTFbY0hdW2NIXVtjSF1bY0hdYzFbQ0gyXW4oYyg9TyljKGMyMylbY0hdW2NIXVtjSF1bY0hdMyluYzJDKD1PKVtOSF1bQ0gyXWM0YyhbY0hdW2NIXVtjSF1bY0hdNClbTkhdW0NIMl1bQ0gyXU4oW0NIM10pW0NIM10=

>  <s_i_glide_gridfile>  (801) 
ATP-Grid

>  <s_lp_Force_Field>  (801) 
OPLS_2005

>  <s_lp_Variant>  (801) 
m_22bbc____21205718____59608-1

>  <s_lp_label>  (801) 
1865_sdstereoexpander_1_neutralizer_1_epik_1_stereoizer_1

>  <s_m_source_file>  (801) 
ATP-VSW-LIGPREP-001-in.maegz

>  <s_sd_BIOSOLVEIT.INFINISEE\_QUERY\_NAME>  (801) 
Ref-Lig

>  <s_sd_BIOSOLVEIT.INFINISEE\_QUERY\_SMILES>  (801) 
S(c1nc2c(cc1C[NH2+]Cc3ccc(cc3)C[NH+](C)C)cccc2)Cc4ccccc4

>  <s_sd_BIOSOLVEIT.INFINISEE\_REACTION\_NAME>  (801) 
m_22bbc

>  <s_sd_BIOSOLVEIT.INFINISEE\_REAGENT1\_SMILES>  (801) 
[R1*]NCc1c(NCCN(C)C)cccc1

>  <s_sd_BIOSOLVEIT.INFINISEE\_REAGENT2\_SMILES>  (801) 
[R1*]C(=O)C1=NN(C(=O)c2c1cccc2)Cc3ccccc3

>  <s_sd_BIOSOLVEIT.INFINISEE\_SPACE>  (801) 
REALSpace_44bn_2023-08

>  <s_vsw_compound_code>  (801) 
59649

>  <s_vsw_variant>  (801) 
59649-1

>  <r_epik_Charging_Adjusted_Penalty>  (801) 
0.0012951009207466601

>  <r_epik_Ionization_Penalty>  (801) 
0.0012999999999999999

>  <r_epik_Ionization_Penalty_Charging>  (801) 
0.0012999999999999999

>  <r_epik_Ionization_Penalty_Neutral>  (801) 
0.0001

>  <r_epik_State_Penalty>  (801) 
-0

>  <r_i_docking_score>  (801) 
-4.6013472055481497

>  <r_i_glide_ecoul>  (801) 
-10.295107841491699

>  <r_i_glide_eff_state_penalty>  (801) 
-0

>  <r_i_glide_einternal>  (801) 
6.33371829986572

>  <r_i_glide_emodel>  (801) 
-60.872476380745503

>  <r_i_glide_energy>  (801) 
-45.325003623962402

>  <r_i_glide_erotb>  (801) 
0.86776031109485796

>  <r_i_glide_esite>  (801) 
-0.19097686803223299

>  <r_i_glide_evdw>  (801) 
-35.029895782470703

>  <r_i_glide_gscore>  (801) 
-4.6013472055481497

>  <r_i_glide_hbond>  (801) 
-0.19229430766915201

>  <r_i_glide_ligand_efficiency>  (801) 
-0.13533374133965101

>  <r_i_glide_ligand_efficiency_ln>  (801) 
-1.01656666112303

>  <r_i_glide_ligand_efficiency_sa>  (801) 
-0.43842878503961602

>  <r_i_glide_lipo>  (801) 
-1.4665723888525299

>  <r_i_glide_metal>  (801) 
-0

>  <r_i_glide_rewards>  (801) 
-0.323502986741805

>  <r_lp_Energy>  (801) 
44.975606999999997

>  <r_lp_tautomer_probability>  (801) 
1

>  <r_qp_ACxDN^.5/SA>  (801) 
0.0137857

>  <r_qp_CIQPlogS>  (801) 
-5.6980000000000004

>  <r_qp_EA(eV)>  (801) 
1.0309999999999999

>  <r_qp_FISA>  (801) 
85.084999999999994

>  <r_qp_FOSA>  (801) 
234.05199999999999

>  <r_qp_IP(eV)>  (801) 
8.3239999999999998

>  <r_qp_Jm>  (801) 
0.015783713183470199

>  <r_qp_PISA>  (801) 
450.25700000000001

>  <r_qp_PSA>  (801) 
83.989999999999995

>  <r_qp_PercentHumanOralAbsorption>  (801) 
100

>  <r_qp_QPPCaco>  (801) 
385.423

>  <r_qp_QPPMDCK>  (801) 
195.28899999999999

>  <r_qp_QPlogBB>  (801) 
-0.46400000000000002

>  <r_qp_QPlogHERG>  (801) 
-7.6239999999999997

>  <r_qp_QPlogKhsa>  (801) 
0.63500000000000001

>  <r_qp_QPlogKp>  (801) 
-2.7000000000000002

>  <r_qp_QPlogPC16>  (801) 
15.842000000000001

>  <r_qp_QPlogPo/w>  (801) 
4.452

>  <r_qp_QPlogPoct>  (801) 
23.643000000000001

>  <r_qp_QPlogPw>  (801) 
13.544

>  <r_qp_QPlogS>  (801) 
-4.7599999999999998

>  <r_qp_QPpolrz>  (801) 
49.945

>  <r_qp_SASA>  (801) 
769.39400000000001

>  <r_qp_SAamideO>  (801) 
0

>  <r_qp_SAfluorine>  (801) 
0

>  <r_qp_WPSA>  (801) 
0

>  <r_qp_accptHB>  (801) 
7.5

>  <r_qp_dip^2/V>  (801) 
0.0055186999999999996

>  <r_qp_dipole>  (801) 
2.8180000000000001

>  <r_qp_donorHB>  (801) 
2

>  <r_qp_glob>  (801) 
0.80106949999999999

>  <r_qp_mol_MW>  (801) 
455.55799999999999

>  <r_qp_volume>  (801) 
1438.7339999999999

>  <r_sd_BIOSOLVEIT.INFINISEE\_FTREES\_SIMILARITY>  (801) 
0.90300000000000002

>  <r_sd_BIOSOLVEIT.LOGP>  (801) 
1.9312

>  <r_sd_BIOSOLVEIT.MOLECULAR\_WEIGHT>  (801) 
456.56700000000001

>  <r_sd_BIOSOLVEIT.TPSA>  (801) 
80.459999999999994

>  <i_epik_Tot_Q>  (801) 
1

>  <i_epik_Tot_abs_Q>  (801) 
1

>  <i_f3d_flags>  (801) 
0

>  <i_i_glide_confnum>  (801) 
9

>  <i_i_glide_lignum>  (801) 
554

>  <i_i_glide_posenum>  (801) 
16

>  <i_i_glide_rotatable_bonds>  (801) 
10

>  <i_lp_mmshare_version>  (801) 
65135

>  <i_m_ct_format>  (801) 
2

>  <i_m_source_file_index>  (801) 
1865

>  <i_qp_#NandO>  (801) 
7

>  <i_qp_#acid>  (801) 
0

>  <i_qp_#amide>  (801) 
0

>  <i_qp_#amidine>  (801) 
0

>  <i_qp_#amine>  (801) 
1

>  <i_qp_#in34>  (801) 
0

>  <i_qp_#in56>  (801) 
22

>  <i_qp_#metab>  (801) 
6

>  <i_qp_#nonHatm>  (801) 
34

>  <i_qp_#noncon>  (801) 
0

>  <i_qp_#ringatoms>  (801) 
22

>  <i_qp_#rotor>  (801) 
9

>  <i_qp_#rtvFG>  (801) 
0

>  <i_qp_#stars>  (801) 
1

>  <i_qp_CNS>  (801) 
1

>  <i_qp_HumanOralAbsorption>  (801) 
3

>  <i_qp_RuleOfFive>  (801) 
0

>  <i_qp_RuleOfThree>  (801) 
0

>  <i_sd_BIOSOLVEIT.INFINISEE\_REAGENT1\_NAME>  (801) 
21205718

>  <i_sd_BIOSOLVEIT.INFINISEE\_REAGENT2\_NAME>  (801) 
59608

>  <i_sd_BIOSOLVEIT.INFINISEE\_RESULT\_RANK>  (801) 
82100

>  <i_sd_version>  (801) 
0

>  <b_lp_Chiralities_Consistent>  (801) 
1

>  <b_sd_chiral_flag>  (801) 
0

>  <canonical_id>  (801) 
ATP-HTVS-7DBCC72663B9

>  <compound_code>  (801) 
59649

>  <title>  (801) 
m_22bbc____21205718____59608

>  <variant>  (801) 
59649-1

>  <source_file>  (801) 
运行/运行/ATP-VSW/ATP-VSW-DOCK_HTVS_1-001_lib/ATP-VSW-DOCK_HTVS_1-001_lib

>  <canonical_smiles>  (801) 
C[NH+](C)CCNc1ccccc1CNC(=O)c1nn(Cc2ccccc2)c(=O)c2ccccc12

>  <scaffold>  (801) 
O=C(NCc1ccccc1)c1nn(Cc2ccccc2)c(=O)c2ccccc12

>  <molecular_formula>  (801) 
C27H30N5O2+

$$$$
ATP-HTVS-7DD2E8BA0428
     RDKit          3D

 62 65  0  0  0  0  0  0  0  0999 V2000
  200.2195  183.5408  146.1449 F   0  0  0  0  0  0  0  0  0  0  0  0
  199.2646  183.6978  147.0903 C   0  0  0  0  0  0  0  0  0  0  0  0
  199.1379  182.7568  148.1258 C   0  0  0  0  0  0  0  0  0  0  0  0
  198.1605  182.9163  149.1389 C   0  0  0  0  0  0  0  0  0  0  0  0
  197.2791  184.0386  149.0867 C   0  0  0  0  0  0  0  0  0  0  0  0
  196.3244  184.2422  150.0108 N   0  0  0  0  0  0  0  0  0  0  0  0
  196.2045  183.3784  151.0323 C   0  0  0  0  0  0  0  0  0  0  0  0
  197.0090  182.2319  151.1774 C   0  0  0  0  0  0  0  0  0  0  0  0
  198.0193  181.9871  150.2075 C   0  0  0  0  0  0  0  0  0  0  0  0
  198.8994  180.8828  150.3220 N   0  0  0  0  0  0  0  0  0  0  0  0
  198.6439  179.5604  149.8762 C   0  0  0  0  0  0  0  0  0  0  0  0
  199.3631  178.4122  150.3323 C   0  0  0  0  0  0  0  0  0  0  0  0
  200.3351  178.4829  151.2879 O   0  0  0  0  0  0  0  0  0  0  0  0
  199.0624  177.1338  149.8145 C   0  0  0  0  0  0  0  0  0  0  0  0
  198.0421  176.9609  148.8625 C   0  0  0  0  0  0  0  0  0  0  0  0
  197.3112  178.0755  148.4240 C   0  0  0  0  0  0  0  0  0  0  0  0
  197.6082  179.3560  148.9287 C   0  0  0  0  0  0  0  0  0  0  0  0
  200.2491  181.2580  150.7400 C   0  0  2  0  0  0  0  0  0  0  0  0
  196.7431  181.3283  152.3463 C   0  0  0  0  0  0  0  0  0  0  0  0
  196.5444  180.1259  152.1771 O   0  0  0  0  0  0  0  0  0  0  0  0
  196.7471  181.9325  153.5484 N   0  0  0  0  0  0  0  0  0  0  0  0
  196.6893  181.2901  154.8591 C   0  0  1  0  0  0  0  0  0  0  0  0
  198.0084  180.6547  155.2658 C   0  0  0  0  0  0  0  0  0  0  0  0
  198.8045  181.2151  156.2889 C   0  0  0  0  0  0  0  0  0  0  0  0
  200.0218  180.6032  156.6381 C   0  0  0  0  0  0  0  0  0  0  0  0
  200.4646  179.4404  155.9559 C   0  0  0  0  0  0  0  0  0  0  0  0
  199.6859  178.9106  154.9030 C   0  0  0  0  0  0  0  0  0  0  0  0
  198.4400  179.4857  154.6004 C   0  0  0  0  0  0  0  0  0  0  0  0
  201.7483  178.7319  156.3522 C   0  0  1  0  0  0  0  0  0  0  0  0
  201.5315  177.4417  157.0726 N   0  0  1  0  0  0  0  0  0  0  0  0
  200.8144  177.6025  158.3606 C   0  0  2  0  0  0  0  0  0  0  0  0
  200.9344  176.3516  156.2593 C   0  0  2  0  0  0  0  0  0  0  0  0
  197.4199  184.9639  148.0367 C   0  0  0  0  0  0  0  0  0  0  0  0
  198.4016  184.8067  147.0446 C   0  0  0  0  0  0  0  0  0  0  0  0
  199.8120  181.9125  148.1334 H   0  0  0  0  0  0  0  0  0  0  0  0
  195.4131  183.5860  151.7330 H   0  0  0  0  0  0  0  0  0  0  0  0
  200.7348  177.6419  151.4723 H   0  0  0  0  0  0  0  0  0  0  0  0
  199.6147  176.2679  150.1499 H   0  0  0  0  0  0  0  0  0  0  0  0
  197.8146  175.9768  148.4803 H   0  0  0  0  0  0  0  0  0  0  0  0
  196.5203  177.9429  147.6972 H   0  0  0  0  0  0  0  0  0  0  0  0
  197.0342  180.1903  148.5640 H   0  0  0  0  0  0  0  0  0  0  0  0
  201.0020  180.6897  150.1906 H   0  0  0  0  0  0  0  0  0  0  0  0
  200.3733  181.0717  151.8075 H   0  0  0  0  0  0  0  0  0  0  0  0
  200.4597  182.3142  150.5629 H   0  0  0  0  0  0  0  0  0  0  0  0
  196.8085  182.9399  153.5554 H   0  0  0  0  0  0  0  0  0  0  0  0
  196.3871  182.0363  155.6011 H   0  0  0  0  0  0  0  0  0  0  0  0
  195.9385  180.5059  154.8600 H   0  0  0  0  0  0  0  0  0  0  0  0
  198.4704  182.1090  156.8125 H   0  0  0  0  0  0  0  0  0  0  0  0
  200.6104  181.0235  157.4471 H   0  0  0  0  0  0  0  0  0  0  0  0
  200.0141  178.0524  154.3399 H   0  0  0  0  0  0  0  0  0  0  0  0
  197.8218  179.0078  153.8594 H   0  0  0  0  0  0  0  0  0  0  0  0
  202.3635  178.5665  155.4656 H   0  0  0  0  0  0  0  0  0  0  0  0
  202.3324  179.3971  156.9975 H   0  0  0  0  0  0  0  0  0  0  0  0
  199.8014  177.9698  158.2061 H   0  0  0  0  0  0  0  0  0  0  0  0
  201.3401  178.2996  159.0086 H   0  0  0  0  0  0  0  0  0  0  0  0
  200.7460  176.6510  158.8873 H   0  0  0  0  0  0  0  0  0  0  0  0
  199.9046  176.5930  155.9667 H   0  0  0  0  0  0  0  0  0  0  0  0
  200.9673  175.3982  156.8048 H   0  0  0  0  0  0  0  0  0  0  0  0
  201.5124  176.2119  155.3454 H   0  0  0  0  0  0  0  0  0  0  0  0
  196.7551  185.8153  147.9969 H   0  0  0  0  0  0  0  0  0  0  0  0
  198.4951  185.5274  146.2462 H   0  0  0  0  0  0  0  0  0  0  0  0
  202.4769  177.1703  157.3135 H   0  0  0  0  0  0  0  0  0  0  0  0
  1  2  1  0
  2  3  1  0
  2 34  2  0
  3  4  2  0
  3 35  1  0
  4  5  1  0
  4  9  1  0
  5  6  1  0
  5 33  2  0
  6  7  2  0
  7  8  1  0
  7 36  1  0
  8  9  2  0
  8 19  1  0
  9 10  1  0
 10 11  1  0
 10 18  1  0
 11 12  1  0
 11 17  2  0
 12 13  1  0
 12 14  2  0
 13 37  1  0
 14 15  1  0
 14 38  1  0
 15 16  2  0
 15 39  1  0
 16 17  1  0
 16 40  1  0
 17 41  1  0
 18 42  1  6
 18 43  1  0
 18 44  1  0
 19 20  2  0
 19 21  1  0
 21 22  1  0
 21 45  1  0
 22 23  1  0
 22 46  1  1
 22 47  1  0
 23 24  1  0
 23 28  2  0
 24 25  2  0
 24 48  1  0
 25 26  1  0
 25 49  1  0
 26 27  2  0
 26 29  1  0
 27 28  1  0
 27 50  1  0
 28 51  1  0
 29 30  1  0
 29 52  1  6
 29 53  1  0
 30 31  1  0
 30 32  1  0
 30 62  1  1
 31 54  1  6
 31 55  1  0
 31 56  1  0
 32 57  1  6
 32 58  1  0
 32 59  1  0
 33 34  1  0
 33 60  1  0
 34 61  1  0
M  CHG  1  30   1
M  END
>  <s_epik_cmdline>  (802) 
J2VwaWtfcHl0aG9uJywgJy1waCcsICc3LjAwMDAwMCcsICctcGh0JywgJzIuMDAwMDAwJywgJy1tcycsICcxNicsICctdG4nLCAnOCcsICctbWEnLCAnMjAwJywgJy1pbWFlJywgJzxpbmZpbGUubWFlPicsICctb21hZScsICc8b3V0ZmlsZS5tYWU+Jw==

>  <s_epik_input>  (802) 
W2NIXTFbY0hdW2NIXVtjSF1jKFtPSF0pYzFOKFtDSDNdKWMyYyhbY0hdbmMoYzIzKVtjSF1bY0hdYyhGKVtjSF0zKUMoPU8pW05IXVtDSDJdYzRbY0hdW2NIXWMoW2NIXVtjSF00KVtDSDJdTihbQ0gzXSlbQ0gzXQ==

>  <s_i_glide_gridfile>  (802) 
ATP-Grid

>  <s_lp_Force_Field>  (802) 
OPLS_2005

>  <s_lp_Variant>  (802) 
rxn512c____EMOL714785____EMOL36725275____EMOL50155899-1

>  <s_lp_label>  (802) 
2527_sdstereoexpander_1_neutralizer_1_epik_1_stereoizer_1

>  <s_m_source_file>  (802) 
ATP-VSW-LIGPREP-003-in.maegz

>  <s_sd_BIOSOLVEIT.INFINISEE\_QUERY\_NAME>  (802) 
Ref-Lig

>  <s_sd_BIOSOLVEIT.INFINISEE\_QUERY\_SMILES>  (802) 
S(c1nc2c(cc1C[NH2+]Cc3ccc(cc3)C[NH+](C)C)cccc2)Cc4ccccc4

>  <s_sd_BIOSOLVEIT.INFINISEE\_REACTION\_NAME>  (802) 
rxn512c

>  <s_sd_BIOSOLVEIT.INFINISEE\_REAGENT1\_NAME>  (802) 
EMOL714785

>  <s_sd_BIOSOLVEIT.INFINISEE\_REAGENT1\_SMILES>  (802) 
Oc1c(NC)cccc1

>  <s_sd_BIOSOLVEIT.INFINISEE\_REAGENT2\_NAME>  (802) 
EMOL36725275

>  <s_sd_BIOSOLVEIT.INFINISEE\_REAGENT2\_SMILES>  (802) 
Clc1c2c(ncc1C(=O)O)ccc(F)c2

>  <s_sd_BIOSOLVEIT.INFINISEE\_REAGENT3\_NAME>  (802) 
EMOL50155899

>  <s_sd_BIOSOLVEIT.INFINISEE\_REAGENT3\_SMILES>  (802) 
N(Cc1ccc(cc1)CN)(C)C

>  <s_sd_BIOSOLVEIT.INFINISEE\_SPACE>  (802) 
eXplore_7tr_2022-12

>  <s_vsw_compound_code>  (802) 
80835

>  <s_vsw_variant>  (802) 
80835-1

>  <r_epik_Charging_Adjusted_Penalty>  (802) 
0.0903365638524595

>  <r_epik_Ionization_Penalty>  (802) 
0.046899999999999997

>  <r_epik_Ionization_Penalty_Charging>  (802) 
0.045199999999999997

>  <r_epik_Ionization_Penalty_Neutral>  (802) 
0.0018

>  <r_epik_State_Penalty>  (802) 
0.045199999999999997

>  <r_i_docking_score>  (802) 
-4.3453290128930702

>  <r_i_glide_ecoul>  (802) 
-8.3151760101318395

>  <r_i_glide_eff_state_penalty>  (802) 
0.045199999999999997

>  <r_i_glide_einternal>  (802) 
2.07825708389282

>  <r_i_glide_emodel>  (802) 
-59.087074054947699

>  <r_i_glide_energy>  (802) 
-44.627382278442397

>  <r_i_glide_erotb>  (802) 
0.66698779704172895

>  <r_i_glide_esite>  (802) 
-0.042013933950967003

>  <r_i_glide_evdw>  (802) 
-36.312206268310497

>  <r_i_glide_gscore>  (802) 
-4.3905290128930696

>  <r_i_glide_hbond>  (802) 
0

>  <r_i_glide_ligand_efficiency>  (802) 
-0.127803794496855

>  <r_i_glide_ligand_efficiency_ln>  (802) 
-0.96000506129845997

>  <r_i_glide_ligand_efficiency_sa>  (802) 
-0.41403468041337499

>  <r_i_glide_lipo>  (802) 
-1.4173896269978501

>  <r_i_glide_metal>  (802) 
-0

>  <r_i_glide_rewards>  (802) 
-0.53522653405067899

>  <r_lp_Energy>  (802) 
37.192953000000003

>  <r_lp_tautomer_probability>  (802) 
0.999999999997365

>  <r_qp_ACxDN^.5/SA>  (802) 
0.012474300000000001

>  <r_qp_CIQPlogS>  (802) 
-6.0490000000000004

>  <r_qp_EA(eV)>  (802) 
1.4470000000000001

>  <r_qp_FISA>  (802) 
78.950000000000003

>  <r_qp_FOSA>  (802) 
260.66000000000003

>  <r_qp_IP(eV)>  (802) 
8.4789999999999992

>  <r_qp_Jm>  (802) 
0.0026046860355157298

>  <r_qp_PISA>  (802) 
378.72500000000002

>  <r_qp_PSA>  (802) 
69.019999999999996

>  <r_qp_PercentHumanOralAbsorption>  (802) 
100

>  <r_qp_QPPCaco>  (802) 
440.67099999999999

>  <r_qp_QPPMDCK>  (802) 
407.89499999999998

>  <r_qp_QPlogBB>  (802) 
-0.224

>  <r_qp_QPlogHERG>  (802) 
-7.2729999999999997

>  <r_qp_QPlogKhsa>  (802) 
0.79200000000000004

>  <r_qp_QPlogKp>  (802) 
-2.9350000000000001

>  <r_qp_QPlogPC16>  (802) 
14.898

>  <r_qp_QPlogPo/w>  (802) 
4.8319999999999999

>  <r_qp_QPlogPoct>  (802) 
23.506

>  <r_qp_QPlogPw>  (802) 
12.504

>  <r_qp_QPlogS>  (802) 
-5.3109999999999999

>  <r_qp_QPpolrz>  (802) 
49.506999999999998

>  <r_qp_SASA>  (802) 
765.24800000000005

>  <r_qp_SAamideO>  (802) 
0

>  <r_qp_SAfluorine>  (802) 
46.912999999999997

>  <r_qp_WPSA>  (802) 
46.912999999999997

>  <r_qp_accptHB>  (802) 
6.75

>  <r_qp_dip^2/V>  (802) 
0.027609499999999999

>  <r_qp_dipole>  (802) 
6.2809999999999997

>  <r_qp_donorHB>  (802) 
2

>  <r_qp_glob>  (802) 
0.80169970000000002

>  <r_qp_mol_MW>  (802) 
458.53399999999999

>  <r_qp_volume>  (802) 
1428.806

>  <r_sd_BIOSOLVEIT.INFINISEE\_FTREES\_SIMILARITY>  (802) 
0.91300000000000003

>  <r_sd_BIOSOLVEIT.LOGP>  (802) 
3.4218999999999999

>  <r_sd_BIOSOLVEIT.MOLECULAR\_WEIGHT>  (802) 
459.54199999999997

>  <r_sd_BIOSOLVEIT.TPSA>  (802) 
69.900000000000006

>  <i_epik_Tot_Q>  (802) 
1

>  <i_epik_Tot_abs_Q>  (802) 
1

>  <i_f3d_flags>  (802) 
0

>  <i_i_glide_confnum>  (802) 
2

>  <i_i_glide_lignum>  (802) 
1106

>  <i_i_glide_posenum>  (802) 
19

>  <i_i_glide_rotatable_bonds>  (802) 
9

>  <i_lp_mmshare_version>  (802) 
65135

>  <i_m_ct_format>  (802) 
2

>  <i_m_source_file_index>  (802) 
2527

>  <i_qp_#NandO>  (802) 
6

>  <i_qp_#acid>  (802) 
0

>  <i_qp_#amide>  (802) 
0

>  <i_qp_#amidine>  (802) 
0

>  <i_qp_#amine>  (802) 
1

>  <i_qp_#in34>  (802) 
0

>  <i_qp_#in56>  (802) 
22

>  <i_qp_#metab>  (802) 
7

>  <i_qp_#nonHatm>  (802) 
34

>  <i_qp_#noncon>  (802) 
0

>  <i_qp_#ringatoms>  (802) 
22

>  <i_qp_#rotor>  (802) 
8

>  <i_qp_#rtvFG>  (802) 
0

>  <i_qp_#stars>  (802) 
0

>  <i_qp_CNS>  (802) 
1

>  <i_qp_HumanOralAbsorption>  (802) 
3

>  <i_qp_RuleOfFive>  (802) 
0

>  <i_qp_RuleOfThree>  (802) 
1

>  <i_sd_BIOSOLVEIT.INFINISEE\_RESULT\_RANK>  (802) 
33447

>  <i_sd_version>  (802) 
0

>  <b_lp_Chiralities_Consistent>  (802) 
1

>  <b_sd_chiral_flag>  (802) 
0

>  <canonical_id>  (802) 
ATP-HTVS-7DD2E8BA0428

>  <compound_code>  (802) 
80835

>  <title>  (802) 
rxn512c____EMOL714785____EMOL36725275____EMOL50155899

>  <variant>  (802) 
80835-1

>  <source_file>  (802) 
运行/运行/ATP-VSW/ATP-VSW-DOCK_HTVS_1-003_lib/ATP-VSW-DOCK_HTVS_1-003_lib.mae

>  <canonical_smiles>  (802) 
CN(c1ccccc1O)c1c(C(=O)NCc2ccc(C[NH+](C)C)cc2)cnc2ccc(F)cc12

>  <scaffold>  (802) 
O=C(NCc1ccccc1)c1cnc2ccccc2c1Nc1ccccc1

>  <molecular_formula>  (802) 
C27H28FN4O2+

$$$$
ATP-HTVS-7DE0A46CB904
     RDKit          3D

 66 69  0  0  0  0  0  0  0  0999 V2000
  196.8716  179.0587  152.6002 F   0  0  0  0  0  0  0  0  0  0  0  0
  196.9074  179.7946  153.7108 C   0  0  1  0  0  0  0  0  0  0  0  0
  198.3456  180.2361  154.0310 C   0  0  1  0  0  0  0  0  0  0  0  0
  198.3373  181.2845  155.0473 N   0  0  0  0  0  0  0  0  0  0  0  0
  198.0587  182.6282  154.7303 C   0  0  0  0  0  0  0  0  0  0  0  0
  198.1399  183.0111  153.4408 N   0  0  0  0  0  0  0  0  0  0  0  0
  197.9089  184.2837  153.1011 C   0  0  0  0  0  0  0  0  0  0  0  0
  197.5937  185.2205  153.9985 N   0  0  0  0  0  0  0  0  0  0  0  0
  197.5126  184.9012  155.3060 C   0  0  0  0  0  0  0  0  0  0  0  0
  197.7475  183.5725  155.7320 C   0  0  0  0  0  0  0  0  0  0  0  0
  197.6625  183.2603  157.1067 C   0  0  0  0  0  0  0  0  0  0  0  0
  197.3579  184.2720  158.0410 C   0  0  0  0  0  0  0  0  0  0  0  0
  197.1313  185.5954  157.6078 C   0  0  0  0  0  0  0  0  0  0  0  0
  197.2059  185.9104  156.2370 C   0  0  0  0  0  0  0  0  0  0  0  0
  198.0184  184.6665  151.7786 N   0  0  0  0  0  0  0  0  0  0  0  0
  198.5697  183.8209  150.7259 C   0  0  1  0  0  0  0  0  0  0  0  0
  197.5862  182.7263  150.2682 C   0  0  1  0  0  0  0  0  0  0  0  0
  198.1974  181.7887  149.2441 C   0  0  0  0  0  0  0  0  0  0  0  0
  198.1703  180.3975  149.4669 C   0  0  0  0  0  0  0  0  0  0  0  0
  198.7166  179.5178  148.5161 C   0  0  0  0  0  0  0  0  0  0  0  0
  199.2705  180.0109  147.3141 C   0  0  0  0  0  0  0  0  0  0  0  0
  199.3100  181.4077  147.0998 C   0  0  0  0  0  0  0  0  0  0  0  0
  198.7714  182.2917  148.0566 C   0  0  0  0  0  0  0  0  0  0  0  0
  199.8078  179.0398  146.2618 C   0  0  1  0  0  0  0  0  0  0  0  0
  198.7601  178.5099  145.3416 N   0  0  2  0  0  0  0  0  0  0  0  0
  198.3012  179.5029  144.3501 C   0  0  2  0  0  0  0  0  0  0  0  0
  197.6285  177.8558  146.0426 C   0  0  2  0  0  0  0  0  0  0  0  0
  199.2026  179.0347  154.4270 C   0  0  0  0  0  0  0  0  0  0  0  0
  200.0242  178.4061  153.4668 C   0  0  0  0  0  0  0  0  0  0  0  0
  200.7917  177.2775  153.8139 C   0  0  0  0  0  0  0  0  0  0  0  0
  200.7507  176.7621  155.1265 C   0  0  0  0  0  0  0  0  0  0  0  0
  201.5341  175.5901  155.4771 C   0  0  0  0  0  0  0  0  0  0  0  0
  202.1607  174.6560  155.7514 N   0  0  0  0  0  0  0  0  0  0  0  0
  199.9380  177.3899  156.0890 C   0  0  0  0  0  0  0  0  0  0  0  0
  199.1634  178.5145  155.7385 C   0  0  0  0  0  0  0  0  0  0  0  0
  196.2418  180.6367  153.5331 H   0  0  0  0  0  0  0  0  0  0  0  0
  196.4884  179.2114  154.5257 H   0  0  0  0  0  0  0  0  0  0  0  0
  198.7891  180.6361  153.1182 H   0  0  0  0  0  0  0  0  0  0  0  0
  198.1607  180.9792  155.9913 H   0  0  0  0  0  0  0  0  0  0  0  0
  197.8314  182.2559  157.4701 H   0  0  0  0  0  0  0  0  0  0  0  0
  197.2950  184.0312  159.0928 H   0  0  0  0  0  0  0  0  0  0  0  0
  196.8859  186.3646  158.3259 H   0  0  0  0  0  0  0  0  0  0  0  0
  197.0213  186.9221  155.9064 H   0  0  0  0  0  0  0  0  0  0  0  0
  197.9439  185.6543  151.5850 H   0  0  0  0  0  0  0  0  0  0  0  0
  198.8231  184.4594  149.8813 H   0  0  0  0  0  0  0  0  0  0  0  0
  199.5059  183.3795  151.0712 H   0  0  0  0  0  0  0  0  0  0  0  0
  197.2499  182.1304  151.1172 H   0  0  0  0  0  0  0  0  0  0  0  0
  196.6900  183.1782  149.8404 H   0  0  0  0  0  0  0  0  0  0  0  0
  197.7055  179.9949  150.3556 H   0  0  0  0  0  0  0  0  0  0  0  0
  198.6725  178.4546  148.6996 H   0  0  0  0  0  0  0  0  0  0  0  0
  199.7235  181.8084  146.1861 H   0  0  0  0  0  0  0  0  0  0  0  0
  198.7804  183.3527  147.8597 H   0  0  0  0  0  0  0  0  0  0  0  0
  200.5919  179.5345  145.6848 H   0  0  0  0  0  0  0  0  0  0  0  0
  200.2975  178.2060  146.7705 H   0  0  0  0  0  0  0  0  0  0  0  0
  197.8189  180.3439  144.8427 H   0  0  0  0  0  0  0  0  0  0  0  0
  197.5865  179.0553  143.6589 H   0  0  0  0  0  0  0  0  0  0  0  0
  199.1380  179.8823  143.7629 H   0  0  0  0  0  0  0  0  0  0  0  0
  197.0493  178.5698  146.6303 H   0  0  0  0  0  0  0  0  0  0  0  0
  197.9846  177.0684  146.7107 H   0  0  0  0  0  0  0  0  0  0  0  0
  196.9333  177.4191  145.3323 H   0  0  0  0  0  0  0  0  0  0  0  0
  200.0540  178.7843  152.4545 H   0  0  0  0  0  0  0  0  0  0  0  0
  201.4056  176.8014  153.0613 H   0  0  0  0  0  0  0  0  0  0  0  0
  199.8783  177.0009  157.0941 H   0  0  0  0  0  0  0  0  0  0  0  0
  198.5307  178.9566  156.4947 H   0  0  0  0  0  0  0  0  0  0  0  0
  197.4027  186.1839  153.7232 H   0  0  0  0  0  0  0  0  0  0  0  0
  199.1993  177.7883  144.7779 H   0  0  0  0  0  0  0  0  0  0  0  0
  1  2  1  0
  2  3  1  0
  2 36  1  6
  2 37  1  0
  3  4  1  0
  3 28  1  0
  3 38  1  6
  4  5  1  0
  4 39  1  0
  5  6  2  0
  5 10  1  0
  6  7  1  0
  7  8  2  0
  7 15  1  0
  8  9  1  0
  8 65  1  0
  9 10  1  0
  9 14  2  0
 10 11  2  0
 11 12  1  0
 11 40  1  0
 12 13  2  0
 12 41  1  0
 13 14  1  0
 13 42  1  0
 14 43  1  0
 15 16  1  0
 15 44  1  0
 16 17  1  0
 16 45  1  6
 16 46  1  0
 17 18  1  0
 17 47  1  1
 17 48  1  0
 18 19  1  0
 18 23  2  0
 19 20  2  0
 19 49  1  0
 20 21  1  0
 20 50  1  0
 21 22  2  0
 21 24  1  0
 22 23  1  0
 22 51  1  0
 23 52  1  0
 24 25  1  0
 24 53  1  6
 24 54  1  0
 25 26  1  0
 25 27  1  0
 25 66  1  6
 26 55  1  1
 26 56  1  0
 26 57  1  0
 27 58  1  1
 27 59  1  0
 27 60  1  0
 28 29  1  0
 28 35  2  0
 29 30  2  0
 29 61  1  0
 30 31  1  0
 30 62  1  0
 31 32  1  0
 31 34  2  0
 32 33  3  0
 34 35  1  0
 34 63  1  0
 35 64  1  0
M  CHG  2   8   1  25   1
M  END
>  <s_epik_cmdline>  (803) 
J2VwaWtfcHl0aG9uJywgJy1waCcsICc3LjAwMDAwMCcsICctcGh0JywgJzIuMDAwMDAwJywgJy1tcycsICcxNicsICctdG4nLCAnOCcsICctbWEnLCAnMjAwJywgJy1pbWFlJywgJzxpbmZpbGUubWFlPicsICctb21hZScsICc8b3V0ZmlsZS5tYWU+Jw==

>  <s_epik_input>  (803) 
TiNDYyhbY0hdW2NIXTEpW2NIXVtjSF1jMVtDQEBIXShbQ0gyXUYpW05IXWMoYyhjMjMpW2NIXVtjSF1bY0hdW2NIXTMpbmMobjIpW05IXVtDSDJdW0NIMl1jNFtjSF1bY0hdYyhbY0hdW2NIXTQpW0NIMl1OKFtDSDNdKVtDSDNd

>  <s_i_glide_gridfile>  (803) 
ATP-Grid

>  <s_lp_Force_Field>  (803) 
OPLS_2005

>  <s_lp_Variant>  (803) 
m_282030aaa____21926464____22360182____21969014-2

>  <s_lp_label>  (803) 
1016_sdstereoexpander_2_neutralizer_1_epik_1_stereoizer_1

>  <s_m_source_file>  (803) 
ATP-VSW-LIGPREP-002-in.maegz

>  <s_sd_BIOSOLVEIT.INFINISEE\_QUERY\_NAME>  (803) 
Ref-Lig

>  <s_sd_BIOSOLVEIT.INFINISEE\_QUERY\_SMILES>  (803) 
S(c1nc2c(cc1C[NH2+]Cc3ccc(cc3)C[NH+](C)C)cccc2)Cc4ccccc4

>  <s_sd_BIOSOLVEIT.INFINISEE\_REACTION\_NAME>  (803) 
m_282030aaa

>  <s_sd_BIOSOLVEIT.INFINISEE\_REAGENT1\_SMILES>  (803) 
[R1*]NCCc1ccc(cc1)CN(C)C

>  <s_sd_BIOSOLVEIT.INFINISEE\_REAGENT2\_SMILES>  (803) 
[R2*]c1nc([R1*])c2c(n1)cccc2

>  <s_sd_BIOSOLVEIT.INFINISEE\_REAGENT3\_SMILES>  (803) 
[R2*]NC(c1ccc(C#N)cc1)CF

>  <s_sd_BIOSOLVEIT.INFINISEE\_SPACE>  (803) 
REALSpace_44bn_2023-08

>  <s_vsw_compound_code>  (803) 
32482

>  <s_vsw_variant>  (803) 
32482-2

>  <r_epik_Charging_Adjusted_Penalty>  (803) 
0.118497926141926

>  <r_epik_Ionization_Penalty>  (803) 
0.056899999999999999

>  <r_epik_Ionization_Penalty_Charging>  (803) 
0.0567

>  <r_epik_Ionization_Penalty_Neutral>  (803) 
0.0001

>  <r_epik_State_Penalty>  (803) 
0.061800000000000001

>  <r_i_docking_score>  (803) 
-3.23906717612951

>  <r_i_glide_ecoul>  (803) 
-6.46089839935303

>  <r_i_glide_eff_state_penalty>  (803) 
0.061800000000000001

>  <r_i_glide_einternal>  (803) 
2.3677015304565399

>  <r_i_glide_emodel>  (803) 
-50.134075598058203

>  <r_i_glide_energy>  (803) 
-37.064358711242697

>  <r_i_glide_erotb>  (803) 
0.72995947060548005

>  <r_i_glide_esite>  (803) 
-0.089058083381263003

>  <r_i_glide_evdw>  (803) 
-30.603460311889599

>  <r_i_glide_gscore>  (803) 
-3.3008671761295099

>  <r_i_glide_hbond>  (803) 
-0.0783189616184191

>  <r_i_glide_ligand_efficiency>  (803) 
-0.092544776460843206

>  <r_i_glide_ligand_efficiency_ln>  (803) 
-0.71104713238322104

>  <r_i_glide_ligand_efficiency_sa>  (803) 
-0.30272010010624001

>  <r_i_glide_lipo>  (803) 
-0.530236508577694

>  <r_i_glide_metal>  (803) 
-0

>  <r_i_glide_rewards>  (803) 
-0.83390531766017995

>  <r_lp_Energy>  (803) 
17.585265

>  <r_qp_ACxDN^.5/SA>  (803) 
0.0126371

>  <r_qp_CIQPlogS>  (803) 
-7.3490000000000002

>  <r_qp_EA(eV)>  (803) 
0.77100000000000002

>  <r_qp_FISA>  (803) 
73.454999999999998

>  <r_qp_FOSA>  (803) 
260.08199999999999

>  <r_qp_IP(eV)>  (803) 
8.1929999999999996

>  <r_qp_Jm>  (803) 
0.00355136558310377

>  <r_qp_PISA>  (803) 
353.10199999999998

>  <r_qp_PSA>  (803) 
67.492999999999995

>  <r_qp_PercentHumanOralAbsorption>  (803) 
100

>  <r_qp_QPPCaco>  (803) 
496.84899999999999

>  <r_qp_QPPMDCK>  (803) 
429.76799999999997

>  <r_qp_QPlogBB>  (803) 
-0.22900000000000001

>  <r_qp_QPlogHERG>  (803) 
-6.4779999999999998

>  <r_qp_QPlogKhsa>  (803) 
0.78000000000000003

>  <r_qp_QPlogKp>  (803) 
-2.7320000000000002

>  <r_qp_QPlogPC16>  (803) 
14.592000000000001

>  <r_qp_QPlogPo/w>  (803) 
4.944

>  <r_qp_QPlogPoct>  (803) 
22.658999999999999

>  <r_qp_QPlogPw>  (803) 
11.510999999999999

>  <r_qp_QPlogS>  (803) 
-5.3879999999999999

>  <r_qp_QPpolrz>  (803) 
47.966999999999999

>  <r_qp_SASA>  (803) 
727.41099999999994

>  <r_qp_SAamideO>  (803) 
0

>  <r_qp_SAfluorine>  (803) 
40.771999999999998

>  <r_qp_WPSA>  (803) 
40.771999999999998

>  <r_qp_accptHB>  (803) 
6.5

>  <r_qp_dip^2/V>  (803) 
0.0134112

>  <r_qp_dipole>  (803) 
4.3769999999999998

>  <r_qp_donorHB>  (803) 
2

>  <r_qp_glob>  (803) 
0.84329620000000005

>  <r_qp_mol_MW>  (803) 
468.57600000000002

>  <r_qp_volume>  (803) 
1428.5409999999999

>  <r_sd_BIOSOLVEIT.INFINISEE\_FTREES\_SIMILARITY>  (803) 
0.91500000000000004

>  <r_sd_BIOSOLVEIT.LOGP>  (803) 
3.9232800000000001

>  <r_sd_BIOSOLVEIT.MOLECULAR\_WEIGHT>  (803) 
469.58499999999998

>  <r_sd_BIOSOLVEIT.TPSA>  (803) 
78.069999999999993

>  <i_epik_Tot_Q>  (803) 
2

>  <i_epik_Tot_abs_Q>  (803) 
2

>  <i_f3d_flags>  (803) 
0

>  <i_i_glide_confnum>  (803) 
5

>  <i_i_glide_lignum>  (803) 
326

>  <i_i_glide_posenum>  (803) 
12

>  <i_i_glide_rotatable_bonds>  (803) 
10

>  <i_lp_mmshare_version>  (803) 
65135

>  <i_m_ct_format>  (803) 
2

>  <i_m_source_file_index>  (803) 
1016

>  <i_qp_#NandO>  (803) 
6

>  <i_qp_#acid>  (803) 
0

>  <i_qp_#amide>  (803) 
0

>  <i_qp_#amidine>  (803) 
0

>  <i_qp_#amine>  (803) 
1

>  <i_qp_#in34>  (803) 
0

>  <i_qp_#in56>  (803) 
22

>  <i_qp_#metab>  (803) 
4

>  <i_qp_#nonHatm>  (803) 
35

>  <i_qp_#noncon>  (803) 
0

>  <i_qp_#ringatoms>  (803) 
22

>  <i_qp_#rotor>  (803) 
10

>  <i_qp_#rtvFG>  (803) 
0

>  <i_qp_#stars>  (803) 
0

>  <i_qp_CNS>  (803) 
1

>  <i_qp_HumanOralAbsorption>  (803) 
3

>  <i_qp_RuleOfFive>  (803) 
0

>  <i_qp_RuleOfThree>  (803) 
0

>  <i_sd_BIOSOLVEIT.INFINISEE\_REAGENT1\_NAME>  (803) 
21926464

>  <i_sd_BIOSOLVEIT.INFINISEE\_REAGENT2\_NAME>  (803) 
22360182

>  <i_sd_BIOSOLVEIT.INFINISEE\_REAGENT3\_NAME>  (803) 
21969014

>  <i_sd_BIOSOLVEIT.INFINISEE\_RESULT\_RANK>  (803) 
27138

>  <i_sd_version>  (803) 
0

>  <b_lp_Chiralities_Consistent>  (803) 
1

>  <b_sd_chiral_flag>  (803) 
0

>  <canonical_id>  (803) 
ATP-HTVS-7DE0A46CB904

>  <compound_code>  (803) 
32482

>  <title>  (803) 
m_282030aaa____21926464____22360182____21969014

>  <variant>  (803) 
32482-2

>  <source_file>  (803) 
运行/运行/ATP-VSW/ATP-VSW-DOCK_HTVS_1-002_lib.maegz

>  <canonical_smiles>  (803) 
C[NH+](C)Cc1ccc(CCNc2nc(N[C@H](CF)c3ccc(C#N)cc3)c3ccccc3[nH+]2)cc1

>  <scaffold>  (803) 
c1ccc(CCNc2nc(NCc3ccccc3)c3ccccc3[nH+]2)cc1

>  <molecular_formula>  (803) 
C28H31FN6+2

$$$$
ATP-HTVS-7DE5D821A3A4
     RDKit          3D

 58 61  0  0  0  0  0  0  0  0999 V2000
  200.2860  180.9146  154.9411 O   0  0  0  0  0  0  0  0  0  0  0  0
  199.5315  180.8302  155.9109 C   0  0  0  0  0  0  0  0  0  0  0  0
  198.6564  179.8279  156.0862 N   0  0  0  0  0  0  0  0  0  0  0  0
  198.4753  178.7206  155.1614 C   0  0  1  0  0  0  0  0  0  0  0  0
  199.5822  177.6776  155.2363 C   0  0  0  0  0  0  0  0  0  0  0  0
  200.0694  177.0761  154.0592 C   0  0  0  0  0  0  0  0  0  0  0  0
  201.0820  176.0995  154.1217 C   0  0  0  0  0  0  0  0  0  0  0  0
  201.6207  175.7086  155.3711 C   0  0  0  0  0  0  0  0  0  0  0  0
  202.6160  174.7278  155.5051 N   0  0  0  0  0  0  0  0  0  0  0  0
  202.9917  173.8486  154.4028 C   0  0  1  0  0  0  0  0  0  0  0  0
  204.2993  173.1210  154.7558 C   0  0  1  0  0  0  0  0  0  0  0  0
  204.7711  172.2350  153.6760 N   0  0  2  0  0  0  0  0  0  0  0  0
  201.8633  172.8464  154.0794 C   0  0  2  0  0  0  0  0  0  0  0  0
  201.1341  176.3178  156.5444 C   0  0  0  0  0  0  0  0  0  0  0  0
  200.1169  177.2872  156.4810 C   0  0  0  0  0  0  0  0  0  0  0  0
  199.5393  181.8547  157.0095 C   0  0  0  0  0  0  0  0  0  0  0  0
  200.7214  182.3009  157.6683 C   0  0  0  0  0  0  0  0  0  0  0  0
  200.5738  183.2330  158.7367 C   0  0  0  0  0  0  0  0  0  0  0  0
  199.3711  183.7054  159.1257 N   0  0  0  0  0  0  0  0  0  0  0  0
  198.2465  183.3024  158.4935 C   0  0  0  0  0  0  0  0  0  0  0  0
  196.9701  183.8711  158.9933 C   0  0  0  0  0  0  0  0  0  0  0  0
  195.7295  183.2359  158.7320 C   0  0  0  0  0  0  0  0  0  0  0  0
  194.5173  183.7901  159.1800 C   0  0  0  0  0  0  0  0  0  0  0  0
  194.5176  184.9852  159.9189 C   0  0  0  0  0  0  0  0  0  0  0  0
  195.7332  185.6333  160.1936 C   0  0  0  0  0  0  0  0  0  0  0  0
  196.9440  185.0822  159.7328 C   0  0  0  0  0  0  0  0  0  0  0  0
  198.3026  182.3899  157.4203 C   0  0  0  0  0  0  0  0  0  0  0  0
  201.7240  183.6785  159.4230 C   0  0  0  0  0  0  0  0  0  0  0  0
  203.0070  183.2237  159.0702 C   0  0  0  0  0  0  0  0  0  0  0  0
  203.1524  182.3008  158.0207 C   0  0  0  0  0  0  0  0  0  0  0  0
  202.0178  181.8320  157.3323 C   0  0  0  0  0  0  0  0  0  0  0  0
  205.6437  171.7944  153.9195 H   0  0  0  0  0  0  0  0  0  0  0  0
  204.8736  172.7449  152.8110 H   0  0  0  0  0  0  0  0  0  0  0  0
  198.0854  179.7938  156.9239 H   0  0  0  0  0  0  0  0  0  0  0  0
  197.5332  178.2376  155.4173 H   0  0  0  0  0  0  0  0  0  0  0  0
  198.3766  179.1107  154.1447 H   0  0  0  0  0  0  0  0  0  0  0  0
  199.6607  177.3585  153.1005 H   0  0  0  0  0  0  0  0  0  0  0  0
  201.4232  175.6619  153.1974 H   0  0  0  0  0  0  0  0  0  0  0  0
  202.8830  174.4677  156.4458 H   0  0  0  0  0  0  0  0  0  0  0  0
  203.1923  174.4740  153.5328 H   0  0  0  0  0  0  0  0  0  0  0  0
  205.0904  173.8382  154.9873 H   0  0  0  0  0  0  0  0  0  0  0  0
  204.1293  172.5056  155.6379 H   0  0  0  0  0  0  0  0  0  0  0  0
  202.1201  172.2137  153.2314 H   0  0  0  0  0  0  0  0  0  0  0  0
  200.9352  173.3486  153.8111 H   0  0  0  0  0  0  0  0  0  0  0  0
  201.6584  172.1939  154.9306 H   0  0  0  0  0  0  0  0  0  0  0  0
  201.5275  176.0410  157.5108 H   0  0  0  0  0  0  0  0  0  0  0  0
  199.7387  177.7225  157.3935 H   0  0  0  0  0  0  0  0  0  0  0  0
  195.6755  182.3085  158.1796 H   0  0  0  0  0  0  0  0  0  0  0  0
  193.5885  183.2917  158.9442 H   0  0  0  0  0  0  0  0  0  0  0  0
  193.5824  185.4070  160.2564 H   0  0  0  0  0  0  0  0  0  0  0  0
  195.7395  186.5579  160.7528 H   0  0  0  0  0  0  0  0  0  0  0  0
  197.8617  185.6081  159.9564 H   0  0  0  0  0  0  0  0  0  0  0  0
  197.4026  182.0692  156.9172 H   0  0  0  0  0  0  0  0  0  0  0  0
  201.6105  184.3804  160.2371 H   0  0  0  0  0  0  0  0  0  0  0  0
  203.8769  183.5802  159.6039 H   0  0  0  0  0  0  0  0  0  0  0  0
  204.1355  181.9445  157.7430 H   0  0  0  0  0  0  0  0  0  0  0  0
  202.1748  181.1093  156.5459 H   0  0  0  0  0  0  0  0  0  0  0  0
  204.0639  171.4933  153.5987 H   0  0  0  0  0  0  0  0  0  0  0  0
  1  2  2  0
  2  3  1  0
  2 16  1  0
  3  4  1  0
  3 34  1  0
  4  5  1  0
  4 35  1  1
  4 36  1  0
  5  6  1  0
  5 15  2  0
  6  7  2  0
  6 37  1  0
  7  8  1  0
  7 38  1  0
  8  9  1  0
  8 14  2  0
  9 10  1  0
  9 39  1  0
 10 11  1  0
 10 13  1  0
 10 40  1  6
 11 12  1  0
 11 41  1  1
 11 42  1  0
 12 32  1  1
 12 33  1  0
 12 58  1  0
 13 43  1  6
 13 44  1  0
 13 45  1  0
 14 15  1  0
 14 46  1  0
 15 47  1  0
 16 17  1  0
 16 27  2  0
 17 18  1  0
 17 31  2  0
 18 19  1  0
 18 28  2  0
 19 20  2  0
 20 21  1  0
 20 27  1  0
 21 22  2  0
 21 26  1  0
 22 23  1  0
 22 48  1  0
 23 24  2  0
 23 49  1  0
 24 25  1  0
 24 50  1  0
 25 26  2  0
 25 51  1  0
 26 52  1  0
 27 53  1  0
 28 29  1  0
 28 54  1  0
 29 30  2  0
 29 55  1  0
 30 31  1  0
 30 56  1  0
 31 57  1  0
M  CHG  1  12   1
M  END
>  <s_epik_cmdline>  (804) 
J2VwaWtfcHl0aG9uJywgJy1waCcsICc3LjAwMDAwMCcsICctcGh0JywgJzIuMDAwMDAwJywgJy1tcycsICcxNicsICctdG4nLCAnOCcsICctbWEnLCAnMjAwJywgJy1pbWFlJywgJzxpbmZpbGUubWFlPicsICctb21hZScsICc8b3V0ZmlsZS5tYWU+Jw==

>  <s_epik_input>  (804) 
W2NIXTFbY0hdW2NIXVtjSF1bY0hdYzEtYyhuYyhjMjMpW2NIXVtjSF1bY0hdW2NIXTMpW2NIXWMyQyg9TylbTkhdW0NIMl1jNFtjSF1bY0hdYyhbY0hdW2NIXTQpW05IXVtDQEhdKFtDSDNdKVtDSDJdW05IMl0=

>  <s_i_glide_gridfile>  (804) 
ATP-Grid

>  <s_lp_Force_Field>  (804) 
OPLS_2005

>  <s_lp_Variant>  (804) 
rxn502a____EMOL487485____EMOL299960698____EMOL25691896-1

>  <s_lp_label>  (804) 
2569_sdstereoexpander_1_neutralizer_1_epik_1_stereoizer_1

>  <s_m_source_file>  (804) 
ATP-VSW-LIGPREP-003-in.maegz

>  <s_sd_BIOSOLVEIT.INFINISEE\_QUERY\_NAME>  (804) 
Ref-Lig

>  <s_sd_BIOSOLVEIT.INFINISEE\_QUERY\_SMILES>  (804) 
S(c1nc2c(cc1C[NH2+]Cc3ccc(cc3)C[NH+](C)C)cccc2)Cc4ccccc4

>  <s_sd_BIOSOLVEIT.INFINISEE\_REACTION\_NAME>  (804) 
rxn502a

>  <s_sd_BIOSOLVEIT.INFINISEE\_REAGENT1\_NAME>  (804) 
EMOL487485

>  <s_sd_BIOSOLVEIT.INFINISEE\_REAGENT1\_SMILES>  (804) 
O=C(O)c1c2c(nc(c3ccccc3)c1)cccc2

>  <s_sd_BIOSOLVEIT.INFINISEE\_REAGENT2\_NAME>  (804) 
EMOL299960698

>  <s_sd_BIOSOLVEIT.INFINISEE\_REAGENT2\_SMILES>  (804) 
Ic1ccc(cc1)CN

>  <s_sd_BIOSOLVEIT.INFINISEE\_REAGENT3\_NAME>  (804) 
EMOL25691896

>  <s_sd_BIOSOLVEIT.INFINISEE\_REAGENT3\_SMILES>  (804) 
NC(CN)C

>  <s_sd_BIOSOLVEIT.INFINISEE\_SPACE>  (804) 
eXplore_7tr_2022-12

>  <s_vsw_compound_code>  (804) 
82179

>  <s_vsw_variant>  (804) 
82179-1

>  <r_epik_Charging_Adjusted_Penalty>  (804) 
0.00026290740410395602

>  <r_epik_Ionization_Penalty>  (804) 
0.00029999999999999997

>  <r_epik_Ionization_Penalty_Charging>  (804) 
0.00029999999999999997

>  <r_epik_Ionization_Penalty_Neutral>  (804) 
0.0001

>  <r_epik_State_Penalty>  (804) 
-0

>  <r_i_docking_score>  (804) 
-5.2946349046992696

>  <r_i_glide_ecoul>  (804) 
-10.589550971984901

>  <r_i_glide_eff_state_penalty>  (804) 
-0

>  <r_i_glide_einternal>  (804) 
0.70656126737594604

>  <r_i_glide_emodel>  (804) 
-64.552624763813398

>  <r_i_glide_energy>  (804) 
-44.649521827697797

>  <r_i_glide_erotb>  (804) 
0.81472844982695203

>  <r_i_glide_esite>  (804) 
-0.19582936590387001

>  <r_i_glide_evdw>  (804) 
-34.059970855712898

>  <r_i_glide_gscore>  (804) 
-5.2946349046992696

>  <r_i_glide_hbond>  (804) 
-0.20000000000000001

>  <r_i_glide_ligand_efficiency>  (804) 
-0.17079467434513801

>  <r_i_glide_ligand_efficiency_ln>  (804) 
-1.1941024320827001

>  <r_i_glide_ligand_efficiency_sa>  (804) 
-0.536531084905157

>  <r_i_glide_lipo>  (804) 
-1.59382175458444

>  <r_i_glide_metal>  (804) 
-0

>  <r_i_glide_rewards>  (804) 
-0.82828104545454395

>  <r_lp_Energy>  (804) 
31.060030000000001

>  <r_lp_tautomer_probability>  (804) 
1

>  <r_qp_ACxDN^.5/SA>  (804) 
0.0141797

>  <r_qp_CIQPlogS>  (804) 
-5.3440000000000003

>  <r_qp_EA(eV)>  (804) 
1.1539999999999999

>  <r_qp_FISA>  (804) 
107.44799999999999

>  <r_qp_FOSA>  (804) 
171.43000000000001

>  <r_qp_IP(eV)>  (804) 
8.3529999999999998

>  <r_qp_Jm>  (804) 
0.00174713686497092

>  <r_qp_PISA>  (804) 
496.87700000000001

>  <r_qp_PSA>  (804) 
82.587999999999994

>  <r_qp_PercentHumanOralAbsorption>  (804) 
94.694999999999993

>  <r_qp_QPPCaco>  (804) 
236.52099999999999

>  <r_qp_QPPMDCK>  (804) 
115.20099999999999

>  <r_qp_QPlogBB>  (804) 
-0.72799999999999998

>  <r_qp_QPlogHERG>  (804) 
-8.3480000000000008

>  <r_qp_QPlogKhsa>  (804) 
0.66800000000000004

>  <r_qp_QPlogKp>  (804) 
-3.044

>  <r_qp_QPlogPC16>  (804) 
16.323

>  <r_qp_QPlogPo/w>  (804) 
4.3140000000000001

>  <r_qp_QPlogPoct>  (804) 
25.093

>  <r_qp_QPlogPw>  (804) 
15.208

>  <r_qp_QPlogS>  (804) 
-5.327

>  <r_qp_QPpolrz>  (804) 
48.399999999999999

>  <r_qp_SASA>  (804) 
775.755

>  <r_qp_SAamideO>  (804) 
0

>  <r_qp_SAfluorine>  (804) 
0

>  <r_qp_WPSA>  (804) 
0

>  <r_qp_accptHB>  (804) 
5.5

>  <r_qp_dip^2/V>  (804) 
0.013968700000000001

>  <r_qp_dipole>  (804) 
4.3789999999999996

>  <r_qp_donorHB>  (804) 
4

>  <r_qp_glob>  (804) 
0.77009550000000004

>  <r_qp_mol_MW>  (804) 
410.51799999999997

>  <r_qp_volume>  (804) 
1372.9549999999999

>  <r_sd_BIOSOLVEIT.INFINISEE\_FTREES\_SIMILARITY>  (804) 
0.91200000000000003

>  <r_sd_BIOSOLVEIT.LOGP>  (804) 
3.8740999999999999

>  <r_sd_BIOSOLVEIT.MOLECULAR\_WEIGHT>  (804) 
411.52600000000001

>  <r_sd_BIOSOLVEIT.TPSA>  (804) 
81.659999999999997

>  <i_epik_Tot_Q>  (804) 
1

>  <i_epik_Tot_abs_Q>  (804) 
1

>  <i_f3d_flags>  (804) 
0

>  <i_i_glide_confnum>  (804) 
4

>  <i_i_glide_lignum>  (804) 
1138

>  <i_i_glide_posenum>  (804) 
15

>  <i_i_glide_rotatable_bonds>  (804) 
8

>  <i_lp_mmshare_version>  (804) 
65135

>  <i_m_ct_format>  (804) 
2

>  <i_m_source_file_index>  (804) 
2569

>  <i_qp_#NandO>  (804) 
5

>  <i_qp_#acid>  (804) 
0

>  <i_qp_#amide>  (804) 
0

>  <i_qp_#amidine>  (804) 
0

>  <i_qp_#amine>  (804) 
1

>  <i_qp_#in34>  (804) 
0

>  <i_qp_#in56>  (804) 
22

>  <i_qp_#metab>  (804) 
5

>  <i_qp_#nonHatm>  (804) 
31

>  <i_qp_#noncon>  (804) 
0

>  <i_qp_#ringatoms>  (804) 
22

>  <i_qp_#rotor>  (804) 
8

>  <i_qp_#rtvFG>  (804) 
0

>  <i_qp_#stars>  (804) 
1

>  <i_qp_CNS>  (804) 
-1

>  <i_qp_HumanOralAbsorption>  (804) 
3

>  <i_qp_RuleOfFive>  (804) 
0

>  <i_qp_RuleOfThree>  (804) 
0

>  <i_sd_BIOSOLVEIT.INFINISEE\_RESULT\_RANK>  (804) 
37777

>  <i_sd_version>  (804) 
0

>  <b_lp_Chiralities_Consistent>  (804) 
1

>  <b_sd_chiral_flag>  (804) 
0

>  <canonical_id>  (804) 
ATP-HTVS-7DE5D821A3A4

>  <compound_code>  (804) 
82179

>  <title>  (804) 
rxn502a____EMOL487485____EMOL299960698____EMOL25691896

>  <variant>  (804) 
82179-1

>  <source_file>  (804) 
运行/运行/ATP-VSW/ATP-VSW-DOCK_HTVS_1-003_lib/ATP-VSW-DOCK_HTVS_1-003_lib.mae

>  <canonical_smiles>  (804) 
C[C@H](C[NH3+])Nc1ccc(CNC(=O)c2cc(-c3ccccc3)nc3ccccc23)cc1

>  <scaffold>  (804) 
O=C(NCc1ccccc1)c1cc(-c2ccccc2)nc2ccccc12

>  <molecular_formula>  (804) 
C26H27N4O+

$$$$
ATP-HTVS-7EF53BD61533
     RDKit          3D

 57 59  0  0  0  0  0  0  0  0999 V2000
  199.3761  183.0834  158.7767 O   0  0  0  0  0  0  0  0  0  0  0  0
  198.3869  183.0345  158.0317 C   0  0  0  0  0  0  0  0  0  0  0  0
  198.4408  182.6165  156.7271 N   0  0  0  0  0  0  0  0  0  0  0  0
  199.6191  182.0089  156.1680 C   0  0  0  0  0  0  0  0  0  0  0  0
  199.5828  180.7742  155.4662 C   0  0  0  0  0  0  0  0  0  0  0  0
  198.3690  180.0429  155.3967 N   0  0  0  0  0  0  0  0  0  0  0  0
  198.3223  178.6466  155.0037 C   0  0  1  0  0  0  0  0  0  0  0  0
  199.5070  177.8158  155.4765 C   0  0  0  0  0  0  0  0  0  0  0  0
  200.2120  176.9835  154.5709 C   0  0  0  0  0  0  0  0  0  0  0  0
  201.3937  176.3306  154.9873 C   0  0  0  0  0  0  0  0  0  0  0  0
  201.8585  176.5401  156.2949 C   0  0  0  0  0  0  0  0  0  0  0  0
  201.1212  177.2813  157.2266 C   0  0  0  0  0  0  0  0  0  0  0  0
  199.9461  177.9172  156.8213 C   0  0  0  0  0  0  0  0  0  0  0  0
  202.1828  175.4428  154.0289 C   0  0  1  0  0  0  0  0  0  0  0  0
  202.2989  174.0217  154.4854 N   0  0  1  0  0  0  0  0  0  0  0  0
  203.0778  173.8105  155.7296 C   0  0  2  0  0  0  0  0  0  0  0  0
  200.9778  173.3577  154.5590 C   0  0  2  0  0  0  0  0  0  0  0  0
  200.7767  180.3105  154.8713 C   0  0  0  0  0  0  0  0  0  0  0  0
  201.9702  180.9245  155.0184 N   0  0  0  0  0  0  0  0  0  0  0  0
  202.0199  182.0599  155.7318 C   0  0  0  0  0  0  0  0  0  0  0  0
  200.8841  182.6552  156.2995 C   0  0  0  0  0  0  0  0  0  0  0  0
  197.2972  182.8190  155.8055 C   0  0  2  0  0  0  0  0  0  0  0  0
  197.0666  183.4590  158.6015 C   0  0  0  0  0  0  0  0  0  0  0  0
  196.9428  184.6816  159.3065 C   0  0  0  0  0  0  0  0  0  0  0  0
  195.6932  185.0767  159.8215 C   0  0  0  0  0  0  0  0  0  0  0  0
  195.5717  186.3255  160.5503 C   0  0  0  0  0  0  0  0  0  0  0  0
  195.4721  187.3808  161.1553 C   0  0  0  0  0  0  0  0  0  0  0  0
  194.5563  184.2588  159.6347 C   0  0  0  0  0  0  0  0  0  0  0  0
  194.6838  183.0300  158.9590 C   0  0  0  0  0  0  0  0  0  0  0  0
  195.9318  182.6185  158.4745 C   0  0  0  0  0  0  0  0  0  0  0  0
  197.6073  180.3211  155.9896 H   0  0  0  0  0  0  0  0  0  0  0  0
  197.4232  178.2003  155.4330 H   0  0  0  0  0  0  0  0  0  0  0  0
  198.2473  178.5755  153.9216 H   0  0  0  0  0  0  0  0  0  0  0  0
  199.8860  176.9217  153.5401 H   0  0  0  0  0  0  0  0  0  0  0  0
  202.7727  176.1229  156.6308 H   0  0  0  0  0  0  0  0  0  0  0  0
  201.4840  177.4099  158.2317 H   0  0  0  0  0  0  0  0  0  0  0  0
  199.4353  178.5923  157.5083 H   0  0  0  0  0  0  0  0  0  0  0  0
  201.6876  175.4598  153.0436 H   0  0  0  0  0  0  0  0  0  0  0  0
  203.1688  175.8734  153.8513 H   0  0  0  0  0  0  0  0  0  0  0  0
  202.5696  174.2451  156.5790 H   0  0  0  0  0  0  0  0  0  0  0  0
  204.0385  174.2829  155.6361 H   0  0  0  0  0  0  0  0  0  0  0  0
  203.2348  172.7540  155.9104 H   0  0  0  0  0  0  0  0  0  0  0  0
  200.3508  173.8354  155.3191 H   0  0  0  0  0  0  0  0  0  0  0  0
  201.0983  172.3103  154.8432 H   0  0  0  0  0  0  0  0  0  0  0  0
  200.4406  173.3837  153.6019 H   0  0  0  0  0  0  0  0  0  0  0  0
  200.8195  179.4082  154.2788 H   0  0  0  0  0  0  0  0  0  0  0  0
  203.0039  182.5112  155.8104 H   0  0  0  0  0  0  0  0  0  0  0  0
  200.9858  183.6012  156.8071 H   0  0  0  0  0  0  0  0  0  0  0  0
  197.5502  182.5259  154.7784 H   0  0  0  0  0  0  0  0  0  0  0  0
  197.0190  183.8790  155.7713 H   0  0  0  0  0  0  0  0  0  0  0  0
  196.4307  182.2242  156.0942 H   0  0  0  0  0  0  0  0  0  0  0  0
  197.8146  185.3100  159.4434 H   0  0  0  0  0  0  0  0  0  0  0  0
  195.3990  188.3077  161.6707 H   0  0  0  0  0  0  0  0  0  0  0  0
  193.5919  184.5600  160.0206 H   0  0  0  0  0  0  0  0  0  0  0  0
  193.8213  182.3993  158.8068 H   0  0  0  0  0  0  0  0  0  0  0  0
  196.0116  181.6479  157.9954 H   0  0  0  0  0  0  0  0  0  0  0  0
  202.7883  173.5421  153.7411 H   0  0  0  0  0  0  0  0  0  0  0  0
  1  2  2  0
  2  3  1  0
  2 23  1  0
  3  4  1  0
  3 22  1  0
  4  5  1  0
  4 21  2  0
  5  6  1  0
  5 18  2  0
  6  7  1  0
  6 31  1  0
  7  8  1  0
  7 32  1  1
  7 33  1  0
  8  9  2  0
  8 13  1  0
  9 10  1  0
  9 34  1  0
 10 11  2  0
 10 14  1  0
 11 12  1  0
 11 35  1  0
 12 13  2  0
 12 36  1  0
 13 37  1  0
 14 15  1  0
 14 38  1  6
 14 39  1  0
 15 16  1  0
 15 17  1  0
 15 57  1  6
 16 40  1  1
 16 41  1  0
 16 42  1  0
 17 43  1  1
 17 44  1  0
 17 45  1  0
 18 19  1  0
 18 46  1  0
 19 20  2  0
 20 21  1  0
 20 47  1  0
 21 48  1  0
 22 49  1  6
 22 50  1  0
 22 51  1  0
 23 24  1  0
 23 30  2  0
 24 25  2  0
 24 52  1  0
 25 26  1  0
 25 28  1  0
 26 27  3  0
 27 53  1  0
 28 29  2  0
 28 54  1  0
 29 30  1  0
 29 55  1  0
 30 56  1  0
M  CHG  1  15   1
M  END
>  <s_epik_cmdline>  (805) 
J2VwaWtfcHl0aG9uJywgJy1waCcsICc3LjAwMDAwMCcsICctcGh0JywgJzIuMDAwMDAwJywgJy1tcycsICcxNicsICctdG4nLCAnOCcsICctbWEnLCAnMjAwJywgJy1pbWFlJywgJzxpbmZpbGUubWFlPicsICctb21hZScsICc8b3V0ZmlsZS5tYWU+Jw==

>  <s_epik_input>  (805) 
W2NIXTFbY0hdW2NIXWMoQyNbQ0hdKVtjSF1jMUMoPU8pTihbQ0gzXSljMmMoW2NIXW5bY0hdW2NIXTIpW05IXVtDSDJdYzNbY0hdYyhbY0hdW2NIXVtjSF0zKVtDSDJdTihbQ0gzXSlbQ0gzXQ==

>  <s_i_glide_gridfile>  (805) 
ATP-Grid

>  <s_lp_Force_Field>  (805) 
OPLS_2005

>  <s_lp_Variant>  (805) 
rxn502a____EMOL31600582____EMOL81846330____EMOL2873214-1

>  <s_lp_label>  (805) 
2983_sdstereoexpander_1_neutralizer_1_epik_1_stereoizer_1

>  <s_m_source_file>  (805) 
ATP-VSW-LIGPREP-002-in.maegz

>  <s_sd_BIOSOLVEIT.INFINISEE\_QUERY\_NAME>  (805) 
Ref-Lig

>  <s_sd_BIOSOLVEIT.INFINISEE\_QUERY\_SMILES>  (805) 
S(c1nc2c(cc1C[NH2+]Cc3ccc(cc3)C[NH+](C)C)cccc2)Cc4ccccc4

>  <s_sd_BIOSOLVEIT.INFINISEE\_REACTION\_NAME>  (805) 
rxn502a

>  <s_sd_BIOSOLVEIT.INFINISEE\_REAGENT1\_NAME>  (805) 
EMOL31600582

>  <s_sd_BIOSOLVEIT.INFINISEE\_REAGENT1\_SMILES>  (805) 
O=C(O)c1cc(C#C)ccc1

>  <s_sd_BIOSOLVEIT.INFINISEE\_REAGENT2\_NAME>  (805) 
EMOL81846330

>  <s_sd_BIOSOLVEIT.INFINISEE\_REAGENT2\_SMILES>  (805) 
Ic1c(NC)ccnc1

>  <s_sd_BIOSOLVEIT.INFINISEE\_REAGENT3\_NAME>  (805) 
EMOL2873214

>  <s_sd_BIOSOLVEIT.INFINISEE\_REAGENT3\_SMILES>  (805) 
N(Cc1cc(ccc1)CN)(C)C

>  <s_sd_BIOSOLVEIT.INFINISEE\_SPACE>  (805) 
eXplore_7tr_2022-12

>  <s_vsw_compound_code>  (805) 
95426

>  <s_vsw_variant>  (805) 
95426-1

>  <r_epik_Charging_Adjusted_Penalty>  (805) 
0.13524123248544101

>  <r_epik_Ionization_Penalty>  (805) 
0.0911

>  <r_epik_Ionization_Penalty_Charging>  (805) 
0.0441

>  <r_epik_Ionization_Penalty_Neutral>  (805) 
0.047

>  <r_epik_State_Penalty>  (805) 
0.0911

>  <r_i_docking_score>  (805) 
-4.1841250191075501

>  <r_i_glide_ecoul>  (805) 
-5.2753109931945801

>  <r_i_glide_eff_state_penalty>  (805) 
0.0911

>  <r_i_glide_einternal>  (805) 
5.3311605453491202

>  <r_i_glide_emodel>  (805) 
-51.661734234472398

>  <r_i_glide_energy>  (805) 
-40.247612476348898

>  <r_i_glide_erotb>  (805) 
0.98217298905843797

>  <r_i_glide_esite>  (805) 
-0.072399091130383703

>  <r_i_glide_evdw>  (805) 
-34.972301483154297

>  <r_i_glide_gscore>  (805) 
-4.27522501910755

>  <r_i_glide_hbond>  (805) 
0

>  <r_i_glide_ligand_efficiency>  (805) 
-0.13947083397025201

>  <r_i_glide_ligand_efficiency_ln>  (805) 
-0.95067879403476596

>  <r_i_glide_ligand_efficiency_sa>  (805) 
-0.43336830845353602

>  <r_i_glide_lipo>  (805) 
-1.95991501208052

>  <r_i_glide_metal>  (805) 
-0

>  <r_i_glide_rewards>  (805) 
-0.68517218181818096

>  <r_lp_Energy>  (805) 
38.053880999999997

>  <r_lp_tautomer_probability>  (805) 
0.999999999999999

>  <r_qp_ACxDN^.5/SA>  (805) 
0.0126182

>  <r_qp_CIQPlogS>  (805) 
-4.3440000000000003

>  <r_qp_EA(eV)>  (805) 
0.38300000000000001

>  <r_qp_FISA>  (805) 
62.779000000000003

>  <r_qp_FOSA>  (805) 
317.34899999999999

>  <r_qp_IP(eV)>  (805) 
8.7149999999999999

>  <r_qp_Jm>  (805) 
0.0429137065747007

>  <r_qp_PISA>  (805) 
347.83499999999998

>  <r_qp_PSA>  (805) 
54.975000000000001

>  <r_qp_PercentHumanOralAbsorption>  (805) 
100

>  <r_qp_QPPCaco>  (805) 
627.28599999999994

>  <r_qp_QPPMDCK>  (805) 
330.60899999999998

>  <r_qp_QPlogBB>  (805) 
-0.159

>  <r_qp_QPlogHERG>  (805) 
-7.0049999999999999

>  <r_qp_QPlogKhsa>  (805) 
0.44400000000000001

>  <r_qp_QPlogKp>  (805) 
-2.746

>  <r_qp_QPlogPC16>  (805) 
13.960000000000001

>  <r_qp_QPlogPo/w>  (805) 
3.968

>  <r_qp_QPlogPoct>  (805) 
21.260000000000002

>  <r_qp_QPlogPw>  (805) 
12.084

>  <r_qp_QPlogS>  (805) 
-4.2220000000000004

>  <r_qp_QPpolrz>  (805) 
45.826999999999998

>  <r_qp_SASA>  (805) 
727.96299999999997

>  <r_qp_SAamideO>  (805) 
0

>  <r_qp_SAfluorine>  (805) 
0

>  <r_qp_WPSA>  (805) 
0

>  <r_qp_accptHB>  (805) 
7.5

>  <r_qp_dip^2/V>  (805) 
0.0075147

>  <r_qp_dipole>  (805) 
3.1779999999999999

>  <r_qp_donorHB>  (805) 
1.5

>  <r_qp_glob>  (805) 
0.80916339999999998

>  <r_qp_mol_MW>  (805) 
398.50700000000001

>  <r_qp_volume>  (805) 
1344.222

>  <r_sd_BIOSOLVEIT.INFINISEE\_FTREES\_SIMILARITY>  (805) 
0.90300000000000002

>  <r_sd_BIOSOLVEIT.LOGP>  (805) 
2.5960999999999999

>  <r_sd_BIOSOLVEIT.MOLECULAR\_WEIGHT>  (805) 
399.51499999999999

>  <r_sd_BIOSOLVEIT.TPSA>  (805) 
49.670000000000002

>  <i_epik_Tot_Q>  (805) 
1

>  <i_epik_Tot_abs_Q>  (805) 
1

>  <i_f3d_flags>  (805) 
0

>  <i_i_glide_confnum>  (805) 
12

>  <i_i_glide_lignum>  (805) 
39

>  <i_i_glide_posenum>  (805) 
8

>  <i_i_glide_rotatable_bonds>  (805) 
9

>  <i_lp_mmshare_version>  (805) 
65135

>  <i_m_ct_format>  (805) 
2

>  <i_m_source_file_index>  (805) 
2983

>  <i_qp_#NandO>  (805) 
5

>  <i_qp_#acid>  (805) 
0

>  <i_qp_#amide>  (805) 
0

>  <i_qp_#amidine>  (805) 
0

>  <i_qp_#amine>  (805) 
1

>  <i_qp_#in34>  (805) 
0

>  <i_qp_#in56>  (805) 
18

>  <i_qp_#metab>  (805) 
8

>  <i_qp_#nonHatm>  (805) 
30

>  <i_qp_#noncon>  (805) 
0

>  <i_qp_#ringatoms>  (805) 
18

>  <i_qp_#rotor>  (805) 
8

>  <i_qp_#rtvFG>  (805) 
0

>  <i_qp_#stars>  (805) 
0

>  <i_qp_CNS>  (805) 
1

>  <i_qp_HumanOralAbsorption>  (805) 
3

>  <i_qp_RuleOfFive>  (805) 
0

>  <i_qp_RuleOfThree>  (805) 
1

>  <i_sd_BIOSOLVEIT.INFINISEE\_RESULT\_RANK>  (805) 
83969

>  <i_sd_version>  (805) 
0

>  <b_lp_Chiralities_Consistent>  (805) 
1

>  <b_sd_chiral_flag>  (805) 
0

>  <canonical_id>  (805) 
ATP-HTVS-7EF53BD61533

>  <compound_code>  (805) 
95426

>  <title>  (805) 
rxn502a____EMOL31600582____EMOL81846330____EMOL2873214

>  <variant>  (805) 
95426-1

>  <source_file>  (805) 
运行/运行/ATP-VSW/ATP-VSW-DOCK_HTVS_1-003_lib/ATP-VSW-DOCK_HTVS_1-003_lib.mae

>  <canonical_smiles>  (805) 
C#Cc1cccc(C(=O)N(C)c2ccncc2NCc2cccc(C[NH+](C)C)c2)c1

>  <scaffold>  (805) 
O=C(Nc1ccncc1NCc1ccccc1)c1ccccc1

>  <molecular_formula>  (805) 
C25H27N4O+

$$$$
ATP-HTVS-7EF96EA99BCF
     RDKit          3D

 70 74  0  0  0  0  0  0  0  0999 V2000
  201.3509  184.3144  158.5442 O   0  0  0  0  0  0  0  0  0  0  0  0
  200.2206  184.2136  158.0687 C   0  0  0  0  0  0  0  0  0  0  0  0
  199.2458  185.1248  158.2599 N   0  0  0  0  0  0  0  0  0  0  0  0
  199.3615  186.4685  158.7291 C   0  0  0  0  0  0  0  0  0  0  0  0
  198.1777  187.2032  159.0276 C   0  0  0  0  0  0  0  0  0  0  0  0
  196.9137  186.6037  158.8940 N   0  0  0  0  0  0  0  0  0  0  0  0
  196.5118  185.6805  159.9567 C   0  0  1  0  0  0  0  0  0  0  0  0
  195.6323  186.3671  160.9171 C   0  0  0  0  0  0  0  0  0  0  0  0
  194.9369  186.9042  161.6711 N   0  0  0  0  0  0  0  0  0  0  0  0
  195.8961  184.3724  159.4770 C   0  0  0  0  0  0  0  0  0  0  0  0
  196.7137  183.2409  159.2921 C   0  0  0  0  0  0  0  0  0  0  0  0
  196.1572  182.0346  158.8297 C   0  0  0  0  0  0  0  0  0  0  0  0
  194.7793  181.9422  158.5663 C   0  0  0  0  0  0  0  0  0  0  0  0
  193.9569  183.0623  158.7570 C   0  0  0  0  0  0  0  0  0  0  0  0
  194.5103  184.2656  159.2243 C   0  0  0  0  0  0  0  0  0  0  0  0
  196.2467  186.6358  157.5830 C   0  0  1  0  0  0  0  0  0  0  0  0
  196.6747  187.7789  156.6449 C   0  0  2  0  0  0  0  0  0  0  0  0
  198.2974  188.5838  159.3683 C   0  0  0  0  0  0  0  0  0  0  0  0
  199.5850  189.1761  159.4152 C   0  0  0  0  0  0  0  0  0  0  0  0
  200.6696  188.4324  159.1320 N   0  0  0  0  0  0  0  0  0  0  0  0
  200.6088  187.1294  158.7926 C   0  0  0  0  0  0  0  0  0  0  0  0
  199.7422  190.5405  159.7305 C   0  0  0  0  0  0  0  0  0  0  0  0
  198.6121  191.3240  160.0202 C   0  0  0  0  0  0  0  0  0  0  0  0
  197.3264  190.7539  159.9626 C   0  0  0  0  0  0  0  0  0  0  0  0
  197.1666  189.3902  159.6434 C   0  0  0  0  0  0  0  0  0  0  0  0
  199.8056  182.9727  157.3153 C   0  0  0  0  0  0  0  0  0  0  0  0
  198.6848  182.9794  156.4524 C   0  0  0  0  0  0  0  0  0  0  0  0
  198.3073  181.8172  155.7512 C   0  0  0  0  0  0  0  0  0  0  0  0
  199.0747  180.6432  155.8827 C   0  0  0  0  0  0  0  0  0  0  0  0
  200.2064  180.6291  156.7195 C   0  0  0  0  0  0  0  0  0  0  0  0
  200.5749  181.7907  157.4282 C   0  0  0  0  0  0  0  0  0  0  0  0
  197.0831  181.8367  154.8676 C   0  0  1  0  0  0  0  0  0  0  0  0
  197.4612  182.2491  153.4803 N   0  0  1  0  0  0  0  0  0  0  0  0
  196.4937  181.8696  152.4392 C   0  0  1  0  0  0  0  0  0  0  0  0
  196.8559  182.7113  151.2082 C   0  0  1  0  0  0  0  0  0  0  0  0
  197.6505  183.9026  151.7561 C   0  0  1  0  0  0  0  0  0  0  0  0
  197.6886  183.6994  153.2792 C   0  0  1  0  0  0  0  0  0  0  0  0
  198.3156  184.8473  157.9796 H   0  0  0  0  0  0  0  0  0  0  0  0
  197.4003  185.4213  160.5350 H   0  0  0  0  0  0  0  0  0  0  0  0
  197.7691  183.2769  159.5187 H   0  0  0  0  0  0  0  0  0  0  0  0
  196.7831  181.1635  158.6945 H   0  0  0  0  0  0  0  0  0  0  0  0
  194.3500  181.0114  158.2236 H   0  0  0  0  0  0  0  0  0  0  0  0
  192.9008  182.9905  158.5505 H   0  0  0  0  0  0  0  0  0  0  0  0
  193.8554  185.1037  159.3798 H   0  0  0  0  0  0  0  0  0  0  0  0
  196.3997  185.6857  157.0769 H   0  0  0  0  0  0  0  0  0  0  0  0
  195.1733  186.7247  157.7524 H   0  0  0  0  0  0  0  0  0  0  0  0
  196.0968  187.7357  155.7361 H   0  0  0  0  0  0  0  0  0  0  0  0
  197.7348  187.7370  156.3783 H   0  0  0  0  0  0  0  0  0  0  0  0
  196.4833  188.7452  157.1066 H   0  0  0  0  0  0  0  0  0  0  0  0
  201.5587  186.6940  158.5219 H   0  0  0  0  0  0  0  0  0  0  0  0
  200.7234  190.9858  159.7894 H   0  0  0  0  0  0  0  0  0  0  0  0
  198.7356  192.3605  160.3003 H   0  0  0  0  0  0  0  0  0  0  0  0
  196.4571  191.3577  160.1734 H   0  0  0  0  0  0  0  0  0  0  0  0
  196.1627  188.9897  159.5876 H   0  0  0  0  0  0  0  0  0  0  0  0
  198.0945  183.8710  156.3156 H   0  0  0  0  0  0  0  0  0  0  0  0
  198.8056  179.7457  155.3467 H   0  0  0  0  0  0  0  0  0  0  0  0
  200.7844  179.7203  156.8331 H   0  0  0  0  0  0  0  0  0  0  0  0
  201.4298  181.7471  158.0947 H   0  0  0  0  0  0  0  0  0  0  0  0
  196.6477  180.8393  154.8594 H   0  0  0  0  0  0  0  0  0  0  0  0
  196.3205  182.4921  155.2854 H   0  0  0  0  0  0  0  0  0  0  0  0
  196.4439  180.7930  152.2536 H   0  0  0  0  0  0  0  0  0  0  0  0
  195.5348  182.1918  152.8120 H   0  0  0  0  0  0  0  0  0  0  0  0
  197.4723  182.1248  150.5306 H   0  0  0  0  0  0  0  0  0  0  0  0
  195.9648  183.0169  150.6648 H   0  0  0  0  0  0  0  0  0  0  0  0
  198.6626  183.8869  151.3535 H   0  0  0  0  0  0  0  0  0  0  0  0
  197.2097  184.8630  151.4973 H   0  0  0  0  0  0  0  0  0  0  0  0
  196.8605  184.2585  153.7299 H   0  0  0  0  0  0  0  0  0  0  0  0
  198.6186  184.0555  153.7332 H   0  0  0  0  0  0  0  0  0  0  0  0
  198.3190  181.7879  153.2249 H   0  0  0  0  0  0  0  0  0  0  0  0
  201.5832  188.8826  159.1453 H   0  0  0  0  0  0  0  0  0  0  0  0
  1  2  2  0
  2  3  1  0
  2 26  1  0
  3  4  1  0
  3 38  1  0
  4  5  2  0
  4 21  1  0
  5  6  1  0
  5 18  1  0
  6  7  1  0
  6 16  1  0
  7  8  1  0
  7 10  1  0
  7 39  1  1
  8  9  3  0
 10 11  2  0
 10 15  1  0
 11 12  1  0
 11 40  1  0
 12 13  2  0
 12 41  1  0
 13 14  1  0
 13 42  1  0
 14 15  2  0
 14 43  1  0
 15 44  1  0
 16 17  1  0
 16 45  1  6
 16 46  1  0
 17 47  1  6
 17 48  1  0
 17 49  1  0
 18 19  1  0
 18 25  2  0
 19 20  1  0
 19 22  2  0
 20 21  2  0
 20 70  1  0
 21 50  1  0
 22 23  1  0
 22 51  1  0
 23 24  2  0
 23 52  1  0
 24 25  1  0
 24 53  1  0
 25 54  1  0
 26 27  2  0
 26 31  1  0
 27 28  1  0
 27 55  1  0
 28 29  2  0
 28 32  1  0
 29 30  1  0
 29 56  1  0
 30 31  2  0
 30 57  1  0
 31 58  1  0
 32 33  1  0
 32 59  1  6
 32 60  1  0
 33 34  1  0
 33 37  1  0
 33 69  1  6
 34 35  1  0
 34 61  1  6
 34 62  1  0
 35 36  1  0
 35 63  1  6
 35 64  1  0
 36 37  1  0
 36 65  1  6
 36 66  1  0
 37 67  1  1
 37 68  1  0
M  CHG  2  20   1  33   1
M  END
>  <s_epik_cmdline>  (806) 
J2VwaWtfcHl0aG9uJywgJy1waCcsICc3LjAwMDAwMCcsICctcGh0JywgJzIuMDAwMDAwJywgJy1tcycsICcxNicsICctdG4nLCAnOCcsICctbWEnLCAnMjAwJywgJy1pbWFlJywgJzxpbmZpbGUubWFlPicsICctb21hZScsICc8b3V0ZmlsZS5tYWU+Jw==

>  <s_epik_input>  (806) 
W0NIMl0xW0NIMl1bQ0gyXVtDSDJdTjFbQ0gyXWMoW2NIXVtjSF1bY0hdMilbY0hdYzJDKD1PKVtOSF1jKFtjSF1uYyhjMzQpW2NIXVtjSF1bY0hdW2NIXTQpYzNOKFtDSDJdW0NIM10pW0NAQEhdKEMjTiljNVtjSF1bY0hdW2NIXVtjSF1bY0hdNQ==

>  <s_i_glide_gridfile>  (806) 
ATP-Grid

>  <s_lp_Force_Field>  (806) 
OPLS_2005

>  <s_lp_Variant>  (806) 
rxn502b____EMOL5849923____EMOL30488121____EMOL49839592-1

>  <s_lp_label>  (806) 
2981_sdstereoexpander_1_neutralizer_1_epik_1_stereoizer_1

>  <s_m_source_file>  (806) 
ATP-VSW-LIGPREP-001-in.maegz

>  <s_sd_BIOSOLVEIT.INFINISEE\_QUERY\_NAME>  (806) 
Ref-Lig

>  <s_sd_BIOSOLVEIT.INFINISEE\_QUERY\_SMILES>  (806) 
S(c1nc2c(cc1C[NH2+]Cc3ccc(cc3)C[NH+](C)C)cccc2)Cc4ccccc4

>  <s_sd_BIOSOLVEIT.INFINISEE\_REACTION\_NAME>  (806) 
rxn502b

>  <s_sd_BIOSOLVEIT.INFINISEE\_REAGENT1\_NAME>  (806) 
EMOL5849923

>  <s_sd_BIOSOLVEIT.INFINISEE\_REAGENT1\_SMILES>  (806) 
O=C(O)c1cc(ccc1)CN2CCCC2

>  <s_sd_BIOSOLVEIT.INFINISEE\_REAGENT2\_NAME>  (806) 
EMOL30488121

>  <s_sd_BIOSOLVEIT.INFINISEE\_REAGENT2\_SMILES>  (806) 
Brc1c(N)cnc2c1cccc2

>  <s_sd_BIOSOLVEIT.INFINISEE\_REAGENT3\_NAME>  (806) 
EMOL49839592

>  <s_sd_BIOSOLVEIT.INFINISEE\_REAGENT3\_SMILES>  (806) 
N#CC(NCC)c1ccccc1

>  <s_sd_BIOSOLVEIT.INFINISEE\_SPACE>  (806) 
eXplore_7tr_2022-12

>  <s_vsw_compound_code>  (806) 
95361

>  <s_vsw_variant>  (806) 
95361-1

>  <r_epik_Charging_Adjusted_Penalty>  (806) 
0.26277358272881901

>  <r_epik_Ionization_Penalty>  (806) 
0.13120000000000001

>  <r_epik_Ionization_Penalty_Charging>  (806) 
0.13109999999999999

>  <r_epik_Ionization_Penalty_Neutral>  (806) 
0.0001

>  <r_epik_State_Penalty>  (806) 
0.13170000000000001

>  <r_i_docking_score>  (806) 
-4.5312106913309202

>  <r_i_glide_ecoul>  (806) 
-8.0760135650634801

>  <r_i_glide_eff_state_penalty>  (806) 
0.13170000000000001

>  <r_i_glide_einternal>  (806) 
4.9983291625976598

>  <r_i_glide_emodel>  (806) 
-63.718082976767597

>  <r_i_glide_energy>  (806) 
-46.666318893432603

>  <r_i_glide_erotb>  (806) 
0.67386511502589597

>  <r_i_glide_esite>  (806) 
-0.028944793162924001

>  <r_i_glide_evdw>  (806) 
-38.590305328369098

>  <r_i_glide_gscore>  (806) 
-4.6629106913309197

>  <r_i_glide_hbond>  (806) 
0

>  <r_i_glide_ligand_efficiency>  (806) 
-0.12246515381975499

>  <r_i_glide_ligand_efficiency_ln>  (806) 
-0.98271337229953104

>  <r_i_glide_ligand_efficiency_sa>  (806) 
-0.40808106113218701

>  <r_i_glide_lipo>  (806) 
-1.24684592712097

>  <r_i_glide_metal>  (806) 
-0

>  <r_i_glide_rewards>  (806) 
-0.92006778489495

>  <r_lp_Energy>  (806) 
62.135958000000002

>  <r_qp_ACxDN^.5/SA>  (806) 
0.010175399999999999

>  <r_qp_CIQPlogS>  (806) 
-7.266

>  <r_qp_EA(eV)>  (806) 
1.117

>  <r_qp_FISA>  (806) 
87.930999999999997

>  <r_qp_FOSA>  (806) 
284.27600000000001

>  <r_qp_IP(eV)>  (806) 
8.7590000000000003

>  <r_qp_Jm>  (806) 
0.00089492594023360395

>  <r_qp_PISA>  (806) 
414.00299999999999

>  <r_qp_PSA>  (806) 
71.915999999999997

>  <r_qp_PercentHumanOralAbsorption>  (806) 
100

>  <r_qp_QPPCaco>  (806) 
362.20400000000001

>  <r_qp_QPPMDCK>  (806) 
182.60400000000001

>  <r_qp_QPlogBB>  (806) 
-0.45400000000000001

>  <r_qp_QPlogHERG>  (806) 
-7.1619999999999999

>  <r_qp_QPlogKhsa>  (806) 
0.81200000000000006

>  <r_qp_QPlogKp>  (806) 
-2.8799999999999999

>  <r_qp_QPlogPC16>  (806) 
16.167000000000002

>  <r_qp_QPlogPo/w>  (806) 
4.923

>  <r_qp_QPlogPoct>  (806) 
24.23

>  <r_qp_QPlogPw>  (806) 
12.385

>  <r_qp_QPlogS>  (806) 
-5.8579999999999997

>  <r_qp_QPpolrz>  (806) 
53.503

>  <r_qp_SASA>  (806) 
786.21000000000004

>  <r_qp_SAamideO>  (806) 
0

>  <r_qp_SAfluorine>  (806) 
0

>  <r_qp_WPSA>  (806) 
0

>  <r_qp_accptHB>  (806) 
8

>  <r_qp_dip^2/V>  (806) 
0.037852400000000001

>  <r_qp_dipole>  (806) 
7.6260000000000003

>  <r_qp_donorHB>  (806) 
1

>  <r_qp_glob>  (806) 
0.81898720000000003

>  <r_qp_mol_MW>  (806) 
489.61900000000003

>  <r_qp_volume>  (806) 
1536.299

>  <r_sd_BIOSOLVEIT.INFINISEE\_FTREES\_SIMILARITY>  (806) 
0.90300000000000002

>  <r_sd_BIOSOLVEIT.LOGP>  (806) 
4.7569800000000004

>  <r_sd_BIOSOLVEIT.MOLECULAR\_WEIGHT>  (806) 
490.62799999999999

>  <r_sd_BIOSOLVEIT.TPSA>  (806) 
73.459999999999994

>  <i_epik_Tot_Q>  (806) 
2

>  <i_epik_Tot_abs_Q>  (806) 
2

>  <i_f3d_flags>  (806) 
0

>  <i_i_glide_confnum>  (806) 
7

>  <i_i_glide_lignum>  (806) 
1411

>  <i_i_glide_posenum>  (806) 
16

>  <i_i_glide_rotatable_bonds>  (806) 
9

>  <i_lp_mmshare_version>  (806) 
65135

>  <i_m_ct_format>  (806) 
2

>  <i_m_source_file_index>  (806) 
2981

>  <i_qp_#NandO>  (806) 
6

>  <i_qp_#acid>  (806) 
0

>  <i_qp_#amide>  (806) 
0

>  <i_qp_#amidine>  (806) 
0

>  <i_qp_#amine>  (806) 
1

>  <i_qp_#in34>  (806) 
0

>  <i_qp_#in56>  (806) 
27

>  <i_qp_#metab>  (806) 
6

>  <i_qp_#nonHatm>  (806) 
37

>  <i_qp_#noncon>  (806) 
4

>  <i_qp_#ringatoms>  (806) 
27

>  <i_qp_#rotor>  (806) 
9

>  <i_qp_#rtvFG>  (806) 
0

>  <i_qp_#stars>  (806) 
0

>  <i_qp_CNS>  (806) 
1

>  <i_qp_HumanOralAbsorption>  (806) 
3

>  <i_qp_RuleOfFive>  (806) 
0

>  <i_qp_RuleOfThree>  (806) 
1

>  <i_sd_BIOSOLVEIT.INFINISEE\_RESULT\_RANK>  (806) 
83705

>  <i_sd_version>  (806) 
0

>  <b_lp_Chiralities_Consistent>  (806) 
1

>  <b_sd_chiral_flag>  (806) 
0

>  <canonical_id>  (806) 
ATP-HTVS-7EF96EA99BCF

>  <compound_code>  (806) 
95361

>  <title>  (806) 
rxn502b____EMOL5849923____EMOL30488121____EMOL49839592

>  <variant>  (806) 
95361-1

>  <source_file>  (806) 
运行/运行/ATP-VSW/ATP-VSW-DOCK_HTVS_1-001_lib/ATP-VSW-DOCK_HTVS_1-001_lib

>  <canonical_smiles>  (806) 
CCN(c1c(NC(=O)c2cccc(C[NH+]3CCCC3)c2)c[nH+]c2ccccc12)[C@@H](C#N)c1ccccc1

>  <scaffold>  (806) 
O=C(Nc1c[nH+]c2ccccc2c1NCc1ccccc1)c1cccc(C[NH+]2CCCC2)c1

>  <molecular_formula>  (806) 
C31H33N5O+2

$$$$
ATP-HTVS-7F35209A363C
     RDKit          3D

 59 62  0  0  0  0  0  0  0  0999 V2000
  201.6123  174.2413  149.9380 O   0  0  0  0  0  0  0  0  0  0  0  0
  201.5483  174.5973  151.1140 C   0  0  0  0  0  0  0  0  0  0  0  0
  202.2751  173.9118  152.0161 N   0  0  0  0  0  0  0  0  0  0  0  0
  202.3496  174.1915  153.3945 C   0  0  0  0  0  0  0  0  0  0  0  0
  201.5987  175.2527  153.9348 C   0  0  0  0  0  0  0  0  0  0  0  0
  201.7132  175.5267  155.3208 C   0  0  0  0  0  0  0  0  0  0  0  0
  202.5624  174.7484  156.1342 C   0  0  0  0  0  0  0  0  0  0  0  0
  203.2955  173.6868  155.5761 C   0  0  0  0  0  0  0  0  0  0  0  0
  203.1934  173.4073  154.2049 C   0  0  0  0  0  0  0  0  0  0  0  0
  200.7528  176.0304  152.9956 C   0  0  0  0  0  0  0  0  0  0  0  0
  200.0322  177.0623  153.5945 N   0  0  0  0  0  0  0  0  0  0  0  0
  200.1257  178.4721  153.2606 C   0  0  1  0  0  0  0  0  0  0  0  0
  199.2213  179.2936  154.1481 C   0  0  0  0  0  0  0  0  0  0  0  0
  199.6213  179.5727  155.4652 C   0  0  0  0  0  0  0  0  0  0  0  0
  198.7617  180.2716  156.3283 C   0  0  0  0  0  0  0  0  0  0  0  0
  197.5045  180.7158  155.8760 C   0  0  0  0  0  0  0  0  0  0  0  0
  197.1065  180.4563  154.5452 C   0  0  0  0  0  0  0  0  0  0  0  0
  197.9630  179.7382  153.6872 C   0  0  0  0  0  0  0  0  0  0  0  0
  196.5809  181.4416  156.8342 C   0  0  1  0  0  0  0  0  0  0  0  0
  196.7672  182.9189  156.8145 N   0  0  1  0  0  0  0  0  0  0  0  0
  195.8814  183.5974  157.7862 C   0  0  2  0  0  0  0  0  0  0  0  0
  198.1794  183.3536  156.9741 C   0  0  2  0  0  0  0  0  0  0  0  0
  200.7416  175.7232  151.6590 C   0  0  0  0  0  0  0  0  0  0  0  0
  199.8694  176.4246  150.6858 C   0  0  0  0  0  0  0  0  0  0  0  0
  198.7370  176.8179  150.9504 O   0  0  0  0  0  0  0  0  0  0  0  0
  200.4472  176.6419  149.4794 N   0  0  0  0  0  0  0  0  0  0  0  0
  199.8920  177.2225  148.3014 C   0  0  0  0  0  0  0  0  0  0  0  0
  200.4845  176.8666  147.0693 C   0  0  0  0  0  0  0  0  0  0  0  0
  199.9767  177.3755  145.8561 C   0  0  0  0  0  0  0  0  0  0  0  0
  198.8709  178.2478  145.8639 C   0  0  0  0  0  0  0  0  0  0  0  0
  198.2925  178.6285  147.0916 C   0  0  0  0  0  0  0  0  0  0  0  0
  198.8062  178.1294  148.3038 C   0  0  0  0  0  0  0  0  0  0  0  0
  202.8284  173.1407  151.6687 H   0  0  0  0  0  0  0  0  0  0  0  0
  201.1728  176.3378  155.7817 H   0  0  0  0  0  0  0  0  0  0  0  0
  202.6590  174.9748  157.1881 H   0  0  0  0  0  0  0  0  0  0  0  0
  203.9423  173.0872  156.1986 H   0  0  0  0  0  0  0  0  0  0  0  0
  203.7639  172.5931  153.7781 H   0  0  0  0  0  0  0  0  0  0  0  0
  199.8463  176.9169  154.5803 H   0  0  0  0  0  0  0  0  0  0  0  0
  201.1605  178.8021  153.3887 H   0  0  0  0  0  0  0  0  0  0  0  0
  199.8363  178.6599  152.2280 H   0  0  0  0  0  0  0  0  0  0  0  0
  200.5941  179.2491  155.8186 H   0  0  0  0  0  0  0  0  0  0  0  0
  199.0803  180.4649  157.3349 H   0  0  0  0  0  0  0  0  0  0  0  0
  196.1440  180.7999  154.1839 H   0  0  0  0  0  0  0  0  0  0  0  0
  197.6526  179.5287  152.6744 H   0  0  0  0  0  0  0  0  0  0  0  0
  195.5472  181.2057  156.5755 H   0  0  0  0  0  0  0  0  0  0  0  0
  196.7489  181.0622  157.8438 H   0  0  0  0  0  0  0  0  0  0  0  0
  196.0978  183.2778  158.8048 H   0  0  0  0  0  0  0  0  0  0  0  0
  194.8315  183.3910  157.5816 H   0  0  0  0  0  0  0  0  0  0  0  0
  196.0237  184.6753  157.7358 H   0  0  0  0  0  0  0  0  0  0  0  0
  198.5670  183.0189  157.9349 H   0  0  0  0  0  0  0  0  0  0  0  0
  198.2635  184.4387  156.9332 H   0  0  0  0  0  0  0  0  0  0  0  0
  198.8243  182.9626  156.1889 H   0  0  0  0  0  0  0  0  0  0  0  0
  201.3354  176.1811  149.3428 H   0  0  0  0  0  0  0  0  0  0  0  0
  201.3209  176.1796  147.0395 H   0  0  0  0  0  0  0  0  0  0  0  0
  200.4143  177.0792  144.9107 H   0  0  0  0  0  0  0  0  0  0  0  0
  198.4752  178.6206  144.9300 H   0  0  0  0  0  0  0  0  0  0  0  0
  197.4458  179.2996  147.1039 H   0  0  0  0  0  0  0  0  0  0  0  0
  198.3408  178.4586  149.2205 H   0  0  0  0  0  0  0  0  0  0  0  0
  196.4643  183.2082  155.8923 H   0  0  0  0  0  0  0  0  0  0  0  0
  1  2  2  0
  2  3  1  0
  2 23  1  0
  3  4  1  0
  3 33  1  0
  4  5  1  0
  4  9  2  0
  5  6  2  0
  5 10  1  0
  6  7  1  0
  6 34  1  0
  7  8  2  0
  7 35  1  0
  8  9  1  0
  8 36  1  0
  9 37  1  0
 10 11  1  0
 10 23  2  0
 11 12  1  0
 11 38  1  0
 12 13  1  0
 12 39  1  6
 12 40  1  0
 13 14  1  0
 13 18  2  0
 14 15  2  0
 14 41  1  0
 15 16  1  0
 15 42  1  0
 16 17  2  0
 16 19  1  0
 17 18  1  0
 17 43  1  0
 18 44  1  0
 19 20  1  0
 19 45  1  6
 19 46  1  0
 20 21  1  0
 20 22  1  0
 20 59  1  6
 21 47  1  1
 21 48  1  0
 21 49  1  0
 22 50  1  1
 22 51  1  0
 22 52  1  0
 23 24  1  0
 24 25  2  0
 24 26  1  0
 26 27  1  0
 26 53  1  0
 27 28  2  0
 27 32  1  0
 28 29  1  0
 28 54  1  0
 29 30  2  0
 29 55  1  0
 30 31  1  0
 30 56  1  0
 31 32  2  0
 31 57  1  0
 32 58  1  0
M  CHG  1  20   1
M  END
>  <s_epik_cmdline>  (807) 
J2VwaWtfcHl0aG9uJywgJy1waCcsICc3LjAwMDAwMCcsICctcGh0JywgJzIuMDAwMDAwJywgJy1tcycsICcxNicsICctdG4nLCAnOCcsICctbWEnLCAnMjAwJywgJy1pbWFlJywgJzxpbmZpbGUubWFlPicsICctb21hZScsICc8b3V0ZmlsZS5tYWU+Jw==

>  <s_epik_input>  (807) 
W2NIXTFbY0hdW2NIXVtjSF1bY0hdYzFbTkhdQyg9TyljKGMoPU8pW25IXTIpYyhjKGMyMylbY0hdW2NIXVtjSF1bY0hdMylbTkhdW0NIMl1jNFtjSF1bY0hdYyhbY0hdW2NIXTQpW0NIMl1OKFtDSDNdKVtDSDNd

>  <s_i_glide_gridfile>  (807) 
ATP-Grid

>  <s_lp_Force_Field>  (807) 
OPLS_2005

>  <s_lp_Variant>  (807) 
rxn512c____EMOL477532____EMOL43362984____EMOL50155899-1

>  <s_lp_label>  (807) 
2504_sdstereoexpander_1_neutralizer_1_epik_1_stereoizer_1

>  <s_m_source_file>  (807) 
ATP-VSW-LIGPREP-003-in.maegz

>  <s_sd_BIOSOLVEIT.INFINISEE\_QUERY\_NAME>  (807) 
Ref-Lig

>  <s_sd_BIOSOLVEIT.INFINISEE\_QUERY\_SMILES>  (807) 
S(c1nc2c(cc1C[NH2+]Cc3ccc(cc3)C[NH+](C)C)cccc2)Cc4ccccc4

>  <s_sd_BIOSOLVEIT.INFINISEE\_REACTION\_NAME>  (807) 
rxn512c

>  <s_sd_BIOSOLVEIT.INFINISEE\_REAGENT1\_NAME>  (807) 
EMOL477532

>  <s_sd_BIOSOLVEIT.INFINISEE\_REAGENT1\_SMILES>  (807) 
Nc1ccccc1

>  <s_sd_BIOSOLVEIT.INFINISEE\_REAGENT2\_NAME>  (807) 
EMOL43362984

>  <s_sd_BIOSOLVEIT.INFINISEE\_REAGENT2\_SMILES>  (807) 
ClC=1c2c(NC(=O)C1C(=O)O)cccc2

>  <s_sd_BIOSOLVEIT.INFINISEE\_REAGENT3\_NAME>  (807) 
EMOL50155899

>  <s_sd_BIOSOLVEIT.INFINISEE\_REAGENT3\_SMILES>  (807) 
N(Cc1ccc(cc1)CN)(C)C

>  <s_sd_BIOSOLVEIT.INFINISEE\_SPACE>  (807) 
eXplore_7tr_2022-12

>  <s_vsw_compound_code>  (807) 
80099

>  <s_vsw_variant>  (807) 
80099-1

>  <r_epik_Charging_Adjusted_Penalty>  (807) 
0.078408011806102101

>  <r_epik_Ionization_Penalty>  (807) 
0.039199999999999999

>  <r_epik_Ionization_Penalty_Charging>  (807) 
0.039199999999999999

>  <r_epik_Ionization_Penalty_Neutral>  (807) 
0

>  <r_epik_State_Penalty>  (807) 
0.039199999999999999

>  <r_i_docking_score>  (807) 
-1.55091589110866

>  <r_i_glide_ecoul>  (807) 
-6.1587414741516104

>  <r_i_glide_eff_state_penalty>  (807) 
0.039199999999999999

>  <r_i_glide_einternal>  (807) 
0.87462627887725797

>  <r_i_glide_emodel>  (807) 
-43.354195537704399

>  <r_i_glide_energy>  (807) 
-38.175934314727797

>  <r_i_glide_erotb>  (807) 
0.76045252336906599

>  <r_i_glide_esite>  (807) 
-0.048590910128796301

>  <r_i_glide_evdw>  (807) 
-32.0171928405762

>  <r_i_glide_gscore>  (807) 
-1.5901158911086599

>  <r_i_glide_hbond>  (807) 
0

>  <r_i_glide_ligand_efficiency>  (807) 
-0.048466121597145799

>  <r_i_glide_ligand_efficiency_ln>  (807) 
-0.34729234438972101

>  <r_i_glide_ligand_efficiency_sa>  (807) 
-0.153870344638498

>  <r_i_glide_lipo>  (807) 
-0.880806161917976

>  <r_i_glide_metal>  (807) 
-0

>  <r_i_glide_rewards>  (807) 
1.10349952072059

>  <r_lp_Energy>  (807) 
52.076937999999998

>  <r_qp_ACxDN^.5/SA>  (807) 
0

>  <r_qp_CIQPlogS>  (807) 
-6.0819999999999999

>  <r_qp_EA(eV)>  (807) 
1.0960000000000001

>  <r_qp_FISA>  (807) 
82.552000000000007

>  <r_qp_FOSA>  (807) 
178.24600000000001

>  <r_qp_IP(eV)>  (807) 
8.5329999999999995

>  <r_qp_Jm>  (807) 
0.0126968368590926

>  <r_qp_PISA>  (807) 
448.07100000000003

>  <r_qp_PSA>  (807) 
82.899000000000001

>  <r_qp_PercentHumanOralAbsorption>  (807) 
100

>  <r_qp_QPPCaco>  (807) 
407.33800000000002

>  <r_qp_QPPMDCK>  (807) 
207.31800000000001

>  <r_qp_QPlogBB>  (807) 
-0.26400000000000001

>  <r_qp_QPlogHERG>  (807) 
-7.1890000000000001

>  <r_qp_QPlogKhsa>  (807) 
0.85999999999999999

>  <r_qp_QPlogKp>  (807) 
-2.8530000000000002

>  <r_qp_QPlogPC16>  (807) 
14.343999999999999

>  <r_qp_QPlogPo/w>  (807) 
4.9989999999999997

>  <r_qp_QPlogPoct>  (807) 
18.896999999999998

>  <r_qp_QPlogPw>  (807) 
8.4149999999999991

>  <r_qp_QPlogS>  (807) 
-4.673

>  <r_qp_QPpolrz>  (807) 
47.073

>  <r_qp_SASA>  (807) 
708.87

>  <r_qp_SAamideO>  (807) 
0

>  <r_qp_SAfluorine>  (807) 
0

>  <r_qp_WPSA>  (807) 
0

>  <r_qp_accptHB>  (807) 
5

>  <r_qp_dip^2/V>  (807) 
0.0338807

>  <r_qp_dipole>  (807) 
6.726

>  <r_qp_donorHB>  (807) 
0

>  <r_qp_glob>  (807) 
0.82731809999999995

>  <r_qp_mol_MW>  (807) 
426.517

>  <r_qp_volume>  (807) 
1335.4000000000001

>  <r_sd_BIOSOLVEIT.INFINISEE\_FTREES\_SIMILARITY>  (807) 
0.91400000000000003

>  <r_sd_BIOSOLVEIT.LOGP>  (807) 
3.0369999999999999

>  <r_sd_BIOSOLVEIT.MOLECULAR\_WEIGHT>  (807) 
427.52499999999998

>  <r_sd_BIOSOLVEIT.TPSA>  (807) 
78.430000000000007

>  <i_epik_Tot_Q>  (807) 
1

>  <i_epik_Tot_abs_Q>  (807) 
1

>  <i_f3d_flags>  (807) 
0

>  <i_i_glide_confnum>  (807) 
8

>  <i_i_glide_lignum>  (807) 
1088

>  <i_i_glide_posenum>  (807) 
12

>  <i_i_glide_rotatable_bonds>  (807) 
8

>  <i_lp_mmshare_version>  (807) 
65135

>  <i_m_ct_format>  (807) 
2

>  <i_m_source_file_index>  (807) 
2504

>  <i_qp_#NandO>  (807) 
6

>  <i_qp_#acid>  (807) 
0

>  <i_qp_#amide>  (807) 
0

>  <i_qp_#amidine>  (807) 
0

>  <i_qp_#amine>  (807) 
1

>  <i_qp_#in34>  (807) 
0

>  <i_qp_#in56>  (807) 
22

>  <i_qp_#metab>  (807) 
6

>  <i_qp_#nonHatm>  (807) 
32

>  <i_qp_#noncon>  (807) 
0

>  <i_qp_#ringatoms>  (807) 
22

>  <i_qp_#rotor>  (807) 
7

>  <i_qp_#rtvFG>  (807) 
0

>  <i_qp_#stars>  (807) 
0

>  <i_qp_CNS>  (807) 
1

>  <i_qp_HumanOralAbsorption>  (807) 
3

>  <i_qp_RuleOfFive>  (807) 
0

>  <i_qp_RuleOfThree>  (807) 
0

>  <i_sd_BIOSOLVEIT.INFINISEE\_RESULT\_RANK>  (807) 
31167

>  <i_sd_version>  (807) 
0

>  <b_lp_Chiralities_Consistent>  (807) 
1

>  <b_sd_chiral_flag>  (807) 
0

>  <canonical_id>  (807) 
ATP-HTVS-7F35209A363C

>  <compound_code>  (807) 
80099

>  <title>  (807) 
rxn512c____EMOL477532____EMOL43362984____EMOL50155899

>  <variant>  (807) 
80099-1

>  <source_file>  (807) 
运行/运行/ATP-VSW/ATP-VSW-DOCK_HTVS_1-003_lib/ATP-VSW-DOCK_HTVS_1-003_lib.mae

>  <canonical_smiles>  (807) 
C[NH+](C)Cc1ccc(CNc2c(C(=O)Nc3ccccc3)c(=O)[nH]c3ccccc23)cc1

>  <scaffold>  (807) 
O=C(Nc1ccccc1)c1c(NCc2ccccc2)c2ccccc2[nH]c1=O

>  <molecular_formula>  (807) 
C26H27N4O2+

$$$$
ATP-HTVS-7F4769B54268
     RDKit          3D

 61 64  0  0  0  0  0  0  0  0999 V2000
  203.6586  173.6220  153.2254 F   0  0  0  0  0  0  0  0  0  0  0  0
  202.9561  174.4228  154.0501 C   0  0  0  0  0  0  0  0  0  0  0  0
  202.2220  175.4954  153.5116 C   0  0  0  0  0  0  0  0  0  0  0  0
  201.3978  176.2569  154.3890 C   0  0  0  0  0  0  0  0  0  0  0  0
  201.4504  176.0386  155.8207 C   0  0  0  0  0  0  0  0  0  0  0  0
  200.7393  176.7811  156.6957 N   0  0  0  0  0  0  0  0  0  0  0  0
  199.9414  177.7416  156.2158 C   0  0  0  0  0  0  0  0  0  0  0  0
  199.7697  178.0552  154.8399 C   0  0  0  0  0  0  0  0  0  0  0  0
  200.5243  177.2734  153.8967 C   0  0  0  0  0  0  0  0  0  0  0  0
  200.4192  177.4993  152.4943 N   0  0  0  0  0  0  0  0  0  0  0  0
  199.7083  176.5226  151.6628 C   0  0  2  0  0  0  0  0  0  0  0  0
  200.5798  175.4316  151.1696 C   0  0  0  0  0  0  0  0  0  0  0  0
  201.2755  174.5789  150.7852 N   0  0  0  0  0  0  0  0  0  0  0  0
  198.9370  177.0732  150.4582 C   0  0  0  0  0  0  0  0  0  0  0  0
  198.3652  178.3751  150.4835 C   0  0  0  0  0  0  0  0  0  0  0  0
  197.6208  178.8467  149.3802 C   0  0  0  0  0  0  0  0  0  0  0  0
  197.4782  178.0538  148.2219 C   0  0  0  0  0  0  0  0  0  0  0  0
  198.0735  176.7807  148.1782 C   0  0  0  0  0  0  0  0  0  0  0  0
  198.7746  176.2792  149.2830 C   0  0  0  0  0  0  0  0  0  0  0  0
  201.2693  178.5361  151.9112 C   0  0  2  0  0  0  0  0  0  0  0  0
  198.7837  179.1472  154.4671 C   0  0  0  0  0  0  0  0  0  0  0  0
  198.1179  179.1037  153.4425 O   0  0  0  0  0  0  0  0  0  0  0  0
  198.6638  180.1470  155.3681 N   0  0  0  0  0  0  0  0  0  0  0  0
  198.1273  181.4457  155.1307 C   0  0  0  0  0  0  0  0  0  0  0  0
  197.4677  182.1355  156.1874 C   0  0  0  0  0  0  0  0  0  0  0  0
  197.2598  181.4741  157.4127 N   0  0  0  0  0  0  0  0  0  0  0  0
  196.5314  182.0911  158.5262 C   0  0  2  0  0  0  0  0  0  0  0  0
  195.0646  182.4613  158.1622 C   0  0  2  0  0  0  0  0  0  0  0  0
  197.3371  183.2550  159.1531 C   0  0  2  0  0  0  0  0  0  0  0  0
  197.0674  183.4783  155.9657 C   0  0  0  0  0  0  0  0  0  0  0  0
  197.2699  184.1082  154.7327 C   0  0  0  0  0  0  0  0  0  0  0  0
  197.8961  183.4203  153.6746 C   0  0  0  0  0  0  0  0  0  0  0  0
  198.3188  182.0882  153.8798 C   0  0  0  0  0  0  0  0  0  0  0  0
  202.2997  175.0281  156.3184 C   0  0  0  0  0  0  0  0  0  0  0  0
  203.0265  174.1747  155.4542 C   0  0  0  0  0  0  0  0  0  0  0  0
  202.3211  175.6965  152.4699 H   0  0  0  0  0  0  0  0  0  0  0  0
  199.3842  178.2828  156.9693 H   0  0  0  0  0  0  0  0  0  0  0  0
  198.9855  176.0118  152.2893 H   0  0  0  0  0  0  0  0  0  0  0  0
  198.4978  179.0351  151.3107 H   0  0  0  0  0  0  0  0  0  0  0  0
  197.1856  179.8311  149.4360 H   0  0  0  0  0  0  0  0  0  0  0  0
  196.9221  178.4265  147.3734 H   0  0  0  0  0  0  0  0  0  0  0  0
  197.9843  176.1593  147.2963 H   0  0  0  0  0  0  0  0  0  0  0  0
  199.2000  175.2908  149.1952 H   0  0  0  0  0  0  0  0  0  0  0  0
  201.8826  179.0361  152.6596 H   0  0  0  0  0  0  0  0  0  0  0  0
  200.6783  179.3109  151.4226 H   0  0  0  0  0  0  0  0  0  0  0  0
  201.9301  178.1124  151.1553 H   0  0  0  0  0  0  0  0  0  0  0  0
  198.9386  179.9594  156.3420 H   0  0  0  0  0  0  0  0  0  0  0  0
  197.2800  180.4557  157.4409 H   0  0  0  0  0  0  0  0  0  0  0  0
  196.4700  181.3127  159.2871 H   0  0  0  0  0  0  0  0  0  0  0  0
  194.5443  182.8398  159.0559 H   0  0  0  0  0  0  0  0  0  0  0  0
  194.5171  181.5672  157.8145 H   0  0  0  0  0  0  0  0  0  0  0  0
  194.9988  183.2231  157.3954 H   0  0  0  0  0  0  0  0  0  0  0  0
  196.8015  183.6773  160.0060 H   0  0  0  0  0  0  0  0  0  0  0  0
  197.5185  184.0742  158.4593 H   0  0  0  0  0  0  0  0  0  0  0  0
  198.3215  182.9140  159.4900 H   0  0  0  0  0  0  0  0  0  0  0  0
  196.5538  184.0618  156.7131 H   0  0  0  0  0  0  0  0  0  0  0  0
  196.9121  185.1192  154.6059 H   0  0  0  0  0  0  0  0  0  0  0  0
  198.0625  183.9327  152.7375 H   0  0  0  0  0  0  0  0  0  0  0  0
  198.8512  181.5976  153.0768 H   0  0  0  0  0  0  0  0  0  0  0  0
  202.3807  174.8878  157.3861 H   0  0  0  0  0  0  0  0  0  0  0  0
  203.6678  173.3884  155.8480 H   0  0  0  0  0  0  0  0  0  0  0  0
  1  2  1  0
  2  3  1  0
  2 35  2  0
  3  4  2  0
  3 36  1  0
  4  5  1  0
  4  9  1  0
  5  6  1  0
  5 34  2  0
  6  7  2  0
  7  8  1  0
  7 37  1  0
  8  9  2  0
  8 21  1  0
  9 10  1  0
 10 11  1  0
 10 20  1  0
 11 12  1  0
 11 14  1  0
 11 38  1  1
 12 13  3  0
 14 15  2  0
 14 19  1  0
 15 16  1  0
 15 39  1  0
 16 17  2  0
 16 40  1  0
 17 18  1  0
 17 41  1  0
 18 19  2  0
 18 42  1  0
 19 43  1  0
 20 44  1  1
 20 45  1  0
 20 46  1  0
 21 22  2  0
 21 23  1  0
 23 24  1  0
 23 47  1  0
 24 25  1  0
 24 33  2  0
 25 26  1  0
 25 30  2  0
 26 27  1  0
 26 48  1  0
 27 28  1  0
 27 29  1  0
 27 49  1  1
 28 50  1  1
 28 51  1  0
 28 52  1  0
 29 53  1  1
 29 54  1  0
 29 55  1  0
 30 31  1  0
 30 56  1  0
 31 32  2  0
 31 57  1  0
 32 33  1  0
 32 58  1  0
 33 59  1  0
 34 35  1  0
 34 60  1  0
 35 61  1  0
M  END
>  <s_epik_cmdline>  (808) 
J2VwaWtfcHl0aG9uJywgJy1waCcsICc3LjAwMDAwMCcsICctcGh0JywgJzIuMDAwMDAwJywgJy1tcycsICcxNicsICctdG4nLCAnOCcsICctbWEnLCAnMjAwJywgJy1pbWFlJywgJzxpbmZpbGUubWFlPicsICctb21hZScsICc8b3V0ZmlsZS5tYWU+Jw==

>  <s_epik_input>  (808) 
W2NIXTFbY0hdW2NIXVtjSF1jKFtOSF1bQ0hdKFtDSDNdKVtDSDNdKWMxW05IXUMoPU8pYyhbY0hdbmMoYzIzKVtjSF1bY0hdYyhGKVtjSF0yKWMzTihbQ0gzXSlbQ0BIXShDI04pYzRbY0hdW2NIXVtjSF1bY0hdW2NIXTQ=

>  <s_i_glide_gridfile>  (808) 
ATP-Grid

>  <s_lp_Force_Field>  (808) 
OPLS_2005

>  <s_lp_Variant>  (808) 
rxn512c____EMOL24630243____EMOL36725275____EMOL108753642-2

>  <s_lp_label>  (808) 
2221_sdstereoexpander_2_neutralizer_1_epik_1_stereoizer_1

>  <s_m_source_file>  (808) 
ATP-VSW-LIGPREP-003-in.maegz

>  <s_sd_BIOSOLVEIT.INFINISEE\_QUERY\_NAME>  (808) 
Ref-Lig

>  <s_sd_BIOSOLVEIT.INFINISEE\_QUERY\_SMILES>  (808) 
S(c1nc2c(cc1C[NH2+]Cc3ccc(cc3)C[NH+](C)C)cccc2)Cc4ccccc4

>  <s_sd_BIOSOLVEIT.INFINISEE\_REACTION\_NAME>  (808) 
rxn512c

>  <s_sd_BIOSOLVEIT.INFINISEE\_REAGENT1\_NAME>  (808) 
EMOL24630243

>  <s_sd_BIOSOLVEIT.INFINISEE\_REAGENT1\_SMILES>  (808) 
N#CC(NC)c1ccccc1

>  <s_sd_BIOSOLVEIT.INFINISEE\_REAGENT2\_NAME>  (808) 
EMOL36725275

>  <s_sd_BIOSOLVEIT.INFINISEE\_REAGENT2\_SMILES>  (808) 
Clc1c2c(ncc1C(=O)O)ccc(F)c2

>  <s_sd_BIOSOLVEIT.INFINISEE\_REAGENT3\_NAME>  (808) 
EMOL108753642

>  <s_sd_BIOSOLVEIT.INFINISEE\_REAGENT3\_SMILES>  (808) 
N(c1c(N)cccc1)C(C)C

>  <s_sd_BIOSOLVEIT.INFINISEE\_SPACE>  (808) 
eXplore_7tr_2022-12

>  <s_vsw_compound_code>  (808) 
71043

>  <s_vsw_variant>  (808) 
71043-2

>  <r_epik_Charging_Adjusted_Penalty>  (808) 
0.191893614046729

>  <r_epik_Ionization_Penalty>  (808) 
0.19670000000000001

>  <r_epik_Ionization_Penalty_Charging>  (808) 
0

>  <r_epik_Ionization_Penalty_Neutral>  (808) 
0.19670000000000001

>  <r_epik_State_Penalty>  (808) 
0.19189999999999999

>  <r_i_docking_score>  (808) 
-3.5302975571069299

>  <r_i_glide_ecoul>  (808) 
-2.02648949623108

>  <r_i_glide_eff_state_penalty>  (808) 
0.19189999999999999

>  <r_i_glide_einternal>  (808) 
6.5661721229553196

>  <r_i_glide_emodel>  (808) 
-46.556900130795697

>  <r_i_glide_energy>  (808) 
-39.942939996719403

>  <r_i_glide_erotb>  (808) 
0.64632860513039103

>  <r_i_glide_esite>  (808) 
-0.18547858281585899

>  <r_i_glide_evdw>  (808) 
-37.916450500488303

>  <r_i_glide_gscore>  (808) 
-3.7221975571069299

>  <r_i_glide_hbond>  (808) 
-0.071594650716304206

>  <r_i_glide_ligand_efficiency>  (808) 
-0.10086564448877

>  <r_i_glide_ligand_efficiency_ln>  (808) 
-0.77497866451782604

>  <r_i_glide_ligand_efficiency_sa>  (808) 
-0.329938211151658

>  <r_i_glide_lipo>  (808) 
-1.5746152004792899

>  <r_i_glide_metal>  (808) 
-0

>  <r_i_glide_rewards>  (808) 
-0.33704177876679597

>  <r_lp_Energy>  (808) 
39.215677999999997

>  <r_qp_ACxDN^.5/SA>  (808) 
0.014278000000000001

>  <r_qp_CIQPlogS>  (808) 
-8.1809999999999992

>  <r_qp_EA(eV)>  (808) 
1.5800000000000001

>  <r_qp_FISA>  (808) 
106.836

>  <r_qp_FOSA>  (808) 
156.69999999999999

>  <r_qp_IP(eV)>  (808) 
8.2200000000000006

>  <r_qp_Jm>  (808) 
0.0125306384256865

>  <r_qp_PISA>  (808) 
385.00099999999998

>  <r_qp_PSA>  (808) 
75.751000000000005

>  <r_qp_PercentHumanOralAbsorption>  (808) 
100

>  <r_qp_QPPCaco>  (808) 
961.11500000000001

>  <r_qp_QPPMDCK>  (808) 
833.98000000000002

>  <r_qp_QPlogBB>  (808) 
-0.77500000000000002

>  <r_qp_QPlogHERG>  (808) 
-5.6580000000000004

>  <r_qp_QPlogKhsa>  (808) 
0.61899999999999999

>  <r_qp_QPlogKp>  (808) 
-1.3640000000000001

>  <r_qp_QPlogPC16>  (808) 
14.465

>  <r_qp_QPlogPo/w>  (808) 
4.71

>  <r_qp_QPlogPoct>  (808) 
23.335999999999999

>  <r_qp_QPlogPw>  (808) 
12.808

>  <r_qp_QPlogS>  (808) 
-6.2080000000000002

>  <r_qp_QPpolrz>  (808) 
47.029000000000003

>  <r_qp_SASA>  (808) 
693.33900000000006

>  <r_qp_SAamideO>  (808) 
0

>  <r_qp_SAfluorine>  (808) 
44.802

>  <r_qp_WPSA>  (808) 
44.802

>  <r_qp_accptHB>  (808) 
7

>  <r_qp_dip^2/V>  (808) 
0.0424772

>  <r_qp_dipole>  (808) 
7.6159999999999997

>  <r_qp_donorHB>  (808) 
2

>  <r_qp_glob>  (808) 
0.85846520000000004

>  <r_qp_mol_MW>  (808) 
467.54500000000002

>  <r_qp_volume>  (808) 
1365.383

>  <r_sd_BIOSOLVEIT.INFINISEE\_FTREES\_SIMILARITY>  (808) 
0.92900000000000005

>  <r_sd_BIOSOLVEIT.LOGP>  (808) 
6.1475799999999996

>  <r_sd_BIOSOLVEIT.MOLECULAR\_WEIGHT>  (808) 
467.54500000000002

>  <r_sd_BIOSOLVEIT.TPSA>  (808) 
81.049999999999997

>  <i_epik_Tot_Q>  (808) 
0

>  <i_epik_Tot_abs_Q>  (808) 
0

>  <i_f3d_flags>  (808) 
0

>  <i_i_glide_confnum>  (808) 
6

>  <i_i_glide_lignum>  (808) 
887

>  <i_i_glide_posenum>  (808) 
14

>  <i_i_glide_rotatable_bonds>  (808) 
8

>  <i_lp_mmshare_version>  (808) 
65135

>  <i_m_ct_format>  (808) 
2

>  <i_m_source_file_index>  (808) 
2221

>  <i_qp_#NandO>  (808) 
6

>  <i_qp_#acid>  (808) 
0

>  <i_qp_#amide>  (808) 
0

>  <i_qp_#amidine>  (808) 
0

>  <i_qp_#amine>  (808) 
0

>  <i_qp_#in34>  (808) 
0

>  <i_qp_#in56>  (808) 
22

>  <i_qp_#metab>  (808) 
8

>  <i_qp_#nonHatm>  (808) 
35

>  <i_qp_#noncon>  (808) 
0

>  <i_qp_#ringatoms>  (808) 
22

>  <i_qp_#rotor>  (808) 
8

>  <i_qp_#rtvFG>  (808) 
0

>  <i_qp_#stars>  (808) 
0

>  <i_qp_CNS>  (808) 
-1

>  <i_qp_HumanOralAbsorption>  (808) 
1

>  <i_qp_RuleOfFive>  (808) 
0

>  <i_qp_RuleOfThree>  (808) 
2

>  <i_sd_BIOSOLVEIT.INFINISEE\_RESULT\_RANK>  (808) 
5233

>  <i_sd_version>  (808) 
0

>  <b_lp_Chiralities_Consistent>  (808) 
1

>  <b_sd_chiral_flag>  (808) 
0

>  <canonical_id>  (808) 
ATP-HTVS-7F4769B54268

>  <compound_code>  (808) 
71043

>  <title>  (808) 
rxn512c____EMOL24630243____EMOL36725275____EMOL108753642

>  <variant>  (808) 
71043-2

>  <source_file>  (808) 
运行/运行/ATP-VSW/ATP-VSW-DOCK_HTVS_1-003_lib/ATP-VSW-DOCK_HTVS_1-003_lib.mae

>  <canonical_smiles>  (808) 
CC(C)Nc1ccccc1NC(=O)c1cnc2ccc(F)cc2c1N(C)[C@H](C#N)c1ccccc1

>  <scaffold>  (808) 
O=C(Nc1ccccc1)c1cnc2ccccc2c1NCc1ccccc1

>  <molecular_formula>  (808) 
C28H26FN5O

$$$$
ATP-HTVS-7F76552361A7
     RDKit          3D

 50 52  0  0  0  0  0  0  0  0999 V2000
  201.0552  186.6314  146.0239 Br  0  0  0  0  0  0  0  0  0  0  0  0
  199.7044  185.8382  147.1017 C   0  0  0  0  0  0  0  0  0  0  0  0
  199.8370  185.8378  148.5050 C   0  0  0  0  0  0  0  0  0  0  0  0
  198.8235  185.2862  149.3094 C   0  0  0  0  0  0  0  0  0  0  0  0
  197.6745  184.7245  148.7103 C   0  0  0  0  0  0  0  0  0  0  0  0
  197.5544  184.7111  147.3055 C   0  0  0  0  0  0  0  0  0  0  0  0
  198.5651  185.2682  146.5004 C   0  0  0  0  0  0  0  0  0  0  0  0
  196.5734  184.1004  149.5423 C   0  0  1  0  0  0  0  0  0  0  0  0
  196.9283  183.9770  150.9313 O   0  0  0  0  0  0  0  0  0  0  0  0
  196.8976  182.7481  151.5764 C   0  0  0  0  0  0  0  0  0  0  0  0
  197.1775  182.7122  152.9767 C   0  0  0  0  0  0  0  0  0  0  0  0
  197.1414  181.5191  153.6173 N   0  0  0  0  0  0  0  0  0  0  0  0
  196.7841  180.3536  153.0580 C   0  0  0  0  0  0  0  0  0  0  0  0
  196.4949  180.3230  151.6835 C   0  0  0  0  0  0  0  0  0  0  0  0
  196.5708  181.5144  150.9390 C   0  0  0  0  0  0  0  0  0  0  0  0
  197.4879  183.8692  153.7267 N   0  0  0  0  0  0  0  0  0  0  0  0
  197.4043  184.0553  155.1289 C   0  0  0  0  0  0  0  0  0  0  0  0
  196.7462  183.1488  156.0046 C   0  0  0  0  0  0  0  0  0  0  0  0
  196.6451  183.3841  157.3854 C   0  0  0  0  0  0  0  0  0  0  0  0
  197.1989  184.5566  157.9309 C   0  0  0  0  0  0  0  0  0  0  0  0
  197.8498  185.4749  157.0841 C   0  0  0  0  0  0  0  0  0  0  0  0
  197.9622  185.2271  155.6976 C   0  0  0  0  0  0  0  0  0  0  0  0
  195.9119  182.3734  158.2509 C   0  0  1  0  0  0  0  0  0  0  0  0
  194.4361  182.5104  158.1411 N   0  0  1  0  0  0  0  0  0  0  0  0
  193.7203  181.2913  158.5724 C   0  0  2  0  0  0  0  0  0  0  0  0
  193.9284  183.7233  158.8174 C   0  0  2  0  0  0  0  0  0  0  0  0
  200.7078  186.2818  148.9701 H   0  0  0  0  0  0  0  0  0  0  0  0
  198.9432  185.2969  150.3814 H   0  0  0  0  0  0  0  0  0  0  0  0
  196.6848  184.2683  146.8399 H   0  0  0  0  0  0  0  0  0  0  0  0
  198.4668  185.2682  145.4228 H   0  0  0  0  0  0  0  0  0  0  0  0
  195.6847  184.7361  149.4954 H   0  0  0  0  0  0  0  0  0  0  0  0
  196.3397  183.1876  149.0231 H   0  0  0  0  0  0  0  0  0  0  0  0
  196.7207  179.5011  153.7213 H   0  0  0  0  0  0  0  0  0  0  0  0
  196.2026  179.4001  151.2014 H   0  0  0  0  0  0  0  0  0  0  0  0
  196.3623  181.4262  149.8866 H   0  0  0  0  0  0  0  0  0  0  0  0
  197.7375  184.6863  153.1864 H   0  0  0  0  0  0  0  0  0  0  0  0
  196.2027  182.2798  155.6671 H   0  0  0  0  0  0  0  0  0  0  0  0
  197.1019  184.7520  158.9898 H   0  0  0  0  0  0  0  0  0  0  0  0
  198.2598  186.3810  157.5096 H   0  0  0  0  0  0  0  0  0  0  0  0
  198.4683  185.9552  155.0786 H   0  0  0  0  0  0  0  0  0  0  0  0
  196.2237  181.3807  157.9284 H   0  0  0  0  0  0  0  0  0  0  0  0
  196.2188  182.4613  159.2938 H   0  0  0  0  0  0  0  0  0  0  0  0
  193.9807  181.0426  159.6009 H   0  0  0  0  0  0  0  0  0  0  0  0
  193.9407  180.4393  157.9313 H   0  0  0  0  0  0  0  0  0  0  0  0
  192.6450  181.4293  158.5018 H   0  0  0  0  0  0  0  0  0  0  0  0
  194.1529  183.6884  159.8835 H   0  0  0  0  0  0  0  0  0  0  0  0
  192.8490  183.8203  158.6926 H   0  0  0  0  0  0  0  0  0  0  0  0
  194.3842  184.6231  158.4075 H   0  0  0  0  0  0  0  0  0  0  0  0
  194.1990  182.6154  157.1446 H   0  0  0  0  0  0  0  0  0  0  0  0
  197.3571  181.5175  154.6210 H   0  0  0  0  0  0  0  0  0  0  0  0
  1  2  1  0
  2  3  1  0
  2  7  2  0
  3  4  2  0
  3 27  1  0
  4  5  1  0
  4 28  1  0
  5  6  2  0
  5  8  1  0
  6  7  1  0
  6 29  1  0
  7 30  1  0
  8  9  1  0
  8 31  1  1
  8 32  1  0
  9 10  1  0
 10 11  2  0
 10 15  1  0
 11 12  1  0
 11 16  1  0
 12 13  2  0
 12 50  1  0
 13 14  1  0
 13 33  1  0
 14 15  2  0
 14 34  1  0
 15 35  1  0
 16 17  1  0
 16 36  1  0
 17 18  2  0
 17 22  1  0
 18 19  1  0
 18 37  1  0
 19 20  2  0
 19 23  1  0
 20 21  1  0
 20 38  1  0
 21 22  2  0
 21 39  1  0
 22 40  1  0
 23 24  1  0
 23 41  1  6
 23 42  1  0
 24 25  1  0
 24 26  1  0
 24 49  1  6
 25 43  1  1
 25 44  1  0
 25 45  1  0
 26 46  1  1
 26 47  1  0
 26 48  1  0
M  CHG  2  12   1  24   1
M  END
>  <s_epik_cmdline>  (809) 
J2VwaWtfcHl0aG9uJywgJy1waCcsICc3LjAwMDAwMCcsICctcGh0JywgJzIuMDAwMDAwJywgJy1tcycsICcxNicsICctdG4nLCAnOCcsICctbWEnLCAnMjAwJywgJy1pbWFlJywgJzxpbmZpbGUubWFlPicsICctb21hZScsICc8b3V0ZmlsZS5tYWU+Jw==

>  <s_epik_input>  (809) 
QnJjMVtjSF1bY0hdYyhbY0hdW2NIXTEpW0NIMl1PYzJjKG5bY0hdW2NIXVtjSF0yKVtOSF1jM1tjSF1jKFtjSF1bY0hdW2NIXTMpW0NIMl1OKFtDSDNdKVtDSDNd

>  <s_i_glide_gridfile>  (809) 
ATP-Grid

>  <s_lp_Force_Field>  (809) 
OPLS_2005

>  <s_lp_Variant>  (809) 
rxn102b____EMOL4279023____EMOL36800816-3

>  <s_lp_label>  (809) 
2890_sdstereoexpander_1_neutralizer_1_epik_3_stereoizer_1

>  <s_m_source_file>  (809) 
ATP-VSW-LIGPREP-001-in.maegz

>  <s_sd_BIOSOLVEIT.INFINISEE\_QUERY\_NAME>  (809) 
Ref-Lig

>  <s_sd_BIOSOLVEIT.INFINISEE\_QUERY\_SMILES>  (809) 
S(c1nc2c(cc1C[NH2+]Cc3ccc(cc3)C[NH+](C)C)cccc2)Cc4ccccc4

>  <s_sd_BIOSOLVEIT.INFINISEE\_REACTION\_NAME>  (809) 
rxn102b

>  <s_sd_BIOSOLVEIT.INFINISEE\_REAGENT1\_NAME>  (809) 
EMOL4279023

>  <s_sd_BIOSOLVEIT.INFINISEE\_REAGENT1\_SMILES>  (809) 
Brc1cc(ccc1)CN(C)C

>  <s_sd_BIOSOLVEIT.INFINISEE\_REAGENT2\_NAME>  (809) 
EMOL36800816

>  <s_sd_BIOSOLVEIT.INFINISEE\_REAGENT2\_SMILES>  (809) 
Brc1ccc(cc1)COc2c(nccc2)N

>  <s_sd_BIOSOLVEIT.INFINISEE\_SPACE>  (809) 
eXplore_7tr_2022-12

>  <s_vsw_compound_code>  (809) 
92449

>  <s_vsw_variant>  (809) 
92449-3

>  <r_epik_Charging_Adjusted_Penalty>  (809) 
3.2071842752965098

>  <r_epik_Ionization_Penalty>  (809) 
1.6056999999999999

>  <r_epik_Ionization_Penalty_Charging>  (809) 
1.6052

>  <r_epik_Ionization_Penalty_Neutral>  (809) 
0.00050000000000000001

>  <r_epik_State_Penalty>  (809) 
1.6020000000000001

>  <r_i_docking_score>  (809) 
-3.1862650914935799

>  <r_i_glide_ecoul>  (809) 
-10.679858207702599

>  <r_i_glide_eff_state_penalty>  (809) 
1.6020000000000001

>  <r_i_glide_einternal>  (809) 
3.20180344581604

>  <r_i_glide_emodel>  (809) 
-59.380766005444997

>  <r_i_glide_energy>  (809) 
-41.0587930679321

>  <r_i_glide_erotb>  (809) 
0.68978305156284703

>  <r_i_glide_esite>  (809) 
-0.141679205208493

>  <r_i_glide_evdw>  (809) 
-30.378934860229499

>  <r_i_glide_gscore>  (809) 
-4.7882650914935798

>  <r_i_glide_hbond>  (809) 
-0.20000000000000001

>  <r_i_glide_ligand_efficiency>  (809) 
-0.12254865736513799

>  <r_i_glide_ligand_efficiency_ln>  (809) 
-0.74828390174875503

>  <r_i_glide_ligand_efficiency_sa>  (809) 
-0.36304991523853802

>  <r_i_glide_lipo>  (809) 
-1.43138955459015

>  <r_i_glide_metal>  (809) 
-0

>  <r_i_glide_rewards>  (809) 
-0.58405390909090904

>  <r_lp_Energy>  (809) 
31.404971

>  <r_lp_tautomer_probability>  (809) 
0.99999809609972101

>  <r_qp_ACxDN^.5/SA>  (809) 
0.0071850999999999998

>  <r_qp_CIQPlogS>  (809) 
-5.9359999999999999

>  <r_qp_EA(eV)>  (809) 
0.20699999999999999

>  <r_qp_FISA>  (809) 
36.784999999999997

>  <r_qp_FOSA>  (809) 
147.017

>  <r_qp_IP(eV)>  (809) 
7.9630000000000001

>  <r_qp_Jm>  (809) 
0.58013063139452603

>  <r_qp_PISA>  (809) 
338.98399999999998

>  <r_qp_PSA>  (809) 
31.157

>  <r_qp_PercentHumanOralAbsorption>  (809) 
100

>  <r_qp_QPPCaco>  (809) 
1106.548

>  <r_qp_QPPMDCK>  (809) 
1452.6969999999999

>  <r_qp_QPlogBB>  (809) 
0.39800000000000002

>  <r_qp_QPlogHERG>  (809) 
-5.6779999999999999

>  <r_qp_QPlogKhsa>  (809) 
0.59999999999999998

>  <r_qp_QPlogKp>  (809) 
-2.3940000000000001

>  <r_qp_QPlogPC16>  (809) 
12.211

>  <r_qp_QPlogPo/w>  (809) 
4.5129999999999999

>  <r_qp_QPlogPoct>  (809) 
16.417999999999999

>  <r_qp_QPlogPw>  (809) 
7.8289999999999997

>  <r_qp_QPlogS>  (809) 
-3.4580000000000002

>  <r_qp_QPpolrz>  (809) 
37.927

>  <r_qp_SASA>  (809) 
591.5

>  <r_qp_SAamideO>  (809) 
0

>  <r_qp_SAfluorine>  (809) 
0

>  <r_qp_WPSA>  (809) 
68.715000000000003

>  <r_qp_accptHB>  (809) 
4.25

>  <r_qp_dip^2/V>  (809) 
0.0041013000000000004

>  <r_qp_dipole>  (809) 
2.1560000000000001

>  <r_qp_donorHB>  (809) 
1

>  <r_qp_glob>  (809) 
0.8885303

>  <r_qp_mol_MW>  (809) 
412.32799999999997

>  <r_qp_volume>  (809) 
1132.904

>  <r_sd_BIOSOLVEIT.INFINISEE\_FTREES\_SIMILARITY>  (809) 
0.90500000000000003

>  <r_sd_BIOSOLVEIT.LOGP>  (809) 
3.8111999999999999

>  <r_sd_BIOSOLVEIT.MOLECULAR\_WEIGHT>  (809) 
413.33699999999999

>  <r_sd_BIOSOLVEIT.TPSA>  (809) 
38.590000000000003

>  <i_epik_Tot_Q>  (809) 
2

>  <i_epik_Tot_abs_Q>  (809) 
2

>  <i_f3d_flags>  (809) 
0

>  <i_i_glide_confnum>  (809) 
3

>  <i_i_glide_lignum>  (809) 
1331

>  <i_i_glide_posenum>  (809) 
17

>  <i_i_glide_rotatable_bonds>  (809) 
7

>  <i_lp_mmshare_version>  (809) 
65135

>  <i_m_ct_format>  (809) 
2

>  <i_m_source_file_index>  (809) 
2890

>  <i_qp_#NandO>  (809) 
4

>  <i_qp_#acid>  (809) 
0

>  <i_qp_#amide>  (809) 
0

>  <i_qp_#amidine>  (809) 
0

>  <i_qp_#amine>  (809) 
1

>  <i_qp_#in34>  (809) 
0

>  <i_qp_#in56>  (809) 
18

>  <i_qp_#metab>  (809) 
8

>  <i_qp_#nonHatm>  (809) 
26

>  <i_qp_#noncon>  (809) 
0

>  <i_qp_#ringatoms>  (809) 
18

>  <i_qp_#rotor>  (809) 
7

>  <i_qp_#rtvFG>  (809) 
0

>  <i_qp_#stars>  (809) 
0

>  <i_qp_CNS>  (809) 
1

>  <i_qp_HumanOralAbsorption>  (809) 
3

>  <i_qp_RuleOfFive>  (809) 
0

>  <i_qp_RuleOfThree>  (809) 
1

>  <i_sd_BIOSOLVEIT.INFINISEE\_RESULT\_RANK>  (809) 
73519

>  <i_sd_version>  (809) 
0

>  <b_lp_Chiralities_Consistent>  (809) 
1

>  <b_sd_chiral_flag>  (809) 
0

>  <canonical_id>  (809) 
ATP-HTVS-7F76552361A7

>  <compound_code>  (809) 
92449

>  <title>  (809) 
rxn102b____EMOL4279023____EMOL36800816

>  <variant>  (809) 
92449-3

>  <source_file>  (809) 
运行/运行/ATP-VSW/ATP-VSW-DOCK_HTVS_1-001_lib/ATP-VSW-DOCK_HTVS_1-001_lib

>  <canonical_smiles>  (809) 
C[NH+](C)Cc1cccc(Nc2[nH+]cccc2OCc2ccc(Br)cc2)c1

>  <scaffold>  (809) 
c1ccc(COc2ccc[nH+]c2Nc2ccccc2)cc1

>  <molecular_formula>  (809) 
C21H24BrN3O+2

$$$$
ATP-HTVS-7F7812FC41A5
     RDKit          3D

 62 65  0  0  0  0  0  0  0  0999 V2000
  196.9640  179.2785  151.7937 O   0  0  0  0  0  0  0  0  0  0  0  0
  197.4339  180.3934  151.9967 C   0  0  0  0  0  0  0  0  0  0  0  0
  198.1096  181.1289  151.0856 N   0  0  0  0  0  0  0  0  0  0  0  0
  198.4854  180.7770  149.7688 C   0  0  0  0  0  0  0  0  0  0  0  0
  198.5831  179.4931  149.3609 N   0  0  0  0  0  0  0  0  0  0  0  0
  198.9722  179.2010  148.1066 C   0  0  0  0  0  0  0  0  0  0  0  0
  199.2692  180.2235  147.1651 C   0  0  0  0  0  0  0  0  0  0  0  0
  199.1691  181.5667  147.5718 C   0  0  0  0  0  0  0  0  0  0  0  0
  198.7682  181.8698  148.8943 C   0  0  0  0  0  0  0  0  0  0  0  0
  198.5574  183.2168  149.2780 N   0  0  0  0  0  0  0  0  0  0  0  0
  197.2942  183.7196  148.7020 C   0  0  1  0  0  0  0  0  0  0  0  0
  197.4447  184.2364  147.3267 C   0  0  0  0  0  0  0  0  0  0  0  0
  197.5752  184.6399  146.2490 N   0  0  0  0  0  0  0  0  0  0  0  0
  199.7923  184.0335  149.2944 C   0  0  1  0  0  0  0  0  0  0  0  0
  199.8874  185.0937  150.4033 C   0  0  0  0  0  0  0  0  0  0  0  0
  198.7788  185.9164  150.7430 C   0  0  0  0  0  0  0  0  0  0  0  0
  198.8798  186.8277  151.8006 C   0  0  0  0  0  0  0  0  0  0  0  0
  200.0861  187.0170  152.4982 C   0  0  0  0  0  0  0  0  0  0  0  0
  201.2195  186.2397  152.1349 C   0  0  0  0  0  0  0  0  0  0  0  0
  201.1183  185.2665  151.0969 C   0  0  0  0  0  0  0  0  0  0  0  0
  199.6404  179.8919  145.8458 C   0  0  0  0  0  0  0  0  0  0  0  0
  199.7440  178.5394  145.4607 C   0  0  0  0  0  0  0  0  0  0  0  0
  199.4805  177.5245  146.3977 C   0  0  0  0  0  0  0  0  0  0  0  0
  199.0928  177.8553  147.7070 C   0  0  0  0  0  0  0  0  0  0  0  0
  197.3266  181.0476  153.3426 C   0  0  0  0  0  0  0  0  0  0  0  0
  197.2297  182.4518  153.4709 C   0  0  0  0  0  0  0  0  0  0  0  0
  197.1283  183.0525  154.7386 C   0  0  0  0  0  0  0  0  0  0  0  0
  197.0947  182.2538  155.9010 C   0  0  0  0  0  0  0  0  0  0  0  0
  197.1869  180.8545  155.7728 C   0  0  0  0  0  0  0  0  0  0  0  0
  197.2906  180.2482  154.5095 C   0  0  0  0  0  0  0  0  0  0  0  0
  196.9575  182.8936  157.2739 C   0  0  1  0  0  0  0  0  0  0  0  0
  195.5411  183.0012  157.7344 N   0  0  2  0  0  0  0  0  0  0  0  0
  195.3910  183.9768  158.8403 C   0  0  2  0  0  0  0  0  0  0  0  0
  194.9214  181.7061  158.0743 C   0  0  2  0  0  0  0  0  0  0  0  0
  198.3657  182.0599  151.3572 H   0  0  0  0  0  0  0  0  0  0  0  0
  199.3713  182.3428  146.8490 H   0  0  0  0  0  0  0  0  0  0  0  0
  196.5441  182.9080  148.7254 H   0  0  0  0  0  0  0  0  0  0  0  0
  196.8588  184.5293  149.2728 H   0  0  0  0  0  0  0  0  0  0  0  0
  200.6678  183.3860  149.3453 H   0  0  0  0  0  0  0  0  0  0  0  0
  199.8996  184.5273  148.3352 H   0  0  0  0  0  0  0  0  0  0  0  0
  197.8190  185.9043  150.2217 H   0  0  0  0  0  0  0  0  0  0  0  0
  198.0071  187.4074  152.0514 H   0  0  0  0  0  0  0  0  0  0  0  0
  200.1419  187.7704  153.2791 H   0  0  0  0  0  0  0  0  0  0  0  0
  202.1592  186.3986  152.6515 H   0  0  0  0  0  0  0  0  0  0  0  0
  202.0039  184.6842  150.8415 H   0  0  0  0  0  0  0  0  0  0  0  0
  199.8470  180.6629  145.1176 H   0  0  0  0  0  0  0  0  0  0  0  0
  200.0220  178.2724  144.4492 H   0  0  0  0  0  0  0  0  0  0  0  0
  199.5660  176.4893  146.1047 H   0  0  0  0  0  0  0  0  0  0  0  0
  198.8790  177.0672  148.4154 H   0  0  0  0  0  0  0  0  0  0  0  0
  197.1997  183.0985  152.6054 H   0  0  0  0  0  0  0  0  0  0  0  0
  197.0414  184.1267  154.8112 H   0  0  0  0  0  0  0  0  0  0  0  0
  197.1632  180.2297  156.6536 H   0  0  0  0  0  0  0  0  0  0  0  0
  197.3296  179.1702  154.4435 H   0  0  0  0  0  0  0  0  0  0  0  0
  197.5516  182.3464  158.0073 H   0  0  0  0  0  0  0  0  0  0  0  0
  197.3901  183.8933  157.2138 H   0  0  0  0  0  0  0  0  0  0  0  0
  195.9392  183.6469  159.7253 H   0  0  0  0  0  0  0  0  0  0  0  0
  194.3406  184.0905  159.1172 H   0  0  0  0  0  0  0  0  0  0  0  0
  195.7628  184.9630  158.5581 H   0  0  0  0  0  0  0  0  0  0  0  0
  195.4715  181.2038  158.8716 H   0  0  0  0  0  0  0  0  0  0  0  0
  194.8855  181.0609  157.1987 H   0  0  0  0  0  0  0  0  0  0  0  0
  193.8853  181.8353  158.3909 H   0  0  0  0  0  0  0  0  0  0  0  0
  194.9941  183.3255  156.9478 H   0  0  0  0  0  0  0  0  0  0  0  0
  1  2  2  0
  2  3  1  0
  2 25  1  0
  3  4  1  0
  3 35  1  0
  4  5  2  0
  4  9  1  0
  5  6  1  0
  6  7  1  0
  6 24  2  0
  7  8  1  0
  7 21  2  0
  8  9  2  0
  8 36  1  0
  9 10  1  0
 10 11  1  0
 10 14  1  0
 11 12  1  0
 11 37  1  6
 11 38  1  0
 12 13  3  0
 14 15  1  0
 14 39  1  1
 14 40  1  0
 15 16  2  0
 15 20  1  0
 16 17  1  0
 16 41  1  0
 17 18  2  0
 17 42  1  0
 18 19  1  0
 18 43  1  0
 19 20  2  0
 19 44  1  0
 20 45  1  0
 21 22  1  0
 21 46  1  0
 22 23  2  0
 22 47  1  0
 23 24  1  0
 23 48  1  0
 24 49  1  0
 25 26  1  0
 25 30  2  0
 26 27  2  0
 26 50  1  0
 27 28  1  0
 27 51  1  0
 28 29  2  0
 28 31  1  0
 29 30  1  0
 29 52  1  0
 30 53  1  0
 31 32  1  0
 31 54  1  1
 31 55  1  0
 32 33  1  0
 32 34  1  0
 32 62  1  6
 33 56  1  1
 33 57  1  0
 33 58  1  0
 34 59  1  1
 34 60  1  0
 34 61  1  0
M  CHG  1  32   1
M  END
>  <s_epik_cmdline>  (810) 
J2VwaWtfcHl0aG9uJywgJy1waCcsICc3LjAwMDAwMCcsICctcGh0JywgJzIuMDAwMDAwJywgJy1tcycsICcxNicsICctdG4nLCAnOCcsICctbWEnLCAnMjAwJywgJy1pbWFlJywgJzxpbmZpbGUubWFlPicsICctb21hZScsICc8b3V0ZmlsZS5tYWU+Jw==

>  <s_epik_input>  (810) 
W0NIM11OKFtDSDNdKVtDSDJdYyhbY0hdW2NIXTEpW2NIXVtjSF1jMUMoPU8pW05IXWMobjIpYyhbY0hdYyhjMjMpW2NIXVtjSF1bY0hdW2NIXTMpTihbQ0gyXUMjTilbQ0gyXWM0W2NIXVtjSF1bY0hdW2NIXVtjSF00

>  <s_i_glide_gridfile>  (810) 
ATP-Grid

>  <s_lp_Force_Field>  (810) 
OPLS_2005

>  <s_lp_Variant>  (810) 
rxn502b____EMOL18624763____EMOL44466703____EMOL300091282-1

>  <s_lp_label>  (810) 
2261_sdstereoexpander_1_neutralizer_1_epik_1_stereoizer_1

>  <s_m_source_file>  (810) 
ATP-VSW-LIGPREP-001-in.maegz

>  <s_sd_BIOSOLVEIT.INFINISEE\_QUERY\_NAME>  (810) 
Ref-Lig

>  <s_sd_BIOSOLVEIT.INFINISEE\_QUERY\_SMILES>  (810) 
S(c1nc2c(cc1C[NH2+]Cc3ccc(cc3)C[NH+](C)C)cccc2)Cc4ccccc4

>  <s_sd_BIOSOLVEIT.INFINISEE\_REACTION\_NAME>  (810) 
rxn502b

>  <s_sd_BIOSOLVEIT.INFINISEE\_REAGENT1\_NAME>  (810) 
EMOL18624763

>  <s_sd_BIOSOLVEIT.INFINISEE\_REAGENT1\_SMILES>  (810) 
O=C(O)c1ccc(cc1)CN(C)C

>  <s_sd_BIOSOLVEIT.INFINISEE\_REAGENT2\_NAME>  (810) 
EMOL44466703

>  <s_sd_BIOSOLVEIT.INFINISEE\_REAGENT2\_SMILES>  (810) 
Brc1c(nc2c(c1)cccc2)N

>  <s_sd_BIOSOLVEIT.INFINISEE\_REAGENT3\_NAME>  (810) 
EMOL300091282

>  <s_sd_BIOSOLVEIT.INFINISEE\_REAGENT3\_SMILES>  (810) 
N#CCNCc1ccccc1

>  <s_sd_BIOSOLVEIT.INFINISEE\_SPACE>  (810) 
eXplore_7tr_2022-12

>  <s_vsw_compound_code>  (810) 
72321

>  <s_vsw_variant>  (810) 
72321-1

>  <r_epik_Charging_Adjusted_Penalty>  (810) 
0.10433640840748

>  <r_epik_Ionization_Penalty>  (810) 
0.052200000000000003

>  <r_epik_Ionization_Penalty_Charging>  (810) 
0.052200000000000003

>  <r_epik_Ionization_Penalty_Neutral>  (810) 
0

>  <r_epik_State_Penalty>  (810) 
0.052200000000000003

>  <r_i_docking_score>  (810) 
-3.5027356328943902

>  <r_i_glide_ecoul>  (810) 
-7.2242269515991202

>  <r_i_glide_eff_state_penalty>  (810) 
0.052200000000000003

>  <r_i_glide_einternal>  (810) 
3.1096940040588401

>  <r_i_glide_emodel>  (810) 
-48.832611549223202

>  <r_i_glide_energy>  (810) 
-38.143359184265101

>  <r_i_glide_erotb>  (810) 
0.69137857178598805

>  <r_i_glide_esite>  (810) 
-0.067165740281579206

>  <r_i_glide_evdw>  (810) 
-30.919132232666001

>  <r_i_glide_gscore>  (810) 
-3.5549356328943902

>  <r_i_glide_hbond>  (810) 
-0.18624078248444001

>  <r_i_glide_ligand_efficiency>  (810) 
-0.10302163626160001

>  <r_i_glide_ligand_efficiency_ln>  (810) 
-0.77385254971297801

>  <r_i_glide_ligand_efficiency_sa>  (810) 
-0.33375010822768703

>  <r_i_glide_lipo>  (810) 
-0.62706275775765996

>  <r_i_glide_metal>  (810) 
-0

>  <r_i_glide_rewards>  (810) 
-0.73625426978352804

>  <r_lp_Energy>  (810) 
34.480316000000002

>  <r_qp_ACxDN^.5/SA>  (810) 
0.010035799999999999

>  <r_qp_CIQPlogS>  (810) 
-6.4109999999999996

>  <r_qp_EA(eV)>  (810) 
0.93200000000000005

>  <r_qp_FISA>  (810) 
109.92700000000001

>  <r_qp_FOSA>  (810) 
233.06100000000001

>  <r_qp_IP(eV)>  (810) 
8.7300000000000004

>  <r_qp_Jm>  (810) 
0.00028671786431843402

>  <r_qp_PISA>  (810) 
454.16000000000003

>  <r_qp_PSA>  (810) 
76.353999999999999

>  <r_qp_PercentHumanOralAbsorption>  (810) 
94.784000000000006

>  <r_qp_QPPCaco>  (810) 
224.059

>  <r_qp_QPPMDCK>  (810) 
108.655

>  <r_qp_QPlogBB>  (810) 
-0.76800000000000002

>  <r_qp_QPlogHERG>  (810) 
-7.8940000000000001

>  <r_qp_QPlogKhsa>  (810) 
0.624

>  <r_qp_QPlogKp>  (810) 
-3.1440000000000001

>  <r_qp_QPlogPC16>  (810) 
16.212

>  <r_qp_QPlogPo/w>  (810) 
4.4009999999999998

>  <r_qp_QPlogPoct>  (810) 
23.460999999999999

>  <r_qp_QPlogPw>  (810) 
12.834

>  <r_qp_QPlogS>  (810) 
-6.0510000000000002

>  <r_qp_QPpolrz>  (810) 
51.374000000000002

>  <r_qp_SASA>  (810) 
797.14800000000002

>  <r_qp_SAamideO>  (810) 
0

>  <r_qp_SAfluorine>  (810) 
0

>  <r_qp_WPSA>  (810) 
0

>  <r_qp_accptHB>  (810) 
8

>  <r_qp_dip^2/V>  (810) 
0.037304499999999997

>  <r_qp_dipole>  (810) 
7.4139999999999997

>  <r_qp_donorHB>  (810) 
1

>  <r_qp_glob>  (810) 
0.7855818

>  <r_qp_mol_MW>  (810) 
449.55399999999997

>  <r_qp_volume>  (810) 
1473.4929999999999

>  <r_sd_BIOSOLVEIT.INFINISEE\_FTREES\_SIMILARITY>  (810) 
0.92600000000000005

>  <r_sd_BIOSOLVEIT.LOGP>  (810) 
3.6617799999999998

>  <r_sd_BIOSOLVEIT.MOLECULAR\_WEIGHT>  (810) 
450.56299999999999

>  <r_sd_BIOSOLVEIT.TPSA>  (810) 
73.459999999999994

>  <i_epik_Tot_Q>  (810) 
1

>  <i_epik_Tot_abs_Q>  (810) 
1

>  <i_f3d_flags>  (810) 
0

>  <i_i_glide_confnum>  (810) 
2

>  <i_i_glide_lignum>  (810) 
785

>  <i_i_glide_posenum>  (810) 
10

>  <i_i_glide_rotatable_bonds>  (810) 
9

>  <i_lp_mmshare_version>  (810) 
65135

>  <i_m_ct_format>  (810) 
2

>  <i_m_source_file_index>  (810) 
2261

>  <i_qp_#NandO>  (810) 
6

>  <i_qp_#acid>  (810) 
0

>  <i_qp_#amide>  (810) 
0

>  <i_qp_#amidine>  (810) 
0

>  <i_qp_#amine>  (810) 
1

>  <i_qp_#in34>  (810) 
0

>  <i_qp_#in56>  (810) 
22

>  <i_qp_#metab>  (810) 
5

>  <i_qp_#nonHatm>  (810) 
34

>  <i_qp_#noncon>  (810) 
0

>  <i_qp_#ringatoms>  (810) 
22

>  <i_qp_#rotor>  (810) 
9

>  <i_qp_#rtvFG>  (810) 
0

>  <i_qp_#stars>  (810) 
1

>  <i_qp_CNS>  (810) 
0

>  <i_qp_HumanOralAbsorption>  (810) 
3

>  <i_qp_RuleOfFive>  (810) 
0

>  <i_qp_RuleOfThree>  (810) 
1

>  <i_sd_BIOSOLVEIT.INFINISEE\_RESULT\_RANK>  (810) 
8471

>  <i_sd_version>  (810) 
0

>  <b_lp_Chiralities_Consistent>  (810) 
1

>  <b_sd_chiral_flag>  (810) 
0

>  <canonical_id>  (810) 
ATP-HTVS-7F7812FC41A5

>  <compound_code>  (810) 
72321

>  <title>  (810) 
rxn502b____EMOL18624763____EMOL44466703____EMOL300091282

>  <variant>  (810) 
72321-1

>  <source_file>  (810) 
运行/运行/ATP-VSW/ATP-VSW-DOCK_HTVS_1-001_lib/ATP-VSW-DOCK_HTVS_1-001_lib

>  <canonical_smiles>  (810) 
C[NH+](C)Cc1ccc(C(=O)Nc2nc3ccccc3cc2N(CC#N)Cc2ccccc2)cc1

>  <scaffold>  (810) 
O=C(Nc1nc2ccccc2cc1NCc1ccccc1)c1ccccc1

>  <molecular_formula>  (810) 
C28H28N5O+

$$$$
ATP-HTVS-7F83928F0467
     RDKit          3D

 59 62  0  0  0  0  0  0  0  0999 V2000
  197.4529  179.0296  147.7418 F   0  0  0  0  0  0  0  0  0  0  0  0
  197.9930  177.9984  148.4413 C   0  0  0  0  0  0  0  0  0  0  0  0
  197.9567  177.9767  149.8597 C   0  0  0  0  0  0  0  0  0  0  0  0
  198.5326  176.8634  150.5337 C   0  0  0  0  0  0  0  0  0  0  0  0
  199.1369  175.8183  149.8088 C   0  0  0  0  0  0  0  0  0  0  0  0
  199.1641  175.8580  148.4051 C   0  0  0  0  0  0  0  0  0  0  0  0
  199.7530  174.8560  147.7135 F   0  0  0  0  0  0  0  0  0  0  0  0
  198.5947  176.9493  147.7272 C   0  0  0  0  0  0  0  0  0  0  0  0
  197.2866  179.0900  150.6314 C   0  0  0  0  0  0  0  0  0  0  0  0
  196.4358  179.8115  150.1058 O   0  0  0  0  0  0  0  0  0  0  0  0
  197.7110  179.2219  151.9013 N   0  0  0  0  0  0  0  0  0  0  0  0
  197.4918  180.2705  152.8396 C   0  0  0  0  0  0  0  0  0  0  0  0
  198.0533  180.1454  154.1459 C   0  0  0  0  0  0  0  0  0  0  0  0
  198.7492  178.9748  154.4959 N   0  0  0  0  0  0  0  0  0  0  0  0
  200.1936  179.1091  154.6319 C   0  0  1  0  0  0  0  0  0  0  0  0
  200.9115  177.7818  154.7242 C   0  0  0  0  0  0  0  0  0  0  0  0
  202.0393  177.5526  153.9122 C   0  0  0  0  0  0  0  0  0  0  0  0
  202.7549  176.3438  154.0156 C   0  0  0  0  0  0  0  0  0  0  0  0
  202.3370  175.3385  154.9202 C   0  0  0  0  0  0  0  0  0  0  0  0
  201.2086  175.5783  155.7346 C   0  0  0  0  0  0  0  0  0  0  0  0
  200.4967  176.7916  155.6378 C   0  0  0  0  0  0  0  0  0  0  0  0
  203.0731  174.0028  154.9970 C   0  0  1  0  0  0  0  0  0  0  0  0
  202.6497  173.0337  153.9441 N   0  0  2  0  0  0  0  0  0  0  0  0
  203.1405  173.3793  152.5939 C   0  0  2  0  0  0  0  0  0  0  0  0
  201.1980  172.7367  153.9486 C   0  0  2  0  0  0  0  0  0  0  0  0
  197.9227  181.2327  155.0617 C   0  0  0  0  0  0  0  0  0  0  0  0
  197.2674  182.4148  154.6316 C   0  0  0  0  0  0  0  0  0  0  0  0
  196.7466  182.4762  153.3918 N   0  0  0  0  0  0  0  0  0  0  0  0
  196.8188  181.4678  152.5012 C   0  0  0  0  0  0  0  0  0  0  0  0
  197.1417  183.5310  155.4813 C   0  0  0  0  0  0  0  0  0  0  0  0
  197.6384  183.4684  156.7950 C   0  0  0  0  0  0  0  0  0  0  0  0
  198.2772  182.2986  157.2390 C   0  0  0  0  0  0  0  0  0  0  0  0
  198.4058  181.1814  156.3916 C   0  0  0  0  0  0  0  0  0  0  0  0
  198.5116  176.7706  151.6102 H   0  0  0  0  0  0  0  0  0  0  0  0
  199.5645  174.9817  150.3354 H   0  0  0  0  0  0  0  0  0  0  0  0
  198.6149  176.9752  146.6470 H   0  0  0  0  0  0  0  0  0  0  0  0
  198.3251  178.4895  152.2133 H   0  0  0  0  0  0  0  0  0  0  0  0
  198.4643  178.1198  154.0298 H   0  0  0  0  0  0  0  0  0  0  0  0
  200.5911  179.6936  153.8012 H   0  0  0  0  0  0  0  0  0  0  0  0
  200.4629  179.6415  155.5433 H   0  0  0  0  0  0  0  0  0  0  0  0
  202.3605  178.3055  153.2084 H   0  0  0  0  0  0  0  0  0  0  0  0
  203.6150  176.1960  153.3801 H   0  0  0  0  0  0  0  0  0  0  0  0
  200.8809  174.8210  156.4321 H   0  0  0  0  0  0  0  0  0  0  0  0
  199.6356  176.9549  156.2733 H   0  0  0  0  0  0  0  0  0  0  0  0
  204.1469  174.1913  154.9328 H   0  0  0  0  0  0  0  0  0  0  0  0
  202.9166  173.5582  155.9827 H   0  0  0  0  0  0  0  0  0  0  0  0
  202.6770  174.2958  152.2226 H   0  0  0  0  0  0  0  0  0  0  0  0
  202.9001  172.5853  151.8820 H   0  0  0  0  0  0  0  0  0  0  0  0
  204.2274  173.5118  152.5910 H   0  0  0  0  0  0  0  0  0  0  0  0
  200.6089  173.6216  153.7219 H   0  0  0  0  0  0  0  0  0  0  0  0
  200.8966  172.3544  154.9215 H   0  0  0  0  0  0  0  0  0  0  0  0
  200.9609  171.9787  153.2025 H   0  0  0  0  0  0  0  0  0  0  0  0
  196.3700  181.6975  151.5452 H   0  0  0  0  0  0  0  0  0  0  0  0
  196.6178  184.4170  155.1515 H   0  0  0  0  0  0  0  0  0  0  0  0
  197.5013  184.3048  157.4672 H   0  0  0  0  0  0  0  0  0  0  0  0
  198.6432  182.2517  158.2510 H   0  0  0  0  0  0  0  0  0  0  0  0
  198.8452  180.2819  156.7961 H   0  0  0  0  0  0  0  0  0  0  0  0
  203.0873  172.1388  154.1491 H   0  0  0  0  0  0  0  0  0  0  0  0
  196.1963  183.3047  153.1458 H   0  0  0  0  0  0  0  0  0  0  0  0
  1  2  1  0
  2  3  2  0
  2  8  1  0
  3  4  1  0
  3  9  1  0
  4  5  2  0
  4 34  1  0
  5  6  1  0
  5 35  1  0
  6  7  1  0
  6  8  2  0
  8 36  1  0
  9 10  2  0
  9 11  1  0
 11 12  1  0
 11 37  1  0
 12 13  2  0
 12 29  1  0
 13 14  1  0
 13 26  1  0
 14 15  1  0
 14 38  1  0
 15 16  1  0
 15 39  1  6
 15 40  1  0
 16 17  1  0
 16 21  2  0
 17 18  2  0
 17 41  1  0
 18 19  1  0
 18 42  1  0
 19 20  2  0
 19 22  1  0
 20 21  1  0
 20 43  1  0
 21 44  1  0
 22 23  1  0
 22 45  1  6
 22 46  1  0
 23 24  1  0
 23 25  1  0
 23 58  1  1
 24 47  1  6
 24 48  1  0
 24 49  1  0
 25 50  1  6
 25 51  1  0
 25 52  1  0
 26 27  1  0
 26 33  2  0
 27 28  1  0
 27 30  2  0
 28 29  2  0
 28 59  1  0
 29 53  1  0
 30 31  1  0
 30 54  1  0
 31 32  2  0
 31 55  1  0
 32 33  1  0
 32 56  1  0
 33 57  1  0
M  CHG  2  23   1  28   1
M  END
>  <s_epik_cmdline>  (811) 
J2VwaWtfcHl0aG9uJywgJy1waCcsICc3LjAwMDAwMCcsICctcGh0JywgJzIuMDAwMDAwJywgJy1tcycsICcxNicsICctdG4nLCAnOCcsICctbWEnLCAnMjAwJywgJy1pbWFlJywgJzxpbmZpbGUubWFlPicsICctb21hZScsICc8b3V0ZmlsZS5tYWU+Jw==

>  <s_epik_input>  (811) 
RmMoW2NIXTEpW2NIXVtjSF1jKGMxRilDKD1PKVtOSF1jKFtjSF1uYyhjMjMpW2NIXVtjSF1bY0hdW2NIXTMpYzJbTkhdW0NIMl1jNFtjSF1bY0hdYyhbY0hdW2NIXTQpW0NIMl1OKFtDSDNdKVtDSDNd

>  <s_i_glide_gridfile>  (811) 
ATP-Grid

>  <s_lp_Force_Field>  (811) 
OPLS_2005

>  <s_lp_Variant>  (811) 
rxn502b____EMOL493145____EMOL30488121____EMOL50155899-1

>  <s_lp_label>  (811) 
2211_sdstereoexpander_1_neutralizer_1_epik_1_stereoizer_1

>  <s_m_source_file>  (811) 
ATP-VSW-LIGPREP-002-in.maegz

>  <s_sd_BIOSOLVEIT.INFINISEE\_QUERY\_NAME>  (811) 
Ref-Lig

>  <s_sd_BIOSOLVEIT.INFINISEE\_QUERY\_SMILES>  (811) 
S(c1nc2c(cc1C[NH2+]Cc3ccc(cc3)C[NH+](C)C)cccc2)Cc4ccccc4

>  <s_sd_BIOSOLVEIT.INFINISEE\_REACTION\_NAME>  (811) 
rxn502b

>  <s_sd_BIOSOLVEIT.INFINISEE\_REAGENT1\_NAME>  (811) 
EMOL493145

>  <s_sd_BIOSOLVEIT.INFINISEE\_REAGENT1\_SMILES>  (811) 
Fc1c(ccc(F)c1)C(=O)O

>  <s_sd_BIOSOLVEIT.INFINISEE\_REAGENT2\_NAME>  (811) 
EMOL30488121

>  <s_sd_BIOSOLVEIT.INFINISEE\_REAGENT2\_SMILES>  (811) 
Brc1c(N)cnc2c1cccc2

>  <s_sd_BIOSOLVEIT.INFINISEE\_REAGENT3\_NAME>  (811) 
EMOL50155899

>  <s_sd_BIOSOLVEIT.INFINISEE\_REAGENT3\_SMILES>  (811) 
N(Cc1ccc(cc1)CN)(C)C

>  <s_sd_BIOSOLVEIT.INFINISEE\_SPACE>  (811) 
eXplore_7tr_2022-12

>  <s_vsw_compound_code>  (811) 
70722

>  <s_vsw_variant>  (811) 
70722-1

>  <r_epik_Charging_Adjusted_Penalty>  (811) 
0.24057739898594899

>  <r_epik_Ionization_Penalty>  (811) 
0.12039999999999999

>  <r_epik_Ionization_Penalty_Charging>  (811) 
0.1203

>  <r_epik_Ionization_Penalty_Neutral>  (811) 
0.0001

>  <r_epik_State_Penalty>  (811) 
0.1203

>  <r_i_docking_score>  (811) 
-4.9318379549903204

>  <r_i_glide_ecoul>  (811) 
-8.3218612670898402

>  <r_i_glide_eff_state_penalty>  (811) 
0.1203

>  <r_i_glide_einternal>  (811) 
2.4439840316772501

>  <r_i_glide_emodel>  (811) 
-61.673178330812497

>  <r_i_glide_energy>  (811) 
-42.270576477050803

>  <r_i_glide_erotb>  (811) 
0.69712649262667203

>  <r_i_glide_esite>  (811) 
-0.18128230762803799

>  <r_i_glide_evdw>  (811) 
-33.948715209960902

>  <r_i_glide_gscore>  (811) 
-5.0521379549903198

>  <r_i_glide_hbond>  (811) 
-0.25469328881200198

>  <r_i_glide_ligand_efficiency>  (811) 
-0.14944963499970701

>  <r_i_glide_ligand_efficiency_ln>  (811) 
-1.09681522549956

>  <r_i_glide_ligand_efficiency_sa>  (811) 
-0.47936483430820398

>  <r_i_glide_lipo>  (811) 
-1.3157126221655

>  <r_i_glide_metal>  (811) 
-0

>  <r_i_glide_rewards>  (811) 
-1.0518612784499299

>  <r_lp_Energy>  (811) 
36.012383

>  <r_qp_ACxDN^.5/SA>  (811) 
0.0133791

>  <r_qp_CIQPlogS>  (811) 
-5.9039999999999999

>  <r_qp_EA(eV)>  (811) 
1.1379999999999999

>  <r_qp_FISA>  (811) 
66.956000000000003

>  <r_qp_FOSA>  (811) 
186.292

>  <r_qp_IP(eV)>  (811) 
8.5380000000000003

>  <r_qp_Jm>  (811) 
0.027008272441121702

>  <r_qp_PISA>  (811) 
358.49599999999998

>  <r_qp_PSA>  (811) 
59.963000000000001

>  <r_qp_PercentHumanOralAbsorption>  (811) 
100

>  <r_qp_QPPCaco>  (811) 
572.60699999999997

>  <r_qp_QPPMDCK>  (811) 
774.69100000000003

>  <r_qp_QPlogBB>  (811) 
0.10000000000000001

>  <r_qp_QPlogHERG>  (811) 
-6.4749999999999996

>  <r_qp_QPlogKhsa>  (811) 
0.61099999999999999

>  <r_qp_QPlogKp>  (811) 
-2.8809999999999998

>  <r_qp_QPlogPC16>  (811) 
13.369999999999999

>  <r_qp_QPlogPo/w>  (811) 
4.4219999999999997

>  <r_qp_QPlogPoct>  (811) 
22.109000000000002

>  <r_qp_QPlogPw>  (811) 
12.08

>  <r_qp_QPlogS>  (811) 
-4.3369999999999997

>  <r_qp_QPpolrz>  (811) 
45.417999999999999

>  <r_qp_SASA>  (811) 
687.06899999999996

>  <r_qp_SAamideO>  (811) 
0

>  <r_qp_SAfluorine>  (811) 
75.323999999999998

>  <r_qp_WPSA>  (811) 
75.323999999999998

>  <r_qp_accptHB>  (811) 
6.5

>  <r_qp_dip^2/V>  (811) 
0.0234935

>  <r_qp_dipole>  (811) 
5.5590000000000002

>  <r_qp_donorHB>  (811) 
2

>  <r_qp_glob>  (811) 
0.84502999999999995

>  <r_qp_mol_MW>  (811) 
446.49900000000002

>  <r_qp_volume>  (811) 
1315.4090000000001

>  <r_sd_BIOSOLVEIT.INFINISEE\_FTREES\_SIMILARITY>  (811) 
0.93000000000000005

>  <r_sd_BIOSOLVEIT.LOGP>  (811) 
4.0218999999999996

>  <r_sd_BIOSOLVEIT.MOLECULAR\_WEIGHT>  (811) 
447.50700000000001

>  <r_sd_BIOSOLVEIT.TPSA>  (811) 
58.460000000000001

>  <i_epik_Tot_Q>  (811) 
2

>  <i_epik_Tot_abs_Q>  (811) 
2

>  <i_f3d_flags>  (811) 
0

>  <i_i_glide_confnum>  (811) 
9

>  <i_i_glide_lignum>  (811) 
854

>  <i_i_glide_posenum>  (811) 
17

>  <i_i_glide_rotatable_bonds>  (811) 
8

>  <i_lp_mmshare_version>  (811) 
65135

>  <i_m_ct_format>  (811) 
2

>  <i_m_source_file_index>  (811) 
2211

>  <i_qp_#NandO>  (811) 
5

>  <i_qp_#acid>  (811) 
0

>  <i_qp_#amide>  (811) 
0

>  <i_qp_#amidine>  (811) 
0

>  <i_qp_#amine>  (811) 
1

>  <i_qp_#in34>  (811) 
0

>  <i_qp_#in56>  (811) 
22

>  <i_qp_#metab>  (811) 
6

>  <i_qp_#nonHatm>  (811) 
33

>  <i_qp_#noncon>  (811) 
0

>  <i_qp_#ringatoms>  (811) 
22

>  <i_qp_#rotor>  (811) 
7

>  <i_qp_#rtvFG>  (811) 
0

>  <i_qp_#stars>  (811) 
0

>  <i_qp_CNS>  (811) 
1

>  <i_qp_HumanOralAbsorption>  (811) 
3

>  <i_qp_RuleOfFive>  (811) 
0

>  <i_qp_RuleOfThree>  (811) 
0

>  <i_sd_BIOSOLVEIT.INFINISEE\_RESULT\_RANK>  (811) 
4537

>  <i_sd_version>  (811) 
0

>  <b_lp_Chiralities_Consistent>  (811) 
1

>  <b_sd_chiral_flag>  (811) 
0

>  <canonical_id>  (811) 
ATP-HTVS-7F83928F0467

>  <compound_code>  (811) 
70722

>  <title>  (811) 
rxn502b____EMOL493145____EMOL30488121____EMOL50155899

>  <variant>  (811) 
70722-1

>  <source_file>  (811) 
运行/运行/ATP-VSW/ATP-VSW-DOCK_HTVS_1-002_lib.maegz

>  <canonical_smiles>  (811) 
C[NH+](C)Cc1ccc(CNc2c(NC(=O)c3ccc(F)cc3F)c[nH+]c3ccccc23)cc1

>  <scaffold>  (811) 
O=C(Nc1c[nH+]c2ccccc2c1NCc1ccccc1)c1ccccc1

>  <molecular_formula>  (811) 
C26H26F2N4O+2

$$$$
ATP-HTVS-800B0B068CC6
     RDKit          3D

 63 65  0  0  0  0  0  0  0  0999 V2000
  194.2866  186.7727  161.7765 O   0  0  0  0  0  0  0  0  0  0  0  0
  195.1864  186.3806  160.8105 C   0  0  0  0  0  0  0  0  0  0  0  0
  196.2288  187.2789  160.4974 C   0  0  0  0  0  0  0  0  0  0  0  0
  196.2651  188.4682  161.1963 O   0  0  0  0  0  0  0  0  0  0  0  0
  197.1377  189.4906  160.7279 C   0  0  2  0  0  0  0  0  0  0  0  0
  197.2061  186.9149  159.5369 C   0  0  0  0  0  0  0  0  0  0  0  0
  197.1540  185.6766  158.8799 C   0  0  0  0  0  0  0  0  0  0  0  0
  196.0952  184.7815  159.1858 C   0  0  0  0  0  0  0  0  0  0  0  0
  195.1163  185.1312  160.1373 C   0  0  0  0  0  0  0  0  0  0  0  0
  198.2470  185.3194  157.8694 C   0  0  1  0  0  0  0  0  0  0  0  0
  199.5469  184.9150  158.4486 N   0  0  0  0  0  0  0  0  0  0  0  0
  200.5704  184.6868  157.4206 C   0  0  1  0  0  0  0  0  0  0  0  0
  200.4212  183.4684  156.5212 C   0  0  0  0  0  0  0  0  0  0  0  0
  199.5330  182.4175  156.8556 C   0  0  0  0  0  0  0  0  0  0  0  0
  199.3837  181.3125  155.9937 C   0  0  0  0  0  0  0  0  0  0  0  0
  200.1717  181.2291  154.8207 C   0  0  0  0  0  0  0  0  0  0  0  0
  201.0865  182.2567  154.5041 C   0  0  0  0  0  0  0  0  0  0  0  0
  201.2002  183.3786  155.3505 C   0  0  0  0  0  0  0  0  0  0  0  0
  198.3615  180.2360  156.3392 C   0  0  1  0  0  0  0  0  0  0  0  0
  196.9504  180.6496  156.1165 N   0  0  2  0  0  0  0  0  0  0  0  0
  196.6146  180.8016  154.6816 C   0  0  2  0  0  0  0  0  0  0  0  0
  196.5019  181.8284  156.9022 C   0  0  2  0  0  0  0  0  0  0  0  0
  200.0766  185.9752  159.3120 C   0  0  2  0  0  0  0  0  0  0  0  0
  192.9318  186.4033  161.5927 C   0  0  1  0  0  0  0  0  0  0  0  0
  192.0023  187.4706  162.1174 C   0  0  0  0  0  0  0  0  0  0  0  0
  191.1384  188.1505  161.2365 C   0  0  0  0  0  0  0  0  0  0  0  0
  190.2673  189.1400  161.7277 C   0  0  0  0  0  0  0  0  0  0  0  0
  190.2609  189.4556  163.0995 C   0  0  0  0  0  0  0  0  0  0  0  0
  191.1231  188.7759  163.9817 C   0  0  0  0  0  0  0  0  0  0  0  0
  191.9909  187.7814  163.4922 C   0  0  0  0  0  0  0  0  0  0  0  0
  197.0467  190.3676  161.3643 H   0  0  0  0  0  0  0  0  0  0  0  0
  196.8668  189.7811  159.7107 H   0  0  0  0  0  0  0  0  0  0  0  0
  198.1875  189.1914  160.7342 H   0  0  0  0  0  0  0  0  0  0  0  0
  197.9700  187.6093  159.2457 H   0  0  0  0  0  0  0  0  0  0  0  0
  196.0339  183.8099  158.7064 H   0  0  0  0  0  0  0  0  0  0  0  0
  194.3171  184.4343  160.3625 H   0  0  0  0  0  0  0  0  0  0  0  0
  197.8701  184.5016  157.2602 H   0  0  0  0  0  0  0  0  0  0  0  0
  198.3867  186.1658  157.1884 H   0  0  0  0  0  0  0  0  0  0  0  0
  200.6572  185.5867  156.8067 H   0  0  0  0  0  0  0  0  0  0  0  0
  201.5282  184.5585  157.9246 H   0  0  0  0  0  0  0  0  0  0  0  0
  198.9844  182.4496  157.7836 H   0  0  0  0  0  0  0  0  0  0  0  0
  200.0740  180.3809  154.1517 H   0  0  0  0  0  0  0  0  0  0  0  0
  201.7012  182.1815  153.6181 H   0  0  0  0  0  0  0  0  0  0  0  0
  201.9041  184.1708  155.0979 H   0  0  0  0  0  0  0  0  0  0  0  0
  198.5642  179.3412  155.7469 H   0  0  0  0  0  0  0  0  0  0  0  0
  198.4902  179.9311  157.3768 H   0  0  0  0  0  0  0  0  0  0  0  0
  197.1910  181.6025  154.2109 H   0  0  0  0  0  0  0  0  0  0  0  0
  195.5763  181.0643  154.5610 H   0  0  0  0  0  0  0  0  0  0  0  0
  196.7897  179.8726  154.1301 H   0  0  0  0  0  0  0  0  0  0  0  0
  197.0793  182.7139  156.6193 H   0  0  0  0  0  0  0  0  0  0  0  0
  196.6277  181.6173  157.9685 H   0  0  0  0  0  0  0  0  0  0  0  0
  195.4328  182.0204  156.7364 H   0  0  0  0  0  0  0  0  0  0  0  0
  201.0940  185.7443  159.6850 H   0  0  0  0  0  0  0  0  0  0  0  0
  199.3885  186.1306  160.1345 H   0  0  0  0  0  0  0  0  0  0  0  0
  200.1374  186.9171  158.7490 H   0  0  0  0  0  0  0  0  0  0  0  0
  192.7145  186.2271  160.5373 H   0  0  0  0  0  0  0  0  0  0  0  0
  192.7454  185.4730  162.1175 H   0  0  0  0  0  0  0  0  0  0  0  0
  191.1442  187.9179  160.1818 H   0  0  0  0  0  0  0  0  0  0  0  0
  189.5951  189.6490  161.0531 H   0  0  0  0  0  0  0  0  0  0  0  0
  189.5796  190.2052  163.4730 H   0  0  0  0  0  0  0  0  0  0  0  0
  191.1070  189.0067  165.0370 H   0  0  0  0  0  0  0  0  0  0  0  0
  192.6497  187.2574  164.1700 H   0  0  0  0  0  0  0  0  0  0  0  0
  196.4028  179.8874  156.4910 H   0  0  0  0  0  0  0  0  0  0  0  0
  1  2  1  0
  1 24  1  0
  2  3  2  0
  2  9  1  0
  3  4  1  0
  3  6  1  0
  4  5  1  0
  5 31  1  1
  5 32  1  0
  5 33  1  0
  6  7  2  0
  6 34  1  0
  7  8  1  0
  7 10  1  0
  8  9  2  0
  8 35  1  0
  9 36  1  0
 10 11  1  0
 10 37  1  6
 10 38  1  0
 11 12  1  0
 11 23  1  0
 12 13  1  0
 12 39  1  6
 12 40  1  0
 13 14  2  0
 13 18  1  0
 14 15  1  0
 14 41  1  0
 15 16  2  0
 15 19  1  0
 16 17  1  0
 16 42  1  0
 17 18  2  0
 17 43  1  0
 18 44  1  0
 19 20  1  0
 19 45  1  6
 19 46  1  0
 20 21  1  0
 20 22  1  0
 20 63  1  1
 21 47  1  6
 21 48  1  0
 21 49  1  0
 22 50  1  6
 22 51  1  0
 22 52  1  0
 23 53  1  1
 23 54  1  0
 23 55  1  0
 24 25  1  0
 24 56  1  6
 24 57  1  0
 25 26  2  0
 25 30  1  0
 26 27  1  0
 26 58  1  0
 27 28  2  0
 27 59  1  0
 28 29  1  0
 28 60  1  0
 29 30  2  0
 29 61  1  0
 30 62  1  0
M  CHG  1  20   1
M  END
>  <s_epik_cmdline>  (812) 
J2VwaWtfcHl0aG9uJywgJy1waCcsICc3LjAwMDAwMCcsICctcGh0JywgJzIuMDAwMDAwJywgJy1tcycsICcxNicsICctdG4nLCAnOCcsICctbWEnLCAnMjAwJywgJy1pbWFlJywgJzxpbmZpbGUubWFlPicsICctb21hZScsICc8b3V0ZmlsZS5tYWU+Jw==

>  <s_epik_input>  (812) 
W2NIXTFbY0hdW2NIXVtjSF1bY0hdYzFbQ0gyXU9jMmMoT1tDSDNdKVtjSF1jKFtjSF1bY0hdMilbQ0gyXU4oW0NIM10pW0NIMl1jM1tjSF1jKFtjSF1bY0hdW2NIXTMpW0NIMl1OKFtDSDNdKVtDSDNd

>  <s_i_glide_gridfile>  (812) 
ATP-Grid

>  <s_lp_Force_Field>  (812) 
OPLS_2005

>  <s_lp_Variant>  (812) 
m_2230bbc____678300____18339498-3

>  <s_lp_label>  (812) 
1425_sdstereoexpander_1_neutralizer_1_epik_2_stereoizer_1

>  <s_m_source_file>  (812) 
ATP-VSW-LIGPREP-001-in.maegz

>  <s_sd_BIOSOLVEIT.INFINISEE\_QUERY\_NAME>  (812) 
Ref-Lig

>  <s_sd_BIOSOLVEIT.INFINISEE\_QUERY\_SMILES>  (812) 
S(c1nc2c(cc1C[NH2+]Cc3ccc(cc3)C[NH+](C)C)cccc2)Cc4ccccc4

>  <s_sd_BIOSOLVEIT.INFINISEE\_REACTION\_NAME>  (812) 
m_2230bbc

>  <s_sd_BIOSOLVEIT.INFINISEE\_REAGENT1\_SMILES>  (812) 
[R1*]N(Cc1cc(OC)c(OCc2ccccc2)cc1)C

>  <s_sd_BIOSOLVEIT.INFINISEE\_REAGENT2\_SMILES>  (812) 
[R1*]Cc1cc(ccc1)CN(C)C

>  <s_sd_BIOSOLVEIT.INFINISEE\_SPACE>  (812) 
REALSpace_44bn_2023-08

>  <s_vsw_compound_code>  (812) 
45569

>  <s_vsw_variant>  (812) 
45569-3

>  <r_epik_Charging_Adjusted_Penalty>  (812) 
0.90288849111998004

>  <r_epik_Ionization_Penalty>  (812) 
0.84919999999999995

>  <r_epik_Ionization_Penalty_Charging>  (812) 
0.0453

>  <r_epik_Ionization_Penalty_Neutral>  (812) 
0.80389999999999995

>  <r_epik_State_Penalty>  (812) 
0.85760000000000003

>  <r_i_docking_score>  (812) 
-5.4603031238114097

>  <r_i_glide_ecoul>  (812) 
-9.1371803283691406

>  <r_i_glide_eff_state_penalty>  (812) 
0.85760000000000003

>  <r_i_glide_einternal>  (812) 
6.3025922775268599

>  <r_i_glide_emodel>  (812) 
-65.366657672035103

>  <r_i_glide_energy>  (812) 
-43.967063903808601

>  <r_i_glide_erotb>  (812) 
0.95596695552106303

>  <r_i_glide_esite>  (812) 
-0.10000000000000001

>  <r_i_glide_evdw>  (812) 
-34.829883575439503

>  <r_i_glide_gscore>  (812) 
-6.3179031238113996

>  <r_i_glide_hbond>  (812) 
-0.20000000000000001

>  <r_i_glide_ligand_efficiency>  (812) 
-0.18201010412704699

>  <r_i_glide_ligand_efficiency_ln>  (812) 
-1.24064036449764

>  <r_i_glide_ligand_efficiency_sa>  (812) 
-0.56554771131442705

>  <r_i_glide_lipo>  (812) 
-2.9928380785778499

>  <r_i_glide_metal>  (812) 
-0

>  <r_i_glide_rewards>  (812) 
-0.86896077272727101

>  <r_lp_Energy>  (812) 
26.471533999999998

>  <r_lp_tautomer_probability>  (812) 
1

>  <r_qp_ACxDN^.5/SA>  (812) 
0

>  <r_qp_CIQPlogS>  (812) 
-4.0960000000000001

>  <r_qp_EA(eV)>  (812) 
-0.253

>  <r_qp_FISA>  (812) 
0.95299999999999996

>  <r_qp_FOSA>  (812) 
334.99599999999998

>  <r_qp_IP(eV)>  (812) 
8.3569999999999993

>  <r_qp_Jm>  (812) 
1.1812857381656201

>  <r_qp_PISA>  (812) 
336.79599999999999

>  <r_qp_PSA>  (812) 
23.859999999999999

>  <r_qp_PercentHumanOralAbsorption>  (812) 
100

>  <r_qp_QPPCaco>  (812) 
603.48599999999999

>  <r_qp_QPPMDCK>  (812) 
350.78100000000001

>  <r_qp_QPlogBB>  (812) 
0.749

>  <r_qp_QPlogHERG>  (812) 
-6.8479999999999999

>  <r_qp_QPlogKhsa>  (812) 
0.52400000000000002

>  <r_qp_QPlogKp>  (812) 
-3.516

>  <r_qp_QPlogPC16>  (812) 
12.733000000000001

>  <r_qp_QPlogPo/w>  (812) 
4.4939999999999998

>  <r_qp_QPlogPoct>  (812) 
16.763000000000002

>  <r_qp_QPlogPw>  (812) 
6.8470000000000004

>  <r_qp_QPlogS>  (812) 
-2.0190000000000001

>  <r_qp_QPpolrz>  (812) 
43.052

>  <r_qp_SASA>  (812) 
672.74400000000003

>  <r_qp_SAamideO>  (812) 
0

>  <r_qp_SAfluorine>  (812) 
0

>  <r_qp_WPSA>  (812) 
0

>  <r_qp_accptHB>  (812) 
5.5

>  <r_qp_dip^2/V>  (812) 
0.0022664

>  <r_qp_dipole>  (812) 
1.7230000000000001

>  <r_qp_donorHB>  (812) 
0

>  <r_qp_glob>  (812) 
0.86048899999999995

>  <r_qp_mol_MW>  (812) 
404.55099999999999

>  <r_qp_volume>  (812) 
1309.6179999999999

>  <r_sd_BIOSOLVEIT.INFINISEE\_FTREES\_SIMILARITY>  (812) 
0.90800000000000003

>  <r_sd_BIOSOLVEIT.LOGP>  (812) 
2.1335999999999999

>  <r_sd_BIOSOLVEIT.MOLECULAR\_WEIGHT>  (812) 
406.56700000000001

>  <r_sd_BIOSOLVEIT.TPSA>  (812) 
27.34

>  <i_epik_Tot_Q>  (812) 
1

>  <i_epik_Tot_abs_Q>  (812) 
1

>  <i_f3d_flags>  (812) 
0

>  <i_i_glide_confnum>  (812) 
3

>  <i_i_glide_lignum>  (812) 
374

>  <i_i_glide_posenum>  (812) 
3

>  <i_i_glide_rotatable_bonds>  (812) 
10

>  <i_lp_mmshare_version>  (812) 
65135

>  <i_m_ct_format>  (812) 
2

>  <i_m_source_file_index>  (812) 
1425

>  <i_qp_#NandO>  (812) 
4

>  <i_qp_#acid>  (812) 
0

>  <i_qp_#amide>  (812) 
0

>  <i_qp_#amidine>  (812) 
0

>  <i_qp_#amine>  (812) 
2

>  <i_qp_#in34>  (812) 
0

>  <i_qp_#in56>  (812) 
18

>  <i_qp_#metab>  (812) 
8

>  <i_qp_#nonHatm>  (812) 
30

>  <i_qp_#noncon>  (812) 
0

>  <i_qp_#ringatoms>  (812) 
18

>  <i_qp_#rotor>  (812) 
10

>  <i_qp_#rtvFG>  (812) 
0

>  <i_qp_#stars>  (812) 
1

>  <i_qp_CNS>  (812) 
2

>  <i_qp_HumanOralAbsorption>  (812) 
3

>  <i_qp_RuleOfFive>  (812) 
0

>  <i_qp_RuleOfThree>  (812) 
1

>  <i_sd_BIOSOLVEIT.INFINISEE\_REAGENT1\_NAME>  (812) 
678300

>  <i_sd_BIOSOLVEIT.INFINISEE\_REAGENT2\_NAME>  (812) 
18339498

>  <i_sd_BIOSOLVEIT.INFINISEE\_RESULT\_RANK>  (812) 
54427

>  <i_sd_version>  (812) 
0

>  <b_lp_Chiralities_Consistent>  (812) 
1

>  <b_sd_chiral_flag>  (812) 
0

>  <canonical_id>  (812) 
ATP-HTVS-800B0B068CC6

>  <compound_code>  (812) 
45569

>  <title>  (812) 
m_2230bbc____678300____18339498

>  <variant>  (812) 
45569-3

>  <source_file>  (812) 
运行/运行/ATP-VSW/ATP-VSW-DOCK_HTVS_1-001_lib/ATP-VSW-DOCK_HTVS_1-001_lib

>  <canonical_smiles>  (812) 
COc1cc(CN(C)Cc2cccc(C[NH+](C)C)c2)ccc1OCc1ccccc1

>  <scaffold>  (812) 
c1ccc(CNCc2ccc(OCc3ccccc3)cc2)cc1

>  <molecular_formula>  (812) 
C26H33N2O2+

$$$$
ATP-HTVS-8033922A69C0
     RDKit          3D

 62 65  0  0  0  0  0  0  0  0999 V2000
  201.1778  177.5071  157.9115 N   0  0  0  0  0  0  0  0  0  0  0  0
  201.1509  178.8373  157.7247 C   0  0  0  0  0  0  0  0  0  0  0  0
  200.6545  179.4563  156.5693 C   0  0  0  0  0  0  0  0  0  0  0  0
  200.1288  178.6452  155.5299 C   0  0  0  0  0  0  0  0  0  0  0  0
  200.1398  177.2398  155.7354 C   0  0  0  0  0  0  0  0  0  0  0  0
  200.6791  176.7270  156.9270 C   0  0  0  0  0  0  0  0  0  0  0  0
  199.5912  179.2311  154.2840 C   0  0  0  0  0  0  0  0  0  0  0  0
  199.3452  178.4282  153.2500 N   0  0  0  0  0  0  0  0  0  0  0  0
  198.8455  179.2005  152.2618 N   0  0  0  0  0  0  0  0  0  0  0  0
  198.4334  178.6371  151.0202 C   0  0  0  0  0  0  0  0  0  0  0  0
  198.8079  177.3189  150.6595 C   0  0  0  0  0  0  0  0  0  0  0  0
  198.3904  176.7675  149.4322 C   0  0  0  0  0  0  0  0  0  0  0  0
  197.5942  177.5252  148.5532 C   0  0  0  0  0  0  0  0  0  0  0  0
  197.2126  178.8337  148.9042 C   0  0  0  0  0  0  0  0  0  0  0  0
  197.6290  179.3868  150.1303 C   0  0  0  0  0  0  0  0  0  0  0  0
  198.8178  180.5218  152.6693 C   0  0  0  0  0  0  0  0  0  0  0  0
  199.2772  180.5946  153.9562 C   0  0  0  0  0  0  0  0  0  0  0  0
  199.3886  181.8459  154.7903 C   0  0  1  0  0  0  0  0  0  0  0  0
  198.1768  181.9915  155.6292 N   0  0  1  0  0  0  0  0  0  0  0  0
  198.1867  183.1646  156.5345 C   0  0  1  0  0  0  0  0  0  0  0  0
  196.7700  183.5230  157.0426 C   0  0  2  0  0  0  0  0  0  0  0  0
  196.8237  184.8382  157.8177 C   0  0  0  0  0  0  0  0  0  0  0  0
  196.8076  186.0804  157.1461 C   0  0  0  0  0  0  0  0  0  0  0  0
  196.8001  187.2902  157.8709 C   0  0  0  0  0  0  0  0  0  0  0  0
  196.8176  187.2674  159.2774 C   0  0  0  0  0  0  0  0  0  0  0  0
  196.8457  186.0374  159.9498 C   0  0  0  0  0  0  0  0  0  0  0  0
  196.9427  184.8395  159.2434 C   0  0  0  0  0  0  0  0  0  0  0  0
  196.1062  182.3581  157.8340 C   0  0  1  0  0  0  0  0  0  0  0  0
  194.6702  182.5673  158.1979 N   0  0  1  0  0  0  0  0  0  0  0  0
  193.9611  181.3133  158.4723 C   0  0  2  0  0  0  0  0  0  0  0  0
  194.3777  183.5980  159.1819 C   0  0  2  0  0  0  0  0  0  0  0  0
  197.3745  182.0637  155.0224 H   0  0  0  0  0  0  0  0  0  0  0  0
  201.5576  179.4507  158.5082 H   0  0  0  0  0  0  0  0  0  0  0  0
  200.7157  180.5004  156.5195 H   0  0  0  0  0  0  0  0  0  0  0  0
  199.7620  176.5522  154.9866 H   0  0  0  0  0  0  0  0  0  0  0  0
  200.7258  175.6565  157.1127 H   0  0  0  0  0  0  0  0  0  0  0  0
  199.4214  176.7203  151.3170 H   0  0  0  0  0  0  0  0  0  0  0  0
  198.6816  175.7619  149.1650 H   0  0  0  0  0  0  0  0  0  0  0  0
  197.2726  177.1008  147.6134 H   0  0  0  0  0  0  0  0  0  0  0  0
  196.5980  179.4149  148.2328 H   0  0  0  0  0  0  0  0  0  0  0  0
  197.3163  180.3897  150.3774 H   0  0  0  0  0  0  0  0  0  0  0  0
  198.4774  181.3092  152.0102 H   0  0  0  0  0  0  0  0  0  0  0  0
  200.2731  181.8727  155.4018 H   0  0  0  0  0  0  0  0  0  0  0  0
  199.4725  182.7263  154.1510 H   0  0  0  0  0  0  0  0  0  0  0  0
  198.8466  182.9711  157.3815 H   0  0  0  0  0  0  0  0  0  0  0  0
  198.6082  184.0206  155.9992 H   0  0  0  0  0  0  0  0  0  0  0  0
  196.1732  183.7104  156.1517 H   0  0  0  0  0  0  0  0  0  0  0  0
  196.7434  186.1157  156.0644 H   0  0  0  0  0  0  0  0  0  0  0  0
  196.7513  188.2326  157.3557 H   0  0  0  0  0  0  0  0  0  0  0  0
  196.7675  188.1845  159.8486 H   0  0  0  0  0  0  0  0  0  0  0  0
  196.8198  186.0010  161.0284 H   0  0  0  0  0  0  0  0  0  0  0  0
  196.9714  183.9014  159.7943 H   0  0  0  0  0  0  0  0  0  0  0  0
  196.1694  181.4550  157.2294 H   0  0  0  0  0  0  0  0  0  0  0  0
  196.6785  182.1259  158.7325 H   0  0  0  0  0  0  0  0  0  0  0  0
  194.4293  180.8157  159.3314 H   0  0  0  0  0  0  0  0  0  0  0  0
  193.9537  180.6313  157.6189 H   0  0  0  0  0  0  0  0  0  0  0  0
  192.9098  181.5085  158.7152 H   0  0  0  0  0  0  0  0  0  0  0  0
  194.8870  183.3317  160.1217 H   0  0  0  0  0  0  0  0  0  0  0  0
  193.3040  183.6850  159.3969 H   0  0  0  0  0  0  0  0  0  0  0  0
  194.7283  184.5713  158.8566 H   0  0  0  0  0  0  0  0  0  0  0  0
  194.2358  182.8838  157.2963 H   0  0  0  0  0  0  0  0  0  0  0  0
  198.0586  181.1639  156.1977 H   0  0  0  0  0  0  0  0  0  0  0  0
  1  2  2  0
  1  6  1  0
  2  3  1  0
  2 33  1  0
  3  4  2  0
  3 34  1  0
  4  5  1  0
  4  7  1  0
  5  6  2  0
  5 35  1  0
  6 36  1  0
  7  8  2  0
  7 17  1  0
  8  9  1  0
  9 10  1  0
  9 16  1  0
 10 11  2  0
 10 15  1  0
 11 12  1  0
 11 37  1  0
 12 13  2  0
 12 38  1  0
 13 14  1  0
 13 39  1  0
 14 15  2  0
 14 40  1  0
 15 41  1  0
 16 17  2  0
 16 42  1  0
 17 18  1  0
 18 19  1  0
 18 43  1  1
 18 44  1  0
 19 20  1  0
 19 32  1  6
 19 62  1  0
 20 21  1  0
 20 45  1  1
 20 46  1  0
 21 22  1  0
 21 28  1  0
 21 47  1  6
 22 23  2  0
 22 27  1  0
 23 24  1  0
 23 48  1  0
 24 25  2  0
 24 49  1  0
 25 26  1  0
 25 50  1  0
 26 27  2  0
 26 51  1  0
 27 52  1  0
 28 29  1  0
 28 53  1  6
 28 54  1  0
 29 30  1  0
 29 31  1  0
 29 61  1  6
 30 55  1  1
 30 56  1  0
 30 57  1  0
 31 58  1  1
 31 59  1  0
 31 60  1  0
M  CHG  2  19   1  29   1
M  END
>  <s_epik_cmdline>  (813) 
J2VwaWtfcHl0aG9uJywgJy1waCcsICc3LjAwMDAwMCcsICctcGh0JywgJzIuMDAwMDAwJywgJy1tcycsICcxNicsICctdG4nLCAnOCcsICctbWEnLCAnMjAwJywgJy1pbWFlJywgJzxpbmZpbGUubWFlPicsICctb21hZScsICc8b3V0ZmlsZS5tYWU+Jw==

>  <s_epik_input>  (813) 
W2NIXTFbY0hdbltjSF1bY0hdYzEtYzJubigtYzNbY0hdW2NIXVtjSF1bY0hdW2NIXTMpW2NIXWMyW0NIMl1bTkhdW0NIMl1bQ0BASF0oW0NIMl1OKFtDSDNdKVtDSDNdKWM0W2NIXVtjSF1bY0hdW2NIXVtjSF00

>  <s_i_glide_gridfile>  (813) 
ATP-Grid

>  <s_lp_Force_Field>  (813) 
OPLS_2005

>  <s_lp_Variant>  (813) 
m_270004bbb____23846038____7547806-2

>  <s_lp_label>  (813) 
798_sdstereoexpander_2_neutralizer_1_epik_1_stereoizer_1

>  <s_m_source_file>  (813) 
ATP-VSW-LIGPREP-001-in.maegz

>  <s_sd_BIOSOLVEIT.INFINISEE\_QUERY\_NAME>  (813) 
Ref-Lig

>  <s_sd_BIOSOLVEIT.INFINISEE\_QUERY\_SMILES>  (813) 
S(c1nc2c(cc1C[NH2+]Cc3ccc(cc3)C[NH+](C)C)cccc2)Cc4ccccc4

>  <s_sd_BIOSOLVEIT.INFINISEE\_REACTION\_NAME>  (813) 
m_270004bbb

>  <s_sd_BIOSOLVEIT.INFINISEE\_REAGENT1\_SMILES>  (813) 
[R1*]NCC(c1ccccc1)CN(C)C

>  <s_sd_BIOSOLVEIT.INFINISEE\_REAGENT2\_SMILES>  (813) 
[R1*]CC=1C(=NN(c2ccccc2)C1)c3ccncc3

>  <s_sd_BIOSOLVEIT.INFINISEE\_SPACE>  (813) 
REALSpace_44bn_2023-08

>  <s_vsw_compound_code>  (813) 
25505

>  <s_vsw_variant>  (813) 
25505-2

>  <r_epik_Charging_Adjusted_Penalty>  (813) 
0.098947255119293004

>  <r_epik_Ionization_Penalty>  (813) 
0.054699999999999999

>  <r_epik_Ionization_Penalty_Charging>  (813) 
0.050000000000000003

>  <r_epik_Ionization_Penalty_Neutral>  (813) 
0.0047000000000000002

>  <r_epik_State_Penalty>  (813) 
0.049000000000000002

>  <r_i_docking_score>  (813) 
-5.6399666862664999

>  <r_i_glide_ecoul>  (813) 
-10.8837375640869

>  <r_i_glide_eff_state_penalty>  (813) 
0.049000000000000002

>  <r_i_glide_einternal>  (813) 
3.3944334983825701

>  <r_i_glide_emodel>  (813) 
-70.325900516028298

>  <r_i_glide_energy>  (813) 
-45.925809860229499

>  <r_i_glide_erotb>  (813) 
0.80749250960972097

>  <r_i_glide_esite>  (813) 
-0.11367631630556201

>  <r_i_glide_evdw>  (813) 
-35.042072296142599

>  <r_i_glide_gscore>  (813) 
-5.6889666862665003

>  <r_i_glide_hbond>  (813) 
-0.20000000000000001

>  <r_i_glide_ligand_efficiency>  (813) 
-0.18193440923440299

>  <r_i_glide_ligand_efficiency_ln>  (813) 
-1.27198533197422

>  <r_i_glide_ligand_efficiency_sa>  (813) 
-0.571525232519008

>  <r_i_glide_lipo>  (813) 
-1.9644661068285101

>  <r_i_glide_metal>  (813) 
-0

>  <r_i_glide_rewards>  (813) 
-0.83365252332198203

>  <r_lp_Energy>  (813) 
28.244401

>  <r_lp_tautomer_probability>  (813) 
1

>  <r_qp_ACxDN^.5/SA>  (813) 
0.0087223999999999999

>  <r_qp_CIQPlogS>  (813) 
-4.4640000000000004

>  <r_qp_EA(eV)>  (813) 
0.60999999999999999

>  <r_qp_FISA>  (813) 
38.886000000000003

>  <r_qp_FOSA>  (813) 
236.77500000000001

>  <r_qp_IP(eV)>  (813) 
8.8350000000000009

>  <r_qp_Jm>  (813) 
0.023691280111813501

>  <r_qp_PISA>  (813) 
412.22300000000001

>  <r_qp_PSA>  (813) 
39.725000000000001

>  <r_qp_PercentHumanOralAbsorption>  (813) 
95.503

>  <r_qp_QPPCaco>  (813) 
263.601

>  <r_qp_QPPMDCK>  (813) 
143.292

>  <r_qp_QPlogBB>  (813) 
0.58099999999999996

>  <r_qp_QPlogHERG>  (813) 
-7.3609999999999998

>  <r_qp_QPlogKhsa>  (813) 
0.77600000000000002

>  <r_qp_QPlogKp>  (813) 
-4.2370000000000001

>  <r_qp_QPlogPC16>  (813) 
13.954000000000001

>  <r_qp_QPlogPo/w>  (813) 
4.3079999999999998

>  <r_qp_QPlogPoct>  (813) 
20.420999999999999

>  <r_qp_QPlogPw>  (813) 
10.273

>  <r_qp_QPlogS>  (813) 
-3.0030000000000001

>  <r_qp_QPpolrz>  (813) 
46.587000000000003

>  <r_qp_SASA>  (813) 
687.88300000000004

>  <r_qp_SAamideO>  (813) 
0

>  <r_qp_SAfluorine>  (813) 
0

>  <r_qp_WPSA>  (813) 
0

>  <r_qp_accptHB>  (813) 
6

>  <r_qp_dip^2/V>  (813) 
0.0250412

>  <r_qp_dipole>  (813) 
5.7750000000000004

>  <r_qp_donorHB>  (813) 
1

>  <r_qp_glob>  (813) 
0.85103399999999996

>  <r_qp_mol_MW>  (813) 
411.54899999999998

>  <r_qp_volume>  (813) 
1331.817

>  <r_sd_BIOSOLVEIT.INFINISEE\_FTREES\_SIMILARITY>  (813) 
0.92300000000000004

>  <r_sd_BIOSOLVEIT.LOGP>  (813) 
1.9259999999999999

>  <r_sd_BIOSOLVEIT.MOLECULAR\_WEIGHT>  (813) 
413.56599999999997

>  <r_sd_BIOSOLVEIT.TPSA>  (813) 
51.759999999999998

>  <i_epik_Tot_Q>  (813) 
2

>  <i_epik_Tot_abs_Q>  (813) 
2

>  <i_f3d_flags>  (813) 
0

>  <i_i_glide_confnum>  (813) 
6

>  <i_i_glide_lignum>  (813) 
129

>  <i_i_glide_posenum>  (813) 
2

>  <i_i_glide_rotatable_bonds>  (813) 
9

>  <i_lp_mmshare_version>  (813) 
65135

>  <i_m_ct_format>  (813) 
2

>  <i_m_source_file_index>  (813) 
798

>  <i_qp_#NandO>  (813) 
5

>  <i_qp_#acid>  (813) 
0

>  <i_qp_#amide>  (813) 
0

>  <i_qp_#amidine>  (813) 
0

>  <i_qp_#amine>  (813) 
2

>  <i_qp_#in34>  (813) 
0

>  <i_qp_#in56>  (813) 
23

>  <i_qp_#metab>  (813) 
7

>  <i_qp_#nonHatm>  (813) 
31

>  <i_qp_#noncon>  (813) 
0

>  <i_qp_#ringatoms>  (813) 
23

>  <i_qp_#rotor>  (813) 
7

>  <i_qp_#rtvFG>  (813) 
0

>  <i_qp_#stars>  (813) 
0

>  <i_qp_CNS>  (813) 
2

>  <i_qp_HumanOralAbsorption>  (813) 
3

>  <i_qp_RuleOfFive>  (813) 
0

>  <i_qp_RuleOfThree>  (813) 
1

>  <i_sd_BIOSOLVEIT.INFINISEE\_REAGENT1\_NAME>  (813) 
23846038

>  <i_sd_BIOSOLVEIT.INFINISEE\_REAGENT2\_NAME>  (813) 
7547806

>  <i_sd_BIOSOLVEIT.INFINISEE\_RESULT\_RANK>  (813) 
11079

>  <i_sd_version>  (813) 
0

>  <b_lp_Chiralities_Consistent>  (813) 
1

>  <b_sd_chiral_flag>  (813) 
0

>  <canonical_id>  (813) 
ATP-HTVS-8033922A69C0

>  <compound_code>  (813) 
25505

>  <title>  (813) 
m_270004bbb____23846038____7547806

>  <variant>  (813) 
25505-2

>  <source_file>  (813) 
运行/运行/ATP-VSW/ATP-VSW-DOCK_HTVS_1-001_lib/ATP-VSW-DOCK_HTVS_1-001_lib

>  <canonical_smiles>  (813) 
C[NH+](C)C[C@H](C[NH2+]Cc1cn(-c2ccccc2)nc1-c1ccncc1)c1ccccc1

>  <scaffold>  (813) 
c1ccc(CC[NH2+]Cc2cn(-c3ccccc3)nc2-c2ccncc2)cc1

>  <molecular_formula>  (813) 
C26H31N5+2

$$$$
ATP-HTVS-8095E17D3127
     RDKit          3D

 64 67  0  0  0  0  0  0  0  0999 V2000
  196.8590  178.1245  146.6826 F   0  0  0  0  0  0  0  0  0  0  0  0
  197.1693  178.3376  147.9856 C   0  0  0  0  0  0  0  0  0  0  0  0
  198.2901  177.7120  148.5605 C   0  0  0  0  0  0  0  0  0  0  0  0
  198.6272  177.9415  149.9141 C   0  0  0  0  0  0  0  0  0  0  0  0
  197.8356  178.8366  150.7041 C   0  0  0  0  0  0  0  0  0  0  0  0
  196.7122  179.4472  150.1055 C   0  0  0  0  0  0  0  0  0  0  0  0
  196.3772  179.1923  148.7639 C   0  0  0  0  0  0  0  0  0  0  0  0
  198.1005  179.1669  152.1174 C   0  0  0  0  0  0  0  0  0  0  0  0
  199.3178  179.0632  152.6117 N   0  0  0  0  0  0  0  0  0  0  0  0
  199.2846  179.4141  153.9078 N   0  0  0  0  0  0  0  0  0  0  0  0
  200.4854  179.3733  154.7520 C   0  0  0  0  0  0  0  0  0  0  0  0
  200.4125  179.8015  155.8946 O   0  0  0  0  0  0  0  0  0  0  0  0
  201.8415  178.7683  154.2435 C   0  0  2  0  0  0  0  0  0  0  0  0
  202.0520  179.0385  152.8373 N   0  0  0  0  0  0  0  0  0  0  0  0
  201.8849  177.2599  154.5710 C   0  0  0  0  0  0  0  0  0  0  0  0
  201.5502  176.7868  155.8708 C   0  0  0  0  0  0  0  0  0  0  0  0
  201.6254  175.4183  156.1826 C   0  0  0  0  0  0  0  0  0  0  0  0
  202.0511  174.4944  155.2156 C   0  0  0  0  0  0  0  0  0  0  0  0
  202.3899  174.9402  153.9272 C   0  0  0  0  0  0  0  0  0  0  0  0
  202.3102  176.3097  153.6089 C   0  0  0  0  0  0  0  0  0  0  0  0
  203.0302  179.4987  154.9102 C   0  0  2  0  0  0  0  0  0  0  0  0
  197.9684  179.7800  154.2406 C   0  0  0  0  0  0  0  0  0  0  0  0
  197.1961  179.6359  153.1172 C   0  0  0  0  0  0  0  0  0  0  0  0
  197.4930  180.1659  155.5960 C   0  0  1  0  0  0  0  0  0  0  0  0
  196.4354  181.2789  155.5898 C   0  0  1  0  0  0  0  0  0  0  0  0
  195.8488  181.4430  156.9311 N   0  0  1  0  0  0  0  0  0  0  0  0
  196.7493  182.0113  157.9655 C   0  0  1  0  0  0  0  0  0  0  0  0
  196.6087  183.5132  158.0387 C   0  0  0  0  0  0  0  0  0  0  0  0
  195.6987  184.0766  158.9526 C   0  0  0  0  0  0  0  0  0  0  0  0
  195.5627  185.4735  159.0331 C   0  0  0  0  0  0  0  0  0  0  0  0
  196.3327  186.3079  158.1977 C   0  0  0  0  0  0  0  0  0  0  0  0
  197.2400  185.7449  157.2795 C   0  0  0  0  0  0  0  0  0  0  0  0
  197.3817  184.3467  157.2014 C   0  0  0  0  0  0  0  0  0  0  0  0
  199.8443  177.2118  150.4609 C   0  0  2  0  0  0  0  0  0  0  0  0
  202.0575  178.1604  152.3552 H   0  0  0  0  0  0  0  0  0  0  0  0
  201.2079  179.4943  152.5380 H   0  0  0  0  0  0  0  0  0  0  0  0
  195.0140  182.0091  156.8344 H   0  0  0  0  0  0  0  0  0  0  0  0
  198.8920  177.0537  147.9525 H   0  0  0  0  0  0  0  0  0  0  0  0
  196.0930  180.1372  150.6616 H   0  0  0  0  0  0  0  0  0  0  0  0
  195.5154  179.6719  148.3199 H   0  0  0  0  0  0  0  0  0  0  0  0
  201.2517  177.4685  156.6494 H   0  0  0  0  0  0  0  0  0  0  0  0
  201.3801  175.0770  157.1762 H   0  0  0  0  0  0  0  0  0  0  0  0
  202.1214  173.4424  155.4525 H   0  0  0  0  0  0  0  0  0  0  0  0
  202.7312  174.2401  153.1822 H   0  0  0  0  0  0  0  0  0  0  0  0
  202.6209  176.6030  152.6155 H   0  0  0  0  0  0  0  0  0  0  0  0
  203.0192  179.3881  155.9929 H   0  0  0  0  0  0  0  0  0  0  0  0
  202.9978  180.5664  154.6922 H   0  0  0  0  0  0  0  0  0  0  0  0
  203.9819  179.1119  154.5474 H   0  0  0  0  0  0  0  0  0  0  0  0
  196.1338  179.8010  153.0203 H   0  0  0  0  0  0  0  0  0  0  0  0
  197.1410  179.2695  156.1143 H   0  0  0  0  0  0  0  0  0  0  0  0
  198.3100  180.5535  156.1932 H   0  0  0  0  0  0  0  0  0  0  0  0
  196.8811  182.2185  155.2447 H   0  0  0  0  0  0  0  0  0  0  0  0
  195.6249  181.0663  154.8906 H   0  0  0  0  0  0  0  0  0  0  0  0
  196.5070  181.5558  158.9260 H   0  0  0  0  0  0  0  0  0  0  0  0
  197.8046  181.7852  157.8094 H   0  0  0  0  0  0  0  0  0  0  0  0
  195.1046  183.4362  159.5894 H   0  0  0  0  0  0  0  0  0  0  0  0
  194.8568  185.9034  159.7272 H   0  0  0  0  0  0  0  0  0  0  0  0
  196.2181  187.3802  158.2558 H   0  0  0  0  0  0  0  0  0  0  0  0
  197.8214  186.3843  156.6310 H   0  0  0  0  0  0  0  0  0  0  0  0
  198.0819  183.9248  156.4951 H   0  0  0  0  0  0  0  0  0  0  0  0
  200.6787  177.9038  150.5640 H   0  0  0  0  0  0  0  0  0  0  0  0
  200.1720  176.3969  149.8094 H   0  0  0  0  0  0  0  0  0  0  0  0
  199.6270  176.7678  151.4290 H   0  0  0  0  0  0  0  0  0  0  0  0
  195.5965  180.4901  157.2636 H   0  0  0  0  0  0  0  0  0  0  0  0
  1  2  1  0
  2  3  2  0
  2  7  1  0
  3  4  1  0
  3 38  1  0
  4  5  2  0
  4 34  1  0
  5  6  1  0
  5  8  1  0
  6  7  2  0
  6 39  1  0
  7 40  1  0
  8  9  2  0
  8 23  1  0
  9 10  1  0
 10 11  1  0
 10 22  1  0
 11 12  2  0
 11 13  1  0
 13 14  1  6
 13 15  1  0
 13 21  1  0
 14 35  1  0
 14 36  1  0
 15 16  2  0
 15 20  1  0
 16 17  1  0
 16 41  1  0
 17 18  2  0
 17 42  1  0
 18 19  1  0
 18 43  1  0
 19 20  2  0
 19 44  1  0
 20 45  1  0
 21 46  1  1
 21 47  1  0
 21 48  1  0
 22 23  2  0
 22 24  1  0
 23 49  1  0
 24 25  1  0
 24 50  1  1
 24 51  1  0
 25 26  1  0
 25 52  1  6
 25 53  1  0
 26 27  1  0
 26 37  1  6
 26 64  1  0
 27 28  1  0
 27 54  1  1
 27 55  1  0
 28 29  2  0
 28 33  1  0
 29 30  1  0
 29 56  1  0
 30 31  2  0
 30 57  1  0
 31 32  1  0
 31 58  1  0
 32 33  2  0
 32 59  1  0
 33 60  1  0
 34 61  1  1
 34 62  1  0
 34 63  1  0
M  CHG  1  26   1
M  END
>  <s_epik_cmdline>  (814) 
J2VwaWtfcHl0aG9uJywgJy1waCcsICc3LjAwMDAwMCcsICctcGh0JywgJzIuMDAwMDAwJywgJy1tcycsICcxNicsICctdG4nLCAnOCcsICctbWEnLCAnMjAwJywgJy1pbWFlJywgJzxpbmZpbGUubWFlPicsICctb21hZScsICc8b3V0ZmlsZS5tYWU+Jw==

>  <s_epik_input>  (814) 
W2NIXTFbY0hdW2NIXVtjSF1bY0hdYzFbQ0BdKFtOSDJdKShbQ0gzXSlDKD1PKW4obmMyLWMoW2NIXVtjSF0zKWMoW0NIM10pW2NIXWMzRiljKFtjSF0yKVtDSDJdW0NIMl1bTkhdW0NIMl1jNFtjSF1bY0hdW2NIXVtjSF1bY0hdNA==

>  <s_i_glide_gridfile>  (814) 
ATP-Grid

>  <s_lp_Force_Field>  (814) 
OPLS_2005

>  <s_lp_Variant>  (814) 
Shen____49239300____25682265____40180766-1

>  <s_lp_label>  (814) 
648_sdstereoexpander_1_neutralizer_1_epik_1_stereoizer_1

>  <s_m_source_file>  (814) 
ATP-VSW-LIGPREP-003-in.maegz

>  <s_sd_BIOSOLVEIT.INFINISEE\_QUERY\_NAME>  (814) 
Ref-Lig

>  <s_sd_BIOSOLVEIT.INFINISEE\_QUERY\_SMILES>  (814) 
S(c1nc2c(cc1C[NH2+]Cc3ccc(cc3)C[NH+](C)C)cccc2)Cc4ccccc4

>  <s_sd_BIOSOLVEIT.INFINISEE\_REACTION\_NAME>  (814) 
Shen

>  <s_sd_BIOSOLVEIT.INFINISEE\_REAGENT1\_SMILES>  (814) 
O=C(CCNCc1ccccc1)C

>  <s_sd_BIOSOLVEIT.INFINISEE\_REAGENT2\_SMILES>  (814) 
Fc1cc(c(cc1)C(=O)OCC)C

>  <s_sd_BIOSOLVEIT.INFINISEE\_REAGENT3\_SMILES>  (814) 
O=C(NN)C(N)(c1ccccc1)C

>  <s_sd_BIOSOLVEIT.INFINISEE\_SPACE>  (814) 
KnowledgeSpace_290tr_2019-05

>  <s_vsw_compound_code>  (814) 
20707

>  <s_vsw_variant>  (814) 
20707-1

>  <r_epik_Charging_Adjusted_Penalty>  (814) 
0.065241008616714599

>  <r_epik_Ionization_Penalty>  (814) 
0.035999999999999997

>  <r_epik_Ionization_Penalty_Charging>  (814) 
0.0293

>  <r_epik_Ionization_Penalty_Neutral>  (814) 
0.0067000000000000002

>  <r_epik_State_Penalty>  (814) 
0.035999999999999997

>  <r_i_docking_score>  (814) 
-6.0765389489099002

>  <r_i_glide_ecoul>  (814) 
-13.8605508804321

>  <r_i_glide_eff_state_penalty>  (814) 
0.035999999999999997

>  <r_i_glide_einternal>  (814) 
5.5907549858093297

>  <r_i_glide_emodel>  (814) 
-70.4852768180276

>  <r_i_glide_energy>  (814) 
-47.740746498107903

>  <r_i_glide_erotb>  (814) 
0.76826713990077899

>  <r_i_glide_esite>  (814) 
-0.10682147830744899

>  <r_i_glide_evdw>  (814) 
-33.880195617675803

>  <r_i_glide_gscore>  (814) 
-6.1125389489098998

>  <r_i_glide_hbond>  (814) 
-0.360911417217613

>  <r_i_glide_ligand_efficiency>  (814) 
-0.178721733791468

>  <r_i_glide_ligand_efficiency_ln>  (814) 
-1.3424778949584899

>  <r_i_glide_ligand_efficiency_sa>  (814) 
-0.57898903725503603

>  <r_i_glide_lipo>  (814) 
-2.0349781140922998

>  <r_i_glide_metal>  (814) 
-0

>  <r_i_glide_rewards>  (814) 
-0.60500266624471

>  <r_lp_Energy>  (814) 
31.651574

>  <r_qp_ACxDN^.5/SA>  (814) 
0.0129765

>  <r_qp_CIQPlogS>  (814) 
-5.2080000000000002

>  <r_qp_EA(eV)>  (814) 
0.73399999999999999

>  <r_qp_FISA>  (814) 
66.802000000000007

>  <r_qp_FOSA>  (814) 
193.893

>  <r_qp_IP(eV)>  (814) 
9.3620000000000001

>  <r_qp_Jm>  (814) 
0.00030297217388037298

>  <r_qp_PISA>  (814) 
493.17099999999999

>  <r_qp_PSA>  (814) 
66.554000000000002

>  <r_qp_PercentHumanOralAbsorption>  (814) 
94.180999999999997

>  <r_qp_QPPCaco>  (814) 
143.291

>  <r_qp_QPPMDCK>  (814) 
134.124

>  <r_qp_QPlogBB>  (814) 
0.26400000000000001

>  <r_qp_QPlogHERG>  (814) 
-8.8740000000000006

>  <r_qp_QPlogKhsa>  (814) 
0.95399999999999996

>  <r_qp_QPlogKp>  (814) 
-4.3700000000000001

>  <r_qp_QPlogPC16>  (814) 
16.341999999999999

>  <r_qp_QPlogPo/w>  (814) 
4.8920000000000003

>  <r_qp_QPlogPoct>  (814) 
25.209

>  <r_qp_QPlogPw>  (814) 
14.010999999999999

>  <r_qp_QPlogS>  (814) 
-4.8079999999999998

>  <r_qp_QPpolrz>  (814) 
52.323

>  <r_qp_SASA>  (814) 
800.85699999999997

>  <r_qp_SAamideO>  (814) 
0

>  <r_qp_SAfluorine>  (814) 
46.991999999999997

>  <r_qp_WPSA>  (814) 
46.991999999999997

>  <r_qp_accptHB>  (814) 
6

>  <r_qp_dip^2/V>  (814) 
0.00027989999999999997

>  <r_qp_dipole>  (814) 
0.64200000000000002

>  <r_qp_donorHB>  (814) 
3

>  <r_qp_glob>  (814) 
0.78136570000000005

>  <r_qp_mol_MW>  (814) 
456.56200000000001

>  <r_qp_volume>  (814) 
1471.8610000000001

>  <r_sd_BIOSOLVEIT.INFINISEE\_FTREES\_SIMILARITY>  (814) 
0.91100000000000003

>  <r_sd_BIOSOLVEIT.LOGP>  (814) 
3.1012200000000001

>  <r_sd_BIOSOLVEIT.MOLECULAR\_WEIGHT>  (814) 
458.57799999999997

>  <r_sd_BIOSOLVEIT.TPSA>  (814) 
79.140000000000001

>  <i_epik_Tot_Q>  (814) 
1

>  <i_epik_Tot_abs_Q>  (814) 
1

>  <i_f3d_flags>  (814) 
0

>  <i_i_glide_confnum>  (814) 
8

>  <i_i_glide_lignum>  (814) 
273

>  <i_i_glide_posenum>  (814) 
12

>  <i_i_glide_rotatable_bonds>  (814) 
9

>  <i_lp_mmshare_version>  (814) 
65135

>  <i_m_ct_format>  (814) 
2

>  <i_m_source_file_index>  (814) 
648

>  <i_qp_#NandO>  (814) 
5

>  <i_qp_#acid>  (814) 
0

>  <i_qp_#amide>  (814) 
0

>  <i_qp_#amidine>  (814) 
0

>  <i_qp_#amine>  (814) 
2

>  <i_qp_#in34>  (814) 
0

>  <i_qp_#in56>  (814) 
23

>  <i_qp_#metab>  (814) 
6

>  <i_qp_#nonHatm>  (814) 
34

>  <i_qp_#noncon>  (814) 
0

>  <i_qp_#ringatoms>  (814) 
23

>  <i_qp_#rotor>  (814) 
8

>  <i_qp_#rtvFG>  (814) 
0

>  <i_qp_#stars>  (814) 
2

>  <i_qp_CNS>  (814) 
1

>  <i_qp_HumanOralAbsorption>  (814) 
3

>  <i_qp_RuleOfFive>  (814) 
0

>  <i_qp_RuleOfThree>  (814) 
0

>  <i_sd_BIOSOLVEIT.INFINISEE\_REAGENT1\_NAME>  (814) 
49239300

>  <i_sd_BIOSOLVEIT.INFINISEE\_REAGENT2\_NAME>  (814) 
25682265

>  <i_sd_BIOSOLVEIT.INFINISEE\_REAGENT3\_NAME>  (814) 
40180766

>  <i_sd_BIOSOLVEIT.INFINISEE\_RESULT\_RANK>  (814) 
39952

>  <i_sd_version>  (814) 
0

>  <b_lp_Chiralities_Consistent>  (814) 
1

>  <b_sd_chiral_flag>  (814) 
0

>  <canonical_id>  (814) 
ATP-HTVS-8095E17D3127

>  <compound_code>  (814) 
20707

>  <title>  (814) 
Shen____49239300____25682265____40180766

>  <variant>  (814) 
20707-1

>  <source_file>  (814) 
运行/运行/ATP-VSW/ATP-VSW-DOCK_HTVS_1-003_lib/ATP-VSW-DOCK_HTVS_1-003_lib.mae

>  <canonical_smiles>  (814) 
Cc1cc(F)ccc1-c1cc(CC[NH2+]Cc2ccccc2)n(C(=O)[C@](C)(N)c2ccccc2)n1

>  <scaffold>  (814) 
O=C(Cc1ccccc1)n1nc(-c2ccccc2)cc1CC[NH2+]Cc1ccccc1

>  <molecular_formula>  (814) 
C28H30FN4O+

$$$$
ATP-HTVS-80A1BADD16E7
     RDKit          3D

 58 61  0  0  0  0  0  0  0  0999 V2000
  197.0829  179.4670  149.3215 S   0  0  0  0  0  0  0  0  0  0  0  0
  197.0949  180.7906  150.4080 C   0  0  0  0  0  0  0  0  0  0  0  0
  196.4645  180.6793  151.7004 C   0  0  0  0  0  0  0  0  0  0  0  0
  195.8698  179.5489  152.0892 F   0  0  0  0  0  0  0  0  0  0  0  0
  196.5082  181.7652  152.5910 C   0  0  0  0  0  0  0  0  0  0  0  0
  197.2216  182.9474  152.2482 C   0  0  0  0  0  0  0  0  0  0  0  0
  197.8356  183.0409  150.9724 C   0  0  0  0  0  0  0  0  0  0  0  0
  197.7626  181.9727  150.0513 C   0  0  0  0  0  0  0  0  0  0  0  0
  197.3376  184.0874  153.2245 C   0  0  0  0  0  0  0  0  0  0  0  0
  197.6061  185.2186  152.8086 O   0  0  0  0  0  0  0  0  0  0  0  0
  197.1692  183.7617  154.5224 N   0  0  0  0  0  0  0  0  0  0  0  0
  197.2550  184.5878  155.6913 C   0  0  0  0  0  0  0  0  0  0  0  0
  197.6293  185.8845  155.6253 N   0  0  0  0  0  0  0  0  0  0  0  0
  197.7325  186.6182  156.7634 C   0  0  0  0  0  0  0  0  0  0  0  0
  197.4755  186.0601  158.0412 C   0  0  0  0  0  0  0  0  0  0  0  0
  197.0874  184.7138  158.1200 C   0  0  0  0  0  0  0  0  0  0  0  0
  196.9669  183.9749  156.9302 C   0  0  0  0  0  0  0  0  0  0  0  0
  196.5221  182.6354  157.0251 N   0  0  0  0  0  0  0  0  0  0  0  0
  197.4944  181.6982  157.5614 C   0  0  1  0  0  0  0  0  0  0  0  0
  198.1384  180.8425  156.4902 C   0  0  0  0  0  0  0  0  0  0  0  0
  199.5046  180.4533  156.6203 C   0  0  0  0  0  0  0  0  0  0  0  0
  200.0785  179.5865  155.6629 C   0  0  0  0  0  0  0  0  0  0  0  0
  199.3264  179.1667  154.5449 C   0  0  0  0  0  0  0  0  0  0  0  0
  197.9728  179.5335  154.4156 C   0  0  0  0  0  0  0  0  0  0  0  0
  197.3828  180.3649  155.3799 C   0  0  0  0  0  0  0  0  0  0  0  0
  201.4742  179.0450  155.8548 C   0  0  1  0  0  0  0  0  0  0  0  0
  201.5401  177.8942  156.8098 N   0  0  2  0  0  0  0  0  0  0  0  0
  200.9246  176.6430  156.2907 C   0  0  2  0  0  0  0  0  0  0  0  0
  201.0233  178.2117  158.1757 C   0  0  2  0  0  0  0  0  0  0  0  0
  197.6090  186.8392  159.2100 C   0  0  0  0  0  0  0  0  0  0  0  0
  198.0035  188.1863  159.1100 C   0  0  0  0  0  0  0  0  0  0  0  0
  198.2516  188.7513  157.8425 C   0  0  0  0  0  0  0  0  0  0  0  0
  198.1141  187.9671  156.6802 C   0  0  0  0  0  0  0  0  0  0  0  0
  196.0171  181.6154  153.5934 H   0  0  0  0  0  0  0  0  0  0  0  0
  198.3548  183.9418  150.6757 H   0  0  0  0  0  0  0  0  0  0  0  0
  198.2189  182.0649  149.0722 H   0  0  0  0  0  0  0  0  0  0  0  0
  196.9761  182.7960  154.7216 H   0  0  0  0  0  0  0  0  0  0  0  0
  196.8643  184.2587  159.0744 H   0  0  0  0  0  0  0  0  0  0  0  0
  195.9776  182.2833  156.2615 H   0  0  0  0  0  0  0  0  0  0  0  0
  198.2489  182.2323  158.1333 H   0  0  0  0  0  0  0  0  0  0  0  0
  196.9684  181.0458  158.2652 H   0  0  0  0  0  0  0  0  0  0  0  0
  200.0573  180.7786  157.4801 H   0  0  0  0  0  0  0  0  0  0  0  0
  199.7608  178.5273  153.7840 H   0  0  0  0  0  0  0  0  0  0  0  0
  197.3700  179.1847  153.5356 H   0  0  0  0  0  0  0  0  0  0  0  0
  196.3393  180.6321  155.2308 H   0  0  0  0  0  0  0  0  0  0  0  0
  201.8844  178.7133  154.8951 H   0  0  0  0  0  0  0  0  0  0  0  0
  202.1180  179.8476  156.2017 H   0  0  0  0  0  0  0  0  0  0  0  0
  199.8617  176.7585  156.0948 H   0  0  0  0  0  0  0  0  0  0  0  0
  201.0466  175.8353  157.0161 H   0  0  0  0  0  0  0  0  0  0  0  0
  201.4218  176.3394  155.3691 H   0  0  0  0  0  0  0  0  0  0  0  0
  199.9494  178.3870  158.1881 H   0  0  0  0  0  0  0  0  0  0  0  0
  201.5454  179.0943  158.5476 H   0  0  0  0  0  0  0  0  0  0  0  0
  201.2049  177.3940  158.8769 H   0  0  0  0  0  0  0  0  0  0  0  0
  197.4212  186.4035  160.1818 H   0  0  0  0  0  0  0  0  0  0  0  0
  198.1209  188.7807  160.0020 H   0  0  0  0  0  0  0  0  0  0  0  0
  198.5563  189.7847  157.7606 H   0  0  0  0  0  0  0  0  0  0  0  0
  198.3120  188.3914  155.7065 H   0  0  0  0  0  0  0  0  0  0  0  0
  202.5155  177.7216  156.9271 H   0  0  0  0  0  0  0  0  0  0  0  0
  1  2  1  0
  2  3  2  0
  2  8  1  0
  3  4  1  0
  3  5  1  0
  5  6  2  0
  5 34  1  0
  6  7  1  0
  6  9  1  0
  7  8  2  0
  7 35  1  0
  8 36  1  0
  9 10  2  0
  9 11  1  0
 11 12  1  0
 11 37  1  0
 12 13  2  0
 12 17  1  0
 13 14  1  0
 14 15  1  0
 14 33  2  0
 15 16  1  0
 15 30  2  0
 16 17  2  0
 16 38  1  0
 17 18  1  0
 18 19  1  0
 18 39  1  0
 19 20  1  0
 19 40  1  1
 19 41  1  0
 20 21  2  0
 20 25  1  0
 21 22  1  0
 21 42  1  0
 22 23  2  0
 22 26  1  0
 23 24  1  0
 23 43  1  0
 24 25  2  0
 24 44  1  0
 25 45  1  0
 26 27  1  0
 26 46  1  6
 26 47  1  0
 27 28  1  0
 27 29  1  0
 27 58  1  1
 28 48  1  6
 28 49  1  0
 28 50  1  0
 29 51  1  6
 29 52  1  0
 29 53  1  0
 30 31  1  0
 30 54  1  0
 31 32  2  0
 31 55  1  0
 32 33  1  0
 32 56  1  0
 33 57  1  0
M  CHG  2   1  -1  27   1
M  END
>  <s_epik_cmdline>  (815) 
J2VwaWtfcHl0aG9uJywgJy1waCcsICc3LjAwMDAwMCcsICctcGh0JywgJzIuMDAwMDAwJywgJy1tcycsICcxNicsICctdG4nLCAnOCcsICctbWEnLCAnMjAwJywgJy1pbWFlJywgJzxpbmZpbGUubWFlPicsICctb21hZScsICc8b3V0ZmlsZS5tYWU+Jw==

>  <s_epik_input>  (815) 
W1NIXWMxYyhGKVtjSF1jKFtjSF1bY0hdMSlDKD1PKVtOSF1jKG4yKWMoW2NIXWMoYzIzKVtjSF1bY0hdW2NIXVtjSF0zKVtOSF1bQ0gyXWM0W2NIXWMoW2NIXVtjSF1bY0hdNClbQ0gyXU4oW0NIM10pW0NIM10=

>  <s_i_glide_gridfile>  (815) 
ATP-Grid

>  <s_lp_Force_Field>  (815) 
OPLS_2005

>  <s_lp_Variant>  (815) 
rxn502b____EMOL39304293____EMOL44466703____EMOL2873214-1

>  <s_lp_label>  (815) 
2253_sdstereoexpander_1_neutralizer_1_epik_1_stereoizer_1

>  <s_m_source_file>  (815) 
ATP-VSW-LIGPREP-002-in.maegz

>  <s_sd_BIOSOLVEIT.INFINISEE\_QUERY\_NAME>  (815) 
Ref-Lig

>  <s_sd_BIOSOLVEIT.INFINISEE\_QUERY\_SMILES>  (815) 
S(c1nc2c(cc1C[NH2+]Cc3ccc(cc3)C[NH+](C)C)cccc2)Cc4ccccc4

>  <s_sd_BIOSOLVEIT.INFINISEE\_REACTION\_NAME>  (815) 
rxn502b

>  <s_sd_BIOSOLVEIT.INFINISEE\_REAGENT1\_NAME>  (815) 
EMOL39304293

>  <s_sd_BIOSOLVEIT.INFINISEE\_REAGENT1\_SMILES>  (815) 
Sc1c(F)cc(cc1)C(=O)O

>  <s_sd_BIOSOLVEIT.INFINISEE\_REAGENT2\_NAME>  (815) 
EMOL44466703

>  <s_sd_BIOSOLVEIT.INFINISEE\_REAGENT2\_SMILES>  (815) 
Brc1c(nc2c(c1)cccc2)N

>  <s_sd_BIOSOLVEIT.INFINISEE\_REAGENT3\_NAME>  (815) 
EMOL2873214

>  <s_sd_BIOSOLVEIT.INFINISEE\_REAGENT3\_SMILES>  (815) 
N(Cc1cc(ccc1)CN)(C)C

>  <s_sd_BIOSOLVEIT.INFINISEE\_SPACE>  (815) 
eXplore_7tr_2022-12

>  <s_vsw_compound_code>  (815) 
72066

>  <s_vsw_variant>  (815) 
72066-1

>  <r_epik_Charging_Adjusted_Penalty>  (815) 
0.088610730443870106

>  <r_epik_Ionization_Penalty>  (815) 
0.044600000000000001

>  <r_epik_Ionization_Penalty_Charging>  (815) 
0.044499999999999998

>  <r_epik_Ionization_Penalty_Neutral>  (815) 
0.0001

>  <r_epik_State_Penalty>  (815) 
0.0441

>  <r_i_docking_score>  (815) 
-3.75469145667868

>  <r_i_glide_ecoul>  (815) 
-4.2590370178222701

>  <r_i_glide_eff_state_penalty>  (815) 
0.0441

>  <r_i_glide_einternal>  (815) 
4.5828056335449201

>  <r_i_glide_emodel>  (815) 
-50.533293235407498

>  <r_i_glide_energy>  (815) 
-40.060127258300803

>  <r_i_glide_erotb>  (815) 
0.66426788908101997

>  <r_i_glide_esite>  (815) 
-0.106076350499249

>  <r_i_glide_evdw>  (815) 
-35.801090240478501

>  <r_i_glide_gscore>  (815) 
-3.7987914566786798

>  <r_i_glide_hbond>  (815) 
0

>  <r_i_glide_ligand_efficiency>  (815) 
-0.113778528990263

>  <r_i_glide_ligand_efficiency_ln>  (815) 
-0.83502393921342299

>  <r_i_glide_ligand_efficiency_sa>  (815) 
-0.364948537327346

>  <r_i_glide_lipo>  (815) 
-1.12545635330352

>  <r_i_glide_metal>  (815) 
-0

>  <r_i_glide_rewards>  (815) 
-0.80261657725966395

>  <r_lp_Energy>  (815) 
19.119057999999999

>  <r_qp_ACxDN^.5/SA>  (815) 
0.017076000000000001

>  <r_qp_CIQPlogS>  (815) 
-5.9249999999999998

>  <r_qp_EA(eV)>  (815) 
0.94699999999999995

>  <r_qp_FISA>  (815) 
62.295999999999999

>  <r_qp_FOSA>  (815) 
161.08199999999999

>  <r_qp_IP(eV)>  (815) 
8.7360000000000007

>  <r_qp_Jm>  (815) 
0.13770525320839699

>  <r_qp_PISA>  (815) 
388.92599999999999

>  <r_qp_PSA>  (815) 
61.069000000000003

>  <r_qp_PercentHumanOralAbsorption>  (815) 
100

>  <r_qp_QPPCaco>  (815) 
633.93899999999996

>  <r_qp_QPPMDCK>  (815) 
846.63199999999995

>  <r_qp_QPlogBB>  (815) 
0.086999999999999994

>  <r_qp_QPlogHERG>  (815) 
-6.5279999999999996

>  <r_qp_QPlogKhsa>  (815) 
0.47699999999999998

>  <r_qp_QPlogKp>  (815) 
-2.5920000000000001

>  <r_qp_QPlogPC16>  (815) 
14.593999999999999

>  <r_qp_QPlogPo/w>  (815) 
4.2300000000000004

>  <r_qp_QPlogPoct>  (815) 
23.614999999999998

>  <r_qp_QPlogPw>  (815) 
13.696

>  <r_qp_QPlogS>  (815) 
-3.9319999999999999

>  <r_qp_QPpolrz>  (815) 
45.472999999999999

>  <r_qp_SASA>  (815) 
685.94799999999998

>  <r_qp_SAamideO>  (815) 
0

>  <r_qp_SAfluorine>  (815) 
17.300999999999998

>  <r_qp_WPSA>  (815) 
73.644999999999996

>  <r_qp_accptHB>  (815) 
7

>  <r_qp_dip^2/V>  (815) 
0.026545699999999998

>  <r_qp_dipole>  (815) 
5.9320000000000004

>  <r_qp_donorHB>  (815) 
2.7999999999999998

>  <r_qp_glob>  (815) 
0.85076130000000005

>  <r_qp_mol_MW>  (815) 
460.56799999999998

>  <r_qp_volume>  (815) 
1325.566

>  <r_sd_BIOSOLVEIT.INFINISEE\_FTREES\_SIMILARITY>  (815) 
0.92600000000000005

>  <r_sd_BIOSOLVEIT.LOGP>  (815) 
4.5517000000000003

>  <r_sd_BIOSOLVEIT.MOLECULAR\_WEIGHT>  (815) 
461.58100000000002

>  <r_sd_BIOSOLVEIT.TPSA>  (815) 
58.460000000000001

>  <i_epik_Tot_Q>  (815) 
0

>  <i_epik_Tot_abs_Q>  (815) 
2

>  <i_f3d_flags>  (815) 
0

>  <i_i_glide_confnum>  (815) 
3

>  <i_i_glide_lignum>  (815) 
893

>  <i_i_glide_posenum>  (815) 
9

>  <i_i_glide_rotatable_bonds>  (815) 
8

>  <i_lp_mmshare_version>  (815) 
65135

>  <i_m_ct_format>  (815) 
2

>  <i_m_source_file_index>  (815) 
2253

>  <i_qp_#NandO>  (815) 
5

>  <i_qp_#acid>  (815) 
0

>  <i_qp_#amide>  (815) 
0

>  <i_qp_#amidine>  (815) 
0

>  <i_qp_#amine>  (815) 
1

>  <i_qp_#in34>  (815) 
0

>  <i_qp_#in56>  (815) 
22

>  <i_qp_#metab>  (815) 
6

>  <i_qp_#nonHatm>  (815) 
33

>  <i_qp_#noncon>  (815) 
0

>  <i_qp_#ringatoms>  (815) 
22

>  <i_qp_#rotor>  (815) 
8

>  <i_qp_#rtvFG>  (815) 
1

>  <i_qp_#stars>  (815) 
0

>  <i_qp_CNS>  (815) 
1

>  <i_qp_HumanOralAbsorption>  (815) 
3

>  <i_qp_RuleOfFive>  (815) 
0

>  <i_qp_RuleOfThree>  (815) 
0

>  <i_sd_BIOSOLVEIT.INFINISEE\_RESULT\_RANK>  (815) 
7864

>  <i_sd_version>  (815) 
0

>  <b_lp_Chiralities_Consistent>  (815) 
1

>  <b_sd_chiral_flag>  (815) 
0

>  <canonical_id>  (815) 
ATP-HTVS-80A1BADD16E7

>  <compound_code>  (815) 
72066

>  <title>  (815) 
rxn502b____EMOL39304293____EMOL44466703____EMOL2873214

>  <variant>  (815) 
72066-1

>  <source_file>  (815) 
运行/运行/ATP-VSW/ATP-VSW-DOCK_HTVS_1-002_lib.maegz

>  <canonical_smiles>  (815) 
C[NH+](C)Cc1cccc(CNc2cc3ccccc3nc2NC(=O)c2ccc([S-])c(F)c2)c1

>  <scaffold>  (815) 
O=C(Nc1nc2ccccc2cc1NCc1ccccc1)c1ccccc1

>  <molecular_formula>  (815) 
C26H25FN4OS

$$$$
ATP-HTVS-818D9CFDFCEA
     RDKit          3D

 56 59  0  0  0  0  0  0  0  0999 V2000
  196.2487  181.3243  151.1533 O   0  0  0  0  0  0  0  0  0  0  0  0
  197.0886  180.4212  151.1845 C   0  0  0  0  0  0  0  0  0  0  0  0
  197.8033  180.0429  152.2622 N   0  0  0  0  0  0  0  0  0  0  0  0
  197.9241  180.6655  153.5322 C   0  0  0  0  0  0  0  0  0  0  0  0
  197.2509  181.7986  153.8277 N   0  0  0  0  0  0  0  0  0  0  0  0
  197.4084  182.3742  155.0312 C   0  0  0  0  0  0  0  0  0  0  0  0
  198.2516  181.8653  156.0388 C   0  0  0  0  0  0  0  0  0  0  0  0
  198.3508  182.5587  157.2631 N   0  0  0  0  0  0  0  0  0  0  0  0
  199.5772  182.8987  157.7144 C   0  0  0  0  0  0  0  0  0  0  0  0
  200.6311  183.1455  158.1255 N   0  0  0  0  0  0  0  0  0  0  0  0
  197.1999  182.9041  158.0069 C   0  0  0  0  0  0  0  0  0  0  0  0
  197.2546  183.9368  158.9748 C   0  0  0  0  0  0  0  0  0  0  0  0
  196.1104  184.3001  159.7118 C   0  0  0  0  0  0  0  0  0  0  0  0
  194.8895  183.6393  159.4871 C   0  0  0  0  0  0  0  0  0  0  0  0
  194.8184  182.6039  158.5359 C   0  0  0  0  0  0  0  0  0  0  0  0
  195.9666  182.2371  157.8113 C   0  0  0  0  0  0  0  0  0  0  0  0
  198.9626  180.6671  155.7552 C   0  0  0  0  0  0  0  0  0  0  0  0
  198.8065  180.0608  154.4741 C   0  0  0  0  0  0  0  0  0  0  0  0
  199.5379  178.8772  154.1754 C   0  0  0  0  0  0  0  0  0  0  0  0
  200.4010  178.3024  155.1263 C   0  0  0  0  0  0  0  0  0  0  0  0
  200.5421  178.8942  156.3909 C   0  0  0  0  0  0  0  0  0  0  0  0
  199.8239  180.0623  156.7015 C   0  0  0  0  0  0  0  0  0  0  0  0
  197.3767  179.6134  149.9559 C   0  0  0  0  0  0  0  0  0  0  0  0
  196.3470  179.3480  149.0273 C   0  0  0  0  0  0  0  0  0  0  0  0
  196.6255  178.6237  147.8499 C   0  0  0  0  0  0  0  0  0  0  0  0
  197.9386  178.1691  147.5832 C   0  0  0  0  0  0  0  0  0  0  0  0
  198.9561  178.4060  148.5299 C   0  0  0  0  0  0  0  0  0  0  0  0
  198.6882  179.1590  149.6884 C   0  0  0  0  0  0  0  0  0  0  0  0
  198.2627  177.4409  146.2828 C   0  0  1  0  0  0  0  0  0  0  0  0
  198.9790  178.2690  145.2731 N   0  0  2  0  0  0  0  0  0  0  0  0
  200.3380  178.7075  145.6769 C   0  0  2  0  0  0  0  0  0  0  0  0
  198.1654  179.3962  144.7705 C   0  0  2  0  0  0  0  0  0  0  0  0
  198.3860  179.2311  152.1296 H   0  0  0  0  0  0  0  0  0  0  0  0
  196.8336  183.2783  155.1803 H   0  0  0  0  0  0  0  0  0  0  0  0
  198.1766  184.4716  159.1551 H   0  0  0  0  0  0  0  0  0  0  0  0
  196.1735  185.0875  160.4492 H   0  0  0  0  0  0  0  0  0  0  0  0
  194.0090  183.9129  160.0523 H   0  0  0  0  0  0  0  0  0  0  0  0
  193.8883  182.0806  158.3597 H   0  0  0  0  0  0  0  0  0  0  0  0
  195.8716  181.4301  157.1016 H   0  0  0  0  0  0  0  0  0  0  0  0
  199.4627  178.3799  153.2210 H   0  0  0  0  0  0  0  0  0  0  0  0
  200.9474  177.3968  154.8993 H   0  0  0  0  0  0  0  0  0  0  0  0
  201.1917  178.4529  157.1342 H   0  0  0  0  0  0  0  0  0  0  0  0
  199.9449  180.4664  157.6936 H   0  0  0  0  0  0  0  0  0  0  0  0
  195.3486  179.7108  149.2179 H   0  0  0  0  0  0  0  0  0  0  0  0
  195.8258  178.4342  147.1481 H   0  0  0  0  0  0  0  0  0  0  0  0
  199.9604  178.0511  148.3625 H   0  0  0  0  0  0  0  0  0  0  0  0
  199.5121  179.3928  150.3502 H   0  0  0  0  0  0  0  0  0  0  0  0
  198.8576  176.5556  146.5315 H   0  0  0  0  0  0  0  0  0  0  0  0
  197.3300  177.0715  145.8482 H   0  0  0  0  0  0  0  0  0  0  0  0
  200.3029  179.3916  146.5309 H   0  0  0  0  0  0  0  0  0  0  0  0
  200.8454  179.2304  144.8597 H   0  0  0  0  0  0  0  0  0  0  0  0
  200.9467  177.8442  145.9489 H   0  0  0  0  0  0  0  0  0  0  0  0
  197.9491  180.1082  145.5687 H   0  0  0  0  0  0  0  0  0  0  0  0
  197.2181  179.0436  144.3585 H   0  0  0  0  0  0  0  0  0  0  0  0
  198.6918  179.9298  143.9788 H   0  0  0  0  0  0  0  0  0  0  0  0
  199.1194  177.6733  144.4583 H   0  0  0  0  0  0  0  0  0  0  0  0
  1  2  2  0
  2  3  1  0
  2 23  1  0
  3  4  1  0
  3 33  1  0
  4  5  1  0
  4 18  2  0
  5  6  2  0
  6  7  1  0
  6 34  1  0
  7  8  1  0
  7 17  2  0
  8  9  1  0
  8 11  1  0
  9 10  3  0
 11 12  2  0
 11 16  1  0
 12 13  1  0
 12 35  1  0
 13 14  2  0
 13 36  1  0
 14 15  1  0
 14 37  1  0
 15 16  2  0
 15 38  1  0
 16 39  1  0
 17 18  1  0
 17 22  1  0
 18 19  1  0
 19 20  2  0
 19 40  1  0
 20 21  1  0
 20 41  1  0
 21 22  2  0
 21 42  1  0
 22 43  1  0
 23 24  1  0
 23 28  2  0
 24 25  2  0
 24 44  1  0
 25 26  1  0
 25 45  1  0
 26 27  2  0
 26 29  1  0
 27 28  1  0
 27 46  1  0
 28 47  1  0
 29 30  1  0
 29 48  1  1
 29 49  1  0
 30 31  1  0
 30 32  1  0
 30 56  1  6
 31 50  1  1
 31 51  1  0
 31 52  1  0
 32 53  1  1
 32 54  1  0
 32 55  1  0
M  CHG  1  30   1
M  END
>  <s_epik_cmdline>  (816) 
J2VwaWtfcHl0aG9uJywgJy1waCcsICc3LjAwMDAwMCcsICctcGh0JywgJzIuMDAwMDAwJywgJy1tcycsICcxNicsICctdG4nLCAnOCcsICctbWEnLCAnMjAwJywgJy1pbWFlJywgJzxpbmZpbGUubWFlPicsICctb21hZScsICc8b3V0ZmlsZS5tYWU+Jw==

>  <s_epik_input>  (816) 
W0NIM11OKFtDSDNdKVtDSDJdYyhbY0hdW2NIXTEpW2NIXVtjSF1jMUMoPU8pW05IXWMoYyhjMjMpW2NIXVtjSF1bY0hdW2NIXTMpbltjSF1jMk4oQyNOKWM0W2NIXVtjSF1bY0hdW2NIXVtjSF00

>  <s_i_glide_gridfile>  (816) 
ATP-Grid

>  <s_lp_Force_Field>  (816) 
OPLS_2005

>  <s_lp_Variant>  (816) 
rxn502b____EMOL18624763____EMOL7515103____EMOL36822768-1

>  <s_lp_label>  (816) 
2230_sdstereoexpander_1_neutralizer_1_epik_1_stereoizer_1

>  <s_m_source_file>  (816) 
ATP-VSW-LIGPREP-002-in.maegz

>  <s_sd_BIOSOLVEIT.INFINISEE\_QUERY\_NAME>  (816) 
Ref-Lig

>  <s_sd_BIOSOLVEIT.INFINISEE\_QUERY\_SMILES>  (816) 
S(c1nc2c(cc1C[NH2+]Cc3ccc(cc3)C[NH+](C)C)cccc2)Cc4ccccc4

>  <s_sd_BIOSOLVEIT.INFINISEE\_REACTION\_NAME>  (816) 
rxn502b

>  <s_sd_BIOSOLVEIT.INFINISEE\_REAGENT1\_NAME>  (816) 
EMOL18624763

>  <s_sd_BIOSOLVEIT.INFINISEE\_REAGENT1\_SMILES>  (816) 
O=C(O)c1ccc(cc1)CN(C)C

>  <s_sd_BIOSOLVEIT.INFINISEE\_REAGENT2\_NAME>  (816) 
EMOL7515103

>  <s_sd_BIOSOLVEIT.INFINISEE\_REAGENT2\_SMILES>  (816) 
Brc1c2c(c(nc1)N)cccc2

>  <s_sd_BIOSOLVEIT.INFINISEE\_REAGENT3\_NAME>  (816) 
EMOL36822768

>  <s_sd_BIOSOLVEIT.INFINISEE\_REAGENT3\_SMILES>  (816) 
N#CNc1ccccc1

>  <s_sd_BIOSOLVEIT.INFINISEE\_SPACE>  (816) 
eXplore_7tr_2022-12

>  <s_vsw_compound_code>  (816) 
71330

>  <s_vsw_variant>  (816) 
71330-1

>  <r_epik_Charging_Adjusted_Penalty>  (816) 
0.10433640840748

>  <r_epik_Ionization_Penalty>  (816) 
0.052200000000000003

>  <r_epik_Ionization_Penalty_Charging>  (816) 
0.052200000000000003

>  <r_epik_Ionization_Penalty_Neutral>  (816) 
0

>  <r_epik_State_Penalty>  (816) 
0.052200000000000003

>  <r_i_docking_score>  (816) 
-3.8198111805255901

>  <r_i_glide_ecoul>  (816) 
-3.5587472915649401

>  <r_i_glide_eff_state_penalty>  (816) 
0.052200000000000003

>  <r_i_glide_einternal>  (816) 
2.2355144023895299

>  <r_i_glide_emodel>  (816) 
-51.2893480195442

>  <r_i_glide_energy>  (816) 
-39.400086402893102

>  <r_i_glide_erotb>  (816) 
0.66588807981442899

>  <r_i_glide_esite>  (816) 
-0.100730041281786

>  <r_i_glide_evdw>  (816) 
-35.841339111328097

>  <r_i_glide_gscore>  (816) 
-3.8720111805255901

>  <r_i_glide_hbond>  (816) 
-0.20000000000000001

>  <r_i_glide_ligand_efficiency>  (816) 
-0.119369099391425

>  <r_i_glide_ligand_efficiency_ln>  (816) 
-0.85535984743988502

>  <r_i_glide_ligand_efficiency_sa>  (816) 
-0.37897326745508098

>  <r_i_glide_lipo>  (816) 
-1.0502037354587399

>  <r_i_glide_metal>  (816) 
-0

>  <r_i_glide_rewards>  (816) 
-0.86108643429834397

>  <r_lp_Energy>  (816) 
34.466579000000003

>  <r_qp_ACxDN^.5/SA>  (816) 
0.0097169999999999999

>  <r_qp_CIQPlogS>  (816) 
-5.0469999999999997

>  <r_qp_EA(eV)>  (816) 
1.4570000000000001

>  <r_qp_FISA>  (816) 
127.414

>  <r_qp_FOSA>  (816) 
180.21000000000001

>  <r_qp_IP(eV)>  (816) 
8.4870000000000001

>  <r_qp_Jm>  (816) 
0.00074911455458355795

>  <r_qp_PISA>  (816) 
464.22300000000001

>  <r_qp_PSA>  (816) 
78.015000000000001

>  <r_qp_PercentHumanOralAbsorption>  (816) 
89.144000000000005

>  <r_qp_QPPCaco>  (816) 
152.94499999999999

>  <r_qp_QPPMDCK>  (816) 
71.912999999999997

>  <r_qp_QPlogBB>  (816) 
-0.86099999999999999

>  <r_qp_QPlogHERG>  (816) 
-8.0549999999999997

>  <r_qp_QPlogKhsa>  (816) 
0.57199999999999995

>  <r_qp_QPlogKp>  (816) 
-3.6230000000000002

>  <r_qp_QPlogPC16>  (816) 
15.622999999999999

>  <r_qp_QPlogPo/w>  (816) 
3.9449999999999998

>  <r_qp_QPlogPoct>  (816) 
23.364999999999998

>  <r_qp_QPlogPw>  (816) 
12.909000000000001

>  <r_qp_QPlogS>  (816) 
-5.1269999999999998

>  <r_qp_QPpolrz>  (816) 
49.218000000000004

>  <r_qp_SASA>  (816) 
771.84699999999998

>  <r_qp_SAamideO>  (816) 
0

>  <r_qp_SAfluorine>  (816) 
0

>  <r_qp_WPSA>  (816) 
0

>  <r_qp_accptHB>  (816) 
7.5

>  <r_qp_dip^2/V>  (816) 
0.097364000000000006

>  <r_qp_dipole>  (816) 
11.613

>  <r_qp_donorHB>  (816) 
1

>  <r_qp_glob>  (816) 
0.77856669999999994

>  <r_qp_mol_MW>  (816) 
421.50099999999998

>  <r_qp_volume>  (816) 
1385.1369999999999

>  <r_sd_BIOSOLVEIT.INFINISEE\_FTREES\_SIMILARITY>  (816) 
0.92800000000000005

>  <r_sd_BIOSOLVEIT.LOGP>  (816) 
3.7507799999999998

>  <r_sd_BIOSOLVEIT.MOLECULAR\_WEIGHT>  (816) 
422.50999999999999

>  <r_sd_BIOSOLVEIT.TPSA>  (816) 
73.459999999999994

>  <i_epik_Tot_Q>  (816) 
1

>  <i_epik_Tot_abs_Q>  (816) 
1

>  <i_f3d_flags>  (816) 
0

>  <i_i_glide_confnum>  (816) 
6

>  <i_i_glide_lignum>  (816) 
869

>  <i_i_glide_posenum>  (816) 
18

>  <i_i_glide_rotatable_bonds>  (816) 
7

>  <i_lp_mmshare_version>  (816) 
65135

>  <i_m_ct_format>  (816) 
2

>  <i_m_source_file_index>  (816) 
2230

>  <i_qp_#NandO>  (816) 
6

>  <i_qp_#acid>  (816) 
0

>  <i_qp_#amide>  (816) 
0

>  <i_qp_#amidine>  (816) 
0

>  <i_qp_#amine>  (816) 
1

>  <i_qp_#in34>  (816) 
0

>  <i_qp_#in56>  (816) 
22

>  <i_qp_#metab>  (816) 
4

>  <i_qp_#nonHatm>  (816) 
32

>  <i_qp_#noncon>  (816) 
0

>  <i_qp_#ringatoms>  (816) 
22

>  <i_qp_#rotor>  (816) 
7

>  <i_qp_#rtvFG>  (816) 
0

>  <i_qp_#stars>  (816) 
1

>  <i_qp_CNS>  (816) 
0

>  <i_qp_HumanOralAbsorption>  (816) 
3

>  <i_qp_RuleOfFive>  (816) 
0

>  <i_qp_RuleOfThree>  (816) 
0

>  <i_sd_BIOSOLVEIT.INFINISEE\_RESULT\_RANK>  (816) 
5971

>  <i_sd_version>  (816) 
0

>  <b_lp_Chiralities_Consistent>  (816) 
1

>  <b_sd_chiral_flag>  (816) 
0

>  <canonical_id>  (816) 
ATP-HTVS-818D9CFDFCEA

>  <compound_code>  (816) 
71330

>  <title>  (816) 
rxn502b____EMOL18624763____EMOL7515103____EMOL36822768

>  <variant>  (816) 
71330-1

>  <source_file>  (816) 
运行/运行/ATP-VSW/ATP-VSW-DOCK_HTVS_1-002_lib.maegz

>  <canonical_smiles>  (816) 
C[NH+](C)Cc1ccc(C(=O)Nc2ncc(N(C#N)c3ccccc3)c3ccccc23)cc1

>  <scaffold>  (816) 
O=C(Nc1ncc(Nc2ccccc2)c2ccccc12)c1ccccc1

>  <molecular_formula>  (816) 
C26H24N5O+

$$$$
ATP-HTVS-81A5FD53922A
     RDKit          3D

 46 49  0  0  0  0  0  0  0  0999 V2000
  197.3913  179.9991  153.2708 N   0  0  0  0  0  0  0  0  0  0  0  0
  196.9850  181.0464  153.9826 C   0  0  0  0  0  0  0  0  0  0  0  0
  196.7677  182.2720  153.5092 N   0  0  0  0  0  0  0  0  0  0  0  0
  196.9737  182.4985  152.1966 C   0  0  0  0  0  0  0  0  0  0  0  0
  197.4336  181.4609  151.3474 C   0  0  0  0  0  0  0  0  0  0  0  0
  197.6296  180.1882  151.9503 C   0  0  0  0  0  0  0  0  0  0  0  0
  198.0955  178.9874  151.2282 C   0  0  0  0  0  0  0  0  0  0  0  0
  199.1451  178.1916  151.7427 C   0  0  0  0  0  0  0  0  0  0  0  0
  199.5936  177.0471  151.0528 C   0  0  0  0  0  0  0  0  0  0  0  0
  199.0015  176.6854  149.8306 C   0  0  0  0  0  0  0  0  0  0  0  0
  197.9569  177.4674  149.3032 C   0  0  0  0  0  0  0  0  0  0  0  0
  197.5024  178.6012  150.0055 C   0  0  0  0  0  0  0  0  0  0  0  0
  197.6958  181.7279  149.9806 C   0  0  0  0  0  0  0  0  0  0  0  0
  197.4523  183.0085  149.4505 C   0  0  0  0  0  0  0  0  0  0  0  0
  196.9794  184.0397  150.2842 C   0  0  0  0  0  0  0  0  0  0  0  0
  196.7504  183.7816  151.6504 C   0  0  0  0  0  0  0  0  0  0  0  0
  196.7909  180.8220  155.3295 N   0  0  0  0  0  0  0  0  0  0  0  0
  196.1889  181.7735  156.2556 C   0  0  1  0  0  0  0  0  0  0  0  0
  197.0407  181.9518  157.5183 C   0  0  1  0  0  0  0  0  0  0  0  0
  196.5270  183.0734  158.4073 C   0  0  0  0  0  0  0  0  0  0  0  0
  197.4305  184.0199  158.9336 C   0  0  0  0  0  0  0  0  0  0  0  0
  196.9600  185.0755  159.7373 C   0  0  0  0  0  0  0  0  0  0  0  0
  195.5871  185.1807  160.0346 C   0  0  0  0  0  0  0  0  0  0  0  0
  195.1238  186.2099  160.8547 N   0  0  0  0  0  0  0  0  0  0  0  0
  194.6824  184.2411  159.5029 C   0  0  0  0  0  0  0  0  0  0  0  0
  195.1499  183.1852  158.6985 C   0  0  0  0  0  0  0  0  0  0  0  0
  199.6147  178.4617  152.6831 H   0  0  0  0  0  0  0  0  0  0  0  0
  200.3991  176.4529  151.4616 H   0  0  0  0  0  0  0  0  0  0  0  0
  199.3461  175.8150  149.2924 H   0  0  0  0  0  0  0  0  0  0  0  0
  197.4948  177.2000  148.3648 H   0  0  0  0  0  0  0  0  0  0  0  0
  196.6732  179.1709  149.6048 H   0  0  0  0  0  0  0  0  0  0  0  0
  198.0905  180.9775  149.3145 H   0  0  0  0  0  0  0  0  0  0  0  0
  197.6389  183.1937  148.4021 H   0  0  0  0  0  0  0  0  0  0  0  0
  196.8122  185.0262  149.8692 H   0  0  0  0  0  0  0  0  0  0  0  0
  196.4015  184.5672  152.3062 H   0  0  0  0  0  0  0  0  0  0  0  0
  196.9005  179.8705  155.6564 H   0  0  0  0  0  0  0  0  0  0  0  0
  196.0452  182.7486  155.7939 H   0  0  0  0  0  0  0  0  0  0  0  0
  195.1964  181.4068  156.5191 H   0  0  0  0  0  0  0  0  0  0  0  0
  197.0605  181.0349  158.1033 H   0  0  0  0  0  0  0  0  0  0  0  0
  198.0735  182.1598  157.2264 H   0  0  0  0  0  0  0  0  0  0  0  0
  198.4877  183.9379  158.7209 H   0  0  0  0  0  0  0  0  0  0  0  0
  197.6635  185.7913  160.1343 H   0  0  0  0  0  0  0  0  0  0  0  0
  194.1337  186.3976  160.9133 H   0  0  0  0  0  0  0  0  0  0  0  0
  195.7290  186.9829  161.0920 H   0  0  0  0  0  0  0  0  0  0  0  0
  193.6235  184.3221  159.7009 H   0  0  0  0  0  0  0  0  0  0  0  0
  194.4423  182.4695  158.3055 H   0  0  0  0  0  0  0  0  0  0  0  0
  1  2  2  0
  1  6  1  0
  2  3  1  0
  2 17  1  0
  3  4  2  0
  4  5  1  0
  4 16  1  0
  5  6  2  0
  5 13  1  0
  6  7  1  0
  7  8  2  0
  7 12  1  0
  8  9  1  0
  8 27  1  0
  9 10  2  0
  9 28  1  0
 10 11  1  0
 10 29  1  0
 11 12  2  0
 11 30  1  0
 12 31  1  0
 13 14  2  0
 13 32  1  0
 14 15  1  0
 14 33  1  0
 15 16  2  0
 15 34  1  0
 16 35  1  0
 17 18  1  0
 17 36  1  0
 18 19  1  0
 18 37  1  6
 18 38  1  0
 19 20  1  0
 19 39  1  1
 19 40  1  0
 20 21  1  0
 20 26  2  0
 21 22  2  0
 21 41  1  0
 22 23  1  0
 22 42  1  0
 23 24  1  0
 23 25  2  0
 24 43  1  0
 24 44  1  0
 25 26  1  0
 25 45  1  0
 26 46  1  0
M  END
>  <s_epik_cmdline>  (817) 
J2VwaWtfcHl0aG9uJywgJy1waCcsICc3LjAwMDAwMCcsICctcGh0JywgJzIuMDAwMDAwJywgJy1tcycsICcxNicsICctdG4nLCAnOCcsICctbWEnLCAnMjAwJywgJy1pbWFlJywgJzxpbmZpbGUubWFlPicsICctb21hZScsICc8b3V0ZmlsZS5tYWU+Jw==

>  <s_epik_input>  (817) 
W2NIXTFbY0hdW2NIXVtjSF1bY0hdYzEtYyhjKGMyMylbY0hdW2NIXVtjSF1bY0hdMyluYyhuMilbTkhdW0NIMl1bQ0gyXWM0W2NIXVtjSF1jKFtOSDJdKVtjSF1bY0hdNA==

>  <s_i_glide_gridfile>  (817) 
ATP-Grid

>  <s_lp_Force_Field>  (817) 
OPLS_2005

>  <s_lp_Variant>  (817) 
m_270166bbb____16815466____16818434-1

>  <s_lp_label>  (817) 
1265_sdstereoexpander_1_neutralizer_1_epik_1_stereoizer_1

>  <s_m_source_file>  (817) 
ATP-VSW-LIGPREP-002-in.maegz

>  <s_sd_BIOSOLVEIT.INFINISEE\_QUERY\_NAME>  (817) 
Ref-Lig

>  <s_sd_BIOSOLVEIT.INFINISEE\_QUERY\_SMILES>  (817) 
S(c1nc2c(cc1C[NH2+]Cc3ccc(cc3)C[NH+](C)C)cccc2)Cc4ccccc4

>  <s_sd_BIOSOLVEIT.INFINISEE\_REACTION\_NAME>  (817) 
m_270166bbb

>  <s_sd_BIOSOLVEIT.INFINISEE\_REAGENT1\_SMILES>  (817) 
[R1*]NCCc1ccc(N)cc1

>  <s_sd_BIOSOLVEIT.INFINISEE\_REAGENT2\_SMILES>  (817) 
[R1*]c1nc(c2c(n1)cccc2)c3ccccc3

>  <s_sd_BIOSOLVEIT.INFINISEE\_SPACE>  (817) 
REALSpace_44bn_2023-08

>  <s_vsw_compound_code>  (817) 
40450

>  <s_vsw_variant>  (817) 
40450-1

>  <r_epik_Charging_Adjusted_Penalty>  (817) 
0.0159682852287934

>  <r_epik_Ionization_Penalty>  (817) 
0.016299999999999999

>  <r_epik_Ionization_Penalty_Charging>  (817) 
0

>  <r_epik_Ionization_Penalty_Neutral>  (817) 
0.016299999999999999

>  <r_epik_State_Penalty>  (817) 
0.016

>  <r_i_docking_score>  (817) 
-4.1439906296797497

>  <r_i_glide_ecoul>  (817) 
-2.1337556838989298

>  <r_i_glide_eff_state_penalty>  (817) 
0.016

>  <r_i_glide_einternal>  (817) 
1.9847260713577299

>  <r_i_glide_emodel>  (817) 
-47.092693668722298

>  <r_i_glide_energy>  (817) 
-38.160038948059103

>  <r_i_glide_erotb>  (817) 
0.81705581814603501

>  <r_i_glide_esite>  (817) 
-0.098395870198718594

>  <r_i_glide_evdw>  (817) 
-36.026283264160199

>  <r_i_glide_gscore>  (817) 
-4.1599906296797498

>  <r_i_glide_hbond>  (817) 
0

>  <r_i_glide_ligand_efficiency>  (817) 
-0.15938425498768299

>  <r_i_glide_ligand_efficiency_ln>  (817) 
-0.97320260183796703

>  <r_i_glide_ligand_efficiency_sa>  (817) 
-0.47217522825425001

>  <r_i_glide_lipo>  (817) 
-1.66923442547058

>  <r_i_glide_metal>  (817) 
-0

>  <r_i_glide_rewards>  (817) 
-1.0880386363636301

>  <r_lp_Energy>  (817) 
12.93749

>  <r_qp_ACxDN^.5/SA>  (817) 
0.0083496999999999998

>  <r_qp_CIQPlogS>  (817) 
-5.8810000000000002

>  <r_qp_EA(eV)>  (817) 
0.89500000000000002

>  <r_qp_FISA>  (817) 
96.972999999999999

>  <r_qp_FOSA>  (817) 
67.992000000000004

>  <r_qp_IP(eV)>  (817) 
7.9829999999999997

>  <r_qp_Jm>  (817) 
0.0571431642665155

>  <r_qp_PISA>  (817) 
497.81200000000001

>  <r_qp_PSA>  (817) 
60.478000000000002

>  <r_qp_PercentHumanOralAbsorption>  (817) 
100

>  <r_qp_QPPCaco>  (817) 
1192.085

>  <r_qp_QPPMDCK>  (817) 
598.17600000000004

>  <r_qp_QPlogBB>  (817) 
-0.80200000000000005

>  <r_qp_QPlogHERG>  (817) 
-7.1029999999999998

>  <r_qp_QPlogKhsa>  (817) 
0.67500000000000004

>  <r_qp_QPlogKp>  (817) 
-0.97699999999999998

>  <r_qp_QPlogPC16>  (817) 
13.693

>  <r_qp_QPlogPo/w>  (817) 
4.6459999999999999

>  <r_qp_QPlogPoct>  (817) 
19.126999999999999

>  <r_qp_QPlogPw>  (817) 
11.145

>  <r_qp_QPlogS>  (817) 
-5.798

>  <r_qp_QPpolrz>  (817) 
40.896999999999998

>  <r_qp_SASA>  (817) 
662.77700000000004

>  <r_qp_SAamideO>  (817) 
0

>  <r_qp_SAfluorine>  (817) 
0

>  <r_qp_WPSA>  (817) 
0

>  <r_qp_accptHB>  (817) 
3.5

>  <r_qp_dip^2/V>  (817) 
0.00074010000000000005

>  <r_qp_dipole>  (817) 
0.92400000000000004

>  <r_qp_donorHB>  (817) 
2.5

>  <r_qp_glob>  (817) 
0.80239640000000001

>  <r_qp_mol_MW>  (817) 
340.42700000000002

>  <r_qp_volume>  (817) 
1153.152

>  <r_sd_BIOSOLVEIT.INFINISEE\_FTREES\_SIMILARITY>  (817) 
0.91000000000000003

>  <r_sd_BIOSOLVEIT.LOGP>  (817) 
4.5335999999999999

>  <r_sd_BIOSOLVEIT.MOLECULAR\_WEIGHT>  (817) 
340.428

>  <r_sd_BIOSOLVEIT.TPSA>  (817) 
63.829999999999998

>  <i_epik_Tot_Q>  (817) 
0

>  <i_epik_Tot_abs_Q>  (817) 
0

>  <i_f3d_flags>  (817) 
0

>  <i_i_glide_confnum>  (817) 
6

>  <i_i_glide_lignum>  (817) 
438

>  <i_i_glide_posenum>  (817) 
4

>  <i_i_glide_rotatable_bonds>  (817) 
5

>  <i_lp_mmshare_version>  (817) 
65135

>  <i_m_ct_format>  (817) 
2

>  <i_m_source_file_index>  (817) 
1265

>  <i_qp_#NandO>  (817) 
4

>  <i_qp_#acid>  (817) 
0

>  <i_qp_#amide>  (817) 
0

>  <i_qp_#amidine>  (817) 
0

>  <i_qp_#amine>  (817) 
0

>  <i_qp_#in34>  (817) 
0

>  <i_qp_#in56>  (817) 
22

>  <i_qp_#metab>  (817) 
3

>  <i_qp_#nonHatm>  (817) 
26

>  <i_qp_#noncon>  (817) 
0

>  <i_qp_#ringatoms>  (817) 
22

>  <i_qp_#rotor>  (817) 
6

>  <i_qp_#rtvFG>  (817) 
0

>  <i_qp_#stars>  (817) 
2

>  <i_qp_CNS>  (817) 
-1

>  <i_qp_HumanOralAbsorption>  (817) 
3

>  <i_qp_RuleOfFive>  (817) 
0

>  <i_qp_RuleOfThree>  (817) 
1

>  <i_sd_BIOSOLVEIT.INFINISEE\_REAGENT1\_NAME>  (817) 
16815466

>  <i_sd_BIOSOLVEIT.INFINISEE\_REAGENT2\_NAME>  (817) 
16818434

>  <i_sd_BIOSOLVEIT.INFINISEE\_RESULT\_RANK>  (817) 
44481

>  <i_sd_version>  (817) 
0

>  <b_lp_Chiralities_Consistent>  (817) 
1

>  <b_sd_chiral_flag>  (817) 
0

>  <canonical_id>  (817) 
ATP-HTVS-81A5FD53922A

>  <compound_code>  (817) 
40450

>  <title>  (817) 
m_270166bbb____16815466____16818434

>  <variant>  (817) 
40450-1

>  <source_file>  (817) 
运行/运行/ATP-VSW/ATP-VSW-DOCK_HTVS_1-002_lib.maegz

>  <canonical_smiles>  (817) 
Nc1ccc(CCNc2nc(-c3ccccc3)c3ccccc3n2)cc1

>  <scaffold>  (817) 
c1ccc(CCNc2nc(-c3ccccc3)c3ccccc3n2)cc1

>  <molecular_formula>  (817) 
C22H20N4

$$$$
ATP-HTVS-81EE647F8CA6
     RDKit          3D

 46 48  0  0  0  0  0  0  0  0999 V2000
  197.0604  191.0452  161.3507 S   0  0  0  0  0  0  0  0  0  0  0  0
  196.7518  189.4116  160.8100 C   0  0  0  0  0  0  0  0  0  0  0  0
  195.5673  188.9726  161.2147 N   0  0  0  0  0  0  0  0  0  0  0  0
  194.8286  189.8610  161.9852 C   0  0  0  0  0  0  0  0  0  0  0  0
  193.5089  189.4589  162.5134 C   0  0  0  0  0  0  0  0  0  0  0  0
  193.1068  188.1038  162.7116 C   0  0  0  0  0  0  0  0  0  0  0  0
  193.9367  187.0509  162.4539 O   0  0  0  0  0  0  0  0  0  0  0  0
  191.8244  187.8019  163.2106 C   0  0  0  0  0  0  0  0  0  0  0  0
  190.9322  188.8406  163.5220 C   0  0  0  0  0  0  0  0  0  0  0  0
  191.3176  190.1774  163.3456 C   0  0  0  0  0  0  0  0  0  0  0  0
  192.5947  190.4804  162.8396 C   0  0  0  0  0  0  0  0  0  0  0  0
  195.5107  191.0468  162.1621 C   0  0  0  0  0  0  0  0  0  0  0  0
  197.6394  188.7152  160.0070 N   0  0  0  0  0  0  0  0  0  0  0  0
  197.5136  188.0285  158.7274 C   0  0  1  0  0  0  0  0  0  0  0  0
  197.0029  186.5872  158.7262 C   0  0  0  0  0  0  0  0  0  0  0  0
  197.3388  185.7160  157.6640 C   0  0  0  0  0  0  0  0  0  0  0  0
  196.8557  184.3808  157.6560 C   0  0  0  0  0  0  0  0  0  0  0  0
  196.0260  183.9125  158.6982 C   0  0  0  0  0  0  0  0  0  0  0  0
  195.7163  184.7811  159.7644 C   0  0  0  0  0  0  0  0  0  0  0  0
  196.1851  186.0884  159.7675 C   0  0  0  0  0  0  0  0  0  0  0  0
  195.4012  182.5230  158.6823 C   0  0  1  0  0  0  0  0  0  0  0  0
  194.0110  182.4926  158.1371 N   0  0  1  0  0  0  0  0  0  0  0  0
  193.3718  181.1694  158.2785 C   0  0  2  0  0  0  0  0  0  0  0  0
  193.1086  183.5762  158.5844 C   0  0  2  0  0  0  0  0  0  0  0  0
  194.7300  187.3712  162.0336 H   0  0  0  0  0  0  0  0  0  0  0  0
  191.5209  186.7699  163.3544 H   0  0  0  0  0  0  0  0  0  0  0  0
  189.9471  188.6159  163.8956 H   0  0  0  0  0  0  0  0  0  0  0  0
  190.6330  190.9763  163.5853 H   0  0  0  0  0  0  0  0  0  0  0  0
  192.8594  191.5122  162.6939 H   0  0  0  0  0  0  0  0  0  0  0  0
  195.2064  191.9088  162.7371 H   0  0  0  0  0  0  0  0  0  0  0  0
  198.5864  188.7447  160.3822 H   0  0  0  0  0  0  0  0  0  0  0  0
  196.8873  188.6328  158.0659 H   0  0  0  0  0  0  0  0  0  0  0  0
  198.4964  188.0165  158.2657 H   0  0  0  0  0  0  0  0  0  0  0  0
  197.9596  186.0622  156.8533 H   0  0  0  0  0  0  0  0  0  0  0  0
  197.0939  183.7271  156.8190 H   0  0  0  0  0  0  0  0  0  0  0  0
  195.0617  184.4888  160.5626 H   0  0  0  0  0  0  0  0  0  0  0  0
  195.8625  186.6853  160.5969 H   0  0  0  0  0  0  0  0  0  0  0  0
  196.0502  181.8526  158.1087 H   0  0  0  0  0  0  0  0  0  0  0  0
  195.4053  182.1407  159.7125 H   0  0  0  0  0  0  0  0  0  0  0  0
  193.3024  180.8932  159.3318 H   0  0  0  0  0  0  0  0  0  0  0  0
  193.9256  180.3924  157.7548 H   0  0  0  0  0  0  0  0  0  0  0  0
  192.3700  181.1785  157.8524 H   0  0  0  0  0  0  0  0  0  0  0  0
  192.9981  183.5843  159.6706 H   0  0  0  0  0  0  0  0  0  0  0  0
  192.1309  183.4317  158.1331 H   0  0  0  0  0  0  0  0  0  0  0  0
  193.4561  184.5729  158.2973 H   0  0  0  0  0  0  0  0  0  0  0  0
  194.0513  182.6380  157.1138 H   0  0  0  0  0  0  0  0  0  0  0  0
  1  2  1  0
  1 12  1  0
  2  3  2  0
  2 13  1  0
  3  4  1  0
  4  5  1  0
  4 12  2  0
  5  6  1  0
  5 11  2  0
  6  7  1  0
  6  8  2  0
  7 25  1  0
  8  9  1  0
  8 26  1  0
  9 10  2  0
  9 27  1  0
 10 11  1  0
 10 28  1  0
 11 29  1  0
 12 30  1  0
 13 14  1  0
 13 31  1  0
 14 15  1  0
 14 32  1  6
 14 33  1  0
 15 16  1  0
 15 20  2  0
 16 17  2  0
 16 34  1  0
 17 18  1  0
 17 35  1  0
 18 19  2  0
 18 21  1  0
 19 20  1  0
 19 36  1  0
 20 37  1  0
 21 22  1  0
 21 38  1  6
 21 39  1  0
 22 23  1  0
 22 24  1  0
 22 46  1  6
 23 40  1  1
 23 41  1  0
 23 42  1  0
 24 43  1  1
 24 44  1  0
 24 45  1  0
M  CHG  1  22   1
M  END
>  <s_epik_cmdline>  (818) 
J2VwaWtfcHl0aG9uJywgJy1waCcsICc3LjAwMDAwMCcsICctcGh0JywgJzIuMDAwMDAwJywgJy1tcycsICcxNicsICctdG4nLCAnOCcsICctbWEnLCAnMjAwJywgJy1pbWFlJywgJzxpbmZpbGUubWFlPicsICctb21hZScsICc8b3V0ZmlsZS5tYWU+Jw==

>  <s_epik_input>  (818) 
W2NIXTFbY0hdW2NIXVtjSF1jKFtPSF0pYzEtYyhuMilbY0hdc2MyW05IXVtDSDJdYzNbY0hdW2NIXWMoW2NIXVtjSF0zKVtDSDJdTihbQ0gzXSlbQ0gzXQ==

>  <s_i_glide_gridfile>  (818) 
ATP-Grid

>  <s_lp_Force_Field>  (818) 
OPLS_2005

>  <s_lp_Variant>  (818) 
WXDL_15E____QS5063____LN00171853____BT1646-1

>  <s_lp_label>  (818) 
636_sdstereoexpander_1_neutralizer_1_epik_1_stereoizer_1

>  <s_m_source_file>  (818) 
ATP-VSW-LIGPREP-002-in.maegz

>  <s_sd_BIOSOLVEIT.INFINISEE\_QUERY\_NAME>  (818) 
Ref-Lig

>  <s_sd_BIOSOLVEIT.INFINISEE\_QUERY\_SMILES>  (818) 
S(c1nc2c(cc1C[NH2+]Cc3ccc(cc3)C[NH+](C)C)cccc2)Cc4ccccc4

>  <s_sd_BIOSOLVEIT.INFINISEE\_REACTION\_NAME>  (818) 
WXDL_15E

>  <s_sd_BIOSOLVEIT.INFINISEE\_REAGENT1\_NAME>  (818) 
QS5063

>  <s_sd_BIOSOLVEIT.INFINISEE\_REAGENT1\_SMILES>  (818) 
O=Cc1ccc(cc1)CN(C)C

>  <s_sd_BIOSOLVEIT.INFINISEE\_REAGENT2\_NAME>  (818) 
LN00171853

>  <s_sd_BIOSOLVEIT.INFINISEE\_REAGENT2\_SMILES>  (818) 
BrC=1N=C(SC1)NC(=O)OC(C)(C)C

>  <s_sd_BIOSOLVEIT.INFINISEE\_REAGENT3\_NAME>  (818) 
BT1646

>  <s_sd_BIOSOLVEIT.INFINISEE\_REAGENT3\_SMILES>  (818) 
O1C(C(OB1c2c(O)cccc2)(C)C)(C)C

>  <s_sd_BIOSOLVEIT.INFINISEE\_SPACE>  (818) 
GalaXi_12bn_2023-03

>  <s_vsw_compound_code>  (818) 
20322

>  <s_vsw_variant>  (818) 
20322-1

>  <r_epik_Charging_Adjusted_Penalty>  (818) 
0.43545107610838901

>  <r_epik_Ionization_Penalty>  (818) 
0.050700000000000002

>  <r_epik_Ionization_Penalty_Charging>  (818) 
0.041099999999999998

>  <r_epik_Ionization_Penalty_Neutral>  (818) 
0.0095999999999999992

>  <r_epik_State_Penalty>  (818) 
0.39429999999999998

>  <r_i_docking_score>  (818) 
-4.8858445768557104

>  <r_i_glide_ecoul>  (818) 
-10.662545204162599

>  <r_i_glide_eff_state_penalty>  (818) 
0.39429999999999998

>  <r_i_glide_einternal>  (818) 
8.5940265655517596

>  <r_i_glide_emodel>  (818) 
-56.858764263219001

>  <r_i_glide_energy>  (818) 
-41.661541938781703

>  <r_i_glide_erotb>  (818) 
0.81687508301151401

>  <r_i_glide_esite>  (818) 
-0.12578113230252699

>  <r_i_glide_evdw>  (818) 
-30.998996734619102

>  <r_i_glide_gscore>  (818) 
-5.2801445768557098

>  <r_i_glide_hbond>  (818) 
-0.26281316370485802

>  <r_i_glide_ligand_efficiency>  (818) 
-0.20357685736898801

>  <r_i_glide_ligand_efficiency_ln>  (818) 
-1.16940680404034

>  <r_i_glide_ligand_efficiency_sa>  (818) 
-0.58721726950784103

>  <r_i_glide_lipo>  (818) 
-1.47134474650449

>  <r_i_glide_metal>  (818) 
-0

>  <r_i_glide_rewards>  (818) 
-1.0877490000000001

>  <r_lp_Energy>  (818) 
11.631088

>  <r_lp_tautomer_probability>  (818) 
0.999999999997365

>  <r_qp_ACxDN^.5/SA>  (818) 
0.010360899999999999

>  <r_qp_CIQPlogS>  (818) 
-4.1230000000000002

>  <r_qp_EA(eV)>  (818) 
0.312

>  <r_qp_FISA>  (818) 
52.530000000000001

>  <r_qp_FOSA>  (818) 
224.404

>  <r_qp_IP(eV)>  (818) 
8.3309999999999995

>  <r_qp_Jm>  (818) 
0.0248244235344223

>  <r_qp_PISA>  (818) 
318.43400000000003

>  <r_qp_PSA>  (818) 
46.750999999999998

>  <r_qp_PercentHumanOralAbsorption>  (818) 
100

>  <r_qp_QPPCaco>  (818) 
784.62199999999996

>  <r_qp_QPPMDCK>  (818) 
821.51300000000003

>  <r_qp_QPlogBB>  (818) 
0.19800000000000001

>  <r_qp_QPlogHERG>  (818) 
-6.8300000000000001

>  <r_qp_QPlogKhsa>  (818) 
0.46500000000000002

>  <r_qp_QPlogKp>  (818) 
-2.8519999999999999

>  <r_qp_QPlogPC16>  (818) 
12.188000000000001

>  <r_qp_QPlogPo/w>  (818) 
3.9260000000000002

>  <r_qp_QPlogPoct>  (818) 
18.015000000000001

>  <r_qp_QPlogPw>  (818) 
10.106

>  <r_qp_QPlogS>  (818) 
-4.2830000000000004

>  <r_qp_QPpolrz>  (818) 
38.43

>  <r_qp_SASA>  (818) 
648.351

>  <r_qp_SAamideO>  (818) 
0

>  <r_qp_SAfluorine>  (818) 
0

>  <r_qp_WPSA>  (818) 
52.984000000000002

>  <r_qp_accptHB>  (818) 
4.75

>  <r_qp_dip^2/V>  (818) 
0.0023652

>  <r_qp_dipole>  (818) 
1.6379999999999999

>  <r_qp_donorHB>  (818) 
2

>  <r_qp_glob>  (818) 
0.81129530000000005

>  <r_qp_mol_MW>  (818) 
339.45400000000001

>  <r_qp_volume>  (818) 
1134.3219999999999

>  <r_sd_BIOSOLVEIT.INFINISEE\_FTREES\_SIMILARITY>  (818) 
0.90600000000000003

>  <r_sd_BIOSOLVEIT.LOGP>  (818) 
2.7723

>  <r_sd_BIOSOLVEIT.MOLECULAR\_WEIGHT>  (818) 
340.46800000000002

>  <r_sd_BIOSOLVEIT.TPSA>  (818) 
49.590000000000003

>  <i_epik_Tot_Q>  (818) 
1

>  <i_epik_Tot_abs_Q>  (818) 
1

>  <i_f3d_flags>  (818) 
0

>  <i_i_glide_confnum>  (818) 
1

>  <i_i_glide_lignum>  (818) 
187

>  <i_i_glide_posenum>  (818) 
4

>  <i_i_glide_rotatable_bonds>  (818) 
7

>  <i_lp_mmshare_version>  (818) 
65135

>  <i_m_ct_format>  (818) 
2

>  <i_m_source_file_index>  (818) 
636

>  <i_qp_#NandO>  (818) 
4

>  <i_qp_#acid>  (818) 
0

>  <i_qp_#amide>  (818) 
0

>  <i_qp_#amidine>  (818) 
0

>  <i_qp_#amine>  (818) 
1

>  <i_qp_#in34>  (818) 
0

>  <i_qp_#in56>  (818) 
17

>  <i_qp_#metab>  (818) 
5

>  <i_qp_#nonHatm>  (818) 
24

>  <i_qp_#noncon>  (818) 
0

>  <i_qp_#ringatoms>  (818) 
17

>  <i_qp_#rotor>  (818) 
6

>  <i_qp_#rtvFG>  (818) 
0

>  <i_qp_#stars>  (818) 
0

>  <i_qp_CNS>  (818) 
1

>  <i_qp_HumanOralAbsorption>  (818) 
3

>  <i_qp_RuleOfFive>  (818) 
0

>  <i_qp_RuleOfThree>  (818) 
0

>  <i_sd_BIOSOLVEIT.INFINISEE\_RESULT\_RANK>  (818) 
65159

>  <i_sd_version>  (818) 
0

>  <b_lp_Chiralities_Consistent>  (818) 
1

>  <b_sd_chiral_flag>  (818) 
0

>  <canonical_id>  (818) 
ATP-HTVS-81EE647F8CA6

>  <compound_code>  (818) 
20322

>  <title>  (818) 
WXDL_15E____QS5063____LN00171853____BT1646

>  <variant>  (818) 
20322-1

>  <source_file>  (818) 
运行/运行/ATP-VSW/ATP-VSW-DOCK_HTVS_1-002_lib.maegz

>  <canonical_smiles>  (818) 
C[NH+](C)Cc1ccc(CNc2nc(-c3ccccc3O)cs2)cc1

>  <scaffold>  (818) 
c1ccc(CNc2nc(-c3ccccc3)cs2)cc1

>  <molecular_formula>  (818) 
C19H22N3OS+

$$$$
ATP-HTVS-81F0F4B0A07A
     RDKit          3D

 61 63  0  0  0  0  0  0  0  0999 V2000
  197.6600  180.3706  149.5489 O   0  0  0  0  0  0  0  0  0  0  0  0
  197.3813  180.4459  150.8937 C   0  0  0  0  0  0  0  0  0  0  0  0
  196.7643  181.6344  151.3372 C   0  0  0  0  0  0  0  0  0  0  0  0
  196.4753  181.8331  152.7008 C   0  0  0  0  0  0  0  0  0  0  0  0
  196.8061  180.8308  153.6399 C   0  0  0  0  0  0  0  0  0  0  0  0
  197.4194  179.6402  153.2030 C   0  0  0  0  0  0  0  0  0  0  0  0
  197.6888  179.4355  151.8391 C   0  0  0  0  0  0  0  0  0  0  0  0
  196.5054  181.0267  155.1106 C   0  0  1  0  0  0  0  0  0  0  0  0
  197.5743  181.8124  155.7494 N   0  0  1  0  0  0  0  0  0  0  0  0
  197.2277  182.3270  157.0854 C   0  0  1  0  0  0  0  0  0  0  0  0
  198.2625  183.3271  157.5428 C   0  0  0  0  0  0  0  0  0  0  0  0
  198.1940  184.7500  157.4810 C   0  0  0  0  0  0  0  0  0  0  0  0
  197.1827  185.5004  156.9252 O   0  0  0  0  0  0  0  0  0  0  0  0
  197.0439  186.8557  157.3592 C   0  0  1  0  0  0  0  0  0  0  0  0
  196.4617  186.9868  158.7584 C   0  0  0  0  0  0  0  0  0  0  0  0
  196.8004  188.0970  159.5644 C   0  0  0  0  0  0  0  0  0  0  0  0
  196.2466  188.2363  160.8503 C   0  0  0  0  0  0  0  0  0  0  0  0
  195.3365  187.2751  161.3336 C   0  0  0  0  0  0  0  0  0  0  0  0
  194.9947  186.1689  160.5346 C   0  0  0  0  0  0  0  0  0  0  0  0
  195.5578  186.0216  159.2537 C   0  0  0  0  0  0  0  0  0  0  0  0
  199.2689  185.3378  157.9916 N   0  0  0  0  0  0  0  0  0  0  0  0
  200.0543  184.3218  158.3922 N   0  0  0  0  0  0  0  0  0  0  0  0
  199.4782  183.0996  158.1300 C   0  0  0  0  0  0  0  0  0  0  0  0
  201.3356  184.6074  158.9981 C   0  0  2  0  0  0  0  0  0  0  0  0
  198.3823  179.2665  149.0302 C   0  0  1  0  0  0  0  0  0  0  0  0
  197.4031  178.1600  148.5770 C   0  0  1  0  0  0  0  0  0  0  0  0
  198.0646  176.9433  148.0373 N   0  0  2  0  0  0  0  0  0  0  0  0
  198.7066  176.1164  149.0876 C   0  0  2  0  0  0  0  0  0  0  0  0
  198.9684  177.2162  146.8989 C   0  0  2  0  0  0  0  0  0  0  0  0
  198.4015  181.2358  155.8171 H   0  0  0  0  0  0  0  0  0  0  0  0
  196.5160  182.4093  150.6213 H   0  0  0  0  0  0  0  0  0  0  0  0
  195.9956  182.7504  153.0160 H   0  0  0  0  0  0  0  0  0  0  0  0
  197.6850  178.8708  153.9139 H   0  0  0  0  0  0  0  0  0  0  0  0
  198.1370  178.4984  151.5559 H   0  0  0  0  0  0  0  0  0  0  0  0
  195.5468  181.5367  155.1974 H   0  0  0  0  0  0  0  0  0  0  0  0
  196.4062  180.0629  155.6126 H   0  0  0  0  0  0  0  0  0  0  0  0
  196.2428  182.7999  157.0325 H   0  0  0  0  0  0  0  0  0  0  0  0
  197.1283  181.4874  157.7760 H   0  0  0  0  0  0  0  0  0  0  0  0
  197.9795  187.4142  157.2835 H   0  0  0  0  0  0  0  0  0  0  0  0
  196.3599  187.3502  156.6671 H   0  0  0  0  0  0  0  0  0  0  0  0
  197.4801  188.8505  159.1910 H   0  0  0  0  0  0  0  0  0  0  0  0
  196.5127  189.0871  161.4621 H   0  0  0  0  0  0  0  0  0  0  0  0
  194.9029  187.3865  162.3108 H   0  0  0  0  0  0  0  0  0  0  0  0
  194.2923  185.4372  160.9063 H   0  0  0  0  0  0  0  0  0  0  0  0
  195.2726  185.1749  158.6456 H   0  0  0  0  0  0  0  0  0  0  0  0
  199.9922  182.1873  158.3795 H   0  0  0  0  0  0  0  0  0  0  0  0
  201.8530  183.6790  159.2361 H   0  0  0  0  0  0  0  0  0  0  0  0
  201.1927  185.1786  159.9141 H   0  0  0  0  0  0  0  0  0  0  0  0
  201.9481  185.1847  158.3073 H   0  0  0  0  0  0  0  0  0  0  0  0
  198.9086  179.6783  148.1627 H   0  0  0  0  0  0  0  0  0  0  0  0
  199.1581  178.9051  149.7005 H   0  0  0  0  0  0  0  0  0  0  0  0
  196.7628  177.8618  149.4083 H   0  0  0  0  0  0  0  0  0  0  0  0
  196.7177  178.5456  147.8210 H   0  0  0  0  0  0  0  0  0  0  0  0
  199.5282  176.6451  149.5690 H   0  0  0  0  0  0  0  0  0  0  0  0
  199.1155  175.1991  148.6611 H   0  0  0  0  0  0  0  0  0  0  0  0
  197.9907  175.8299  149.8574 H   0  0  0  0  0  0  0  0  0  0  0  0
  199.8211  177.8354  147.1843 H   0  0  0  0  0  0  0  0  0  0  0  0
  198.4320  177.7252  146.0947 H   0  0  0  0  0  0  0  0  0  0  0  0
  199.3748  176.2869  146.5029 H   0  0  0  0  0  0  0  0  0  0  0  0
  197.3201  176.3680  147.6582 H   0  0  0  0  0  0  0  0  0  0  0  0
  197.7751  182.5989  155.1478 H   0  0  0  0  0  0  0  0  0  0  0  0
  1  2  1  0
  1 25  1  0
  2  3  1  0
  2  7  2  0
  3  4  2  0
  3 31  1  0
  4  5  1  0
  4 32  1  0
  5  6  2  0
  5  8  1  0
  6  7  1  0
  6 33  1  0
  7 34  1  0
  8  9  1  0
  8 35  1  6
  8 36  1  0
  9 10  1  0
  9 30  1  1
  9 61  1  0
 10 11  1  0
 10 37  1  6
 10 38  1  0
 11 12  1  0
 11 23  2  0
 12 13  1  0
 12 21  2  0
 13 14  1  0
 14 15  1  0
 14 39  1  1
 14 40  1  0
 15 16  2  0
 15 20  1  0
 16 17  1  0
 16 41  1  0
 17 18  2  0
 17 42  1  0
 18 19  1  0
 18 43  1  0
 19 20  2  0
 19 44  1  0
 20 45  1  0
 21 22  1  0
 22 23  1  0
 22 24  1  0
 23 46  1  0
 24 47  1  1
 24 48  1  0
 24 49  1  0
 25 26  1  0
 25 50  1  6
 25 51  1  0
 26 27  1  0
 26 52  1  1
 26 53  1  0
 27 28  1  0
 27 29  1  0
 27 60  1  6
 28 54  1  1
 28 55  1  0
 28 56  1  0
 29 57  1  1
 29 58  1  0
 29 59  1  0
M  CHG  2   9   1  27   1
M  END
>  <s_epik_cmdline>  (819) 
J2VwaWtfcHl0aG9uJywgJy1waCcsICc3LjAwMDAwMCcsICctcGh0JywgJzIuMDAwMDAwJywgJy1tcycsICcxNicsICctdG4nLCAnOCcsICctbWEnLCAnMjAwJywgJy1pbWFlJywgJzxpbmZpbGUubWFlPicsICctb21hZScsICc8b3V0ZmlsZS5tYWU+Jw==

>  <s_epik_input>  (819) 
W0NIM11OKFtDSDNdKVtDSDJdW0NIMl1PYzFbY0hdW2NIXWMoW2NIXVtjSF0xKVtDSDJdW05IXVtDSDJdYzJjKG5uKFtjSF0yKVtDSDNdKU9bQ0gyXWMzW2NIXVtjSF1bY0hdW2NIXVtjSF0z

>  <s_i_glide_gridfile>  (819) 
ATP-Grid

>  <s_lp_Force_Field>  (819) 
OPLS_2005

>  <s_lp_Variant>  (819) 
m_270004bbb____24792678____7548352-1

>  <s_lp_label>  (819) 
1018_sdstereoexpander_1_neutralizer_1_epik_1_stereoizer_1

>  <s_m_source_file>  (819) 
ATP-VSW-LIGPREP-001-in.maegz

>  <s_sd_BIOSOLVEIT.INFINISEE\_QUERY\_NAME>  (819) 
Ref-Lig

>  <s_sd_BIOSOLVEIT.INFINISEE\_QUERY\_SMILES>  (819) 
S(c1nc2c(cc1C[NH2+]Cc3ccc(cc3)C[NH+](C)C)cccc2)Cc4ccccc4

>  <s_sd_BIOSOLVEIT.INFINISEE\_REACTION\_NAME>  (819) 
m_270004bbb

>  <s_sd_BIOSOLVEIT.INFINISEE\_REAGENT1\_SMILES>  (819) 
[R1*]NCC=1C(OCc2ccccc2)=NN(C1)C

>  <s_sd_BIOSOLVEIT.INFINISEE\_REAGENT2\_SMILES>  (819) 
[R1*]Cc1ccc(OCCN(C)C)cc1

>  <s_sd_BIOSOLVEIT.INFINISEE\_SPACE>  (819) 
REALSpace_44bn_2023-08

>  <s_vsw_compound_code>  (819) 
32545

>  <s_vsw_variant>  (819) 
32545-1

>  <r_epik_Charging_Adjusted_Penalty>  (819) 
0.21955029053066

>  <r_epik_Ionization_Penalty>  (819) 
0.1061

>  <r_epik_Ionization_Penalty_Charging>  (819) 
0.1057

>  <r_epik_Ionization_Penalty_Neutral>  (819) 
0.00040000000000000002

>  <r_epik_State_Penalty>  (819) 
0.1138

>  <r_i_docking_score>  (819) 
-4.49149454506483

>  <r_i_glide_ecoul>  (819) 
-9.6013813018798793

>  <r_i_glide_eff_state_penalty>  (819) 
0.1138

>  <r_i_glide_einternal>  (819) 
2.9315438270568799

>  <r_i_glide_emodel>  (819) 
-57.963282561678803

>  <r_i_glide_energy>  (819) 
-40.764966964721701

>  <r_i_glide_erotb>  (819) 
1.2443795173535801

>  <r_i_glide_esite>  (819) 
-0.033863116502708901

>  <r_i_glide_evdw>  (819) 
-31.1635856628418

>  <r_i_glide_gscore>  (819) 
-4.6052945450648304

>  <r_i_glide_hbond>  (819) 
0

>  <r_i_glide_ligand_efficiency>  (819) 
-0.154879122243615

>  <r_i_glide_ligand_efficiency_ln>  (819) 
-1.0284383563452699

>  <r_i_glide_ligand_efficiency_sa>  (819) 
-0.47583773268241802

>  <r_i_glide_lipo>  (819) 
-1.8441562908360001

>  <r_i_glide_metal>  (819) 
-0

>  <r_i_glide_rewards>  (819) 
-0.97326817665563503

>  <r_lp_Energy>  (819) 
21.292477000000002

>  <r_lp_tautomer_probability>  (819) 
1

>  <r_qp_ACxDN^.5/SA>  (819) 
0.0071732000000000002

>  <r_qp_CIQPlogS>  (819) 
-3.8580000000000001

>  <r_qp_EA(eV)>  (819) 
-0.29799999999999999

>  <r_qp_FISA>  (819) 
32.378999999999998

>  <r_qp_FOSA>  (819) 
401.47800000000001

>  <r_qp_IP(eV)>  (819) 
8.7379999999999995

>  <r_qp_Jm>  (819) 
0.0016742288788162999

>  <r_qp_PISA>  (819) 
367.738

>  <r_qp_PSA>  (819) 
49.511000000000003

>  <r_qp_PercentHumanOralAbsorption>  (819) 
100

>  <r_qp_QPPCaco>  (819) 
303.846

>  <r_qp_QPPMDCK>  (819) 
167.078

>  <r_qp_QPlogBB>  (819) 
0.32100000000000001

>  <r_qp_QPlogHERG>  (819) 
-8.6760000000000002

>  <r_qp_QPlogKhsa>  (819) 
0.81599999999999995

>  <r_qp_QPlogKp>  (819) 
-3.8900000000000001

>  <r_qp_QPlogPC16>  (819) 
14.587999999999999

>  <r_qp_QPlogPo/w>  (819) 
4.8280000000000003

>  <r_qp_QPlogPoct>  (819) 
19.518999999999998

>  <r_qp_QPlogPw>  (819) 
9.0719999999999992

>  <r_qp_QPlogS>  (819) 
-4.4820000000000002

>  <r_qp_QPpolrz>  (819) 
46.5

>  <r_qp_SASA>  (819) 
801.59500000000003

>  <r_qp_SAamideO>  (819) 
0

>  <r_qp_SAfluorine>  (819) 
0

>  <r_qp_WPSA>  (819) 
0

>  <r_qp_accptHB>  (819) 
5.75

>  <r_qp_dip^2/V>  (819) 
0.018473699999999999

>  <r_qp_dipole>  (819) 
5.0940000000000003

>  <r_qp_donorHB>  (819) 
1

>  <r_qp_glob>  (819) 
0.75661710000000004

>  <r_qp_mol_MW>  (819) 
394.51600000000002

>  <r_qp_volume>  (819) 
1404.4259999999999

>  <r_sd_BIOSOLVEIT.INFINISEE\_FTREES\_SIMILARITY>  (819) 
0.91500000000000004

>  <r_sd_BIOSOLVEIT.LOGP>  (819) 
0.78600000000000003

>  <r_sd_BIOSOLVEIT.MOLECULAR\_WEIGHT>  (819) 
396.53199999999998

>  <r_sd_BIOSOLVEIT.TPSA>  (819) 
57.329999999999998

>  <i_epik_Tot_Q>  (819) 
2

>  <i_epik_Tot_abs_Q>  (819) 
2

>  <i_f3d_flags>  (819) 
0

>  <i_i_glide_confnum>  (819) 
4

>  <i_i_glide_lignum>  (819) 
217

>  <i_i_glide_posenum>  (819) 
13

>  <i_i_glide_rotatable_bonds>  (819) 
11

>  <i_lp_mmshare_version>  (819) 
65135

>  <i_m_ct_format>  (819) 
2

>  <i_m_source_file_index>  (819) 
1018

>  <i_qp_#NandO>  (819) 
6

>  <i_qp_#acid>  (819) 
0

>  <i_qp_#amide>  (819) 
0

>  <i_qp_#amidine>  (819) 
0

>  <i_qp_#amine>  (819) 
2

>  <i_qp_#in34>  (819) 
0

>  <i_qp_#in56>  (819) 
17

>  <i_qp_#metab>  (819) 
7

>  <i_qp_#nonHatm>  (819) 
29

>  <i_qp_#noncon>  (819) 
0

>  <i_qp_#ringatoms>  (819) 
17

>  <i_qp_#rotor>  (819) 
11

>  <i_qp_#rtvFG>  (819) 
0

>  <i_qp_#stars>  (819) 
0

>  <i_qp_CNS>  (819) 
1

>  <i_qp_HumanOralAbsorption>  (819) 
3

>  <i_qp_RuleOfFive>  (819) 
0

>  <i_qp_RuleOfThree>  (819) 
1

>  <i_sd_BIOSOLVEIT.INFINISEE\_REAGENT1\_NAME>  (819) 
24792678

>  <i_sd_BIOSOLVEIT.INFINISEE\_REAGENT2\_NAME>  (819) 
7548352

>  <i_sd_BIOSOLVEIT.INFINISEE\_RESULT\_RANK>  (819) 
27240

>  <i_sd_version>  (819) 
0

>  <b_lp_Chiralities_Consistent>  (819) 
1

>  <b_sd_chiral_flag>  (819) 
0

>  <canonical_id>  (819) 
ATP-HTVS-81F0F4B0A07A

>  <compound_code>  (819) 
32545

>  <title>  (819) 
m_270004bbb____24792678____7548352

>  <variant>  (819) 
32545-1

>  <source_file>  (819) 
运行/运行/ATP-VSW/ATP-VSW-DOCK_HTVS_1-001_lib/ATP-VSW-DOCK_HTVS_1-001_lib

>  <canonical_smiles>  (819) 
Cn1cc(C[NH2+]Cc2ccc(OCC[NH+](C)C)cc2)c(OCc2ccccc2)n1

>  <scaffold>  (819) 
c1ccc(C[NH2+]Cc2c[nH]nc2OCc2ccccc2)cc1

>  <molecular_formula>  (819) 
C23H32N4O2+2

$$$$
ATP-HTVS-821B647876F5
     RDKit          3D

 58 61  0  0  0  0  0  0  0  0999 V2000
  193.7596  183.8181  158.9278 Br  0  0  0  0  0  0  0  0  0  0  0  0
  195.5996  183.4952  158.6043 C   0  0  0  0  0  0  0  0  0  0  0  0
  196.5756  184.2744  159.2604 C   0  0  0  0  0  0  0  0  0  0  0  0
  196.2042  185.2377  160.1313 F   0  0  0  0  0  0  0  0  0  0  0  0
  197.9339  184.0431  159.0057 C   0  0  0  0  0  0  0  0  0  0  0  0
  198.3215  183.0382  158.1048 C   0  0  0  0  0  0  0  0  0  0  0  0
  197.3480  182.2558  157.4434 C   0  0  0  0  0  0  0  0  0  0  0  0
  195.9809  182.4884  157.7042 C   0  0  0  0  0  0  0  0  0  0  0  0
  197.8050  181.1660  156.4848 C   0  0  1  0  0  0  0  0  0  0  0  0
  197.0852  181.1220  155.2109 N   0  0  0  0  0  0  0  0  0  0  0  0
  197.5470  180.5202  154.0536 C   0  0  0  0  0  0  0  0  0  0  0  0
  198.8154  180.1293  153.9821 N   0  0  0  0  0  0  0  0  0  0  0  0
  199.2441  179.6078  152.8149 C   0  0  0  0  0  0  0  0  0  0  0  0
  200.6026  179.2735  152.7463 N   0  0  0  0  0  0  0  0  0  0  0  0
  200.9738  177.8801  152.4608 C   0  0  1  0  0  0  0  0  0  0  0  0
  201.0987  176.9204  153.6390 C   0  0  0  0  0  0  0  0  0  0  0  0
  201.1482  175.5366  153.3601 C   0  0  0  0  0  0  0  0  0  0  0  0
  201.3006  174.6002  154.4036 C   0  0  0  0  0  0  0  0  0  0  0  0
  201.3876  175.0690  155.7300 C   0  0  0  0  0  0  0  0  0  0  0  0
  201.3371  176.4475  156.0156 C   0  0  0  0  0  0  0  0  0  0  0  0
  201.1974  177.3834  154.9712 C   0  0  0  0  0  0  0  0  0  0  0  0
  201.4207  173.1073  154.1093 C   0  0  1  0  0  0  0  0  0  0  0  0
  202.8259  172.6454  153.9583 N   0  0  1  0  0  0  0  0  0  0  0  0
  203.4075  173.0025  152.6430 C   0  0  2  0  0  0  0  0  0  0  0  0
  203.7333  173.0145  155.0693 C   0  0  2  0  0  0  0  0  0  0  0  0
  198.3801  179.5029  151.6893 C   0  0  0  0  0  0  0  0  0  0  0  0
  197.0381  179.9405  151.8872 C   0  0  0  0  0  0  0  0  0  0  0  0
  196.6437  180.4336  153.0793 N   0  0  0  0  0  0  0  0  0  0  0  0
  196.1496  179.9100  150.7919 C   0  0  0  0  0  0  0  0  0  0  0  0
  196.5635  179.4367  149.5252 C   0  0  0  0  0  0  0  0  0  0  0  0
  197.8885  178.9890  149.3527 C   0  0  0  0  0  0  0  0  0  0  0  0
  198.8004  179.0535  150.4198 C   0  0  0  0  0  0  0  0  0  0  0  0
  198.6819  184.6357  159.5190 H   0  0  0  0  0  0  0  0  0  0  0  0
  199.3778  182.8587  157.9241 H   0  0  0  0  0  0  0  0  0  0  0  0
  195.2219  181.8913  157.2161 H   0  0  0  0  0  0  0  0  0  0  0  0
  198.8661  181.3091  156.2824 H   0  0  0  0  0  0  0  0  0  0  0  0
  197.7127  180.1959  156.9783 H   0  0  0  0  0  0  0  0  0  0  0  0
  196.1017  181.3293  155.2411 H   0  0  0  0  0  0  0  0  0  0  0  0
  201.1684  179.7211  153.4570 H   0  0  0  0  0  0  0  0  0  0  0  0
  200.2305  177.3973  151.8302 H   0  0  0  0  0  0  0  0  0  0  0  0
  201.9270  177.8774  151.9198 H   0  0  0  0  0  0  0  0  0  0  0  0
  201.0988  175.1991  152.3323 H   0  0  0  0  0  0  0  0  0  0  0  0
  201.5151  174.3768  156.5344 H   0  0  0  0  0  0  0  0  0  0  0  0
  201.4575  176.7948  157.0260 H   0  0  0  0  0  0  0  0  0  0  0  0
  201.1884  178.4452  155.1897 H   0  0  0  0  0  0  0  0  0  0  0  0
  200.9572  172.5632  154.9274 H   0  0  0  0  0  0  0  0  0  0  0  0
  200.8390  172.8373  153.2159 H   0  0  0  0  0  0  0  0  0  0  0  0
  203.5319  174.0863  152.5473 H   0  0  0  0  0  0  0  0  0  0  0  0
  202.7701  172.6580  151.8255 H   0  0  0  0  0  0  0  0  0  0  0  0
  204.3899  172.5396  152.5212 H   0  0  0  0  0  0  0  0  0  0  0  0
  203.8969  174.0914  155.1491 H   0  0  0  0  0  0  0  0  0  0  0  0
  204.7119  172.5502  154.9285 H   0  0  0  0  0  0  0  0  0  0  0  0
  203.3397  172.6453  156.0187 H   0  0  0  0  0  0  0  0  0  0  0  0
  195.1478  180.2801  150.9312 H   0  0  0  0  0  0  0  0  0  0  0  0
  195.8728  179.4007  148.6933 H   0  0  0  0  0  0  0  0  0  0  0  0
  198.2130  178.6077  148.3941 H   0  0  0  0  0  0  0  0  0  0  0  0
  199.8259  178.7825  150.2146 H   0  0  0  0  0  0  0  0  0  0  0  0
  202.8093  171.6062  154.0043 H   0  0  0  0  0  0  0  0  0  0  0  0
  1  2  1  0
  2  3  2  0
  2  8  1  0
  3  4  1  0
  3  5  1  0
  5  6  2  0
  5 33  1  0
  6  7  1  0
  6 34  1  0
  7  8  2  0
  7  9  1  0
  8 35  1  0
  9 10  1  0
  9 36  1  6
  9 37  1  0
 10 11  1  0
 10 38  1  0
 11 12  2  0
 11 28  1  0
 12 13  1  0
 13 14  1  0
 13 26  2  0
 14 15  1  0
 14 39  1  0
 15 16  1  0
 15 40  1  6
 15 41  1  0
 16 17  2  0
 16 21  1  0
 17 18  1  0
 17 42  1  0
 18 19  2  0
 18 22  1  0
 19 20  1  0
 19 43  1  0
 20 21  2  0
 20 44  1  0
 21 45  1  0
 22 23  1  0
 22 46  1  1
 22 47  1  0
 23 24  1  0
 23 25  1  0
 23 58  1  6
 24 48  1  1
 24 49  1  0
 24 50  1  0
 25 51  1  1
 25 52  1  0
 25 53  1  0
 26 27  1  0
 26 32  1  0
 27 28  2  0
 27 29  1  0
 29 30  2  0
 29 54  1  0
 30 31  1  0
 30 55  1  0
 31 32  2  0
 31 56  1  0
 32 57  1  0
M  CHG  1  23   1
M  END
>  <s_epik_cmdline>  (820) 
J2VwaWtfcHl0aG9uJywgJy1waCcsICc3LjAwMDAwMCcsICctcGh0JywgJzIuMDAwMDAwJywgJy1tcycsICcxNicsICctdG4nLCAnOCcsICctbWEnLCAnMjAwJywgJy1pbWFlJywgJzxpbmZpbGUubWFlPicsICctb21hZScsICc8b3V0ZmlsZS5tYWU+Jw==

>  <s_epik_input>  (820) 
QnJjMWMoRilbY0hdW2NIXWMoW2NIXTEpW0NIMl1bTkhdYyhuYyhjMjMpW2NIXVtjSF1bY0hdW2NIXTMpbmMyW05IXVtDSDJdYzRbY0hdYyhbY0hdW2NIXVtjSF00KVtDSDJdTihbQ0gzXSlbQ0gzXQ==

>  <s_i_glide_gridfile>  (820) 
ATP-Grid

>  <s_lp_Force_Field>  (820) 
OPLS_2005

>  <s_lp_Variant>  (820) 
m_282030aaa____21927212____22360182____21940090-3

>  <s_lp_label>  (820) 
1223_sdstereoexpander_1_neutralizer_1_epik_3_stereoizer_1

>  <s_m_source_file>  (820) 
ATP-VSW-LIGPREP-001-in.maegz

>  <s_sd_BIOSOLVEIT.INFINISEE\_QUERY\_NAME>  (820) 
Ref-Lig

>  <s_sd_BIOSOLVEIT.INFINISEE\_QUERY\_SMILES>  (820) 
S(c1nc2c(cc1C[NH2+]Cc3ccc(cc3)C[NH+](C)C)cccc2)Cc4ccccc4

>  <s_sd_BIOSOLVEIT.INFINISEE\_REACTION\_NAME>  (820) 
m_282030aaa

>  <s_sd_BIOSOLVEIT.INFINISEE\_REAGENT1\_SMILES>  (820) 
[R1*]NCc1cc(Br)c(F)cc1

>  <s_sd_BIOSOLVEIT.INFINISEE\_REAGENT2\_SMILES>  (820) 
[R2*]c1nc([R1*])c2c(n1)cccc2

>  <s_sd_BIOSOLVEIT.INFINISEE\_REAGENT3\_SMILES>  (820) 
[R2*]NCc1cc(ccc1)CN(C)C

>  <s_sd_BIOSOLVEIT.INFINISEE\_SPACE>  (820) 
REALSpace_44bn_2023-08

>  <s_vsw_compound_code>  (820) 
39105

>  <s_vsw_variant>  (820) 
39105-3

>  <r_epik_Charging_Adjusted_Penalty>  (820) 
2.20069305975868

>  <r_epik_Ionization_Penalty>  (820) 
2.3347000000000002

>  <r_epik_Ionization_Penalty_Charging>  (820) 
0.0441

>  <r_epik_Ionization_Penalty_Neutral>  (820) 
2.2906

>  <r_epik_State_Penalty>  (820) 
2.1566000000000001

>  <r_i_docking_score>  (820) 
-3.4040091337561398

>  <r_i_glide_ecoul>  (820) 
-11.322505950927701

>  <r_i_glide_eff_state_penalty>  (820) 
2.1566000000000001

>  <r_i_glide_einternal>  (820) 
8.8759803771972692

>  <r_i_glide_emodel>  (820) 
-66.505371316536696

>  <r_i_glide_energy>  (820) 
-49.707618713378899

>  <r_i_glide_erotb>  (820) 
0.58141132032072496

>  <r_i_glide_esite>  (820) 
-0.168591604196526

>  <r_i_glide_evdw>  (820) 
-38.3851127624512

>  <r_i_glide_gscore>  (820) 
-5.5606091337561399

>  <r_i_glide_hbond>  (820) 
-0.18829427893409001

>  <r_i_glide_ligand_efficiency>  (820) 
-0.10637528542987899

>  <r_i_glide_ligand_efficiency_ln>  (820) 
-0.762250434832486

>  <r_i_glide_ligand_efficiency_sa>  (820) 
-0.33772047959946599

>  <r_i_glide_lipo>  (820) 
-1.6305920822650899

>  <r_i_glide_metal>  (820) 
-0

>  <r_i_glide_rewards>  (820) 
-0.536910957919431

>  <r_lp_Energy>  (820) 
10.026476000000001

>  <r_qp_ACxDN^.5/SA>  (820) 
0.0107247

>  <r_qp_CIQPlogS>  (820) 
-7.4630000000000001

>  <r_qp_EA(eV)>  (820) 
0.70699999999999996

>  <r_qp_FISA>  (820) 
47.276000000000003

>  <r_qp_FOSA>  (820) 
223.845

>  <r_qp_IP(eV)>  (820) 
8.1530000000000005

>  <r_qp_Jm>  (820) 
0.0967623669820903

>  <r_qp_PISA>  (820) 
318.38999999999999

>  <r_qp_PSA>  (820) 
46.167000000000002

>  <r_qp_PercentHumanOralAbsorption>  (820) 
100

>  <r_qp_QPPCaco>  (820) 
880.00300000000004

>  <r_qp_QPPMDCK>  (820) 
1149.914

>  <r_qp_QPlogBB>  (820) 
0.23599999999999999

>  <r_qp_QPlogHERG>  (820) 
-5.8579999999999997

>  <r_qp_QPlogKhsa>  (820) 
0.79500000000000004

>  <r_qp_QPlogKp>  (820) 
-2.5640000000000001

>  <r_qp_QPlogPC16>  (820) 
13.561

>  <r_qp_QPlogPo/w>  (820) 
4.968

>  <r_qp_QPlogPoct>  (820) 
20.308

>  <r_qp_QPlogPw>  (820) 
9.907

>  <r_qp_QPlogS>  (820) 
-4.1449999999999996

>  <r_qp_QPpolrz>  (820) 
43.564999999999998

>  <r_qp_SASA>  (820) 
659.32399999999996

>  <r_qp_SAamideO>  (820) 
0

>  <r_qp_SAfluorine>  (820) 
14.186999999999999

>  <r_qp_WPSA>  (820) 
69.813999999999993

>  <r_qp_accptHB>  (820) 
5

>  <r_qp_dip^2/V>  (820) 
0.0080172000000000004

>  <r_qp_dipole>  (820) 
3.222

>  <r_qp_donorHB>  (820) 
2

>  <r_qp_glob>  (820) 
0.87133459999999996

>  <r_qp_mol_MW>  (820) 
494.40800000000002

>  <r_qp_volume>  (820) 
1294.7280000000001

>  <r_sd_BIOSOLVEIT.INFINISEE\_FTREES\_SIMILARITY>  (820) 
0.91100000000000003

>  <r_sd_BIOSOLVEIT.LOGP>  (820) 
4.4001000000000001

>  <r_sd_BIOSOLVEIT.MOLECULAR\_WEIGHT>  (820) 
495.41699999999997

>  <r_sd_BIOSOLVEIT.TPSA>  (820) 
54.280000000000001

>  <i_epik_Tot_Q>  (820) 
1

>  <i_epik_Tot_abs_Q>  (820) 
1

>  <i_f3d_flags>  (820) 
0

>  <i_i_glide_confnum>  (820) 
7

>  <i_i_glide_lignum>  (820) 
330

>  <i_i_glide_posenum>  (820) 
5

>  <i_i_glide_rotatable_bonds>  (820) 
8

>  <i_lp_mmshare_version>  (820) 
65135

>  <i_m_ct_format>  (820) 
2

>  <i_m_source_file_index>  (820) 
1223

>  <i_qp_#NandO>  (820) 
5

>  <i_qp_#acid>  (820) 
0

>  <i_qp_#amide>  (820) 
0

>  <i_qp_#amidine>  (820) 
0

>  <i_qp_#amine>  (820) 
1

>  <i_qp_#in34>  (820) 
0

>  <i_qp_#in56>  (820) 
22

>  <i_qp_#metab>  (820) 
4

>  <i_qp_#nonHatm>  (820) 
32

>  <i_qp_#noncon>  (820) 
0

>  <i_qp_#ringatoms>  (820) 
22

>  <i_qp_#rotor>  (820) 
8

>  <i_qp_#rtvFG>  (820) 
0

>  <i_qp_#stars>  (820) 
0

>  <i_qp_CNS>  (820) 
1

>  <i_qp_HumanOralAbsorption>  (820) 
3

>  <i_qp_RuleOfFive>  (820) 
0

>  <i_qp_RuleOfThree>  (820) 
0

>  <i_sd_BIOSOLVEIT.INFINISEE\_REAGENT1\_NAME>  (820) 
21927212

>  <i_sd_BIOSOLVEIT.INFINISEE\_REAGENT2\_NAME>  (820) 
22360182

>  <i_sd_BIOSOLVEIT.INFINISEE\_REAGENT3\_NAME>  (820) 
21940090

>  <i_sd_BIOSOLVEIT.INFINISEE\_RESULT\_RANK>  (820) 
41709

>  <i_sd_version>  (820) 
0

>  <b_lp_Chiralities_Consistent>  (820) 
1

>  <b_sd_chiral_flag>  (820) 
0

>  <canonical_id>  (820) 
ATP-HTVS-821B647876F5

>  <compound_code>  (820) 
39105

>  <title>  (820) 
m_282030aaa____21927212____22360182____21940090

>  <variant>  (820) 
39105-3

>  <source_file>  (820) 
运行/运行/ATP-VSW/ATP-VSW-DOCK_HTVS_1-001_lib/ATP-VSW-DOCK_HTVS_1-001_lib

>  <canonical_smiles>  (820) 
C[NH+](C)Cc1cccc(CNc2nc(NCc3ccc(F)c(Br)c3)nc3ccccc23)c1

>  <scaffold>  (820) 
c1ccc(CNc2nc(NCc3ccccc3)c3ccccc3n2)cc1

>  <molecular_formula>  (820) 
C25H26BrFN5+

$$$$
ATP-HTVS-822192B7646A
     RDKit          3D

 65 68  0  0  0  0  0  0  0  0999 V2000
  197.2892  187.8412  157.4200 Cl  0  0  0  0  0  0  0  0  0  0  0  0
  196.6295  186.5956  158.4291 C   0  0  0  0  0  0  0  0  0  0  0  0
  196.9351  185.2252  158.2236 C   0  0  0  0  0  0  0  0  0  0  0  0
  196.3678  184.2525  159.0713 C   0  0  0  0  0  0  0  0  0  0  0  0
  195.5235  184.6347  160.1349 C   0  0  0  0  0  0  0  0  0  0  0  0
  195.2354  185.9938  160.3417 C   0  0  0  0  0  0  0  0  0  0  0  0
  195.7862  186.9702  159.4932 C   0  0  0  0  0  0  0  0  0  0  0  0
  197.8976  184.8017  157.1205 C   0  0  2  0  0  0  0  0  0  0  0  0
  197.5984  183.4791  156.5763 N   0  0  0  0  0  0  0  0  0  0  0  0
  197.4374  183.2338  155.2059 C   0  0  0  0  0  0  0  0  0  0  0  0
  197.6498  184.2519  154.3410 N   0  0  0  0  0  0  0  0  0  0  0  0
  197.4846  184.0122  153.0129 C   0  0  0  0  0  0  0  0  0  0  0  0
  197.1228  182.7331  152.5554 C   0  0  0  0  0  0  0  0  0  0  0  0
  196.9001  181.7089  153.4354 N   0  0  0  0  0  0  0  0  0  0  0  0
  197.0941  181.9468  154.7533 C   0  0  0  0  0  0  0  0  0  0  0  0
  197.0267  180.8413  155.6266 N   0  0  0  0  0  0  0  0  0  0  0  0
  197.1513  179.4496  155.2006 C   0  0  1  0  0  0  0  0  0  0  0  0
  198.2133  179.1751  154.1336 C   0  0  0  0  0  0  0  0  0  0  0  0
  199.5919  179.0287  154.4669 C   0  0  0  0  0  0  0  0  0  0  0  0
  200.5319  178.8667  153.4257 C   0  0  0  0  0  0  0  0  0  0  0  0
  200.1280  178.8550  152.0775 C   0  0  0  0  0  0  0  0  0  0  0  0
  198.7690  178.9842  151.7521 C   0  0  0  0  0  0  0  0  0  0  0  0
  197.8101  179.1087  152.7927 C   0  0  0  0  0  0  0  0  0  0  0  0
  200.0639  179.0071  155.9175 C   0  0  1  0  0  0  0  0  0  0  0  0
  199.9392  177.6590  156.5379 N   0  0  1  0  0  0  0  0  0  0  0  0
  200.4734  176.5629  155.6892 C   0  0  2  0  0  0  0  0  0  0  0  0
  200.5051  177.6198  157.8997 C   0  0  2  0  0  0  0  0  0  0  0  0
  197.0242  182.4749  151.1739 C   0  0  0  0  0  0  0  0  0  0  0  0
  197.2200  183.5121  150.2413 C   0  0  0  0  0  0  0  0  0  0  0  0
  197.5309  184.8064  150.6971 C   0  0  0  0  0  0  0  0  0  0  0  0
  197.6706  185.0447  152.0785 C   0  0  0  0  0  0  0  0  0  0  0  0
  199.3842  184.9149  157.5475 C   0  0  1  0  0  0  0  0  0  0  0  0
  199.8601  183.9837  158.6806 C   0  0  0  0  0  0  0  0  0  0  0  0
  199.2177  183.8440  159.7206 O   0  0  0  0  0  0  0  0  0  0  0  0
  201.0175  183.3515  158.5188 N   0  0  0  0  0  0  0  0  0  0  0  0
  196.6001  183.2067  158.9642 H   0  0  0  0  0  0  0  0  0  0  0  0
  195.1425  183.8717  160.7910 H   0  0  0  0  0  0  0  0  0  0  0  0
  194.5983  186.2869  161.1621 H   0  0  0  0  0  0  0  0  0  0  0  0
  195.5762  188.0147  159.6599 H   0  0  0  0  0  0  0  0  0  0  0  0
  197.7420  185.5509  156.3484 H   0  0  0  0  0  0  0  0  0  0  0  0
  197.2565  182.7841  157.2127 H   0  0  0  0  0  0  0  0  0  0  0  0
  196.7878  180.9662  156.6026 H   0  0  0  0  0  0  0  0  0  0  0  0
  197.3554  178.8416  156.0864 H   0  0  0  0  0  0  0  0  0  0  0  0
  196.1764  179.1148  154.8554 H   0  0  0  0  0  0  0  0  0  0  0  0
  201.5810  178.7615  153.6558 H   0  0  0  0  0  0  0  0  0  0  0  0
  200.8574  178.7660  151.2817 H   0  0  0  0  0  0  0  0  0  0  0  0
  198.4429  179.0356  150.7254 H   0  0  0  0  0  0  0  0  0  0  0  0
  196.7757  179.2172  152.5305 H   0  0  0  0  0  0  0  0  0  0  0  0
  201.1031  179.3322  155.9439 H   0  0  0  0  0  0  0  0  0  0  0  0
  199.5133  179.7366  156.5135 H   0  0  0  0  0  0  0  0  0  0  0  0
  201.5275  176.7284  155.4651 H   0  0  0  0  0  0  0  0  0  0  0  0
  199.9337  176.4729  154.7475 H   0  0  0  0  0  0  0  0  0  0  0  0
  200.3808  175.5964  156.1810 H   0  0  0  0  0  0  0  0  0  0  0  0
  201.5795  177.8098  157.8918 H   0  0  0  0  0  0  0  0  0  0  0  0
  200.3375  176.6436  158.3546 H   0  0  0  0  0  0  0  0  0  0  0  0
  200.0227  178.3607  158.5330 H   0  0  0  0  0  0  0  0  0  0  0  0
  196.8171  181.4755  150.8319 H   0  0  0  0  0  0  0  0  0  0  0  0
  197.1168  183.3123  149.1824 H   0  0  0  0  0  0  0  0  0  0  0  0
  197.6346  185.6141  149.9878 H   0  0  0  0  0  0  0  0  0  0  0  0
  197.8893  186.0428  152.4292 H   0  0  0  0  0  0  0  0  0  0  0  0
  199.9986  184.7357  156.6642 H   0  0  0  0  0  0  0  0  0  0  0  0
  199.5978  185.9443  157.8384 H   0  0  0  0  0  0  0  0  0  0  0  0
  201.5809  183.4947  157.6937 H   0  0  0  0  0  0  0  0  0  0  0  0
  201.3247  182.7512  159.2691 H   0  0  0  0  0  0  0  0  0  0  0  0
  198.9488  177.4993  156.6701 H   0  0  0  0  0  0  0  0  0  0  0  0
  1  2  1  0
  2  3  1  0
  2  7  2  0
  3  4  2  0
  3  8  1  0
  4  5  1  0
  4 36  1  0
  5  6  2  0
  5 37  1  0
  6  7  1  0
  6 38  1  0
  7 39  1  0
  8  9  1  0
  8 32  1  0
  8 40  1  6
  9 10  1  0
  9 41  1  0
 10 11  2  0
 10 15  1  0
 11 12  1  0
 12 13  1  0
 12 31  2  0
 13 14  1  0
 13 28  2  0
 14 15  2  0
 15 16  1  0
 16 17  1  0
 16 42  1  0
 17 18  1  0
 17 43  1  1
 17 44  1  0
 18 19  1  0
 18 23  2  0
 19 20  2  0
 19 24  1  0
 20 21  1  0
 20 45  1  0
 21 22  2  0
 21 46  1  0
 22 23  1  0
 22 47  1  0
 23 48  1  0
 24 25  1  0
 24 49  1  6
 24 50  1  0
 25 26  1  0
 25 27  1  0
 25 65  1  1
 26 51  1  6
 26 52  1  0
 26 53  1  0
 27 54  1  6
 27 55  1  0
 27 56  1  0
 28 29  1  0
 28 57  1  0
 29 30  2  0
 29 58  1  0
 30 31  1  0
 30 59  1  0
 31 60  1  0
 32 33  1  0
 32 61  1  6
 32 62  1  0
 33 34  2  0
 33 35  1  0
 35 63  1  0
 35 64  1  0
M  CHG  1  25   1
M  END
>  <s_epik_cmdline>  (821) 
J2VwaWtfcHl0aG9uJywgJy1waCcsICc3LjAwMDAwMCcsICctcGh0JywgJzIuMDAwMDAwJywgJy1tcycsICcxNicsICctdG4nLCAnOCcsICctbWEnLCAnMjAwJywgJy1pbWFlJywgJzxpbmZpbGUubWFlPicsICctb21hZScsICc8b3V0ZmlsZS5tYWU+Jw==

>  <s_epik_input>  (821) 
W2NIXTFbY0hdW2NIXVtjSF1jKGMxQ2wpW0NAQEhdKFtDSDJdQyg9TylbTkgyXSlbTkhdYyhuMiljKG5jKGMyMylbY0hdW2NIXVtjSF1bY0hdMylbTkhdW0NIMl1jNGMoW0NIMl1OKFtDSDNdKVtDSDNdKVtjSF1bY0hdW2NIXVtjSF00

>  <s_i_glide_gridfile>  (821) 
ATP-Grid

>  <s_lp_Force_Field>  (821) 
OPLS_2005

>  <s_lp_Variant>  (821) 
m_282030aaa____21927700____23157418____21970126-1

>  <s_lp_label>  (821) 
1796_sdstereoexpander_1_neutralizer_1_epik_1_stereoizer_1

>  <s_m_source_file>  (821) 
ATP-VSW-LIGPREP-002-in.maegz

>  <s_sd_BIOSOLVEIT.INFINISEE\_QUERY\_NAME>  (821) 
Ref-Lig

>  <s_sd_BIOSOLVEIT.INFINISEE\_QUERY\_SMILES>  (821) 
S(c1nc2c(cc1C[NH2+]Cc3ccc(cc3)C[NH+](C)C)cccc2)Cc4ccccc4

>  <s_sd_BIOSOLVEIT.INFINISEE\_REACTION\_NAME>  (821) 
m_282030aaa

>  <s_sd_BIOSOLVEIT.INFINISEE\_REAGENT1\_SMILES>  (821) 
[R1*]NCc1c(cccc1)CN(C)C

>  <s_sd_BIOSOLVEIT.INFINISEE\_REAGENT2\_SMILES>  (821) 
[R1*]c1nc2c(nc1[R2*])cccc2

>  <s_sd_BIOSOLVEIT.INFINISEE\_REAGENT3\_SMILES>  (821) 
[R2*]NC(c1c(Cl)cccc1)CC(=O)N

>  <s_sd_BIOSOLVEIT.INFINISEE\_SPACE>  (821) 
REALSpace_44bn_2023-08

>  <s_vsw_compound_code>  (821) 
57442

>  <s_vsw_variant>  (821) 
57442-1

>  <r_epik_Charging_Adjusted_Penalty>  (821) 
0.076612674508475406

>  <r_epik_Ionization_Penalty>  (821) 
0.038600000000000002

>  <r_epik_Ionization_Penalty_Charging>  (821) 
0.038300000000000001

>  <r_epik_Ionization_Penalty_Neutral>  (821) 
0.00020000000000000001

>  <r_epik_State_Penalty>  (821) 
0.038300000000000001

>  <r_i_docking_score>  (821) 
-4.6178832426874097

>  <r_i_glide_ecoul>  (821) 
-8.3870325088500994

>  <r_i_glide_eff_state_penalty>  (821) 
0.038300000000000001

>  <r_i_glide_einternal>  (821) 
5.7334361076354998

>  <r_i_glide_emodel>  (821) 
-63.977614769381702

>  <r_i_glide_energy>  (821) 
-47.173615455627399

>  <r_i_glide_erotb>  (821) 
0.67791697000520101

>  <r_i_glide_esite>  (821) 
-0.17574678549926501

>  <r_i_glide_evdw>  (821) 
-38.786582946777301

>  <r_i_glide_gscore>  (821) 
-4.6561832426874101

>  <r_i_glide_hbond>  (821) 
-0.13046861736829099

>  <r_i_glide_ligand_efficiency>  (821) 
-0.13193952121964

>  <r_i_glide_ligand_efficiency_ln>  (821) 
-1.01372786016653

>  <r_i_glide_ligand_efficiency_sa>  (821) 
-0.43158292233250201

>  <r_i_glide_lipo>  (821) 
-1.6768939918667101

>  <r_i_glide_metal>  (821) 
-0

>  <r_i_glide_rewards>  (821) 
-0.15360679429196

>  <r_lp_Energy>  (821) 
21.656220999999999

>  <r_qp_ACxDN^.5/SA>  (821) 
0.014432199999999999

>  <r_qp_CIQPlogS>  (821) 
-6.0199999999999996

>  <r_qp_EA(eV)>  (821) 
0.50800000000000001

>  <r_qp_FISA>  (821) 
90.879999999999995

>  <r_qp_FOSA>  (821) 
186.399

>  <r_qp_IP(eV)>  (821) 
7.7350000000000003

>  <r_qp_Jm>  (821) 
0.0220887071977055

>  <r_qp_PISA>  (821) 
456.13999999999999

>  <r_qp_PSA>  (821) 
92.984999999999999

>  <r_qp_PercentHumanOralAbsorption>  (821) 
96.492000000000004

>  <r_qp_QPPCaco>  (821) 
252.52199999999999

>  <r_qp_QPPMDCK>  (821) 
306.84399999999999

>  <r_qp_QPlogBB>  (821) 
-0.45100000000000001

>  <r_qp_QPlogHERG>  (821) 
-6.1420000000000003

>  <r_qp_QPlogKhsa>  (821) 
0.53600000000000003

>  <r_qp_QPlogKp>  (821) 
-2.6899999999999999

>  <r_qp_QPlogPC16>  (821) 
16.920999999999999

>  <r_qp_QPlogPo/w>  (821) 
4.5339999999999998

>  <r_qp_QPlogPoct>  (821) 
25.808

>  <r_qp_QPlogPw>  (821) 
15.119999999999999

>  <r_qp_QPlogS>  (821) 
-4.6550000000000002

>  <r_qp_QPpolrz>  (821) 
51.491

>  <r_qp_SASA>  (821) 
780.08500000000004

>  <r_qp_SAamideO>  (821) 
16.167000000000002

>  <r_qp_SAfluorine>  (821) 
0

>  <r_qp_WPSA>  (821) 
46.665999999999997

>  <r_qp_accptHB>  (821) 
6.5

>  <r_qp_dip^2/V>  (821) 
0.035506299999999998

>  <r_qp_dipole>  (821) 
7.2779999999999996

>  <r_qp_donorHB>  (821) 
3

>  <r_qp_glob>  (821) 
0.80947119999999995

>  <r_qp_mol_MW>  (821) 
489.01900000000001

>  <r_qp_volume>  (821) 
1491.9949999999999

>  <r_sd_BIOSOLVEIT.INFINISEE\_FTREES\_SIMILARITY>  (821) 
0.90400000000000003

>  <r_sd_BIOSOLVEIT.LOGP>  (821) 
3.5684

>  <r_sd_BIOSOLVEIT.MOLECULAR\_WEIGHT>  (821) 
490.02800000000002

>  <r_sd_BIOSOLVEIT.TPSA>  (821) 
97.370000000000005

>  <i_epik_Tot_Q>  (821) 
1

>  <i_epik_Tot_abs_Q>  (821) 
1

>  <i_f3d_flags>  (821) 
0

>  <i_i_glide_confnum>  (821) 
6

>  <i_i_glide_lignum>  (821) 
619

>  <i_i_glide_posenum>  (821) 
5

>  <i_i_glide_rotatable_bonds>  (821) 
10

>  <i_lp_mmshare_version>  (821) 
65135

>  <i_m_ct_format>  (821) 
2

>  <i_m_source_file_index>  (821) 
1796

>  <i_qp_#NandO>  (821) 
7

>  <i_qp_#acid>  (821) 
0

>  <i_qp_#amide>  (821) 
1

>  <i_qp_#amidine>  (821) 
0

>  <i_qp_#amine>  (821) 
1

>  <i_qp_#in34>  (821) 
0

>  <i_qp_#in56>  (821) 
22

>  <i_qp_#metab>  (821) 
8

>  <i_qp_#nonHatm>  (821) 
35

>  <i_qp_#noncon>  (821) 
0

>  <i_qp_#ringatoms>  (821) 
22

>  <i_qp_#rotor>  (821) 
10

>  <i_qp_#rtvFG>  (821) 
0

>  <i_qp_#stars>  (821) 
2

>  <i_qp_CNS>  (821) 
0

>  <i_qp_HumanOralAbsorption>  (821) 
3

>  <i_qp_RuleOfFive>  (821) 
0

>  <i_qp_RuleOfThree>  (821) 
1

>  <i_sd_BIOSOLVEIT.INFINISEE\_REAGENT1\_NAME>  (821) 
21927700

>  <i_sd_BIOSOLVEIT.INFINISEE\_REAGENT2\_NAME>  (821) 
23157418

>  <i_sd_BIOSOLVEIT.INFINISEE\_REAGENT3\_NAME>  (821) 
21970126

>  <i_sd_BIOSOLVEIT.INFINISEE\_RESULT\_RANK>  (821) 
77636

>  <i_sd_version>  (821) 
0

>  <b_lp_Chiralities_Consistent>  (821) 
1

>  <b_sd_chiral_flag>  (821) 
0

>  <canonical_id>  (821) 
ATP-HTVS-822192B7646A

>  <compound_code>  (821) 
57442

>  <title>  (821) 
m_282030aaa____21927700____23157418____21970126

>  <variant>  (821) 
57442-1

>  <source_file>  (821) 
运行/运行/ATP-VSW/ATP-VSW-DOCK_HTVS_1-002_lib.maegz

>  <canonical_smiles>  (821) 
C[NH+](C)Cc1ccccc1CNc1nc2ccccc2nc1N[C@H](CC(N)=O)c1ccccc1Cl

>  <scaffold>  (821) 
c1ccc(CNc2nc3ccccc3nc2NCc2ccccc2)cc1

>  <molecular_formula>  (821) 
C27H30ClN6O+

$$$$
ATP-HTVS-824DD36F4E64
     RDKit          3D

 65 68  0  0  0  0  0  0  0  0999 V2000
  200.7819  180.8156  151.1129 Cl  0  0  0  0  0  0  0  0  0  0  0  0
  199.1987  180.1216  151.5446 C   0  0  2  0  0  0  0  0  0  0  0  0
  198.8108  179.0350  150.5412 C   0  0  0  0  0  0  0  0  0  0  0  0
  198.7470  177.6799  150.9623 C   0  0  0  0  0  0  0  0  0  0  0  0
  198.3516  176.6725  150.0586 C   0  0  0  0  0  0  0  0  0  0  0  0
  198.0114  177.0066  148.7299 C   0  0  0  0  0  0  0  0  0  0  0  0
  198.0986  178.3387  148.2995 C   0  0  0  0  0  0  0  0  0  0  0  0
  198.5285  179.3447  149.1946 C   0  0  0  0  0  0  0  0  0  0  0  0
  198.1609  181.2749  151.6646 C   0  0  0  0  0  0  0  0  0  0  0  0
  197.6550  181.7130  150.6310 O   0  0  0  0  0  0  0  0  0  0  0  0
  197.8666  181.8237  152.8645 N   0  0  0  0  0  0  0  0  0  0  0  0
  197.0352  183.0396  152.9289 C   0  0  1  0  0  0  0  0  0  0  0  0
  197.8487  184.3042  152.8321 C   0  0  0  0  0  0  0  0  0  0  0  0
  198.6252  184.7187  151.3272 S   0  0  0  0  0  0  0  0  0  0  0  0
  199.2989  186.1773  152.0241 C   0  0  0  0  0  0  0  0  0  0  0  0
  198.8834  186.3472  153.3830 C   0  0  0  0  0  0  0  0  0  0  0  0
  199.3246  187.5405  154.0191 C   0  0  0  0  0  0  0  0  0  0  0  0
  200.1388  188.4837  153.3699 C   0  0  0  0  0  0  0  0  0  0  0  0
  200.5444  188.2684  152.0451 C   0  0  0  0  0  0  0  0  0  0  0  0
  200.1230  187.1116  151.3706 C   0  0  0  0  0  0  0  0  0  0  0  0
  198.0529  185.2356  153.8283 C   0  0  0  0  0  0  0  0  0  0  0  0
  197.4749  185.1394  155.1144 N   0  0  0  0  0  0  0  0  0  0  0  0
  198.1464  185.5162  156.3465 C   0  0  1  0  0  0  0  0  0  0  0  0
  197.4266  185.0546  157.5936 C   0  0  0  0  0  0  0  0  0  0  0  0
  196.7389  183.8250  157.6103 C   0  0  0  0  0  0  0  0  0  0  0  0
  196.0332  183.4233  158.7615 C   0  0  0  0  0  0  0  0  0  0  0  0
  196.0469  184.2393  159.9106 C   0  0  0  0  0  0  0  0  0  0  0  0
  196.7381  185.4675  159.8998 C   0  0  0  0  0  0  0  0  0  0  0  0
  197.4271  185.8738  158.7441 C   0  0  0  0  0  0  0  0  0  0  0  0
  195.2311  182.1380  158.7224 C   0  0  1  0  0  0  0  0  0  0  0  0
  193.8688  182.3166  158.1324 N   0  0  1  0  0  0  0  0  0  0  0  0
  193.0592  181.0781  158.2416 C   0  0  2  0  0  0  0  0  0  0  0  0
  193.1483  183.5092  158.6294 C   0  0  2  0  0  0  0  0  0  0  0  0
  198.3557  181.2956  154.1417 C   0  0  2  0  0  0  0  0  0  0  0  0
  199.3566  179.6073  152.4892 H   0  0  0  0  0  0  0  0  0  0  0  0
  198.9923  177.4071  151.9825 H   0  0  0  0  0  0  0  0  0  0  0  0
  198.2988  175.6412  150.3806 H   0  0  0  0  0  0  0  0  0  0  0  0
  197.6965  176.2425  148.0348 H   0  0  0  0  0  0  0  0  0  0  0  0
  197.8328  178.6212  147.2907 H   0  0  0  0  0  0  0  0  0  0  0  0
  198.6158  180.3462  148.8102 H   0  0  0  0  0  0  0  0  0  0  0  0
  196.2759  183.0507  152.1406 H   0  0  0  0  0  0  0  0  0  0  0  0
  196.4379  183.0053  153.8364 H   0  0  0  0  0  0  0  0  0  0  0  0
  199.0254  187.7726  155.0262 H   0  0  0  0  0  0  0  0  0  0  0  0
  200.4457  189.3753  153.8970 H   0  0  0  0  0  0  0  0  0  0  0  0
  201.1647  188.9979  151.5444 H   0  0  0  0  0  0  0  0  0  0  0  0
  200.4115  186.9390  150.3460 H   0  0  0  0  0  0  0  0  0  0  0  0
  196.8176  184.3857  155.2235 H   0  0  0  0  0  0  0  0  0  0  0  0
  199.1657  185.1308  156.3581 H   0  0  0  0  0  0  0  0  0  0  0  0
  198.1878  186.6040  156.4255 H   0  0  0  0  0  0  0  0  0  0  0  0
  196.7001  183.1910  156.7378 H   0  0  0  0  0  0  0  0  0  0  0  0
  195.4986  183.9458  160.7920 H   0  0  0  0  0  0  0  0  0  0  0  0
  196.7327  186.0982  160.7764 H   0  0  0  0  0  0  0  0  0  0  0  0
  197.9589  186.8154  158.7496 H   0  0  0  0  0  0  0  0  0  0  0  0
  195.7831  181.4200  158.1105 H   0  0  0  0  0  0  0  0  0  0  0  0
  195.1679  181.7328  159.7300 H   0  0  0  0  0  0  0  0  0  0  0  0
  192.8655  180.8107  159.2789 H   0  0  0  0  0  0  0  0  0  0  0  0
  193.5692  180.2418  157.7655 H   0  0  0  0  0  0  0  0  0  0  0  0
  192.1057  181.2025  157.7278 H   0  0  0  0  0  0  0  0  0  0  0  0
  193.0410  183.5154  159.7100 H   0  0  0  0  0  0  0  0  0  0  0  0
  192.1594  183.5363  158.1623 H   0  0  0  0  0  0  0  0  0  0  0  0
  193.6525  184.4315  158.3593 H   0  0  0  0  0  0  0  0  0  0  0  0
  199.4498  181.3299  154.1845 H   0  0  0  0  0  0  0  0  0  0  0  0
  198.0262  180.2624  154.2617 H   0  0  0  0  0  0  0  0  0  0  0  0
  197.9697  181.8672  154.9928 H   0  0  0  0  0  0  0  0  0  0  0  0
  193.9443  182.4862  157.1311 H   0  0  0  0  0  0  0  0  0  0  0  0
  1  2  1  0
  2  3  1  0
  2  9  1  0
  2 35  1  1
  3  4  2  0
  3  8  1  0
  4  5  1  0
  4 36  1  0
  5  6  2  0
  5 37  1  0
  6  7  1  0
  6 38  1  0
  7  8  2  0
  7 39  1  0
  8 40  1  0
  9 10  2  0
  9 11  1  0
 11 12  1  0
 11 34  1  0
 12 13  1  0
 12 41  1  6
 12 42  1  0
 13 14  1  0
 13 21  2  0
 14 15  1  0
 15 16  1  0
 15 20  2  0
 16 17  2  0
 16 21  1  0
 17 18  1  0
 17 43  1  0
 18 19  2  0
 18 44  1  0
 19 20  1  0
 19 45  1  0
 20 46  1  0
 21 22  1  0
 22 23  1  0
 22 47  1  0
 23 24  1  0
 23 48  1  6
 23 49  1  0
 24 25  2  0
 24 29  1  0
 25 26  1  0
 25 50  1  0
 26 27  2  0
 26 30  1  0
 27 28  1  0
 27 51  1  0
 28 29  2  0
 28 52  1  0
 29 53  1  0
 30 31  1  0
 30 54  1  6
 30 55  1  0
 31 32  1  0
 31 33  1  0
 31 65  1  6
 32 56  1  1
 32 57  1  0
 32 58  1  0
 33 59  1  1
 33 60  1  0
 33 61  1  0
 34 62  1  6
 34 63  1  0
 34 64  1  0
M  CHG  1  31   1
M  END
>  <s_epik_cmdline>  (822) 
J2VwaWtfcHl0aG9uJywgJy1waCcsICc3LjAwMDAwMCcsICctcGh0JywgJzIuMDAwMDAwJywgJy1tcycsICcxNicsICctdG4nLCAnOCcsICctbWEnLCAnMjAwJywgJy1pbWFlJywgJzxpbmZpbGUubWFlPicsICctb21hZScsICc8b3V0ZmlsZS5tYWU+Jw==

>  <s_epik_input>  (822) 
W2NIXTFbY0hdW2NIXVtjSF1bY0hdYzFbQ0BASF0oQ2wpQyg9TylOKFtDSDNdKVtDSDJdYyhzMiljKGMoYzIzKVtjSF1bY0hdW2NIXVtjSF0zKVtOSF1bQ0gyXWM0W2NIXWMoW2NIXVtjSF1bY0hdNClbQ0gyXU4oW0NIM10pW0NIM10=

>  <s_i_glide_gridfile>  (822) 
ATP-Grid

>  <s_lp_Force_Field>  (822) 
OPLS_2005

>  <s_lp_Variant>  (822) 
rxn502c____EMOL480530____EMOL49259969____EMOL2873214-1

>  <s_lp_label>  (822) 
2178_sdstereoexpander_1_neutralizer_1_epik_1_stereoizer_1

>  <s_m_source_file>  (822) 
ATP-VSW-LIGPREP-001-in.maegz

>  <s_sd_BIOSOLVEIT.INFINISEE\_QUERY\_NAME>  (822) 
Ref-Lig

>  <s_sd_BIOSOLVEIT.INFINISEE\_QUERY\_SMILES>  (822) 
S(c1nc2c(cc1C[NH2+]Cc3ccc(cc3)C[NH+](C)C)cccc2)Cc4ccccc4

>  <s_sd_BIOSOLVEIT.INFINISEE\_REACTION\_NAME>  (822) 
rxn502c

>  <s_sd_BIOSOLVEIT.INFINISEE\_REAGENT1\_NAME>  (822) 
EMOL480530

>  <s_sd_BIOSOLVEIT.INFINISEE\_REAGENT1\_SMILES>  (822) 
ClC(=O)C(Cl)c1ccccc1

>  <s_sd_BIOSOLVEIT.INFINISEE\_REAGENT2\_NAME>  (822) 
EMOL49259969

>  <s_sd_BIOSOLVEIT.INFINISEE\_REAGENT2\_SMILES>  (822) 
ClC=1c2c(SC1CNC)cccc2

>  <s_sd_BIOSOLVEIT.INFINISEE\_REAGENT3\_NAME>  (822) 
EMOL2873214

>  <s_sd_BIOSOLVEIT.INFINISEE\_REAGENT3\_SMILES>  (822) 
N(Cc1cc(ccc1)CN)(C)C

>  <s_sd_BIOSOLVEIT.INFINISEE\_SPACE>  (822) 
eXplore_7tr_2022-12

>  <s_vsw_compound_code>  (822) 
69665

>  <s_vsw_variant>  (822) 
69665-1

>  <r_epik_Charging_Adjusted_Penalty>  (822) 
0.086140609825027206

>  <r_epik_Ionization_Penalty>  (822) 
0.043099999999999999

>  <r_epik_Ionization_Penalty_Charging>  (822) 
0.043099999999999999

>  <r_epik_Ionization_Penalty_Neutral>  (822) 
0

>  <r_epik_State_Penalty>  (822) 
0.043099999999999999

>  <r_i_docking_score>  (822) 
-4.4912168370324901

>  <r_i_glide_ecoul>  (822) 
-10.152871131896999

>  <r_i_glide_eff_state_penalty>  (822) 
0.043099999999999999

>  <r_i_glide_einternal>  (822) 
3.0774085521697998

>  <r_i_glide_emodel>  (822) 
-62.2757712221944

>  <r_i_glide_energy>  (822) 
-45.3535928726196

>  <r_i_glide_erotb>  (822) 
0.67022257153436504

>  <r_i_glide_esite>  (822) 
-0.104061169083318

>  <r_i_glide_evdw>  (822) 
-35.200721740722699

>  <r_i_glide_gscore>  (822) 
-4.53431683703249

>  <r_i_glide_hbond>  (822) 
-0.20000000000000001

>  <r_i_glide_ligand_efficiency>  (822) 
-0.13209461285389701

>  <r_i_glide_ligand_efficiency_ln>  (822) 
-0.99223577366572002

>  <r_i_glide_ligand_efficiency_sa>  (822) 
-0.42793526618364602

>  <r_i_glide_lipo>  (822) 
-1.5703565281173999

>  <r_i_glide_metal>  (822) 
-0

>  <r_i_glide_rewards>  (822) 
-0.047154954545455

>  <r_lp_Energy>  (822) 
26.078745000000001

>  <r_qp_ACxDN^.5/SA>  (822) 
0.0082436000000000002

>  <r_qp_CIQPlogS>  (822) 
-5.3550000000000004

>  <r_qp_EA(eV)>  (822) 
0.48699999999999999

>  <r_qp_FISA>  (822) 
17.395

>  <r_qp_FOSA>  (822) 
241.25299999999999

>  <r_qp_IP(eV)>  (822) 
7.8230000000000004

>  <r_qp_Jm>  (822) 
0.036738724031788003

>  <r_qp_PISA>  (822) 
406.733

>  <r_qp_PSA>  (822) 
36.240000000000002

>  <r_qp_PercentHumanOralAbsorption>  (822) 
100

>  <r_qp_QPPCaco>  (822) 
377.24200000000002

>  <r_qp_QPPMDCK>  (822) 
523.15800000000002

>  <r_qp_QPlogBB>  (822) 
0.81100000000000005

>  <r_qp_QPlogHERG>  (822) 
-5.9889999999999999

>  <r_qp_QPlogKhsa>  (822) 
0.67700000000000005

>  <r_qp_QPlogKp>  (822) 
-3.6680000000000001

>  <r_qp_QPlogPC16>  (822) 
15.183

>  <r_qp_QPlogPo/w>  (822) 
4.7800000000000002

>  <r_qp_QPlogPoct>  (822) 
21.422999999999998

>  <r_qp_QPlogPw>  (822) 
10.214

>  <r_qp_QPlogS>  (822) 
-3.4590000000000001

>  <r_qp_QPpolrz>  (822) 
49.779000000000003

>  <r_qp_SASA>  (822) 
727.83699999999999

>  <r_qp_SAamideO>  (822) 
6.0449999999999999

>  <r_qp_SAfluorine>  (822) 
0

>  <r_qp_WPSA>  (822) 
62.456000000000003

>  <r_qp_accptHB>  (822) 
6

>  <r_qp_dip^2/V>  (822) 
0.0040079

>  <r_qp_dipole>  (822) 
2.407

>  <r_qp_donorHB>  (822) 
1

>  <r_qp_glob>  (822) 
0.84925280000000003

>  <r_qp_mol_MW>  (822) 
492.077

>  <r_qp_volume>  (822) 
1444.972

>  <r_sd_BIOSOLVEIT.INFINISEE\_FTREES\_SIMILARITY>  (822) 
0.93700000000000006

>  <r_sd_BIOSOLVEIT.LOGP>  (822) 
5.0964

>  <r_sd_BIOSOLVEIT.MOLECULAR\_WEIGHT>  (822) 
493.09100000000001

>  <r_sd_BIOSOLVEIT.TPSA>  (822) 
36.780000000000001

>  <i_epik_Tot_Q>  (822) 
1

>  <i_epik_Tot_abs_Q>  (822) 
1

>  <i_f3d_flags>  (822) 
0

>  <i_i_glide_confnum>  (822) 
5

>  <i_i_glide_lignum>  (822) 
692

>  <i_i_glide_posenum>  (822) 
2

>  <i_i_glide_rotatable_bonds>  (822) 
10

>  <i_lp_mmshare_version>  (822) 
65135

>  <i_m_ct_format>  (822) 
2

>  <i_m_source_file_index>  (822) 
2178

>  <i_qp_#NandO>  (822) 
4

>  <i_qp_#acid>  (822) 
0

>  <i_qp_#amide>  (822) 
1

>  <i_qp_#amidine>  (822) 
0

>  <i_qp_#amine>  (822) 
2

>  <i_qp_#in34>  (822) 
0

>  <i_qp_#in56>  (822) 
21

>  <i_qp_#metab>  (822) 
9

>  <i_qp_#nonHatm>  (822) 
34

>  <i_qp_#noncon>  (822) 
0

>  <i_qp_#ringatoms>  (822) 
21

>  <i_qp_#rotor>  (822) 
9

>  <i_qp_#rtvFG>  (822) 
1

>  <i_qp_#stars>  (822) 
2

>  <i_qp_CNS>  (822) 
2

>  <i_qp_HumanOralAbsorption>  (822) 
3

>  <i_qp_RuleOfFive>  (822) 
0

>  <i_qp_RuleOfThree>  (822) 
1

>  <i_sd_BIOSOLVEIT.INFINISEE\_RESULT\_RANK>  (822) 
1888

>  <i_sd_version>  (822) 
0

>  <b_lp_Chiralities_Consistent>  (822) 
1

>  <b_sd_chiral_flag>  (822) 
0

>  <canonical_id>  (822) 
ATP-HTVS-824DD36F4E64

>  <compound_code>  (822) 
69665

>  <title>  (822) 
rxn502c____EMOL480530____EMOL49259969____EMOL2873214

>  <variant>  (822) 
69665-1

>  <source_file>  (822) 
运行/运行/ATP-VSW/ATP-VSW-DOCK_HTVS_1-001_lib/ATP-VSW-DOCK_HTVS_1-001_lib

>  <canonical_smiles>  (822) 
CN(Cc1sc2ccccc2c1NCc1cccc(C[NH+](C)C)c1)C(=O)[C@H](Cl)c1ccccc1

>  <scaffold>  (822) 
O=C(Cc1ccccc1)NCc1sc2ccccc2c1NCc1ccccc1

>  <molecular_formula>  (822) 
C28H31ClN3OS+

$$$$
ATP-HTVS-8313972BDCAD
     RDKit          3D

 63 66  0  0  0  0  0  0  0  0999 V2000
  197.4005  182.5048  153.8528 S   0  0  0  0  0  0  0  0  0  0  0  0
  197.2592  181.3882  152.4923 C   0  0  0  0  0  0  0  0  0  0  0  0
  197.8049  180.1013  152.8406 C   0  0  0  0  0  0  0  0  0  0  0  0
  197.7792  179.0956  151.8403 C   0  0  0  0  0  0  0  0  0  0  0  0
  197.2679  179.3585  150.5460 C   0  0  0  0  0  0  0  0  0  0  0  0
  196.7279  180.6241  150.2392 C   0  0  0  0  0  0  0  0  0  0  0  0
  196.6980  181.6277  151.2182 C   0  0  0  0  0  0  0  0  0  0  0  0
  198.2877  180.0891  154.2059 C   0  0  0  0  0  0  0  0  0  0  0  0
  198.9121  178.9312  154.7200 N   0  0  0  0  0  0  0  0  0  0  0  0
  200.0536  178.3209  154.0456 C   0  0  1  0  0  0  0  0  0  0  0  0
  200.7980  177.2934  154.8761 C   0  0  0  0  0  0  0  0  0  0  0  0
  201.6462  176.3896  154.1959 C   0  0  0  0  0  0  0  0  0  0  0  0
  202.2911  175.3547  154.9083 C   0  0  0  0  0  0  0  0  0  0  0  0
  202.1162  175.2695  156.3058 C   0  0  0  0  0  0  0  0  0  0  0  0
  201.2732  176.1919  156.9787 C   0  0  0  0  0  0  0  0  0  0  0  0
  200.6099  177.1917  156.2668 C   0  0  0  0  0  0  0  0  0  0  0  0
  203.1522  174.3344  154.1627 C   0  0  1  0  0  0  0  0  0  0  0  0
  202.3726  173.3462  153.3672 N   0  0  1  0  0  0  0  0  0  0  0  0
  201.5251  172.4682  154.1957 C   0  0  2  0  0  0  0  0  0  0  0  0
  201.6064  173.9263  152.2313 C   0  0  2  0  0  0  0  0  0  0  0  0
  198.0117  181.2567  154.8697 C   0  0  0  0  0  0  0  0  0  0  0  0
  198.2570  181.6828  156.2714 C   0  0  0  0  0  0  0  0  0  0  0  0
  199.4108  181.6052  156.6927 O   0  0  0  0  0  0  0  0  0  0  0  0
  197.2027  182.1256  157.0356 N   0  0  0  0  0  0  0  0  0  0  0  0
  197.3844  182.7057  158.3951 C   0  0  2  0  0  0  0  0  0  0  0  0
  196.1553  183.2988  159.0037 C   0  0  0  0  0  0  0  0  0  0  0  0
  195.2155  183.7500  159.4967 N   0  0  0  0  0  0  0  0  0  0  0  0
  198.4980  183.7439  158.4899 C   0  0  0  0  0  0  0  0  0  0  0  0
  198.3629  184.9706  157.8045 C   0  0  0  0  0  0  0  0  0  0  0  0
  199.3902  185.9326  157.8532 C   0  0  0  0  0  0  0  0  0  0  0  0
  200.5671  185.6783  158.5838 C   0  0  0  0  0  0  0  0  0  0  0  0
  200.7102  184.4537  159.2680 C   0  0  0  0  0  0  0  0  0  0  0  0
  199.6781  183.5005  159.2257 C   0  0  0  0  0  0  0  0  0  0  0  0
  195.8034  181.9061  156.6481 C   0  0  2  0  0  0  0  0  0  0  0  0
  198.1932  178.1055  152.0804 H   0  0  0  0  0  0  0  0  0  0  0  0
  197.3116  178.5821  149.7957 H   0  0  0  0  0  0  0  0  0  0  0  0
  196.3617  180.8033  149.2511 H   0  0  0  0  0  0  0  0  0  0  0  0
  196.2575  182.5973  151.0186 H   0  0  0  0  0  0  0  0  0  0  0  0
  198.3929  178.3833  155.3902 H   0  0  0  0  0  0  0  0  0  0  0  0
  199.6747  177.8208  153.1378 H   0  0  0  0  0  0  0  0  0  0  0  0
  200.7653  179.0978  153.7383 H   0  0  0  0  0  0  0  0  0  0  0  0
  201.7838  176.4928  153.1341 H   0  0  0  0  0  0  0  0  0  0  0  0
  202.6307  174.5061  156.8868 H   0  0  0  0  0  0  0  0  0  0  0  0
  201.1269  176.1393  158.0430 H   0  0  0  0  0  0  0  0  0  0  0  0
  199.9656  177.8681  156.8137 H   0  0  0  0  0  0  0  0  0  0  0  0
  203.8633  174.8603  153.5244 H   0  0  0  0  0  0  0  0  0  0  0  0
  203.7539  173.7896  154.8884 H   0  0  0  0  0  0  0  0  0  0  0  0
  200.7462  173.0304  154.7121 H   0  0  0  0  0  0  0  0  0  0  0  0
  202.1122  171.9258  154.9383 H   0  0  0  0  0  0  0  0  0  0  0  0
  201.0473  171.7318  153.5503 H   0  0  0  0  0  0  0  0  0  0  0  0
  200.7999  174.5812  152.5875 H   0  0  0  0  0  0  0  0  0  0  0  0
  201.1721  173.1386  151.5908 H   0  0  0  0  0  0  0  0  0  0  0  0
  202.2623  174.5285  151.6003 H   0  0  0  0  0  0  0  0  0  0  0  0
  197.5410  181.8588  159.0726 H   0  0  0  0  0  0  0  0  0  0  0  0
  197.4733  185.1683  157.2229 H   0  0  0  0  0  0  0  0  0  0  0  0
  199.2832  186.8694  157.3188 H   0  0  0  0  0  0  0  0  0  0  0  0
  201.3615  186.4075  158.6163 H   0  0  0  0  0  0  0  0  0  0  0  0
  201.6215  184.2385  159.8106 H   0  0  0  0  0  0  0  0  0  0  0  0
  199.8318  182.5692  159.7419 H   0  0  0  0  0  0  0  0  0  0  0  0
  195.6386  181.7370  155.5770 H   0  0  0  0  0  0  0  0  0  0  0  0
  195.2130  182.7688  156.9277 H   0  0  0  0  0  0  0  0  0  0  0  0
  195.3693  181.0586  157.2113 H   0  0  0  0  0  0  0  0  0  0  0  0
  203.0606  172.7241  152.9666 H   0  0  0  0  0  0  0  0  0  0  0  0
  1  2  1  0
  1 21  1  0
  2  3  1  0
  2  7  2  0
  3  4  2  0
  3  8  1  0
  4  5  1  0
  4 35  1  0
  5  6  2  0
  5 36  1  0
  6  7  1  0
  6 37  1  0
  7 38  1  0
  8  9  1  0
  8 21  2  0
  9 10  1  0
  9 39  1  0
 10 11  1  0
 10 40  1  6
 10 41  1  0
 11 12  2  0
 11 16  1  0
 12 13  1  0
 12 42  1  0
 13 14  2  0
 13 17  1  0
 14 15  1  0
 14 43  1  0
 15 16  2  0
 15 44  1  0
 16 45  1  0
 17 18  1  0
 17 46  1  6
 17 47  1  0
 18 19  1  0
 18 20  1  0
 18 63  1  6
 19 48  1  1
 19 49  1  0
 19 50  1  0
 20 51  1  1
 20 52  1  0
 20 53  1  0
 21 22  1  0
 22 23  2  0
 22 24  1  0
 24 25  1  0
 24 34  1  0
 25 26  1  0
 25 28  1  0
 25 54  1  1
 26 27  3  0
 28 29  2  0
 28 33  1  0
 29 30  1  0
 29 55  1  0
 30 31  2  0
 30 56  1  0
 31 32  1  0
 31 57  1  0
 32 33  2  0
 32 58  1  0
 33 59  1  0
 34 60  1  6
 34 61  1  0
 34 62  1  0
M  CHG  1  18   1
M  END
>  <s_epik_cmdline>  (823) 
J2VwaWtfcHl0aG9uJywgJy1waCcsICc3LjAwMDAwMCcsICctcGh0JywgJzIuMDAwMDAwJywgJy1tcycsICcxNicsICctdG4nLCAnOCcsICctbWEnLCAnMjAwJywgJy1pbWFlJywgJzxpbmZpbGUubWFlPicsICctb21hZScsICc8b3V0ZmlsZS5tYWU+Jw==

>  <s_epik_input>  (823) 
W2NIXTFbY0hdW2NIXVtjSF1bY0hdYzFbQ0BASF0oQyNOKU4oW0NIM10pQyg9TyljKHMyKWMoYyhjMjMpW2NIXVtjSF1bY0hdW2NIXTMpW05IXVtDSDJdYzRbY0hdYyhbY0hdW2NIXVtjSF00KVtDSDJdTihbQ0gzXSlbQ0gzXQ==

>  <s_i_glide_gridfile>  (823) 
ATP-Grid

>  <s_lp_Force_Field>  (823) 
OPLS_2005

>  <s_lp_Variant>  (823) 
rxn512c____EMOL24630243____EMOL523944____EMOL2873214-2

>  <s_lp_label>  (823) 
2164_sdstereoexpander_2_neutralizer_1_epik_1_stereoizer_1

>  <s_m_source_file>  (823) 
ATP-VSW-LIGPREP-003-in.maegz

>  <s_sd_BIOSOLVEIT.INFINISEE\_QUERY\_NAME>  (823) 
Ref-Lig

>  <s_sd_BIOSOLVEIT.INFINISEE\_QUERY\_SMILES>  (823) 
S(c1nc2c(cc1C[NH2+]Cc3ccc(cc3)C[NH+](C)C)cccc2)Cc4ccccc4

>  <s_sd_BIOSOLVEIT.INFINISEE\_REACTION\_NAME>  (823) 
rxn512c

>  <s_sd_BIOSOLVEIT.INFINISEE\_REAGENT1\_NAME>  (823) 
EMOL24630243

>  <s_sd_BIOSOLVEIT.INFINISEE\_REAGENT1\_SMILES>  (823) 
N#CC(NC)c1ccccc1

>  <s_sd_BIOSOLVEIT.INFINISEE\_REAGENT2\_NAME>  (823) 
EMOL523944

>  <s_sd_BIOSOLVEIT.INFINISEE\_REAGENT2\_SMILES>  (823) 
ClC=1c2c(SC1C(=O)O)cccc2

>  <s_sd_BIOSOLVEIT.INFINISEE\_REAGENT3\_NAME>  (823) 
EMOL2873214

>  <s_sd_BIOSOLVEIT.INFINISEE\_REAGENT3\_SMILES>  (823) 
N(Cc1cc(ccc1)CN)(C)C

>  <s_sd_BIOSOLVEIT.INFINISEE\_SPACE>  (823) 
eXplore_7tr_2022-12

>  <s_vsw_compound_code>  (823) 
69219

>  <s_vsw_variant>  (823) 
69219-2

>  <r_epik_Charging_Adjusted_Penalty>  (823) 
0.086140609825027206

>  <r_epik_Ionization_Penalty>  (823) 
0.043299999999999998

>  <r_epik_Ionization_Penalty_Charging>  (823) 
0.043099999999999999

>  <r_epik_Ionization_Penalty_Neutral>  (823) 
0.00029999999999999997

>  <r_epik_State_Penalty>  (823) 
0.043099999999999999

>  <r_i_docking_score>  (823) 
-4.11342890582325

>  <r_i_glide_ecoul>  (823) 
-6.3578681945800799

>  <r_i_glide_eff_state_penalty>  (823) 
0.043099999999999999

>  <r_i_glide_einternal>  (823) 
13.855074882507299

>  <r_i_glide_emodel>  (823) 
-48.478677428043

>  <r_i_glide_energy>  (823) 
-41.401832580566399

>  <r_i_glide_erotb>  (823) 
0.64110451447296901

>  <r_i_glide_esite>  (823) 
-0.156741131562566

>  <r_i_glide_evdw>  (823) 
-35.0439643859863

>  <r_i_glide_gscore>  (823) 
-4.15652890582325

>  <r_i_glide_hbond>  (823) 
0

>  <r_i_glide_ligand_efficiency>  (823) 
-0.12098320311244901

>  <r_i_glide_ligand_efficiency_ln>  (823) 
-0.90877182306905901

>  <r_i_glide_ligand_efficiency_sa>  (823) 
-0.39193861209873398

>  <r_i_glide_lipo>  (823) 
-1.4121680306148801

>  <r_i_glide_metal>  (823) 
-0

>  <r_i_glide_rewards>  (823) 
-0.52284580963245098

>  <r_lp_Energy>  (823) 
38.328453000000003

>  <r_qp_ACxDN^.5/SA>  (823) 
0

>  <r_qp_CIQPlogS>  (823) 
-6.1719999999999997

>  <r_qp_EA(eV)>  (823) 
0.78200000000000003

>  <r_qp_FISA>  (823) 
83.753

>  <r_qp_FOSA>  (823) 
237.82400000000001

>  <r_qp_IP(eV)>  (823) 
8.1479999999999997

>  <r_qp_Jm>  (823) 
3.1433432360037802e-05

>  <r_qp_PISA>  (823) 
450.43700000000001

>  <r_qp_PSA>  (823) 
65.777000000000001

>  <r_qp_PercentHumanOralAbsorption>  (823) 
91.614999999999995

>  <r_qp_QPPCaco>  (823) 
98.962999999999994

>  <r_qp_QPPMDCK>  (823) 
80.739000000000004

>  <r_qp_QPlogBB>  (823) 
-0.002

>  <r_qp_QPlogHERG>  (823) 
-8.6709999999999994

>  <r_qp_QPlogKhsa>  (823) 
0.84699999999999998

>  <r_qp_QPlogKp>  (823) 
-4.7370000000000001

>  <r_qp_QPlogPC16>  (823) 
16.297999999999998

>  <r_qp_QPlogPo/w>  (823) 
4.9450000000000003

>  <r_qp_QPlogPoct>  (823) 
21.920000000000002

>  <r_qp_QPlogPw>  (823) 
9.734

>  <r_qp_QPlogS>  (823) 
-5.4359999999999999

>  <r_qp_QPpolrz>  (823) 
52.331000000000003

>  <r_qp_SASA>  (823) 
810.48599999999999

>  <r_qp_SAamideO>  (823) 
0

>  <r_qp_SAfluorine>  (823) 
0

>  <r_qp_WPSA>  (823) 
38.472000000000001

>  <r_qp_accptHB>  (823) 
6.5

>  <r_qp_dip^2/V>  (823) 
0.062437800000000002

>  <r_qp_dipole>  (823) 
9.6720000000000006

>  <r_qp_donorHB>  (823) 
0

>  <r_qp_glob>  (823) 
0.78130100000000002

>  <r_qp_mol_MW>  (823) 
468.61500000000001

>  <r_qp_volume>  (823) 
1498.297

>  <r_sd_BIOSOLVEIT.INFINISEE\_FTREES\_SIMILARITY>  (823) 
0.94199999999999995

>  <r_sd_BIOSOLVEIT.LOGP>  (823) 
4.4947800000000004

>  <r_sd_BIOSOLVEIT.MOLECULAR\_WEIGHT>  (823) 
469.62900000000002

>  <r_sd_BIOSOLVEIT.TPSA>  (823) 
60.57

>  <i_epik_Tot_Q>  (823) 
1

>  <i_epik_Tot_abs_Q>  (823) 
1

>  <i_f3d_flags>  (823) 
0

>  <i_i_glide_confnum>  (823) 
9

>  <i_i_glide_lignum>  (823) 
819

>  <i_i_glide_posenum>  (823) 
10

>  <i_i_glide_rotatable_bonds>  (823) 
9

>  <i_lp_mmshare_version>  (823) 
65135

>  <i_m_ct_format>  (823) 
2

>  <i_m_source_file_index>  (823) 
2164

>  <i_qp_#NandO>  (823) 
5

>  <i_qp_#acid>  (823) 
0

>  <i_qp_#amide>  (823) 
0

>  <i_qp_#amidine>  (823) 
0

>  <i_qp_#amine>  (823) 
2

>  <i_qp_#in34>  (823) 
0

>  <i_qp_#in56>  (823) 
21

>  <i_qp_#metab>  (823) 
7

>  <i_qp_#nonHatm>  (823) 
34

>  <i_qp_#noncon>  (823) 
0

>  <i_qp_#ringatoms>  (823) 
21

>  <i_qp_#rotor>  (823) 
9

>  <i_qp_#rtvFG>  (823) 
0

>  <i_qp_#stars>  (823) 
1

>  <i_qp_CNS>  (823) 
1

>  <i_qp_HumanOralAbsorption>  (823) 
3

>  <i_qp_RuleOfFive>  (823) 
0

>  <i_qp_RuleOfThree>  (823) 
1

>  <i_sd_BIOSOLVEIT.INFINISEE\_RESULT\_RANK>  (823) 
1012

>  <i_sd_version>  (823) 
0

>  <b_lp_Chiralities_Consistent>  (823) 
1

>  <b_sd_chiral_flag>  (823) 
0

>  <canonical_id>  (823) 
ATP-HTVS-8313972BDCAD

>  <compound_code>  (823) 
69219

>  <title>  (823) 
rxn512c____EMOL24630243____EMOL523944____EMOL2873214

>  <variant>  (823) 
69219-2

>  <source_file>  (823) 
运行/运行/ATP-VSW/ATP-VSW-DOCK_HTVS_1-003_lib/ATP-VSW-DOCK_HTVS_1-003_lib.mae

>  <canonical_smiles>  (823) 
CN(C(=O)c1sc2ccccc2c1NCc1cccc(C[NH+](C)C)c1)[C@H](C#N)c1ccccc1

>  <scaffold>  (823) 
O=C(NCc1ccccc1)c1sc2ccccc2c1NCc1ccccc1

>  <molecular_formula>  (823) 
C28H29N4OS+

$$$$
ATP-HTVS-83530B88E656
     RDKit          3D

 64 67  0  0  0  0  0  0  0  0999 V2000
  197.7618  185.8370  157.1582 S   0  0  0  0  0  0  0  0  0  0  0  0
  196.7030  184.6822  157.9645 C   0  0  0  0  0  0  0  0  0  0  0  0
  196.7007  183.4396  157.2638 C   0  0  0  0  0  0  0  0  0  0  0  0
  195.9085  182.4046  157.8322 C   0  0  0  0  0  0  0  0  0  0  0  0
  195.1300  182.6001  158.9810 C   0  0  0  0  0  0  0  0  0  0  0  0
  195.1321  183.8439  159.6397 C   0  0  0  0  0  0  0  0  0  0  0  0
  195.9425  184.8881  159.1309 C   0  0  0  0  0  0  0  0  0  0  0  0
  197.5480  183.4663  156.0833 C   0  0  0  0  0  0  0  0  0  0  0  0
  197.6799  182.3637  155.2381 N   0  0  0  0  0  0  0  0  0  0  0  0
  196.6021  181.4737  154.8464 C   0  0  1  0  0  0  0  0  0  0  0  0
  196.7291  181.1485  153.3810 C   0  0  0  0  0  0  0  0  0  0  0  0
  196.6186  182.1868  152.4378 C   0  0  0  0  0  0  0  0  0  0  0  0
  196.7137  181.9136  151.0605 C   0  0  0  0  0  0  0  0  0  0  0  0
  196.9115  180.5852  150.6298 C   0  0  0  0  0  0  0  0  0  0  0  0
  197.0374  179.5427  151.5704 C   0  0  0  0  0  0  0  0  0  0  0  0
  196.9528  179.8281  152.9474 C   0  0  0  0  0  0  0  0  0  0  0  0
  196.5883  183.0415  150.0512 C   0  0  1  0  0  0  0  0  0  0  0  0
  197.4709  184.1794  150.2974 N   0  0  0  0  0  0  0  0  0  0  0  0
  197.2150  185.2058  149.2951 C   0  0  2  0  0  0  0  0  0  0  0  0
  198.8705  183.7761  150.2098 C   0  0  2  0  0  0  0  0  0  0  0  0
  198.2380  184.6596  155.9606 C   0  0  0  0  0  0  0  0  0  0  0  0
  199.2673  185.1595  155.0030 C   0  0  0  0  0  0  0  0  0  0  0  0
  199.1458  186.3099  154.5888 O   0  0  0  0  0  0  0  0  0  0  0  0
  200.3267  184.3865  154.6378 N   0  0  0  0  0  0  0  0  0  0  0  0
  200.5299  183.0308  155.0504 C   0  0  0  0  0  0  0  0  0  0  0  0
  200.4641  182.6522  156.4019 C   0  0  0  0  0  0  0  0  0  0  0  0
  200.5723  181.2899  156.7560 C   0  0  0  0  0  0  0  0  0  0  0  0
  200.7989  180.3015  155.7742 C   0  0  0  0  0  0  0  0  0  0  0  0
  200.9091  180.6923  154.4224 C   0  0  0  0  0  0  0  0  0  0  0  0
  200.7851  182.0462  154.0637 C   0  0  0  0  0  0  0  0  0  0  0  0
  200.8842  178.8546  156.1308 C   0  0  0  0  0  0  0  0  0  0  0  0
  201.0977  177.9625  155.3047 O   0  0  0  0  0  0  0  0  0  0  0  0
  200.7302  178.6323  157.4473 O   0  0  0  0  0  0  0  0  0  0  0  0
  200.7767  177.3094  157.9459 C   0  0  2  0  0  0  0  0  0  0  0  0
  201.2922  184.9512  153.6848 C   0  0  2  0  0  0  0  0  0  0  0  0
  195.9013  181.4195  157.3866 H   0  0  0  0  0  0  0  0  0  0  0  0
  194.5187  181.7795  159.3418 H   0  0  0  0  0  0  0  0  0  0  0  0
  194.5080  184.0021  160.5035 H   0  0  0  0  0  0  0  0  0  0  0  0
  195.9641  185.8480  159.6348 H   0  0  0  0  0  0  0  0  0  0  0  0
  198.6114  182.0942  154.9718 H   0  0  0  0  0  0  0  0  0  0  0  0
  196.6503  180.5569  155.4390 H   0  0  0  0  0  0  0  0  0  0  0  0
  195.6237  181.9255  155.0163 H   0  0  0  0  0  0  0  0  0  0  0  0
  196.4590  183.1991  152.7839 H   0  0  0  0  0  0  0  0  0  0  0  0
  196.9781  180.3605  149.5732 H   0  0  0  0  0  0  0  0  0  0  0  0
  197.2043  178.5289  151.2414 H   0  0  0  0  0  0  0  0  0  0  0  0
  197.0603  179.0379  153.6729 H   0  0  0  0  0  0  0  0  0  0  0  0
  196.7576  182.6473  149.0467 H   0  0  0  0  0  0  0  0  0  0  0  0
  195.5555  183.3917  150.0915 H   0  0  0  0  0  0  0  0  0  0  0  0
  197.8492  186.0754  149.4716 H   0  0  0  0  0  0  0  0  0  0  0  0
  196.1779  185.5367  149.3309 H   0  0  0  0  0  0  0  0  0  0  0  0
  197.4111  184.8387  148.2860 H   0  0  0  0  0  0  0  0  0  0  0  0
  199.5259  184.6310  150.3774 H   0  0  0  0  0  0  0  0  0  0  0  0
  199.1020  183.3483  149.2332 H   0  0  0  0  0  0  0  0  0  0  0  0
  199.1113  183.0325  150.9713 H   0  0  0  0  0  0  0  0  0  0  0  0
  200.3308  183.3829  157.1942 H   0  0  0  0  0  0  0  0  0  0  0  0
  200.4046  181.0193  157.7826 H   0  0  0  0  0  0  0  0  0  0  0  0
  201.0217  179.9542  153.6431 H   0  0  0  0  0  0  0  0  0  0  0  0
  200.7886  182.3117  153.0178 H   0  0  0  0  0  0  0  0  0  0  0  0
  200.6497  177.3131  159.0289 H   0  0  0  0  0  0  0  0  0  0  0  0
  201.7349  176.8427  157.7121 H   0  0  0  0  0  0  0  0  0  0  0  0
  199.9767  176.7118  157.5067 H   0  0  0  0  0  0  0  0  0  0  0  0
  202.1552  184.3012  153.5470 H   0  0  0  0  0  0  0  0  0  0  0  0
  201.6834  185.9029  154.0577 H   0  0  0  0  0  0  0  0  0  0  0  0
  200.8406  185.1208  152.7031 H   0  0  0  0  0  0  0  0  0  0  0  0
  1  2  1  0
  1 21  1  0
  2  3  1  0
  2  7  2  0
  3  4  2  0
  3  8  1  0
  4  5  1  0
  4 36  1  0
  5  6  2  0
  5 37  1  0
  6  7  1  0
  6 38  1  0
  7 39  1  0
  8  9  1  0
  8 21  2  0
  9 10  1  0
  9 40  1  0
 10 11  1  0
 10 41  1  1
 10 42  1  0
 11 12  2  0
 11 16  1  0
 12 13  1  0
 12 43  1  0
 13 14  2  0
 13 17  1  0
 14 15  1  0
 14 44  1  0
 15 16  2  0
 15 45  1  0
 16 46  1  0
 17 18  1  0
 17 47  1  6
 17 48  1  0
 18 19  1  0
 18 20  1  0
 19 49  1  1
 19 50  1  0
 19 51  1  0
 20 52  1  1
 20 53  1  0
 20 54  1  0
 21 22  1  0
 22 23  2  0
 22 24  1  0
 24 25  1  0
 24 35  1  0
 25 26  1  0
 25 30  2  0
 26 27  2  0
 26 55  1  0
 27 28  1  0
 27 56  1  0
 28 29  2  0
 28 31  1  0
 29 30  1  0
 29 57  1  0
 30 58  1  0
 31 32  2  0
 31 33  1  0
 33 34  1  0
 34 59  1  1
 34 60  1  0
 34 61  1  0
 35 62  1  6
 35 63  1  0
 35 64  1  0
M  END
>  <s_epik_Chemistry_Notes>  (824) 
This compound has an ester and may undergo hydrolysis at high or low pH.

>  <s_epik_cmdline>  (824) 
J2VwaWtfcHl0aG9uJywgJy1waCcsICc3LjAwMDAwMCcsICctcGh0JywgJzIuMDAwMDAwJywgJy1tcycsICcxNicsICctdG4nLCAnOCcsICctbWEnLCAnMjAwJywgJy1pbWFlJywgJzxpbmZpbGUubWFlPicsICctb21hZScsICc8b3V0ZmlsZS5tYWU+Jw==

>  <s_epik_input>  (824) 
W0NIM11PQyg9TyljKFtjSF1bY0hdMSlbY0hdW2NIXWMxTihbQ0gzXSlDKD1PKWMoczIpYyhjKGMyMylbY0hdW2NIXVtjSF1bY0hdMylbTkhdW0NIMl1jNFtjSF1jKFtjSF1bY0hdW2NIXTQpW0NIMl1OKFtDSDNdKVtDSDNd

>  <s_i_glide_gridfile>  (824) 
ATP-Grid

>  <s_lp_Force_Field>  (824) 
OPLS_2005

>  <s_lp_Variant>  (824) 
rxn512c____EMOL884318____EMOL523944____EMOL2873214-2

>  <s_lp_label>  (824) 
2238_sdstereoexpander_1_neutralizer_1_epik_2_stereoizer_1

>  <s_m_source_file>  (824) 
ATP-VSW-LIGPREP-001-in.maegz

>  <s_sd_BIOSOLVEIT.INFINISEE\_QUERY\_NAME>  (824) 
Ref-Lig

>  <s_sd_BIOSOLVEIT.INFINISEE\_QUERY\_SMILES>  (824) 
S(c1nc2c(cc1C[NH2+]Cc3ccc(cc3)C[NH+](C)C)cccc2)Cc4ccccc4

>  <s_sd_BIOSOLVEIT.INFINISEE\_REACTION\_NAME>  (824) 
rxn512c

>  <s_sd_BIOSOLVEIT.INFINISEE\_REAGENT1\_NAME>  (824) 
EMOL884318

>  <s_sd_BIOSOLVEIT.INFINISEE\_REAGENT1\_SMILES>  (824) 
O=C(OC)c1ccc(NC)cc1

>  <s_sd_BIOSOLVEIT.INFINISEE\_REAGENT2\_NAME>  (824) 
EMOL523944

>  <s_sd_BIOSOLVEIT.INFINISEE\_REAGENT2\_SMILES>  (824) 
ClC=1c2c(SC1C(=O)O)cccc2

>  <s_sd_BIOSOLVEIT.INFINISEE\_REAGENT3\_NAME>  (824) 
EMOL2873214

>  <s_sd_BIOSOLVEIT.INFINISEE\_REAGENT3\_SMILES>  (824) 
N(Cc1cc(ccc1)CN)(C)C

>  <s_sd_BIOSOLVEIT.INFINISEE\_SPACE>  (824) 
eXplore_7tr_2022-12

>  <s_vsw_compound_code>  (824) 
71585

>  <s_vsw_variant>  (824) 
71585-2

>  <r_epik_Charging_Adjusted_Penalty>  (824) 
1.5746020351915

>  <r_epik_Ionization_Penalty>  (824) 
1.5746

>  <r_epik_Ionization_Penalty_Charging>  (824) 
0

>  <r_epik_Ionization_Penalty_Neutral>  (824) 
1.5746

>  <r_epik_State_Penalty>  (824) 
1.5746

>  <r_i_docking_score>  (824) 
-1.0755973152635701

>  <r_i_glide_ecoul>  (824) 
0.32468026876449602

>  <r_i_glide_eff_state_penalty>  (824) 
1.5746

>  <r_i_glide_einternal>  (824) 
6.4640007019043004

>  <r_i_glide_emodel>  (824) 
-41.6711770656472

>  <r_i_glide_energy>  (824) 
-38.338012754917102

>  <r_i_glide_erotb>  (824) 
0.68404946877456196

>  <r_i_glide_esite>  (824) 
-0.020672534051090999

>  <r_i_glide_evdw>  (824) 
-38.662693023681598

>  <r_i_glide_gscore>  (824) 
-2.6501973152635698

>  <r_i_glide_hbond>  (824) 
0

>  <r_i_glide_ligand_efficiency>  (824) 
-0.030731351864673399

>  <r_i_glide_ligand_efficiency_ln>  (824) 
-0.23611748229659801

>  <r_i_glide_ligand_efficiency_sa>  (824) 
-0.10052428963195099

>  <r_i_glide_lipo>  (824) 
-1.34469273002672

>  <r_i_glide_metal>  (824) 
-0

>  <r_i_glide_rewards>  (824) 
-0.084448909090908894

>  <r_lp_Energy>  (824) 
51.408917000000002

>  <r_qp_ACxDN^.5/SA>  (824) 
0

>  <r_qp_CIQPlogS>  (824) 
-5.3440000000000003

>  <r_qp_EA(eV)>  (824) 
0.68000000000000005

>  <r_qp_FISA>  (824) 
93.137

>  <r_qp_FOSA>  (824) 
359.26499999999999

>  <r_qp_IP(eV)>  (824) 
7.9409999999999998

>  <r_qp_Jm>  (824) 
1.5337826060819299e-05

>  <r_qp_PISA>  (824) 
379.28800000000001

>  <r_qp_PSA>  (824) 
77.197000000000003

>  <r_qp_PercentHumanOralAbsorption>  (824) 
90.099999999999994

>  <r_qp_QPPCaco>  (824) 
80.626999999999995

>  <r_qp_QPPMDCK>  (824) 
57.356000000000002

>  <r_qp_QPlogBB>  (824) 
-0.13200000000000001

>  <r_qp_QPlogHERG>  (824) 
-8.7119999999999997

>  <r_qp_QPlogKhsa>  (824) 
0.95199999999999996

>  <r_qp_QPlogKp>  (824) 
-5.2569999999999997

>  <r_qp_QPlogPC16>  (824) 
16.597000000000001

>  <r_qp_QPlogPo/w>  (824) 
4.9580000000000002

>  <r_qp_QPlogPoct>  (824) 
22.562999999999999

>  <r_qp_QPlogPw>  (824) 
10.144

>  <r_qp_QPlogS>  (824) 
-5.2450000000000001

>  <r_qp_QPpolrz>  (824) 
55.000999999999998

>  <r_qp_SASA>  (824) 
860.61300000000006

>  <r_qp_SAamideO>  (824) 
0

>  <r_qp_SAfluorine>  (824) 
0

>  <r_qp_WPSA>  (824) 
28.922999999999998

>  <r_qp_accptHB>  (824) 
7

>  <r_qp_dip^2/V>  (824) 
0.035012500000000002

>  <r_qp_dipole>  (824) 
7.4050000000000002

>  <r_qp_donorHB>  (824) 
0

>  <r_qp_glob>  (824) 
0.75778429999999997

>  <r_qp_mol_MW>  (824) 
487.61500000000001

>  <r_qp_volume>  (824) 
1565.9670000000001

>  <r_sd_BIOSOLVEIT.INFINISEE\_FTREES\_SIMILARITY>  (824) 
0.92700000000000005

>  <r_sd_BIOSOLVEIT.LOGP>  (824) 
4.2210999999999999

>  <r_sd_BIOSOLVEIT.MOLECULAR\_WEIGHT>  (824) 
488.62799999999999

>  <r_sd_BIOSOLVEIT.TPSA>  (824) 
63.079999999999998

>  <i_epik_Tot_Q>  (824) 
0

>  <i_epik_Tot_abs_Q>  (824) 
0

>  <i_f3d_flags>  (824) 
0

>  <i_i_glide_confnum>  (824) 
9

>  <i_i_glide_lignum>  (824) 
760

>  <i_i_glide_posenum>  (824) 
2

>  <i_i_glide_rotatable_bonds>  (824) 
10

>  <i_lp_mmshare_version>  (824) 
65135

>  <i_m_ct_format>  (824) 
2

>  <i_m_source_file_index>  (824) 
2238

>  <i_qp_#NandO>  (824) 
6

>  <i_qp_#acid>  (824) 
0

>  <i_qp_#amide>  (824) 
0

>  <i_qp_#amidine>  (824) 
0

>  <i_qp_#amine>  (824) 
2

>  <i_qp_#in34>  (824) 
0

>  <i_qp_#in56>  (824) 
21

>  <i_qp_#metab>  (824) 
6

>  <i_qp_#nonHatm>  (824) 
35

>  <i_qp_#noncon>  (824) 
0

>  <i_qp_#ringatoms>  (824) 
21

>  <i_qp_#rotor>  (824) 
8

>  <i_qp_#rtvFG>  (824) 
1

>  <i_qp_#stars>  (824) 
0

>  <i_qp_CNS>  (824) 
1

>  <i_qp_HumanOralAbsorption>  (824) 
3

>  <i_qp_RuleOfFive>  (824) 
0

>  <i_qp_RuleOfThree>  (824) 
0

>  <i_sd_BIOSOLVEIT.INFINISEE\_RESULT\_RANK>  (824) 
6704

>  <i_sd_version>  (824) 
0

>  <b_lp_Chiralities_Consistent>  (824) 
1

>  <b_sd_chiral_flag>  (824) 
0

>  <canonical_id>  (824) 
ATP-HTVS-83530B88E656

>  <compound_code>  (824) 
71585

>  <title>  (824) 
rxn512c____EMOL884318____EMOL523944____EMOL2873214

>  <variant>  (824) 
71585-2

>  <source_file>  (824) 
运行/运行/ATP-VSW/ATP-VSW-DOCK_HTVS_1-001_lib/ATP-VSW-DOCK_HTVS_1-001_lib

>  <canonical_smiles>  (824) 
COC(=O)c1ccc(N(C)C(=O)c2sc3ccccc3c2NCc2cccc(CN(C)C)c2)cc1

>  <scaffold>  (824) 
O=C(Nc1ccccc1)c1sc2ccccc2c1NCc1ccccc1

>  <molecular_formula>  (824) 
C28H29N3O3S

$$$$
ATP-HTVS-8365FF7884A6
     RDKit          3D

 47 50  0  0  0  0  0  0  0  0999 V2000
  197.5209  183.8468  154.2422 O   0  0  0  0  0  0  0  0  0  0  0  0
  197.3161  183.7827  152.8839 C   0  0  0  0  0  0  0  0  0  0  0  0
  196.8253  182.4964  152.5473 C   0  0  0  0  0  0  0  0  0  0  0  0
  196.5490  182.2550  151.1854 C   0  0  0  0  0  0  0  0  0  0  0  0
  196.7671  183.2575  150.2169 C   0  0  0  0  0  0  0  0  0  0  0  0
  197.2671  184.5221  150.5869 C   0  0  0  0  0  0  0  0  0  0  0  0
  197.5549  184.7933  151.9389 C   0  0  0  0  0  0  0  0  0  0  0  0
  196.7460  181.7556  153.7718 C   0  0  0  0  0  0  0  0  0  0  0  0
  197.1590  182.6255  154.7545 C   0  0  0  0  0  0  0  0  0  0  0  0
  197.2991  182.4638  156.2297 C   0  0  1  0  0  0  0  0  0  0  0  0
  196.0630  181.9003  156.8433 N   0  0  1  0  0  0  0  0  0  0  0  0
  196.0357  181.8592  158.3267 C   0  0  1  0  0  0  0  0  0  0  0  0
  196.0148  183.2454  158.9352 C   0  0  0  0  0  0  0  0  0  0  0  0
  194.7870  183.8369  159.2911 C   0  0  0  0  0  0  0  0  0  0  0  0
  194.7690  185.1341  159.8301 C   0  0  0  0  0  0  0  0  0  0  0  0
  195.9702  185.8501  159.9855 C   0  0  0  0  0  0  0  0  0  0  0  0
  197.1983  185.2596  159.6304 C   0  0  0  0  0  0  0  0  0  0  0  0
  197.2238  183.9469  159.1404 C   0  0  0  0  0  0  0  0  0  0  0  0
  195.9513  187.2500  160.5509 C   0  0  1  0  0  0  0  0  0  0  0  0
  195.1930  187.3174  161.7313 O   0  0  0  0  0  0  0  0  0  0  0  0
  198.5401  181.6432  156.5749 C   0  0  0  0  0  0  0  0  0  0  0  0
  199.6303  182.3392  156.9717 N   0  0  0  0  0  0  0  0  0  0  0  0
  200.7455  181.6525  157.3040 C   0  0  0  0  0  0  0  0  0  0  0  0
  200.8295  180.2484  157.2509 C   0  0  0  0  0  0  0  0  0  0  0  0
  199.6947  179.5247  156.8398 C   0  0  0  0  0  0  0  0  0  0  0  0
  198.5307  180.2334  156.4893 C   0  0  0  0  0  0  0  0  0  0  0  0
  195.2569  182.4117  156.4909 H   0  0  0  0  0  0  0  0  0  0  0  0
  196.1620  181.2896  150.9019 H   0  0  0  0  0  0  0  0  0  0  0  0
  196.5529  183.0507  149.1806 H   0  0  0  0  0  0  0  0  0  0  0  0
  197.4390  185.2765  149.8350 H   0  0  0  0  0  0  0  0  0  0  0  0
  197.9402  185.7552  152.2481 H   0  0  0  0  0  0  0  0  0  0  0  0
  196.4145  180.7361  153.8912 H   0  0  0  0  0  0  0  0  0  0  0  0
  197.4425  183.4750  156.6129 H   0  0  0  0  0  0  0  0  0  0  0  0
  195.1303  181.3203  158.6221 H   0  0  0  0  0  0  0  0  0  0  0  0
  196.8809  181.2860  158.7166 H   0  0  0  0  0  0  0  0  0  0  0  0
  193.8585  183.3080  159.1436 H   0  0  0  0  0  0  0  0  0  0  0  0
  193.8270  185.5878  160.1106 H   0  0  0  0  0  0  0  0  0  0  0  0
  198.1227  185.8082  159.7335 H   0  0  0  0  0  0  0  0  0  0  0  0
  198.1763  183.5001  158.9019 H   0  0  0  0  0  0  0  0  0  0  0  0
  196.9732  187.5788  160.7737 H   0  0  0  0  0  0  0  0  0  0  0  0
  195.5474  187.9469  159.8086 H   0  0  0  0  0  0  0  0  0  0  0  0
  195.5862  187.9676  162.3010 H   0  0  0  0  0  0  0  0  0  0  0  0
  201.5892  182.2378  157.6394 H   0  0  0  0  0  0  0  0  0  0  0  0
  201.7361  179.7344  157.5412 H   0  0  0  0  0  0  0  0  0  0  0  0
  199.7007  178.4447  156.8206 H   0  0  0  0  0  0  0  0  0  0  0  0
  197.6490  179.6809  156.1960 H   0  0  0  0  0  0  0  0  0  0  0  0
  195.9581  180.9380  156.5502 H   0  0  0  0  0  0  0  0  0  0  0  0
  1  2  1  0
  1  9  1  0
  2  3  1  0
  2  7  2  0
  3  4  2  0
  3  8  1  0
  4  5  1  0
  4 28  1  0
  5  6  2  0
  5 29  1  0
  6  7  1  0
  6 30  1  0
  7 31  1  0
  8  9  2  0
  8 32  1  0
  9 10  1  0
 10 11  1  0
 10 21  1  0
 10 33  1  1
 11 12  1  0
 11 27  1  6
 11 47  1  0
 12 13  1  0
 12 34  1  6
 12 35  1  0
 13 14  1  0
 13 18  2  0
 14 15  2  0
 14 36  1  0
 15 16  1  0
 15 37  1  0
 16 17  2  0
 16 19  1  0
 17 18  1  0
 17 38  1  0
 18 39  1  0
 19 20  1  0
 19 40  1  1
 19 41  1  0
 20 42  1  0
 21 22  1  0
 21 26  2  0
 22 23  2  0
 23 24  1  0
 23 43  1  0
 24 25  2  0
 24 44  1  0
 25 26  1  0
 25 45  1  0
 26 46  1  0
M  CHG  1  11   1
M  END
>  <s_epik_cmdline>  (825) 
J2VwaWtfcHl0aG9uJywgJy1waCcsICc3LjAwMDAwMCcsICctcGh0JywgJzIuMDAwMDAwJywgJy1tcycsICcxNicsICctdG4nLCAnOCcsICctbWEnLCAnMjAwJywgJy1pbWFlJywgJzxpbmZpbGUubWFlPicsICctb21hZScsICc8b3V0ZmlsZS5tYWU+Jw==

>  <s_epik_input>  (825) 
W2NIXTFbY0hdW2NIXVtjSF1jKGMxMilbY0hdYyhvMilbQ0BIXShjM25bY0hdW2NIXVtjSF1bY0hdMylbTkhdW0NIMl1jNFtjSF1bY0hdYyhbY0hdW2NIXTQpW0NIMl1bT0hd

>  <s_i_glide_gridfile>  (825) 
ATP-Grid

>  <s_lp_Force_Field>  (825) 
OPLS_2005

>  <s_lp_Variant>  (825) 
m_269862bba____11568786____13192834-2

>  <s_lp_label>  (825) 
2011_sdstereoexpander_2_neutralizer_1_epik_1_stereoizer_1

>  <s_m_source_file>  (825) 
ATP-VSW-LIGPREP-001-in.maegz

>  <s_sd_BIOSOLVEIT.INFINISEE\_QUERY\_NAME>  (825) 
Ref-Lig

>  <s_sd_BIOSOLVEIT.INFINISEE\_QUERY\_SMILES>  (825) 
S(c1nc2c(cc1C[NH2+]Cc3ccc(cc3)C[NH+](C)C)cccc2)Cc4ccccc4

>  <s_sd_BIOSOLVEIT.INFINISEE\_REACTION\_NAME>  (825) 
m_269862bba

>  <s_sd_BIOSOLVEIT.INFINISEE\_REAGENT1\_SMILES>  (825) 
[R1*]NCc1ccc(cc1)CO

>  <s_sd_BIOSOLVEIT.INFINISEE\_REAGENT2\_SMILES>  (825) 
[R1*]C(c1ncccc1)C=2Oc3c(cccc3)C2

>  <s_sd_BIOSOLVEIT.INFINISEE\_SPACE>  (825) 
REALSpace_44bn_2023-08

>  <s_vsw_compound_code>  (825) 
64321

>  <s_vsw_variant>  (825) 
64321-2

>  <r_epik_Charging_Adjusted_Penalty>  (825) 
0.42020546284139898

>  <r_epik_Ionization_Penalty>  (825) 
0.21010000000000001

>  <r_epik_Ionization_Penalty_Charging>  (825) 
0.21010000000000001

>  <r_epik_Ionization_Penalty_Neutral>  (825) 
0

>  <r_epik_State_Penalty>  (825) 
0.21010000000000001

>  <r_i_docking_score>  (825) 
-5.6482885845457202

>  <r_i_glide_ecoul>  (825) 
-13.152844429016101

>  <r_i_glide_eff_state_penalty>  (825) 
0.21010000000000001

>  <r_i_glide_einternal>  (825) 
2.1872076988220202

>  <r_i_glide_emodel>  (825) 
-68.005764432537205

>  <r_i_glide_energy>  (825) 
-45.218132972717299

>  <r_i_glide_erotb>  (825) 
0.95546058552659197

>  <r_i_glide_esite>  (825) 
-0.099131092448366598

>  <r_i_glide_evdw>  (825) 
-32.0652885437012

>  <r_i_glide_gscore>  (825) 
-5.85838858454572

>  <r_i_glide_hbond>  (825) 
-0.52769198763268998

>  <r_i_glide_ligand_efficiency>  (825) 
-0.21724186863637401

>  <r_i_glide_ligand_efficiency_ln>  (825) 
-1.3264820405340501

>  <r_i_glide_ligand_efficiency_sa>  (825) 
-0.64357818102978104

>  <r_i_glide_lipo>  (825) 
-1.5568418620901401

>  <r_i_glide_metal>  (825) 
-0

>  <r_i_glide_rewards>  (825) 
-1.0539931363636399

>  <r_lp_Energy>  (825) 
7.0181789999999999

>  <r_qp_ACxDN^.5/SA>  (825) 
0.0098060000000000005

>  <r_qp_CIQPlogS>  (825) 
-4.4790000000000001

>  <r_qp_EA(eV)>  (825) 
0.38800000000000001

>  <r_qp_FISA>  (825) 
68.765000000000001

>  <r_qp_FOSA>  (825) 
83.194999999999993

>  <r_qp_IP(eV)>  (825) 
8.7530000000000001

>  <r_qp_Jm>  (825) 
0.062109025165483299

>  <r_qp_PISA>  (825) 
525.86800000000005

>  <r_qp_PSA>  (825) 
53.889000000000003

>  <r_qp_PercentHumanOralAbsorption>  (825) 
100

>  <r_qp_QPPCaco>  (825) 
550.428

>  <r_qp_QPPMDCK>  (825) 
287.05000000000001

>  <r_qp_QPlogBB>  (825) 
-0.191

>  <r_qp_QPlogHERG>  (825) 
-8.1329999999999991

>  <r_qp_QPlogKhsa>  (825) 
0.51400000000000001

>  <r_qp_QPlogKp>  (825) 
-2.3250000000000002

>  <r_qp_QPlogPC16>  (825) 
13.75

>  <r_qp_QPlogPo/w>  (825) 
4.0830000000000002

>  <r_qp_QPlogPoct>  (825) 
18.98

>  <r_qp_QPlogPw>  (825) 
11.41

>  <r_qp_QPlogS>  (825) 
-4.4189999999999996

>  <r_qp_QPpolrz>  (825) 
41.170000000000002

>  <r_qp_SASA>  (825) 
677.82799999999997

>  <r_qp_SAamideO>  (825) 
0

>  <r_qp_SAfluorine>  (825) 
0

>  <r_qp_WPSA>  (825) 
0

>  <r_qp_accptHB>  (825) 
4.7000000000000002

>  <r_qp_dip^2/V>  (825) 
0.001075

>  <r_qp_dipole>  (825) 
1.121

>  <r_qp_donorHB>  (825) 
2

>  <r_qp_glob>  (825) 
0.79190050000000001

>  <r_qp_mol_MW>  (825) 
344.41199999999998

>  <r_qp_volume>  (825) 
1169.3309999999999

>  <r_sd_BIOSOLVEIT.INFINISEE\_FTREES\_SIMILARITY>  (825) 
0.90200000000000002

>  <r_sd_BIOSOLVEIT.LOGP>  (825) 
3.1730999999999998

>  <r_sd_BIOSOLVEIT.MOLECULAR\_WEIGHT>  (825) 
345.42000000000002

>  <r_sd_BIOSOLVEIT.TPSA>  (825) 
62.869999999999997

>  <i_epik_Tot_Q>  (825) 
1

>  <i_epik_Tot_abs_Q>  (825) 
1

>  <i_f3d_flags>  (825) 
0

>  <i_i_glide_confnum>  (825) 
7

>  <i_i_glide_lignum>  (825) 
614

>  <i_i_glide_posenum>  (825) 
15

>  <i_i_glide_rotatable_bonds>  (825) 
7

>  <i_lp_mmshare_version>  (825) 
65135

>  <i_m_ct_format>  (825) 
2

>  <i_m_source_file_index>  (825) 
2011

>  <i_qp_#NandO>  (825) 
4

>  <i_qp_#acid>  (825) 
0

>  <i_qp_#amide>  (825) 
0

>  <i_qp_#amidine>  (825) 
0

>  <i_qp_#amine>  (825) 
1

>  <i_qp_#in34>  (825) 
0

>  <i_qp_#in56>  (825) 
21

>  <i_qp_#metab>  (825) 
7

>  <i_qp_#nonHatm>  (825) 
26

>  <i_qp_#noncon>  (825) 
0

>  <i_qp_#ringatoms>  (825) 
21

>  <i_qp_#rotor>  (825) 
7

>  <i_qp_#rtvFG>  (825) 
0

>  <i_qp_#stars>  (825) 
1

>  <i_qp_CNS>  (825) 
1

>  <i_qp_HumanOralAbsorption>  (825) 
3

>  <i_qp_RuleOfFive>  (825) 
0

>  <i_qp_RuleOfThree>  (825) 
1

>  <i_sd_BIOSOLVEIT.INFINISEE\_REAGENT1\_NAME>  (825) 
11568786

>  <i_sd_BIOSOLVEIT.INFINISEE\_REAGENT2\_NAME>  (825) 
13192834

>  <i_sd_BIOSOLVEIT.INFINISEE\_RESULT\_RANK>  (825) 
91447

>  <i_sd_version>  (825) 
0

>  <b_lp_Chiralities_Consistent>  (825) 
1

>  <b_sd_chiral_flag>  (825) 
0

>  <canonical_id>  (825) 
ATP-HTVS-8365FF7884A6

>  <compound_code>  (825) 
64321

>  <title>  (825) 
m_269862bba____11568786____13192834

>  <variant>  (825) 
64321-2

>  <source_file>  (825) 
运行/运行/ATP-VSW/ATP-VSW-DOCK_HTVS_1-001_lib/ATP-VSW-DOCK_HTVS_1-001_lib

>  <canonical_smiles>  (825) 
OCc1ccc(C[NH2+][C@@H](c2ccccn2)c2cc3ccccc3o2)cc1

>  <scaffold>  (825) 
c1ccc(C[NH2+]C(c2ccccn2)c2cc3ccccc3o2)cc1

>  <molecular_formula>  (825) 
C22H21N2O2+

$$$$
ATP-HTVS-83768D529230
     RDKit          3D

 53 55  0  0  0  0  0  0  0  0999 V2000
  199.1585  181.4135  153.7579 S   0  0  0  0  0  0  0  0  0  0  0  0
  197.9068  181.3123  154.9715 C   0  0  0  0  0  0  0  0  0  0  0  0
  198.0736  180.2047  155.7622 C   0  0  0  0  0  0  0  0  0  0  0  0
  199.2225  179.4415  155.4171 C   0  0  0  0  0  0  0  0  0  0  0  0
  199.5483  178.2810  156.1312 N   0  0  0  0  0  0  0  0  0  0  0  0
  200.9270  177.8268  156.2703 C   0  0  1  0  0  0  0  0  0  0  0  0
  201.2024  176.4841  155.6169 C   0  0  0  0  0  0  0  0  0  0  0  0
  200.7818  176.2345  154.2948 C   0  0  0  0  0  0  0  0  0  0  0  0
  201.0692  174.9981  153.6861 C   0  0  0  0  0  0  0  0  0  0  0  0
  201.7595  173.9988  154.4015 C   0  0  0  0  0  0  0  0  0  0  0  0
  202.1781  174.2532  155.7264 C   0  0  0  0  0  0  0  0  0  0  0  0
  201.9106  175.4944  156.3270 C   0  0  0  0  0  0  0  0  0  0  0  0
  202.0784  172.6656  153.7421 C   0  0  1  0  0  0  0  0  0  0  0  0
  203.4292  172.6383  153.1212 N   0  0  1  0  0  0  0  0  0  0  0  0
  203.5087  173.4069  151.8559 C   0  0  2  0  0  0  0  0  0  0  0  0
  204.5394  172.9856  154.0413 C   0  0  2  0  0  0  0  0  0  0  0  0
  199.9061  179.9614  154.3488 C   0  0  0  0  0  0  0  0  0  0  0  0
  196.8245  182.3400  155.0540 C   0  0  1  0  0  0  0  0  0  0  0  0
  197.1449  183.4061  156.1053 C   0  0  0  0  0  0  0  0  0  0  0  0
  198.0564  184.2035  155.8947 O   0  0  0  0  0  0  0  0  0  0  0  0
  196.3646  183.3995  157.2021 N   0  0  0  0  0  0  0  0  0  0  0  0
  196.3066  184.3330  158.2778 C   0  0  0  0  0  0  0  0  0  0  0  0
  195.1398  184.3203  159.0678 C   0  0  0  0  0  0  0  0  0  0  0  0
  194.9810  185.2320  160.1327 C   0  0  0  0  0  0  0  0  0  0  0  0
  195.9962  186.1624  160.4206 C   0  0  0  0  0  0  0  0  0  0  0  0
  197.1691  186.1775  159.6443 C   0  0  0  0  0  0  0  0  0  0  0  0
  197.3296  185.2687  158.5787 C   0  0  0  0  0  0  0  0  0  0  0  0
  197.4262  179.9288  156.5807 H   0  0  0  0  0  0  0  0  0  0  0  0
  198.8972  177.9967  156.8618 H   0  0  0  0  0  0  0  0  0  0  0  0
  201.6148  178.5541  155.8340 H   0  0  0  0  0  0  0  0  0  0  0  0
  201.1765  177.7816  157.3336 H   0  0  0  0  0  0  0  0  0  0  0  0
  200.2462  176.9906  153.7410 H   0  0  0  0  0  0  0  0  0  0  0  0
  200.7440  174.8151  152.6714 H   0  0  0  0  0  0  0  0  0  0  0  0
  202.7148  173.5036  156.2887 H   0  0  0  0  0  0  0  0  0  0  0  0
  202.2588  175.6913  157.3308 H   0  0  0  0  0  0  0  0  0  0  0  0
  201.9712  171.8772  154.4904 H   0  0  0  0  0  0  0  0  0  0  0  0
  201.3312  172.4243  152.9828 H   0  0  0  0  0  0  0  0  0  0  0  0
  203.2992  174.4652  152.0192 H   0  0  0  0  0  0  0  0  0  0  0  0
  202.7952  173.0384  151.1200 H   0  0  0  0  0  0  0  0  0  0  0  0
  204.5035  173.3494  151.4127 H   0  0  0  0  0  0  0  0  0  0  0  0
  204.4934  174.0282  154.3650 H   0  0  0  0  0  0  0  0  0  0  0  0
  205.5128  172.8466  153.5698 H   0  0  0  0  0  0  0  0  0  0  0  0
  204.5047  172.3438  154.9217 H   0  0  0  0  0  0  0  0  0  0  0  0
  200.8007  179.5904  153.8749 H   0  0  0  0  0  0  0  0  0  0  0  0
  196.7040  182.8462  154.0931 H   0  0  0  0  0  0  0  0  0  0  0  0
  195.8720  181.8514  155.2678 H   0  0  0  0  0  0  0  0  0  0  0  0
  195.6305  182.7035  157.1829 H   0  0  0  0  0  0  0  0  0  0  0  0
  194.3408  183.6286  158.8430 H   0  0  0  0  0  0  0  0  0  0  0  0
  194.0679  185.2301  160.7093 H   0  0  0  0  0  0  0  0  0  0  0  0
  195.8814  186.8591  161.2395 H   0  0  0  0  0  0  0  0  0  0  0  0
  197.9464  186.8950  159.8597 H   0  0  0  0  0  0  0  0  0  0  0  0
  198.2425  185.3215  158.0048 H   0  0  0  0  0  0  0  0  0  0  0  0
  203.5485  171.6468  152.9318 H   0  0  0  0  0  0  0  0  0  0  0  0
  1  2  1  0
  1 17  1  0
  2  3  2  0
  2 18  1  0
  3  4  1  0
  3 28  1  0
  4  5  1  0
  4 17  2  0
  5  6  1  0
  5 29  1  0
  6  7  1  0
  6 30  1  6
  6 31  1  0
  7  8  1  0
  7 12  2  0
  8  9  2  0
  8 32  1  0
  9 10  1  0
  9 33  1  0
 10 11  2  0
 10 13  1  0
 11 12  1  0
 11 34  1  0
 12 35  1  0
 13 14  1  0
 13 36  1  1
 13 37  1  0
 14 15  1  0
 14 16  1  0
 14 53  1  6
 15 38  1  1
 15 39  1  0
 15 40  1  0
 16 41  1  1
 16 42  1  0
 16 43  1  0
 17 44  1  0
 18 19  1  0
 18 45  1  6
 18 46  1  0
 19 20  2  0
 19 21  1  0
 21 22  1  0
 21 47  1  0
 22 23  2  0
 22 27  1  0
 23 24  1  0
 23 48  1  0
 24 25  2  0
 24 49  1  0
 25 26  1  0
 25 50  1  0
 26 27  2  0
 26 51  1  0
 27 52  1  0
M  CHG  1  14   1
M  END
>  <s_epik_cmdline>  (826) 
J2VwaWtfcHl0aG9uJywgJy1waCcsICc3LjAwMDAwMCcsICctcGh0JywgJzIuMDAwMDAwJywgJy1tcycsICcxNicsICctdG4nLCAnOCcsICctbWEnLCAnMjAwJywgJy1pbWFlJywgJzxpbmZpbGUubWFlPicsICctb21hZScsICc8b3V0ZmlsZS5tYWU+Jw==

>  <s_epik_input>  (826) 
W2NIXTFbY0hdW2NIXVtjSF1bY0hdYzFbTkhdQyg9TylbQ0gyXWMyc1tjSF1jKFtjSF0yKVtOSF1bQ0gyXWMzW2NIXVtjSF1jKFtjSF1bY0hdMylbQ0gyXU4oW0NIM10pW0NIM10=

>  <s_i_glide_gridfile>  (826) 
ATP-Grid

>  <s_lp_Force_Field>  (826) 
OPLS_2005

>  <s_lp_Variant>  (826) 
rxn512b____EMOL477532____EMOL15801711____EMOL50155899-1

>  <s_lp_label>  (826) 
2558_sdstereoexpander_1_neutralizer_1_epik_1_stereoizer_1

>  <s_m_source_file>  (826) 
ATP-VSW-LIGPREP-001-in.maegz

>  <s_sd_BIOSOLVEIT.INFINISEE\_QUERY\_NAME>  (826) 
Ref-Lig

>  <s_sd_BIOSOLVEIT.INFINISEE\_QUERY\_SMILES>  (826) 
S(c1nc2c(cc1C[NH2+]Cc3ccc(cc3)C[NH+](C)C)cccc2)Cc4ccccc4

>  <s_sd_BIOSOLVEIT.INFINISEE\_REACTION\_NAME>  (826) 
rxn512b

>  <s_sd_BIOSOLVEIT.INFINISEE\_REAGENT1\_NAME>  (826) 
EMOL477532

>  <s_sd_BIOSOLVEIT.INFINISEE\_REAGENT1\_SMILES>  (826) 
Nc1ccccc1

>  <s_sd_BIOSOLVEIT.INFINISEE\_REAGENT2\_NAME>  (826) 
EMOL15801711

>  <s_sd_BIOSOLVEIT.INFINISEE\_REAGENT2\_SMILES>  (826) 
BrC1=CSC(=C1)CC(=O)O

>  <s_sd_BIOSOLVEIT.INFINISEE\_REAGENT3\_NAME>  (826) 
EMOL50155899

>  <s_sd_BIOSOLVEIT.INFINISEE\_REAGENT3\_SMILES>  (826) 
N(Cc1ccc(cc1)CN)(C)C

>  <s_sd_BIOSOLVEIT.INFINISEE\_SPACE>  (826) 
eXplore_7tr_2022-12

>  <s_vsw_compound_code>  (826) 
81825

>  <s_vsw_variant>  (826) 
81825-1

>  <r_epik_Charging_Adjusted_Penalty>  (826) 
0.080189274810459593

>  <r_epik_Ionization_Penalty>  (826) 
0.040099999999999997

>  <r_epik_Ionization_Penalty_Charging>  (826) 
0.040099999999999997

>  <r_epik_Ionization_Penalty_Neutral>  (826) 
0

>  <r_epik_State_Penalty>  (826) 
0.040099999999999997

>  <r_i_docking_score>  (826) 
-5.8375554312765496

>  <r_i_glide_ecoul>  (826) 
-11.630301475524901

>  <r_i_glide_eff_state_penalty>  (826) 
0.040099999999999997

>  <r_i_glide_einternal>  (826) 
3.5076823234558101

>  <r_i_glide_emodel>  (826) 
-62.098987241852299

>  <r_i_glide_energy>  (826) 
-42.687466621398897

>  <r_i_glide_erotb>  (826) 
0.937907819918814

>  <r_i_glide_esite>  (826) 
-0.26065761024817902

>  <r_i_glide_evdw>  (826) 
-31.057165145873999

>  <r_i_glide_gscore>  (826) 
-5.8776554312765503

>  <r_i_glide_hbond>  (826) 
-0.28622573504606402

>  <r_i_glide_ligand_efficiency>  (826) 
-0.21620575671394601

>  <r_i_glide_ligand_efficiency_ln>  (826) 
-1.35888666477836

>  <r_i_glide_ligand_efficiency_sa>  (826) 
-0.64861726942926001

>  <r_i_glide_lipo>  (826) 
-1.9316901090968699

>  <r_i_glide_metal>  (826) 
-0

>  <r_i_glide_rewards>  (826) 
-1.0395863181818199

>  <r_lp_Energy>  (826) 
19.01586

>  <r_lp_tautomer_probability>  (826) 
0.99999274205267796

>  <r_qp_ACxDN^.5/SA>  (826) 
0.010683

>  <r_qp_CIQPlogS>  (826) 
-3.5950000000000002

>  <r_qp_EA(eV)>  (826) 
0.252

>  <r_qp_FISA>  (826) 
65.391999999999996

>  <r_qp_FOSA>  (826) 
261.03500000000003

>  <r_qp_IP(eV)>  (826) 
8.2680000000000007

>  <r_qp_Jm>  (826) 
0.00091276634626313001

>  <r_qp_PISA>  (826) 
364.35899999999998

>  <r_qp_PSA>  (826) 
54.640999999999998

>  <r_qp_PercentHumanOralAbsorption>  (826) 
89.097999999999999

>  <r_qp_QPPCaco>  (826) 
147.77199999999999

>  <r_qp_QPPMDCK>  (826) 
122.71599999999999

>  <r_qp_QPlogBB>  (826) 
0.26800000000000002

>  <r_qp_QPlogHERG>  (826) 
-8.1530000000000005

>  <r_qp_QPlogKhsa>  (826) 
0.65200000000000002

>  <r_qp_QPlogKp>  (826) 
-4.798

>  <r_qp_QPlogPC16>  (826) 
14.048999999999999

>  <r_qp_QPlogPo/w>  (826) 
3.9830000000000001

>  <r_qp_QPlogPoct>  (826) 
20.456

>  <r_qp_QPlogPw>  (826) 
10.99

>  <r_qp_QPlogS>  (826) 
-3.8210000000000002

>  <r_qp_QPpolrz>  (826) 
43.899000000000001

>  <r_qp_SASA>  (826) 
728.09100000000001

>  <r_qp_SAamideO>  (826) 
0

>  <r_qp_SAfluorine>  (826) 
0

>  <r_qp_WPSA>  (826) 
37.305999999999997

>  <r_qp_accptHB>  (826) 
5.5

>  <r_qp_dip^2/V>  (826) 
0.015658700000000001

>  <r_qp_dipole>  (826) 
4.4980000000000002

>  <r_qp_donorHB>  (826) 
2

>  <r_qp_glob>  (826) 
0.78797870000000003

>  <r_qp_mol_MW>  (826) 
379.51900000000001

>  <r_qp_volume>  (826) 
1292.1199999999999

>  <r_sd_BIOSOLVEIT.INFINISEE\_FTREES\_SIMILARITY>  (826) 
0.91200000000000003

>  <r_sd_BIOSOLVEIT.LOGP>  (826) 
3.1859000000000002

>  <r_sd_BIOSOLVEIT.MOLECULAR\_WEIGHT>  (826) 
380.53199999999998

>  <r_sd_BIOSOLVEIT.TPSA>  (826) 
45.57

>  <i_epik_Tot_Q>  (826) 
1

>  <i_epik_Tot_abs_Q>  (826) 
1

>  <i_f3d_flags>  (826) 
0

>  <i_i_glide_confnum>  (826) 
3

>  <i_i_glide_lignum>  (826) 
1023

>  <i_i_glide_posenum>  (826) 
9

>  <i_i_glide_rotatable_bonds>  (826) 
9

>  <i_lp_mmshare_version>  (826) 
65135

>  <i_m_ct_format>  (826) 
2

>  <i_m_source_file_index>  (826) 
2558

>  <i_qp_#NandO>  (826) 
4

>  <i_qp_#acid>  (826) 
0

>  <i_qp_#amide>  (826) 
0

>  <i_qp_#amidine>  (826) 
0

>  <i_qp_#amine>  (826) 
2

>  <i_qp_#in34>  (826) 
0

>  <i_qp_#in56>  (826) 
17

>  <i_qp_#metab>  (826) 
7

>  <i_qp_#nonHatm>  (826) 
27

>  <i_qp_#noncon>  (826) 
0

>  <i_qp_#ringatoms>  (826) 
17

>  <i_qp_#rotor>  (826) 
8

>  <i_qp_#rtvFG>  (826) 
0

>  <i_qp_#stars>  (826) 
0

>  <i_qp_CNS>  (826) 
1

>  <i_qp_HumanOralAbsorption>  (826) 
3

>  <i_qp_RuleOfFive>  (826) 
0

>  <i_qp_RuleOfThree>  (826) 
1

>  <i_sd_BIOSOLVEIT.INFINISEE\_RESULT\_RANK>  (826) 
36689

>  <i_sd_version>  (826) 
0

>  <b_lp_Chiralities_Consistent>  (826) 
1

>  <b_sd_chiral_flag>  (826) 
0

>  <canonical_id>  (826) 
ATP-HTVS-83768D529230

>  <compound_code>  (826) 
81825

>  <title>  (826) 
rxn512b____EMOL477532____EMOL15801711____EMOL50155899

>  <variant>  (826) 
81825-1

>  <source_file>  (826) 
运行/运行/ATP-VSW/ATP-VSW-DOCK_HTVS_1-001_lib/ATP-VSW-DOCK_HTVS_1-001_lib

>  <canonical_smiles>  (826) 
C[NH+](C)Cc1ccc(CNc2csc(CC(=O)Nc3ccccc3)c2)cc1

>  <scaffold>  (826) 
O=C(Cc1cc(NCc2ccccc2)cs1)Nc1ccccc1

>  <molecular_formula>  (826) 
C22H26N3OS+

$$$$
ATP-HTVS-837D7A211A0E
     RDKit          3D

 69 72  0  0  0  0  0  0  0  0999 V2000
  202.6490  182.2392  153.4851 O   0  0  0  0  0  0  0  0  0  0  0  0
  203.3169  181.2310  154.2238 C   0  0  1  0  0  0  0  0  0  0  0  0
  202.3784  180.5514  155.1993 C   0  0  0  0  0  0  0  0  0  0  0  0
  201.1264  180.0819  154.7582 C   0  0  0  0  0  0  0  0  0  0  0  0
  200.2350  179.4736  155.6694 C   0  0  0  0  0  0  0  0  0  0  0  0
  200.6184  179.3014  157.0160 C   0  0  0  0  0  0  0  0  0  0  0  0
  201.8732  179.7596  157.4554 C   0  0  0  0  0  0  0  0  0  0  0  0
  202.7504  180.3890  156.5505 C   0  0  0  0  0  0  0  0  0  0  0  0
  198.8612  179.0238  155.2088 C   0  0  1  0  0  0  0  0  0  0  0  0
  197.8133  179.9819  155.5042 N   0  0  0  0  0  0  0  0  0  0  0  0
  197.7849  181.1899  154.7879 C   0  0  0  0  0  0  0  0  0  0  0  0
  198.4469  182.2473  155.2886 N   0  0  0  0  0  0  0  0  0  0  0  0
  198.3747  183.4390  154.6829 C   0  0  0  0  0  0  0  0  0  0  0  0
  197.6991  183.6370  153.5505 N   0  0  0  0  0  0  0  0  0  0  0  0
  197.1310  182.5871  152.9434 C   0  0  0  0  0  0  0  0  0  0  0  0
  197.1195  181.2978  153.5542 C   0  0  0  0  0  0  0  0  0  0  0  0
  196.4998  180.2104  152.9103 C   0  0  0  0  0  0  0  0  0  0  0  0
  195.9635  180.4060  151.6213 C   0  0  0  0  0  0  0  0  0  0  0  0
  195.9847  181.6823  151.0294 C   0  0  0  0  0  0  0  0  0  0  0  0
  196.5735  182.7812  151.6776 C   0  0  0  0  0  0  0  0  0  0  0  0
  198.9930  184.5272  155.2285 N   0  0  0  0  0  0  0  0  0  0  0  0
  199.6772  184.4915  156.5068 C   0  0  1  0  0  0  0  0  0  0  0  0
  198.7703  184.2493  157.6859 C   0  0  0  0  0  0  0  0  0  0  0  0
  197.4012  184.5798  157.6580 C   0  0  0  0  0  0  0  0  0  0  0  0
  196.5905  184.3603  158.7982 C   0  0  0  0  0  0  0  0  0  0  0  0
  197.1428  183.8166  159.9558 C   0  0  0  0  0  0  0  0  0  0  0  0
  198.4952  183.4867  159.9666 C   0  0  0  0  0  0  0  0  0  0  0  0
  199.3273  183.6929  158.8508 C   0  0  0  0  0  0  0  0  0  0  0  0
  195.1190  184.6690  158.7867 C   0  0  1  0  0  0  0  0  0  0  0  0
  194.3298  183.4823  158.3581 N   0  0  1  0  0  0  0  0  0  0  0  0
  194.7658  182.2071  158.9170 C   0  0  1  0  0  0  0  0  0  0  0  0
  193.8561  181.0675  158.4615 C   0  0  2  0  0  0  0  0  0  0  0  0
  192.8998  183.6597  158.6770 C   0  0  2  0  0  0  0  0  0  0  0  0
  203.5045  182.9029  152.5722 C   0  0  2  0  0  0  0  0  0  0  0  0
  203.7234  180.4731  153.5509 H   0  0  0  0  0  0  0  0  0  0  0  0
  204.1582  181.6681  154.7660 H   0  0  0  0  0  0  0  0  0  0  0  0
  200.8390  180.2089  153.7244 H   0  0  0  0  0  0  0  0  0  0  0  0
  199.9411  178.8251  157.7084 H   0  0  0  0  0  0  0  0  0  0  0  0
  202.1662  179.6281  158.4866 H   0  0  0  0  0  0  0  0  0  0  0  0
  203.7151  180.7288  156.8986 H   0  0  0  0  0  0  0  0  0  0  0  0
  198.8880  178.7879  154.1534 H   0  0  0  0  0  0  0  0  0  0  0  0
  198.6149  178.1060  155.7302 H   0  0  0  0  0  0  0  0  0  0  0  0
  196.9407  179.5920  155.8258 H   0  0  0  0  0  0  0  0  0  0  0  0
  196.3817  179.2472  153.3964 H   0  0  0  0  0  0  0  0  0  0  0  0
  195.3080  179.6592  151.2074 H   0  0  0  0  0  0  0  0  0  0  0  0
  195.4872  181.8925  150.1407 H   0  0  0  0  0  0  0  0  0  0  0  0
  196.4163  183.7816  151.2650 H   0  0  0  0  0  0  0  0  0  0  0  0
  198.6838  185.4265  154.9030 H   0  0  0  0  0  0  0  0  0  0  0  0
  200.4428  183.7214  156.4678 H   0  0  0  0  0  0  0  0  0  0  0  0
  200.1718  185.4446  156.6685 H   0  0  0  0  0  0  0  0  0  0  0  0
  196.9263  184.9579  156.7711 H   0  0  0  0  0  0  0  0  0  0  0  0
  196.5482  183.6273  160.8399 H   0  0  0  0  0  0  0  0  0  0  0  0
  198.8821  183.0677  160.8725 H   0  0  0  0  0  0  0  0  0  0  0  0
  200.3778  183.4478  158.9327 H   0  0  0  0  0  0  0  0  0  0  0  0
  194.8124  185.0154  159.7700 H   0  0  0  0  0  0  0  0  0  0  0  0
  194.9362  185.5136  158.1250 H   0  0  0  0  0  0  0  0  0  0  0  0
  195.7703  181.9352  158.5922 H   0  0  0  0  0  0  0  0  0  0  0  0
  194.7496  182.2434  160.0111 H   0  0  0  0  0  0  0  0  0  0  0  0
  194.3467  180.2456  158.9796 H   0  0  0  0  0  0  0  0  0  0  0  0
  193.9275  180.8901  157.3871 H   0  0  0  0  0  0  0  0  0  0  0  0
  192.8103  181.0594  158.8066 H   0  0  0  0  0  0  0  0  0  0  0  0
  192.6983  183.7224  159.7561 H   0  0  0  0  0  0  0  0  0  0  0  0
  192.2427  182.9365  158.1178 H   0  0  0  0  0  0  0  0  0  0  0  0
  192.5901  184.6341  158.4137 H   0  0  0  0  0  0  0  0  0  0  0  0
  202.9430  183.6716  152.0416 H   0  0  0  0  0  0  0  0  0  0  0  0
  203.9082  182.2077  151.8340 H   0  0  0  0  0  0  0  0  0  0  0  0
  204.3335  183.3867  153.0901 H   0  0  0  0  0  0  0  0  0  0  0  0
  197.6808  184.5421  153.0805 H   0  0  0  0  0  0  0  0  0  0  0  0
  194.3499  183.3611  157.3544 H   0  0  0  0  0  0  0  0  0  0  0  0
  1  2  1  0
  1 34  1  0
  2  3  1  0
  2 35  1  6
  2 36  1  0
  3  4  2  0
  3  8  1  0
  4  5  1  0
  4 37  1  0
  5  6  2  0
  5  9  1  0
  6  7  1  0
  6 38  1  0
  7  8  2  0
  7 39  1  0
  8 40  1  0
  9 10  1  0
  9 41  1  6
  9 42  1  0
 10 11  1  0
 10 43  1  0
 11 12  2  0
 11 16  1  0
 12 13  1  0
 13 14  2  0
 13 21  1  0
 14 15  1  0
 14 68  1  0
 15 16  1  0
 15 20  2  0
 16 17  2  0
 17 18  1  0
 17 44  1  0
 18 19  2  0
 18 45  1  0
 19 20  1  0
 19 46  1  0
 20 47  1  0
 21 22  1  0
 21 48  1  0
 22 23  1  0
 22 49  1  6
 22 50  1  0
 23 24  2  0
 23 28  1  0
 24 25  1  0
 24 51  1  0
 25 26  2  0
 25 29  1  0
 26 27  1  0
 26 52  1  0
 27 28  2  0
 27 53  1  0
 28 54  1  0
 29 30  1  0
 29 55  1  1
 29 56  1  0
 30 31  1  0
 30 33  1  0
 30 69  1  6
 31 32  1  0
 31 57  1  1
 31 58  1  0
 32 59  1  1
 32 60  1  0
 32 61  1  0
 33 62  1  1
 33 63  1  0
 33 64  1  0
 34 65  1  6
 34 66  1  0
 34 67  1  0
M  CHG  2  14   1  30   1
M  END
>  <s_epik_cmdline>  (827) 
J2VwaWtfcHl0aG9uJywgJy1waCcsICc3LjAwMDAwMCcsICctcGh0JywgJzIuMDAwMDAwJywgJy1tcycsICcxNicsICctdG4nLCAnOCcsICctbWEnLCAnMjAwJywgJy1pbWFlJywgJzxpbmZpbGUubWFlPicsICctb21hZScsICc8b3V0ZmlsZS5tYWU+Jw==

>  <s_epik_input>  (827) 
W0NIM11PW0NIMl1jMVtjSF1jKFtjSF1bY0hdW2NIXTEpW0NIMl1bTkhdYyhjKGMyMylbY0hdW2NIXVtjSF1bY0hdMyluYyhuMilbTkhdW0NIMl1jNFtjSF1jKFtjSF1bY0hdW2NIXTQpW0NIMl1OKFtDSDNdKVtDSDJdW0NIM10=

>  <s_i_glide_gridfile>  (827) 
ATP-Grid

>  <s_lp_Force_Field>  (827) 
OPLS_2005

>  <s_lp_Variant>  (827) 
m_282030aaa____21928106____22360182____21950844-1

>  <s_lp_label>  (827) 
2111_sdstereoexpander_1_neutralizer_1_epik_1_stereoizer_1

>  <s_m_source_file>  (827) 
ATP-VSW-LIGPREP-002-in.maegz

>  <s_sd_BIOSOLVEIT.INFINISEE\_QUERY\_NAME>  (827) 
Ref-Lig

>  <s_sd_BIOSOLVEIT.INFINISEE\_QUERY\_SMILES>  (827) 
S(c1nc2c(cc1C[NH2+]Cc3ccc(cc3)C[NH+](C)C)cccc2)Cc4ccccc4

>  <s_sd_BIOSOLVEIT.INFINISEE\_REACTION\_NAME>  (827) 
m_282030aaa

>  <s_sd_BIOSOLVEIT.INFINISEE\_REAGENT1\_SMILES>  (827) 
[R1*]NCc1cc(ccc1)COC

>  <s_sd_BIOSOLVEIT.INFINISEE\_REAGENT2\_SMILES>  (827) 
[R2*]c1nc([R1*])c2c(n1)cccc2

>  <s_sd_BIOSOLVEIT.INFINISEE\_REAGENT3\_SMILES>  (827) 
[R2*]NCc1cc(ccc1)CN(CC)C

>  <s_sd_BIOSOLVEIT.INFINISEE\_SPACE>  (827) 
REALSpace_44bn_2023-08

>  <s_vsw_compound_code>  (827) 
67522

>  <s_vsw_variant>  (827) 
67522-1

>  <r_epik_Charging_Adjusted_Penalty>  (827) 
0.096610053474859903

>  <r_epik_Ionization_Penalty>  (827) 
0.044900000000000002

>  <r_epik_Ionization_Penalty_Charging>  (827) 
0.044900000000000002

>  <r_epik_Ionization_Penalty_Neutral>  (827) 
0

>  <r_epik_State_Penalty>  (827) 
0.051700000000000003

>  <r_i_docking_score>  (827) 
-2.4829029808365202

>  <r_i_glide_ecoul>  (827) 
-6.4395103454589799

>  <r_i_glide_eff_state_penalty>  (827) 
0.051700000000000003

>  <r_i_glide_einternal>  (827) 
11.489871025085399

>  <r_i_glide_emodel>  (827) 
-12.7737663363053

>  <r_i_glide_energy>  (827) 
-17.943564414977999

>  <r_i_glide_erotb>  (827) 
0.86413549129325695

>  <r_i_glide_esite>  (827) 
-0.14624305093381901

>  <r_i_glide_evdw>  (827) 
-11.504054069519

>  <r_i_glide_gscore>  (827) 
-2.53460298083652

>  <r_i_glide_hbond>  (827) 
-0.219342895143292

>  <r_i_glide_ligand_efficiency>  (827) 
-0.073026558259897498

>  <r_i_glide_ligand_efficiency_ln>  (827) 
-0.54854291153643098

>  <r_i_glide_ligand_efficiency_sa>  (827) 
-0.23657769966735601

>  <r_i_glide_lipo>  (827) 
-1.20300327075786

>  <r_i_glide_metal>  (827) 
-0

>  <r_i_glide_rewards>  (827) 
-0.289019999999998

>  <r_lp_Energy>  (827) 
19.150455999999998

>  <r_qp_ACxDN^.5/SA>  (827) 
0.013258199999999999

>  <r_qp_CIQPlogS>  (827) 
-6.0090000000000003

>  <r_qp_EA(eV)>  (827) 
0.64000000000000001

>  <r_qp_FISA>  (827) 
36.802999999999997

>  <r_qp_FOSA>  (827) 
294.18200000000002

>  <r_qp_IP(eV)>  (827) 
8.077

>  <r_qp_Jm>  (827) 
1.1017329308727499

>  <r_qp_PISA>  (827) 
383.68400000000003

>  <r_qp_PSA>  (827) 
50.966999999999999

>  <r_qp_PercentHumanOralAbsorption>  (827) 
100

>  <r_qp_QPPCaco>  (827) 
1106.1089999999999

>  <r_qp_QPPMDCK>  (827) 
610.33799999999997

>  <r_qp_QPlogBB>  (827) 
-0.036999999999999998

>  <r_qp_QPlogHERG>  (827) 
-6.4390000000000001

>  <r_qp_QPlogKhsa>  (827) 
0.68500000000000005

>  <r_qp_QPlogKp>  (827) 
-1.853

>  <r_qp_QPlogPC16>  (827) 
14.718999999999999

>  <r_qp_QPlogPo/w>  (827) 
4.9489999999999998

>  <r_qp_QPlogPoct>  (827) 
22.178000000000001

>  <r_qp_QPlogPw>  (827) 
11.401

>  <r_qp_QPlogS>  (827) 
-3.7639999999999998

>  <r_qp_QPpolrz>  (827) 
47.255000000000003

>  <r_qp_SASA>  (827) 
714.66899999999998

>  <r_qp_SAamideO>  (827) 
0

>  <r_qp_SAfluorine>  (827) 
0

>  <r_qp_WPSA>  (827) 
0

>  <r_qp_accptHB>  (827) 
6.7000000000000002

>  <r_qp_dip^2/V>  (827) 
0.0123613

>  <r_qp_dipole>  (827) 
4.1890000000000001

>  <r_qp_donorHB>  (827) 
2

>  <r_qp_glob>  (827) 
0.85470100000000004

>  <r_qp_mol_MW>  (827) 
455.60199999999998

>  <r_qp_volume>  (827) 
1419.4860000000001

>  <r_sd_BIOSOLVEIT.INFINISEE\_FTREES\_SIMILARITY>  (827) 
0.90100000000000002

>  <r_sd_BIOSOLVEIT.LOGP>  (827) 
4.0350000000000001

>  <r_sd_BIOSOLVEIT.MOLECULAR\_WEIGHT>  (827) 
456.61099999999999

>  <r_sd_BIOSOLVEIT.TPSA>  (827) 
63.509999999999998

>  <i_epik_Tot_Q>  (827) 
2

>  <i_epik_Tot_abs_Q>  (827) 
2

>  <i_f3d_flags>  (827) 
0

>  <i_i_glide_confnum>  (827) 
9

>  <i_i_glide_lignum>  (827) 
757

>  <i_i_glide_posenum>  (827) 
1

>  <i_i_glide_rotatable_bonds>  (827) 
11

>  <i_lp_mmshare_version>  (827) 
65135

>  <i_m_ct_format>  (827) 
2

>  <i_m_source_file_index>  (827) 
2111

>  <i_qp_#NandO>  (827) 
6

>  <i_qp_#acid>  (827) 
0

>  <i_qp_#amide>  (827) 
0

>  <i_qp_#amidine>  (827) 
0

>  <i_qp_#amine>  (827) 
1

>  <i_qp_#in34>  (827) 
0

>  <i_qp_#in56>  (827) 
22

>  <i_qp_#metab>  (827) 
6

>  <i_qp_#nonHatm>  (827) 
34

>  <i_qp_#noncon>  (827) 
0

>  <i_qp_#ringatoms>  (827) 
22

>  <i_qp_#rotor>  (827) 
11

>  <i_qp_#rtvFG>  (827) 
0

>  <i_qp_#stars>  (827) 
0

>  <i_qp_CNS>  (827) 
1

>  <i_qp_HumanOralAbsorption>  (827) 
3

>  <i_qp_RuleOfFive>  (827) 
0

>  <i_qp_RuleOfThree>  (827) 
0

>  <i_sd_BIOSOLVEIT.INFINISEE\_REAGENT1\_NAME>  (827) 
21928106

>  <i_sd_BIOSOLVEIT.INFINISEE\_REAGENT2\_NAME>  (827) 
22360182

>  <i_sd_BIOSOLVEIT.INFINISEE\_REAGENT3\_NAME>  (827) 
21950844

>  <i_sd_BIOSOLVEIT.INFINISEE\_RESULT\_RANK>  (827) 
97916

>  <i_sd_version>  (827) 
0

>  <b_lp_Chiralities_Consistent>  (827) 
1

>  <b_sd_chiral_flag>  (827) 
0

>  <canonical_id>  (827) 
ATP-HTVS-837D7A211A0E

>  <compound_code>  (827) 
67522

>  <title>  (827) 
m_282030aaa____21928106____22360182____21950844

>  <variant>  (827) 
67522-1

>  <source_file>  (827) 
运行/运行/ATP-VSW/ATP-VSW-DOCK_HTVS_1-002_lib.maegz

>  <canonical_smiles>  (827) 
CC[N@@H+](C)Cc1cccc(CNc2nc(NCc3cccc(COC)c3)c3ccccc3[nH+]2)c1

>  <scaffold>  (827) 
c1ccc(CNc2nc(NCc3ccccc3)c3ccccc3[nH+]2)cc1

>  <molecular_formula>  (827) 
C28H35N5O+2

$$$$
ATP-HTVS-83F3A5AEE880
     RDKit          3D

 61 64  0  0  0  0  0  0  0  0999 V2000
  202.0541  173.4980  152.9237 Cl  0  0  0  0  0  0  0  0  0  0  0  0
  201.4207  174.8659  153.8066 C   0  0  0  0  0  0  0  0  0  0  0  0
  201.2995  174.8454  155.2161 C   0  0  0  0  0  0  0  0  0  0  0  0
  200.7098  175.9295  155.9028 C   0  0  0  0  0  0  0  0  0  0  0  0
  200.3047  177.1178  155.2413 C   0  0  0  0  0  0  0  0  0  0  0  0
  200.4488  177.1243  153.8142 C   0  0  0  0  0  0  0  0  0  0  0  0
  200.9590  176.0109  153.1111 C   0  0  0  0  0  0  0  0  0  0  0  0
  199.7741  178.3052  156.0413 C   0  0  1  0  0  0  0  0  0  0  0  0
  200.6656  178.8053  157.1566 N   0  0  0  0  0  0  0  0  0  0  0  0
  200.9367  177.8643  158.2462 C   0  0  2  0  0  0  0  0  0  0  0  0
  201.9445  179.3203  156.6769 C   0  0  2  0  0  0  0  0  0  0  0  0
  199.3951  179.4028  154.9862 C   0  0  0  0  0  0  0  0  0  0  0  0
  200.2583  179.9756  154.3226 O   0  0  0  0  0  0  0  0  0  0  0  0
  198.0916  179.7109  154.8206 N   0  0  0  0  0  0  0  0  0  0  0  0
  197.6201  180.6393  153.8439 C   0  0  0  0  0  0  0  0  0  0  0  0
  197.1727  181.9404  154.2162 C   0  0  0  0  0  0  0  0  0  0  0  0
  197.0888  182.3488  155.5563 N   0  0  0  0  0  0  0  0  0  0  0  0
  197.6016  183.6824  155.9557 C   0  0  2  0  0  0  0  0  0  0  0  0
  199.0622  183.7414  155.7509 C   0  0  0  0  0  0  0  0  0  0  0  0
  200.2077  183.7952  155.5854 N   0  0  0  0  0  0  0  0  0  0  0  0
  197.2439  184.1973  157.3505 C   0  0  0  0  0  0  0  0  0  0  0  0
  197.1423  185.6158  157.5420 C   0  0  0  0  0  0  0  0  0  0  0  0
  196.7689  186.1304  158.8152 C   0  0  0  0  0  0  0  0  0  0  0  0
  196.4648  185.2514  159.8872 C   0  0  0  0  0  0  0  0  0  0  0  0
  196.5903  183.8529  159.6777 C   0  0  0  0  0  0  0  0  0  0  0  0
  197.0172  183.3369  158.4523 C   0  0  0  0  0  0  0  0  0  0  0  0
  196.4553  181.4001  156.4641 C   0  0  2  0  0  0  0  0  0  0  0  0
  196.7510  182.7962  153.1722 C   0  0  0  0  0  0  0  0  0  0  0  0
  196.7405  182.4613  151.8679 N   0  0  0  0  0  0  0  0  0  0  0  0
  197.1478  181.2295  151.5199 C   0  0  0  0  0  0  0  0  0  0  0  0
  197.5890  180.2717  152.4745 C   0  0  0  0  0  0  0  0  0  0  0  0
  197.9714  178.9794  152.0588 C   0  0  0  0  0  0  0  0  0  0  0  0
  197.9653  178.6328  150.6948 C   0  0  0  0  0  0  0  0  0  0  0  0
  197.5268  179.5682  149.7439 C   0  0  0  0  0  0  0  0  0  0  0  0
  197.1149  180.8480  150.1554 C   0  0  0  0  0  0  0  0  0  0  0  0
  201.6569  173.9825  155.7587 H   0  0  0  0  0  0  0  0  0  0  0  0
  200.5753  175.8179  156.9753 H   0  0  0  0  0  0  0  0  0  0  0  0
  200.1788  177.9850  153.2115 H   0  0  0  0  0  0  0  0  0  0  0  0
  200.9965  176.0561  152.0263 H   0  0  0  0  0  0  0  0  0  0  0  0
  198.8333  178.0169  156.5053 H   0  0  0  0  0  0  0  0  0  0  0  0
  201.4534  178.3469  159.0661 H   0  0  0  0  0  0  0  0  0  0  0  0
  201.5621  177.0403  157.8799 H   0  0  0  0  0  0  0  0  0  0  0  0
  200.0248  177.4355  158.6344 H   0  0  0  0  0  0  0  0  0  0  0  0
  202.5674  179.6608  157.5046 H   0  0  0  0  0  0  0  0  0  0  0  0
  201.8557  180.1890  156.0215 H   0  0  0  0  0  0  0  0  0  0  0  0
  202.4695  178.5336  156.1308 H   0  0  0  0  0  0  0  0  0  0  0  0
  197.4258  179.2796  155.4474 H   0  0  0  0  0  0  0  0  0  0  0  0
  197.2116  184.4057  155.2408 H   0  0  0  0  0  0  0  0  0  0  0  0
  197.3535  186.3106  156.7323 H   0  0  0  0  0  0  0  0  0  0  0  0
  196.7225  187.2182  158.9812 H   0  0  0  0  0  0  0  0  0  0  0  0
  196.1737  185.6334  160.8694 H   0  0  0  0  0  0  0  0  0  0  0  0
  196.3593  183.1690  160.4702 H   0  0  0  0  0  0  0  0  0  0  0  0
  197.1448  182.2521  158.3736 H   0  0  0  0  0  0  0  0  0  0  0  0
  195.9756  180.5611  155.9380 H   0  0  0  0  0  0  0  0  0  0  0  0
  195.7105  181.8889  157.0923 H   0  0  0  0  0  0  0  0  0  0  0  0
  197.2284  180.9793  157.1057 H   0  0  0  0  0  0  0  0  0  0  0  0
  196.3586  183.7749  153.3920 H   0  0  0  0  0  0  0  0  0  0  0  0
  198.2668  178.2377  152.7774 H   0  0  0  0  0  0  0  0  0  0  0  0
  198.2871  177.6474  150.3981 H   0  0  0  0  0  0  0  0  0  0  0  0
  197.4998  179.2968  148.6972 H   0  0  0  0  0  0  0  0  0  0  0  0
  196.7653  181.5651  149.4320 H   0  0  0  0  0  0  0  0  0  0  0  0
  1  2  1  0
  2  3  1  0
  2  7  2  0
  3  4  2  0
  3 36  1  0
  4  5  1  0
  4 37  1  0
  5  6  2  0
  5  8  1  0
  6  7  1  0
  6 38  1  0
  7 39  1  0
  8  9  1  0
  8 12  1  0
  8 40  1  1
  9 10  1  0
  9 11  1  0
 10 41  1  1
 10 42  1  0
 10 43  1  0
 11 44  1  1
 11 45  1  0
 11 46  1  0
 12 13  2  0
 12 14  1  0
 14 15  1  0
 14 47  1  0
 15 16  2  0
 15 31  1  0
 16 17  1  0
 16 28  1  0
 17 18  1  0
 17 27  1  0
 18 19  1  0
 18 21  1  0
 18 48  1  6
 19 20  3  0
 21 22  2  0
 21 26  1  0
 22 23  1  0
 22 49  1  0
 23 24  2  0
 23 50  1  0
 24 25  1  0
 24 51  1  0
 25 26  2  0
 25 52  1  0
 26 53  1  0
 27 54  1  6
 27 55  1  0
 27 56  1  0
 28 29  2  0
 28 57  1  0
 29 30  1  0
 30 31  1  0
 30 35  2  0
 31 32  2  0
 32 33  1  0
 32 58  1  0
 33 34  2  0
 33 59  1  0
 34 35  1  0
 34 60  1  0
 35 61  1  0
M  END
>  <s_epik_cmdline>  (828) 
J2VwaWtfcHl0aG9uJywgJy1waCcsICc3LjAwMDAwMCcsICctcGh0JywgJzIuMDAwMDAwJywgJy1tcycsICcxNicsICctdG4nLCAnOCcsICctbWEnLCAnMjAwJywgJy1pbWFlJywgJzxpbmZpbGUubWFlPicsICctb21hZScsICc8b3V0ZmlsZS5tYWU+Jw==

>  <s_epik_input>  (828) 
Q2xjMVtjSF1bY0hdYyhbY0hdW2NIXTEpW0NAQEhdKE4oW0NIM10pW0NIM10pQyg9TylbTkhdYyhjKGMyMylbY0hdW2NIXVtjSF1bY0hdMyljKFtjSF1uMilOKFtDSDNdKVtDQEhdKEMjTiljNFtjSF1bY0hdW2NIXVtjSF1bY0hdNA==

>  <s_i_glide_gridfile>  (828) 
ATP-Grid

>  <s_lp_Force_Field>  (828) 
OPLS_2005

>  <s_lp_Variant>  (828) 
rxn502b____EMOL331054254____EMOL13728749____EMOL24630243-3

>  <s_lp_label>  (828) 
2652_sdstereoexpander_3_neutralizer_1_epik_1_stereoizer_1

>  <s_m_source_file>  (828) 
ATP-VSW-LIGPREP-003-in.maegz

>  <s_sd_BIOSOLVEIT.INFINISEE\_QUERY\_NAME>  (828) 
Ref-Lig

>  <s_sd_BIOSOLVEIT.INFINISEE\_QUERY\_SMILES>  (828) 
S(c1nc2c(cc1C[NH2+]Cc3ccc(cc3)C[NH+](C)C)cccc2)Cc4ccccc4

>  <s_sd_BIOSOLVEIT.INFINISEE\_REACTION\_NAME>  (828) 
rxn502b

>  <s_sd_BIOSOLVEIT.INFINISEE\_REAGENT1\_NAME>  (828) 
EMOL331054254

>  <s_sd_BIOSOLVEIT.INFINISEE\_REAGENT1\_SMILES>  (828) 
Clc1ccc(cc1)C(N(C)C)C(=O)O

>  <s_sd_BIOSOLVEIT.INFINISEE\_REAGENT2\_NAME>  (828) 
EMOL13728749

>  <s_sd_BIOSOLVEIT.INFINISEE\_REAGENT2\_SMILES>  (828) 
Brc1c(N)c2c(nc1)cccc2

>  <s_sd_BIOSOLVEIT.INFINISEE\_REAGENT3\_NAME>  (828) 
EMOL24630243

>  <s_sd_BIOSOLVEIT.INFINISEE\_REAGENT3\_SMILES>  (828) 
N#CC(NC)c1ccccc1

>  <s_sd_BIOSOLVEIT.INFINISEE\_SPACE>  (828) 
eXplore_7tr_2022-12

>  <s_vsw_compound_code>  (828) 
84835

>  <s_vsw_variant>  (828) 
84835-3

>  <r_epik_Charging_Adjusted_Penalty>  (828) 
0.18331845941583799

>  <r_epik_Ionization_Penalty>  (828) 
0.14130000000000001

>  <r_epik_Ionization_Penalty_Charging>  (828) 
0

>  <r_epik_Ionization_Penalty_Neutral>  (828) 
0.14130000000000001

>  <r_epik_State_Penalty>  (828) 
0.18329999999999999

>  <r_i_docking_score>  (828) 
-3.8323173971209998

>  <r_i_glide_ecoul>  (828) 
-3.6424927711486799

>  <r_i_glide_eff_state_penalty>  (828) 
0.18329999999999999

>  <r_i_glide_einternal>  (828) 
21.5534973144531

>  <r_i_glide_emodel>  (828) 
-45.108445092338101

>  <r_i_glide_energy>  (828) 
-43.8699402809143

>  <r_i_glide_erotb>  (828) 
0.52008322312743205

>  <r_i_glide_esite>  (828) 
-0.104847273155197

>  <r_i_glide_evdw>  (828) 
-40.227447509765597

>  <r_i_glide_gscore>  (828) 
-4.0156173971209999

>  <r_i_glide_hbond>  (828) 
0

>  <r_i_glide_ligand_efficiency>  (828) 
-0.109494782774886

>  <r_i_glide_ligand_efficiency_ln>  (828) 
-0.84127872237011603

>  <r_i_glide_ligand_efficiency_sa>  (828) 
-0.35816469465188

>  <r_i_glide_lipo>  (828) 
-1.7639591468417399

>  <r_i_glide_metal>  (828) 
-0

>  <r_i_glide_rewards>  (828) 
-0.109147909090908

>  <r_lp_Energy>  (828) 
44.607286999999999

>  <r_qp_ACxDN^.5/SA>  (828) 
0.0107314

>  <r_qp_CIQPlogS>  (828) 
-7.1109999999999998

>  <r_qp_EA(eV)>  (828) 
1.1779999999999999

>  <r_qp_FISA>  (828) 
81.427000000000007

>  <r_qp_FOSA>  (828) 
175.13399999999999

>  <r_qp_IP(eV)>  (828) 
8.6690000000000005

>  <r_qp_Jm>  (828) 
0.00172279676393897

>  <r_qp_PISA>  (828) 
418.90800000000002

>  <r_qp_PSA>  (828) 
69.165000000000006

>  <r_qp_PercentHumanOralAbsorption>  (828) 
100

>  <r_qp_QPPCaco>  (828) 
417.471

>  <r_qp_QPPMDCK>  (828) 
514.84799999999996

>  <r_qp_QPlogBB>  (828) 
-0.129

>  <r_qp_QPlogHERG>  (828) 
-6.9470000000000001

>  <r_qp_QPlogKhsa>  (828) 
0.64800000000000002

>  <r_qp_QPlogKp>  (828) 
-2.839

>  <r_qp_QPlogPC16>  (828) 
15.91

>  <r_qp_QPlogPo/w>  (828) 
4.7469999999999999

>  <r_qp_QPlogPoct>  (828) 
23.66

>  <r_qp_QPlogPw>  (828) 
12.521000000000001

>  <r_qp_QPlogS>  (828) 
-5.6100000000000003

>  <r_qp_QPpolrz>  (828) 
51.014000000000003

>  <r_qp_SASA>  (828) 
745.47799999999995

>  <r_qp_SAamideO>  (828) 
0

>  <r_qp_SAfluorine>  (828) 
0

>  <r_qp_WPSA>  (828) 
70.009

>  <r_qp_accptHB>  (828) 
8

>  <r_qp_dip^2/V>  (828) 
0.031572099999999999

>  <r_qp_dipole>  (828) 
6.782

>  <r_qp_donorHB>  (828) 
1

>  <r_qp_glob>  (828) 
0.83370520000000004

>  <r_qp_mol_MW>  (828) 
483.99900000000002

>  <r_qp_volume>  (828) 
1456.8779999999999

>  <r_sd_BIOSOLVEIT.INFINISEE\_FTREES\_SIMILARITY>  (828) 
0.91000000000000003

>  <r_sd_BIOSOLVEIT.LOGP>  (828) 
4.4135799999999996

>  <r_sd_BIOSOLVEIT.MOLECULAR\_WEIGHT>  (828) 
485.00799999999998

>  <r_sd_BIOSOLVEIT.TPSA>  (828) 
73.459999999999994

>  <i_epik_Tot_Q>  (828) 
0

>  <i_epik_Tot_abs_Q>  (828) 
0

>  <i_f3d_flags>  (828) 
0

>  <i_i_glide_confnum>  (828) 
6

>  <i_i_glide_lignum>  (828) 
1228

>  <i_i_glide_posenum>  (828) 
13

>  <i_i_glide_rotatable_bonds>  (828) 
8

>  <i_lp_mmshare_version>  (828) 
65135

>  <i_m_ct_format>  (828) 
2

>  <i_m_source_file_index>  (828) 
2652

>  <i_qp_#NandO>  (828) 
6

>  <i_qp_#acid>  (828) 
0

>  <i_qp_#amide>  (828) 
0

>  <i_qp_#amidine>  (828) 
0

>  <i_qp_#amine>  (828) 
1

>  <i_qp_#in34>  (828) 
0

>  <i_qp_#in56>  (828) 
22

>  <i_qp_#metab>  (828) 
6

>  <i_qp_#nonHatm>  (828) 
35

>  <i_qp_#noncon>  (828) 
0

>  <i_qp_#ringatoms>  (828) 
22

>  <i_qp_#rotor>  (828) 
8

>  <i_qp_#rtvFG>  (828) 
0

>  <i_qp_#stars>  (828) 
0

>  <i_qp_CNS>  (828) 
1

>  <i_qp_HumanOralAbsorption>  (828) 
3

>  <i_qp_RuleOfFive>  (828) 
0

>  <i_qp_RuleOfThree>  (828) 
0

>  <i_sd_BIOSOLVEIT.INFINISEE\_RESULT\_RANK>  (828) 
46649

>  <i_sd_version>  (828) 
0

>  <b_lp_Chiralities_Consistent>  (828) 
1

>  <b_sd_chiral_flag>  (828) 
0

>  <canonical_id>  (828) 
ATP-HTVS-83F3A5AEE880

>  <compound_code>  (828) 
84835

>  <title>  (828) 
rxn502b____EMOL331054254____EMOL13728749____EMOL24630243

>  <variant>  (828) 
84835-3

>  <source_file>  (828) 
运行/运行/ATP-VSW/ATP-VSW-DOCK_HTVS_1-003_lib/ATP-VSW-DOCK_HTVS_1-003_lib.mae

>  <canonical_smiles>  (828) 
CN(C)[C@@H](C(=O)Nc1c(N(C)[C@H](C#N)c2ccccc2)cnc2ccccc12)c1ccc(Cl)cc1

>  <scaffold>  (828) 
O=C(Cc1ccccc1)Nc1c(NCc2ccccc2)cnc2ccccc12

>  <molecular_formula>  (828) 
C28H26ClN5O

$$$$
ATP-HTVS-83F819F668B2
     RDKit          3D

 63 67  0  0  0  0  0  0  0  0999 V2000
  194.7538  183.4568  159.3611 N   0  0  0  0  0  0  0  0  0  0  0  0
  195.3893  184.5747  158.9381 C   0  0  0  0  0  0  0  0  0  0  0  0
  196.5338  184.5621  158.0969 C   0  0  0  0  0  0  0  0  0  0  0  0
  197.0365  183.2958  157.7306 C   0  0  0  0  0  0  0  0  0  0  0  0
  196.3652  182.1387  158.1425 C   0  0  0  0  0  0  0  0  0  0  0  0
  195.2235  182.2632  158.9482 C   0  0  0  0  0  0  0  0  0  0  0  0
  197.1451  185.8180  157.6139 C   0  0  0  0  0  0  0  0  0  0  0  0
  197.0245  186.9041  158.3626 N   0  0  0  0  0  0  0  0  0  0  0  0
  197.6492  187.9085  157.7102 N   0  0  0  0  0  0  0  0  0  0  0  0
  197.7162  189.2197  158.2614 C   0  0  0  0  0  0  0  0  0  0  0  0
  198.3476  190.2694  157.5489 C   0  0  0  0  0  0  0  0  0  0  0  0
  198.4092  191.5674  158.0865 C   0  0  0  0  0  0  0  0  0  0  0  0
  197.8452  191.8371  159.3471 C   0  0  0  0  0  0  0  0  0  0  0  0
  197.2138  190.8065  160.0667 C   0  0  0  0  0  0  0  0  0  0  0  0
  197.1486  189.5072  159.5302 C   0  0  0  0  0  0  0  0  0  0  0  0
  198.1615  187.4406  156.5157 C   0  0  0  0  0  0  0  0  0  0  0  0
  197.8567  186.1128  156.4001 C   0  0  0  0  0  0  0  0  0  0  0  0
  198.2130  185.2331  155.2246 C   0  0  1  0  0  0  0  0  0  0  0  0
  196.9966  184.9295  154.4416 N   0  0  1  0  0  0  0  0  0  0  0  0
  197.1936  183.9826  153.3244 C   0  0  1  0  0  0  0  0  0  0  0  0
  197.6083  182.5986  153.8059 C   0  0  0  0  0  0  0  0  0  0  0  0
  198.8737  182.0772  153.4571 C   0  0  0  0  0  0  0  0  0  0  0  0
  199.2432  180.7933  153.8950 C   0  0  0  0  0  0  0  0  0  0  0  0
  198.3757  180.0296  154.7058 C   0  0  0  0  0  0  0  0  0  0  0  0
  197.1212  180.5578  155.0683 C   0  0  0  0  0  0  0  0  0  0  0  0
  196.7424  181.8328  154.6113 C   0  0  0  0  0  0  0  0  0  0  0  0
  198.7926  178.6614  155.2031 C   0  0  1  0  0  0  0  0  0  0  0  0
  199.5550  178.7359  156.4829 N   0  0  1  0  0  0  0  0  0  0  0  0
  200.1110  177.4504  156.9330 C   0  0  1  0  0  0  0  0  0  0  0  0
  201.1242  177.8366  158.0162 C   0  0  1  0  0  0  0  0  0  0  0  0
  201.5387  179.2894  157.7133 C   0  0  1  0  0  0  0  0  0  0  0  0
  200.7066  179.6701  156.4944 C   0  0  1  0  0  0  0  0  0  0  0  0
  196.2933  184.5230  155.0420 H   0  0  0  0  0  0  0  0  0  0  0  0
  194.9574  185.5043  159.2876 H   0  0  0  0  0  0  0  0  0  0  0  0
  197.9249  183.1476  157.1399 H   0  0  0  0  0  0  0  0  0  0  0  0
  196.7224  181.1655  157.8393 H   0  0  0  0  0  0  0  0  0  0  0  0
  194.7179  181.3713  159.2966 H   0  0  0  0  0  0  0  0  0  0  0  0
  198.7907  190.1004  156.5803 H   0  0  0  0  0  0  0  0  0  0  0  0
  198.8918  192.3587  157.5325 H   0  0  0  0  0  0  0  0  0  0  0  0
  197.9009  192.8341  159.7571 H   0  0  0  0  0  0  0  0  0  0  0  0
  196.7791  191.0072  161.0349 H   0  0  0  0  0  0  0  0  0  0  0  0
  196.6582  188.7348  160.1032 H   0  0  0  0  0  0  0  0  0  0  0  0
  198.7041  188.0769  155.8335 H   0  0  0  0  0  0  0  0  0  0  0  0
  198.9275  185.7345  154.5662 H   0  0  0  0  0  0  0  0  0  0  0  0
  198.7366  184.3312  155.5232 H   0  0  0  0  0  0  0  0  0  0  0  0
  196.2683  183.8893  152.7529 H   0  0  0  0  0  0  0  0  0  0  0  0
  197.9470  184.3869  152.6454 H   0  0  0  0  0  0  0  0  0  0  0  0
  199.5612  182.6542  152.8607 H   0  0  0  0  0  0  0  0  0  0  0  0
  200.2199  180.4138  153.6332 H   0  0  0  0  0  0  0  0  0  0  0  0
  196.4576  180.0017  155.7177 H   0  0  0  0  0  0  0  0  0  0  0  0
  195.7779  182.2174  154.9046 H   0  0  0  0  0  0  0  0  0  0  0  0
  197.9173  178.0380  155.3647 H   0  0  0  0  0  0  0  0  0  0  0  0
  199.3872  178.1861  154.4207 H   0  0  0  0  0  0  0  0  0  0  0  0
  199.3498  176.7495  157.2774 H   0  0  0  0  0  0  0  0  0  0  0  0
  200.6432  176.9771  156.0995 H   0  0  0  0  0  0  0  0  0  0  0  0
  200.6689  177.7664  159.0042 H   0  0  0  0  0  0  0  0  0  0  0  0
  201.9542  177.1423  157.9814 H   0  0  0  0  0  0  0  0  0  0  0  0
  201.2841  179.9469  158.5259 H   0  0  0  0  0  0  0  0  0  0  0  0
  202.6061  179.4218  157.5287 H   0  0  0  0  0  0  0  0  0  0  0  0
  201.3154  179.4887  155.5942 H   0  0  0  0  0  0  0  0  0  0  0  0
  200.4278  180.7221  156.5090 H   0  0  0  0  0  0  0  0  0  0  0  0
  198.9131  178.9979  157.2201 H   0  0  0  0  0  0  0  0  0  0  0  0
  196.6102  185.7919  154.0762 H   0  0  0  0  0  0  0  0  0  0  0  0
  1  2  1  0
  1  6  2  0
  2  3  2  0
  2 34  1  0
  3  4  1  0
  3  7  1  0
  4  5  2  0
  4 35  1  0
  5  6  1  0
  5 36  1  0
  6 37  1  0
  7  8  2  0
  7 17  1  0
  8  9  1  0
  9 10  1  0
  9 16  1  0
 10 11  2  0
 10 15  1  0
 11 12  1  0
 11 38  1  0
 12 13  2  0
 12 39  1  0
 13 14  1  0
 13 40  1  0
 14 15  2  0
 14 41  1  0
 15 42  1  0
 16 17  2  0
 16 43  1  0
 17 18  1  0
 18 19  1  0
 18 44  1  6
 18 45  1  0
 19 20  1  0
 19 33  1  1
 19 63  1  0
 20 21  1  0
 20 46  1  6
 20 47  1  0
 21 22  1  0
 21 26  2  0
 22 23  2  0
 22 48  1  0
 23 24  1  0
 23 49  1  0
 24 25  2  0
 24 27  1  0
 25 26  1  0
 25 50  1  0
 26 51  1  0
 27 28  1  0
 27 52  1  1
 27 53  1  0
 28 29  1  0
 28 32  1  0
 28 62  1  1
 29 30  1  0
 29 54  1  1
 29 55  1  0
 30 31  1  0
 30 56  1  1
 30 57  1  0
 31 32  1  0
 31 58  1  1
 31 59  1  0
 32 60  1  6
 32 61  1  0
M  CHG  2  19   1  28   1
M  END
>  <s_epik_cmdline>  (829) 
J2VwaWtfcHl0aG9uJywgJy1waCcsICc3LjAwMDAwMCcsICctcGh0JywgJzIuMDAwMDAwJywgJy1tcycsICcxNicsICctdG4nLCAnOCcsICctbWEnLCAnMjAwJywgJy1pbWFlJywgJzxpbmZpbGUubWFlPicsICctb21hZScsICc8b3V0ZmlsZS5tYWU+Jw==

>  <s_epik_input>  (829) 
W2NIXTFbY0hdW2NIXW5bY0hdYzEtYzJubigtYzNbY0hdW2NIXVtjSF1bY0hdW2NIXTMpW2NIXWMyW0NIMl1bTkhdW0NIMl1jNFtjSF1bY0hdYyhbY0hdW2NIXTQpW0NIMl1ONVtDSDJdW0NIMl1bQ0gyXVtDSDJdNQ==

>  <s_i_glide_gridfile>  (829) 
ATP-Grid

>  <s_lp_Force_Field>  (829) 
OPLS_2005

>  <s_lp_Variant>  (829) 
m_270004bbb____8288996____7547738-1

>  <s_lp_label>  (829) 
1194_sdstereoexpander_1_neutralizer_1_epik_1_stereoizer_1

>  <s_m_source_file>  (829) 
ATP-VSW-LIGPREP-001-in.maegz

>  <s_sd_BIOSOLVEIT.INFINISEE\_QUERY\_NAME>  (829) 
Ref-Lig

>  <s_sd_BIOSOLVEIT.INFINISEE\_QUERY\_SMILES>  (829) 
S(c1nc2c(cc1C[NH2+]Cc3ccc(cc3)C[NH+](C)C)cccc2)Cc4ccccc4

>  <s_sd_BIOSOLVEIT.INFINISEE\_REACTION\_NAME>  (829) 
m_270004bbb

>  <s_sd_BIOSOLVEIT.INFINISEE\_REAGENT1\_SMILES>  (829) 
[R1*]NCc1ccc(cc1)CN2CCCC2

>  <s_sd_BIOSOLVEIT.INFINISEE\_REAGENT2\_SMILES>  (829) 
[R1*]CC=1C(=NN(c2ccccc2)C1)c3cnccc3

>  <s_sd_BIOSOLVEIT.INFINISEE\_SPACE>  (829) 
REALSpace_44bn_2023-08

>  <s_vsw_compound_code>  (829) 
38177

>  <s_vsw_variant>  (829) 
38177-1

>  <r_epik_Charging_Adjusted_Penalty>  (829) 
0.22586618430728

>  <r_epik_Ionization_Penalty>  (829) 
0.1169

>  <r_epik_Ionization_Penalty_Charging>  (829) 
0.1139

>  <r_epik_Ionization_Penalty_Neutral>  (829) 
0.0030999999999999999

>  <r_epik_State_Penalty>  (829) 
0.112

>  <r_i_docking_score>  (829) 
-4.6576562853469499

>  <r_i_glide_ecoul>  (829) 
-11.0505104064941

>  <r_i_glide_eff_state_penalty>  (829) 
0.112

>  <r_i_glide_einternal>  (829) 
2.2352814674377401

>  <r_i_glide_emodel>  (829) 
-70.281259387761196

>  <r_i_glide_energy>  (829) 
-48.929336547851598

>  <r_i_glide_erotb>  (829) 
0.87630884457119895

>  <r_i_glide_esite>  (829) 
-0.094967817878864005

>  <r_i_glide_evdw>  (829) 
-37.878826141357401

>  <r_i_glide_gscore>  (829) 
-4.76965628534695

>  <r_i_glide_hbond>  (829) 
-0.083527251195898503

>  <r_i_glide_ligand_efficiency>  (829) 
-0.14555175891709199

>  <r_i_glide_ligand_efficiency_ln>  (829) 
-1.0429762052043601

>  <r_i_glide_ligand_efficiency_sa>  (829) 
-0.46209802990779097

>  <r_i_glide_lipo>  (829) 
-1.0471583439457499

>  <r_i_glide_metal>  (829) 
-0

>  <r_i_glide_rewards>  (829) 
-0.86879384885564404

>  <r_lp_Energy>  (829) 
38.888362999999998

>  <r_lp_tautomer_probability>  (829) 
1

>  <r_qp_ACxDN^.5/SA>  (829) 
0.0077134999999999999

>  <r_qp_CIQPlogS>  (829) 
-4.7489999999999997

>  <r_qp_EA(eV)>  (829) 
0.73299999999999998

>  <r_qp_FISA>  (829) 
44.170999999999999

>  <r_qp_FOSA>  (829) 
282.70800000000003

>  <r_qp_IP(eV)>  (829) 
8.8390000000000004

>  <r_qp_Jm>  (829) 
0.00036576059575508298

>  <r_qp_PISA>  (829) 
450.98000000000002

>  <r_qp_PSA>  (829) 
44.491

>  <r_qp_PercentHumanOralAbsorption>  (829) 
100

>  <r_qp_QPPCaco>  (829) 
234.869

>  <r_qp_QPPMDCK>  (829) 
126.48699999999999

>  <r_qp_QPlogBB>  (829) 
0.52600000000000002

>  <r_qp_QPlogHERG>  (829) 
-8.5500000000000007

>  <r_qp_QPlogKhsa>  (829) 
1.0580000000000001

>  <r_qp_QPlogKp>  (829) 
-4.2939999999999996

>  <r_qp_QPlogPC16>  (829) 
15.304

>  <r_qp_QPlogPo/w>  (829) 
4.9100000000000001

>  <r_qp_QPlogPoct>  (829) 
21.759

>  <r_qp_QPlogPw>  (829) 
11.01

>  <r_qp_QPlogS>  (829) 
-4.7699999999999996

>  <r_qp_QPpolrz>  (829) 
51.506999999999998

>  <r_qp_SASA>  (829) 
777.85900000000004

>  <r_qp_SAamideO>  (829) 
0

>  <r_qp_SAfluorine>  (829) 
0

>  <r_qp_WPSA>  (829) 
0

>  <r_qp_accptHB>  (829) 
6

>  <r_qp_dip^2/V>  (829) 
0.0052636000000000002

>  <r_qp_dipole>  (829) 
2.7429999999999999

>  <r_qp_donorHB>  (829) 
1

>  <r_qp_glob>  (829) 
0.78894129999999996

>  <r_qp_mol_MW>  (829) 
423.56

>  <r_qp_volume>  (829) 
1429.4570000000001

>  <r_sd_BIOSOLVEIT.INFINISEE\_FTREES\_SIMILARITY>  (829) 
0.91100000000000003

>  <r_sd_BIOSOLVEIT.LOGP>  (829) 
2.3765999999999998

>  <r_sd_BIOSOLVEIT.MOLECULAR\_WEIGHT>  (829) 
425.577

>  <r_sd_BIOSOLVEIT.TPSA>  (829) 
51.759999999999998

>  <i_epik_Tot_Q>  (829) 
2

>  <i_epik_Tot_abs_Q>  (829) 
2

>  <i_f3d_flags>  (829) 
0

>  <i_i_glide_confnum>  (829) 
9

>  <i_i_glide_lignum>  (829) 
303

>  <i_i_glide_posenum>  (829) 
2

>  <i_i_glide_rotatable_bonds>  (829) 
8

>  <i_lp_mmshare_version>  (829) 
65135

>  <i_m_ct_format>  (829) 
2

>  <i_m_source_file_index>  (829) 
1194

>  <i_qp_#NandO>  (829) 
5

>  <i_qp_#acid>  (829) 
0

>  <i_qp_#amide>  (829) 
0

>  <i_qp_#amidine>  (829) 
0

>  <i_qp_#amine>  (829) 
2

>  <i_qp_#in34>  (829) 
0

>  <i_qp_#in56>  (829) 
28

>  <i_qp_#metab>  (829) 
7

>  <i_qp_#nonHatm>  (829) 
32

>  <i_qp_#noncon>  (829) 
4

>  <i_qp_#ringatoms>  (829) 
28

>  <i_qp_#rotor>  (829) 
6

>  <i_qp_#rtvFG>  (829) 
0

>  <i_qp_#stars>  (829) 
1

>  <i_qp_CNS>  (829) 
2

>  <i_qp_HumanOralAbsorption>  (829) 
3

>  <i_qp_RuleOfFive>  (829) 
0

>  <i_qp_RuleOfThree>  (829) 
1

>  <i_sd_BIOSOLVEIT.INFINISEE\_REAGENT1\_NAME>  (829) 
8288996

>  <i_sd_BIOSOLVEIT.INFINISEE\_REAGENT2\_NAME>  (829) 
7547738

>  <i_sd_BIOSOLVEIT.INFINISEE\_RESULT\_RANK>  (829) 
39762

>  <i_sd_version>  (829) 
0

>  <b_lp_Chiralities_Consistent>  (829) 
1

>  <b_sd_chiral_flag>  (829) 
0

>  <canonical_id>  (829) 
ATP-HTVS-83F819F668B2

>  <compound_code>  (829) 
38177

>  <title>  (829) 
m_270004bbb____8288996____7547738

>  <variant>  (829) 
38177-1

>  <source_file>  (829) 
运行/运行/ATP-VSW/ATP-VSW-DOCK_HTVS_1-001_lib/ATP-VSW-DOCK_HTVS_1-001_lib

>  <canonical_smiles>  (829) 
c1ccc(-n2cc(C[NH2+]Cc3ccc(C[NH+]4CCCC4)cc3)c(-c3cccnc3)n2)cc1

>  <scaffold>  (829) 
c1ccc(-n2cc(C[NH2+]Cc3ccc(C[NH+]4CCCC4)cc3)c(-c3cccnc3)n2)cc1

>  <molecular_formula>  (829) 
C27H31N5+2

$$$$
ATP-HTVS-83F93451062F
     RDKit          3D

 61 64  0  0  0  0  0  0  0  0999 V2000
  196.9565  188.0273  159.7195 S   0  0  0  0  0  0  0  0  0  0  0  0
  196.5213  186.3788  159.3523 C   0  0  0  0  0  0  0  0  0  0  0  0
  195.4506  185.6834  159.9825 C   0  0  0  0  0  0  0  0  0  0  0  0
  194.6607  186.2741  160.9794 N   0  0  0  0  0  0  0  0  0  0  0  0
  195.1808  184.3528  159.6270 C   0  0  0  0  0  0  0  0  0  0  0  0
  195.9955  183.6852  158.6896 C   0  0  0  0  0  0  0  0  0  0  0  0
  197.0827  184.3620  158.0884 C   0  0  0  0  0  0  0  0  0  0  0  0
  197.9431  183.6667  157.2100 N   0  0  0  0  0  0  0  0  0  0  0  0
  197.3621  182.9793  156.1971 N   0  0  0  0  0  0  0  0  0  0  0  0
  198.3597  182.3873  155.5699 C   0  0  0  0  0  0  0  0  0  0  0  0
  199.6137  182.7400  156.1328 C   0  0  0  0  0  0  0  0  0  0  0  0
  199.3315  183.4911  157.2522 C   0  0  0  0  0  0  0  0  0  0  0  0
  200.2948  184.0238  158.3340 C   0  0  2  0  0  0  0  0  0  0  0  0
  200.5060  185.4118  157.9810 O   0  0  0  0  0  0  0  0  0  0  0  0
  201.0653  186.3842  158.7520 C   0  0  0  0  0  0  0  0  0  0  0  0
  201.5084  186.2176  159.8876 O   0  0  0  0  0  0  0  0  0  0  0  0
  201.1700  187.5478  158.0291 N   0  0  0  0  0  0  0  0  0  0  0  0
  201.6349  183.2089  158.3402 C   0  0  0  0  0  0  0  0  0  0  0  0
  202.8961  183.8103  158.5360 C   0  0  0  0  0  0  0  0  0  0  0  0
  204.0662  183.0172  158.5939 C   0  0  0  0  0  0  0  0  0  0  0  0
  204.0152  181.6090  158.4102 C   0  0  0  0  0  0  0  0  0  0  0  0
  202.7800  180.9870  158.1966 C   0  0  0  0  0  0  0  0  0  0  0  0
  201.6091  181.7823  158.1971 C   0  0  0  0  0  0  0  0  0  0  0  0
  199.7065  183.8849  159.7771 C   0  0  2  0  0  0  0  0  0  0  0  0
  198.0646  181.4475  154.4137 C   0  0  1  0  0  0  0  0  0  0  0  0
  197.7688  182.2057  153.1107 C   0  0  1  0  0  0  0  0  0  0  0  0
  197.4895  181.2953  151.9276 C   0  0  0  0  0  0  0  0  0  0  0  0
  196.3474  180.4684  151.9196 C   0  0  0  0  0  0  0  0  0  0  0  0
  196.0581  179.6638  150.8017 C   0  0  0  0  0  0  0  0  0  0  0  0
  196.9149  179.6725  149.6792 C   0  0  0  0  0  0  0  0  0  0  0  0
  198.0663  180.4821  149.6945 C   0  0  0  0  0  0  0  0  0  0  0  0
  198.3536  181.2930  150.8118 C   0  0  0  0  0  0  0  0  0  0  0  0
  196.5907  178.8173  148.4665 C   0  0  2  0  0  0  0  0  0  0  0  0
  197.3110  185.7146  158.3899 C   0  0  0  0  0  0  0  0  0  0  0  0
  193.7402  185.8965  161.1235 H   0  0  0  0  0  0  0  0  0  0  0  0
  194.7148  187.2796  161.0218 H   0  0  0  0  0  0  0  0  0  0  0  0
  194.3760  183.8111  160.1007 H   0  0  0  0  0  0  0  0  0  0  0  0
  195.8069  182.6436  158.4602 H   0  0  0  0  0  0  0  0  0  0  0  0
  200.5713  182.3927  155.7900 H   0  0  0  0  0  0  0  0  0  0  0  0
  200.7613  187.6107  157.1042 H   0  0  0  0  0  0  0  0  0  0  0  0
  201.6315  188.3441  158.4561 H   0  0  0  0  0  0  0  0  0  0  0  0
  202.9964  184.8810  158.6835 H   0  0  0  0  0  0  0  0  0  0  0  0
  205.0315  183.4836  158.7860 H   0  0  0  0  0  0  0  0  0  0  0  0
  204.9325  181.0096  158.4206 H   0  0  0  0  0  0  0  0  0  0  0  0
  202.7108  179.9257  158.0225 H   0  0  0  0  0  0  0  0  0  0  0  0
  200.6570  181.2580  158.0774 H   0  0  0  0  0  0  0  0  0  0  0  0
  199.4778  182.8412  160.0041 H   0  0  0  0  0  0  0  0  0  0  0  0
  198.7984  184.4669  159.9461 H   0  0  0  0  0  0  0  0  0  0  0  0
  200.4185  184.1962  160.5671 H   0  0  0  0  0  0  0  0  0  0  0  0
  198.9076  180.7721  154.2621 H   0  0  0  0  0  0  0  0  0  0  0  0
  197.2176  180.8082  154.6701 H   0  0  0  0  0  0  0  0  0  0  0  0
  196.9072  182.8590  153.2533 H   0  0  0  0  0  0  0  0  0  0  0  0
  198.6130  182.8593  152.8810 H   0  0  0  0  0  0  0  0  0  0  0  0
  195.6824  180.4494  152.7686 H   0  0  0  0  0  0  0  0  0  0  0  0
  195.1763  179.0429  150.8093 H   0  0  0  0  0  0  0  0  0  0  0  0
  198.7364  180.4938  148.8439 H   0  0  0  0  0  0  0  0  0  0  0  0
  199.2360  181.9131  150.8038 H   0  0  0  0  0  0  0  0  0  0  0  0
  197.2000  179.1014  147.6081 H   0  0  0  0  0  0  0  0  0  0  0  0
  195.5452  178.9370  148.1860 H   0  0  0  0  0  0  0  0  0  0  0  0
  196.7754  177.7645  148.6773 H   0  0  0  0  0  0  0  0  0  0  0  0
  198.1211  186.2312  157.8996 H   0  0  0  0  0  0  0  0  0  0  0  0
  1  2  1  0
  2  3  2  0
  2 34  1  0
  3  4  1  0
  3  5  1  0
  4 35  1  0
  4 36  1  0
  5  6  2  0
  5 37  1  0
  6  7  1  0
  6 38  1  0
  7  8  1  0
  7 34  2  0
  8  9  1  0
  8 12  1  0
  9 10  2  0
 10 11  1  0
 10 25  1  0
 11 12  2  0
 11 39  1  0
 12 13  1  0
 13 14  1  6
 13 18  1  0
 13 24  1  0
 14 15  1  0
 15 16  2  0
 15 17  1  0
 17 40  1  0
 17 41  1  0
 18 19  2  0
 18 23  1  0
 19 20  1  0
 19 42  1  0
 20 21  2  0
 20 43  1  0
 21 22  1  0
 21 44  1  0
 22 23  2  0
 22 45  1  0
 23 46  1  0
 24 47  1  1
 24 48  1  0
 24 49  1  0
 25 26  1  0
 25 50  1  6
 25 51  1  0
 26 27  1  0
 26 52  1  1
 26 53  1  0
 27 28  1  0
 27 32  2  0
 28 29  2  0
 28 54  1  0
 29 30  1  0
 29 55  1  0
 30 31  2  0
 30 33  1  0
 31 32  1  0
 31 56  1  0
 32 57  1  0
 33 58  1  6
 33 59  1  0
 33 60  1  0
 34 61  1  0
M  CHG  1   1  -1
M  END
>  <s_epik_Chemistry_Notes>  (830) 
This compound has an ester and may undergo hydrolysis at high or low pH.

>  <s_epik_cmdline>  (830) 
J2VwaWtfcHl0aG9uJywgJy1waCcsICc3LjAwMDAwMCcsICctcGh0JywgJzIuMDAwMDAwJywgJy1tcycsICcxNicsICctdG4nLCAnOCcsICctbWEnLCAnMjAwJywgJy1pbWFlJywgJzxpbmZpbGUubWFlPicsICctb21hZScsICc8b3V0ZmlsZS5tYWU+Jw==

>  <s_epik_input>  (830) 
W1NIXWMxYyhbTkgyXSlbY0hdW2NIXWMoW2NIXTEpLW4ybmMoW0NIMl1bQ0gyXWMzW2NIXVtjSF1jKFtDSDNdKVtjSF1bY0hdMylbY0hdYzJbQ0BdKFtDSDNdKShPQyg9TylbTkgyXSljNFtjSF1bY0hdW2NIXVtjSF1bY0hdNA==

>  <s_i_glide_gridfile>  (830) 
ATP-Grid

>  <s_lp_Force_Field>  (830) 
OPLS_2005

>  <s_lp_Variant>  (830) 
Shen____81861399____24192957____54629193-1

>  <s_lp_label>  (830) 
655_sdstereoexpander_1_neutralizer_1_epik_1_stereoizer_1

>  <s_m_source_file>  (830) 
ATP-VSW-LIGPREP-003-in.maegz

>  <s_sd_BIOSOLVEIT.INFINISEE\_QUERY\_NAME>  (830) 
Ref-Lig

>  <s_sd_BIOSOLVEIT.INFINISEE\_QUERY\_SMILES>  (830) 
S(c1nc2c(cc1C[NH2+]Cc3ccc(cc3)C[NH+](C)C)cccc2)Cc4ccccc4

>  <s_sd_BIOSOLVEIT.INFINISEE\_REACTION\_NAME>  (830) 
Shen

>  <s_sd_BIOSOLVEIT.INFINISEE\_REAGENT1\_SMILES>  (830) 
O=C(OC(c1ccccc1)(C(=O)C)C)N

>  <s_sd_BIOSOLVEIT.INFINISEE\_REAGENT2\_SMILES>  (830) 
O=C(OCC)CCc1ccc(cc1)C

>  <s_sd_BIOSOLVEIT.INFINISEE\_REAGENT3\_SMILES>  (830) 
Sc1c(N)ccc(NN)c1

>  <s_sd_BIOSOLVEIT.INFINISEE\_SPACE>  (830) 
KnowledgeSpace_290tr_2019-05

>  <s_vsw_compound_code>  (830) 
20931

>  <s_vsw_variant>  (830) 
20931-1

>  <r_epik_Charging_Adjusted_Penalty>  (830) 
0.097830823623848207

>  <r_epik_Ionization_Penalty>  (830) 
0.032099999999999997

>  <r_epik_Ionization_Penalty_Charging>  (830) 
0.0118

>  <r_epik_Ionization_Penalty_Neutral>  (830) 
0.020400000000000001

>  <r_epik_State_Penalty>  (830) 
0.086099999999999996

>  <r_i_docking_score>  (830) 
-2.9436158947871398

>  <r_i_glide_ecoul>  (830) 
0.78067874908447299

>  <r_i_glide_eff_state_penalty>  (830) 
0.086099999999999996

>  <r_i_glide_einternal>  (830) 
5.30336570739746

>  <r_i_glide_emodel>  (830) 
-36.040720648640303

>  <r_i_glide_energy>  (830) 
-33.1081190109253

>  <r_i_glide_erotb>  (830) 
0.63621911466569703

>  <r_i_glide_esite>  (830) 
-0.0066146227572309903

>  <r_i_glide_evdw>  (830) 
-33.888797760009801

>  <r_i_glide_gscore>  (830) 
-3.0297158947871399

>  <r_i_glide_hbond>  (830) 
0

>  <r_i_glide_ligand_efficiency>  (830) 
-0.086576938081974697

>  <r_i_glide_ligand_efficiency_ln>  (830) 
-0.65032731678764299

>  <r_i_glide_ligand_efficiency_sa>  (830) 
-0.28047566999914902

>  <r_i_glide_lipo>  (830) 
-1.8852636614294001

>  <r_i_glide_metal>  (830) 
-0

>  <r_i_glide_rewards>  (830) 
-0.196718649628392

>  <r_lp_Energy>  (830) 
17.649640999999999

>  <r_lp_tautomer_probability>  (830) 
1

>  <r_qp_ACxDN^.5/SA>  (830) 
0.0153791

>  <r_qp_CIQPlogS>  (830) 
-7.8209999999999997

>  <r_qp_EA(eV)>  (830) 
0.20200000000000001

>  <r_qp_FISA>  (830) 
131.84999999999999

>  <r_qp_FOSA>  (830) 
208.53800000000001

>  <r_qp_IP(eV)>  (830) 
8.2409999999999997

>  <r_qp_Jm>  (830) 
0.022847639429189701

>  <r_qp_PISA>  (830) 
279.57900000000001

>  <r_qp_PSA>  (830) 
94.656999999999996

>  <r_qp_PercentHumanOralAbsorption>  (830) 
100

>  <r_qp_QPPCaco>  (830) 
556.625

>  <r_qp_QPPMDCK>  (830) 
520.33000000000004

>  <r_qp_QPlogBB>  (830) 
-0.90500000000000003

>  <r_qp_QPlogHERG>  (830) 
-4.7060000000000004

>  <r_qp_QPlogKhsa>  (830) 
0.80000000000000004

>  <r_qp_QPlogKp>  (830) 
-2.1970000000000001

>  <r_qp_QPlogPC16>  (830) 
15.164

>  <r_qp_QPlogPo/w>  (830) 
4.8330000000000002

>  <r_qp_QPlogPoct>  (830) 
25.506

>  <r_qp_QPlogPw>  (830) 
13.617000000000001

>  <r_qp_QPlogS>  (830) 
-5.1189999999999998

>  <r_qp_QPpolrz>  (830) 
46.335999999999999

>  <r_qp_SASA>  (830) 
674.17399999999998

>  <r_qp_SAamideO>  (830) 
0

>  <r_qp_SAfluorine>  (830) 
0

>  <r_qp_WPSA>  (830) 
54.207000000000001

>  <r_qp_accptHB>  (830) 
5

>  <r_qp_dip^2/V>  (830) 
0.045101099999999998

>  <r_qp_dipole>  (830) 
7.8700000000000001

>  <r_qp_donorHB>  (830) 
4.2999999999999998

>  <r_qp_glob>  (830) 
0.88624950000000002

>  <r_qp_mol_MW>  (830) 
472.60399999999998

>  <r_qp_volume>  (830) 
1373.2339999999999

>  <r_sd_BIOSOLVEIT.INFINISEE\_FTREES\_SIMILARITY>  (830) 
0.90200000000000002

>  <r_sd_BIOSOLVEIT.LOGP>  (830) 
5.5758200000000002

>  <r_sd_BIOSOLVEIT.MOLECULAR\_WEIGHT>  (830) 
472.60899999999998

>  <r_sd_BIOSOLVEIT.TPSA>  (830) 
96.159999999999997

>  <i_epik_Tot_Q>  (830) 
-1

>  <i_epik_Tot_abs_Q>  (830) 
1

>  <i_f3d_flags>  (830) 
0

>  <i_i_glide_confnum>  (830) 
2

>  <i_i_glide_lignum>  (830) 
287

>  <i_i_glide_posenum>  (830) 
8

>  <i_i_glide_rotatable_bonds>  (830) 
8

>  <i_lp_mmshare_version>  (830) 
65135

>  <i_m_ct_format>  (830) 
2

>  <i_m_source_file_index>  (830) 
655

>  <i_qp_#NandO>  (830) 
6

>  <i_qp_#acid>  (830) 
0

>  <i_qp_#amide>  (830) 
0

>  <i_qp_#amidine>  (830) 
0

>  <i_qp_#amine>  (830) 
0

>  <i_qp_#in34>  (830) 
0

>  <i_qp_#in56>  (830) 
23

>  <i_qp_#metab>  (830) 
7

>  <i_qp_#nonHatm>  (830) 
34

>  <i_qp_#noncon>  (830) 
0

>  <i_qp_#ringatoms>  (830) 
23

>  <i_qp_#rotor>  (830) 
8

>  <i_qp_#rtvFG>  (830) 
1

>  <i_qp_#stars>  (830) 
0

>  <i_qp_CNS>  (830) 
-1

>  <i_qp_HumanOralAbsorption>  (830) 
3

>  <i_qp_RuleOfFive>  (830) 
0

>  <i_qp_RuleOfThree>  (830) 
1

>  <i_sd_BIOSOLVEIT.INFINISEE\_REAGENT1\_NAME>  (830) 
81861399

>  <i_sd_BIOSOLVEIT.INFINISEE\_REAGENT2\_NAME>  (830) 
24192957

>  <i_sd_BIOSOLVEIT.INFINISEE\_REAGENT3\_NAME>  (830) 
54629193

>  <i_sd_BIOSOLVEIT.INFINISEE\_RESULT\_RANK>  (830) 
88447

>  <i_sd_version>  (830) 
0

>  <b_lp_Chiralities_Consistent>  (830) 
1

>  <b_sd_chiral_flag>  (830) 
0

>  <canonical_id>  (830) 
ATP-HTVS-83F93451062F

>  <compound_code>  (830) 
20931

>  <title>  (830) 
Shen____81861399____24192957____54629193

>  <variant>  (830) 
20931-1

>  <source_file>  (830) 
运行/运行/ATP-VSW/ATP-VSW-DOCK_HTVS_1-003_lib/ATP-VSW-DOCK_HTVS_1-003_lib.mae

>  <canonical_smiles>  (830) 
Cc1ccc(CCc2cc([C@](C)(OC(N)=O)c3ccccc3)n(-c3ccc(N)c([S-])c3)n2)cc1

>  <scaffold>  (830) 
c1ccc(CCc2cc(Cc3ccccc3)n(-c3ccccc3)n2)cc1

>  <molecular_formula>  (830) 
C27H27N4O2S-

$$$$
ATP-HTVS-8409CD5E0FE2
     RDKit          3D

 53 56  0  0  0  0  0  0  0  0999 V2000
  200.9571  181.0558  153.0302 O   0  0  0  0  0  0  0  0  0  0  0  0
  199.7756  180.7950  153.2647 C   0  0  0  0  0  0  0  0  0  0  0  0
  199.1980  180.4873  154.4548 N   0  0  0  0  0  0  0  0  0  0  0  0
  197.7539  180.1262  154.3373 C   0  0  2  0  0  0  0  0  0  0  0  0
  197.5335  180.2844  152.8446 C   0  0  0  0  0  0  0  0  0  0  0  0
  198.7166  180.6721  152.2398 C   0  0  0  0  0  0  0  0  0  0  0  0
  198.8215  180.8678  150.8482 C   0  0  0  0  0  0  0  0  0  0  0  0
  197.6514  180.6930  150.0749 C   0  0  0  0  0  0  0  0  0  0  0  0
  196.4263  180.3396  150.6930 C   0  0  0  0  0  0  0  0  0  0  0  0
  196.3574  180.1283  152.0897 C   0  0  0  0  0  0  0  0  0  0  0  0
  196.8636  181.1419  155.0952 C   0  0  1  0  0  0  0  0  0  0  0  0
  197.0217  181.0414  156.5718 N   0  0  1  0  0  0  0  0  0  0  0  0
  196.4434  182.1335  157.3769 C   0  0  1  0  0  0  0  0  0  0  0  0
  197.4212  183.2842  157.5783 C   0  0  0  0  0  0  0  0  0  0  0  0
  197.6482  184.2022  156.5250 C   0  0  0  0  0  0  0  0  0  0  0  0
  196.9039  184.0731  155.3845 O   0  0  0  0  0  0  0  0  0  0  0  0
  197.1430  184.9146  154.2875 C   0  0  2  0  0  0  0  0  0  0  0  0
  198.6163  185.2302  156.7020 C   0  0  0  0  0  0  0  0  0  0  0  0
  199.2835  185.3859  157.9355 C   0  0  0  0  0  0  0  0  0  0  0  0
  199.0076  184.5037  159.0006 C   0  0  0  0  0  0  0  0  0  0  0  0
  198.0922  183.4408  158.8129 C   0  0  0  0  0  0  0  0  0  0  0  0
  199.9642  180.3075  155.6995 C   0  0  1  0  0  0  0  0  0  0  0  0
  200.3680  178.8677  155.9639 C   0  0  0  0  0  0  0  0  0  0  0  0
  200.3516  178.3715  157.2856 C   0  0  0  0  0  0  0  0  0  0  0  0
  200.7483  177.0457  157.5460 C   0  0  0  0  0  0  0  0  0  0  0  0
  201.1622  176.2135  156.4897 C   0  0  0  0  0  0  0  0  0  0  0  0
  201.1756  176.7014  155.1708 C   0  0  0  0  0  0  0  0  0  0  0  0
  200.7808  178.0234  154.9094 C   0  0  0  0  0  0  0  0  0  0  0  0
  196.5846  180.1837  156.9157 H   0  0  0  0  0  0  0  0  0  0  0  0
  197.5805  179.0886  154.6312 H   0  0  0  0  0  0  0  0  0  0  0  0
  199.7627  181.1292  150.3856 H   0  0  0  0  0  0  0  0  0  0  0  0
  197.6902  180.8354  149.0049 H   0  0  0  0  0  0  0  0  0  0  0  0
  195.5382  180.2162  150.0922 H   0  0  0  0  0  0  0  0  0  0  0  0
  195.4280  179.8564  152.5612 H   0  0  0  0  0  0  0  0  0  0  0  0
  197.1906  182.0834  154.7069 H   0  0  0  0  0  0  0  0  0  0  0  0
  195.7984  180.9977  154.8595 H   0  0  0  0  0  0  0  0  0  0  0  0
  195.5119  182.4797  156.9350 H   0  0  0  0  0  0  0  0  0  0  0  0
  196.1988  181.7124  158.3517 H   0  0  0  0  0  0  0  0  0  0  0  0
  196.5502  184.5737  153.4509 H   0  0  0  0  0  0  0  0  0  0  0  0
  198.1827  184.9100  153.9530 H   0  0  0  0  0  0  0  0  0  0  0  0
  196.8474  185.9409  154.5047 H   0  0  0  0  0  0  0  0  0  0  0  0
  198.8588  185.9326  155.9178 H   0  0  0  0  0  0  0  0  0  0  0  0
  199.9793  186.2013  158.0896 H   0  0  0  0  0  0  0  0  0  0  0  0
  199.4849  184.6375  159.9676 H   0  0  0  0  0  0  0  0  0  0  0  0
  197.8901  182.7647  159.6303 H   0  0  0  0  0  0  0  0  0  0  0  0
  200.8548  180.9436  155.7009 H   0  0  0  0  0  0  0  0  0  0  0  0
  199.4066  180.6472  156.5676 H   0  0  0  0  0  0  0  0  0  0  0  0
  200.0347  178.9943  158.1084 H   0  0  0  0  0  0  0  0  0  0  0  0
  200.7385  176.6705  158.5581 H   0  0  0  0  0  0  0  0  0  0  0  0
  201.4710  175.1997  156.6868 H   0  0  0  0  0  0  0  0  0  0  0  0
  201.4964  176.0746  154.3525 H   0  0  0  0  0  0  0  0  0  0  0  0
  200.8129  178.3791  153.8913 H   0  0  0  0  0  0  0  0  0  0  0  0
  197.9986  180.9789  156.8093 H   0  0  0  0  0  0  0  0  0  0  0  0
  1  2  2  0
  2  3  1  0
  2  6  1  0
  3  4  1  0
  3 22  1  0
  4  5  1  0
  4 11  1  0
  4 30  1  1
  5  6  1  0
  5 10  2  0
  6  7  2  0
  7  8  1  0
  7 31  1  0
  8  9  2  0
  8 32  1  0
  9 10  1  0
  9 33  1  0
 10 34  1  0
 11 12  1  0
 11 35  1  6
 11 36  1  0
 12 13  1  0
 12 29  1  1
 12 53  1  0
 13 14  1  0
 13 37  1  6
 13 38  1  0
 14 15  1  0
 14 21  2  0
 15 16  1  0
 15 18  2  0
 16 17  1  0
 17 39  1  6
 17 40  1  0
 17 41  1  0
 18 19  1  0
 18 42  1  0
 19 20  2  0
 19 43  1  0
 20 21  1  0
 20 44  1  0
 21 45  1  0
 22 23  1  0
 22 46  1  6
 22 47  1  0
 23 24  2  0
 23 28  1  0
 24 25  1  0
 24 48  1  0
 25 26  2  0
 25 49  1  0
 26 27  1  0
 26 50  1  0
 27 28  2  0
 27 51  1  0
 28 52  1  0
M  CHG  1  12   1
M  END
>  <s_epik_cmdline>  (831) 
J2VwaWtfcHl0aG9uJywgJy1waCcsICc3LjAwMDAwMCcsICctcGh0JywgJzIuMDAwMDAwJywgJy1tcycsICcxNicsICctdG4nLCAnOCcsICctbWEnLCAnMjAwJywgJy1pbWFlJywgJzxpbmZpbGUubWFlPicsICctb21hZScsICc8b3V0ZmlsZS5tYWU+Jw==

>  <s_epik_input>  (831) 
W2NIXTFbY0hdW2NIXVtjSF1bY0hdYzFbQ0gyXU4oQyg9TyljKGMyMylbY0hdW2NIXVtjSF1bY0hdMylbQ0BIXTJbQ0gyXVtOSF1bQ0gyXWM0YyhPW0NIM10pW2NIXVtjSF1bY0hdW2NIXTQ=

>  <s_i_glide_gridfile>  (831) 
ATP-Grid

>  <s_lp_Force_Field>  (831) 
OPLS_2005

>  <s_lp_Variant>  (831) 
m_270004bbb____12219716____7547528-1

>  <s_lp_label>  (831) 
1139_sdstereoexpander_1_neutralizer_1_epik_1_stereoizer_1

>  <s_m_source_file>  (831) 
ATP-VSW-LIGPREP-002-in.maegz

>  <s_sd_BIOSOLVEIT.INFINISEE\_QUERY\_NAME>  (831) 
Ref-Lig

>  <s_sd_BIOSOLVEIT.INFINISEE\_QUERY\_SMILES>  (831) 
S(c1nc2c(cc1C[NH2+]Cc3ccc(cc3)C[NH+](C)C)cccc2)Cc4ccccc4

>  <s_sd_BIOSOLVEIT.INFINISEE\_REACTION\_NAME>  (831) 
m_270004bbb

>  <s_sd_BIOSOLVEIT.INFINISEE\_REAGENT1\_SMILES>  (831) 
[R1*]NCC1N(C(=O)c2c1cccc2)Cc3ccccc3

>  <s_sd_BIOSOLVEIT.INFINISEE\_REAGENT2\_SMILES>  (831) 
[R1*]Cc1c(OC)cccc1

>  <s_sd_BIOSOLVEIT.INFINISEE\_SPACE>  (831) 
REALSpace_44bn_2023-08

>  <s_vsw_compound_code>  (831) 
36418

>  <s_vsw_variant>  (831) 
36418-1

>  <r_epik_Charging_Adjusted_Penalty>  (831) 
0.10906120531318

>  <r_epik_Ionization_Penalty>  (831) 
0.0545

>  <r_epik_Ionization_Penalty_Charging>  (831) 
0.0545

>  <r_epik_Ionization_Penalty_Neutral>  (831) 
0

>  <r_epik_State_Penalty>  (831) 
0.0545

>  <r_i_docking_score>  (831) 
-4.4525168707381502

>  <r_i_glide_ecoul>  (831) 
-9.6296138763427699

>  <r_i_glide_eff_state_penalty>  (831) 
0.0545

>  <r_i_glide_einternal>  (831) 
7.8593993186950701

>  <r_i_glide_emodel>  (831) 
-49.945879496095998

>  <r_i_glide_energy>  (831) 
-37.851795196533203

>  <r_i_glide_erotb>  (831) 
0.83133171110677495

>  <r_i_glide_esite>  (831) 
-0.105266036154923

>  <r_i_glide_evdw>  (831) 
-28.222181320190401

>  <r_i_glide_gscore>  (831) 
-4.5070168707381502

>  <r_i_glide_hbond>  (831) 
-0.20000000000000001

>  <r_i_glide_ligand_efficiency>  (831) 
-0.15901845966922001

>  <r_i_glide_ligand_efficiency_ln>  (831) 
-1.0277716253423299

>  <r_i_glide_ligand_efficiency_sa>  (831) 
-0.48287370041986299

>  <r_i_glide_lipo>  (831) 
-1.08980980731998

>  <r_i_glide_metal>  (831) 
-0

>  <r_i_glide_rewards>  (831) 
-1.08772159090909

>  <r_lp_Energy>  (831) 
48.367503999999997

>  <r_lp_tautomer_probability>  (831) 
1

>  <r_qp_ACxDN^.5/SA>  (831) 
0.0078053000000000003

>  <r_qp_CIQPlogS>  (831) 
-4.8330000000000002

>  <r_qp_EA(eV)>  (831) 
0.23999999999999999

>  <r_qp_FISA>  (831) 
34.170999999999999

>  <r_qp_FOSA>  (831) 
139.92099999999999

>  <r_qp_IP(eV)>  (831) 
8.9499999999999993

>  <r_qp_Jm>  (831) 
0.35767549667854898

>  <r_qp_PISA>  (831) 
498.52699999999999

>  <r_qp_PSA>  (831) 
45.764000000000003

>  <r_qp_PercentHumanOralAbsorption>  (831) 
100

>  <r_qp_QPPCaco>  (831) 
1171.539

>  <r_qp_QPPMDCK>  (831) 
649.45299999999997

>  <r_qp_QPlogBB>  (831) 
0.20599999999999999

>  <r_qp_QPlogHERG>  (831) 
-7.4610000000000003

>  <r_qp_QPlogKhsa>  (831) 
0.64100000000000001

>  <r_qp_QPlogKp>  (831) 
-1.784

>  <r_qp_QPlogPC16>  (831) 
13.627000000000001

>  <r_qp_QPlogPo/w>  (831) 
4.6299999999999999

>  <r_qp_QPlogPoct>  (831) 
18.704000000000001

>  <r_qp_QPlogPw>  (831) 
10.053000000000001

>  <r_qp_QPlogS>  (831) 
-4.234

>  <r_qp_QPpolrz>  (831) 
43.337000000000003

>  <r_qp_SASA>  (831) 
672.61900000000003

>  <r_qp_SAamideO>  (831) 
0

>  <r_qp_SAfluorine>  (831) 
0

>  <r_qp_WPSA>  (831) 
0

>  <r_qp_accptHB>  (831) 
5.25

>  <r_qp_dip^2/V>  (831) 
0.0143605

>  <r_qp_dipole>  (831) 
4.2030000000000003

>  <r_qp_donorHB>  (831) 
1

>  <r_qp_glob>  (831) 
0.82540749999999996

>  <r_qp_mol_MW>  (831) 
372.46600000000001

>  <r_qp_volume>  (831) 
1230.0119999999999

>  <r_sd_BIOSOLVEIT.INFINISEE\_FTREES\_SIMILARITY>  (831) 
0.91300000000000003

>  <r_sd_BIOSOLVEIT.LOGP>  (831) 
3.1558999999999999

>  <r_sd_BIOSOLVEIT.MOLECULAR\_WEIGHT>  (831) 
373.47399999999999

>  <r_sd_BIOSOLVEIT.TPSA>  (831) 
46.149999999999999

>  <i_epik_Tot_Q>  (831) 
1

>  <i_epik_Tot_abs_Q>  (831) 
1

>  <i_f3d_flags>  (831) 
0

>  <i_i_glide_confnum>  (831) 
6

>  <i_i_glide_lignum>  (831) 
387

>  <i_i_glide_posenum>  (831) 
16

>  <i_i_glide_rotatable_bonds>  (831) 
7

>  <i_lp_mmshare_version>  (831) 
65135

>  <i_m_ct_format>  (831) 
2

>  <i_m_source_file_index>  (831) 
1139

>  <i_qp_#NandO>  (831) 
4

>  <i_qp_#acid>  (831) 
0

>  <i_qp_#amide>  (831) 
0

>  <i_qp_#amidine>  (831) 
0

>  <i_qp_#amine>  (831) 
1

>  <i_qp_#in34>  (831) 
0

>  <i_qp_#in56>  (831) 
21

>  <i_qp_#metab>  (831) 
5

>  <i_qp_#nonHatm>  (831) 
28

>  <i_qp_#noncon>  (831) 
1

>  <i_qp_#ringatoms>  (831) 
21

>  <i_qp_#rotor>  (831) 
7

>  <i_qp_#rtvFG>  (831) 
0

>  <i_qp_#stars>  (831) 
1

>  <i_qp_CNS>  (831) 
1

>  <i_qp_HumanOralAbsorption>  (831) 
3

>  <i_qp_RuleOfFive>  (831) 
0

>  <i_qp_RuleOfThree>  (831) 
0

>  <i_sd_BIOSOLVEIT.INFINISEE\_REAGENT1\_NAME>  (831) 
12219716

>  <i_sd_BIOSOLVEIT.INFINISEE\_REAGENT2\_NAME>  (831) 
7547528

>  <i_sd_BIOSOLVEIT.INFINISEE\_RESULT\_RANK>  (831) 
35994

>  <i_sd_version>  (831) 
0

>  <b_lp_Chiralities_Consistent>  (831) 
1

>  <b_sd_chiral_flag>  (831) 
0

>  <canonical_id>  (831) 
ATP-HTVS-8409CD5E0FE2

>  <compound_code>  (831) 
36418

>  <title>  (831) 
m_270004bbb____12219716____7547528

>  <variant>  (831) 
36418-1

>  <source_file>  (831) 
运行/运行/ATP-VSW/ATP-VSW-DOCK_HTVS_1-002_lib.maegz

>  <canonical_smiles>  (831) 
COc1ccccc1C[NH2+]C[C@H]1c2ccccc2C(=O)N1Cc1ccccc1

>  <scaffold>  (831) 
O=C1c2ccccc2C(C[NH2+]Cc2ccccc2)N1Cc1ccccc1

>  <molecular_formula>  (831) 
C24H25N2O2+

$$$$
ATP-HTVS-842E20B26D61
     RDKit          3D

 62 65  0  0  0  0  0  0  0  0999 V2000
  196.0189  181.1882  150.5408 O   0  0  0  0  0  0  0  0  0  0  0  0
  197.0934  180.6539  150.8263 C   0  0  0  0  0  0  0  0  0  0  0  0
  197.9003  181.0755  151.8359 N   0  0  0  0  0  0  0  0  0  0  0  0
  199.0731  180.4403  152.2245 N   0  0  0  0  0  0  0  0  0  0  0  0
  199.5560  179.4238  151.5952 C   0  0  0  0  0  0  0  0  0  0  0  0
  198.8280  178.8728  150.4143 C   0  0  0  0  0  0  0  0  0  0  0  0
  197.5997  179.4804  150.0441 C   0  0  0  0  0  0  0  0  0  0  0  0
  196.8645  178.9809  148.9400 C   0  0  0  0  0  0  0  0  0  0  0  0
  197.3438  177.8811  148.2084 C   0  0  0  0  0  0  0  0  0  0  0  0
  198.5715  177.2908  148.5569 C   0  0  0  0  0  0  0  0  0  0  0  0
  199.3126  177.7939  149.6477 C   0  0  0  0  0  0  0  0  0  0  0  0
  200.8363  178.7912  152.1283 C   0  0  1  0  0  0  0  0  0  0  0  0
  200.4816  177.5389  152.9433 C   0  0  0  0  0  0  0  0  0  0  0  0
  199.8497  176.6272  152.4348 O   0  0  0  0  0  0  0  0  0  0  0  0
  200.8475  177.5464  154.2315 N   0  0  0  0  0  0  0  0  0  0  0  0
  200.4860  176.5903  155.2637 C   0  0  1  0  0  0  0  0  0  0  0  0
  201.3678  175.3295  155.2321 C   0  0  0  0  0  0  0  0  0  0  0  0
  202.3256  175.0708  156.2431 C   0  0  0  0  0  0  0  0  0  0  0  0
  203.1679  173.9595  156.1425 C   0  0  0  0  0  0  0  0  0  0  0  0
  203.0818  173.0962  155.0318 C   0  0  0  0  0  0  0  0  0  0  0  0
  202.1159  173.3209  154.0392 C   0  0  0  0  0  0  0  0  0  0  0  0
  201.2377  174.4088  154.1538 C   0  0  0  0  0  0  0  0  0  0  0  0
  200.4527  177.2613  156.6544 C   0  0  1  0  0  0  0  0  0  0  0  0
  199.6164  178.4820  156.7524 N   0  0  2  0  0  0  0  0  0  0  0  0
  198.6115  178.7680  155.6870 C   0  0  2  0  0  0  0  0  0  0  0  0
  200.3465  179.6881  157.1766 C   0  0  2  0  0  0  0  0  0  0  0  0
  197.5745  182.2924  152.5977 C   0  0  1  0  0  0  0  0  0  0  0  0
  198.1450  183.5883  152.0146 C   0  0  0  0  0  0  0  0  0  0  0  0
  199.2456  183.5830  151.1236 C   0  0  0  0  0  0  0  0  0  0  0  0
  199.7612  184.7833  150.6063 C   0  0  0  0  0  0  0  0  0  0  0  0
  199.1872  186.0129  150.9743 C   0  0  0  0  0  0  0  0  0  0  0  0
  198.1003  186.0329  151.8669 C   0  0  0  0  0  0  0  0  0  0  0  0
  197.5782  184.8274  152.3864 C   0  0  0  0  0  0  0  0  0  0  0  0
  195.9188  179.4288  148.6632 H   0  0  0  0  0  0  0  0  0  0  0  0
  196.7716  177.4819  147.3813 H   0  0  0  0  0  0  0  0  0  0  0  0
  198.9437  176.4486  147.9928 H   0  0  0  0  0  0  0  0  0  0  0  0
  200.2510  177.3177  149.8875 H   0  0  0  0  0  0  0  0  0  0  0  0
  201.5328  178.5564  151.3195 H   0  0  0  0  0  0  0  0  0  0  0  0
  201.3479  179.5031  152.7862 H   0  0  0  0  0  0  0  0  0  0  0  0
  201.3929  178.3503  154.5635 H   0  0  0  0  0  0  0  0  0  0  0  0
  199.4967  176.2368  155.0162 H   0  0  0  0  0  0  0  0  0  0  0  0
  202.4735  175.7208  157.0929 H   0  0  0  0  0  0  0  0  0  0  0  0
  203.9025  173.8064  156.9160 H   0  0  0  0  0  0  0  0  0  0  0  0
  203.7434  172.2391  154.9629 H   0  0  0  0  0  0  0  0  0  0  0  0
  202.0336  172.6647  153.1855 H   0  0  0  0  0  0  0  0  0  0  0  0
  200.5033  174.5548  153.3784 H   0  0  0  0  0  0  0  0  0  0  0  0
  200.0775  176.5542  157.3947 H   0  0  0  0  0  0  0  0  0  0  0  0
  201.4467  177.5478  156.9845 H   0  0  0  0  0  0  0  0  0  0  0  0
  199.1023  179.0307  154.7844 H   0  0  0  0  0  0  0  0  0  0  0  0
  197.8790  179.5435  155.9962 H   0  0  0  0  0  0  0  0  0  0  0  0
  197.9677  177.8860  155.5092 H   0  0  0  0  0  0  0  0  0  0  0  0
  201.0657  179.9303  156.4064 H   0  0  0  0  0  0  0  0  0  0  0  0
  200.8638  179.5078  158.1067 H   0  0  0  0  0  0  0  0  0  0  0  0
  199.6425  180.5143  157.3098 H   0  0  0  0  0  0  0  0  0  0  0  0
  196.4926  182.4074  152.7213 H   0  0  0  0  0  0  0  0  0  0  0  0
  197.9591  182.1871  153.6130 H   0  0  0  0  0  0  0  0  0  0  0  0
  199.7248  182.6634  150.8249 H   0  0  0  0  0  0  0  0  0  0  0  0
  200.6016  184.7555  149.9264 H   0  0  0  0  0  0  0  0  0  0  0  0
  199.5796  186.9359  150.5703 H   0  0  0  0  0  0  0  0  0  0  0  0
  197.6578  186.9772  152.1449 H   0  0  0  0  0  0  0  0  0  0  0  0
  196.7397  184.8615  153.0685 H   0  0  0  0  0  0  0  0  0  0  0  0
  198.9828  178.2613  157.5281 H   0  0  0  0  0  0  0  0  0  0  0  0
  1  2  2  0
  2  3  1  0
  2  7  1  0
  3  4  1  0
  3 27  1  0
  4  5  2  0
  5  6  1  0
  5 12  1  0
  6  7  1  0
  6 11  2  0
  7  8  2  0
  8  9  1  0
  8 34  1  0
  9 10  2  0
  9 35  1  0
 10 11  1  0
 10 36  1  0
 11 37  1  0
 12 13  1  0
 12 38  1  6
 12 39  1  0
 13 14  2  0
 13 15  1  0
 15 16  1  0
 15 40  1  0
 16 17  1  0
 16 23  1  0
 16 41  1  6
 17 18  2  0
 17 22  1  0
 18 19  1  0
 18 42  1  0
 19 20  2  0
 19 43  1  0
 20 21  1  0
 20 44  1  0
 21 22  2  0
 21 45  1  0
 22 46  1  0
 23 24  1  0
 23 47  1  1
 23 48  1  0
 24 25  1  0
 24 26  1  0
 24 62  1  1
 25 49  1  6
 25 50  1  0
 25 51  1  0
 26 52  1  6
 26 53  1  0
 26 54  1  0
 27 28  1  0
 27 55  1  1
 27 56  1  0
 28 29  2  0
 28 33  1  0
 29 30  1  0
 29 57  1  0
 30 31  2  0
 30 58  1  0
 31 32  1  0
 31 59  1  0
 32 33  2  0
 32 60  1  0
 33 61  1  0
M  CHG  1  24   1
M  END
>  <s_epik_cmdline>  (832) 
J2VwaWtfcHl0aG9uJywgJy1waCcsICc3LjAwMDAwMCcsICctcGh0JywgJzIuMDAwMDAwJywgJy1tcycsICcxNicsICctdG4nLCAnOCcsICctbWEnLCAnMjAwJywgJy1pbWFlJywgJzxpbmZpbGUubWFlPicsICctb21hZScsICc8b3V0ZmlsZS5tYWU+Jw==

>  <s_epik_input>  (832) 
W2NIXTFbY0hdW2NIXVtjSF1bY0hdYzFbQ0gyXW4oYyg9TyljKGMyMylbY0hdW2NIXVtjSF1bY0hdMyluYzJbQ0gyXUMoPU8pW05IXVtDQEhdKFtDSDJdTihbQ0gzXSlbQ0gzXSljNFtjSF1bY0hdW2NIXVtjSF1bY0hdNA==

>  <s_i_glide_gridfile>  (832) 
ATP-Grid

>  <s_lp_Force_Field>  (832) 
OPLS_2005

>  <s_lp_Variant>  (832) 
a1____35420____398704-2

>  <s_lp_label>  (832) 
389_sdstereoexpander_2_neutralizer_1_epik_1_stereoizer_1

>  <s_m_source_file>  (832) 
ATP-VSW-LIGPREP-003-in.maegz

>  <s_sd_BIOSOLVEIT.INFINISEE\_QUERY\_NAME>  (832) 
Ref-Lig

>  <s_sd_BIOSOLVEIT.INFINISEE\_QUERY\_SMILES>  (832) 
S(c1nc2c(cc1C[NH2+]Cc3ccc(cc3)C[NH+](C)C)cccc2)Cc4ccccc4

>  <s_sd_BIOSOLVEIT.INFINISEE\_REACTION\_NAME>  (832) 
a1

>  <s_sd_BIOSOLVEIT.INFINISEE\_REAGENT1\_SMILES>  (832) 
[R1*]NC(c1ccccc1)CN(C)C

>  <s_sd_BIOSOLVEIT.INFINISEE\_REAGENT2\_SMILES>  (832) 
[R1*]C(=O)CC1=NN(C(=O)c2c1cccc2)Cc3ccccc3

>  <s_sd_BIOSOLVEIT.INFINISEE\_SPACE>  (832) 
FreedomSpace_5bn_2023-06

>  <s_vsw_compound_code>  (832) 
12419

>  <s_vsw_variant>  (832) 
12419-2

>  <r_epik_Charging_Adjusted_Penalty>  (832) 
0.024229194653118701

>  <r_epik_Ionization_Penalty>  (832) 
0.0121

>  <r_epik_Ionization_Penalty_Charging>  (832) 
0.0121

>  <r_epik_Ionization_Penalty_Neutral>  (832) 
0

>  <r_epik_State_Penalty>  (832) 
0.0121

>  <r_i_docking_score>  (832) 
-4.6510004351024303

>  <r_i_glide_ecoul>  (832) 
-8.8657808303833008

>  <r_i_glide_eff_state_penalty>  (832) 
0.0121

>  <r_i_glide_einternal>  (832) 
15.536036491394

>  <r_i_glide_emodel>  (832) 
-51.118966934167602

>  <r_i_glide_energy>  (832) 
-41.460320472717299

>  <r_i_glide_erotb>  (832) 
0.71722435937715501

>  <r_i_glide_esite>  (832) 
-0.10000000000000001

>  <r_i_glide_evdw>  (832) 
-32.594539642333999

>  <r_i_glide_gscore>  (832) 
-4.6631004351024297

>  <r_i_glide_hbond>  (832) 
-0.20000000000000001

>  <r_i_glide_ligand_efficiency>  (832) 
-0.14093940712431599

>  <r_i_glide_ligand_efficiency_ln>  (832) 
-1.03435841517535

>  <r_i_glide_ligand_efficiency_sa>  (832) 
-0.452067986273616

>  <r_i_glide_lipo>  (832) 
-1.68830222860249

>  <r_i_glide_metal>  (832) 
-0

>  <r_i_glide_rewards>  (832) 
-0.43242845920290002

>  <r_lp_Energy>  (832) 
42.959806999999998

>  <r_qp_ACxDN^.5/SA>  (832) 
0.0086627000000000006

>  <r_qp_CIQPlogS>  (832) 
-5.1989999999999998

>  <r_qp_EA(eV)>  (832) 
0.94499999999999995

>  <r_qp_FISA>  (832) 
65.646000000000001

>  <r_qp_FOSA>  (832) 
233.54599999999999

>  <r_qp_IP(eV)>  (832) 
9.2560000000000002

>  <r_qp_Jm>  (832) 
0.194851051396701

>  <r_qp_PISA>  (832) 
451.15199999999999

>  <r_qp_PSA>  (832) 
75.938000000000002

>  <r_qp_PercentHumanOralAbsorption>  (832) 
100

>  <r_qp_QPPCaco>  (832) 
328.41500000000002

>  <r_qp_QPPMDCK>  (832) 
308.98000000000002

>  <r_qp_QPlogBB>  (832) 
-0.17799999999999999

>  <r_qp_QPlogHERG>  (832) 
-6.0140000000000002

>  <r_qp_QPlogKhsa>  (832) 
0.54400000000000004

>  <r_qp_QPlogKp>  (832) 
-2.4350000000000001

>  <r_qp_QPlogPC16>  (832) 
15.298999999999999

>  <r_qp_QPlogPo/w>  (832) 
4.4279999999999999

>  <r_qp_QPlogPoct>  (832) 
22.050000000000001

>  <r_qp_QPlogPw>  (832) 
13.503

>  <r_qp_QPlogS>  (832) 
-3.9199999999999999

>  <r_qp_QPpolrz>  (832) 
50.021000000000001

>  <r_qp_SASA>  (832) 
750.34400000000005

>  <r_qp_SAamideO>  (832) 
31.891999999999999

>  <r_qp_SAfluorine>  (832) 
0

>  <r_qp_WPSA>  (832) 
0

>  <r_qp_accptHB>  (832) 
6.5

>  <r_qp_dip^2/V>  (832) 
0.032657499999999999

>  <r_qp_dipole>  (832) 
6.8200000000000003

>  <r_qp_donorHB>  (832) 
1

>  <r_qp_glob>  (832) 
0.81593000000000004

>  <r_qp_mol_MW>  (832) 
440.54399999999998

>  <r_qp_volume>  (832) 
1424.367

>  <r_sd_BIOSOLVEIT.INFINISEE\_FTREES\_SIMILARITY>  (832) 
0.90900000000000003

>  <r_sd_BIOSOLVEIT.LOGP>  (832) 
1.9893000000000001

>  <r_sd_BIOSOLVEIT.MOLECULAR\_WEIGHT>  (832) 
441.55200000000002

>  <r_sd_BIOSOLVEIT.TPSA>  (832) 
68.430000000000007

>  <i_epik_Tot_Q>  (832) 
1

>  <i_epik_Tot_abs_Q>  (832) 
1

>  <i_f3d_flags>  (832) 
0

>  <i_i_glide_confnum>  (832) 
4

>  <i_i_glide_lignum>  (832) 
233

>  <i_i_glide_posenum>  (832) 
6

>  <i_i_glide_rotatable_bonds>  (832) 
9

>  <i_lp_mmshare_version>  (832) 
65135

>  <i_m_ct_format>  (832) 
2

>  <i_m_source_file_index>  (832) 
389

>  <i_qp_#NandO>  (832) 
6

>  <i_qp_#acid>  (832) 
0

>  <i_qp_#amide>  (832) 
1

>  <i_qp_#amidine>  (832) 
0

>  <i_qp_#amine>  (832) 
1

>  <i_qp_#in34>  (832) 
0

>  <i_qp_#in56>  (832) 
22

>  <i_qp_#metab>  (832) 
5

>  <i_qp_#nonHatm>  (832) 
33

>  <i_qp_#noncon>  (832) 
0

>  <i_qp_#ringatoms>  (832) 
22

>  <i_qp_#rotor>  (832) 
8

>  <i_qp_#rtvFG>  (832) 
0

>  <i_qp_#stars>  (832) 
1

>  <i_qp_CNS>  (832) 
1

>  <i_qp_HumanOralAbsorption>  (832) 
3

>  <i_qp_RuleOfFive>  (832) 
0

>  <i_qp_RuleOfThree>  (832) 
0

>  <i_sd_BIOSOLVEIT.INFINISEE\_REAGENT1\_NAME>  (832) 
35420

>  <i_sd_BIOSOLVEIT.INFINISEE\_REAGENT2\_NAME>  (832) 
398704

>  <i_sd_BIOSOLVEIT.INFINISEE\_RESULT\_RANK>  (832) 
50396

>  <i_sd_version>  (832) 
0

>  <b_lp_Chiralities_Consistent>  (832) 
1

>  <b_sd_chiral_flag>  (832) 
0

>  <canonical_id>  (832) 
ATP-HTVS-842E20B26D61

>  <compound_code>  (832) 
12419

>  <title>  (832) 
a1____35420____398704

>  <variant>  (832) 
12419-2

>  <source_file>  (832) 
运行/运行/ATP-VSW/ATP-VSW-DOCK_HTVS_1-003_lib/ATP-VSW-DOCK_HTVS_1-003_lib.mae

>  <canonical_smiles>  (832) 
C[NH+](C)C[C@@H](NC(=O)Cc1nn(Cc2ccccc2)c(=O)c2ccccc12)c1ccccc1

>  <scaffold>  (832) 
O=C(Cc1nn(Cc2ccccc2)c(=O)c2ccccc12)NCc1ccccc1

>  <molecular_formula>  (832) 
C27H29N4O2+

$$$$
ATP-HTVS-84AF7025C22A
     RDKit          3D

 64 67  0  0  0  0  0  0  0  0999 V2000
  202.7781  181.2739  156.0589 O   0  0  0  0  0  0  0  0  0  0  0  0
  201.6006  181.0578  155.7958 C   0  0  0  0  0  0  0  0  0  0  0  0
  200.5318  181.6092  156.4029 N   0  0  0  0  0  0  0  0  0  0  0  0
  200.4767  182.4925  157.5275 C   0  0  0  0  0  0  0  0  0  0  0  0
  201.5722  182.7378  158.2785 N   0  0  0  0  0  0  0  0  0  0  0  0
  201.4655  183.5287  159.3549 C   0  0  0  0  0  0  0  0  0  0  0  0
  200.2569  184.1365  159.7372 C   0  0  0  0  0  0  0  0  0  0  0  0
  199.0918  183.9174  158.9744 C   0  0  0  0  0  0  0  0  0  0  0  0
  197.8484  184.6219  159.3683 C   0  0  0  0  0  0  0  0  0  0  0  0
  197.7412  186.0438  159.3820 C   0  0  0  0  0  0  0  0  0  0  0  0
  196.4984  186.6506  159.7346 C   0  0  0  0  0  0  0  0  0  0  0  0
  196.3490  188.0396  159.7637 N   0  0  0  0  0  0  0  0  0  0  0  0
  195.3824  185.8605  160.0559 C   0  0  0  0  0  0  0  0  0  0  0  0
  195.4894  184.4626  160.0599 C   0  0  0  0  0  0  0  0  0  0  0  0
  196.7284  183.8471  159.7530 C   0  0  0  0  0  0  0  0  0  0  0  0
  198.9298  186.9456  159.0027 C   0  0  2  0  0  0  0  0  0  0  0  0
  199.1951  183.0515  157.8420 C   0  0  0  0  0  0  0  0  0  0  0  0
  197.9878  182.6991  157.0209 C   0  0  0  0  0  0  0  0  0  0  0  0
  197.0296  182.1115  157.5380 O   0  0  0  0  0  0  0  0  0  0  0  0
  198.0258  183.0022  155.5614 C   0  0  0  0  0  0  0  0  0  0  0  0
  197.1038  182.3561  154.7034 C   0  0  0  0  0  0  0  0  0  0  0  0
  197.1479  182.5640  153.3127 C   0  0  0  0  0  0  0  0  0  0  0  0
  198.1259  183.4186  152.7675 C   0  0  0  0  0  0  0  0  0  0  0  0
  199.0476  184.0753  153.6102 C   0  0  0  0  0  0  0  0  0  0  0  0
  198.9867  183.8784  155.0040 C   0  0  0  0  0  0  0  0  0  0  0  0
  201.2150  180.1645  154.6616 C   0  0  0  0  0  0  0  0  0  0  0  0
  200.1712  179.1919  154.7453 C   0  0  0  0  0  0  0  0  0  0  0  0
  199.9273  178.3745  153.6061 C   0  0  0  0  0  0  0  0  0  0  0  0
  200.6887  178.5025  152.4277 C   0  0  0  0  0  0  0  0  0  0  0  0
  201.7113  179.4568  152.3591 C   0  0  0  0  0  0  0  0  0  0  0  0
  201.9742  180.2746  153.4683 C   0  0  0  0  0  0  0  0  0  0  0  0
  199.3036  178.9236  155.9882 C   0  0  1  0  0  0  0  0  0  0  0  0
  199.9549  178.0495  157.0177 N   0  0  1  0  0  0  0  0  0  0  0  0
  200.2650  176.6961  156.5170 C   0  0  2  0  0  0  0  0  0  0  0  0
  201.1320  178.6296  157.6983 C   0  0  2  0  0  0  0  0  0  0  0  0
  199.6549  181.4133  155.9871 H   0  0  0  0  0  0  0  0  0  0  0  0
  202.3762  183.7393  159.9018 H   0  0  0  0  0  0  0  0  0  0  0  0
  200.2645  184.7911  160.5808 H   0  0  0  0  0  0  0  0  0  0  0  0
  195.4900  188.4716  160.0817 H   0  0  0  0  0  0  0  0  0  0  0  0
  197.1406  188.6482  159.6420 H   0  0  0  0  0  0  0  0  0  0  0  0
  194.4276  186.3158  160.2937 H   0  0  0  0  0  0  0  0  0  0  0  0
  194.6294  183.8435  160.2768 H   0  0  0  0  0  0  0  0  0  0  0  0
  196.7889  182.7724  159.7908 H   0  0  0  0  0  0  0  0  0  0  0  0
  198.8446  187.9472  159.4309 H   0  0  0  0  0  0  0  0  0  0  0  0
  199.0070  187.0436  157.9172 H   0  0  0  0  0  0  0  0  0  0  0  0
  199.8895  186.5738  159.3732 H   0  0  0  0  0  0  0  0  0  0  0  0
  196.3502  181.6956  155.1078 H   0  0  0  0  0  0  0  0  0  0  0  0
  196.4227  182.0693  152.6802 H   0  0  0  0  0  0  0  0  0  0  0  0
  198.1619  183.5763  151.6973 H   0  0  0  0  0  0  0  0  0  0  0  0
  199.8062  184.7240  153.1911 H   0  0  0  0  0  0  0  0  0  0  0  0
  199.7081  184.3844  155.6249 H   0  0  0  0  0  0  0  0  0  0  0  0
  199.1637  177.6151  153.6410 H   0  0  0  0  0  0  0  0  0  0  0  0
  200.4807  177.8666  151.5776 H   0  0  0  0  0  0  0  0  0  0  0  0
  202.3005  179.5566  151.4574 H   0  0  0  0  0  0  0  0  0  0  0  0
  202.7850  180.9901  153.4099 H   0  0  0  0  0  0  0  0  0  0  0  0
  198.9546  179.8583  156.4682 H   0  0  0  0  0  0  0  0  0  0  0  0
  198.3985  178.4208  155.6647 H   0  0  0  0  0  0  0  0  0  0  0  0
  201.0083  176.7249  155.7210 H   0  0  0  0  0  0  0  0  0  0  0  0
  199.3597  176.2294  156.1323 H   0  0  0  0  0  0  0  0  0  0  0  0
  200.6698  176.0784  157.3214 H   0  0  0  0  0  0  0  0  0  0  0  0
  201.9540  178.7727  156.9958 H   0  0  0  0  0  0  0  0  0  0  0  0
  201.5097  177.9893  158.5140 H   0  0  0  0  0  0  0  0  0  0  0  0
  200.8785  179.5913  158.1362 H   0  0  0  0  0  0  0  0  0  0  0  0
  199.2228  177.9225  157.7103 H   0  0  0  0  0  0  0  0  0  0  0  0
  1  2  2  0
  2  3  1  0
  2 26  1  0
  3  4  1  0
  3 36  1  0
  4  5  1  0
  4 17  2  0
  5  6  2  0
  6  7  1  0
  6 37  1  0
  7  8  2  0
  7 38  1  0
  8  9  1  0
  8 17  1  0
  9 10  2  0
  9 15  1  0
 10 11  1  0
 10 16  1  0
 11 12  1  0
 11 13  2  0
 12 39  1  0
 12 40  1  0
 13 14  1  0
 13 41  1  0
 14 15  2  0
 14 42  1  0
 15 43  1  0
 16 44  1  1
 16 45  1  0
 16 46  1  0
 17 18  1  0
 18 19  2  0
 18 20  1  0
 20 21  2  0
 20 25  1  0
 21 22  1  0
 21 47  1  0
 22 23  2  0
 22 48  1  0
 23 24  1  0
 23 49  1  0
 24 25  2  0
 24 50  1  0
 25 51  1  0
 26 27  1  0
 26 31  2  0
 27 28  2  0
 27 32  1  0
 28 29  1  0
 28 52  1  0
 29 30  2  0
 29 53  1  0
 30 31  1  0
 30 54  1  0
 31 55  1  0
 32 33  1  0
 32 56  1  1
 32 57  1  0
 33 34  1  0
 33 35  1  0
 33 64  1  1
 34 58  1  6
 34 59  1  0
 34 60  1  0
 35 61  1  6
 35 62  1  0
 35 63  1  0
M  CHG  1  33   1
M  END
>  <s_epik_cmdline>  (833) 
J2VwaWtfcHl0aG9uJywgJy1waCcsICc3LjAwMDAwMCcsICctcGh0JywgJzIuMDAwMDAwJywgJy1tcycsICcxNicsICctdG4nLCAnOCcsICctbWEnLCAnMjAwJywgJy1pbWFlJywgJzxpbmZpbGUubWFlPicsICctb21hZScsICc8b3V0ZmlsZS5tYWU+Jw==

>  <s_epik_input>  (833) 
W2NIXTFbY0hdW2NIXVtjSF1jKFtDSDJdTihbQ0gzXSlbQ0gzXSljMUMoPU8pW05IXWMybltjSF1bY0hdYygtYzNjKFtDSDNdKWMoW05IMl0pW2NIXVtjSF1bY0hdMyljMkMoPU8pYzRbY0hdW2NIXVtjSF1bY0hdW2NIXTQ=

>  <s_i_glide_gridfile>  (833) 
ATP-Grid

>  <s_lp_Force_Field>  (833) 
OPLS_2005

>  <s_lp_Variant>  (833) 
rxn501c____EMOL5415347____EMOL36251210____EMOL109726415-1

>  <s_lp_label>  (833) 
2517_sdstereoexpander_1_neutralizer_1_epik_1_stereoizer_1

>  <s_m_source_file>  (833) 
ATP-VSW-LIGPREP-002-in.maegz

>  <s_sd_BIOSOLVEIT.INFINISEE\_QUERY\_NAME>  (833) 
Ref-Lig

>  <s_sd_BIOSOLVEIT.INFINISEE\_QUERY\_SMILES>  (833) 
S(c1nc2c(cc1C[NH2+]Cc3ccc(cc3)C[NH+](C)C)cccc2)Cc4ccccc4

>  <s_sd_BIOSOLVEIT.INFINISEE\_REACTION\_NAME>  (833) 
rxn501c

>  <s_sd_BIOSOLVEIT.INFINISEE\_REAGENT1\_NAME>  (833) 
EMOL5415347

>  <s_sd_BIOSOLVEIT.INFINISEE\_REAGENT1\_SMILES>  (833) 
O=C(O)c1c(cccc1)CN(C)C

>  <s_sd_BIOSOLVEIT.INFINISEE\_REAGENT2\_NAME>  (833) 
EMOL36251210

>  <s_sd_BIOSOLVEIT.INFINISEE\_REAGENT2\_SMILES>  (833) 
Clc1c(c(ncc1)N)C(=O)c2ccccc2

>  <s_sd_BIOSOLVEIT.INFINISEE\_REAGENT3\_NAME>  (833) 
EMOL109726415

>  <s_sd_BIOSOLVEIT.INFINISEE\_REAGENT3\_SMILES>  (833) 
OB(O)c1c(c(N)ccc1)C

>  <s_sd_BIOSOLVEIT.INFINISEE\_SPACE>  (833) 
eXplore_7tr_2022-12

>  <s_vsw_compound_code>  (833) 
80514

>  <s_vsw_variant>  (833) 
80514-1

>  <r_epik_Charging_Adjusted_Penalty>  (833) 
0.120106230221407

>  <r_epik_Ionization_Penalty>  (833) 
0.062899999999999998

>  <r_epik_Ionization_Penalty_Charging>  (833) 
0.060100000000000001

>  <r_epik_Ionization_Penalty_Neutral>  (833) 
0.0028999999999999998

>  <r_epik_State_Penalty>  (833) 
0.060100000000000001

>  <r_i_docking_score>  (833) 
-4.6395336212376304

>  <r_i_glide_ecoul>  (833) 
-7.7919816970825204

>  <r_i_glide_eff_state_penalty>  (833) 
0.060100000000000001

>  <r_i_glide_einternal>  (833) 
1.72087383270264

>  <r_i_glide_emodel>  (833) 
-57.5977598532725

>  <r_i_glide_energy>  (833) 
-41.776658058166497

>  <r_i_glide_erotb>  (833) 
0.65132733116046104

>  <r_i_glide_esite>  (833) 
-0.114915062145726

>  <r_i_glide_evdw>  (833) 
-33.984676361083999

>  <r_i_glide_gscore>  (833) 
-4.6996336212376297

>  <r_i_glide_hbond>  (833) 
-0.32309870656732598

>  <r_i_glide_ligand_efficiency>  (833) 
-0.13255810346393199

>  <r_i_glide_ligand_efficiency_ln>  (833) 
-1.01848059876257

>  <r_i_glide_ligand_efficiency_sa>  (833) 
-0.43360634586948799

>  <r_i_glide_lipo>  (833) 
-1.81013992925028

>  <r_i_glide_metal>  (833) 
-0

>  <r_i_glide_rewards>  (833) 
-0.234776181818181

>  <r_lp_Energy>  (833) 
43.692239999999998

>  <r_qp_ACxDN^.5/SA>  (833) 
0.0121204

>  <r_qp_CIQPlogS>  (833) 
-6.0270000000000001

>  <r_qp_EA(eV)>  (833) 
0.80500000000000005

>  <r_qp_FISA>  (833) 
114.883

>  <r_qp_FOSA>  (833) 
208.71299999999999

>  <r_qp_IP(eV)>  (833) 
8.1519999999999992

>  <r_qp_Jm>  (833) 
0.0033618801809522998

>  <r_qp_PISA>  (833) 
434.26799999999997

>  <r_qp_PSA>  (833) 
91.478999999999999

>  <r_qp_PercentHumanOralAbsorption>  (833) 
93.858999999999995

>  <r_qp_QPPCaco>  (833) 
201.08000000000001

>  <r_qp_QPPMDCK>  (833) 
96.662000000000006

>  <r_qp_QPlogBB>  (833) 
-0.66400000000000003

>  <r_qp_QPlogHERG>  (833) 
-7.2720000000000002

>  <r_qp_QPlogKhsa>  (833) 
0.73499999999999999

>  <r_qp_QPlogKp>  (833) 
-3.4020000000000001

>  <r_qp_QPlogPC16>  (833) 
15.875

>  <r_qp_QPlogPo/w>  (833) 
4.3869999999999996

>  <r_qp_QPlogPoct>  (833) 
23.709

>  <r_qp_QPlogPw>  (833) 
13.098000000000001

>  <r_qp_QPlogS>  (833) 
-4.7389999999999999

>  <r_qp_QPpolrz>  (833) 
50.950000000000003

>  <r_qp_SASA>  (833) 
757.86300000000006

>  <r_qp_SAamideO>  (833) 
0

>  <r_qp_SAfluorine>  (833) 
0

>  <r_qp_WPSA>  (833) 
0

>  <r_qp_accptHB>  (833) 
7.5

>  <r_qp_dip^2/V>  (833) 
0.020186699999999998

>  <r_qp_dipole>  (833) 
5.4130000000000003

>  <r_qp_donorHB>  (833) 
1.5

>  <r_qp_glob>  (833) 
0.81810620000000001

>  <r_qp_mol_MW>  (833) 
464.56599999999997

>  <r_qp_volume>  (833) 
1451.6199999999999

>  <r_sd_BIOSOLVEIT.INFINISEE\_FTREES\_SIMILARITY>  (833) 
0.91400000000000003

>  <r_sd_BIOSOLVEIT.LOGP>  (833) 
3.76702

>  <r_sd_BIOSOLVEIT.MOLECULAR\_WEIGHT>  (833) 
465.57400000000001

>  <r_sd_BIOSOLVEIT.TPSA>  (833) 
89.519999999999996

>  <i_epik_Tot_Q>  (833) 
1

>  <i_epik_Tot_abs_Q>  (833) 
1

>  <i_f3d_flags>  (833) 
0

>  <i_i_glide_confnum>  (833) 
4

>  <i_i_glide_lignum>  (833) 
1100

>  <i_i_glide_posenum>  (833) 
19

>  <i_i_glide_rotatable_bonds>  (833) 
8

>  <i_lp_mmshare_version>  (833) 
65135

>  <i_m_ct_format>  (833) 
2

>  <i_m_source_file_index>  (833) 
2517

>  <i_qp_#NandO>  (833) 
6

>  <i_qp_#acid>  (833) 
0

>  <i_qp_#amide>  (833) 
0

>  <i_qp_#amidine>  (833) 
0

>  <i_qp_#amine>  (833) 
1

>  <i_qp_#in34>  (833) 
0

>  <i_qp_#in56>  (833) 
24

>  <i_qp_#metab>  (833) 
5

>  <i_qp_#nonHatm>  (833) 
35

>  <i_qp_#noncon>  (833) 
0

>  <i_qp_#ringatoms>  (833) 
24

>  <i_qp_#rotor>  (833) 
8

>  <i_qp_#rtvFG>  (833) 
0

>  <i_qp_#stars>  (833) 
0

>  <i_qp_CNS>  (833) 
1

>  <i_qp_HumanOralAbsorption>  (833) 
3

>  <i_qp_RuleOfFive>  (833) 
0

>  <i_qp_RuleOfThree>  (833) 
0

>  <i_sd_BIOSOLVEIT.INFINISEE\_RESULT\_RANK>  (833) 
32580

>  <i_sd_version>  (833) 
0

>  <b_lp_Chiralities_Consistent>  (833) 
1

>  <b_sd_chiral_flag>  (833) 
0

>  <canonical_id>  (833) 
ATP-HTVS-84AF7025C22A

>  <compound_code>  (833) 
80514

>  <title>  (833) 
rxn501c____EMOL5415347____EMOL36251210____EMOL109726415

>  <variant>  (833) 
80514-1

>  <source_file>  (833) 
运行/运行/ATP-VSW/ATP-VSW-DOCK_HTVS_1-002_lib.maegz

>  <canonical_smiles>  (833) 
Cc1c(N)cccc1-c1ccnc(NC(=O)c2ccccc2C[NH+](C)C)c1C(=O)c1ccccc1

>  <scaffold>  (833) 
O=C(Nc1nccc(-c2ccccc2)c1C(=O)c1ccccc1)c1ccccc1

>  <molecular_formula>  (833) 
C29H29N4O2+

$$$$
ATP-HTVS-84B0A2EEAAE5
     RDKit          3D

 72 75  0  0  0  0  0  0  0  0999 V2000
  200.3182  179.3784  154.8917 O   0  0  0  0  0  0  0  0  0  0  0  0
  199.5367  178.8153  155.6520 C   0  0  0  0  0  0  0  0  0  0  0  0
  199.9148  177.9080  156.5570 N   0  0  0  0  0  0  0  0  0  0  0  0
  201.2655  177.3549  156.6853 C   0  0  1  0  0  0  0  0  0  0  0  0
  201.5287  176.1462  155.7885 C   0  0  0  0  0  0  0  0  0  0  0  0
  200.9874  176.0647  154.4833 C   0  0  0  0  0  0  0  0  0  0  0  0
  201.2425  174.9464  153.6674 C   0  0  0  0  0  0  0  0  0  0  0  0
  202.0505  173.8969  154.1402 C   0  0  0  0  0  0  0  0  0  0  0  0
  202.6074  173.9742  155.4314 C   0  0  0  0  0  0  0  0  0  0  0  0
  202.3486  175.0921  156.2518 C   0  0  0  0  0  0  0  0  0  0  0  0
  198.0313  179.0631  155.5442 C   0  0  1  0  0  0  0  0  0  0  0  0
  197.6871  180.3225  154.8915 N   0  0  0  0  0  0  0  0  0  0  0  0
  197.5329  181.5005  155.6206 C   0  0  0  0  0  0  0  0  0  0  0  0
  197.7259  182.6736  154.9834 N   0  0  0  0  0  0  0  0  0  0  0  0
  197.4734  183.8354  155.6353 C   0  0  0  0  0  0  0  0  0  0  0  0
  197.6014  185.0249  154.9037 N   0  0  0  0  0  0  0  0  0  0  0  0
  198.0926  185.0486  153.5345 C   0  0  1  0  0  0  0  0  0  0  0  0
  197.2270  184.2363  152.5400 C   0  0  1  0  0  0  0  0  0  0  0  0
  197.8963  184.1567  151.1858 C   0  0  0  0  0  0  0  0  0  0  0  0
  197.7284  185.1785  150.2346 C   0  0  0  0  0  0  0  0  0  0  0  0
  198.3319  185.0586  148.9675 C   0  0  0  0  0  0  0  0  0  0  0  0
  199.1367  183.9299  148.6591 C   0  0  0  0  0  0  0  0  0  0  0  0
  199.3507  182.9406  149.6359 C   0  0  0  0  0  0  0  0  0  0  0  0
  198.7119  183.0484  150.8836 C   0  0  0  0  0  0  0  0  0  0  0  0
  199.7769  183.7801  147.2933 C   0  0  1  0  0  0  0  0  0  0  0  0
  199.0688  182.7964  146.4247 N   0  0  2  0  0  0  0  0  0  0  0  0
  199.1289  181.3920  146.9092 C   0  0  2  0  0  0  0  0  0  0  0  0
  199.5051  182.8886  145.0153 C   0  0  2  0  0  0  0  0  0  0  0  0
  197.0513  183.8382  156.9801 C   0  0  0  0  0  0  0  0  0  0  0  0
  196.8828  182.5793  157.5919 C   0  0  0  0  0  0  0  0  0  0  0  0
  197.1294  181.4389  156.8994 N   0  0  0  0  0  0  0  0  0  0  0  0
  196.4457  182.4711  158.9191 C   0  0  0  0  0  0  0  0  0  0  0  0
  196.1886  183.6425  159.6634 C   0  0  0  0  0  0  0  0  0  0  0  0
  196.3366  184.9137  159.0608 C   0  0  0  0  0  0  0  0  0  0  0  0
  196.7605  185.0047  157.7195 C   0  0  0  0  0  0  0  0  0  0  0  0
  197.7844  180.3405  153.4382 C   0  0  2  0  0  0  0  0  0  0  0  0
  199.1994  177.5248  157.1644 H   0  0  0  0  0  0  0  0  0  0  0  0
  202.0068  178.1281  156.4643 H   0  0  0  0  0  0  0  0  0  0  0  0
  201.4103  177.0858  157.7323 H   0  0  0  0  0  0  0  0  0  0  0  0
  200.3706  176.8486  154.0744 H   0  0  0  0  0  0  0  0  0  0  0  0
  200.8091  174.9049  152.6788 H   0  0  0  0  0  0  0  0  0  0  0  0
  202.2399  173.0358  153.5144 H   0  0  0  0  0  0  0  0  0  0  0  0
  203.2264  173.1658  155.7942 H   0  0  0  0  0  0  0  0  0  0  0  0
  202.7773  175.1297  157.2428 H   0  0  0  0  0  0  0  0  0  0  0  0
  197.5827  178.2379  155.0075 H   0  0  0  0  0  0  0  0  0  0  0  0
  197.5888  179.0404  156.5248 H   0  0  0  0  0  0  0  0  0  0  0  0
  197.5157  185.9085  155.3948 H   0  0  0  0  0  0  0  0  0  0  0  0
  198.1235  186.0890  153.2240 H   0  0  0  0  0  0  0  0  0  0  0  0
  199.1296  184.7105  153.5421 H   0  0  0  0  0  0  0  0  0  0  0  0
  197.0712  183.2038  152.8773 H   0  0  0  0  0  0  0  0  0  0  0  0
  196.2235  184.6498  152.4502 H   0  0  0  0  0  0  0  0  0  0  0  0
  197.1448  186.0513  150.4853 H   0  0  0  0  0  0  0  0  0  0  0  0
  198.1762  185.8388  148.2332 H   0  0  0  0  0  0  0  0  0  0  0  0
  199.9837  182.0884  149.4624 H   0  0  0  0  0  0  0  0  0  0  0  0
  198.8546  182.2487  151.5979 H   0  0  0  0  0  0  0  0  0  0  0  0
  199.7715  184.7660  146.8180 H   0  0  0  0  0  0  0  0  0  0  0  0
  200.8304  183.5055  147.4120 H   0  0  0  0  0  0  0  0  0  0  0  0
  200.1669  181.0665  146.9848 H   0  0  0  0  0  0  0  0  0  0  0  0
  198.6130  180.7148  146.2186 H   0  0  0  0  0  0  0  0  0  0  0  0
  198.6603  181.2772  147.8935 H   0  0  0  0  0  0  0  0  0  0  0  0
  200.5726  182.6799  144.9244 H   0  0  0  0  0  0  0  0  0  0  0  0
  199.3101  183.8772  144.5954 H   0  0  0  0  0  0  0  0  0  0  0  0
  198.9716  182.1590  144.4068 H   0  0  0  0  0  0  0  0  0  0  0  0
  196.3365  181.4974  159.3758 H   0  0  0  0  0  0  0  0  0  0  0  0
  195.8825  183.5678  160.7059 H   0  0  0  0  0  0  0  0  0  0  0  0
  196.1359  185.8091  159.6342 H   0  0  0  0  0  0  0  0  0  0  0  0
  196.8542  185.9842  157.2780 H   0  0  0  0  0  0  0  0  0  0  0  0
  196.8818  180.7460  152.9807 H   0  0  0  0  0  0  0  0  0  0  0  0
  197.9624  179.3562  153.0144 H   0  0  0  0  0  0  0  0  0  0  0  0
  198.6400  180.9548  153.1650 H   0  0  0  0  0  0  0  0  0  0  0  0
  196.8893  180.5565  157.3280 H   0  0  0  0  0  0  0  0  0  0  0  0
  198.0955  183.0675  146.4414 H   0  0  0  0  0  0  0  0  0  0  0  0
  1  2  2  0
  2  3  1  0
  2 11  1  0
  3  4  1  0
  3 37  1  0
  4  5  1  0
  4 38  1  6
  4 39  1  0
  5  6  2  0
  5 10  1  0
  6  7  1  0
  6 40  1  0
  7  8  2  0
  7 41  1  0
  8  9  1  0
  8 42  1  0
  9 10  2  0
  9 43  1  0
 10 44  1  0
 11 12  1  0
 11 45  1  6
 11 46  1  0
 12 13  1  0
 12 36  1  0
 13 14  1  0
 13 31  2  0
 14 15  2  0
 15 16  1  0
 15 29  1  0
 16 17  1  0
 16 47  1  0
 17 18  1  0
 17 48  1  6
 17 49  1  0
 18 19  1  0
 18 50  1  1
 18 51  1  0
 19 20  1  0
 19 24  2  0
 20 21  2  0
 20 52  1  0
 21 22  1  0
 21 53  1  0
 22 23  2  0
 22 25  1  0
 23 24  1  0
 23 54  1  0
 24 55  1  0
 25 26  1  0
 25 56  1  6
 25 57  1  0
 26 27  1  0
 26 28  1  0
 26 72  1  6
 27 58  1  1
 27 59  1  0
 27 60  1  0
 28 61  1  1
 28 62  1  0
 28 63  1  0
 29 30  1  0
 29 35  2  0
 30 31  1  0
 30 32  2  0
 31 71  1  0
 32 33  1  0
 32 64  1  0
 33 34  2  0
 33 65  1  0
 34 35  1  0
 34 66  1  0
 35 67  1  0
 36 68  1  6
 36 69  1  0
 36 70  1  0
M  CHG  2  26   1  31   1
M  END
>  <s_epik_cmdline>  (834) 
J2VwaWtfcHl0aG9uJywgJy1waCcsICc3LjAwMDAwMCcsICctcGh0JywgJzIuMDAwMDAwJywgJy1tcycsICcxNicsICctdG4nLCAnOCcsICctbWEnLCAnMjAwJywgJy1pbWFlJywgJzxpbmZpbGUubWFlPicsICctb21hZScsICc8b3V0ZmlsZS5tYWU+Jw==

>  <s_epik_input>  (834) 
W2NIXTFbY0hdW2NIXVtjSF1bY0hdYzFbQ0gyXVtOSF1DKD1PKVtDSDJdTihbQ0gzXSljKG5jKGMyMylbY0hdW2NIXVtjSF1bY0hdMyluYzJbTkhdW0NIMl1bQ0gyXWM0W2NIXVtjSF1jKFtjSF1bY0hdNClbQ0gyXU4oW0NIM10pW0NIM10=

>  <s_i_glide_gridfile>  (834) 
ATP-Grid

>  <s_lp_Force_Field>  (834) 
OPLS_2005

>  <s_lp_Variant>  (834) 
m_282030aaa____21894442____22360182____21967972-1

>  <s_lp_label>  (834) 
1025_sdstereoexpander_1_neutralizer_1_epik_1_stereoizer_1

>  <s_m_source_file>  (834) 
ATP-VSW-LIGPREP-003-in.maegz

>  <s_sd_BIOSOLVEIT.INFINISEE\_QUERY\_NAME>  (834) 
Ref-Lig

>  <s_sd_BIOSOLVEIT.INFINISEE\_QUERY\_SMILES>  (834) 
S(c1nc2c(cc1C[NH2+]Cc3ccc(cc3)C[NH+](C)C)cccc2)Cc4ccccc4

>  <s_sd_BIOSOLVEIT.INFINISEE\_REACTION\_NAME>  (834) 
m_282030aaa

>  <s_sd_BIOSOLVEIT.INFINISEE\_REAGENT1\_SMILES>  (834) 
[R1*]N(CC(=O)NCc1ccccc1)C

>  <s_sd_BIOSOLVEIT.INFINISEE\_REAGENT2\_SMILES>  (834) 
[R2*]c1nc([R1*])c2c(n1)cccc2

>  <s_sd_BIOSOLVEIT.INFINISEE\_REAGENT3\_SMILES>  (834) 
[R2*]NCCc1ccc(cc1)CN(C)C

>  <s_sd_BIOSOLVEIT.INFINISEE\_SPACE>  (834) 
REALSpace_44bn_2023-08

>  <s_vsw_compound_code>  (834) 
32771

>  <s_vsw_variant>  (834) 
32771-1

>  <r_epik_Charging_Adjusted_Penalty>  (834) 
0.113930768919766

>  <r_epik_Ionization_Penalty>  (834) 
0.057500000000000002

>  <r_epik_Ionization_Penalty_Charging>  (834) 
0.057500000000000002

>  <r_epik_Ionization_Penalty_Neutral>  (834) 
0

>  <r_epik_State_Penalty>  (834) 
0.056399999999999999

>  <r_i_docking_score>  (834) 
-4.2045778710791302

>  <r_i_glide_ecoul>  (834) 
-6.0409622192382804

>  <r_i_glide_eff_state_penalty>  (834) 
0.056399999999999999

>  <r_i_glide_einternal>  (834) 
2.0883629322052002

>  <r_i_glide_emodel>  (834) 
-58.70738819508

>  <r_i_glide_energy>  (834) 
-41.478729248046903

>  <r_i_glide_erotb>  (834) 
0.86469965299962803

>  <r_i_glide_esite>  (834) 
-0.30390375547272602

>  <r_i_glide_evdw>  (834) 
-35.437767028808601

>  <r_i_glide_gscore>  (834) 
-4.2609778710791302

>  <r_i_glide_hbond>  (834) 
-0.35992231223034599

>  <r_i_glide_ligand_efficiency>  (834) 
-0.116793829752198

>  <r_i_glide_ligand_efficiency_ln>  (834) 
-0.91732529690285902

>  <r_i_glide_ligand_efficiency_sa>  (834) 
-0.38564472850088799

>  <r_i_glide_lipo>  (834) 
-1.6790624538676999

>  <r_i_glide_metal>  (834) 
-0

>  <r_i_glide_rewards>  (834) 
-0.10475631818181699

>  <r_lp_Energy>  (834) 
5.7900460000000002

>  <r_lp_tautomer_probability>  (834) 
0.99350799999861505

>  <r_qp_ACxDN^.5/SA>  (834) 
0.0137836

>  <r_qp_CIQPlogS>  (834) 
-5.5999999999999996

>  <r_qp_EA(eV)>  (834) 
0.49399999999999999

>  <r_qp_FISA>  (834) 
47.780000000000001

>  <r_qp_FOSA>  (834) 
356.57900000000001

>  <r_qp_IP(eV)>  (834) 
7.9089999999999998

>  <r_qp_Jm>  (834) 
0.45423842162036798

>  <r_qp_PISA>  (834) 
365.15100000000001

>  <r_qp_PSA>  (834) 
69.504000000000005

>  <r_qp_PercentHumanOralAbsorption>  (834) 
100

>  <r_qp_QPPCaco>  (834) 
648.74599999999998

>  <r_qp_QPPMDCK>  (834) 
471.03300000000002

>  <r_qp_QPlogBB>  (834) 
-0.16500000000000001

>  <r_qp_QPlogHERG>  (834) 
-5.4029999999999996

>  <r_qp_QPlogKhsa>  (834) 
0.44400000000000001

>  <r_qp_QPlogKp>  (834) 
-2.1200000000000001

>  <r_qp_QPlogPC16>  (834) 
15.529

>  <r_qp_QPlogPo/w>  (834) 
4.4699999999999998

>  <r_qp_QPlogPoct>  (834) 
23.981999999999999

>  <r_qp_QPlogPw>  (834) 
13.456

>  <r_qp_QPlogS>  (834) 
-3.9060000000000001

>  <r_qp_QPpolrz>  (834) 
50.823999999999998

>  <r_qp_SASA>  (834) 
769.51099999999997

>  <r_qp_SAamideO>  (834) 
16.033000000000001

>  <r_qp_SAfluorine>  (834) 
0

>  <r_qp_WPSA>  (834) 
0

>  <r_qp_accptHB>  (834) 
7.5

>  <r_qp_dip^2/V>  (834) 
0.024594700000000001

>  <r_qp_dipole>  (834) 
6.0999999999999996

>  <r_qp_donorHB>  (834) 
2

>  <r_qp_glob>  (834) 
0.82830879999999996

>  <r_qp_mol_MW>  (834) 
482.62700000000001

>  <r_qp_volume>  (834) 
1513.0830000000001

>  <r_sd_BIOSOLVEIT.INFINISEE\_FTREES\_SIMILARITY>  (834) 
0.91500000000000004

>  <r_sd_BIOSOLVEIT.LOGP>  (834) 
2.6815000000000002

>  <r_sd_BIOSOLVEIT.MOLECULAR\_WEIGHT>  (834) 
483.637

>  <r_sd_BIOSOLVEIT.TPSA>  (834) 
74.590000000000003

>  <i_epik_Tot_Q>  (834) 
2

>  <i_epik_Tot_abs_Q>  (834) 
2

>  <i_f3d_flags>  (834) 
0

>  <i_i_glide_confnum>  (834) 
13

>  <i_i_glide_lignum>  (834) 
389

>  <i_i_glide_posenum>  (834) 
7

>  <i_i_glide_rotatable_bonds>  (834) 
12

>  <i_lp_mmshare_version>  (834) 
65135

>  <i_m_ct_format>  (834) 
2

>  <i_m_source_file_index>  (834) 
1025

>  <i_qp_#NandO>  (834) 
7

>  <i_qp_#acid>  (834) 
0

>  <i_qp_#amide>  (834) 
1

>  <i_qp_#amidine>  (834) 
0

>  <i_qp_#amine>  (834) 
1

>  <i_qp_#in34>  (834) 
0

>  <i_qp_#in56>  (834) 
22

>  <i_qp_#metab>  (834) 
6

>  <i_qp_#nonHatm>  (834) 
36

>  <i_qp_#noncon>  (834) 
0

>  <i_qp_#ringatoms>  (834) 
22

>  <i_qp_#rotor>  (834) 
11

>  <i_qp_#rtvFG>  (834) 
0

>  <i_qp_#stars>  (834) 
0

>  <i_qp_CNS>  (834) 
1

>  <i_qp_HumanOralAbsorption>  (834) 
3

>  <i_qp_RuleOfFive>  (834) 
0

>  <i_qp_RuleOfThree>  (834) 
0

>  <i_sd_BIOSOLVEIT.INFINISEE\_REAGENT1\_NAME>  (834) 
21894442

>  <i_sd_BIOSOLVEIT.INFINISEE\_REAGENT2\_NAME>  (834) 
22360182

>  <i_sd_BIOSOLVEIT.INFINISEE\_REAGENT3\_NAME>  (834) 
21967972

>  <i_sd_BIOSOLVEIT.INFINISEE\_RESULT\_RANK>  (834) 
27733

>  <i_sd_version>  (834) 
0

>  <b_lp_Chiralities_Consistent>  (834) 
1

>  <b_sd_chiral_flag>  (834) 
0

>  <canonical_id>  (834) 
ATP-HTVS-84B0A2EEAAE5

>  <compound_code>  (834) 
32771

>  <title>  (834) 
m_282030aaa____21894442____22360182____21967972

>  <variant>  (834) 
32771-1

>  <source_file>  (834) 
运行/运行/ATP-VSW/ATP-VSW-DOCK_HTVS_1-003_lib/ATP-VSW-DOCK_HTVS_1-003_lib.mae

>  <canonical_smiles>  (834) 
CN(CC(=O)NCc1ccccc1)c1nc(NCCc2ccc(C[NH+](C)C)cc2)c2ccccc2[nH+]1

>  <scaffold>  (834) 
O=C(CNc1nc(NCCc2ccccc2)c2ccccc2[nH+]1)NCc1ccccc1

>  <molecular_formula>  (834) 
C29H36N6O+2

$$$$
ATP-HTVS-84B7FD2F846A
     RDKit          3D

 62 65  0  0  0  0  0  0  0  0999 V2000
  197.3577  181.9415  152.9567 N   0  0  0  0  0  0  0  0  0  0  0  0
  197.2896  183.2042  153.4002 C   0  0  0  0  0  0  0  0  0  0  0  0
  197.4102  184.2618  152.5827 N   0  0  0  0  0  0  0  0  0  0  0  0
  197.6438  184.0911  151.2564 C   0  0  0  0  0  0  0  0  0  0  0  0
  197.7195  182.7674  150.6889 C   0  0  0  0  0  0  0  0  0  0  0  0
  197.5519  181.7072  151.6337 C   0  0  0  0  0  0  0  0  0  0  0  0
  197.6090  180.3297  151.2643 N   0  0  0  0  0  0  0  0  0  0  0  0
  196.7919  179.8683  150.1449 C   0  0  1  0  0  0  0  0  0  0  0  0
  197.5538  179.3221  148.9182 C   0  0  0  0  0  0  0  0  0  0  0  0
  196.9144  178.4774  148.0103 C   0  0  0  0  0  0  0  0  0  0  0  0
  197.5500  178.1420  146.7881 C   0  0  0  0  0  0  0  0  0  0  0  0
  198.7920  178.7239  146.4354 C   0  0  0  0  0  0  0  0  0  0  0  0
  199.4405  179.5670  147.3283 C   0  0  0  0  0  0  0  0  0  0  0  0
  198.8562  179.8183  148.6024 C   0  0  0  0  0  0  0  0  0  0  0  0
  197.8338  179.3276  152.3071 C   0  0  2  0  0  0  0  0  0  0  0  0
  197.9159  182.6533  149.3167 C   0  0  0  0  0  0  0  0  0  0  0  0
  198.1780  183.7433  148.5207 C   0  0  0  0  0  0  0  0  0  0  0  0
  198.0615  185.0623  149.0410 C   0  0  0  0  0  0  0  0  0  0  0  0
  197.7732  185.2293  150.4193 C   0  0  0  0  0  0  0  0  0  0  0  0
  197.1360  183.4554  154.7293 N   0  0  0  0  0  0  0  0  0  0  0  0
  196.8888  182.4301  155.7208 C   0  0  1  0  0  0  0  0  0  0  0  0
  196.5303  182.9850  157.0822 C   0  0  0  0  0  0  0  0  0  0  0  0
  197.1503  184.1508  157.5936 C   0  0  0  0  0  0  0  0  0  0  0  0
  196.8328  184.6212  158.8873 C   0  0  0  0  0  0  0  0  0  0  0  0
  195.9153  183.8850  159.6721 C   0  0  0  0  0  0  0  0  0  0  0  0
  195.2456  182.7762  159.1429 C   0  0  0  0  0  0  0  0  0  0  0  0
  195.5626  182.3147  157.8602 C   0  0  0  0  0  0  0  0  0  0  0  0
  197.4682  185.9049  159.4256 C   0  0  1  0  0  0  0  0  0  0  0  0
  196.5035  187.0411  159.5579 N   0  0  2  0  0  0  0  0  0  0  0  0
  197.1820  188.3300  159.8699 C   0  0  2  0  0  0  0  0  0  0  0  0
  195.3905  186.7904  160.5206 C   0  0  2  0  0  0  0  0  0  0  0  0
  196.1217  179.0791  150.4743 H   0  0  0  0  0  0  0  0  0  0  0  0
  196.1114  180.6722  149.8536 H   0  0  0  0  0  0  0  0  0  0  0  0
  195.9452  178.0858  148.2186 H   0  0  0  0  0  0  0  0  0  0  0  0
  197.0832  177.4133  146.1244 H   0  0  0  0  0  0  0  0  0  0  0  0
  199.2579  178.4771  145.4834 H   0  0  0  0  0  0  0  0  0  0  0  0
  200.3236  180.1010  147.0545 H   0  0  0  0  0  0  0  0  0  0  0  0
  199.4174  180.4638  149.2756 H   0  0  0  0  0  0  0  0  0  0  0  0
  198.6197  179.6433  152.9941 H   0  0  0  0  0  0  0  0  0  0  0  0
  198.1393  178.3607  151.8941 H   0  0  0  0  0  0  0  0  0  0  0  0
  196.9256  179.1672  152.8947 H   0  0  0  0  0  0  0  0  0  0  0  0
  197.8329  181.7516  148.7923 H   0  0  0  0  0  0  0  0  0  0  0  0
  198.3780  183.5745  147.4710 H   0  0  0  0  0  0  0  0  0  0  0  0
  198.1612  185.9230  148.3314 H   0  0  0  0  0  0  0  0  0  0  0  0
  197.6684  186.2264  150.7985 H   0  0  0  0  0  0  0  0  0  0  0  0
  196.9805  184.4151  154.9872 H   0  0  0  0  0  0  0  0  0  0  0  0
  196.0887  181.7735  155.3813 H   0  0  0  0  0  0  0  0  0  0  0  0
  197.7873  181.8270  155.8328 H   0  0  0  0  0  0  0  0  0  0  0  0
  197.8996  184.6660  157.0040 H   0  0  0  0  0  0  0  0  0  0  0  0
  195.6795  184.1717  160.6928 H   0  0  0  0  0  0  0  0  0  0  0  0
  194.4769  182.2831  159.7196 H   0  0  0  0  0  0  0  0  0  0  0  0
  195.0565  181.4308  157.4914 H   0  0  0  0  0  0  0  0  0  0  0  0
  197.9315  185.6869  160.3839 H   0  0  0  0  0  0  0  0  0  0  0  0
  198.2765  186.2003  158.7545 H   0  0  0  0  0  0  0  0  0  0  0  0
  197.7364  188.2615  160.8062 H   0  0  0  0  0  0  0  0  0  0  0  0
  196.4360  189.1170  159.9827 H   0  0  0  0  0  0  0  0  0  0  0  0
  197.8654  188.6259  159.0728 H   0  0  0  0  0  0  0  0  0  0  0  0
  195.8100  186.5766  161.5218 H   0  0  0  0  0  0  0  0  0  0  0  0
  194.7435  186.0037  160.1967 H   0  0  0  0  0  0  0  0  0  0  0  0
  194.7216  187.6637  160.5941 H   0  0  0  0  0  0  0  0  0  0  0  0
  197.3373  185.2374  152.9367 H   0  0  0  0  0  0  0  0  0  0  0  0
  196.0721  187.1567  158.6489 H   0  0  0  0  0  0  0  0  0  0  0  0
  1  2  1  0
  1  6  2  0
  2  3  2  0
  2 20  1  0
  3  4  1  0
  3 61  1  0
  4  5  1  0
  4 19  2  0
  5  6  1  0
  5 16  2  0
  6  7  1  0
  7  8  1  0
  7 15  1  0
  8  9  1  0
  8 32  1  1
  8 33  1  0
  9 10  2  0
  9 14  1  0
 10 11  1  0
 10 34  1  0
 11 12  2  0
 11 35  1  0
 12 13  1  0
 12 36  1  0
 13 14  2  0
 13 37  1  0
 14 38  1  0
 15 39  1  1
 15 40  1  0
 15 41  1  0
 16 17  1  0
 16 42  1  0
 17 18  2  0
 17 43  1  0
 18 19  1  0
 18 44  1  0
 19 45  1  0
 20 21  1  0
 20 46  1  0
 21 22  1  0
 21 47  1  6
 21 48  1  0
 22 23  2  0
 22 27  1  0
 23 24  1  0
 23 49  1  0
 24 25  2  0
 24 28  1  0
 25 26  1  0
 25 50  1  0
 26 27  2  0
 26 51  1  0
 27 52  1  0
 28 29  1  0
 28 53  1  1
 28 54  1  0
 29 30  1  0
 29 31  1  0
 29 62  1  6
 30 55  1  1
 30 56  1  0
 30 57  1  0
 31 58  1  1
 31 59  1  0
 31 60  1  0
M  CHG  2   3   1  29   1
M  END
>  <s_epik_cmdline>  (835) 
J2VwaWtfcHl0aG9uJywgJy1waCcsICc3LjAwMDAwMCcsICctcGh0JywgJzIuMDAwMDAwJywgJy1tcycsICcxNicsICctdG4nLCAnOCcsICctbWEnLCAnMjAwJywgJy1pbWFlJywgJzxpbmZpbGUubWFlPicsICctb21hZScsICc8b3V0ZmlsZS5tYWU+Jw==

>  <s_epik_input>  (835) 
W2NIXTFbY0hdW2NIXWMoW0NIMl1OKFtDSDNdKVtDSDNdKVtjSF1jMVtDSDJdW05IXWMobjIpbmMoYyhjMjMpW2NIXVtjSF1bY0hdW2NIXTMpTihbQ0gzXSlbQ0gyXWM0W2NIXVtjSF1bY0hdW2NIXVtjSF00

>  <s_i_glide_gridfile>  (835) 
ATP-Grid

>  <s_lp_Force_Field>  (835) 
OPLS_2005

>  <s_lp_Variant>  (835) 
m_282030aaa____21931274____22360182____21940090-1

>  <s_lp_label>  (835) 
661_sdstereoexpander_1_neutralizer_1_epik_1_stereoizer_1

>  <s_m_source_file>  (835) 
ATP-VSW-LIGPREP-001-in.maegz

>  <s_sd_BIOSOLVEIT.INFINISEE\_QUERY\_NAME>  (835) 
Ref-Lig

>  <s_sd_BIOSOLVEIT.INFINISEE\_QUERY\_SMILES>  (835) 
S(c1nc2c(cc1C[NH2+]Cc3ccc(cc3)C[NH+](C)C)cccc2)Cc4ccccc4

>  <s_sd_BIOSOLVEIT.INFINISEE\_REACTION\_NAME>  (835) 
m_282030aaa

>  <s_sd_BIOSOLVEIT.INFINISEE\_REAGENT1\_SMILES>  (835) 
[R1*]N(Cc1ccccc1)C

>  <s_sd_BIOSOLVEIT.INFINISEE\_REAGENT2\_SMILES>  (835) 
[R2*]c1nc([R1*])c2c(n1)cccc2

>  <s_sd_BIOSOLVEIT.INFINISEE\_REAGENT3\_SMILES>  (835) 
[R2*]NCc1cc(ccc1)CN(C)C

>  <s_sd_BIOSOLVEIT.INFINISEE\_SPACE>  (835) 
REALSpace_44bn_2023-08

>  <s_vsw_compound_code>  (835) 
21121

>  <s_vsw_variant>  (835) 
21121-1

>  <r_epik_Charging_Adjusted_Penalty>  (835) 
0.102693998609584

>  <r_epik_Ionization_Penalty>  (835) 
0.0516

>  <r_epik_Ionization_Penalty_Charging>  (835) 
0.0516

>  <r_epik_Ionization_Penalty_Neutral>  (835) 
0

>  <r_epik_State_Penalty>  (835) 
0.0511

>  <r_i_docking_score>  (835) 
-3.71237336752773

>  <r_i_glide_ecoul>  (835) 
-1.7151530981063801

>  <r_i_glide_eff_state_penalty>  (835) 
0.0511

>  <r_i_glide_einternal>  (835) 
3.0571820735931401

>  <r_i_glide_emodel>  (835) 
-48.711992875241002

>  <r_i_glide_energy>  (835) 
-35.1451495885849

>  <r_i_glide_erotb>  (835) 
0.80749250960972097

>  <r_i_glide_esite>  (835) 
-0.073374184153244607

>  <r_i_glide_evdw>  (835) 
-33.429996490478501

>  <r_i_glide_gscore>  (835) 
-3.7634733675277299

>  <r_i_glide_hbond>  (835) 
0

>  <r_i_glide_ligand_efficiency>  (835) 
-0.11975397959766899

>  <r_i_glide_ligand_efficiency_ln>  (835) 
-0.83725396495788795

>  <r_i_glide_ligand_efficiency_sa>  (835) 
-0.37619283412437698

>  <r_i_glide_lipo>  (835) 
-1.92262876202084

>  <r_i_glide_metal>  (835) 
-0

>  <r_i_glide_rewards>  (835) 
-0.64619014172348099

>  <r_lp_Energy>  (835) 
19.364846

>  <r_qp_ACxDN^.5/SA>  (835) 
0.0078178999999999992

>  <r_qp_CIQPlogS>  (835) 
-5.8559999999999999

>  <r_qp_EA(eV)>  (835) 
0.73099999999999998

>  <r_qp_FISA>  (835) 
28.204000000000001

>  <r_qp_FOSA>  (835) 
270.54500000000002

>  <r_qp_IP(eV)>  (835) 
8.1600000000000001

>  <r_qp_Jm>  (835) 
0.80227080728889899

>  <r_qp_PISA>  (835) 
340.81200000000001

>  <r_qp_PSA>  (835) 
38.024000000000001

>  <r_qp_PercentHumanOralAbsorption>  (835) 
100

>  <r_qp_QPPCaco>  (835) 
1334.5740000000001

>  <r_qp_QPPMDCK>  (835) 
747.67100000000005

>  <r_qp_QPlogBB>  (835) 
0.24299999999999999

>  <r_qp_QPlogHERG>  (835) 
-5.6390000000000002

>  <r_qp_QPlogKhsa>  (835) 
0.81100000000000005

>  <r_qp_QPlogKp>  (835) 
-2.133

>  <r_qp_QPlogPC16>  (835) 
12.959

>  <r_qp_QPlogPo/w>  (835) 
4.9349999999999996

>  <r_qp_QPlogPoct>  (835) 
18.289000000000001

>  <r_qp_QPlogPw>  (835) 
8.3930000000000007

>  <r_qp_QPlogS>  (835) 
-3.577

>  <r_qp_QPpolrz>  (835) 
43.194000000000003

>  <r_qp_SASA>  (835) 
639.56100000000004

>  <r_qp_SAamideO>  (835) 
0

>  <r_qp_SAfluorine>  (835) 
0

>  <r_qp_WPSA>  (835) 
0

>  <r_qp_accptHB>  (835) 
5

>  <r_qp_dip^2/V>  (835) 
0.00095929999999999995

>  <r_qp_dipole>  (835) 
1.1080000000000001

>  <r_qp_donorHB>  (835) 
1

>  <r_qp_glob>  (835) 
0.89148989999999995

>  <r_qp_mol_MW>  (835) 
411.54899999999998

>  <r_qp_volume>  (835) 
1280.1189999999999

>  <r_sd_BIOSOLVEIT.INFINISEE\_FTREES\_SIMILARITY>  (835) 
0.94599999999999995

>  <r_sd_BIOSOLVEIT.LOGP>  (835) 
3.5228000000000002

>  <r_sd_BIOSOLVEIT.MOLECULAR\_WEIGHT>  (835) 
412.55799999999999

>  <r_sd_BIOSOLVEIT.TPSA>  (835) 
45.490000000000002

>  <i_epik_Tot_Q>  (835) 
2

>  <i_epik_Tot_abs_Q>  (835) 
2

>  <i_f3d_flags>  (835) 
0

>  <i_i_glide_confnum>  (835) 
5

>  <i_i_glide_lignum>  (835) 
95

>  <i_i_glide_posenum>  (835) 
8

>  <i_i_glide_rotatable_bonds>  (835) 
8

>  <i_lp_mmshare_version>  (835) 
65135

>  <i_m_ct_format>  (835) 
2

>  <i_m_source_file_index>  (835) 
661

>  <i_qp_#NandO>  (835) 
5

>  <i_qp_#acid>  (835) 
0

>  <i_qp_#amide>  (835) 
0

>  <i_qp_#amidine>  (835) 
0

>  <i_qp_#amine>  (835) 
1

>  <i_qp_#in34>  (835) 
0

>  <i_qp_#in56>  (835) 
22

>  <i_qp_#metab>  (835) 
4

>  <i_qp_#nonHatm>  (835) 
31

>  <i_qp_#noncon>  (835) 
0

>  <i_qp_#ringatoms>  (835) 
22

>  <i_qp_#rotor>  (835) 
8

>  <i_qp_#rtvFG>  (835) 
0

>  <i_qp_#stars>  (835) 
0

>  <i_qp_CNS>  (835) 
1

>  <i_qp_HumanOralAbsorption>  (835) 
3

>  <i_qp_RuleOfFive>  (835) 
0

>  <i_qp_RuleOfThree>  (835) 
0

>  <i_sd_BIOSOLVEIT.INFINISEE\_REAGENT1\_NAME>  (835) 
21931274

>  <i_sd_BIOSOLVEIT.INFINISEE\_REAGENT2\_NAME>  (835) 
22360182

>  <i_sd_BIOSOLVEIT.INFINISEE\_REAGENT3\_NAME>  (835) 
21940090

>  <i_sd_BIOSOLVEIT.INFINISEE\_RESULT\_RANK>  (835) 
548

>  <i_sd_version>  (835) 
0

>  <b_lp_Chiralities_Consistent>  (835) 
1

>  <b_sd_chiral_flag>  (835) 
0

>  <canonical_id>  (835) 
ATP-HTVS-84B7FD2F846A

>  <compound_code>  (835) 
21121

>  <title>  (835) 
m_282030aaa____21931274____22360182____21940090

>  <variant>  (835) 
21121-1

>  <source_file>  (835) 
运行/运行/ATP-VSW/ATP-VSW-DOCK_HTVS_1-001_lib/ATP-VSW-DOCK_HTVS_1-001_lib

>  <canonical_smiles>  (835) 
CN(Cc1ccccc1)c1nc(NCc2cccc(C[NH+](C)C)c2)[nH+]c2ccccc12

>  <scaffold>  (835) 
c1ccc(CNc2nc(NCc3ccccc3)c3ccccc3[nH+]2)cc1

>  <molecular_formula>  (835) 
C26H31N5+2

$$$$
ATP-HTVS-84C0F320BB18
     RDKit          3D

 46 49  0  0  0  0  0  0  0  0999 V2000
  196.0142  184.5498  160.5342 F   0  0  0  0  0  0  0  0  0  0  0  0
  196.3677  183.8020  159.4640 C   0  0  0  0  0  0  0  0  0  0  0  0
  195.3975  183.0100  158.8250 C   0  0  0  0  0  0  0  0  0  0  0  0
  195.7574  182.2328  157.7111 C   0  0  0  0  0  0  0  0  0  0  0  0
  197.0749  182.2580  157.2082 C   0  0  0  0  0  0  0  0  0  0  0  0
  198.0463  183.0588  157.8499 C   0  0  0  0  0  0  0  0  0  0  0  0
  197.6946  183.8282  158.9791 C   0  0  0  0  0  0  0  0  0  0  0  0
  197.3762  181.4223  156.0407 C   0  0  0  0  0  0  0  0  0  0  0  0
  198.6039  181.1271  155.5763 C   0  0  0  0  0  0  0  0  0  0  0  0
  198.8277  180.3769  154.4008 N   0  0  0  0  0  0  0  0  0  0  0  0
  197.9837  180.2912  153.2807 C   0  0  0  0  0  0  0  0  0  0  0  0
  198.6827  179.4723  152.3553 C   0  0  0  0  0  0  0  0  0  0  0  0
  199.9350  179.1318  152.8530 N   0  0  0  0  0  0  0  0  0  0  0  0
  199.9200  179.6366  154.0890 C   0  0  0  0  0  0  0  0  0  0  0  0
  201.0506  179.3666  155.0505 C   0  0  1  0  0  0  0  0  0  0  0  0
  200.7249  178.2386  156.0347 C   0  0  0  0  0  0  0  0  0  0  0  0
  200.2194  178.5754  157.1493 N   0  0  0  0  0  0  0  0  0  0  0  0
  199.9368  177.4358  157.9749 O   0  0  0  0  0  0  0  0  0  0  0  0
  201.1324  176.8525  155.6288 C   0  0  0  0  0  0  0  0  0  0  0  0
  201.9428  176.0619  156.4919 C   0  0  0  0  0  0  0  0  0  0  0  0
  202.3516  174.7566  156.1211 C   0  0  0  0  0  0  0  0  0  0  0  0
  201.9572  174.2233  154.8820 C   0  0  0  0  0  0  0  0  0  0  0  0
  201.1648  175.0001  154.0161 C   0  0  0  0  0  0  0  0  0  0  0  0
  200.7492  176.2859  154.4038 C   0  0  0  0  0  0  0  0  0  0  0  0
  198.0950  179.1291  151.1179 C   0  0  0  0  0  0  0  0  0  0  0  0
  196.8313  179.6486  150.7717 C   0  0  0  0  0  0  0  0  0  0  0  0
  196.1604  180.5029  151.6662 C   0  0  0  0  0  0  0  0  0  0  0  0
  196.7367  180.8461  152.9047 C   0  0  0  0  0  0  0  0  0  0  0  0
  194.3804  182.9796  159.1840 H   0  0  0  0  0  0  0  0  0  0  0  0
  195.0133  181.6318  157.2159 H   0  0  0  0  0  0  0  0  0  0  0  0
  199.0633  183.0966  157.4895 H   0  0  0  0  0  0  0  0  0  0  0  0
  198.4375  184.4354  159.4802 H   0  0  0  0  0  0  0  0  0  0  0  0
  196.4974  181.0205  155.5637 H   0  0  0  0  0  0  0  0  0  0  0  0
  199.5081  181.4274  156.0737 H   0  0  0  0  0  0  0  0  0  0  0  0
  201.9411  179.1007  154.4866 H   0  0  0  0  0  0  0  0  0  0  0  0
  201.3107  180.2790  155.5952 H   0  0  0  0  0  0  0  0  0  0  0  0
  198.9960  177.5122  158.1155 H   0  0  0  0  0  0  0  0  0  0  0  0
  202.2566  176.4746  157.4246 H   0  0  0  0  0  0  0  0  0  0  0  0
  202.9529  174.1728  156.8112 H   0  0  0  0  0  0  0  0  0  0  0  0
  202.2451  173.2141  154.5991 H   0  0  0  0  0  0  0  0  0  0  0  0
  200.8544  174.6123  153.0592 H   0  0  0  0  0  0  0  0  0  0  0  0
  200.1005  176.8063  153.7152 H   0  0  0  0  0  0  0  0  0  0  0  0
  198.6260  178.4852  150.4276 H   0  0  0  0  0  0  0  0  0  0  0  0
  196.3943  179.4279  149.8075 H   0  0  0  0  0  0  0  0  0  0  0  0
  195.2092  180.9303  151.3946 H   0  0  0  0  0  0  0  0  0  0  0  0
  196.1980  181.5501  153.5157 H   0  0  0  0  0  0  0  0  0  0  0  0
  1  2  1  0
  2  3  1  0
  2  7  2  0
  3  4  2  0
  3 29  1  0
  4  5  1  0
  4 30  1  0
  5  6  2  0
  5  8  1  0
  6  7  1  0
  6 31  1  0
  7 32  1  0
  8  9  2  0
  8 33  1  0
  9 10  1  0
  9 34  1  0
 10 11  1  0
 10 14  1  0
 11 12  1  0
 11 28  2  0
 12 13  1  0
 12 25  2  0
 13 14  2  0
 14 15  1  0
 15 16  1  0
 15 35  1  6
 15 36  1  0
 16 17  2  0
 16 19  1  0
 17 18  1  0
 18 37  1  0
 19 20  2  0
 19 24  1  0
 20 21  1  0
 20 38  1  0
 21 22  2  0
 21 39  1  0
 22 23  1  0
 22 40  1  0
 23 24  2  0
 23 41  1  0
 24 42  1  0
 25 26  1  0
 25 43  1  0
 26 27  2  0
 26 44  1  0
 27 28  1  0
 27 45  1  0
 28 46  1  0
M  END
>  <s_epik_Chemistry_Notes>  (836) 
This compound has an imine and may undergo hydrolysis.

>  <s_epik_cmdline>  (836) 
J2VwaWtfcHl0aG9uJywgJy1waCcsICc3LjAwMDAwMCcsICctcGh0JywgJzIuMDAwMDAwJywgJy1tcycsICcxNicsICctdG4nLCAnOCcsICctbWEnLCAnMjAwJywgJy1pbWFlJywgJzxpbmZpbGUubWFlPicsICctb21hZScsICc8b3V0ZmlsZS5tYWU+Jw==

>  <s_epik_input>  (836) 
RmMxW2NIXVtjSF1jKFtjSF1bY0hdMSkvW0NIXT1bQ0hdL24yYyhuYyhjMjMpW2NIXVtjSF1bY0hdW2NIXTMpW0NIMl0vQyg9Ti9bT0hdKWM0W2NIXVtjSF1bY0hdW2NIXVtjSF00

>  <s_i_glide_gridfile>  (836) 
ATP-Grid

>  <s_lp_Force_Field>  (836) 
OPLS_2005

>  <s_lp_Variant>  (836) 
N-ArylationHeterocycle____206845508____45772004-1

>  <s_lp_label>  (836) 
653_sdstereoexpander_1_neutralizer_1_epik_1_stereoizer_1

>  <s_m_source_file>  (836) 
ATP-VSW-LIGPREP-001-in.maegz

>  <s_sd_BIOSOLVEIT.INFINISEE\_QUERY\_NAME>  (836) 
Ref-Lig

>  <s_sd_BIOSOLVEIT.INFINISEE\_QUERY\_SMILES>  (836) 
S(c1nc2c(cc1C[NH2+]Cc3ccc(cc3)C[NH+](C)C)cccc2)Cc4ccccc4

>  <s_sd_BIOSOLVEIT.INFINISEE\_REACTION\_NAME>  (836) 
N-ArylationHeterocycle

>  <s_sd_BIOSOLVEIT.INFINISEE\_REAGENT1\_SMILES>  (836) 
Fc1ccc(cc1)C=CB(O)O

>  <s_sd_BIOSOLVEIT.INFINISEE\_REAGENT2\_SMILES>  (836) 
ON=C(c1ccccc1)CC2=Nc3c(N2)cccc3

>  <s_sd_BIOSOLVEIT.INFINISEE\_SPACE>  (836) 
KnowledgeSpace_290tr_2019-05

>  <s_vsw_compound_code>  (836) 
20865

>  <s_vsw_variant>  (836) 
20865-1

>  <r_epik_Charging_Adjusted_Penalty>  (836) 
0.0449472433815837

>  <r_epik_Ionization_Penalty>  (836) 
0.045100000000000001

>  <r_epik_Ionization_Penalty_Charging>  (836) 
0

>  <r_epik_Ionization_Penalty_Neutral>  (836) 
0.045100000000000001

>  <r_epik_State_Penalty>  (836) 
0.044900000000000002

>  <r_i_docking_score>  (836) 
-4.8735530465891799

>  <r_i_glide_ecoul>  (836) 
-8.2591476440429705

>  <r_i_glide_eff_state_penalty>  (836) 
0.044900000000000002

>  <r_i_glide_einternal>  (836) 
3.2151002883911102

>  <r_i_glide_emodel>  (836) 
-51.126114169490499

>  <r_i_glide_energy>  (836) 
-40.057785034179702

>  <r_i_glide_erotb>  (836) 
0.83959797768802502

>  <r_i_glide_esite>  (836) 
-0.181903373570174

>  <r_i_glide_evdw>  (836) 
-31.798637390136701

>  <r_i_glide_gscore>  (836) 
-4.91845304658918

>  <r_i_glide_hbond>  (836) 
-0.16

>  <r_i_glide_ligand_efficiency>  (836) 
-0.17405546594961399

>  <r_i_glide_ligand_efficiency_ln>  (836) 
-1.1249591368880401

>  <r_i_glide_ligand_efficiency_sa>  (836) 
-0.52853490781021495

>  <r_i_glide_lipo>  (836) 
-1.5649506017919601

>  <r_i_glide_metal>  (836) 
-0

>  <r_i_glide_rewards>  (836) 
-1.0223930328018001

>  <r_lp_Energy>  (836) 
29.508853999999999

>  <r_qp_ACxDN^.5/SA>  (836) 
0.0069026000000000001

>  <r_qp_CIQPlogS>  (836) 
-6.343

>  <r_qp_EA(eV)>  (836) 
1.0669999999999999

>  <r_qp_FISA>  (836) 
90.319999999999993

>  <r_qp_FOSA>  (836) 
41.332000000000001

>  <r_qp_IP(eV)>  (836) 
8.5879999999999992

>  <r_qp_Jm>  (836) 
0.467123459939288

>  <r_qp_PISA>  (836) 
429.76999999999998

>  <r_qp_PSA>  (836) 
53.423999999999999

>  <r_qp_PercentHumanOralAbsorption>  (836) 
100

>  <r_qp_QPPCaco>  (836) 
1378.453

>  <r_qp_QPPMDCK>  (836) 
1266.825

>  <r_qp_QPlogBB>  (836) 
-0.55400000000000005

>  <r_qp_QPlogHERG>  (836) 
-5.819

>  <r_qp_QPlogKhsa>  (836) 
0.58899999999999997

>  <r_qp_QPlogKp>  (836) 
-0.998

>  <r_qp_QPlogPC16>  (836) 
12.332000000000001

>  <r_qp_QPlogPo/w>  (836) 
4.6779999999999999

>  <r_qp_QPlogPoct>  (836) 
16.899999999999999

>  <r_qp_QPlogPw>  (836) 
8.7949999999999999

>  <r_qp_QPlogS>  (836) 
-4.9020000000000001

>  <r_qp_QPpolrz>  (836) 
38.633000000000003

>  <r_qp_SASA>  (836) 
608.46500000000003

>  <r_qp_SAamideO>  (836) 
0

>  <r_qp_SAfluorine>  (836) 
47.042999999999999

>  <r_qp_WPSA>  (836) 
47.042999999999999

>  <r_qp_accptHB>  (836) 
4.2000000000000002

>  <r_qp_dip^2/V>  (836) 
0.0076536

>  <r_qp_dipole>  (836) 
2.9390000000000001

>  <r_qp_donorHB>  (836) 
1

>  <r_qp_glob>  (836) 
0.86171129999999996

>  <r_qp_mol_MW>  (836) 
371.41300000000001

>  <r_qp_volume>  (836) 
1128.883

>  <r_sd_BIOSOLVEIT.INFINISEE\_FTREES\_SIMILARITY>  (836) 
0.90400000000000003

>  <r_sd_BIOSOLVEIT.LOGP>  (836) 
5.2243000000000004

>  <r_sd_BIOSOLVEIT.MOLECULAR\_WEIGHT>  (836) 
371.41300000000001

>  <r_sd_BIOSOLVEIT.TPSA>  (836) 
50.409999999999997

>  <i_epik_Tot_Q>  (836) 
0

>  <i_epik_Tot_abs_Q>  (836) 
0

>  <i_f3d_flags>  (836) 
0

>  <i_i_glide_confnum>  (836) 
6

>  <i_i_glide_lignum>  (836) 
90

>  <i_i_glide_posenum>  (836) 
18

>  <i_i_glide_rotatable_bonds>  (836) 
6

>  <i_lp_mmshare_version>  (836) 
65135

>  <i_m_ct_format>  (836) 
2

>  <i_m_source_file_index>  (836) 
653

>  <i_qp_#NandO>  (836) 
4

>  <i_qp_#acid>  (836) 
0

>  <i_qp_#amide>  (836) 
0

>  <i_qp_#amidine>  (836) 
0

>  <i_qp_#amine>  (836) 
0

>  <i_qp_#in34>  (836) 
0

>  <i_qp_#in56>  (836) 
21

>  <i_qp_#metab>  (836) 
1

>  <i_qp_#nonHatm>  (836) 
28

>  <i_qp_#noncon>  (836) 
0

>  <i_qp_#ringatoms>  (836) 
21

>  <i_qp_#rotor>  (836) 
7

>  <i_qp_#rtvFG>  (836) 
0

>  <i_qp_#stars>  (836) 
0

>  <i_qp_CNS>  (836) 
0

>  <i_qp_HumanOralAbsorption>  (836) 
3

>  <i_qp_RuleOfFive>  (836) 
0

>  <i_qp_RuleOfThree>  (836) 
0

>  <i_sd_BIOSOLVEIT.INFINISEE\_REAGENT1\_NAME>  (836) 
206845508

>  <i_sd_BIOSOLVEIT.INFINISEE\_REAGENT2\_NAME>  (836) 
45772004

>  <i_sd_BIOSOLVEIT.INFINISEE\_RESULT\_RANK>  (836) 
77504

>  <i_sd_version>  (836) 
0

>  <b_lp_Chiralities_Consistent>  (836) 
1

>  <b_sd_chiral_flag>  (836) 
0

>  <canonical_id>  (836) 
ATP-HTVS-84C0F320BB18

>  <compound_code>  (836) 
20865

>  <title>  (836) 
N-ArylationHeterocycle____206845508____45772004

>  <variant>  (836) 
20865-1

>  <source_file>  (836) 
运行/运行/ATP-VSW/ATP-VSW-DOCK_HTVS_1-001_lib/ATP-VSW-DOCK_HTVS_1-001_lib

>  <canonical_smiles>  (836) 
O/N=C(/Cc1nc2ccccc2n1/C=C/c1ccc(F)cc1)c1ccccc1

>  <scaffold>  (836) 
N=C(Cc1nc2ccccc2n1C=Cc1ccccc1)c1ccccc1

>  <molecular_formula>  (836) 
C23H18FN3O

$$$$
ATP-HTVS-8521C9576B2F
     RDKit          3D

 59 62  0  0  0  0  0  0  0  0999 V2000
  201.1964  180.4662  153.2619 O   0  0  0  0  0  0  0  0  0  0  0  0
  200.0886  180.4797  153.7968 C   0  0  0  0  0  0  0  0  0  0  0  0
  199.7389  180.0581  155.0288 N   0  0  0  0  0  0  0  0  0  0  0  0
  198.3080  180.2885  155.3425 C   0  0  2  0  0  0  0  0  0  0  0  0
  197.7981  180.8849  154.0470 C   0  0  0  0  0  0  0  0  0  0  0  0
  198.8476  180.9628  153.1514 C   0  0  0  0  0  0  0  0  0  0  0  0
  198.6904  181.4510  151.8440 C   0  0  0  0  0  0  0  0  0  0  0  0
  197.4119  181.9138  151.4688 C   0  0  0  0  0  0  0  0  0  0  0  0
  196.3494  181.8836  152.3981 C   0  0  0  0  0  0  0  0  0  0  0  0
  196.5202  181.3537  153.7013 C   0  0  0  0  0  0  0  0  0  0  0  0
  198.1422  181.2697  156.5104 C   0  0  1  0  0  0  0  0  0  0  0  0
  196.7315  181.4373  156.9330 N   0  0  1  0  0  0  0  0  0  0  0  0
  196.5258  182.2571  158.1506 C   0  0  1  0  0  0  0  0  0  0  0  0
  197.3370  183.5497  158.0858 C   0  0  0  0  0  0  0  0  0  0  0  0
  198.3163  183.8244  159.0652 C   0  0  0  0  0  0  0  0  0  0  0  0
  199.1021  184.9881  158.9702 C   0  0  0  0  0  0  0  0  0  0  0  0
  198.9160  185.8829  157.8957 C   0  0  0  0  0  0  0  0  0  0  0  0
  197.9358  185.6146  156.9206 C   0  0  0  0  0  0  0  0  0  0  0  0
  197.1479  184.4508  157.0177 C   0  0  0  0  0  0  0  0  0  0  0  0
  199.7759  187.1230  157.7945 C   0  0  2  0  0  0  0  0  0  0  0  0
  195.0172  182.5088  158.3884 C   0  0  1  0  0  0  0  0  0  0  0  0
  194.4052  181.3555  158.9382 O   0  0  0  0  0  0  0  0  0  0  0  0
  194.6912  183.6756  159.3386 C   0  0  2  0  0  0  0  0  0  0  0  0
  200.6303  179.3801  155.9818 C   0  0  1  0  0  0  0  0  0  0  0  0
  200.9261  177.9082  155.6906 C   0  0  0  0  0  0  0  0  0  0  0  0
  201.2111  177.0443  156.7786 C   0  0  0  0  0  0  0  0  0  0  0  0
  201.5450  175.6922  156.5433 C   0  0  0  0  0  0  0  0  0  0  0  0
  201.5774  175.1831  155.2294 C   0  0  0  0  0  0  0  0  0  0  0  0
  201.2926  176.0402  154.1507 C   0  0  0  0  0  0  0  0  0  0  0  0
  200.9648  177.3931  154.3698 C   0  0  0  0  0  0  0  0  0  0  0  0
  196.2036  181.8491  156.1750 H   0  0  0  0  0  0  0  0  0  0  0  0
  197.8247  179.3335  155.5489 H   0  0  0  0  0  0  0  0  0  0  0  0
  199.5210  181.4673  151.1508 H   0  0  0  0  0  0  0  0  0  0  0  0
  197.2533  182.3148  150.4762 H   0  0  0  0  0  0  0  0  0  0  0  0
  195.3824  182.2794  152.1230 H   0  0  0  0  0  0  0  0  0  0  0  0
  195.7011  181.3478  154.4041 H   0  0  0  0  0  0  0  0  0  0  0  0
  198.6947  180.9051  157.3674 H   0  0  0  0  0  0  0  0  0  0  0  0
  198.5941  182.2223  156.2268 H   0  0  0  0  0  0  0  0  0  0  0  0
  196.9142  181.6852  158.9944 H   0  0  0  0  0  0  0  0  0  0  0  0
  198.4738  183.1384  159.8866 H   0  0  0  0  0  0  0  0  0  0  0  0
  199.8560  185.1863  159.7182 H   0  0  0  0  0  0  0  0  0  0  0  0
  197.7860  186.2874  156.0875 H   0  0  0  0  0  0  0  0  0  0  0  0
  196.4118  184.2410  156.2559 H   0  0  0  0  0  0  0  0  0  0  0  0
  199.5537  187.6881  156.8883 H   0  0  0  0  0  0  0  0  0  0  0  0
  200.8317  186.8506  157.7754 H   0  0  0  0  0  0  0  0  0  0  0  0
  199.6010  187.7709  158.6537 H   0  0  0  0  0  0  0  0  0  0  0  0
  194.5582  182.7363  157.4306 H   0  0  0  0  0  0  0  0  0  0  0  0
  194.7249  180.5587  158.5202 H   0  0  0  0  0  0  0  0  0  0  0  0
  195.0291  184.6295  158.9393 H   0  0  0  0  0  0  0  0  0  0  0  0
  195.1621  183.5303  160.3091 H   0  0  0  0  0  0  0  0  0  0  0  0
  193.6158  183.7695  159.4915 H   0  0  0  0  0  0  0  0  0  0  0  0
  201.5698  179.9366  156.0280 H   0  0  0  0  0  0  0  0  0  0  0  0
  200.2208  179.4354  156.9926 H   0  0  0  0  0  0  0  0  0  0  0  0
  201.1999  177.4194  157.7978 H   0  0  0  0  0  0  0  0  0  0  0  0
  201.7694  175.0401  157.3763 H   0  0  0  0  0  0  0  0  0  0  0  0
  201.8153  174.1414  155.0449 H   0  0  0  0  0  0  0  0  0  0  0  0
  201.3266  175.6782  153.1376 H   0  0  0  0  0  0  0  0  0  0  0  0
  200.7796  178.0064  153.4939 H   0  0  0  0  0  0  0  0  0  0  0  0
  196.3477  180.5123  157.1416 H   0  0  0  0  0  0  0  0  0  0  0  0
  1  2  2  0
  2  3  1  0
  2  6  1  0
  3  4  1  0
  3 24  1  0
  4  5  1  0
  4 11  1  0
  4 32  1  1
  5  6  1  0
  5 10  2  0
  6  7  2  0
  7  8  1  0
  7 33  1  0
  8  9  2  0
  8 34  1  0
  9 10  1  0
  9 35  1  0
 10 36  1  0
 11 12  1  0
 11 37  1  1
 11 38  1  0
 12 13  1  0
 12 31  1  6
 12 59  1  0
 13 14  1  0
 13 21  1  0
 13 39  1  1
 14 15  1  0
 14 19  2  0
 15 16  2  0
 15 40  1  0
 16 17  1  0
 16 41  1  0
 17 18  2  0
 17 20  1  0
 18 19  1  0
 18 42  1  0
 19 43  1  0
 20 44  1  6
 20 45  1  0
 20 46  1  0
 21 22  1  0
 21 23  1  0
 21 47  1  6
 22 48  1  0
 23 49  1  6
 23 50  1  0
 23 51  1  0
 24 25  1  0
 24 52  1  1
 24 53  1  0
 25 26  2  0
 25 30  1  0
 26 27  1  0
 26 54  1  0
 27 28  2  0
 27 55  1  0
 28 29  1  0
 28 56  1  0
 29 30  2  0
 29 57  1  0
 30 58  1  0
M  CHG  1  12   1
M  END
>  <s_epik_cmdline>  (837) 
J2VwaWtfcHl0aG9uJywgJy1waCcsICc3LjAwMDAwMCcsICctcGh0JywgJzIuMDAwMDAwJywgJy1tcycsICcxNicsICctdG4nLCAnOCcsICctbWEnLCAnMjAwJywgJy1pbWFlJywgJzxpbmZpbGUubWFlPicsICctb21hZScsICc8b3V0ZmlsZS5tYWU+Jw==

>  <s_epik_input>  (837) 
W2NIXTFbY0hdW2NIXVtjSF1bY0hdYzFbQ0gyXU4oQyg9TyljKGMyMylbY0hdW2NIXVtjSF1bY0hdMylbQ0BIXTJbQ0gyXVtOSF1bQ0BIXShbQ0BASF0oW09IXSlbQ0gzXSljNFtjSF1bY0hdYyhbQ0gzXSlbY0hdW2NIXTQ=

>  <s_i_glide_gridfile>  (837) 
ATP-Grid

>  <s_lp_Force_Field>  (837) 
OPLS_2005

>  <s_lp_Variant>  (837) 
m_269862bba____12219714____15158006-4

>  <s_lp_label>  (837) 
833_sdstereoexpander_7_neutralizer_1_epik_1_stereoizer_1

>  <s_m_source_file>  (837) 
ATP-VSW-LIGPREP-002-in.maegz

>  <s_sd_BIOSOLVEIT.INFINISEE\_QUERY\_NAME>  (837) 
Ref-Lig

>  <s_sd_BIOSOLVEIT.INFINISEE\_QUERY\_SMILES>  (837) 
S(c1nc2c(cc1C[NH2+]Cc3ccc(cc3)C[NH+](C)C)cccc2)Cc4ccccc4

>  <s_sd_BIOSOLVEIT.INFINISEE\_REACTION\_NAME>  (837) 
m_269862bba

>  <s_sd_BIOSOLVEIT.INFINISEE\_REAGENT1\_SMILES>  (837) 
[R1*]NCC1N(C(=O)c2c1cccc2)Cc3ccccc3

>  <s_sd_BIOSOLVEIT.INFINISEE\_REAGENT2\_SMILES>  (837) 
[R1*]C(c1ccc(cc1)C)C(O)C

>  <s_sd_BIOSOLVEIT.INFINISEE\_SPACE>  (837) 
REALSpace_44bn_2023-08

>  <s_vsw_compound_code>  (837) 
26626

>  <s_vsw_variant>  (837) 
26626-4

>  <r_epik_Charging_Adjusted_Penalty>  (837) 
0.14187094590365801

>  <r_epik_Ionization_Penalty>  (837) 
0.070900000000000005

>  <r_epik_Ionization_Penalty_Charging>  (837) 
0.070900000000000005

>  <r_epik_Ionization_Penalty_Neutral>  (837) 
0

>  <r_epik_State_Penalty>  (837) 
0.070900000000000005

>  <r_i_docking_score>  (837) 
-4.9765226293933704

>  <r_i_glide_ecoul>  (837) 
-13.35094165802

>  <r_i_glide_eff_state_penalty>  (837) 
0.070900000000000005

>  <r_i_glide_einternal>  (837) 
3.15659880638123

>  <r_i_glide_emodel>  (837) 
-60.5237635181334

>  <r_i_glide_energy>  (837) 
-41.588086128234899

>  <r_i_glide_erotb>  (837) 
0.85166225379903404

>  <r_i_glide_esite>  (837) 
-0.109512313314025

>  <r_i_glide_evdw>  (837) 
-28.237144470214801

>  <r_i_glide_gscore>  (837) 
-5.0474226293933704

>  <r_i_glide_hbond>  (837) 
-0.35999999999999999

>  <r_i_glide_ligand_efficiency>  (837) 
-0.16588408764644599

>  <r_i_glide_ligand_efficiency_ln>  (837) 
-1.1307201649551899

>  <r_i_glide_ligand_efficiency_sa>  (837) 
-0.51544042877116403

>  <r_i_glide_lipo>  (837) 
-1.1186240522100901

>  <r_i_glide_metal>  (837) 
-0

>  <r_i_glide_rewards>  (837) 
-0.89645004545454399

>  <r_lp_Energy>  (837) 
47.290438000000002

>  <r_qp_ACxDN^.5/SA>  (837) 
0.0123225

>  <r_qp_CIQPlogS>  (837) 
-4.9740000000000002

>  <r_qp_EA(eV)>  (837) 
0.218

>  <r_qp_FISA>  (837) 
83.463999999999999

>  <r_qp_FOSA>  (837) 
209.74700000000001

>  <r_qp_IP(eV)>  (837) 
9.1180000000000003

>  <r_qp_Jm>  (837) 
0.023045286458356701

>  <r_qp_PISA>  (837) 
418.34399999999999

>  <r_qp_PSA>  (837) 
62.18

>  <r_qp_PercentHumanOralAbsorption>  (837) 
100

>  <r_qp_QPPCaco>  (837) 
399.315

>  <r_qp_QPPMDCK>  (837) 
202.90799999999999

>  <r_qp_QPlogBB>  (837) 
-0.32800000000000001

>  <r_qp_QPlogHERG>  (837) 
-7.0019999999999998

>  <r_qp_QPlogKhsa>  (837) 
0.70299999999999996

>  <r_qp_QPlogKp>  (837) 
-2.879

>  <r_qp_QPlogPC16>  (837) 
14.720000000000001

>  <r_qp_QPlogPo/w>  (837) 
4.4139999999999997

>  <r_qp_QPlogPoct>  (837) 
22.239000000000001

>  <r_qp_QPlogPw>  (837) 
12.116

>  <r_qp_QPlogS>  (837) 
-4.3609999999999998

>  <r_qp_QPpolrz>  (837) 
46.722999999999999

>  <r_qp_SASA>  (837) 
711.55399999999997

>  <r_qp_SAamideO>  (837) 
0

>  <r_qp_SAfluorine>  (837) 
0

>  <r_qp_WPSA>  (837) 
0

>  <r_qp_accptHB>  (837) 
6.2000000000000002

>  <r_qp_dip^2/V>  (837) 
0.031585700000000001

>  <r_qp_dipole>  (837) 
6.5289999999999999

>  <r_qp_donorHB>  (837) 
2

>  <r_qp_glob>  (837) 
0.8301115

>  <r_qp_mol_MW>  (837) 
400.51900000000001

>  <r_qp_volume>  (837) 
1349.799

>  <r_sd_BIOSOLVEIT.INFINISEE\_FTREES\_SIMILARITY>  (837) 
0.92200000000000004

>  <r_sd_BIOSOLVEIT.LOGP>  (837) 
3.3776199999999998

>  <r_sd_BIOSOLVEIT.MOLECULAR\_WEIGHT>  (837) 
401.52699999999999

>  <r_sd_BIOSOLVEIT.TPSA>  (837) 
57.149999999999999

>  <i_epik_Tot_Q>  (837) 
1

>  <i_epik_Tot_abs_Q>  (837) 
1

>  <i_f3d_flags>  (837) 
0

>  <i_i_glide_confnum>  (837) 
6

>  <i_i_glide_lignum>  (837) 
264

>  <i_i_glide_posenum>  (837) 
19

>  <i_i_glide_rotatable_bonds>  (837) 
8

>  <i_lp_mmshare_version>  (837) 
65135

>  <i_m_ct_format>  (837) 
2

>  <i_m_source_file_index>  (837) 
833

>  <i_qp_#NandO>  (837) 
4

>  <i_qp_#acid>  (837) 
0

>  <i_qp_#amide>  (837) 
0

>  <i_qp_#amidine>  (837) 
0

>  <i_qp_#amine>  (837) 
1

>  <i_qp_#in34>  (837) 
0

>  <i_qp_#in56>  (837) 
21

>  <i_qp_#metab>  (837) 
6

>  <i_qp_#nonHatm>  (837) 
30

>  <i_qp_#noncon>  (837) 
1

>  <i_qp_#ringatoms>  (837) 
21

>  <i_qp_#rotor>  (837) 
8

>  <i_qp_#rtvFG>  (837) 
0

>  <i_qp_#stars>  (837) 
0

>  <i_qp_CNS>  (837) 
1

>  <i_qp_HumanOralAbsorption>  (837) 
3

>  <i_qp_RuleOfFive>  (837) 
0

>  <i_qp_RuleOfThree>  (837) 
0

>  <i_sd_BIOSOLVEIT.INFINISEE\_REAGENT1\_NAME>  (837) 
12219714

>  <i_sd_BIOSOLVEIT.INFINISEE\_REAGENT2\_NAME>  (837) 
15158006

>  <i_sd_BIOSOLVEIT.INFINISEE\_RESULT\_RANK>  (837) 
13816

>  <i_sd_version>  (837) 
0

>  <b_lp_Chiralities_Consistent>  (837) 
1

>  <b_sd_chiral_flag>  (837) 
0

>  <canonical_id>  (837) 
ATP-HTVS-8521C9576B2F

>  <compound_code>  (837) 
26626

>  <title>  (837) 
m_269862bba____12219714____15158006

>  <variant>  (837) 
26626-4

>  <source_file>  (837) 
运行/运行/ATP-VSW/ATP-VSW-DOCK_HTVS_1-002_lib.maegz

>  <canonical_smiles>  (837) 
Cc1ccc([C@H]([NH2+]C[C@H]2c3ccccc3C(=O)N2Cc2ccccc2)[C@H](C)O)cc1

>  <scaffold>  (837) 
O=C1c2ccccc2C(C[NH2+]Cc2ccccc2)N1Cc1ccccc1

>  <molecular_formula>  (837) 
C26H29N2O2+

$$$$
ATP-HTVS-85577F90127E
     RDKit          3D

 69 72  0  0  0  0  0  0  0  0999 V2000
  197.5078  184.2464  159.8543 F   0  0  0  0  0  0  0  0  0  0  0  0
  197.8505  183.5029  158.7762 C   0  0  0  0  0  0  0  0  0  0  0  0
  197.0451  182.4163  158.3734 C   0  0  0  0  0  0  0  0  0  0  0  0
  197.4191  181.6492  157.2511 C   0  0  0  0  0  0  0  0  0  0  0  0
  198.5726  181.9762  156.5154 C   0  0  0  0  0  0  0  0  0  0  0  0
  199.3722  183.0636  156.9198 C   0  0  0  0  0  0  0  0  0  0  0  0
  199.0177  183.8206  158.0544 C   0  0  0  0  0  0  0  0  0  0  0  0
  198.9165  181.2107  155.2588 C   0  0  1  0  0  0  0  0  0  0  0  0
  198.8007  179.7658  155.3717 N   0  0  0  0  0  0  0  0  0  0  0  0
  199.0573  178.9987  154.2271 C   0  0  0  0  0  0  0  0  0  0  0  0
  198.8016  179.5531  153.0162 N   0  0  0  0  0  0  0  0  0  0  0  0
  199.1284  178.8577  151.9023 C   0  0  0  0  0  0  0  0  0  0  0  0
  199.7031  177.5611  152.0073 C   0  0  0  0  0  0  0  0  0  0  0  0
  199.9258  177.0076  153.2045 N   0  0  0  0  0  0  0  0  0  0  0  0
  199.6330  177.7147  154.3275 C   0  0  0  0  0  0  0  0  0  0  0  0
  199.9588  177.1650  155.5774 N   0  0  0  0  0  0  0  0  0  0  0  0
  200.9326  176.0939  155.7701 C   0  0  1  0  0  0  0  0  0  0  0  0
  202.0854  176.0487  154.7748 C   0  0  0  0  0  0  0  0  0  0  0  0
  202.3138  174.8849  154.0258 C   0  0  0  0  0  0  0  0  0  0  0  0
  203.2559  174.8936  152.9806 C   0  0  0  0  0  0  0  0  0  0  0  0
  203.9753  176.0699  152.6565 C   0  0  0  0  0  0  0  0  0  0  0  0
  204.8954  176.0923  151.5848 N   0  0  0  0  0  0  0  0  0  0  0  0
  205.7273  177.2680  151.3616 C   0  0  2  0  0  0  0  0  0  0  0  0
  205.1175  174.8929  150.7873 C   0  0  2  0  0  0  0  0  0  0  0  0
  203.7170  177.2405  153.4139 C   0  0  0  0  0  0  0  0  0  0  0  0
  202.7926  177.2299  154.4665 C   0  0  0  0  0  0  0  0  0  0  0  0
  201.5088  176.2036  157.1802 C   0  0  2  0  0  0  0  0  0  0  0  0
  200.0856  176.8706  150.8416 C   0  0  0  0  0  0  0  0  0  0  0  0
  199.9110  177.4488  149.5733 C   0  0  0  0  0  0  0  0  0  0  0  0
  199.3289  178.7246  149.4592 C   0  0  0  0  0  0  0  0  0  0  0  0
  198.9321  179.4194  150.6217 C   0  0  0  0  0  0  0  0  0  0  0  0
  195.7881  182.0562  159.1324 C   0  0  1  0  0  0  0  0  0  0  0  0
  194.5867  182.4509  158.3552 N   0  0  1  0  0  0  0  0  0  0  0  0
  193.5380  181.4127  158.3307 C   0  0  2  0  0  0  0  0  0  0  0  0
  194.0654  183.7835  158.7323 C   0  0  2  0  0  0  0  0  0  0  0  0
  196.8158  180.8060  156.9403 H   0  0  0  0  0  0  0  0  0  0  0  0
  200.2533  183.3241  156.3501 H   0  0  0  0  0  0  0  0  0  0  0  0
  199.6387  184.6491  158.3596 H   0  0  0  0  0  0  0  0  0  0  0  0
  198.2316  181.5788  154.4950 H   0  0  0  0  0  0  0  0  0  0  0  0
  199.9350  181.4488  154.9440 H   0  0  0  0  0  0  0  0  0  0  0  0
  199.0088  179.3618  156.2752 H   0  0  0  0  0  0  0  0  0  0  0  0
  199.5756  177.5802  156.4145 H   0  0  0  0  0  0  0  0  0  0  0  0
  200.3822  175.1543  155.6918 H   0  0  0  0  0  0  0  0  0  0  0  0
  201.7285  173.9949  154.2108 H   0  0  0  0  0  0  0  0  0  0  0  0
  203.3577  173.9885  152.4032 H   0  0  0  0  0  0  0  0  0  0  0  0
  206.1943  177.6119  152.2865 H   0  0  0  0  0  0  0  0  0  0  0  0
  205.1201  178.0782  150.9553 H   0  0  0  0  0  0  0  0  0  0  0  0
  206.5303  177.0615  150.6530 H   0  0  0  0  0  0  0  0  0  0  0  0
  204.1775  174.5392  150.3624 H   0  0  0  0  0  0  0  0  0  0  0  0
  205.5506  174.0950  151.3944 H   0  0  0  0  0  0  0  0  0  0  0  0
  205.7964  175.0907  149.9575 H   0  0  0  0  0  0  0  0  0  0  0  0
  204.1689  178.1894  153.1624 H   0  0  0  0  0  0  0  0  0  0  0  0
  202.5722  178.1411  155.0002 H   0  0  0  0  0  0  0  0  0  0  0  0
  202.2147  175.3895  157.3342 H   0  0  0  0  0  0  0  0  0  0  0  0
  200.7433  176.2096  157.9467 H   0  0  0  0  0  0  0  0  0  0  0  0
  202.0240  177.1502  157.2880 H   0  0  0  0  0  0  0  0  0  0  0  0
  200.5589  175.9042  150.9439 H   0  0  0  0  0  0  0  0  0  0  0  0
  200.2375  176.9107  148.6934 H   0  0  0  0  0  0  0  0  0  0  0  0
  199.1892  179.1617  148.4861 H   0  0  0  0  0  0  0  0  0  0  0  0
  198.5050  180.4063  150.5351 H   0  0  0  0  0  0  0  0  0  0  0  0
  195.8127  180.9868  159.3353 H   0  0  0  0  0  0  0  0  0  0  0  0
  195.7983  182.5296  160.1150 H   0  0  0  0  0  0  0  0  0  0  0  0
  193.1503  181.2118  159.3281 H   0  0  0  0  0  0  0  0  0  0  0  0
  193.9396  180.4861  157.9277 H   0  0  0  0  0  0  0  0  0  0  0  0
  192.7124  181.7116  157.6822 H   0  0  0  0  0  0  0  0  0  0  0  0
  193.7864  183.8267  159.7875 H   0  0  0  0  0  0  0  0  0  0  0  0
  193.1778  184.0153  158.1532 H   0  0  0  0  0  0  0  0  0  0  0  0
  194.8078  184.5643  158.5537 H   0  0  0  0  0  0  0  0  0  0  0  0
  194.8633  182.5176  157.3816 H   0  0  0  0  0  0  0  0  0  0  0  0
  1  2  1  0
  2  3  2  0
  2  7  1  0
  3  4  1  0
  3 32  1  0
  4  5  2  0
  4 36  1  0
  5  6  1  0
  5  8  1  0
  6  7  2  0
  6 37  1  0
  7 38  1  0
  8  9  1  0
  8 39  1  6
  8 40  1  0
  9 10  1  0
  9 41  1  0
 10 11  2  0
 10 15  1  0
 11 12  1  0
 12 13  1  0
 12 31  2  0
 13 14  1  0
 13 28  2  0
 14 15  2  0
 15 16  1  0
 16 17  1  0
 16 42  1  0
 17 18  1  0
 17 27  1  0
 17 43  1  1
 18 19  1  0
 18 26  2  0
 19 20  2  0
 19 44  1  0
 20 21  1  0
 20 45  1  0
 21 22  1  0
 21 25  2  0
 22 23  1  0
 22 24  1  0
 23 46  1  1
 23 47  1  0
 23 48  1  0
 24 49  1  6
 24 50  1  0
 24 51  1  0
 25 26  1  0
 25 52  1  0
 26 53  1  0
 27 54  1  1
 27 55  1  0
 27 56  1  0
 28 29  1  0
 28 57  1  0
 29 30  2  0
 29 58  1  0
 30 31  1  0
 30 59  1  0
 31 60  1  0
 32 33  1  0
 32 61  1  1
 32 62  1  0
 33 34  1  0
 33 35  1  0
 33 69  1  6
 34 63  1  1
 34 64  1  0
 34 65  1  0
 35 66  1  1
 35 67  1  0
 35 68  1  0
M  CHG  1  33   1
M  END
>  <s_epik_cmdline>  (838) 
J2VwaWtfcHl0aG9uJywgJy1waCcsICc3LjAwMDAwMCcsICctcGh0JywgJzIuMDAwMDAwJywgJy1tcycsICcxNicsICctdG4nLCAnOCcsICctbWEnLCAnMjAwJywgJy1pbWFlJywgJzxpbmZpbGUubWFlPicsICctb21hZScsICc8b3V0ZmlsZS5tYWU+Jw==

>  <s_epik_input>  (838) 
W0NIM11OKFtDSDNdKVtDSDJdYyhjMUYpW2NIXWMoW2NIXVtjSF0xKVtDSDJdW05IXWMobjIpYyhuYyhjMjMpW2NIXVtjSF1bY0hdW2NIXTMpW05IXVtDQEhdKFtDSDNdKWM0W2NIXVtjSF1jKE4oW0NIM10pW0NIM10pW2NIXVtjSF00

>  <s_i_glide_gridfile>  (838) 
ATP-Grid

>  <s_lp_Force_Field>  (838) 
OPLS_2005

>  <s_lp_Variant>  (838) 
m_282030aaa____21932362____23157418____21968946-1

>  <s_lp_label>  (838) 
1623_sdstereoexpander_1_neutralizer_1_epik_1_stereoizer_1

>  <s_m_source_file>  (838) 
ATP-VSW-LIGPREP-003-in.maegz

>  <s_sd_BIOSOLVEIT.INFINISEE\_QUERY\_NAME>  (838) 
Ref-Lig

>  <s_sd_BIOSOLVEIT.INFINISEE\_QUERY\_SMILES>  (838) 
S(c1nc2c(cc1C[NH2+]Cc3ccc(cc3)C[NH+](C)C)cccc2)Cc4ccccc4

>  <s_sd_BIOSOLVEIT.INFINISEE\_REACTION\_NAME>  (838) 
m_282030aaa

>  <s_sd_BIOSOLVEIT.INFINISEE\_REAGENT1\_SMILES>  (838) 
[R1*]NC(c1ccc(N(C)C)cc1)C

>  <s_sd_BIOSOLVEIT.INFINISEE\_REAGENT2\_SMILES>  (838) 
[R1*]c1nc2c(nc1[R2*])cccc2

>  <s_sd_BIOSOLVEIT.INFINISEE\_REAGENT3\_SMILES>  (838) 
[R2*]NCc1cc(c(F)cc1)CN(C)C

>  <s_sd_BIOSOLVEIT.INFINISEE\_SPACE>  (838) 
REALSpace_44bn_2023-08

>  <s_vsw_compound_code>  (838) 
51907

>  <s_vsw_variant>  (838) 
51907-1

>  <r_epik_Charging_Adjusted_Penalty>  (838) 
0.15921998291277401

>  <r_epik_Ionization_Penalty>  (838) 
0.108

>  <r_epik_Ionization_Penalty_Charging>  (838) 
0.0516

>  <r_epik_Ionization_Penalty_Neutral>  (838) 
0.056399999999999999

>  <r_epik_State_Penalty>  (838) 
0.1076

>  <r_i_docking_score>  (838) 
-3.5531157177696402

>  <r_i_glide_ecoul>  (838) 
-8.68920993804932

>  <r_i_glide_eff_state_penalty>  (838) 
0.1076

>  <r_i_glide_einternal>  (838) 
2.8242156505584699

>  <r_i_glide_emodel>  (838) 
-48.548733926740901

>  <r_i_glide_energy>  (838) 
-37.368752479553201

>  <r_i_glide_erotb>  (838) 
0.63129103519680896

>  <r_i_glide_esite>  (838) 
-0.162534106374183

>  <r_i_glide_evdw>  (838) 
-28.679542541503899

>  <r_i_glide_gscore>  (838) 
-3.6607157177696399

>  <r_i_glide_hbond>  (838) 
-0.069655737850460406

>  <r_i_glide_ligand_efficiency>  (838) 
-0.10151759193627501

>  <r_i_glide_ligand_efficiency_ln>  (838) 
-0.77998775720508096

>  <r_i_glide_ligand_efficiency_sa>  (838) 
-0.33207077448068101

>  <r_i_glide_lipo>  (838) 
-0.666065110077942

>  <r_i_glide_metal>  (838) 
-0

>  <r_i_glide_rewards>  (838) 
-0.65639318088127396

>  <r_lp_Energy>  (838) 
23.106110000000001

>  <r_qp_ACxDN^.5/SA>  (838) 
0.012996199999999999

>  <r_qp_CIQPlogS>  (838) 
-6.6260000000000003

>  <r_qp_EA(eV)>  (838) 
0.70599999999999996

>  <r_qp_FISA>  (838) 
28.556000000000001

>  <r_qp_FOSA>  (838) 
352.31099999999998

>  <r_qp_IP(eV)>  (838) 
7.944

>  <r_qp_Jm>  (838) 
1.0341916689732999

>  <r_qp_PISA>  (838) 
257.50700000000001

>  <r_qp_PSA>  (838) 
47.469999999999999

>  <r_qp_PercentHumanOralAbsorption>  (838) 
100

>  <r_qp_QPPCaco>  (838) 
1324.366

>  <r_qp_QPPMDCK>  (838) 
890.678

>  <r_qp_QPlogBB>  (838) 
0.22800000000000001

>  <r_qp_QPlogHERG>  (838) 
-4.8600000000000003

>  <r_qp_QPlogKhsa>  (838) 
0.81100000000000005

>  <r_qp_QPlogKp>  (838) 
-2.3370000000000002

>  <r_qp_QPlogPC16>  (838) 
13.321

>  <r_qp_QPlogPo/w>  (838) 
4.9409999999999998

>  <r_qp_QPlogPoct>  (838) 
21.190999999999999

>  <r_qp_QPlogPw>  (838) 
10.095000000000001

>  <r_qp_QPlogS>  (838) 
-3.323

>  <r_qp_QPpolrz>  (838) 
45.482999999999997

>  <r_qp_SASA>  (838) 
652.90700000000004

>  <r_qp_SAamideO>  (838) 
0

>  <r_qp_SAfluorine>  (838) 
14.534000000000001

>  <r_qp_WPSA>  (838) 
14.534000000000001

>  <r_qp_accptHB>  (838) 
6

>  <r_qp_dip^2/V>  (838) 
0.0058231000000000003

>  <r_qp_dipole>  (838) 
2.8279999999999998

>  <r_qp_donorHB>  (838) 
2

>  <r_qp_glob>  (838) 
0.9151125

>  <r_qp_mol_MW>  (838) 
472.60700000000003

>  <r_qp_volume>  (838) 
1373.223

>  <r_sd_BIOSOLVEIT.INFINISEE\_FTREES\_SIMILARITY>  (838) 
0.90600000000000003

>  <r_sd_BIOSOLVEIT.LOGP>  (838) 
4.2645999999999997

>  <r_sd_BIOSOLVEIT.MOLECULAR\_WEIGHT>  (838) 
473.61700000000002

>  <r_sd_BIOSOLVEIT.TPSA>  (838) 
57.520000000000003

>  <i_epik_Tot_Q>  (838) 
1

>  <i_epik_Tot_abs_Q>  (838) 
1

>  <i_f3d_flags>  (838) 
0

>  <i_i_glide_confnum>  (838) 
5

>  <i_i_glide_lignum>  (838) 
618

>  <i_i_glide_posenum>  (838) 
8

>  <i_i_glide_rotatable_bonds>  (838) 
9

>  <i_lp_mmshare_version>  (838) 
65135

>  <i_m_ct_format>  (838) 
2

>  <i_m_source_file_index>  (838) 
1623

>  <i_qp_#NandO>  (838) 
6

>  <i_qp_#acid>  (838) 
0

>  <i_qp_#amide>  (838) 
0

>  <i_qp_#amidine>  (838) 
0

>  <i_qp_#amine>  (838) 
1

>  <i_qp_#in34>  (838) 
0

>  <i_qp_#in56>  (838) 
22

>  <i_qp_#metab>  (838) 
6

>  <i_qp_#nonHatm>  (838) 
35

>  <i_qp_#noncon>  (838) 
0

>  <i_qp_#ringatoms>  (838) 
22

>  <i_qp_#rotor>  (838) 
9

>  <i_qp_#rtvFG>  (838) 
0

>  <i_qp_#stars>  (838) 
0

>  <i_qp_CNS>  (838) 
1

>  <i_qp_HumanOralAbsorption>  (838) 
3

>  <i_qp_RuleOfFive>  (838) 
0

>  <i_qp_RuleOfThree>  (838) 
0

>  <i_sd_BIOSOLVEIT.INFINISEE\_REAGENT1\_NAME>  (838) 
21932362

>  <i_sd_BIOSOLVEIT.INFINISEE\_REAGENT2\_NAME>  (838) 
23157418

>  <i_sd_BIOSOLVEIT.INFINISEE\_REAGENT3\_NAME>  (838) 
21968946

>  <i_sd_BIOSOLVEIT.INFINISEE\_RESULT\_RANK>  (838) 
67277

>  <i_sd_version>  (838) 
0

>  <b_lp_Chiralities_Consistent>  (838) 
1

>  <b_sd_chiral_flag>  (838) 
0

>  <canonical_id>  (838) 
ATP-HTVS-85577F90127E

>  <compound_code>  (838) 
51907

>  <title>  (838) 
m_282030aaa____21932362____23157418____21968946

>  <variant>  (838) 
51907-1

>  <source_file>  (838) 
运行/运行/ATP-VSW/ATP-VSW-DOCK_HTVS_1-003_lib/ATP-VSW-DOCK_HTVS_1-003_lib.mae

>  <canonical_smiles>  (838) 
C[C@@H](Nc1nc2ccccc2nc1NCc1ccc(F)c(C[NH+](C)C)c1)c1ccc(N(C)C)cc1

>  <scaffold>  (838) 
c1ccc(CNc2nc3ccccc3nc2NCc2ccccc2)cc1

>  <molecular_formula>  (838) 
C28H34FN6+

$$$$
ATP-HTVS-8567A07E89C1
     RDKit          3D

 54 56  0  0  0  0  0  0  0  0999 V2000
  200.5743  178.3161  155.1468 O   0  0  0  0  0  0  0  0  0  0  0  0
  199.5781  179.0223  154.5070 C   0  0  0  0  0  0  0  0  0  0  0  0
  198.4765  179.5924  155.1861 C   0  0  0  0  0  0  0  0  0  0  0  0
  197.5090  180.3482  154.4980 C   0  0  0  0  0  0  0  0  0  0  0  0
  197.5779  180.4530  153.0941 C   0  0  0  0  0  0  0  0  0  0  0  0
  198.6597  179.8619  152.3985 C   0  0  0  0  0  0  0  0  0  0  0  0
  199.6743  179.1824  153.1143 C   0  0  0  0  0  0  0  0  0  0  0  0
  196.3738  181.0039  155.2779 C   0  0  1  0  0  0  0  0  0  0  0  0
  196.7486  182.2120  156.0118 N   0  0  0  0  0  0  0  0  0  0  0  0
  197.3451  181.8693  157.3069 C   0  0  1  0  0  0  0  0  0  0  0  0
  197.9200  183.0260  158.0528 C   0  0  0  0  0  0  0  0  0  0  0  0
  197.2298  183.9753  158.8502 C   0  0  0  0  0  0  0  0  0  0  0  0
  195.8582  184.1329  158.9263 O   0  0  0  0  0  0  0  0  0  0  0  0
  195.3165  185.0945  159.8379 C   0  0  1  0  0  0  0  0  0  0  0  0
  195.8014  186.5347  159.6354 C   0  0  0  0  0  0  0  0  0  0  0  0
  196.2803  186.9630  158.3840 C   0  0  0  0  0  0  0  0  0  0  0  0
  196.9196  188.2104  158.2535 C   0  0  0  0  0  0  0  0  0  0  0  0
  197.0096  189.0695  159.3634 C   0  0  0  0  0  0  0  0  0  0  0  0
  196.4887  188.6700  160.6060 C   0  0  0  0  0  0  0  0  0  0  0  0
  195.8904  187.4011  160.7496 C   0  0  0  0  0  0  0  0  0  0  0  0
  198.0749  184.7622  159.5063 N   0  0  0  0  0  0  0  0  0  0  0  0
  199.2767  184.4650  159.0282 N   0  0  0  0  0  0  0  0  0  0  0  0
  199.2402  183.3729  158.1872 C   0  0  0  0  0  0  0  0  0  0  0  0
  200.4040  185.2746  159.4442 C   0  0  2  0  0  0  0  0  0  0  0  0
  200.1759  177.5073  156.2604 C   0  0  2  0  0  0  0  0  0  0  0  0
  200.3717  178.1648  157.6416 C   0  0  2  0  0  0  0  0  0  0  0  0
  201.0186  176.2342  156.1413 C   0  0  2  0  0  0  0  0  0  0  0  0
  195.8679  182.7085  156.1395 H   0  0  0  0  0  0  0  0  0  0  0  0
  198.3589  179.4418  156.2435 H   0  0  0  0  0  0  0  0  0  0  0  0
  196.8036  180.9730  152.5474 H   0  0  0  0  0  0  0  0  0  0  0  0
  198.7067  179.9208  151.3223 H   0  0  0  0  0  0  0  0  0  0  0  0
  200.5090  178.7348  152.5905 H   0  0  0  0  0  0  0  0  0  0  0  0
  195.5853  181.2742  154.5845 H   0  0  0  0  0  0  0  0  0  0  0  0
  195.9532  180.2751  155.9616 H   0  0  0  0  0  0  0  0  0  0  0  0
  196.6077  181.3386  157.9132 H   0  0  0  0  0  0  0  0  0  0  0  0
  198.1748  181.1958  157.1638 H   0  0  0  0  0  0  0  0  0  0  0  0
  194.2264  185.0815  159.7382 H   0  0  0  0  0  0  0  0  0  0  0  0
  195.5444  184.7584  160.8478 H   0  0  0  0  0  0  0  0  0  0  0  0
  196.2539  186.2950  157.5314 H   0  0  0  0  0  0  0  0  0  0  0  0
  197.3785  188.4718  157.3141 H   0  0  0  0  0  0  0  0  0  0  0  0
  197.5187  190.0198  159.2638 H   0  0  0  0  0  0  0  0  0  0  0  0
  196.6038  189.3064  161.4716 H   0  0  0  0  0  0  0  0  0  0  0  0
  195.5631  187.0718  161.7228 H   0  0  0  0  0  0  0  0  0  0  0  0
  200.1338  182.9297  157.7640 H   0  0  0  0  0  0  0  0  0  0  0  0
  201.3449  184.8611  159.0821 H   0  0  0  0  0  0  0  0  0  0  0  0
  200.4195  185.3217  160.5265 H   0  0  0  0  0  0  0  0  0  0  0  0
  200.2922  186.2858  159.0593 H   0  0  0  0  0  0  0  0  0  0  0  0
  199.1355  177.2123  156.1378 H   0  0  0  0  0  0  0  0  0  0  0  0
  200.0612  177.4746  158.4274 H   0  0  0  0  0  0  0  0  0  0  0  0
  199.7737  179.0609  157.7826 H   0  0  0  0  0  0  0  0  0  0  0  0
  201.4110  178.4270  157.8304 H   0  0  0  0  0  0  0  0  0  0  0  0
  200.7593  175.5146  156.9195 H   0  0  0  0  0  0  0  0  0  0  0  0
  202.0803  176.4610  156.2507 H   0  0  0  0  0  0  0  0  0  0  0  0
  200.8586  175.7665  155.1674 H   0  0  0  0  0  0  0  0  0  0  0  0
  1  2  1  0
  1 25  1  0
  2  3  2  0
  2  7  1  0
  3  4  1  0
  3 29  1  0
  4  5  2  0
  4  8  1  0
  5  6  1  0
  5 30  1  0
  6  7  2  0
  6 31  1  0
  7 32  1  0
  8  9  1  0
  8 33  1  6
  8 34  1  0
  9 10  1  0
  9 28  1  0
 10 11  1  0
 10 35  1  1
 10 36  1  0
 11 12  1  0
 11 23  2  0
 12 13  1  0
 12 21  2  0
 13 14  1  0
 14 15  1  0
 14 37  1  1
 14 38  1  0
 15 16  2  0
 15 20  1  0
 16 17  1  0
 16 39  1  0
 17 18  2  0
 17 40  1  0
 18 19  1  0
 18 41  1  0
 19 20  2  0
 19 42  1  0
 20 43  1  0
 21 22  1  0
 22 23  1  0
 22 24  1  0
 23 44  1  0
 24 45  1  6
 24 46  1  0
 24 47  1  0
 25 26  1  0
 25 27  1  0
 25 48  1  6
 26 49  1  1
 26 50  1  0
 26 51  1  0
 27 52  1  1
 27 53  1  0
 27 54  1  0
M  END
>  <s_epik_cmdline>  (839) 
J2VwaWtfcHl0aG9uJywgJy1waCcsICc3LjAwMDAwMCcsICctcGh0JywgJzIuMDAwMDAwJywgJy1tcycsICcxNicsICctdG4nLCAnOCcsICctbWEnLCAnMjAwJywgJy1pbWFlJywgJzxpbmZpbGUubWFlPicsICctb21hZScsICc8b3V0ZmlsZS5tYWU+Jw==

>  <s_epik_input>  (839) 
W0NIM11bQ0hdKFtDSDNdKU9jMVtjSF1jKFtjSF1bY0hdW2NIXTEpW0NIMl1bTkhdW0NIMl1jMmMobm4oW2NIXTIpW0NIM10pT1tDSDJdYzNbY0hdW2NIXVtjSF1bY0hdW2NIXTM=

>  <s_i_glide_gridfile>  (839) 
ATP-Grid

>  <s_lp_Force_Field>  (839) 
OPLS_2005

>  <s_lp_Variant>  (839) 
m_270004bbb____24792678____7548510-2

>  <s_lp_label>  (839) 
1975_sdstereoexpander_1_neutralizer_1_epik_2_stereoizer_1

>  <s_m_source_file>  (839) 
ATP-VSW-LIGPREP-002-in.maegz

>  <s_sd_BIOSOLVEIT.INFINISEE\_QUERY\_NAME>  (839) 
Ref-Lig

>  <s_sd_BIOSOLVEIT.INFINISEE\_QUERY\_SMILES>  (839) 
S(c1nc2c(cc1C[NH2+]Cc3ccc(cc3)C[NH+](C)C)cccc2)Cc4ccccc4

>  <s_sd_BIOSOLVEIT.INFINISEE\_REACTION\_NAME>  (839) 
m_270004bbb

>  <s_sd_BIOSOLVEIT.INFINISEE\_REAGENT1\_SMILES>  (839) 
[R1*]NCC=1C(OCc2ccccc2)=NN(C1)C

>  <s_sd_BIOSOLVEIT.INFINISEE\_REAGENT2\_SMILES>  (839) 
[R1*]Cc1cc(OC(C)C)ccc1

>  <s_sd_BIOSOLVEIT.INFINISEE\_SPACE>  (839) 
REALSpace_44bn_2023-08

>  <s_vsw_compound_code>  (839) 
63170

>  <s_vsw_variant>  (839) 
63170-2

>  <r_epik_Charging_Adjusted_Penalty>  (839) 
1.1745403809697801

>  <r_epik_Ionization_Penalty>  (839) 
1.2439

>  <r_epik_Ionization_Penalty_Charging>  (839) 
0

>  <r_epik_Ionization_Penalty_Neutral>  (839) 
1.2439

>  <r_epik_State_Penalty>  (839) 
1.1745000000000001

>  <r_i_docking_score>  (839) 
-2.5001891937702099

>  <r_i_glide_ecoul>  (839) 
-2.8517704010009801

>  <r_i_glide_eff_state_penalty>  (839) 
1.1745000000000001

>  <r_i_glide_einternal>  (839) 
7.4809274673461896

>  <r_i_glide_emodel>  (839) 
-41.7576299783086

>  <r_i_glide_energy>  (839) 
-36.637567520141602

>  <r_i_glide_erotb>  (839) 
1.1521670282538199

>  <r_i_glide_esite>  (839) 
0

>  <r_i_glide_evdw>  (839) 
-33.785797119140597

>  <r_i_glide_gscore>  (839) 
-3.67468919377021

>  <r_i_glide_hbond>  (839) 
-0.051286962502559597

>  <r_i_glide_ligand_efficiency>  (839) 
-0.092599599769267002

>  <r_i_glide_ligand_efficiency_ln>  (839) 
-0.58200282546941795

>  <r_i_glide_ligand_efficiency_sa>  (839) 
-0.27779879900260801

>  <r_i_glide_lipo>  (839) 
-1.6416306704357

>  <r_i_glide_metal>  (839) 
-0

>  <r_i_glide_rewards>  (839) 
-1.0168831729785901

>  <r_lp_Energy>  (839) 
18.244615

>  <r_lp_tautomer_probability>  (839) 
1

>  <r_qp_ACxDN^.5/SA>  (839) 
0.0058497999999999996

>  <r_qp_CIQPlogS>  (839) 
-5.1120000000000001

>  <r_qp_EA(eV)>  (839) 
-0.38

>  <r_qp_FISA>  (839) 
28.210000000000001

>  <r_qp_FOSA>  (839) 
343.44499999999999

>  <r_qp_IP(eV)>  (839) 
8.6470000000000002

>  <r_qp_Jm>  (839) 
0.236508984496411

>  <r_qp_PISA>  (839) 
269.39800000000002

>  <r_qp_PSA>  (839) 
38.512

>  <r_qp_PercentHumanOralAbsorption>  (839) 
100

>  <r_qp_QPPCaco>  (839) 
1334.395

>  <r_qp_QPPMDCK>  (839) 
747.56200000000001

>  <r_qp_QPlogBB>  (839) 
0.159

>  <r_qp_QPlogHERG>  (839) 
-5.968

>  <r_qp_QPlogKhsa>  (839) 
0.77400000000000002

>  <r_qp_QPlogKp>  (839) 
-2.2890000000000001

>  <r_qp_QPlogPC16>  (839) 
11.664

>  <r_qp_QPlogPo/w>  (839) 
4.8259999999999996

>  <r_qp_QPlogPoct>  (839) 
15.712

>  <r_qp_QPlogPw>  (839) 
6.4589999999999996

>  <r_qp_QPlogS>  (839) 
-3.8999999999999999

>  <r_qp_QPpolrz>  (839) 
38.512999999999998

>  <r_qp_SASA>  (839) 
641.053

>  <r_qp_SAamideO>  (839) 
0

>  <r_qp_SAfluorine>  (839) 
0

>  <r_qp_WPSA>  (839) 
0

>  <r_qp_accptHB>  (839) 
3.75

>  <r_qp_dip^2/V>  (839) 
0.0063940999999999998

>  <r_qp_dipole>  (839) 
2.766

>  <r_qp_donorHB>  (839) 
1

>  <r_qp_glob>  (839) 
0.85011970000000003

>  <r_qp_mol_MW>  (839) 
365.47399999999999

>  <r_qp_volume>  (839) 
1196.2270000000001

>  <r_sd_BIOSOLVEIT.INFINISEE\_FTREES\_SIMILARITY>  (839) 
0.90200000000000002

>  <r_sd_BIOSOLVEIT.LOGP>  (839) 
3.0499000000000001

>  <r_sd_BIOSOLVEIT.MOLECULAR\_WEIGHT>  (839) 
366.48200000000003

>  <r_sd_BIOSOLVEIT.TPSA>  (839) 
52.890000000000001

>  <i_epik_Tot_Q>  (839) 
0

>  <i_epik_Tot_abs_Q>  (839) 
0

>  <i_f3d_flags>  (839) 
0

>  <i_i_glide_confnum>  (839) 
13

>  <i_i_glide_lignum>  (839) 
714

>  <i_i_glide_posenum>  (839) 
9

>  <i_i_glide_rotatable_bonds>  (839) 
9

>  <i_lp_mmshare_version>  (839) 
65135

>  <i_m_ct_format>  (839) 
2

>  <i_m_source_file_index>  (839) 
1975

>  <i_qp_#NandO>  (839) 
5

>  <i_qp_#acid>  (839) 
0

>  <i_qp_#amide>  (839) 
0

>  <i_qp_#amidine>  (839) 
0

>  <i_qp_#amine>  (839) 
1

>  <i_qp_#in34>  (839) 
0

>  <i_qp_#in56>  (839) 
17

>  <i_qp_#metab>  (839) 
6

>  <i_qp_#nonHatm>  (839) 
27

>  <i_qp_#noncon>  (839) 
0

>  <i_qp_#ringatoms>  (839) 
17

>  <i_qp_#rotor>  (839) 
9

>  <i_qp_#rtvFG>  (839) 
0

>  <i_qp_#stars>  (839) 
0

>  <i_qp_CNS>  (839) 
1

>  <i_qp_HumanOralAbsorption>  (839) 
3

>  <i_qp_RuleOfFive>  (839) 
0

>  <i_qp_RuleOfThree>  (839) 
0

>  <i_sd_BIOSOLVEIT.INFINISEE\_REAGENT1\_NAME>  (839) 
24792678

>  <i_sd_BIOSOLVEIT.INFINISEE\_REAGENT2\_NAME>  (839) 
7548510

>  <i_sd_BIOSOLVEIT.INFINISEE\_RESULT\_RANK>  (839) 
89005

>  <i_sd_version>  (839) 
0

>  <b_lp_Chiralities_Consistent>  (839) 
1

>  <b_sd_chiral_flag>  (839) 
0

>  <canonical_id>  (839) 
ATP-HTVS-8567A07E89C1

>  <compound_code>  (839) 
63170

>  <title>  (839) 
m_270004bbb____24792678____7548510

>  <variant>  (839) 
63170-2

>  <source_file>  (839) 
运行/运行/ATP-VSW/ATP-VSW-DOCK_HTVS_1-002_lib.maegz

>  <canonical_smiles>  (839) 
CC(C)Oc1cccc(CNCc2cn(C)nc2OCc2ccccc2)c1

>  <scaffold>  (839) 
c1ccc(CNCc2c[nH]nc2OCc2ccccc2)cc1

>  <molecular_formula>  (839) 
C22H27N3O2

$$$$
ATP-HTVS-85B092CE3CD6
     RDKit          3D

 53 56  0  0  0  0  0  0  0  0999 V2000
  194.7561  186.5667  160.5865 Cl  0  0  0  0  0  0  0  0  0  0  0  0
  195.8839  185.4448  159.9140 C   0  0  0  0  0  0  0  0  0  0  0  0
  195.4612  184.1815  159.4442 C   0  0  0  0  0  0  0  0  0  0  0  0
  194.1279  183.8638  159.4588 O   0  0  0  0  0  0  0  0  0  0  0  0
  196.4194  183.2526  158.9552 C   0  0  0  0  0  0  0  0  0  0  0  0
  197.7877  183.6035  158.9573 C   0  0  0  0  0  0  0  0  0  0  0  0
  198.1972  184.8908  159.3541 C   0  0  0  0  0  0  0  0  0  0  0  0
  197.2415  185.8107  159.8402 C   0  0  0  0  0  0  0  0  0  0  0  0
  199.6620  185.2726  159.2908 C   0  0  2  0  0  0  0  0  0  0  0  0
  196.0123  181.8811  158.4187 C   0  0  1  0  0  0  0  0  0  0  0  0
  195.8657  181.8336  156.9426 N   0  0  1  0  0  0  0  0  0  0  0  0
  196.8180  182.6607  156.1609 C   0  0  1  0  0  0  0  0  0  0  0  0
  197.0398  182.1431  154.7224 C   0  0  1  0  0  0  0  0  0  0  0  0
  197.9022  183.0917  153.9820 N   0  0  0  0  0  0  0  0  0  0  0  0
  199.1327  182.6042  153.7011 C   0  0  0  0  0  0  0  0  0  0  0  0
  200.0685  183.1632  153.1346 O   0  0  0  0  0  0  0  0  0  0  0  0
  199.1277  181.1993  154.1644 C   0  0  0  0  0  0  0  0  0  0  0  0
  197.9077  180.9023  154.7444 C   0  0  0  0  0  0  0  0  0  0  0  0
  197.6479  179.6180  155.2586 C   0  0  0  0  0  0  0  0  0  0  0  0
  198.6634  178.6393  155.1514 C   0  0  0  0  0  0  0  0  0  0  0  0
  199.9014  178.9450  154.5323 C   0  0  0  0  0  0  0  0  0  0  0  0
  200.1522  180.2445  154.0340 C   0  0  0  0  0  0  0  0  0  0  0  0
  197.3860  184.3833  153.5392 C   0  0  1  0  0  0  0  0  0  0  0  0
  197.4327  184.5628  152.0327 C   0  0  0  0  0  0  0  0  0  0  0  0
  198.1398  185.6497  151.4779 C   0  0  0  0  0  0  0  0  0  0  0  0
  198.1943  185.8180  150.0817 C   0  0  0  0  0  0  0  0  0  0  0  0
  197.5419  184.9024  149.2352 C   0  0  0  0  0  0  0  0  0  0  0  0
  196.8362  183.8155  149.7849 C   0  0  0  0  0  0  0  0  0  0  0  0
  196.7794  183.6452  151.1814 C   0  0  0  0  0  0  0  0  0  0  0  0
  195.9563  180.8586  156.7169 H   0  0  0  0  0  0  0  0  0  0  0  0
  193.8976  183.0515  159.0343 H   0  0  0  0  0  0  0  0  0  0  0  0
  198.5239  182.8887  158.6233 H   0  0  0  0  0  0  0  0  0  0  0  0
  197.5526  186.7901  160.1783 H   0  0  0  0  0  0  0  0  0  0  0  0
  199.7829  186.3222  159.0179 H   0  0  0  0  0  0  0  0  0  0  0  0
  200.1883  184.6744  158.5469 H   0  0  0  0  0  0  0  0  0  0  0  0
  200.1456  185.1113  160.2546 H   0  0  0  0  0  0  0  0  0  0  0  0
  196.7591  181.1472  158.7288 H   0  0  0  0  0  0  0  0  0  0  0  0
  195.0767  181.5377  158.8676 H   0  0  0  0  0  0  0  0  0  0  0  0
  196.4207  183.6810  156.1419 H   0  0  0  0  0  0  0  0  0  0  0  0
  197.7947  182.7106  156.6591 H   0  0  0  0  0  0  0  0  0  0  0  0
  196.1076  181.9699  154.1804 H   0  0  0  0  0  0  0  0  0  0  0  0
  196.7081  179.3697  155.7256 H   0  0  0  0  0  0  0  0  0  0  0  0
  198.4834  177.6455  155.5333 H   0  0  0  0  0  0  0  0  0  0  0  0
  200.6561  178.1770  154.4347 H   0  0  0  0  0  0  0  0  0  0  0  0
  201.0900  180.4859  153.5510 H   0  0  0  0  0  0  0  0  0  0  0  0
  196.3471  184.4955  153.8549 H   0  0  0  0  0  0  0  0  0  0  0  0
  197.9396  185.1844  154.0329 H   0  0  0  0  0  0  0  0  0  0  0  0
  198.6434  186.3552  152.1220 H   0  0  0  0  0  0  0  0  0  0  0  0
  198.7432  186.6470  149.6628 H   0  0  0  0  0  0  0  0  0  0  0  0
  197.5880  185.0310  148.1645 H   0  0  0  0  0  0  0  0  0  0  0  0
  196.3488  183.1099  149.1313 H   0  0  0  0  0  0  0  0  0  0  0  0
  196.2388  182.8081  151.6011 H   0  0  0  0  0  0  0  0  0  0  0  0
  194.9370  182.1248  156.6634 H   0  0  0  0  0  0  0  0  0  0  0  0
  1  2  1  0
  2  3  1  0
  2  8  2  0
  3  4  1  0
  3  5  2  0
  4 31  1  0
  5  6  1  0
  5 10  1  0
  6  7  2  0
  6 32  1  0
  7  8  1  0
  7  9  1  0
  8 33  1  0
  9 34  1  6
  9 35  1  0
  9 36  1  0
 10 11  1  0
 10 37  1  6
 10 38  1  0
 11 12  1  0
 11 30  1  6
 11 53  1  0
 12 13  1  0
 12 39  1  6
 12 40  1  0
 13 14  1  0
 13 18  1  0
 13 41  1  6
 14 15  1  0
 14 23  1  0
 15 16  2  0
 15 17  1  0
 17 18  1  0
 17 22  2  0
 18 19  2  0
 19 20  1  0
 19 42  1  0
 20 21  2  0
 20 43  1  0
 21 22  1  0
 21 44  1  0
 22 45  1  0
 23 24  1  0
 23 46  1  1
 23 47  1  0
 24 25  2  0
 24 29  1  0
 25 26  1  0
 25 48  1  0
 26 27  2  0
 26 49  1  0
 27 28  1  0
 27 50  1  0
 28 29  2  0
 28 51  1  0
 29 52  1  0
M  CHG  1  11   1
M  END
>  <s_epik_cmdline>  (840) 
J2VwaWtfcHl0aG9uJywgJy1waCcsICc3LjAwMDAwMCcsICctcGh0JywgJzIuMDAwMDAwJywgJy1tcycsICcxNicsICctdG4nLCAnOCcsICctbWEnLCAnMjAwJywgJy1pbWFlJywgJzxpbmZpbGUubWFlPicsICctb21hZScsICc8b3V0ZmlsZS5tYWU+Jw==

>  <s_epik_input>  (840) 
Q2xjMWMoW09IXSljKFtjSF1jKFtjSF0xKVtDSDNdKVtDSDJdW05IXVtDSDJdW0NASF0oYyhjMjMpW2NIXVtjSF1bY0hdW2NIXTMpTihDMj1PKVtDSDJdYzRbY0hdW2NIXVtjSF1bY0hdW2NIXTQ=

>  <s_i_glide_gridfile>  (840) 
ATP-Grid

>  <s_lp_Force_Field>  (840) 
OPLS_2005

>  <s_lp_Variant>  (840) 
m_270004bbb____12219716____20614926-2

>  <s_lp_label>  (840) 
1000_sdstereoexpander_2_neutralizer_1_epik_1_stereoizer_1

>  <s_m_source_file>  (840) 
ATP-VSW-LIGPREP-001-in.maegz

>  <s_sd_BIOSOLVEIT.INFINISEE\_QUERY\_NAME>  (840) 
Ref-Lig

>  <s_sd_BIOSOLVEIT.INFINISEE\_QUERY\_SMILES>  (840) 
S(c1nc2c(cc1C[NH2+]Cc3ccc(cc3)C[NH+](C)C)cccc2)Cc4ccccc4

>  <s_sd_BIOSOLVEIT.INFINISEE\_REACTION\_NAME>  (840) 
m_270004bbb

>  <s_sd_BIOSOLVEIT.INFINISEE\_REAGENT1\_SMILES>  (840) 
[R1*]NCC1N(C(=O)c2c1cccc2)Cc3ccccc3

>  <s_sd_BIOSOLVEIT.INFINISEE\_REAGENT2\_SMILES>  (840) 
[R1*]Cc1c(O)c(Cl)cc(c1)C

>  <s_sd_BIOSOLVEIT.INFINISEE\_SPACE>  (840) 
REALSpace_44bn_2023-08

>  <s_vsw_compound_code>  (840) 
31969

>  <s_vsw_variant>  (840) 
31969-2

>  <r_epik_Charging_Adjusted_Penalty>  (840) 
0.26224150404026098

>  <r_epik_Ionization_Penalty>  (840) 
0.22470000000000001

>  <r_epik_Ionization_Penalty_Charging>  (840) 
0.059900000000000002

>  <r_epik_Ionization_Penalty_Neutral>  (840) 
0.1648

>  <r_epik_State_Penalty>  (840) 
0.20230000000000001

>  <r_i_docking_score>  (840) 
-5.69994203184896

>  <r_i_glide_ecoul>  (840) 
-12.0005130767822

>  <r_i_glide_eff_state_penalty>  (840) 
0.20230000000000001

>  <r_i_glide_einternal>  (840) 
5.3357396125793501

>  <r_i_glide_emodel>  (840) 
-70.572698145949602

>  <r_i_glide_energy>  (840) 
-47.374757766723597

>  <r_i_glide_erotb>  (840) 
0.70951548838298095

>  <r_i_glide_esite>  (840) 
-0.110280968658394

>  <r_i_glide_evdw>  (840) 
-35.374244689941399

>  <r_i_glide_gscore>  (840) 
-5.9022420318489601

>  <r_i_glide_hbond>  (840) 
-0.31964957102276897

>  <r_i_glide_ligand_efficiency>  (840) 
-0.19654972523617101

>  <r_i_glide_ligand_efficiency_ln>  (840) 
-1.3051421872345701

>  <r_i_glide_ligand_efficiency_sa>  (840) 
-0.60386302724922303

>  <r_i_glide_lipo>  (840) 
-1.98516682999092

>  <r_i_glide_metal>  (840) 
-0

>  <r_i_glide_rewards>  (840) 
-0.62787095454545305

>  <r_lp_Energy>  (840) 
37.804012999999998

>  <r_lp_tautomer_probability>  (840) 
0.999999999997365

>  <r_qp_ACxDN^.5/SA>  (840) 
0.011689700000000001

>  <r_qp_CIQPlogS>  (840) 
-5.4610000000000003

>  <r_qp_EA(eV)>  (840) 
0.29099999999999998

>  <r_qp_FISA>  (840) 
80.236000000000004

>  <r_qp_FOSA>  (840) 
157.137

>  <r_qp_IP(eV)>  (840) 
9.218

>  <r_qp_Jm>  (840) 
0.038210052848833401

>  <r_qp_PISA>  (840) 
330.60500000000002

>  <r_qp_PSA>  (840) 
60.863999999999997

>  <r_qp_PercentHumanOralAbsorption>  (840) 
100

>  <r_qp_QPPCaco>  (840) 
428.476

>  <r_qp_QPPMDCK>  (840) 
510.85899999999998

>  <r_qp_QPlogBB>  (840) 
-0.0060000000000000001

>  <r_qp_QPlogHERG>  (840) 
-5.976

>  <r_qp_QPlogKhsa>  (840) 
0.58499999999999996

>  <r_qp_QPlogKp>  (840) 
-3.2240000000000002

>  <r_qp_QPlogPC16>  (840) 
13.364000000000001

>  <r_qp_QPlogPo/w>  (840) 
4.1539999999999999

>  <r_qp_QPlogPoct>  (840) 
19.917999999999999

>  <r_qp_QPlogPw>  (840) 
10.622

>  <r_qp_QPlogS>  (840) 
-3.8029999999999999

>  <r_qp_QPpolrz>  (840) 
41.188000000000002

>  <r_qp_SASA>  (840) 
635.13999999999999

>  <r_qp_SAamideO>  (840) 
0

>  <r_qp_SAfluorine>  (840) 
0

>  <r_qp_WPSA>  (840) 
67.162000000000006

>  <r_qp_accptHB>  (840) 
5.25

>  <r_qp_dip^2/V>  (840) 
0.019121800000000001

>  <r_qp_dipole>  (840) 
4.8230000000000004

>  <r_qp_donorHB>  (840) 
2

>  <r_qp_glob>  (840) 
0.86764779999999997

>  <r_qp_mol_MW>  (840) 
406.911

>  <r_qp_volume>  (840) 
1216.3869999999999

>  <r_sd_BIOSOLVEIT.INFINISEE\_FTREES\_SIMILARITY>  (840) 
0.91600000000000004

>  <r_sd_BIOSOLVEIT.LOGP>  (840) 
3.8147199999999999

>  <r_sd_BIOSOLVEIT.MOLECULAR\_WEIGHT>  (840) 
407.91899999999998

>  <r_sd_BIOSOLVEIT.TPSA>  (840) 
57.149999999999999

>  <i_epik_Tot_Q>  (840) 
1

>  <i_epik_Tot_abs_Q>  (840) 
1

>  <i_f3d_flags>  (840) 
0

>  <i_i_glide_confnum>  (840) 
3

>  <i_i_glide_lignum>  (840) 
208

>  <i_i_glide_posenum>  (840) 
13

>  <i_i_glide_rotatable_bonds>  (840) 
7

>  <i_lp_mmshare_version>  (840) 
65135

>  <i_m_ct_format>  (840) 
2

>  <i_m_source_file_index>  (840) 
1000

>  <i_qp_#NandO>  (840) 
4

>  <i_qp_#acid>  (840) 
0

>  <i_qp_#amide>  (840) 
0

>  <i_qp_#amidine>  (840) 
0

>  <i_qp_#amine>  (840) 
1

>  <i_qp_#in34>  (840) 
0

>  <i_qp_#in56>  (840) 
21

>  <i_qp_#metab>  (840) 
6

>  <i_qp_#nonHatm>  (840) 
29

>  <i_qp_#noncon>  (840) 
1

>  <i_qp_#ringatoms>  (840) 
21

>  <i_qp_#rotor>  (840) 
7

>  <i_qp_#rtvFG>  (840) 
0

>  <i_qp_#stars>  (840) 
0

>  <i_qp_CNS>  (840) 
1

>  <i_qp_HumanOralAbsorption>  (840) 
3

>  <i_qp_RuleOfFive>  (840) 
0

>  <i_qp_RuleOfThree>  (840) 
0

>  <i_sd_BIOSOLVEIT.INFINISEE\_REAGENT1\_NAME>  (840) 
12219716

>  <i_sd_BIOSOLVEIT.INFINISEE\_REAGENT2\_NAME>  (840) 
20614926

>  <i_sd_BIOSOLVEIT.INFINISEE\_RESULT\_RANK>  (840) 
25987

>  <i_sd_version>  (840) 
0

>  <b_lp_Chiralities_Consistent>  (840) 
1

>  <b_sd_chiral_flag>  (840) 
0

>  <canonical_id>  (840) 
ATP-HTVS-85B092CE3CD6

>  <compound_code>  (840) 
31969

>  <title>  (840) 
m_270004bbb____12219716____20614926

>  <variant>  (840) 
31969-2

>  <source_file>  (840) 
运行/运行/ATP-VSW/ATP-VSW-DOCK_HTVS_1-001_lib/ATP-VSW-DOCK_HTVS_1-001_lib

>  <canonical_smiles>  (840) 
Cc1cc(Cl)c(O)c(C[NH2+]C[C@@H]2c3ccccc3C(=O)N2Cc2ccccc2)c1

>  <scaffold>  (840) 
O=C1c2ccccc2C(C[NH2+]Cc2ccccc2)N1Cc1ccccc1

>  <molecular_formula>  (840) 
C24H24ClN2O2+

$$$$
ATP-HTVS-85D8FA1817A9
     RDKit          3D

 51 54  0  0  0  0  0  0  0  0999 V2000
  203.2596  182.9993  162.3514 F   0  0  0  0  0  0  0  0  0  0  0  0
  202.8370  182.6147  161.1135 C   0  0  0  0  0  0  0  0  0  0  0  0
  201.6211  183.0904  160.5937 C   0  0  0  0  0  0  0  0  0  0  0  0
  201.2015  182.7517  159.2843 C   0  0  0  0  0  0  0  0  0  0  0  0
  201.9881  181.8766  158.4747 C   0  0  0  0  0  0  0  0  0  0  0  0
  203.2000  181.3753  159.0176 C   0  0  0  0  0  0  0  0  0  0  0  0
  203.6332  181.7541  160.3167 C   0  0  0  0  0  0  0  0  0  0  0  0
  201.5682  181.3813  157.0707 C   0  0  1  0  0  0  0  0  0  0  0  0
  201.0778  179.9129  157.0788 C   0  0  2  0  0  0  0  0  0  0  0  0
  199.8522  183.2632  158.8306 C   0  0  1  0  0  0  0  0  0  0  0  0
  199.8645  184.5844  158.1838 N   0  0  0  0  0  0  0  0  0  0  0  0
  198.5459  184.9241  157.6059 C   0  0  2  0  0  0  0  0  0  0  0  0
  197.4938  185.4359  158.6162 C   0  0  0  0  0  0  0  0  0  0  0  0
  197.7029  186.6933  159.2699 C   0  0  0  0  0  0  0  0  0  0  0  0
  198.8581  187.5079  159.0394 N   0  0  0  0  0  0  0  0  0  0  0  0
  200.1264  187.0882  158.8973 C   0  0  0  0  0  0  0  0  0  0  0  0
  201.0499  187.8607  158.6579 O   0  0  0  0  0  0  0  0  0  0  0  0
  200.4204  185.5976  159.1309 C   0  0  1  0  0  0  0  0  0  0  0  0
  196.7088  187.1944  160.1520 C   0  0  0  0  0  0  0  0  0  0  0  0
  195.5357  186.4525  160.4149 C   0  0  0  0  0  0  0  0  0  0  0  0
  195.3375  185.2188  159.7540 C   0  0  0  0  0  0  0  0  0  0  0  0
  196.2829  184.7301  158.8396 C   0  0  0  0  0  0  0  0  0  0  0  0
  197.9845  183.8363  156.6526 C   0  0  0  0  0  0  0  0  0  0  0  0
  197.5530  182.5921  157.1981 C   0  0  0  0  0  0  0  0  0  0  0  0
  197.1097  181.5566  156.3669 C   0  0  0  0  0  0  0  0  0  0  0  0
  196.9562  181.7524  154.9754 C   0  0  0  0  0  0  0  0  0  0  0  0
  197.2924  183.0120  154.4248 C   0  0  0  0  0  0  0  0  0  0  0  0
  197.8252  184.0397  155.2673 C   0  0  0  0  0  0  0  0  0  0  0  0
  200.9951  183.7039  161.2363 H   0  0  0  0  0  0  0  0  0  0  0  0
  203.8053  180.6928  158.4220 H   0  0  0  0  0  0  0  0  0  0  0  0
  204.5827  181.4007  160.6989 H   0  0  0  0  0  0  0  0  0  0  0  0
  200.8063  181.9909  156.5695 H   0  0  0  0  0  0  0  0  0  0  0  0
  202.4493  181.4404  156.4245 H   0  0  0  0  0  0  0  0  0  0  0  0
  200.7841  179.5875  156.0765 H   0  0  0  0  0  0  0  0  0  0  0  0
  200.2056  179.7660  157.7218 H   0  0  0  0  0  0  0  0  0  0  0  0
  201.8554  179.2233  157.4226 H   0  0  0  0  0  0  0  0  0  0  0  0
  199.5128  182.4907  158.1623 H   0  0  0  0  0  0  0  0  0  0  0  0
  199.1444  183.2454  159.6668 H   0  0  0  0  0  0  0  0  0  0  0  0
  198.7534  185.7611  156.9385 H   0  0  0  0  0  0  0  0  0  0  0  0
  198.7336  188.5158  159.0888 H   0  0  0  0  0  0  0  0  0  0  0  0
  200.0030  185.4100  160.1176 H   0  0  0  0  0  0  0  0  0  0  0  0
  201.5013  185.4869  159.2166 H   0  0  0  0  0  0  0  0  0  0  0  0
  196.8535  188.1425  160.6557 H   0  0  0  0  0  0  0  0  0  0  0  0
  194.7623  186.8199  161.0950 H   0  0  0  0  0  0  0  0  0  0  0  0
  194.4509  184.6322  159.9112 H   0  0  0  0  0  0  0  0  0  0  0  0
  196.0224  183.8078  158.3255 H   0  0  0  0  0  0  0  0  0  0  0  0
  197.6546  182.3928  158.2716 H   0  0  0  0  0  0  0  0  0  0  0  0
  196.8294  180.6407  156.8465 H   0  0  0  0  0  0  0  0  0  0  0  0
  196.5454  180.9455  154.3567 H   0  0  0  0  0  0  0  0  0  0  0  0
  197.1325  183.1993  153.3604 H   0  0  0  0  0  0  0  0  0  0  0  0
  198.0731  185.0004  154.8230 H   0  0  0  0  0  0  0  0  0  0  0  0
  1  2  1  0
  2  3  2  0
  2  7  1  0
  3  4  1  0
  3 29  1  0
  4  5  2  0
  4 10  1  0
  5  6  1  0
  5  8  1  0
  6  7  2  0
  6 30  1  0
  7 31  1  0
  8  9  1  0
  8 32  1  6
  8 33  1  0
  9 34  1  6
  9 35  1  0
  9 36  1  0
 10 11  1  0
 10 37  1  6
 10 38  1  0
 11 12  1  0
 11 18  1  0
 12 13  1  0
 12 23  1  0
 12 39  1  6
 13 14  1  0
 13 22  2  0
 14 15  1  0
 14 19  2  0
 15 16  1  0
 15 40  1  0
 16 17  2  0
 16 18  1  0
 18 41  1  1
 18 42  1  0
 19 20  1  0
 19 43  1  0
 20 21  2  0
 20 44  1  0
 21 22  1  0
 21 45  1  0
 22 46  1  0
 23 24  2  0
 23 28  1  0
 24 25  1  0
 24 47  1  0
 25 26  2  0
 25 48  1  0
 26 27  1  0
 26 49  1  0
 27 28  2  0
 27 50  1  0
 28 51  1  0
M  END
>  <s_epik_cmdline>  (841) 
J2VwaWtfcHl0aG9uJywgJy1waCcsICc3LjAwMDAwMCcsICctcGh0JywgJzIuMDAwMDAwJywgJy1tcycsICcxNicsICctdG4nLCAnOCcsICctbWEnLCAnMjAwJywgJy1pbWFlJywgJzxpbmZpbGUubWFlPicsICctb21hZScsICc8b3V0ZmlsZS5tYWU+Jw==

>  <s_epik_input>  (841) 
W2NIXTFbY0hdW2NIXVtjSF1bY0hdYzFbQ0BASF0yTihbQ0gyXWMoW2NIXWMzRiljKFtjSF1bY0hdMylbQ0gyXVtDSDNdKVtDSDJdQyg9TylbTkhdYyhjMjQpW2NIXVtjSF1bY0hdW2NIXTQ=

>  <s_i_glide_gridfile>  (841) 
ATP-Grid

>  <s_lp_Force_Field>  (841) 
OPLS_2005

>  <s_lp_Variant>  (841) 
m_2230bdc____17849930____22142522-2

>  <s_lp_label>  (841) 
890_sdstereoexpander_3_neutralizer_1_epik_1_stereoizer_1

>  <s_m_source_file>  (841) 
ATP-VSW-LIGPREP-002-in.maegz

>  <s_sd_BIOSOLVEIT.INFINISEE\_QUERY\_NAME>  (841) 
Ref-Lig

>  <s_sd_BIOSOLVEIT.INFINISEE\_QUERY\_SMILES>  (841) 
S(c1nc2c(cc1C[NH2+]Cc3ccc(cc3)C[NH+](C)C)cccc2)Cc4ccccc4

>  <s_sd_BIOSOLVEIT.INFINISEE\_REACTION\_NAME>  (841) 
m_2230bdc

>  <s_sd_BIOSOLVEIT.INFINISEE\_REAGENT1\_SMILES>  (841) 
[R1*]N1C(c2c(NC(=O)C1)cccc2)c3ccccc3

>  <s_sd_BIOSOLVEIT.INFINISEE\_REAGENT2\_SMILES>  (841) 
[R1*]Cc1c(ccc(F)c1)CC

>  <s_sd_BIOSOLVEIT.INFINISEE\_SPACE>  (841) 
REALSpace_44bn_2023-08

>  <s_vsw_compound_code>  (841) 
28450

>  <s_vsw_variant>  (841) 
28450-2

>  <r_epik_Charging_Adjusted_Penalty>  (841) 
0.0087634984339075902

>  <r_epik_Ionization_Penalty>  (841) 
0.0088000000000000005

>  <r_epik_Ionization_Penalty_Charging>  (841) 
0

>  <r_epik_Ionization_Penalty_Neutral>  (841) 
0.0088000000000000005

>  <r_epik_State_Penalty>  (841) 
0.0088000000000000005

>  <r_i_docking_score>  (841) 
-2.06592112971382

>  <r_i_glide_ecoul>  (841) 
-1.7202160358428999

>  <r_i_glide_eff_state_penalty>  (841) 
0.0088000000000000005

>  <r_i_glide_einternal>  (841) 
0.77861106395721402

>  <r_i_glide_emodel>  (841) 
-34.786762174268901

>  <r_i_glide_energy>  (841) 
-31.149359941482501

>  <r_i_glide_erotb>  (841) 
0.41371546966158002

>  <r_i_glide_esite>  (841) 
-0.0044795635464972301

>  <r_i_glide_evdw>  (841) 
-29.429143905639599

>  <r_i_glide_gscore>  (841) 
-2.0747211297138199

>  <r_i_glide_hbond>  (841) 
0

>  <r_i_glide_ligand_efficiency>  (841) 
-0.073782897489779203

>  <r_i_glide_ligand_efficiency_ln>  (841) 
-0.47687525481807602

>  <r_i_glide_ligand_efficiency_sa>  (841) 
-0.224048332581638

>  <r_i_glide_lipo>  (841) 
-1.8498985227707001

>  <r_i_glide_metal>  (841) 
-0

>  <r_i_glide_rewards>  (841) 
1.09543108760021

>  <r_lp_Energy>  (841) 
52.292228999999999

>  <r_qp_ACxDN^.5/SA>  (841) 
0.0070048000000000003

>  <r_qp_CIQPlogS>  (841) 
-4.9279999999999999

>  <r_qp_EA(eV)>  (841) 
0.255

>  <r_qp_FISA>  (841) 
61.921999999999997

>  <r_qp_FOSA>  (841) 
130.35499999999999

>  <r_qp_IP(eV)>  (841) 
9.4939999999999998

>  <r_qp_Jm>  (841) 
0.0053442254490138497

>  <r_qp_PISA>  (841) 
403.13999999999999

>  <r_qp_PSA>  (841) 
40.996000000000002

>  <r_qp_PercentHumanOralAbsorption>  (841) 
100

>  <r_qp_QPPCaco>  (841) 
639.13

>  <r_qp_QPPMDCK>  (841) 
610.31700000000001

>  <r_qp_QPlogBB>  (841) 
0.313

>  <r_qp_QPlogHERG>  (841) 
-6.7469999999999999

>  <r_qp_QPlogKhsa>  (841) 
0.83599999999999997

>  <r_qp_QPlogKp>  (841) 
-3.0150000000000001

>  <r_qp_QPlogPC16>  (841) 
12.398999999999999

>  <r_qp_QPlogPo/w>  (841) 
4.5199999999999996

>  <r_qp_QPlogPoct>  (841) 
18.568000000000001

>  <r_qp_QPlogPw>  (841) 
9.6799999999999997

>  <r_qp_QPlogS>  (841) 
-4.8300000000000001

>  <r_qp_QPpolrz>  (841) 
43.061

>  <r_qp_SASA>  (841) 
642.41600000000005

>  <r_qp_SAamideO>  (841) 
0

>  <r_qp_SAfluorine>  (841) 
46.999000000000002

>  <r_qp_WPSA>  (841) 
46.999000000000002

>  <r_qp_accptHB>  (841) 
4.5

>  <r_qp_dip^2/V>  (841) 
0.0121292

>  <r_qp_dipole>  (841) 
3.786

>  <r_qp_donorHB>  (841) 
1

>  <r_qp_glob>  (841) 
0.84142450000000002

>  <r_qp_mol_MW>  (841) 
374.45699999999999

>  <r_qp_volume>  (841) 
1181.6800000000001

>  <r_sd_BIOSOLVEIT.INFINISEE\_FTREES\_SIMILARITY>  (841) 
0.91900000000000004

>  <r_sd_BIOSOLVEIT.LOGP>  (841) 
3.5146999999999999

>  <r_sd_BIOSOLVEIT.MOLECULAR\_WEIGHT>  (841) 
375.46499999999997

>  <r_sd_BIOSOLVEIT.TPSA>  (841) 
33.539999999999999

>  <i_epik_Tot_Q>  (841) 
0

>  <i_epik_Tot_abs_Q>  (841) 
0

>  <i_f3d_flags>  (841) 
0

>  <i_i_glide_confnum>  (841) 
6

>  <i_i_glide_lignum>  (841) 
284

>  <i_i_glide_posenum>  (841) 
12

>  <i_i_glide_rotatable_bonds>  (841) 
4

>  <i_lp_mmshare_version>  (841) 
65135

>  <i_m_ct_format>  (841) 
2

>  <i_m_source_file_index>  (841) 
890

>  <i_qp_#NandO>  (841) 
3

>  <i_qp_#acid>  (841) 
0

>  <i_qp_#amide>  (841) 
0

>  <i_qp_#amidine>  (841) 
0

>  <i_qp_#amine>  (841) 
1

>  <i_qp_#in34>  (841) 
0

>  <i_qp_#in56>  (841) 
18

>  <i_qp_#metab>  (841) 
8

>  <i_qp_#nonHatm>  (841) 
28

>  <i_qp_#noncon>  (841) 
2

>  <i_qp_#ringatoms>  (841) 
23

>  <i_qp_#rotor>  (841) 
3

>  <i_qp_#rtvFG>  (841) 
0

>  <i_qp_#stars>  (841) 
0

>  <i_qp_CNS>  (841) 
1

>  <i_qp_HumanOralAbsorption>  (841) 
3

>  <i_qp_RuleOfFive>  (841) 
0

>  <i_qp_RuleOfThree>  (841) 
1

>  <i_sd_BIOSOLVEIT.INFINISEE\_REAGENT1\_NAME>  (841) 
17849930

>  <i_sd_BIOSOLVEIT.INFINISEE\_REAGENT2\_NAME>  (841) 
22142522

>  <i_sd_BIOSOLVEIT.INFINISEE\_RESULT\_RANK>  (841) 
18011

>  <i_sd_version>  (841) 
0

>  <b_lp_Chiralities_Consistent>  (841) 
1

>  <b_sd_chiral_flag>  (841) 
0

>  <canonical_id>  (841) 
ATP-HTVS-85D8FA1817A9

>  <compound_code>  (841) 
28450

>  <title>  (841) 
m_2230bdc____17849930____22142522

>  <variant>  (841) 
28450-2

>  <source_file>  (841) 
运行/运行/ATP-VSW/ATP-VSW-DOCK_HTVS_1-002_lib.maegz

>  <canonical_smiles>  (841) 
CCc1ccc(F)cc1CN1CC(=O)Nc2ccccc2[C@@H]1c1ccccc1

>  <scaffold>  (841) 
O=C1CN(Cc2ccccc2)C(c2ccccc2)c2ccccc2N1

>  <molecular_formula>  (841) 
C24H23FN2O

$$$$
ATP-HTVS-85E208BF5C05
     RDKit          3D

 61 64  0  0  0  0  0  0  0  0999 V2000
  193.9314  181.8698  158.5265 Cl  0  0  0  0  0  0  0  0  0  0  0  0
  194.9695  183.1769  158.9808 C   0  0  0  0  0  0  0  0  0  0  0  0
  196.3823  183.1170  158.8250 C   0  0  0  0  0  0  0  0  0  0  0  0
  197.1770  184.2229  159.2295 C   0  0  0  0  0  0  0  0  0  0  0  0
  198.5707  184.2512  159.0750 N   0  0  0  0  0  0  0  0  0  0  0  0
  196.5525  185.3536  159.7841 C   0  0  0  0  0  0  0  0  0  0  0  0
  195.1551  185.4294  159.8940 C   0  0  0  0  0  0  0  0  0  0  0  0
  194.3666  184.3328  159.5042 C   0  0  0  0  0  0  0  0  0  0  0  0
  197.0519  181.8780  158.2480 C   0  0  1  0  0  0  0  0  0  0  0  0
  196.5734  181.4445  156.9618 N   0  0  0  0  0  0  0  0  0  0  0  0
  196.7728  182.1135  155.7755 C   0  0  0  0  0  0  0  0  0  0  0  0
  197.0391  183.4230  155.8164 N   0  0  0  0  0  0  0  0  0  0  0  0
  197.2373  184.1060  154.6813 C   0  0  0  0  0  0  0  0  0  0  0  0
  197.5369  185.4738  154.7983 N   0  0  0  0  0  0  0  0  0  0  0  0
  197.2014  186.2494  155.9957 C   0  0  1  0  0  0  0  0  0  0  0  0
  198.2116  187.3441  156.2986 C   0  0  0  0  0  0  0  0  0  0  0  0
  198.5878  187.5787  157.6347 C   0  0  0  0  0  0  0  0  0  0  0  0
  199.4760  188.6178  157.9832 C   0  0  0  0  0  0  0  0  0  0  0  0
  200.0351  189.4044  156.9560 C   0  0  0  0  0  0  0  0  0  0  0  0
  199.6778  189.1637  155.6131 C   0  0  0  0  0  0  0  0  0  0  0  0
  198.7630  188.1444  155.2777 C   0  0  0  0  0  0  0  0  0  0  0  0
  199.7853  188.9079  159.4525 C   0  0  1  0  0  0  0  0  0  0  0  0
  198.7855  189.7846  160.1328 N   0  0  1  0  0  0  0  0  0  0  0  0
  198.8389  191.1863  159.6598 C   0  0  2  0  0  0  0  0  0  0  0  0
  197.4018  189.2566  160.1127 C   0  0  2  0  0  0  0  0  0  0  0  0
  197.2107  183.4411  153.4361 C   0  0  0  0  0  0  0  0  0  0  0  0
  196.9358  182.0511  153.4595 C   0  0  0  0  0  0  0  0  0  0  0  0
  196.7166  181.4226  154.6358 N   0  0  0  0  0  0  0  0  0  0  0  0
  196.9377  181.3029  152.2716 C   0  0  0  0  0  0  0  0  0  0  0  0
  197.2021  181.9465  151.0492 C   0  0  0  0  0  0  0  0  0  0  0  0
  197.4673  183.3301  151.0166 C   0  0  0  0  0  0  0  0  0  0  0  0
  197.4682  184.0840  152.2053 C   0  0  0  0  0  0  0  0  0  0  0  0
  199.0885  185.1148  159.1633 H   0  0  0  0  0  0  0  0  0  0  0  0
  199.0305  183.5607  158.5007 H   0  0  0  0  0  0  0  0  0  0  0  0
  197.1448  186.1847  160.1201 H   0  0  0  0  0  0  0  0  0  0  0  0
  194.6926  186.3254  160.2786 H   0  0  0  0  0  0  0  0  0  0  0  0
  193.2927  184.3844  159.6050 H   0  0  0  0  0  0  0  0  0  0  0  0
  198.1203  182.0113  158.1228 H   0  0  0  0  0  0  0  0  0  0  0  0
  196.8966  181.0493  158.9425 H   0  0  0  0  0  0  0  0  0  0  0  0
  196.2214  180.4901  156.9544 H   0  0  0  0  0  0  0  0  0  0  0  0
  197.6591  186.0070  153.9552 H   0  0  0  0  0  0  0  0  0  0  0  0
  196.2137  186.6973  155.8644 H   0  0  0  0  0  0  0  0  0  0  0  0
  197.1116  185.6312  156.8927 H   0  0  0  0  0  0  0  0  0  0  0  0
  198.1453  186.9734  158.4066 H   0  0  0  0  0  0  0  0  0  0  0  0
  200.7176  190.2023  157.2050 H   0  0  0  0  0  0  0  0  0  0  0  0
  200.1047  189.7787  154.8371 H   0  0  0  0  0  0  0  0  0  0  0  0
  198.4838  187.9886  154.2421 H   0  0  0  0  0  0  0  0  0  0  0  0
  199.8609  187.9677  159.9934 H   0  0  0  0  0  0  0  0  0  0  0  0
  200.7805  189.3662  159.5425 H   0  0  0  0  0  0  0  0  0  0  0  0
  198.6481  191.2565  158.5872 H   0  0  0  0  0  0  0  0  0  0  0  0
  199.8171  191.6212  159.8646 H   0  0  0  0  0  0  0  0  0  0  0  0
  198.0816  191.7907  160.1613 H   0  0  0  0  0  0  0  0  0  0  0  0
  196.9887  189.1904  159.1071 H   0  0  0  0  0  0  0  0  0  0  0  0
  196.7097  189.8868  160.6790 H   0  0  0  0  0  0  0  0  0  0  0  0
  197.3920  188.2719  160.5760 H   0  0  0  0  0  0  0  0  0  0  0  0
  196.7480  180.2382  152.3017 H   0  0  0  0  0  0  0  0  0  0  0  0
  197.2098  181.3716  150.1358 H   0  0  0  0  0  0  0  0  0  0  0  0
  197.6739  183.8163  150.0788 H   0  0  0  0  0  0  0  0  0  0  0  0
  197.6834  185.1404  152.1690 H   0  0  0  0  0  0  0  0  0  0  0  0
  196.5350  180.4204  154.6500 H   0  0  0  0  0  0  0  0  0  0  0  0
  199.0754  189.7890  161.1172 H   0  0  0  0  0  0  0  0  0  0  0  0
  1  2  1  0
  2  3  2  0
  2  8  1  0
  3  4  1  0
  3  9  1  0
  4  5  1  0
  4  6  2  0
  5 33  1  0
  5 34  1  0
  6  7  1  0
  6 35  1  0
  7  8  2  0
  7 36  1  0
  8 37  1  0
  9 10  1  0
  9 38  1  6
  9 39  1  0
 10 11  1  0
 10 40  1  0
 11 12  1  0
 11 28  2  0
 12 13  2  0
 13 14  1  0
 13 26  1  0
 14 15  1  0
 14 41  1  0
 15 16  1  0
 15 42  1  6
 15 43  1  0
 16 17  2  0
 16 21  1  0
 17 18  1  0
 17 44  1  0
 18 19  2  0
 18 22  1  0
 19 20  1  0
 19 45  1  0
 20 21  2  0
 20 46  1  0
 21 47  1  0
 22 23  1  0
 22 48  1  1
 22 49  1  0
 23 24  1  0
 23 25  1  0
 23 61  1  1
 24 50  1  6
 24 51  1  0
 24 52  1  0
 25 53  1  6
 25 54  1  0
 25 55  1  0
 26 27  1  0
 26 32  2  0
 27 28  1  0
 27 29  2  0
 28 60  1  0
 29 30  1  0
 29 56  1  0
 30 31  2  0
 30 57  1  0
 31 32  1  0
 31 58  1  0
 32 59  1  0
M  CHG  2  23   1  28   1
M  END
>  <s_epik_cmdline>  (842) 
J2VwaWtfcHl0aG9uJywgJy1waCcsICc3LjAwMDAwMCcsICctcGh0JywgJzIuMDAwMDAwJywgJy1tcycsICcxNicsICctdG4nLCAnOCcsICctbWEnLCAnMjAwJywgJy1pbWFlJywgJzxpbmZpbGUubWFlPicsICctb21hZScsICc8b3V0ZmlsZS5tYWU+Jw==

>  <s_epik_input>  (842) 
W2NIXTFbY0hdW2NIXWMoW05IMl0pYyhjMUNsKVtDSDJdW05IXWMobmMoYzIzKVtjSF1bY0hdW2NIXVtjSF0zKW5jMltOSF1bQ0gyXWM0W2NIXWMoW2NIXVtjSF1bY0hdNClbQ0gyXU4oW0NIM10pW0NIM10=

>  <s_i_glide_gridfile>  (842) 
ATP-Grid

>  <s_lp_Force_Field>  (842) 
OPLS_2005

>  <s_lp_Variant>  (842) 
m_282030aaa____21924698____22360182____21940090-1

>  <s_lp_label>  (842) 
1213_sdstereoexpander_1_neutralizer_1_epik_1_stereoizer_1

>  <s_m_source_file>  (842) 
ATP-VSW-LIGPREP-003-in.maegz

>  <s_sd_BIOSOLVEIT.INFINISEE\_QUERY\_NAME>  (842) 
Ref-Lig

>  <s_sd_BIOSOLVEIT.INFINISEE\_QUERY\_SMILES>  (842) 
S(c1nc2c(cc1C[NH2+]Cc3ccc(cc3)C[NH+](C)C)cccc2)Cc4ccccc4

>  <s_sd_BIOSOLVEIT.INFINISEE\_REACTION\_NAME>  (842) 
m_282030aaa

>  <s_sd_BIOSOLVEIT.INFINISEE\_REAGENT1\_SMILES>  (842) 
[R1*]NCc1c(Cl)cccc1N

>  <s_sd_BIOSOLVEIT.INFINISEE\_REAGENT2\_SMILES>  (842) 
[R2*]c1nc([R1*])c2c(n1)cccc2

>  <s_sd_BIOSOLVEIT.INFINISEE\_REAGENT3\_SMILES>  (842) 
[R2*]NCc1cc(ccc1)CN(C)C

>  <s_sd_BIOSOLVEIT.INFINISEE\_SPACE>  (842) 
REALSpace_44bn_2023-08

>  <s_vsw_compound_code>  (842) 
38787

>  <s_vsw_variant>  (842) 
38787-1

>  <r_epik_Charging_Adjusted_Penalty>  (842) 
0.12044243362958

>  <r_epik_Ionization_Penalty>  (842) 
0.061199999999999997

>  <r_epik_Ionization_Penalty_Charging>  (842) 
0.0608

>  <r_epik_Ionization_Penalty_Neutral>  (842) 
0.00029999999999999997

>  <r_epik_State_Penalty>  (842) 
0.0596

>  <r_i_docking_score>  (842) 
-4.8915068780108903

>  <r_i_glide_ecoul>  (842) 
-9.7974300384521502

>  <r_i_glide_eff_state_penalty>  (842) 
0.0596

>  <r_i_glide_einternal>  (842) 
4.4202194213867196

>  <r_i_glide_emodel>  (842) 
-66.436978296279094

>  <r_i_glide_energy>  (842) 
-45.131212234497099

>  <r_i_glide_erotb>  (842) 
0.69576385238525196

>  <r_i_glide_esite>  (842) 
-0.28857361253046798

>  <r_i_glide_evdw>  (842) 
-35.333782196044901

>  <r_i_glide_gscore>  (842) 
-4.95110687801089

>  <r_i_glide_hbond>  (842) 
-0.40000000000000002

>  <r_i_glide_ligand_efficiency>  (842) 
-0.15285958993783999

>  <r_i_glide_ligand_efficiency_ln>  (842) 
-1.09534172742822

>  <r_i_glide_ligand_efficiency_sa>  (842) 
-0.48529894718087102

>  <r_i_glide_lipo>  (842) 
-1.37420254775015

>  <r_i_glide_metal>  (842) 
-0

>  <r_i_glide_rewards>  (842) 
-0.347790954545453

>  <r_lp_Energy>  (842) 
18.781371

>  <r_qp_ACxDN^.5/SA>  (842) 
0.016308099999999999

>  <r_qp_CIQPlogS>  (842) 
-5.9480000000000004

>  <r_qp_EA(eV)>  (842) 
0.51400000000000001

>  <r_qp_FISA>  (842) 
73.787999999999997

>  <r_qp_FOSA>  (842) 
161.85400000000001

>  <r_qp_IP(eV)>  (842) 
7.9020000000000001

>  <r_qp_Jm>  (842) 
0.13179842908441899

>  <r_qp_PISA>  (842) 
403.41300000000001

>  <r_qp_PSA>  (842) 
69.466999999999999

>  <r_qp_PercentHumanOralAbsorption>  (842) 
100

>  <r_qp_QPPCaco>  (842) 
493.25599999999997

>  <r_qp_QPPMDCK>  (842) 
474.54899999999998

>  <r_qp_QPlogBB>  (842) 
-0.14299999999999999

>  <r_qp_QPlogHERG>  (842) 
-6.6399999999999997

>  <r_qp_QPlogKhsa>  (842) 
0.54100000000000004

>  <r_qp_QPlogKp>  (842) 
-2.657

>  <r_qp_QPlogPC16>  (842) 
15.004

>  <r_qp_QPlogPo/w>  (842) 
4.3209999999999997

>  <r_qp_QPlogPoct>  (842) 
23.768000000000001

>  <r_qp_QPlogPw>  (842) 
13.69

>  <r_qp_QPlogS>  (842) 
-3.8740000000000001

>  <r_qp_QPpolrz>  (842) 
44.990000000000002

>  <r_qp_SASA>  (842) 
688.30700000000002

>  <r_qp_SAamideO>  (842) 
0

>  <r_qp_SAfluorine>  (842) 
0

>  <r_qp_WPSA>  (842) 
49.252000000000002

>  <r_qp_accptHB>  (842) 
6

>  <r_qp_dip^2/V>  (842) 
0.021310300000000001

>  <r_qp_dipole>  (842) 
5.3159999999999998

>  <r_qp_donorHB>  (842) 
3.5

>  <r_qp_glob>  (842) 
0.84807339999999998

>  <r_qp_mol_MW>  (842) 
446.98099999999999

>  <r_qp_volume>  (842) 
1326.0989999999999

>  <r_sd_BIOSOLVEIT.INFINISEE\_FTREES\_SIMILARITY>  (842) 
0.91100000000000003

>  <r_sd_BIOSOLVEIT.LOGP>  (842) 
3.7341000000000002

>  <r_sd_BIOSOLVEIT.MOLECULAR\_WEIGHT>  (842) 
447.99099999999999

>  <r_sd_BIOSOLVEIT.TPSA>  (842) 
80.299999999999997

>  <i_epik_Tot_Q>  (842) 
2

>  <i_epik_Tot_abs_Q>  (842) 
2

>  <i_f3d_flags>  (842) 
0

>  <i_i_glide_confnum>  (842) 
10

>  <i_i_glide_lignum>  (842) 
499

>  <i_i_glide_posenum>  (842) 
2

>  <i_i_glide_rotatable_bonds>  (842) 
8

>  <i_lp_mmshare_version>  (842) 
65135

>  <i_m_ct_format>  (842) 
2

>  <i_m_source_file_index>  (842) 
1213

>  <i_qp_#NandO>  (842) 
6

>  <i_qp_#acid>  (842) 
0

>  <i_qp_#amide>  (842) 
0

>  <i_qp_#amidine>  (842) 
0

>  <i_qp_#amine>  (842) 
1

>  <i_qp_#in34>  (842) 
0

>  <i_qp_#in56>  (842) 
22

>  <i_qp_#metab>  (842) 
7

>  <i_qp_#nonHatm>  (842) 
32

>  <i_qp_#noncon>  (842) 
0

>  <i_qp_#ringatoms>  (842) 
22

>  <i_qp_#rotor>  (842) 
9

>  <i_qp_#rtvFG>  (842) 
0

>  <i_qp_#stars>  (842) 
0

>  <i_qp_CNS>  (842) 
0

>  <i_qp_HumanOralAbsorption>  (842) 
3

>  <i_qp_RuleOfFive>  (842) 
0

>  <i_qp_RuleOfThree>  (842) 
1

>  <i_sd_BIOSOLVEIT.INFINISEE\_REAGENT1\_NAME>  (842) 
21924698

>  <i_sd_BIOSOLVEIT.INFINISEE\_REAGENT2\_NAME>  (842) 
22360182

>  <i_sd_BIOSOLVEIT.INFINISEE\_REAGENT3\_NAME>  (842) 
21940090

>  <i_sd_BIOSOLVEIT.INFINISEE\_RESULT\_RANK>  (842) 
41084

>  <i_sd_version>  (842) 
0

>  <b_lp_Chiralities_Consistent>  (842) 
1

>  <b_sd_chiral_flag>  (842) 
0

>  <canonical_id>  (842) 
ATP-HTVS-85E208BF5C05

>  <compound_code>  (842) 
38787

>  <title>  (842) 
m_282030aaa____21924698____22360182____21940090

>  <variant>  (842) 
38787-1

>  <source_file>  (842) 
运行/运行/ATP-VSW/ATP-VSW-DOCK_HTVS_1-003_lib/ATP-VSW-DOCK_HTVS_1-003_lib.mae

>  <canonical_smiles>  (842) 
C[NH+](C)Cc1cccc(CNc2nc(NCc3c(N)cccc3Cl)[nH+]c3ccccc23)c1

>  <scaffold>  (842) 
c1ccc(CNc2nc(NCc3ccccc3)c3ccccc3[nH+]2)cc1

>  <molecular_formula>  (842) 
C25H29ClN6+2

$$$$
ATP-HTVS-8667D2FB5617
     RDKit          3D

 63 66  0  0  0  0  0  0  0  0999 V2000
  201.9552  172.2314  154.9358 F   0  0  0  0  0  0  0  0  0  0  0  0
  201.9466  173.3770  154.2152 C   0  0  0  0  0  0  0  0  0  0  0  0
  201.5551  173.3579  152.8573 C   0  0  0  0  0  0  0  0  0  0  0  0
  201.5509  174.5607  152.1181 C   0  0  0  0  0  0  0  0  0  0  0  0
  201.9480  175.7652  152.7356 C   0  0  0  0  0  0  0  0  0  0  0  0
  202.3561  175.7801  154.0838 C   0  0  0  0  0  0  0  0  0  0  0  0
  202.3477  174.5850  154.8278 C   0  0  0  0  0  0  0  0  0  0  0  0
  201.9096  177.0610  151.9516 C   0  0  1  0  0  0  0  0  0  0  0  0
  200.5584  177.4904  151.6302 N   0  0  0  0  0  0  0  0  0  0  0  0
  199.7737  178.1756  152.5692 C   0  0  0  0  0  0  0  0  0  0  0  0
  200.1198  178.1136  153.8754 N   0  0  0  0  0  0  0  0  0  0  0  0
  199.3562  178.7420  154.7758 C   0  0  0  0  0  0  0  0  0  0  0  0
  198.2905  179.4549  154.4372 N   0  0  0  0  0  0  0  0  0  0  0  0
  197.9038  179.5480  153.1593 C   0  0  0  0  0  0  0  0  0  0  0  0
  198.6339  178.8893  152.1438 C   0  0  0  0  0  0  0  0  0  0  0  0
  198.2007  179.0119  150.7962 C   0  0  0  0  0  0  0  0  0  0  0  0
  197.0608  179.7887  150.4958 C   0  0  0  0  0  0  0  0  0  0  0  0
  196.3462  180.4398  151.5257 C   0  0  0  0  0  0  0  0  0  0  0  0
  196.7675  180.3060  152.8613 C   0  0  0  0  0  0  0  0  0  0  0  0
  199.6256  178.6289  156.1265 N   0  0  0  0  0  0  0  0  0  0  0  0
  200.2854  179.7370  156.8332 C   0  0  1  0  0  0  0  0  0  0  0  0
  199.5310  181.0656  156.8466 C   0  0  0  0  0  0  0  0  0  0  0  0
  198.1209  181.0627  156.9085 C   0  0  0  0  0  0  0  0  0  0  0  0
  197.3923  182.2590  156.8904 C   0  0  0  0  0  0  0  0  0  0  0  0
  198.0829  183.4885  156.8675 C   0  0  0  0  0  0  0  0  0  0  0  0
  199.4917  183.5090  156.8604 C   0  0  0  0  0  0  0  0  0  0  0  0
  200.2195  182.3008  156.8474 C   0  0  0  0  0  0  0  0  0  0  0  0
  195.8765  182.2127  156.9183 C   0  0  1  0  0  0  0  0  0  0  0  0
  195.2751  181.4484  158.0394 N   0  0  1  0  0  0  0  0  0  0  0  0
  195.8522  181.7989  159.3407 C   0  0  2  0  0  0  0  0  0  0  0  0
  193.7968  181.4735  158.0587 C   0  0  2  0  0  0  0  0  0  0  0  0
  201.1329  172.0599  152.2089 C   0  0  1  0  0  0  0  0  0  0  0  0
  202.2165  171.2929  151.7378 O   0  0  0  0  0  0  0  0  0  0  0  0
  201.2284  174.5598  151.0919 H   0  0  0  0  0  0  0  0  0  0  0  0
  202.6512  176.7007  154.5606 H   0  0  0  0  0  0  0  0  0  0  0  0
  202.6400  174.5856  155.8708 H   0  0  0  0  0  0  0  0  0  0  0  0
  202.4325  177.8527  152.4946 H   0  0  0  0  0  0  0  0  0  0  0  0
  202.4417  176.9310  151.0083 H   0  0  0  0  0  0  0  0  0  0  0  0
  200.2817  177.4944  150.6605 H   0  0  0  0  0  0  0  0  0  0  0  0
  198.7383  178.5474  149.9790 H   0  0  0  0  0  0  0  0  0  0  0  0
  196.7392  179.9152  149.4698 H   0  0  0  0  0  0  0  0  0  0  0  0
  195.4946  181.0630  151.2931 H   0  0  0  0  0  0  0  0  0  0  0  0
  196.2259  180.8152  153.6445 H   0  0  0  0  0  0  0  0  0  0  0  0
  199.9135  177.7024  156.4342 H   0  0  0  0  0  0  0  0  0  0  0  0
  200.4365  179.4316  157.8706 H   0  0  0  0  0  0  0  0  0  0  0  0
  201.2872  179.9101  156.4312 H   0  0  0  0  0  0  0  0  0  0  0  0
  197.5860  180.1253  156.9684 H   0  0  0  0  0  0  0  0  0  0  0  0
  197.5428  184.4227  156.8713 H   0  0  0  0  0  0  0  0  0  0  0  0
  200.0180  184.4528  156.8873 H   0  0  0  0  0  0  0  0  0  0  0  0
  201.3007  182.3234  156.8672 H   0  0  0  0  0  0  0  0  0  0  0  0
  195.5471  183.2481  156.9750 H   0  0  0  0  0  0  0  0  0  0  0  0
  195.5494  181.7905  155.9676 H   0  0  0  0  0  0  0  0  0  0  0  0
  195.6490  182.8353  159.6328 H   0  0  0  0  0  0  0  0  0  0  0  0
  196.9234  181.6499  159.3202 H   0  0  0  0  0  0  0  0  0  0  0  0
  195.4552  181.1147  160.0968 H   0  0  0  0  0  0  0  0  0  0  0  0
  193.4149  182.4846  158.2090 H   0  0  0  0  0  0  0  0  0  0  0  0
  193.4168  180.8372  158.8517 H   0  0  0  0  0  0  0  0  0  0  0  0
  193.3744  181.0816  157.1341 H   0  0  0  0  0  0  0  0  0  0  0  0
  200.5526  171.4575  152.9085 H   0  0  0  0  0  0  0  0  0  0  0  0
  200.4834  172.3066  151.3706 H   0  0  0  0  0  0  0  0  0  0  0  0
  202.6903  170.9422  152.4964 H   0  0  0  0  0  0  0  0  0  0  0  0
  197.7468  179.9399  155.1540 H   0  0  0  0  0  0  0  0  0  0  0  0
  195.5307  180.4541  157.9155 H   0  0  0  0  0  0  0  0  0  0  0  0
  1  2  1  0
  2  3  2  0
  2  7  1  0
  3  4  1  0
  3 32  1  0
  4  5  2  0
  4 34  1  0
  5  6  1  0
  5  8  1  0
  6  7  2  0
  6 35  1  0
  7 36  1  0
  8  9  1  0
  8 37  1  1
  8 38  1  0
  9 10  1  0
  9 39  1  0
 10 11  2  0
 10 15  1  0
 11 12  1  0
 12 13  2  0
 12 20  1  0
 13 14  1  0
 13 62  1  0
 14 15  1  0
 14 19  2  0
 15 16  2  0
 16 17  1  0
 16 40  1  0
 17 18  2  0
 17 41  1  0
 18 19  1  0
 18 42  1  0
 19 43  1  0
 20 21  1  0
 20 44  1  0
 21 22  1  0
 21 45  1  1
 21 46  1  0
 22 23  2  0
 22 27  1  0
 23 24  1  0
 23 47  1  0
 24 25  2  0
 24 28  1  0
 25 26  1  0
 25 48  1  0
 26 27  2  0
 26 49  1  0
 27 50  1  0
 28 29  1  0
 28 51  1  6
 28 52  1  0
 29 30  1  0
 29 31  1  0
 29 63  1  6
 30 53  1  1
 30 54  1  0
 30 55  1  0
 31 56  1  1
 31 57  1  0
 31 58  1  0
 32 33  1  0
 32 59  1  1
 32 60  1  0
 33 61  1  0
M  CHG  2  13   1  29   1
M  END
>  <s_epik_cmdline>  (843) 
J2VwaWtfcHl0aG9uJywgJy1waCcsICc3LjAwMDAwMCcsICctcGh0JywgJzIuMDAwMDAwJywgJy1tcycsICcxNicsICctdG4nLCAnOCcsICctbWEnLCAnMjAwJywgJy1pbWFlJywgJzxpbmZpbGUubWFlPicsICctb21hZScsICc8b3V0ZmlsZS5tYWU+Jw==

>  <s_epik_input>  (843) 
RmMxYyhbQ0gyXVtPSF0pW2NIXWMoW2NIXVtjSF0xKVtDSDJdW05IXWMoYyhjMjMpW2NIXVtjSF1bY0hdW2NIXTMpbmMobjIpW05IXVtDSDJdYzRbY0hdYyhbY0hdW2NIXVtjSF00KVtDSDJdTihbQ0gzXSlbQ0gzXQ==

>  <s_i_glide_gridfile>  (843) 
ATP-Grid

>  <s_lp_Force_Field>  (843) 
OPLS_2005

>  <s_lp_Variant>  (843) 
m_282030aaa____21905842____22360182____21940090-1

>  <s_lp_label>  (843) 
1512_sdstereoexpander_1_neutralizer_1_epik_1_stereoizer_1

>  <s_m_source_file>  (843) 
ATP-VSW-LIGPREP-001-in.maegz

>  <s_sd_BIOSOLVEIT.INFINISEE\_QUERY\_NAME>  (843) 
Ref-Lig

>  <s_sd_BIOSOLVEIT.INFINISEE\_QUERY\_SMILES>  (843) 
S(c1nc2c(cc1C[NH2+]Cc3ccc(cc3)C[NH+](C)C)cccc2)Cc4ccccc4

>  <s_sd_BIOSOLVEIT.INFINISEE\_REACTION\_NAME>  (843) 
m_282030aaa

>  <s_sd_BIOSOLVEIT.INFINISEE\_REAGENT1\_SMILES>  (843) 
[R1*]NCc1cc(c(F)cc1)CO

>  <s_sd_BIOSOLVEIT.INFINISEE\_REAGENT2\_SMILES>  (843) 
[R2*]c1nc([R1*])c2c(n1)cccc2

>  <s_sd_BIOSOLVEIT.INFINISEE\_REAGENT3\_SMILES>  (843) 
[R2*]NCc1cc(ccc1)CN(C)C

>  <s_sd_BIOSOLVEIT.INFINISEE\_SPACE>  (843) 
REALSpace_44bn_2023-08

>  <s_vsw_compound_code>  (843) 
48353

>  <s_vsw_variant>  (843) 
48353-1

>  <r_epik_Charging_Adjusted_Penalty>  (843) 
0.12687947855880299

>  <r_epik_Ionization_Penalty>  (843) 
0.0608

>  <r_epik_Ionization_Penalty_Charging>  (843) 
0.0608

>  <r_epik_Ionization_Penalty_Neutral>  (843) 
0

>  <r_epik_State_Penalty>  (843) 
0.066100000000000006

>  <r_i_docking_score>  (843) 
-5.1175561332240003

>  <r_i_glide_ecoul>  (843) 
-19.4937648773193

>  <r_i_glide_eff_state_penalty>  (843) 
0.066100000000000006

>  <r_i_glide_einternal>  (843) 
11.955329895019499

>  <r_i_glide_emodel>  (843) 
-60.637775422746799

>  <r_i_glide_energy>  (843) 
-41.943016052246101

>  <r_i_glide_erotb>  (843) 
0.79982463678156301

>  <r_i_glide_esite>  (843) 
-0.31450608002165498

>  <r_i_glide_evdw>  (843) 
-22.4492511749268

>  <r_i_glide_gscore>  (843) 
-5.1836561332239999

>  <r_i_glide_hbond>  (843) 
-0.26528870524265302

>  <r_i_glide_ligand_efficiency>  (843) 
-0.15507745858254601

>  <r_i_glide_ligand_efficiency_ln>  (843) 
-1.1381179867414699

>  <r_i_glide_ligand_efficiency_sa>  (843) 
-0.49741627163228103

>  <r_i_glide_lipo>  (843) 
-0.77452939666974696

>  <r_i_glide_metal>  (843) 
-0

>  <r_i_glide_rewards>  (843) 
-0.58262929772727101

>  <r_lp_Energy>  (843) 
22.232001

>  <r_qp_ACxDN^.5/SA>  (843) 
0.015802299999999998

>  <r_qp_CIQPlogS>  (843) 
-5.718

>  <r_qp_EA(eV)>  (843) 
0.58199999999999996

>  <r_qp_FISA>  (843) 
90.363

>  <r_qp_FOSA>  (843) 
242.11600000000001

>  <r_qp_IP(eV)>  (843) 
8.0210000000000008

>  <r_qp_Jm>  (843) 
0.020974297894958301

>  <r_qp_PISA>  (843) 
363.46499999999997

>  <r_qp_PSA>  (843) 
68.450999999999993

>  <r_qp_PercentHumanOralAbsorption>  (843) 
100

>  <r_qp_QPPCaco>  (843) 
343.46899999999999

>  <r_qp_QPPMDCK>  (843) 
279.94600000000003

>  <r_qp_QPlogBB>  (843) 
-0.41899999999999998

>  <r_qp_QPlogHERG>  (843) 
-6.7290000000000001

>  <r_qp_QPlogKhsa>  (843) 
0.64600000000000002

>  <r_qp_QPlogKp>  (843) 
-3.0070000000000001

>  <r_qp_QPlogPC16>  (843) 
14.952999999999999

>  <r_qp_QPlogPo/w>  (843) 
4.4980000000000002

>  <r_qp_QPlogPoct>  (843) 
23.981999999999999

>  <r_qp_QPlogPw>  (843) 
13.374000000000001

>  <r_qp_QPlogS>  (843) 
-4.3200000000000003

>  <r_qp_QPpolrz>  (843) 
47.606000000000002

>  <r_qp_SASA>  (843) 
734.37

>  <r_qp_SAamideO>  (843) 
0

>  <r_qp_SAfluorine>  (843) 
38.426000000000002

>  <r_qp_WPSA>  (843) 
38.426000000000002

>  <r_qp_accptHB>  (843) 
6.7000000000000002

>  <r_qp_dip^2/V>  (843) 
0.0030766000000000001

>  <r_qp_dipole>  (843) 
2.0880000000000001

>  <r_qp_donorHB>  (843) 
3

>  <r_qp_glob>  (843) 
0.83081430000000001

>  <r_qp_mol_MW>  (843) 
445.53800000000001

>  <r_qp_volume>  (843) 
1417.0350000000001

>  <r_sd_BIOSOLVEIT.INFINISEE\_FTREES\_SIMILARITY>  (843) 
0.90700000000000003

>  <r_sd_BIOSOLVEIT.LOGP>  (843) 
3.1299000000000001

>  <r_sd_BIOSOLVEIT.MOLECULAR\_WEIGHT>  (843) 
446.54700000000003

>  <r_sd_BIOSOLVEIT.TPSA>  (843) 
74.510000000000005

>  <i_epik_Tot_Q>  (843) 
2

>  <i_epik_Tot_abs_Q>  (843) 
2

>  <i_f3d_flags>  (843) 
0

>  <i_i_glide_confnum>  (843) 
8

>  <i_i_glide_lignum>  (843) 
392

>  <i_i_glide_posenum>  (843) 
16

>  <i_i_glide_rotatable_bonds>  (843) 
10

>  <i_lp_mmshare_version>  (843) 
65135

>  <i_m_ct_format>  (843) 
2

>  <i_m_source_file_index>  (843) 
1512

>  <i_qp_#NandO>  (843) 
6

>  <i_qp_#acid>  (843) 
0

>  <i_qp_#amide>  (843) 
0

>  <i_qp_#amidine>  (843) 
0

>  <i_qp_#amine>  (843) 
1

>  <i_qp_#in34>  (843) 
0

>  <i_qp_#in56>  (843) 
22

>  <i_qp_#metab>  (843) 
5

>  <i_qp_#nonHatm>  (843) 
33

>  <i_qp_#noncon>  (843) 
0

>  <i_qp_#ringatoms>  (843) 
22

>  <i_qp_#rotor>  (843) 
10

>  <i_qp_#rtvFG>  (843) 
0

>  <i_qp_#stars>  (843) 
0

>  <i_qp_CNS>  (843) 
0

>  <i_qp_HumanOralAbsorption>  (843) 
3

>  <i_qp_RuleOfFive>  (843) 
0

>  <i_qp_RuleOfThree>  (843) 
0

>  <i_sd_BIOSOLVEIT.INFINISEE\_REAGENT1\_NAME>  (843) 
21905842

>  <i_sd_BIOSOLVEIT.INFINISEE\_REAGENT2\_NAME>  (843) 
22360182

>  <i_sd_BIOSOLVEIT.INFINISEE\_REAGENT3\_NAME>  (843) 
21940090

>  <i_sd_BIOSOLVEIT.INFINISEE\_RESULT\_RANK>  (843) 
60213

>  <i_sd_version>  (843) 
0

>  <b_lp_Chiralities_Consistent>  (843) 
1

>  <b_sd_chiral_flag>  (843) 
0

>  <canonical_id>  (843) 
ATP-HTVS-8667D2FB5617

>  <compound_code>  (843) 
48353

>  <title>  (843) 
m_282030aaa____21905842____22360182____21940090

>  <variant>  (843) 
48353-1

>  <source_file>  (843) 
运行/运行/ATP-VSW/ATP-VSW-DOCK_HTVS_1-001_lib/ATP-VSW-DOCK_HTVS_1-001_lib

>  <canonical_smiles>  (843) 
C[NH+](C)Cc1cccc(CNc2nc(NCc3ccc(F)c(CO)c3)c3ccccc3[nH+]2)c1

>  <scaffold>  (843) 
c1ccc(CNc2nc(NCc3ccccc3)c3ccccc3[nH+]2)cc1

>  <molecular_formula>  (843) 
C26H30FN5O+2

$$$$
ATP-HTVS-866AD4D93294
     RDKit          3D

 54 56  0  0  0  0  0  0  0  0999 V2000
  196.8175  182.3643  154.1155 S   0  0  0  0  0  0  0  0  0  0  0  0
  198.0493  181.8269  155.2339 C   0  0  0  0  0  0  0  0  0  0  0  0
  198.4233  182.8583  156.2748 C   0  0  0  0  0  0  0  0  0  0  0  0
  199.6106  183.1840  156.3939 O   0  0  0  0  0  0  0  0  0  0  0  0
  197.4476  183.3520  157.0982 N   0  0  0  0  0  0  0  0  0  0  0  0
  197.6174  184.6310  157.7480 C   0  0  0  0  0  0  0  0  0  0  0  0
  198.0143  185.7619  156.9612 C   0  0  0  0  0  0  0  0  0  0  0  0
  198.1443  187.0338  157.5704 C   0  0  0  0  0  0  0  0  0  0  0  0
  197.8395  187.2137  158.9401 C   0  0  0  0  0  0  0  0  0  0  0  0
  197.4386  186.0811  159.7002 C   0  0  0  0  0  0  0  0  0  0  0  0
  197.3925  184.8106  159.1355 C   0  0  0  0  0  0  0  0  0  0  0  0
  196.1706  182.6094  157.3303 C   0  0  1  0  0  0  0  0  0  0  0  0
  196.0359  181.9991  158.7380 C   0  0  1  0  0  0  0  0  0  0  0  0
  194.7630  181.4373  158.8112 O   0  0  0  0  0  0  0  0  0  0  0  0
  198.4935  180.5279  154.9642 C   0  0  0  0  0  0  0  0  0  0  0  0
  199.5095  179.8697  155.6942 N   0  0  0  0  0  0  0  0  0  0  0  0
  200.1029  178.5966  155.5320 C   0  0  0  0  0  0  0  0  0  0  0  0
  200.9365  178.0540  156.5808 C   0  0  0  0  0  0  0  0  0  0  0  0
  201.5101  176.7708  156.4365 C   0  0  0  0  0  0  0  0  0  0  0  0
  201.2585  175.9989  155.2782 C   0  0  0  0  0  0  0  0  0  0  0  0
  200.4886  176.5772  154.2294 C   0  0  0  0  0  0  0  0  0  0  0  0
  199.9983  177.8692  154.3268 C   0  0  0  0  0  0  0  0  0  0  0  0
  201.2648  178.8635  157.8457 C   0  0  1  0  0  0  0  0  0  0  0  0
  202.3785  179.8558  157.6838 N   0  0  2  0  0  0  0  0  0  0  0  0
  202.6912  180.5829  158.9387 C   0  0  2  0  0  0  0  0  0  0  0  0
  202.1917  180.8375  156.5859 C   0  0  2  0  0  0  0  0  0  0  0  0
  197.7346  179.9267  153.8934 C   0  0  0  0  0  0  0  0  0  0  0  0
  196.8446  180.7664  153.3415 C   0  0  0  0  0  0  0  0  0  0  0  0
  198.2374  185.6662  155.8910 H   0  0  0  0  0  0  0  0  0  0  0  0
  198.4713  187.8940  156.9891 H   0  0  0  0  0  0  0  0  0  0  0  0
  197.9472  188.1834  159.4390 H   0  0  0  0  0  0  0  0  0  0  0  0
  197.2134  186.1884  160.7490 H   0  0  0  0  0  0  0  0  0  0  0  0
  197.1967  184.0191  159.8282 H   0  0  0  0  0  0  0  0  0  0  0  0
  195.3515  183.3080  157.0965 H   0  0  0  0  0  0  0  0  0  0  0  0
  196.0025  181.7557  156.6407 H   0  0  0  0  0  0  0  0  0  0  0  0
  196.8457  181.2809  158.9173 H   0  0  0  0  0  0  0  0  0  0  0  0
  195.9278  182.7128  159.5316 H   0  0  0  0  0  0  0  0  0  0  0  0
  194.8516  180.5016  158.5200 H   0  0  0  0  0  0  0  0  0  0  0  0
  199.9478  180.4718  156.3927 H   0  0  0  0  0  0  0  0  0  0  0  0
  202.1610  176.3462  157.2064 H   0  0  0  0  0  0  0  0  0  0  0  0
  201.6843  175.0005  155.1385 H   0  0  0  0  0  0  0  0  0  0  0  0
  200.2935  176.0268  153.3223 H   0  0  0  0  0  0  0  0  0  0  0  0
  199.5912  178.2800  153.4208 H   0  0  0  0  0  0  0  0  0  0  0  0
  200.3413  179.3610  158.1328 H   0  0  0  0  0  0  0  0  0  0  0  0
  201.5423  178.1613  158.6493 H   0  0  0  0  0  0  0  0  0  0  0  0
  201.8272  181.1389  159.3070 H   0  0  0  0  0  0  0  0  0  0  0  0
  203.4859  181.3073  158.7618 H   0  0  0  0  0  0  0  0  0  0  0  0
  203.0239  179.9030  159.7175 H   0  0  0  0  0  0  0  0  0  0  0  0
  201.2952  181.4216  156.8096 H   0  0  0  0  0  0  0  0  0  0  0  0
  202.0986  180.3349  155.6207 H   0  0  0  0  0  0  0  0  0  0  0  0
  203.0162  181.5473  156.4591 H   0  0  0  0  0  0  0  0  0  0  0  0
  197.8563  178.9138  153.5416 H   0  0  0  0  0  0  0  0  0  0  0  0
  196.1553  180.5030  152.5309 H   0  0  0  0  0  0  0  0  0  0  0  0
  203.1969  179.3031  157.4353 H   0  0  0  0  0  0  0  0  0  0  0  0
  1  2  1  0
  1 28  1  0
  2  3  1  0
  2 15  2  0
  3  4  2  0
  3  5  1  0
  5  6  1  0
  5 12  1  0
  6  7  2  0
  6 11  1  0
  7  8  1  0
  7 29  1  0
  8  9  2  0
  8 30  1  0
  9 10  1  0
  9 31  1  0
 10 11  2  0
 10 32  1  0
 11 33  1  0
 12 13  1  0
 12 34  1  6
 12 35  1  0
 13 14  1  0
 13 36  1  1
 13 37  1  0
 14 38  1  0
 15 16  1  0
 15 27  1  0
 16 17  1  0
 16 39  1  0
 17 18  1  0
 17 22  2  0
 18 19  2  0
 18 23  1  0
 19 20  1  0
 19 40  1  0
 20 21  2  0
 20 41  1  0
 21 22  1  0
 21 42  1  0
 22 43  1  0
 23 24  1  0
 23 44  1  1
 23 45  1  0
 24 25  1  0
 24 26  1  0
 24 54  1  6
 25 46  1  1
 25 47  1  0
 25 48  1  0
 26 49  1  1
 26 50  1  0
 26 51  1  0
 27 28  2  0
 27 52  1  0
 28 53  1  0
M  CHG  1  24   1
M  END
>  <s_epik_cmdline>  (844) 
J2VwaWtfcHl0aG9uJywgJy1waCcsICc3LjAwMDAwMCcsICctcGh0JywgJzIuMDAwMDAwJywgJy1tcycsICcxNicsICctdG4nLCAnOCcsICctbWEnLCAnMjAwJywgJy1pbWFlJywgJzxpbmZpbGUubWFlPicsICctb21hZScsICc8b3V0ZmlsZS5tYWU+Jw==

>  <s_epik_input>  (844) 
W2NIXTFbY0hdW2NIXVtjSF1bY0hdYzFOKFtDSDJdW0NIMl1bT0hdKUMoPU8pYzJzW2NIXVtjSF1jMltOSF1jM2MoW0NIMl1OKFtDSDNdKVtDSDNdKVtjSF1bY0hdW2NIXVtjSF0z

>  <s_i_glide_gridfile>  (844) 
ATP-Grid

>  <s_lp_Force_Field>  (844) 
OPLS_2005

>  <s_lp_Variant>  (844) 
rxn514b____EMOL483896____EMOL1836585____EMOL975590-1

>  <s_lp_label>  (844) 
2830_sdstereoexpander_1_neutralizer_1_epik_1_stereoizer_1

>  <s_m_source_file>  (844) 
ATP-VSW-LIGPREP-003-in.maegz

>  <s_sd_BIOSOLVEIT.INFINISEE\_QUERY\_NAME>  (844) 
Ref-Lig

>  <s_sd_BIOSOLVEIT.INFINISEE\_QUERY\_SMILES>  (844) 
S(c1nc2c(cc1C[NH2+]Cc3ccc(cc3)C[NH+](C)C)cccc2)Cc4ccccc4

>  <s_sd_BIOSOLVEIT.INFINISEE\_REACTION\_NAME>  (844) 
rxn514b

>  <s_sd_BIOSOLVEIT.INFINISEE\_REAGENT1\_NAME>  (844) 
EMOL483896

>  <s_sd_BIOSOLVEIT.INFINISEE\_REAGENT1\_SMILES>  (844) 
OCCNc1ccccc1

>  <s_sd_BIOSOLVEIT.INFINISEE\_REAGENT2\_NAME>  (844) 
EMOL1836585

>  <s_sd_BIOSOLVEIT.INFINISEE\_REAGENT2\_SMILES>  (844) 
S1C(C(=O)O)=C(NC(=O)OC(C)(C)C)C=C1

>  <s_sd_BIOSOLVEIT.INFINISEE\_REAGENT3\_NAME>  (844) 
EMOL975590

>  <s_sd_BIOSOLVEIT.INFINISEE\_REAGENT3\_SMILES>  (844) 
Brc1c(cccc1)CN(C)C

>  <s_sd_BIOSOLVEIT.INFINISEE\_SPACE>  (844) 
eXplore_7tr_2022-12

>  <s_vsw_compound_code>  (844) 
90531

>  <s_vsw_variant>  (844) 
90531-1

>  <r_epik_Charging_Adjusted_Penalty>  (844) 
0.085956694442709897

>  <r_epik_Ionization_Penalty>  (844) 
0.042999999999999997

>  <r_epik_Ionization_Penalty_Charging>  (844) 
0.042999999999999997

>  <r_epik_Ionization_Penalty_Neutral>  (844) 
0

>  <r_epik_State_Penalty>  (844) 
0.042999999999999997

>  <r_i_docking_score>  (844) 
-4.3197492330679301

>  <r_i_glide_ecoul>  (844) 
-10.676211357116699

>  <r_i_glide_eff_state_penalty>  (844) 
0.042999999999999997

>  <r_i_glide_einternal>  (844) 
6.6979742050170898

>  <r_i_glide_emodel>  (844) 
-52.1085787730958

>  <r_i_glide_energy>  (844) 
-41.174057960510297

>  <r_i_glide_erotb>  (844) 
0.99549927901411595

>  <r_i_glide_esite>  (844) 
-0.075461466860141393

>  <r_i_glide_evdw>  (844) 
-30.497846603393601

>  <r_i_glide_gscore>  (844) 
-4.3627492330679303

>  <r_i_glide_hbond>  (844) 
-0.16

>  <r_i_glide_ligand_efficiency>  (844) 
-0.15427675832385501

>  <r_i_glide_ligand_efficiency_ln>  (844) 
-0.99712495634081399

>  <r_i_glide_ligand_efficiency_sa>  (844) 
-0.46847510242259199

>  <r_i_glide_lipo>  (844) 
-1.0659635114847199

>  <r_i_glide_metal>  (844) 
-0

>  <r_i_glide_rewards>  (844) 
-0.93049949999999804

>  <r_lp_Energy>  (844) 
41.920799000000002

>  <r_lp_tautomer_probability>  (844) 
0.99999274205267796

>  <r_qp_ACxDN^.5/SA>  (844) 
0.0093229999999999997

>  <r_qp_CIQPlogS>  (844) 
-4.7460000000000004

>  <r_qp_EA(eV)>  (844) 
0.58399999999999996

>  <r_qp_FISA>  (844) 
92.075000000000003

>  <r_qp_FOSA>  (844) 
198.97300000000001

>  <r_qp_IP(eV)>  (844) 
8.0999999999999996

>  <r_qp_Jm>  (844) 
0.067351133791485301

>  <r_qp_PISA>  (844) 
341.92700000000002

>  <r_qp_PSA>  (844) 
63.546999999999997

>  <r_qp_PercentHumanOralAbsorption>  (844) 
94.882000000000005

>  <r_qp_QPPCaco>  (844) 
330.86599999999999

>  <r_qp_QPPMDCK>  (844) 
248.078

>  <r_qp_QPlogBB>  (844) 
-0.36399999999999999

>  <r_qp_QPlogHERG>  (844) 
-6.4180000000000001

>  <r_qp_QPlogKhsa>  (844) 
0.42499999999999999

>  <r_qp_QPlogKp>  (844) 
-3.21

>  <r_qp_QPlogPC16>  (844) 
13.331

>  <r_qp_QPlogPo/w>  (844) 
3.9009999999999998

>  <r_qp_QPlogPoct>  (844) 
18.896999999999998

>  <r_qp_QPlogPw>  (844) 
9.8689999999999998

>  <r_qp_QPlogS>  (844) 
-3.5579999999999998

>  <r_qp_QPpolrz>  (844) 
41.344000000000001

>  <r_qp_SASA>  (844) 
665.02200000000005

>  <r_qp_SAamideO>  (844) 
0

>  <r_qp_SAfluorine>  (844) 
0

>  <r_qp_WPSA>  (844) 
32.048000000000002

>  <r_qp_accptHB>  (844) 
6.2000000000000002

>  <r_qp_dip^2/V>  (844) 
0.026856700000000001

>  <r_qp_dipole>  (844) 
5.7930000000000001

>  <r_qp_donorHB>  (844) 
1

>  <r_qp_glob>  (844) 
0.84370920000000005

>  <r_qp_mol_MW>  (844) 
395.51799999999997

>  <r_qp_volume>  (844) 
1249.671

>  <r_sd_BIOSOLVEIT.INFINISEE\_FTREES\_SIMILARITY>  (844) 
0.90600000000000003

>  <r_sd_BIOSOLVEIT.LOGP>  (844) 
2.7753000000000001

>  <r_sd_BIOSOLVEIT.MOLECULAR\_WEIGHT>  (844) 
396.53100000000001

>  <r_sd_BIOSOLVEIT.TPSA>  (844) 
57.009999999999998

>  <i_epik_Tot_Q>  (844) 
1

>  <i_epik_Tot_abs_Q>  (844) 
1

>  <i_f3d_flags>  (844) 
0

>  <i_i_glide_confnum>  (844) 
8

>  <i_i_glide_lignum>  (844) 
1354

>  <i_i_glide_posenum>  (844) 
6

>  <i_i_glide_rotatable_bonds>  (844) 
10

>  <i_lp_mmshare_version>  (844) 
65135

>  <i_m_ct_format>  (844) 
2

>  <i_m_source_file_index>  (844) 
2830

>  <i_qp_#NandO>  (844) 
5

>  <i_qp_#acid>  (844) 
0

>  <i_qp_#amide>  (844) 
0

>  <i_qp_#amidine>  (844) 
0

>  <i_qp_#amine>  (844) 
1

>  <i_qp_#in34>  (844) 
0

>  <i_qp_#in56>  (844) 
17

>  <i_qp_#metab>  (844) 
7

>  <i_qp_#nonHatm>  (844) 
28

>  <i_qp_#noncon>  (844) 
0

>  <i_qp_#ringatoms>  (844) 
17

>  <i_qp_#rotor>  (844) 
9

>  <i_qp_#rtvFG>  (844) 
0

>  <i_qp_#stars>  (844) 
0

>  <i_qp_CNS>  (844) 
1

>  <i_qp_HumanOralAbsorption>  (844) 
3

>  <i_qp_RuleOfFive>  (844) 
0

>  <i_qp_RuleOfThree>  (844) 
1

>  <i_sd_BIOSOLVEIT.INFINISEE\_RESULT\_RANK>  (844) 
66455

>  <i_sd_version>  (844) 
0

>  <b_lp_Chiralities_Consistent>  (844) 
1

>  <b_sd_chiral_flag>  (844) 
0

>  <canonical_id>  (844) 
ATP-HTVS-866AD4D93294

>  <compound_code>  (844) 
90531

>  <title>  (844) 
rxn514b____EMOL483896____EMOL1836585____EMOL975590

>  <variant>  (844) 
90531-1

>  <source_file>  (844) 
运行/运行/ATP-VSW/ATP-VSW-DOCK_HTVS_1-003_lib/ATP-VSW-DOCK_HTVS_1-003_lib.mae

>  <canonical_smiles>  (844) 
C[NH+](C)Cc1ccccc1Nc1ccsc1C(=O)N(CCO)c1ccccc1

>  <scaffold>  (844) 
O=C(Nc1ccccc1)c1sccc1Nc1ccccc1

>  <molecular_formula>  (844) 
C22H26N3O2S+

$$$$
ATP-HTVS-86939B89774E
     RDKit          3D

 50 53  0  0  0  0  0  0  0  0999 V2000
  201.0142  188.3777  156.6257 O   0  0  0  0  0  0  0  0  0  0  0  0
  200.6903  188.6707  157.7688 N   0  0  0  0  0  0  0  0  0  0  0  0
  201.2842  188.3036  158.7693 O   0  0  0  0  0  0  0  0  0  0  0  0
  199.5542  189.6169  157.9690 C   0  0  0  0  0  0  0  0  0  0  0  0
  198.4810  189.3037  158.8672 C   0  0  0  0  0  0  0  0  0  0  0  0
  197.4721  190.2748  159.0943 C   0  0  0  0  0  0  0  0  0  0  0  0
  197.5098  191.5130  158.4377 C   0  0  0  0  0  0  0  0  0  0  0  0
  198.5631  191.8134  157.5652 C   0  0  0  0  0  0  0  0  0  0  0  0
  199.5804  190.8742  157.3120 C   0  0  0  0  0  0  0  0  0  0  0  0
  200.7143  191.2928  156.3746 C   0  0  2  0  0  0  0  0  0  0  0  0
  198.3527  187.9541  159.5897 C   0  0  1  0  0  0  0  0  0  0  0  0
  197.5460  186.9478  158.8838 N   0  0  0  0  0  0  0  0  0  0  0  0
  198.0412  185.5643  159.1371 C   0  0  1  0  0  0  0  0  0  0  0  0
  197.1209  184.4274  158.6267 C   0  0  0  0  0  0  0  0  0  0  0  0
  195.8608  184.2026  159.2561 C   0  0  0  0  0  0  0  0  0  0  0  0
  195.3771  185.0241  160.2900 N   0  0  0  0  0  0  0  0  0  0  0  0
  195.4810  186.3726  160.3671 C   0  0  0  0  0  0  0  0  0  0  0  0
  195.1050  186.9814  161.3391 O   0  0  0  0  0  0  0  0  0  0  0  0
  196.0724  187.1144  159.1395 C   0  0  1  0  0  0  0  0  0  0  0  0
  195.0734  183.0947  158.8776 C   0  0  0  0  0  0  0  0  0  0  0  0
  195.4946  182.2283  157.8589 C   0  0  0  0  0  0  0  0  0  0  0  0
  196.7403  182.4396  157.2191 C   0  0  0  0  0  0  0  0  0  0  0  0
  197.5341  183.5381  157.6141 C   0  0  0  0  0  0  0  0  0  0  0  0
  199.4609  185.3580  158.6110 C   0  0  0  0  0  0  0  0  0  0  0  0
  200.4093  184.5903  159.3576 C   0  0  0  0  0  0  0  0  0  0  0  0
  201.7066  184.3882  158.8492 C   0  0  0  0  0  0  0  0  0  0  0  0
  202.0790  184.9422  157.5984 C   0  0  0  0  0  0  0  0  0  0  0  0
  201.1038  185.6396  156.8254 C   0  0  0  0  0  0  0  0  0  0  0  0
  199.8284  185.8445  157.3477 C   0  0  0  0  0  0  0  0  0  0  0  0
  196.6513  190.0806  159.7728 H   0  0  0  0  0  0  0  0  0  0  0  0
  196.7420  192.2482  158.6284 H   0  0  0  0  0  0  0  0  0  0  0  0
  198.5941  192.7864  157.0765 H   0  0  0  0  0  0  0  0  0  0  0  0
  200.5525  192.2936  155.9581 H   0  0  0  0  0  0  0  0  0  0  0  0
  200.8168  190.6265  155.5153 H   0  0  0  0  0  0  0  0  0  0  0  0
  201.6569  191.2981  156.9255 H   0  0  0  0  0  0  0  0  0  0  0  0
  199.3837  187.6203  159.7802 H   0  0  0  0  0  0  0  0  0  0  0  0
  197.8705  188.1217  160.5710 H   0  0  0  0  0  0  0  0  0  0  0  0
  198.0725  185.4542  160.2191 H   0  0  0  0  0  0  0  0  0  0  0  0
  194.8315  184.5866  161.0183 H   0  0  0  0  0  0  0  0  0  0  0  0
  195.7995  188.1728  159.2324 H   0  0  0  0  0  0  0  0  0  0  0  0
  195.5141  186.7688  158.2623 H   0  0  0  0  0  0  0  0  0  0  0  0
  194.1106  182.9184  159.3448 H   0  0  0  0  0  0  0  0  0  0  0  0
  194.8942  181.3942  157.5471 H   0  0  0  0  0  0  0  0  0  0  0  0
  197.0756  181.7843  156.4421 H   0  0  0  0  0  0  0  0  0  0  0  0
  198.4818  183.6154  157.0859 H   0  0  0  0  0  0  0  0  0  0  0  0
  200.1544  184.1876  160.3333 H   0  0  0  0  0  0  0  0  0  0  0  0
  202.4617  183.8850  159.4491 H   0  0  0  0  0  0  0  0  0  0  0  0
  203.0759  184.8416  157.2285 H   0  0  0  0  0  0  0  0  0  0  0  0
  201.3624  185.9917  155.8482 H   0  0  0  0  0  0  0  0  0  0  0  0
  199.0871  186.3380  156.7444 H   0  0  0  0  0  0  0  0  0  0  0  0
  1  2  1  0
  2  3  2  0
  2  4  1  0
  4  5  1  0
  4  9  2  0
  5  6  2  0
  5 11  1  0
  6  7  1  0
  6 30  1  0
  7  8  2  0
  7 31  1  0
  8  9  1  0
  8 32  1  0
  9 10  1  0
 10 33  1  6
 10 34  1  0
 10 35  1  0
 11 12  1  0
 11 36  1  1
 11 37  1  0
 12 13  1  0
 12 19  1  0
 13 14  1  0
 13 24  1  0
 13 38  1  1
 14 15  1  0
 14 23  2  0
 15 16  1  0
 15 20  2  0
 16 17  1  0
 16 39  1  0
 17 18  2  0
 17 19  1  0
 19 40  1  1
 19 41  1  0
 20 21  1  0
 20 42  1  0
 21 22  2  0
 21 43  1  0
 22 23  1  0
 22 44  1  0
 23 45  1  0
 24 25  2  0
 24 29  1  0
 25 26  1  0
 25 46  1  0
 26 27  2  0
 26 47  1  0
 27 28  1  0
 27 48  1  0
 28 29  2  0
 28 49  1  0
 29 50  1  0
M  CHG  2   1  -1   2   1
M  END
>  <s_epik_cmdline>  (845) 
J2VwaWtfcHl0aG9uJywgJy1waCcsICc3LjAwMDAwMCcsICctcGh0JywgJzIuMDAwMDAwJywgJy1tcycsICcxNicsICctdG4nLCAnOCcsICctbWEnLCAnMjAwJywgJy1pbWFlJywgJzxpbmZpbGUubWFlPicsICctb21hZScsICc8b3V0ZmlsZS5tYWU+Jw==

>  <s_epik_input>  (845) 
W0NIM11jMVtjSF1bY0hdW2NIXWMoYzFbTitdKFtPLV0pPU8pW0NIMl1OKFtDQEBIXTJjM1tjSF1bY0hdW2NIXVtjSF1bY0hdMylbQ0gyXUMoPU8pW05IXWMoYzI0KVtjSF1bY0hdW2NIXVtjSF00

>  <s_i_glide_gridfile>  (845) 
ATP-Grid

>  <s_lp_Force_Field>  (845) 
OPLS_2005

>  <s_lp_Variant>  (845) 
m_2230bdc____17849930____13779374-1

>  <s_lp_label>  (845) 
1283_sdstereoexpander_1_neutralizer_1_epik_1_stereoizer_1

>  <s_m_source_file>  (845) 
ATP-VSW-LIGPREP-003-in.maegz

>  <s_sd_BIOSOLVEIT.INFINISEE\_QUERY\_NAME>  (845) 
Ref-Lig

>  <s_sd_BIOSOLVEIT.INFINISEE\_QUERY\_SMILES>  (845) 
S(c1nc2c(cc1C[NH2+]Cc3ccc(cc3)C[NH+](C)C)cccc2)Cc4ccccc4

>  <s_sd_BIOSOLVEIT.INFINISEE\_REACTION\_NAME>  (845) 
m_2230bdc

>  <s_sd_BIOSOLVEIT.INFINISEE\_REAGENT1\_SMILES>  (845) 
[R1*]N1C(c2c(NC(=O)C1)cccc2)c3ccccc3

>  <s_sd_BIOSOLVEIT.INFINISEE\_REAGENT2\_SMILES>  (845) 
[R1*]Cc1c([N+]([O-])=O)c(ccc1)C

>  <s_sd_BIOSOLVEIT.INFINISEE\_SPACE>  (845) 
REALSpace_44bn_2023-08

>  <s_vsw_compound_code>  (845) 
41027

>  <s_vsw_variant>  (845) 
41027-1

>  <r_epik_Charging_Adjusted_Penalty>  (845) 
0.0087634984339075902

>  <r_epik_Ionization_Penalty>  (845) 
0.0088000000000000005

>  <r_epik_Ionization_Penalty_Charging>  (845) 
0

>  <r_epik_Ionization_Penalty_Neutral>  (845) 
0.0088000000000000005

>  <r_epik_State_Penalty>  (845) 
0.0088000000000000005

>  <r_i_docking_score>  (845) 
-1.33205607693031

>  <r_i_glide_ecoul>  (845) 
-0.031307339668273898

>  <r_i_glide_eff_state_penalty>  (845) 
0.0088000000000000005

>  <r_i_glide_einternal>  (845) 
0.496687531471252

>  <r_i_glide_emodel>  (845) 
-32.4898982238822

>  <r_i_glide_energy>  (845) 
-30.212185025215099

>  <r_i_glide_erotb>  (845) 
0.38920601509969499

>  <r_i_glide_esite>  (845) 
0

>  <r_i_glide_evdw>  (845) 
-30.1808776855469

>  <r_i_glide_gscore>  (845) 
-1.3408560769303099

>  <r_i_glide_hbond>  (845) 
0

>  <r_i_glide_ligand_efficiency>  (845) 
-0.0459329681700106

>  <r_i_glide_ligand_efficiency_ln>  (845) 
-0.30500706358937701

>  <r_i_glide_ligand_efficiency_sa>  (845) 
-0.14112063080401799

>  <r_i_glide_lipo>  (845) 
-0.98805219926020504

>  <r_i_glide_metal>  (845) 
-0

>  <r_i_glide_rewards>  (845) 
0.77173009245778801

>  <r_lp_Energy>  (845) 
44.083744000000003

>  <r_qp_ACxDN^.5/SA>  (845) 
0.0085246999999999996

>  <r_qp_CIQPlogS>  (845) 
-4.7930000000000001

>  <r_qp_EA(eV)>  (845) 
0.91500000000000004

>  <r_qp_FISA>  (845) 
127.026

>  <r_qp_FOSA>  (845) 
115.76000000000001

>  <r_qp_IP(eV)>  (845) 
9.0760000000000005

>  <r_qp_Jm>  (845) 
0.00115965444327193

>  <r_qp_PISA>  (845) 
402.39699999999999

>  <r_qp_PSA>  (845) 
82.340999999999994

>  <r_qp_PercentHumanOralAbsorption>  (845) 
86.453000000000003

>  <r_qp_QPPCaco>  (845) 
154.24600000000001

>  <r_qp_QPPMDCK>  (845) 
72.575000000000003

>  <r_qp_QPlogBB>  (845) 
-0.42399999999999999

>  <r_qp_QPlogHERG>  (845) 
-6.7960000000000003

>  <r_qp_QPlogKhsa>  (845) 
0.63700000000000001

>  <r_qp_QPlogKp>  (845) 
-4.218

>  <r_qp_QPlogPC16>  (845) 
13.163

>  <r_qp_QPlogPo/w>  (845) 
3.4740000000000002

>  <r_qp_QPlogPoct>  (845) 
20.041

>  <r_qp_QPlogPw>  (845) 
11.093

>  <r_qp_QPlogS>  (845) 
-4.306

>  <r_qp_QPpolrz>  (845) 
43.085000000000001

>  <r_qp_SASA>  (845) 
645.18299999999999

>  <r_qp_SAamideO>  (845) 
0

>  <r_qp_SAfluorine>  (845) 
0

>  <r_qp_WPSA>  (845) 
0

>  <r_qp_accptHB>  (845) 
5.5

>  <r_qp_dip^2/V>  (845) 
0.073980599999999994

>  <r_qp_dipole>  (845) 
9.3529999999999998

>  <r_qp_donorHB>  (845) 
1

>  <r_qp_glob>  (845) 
0.83818409999999999

>  <r_qp_mol_MW>  (845) 
387.43700000000001

>  <r_qp_volume>  (845) 
1182.4570000000001

>  <r_sd_BIOSOLVEIT.INFINISEE\_FTREES\_SIMILARITY>  (845) 
0.91000000000000003

>  <r_sd_BIOSOLVEIT.LOGP>  (845) 
3.02982

>  <r_sd_BIOSOLVEIT.MOLECULAR\_WEIGHT>  (845) 
388.44499999999999

>  <r_sd_BIOSOLVEIT.TPSA>  (845) 
79.359999999999999

>  <i_epik_Tot_Q>  (845) 
0

>  <i_epik_Tot_abs_Q>  (845) 
2

>  <i_f3d_flags>  (845) 
0

>  <i_i_glide_confnum>  (845) 
2

>  <i_i_glide_lignum>  (845) 
517

>  <i_i_glide_posenum>  (845) 
16

>  <i_i_glide_rotatable_bonds>  (845) 
4

>  <i_lp_mmshare_version>  (845) 
65135

>  <i_m_ct_format>  (845) 
2

>  <i_m_source_file_index>  (845) 
1283

>  <i_qp_#NandO>  (845) 
6

>  <i_qp_#acid>  (845) 
0

>  <i_qp_#amide>  (845) 
0

>  <i_qp_#amidine>  (845) 
0

>  <i_qp_#amine>  (845) 
1

>  <i_qp_#in34>  (845) 
0

>  <i_qp_#in56>  (845) 
18

>  <i_qp_#metab>  (845) 
9

>  <i_qp_#nonHatm>  (845) 
29

>  <i_qp_#noncon>  (845) 
2

>  <i_qp_#ringatoms>  (845) 
23

>  <i_qp_#rotor>  (845) 
3

>  <i_qp_#rtvFG>  (845) 
0

>  <i_qp_#stars>  (845) 
1

>  <i_qp_CNS>  (845) 
1

>  <i_qp_HumanOralAbsorption>  (845) 
3

>  <i_qp_RuleOfFive>  (845) 
0

>  <i_qp_RuleOfThree>  (845) 
1

>  <i_sd_BIOSOLVEIT.INFINISEE\_REAGENT1\_NAME>  (845) 
17849930

>  <i_sd_BIOSOLVEIT.INFINISEE\_REAGENT2\_NAME>  (845) 
13779374

>  <i_sd_BIOSOLVEIT.INFINISEE\_RESULT\_RANK>  (845) 
45630

>  <i_sd_version>  (845) 
0

>  <b_lp_Chiralities_Consistent>  (845) 
1

>  <b_sd_chiral_flag>  (845) 
0

>  <canonical_id>  (845) 
ATP-HTVS-86939B89774E

>  <compound_code>  (845) 
41027

>  <title>  (845) 
m_2230bdc____17849930____13779374

>  <variant>  (845) 
41027-1

>  <source_file>  (845) 
运行/运行/ATP-VSW/ATP-VSW-DOCK_HTVS_1-003_lib/ATP-VSW-DOCK_HTVS_1-003_lib.mae

>  <canonical_smiles>  (845) 
Cc1cccc(CN2CC(=O)Nc3ccccc3[C@H]2c2ccccc2)c1[N+](=O)[O-]

>  <scaffold>  (845) 
O=C1CN(Cc2ccccc2)C(c2ccccc2)c2ccccc2N1

>  <molecular_formula>  (845) 
C23H21N3O3

$$$$
ATP-HTVS-869F8AF38162
     RDKit          3D

 64 67  0  0  0  0  0  0  0  0999 V2000
  198.0062  177.8371  151.3248 O   0  0  0  0  0  0  0  0  0  0  0  0
  197.9466  178.9069  150.7254 C   0  0  0  0  0  0  0  0  0  0  0  0
  197.6648  180.0985  151.2835 N   0  0  0  0  0  0  0  0  0  0  0  0
  197.3726  180.4097  152.6323 C   0  0  0  0  0  0  0  0  0  0  0  0
  197.3658  179.4800  153.6137 N   0  0  0  0  0  0  0  0  0  0  0  0
  197.1015  179.8479  154.8832 C   0  0  0  0  0  0  0  0  0  0  0  0
  196.8077  181.1711  155.2586 C   0  0  0  0  0  0  0  0  0  0  0  0
  196.5002  181.4362  156.6012 N   0  0  0  0  0  0  0  0  0  0  0  0
  196.6989  182.7503  157.1879 C   0  0  2  0  0  0  0  0  0  0  0  0
  198.0891  182.8962  157.6605 C   0  0  0  0  0  0  0  0  0  0  0  0
  199.1820  183.0353  158.0290 N   0  0  0  0  0  0  0  0  0  0  0  0
  195.6622  183.0536  158.2864 C   0  0  1  0  0  0  0  0  0  0  0  0
  195.7727  184.4723  158.8530 C   0  0  0  0  0  0  0  0  0  0  0  0
  195.0518  184.7958  160.0203 C   0  0  0  0  0  0  0  0  0  0  0  0
  195.1475  186.0866  160.5774 C   0  0  0  0  0  0  0  0  0  0  0  0
  195.9713  187.0577  159.9791 C   0  0  0  0  0  0  0  0  0  0  0  0
  196.6843  186.7451  158.8114 C   0  0  0  0  0  0  0  0  0  0  0  0
  196.5749  185.4683  158.2412 C   0  0  0  0  0  0  0  0  0  0  0  0
  196.7955  182.1454  154.2422 C   0  0  0  0  0  0  0  0  0  0  0  0
  197.0907  181.7742  152.9132 C   0  0  0  0  0  0  0  0  0  0  0  0
  197.0831  182.7807  151.9155 N   0  0  0  0  0  0  0  0  0  0  0  0
  197.8070  183.9596  151.9615 C   0  0  0  0  0  0  0  0  0  0  0  0
  197.5543  184.6655  150.8183 C   0  0  0  0  0  0  0  0  0  0  0  0
  196.6278  183.9132  150.0465 C   0  0  0  0  0  0  0  0  0  0  0  0
  196.3397  182.7752  150.7491 C   0  0  0  0  0  0  0  0  0  0  0  0
  198.1187  178.9588  149.2370 C   0  0  0  0  0  0  0  0  0  0  0  0
  197.6802  177.8747  148.4431 C   0  0  0  0  0  0  0  0  0  0  0  0
  197.8605  177.8983  147.0482 C   0  0  0  0  0  0  0  0  0  0  0  0
  198.4726  179.0121  146.4279 C   0  0  0  0  0  0  0  0  0  0  0  0
  198.9033  180.0992  147.2207 C   0  0  0  0  0  0  0  0  0  0  0  0
  198.7361  180.0674  148.6166 C   0  0  0  0  0  0  0  0  0  0  0  0
  198.7293  179.0068  144.9277 C   0  0  1  0  0  0  0  0  0  0  0  0
  200.1214  178.6400  144.5489 N   0  0  2  0  0  0  0  0  0  0  0  0
  200.6442  177.4284  145.2461 C   0  0  2  0  0  0  0  0  0  0  0  0
  201.0713  179.7667  144.6113 C   0  0  2  0  0  0  0  0  0  0  0  0
  197.6316  180.8895  150.6570 H   0  0  0  0  0  0  0  0  0  0  0  0
  197.1006  179.0480  155.6099 H   0  0  0  0  0  0  0  0  0  0  0  0
  196.3815  180.6120  157.2084 H   0  0  0  0  0  0  0  0  0  0  0  0
  196.5398  183.5005  156.4178 H   0  0  0  0  0  0  0  0  0  0  0  0
  194.6578  182.9239  157.8676 H   0  0  0  0  0  0  0  0  0  0  0  0
  195.7480  182.3187  159.0933 H   0  0  0  0  0  0  0  0  0  0  0  0
  194.4232  184.0451  160.4837 H   0  0  0  0  0  0  0  0  0  0  0  0
  194.5921  186.3308  161.4686 H   0  0  0  0  0  0  0  0  0  0  0  0
  196.0587  188.0485  160.4040 H   0  0  0  0  0  0  0  0  0  0  0  0
  197.3232  187.4729  158.3375 H   0  0  0  0  0  0  0  0  0  0  0  0
  197.1441  185.3080  157.3368 H   0  0  0  0  0  0  0  0  0  0  0  0
  196.5370  183.1769  154.4281 H   0  0  0  0  0  0  0  0  0  0  0  0
  198.4491  184.1915  152.7998 H   0  0  0  0  0  0  0  0  0  0  0  0
  197.9877  185.6232  150.5611 H   0  0  0  0  0  0  0  0  0  0  0  0
  196.2133  184.1792  149.0841 H   0  0  0  0  0  0  0  0  0  0  0  0
  195.6714  181.9580  150.5294 H   0  0  0  0  0  0  0  0  0  0  0  0
  197.2289  177.0100  148.9052 H   0  0  0  0  0  0  0  0  0  0  0  0
  197.5370  177.0488  146.4620 H   0  0  0  0  0  0  0  0  0  0  0  0
  199.3754  180.9560  146.7668 H   0  0  0  0  0  0  0  0  0  0  0  0
  199.1189  180.8932  149.1973 H   0  0  0  0  0  0  0  0  0  0  0  0
  198.0467  178.2791  144.4825 H   0  0  0  0  0  0  0  0  0  0  0  0
  198.4504  179.9690  144.4919 H   0  0  0  0  0  0  0  0  0  0  0  0
  200.7552  177.5800  146.3202 H   0  0  0  0  0  0  0  0  0  0  0  0
  201.6178  177.1478  144.8542 H   0  0  0  0  0  0  0  0  0  0  0  0
  199.9695  176.5924  145.0812 H   0  0  0  0  0  0  0  0  0  0  0  0
  201.1933  180.1428  145.6261 H   0  0  0  0  0  0  0  0  0  0  0  0
  200.7311  180.5928  143.9832 H   0  0  0  0  0  0  0  0  0  0  0  0
  202.0624  179.4706  144.2645 H   0  0  0  0  0  0  0  0  0  0  0  0
  200.0269  178.3332  143.5857 H   0  0  0  0  0  0  0  0  0  0  0  0
  1  2  2  0
  2  3  1  0
  2 26  1  0
  3  4  1  0
  3 36  1  0
  4  5  1  0
  4 20  2  0
  5  6  2  0
  6  7  1  0
  6 37  1  0
  7  8  1  0
  7 19  2  0
  8  9  1  0
  8 38  1  0
  9 10  1  0
  9 12  1  0
  9 39  1  6
 10 11  3  0
 12 13  1  0
 12 40  1  6
 12 41  1  0
 13 14  2  0
 13 18  1  0
 14 15  1  0
 14 42  1  0
 15 16  2  0
 15 43  1  0
 16 17  1  0
 16 44  1  0
 17 18  2  0
 17 45  1  0
 18 46  1  0
 19 20  1  0
 19 47  1  0
 20 21  1  0
 21 22  1  0
 21 25  1  0
 22 23  2  0
 22 48  1  0
 23 24  1  0
 23 49  1  0
 24 25  2  0
 24 50  1  0
 25 51  1  0
 26 27  1  0
 26 31  2  0
 27 28  2  0
 27 52  1  0
 28 29  1  0
 28 53  1  0
 29 30  2  0
 29 32  1  0
 30 31  1  0
 30 54  1  0
 31 55  1  0
 32 33  1  0
 32 56  1  6
 32 57  1  0
 33 34  1  0
 33 35  1  0
 33 64  1  6
 34 58  1  1
 34 59  1  0
 34 60  1  0
 35 61  1  1
 35 62  1  0
 35 63  1  0
M  CHG  1  33   1
M  END
>  <s_epik_cmdline>  (846) 
J2VwaWtfcHl0aG9uJywgJy1waCcsICc3LjAwMDAwMCcsICctcGh0JywgJzIuMDAwMDAwJywgJy1tcycsICcxNicsICctdG4nLCAnOCcsICctbWEnLCAnMjAwJywgJy1pbWFlJywgJzxpbmZpbGUubWFlPicsICctb21hZScsICc8b3V0ZmlsZS5tYWU+Jw==

>  <s_epik_input>  (846) 
W0NIM11OKFtDSDNdKVtDSDJdYyhbY0hdW2NIXTEpW2NIXVtjSF1jMUMoPU8pW05IXWMybltjSF1jKFtjSF1jMi1uM1tjSF1bY0hdW2NIXVtjSF0zKVtOSF1bQ0BIXShDI04pW0NIMl1jNFtjSF1bY0hdW2NIXVtjSF1bY0hdNA==

>  <s_i_glide_gridfile>  (846) 
ATP-Grid

>  <s_lp_Force_Field>  (846) 
OPLS_2005

>  <s_lp_Variant>  (846) 
rxn502b____EMOL18624763____EMOL4363915____EMOL18628026-2

>  <s_lp_label>  (846) 
2826_sdstereoexpander_2_neutralizer_1_epik_1_stereoizer_1

>  <s_m_source_file>  (846) 
ATP-VSW-LIGPREP-001-in.maegz

>  <s_sd_BIOSOLVEIT.INFINISEE\_QUERY\_NAME>  (846) 
Ref-Lig

>  <s_sd_BIOSOLVEIT.INFINISEE\_QUERY\_SMILES>  (846) 
S(c1nc2c(cc1C[NH2+]Cc3ccc(cc3)C[NH+](C)C)cccc2)Cc4ccccc4

>  <s_sd_BIOSOLVEIT.INFINISEE\_REACTION\_NAME>  (846) 
rxn502b

>  <s_sd_BIOSOLVEIT.INFINISEE\_REAGENT1\_NAME>  (846) 
EMOL18624763

>  <s_sd_BIOSOLVEIT.INFINISEE\_REAGENT1\_SMILES>  (846) 
O=C(O)c1ccc(cc1)CN(C)C

>  <s_sd_BIOSOLVEIT.INFINISEE\_REAGENT2\_NAME>  (846) 
EMOL4363915

>  <s_sd_BIOSOLVEIT.INFINISEE\_REAGENT2\_SMILES>  (846) 
Brc1cnc(N)c(N2C=CC=C2)c1

>  <s_sd_BIOSOLVEIT.INFINISEE\_REAGENT3\_NAME>  (846) 
EMOL18628026

>  <s_sd_BIOSOLVEIT.INFINISEE\_REAGENT3\_SMILES>  (846) 
N#CC(N)Cc1ccccc1

>  <s_sd_BIOSOLVEIT.INFINISEE\_SPACE>  (846) 
eXplore_7tr_2022-12

>  <s_vsw_compound_code>  (846) 
90401

>  <s_vsw_variant>  (846) 
90401-2

>  <r_epik_Charging_Adjusted_Penalty>  (846) 
0.10433640840748

>  <r_epik_Ionization_Penalty>  (846) 
0.052499999999999998

>  <r_epik_Ionization_Penalty_Charging>  (846) 
0.052200000000000003

>  <r_epik_Ionization_Penalty_Neutral>  (846) 
0.00029999999999999997

>  <r_epik_State_Penalty>  (846) 
0.052200000000000003

>  <r_i_docking_score>  (846) 
-5.7470145923418698

>  <r_i_glide_ecoul>  (846) 
-10.8155164718628

>  <r_i_glide_eff_state_penalty>  (846) 
0.052200000000000003

>  <r_i_glide_einternal>  (846) 
4.3997993469238299

>  <r_i_glide_emodel>  (846) 
-73.261375537131002

>  <r_i_glide_energy>  (846) 
-51.210829734802203

>  <r_i_glide_erotb>  (846) 
0.74436447329809796

>  <r_i_glide_esite>  (846) 
-0.22866842338038099

>  <r_i_glide_evdw>  (846) 
-40.395313262939503

>  <r_i_glide_gscore>  (846) 
-5.7992145923418699

>  <r_i_glide_hbond>  (846) 
-0.29477666429375099

>  <r_i_glide_ligand_efficiency>  (846) 
-0.16420041692405299

>  <r_i_glide_ligand_efficiency_ln>  (846) 
-1.26159725113581

>  <r_i_glide_ligand_efficiency_sa>  (846) 
-0.537110451282653

>  <r_i_glide_lipo>  (846) 
-1.8286439316096701

>  <r_i_glide_metal>  (846) 
-0

>  <r_i_glide_rewards>  (846) 
-0.54939691242977395

>  <r_lp_Energy>  (846) 
27.851109000000001

>  <r_qp_ACxDN^.5/SA>  (846) 
0.0131591

>  <r_qp_CIQPlogS>  (846) 
-6.7439999999999998

>  <r_qp_EA(eV)>  (846) 
0.78300000000000003

>  <r_qp_FISA>  (846) 
130.614

>  <r_qp_FOSA>  (846) 
224.68799999999999

>  <r_qp_IP(eV)>  (846) 
8.6159999999999997

>  <r_qp_Jm>  (846) 
1.4807258491018199e-05

>  <r_qp_PISA>  (846) 
504.46199999999999

>  <r_qp_PSA>  (846) 
89.763000000000005

>  <r_qp_PercentHumanOralAbsorption>  (846) 
92.813999999999993

>  <r_qp_QPPCaco>  (846) 
142.62200000000001

>  <r_qp_QPPMDCK>  (846) 
66.680999999999997

>  <r_qp_QPlogBB>  (846) 
-1.113

>  <r_qp_QPlogHERG>  (846) 
-8.6470000000000002

>  <r_qp_QPlogKhsa>  (846) 
0.80100000000000005

>  <r_qp_QPlogKp>  (846) 
-3.3479999999999999

>  <r_qp_QPlogPC16>  (846) 
17.893000000000001

>  <r_qp_QPlogPo/w>  (846) 
4.665

>  <r_qp_QPlogPoct>  (846) 
25.998000000000001

>  <r_qp_QPlogPw>  (846) 
14.932

>  <r_qp_QPlogS>  (846) 
-7.1479999999999997

>  <r_qp_QPpolrz>  (846) 
54.975000000000001

>  <r_qp_SASA>  (846) 
859.76400000000001

>  <r_qp_SAamideO>  (846) 
0

>  <r_qp_SAfluorine>  (846) 
0

>  <r_qp_WPSA>  (846) 
0

>  <r_qp_accptHB>  (846) 
8

>  <r_qp_dip^2/V>  (846) 
0.021229999999999999

>  <r_qp_dipole>  (846) 
5.7389999999999999

>  <r_qp_donorHB>  (846) 
2

>  <r_qp_glob>  (846) 
0.75384649999999997

>  <r_qp_mol_MW>  (846) 
464.56900000000002

>  <r_qp_volume>  (846) 
1551.479

>  <r_sd_BIOSOLVEIT.INFINISEE\_FTREES\_SIMILARITY>  (846) 
0.90600000000000003

>  <r_sd_BIOSOLVEIT.LOGP>  (846) 
3.3158799999999999

>  <r_sd_BIOSOLVEIT.MOLECULAR\_WEIGHT>  (846) 
465.57799999999997

>  <r_sd_BIOSOLVEIT.TPSA>  (846) 
87.180000000000007

>  <i_epik_Tot_Q>  (846) 
1

>  <i_epik_Tot_abs_Q>  (846) 
1

>  <i_f3d_flags>  (846) 
0

>  <i_i_glide_confnum>  (846) 
4

>  <i_i_glide_lignum>  (846) 
1299

>  <i_i_glide_posenum>  (846) 
3

>  <i_i_glide_rotatable_bonds>  (846) 
10

>  <i_lp_mmshare_version>  (846) 
65135

>  <i_m_ct_format>  (846) 
2

>  <i_m_source_file_index>  (846) 
2826

>  <i_qp_#NandO>  (846) 
7

>  <i_qp_#acid>  (846) 
0

>  <i_qp_#amide>  (846) 
0

>  <i_qp_#amidine>  (846) 
0

>  <i_qp_#amine>  (846) 
1

>  <i_qp_#in34>  (846) 
0

>  <i_qp_#in56>  (846) 
23

>  <i_qp_#metab>  (846) 
7

>  <i_qp_#nonHatm>  (846) 
35

>  <i_qp_#noncon>  (846) 
0

>  <i_qp_#ringatoms>  (846) 
23

>  <i_qp_#rotor>  (846) 
9

>  <i_qp_#rtvFG>  (846) 
0

>  <i_qp_#stars>  (846) 
2

>  <i_qp_CNS>  (846) 
-2

>  <i_qp_HumanOralAbsorption>  (846) 
1

>  <i_qp_RuleOfFive>  (846) 
0

>  <i_qp_RuleOfThree>  (846) 
2

>  <i_sd_BIOSOLVEIT.INFINISEE\_RESULT\_RANK>  (846) 
66019

>  <i_sd_version>  (846) 
0

>  <b_lp_Chiralities_Consistent>  (846) 
1

>  <b_sd_chiral_flag>  (846) 
0

>  <canonical_id>  (846) 
ATP-HTVS-869F8AF38162

>  <compound_code>  (846) 
90401

>  <title>  (846) 
rxn502b____EMOL18624763____EMOL4363915____EMOL18628026

>  <variant>  (846) 
90401-2

>  <source_file>  (846) 
运行/运行/ATP-VSW/ATP-VSW-DOCK_HTVS_1-001_lib/ATP-VSW-DOCK_HTVS_1-001_lib

>  <canonical_smiles>  (846) 
C[NH+](C)Cc1ccc(C(=O)Nc2ncc(N[C@H](C#N)Cc3ccccc3)cc2-n2cccc2)cc1

>  <scaffold>  (846) 
O=C(Nc1ncc(NCCc2ccccc2)cc1-n1cccc1)c1ccccc1

>  <molecular_formula>  (846) 
C28H29N6O+

$$$$
ATP-HTVS-86B60B8C3F13
     RDKit          3D

 56 58  0  0  0  0  0  0  0  0999 V2000
  196.3575  191.4354  162.4688 O   0  0  0  0  0  0  0  0  0  0  0  0
  195.6402  190.5647  161.9684 C   0  0  0  0  0  0  0  0  0  0  0  0
  195.9673  189.8324  160.8882 N   0  0  0  0  0  0  0  0  0  0  0  0
  197.1610  189.8156  160.1223 C   0  0  0  0  0  0  0  0  0  0  0  0
  197.3812  188.7022  159.2623 C   0  0  0  0  0  0  0  0  0  0  0  0
  196.4468  187.6524  159.1810 N   0  0  0  0  0  0  0  0  0  0  0  0
  196.6795  186.5673  160.1229 C   0  0  1  0  0  0  0  0  0  0  0  0
  196.0724  185.2520  159.6696 C   0  0  0  0  0  0  0  0  0  0  0  0
  196.8900  184.2360  159.1335 C   0  0  0  0  0  0  0  0  0  0  0  0
  196.3214  183.0127  158.7091 C   0  0  0  0  0  0  0  0  0  0  0  0
  194.9305  182.8145  158.8097 C   0  0  0  0  0  0  0  0  0  0  0  0
  194.1116  183.8390  159.3152 C   0  0  0  0  0  0  0  0  0  0  0  0
  194.6824  185.0445  159.7591 C   0  0  0  0  0  0  0  0  0  0  0  0
  197.2014  181.9211  158.1243 C   0  0  1  0  0  0  0  0  0  0  0  0
  196.8599  181.5499  156.7289 N   0  0  1  0  0  0  0  0  0  0  0  0
  196.7328  182.7046  155.8082 C   0  0  2  0  0  0  0  0  0  0  0  0
  197.7896  180.5296  156.1966 C   0  0  2  0  0  0  0  0  0  0  0  0
  198.5659  188.6676  158.4836 C   0  0  0  0  0  0  0  0  0  0  0  0
  199.4524  189.6849  158.5673 N   0  0  0  0  0  0  0  0  0  0  0  0
  199.2641  190.7700  159.3457 C   0  0  0  0  0  0  0  0  0  0  0  0
  198.1055  190.8710  160.1326 C   0  0  0  0  0  0  0  0  0  0  0  0
  198.9183  187.5218  157.5507 C   0  0  2  0  0  0  0  0  0  0  0  0
  194.3024  190.2449  162.5834 C   0  0  0  0  0  0  0  0  0  0  0  0
  193.8163  191.0332  163.6546 C   0  0  0  0  0  0  0  0  0  0  0  0
  192.5900  190.7294  164.2776 C   0  0  0  0  0  0  0  0  0  0  0  0
  191.8386  189.6187  163.8520 C   0  0  0  0  0  0  0  0  0  0  0  0
  192.3101  188.8192  162.7954 C   0  0  0  0  0  0  0  0  0  0  0  0
  193.5386  189.1229  162.1748 C   0  0  0  0  0  0  0  0  0  0  0  0
  195.2905  189.1443  160.5849 H   0  0  0  0  0  0  0  0  0  0  0  0
  196.3017  187.2866  158.2493 H   0  0  0  0  0  0  0  0  0  0  0  0
  197.7481  186.4203  160.2741 H   0  0  0  0  0  0  0  0  0  0  0  0
  196.2547  186.8405  161.0871 H   0  0  0  0  0  0  0  0  0  0  0  0
  197.9543  184.4051  159.0428 H   0  0  0  0  0  0  0  0  0  0  0  0
  194.4845  181.8907  158.4693 H   0  0  0  0  0  0  0  0  0  0  0  0
  193.0408  183.7040  159.3412 H   0  0  0  0  0  0  0  0  0  0  0  0
  194.0389  185.8243  160.1428 H   0  0  0  0  0  0  0  0  0  0  0  0
  198.2401  182.2535  158.1554 H   0  0  0  0  0  0  0  0  0  0  0  0
  197.1206  181.0384  158.7637 H   0  0  0  0  0  0  0  0  0  0  0  0
  197.6697  183.2615  155.7440 H   0  0  0  0  0  0  0  0  0  0  0  0
  195.9489  183.3923  156.1282 H   0  0  0  0  0  0  0  0  0  0  0  0
  196.4668  182.3731  154.8048 H   0  0  0  0  0  0  0  0  0  0  0  0
  198.8031  180.9256  156.1124 H   0  0  0  0  0  0  0  0  0  0  0  0
  197.4695  180.1922  155.2109 H   0  0  0  0  0  0  0  0  0  0  0  0
  197.8381  179.6571  156.8471 H   0  0  0  0  0  0  0  0  0  0  0  0
  200.0410  191.5220  159.3199 H   0  0  0  0  0  0  0  0  0  0  0  0
  197.9701  191.7600  160.7322 H   0  0  0  0  0  0  0  0  0  0  0  0
  199.2809  186.6657  158.1224 H   0  0  0  0  0  0  0  0  0  0  0  0
  199.7029  187.8151  156.8517 H   0  0  0  0  0  0  0  0  0  0  0  0
  198.0544  187.2071  156.9637 H   0  0  0  0  0  0  0  0  0  0  0  0
  194.3826  191.8818  164.0071 H   0  0  0  0  0  0  0  0  0  0  0  0
  192.2372  191.3440  165.0925 H   0  0  0  0  0  0  0  0  0  0  0  0
  190.8984  189.3821  164.3310 H   0  0  0  0  0  0  0  0  0  0  0  0
  191.7382  187.9638  162.4640 H   0  0  0  0  0  0  0  0  0  0  0  0
  193.8626  188.4680  161.3763 H   0  0  0  0  0  0  0  0  0  0  0  0
  195.9527  181.0996  156.7934 H   0  0  0  0  0  0  0  0  0  0  0  0
  200.3072  189.6285  158.0135 H   0  0  0  0  0  0  0  0  0  0  0  0
  1  2  2  0
  2  3  1  0
  2 23  1  0
  3  4  1  0
  3 29  1  0
  4  5  1  0
  4 21  2  0
  5  6  1  0
  5 18  2  0
  6  7  1  0
  6 30  1  0
  7  8  1  0
  7 31  1  1
  7 32  1  0
  8  9  2  0
  8 13  1  0
  9 10  1  0
  9 33  1  0
 10 11  2  0
 10 14  1  0
 11 12  1  0
 11 34  1  0
 12 13  2  0
 12 35  1  0
 13 36  1  0
 14 15  1  0
 14 37  1  6
 14 38  1  0
 15 16  1  0
 15 17  1  0
 15 55  1  1
 16 39  1  6
 16 40  1  0
 16 41  1  0
 17 42  1  6
 17 43  1  0
 17 44  1  0
 18 19  1  0
 18 22  1  0
 19 20  2  0
 19 56  1  0
 20 21  1  0
 20 45  1  0
 21 46  1  0
 22 47  1  1
 22 48  1  0
 22 49  1  0
 23 24  2  0
 23 28  1  0
 24 25  1  0
 24 50  1  0
 25 26  2  0
 25 51  1  0
 26 27  1  0
 26 52  1  0
 27 28  2  0
 27 53  1  0
 28 54  1  0
M  CHG  2  15   1  19   1
M  END
>  <s_epik_cmdline>  (847) 
J2VwaWtfcHl0aG9uJywgJy1waCcsICc3LjAwMDAwMCcsICctcGh0JywgJzIuMDAwMDAwJywgJy1tcycsICcxNicsICctdG4nLCAnOCcsICctbWEnLCAnMjAwJywgJy1pbWFlJywgJzxpbmZpbGUubWFlPicsICctb21hZScsICc8b3V0ZmlsZS5tYWU+Jw==

>  <s_epik_input>  (847) 
W2NIXTFbY0hdW2NIXVtjSF1bY0hdYzFDKD1PKVtOSF1jMmMoYyhbQ0gzXSluW2NIXVtjSF0yKVtOSF1bQ0gyXWMzW2NIXWMoW2NIXVtjSF1bY0hdMylbQ0gyXU4oW0NIM10pW0NIM10=

>  <s_i_glide_gridfile>  (847) 
ATP-Grid

>  <s_lp_Force_Field>  (847) 
OPLS_2005

>  <s_lp_Variant>  (847) 
rxn502a____EMOL480353____EMOL42780653____EMOL2873214-2

>  <s_lp_label>  (847) 
2846_sdstereoexpander_1_neutralizer_1_epik_2_stereoizer_1

>  <s_m_source_file>  (847) 
ATP-VSW-LIGPREP-002-in.maegz

>  <s_sd_BIOSOLVEIT.INFINISEE\_QUERY\_NAME>  (847) 
Ref-Lig

>  <s_sd_BIOSOLVEIT.INFINISEE\_QUERY\_SMILES>  (847) 
S(c1nc2c(cc1C[NH2+]Cc3ccc(cc3)C[NH+](C)C)cccc2)Cc4ccccc4

>  <s_sd_BIOSOLVEIT.INFINISEE\_REACTION\_NAME>  (847) 
rxn502a

>  <s_sd_BIOSOLVEIT.INFINISEE\_REAGENT1\_NAME>  (847) 
EMOL480353

>  <s_sd_BIOSOLVEIT.INFINISEE\_REAGENT1\_SMILES>  (847) 
ClC(=O)c1ccccc1

>  <s_sd_BIOSOLVEIT.INFINISEE\_REAGENT2\_NAME>  (847) 
EMOL42780653

>  <s_sd_BIOSOLVEIT.INFINISEE\_REAGENT2\_SMILES>  (847) 
Ic1c(nccc1N)C

>  <s_sd_BIOSOLVEIT.INFINISEE\_REAGENT3\_NAME>  (847) 
EMOL2873214

>  <s_sd_BIOSOLVEIT.INFINISEE\_REAGENT3\_SMILES>  (847) 
N(Cc1cc(ccc1)CN)(C)C

>  <s_sd_BIOSOLVEIT.INFINISEE\_SPACE>  (847) 
eXplore_7tr_2022-12

>  <s_vsw_compound_code>  (847) 
91042

>  <s_vsw_variant>  (847) 
91042-2

>  <r_epik_Charging_Adjusted_Penalty>  (847) 
1.59510238969122

>  <r_epik_Ionization_Penalty>  (847) 
0.79759999999999998

>  <r_epik_Ionization_Penalty_Charging>  (847) 
0.79759999999999998

>  <r_epik_Ionization_Penalty_Neutral>  (847) 
0

>  <r_epik_State_Penalty>  (847) 
0.79759999999999998

>  <r_i_docking_score>  (847) 
-4.69609106885546

>  <r_i_glide_ecoul>  (847) 
-13.037275314331101

>  <r_i_glide_eff_state_penalty>  (847) 
0.79759999999999998

>  <r_i_glide_einternal>  (847) 
3.2300121784210201

>  <r_i_glide_emodel>  (847) 
-71.080166144304101

>  <r_i_glide_energy>  (847) 
-47.7870388031006

>  <r_i_glide_erotb>  (847) 
0.95597679005506297

>  <r_i_glide_esite>  (847) 
-0.13273096749267299

>  <r_i_glide_evdw>  (847) 
-34.749763488769503

>  <r_i_glide_gscore>  (847) 
-5.4936910688554601

>  <r_i_glide_hbond>  (847) 
-0.173763324087268

>  <r_i_glide_ligand_efficiency>  (847) 
-0.16771753817340901

>  <r_i_glide_ligand_efficiency_ln>  (847) 
-1.0839957019170201

>  <r_i_glide_ligand_efficiency_sa>  (847) 
-0.50928922624182504

>  <r_i_glide_lipo>  (847) 
-1.3830119593788199

>  <r_i_glide_metal>  (847) 
-0

>  <r_i_glide_rewards>  (847) 
-1.06708213636364

>  <r_lp_Energy>  (847) 
32.822066999999997

>  <r_lp_tautomer_probability>  (847) 
0.99984579293731701

>  <r_qp_ACxDN^.5/SA>  (847) 
0.014356900000000001

>  <r_qp_CIQPlogS>  (847) 
-4.2320000000000002

>  <r_qp_EA(eV)>  (847) 
0.70399999999999996

>  <r_qp_FISA>  (847) 
69.338999999999999

>  <r_qp_FOSA>  (847) 
225.59200000000001

>  <r_qp_IP(eV)>  (847) 
8.7789999999999999

>  <r_qp_Jm>  (847) 
0.24109673102908299

>  <r_qp_PISA>  (847) 
345.34399999999999

>  <r_qp_PSA>  (847) 
59.728999999999999

>  <r_qp_PercentHumanOralAbsorption>  (847) 
96.716999999999999

>  <r_qp_QPPCaco>  (847) 
543.572

>  <r_qp_QPPMDCK>  (847) 
283.18799999999999

>  <r_qp_QPlogBB>  (847) 
-0.078

>  <r_qp_QPlogHERG>  (847) 
-6.0949999999999998

>  <r_qp_QPlogKhsa>  (847) 
0.39100000000000001

>  <r_qp_QPlogKp>  (847) 
-2.9710000000000001

>  <r_qp_QPlogPC16>  (847) 
12.988

>  <r_qp_QPlogPo/w>  (847) 
3.5550000000000002

>  <r_qp_QPlogPoct>  (847) 
20.664999999999999

>  <r_qp_QPlogPw>  (847) 
11.868

>  <r_qp_QPlogS>  (847) 
-3.2200000000000002

>  <r_qp_QPpolrz>  (847) 
41.667999999999999

>  <r_qp_SASA>  (847) 
640.27499999999998

>  <r_qp_SAamideO>  (847) 
0

>  <r_qp_SAfluorine>  (847) 
0

>  <r_qp_WPSA>  (847) 
0

>  <r_qp_accptHB>  (847) 
6.5

>  <r_qp_dip^2/V>  (847) 
0.039246200000000002

>  <r_qp_dipole>  (847) 
6.9329999999999998

>  <r_qp_donorHB>  (847) 
2

>  <r_qp_glob>  (847) 
0.86467369999999999

>  <r_qp_mol_MW>  (847) 
374.48500000000001

>  <r_qp_volume>  (847) 
1224.845

>  <r_sd_BIOSOLVEIT.INFINISEE\_FTREES\_SIMILARITY>  (847) 
0.90500000000000003

>  <r_sd_BIOSOLVEIT.LOGP>  (847) 
2.8989199999999999

>  <r_sd_BIOSOLVEIT.MOLECULAR\_WEIGHT>  (847) 
375.49299999999999

>  <r_sd_BIOSOLVEIT.TPSA>  (847) 
58.460000000000001

>  <i_epik_Tot_Q>  (847) 
2

>  <i_epik_Tot_abs_Q>  (847) 
2

>  <i_f3d_flags>  (847) 
0

>  <i_i_glide_confnum>  (847) 
3

>  <i_i_glide_lignum>  (847) 
1404

>  <i_i_glide_posenum>  (847) 
11

>  <i_i_glide_rotatable_bonds>  (847) 
8

>  <i_lp_mmshare_version>  (847) 
65135

>  <i_m_ct_format>  (847) 
2

>  <i_m_source_file_index>  (847) 
2846

>  <i_qp_#NandO>  (847) 
5

>  <i_qp_#acid>  (847) 
0

>  <i_qp_#amide>  (847) 
0

>  <i_qp_#amidine>  (847) 
0

>  <i_qp_#amine>  (847) 
1

>  <i_qp_#in34>  (847) 
0

>  <i_qp_#in56>  (847) 
18

>  <i_qp_#metab>  (847) 
8

>  <i_qp_#nonHatm>  (847) 
28

>  <i_qp_#noncon>  (847) 
0

>  <i_qp_#ringatoms>  (847) 
18

>  <i_qp_#rotor>  (847) 
7

>  <i_qp_#rtvFG>  (847) 
0

>  <i_qp_#stars>  (847) 
0

>  <i_qp_CNS>  (847) 
1

>  <i_qp_HumanOralAbsorption>  (847) 
3

>  <i_qp_RuleOfFive>  (847) 
0

>  <i_qp_RuleOfThree>  (847) 
1

>  <i_sd_BIOSOLVEIT.INFINISEE\_RESULT\_RANK>  (847) 
68539

>  <i_sd_version>  (847) 
0

>  <b_lp_Chiralities_Consistent>  (847) 
1

>  <b_sd_chiral_flag>  (847) 
0

>  <canonical_id>  (847) 
ATP-HTVS-86B60B8C3F13

>  <compound_code>  (847) 
91042

>  <title>  (847) 
rxn502a____EMOL480353____EMOL42780653____EMOL2873214

>  <variant>  (847) 
91042-2

>  <source_file>  (847) 
运行/运行/ATP-VSW/ATP-VSW-DOCK_HTVS_1-002_lib.maegz

>  <canonical_smiles>  (847) 
Cc1[nH+]ccc(NC(=O)c2ccccc2)c1NCc1cccc(C[NH+](C)C)c1

>  <scaffold>  (847) 
O=C(Nc1cc[nH+]cc1NCc1ccccc1)c1ccccc1

>  <molecular_formula>  (847) 
C23H28N4O+2

$$$$
ATP-HTVS-86C3058B81C7
     RDKit          3D

 58 60  0  0  0  0  0  0  0  0999 V2000
  196.5435  181.9132  150.7263 O   0  0  0  0  0  0  0  0  0  0  0  0
  197.0213  181.4351  151.7688 C   0  0  0  0  0  0  0  0  0  0  0  0
  197.3467  180.1080  151.9516 N   0  0  0  0  0  0  0  0  0  0  0  0
  197.3037  179.0710  150.9098 C   0  0  2  0  0  0  0  0  0  0  0  0
  198.6857  178.5265  150.5482 C   0  0  0  0  0  0  0  0  0  0  0  0
  198.7996  177.1990  150.0779 C   0  0  0  0  0  0  0  0  0  0  0  0
  200.0614  176.6591  149.7630 C   0  0  0  0  0  0  0  0  0  0  0  0
  201.2210  177.4420  149.9169 C   0  0  0  0  0  0  0  0  0  0  0  0
  201.1201  178.7643  150.3861 C   0  0  0  0  0  0  0  0  0  0  0  0
  199.8588  179.3078  150.6947 C   0  0  0  0  0  0  0  0  0  0  0  0
  196.5128  179.3893  149.6198 C   0  0  2  0  0  0  0  0  0  0  0  0
  197.8596  179.5474  153.2255 C   0  0  2  0  0  0  0  0  0  0  0  0
  197.3817  182.4271  152.8463 C   0  0  0  0  0  0  0  0  0  0  0  0
  198.0360  183.5181  152.3865 N   0  0  0  0  0  0  0  0  0  0  0  0
  198.3937  184.4556  153.2905 C   0  0  0  0  0  0  0  0  0  0  0  0
  198.1750  184.3476  154.6653 C   0  0  0  0  0  0  0  0  0  0  0  0
  197.5247  183.1769  155.1649 C   0  0  0  0  0  0  0  0  0  0  0  0
  197.3262  182.8446  156.5274 N   0  0  0  0  0  0  0  0  0  0  0  0
  197.2021  183.7089  157.6302 C   0  0  0  0  0  0  0  0  0  0  0  0
  196.3115  183.3809  158.7084 C   0  0  0  0  0  0  0  0  0  0  0  0
  196.2059  184.2587  159.8211 C   0  0  0  0  0  0  0  0  0  0  0  0
  196.9076  185.4825  159.8622 C   0  0  0  0  0  0  0  0  0  0  0  0
  197.7758  185.7910  158.7869 C   0  0  0  0  0  0  0  0  0  0  0  0
  197.9572  184.9049  157.7169 C   0  0  0  0  0  0  0  0  0  0  0  0
  195.4606  182.1099  158.7142 C   0  0  1  0  0  0  0  0  0  0  0  0
  194.0914  182.3073  158.1378 N   0  0  1  0  0  0  0  0  0  0  0  0
  193.2462  181.1040  158.2765 C   0  0  2  0  0  0  0  0  0  0  0  0
  193.3991  183.5211  158.6174 C   0  0  2  0  0  0  0  0  0  0  0  0
  197.0658  182.2290  154.2092 C   0  0  0  0  0  0  0  0  0  0  0  0
  196.7739  178.2611  151.4011 H   0  0  0  0  0  0  0  0  0  0  0  0
  197.9184  176.5843  149.9652 H   0  0  0  0  0  0  0  0  0  0  0  0
  200.1368  175.6455  149.4009 H   0  0  0  0  0  0  0  0  0  0  0  0
  202.1878  177.0286  149.6707 H   0  0  0  0  0  0  0  0  0  0  0  0
  202.0089  179.3621  150.5090 H   0  0  0  0  0  0  0  0  0  0  0  0
  199.8050  180.3209  151.0650 H   0  0  0  0  0  0  0  0  0  0  0  0
  196.3723  178.5004  149.0037 H   0  0  0  0  0  0  0  0  0  0  0  0
  197.0491  180.1170  149.0061 H   0  0  0  0  0  0  0  0  0  0  0  0
  195.5221  179.7845  149.8400 H   0  0  0  0  0  0  0  0  0  0  0  0
  198.5829  180.1917  153.7189 H   0  0  0  0  0  0  0  0  0  0  0  0
  198.3889  178.5988  153.1203 H   0  0  0  0  0  0  0  0  0  0  0  0
  197.0217  179.3425  153.8917 H   0  0  0  0  0  0  0  0  0  0  0  0
  198.8945  185.3278  152.9384 H   0  0  0  0  0  0  0  0  0  0  0  0
  198.5279  185.1595  155.2600 H   0  0  0  0  0  0  0  0  0  0  0  0
  197.0806  181.8823  156.6978 H   0  0  0  0  0  0  0  0  0  0  0  0
  195.5326  184.0159  160.6666 H   0  0  0  0  0  0  0  0  0  0  0  0
  196.8251  186.1633  160.6988 H   0  0  0  0  0  0  0  0  0  0  0  0
  198.3548  186.6877  158.8019 H   0  0  0  0  0  0  0  0  0  0  0  0
  198.7378  185.1520  157.0416 H   0  0  0  0  0  0  0  0  0  0  0  0
  195.9684  181.3054  158.1754 H   0  0  0  0  0  0  0  0  0  0  0  0
  195.3667  181.7374  159.7503 H   0  0  0  0  0  0  0  0  0  0  0  0
  193.0624  180.8687  159.3243 H   0  0  0  0  0  0  0  0  0  0  0  0
  193.7249  180.2428  157.8132 H   0  0  0  0  0  0  0  0  0  0  0  0
  192.2954  181.2479  157.7691 H   0  0  0  0  0  0  0  0  0  0  0  0
  193.2808  183.5183  159.7011 H   0  0  0  0  0  0  0  0  0  0  0  0
  192.4127  183.5839  158.1597 H   0  0  0  0  0  0  0  0  0  0  0  0
  193.9335  184.4378  158.3505 H   0  0  0  0  0  0  0  0  0  0  0  0
  196.4941  181.3727  154.5474 H   0  0  0  0  0  0  0  0  0  0  0  0
  194.1890  182.4567  157.1422 H   0  0  0  0  0  0  0  0  0  0  0  0
  1  2  2  0
  2  3  1  0
  2 13  1  0
  3  4  1  0
  3 12  1  0
  4  5  1  0
  4 11  1  0
  4 30  1  1
  5  6  2  0
  5 10  1  0
  6  7  1  0
  6 31  1  0
  7  8  2  0
  7 32  1  0
  8  9  1  0
  8 33  1  0
  9 10  2  0
  9 34  1  0
 10 35  1  0
 11 36  1  6
 11 37  1  0
 11 38  1  0
 12 39  1  1
 12 40  1  0
 12 41  1  0
 13 14  1  0
 13 29  2  0
 14 15  2  0
 15 16  1  0
 15 42  1  0
 16 17  2  0
 16 43  1  0
 17 18  1  0
 17 29  1  0
 18 19  1  0
 18 44  1  0
 19 20  1  0
 19 24  2  0
 20 21  2  0
 20 25  1  0
 21 22  1  0
 21 45  1  0
 22 23  2  0
 22 46  1  0
 23 24  1  0
 23 47  1  0
 24 48  1  0
 25 26  1  0
 25 49  1  6
 25 50  1  0
 26 27  1  0
 26 28  1  0
 26 58  1  6
 27 51  1  1
 27 52  1  0
 27 53  1  0
 28 54  1  1
 28 55  1  0
 28 56  1  0
 29 57  1  0
M  CHG  1  26   1
M  END
>  <s_epik_cmdline>  (848) 
J2VwaWtfcHl0aG9uJywgJy1waCcsICc3LjAwMDAwMCcsICctcGh0JywgJzIuMDAwMDAwJywgJy1tcycsICcxNicsICctdG4nLCAnOCcsICctbWEnLCAnMjAwJywgJy1pbWFlJywgJzxpbmZpbGUubWFlPicsICctb21hZScsICc8b3V0ZmlsZS5tYWU+Jw==

>  <s_epik_input>  (848) 
W2NIXTFbY0hdW2NIXVtjSF1bY0hdYzFbQ0BIXShbQ0gzXSlOKFtDSDNdKUMoPU8pYzJuW2NIXVtjSF1jKFtjSF0yKVtOSF1jM2MoW0NIMl1OKFtDSDNdKVtDSDNdKVtjSF1bY0hdW2NIXVtjSF0z

>  <s_i_glide_gridfile>  (848) 
ATP-Grid

>  <s_lp_Force_Field>  (848) 
OPLS_2005

>  <s_lp_Variant>  (848) 
rxn514b____EMOL17149431____EMOL39928332____EMOL975590-2

>  <s_lp_label>  (848) 
3073_sdstereoexpander_2_neutralizer_1_epik_1_stereoizer_1

>  <s_m_source_file>  (848) 
ATP-VSW-LIGPREP-002-in.maegz

>  <s_sd_BIOSOLVEIT.INFINISEE\_QUERY\_NAME>  (848) 
Ref-Lig

>  <s_sd_BIOSOLVEIT.INFINISEE\_QUERY\_SMILES>  (848) 
S(c1nc2c(cc1C[NH2+]Cc3ccc(cc3)C[NH+](C)C)cccc2)Cc4ccccc4

>  <s_sd_BIOSOLVEIT.INFINISEE\_REACTION\_NAME>  (848) 
rxn514b

>  <s_sd_BIOSOLVEIT.INFINISEE\_REAGENT1\_NAME>  (848) 
EMOL17149431

>  <s_sd_BIOSOLVEIT.INFINISEE\_REAGENT1\_SMILES>  (848) 
N(C(c1ccccc1)C)C

>  <s_sd_BIOSOLVEIT.INFINISEE\_REAGENT2\_NAME>  (848) 
EMOL39928332

>  <s_sd_BIOSOLVEIT.INFINISEE\_REAGENT2\_SMILES>  (848) 
O=C(OC(C)(C)C)Nc1cc(ncc1)C(=O)O

>  <s_sd_BIOSOLVEIT.INFINISEE\_REAGENT3\_NAME>  (848) 
EMOL975590

>  <s_sd_BIOSOLVEIT.INFINISEE\_REAGENT3\_SMILES>  (848) 
Brc1c(cccc1)CN(C)C

>  <s_sd_BIOSOLVEIT.INFINISEE\_SPACE>  (848) 
eXplore_7tr_2022-12

>  <s_vsw_compound_code>  (848) 
98306

>  <s_vsw_variant>  (848) 
98306-2

>  <r_epik_Charging_Adjusted_Penalty>  (848) 
0.074139713783215794

>  <r_epik_Ionization_Penalty>  (848) 
0.037699999999999997

>  <r_epik_Ionization_Penalty_Charging>  (848) 
0.037100000000000001

>  <r_epik_Ionization_Penalty_Neutral>  (848) 
0.00059999999999999995

>  <r_epik_State_Penalty>  (848) 
0.037100000000000001

>  <r_i_docking_score>  (848) 
-4.3873461385954897

>  <r_i_glide_ecoul>  (848) 
-9.0306749343872106

>  <r_i_glide_eff_state_penalty>  (848) 
0.037100000000000001

>  <r_i_glide_einternal>  (848) 
5.0168032646179199

>  <r_i_glide_emodel>  (848) 
-54.619987124779499

>  <r_i_glide_energy>  (848) 
-40.726799964904799

>  <r_i_glide_erotb>  (848) 
0.77095783696149101

>  <r_i_glide_esite>  (848) 
-0.128023692839766

>  <r_i_glide_evdw>  (848) 
-31.696125030517599

>  <r_i_glide_gscore>  (848) 
-4.4244461385954796

>  <r_i_glide_hbond>  (848) 
-0.20000000000000001

>  <r_i_glide_ligand_efficiency>  (848) 
-0.15128779788260299

>  <r_i_glide_ligand_efficiency_ln>  (848) 
-1.0045910122395101

>  <r_i_glide_ligand_efficiency_sa>  (848) 
-0.46480404643397

>  <r_i_glide_lipo>  (848) 
-1.11387844101642

>  <r_i_glide_metal>  (848) 
-0

>  <r_i_glide_rewards>  (848) 
-0.81409435001682995

>  <r_lp_Energy>  (848) 
38.252550999999997

>  <r_lp_tautomer_probability>  (848) 
0.999999106000799

>  <r_qp_ACxDN^.5/SA>  (848) 
0.0087294999999999994

>  <r_qp_CIQPlogS>  (848) 
-4.5439999999999996

>  <r_qp_EA(eV)>  (848) 
0.35799999999999998

>  <r_qp_FISA>  (848) 
46.280999999999999

>  <r_qp_FOSA>  (848) 
302.19900000000001

>  <r_qp_IP(eV)>  (848) 
8.3279999999999994

>  <r_qp_Jm>  (848) 
0.015342513862758899

>  <r_qp_PISA>  (848) 
396.12400000000002

>  <r_qp_PSA>  (848) 
50.844000000000001

>  <r_qp_PercentHumanOralAbsorption>  (848) 
100

>  <r_qp_QPPCaco>  (848) 
899.32799999999997

>  <r_qp_QPPMDCK>  (848) 
488.00099999999998

>  <r_qp_QPlogBB>  (848) 
0.043999999999999997

>  <r_qp_QPlogHERG>  (848) 
-7.5739999999999998

>  <r_qp_QPlogKhsa>  (848) 
0.65700000000000003

>  <r_qp_QPlogKp>  (848) 
-2.3679999999999999

>  <r_qp_QPlogPC16>  (848) 
14.071999999999999

>  <r_qp_QPlogPo/w>  (848) 
4.5549999999999997

>  <r_qp_QPlogPoct>  (848) 
20.77

>  <r_qp_QPlogPw>  (848) 
10.843

>  <r_qp_QPlogS>  (848) 
-5.0359999999999996

>  <r_qp_QPpolrz>  (848) 
46.637

>  <r_qp_SASA>  (848) 
744.60400000000004

>  <r_qp_SAamideO>  (848) 
0

>  <r_qp_SAfluorine>  (848) 
0

>  <r_qp_WPSA>  (848) 
0

>  <r_qp_accptHB>  (848) 
6.5

>  <r_qp_dip^2/V>  (848) 
0.048470600000000003

>  <r_qp_dipole>  (848) 
8.0500000000000007

>  <r_qp_donorHB>  (848) 
1

>  <r_qp_glob>  (848) 
0.78820869999999998

>  <r_qp_mol_MW>  (848) 
388.51100000000002

>  <r_qp_volume>  (848) 
1336.9110000000001

>  <r_sd_BIOSOLVEIT.INFINISEE\_FTREES\_SIMILARITY>  (848) 
0.90200000000000002

>  <r_sd_BIOSOLVEIT.LOGP>  (848) 
3.3029000000000002

>  <r_sd_BIOSOLVEIT.MOLECULAR\_WEIGHT>  (848) 
389.51999999999998

>  <r_sd_BIOSOLVEIT.TPSA>  (848) 
49.670000000000002

>  <i_epik_Tot_Q>  (848) 
1

>  <i_epik_Tot_abs_Q>  (848) 
1

>  <i_f3d_flags>  (848) 
0

>  <i_i_glide_confnum>  (848) 
2

>  <i_i_glide_lignum>  (848) 
125

>  <i_i_glide_posenum>  (848) 
6

>  <i_i_glide_rotatable_bonds>  (848) 
8

>  <i_lp_mmshare_version>  (848) 
65135

>  <i_m_ct_format>  (848) 
2

>  <i_m_source_file_index>  (848) 
3073

>  <i_qp_#NandO>  (848) 
5

>  <i_qp_#acid>  (848) 
0

>  <i_qp_#amide>  (848) 
0

>  <i_qp_#amidine>  (848) 
0

>  <i_qp_#amine>  (848) 
1

>  <i_qp_#in34>  (848) 
0

>  <i_qp_#in56>  (848) 
18

>  <i_qp_#metab>  (848) 
7

>  <i_qp_#nonHatm>  (848) 
29

>  <i_qp_#noncon>  (848) 
0

>  <i_qp_#ringatoms>  (848) 
18

>  <i_qp_#rotor>  (848) 
7

>  <i_qp_#rtvFG>  (848) 
0

>  <i_qp_#stars>  (848) 
0

>  <i_qp_CNS>  (848) 
1

>  <i_qp_HumanOralAbsorption>  (848) 
3

>  <i_qp_RuleOfFive>  (848) 
0

>  <i_qp_RuleOfThree>  (848) 
1

>  <i_sd_BIOSOLVEIT.INFINISEE\_RESULT\_RANK>  (848) 
93626

>  <i_sd_version>  (848) 
0

>  <b_lp_Chiralities_Consistent>  (848) 
1

>  <b_sd_chiral_flag>  (848) 
0

>  <canonical_id>  (848) 
ATP-HTVS-86C3058B81C7

>  <compound_code>  (848) 
98306

>  <title>  (848) 
rxn514b____EMOL17149431____EMOL39928332____EMOL975590

>  <variant>  (848) 
98306-2

>  <source_file>  (848) 
运行/运行/ATP-VSW/ATP-VSW-DOCK_HTVS_1-003_lib/ATP-VSW-DOCK_HTVS_1-003_lib.mae

>  <canonical_smiles>  (848) 
C[C@@H](c1ccccc1)N(C)C(=O)c1cc(Nc2ccccc2C[NH+](C)C)ccn1

>  <scaffold>  (848) 
O=C(NCc1ccccc1)c1cc(Nc2ccccc2)ccn1

>  <molecular_formula>  (848) 
C24H29N4O+

$$$$
ATP-HTVS-86DDC209E59E
     RDKit          3D

 51 53  0  0  0  0  0  0  0  0999 V2000
  195.8990  187.4481  160.1790 F   0  0  0  0  0  0  0  0  0  0  0  0
  195.9031  186.1383  159.8309 C   0  0  0  0  0  0  0  0  0  0  0  0
  197.0756  185.5366  159.3230 C   0  0  0  0  0  0  0  0  0  0  0  0
  197.0454  184.1675  158.9773 C   0  0  0  0  0  0  0  0  0  0  0  0
  195.8550  183.4156  159.0771 C   0  0  0  0  0  0  0  0  0  0  0  0
  194.6899  184.0202  159.5753 C   0  0  0  0  0  0  0  0  0  0  0  0
  194.7240  185.3696  159.9683 C   0  0  0  0  0  0  0  0  0  0  0  0
  195.8116  181.9633  158.6319 C   0  0  1  0  0  0  0  0  0  0  0  0
  195.7378  181.8253  157.1570 N   0  0  1  0  0  0  0  0  0  0  0  0
  196.9970  182.1560  156.4640 C   0  0  1  0  0  0  0  0  0  0  0  0
  196.9807  181.6518  155.0544 C   0  0  0  0  0  0  0  0  0  0  0  0
  197.2495  180.3362  154.5912 C   0  0  0  0  0  0  0  0  0  0  0  0
  197.5404  179.2371  155.3580 O   0  0  0  0  0  0  0  0  0  0  0  0
  198.7190  178.5197  155.0137 C   0  0  1  0  0  0  0  0  0  0  0  0
  199.9754  179.1545  155.5798 C   0  0  0  0  0  0  0  0  0  0  0  0
  200.3449  178.9126  156.9164 C   0  0  0  0  0  0  0  0  0  0  0  0
  201.5304  179.4685  157.4341 C   0  0  0  0  0  0  0  0  0  0  0  0
  202.3430  180.2792  156.6166 C   0  0  0  0  0  0  0  0  0  0  0  0
  201.9709  180.5299  155.2818 C   0  0  0  0  0  0  0  0  0  0  0  0
  200.7892  179.9684  154.7613 C   0  0  0  0  0  0  0  0  0  0  0  0
  197.1438  180.2138  153.2770 N   0  0  0  0  0  0  0  0  0  0  0  0
  196.8401  181.4614  152.8615 N   0  0  0  0  0  0  0  0  0  0  0  0
  196.7451  182.3506  153.9078 C   0  0  0  0  0  0  0  0  0  0  0  0
  196.6700  181.7095  151.4532 C   0  0  2  0  0  0  0  0  0  0  0  0
  198.3784  186.3061  159.1209 C   0  0  1  0  0  0  0  0  0  0  0  0
  198.3181  187.8002  159.4700 C   0  0  2  0  0  0  0  0  0  0  0  0
  195.5677  180.8379  157.0285 H   0  0  0  0  0  0  0  0  0  0  0  0
  197.9550  183.7168  158.6078 H   0  0  0  0  0  0  0  0  0  0  0  0
  193.7704  183.4559  159.6412 H   0  0  0  0  0  0  0  0  0  0  0  0
  193.8176  185.8224  160.3359 H   0  0  0  0  0  0  0  0  0  0  0  0
  196.6702  181.4106  159.0222 H   0  0  0  0  0  0  0  0  0  0  0  0
  194.9320  181.4805  159.0553 H   0  0  0  0  0  0  0  0  0  0  0  0
  197.1450  183.2353  156.4606 H   0  0  0  0  0  0  0  0  0  0  0  0
  197.8346  181.7147  157.0052 H   0  0  0  0  0  0  0  0  0  0  0  0
  198.6241  177.5127  155.4235 H   0  0  0  0  0  0  0  0  0  0  0  0
  198.8216  178.3928  153.9355 H   0  0  0  0  0  0  0  0  0  0  0  0
  199.7213  178.2886  157.5424 H   0  0  0  0  0  0  0  0  0  0  0  0
  201.8247  179.2665  158.4524 H   0  0  0  0  0  0  0  0  0  0  0  0
  203.2557  180.6987  157.0138 H   0  0  0  0  0  0  0  0  0  0  0  0
  202.6014  181.1434  154.6534 H   0  0  0  0  0  0  0  0  0  0  0  0
  200.5132  180.1535  153.7342 H   0  0  0  0  0  0  0  0  0  0  0  0
  196.5020  183.3930  153.7560 H   0  0  0  0  0  0  0  0  0  0  0  0
  196.6854  182.7838  151.2592 H   0  0  0  0  0  0  0  0  0  0  0  0
  195.7178  181.2937  151.1259 H   0  0  0  0  0  0  0  0  0  0  0  0
  197.4817  181.2362  150.8999 H   0  0  0  0  0  0  0  0  0  0  0  0
  199.1510  185.8193  159.7159 H   0  0  0  0  0  0  0  0  0  0  0  0
  198.6951  186.1937  158.0830 H   0  0  0  0  0  0  0  0  0  0  0  0
  199.2952  188.2876  159.3200 H   0  0  0  0  0  0  0  0  0  0  0  0
  198.0180  187.9413  160.4998 H   0  0  0  0  0  0  0  0  0  0  0  0
  197.5993  188.3158  158.8475 H   0  0  0  0  0  0  0  0  0  0  0  0
  194.9584  182.3412  156.7586 H   0  0  0  0  0  0  0  0  0  0  0  0
  1  2  1  0
  2  3  2  0
  2  7  1  0
  3  4  1  0
  3 25  1  0
  4  5  2  0
  4 28  1  0
  5  6  1  0
  5  8  1  0
  6  7  2  0
  6 29  1  0
  7 30  1  0
  8  9  1  0
  8 31  1  1
  8 32  1  0
  9 10  1  0
  9 27  1  1
  9 51  1  0
 10 11  1  0
 10 33  1  6
 10 34  1  0
 11 12  1  0
 11 23  2  0
 12 13  1  0
 12 21  2  0
 13 14  1  0
 14 15  1  0
 14 35  1  1
 14 36  1  0
 15 16  2  0
 15 20  1  0
 16 17  1  0
 16 37  1  0
 17 18  2  0
 17 38  1  0
 18 19  1  0
 18 39  1  0
 19 20  2  0
 19 40  1  0
 20 41  1  0
 21 22  1  0
 22 23  1  0
 22 24  1  0
 23 42  1  0
 24 43  1  1
 24 44  1  0
 24 45  1  0
 25 26  1  0
 25 46  1  1
 25 47  1  0
 26 48  1  1
 26 49  1  0
 26 50  1  0
M  CHG  1   9   1
M  END
>  <s_epik_cmdline>  (849) 
J2VwaWtfcHl0aG9uJywgJy1waCcsICc3LjAwMDAwMCcsICctcGh0JywgJzIuMDAwMDAwJywgJy1tcycsICcxNicsICctdG4nLCAnOCcsICctbWEnLCAnMjAwJywgJy1pbWFlJywgJzxpbmZpbGUubWFlPicsICctb21hZScsICc8b3V0ZmlsZS5tYWU+Jw==

>  <s_epik_input>  (849) 
RmMxYyhbQ0gyXVtDSDNdKVtjSF1jKFtjSF1bY0hdMSlbQ0gyXVtOSF1bQ0gyXWMyYyhubihbY0hdMilbQ0gzXSlPW0NIMl1jM1tjSF1bY0hdW2NIXVtjSF1bY0hdMw==

>  <s_i_glide_gridfile>  (849) 
ATP-Grid

>  <s_lp_Force_Field>  (849) 
OPLS_2005

>  <s_lp_Variant>  (849) 
m_270004bbb____24792678____24720692-1

>  <s_lp_label>  (849) 
1971_sdstereoexpander_1_neutralizer_1_epik_1_stereoizer_1

>  <s_m_source_file>  (849) 
ATP-VSW-LIGPREP-002-in.maegz

>  <s_sd_BIOSOLVEIT.INFINISEE\_QUERY\_NAME>  (849) 
Ref-Lig

>  <s_sd_BIOSOLVEIT.INFINISEE\_QUERY\_SMILES>  (849) 
S(c1nc2c(cc1C[NH2+]Cc3ccc(cc3)C[NH+](C)C)cccc2)Cc4ccccc4

>  <s_sd_BIOSOLVEIT.INFINISEE\_REACTION\_NAME>  (849) 
m_270004bbb

>  <s_sd_BIOSOLVEIT.INFINISEE\_REAGENT1\_SMILES>  (849) 
[R1*]NCC=1C(OCc2ccccc2)=NN(C1)C

>  <s_sd_BIOSOLVEIT.INFINISEE\_REAGENT2\_SMILES>  (849) 
[R1*]Cc1cc(c(F)cc1)CC

>  <s_sd_BIOSOLVEIT.INFINISEE\_SPACE>  (849) 
REALSpace_44bn_2023-08

>  <s_vsw_compound_code>  (849) 
63042

>  <s_vsw_variant>  (849) 
63042-1

>  <r_epik_Charging_Adjusted_Penalty>  (849) 
0.18711775714249301

>  <r_epik_Ionization_Penalty>  (849) 
0.087900000000000006

>  <r_epik_Ionization_Penalty_Charging>  (849) 
0.087499999999999994

>  <r_epik_Ionization_Penalty_Neutral>  (849) 
0.00040000000000000002

>  <r_epik_State_Penalty>  (849) 
0.099599999999999994

>  <r_i_docking_score>  (849) 
-4.9669934470144499

>  <r_i_glide_ecoul>  (849) 
-9.9346656799316406

>  <r_i_glide_eff_state_penalty>  (849) 
0.099599999999999994

>  <r_i_glide_einternal>  (849) 
9.6647567749023402

>  <r_i_glide_emodel>  (849) 
-55.554828795415403

>  <r_i_glide_energy>  (849) 
-40.966611862182603

>  <r_i_glide_erotb>  (849) 
1.06473722923039

>  <r_i_glide_esite>  (849) 
-0.117104777692389

>  <r_i_glide_evdw>  (849) 
-31.031946182251001

>  <r_i_glide_gscore>  (849) 
-5.0665934470144496

>  <r_i_glide_hbond>  (849) 
-0.38610784240936102

>  <r_i_glide_ligand_efficiency>  (849) 
-0.191038209500556

>  <r_i_glide_ligand_efficiency_ln>  (849) 
-1.1664821129965199

>  <r_i_glide_ligand_efficiency_sa>  (849) 
-0.56594994394634002

>  <r_i_glide_lipo>  (849) 
-1.1112489911729899

>  <r_i_glide_metal>  (849) 
-0

>  <r_i_glide_rewards>  (849) 
-1.47507190386781

>  <r_lp_Energy>  (849) 
6.1673640000000001

>  <r_lp_tautomer_probability>  (849) 
1

>  <r_qp_ACxDN^.5/SA>  (849) 
0.0050109000000000004

>  <r_qp_CIQPlogS>  (849) 
-5.1600000000000001

>  <r_qp_EA(eV)>  (849) 
-0.01

>  <r_qp_FISA>  (849) 
14.736000000000001

>  <r_qp_FOSA>  (849) 
320.55200000000002

>  <r_qp_IP(eV)>  (849) 
9.0109999999999992

>  <r_qp_Jm>  (849) 
0.36331420041386697

>  <r_qp_PISA>  (849) 
230.255

>  <r_qp_PSA>  (849) 
36.493000000000002

>  <r_qp_PercentHumanOralAbsorption>  (849) 
100

>  <r_qp_QPPCaco>  (849) 
1790.836

>  <r_qp_QPPMDCK>  (849) 
1560.8199999999999

>  <r_qp_QPlogBB>  (849) 
0.434

>  <r_qp_QPlogHERG>  (849) 
-5.2919999999999998

>  <r_qp_QPlogKhsa>  (849) 
0.81100000000000005

>  <r_qp_QPlogKp>  (849) 
-2.274

>  <r_qp_QPlogPC16>  (849) 
10.609

>  <r_qp_QPlogPo/w>  (849) 
4.9470000000000001

>  <r_qp_QPlogPoct>  (849) 
14.765000000000001

>  <r_qp_QPlogPw>  (849) 
5.4930000000000003

>  <r_qp_QPlogS>  (849) 
-3.714

>  <r_qp_QPpolrz>  (849) 
36.442999999999998

>  <r_qp_SASA>  (849) 
598.69399999999996

>  <r_qp_SAamideO>  (849) 
0

>  <r_qp_SAfluorine>  (849) 
33.151000000000003

>  <r_qp_WPSA>  (849) 
33.151000000000003

>  <r_qp_accptHB>  (849) 
3

>  <r_qp_dip^2/V>  (849) 
0.0086212000000000007

>  <r_qp_dipole>  (849) 
3.1320000000000001

>  <r_qp_donorHB>  (849) 
1

>  <r_qp_glob>  (849) 
0.88038879999999997

>  <r_qp_mol_MW>  (849) 
353.43799999999999

>  <r_qp_volume>  (849) 
1137.8140000000001

>  <r_sd_BIOSOLVEIT.INFINISEE\_FTREES\_SIMILARITY>  (849) 
0.90200000000000002

>  <r_sd_BIOSOLVEIT.LOGP>  (849) 
2.9641999999999999

>  <r_sd_BIOSOLVEIT.MOLECULAR\_WEIGHT>  (849) 
354.447

>  <r_sd_BIOSOLVEIT.TPSA>  (849) 
43.659999999999997

>  <i_epik_Tot_Q>  (849) 
1

>  <i_epik_Tot_abs_Q>  (849) 
1

>  <i_f3d_flags>  (849) 
0

>  <i_i_glide_confnum>  (849) 
3

>  <i_i_glide_lignum>  (849) 
710

>  <i_i_glide_posenum>  (849) 
1

>  <i_i_glide_rotatable_bonds>  (849) 
8

>  <i_lp_mmshare_version>  (849) 
65135

>  <i_m_ct_format>  (849) 
2

>  <i_m_source_file_index>  (849) 
1971

>  <i_qp_#NandO>  (849) 
4

>  <i_qp_#acid>  (849) 
0

>  <i_qp_#amide>  (849) 
0

>  <i_qp_#amidine>  (849) 
0

>  <i_qp_#amine>  (849) 
1

>  <i_qp_#in34>  (849) 
0

>  <i_qp_#in56>  (849) 
17

>  <i_qp_#metab>  (849) 
6

>  <i_qp_#nonHatm>  (849) 
26

>  <i_qp_#noncon>  (849) 
0

>  <i_qp_#ringatoms>  (849) 
17

>  <i_qp_#rotor>  (849) 
8

>  <i_qp_#rtvFG>  (849) 
0

>  <i_qp_#stars>  (849) 
0

>  <i_qp_CNS>  (849) 
1

>  <i_qp_HumanOralAbsorption>  (849) 
3

>  <i_qp_RuleOfFive>  (849) 
0

>  <i_qp_RuleOfThree>  (849) 
0

>  <i_sd_BIOSOLVEIT.INFINISEE\_REAGENT1\_NAME>  (849) 
24792678

>  <i_sd_BIOSOLVEIT.INFINISEE\_REAGENT2\_NAME>  (849) 
24720692

>  <i_sd_BIOSOLVEIT.INFINISEE\_RESULT\_RANK>  (849) 
88757

>  <i_sd_version>  (849) 
0

>  <b_lp_Chiralities_Consistent>  (849) 
1

>  <b_sd_chiral_flag>  (849) 
0

>  <canonical_id>  (849) 
ATP-HTVS-86DDC209E59E

>  <compound_code>  (849) 
63042

>  <title>  (849) 
m_270004bbb____24792678____24720692

>  <variant>  (849) 
63042-1

>  <source_file>  (849) 
运行/运行/ATP-VSW/ATP-VSW-DOCK_HTVS_1-002_lib.maegz

>  <canonical_smiles>  (849) 
CCc1cc(C[NH2+]Cc2cn(C)nc2OCc2ccccc2)ccc1F

>  <scaffold>  (849) 
c1ccc(C[NH2+]Cc2c[nH]nc2OCc2ccccc2)cc1

>  <molecular_formula>  (849) 
C21H25FN3O+

$$$$
ATP-HTVS-87B93A696720
     RDKit          3D

 68 71  0  0  0  0  0  0  0  0999 V2000
  196.9021  179.4807  151.8129 O   0  0  0  0  0  0  0  0  0  0  0  0
  197.7907  179.5737  152.6606 C   0  0  0  0  0  0  0  0  0  0  0  0
  199.0320  179.0417  152.5614 N   0  0  0  0  0  0  0  0  0  0  0  0
  199.5737  178.2209  151.5255 C   0  0  0  0  0  0  0  0  0  0  0  0
  198.7759  177.5978  150.6262 N   0  0  0  0  0  0  0  0  0  0  0  0
  199.3102  176.8313  149.6534 C   0  0  0  0  0  0  0  0  0  0  0  0
  200.7065  176.6196  149.5513 C   0  0  0  0  0  0  0  0  0  0  0  0
  201.5496  177.2397  150.4915 C   0  0  0  0  0  0  0  0  0  0  0  0
  200.9853  178.0630  151.4980 C   0  0  0  0  0  0  0  0  0  0  0  0
  201.8388  178.7470  152.3998 N   0  0  0  0  0  0  0  0  0  0  0  0
  202.2870  177.9718  153.5632 C   0  0  1  0  0  0  0  0  0  0  0  0
  201.2941  178.0424  154.7432 C   0  0  0  0  0  0  0  0  0  0  0  0
  200.7923  179.1507  154.9681 O   0  0  0  0  0  0  0  0  0  0  0  0
  201.0203  176.9649  155.5177 N   0  0  0  0  0  0  0  0  0  0  0  0
  201.6332  175.7001  155.3187 C   0  0  0  0  0  0  0  0  0  0  0  0
  202.4823  175.1624  156.3112 C   0  0  0  0  0  0  0  0  0  0  0  0
  203.1266  173.9263  156.1110 C   0  0  0  0  0  0  0  0  0  0  0  0
  202.8753  173.1920  154.9374 C   0  0  0  0  0  0  0  0  0  0  0  0
  201.9971  173.7004  153.9585 C   0  0  0  0  0  0  0  0  0  0  0  0
  201.3638  174.9448  154.1595 C   0  0  0  0  0  0  0  0  0  0  0  0
  200.1254  177.1070  156.6702 C   0  0  2  0  0  0  0  0  0  0  0  0
  202.8708  179.5460  151.7385 C   0  0  2  0  0  0  0  0  0  0  0  0
  201.2591  175.8118  148.5339 C   0  0  0  0  0  0  0  0  0  0  0  0
  200.4106  175.2061  147.5947 C   0  0  0  0  0  0  0  0  0  0  0  0
  199.0236  175.4147  147.6752 C   0  0  0  0  0  0  0  0  0  0  0  0
  198.4808  176.2199  148.6933 C   0  0  0  0  0  0  0  0  0  0  0  0
  197.5584  180.4019  153.8925 C   0  0  0  0  0  0  0  0  0  0  0  0
  196.9895  181.6905  153.7928 C   0  0  0  0  0  0  0  0  0  0  0  0
  196.7994  182.4770  154.9452 C   0  0  0  0  0  0  0  0  0  0  0  0
  197.1539  181.9762  156.2143 C   0  0  0  0  0  0  0  0  0  0  0  0
  197.7133  180.6885  156.3219 C   0  0  0  0  0  0  0  0  0  0  0  0
  197.8737  179.8919  155.1710 C   0  0  0  0  0  0  0  0  0  0  0  0
  196.9126  182.8108  157.4644 C   0  0  1  0  0  0  0  0  0  0  0  0
  195.4664  183.0072  157.7506 N   0  0  1  0  0  0  0  0  0  0  0  0
  194.7492  181.7668  158.0953 C   0  0  2  0  0  0  0  0  0  0  0  0
  195.2379  184.0687  158.7595 C   0  0  2  0  0  0  0  0  0  0  0  0
  199.6889  179.2859  153.2908 H   0  0  0  0  0  0  0  0  0  0  0  0
  202.6139  177.0882  150.4248 H   0  0  0  0  0  0  0  0  0  0  0  0
  202.5899  176.9771  153.2386 H   0  0  0  0  0  0  0  0  0  0  0  0
  203.1954  178.4275  153.9624 H   0  0  0  0  0  0  0  0  0  0  0  0
  202.6817  175.7210  157.2103 H   0  0  0  0  0  0  0  0  0  0  0  0
  203.7950  173.5351  156.8677 H   0  0  0  0  0  0  0  0  0  0  0  0
  203.3547  172.2392  154.7841 H   0  0  0  0  0  0  0  0  0  0  0  0
  201.8091  173.1378  153.0547 H   0  0  0  0  0  0  0  0  0  0  0  0
  200.6969  175.3337  153.4017 H   0  0  0  0  0  0  0  0  0  0  0  0
  200.1547  176.2442  157.3264 H   0  0  0  0  0  0  0  0  0  0  0  0
  199.0927  177.2010  156.3375 H   0  0  0  0  0  0  0  0  0  0  0  0
  200.3679  177.9858  157.2714 H   0  0  0  0  0  0  0  0  0  0  0  0
  202.4518  180.1457  150.9221 H   0  0  0  0  0  0  0  0  0  0  0  0
  203.6635  178.9121  151.3297 H   0  0  0  0  0  0  0  0  0  0  0  0
  203.3388  180.2344  152.4476 H   0  0  0  0  0  0  0  0  0  0  0  0
  202.3273  175.6565  148.4631 H   0  0  0  0  0  0  0  0  0  0  0  0
  200.8154  174.5767  146.8150 H   0  0  0  0  0  0  0  0  0  0  0  0
  198.3664  174.9455  146.9591 H   0  0  0  0  0  0  0  0  0  0  0  0
  197.4141  176.3611  148.7412 H   0  0  0  0  0  0  0  0  0  0  0  0
  196.6951  182.0768  152.8271 H   0  0  0  0  0  0  0  0  0  0  0  0
  196.3564  183.4578  154.8464 H   0  0  0  0  0  0  0  0  0  0  0  0
  197.9803  180.2764  157.2849 H   0  0  0  0  0  0  0  0  0  0  0  0
  198.2320  178.8831  155.2798 H   0  0  0  0  0  0  0  0  0  0  0  0
  197.3957  182.3562  158.3312 H   0  0  0  0  0  0  0  0  0  0  0  0
  197.3946  183.7781  157.3126 H   0  0  0  0  0  0  0  0  0  0  0  0
  195.1716  181.2793  158.9770 H   0  0  0  0  0  0  0  0  0  0  0  0
  194.7863  181.0750  157.2543 H   0  0  0  0  0  0  0  0  0  0  0  0
  193.6916  181.9709  158.2850 H   0  0  0  0  0  0  0  0  0  0  0  0
  195.6569  183.7812  159.7248 H   0  0  0  0  0  0  0  0  0  0  0  0
  194.1701  184.2515  158.8965 H   0  0  0  0  0  0  0  0  0  0  0  0
  195.6964  185.0107  158.4588 H   0  0  0  0  0  0  0  0  0  0  0  0
  195.0186  183.2881  156.8855 H   0  0  0  0  0  0  0  0  0  0  0  0
  1  2  2  0
  2  3  1  0
  2 27  1  0
  3  4  1  0
  3 37  1  0
  4  5  2  0
  4  9  1  0
  5  6  1  0
  6  7  1  0
  6 26  2  0
  7  8  1  0
  7 23  2  0
  8  9  2  0
  8 38  1  0
  9 10  1  0
 10 11  1  0
 10 22  1  0
 11 12  1  0
 11 39  1  6
 11 40  1  0
 12 13  2  0
 12 14  1  0
 14 15  1  0
 14 21  1  0
 15 16  2  0
 15 20  1  0
 16 17  1  0
 16 41  1  0
 17 18  2  0
 17 42  1  0
 18 19  1  0
 18 43  1  0
 19 20  2  0
 19 44  1  0
 20 45  1  0
 21 46  1  1
 21 47  1  0
 21 48  1  0
 22 49  1  6
 22 50  1  0
 22 51  1  0
 23 24  1  0
 23 52  1  0
 24 25  2  0
 24 53  1  0
 25 26  1  0
 25 54  1  0
 26 55  1  0
 27 28  1  0
 27 32  2  0
 28 29  2  0
 28 56  1  0
 29 30  1  0
 29 57  1  0
 30 31  2  0
 30 33  1  0
 31 32  1  0
 31 58  1  0
 32 59  1  0
 33 34  1  0
 33 60  1  1
 33 61  1  0
 34 35  1  0
 34 36  1  0
 34 68  1  6
 35 62  1  1
 35 63  1  0
 35 64  1  0
 36 65  1  1
 36 66  1  0
 36 67  1  0
M  CHG  1  34   1
M  END
>  <s_epik_cmdline>  (850) 
J2VwaWtfcHl0aG9uJywgJy1waCcsICc3LjAwMDAwMCcsICctcGh0JywgJzIuMDAwMDAwJywgJy1tcycsICcxNicsICctdG4nLCAnOCcsICctbWEnLCAnMjAwJywgJy1pbWFlJywgJzxpbmZpbGUubWFlPicsICctb21hZScsICc8b3V0ZmlsZS5tYWU+Jw==

>  <s_epik_input>  (850) 
W0NIM11OKFtDSDNdKVtDSDJdYyhbY0hdW2NIXTEpW2NIXVtjSF1jMUMoPU8pW05IXWMobjIpYyhbY0hdYyhjMjMpW2NIXVtjSF1bY0hdW2NIXTMpTihbQ0gzXSlbQ0gyXUMoPU8pTihbQ0gzXSljNFtjSF1bY0hdW2NIXVtjSF1bY0hdNA==

>  <s_i_glide_gridfile>  (850) 
ATP-Grid

>  <s_lp_Force_Field>  (850) 
OPLS_2005

>  <s_lp_Variant>  (850) 
rxn502b____EMOL18624763____EMOL44466703____EMOL6255027-1

>  <s_lp_label>  (850) 
2430_sdstereoexpander_1_neutralizer_1_epik_1_stereoizer_1

>  <s_m_source_file>  (850) 
ATP-VSW-LIGPREP-002-in.maegz

>  <s_sd_BIOSOLVEIT.INFINISEE\_QUERY\_NAME>  (850) 
Ref-Lig

>  <s_sd_BIOSOLVEIT.INFINISEE\_QUERY\_SMILES>  (850) 
S(c1nc2c(cc1C[NH2+]Cc3ccc(cc3)C[NH+](C)C)cccc2)Cc4ccccc4

>  <s_sd_BIOSOLVEIT.INFINISEE\_REACTION\_NAME>  (850) 
rxn502b

>  <s_sd_BIOSOLVEIT.INFINISEE\_REAGENT1\_NAME>  (850) 
EMOL18624763

>  <s_sd_BIOSOLVEIT.INFINISEE\_REAGENT1\_SMILES>  (850) 
O=C(O)c1ccc(cc1)CN(C)C

>  <s_sd_BIOSOLVEIT.INFINISEE\_REAGENT2\_NAME>  (850) 
EMOL44466703

>  <s_sd_BIOSOLVEIT.INFINISEE\_REAGENT2\_SMILES>  (850) 
Brc1c(nc2c(c1)cccc2)N

>  <s_sd_BIOSOLVEIT.INFINISEE\_REAGENT3\_NAME>  (850) 
EMOL6255027

>  <s_sd_BIOSOLVEIT.INFINISEE\_REAGENT3\_SMILES>  (850) 
O=C(N(c1ccccc1)C)CNC

>  <s_sd_BIOSOLVEIT.INFINISEE\_SPACE>  (850) 
eXplore_7tr_2022-12

>  <s_vsw_compound_code>  (850) 
77730

>  <s_vsw_variant>  (850) 
77730-1

>  <r_epik_Charging_Adjusted_Penalty>  (850) 
0.10433640840748

>  <r_epik_Ionization_Penalty>  (850) 
0.052200000000000003

>  <r_epik_Ionization_Penalty_Charging>  (850) 
0.052200000000000003

>  <r_epik_Ionization_Penalty_Neutral>  (850) 
0

>  <r_epik_State_Penalty>  (850) 
0.052200000000000003

>  <r_i_docking_score>  (850) 
-4.12205411178146

>  <r_i_glide_ecoul>  (850) 
-6.3321604728698704

>  <r_i_glide_eff_state_penalty>  (850) 
0.052200000000000003

>  <r_i_glide_einternal>  (850) 
4.5121006965637198

>  <r_i_glide_emodel>  (850) 
-58.187922040474803

>  <r_i_glide_energy>  (850) 
-44.287761211395299

>  <r_i_glide_erotb>  (850) 
0.69711388987108902

>  <r_i_glide_esite>  (850) 
-0.070285251292064505

>  <r_i_glide_evdw>  (850) 
-37.955600738525398

>  <r_i_glide_gscore>  (850) 
-4.17425411178146

>  <r_i_glide_hbond>  (850) 
-0.18272681179424399

>  <r_i_glide_ligand_efficiency>  (850) 
-0.11450150310504099

>  <r_i_glide_ligand_efficiency_ln>  (850) 
-0.89932084215843

>  <r_i_glide_ligand_efficiency_sa>  (850) 
-0.37807563269031202

>  <r_i_glide_lipo>  (850) 
-1.45464047138847

>  <r_i_glide_metal>  (850) 
-0

>  <r_i_glide_rewards>  (850) 
-0.31611135932101703

>  <r_lp_Energy>  (850) 
50.882775000000002

>  <r_qp_ACxDN^.5/SA>  (850) 
0.012312699999999999

>  <r_qp_CIQPlogS>  (850) 
-5.4429999999999996

>  <r_qp_EA(eV)>  (850) 
0.749

>  <r_qp_FISA>  (850) 
71.939999999999998

>  <r_qp_FOSA>  (850) 
322.36099999999999

>  <r_qp_IP(eV)>  (850) 
8.5679999999999996

>  <r_qp_Jm>  (850) 
0.050168075314161703

>  <r_qp_PISA>  (850) 
377.25999999999999

>  <r_qp_PSA>  (850) 
76.308000000000007

>  <r_qp_PercentHumanOralAbsorption>  (850) 
100

>  <r_qp_QPPCaco>  (850) 
513.56399999999996

>  <r_qp_QPPMDCK>  (850) 
266.32799999999997

>  <r_qp_QPlogBB>  (850) 
-0.23000000000000001

>  <r_qp_QPlogHERG>  (850) 
-6.9420000000000002

>  <r_qp_QPlogKhsa>  (850) 
0.44400000000000001

>  <r_qp_QPlogKp>  (850) 
-2.8109999999999999

>  <r_qp_QPlogPC16>  (850) 
15.477

>  <r_qp_QPlogPo/w>  (850) 
4.1239999999999997

>  <r_qp_QPlogPoct>  (850) 
24.545000000000002

>  <r_qp_QPlogPw>  (850) 
13.689

>  <r_qp_QPlogS>  (850) 
-4.1710000000000003

>  <r_qp_QPpolrz>  (850) 
52.383000000000003

>  <r_qp_SASA>  (850) 
771.56100000000004

>  <r_qp_SAamideO>  (850) 
0

>  <r_qp_SAfluorine>  (850) 
0

>  <r_qp_WPSA>  (850) 
0

>  <r_qp_accptHB>  (850) 
9.5

>  <r_qp_dip^2/V>  (850) 
0.0383381

>  <r_qp_dipole>  (850) 
7.5860000000000003

>  <r_qp_donorHB>  (850) 
1

>  <r_qp_glob>  (850) 
0.82171320000000003

>  <r_qp_mol_MW>  (850) 
481.596

>  <r_qp_volume>  (850) 
1501.0260000000001

>  <r_sd_BIOSOLVEIT.INFINISEE\_FTREES\_SIMILARITY>  (850) 
0.91700000000000004

>  <r_sd_BIOSOLVEIT.LOGP>  (850) 
3.2307999999999999

>  <r_sd_BIOSOLVEIT.MOLECULAR\_WEIGHT>  (850) 
482.60500000000002

>  <r_sd_BIOSOLVEIT.TPSA>  (850) 
69.980000000000004

>  <i_epik_Tot_Q>  (850) 
1

>  <i_epik_Tot_abs_Q>  (850) 
1

>  <i_f3d_flags>  (850) 
0

>  <i_i_glide_confnum>  (850) 
11

>  <i_i_glide_lignum>  (850) 
1043

>  <i_i_glide_posenum>  (850) 
9

>  <i_i_glide_rotatable_bonds>  (850) 
10

>  <i_lp_mmshare_version>  (850) 
65135

>  <i_m_ct_format>  (850) 
2

>  <i_m_source_file_index>  (850) 
2430

>  <i_qp_#NandO>  (850) 
7

>  <i_qp_#acid>  (850) 
0

>  <i_qp_#amide>  (850) 
0

>  <i_qp_#amidine>  (850) 
0

>  <i_qp_#amine>  (850) 
1

>  <i_qp_#in34>  (850) 
0

>  <i_qp_#in56>  (850) 
22

>  <i_qp_#metab>  (850) 
5

>  <i_qp_#nonHatm>  (850) 
36

>  <i_qp_#noncon>  (850) 
0

>  <i_qp_#ringatoms>  (850) 
22

>  <i_qp_#rotor>  (850) 
8

>  <i_qp_#rtvFG>  (850) 
0

>  <i_qp_#stars>  (850) 
0

>  <i_qp_CNS>  (850) 
1

>  <i_qp_HumanOralAbsorption>  (850) 
3

>  <i_qp_RuleOfFive>  (850) 
0

>  <i_qp_RuleOfThree>  (850) 
0

>  <i_sd_BIOSOLVEIT.INFINISEE\_RESULT\_RANK>  (850) 
23194

>  <i_sd_version>  (850) 
0

>  <b_lp_Chiralities_Consistent>  (850) 
1

>  <b_sd_chiral_flag>  (850) 
0

>  <canonical_id>  (850) 
ATP-HTVS-87B93A696720

>  <compound_code>  (850) 
77730

>  <title>  (850) 
rxn502b____EMOL18624763____EMOL44466703____EMOL6255027

>  <variant>  (850) 
77730-1

>  <source_file>  (850) 
运行/运行/ATP-VSW/ATP-VSW-DOCK_HTVS_1-002_lib.maegz

>  <canonical_smiles>  (850) 
CN(CC(=O)N(C)c1ccccc1)c1cc2ccccc2nc1NC(=O)c1ccc(C[NH+](C)C)cc1

>  <scaffold>  (850) 
O=C(CNc1cc2ccccc2nc1NC(=O)c1ccccc1)Nc1ccccc1

>  <molecular_formula>  (850) 
C29H32N5O2+

$$$$
ATP-HTVS-87F6BDFAEB44
     RDKit          3D

 59 62  0  0  0  0  0  0  0  0999 V2000
  203.7868  173.3483  153.7723 F   0  0  0  0  0  0  0  0  0  0  0  0
  203.1293  174.4033  154.3080 C   0  0  0  0  0  0  0  0  0  0  0  0
  203.7634  175.6519  154.3690 C   0  0  0  0  0  0  0  0  0  0  0  0
  203.0845  176.7586  154.9251 C   0  0  0  0  0  0  0  0  0  0  0  0
  201.7780  176.6320  155.4421 C   0  0  0  0  0  0  0  0  0  0  0  0
  201.1481  175.3655  155.3661 C   0  0  0  0  0  0  0  0  0  0  0  0
  201.8208  174.2567  154.8037 C   0  0  0  0  0  0  0  0  0  0  0  0
  201.0534  177.8427  156.0639 C   0  0  1  0  0  0  0  0  0  0  0  0
  201.5464  178.0600  157.4640 N   0  0  2  0  0  0  0  0  0  0  0  0
  200.7475  177.3158  158.4644 C   0  0  2  0  0  0  0  0  0  0  0  0
  201.6968  179.4718  157.8926 C   0  0  2  0  0  0  0  0  0  0  0  0
  201.1475  179.0925  155.1338 C   0  0  1  0  0  0  0  0  0  0  0  0
  200.2183  179.0086  154.0273 N   0  0  0  0  0  0  0  0  0  0  0  0
  198.9615  179.5992  154.0012 C   0  0  0  0  0  0  0  0  0  0  0  0
  198.2517  179.6480  152.8451 C   0  0  0  0  0  0  0  0  0  0  0  0
  196.9439  180.3142  152.8228 C   0  0  0  0  0  0  0  0  0  0  0  0
  196.4528  180.9082  153.9799 N   0  0  0  0  0  0  0  0  0  0  0  0
  197.1892  180.8654  155.1517 C   0  0  0  0  0  0  0  0  0  0  0  0
  198.3737  180.2184  155.1970 C   0  0  0  0  0  0  0  0  0  0  0  0
  196.5470  181.5248  156.3600 C   0  0  1  0  0  0  0  0  0  0  0  0
  196.9831  182.8664  156.5223 O   0  0  0  0  0  0  0  0  0  0  0  0
  196.5563  183.4984  157.6673 C   0  0  0  0  0  0  0  0  0  0  0  0
  195.2618  183.3104  158.2390 C   0  0  0  0  0  0  0  0  0  0  0  0
  194.9118  183.9763  159.4282 C   0  0  0  0  0  0  0  0  0  0  0  0
  195.8281  184.8330  160.0590 C   0  0  0  0  0  0  0  0  0  0  0  0
  197.0938  185.0477  159.4831 C   0  0  0  0  0  0  0  0  0  0  0  0
  197.4405  184.3934  158.2819 C   0  0  0  0  0  0  0  0  0  0  0  0
  196.2335  180.3631  151.6767 C   0  0  0  0  0  0  0  0  0  0  0  0
  196.7323  179.7730  150.4212 C   0  0  0  0  0  0  0  0  0  0  0  0
  196.0613  179.8121  149.3930 O   0  0  0  0  0  0  0  0  0  0  0  0
  198.0555  179.1284  150.4527 C   0  0  0  0  0  0  0  0  0  0  0  0
  198.7562  179.0733  151.5993 C   0  0  0  0  0  0  0  0  0  0  0  0
  204.7650  175.7722  153.9881 H   0  0  0  0  0  0  0  0  0  0  0  0
  203.6211  177.6926  154.9788 H   0  0  0  0  0  0  0  0  0  0  0  0
  200.1369  175.2431  155.7230 H   0  0  0  0  0  0  0  0  0  0  0  0
  201.3364  173.2928  154.7431 H   0  0  0  0  0  0  0  0  0  0  0  0
  199.9903  177.5854  156.1375 H   0  0  0  0  0  0  0  0  0  0  0  0
  199.7074  177.6442  158.4723 H   0  0  0  0  0  0  0  0  0  0  0  0
  201.1364  177.4761  159.4704 H   0  0  0  0  0  0  0  0  0  0  0  0
  200.7516  176.2460  158.2588 H   0  0  0  0  0  0  0  0  0  0  0  0
  200.7494  180.0044  157.8105 H   0  0  0  0  0  0  0  0  0  0  0  0
  202.4568  179.9674  157.2912 H   0  0  0  0  0  0  0  0  0  0  0  0
  202.0215  179.5526  158.9350 H   0  0  0  0  0  0  0  0  0  0  0  0
  200.9027  180.0363  155.6123 H   0  0  0  0  0  0  0  0  0  0  0  0
  202.1547  179.2403  154.7542 H   0  0  0  0  0  0  0  0  0  0  0  0
  200.6422  178.7920  153.1341 H   0  0  0  0  0  0  0  0  0  0  0  0
  198.8689  180.1824  156.1564 H   0  0  0  0  0  0  0  0  0  0  0  0
  195.4582  181.4486  156.2761 H   0  0  0  0  0  0  0  0  0  0  0  0
  196.8426  181.0008  157.2660 H   0  0  0  0  0  0  0  0  0  0  0  0
  194.5250  182.6822  157.7696 H   0  0  0  0  0  0  0  0  0  0  0  0
  193.9340  183.8344  159.8522 H   0  0  0  0  0  0  0  0  0  0  0  0
  195.5645  185.3353  160.9740 H   0  0  0  0  0  0  0  0  0  0  0  0
  197.8055  185.7084  159.9660 H   0  0  0  0  0  0  0  0  0  0  0  0
  198.4188  184.5590  157.8358 H   0  0  0  0  0  0  0  0  0  0  0  0
  195.2734  180.8497  151.6518 H   0  0  0  0  0  0  0  0  0  0  0  0
  198.4449  178.6987  149.5408 H   0  0  0  0  0  0  0  0  0  0  0  0
  199.7146  178.5816  151.5691 H   0  0  0  0  0  0  0  0  0  0  0  0
  195.5578  181.3864  153.9936 H   0  0  0  0  0  0  0  0  0  0  0  0
  202.5016  177.6929  157.4761 H   0  0  0  0  0  0  0  0  0  0  0  0
  1  2  1  0
  2  3  1  0
  2  7  2  0
  3  4  2  0
  3 33  1  0
  4  5  1  0
  4 34  1  0
  5  6  2  0
  5  8  1  0
  6  7  1  0
  6 35  1  0
  7 36  1  0
  8  9  1  0
  8 12  1  0
  8 37  1  1
  9 10  1  0
  9 11  1  0
  9 59  1  6
 10 38  1  1
 10 39  1  0
 10 40  1  0
 11 41  1  1
 11 42  1  0
 11 43  1  0
 12 13  1  0
 12 44  1  1
 12 45  1  0
 13 14  1  0
 13 46  1  0
 14 15  2  0
 14 19  1  0
 15 16  1  0
 15 32  1  0
 16 17  1  0
 16 28  2  0
 17 18  1  0
 17 58  1  0
 18 19  2  0
 18 20  1  0
 19 47  1  0
 20 21  1  0
 20 48  1  6
 20 49  1  0
 21 22  1  0
 22 23  2  0
 22 27  1  0
 23 24  1  0
 23 50  1  0
 24 25  2  0
 24 51  1  0
 25 26  1  0
 25 52  1  0
 26 27  2  0
 26 53  1  0
 27 54  1  0
 28 29  1  0
 28 55  1  0
 29 30  2  0
 29 31  1  0
 31 32  2  0
 31 56  1  0
 32 57  1  0
M  CHG  1   9   1
M  END
>  <s_epik_cmdline>  (851) 
J2VwaWtfcHl0aG9uJywgJy1waCcsICc3LjAwMDAwMCcsICctcGh0JywgJzIuMDAwMDAwJywgJy1tcycsICcxNicsICctdG4nLCAnOCcsICctbWEnLCAnMjAwJywgJy1pbWFlJywgJzxpbmZpbGUubWFlPicsICctb21hZScsICc8b3V0ZmlsZS5tYWU+Jw==

>  <s_epik_input>  (851) 
RmMxW2NIXVtjSF1jKFtjSF1bY0hdMSlbQ0BASF0oTihbQ0gzXSlbQ0gzXSlbQ0gyXVtOSF1jMltjSF1jKG5jKGMyMylbY0hdYyhbT0hdKVtjSF1bY0hdMylbQ0gyXU9jNFtjSF1bY0hdW2NIXVtjSF1bY0hdNA==

>  <s_i_glide_gridfile>  (851) 
ATP-Grid

>  <s_lp_Force_Field>  (851) 
OPLS_2005

>  <s_lp_Variant>  (851) 
YAS_R004____OTV1106784____OTV7113231893____OTV7020431351-1

>  <s_lp_label>  (851) 
15_sdstereoexpander_1_neutralizer_1_epik_1_stereoizer_1

>  <s_m_source_file>  (851) 
ATP-VSW-LIGPREP-003-in.maegz

>  <s_sd_BIOSOLVEIT.INFINISEE\_QUERY\_NAME>  (851) 
Ref-Lig

>  <s_sd_BIOSOLVEIT.INFINISEE\_QUERY\_SMILES>  (851) 
S(c1nc2c(cc1C[NH2+]Cc3ccc(cc3)C[NH+](C)C)cccc2)Cc4ccccc4

>  <s_sd_BIOSOLVEIT.INFINISEE\_REACTION\_NAME>  (851) 
YAS_R004

>  <s_sd_BIOSOLVEIT.INFINISEE\_REAGENT1\_NAME>  (851) 
OTV1106784

>  <s_sd_BIOSOLVEIT.INFINISEE\_REAGENT1\_SMILES>  (851) 
Oc1cc(N)ccc1

>  <s_sd_BIOSOLVEIT.INFINISEE\_REAGENT2\_NAME>  (851) 
OTV7113231893

>  <s_sd_BIOSOLVEIT.INFINISEE\_REAGENT2\_SMILES>  (851) 
O=C(O)COc1ccccc1

>  <s_sd_BIOSOLVEIT.INFINISEE\_REAGENT3\_NAME>  (851) 
OTV7020431351

>  <s_sd_BIOSOLVEIT.INFINISEE\_REAGENT3\_SMILES>  (851) 
Fc1ccc(cc1)C(N(C)C)CN

>  <s_sd_BIOSOLVEIT.INFINISEE\_SPACE>  (851) 
CHEMriya_12bn_2022-01

>  <s_vsw_compound_code>  (851) 
451

>  <s_vsw_variant>  (851) 
451-1

>  <r_epik_Charging_Adjusted_Penalty>  (851) 
0.0931929532197769

>  <r_epik_Ionization_Penalty>  (851) 
0.049000000000000002

>  <r_epik_Ionization_Penalty_Charging>  (851) 
0.049000000000000002

>  <r_epik_Ionization_Penalty_Neutral>  (851) 
0

>  <r_epik_State_Penalty>  (851) 
0.044200000000000003

>  <r_i_docking_score>  (851) 
-5.1129145658550703

>  <r_i_glide_ecoul>  (851) 
-9.3433933258056605

>  <r_i_glide_eff_state_penalty>  (851) 
0.044200000000000003

>  <r_i_glide_einternal>  (851) 
10.114011764526399

>  <r_i_glide_emodel>  (851) 
-60.149098800886698

>  <r_i_glide_energy>  (851) 
-46.496797561645501

>  <r_i_glide_erotb>  (851) 
0.63825411966668699

>  <r_i_glide_esite>  (851) 
-0.094555659650888899

>  <r_i_glide_evdw>  (851) 
-37.153404235839801

>  <r_i_glide_gscore>  (851) 
-5.1571145658550703

>  <r_i_glide_hbond>  (851) 
0

>  <r_i_glide_ligand_efficiency>  (851) 
-0.159778580182971

>  <r_i_glide_ligand_efficiency_ln>  (851) 
-1.1449209440821599

>  <r_i_glide_ligand_efficiency_sa>  (851) 
-0.50726537194285004

>  <r_i_glide_lipo>  (851) 
-1.75647392657166

>  <r_i_glide_metal>  (851) 
-0

>  <r_i_glide_rewards>  (851) 
-0.68515988863636201

>  <r_lp_Energy>  (851) 
30.422236000000002

>  <r_lp_tautomer_probability>  (851) 
1

>  <r_qp_ACxDN^.5/SA>  (851) 
0.0131401

>  <r_qp_CIQPlogS>  (851) 
-5.6989999999999998

>  <r_qp_EA(eV)>  (851) 
0.78300000000000003

>  <r_qp_FISA>  (851) 
79.489999999999995

>  <r_qp_FOSA>  (851) 
211.965

>  <r_qp_IP(eV)>  (851) 
7.8079999999999998

>  <r_qp_Jm>  (851) 
0.051859207129777499

>  <r_qp_PISA>  (851) 
342.63200000000001

>  <r_qp_PSA>  (851) 
63.085000000000001

>  <r_qp_PercentHumanOralAbsorption>  (851) 
100

>  <r_qp_QPPCaco>  (851) 
435.51299999999998

>  <r_qp_QPPMDCK>  (851) 
362.52800000000002

>  <r_qp_QPlogBB>  (851) 
-0.14599999999999999

>  <r_qp_QPlogHERG>  (851) 
-6.1970000000000001

>  <r_qp_QPlogKhsa>  (851) 
0.58799999999999997

>  <r_qp_QPlogKp>  (851) 
-3.0720000000000001

>  <r_qp_QPlogPC16>  (851) 
13.470000000000001

>  <r_qp_QPlogPo/w>  (851) 
4.2039999999999997

>  <r_qp_QPlogPoct>  (851) 
22.213999999999999

>  <r_qp_QPlogPw>  (851) 
11.542999999999999

>  <r_qp_QPlogS>  (851) 
-3.8479999999999999

>  <r_qp_QPpolrz>  (851) 
44.113

>  <r_qp_SASA>  (851) 
672.65999999999997

>  <r_qp_SAamideO>  (851) 
0

>  <r_qp_SAfluorine>  (851) 
38.573999999999998

>  <r_qp_WPSA>  (851) 
38.573999999999998

>  <r_qp_accptHB>  (851) 
6.25

>  <r_qp_dip^2/V>  (851) 
0.084176000000000001

>  <r_qp_dipole>  (851) 
10.471

>  <r_qp_donorHB>  (851) 
2

>  <r_qp_glob>  (851) 
0.8575334

>  <r_qp_mol_MW>  (851) 
431.50900000000001

>  <r_qp_volume>  (851) 
1302.634

>  <r_sd_BIOSOLVEIT.INFINISEE\_FTREES\_SIMILARITY>  (851) 
0.93400000000000005

>  <r_sd_BIOSOLVEIT.LOGP>  (851) 
3.9561999999999999

>  <r_sd_BIOSOLVEIT.MOLECULAR\_WEIGHT>  (851) 
432.51600000000002

>  <r_sd_BIOSOLVEIT.TPSA>  (851) 
58.82

>  <i_epik_Tot_Q>  (851) 
1

>  <i_epik_Tot_abs_Q>  (851) 
1

>  <i_f3d_flags>  (851) 
0

>  <i_i_glide_confnum>  (851) 
5

>  <i_i_glide_lignum>  (851) 
157

>  <i_i_glide_posenum>  (851) 
16

>  <i_i_glide_rotatable_bonds>  (851) 
8

>  <i_lp_mmshare_version>  (851) 
65135

>  <i_m_ct_format>  (851) 
2

>  <i_m_source_file_index>  (851) 
15

>  <i_qp_#NandO>  (851) 
5

>  <i_qp_#acid>  (851) 
0

>  <i_qp_#amide>  (851) 
0

>  <i_qp_#amidine>  (851) 
0

>  <i_qp_#amine>  (851) 
1

>  <i_qp_#in34>  (851) 
0

>  <i_qp_#in56>  (851) 
22

>  <i_qp_#metab>  (851) 
8

>  <i_qp_#nonHatm>  (851) 
32

>  <i_qp_#noncon>  (851) 
0

>  <i_qp_#ringatoms>  (851) 
22

>  <i_qp_#rotor>  (851) 
8

>  <i_qp_#rtvFG>  (851) 
0

>  <i_qp_#stars>  (851) 
1

>  <i_qp_CNS>  (851) 
1

>  <i_qp_HumanOralAbsorption>  (851) 
3

>  <i_qp_RuleOfFive>  (851) 
0

>  <i_qp_RuleOfThree>  (851) 
1

>  <i_sd_BIOSOLVEIT.INFINISEE\_RESULT\_RANK>  (851) 
3204

>  <i_sd_version>  (851) 
0

>  <b_lp_Chiralities_Consistent>  (851) 
1

>  <b_sd_chiral_flag>  (851) 
0

>  <canonical_id>  (851) 
ATP-HTVS-87F6BDFAEB44

>  <compound_code>  (851) 
451

>  <title>  (851) 
YAS_R004____OTV1106784____OTV7113231893____OTV7020431351

>  <variant>  (851) 
451-1

>  <source_file>  (851) 
运行/运行/ATP-VSW/ATP-VSW-DOCK_HTVS_1-003_lib/ATP-VSW-DOCK_HTVS_1-003_lib.mae

>  <canonical_smiles>  (851) 
C[NH+](C)[C@@H](CNc1cc(COc2ccccc2)[nH]c2cc(=O)ccc1-2)c1ccc(F)cc1

>  <scaffold>  (851) 
O=c1ccc2c(NCCc3ccccc3)cc(COc3ccccc3)[nH]c-2c1

>  <molecular_formula>  (851) 
C26H27FN3O2+

$$$$
ATP-HTVS-8843DC2573F9
     RDKit          3D

 64 67  0  0  0  0  0  0  0  0999 V2000
  196.2200  179.4393  150.9997 F   0  0  0  0  0  0  0  0  0  0  0  0
  197.1138  179.4263  152.0239 C   0  0  0  0  0  0  0  0  0  0  0  0
  196.7312  179.9156  153.2818 C   0  0  0  0  0  0  0  0  0  0  0  0
  197.6170  179.8378  154.3784 C   0  0  0  0  0  0  0  0  0  0  0  0
  198.9425  179.3917  154.1917 C   0  0  0  0  0  0  0  0  0  0  0  0
  199.3219  178.9024  152.9180 C   0  0  0  0  0  0  0  0  0  0  0  0
  198.4062  178.9052  151.8387 C   0  0  0  0  0  0  0  0  0  0  0  0
  199.9521  179.4156  155.3595 C   0  0  2  0  0  0  0  0  0  0  0  0
  199.5843  178.4458  156.4395 N   0  0  1  0  0  0  0  0  0  0  0  0
  199.5081  177.0558  155.9426 C   0  0  2  0  0  0  0  0  0  0  0  0
  200.4517  178.5053  157.6336 C   0  0  2  0  0  0  0  0  0  0  0  0
  200.2647  180.8511  155.8514 C   0  0  1  0  0  0  0  0  0  0  0  0
  199.1160  181.4967  156.5119 N   0  0  0  0  0  0  0  0  0  0  0  0
  198.5087  182.5935  156.0675 C   0  0  0  0  0  0  0  0  0  0  0  0
  198.8202  183.1338  155.0016 O   0  0  0  0  0  0  0  0  0  0  0  0
  197.5216  183.1215  157.0269 C   0  0  0  0  0  0  0  0  0  0  0  0
  197.5361  184.4826  157.3980 N   0  0  0  0  0  0  0  0  0  0  0  0
  196.6244  184.9686  158.3874 C   0  0  0  0  0  0  0  0  0  0  0  0
  195.6686  184.0743  158.9373 C   0  0  0  0  0  0  0  0  0  0  0  0
  194.7388  184.5243  159.9072 C   0  0  0  0  0  0  0  0  0  0  0  0
  194.7571  185.8551  160.3457 C   0  0  0  0  0  0  0  0  0  0  0  0
  195.6950  186.7536  159.8184 C   0  0  0  0  0  0  0  0  0  0  0  0
  196.6265  186.3105  158.8533 C   0  0  0  0  0  0  0  0  0  0  0  0
  195.6134  182.6556  158.5201 C   0  0  0  0  0  0  0  0  0  0  0  0
  194.8026  181.8533  158.9813 O   0  0  0  0  0  0  0  0  0  0  0  0
  196.6225  182.2418  157.5367 C   0  0  0  0  0  0  0  0  0  0  0  0
  198.4850  185.4833  156.8602 C   0  0  1  0  0  0  0  0  0  0  0  0
  197.8571  186.4887  155.8569 C   0  0  2  0  0  0  0  0  0  0  0  0
  197.5262  185.8381  154.6475 O   0  0  0  0  0  0  0  0  0  0  0  0
  198.7887  187.6713  155.6286 C   0  0  0  0  0  0  0  0  0  0  0  0
  199.7502  187.6512  154.5973 C   0  0  0  0  0  0  0  0  0  0  0  0
  200.6006  188.7553  154.3998 C   0  0  0  0  0  0  0  0  0  0  0  0
  200.5048  189.8795  155.2441 C   0  0  0  0  0  0  0  0  0  0  0  0
  199.5559  189.8989  156.2827 C   0  0  0  0  0  0  0  0  0  0  0  0
  198.7017  188.7984  156.4764 C   0  0  0  0  0  0  0  0  0  0  0  0
  195.7528  180.3282  153.4402 H   0  0  0  0  0  0  0  0  0  0  0  0
  197.2419  180.1549  155.3350 H   0  0  0  0  0  0  0  0  0  0  0  0
  200.3163  178.5103  152.7496 H   0  0  0  0  0  0  0  0  0  0  0  0
  198.6877  178.5088  150.8722 H   0  0  0  0  0  0  0  0  0  0  0  0
  200.9078  179.0661  154.9528 H   0  0  0  0  0  0  0  0  0  0  0  0
  200.4648  176.7097  155.5423 H   0  0  0  0  0  0  0  0  0  0  0  0
  198.7544  176.9628  155.1626 H   0  0  0  0  0  0  0  0  0  0  0  0
  199.2135  176.3886  156.7504 H   0  0  0  0  0  0  0  0  0  0  0  0
  201.5022  178.3575  157.3687 H   0  0  0  0  0  0  0  0  0  0  0  0
  200.1750  177.7397  158.3607 H   0  0  0  0  0  0  0  0  0  0  0  0
  200.3581  179.4622  158.1311 H   0  0  0  0  0  0  0  0  0  0  0  0
  201.1069  180.8796  156.5410 H   0  0  0  0  0  0  0  0  0  0  0  0
  200.6300  181.4293  155.0016 H   0  0  0  0  0  0  0  0  0  0  0  0
  198.7637  181.1021  157.3723 H   0  0  0  0  0  0  0  0  0  0  0  0
  194.0055  183.8466  160.3006 H   0  0  0  0  0  0  0  0  0  0  0  0
  194.0315  186.1978  161.0748 H   0  0  0  0  0  0  0  0  0  0  0  0
  195.7035  187.7868  160.1305 H   0  0  0  0  0  0  0  0  0  0  0  0
  197.3132  187.0519  158.4893 H   0  0  0  0  0  0  0  0  0  0  0  0
  196.5911  181.2012  157.2518 H   0  0  0  0  0  0  0  0  0  0  0  0
  198.9490  185.9994  157.7014 H   0  0  0  0  0  0  0  0  0  0  0  0
  199.3626  185.0424  156.3932 H   0  0  0  0  0  0  0  0  0  0  0  0
  196.9072  186.8820  156.2336 H   0  0  0  0  0  0  0  0  0  0  0  0
  197.0223  186.4537  154.1317 H   0  0  0  0  0  0  0  0  0  0  0  0
  199.8417  186.7926  153.9475 H   0  0  0  0  0  0  0  0  0  0  0  0
  201.3316  188.7406  153.6038 H   0  0  0  0  0  0  0  0  0  0  0  0
  201.1610  190.7284  155.0965 H   0  0  0  0  0  0  0  0  0  0  0  0
  199.4809  190.7545  156.9342 H   0  0  0  0  0  0  0  0  0  0  0  0
  197.9765  188.8316  157.2730 H   0  0  0  0  0  0  0  0  0  0  0  0
  198.6451  178.6368  156.7699 H   0  0  0  0  0  0  0  0  0  0  0  0
  1  2  1  0
  2  3  1  0
  2  7  2  0
  3  4  2  0
  3 36  1  0
  4  5  1  0
  4 37  1  0
  5  6  2  0
  5  8  1  0
  6  7  1  0
  6 38  1  0
  7 39  1  0
  8  9  1  0
  8 12  1  0
  8 40  1  6
  9 10  1  0
  9 11  1  0
  9 64  1  1
 10 41  1  6
 10 42  1  0
 10 43  1  0
 11 44  1  6
 11 45  1  0
 11 46  1  0
 12 13  1  0
 12 47  1  1
 12 48  1  0
 13 14  1  0
 13 49  1  0
 14 15  2  0
 14 16  1  0
 16 17  1  0
 16 26  2  0
 17 18  1  0
 17 27  1  0
 18 19  1  0
 18 23  2  0
 19 20  2  0
 19 24  1  0
 20 21  1  0
 20 50  1  0
 21 22  2  0
 21 51  1  0
 22 23  1  0
 22 52  1  0
 23 53  1  0
 24 25  2  0
 24 26  1  0
 26 54  1  0
 27 28  1  0
 27 55  1  1
 27 56  1  0
 28 29  1  0
 28 30  1  0
 28 57  1  1
 29 58  1  0
 30 31  2  0
 30 35  1  0
 31 32  1  0
 31 59  1  0
 32 33  2  0
 32 60  1  0
 33 34  1  0
 33 61  1  0
 34 35  2  0
 34 62  1  0
 35 63  1  0
M  CHG  1   9   1
M  END
>  <s_epik_cmdline>  (852) 
J2VwaWtfcHl0aG9uJywgJy1waCcsICc3LjAwMDAwMCcsICctcGh0JywgJzIuMDAwMDAwJywgJy1tcycsICcxNicsICctdG4nLCAnOCcsICctbWEnLCAnMjAwJywgJy1pbWFlJywgJzxpbmZpbGUubWFlPicsICctb21hZScsICc8b3V0ZmlsZS5tYWU+Jw==

>  <s_epik_input>  (852) 
RmMxW2NIXVtjSF1jKFtjSF1bY0hdMSlbQ0BIXShOKFtDSDNdKVtDSDNdKVtDSDJdW05IXUMoPU8pYyhbY0hdYyg9TyljKGMyMylbY0hdW2NIXVtjSF1bY0hdMyluMltDSDJdW0NASF0oW09IXSljNFtjSF1bY0hdW2NIXVtjSF1bY0hdNA==

>  <s_i_glide_gridfile>  (852) 
ATP-Grid

>  <s_lp_Force_Field>  (852) 
OPLS_2005

>  <s_lp_Variant>  (852) 
YAS_R012____OTV5753507____OTV1500436____OTV7020431351-2

>  <s_lp_label>  (852) 
160_sdstereoexpander_2_neutralizer_1_epik_1_stereoizer_1

>  <s_m_source_file>  (852) 
ATP-VSW-LIGPREP-003-in.maegz

>  <s_sd_BIOSOLVEIT.INFINISEE\_QUERY\_NAME>  (852) 
Ref-Lig

>  <s_sd_BIOSOLVEIT.INFINISEE\_QUERY\_SMILES>  (852) 
S(c1nc2c(cc1C[NH2+]Cc3ccc(cc3)C[NH+](C)C)cccc2)Cc4ccccc4

>  <s_sd_BIOSOLVEIT.INFINISEE\_REACTION\_NAME>  (852) 
YAS_R012

>  <s_sd_BIOSOLVEIT.INFINISEE\_REAGENT1\_NAME>  (852) 
OTV5753507

>  <s_sd_BIOSOLVEIT.INFINISEE\_REAGENT1\_SMILES>  (852) 
Nc1ccccc1

>  <s_sd_BIOSOLVEIT.INFINISEE\_REAGENT2\_NAME>  (852) 
OTV1500436

>  <s_sd_BIOSOLVEIT.INFINISEE\_REAGENT2\_SMILES>  (852) 
ClCC(O)c1ccccc1

>  <s_sd_BIOSOLVEIT.INFINISEE\_REAGENT3\_NAME>  (852) 
OTV7020431351

>  <s_sd_BIOSOLVEIT.INFINISEE\_REAGENT3\_SMILES>  (852) 
Fc1ccc(cc1)C(N(C)C)CN

>  <s_sd_BIOSOLVEIT.INFINISEE\_SPACE>  (852) 
CHEMriya_12bn_2022-01

>  <s_vsw_compound_code>  (852) 
5091

>  <s_vsw_variant>  (852) 
5091-2

>  <r_epik_Charging_Adjusted_Penalty>  (852) 
0.31346184336252197

>  <r_epik_Ionization_Penalty>  (852) 
0.15679999999999999

>  <r_epik_Ionization_Penalty_Charging>  (852) 
0.15670000000000001

>  <r_epik_Ionization_Penalty_Neutral>  (852) 
0.0001

>  <r_epik_State_Penalty>  (852) 
0.15670000000000001

>  <r_i_docking_score>  (852) 
-4.8013962077038297

>  <r_i_glide_ecoul>  (852) 
-9.1512641906738299

>  <r_i_glide_eff_state_penalty>  (852) 
0.15670000000000001

>  <r_i_glide_einternal>  (852) 
15.1218719482422

>  <r_i_glide_emodel>  (852) 
-59.348795572504599

>  <r_i_glide_energy>  (852) 
-47.3801078796387

>  <r_i_glide_erotb>  (852) 
0.62901363709279901

>  <r_i_glide_esite>  (852) 
-0.12531984958474701

>  <r_i_glide_evdw>  (852) 
-38.228843688964801

>  <r_i_glide_gscore>  (852) 
-4.9580962077038304

>  <r_i_glide_hbond>  (852) 
-0.13563543278018

>  <r_i_glide_ligand_efficiency>  (852) 
-0.137182748791538

>  <r_i_glide_ligand_efficiency_ln>  (852) 
-1.0540130288384499

>  <r_i_glide_ligand_efficiency_sa>  (852) 
-0.44873386737926202

>  <r_i_glide_lipo>  (852) 
-1.5050171981438401

>  <r_i_glide_metal>  (852) 
-0

>  <r_i_glide_rewards>  (852) 
-0.53700555123853999

>  <r_lp_Energy>  (852) 
36.997188999999999

>  <r_qp_ACxDN^.5/SA>  (852) 
0.0154469

>  <r_qp_CIQPlogS>  (852) 
-5.5899999999999999

>  <r_qp_EA(eV)>  (852) 
0.61299999999999999

>  <r_qp_FISA>  (852) 
109.764

>  <r_qp_FOSA>  (852) 
172.50800000000001

>  <r_qp_IP(eV)>  (852) 
8.5060000000000002

>  <r_qp_Jm>  (852) 
0.00371238105381623

>  <r_qp_PISA>  (852) 
468.02800000000002

>  <r_qp_PSA>  (852) 
85.555000000000007

>  <r_qp_PercentHumanOralAbsorption>  (852) 
94.528999999999996

>  <r_qp_QPPCaco>  (852) 
224.85599999999999

>  <r_qp_QPPMDCK>  (852) 
195.38

>  <r_qp_QPlogBB>  (852) 
-0.625

>  <r_qp_QPlogHERG>  (852) 
-7.8099999999999996

>  <r_qp_QPlogKhsa>  (852) 
0.55700000000000005

>  <r_qp_QPlogKp>  (852) 
-3.0920000000000001

>  <r_qp_QPlogPC16>  (852) 
16.405999999999999

>  <r_qp_QPlogPo/w>  (852) 
4.3529999999999998

>  <r_qp_QPlogPoct>  (852) 
26.108000000000001

>  <r_qp_QPlogPw>  (852) 
15.096

>  <r_qp_QPlogS>  (852) 
-5.0129999999999999

>  <r_qp_QPpolrz>  (852) 
52.479999999999997

>  <r_qp_SASA>  (852) 
796.51499999999999

>  <r_qp_SAamideO>  (852) 
0

>  <r_qp_SAfluorine>  (852) 
46.215000000000003

>  <r_qp_WPSA>  (852) 
46.215000000000003

>  <r_qp_accptHB>  (852) 
8.6999999999999993

>  <r_qp_dip^2/V>  (852) 
0.0460934

>  <r_qp_dipole>  (852) 
8.3089999999999993

>  <r_qp_donorHB>  (852) 
2

>  <r_qp_glob>  (852) 
0.79484120000000003

>  <r_qp_mol_MW>  (852) 
473.54599999999999

>  <r_qp_volume>  (852) 
1497.836

>  <r_sd_BIOSOLVEIT.INFINISEE\_FTREES\_SIMILARITY>  (852) 
0.90100000000000002

>  <r_sd_BIOSOLVEIT.LOGP>  (852) 
2.4479000000000002

>  <r_sd_BIOSOLVEIT.MOLECULAR\_WEIGHT>  (852) 
474.553

>  <r_sd_BIOSOLVEIT.TPSA>  (852) 
74.079999999999998

>  <i_epik_Tot_Q>  (852) 
1

>  <i_epik_Tot_abs_Q>  (852) 
1

>  <i_f3d_flags>  (852) 
0

>  <i_i_glide_confnum>  (852) 
4

>  <i_i_glide_lignum>  (852) 
194

>  <i_i_glide_posenum>  (852) 
17

>  <i_i_glide_rotatable_bonds>  (852) 
10

>  <i_lp_mmshare_version>  (852) 
65135

>  <i_m_ct_format>  (852) 
2

>  <i_m_source_file_index>  (852) 
160

>  <i_qp_#NandO>  (852) 
6

>  <i_qp_#acid>  (852) 
0

>  <i_qp_#amide>  (852) 
0

>  <i_qp_#amidine>  (852) 
0

>  <i_qp_#amine>  (852) 
1

>  <i_qp_#in34>  (852) 
0

>  <i_qp_#in56>  (852) 
22

>  <i_qp_#metab>  (852) 
6

>  <i_qp_#nonHatm>  (852) 
35

>  <i_qp_#noncon>  (852) 
0

>  <i_qp_#ringatoms>  (852) 
22

>  <i_qp_#rotor>  (852) 
9

>  <i_qp_#rtvFG>  (852) 
0

>  <i_qp_#stars>  (852) 
1

>  <i_qp_CNS>  (852) 
1

>  <i_qp_HumanOralAbsorption>  (852) 
3

>  <i_qp_RuleOfFive>  (852) 
0

>  <i_qp_RuleOfThree>  (852) 
0

>  <i_sd_BIOSOLVEIT.INFINISEE\_RESULT\_RANK>  (852) 
94526

>  <i_sd_version>  (852) 
0

>  <b_lp_Chiralities_Consistent>  (852) 
1

>  <b_sd_chiral_flag>  (852) 
0

>  <canonical_id>  (852) 
ATP-HTVS-8843DC2573F9

>  <compound_code>  (852) 
5091

>  <title>  (852) 
YAS_R012____OTV5753507____OTV1500436____OTV7020431351

>  <variant>  (852) 
5091-2

>  <source_file>  (852) 
运行/运行/ATP-VSW/ATP-VSW-DOCK_HTVS_1-003_lib/ATP-VSW-DOCK_HTVS_1-003_lib.mae

>  <canonical_smiles>  (852) 
C[NH+](C)[C@H](CNC(=O)c1cc(=O)c2ccccc2n1C[C@H](O)c1ccccc1)c1ccc(F)cc1

>  <scaffold>  (852) 
O=C(NCCc1ccccc1)c1cc(=O)c2ccccc2n1CCc1ccccc1

>  <molecular_formula>  (852) 
C28H29FN3O3+

$$$$
ATP-HTVS-88509AB3E069
     RDKit          3D

 66 69  0  0  0  0  0  0  0  0999 V2000
  202.0866  186.0310  159.8979 O   0  0  0  0  0  0  0  0  0  0  0  0
  201.3314  184.8848  160.2555 C   0  0  1  0  0  0  0  0  0  0  0  0
  201.9579  183.6066  159.7282 C   0  0  0  0  0  0  0  0  0  0  0  0
  202.2127  183.4659  158.3496 C   0  0  0  0  0  0  0  0  0  0  0  0
  202.7717  182.2762  157.8390 C   0  0  0  0  0  0  0  0  0  0  0  0
  203.0926  181.2236  158.7252 C   0  0  0  0  0  0  0  0  0  0  0  0
  202.8349  181.3582  160.1044 C   0  0  0  0  0  0  0  0  0  0  0  0
  202.2684  182.5468  160.6041 C   0  0  0  0  0  0  0  0  0  0  0  0
  203.0253  182.1619  156.3374 C   0  0  1  0  0  0  0  0  0  0  0  0
  202.7991  180.8569  155.7288 N   0  0  0  0  0  0  0  0  0  0  0  0
  201.5665  180.1886  155.8211 C   0  0  0  0  0  0  0  0  0  0  0  0
  200.4975  180.8686  156.2936 N   0  0  0  0  0  0  0  0  0  0  0  0
  199.3227  180.2434  156.4279 C   0  0  0  0  0  0  0  0  0  0  0  0
  199.1488  178.9655  156.1029 N   0  0  0  0  0  0  0  0  0  0  0  0
  200.1735  178.2490  155.5873 C   0  0  0  0  0  0  0  0  0  0  0  0
  201.4447  178.8422  155.4258 C   0  0  0  0  0  0  0  0  0  0  0  0
  202.5182  178.0614  154.9278 C   0  0  0  0  0  0  0  0  0  0  0  0
  202.3056  176.7167  154.5573 C   0  0  0  0  0  0  0  0  0  0  0  0
  201.0251  176.1428  154.7044 C   0  0  0  0  0  0  0  0  0  0  0  0
  199.9653  176.9105  155.2217 C   0  0  0  0  0  0  0  0  0  0  0  0
  198.2362  180.9303  156.9287 N   0  0  0  0  0  0  0  0  0  0  0  0
  198.2406  182.3465  157.2414 C   0  0  1  0  0  0  0  0  0  0  0  0
  197.0201  182.8375  158.0101 C   0  0  0  0  0  0  0  0  0  0  0  0
  197.1506  183.9444  158.8710 C   0  0  0  0  0  0  0  0  0  0  0  0
  196.0238  184.4649  159.5450 C   0  0  0  0  0  0  0  0  0  0  0  0
  194.7722  183.8324  159.3892 C   0  0  0  0  0  0  0  0  0  0  0  0
  194.6409  182.7172  158.5420 C   0  0  0  0  0  0  0  0  0  0  0  0
  195.7574  182.2325  157.8409 C   0  0  0  0  0  0  0  0  0  0  0  0
  196.1710  185.6998  160.4180 C   0  0  1  0  0  0  0  0  0  0  0  0
  196.0606  186.9752  159.6629 N   0  0  2  0  0  0  0  0  0  0  0  0
  197.0764  187.1491  158.5936 C   0  0  2  0  0  0  0  0  0  0  0  0
  196.0458  188.1505  160.5698 C   0  0  2  0  0  0  0  0  0  0  0  0
  201.5607  187.2248  160.4538 C   0  0  2  0  0  0  0  0  0  0  0  0
  201.2406  184.8234  161.3399 H   0  0  0  0  0  0  0  0  0  0  0  0
  200.3203  184.9715  159.8553 H   0  0  0  0  0  0  0  0  0  0  0  0
  201.9797  184.2785  157.6802 H   0  0  0  0  0  0  0  0  0  0  0  0
  203.5316  180.3074  158.3536 H   0  0  0  0  0  0  0  0  0  0  0  0
  203.0635  180.5479  160.7823 H   0  0  0  0  0  0  0  0  0  0  0  0
  202.0703  182.6432  161.6617 H   0  0  0  0  0  0  0  0  0  0  0  0
  202.4166  182.8956  155.8001 H   0  0  0  0  0  0  0  0  0  0  0  0
  204.0672  182.4333  156.1603 H   0  0  0  0  0  0  0  0  0  0  0  0
  203.5491  180.4242  155.2166 H   0  0  0  0  0  0  0  0  0  0  0  0
  203.5163  178.4666  154.8256 H   0  0  0  0  0  0  0  0  0  0  0  0
  203.1178  176.1179  154.1690 H   0  0  0  0  0  0  0  0  0  0  0  0
  200.8600  175.1085  154.4338 H   0  0  0  0  0  0  0  0  0  0  0  0
  198.9932  176.4721  155.3495 H   0  0  0  0  0  0  0  0  0  0  0  0
  197.4019  180.3979  157.1188 H   0  0  0  0  0  0  0  0  0  0  0  0
  199.1402  182.5959  157.8059 H   0  0  0  0  0  0  0  0  0  0  0  0
  198.3207  182.9015  156.3080 H   0  0  0  0  0  0  0  0  0  0  0  0
  198.1194  184.4073  158.9925 H   0  0  0  0  0  0  0  0  0  0  0  0
  193.8901  184.2108  159.8904 H   0  0  0  0  0  0  0  0  0  0  0  0
  193.6848  182.2397  158.3927 H   0  0  0  0  0  0  0  0  0  0  0  0
  195.6117  181.4004  157.1627 H   0  0  0  0  0  0  0  0  0  0  0  0
  195.4046  185.6581  161.1941 H   0  0  0  0  0  0  0  0  0  0  0  0
  197.1351  185.6673  160.9294 H   0  0  0  0  0  0  0  0  0  0  0  0
  198.0775  187.1258  159.0224 H   0  0  0  0  0  0  0  0  0  0  0  0
  196.9535  188.1116  158.0893 H   0  0  0  0  0  0  0  0  0  0  0  0
  197.0064  186.3779  157.8249 H   0  0  0  0  0  0  0  0  0  0  0  0
  196.9720  188.2251  161.1432 H   0  0  0  0  0  0  0  0  0  0  0  0
  195.2134  188.1070  161.2747 H   0  0  0  0  0  0  0  0  0  0  0  0
  195.9402  189.0723  159.9980 H   0  0  0  0  0  0  0  0  0  0  0  0
  202.1766  188.0746  160.1595 H   0  0  0  0  0  0  0  0  0  0  0  0
  201.5538  187.1809  161.5433 H   0  0  0  0  0  0  0  0  0  0  0  0
  200.5444  187.4090  160.1039 H   0  0  0  0  0  0  0  0  0  0  0  0
  198.2551  178.4959  156.3041 H   0  0  0  0  0  0  0  0  0  0  0  0
  195.1610  186.9435  159.2079 H   0  0  0  0  0  0  0  0  0  0  0  0
  1  2  1  0
  1 33  1  0
  2  3  1  0
  2 34  1  1
  2 35  1  0
  3  4  2  0
  3  8  1  0
  4  5  1  0
  4 36  1  0
  5  6  2  0
  5  9  1  0
  6  7  1  0
  6 37  1  0
  7  8  2  0
  7 38  1  0
  8 39  1  0
  9 10  1  0
  9 40  1  6
  9 41  1  0
 10 11  1  0
 10 42  1  0
 11 12  2  0
 11 16  1  0
 12 13  1  0
 13 14  2  0
 13 21  1  0
 14 15  1  0
 14 65  1  0
 15 16  1  0
 15 20  2  0
 16 17  2  0
 17 18  1  0
 17 43  1  0
 18 19  2  0
 18 44  1  0
 19 20  1  0
 19 45  1  0
 20 46  1  0
 21 22  1  0
 21 47  1  0
 22 23  1  0
 22 48  1  1
 22 49  1  0
 23 24  2  0
 23 28  1  0
 24 25  1  0
 24 50  1  0
 25 26  2  0
 25 29  1  0
 26 27  1  0
 26 51  1  0
 27 28  2  0
 27 52  1  0
 28 53  1  0
 29 30  1  0
 29 54  1  1
 29 55  1  0
 30 31  1  0
 30 32  1  0
 30 66  1  6
 31 56  1  1
 31 57  1  0
 31 58  1  0
 32 59  1  1
 32 60  1  0
 32 61  1  0
 33 62  1  1
 33 63  1  0
 33 64  1  0
M  CHG  2  14   1  30   1
M  END
>  <s_epik_cmdline>  (853) 
J2VwaWtfcHl0aG9uJywgJy1waCcsICc3LjAwMDAwMCcsICctcGh0JywgJzIuMDAwMDAwJywgJy1tcycsICcxNicsICctdG4nLCAnOCcsICctbWEnLCAnMjAwJywgJy1pbWFlJywgJzxpbmZpbGUubWFlPicsICctb21hZScsICc8b3V0ZmlsZS5tYWU+Jw==

>  <s_epik_input>  (853) 
W0NIM11PW0NIMl1jMVtjSF1jKFtjSF1bY0hdW2NIXTEpW0NIMl1bTkhdYyhjKGMyMylbY0hdW2NIXVtjSF1bY0hdMyluYyhuMilbTkhdW0NIMl1jNFtjSF1jKFtjSF1bY0hdW2NIXTQpW0NIMl1OKFtDSDNdKVtDSDNd

>  <s_i_glide_gridfile>  (853) 
ATP-Grid

>  <s_lp_Force_Field>  (853) 
OPLS_2005

>  <s_lp_Variant>  (853) 
m_282030aaa____21928106____22360182____21940090-1

>  <s_lp_label>  (853) 
1509_sdstereoexpander_1_neutralizer_1_epik_1_stereoizer_1

>  <s_m_source_file>  (853) 
ATP-VSW-LIGPREP-002-in.maegz

>  <s_sd_BIOSOLVEIT.INFINISEE\_QUERY\_NAME>  (853) 
Ref-Lig

>  <s_sd_BIOSOLVEIT.INFINISEE\_QUERY\_SMILES>  (853) 
S(c1nc2c(cc1C[NH2+]Cc3ccc(cc3)C[NH+](C)C)cccc2)Cc4ccccc4

>  <s_sd_BIOSOLVEIT.INFINISEE\_REACTION\_NAME>  (853) 
m_282030aaa

>  <s_sd_BIOSOLVEIT.INFINISEE\_REAGENT1\_SMILES>  (853) 
[R1*]NCc1cc(ccc1)COC

>  <s_sd_BIOSOLVEIT.INFINISEE\_REAGENT2\_SMILES>  (853) 
[R2*]c1nc([R1*])c2c(n1)cccc2

>  <s_sd_BIOSOLVEIT.INFINISEE\_REAGENT3\_SMILES>  (853) 
[R2*]NCc1cc(ccc1)CN(C)C

>  <s_sd_BIOSOLVEIT.INFINISEE\_SPACE>  (853) 
REALSpace_44bn_2023-08

>  <s_vsw_compound_code>  (853) 
48258

>  <s_vsw_variant>  (853) 
48258-1

>  <r_epik_Charging_Adjusted_Penalty>  (853) 
0.12808586150322401

>  <r_epik_Ionization_Penalty>  (853) 
0.0608

>  <r_epik_Ionization_Penalty_Charging>  (853) 
0.0608

>  <r_epik_Ionization_Penalty_Neutral>  (853) 
0

>  <r_epik_State_Penalty>  (853) 
0.067299999999999999

>  <r_i_docking_score>  (853) 
-3.9142994781571101

>  <r_i_glide_ecoul>  (853) 
-4.52642774581909

>  <r_i_glide_eff_state_penalty>  (853) 
0.067299999999999999

>  <r_i_glide_einternal>  (853) 
4.3077955245971697

>  <r_i_glide_emodel>  (853) 
-51.3785627791246

>  <r_i_glide_energy>  (853) 
-37.636180400848403

>  <r_i_glide_erotb>  (853) 
0.81285644487214903

>  <r_i_glide_esite>  (853) 
-0.219087861380942

>  <r_i_glide_evdw>  (853) 
-33.109752655029297

>  <r_i_glide_gscore>  (853) 
-3.98159947815711

>  <r_i_glide_hbond>  (853) 
-0.18261303461294801

>  <r_i_glide_ligand_efficiency>  (853) 
-0.118615135701731

>  <r_i_glide_ligand_efficiency_ln>  (853) 
-0.87051993678411899

>  <r_i_glide_ligand_efficiency_sa>  (853) 
-0.38046211937698499

>  <r_i_glide_lipo>  (853) 
-1.67364745968377

>  <r_i_glide_metal>  (853) 
-0

>  <r_i_glide_rewards>  (853) 
-0.38465577272727203

>  <r_lp_Energy>  (853) 
17.444806

>  <r_qp_ACxDN^.5/SA>  (853) 
0.0130543

>  <r_qp_CIQPlogS>  (853) 
-5.7279999999999998

>  <r_qp_EA(eV)>  (853) 
0.48899999999999999

>  <r_qp_FISA>  (853) 
45.145000000000003

>  <r_qp_FOSA>  (853) 
301.154

>  <r_qp_IP(eV)>  (853) 
7.9219999999999997

>  <r_qp_Jm>  (853) 
0.25710656166330997

>  <r_qp_PISA>  (853) 
379.53500000000003

>  <r_qp_PSA>  (853) 
53.054000000000002

>  <r_qp_PercentHumanOralAbsorption>  (853) 
100

>  <r_qp_QPPCaco>  (853) 
921.90800000000002

>  <r_qp_QPPMDCK>  (853) 
501.25799999999998

>  <r_qp_QPlogBB>  (853) 
-0.072999999999999995

>  <r_qp_QPlogHERG>  (853) 
-6.7530000000000001

>  <r_qp_QPlogKhsa>  (853) 
0.66400000000000003

>  <r_qp_QPlogKp>  (853) 
-2.117

>  <r_qp_QPlogPC16>  (853) 
14.618

>  <r_qp_QPlogPo/w>  (853) 
4.7539999999999996

>  <r_qp_QPlogPoct>  (853) 
22.079000000000001

>  <r_qp_QPlogPw>  (853) 
11.677

>  <r_qp_QPlogS>  (853) 
-4.1180000000000003

>  <r_qp_QPpolrz>  (853) 
47.100999999999999

>  <r_qp_SASA>  (853) 
725.83500000000004

>  <r_qp_SAamideO>  (853) 
0

>  <r_qp_SAfluorine>  (853) 
0

>  <r_qp_WPSA>  (853) 
0

>  <r_qp_accptHB>  (853) 
6.7000000000000002

>  <r_qp_dip^2/V>  (853) 
0.011062900000000001

>  <r_qp_dipole>  (853) 
3.9359999999999999

>  <r_qp_donorHB>  (853) 
2

>  <r_qp_glob>  (853) 
0.83406999999999998

>  <r_qp_mol_MW>  (853) 
441.57499999999999

>  <r_qp_volume>  (853) 
1400.596

>  <r_sd_BIOSOLVEIT.INFINISEE\_FTREES\_SIMILARITY>  (853) 
0.90700000000000003

>  <r_sd_BIOSOLVEIT.LOGP>  (853) 
3.6448999999999998

>  <r_sd_BIOSOLVEIT.MOLECULAR\_WEIGHT>  (853) 
442.584

>  <r_sd_BIOSOLVEIT.TPSA>  (853) 
63.509999999999998

>  <i_epik_Tot_Q>  (853) 
2

>  <i_epik_Tot_abs_Q>  (853) 
2

>  <i_f3d_flags>  (853) 
0

>  <i_i_glide_confnum>  (853) 
5

>  <i_i_glide_lignum>  (853) 
518

>  <i_i_glide_posenum>  (853) 
1

>  <i_i_glide_rotatable_bonds>  (853) 
10

>  <i_lp_mmshare_version>  (853) 
65135

>  <i_m_ct_format>  (853) 
2

>  <i_m_source_file_index>  (853) 
1509

>  <i_qp_#NandO>  (853) 
6

>  <i_qp_#acid>  (853) 
0

>  <i_qp_#amide>  (853) 
0

>  <i_qp_#amidine>  (853) 
0

>  <i_qp_#amine>  (853) 
1

>  <i_qp_#in34>  (853) 
0

>  <i_qp_#in56>  (853) 
22

>  <i_qp_#metab>  (853) 
7

>  <i_qp_#nonHatm>  (853) 
33

>  <i_qp_#noncon>  (853) 
0

>  <i_qp_#ringatoms>  (853) 
22

>  <i_qp_#rotor>  (853) 
10

>  <i_qp_#rtvFG>  (853) 
0

>  <i_qp_#stars>  (853) 
0

>  <i_qp_CNS>  (853) 
1

>  <i_qp_HumanOralAbsorption>  (853) 
3

>  <i_qp_RuleOfFive>  (853) 
0

>  <i_qp_RuleOfThree>  (853) 
1

>  <i_sd_BIOSOLVEIT.INFINISEE\_REAGENT1\_NAME>  (853) 
21928106

>  <i_sd_BIOSOLVEIT.INFINISEE\_REAGENT2\_NAME>  (853) 
22360182

>  <i_sd_BIOSOLVEIT.INFINISEE\_REAGENT3\_NAME>  (853) 
21940090

>  <i_sd_BIOSOLVEIT.INFINISEE\_RESULT\_RANK>  (853) 
60031

>  <i_sd_version>  (853) 
0

>  <b_lp_Chiralities_Consistent>  (853) 
1

>  <b_sd_chiral_flag>  (853) 
0

>  <canonical_id>  (853) 
ATP-HTVS-88509AB3E069

>  <compound_code>  (853) 
48258

>  <title>  (853) 
m_282030aaa____21928106____22360182____21940090

>  <variant>  (853) 
48258-1

>  <source_file>  (853) 
运行/运行/ATP-VSW/ATP-VSW-DOCK_HTVS_1-002_lib.maegz

>  <canonical_smiles>  (853) 
COCc1cccc(CNc2nc(NCc3cccc(C[NH+](C)C)c3)[nH+]c3ccccc23)c1

>  <scaffold>  (853) 
c1ccc(CNc2nc(NCc3ccccc3)c3ccccc3[nH+]2)cc1

>  <molecular_formula>  (853) 
C27H33N5O+2

$$$$
ATP-HTVS-8884805DC746
     RDKit          3D

 58 61  0  0  0  0  0  0  0  0999 V2000
  196.3380  180.0428  150.1354 N   0  0  0  0  0  0  0  0  0  0  0  0
  196.5962  180.2570  151.2431 C   0  0  0  0  0  0  0  0  0  0  0  0
  196.9214  180.5228  152.6353 C   0  0  0  0  0  0  0  0  0  0  0  0
  197.6400  179.5713  153.3854 C   0  0  0  0  0  0  0  0  0  0  0  0
  197.9377  179.8129  154.7407 C   0  0  0  0  0  0  0  0  0  0  0  0
  197.5216  181.0136  155.3528 C   0  0  0  0  0  0  0  0  0  0  0  0
  196.8088  181.9676  154.5970 C   0  0  0  0  0  0  0  0  0  0  0  0
  196.5112  181.7264  153.2424 C   0  0  0  0  0  0  0  0  0  0  0  0
  197.8621  181.2843  156.8078 C   0  0  1  0  0  0  0  0  0  0  0  0
  196.7585  181.8423  157.5849 N   0  0  0  0  0  0  0  0  0  0  0  0
  196.7628  183.0617  158.2159 C   0  0  0  0  0  0  0  0  0  0  0  0
  197.8831  183.7861  158.1642 N   0  0  0  0  0  0  0  0  0  0  0  0
  197.8967  184.9779  158.7971 C   0  0  0  0  0  0  0  0  0  0  0  0
  199.0759  185.7438  158.7482 N   0  0  0  0  0  0  0  0  0  0  0  0
  200.3330  185.1732  158.2787 C   0  0  1  0  0  0  0  0  0  0  0  0
  201.1369  184.4700  159.3551 C   0  0  0  0  0  0  0  0  0  0  0  0
  201.8136  185.2267  160.3361 C   0  0  0  0  0  0  0  0  0  0  0  0
  202.6358  184.5947  161.2933 C   0  0  0  0  0  0  0  0  0  0  0  0
  203.2731  185.3933  162.2594 N   0  0  0  0  0  0  0  0  0  0  0  0
  204.2098  184.8705  163.2488 C   0  0  2  0  0  0  0  0  0  0  0  0
  203.5375  183.9030  164.2488 C   0  0  2  0  0  0  0  0  0  0  0  0
  204.8852  186.0207  164.0091 C   0  0  2  0  0  0  0  0  0  0  0  0
  202.7665  183.1833  161.2649 C   0  0  0  0  0  0  0  0  0  0  0  0
  202.0502  182.4278  160.3102 C   0  0  0  0  0  0  0  0  0  0  0  0
  201.2408  183.0649  159.3513 C   0  0  0  0  0  0  0  0  0  0  0  0
  196.7534  185.4510  159.4811 C   0  0  0  0  0  0  0  0  0  0  0  0
  195.6121  184.6041  159.4676 C   0  0  0  0  0  0  0  0  0  0  0  0
  195.6372  183.4099  158.8364 N   0  0  0  0  0  0  0  0  0  0  0  0
  194.4476  185.0367  160.1416 C   0  0  0  0  0  0  0  0  0  0  0  0
  194.4142  186.2643  160.8210 C   0  0  0  0  0  0  0  0  0  0  0  0
  195.5473  187.0962  160.8254 C   0  0  0  0  0  0  0  0  0  0  0  0
  196.7151  186.6987  160.1466 C   0  0  0  0  0  0  0  0  0  0  0  0
  197.9644  178.6525  152.9252 H   0  0  0  0  0  0  0  0  0  0  0  0
  198.4881  179.0798  155.3116 H   0  0  0  0  0  0  0  0  0  0  0  0
  196.4796  182.8912  155.0512 H   0  0  0  0  0  0  0  0  0  0  0  0
  195.9484  182.4635  152.6830 H   0  0  0  0  0  0  0  0  0  0  0  0
  198.1864  180.3606  157.2919 H   0  0  0  0  0  0  0  0  0  0  0  0
  198.7341  181.9411  156.8044 H   0  0  0  0  0  0  0  0  0  0  0  0
  195.9534  181.2355  157.7248 H   0  0  0  0  0  0  0  0  0  0  0  0
  199.1226  186.6009  159.2762 H   0  0  0  0  0  0  0  0  0  0  0  0
  200.1730  184.4862  157.4413 H   0  0  0  0  0  0  0  0  0  0  0  0
  200.9438  185.9828  157.8699 H   0  0  0  0  0  0  0  0  0  0  0  0
  201.7179  186.3040  160.3391 H   0  0  0  0  0  0  0  0  0  0  0  0
  203.1811  186.3958  162.1897 H   0  0  0  0  0  0  0  0  0  0  0  0
  204.9830  184.3441  162.6956 H   0  0  0  0  0  0  0  0  0  0  0  0
  204.2783  183.5211  164.9592 H   0  0  0  0  0  0  0  0  0  0  0  0
  203.0610  183.0456  163.7660 H   0  0  0  0  0  0  0  0  0  0  0  0
  202.7874  184.4328  164.8457 H   0  0  0  0  0  0  0  0  0  0  0  0
  205.6219  185.6406  164.7164 H   0  0  0  0  0  0  0  0  0  0  0  0
  204.1605  186.5986  164.5847 H   0  0  0  0  0  0  0  0  0  0  0  0
  205.4060  186.7129  163.3459 H   0  0  0  0  0  0  0  0  0  0  0  0
  203.3937  182.6712  161.9835 H   0  0  0  0  0  0  0  0  0  0  0  0
  202.1243  181.3506  160.3151 H   0  0  0  0  0  0  0  0  0  0  0  0
  200.7243  182.4808  158.6002 H   0  0  0  0  0  0  0  0  0  0  0  0
  193.5745  184.4046  160.1206 H   0  0  0  0  0  0  0  0  0  0  0  0
  193.5107  186.5797  161.3202 H   0  0  0  0  0  0  0  0  0  0  0  0
  195.5236  188.0493  161.3377 H   0  0  0  0  0  0  0  0  0  0  0  0
  197.5708  187.3527  160.1660 H   0  0  0  0  0  0  0  0  0  0  0  0
  1  2  3  0
  2  3  1  0
  3  4  1  0
  3  8  2  0
  4  5  2  0
  4 33  1  0
  5  6  1  0
  5 34  1  0
  6  7  2  0
  6  9  1  0
  7  8  1  0
  7 35  1  0
  8 36  1  0
  9 10  1  0
  9 37  1  1
  9 38  1  0
 10 11  1  0
 10 39  1  0
 11 12  2  0
 11 28  1  0
 12 13  1  0
 13 14  1  0
 13 26  2  0
 14 15  1  0
 14 40  1  0
 15 16  1  0
 15 41  1  6
 15 42  1  0
 16 17  1  0
 16 25  2  0
 17 18  2  0
 17 43  1  0
 18 19  1  0
 18 23  1  0
 19 20  1  0
 19 44  1  0
 20 21  1  0
 20 22  1  0
 20 45  1  6
 21 46  1  1
 21 47  1  0
 21 48  1  0
 22 49  1  1
 22 50  1  0
 22 51  1  0
 23 24  2  0
 23 52  1  0
 24 25  1  0
 24 53  1  0
 25 54  1  0
 26 27  1  0
 26 32  1  0
 27 28  2  0
 27 29  1  0
 29 30  2  0
 29 55  1  0
 30 31  1  0
 30 56  1  0
 31 32  2  0
 31 57  1  0
 32 58  1  0
M  END
>  <s_epik_cmdline>  (854) 
J2VwaWtfcHl0aG9uJywgJy1waCcsICc3LjAwMDAwMCcsICctcGh0JywgJzIuMDAwMDAwJywgJy1tcycsICcxNicsICctdG4nLCAnOCcsICctbWEnLCAnMjAwJywgJy1pbWFlJywgJzxpbmZpbGUubWFlPicsICctb21hZScsICc8b3V0ZmlsZS5tYWU+Jw==

>  <s_epik_input>  (854) 
TiNDYzFbY0hdW2NIXWMoW2NIXVtjSF0xKVtDSDJdW05IXWMobmMoYzIzKVtjSF1bY0hdW2NIXVtjSF0zKW5jMltOSF1bQ0gyXWM0W2NIXWMoW05IXVtDSF0oW0NIM10pW0NIM10pW2NIXVtjSF1bY0hdNA==

>  <s_i_glide_gridfile>  (854) 
ATP-Grid

>  <s_lp_Force_Field>  (854) 
OPLS_2005

>  <s_lp_Variant>  (854) 
m_282030aaa____21919794____22360182____21939754-3

>  <s_lp_label>  (854) 
1371_sdstereoexpander_1_neutralizer_1_epik_3_stereoizer_1

>  <s_m_source_file>  (854) 
ATP-VSW-LIGPREP-002-in.maegz

>  <s_sd_BIOSOLVEIT.INFINISEE\_QUERY\_NAME>  (854) 
Ref-Lig

>  <s_sd_BIOSOLVEIT.INFINISEE\_QUERY\_SMILES>  (854) 
S(c1nc2c(cc1C[NH2+]Cc3ccc(cc3)C[NH+](C)C)cccc2)Cc4ccccc4

>  <s_sd_BIOSOLVEIT.INFINISEE\_REACTION\_NAME>  (854) 
m_282030aaa

>  <s_sd_BIOSOLVEIT.INFINISEE\_REAGENT1\_SMILES>  (854) 
[R1*]NCc1cc(NC(C)C)ccc1

>  <s_sd_BIOSOLVEIT.INFINISEE\_REAGENT2\_SMILES>  (854) 
[R2*]c1nc([R1*])c2c(n1)cccc2

>  <s_sd_BIOSOLVEIT.INFINISEE\_REAGENT3\_SMILES>  (854) 
[R2*]NCc1ccc(C#N)cc1

>  <s_sd_BIOSOLVEIT.INFINISEE\_SPACE>  (854) 
REALSpace_44bn_2023-08

>  <s_vsw_compound_code>  (854) 
43842

>  <s_vsw_variant>  (854) 
43842-3

>  <r_epik_Charging_Adjusted_Penalty>  (854) 
2.0745050354861898

>  <r_epik_Ionization_Penalty>  (854) 
2.2725

>  <r_epik_Ionization_Penalty_Charging>  (854) 
0

>  <r_epik_Ionization_Penalty_Neutral>  (854) 
2.2725

>  <r_epik_State_Penalty>  (854) 
2.0745

>  <r_i_docking_score>  (854) 
-2.2719909600895898

>  <r_i_glide_ecoul>  (854) 
-1.48666071891785

>  <r_i_glide_eff_state_penalty>  (854) 
2.0745

>  <r_i_glide_einternal>  (854) 
2.84954929351807

>  <r_i_glide_emodel>  (854) 
-53.015352513680703

>  <r_i_glide_energy>  (854) 
-42.505566358566298

>  <r_i_glide_erotb>  (854) 
0.77679234564156596

>  <r_i_glide_esite>  (854) 
-0.12218673047699299

>  <r_i_glide_evdw>  (854) 
-41.018905639648402

>  <r_i_glide_gscore>  (854) 
-4.3464909600895902

>  <r_i_glide_hbond>  (854) 
-0.081515077104355099

>  <r_i_glide_ligand_efficiency>  (854) 
-0.070999717502799806

>  <r_i_glide_ligand_efficiency_ln>  (854) 
-0.50876070809856999

>  <r_i_glide_ligand_efficiency_sa>  (854) 
-0.225410052246375

>  <r_i_glide_lipo>  (854) 
-1.88679712296247

>  <r_i_glide_metal>  (854) 
-0

>  <r_i_glide_rewards>  (854) 
-0.75883998536724195

>  <r_lp_Energy>  (854) 
12.680149999999999

>  <r_qp_ACxDN^.5/SA>  (854) 
0.012997699999999999

>  <r_qp_CIQPlogS>  (854) 
-7.7489999999999997

>  <r_qp_EA(eV)>  (854) 
0.76300000000000001

>  <r_qp_FISA>  (854) 
117.756

>  <r_qp_FOSA>  (854) 
191.56

>  <r_qp_IP(eV)>  (854) 
8.0969999999999995

>  <r_qp_Jm>  (854) 
0.0027350668913338001

>  <r_qp_PISA>  (854) 
423.60300000000001

>  <r_qp_PSA>  (854) 
76.769000000000005

>  <r_qp_PercentHumanOralAbsorption>  (854) 
100

>  <r_qp_QPPCaco>  (854) 
757.21799999999996

>  <r_qp_QPPMDCK>  (854) 
366.26999999999998

>  <r_qp_QPlogBB>  (854) 
-1.1819999999999999

>  <r_qp_QPlogHERG>  (854) 
-6.6619999999999999

>  <r_qp_QPlogKhsa>  (854) 
0.70599999999999996

>  <r_qp_QPlogKp>  (854) 
-1.333

>  <r_qp_QPlogPC16>  (854) 
15.321

>  <r_qp_QPlogPo/w>  (854) 
4.8120000000000003

>  <r_qp_QPlogPoct>  (854) 
23.189

>  <r_qp_QPlogPw>  (854) 
12.991

>  <r_qp_QPlogS>  (854) 
-6.8550000000000004

>  <r_qp_QPpolrz>  (854) 
46.322000000000003

>  <r_qp_SASA>  (854) 
732.91899999999998

>  <r_qp_SAamideO>  (854) 
0

>  <r_qp_SAfluorine>  (854) 
0

>  <r_qp_WPSA>  (854) 
0

>  <r_qp_accptHB>  (854) 
5.5

>  <r_qp_dip^2/V>  (854) 
0.029048000000000001

>  <r_qp_dipole>  (854) 
6.2729999999999997

>  <r_qp_donorHB>  (854) 
3

>  <r_qp_glob>  (854) 
0.80780300000000005

>  <r_qp_mol_MW>  (854) 
422.53199999999998

>  <r_qp_volume>  (854) 
1354.548

>  <r_sd_BIOSOLVEIT.INFINISEE\_FTREES\_SIMILARITY>  (854) 
0.90900000000000003

>  <r_sd_BIOSOLVEIT.LOGP>  (854) 
5.5459800000000001

>  <r_sd_BIOSOLVEIT.MOLECULAR\_WEIGHT>  (854) 
422.53300000000002

>  <r_sd_BIOSOLVEIT.TPSA>  (854) 
85.659999999999997

>  <i_epik_Tot_Q>  (854) 
0

>  <i_epik_Tot_abs_Q>  (854) 
0

>  <i_f3d_flags>  (854) 
0

>  <i_i_glide_confnum>  (854) 
2

>  <i_i_glide_lignum>  (854) 
480

>  <i_i_glide_posenum>  (854) 
20

>  <i_i_glide_rotatable_bonds>  (854) 
8

>  <i_lp_mmshare_version>  (854) 
65135

>  <i_m_ct_format>  (854) 
2

>  <i_m_source_file_index>  (854) 
1371

>  <i_qp_#NandO>  (854) 
6

>  <i_qp_#acid>  (854) 
0

>  <i_qp_#amide>  (854) 
0

>  <i_qp_#amidine>  (854) 
0

>  <i_qp_#amine>  (854) 
0

>  <i_qp_#in34>  (854) 
0

>  <i_qp_#in56>  (854) 
22

>  <i_qp_#metab>  (854) 
5

>  <i_qp_#nonHatm>  (854) 
32

>  <i_qp_#noncon>  (854) 
0

>  <i_qp_#ringatoms>  (854) 
22

>  <i_qp_#rotor>  (854) 
9

>  <i_qp_#rtvFG>  (854) 
0

>  <i_qp_#stars>  (854) 
1

>  <i_qp_CNS>  (854) 
-2

>  <i_qp_HumanOralAbsorption>  (854) 
1

>  <i_qp_RuleOfFive>  (854) 
0

>  <i_qp_RuleOfThree>  (854) 
1

>  <i_sd_BIOSOLVEIT.INFINISEE\_REAGENT1\_NAME>  (854) 
21919794

>  <i_sd_BIOSOLVEIT.INFINISEE\_REAGENT2\_NAME>  (854) 
22360182

>  <i_sd_BIOSOLVEIT.INFINISEE\_REAGENT3\_NAME>  (854) 
21939754

>  <i_sd_BIOSOLVEIT.INFINISEE\_RESULT\_RANK>  (854) 
50845

>  <i_sd_version>  (854) 
0

>  <b_lp_Chiralities_Consistent>  (854) 
1

>  <b_sd_chiral_flag>  (854) 
0

>  <canonical_id>  (854) 
ATP-HTVS-8884805DC746

>  <compound_code>  (854) 
43842

>  <title>  (854) 
m_282030aaa____21919794____22360182____21939754

>  <variant>  (854) 
43842-3

>  <source_file>  (854) 
运行/运行/ATP-VSW/ATP-VSW-DOCK_HTVS_1-002_lib.maegz

>  <canonical_smiles>  (854) 
CC(C)Nc1cccc(CNc2nc(NCc3ccc(C#N)cc3)nc3ccccc23)c1

>  <scaffold>  (854) 
c1ccc(CNc2nc(NCc3ccccc3)c3ccccc3n2)cc1

>  <molecular_formula>  (854) 
C26H26N6

$$$$
ATP-HTVS-8892C512F7BC
     RDKit          3D

 59 62  0  0  0  0  0  0  0  0999 V2000
  197.2154  188.5290  157.9832 Cl  0  0  0  0  0  0  0  0  0  0  0  0
  197.3319  186.8104  157.8708 C   0  0  0  0  0  0  0  0  0  0  0  0
  198.1630  186.2055  156.9051 C   0  0  0  0  0  0  0  0  0  0  0  0
  198.2445  184.7982  156.8233 C   0  0  0  0  0  0  0  0  0  0  0  0
  197.5060  183.9708  157.7066 C   0  0  0  0  0  0  0  0  0  0  0  0
  197.5900  182.5628  157.5892 N   0  0  0  0  0  0  0  0  0  0  0  0
  197.7702  181.8681  156.3762 C   0  0  0  0  0  0  0  0  0  0  0  0
  198.9720  181.2147  156.0135 C   0  0  0  0  0  0  0  0  0  0  0  0
  199.0351  180.5173  154.7693 C   0  0  0  0  0  0  0  0  0  0  0  0
  197.8743  180.4911  153.9446 C   0  0  0  0  0  0  0  0  0  0  0  0
  196.7355  181.1047  154.3202 N   0  0  0  0  0  0  0  0  0  0  0  0
  196.6846  181.7597  155.4939 C   0  0  0  0  0  0  0  0  0  0  0  0
  197.9798  179.8163  152.6969 N   0  0  0  0  0  0  0  0  0  0  0  0
  197.0799  179.7112  151.7026 C   0  0  0  0  0  0  0  0  0  0  0  0
  195.9468  180.1815  151.7097 O   0  0  0  0  0  0  0  0  0  0  0  0
  197.5823  178.9891  150.4859 C   0  0  0  0  0  0  0  0  0  0  0  0
  197.0841  179.3359  149.2107 C   0  0  0  0  0  0  0  0  0  0  0  0
  197.5272  178.6572  148.0618 C   0  0  0  0  0  0  0  0  0  0  0  0
  198.4735  177.6194  148.1770 C   0  0  0  0  0  0  0  0  0  0  0  0
  198.9583  177.2502  149.4491 C   0  0  0  0  0  0  0  0  0  0  0  0
  198.5083  177.9235  150.5988 C   0  0  0  0  0  0  0  0  0  0  0  0
  198.9310  176.8759  146.9395 C   0  0  1  0  0  0  0  0  0  0  0  0
  200.2065  177.4082  146.4008 N   0  0  1  0  0  0  0  0  0  0  0  0
  200.9369  176.4112  145.5856 C   0  0  2  0  0  0  0  0  0  0  0  0
  200.0354  178.6865  145.6731 C   0  0  2  0  0  0  0  0  0  0  0  0
  200.2478  179.8827  154.3957 C   0  0  0  0  0  0  0  0  0  0  0  0
  201.3725  179.9313  155.2397 C   0  0  0  0  0  0  0  0  0  0  0  0
  201.3081  180.6163  156.4681 C   0  0  0  0  0  0  0  0  0  0  0  0
  200.1142  181.2612  156.8464 C   0  0  0  0  0  0  0  0  0  0  0  0
  196.9030  181.7551  158.5979 C   0  0  1  0  0  0  0  0  0  0  0  0
  195.4307  181.8404  158.5474 C   0  0  0  0  0  0  0  0  0  0  0  0
  194.2767  181.9162  158.5259 N   0  0  0  0  0  0  0  0  0  0  0  0
  196.7043  184.6014  158.6973 C   0  0  0  0  0  0  0  0  0  0  0  0
  196.6001  186.0042  158.7594 C   0  0  0  0  0  0  0  0  0  0  0  0
  198.7375  186.8240  156.2281 H   0  0  0  0  0  0  0  0  0  0  0  0
  198.8863  184.3480  156.0793 H   0  0  0  0  0  0  0  0  0  0  0  0
  195.7415  182.2193  155.7518 H   0  0  0  0  0  0  0  0  0  0  0  0
  198.8776  179.3964  152.5140 H   0  0  0  0  0  0  0  0  0  0  0  0
  196.3647  180.1379  149.1179 H   0  0  0  0  0  0  0  0  0  0  0  0
  197.1349  178.9418  147.0953 H   0  0  0  0  0  0  0  0  0  0  0  0
  199.6679  176.4409  149.5458 H   0  0  0  0  0  0  0  0  0  0  0  0
  198.8939  177.6102  151.5579 H   0  0  0  0  0  0  0  0  0  0  0  0
  199.0462  175.8249  147.2119 H   0  0  0  0  0  0  0  0  0  0  0  0
  198.1456  176.9387  146.1859 H   0  0  0  0  0  0  0  0  0  0  0  0
  200.3598  176.1192  144.7076 H   0  0  0  0  0  0  0  0  0  0  0  0
  201.1531  175.5135  146.1664 H   0  0  0  0  0  0  0  0  0  0  0  0
  201.8911  176.8137  145.2434 H   0  0  0  0  0  0  0  0  0  0  0  0
  199.3864  178.5576  144.8052 H   0  0  0  0  0  0  0  0  0  0  0  0
  200.9967  179.0635  145.3221 H   0  0  0  0  0  0  0  0  0  0  0  0
  199.6017  179.4516  146.3170 H   0  0  0  0  0  0  0  0  0  0  0  0
  200.3515  179.3528  153.4645 H   0  0  0  0  0  0  0  0  0  0  0  0
  202.2933  179.4451  154.9460 H   0  0  0  0  0  0  0  0  0  0  0  0
  202.1763  180.6507  157.1115 H   0  0  0  0  0  0  0  0  0  0  0  0
  200.0766  181.7962  157.7858 H   0  0  0  0  0  0  0  0  0  0  0  0
  197.1484  180.6953  158.5086 H   0  0  0  0  0  0  0  0  0  0  0  0
  197.2373  182.0983  159.5741 H   0  0  0  0  0  0  0  0  0  0  0  0
  196.1265  184.0424  159.4227 H   0  0  0  0  0  0  0  0  0  0  0  0
  195.9541  186.4543  159.4948 H   0  0  0  0  0  0  0  0  0  0  0  0
  200.7922  177.6012  147.2005 H   0  0  0  0  0  0  0  0  0  0  0  0
  1  2  1  0
  2  3  1  0
  2 34  2  0
  3  4  2  0
  3 35  1  0
  4  5  1  0
  4 36  1  0
  5  6  1  0
  5 33  2  0
  6  7  1  0
  6 30  1  0
  7  8  2  0
  7 12  1  0
  8  9  1  0
  8 29  1  0
  9 10  2  0
  9 26  1  0
 10 11  1  0
 10 13  1  0
 11 12  2  0
 12 37  1  0
 13 14  1  0
 13 38  1  0
 14 15  2  0
 14 16  1  0
 16 17  1  0
 16 21  2  0
 17 18  2  0
 17 39  1  0
 18 19  1  0
 18 40  1  0
 19 20  2  0
 19 22  1  0
 20 21  1  0
 20 41  1  0
 21 42  1  0
 22 23  1  0
 22 43  1  1
 22 44  1  0
 23 24  1  0
 23 25  1  0
 23 59  1  1
 24 45  1  6
 24 46  1  0
 24 47  1  0
 25 48  1  6
 25 49  1  0
 25 50  1  0
 26 27  2  0
 26 51  1  0
 27 28  1  0
 27 52  1  0
 28 29  2  0
 28 53  1  0
 29 54  1  0
 30 31  1  0
 30 55  1  6
 30 56  1  0
 31 32  3  0
 33 34  1  0
 33 57  1  0
 34 58  1  0
M  CHG  1  23   1
M  END
>  <s_epik_cmdline>  (855) 
J2VwaWtfcHl0aG9uJywgJy1waCcsICc3LjAwMDAwMCcsICctcGh0JywgJzIuMDAwMDAwJywgJy1tcycsICcxNicsICctdG4nLCAnOCcsICctbWEnLCAnMjAwJywgJy1pbWFlJywgJzxpbmZpbGUubWFlPicsICctb21hZScsICc8b3V0ZmlsZS5tYWU+Jw==

>  <s_epik_input>  (855) 
Q2xjMVtjSF1bY0hdYyhbY0hdW2NIXTEpTihbQ0gyXUMjTiljMltjSF1uYyhjKGMyMylbY0hdW2NIXVtjSF1bY0hdMylbTkhdQyg9TyljNFtjSF1bY0hdYyhbY0hdW2NIXTQpW0NIMl1OKFtDSDNdKVtDSDNd

>  <s_i_glide_gridfile>  (855) 
ATP-Grid

>  <s_lp_Force_Field>  (855) 
OPLS_2005

>  <s_lp_Variant>  (855) 
rxn502b____EMOL18624763____EMOL7515103____EMOL37359883-1

>  <s_lp_label>  (855) 
2235_sdstereoexpander_1_neutralizer_1_epik_1_stereoizer_1

>  <s_m_source_file>  (855) 
ATP-VSW-LIGPREP-003-in.maegz

>  <s_sd_BIOSOLVEIT.INFINISEE\_QUERY\_NAME>  (855) 
Ref-Lig

>  <s_sd_BIOSOLVEIT.INFINISEE\_QUERY\_SMILES>  (855) 
S(c1nc2c(cc1C[NH2+]Cc3ccc(cc3)C[NH+](C)C)cccc2)Cc4ccccc4

>  <s_sd_BIOSOLVEIT.INFINISEE\_REACTION\_NAME>  (855) 
rxn502b

>  <s_sd_BIOSOLVEIT.INFINISEE\_REAGENT1\_NAME>  (855) 
EMOL18624763

>  <s_sd_BIOSOLVEIT.INFINISEE\_REAGENT1\_SMILES>  (855) 
O=C(O)c1ccc(cc1)CN(C)C

>  <s_sd_BIOSOLVEIT.INFINISEE\_REAGENT2\_NAME>  (855) 
EMOL7515103

>  <s_sd_BIOSOLVEIT.INFINISEE\_REAGENT2\_SMILES>  (855) 
Brc1c2c(c(nc1)N)cccc2

>  <s_sd_BIOSOLVEIT.INFINISEE\_REAGENT3\_NAME>  (855) 
EMOL37359883

>  <s_sd_BIOSOLVEIT.INFINISEE\_REAGENT3\_SMILES>  (855) 
Clc1ccc(NCC#N)cc1

>  <s_sd_BIOSOLVEIT.INFINISEE\_SPACE>  (855) 
eXplore_7tr_2022-12

>  <s_vsw_compound_code>  (855) 
71491

>  <s_vsw_variant>  (855) 
71491-1

>  <r_epik_Charging_Adjusted_Penalty>  (855) 
0.10433640840748

>  <r_epik_Ionization_Penalty>  (855) 
0.052200000000000003

>  <r_epik_Ionization_Penalty_Charging>  (855) 
0.052200000000000003

>  <r_epik_Ionization_Penalty_Neutral>  (855) 
0

>  <r_epik_State_Penalty>  (855) 
0.052200000000000003

>  <r_i_docking_score>  (855) 
-3.5209459867831199

>  <r_i_glide_ecoul>  (855) 
-2.6585171222686799

>  <r_i_glide_eff_state_penalty>  (855) 
0.052200000000000003

>  <r_i_glide_einternal>  (855) 
2.1652569770813002

>  <r_i_glide_emodel>  (855) 
-49.249772264315901

>  <r_i_glide_energy>  (855) 
-38.9112064838409

>  <r_i_glide_erotb>  (855) 
0.54664546843026596

>  <r_i_glide_esite>  (855) 
-0.154257534336952

>  <r_i_glide_evdw>  (855) 
-36.252689361572301

>  <r_i_glide_gscore>  (855) 
-3.5731459867831199

>  <r_i_glide_hbond>  (855) 
0

>  <r_i_glide_ligand_efficiency>  (855) 
-0.103557234905386

>  <r_i_glide_ligand_efficiency_ln>  (855) 
-0.77787572767012403

>  <r_i_glide_ligand_efficiency_sa>  (855) 
-0.33548523991280499

>  <r_i_glide_lipo>  (855) 
-1.15144201556696

>  <r_i_glide_metal>  (855) 
-0

>  <r_i_glide_rewards>  (855) 
-0.60267986889056202

>  <r_lp_Energy>  (855) 
37.444501000000002

>  <r_qp_ACxDN^.5/SA>  (855) 
0.0090872000000000001

>  <r_qp_CIQPlogS>  (855) 
-7.0309999999999997

>  <r_qp_EA(eV)>  (855) 
1.3240000000000001

>  <r_qp_FISA>  (855) 
127.018

>  <r_qp_FOSA>  (855) 
213.25299999999999

>  <r_qp_IP(eV)>  (855) 
8.6389999999999993

>  <r_qp_Jm>  (855) 
5.5693906481452597e-06

>  <r_qp_PISA>  (855) 
413.38600000000002

>  <r_qp_PSA>  (855) 
77.427000000000007

>  <r_qp_PercentHumanOralAbsorption>  (855) 
94.076999999999998

>  <r_qp_QPPCaco>  (855) 
154.27199999999999

>  <r_qp_QPPMDCK>  (855) 
179.26599999999999

>  <r_qp_QPlogBB>  (855) 
-0.80200000000000005

>  <r_qp_QPlogHERG>  (855) 
-8.077

>  <r_qp_QPlogKhsa>  (855) 
0.78800000000000003

>  <r_qp_QPlogKp>  (855) 
-3.6989999999999998

>  <r_qp_QPlogPC16>  (855) 
16.797000000000001

>  <r_qp_QPlogPo/w>  (855) 
4.7759999999999998

>  <r_qp_QPlogPoct>  (855) 
23.582999999999998

>  <r_qp_QPlogPw>  (855) 
12.494

>  <r_qp_QPlogS>  (855) 
-7.2279999999999998

>  <r_qp_QPpolrz>  (855) 
52.030000000000001

>  <r_qp_SASA>  (855) 
825.33199999999999

>  <r_qp_SAamideO>  (855) 
0

>  <r_qp_SAfluorine>  (855) 
0

>  <r_qp_WPSA>  (855) 
71.674999999999997

>  <r_qp_accptHB>  (855) 
7.5

>  <r_qp_dip^2/V>  (855) 
0.027918800000000001

>  <r_qp_dipole>  (855) 
6.4359999999999999

>  <r_qp_donorHB>  (855) 
1

>  <r_qp_glob>  (855) 
0.76221559999999999

>  <r_qp_mol_MW>  (855) 
469.97199999999998

>  <r_qp_volume>  (855) 
1483.585

>  <r_sd_BIOSOLVEIT.INFINISEE\_FTREES\_SIMILARITY>  (855) 
0.92800000000000005

>  <r_sd_BIOSOLVEIT.LOGP>  (855) 
4.4466799999999997

>  <r_sd_BIOSOLVEIT.MOLECULAR\_WEIGHT>  (855) 
470.98200000000003

>  <r_sd_BIOSOLVEIT.TPSA>  (855) 
73.459999999999994

>  <i_epik_Tot_Q>  (855) 
1

>  <i_epik_Tot_abs_Q>  (855) 
1

>  <i_f3d_flags>  (855) 
0

>  <i_i_glide_confnum>  (855) 
2

>  <i_i_glide_lignum>  (855) 
909

>  <i_i_glide_posenum>  (855) 
6

>  <i_i_glide_rotatable_bonds>  (855) 
8

>  <i_lp_mmshare_version>  (855) 
65135

>  <i_m_ct_format>  (855) 
2

>  <i_m_source_file_index>  (855) 
2235

>  <i_qp_#NandO>  (855) 
6

>  <i_qp_#acid>  (855) 
0

>  <i_qp_#amide>  (855) 
0

>  <i_qp_#amidine>  (855) 
0

>  <i_qp_#amine>  (855) 
1

>  <i_qp_#in34>  (855) 
0

>  <i_qp_#in56>  (855) 
22

>  <i_qp_#metab>  (855) 
5

>  <i_qp_#nonHatm>  (855) 
34

>  <i_qp_#noncon>  (855) 
0

>  <i_qp_#ringatoms>  (855) 
22

>  <i_qp_#rotor>  (855) 
8

>  <i_qp_#rtvFG>  (855) 
0

>  <i_qp_#stars>  (855) 
1

>  <i_qp_CNS>  (855) 
0

>  <i_qp_HumanOralAbsorption>  (855) 
1

>  <i_qp_RuleOfFive>  (855) 
0

>  <i_qp_RuleOfThree>  (855) 
1

>  <i_sd_BIOSOLVEIT.INFINISEE\_RESULT\_RANK>  (855) 
6377

>  <i_sd_version>  (855) 
0

>  <b_lp_Chiralities_Consistent>  (855) 
1

>  <b_sd_chiral_flag>  (855) 
0

>  <canonical_id>  (855) 
ATP-HTVS-8892C512F7BC

>  <compound_code>  (855) 
71491

>  <title>  (855) 
rxn502b____EMOL18624763____EMOL7515103____EMOL37359883

>  <variant>  (855) 
71491-1

>  <source_file>  (855) 
运行/运行/ATP-VSW/ATP-VSW-DOCK_HTVS_1-003_lib/ATP-VSW-DOCK_HTVS_1-003_lib.mae

>  <canonical_smiles>  (855) 
C[NH+](C)Cc1ccc(C(=O)Nc2ncc(N(CC#N)c3ccc(Cl)cc3)c3ccccc23)cc1

>  <scaffold>  (855) 
O=C(Nc1ncc(Nc2ccccc2)c2ccccc12)c1ccccc1

>  <molecular_formula>  (855) 
C27H25ClN5O+

$$$$
ATP-HTVS-88F2ADA8327D
     RDKit          3D

 67 70  0  0  0  0  0  0  0  0999 V2000
  196.3480  182.2473  151.1278 O   0  0  0  0  0  0  0  0  0  0  0  0
  197.1001  181.4305  151.6649 C   0  0  0  0  0  0  0  0  0  0  0  0
  197.6772  181.5983  152.8582 N   0  0  0  0  0  0  0  0  0  0  0  0
  197.6028  182.7089  153.7412 C   0  0  0  0  0  0  0  0  0  0  0  0
  197.9732  182.5302  155.1007 C   0  0  0  0  0  0  0  0  0  0  0  0
  198.4239  181.2738  155.5682 N   0  0  0  0  0  0  0  0  0  0  0  0
  199.7407  180.7738  155.1456 C   0  0  1  0  0  0  0  0  0  0  0  0
  200.7827  181.7897  155.3797 C   0  0  0  0  0  0  0  0  0  0  0  0
  201.5975  182.5893  155.5628 N   0  0  0  0  0  0  0  0  0  0  0  0
  200.1434  179.4317  155.7564 C   0  0  0  0  0  0  0  0  0  0  0  0
  200.7237  179.3668  157.0424 C   0  0  0  0  0  0  0  0  0  0  0  0
  201.0990  178.1237  157.5901 C   0  0  0  0  0  0  0  0  0  0  0  0
  200.8911  176.9370  156.8619 C   0  0  0  0  0  0  0  0  0  0  0  0
  200.3027  176.9936  155.5864 C   0  0  0  0  0  0  0  0  0  0  0  0
  199.9339  178.2350  155.0350 C   0  0  0  0  0  0  0  0  0  0  0  0
  197.3946  180.3832  156.0919 C   0  0  2  0  0  0  0  0  0  0  0  0
  197.8693  183.6433  155.9809 C   0  0  0  0  0  0  0  0  0  0  0  0
  197.4552  184.9012  155.4682 C   0  0  0  0  0  0  0  0  0  0  0  0
  197.1515  185.0267  154.1611 N   0  0  0  0  0  0  0  0  0  0  0  0
  197.1991  183.9929  153.2988 C   0  0  0  0  0  0  0  0  0  0  0  0
  197.3552  186.0266  156.3053 C   0  0  0  0  0  0  0  0  0  0  0  0
  197.6621  185.9059  157.6734 C   0  0  0  0  0  0  0  0  0  0  0  0
  198.0682  184.6638  158.1970 C   0  0  0  0  0  0  0  0  0  0  0  0
  198.1737  183.5385  157.3585 C   0  0  0  0  0  0  0  0  0  0  0  0
  197.4917  180.1706  150.9533 C   0  0  0  0  0  0  0  0  0  0  0  0
  197.3835  180.1326  149.5534 C   0  0  0  0  0  0  0  0  0  0  0  0
  197.7072  178.9705  148.8377 C   0  0  0  0  0  0  0  0  0  0  0  0
  198.2202  177.8310  149.5026 C   0  0  0  0  0  0  0  0  0  0  0  0
  198.6217  176.6934  148.8351 O   0  0  0  0  0  0  0  0  0  0  0  0
  198.4966  176.6871  147.4151 C   0  0  1  0  0  0  0  0  0  0  0  0
  199.5572  177.6062  146.7413 C   0  0  1  0  0  0  0  0  0  0  0  0
  199.2459  177.9533  145.3260 N   0  0  1  0  0  0  0  0  0  0  0  0
  197.9571  178.6629  145.1095 C   0  0  2  0  0  0  0  0  0  0  0  0
  200.3579  178.6926  144.6900 C   0  0  2  0  0  0  0  0  0  0  0  0
  198.3398  177.8663  150.9080 C   0  0  0  0  0  0  0  0  0  0  0  0
  197.9552  179.0175  151.6347 C   0  0  0  0  0  0  0  0  0  0  0  0
  198.2031  180.8084  153.2025 H   0  0  0  0  0  0  0  0  0  0  0  0
  199.7299  180.6313  154.0658 H   0  0  0  0  0  0  0  0  0  0  0  0
  200.8853  180.2645  157.6196 H   0  0  0  0  0  0  0  0  0  0  0  0
  201.5508  178.0768  158.5707 H   0  0  0  0  0  0  0  0  0  0  0  0
  201.1828  175.9843  157.2809 H   0  0  0  0  0  0  0  0  0  0  0  0
  200.1329  176.0850  155.0280 H   0  0  0  0  0  0  0  0  0  0  0  0
  199.4850  178.2570  154.0565 H   0  0  0  0  0  0  0  0  0  0  0  0
  196.3878  180.7723  155.9389 H   0  0  0  0  0  0  0  0  0  0  0  0
  197.5477  180.2386  157.1611 H   0  0  0  0  0  0  0  0  0  0  0  0
  197.4386  179.4032  155.6187 H   0  0  0  0  0  0  0  0  0  0  0  0
  196.9270  184.2401  152.2834 H   0  0  0  0  0  0  0  0  0  0  0  0
  197.0397  186.9819  155.9101 H   0  0  0  0  0  0  0  0  0  0  0  0
  197.5842  186.7659  158.3216 H   0  0  0  0  0  0  0  0  0  0  0  0
  198.3015  184.5737  159.2478 H   0  0  0  0  0  0  0  0  0  0  0  0
  198.4843  182.5957  157.7842 H   0  0  0  0  0  0  0  0  0  0  0  0
  197.0499  181.0043  149.0117 H   0  0  0  0  0  0  0  0  0  0  0  0
  197.5703  179.0140  147.7618 H   0  0  0  0  0  0  0  0  0  0  0  0
  198.5991  175.6646  147.0365 H   0  0  0  0  0  0  0  0  0  0  0  0
  197.4797  176.9905  147.1881 H   0  0  0  0  0  0  0  0  0  0  0  0
  199.6819  178.5478  147.2720 H   0  0  0  0  0  0  0  0  0  0  0  0
  200.5303  177.1049  146.7888 H   0  0  0  0  0  0  0  0  0  0  0  0
  197.9509  179.6275  145.6166 H   0  0  0  0  0  0  0  0  0  0  0  0
  197.0941  178.0850  145.4465 H   0  0  0  0  0  0  0  0  0  0  0  0
  197.8150  178.8765  144.0473 H   0  0  0  0  0  0  0  0  0  0  0  0
  200.5246  179.6555  145.1759 H   0  0  0  0  0  0  0  0  0  0  0  0
  200.1424  178.8853  143.6380 H   0  0  0  0  0  0  0  0  0  0  0  0
  201.2863  178.1219  144.7319 H   0  0  0  0  0  0  0  0  0  0  0  0
  198.7151  176.9952  151.4321 H   0  0  0  0  0  0  0  0  0  0  0  0
  198.0233  179.0015  152.7175 H   0  0  0  0  0  0  0  0  0  0  0  0
  199.1829  177.1060  144.7655 H   0  0  0  0  0  0  0  0  0  0  0  0
  196.8484  185.9382  153.8130 H   0  0  0  0  0  0  0  0  0  0  0  0
  1  2  2  0
  2  3  1  0
  2 25  1  0
  3  4  1  0
  3 37  1  0
  4  5  2  0
  4 20  1  0
  5  6  1  0
  5 17  1  0
  6  7  1  0
  6 16  1  0
  7  8  1  0
  7 10  1  0
  7 38  1  6
  8  9  3  0
 10 11  2  0
 10 15  1  0
 11 12  1  0
 11 39  1  0
 12 13  2  0
 12 40  1  0
 13 14  1  0
 13 41  1  0
 14 15  2  0
 14 42  1  0
 15 43  1  0
 16 44  1  1
 16 45  1  0
 16 46  1  0
 17 18  1  0
 17 24  2  0
 18 19  1  0
 18 21  2  0
 19 20  2  0
 19 67  1  0
 20 47  1  0
 21 22  1  0
 21 48  1  0
 22 23  2  0
 22 49  1  0
 23 24  1  0
 23 50  1  0
 24 51  1  0
 25 26  1  0
 25 36  2  0
 26 27  2  0
 26 52  1  0
 27 28  1  0
 27 53  1  0
 28 29  1  0
 28 35  2  0
 29 30  1  0
 30 31  1  0
 30 54  1  6
 30 55  1  0
 31 32  1  0
 31 56  1  1
 31 57  1  0
 32 33  1  0
 32 34  1  0
 32 66  1  6
 33 58  1  1
 33 59  1  0
 33 60  1  0
 34 61  1  1
 34 62  1  0
 34 63  1  0
 35 36  1  0
 35 64  1  0
 36 65  1  0
M  CHG  2  19   1  32   1
M  END
>  <s_epik_cmdline>  (856) 
J2VwaWtfcHl0aG9uJywgJy1waCcsICc3LjAwMDAwMCcsICctcGh0JywgJzIuMDAwMDAwJywgJy1tcycsICcxNicsICctdG4nLCAnOCcsICctbWEnLCAnMjAwJywgJy1pbWFlJywgJzxpbmZpbGUubWFlPicsICctb21hZScsICc8b3V0ZmlsZS5tYWU+Jw==

>  <s_epik_input>  (856) 
W0NIM11OKFtDSDNdKVtDSDJdW0NIMl1PYyhbY0hdW2NIXTEpW2NIXVtjSF1jMUMoPU8pW05IXWMoW2NIXW5jKGMyMylbY0hdW2NIXVtjSF1bY0hdMyljMk4oW0NIM10pW0NAQEhdKEMjTiljNFtjSF1bY0hdW2NIXVtjSF1bY0hdNA==

>  <s_i_glide_gridfile>  (856) 
ATP-Grid

>  <s_lp_Force_Field>  (856) 
OPLS_2005

>  <s_lp_Variant>  (856) 
rxn502b____EMOL70144015____EMOL30488121____EMOL24630243-1

>  <s_lp_label>  (856) 
2627_sdstereoexpander_1_neutralizer_1_epik_1_stereoizer_1

>  <s_m_source_file>  (856) 
ATP-VSW-LIGPREP-001-in.maegz

>  <s_sd_BIOSOLVEIT.INFINISEE\_QUERY\_NAME>  (856) 
Ref-Lig

>  <s_sd_BIOSOLVEIT.INFINISEE\_QUERY\_SMILES>  (856) 
S(c1nc2c(cc1C[NH2+]Cc3ccc(cc3)C[NH+](C)C)cccc2)Cc4ccccc4

>  <s_sd_BIOSOLVEIT.INFINISEE\_REACTION\_NAME>  (856) 
rxn502b

>  <s_sd_BIOSOLVEIT.INFINISEE\_REAGENT1\_NAME>  (856) 
EMOL70144015

>  <s_sd_BIOSOLVEIT.INFINISEE\_REAGENT1\_SMILES>  (856) 
O=C(O)c1ccc(OCCN(C)C)cc1

>  <s_sd_BIOSOLVEIT.INFINISEE\_REAGENT2\_NAME>  (856) 
EMOL30488121

>  <s_sd_BIOSOLVEIT.INFINISEE\_REAGENT2\_SMILES>  (856) 
Brc1c(N)cnc2c1cccc2

>  <s_sd_BIOSOLVEIT.INFINISEE\_REAGENT3\_NAME>  (856) 
EMOL24630243

>  <s_sd_BIOSOLVEIT.INFINISEE\_REAGENT3\_SMILES>  (856) 
N#CC(NC)c1ccccc1

>  <s_sd_BIOSOLVEIT.INFINISEE\_SPACE>  (856) 
eXplore_7tr_2022-12

>  <s_vsw_compound_code>  (856) 
84033

>  <s_vsw_variant>  (856) 
84033-1

>  <r_epik_Charging_Adjusted_Penalty>  (856) 
0.107856542082572

>  <r_epik_Ionization_Penalty>  (856) 
0.053900000000000003

>  <r_epik_Ionization_Penalty_Charging>  (856) 
0.053900000000000003

>  <r_epik_Ionization_Penalty_Neutral>  (856) 
0

>  <r_epik_State_Penalty>  (856) 
0.053900000000000003

>  <r_i_docking_score>  (856) 
-4.4492256135186699

>  <r_i_glide_ecoul>  (856) 
-8.8624773025512695

>  <r_i_glide_eff_state_penalty>  (856) 
0.053900000000000003

>  <r_i_glide_einternal>  (856) 
6.1994090080261204

>  <r_i_glide_emodel>  (856) 
-61.314471565955898

>  <r_i_glide_energy>  (856) 
-44.9809923171997

>  <r_i_glide_erotb>  (856) 
0.78725654514551402

>  <r_i_glide_esite>  (856) 
-0.12873666556782001

>  <r_i_glide_evdw>  (856) 
-36.118515014648402

>  <r_i_glide_gscore>  (856) 
-4.5031256135186704

>  <r_i_glide_hbond>  (856) 
-0.13508424146255499

>  <r_i_glide_ligand_efficiency>  (856) 
-0.123589600375519

>  <r_i_glide_ligand_efficiency_ln>  (856) 
-0.97070082468500296

>  <r_i_glide_ligand_efficiency_sa>  (856) 
-0.40808386867246399

>  <r_i_glide_lipo>  (856) 
-1.2635497646692

>  <r_i_glide_metal>  (856) 
-0

>  <r_i_glide_rewards>  (856) 
-0.62771414084950306

>  <r_lp_Energy>  (856) 
48.622835000000002

>  <r_lp_tautomer_probability>  (856) 
1

>  <r_qp_ACxDN^.5/SA>  (856) 
0.0108237

>  <r_qp_CIQPlogS>  (856) 
-6.7110000000000003

>  <r_qp_EA(eV)>  (856) 
1.071

>  <r_qp_FISA>  (856) 
94.057000000000002

>  <r_qp_FOSA>  (856) 
289.96100000000001

>  <r_qp_IP(eV)>  (856) 
8.6869999999999994

>  <r_qp_Jm>  (856) 
0.00107753902915715

>  <r_qp_PISA>  (856) 
424.39499999999998

>  <r_qp_PSA>  (856) 
78.846000000000004

>  <r_qp_PercentHumanOralAbsorption>  (856) 
100

>  <r_qp_QPPCaco>  (856) 
316.85000000000002

>  <r_qp_QPPMDCK>  (856) 
158.02000000000001

>  <r_qp_QPlogBB>  (856) 
-0.64200000000000002

>  <r_qp_QPlogHERG>  (856) 
-7.6600000000000001

>  <r_qp_QPlogKhsa>  (856) 
0.55400000000000005

>  <r_qp_QPlogKp>  (856) 
-2.8599999999999999

>  <r_qp_QPlogPC16>  (856) 
16.291

>  <r_qp_QPlogPo/w>  (856) 
4.4569999999999999

>  <r_qp_QPlogPoct>  (856) 
24.327999999999999

>  <r_qp_QPlogPw>  (856) 
13.069000000000001

>  <r_qp_QPlogS>  (856) 
-5.7880000000000003

>  <r_qp_QPpolrz>  (856) 
52.356000000000002

>  <r_qp_SASA>  (856) 
808.41300000000001

>  <r_qp_SAamideO>  (856) 
0

>  <r_qp_SAfluorine>  (856) 
0

>  <r_qp_WPSA>  (856) 
0

>  <r_qp_accptHB>  (856) 
8.75

>  <r_qp_dip^2/V>  (856) 
0.054166300000000001

>  <r_qp_dipole>  (856) 
9.077

>  <r_qp_donorHB>  (856) 
1

>  <r_qp_glob>  (856) 
0.7912614

>  <r_qp_mol_MW>  (856) 
479.57999999999998

>  <r_qp_volume>  (856) 
1521.1869999999999

>  <r_sd_BIOSOLVEIT.INFINISEE\_FTREES\_SIMILARITY>  (856) 
0.91000000000000003

>  <r_sd_BIOSOLVEIT.LOGP>  (856) 
3.7114799999999999

>  <r_sd_BIOSOLVEIT.MOLECULAR\_WEIGHT>  (856) 
480.589

>  <r_sd_BIOSOLVEIT.TPSA>  (856) 
82.689999999999998

>  <i_epik_Tot_Q>  (856) 
2

>  <i_epik_Tot_abs_Q>  (856) 
2

>  <i_f3d_flags>  (856) 
0

>  <i_i_glide_confnum>  (856) 
9

>  <i_i_glide_lignum>  (856) 
1118

>  <i_i_glide_posenum>  (856) 
11

>  <i_i_glide_rotatable_bonds>  (856) 
10

>  <i_lp_mmshare_version>  (856) 
65135

>  <i_m_ct_format>  (856) 
2

>  <i_m_source_file_index>  (856) 
2627

>  <i_qp_#NandO>  (856) 
7

>  <i_qp_#acid>  (856) 
0

>  <i_qp_#amide>  (856) 
0

>  <i_qp_#amidine>  (856) 
0

>  <i_qp_#amine>  (856) 
1

>  <i_qp_#in34>  (856) 
0

>  <i_qp_#in56>  (856) 
22

>  <i_qp_#metab>  (856) 
6

>  <i_qp_#nonHatm>  (856) 
36

>  <i_qp_#noncon>  (856) 
0

>  <i_qp_#ringatoms>  (856) 
22

>  <i_qp_#rotor>  (856) 
10

>  <i_qp_#rtvFG>  (856) 
0

>  <i_qp_#stars>  (856) 
0

>  <i_qp_CNS>  (856) 
1

>  <i_qp_HumanOralAbsorption>  (856) 
3

>  <i_qp_RuleOfFive>  (856) 
0

>  <i_qp_RuleOfThree>  (856) 
1

>  <i_sd_BIOSOLVEIT.INFINISEE\_RESULT\_RANK>  (856) 
44027

>  <i_sd_version>  (856) 
0

>  <b_lp_Chiralities_Consistent>  (856) 
1

>  <b_sd_chiral_flag>  (856) 
0

>  <canonical_id>  (856) 
ATP-HTVS-88F2ADA8327D

>  <compound_code>  (856) 
84033

>  <title>  (856) 
rxn502b____EMOL70144015____EMOL30488121____EMOL24630243

>  <variant>  (856) 
84033-1

>  <source_file>  (856) 
运行/运行/ATP-VSW/ATP-VSW-DOCK_HTVS_1-001_lib/ATP-VSW-DOCK_HTVS_1-001_lib

>  <canonical_smiles>  (856) 
CN(c1c(NC(=O)c2ccc(OCC[NH+](C)C)cc2)c[nH+]c2ccccc12)[C@@H](C#N)c1ccccc1

>  <scaffold>  (856) 
O=C(Nc1c[nH+]c2ccccc2c1NCc1ccccc1)c1ccccc1

>  <molecular_formula>  (856) 
C29H31N5O2+2

$$$$
ATP-HTVS-891CD438FA2D
     RDKit          3D

 61 64  0  0  0  0  0  0  0  0999 V2000
  198.4851  179.4191  153.1123 O   0  0  0  0  0  0  0  0  0  0  0  0
  197.3649  179.8614  153.3895 C   0  0  0  0  0  0  0  0  0  0  0  0
  196.9728  180.0698  154.6570 N   0  0  0  0  0  0  0  0  0  0  0  0
  197.7303  179.7699  155.8720 C   0  0  1  0  0  0  0  0  0  0  0  0
  199.1948  180.2048  155.8410 C   0  0  0  0  0  0  0  0  0  0  0  0
  200.2610  179.3383  156.2184 C   0  0  0  0  0  0  0  0  0  0  0  0
  199.9755  177.9312  156.7478 N   0  0  1  0  0  0  0  0  0  0  0  0
  200.0967  176.8576  155.7175 C   0  0  1  0  0  0  0  0  0  0  0  0
  201.5351  176.5241  155.2537 C   0  0  2  0  0  0  0  0  0  0  0  0
  200.6857  177.6309  158.0127 C   0  0  2  0  0  0  0  0  0  0  0  0
  201.5955  179.7803  156.0762 C   0  0  0  0  0  0  0  0  0  0  0  0
  201.8842  181.0351  155.5231 C   0  0  0  0  0  0  0  0  0  0  0  0
  200.8267  181.8955  155.1552 C   0  0  0  0  0  0  0  0  0  0  0  0
  199.4970  181.4873  155.3331 C   0  0  0  0  0  0  0  0  0  0  0  0
  196.3181  180.1538  152.2905 C   0  0  1  0  0  0  0  0  0  0  0  0
  196.9658  180.5191  151.0295 N   0  0  0  0  0  0  0  0  0  0  0  0
  197.6470  179.6300  150.1901 C   0  0  0  0  0  0  0  0  0  0  0  0
  198.1625  180.4382  149.1410 C   0  0  0  0  0  0  0  0  0  0  0  0
  197.8602  181.7569  149.3384 N   0  0  0  0  0  0  0  0  0  0  0  0
  197.1147  181.7450  150.4539 C   0  0  0  0  0  0  0  0  0  0  0  0
  196.5408  183.0212  151.0529 C   0  0  1  0  0  0  0  0  0  0  0  0
  196.2146  183.9504  150.0128 O   0  0  0  0  0  0  0  0  0  0  0  0
  197.2472  184.5721  149.3566 C   0  0  0  0  0  0  0  0  0  0  0  0
  198.4157  185.0542  149.9972 C   0  0  0  0  0  0  0  0  0  0  0  0
  199.4739  185.5558  149.2156 C   0  0  0  0  0  0  0  0  0  0  0  0
  199.3806  185.5823  147.8169 C   0  0  0  0  0  0  0  0  0  0  0  0
  198.2043  185.1306  147.1828 C   0  0  0  0  0  0  0  0  0  0  0  0
  197.1479  184.6348  147.9624 C   0  0  0  0  0  0  0  0  0  0  0  0
  198.8718  179.8156  148.0878 C   0  0  0  0  0  0  0  0  0  0  0  0
  199.0916  178.4259  148.0936 C   0  0  0  0  0  0  0  0  0  0  0  0
  198.6265  177.6389  149.1698 C   0  0  0  0  0  0  0  0  0  0  0  0
  197.9101  178.2497  150.2305 C   0  0  0  0  0  0  0  0  0  0  0  0
  196.0027  180.2757  154.8152 H   0  0  0  0  0  0  0  0  0  0  0  0
  197.2405  180.2925  156.6959 H   0  0  0  0  0  0  0  0  0  0  0  0
  197.5872  178.7088  156.0478 H   0  0  0  0  0  0  0  0  0  0  0  0
  199.6610  175.9548  156.1264 H   0  0  0  0  0  0  0  0  0  0  0  0
  199.4793  177.1075  154.8527 H   0  0  0  0  0  0  0  0  0  0  0  0
  201.5472  175.7140  154.5196 H   0  0  0  0  0  0  0  0  0  0  0  0
  202.1715  176.1905  156.0750 H   0  0  0  0  0  0  0  0  0  0  0  0
  202.0289  177.3717  154.7731 H   0  0  0  0  0  0  0  0  0  0  0  0
  200.5048  178.4539  158.6962 H   0  0  0  0  0  0  0  0  0  0  0  0
  201.7650  177.5507  157.8813 H   0  0  0  0  0  0  0  0  0  0  0  0
  200.3141  176.7179  158.4650 H   0  0  0  0  0  0  0  0  0  0  0  0
  202.4265  179.1220  156.2903 H   0  0  0  0  0  0  0  0  0  0  0  0
  202.9037  181.3251  155.3084 H   0  0  0  0  0  0  0  0  0  0  0  0
  201.0284  182.8263  154.6505 H   0  0  0  0  0  0  0  0  0  0  0  0
  198.6914  182.1606  155.0479 H   0  0  0  0  0  0  0  0  0  0  0  0
  195.7333  179.2409  152.1158 H   0  0  0  0  0  0  0  0  0  0  0  0
  195.6239  180.9288  152.6098 H   0  0  0  0  0  0  0  0  0  0  0  0
  195.5977  182.8410  151.5674 H   0  0  0  0  0  0  0  0  0  0  0  0
  197.2343  183.4333  151.7678 H   0  0  0  0  0  0  0  0  0  0  0  0
  198.5319  185.0108  151.0674 H   0  0  0  0  0  0  0  0  0  0  0  0
  200.3810  185.8656  149.7060 H   0  0  0  0  0  0  0  0  0  0  0  0
  200.2038  185.9399  147.2213 H   0  0  0  0  0  0  0  0  0  0  0  0
  198.1335  185.1129  146.0985 H   0  0  0  0  0  0  0  0  0  0  0  0
  196.2542  184.2421  147.4784 H   0  0  0  0  0  0  0  0  0  0  0  0
  199.2300  180.4309  147.2773 H   0  0  0  0  0  0  0  0  0  0  0  0
  199.6240  177.9682  147.2679 H   0  0  0  0  0  0  0  0  0  0  0  0
  198.8225  176.5701  149.1747 H   0  0  0  0  0  0  0  0  0  0  0  0
  197.5893  177.6573  151.0724 H   0  0  0  0  0  0  0  0  0  0  0  0
  198.9952  177.8893  157.0473 H   0  0  0  0  0  0  0  0  0  0  0  0
  1  2  2  0
  2  3  1  0
  2 15  1  0
  3  4  1  0
  3 33  1  0
  4  5  1  0
  4 34  1  1
  4 35  1  0
  5  6  1  0
  5 14  2  0
  6  7  1  0
  6 11  2  0
  7  8  1  0
  7 10  1  0
  7 61  1  1
  8  9  1  0
  8 36  1  1
  8 37  1  0
  9 38  1  6
  9 39  1  0
  9 40  1  0
 10 41  1  1
 10 42  1  0
 10 43  1  0
 11 12  1  0
 11 44  1  0
 12 13  2  0
 12 45  1  0
 13 14  1  0
 13 46  1  0
 14 47  1  0
 15 16  1  0
 15 48  1  6
 15 49  1  0
 16 17  1  0
 16 20  1  0
 17 18  1  0
 17 32  2  0
 18 19  1  0
 18 29  2  0
 19 20  2  0
 20 21  1  0
 21 22  1  0
 21 50  1  1
 21 51  1  0
 22 23  1  0
 23 24  2  0
 23 28  1  0
 24 25  1  0
 24 52  1  0
 25 26  2  0
 25 53  1  0
 26 27  1  0
 26 54  1  0
 27 28  2  0
 27 55  1  0
 28 56  1  0
 29 30  1  0
 29 57  1  0
 30 31  2  0
 30 58  1  0
 31 32  1  0
 31 59  1  0
 32 60  1  0
M  CHG  1   7   1
M  END
>  <s_epik_cmdline>  (857) 
J2VwaWtfcHl0aG9uJywgJy1waCcsICc3LjAwMDAwMCcsICctcGh0JywgJzIuMDAwMDAwJywgJy1tcycsICcxNicsICctdG4nLCAnOCcsICctbWEnLCAnMjAwJywgJy1pbWFlJywgJzxpbmZpbGUubWFlPicsICctb21hZScsICc8b3V0ZmlsZS5tYWU+Jw==

>  <s_epik_input>  (857) 
W2NIXTFbY0hdW2NIXVtjSF1jKE4oW0NIM10pW0NIMl1bQ0gzXSljMVtDSDJdW05IXUMoPU8pW0NIMl1uMmMobmMoYzIzKVtjSF1bY0hdW2NIXVtjSF0zKVtDSDJdT2M0W2NIXVtjSF1bY0hdW2NIXVtjSF00

>  <s_i_glide_gridfile>  (857) 
ATP-Grid

>  <s_lp_Force_Field>  (857) 
OPLS_2005

>  <s_lp_Variant>  (857) 
m_11bba____22174476____214826-3

>  <s_lp_label>  (857) 
2052_sdstereoexpander_1_neutralizer_1_epik_3_stereoizer_1

>  <s_m_source_file>  (857) 
ATP-VSW-LIGPREP-003-in.maegz

>  <s_sd_BIOSOLVEIT.INFINISEE\_QUERY\_NAME>  (857) 
Ref-Lig

>  <s_sd_BIOSOLVEIT.INFINISEE\_QUERY\_SMILES>  (857) 
S(c1nc2c(cc1C[NH2+]Cc3ccc(cc3)C[NH+](C)C)cccc2)Cc4ccccc4

>  <s_sd_BIOSOLVEIT.INFINISEE\_REACTION\_NAME>  (857) 
m_11bba

>  <s_sd_BIOSOLVEIT.INFINISEE\_REAGENT1\_SMILES>  (857) 
[R1*]NCc1c(N(CC)C)cccc1

>  <s_sd_BIOSOLVEIT.INFINISEE\_REAGENT2\_SMILES>  (857) 
[R1*]C(=O)CN1c2c(N=C1COc3ccccc3)cccc2

>  <s_sd_BIOSOLVEIT.INFINISEE\_SPACE>  (857) 
REALSpace_44bn_2023-08

>  <s_vsw_compound_code>  (857) 
65635

>  <s_vsw_variant>  (857) 
65635-3

>  <r_epik_Charging_Adjusted_Penalty>  (857) 
4.5250088452182897

>  <r_epik_Ionization_Penalty>  (857) 
2.2723

>  <r_epik_Ionization_Penalty_Charging>  (857) 
2.2467999999999999

>  <r_epik_Ionization_Penalty_Neutral>  (857) 
0.025499999999999998

>  <r_epik_State_Penalty>  (857) 
2.2782

>  <r_i_docking_score>  (857) 
-2.5999577766106401

>  <r_i_glide_ecoul>  (857) 
-11.1824073791504

>  <r_i_glide_eff_state_penalty>  (857) 
2.2782

>  <r_i_glide_einternal>  (857) 
10.0242519378662

>  <r_i_glide_emodel>  (857) 
-57.501542758621497

>  <r_i_glide_energy>  (857) 
-44.032684326171903

>  <r_i_glide_erotb>  (857) 
0.96943141085155204

>  <r_i_glide_esite>  (857) 
-0.14041695280619501

>  <r_i_glide_evdw>  (857) 
-32.850276947021499

>  <r_i_glide_gscore>  (857) 
-4.8781577766106397

>  <r_i_glide_hbond>  (857) 
-0.20000000000000001

>  <r_i_glide_ligand_efficiency>  (857) 
-0.081248680519082406

>  <r_i_glide_ligand_efficiency_ln>  (857) 
-0.58220141835540096

>  <r_i_glide_ligand_efficiency_sa>  (857) 
-0.257948481556045

>  <r_i_glide_lipo>  (857) 
-1.4604494377828301

>  <r_i_glide_metal>  (857) 
-0

>  <r_i_glide_rewards>  (857) 
-0.72684784264953295

>  <r_lp_Energy>  (857) 
26.232108

>  <r_qp_ACxDN^.5/SA>  (857) 
0.0080465999999999992

>  <r_qp_CIQPlogS>  (857) 
-6.2480000000000002

>  <r_qp_EA(eV)>  (857) 
0.17999999999999999

>  <r_qp_FISA>  (857) 
52.859999999999999

>  <r_qp_FOSA>  (857) 
239.42400000000001

>  <r_qp_IP(eV)>  (857) 
8.6430000000000007

>  <r_qp_Jm>  (857) 
3.0352477705008298

>  <r_qp_PISA>  (857) 
422.30599999999998

>  <r_qp_PSA>  (857) 
60.518000000000001

>  <r_qp_PercentHumanOralAbsorption>  (857) 
100

>  <r_qp_QPPCaco>  (857) 
2146.1239999999998

>  <r_qp_QPPMDCK>  (857) 
1694.298

>  <r_qp_QPlogBB>  (857) 
-0.48699999999999999

>  <r_qp_QPlogHERG>  (857) 
-4.875

>  <r_qp_QPlogKhsa>  (857) 
0.504

>  <r_qp_QPlogKp>  (857) 
-0.14199999999999999

>  <r_qp_QPlogPC16>  (857) 
14.438000000000001

>  <r_qp_QPlogPo/w>  (857) 
4.9619999999999997

>  <r_qp_QPlogPoct>  (857) 
20.722999999999999

>  <r_qp_QPlogPw>  (857) 
11.329000000000001

>  <r_qp_QPlogS>  (857) 
-5.008

>  <r_qp_QPpolrz>  (857) 
46.741

>  <r_qp_SASA>  (857) 
714.58900000000006

>  <r_qp_SAamideO>  (857) 
20.475000000000001

>  <r_qp_SAfluorine>  (857) 
0

>  <r_qp_WPSA>  (857) 
0

>  <r_qp_accptHB>  (857) 
5.75

>  <r_qp_dip^2/V>  (857) 
0.056027899999999999

>  <r_qp_dipole>  (857) 
8.7460000000000004

>  <r_qp_donorHB>  (857) 
1

>  <r_qp_glob>  (857) 
0.83291959999999998

>  <r_qp_mol_MW>  (857) 
428.53300000000002

>  <r_qp_volume>  (857) 
1365.3430000000001

>  <r_sd_BIOSOLVEIT.INFINISEE\_FTREES\_SIMILARITY>  (857) 
0.90100000000000002

>  <r_sd_BIOSOLVEIT.LOGP>  (857) 
4.3878000000000004

>  <r_sd_BIOSOLVEIT.MOLECULAR\_WEIGHT>  (857) 
428.53300000000002

>  <r_sd_BIOSOLVEIT.TPSA>  (857) 
59.390000000000001

>  <i_epik_Tot_Q>  (857) 
1

>  <i_epik_Tot_abs_Q>  (857) 
1

>  <i_f3d_flags>  (857) 
0

>  <i_i_glide_confnum>  (857) 
5

>  <i_i_glide_lignum>  (857) 
763

>  <i_i_glide_posenum>  (857) 
4

>  <i_i_glide_rotatable_bonds>  (857) 
10

>  <i_lp_mmshare_version>  (857) 
65135

>  <i_m_ct_format>  (857) 
2

>  <i_m_source_file_index>  (857) 
2052

>  <i_qp_#NandO>  (857) 
6

>  <i_qp_#acid>  (857) 
0

>  <i_qp_#amide>  (857) 
1

>  <i_qp_#amidine>  (857) 
0

>  <i_qp_#amine>  (857) 
0

>  <i_qp_#in34>  (857) 
0

>  <i_qp_#in56>  (857) 
21

>  <i_qp_#metab>  (857) 
6

>  <i_qp_#nonHatm>  (857) 
32

>  <i_qp_#noncon>  (857) 
0

>  <i_qp_#ringatoms>  (857) 
21

>  <i_qp_#rotor>  (857) 
9

>  <i_qp_#rtvFG>  (857) 
0

>  <i_qp_#stars>  (857) 
0

>  <i_qp_CNS>  (857) 
0

>  <i_qp_HumanOralAbsorption>  (857) 
3

>  <i_qp_RuleOfFive>  (857) 
0

>  <i_qp_RuleOfThree>  (857) 
0

>  <i_sd_BIOSOLVEIT.INFINISEE\_REAGENT1\_NAME>  (857) 
22174476

>  <i_sd_BIOSOLVEIT.INFINISEE\_REAGENT2\_NAME>  (857) 
214826

>  <i_sd_BIOSOLVEIT.INFINISEE\_RESULT\_RANK>  (857) 
94134

>  <i_sd_version>  (857) 
0

>  <b_lp_Chiralities_Consistent>  (857) 
1

>  <b_sd_chiral_flag>  (857) 
0

>  <canonical_id>  (857) 
ATP-HTVS-891CD438FA2D

>  <compound_code>  (857) 
65635

>  <title>  (857) 
m_11bba____22174476____214826

>  <variant>  (857) 
65635-3

>  <source_file>  (857) 
运行/运行/ATP-VSW/ATP-VSW-DOCK_HTVS_1-003_lib/ATP-VSW-DOCK_HTVS_1-003_lib.mae

>  <canonical_smiles>  (857) 
CC[N@@H+](C)c1ccccc1CNC(=O)Cn1c(COc2ccccc2)nc2ccccc21

>  <scaffold>  (857) 
O=C(Cn1c(COc2ccccc2)nc2ccccc21)NCc1ccccc1

>  <molecular_formula>  (857) 
C26H29N4O2+

$$$$
ATP-HTVS-892E5C6BD7E4
     RDKit          3D

 58 61  0  0  0  0  0  0  0  0999 V2000
  197.8775  186.1532  154.5922 O   0  0  0  0  0  0  0  0  0  0  0  0
  198.1688  185.5540  153.5844 C   0  0  0  0  0  0  0  0  0  0  0  0
  198.8730  186.2172  152.6166 N   0  0  0  0  0  0  0  0  0  0  0  0
  199.2946  185.6463  151.3967 C   0  0  0  0  0  0  0  0  0  0  0  0
  198.8004  186.1843  150.1819 C   0  0  0  0  0  0  0  0  0  0  0  0
  199.1495  185.5890  148.9575 C   0  0  0  0  0  0  0  0  0  0  0  0
  199.9894  184.4601  148.9357 C   0  0  0  0  0  0  0  0  0  0  0  0
  200.4773  183.9088  150.1364 C   0  0  0  0  0  0  0  0  0  0  0  0
  200.1381  184.5053  151.3628 C   0  0  0  0  0  0  0  0  0  0  0  0
  199.2210  187.6395  152.8456 C   0  0  1  0  0  0  0  0  0  0  0  0
  200.6726  187.8047  153.0163 C   0  0  0  0  0  0  0  0  0  0  0  0
  201.8118  187.9301  153.1597 N   0  0  0  0  0  0  0  0  0  0  0  0
  197.7478  184.1099  153.4211 C   0  0  0  0  0  0  0  0  0  0  0  0
  197.2993  183.7167  152.1723 N   0  0  0  0  0  0  0  0  0  0  0  0
  197.0036  182.3793  152.1100 C   0  0  0  0  0  0  0  0  0  0  0  0
  197.2167  181.8791  153.4278 C   0  0  0  0  0  0  0  0  0  0  0  0
  196.9401  180.4907  153.6093 C   0  0  0  0  0  0  0  0  0  0  0  0
  196.4906  179.6704  152.5535 C   0  0  0  0  0  0  0  0  0  0  0  0
  196.3342  180.1801  151.2552 C   0  0  0  0  0  0  0  0  0  0  0  0
  196.6109  181.5476  151.0367 C   0  0  0  0  0  0  0  0  0  0  0  0
  197.7010  182.9923  154.2523 C   0  0  0  0  0  0  0  0  0  0  0  0
  198.0581  182.8226  155.6250 N   0  0  0  0  0  0  0  0  0  0  0  0
  198.0279  183.9186  156.5961 C   0  0  1  0  0  0  0  0  0  0  0  0
  197.0364  183.8488  157.7231 C   0  0  0  0  0  0  0  0  0  0  0  0
  197.1012  184.7657  158.8059 C   0  0  0  0  0  0  0  0  0  0  0  0
  196.1248  184.6962  159.8209 C   0  0  0  0  0  0  0  0  0  0  0  0
  195.0957  183.7444  159.7320 C   0  0  0  0  0  0  0  0  0  0  0  0
  194.9826  182.8864  158.6357 C   0  0  0  0  0  0  0  0  0  0  0  0
  195.9386  182.9726  157.6182 C   0  0  0  0  0  0  0  0  0  0  0  0
  198.1821  185.8362  158.8833 C   0  0  2  0  0  0  0  0  0  0  0  0
  198.8094  181.6371  156.0497 C   0  0  1  0  0  0  0  0  0  0  0  0
  197.9949  180.6443  156.9306 C   0  0  2  0  0  0  0  0  0  0  0  0
  198.1188  187.0222  150.2096 H   0  0  0  0  0  0  0  0  0  0  0  0
  198.7713  186.0097  148.0367 H   0  0  0  0  0  0  0  0  0  0  0  0
  200.2637  184.0206  147.9909 H   0  0  0  0  0  0  0  0  0  0  0  0
  201.1050  183.0255  150.1215 H   0  0  0  0  0  0  0  0  0  0  0  0
  200.4736  184.0513  152.2881 H   0  0  0  0  0  0  0  0  0  0  0  0
  198.8577  188.2418  152.0185 H   0  0  0  0  0  0  0  0  0  0  0  0
  198.7975  188.1318  153.7189 H   0  0  0  0  0  0  0  0  0  0  0  0
  197.3707  184.3247  151.3632 H   0  0  0  0  0  0  0  0  0  0  0  0
  197.0646  179.9880  154.5328 H   0  0  0  0  0  0  0  0  0  0  0  0
  196.2741  178.6386  152.7830 H   0  0  0  0  0  0  0  0  0  0  0  0
  195.9874  179.5228  150.4677 H   0  0  0  0  0  0  0  0  0  0  0  0
  196.5018  181.9569  150.0380 H   0  0  0  0  0  0  0  0  0  0  0  0
  199.0382  184.1996  156.9166 H   0  0  0  0  0  0  0  0  0  0  0  0
  197.5157  184.7439  156.1729 H   0  0  0  0  0  0  0  0  0  0  0  0
  196.1944  185.3493  160.6791 H   0  0  0  0  0  0  0  0  0  0  0  0
  194.3849  183.6501  160.5385 H   0  0  0  0  0  0  0  0  0  0  0  0
  194.2104  182.1320  158.5626 H   0  0  0  0  0  0  0  0  0  0  0  0
  195.7984  182.3446  156.7467 H   0  0  0  0  0  0  0  0  0  0  0  0
  198.1112  186.3927  159.8177 H   0  0  0  0  0  0  0  0  0  0  0  0
  198.1087  186.5626  158.0685 H   0  0  0  0  0  0  0  0  0  0  0  0
  199.1708  185.3816  158.8513 H   0  0  0  0  0  0  0  0  0  0  0  0
  199.2532  181.1581  155.1664 H   0  0  0  0  0  0  0  0  0  0  0  0
  199.6497  182.0040  156.6457 H   0  0  0  0  0  0  0  0  0  0  0  0
  198.6186  179.7750  157.1626 H   0  0  0  0  0  0  0  0  0  0  0  0
  197.0690  180.2834  156.4974 H   0  0  0  0  0  0  0  0  0  0  0  0
  197.6665  181.0929  157.8684 H   0  0  0  0  0  0  0  0  0  0  0  0
  1  2  2  0
  2  3  1  0
  2 13  1  0
  3  4  1  0
  3 10  1  0
  4  5  2  0
  4  9  1  0
  5  6  1  0
  5 33  1  0
  6  7  2  0
  6 34  1  0
  7  8  1  0
  7 35  1  0
  8  9  2  0
  8 36  1  0
  9 37  1  0
 10 11  1  0
 10 38  1  6
 10 39  1  0
 11 12  3  0
 13 14  1  0
 13 21  2  0
 14 15  1  0
 14 40  1  0
 15 16  1  0
 15 20  2  0
 16 17  2  0
 16 21  1  0
 17 18  1  0
 17 41  1  0
 18 19  2  0
 18 42  1  0
 19 20  1  0
 19 43  1  0
 20 44  1  0
 21 22  1  0
 22 23  1  0
 22 31  1  0
 23 24  1  0
 23 45  1  1
 23 46  1  0
 24 25  1  0
 24 29  2  0
 25 26  2  0
 25 30  1  0
 26 27  1  0
 26 47  1  0
 27 28  2  0
 27 48  1  0
 28 29  1  0
 28 49  1  0
 29 50  1  0
 30 51  1  1
 30 52  1  0
 30 53  1  0
 31 32  1  0
 31 54  1  6
 31 55  1  0
 32 56  1  1
 32 57  1  0
 32 58  1  0
M  END
>  <s_epik_cmdline>  (858) 
J2VwaWtfcHl0aG9uJywgJy1waCcsICc3LjAwMDAwMCcsICctcGh0JywgJzIuMDAwMDAwJywgJy1tcycsICcxNicsICctdG4nLCAnOCcsICctbWEnLCAnMjAwJywgJy1pbWFlJywgJzxpbmZpbGUubWFlPicsICctb21hZScsICc8b3V0ZmlsZS5tYWU+Jw==

>  <s_epik_input>  (858) 
W2NIXTFbY0hdW2NIXVtjSF1bY0hdYzFOKFtDSDJdQyNOKUMoPU8pYyhbbkhdMiljKGMoYzIzKVtjSF1bY0hdW2NIXVtjSF0zKU4oW0NIMl1bQ0gzXSlbQ0gyXWM0YyhbQ0gzXSlbY0hdW2NIXVtjSF1bY0hdNA==

>  <s_i_glide_gridfile>  (858) 
ATP-Grid

>  <s_lp_Force_Field>  (858) 
OPLS_2005

>  <s_lp_Variant>  (858) 
rxn512b____EMOL712348____EMOL719673____EMOL17023805-1

>  <s_lp_label>  (858) 
2965_sdstereoexpander_1_neutralizer_1_epik_1_stereoizer_1

>  <s_m_source_file>  (858) 
ATP-VSW-LIGPREP-001-in.maegz

>  <s_sd_BIOSOLVEIT.INFINISEE\_QUERY\_NAME>  (858) 
Ref-Lig

>  <s_sd_BIOSOLVEIT.INFINISEE\_QUERY\_SMILES>  (858) 
S(c1nc2c(cc1C[NH2+]Cc3ccc(cc3)C[NH+](C)C)cccc2)Cc4ccccc4

>  <s_sd_BIOSOLVEIT.INFINISEE\_REACTION\_NAME>  (858) 
rxn512b

>  <s_sd_BIOSOLVEIT.INFINISEE\_REAGENT1\_NAME>  (858) 
EMOL712348

>  <s_sd_BIOSOLVEIT.INFINISEE\_REAGENT1\_SMILES>  (858) 
N#CCNc1ccccc1

>  <s_sd_BIOSOLVEIT.INFINISEE\_REAGENT2\_NAME>  (858) 
EMOL719673

>  <s_sd_BIOSOLVEIT.INFINISEE\_REAGENT2\_SMILES>  (858) 
BrC=1c2c(NC1C(=O)O)cccc2

>  <s_sd_BIOSOLVEIT.INFINISEE\_REAGENT3\_NAME>  (858) 
EMOL17023805

>  <s_sd_BIOSOLVEIT.INFINISEE\_REAGENT3\_SMILES>  (858) 
N(Cc1c(cccc1)C)CC

>  <s_sd_BIOSOLVEIT.INFINISEE\_SPACE>  (858) 
eXplore_7tr_2022-12

>  <s_vsw_compound_code>  (858) 
94849

>  <s_vsw_variant>  (858) 
94849-1

>  <r_epik_Charging_Adjusted_Penalty>  (858) 
0

>  <r_epik_Ionization_Penalty>  (858) 
0.00020000000000000001

>  <r_epik_Ionization_Penalty_Charging>  (858) 
0

>  <r_epik_Ionization_Penalty_Neutral>  (858) 
0.00020000000000000001

>  <r_epik_State_Penalty>  (858) 
-0

>  <r_i_docking_score>  (858) 
-2.8287771709998299

>  <r_i_glide_ecoul>  (858) 
1.7486652135848999

>  <r_i_glide_eff_state_penalty>  (858) 
-0

>  <r_i_glide_einternal>  (858) 
9.1535902023315394

>  <r_i_glide_emodel>  (858) 
-32.423553353142097

>  <r_i_glide_energy>  (858) 
-31.305610299110398

>  <r_i_glide_erotb>  (858) 
0.66583141583920802

>  <r_i_glide_esite>  (858) 
-0.021851527286952398

>  <r_i_glide_evdw>  (858) 
-33.054275512695298

>  <r_i_glide_gscore>  (858) 
-2.8287771709998299

>  <r_i_glide_hbond>  (858) 
0

>  <r_i_glide_ligand_efficiency>  (858) 
-0.088399286593744603

>  <r_i_glide_ligand_efficiency_ln>  (858) 
-0.63344031814025703

>  <r_i_glide_ligand_efficiency_sa>  (858) 
-0.28065024074007699

>  <r_i_glide_lipo>  (858) 
-1.4769246847180399

>  <r_i_glide_metal>  (858) 
-0

>  <r_i_glide_rewards>  (858) 
-0.60541838123701397

>  <r_lp_Energy>  (858) 
42.327812999999999

>  <r_lp_tautomer_probability>  (858) 
1

>  <r_qp_ACxDN^.5/SA>  (858) 
0.0075843000000000004

>  <r_qp_CIQPlogS>  (858) 
-6.819

>  <r_qp_EA(eV)>  (858) 
0.623

>  <r_qp_FISA>  (858) 
86.866

>  <r_qp_FOSA>  (858) 
189.67500000000001

>  <r_qp_IP(eV)>  (858) 
7.923

>  <r_qp_Jm>  (858) 
0.00075359435875842597

>  <r_qp_PISA>  (858) 
448.63799999999998

>  <r_qp_PSA>  (858) 
63.130000000000003

>  <r_qp_PercentHumanOralAbsorption>  (858) 
100

>  <r_qp_QPPCaco>  (858) 
370.72300000000001

>  <r_qp_QPPMDCK>  (858) 
187.251

>  <r_qp_QPlogBB>  (858) 
-0.38500000000000001

>  <r_qp_QPlogHERG>  (858) 
-7.3360000000000003

>  <r_qp_QPlogKhsa>  (858) 
0.89800000000000002

>  <r_qp_QPlogKp>  (858) 
-2.835

>  <r_qp_QPlogPC16>  (858) 
14.842000000000001

>  <r_qp_QPlogPo/w>  (858) 
4.9199999999999999

>  <r_qp_QPlogPoct>  (858) 
20.774000000000001

>  <r_qp_QPlogPw>  (858) 
10.224

>  <r_qp_QPlogS>  (858) 
-5.9139999999999997

>  <r_qp_QPpolrz>  (858) 
47.402999999999999

>  <r_qp_SASA>  (858) 
725.17899999999997

>  <r_qp_SAamideO>  (858) 
0

>  <r_qp_SAfluorine>  (858) 
0

>  <r_qp_WPSA>  (858) 
0

>  <r_qp_accptHB>  (858) 
5.5

>  <r_qp_dip^2/V>  (858) 
0.039581900000000003

>  <r_qp_dipole>  (858) 
7.3360000000000003

>  <r_qp_donorHB>  (858) 
1

>  <r_qp_glob>  (858) 
0.81842990000000004

>  <r_qp_mol_MW>  (858) 
422.529

>  <r_qp_volume>  (858) 
1359.5419999999999

>  <r_sd_BIOSOLVEIT.INFINISEE\_FTREES\_SIMILARITY>  (858) 
0.90300000000000002

>  <r_sd_BIOSOLVEIT.LOGP>  (858) 
5.6731999999999996

>  <r_sd_BIOSOLVEIT.MOLECULAR\_WEIGHT>  (858) 
422.529

>  <r_sd_BIOSOLVEIT.TPSA>  (858) 
63.130000000000003

>  <i_epik_Tot_Q>  (858) 
0

>  <i_epik_Tot_abs_Q>  (858) 
0

>  <i_f3d_flags>  (858) 
0

>  <i_i_glide_confnum>  (858) 
4

>  <i_i_glide_lignum>  (858) 
1404

>  <i_i_glide_posenum>  (858) 
9

>  <i_i_glide_rotatable_bonds>  (858) 
8

>  <i_lp_mmshare_version>  (858) 
65135

>  <i_m_ct_format>  (858) 
2

>  <i_m_source_file_index>  (858) 
2965

>  <i_qp_#NandO>  (858) 
5

>  <i_qp_#acid>  (858) 
0

>  <i_qp_#amide>  (858) 
0

>  <i_qp_#amidine>  (858) 
0

>  <i_qp_#amine>  (858) 
1

>  <i_qp_#in34>  (858) 
0

>  <i_qp_#in56>  (858) 
21

>  <i_qp_#metab>  (858) 
6

>  <i_qp_#nonHatm>  (858) 
32

>  <i_qp_#noncon>  (858) 
0

>  <i_qp_#ringatoms>  (858) 
21

>  <i_qp_#rotor>  (858) 
8

>  <i_qp_#rtvFG>  (858) 
0

>  <i_qp_#stars>  (858) 
0

>  <i_qp_CNS>  (858) 
1

>  <i_qp_HumanOralAbsorption>  (858) 
3

>  <i_qp_RuleOfFive>  (858) 
0

>  <i_qp_RuleOfThree>  (858) 
1

>  <i_sd_BIOSOLVEIT.INFINISEE\_RESULT\_RANK>  (858) 
81950

>  <i_sd_version>  (858) 
0

>  <b_lp_Chiralities_Consistent>  (858) 
1

>  <b_sd_chiral_flag>  (858) 
0

>  <canonical_id>  (858) 
ATP-HTVS-892E5C6BD7E4

>  <compound_code>  (858) 
94849

>  <title>  (858) 
rxn512b____EMOL712348____EMOL719673____EMOL17023805

>  <variant>  (858) 
94849-1

>  <source_file>  (858) 
运行/运行/ATP-VSW/ATP-VSW-DOCK_HTVS_1-001_lib/ATP-VSW-DOCK_HTVS_1-001_lib

>  <canonical_smiles>  (858) 
CCN(Cc1ccccc1C)c1c(C(=O)N(CC#N)c2ccccc2)[nH]c2ccccc12

>  <scaffold>  (858) 
O=C(Nc1ccccc1)c1[nH]c2ccccc2c1NCc1ccccc1

>  <molecular_formula>  (858) 
C27H26N4O

$$$$
ATP-HTVS-89495CC893EC
     RDKit          3D

 58 62  0  0  0  0  0  0  0  0999 V2000
  199.7819  182.5341  157.1706 N   0  0  0  0  0  0  0  0  0  0  0  0
  198.4747  182.7585  157.4303 C   0  0  0  0  0  0  0  0  0  0  0  0
  197.5476  182.3963  156.4480 N   0  0  0  0  0  0  0  0  0  0  0  0
  197.8487  182.7447  155.0736 C   0  0  1  0  0  0  0  0  0  0  0  0
  198.1560  181.5557  154.1705 C   0  0  0  0  0  0  0  0  0  0  0  0
  197.8971  181.5857  152.7698 C   0  0  0  0  0  0  0  0  0  0  0  0
  197.3826  182.7256  152.1200 N   0  0  0  0  0  0  0  0  0  0  0  0
  197.8015  184.0873  152.4444 C   0  0  1  0  0  0  0  0  0  0  0  0
  198.2264  184.8466  151.1894 C   0  0  1  0  0  0  0  0  0  0  0  0
  197.1415  184.8401  150.2127 N   0  0  0  0  0  0  0  0  0  0  0  0
  196.8355  183.4607  149.8312 C   0  0  1  0  0  0  0  0  0  0  0  0
  196.3767  182.6474  151.0605 C   0  0  1  0  0  0  0  0  0  0  0  0
  197.5628  185.5985  149.0493 C   0  0  2  0  0  0  0  0  0  0  0  0
  198.1837  180.4252  152.0067 C   0  0  0  0  0  0  0  0  0  0  0  0
  198.7325  179.2715  152.6073 C   0  0  0  0  0  0  0  0  0  0  0  0
  198.9946  179.2547  153.9830 C   0  0  0  0  0  0  0  0  0  0  0  0
  198.7077  180.3849  154.7549 C   0  0  0  0  0  0  0  0  0  0  0  0
  198.0532  183.3450  158.6508 C   0  0  0  0  0  0  0  0  0  0  0  0
  198.9625  183.6954  159.5875 N   0  0  0  0  0  0  0  0  0  0  0  0
  200.2705  183.4569  159.3422 C   0  0  0  0  0  0  0  0  0  0  0  0
  200.6880  182.8607  158.1151 C   0  0  0  0  0  0  0  0  0  0  0  0
  202.0622  182.6159  157.9012 C   0  0  0  0  0  0  0  0  0  0  0  0
  203.0184  182.9729  158.8719 C   0  0  0  0  0  0  0  0  0  0  0  0
  202.6045  183.5693  160.0756 C   0  0  0  0  0  0  0  0  0  0  0  0
  201.2372  183.8003  160.3057 C   0  0  0  0  0  0  0  0  0  0  0  0
  196.6456  183.6281  158.9831 C   0  0  0  0  0  0  0  0  0  0  0  0
  195.6091  182.7137  158.6748 C   0  0  0  0  0  0  0  0  0  0  0  0
  194.2688  183.0254  158.9294 C   0  0  0  0  0  0  0  0  0  0  0  0
  193.9427  184.2389  159.5628 C   0  0  0  0  0  0  0  0  0  0  0  0
  194.9606  185.1542  159.8997 C   0  0  0  0  0  0  0  0  0  0  0  0
  196.2971  184.8554  159.5997 C   0  0  0  0  0  0  0  0  0  0  0  0
  196.5708  182.5328  156.6789 H   0  0  0  0  0  0  0  0  0  0  0  0
  196.9537  183.2587  154.7266 H   0  0  0  0  0  0  0  0  0  0  0  0
  198.6877  183.4450  155.0364 H   0  0  0  0  0  0  0  0  0  0  0  0
  196.9773  184.6156  152.9340 H   0  0  0  0  0  0  0  0  0  0  0  0
  198.6730  184.0872  153.0905 H   0  0  0  0  0  0  0  0  0  0  0  0
  198.4831  185.8672  151.4685 H   0  0  0  0  0  0  0  0  0  0  0  0
  199.1232  184.3923  150.7743 H   0  0  0  0  0  0  0  0  0  0  0  0
  196.0507  183.4734  149.0789 H   0  0  0  0  0  0  0  0  0  0  0  0
  197.7128  182.9924  149.3902 H   0  0  0  0  0  0  0  0  0  0  0  0
  196.1565  181.6155  150.7839 H   0  0  0  0  0  0  0  0  0  0  0  0
  195.4446  183.0581  151.4545 H   0  0  0  0  0  0  0  0  0  0  0  0
  196.7638  185.6286  148.3080 H   0  0  0  0  0  0  0  0  0  0  0  0
  198.4546  185.1570  148.5972 H   0  0  0  0  0  0  0  0  0  0  0  0
  197.7959  186.6213  149.3479 H   0  0  0  0  0  0  0  0  0  0  0  0
  198.0091  180.4171  150.9393 H   0  0  0  0  0  0  0  0  0  0  0  0
  198.9586  178.4019  152.0052 H   0  0  0  0  0  0  0  0  0  0  0  0
  199.4167  178.3837  154.4550 H   0  0  0  0  0  0  0  0  0  0  0  0
  198.9166  180.3427  155.8123 H   0  0  0  0  0  0  0  0  0  0  0  0
  202.3879  182.1530  156.9784 H   0  0  0  0  0  0  0  0  0  0  0  0
  204.0695  182.7981  158.6925 H   0  0  0  0  0  0  0  0  0  0  0  0
  203.3261  183.8577  160.8224 H   0  0  0  0  0  0  0  0  0  0  0  0
  200.9171  184.2532  161.2322 H   0  0  0  0  0  0  0  0  0  0  0  0
  195.8167  181.7551  158.2203 H   0  0  0  0  0  0  0  0  0  0  0  0
  193.4927  182.3246  158.6653 H   0  0  0  0  0  0  0  0  0  0  0  0
  192.9125  184.4800  159.7685 H   0  0  0  0  0  0  0  0  0  0  0  0
  194.7108  186.0913  160.3721 H   0  0  0  0  0  0  0  0  0  0  0  0
  197.0705  185.5775  159.8334 H   0  0  0  0  0  0  0  0  0  0  0  0
  1  2  2  0
  1 21  1  0
  2  3  1  0
  2 18  1  0
  3  4  1  0
  3 32  1  0
  4  5  1  0
  4 33  1  6
  4 34  1  0
  5  6  1  0
  5 17  2  0
  6  7  1  0
  6 14  2  0
  7  8  1  0
  7 12  1  0
  8  9  1  0
  8 35  1  1
  8 36  1  0
  9 10  1  0
  9 37  1  1
  9 38  1  0
 10 11  1  0
 10 13  1  0
 11 12  1  0
 11 39  1  6
 11 40  1  0
 12 41  1  6
 12 42  1  0
 13 43  1  6
 13 44  1  0
 13 45  1  0
 14 15  1  0
 14 46  1  0
 15 16  2  0
 15 47  1  0
 16 17  1  0
 16 48  1  0
 17 49  1  0
 18 19  2  0
 18 26  1  0
 19 20  1  0
 20 21  1  0
 20 25  2  0
 21 22  2  0
 22 23  1  0
 22 50  1  0
 23 24  2  0
 23 51  1  0
 24 25  1  0
 24 52  1  0
 25 53  1  0
 26 27  2  0
 26 31  1  0
 27 28  1  0
 27 54  1  0
 28 29  2  0
 28 55  1  0
 29 30  1  0
 29 56  1  0
 30 31  2  0
 30 57  1  0
 31 58  1  0
M  END
>  <s_epik_cmdline>  (859) 
J2VwaWtfcHl0aG9uJywgJy1waCcsICc3LjAwMDAwMCcsICctcGh0JywgJzIuMDAwMDAwJywgJy1tcycsICcxNicsICctdG4nLCAnOCcsICctbWEnLCAnMjAwJywgJy1pbWFlJywgJzxpbmZpbGUubWFlPicsICctb21hZScsICc8b3V0ZmlsZS5tYWU+Jw==

>  <s_epik_input>  (859) 
W2NIXTFbY0hdW2NIXVtjSF1bY0hdYzEtYyhuMiljKG5jKGMyMylbY0hdW2NIXVtjSF1bY0hdMylbTkhdW0NIMl1jNGMoW2NIXVtjSF1bY0hdW2NIXTQpTjVbQ0gyXVtDSDJdTihbQ0gzXSlbQ0gyXVtDSDJdNQ==

>  <s_i_glide_gridfile>  (859) 
ATP-Grid

>  <s_lp_Force_Field>  (859) 
OPLS_2005

>  <s_lp_Variant>  (859) 
rxn102c____EMOL1087657____EMOL725234-2

>  <s_lp_label>  (859) 
2810_sdstereoexpander_1_neutralizer_1_epik_2_stereoizer_1

>  <s_m_source_file>  (859) 
ATP-VSW-LIGPREP-001-in.maegz

>  <s_sd_BIOSOLVEIT.INFINISEE\_QUERY\_NAME>  (859) 
Ref-Lig

>  <s_sd_BIOSOLVEIT.INFINISEE\_QUERY\_SMILES>  (859) 
S(c1nc2c(cc1C[NH2+]Cc3ccc(cc3)C[NH+](C)C)cccc2)Cc4ccccc4

>  <s_sd_BIOSOLVEIT.INFINISEE\_REACTION\_NAME>  (859) 
rxn102c

>  <s_sd_BIOSOLVEIT.INFINISEE\_REAGENT1\_NAME>  (859) 
EMOL1087657

>  <s_sd_BIOSOLVEIT.INFINISEE\_REAGENT1\_SMILES>  (859) 
Clc1nc2c(nc1c3ccccc3)cccc2

>  <s_sd_BIOSOLVEIT.INFINISEE\_REAGENT2\_NAME>  (859) 
EMOL725234

>  <s_sd_BIOSOLVEIT.INFINISEE\_REAGENT2\_SMILES>  (859) 
N1(c2c(cccc2)CN)CCN(CC1)C

>  <s_sd_BIOSOLVEIT.INFINISEE\_SPACE>  (859) 
eXplore_7tr_2022-12

>  <s_vsw_compound_code>  (859) 
89889

>  <s_vsw_variant>  (859) 
89889-2

>  <r_epik_Charging_Adjusted_Penalty>  (859) 
0.58901942956839204

>  <r_epik_Ionization_Penalty>  (859) 
1.3475999999999999

>  <r_epik_Ionization_Penalty_Charging>  (859) 
0

>  <r_epik_Ionization_Penalty_Neutral>  (859) 
1.3475999999999999

>  <r_epik_State_Penalty>  (859) 
0.58899999999999997

>  <r_i_docking_score>  (859) 
-3.0468089848825901

>  <r_i_glide_ecoul>  (859) 
-1.8053963184356701

>  <r_i_glide_eff_state_penalty>  (859) 
0.58899999999999997

>  <r_i_glide_einternal>  (859) 
3.51460862159729

>  <r_i_glide_emodel>  (859) 
-41.269187214355298

>  <r_i_glide_energy>  (859) 
-35.126929521560697

>  <r_i_glide_erotb>  (859) 
0.58706759144727305

>  <r_i_glide_esite>  (859) 
-0.040934820557887497

>  <r_i_glide_evdw>  (859) 
-33.321533203125

>  <r_i_glide_gscore>  (859) 
-3.6358089848825901

>  <r_i_glide_hbond>  (859) 
0

>  <r_i_glide_ligand_efficiency>  (859) 
-0.098284160802664403

>  <r_i_glide_ligand_efficiency_ln>  (859) 
-0.68714879957268105

>  <r_i_glide_ligand_efficiency_sa>  (859) 
-0.30874796082860201

>  <r_i_glide_lipo>  (859) 
-1.62818801148675

>  <r_i_glide_metal>  (859) 
-0

>  <r_i_glide_rewards>  (859) 
-0.61686763636363495

>  <r_lp_Energy>  (859) 
57.251268000000003

>  <r_qp_ACxDN^.5/SA>  (859) 
0.0084507000000000002

>  <r_qp_CIQPlogS>  (859) 
-5.7130000000000001

>  <r_qp_EA(eV)>  (859) 
1.0349999999999999

>  <r_qp_FISA>  (859) 
24.965

>  <r_qp_FOSA>  (859) 
168.49000000000001

>  <r_qp_IP(eV)>  (859) 
8.4960000000000004

>  <r_qp_Jm>  (859) 
0.21002062970957699

>  <r_qp_PISA>  (859) 
457.37599999999998

>  <r_qp_PSA>  (859) 
36.566000000000003

>  <r_qp_PercentHumanOralAbsorption>  (859) 
100

>  <r_qp_QPPCaco>  (859) 
1432.3879999999999

>  <r_qp_QPPMDCK>  (859) 
807.07299999999998

>  <r_qp_QPlogBB>  (859) 
0.50600000000000001

>  <r_qp_QPlogHERG>  (859) 
-6.3760000000000003

>  <r_qp_QPlogKhsa>  (859) 
0.90200000000000002

>  <r_qp_QPlogKp>  (859) 
-2.0470000000000002

>  <r_qp_QPlogPC16>  (859) 
13.82

>  <r_qp_QPlogPo/w>  (859) 
4.9400000000000004

>  <r_qp_QPlogPoct>  (859) 
20.291

>  <r_qp_QPlogPw>  (859) 
10.566000000000001

>  <r_qp_QPlogS>  (859) 
-4.2430000000000003

>  <r_qp_QPpolrz>  (859) 
47.249000000000002

>  <r_qp_SASA>  (859) 
650.83000000000004

>  <r_qp_SAamideO>  (859) 
0

>  <r_qp_SAfluorine>  (859) 
0

>  <r_qp_WPSA>  (859) 
0

>  <r_qp_accptHB>  (859) 
5.5

>  <r_qp_dip^2/V>  (859) 
0.0039375

>  <r_qp_dipole>  (859) 
2.2530000000000001

>  <r_qp_donorHB>  (859) 
1

>  <r_qp_glob>  (859) 
0.88030589999999997

>  <r_qp_mol_MW>  (859) 
409.53300000000002

>  <r_qp_volume>  (859) 
1289.4490000000001

>  <r_sd_BIOSOLVEIT.INFINISEE\_FTREES\_SIMILARITY>  (859) 
0.90600000000000003

>  <r_sd_BIOSOLVEIT.LOGP>  (859) 
3.2435999999999998

>  <r_sd_BIOSOLVEIT.MOLECULAR\_WEIGHT>  (859) 
410.54199999999997

>  <r_sd_BIOSOLVEIT.TPSA>  (859) 
45.490000000000002

>  <i_epik_Tot_Q>  (859) 
0

>  <i_epik_Tot_abs_Q>  (859) 
0

>  <i_f3d_flags>  (859) 
0

>  <i_i_glide_confnum>  (859) 
3

>  <i_i_glide_lignum>  (859) 
1282

>  <i_i_glide_posenum>  (859) 
20

>  <i_i_glide_rotatable_bonds>  (859) 
5

>  <i_lp_mmshare_version>  (859) 
65135

>  <i_m_ct_format>  (859) 
2

>  <i_m_source_file_index>  (859) 
2810

>  <i_qp_#NandO>  (859) 
5

>  <i_qp_#acid>  (859) 
0

>  <i_qp_#amide>  (859) 
0

>  <i_qp_#amidine>  (859) 
0

>  <i_qp_#amine>  (859) 
1

>  <i_qp_#in34>  (859) 
0

>  <i_qp_#in56>  (859) 
28

>  <i_qp_#metab>  (859) 
2

>  <i_qp_#nonHatm>  (859) 
31

>  <i_qp_#noncon>  (859) 
4

>  <i_qp_#ringatoms>  (859) 
28

>  <i_qp_#rotor>  (859) 
4

>  <i_qp_#rtvFG>  (859) 
0

>  <i_qp_#stars>  (859) 
1

>  <i_qp_CNS>  (859) 
2

>  <i_qp_HumanOralAbsorption>  (859) 
3

>  <i_qp_RuleOfFive>  (859) 
0

>  <i_qp_RuleOfThree>  (859) 
0

>  <i_sd_BIOSOLVEIT.INFINISEE\_RESULT\_RANK>  (859) 
64568

>  <i_sd_version>  (859) 
0

>  <b_lp_Chiralities_Consistent>  (859) 
1

>  <b_sd_chiral_flag>  (859) 
0

>  <canonical_id>  (859) 
ATP-HTVS-89495CC893EC

>  <compound_code>  (859) 
89889

>  <title>  (859) 
rxn102c____EMOL1087657____EMOL725234

>  <variant>  (859) 
89889-2

>  <source_file>  (859) 
运行/运行/ATP-VSW/ATP-VSW-DOCK_HTVS_1-001_lib/ATP-VSW-DOCK_HTVS_1-001_lib

>  <canonical_smiles>  (859) 
CN1CCN(c2ccccc2CNc2nc3ccccc3nc2-c2ccccc2)CC1

>  <scaffold>  (859) 
c1ccc(-c2nc3ccccc3nc2NCc2ccccc2N2CCNCC2)cc1

>  <molecular_formula>  (859) 
C26H27N5

$$$$
ATP-HTVS-894F1E46B14F
     RDKit          3D

 69 72  0  0  0  0  0  0  0  0999 V2000
  199.1598  175.4365  148.8991 O   0  0  0  0  0  0  0  0  0  0  0  0
  198.5709  176.3509  149.4773 C   0  0  0  0  0  0  0  0  0  0  0  0
  197.8321  177.2817  148.8619 N   0  0  0  0  0  0  0  0  0  0  0  0
  197.6143  177.3988  147.4309 C   0  0  1  0  0  0  0  0  0  0  0  0
  198.2933  178.6059  146.8003 C   0  0  0  0  0  0  0  0  0  0  0  0
  198.4234  178.6507  145.3956 C   0  0  0  0  0  0  0  0  0  0  0  0
  199.0515  179.7436  144.7716 C   0  0  0  0  0  0  0  0  0  0  0  0
  199.5482  180.8085  145.5491 C   0  0  0  0  0  0  0  0  0  0  0  0
  199.4138  180.7763  146.9509 C   0  0  0  0  0  0  0  0  0  0  0  0
  198.7858  179.6823  147.5764 C   0  0  0  0  0  0  0  0  0  0  0  0
  198.6502  176.5228  150.9909 C   0  0  1  0  0  0  0  0  0  0  0  0
  199.6173  175.6241  151.6178 N   0  0  0  0  0  0  0  0  0  0  0  0
  200.4882  176.0532  152.6322 C   0  0  0  0  0  0  0  0  0  0  0  0
  200.6020  177.3762  152.8434 N   0  0  0  0  0  0  0  0  0  0  0  0
  201.4395  177.8328  153.7718 C   0  0  0  0  0  0  0  0  0  0  0  0
  202.1691  177.0286  154.5546 N   0  0  0  0  0  0  0  0  0  0  0  0
  202.0868  175.6924  154.3971 C   0  0  0  0  0  0  0  0  0  0  0  0
  201.2397  175.1409  153.4066 C   0  0  0  0  0  0  0  0  0  0  0  0
  201.1871  173.7352  153.2560 C   0  0  0  0  0  0  0  0  0  0  0  0
  201.9655  172.9098  154.0913 C   0  0  0  0  0  0  0  0  0  0  0  0
  202.8038  173.4727  155.0760 C   0  0  0  0  0  0  0  0  0  0  0  0
  202.8587  174.8702  155.2323 C   0  0  0  0  0  0  0  0  0  0  0  0
  201.5379  179.1960  153.9162 N   0  0  0  0  0  0  0  0  0  0  0  0
  202.4066  179.8545  154.8819 C   0  0  1  0  0  0  0  0  0  0  0  0
  201.8555  179.8202  156.3228 C   0  0  1  0  0  0  0  0  0  0  0  0
  200.4569  180.4084  156.4348 C   0  0  0  0  0  0  0  0  0  0  0  0
  200.2789  181.7319  156.8901 C   0  0  0  0  0  0  0  0  0  0  0  0
  198.9882  182.2905  156.9595 C   0  0  0  0  0  0  0  0  0  0  0  0
  197.8600  181.5287  156.5876 C   0  0  0  0  0  0  0  0  0  0  0  0
  198.0386  180.2049  156.1339 C   0  0  0  0  0  0  0  0  0  0  0  0
  199.3277  179.6427  156.0781 C   0  0  0  0  0  0  0  0  0  0  0  0
  196.4590  182.1135  156.7026 C   0  0  1  0  0  0  0  0  0  0  0  0
  195.8379  181.8416  158.0262 N   0  0  1  0  0  0  0  0  0  0  0  0
  196.4926  182.5617  159.1438 C   0  0  2  0  0  0  0  0  0  0  0  0
  194.3771  182.0704  158.0445 C   0  0  2  0  0  0  0  0  0  0  0  0
  197.4282  178.0035  149.4390 H   0  0  0  0  0  0  0  0  0  0  0  0
  197.9482  176.4960  146.9167 H   0  0  0  0  0  0  0  0  0  0  0  0
  196.5449  177.4805  147.2584 H   0  0  0  0  0  0  0  0  0  0  0  0
  198.0522  177.8373  144.7876 H   0  0  0  0  0  0  0  0  0  0  0  0
  199.1599  179.7512  143.6974 H   0  0  0  0  0  0  0  0  0  0  0  0
  200.0382  181.6453  145.0708 H   0  0  0  0  0  0  0  0  0  0  0  0
  199.7943  181.5887  147.5507 H   0  0  0  0  0  0  0  0  0  0  0  0
  198.6949  179.6888  148.6515 H   0  0  0  0  0  0  0  0  0  0  0  0
  198.8297  177.5884  151.1730 H   0  0  0  0  0  0  0  0  0  0  0  0
  197.6773  176.2796  151.4172 H   0  0  0  0  0  0  0  0  0  0  0  0
  199.5473  174.6420  151.4053 H   0  0  0  0  0  0  0  0  0  0  0  0
  200.5600  173.2708  152.5083 H   0  0  0  0  0  0  0  0  0  0  0  0
  201.9412  171.8376  153.9798 H   0  0  0  0  0  0  0  0  0  0  0  0
  203.4049  172.8259  155.7017 H   0  0  0  0  0  0  0  0  0  0  0  0
  203.4910  175.3023  155.9948 H   0  0  0  0  0  0  0  0  0  0  0  0
  200.8608  179.7491  153.4122 H   0  0  0  0  0  0  0  0  0  0  0  0
  203.3931  179.3885  154.8487 H   0  0  0  0  0  0  0  0  0  0  0  0
  202.5377  180.8872  154.5626 H   0  0  0  0  0  0  0  0  0  0  0  0
  201.8459  178.7998  156.7130 H   0  0  0  0  0  0  0  0  0  0  0  0
  202.5361  180.3751  156.9723 H   0  0  0  0  0  0  0  0  0  0  0  0
  201.1320  182.3261  157.1940 H   0  0  0  0  0  0  0  0  0  0  0  0
  198.8667  183.2966  157.3268 H   0  0  0  0  0  0  0  0  0  0  0  0
  197.1871  179.5881  155.8690 H   0  0  0  0  0  0  0  0  0  0  0  0
  199.4397  178.6170  155.7645 H   0  0  0  0  0  0  0  0  0  0  0  0
  196.4867  183.1912  156.5179 H   0  0  0  0  0  0  0  0  0  0  0  0
  195.8466  181.6760  155.9090 H   0  0  0  0  0  0  0  0  0  0  0  0
  196.4135  183.6402  159.0011 H   0  0  0  0  0  0  0  0  0  0  0  0
  197.5471  182.3074  159.2401 H   0  0  0  0  0  0  0  0  0  0  0  0
  196.0184  182.3210  160.0960 H   0  0  0  0  0  0  0  0  0  0  0  0
  194.1416  183.1032  157.7800 H   0  0  0  0  0  0  0  0  0  0  0  0
  193.9516  181.8516  159.0282 H   0  0  0  0  0  0  0  0  0  0  0  0
  193.8847  181.4081  157.3321 H   0  0  0  0  0  0  0  0  0  0  0  0
  202.7792  177.4035  155.2771 H   0  0  0  0  0  0  0  0  0  0  0  0
  195.9407  180.8305  158.1507 H   0  0  0  0  0  0  0  0  0  0  0  0
  1  2  2  0
  2  3  1  0
  2 11  1  0
  3  4  1  0
  3 36  1  0
  4  5  1  0
  4 37  1  6
  4 38  1  0
  5  6  2  0
  5 10  1  0
  6  7  1  0
  6 39  1  0
  7  8  2  0
  7 40  1  0
  8  9  1  0
  8 41  1  0
  9 10  2  0
  9 42  1  0
 10 43  1  0
 11 12  1  0
 11 44  1  6
 11 45  1  0
 12 13  1  0
 12 46  1  0
 13 14  2  0
 13 18  1  0
 14 15  1  0
 15 16  2  0
 15 23  1  0
 16 17  1  0
 16 68  1  0
 17 18  1  0
 17 22  2  0
 18 19  2  0
 19 20  1  0
 19 47  1  0
 20 21  2  0
 20 48  1  0
 21 22  1  0
 21 49  1  0
 22 50  1  0
 23 24  1  0
 23 51  1  0
 24 25  1  0
 24 52  1  1
 24 53  1  0
 25 26  1  0
 25 54  1  1
 25 55  1  0
 26 27  1  0
 26 31  2  0
 27 28  2  0
 27 56  1  0
 28 29  1  0
 28 57  1  0
 29 30  2  0
 29 32  1  0
 30 31  1  0
 30 58  1  0
 31 59  1  0
 32 33  1  0
 32 60  1  6
 32 61  1  0
 33 34  1  0
 33 35  1  0
 33 69  1  1
 34 62  1  6
 34 63  1  0
 34 64  1  0
 35 65  1  6
 35 66  1  0
 35 67  1  0
M  CHG  2  16   1  33   1
M  END
>  <s_epik_cmdline>  (860) 
J2VwaWtfcHl0aG9uJywgJy1waCcsICc3LjAwMDAwMCcsICctcGh0JywgJzIuMDAwMDAwJywgJy1tcycsICcxNicsICctdG4nLCAnOCcsICctbWEnLCAnMjAwJywgJy1pbWFlJywgJzxpbmZpbGUubWFlPicsICctb21hZScsICc8b3V0ZmlsZS5tYWU+Jw==

>  <s_epik_input>  (860) 
W2NIXTFbY0hdW2NIXVtjSF1bY0hdYzFbQ0gyXVtOSF1DKD1PKVtDSDJdW05IXWMoYyhjMjMpW2NIXVtjSF1bY0hdW2NIXTMpbmMobjIpW05IXVtDSDJdW0NIMl1jNFtjSF1bY0hdYyhbY0hdW2NIXTQpW0NIMl1OKFtDSDNdKVtDSDNd

>  <s_i_glide_gridfile>  (860) 
ATP-Grid

>  <s_lp_Force_Field>  (860) 
OPLS_2005

>  <s_lp_Variant>  (860) 
m_282030aaa____21926464____22360182____21963750-1

>  <s_lp_label>  (860) 
1502_sdstereoexpander_1_neutralizer_1_epik_1_stereoizer_1

>  <s_m_source_file>  (860) 
ATP-VSW-LIGPREP-002-in.maegz

>  <s_sd_BIOSOLVEIT.INFINISEE\_QUERY\_NAME>  (860) 
Ref-Lig

>  <s_sd_BIOSOLVEIT.INFINISEE\_QUERY\_SMILES>  (860) 
S(c1nc2c(cc1C[NH2+]Cc3ccc(cc3)C[NH+](C)C)cccc2)Cc4ccccc4

>  <s_sd_BIOSOLVEIT.INFINISEE\_REACTION\_NAME>  (860) 
m_282030aaa

>  <s_sd_BIOSOLVEIT.INFINISEE\_REAGENT1\_SMILES>  (860) 
[R1*]NCCc1ccc(cc1)CN(C)C

>  <s_sd_BIOSOLVEIT.INFINISEE\_REAGENT2\_SMILES>  (860) 
[R2*]c1nc([R1*])c2c(n1)cccc2

>  <s_sd_BIOSOLVEIT.INFINISEE\_REAGENT3\_SMILES>  (860) 
[R2*]NCC(=O)NCc1ccccc1

>  <s_sd_BIOSOLVEIT.INFINISEE\_SPACE>  (860) 
REALSpace_44bn_2023-08

>  <s_vsw_compound_code>  (860) 
48034

>  <s_vsw_variant>  (860) 
48034-1

>  <r_epik_Charging_Adjusted_Penalty>  (860) 
0.154247478751869

>  <r_epik_Ionization_Penalty>  (860) 
0.071800000000000003

>  <r_epik_Ionization_Penalty_Charging>  (860) 
0.071800000000000003

>  <r_epik_Ionization_Penalty_Neutral>  (860) 
0

>  <r_epik_State_Penalty>  (860) 
0.082500000000000004

>  <r_i_docking_score>  (860) 
-3.9960269719394002

>  <r_i_glide_ecoul>  (860) 
-10.3645839691162

>  <r_i_glide_eff_state_penalty>  (860) 
0.082500000000000004

>  <r_i_glide_einternal>  (860) 
3.9979841709136998

>  <r_i_glide_emodel>  (860) 
-62.643251631547898

>  <r_i_glide_energy>  (860) 
-45.304010391235401

>  <r_i_glide_erotb>  (860) 
0.91236153909389595

>  <r_i_glide_esite>  (860) 
-0.103311039645584

>  <r_i_glide_evdw>  (860) 
-34.939426422119098

>  <r_i_glide_gscore>  (860) 
-4.0785269719394002

>  <r_i_glide_hbond>  (860) 
-0.20000000000000001

>  <r_i_glide_ligand_efficiency>  (860) 
-0.114172199198269

>  <r_i_glide_ligand_efficiency_ln>  (860) 
-0.87721660738100904

>  <r_i_glide_ligand_efficiency_sa>  (860) 
-0.37346483391499802

>  <r_i_glide_lipo>  (860) 
-0.65930304224251501

>  <r_i_glide_metal>  (860) 
-0

>  <r_i_glide_rewards>  (860) 
-0.72661551267180602

>  <r_lp_Energy>  (860) 
12.457684

>  <r_qp_ACxDN^.5/SA>  (860) 
0.012506

>  <r_qp_CIQPlogS>  (860) 
-5.5899999999999999

>  <r_qp_EA(eV)>  (860) 
0.55700000000000005

>  <r_qp_FISA>  (860) 
100.004

>  <r_qp_FOSA>  (860) 
263.83600000000001

>  <r_qp_IP(eV)>  (860) 
7.9930000000000003

>  <r_qp_Jm>  (860) 
0.035172645422304201

>  <r_qp_PISA>  (860) 
445.77300000000002

>  <r_qp_PSA>  (860) 
85.501999999999995

>  <r_qp_PercentHumanOralAbsorption>  (860) 
93.600999999999999

>  <r_qp_QPPCaco>  (860) 
156.84

>  <r_qp_QPPMDCK>  (860) 
137.32900000000001

>  <r_qp_QPlogBB>  (860) 
-0.74299999999999999

>  <r_qp_QPlogHERG>  (860) 
-6.2489999999999997

>  <r_qp_QPlogKhsa>  (860) 
0.64800000000000002

>  <r_qp_QPlogKp>  (860) 
-2.7989999999999999

>  <r_qp_QPlogPC16>  (860) 
16.969000000000001

>  <r_qp_QPlogPo/w>  (860) 
4.673

>  <r_qp_QPlogPoct>  (860) 
24.925000000000001

>  <r_qp_QPlogPw>  (860) 
15.212999999999999

>  <r_qp_QPlogS>  (860) 
-4.3259999999999996

>  <r_qp_QPpolrz>  (860) 
53.043999999999997

>  <r_qp_SASA>  (860) 
809.61300000000006

>  <r_qp_SAamideO>  (860) 
31.283000000000001

>  <r_qp_SAfluorine>  (860) 
0

>  <r_qp_WPSA>  (860) 
0

>  <r_qp_accptHB>  (860) 
6.75

>  <r_qp_dip^2/V>  (860) 
0.020119499999999998

>  <r_qp_dipole>  (860) 
5.5830000000000002

>  <r_qp_donorHB>  (860) 
2.25

>  <r_qp_glob>  (860) 
0.79980150000000005

>  <r_qp_mol_MW>  (860) 
468.60000000000002

>  <r_qp_volume>  (860) 
1549.3230000000001

>  <r_sd_BIOSOLVEIT.INFINISEE\_FTREES\_SIMILARITY>  (860) 
0.90700000000000003

>  <r_sd_BIOSOLVEIT.LOGP>  (860) 
2.6572

>  <r_sd_BIOSOLVEIT.MOLECULAR\_WEIGHT>  (860) 
469.61000000000001

>  <r_sd_BIOSOLVEIT.TPSA>  (860) 
83.379999999999995

>  <i_epik_Tot_Q>  (860) 
2

>  <i_epik_Tot_abs_Q>  (860) 
2

>  <i_f3d_flags>  (860) 
0

>  <i_i_glide_confnum>  (860) 
12

>  <i_i_glide_lignum>  (860) 
515

>  <i_i_glide_posenum>  (860) 
20

>  <i_i_glide_rotatable_bonds>  (860) 
12

>  <i_lp_mmshare_version>  (860) 
65135

>  <i_m_ct_format>  (860) 
2

>  <i_m_source_file_index>  (860) 
1502

>  <i_qp_#NandO>  (860) 
7

>  <i_qp_#acid>  (860) 
0

>  <i_qp_#amide>  (860) 
1

>  <i_qp_#amidine>  (860) 
0

>  <i_qp_#amine>  (860) 
1

>  <i_qp_#in34>  (860) 
0

>  <i_qp_#in56>  (860) 
22

>  <i_qp_#metab>  (860) 
6

>  <i_qp_#nonHatm>  (860) 
35

>  <i_qp_#noncon>  (860) 
0

>  <i_qp_#ringatoms>  (860) 
22

>  <i_qp_#rotor>  (860) 
11

>  <i_qp_#rtvFG>  (860) 
0

>  <i_qp_#stars>  (860) 
0

>  <i_qp_CNS>  (860) 
-1

>  <i_qp_HumanOralAbsorption>  (860) 
3

>  <i_qp_RuleOfFive>  (860) 
0

>  <i_qp_RuleOfThree>  (860) 
0

>  <i_sd_BIOSOLVEIT.INFINISEE\_REAGENT1\_NAME>  (860) 
21926464

>  <i_sd_BIOSOLVEIT.INFINISEE\_REAGENT2\_NAME>  (860) 
22360182

>  <i_sd_BIOSOLVEIT.INFINISEE\_REAGENT3\_NAME>  (860) 
21963750

>  <i_sd_BIOSOLVEIT.INFINISEE\_RESULT\_RANK>  (860) 
59543

>  <i_sd_version>  (860) 
0

>  <b_lp_Chiralities_Consistent>  (860) 
1

>  <b_sd_chiral_flag>  (860) 
0

>  <canonical_id>  (860) 
ATP-HTVS-894F1E46B14F

>  <compound_code>  (860) 
48034

>  <title>  (860) 
m_282030aaa____21926464____22360182____21963750

>  <variant>  (860) 
48034-1

>  <source_file>  (860) 
运行/运行/ATP-VSW/ATP-VSW-DOCK_HTVS_1-002_lib.maegz

>  <canonical_smiles>  (860) 
C[NH+](C)Cc1ccc(CCNc2nc(NCC(=O)NCc3ccccc3)c3ccccc3[nH+]2)cc1

>  <scaffold>  (860) 
O=C(CNc1nc(NCCc2ccccc2)[nH+]c2ccccc12)NCc1ccccc1

>  <molecular_formula>  (860) 
C28H34N6O+2

$$$$
ATP-HTVS-896D1EC960E1
     RDKit          3D

 51 54  0  0  0  0  0  0  0  0999 V2000
  196.5758  183.0078  150.1830 F   0  0  0  0  0  0  0  0  0  0  0  0
  196.7557  182.8740  151.5178 C   0  0  0  0  0  0  0  0  0  0  0  0
  196.5640  181.6222  152.1427 C   0  0  0  0  0  0  0  0  0  0  0  0
  196.7569  181.4968  153.5299 C   0  0  0  0  0  0  0  0  0  0  0  0
  197.1462  182.6139  154.2924 C   0  0  0  0  0  0  0  0  0  0  0  0
  197.3357  183.8650  153.6686 C   0  0  0  0  0  0  0  0  0  0  0  0
  197.1477  183.9927  152.2800 C   0  0  0  0  0  0  0  0  0  0  0  0
  197.3669  182.4528  155.7831 C   0  0  1  0  0  0  0  0  0  0  0  0
  198.6250  183.0601  156.2511 N   0  0  0  0  0  0  0  0  0  0  0  0
  198.6359  183.1175  157.7272 C   0  0  1  0  0  0  0  0  0  0  0  0
  199.9931  183.5228  158.3382 C   0  0  0  0  0  0  0  0  0  0  0  0
  201.1143  182.6529  158.2386 C   0  0  0  0  0  0  0  0  0  0  0  0
  201.0444  181.4142  157.5399 N   0  0  0  0  0  0  0  0  0  0  0  0
  200.4096  181.1868  156.3801 C   0  0  0  0  0  0  0  0  0  0  0  0
  200.3604  180.0653  155.8831 O   0  0  0  0  0  0  0  0  0  0  0  0
  199.8025  182.3835  155.6312 C   0  0  1  0  0  0  0  0  0  0  0  0
  202.3294  182.9832  158.8804 C   0  0  0  0  0  0  0  0  0  0  0  0
  202.4610  184.1911  159.5928 C   0  0  0  0  0  0  0  0  0  0  0  0
  201.3627  185.0656  159.6845 C   0  0  0  0  0  0  0  0  0  0  0  0
  200.1419  184.7328  159.0728 C   0  0  0  0  0  0  0  0  0  0  0  0
  197.5216  184.0232  158.2544 C   0  0  0  0  0  0  0  0  0  0  0  0
  197.3006  185.2790  157.6509 C   0  0  0  0  0  0  0  0  0  0  0  0
  196.3186  186.1505  158.1512 C   0  0  0  0  0  0  0  0  0  0  0  0
  195.5355  185.7599  159.2518 C   0  0  0  0  0  0  0  0  0  0  0  0
  195.7388  184.5059  159.8531 C   0  0  0  0  0  0  0  0  0  0  0  0
  196.7343  183.6383  159.3604 C   0  0  0  0  0  0  0  0  0  0  0  0
  196.1637  180.4003  151.3392 C   0  0  1  0  0  0  0  0  0  0  0  0
  197.3801  179.6239  150.8249 C   0  0  2  0  0  0  0  0  0  0  0  0
  196.6091  180.5461  154.0220 H   0  0  0  0  0  0  0  0  0  0  0  0
  197.6247  184.7293  154.2517 H   0  0  0  0  0  0  0  0  0  0  0  0
  197.2957  184.9492  151.8018 H   0  0  0  0  0  0  0  0  0  0  0  0
  196.4846  182.9161  156.2306 H   0  0  0  0  0  0  0  0  0  0  0  0
  197.3282  181.3967  156.0692 H   0  0  0  0  0  0  0  0  0  0  0  0
  198.3992  182.1176  158.0963 H   0  0  0  0  0  0  0  0  0  0  0  0
  201.5777  180.6424  157.9091 H   0  0  0  0  0  0  0  0  0  0  0  0
  199.5967  182.0724  154.6052 H   0  0  0  0  0  0  0  0  0  0  0  0
  200.5904  183.1355  155.5270 H   0  0  0  0  0  0  0  0  0  0  0  0
  203.1775  182.3155  158.8092 H   0  0  0  0  0  0  0  0  0  0  0  0
  203.3954  184.4513  160.0692 H   0  0  0  0  0  0  0  0  0  0  0  0
  201.4477  185.9961  160.2238 H   0  0  0  0  0  0  0  0  0  0  0  0
  199.3344  185.4425  159.2040 H   0  0  0  0  0  0  0  0  0  0  0  0
  197.8976  185.5740  156.8011 H   0  0  0  0  0  0  0  0  0  0  0  0
  196.1656  187.1083  157.6777 H   0  0  0  0  0  0  0  0  0  0  0  0
  194.7735  186.4250  159.6243 H   0  0  0  0  0  0  0  0  0  0  0  0
  195.1451  184.2108  160.6998 H   0  0  0  0  0  0  0  0  0  0  0  0
  196.8931  182.6790  159.8369 H   0  0  0  0  0  0  0  0  0  0  0  0
  195.5477  179.7493  151.9615 H   0  0  0  0  0  0  0  0  0  0  0  0
  195.5419  180.7116  150.5020 H   0  0  0  0  0  0  0  0  0  0  0  0
  197.0689  178.7535  150.2482 H   0  0  0  0  0  0  0  0  0  0  0  0
  198.0026  179.2744  151.6493 H   0  0  0  0  0  0  0  0  0  0  0  0
  197.9972  180.2489  150.1794 H   0  0  0  0  0  0  0  0  0  0  0  0
  1  2  1  0
  2  3  2  0
  2  7  1  0
  3  4  1  0
  3 27  1  0
  4  5  2  0
  4 29  1  0
  5  6  1  0
  5  8  1  0
  6  7  2  0
  6 30  1  0
  7 31  1  0
  8  9  1  0
  8 32  1  1
  8 33  1  0
  9 10  1  0
  9 16  1  0
 10 11  1  0
 10 21  1  0
 10 34  1  1
 11 12  1  0
 11 20  2  0
 12 13  1  0
 12 17  2  0
 13 14  1  0
 13 35  1  0
 14 15  2  0
 14 16  1  0
 16 36  1  6
 16 37  1  0
 17 18  1  0
 17 38  1  0
 18 19  2  0
 18 39  1  0
 19 20  1  0
 19 40  1  0
 20 41  1  0
 21 22  2  0
 21 26  1  0
 22 23  1  0
 22 42  1  0
 23 24  2  0
 23 43  1  0
 24 25  1  0
 24 44  1  0
 25 26  2  0
 25 45  1  0
 26 46  1  0
 27 28  1  0
 27 47  1  1
 27 48  1  0
 28 49  1  6
 28 50  1  0
 28 51  1  0
M  END
>  <s_epik_cmdline>  (861) 
J2VwaWtfcHl0aG9uJywgJy1waCcsICc3LjAwMDAwMCcsICctcGh0JywgJzIuMDAwMDAwJywgJy1tcycsICcxNicsICctdG4nLCAnOCcsICctbWEnLCAnMjAwJywgJy1pbWFlJywgJzxpbmZpbGUubWFlPicsICctb21hZScsICc8b3V0ZmlsZS5tYWU+Jw==

>  <s_epik_input>  (861) 
W2NIXTFbY0hdW2NIXVtjSF1bY0hdYzFbQ0BIXTJOKFtDSDJdYyhbY0hdW2NIXTMpW2NIXWMoYzNGKVtDSDJdW0NIM10pW0NIMl1DKD1PKVtOSF1jKGMyNClbY0hdW2NIXVtjSF1bY0hdNA==

>  <s_i_glide_gridfile>  (861) 
ATP-Grid

>  <s_lp_Force_Field>  (861) 
OPLS_2005

>  <s_lp_Variant>  (861) 
m_2230bdc____17849930____22384736-1

>  <s_lp_label>  (861) 
890_sdstereoexpander_1_neutralizer_1_epik_1_stereoizer_1

>  <s_m_source_file>  (861) 
ATP-VSW-LIGPREP-003-in.maegz

>  <s_sd_BIOSOLVEIT.INFINISEE\_QUERY\_NAME>  (861) 
Ref-Lig

>  <s_sd_BIOSOLVEIT.INFINISEE\_QUERY\_SMILES>  (861) 
S(c1nc2c(cc1C[NH2+]Cc3ccc(cc3)C[NH+](C)C)cccc2)Cc4ccccc4

>  <s_sd_BIOSOLVEIT.INFINISEE\_REACTION\_NAME>  (861) 
m_2230bdc

>  <s_sd_BIOSOLVEIT.INFINISEE\_REAGENT1\_SMILES>  (861) 
[R1*]N1C(c2c(NC(=O)C1)cccc2)c3ccccc3

>  <s_sd_BIOSOLVEIT.INFINISEE\_REAGENT2\_SMILES>  (861) 
[R1*]Cc1cc(c(F)cc1)CC

>  <s_sd_BIOSOLVEIT.INFINISEE\_SPACE>  (861) 
REALSpace_44bn_2023-08

>  <s_vsw_compound_code>  (861) 
28451

>  <s_vsw_variant>  (861) 
28451-1

>  <r_epik_Charging_Adjusted_Penalty>  (861) 
0.0087634984339075902

>  <r_epik_Ionization_Penalty>  (861) 
0.0088000000000000005

>  <r_epik_Ionization_Penalty_Charging>  (861) 
0

>  <r_epik_Ionization_Penalty_Neutral>  (861) 
0.0088000000000000005

>  <r_epik_State_Penalty>  (861) 
0.0088000000000000005

>  <r_i_docking_score>  (861) 
-1.70708224199109

>  <r_i_glide_ecoul>  (861) 
-1.03543829917908

>  <r_i_glide_eff_state_penalty>  (861) 
0.0088000000000000005

>  <r_i_glide_einternal>  (861) 
0.59349936246871904

>  <r_i_glide_emodel>  (861) 
-32.633871138779902

>  <r_i_glide_energy>  (861) 
-29.810830831527699

>  <r_i_glide_erotb>  (861) 
0.41371546966157902

>  <r_i_glide_esite>  (861) 
-0.0034774390870678201

>  <r_i_glide_evdw>  (861) 
-28.775392532348601

>  <r_i_glide_gscore>  (861) 
-1.71588224199109

>  <r_i_glide_hbond>  (861) 
0

>  <r_i_glide_ligand_efficiency>  (861) 
-0.060967222928253302

>  <r_i_glide_ligand_efficiency_ln>  (861) 
-0.39404470356411098

>  <r_i_glide_ligand_efficiency_sa>  (861) 
-0.18513239658418601

>  <r_i_glide_lipo>  (861) 
-1.4688971980508301

>  <r_i_glide_metal>  (861) 
-0

>  <r_i_glide_rewards>  (861) 
0.93686229697952295

>  <r_lp_Energy>  (861) 
38.258723000000003

>  <r_qp_ACxDN^.5/SA>  (861) 
0.0067609000000000002

>  <r_qp_CIQPlogS>  (861) 
-4.9279999999999999

>  <r_qp_EA(eV)>  (861) 
0.40100000000000002

>  <r_qp_FISA>  (861) 
60.347000000000001

>  <r_qp_FOSA>  (861) 
165.53299999999999

>  <r_qp_IP(eV)>  (861) 
9.1240000000000006

>  <r_qp_Jm>  (861) 
0.0025053603790862202

>  <r_qp_PISA>  (861) 
404.56700000000001

>  <r_qp_PSA>  (861) 
40.261000000000003

>  <r_qp_PercentHumanOralAbsorption>  (861) 
100

>  <r_qp_QPPCaco>  (861) 
661.49599999999998

>  <r_qp_QPPMDCK>  (861) 
545.44600000000003

>  <r_qp_QPlogBB>  (861) 
0.27300000000000002

>  <r_qp_QPlogHERG>  (861) 
-7.0590000000000002

>  <r_qp_QPlogKhsa>  (861) 
0.89200000000000002

>  <r_qp_QPlogKp>  (861) 
-2.9809999999999999

>  <r_qp_QPlogPC16>  (861) 
12.685

>  <r_qp_QPlogPo/w>  (861) 
4.625

>  <r_qp_QPlogPoct>  (861) 
19.007000000000001

>  <r_qp_QPlogPw>  (861) 
9.7309999999999999

>  <r_qp_QPlogS>  (861) 
-5.1929999999999996

>  <r_qp_QPpolrz>  (861) 
43.988

>  <r_qp_SASA>  (861) 
665.59000000000003

>  <r_qp_SAamideO>  (861) 
0

>  <r_qp_SAfluorine>  (861) 
35.143000000000001

>  <r_qp_WPSA>  (861) 
35.143000000000001

>  <r_qp_accptHB>  (861) 
4.5

>  <r_qp_dip^2/V>  (861) 
0.029961399999999999

>  <r_qp_dipole>  (861) 
6.0069999999999997

>  <r_qp_donorHB>  (861) 
1

>  <r_qp_glob>  (861) 
0.82255619999999996

>  <r_qp_mol_MW>  (861) 
374.45699999999999

>  <r_qp_volume>  (861) 
1204.51

>  <r_sd_BIOSOLVEIT.INFINISEE\_FTREES\_SIMILARITY>  (861) 
0.91900000000000004

>  <r_sd_BIOSOLVEIT.LOGP>  (861) 
3.5146999999999999

>  <r_sd_BIOSOLVEIT.MOLECULAR\_WEIGHT>  (861) 
375.46499999999997

>  <r_sd_BIOSOLVEIT.TPSA>  (861) 
33.539999999999999

>  <i_epik_Tot_Q>  (861) 
0

>  <i_epik_Tot_abs_Q>  (861) 
0

>  <i_f3d_flags>  (861) 
0

>  <i_i_glide_confnum>  (861) 
4

>  <i_i_glide_lignum>  (861) 
353

>  <i_i_glide_posenum>  (861) 
3

>  <i_i_glide_rotatable_bonds>  (861) 
4

>  <i_lp_mmshare_version>  (861) 
65135

>  <i_m_ct_format>  (861) 
2

>  <i_m_source_file_index>  (861) 
890

>  <i_qp_#NandO>  (861) 
3

>  <i_qp_#acid>  (861) 
0

>  <i_qp_#amide>  (861) 
0

>  <i_qp_#amidine>  (861) 
0

>  <i_qp_#amine>  (861) 
1

>  <i_qp_#in34>  (861) 
0

>  <i_qp_#in56>  (861) 
18

>  <i_qp_#metab>  (861) 
8

>  <i_qp_#nonHatm>  (861) 
28

>  <i_qp_#noncon>  (861) 
2

>  <i_qp_#ringatoms>  (861) 
23

>  <i_qp_#rotor>  (861) 
3

>  <i_qp_#rtvFG>  (861) 
0

>  <i_qp_#stars>  (861) 
0

>  <i_qp_CNS>  (861) 
1

>  <i_qp_HumanOralAbsorption>  (861) 
3

>  <i_qp_RuleOfFive>  (861) 
0

>  <i_qp_RuleOfThree>  (861) 
1

>  <i_sd_BIOSOLVEIT.INFINISEE\_REAGENT1\_NAME>  (861) 
17849930

>  <i_sd_BIOSOLVEIT.INFINISEE\_REAGENT2\_NAME>  (861) 
22384736

>  <i_sd_BIOSOLVEIT.INFINISEE\_RESULT\_RANK>  (861) 
18012

>  <i_sd_version>  (861) 
0

>  <b_lp_Chiralities_Consistent>  (861) 
1

>  <b_sd_chiral_flag>  (861) 
0

>  <canonical_id>  (861) 
ATP-HTVS-896D1EC960E1

>  <compound_code>  (861) 
28451

>  <title>  (861) 
m_2230bdc____17849930____22384736

>  <variant>  (861) 
28451-1

>  <source_file>  (861) 
运行/运行/ATP-VSW/ATP-VSW-DOCK_HTVS_1-003_lib/ATP-VSW-DOCK_HTVS_1-003_lib.mae

>  <canonical_smiles>  (861) 
CCc1cc(CN2CC(=O)Nc3ccccc3[C@H]2c2ccccc2)ccc1F

>  <scaffold>  (861) 
O=C1CN(Cc2ccccc2)C(c2ccccc2)c2ccccc2N1

>  <molecular_formula>  (861) 
C24H23FN2O

$$$$
ATP-HTVS-898AE5CA69D9
     RDKit          3D

 64 67  0  0  0  0  0  0  0  0999 V2000
  198.0729  184.5839  156.0251 N   0  0  0  0  0  0  0  0  0  0  0  0
  197.8430  185.7542  156.6268 C   0  0  0  0  0  0  0  0  0  0  0  0
  197.0204  185.8787  157.6741 N   0  0  0  0  0  0  0  0  0  0  0  0
  196.3685  184.7966  158.1475 C   0  0  0  0  0  0  0  0  0  0  0  0
  196.5708  183.5273  157.5603 C   0  0  0  0  0  0  0  0  0  0  0  0
  197.4582  183.4656  156.4686 C   0  0  0  0  0  0  0  0  0  0  0  0
  197.7281  182.2472  155.8196 N   0  0  0  0  0  0  0  0  0  0  0  0
  198.1710  182.2524  154.4312 C   0  0  1  0  0  0  0  0  0  0  0  0
  198.6505  180.9164  153.8803 C   0  0  0  0  0  0  0  0  0  0  0  0
  199.0226  179.8483  154.7262 C   0  0  0  0  0  0  0  0  0  0  0  0
  199.4542  178.6215  154.1769 C   0  0  0  0  0  0  0  0  0  0  0  0
  199.5462  178.4732  152.7796 C   0  0  0  0  0  0  0  0  0  0  0  0
  199.1984  179.5419  151.9340 C   0  0  0  0  0  0  0  0  0  0  0  0
  198.7467  180.7581  152.4825 C   0  0  0  0  0  0  0  0  0  0  0  0
  199.7684  177.4606  155.1010 C   0  0  1  0  0  0  0  0  0  0  0  0
  201.1392  177.4624  155.6214 N   0  0  0  0  0  0  0  0  0  0  0  0
  201.2937  176.5658  156.7660 C   0  0  1  0  0  0  0  0  0  0  0  0
  200.5691  177.0949  158.0122 C   0  0  2  0  0  0  0  0  0  0  0  0
  202.0665  177.0293  154.5774 C   0  0  2  0  0  0  0  0  0  0  0  0
  195.8676  182.4088  158.0611 C   0  0  0  0  0  0  0  0  0  0  0  0
  194.9647  182.5697  159.1262 C   0  0  0  0  0  0  0  0  0  0  0  0
  194.7593  183.8419  159.6980 C   0  0  0  0  0  0  0  0  0  0  0  0
  195.4672  184.9577  159.2150 C   0  0  0  0  0  0  0  0  0  0  0  0
  198.4548  186.9001  156.1585 N   0  0  0  0  0  0  0  0  0  0  0  0
  199.1790  186.9772  154.8970 C   0  0  1  0  0  0  0  0  0  0  0  0
  199.5499  188.3816  154.4347 C   0  0  0  0  0  0  0  0  0  0  0  0
  199.6689  189.4654  155.3358 C   0  0  0  0  0  0  0  0  0  0  0  0
  200.0373  190.7461  154.8665 C   0  0  0  0  0  0  0  0  0  0  0  0
  200.2930  190.9414  153.4949 C   0  0  0  0  0  0  0  0  0  0  0  0
  200.1739  189.8668  152.5964 C   0  0  0  0  0  0  0  0  0  0  0  0
  199.7997  188.5930  153.0626 C   0  0  0  0  0  0  0  0  0  0  0  0
  200.1677  191.9122  155.8245 C   0  0  2  0  0  0  0  0  0  0  0  0
  197.1842  181.4465  156.1060 H   0  0  0  0  0  0  0  0  0  0  0  0
  197.3275  182.5921  153.8281 H   0  0  0  0  0  0  0  0  0  0  0  0
  198.9777  182.9726  154.2819 H   0  0  0  0  0  0  0  0  0  0  0  0
  198.9672  179.9461  155.8011 H   0  0  0  0  0  0  0  0  0  0  0  0
  199.8712  177.5356  152.3530 H   0  0  0  0  0  0  0  0  0  0  0  0
  199.2693  179.4272  150.8624 H   0  0  0  0  0  0  0  0  0  0  0  0
  198.4845  181.5736  151.8279 H   0  0  0  0  0  0  0  0  0  0  0  0
  199.0370  177.5380  155.9041 H   0  0  0  0  0  0  0  0  0  0  0  0
  199.5583  176.5152  154.5952 H   0  0  0  0  0  0  0  0  0  0  0  0
  200.9639  175.5589  156.5164 H   0  0  0  0  0  0  0  0  0  0  0  0
  202.3496  176.4887  157.0085 H   0  0  0  0  0  0  0  0  0  0  0  0
  200.7496  176.5129  158.9143 H   0  0  0  0  0  0  0  0  0  0  0  0
  199.5055  177.0189  157.8701 H   0  0  0  0  0  0  0  0  0  0  0  0
  200.8144  178.1382  158.2174 H   0  0  0  0  0  0  0  0  0  0  0  0
  203.0918  177.0094  154.9510 H   0  0  0  0  0  0  0  0  0  0  0  0
  202.0460  177.7046  153.7213 H   0  0  0  0  0  0  0  0  0  0  0  0
  201.8185  176.0258  154.2247 H   0  0  0  0  0  0  0  0  0  0  0  0
  195.9865  181.4196  157.6416 H   0  0  0  0  0  0  0  0  0  0  0  0
  194.4251  181.7089  159.4930 H   0  0  0  0  0  0  0  0  0  0  0  0
  194.0513  183.9663  160.5047 H   0  0  0  0  0  0  0  0  0  0  0  0
  195.2915  185.9305  159.6521 H   0  0  0  0  0  0  0  0  0  0  0  0
  198.2603  187.7625  156.6386 H   0  0  0  0  0  0  0  0  0  0  0  0
  200.0927  186.3871  154.9756 H   0  0  0  0  0  0  0  0  0  0  0  0
  198.5669  186.5072  154.1280 H   0  0  0  0  0  0  0  0  0  0  0  0
  199.4893  189.3318  156.3918 H   0  0  0  0  0  0  0  0  0  0  0  0
  200.5837  191.9150  153.1294 H   0  0  0  0  0  0  0  0  0  0  0  0
  200.3696  190.0202  151.5438 H   0  0  0  0  0  0  0  0  0  0  0  0
  199.7120  187.7770  152.3608 H   0  0  0  0  0  0  0  0  0  0  0  0
  201.2030  192.2508  155.8639 H   0  0  0  0  0  0  0  0  0  0  0  0
  199.8597  191.6399  156.8339 H   0  0  0  0  0  0  0  0  0  0  0  0
  199.5488  192.7472  155.4952 H   0  0  0  0  0  0  0  0  0  0  0  0
  196.8448  186.7826  158.1100 H   0  0  0  0  0  0  0  0  0  0  0  0
  1  2  1  0
  1  6  2  0
  2  3  2  0
  2 24  1  0
  3  4  1  0
  3 64  1  0
  4  5  1  0
  4 23  2  0
  5  6  1  0
  5 20  2  0
  6  7  1  0
  7  8  1  0
  7 33  1  0
  8  9  1  0
  8 34  1  6
  8 35  1  0
  9 10  2  0
  9 14  1  0
 10 11  1  0
 10 36  1  0
 11 12  2  0
 11 15  1  0
 12 13  1  0
 12 37  1  0
 13 14  2  0
 13 38  1  0
 14 39  1  0
 15 16  1  0
 15 40  1  1
 15 41  1  0
 16 17  1  0
 16 19  1  0
 17 18  1  0
 17 42  1  6
 17 43  1  0
 18 44  1  1
 18 45  1  0
 18 46  1  0
 19 47  1  1
 19 48  1  0
 19 49  1  0
 20 21  1  0
 20 50  1  0
 21 22  2  0
 21 51  1  0
 22 23  1  0
 22 52  1  0
 23 53  1  0
 24 25  1  0
 24 54  1  0
 25 26  1  0
 25 55  1  1
 25 56  1  0
 26 27  1  0
 26 31  2  0
 27 28  2  0
 27 57  1  0
 28 29  1  0
 28 32  1  0
 29 30  2  0
 29 58  1  0
 30 31  1  0
 30 59  1  0
 31 60  1  0
 32 61  1  1
 32 62  1  0
 32 63  1  0
M  CHG  1   3   1
M  END
>  <s_epik_cmdline>  (862) 
J2VwaWtfcHl0aG9uJywgJy1waCcsICc3LjAwMDAwMCcsICctcGh0JywgJzIuMDAwMDAwJywgJy1tcycsICcxNicsICctdG4nLCAnOCcsICctbWEnLCAnMjAwJywgJy1pbWFlJywgJzxpbmZpbGUubWFlPicsICctb21hZScsICc8b3V0ZmlsZS5tYWU+Jw==

>  <s_epik_input>  (862) 
W2NIXTFbY0hdW2NIXWMoW0NIM10pW2NIXWMxW0NIMl1bTkhdYyhuMiluYyhjKGMyMylbY0hdW2NIXVtjSF1bY0hdMylbTkhdW0NIMl1jNFtjSF1jKFtjSF1bY0hdW2NIXTQpW0NIMl1OKFtDSDNdKVtDSDJdW0NIM10=

>  <s_i_glide_gridfile>  (862) 
ATP-Grid

>  <s_lp_Force_Field>  (862) 
OPLS_2005

>  <s_lp_Variant>  (862) 
m_282030aaa____21928408____22360182____21950844-3

>  <s_lp_label>  (862) 
1311_sdstereoexpander_1_neutralizer_1_epik_2_stereoizer_1

>  <s_m_source_file>  (862) 
ATP-VSW-LIGPREP-002-in.maegz

>  <s_sd_BIOSOLVEIT.INFINISEE\_QUERY\_NAME>  (862) 
Ref-Lig

>  <s_sd_BIOSOLVEIT.INFINISEE\_QUERY\_SMILES>  (862) 
S(c1nc2c(cc1C[NH2+]Cc3ccc(cc3)C[NH+](C)C)cccc2)Cc4ccccc4

>  <s_sd_BIOSOLVEIT.INFINISEE\_REACTION\_NAME>  (862) 
m_282030aaa

>  <s_sd_BIOSOLVEIT.INFINISEE\_REAGENT1\_SMILES>  (862) 
[R1*]NCc1cc(ccc1)C

>  <s_sd_BIOSOLVEIT.INFINISEE\_REAGENT2\_SMILES>  (862) 
[R2*]c1nc([R1*])c2c(n1)cccc2

>  <s_sd_BIOSOLVEIT.INFINISEE\_REAGENT3\_SMILES>  (862) 
[R2*]NCc1cc(ccc1)CN(CC)C

>  <s_sd_BIOSOLVEIT.INFINISEE\_SPACE>  (862) 
REALSpace_44bn_2023-08

>  <s_vsw_compound_code>  (862) 
41922

>  <s_vsw_variant>  (862) 
41922-3

>  <r_epik_Charging_Adjusted_Penalty>  (862) 
1.8732483711066701

>  <r_epik_Ionization_Penalty>  (862) 
1.8348

>  <r_epik_Ionization_Penalty_Charging>  (862) 
0.0167

>  <r_epik_Ionization_Penalty_Neutral>  (862) 
1.8181

>  <r_epik_State_Penalty>  (862) 
1.8565

>  <r_i_docking_score>  (862) 
-0.63286629384005899

>  <r_i_glide_ecoul>  (862) 
-2.35664939880371

>  <r_i_glide_eff_state_penalty>  (862) 
1.8565

>  <r_i_glide_einternal>  (862) 
1.9980711936950699

>  <r_i_glide_emodel>  (862) 
-37.764210016644498

>  <r_i_glide_energy>  (862) 
-31.617658615112301

>  <r_i_glide_erotb>  (862) 
0.87256483791216599

>  <r_i_glide_esite>  (862) 
-0.024291969237037098

>  <r_i_glide_evdw>  (862) 
-29.261009216308601

>  <r_i_glide_gscore>  (862) 
-2.4893662938400598

>  <r_i_glide_hbond>  (862) 
0

>  <r_i_glide_ligand_efficiency>  (862) 
-0.019777071682501899

>  <r_i_glide_ligand_efficiency_ln>  (862) 
-0.14171601447441001

>  <r_i_glide_ligand_efficiency_sa>  (862) 
-0.062788288714772003

>  <r_i_glide_lipo>  (862) 
-0.95976736877423996

>  <r_i_glide_metal>  (862) 
-0

>  <r_i_glide_rewards>  (862) 
-0.56132392310496204

>  <r_lp_Energy>  (862) 
14.164254

>  <r_qp_ACxDN^.5/SA>  (862) 
0.0111482

>  <r_qp_CIQPlogS>  (862) 
-6.0579999999999998

>  <r_qp_EA(eV)>  (862) 
0.754

>  <r_qp_FISA>  (862) 
46.734999999999999

>  <r_qp_FOSA>  (862) 
263.762

>  <r_qp_IP(eV)>  (862) 
8.1969999999999992

>  <r_qp_Jm>  (862) 
0.88101416541809796

>  <r_qp_PISA>  (862) 
323.77999999999997

>  <r_qp_PSA>  (862) 
45.238999999999997

>  <r_qp_PercentHumanOralAbsorption>  (862) 
100

>  <r_qp_QPPCaco>  (862) 
890.447

>  <r_qp_QPPMDCK>  (862) 
482.79399999999998

>  <r_qp_QPlogBB>  (862) 
0.039

>  <r_qp_QPlogHERG>  (862) 
-5.3460000000000001

>  <r_qp_QPlogKhsa>  (862) 
0.76400000000000001

>  <r_qp_QPlogKp>  (862) 
-2.4390000000000001

>  <r_qp_QPlogPC16>  (862) 
13.326000000000001

>  <r_qp_QPlogPo/w>  (862) 
4.7149999999999999

>  <r_qp_QPlogPoct>  (862) 
19.768000000000001

>  <r_qp_QPlogPw>  (862) 
9.6349999999999998

>  <r_qp_QPlogS>  (862) 
-3.2450000000000001

>  <r_qp_QPpolrz>  (862) 
42.877000000000002

>  <r_qp_SASA>  (862) 
634.27700000000004

>  <r_qp_SAamideO>  (862) 
0

>  <r_qp_SAfluorine>  (862) 
0

>  <r_qp_WPSA>  (862) 
0

>  <r_qp_accptHB>  (862) 
5

>  <r_qp_dip^2/V>  (862) 
0.0048003999999999998

>  <r_qp_dipole>  (862) 
2.4910000000000001

>  <r_qp_donorHB>  (862) 
2

>  <r_qp_glob>  (862) 
0.90461179999999997

>  <r_qp_mol_MW>  (862) 
425.57499999999999

>  <r_qp_volume>  (862) 
1292.3030000000001

>  <r_sd_BIOSOLVEIT.INFINISEE\_FTREES\_SIMILARITY>  (862) 
0.91000000000000003

>  <r_sd_BIOSOLVEIT.LOGP>  (862) 
4.1970200000000002

>  <r_sd_BIOSOLVEIT.MOLECULAR\_WEIGHT>  (862) 
426.58499999999998

>  <r_sd_BIOSOLVEIT.TPSA>  (862) 
54.280000000000001

>  <i_epik_Tot_Q>  (862) 
1

>  <i_epik_Tot_abs_Q>  (862) 
1

>  <i_f3d_flags>  (862) 
0

>  <i_i_glide_confnum>  (862) 
6

>  <i_i_glide_lignum>  (862) 
455

>  <i_i_glide_posenum>  (862) 
6

>  <i_i_glide_rotatable_bonds>  (862) 
9

>  <i_lp_mmshare_version>  (862) 
65135

>  <i_m_ct_format>  (862) 
2

>  <i_m_source_file_index>  (862) 
1311

>  <i_qp_#NandO>  (862) 
5

>  <i_qp_#acid>  (862) 
0

>  <i_qp_#amide>  (862) 
0

>  <i_qp_#amidine>  (862) 
0

>  <i_qp_#amine>  (862) 
1

>  <i_qp_#in34>  (862) 
0

>  <i_qp_#in56>  (862) 
22

>  <i_qp_#metab>  (862) 
5

>  <i_qp_#nonHatm>  (862) 
32

>  <i_qp_#noncon>  (862) 
0

>  <i_qp_#ringatoms>  (862) 
22

>  <i_qp_#rotor>  (862) 
9

>  <i_qp_#rtvFG>  (862) 
0

>  <i_qp_#stars>  (862) 
0

>  <i_qp_CNS>  (862) 
1

>  <i_qp_HumanOralAbsorption>  (862) 
3

>  <i_qp_RuleOfFive>  (862) 
0

>  <i_qp_RuleOfThree>  (862) 
0

>  <i_sd_BIOSOLVEIT.INFINISEE\_REAGENT1\_NAME>  (862) 
21928408

>  <i_sd_BIOSOLVEIT.INFINISEE\_REAGENT2\_NAME>  (862) 
22360182

>  <i_sd_BIOSOLVEIT.INFINISEE\_REAGENT3\_NAME>  (862) 
21950844

>  <i_sd_BIOSOLVEIT.INFINISEE\_RESULT\_RANK>  (862) 
47240

>  <i_sd_version>  (862) 
0

>  <b_lp_Chiralities_Consistent>  (862) 
1

>  <b_sd_chiral_flag>  (862) 
0

>  <canonical_id>  (862) 
ATP-HTVS-898AE5CA69D9

>  <compound_code>  (862) 
41922

>  <title>  (862) 
m_282030aaa____21928408____22360182____21950844

>  <variant>  (862) 
41922-3

>  <source_file>  (862) 
运行/运行/ATP-VSW/ATP-VSW-DOCK_HTVS_1-002_lib.maegz

>  <canonical_smiles>  (862) 
CCN(C)Cc1cccc(CNc2nc(NCc3cccc(C)c3)[nH+]c3ccccc23)c1

>  <scaffold>  (862) 
c1ccc(CNc2nc(NCc3ccccc3)c3ccccc3[nH+]2)cc1

>  <molecular_formula>  (862) 
C27H32N5+

$$$$
ATP-HTVS-89936433B7DC
     RDKit          3D

 53 55  0  0  0  0  0  0  0  0999 V2000
  198.3443  185.0296  147.2121 Cl  0  0  0  0  0  0  0  0  0  0  0  0
  197.9402  184.8371  148.8808 C   0  0  0  0  0  0  0  0  0  0  0  0
  198.4112  185.7598  149.8349 C   0  0  0  0  0  0  0  0  0  0  0  0
  198.0768  185.6043  151.1932 C   0  0  0  0  0  0  0  0  0  0  0  0
  197.2805  184.5118  151.6121 C   0  0  0  0  0  0  0  0  0  0  0  0
  196.8132  183.5914  150.6517 C   0  0  0  0  0  0  0  0  0  0  0  0
  197.1471  183.7489  149.2912 C   0  0  0  0  0  0  0  0  0  0  0  0
  196.9035  184.3269  153.0801 C   0  0  1  0  0  0  0  0  0  0  0  0
  197.8826  184.8597  154.0210 N   0  0  0  0  0  0  0  0  0  0  0  0
  199.1254  184.3839  154.1985 C   0  0  0  0  0  0  0  0  0  0  0  0
  199.5826  183.4449  153.5511 O   0  0  0  0  0  0  0  0  0  0  0  0
  199.9160  185.0657  155.2429 C   0  0  0  0  0  0  0  0  0  0  0  0
  201.5815  184.5774  155.4740 S   0  0  0  0  0  0  0  0  0  0  0  0
  201.7687  185.6935  156.8017 C   0  0  0  0  0  0  0  0  0  0  0  0
  200.6037  186.3691  157.0566 C   0  0  0  0  0  0  0  0  0  0  0  0
  200.4104  187.2775  158.1228 N   0  0  0  0  0  0  0  0  0  0  0  0
  199.0954  187.6255  158.6594 C   0  0  1  0  0  0  0  0  0  0  0  0
  198.1459  186.4565  158.9204 C   0  0  0  0  0  0  0  0  0  0  0  0
  196.7525  186.6415  158.8056 C   0  0  0  0  0  0  0  0  0  0  0  0
  195.8709  185.5530  158.9860 C   0  0  0  0  0  0  0  0  0  0  0  0
  196.3828  184.2722  159.2706 C   0  0  0  0  0  0  0  0  0  0  0  0
  197.7716  184.0912  159.4102 C   0  0  0  0  0  0  0  0  0  0  0  0
  198.6485  185.1752  159.2448 C   0  0  0  0  0  0  0  0  0  0  0  0
  195.4598  183.0802  159.4167 C   0  0  1  0  0  0  0  0  0  0  0  0
  195.1480  182.4192  158.1257 N   0  0  2  0  0  0  0  0  0  0  0  0
  194.0470  181.4446  158.2620 C   0  0  2  0  0  0  0  0  0  0  0  0
  196.3351  181.8279  157.4566 C   0  0  2  0  0  0  0  0  0  0  0  0
  199.5562  186.0292  156.1445 C   0  0  0  0  0  0  0  0  0  0  0  0
  199.0273  186.5920  149.5261 H   0  0  0  0  0  0  0  0  0  0  0  0
  198.4346  186.3337  151.9030 H   0  0  0  0  0  0  0  0  0  0  0  0
  196.1957  182.7595  150.9621 H   0  0  0  0  0  0  0  0  0  0  0  0
  196.7860  183.0422  148.5606 H   0  0  0  0  0  0  0  0  0  0  0  0
  195.9518  184.8331  153.2562 H   0  0  0  0  0  0  0  0  0  0  0  0
  196.7379  183.2675  153.2982 H   0  0  0  0  0  0  0  0  0  0  0  0
  197.5824  185.6433  154.5756 H   0  0  0  0  0  0  0  0  0  0  0  0
  202.7043  185.7323  157.3390 H   0  0  0  0  0  0  0  0  0  0  0  0
  201.2065  187.4915  158.7088 H   0  0  0  0  0  0  0  0  0  0  0  0
  199.2315  188.1860  159.5862 H   0  0  0  0  0  0  0  0  0  0  0  0
  198.6264  188.3086  157.9522 H   0  0  0  0  0  0  0  0  0  0  0  0
  196.3508  187.6137  158.5477 H   0  0  0  0  0  0  0  0  0  0  0  0
  194.8070  185.7022  158.8632 H   0  0  0  0  0  0  0  0  0  0  0  0
  198.1769  183.1091  159.6084 H   0  0  0  0  0  0  0  0  0  0  0  0
  199.7098  184.9992  159.3371 H   0  0  0  0  0  0  0  0  0  0  0  0
  195.9159  182.3547  160.0919 H   0  0  0  0  0  0  0  0  0  0  0  0
  194.5452  183.4253  159.9009 H   0  0  0  0  0  0  0  0  0  0  0  0
  194.3101  180.6439  158.9559 H   0  0  0  0  0  0  0  0  0  0  0  0
  193.8125  181.0014  157.2959 H   0  0  0  0  0  0  0  0  0  0  0  0
  193.1476  181.9470  158.6229 H   0  0  0  0  0  0  0  0  0  0  0  0
  196.7656  181.0415  158.0790 H   0  0  0  0  0  0  0  0  0  0  0  0
  197.1135  182.5647  157.2444 H   0  0  0  0  0  0  0  0  0  0  0  0
  196.0485  181.3794  156.5046 H   0  0  0  0  0  0  0  0  0  0  0  0
  198.5693  186.4568  156.1996 H   0  0  0  0  0  0  0  0  0  0  0  0
  194.7898  183.1169  157.4850 H   0  0  0  0  0  0  0  0  0  0  0  0
  1  2  1  0
  2  3  1  0
  2  7  2  0
  3  4  2  0
  3 29  1  0
  4  5  1  0
  4 30  1  0
  5  6  2  0
  5  8  1  0
  6  7  1  0
  6 31  1  0
  7 32  1  0
  8  9  1  0
  8 33  1  6
  8 34  1  0
  9 10  1  0
  9 35  1  0
 10 11  2  0
 10 12  1  0
 12 13  1  0
 12 28  2  0
 13 14  1  0
 14 15  2  0
 14 36  1  0
 15 16  1  0
 15 28  1  0
 16 17  1  0
 16 37  1  0
 17 18  1  0
 17 38  1  1
 17 39  1  0
 18 19  1  0
 18 23  2  0
 19 20  2  0
 19 40  1  0
 20 21  1  0
 20 41  1  0
 21 22  2  0
 21 24  1  0
 22 23  1  0
 22 42  1  0
 23 43  1  0
 24 25  1  0
 24 44  1  1
 24 45  1  0
 25 26  1  0
 25 27  1  0
 25 53  1  6
 26 46  1  1
 26 47  1  0
 26 48  1  0
 27 49  1  1
 27 50  1  0
 27 51  1  0
 28 52  1  0
M  CHG  1  25   1
M  END
>  <s_epik_cmdline>  (863) 
J2VwaWtfcHl0aG9uJywgJy1waCcsICc3LjAwMDAwMCcsICctcGh0JywgJzIuMDAwMDAwJywgJy1tcycsICcxNicsICctdG4nLCAnOCcsICctbWEnLCAnMjAwJywgJy1pbWFlJywgJzxpbmZpbGUubWFlPicsICctb21hZScsICc8b3V0ZmlsZS5tYWU+Jw==

>  <s_epik_input>  (863) 
Q2xjMVtjSF1bY0hdYyhbY0hdW2NIXTEpW0NIMl1bTkhdQyg9TyljMnNbY0hdYyhbY0hdMilbTkhdW0NIMl1jM1tjSF1bY0hdYyhbY0hdW2NIXTMpW0NIMl1OKFtDSDNdKVtDSDNd

>  <s_i_glide_gridfile>  (863) 
ATP-Grid

>  <s_lp_Force_Field>  (863) 
OPLS_2005

>  <s_lp_Variant>  (863) 
rxn512b____EMOL490712____EMOL720738____EMOL50155899-1

>  <s_lp_label>  (863) 
3002_sdstereoexpander_1_neutralizer_1_epik_1_stereoizer_1

>  <s_m_source_file>  (863) 
ATP-VSW-LIGPREP-002-in.maegz

>  <s_sd_BIOSOLVEIT.INFINISEE\_QUERY\_NAME>  (863) 
Ref-Lig

>  <s_sd_BIOSOLVEIT.INFINISEE\_QUERY\_SMILES>  (863) 
S(c1nc2c(cc1C[NH2+]Cc3ccc(cc3)C[NH+](C)C)cccc2)Cc4ccccc4

>  <s_sd_BIOSOLVEIT.INFINISEE\_REACTION\_NAME>  (863) 
rxn512b

>  <s_sd_BIOSOLVEIT.INFINISEE\_REAGENT1\_NAME>  (863) 
EMOL490712

>  <s_sd_BIOSOLVEIT.INFINISEE\_REAGENT1\_SMILES>  (863) 
Clc1ccc(cc1)CN

>  <s_sd_BIOSOLVEIT.INFINISEE\_REAGENT2\_NAME>  (863) 
EMOL720738

>  <s_sd_BIOSOLVEIT.INFINISEE\_REAGENT2\_SMILES>  (863) 
BrC1=CSC(C(=O)O)=C1

>  <s_sd_BIOSOLVEIT.INFINISEE\_REAGENT3\_NAME>  (863) 
EMOL50155899

>  <s_sd_BIOSOLVEIT.INFINISEE\_REAGENT3\_SMILES>  (863) 
N(Cc1ccc(cc1)CN)(C)C

>  <s_sd_BIOSOLVEIT.INFINISEE\_SPACE>  (863) 
eXplore_7tr_2022-12

>  <s_vsw_compound_code>  (863) 
96034

>  <s_vsw_variant>  (863) 
96034-1

>  <r_epik_Charging_Adjusted_Penalty>  (863) 
0.080189274810459593

>  <r_epik_Ionization_Penalty>  (863) 
0.040099999999999997

>  <r_epik_Ionization_Penalty_Charging>  (863) 
0.040099999999999997

>  <r_epik_Ionization_Penalty_Neutral>  (863) 
0

>  <r_epik_State_Penalty>  (863) 
0.040099999999999997

>  <r_i_docking_score>  (863) 
-4.4800696853754802

>  <r_i_glide_ecoul>  (863) 
-7.9048757553100604

>  <r_i_glide_eff_state_penalty>  (863) 
0.040099999999999997

>  <r_i_glide_einternal>  (863) 
1.91822922229767

>  <r_i_glide_emodel>  (863) 
-53.251356560629802

>  <r_i_glide_energy>  (863) 
-38.3467664718628

>  <r_i_glide_erotb>  (863) 
0.80253046032591502

>  <r_i_glide_esite>  (863) 
-0.078722475723051494

>  <r_i_glide_evdw>  (863) 
-30.441890716552699

>  <r_i_glide_gscore>  (863) 
-4.52016968537548

>  <r_i_glide_hbond>  (863) 
-0.060549803598606497

>  <r_i_glide_ligand_efficiency>  (863) 
-0.16000248876341

>  <r_i_glide_ligand_efficiency_ln>  (863) 
-1.03413162394642

>  <r_i_glide_ligand_efficiency_sa>  (863) 
-0.48586179231196702

>  <r_i_glide_lipo>  (863) 
-1.89586628543741

>  <r_i_glide_metal>  (863) 
-0

>  <r_i_glide_rewards>  (863) 
-0.57973568181818103

>  <r_lp_Energy>  (863) 
13.691604

>  <r_lp_tautomer_probability>  (863) 
0.99999274205267796

>  <r_qp_ACxDN^.5/SA>  (863) 
0.010286999999999999

>  <r_qp_CIQPlogS>  (863) 
-4.2850000000000001

>  <r_qp_EA(eV)>  (863) 
0.59899999999999998

>  <r_qp_FISA>  (863) 
65.426000000000002

>  <r_qp_FOSA>  (863) 
265.85199999999998

>  <r_qp_IP(eV)>  (863) 
8.2780000000000005

>  <r_qp_Jm>  (863) 
9.7511005301613595e-05

>  <r_qp_PISA>  (863) 
311.58499999999998

>  <r_qp_PSA>  (863) 
54.829000000000001

>  <r_qp_PercentHumanOralAbsorption>  (863) 
92.018000000000001

>  <r_qp_QPPCaco>  (863) 
147.66200000000001

>  <r_qp_QPPMDCK>  (863) 
319.57799999999997

>  <r_qp_QPlogBB>  (863) 
0.432

>  <r_qp_QPlogHERG>  (863) 
-8.0939999999999994

>  <r_qp_QPlogKhsa>  (863) 
0.76400000000000001

>  <r_qp_QPlogKp>  (863) 
-4.9850000000000003

>  <r_qp_QPlogPC16>  (863) 
14.685

>  <r_qp_QPlogPo/w>  (863) 
4.4829999999999997

>  <r_qp_QPlogPoct>  (863) 
21.68

>  <r_qp_QPlogPw>  (863) 
10.725

>  <r_qp_QPlogS>  (863) 
-4.6429999999999998

>  <r_qp_QPpolrz>  (863) 
45.171999999999997

>  <r_qp_SASA>  (863) 
756.11400000000003

>  <r_qp_SAamideO>  (863) 
0

>  <r_qp_SAfluorine>  (863) 
0

>  <r_qp_WPSA>  (863) 
113.251

>  <r_qp_accptHB>  (863) 
5.5

>  <r_qp_dip^2/V>  (863) 
0.054330900000000001

>  <r_qp_dipole>  (863) 
8.5210000000000008

>  <r_qp_donorHB>  (863) 
2

>  <r_qp_glob>  (863) 
0.7760534

>  <r_qp_mol_MW>  (863) 
413.964

>  <r_qp_volume>  (863) 
1336.5060000000001

>  <r_sd_BIOSOLVEIT.INFINISEE\_FTREES\_SIMILARITY>  (863) 
0.90300000000000002

>  <r_sd_BIOSOLVEIT.LOGP>  (863) 
3.5880999999999998

>  <r_sd_BIOSOLVEIT.MOLECULAR\_WEIGHT>  (863) 
414.97800000000001

>  <r_sd_BIOSOLVEIT.TPSA>  (863) 
45.57

>  <i_epik_Tot_Q>  (863) 
1

>  <i_epik_Tot_abs_Q>  (863) 
1

>  <i_f3d_flags>  (863) 
0

>  <i_i_glide_confnum>  (863) 
7

>  <i_i_glide_lignum>  (863) 
69

>  <i_i_glide_posenum>  (863) 
1

>  <i_i_glide_rotatable_bonds>  (863) 
9

>  <i_lp_mmshare_version>  (863) 
65135

>  <i_m_ct_format>  (863) 
2

>  <i_m_source_file_index>  (863) 
3002

>  <i_qp_#NandO>  (863) 
4

>  <i_qp_#acid>  (863) 
0

>  <i_qp_#amide>  (863) 
0

>  <i_qp_#amidine>  (863) 
0

>  <i_qp_#amine>  (863) 
2

>  <i_qp_#in34>  (863) 
0

>  <i_qp_#in56>  (863) 
17

>  <i_qp_#metab>  (863) 
6

>  <i_qp_#nonHatm>  (863) 
28

>  <i_qp_#noncon>  (863) 
0

>  <i_qp_#ringatoms>  (863) 
17

>  <i_qp_#rotor>  (863) 
8

>  <i_qp_#rtvFG>  (863) 
0

>  <i_qp_#stars>  (863) 
0

>  <i_qp_CNS>  (863) 
1

>  <i_qp_HumanOralAbsorption>  (863) 
3

>  <i_qp_RuleOfFive>  (863) 
0

>  <i_qp_RuleOfThree>  (863) 
0

>  <i_sd_BIOSOLVEIT.INFINISEE\_RESULT\_RANK>  (863) 
85791

>  <i_sd_version>  (863) 
0

>  <b_lp_Chiralities_Consistent>  (863) 
1

>  <b_sd_chiral_flag>  (863) 
0

>  <canonical_id>  (863) 
ATP-HTVS-89936433B7DC

>  <compound_code>  (863) 
96034

>  <title>  (863) 
rxn512b____EMOL490712____EMOL720738____EMOL50155899

>  <variant>  (863) 
96034-1

>  <source_file>  (863) 
运行/运行/ATP-VSW/ATP-VSW-DOCK_HTVS_1-003_lib/ATP-VSW-DOCK_HTVS_1-003_lib.mae

>  <canonical_smiles>  (863) 
C[NH+](C)Cc1ccc(CNc2csc(C(=O)NCc3ccc(Cl)cc3)c2)cc1

>  <scaffold>  (863) 
O=C(NCc1ccccc1)c1cc(NCc2ccccc2)cs1

>  <molecular_formula>  (863) 
C22H25ClN3OS+

$$$$
ATP-HTVS-89F3E6A1D8C1
     RDKit          3D

 50 53  0  0  0  0  0  0  0  0999 V2000
  198.8496  178.5362  152.0533 N   0  0  0  0  0  0  0  0  0  0  0  0
  199.6158  177.9701  153.0137 C   0  0  0  0  0  0  0  0  0  0  0  0
  199.7269  178.6259  154.2498 N   0  0  0  0  0  0  0  0  0  0  0  0
  198.9054  179.6045  154.8306 C   0  0  0  0  0  0  0  0  0  0  0  0
  199.4525  180.3504  155.8934 C   0  0  0  0  0  0  0  0  0  0  0  0
  198.7110  181.3725  156.5103 C   0  0  0  0  0  0  0  0  0  0  0  0
  197.3908  181.6451  156.0897 C   0  0  0  0  0  0  0  0  0  0  0  0
  196.8188  180.8710  155.0600 C   0  0  0  0  0  0  0  0  0  0  0  0
  197.5648  179.8469  154.4437 C   0  0  0  0  0  0  0  0  0  0  0  0
  196.5858  182.7424  156.7676 C   0  0  1  0  0  0  0  0  0  0  0  0
  195.7602  182.2256  157.8864 N   0  0  2  0  0  0  0  0  0  0  0  0
  194.8811  183.2651  158.4646 C   0  0  2  0  0  0  0  0  0  0  0  0
  196.5626  181.5581  158.9363 C   0  0  2  0  0  0  0  0  0  0  0  0
  200.3114  176.7525  152.7754 C   0  0  0  0  0  0  0  0  0  0  0  0
  200.2185  176.1363  151.5719 N   0  0  0  0  0  0  0  0  0  0  0  0
  199.4547  176.7020  150.6091 C   0  0  0  0  0  0  0  0  0  0  0  0
  198.7506  177.9154  150.8594 C   0  0  0  0  0  0  0  0  0  0  0  0
  197.9526  178.4797  149.8444 C   0  0  0  0  0  0  0  0  0  0  0  0
  197.8617  177.8736  148.5776 C   0  0  0  0  0  0  0  0  0  0  0  0
  198.5671  176.6845  148.3241 C   0  0  0  0  0  0  0  0  0  0  0  0
  199.3538  176.1019  149.3362 C   0  0  0  0  0  0  0  0  0  0  0  0
  201.1580  176.0538  153.7762 C   0  0  0  0  0  0  0  0  0  0  0  0
  200.7493  175.8994  155.1243 C   0  0  0  0  0  0  0  0  0  0  0  0
  201.5737  175.2584  156.0669 C   0  0  0  0  0  0  0  0  0  0  0  0
  202.8142  174.7219  155.6762 C   0  0  0  0  0  0  0  0  0  0  0  0
  203.2297  174.8459  154.3373 C   0  0  0  0  0  0  0  0  0  0  0  0
  202.4101  175.5068  153.4007 C   0  0  0  0  0  0  0  0  0  0  0  0
  200.4891  178.2994  154.8316 H   0  0  0  0  0  0  0  0  0  0  0  0
  200.4514  180.1407  156.2466 H   0  0  0  0  0  0  0  0  0  0  0  0
  199.1618  181.9447  157.3114 H   0  0  0  0  0  0  0  0  0  0  0  0
  195.8031  181.0600  154.7458 H   0  0  0  0  0  0  0  0  0  0  0  0
  197.0788  179.2492  153.6888 H   0  0  0  0  0  0  0  0  0  0  0  0
  197.2558  183.5239  157.1328 H   0  0  0  0  0  0  0  0  0  0  0  0
  195.9519  183.2096  156.0130 H   0  0  0  0  0  0  0  0  0  0  0  0
  195.4642  184.0960  158.8634 H   0  0  0  0  0  0  0  0  0  0  0  0
  194.2840  182.8604  159.2812 H   0  0  0  0  0  0  0  0  0  0  0  0
  194.1889  183.6653  157.7270 H   0  0  0  0  0  0  0  0  0  0  0  0
  197.2597  182.2718  159.3754 H   0  0  0  0  0  0  0  0  0  0  0  0
  197.1417  180.7090  158.5622 H   0  0  0  0  0  0  0  0  0  0  0  0
  195.9155  181.1763  159.7255 H   0  0  0  0  0  0  0  0  0  0  0  0
  197.4202  179.3970  150.0461 H   0  0  0  0  0  0  0  0  0  0  0  0
  197.2606  178.3259  147.8017 H   0  0  0  0  0  0  0  0  0  0  0  0
  198.5041  176.2238  147.3473 H   0  0  0  0  0  0  0  0  0  0  0  0
  199.8972  175.1901  149.1338 H   0  0  0  0  0  0  0  0  0  0  0  0
  199.7874  176.2673  155.4537 H   0  0  0  0  0  0  0  0  0  0  0  0
  201.2504  175.1737  157.0921 H   0  0  0  0  0  0  0  0  0  0  0  0
  203.4408  174.2193  156.4001 H   0  0  0  0  0  0  0  0  0  0  0  0
  204.1816  174.4359  154.0257 H   0  0  0  0  0  0  0  0  0  0  0  0
  202.7501  175.5943  152.3768 H   0  0  0  0  0  0  0  0  0  0  0  0
  195.1630  181.5083  157.4935 H   0  0  0  0  0  0  0  0  0  0  0  0
  1  2  2  0
  1 17  1  0
  2  3  1  0
  2 14  1  0
  3  4  1  0
  3 28  1  0
  4  5  1  0
  4  9  2  0
  5  6  2  0
  5 29  1  0
  6  7  1  0
  6 30  1  0
  7  8  2  0
  7 10  1  0
  8  9  1  0
  8 31  1  0
  9 32  1  0
 10 11  1  0
 10 33  1  1
 10 34  1  0
 11 12  1  0
 11 13  1  0
 11 50  1  6
 12 35  1  1
 12 36  1  0
 12 37  1  0
 13 38  1  1
 13 39  1  0
 13 40  1  0
 14 15  2  0
 14 22  1  0
 15 16  1  0
 16 17  1  0
 16 21  2  0
 17 18  2  0
 18 19  1  0
 18 41  1  0
 19 20  2  0
 19 42  1  0
 20 21  1  0
 20 43  1  0
 21 44  1  0
 22 23  2  0
 22 27  1  0
 23 24  1  0
 23 45  1  0
 24 25  2  0
 24 46  1  0
 25 26  1  0
 25 47  1  0
 26 27  2  0
 26 48  1  0
 27 49  1  0
M  CHG  1  11   1
M  END
>  <s_epik_cmdline>  (864) 
J2VwaWtfcHl0aG9uJywgJy1waCcsICc3LjAwMDAwMCcsICctcGh0JywgJzIuMDAwMDAwJywgJy1tcycsICcxNicsICctdG4nLCAnOCcsICctbWEnLCAnMjAwJywgJy1pbWFlJywgJzxpbmZpbGUubWFlPicsICctb21hZScsICc8b3V0ZmlsZS5tYWU+Jw==

>  <s_epik_input>  (864) 
W2NIXTFbY0hdW2NIXVtjSF1bY0hdYzEtYyhuMiljKG5jKGMyMylbY0hdW2NIXVtjSF1bY0hdMylbTkhdYzRbY0hdW2NIXWMoW2NIXVtjSF00KVtDSDJdTihbQ0gzXSlbQ0gzXQ==

>  <s_i_glide_gridfile>  (864) 
ATP-Grid

>  <s_lp_Force_Field>  (864) 
OPLS_2005

>  <s_lp_Variant>  (864) 
rxn102c____EMOL1087657____EMOL2873068-1

>  <s_lp_label>  (864) 
2354_sdstereoexpander_1_neutralizer_1_epik_1_stereoizer_1

>  <s_m_source_file>  (864) 
ATP-VSW-LIGPREP-002-in.maegz

>  <s_sd_BIOSOLVEIT.INFINISEE\_QUERY\_NAME>  (864) 
Ref-Lig

>  <s_sd_BIOSOLVEIT.INFINISEE\_QUERY\_SMILES>  (864) 
S(c1nc2c(cc1C[NH2+]Cc3ccc(cc3)C[NH+](C)C)cccc2)Cc4ccccc4

>  <s_sd_BIOSOLVEIT.INFINISEE\_REACTION\_NAME>  (864) 
rxn102c

>  <s_sd_BIOSOLVEIT.INFINISEE\_REAGENT1\_NAME>  (864) 
EMOL1087657

>  <s_sd_BIOSOLVEIT.INFINISEE\_REAGENT1\_SMILES>  (864) 
Clc1nc2c(nc1c3ccccc3)cccc2

>  <s_sd_BIOSOLVEIT.INFINISEE\_REAGENT2\_NAME>  (864) 
EMOL2873068

>  <s_sd_BIOSOLVEIT.INFINISEE\_REAGENT2\_SMILES>  (864) 
N(Cc1ccc(N)cc1)(C)C

>  <s_sd_BIOSOLVEIT.INFINISEE\_SPACE>  (864) 
eXplore_7tr_2022-12

>  <s_vsw_compound_code>  (864) 
75298

>  <s_vsw_variant>  (864) 
75298-1

>  <r_epik_Charging_Adjusted_Penalty>  (864) 
0.074139713783215794

>  <r_epik_Ionization_Penalty>  (864) 
0.037100000000000001

>  <r_epik_Ionization_Penalty_Charging>  (864) 
0.037100000000000001

>  <r_epik_Ionization_Penalty_Neutral>  (864) 
0

>  <r_epik_State_Penalty>  (864) 
0.037100000000000001

>  <r_i_docking_score>  (864) 
-4.4418063851808096

>  <r_i_glide_ecoul>  (864) 
-6.0821027755737296

>  <r_i_glide_eff_state_penalty>  (864) 
0.037100000000000001

>  <r_i_glide_einternal>  (864) 
1.3796679973602299

>  <r_i_glide_emodel>  (864) 
-50.329494392176699

>  <r_i_glide_energy>  (864) 
-35.879361152648897

>  <r_i_glide_erotb>  (864) 
0.60533368641083696

>  <r_i_glide_esite>  (864) 
-0.099304113591229495

>  <r_i_glide_evdw>  (864) 
-29.797258377075199

>  <r_i_glide_gscore>  (864) 
-4.4789063851808102

>  <r_i_glide_hbond>  (864) 
0

>  <r_i_glide_ligand_efficiency>  (864) 
-0.16451134759928901

>  <r_i_glide_ligand_efficiency_ln>  (864) 
-1.0339792975686799

>  <r_i_glide_ligand_efficiency_sa>  (864) 
-0.49353404225566599

>  <r_i_glide_lipo>  (864) 
-1.3722270773560601

>  <r_i_glide_metal>  (864) 
-0

>  <r_i_glide_rewards>  (864) 
-1.2105305454545401

>  <r_lp_Energy>  (864) 
36.226652999999999

>  <r_qp_ACxDN^.5/SA>  (864) 
0.0064257000000000003

>  <r_qp_CIQPlogS>  (864) 
-4.8890000000000002

>  <r_qp_EA(eV)>  (864) 
1.0669999999999999

>  <r_qp_FISA>  (864) 
19.216999999999999

>  <r_qp_FOSA>  (864) 
180.029

>  <r_qp_IP(eV)>  (864) 
8.1099999999999994

>  <r_qp_Jm>  (864) 
0.0330544187174572

>  <r_qp_PISA>  (864) 
501.072

>  <r_qp_PSA>  (864) 
33.988

>  <r_qp_PercentHumanOralAbsorption>  (864) 
100

>  <r_qp_QPPCaco>  (864) 
1623.9100000000001

>  <r_qp_QPPMDCK>  (864) 
924.32000000000005

>  <r_qp_QPlogBB>  (864) 
0.45500000000000002

>  <r_qp_QPlogHERG>  (864) 
-8.0519999999999996

>  <r_qp_QPlogKhsa>  (864) 
0.84499999999999997

>  <r_qp_QPlogKp>  (864) 
-1.6910000000000001

>  <r_qp_QPlogPC16>  (864) 
13.523999999999999

>  <r_qp_QPlogPo/w>  (864) 
4.992

>  <r_qp_QPlogPoct>  (864) 
18.34

>  <r_qp_QPlogPw>  (864) 
9.7379999999999995

>  <r_qp_QPlogS>  (864) 
-5.3390000000000004

>  <r_qp_QPpolrz>  (864) 
44.351999999999997

>  <r_qp_SASA>  (864) 
700.31799999999998

>  <r_qp_SAamideO>  (864) 
0

>  <r_qp_SAfluorine>  (864) 
0

>  <r_qp_WPSA>  (864) 
0

>  <r_qp_accptHB>  (864) 
4.5

>  <r_qp_dip^2/V>  (864) 
0.0028348000000000002

>  <r_qp_dipole>  (864) 
1.8620000000000001

>  <r_qp_donorHB>  (864) 
1

>  <r_qp_glob>  (864) 
0.789605

>  <r_qp_mol_MW>  (864) 
354.45400000000001

>  <r_qp_volume>  (864) 
1222.672

>  <r_sd_BIOSOLVEIT.INFINISEE\_FTREES\_SIMILARITY>  (864) 
0.92000000000000004

>  <r_sd_BIOSOLVEIT.LOGP>  (864) 
3.6848999999999998

>  <r_sd_BIOSOLVEIT.MOLECULAR\_WEIGHT>  (864) 
355.46300000000002

>  <r_sd_BIOSOLVEIT.TPSA>  (864) 
42.25

>  <i_epik_Tot_Q>  (864) 
1

>  <i_epik_Tot_abs_Q>  (864) 
1

>  <i_f3d_flags>  (864) 
0

>  <i_i_glide_confnum>  (864) 
3

>  <i_i_glide_lignum>  (864) 
952

>  <i_i_glide_posenum>  (864) 
3

>  <i_i_glide_rotatable_bonds>  (864) 
5

>  <i_lp_mmshare_version>  (864) 
65135

>  <i_m_ct_format>  (864) 
2

>  <i_m_source_file_index>  (864) 
2354

>  <i_qp_#NandO>  (864) 
4

>  <i_qp_#acid>  (864) 
0

>  <i_qp_#amide>  (864) 
0

>  <i_qp_#amidine>  (864) 
0

>  <i_qp_#amine>  (864) 
1

>  <i_qp_#in34>  (864) 
0

>  <i_qp_#in56>  (864) 
22

>  <i_qp_#metab>  (864) 
2

>  <i_qp_#nonHatm>  (864) 
27

>  <i_qp_#noncon>  (864) 
0

>  <i_qp_#ringatoms>  (864) 
22

>  <i_qp_#rotor>  (864) 
5

>  <i_qp_#rtvFG>  (864) 
0

>  <i_qp_#stars>  (864) 
1

>  <i_qp_CNS>  (864) 
2

>  <i_qp_HumanOralAbsorption>  (864) 
3

>  <i_qp_RuleOfFive>  (864) 
0

>  <i_qp_RuleOfThree>  (864) 
0

>  <i_sd_BIOSOLVEIT.INFINISEE\_RESULT\_RANK>  (864) 
16258

>  <i_sd_version>  (864) 
0

>  <b_lp_Chiralities_Consistent>  (864) 
1

>  <b_sd_chiral_flag>  (864) 
0

>  <canonical_id>  (864) 
ATP-HTVS-89F3E6A1D8C1

>  <compound_code>  (864) 
75298

>  <title>  (864) 
rxn102c____EMOL1087657____EMOL2873068

>  <variant>  (864) 
75298-1

>  <source_file>  (864) 
运行/运行/ATP-VSW/ATP-VSW-DOCK_HTVS_1-002_lib.maegz

>  <canonical_smiles>  (864) 
C[NH+](C)Cc1ccc(Nc2nc3ccccc3nc2-c2ccccc2)cc1

>  <scaffold>  (864) 
c1ccc(Nc2nc3ccccc3nc2-c2ccccc2)cc1

>  <molecular_formula>  (864) 
C23H23N4+

$$$$
ATP-HTVS-8A7A96DBFC1E
     RDKit          3D

 53 55  0  0  0  0  0  0  0  0999 V2000
  200.4255  174.6786  152.1704 O   0  0  0  0  0  0  0  0  0  0  0  0
  201.0632  174.9851  153.3615 C   0  0  0  0  0  0  0  0  0  0  0  0
  201.0307  176.2622  153.8029 N   0  0  0  0  0  0  0  0  0  0  0  0
  201.6244  176.5452  154.9803 C   0  0  0  0  0  0  0  0  0  0  0  0
  201.5609  177.8587  155.4639 N   0  0  0  0  0  0  0  0  0  0  0  0
  201.2296  178.9870  154.5940 C   0  0  1  0  0  0  0  0  0  0  0  0
  199.9895  179.7390  155.0253 C   0  0  0  0  0  0  0  0  0  0  0  0
  198.7323  179.1082  154.9591 C   0  0  0  0  0  0  0  0  0  0  0  0
  197.5667  179.8044  155.3357 C   0  0  0  0  0  0  0  0  0  0  0  0
  197.6499  181.1407  155.7877 C   0  0  0  0  0  0  0  0  0  0  0  0
  198.9131  181.7706  155.8435 C   0  0  0  0  0  0  0  0  0  0  0  0
  200.0796  181.0709  155.4759 C   0  0  0  0  0  0  0  0  0  0  0  0
  196.3912  181.8938  156.2058 C   0  0  1  0  0  0  0  0  0  0  0  0
  196.1456  181.8374  157.6713 N   0  0  2  0  0  0  0  0  0  0  0  0
  194.7566  182.1933  158.0278 C   0  0  2  0  0  0  0  0  0  0  0  0
  197.1209  182.6172  158.4705 C   0  0  2  0  0  0  0  0  0  0  0  0
  202.2800  175.5318  155.7167 C   0  0  0  0  0  0  0  0  0  0  0  0
  202.3401  174.2479  155.2825 N   0  0  0  0  0  0  0  0  0  0  0  0
  201.7220  173.9748  154.1087 C   0  0  0  0  0  0  0  0  0  0  0  0
  201.7339  172.6475  153.6722 N   0  0  0  0  0  0  0  0  0  0  0  0
  199.5005  175.6055  151.5843 C   0  0  1  0  0  0  0  0  0  0  0  0
  199.6753  175.7028  150.0826 C   0  0  0  0  0  0  0  0  0  0  0  0
  200.9340  175.4603  149.4855 C   0  0  0  0  0  0  0  0  0  0  0  0
  201.0931  175.5953  148.0921 C   0  0  0  0  0  0  0  0  0  0  0  0
  199.9988  175.9825  147.2931 C   0  0  0  0  0  0  0  0  0  0  0  0
  198.7475  176.2398  147.8862 C   0  0  0  0  0  0  0  0  0  0  0  0
  198.5890  176.1019  149.2784 C   0  0  0  0  0  0  0  0  0  0  0  0
  201.9715  178.0635  156.3642 H   0  0  0  0  0  0  0  0  0  0  0  0
  202.0793  179.6678  154.5806 H   0  0  0  0  0  0  0  0  0  0  0  0
  201.0859  178.7005  153.5565 H   0  0  0  0  0  0  0  0  0  0  0  0
  198.6704  178.0825  154.6275 H   0  0  0  0  0  0  0  0  0  0  0  0
  196.6120  179.3006  155.2988 H   0  0  0  0  0  0  0  0  0  0  0  0
  198.9982  182.7938  156.1815 H   0  0  0  0  0  0  0  0  0  0  0  0
  201.0406  181.5619  155.5436 H   0  0  0  0  0  0  0  0  0  0  0  0
  196.4375  182.9259  155.8642 H   0  0  0  0  0  0  0  0  0  0  0  0
  195.5463  181.4392  155.6840 H   0  0  0  0  0  0  0  0  0  0  0  0
  194.5315  183.2213  157.7424 H   0  0  0  0  0  0  0  0  0  0  0  0
  194.5859  182.0865  159.1005 H   0  0  0  0  0  0  0  0  0  0  0  0
  194.0525  181.5306  157.5209 H   0  0  0  0  0  0  0  0  0  0  0  0
  197.1005  183.6683  158.1848 H   0  0  0  0  0  0  0  0  0  0  0  0
  198.1363  182.2526  158.3352 H   0  0  0  0  0  0  0  0  0  0  0  0
  196.9032  182.5586  159.5377 H   0  0  0  0  0  0  0  0  0  0  0  0
  202.7581  175.7394  156.6631 H   0  0  0  0  0  0  0  0  0  0  0  0
  201.3324  172.4055  152.7769 H   0  0  0  0  0  0  0  0  0  0  0  0
  202.2791  171.9123  154.1174 H   0  0  0  0  0  0  0  0  0  0  0  0
  198.4966  175.2270  151.8027 H   0  0  0  0  0  0  0  0  0  0  0  0
  199.5313  176.6349  151.9420 H   0  0  0  0  0  0  0  0  0  0  0  0
  201.7849  175.1805  150.0909 H   0  0  0  0  0  0  0  0  0  0  0  0
  202.0533  175.4026  147.6358 H   0  0  0  0  0  0  0  0  0  0  0  0
  200.1164  176.0797  146.2232 H   0  0  0  0  0  0  0  0  0  0  0  0
  197.9131  176.5432  147.2720 H   0  0  0  0  0  0  0  0  0  0  0  0
  197.6318  176.3118  149.7315 H   0  0  0  0  0  0  0  0  0  0  0  0
  196.2255  180.8494  157.9108 H   0  0  0  0  0  0  0  0  0  0  0  0
  1  2  1  0
  1 21  1  0
  2  3  1  0
  2 19  2  0
  3  4  2  0
  4  5  1  0
  4 17  1  0
  5  6  1  0
  5 28  1  0
  6  7  1  0
  6 29  1  6
  6 30  1  0
  7  8  1  0
  7 12  2  0
  8  9  2  0
  8 31  1  0
  9 10  1  0
  9 32  1  0
 10 11  2  0
 10 13  1  0
 11 12  1  0
 11 33  1  0
 12 34  1  0
 13 14  1  0
 13 35  1  6
 13 36  1  0
 14 15  1  0
 14 16  1  0
 14 53  1  1
 15 37  1  6
 15 38  1  0
 15 39  1  0
 16 40  1  6
 16 41  1  0
 16 42  1  0
 17 18  2  0
 17 43  1  0
 18 19  1  0
 19 20  1  0
 20 44  1  0
 20 45  1  0
 21 22  1  0
 21 46  1  6
 21 47  1  0
 22 23  2  0
 22 27  1  0
 23 24  1  0
 23 48  1  0
 24 25  2  0
 24 49  1  0
 25 26  1  0
 25 50  1  0
 26 27  2  0
 26 51  1  0
 27 52  1  0
M  CHG  1  14   1
M  END
>  <s_epik_cmdline>  (865) 
J2VwaWtfcHl0aG9uJywgJy1waCcsICc3LjAwMDAwMCcsICctcGh0JywgJzIuMDAwMDAwJywgJy1tcycsICcxNicsICctdG4nLCAnOCcsICctbWEnLCAnMjAwJywgJy1pbWFlJywgJzxpbmZpbGUubWFlPicsICctb21hZScsICc8b3V0ZmlsZS5tYWU+Jw==

>  <s_epik_input>  (865) 
W2NIXTFbY0hdW2NIXVtjSF1bY0hdYzFbQ0gyXU9jMm5jKFtjSF1uYzJbTkgyXSlbTkhdW0NIMl1jM1tjSF1bY0hdYyhbY0hdW2NIXTMpW0NIMl1OKFtDSDNdKVtDSDNd

>  <s_i_glide_gridfile>  (865) 
ATP-Grid

>  <s_lp_Force_Field>  (865) 
OPLS_2005

>  <s_lp_Variant>  (865) 
rxn102b____EMOL32179295____EMOL50155899-1

>  <s_lp_label>  (865) 
2539_sdstereoexpander_1_neutralizer_1_epik_1_stereoizer_1

>  <s_m_source_file>  (865) 
ATP-VSW-LIGPREP-002-in.maegz

>  <s_sd_BIOSOLVEIT.INFINISEE\_QUERY\_NAME>  (865) 
Ref-Lig

>  <s_sd_BIOSOLVEIT.INFINISEE\_QUERY\_SMILES>  (865) 
S(c1nc2c(cc1C[NH2+]Cc3ccc(cc3)C[NH+](C)C)cccc2)Cc4ccccc4

>  <s_sd_BIOSOLVEIT.INFINISEE\_REACTION\_NAME>  (865) 
rxn102b

>  <s_sd_BIOSOLVEIT.INFINISEE\_REAGENT1\_NAME>  (865) 
EMOL32179295

>  <s_sd_BIOSOLVEIT.INFINISEE\_REAGENT1\_SMILES>  (865) 
Brc1nc(OCc2ccccc2)c(nc1)N

>  <s_sd_BIOSOLVEIT.INFINISEE\_REAGENT2\_NAME>  (865) 
EMOL50155899

>  <s_sd_BIOSOLVEIT.INFINISEE\_REAGENT2\_SMILES>  (865) 
N(Cc1ccc(cc1)CN)(C)C

>  <s_sd_BIOSOLVEIT.INFINISEE\_SPACE>  (865) 
eXplore_7tr_2022-12

>  <s_vsw_compound_code>  (865) 
81218

>  <s_vsw_variant>  (865) 
81218-1

>  <r_epik_Charging_Adjusted_Penalty>  (865) 
0.078407994868761793

>  <r_epik_Ionization_Penalty>  (865) 
0.039899999999999998

>  <r_epik_Ionization_Penalty_Charging>  (865) 
0.039199999999999999

>  <r_epik_Ionization_Penalty_Neutral>  (865) 
0.00069999999999999999

>  <r_epik_State_Penalty>  (865) 
0.039199999999999999

>  <r_i_docking_score>  (865) 
-4.7853255910200696

>  <r_i_glide_ecoul>  (865) 
-10.302954673767101

>  <r_i_glide_eff_state_penalty>  (865) 
0.039199999999999999

>  <r_i_glide_einternal>  (865) 
4.6996560096740696

>  <r_i_glide_emodel>  (865) 
-56.587103038324699

>  <r_i_glide_energy>  (865) 
-40.853703498840297

>  <r_i_glide_erotb>  (865) 
1.0131117306933799

>  <r_i_glide_esite>  (865) 
-0.18850962987929101

>  <r_i_glide_evdw>  (865) 
-30.5507488250732

>  <r_i_glide_gscore>  (865) 
-4.8245255910200697

>  <r_i_glide_hbond>  (865) 
-0.35999999999999999

>  <r_i_glide_ligand_efficiency>  (865) 
-0.177234281148891

>  <r_i_glide_ligand_efficiency_ln>  (865) 
-1.1139449053313399

>  <r_i_glide_ligand_efficiency_sa>  (865) 
-0.53170284286253899

>  <r_i_glide_lipo>  (865) 
-1.06703823133362

>  <r_i_glide_metal>  (865) 
-0

>  <r_i_glide_rewards>  (865) 
-1.1491088181818201

>  <r_lp_Energy>  (865) 
22.478562

>  <r_qp_ACxDN^.5/SA>  (865) 
0.0127368

>  <r_qp_CIQPlogS>  (865) 
-4.4699999999999998

>  <r_qp_EA(eV)>  (865) 
-0.084000000000000005

>  <r_qp_FISA>  (865) 
105.532

>  <r_qp_FOSA>  (865) 
225.75299999999999

>  <r_qp_IP(eV)>  (865) 
7.5330000000000004

>  <r_qp_Jm>  (865) 
0.0181138885874364

>  <r_qp_PISA>  (865) 
348.65300000000002

>  <r_qp_PSA>  (865) 
69.417000000000002

>  <r_qp_PercentHumanOralAbsorption>  (865) 
91.551000000000002

>  <r_qp_QPPCaco>  (865) 
246.62799999999999

>  <r_qp_QPPMDCK>  (865) 
120.53100000000001

>  <r_qp_QPlogBB>  (865) 
-0.63200000000000001

>  <r_qp_QPlogHERG>  (865) 
-6.867

>  <r_qp_QPlogKhsa>  (865) 
0.47599999999999998

>  <r_qp_QPlogKp>  (865) 
-3.4350000000000001

>  <r_qp_QPlogPC16>  (865) 
13.564

>  <r_qp_QPlogPo/w>  (865) 
3.722

>  <r_qp_QPlogPoct>  (865) 
20.396000000000001

>  <r_qp_QPlogPw>  (865) 
11.778

>  <r_qp_QPlogS>  (865) 
-3.8679999999999999

>  <r_qp_QPpolrz>  (865) 
40.750999999999998

>  <r_qp_SASA>  (865) 
679.93700000000001

>  <r_qp_SAamideO>  (865) 
0

>  <r_qp_SAfluorine>  (865) 
0

>  <r_qp_WPSA>  (865) 
0

>  <r_qp_accptHB>  (865) 
5

>  <r_qp_dip^2/V>  (865) 
0.00047199999999999998

>  <r_qp_dipole>  (865) 
0.76300000000000001

>  <r_qp_donorHB>  (865) 
3

>  <r_qp_glob>  (865) 
0.81794909999999998

>  <r_qp_mol_MW>  (865) 
363.46100000000001

>  <r_qp_volume>  (865) 
1233.2329999999999

>  <r_sd_BIOSOLVEIT.INFINISEE\_FTREES\_SIMILARITY>  (865) 
0.91300000000000003

>  <r_sd_BIOSOLVEIT.LOGP>  (865) 
1.8944000000000001

>  <r_sd_BIOSOLVEIT.MOLECULAR\_WEIGHT>  (865) 
364.47000000000003

>  <r_sd_BIOSOLVEIT.TPSA>  (865) 
77.5

>  <i_epik_Tot_Q>  (865) 
1

>  <i_epik_Tot_abs_Q>  (865) 
1

>  <i_f3d_flags>  (865) 
0

>  <i_i_glide_confnum>  (865) 
6

>  <i_i_glide_lignum>  (865) 
1123

>  <i_i_glide_posenum>  (865) 
11

>  <i_i_glide_rotatable_bonds>  (865) 
8

>  <i_lp_mmshare_version>  (865) 
65135

>  <i_m_ct_format>  (865) 
2

>  <i_m_source_file_index>  (865) 
2539

>  <i_qp_#NandO>  (865) 
6

>  <i_qp_#acid>  (865) 
0

>  <i_qp_#amide>  (865) 
0

>  <i_qp_#amidine>  (865) 
0

>  <i_qp_#amine>  (865) 
1

>  <i_qp_#in34>  (865) 
0

>  <i_qp_#in56>  (865) 
18

>  <i_qp_#metab>  (865) 
7

>  <i_qp_#nonHatm>  (865) 
27

>  <i_qp_#noncon>  (865) 
0

>  <i_qp_#ringatoms>  (865) 
18

>  <i_qp_#rotor>  (865) 
9

>  <i_qp_#rtvFG>  (865) 
0

>  <i_qp_#stars>  (865) 
2

>  <i_qp_CNS>  (865) 
0

>  <i_qp_HumanOralAbsorption>  (865) 
3

>  <i_qp_RuleOfFive>  (865) 
0

>  <i_qp_RuleOfThree>  (865) 
1

>  <i_sd_BIOSOLVEIT.INFINISEE\_RESULT\_RANK>  (865) 
34392

>  <i_sd_version>  (865) 
0

>  <b_lp_Chiralities_Consistent>  (865) 
1

>  <b_sd_chiral_flag>  (865) 
0

>  <canonical_id>  (865) 
ATP-HTVS-8A7A96DBFC1E

>  <compound_code>  (865) 
81218

>  <title>  (865) 
rxn102b____EMOL32179295____EMOL50155899

>  <variant>  (865) 
81218-1

>  <source_file>  (865) 
运行/运行/ATP-VSW/ATP-VSW-DOCK_HTVS_1-002_lib.maegz

>  <canonical_smiles>  (865) 
C[NH+](C)Cc1ccc(CNc2cnc(N)c(OCc3ccccc3)n2)cc1

>  <scaffold>  (865) 
c1ccc(CNc2cncc(OCc3ccccc3)n2)cc1

>  <molecular_formula>  (865) 
C21H26N5O+

$$$$
ATP-HTVS-8A89FEC9078D
     RDKit          3D

 62 65  0  0  0  0  0  0  0  0999 V2000
  199.4021  182.2758  148.2686 F   0  0  0  0  0  0  0  0  0  0  0  0
  198.7122  181.7328  149.2950 C   0  0  0  0  0  0  0  0  0  0  0  0
  198.1983  182.5479  150.3324 C   0  0  0  0  0  0  0  0  0  0  0  0
  197.5049  181.9415  151.4037 C   0  0  0  0  0  0  0  0  0  0  0  0
  197.3158  180.5420  151.4461 C   0  0  0  0  0  0  0  0  0  0  0  0
  197.7879  179.7464  150.3839 C   0  0  0  0  0  0  0  0  0  0  0  0
  198.4819  180.3382  149.3141 C   0  0  0  0  0  0  0  0  0  0  0  0
  196.5601  179.8844  152.5837 C   0  0  1  0  0  0  0  0  0  0  0  0
  196.7478  180.5024  153.8986 N   0  0  0  0  0  0  0  0  0  0  0  0
  197.7948  180.1127  154.7462 C   0  0  0  0  0  0  0  0  0  0  0  0
  198.3602  178.9127  154.4939 N   0  0  0  0  0  0  0  0  0  0  0  0
  199.2933  178.4322  155.3479 C   0  0  0  0  0  0  0  0  0  0  0  0
  199.7094  179.2061  156.4605 C   0  0  0  0  0  0  0  0  0  0  0  0
  199.1797  180.4431  156.6801 N   0  0  0  0  0  0  0  0  0  0  0  0
  198.2008  180.9046  155.8539 C   0  0  0  0  0  0  0  0  0  0  0  0
  197.6202  182.1534  156.1734 N   0  0  0  0  0  0  0  0  0  0  0  0
  197.9041  182.7801  157.4704 C   0  0  1  0  0  0  0  0  0  0  0  0
  196.7155  183.3297  158.2410 C   0  0  0  0  0  0  0  0  0  0  0  0
  196.8304  184.4460  159.1017 C   0  0  0  0  0  0  0  0  0  0  0  0
  198.0846  185.1917  159.2958 N   0  0  0  0  0  0  0  0  0  0  0  0
  199.1231  184.5474  159.4427 O   0  0  0  0  0  0  0  0  0  0  0  0
  198.0281  186.4075  159.3194 O   0  0  0  0  0  0  0  0  0  0  0  0
  195.6908  184.8955  159.8102 C   0  0  0  0  0  0  0  0  0  0  0  0
  194.4574  184.2326  159.6755 C   0  0  0  0  0  0  0  0  0  0  0  0
  194.3470  183.1151  158.8394 C   0  0  0  0  0  0  0  0  0  0  0  0
  195.4729  182.6599  158.1331 C   0  0  0  0  0  0  0  0  0  0  0  0
  197.4286  183.1074  155.0754 C   0  0  2  0  0  0  0  0  0  0  0  0
  200.6847  178.6842  157.3278 C   0  0  0  0  0  0  0  0  0  0  0  0
  201.2266  177.4047  157.1117 C   0  0  0  0  0  0  0  0  0  0  0  0
  200.8318  176.6397  156.0017 C   0  0  0  0  0  0  0  0  0  0  0  0
  199.8643  177.1613  155.1258 C   0  0  0  0  0  0  0  0  0  0  0  0
  198.3241  184.0706  150.2782 C   0  0  1  0  0  0  0  0  0  0  0  0
  197.2986  184.7562  149.4757 N   0  0  0  0  0  0  0  0  0  0  0  0
  195.9519  184.4205  149.9167 C   0  0  2  0  0  0  0  0  0  0  0  0
  197.4326  184.4988  148.0482 C   0  0  2  0  0  0  0  0  0  0  0  0
  197.0972  182.5640  152.1889 H   0  0  0  0  0  0  0  0  0  0  0  0
  197.6187  178.6802  150.3848 H   0  0  0  0  0  0  0  0  0  0  0  0
  198.8217  179.7384  148.4830 H   0  0  0  0  0  0  0  0  0  0  0  0
  195.4952  179.9099  152.3484 H   0  0  0  0  0  0  0  0  0  0  0  0
  196.8190  178.8290  152.6076 H   0  0  0  0  0  0  0  0  0  0  0  0
  196.4169  181.4446  154.0345 H   0  0  0  0  0  0  0  0  0  0  0  0
  198.3563  182.0865  158.1814 H   0  0  0  0  0  0  0  0  0  0  0  0
  198.6503  183.5474  157.2721 H   0  0  0  0  0  0  0  0  0  0  0  0
  195.7642  185.7585  160.4534 H   0  0  0  0  0  0  0  0  0  0  0  0
  193.5957  184.5951  160.2168 H   0  0  0  0  0  0  0  0  0  0  0  0
  193.4002  182.6032  158.7405 H   0  0  0  0  0  0  0  0  0  0  0  0
  195.3693  181.7911  157.5042 H   0  0  0  0  0  0  0  0  0  0  0  0
  198.0924  182.8970  154.2413 H   0  0  0  0  0  0  0  0  0  0  0  0
  197.6366  184.1310  155.3845 H   0  0  0  0  0  0  0  0  0  0  0  0
  196.3998  183.0877  154.7299 H   0  0  0  0  0  0  0  0  0  0  0  0
  201.0226  179.2664  158.1703 H   0  0  0  0  0  0  0  0  0  0  0  0
  201.9873  177.0295  157.7675 H   0  0  0  0  0  0  0  0  0  0  0  0
  201.2883  175.6812  155.8124 H   0  0  0  0  0  0  0  0  0  0  0  0
  199.5576  176.5806  154.2711 H   0  0  0  0  0  0  0  0  0  0  0  0
  198.2788  184.4545  151.2988 H   0  0  0  0  0  0  0  0  0  0  0  0
  199.3210  184.3398  149.9109 H   0  0  0  0  0  0  0  0  0  0  0  0
  195.2162  184.9988  149.3528 H   0  0  0  0  0  0  0  0  0  0  0  0
  195.8194  184.6303  150.9782 H   0  0  0  0  0  0  0  0  0  0  0  0
  195.7400  183.3670  149.7629 H   0  0  0  0  0  0  0  0  0  0  0  0
  196.7097  185.0842  147.4750 H   0  0  0  0  0  0  0  0  0  0  0  0
  197.2756  183.4481  147.8088 H   0  0  0  0  0  0  0  0  0  0  0  0
  198.4242  184.7934  147.7091 H   0  0  0  0  0  0  0  0  0  0  0  0
  1  2  1  0
  2  3  2  0
  2  7  1  0
  3  4  1  0
  3 32  1  0
  4  5  2  0
  4 36  1  0
  5  6  1  0
  5  8  1  0
  6  7  2  0
  6 37  1  0
  7 38  1  0
  8  9  1  0
  8 39  1  6
  8 40  1  0
  9 10  1  0
  9 41  1  0
 10 11  2  0
 10 15  1  0
 11 12  1  0
 12 13  1  0
 12 31  2  0
 13 14  1  0
 13 28  2  0
 14 15  2  0
 15 16  1  0
 16 17  1  0
 16 27  1  0
 17 18  1  0
 17 42  1  1
 17 43  1  0
 18 19  1  0
 18 26  2  0
 19 20  1  0
 19 23  2  0
 20 21  1  0
 20 22  2  0
 23 24  1  0
 23 44  1  0
 24 25  2  0
 24 45  1  0
 25 26  1  0
 25 46  1  0
 26 47  1  0
 27 48  1  6
 27 49  1  0
 27 50  1  0
 28 29  1  0
 28 51  1  0
 29 30  2  0
 29 52  1  0
 30 31  1  0
 30 53  1  0
 31 54  1  0
 32 33  1  0
 32 55  1  1
 32 56  1  0
 33 34  1  0
 33 35  1  0
 34 57  1  6
 34 58  1  0
 34 59  1  0
 35 60  1  6
 35 61  1  0
 35 62  1  0
M  CHG  2  20   1  21  -1
M  END
>  <s_epik_cmdline>  (866) 
J2VwaWtfcHl0aG9uJywgJy1waCcsICc3LjAwMDAwMCcsICctcGh0JywgJzIuMDAwMDAwJywgJy1tcycsICcxNicsICctdG4nLCAnOCcsICctbWEnLCAnMjAwJywgJy1pbWFlJywgJzxpbmZpbGUubWFlPicsICctb21hZScsICc8b3V0ZmlsZS5tYWU+Jw==

>  <s_epik_input>  (866) 
W0NIM11OKFtDSDNdKVtDSDJdYyhjMUYpW2NIXWMoW2NIXVtjSF0xKVtDSDJdW05IXWMobjIpYyhuYyhjMjMpW2NIXVtjSF1bY0hdW2NIXTMpTihbQ0gzXSlbQ0gyXWM0YyhbTitdKFtPLV0pPU8pW2NIXVtjSF1bY0hdW2NIXTQ=

>  <s_i_glide_gridfile>  (866) 
ATP-Grid

>  <s_lp_Force_Field>  (866) 
OPLS_2005

>  <s_lp_Variant>  (866) 
m_282030aaa____21926588____23157418____21968946-2

>  <s_lp_label>  (866) 
947_sdstereoexpander_1_neutralizer_1_epik_2_stereoizer_1

>  <s_m_source_file>  (866) 
ATP-VSW-LIGPREP-002-in.maegz

>  <s_sd_BIOSOLVEIT.INFINISEE\_QUERY\_NAME>  (866) 
Ref-Lig

>  <s_sd_BIOSOLVEIT.INFINISEE\_QUERY\_SMILES>  (866) 
S(c1nc2c(cc1C[NH2+]Cc3ccc(cc3)C[NH+](C)C)cccc2)Cc4ccccc4

>  <s_sd_BIOSOLVEIT.INFINISEE\_REACTION\_NAME>  (866) 
m_282030aaa

>  <s_sd_BIOSOLVEIT.INFINISEE\_REAGENT1\_SMILES>  (866) 
[R1*]N(Cc1c([N+]([O-])=O)cccc1)C

>  <s_sd_BIOSOLVEIT.INFINISEE\_REAGENT2\_SMILES>  (866) 
[R1*]c1nc2c(nc1[R2*])cccc2

>  <s_sd_BIOSOLVEIT.INFINISEE\_REAGENT3\_SMILES>  (866) 
[R2*]NCc1cc(c(F)cc1)CN(C)C

>  <s_sd_BIOSOLVEIT.INFINISEE\_SPACE>  (866) 
REALSpace_44bn_2023-08

>  <s_vsw_compound_code>  (866) 
30274

>  <s_vsw_variant>  (866) 
30274-2

>  <r_epik_Charging_Adjusted_Penalty>  (866) 
1.47191865765431

>  <r_epik_Ionization_Penalty>  (866) 
1.4724999999999999

>  <r_epik_Ionization_Penalty_Charging>  (866) 
0

>  <r_epik_Ionization_Penalty_Neutral>  (866) 
1.4724999999999999

>  <r_epik_State_Penalty>  (866) 
1.4719

>  <r_i_docking_score>  (866) 
-2.3093773139965501

>  <r_i_glide_ecoul>  (866) 
-0.93761277198791504

>  <r_i_glide_eff_state_penalty>  (866) 
1.4719

>  <r_i_glide_einternal>  (866) 
6.12115430831909

>  <r_i_glide_emodel>  (866) 
-49.933567649955101

>  <r_i_glide_energy>  (866) 
-42.995016336440997

>  <r_i_glide_erotb>  (866) 
0.62905376767020604

>  <r_i_glide_esite>  (866) 
-0.057595372566485503

>  <r_i_glide_evdw>  (866) 
-42.057403564453097

>  <r_i_glide_gscore>  (866) 
-3.7812773139965499

>  <r_i_glide_hbond>  (866) 
0

>  <r_i_glide_ligand_efficiency>  (866) 
-0.065982208971329906

>  <r_i_glide_ligand_efficiency_ln>  (866) 
-0.50695957429024097

>  <r_i_glide_ligand_efficiency_sa>  (866) 
-0.215832180582155

>  <r_i_glide_lipo>  (866) 
-1.7862174864067999

>  <r_i_glide_metal>  (866) 
-0

>  <r_i_glide_rewards>  (866) 
-0.32300612867262701

>  <r_lp_Energy>  (866) 
40.886215999999997

>  <r_qp_ACxDN^.5/SA>  (866) 
0.0082661000000000002

>  <r_qp_CIQPlogS>  (866) 
-6.742

>  <r_qp_EA(eV)>  (866) 
1.139

>  <r_qp_FISA>  (866) 
103.646

>  <r_qp_FOSA>  (866) 
214.11000000000001

>  <r_qp_IP(eV)>  (866) 
8.5749999999999993

>  <r_qp_Jm>  (866) 
0.00435390802492743

>  <r_qp_PISA>  (866) 
373.04399999999998

>  <r_qp_PSA>  (866) 
78.108000000000004

>  <r_qp_PercentHumanOralAbsorption>  (866) 
100

>  <r_qp_QPPCaco>  (866) 
256.99599999999998

>  <r_qp_QPPMDCK>  (866) 
196.09

>  <r_qp_QPlogBB>  (866) 
-0.47699999999999998

>  <r_qp_QPlogHERG>  (866) 
-6.649

>  <r_qp_QPlogKhsa>  (866) 
0.90400000000000003

>  <r_qp_QPlogKp>  (866) 
-3.3140000000000001

>  <r_qp_QPlogPC16>  (866) 
14.622

>  <r_qp_QPlogPo/w>  (866) 
4.9790000000000001

>  <r_qp_QPlogPoct>  (866) 
21.163

>  <r_qp_QPlogPw>  (866) 
10.109999999999999

>  <r_qp_QPlogS>  (866) 
-4.7229999999999999

>  <r_qp_QPpolrz>  (866) 
48.142000000000003

>  <r_qp_SASA>  (866) 
725.85400000000004

>  <r_qp_SAamideO>  (866) 
0

>  <r_qp_SAfluorine>  (866) 
35.054000000000002

>  <r_qp_WPSA>  (866) 
35.054000000000002

>  <r_qp_accptHB>  (866) 
6

>  <r_qp_dip^2/V>  (866) 
0.0139796

>  <r_qp_dipole>  (866) 
4.4429999999999996

>  <r_qp_donorHB>  (866) 
1

>  <r_qp_glob>  (866) 
0.83861160000000001

>  <r_qp_mol_MW>  (866) 
474.53699999999998

>  <r_qp_volume>  (866) 
1412.106

>  <r_sd_BIOSOLVEIT.INFINISEE\_FTREES\_SIMILARITY>  (866) 
0.91700000000000004

>  <r_sd_BIOSOLVEIT.LOGP>  (866) 
3.5701000000000001

>  <r_sd_BIOSOLVEIT.MOLECULAR\_WEIGHT>  (866) 
475.54500000000002

>  <r_sd_BIOSOLVEIT.TPSA>  (866) 
91.310000000000002

>  <i_epik_Tot_Q>  (866) 
0

>  <i_epik_Tot_abs_Q>  (866) 
2

>  <i_f3d_flags>  (866) 
0

>  <i_i_glide_confnum>  (866) 
10

>  <i_i_glide_lignum>  (866) 
295

>  <i_i_glide_posenum>  (866) 
14

>  <i_i_glide_rotatable_bonds>  (866) 
9

>  <i_lp_mmshare_version>  (866) 
65135

>  <i_m_ct_format>  (866) 
2

>  <i_m_source_file_index>  (866) 
947

>  <i_qp_#NandO>  (866) 
8

>  <i_qp_#acid>  (866) 
0

>  <i_qp_#amide>  (866) 
0

>  <i_qp_#amidine>  (866) 
0

>  <i_qp_#amine>  (866) 
1

>  <i_qp_#in34>  (866) 
0

>  <i_qp_#in56>  (866) 
22

>  <i_qp_#metab>  (866) 
5

>  <i_qp_#nonHatm>  (866) 
35

>  <i_qp_#noncon>  (866) 
0

>  <i_qp_#ringatoms>  (866) 
22

>  <i_qp_#rotor>  (866) 
9

>  <i_qp_#rtvFG>  (866) 
0

>  <i_qp_#stars>  (866) 
0

>  <i_qp_CNS>  (866) 
1

>  <i_qp_HumanOralAbsorption>  (866) 
3

>  <i_qp_RuleOfFive>  (866) 
0

>  <i_qp_RuleOfThree>  (866) 
0

>  <i_sd_BIOSOLVEIT.INFINISEE\_REAGENT1\_NAME>  (866) 
21926588

>  <i_sd_BIOSOLVEIT.INFINISEE\_REAGENT2\_NAME>  (866) 
23157418

>  <i_sd_BIOSOLVEIT.INFINISEE\_REAGENT3\_NAME>  (866) 
21968946

>  <i_sd_BIOSOLVEIT.INFINISEE\_RESULT\_RANK>  (866) 
22185

>  <i_sd_version>  (866) 
0

>  <b_lp_Chiralities_Consistent>  (866) 
1

>  <b_sd_chiral_flag>  (866) 
0

>  <canonical_id>  (866) 
ATP-HTVS-8A89FEC9078D

>  <compound_code>  (866) 
30274

>  <title>  (866) 
m_282030aaa____21926588____23157418____21968946

>  <variant>  (866) 
30274-2

>  <source_file>  (866) 
运行/运行/ATP-VSW/ATP-VSW-DOCK_HTVS_1-002_lib.maegz

>  <canonical_smiles>  (866) 
CN(C)Cc1cc(CNc2nc3ccccc3nc2N(C)Cc2ccccc2[N+](=O)[O-])ccc1F

>  <scaffold>  (866) 
c1ccc(CNc2nc3ccccc3nc2NCc2ccccc2)cc1

>  <molecular_formula>  (866) 
C26H27FN6O2

$$$$
ATP-HTVS-8B2F0F11D1D9
     RDKit          3D

 64 67  0  0  0  0  0  0  0  0999 V2000
  198.8021  177.6559  150.2055 O   0  0  0  0  0  0  0  0  0  0  0  0
  199.3394  177.6098  151.3133 C   0  0  0  0  0  0  0  0  0  0  0  0
  199.1240  178.4717  152.3257 N   0  0  0  0  0  0  0  0  0  0  0  0
  198.2649  179.6084  152.3937 C   0  0  0  0  0  0  0  0  0  0  0  0
  197.5600  180.0119  151.3125 N   0  0  0  0  0  0  0  0  0  0  0  0
  196.7864  181.1058  151.3899 C   0  0  0  0  0  0  0  0  0  0  0  0
  196.6502  181.8595  152.5614 C   0  0  0  0  0  0  0  0  0  0  0  0
  197.3399  181.4626  153.7232 C   0  0  0  0  0  0  0  0  0  0  0  0
  198.1953  180.3185  153.6341 C   0  0  0  0  0  0  0  0  0  0  0  0
  199.0194  179.8696  154.8091 C   0  0  0  0  0  0  0  0  0  0  0  0
  198.9698  178.6995  155.1972 O   0  0  0  0  0  0  0  0  0  0  0  0
  199.9436  180.8588  155.4451 C   0  0  0  0  0  0  0  0  0  0  0  0
  200.4548  180.6048  156.7407 C   0  0  0  0  0  0  0  0  0  0  0  0
  201.2882  181.5445  157.3804 C   0  0  0  0  0  0  0  0  0  0  0  0
  201.6156  182.7538  156.7378 C   0  0  0  0  0  0  0  0  0  0  0  0
  201.1233  183.0122  155.4460 C   0  0  0  0  0  0  0  0  0  0  0  0
  200.3148  182.0622  154.7958 C   0  0  0  0  0  0  0  0  0  0  0  0
  197.1747  182.2824  154.9407 C   0  0  0  0  0  0  0  0  0  0  0  0
  196.7281  181.7049  156.1487 C   0  0  0  0  0  0  0  0  0  0  0  0
  196.6253  182.4716  157.3237 C   0  0  0  0  0  0  0  0  0  0  0  0
  196.1944  181.8375  158.4860 N   0  0  0  0  0  0  0  0  0  0  0  0
  196.9724  183.8392  157.3123 C   0  0  0  0  0  0  0  0  0  0  0  0
  197.4134  184.4274  156.1095 C   0  0  0  0  0  0  0  0  0  0  0  0
  197.5020  183.6573  154.9365 C   0  0  0  0  0  0  0  0  0  0  0  0
  196.8673  184.6834  158.5688 C   0  0  2  0  0  0  0  0  0  0  0  0
  200.3021  176.5039  151.6459 C   0  0  0  0  0  0  0  0  0  0  0  0
  200.2011  175.2563  150.9863 C   0  0  0  0  0  0  0  0  0  0  0  0
  201.1221  174.2278  151.2685 C   0  0  0  0  0  0  0  0  0  0  0  0
  202.1759  174.4377  152.1849 C   0  0  0  0  0  0  0  0  0  0  0  0
  202.2954  175.6941  152.8146 C   0  0  0  0  0  0  0  0  0  0  0  0
  201.3682  176.7169  152.5514 C   0  0  0  0  0  0  0  0  0  0  0  0
  203.1378  173.3036  152.5361 C   0  0  1  0  0  0  0  0  0  0  0  0
  202.8165  172.6717  153.8443 N   0  0  1  0  0  0  0  0  0  0  0  0
  203.3775  173.3816  155.0118 C   0  0  2  0  0  0  0  0  0  0  0  0
  201.3943  172.3212  154.0133 C   0  0  2  0  0  0  0  0  0  0  0  0
  199.5902  178.2359  153.1900 H   0  0  0  0  0  0  0  0  0  0  0  0
  196.2644  181.3846  150.4863 H   0  0  0  0  0  0  0  0  0  0  0  0
  196.0144  182.7337  152.5719 H   0  0  0  0  0  0  0  0  0  0  0  0
  200.1860  179.6959  157.2675 H   0  0  0  0  0  0  0  0  0  0  0  0
  201.6633  181.3451  158.3732 H   0  0  0  0  0  0  0  0  0  0  0  0
  202.2300  183.4909  157.2357 H   0  0  0  0  0  0  0  0  0  0  0  0
  201.3415  183.9496  154.9554 H   0  0  0  0  0  0  0  0  0  0  0  0
  199.9571  182.2963  153.8035 H   0  0  0  0  0  0  0  0  0  0  0  0
  196.4746  180.6544  156.1765 H   0  0  0  0  0  0  0  0  0  0  0  0
  196.0449  182.3242  159.3526 H   0  0  0  0  0  0  0  0  0  0  0  0
  195.9388  180.8491  158.4489 H   0  0  0  0  0  0  0  0  0  0  0  0
  197.6935  185.4686  156.0817 H   0  0  0  0  0  0  0  0  0  0  0  0
  197.8603  184.1182  154.0277 H   0  0  0  0  0  0  0  0  0  0  0  0
  197.1208  185.7240  158.3703 H   0  0  0  0  0  0  0  0  0  0  0  0
  197.5387  184.3057  159.3407 H   0  0  0  0  0  0  0  0  0  0  0  0
  195.8460  184.6517  158.9482 H   0  0  0  0  0  0  0  0  0  0  0  0
  199.3993  175.0811  150.2829 H   0  0  0  0  0  0  0  0  0  0  0  0
  201.0033  173.2773  150.7724 H   0  0  0  0  0  0  0  0  0  0  0  0
  203.0977  175.8867  153.5095 H   0  0  0  0  0  0  0  0  0  0  0  0
  201.4898  177.6530  153.0798 H   0  0  0  0  0  0  0  0  0  0  0  0
  203.0765  172.5442  151.7533 H   0  0  0  0  0  0  0  0  0  0  0  0
  204.1685  173.6724  152.5027 H   0  0  0  0  0  0  0  0  0  0  0  0
  202.9261  174.3662  155.1495 H   0  0  0  0  0  0  0  0  0  0  0  0
  204.4551  173.5125  154.9060 H   0  0  0  0  0  0  0  0  0  0  0  0
  203.1989  172.8186  155.9277 H   0  0  0  0  0  0  0  0  0  0  0  0
  200.7425  173.1970  154.0597 H   0  0  0  0  0  0  0  0  0  0  0  0
  201.2707  171.7596  154.9292 H   0  0  0  0  0  0  0  0  0  0  0  0
  201.0741  171.6890  153.1814 H   0  0  0  0  0  0  0  0  0  0  0  0
  203.2387  171.7211  153.8538 H   0  0  0  0  0  0  0  0  0  0  0  0
  1  2  2  0
  2  3  1  0
  2 26  1  0
  3  4  1  0
  3 36  1  0
  4  5  1  0
  4  9  2  0
  5  6  2  0
  6  7  1  0
  6 37  1  0
  7  8  2  0
  7 38  1  0
  8  9  1  0
  8 18  1  0
  9 10  1  0
 10 11  2  0
 10 12  1  0
 12 13  2  0
 12 17  1  0
 13 14  1  0
 13 39  1  0
 14 15  2  0
 14 40  1  0
 15 16  1  0
 15 41  1  0
 16 17  2  0
 16 42  1  0
 17 43  1  0
 18 19  2  0
 18 24  1  0
 19 20  1  0
 19 44  1  0
 20 21  1  0
 20 22  2  0
 21 45  1  0
 21 46  1  0
 22 23  1  0
 22 25  1  0
 23 24  2  0
 23 47  1  0
 24 48  1  0
 25 49  1  6
 25 50  1  0
 25 51  1  0
 26 27  1  0
 26 31  2  0
 27 28  2  0
 27 52  1  0
 28 29  1  0
 28 53  1  0
 29 30  2  0
 29 32  1  0
 30 31  1  0
 30 54  1  0
 31 55  1  0
 32 33  1  0
 32 56  1  6
 32 57  1  0
 33 34  1  0
 33 35  1  0
 33 64  1  6
 34 58  1  1
 34 59  1  0
 34 60  1  0
 35 61  1  1
 35 62  1  0
 35 63  1  0
M  CHG  1  33   1
M  END
>  <s_epik_cmdline>  (867) 
J2VwaWtfcHl0aG9uJywgJy1waCcsICc3LjAwMDAwMCcsICctcGh0JywgJzIuMDAwMDAwJywgJy1tcycsICcxNicsICctdG4nLCAnOCcsICctbWEnLCAnMjAwJywgJy1pbWFlJywgJzxpbmZpbGUubWFlPicsICctb21hZScsICc8b3V0ZmlsZS5tYWU+Jw==

>  <s_epik_input>  (867) 
W0NIM11OKFtDSDNdKVtDSDJdYyhbY0hdW2NIXTEpW2NIXVtjSF1jMUMoPU8pW05IXWMybltjSF1bY0hdYygtYzNbY0hdYyhbTkgyXSljKFtDSDNdKVtjSF1bY0hdMyljMkMoPU8pYzRbY0hdW2NIXVtjSF1bY0hdW2NIXTQ=

>  <s_i_glide_gridfile>  (867) 
ATP-Grid

>  <s_lp_Force_Field>  (867) 
OPLS_2005

>  <s_lp_Variant>  (867) 
rxn501c____EMOL18624763____EMOL36251210____EMOL299978170-1

>  <s_lp_label>  (867) 
2517_sdstereoexpander_1_neutralizer_1_epik_1_stereoizer_1

>  <s_m_source_file>  (867) 
ATP-VSW-LIGPREP-003-in.maegz

>  <s_sd_BIOSOLVEIT.INFINISEE\_QUERY\_NAME>  (867) 
Ref-Lig

>  <s_sd_BIOSOLVEIT.INFINISEE\_QUERY\_SMILES>  (867) 
S(c1nc2c(cc1C[NH2+]Cc3ccc(cc3)C[NH+](C)C)cccc2)Cc4ccccc4

>  <s_sd_BIOSOLVEIT.INFINISEE\_REACTION\_NAME>  (867) 
rxn501c

>  <s_sd_BIOSOLVEIT.INFINISEE\_REAGENT1\_NAME>  (867) 
EMOL18624763

>  <s_sd_BIOSOLVEIT.INFINISEE\_REAGENT1\_SMILES>  (867) 
O=C(O)c1ccc(cc1)CN(C)C

>  <s_sd_BIOSOLVEIT.INFINISEE\_REAGENT2\_NAME>  (867) 
EMOL36251210

>  <s_sd_BIOSOLVEIT.INFINISEE\_REAGENT2\_SMILES>  (867) 
Clc1c(c(ncc1)N)C(=O)c2ccccc2

>  <s_sd_BIOSOLVEIT.INFINISEE\_REAGENT3\_NAME>  (867) 
EMOL299978170

>  <s_sd_BIOSOLVEIT.INFINISEE\_REAGENT3\_SMILES>  (867) 
OB(O)c1cc(N)c(cc1)C

>  <s_sd_BIOSOLVEIT.INFINISEE\_SPACE>  (867) 
eXplore_7tr_2022-12

>  <s_vsw_compound_code>  (867) 
80515

>  <s_vsw_variant>  (867) 
80515-1

>  <r_epik_Charging_Adjusted_Penalty>  (867) 
0.10433640840748

>  <r_epik_Ionization_Penalty>  (867) 
0.053199999999999997

>  <r_epik_Ionization_Penalty_Charging>  (867) 
0.052200000000000003

>  <r_epik_Ionization_Penalty_Neutral>  (867) 
0.001

>  <r_epik_State_Penalty>  (867) 
0.052200000000000003

>  <r_i_docking_score>  (867) 
-3.9092662322299798

>  <r_i_glide_ecoul>  (867) 
-10.333636283874499

>  <r_i_glide_eff_state_penalty>  (867) 
0.052200000000000003

>  <r_i_glide_einternal>  (867) 
2.1859591007232702

>  <r_i_glide_emodel>  (867) 
-54.4741507180224

>  <r_i_glide_energy>  (867) 
-42.135579109191902

>  <r_i_glide_erotb>  (867) 
0.65132733116046104

>  <r_i_glide_esite>  (867) 
-0.21991635085105299

>  <r_i_glide_evdw>  (867) 
-31.801942825317401

>  <r_i_glide_gscore>  (867) 
-3.9614662322299798

>  <r_i_glide_hbond>  (867) 
-0.35999999999999999

>  <r_i_glide_ligand_efficiency>  (867) 
-0.111693320920857

>  <r_i_glide_ligand_efficiency_ln>  (867) 
-0.85817069946391999

>  <r_i_glide_ligand_efficiency_sa>  (867) 
-0.36535625870430699

>  <r_i_glide_lipo>  (867) 
-0.36309808279398498

>  <r_i_glide_metal>  (867) 
-0

>  <r_i_glide_rewards>  (867) 
-0.52963654589835596

>  <r_lp_Energy>  (867) 
38.585920000000002

>  <r_qp_ACxDN^.5/SA>  (867) 
0.0107306

>  <r_qp_CIQPlogS>  (867) 
-6.0270000000000001

>  <r_qp_EA(eV)>  (867) 
0.72099999999999997

>  <r_qp_FISA>  (867) 
150.52000000000001

>  <r_qp_FOSA>  (867) 
260.18700000000001

>  <r_qp_IP(eV)>  (867) 
8.2520000000000007

>  <r_qp_Jm>  (867) 
1.5402838776163101e-05

>  <r_qp_PISA>  (867) 
445.31

>  <r_qp_PSA>  (867) 
97.278999999999996

>  <r_qp_PercentHumanOralAbsorption>  (867) 
90.042000000000002

>  <r_qp_QPPCaco>  (867) 
92.346999999999994

>  <r_qp_QPPMDCK>  (867) 
41.685000000000002

>  <r_qp_QPlogBB>  (867) 
-1.2649999999999999

>  <r_qp_QPlogHERG>  (867) 
-8.2910000000000004

>  <r_qp_QPlogKhsa>  (867) 
0.97499999999999998

>  <r_qp_QPlogKp>  (867) 
-4.0190000000000001

>  <r_qp_QPlogPC16>  (867) 
17.498999999999999

>  <r_qp_QPlogPo/w>  (867) 
4.7679999999999998

>  <r_qp_QPlogPoct>  (867) 
25.533000000000001

>  <r_qp_QPlogPw>  (867) 
13.651999999999999

>  <r_qp_QPlogS>  (867) 
-6.46

>  <r_qp_QPpolrz>  (867) 
55.204999999999998

>  <r_qp_SASA>  (867) 
856.01599999999996

>  <r_qp_SAamideO>  (867) 
0

>  <r_qp_SAfluorine>  (867) 
0

>  <r_qp_WPSA>  (867) 
0

>  <r_qp_accptHB>  (867) 
7.5

>  <r_qp_dip^2/V>  (867) 
0.049601899999999997

>  <r_qp_dipole>  (867) 
8.7829999999999995

>  <r_qp_donorHB>  (867) 
1.5

>  <r_qp_glob>  (867) 
0.75838910000000004

>  <r_qp_mol_MW>  (867) 
464.56599999999997

>  <r_qp_volume>  (867) 
1555.298

>  <r_sd_BIOSOLVEIT.INFINISEE\_FTREES\_SIMILARITY>  (867) 
0.91400000000000003

>  <r_sd_BIOSOLVEIT.LOGP>  (867) 
3.76702

>  <r_sd_BIOSOLVEIT.MOLECULAR\_WEIGHT>  (867) 
465.57400000000001

>  <r_sd_BIOSOLVEIT.TPSA>  (867) 
89.519999999999996

>  <i_epik_Tot_Q>  (867) 
1

>  <i_epik_Tot_abs_Q>  (867) 
1

>  <i_f3d_flags>  (867) 
0

>  <i_i_glide_confnum>  (867) 
8

>  <i_i_glide_lignum>  (867) 
1100

>  <i_i_glide_posenum>  (867) 
4

>  <i_i_glide_rotatable_bonds>  (867) 
8

>  <i_lp_mmshare_version>  (867) 
65135

>  <i_m_ct_format>  (867) 
2

>  <i_m_source_file_index>  (867) 
2517

>  <i_qp_#NandO>  (867) 
6

>  <i_qp_#acid>  (867) 
0

>  <i_qp_#amide>  (867) 
0

>  <i_qp_#amidine>  (867) 
0

>  <i_qp_#amine>  (867) 
1

>  <i_qp_#in34>  (867) 
0

>  <i_qp_#in56>  (867) 
24

>  <i_qp_#metab>  (867) 
5

>  <i_qp_#nonHatm>  (867) 
35

>  <i_qp_#noncon>  (867) 
0

>  <i_qp_#ringatoms>  (867) 
24

>  <i_qp_#rotor>  (867) 
8

>  <i_qp_#rtvFG>  (867) 
0

>  <i_qp_#stars>  (867) 
0

>  <i_qp_CNS>  (867) 
-2

>  <i_qp_HumanOralAbsorption>  (867) 
1

>  <i_qp_RuleOfFive>  (867) 
0

>  <i_qp_RuleOfThree>  (867) 
1

>  <i_sd_BIOSOLVEIT.INFINISEE\_RESULT\_RANK>  (867) 
32581

>  <i_sd_version>  (867) 
0

>  <b_lp_Chiralities_Consistent>  (867) 
1

>  <b_sd_chiral_flag>  (867) 
0

>  <canonical_id>  (867) 
ATP-HTVS-8B2F0F11D1D9

>  <compound_code>  (867) 
80515

>  <title>  (867) 
rxn501c____EMOL18624763____EMOL36251210____EMOL299978170

>  <variant>  (867) 
80515-1

>  <source_file>  (867) 
运行/运行/ATP-VSW/ATP-VSW-DOCK_HTVS_1-003_lib/ATP-VSW-DOCK_HTVS_1-003_lib.mae

>  <canonical_smiles>  (867) 
Cc1ccc(-c2ccnc(NC(=O)c3ccc(C[NH+](C)C)cc3)c2C(=O)c2ccccc2)cc1N

>  <scaffold>  (867) 
O=C(Nc1nccc(-c2ccccc2)c1C(=O)c1ccccc1)c1ccccc1

>  <molecular_formula>  (867) 
C29H29N4O2+

$$$$
ATP-HTVS-8B5B7778DF28
     RDKit          3D

 53 55  0  0  0  0  0  0  0  0999 V2000
  197.0435  184.4774  154.7258 F   0  0  0  0  0  0  0  0  0  0  0  0
  197.1519  183.1363  154.6834 C   0  0  0  0  0  0  0  0  0  0  0  0
  197.0497  182.3533  155.8508 C   0  0  0  0  0  0  0  0  0  0  0  0
  196.8189  182.9690  157.1013 N   0  0  0  0  0  0  0  0  0  0  0  0
  197.7562  183.8529  157.7157 C   0  0  0  0  0  0  0  0  0  0  0  0
  197.3852  184.7265  158.7686 C   0  0  0  0  0  0  0  0  0  0  0  0
  198.3222  185.5875  159.3741 C   0  0  0  0  0  0  0  0  0  0  0  0
  199.6561  185.6001  158.9450 C   0  0  0  0  0  0  0  0  0  0  0  0
  200.0517  184.7546  157.8887 C   0  0  0  0  0  0  0  0  0  0  0  0
  199.1036  183.8902  157.2866 C   0  0  0  0  0  0  0  0  0  0  0  0
  195.8717  182.2228  157.9486 C   0  0  1  0  0  0  0  0  0  0  0  0
  194.9234  183.0719  158.7102 C   0  0  0  0  0  0  0  0  0  0  0  0
  194.1635  183.6836  159.2967 N   0  0  0  0  0  0  0  0  0  0  0  0
  197.1930  180.9502  155.6839 C   0  0  0  0  0  0  0  0  0  0  0  0
  197.4386  180.3542  154.5053 N   0  0  0  0  0  0  0  0  0  0  0  0
  197.5055  181.0902  153.3834 C   0  0  0  0  0  0  0  0  0  0  0  0
  197.7538  180.4786  152.1407 N   0  0  0  0  0  0  0  0  0  0  0  0
  197.1636  180.7637  150.9743 C   0  0  0  0  0  0  0  0  0  0  0  0
  196.3254  181.6434  150.8106 O   0  0  0  0  0  0  0  0  0  0  0  0
  197.5395  179.8911  149.8202 C   0  0  0  0  0  0  0  0  0  0  0  0
  196.5332  179.4019  148.9633 C   0  0  0  0  0  0  0  0  0  0  0  0
  196.8714  178.5871  147.8674 C   0  0  0  0  0  0  0  0  0  0  0  0
  198.2277  178.2807  147.6061 C   0  0  0  0  0  0  0  0  0  0  0  0
  199.2303  178.7752  148.4663 C   0  0  0  0  0  0  0  0  0  0  0  0
  198.8923  179.5904  149.5595 C   0  0  0  0  0  0  0  0  0  0  0  0
  198.6021  177.4417  146.3955 C   0  0  1  0  0  0  0  0  0  0  0  0
  198.9784  178.2330  145.1864 N   0  0  2  0  0  0  0  0  0  0  0  0
  200.2429  178.9974  145.3548 C   0  0  2  0  0  0  0  0  0  0  0  0
  197.8734  179.1109  144.7120 C   0  0  2  0  0  0  0  0  0  0  0  0
  197.3815  182.5090  153.4359 C   0  0  0  0  0  0  0  0  0  0  0  0
  196.3397  184.7874  159.1474 H   0  0  0  0  0  0  0  0  0  0  0  0
  197.9974  186.2280  160.1732 H   0  0  0  0  0  0  0  0  0  0  0  0
  200.3711  186.2590  159.4142 H   0  0  0  0  0  0  0  0  0  0  0  0
  201.0736  184.7635  157.5361 H   0  0  0  0  0  0  0  0  0  0  0  0
  199.4359  183.2530  156.4819 H   0  0  0  0  0  0  0  0  0  0  0  0
  195.2233  181.6033  157.3426 H   0  0  0  0  0  0  0  0  0  0  0  0
  196.4196  181.5592  158.6247 H   0  0  0  0  0  0  0  0  0  0  0  0
  197.1765  180.2879  156.5407 H   0  0  0  0  0  0  0  0  0  0  0  0
  198.3571  179.6479  152.1625 H   0  0  0  0  0  0  0  0  0  0  0  0
  195.4982  179.6571  149.1446 H   0  0  0  0  0  0  0  0  0  0  0  0
  196.0889  178.2168  147.2182 H   0  0  0  0  0  0  0  0  0  0  0  0
  200.2683  178.5586  148.2721 H   0  0  0  0  0  0  0  0  0  0  0  0
  199.6776  180.0038  150.1774 H   0  0  0  0  0  0  0  0  0  0  0  0
  199.4190  176.7612  146.6542 H   0  0  0  0  0  0  0  0  0  0  0  0
  197.7340  176.8337  146.1619 H   0  0  0  0  0  0  0  0  0  0  0  0
  200.1801  179.7426  146.1453 H   0  0  0  0  0  0  0  0  0  0  0  0
  200.4974  179.5314  144.4368 H   0  0  0  0  0  0  0  0  0  0  0  0
  201.0610  178.3113  145.5869 H   0  0  0  0  0  0  0  0  0  0  0  0
  197.6259  179.8676  145.4481 H   0  0  0  0  0  0  0  0  0  0  0  0
  196.9750  178.5248  144.5161 H   0  0  0  0  0  0  0  0  0  0  0  0
  198.1521  179.6201  143.7868 H   0  0  0  0  0  0  0  0  0  0  0  0
  197.4605  183.1236  152.5639 H   0  0  0  0  0  0  0  0  0  0  0  0
  199.1463  177.6052  144.4294 H   0  0  0  0  0  0  0  0  0  0  0  0
  1  2  1  0
  2  3  2  0
  2 30  1  0
  3  4  1  0
  3 14  1  0
  4  5  1  0
  4 11  1  0
  5  6  2  0
  5 10  1  0
  6  7  1  0
  6 31  1  0
  7  8  2  0
  7 32  1  0
  8  9  1  0
  8 33  1  0
  9 10  2  0
  9 34  1  0
 10 35  1  0
 11 12  1  0
 11 36  1  6
 11 37  1  0
 12 13  3  0
 14 15  2  0
 14 38  1  0
 15 16  1  0
 16 17  1  0
 16 30  2  0
 17 18  1  0
 17 39  1  0
 18 19  2  0
 18 20  1  0
 20 21  1  0
 20 25  2  0
 21 22  2  0
 21 40  1  0
 22 23  1  0
 22 41  1  0
 23 24  2  0
 23 26  1  0
 24 25  1  0
 24 42  1  0
 25 43  1  0
 26 27  1  0
 26 44  1  1
 26 45  1  0
 27 28  1  0
 27 29  1  0
 27 53  1  6
 28 46  1  1
 28 47  1  0
 28 48  1  0
 29 49  1  1
 29 50  1  0
 29 51  1  0
 30 52  1  0
M  CHG  1  27   1
M  END
>  <s_epik_cmdline>  (868) 
J2VwaWtfcHl0aG9uJywgJy1waCcsICc3LjAwMDAwMCcsICctcGh0JywgJzIuMDAwMDAwJywgJy1tcycsICcxNicsICctdG4nLCAnOCcsICctbWEnLCAnMjAwJywgJy1pbWFlJywgJzxpbmZpbGUubWFlPicsICctb21hZScsICc8b3V0ZmlsZS5tYWU+Jw==

>  <s_epik_input>  (868) 
W2NIXTFbY0hdW2NIXVtjSF1bY0hdYzFOKFtDSDJdQyNOKWMoYzJGKVtjSF1uYyhbY0hdMilbTkhdQyg9TyljM1tjSF1bY0hdYyhbY0hdW2NIXTMpW0NIMl1OKFtDSDNdKVtDSDNd

>  <s_i_glide_gridfile>  (868) 
ATP-Grid

>  <s_lp_Force_Field>  (868) 
OPLS_2005

>  <s_lp_Variant>  (868) 
rxn502a____EMOL18624763____EMOL48574100____EMOL712348-1

>  <s_lp_label>  (868) 
2987_sdstereoexpander_1_neutralizer_1_epik_1_stereoizer_1

>  <s_m_source_file>  (868) 
ATP-VSW-LIGPREP-002-in.maegz

>  <s_sd_BIOSOLVEIT.INFINISEE\_QUERY\_NAME>  (868) 
Ref-Lig

>  <s_sd_BIOSOLVEIT.INFINISEE\_QUERY\_SMILES>  (868) 
S(c1nc2c(cc1C[NH2+]Cc3ccc(cc3)C[NH+](C)C)cccc2)Cc4ccccc4

>  <s_sd_BIOSOLVEIT.INFINISEE\_REACTION\_NAME>  (868) 
rxn502a

>  <s_sd_BIOSOLVEIT.INFINISEE\_REAGENT1\_NAME>  (868) 
EMOL18624763

>  <s_sd_BIOSOLVEIT.INFINISEE\_REAGENT1\_SMILES>  (868) 
O=C(O)c1ccc(cc1)CN(C)C

>  <s_sd_BIOSOLVEIT.INFINISEE\_REAGENT2\_NAME>  (868) 
EMOL48574100

>  <s_sd_BIOSOLVEIT.INFINISEE\_REAGENT2\_SMILES>  (868) 
Ic1c(F)cc(nc1)N

>  <s_sd_BIOSOLVEIT.INFINISEE\_REAGENT3\_NAME>  (868) 
EMOL712348

>  <s_sd_BIOSOLVEIT.INFINISEE\_REAGENT3\_SMILES>  (868) 
N#CCNc1ccccc1

>  <s_sd_BIOSOLVEIT.INFINISEE\_SPACE>  (868) 
eXplore_7tr_2022-12

>  <s_vsw_compound_code>  (868) 
95554

>  <s_vsw_variant>  (868) 
95554-1

>  <r_epik_Charging_Adjusted_Penalty>  (868) 
0.10433640840748

>  <r_epik_Ionization_Penalty>  (868) 
0.052200000000000003

>  <r_epik_Ionization_Penalty_Charging>  (868) 
0.052200000000000003

>  <r_epik_Ionization_Penalty_Neutral>  (868) 
0.0001

>  <r_epik_State_Penalty>  (868) 
0.052200000000000003

>  <r_i_docking_score>  (868) 
-3.8344523262056698

>  <r_i_glide_ecoul>  (868) 
-6.6641712188720703

>  <r_i_glide_eff_state_penalty>  (868) 
0.052200000000000003

>  <r_i_glide_einternal>  (868) 
9.0928030014038104

>  <r_i_glide_emodel>  (868) 
-46.359189896081503

>  <r_i_glide_energy>  (868) 
-37.333065032958999

>  <r_i_glide_erotb>  (868) 
0.72046846622265204

>  <r_i_glide_esite>  (868) 
-0.14790755925358801

>  <r_i_glide_evdw>  (868) 
-30.6688938140869

>  <r_i_glide_gscore>  (868) 
-3.8866523262056698

>  <r_i_glide_hbond>  (868) 
-0.20000000000000001

>  <r_i_glide_ligand_efficiency>  (868) 
-0.127815077540189

>  <r_i_glide_ligand_efficiency_ln>  (868) 
-0.87122934821831299

>  <r_i_glide_ligand_efficiency_sa>  (868) 
-0.39715116323362498

>  <r_i_glide_lipo>  (868) 
-0.72665304709197398

>  <r_i_glide_metal>  (868) 
-0

>  <r_i_glide_rewards>  (868) 
-0.99948981254759905

>  <r_lp_Energy>  (868) 
30.934145000000001

>  <r_lp_tautomer_probability>  (868) 
1

>  <r_qp_ACxDN^.5/SA>  (868) 
0.0099556999999999996

>  <r_qp_CIQPlogS>  (868) 
-5.4429999999999996

>  <r_qp_EA(eV)>  (868) 
0.88100000000000001

>  <r_qp_FISA>  (868) 
124.413

>  <r_qp_FOSA>  (868) 
214.21199999999999

>  <r_qp_IP(eV)>  (868) 
8.6489999999999991

>  <r_qp_Jm>  (868) 
0.000115422838609248

>  <r_qp_PISA>  (868) 
381.73399999999998

>  <r_qp_PSA>  (868) 
80.688999999999993

>  <r_qp_PercentHumanOralAbsorption>  (868) 
87.742999999999995

>  <r_qp_QPPCaco>  (868) 
163.303

>  <r_qp_QPPMDCK>  (868) 
117.00700000000001

>  <r_qp_QPlogBB>  (868) 
-0.82099999999999995

>  <r_qp_QPlogHERG>  (868) 
-7.7229999999999999

>  <r_qp_QPlogKhsa>  (868) 
0.36799999999999999

>  <r_qp_QPlogKp>  (868) 
-3.762

>  <r_qp_QPlogPC16>  (868) 
14.26

>  <r_qp_QPlogPo/w>  (868) 
3.6190000000000002

>  <r_qp_QPlogPoct>  (868) 
20.963999999999999

>  <r_qp_QPlogPw>  (868) 
12.074

>  <r_qp_QPlogS>  (868) 
-5.7809999999999997

>  <r_qp_QPpolrz>  (868) 
45.414999999999999

>  <r_qp_SASA>  (868) 
753.33399999999995

>  <r_qp_SAamideO>  (868) 
0

>  <r_qp_SAfluorine>  (868) 
32.975999999999999

>  <r_qp_WPSA>  (868) 
32.975999999999999

>  <r_qp_accptHB>  (868) 
7.5

>  <r_qp_dip^2/V>  (868) 
0.0233271

>  <r_qp_dipole>  (868) 
5.5609999999999999

>  <r_qp_donorHB>  (868) 
1

>  <r_qp_glob>  (868) 
0.77477079999999998

>  <r_qp_mol_MW>  (868) 
403.45800000000003

>  <r_qp_volume>  (868) 
1325.848

>  <r_sd_BIOSOLVEIT.INFINISEE\_FTREES\_SIMILARITY>  (868) 
0.90300000000000002

>  <r_sd_BIOSOLVEIT.LOGP>  (868) 
2.7791800000000002

>  <r_sd_BIOSOLVEIT.MOLECULAR\_WEIGHT>  (868) 
404.46699999999998

>  <r_sd_BIOSOLVEIT.TPSA>  (868) 
73.459999999999994

>  <i_epik_Tot_Q>  (868) 
1

>  <i_epik_Tot_abs_Q>  (868) 
1

>  <i_f3d_flags>  (868) 
0

>  <i_i_glide_confnum>  (868) 
7

>  <i_i_glide_lignum>  (868) 
45

>  <i_i_glide_posenum>  (868) 
16

>  <i_i_glide_rotatable_bonds>  (868) 
8

>  <i_lp_mmshare_version>  (868) 
65135

>  <i_m_ct_format>  (868) 
2

>  <i_m_source_file_index>  (868) 
2987

>  <i_qp_#NandO>  (868) 
6

>  <i_qp_#acid>  (868) 
0

>  <i_qp_#amide>  (868) 
0

>  <i_qp_#amidine>  (868) 
0

>  <i_qp_#amine>  (868) 
1

>  <i_qp_#in34>  (868) 
0

>  <i_qp_#in56>  (868) 
18

>  <i_qp_#metab>  (868) 
6

>  <i_qp_#nonHatm>  (868) 
30

>  <i_qp_#noncon>  (868) 
0

>  <i_qp_#ringatoms>  (868) 
18

>  <i_qp_#rotor>  (868) 
8

>  <i_qp_#rtvFG>  (868) 
0

>  <i_qp_#stars>  (868) 
0

>  <i_qp_CNS>  (868) 
0

>  <i_qp_HumanOralAbsorption>  (868) 
3

>  <i_qp_RuleOfFive>  (868) 
0

>  <i_qp_RuleOfThree>  (868) 
1

>  <i_sd_BIOSOLVEIT.INFINISEE\_RESULT\_RANK>  (868) 
84426

>  <i_sd_version>  (868) 
0

>  <b_lp_Chiralities_Consistent>  (868) 
1

>  <b_sd_chiral_flag>  (868) 
0

>  <canonical_id>  (868) 
ATP-HTVS-8B5B7778DF28

>  <compound_code>  (868) 
95554

>  <title>  (868) 
rxn502a____EMOL18624763____EMOL48574100____EMOL712348

>  <variant>  (868) 
95554-1

>  <source_file>  (868) 
运行/运行/ATP-VSW/ATP-VSW-DOCK_HTVS_1-003_lib/ATP-VSW-DOCK_HTVS_1-003_lib.mae

>  <canonical_smiles>  (868) 
C[NH+](C)Cc1ccc(C(=O)Nc2cc(F)c(N(CC#N)c3ccccc3)cn2)cc1

>  <scaffold>  (868) 
O=C(Nc1ccc(Nc2ccccc2)cn1)c1ccccc1

>  <molecular_formula>  (868) 
C23H23FN5O+

$$$$
ATP-HTVS-8BC83C5D0DE9
     RDKit          3D

 66 69  0  0  0  0  0  0  0  0999 V2000
  198.1068  180.4290  153.6765 N   0  0  0  0  0  0  0  0  0  0  0  0
  198.0713  180.6635  154.9830 C   0  0  0  0  0  0  0  0  0  0  0  0
  198.7635  180.0102  155.9187 N   0  0  0  0  0  0  0  0  0  0  0  0
  199.5101  178.9620  155.5281 C   0  0  0  0  0  0  0  0  0  0  0  0
  199.6430  178.6290  154.1561 C   0  0  0  0  0  0  0  0  0  0  0  0
  198.9038  179.4253  153.2457 C   0  0  0  0  0  0  0  0  0  0  0  0
  198.9492  179.1750  151.8645 N   0  0  0  0  0  0  0  0  0  0  0  0
  197.8770  179.6872  151.0263 C   0  0  1  0  0  0  0  0  0  0  0  0
  198.0451  179.3675  149.5584 C   0  0  0  0  0  0  0  0  0  0  0  0
  197.6483  178.1125  149.0457 C   0  0  0  0  0  0  0  0  0  0  0  0
  197.8082  177.8413  147.6730 C   0  0  0  0  0  0  0  0  0  0  0  0
  198.3385  178.8199  146.7994 C   0  0  0  0  0  0  0  0  0  0  0  0
  198.7273  180.0766  147.3258 C   0  0  0  0  0  0  0  0  0  0  0  0
  198.5995  180.3366  148.7001 C   0  0  0  0  0  0  0  0  0  0  0  0
  198.5255  178.5137  145.3090 C   0  0  1  0  0  0  0  0  0  0  0  0
  199.9309  178.2054  144.9340 N   0  0  2  0  0  0  0  0  0  0  0  0
  200.5549  177.1594  145.7766 C   0  0  2  0  0  0  0  0  0  0  0  0
  200.7915  179.4032  144.8145 C   0  0  2  0  0  0  0  0  0  0  0  0
  200.4578  177.5453  153.7567 C   0  0  0  0  0  0  0  0  0  0  0  0
  201.1257  176.7696  154.7266 C   0  0  0  0  0  0  0  0  0  0  0  0
  200.9891  177.0870  156.0924 C   0  0  0  0  0  0  0  0  0  0  0  0
  200.1993  178.1846  156.4847 C   0  0  0  0  0  0  0  0  0  0  0  0
  197.2321  181.6860  155.3689 N   0  0  0  0  0  0  0  0  0  0  0  0
  196.6621  181.7851  156.7068 C   0  0  1  0  0  0  0  0  0  0  0  0
  197.0966  182.9889  157.5418 C   0  0  0  0  0  0  0  0  0  0  0  0
  196.3023  183.4819  158.6124 C   0  0  0  0  0  0  0  0  0  0  0  0
  195.0691  182.9225  159.0134 N   0  0  0  0  0  0  0  0  0  0  0  0
  194.9811  181.4775  159.1968 C   0  0  2  0  0  0  0  0  0  0  0  0
  193.8959  183.6398  158.5378 C   0  0  2  0  0  0  0  0  0  0  0  0
  196.7458  184.6104  159.3415 C   0  0  0  0  0  0  0  0  0  0  0  0
  197.9715  185.2345  159.0360 C   0  0  0  0  0  0  0  0  0  0  0  0
  198.7646  184.7395  157.9917 C   0  0  0  0  0  0  0  0  0  0  0  0
  198.3358  183.6204  157.2538 C   0  0  0  0  0  0  0  0  0  0  0  0
  199.4402  178.3627  151.5283 H   0  0  0  0  0  0  0  0  0  0  0  0
  196.9258  179.2700  151.3727 H   0  0  0  0  0  0  0  0  0  0  0  0
  197.7909  180.7705  151.1353 H   0  0  0  0  0  0  0  0  0  0  0  0
  197.2330  177.3705  149.7017 H   0  0  0  0  0  0  0  0  0  0  0  0
  197.5042  176.8791  147.2930 H   0  0  0  0  0  0  0  0  0  0  0  0
  199.0776  180.8635  146.6717 H   0  0  0  0  0  0  0  0  0  0  0  0
  198.9106  181.2928  149.0982 H   0  0  0  0  0  0  0  0  0  0  0  0
  197.9155  177.6380  145.0629 H   0  0  0  0  0  0  0  0  0  0  0  0
  198.1200  179.3158  144.6981 H   0  0  0  0  0  0  0  0  0  0  0  0
  200.6539  177.4699  146.8184 H   0  0  0  0  0  0  0  0  0  0  0  0
  201.5504  176.9160  145.4179 H   0  0  0  0  0  0  0  0  0  0  0  0
  199.9679  176.2427  145.7566 H   0  0  0  0  0  0  0  0  0  0  0  0
  200.9349  179.9059  145.7672 H   0  0  0  0  0  0  0  0  0  0  0  0
  200.3555  180.1201  144.1184 H   0  0  0  0  0  0  0  0  0  0  0  0
  201.7792  179.1392  144.4269 H   0  0  0  0  0  0  0  0  0  0  0  0
  200.5688  177.2764  152.7190 H   0  0  0  0  0  0  0  0  0  0  0  0
  201.7498  175.9379  154.4253 H   0  0  0  0  0  0  0  0  0  0  0  0
  201.5002  176.4938  156.8405 H   0  0  0  0  0  0  0  0  0  0  0  0
  200.0580  178.4034  157.5350 H   0  0  0  0  0  0  0  0  0  0  0  0
  196.6711  182.0791  154.6250 H   0  0  0  0  0  0  0  0  0  0  0  0
  195.5777  181.7885  156.5927 H   0  0  0  0  0  0  0  0  0  0  0  0
  196.9104  180.9035  157.3002 H   0  0  0  0  0  0  0  0  0  0  0  0
  195.9737  181.0262  159.2189 H   0  0  0  0  0  0  0  0  0  0  0  0
  194.4051  181.0338  158.3847 H   0  0  0  0  0  0  0  0  0  0  0  0
  194.4979  181.2093  160.1230 H   0  0  0  0  0  0  0  0  0  0  0  0
  194.1501  184.6304  158.1586 H   0  0  0  0  0  0  0  0  0  0  0  0
  193.1748  183.7666  159.3453 H   0  0  0  0  0  0  0  0  0  0  0  0
  193.4071  183.0852  157.7335 H   0  0  0  0  0  0  0  0  0  0  0  0
  196.1451  184.9960  160.1512 H   0  0  0  0  0  0  0  0  0  0  0  0
  198.2941  186.0954  159.6064 H   0  0  0  0  0  0  0  0  0  0  0  0
  199.7084  185.2097  157.7612 H   0  0  0  0  0  0  0  0  0  0  0  0
  198.9769  183.2446  156.4703 H   0  0  0  0  0  0  0  0  0  0  0  0
  199.8386  177.7833  144.0078 H   0  0  0  0  0  0  0  0  0  0  0  0
  1  2  2  0
  1  6  1  0
  2  3  1  0
  2 23  1  0
  3  4  2  0
  4  5  1  0
  4 22  1  0
  5  6  2  0
  5 19  1  0
  6  7  1  0
  7  8  1  0
  7 34  1  0
  8  9  1  0
  8 35  1  1
  8 36  1  0
  9 10  1  0
  9 14  2  0
 10 11  2  0
 10 37  1  0
 11 12  1  0
 11 38  1  0
 12 13  2  0
 12 15  1  0
 13 14  1  0
 13 39  1  0
 14 40  1  0
 15 16  1  0
 15 41  1  6
 15 42  1  0
 16 17  1  0
 16 18  1  0
 16 66  1  6
 17 43  1  1
 17 44  1  0
 17 45  1  0
 18 46  1  1
 18 47  1  0
 18 48  1  0
 19 20  2  0
 19 49  1  0
 20 21  1  0
 20 50  1  0
 21 22  2  0
 21 51  1  0
 22 52  1  0
 23 24  1  0
 23 53  1  0
 24 25  1  0
 24 54  1  6
 24 55  1  0
 25 26  1  0
 25 33  2  0
 26 27  1  0
 26 30  2  0
 27 28  1  0
 27 29  1  0
 28 56  1  1
 28 57  1  0
 28 58  1  0
 29 59  1  6
 29 60  1  0
 29 61  1  0
 30 31  1  0
 30 62  1  0
 31 32  2  0
 31 63  1  0
 32 33  1  0
 32 64  1  0
 33 65  1  0
M  CHG  1  16   1
M  END
>  <s_epik_cmdline>  (869) 
J2VwaWtfcHl0aG9uJywgJy1waCcsICc3LjAwMDAwMCcsICctcGh0JywgJzIuMDAwMDAwJywgJy1tcycsICcxNicsICctdG4nLCAnOCcsICctbWEnLCAnMjAwJywgJy1pbWFlJywgJzxpbmZpbGUubWFlPicsICctb21hZScsICc8b3V0ZmlsZS5tYWU+Jw==

>  <s_epik_input>  (869) 
W2NIXTFbY0hdW2NIXVtjSF1jKE4oW0NIM10pW0NIM10pYzFbQ0gyXVtOSF1jKG4yKW5jKGMoYzIzKVtjSF1bY0hdW2NIXVtjSF0zKVtOSF1bQ0gyXWM0W2NIXVtjSF1jKFtjSF1bY0hdNClbQ0gyXU4oW0NIM10pW0NIM10=

>  <s_i_glide_gridfile>  (869) 
ATP-Grid

>  <s_lp_Force_Field>  (869) 
OPLS_2005

>  <s_lp_Variant>  (869) 
m_282030aaa____21931164____22360182____21945542-3

>  <s_lp_label>  (869) 
1060_sdstereoexpander_1_neutralizer_1_epik_3_stereoizer_1

>  <s_m_source_file>  (869) 
ATP-VSW-LIGPREP-001-in.maegz

>  <s_sd_BIOSOLVEIT.INFINISEE\_QUERY\_NAME>  (869) 
Ref-Lig

>  <s_sd_BIOSOLVEIT.INFINISEE\_QUERY\_SMILES>  (869) 
S(c1nc2c(cc1C[NH2+]Cc3ccc(cc3)C[NH+](C)C)cccc2)Cc4ccccc4

>  <s_sd_BIOSOLVEIT.INFINISEE\_REACTION\_NAME>  (869) 
m_282030aaa

>  <s_sd_BIOSOLVEIT.INFINISEE\_REAGENT1\_SMILES>  (869) 
[R1*]NCc1c(N(C)C)cccc1

>  <s_sd_BIOSOLVEIT.INFINISEE\_REAGENT2\_SMILES>  (869) 
[R2*]c1nc([R1*])c2c(n1)cccc2

>  <s_sd_BIOSOLVEIT.INFINISEE\_REAGENT3\_SMILES>  (869) 
[R2*]NCc1ccc(cc1)CN(C)C

>  <s_sd_BIOSOLVEIT.INFINISEE\_SPACE>  (869) 
REALSpace_44bn_2023-08

>  <s_vsw_compound_code>  (869) 
33889

>  <s_vsw_variant>  (869) 
33889-3

>  <r_epik_Charging_Adjusted_Penalty>  (869) 
2.2102806194142599

>  <r_epik_Ionization_Penalty>  (869) 
2.343

>  <r_epik_Ionization_Penalty_Charging>  (869) 
0.039199999999999999

>  <r_epik_Ionization_Penalty_Neutral>  (869) 
2.3037999999999998

>  <r_epik_State_Penalty>  (869) 
2.1711

>  <r_i_docking_score>  (869) 
-1.74762747950328

>  <r_i_glide_ecoul>  (869) 
-7.5234055519104004

>  <r_i_glide_eff_state_penalty>  (869) 
2.1711

>  <r_i_glide_einternal>  (869) 
4.4148826599121103

>  <r_i_glide_emodel>  (869) 
-54.363659370252698

>  <r_i_glide_energy>  (869) 
-42.415117740631104

>  <r_i_glide_erotb>  (869) 
0.71708767460341805

>  <r_i_glide_esite>  (869) 
-0.172058024434356

>  <r_i_glide_evdw>  (869) 
-34.891712188720703

>  <r_i_glide_gscore>  (869) 
-3.9187274795032798

>  <r_i_glide_hbond>  (869) 
-0.20000000000000001

>  <r_i_glide_ligand_efficiency>  (869) 
-0.0529584084697962

>  <r_i_glide_ligand_efficiency_ln>  (869) 
-0.38866330271071697

>  <r_i_glide_ligand_efficiency_sa>  (869) 
-0.16986591303083401

>  <r_i_glide_lipo>  (869) 
-0.76741832381338004

>  <r_i_glide_metal>  (869) 
-0

>  <r_i_glide_rewards>  (869) 
-0.62324236363636298

>  <r_lp_Energy>  (869) 
18.629441

>  <r_qp_ACxDN^.5/SA>  (869) 
0.0123421

>  <r_qp_CIQPlogS>  (869) 
-5.9779999999999998

>  <r_qp_EA(eV)>  (869) 
0.79400000000000004

>  <r_qp_FISA>  (869) 
42.194000000000003

>  <r_qp_FOSA>  (869) 
331.55599999999998

>  <r_qp_IP(eV)>  (869) 
8.2569999999999997

>  <r_qp_Jm>  (869) 
0.253523123012104

>  <r_qp_PISA>  (869) 
313.755

>  <r_qp_PSA>  (869) 
48.084000000000003

>  <r_qp_PercentHumanOralAbsorption>  (869) 
100

>  <r_qp_QPPCaco>  (869) 
983.27200000000005

>  <r_qp_QPPMDCK>  (869) 
537.41600000000005

>  <r_qp_QPlogBB>  (869) 
0.050999999999999997

>  <r_qp_QPlogHERG>  (869) 
-5.8070000000000004

>  <r_qp_QPlogKhsa>  (869) 
0.81100000000000005

>  <r_qp_QPlogKp>  (869) 
-2.3900000000000001

>  <r_qp_QPlogPC16>  (869) 
13.945

>  <r_qp_QPlogPo/w>  (869) 
4.8920000000000003

>  <r_qp_QPlogPoct>  (869) 
21.498000000000001

>  <r_qp_QPlogPw>  (869) 
10.648999999999999

>  <r_qp_QPlogS>  (869) 
-3.8500000000000001

>  <r_qp_QPpolrz>  (869) 
46.411000000000001

>  <r_qp_SASA>  (869) 
687.505

>  <r_qp_SAamideO>  (869) 
0

>  <r_qp_SAfluorine>  (869) 
0

>  <r_qp_WPSA>  (869) 
0

>  <r_qp_accptHB>  (869) 
6

>  <r_qp_dip^2/V>  (869) 
0.0091867000000000008

>  <r_qp_dipole>  (869) 
3.5640000000000001

>  <r_qp_donorHB>  (869) 
2

>  <r_qp_glob>  (869) 
0.87318099999999998

>  <r_qp_mol_MW>  (869) 
440.58999999999997

>  <r_qp_volume>  (869) 
1383

>  <r_sd_BIOSOLVEIT.INFINISEE\_FTREES\_SIMILARITY>  (869) 
0.91400000000000003

>  <r_sd_BIOSOLVEIT.LOGP>  (869) 
3.5644999999999998

>  <r_sd_BIOSOLVEIT.MOLECULAR\_WEIGHT>  (869) 
441.60000000000002

>  <r_sd_BIOSOLVEIT.TPSA>  (869) 
57.520000000000003

>  <i_epik_Tot_Q>  (869) 
1

>  <i_epik_Tot_abs_Q>  (869) 
1

>  <i_f3d_flags>  (869) 
0

>  <i_i_glide_confnum>  (869) 
8

>  <i_i_glide_lignum>  (869) 
234

>  <i_i_glide_posenum>  (869) 
3

>  <i_i_glide_rotatable_bonds>  (869) 
9

>  <i_lp_mmshare_version>  (869) 
65135

>  <i_m_ct_format>  (869) 
2

>  <i_m_source_file_index>  (869) 
1060

>  <i_qp_#NandO>  (869) 
6

>  <i_qp_#acid>  (869) 
0

>  <i_qp_#amide>  (869) 
0

>  <i_qp_#amidine>  (869) 
0

>  <i_qp_#amine>  (869) 
1

>  <i_qp_#in34>  (869) 
0

>  <i_qp_#in56>  (869) 
22

>  <i_qp_#metab>  (869) 
6

>  <i_qp_#nonHatm>  (869) 
33

>  <i_qp_#noncon>  (869) 
0

>  <i_qp_#ringatoms>  (869) 
22

>  <i_qp_#rotor>  (869) 
9

>  <i_qp_#rtvFG>  (869) 
0

>  <i_qp_#stars>  (869) 
0

>  <i_qp_CNS>  (869) 
1

>  <i_qp_HumanOralAbsorption>  (869) 
3

>  <i_qp_RuleOfFive>  (869) 
0

>  <i_qp_RuleOfThree>  (869) 
0

>  <i_sd_BIOSOLVEIT.INFINISEE\_REAGENT1\_NAME>  (869) 
21931164

>  <i_sd_BIOSOLVEIT.INFINISEE\_REAGENT2\_NAME>  (869) 
22360182

>  <i_sd_BIOSOLVEIT.INFINISEE\_REAGENT3\_NAME>  (869) 
21945542

>  <i_sd_BIOSOLVEIT.INFINISEE\_RESULT\_RANK>  (869) 
30443

>  <i_sd_version>  (869) 
0

>  <b_lp_Chiralities_Consistent>  (869) 
1

>  <b_sd_chiral_flag>  (869) 
0

>  <canonical_id>  (869) 
ATP-HTVS-8BC83C5D0DE9

>  <compound_code>  (869) 
33889

>  <title>  (869) 
m_282030aaa____21931164____22360182____21945542

>  <variant>  (869) 
33889-3

>  <source_file>  (869) 
运行/运行/ATP-VSW/ATP-VSW-DOCK_HTVS_1-001_lib/ATP-VSW-DOCK_HTVS_1-001_lib

>  <canonical_smiles>  (869) 
CN(C)c1ccccc1CNc1nc(NCc2ccc(C[NH+](C)C)cc2)c2ccccc2n1

>  <scaffold>  (869) 
c1ccc(CNc2nc(NCc3ccccc3)c3ccccc3n2)cc1

>  <molecular_formula>  (869) 
C27H33N6+

$$$$
ATP-HTVS-8BE0537C7CD3
     RDKit          3D

 62 65  0  0  0  0  0  0  0  0999 V2000
  202.0045  179.4864  153.7802 F   0  0  0  0  0  0  0  0  0  0  0  0
  201.7568  178.4559  154.6233 C   0  0  0  0  0  0  0  0  0  0  0  0
  201.4483  178.6925  155.9811 C   0  0  0  0  0  0  0  0  0  0  0  0
  201.1566  177.5958  156.8244 C   0  0  0  0  0  0  0  0  0  0  0  0
  201.1918  176.2806  156.3252 C   0  0  0  0  0  0  0  0  0  0  0  0
  201.5096  176.0472  154.9742 C   0  0  0  0  0  0  0  0  0  0  0  0
  201.5482  174.6896  154.4601 C   0  0  0  0  0  0  0  0  0  0  0  0
  201.5755  173.6070  154.0508 N   0  0  0  0  0  0  0  0  0  0  0  0
  201.7870  177.1375  154.1232 C   0  0  0  0  0  0  0  0  0  0  0  0
  201.3293  180.1079  156.5264 C   0  0  2  0  0  0  0  0  0  0  0  0
  202.2498  180.2990  157.6827 N   0  0  0  0  0  0  0  0  0  0  0  0
  202.2429  181.4238  158.5244 C   0  0  0  0  0  0  0  0  0  0  0  0
  201.2865  182.3493  158.3566 N   0  0  0  0  0  0  0  0  0  0  0  0
  201.1555  183.3194  159.2567 C   0  0  0  0  0  0  0  0  0  0  0  0
  201.9543  183.5117  160.3258 N   0  0  0  0  0  0  0  0  0  0  0  0
  202.9712  182.6528  160.4916 C   0  0  0  0  0  0  0  0  0  0  0  0
  203.1768  181.5530  159.6082 C   0  0  0  0  0  0  0  0  0  0  0  0
  204.2428  180.6633  159.8057 C   0  0  0  0  0  0  0  0  0  0  0  0
  205.1510  180.8584  160.8620 C   0  0  0  0  0  0  0  0  0  0  0  0
  204.9810  181.9544  161.7322 C   0  0  0  0  0  0  0  0  0  0  0  0
  203.8836  182.8376  161.5584 C   0  0  0  0  0  0  0  0  0  0  0  0
  200.0821  184.1702  159.1209 N   0  0  0  0  0  0  0  0  0  0  0  0
  198.9069  183.8887  158.2827 C   0  0  1  0  0  0  0  0  0  0  0  0
  197.6449  184.5712  158.7959 C   0  0  0  0  0  0  0  0  0  0  0  0
  196.4888  183.8728  159.2455 C   0  0  0  0  0  0  0  0  0  0  0  0
  195.3898  184.6124  159.7414 C   0  0  0  0  0  0  0  0  0  0  0  0
  195.4064  186.0243  159.7642 C   0  0  0  0  0  0  0  0  0  0  0  0
  196.5406  186.7096  159.3052 C   0  0  0  0  0  0  0  0  0  0  0  0
  197.6512  185.9893  158.8278 C   0  0  0  0  0  0  0  0  0  0  0  0
  196.3462  182.3447  159.2104 C   0  0  1  0  0  0  0  0  0  0  0  0
  195.5683  181.8252  158.0404 N   0  0  1  0  0  0  0  0  0  0  0  0
  194.1070  182.0568  158.1560 C   0  0  2  0  0  0  0  0  0  0  0  0
  196.1029  182.2876  156.7246 C   0  0  2  0  0  0  0  0  0  0  0  0
  199.8171  180.3498  156.7931 C   0  0  2  0  0  0  0  0  0  0  0  0
  200.8970  177.7645  157.8601 H   0  0  0  0  0  0  0  0  0  0  0  0
  200.9725  175.4516  156.9833 H   0  0  0  0  0  0  0  0  0  0  0  0
  202.0225  176.9696  153.0826 H   0  0  0  0  0  0  0  0  0  0  0  0
  201.6656  180.8079  155.7617 H   0  0  0  0  0  0  0  0  0  0  0  0
  203.0171  179.6461  157.7285 H   0  0  0  0  0  0  0  0  0  0  0  0
  204.3868  179.8343  159.1388 H   0  0  0  0  0  0  0  0  0  0  0  0
  205.9823  180.1778  160.9953 H   0  0  0  0  0  0  0  0  0  0  0  0
  205.6806  182.1224  162.5373 H   0  0  0  0  0  0  0  0  0  0  0  0
  203.7446  183.6803  162.2216 H   0  0  0  0  0  0  0  0  0  0  0  0
  200.0762  185.0125  159.6815 H   0  0  0  0  0  0  0  0  0  0  0  0
  199.0842  184.2113  157.2552 H   0  0  0  0  0  0  0  0  0  0  0  0
  198.7770  182.8157  158.2160 H   0  0  0  0  0  0  0  0  0  0  0  0
  194.4988  184.1176  160.0969 H   0  0  0  0  0  0  0  0  0  0  0  0
  194.5408  186.5680  160.1118 H   0  0  0  0  0  0  0  0  0  0  0  0
  196.5617  187.7917  159.3242 H   0  0  0  0  0  0  0  0  0  0  0  0
  198.5203  186.5267  158.4851 H   0  0  0  0  0  0  0  0  0  0  0  0
  197.3003  181.8241  159.2327 H   0  0  0  0  0  0  0  0  0  0  0  0
  195.8630  182.0126  160.1343 H   0  0  0  0  0  0  0  0  0  0  0  0
  193.8528  183.1118  158.1330 H   0  0  0  0  0  0  0  0  0  0  0  0
  193.7426  181.6146  159.0862 H   0  0  0  0  0  0  0  0  0  0  0  0
  193.5816  181.5687  157.3340 H   0  0  0  0  0  0  0  0  0  0  0  0
  196.0012  183.3595  156.6079 H   0  0  0  0  0  0  0  0  0  0  0  0
  195.5502  181.8074  155.9170 H   0  0  0  0  0  0  0  0  0  0  0  0
  197.1513  182.0140  156.6230 H   0  0  0  0  0  0  0  0  0  0  0  0
  199.1943  180.0808  155.9331 H   0  0  0  0  0  0  0  0  0  0  0  0
  199.5523  181.3926  156.9458 H   0  0  0  0  0  0  0  0  0  0  0  0
  199.4916  179.7664  157.6619 H   0  0  0  0  0  0  0  0  0  0  0  0
  195.6675  180.8407  158.0415 H   0  0  0  0  0  0  0  0  0  0  0  0
  1  2  1  0
  2  3  2  0
  2  9  1  0
  3  4  1  0
  3 10  1  0
  4  5  2  0
  4 35  1  0
  5  6  1  0
  5 36  1  0
  6  7  1  0
  6  9  2  0
  7  8  3  0
  9 37  1  0
 10 11  1  0
 10 34  1  0
 10 38  1  6
 11 12  1  0
 11 39  1  0
 12 13  1  0
 12 17  2  0
 13 14  2  0
 14 15  1  0
 14 22  1  0
 15 16  2  0
 16 17  1  0
 16 21  1  0
 17 18  1  0
 18 19  2  0
 18 40  1  0
 19 20  1  0
 19 41  1  0
 20 21  2  0
 20 42  1  0
 21 43  1  0
 22 23  1  0
 22 44  1  0
 23 24  1  0
 23 45  1  6
 23 46  1  0
 24 25  1  0
 24 29  2  0
 25 26  2  0
 25 30  1  0
 26 27  1  0
 26 47  1  0
 27 28  2  0
 27 48  1  0
 28 29  1  0
 28 49  1  0
 29 50  1  0
 30 31  1  0
 30 51  1  6
 30 52  1  0
 31 32  1  0
 31 33  1  0
 31 62  1  6
 32 53  1  1
 32 54  1  0
 32 55  1  0
 33 56  1  6
 33 57  1  0
 33 58  1  0
 34 59  1  6
 34 60  1  0
 34 61  1  0
M  CHG  1  31   1
M  END
>  <s_epik_cmdline>  (870) 
J2VwaWtfcHl0aG9uJywgJy1waCcsICc3LjAwMDAwMCcsICctcGh0JywgJzIuMDAwMDAwJywgJy1tcycsICcxNicsICctdG4nLCAnOCcsICctbWEnLCAnMjAwJywgJy1pbWFlJywgJzxpbmZpbGUubWFlPicsICctb21hZScsICc8b3V0ZmlsZS5tYWU+Jw==

>  <s_epik_input>  (870) 
TiNDYyhbY0hdMSlbY0hdW2NIXWMoYzFGKVtDQEBIXShbQ0gzXSlbTkhdYyhjKGMyMylbY0hdW2NIXVtjSF1bY0hdMyluYyhuMilbTkhdW0NIMl1jNGMoW0NIMl1OKFtDSDNdKVtDSDNdKVtjSF1bY0hdW2NIXVtjSF00

>  <s_i_glide_gridfile>  (870) 
ATP-Grid

>  <s_lp_Force_Field>  (870) 
OPLS_2005

>  <s_lp_Variant>  (870) 
m_282030aaa____21916804____22360182____21973156-5

>  <s_lp_label>  (870) 
1705_sdstereoexpander_1_neutralizer_1_epik_3_stereoizer_1

>  <s_m_source_file>  (870) 
ATP-VSW-LIGPREP-003-in.maegz

>  <s_sd_BIOSOLVEIT.INFINISEE\_QUERY\_NAME>  (870) 
Ref-Lig

>  <s_sd_BIOSOLVEIT.INFINISEE\_QUERY\_SMILES>  (870) 
S(c1nc2c(cc1C[NH2+]Cc3ccc(cc3)C[NH+](C)C)cccc2)Cc4ccccc4

>  <s_sd_BIOSOLVEIT.INFINISEE\_REACTION\_NAME>  (870) 
m_282030aaa

>  <s_sd_BIOSOLVEIT.INFINISEE\_REAGENT1\_SMILES>  (870) 
[R1*]NC(c1c(F)cc(C#N)cc1)C

>  <s_sd_BIOSOLVEIT.INFINISEE\_REAGENT2\_SMILES>  (870) 
[R2*]c1nc([R1*])c2c(n1)cccc2

>  <s_sd_BIOSOLVEIT.INFINISEE\_REAGENT3\_SMILES>  (870) 
[R2*]NCc1c(cccc1)CN(C)C

>  <s_sd_BIOSOLVEIT.INFINISEE\_SPACE>  (870) 
REALSpace_44bn_2023-08

>  <s_vsw_compound_code>  (870) 
54531

>  <s_vsw_variant>  (870) 
54531-5

>  <r_epik_Charging_Adjusted_Penalty>  (870) 
2.4557954664309101

>  <r_epik_Ionization_Penalty>  (870) 
2.6240000000000001

>  <r_epik_Ionization_Penalty_Charging>  (870) 
0.038300000000000001

>  <r_epik_Ionization_Penalty_Neutral>  (870) 
2.5857000000000001

>  <r_epik_State_Penalty>  (870) 
2.4175

>  <r_i_docking_score>  (870) 
-3.8883583355600102

>  <r_i_glide_ecoul>  (870) 
-10.048302650451699

>  <r_i_glide_eff_state_penalty>  (870) 
2.4175

>  <r_i_glide_einternal>  (870) 
4.2513198852539098

>  <r_i_glide_emodel>  (870) 
-71.656821873534

>  <r_i_glide_energy>  (870) 
-47.599167823791497

>  <r_i_glide_erotb>  (870) 
0.67764966596132004

>  <r_i_glide_esite>  (870) 
-0.10000000000000001

>  <r_i_glide_evdw>  (870) 
-37.550865173339801

>  <r_i_glide_gscore>  (870) 
-6.3058583355600097

>  <r_i_glide_hbond>  (870) 
-0.32852849344542601

>  <r_i_glide_ligand_efficiency>  (870) 
-0.11436348045764699

>  <r_i_glide_ligand_efficiency_ln>  (870) 
-0.85904742108224896

>  <r_i_glide_ligand_efficiency_sa>  (870) 
-0.37049328049026298

>  <r_i_glide_lipo>  (870) 
-2.2896512507704201

>  <r_i_glide_metal>  (870) 
-0

>  <r_i_glide_rewards>  (870) 
-0.88053960107073703

>  <r_lp_Energy>  (870) 
13.333228

>  <r_qp_ACxDN^.5/SA>  (870) 
0.0120413

>  <r_qp_CIQPlogS>  (870) 
-7.0659999999999998

>  <r_qp_EA(eV)>  (870) 
1.1200000000000001

>  <r_qp_FISA>  (870) 
90.379000000000005

>  <r_qp_FOSA>  (870) 
208.51499999999999

>  <r_qp_IP(eV)>  (870) 
7.9850000000000003

>  <r_qp_Jm>  (870) 
0.00051009779102851097

>  <r_qp_PISA>  (870) 
438.31400000000002

>  <r_qp_PSA>  (870) 
65.465000000000003

>  <r_qp_PercentHumanOralAbsorption>  (870) 
100

>  <r_qp_QPPCaco>  (870) 
343.351

>  <r_qp_QPPMDCK>  (870) 
239.845

>  <r_qp_QPlogBB>  (870) 
-0.44

>  <r_qp_QPlogHERG>  (870) 
-7.46

>  <r_qp_QPlogKhsa>  (870) 
0.82899999999999996

>  <r_qp_QPlogKp>  (870) 
-2.8399999999999999

>  <r_qp_QPlogPC16>  (870) 
15.606999999999999

>  <r_qp_QPlogPo/w>  (870) 
4.9169999999999998

>  <r_qp_QPlogPoct>  (870) 
23.199999999999999

>  <r_qp_QPlogPw>  (870) 
12.507999999999999

>  <r_qp_QPlogS>  (870) 
-6.1100000000000003

>  <r_qp_QPpolrz>  (870) 
49.869999999999997

>  <r_qp_SASA>  (870) 
763.40599999999995

>  <r_qp_SAamideO>  (870) 
0

>  <r_qp_SAfluorine>  (870) 
26.198

>  <r_qp_WPSA>  (870) 
26.198

>  <r_qp_accptHB>  (870) 
6.5

>  <r_qp_dip^2/V>  (870) 
0.0021917999999999998

>  <r_qp_dipole>  (870) 
1.776

>  <r_qp_donorHB>  (870) 
2

>  <r_qp_glob>  (870) 
0.80772029999999995

>  <r_qp_mol_MW>  (870) 
454.54899999999998

>  <r_qp_volume>  (870) 
1439.7170000000001

>  <r_sd_BIOSOLVEIT.INFINISEE\_FTREES\_SIMILARITY>  (870) 
0.90500000000000003

>  <r_sd_BIOSOLVEIT.LOGP>  (870) 
4.0702800000000003

>  <r_sd_BIOSOLVEIT.MOLECULAR\_WEIGHT>  (870) 
455.55799999999999

>  <r_sd_BIOSOLVEIT.TPSA>  (870) 
78.069999999999993

>  <i_epik_Tot_Q>  (870) 
1

>  <i_epik_Tot_abs_Q>  (870) 
1

>  <i_f3d_flags>  (870) 
0

>  <i_i_glide_confnum>  (870) 
2

>  <i_i_glide_lignum>  (870) 
645

>  <i_i_glide_posenum>  (870) 
9

>  <i_i_glide_rotatable_bonds>  (870) 
8

>  <i_lp_mmshare_version>  (870) 
65135

>  <i_m_ct_format>  (870) 
2

>  <i_m_source_file_index>  (870) 
1705

>  <i_qp_#NandO>  (870) 
6

>  <i_qp_#acid>  (870) 
0

>  <i_qp_#amide>  (870) 
0

>  <i_qp_#amidine>  (870) 
0

>  <i_qp_#amine>  (870) 
1

>  <i_qp_#in34>  (870) 
0

>  <i_qp_#in56>  (870) 
22

>  <i_qp_#metab>  (870) 
5

>  <i_qp_#nonHatm>  (870) 
34

>  <i_qp_#noncon>  (870) 
0

>  <i_qp_#ringatoms>  (870) 
22

>  <i_qp_#rotor>  (870) 
9

>  <i_qp_#rtvFG>  (870) 
0

>  <i_qp_#stars>  (870) 
0

>  <i_qp_CNS>  (870) 
1

>  <i_qp_HumanOralAbsorption>  (870) 
3

>  <i_qp_RuleOfFive>  (870) 
0

>  <i_qp_RuleOfThree>  (870) 
1

>  <i_sd_BIOSOLVEIT.INFINISEE\_REAGENT1\_NAME>  (870) 
21916804

>  <i_sd_BIOSOLVEIT.INFINISEE\_REAGENT2\_NAME>  (870) 
22360182

>  <i_sd_BIOSOLVEIT.INFINISEE\_REAGENT3\_NAME>  (870) 
21973156

>  <i_sd_BIOSOLVEIT.INFINISEE\_RESULT\_RANK>  (870) 
72020

>  <i_sd_version>  (870) 
0

>  <b_lp_Chiralities_Consistent>  (870) 
1

>  <b_sd_chiral_flag>  (870) 
0

>  <canonical_id>  (870) 
ATP-HTVS-8BE0537C7CD3

>  <compound_code>  (870) 
54531

>  <title>  (870) 
m_282030aaa____21916804____22360182____21973156

>  <variant>  (870) 
54531-5

>  <source_file>  (870) 
运行/运行/ATP-VSW/ATP-VSW-DOCK_HTVS_1-003_lib/ATP-VSW-DOCK_HTVS_1-003_lib.mae

>  <canonical_smiles>  (870) 
C[C@@H](Nc1nc(NCc2ccccc2C[NH+](C)C)nc2ccccc12)c1ccc(C#N)cc1F

>  <scaffold>  (870) 
c1ccc(CNc2nc(NCc3ccccc3)c3ccccc3n2)cc1

>  <molecular_formula>  (870) 
C27H28FN6+

$$$$
ATP-HTVS-8BF32585E280
     RDKit          3D

 56 59  0  0  0  0  0  0  0  0999 V2000
  201.9473  179.9373  157.8766 Br  0  0  0  0  0  0  0  0  0  0  0  0
  200.4504  179.1566  156.8178 C   0  0  2  0  0  0  0  0  0  0  0  0
  201.0318  177.9592  156.0710 C   0  0  0  0  0  0  0  0  0  0  0  0
  201.9999  178.1350  155.0545 C   0  0  0  0  0  0  0  0  0  0  0  0
  202.5347  177.0210  154.3758 C   0  0  0  0  0  0  0  0  0  0  0  0
  202.1115  175.7227  154.7129 C   0  0  0  0  0  0  0  0  0  0  0  0
  201.1549  175.5411  155.7291 C   0  0  0  0  0  0  0  0  0  0  0  0
  200.6170  176.6523  156.4055 C   0  0  0  0  0  0  0  0  0  0  0  0
  199.8458  180.1659  155.8398 C   0  0  0  0  0  0  0  0  0  0  0  0
  200.4464  181.2087  155.5771 O   0  0  0  0  0  0  0  0  0  0  0  0
  198.6660  179.8405  155.2831 N   0  0  0  0  0  0  0  0  0  0  0  0
  198.0493  180.5692  154.2363 C   0  0  0  0  0  0  0  0  0  0  0  0
  197.3931  181.8024  154.4987 C   0  0  0  0  0  0  0  0  0  0  0  0
  197.3381  182.3838  155.7740 N   0  0  0  0  0  0  0  0  0  0  0  0
  196.3531  181.7975  156.6750 C   0  0  1  0  0  0  0  0  0  0  0  0
  196.6945  181.9512  158.1644 C   0  0  2  0  0  0  0  0  0  0  0  0
  195.6162  181.4401  158.9067 O   0  0  0  0  0  0  0  0  0  0  0  0
  197.0629  183.3698  158.5840 C   0  0  0  0  0  0  0  0  0  0  0  0
  196.0580  184.3105  158.8978 C   0  0  0  0  0  0  0  0  0  0  0  0
  196.4045  185.6277  159.2648 C   0  0  0  0  0  0  0  0  0  0  0  0
  197.7603  186.0045  159.3309 C   0  0  0  0  0  0  0  0  0  0  0  0
  198.7670  185.0642  159.0440 C   0  0  0  0  0  0  0  0  0  0  0  0
  198.4201  183.7500  158.6751 C   0  0  0  0  0  0  0  0  0  0  0  0
  195.3233  186.6448  159.5500 C   0  0  2  0  0  0  0  0  0  0  0  0
  196.8107  182.4738  153.4034 C   0  0  0  0  0  0  0  0  0  0  0  0
  196.8092  181.9998  152.1450 N   0  0  0  0  0  0  0  0  0  0  0  0
  197.4256  180.8287  151.8878 C   0  0  0  0  0  0  0  0  0  0  0  0
  198.0682  180.0705  152.9060 C   0  0  0  0  0  0  0  0  0  0  0  0
  198.7332  178.8646  152.5636 C   0  0  0  0  0  0  0  0  0  0  0  0
  198.7313  178.3987  151.2347 C   0  0  0  0  0  0  0  0  0  0  0  0
  198.0746  179.1337  150.2331 C   0  0  0  0  0  0  0  0  0  0  0  0
  197.4344  180.3408  150.5656 C   0  0  0  0  0  0  0  0  0  0  0  0
  199.6797  178.8359  157.5306 H   0  0  0  0  0  0  0  0  0  0  0  0
  202.3490  179.1240  154.7972 H   0  0  0  0  0  0  0  0  0  0  0  0
  203.2751  177.1638  153.6039 H   0  0  0  0  0  0  0  0  0  0  0  0
  202.5203  174.8665  154.1972 H   0  0  0  0  0  0  0  0  0  0  0  0
  200.8342  174.5430  155.9880 H   0  0  0  0  0  0  0  0  0  0  0  0
  199.8842  176.5079  157.1873 H   0  0  0  0  0  0  0  0  0  0  0  0
  198.2438  178.9579  155.5530 H   0  0  0  0  0  0  0  0  0  0  0  0
  197.2246  183.3895  155.7662 H   0  0  0  0  0  0  0  0  0  0  0  0
  195.4260  182.3275  156.5322 H   0  0  0  0  0  0  0  0  0  0  0  0
  196.1529  180.7462  156.4286 H   0  0  0  0  0  0  0  0  0  0  0  0
  197.5508  181.3101  158.3482 H   0  0  0  0  0  0  0  0  0  0  0  0
  195.5340  180.5209  158.6117 H   0  0  0  0  0  0  0  0  0  0  0  0
  195.0180  184.0185  158.8466 H   0  0  0  0  0  0  0  0  0  0  0  0
  198.0299  187.0172  159.5924 H   0  0  0  0  0  0  0  0  0  0  0  0
  199.8052  185.3538  159.0976 H   0  0  0  0  0  0  0  0  0  0  0  0
  199.1976  183.0344  158.4521 H   0  0  0  0  0  0  0  0  0  0  0  0
  195.6131  187.3152  160.3594 H   0  0  0  0  0  0  0  0  0  0  0  0
  194.3879  186.1572  159.8255 H   0  0  0  0  0  0  0  0  0  0  0  0
  195.1540  187.2398  158.6536 H   0  0  0  0  0  0  0  0  0  0  0  0
  196.3444  183.4352  153.5354 H   0  0  0  0  0  0  0  0  0  0  0  0
  199.2465  178.2810  153.3162 H   0  0  0  0  0  0  0  0  0  0  0  0
  199.2414  177.4809  150.9767 H   0  0  0  0  0  0  0  0  0  0  0  0
  198.0808  178.7834  149.2110 H   0  0  0  0  0  0  0  0  0  0  0  0
  196.9488  180.9119  149.7872 H   0  0  0  0  0  0  0  0  0  0  0  0
  1  2  1  0
  2  3  1  0
  2  9  1  0
  2 33  1  1
  3  4  2  0
  3  8  1  0
  4  5  1  0
  4 34  1  0
  5  6  2  0
  5 35  1  0
  6  7  1  0
  6 36  1  0
  7  8  2  0
  7 37  1  0
  8 38  1  0
  9 10  2  0
  9 11  1  0
 11 12  1  0
 11 39  1  0
 12 13  2  0
 12 28  1  0
 13 14  1  0
 13 25  1  0
 14 15  1  0
 14 40  1  0
 15 16  1  0
 15 41  1  1
 15 42  1  0
 16 17  1  0
 16 18  1  0
 16 43  1  6
 17 44  1  0
 18 19  1  0
 18 23  2  0
 19 20  2  0
 19 45  1  0
 20 21  1  0
 20 24  1  0
 21 22  2  0
 21 46  1  0
 22 23  1  0
 22 47  1  0
 23 48  1  0
 24 49  1  1
 24 50  1  0
 24 51  1  0
 25 26  2  0
 25 52  1  0
 26 27  1  0
 27 28  1  0
 27 32  2  0
 28 29  2  0
 29 30  1  0
 29 53  1  0
 30 31  2  0
 30 54  1  0
 31 32  1  0
 31 55  1  0
 32 56  1  0
M  END
>  <s_epik_cmdline>  (871) 
J2VwaWtfcHl0aG9uJywgJy1waCcsICc3LjAwMDAwMCcsICctcGh0JywgJzIuMDAwMDAwJywgJy1tcycsICcxNicsICctdG4nLCAnOCcsICctbWEnLCAnMjAwJywgJy1pbWFlJywgJzxpbmZpbGUubWFlPicsICctb21hZScsICc8b3V0ZmlsZS5tYWU+Jw==

>  <s_epik_input>  (871) 
W2NIXTFbY0hdW2NIXVtjSF1bY0hdYzFbQ0BASF0oQnIpQyg9TylbTkhdYyhjKGMyMylbY0hdW2NIXVtjSF1bY0hdMyljKFtjSF1uMilbTkhdW0NIMl1bQ0BIXShbT0hdKWM0W2NIXWMoW0NIM10pW2NIXVtjSF1bY0hdNA==

>  <s_i_glide_gridfile>  (871) 
ATP-Grid

>  <s_lp_Force_Field>  (871) 
OPLS_2005

>  <s_lp_Variant>  (871) 
rxn502b____EMOL535380____EMOL13728749____EMOL44834539-1

>  <s_lp_label>  (871) 
2269_sdstereoexpander_1_neutralizer_1_epik_1_stereoizer_1

>  <s_m_source_file>  (871) 
ATP-VSW-LIGPREP-003-in.maegz

>  <s_sd_BIOSOLVEIT.INFINISEE\_QUERY\_NAME>  (871) 
Ref-Lig

>  <s_sd_BIOSOLVEIT.INFINISEE\_QUERY\_SMILES>  (871) 
S(c1nc2c(cc1C[NH2+]Cc3ccc(cc3)C[NH+](C)C)cccc2)Cc4ccccc4

>  <s_sd_BIOSOLVEIT.INFINISEE\_REACTION\_NAME>  (871) 
rxn502b

>  <s_sd_BIOSOLVEIT.INFINISEE\_REAGENT1\_NAME>  (871) 
EMOL535380

>  <s_sd_BIOSOLVEIT.INFINISEE\_REAGENT1\_SMILES>  (871) 
BrC(c1ccccc1)C(=O)O

>  <s_sd_BIOSOLVEIT.INFINISEE\_REAGENT2\_NAME>  (871) 
EMOL13728749

>  <s_sd_BIOSOLVEIT.INFINISEE\_REAGENT2\_SMILES>  (871) 
Brc1c(N)c2c(nc1)cccc2

>  <s_sd_BIOSOLVEIT.INFINISEE\_REAGENT3\_NAME>  (871) 
EMOL44834539

>  <s_sd_BIOSOLVEIT.INFINISEE\_REAGENT3\_SMILES>  (871) 
OC(c1cc(ccc1)C)CN

>  <s_sd_BIOSOLVEIT.INFINISEE\_SPACE>  (871) 
eXplore_7tr_2022-12

>  <s_vsw_compound_code>  (871) 
72579

>  <s_vsw_variant>  (871) 
72579-1

>  <r_epik_Charging_Adjusted_Penalty>  (871) 
0.015877094041590201

>  <r_epik_Ionization_Penalty>  (871) 
0.015900000000000001

>  <r_epik_Ionization_Penalty_Charging>  (871) 
0

>  <r_epik_Ionization_Penalty_Neutral>  (871) 
0.015900000000000001

>  <r_epik_State_Penalty>  (871) 
0.015900000000000001

>  <r_i_docking_score>  (871) 
-4.02835975515627

>  <r_i_glide_ecoul>  (871) 
-7.7720251083373997

>  <r_i_glide_eff_state_penalty>  (871) 
0.015900000000000001

>  <r_i_glide_einternal>  (871) 
3.93809294700623

>  <r_i_glide_emodel>  (871) 
-52.0275428589472

>  <r_i_glide_energy>  (871) 
-41.836539268493702

>  <r_i_glide_erotb>  (871) 
0.592353330821354

>  <r_i_glide_esite>  (871) 
-0.094193922920417103

>  <r_i_glide_evdw>  (871) 
-34.0645141601562

>  <r_i_glide_gscore>  (871) 
-4.0442597551562702

>  <r_i_glide_hbond>  (871) 
-0.16

>  <r_i_glide_ligand_efficiency>  (871) 
-0.12588624234863299

>  <r_i_glide_ligand_efficiency_ln>  (871) 
-0.90205955811913296

>  <r_i_glide_ligand_efficiency_sa>  (871) 
-0.39966390660337903

>  <r_i_glide_lipo>  (871) 
-1.44787827970788

>  <r_i_glide_metal>  (871) 
-0

>  <r_i_glide_rewards>  (871) 
-0.065511409090909106

>  <r_lp_Energy>  (871) 
34.696956

>  <r_qp_ACxDN^.5/SA>  (871) 
0.015764899999999998

>  <r_qp_CIQPlogS>  (871) 
-7.8490000000000002

>  <r_qp_EA(eV)>  (871) 
1.0860000000000001

>  <r_qp_FISA>  (871) 
81.616

>  <r_qp_FOSA>  (871) 
104.169

>  <r_qp_IP(eV)>  (871) 
8.5960000000000001

>  <r_qp_Jm>  (871) 
0.55469811353851495

>  <r_qp_PISA>  (871) 
433.464

>  <r_qp_PSA>  (871) 
73.287000000000006

>  <r_qp_PercentHumanOralAbsorption>  (871) 
100

>  <r_qp_QPPCaco>  (871) 
1666.9870000000001

>  <r_qp_QPPMDCK>  (871) 
1877.106

>  <r_qp_QPlogBB>  (871) 
-0.52600000000000002

>  <r_qp_QPlogHERG>  (871) 
-6.0819999999999999

>  <r_qp_QPlogKhsa>  (871) 
0.52900000000000003

>  <r_qp_QPlogKp>  (871) 
-0.72899999999999998

>  <r_qp_QPlogPC16>  (871) 
15.035

>  <r_qp_QPlogPo/w>  (871) 
4.7489999999999997

>  <r_qp_QPlogPoct>  (871) 
23.067

>  <r_qp_QPlogPw>  (871) 
13.619999999999999

>  <r_qp_QPlogS>  (871) 
-5.218

>  <r_qp_QPpolrz>  (871) 
44.954999999999998

>  <r_qp_SASA>  (871) 
681.17999999999995

>  <r_qp_SAamideO>  (871) 
0

>  <r_qp_SAfluorine>  (871) 
0

>  <r_qp_WPSA>  (871) 
61.930999999999997

>  <r_qp_accptHB>  (871) 
6.2000000000000002

>  <r_qp_dip^2/V>  (871) 
0.0040410000000000003

>  <r_qp_dipole>  (871) 
2.294

>  <r_qp_donorHB>  (871) 
3

>  <r_qp_glob>  (871) 
0.8465374

>  <r_qp_mol_MW>  (871) 
490.39800000000002

>  <r_qp_volume>  (871) 
1302.009

>  <r_sd_BIOSOLVEIT.INFINISEE\_FTREES\_SIMILARITY>  (871) 
0.92500000000000004

>  <r_sd_BIOSOLVEIT.LOGP>  (871) 
5.76342

>  <r_sd_BIOSOLVEIT.MOLECULAR\_WEIGHT>  (871) 
490.399

>  <r_sd_BIOSOLVEIT.TPSA>  (871) 
74.25

>  <i_epik_Tot_Q>  (871) 
0

>  <i_epik_Tot_abs_Q>  (871) 
0

>  <i_f3d_flags>  (871) 
0

>  <i_i_glide_confnum>  (871) 
1

>  <i_i_glide_lignum>  (871) 
924

>  <i_i_glide_posenum>  (871) 
16

>  <i_i_glide_rotatable_bonds>  (871) 
9

>  <i_lp_mmshare_version>  (871) 
65135

>  <i_m_ct_format>  (871) 
2

>  <i_m_source_file_index>  (871) 
2269

>  <i_qp_#NandO>  (871) 
5

>  <i_qp_#acid>  (871) 
0

>  <i_qp_#amide>  (871) 
0

>  <i_qp_#amidine>  (871) 
0

>  <i_qp_#amine>  (871) 
0

>  <i_qp_#in34>  (871) 
0

>  <i_qp_#in56>  (871) 
22

>  <i_qp_#metab>  (871) 
8

>  <i_qp_#nonHatm>  (871) 
32

>  <i_qp_#noncon>  (871) 
0

>  <i_qp_#ringatoms>  (871) 
22

>  <i_qp_#rotor>  (871) 
8

>  <i_qp_#rtvFG>  (871) 
1

>  <i_qp_#stars>  (871) 
0

>  <i_qp_CNS>  (871) 
-1

>  <i_qp_HumanOralAbsorption>  (871) 
3

>  <i_qp_RuleOfFive>  (871) 
0

>  <i_qp_RuleOfThree>  (871) 
1

>  <i_sd_BIOSOLVEIT.INFINISEE\_RESULT\_RANK>  (871) 
9132

>  <i_sd_version>  (871) 
0

>  <b_lp_Chiralities_Consistent>  (871) 
1

>  <b_sd_chiral_flag>  (871) 
0

>  <canonical_id>  (871) 
ATP-HTVS-8BF32585E280

>  <compound_code>  (871) 
72579

>  <title>  (871) 
rxn502b____EMOL535380____EMOL13728749____EMOL44834539

>  <variant>  (871) 
72579-1

>  <source_file>  (871) 
运行/运行/ATP-VSW/ATP-VSW-DOCK_HTVS_1-003_lib/ATP-VSW-DOCK_HTVS_1-003_lib.mae

>  <canonical_smiles>  (871) 
Cc1cccc([C@@H](O)CNc2cnc3ccccc3c2NC(=O)[C@H](Br)c2ccccc2)c1

>  <scaffold>  (871) 
O=C(Cc1ccccc1)Nc1c(NCCc2ccccc2)cnc2ccccc12

>  <molecular_formula>  (871) 
C26H24BrN3O2

$$$$
ATP-HTVS-8BFFC6150277
     RDKit          3D

 60 63  0  0  0  0  0  0  0  0999 V2000
  197.8142  184.3886  147.8707 F   0  0  0  0  0  0  0  0  0  0  0  0
  198.1837  184.8222  149.1028 C   0  0  0  0  0  0  0  0  0  0  0  0
  199.2568  185.7284  149.2325 C   0  0  0  0  0  0  0  0  0  0  0  0
  199.9488  186.1670  148.1000 N   0  0  0  0  0  0  0  0  0  0  0  0
  199.6283  186.2003  150.5057 C   0  0  0  0  0  0  0  0  0  0  0  0
  198.9350  185.7654  151.6494 C   0  0  0  0  0  0  0  0  0  0  0  0
  197.8716  184.8537  151.5250 C   0  0  0  0  0  0  0  0  0  0  0  0
  197.4938  184.3726  150.2515 C   0  0  0  0  0  0  0  0  0  0  0  0
  196.3283  183.4110  150.1029 C   0  0  1  0  0  0  0  0  0  0  0  0
  196.1924  182.4343  151.1812 N   0  0  0  0  0  0  0  0  0  0  0  0
  196.7383  181.1440  151.0649 C   0  0  0  0  0  0  0  0  0  0  0  0
  196.9286  180.6375  149.8250 N   0  0  0  0  0  0  0  0  0  0  0  0
  197.4680  179.4032  149.7006 C   0  0  0  0  0  0  0  0  0  0  0  0
  197.8236  178.6474  150.8575 C   0  0  0  0  0  0  0  0  0  0  0  0
  197.6316  179.1553  152.1004 N   0  0  0  0  0  0  0  0  0  0  0  0
  197.0909  180.3926  152.2152 C   0  0  0  0  0  0  0  0  0  0  0  0
  196.9299  180.9261  153.4985 N   0  0  0  0  0  0  0  0  0  0  0  0
  198.1421  180.9424  154.3020 C   0  0  1  0  0  0  0  0  0  0  0  0
  198.0465  181.8204  155.5360 C   0  0  0  0  0  0  0  0  0  0  0  0
  196.9798  181.6500  156.4393 C   0  0  0  0  0  0  0  0  0  0  0  0
  196.9298  182.3881  157.6390 C   0  0  0  0  0  0  0  0  0  0  0  0
  197.9349  183.3426  157.9099 C   0  0  0  0  0  0  0  0  0  0  0  0
  197.9107  184.0564  159.0594 F   0  0  0  0  0  0  0  0  0  0  0  0
  198.9865  183.5375  156.9941 C   0  0  0  0  0  0  0  0  0  0  0  0
  199.0482  182.7746  155.8131 C   0  0  0  0  0  0  0  0  0  0  0  0
  195.8307  182.1021  158.6414 C   0  0  1  0  0  0  0  0  0  0  0  0
  194.5079  182.5384  158.1355 N   0  0  1  0  0  0  0  0  0  0  0  0
  193.4698  181.4954  158.2627 C   0  0  2  0  0  0  0  0  0  0  0  0
  194.0868  183.8326  158.7219 C   0  0  2  0  0  0  0  0  0  0  0  0
  198.3814  177.3602  150.6876 C   0  0  0  0  0  0  0  0  0  0  0  0
  198.6079  176.8301  149.4010 C   0  0  0  0  0  0  0  0  0  0  0  0
  198.2677  177.5819  148.2657 C   0  0  0  0  0  0  0  0  0  0  0  0
  197.6962  178.8579  148.4206 C   0  0  0  0  0  0  0  0  0  0  0  0
  200.8259  186.6498  148.1984 H   0  0  0  0  0  0  0  0  0  0  0  0
  199.8009  185.6955  147.2173 H   0  0  0  0  0  0  0  0  0  0  0  0
  200.4478  186.8953  150.6116 H   0  0  0  0  0  0  0  0  0  0  0  0
  199.2150  186.1330  152.6247 H   0  0  0  0  0  0  0  0  0  0  0  0
  197.3410  184.5416  152.4131 H   0  0  0  0  0  0  0  0  0  0  0  0
  195.4106  183.9958  150.0881 H   0  0  0  0  0  0  0  0  0  0  0  0
  196.3898  182.9353  149.1271 H   0  0  0  0  0  0  0  0  0  0  0  0
  196.0341  182.8084  152.1046 H   0  0  0  0  0  0  0  0  0  0  0  0
  196.3929  181.7746  153.5614 H   0  0  0  0  0  0  0  0  0  0  0  0
  198.3660  179.9273  154.6331 H   0  0  0  0  0  0  0  0  0  0  0  0
  198.9794  181.2666  153.6816 H   0  0  0  0  0  0  0  0  0  0  0  0
  196.2181  180.9093  156.2280 H   0  0  0  0  0  0  0  0  0  0  0  0
  199.7594  184.2580  157.2123 H   0  0  0  0  0  0  0  0  0  0  0  0
  199.8753  182.9156  155.1307 H   0  0  0  0  0  0  0  0  0  0  0  0
  195.8542  181.0388  158.8599 H   0  0  0  0  0  0  0  0  0  0  0  0
  196.0455  182.5788  159.6016 H   0  0  0  0  0  0  0  0  0  0  0  0
  193.3298  181.1881  159.3006 H   0  0  0  0  0  0  0  0  0  0  0  0
  193.7521  180.6183  157.6849 H   0  0  0  0  0  0  0  0  0  0  0  0
  192.5194  181.8526  157.8602 H   0  0  0  0  0  0  0  0  0  0  0  0
  193.9471  183.7454  159.8013 H   0  0  0  0  0  0  0  0  0  0  0  0
  193.1506  184.1694  158.2939 H   0  0  0  0  0  0  0  0  0  0  0  0
  194.8333  184.6082  158.5453 H   0  0  0  0  0  0  0  0  0  0  0  0
  198.6455  176.7748  151.5571 H   0  0  0  0  0  0  0  0  0  0  0  0
  199.0545  175.8527  149.2871 H   0  0  0  0  0  0  0  0  0  0  0  0
  198.4546  177.1888  147.2764 H   0  0  0  0  0  0  0  0  0  0  0  0
  197.4457  179.4339  147.5435 H   0  0  0  0  0  0  0  0  0  0  0  0
  194.5510  182.6688  157.1245 H   0  0  0  0  0  0  0  0  0  0  0  0
  1  2  1  0
  2  3  2  0
  2  8  1  0
  3  4  1  0
  3  5  1  0
  4 34  1  0
  4 35  1  0
  5  6  2  0
  5 36  1  0
  6  7  1  0
  6 37  1  0
  7  8  2  0
  7 38  1  0
  8  9  1  0
  9 10  1  0
  9 39  1  6
  9 40  1  0
 10 11  1  0
 10 41  1  0
 11 12  2  0
 11 16  1  0
 12 13  1  0
 13 14  1  0
 13 33  2  0
 14 15  1  0
 14 30  2  0
 15 16  2  0
 16 17  1  0
 17 18  1  0
 17 42  1  0
 18 19  1  0
 18 43  1  1
 18 44  1  0
 19 20  2  0
 19 25  1  0
 20 21  1  0
 20 45  1  0
 21 22  2  0
 21 26  1  0
 22 23  1  0
 22 24  1  0
 24 25  2  0
 24 46  1  0
 25 47  1  0
 26 27  1  0
 26 48  1  1
 26 49  1  0
 27 28  1  0
 27 29  1  0
 27 60  1  6
 28 50  1  1
 28 51  1  0
 28 52  1  0
 29 53  1  1
 29 54  1  0
 29 55  1  0
 30 31  1  0
 30 56  1  0
 31 32  2  0
 31 57  1  0
 32 33  1  0
 32 58  1  0
 33 59  1  0
M  CHG  1  27   1
M  END
>  <s_epik_cmdline>  (872) 
J2VwaWtfcHl0aG9uJywgJy1waCcsICc3LjAwMDAwMCcsICctcGh0JywgJzIuMDAwMDAwJywgJy1tcycsICcxNicsICctdG4nLCAnOCcsICctbWEnLCAnMjAwJywgJy1pbWFlJywgJzxpbmZpbGUubWFlPicsICctb21hZScsICc8b3V0ZmlsZS5tYWU+Jw==

>  <s_epik_input>  (872) 
RmMxYyhbTkgyXSlbY0hdW2NIXVtjSF1jMVtDSDJdW05IXWMobjIpYyhuYyhjMjMpW2NIXVtjSF1bY0hdW2NIXTMpW05IXVtDSDJdYzRbY0hdYyhjKEYpW2NIXVtjSF00KVtDSDJdTihbQ0gzXSlbQ0gzXQ==

>  <s_i_glide_gridfile>  (872) 
ATP-Grid

>  <s_lp_Force_Field>  (872) 
OPLS_2005

>  <s_lp_Variant>  (872) 
m_282030aaa____21893714____23157418____21970420-1

>  <s_lp_label>  (872) 
1677_sdstereoexpander_1_neutralizer_1_epik_1_stereoizer_1

>  <s_m_source_file>  (872) 
ATP-VSW-LIGPREP-001-in.maegz

>  <s_sd_BIOSOLVEIT.INFINISEE\_QUERY\_NAME>  (872) 
Ref-Lig

>  <s_sd_BIOSOLVEIT.INFINISEE\_QUERY\_SMILES>  (872) 
S(c1nc2c(cc1C[NH2+]Cc3ccc(cc3)C[NH+](C)C)cccc2)Cc4ccccc4

>  <s_sd_BIOSOLVEIT.INFINISEE\_REACTION\_NAME>  (872) 
m_282030aaa

>  <s_sd_BIOSOLVEIT.INFINISEE\_REAGENT1\_SMILES>  (872) 
[R1*]NCc1cc(c(F)cc1)CN(C)C

>  <s_sd_BIOSOLVEIT.INFINISEE\_REAGENT2\_SMILES>  (872) 
[R1*]c1nc2c(nc1[R2*])cccc2

>  <s_sd_BIOSOLVEIT.INFINISEE\_REAGENT3\_SMILES>  (872) 
[R2*]NCc1c(F)c(N)ccc1

>  <s_sd_BIOSOLVEIT.INFINISEE\_SPACE>  (872) 
REALSpace_44bn_2023-08

>  <s_vsw_compound_code>  (872) 
53633

>  <s_vsw_variant>  (872) 
53633-1

>  <r_epik_Charging_Adjusted_Penalty>  (872) 
0.10317023753822401

>  <r_epik_Ionization_Penalty>  (872) 
0.0521

>  <r_epik_Ionization_Penalty_Charging>  (872) 
0.0516

>  <r_epik_Ionization_Penalty_Neutral>  (872) 
0.00050000000000000001

>  <r_epik_State_Penalty>  (872) 
0.0516

>  <r_i_docking_score>  (872) 
-4.9296830338912301

>  <r_i_glide_ecoul>  (872) 
-8.3090915679931605

>  <r_i_glide_eff_state_penalty>  (872) 
0.0516

>  <r_i_glide_einternal>  (872) 
6.5648469924926802

>  <r_i_glide_emodel>  (872) 
-61.817596158349801

>  <r_i_glide_energy>  (872) 
-45.153581619262702

>  <r_i_glide_erotb>  (872) 
0.69427824759496803

>  <r_i_glide_esite>  (872) 
-0.11253933420079799

>  <r_i_glide_evdw>  (872) 
-36.844490051269503

>  <r_i_glide_gscore>  (872) 
-4.9812830338912297

>  <r_i_glide_hbond>  (872) 
-0.18553502774718

>  <r_i_glide_ligand_efficiency>  (872) 
-0.14938433436033999

>  <r_i_glide_ligand_efficiency_ln>  (872) 
-1.0963359822047001

>  <r_i_glide_ligand_efficiency_sa>  (872) 
-0.47915538026590998

>  <r_i_glide_lipo>  (872) 
-1.5663734469270501

>  <r_i_glide_metal>  (872) 
-0

>  <r_i_glide_rewards>  (872) 
-0.722525234848723

>  <r_lp_Energy>  (872) 
24.093665999999999

>  <r_qp_ACxDN^.5/SA>  (872) 
0.019114800000000001

>  <r_qp_CIQPlogS>  (872) 
-5.9779999999999998

>  <r_qp_EA(eV)>  (872) 
0.748

>  <r_qp_FISA>  (872) 
76.605000000000004

>  <r_qp_FOSA>  (872) 
188.41999999999999

>  <r_qp_IP(eV)>  (872) 
8.1969999999999992

>  <r_qp_Jm>  (872) 
2.0709231423249701

>  <r_qp_PISA>  (872) 
282.04500000000002

>  <r_qp_PSA>  (872) 
68.563000000000002

>  <r_qp_PercentHumanOralAbsorption>  (872) 
95.719999999999999

>  <r_qp_QPPCaco>  (872) 
463.82600000000002

>  <r_qp_QPPMDCK>  (872) 
395.96199999999999

>  <r_qp_QPlogBB>  (872) 
-0.056000000000000001

>  <r_qp_QPlogHERG>  (872) 
-4.5209999999999999

>  <r_qp_QPlogKhsa>  (872) 
0.372

>  <r_qp_QPlogKp>  (872) 
-3.1360000000000001

>  <r_qp_QPlogPC16>  (872) 
12.904

>  <r_qp_QPlogPo/w>  (872) 
3.5950000000000002

>  <r_qp_QPlogPoct>  (872) 
21.856999999999999

>  <r_qp_QPlogPw>  (872) 
12.637

>  <r_qp_QPlogS>  (872) 
-2.1989999999999998

>  <r_qp_QPpolrz>  (872) 
39.82

>  <r_qp_SASA>  (872) 
587.24099999999999

>  <r_qp_SAamideO>  (872) 
0

>  <r_qp_SAfluorine>  (872) 
40.170999999999999

>  <r_qp_WPSA>  (872) 
40.170999999999999

>  <r_qp_accptHB>  (872) 
6

>  <r_qp_dip^2/V>  (872) 
0.0098008999999999995

>  <r_qp_dipole>  (872) 
3.4660000000000002

>  <r_qp_donorHB>  (872) 
3.5

>  <r_qp_glob>  (872) 
0.94329209999999997

>  <r_qp_mol_MW>  (872) 
448.517

>  <r_qp_volume>  (872) 
1225.876

>  <r_sd_BIOSOLVEIT.INFINISEE\_FTREES\_SIMILARITY>  (872) 
0.90500000000000003

>  <r_sd_BIOSOLVEIT.LOGP>  (872) 
3.3589000000000002

>  <r_sd_BIOSOLVEIT.MOLECULAR\_WEIGHT>  (872) 
449.52600000000001

>  <r_sd_BIOSOLVEIT.TPSA>  (872) 
80.299999999999997

>  <i_epik_Tot_Q>  (872) 
1

>  <i_epik_Tot_abs_Q>  (872) 
1

>  <i_f3d_flags>  (872) 
0

>  <i_i_glide_confnum>  (872) 
2

>  <i_i_glide_lignum>  (872) 
468

>  <i_i_glide_posenum>  (872) 
12

>  <i_i_glide_rotatable_bonds>  (872) 
8

>  <i_lp_mmshare_version>  (872) 
65135

>  <i_m_ct_format>  (872) 
2

>  <i_m_source_file_index>  (872) 
1677

>  <i_qp_#NandO>  (872) 
6

>  <i_qp_#acid>  (872) 
0

>  <i_qp_#amide>  (872) 
0

>  <i_qp_#amidine>  (872) 
0

>  <i_qp_#amine>  (872) 
1

>  <i_qp_#in34>  (872) 
0

>  <i_qp_#in56>  (872) 
22

>  <i_qp_#metab>  (872) 
6

>  <i_qp_#nonHatm>  (872) 
33

>  <i_qp_#noncon>  (872) 
0

>  <i_qp_#ringatoms>  (872) 
22

>  <i_qp_#rotor>  (872) 
9

>  <i_qp_#rtvFG>  (872) 
0

>  <i_qp_#stars>  (872) 
0

>  <i_qp_CNS>  (872) 
0

>  <i_qp_HumanOralAbsorption>  (872) 
3

>  <i_qp_RuleOfFive>  (872) 
0

>  <i_qp_RuleOfThree>  (872) 
0

>  <i_sd_BIOSOLVEIT.INFINISEE\_REAGENT1\_NAME>  (872) 
21893714

>  <i_sd_BIOSOLVEIT.INFINISEE\_REAGENT2\_NAME>  (872) 
23157418

>  <i_sd_BIOSOLVEIT.INFINISEE\_REAGENT3\_NAME>  (872) 
21970420

>  <i_sd_BIOSOLVEIT.INFINISEE\_RESULT\_RANK>  (872) 
70348

>  <i_sd_version>  (872) 
0

>  <b_lp_Chiralities_Consistent>  (872) 
1

>  <b_sd_chiral_flag>  (872) 
0

>  <canonical_id>  (872) 
ATP-HTVS-8BFFC6150277

>  <compound_code>  (872) 
53633

>  <title>  (872) 
m_282030aaa____21893714____23157418____21970420

>  <variant>  (872) 
53633-1

>  <source_file>  (872) 
运行/运行/ATP-VSW/ATP-VSW-DOCK_HTVS_1-001_lib/ATP-VSW-DOCK_HTVS_1-001_lib

>  <canonical_smiles>  (872) 
C[NH+](C)Cc1cc(CNc2nc3ccccc3nc2NCc2cccc(N)c2F)ccc1F

>  <scaffold>  (872) 
c1ccc(CNc2nc3ccccc3nc2NCc2ccccc2)cc1

>  <molecular_formula>  (872) 
C25H27F2N6+

$$$$
ATP-HTVS-8C1C7F16DF05
     RDKit          3D

 58 61  0  0  0  0  0  0  0  0999 V2000
  198.1571  177.3899  147.6842 F   0  0  0  0  0  0  0  0  0  0  0  0
  198.2536  178.1669  146.5797 C   0  0  0  0  0  0  0  0  0  0  0  0
  199.4254  178.9190  146.3273 C   0  0  0  0  0  0  0  0  0  0  0  0
  199.5018  179.7255  145.1718 C   0  0  0  0  0  0  0  0  0  0  0  0
  198.4184  179.7868  144.2754 C   0  0  0  0  0  0  0  0  0  0  0  0
  197.2538  179.0379  144.5329 C   0  0  0  0  0  0  0  0  0  0  0  0
  197.1702  178.2395  145.6910 C   0  0  0  0  0  0  0  0  0  0  0  0
  200.5985  178.8606  147.2920 C   0  0  1  0  0  0  0  0  0  0  0  0
  200.2143  179.4030  148.6703 C   0  0  0  0  0  0  0  0  0  0  0  0
  200.4561  178.7269  149.6706 O   0  0  0  0  0  0  0  0  0  0  0  0
  199.6362  180.6209  148.6684 N   0  0  0  0  0  0  0  0  0  0  0  0
  199.1876  181.4039  149.7651 C   0  0  0  0  0  0  0  0  0  0  0  0
  199.3663  180.9966  151.0368 N   0  0  0  0  0  0  0  0  0  0  0  0
  198.9584  181.7656  152.0532 C   0  0  0  0  0  0  0  0  0  0  0  0
  198.2871  182.9974  151.8896 C   0  0  0  0  0  0  0  0  0  0  0  0
  197.8413  183.7570  152.9923 N   0  0  0  0  0  0  0  0  0  0  0  0
  197.5486  183.3337  154.2999 C   0  0  0  0  0  0  0  0  0  0  0  0
  197.5455  184.2997  155.3291 C   0  0  0  0  0  0  0  0  0  0  0  0
  197.2534  183.9264  156.6571 C   0  0  0  0  0  0  0  0  0  0  0  0
  196.9748  182.5796  156.9671 C   0  0  0  0  0  0  0  0  0  0  0  0
  196.9714  181.6141  155.9428 C   0  0  0  0  0  0  0  0  0  0  0  0
  197.2241  181.9929  154.6172 C   0  0  0  0  0  0  0  0  0  0  0  0
  196.6358  182.1642  158.3845 C   0  0  1  0  0  0  0  0  0  0  0  0
  195.1316  182.2599  158.6742 C   0  0  1  0  0  0  0  0  0  0  0  0
  194.3404  181.4365  157.7394 N   0  0  1  0  0  0  0  0  0  0  0  0
  192.9222  181.3127  158.0852 C   0  0  2  0  0  0  0  0  0  0  0  0
  198.1169  183.4577  150.5583 C   0  0  0  0  0  0  0  0  0  0  0  0
  198.5710  182.6533  149.4756 C   0  0  0  0  0  0  0  0  0  0  0  0
  198.4043  183.1218  148.1478 C   0  0  0  0  0  0  0  0  0  0  0  0
  197.7938  184.3639  147.8974 C   0  0  0  0  0  0  0  0  0  0  0  0
  197.3402  185.1541  148.9657 C   0  0  0  0  0  0  0  0  0  0  0  0
  197.5059  184.7080  150.2888 C   0  0  0  0  0  0  0  0  0  0  0  0
  194.3721  181.8649  156.8098 H   0  0  0  0  0  0  0  0  0  0  0  0
  200.3945  180.2954  144.9562 H   0  0  0  0  0  0  0  0  0  0  0  0
  198.4823  180.3903  143.3824 H   0  0  0  0  0  0  0  0  0  0  0  0
  196.4289  179.0690  143.8350 H   0  0  0  0  0  0  0  0  0  0  0  0
  196.2777  177.6626  145.8904 H   0  0  0  0  0  0  0  0  0  0  0  0
  200.9393  177.8283  147.3818 H   0  0  0  0  0  0  0  0  0  0  0  0
  201.4395  179.4449  146.9109 H   0  0  0  0  0  0  0  0  0  0  0  0
  199.4859  181.0293  147.7608 H   0  0  0  0  0  0  0  0  0  0  0  0
  199.2048  181.3589  153.0225 H   0  0  0  0  0  0  0  0  0  0  0  0
  197.6859  184.7408  152.8262 H   0  0  0  0  0  0  0  0  0  0  0  0
  197.7613  185.3359  155.1058 H   0  0  0  0  0  0  0  0  0  0  0  0
  197.2336  184.6785  157.4312 H   0  0  0  0  0  0  0  0  0  0  0  0
  196.7509  180.5775  156.1577 H   0  0  0  0  0  0  0  0  0  0  0  0
  197.1487  181.2265  153.8623 H   0  0  0  0  0  0  0  0  0  0  0  0
  196.9815  181.1403  158.5471 H   0  0  0  0  0  0  0  0  0  0  0  0
  197.1910  182.7904  159.0836 H   0  0  0  0  0  0  0  0  0  0  0  0
  194.9540  181.9285  159.6969 H   0  0  0  0  0  0  0  0  0  0  0  0
  194.7927  183.2949  158.6080 H   0  0  0  0  0  0  0  0  0  0  0  0
  192.4090  180.6932  157.3553 H   0  0  0  0  0  0  0  0  0  0  0  0
  192.4727  182.3023  158.0672 H   0  0  0  0  0  0  0  0  0  0  0  0
  192.7982  180.8618  159.0664 H   0  0  0  0  0  0  0  0  0  0  0  0
  198.7375  182.5515  147.2940 H   0  0  0  0  0  0  0  0  0  0  0  0
  197.6709  184.7094  146.8807 H   0  0  0  0  0  0  0  0  0  0  0  0
  196.8667  186.1045  148.7686 H   0  0  0  0  0  0  0  0  0  0  0  0
  197.1624  185.3382  151.0922 H   0  0  0  0  0  0  0  0  0  0  0  0
  194.7570  180.4918  157.7094 H   0  0  0  0  0  0  0  0  0  0  0  0
  1  2  1  0
  2  3  1  0
  2  7  2  0
  3  4  2  0
  3  8  1  0
  4  5  1  0
  4 34  1  0
  5  6  2  0
  5 35  1  0
  6  7  1  0
  6 36  1  0
  7 37  1  0
  8  9  1  0
  8 38  1  1
  8 39  1  0
  9 10  2  0
  9 11  1  0
 11 12  1  0
 11 40  1  0
 12 13  1  0
 12 28  2  0
 13 14  2  0
 14 15  1  0
 14 41  1  0
 15 16  1  0
 15 27  2  0
 16 17  1  0
 16 42  1  0
 17 18  1  0
 17 22  2  0
 18 19  2  0
 18 43  1  0
 19 20  1  0
 19 44  1  0
 20 21  2  0
 20 23  1  0
 21 22  1  0
 21 45  1  0
 22 46  1  0
 23 24  1  0
 23 47  1  6
 23 48  1  0
 24 25  1  0
 24 49  1  1
 24 50  1  0
 25 26  1  0
 25 33  1  6
 25 58  1  0
 26 51  1  6
 26 52  1  0
 26 53  1  0
 27 28  1  0
 27 32  1  0
 28 29  1  0
 29 30  2  0
 29 54  1  0
 30 31  1  0
 30 55  1  0
 31 32  2  0
 31 56  1  0
 32 57  1  0
M  CHG  1  25   1
M  END
>  <s_epik_cmdline>  (873) 
J2VwaWtfcHl0aG9uJywgJy1waCcsICc3LjAwMDAwMCcsICctcGh0JywgJzIuMDAwMDAwJywgJy1tcycsICcxNicsICctdG4nLCAnOCcsICctbWEnLCAnMjAwJywgJy1pbWFlJywgJzxpbmZpbGUubWFlPicsICctb21hZScsICc8b3V0ZmlsZS5tYWU+Jw==

>  <s_epik_input>  (873) 
W2NIXTFbY0hdW2NIXVtjSF1jKGMxRilbQ0gyXUMoPU8pW05IXWMoYyhjMjMpW2NIXVtjSF1bY0hdW2NIXTMpbltjSF1jMltOSF1jNFtjSF1bY0hdYyhbY0hdW2NIXTQpW0NIMl1bQ0gyXVtOSF1bQ0gzXQ==

>  <s_i_glide_gridfile>  (873) 
ATP-Grid

>  <s_lp_Force_Field>  (873) 
OPLS_2005

>  <s_lp_Variant>  (873) 
rxn502b____EMOL488417____EMOL7515103____EMOL38100949-1

>  <s_lp_label>  (873) 
2580_sdstereoexpander_1_neutralizer_1_epik_1_stereoizer_1

>  <s_m_source_file>  (873) 
ATP-VSW-LIGPREP-002-in.maegz

>  <s_sd_BIOSOLVEIT.INFINISEE\_QUERY\_NAME>  (873) 
Ref-Lig

>  <s_sd_BIOSOLVEIT.INFINISEE\_QUERY\_SMILES>  (873) 
S(c1nc2c(cc1C[NH2+]Cc3ccc(cc3)C[NH+](C)C)cccc2)Cc4ccccc4

>  <s_sd_BIOSOLVEIT.INFINISEE\_REACTION\_NAME>  (873) 
rxn502b

>  <s_sd_BIOSOLVEIT.INFINISEE\_REAGENT1\_NAME>  (873) 
EMOL488417

>  <s_sd_BIOSOLVEIT.INFINISEE\_REAGENT1\_SMILES>  (873) 
Fc1c(cccc1)CC(=O)O

>  <s_sd_BIOSOLVEIT.INFINISEE\_REAGENT2\_NAME>  (873) 
EMOL7515103

>  <s_sd_BIOSOLVEIT.INFINISEE\_REAGENT2\_SMILES>  (873) 
Brc1c2c(c(nc1)N)cccc2

>  <s_sd_BIOSOLVEIT.INFINISEE\_REAGENT3\_NAME>  (873) 
EMOL38100949

>  <s_sd_BIOSOLVEIT.INFINISEE\_REAGENT3\_SMILES>  (873) 
N(CCc1ccc(N)cc1)C

>  <s_sd_BIOSOLVEIT.INFINISEE\_SPACE>  (873) 
eXplore_7tr_2022-12

>  <s_vsw_compound_code>  (873) 
82530

>  <s_vsw_variant>  (873) 
82530-1

>  <r_epik_Charging_Adjusted_Penalty>  (873) 
0.0165661188687691

>  <r_epik_Ionization_Penalty>  (873) 
0.0166

>  <r_epik_Ionization_Penalty_Charging>  (873) 
0.00050000000000000001

>  <r_epik_Ionization_Penalty_Neutral>  (873) 
0.016

>  <r_epik_State_Penalty>  (873) 
0.016

>  <r_i_docking_score>  (873) 
-5.0002592411987798

>  <r_i_glide_ecoul>  (873) 
-10.4014225006104

>  <r_i_glide_eff_state_penalty>  (873) 
0.016

>  <r_i_glide_einternal>  (873) 
4.5104203224182102

>  <r_i_glide_emodel>  (873) 
-56.9010209791618

>  <r_i_glide_energy>  (873) 
-40.008581161499002

>  <r_i_glide_erotb>  (873) 
0.52785678062032404

>  <r_i_glide_esite>  (873) 
-0.110578896540552

>  <r_i_glide_evdw>  (873) 
-29.6071586608887

>  <r_i_glide_gscore>  (873) 
-5.0162592411987799

>  <r_i_glide_hbond>  (873) 
-0.39740179515229102

>  <r_i_glide_ligand_efficiency>  (873) 
-0.15625810128746201

>  <r_i_glide_ligand_efficiency_ln>  (873) 
-1.1196943460234501

>  <r_i_glide_ligand_efficiency_sa>  (873) 
-0.49608854815143699

>  <r_i_glide_lipo>  (873) 
-0.78927653855940505

>  <r_i_glide_metal>  (873) 
-0

>  <r_i_glide_rewards>  (873) 
-1.2062874834308699

>  <r_lp_Energy>  (873) 
29.595127000000002

>  <r_qp_ACxDN^.5/SA>  (873) 
0.0119443

>  <r_qp_CIQPlogS>  (873) 
-5.8200000000000003

>  <r_qp_EA(eV)>  (873) 
1.0600000000000001

>  <r_qp_FISA>  (873) 
90.566000000000003

>  <r_qp_FOSA>  (873) 
204.548

>  <r_qp_IP(eV)>  (873) 
7.7069999999999999

>  <r_qp_Jm>  (873) 
0.00069164236157843702

>  <r_qp_PISA>  (873) 
482.08699999999999

>  <r_qp_PSA>  (873) 
69.995999999999995

>  <r_qp_PercentHumanOralAbsorption>  (873) 
100

>  <r_qp_QPPCaco>  (873) 
341.94900000000001

>  <r_qp_QPPMDCK>  (873) 
221.834

>  <r_qp_QPlogBB>  (873) 
-0.51400000000000001

>  <r_qp_QPlogHERG>  (873) 
-8.4320000000000004

>  <r_qp_QPlogKhsa>  (873) 
0.84799999999999998

>  <r_qp_QPlogKp>  (873) 
-2.7850000000000001

>  <r_qp_QPlogPC16>  (873) 
16.102

>  <r_qp_QPlogPo/w>  (873) 
4.899

>  <r_qp_QPlogPoct>  (873) 
24.181999999999999

>  <r_qp_QPlogPw>  (873) 
13.587999999999999

>  <r_qp_QPlogS>  (873) 
-6.0069999999999997

>  <r_qp_QPpolrz>  (873) 
49.527999999999999

>  <r_qp_SASA>  (873) 
797.56100000000004

>  <r_qp_SAamideO>  (873) 
0

>  <r_qp_SAfluorine>  (873) 
20.359999999999999

>  <r_qp_WPSA>  (873) 
20.359999999999999

>  <r_qp_accptHB>  (873) 
5.5

>  <r_qp_dip^2/V>  (873) 
0.028182599999999999

>  <r_qp_dipole>  (873) 
6.2919999999999998

>  <r_qp_donorHB>  (873) 
3

>  <r_qp_glob>  (873) 
0.76053320000000002

>  <r_qp_mol_MW>  (873) 
428.50799999999998

>  <r_qp_volume>  (873) 
1404.673

>  <r_sd_BIOSOLVEIT.INFINISEE\_FTREES\_SIMILARITY>  (873) 
0.91200000000000003

>  <r_sd_BIOSOLVEIT.LOGP>  (873) 
4.0343999999999998

>  <r_sd_BIOSOLVEIT.MOLECULAR\_WEIGHT>  (873) 
429.51600000000002

>  <r_sd_BIOSOLVEIT.TPSA>  (873) 
70.629999999999995

>  <i_epik_Tot_Q>  (873) 
1

>  <i_epik_Tot_abs_Q>  (873) 
1

>  <i_f3d_flags>  (873) 
0

>  <i_i_glide_confnum>  (873) 
6

>  <i_i_glide_lignum>  (873) 
1161

>  <i_i_glide_posenum>  (873) 
20

>  <i_i_glide_rotatable_bonds>  (873) 
9

>  <i_lp_mmshare_version>  (873) 
65135

>  <i_m_ct_format>  (873) 
2

>  <i_m_source_file_index>  (873) 
2580

>  <i_qp_#NandO>  (873) 
5

>  <i_qp_#acid>  (873) 
0

>  <i_qp_#amide>  (873) 
0

>  <i_qp_#amidine>  (873) 
0

>  <i_qp_#amine>  (873) 
1

>  <i_qp_#in34>  (873) 
0

>  <i_qp_#in56>  (873) 
22

>  <i_qp_#metab>  (873) 
6

>  <i_qp_#nonHatm>  (873) 
32

>  <i_qp_#noncon>  (873) 
0

>  <i_qp_#ringatoms>  (873) 
22

>  <i_qp_#rotor>  (873) 
8

>  <i_qp_#rtvFG>  (873) 
0

>  <i_qp_#stars>  (873) 
2

>  <i_qp_CNS>  (873) 
0

>  <i_qp_HumanOralAbsorption>  (873) 
3

>  <i_qp_RuleOfFive>  (873) 
0

>  <i_qp_RuleOfThree>  (873) 
1

>  <i_sd_BIOSOLVEIT.INFINISEE\_RESULT\_RANK>  (873) 
39198

>  <i_sd_version>  (873) 
0

>  <b_lp_Chiralities_Consistent>  (873) 
1

>  <b_sd_chiral_flag>  (873) 
0

>  <canonical_id>  (873) 
ATP-HTVS-8C1C7F16DF05

>  <compound_code>  (873) 
82530

>  <title>  (873) 
rxn502b____EMOL488417____EMOL7515103____EMOL38100949

>  <variant>  (873) 
82530-1

>  <source_file>  (873) 
运行/运行/ATP-VSW/ATP-VSW-DOCK_HTVS_1-002_lib.maegz

>  <canonical_smiles>  (873) 
C[NH2+]CCc1ccc(Nc2cnc(NC(=O)Cc3ccccc3F)c3ccccc23)cc1

>  <scaffold>  (873) 
O=C(Cc1ccccc1)Nc1ncc(Nc2ccccc2)c2ccccc12

>  <molecular_formula>  (873) 
C26H26FN4O+

$$$$
ATP-HTVS-8C32683EF27B
     RDKit          3D

 59 62  0  0  0  0  0  0  0  0999 V2000
  196.4646  181.2283  152.6948 F   0  0  0  0  0  0  0  0  0  0  0  0
  197.2506  182.2066  153.2034 C   0  0  0  0  0  0  0  0  0  0  0  0
  197.2751  182.4610  154.5915 C   0  0  0  0  0  0  0  0  0  0  0  0
  198.1070  183.4721  155.1054 C   0  0  0  0  0  0  0  0  0  0  0  0
  198.9640  184.2079  154.2547 C   0  0  0  0  0  0  0  0  0  0  0  0
  198.9489  183.9314  152.8697 C   0  0  0  0  0  0  0  0  0  0  0  0
  198.0895  182.9417  152.3475 C   0  0  0  0  0  0  0  0  0  0  0  0
  199.9328  185.2513  154.8127 C   0  0  1  0  0  0  0  0  0  0  0  0
  199.5298  185.7822  156.1115 N   0  0  0  0  0  0  0  0  0  0  0  0
  198.7381  186.8620  156.2750 C   0  0  0  0  0  0  0  0  0  0  0  0
  198.4781  187.6369  155.3587 O   0  0  0  0  0  0  0  0  0  0  0  0
  198.1165  186.9809  157.6281 C   0  0  0  0  0  0  0  0  0  0  0  0
  197.8148  185.8975  158.2741 N   0  0  0  0  0  0  0  0  0  0  0  0
  197.1284  185.9246  159.4730 N   0  0  0  0  0  0  0  0  0  0  0  0
  196.6479  187.0469  160.0782 C   0  0  0  0  0  0  0  0  0  0  0  0
  195.9310  187.0380  161.0831 O   0  0  0  0  0  0  0  0  0  0  0  0
  197.0719  188.3389  159.4306 C   0  0  0  0  0  0  0  0  0  0  0  0
  197.8005  188.3122  158.2103 C   0  0  0  0  0  0  0  0  0  0  0  0
  198.2262  189.5407  157.6474 C   0  0  0  0  0  0  0  0  0  0  0  0
  197.8981  190.7618  158.2577 C   0  0  0  0  0  0  0  0  0  0  0  0
  197.1564  190.7789  159.4511 C   0  0  0  0  0  0  0  0  0  0  0  0
  196.7509  189.5697  160.0421 C   0  0  0  0  0  0  0  0  0  0  0  0
  196.9023  184.5918  160.0383 C   0  0  1  0  0  0  0  0  0  0  0  0
  195.6847  183.8761  159.5058 C   0  0  0  0  0  0  0  0  0  0  0  0
  195.7894  182.5184  159.1503 C   0  0  0  0  0  0  0  0  0  0  0  0
  194.6667  181.8430  158.6487 C   0  0  0  0  0  0  0  0  0  0  0  0
  193.4455  182.5073  158.5183 C   0  0  0  0  0  0  0  0  0  0  0  0
  193.3171  183.8394  158.9297 C   0  0  0  0  0  0  0  0  0  0  0  0
  194.4358  184.5280  159.4297 C   0  0  0  0  0  0  0  0  0  0  0  0
  196.4338  181.6312  155.5507 C   0  0  1  0  0  0  0  0  0  0  0  0
  197.1598  180.4620  156.1167 N   0  0  1  0  0  0  0  0  0  0  0  0
  197.4965  179.4345  155.1093 C   0  0  2  0  0  0  0  0  0  0  0  0
  198.3511  180.8180  156.9163 C   0  0  2  0  0  0  0  0  0  0  0  0
  198.1072  183.6403  156.1727 H   0  0  0  0  0  0  0  0  0  0  0  0
  199.6007  184.4743  152.1990 H   0  0  0  0  0  0  0  0  0  0  0  0
  198.0887  182.7235  151.2894 H   0  0  0  0  0  0  0  0  0  0  0  0
  200.9110  184.7827  154.9338 H   0  0  0  0  0  0  0  0  0  0  0  0
  200.0618  186.0536  154.0750 H   0  0  0  0  0  0  0  0  0  0  0  0
  199.6607  185.1908  156.9158 H   0  0  0  0  0  0  0  0  0  0  0  0
  198.8110  189.5766  156.7427 H   0  0  0  0  0  0  0  0  0  0  0  0
  198.2251  191.6855  157.8064 H   0  0  0  0  0  0  0  0  0  0  0  0
  196.9082  191.7198  159.9133 H   0  0  0  0  0  0  0  0  0  0  0  0
  196.1931  189.5935  160.9662 H   0  0  0  0  0  0  0  0  0  0  0  0
  197.7932  183.9726  159.9179 H   0  0  0  0  0  0  0  0  0  0  0  0
  196.7145  184.6490  161.1021 H   0  0  0  0  0  0  0  0  0  0  0  0
  196.7150  181.9842  159.2742 H   0  0  0  0  0  0  0  0  0  0  0  0
  194.6995  180.8155  158.3580 H   0  0  0  0  0  0  0  0  0  0  0  0
  192.6017  181.9809  158.1063 H   0  0  0  0  0  0  0  0  0  0  0  0
  192.3548  184.3293  158.8819 H   0  0  0  0  0  0  0  0  0  0  0  0
  194.3114  185.5515  159.7563 H   0  0  0  0  0  0  0  0  0  0  0  0
  196.0750  182.2849  156.3435 H   0  0  0  0  0  0  0  0  0  0  0  0
  195.5445  181.2822  155.0216 H   0  0  0  0  0  0  0  0  0  0  0  0
  198.1723  179.8216  154.3406 H   0  0  0  0  0  0  0  0  0  0  0  0
  196.5883  179.0781  154.6216 H   0  0  0  0  0  0  0  0  0  0  0  0
  197.9913  178.5769  155.5753 H   0  0  0  0  0  0  0  0  0  0  0  0
  199.1365  181.2809  156.3149 H   0  0  0  0  0  0  0  0  0  0  0  0
  198.7872  179.9204  157.3639 H   0  0  0  0  0  0  0  0  0  0  0  0
  198.0884  181.5231  157.7075 H   0  0  0  0  0  0  0  0  0  0  0  0
  196.5260  179.9842  156.7621 H   0  0  0  0  0  0  0  0  0  0  0  0
  1  2  1  0
  2  3  2  0
  2  7  1  0
  3  4  1  0
  3 30  1  0
  4  5  2  0
  4 34  1  0
  5  6  1  0
  5  8  1  0
  6  7  2  0
  6 35  1  0
  7 36  1  0
  8  9  1  0
  8 37  1  1
  8 38  1  0
  9 10  1  0
  9 39  1  0
 10 11  2  0
 10 12  1  0
 12 13  2  0
 12 18  1  0
 13 14  1  0
 14 15  1  0
 14 23  1  0
 15 16  2  0
 15 17  1  0
 17 18  1  0
 17 22  2  0
 18 19  2  0
 19 20  1  0
 19 40  1  0
 20 21  2  0
 20 41  1  0
 21 22  1  0
 21 42  1  0
 22 43  1  0
 23 24  1  0
 23 44  1  1
 23 45  1  0
 24 25  2  0
 24 29  1  0
 25 26  1  0
 25 46  1  0
 26 27  2  0
 26 47  1  0
 27 28  1  0
 27 48  1  0
 28 29  2  0
 28 49  1  0
 29 50  1  0
 30 31  1  0
 30 51  1  1
 30 52  1  0
 31 32  1  0
 31 33  1  0
 31 59  1  1
 32 53  1  6
 32 54  1  0
 32 55  1  0
 33 56  1  6
 33 57  1  0
 33 58  1  0
M  CHG  1  31   1
M  END
>  <s_epik_cmdline>  (874) 
J2VwaWtfcHl0aG9uJywgJy1waCcsICc3LjAwMDAwMCcsICctcGh0JywgJzIuMDAwMDAwJywgJy1tcycsICcxNicsICctdG4nLCAnOCcsICctbWEnLCAnMjAwJywgJy1pbWFlJywgJzxpbmZpbGUubWFlPicsICctb21hZScsICc8b3V0ZmlsZS5tYWU+Jw==

>  <s_epik_input>  (874) 
W0NIM11OKFtDSDNdKVtDSDJdYyhjMUYpW2NIXWMoW2NIXVtjSF0xKVtDSDJdW05IXUMoPU8pYyhjKGMyMylbY0hdW2NIXVtjSF1bY0hdMylubihjMj1PKVtDSDJdYzRbY0hdW2NIXVtjSF1bY0hdW2NIXTQ=

>  <s_i_glide_gridfile>  (874) 
ATP-Grid

>  <s_lp_Force_Field>  (874) 
OPLS_2005

>  <s_lp_Variant>  (874) 
m_527bbb____22314902____156076-1

>  <s_lp_label>  (874) 
861_sdstereoexpander_1_neutralizer_1_epik_1_stereoizer_1

>  <s_m_source_file>  (874) 
ATP-VSW-LIGPREP-001-in.maegz

>  <s_sd_BIOSOLVEIT.INFINISEE\_QUERY\_NAME>  (874) 
Ref-Lig

>  <s_sd_BIOSOLVEIT.INFINISEE\_QUERY\_SMILES>  (874) 
S(c1nc2c(cc1C[NH2+]Cc3ccc(cc3)C[NH+](C)C)cccc2)Cc4ccccc4

>  <s_sd_BIOSOLVEIT.INFINISEE\_REACTION\_NAME>  (874) 
m_527bbb

>  <s_sd_BIOSOLVEIT.INFINISEE\_REAGENT1\_SMILES>  (874) 
[R1*]NCc1cc(c(F)cc1)CN(C)C

>  <s_sd_BIOSOLVEIT.INFINISEE\_REAGENT2\_SMILES>  (874) 
[R1*]C(=O)C1=NN(C(=O)c2c1cccc2)Cc3ccccc3

>  <s_sd_BIOSOLVEIT.INFINISEE\_SPACE>  (874) 
REALSpace_44bn_2023-08

>  <s_vsw_compound_code>  (874) 
27521

>  <s_vsw_variant>  (874) 
27521-1

>  <r_epik_Charging_Adjusted_Penalty>  (874) 
0.105706498475115

>  <r_epik_Ionization_Penalty>  (874) 
0.052900000000000003

>  <r_epik_Ionization_Penalty_Charging>  (874) 
0.052900000000000003

>  <r_epik_Ionization_Penalty_Neutral>  (874) 
0

>  <r_epik_State_Penalty>  (874) 
0.052900000000000003

>  <r_i_docking_score>  (874) 
-4.8278738365340796

>  <r_i_glide_ecoul>  (874) 
-9.3882083892822301

>  <r_i_glide_eff_state_penalty>  (874) 
0.052900000000000003

>  <r_i_glide_einternal>  (874) 
3.0971653461456299

>  <r_i_glide_emodel>  (874) 
-58.422051709261702

>  <r_i_glide_energy>  (874) 
-41.560037612915004

>  <r_i_glide_erotb>  (874) 
0.70567763660854499

>  <r_i_glide_esite>  (874) 
-0.102836620344903

>  <r_i_glide_evdw>  (874) 
-32.171829223632798

>  <r_i_glide_gscore>  (874) 
-4.8807738365340798

>  <r_i_glide_hbond>  (874) 
-0.20000000000000001

>  <r_i_glide_ligand_efficiency>  (874) 
-0.14629920716769901

>  <r_i_glide_ligand_efficiency_ln>  (874) 
-1.07369414385229

>  <r_i_glide_ligand_efficiency_sa>  (874) 
-0.46925972889464401

>  <r_i_glide_lipo>  (874) 
-1.3576181019709399

>  <r_i_glide_metal>  (874) 
-0

>  <r_i_glide_rewards>  (874) 
-0.90917403125280205

>  <r_lp_Energy>  (874) 
39.692256999999998

>  <r_qp_ACxDN^.5/SA>  (874) 
0.0085123000000000004

>  <r_qp_CIQPlogS>  (874) 
-5.9210000000000003

>  <r_qp_EA(eV)>  (874) 
1.014

>  <r_qp_FISA>  (874) 
73.736999999999995

>  <r_qp_FOSA>  (874) 
249.226

>  <r_qp_IP(eV)>  (874) 
8.9930000000000003

>  <r_qp_Jm>  (874) 
0.00191031042341828

>  <r_qp_PISA>  (874) 
405.64499999999998

>  <r_qp_PSA>  (874) 
78.573999999999998

>  <r_qp_PercentHumanOralAbsorption>  (874) 
100

>  <r_qp_QPPCaco>  (874) 
493.798

>  <r_qp_QPPMDCK>  (874) 
396.89699999999999

>  <r_qp_QPlogBB>  (874) 
-0.152

>  <r_qp_QPlogHERG>  (874) 
-7.508

>  <r_qp_QPlogKhsa>  (874) 
0.84999999999999998

>  <r_qp_QPlogKp>  (874) 
-2.8399999999999999

>  <r_qp_QPlogPC16>  (874) 
14.727

>  <r_qp_QPlogPo/w>  (874) 
4.9550000000000001

>  <r_qp_QPlogPoct>  (874) 
21.765999999999998

>  <r_qp_QPlogPw>  (874) 
11.153

>  <r_qp_QPlogS>  (874) 
-5.5270000000000001

>  <r_qp_QPpolrz>  (874) 
49.518999999999998

>  <r_qp_SASA>  (874) 
763.60000000000002

>  <r_qp_SAamideO>  (874) 
0

>  <r_qp_SAfluorine>  (874) 
34.991999999999997

>  <r_qp_WPSA>  (874) 
34.991999999999997

>  <r_qp_accptHB>  (874) 
6.5

>  <r_qp_dip^2/V>  (874) 
0.019766499999999999

>  <r_qp_dipole>  (874) 
5.2729999999999997

>  <r_qp_donorHB>  (874) 
1

>  <r_qp_glob>  (874) 
0.79509700000000005

>  <r_qp_mol_MW>  (874) 
444.50700000000001

>  <r_qp_volume>  (874) 
1406.634

>  <r_sd_BIOSOLVEIT.INFINISEE\_FTREES\_SIMILARITY>  (874) 
0.92000000000000004

>  <r_sd_BIOSOLVEIT.LOGP>  (874) 
2.1583999999999999

>  <r_sd_BIOSOLVEIT.MOLECULAR\_WEIGHT>  (874) 
445.51499999999999

>  <r_sd_BIOSOLVEIT.TPSA>  (874) 
68.430000000000007

>  <i_epik_Tot_Q>  (874) 
1

>  <i_epik_Tot_abs_Q>  (874) 
1

>  <i_f3d_flags>  (874) 
0

>  <i_i_glide_confnum>  (874) 
8

>  <i_i_glide_lignum>  (874) 
145

>  <i_i_glide_posenum>  (874) 
7

>  <i_i_glide_rotatable_bonds>  (874) 
8

>  <i_lp_mmshare_version>  (874) 
65135

>  <i_m_ct_format>  (874) 
2

>  <i_m_source_file_index>  (874) 
861

>  <i_qp_#NandO>  (874) 
6

>  <i_qp_#acid>  (874) 
0

>  <i_qp_#amide>  (874) 
0

>  <i_qp_#amidine>  (874) 
0

>  <i_qp_#amine>  (874) 
1

>  <i_qp_#in34>  (874) 
0

>  <i_qp_#in56>  (874) 
22

>  <i_qp_#metab>  (874) 
4

>  <i_qp_#nonHatm>  (874) 
33

>  <i_qp_#noncon>  (874) 
0

>  <i_qp_#ringatoms>  (874) 
22

>  <i_qp_#rotor>  (874) 
7

>  <i_qp_#rtvFG>  (874) 
0

>  <i_qp_#stars>  (874) 
0

>  <i_qp_CNS>  (874) 
1

>  <i_qp_HumanOralAbsorption>  (874) 
3

>  <i_qp_RuleOfFive>  (874) 
0

>  <i_qp_RuleOfThree>  (874) 
0

>  <i_sd_BIOSOLVEIT.INFINISEE\_REAGENT1\_NAME>  (874) 
22314902

>  <i_sd_BIOSOLVEIT.INFINISEE\_REAGENT2\_NAME>  (874) 
156076

>  <i_sd_BIOSOLVEIT.INFINISEE\_RESULT\_RANK>  (874) 
15813

>  <i_sd_version>  (874) 
0

>  <b_lp_Chiralities_Consistent>  (874) 
1

>  <b_sd_chiral_flag>  (874) 
0

>  <canonical_id>  (874) 
ATP-HTVS-8C32683EF27B

>  <compound_code>  (874) 
27521

>  <title>  (874) 
m_527bbb____22314902____156076

>  <variant>  (874) 
27521-1

>  <source_file>  (874) 
运行/运行/ATP-VSW/ATP-VSW-DOCK_HTVS_1-001_lib/ATP-VSW-DOCK_HTVS_1-001_lib

>  <canonical_smiles>  (874) 
C[NH+](C)Cc1cc(CNC(=O)c2nn(Cc3ccccc3)c(=O)c3ccccc23)ccc1F

>  <scaffold>  (874) 
O=C(NCc1ccccc1)c1nn(Cc2ccccc2)c(=O)c2ccccc12

>  <molecular_formula>  (874) 
C26H26FN4O2+

$$$$
ATP-HTVS-8CA7F3DFAEDE
     RDKit          3D

 57 60  0  0  0  0  0  0  0  0999 V2000
  197.2154  187.2310  156.1327 O   0  0  0  0  0  0  0  0  0  0  0  0
  197.9446  186.2322  156.1434 C   0  0  0  0  0  0  0  0  0  0  0  0
  197.8356  185.2500  157.0750 N   0  0  0  0  0  0  0  0  0  0  0  0
  196.8381  185.2857  158.1048 C   0  0  0  0  0  0  0  0  0  0  0  0
  196.6334  186.4639  158.8636 C   0  0  0  0  0  0  0  0  0  0  0  0
  195.6534  186.5069  159.8706 C   0  0  0  0  0  0  0  0  0  0  0  0
  194.8735  185.3688  160.1394 C   0  0  0  0  0  0  0  0  0  0  0  0
  195.0763  184.1833  159.4074 C   0  0  0  0  0  0  0  0  0  0  0  0
  196.0554  184.1416  158.3946 C   0  0  0  0  0  0  0  0  0  0  0  0
  198.7086  184.1536  157.0968 C   0  0  0  0  0  0  0  0  0  0  0  0
  199.7091  183.9681  156.1956 C   0  0  0  0  0  0  0  0  0  0  0  0
  199.8838  184.9456  155.0966 C   0  0  0  0  0  0  0  0  0  0  0  0
  199.0137  186.0705  155.0788 C   0  0  0  0  0  0  0  0  0  0  0  0
  199.1247  187.0290  154.0493 C   0  0  0  0  0  0  0  0  0  0  0  0
  200.0751  186.8823  153.0243 C   0  0  0  0  0  0  0  0  0  0  0  0
  200.9257  185.7656  153.0238 C   0  0  0  0  0  0  0  0  0  0  0  0
  200.8297  184.8034  154.0425 C   0  0  0  0  0  0  0  0  0  0  0  0
  200.6086  182.8246  156.3203 C   0  0  0  0  0  0  0  0  0  0  0  0
  201.8202  182.8277  156.0683 O   0  0  0  0  0  0  0  0  0  0  0  0
  199.9811  181.7247  156.7375 N   0  0  0  0  0  0  0  0  0  0  0  0
  200.5684  180.3979  156.8369 C   0  0  1  0  0  0  0  0  0  0  0  0
  199.5079  179.3056  156.5659 C   0  0  2  0  0  0  0  0  0  0  0  0
  199.9688  177.8994  156.8499 N   0  0  1  0  0  0  0  0  0  0  0  0
  200.6551  177.1779  155.7488 C   0  0  2  0  0  0  0  0  0  0  0  0
  200.7775  177.7540  158.0819 C   0  0  2  0  0  0  0  0  0  0  0  0
  198.8329  179.4862  155.1810 C   0  0  0  0  0  0  0  0  0  0  0  0
  199.5513  179.1954  153.9938 C   0  0  0  0  0  0  0  0  0  0  0  0
  198.8866  179.2368  152.7417 C   0  0  0  0  0  0  0  0  0  0  0  0
  197.5627  179.7005  152.6450 C   0  0  0  0  0  0  0  0  0  0  0  0
  196.8802  180.1120  153.8047 C   0  0  0  0  0  0  0  0  0  0  0  0
  197.5143  179.9862  155.0743 C   0  0  0  0  0  0  0  0  0  0  0  0
  197.2259  187.3483  158.6788 H   0  0  0  0  0  0  0  0  0  0  0  0
  195.5042  187.4185  160.4315 H   0  0  0  0  0  0  0  0  0  0  0  0
  194.1114  185.4180  160.9043 H   0  0  0  0  0  0  0  0  0  0  0  0
  194.4750  183.3088  159.6125 H   0  0  0  0  0  0  0  0  0  0  0  0
  196.1836  183.2242  157.8355 H   0  0  0  0  0  0  0  0  0  0  0  0
  198.5455  183.4948  157.9334 H   0  0  0  0  0  0  0  0  0  0  0  0
  198.4596  187.8798  154.0231 H   0  0  0  0  0  0  0  0  0  0  0  0
  200.1424  187.6175  152.2379 H   0  0  0  0  0  0  0  0  0  0  0  0
  201.6496  185.6373  152.2329 H   0  0  0  0  0  0  0  0  0  0  0  0
  201.4925  183.9544  153.9845 H   0  0  0  0  0  0  0  0  0  0  0  0
  199.0117  181.8307  157.0230 H   0  0  0  0  0  0  0  0  0  0  0  0
  201.3788  180.2893  156.1100 H   0  0  0  0  0  0  0  0  0  0  0  0
  201.0071  180.3408  157.8344 H   0  0  0  0  0  0  0  0  0  0  0  0
  198.7314  179.4730  157.3082 H   0  0  0  0  0  0  0  0  0  0  0  0
  201.5013  177.7749  155.3934 H   0  0  0  0  0  0  0  0  0  0  0  0
  199.9898  177.0393  154.8861 H   0  0  0  0  0  0  0  0  0  0  0  0
  201.0568  176.2296  156.0798 H   0  0  0  0  0  0  0  0  0  0  0  0
  201.7076  178.3219  158.0290 H   0  0  0  0  0  0  0  0  0  0  0  0
  201.0686  176.7150  158.2352 H   0  0  0  0  0  0  0  0  0  0  0  0
  200.2174  178.0678  158.9561 H   0  0  0  0  0  0  0  0  0  0  0  0
  200.5938  178.8832  154.0458 H   0  0  0  0  0  0  0  0  0  0  0  0
  199.4044  178.9075  151.8582 H   0  0  0  0  0  0  0  0  0  0  0  0
  197.0643  179.7389  151.6745 H   0  0  0  0  0  0  0  0  0  0  0  0
  195.8815  180.5154  153.7362 H   0  0  0  0  0  0  0  0  0  0  0  0
  196.9473  180.2664  155.9593 H   0  0  0  0  0  0  0  0  0  0  0  0
  199.0924  177.4166  157.0446 H   0  0  0  0  0  0  0  0  0  0  0  0
  1  2  2  0
  2  3  1  0
  2 13  1  0
  3  4  1  0
  3 10  1  0
  4  5  2  0
  4  9  1  0
  5  6  1  0
  5 32  1  0
  6  7  2  0
  6 33  1  0
  7  8  1  0
  7 34  1  0
  8  9  2  0
  8 35  1  0
  9 36  1  0
 10 11  2  0
 10 37  1  0
 11 12  1  0
 11 18  1  0
 12 13  1  0
 12 17  2  0
 13 14  2  0
 14 15  1  0
 14 38  1  0
 15 16  2  0
 15 39  1  0
 16 17  1  0
 16 40  1  0
 17 41  1  0
 18 19  2  0
 18 20  1  0
 20 21  1  0
 20 42  1  0
 21 22  1  0
 21 43  1  6
 21 44  1  0
 22 23  1  0
 22 26  1  0
 22 45  1  1
 23 24  1  0
 23 25  1  0
 23 57  1  1
 24 46  1  6
 24 47  1  0
 24 48  1  0
 25 49  1  6
 25 50  1  0
 25 51  1  0
 26 27  2  0
 26 31  1  0
 27 28  1  0
 27 52  1  0
 28 29  2  0
 28 53  1  0
 29 30  1  0
 29 54  1  0
 30 31  2  0
 30 55  1  0
 31 56  1  0
M  CHG  1  23   1
M  END
>  <s_epik_cmdline>  (875) 
J2VwaWtfcHl0aG9uJywgJy1waCcsICc3LjAwMDAwMCcsICctcGh0JywgJzIuMDAwMDAwJywgJy1tcycsICcxNicsICctdG4nLCAnOCcsICctbWEnLCAnMjAwJywgJy1pbWFlJywgJzxpbmZpbGUubWFlPicsICctb21hZScsICc8b3V0ZmlsZS5tYWU+Jw==

>  <s_epik_input>  (875) 
W2NIXTFbY0hdW2NIXVtjSF1bY0hdYzEtbihjKD1PKWMoYzIzKVtjSF1bY0hdW2NIXVtjSF0zKVtjSF1jMkMoPU8pW05IXVtDSDJdW0NASF0oTihbQ0gzXSlbQ0gzXSljNFtjSF1bY0hdW2NIXVtjSF1bY0hdNA==

>  <s_i_glide_gridfile>  (875) 
ATP-Grid

>  <s_lp_Force_Field>  (875) 
OPLS_2005

>  <s_lp_Variant>  (875) 
YAS_R001____OTV6666760____OTV7020410094-1

>  <s_lp_label>  (875) 
160_sdstereoexpander_1_neutralizer_1_epik_1_stereoizer_1

>  <s_m_source_file>  (875) 
ATP-VSW-LIGPREP-002-in.maegz

>  <s_sd_BIOSOLVEIT.INFINISEE\_QUERY\_NAME>  (875) 
Ref-Lig

>  <s_sd_BIOSOLVEIT.INFINISEE\_QUERY\_SMILES>  (875) 
S(c1nc2c(cc1C[NH2+]Cc3ccc(cc3)C[NH+](C)C)cccc2)Cc4ccccc4

>  <s_sd_BIOSOLVEIT.INFINISEE\_REACTION\_NAME>  (875) 
YAS_R001

>  <s_sd_BIOSOLVEIT.INFINISEE\_REAGENT1\_NAME>  (875) 
OTV6666760

>  <s_sd_BIOSOLVEIT.INFINISEE\_REAGENT1\_SMILES>  (875) 
O=C1N(c2ccccc2)C=C(c3c1cccc3)C(=O)O

>  <s_sd_BIOSOLVEIT.INFINISEE\_REAGENT2\_NAME>  (875) 
OTV7020410094

>  <s_sd_BIOSOLVEIT.INFINISEE\_REAGENT2\_SMILES>  (875) 
N(C(c1ccccc1)CN)(C)C

>  <s_sd_BIOSOLVEIT.INFINISEE\_SPACE>  (875) 
CHEMriya_12bn_2022-01

>  <s_vsw_compound_code>  (875) 
5090

>  <s_vsw_variant>  (875) 
5090-1

>  <r_epik_Charging_Adjusted_Penalty>  (875) 
0.30592540198226498

>  <r_epik_Ionization_Penalty>  (875) 
0.153

>  <r_epik_Ionization_Penalty_Charging>  (875) 
0.153

>  <r_epik_Ionization_Penalty_Neutral>  (875) 
0

>  <r_epik_State_Penalty>  (875) 
0.153

>  <r_i_docking_score>  (875) 
-4.0757778235512703

>  <r_i_glide_ecoul>  (875) 
-8.2157697677612305

>  <r_i_glide_eff_state_penalty>  (875) 
0.153

>  <r_i_glide_einternal>  (875) 
3.7431879043579102

>  <r_i_glide_emodel>  (875) 
-52.152009287764201

>  <r_i_glide_energy>  (875) 
-39.443392753601103

>  <r_i_glide_erotb>  (875) 
0.57944409213568104

>  <r_i_glide_esite>  (875) 
-0.095952614793806595

>  <r_i_glide_evdw>  (875) 
-31.227622985839801

>  <r_i_glide_gscore>  (875) 
-4.2287778235512699

>  <r_i_glide_hbond>  (875) 
-0.15043768683332601

>  <r_i_glide_ligand_efficiency>  (875) 
-0.131476703985525

>  <r_i_glide_ligand_efficiency_ln>  (875) 
-0.91921280680026896

>  <r_i_glide_ligand_efficiency_sa>  (875) 
-0.41301837366755101

>  <r_i_glide_lipo>  (875) 
-1.1417211387052499

>  <r_i_glide_metal>  (875) 
-0

>  <r_i_glide_rewards>  (875) 
-0.62636386089838603

>  <r_lp_Energy>  (875) 
51.557940000000002

>  <r_qp_ACxDN^.5/SA>  (875) 
0.0109403

>  <r_qp_CIQPlogS>  (875) 
-4.8449999999999998

>  <r_qp_EA(eV)>  (875) 
0.66600000000000004

>  <r_qp_FISA>  (875) 
72.159000000000006

>  <r_qp_FOSA>  (875) 
167.06999999999999

>  <r_qp_IP(eV)>  (875) 
8.7729999999999997

>  <r_qp_Jm>  (875) 
0.065318003460377694

>  <r_qp_PISA>  (875) 
446.30700000000002

>  <r_qp_PSA>  (875) 
63.572000000000003

>  <r_qp_PercentHumanOralAbsorption>  (875) 
100

>  <r_qp_QPPCaco>  (875) 
511.11099999999999

>  <r_qp_QPPMDCK>  (875) 
264.95299999999997

>  <r_qp_QPlogBB>  (875) 
-0.025999999999999999

>  <r_qp_QPlogHERG>  (875) 
-7.0250000000000004

>  <r_qp_QPlogKhsa>  (875) 
0.441

>  <r_qp_QPlogKp>  (875) 
-2.8599999999999999

>  <r_qp_QPlogPC16>  (875) 
14.086

>  <r_qp_QPlogPo/w>  (875) 
3.7549999999999999

>  <r_qp_QPlogPoct>  (875) 
21.263999999999999

>  <r_qp_QPlogPw>  (875) 
12.645

>  <r_qp_QPlogS>  (875) 
-3.9399999999999999

>  <r_qp_QPpolrz>  (875) 
46.612000000000002

>  <r_qp_SASA>  (875) 
685.53599999999994

>  <r_qp_SAamideO>  (875) 
0

>  <r_qp_SAfluorine>  (875) 
0

>  <r_qp_WPSA>  (875) 
0

>  <r_qp_accptHB>  (875) 
7.5

>  <r_qp_dip^2/V>  (875) 
0.011280200000000001

>  <r_qp_dipole>  (875) 
3.8180000000000001

>  <r_qp_donorHB>  (875) 
1

>  <r_qp_glob>  (875) 
0.83693390000000001

>  <r_qp_mol_MW>  (875) 
411.50200000000001

>  <r_qp_volume>  (875) 
1292.2139999999999

>  <r_sd_BIOSOLVEIT.INFINISEE\_FTREES\_SIMILARITY>  (875) 
0.90100000000000002

>  <r_sd_BIOSOLVEIT.LOGP>  (875) 
2.6063000000000001

>  <r_sd_BIOSOLVEIT.MOLECULAR\_WEIGHT>  (875) 
412.50999999999999

>  <r_sd_BIOSOLVEIT.TPSA>  (875) 
55.539999999999999

>  <i_epik_Tot_Q>  (875) 
1

>  <i_epik_Tot_abs_Q>  (875) 
1

>  <i_f3d_flags>  (875) 
0

>  <i_i_glide_confnum>  (875) 
5

>  <i_i_glide_lignum>  (875) 
119

>  <i_i_glide_posenum>  (875) 
7

>  <i_i_glide_rotatable_bonds>  (875) 
7

>  <i_lp_mmshare_version>  (875) 
65135

>  <i_m_ct_format>  (875) 
2

>  <i_m_source_file_index>  (875) 
160

>  <i_qp_#NandO>  (875) 
5

>  <i_qp_#acid>  (875) 
0

>  <i_qp_#amide>  (875) 
0

>  <i_qp_#amidine>  (875) 
0

>  <i_qp_#amine>  (875) 
1

>  <i_qp_#in34>  (875) 
0

>  <i_qp_#in56>  (875) 
22

>  <i_qp_#metab>  (875) 
3

>  <i_qp_#nonHatm>  (875) 
31

>  <i_qp_#noncon>  (875) 
0

>  <i_qp_#ringatoms>  (875) 
22

>  <i_qp_#rotor>  (875) 
5

>  <i_qp_#rtvFG>  (875) 
0

>  <i_qp_#stars>  (875) 
0

>  <i_qp_CNS>  (875) 
1

>  <i_qp_HumanOralAbsorption>  (875) 
3

>  <i_qp_RuleOfFive>  (875) 
0

>  <i_qp_RuleOfThree>  (875) 
0

>  <i_sd_BIOSOLVEIT.INFINISEE\_RESULT\_RANK>  (875) 
94516

>  <i_sd_version>  (875) 
0

>  <b_lp_Chiralities_Consistent>  (875) 
1

>  <b_sd_chiral_flag>  (875) 
0

>  <canonical_id>  (875) 
ATP-HTVS-8CA7F3DFAEDE

>  <compound_code>  (875) 
5090

>  <title>  (875) 
YAS_R001____OTV6666760____OTV7020410094

>  <variant>  (875) 
5090-1

>  <source_file>  (875) 
运行/运行/ATP-VSW/ATP-VSW-DOCK_HTVS_1-002_lib.maegz

>  <canonical_smiles>  (875) 
C[NH+](C)[C@@H](CNC(=O)c1cn(-c2ccccc2)c(=O)c2ccccc12)c1ccccc1

>  <scaffold>  (875) 
O=C(NCCc1ccccc1)c1cn(-c2ccccc2)c(=O)c2ccccc12

>  <molecular_formula>  (875) 
C26H26N3O2+

$$$$
ATP-HTVS-8D220C5D1AB9
     RDKit          3D

 59 62  0  0  0  0  0  0  0  0999 V2000
  197.7920  185.7286  158.4589 Cl  0  0  0  0  0  0  0  0  0  0  0  0
  196.6356  184.4411  158.4547 C   0  0  0  0  0  0  0  0  0  0  0  0
  196.8176  183.2268  157.7297 C   0  0  0  0  0  0  0  0  0  0  0  0
  195.8084  182.2415  157.7921 C   0  0  0  0  0  0  0  0  0  0  0  0
  194.6380  182.4503  158.5328 C   0  0  0  0  0  0  0  0  0  0  0  0
  193.5931  181.4454  158.5206 C   0  0  0  0  0  0  0  0  0  0  0  0
  192.7569  180.6394  158.5117 N   0  0  0  0  0  0  0  0  0  0  0  0
  194.4522  183.6586  159.2318 C   0  0  0  0  0  0  0  0  0  0  0  0
  195.4571  184.6397  159.1974 C   0  0  0  0  0  0  0  0  0  0  0  0
  198.0755  182.9426  156.9399 C   0  0  0  0  0  0  0  0  0  0  0  0
  199.1812  183.3093  157.3403 O   0  0  0  0  0  0  0  0  0  0  0  0
  197.8586  182.2746  155.7871 N   0  0  0  0  0  0  0  0  0  0  0  0
  198.7866  181.8419  154.7963 C   0  0  0  0  0  0  0  0  0  0  0  0
  200.1223  182.0016  154.9402 N   0  0  0  0  0  0  0  0  0  0  0  0
  200.9609  181.5919  153.9748 C   0  0  0  0  0  0  0  0  0  0  0  0
  200.5429  180.9672  152.7747 C   0  0  0  0  0  0  0  0  0  0  0  0
  201.5381  180.5391  151.8548 N   0  0  0  0  0  0  0  0  0  0  0  0
  201.6463  179.1363  151.4033 C   0  0  1  0  0  0  0  0  0  0  0  0
  201.3674  178.0553  152.4454 C   0  0  0  0  0  0  0  0  0  0  0  0
  201.6567  178.2563  153.8123 C   0  0  0  0  0  0  0  0  0  0  0  0
  201.3499  177.2753  154.7695 C   0  0  0  0  0  0  0  0  0  0  0  0
  200.8286  176.0316  154.3546 C   0  0  0  0  0  0  0  0  0  0  0  0
  200.5697  175.8065  152.9867 C   0  0  0  0  0  0  0  0  0  0  0  0
  200.8175  176.8190  152.0403 C   0  0  0  0  0  0  0  0  0  0  0  0
  201.6051  177.5543  156.2371 C   0  0  1  0  0  0  0  0  0  0  0  0
  200.3545  177.8773  156.9744 N   0  0  2  0  0  0  0  0  0  0  0  0
  199.8249  179.2233  156.6723 C   0  0  2  0  0  0  0  0  0  0  0  0
  200.4992  177.6603  158.4247 C   0  0  2  0  0  0  0  0  0  0  0  0
  199.1452  180.7946  152.6005 C   0  0  0  0  0  0  0  0  0  0  0  0
  198.2481  181.2209  153.6302 C   0  0  0  0  0  0  0  0  0  0  0  0
  196.8362  181.0486  153.4497 C   0  0  0  0  0  0  0  0  0  0  0  0
  196.3440  180.4444  152.2738 C   0  0  0  0  0  0  0  0  0  0  0  0
  197.2310  180.0301  151.2728 C   0  0  0  0  0  0  0  0  0  0  0  0
  198.6129  180.2336  151.4105 C   0  0  0  0  0  0  0  0  0  0  0  0
  195.9057  181.3095  157.2612 H   0  0  0  0  0  0  0  0  0  0  0  0
  193.5346  183.8527  159.7749 H   0  0  0  0  0  0  0  0  0  0  0  0
  195.3159  185.5661  159.7383 H   0  0  0  0  0  0  0  0  0  0  0  0
  196.8931  182.0468  155.6066 H   0  0  0  0  0  0  0  0  0  0  0  0
  202.0086  181.7016  154.2084 H   0  0  0  0  0  0  0  0  0  0  0  0
  202.4388  180.9882  151.9571 H   0  0  0  0  0  0  0  0  0  0  0  0
  201.0112  178.9451  150.5390 H   0  0  0  0  0  0  0  0  0  0  0  0
  202.6691  178.9837  151.0278 H   0  0  0  0  0  0  0  0  0  0  0  0
  202.1063  179.1749  154.1453 H   0  0  0  0  0  0  0  0  0  0  0  0
  200.6350  175.2485  155.0782 H   0  0  0  0  0  0  0  0  0  0  0  0
  200.1780  174.8503  152.6623 H   0  0  0  0  0  0  0  0  0  0  0  0
  200.5924  176.6389  150.9979 H   0  0  0  0  0  0  0  0  0  0  0  0
  202.0819  176.6678  156.6583 H   0  0  0  0  0  0  0  0  0  0  0  0
  202.3235  178.3712  156.3420 H   0  0  0  0  0  0  0  0  0  0  0  0
  200.5502  179.9998  156.9217 H   0  0  0  0  0  0  0  0  0  0  0  0
  198.9092  179.4335  157.2291 H   0  0  0  0  0  0  0  0  0  0  0  0
  199.5861  179.2888  155.6114 H   0  0  0  0  0  0  0  0  0  0  0  0
  201.2542  178.3252  158.8476 H   0  0  0  0  0  0  0  0  0  0  0  0
  200.7800  176.6300  158.6227 H   0  0  0  0  0  0  0  0  0  0  0  0
  199.5569  177.8275  158.9309 H   0  0  0  0  0  0  0  0  0  0  0  0
  196.1124  181.3972  154.1783 H   0  0  0  0  0  0  0  0  0  0  0  0
  195.2740  180.3390  152.1157 H   0  0  0  0  0  0  0  0  0  0  0  0
  196.8692  179.5875  150.3578 H   0  0  0  0  0  0  0  0  0  0  0  0
  199.2430  179.9806  150.5758 H   0  0  0  0  0  0  0  0  0  0  0  0
  199.6411  177.2320  156.6650 H   0  0  0  0  0  0  0  0  0  0  0  0
  1  2  1  0
  2  3  2  0
  2  9  1  0
  3  4  1  0
  3 10  1  0
  4  5  2  0
  4 35  1  0
  5  6  1  0
  5  8  1  0
  6  7  3  0
  8  9  2  0
  8 36  1  0
  9 37  1  0
 10 11  2  0
 10 12  1  0
 12 13  1  0
 12 38  1  0
 13 14  1  0
 13 30  2  0
 14 15  2  0
 15 16  1  0
 15 39  1  0
 16 17  1  0
 16 29  2  0
 17 18  1  0
 17 40  1  0
 18 19  1  0
 18 41  1  6
 18 42  1  0
 19 20  2  0
 19 24  1  0
 20 21  1  0
 20 43  1  0
 21 22  2  0
 21 25  1  0
 22 23  1  0
 22 44  1  0
 23 24  2  0
 23 45  1  0
 24 46  1  0
 25 26  1  0
 25 47  1  1
 25 48  1  0
 26 27  1  0
 26 28  1  0
 26 59  1  6
 27 49  1  1
 27 50  1  0
 27 51  1  0
 28 52  1  1
 28 53  1  0
 28 54  1  0
 29 30  1  0
 29 34  1  0
 30 31  1  0
 31 32  2  0
 31 55  1  0
 32 33  1  0
 32 56  1  0
 33 34  2  0
 33 57  1  0
 34 58  1  0
M  CHG  1  26   1
M  END
>  <s_epik_cmdline>  (876) 
J2VwaWtfcHl0aG9uJywgJy1waCcsICc3LjAwMDAwMCcsICctcGh0JywgJzIuMDAwMDAwJywgJy1tcycsICcxNicsICctdG4nLCAnOCcsICctbWEnLCAnMjAwJywgJy1pbWFlJywgJzxpbmZpbGUubWFlPicsICctb21hZScsICc8b3V0ZmlsZS5tYWU+Jw==

>  <s_epik_input>  (876) 
TiNDYyhbY0hdW2NIXTEpW2NIXWMoYzFDbClDKD1PKVtOSF1jKGMoYzIzKVtjSF1bY0hdW2NIXVtjSF0zKW5bY0hdYzJbTkhdW0NIMl1jNFtjSF1jKFtjSF1bY0hdW2NIXTQpW0NIMl1OKFtDSDNdKVtDSDNd

>  <s_i_glide_gridfile>  (876) 
ATP-Grid

>  <s_lp_Force_Field>  (876) 
OPLS_2005

>  <s_lp_Variant>  (876) 
rxn502b____EMOL44240795____EMOL7515103____EMOL2873214-1

>  <s_lp_label>  (876) 
2311_sdstereoexpander_1_neutralizer_1_epik_1_stereoizer_1

>  <s_m_source_file>  (876) 
ATP-VSW-LIGPREP-001-in.maegz

>  <s_sd_BIOSOLVEIT.INFINISEE\_QUERY\_NAME>  (876) 
Ref-Lig

>  <s_sd_BIOSOLVEIT.INFINISEE\_QUERY\_SMILES>  (876) 
S(c1nc2c(cc1C[NH2+]Cc3ccc(cc3)C[NH+](C)C)cccc2)Cc4ccccc4

>  <s_sd_BIOSOLVEIT.INFINISEE\_REACTION\_NAME>  (876) 
rxn502b

>  <s_sd_BIOSOLVEIT.INFINISEE\_REAGENT1\_NAME>  (876) 
EMOL44240795

>  <s_sd_BIOSOLVEIT.INFINISEE\_REAGENT1\_SMILES>  (876) 
Clc1c(cc(C#N)cc1)C(=O)O

>  <s_sd_BIOSOLVEIT.INFINISEE\_REAGENT2\_NAME>  (876) 
EMOL7515103

>  <s_sd_BIOSOLVEIT.INFINISEE\_REAGENT2\_SMILES>  (876) 
Brc1c2c(c(nc1)N)cccc2

>  <s_sd_BIOSOLVEIT.INFINISEE\_REAGENT3\_NAME>  (876) 
EMOL2873214

>  <s_sd_BIOSOLVEIT.INFINISEE\_REAGENT3\_SMILES>  (876) 
N(Cc1cc(ccc1)CN)(C)C

>  <s_sd_BIOSOLVEIT.INFINISEE\_SPACE>  (876) 
eXplore_7tr_2022-12

>  <s_vsw_compound_code>  (876) 
73921

>  <s_vsw_variant>  (876) 
73921-1

>  <r_epik_Charging_Adjusted_Penalty>  (876) 
0.088195370499548398

>  <r_epik_Ionization_Penalty>  (876) 
0.044400000000000002

>  <r_epik_Ionization_Penalty_Charging>  (876) 
0.0441

>  <r_epik_Ionization_Penalty_Neutral>  (876) 
0.00029999999999999997

>  <r_epik_State_Penalty>  (876) 
0.0441

>  <r_i_docking_score>  (876) 
-4.0101991963524704

>  <r_i_glide_ecoul>  (876) 
-9.3670778274536097

>  <r_i_glide_eff_state_penalty>  (876) 
0.0441

>  <r_i_glide_einternal>  (876) 
4.8209943771362296

>  <r_i_glide_emodel>  (876) 
-57.625745797435897

>  <r_i_glide_energy>  (876) 
-44.9180040359497

>  <r_i_glide_erotb>  (876) 
0.63775304650197695

>  <r_i_glide_esite>  (876) 
-0.16414557079344699

>  <r_i_glide_evdw>  (876) 
-35.550926208496101

>  <r_i_glide_gscore>  (876) 
-4.0542991963524697

>  <r_i_glide_hbond>  (876) 
0

>  <r_i_glide_ligand_efficiency>  (876) 
-0.117947035186837

>  <r_i_glide_ligand_efficiency_ln>  (876) 
-0.88596548475169101

>  <r_i_glide_ligand_efficiency_sa>  (876) 
-0.38210260666782497

>  <r_i_glide_lipo>  (876) 
-0.92238732388179501

>  <r_i_glide_metal>  (876) 
-0

>  <r_i_glide_rewards>  (876) 
-0.422911363636363

>  <r_lp_Energy>  (876) 
30.034154000000001

>  <r_qp_ACxDN^.5/SA>  (876) 
0.014864499999999999

>  <r_qp_CIQPlogS>  (876) 
-6.7919999999999998

>  <r_qp_EA(eV)>  (876) 
1.135

>  <r_qp_FISA>  (876) 
139.05600000000001

>  <r_qp_FOSA>  (876) 
172.33000000000001

>  <r_qp_IP(eV)>  (876) 
7.9859999999999998

>  <r_qp_Jm>  (876) 
7.4315259434957399e-05

>  <r_qp_PISA>  (876) 
399.49400000000003

>  <r_qp_PSA>  (876) 
85.742999999999995

>  <r_qp_PercentHumanOralAbsorption>  (876) 
87.108999999999995

>  <r_qp_QPPCaco>  (876) 
118.61199999999999

>  <r_qp_QPPMDCK>  (876) 
102.97

>  <r_qp_QPlogBB>  (876) 
-0.82699999999999996

>  <r_qp_QPlogHERG>  (876) 
-7.3159999999999998

>  <r_qp_QPlogKhsa>  (876) 
0.55500000000000005

>  <r_qp_QPlogKp>  (876) 
-3.9700000000000002

>  <r_qp_QPlogPC16>  (876) 
16.091000000000001

>  <r_qp_QPlogPo/w>  (876) 
3.9350000000000001

>  <r_qp_QPlogPoct>  (876) 
25.152000000000001

>  <r_qp_QPlogPw>  (876) 
14.276

>  <r_qp_QPlogS>  (876) 
-5.8310000000000004

>  <r_qp_QPpolrz>  (876) 
49.612000000000002

>  <r_qp_SASA>  (876) 
761.12400000000002

>  <r_qp_SAamideO>  (876) 
0

>  <r_qp_SAfluorine>  (876) 
0

>  <r_qp_WPSA>  (876) 
50.244

>  <r_qp_accptHB>  (876) 
8

>  <r_qp_dip^2/V>  (876) 
0.069221099999999994

>  <r_qp_dipole>  (876) 
9.9369999999999994

>  <r_qp_donorHB>  (876) 
2

>  <r_qp_glob>  (876) 
0.80516529999999997

>  <r_qp_mol_MW>  (876) 
469.97199999999998

>  <r_qp_volume>  (876) 
1426.471

>  <r_sd_BIOSOLVEIT.INFINISEE\_FTREES\_SIMILARITY>  (876) 
0.92200000000000004

>  <r_sd_BIOSOLVEIT.LOGP>  (876) 
4.2687799999999996

>  <r_sd_BIOSOLVEIT.MOLECULAR\_WEIGHT>  (876) 
470.98200000000003

>  <r_sd_BIOSOLVEIT.TPSA>  (876) 
82.25

>  <i_epik_Tot_Q>  (876) 
1

>  <i_epik_Tot_abs_Q>  (876) 
1

>  <i_f3d_flags>  (876) 
0

>  <i_i_glide_confnum>  (876) 
1

>  <i_i_glide_lignum>  (876) 
820

>  <i_i_glide_posenum>  (876) 
9

>  <i_i_glide_rotatable_bonds>  (876) 
8

>  <i_lp_mmshare_version>  (876) 
65135

>  <i_m_ct_format>  (876) 
2

>  <i_m_source_file_index>  (876) 
2311

>  <i_qp_#NandO>  (876) 
6

>  <i_qp_#acid>  (876) 
0

>  <i_qp_#amide>  (876) 
0

>  <i_qp_#amidine>  (876) 
0

>  <i_qp_#amine>  (876) 
1

>  <i_qp_#in34>  (876) 
0

>  <i_qp_#in56>  (876) 
22

>  <i_qp_#metab>  (876) 
7

>  <i_qp_#nonHatm>  (876) 
34

>  <i_qp_#noncon>  (876) 
0

>  <i_qp_#ringatoms>  (876) 
22

>  <i_qp_#rotor>  (876) 
8

>  <i_qp_#rtvFG>  (876) 
0

>  <i_qp_#stars>  (876) 
0

>  <i_qp_CNS>  (876) 
0

>  <i_qp_HumanOralAbsorption>  (876) 
3

>  <i_qp_RuleOfFive>  (876) 
0

>  <i_qp_RuleOfThree>  (876) 
2

>  <i_sd_BIOSOLVEIT.INFINISEE\_RESULT\_RANK>  (876) 
12670

>  <i_sd_version>  (876) 
0

>  <b_lp_Chiralities_Consistent>  (876) 
1

>  <b_sd_chiral_flag>  (876) 
0

>  <canonical_id>  (876) 
ATP-HTVS-8D220C5D1AB9

>  <compound_code>  (876) 
73921

>  <title>  (876) 
rxn502b____EMOL44240795____EMOL7515103____EMOL2873214

>  <variant>  (876) 
73921-1

>  <source_file>  (876) 
运行/运行/ATP-VSW/ATP-VSW-DOCK_HTVS_1-001_lib/ATP-VSW-DOCK_HTVS_1-001_lib

>  <canonical_smiles>  (876) 
C[NH+](C)Cc1cccc(CNc2cnc(NC(=O)c3cc(C#N)ccc3Cl)c3ccccc23)c1

>  <scaffold>  (876) 
O=C(Nc1ncc(NCc2ccccc2)c2ccccc12)c1ccccc1

>  <molecular_formula>  (876) 
C27H25ClN5O+

$$$$
ATP-HTVS-8D32545BC421
     RDKit          3D

 55 57  0  0  0  0  0  0  0  0999 V2000
  195.9736  184.6826  159.7727 S   0  0  0  0  0  0  0  0  0  0  0  0
  196.2425  185.3065  158.1684 C   0  0  0  0  0  0  0  0  0  0  0  0
  196.7518  184.3414  157.3383 C   0  0  0  0  0  0  0  0  0  0  0  0
  196.9084  183.0719  157.9769 C   0  0  0  0  0  0  0  0  0  0  0  0
  197.3902  181.9213  157.3131 N   0  0  0  0  0  0  0  0  0  0  0  0
  197.3833  181.8097  155.8616 C   0  0  1  0  0  0  0  0  0  0  0  0
  198.3042  180.7358  155.3202 C   0  0  0  0  0  0  0  0  0  0  0  0
  199.5126  180.4340  155.9800 C   0  0  0  0  0  0  0  0  0  0  0  0
  200.3886  179.4525  155.4588 C   0  0  0  0  0  0  0  0  0  0  0  0
  200.0647  178.8367  154.2302 C   0  0  0  0  0  0  0  0  0  0  0  0
  198.8453  179.1170  153.5861 C   0  0  0  0  0  0  0  0  0  0  0  0
  197.9651  180.0743  154.1259 C   0  0  0  0  0  0  0  0  0  0  0  0
  201.6499  179.0517  156.2246 C   0  0  1  0  0  0  0  0  0  0  0  0
  201.5385  177.7541  156.9485 N   0  0  1  0  0  0  0  0  0  0  0  0
  200.5448  177.7846  158.0297 C   0  0  2  0  0  0  0  0  0  0  0  0
  201.3725  176.5583  156.0875 C   0  0  2  0  0  0  0  0  0  0  0  0
  196.5306  183.1054  159.2931 C   0  0  0  0  0  0  0  0  0  0  0  0
  195.8848  186.7148  157.8234 C   0  0  1  0  0  0  0  0  0  0  0  0
  197.0542  187.6604  158.0465 C   0  0  0  0  0  0  0  0  0  0  0  0
  198.0929  187.4824  157.4108 O   0  0  0  0  0  0  0  0  0  0  0  0
  196.8330  188.6507  158.9294 N   0  0  0  0  0  0  0  0  0  0  0  0
  197.6905  189.7054  159.3360 C   0  0  0  0  0  0  0  0  0  0  0  0
  198.9581  189.9626  158.7572 C   0  0  0  0  0  0  0  0  0  0  0  0
  199.7527  191.0276  159.2251 C   0  0  0  0  0  0  0  0  0  0  0  0
  201.0537  191.2708  158.6284 C   0  0  0  0  0  0  0  0  0  0  0  0
  202.1394  191.4791  158.1049 C   0  0  0  0  0  0  0  0  0  0  0  0
  199.2855  191.8491  160.2692 C   0  0  0  0  0  0  0  0  0  0  0  0
  198.0171  191.6100  160.8323 C   0  0  0  0  0  0  0  0  0  0  0  0
  197.2262  190.5388  160.3750 C   0  0  0  0  0  0  0  0  0  0  0  0
  196.9799  184.5191  156.2955 H   0  0  0  0  0  0  0  0  0  0  0  0
  197.2609  181.0361  157.7867 H   0  0  0  0  0  0  0  0  0  0  0  0
  196.3607  181.6174  155.5328 H   0  0  0  0  0  0  0  0  0  0  0  0
  197.7039  182.7339  155.3852 H   0  0  0  0  0  0  0  0  0  0  0  0
  199.7656  180.9461  156.9038 H   0  0  0  0  0  0  0  0  0  0  0  0
  200.7247  178.1105  153.7815 H   0  0  0  0  0  0  0  0  0  0  0  0
  198.5842  178.5838  152.6873 H   0  0  0  0  0  0  0  0  0  0  0  0
  197.0364  180.2939  153.6156 H   0  0  0  0  0  0  0  0  0  0  0  0
  202.4895  179.0198  155.5254 H   0  0  0  0  0  0  0  0  0  0  0  0
  201.9057  179.8358  156.9464 H   0  0  0  0  0  0  0  0  0  0  0  0
  199.5471  177.9834  157.6292 H   0  0  0  0  0  0  0  0  0  0  0  0
  200.7913  178.5655  158.7394 H   0  0  0  0  0  0  0  0  0  0  0  0
  200.4994  176.8434  158.5733 H   0  0  0  0  0  0  0  0  0  0  0  0
  200.3966  176.5201  155.5945 H   0  0  0  0  0  0  0  0  0  0  0  0
  201.4563  175.6365  156.6656 H   0  0  0  0  0  0  0  0  0  0  0  0
  202.1544  176.5432  155.3247 H   0  0  0  0  0  0  0  0  0  0  0  0
  196.5201  182.3006  160.0095 H   0  0  0  0  0  0  0  0  0  0  0  0
  195.6100  186.8047  156.7733 H   0  0  0  0  0  0  0  0  0  0  0  0
  195.0240  187.0305  158.4086 H   0  0  0  0  0  0  0  0  0  0  0  0
  195.9168  188.6542  159.3573 H   0  0  0  0  0  0  0  0  0  0  0  0
  199.3559  189.3643  157.9537 H   0  0  0  0  0  0  0  0  0  0  0  0
  203.0860  191.6709  157.6551 H   0  0  0  0  0  0  0  0  0  0  0  0
  199.9034  192.6548  160.6401 H   0  0  0  0  0  0  0  0  0  0  0  0
  197.6606  192.2333  161.6396 H   0  0  0  0  0  0  0  0  0  0  0  0
  196.2699  190.3533  160.8438 H   0  0  0  0  0  0  0  0  0  0  0  0
  202.4625  177.6603  157.3635 H   0  0  0  0  0  0  0  0  0  0  0  0
  1  2  1  0
  1 17  1  0
  2  3  2  0
  2 18  1  0
  3  4  1  0
  3 30  1  0
  4  5  1  0
  4 17  2  0
  5  6  1  0
  5 31  1  0
  6  7  1  0
  6 32  1  6
  6 33  1  0
  7  8  2  0
  7 12  1  0
  8  9  1  0
  8 34  1  0
  9 10  2  0
  9 13  1  0
 10 11  1  0
 10 35  1  0
 11 12  2  0
 11 36  1  0
 12 37  1  0
 13 14  1  0
 13 38  1  6
 13 39  1  0
 14 15  1  0
 14 16  1  0
 14 55  1  1
 15 40  1  6
 15 41  1  0
 15 42  1  0
 16 43  1  6
 16 44  1  0
 16 45  1  0
 17 46  1  0
 18 19  1  0
 18 47  1  6
 18 48  1  0
 19 20  2  0
 19 21  1  0
 21 22  1  0
 21 49  1  0
 22 23  1  0
 22 29  2  0
 23 24  2  0
 23 50  1  0
 24 25  1  0
 24 27  1  0
 25 26  3  0
 26 51  1  0
 27 28  2  0
 27 52  1  0
 28 29  1  0
 28 53  1  0
 29 54  1  0
M  CHG  1  14   1
M  END
>  <s_epik_cmdline>  (877) 
J2VwaWtfcHl0aG9uJywgJy1waCcsICc3LjAwMDAwMCcsICctcGh0JywgJzIuMDAwMDAwJywgJy1tcycsICcxNicsICctdG4nLCAnOCcsICctbWEnLCAnMjAwJywgJy1pbWFlJywgJzxpbmZpbGUubWFlPicsICctb21hZScsICc8b3V0ZmlsZS5tYWU+Jw==

>  <s_epik_input>  (877) 
W2NIXTFbY0hdW2NIXWMoQyNbQ0hdKVtjSF1jMVtOSF1DKD1PKVtDSDJdYzJzW2NIXWMoW2NIXTIpW05IXVtDSDJdYzNbY0hdYyhbY0hdW2NIXVtjSF0zKVtDSDJdTihbQ0gzXSlbQ0gzXQ==

>  <s_i_glide_gridfile>  (877) 
ATP-Grid

>  <s_lp_Force_Field>  (877) 
OPLS_2005

>  <s_lp_Variant>  (877) 
rxn512b____EMOL515310____EMOL15801711____EMOL2873214-1

>  <s_lp_label>  (877) 
3114_sdstereoexpander_1_neutralizer_1_epik_1_stereoizer_1

>  <s_m_source_file>  (877) 
ATP-VSW-LIGPREP-002-in.maegz

>  <s_sd_BIOSOLVEIT.INFINISEE\_QUERY\_NAME>  (877) 
Ref-Lig

>  <s_sd_BIOSOLVEIT.INFINISEE\_QUERY\_SMILES>  (877) 
S(c1nc2c(cc1C[NH2+]Cc3ccc(cc3)C[NH+](C)C)cccc2)Cc4ccccc4

>  <s_sd_BIOSOLVEIT.INFINISEE\_REACTION\_NAME>  (877) 
rxn512b

>  <s_sd_BIOSOLVEIT.INFINISEE\_REAGENT1\_NAME>  (877) 
EMOL515310

>  <s_sd_BIOSOLVEIT.INFINISEE\_REAGENT1\_SMILES>  (877) 
Nc1cc(C#C)ccc1

>  <s_sd_BIOSOLVEIT.INFINISEE\_REAGENT2\_NAME>  (877) 
EMOL15801711

>  <s_sd_BIOSOLVEIT.INFINISEE\_REAGENT2\_SMILES>  (877) 
BrC1=CSC(=C1)CC(=O)O

>  <s_sd_BIOSOLVEIT.INFINISEE\_REAGENT3\_NAME>  (877) 
EMOL2873214

>  <s_sd_BIOSOLVEIT.INFINISEE\_REAGENT3\_SMILES>  (877) 
N(Cc1cc(ccc1)CN)(C)C

>  <s_sd_BIOSOLVEIT.INFINISEE\_SPACE>  (877) 
eXplore_7tr_2022-12

>  <s_vsw_compound_code>  (877) 
99618

>  <s_vsw_variant>  (877) 
99618-1

>  <r_epik_Charging_Adjusted_Penalty>  (877) 
0.086140609825027206

>  <r_epik_Ionization_Penalty>  (877) 
0.043099999999999999

>  <r_epik_Ionization_Penalty_Charging>  (877) 
0.043099999999999999

>  <r_epik_Ionization_Penalty_Neutral>  (877) 
0

>  <r_epik_State_Penalty>  (877) 
0.043099999999999999

>  <r_i_docking_score>  (877) 
-3.51788261263812

>  <r_i_glide_ecoul>  (877) 
-8.6006278991699201

>  <r_i_glide_eff_state_penalty>  (877) 
0.043099999999999999

>  <r_i_glide_einternal>  (877) 
2.4448413848877002

>  <r_i_glide_emodel>  (877) 
-49.573103757179403

>  <r_i_glide_energy>  (877) 
-39.068155288696303

>  <r_i_glide_erotb>  (877) 
1.08027571968596

>  <r_i_glide_esite>  (877) 
-0.060042855852340399

>  <r_i_glide_evdw>  (877) 
-30.467527389526399

>  <r_i_glide_gscore>  (877) 
-3.5609826126381199

>  <r_i_glide_hbond>  (877) 
-0.0093283492386977904

>  <r_i_glide_ligand_efficiency>  (877) 
-0.121306296987521

>  <r_i_glide_ligand_efficiency_ln>  (877) 
-0.80550591248796

>  <r_i_glide_ligand_efficiency_sa>  (877) 
-0.37269137687808501

>  <r_i_glide_lipo>  (877) 
-0.66965254925594997

>  <r_i_glide_metal>  (877) 
-0

>  <r_i_glide_rewards>  (877) 
-1.08876402362528

>  <r_lp_Energy>  (877) 
13.765912

>  <r_lp_tautomer_probability>  (877) 
0.99999274205267796

>  <r_qp_ACxDN^.5/SA>  (877) 
0.0129538

>  <r_qp_CIQPlogS>  (877) 
-4.0279999999999996

>  <r_qp_EA(eV)>  (877) 
0.38800000000000001

>  <r_qp_FISA>  (877) 
62.122

>  <r_qp_FOSA>  (877) 
285.28800000000001

>  <r_qp_IP(eV)>  (877) 
8.3420000000000005

>  <r_qp_Jm>  (877) 
0.010869004100256201

>  <r_qp_PISA>  (877) 
280.84399999999999

>  <r_qp_PSA>  (877) 
53.890000000000001

>  <r_qp_PercentHumanOralAbsorption>  (877) 
89.638000000000005

>  <r_qp_QPPCaco>  (877) 
158.708

>  <r_qp_QPPMDCK>  (877) 
142.566

>  <r_qp_QPlogBB>  (877) 
0.36599999999999999

>  <r_qp_QPlogHERG>  (877) 
-6.5670000000000002

>  <r_qp_QPlogKhsa>  (877) 
0.66000000000000003

>  <r_qp_QPlogKp>  (877) 
-4.9359999999999999

>  <r_qp_QPlogPC16>  (877) 
13.622

>  <r_qp_QPlogPo/w>  (877) 
3.98

>  <r_qp_QPlogPoct>  (877) 
21.143000000000001

>  <r_qp_QPlogPw>  (877) 
10.776

>  <r_qp_QPlogS>  (877) 
-2.6339999999999999

>  <r_qp_QPpolrz>  (877) 
43.073

>  <r_qp_SASA>  (877) 
671.32899999999995

>  <r_qp_SAamideO>  (877) 
0

>  <r_qp_SAfluorine>  (877) 
0

>  <r_qp_WPSA>  (877) 
43.075000000000003

>  <r_qp_accptHB>  (877) 
5.5

>  <r_qp_dip^2/V>  (877) 
0.0223

>  <r_qp_dipole>  (877) 
5.4000000000000004

>  <r_qp_donorHB>  (877) 
2.5

>  <r_qp_glob>  (877) 
0.86134549999999999

>  <r_qp_mol_MW>  (877) 
403.541

>  <r_qp_volume>  (877) 
1307.4400000000001

>  <r_sd_BIOSOLVEIT.INFINISEE\_FTREES\_SIMILARITY>  (877) 
0.90100000000000002

>  <r_sd_BIOSOLVEIT.LOGP>  (877) 
3.1671999999999998

>  <r_sd_BIOSOLVEIT.MOLECULAR\_WEIGHT>  (877) 
404.55399999999997

>  <r_sd_BIOSOLVEIT.TPSA>  (877) 
45.57

>  <i_epik_Tot_Q>  (877) 
1

>  <i_epik_Tot_abs_Q>  (877) 
1

>  <i_f3d_flags>  (877) 
0

>  <i_i_glide_confnum>  (877) 
8

>  <i_i_glide_lignum>  (877) 
151

>  <i_i_glide_posenum>  (877) 
12

>  <i_i_glide_rotatable_bonds>  (877) 
10

>  <i_lp_mmshare_version>  (877) 
65135

>  <i_m_ct_format>  (877) 
2

>  <i_m_source_file_index>  (877) 
3114

>  <i_qp_#NandO>  (877) 
4

>  <i_qp_#acid>  (877) 
0

>  <i_qp_#amide>  (877) 
0

>  <i_qp_#amidine>  (877) 
0

>  <i_qp_#amine>  (877) 
2

>  <i_qp_#in34>  (877) 
0

>  <i_qp_#in56>  (877) 
17

>  <i_qp_#metab>  (877) 
7

>  <i_qp_#nonHatm>  (877) 
29

>  <i_qp_#noncon>  (877) 
0

>  <i_qp_#ringatoms>  (877) 
17

>  <i_qp_#rotor>  (877) 
9

>  <i_qp_#rtvFG>  (877) 
0

>  <i_qp_#stars>  (877) 
0

>  <i_qp_CNS>  (877) 
1

>  <i_qp_HumanOralAbsorption>  (877) 
3

>  <i_qp_RuleOfFive>  (877) 
0

>  <i_qp_RuleOfThree>  (877) 
1

>  <i_sd_BIOSOLVEIT.INFINISEE\_RESULT\_RANK>  (877) 
98738

>  <i_sd_version>  (877) 
0

>  <b_lp_Chiralities_Consistent>  (877) 
1

>  <b_sd_chiral_flag>  (877) 
0

>  <canonical_id>  (877) 
ATP-HTVS-8D32545BC421

>  <compound_code>  (877) 
99618

>  <title>  (877) 
rxn512b____EMOL515310____EMOL15801711____EMOL2873214

>  <variant>  (877) 
99618-1

>  <source_file>  (877) 
运行/运行/ATP-VSW/ATP-VSW-DOCK_HTVS_1-003_lib/ATP-VSW-DOCK_HTVS_1-003_lib.mae

>  <canonical_smiles>  (877) 
C#Cc1cccc(NC(=O)Cc2cc(NCc3cccc(C[NH+](C)C)c3)cs2)c1

>  <scaffold>  (877) 
O=C(Cc1cc(NCc2ccccc2)cs1)Nc1ccccc1

>  <molecular_formula>  (877) 
C24H26N3OS+

$$$$
ATP-HTVS-8D4A93BCC2C7
     RDKit          3D

 64 67  0  0  0  0  0  0  0  0999 V2000
  194.7269  183.8474  159.3315 Cl  0  0  0  0  0  0  0  0  0  0  0  0
  195.6610  185.2707  159.6473 C   0  0  0  0  0  0  0  0  0  0  0  0
  196.8994  185.5027  159.0006 C   0  0  0  0  0  0  0  0  0  0  0  0
  197.6227  186.6823  159.2994 C   0  0  0  0  0  0  0  0  0  0  0  0
  197.0903  187.6519  160.1562 C   0  0  0  0  0  0  0  0  0  0  0  0
  195.8574  187.4226  160.7934 C   0  0  0  0  0  0  0  0  0  0  0  0
  195.1471  186.2324  160.5433 C   0  0  0  0  0  0  0  0  0  0  0  0
  197.4607  184.5316  157.9611 C   0  0  1  0  0  0  0  0  0  0  0  0
  198.2388  185.1295  156.8530 N   0  0  0  0  0  0  0  0  0  0  0  0
  197.7952  186.2347  156.1635 C   0  0  0  0  0  0  0  0  0  0  0  0
  196.7712  186.8600  156.4396 O   0  0  0  0  0  0  0  0  0  0  0  0
  198.6083  186.6790  155.0042 C   0  0  0  0  0  0  0  0  0  0  0  0
  198.9526  186.0365  153.7634 C   0  0  0  0  0  0  0  0  0  0  0  0
  199.7387  186.7943  153.0347 N   0  0  0  0  0  0  0  0  0  0  0  0
  199.8665  187.9691  153.7220 N   0  0  0  0  0  0  0  0  0  0  0  0
  199.1651  187.9331  154.9396 C   0  0  0  0  0  0  0  0  0  0  0  0
  199.1997  189.1035  155.7487 C   0  0  0  0  0  0  0  0  0  0  0  0
  199.9030  190.2060  155.3023 C   0  0  0  0  0  0  0  0  0  0  0  0
  200.5869  190.1753  154.0609 C   0  0  0  0  0  0  0  0  0  0  0  0
  200.5637  189.0457  153.2842 C   0  0  0  0  0  0  0  0  0  0  0  0
  198.5378  184.6547  153.3151 C   0  0  0  0  0  0  0  0  0  0  0  0
  199.0018  184.0856  152.3382 O   0  0  0  0  0  0  0  0  0  0  0  0
  197.5506  184.1039  154.0499 N   0  0  0  0  0  0  0  0  0  0  0  0
  196.8885  182.8259  153.8487 C   0  0  1  0  0  0  0  0  0  0  0  0
  197.6989  181.6100  154.2995 C   0  0  0  0  0  0  0  0  0  0  0  0
  199.0955  181.5080  154.0543 C   0  0  0  0  0  0  0  0  0  0  0  0
  199.7581  180.3163  154.4190 C   0  0  0  0  0  0  0  0  0  0  0  0
  199.0663  179.2446  155.0395 C   0  0  0  0  0  0  0  0  0  0  0  0
  197.6876  179.3595  155.3112 C   0  0  0  0  0  0  0  0  0  0  0  0
  197.0199  180.5469  154.9404 C   0  0  0  0  0  0  0  0  0  0  0  0
  199.8233  177.9870  155.4442 C   0  0  1  0  0  0  0  0  0  0  0  0
  200.1079  177.9436  156.9001 N   0  0  1  0  0  0  0  0  0  0  0  0
  200.8759  176.7322  157.2520 C   0  0  2  0  0  0  0  0  0  0  0  0
  200.7702  179.1632  157.4272 C   0  0  2  0  0  0  0  0  0  0  0  0
  199.4775  184.3884  156.5158 C   0  0  2  0  0  0  0  0  0  0  0  0
  198.5761  186.8758  158.8316 H   0  0  0  0  0  0  0  0  0  0  0  0
  197.6407  188.5647  160.3369 H   0  0  0  0  0  0  0  0  0  0  0  0
  195.4670  188.1619  161.4757 H   0  0  0  0  0  0  0  0  0  0  0  0
  194.1936  186.0645  161.0217 H   0  0  0  0  0  0  0  0  0  0  0  0
  198.0862  183.8526  158.5375 H   0  0  0  0  0  0  0  0  0  0  0  0
  196.6748  183.9108  157.5289 H   0  0  0  0  0  0  0  0  0  0  0  0
  198.6589  189.1234  156.6875 H   0  0  0  0  0  0  0  0  0  0  0  0
  199.9242  191.1022  155.9098 H   0  0  0  0  0  0  0  0  0  0  0  0
  201.1371  191.0457  153.7161 H   0  0  0  0  0  0  0  0  0  0  0  0
  201.0637  188.9445  152.3227 H   0  0  0  0  0  0  0  0  0  0  0  0
  197.1876  184.6804  154.7876 H   0  0  0  0  0  0  0  0  0  0  0  0
  195.9830  182.8593  154.4451 H   0  0  0  0  0  0  0  0  0  0  0  0
  196.5543  182.7047  152.8112 H   0  0  0  0  0  0  0  0  0  0  0  0
  199.6456  182.3064  153.5696 H   0  0  0  0  0  0  0  0  0  0  0  0
  200.8157  180.2221  154.2233 H   0  0  0  0  0  0  0  0  0  0  0  0
  197.1455  178.5594  155.8041 H   0  0  0  0  0  0  0  0  0  0  0  0
  195.9585  180.6145  155.1570 H   0  0  0  0  0  0  0  0  0  0  0  0
  199.2381  177.1123  155.1474 H   0  0  0  0  0  0  0  0  0  0  0  0
  200.7614  177.9507  154.8832 H   0  0  0  0  0  0  0  0  0  0  0  0
  201.8622  176.7380  156.7828 H   0  0  0  0  0  0  0  0  0  0  0  0
  200.3511  175.8374  156.9265 H   0  0  0  0  0  0  0  0  0  0  0  0
  201.0092  176.6699  158.3299 H   0  0  0  0  0  0  0  0  0  0  0  0
  201.7252  179.3480  156.9326 H   0  0  0  0  0  0  0  0  0  0  0  0
  200.9682  179.0442  158.4916 H   0  0  0  0  0  0  0  0  0  0  0  0
  200.1466  180.0509  157.3090 H   0  0  0  0  0  0  0  0  0  0  0  0
  200.3067  185.0886  156.3548 H   0  0  0  0  0  0  0  0  0  0  0  0
  199.3338  183.7867  155.6201 H   0  0  0  0  0  0  0  0  0  0  0  0
  199.8185  183.7428  157.3466 H   0  0  0  0  0  0  0  0  0  0  0  0
  199.2016  177.8781  157.3596 H   0  0  0  0  0  0  0  0  0  0  0  0
  1  2  1  0
  2  3  1  0
  2  7  2  0
  3  4  2  0
  3  8  1  0
  4  5  1  0
  4 36  1  0
  5  6  2  0
  5 37  1  0
  6  7  1  0
  6 38  1  0
  7 39  1  0
  8  9  1  0
  8 40  1  1
  8 41  1  0
  9 10  1  0
  9 35  1  0
 10 11  2  0
 10 12  1  0
 12 13  1  0
 12 16  2  0
 13 14  2  0
 13 21  1  0
 14 15  1  0
 15 16  1  0
 15 20  1  0
 16 17  1  0
 17 18  2  0
 17 42  1  0
 18 19  1  0
 18 43  1  0
 19 20  2  0
 19 44  1  0
 20 45  1  0
 21 22  2  0
 21 23  1  0
 23 24  1  0
 23 46  1  0
 24 25  1  0
 24 47  1  1
 24 48  1  0
 25 26  1  0
 25 30  2  0
 26 27  2  0
 26 49  1  0
 27 28  1  0
 27 50  1  0
 28 29  2  0
 28 31  1  0
 29 30  1  0
 29 51  1  0
 30 52  1  0
 31 32  1  0
 31 53  1  6
 31 54  1  0
 32 33  1  0
 32 34  1  0
 32 64  1  1
 33 55  1  6
 33 56  1  0
 33 57  1  0
 34 58  1  6
 34 59  1  0
 34 60  1  0
 35 61  1  6
 35 62  1  0
 35 63  1  0
M  CHG  1  32   1
M  END
>  <s_epik_cmdline>  (878) 
J2VwaWtfcHl0aG9uJywgJy1waCcsICc3LjAwMDAwMCcsICctcGh0JywgJzIuMDAwMDAwJywgJy1tcycsICcxNicsICctdG4nLCAnOCcsICctbWEnLCAnMjAwJywgJy1pbWFlJywgJzxpbmZpbGUubWFlPicsICctb21hZScsICc8b3V0ZmlsZS5tYWU+Jw==

>  <s_epik_input>  (878) 
W2NIXTFbY0hdW2NIXVtjSF1jKGMxQ2wpW0NIMl1OKFtDSDNdKUMoPU8pYyhjKG4yMylbY0hdW2NIXVtjSF1bY0hdMyljKG4yKUMoPU8pW05IXVtDSDJdYzRbY0hdW2NIXWMoW2NIXVtjSF00KVtDSDJdTihbQ0gzXSlbQ0gzXQ==

>  <s_i_glide_gridfile>  (878) 
ATP-Grid

>  <s_lp_Force_Field>  (878) 
OPLS_2005

>  <s_lp_Variant>  (878) 
WXCD003____AN2206____LN05333710____AK00809-1

>  <s_lp_label>  (878) 
632_sdstereoexpander_1_neutralizer_1_epik_1_stereoizer_1

>  <s_m_source_file>  (878) 
ATP-VSW-LIGPREP-001-in.maegz

>  <s_sd_BIOSOLVEIT.INFINISEE\_QUERY\_NAME>  (878) 
Ref-Lig

>  <s_sd_BIOSOLVEIT.INFINISEE\_QUERY\_SMILES>  (878) 
S(c1nc2c(cc1C[NH2+]Cc3ccc(cc3)C[NH+](C)C)cccc2)Cc4ccccc4

>  <s_sd_BIOSOLVEIT.INFINISEE\_REACTION\_NAME>  (878) 
WXCD003

>  <s_sd_BIOSOLVEIT.INFINISEE\_REAGENT1\_NAME>  (878) 
AN2206

>  <s_sd_BIOSOLVEIT.INFINISEE\_REAGENT1\_SMILES>  (878) 
Clc1c(cccc1)CNC

>  <s_sd_BIOSOLVEIT.INFINISEE\_REAGENT2\_NAME>  (878) 
LN05333710

>  <s_sd_BIOSOLVEIT.INFINISEE\_REAGENT2\_SMILES>  (878) 
O=C(OC)C=1C(=NN2C1C=CC=C2)C(=O)O

>  <s_sd_BIOSOLVEIT.INFINISEE\_REAGENT3\_NAME>  (878) 
AK00809

>  <s_sd_BIOSOLVEIT.INFINISEE\_REAGENT3\_SMILES>  (878) 
N(Cc1ccc(cc1)CN)(C)C

>  <s_sd_BIOSOLVEIT.INFINISEE\_SPACE>  (878) 
GalaXi_12bn_2023-03

>  <s_vsw_compound_code>  (878) 
20193

>  <s_vsw_variant>  (878) 
20193-1

>  <r_epik_Charging_Adjusted_Penalty>  (878) 
0.0903365638524595

>  <r_epik_Ionization_Penalty>  (878) 
0.045199999999999997

>  <r_epik_Ionization_Penalty_Charging>  (878) 
0.045199999999999997

>  <r_epik_Ionization_Penalty_Neutral>  (878) 
0

>  <r_epik_State_Penalty>  (878) 
0.045199999999999997

>  <r_i_docking_score>  (878) 
-4.4938529235343996

>  <r_i_glide_ecoul>  (878) 
-7.9210896492004403

>  <r_i_glide_eff_state_penalty>  (878) 
0.045199999999999997

>  <r_i_glide_einternal>  (878) 
2.3251008987426798

>  <r_i_glide_emodel>  (878) 
-62.560530537948999

>  <r_i_glide_energy>  (878) 
-45.895588397979701

>  <r_i_glide_erotb>  (878) 
0.67543002400819396

>  <r_i_glide_esite>  (878) 
-0.096245115399367295

>  <r_i_glide_evdw>  (878) 
-37.974498748779297

>  <r_i_glide_gscore>  (878) 
-4.5390529235343999

>  <r_i_glide_hbond>  (878) 
-0.20000000000000001

>  <r_i_glide_ligand_efficiency>  (878) 
-0.128395797815268

>  <r_i_glide_ligand_efficiency_ln>  (878) 
-0.98650045240782103

>  <r_i_glide_ligand_efficiency_sa>  (878) 
-0.41999116810557202

>  <r_i_glide_lipo>  (878) 
-1.63287239129339

>  <r_i_glide_metal>  (878) 
-0

>  <r_i_glide_rewards>  (878) 
-0.19847705603080301

>  <r_lp_Energy>  (878) 
29.78912

>  <r_qp_ACxDN^.5/SA>  (878) 
0.0109929

>  <r_qp_CIQPlogS>  (878) 
-5.9669999999999996

>  <r_qp_EA(eV)>  (878) 
0.876

>  <r_qp_FISA>  (878) 
72.567999999999998

>  <r_qp_FOSA>  (878) 
289.88799999999998

>  <r_qp_IP(eV)>  (878) 
8.9120000000000008

>  <r_qp_Jm>  (878) 
0.0121504169063524

>  <r_qp_PISA>  (878) 
371.87099999999998

>  <r_qp_PSA>  (878) 
80.340999999999994

>  <r_qp_PercentHumanOralAbsorption>  (878) 
100

>  <r_qp_QPPCaco>  (878) 
506.56700000000001

>  <r_qp_QPPMDCK>  (878) 
428.61599999999999

>  <r_qp_QPlogBB>  (878) 
-0.157

>  <r_qp_QPlogHERG>  (878) 
-7.0599999999999996

>  <r_qp_QPlogKhsa>  (878) 
0.59799999999999998

>  <r_qp_QPlogKp>  (878) 
-2.8410000000000002

>  <r_qp_QPlogPC16>  (878) 
15.582000000000001

>  <r_qp_QPlogPo/w>  (878) 
4.5640000000000001

>  <r_qp_QPlogPoct>  (878) 
23.952000000000002

>  <r_qp_QPlogPw>  (878) 
12.689

>  <r_qp_QPlogS>  (878) 
-4.7640000000000002

>  <r_qp_QPpolrz>  (878) 
51.554000000000002

>  <r_qp_SASA>  (878) 
773.226

>  <r_qp_SAamideO>  (878) 
0

>  <r_qp_SAfluorine>  (878) 
0

>  <r_qp_WPSA>  (878) 
38.899999999999999

>  <r_qp_accptHB>  (878) 
8.5

>  <r_qp_dip^2/V>  (878) 
0.045617100000000001

>  <r_qp_dipole>  (878) 
8.2210000000000001

>  <r_qp_donorHB>  (878) 
1

>  <r_qp_glob>  (878) 
0.81284820000000002

>  <r_qp_mol_MW>  (878) 
490.00299999999999

>  <r_qp_volume>  (878) 
1481.5840000000001

>  <r_sd_BIOSOLVEIT.INFINISEE\_FTREES\_SIMILARITY>  (878) 
0.90900000000000003

>  <r_sd_BIOSOLVEIT.LOGP>  (878) 
2.8344

>  <r_sd_BIOSOLVEIT.MOLECULAR\_WEIGHT>  (878) 
491.012

>  <r_sd_BIOSOLVEIT.TPSA>  (878) 
71.670000000000002

>  <i_epik_Tot_Q>  (878) 
1

>  <i_epik_Tot_abs_Q>  (878) 
1

>  <i_f3d_flags>  (878) 
0

>  <i_i_glide_confnum>  (878) 
6

>  <i_i_glide_lignum>  (878) 
76

>  <i_i_glide_posenum>  (878) 
8

>  <i_i_glide_rotatable_bonds>  (878) 
10

>  <i_lp_mmshare_version>  (878) 
65135

>  <i_m_ct_format>  (878) 
2

>  <i_m_source_file_index>  (878) 
632

>  <i_qp_#NandO>  (878) 
7

>  <i_qp_#acid>  (878) 
0

>  <i_qp_#amide>  (878) 
0

>  <i_qp_#amidine>  (878) 
0

>  <i_qp_#amine>  (878) 
1

>  <i_qp_#in34>  (878) 
0

>  <i_qp_#in56>  (878) 
21

>  <i_qp_#metab>  (878) 
4

>  <i_qp_#nonHatm>  (878) 
35

>  <i_qp_#noncon>  (878) 
0

>  <i_qp_#ringatoms>  (878) 
21

>  <i_qp_#rotor>  (878) 
8

>  <i_qp_#rtvFG>  (878) 
0

>  <i_qp_#stars>  (878) 
0

>  <i_qp_CNS>  (878) 
1

>  <i_qp_HumanOralAbsorption>  (878) 
3

>  <i_qp_RuleOfFive>  (878) 
0

>  <i_qp_RuleOfThree>  (878) 
0

>  <i_sd_BIOSOLVEIT.INFINISEE\_RESULT\_RANK>  (878) 
48471

>  <i_sd_version>  (878) 
0

>  <b_lp_Chiralities_Consistent>  (878) 
1

>  <b_sd_chiral_flag>  (878) 
0

>  <canonical_id>  (878) 
ATP-HTVS-8D4A93BCC2C7

>  <compound_code>  (878) 
20193

>  <title>  (878) 
WXCD003____AN2206____LN05333710____AK00809

>  <variant>  (878) 
20193-1

>  <source_file>  (878) 
运行/运行/ATP-VSW/ATP-VSW-DOCK_HTVS_1-001_lib/ATP-VSW-DOCK_HTVS_1-001_lib

>  <canonical_smiles>  (878) 
CN(Cc1ccccc1Cl)C(=O)c1c(C(=O)NCc2ccc(C[NH+](C)C)cc2)nn2ccccc12

>  <scaffold>  (878) 
O=C(NCc1ccccc1)c1nn2ccccc2c1C(=O)NCc1ccccc1

>  <molecular_formula>  (878) 
C27H29ClN5O2+

$$$$
ATP-HTVS-8D6261309289
     RDKit          3D

 59 62  0  0  0  0  0  0  0  0999 V2000
  196.6470  188.2373  160.9298 F   0  0  0  0  0  0  0  0  0  0  0  0
  196.1393  187.0795  160.4506 C   0  0  0  0  0  0  0  0  0  0  0  0
  196.8585  186.3217  159.5031 C   0  0  0  0  0  0  0  0  0  0  0  0
  196.3345  185.1142  158.9777 C   0  0  0  0  0  0  0  0  0  0  0  0
  197.0329  184.3392  158.0038 C   0  0  0  0  0  0  0  0  0  0  0  0
  198.2657  184.7965  157.4593 N   0  0  0  0  0  0  0  0  0  0  0  0
  199.5019  184.7286  158.1614 C   0  0  0  0  0  0  0  0  0  0  0  0
  200.6651  185.4395  157.7601 C   0  0  0  0  0  0  0  0  0  0  0  0
  201.8701  185.3349  158.4846 C   0  0  0  0  0  0  0  0  0  0  0  0
  201.9443  184.5298  159.6336 C   0  0  0  0  0  0  0  0  0  0  0  0
  200.8016  183.8266  160.0582 C   0  0  0  0  0  0  0  0  0  0  0  0
  199.5978  183.9231  159.3288 C   0  0  0  0  0  0  0  0  0  0  0  0
  198.1590  185.6227  156.2288 C   0  0  2  0  0  0  0  0  0  0  0  0
  197.3671  186.8436  156.4384 C   0  0  0  0  0  0  0  0  0  0  0  0
  196.7441  187.8044  156.6020 N   0  0  0  0  0  0  0  0  0  0  0  0
  197.6859  184.8581  154.9805 C   0  0  2  0  0  0  0  0  0  0  0  0
  196.4503  183.0975  157.6052 C   0  0  0  0  0  0  0  0  0  0  0  0
  195.1951  182.7422  158.1348 C   0  0  0  0  0  0  0  0  0  0  0  0
  194.5133  183.5037  159.0145 N   0  0  0  0  0  0  0  0  0  0  0  0
  195.0637  184.6556  159.4404 C   0  0  0  0  0  0  0  0  0  0  0  0
  194.3582  185.4340  160.3836 C   0  0  0  0  0  0  0  0  0  0  0  0
  194.8845  186.6336  160.8901 C   0  0  0  0  0  0  0  0  0  0  0  0
  197.1353  182.1344  156.6825 C   0  0  0  0  0  0  0  0  0  0  0  0
  198.2930  181.7777  156.9052 O   0  0  0  0  0  0  0  0  0  0  0  0
  196.4099  181.7842  155.5992 N   0  0  0  0  0  0  0  0  0  0  0  0
  196.8634  181.0447  154.4695 C   0  0  0  0  0  0  0  0  0  0  0  0
  197.7737  179.9713  154.5691 C   0  0  0  0  0  0  0  0  0  0  0  0
  198.1450  179.2409  153.4216 C   0  0  0  0  0  0  0  0  0  0  0  0
  197.6017  179.5606  152.1574 C   0  0  0  0  0  0  0  0  0  0  0  0
  197.9722  178.7681  151.0571 N   0  0  0  0  0  0  0  0  0  0  0  0
  197.4463  179.0157  149.7211 C   0  0  1  0  0  0  0  0  0  0  0  0
  197.5671  177.7760  148.8286 C   0  0  1  0  0  0  0  0  0  0  0  0
  196.8419  177.9931  147.6369 O   0  0  0  0  0  0  0  0  0  0  0  0
  196.7101  180.6553  152.0580 C   0  0  0  0  0  0  0  0  0  0  0  0
  196.3506  181.3956  153.2034 C   0  0  0  0  0  0  0  0  0  0  0  0
  197.8189  186.6978  159.1893 H   0  0  0  0  0  0  0  0  0  0  0  0
  200.6936  186.0880  156.8992 H   0  0  0  0  0  0  0  0  0  0  0  0
  202.7392  185.8800  158.1477 H   0  0  0  0  0  0  0  0  0  0  0  0
  202.8732  184.4550  160.1837 H   0  0  0  0  0  0  0  0  0  0  0  0
  200.8537  183.2092  160.9458 H   0  0  0  0  0  0  0  0  0  0  0  0
  198.7479  183.3586  159.6869 H   0  0  0  0  0  0  0  0  0  0  0  0
  199.1256  186.0114  155.9178 H   0  0  0  0  0  0  0  0  0  0  0  0
  197.7005  185.5318  154.1239 H   0  0  0  0  0  0  0  0  0  0  0  0
  196.6673  184.4848  155.0766 H   0  0  0  0  0  0  0  0  0  0  0  0
  198.3593  184.0281  154.7516 H   0  0  0  0  0  0  0  0  0  0  0  0
  194.7266  181.8062  157.8577 H   0  0  0  0  0  0  0  0  0  0  0  0
  193.3855  185.1020  160.7082 H   0  0  0  0  0  0  0  0  0  0  0  0
  194.3256  187.2218  161.6066 H   0  0  0  0  0  0  0  0  0  0  0  0
  195.4979  182.2207  155.5041 H   0  0  0  0  0  0  0  0  0  0  0  0
  198.1647  179.6625  155.5309 H   0  0  0  0  0  0  0  0  0  0  0  0
  198.8080  178.3988  153.5282 H   0  0  0  0  0  0  0  0  0  0  0  0
  198.7465  178.1262  151.1532 H   0  0  0  0  0  0  0  0  0  0  0  0
  196.3946  179.2931  149.7759 H   0  0  0  0  0  0  0  0  0  0  0  0
  197.9842  179.8534  149.2710 H   0  0  0  0  0  0  0  0  0  0  0  0
  198.6125  177.5541  148.6039 H   0  0  0  0  0  0  0  0  0  0  0  0
  197.1593  176.9005  149.3298 H   0  0  0  0  0  0  0  0  0  0  0  0
  196.7808  177.1732  147.1654 H   0  0  0  0  0  0  0  0  0  0  0  0
  196.2880  180.9527  151.1102 H   0  0  0  0  0  0  0  0  0  0  0  0
  195.6776  182.2314  153.0959 H   0  0  0  0  0  0  0  0  0  0  0  0
  1  2  1  0
  2  3  1  0
  2 22  2  0
  3  4  2  0
  3 36  1  0
  4  5  1  0
  4 20  1  0
  5  6  1  0
  5 17  2  0
  6  7  1  0
  6 13  1  0
  7  8  2  0
  7 12  1  0
  8  9  1  0
  8 37  1  0
  9 10  2  0
  9 38  1  0
 10 11  1  0
 10 39  1  0
 11 12  2  0
 11 40  1  0
 12 41  1  0
 13 14  1  0
 13 16  1  0
 13 42  1  6
 14 15  3  0
 16 43  1  6
 16 44  1  0
 16 45  1  0
 17 18  1  0
 17 23  1  0
 18 19  2  0
 18 46  1  0
 19 20  1  0
 20 21  2  0
 21 22  1  0
 21 47  1  0
 22 48  1  0
 23 24  2  0
 23 25  1  0
 25 26  1  0
 25 49  1  0
 26 27  1  0
 26 35  2  0
 27 28  2  0
 27 50  1  0
 28 29  1  0
 28 51  1  0
 29 30  1  0
 29 34  2  0
 30 31  1  0
 30 52  1  0
 31 32  1  0
 31 53  1  1
 31 54  1  0
 32 33  1  0
 32 55  1  6
 32 56  1  0
 33 57  1  0
 34 35  1  0
 34 58  1  0
 35 59  1  0
M  END
>  <s_epik_cmdline>  (879) 
J2VwaWtfcHl0aG9uJywgJy1waCcsICc3LjAwMDAwMCcsICctcGh0JywgJzIuMDAwMDAwJywgJy1tcycsICcxNicsICctdG4nLCAnOCcsICctbWEnLCAnMjAwJywgJy1pbWFlJywgJzxpbmZpbGUubWFlPicsICctb21hZScsICc8b3V0ZmlsZS5tYWU+Jw==

>  <s_epik_input>  (879) 
W2NIXTFbY0hdW2NIXVtjSF1bY0hdYzFOKFtDQEhdKEMjTilbQ0gzXSljMmMoW2NIXW5jKGMyMylbY0hdW2NIXWMoRilbY0hdMylDKD1PKVtOSF1jNFtjSF1bY0hdYyhbY0hdW2NIXTQpW05IXVtDSDJdW0NIMl1bT0hd

>  <s_i_glide_gridfile>  (879) 
ATP-Grid

>  <s_lp_Force_Field>  (879) 
OPLS_2005

>  <s_lp_Variant>  (879) 
rxn512c____EMOL36790511____EMOL36725275____EMOL8314610-2

>  <s_lp_label>  (879) 
2423_sdstereoexpander_2_neutralizer_1_epik_1_stereoizer_1

>  <s_m_source_file>  (879) 
ATP-VSW-LIGPREP-002-in.maegz

>  <s_sd_BIOSOLVEIT.INFINISEE\_QUERY\_NAME>  (879) 
Ref-Lig

>  <s_sd_BIOSOLVEIT.INFINISEE\_QUERY\_SMILES>  (879) 
S(c1nc2c(cc1C[NH2+]Cc3ccc(cc3)C[NH+](C)C)cccc2)Cc4ccccc4

>  <s_sd_BIOSOLVEIT.INFINISEE\_REACTION\_NAME>  (879) 
rxn512c

>  <s_sd_BIOSOLVEIT.INFINISEE\_REAGENT1\_NAME>  (879) 
EMOL36790511

>  <s_sd_BIOSOLVEIT.INFINISEE\_REAGENT1\_SMILES>  (879) 
N#CC(Nc1ccccc1)C

>  <s_sd_BIOSOLVEIT.INFINISEE\_REAGENT2\_NAME>  (879) 
EMOL36725275

>  <s_sd_BIOSOLVEIT.INFINISEE\_REAGENT2\_SMILES>  (879) 
Clc1c2c(ncc1C(=O)O)ccc(F)c2

>  <s_sd_BIOSOLVEIT.INFINISEE\_REAGENT3\_NAME>  (879) 
EMOL8314610

>  <s_sd_BIOSOLVEIT.INFINISEE\_REAGENT3\_SMILES>  (879) 
OCCNc1ccc(N)cc1

>  <s_sd_BIOSOLVEIT.INFINISEE\_SPACE>  (879) 
eXplore_7tr_2022-12

>  <s_vsw_compound_code>  (879) 
77506

>  <s_vsw_variant>  (879) 
77506-2

>  <r_epik_Charging_Adjusted_Penalty>  (879) 
0

>  <r_epik_Ionization_Penalty>  (879) 
0.0030999999999999999

>  <r_epik_Ionization_Penalty_Charging>  (879) 
0

>  <r_epik_Ionization_Penalty_Neutral>  (879) 
0.0030999999999999999

>  <r_epik_State_Penalty>  (879) 
-0

>  <r_i_docking_score>  (879) 
-5.2495461674426904

>  <r_i_glide_ecoul>  (879) 
-6.1705956459045401

>  <r_i_glide_eff_state_penalty>  (879) 
-0

>  <r_i_glide_einternal>  (879) 
3.6868028640747101

>  <r_i_glide_emodel>  (879) 
-61.989252502361701

>  <r_i_glide_energy>  (879) 
-47.451544284820599

>  <r_i_glide_erotb>  (879) 
0.73300948673447297

>  <r_i_glide_esite>  (879) 
-0.123784971195163

>  <r_i_glide_evdw>  (879) 
-41.280948638916001

>  <r_i_glide_gscore>  (879) 
-5.2495461674426904

>  <r_i_glide_hbond>  (879) 
-0.57119712477790197

>  <r_i_glide_ligand_efficiency>  (879) 
-0.14998703335550501

>  <r_i_glide_ligand_efficiency_ln>  (879) 
-1.1523918911536

>  <r_i_glide_ligand_efficiency_sa>  (879) 
-0.49061753119288698

>  <r_i_glide_lipo>  (879) 
-1.9108660791438801

>  <r_i_glide_metal>  (879) 
-0

>  <r_i_glide_rewards>  (879) 
-0.38707070022873402

>  <r_lp_Energy>  (879) 
42.389459000000002

>  <r_lp_tautomer_probability>  (879) 
1

>  <r_qp_ACxDN^.5/SA>  (879) 
0.018134600000000001

>  <r_qp_CIQPlogS>  (879) 
-7.6829999999999998

>  <r_qp_EA(eV)>  (879) 
1.609

>  <r_qp_FISA>  (879) 
159.124

>  <r_qp_FOSA>  (879) 
156.667

>  <r_qp_IP(eV)>  (879) 
8.1609999999999996

>  <r_qp_Jm>  (879) 
0.00054947633685213605

>  <r_qp_PISA>  (879) 
424.12400000000002

>  <r_qp_PSA>  (879) 
102.524

>  <r_qp_PercentHumanOralAbsorption>  (879) 
95.504000000000005

>  <r_qp_QPPCaco>  (879) 
306.85300000000001

>  <r_qp_QPPMDCK>  (879) 
238.148

>  <r_qp_QPlogBB>  (879) 
-1.657

>  <r_qp_QPlogHERG>  (879) 
-7.0439999999999996

>  <r_qp_QPlogKhsa>  (879) 
0.38800000000000001

>  <r_qp_QPlogKp>  (879) 
-1.998

>  <r_qp_QPlogPC16>  (879) 
16.141999999999999

>  <r_qp_QPlogPo/w>  (879) 
4.1070000000000002

>  <r_qp_QPlogPoct>  (879) 
25.838000000000001

>  <r_qp_QPlogPw>  (879) 
15.851000000000001

>  <r_qp_QPlogS>  (879) 
-6.9340000000000002

>  <r_qp_QPpolrz>  (879) 
48.770000000000003

>  <r_qp_SASA>  (879) 
783.19100000000003

>  <r_qp_SAamideO>  (879) 
0

>  <r_qp_SAfluorine>  (879) 
43.276000000000003

>  <r_qp_WPSA>  (879) 
43.276000000000003

>  <r_qp_accptHB>  (879) 
8.1999999999999993

>  <r_qp_dip^2/V>  (879) 
0.031200200000000001

>  <r_qp_dipole>  (879) 
6.6829999999999998

>  <r_qp_donorHB>  (879) 
3

>  <r_qp_glob>  (879) 
0.78437140000000005

>  <r_qp_mol_MW>  (879) 
469.517

>  <r_qp_volume>  (879) 
1431.6489999999999

>  <r_sd_BIOSOLVEIT.INFINISEE\_FTREES\_SIMILARITY>  (879) 
0.91700000000000004

>  <r_sd_BIOSOLVEIT.LOGP>  (879) 
5.0805800000000003

>  <r_sd_BIOSOLVEIT.MOLECULAR\_WEIGHT>  (879) 
469.51799999999997

>  <r_sd_BIOSOLVEIT.TPSA>  (879) 
101.28

>  <i_epik_Tot_Q>  (879) 
0

>  <i_epik_Tot_abs_Q>  (879) 
0

>  <i_f3d_flags>  (879) 
0

>  <i_i_glide_confnum>  (879) 
2

>  <i_i_glide_lignum>  (879) 
1034

>  <i_i_glide_posenum>  (879) 
14

>  <i_i_glide_rotatable_bonds>  (879) 
10

>  <i_lp_mmshare_version>  (879) 
65135

>  <i_m_ct_format>  (879) 
2

>  <i_m_source_file_index>  (879) 
2423

>  <i_qp_#NandO>  (879) 
7

>  <i_qp_#acid>  (879) 
0

>  <i_qp_#amide>  (879) 
0

>  <i_qp_#amidine>  (879) 
0

>  <i_qp_#amine>  (879) 
0

>  <i_qp_#in34>  (879) 
0

>  <i_qp_#in56>  (879) 
22

>  <i_qp_#metab>  (879) 
7

>  <i_qp_#nonHatm>  (879) 
35

>  <i_qp_#noncon>  (879) 
0

>  <i_qp_#ringatoms>  (879) 
22

>  <i_qp_#rotor>  (879) 
10

>  <i_qp_#rtvFG>  (879) 
0

>  <i_qp_#stars>  (879) 
1

>  <i_qp_CNS>  (879) 
-2

>  <i_qp_HumanOralAbsorption>  (879) 
1

>  <i_qp_RuleOfFive>  (879) 
0

>  <i_qp_RuleOfThree>  (879) 
2

>  <i_sd_BIOSOLVEIT.INFINISEE\_RESULT\_RANK>  (879) 
22762

>  <i_sd_version>  (879) 
0

>  <b_lp_Chiralities_Consistent>  (879) 
1

>  <b_sd_chiral_flag>  (879) 
0

>  <canonical_id>  (879) 
ATP-HTVS-8D6261309289

>  <compound_code>  (879) 
77506

>  <title>  (879) 
rxn512c____EMOL36790511____EMOL36725275____EMOL8314610

>  <variant>  (879) 
77506-2

>  <source_file>  (879) 
运行/运行/ATP-VSW/ATP-VSW-DOCK_HTVS_1-002_lib.maegz

>  <canonical_smiles>  (879) 
C[C@@H](C#N)N(c1ccccc1)c1c(C(=O)Nc2ccc(NCCO)cc2)cnc2ccc(F)cc12

>  <scaffold>  (879) 
O=C(Nc1ccccc1)c1cnc2ccccc2c1Nc1ccccc1

>  <molecular_formula>  (879) 
C27H24FN5O2

$$$$
ATP-HTVS-8DFE2090913E
     RDKit          3D

 53 55  0  0  0  0  0  0  0  0999 V2000
  198.0049  182.0646  156.2828 S   0  0  0  0  0  0  0  0  0  0  0  0
  197.6099  181.6791  154.6256 C   0  0  0  0  0  0  0  0  0  0  0  0
  198.1689  180.4861  154.2445 C   0  0  0  0  0  0  0  0  0  0  0  0
  198.9581  179.8906  155.2682 C   0  0  0  0  0  0  0  0  0  0  0  0
  199.6437  178.6853  155.0484 N   0  0  0  0  0  0  0  0  0  0  0  0
  200.5942  178.1570  156.0112 C   0  0  1  0  0  0  0  0  0  0  0  0
  201.3563  176.9460  155.5118 C   0  0  0  0  0  0  0  0  0  0  0  0
  201.5505  175.8309  156.3499 C   0  0  0  0  0  0  0  0  0  0  0  0
  202.2708  174.7127  155.8822 C   0  0  0  0  0  0  0  0  0  0  0  0
  202.8076  174.7057  154.5744 C   0  0  0  0  0  0  0  0  0  0  0  0
  202.6439  175.8423  153.7557 C   0  0  0  0  0  0  0  0  0  0  0  0
  201.9093  176.9491  154.2142 C   0  0  0  0  0  0  0  0  0  0  0  0
  203.5148  173.4653  154.0413 C   0  0  1  0  0  0  0  0  0  0  0  0
  202.6683  172.6453  153.1347 N   0  0  2  0  0  0  0  0  0  0  0  0
  202.5962  173.1636  151.7478 C   0  0  2  0  0  0  0  0  0  0  0  0
  201.3282  172.3247  153.6768 C   0  0  2  0  0  0  0  0  0  0  0  0
  198.9712  180.6283  156.4201 C   0  0  0  0  0  0  0  0  0  0  0  0
  196.7626  182.6011  153.8070 C   0  0  1  0  0  0  0  0  0  0  0  0
  197.5097  183.1127  152.5714 C   0  0  0  0  0  0  0  0  0  0  0  0
  198.6918  183.4496  152.6524 O   0  0  0  0  0  0  0  0  0  0  0  0
  196.7928  183.1959  151.4394 N   0  0  0  0  0  0  0  0  0  0  0  0
  197.3268  183.4472  150.1521 C   0  0  0  0  0  0  0  0  0  0  0  0
  198.3928  182.6700  149.6325 C   0  0  0  0  0  0  0  0  0  0  0  0
  198.9475  181.6727  150.3602 F   0  0  0  0  0  0  0  0  0  0  0  0
  198.8647  182.9077  148.3285 C   0  0  0  0  0  0  0  0  0  0  0  0
  198.2644  183.8958  147.5271 C   0  0  0  0  0  0  0  0  0  0  0  0
  197.2071  184.6679  148.0404 C   0  0  0  0  0  0  0  0  0  0  0  0
  196.7317  184.4394  149.3459 C   0  0  0  0  0  0  0  0  0  0  0  0
  198.0651  180.0368  153.2695 H   0  0  0  0  0  0  0  0  0  0  0  0
  199.4151  178.1213  154.2407 H   0  0  0  0  0  0  0  0  0  0  0  0
  201.3278  178.9303  156.2412 H   0  0  0  0  0  0  0  0  0  0  0  0
  200.0729  177.9203  156.9399 H   0  0  0  0  0  0  0  0  0  0  0  0
  201.1447  175.8289  157.3533 H   0  0  0  0  0  0  0  0  0  0  0  0
  202.3959  173.8548  156.5286 H   0  0  0  0  0  0  0  0  0  0  0  0
  203.0569  175.8764  152.7591 H   0  0  0  0  0  0  0  0  0  0  0  0
  201.7673  177.7996  153.5630 H   0  0  0  0  0  0  0  0  0  0  0  0
  204.4437  173.7533  153.5466 H   0  0  0  0  0  0  0  0  0  0  0  0
  203.8138  172.8390  154.8827 H   0  0  0  0  0  0  0  0  0  0  0  0
  202.0897  174.1295  151.7025 H   0  0  0  0  0  0  0  0  0  0  0  0
  202.0362  172.4913  151.0960 H   0  0  0  0  0  0  0  0  0  0  0  0
  203.5945  173.2869  151.3261 H   0  0  0  0  0  0  0  0  0  0  0  0
  200.7057  173.2139  153.8032 H   0  0  0  0  0  0  0  0  0  0  0  0
  201.4358  171.8334  154.6439 H   0  0  0  0  0  0  0  0  0  0  0  0
  200.8029  171.6437  153.0059 H   0  0  0  0  0  0  0  0  0  0  0  0
  199.4805  180.4085  157.3424 H   0  0  0  0  0  0  0  0  0  0  0  0
  195.8640  182.0665  153.5032 H   0  0  0  0  0  0  0  0  0  0  0  0
  196.4361  183.4573  154.3989 H   0  0  0  0  0  0  0  0  0  0  0  0
  195.7922  183.1096  151.5280 H   0  0  0  0  0  0  0  0  0  0  0  0
  199.6623  182.2976  147.9290 H   0  0  0  0  0  0  0  0  0  0  0  0
  198.6124  184.0610  146.5167 H   0  0  0  0  0  0  0  0  0  0  0  0
  196.7498  185.4230  147.4213 H   0  0  0  0  0  0  0  0  0  0  0  0
  195.9051  185.0289  149.7176 H   0  0  0  0  0  0  0  0  0  0  0  0
  203.1232  171.7274  153.1276 H   0  0  0  0  0  0  0  0  0  0  0  0
  1  2  1  0
  1 17  1  0
  2  3  2  0
  2 18  1  0
  3  4  1  0
  3 29  1  0
  4  5  1  0
  4 17  2  0
  5  6  1  0
  5 30  1  0
  6  7  1  0
  6 31  1  1
  6 32  1  0
  7  8  1  0
  7 12  2  0
  8  9  2  0
  8 33  1  0
  9 10  1  0
  9 34  1  0
 10 11  2  0
 10 13  1  0
 11 12  1  0
 11 35  1  0
 12 36  1  0
 13 14  1  0
 13 37  1  6
 13 38  1  0
 14 15  1  0
 14 16  1  0
 14 53  1  6
 15 39  1  1
 15 40  1  0
 15 41  1  0
 16 42  1  1
 16 43  1  0
 16 44  1  0
 17 45  1  0
 18 19  1  0
 18 46  1  6
 18 47  1  0
 19 20  2  0
 19 21  1  0
 21 22  1  0
 21 48  1  0
 22 23  1  0
 22 28  2  0
 23 24  1  0
 23 25  2  0
 25 26  1  0
 25 49  1  0
 26 27  2  0
 26 50  1  0
 27 28  1  0
 27 51  1  0
 28 52  1  0
M  CHG  1  14   1
M  END
>  <s_epik_cmdline>  (880) 
J2VwaWtfcHl0aG9uJywgJy1waCcsICc3LjAwMDAwMCcsICctcGh0JywgJzIuMDAwMDAwJywgJy1tcycsICcxNicsICctdG4nLCAnOCcsICctbWEnLCAnMjAwJywgJy1pbWFlJywgJzxpbmZpbGUubWFlPicsICctb21hZScsICc8b3V0ZmlsZS5tYWU+Jw==

>  <s_epik_input>  (880) 
W2NIXTFbY0hdW2NIXVtjSF1jKEYpYzFbTkhdQyg9TylbQ0gyXWMyc1tjSF1jKFtjSF0yKVtOSF1bQ0gyXWMzW2NIXVtjSF1jKFtjSF1bY0hdMylbQ0gyXU4oW0NIM10pW0NIM10=

>  <s_i_glide_gridfile>  (880) 
ATP-Grid

>  <s_lp_Force_Field>  (880) 
OPLS_2005

>  <s_lp_Variant>  (880) 
rxn512b____EMOL511418____EMOL15801711____EMOL50155899-1

>  <s_lp_label>  (880) 
2805_sdstereoexpander_1_neutralizer_1_epik_1_stereoizer_1

>  <s_m_source_file>  (880) 
ATP-VSW-LIGPREP-002-in.maegz

>  <s_sd_BIOSOLVEIT.INFINISEE\_QUERY\_NAME>  (880) 
Ref-Lig

>  <s_sd_BIOSOLVEIT.INFINISEE\_QUERY\_SMILES>  (880) 
S(c1nc2c(cc1C[NH2+]Cc3ccc(cc3)C[NH+](C)C)cccc2)Cc4ccccc4

>  <s_sd_BIOSOLVEIT.INFINISEE\_REACTION\_NAME>  (880) 
rxn512b

>  <s_sd_BIOSOLVEIT.INFINISEE\_REAGENT1\_NAME>  (880) 
EMOL511418

>  <s_sd_BIOSOLVEIT.INFINISEE\_REAGENT1\_SMILES>  (880) 
Fc1c(N)cccc1

>  <s_sd_BIOSOLVEIT.INFINISEE\_REAGENT2\_NAME>  (880) 
EMOL15801711

>  <s_sd_BIOSOLVEIT.INFINISEE\_REAGENT2\_SMILES>  (880) 
BrC1=CSC(=C1)CC(=O)O

>  <s_sd_BIOSOLVEIT.INFINISEE\_REAGENT3\_NAME>  (880) 
EMOL50155899

>  <s_sd_BIOSOLVEIT.INFINISEE\_REAGENT3\_SMILES>  (880) 
N(Cc1ccc(cc1)CN)(C)C

>  <s_sd_BIOSOLVEIT.INFINISEE\_SPACE>  (880) 
eXplore_7tr_2022-12

>  <s_vsw_compound_code>  (880) 
89730

>  <s_vsw_variant>  (880) 
89730-1

>  <r_epik_Charging_Adjusted_Penalty>  (880) 
0.080189274810459593

>  <r_epik_Ionization_Penalty>  (880) 
0.040099999999999997

>  <r_epik_Ionization_Penalty_Charging>  (880) 
0.040099999999999997

>  <r_epik_Ionization_Penalty_Neutral>  (880) 
0

>  <r_epik_State_Penalty>  (880) 
0.040099999999999997

>  <r_i_docking_score>  (880) 
-4.1748593214384604

>  <r_i_glide_ecoul>  (880) 
-6.9613542556762704

>  <r_i_glide_eff_state_penalty>  (880) 
0.040099999999999997

>  <r_i_glide_einternal>  (880) 
4.80973148345947

>  <r_i_glide_emodel>  (880) 
-47.333559782564002

>  <r_i_glide_energy>  (880) 
-36.871829032897899

>  <r_i_glide_erotb>  (880) 
0.86324828570185597

>  <r_i_glide_esite>  (880) 
-0.14920078111634699

>  <r_i_glide_evdw>  (880) 
-29.910474777221701

>  <r_i_glide_gscore>  (880) 
-4.2149593214384602

>  <r_i_glide_hbond>  (880) 
-0.18045433975015099

>  <r_i_glide_ligand_efficiency>  (880) 
-0.14910211862280201

>  <r_i_glide_ligand_efficiency_ln>  (880) 
-0.96368011058407299

>  <r_i_glide_ligand_efficiency_sa>  (880) 
-0.45276184859039997

>  <r_i_glide_lipo>  (880) 
-1.2892281752214201

>  <r_i_glide_metal>  (880) 
-0

>  <r_i_glide_rewards>  (880) 
-0.91959743383987202

>  <r_lp_Energy>  (880) 
20.986250999999999

>  <r_lp_tautomer_probability>  (880) 
0.99999274205267796

>  <r_qp_ACxDN^.5/SA>  (880) 
0.010214900000000001

>  <r_qp_CIQPlogS>  (880) 
-3.9540000000000002

>  <r_qp_EA(eV)>  (880) 
0.311

>  <r_qp_FISA>  (880) 
56.051000000000002

>  <r_qp_FOSA>  (880) 
255.22900000000001

>  <r_qp_IP(eV)>  (880) 
8.1400000000000006

>  <r_qp_Jm>  (880) 
0.00026802845913232798

>  <r_qp_PISA>  (880) 
373.548

>  <r_qp_PSA>  (880) 
53.481000000000002

>  <r_qp_PercentHumanOralAbsorption>  (880) 
92.965999999999994

>  <r_qp_QPPCaco>  (880) 
181.203

>  <r_qp_QPPMDCK>  (880) 
251.20099999999999

>  <r_qp_QPlogBB>  (880) 
0.42699999999999999

>  <r_qp_QPlogHERG>  (880) 
-8.577

>  <r_qp_QPlogKhsa>  (880) 
0.71399999999999997

>  <r_qp_QPlogKp>  (880) 
-4.5940000000000003

>  <r_qp_QPlogPC16>  (880) 
14.263

>  <r_qp_QPlogPo/w>  (880) 
4.3730000000000002

>  <r_qp_QPlogPoct>  (880) 
21.695

>  <r_qp_QPlogPw>  (880) 
11.083

>  <r_qp_QPlogS>  (880) 
-4.577

>  <r_qp_QPpolrz>  (880) 
45.124000000000002

>  <r_qp_SASA>  (880) 
761.45299999999997

>  <r_qp_SAamideO>  (880) 
0

>  <r_qp_SAfluorine>  (880) 
32.298999999999999

>  <r_qp_WPSA>  (880) 
76.623999999999995

>  <r_qp_accptHB>  (880) 
5.5

>  <r_qp_dip^2/V>  (880) 
0.0704592

>  <r_qp_dipole>  (880) 
9.6460000000000008

>  <r_qp_donorHB>  (880) 
2

>  <r_qp_glob>  (880) 
0.76445609999999997

>  <r_qp_mol_MW>  (880) 
397.50900000000001

>  <r_qp_volume>  (880) 
1320.5219999999999

>  <r_sd_BIOSOLVEIT.INFINISEE\_FTREES\_SIMILARITY>  (880) 
0.90600000000000003

>  <r_sd_BIOSOLVEIT.LOGP>  (880) 
3.3250000000000002

>  <r_sd_BIOSOLVEIT.MOLECULAR\_WEIGHT>  (880) 
398.52300000000002

>  <r_sd_BIOSOLVEIT.TPSA>  (880) 
45.57

>  <i_epik_Tot_Q>  (880) 
1

>  <i_epik_Tot_abs_Q>  (880) 
1

>  <i_f3d_flags>  (880) 
0

>  <i_i_glide_confnum>  (880) 
4

>  <i_i_glide_lignum>  (880) 
1359

>  <i_i_glide_posenum>  (880) 
17

>  <i_i_glide_rotatable_bonds>  (880) 
9

>  <i_lp_mmshare_version>  (880) 
65135

>  <i_m_ct_format>  (880) 
2

>  <i_m_source_file_index>  (880) 
2805

>  <i_qp_#NandO>  (880) 
4

>  <i_qp_#acid>  (880) 
0

>  <i_qp_#amide>  (880) 
0

>  <i_qp_#amidine>  (880) 
0

>  <i_qp_#amine>  (880) 
2

>  <i_qp_#in34>  (880) 
0

>  <i_qp_#in56>  (880) 
17

>  <i_qp_#metab>  (880) 
7

>  <i_qp_#nonHatm>  (880) 
28

>  <i_qp_#noncon>  (880) 
0

>  <i_qp_#ringatoms>  (880) 
17

>  <i_qp_#rotor>  (880) 
8

>  <i_qp_#rtvFG>  (880) 
0

>  <i_qp_#stars>  (880) 
0

>  <i_qp_CNS>  (880) 
1

>  <i_qp_HumanOralAbsorption>  (880) 
3

>  <i_qp_RuleOfFive>  (880) 
0

>  <i_qp_RuleOfThree>  (880) 
1

>  <i_sd_BIOSOLVEIT.INFINISEE\_RESULT\_RANK>  (880) 
64056

>  <i_sd_version>  (880) 
0

>  <b_lp_Chiralities_Consistent>  (880) 
1

>  <b_sd_chiral_flag>  (880) 
0

>  <canonical_id>  (880) 
ATP-HTVS-8DFE2090913E

>  <compound_code>  (880) 
89730

>  <title>  (880) 
rxn512b____EMOL511418____EMOL15801711____EMOL50155899

>  <variant>  (880) 
89730-1

>  <source_file>  (880) 
运行/运行/ATP-VSW/ATP-VSW-DOCK_HTVS_1-002_lib.maegz

>  <canonical_smiles>  (880) 
C[NH+](C)Cc1ccc(CNc2csc(CC(=O)Nc3ccccc3F)c2)cc1

>  <scaffold>  (880) 
O=C(Cc1cc(NCc2ccccc2)cs1)Nc1ccccc1

>  <molecular_formula>  (880) 
C22H25FN3OS+

$$$$
ATP-HTVS-8E104651B898
     RDKit          3D

 56 59  0  0  0  0  0  0  0  0999 V2000
  196.3394  187.3478  160.9254 F   0  0  0  0  0  0  0  0  0  0  0  0
  196.1069  186.1502  160.3376 C   0  0  0  0  0  0  0  0  0  0  0  0
  194.8104  185.6000  160.3488 C   0  0  0  0  0  0  0  0  0  0  0  0
  194.5763  184.3527  159.7375 C   0  0  0  0  0  0  0  0  0  0  0  0
  195.6345  183.6549  159.1216 C   0  0  0  0  0  0  0  0  0  0  0  0
  196.9379  184.1966  159.1196 C   0  0  0  0  0  0  0  0  0  0  0  0
  197.1661  185.4500  159.7300 C   0  0  0  0  0  0  0  0  0  0  0  0
  198.0762  183.4302  158.4550 C   0  0  2  0  0  0  0  0  0  0  0  0
  199.2790  183.4883  159.1938 O   0  0  0  0  0  0  0  0  0  0  0  0
  198.3587  183.8763  156.9988 C   0  0  1  0  0  0  0  0  0  0  0  0
  197.1947  183.5899  156.1575 N   0  0  0  0  0  0  0  0  0  0  0  0
  197.4143  182.6342  155.0709 C   0  0  1  0  0  0  0  0  0  0  0  0
  197.4889  183.2848  153.7163 C   0  0  0  0  0  0  0  0  0  0  0  0
  198.1323  184.4407  153.5281 N   0  0  0  0  0  0  0  0  0  0  0  0
  197.9357  184.7043  152.1888 C   0  0  0  0  0  0  0  0  0  0  0  0
  197.1657  183.6680  151.5814 C   0  0  0  0  0  0  0  0  0  0  0  0
  196.9276  182.7440  152.5993 N   0  0  0  0  0  0  0  0  0  0  0  0
  196.1911  181.4857  152.4725 C   0  0  1  0  0  0  0  0  0  0  0  0
  196.9425  180.4249  151.6813 C   0  0  0  0  0  0  0  0  0  0  0  0
  197.7090  179.4457  152.3501 C   0  0  0  0  0  0  0  0  0  0  0  0
  198.4223  178.4736  151.6133 C   0  0  0  0  0  0  0  0  0  0  0  0
  198.3878  178.4894  150.2028 C   0  0  0  0  0  0  0  0  0  0  0  0
  197.6173  179.4608  149.5337 C   0  0  0  0  0  0  0  0  0  0  0  0
  196.8691  180.4065  150.2699 C   0  0  0  0  0  0  0  0  0  0  0  0
  196.8163  183.7351  150.2097 C   0  0  0  0  0  0  0  0  0  0  0  0
  197.2982  184.8141  149.4323 C   0  0  0  0  0  0  0  0  0  0  0  0
  198.0642  185.8398  150.0249 C   0  0  0  0  0  0  0  0  0  0  0  0
  198.3656  185.8009  151.4020 C   0  0  0  0  0  0  0  0  0  0  0  0
  198.7533  185.3565  156.8593 C   0  0  2  0  0  0  0  0  0  0  0  0
  193.6799  186.3436  161.0267 C   0  0  2  0  0  0  0  0  0  0  0  0
  196.4241  183.2606  156.7313 H   0  0  0  0  0  0  0  0  0  0  0  0
  193.5847  183.9261  159.7235 H   0  0  0  0  0  0  0  0  0  0  0  0
  195.4378  182.6983  158.6538 H   0  0  0  0  0  0  0  0  0  0  0  0
  198.1571  185.8798  159.7337 H   0  0  0  0  0  0  0  0  0  0  0  0
  197.7929  182.3761  158.4365 H   0  0  0  0  0  0  0  0  0  0  0  0
  199.9116  182.9342  158.7628 H   0  0  0  0  0  0  0  0  0  0  0  0
  199.2154  183.2998  156.6468 H   0  0  0  0  0  0  0  0  0  0  0  0
  198.3218  182.0513  155.2265 H   0  0  0  0  0  0  0  0  0  0  0  0
  196.5911  181.9203  155.1157 H   0  0  0  0  0  0  0  0  0  0  0  0
  195.9497  181.0663  153.4447 H   0  0  0  0  0  0  0  0  0  0  0  0
  195.2412  181.7065  151.9916 H   0  0  0  0  0  0  0  0  0  0  0  0
  197.7423  179.4270  153.4307 H   0  0  0  0  0  0  0  0  0  0  0  0
  198.9875  177.7079  152.1316 H   0  0  0  0  0  0  0  0  0  0  0  0
  198.9352  177.7533  149.6310 H   0  0  0  0  0  0  0  0  0  0  0  0
  197.5933  179.4937  148.4519 H   0  0  0  0  0  0  0  0  0  0  0  0
  196.2574  181.1038  149.7418 H   0  0  0  0  0  0  0  0  0  0  0  0
  196.2079  182.9958  149.7416 H   0  0  0  0  0  0  0  0  0  0  0  0
  197.0768  184.8488  148.3712 H   0  0  0  0  0  0  0  0  0  0  0  0
  198.4146  186.6590  149.4169 H   0  0  0  0  0  0  0  0  0  0  0  0
  198.9249  186.5993  151.8694 H   0  0  0  0  0  0  0  0  0  0  0  0
  199.5676  185.6074  157.5379 H   0  0  0  0  0  0  0  0  0  0  0  0
  197.9162  186.0212  157.0715 H   0  0  0  0  0  0  0  0  0  0  0  0
  199.0952  185.5781  155.8475 H   0  0  0  0  0  0  0  0  0  0  0  0
  192.7474  185.7877  160.9602 H   0  0  0  0  0  0  0  0  0  0  0  0
  193.5260  187.3099  160.5517 H   0  0  0  0  0  0  0  0  0  0  0  0
  193.9106  186.5133  162.0789 H   0  0  0  0  0  0  0  0  0  0  0  0
  1  2  1  0
  2  3  2  0
  2  7  1  0
  3  4  1  0
  3 30  1  0
  4  5  2  0
  4 32  1  0
  5  6  1  0
  5 33  1  0
  6  7  2  0
  6  8  1  0
  7 34  1  0
  8  9  1  0
  8 10  1  0
  8 35  1  6
  9 36  1  0
 10 11  1  0
 10 29  1  0
 10 37  1  6
 11 12  1  0
 11 31  1  0
 12 13  1  0
 12 38  1  1
 12 39  1  0
 13 14  2  0
 13 17  1  0
 14 15  1  0
 15 16  1  0
 15 28  2  0
 16 17  1  0
 16 25  2  0
 17 18  1  0
 18 19  1  0
 18 40  1  1
 18 41  1  0
 19 20  2  0
 19 24  1  0
 20 21  1  0
 20 42  1  0
 21 22  2  0
 21 43  1  0
 22 23  1  0
 22 44  1  0
 23 24  2  0
 23 45  1  0
 24 46  1  0
 25 26  1  0
 25 47  1  0
 26 27  2  0
 26 48  1  0
 27 28  1  0
 27 49  1  0
 28 50  1  0
 29 51  1  1
 29 52  1  0
 29 53  1  0
 30 54  1  1
 30 55  1  0
 30 56  1  0
M  END
>  <s_epik_cmdline>  (881) 
J2VwaWtfcHl0aG9uJywgJy1waCcsICc3LjAwMDAwMCcsICctcGh0JywgJzIuMDAwMDAwJywgJy1tcycsICcxNicsICctdG4nLCAnOCcsICctbWEnLCAnMjAwJywgJy1pbWFlJywgJzxpbmZpbGUubWFlPicsICctb21hZScsICc8b3V0ZmlsZS5tYWU+Jw==

>  <s_epik_input>  (881) 
RmMxYyhbQ0gzXSlbY0hdW2NIXWMoW2NIXTEpW0NASF0oW09IXSlbQ0BIXShbQ0gzXSlbTkhdW0NIMl1jKG4yKW4oYyhjMjMpW2NIXVtjSF1bY0hdW2NIXTMpW0NIMl1jNFtjSF1bY0hdW2NIXVtjSF1bY0hdNA==

>  <s_i_glide_gridfile>  (881) 
ATP-Grid

>  <s_lp_Force_Field>  (881) 
OPLS_2005

>  <s_lp_Variant>  (881) 
m_270004beb____17607246____24720860-4

>  <s_lp_label>  (881) 
1850_sdstereoexpander_4_neutralizer_1_epik_1_stereoizer_1

>  <s_m_source_file>  (881) 
ATP-VSW-LIGPREP-001-in.maegz

>  <s_sd_BIOSOLVEIT.INFINISEE\_QUERY\_NAME>  (881) 
Ref-Lig

>  <s_sd_BIOSOLVEIT.INFINISEE\_QUERY\_SMILES>  (881) 
S(c1nc2c(cc1C[NH2+]Cc3ccc(cc3)C[NH+](C)C)cccc2)Cc4ccccc4

>  <s_sd_BIOSOLVEIT.INFINISEE\_REACTION\_NAME>  (881) 
m_270004beb

>  <s_sd_BIOSOLVEIT.INFINISEE\_REAGENT1\_SMILES>  (881) 
[R1*]NC(C(O)c1cc(F)c(cc1)C)C

>  <s_sd_BIOSOLVEIT.INFINISEE\_REAGENT2\_SMILES>  (881) 
[R1*]CC1=Nc2c(N1Cc3ccccc3)cccc2

>  <s_sd_BIOSOLVEIT.INFINISEE\_SPACE>  (881) 
REALSpace_44bn_2023-08

>  <s_vsw_compound_code>  (881) 
59169

>  <s_vsw_variant>  (881) 
59169-4

>  <r_epik_Charging_Adjusted_Penalty>  (881) 
0.38972655799915101

>  <r_epik_Ionization_Penalty>  (881) 
0.4355

>  <r_epik_Ionization_Penalty_Charging>  (881) 
0

>  <r_epik_Ionization_Penalty_Neutral>  (881) 
0.4355

>  <r_epik_State_Penalty>  (881) 
0.38969999999999999

>  <r_i_docking_score>  (881) 
-4.4147734230414999

>  <r_i_glide_ecoul>  (881) 
-2.2292747497558598

>  <r_i_glide_eff_state_penalty>  (881) 
0.38969999999999999

>  <r_i_glide_einternal>  (881) 
7.0541129112243697

>  <r_i_glide_emodel>  (881) 
-46.611553244236198

>  <r_i_glide_energy>  (881) 
-38.390098571777301

>  <r_i_glide_erotb>  (881) 
0.84418362934624902

>  <r_i_glide_esite>  (881) 
-0.064338500358477907

>  <r_i_glide_evdw>  (881) 
-36.160823822021499

>  <r_i_glide_gscore>  (881) 
-4.8044734230415003

>  <r_i_glide_hbond>  (881) 
0

>  <r_i_glide_ligand_efficiency>  (881) 
-0.14715911410138299

>  <r_i_glide_ligand_efficiency_ln>  (881) 
-1.00308462452421

>  <r_i_glide_ligand_efficiency_sa>  (881) 
-0.45725758236478398

>  <r_i_glide_lipo>  (881) 
-2.5033351523262

>  <r_i_glide_metal>  (881) 
-0

>  <r_i_glide_rewards>  (881) 
-0.93855099613862003

>  <r_lp_Energy>  (881) 
21.246255000000001

>  <r_qp_ACxDN^.5/SA>  (881) 
0.0096211000000000005

>  <r_qp_CIQPlogS>  (881) 
-5.665

>  <r_qp_EA(eV)>  (881) 
0.19600000000000001

>  <r_qp_FISA>  (881) 
66.683999999999997

>  <r_qp_FOSA>  (881) 
186.82499999999999

>  <r_qp_IP(eV)>  (881) 
8.6449999999999996

>  <r_qp_Jm>  (881) 
0.020702516762012201

>  <r_qp_PISA>  (881) 
398.92700000000002

>  <r_qp_PSA>  (881) 
45.909999999999997

>  <r_qp_PercentHumanOralAbsorption>  (881) 
100

>  <r_qp_QPPCaco>  (881) 
576.01999999999998

>  <r_qp_QPPMDCK>  (881) 
489.50599999999997

>  <r_qp_QPlogBB>  (881) 
-0.075999999999999998

>  <r_qp_QPlogHERG>  (881) 
-6.9640000000000004

>  <r_qp_QPlogKhsa>  (881) 
0.79500000000000004

>  <r_qp_QPlogKp>  (881) 
-2.6379999999999999

>  <r_qp_QPlogPC16>  (881) 
13.622

>  <r_qp_QPlogPo/w>  (881) 
4.8319999999999999

>  <r_qp_QPlogPoct>  (881) 
20.135000000000002

>  <r_qp_QPlogPw>  (881) 
10.356

>  <r_qp_QPlogS>  (881) 
-4.6520000000000001

>  <r_qp_QPpolrz>  (881) 
43.884999999999998

>  <r_qp_SASA>  (881) 
690.85699999999997

>  <r_qp_SAamideO>  (881) 
0

>  <r_qp_SAfluorine>  (881) 
38.420000000000002

>  <r_qp_WPSA>  (881) 
38.420000000000002

>  <r_qp_accptHB>  (881) 
4.7000000000000002

>  <r_qp_dip^2/V>  (881) 
0.0070473000000000003

>  <r_qp_dipole>  (881) 
3.008

>  <r_qp_donorHB>  (881) 
2

>  <r_qp_glob>  (881) 
0.82674970000000003

>  <r_qp_mol_MW>  (881) 
403.49799999999999

>  <r_qp_volume>  (881) 
1283.499

>  <r_sd_BIOSOLVEIT.INFINISEE\_FTREES\_SIMILARITY>  (881) 
0.90300000000000002

>  <r_sd_BIOSOLVEIT.LOGP>  (881) 
3.7176200000000001

>  <r_sd_BIOSOLVEIT.MOLECULAR\_WEIGHT>  (881) 
404.50599999999997

>  <r_sd_BIOSOLVEIT.TPSA>  (881) 
54.659999999999997

>  <i_epik_Tot_Q>  (881) 
0

>  <i_epik_Tot_abs_Q>  (881) 
0

>  <i_f3d_flags>  (881) 
0

>  <i_i_glide_confnum>  (881) 
7

>  <i_i_glide_lignum>  (881) 
546

>  <i_i_glide_posenum>  (881) 
11

>  <i_i_glide_rotatable_bonds>  (881) 
8

>  <i_lp_mmshare_version>  (881) 
65135

>  <i_m_ct_format>  (881) 
2

>  <i_m_source_file_index>  (881) 
1850

>  <i_qp_#NandO>  (881) 
4

>  <i_qp_#acid>  (881) 
0

>  <i_qp_#amide>  (881) 
0

>  <i_qp_#amidine>  (881) 
0

>  <i_qp_#amine>  (881) 
1

>  <i_qp_#in34>  (881) 
0

>  <i_qp_#in56>  (881) 
21

>  <i_qp_#metab>  (881) 
5

>  <i_qp_#nonHatm>  (881) 
30

>  <i_qp_#noncon>  (881) 
0

>  <i_qp_#ringatoms>  (881) 
21

>  <i_qp_#rotor>  (881) 
8

>  <i_qp_#rtvFG>  (881) 
0

>  <i_qp_#stars>  (881) 
0

>  <i_qp_CNS>  (881) 
1

>  <i_qp_HumanOralAbsorption>  (881) 
3

>  <i_qp_RuleOfFive>  (881) 
0

>  <i_qp_RuleOfThree>  (881) 
0

>  <i_sd_BIOSOLVEIT.INFINISEE\_REAGENT1\_NAME>  (881) 
17607246

>  <i_sd_BIOSOLVEIT.INFINISEE\_REAGENT2\_NAME>  (881) 
24720860

>  <i_sd_BIOSOLVEIT.INFINISEE\_RESULT\_RANK>  (881) 
81219

>  <i_sd_version>  (881) 
0

>  <b_lp_Chiralities_Consistent>  (881) 
1

>  <b_sd_chiral_flag>  (881) 
0

>  <canonical_id>  (881) 
ATP-HTVS-8E104651B898

>  <compound_code>  (881) 
59169

>  <title>  (881) 
m_270004beb____17607246____24720860

>  <variant>  (881) 
59169-4

>  <source_file>  (881) 
运行/运行/ATP-VSW/ATP-VSW-DOCK_HTVS_1-001_lib/ATP-VSW-DOCK_HTVS_1-001_lib

>  <canonical_smiles>  (881) 
Cc1ccc([C@H](O)[C@H](C)NCc2nc3ccccc3n2Cc2ccccc2)cc1F

>  <scaffold>  (881) 
c1ccc(CCNCc2nc3ccccc3n2Cc2ccccc2)cc1

>  <molecular_formula>  (881) 
C25H26FN3O

$$$$
ATP-HTVS-8E17E50AE6CE
     RDKit          3D

 55 58  0  0  0  0  0  0  0  0999 V2000
  197.6236  187.9242  159.6966 Br  0  0  0  0  0  0  0  0  0  0  0  0
  197.1539  186.1294  159.2720 C   0  0  0  0  0  0  0  0  0  0  0  0
  195.8353  185.8507  158.8616 C   0  0  0  0  0  0  0  0  0  0  0  0
  195.4462  184.5458  158.5359 C   0  0  0  0  0  0  0  0  0  0  0  0
  196.3652  183.4801  158.6429 C   0  0  0  0  0  0  0  0  0  0  0  0
  197.6994  183.7601  159.0413 C   0  0  0  0  0  0  0  0  0  0  0  0
  198.0932  185.0802  159.3430 C   0  0  0  0  0  0  0  0  0  0  0  0
  195.9441  182.0567  158.2932 C   0  0  2  0  0  0  0  0  0  0  0  0
  195.9539  181.7789  156.8470 N   0  0  1  0  0  0  0  0  0  0  0  0
  197.2895  181.7749  156.2115 C   0  0  1  0  0  0  0  0  0  0  0  0
  197.1307  181.4038  154.7574 C   0  0  0  0  0  0  0  0  0  0  0  0
  197.3261  182.2001  153.5834 C   0  0  0  0  0  0  0  0  0  0  0  0
  197.0747  181.4974  152.5193 N   0  0  0  0  0  0  0  0  0  0  0  0
  196.7803  180.2513  152.9003 N   0  0  0  0  0  0  0  0  0  0  0  0
  196.7827  180.1694  154.2738 C   0  0  0  0  0  0  0  0  0  0  0  0
  196.4897  179.2349  151.8907 C   0  0  1  0  0  0  0  0  0  0  0  0
  197.6308  179.0092  150.8928 C   0  0  0  0  0  0  0  0  0  0  0  0
  197.9826  179.9485  149.8843 C   0  0  0  0  0  0  0  0  0  0  0  0
  197.1633  181.4486  149.6725 Cl  0  0  0  0  0  0  0  0  0  0  0  0
  199.0605  179.6994  149.0101 C   0  0  0  0  0  0  0  0  0  0  0  0
  199.7772  178.4968  149.0941 C   0  0  0  0  0  0  0  0  0  0  0  0
  199.4119  177.5412  150.0574 C   0  0  0  0  0  0  0  0  0  0  0  0
  198.3547  177.8019  150.9500 C   0  0  0  0  0  0  0  0  0  0  0  0
  197.7580  183.6004  153.3970 C   0  0  0  0  0  0  0  0  0  0  0  0
  197.5228  184.5597  154.4097 C   0  0  0  0  0  0  0  0  0  0  0  0
  198.0036  185.8715  154.2640 C   0  0  0  0  0  0  0  0  0  0  0  0
  198.6712  186.2724  153.0864 C   0  0  0  0  0  0  0  0  0  0  0  0
  198.8668  185.3429  152.0470 C   0  0  0  0  0  0  0  0  0  0  0  0
  198.4332  184.0114  152.2121 C   0  0  0  0  0  0  0  0  0  0  0  0
  194.5878  181.6417  158.9049 C   0  0  1  0  0  0  0  0  0  0  0  0
  193.4930  182.4053  158.4142 O   0  0  0  0  0  0  0  0  0  0  0  0
  195.5844  180.8325  156.7844 H   0  0  0  0  0  0  0  0  0  0  0  0
  195.1243  186.6565  158.7972 H   0  0  0  0  0  0  0  0  0  0  0  0
  194.4393  184.3817  158.1807 H   0  0  0  0  0  0  0  0  0  0  0  0
  198.4222  182.9604  159.1194 H   0  0  0  0  0  0  0  0  0  0  0  0
  199.1149  185.2898  159.6483 H   0  0  0  0  0  0  0  0  0  0  0  0
  196.6710  181.3773  158.7240 H   0  0  0  0  0  0  0  0  0  0  0  0
  197.7587  182.7468  156.3488 H   0  0  0  0  0  0  0  0  0  0  0  0
  197.9225  181.0519  156.7324 H   0  0  0  0  0  0  0  0  0  0  0  0
  196.5470  179.2583  154.8122 H   0  0  0  0  0  0  0  0  0  0  0  0
  196.2747  178.3122  152.4179 H   0  0  0  0  0  0  0  0  0  0  0  0
  195.5759  179.5150  151.3806 H   0  0  0  0  0  0  0  0  0  0  0  0
  199.3343  180.4504  148.2814 H   0  0  0  0  0  0  0  0  0  0  0  0
  200.5878  178.3106  148.4026 H   0  0  0  0  0  0  0  0  0  0  0  0
  199.9399  176.6014  150.1052 H   0  0  0  0  0  0  0  0  0  0  0  0
  198.1020  177.0513  151.6798 H   0  0  0  0  0  0  0  0  0  0  0  0
  196.9568  184.3174  155.2917 H   0  0  0  0  0  0  0  0  0  0  0  0
  197.8315  186.5920  155.0481 H   0  0  0  0  0  0  0  0  0  0  0  0
  198.9999  187.3047  152.9702 H   0  0  0  0  0  0  0  0  0  0  0  0
  199.3489  185.6541  151.1291 H   0  0  0  0  0  0  0  0  0  0  0  0
  198.6033  183.3135  151.4046 H   0  0  0  0  0  0  0  0  0  0  0  0
  194.3735  180.6025  158.6665 H   0  0  0  0  0  0  0  0  0  0  0  0
  194.6609  181.6439  159.9948 H   0  0  0  0  0  0  0  0  0  0  0  0
  193.5356  182.5285  157.4703 H   0  0  0  0  0  0  0  0  0  0  0  0
  195.2920  182.3773  156.3661 H   0  0  0  0  0  0  0  0  0  0  0  0
  1  2  1  0
  2  3  1  0
  2  7  2  0
  3  4  2  0
  3 33  1  0
  4  5  1  0
  4 34  1  0
  5  6  2  0
  5  8  1  0
  6  7  1  0
  6 35  1  0
  7 36  1  0
  8  9  1  0
  8 30  1  0
  8 37  1  1
  9 10  1  0
  9 32  1  1
  9 55  1  0
 10 11  1  0
 10 38  1  6
 10 39  1  0
 11 12  1  0
 11 15  2  0
 12 13  2  0
 12 24  1  0
 13 14  1  0
 14 15  1  0
 14 16  1  0
 15 40  1  0
 16 17  1  0
 16 41  1  1
 16 42  1  0
 17 18  1  0
 17 23  2  0
 18 19  1  0
 18 20  2  0
 20 21  1  0
 20 43  1  0
 21 22  2  0
 21 44  1  0
 22 23  1  0
 22 45  1  0
 23 46  1  0
 24 25  2  0
 24 29  1  0
 25 26  1  0
 25 47  1  0
 26 27  2  0
 26 48  1  0
 27 28  1  0
 27 49  1  0
 28 29  2  0
 28 50  1  0
 29 51  1  0
 30 31  1  0
 30 52  1  6
 30 53  1  0
 31 54  1  0
M  CHG  1   9   1
M  END
>  <s_epik_cmdline>  (882) 
J2VwaWtfcHl0aG9uJywgJy1waCcsICc3LjAwMDAwMCcsICctcGh0JywgJzIuMDAwMDAwJywgJy1tcycsICcxNicsICctdG4nLCAnOCcsICctbWEnLCAnMjAwJywgJy1pbWFlJywgJzxpbmZpbGUubWFlPicsICctb21hZScsICc8b3V0ZmlsZS5tYWU+Jw==

>  <s_epik_input>  (882) 
QnJjMVtjSF1bY0hdYyhbY0hdW2NIXTEpW0NAQEhdKFtDSDJdW09IXSlbTkhdW0NIMl1jMmMoLWMzW2NIXVtjSF1bY0hdW2NIXVtjSF0zKW5uKFtjSF0yKVtDSDJdYzRjKENsKVtjSF1bY0hdW2NIXVtjSF00

>  <s_i_glide_gridfile>  (882) 
ATP-Grid

>  <s_lp_Force_Field>  (882) 
OPLS_2005

>  <s_lp_Variant>  (882) 
a4____27429____249703-2

>  <s_lp_label>  (882) 
586_sdstereoexpander_2_neutralizer_1_epik_1_stereoizer_1

>  <s_m_source_file>  (882) 
ATP-VSW-LIGPREP-001-in.maegz

>  <s_sd_BIOSOLVEIT.INFINISEE\_QUERY\_NAME>  (882) 
Ref-Lig

>  <s_sd_BIOSOLVEIT.INFINISEE\_QUERY\_SMILES>  (882) 
S(c1nc2c(cc1C[NH2+]Cc3ccc(cc3)C[NH+](C)C)cccc2)Cc4ccccc4

>  <s_sd_BIOSOLVEIT.INFINISEE\_REACTION\_NAME>  (882) 
a4

>  <s_sd_BIOSOLVEIT.INFINISEE\_REAGENT1\_SMILES>  (882) 
[R1*]NC(c1ccc(Br)cc1)CO

>  <s_sd_BIOSOLVEIT.INFINISEE\_REAGENT2\_SMILES>  (882) 
[R1*]CC=1C(=NN(C1)Cc2c(Cl)cccc2)c3ccccc3

>  <s_sd_BIOSOLVEIT.INFINISEE\_SPACE>  (882) 
FreedomSpace_5bn_2023-06

>  <s_vsw_compound_code>  (882) 
18721

>  <s_vsw_variant>  (882) 
18721-2

>  <r_epik_Charging_Adjusted_Penalty>  (882) 
0.454845693704307

>  <r_epik_Ionization_Penalty>  (882) 
0.22739999999999999

>  <r_epik_Ionization_Penalty_Charging>  (882) 
0.22739999999999999

>  <r_epik_Ionization_Penalty_Neutral>  (882) 
0

>  <r_epik_State_Penalty>  (882) 
0.22739999999999999

>  <r_i_docking_score>  (882) 
-5.0174507597037401

>  <r_i_glide_ecoul>  (882) 
-13.8038320541382

>  <r_i_glide_eff_state_penalty>  (882) 
0.22739999999999999

>  <r_i_glide_einternal>  (882) 
4.5931591987609899

>  <r_i_glide_emodel>  (882) 
-69.311508839539002

>  <r_i_glide_energy>  (882) 
-47.530814170837402

>  <r_i_glide_erotb>  (882) 
0.57623355494065698

>  <r_i_glide_esite>  (882) 
-0.10000000000000001

>  <r_i_glide_evdw>  (882) 
-33.726982116699197

>  <r_i_glide_gscore>  (882) 
-5.2448507597037404

>  <r_i_glide_hbond>  (882) 
-0.51844061842866695

>  <r_i_glide_ligand_efficiency>  (882) 
-0.161853250313024

>  <r_i_glide_ligand_efficiency_ln>  (882) 
-1.13158891271233

>  <r_i_glide_ligand_efficiency_sa>  (882) 
-0.50844266847799902

>  <r_i_glide_lipo>  (882) 
-1.28159233790144

>  <r_i_glide_metal>  (882) 
-0

>  <r_i_glide_rewards>  (882) 
-0.16412744435860299

>  <r_lp_Energy>  (882) 
12.030994

>  <r_lp_tautomer_probability>  (882) 
1

>  <r_qp_ACxDN^.5/SA>  (882) 
0.0107601

>  <r_qp_CIQPlogS>  (882) 
-7.6909999999999998

>  <r_qp_EA(eV)>  (882) 
0.32600000000000001

>  <r_qp_FISA>  (882) 
68.832999999999998

>  <r_qp_FOSA>  (882) 
124.93300000000001

>  <r_qp_IP(eV)>  (882) 
8.9280000000000008

>  <r_qp_Jm>  (882) 
0.18419492472408699

>  <r_qp_PISA>  (882) 
344.14400000000001

>  <r_qp_PSA>  (882) 
49.600999999999999

>  <r_qp_PercentHumanOralAbsorption>  (882) 
100

>  <r_qp_QPPCaco>  (882) 
549.61199999999997

>  <r_qp_QPPMDCK>  (882) 
784.34900000000005

>  <r_qp_QPlogBB>  (882) 
0.12

>  <r_qp_QPlogHERG>  (882) 
-5.3760000000000003

>  <r_qp_QPlogKhsa>  (882) 
0.748

>  <r_qp_QPlogKp>  (882) 
-2.8700000000000001

>  <r_qp_QPlogPC16>  (882) 
13.85

>  <r_qp_QPlogPo/w>  (882) 
4.7460000000000004

>  <r_qp_QPlogPoct>  (882) 
19.934999999999999

>  <r_qp_QPlogPw>  (882) 
9.8369999999999997

>  <r_qp_QPlogS>  (882) 
-3.5609999999999999

>  <r_qp_QPpolrz>  (882) 
42.042000000000002

>  <r_qp_SASA>  (882) 
617.72799999999995

>  <r_qp_SAamideO>  (882) 
0

>  <r_qp_SAfluorine>  (882) 
0

>  <r_qp_WPSA>  (882) 
79.819000000000003

>  <r_qp_accptHB>  (882) 
4.7000000000000002

>  <r_qp_dip^2/V>  (882) 
0.0089557999999999999

>  <r_qp_dipole>  (882) 
3.347

>  <r_qp_donorHB>  (882) 
2

>  <r_qp_glob>  (882) 
0.90872109999999995

>  <r_qp_mol_MW>  (882) 
496.83300000000003

>  <r_qp_volume>  (882) 
1250.53

>  <r_sd_BIOSOLVEIT.INFINISEE\_FTREES\_SIMILARITY>  (882) 
0.90200000000000002

>  <r_sd_BIOSOLVEIT.LOGP>  (882) 
4.8113000000000001

>  <r_sd_BIOSOLVEIT.MOLECULAR\_WEIGHT>  (882) 
497.84199999999998

>  <r_sd_BIOSOLVEIT.TPSA>  (882) 
54.659999999999997

>  <i_epik_Tot_Q>  (882) 
1

>  <i_epik_Tot_abs_Q>  (882) 
1

>  <i_f3d_flags>  (882) 
0

>  <i_i_glide_confnum>  (882) 
3

>  <i_i_glide_lignum>  (882) 
64

>  <i_i_glide_posenum>  (882) 
15

>  <i_i_glide_rotatable_bonds>  (882) 
9

>  <i_lp_mmshare_version>  (882) 
65135

>  <i_m_ct_format>  (882) 
2

>  <i_m_source_file_index>  (882) 
586

>  <i_qp_#NandO>  (882) 
4

>  <i_qp_#acid>  (882) 
0

>  <i_qp_#amide>  (882) 
0

>  <i_qp_#amidine>  (882) 
0

>  <i_qp_#amine>  (882) 
1

>  <i_qp_#in34>  (882) 
0

>  <i_qp_#in56>  (882) 
23

>  <i_qp_#metab>  (882) 
5

>  <i_qp_#nonHatm>  (882) 
31

>  <i_qp_#noncon>  (882) 
0

>  <i_qp_#ringatoms>  (882) 
23

>  <i_qp_#rotor>  (882) 
8

>  <i_qp_#rtvFG>  (882) 
0

>  <i_qp_#stars>  (882) 
0

>  <i_qp_CNS>  (882) 
1

>  <i_qp_HumanOralAbsorption>  (882) 
3

>  <i_qp_RuleOfFive>  (882) 
0

>  <i_qp_RuleOfThree>  (882) 
0

>  <i_sd_BIOSOLVEIT.INFINISEE\_REAGENT1\_NAME>  (882) 
27429

>  <i_sd_BIOSOLVEIT.INFINISEE\_REAGENT2\_NAME>  (882) 
249703

>  <i_sd_BIOSOLVEIT.INFINISEE\_RESULT\_RANK>  (882) 
92859

>  <i_sd_version>  (882) 
0

>  <b_lp_Chiralities_Consistent>  (882) 
1

>  <b_sd_chiral_flag>  (882) 
0

>  <canonical_id>  (882) 
ATP-HTVS-8E17E50AE6CE

>  <compound_code>  (882) 
18721

>  <title>  (882) 
a4____27429____249703

>  <variant>  (882) 
18721-2

>  <source_file>  (882) 
运行/运行/ATP-VSW/ATP-VSW-DOCK_HTVS_1-001_lib/ATP-VSW-DOCK_HTVS_1-001_lib

>  <canonical_smiles>  (882) 
OC[C@@H]([NH2+]Cc1cn(Cc2ccccc2Cl)nc1-c1ccccc1)c1ccc(Br)cc1

>  <scaffold>  (882) 
c1ccc(C[NH2+]Cc2cn(Cc3ccccc3)nc2-c2ccccc2)cc1

>  <molecular_formula>  (882) 
C25H24BrClN3O+

$$$$
ATP-HTVS-8E1A44B1E9FD
     RDKit          3D

 54 57  0  0  0  0  0  0  0  0999 V2000
  202.6767  173.2149  154.4037 Cl  0  0  0  0  0  0  0  0  0  0  0  0
  201.9490  174.6898  154.9144 C   0  0  0  0  0  0  0  0  0  0  0  0
  201.1493  175.4357  154.0282 C   0  0  0  0  0  0  0  0  0  0  0  0
  200.5475  176.6346  154.4588 C   0  0  0  0  0  0  0  0  0  0  0  0
  200.7368  177.0892  155.7859 C   0  0  0  0  0  0  0  0  0  0  0  0
  201.5436  176.3341  156.6622 C   0  0  0  0  0  0  0  0  0  0  0  0
  202.1493  175.1422  156.2291 C   0  0  0  0  0  0  0  0  0  0  0  0
  200.0758  178.3777  156.2541 C   0  0  1  0  0  0  0  0  0  0  0  0
  199.9440  178.4422  157.6507 O   0  0  0  0  0  0  0  0  0  0  0  0
  200.8960  179.6215  155.8379 C   0  0  1  0  0  0  0  0  0  0  0  0
  200.0883  180.8477  155.7703 N   0  0  0  0  0  0  0  0  0  0  0  0
  198.9621  180.8921  154.9267 C   0  0  0  0  0  0  0  0  0  0  0  0
  197.7111  181.2806  155.4872 C   0  0  0  0  0  0  0  0  0  0  0  0
  197.5809  181.6447  156.8568 N   0  0  0  0  0  0  0  0  0  0  0  0
  197.8665  182.8602  157.3579 C   0  0  0  0  0  0  0  0  0  0  0  0
  198.2140  183.8048  156.6505 O   0  0  0  0  0  0  0  0  0  0  0  0
  197.7958  183.0318  158.8831 C   0  0  1  0  0  0  0  0  0  0  0  0
  199.4230  183.4904  159.4840 Cl  0  0  0  0  0  0  0  0  0  0  0  0
  196.7276  184.0325  159.3083 C   0  0  0  0  0  0  0  0  0  0  0  0
  197.0799  185.3429  159.7105 C   0  0  0  0  0  0  0  0  0  0  0  0
  196.0965  186.2511  160.1334 C   0  0  0  0  0  0  0  0  0  0  0  0
  194.7466  185.8642  160.1471 C   0  0  0  0  0  0  0  0  0  0  0  0
  194.3796  184.5697  159.7328 C   0  0  0  0  0  0  0  0  0  0  0  0
  195.3659  183.6509  159.3264 C   0  0  0  0  0  0  0  0  0  0  0  0
  196.5480  181.2186  154.6947 C   0  0  0  0  0  0  0  0  0  0  0  0
  196.6250  180.7980  153.4152 N   0  0  0  0  0  0  0  0  0  0  0  0
  197.7819  180.4596  152.8087 C   0  0  0  0  0  0  0  0  0  0  0  0
  198.9990  180.5341  153.5463 C   0  0  0  0  0  0  0  0  0  0  0  0
  200.2130  180.2540  152.8685 C   0  0  0  0  0  0  0  0  0  0  0  0
  200.1939  179.8164  151.5194 C   0  0  0  0  0  0  0  0  0  0  0  0
  198.9841  179.7193  150.8138 C   0  0  0  0  0  0  0  0  0  0  0  0
  197.7716  180.0538  151.4480 C   0  0  0  0  0  0  0  0  0  0  0  0
  200.9930  175.0737  153.0227 H   0  0  0  0  0  0  0  0  0  0  0  0
  199.9327  177.1948  153.7699 H   0  0  0  0  0  0  0  0  0  0  0  0
  201.7170  176.6738  157.6714 H   0  0  0  0  0  0  0  0  0  0  0  0
  202.7581  174.5725  156.9161 H   0  0  0  0  0  0  0  0  0  0  0  0
  199.0814  178.3822  155.8215 H   0  0  0  0  0  0  0  0  0  0  0  0
  199.0326  178.1871  157.8761 H   0  0  0  0  0  0  0  0  0  0  0  0
  201.7150  179.7804  156.5581 H   0  0  0  0  0  0  0  0  0  0  0  0
  201.3760  179.4166  154.8794 H   0  0  0  0  0  0  0  0  0  0  0  0
  199.8746  181.2262  156.6792 H   0  0  0  0  0  0  0  0  0  0  0  0
  197.2570  180.9201  157.4885 H   0  0  0  0  0  0  0  0  0  0  0  0
  197.5327  182.0771  159.3360 H   0  0  0  0  0  0  0  0  0  0  0  0
  198.1035  185.6809  159.7112 H   0  0  0  0  0  0  0  0  0  0  0  0
  196.3894  187.2449  160.4401 H   0  0  0  0  0  0  0  0  0  0  0  0
  193.9920  186.5711  160.4560 H   0  0  0  0  0  0  0  0  0  0  0  0
  193.3376  184.2896  159.7267 H   0  0  0  0  0  0  0  0  0  0  0  0
  195.0690  182.6540  159.0233 H   0  0  0  0  0  0  0  0  0  0  0  0
  195.5574  181.4619  155.0674 H   0  0  0  0  0  0  0  0  0  0  0  0
  201.1596  180.3850  153.3684 H   0  0  0  0  0  0  0  0  0  0  0  0
  201.1263  179.5735  151.0335 H   0  0  0  0  0  0  0  0  0  0  0  0
  198.9916  179.4283  149.7680 H   0  0  0  0  0  0  0  0  0  0  0  0
  196.8498  180.0265  150.8819 H   0  0  0  0  0  0  0  0  0  0  0  0
  195.7620  180.7597  152.8730 H   0  0  0  0  0  0  0  0  0  0  0  0
  1  2  1  0
  2  3  1  0
  2  7  2  0
  3  4  2  0
  3 33  1  0
  4  5  1  0
  4 34  1  0
  5  6  2  0
  5  8  1  0
  6  7  1  0
  6 35  1  0
  7 36  1  0
  8  9  1  0
  8 10  1  0
  8 37  1  6
  9 38  1  0
 10 11  1  0
 10 39  1  1
 10 40  1  0
 11 12  1  0
 11 41  1  0
 12 13  2  0
 12 28  1  0
 13 14  1  0
 13 25  1  0
 14 15  1  0
 14 42  1  0
 15 16  2  0
 15 17  1  0
 17 18  1  0
 17 19  1  0
 17 43  1  1
 19 20  2  0
 19 24  1  0
 20 21  1  0
 20 44  1  0
 21 22  2  0
 21 45  1  0
 22 23  1  0
 22 46  1  0
 23 24  2  0
 23 47  1  0
 24 48  1  0
 25 26  2  0
 25 49  1  0
 26 27  1  0
 26 54  1  0
 27 28  1  0
 27 32  2  0
 28 29  2  0
 29 30  1  0
 29 50  1  0
 30 31  2  0
 30 51  1  0
 31 32  1  0
 31 52  1  0
 32 53  1  0
M  CHG  1  26   1
M  END
>  <s_epik_cmdline>  (883) 
J2VwaWtfcHl0aG9uJywgJy1waCcsICc3LjAwMDAwMCcsICctcGh0JywgJzIuMDAwMDAwJywgJy1tcycsICcxNicsICctdG4nLCAnOCcsICctbWEnLCAnMjAwJywgJy1pbWFlJywgJzxpbmZpbGUubWFlPicsICctb21hZScsICc8b3V0ZmlsZS5tYWU+Jw==

>  <s_epik_input>  (883) 
Q2xjMVtjSF1bY0hdYyhbY0hdW2NIXTEpW0NAQEhdKFtPSF0pW0NIMl1bTkhdYyhjKGMyMylbY0hdW2NIXVtjSF1bY0hdMyljKFtjSF1uMilbTkhdQyg9TylbQ0BASF0oQ2wpYzRbY0hdW2NIXVtjSF1bY0hdW2NIXTQ=

>  <s_i_glide_gridfile>  (883) 
ATP-Grid

>  <s_lp_Force_Field>  (883) 
OPLS_2005

>  <s_lp_Variant>  (883) 
rxn502b____EMOL480530____EMOL30488121____EMOL50274538-3

>  <s_lp_label>  (883) 
2356_sdstereoexpander_3_neutralizer_1_epik_1_stereoizer_1

>  <s_m_source_file>  (883) 
ATP-VSW-LIGPREP-001-in.maegz

>  <s_sd_BIOSOLVEIT.INFINISEE\_QUERY\_NAME>  (883) 
Ref-Lig

>  <s_sd_BIOSOLVEIT.INFINISEE\_QUERY\_SMILES>  (883) 
S(c1nc2c(cc1C[NH2+]Cc3ccc(cc3)C[NH+](C)C)cccc2)Cc4ccccc4

>  <s_sd_BIOSOLVEIT.INFINISEE\_REACTION\_NAME>  (883) 
rxn502b

>  <s_sd_BIOSOLVEIT.INFINISEE\_REAGENT1\_NAME>  (883) 
EMOL480530

>  <s_sd_BIOSOLVEIT.INFINISEE\_REAGENT1\_SMILES>  (883) 
ClC(=O)C(Cl)c1ccccc1

>  <s_sd_BIOSOLVEIT.INFINISEE\_REAGENT2\_NAME>  (883) 
EMOL30488121

>  <s_sd_BIOSOLVEIT.INFINISEE\_REAGENT2\_SMILES>  (883) 
Brc1c(N)cnc2c1cccc2

>  <s_sd_BIOSOLVEIT.INFINISEE\_REAGENT3\_NAME>  (883) 
EMOL50274538

>  <s_sd_BIOSOLVEIT.INFINISEE\_REAGENT3\_SMILES>  (883) 
Clc1ccc(cc1)C(O)CN

>  <s_sd_BIOSOLVEIT.INFINISEE\_SPACE>  (883) 
eXplore_7tr_2022-12

>  <s_vsw_compound_code>  (883) 
75361

>  <s_vsw_variant>  (883) 
75361-3

>  <r_epik_Charging_Adjusted_Penalty>  (883) 
0.041133574017051998

>  <r_epik_Ionization_Penalty>  (883) 
0.0206

>  <r_epik_Ionization_Penalty_Charging>  (883) 
0.0206

>  <r_epik_Ionization_Penalty_Neutral>  (883) 
0

>  <r_epik_State_Penalty>  (883) 
0.0206

>  <r_i_docking_score>  (883) 
-6.1115366818205299

>  <r_i_glide_ecoul>  (883) 
-12.778074264526399

>  <r_i_glide_eff_state_penalty>  (883) 
0.0206

>  <r_i_glide_einternal>  (883) 
12.7494306564331

>  <r_i_glide_emodel>  (883) 
-65.778333814152802

>  <r_i_glide_energy>  (883) 
-48.8413791656494

>  <r_i_glide_erotb>  (883) 
0.55436537828488897

>  <r_i_glide_esite>  (883) 
-0.096252322969165097

>  <r_i_glide_evdw>  (883) 
-36.063304901122997

>  <r_i_glide_gscore>  (883) 
-6.1321366818205298

>  <r_i_glide_hbond>  (883) 
-0.16239429836090699

>  <r_i_glide_ligand_efficiency>  (883) 
-0.190985521306892

>  <r_i_glide_ligand_efficiency_ln>  (883) 
-1.3685396572576101

>  <r_i_glide_ligand_efficiency_sa>  (883) 
-0.60634123416603702

>  <r_i_glide_lipo>  (883) 
-2.2604777813129702

>  <r_i_glide_metal>  (883) 
-0

>  <r_i_glide_rewards>  (883) 
-0.44750127272727103

>  <r_lp_Energy>  (883) 
34.680078999999999

>  <r_qp_ACxDN^.5/SA>  (883) 
0.015835100000000001

>  <r_qp_CIQPlogS>  (883) 
-7.367

>  <r_qp_EA(eV)>  (883) 
1.004

>  <r_qp_FISA>  (883) 
102.339

>  <r_qp_FOSA>  (883) 
37.883000000000003

>  <r_qp_IP(eV)>  (883) 
8.4819999999999993

>  <r_qp_Jm>  (883) 
0.15151056596203799

>  <r_qp_PISA>  (883) 
430.33999999999997

>  <r_qp_PSA>  (883) 
76.417000000000002

>  <r_qp_PercentHumanOralAbsorption>  (883) 
100

>  <r_qp_QPPCaco>  (883) 
1060.2840000000001

>  <r_qp_QPPMDCK>  (883) 
2047.6559999999999

>  <r_qp_QPlogBB>  (883) 
-0.60899999999999999

>  <r_qp_QPlogHERG>  (883) 
-6.0819999999999999

>  <r_qp_QPlogKhsa>  (883) 
0.501

>  <r_qp_QPlogKp>  (883) 
-1.1220000000000001

>  <r_qp_QPlogPC16>  (883) 
15.385999999999999

>  <r_qp_QPlogPo/w>  (883) 
4.7089999999999996

>  <r_qp_QPlogPoct>  (883) 
23.728000000000002

>  <r_qp_QPlogPw>  (883) 
13.747999999999999

>  <r_qp_QPlogS>  (883) 
-5.367

>  <r_qp_QPpolrz>  (883) 
44.494999999999997

>  <r_qp_SASA>  (883) 
678.16099999999994

>  <r_qp_SAamideO>  (883) 
0

>  <r_qp_SAfluorine>  (883) 
0

>  <r_qp_WPSA>  (883) 
107.599

>  <r_qp_accptHB>  (883) 
6.2000000000000002

>  <r_qp_dip^2/V>  (883) 
0.040900300000000001

>  <r_qp_dipole>  (883) 
7.2670000000000003

>  <r_qp_donorHB>  (883) 
3

>  <r_qp_glob>  (883) 
0.8456224

>  <r_qp_mol_MW>  (883) 
466.36599999999999

>  <r_qp_volume>  (883) 
1291.2660000000001

>  <r_sd_BIOSOLVEIT.INFINISEE\_FTREES\_SIMILARITY>  (883) 
0.92000000000000004

>  <r_sd_BIOSOLVEIT.LOGP>  (883) 
5.9523000000000001

>  <r_sd_BIOSOLVEIT.MOLECULAR\_WEIGHT>  (883) 
466.36599999999999

>  <r_sd_BIOSOLVEIT.TPSA>  (883) 
74.25

>  <i_epik_Tot_Q>  (883) 
1

>  <i_epik_Tot_abs_Q>  (883) 
1

>  <i_f3d_flags>  (883) 
0

>  <i_i_glide_confnum>  (883) 
8

>  <i_i_glide_lignum>  (883) 
857

>  <i_i_glide_posenum>  (883) 
9

>  <i_i_glide_rotatable_bonds>  (883) 
9

>  <i_lp_mmshare_version>  (883) 
65135

>  <i_m_ct_format>  (883) 
2

>  <i_m_source_file_index>  (883) 
2356

>  <i_qp_#NandO>  (883) 
5

>  <i_qp_#acid>  (883) 
0

>  <i_qp_#amide>  (883) 
0

>  <i_qp_#amidine>  (883) 
0

>  <i_qp_#amine>  (883) 
0

>  <i_qp_#in34>  (883) 
0

>  <i_qp_#in56>  (883) 
22

>  <i_qp_#metab>  (883) 
6

>  <i_qp_#nonHatm>  (883) 
32

>  <i_qp_#noncon>  (883) 
0

>  <i_qp_#ringatoms>  (883) 
22

>  <i_qp_#rotor>  (883) 
8

>  <i_qp_#rtvFG>  (883) 
1

>  <i_qp_#stars>  (883) 
0

>  <i_qp_CNS>  (883) 
-1

>  <i_qp_HumanOralAbsorption>  (883) 
3

>  <i_qp_RuleOfFive>  (883) 
0

>  <i_qp_RuleOfThree>  (883) 
0

>  <i_sd_BIOSOLVEIT.INFINISEE\_RESULT\_RANK>  (883) 
16409

>  <i_sd_version>  (883) 
0

>  <b_lp_Chiralities_Consistent>  (883) 
1

>  <b_sd_chiral_flag>  (883) 
0

>  <canonical_id>  (883) 
ATP-HTVS-8E1A44B1E9FD

>  <compound_code>  (883) 
75361

>  <title>  (883) 
rxn502b____EMOL480530____EMOL30488121____EMOL50274538

>  <variant>  (883) 
75361-3

>  <source_file>  (883) 
运行/运行/ATP-VSW/ATP-VSW-DOCK_HTVS_1-001_lib/ATP-VSW-DOCK_HTVS_1-001_lib

>  <canonical_smiles>  (883) 
O=C(Nc1c[nH+]c2ccccc2c1NC[C@H](O)c1ccc(Cl)cc1)[C@@H](Cl)c1ccccc1

>  <scaffold>  (883) 
O=C(Cc1ccccc1)Nc1c[nH+]c2ccccc2c1NCCc1ccccc1

>  <molecular_formula>  (883) 
C25H22Cl2N3O2+

$$$$
ATP-HTVS-8E25FC822191
     RDKit          3D

 62 65  0  0  0  0  0  0  0  0999 V2000
  199.7223  182.1344  156.2220 O   0  0  0  0  0  0  0  0  0  0  0  0
  198.6918  181.6138  156.6948 C   0  0  0  0  0  0  0  0  0  0  0  0
  198.4205  180.3091  156.6052 N   0  0  0  0  0  0  0  0  0  0  0  0
  199.3447  179.3206  156.1837 C   0  0  0  0  0  0  0  0  0  0  0  0
  199.2739  178.7974  154.8708 C   0  0  0  0  0  0  0  0  0  0  0  0
  198.3267  179.3260  153.9859 N   0  0  0  0  0  0  0  0  0  0  0  0
  198.8873  180.0736  152.8693 C   0  0  1  0  0  0  0  0  0  0  0  0
  198.0699  179.8412  151.6216 C   0  0  0  0  0  0  0  0  0  0  0  0
  198.6837  179.3119  150.4691 C   0  0  0  0  0  0  0  0  0  0  0  0
  197.9341  179.1042  149.3001 C   0  0  0  0  0  0  0  0  0  0  0  0
  196.5631  179.4251  149.2818 C   0  0  0  0  0  0  0  0  0  0  0  0
  195.9476  179.9487  150.4352 C   0  0  0  0  0  0  0  0  0  0  0  0
  196.6936  180.1526  151.6078 C   0  0  0  0  0  0  0  0  0  0  0  0
  199.0159  181.5470  153.1817 C   0  0  0  0  0  0  0  0  0  0  0  0
  200.1720  182.2222  153.1519 C   0  0  0  0  0  0  0  0  0  0  0  0
  200.1401  177.7256  154.5126 C   0  0  0  0  0  0  0  0  0  0  0  0
  201.0823  177.2436  155.4498 C   0  0  0  0  0  0  0  0  0  0  0  0
  201.1358  177.8144  156.6808 N   0  0  0  0  0  0  0  0  0  0  0  0
  200.3094  178.8097  157.0637 C   0  0  0  0  0  0  0  0  0  0  0  0
  201.9605  176.1874  155.1252 C   0  0  0  0  0  0  0  0  0  0  0  0
  201.8950  175.5981  153.8418 C   0  0  0  0  0  0  0  0  0  0  0  0
  200.9453  176.0502  152.9108 C   0  0  0  0  0  0  0  0  0  0  0  0
  200.0676  177.0957  153.2415 C   0  0  0  0  0  0  0  0  0  0  0  0
  197.7716  182.4166  157.5638 C   0  0  0  0  0  0  0  0  0  0  0  0
  198.3240  183.3539  158.4530 C   0  0  0  0  0  0  0  0  0  0  0  0
  197.5211  184.0708  159.3630 C   0  0  0  0  0  0  0  0  0  0  0  0
  196.1232  183.8655  159.3497 C   0  0  0  0  0  0  0  0  0  0  0  0
  195.5534  182.9339  158.4507 C   0  0  0  0  0  0  0  0  0  0  0  0
  196.3657  182.2055  157.5595 C   0  0  0  0  0  0  0  0  0  0  0  0
  195.2607  184.6589  160.3101 C   0  0  1  0  0  0  0  0  0  0  0  0
  195.1562  186.1104  160.0802 N   0  0  0  0  0  0  0  0  0  0  0  0
  194.3435  186.7185  161.1247 C   0  0  2  0  0  0  0  0  0  0  0  0
  196.4373  186.8168  160.0017 C   0  0  2  0  0  0  0  0  0  0  0  0
  197.5879  179.9597  157.0778 H   0  0  0  0  0  0  0  0  0  0  0  0
  197.6019  179.8489  154.4601 H   0  0  0  0  0  0  0  0  0  0  0  0
  199.8987  179.7177  152.6669 H   0  0  0  0  0  0  0  0  0  0  0  0
  199.7376  179.0745  150.4833 H   0  0  0  0  0  0  0  0  0  0  0  0
  198.4107  178.7080  148.4164 H   0  0  0  0  0  0  0  0  0  0  0  0
  195.9895  179.2792  148.3811 H   0  0  0  0  0  0  0  0  0  0  0  0
  194.8995  180.2084  150.4194 H   0  0  0  0  0  0  0  0  0  0  0  0
  196.2098  180.5643  152.4841 H   0  0  0  0  0  0  0  0  0  0  0  0
  198.1052  182.0672  153.4261 H   0  0  0  0  0  0  0  0  0  0  0  0
  201.1077  181.7474  152.8870 H   0  0  0  0  0  0  0  0  0  0  0  0
  200.1861  183.2772  153.3739 H   0  0  0  0  0  0  0  0  0  0  0  0
  200.4117  179.1413  158.0884 H   0  0  0  0  0  0  0  0  0  0  0  0
  202.6956  175.8291  155.8289 H   0  0  0  0  0  0  0  0  0  0  0  0
  202.5705  174.7979  153.5738 H   0  0  0  0  0  0  0  0  0  0  0  0
  200.8856  175.5975  151.9312 H   0  0  0  0  0  0  0  0  0  0  0  0
  199.3331  177.4134  152.5234 H   0  0  0  0  0  0  0  0  0  0  0  0
  199.3937  183.5234  158.4247 H   0  0  0  0  0  0  0  0  0  0  0  0
  197.9897  184.7024  160.0924 H   0  0  0  0  0  0  0  0  0  0  0  0
  194.4772  182.7607  158.4331 H   0  0  0  0  0  0  0  0  0  0  0  0
  195.9074  181.4863  156.8924 H   0  0  0  0  0  0  0  0  0  0  0  0
  194.2479  184.2504  160.2587 H   0  0  0  0  0  0  0  0  0  0  0  0
  195.6017  184.4623  161.3197 H   0  0  0  0  0  0  0  0  0  0  0  0
  194.2247  187.7847  160.9438 H   0  0  0  0  0  0  0  0  0  0  0  0
  194.8265  186.6084  162.0915 H   0  0  0  0  0  0  0  0  0  0  0  0
  193.3475  186.2757  161.1767 H   0  0  0  0  0  0  0  0  0  0  0  0
  196.2676  187.9075  159.8964 H   0  0  0  0  0  0  0  0  0  0  0  0
  197.0582  186.3891  159.1956 H   0  0  0  0  0  0  0  0  0  0  0  0
  196.9862  186.6662  160.9308 H   0  0  0  0  0  0  0  0  0  0  0  0
  201.8215  177.4592  157.3415 H   0  0  0  0  0  0  0  0  0  0  0  0
  1  2  2  0
  2  3  1  0
  2 24  1  0
  3  4  1  0
  3 34  1  0
  4  5  2  0
  4 19  1  0
  5  6  1  0
  5 16  1  0
  6  7  1  0
  6 35  1  0
  7  8  1  0
  7 14  1  0
  7 36  1  6
  8  9  2  0
  8 13  1  0
  9 10  1  0
  9 37  1  0
 10 11  2  0
 10 38  1  0
 11 12  1  0
 11 39  1  0
 12 13  2  0
 12 40  1  0
 13 41  1  0
 14 15  2  0
 14 42  1  0
 15 43  1  0
 15 44  1  0
 16 17  1  0
 16 23  2  0
 17 18  1  0
 17 20  2  0
 18 19  2  0
 18 62  1  0
 19 45  1  0
 20 21  1  0
 20 46  1  0
 21 22  2  0
 21 47  1  0
 22 23  1  0
 22 48  1  0
 23 49  1  0
 24 25  1  0
 24 29  2  0
 25 26  2  0
 25 50  1  0
 26 27  1  0
 26 51  1  0
 27 28  2  0
 27 30  1  0
 28 29  1  0
 28 52  1  0
 29 53  1  0
 30 31  1  0
 30 54  1  1
 30 55  1  0
 31 32  1  0
 31 33  1  0
 32 56  1  6
 32 57  1  0
 32 58  1  0
 33 59  1  6
 33 60  1  0
 33 61  1  0
M  CHG  1  18   1
M  END
>  <s_epik_cmdline>  (884) 
J2VwaWtfcHl0aG9uJywgJy1waCcsICc3LjAwMDAwMCcsICctcGh0JywgJzIuMDAwMDAwJywgJy1tcycsICcxNicsICctdG4nLCAnOCcsICctbWEnLCAnMjAwJywgJy1pbWFlJywgJzxpbmZpbGUubWFlPicsICctb21hZScsICc8b3V0ZmlsZS5tYWU+Jw==

>  <s_epik_input>  (884) 
W0NIM11OKFtDSDNdKVtDSDJdYyhbY0hdW2NIXTEpW2NIXVtjSF1jMUMoPU8pW05IXWMoW2NIXW5jKGMyMylbY0hdW2NIXVtjSF1bY0hdMyljMltOSF1bQ0BIXShbQ0hdPVtDSDJdKWM0W2NIXVtjSF1bY0hdW2NIXVtjSF00

>  <s_i_glide_gridfile>  (884) 
ATP-Grid

>  <s_lp_Force_Field>  (884) 
OPLS_2005

>  <s_lp_Variant>  (884) 
rxn502b____EMOL18624763____EMOL30488121____EMOL49836578-5

>  <s_lp_label>  (884) 
2704_sdstereoexpander_1_neutralizer_1_epik_3_stereoizer_1

>  <s_m_source_file>  (884) 
ATP-VSW-LIGPREP-001-in.maegz

>  <s_sd_BIOSOLVEIT.INFINISEE\_QUERY\_NAME>  (884) 
Ref-Lig

>  <s_sd_BIOSOLVEIT.INFINISEE\_QUERY\_SMILES>  (884) 
S(c1nc2c(cc1C[NH2+]Cc3ccc(cc3)C[NH+](C)C)cccc2)Cc4ccccc4

>  <s_sd_BIOSOLVEIT.INFINISEE\_REACTION\_NAME>  (884) 
rxn502b

>  <s_sd_BIOSOLVEIT.INFINISEE\_REAGENT1\_NAME>  (884) 
EMOL18624763

>  <s_sd_BIOSOLVEIT.INFINISEE\_REAGENT1\_SMILES>  (884) 
O=C(O)c1ccc(cc1)CN(C)C

>  <s_sd_BIOSOLVEIT.INFINISEE\_REAGENT2\_NAME>  (884) 
EMOL30488121

>  <s_sd_BIOSOLVEIT.INFINISEE\_REAGENT2\_SMILES>  (884) 
Brc1c(N)cnc2c1cccc2

>  <s_sd_BIOSOLVEIT.INFINISEE\_REAGENT3\_NAME>  (884) 
EMOL49836578

>  <s_sd_BIOSOLVEIT.INFINISEE\_REAGENT3\_SMILES>  (884) 
NC(c1ccccc1)C=C

>  <s_sd_BIOSOLVEIT.INFINISEE\_SPACE>  (884) 
eXplore_7tr_2022-12

>  <s_vsw_compound_code>  (884) 
86497

>  <s_vsw_variant>  (884) 
86497-5

>  <r_epik_Charging_Adjusted_Penalty>  (884) 
1.5919218886389299

>  <r_epik_Ionization_Penalty>  (884) 
1.5236000000000001

>  <r_epik_Ionization_Penalty_Charging>  (884) 
0.066100000000000006

>  <r_epik_Ionization_Penalty_Neutral>  (884) 
1.4575

>  <r_epik_State_Penalty>  (884) 
1.5258

>  <r_i_docking_score>  (884) 
-3.2220960967513599

>  <r_i_glide_ecoul>  (884) 
-7.2683234214782697

>  <r_i_glide_eff_state_penalty>  (884) 
1.5258

>  <r_i_glide_einternal>  (884) 
11.522203445434601

>  <r_i_glide_emodel>  (884) 
-53.836494607463997

>  <r_i_glide_energy>  (884) 
-43.019017696380601

>  <r_i_glide_erotb>  (884) 
0.83329467426118498

>  <r_i_glide_esite>  (884) 
-0.133692980504072

>  <r_i_glide_evdw>  (884) 
-35.750694274902301

>  <r_i_glide_gscore>  (884) 
-4.7478960967513597

>  <r_i_glide_hbond>  (884) 
-0.092421127368348094

>  <r_i_glide_ligand_efficiency>  (884) 
-0.097639275659132205

>  <r_i_glide_ligand_efficiency_ln>  (884) 
-0.71657748879677496

>  <r_i_glide_ligand_efficiency_sa>  (884) 
-0.313181328267579

>  <r_i_glide_lipo>  (884) 
-1.8265392998096399

>  <r_i_glide_metal>  (884) 
-0

>  <r_i_glide_rewards>  (884) 
-0.65075413636363499

>  <r_lp_Energy>  (884) 
43.649388999999999

>  <r_qp_ACxDN^.5/SA>  (884) 
0.012020100000000001

>  <r_qp_CIQPlogS>  (884) 
-5.7039999999999997

>  <r_qp_EA(eV)>  (884) 
1.03

>  <r_qp_FISA>  (884) 
72.331999999999994

>  <r_qp_FOSA>  (884) 
223.07499999999999

>  <r_qp_IP(eV)>  (884) 
8.5210000000000008

>  <r_qp_Jm>  (884) 
0.0092057206330032493

>  <r_qp_PISA>  (884) 
469.34199999999998

>  <r_qp_PSA>  (884) 
60.741999999999997

>  <r_qp_PercentHumanOralAbsorption>  (884) 
100

>  <r_qp_QPPCaco>  (884) 
509.18700000000001

>  <r_qp_QPPMDCK>  (884) 
263.875

>  <r_qp_QPlogBB>  (884) 
-0.27200000000000002

>  <r_qp_QPlogHERG>  (884) 
-7.7160000000000002

>  <r_qp_QPlogKhsa>  (884) 
0.82999999999999996

>  <r_qp_QPlogKp>  (884) 
-2.4940000000000002

>  <r_qp_QPlogPC16>  (884) 
15.769

>  <r_qp_QPlogPo/w>  (884) 
4.8860000000000001

>  <r_qp_QPlogPoct>  (884) 
23.577999999999999

>  <r_qp_QPlogPw>  (884) 
12.811

>  <r_qp_QPlogS>  (884) 
-5.1820000000000004

>  <r_qp_QPpolrz>  (884) 
50.247

>  <r_qp_SASA>  (884) 
764.75

>  <r_qp_SAamideO>  (884) 
0

>  <r_qp_SAfluorine>  (884) 
0

>  <r_qp_WPSA>  (884) 
0

>  <r_qp_accptHB>  (884) 
6.5

>  <r_qp_dip^2/V>  (884) 
0.032792300000000003

>  <r_qp_dipole>  (884) 
6.8369999999999997

>  <r_qp_donorHB>  (884) 
2

>  <r_qp_glob>  (884) 
0.80104869999999995

>  <r_qp_mol_MW>  (884) 
436.55500000000001

>  <r_qp_volume>  (884) 
1425.672

>  <r_sd_BIOSOLVEIT.INFINISEE\_FTREES\_SIMILARITY>  (884) 
0.90800000000000003

>  <r_sd_BIOSOLVEIT.LOGP>  (884) 
4.4707999999999997

>  <r_sd_BIOSOLVEIT.MOLECULAR\_WEIGHT>  (884) 
437.56400000000002

>  <r_sd_BIOSOLVEIT.TPSA>  (884) 
58.460000000000001

>  <i_epik_Tot_Q>  (884) 
1

>  <i_epik_Tot_abs_Q>  (884) 
1

>  <i_f3d_flags>  (884) 
0

>  <i_i_glide_confnum>  (884) 
17

>  <i_i_glide_lignum>  (884) 
1197

>  <i_i_glide_posenum>  (884) 
12

>  <i_i_glide_rotatable_bonds>  (884) 
9

>  <i_lp_mmshare_version>  (884) 
65135

>  <i_m_ct_format>  (884) 
2

>  <i_m_source_file_index>  (884) 
2704

>  <i_qp_#NandO>  (884) 
5

>  <i_qp_#acid>  (884) 
0

>  <i_qp_#amide>  (884) 
0

>  <i_qp_#amidine>  (884) 
0

>  <i_qp_#amine>  (884) 
1

>  <i_qp_#in34>  (884) 
0

>  <i_qp_#in56>  (884) 
22

>  <i_qp_#metab>  (884) 
7

>  <i_qp_#nonHatm>  (884) 
33

>  <i_qp_#noncon>  (884) 
0

>  <i_qp_#ringatoms>  (884) 
22

>  <i_qp_#rotor>  (884) 
8

>  <i_qp_#rtvFG>  (884) 
0

>  <i_qp_#stars>  (884) 
1

>  <i_qp_CNS>  (884) 
1

>  <i_qp_HumanOralAbsorption>  (884) 
3

>  <i_qp_RuleOfFive>  (884) 
0

>  <i_qp_RuleOfThree>  (884) 
1

>  <i_sd_BIOSOLVEIT.INFINISEE\_RESULT\_RANK>  (884) 
52975

>  <i_sd_version>  (884) 
0

>  <b_lp_Chiralities_Consistent>  (884) 
1

>  <b_sd_chiral_flag>  (884) 
0

>  <canonical_id>  (884) 
ATP-HTVS-8E25FC822191

>  <compound_code>  (884) 
86497

>  <title>  (884) 
rxn502b____EMOL18624763____EMOL30488121____EMOL49836578

>  <variant>  (884) 
86497-5

>  <source_file>  (884) 
运行/运行/ATP-VSW/ATP-VSW-DOCK_HTVS_1-001_lib/ATP-VSW-DOCK_HTVS_1-001_lib

>  <canonical_smiles>  (884) 
C=C[C@@H](Nc1c(NC(=O)c2ccc(CN(C)C)cc2)c[nH+]c2ccccc12)c1ccccc1

>  <scaffold>  (884) 
O=C(Nc1c[nH+]c2ccccc2c1NCc1ccccc1)c1ccccc1

>  <molecular_formula>  (884) 
C28H29N4O+

$$$$
ATP-HTVS-8E36F3F2ACA8
     RDKit          3D

 55 58  0  0  0  0  0  0  0  0999 V2000
  195.9511  188.4000  160.2636 F   0  0  0  0  0  0  0  0  0  0  0  0
  196.1898  187.1787  159.7537 C   0  0  0  0  0  0  0  0  0  0  0  0
  196.6478  187.0295  158.4228 C   0  0  0  0  0  0  0  0  0  0  0  0
  196.8261  185.7377  157.8919 C   0  0  0  0  0  0  0  0  0  0  0  0
  196.5568  184.5996  158.6502 C   0  0  0  0  0  0  0  0  0  0  0  0
  196.1166  184.7569  160.0105 C   0  0  0  0  0  0  0  0  0  0  0  0
  195.9275  186.0294  160.5266 C   0  0  0  0  0  0  0  0  0  0  0  0
  196.7205  183.2079  158.0687 C   0  0  1  0  0  0  0  0  0  0  0  0
  198.0445  182.6777  158.3265 N   0  0  0  0  0  0  0  0  0  0  0  0
  199.0957  183.2887  157.5222 C   0  0  1  0  0  0  0  0  0  0  0  0
  200.4267  182.6755  157.8050 C   0  0  0  0  0  0  0  0  0  0  0  0
  201.3200  183.2046  158.7285 N   0  0  0  0  0  0  0  0  0  0  0  0
  202.4543  182.3596  158.7113 C   0  0  0  0  0  0  0  0  0  0  0  0
  202.2827  181.3777  157.8328 N   0  0  0  0  0  0  0  0  0  0  0  0
  201.0204  181.5535  157.2734 C   0  0  0  0  0  0  0  0  0  0  0  0
  200.5179  180.6099  156.2649 C   0  0  0  0  0  0  0  0  0  0  0  0
  199.1476  180.2643  156.2118 C   0  0  0  0  0  0  0  0  0  0  0  0
  198.6591  179.3777  155.2377 C   0  0  0  0  0  0  0  0  0  0  0  0
  199.5423  178.8110  154.3021 C   0  0  0  0  0  0  0  0  0  0  0  0
  200.9129  179.1357  154.3496 C   0  0  0  0  0  0  0  0  0  0  0  0
  201.4005  180.0320  155.3231 C   0  0  0  0  0  0  0  0  0  0  0  0
  203.5300  182.6831  159.5806 C   0  0  0  0  0  0  0  0  0  0  0  0
  203.4476  183.7899  160.3930 C   0  0  0  0  0  0  0  0  0  0  0  0
  202.2949  184.6085  160.3710 C   0  0  0  0  0  0  0  0  0  0  0  0
  201.2426  184.3026  159.5404 C   0  0  0  0  0  0  0  0  0  0  0  0
  195.6569  182.1918  158.5660 C   0  0  1  0  0  0  0  0  0  0  0  0
  194.2673  182.5178  158.1452 N   0  0  2  0  0  0  0  0  0  0  0  0
  193.6865  183.7432  158.7444 C   0  0  2  0  0  0  0  0  0  0  0  0
  193.3593  181.3572  158.2720 C   0  0  2  0  0  0  0  0  0  0  0  0
  198.0484  181.6677  158.2044 H   0  0  0  0  0  0  0  0  0  0  0  0
  196.7977  187.9008  157.8128 H   0  0  0  0  0  0  0  0  0  0  0  0
  197.1613  185.6334  156.8589 H   0  0  0  0  0  0  0  0  0  0  0  0
  196.0126  183.9028  160.6606 H   0  0  0  0  0  0  0  0  0  0  0  0
  195.5308  186.1370  161.5262 H   0  0  0  0  0  0  0  0  0  0  0  0
  196.6133  183.2896  156.9848 H   0  0  0  0  0  0  0  0  0  0  0  0
  198.8651  183.1814  156.4607 H   0  0  0  0  0  0  0  0  0  0  0  0
  199.1340  184.3591  157.7206 H   0  0  0  0  0  0  0  0  0  0  0  0
  198.4408  180.6496  156.9247 H   0  0  0  0  0  0  0  0  0  0  0  0
  197.6075  179.1287  155.2356 H   0  0  0  0  0  0  0  0  0  0  0  0
  199.1636  178.1228  153.5609 H   0  0  0  0  0  0  0  0  0  0  0  0
  201.5917  178.6972  153.6340 H   0  0  0  0  0  0  0  0  0  0  0  0
  202.4541  180.2736  155.3494 H   0  0  0  0  0  0  0  0  0  0  0  0
  204.4076  182.0464  159.5847 H   0  0  0  0  0  0  0  0  0  0  0  0
  204.2752  184.0345  161.0522 H   0  0  0  0  0  0  0  0  0  0  0  0
  202.2350  185.4812  161.0140 H   0  0  0  0  0  0  0  0  0  0  0  0
  200.3393  184.9008  159.4896 H   0  0  0  0  0  0  0  0  0  0  0  0
  195.9327  181.2256  158.1501 H   0  0  0  0  0  0  0  0  0  0  0  0
  195.7139  182.0420  159.6542 H   0  0  0  0  0  0  0  0  0  0  0  0
  193.6941  183.6494  159.8332 H   0  0  0  0  0  0  0  0  0  0  0  0
  192.6346  183.8564  158.4771 H   0  0  0  0  0  0  0  0  0  0  0  0
  194.2940  184.6310  158.5192 H   0  0  0  0  0  0  0  0  0  0  0  0
  193.2774  181.0386  159.3144 H   0  0  0  0  0  0  0  0  0  0  0  0
  193.6979  180.5100  157.6753 H   0  0  0  0  0  0  0  0  0  0  0  0
  192.3732  181.6334  157.9041 H   0  0  0  0  0  0  0  0  0  0  0  0
  194.2749  182.6684  157.1231 H   0  0  0  0  0  0  0  0  0  0  0  0
  1  2  1  0
  2  3  1  0
  2  7  2  0
  3  4  2  0
  3 31  1  0
  4  5  1  0
  4 32  1  0
  5  6  2  0
  5  8  1  0
  6  7  1  0
  6 33  1  0
  7 34  1  0
  8  9  1  0
  8 26  1  0
  8 35  1  6
  9 10  1  0
  9 30  1  0
 10 11  1  0
 10 36  1  6
 10 37  1  0
 11 12  1  0
 11 15  2  0
 12 13  1  0
 12 25  1  0
 13 14  2  0
 13 22  1  0
 14 15  1  0
 15 16  1  0
 16 17  2  0
 16 21  1  0
 17 18  1  0
 17 38  1  0
 18 19  2  0
 18 39  1  0
 19 20  1  0
 19 40  1  0
 20 21  2  0
 20 41  1  0
 21 42  1  0
 22 23  2  0
 22 43  1  0
 23 24  1  0
 23 44  1  0
 24 25  2  0
 24 45  1  0
 25 46  1  0
 26 27  1  0
 26 47  1  6
 26 48  1  0
 27 28  1  0
 27 29  1  0
 27 55  1  6
 28 49  1  1
 28 50  1  0
 28 51  1  0
 29 52  1  1
 29 53  1  0
 29 54  1  0
M  CHG  1  27   1
M  END
>  <s_epik_cmdline>  (885) 
J2VwaWtfcHl0aG9uJywgJy1waCcsICc3LjAwMDAwMCcsICctcGh0JywgJzIuMDAwMDAwJywgJy1tcycsICcxNicsICctdG4nLCAnOCcsICctbWEnLCAnMjAwJywgJy1pbWFlJywgJzxpbmZpbGUubWFlPicsICctb21hZScsICc8b3V0ZmlsZS5tYWU+Jw==

>  <s_epik_input>  (885) 
RmMxW2NIXVtjSF1jKFtjSF1bY0hdMSlbQ0BIXShbQ0gyXU4oW0NIM10pW0NIM10pW05IXVtDSDJdYzJjKG5jKG4yMylbY0hdW2NIXVtjSF1bY0hdMyktYzRbY0hdW2NIXVtjSF1bY0hdW2NIXTQ=

>  <s_i_glide_gridfile>  (885) 
ATP-Grid

>  <s_lp_Force_Field>  (885) 
OPLS_2005

>  <s_lp_Variant>  (885) 
m_2230bbb____22400558____680630-1

>  <s_lp_label>  (885) 
2011_sdstereoexpander_1_neutralizer_1_epik_1_stereoizer_1

>  <s_m_source_file>  (885) 
ATP-VSW-LIGPREP-002-in.maegz

>  <s_sd_BIOSOLVEIT.INFINISEE\_QUERY\_NAME>  (885) 
Ref-Lig

>  <s_sd_BIOSOLVEIT.INFINISEE\_QUERY\_SMILES>  (885) 
S(c1nc2c(cc1C[NH2+]Cc3ccc(cc3)C[NH+](C)C)cccc2)Cc4ccccc4

>  <s_sd_BIOSOLVEIT.INFINISEE\_REACTION\_NAME>  (885) 
m_2230bbb

>  <s_sd_BIOSOLVEIT.INFINISEE\_REAGENT1\_SMILES>  (885) 
[R1*]NC(c1ccc(F)cc1)CN(C)C

>  <s_sd_BIOSOLVEIT.INFINISEE\_REAGENT2\_SMILES>  (885) 
[R1*]CC=1N2C(=NC1c3ccccc3)C=CC=C2

>  <s_sd_BIOSOLVEIT.INFINISEE\_SPACE>  (885) 
REALSpace_44bn_2023-08

>  <s_vsw_compound_code>  (885) 
64322

>  <s_vsw_variant>  (885) 
64322-1

>  <r_epik_Charging_Adjusted_Penalty>  (885) 
0.26133441556893999

>  <r_epik_Ionization_Penalty>  (885) 
0.1268

>  <r_epik_Ionization_Penalty_Charging>  (885) 
0.12609999999999999

>  <r_epik_Ionization_Penalty_Neutral>  (885) 
0.00069999999999999999

>  <r_epik_State_Penalty>  (885) 
0.13519999999999999

>  <r_i_docking_score>  (885) 
-4.3078346155410498

>  <r_i_glide_ecoul>  (885) 
-7.0460004806518599

>  <r_i_glide_eff_state_penalty>  (885) 
0.13519999999999999

>  <r_i_glide_einternal>  (885) 
5.6903843879699698

>  <r_i_glide_emodel>  (885) 
-47.763525908551898

>  <r_i_glide_energy>  (885) 
-35.944174766540499

>  <r_i_glide_erotb>  (885) 
0.64253837497036403

>  <r_i_glide_esite>  (885) 
-0.10000000000000001

>  <r_i_glide_evdw>  (885) 
-28.8981742858887

>  <r_i_glide_gscore>  (885) 
-4.4430346155410501

>  <r_i_glide_hbond>  (885) 
-0.20000000000000001

>  <r_i_glide_ligand_efficiency>  (885) 
-0.14854602122555299

>  <r_i_glide_ligand_efficiency_ln>  (885) 
-0.98638488969829896

>  <r_i_glide_ligand_efficiency_sa>  (885) 
-0.456380439887699

>  <r_i_glide_lipo>  (885) 
-1.2317514672743799

>  <r_i_glide_metal>  (885) 
-0

>  <r_i_glide_rewards>  (885) 
-1.05201273684482

>  <r_lp_Energy>  (885) 
28.042870000000001

>  <r_qp_ACxDN^.5/SA>  (885) 
0.0070298000000000001

>  <r_qp_CIQPlogS>  (885) 
-4.2759999999999998

>  <r_qp_EA(eV)>  (885) 
0.63900000000000001

>  <r_qp_FISA>  (885) 
23.902000000000001

>  <r_qp_FOSA>  (885) 
179.32400000000001

>  <r_qp_IP(eV)>  (885) 
8.8249999999999993

>  <r_qp_Jm>  (885) 
0.00343912800161307

>  <r_qp_PISA>  (885) 
461.02100000000002

>  <r_qp_PSA>  (885) 
31.632000000000001

>  <r_qp_PercentHumanOralAbsorption>  (885) 
100

>  <r_qp_QPPCaco>  (885) 
365.62299999999999

>  <r_qp_QPPMDCK>  (885) 
369.26400000000001

>  <r_qp_QPlogBB>  (885) 
0.86899999999999999

>  <r_qp_QPlogHERG>  (885) 
-8.3209999999999997

>  <r_qp_QPlogKhsa>  (885) 
0.89300000000000002

>  <r_qp_QPlogKp>  (885) 
-3.8849999999999998

>  <r_qp_QPlogPC16>  (885) 
13.579000000000001

>  <r_qp_QPlogPo/w>  (885) 
4.7930000000000001

>  <r_qp_QPlogPoct>  (885) 
19.459

>  <r_qp_QPlogPw>  (885) 
9.8119999999999994

>  <r_qp_QPlogS>  (885) 
-4.1680000000000001

>  <r_qp_QPpolrz>  (885) 
46.052999999999997

>  <r_qp_SASA>  (885) 
711.25999999999999

>  <r_qp_SAamideO>  (885) 
0

>  <r_qp_SAfluorine>  (885) 
47.012999999999998

>  <r_qp_WPSA>  (885) 
47.012999999999998

>  <r_qp_accptHB>  (885) 
5

>  <r_qp_dip^2/V>  (885) 
0.0029962000000000001

>  <r_qp_dipole>  (885) 
1.9670000000000001

>  <r_qp_donorHB>  (885) 
1

>  <r_qp_glob>  (885) 
0.80606750000000005

>  <r_qp_mol_MW>  (885) 
388.48700000000002

>  <r_qp_volume>  (885) 
1290.78

>  <r_sd_BIOSOLVEIT.INFINISEE\_FTREES\_SIMILARITY>  (885) 
0.90200000000000002

>  <r_sd_BIOSOLVEIT.LOGP>  (885) 
2.0895999999999999

>  <r_sd_BIOSOLVEIT.MOLECULAR\_WEIGHT>  (885) 
390.50299999999999

>  <r_sd_BIOSOLVEIT.TPSA>  (885) 
38.869999999999997

>  <i_epik_Tot_Q>  (885) 
1

>  <i_epik_Tot_abs_Q>  (885) 
1

>  <i_f3d_flags>  (885) 
0

>  <i_i_glide_confnum>  (885) 
3

>  <i_i_glide_lignum>  (885) 
728

>  <i_i_glide_posenum>  (885) 
18

>  <i_i_glide_rotatable_bonds>  (885) 
7

>  <i_lp_mmshare_version>  (885) 
65135

>  <i_m_ct_format>  (885) 
2

>  <i_m_source_file_index>  (885) 
2011

>  <i_qp_#NandO>  (885) 
4

>  <i_qp_#acid>  (885) 
0

>  <i_qp_#amide>  (885) 
0

>  <i_qp_#amidine>  (885) 
0

>  <i_qp_#amine>  (885) 
2

>  <i_qp_#in34>  (885) 
0

>  <i_qp_#in56>  (885) 
21

>  <i_qp_#metab>  (885) 
4

>  <i_qp_#nonHatm>  (885) 
29

>  <i_qp_#noncon>  (885) 
0

>  <i_qp_#ringatoms>  (885) 
21

>  <i_qp_#rotor>  (885) 
6

>  <i_qp_#rtvFG>  (885) 
0

>  <i_qp_#stars>  (885) 
1

>  <i_qp_CNS>  (885) 
2

>  <i_qp_HumanOralAbsorption>  (885) 
3

>  <i_qp_RuleOfFive>  (885) 
0

>  <i_qp_RuleOfThree>  (885) 
0

>  <i_sd_BIOSOLVEIT.INFINISEE\_REAGENT1\_NAME>  (885) 
22400558

>  <i_sd_BIOSOLVEIT.INFINISEE\_REAGENT2\_NAME>  (885) 
680630

>  <i_sd_BIOSOLVEIT.INFINISEE\_RESULT\_RANK>  (885) 
91454

>  <i_sd_version>  (885) 
0

>  <b_lp_Chiralities_Consistent>  (885) 
1

>  <b_sd_chiral_flag>  (885) 
0

>  <canonical_id>  (885) 
ATP-HTVS-8E36F3F2ACA8

>  <compound_code>  (885) 
64322

>  <title>  (885) 
m_2230bbb____22400558____680630

>  <variant>  (885) 
64322-1

>  <source_file>  (885) 
运行/运行/ATP-VSW/ATP-VSW-DOCK_HTVS_1-002_lib.maegz

>  <canonical_smiles>  (885) 
C[NH+](C)C[C@H](NCc1c(-c2ccccc2)nc2ccccn12)c1ccc(F)cc1

>  <scaffold>  (885) 
c1ccc(CNCc2c(-c3ccccc3)nc3ccccn23)cc1

>  <molecular_formula>  (885) 
C24H26FN4+

$$$$
ATP-HTVS-8E3D409F2843
     RDKit          3D

 55 57  0  0  0  0  0  0  0  0999 V2000
  197.0380  184.5115  158.7422 S   0  0  0  0  0  0  0  0  0  0  0  0
  195.6546  185.1529  159.5988 C   0  0  0  0  0  0  0  0  0  0  0  0
  195.7100  186.4915  160.1986 C   0  0  0  0  0  0  0  0  0  0  0  0
  194.7346  186.8880  161.1429 C   0  0  0  0  0  0  0  0  0  0  0  0
  194.7505  188.1768  161.7135 C   0  0  0  0  0  0  0  0  0  0  0  0
  195.7469  189.1142  161.3356 C   0  0  0  0  0  0  0  0  0  0  0  0
  195.7730  190.4678  161.9339 N   0  0  0  0  0  0  0  0  0  0  0  0
  196.7453  191.1871  161.7262 O   0  0  0  0  0  0  0  0  0  0  0  0
  194.8220  190.8030  162.6363 O   0  0  0  0  0  0  0  0  0  0  0  0
  196.7243  188.7226  160.3984 C   0  0  0  0  0  0  0  0  0  0  0  0
  196.6963  187.4355  159.8260 C   0  0  0  0  0  0  0  0  0  0  0  0
  194.6351  184.2337  159.6173 C   0  0  0  0  0  0  0  0  0  0  0  0
  194.9540  183.0085  158.9548 C   0  0  0  0  0  0  0  0  0  0  0  0
  196.2160  183.0061  158.4211 C   0  0  0  0  0  0  0  0  0  0  0  0
  196.9053  181.9136  157.6772 C   0  0  1  0  0  0  0  0  0  0  0  0
  196.1085  181.4413  156.5332 N   0  0  1  0  0  0  0  0  0  0  0  0
  196.8331  180.5492  155.6104 C   0  0  1  0  0  0  0  0  0  0  0  0
  196.9440  181.1698  154.2086 C   0  0  1  0  0  0  0  0  0  0  0  0
  197.6114  180.2380  153.2128 C   0  0  0  0  0  0  0  0  0  0  0  0
  196.9198  179.8155  152.0582 C   0  0  0  0  0  0  0  0  0  0  0  0
  197.5467  178.9559  151.1359 C   0  0  0  0  0  0  0  0  0  0  0  0
  198.8617  178.4996  151.3654 C   0  0  0  0  0  0  0  0  0  0  0  0
  199.5540  178.9269  152.5175 C   0  0  0  0  0  0  0  0  0  0  0  0
  198.9332  179.7938  153.4340 C   0  0  0  0  0  0  0  0  0  0  0  0
  199.5384  177.5693  150.3742 C   0  0  1  0  0  0  0  0  0  0  0  0
  199.6563  176.1815  150.8920 N   0  0  2  0  0  0  0  0  0  0  0  0
  200.6144  175.3732  150.1040 C   0  0  2  0  0  0  0  0  0  0  0  0
  198.3563  175.4907  151.0383 C   0  0  2  0  0  0  0  0  0  0  0  0
  195.3736  180.8686  156.9363 H   0  0  0  0  0  0  0  0  0  0  0  0
  193.9493  186.2095  161.4346 H   0  0  0  0  0  0  0  0  0  0  0  0
  193.9841  188.4492  162.4230 H   0  0  0  0  0  0  0  0  0  0  0  0
  197.4982  189.4198  160.0994 H   0  0  0  0  0  0  0  0  0  0  0  0
  197.4497  187.1971  159.0910 H   0  0  0  0  0  0  0  0  0  0  0  0
  193.6744  184.3809  160.0879 H   0  0  0  0  0  0  0  0  0  0  0  0
  194.2571  182.1810  158.9078 H   0  0  0  0  0  0  0  0  0  0  0  0
  197.8782  182.2681  157.3329 H   0  0  0  0  0  0  0  0  0  0  0  0
  197.0920  181.0704  158.3399 H   0  0  0  0  0  0  0  0  0  0  0  0
  197.8165  180.2895  156.0067 H   0  0  0  0  0  0  0  0  0  0  0  0
  196.2904  179.6065  155.5705 H   0  0  0  0  0  0  0  0  0  0  0  0
  195.9489  181.4453  153.8515 H   0  0  0  0  0  0  0  0  0  0  0  0
  197.5165  182.0969  154.2457 H   0  0  0  0  0  0  0  0  0  0  0  0
  195.9105  180.1542  151.8711 H   0  0  0  0  0  0  0  0  0  0  0  0
  197.0074  178.6478  150.2526 H   0  0  0  0  0  0  0  0  0  0  0  0
  200.5656  178.5977  152.7086 H   0  0  0  0  0  0  0  0  0  0  0  0
  199.4821  180.1167  154.3073 H   0  0  0  0  0  0  0  0  0  0  0  0
  199.0029  177.5715  149.4229 H   0  0  0  0  0  0  0  0  0  0  0  0
  200.5304  177.9775  150.1694 H   0  0  0  0  0  0  0  0  0  0  0  0
  200.2664  175.2439  149.0768 H   0  0  0  0  0  0  0  0  0  0  0  0
  200.7428  174.3815  150.5430 H   0  0  0  0  0  0  0  0  0  0  0  0
  201.5962  175.8504  150.0752 H   0  0  0  0  0  0  0  0  0  0  0  0
  197.8535  175.4084  150.0753 H   0  0  0  0  0  0  0  0  0  0  0  0
  197.7056  176.0224  151.7254 H   0  0  0  0  0  0  0  0  0  0  0  0
  198.4921  174.4915  151.4495 H   0  0  0  0  0  0  0  0  0  0  0  0
  195.6727  182.2140  156.0438 H   0  0  0  0  0  0  0  0  0  0  0  0
  200.0464  176.2637  151.8210 H   0  0  0  0  0  0  0  0  0  0  0  0
  1  2  1  0
  1 14  1  0
  2  3  1  0
  2 12  2  0
  3  4  1  0
  3 11  2  0
  4  5  2  0
  4 30  1  0
  5  6  1  0
  5 31  1  0
  6  7  1  0
  6 10  2  0
  7  8  1  0
  7  9  2  0
 10 11  1  0
 10 32  1  0
 11 33  1  0
 12 13  1  0
 12 34  1  0
 13 14  2  0
 13 35  1  0
 14 15  1  0
 15 16  1  0
 15 36  1  6
 15 37  1  0
 16 17  1  0
 16 29  1  1
 16 54  1  0
 17 18  1  0
 17 38  1  1
 17 39  1  0
 18 19  1  0
 18 40  1  6
 18 41  1  0
 19 20  1  0
 19 24  2  0
 20 21  2  0
 20 42  1  0
 21 22  1  0
 21 43  1  0
 22 23  2  0
 22 25  1  0
 23 24  1  0
 23 44  1  0
 24 45  1  0
 25 26  1  0
 25 46  1  6
 25 47  1  0
 26 27  1  0
 26 28  1  0
 26 55  1  1
 27 48  1  6
 27 49  1  0
 27 50  1  0
 28 51  1  6
 28 52  1  0
 28 53  1  0
M  CHG  4   7   1   8  -1  16   1  26   1
M  END
>  <s_epik_cmdline>  (886) 
J2VwaWtfcHl0aG9uJywgJy1waCcsICc3LjAwMDAwMCcsICctcGh0JywgJzIuMDAwMDAwJywgJy1tcycsICcxNicsICctdG4nLCAnOCcsICctbWEnLCAnMjAwJywgJy1pbWFlJywgJzxpbmZpbGUubWFlPicsICctb21hZScsICc8b3V0ZmlsZS5tYWU+Jw==

>  <s_epik_input>  (886) 
W08tXVtOK10oPU8pYyhbY0hdW2NIXTEpW2NIXVtjSF1jMS1jMnNjKFtjSF1bY0hdMilbQ0gyXVtOSF1bQ0gyXVtDSDJdYzNbY0hdW2NIXWMoW2NIXVtjSF0zKVtDSDJdTihbQ0gzXSlbQ0gzXQ==

>  <s_i_glide_gridfile>  (886) 
ATP-Grid

>  <s_lp_Force_Field>  (886) 
OPLS_2005

>  <s_lp_Variant>  (886) 
m_270004bbb____15775648____7548658-1

>  <s_lp_label>  (886) 
1743_sdstereoexpander_1_neutralizer_1_epik_1_stereoizer_1

>  <s_m_source_file>  (886) 
ATP-VSW-LIGPREP-002-in.maegz

>  <s_sd_BIOSOLVEIT.INFINISEE\_QUERY\_NAME>  (886) 
Ref-Lig

>  <s_sd_BIOSOLVEIT.INFINISEE\_QUERY\_SMILES>  (886) 
S(c1nc2c(cc1C[NH2+]Cc3ccc(cc3)C[NH+](C)C)cccc2)Cc4ccccc4

>  <s_sd_BIOSOLVEIT.INFINISEE\_REACTION\_NAME>  (886) 
m_270004bbb

>  <s_sd_BIOSOLVEIT.INFINISEE\_REAGENT1\_SMILES>  (886) 
[R1*]NCCc1ccc(cc1)CN(C)C

>  <s_sd_BIOSOLVEIT.INFINISEE\_REAGENT2\_SMILES>  (886) 
[R1*]CC=1SC(c2ccc([N+]([O-])=O)cc2)=CC1

>  <s_sd_BIOSOLVEIT.INFINISEE\_SPACE>  (886) 
REALSpace_44bn_2023-08

>  <s_vsw_compound_code>  (886) 
55746

>  <s_vsw_variant>  (886) 
55746-1

>  <r_epik_Charging_Adjusted_Penalty>  (886) 
0.127492986648304

>  <r_epik_Ionization_Penalty>  (886) 
0.064399999999999999

>  <r_epik_Ionization_Penalty_Charging>  (886) 
0.064399999999999999

>  <r_epik_Ionization_Penalty_Neutral>  (886) 
0

>  <r_epik_State_Penalty>  (886) 
0.063100000000000003

>  <r_i_docking_score>  (886) 
-6.1179949635366402

>  <r_i_glide_ecoul>  (886) 
-13.385217666626

>  <r_i_glide_eff_state_penalty>  (886) 
0.063100000000000003

>  <r_i_glide_einternal>  (886) 
4.8753113746643102

>  <r_i_glide_emodel>  (886) 
-75.413791174209706

>  <r_i_glide_energy>  (886) 
-49.280309677124002

>  <r_i_glide_erotb>  (886) 
0.86709312904320202

>  <r_i_glide_esite>  (886) 
-0.224538824597563

>  <r_i_glide_evdw>  (886) 
-35.895092010497997

>  <r_i_glide_gscore>  (886) 
-6.1810949635366397

>  <r_i_glide_hbond>  (886) 
-0.197466287426416

>  <r_i_glide_ligand_efficiency>  (886) 
-0.218499820126308

>  <r_i_glide_ligand_efficiency_ln>  (886) 
-1.4122128697218901

>  <r_i_glide_ligand_efficiency_sa>  (886) 
-0.66349414341539803

>  <r_i_glide_lipo>  (886) 
-1.9000185482188801

>  <r_i_glide_metal>  (886) 
-0

>  <r_i_glide_rewards>  (886) 
-0.92362718181818004

>  <r_lp_Energy>  (886) 
20.179513

>  <r_qp_ACxDN^.5/SA>  (886) 
0.0058973999999999997

>  <r_qp_CIQPlogS>  (886) 
-4.3810000000000002

>  <r_qp_EA(eV)>  (886) 
1.6200000000000001

>  <r_qp_FISA>  (886) 
118.892

>  <r_qp_FOSA>  (886) 
282.61599999999999

>  <r_qp_IP(eV)>  (886) 
9.0950000000000006

>  <r_qp_Jm>  (886) 
7.05265403698731e-06

>  <r_qp_PISA>  (886) 
337.76999999999998

>  <r_qp_PSA>  (886) 
64.548000000000002

>  <r_qp_PercentHumanOralAbsorption>  (886) 
82.218999999999994

>  <r_qp_QPPCaco>  (886) 
45.945999999999998

>  <r_qp_QPPMDCK>  (886) 
29.265999999999998

>  <r_qp_QPlogBB>  (886) 
-0.41099999999999998

>  <r_qp_QPlogHERG>  (886) 
-8.3659999999999997

>  <r_qp_QPlogKhsa>  (886) 
1.01

>  <r_qp_QPlogKp>  (886) 
-5.8780000000000001

>  <r_qp_QPlogPC16>  (886) 
14.382

>  <r_qp_QPlogPo/w>  (886) 
4.359

>  <r_qp_QPlogPoct>  (886) 
19.498999999999999

>  <r_qp_QPlogPw>  (886) 
8.8019999999999996

>  <r_qp_QPlogS>  (886) 
-4.8710000000000004

>  <r_qp_QPpolrz>  (886) 
45.207000000000001

>  <r_qp_SASA>  (886) 
763.048

>  <r_qp_SAamideO>  (886) 
0

>  <r_qp_SAfluorine>  (886) 
0

>  <r_qp_WPSA>  (886) 
23.768999999999998

>  <r_qp_accptHB>  (886) 
4.5

>  <r_qp_dip^2/V>  (886) 
0.053092599999999997

>  <r_qp_dipole>  (886) 
8.407

>  <r_qp_donorHB>  (886) 
1

>  <r_qp_glob>  (886) 
0.76694200000000001

>  <r_qp_mol_MW>  (886) 
395.51799999999997

>  <r_qp_volume>  (886) 
1331.1400000000001

>  <r_sd_BIOSOLVEIT.INFINISEE\_FTREES\_SIMILARITY>  (886) 
0.90400000000000003

>  <r_sd_BIOSOLVEIT.LOGP>  (886) 
2.2738999999999998

>  <r_sd_BIOSOLVEIT.MOLECULAR\_WEIGHT>  (886) 
397.53899999999999

>  <r_sd_BIOSOLVEIT.TPSA>  (886) 
66.870000000000005

>  <i_epik_Tot_Q>  (886) 
2

>  <i_epik_Tot_abs_Q>  (886) 
4

>  <i_f3d_flags>  (886) 
0

>  <i_i_glide_confnum>  (886) 
8

>  <i_i_glide_lignum>  (886) 
600

>  <i_i_glide_posenum>  (886) 
1

>  <i_i_glide_rotatable_bonds>  (886) 
9

>  <i_lp_mmshare_version>  (886) 
65135

>  <i_m_ct_format>  (886) 
2

>  <i_m_source_file_index>  (886) 
1743

>  <i_qp_#NandO>  (886) 
5

>  <i_qp_#acid>  (886) 
0

>  <i_qp_#amide>  (886) 
0

>  <i_qp_#amidine>  (886) 
0

>  <i_qp_#amine>  (886) 
2

>  <i_qp_#in34>  (886) 
0

>  <i_qp_#in56>  (886) 
17

>  <i_qp_#metab>  (886) 
7

>  <i_qp_#nonHatm>  (886) 
28

>  <i_qp_#noncon>  (886) 
0

>  <i_qp_#ringatoms>  (886) 
17

>  <i_qp_#rotor>  (886) 
8

>  <i_qp_#rtvFG>  (886) 
0

>  <i_qp_#stars>  (886) 
0

>  <i_qp_CNS>  (886) 
1

>  <i_qp_HumanOralAbsorption>  (886) 
2

>  <i_qp_RuleOfFive>  (886) 
0

>  <i_qp_RuleOfThree>  (886) 
1

>  <i_sd_BIOSOLVEIT.INFINISEE\_REAGENT1\_NAME>  (886) 
15775648

>  <i_sd_BIOSOLVEIT.INFINISEE\_REAGENT2\_NAME>  (886) 
7548658

>  <i_sd_BIOSOLVEIT.INFINISEE\_RESULT\_RANK>  (886) 
74222

>  <i_sd_version>  (886) 
0

>  <b_lp_Chiralities_Consistent>  (886) 
1

>  <b_sd_chiral_flag>  (886) 
0

>  <canonical_id>  (886) 
ATP-HTVS-8E3D409F2843

>  <compound_code>  (886) 
55746

>  <title>  (886) 
m_270004bbb____15775648____7548658

>  <variant>  (886) 
55746-1

>  <source_file>  (886) 
运行/运行/ATP-VSW/ATP-VSW-DOCK_HTVS_1-002_lib.maegz

>  <canonical_smiles>  (886) 
C[NH+](C)Cc1ccc(CC[NH2+]Cc2ccc(-c3ccc([N+](=O)[O-])cc3)s2)cc1

>  <scaffold>  (886) 
c1ccc(CC[NH2+]Cc2ccc(-c3ccccc3)s2)cc1

>  <molecular_formula>  (886) 
C22H27N3O2S+2

$$$$
ATP-HTVS-8E434DB2B88E
     RDKit          3D

 52 54  0  0  0  0  0  0  0  0999 V2000
  201.5109  178.6880  153.7560 F   0  0  0  0  0  0  0  0  0  0  0  0
  200.6005  179.4450  154.4165 C   0  0  0  0  0  0  0  0  0  0  0  0
  199.4385  179.9045  153.7658 C   0  0  0  0  0  0  0  0  0  0  0  0
  199.2167  179.5440  152.4312 N   0  0  0  0  0  0  0  0  0  0  0  0
  198.3493  180.3575  151.5895 C   0  0  1  0  0  0  0  0  0  0  0  0
  198.2561  179.8445  150.1693 C   0  0  0  0  0  0  0  0  0  0  0  0
  198.7998  180.5958  149.1086 C   0  0  0  0  0  0  0  0  0  0  0  0
  198.6940  180.1279  147.7834 C   0  0  0  0  0  0  0  0  0  0  0  0
  198.0852  178.8799  147.5138 C   0  0  0  0  0  0  0  0  0  0  0  0
  197.5369  178.1366  148.5851 C   0  0  0  0  0  0  0  0  0  0  0  0
  197.6162  178.6220  149.9063 C   0  0  0  0  0  0  0  0  0  0  0  0
  198.0476  178.3356  146.0881 C   0  0  1  0  0  0  0  0  0  0  0  0
  199.3733  177.8369  145.6248 N   0  0  2  0  0  0  0  0  0  0  0  0
  199.9252  176.7651  146.4860 C   0  0  2  0  0  0  0  0  0  0  0  0
  200.3683  178.9011  145.3656 C   0  0  2  0  0  0  0  0  0  0  0  0
  198.5371  180.7106  154.5017 C   0  0  0  0  0  0  0  0  0  0  0  0
  198.8245  181.0324  155.8464 C   0  0  0  0  0  0  0  0  0  0  0  0
  199.9483  180.5837  156.4560 N   0  0  0  0  0  0  0  0  0  0  0  0
  200.8034  179.8019  155.7618 C   0  0  0  0  0  0  0  0  0  0  0  0
  197.8397  181.8120  156.5052 N   0  0  0  0  0  0  0  0  0  0  0  0
  198.0037  182.6449  157.5488 C   0  0  0  0  0  0  0  0  0  0  0  0
  199.0925  183.0343  157.9731 O   0  0  0  0  0  0  0  0  0  0  0  0
  196.7260  183.1711  158.1391 C   0  0  0  0  0  0  0  0  0  0  0  0
  196.7060  184.4334  158.7701 C   0  0  0  0  0  0  0  0  0  0  0  0
  195.5173  184.9243  159.3481 C   0  0  0  0  0  0  0  0  0  0  0  0
  195.5111  186.1385  159.9488 F   0  0  0  0  0  0  0  0  0  0  0  0
  194.3392  184.1585  159.2968 C   0  0  0  0  0  0  0  0  0  0  0  0
  194.3506  182.8946  158.6781 C   0  0  0  0  0  0  0  0  0  0  0  0
  195.5422  182.4010  158.1147 C   0  0  0  0  0  0  0  0  0  0  0  0
  199.8882  178.9361  151.9827 H   0  0  0  0  0  0  0  0  0  0  0  0
  197.3396  180.3619  151.9978 H   0  0  0  0  0  0  0  0  0  0  0  0
  198.6999  181.3904  151.5853 H   0  0  0  0  0  0  0  0  0  0  0  0
  199.3052  181.5311  149.3060 H   0  0  0  0  0  0  0  0  0  0  0  0
  199.0764  180.7385  146.9800 H   0  0  0  0  0  0  0  0  0  0  0  0
  197.0585  177.1785  148.4026 H   0  0  0  0  0  0  0  0  0  0  0  0
  197.2089  178.0516  150.7285 H   0  0  0  0  0  0  0  0  0  0  0  0
  197.3346  177.5114  146.0386 H   0  0  0  0  0  0  0  0  0  0  0  0
  197.6633  179.0979  145.4121 H   0  0  0  0  0  0  0  0  0  0  0  0
  200.1501  177.1399  147.4865 H   0  0  0  0  0  0  0  0  0  0  0  0
  200.8514  176.3697  146.0645 H   0  0  0  0  0  0  0  0  0  0  0  0
  199.2253  175.9391  146.5938 H   0  0  0  0  0  0  0  0  0  0  0  0
  200.6776  179.3944  146.2939 H   0  0  0  0  0  0  0  0  0  0  0  0
  199.9530  179.6643  144.7033 H   0  0  0  0  0  0  0  0  0  0  0  0
  201.2539  178.4899  144.8646 H   0  0  0  0  0  0  0  0  0  0  0  0
  197.6278  181.0753  154.0469 H   0  0  0  0  0  0  0  0  0  0  0  0
  201.6759  179.4575  156.2950 H   0  0  0  0  0  0  0  0  0  0  0  0
  196.8968  181.7029  156.1668 H   0  0  0  0  0  0  0  0  0  0  0  0
  197.6021  185.0364  158.8050 H   0  0  0  0  0  0  0  0  0  0  0  0
  193.4294  184.5358  159.7371 H   0  0  0  0  0  0  0  0  0  0  0  0
  193.4489  182.3008  158.6250 H   0  0  0  0  0  0  0  0  0  0  0  0
  195.5112  181.4339  157.6427 H   0  0  0  0  0  0  0  0  0  0  0  0
  199.1983  177.4179  144.7177 H   0  0  0  0  0  0  0  0  0  0  0  0
  1  2  1  0
  2  3  2  0
  2 19  1  0
  3  4  1  0
  3 16  1  0
  4  5  1  0
  4 30  1  0
  5  6  1  0
  5 31  1  1
  5 32  1  0
  6  7  1  0
  6 11  2  0
  7  8  2  0
  7 33  1  0
  8  9  1  0
  8 34  1  0
  9 10  2  0
  9 12  1  0
 10 11  1  0
 10 35  1  0
 11 36  1  0
 12 13  1  0
 12 37  1  1
 12 38  1  0
 13 14  1  0
 13 15  1  0
 13 52  1  6
 14 39  1  1
 14 40  1  0
 14 41  1  0
 15 42  1  1
 15 43  1  0
 15 44  1  0
 16 17  2  0
 16 45  1  0
 17 18  1  0
 17 20  1  0
 18 19  2  0
 19 46  1  0
 20 21  1  0
 20 47  1  0
 21 22  2  0
 21 23  1  0
 23 24  1  0
 23 29  2  0
 24 25  2  0
 24 48  1  0
 25 26  1  0
 25 27  1  0
 27 28  2  0
 27 49  1  0
 28 29  1  0
 28 50  1  0
 29 51  1  0
M  CHG  1  13   1
M  END
>  <s_epik_cmdline>  (887) 
J2VwaWtfcHl0aG9uJywgJy1waCcsICc3LjAwMDAwMCcsICctcGh0JywgJzIuMDAwMDAwJywgJy1tcycsICcxNicsICctdG4nLCAnOCcsICctbWEnLCAnMjAwJywgJy1pbWFlJywgJzxpbmZpbGUubWFlPicsICctb21hZScsICc8b3V0ZmlsZS5tYWU+Jw==

>  <s_epik_input>  (887) 
W0NIM11OKFtDSDNdKVtDSDJdYyhbY0hdW2NIXTEpW2NIXVtjSF1jMVtDSDJdW05IXWMoYzJGKVtjSF1jKG5bY0hdMilbTkhdQyg9TyljM1tjSF1jKEYpW2NIXVtjSF1bY0hdMw==

>  <s_i_glide_gridfile>  (887) 
ATP-Grid

>  <s_lp_Force_Field>  (887) 
OPLS_2005

>  <s_lp_Variant>  (887) 
rxn502a____EMOL511643____EMOL54476413____EMOL50155899-1

>  <s_lp_label>  (887) 
2942_sdstereoexpander_1_neutralizer_1_epik_1_stereoizer_1

>  <s_m_source_file>  (887) 
ATP-VSW-LIGPREP-003-in.maegz

>  <s_sd_BIOSOLVEIT.INFINISEE\_QUERY\_NAME>  (887) 
Ref-Lig

>  <s_sd_BIOSOLVEIT.INFINISEE\_QUERY\_SMILES>  (887) 
S(c1nc2c(cc1C[NH2+]Cc3ccc(cc3)C[NH+](C)C)cccc2)Cc4ccccc4

>  <s_sd_BIOSOLVEIT.INFINISEE\_REACTION\_NAME>  (887) 
rxn502a

>  <s_sd_BIOSOLVEIT.INFINISEE\_REAGENT1\_NAME>  (887) 
EMOL511643

>  <s_sd_BIOSOLVEIT.INFINISEE\_REAGENT1\_SMILES>  (887) 
Fc1cc(ccc1)C(=O)O

>  <s_sd_BIOSOLVEIT.INFINISEE\_REAGENT2\_NAME>  (887) 
EMOL54476413

>  <s_sd_BIOSOLVEIT.INFINISEE\_REAGENT2\_SMILES>  (887) 
Ic1c(F)cnc(N)c1

>  <s_sd_BIOSOLVEIT.INFINISEE\_REAGENT3\_NAME>  (887) 
EMOL50155899

>  <s_sd_BIOSOLVEIT.INFINISEE\_REAGENT3\_SMILES>  (887) 
N(Cc1ccc(cc1)CN)(C)C

>  <s_sd_BIOSOLVEIT.INFINISEE\_SPACE>  (887) 
eXplore_7tr_2022-12

>  <s_vsw_compound_code>  (887) 
94115

>  <s_vsw_variant>  (887) 
94115-1

>  <r_epik_Charging_Adjusted_Penalty>  (887) 
0.078407994868761793

>  <r_epik_Ionization_Penalty>  (887) 
0.040899999999999999

>  <r_epik_Ionization_Penalty_Charging>  (887) 
0.039199999999999999

>  <r_epik_Ionization_Penalty_Neutral>  (887) 
0.0016999999999999999

>  <r_epik_State_Penalty>  (887) 
0.039199999999999999

>  <r_i_docking_score>  (887) 
-3.9147421125781601

>  <r_i_glide_ecoul>  (887) 
-6.8186507225036603

>  <r_i_glide_eff_state_penalty>  (887) 
0.039199999999999999

>  <r_i_glide_einternal>  (887) 
3.8732459545135498

>  <r_i_glide_emodel>  (887) 
-46.1178001328189

>  <r_i_glide_energy>  (887) 
-35.037509441375697

>  <r_i_glide_erotb>  (887) 
0.86746074049047694

>  <r_i_glide_esite>  (887) 
-0.13597734151989299

>  <r_i_glide_evdw>  (887) 
-28.218858718872099

>  <r_i_glide_gscore>  (887) 
-3.9539421125781602

>  <r_i_glide_hbond>  (887) 
-0.18890108338606601

>  <r_i_glide_ligand_efficiency>  (887) 
-0.134991107330281

>  <r_i_glide_ligand_efficiency_ln>  (887) 
-0.89637667448561198

>  <r_i_glide_ligand_efficiency_sa>  (887) 
-0.41473544990327499

>  <r_i_glide_lipo>  (887) 
-0.77324068810583202

>  <r_i_glide_metal>  (887) 
-0

>  <r_i_glide_rewards>  (887) 
-1.2895431957376899

>  <r_lp_Energy>  (887) 
24.462696000000001

>  <r_lp_tautomer_probability>  (887) 
0.999999106000799

>  <r_qp_ACxDN^.5/SA>  (887) 
0.0123175

>  <r_qp_CIQPlogS>  (887) 
-4.665

>  <r_qp_EA(eV)>  (887) 
0.68100000000000005

>  <r_qp_FISA>  (887) 
73.700000000000003

>  <r_qp_FOSA>  (887) 
206.15199999999999

>  <r_qp_IP(eV)>  (887) 
8.6440000000000001

>  <r_qp_Jm>  (887) 
0.0017462714922835501

>  <r_qp_PISA>  (887) 
376.86000000000001

>  <r_qp_PSA>  (887) 
64.120000000000005

>  <r_qp_PercentHumanOralAbsorption>  (887) 
100

>  <r_qp_QPPCaco>  (887) 
494.19999999999999

>  <r_qp_QPPMDCK>  (887) 
790.77800000000002

>  <r_qp_QPlogBB>  (887) 
-0.064000000000000001

>  <r_qp_QPlogHERG>  (887) 
-7.7400000000000002

>  <r_qp_QPlogKhsa>  (887) 
0.52300000000000002

>  <r_qp_QPlogKp>  (887) 
-2.9409999999999998

>  <r_qp_QPlogPC16>  (887) 
13.499000000000001

>  <r_qp_QPlogPo/w>  (887) 
4.2919999999999998

>  <r_qp_QPlogPoct>  (887) 
22.085000000000001

>  <r_qp_QPlogPw>  (887) 
12.398999999999999

>  <r_qp_QPlogS>  (887) 
-5.415

>  <r_qp_QPpolrz>  (887) 
45.015000000000001

>  <r_qp_SASA>  (887) 
746.28499999999997

>  <r_qp_SAamideO>  (887) 
0

>  <r_qp_SAfluorine>  (887) 
89.572999999999993

>  <r_qp_WPSA>  (887) 
89.572999999999993

>  <r_qp_accptHB>  (887) 
6.5

>  <r_qp_dip^2/V>  (887) 
0.045969299999999998

>  <r_qp_dipole>  (887) 
7.7329999999999997

>  <r_qp_donorHB>  (887) 
2

>  <r_qp_glob>  (887) 
0.77227259999999998

>  <r_qp_mol_MW>  (887) 
396.43900000000002

>  <r_qp_volume>  (887) 
1300.9649999999999

>  <r_sd_BIOSOLVEIT.INFINISEE\_FTREES\_SIMILARITY>  (887) 
0.90400000000000003

>  <r_sd_BIOSOLVEIT.LOGP>  (887) 
2.8687

>  <r_sd_BIOSOLVEIT.MOLECULAR\_WEIGHT>  (887) 
397.447

>  <r_sd_BIOSOLVEIT.TPSA>  (887) 
58.460000000000001

>  <i_epik_Tot_Q>  (887) 
1

>  <i_epik_Tot_abs_Q>  (887) 
1

>  <i_f3d_flags>  (887) 
0

>  <i_i_glide_confnum>  (887) 
3

>  <i_i_glide_lignum>  (887) 
1461

>  <i_i_glide_posenum>  (887) 
13

>  <i_i_glide_rotatable_bonds>  (887) 
8

>  <i_lp_mmshare_version>  (887) 
65135

>  <i_m_ct_format>  (887) 
2

>  <i_m_source_file_index>  (887) 
2942

>  <i_qp_#NandO>  (887) 
5

>  <i_qp_#acid>  (887) 
0

>  <i_qp_#amide>  (887) 
0

>  <i_qp_#amidine>  (887) 
0

>  <i_qp_#amine>  (887) 
1

>  <i_qp_#in34>  (887) 
0

>  <i_qp_#in56>  (887) 
18

>  <i_qp_#metab>  (887) 
6

>  <i_qp_#nonHatm>  (887) 
29

>  <i_qp_#noncon>  (887) 
0

>  <i_qp_#ringatoms>  (887) 
18

>  <i_qp_#rotor>  (887) 
7

>  <i_qp_#rtvFG>  (887) 
0

>  <i_qp_#stars>  (887) 
0

>  <i_qp_CNS>  (887) 
1

>  <i_qp_HumanOralAbsorption>  (887) 
3

>  <i_qp_RuleOfFive>  (887) 
0

>  <i_qp_RuleOfThree>  (887) 
0

>  <i_sd_BIOSOLVEIT.INFINISEE\_RESULT\_RANK>  (887) 
79285

>  <i_sd_version>  (887) 
0

>  <b_lp_Chiralities_Consistent>  (887) 
1

>  <b_sd_chiral_flag>  (887) 
0

>  <canonical_id>  (887) 
ATP-HTVS-8E434DB2B88E

>  <compound_code>  (887) 
94115

>  <title>  (887) 
rxn502a____EMOL511643____EMOL54476413____EMOL50155899

>  <variant>  (887) 
94115-1

>  <source_file>  (887) 
运行/运行/ATP-VSW/ATP-VSW-DOCK_HTVS_1-003_lib/ATP-VSW-DOCK_HTVS_1-003_lib.mae

>  <canonical_smiles>  (887) 
C[NH+](C)Cc1ccc(CNc2cc(NC(=O)c3cccc(F)c3)ncc2F)cc1

>  <scaffold>  (887) 
O=C(Nc1cc(NCc2ccccc2)ccn1)c1ccccc1

>  <molecular_formula>  (887) 
C22H23F2N4O+

$$$$
ATP-HTVS-8E5D0C8C0586
     RDKit          3D

 55 59  0  0  0  0  0  0  0  0999 V2000
  196.2943  180.4928  151.2388 F   0  0  0  0  0  0  0  0  0  0  0  0
  196.7275  181.6905  151.6979 C   0  0  0  0  0  0  0  0  0  0  0  0
  197.2202  181.8015  153.0151 C   0  0  0  0  0  0  0  0  0  0  0  0
  197.7056  183.0476  153.4438 C   0  0  0  0  0  0  0  0  0  0  0  0
  197.6166  184.2076  152.6560 C   0  0  0  0  0  0  0  0  0  0  0  0
  197.1036  184.0844  151.3387 C   0  0  0  0  0  0  0  0  0  0  0  0
  196.6773  182.8312  150.8509 C   0  0  0  0  0  0  0  0  0  0  0  0
  198.0408  185.5240  153.2376 C   0  0  1  0  0  0  0  0  0  0  0  0
  197.7832  185.8780  154.6946 C   0  0  1  0  0  0  0  0  0  0  0  0
  199.1985  185.6119  154.2113 C   0  0  1  0  0  0  0  0  0  0  0  0
  197.2113  180.5919  153.9479 C   0  0  1  0  0  0  0  0  0  0  0  0
  197.5917  180.8515  155.3097 N   0  0  0  0  0  0  0  0  0  0  0  0
  196.7047  181.7553  156.0618 C   0  0  1  0  0  0  0  0  0  0  0  0
  197.3502  182.1059  157.4294 C   0  0  1  0  0  0  0  0  0  0  0  0
  198.5687  182.9683  157.3007 N   0  0  0  0  0  0  0  0  0  0  0  0
  198.3687  184.2058  157.8037 C   0  0  0  0  0  0  0  0  0  0  0  0
  199.1650  185.1689  157.8096 O   0  0  0  0  0  0  0  0  0  0  0  0
  197.0487  184.2181  158.4256 C   0  0  0  0  0  0  0  0  0  0  0  0
  196.4166  183.0160  158.2047 C   0  0  0  0  0  0  0  0  0  0  0  0
  195.0963  182.7859  158.6335 C   0  0  0  0  0  0  0  0  0  0  0  0
  194.4498  183.8382  159.3389 C   0  0  0  0  0  0  0  0  0  0  0  0
  195.1230  185.0476  159.6236 C   0  0  0  0  0  0  0  0  0  0  0  0
  196.4368  185.2632  159.1604 C   0  0  0  0  0  0  0  0  0  0  0  0
  199.8610  182.4728  156.7715 C   0  0  1  0  0  0  0  0  0  0  0  0
  200.9195  182.1244  157.8123 C   0  0  0  0  0  0  0  0  0  0  0  0
  201.1161  182.9222  158.9802 C   0  0  0  0  0  0  0  0  0  0  0  0
  202.1134  182.5538  159.8965 C   0  0  0  0  0  0  0  0  0  0  0  0
  202.9266  181.4113  159.6830 C   0  0  0  0  0  0  0  0  0  0  0  0
  202.7251  180.6194  158.5299 C   0  0  0  0  0  0  0  0  0  0  0  0
  201.7236  180.9748  157.6013 C   0  0  0  0  0  0  0  0  0  0  0  0
  198.5460  181.2721  155.2693 H   0  0  0  0  0  0  0  0  0  0  0  0
  198.1110  183.1189  154.4636 H   0  0  0  0  0  0  0  0  0  0  0  0
  197.0377  184.9600  150.6823 H   0  0  0  0  0  0  0  0  0  0  0  0
  196.3290  182.7166  149.8364 H   0  0  0  0  0  0  0  0  0  0  0  0
  197.9341  186.3519  152.5126 H   0  0  0  0  0  0  0  0  0  0  0  0
  197.5615  186.9026  154.9612 H   0  0  0  0  0  0  0  0  0  0  0  0
  197.2847  185.1304  155.3214 H   0  0  0  0  0  0  0  0  0  0  0  0
  199.6850  184.6775  154.4990 H   0  0  0  0  0  0  0  0  0  0  0  0
  199.8652  186.4584  154.1477 H   0  0  0  0  0  0  0  0  0  0  0  0
  196.2351  180.1070  153.9408 H   0  0  0  0  0  0  0  0  0  0  0  0
  197.9129  179.8717  153.5276 H   0  0  0  0  0  0  0  0  0  0  0  0
  196.5295  182.6688  155.5142 H   0  0  0  0  0  0  0  0  0  0  0  0
  195.7550  181.2058  156.2130 H   0  0  0  0  0  0  0  0  0  0  0  0
  197.5486  181.2132  158.0256 H   0  0  0  0  0  0  0  0  0  0  0  0
  194.5903  181.8634  158.3957 H   0  0  0  0  0  0  0  0  0  0  0  0
  193.4288  183.7155  159.6629 H   0  0  0  0  0  0  0  0  0  0  0  0
  194.6134  185.8337  160.1718 H   0  0  0  0  0  0  0  0  0  0  0  0
  196.9638  186.1854  159.3635 H   0  0  0  0  0  0  0  0  0  0  0  0
  199.7384  181.5821  156.1879 H   0  0  0  0  0  0  0  0  0  0  0  0
  200.2814  183.2355  156.0996 H   0  0  0  0  0  0  0  0  0  0  0  0
  200.5263  183.8010  159.1752 H   0  0  0  0  0  0  0  0  0  0  0  0
  202.2545  183.1728  160.7706 H   0  0  0  0  0  0  0  0  0  0  0  0
  203.6926  181.1504  160.4020 H   0  0  0  0  0  0  0  0  0  0  0  0
  203.3354  179.7384  158.3576 H   0  0  0  0  0  0  0  0  0  0  0  0
  201.5765  180.3475  156.7244 H   0  0  0  0  0  0  0  0  0  0  0  0
  1  2  1  0
  2  3  2  0
  2  7  1  0
  3  4  1  0
  3 11  1  0
  4  5  2  0
  4 32  1  0
  5  6  1  0
  5  8  1  0
  6  7  2  0
  6 33  1  0
  7 34  1  0
  8  9  1  0
  8 10  1  0
  8 35  1  6
  9 10  1  0
  9 36  1  6
  9 37  1  0
 10 38  1  1
 10 39  1  0
 11 12  1  0
 11 40  1  1
 11 41  1  0
 12 13  1  0
 12 31  1  0
 13 14  1  0
 13 42  1  6
 13 43  1  0
 14 15  1  0
 14 19  1  0
 14 44  1  1
 15 16  1  0
 15 24  1  0
 16 17  2  0
 16 18  1  0
 18 19  1  0
 18 23  2  0
 19 20  2  0
 20 21  1  0
 20 45  1  0
 21 22  2  0
 21 46  1  0
 22 23  1  0
 22 47  1  0
 23 48  1  0
 24 25  1  0
 24 49  1  6
 24 50  1  0
 25 26  2  0
 25 30  1  0
 26 27  1  0
 26 51  1  0
 27 28  2  0
 27 52  1  0
 28 29  1  0
 28 53  1  0
 29 30  2  0
 29 54  1  0
 30 55  1  0
M  END
>  <s_epik_cmdline>  (888) 
J2VwaWtfcHl0aG9uJywgJy1waCcsICc3LjAwMDAwMCcsICctcGh0JywgJzIuMDAwMDAwJywgJy1tcycsICcxNicsICctdG4nLCAnOCcsICctbWEnLCAnMjAwJywgJy1pbWFlJywgJzxpbmZpbGUubWFlPicsICctb21hZScsICc8b3V0ZmlsZS5tYWU+Jw==

>  <s_epik_input>  (888) 
W0NIMl0xW0NIMl1bQ0hdMWMoW2NIXVtjSF0yKVtjSF1jKGMyRilbQ0gyXVtOSF1bQ0gyXVtDQEhdKGMoYzM0KVtjSF1bY0hdW2NIXVtjSF00KU4oQzM9TylbQ0gyXWM1W2NIXVtjSF1bY0hdW2NIXVtjSF01

>  <s_i_glide_gridfile>  (888) 
ATP-Grid

>  <s_lp_Force_Field>  (888) 
OPLS_2005

>  <s_lp_Variant>  (888) 
m_270004bbb____12219716____24720650-4

>  <s_lp_label>  (888) 
1508_sdstereoexpander_2_neutralizer_1_epik_2_stereoizer_1

>  <s_m_source_file>  (888) 
ATP-VSW-LIGPREP-002-in.maegz

>  <s_sd_BIOSOLVEIT.INFINISEE\_QUERY\_NAME>  (888) 
Ref-Lig

>  <s_sd_BIOSOLVEIT.INFINISEE\_QUERY\_SMILES>  (888) 
S(c1nc2c(cc1C[NH2+]Cc3ccc(cc3)C[NH+](C)C)cccc2)Cc4ccccc4

>  <s_sd_BIOSOLVEIT.INFINISEE\_REACTION\_NAME>  (888) 
m_270004bbb

>  <s_sd_BIOSOLVEIT.INFINISEE\_REAGENT1\_SMILES>  (888) 
[R1*]NCC1N(C(=O)c2c1cccc2)Cc3ccccc3

>  <s_sd_BIOSOLVEIT.INFINISEE\_REAGENT2\_SMILES>  (888) 
[R1*]Cc1c(F)ccc(c1)C2CC2

>  <s_sd_BIOSOLVEIT.INFINISEE\_SPACE>  (888) 
REALSpace_44bn_2023-08

>  <s_vsw_compound_code>  (888) 
48226

>  <s_vsw_variant>  (888) 
48226-4

>  <r_epik_Charging_Adjusted_Penalty>  (888) 
1.31783078315339

>  <r_epik_Ionization_Penalty>  (888) 
1.3178000000000001

>  <r_epik_Ionization_Penalty_Charging>  (888) 
0

>  <r_epik_Ionization_Penalty_Neutral>  (888) 
1.3178000000000001

>  <r_epik_State_Penalty>  (888) 
1.3178000000000001

>  <r_i_docking_score>  (888) 
-1.92434302270637

>  <r_i_glide_ecoul>  (888) 
-0.473380327224731

>  <r_i_glide_eff_state_penalty>  (888) 
1.3178000000000001

>  <r_i_glide_einternal>  (888) 
9.3119440078735405

>  <r_i_glide_emodel>  (888) 
-37.013050127368601

>  <r_i_glide_energy>  (888) 
-34.5956451892853

>  <r_i_glide_erotb>  (888) 
0.85562041265276201

>  <r_i_glide_esite>  (888) 
-0.0089713766167633501

>  <r_i_glide_evdw>  (888) 
-34.122264862060497

>  <r_i_glide_gscore>  (888) 
-3.2421430227063701

>  <r_i_glide_hbond>  (888) 
0

>  <r_i_glide_ligand_efficiency>  (888) 
-0.064144767423545704

>  <r_i_glide_ligand_efficiency_ln>  (888) 
-0.43723170215547702

>  <r_i_glide_ligand_efficiency_sa>  (888) 
-0.19931270619932401

>  <r_i_glide_lipo>  (888) 
-1.35734840345591

>  <r_i_glide_metal>  (888) 
-0

>  <r_i_glide_rewards>  (888) 
-0.95432336309972199

>  <r_lp_Energy>  (888) 
49.112118000000002

>  <r_qp_ACxDN^.5/SA>  (888) 
0.0068031999999999997

>  <r_qp_CIQPlogS>  (888) 
-5.5119999999999996

>  <r_qp_EA(eV)>  (888) 
0.39600000000000002

>  <r_qp_FISA>  (888) 
47.546999999999997

>  <r_qp_FOSA>  (888) 
218.476

>  <r_qp_IP(eV)>  (888) 
9.3949999999999996

>  <r_qp_Jm>  (888) 
0.022954382616211699

>  <r_qp_PISA>  (888) 
360.57499999999999

>  <r_qp_PSA>  (888) 
43.161000000000001

>  <r_qp_PercentHumanOralAbsorption>  (888) 
100

>  <r_qp_QPPCaco>  (888) 
874.80799999999999

>  <r_qp_QPPMDCK>  (888) 
735.15599999999995

>  <r_qp_QPlogBB>  (888) 
0.247

>  <r_qp_QPlogHERG>  (888) 
-6.4009999999999998

>  <r_qp_QPlogKhsa>  (888) 
0.91000000000000003

>  <r_qp_QPlogKp>  (888) 
-2.6120000000000001

>  <r_qp_QPlogPC16>  (888) 
12.737

>  <r_qp_QPlogPo/w>  (888) 
4.9859999999999998

>  <r_qp_QPlogPoct>  (888) 
18.648

>  <r_qp_QPlogPw>  (888) 
8.673

>  <r_qp_QPlogS>  (888) 
-4.6299999999999999

>  <r_qp_QPpolrz>  (888) 
43.622

>  <r_qp_SASA>  (888) 
661.452

>  <r_qp_SAamideO>  (888) 
0

>  <r_qp_SAfluorine>  (888) 
34.854999999999997

>  <r_qp_WPSA>  (888) 
34.854999999999997

>  <r_qp_accptHB>  (888) 
4.5

>  <r_qp_dip^2/V>  (888) 
0.021080700000000001

>  <r_qp_dipole>  (888) 
5.1420000000000003

>  <r_qp_donorHB>  (888) 
1

>  <r_qp_glob>  (888) 
0.85021800000000003

>  <r_qp_mol_MW>  (888) 
400.495

>  <r_qp_volume>  (888) 
1253.9939999999999

>  <r_sd_BIOSOLVEIT.INFINISEE\_FTREES\_SIMILARITY>  (888) 
0.90700000000000003

>  <r_sd_BIOSOLVEIT.LOGP>  (888) 
4.1638000000000002

>  <r_sd_BIOSOLVEIT.MOLECULAR\_WEIGHT>  (888) 
401.50200000000001

>  <r_sd_BIOSOLVEIT.TPSA>  (888) 
36.920000000000002

>  <i_epik_Tot_Q>  (888) 
0

>  <i_epik_Tot_abs_Q>  (888) 
0

>  <i_f3d_flags>  (888) 
0

>  <i_i_glide_confnum>  (888) 
5

>  <i_i_glide_lignum>  (888) 
517

>  <i_i_glide_posenum>  (888) 
19

>  <i_i_glide_rotatable_bonds>  (888) 
7

>  <i_lp_mmshare_version>  (888) 
65135

>  <i_m_ct_format>  (888) 
2

>  <i_m_source_file_index>  (888) 
1508

>  <i_qp_#NandO>  (888) 
3

>  <i_qp_#acid>  (888) 
0

>  <i_qp_#amide>  (888) 
0

>  <i_qp_#amidine>  (888) 
0

>  <i_qp_#amine>  (888) 
1

>  <i_qp_#in34>  (888) 
3

>  <i_qp_#in56>  (888) 
21

>  <i_qp_#metab>  (888) 
5

>  <i_qp_#nonHatm>  (888) 
30

>  <i_qp_#noncon>  (888) 
4

>  <i_qp_#ringatoms>  (888) 
24

>  <i_qp_#rotor>  (888) 
6

>  <i_qp_#rtvFG>  (888) 
0

>  <i_qp_#stars>  (888) 
0

>  <i_qp_CNS>  (888) 
1

>  <i_qp_HumanOralAbsorption>  (888) 
3

>  <i_qp_RuleOfFive>  (888) 
0

>  <i_qp_RuleOfThree>  (888) 
0

>  <i_sd_BIOSOLVEIT.INFINISEE\_REAGENT1\_NAME>  (888) 
12219716

>  <i_sd_BIOSOLVEIT.INFINISEE\_REAGENT2\_NAME>  (888) 
24720650

>  <i_sd_BIOSOLVEIT.INFINISEE\_RESULT\_RANK>  (888) 
59937

>  <i_sd_version>  (888) 
0

>  <b_lp_Chiralities_Consistent>  (888) 
1

>  <b_sd_chiral_flag>  (888) 
0

>  <canonical_id>  (888) 
ATP-HTVS-8E5D0C8C0586

>  <compound_code>  (888) 
48226

>  <title>  (888) 
m_270004bbb____12219716____24720650

>  <variant>  (888) 
48226-4

>  <source_file>  (888) 
运行/运行/ATP-VSW/ATP-VSW-DOCK_HTVS_1-002_lib.maegz

>  <canonical_smiles>  (888) 
O=C1c2ccccc2[C@@H](CNCc2cc(C3CC3)ccc2F)N1Cc1ccccc1

>  <scaffold>  (888) 
O=C1c2ccccc2C(CNCc2cccc(C3CC3)c2)N1Cc1ccccc1

>  <molecular_formula>  (888) 
C26H25FN2O

$$$$
ATP-HTVS-8E6E87523B7B
     RDKit          3D

 57 60  0  0  0  0  0  0  0  0999 V2000
  198.2940  185.3847  146.2689 S   0  0  0  0  0  0  0  0  0  0  0  0
  198.3528  184.6407  144.9328 O   0  0  0  0  0  0  0  0  0  0  0  0
  198.1155  184.0965  147.5373 C   0  0  0  0  0  0  0  0  0  0  0  0
  198.8863  182.9229  147.4451 C   0  0  0  0  0  0  0  0  0  0  0  0
  198.7512  181.9264  148.4311 C   0  0  0  0  0  0  0  0  0  0  0  0
  197.8518  182.1053  149.5076 C   0  0  0  0  0  0  0  0  0  0  0  0
  197.0782  183.2869  149.5782 C   0  0  0  0  0  0  0  0  0  0  0  0
  197.2064  184.2846  148.5934 C   0  0  0  0  0  0  0  0  0  0  0  0
  197.7233  181.0141  150.5675 C   0  0  1  0  0  0  0  0  0  0  0  0
  197.5387  181.5177  151.9398 N   0  0  0  0  0  0  0  0  0  0  0  0
  198.5525  182.1988  152.5464 C   0  0  0  0  0  0  0  0  0  0  0  0
  199.6453  182.3895  152.0046 O   0  0  0  0  0  0  0  0  0  0  0  0
  198.3187  182.7516  153.9260 C   0  0  0  0  0  0  0  0  0  0  0  0
  198.4657  184.1366  154.2419 C   0  0  0  0  0  0  0  0  0  0  0  0
  198.2021  184.5485  155.5811 C   0  0  0  0  0  0  0  0  0  0  0  0
  197.8390  183.6759  156.5460 N   0  0  0  0  0  0  0  0  0  0  0  0
  197.7169  182.3648  156.2438 C   0  0  0  0  0  0  0  0  0  0  0  0
  197.3253  181.4560  157.2326 N   0  0  0  0  0  0  0  0  0  0  0  0
  197.1487  181.8752  158.6070 C   0  0  1  0  0  0  0  0  0  0  0  0
  195.9149  182.6990  158.8701 C   0  0  0  0  0  0  0  0  0  0  0  0
  195.9945  183.8584  159.6721 C   0  0  0  0  0  0  0  0  0  0  0  0
  194.8396  184.6275  159.9046 C   0  0  0  0  0  0  0  0  0  0  0  0
  193.6165  184.2297  159.3399 C   0  0  0  0  0  0  0  0  0  0  0  0
  193.5404  183.0791  158.5401 C   0  0  0  0  0  0  0  0  0  0  0  0
  194.6839  182.3049  158.3117 C   0  0  0  0  0  0  0  0  0  0  0  0
  198.0016  181.8629  154.9703 C   0  0  0  0  0  0  0  0  0  0  0  0
  198.3316  185.9095  155.9226 C   0  0  0  0  0  0  0  0  0  0  0  0
  198.7315  186.8613  154.9725 C   0  0  0  0  0  0  0  0  0  0  0  0
  198.9967  186.4651  153.6515 C   0  0  0  0  0  0  0  0  0  0  0  0
  198.8553  185.1116  153.2851 C   0  0  0  0  0  0  0  0  0  0  0  0
  196.1839  181.3191  152.4941 C   0  0  2  0  0  0  0  0  0  0  0  0
  200.0303  185.8557  146.7245 C   0  0  2  0  0  0  0  0  0  0  0  0
  199.5741  182.7856  146.6241 H   0  0  0  0  0  0  0  0  0  0  0  0
  199.3423  181.0234  148.3581 H   0  0  0  0  0  0  0  0  0  0  0  0
  196.3739  183.4314  150.3824 H   0  0  0  0  0  0  0  0  0  0  0  0
  196.6102  185.1848  148.6472 H   0  0  0  0  0  0  0  0  0  0  0  0
  196.8960  180.3739  150.2626 H   0  0  0  0  0  0  0  0  0  0  0  0
  198.6067  180.3736  150.5393 H   0  0  0  0  0  0  0  0  0  0  0  0
  196.9434  180.5451  156.9908 H   0  0  0  0  0  0  0  0  0  0  0  0
  197.0762  180.9772  159.2143 H   0  0  0  0  0  0  0  0  0  0  0  0
  198.0217  182.4461  158.9223 H   0  0  0  0  0  0  0  0  0  0  0  0
  196.9366  184.1572  160.1016 H   0  0  0  0  0  0  0  0  0  0  0  0
  194.8894  185.5164  160.5138 H   0  0  0  0  0  0  0  0  0  0  0  0
  192.7216  184.7986  159.5324 H   0  0  0  0  0  0  0  0  0  0  0  0
  192.6086  182.7900  158.0754 H   0  0  0  0  0  0  0  0  0  0  0  0
  194.6192  181.4204  157.6846 H   0  0  0  0  0  0  0  0  0  0  0  0
  197.9647  180.7988  154.8069 H   0  0  0  0  0  0  0  0  0  0  0  0
  198.1190  186.2167  156.9369 H   0  0  0  0  0  0  0  0  0  0  0  0
  198.8250  187.9060  155.2543 H   0  0  0  0  0  0  0  0  0  0  0  0
  199.3056  187.1970  152.9183 H   0  0  0  0  0  0  0  0  0  0  0  0
  199.0694  184.8488  152.2600 H   0  0  0  0  0  0  0  0  0  0  0  0
  196.1820  180.8728  153.4929 H   0  0  0  0  0  0  0  0  0  0  0  0
  195.5801  180.6392  151.8902 H   0  0  0  0  0  0  0  0  0  0  0  0
  195.6591  182.2718  152.5411 H   0  0  0  0  0  0  0  0  0  0  0  0
  200.2134  185.7009  147.7885 H   0  0  0  0  0  0  0  0  0  0  0  0
  200.2073  186.9070  146.4971 H   0  0  0  0  0  0  0  0  0  0  0  0
  200.7432  185.2552  146.1600 H   0  0  0  0  0  0  0  0  0  0  0  0
  1  2  2  0
  1  3  1  1
  1 32  1  0
  3  4  1  0
  3  8  2  0
  4  5  2  0
  4 33  1  0
  5  6  1  0
  5 34  1  0
  6  7  2  0
  6  9  1  0
  7  8  1  0
  7 35  1  0
  8 36  1  0
  9 10  1  0
  9 37  1  6
  9 38  1  0
 10 11  1  0
 10 31  1  0
 11 12  2  0
 11 13  1  0
 13 14  1  0
 13 26  2  0
 14 15  1  0
 14 30  2  0
 15 16  1  0
 15 27  2  0
 16 17  2  0
 17 18  1  0
 17 26  1  0
 18 19  1  0
 18 39  1  0
 19 20  1  0
 19 40  1  1
 19 41  1  0
 20 21  2  0
 20 25  1  0
 21 22  1  0
 21 42  1  0
 22 23  2  0
 22 43  1  0
 23 24  1  0
 23 44  1  0
 24 25  2  0
 24 45  1  0
 25 46  1  0
 26 47  1  0
 27 28  1  0
 27 48  1  0
 28 29  2  0
 28 49  1  0
 29 30  1  0
 29 50  1  0
 30 51  1  0
 31 52  1  1
 31 53  1  0
 31 54  1  0
 32 55  1  1
 32 56  1  0
 32 57  1  0
M  END
>  <s_epik_cmdline>  (889) 
J2VwaWtfcHl0aG9uJywgJy1waCcsICc3LjAwMDAwMCcsICctcGh0JywgJzIuMDAwMDAwJywgJy1tcycsICcxNicsICctdG4nLCAnOCcsICctbWEnLCAnMjAwJywgJy1pbWFlJywgJzxpbmZpbGUubWFlPicsICctb21hZScsICc8b3V0ZmlsZS5tYWU+Jw==

>  <s_epik_input>  (889) 
Tz1bU0BdKFtDSDNdKWMxW2NIXVtjSF1jKFtjSF1bY0hdMSlbQ0gyXU4oW0NIM10pQyg9TyljMltjSF1jKG5jKGMyMylbY0hdW2NIXVtjSF1bY0hdMylbTkhdW0NIMl1jNFtjSF1bY0hdW2NIXVtjSF1bY0hdNA==

>  <s_i_glide_gridfile>  (889) 
ATP-Grid

>  <s_lp_Force_Field>  (889) 
OPLS_2005

>  <s_lp_Variant>  (889) 
m_527bbb____6585758____4971430-1

>  <s_lp_label>  (889) 
2015_sdstereoexpander_1_neutralizer_1_epik_1_stereoizer_1

>  <s_m_source_file>  (889) 
ATP-VSW-LIGPREP-003-in.maegz

>  <s_sd_BIOSOLVEIT.INFINISEE\_QUERY\_NAME>  (889) 
Ref-Lig

>  <s_sd_BIOSOLVEIT.INFINISEE\_QUERY\_SMILES>  (889) 
S(c1nc2c(cc1C[NH2+]Cc3ccc(cc3)C[NH+](C)C)cccc2)Cc4ccccc4

>  <s_sd_BIOSOLVEIT.INFINISEE\_REACTION\_NAME>  (889) 
m_527bbb

>  <s_sd_BIOSOLVEIT.INFINISEE\_REAGENT1\_SMILES>  (889) 
[R1*]N(Cc1ccc(S(=O)C)cc1)C

>  <s_sd_BIOSOLVEIT.INFINISEE\_REAGENT2\_SMILES>  (889) 
[R1*]C(=O)c1c2c(nc(NCc3ccccc3)c1)cccc2

>  <s_sd_BIOSOLVEIT.INFINISEE\_SPACE>  (889) 
REALSpace_44bn_2023-08

>  <s_vsw_compound_code>  (889) 
64451

>  <s_vsw_variant>  (889) 
64451-1

>  <r_epik_Charging_Adjusted_Penalty>  (889) 
0

>  <r_epik_Ionization_Penalty>  (889) 
0.00020000000000000001

>  <r_epik_Ionization_Penalty_Charging>  (889) 
0

>  <r_epik_Ionization_Penalty_Neutral>  (889) 
0.00020000000000000001

>  <r_epik_State_Penalty>  (889) 
-0

>  <r_i_docking_score>  (889) 
-4.0952581439874196

>  <r_i_glide_ecoul>  (889) 
-5.5730762481689498

>  <r_i_glide_eff_state_penalty>  (889) 
-0

>  <r_i_glide_einternal>  (889) 
1.9403924942016599

>  <r_i_glide_emodel>  (889) 
-46.993434543703501

>  <r_i_glide_energy>  (889) 
-38.320341110229499

>  <r_i_glide_erotb>  (889) 
0.71131409523822797

>  <r_i_glide_esite>  (889) 
-0.085728869770605495

>  <r_i_glide_evdw>  (889) 
-32.747264862060497

>  <r_i_glide_gscore>  (889) 
-4.0952581439874196

>  <r_i_glide_hbond>  (889) 
-0.249329211693851

>  <r_i_glide_ligand_efficiency>  (889) 
-0.127976816999607

>  <r_i_glide_ligand_efficiency_ln>  (889) 
-0.91703993095963499

>  <r_i_glide_ligand_efficiency_sa>  (889) 
-0.40630106739605898

>  <r_i_glide_lipo>  (889) 
-1.3123990805493999

>  <r_i_glide_metal>  (889) 
-0

>  <r_i_glide_rewards>  (889) 
-0.68579039688342303

>  <r_lp_Energy>  (889) 
27.721457000000001

>  <r_lp_tautomer_probability>  (889) 
1

>  <r_qp_ACxDN^.5/SA>  (889) 
0.0113235

>  <r_qp_CIQPlogS>  (889) 
-6.133

>  <r_qp_EA(eV)>  (889) 
0.879

>  <r_qp_FISA>  (889) 
91.007000000000005

>  <r_qp_FOSA>  (889) 
209.422

>  <r_qp_IP(eV)>  (889) 
8.3300000000000001

>  <r_qp_Jm>  (889) 
1.78393180553965

>  <r_qp_PISA>  (889) 
428.04899999999998

>  <r_qp_PSA>  (889) 
65.370000000000005

>  <r_qp_PercentHumanOralAbsorption>  (889) 
83.927000000000007

>  <r_qp_QPPCaco>  (889) 
54.061

>  <r_qp_QPPMDCK>  (889) 
910.84900000000005

>  <r_qp_QPlogBB>  (889) 
-0.73899999999999999

>  <r_qp_QPlogHERG>  (889) 
-6.7199999999999998

>  <r_qp_QPlogKhsa>  (889) 
0.41199999999999998

>  <r_qp_QPlogKp>  (889) 
-1.0169999999999999

>  <r_qp_QPlogPC16>  (889) 
15.27

>  <r_qp_QPlogPo/w>  (889) 
4.4349999999999996

>  <r_qp_QPlogPoct>  (889) 
23.326000000000001

>  <r_qp_QPlogPw>  (889) 
15.856999999999999

>  <r_qp_QPlogS>  (889) 
-4.3789999999999996

>  <r_qp_QPpolrz>  (889) 
49.387999999999998

>  <r_qp_SASA>  (889) 
750.65099999999995

>  <r_qp_SAamideO>  (889) 
0

>  <r_qp_SAfluorine>  (889) 
0

>  <r_qp_WPSA>  (889) 
22.172999999999998

>  <r_qp_accptHB>  (889) 
8.5

>  <r_qp_dip^2/V>  (889) 
0.050527700000000002

>  <r_qp_dipole>  (889) 
8.4049999999999994

>  <r_qp_donorHB>  (889) 
1

>  <r_qp_glob>  (889) 
0.80551059999999997

>  <r_qp_mol_MW>  (889) 
443.56200000000001

>  <r_qp_volume>  (889) 
1398.03

>  <r_sd_BIOSOLVEIT.INFINISEE\_FTREES\_SIMILARITY>  (889) 
0.90200000000000002

>  <r_sd_BIOSOLVEIT.LOGP>  (889) 
5.5071000000000003

>  <r_sd_BIOSOLVEIT.MOLECULAR\_WEIGHT>  (889) 
443.56799999999998

>  <r_sd_BIOSOLVEIT.TPSA>  (889) 
62.299999999999997

>  <i_epik_Tot_Q>  (889) 
0

>  <i_epik_Tot_abs_Q>  (889) 
0

>  <i_f3d_flags>  (889) 
0

>  <i_i_glide_confnum>  (889) 
5

>  <i_i_glide_lignum>  (889) 
756

>  <i_i_glide_posenum>  (889) 
8

>  <i_i_glide_rotatable_bonds>  (889) 
8

>  <i_lp_mmshare_version>  (889) 
65135

>  <i_m_ct_format>  (889) 
2

>  <i_m_source_file_index>  (889) 
2015

>  <i_qp_#NandO>  (889) 
5

>  <i_qp_#acid>  (889) 
0

>  <i_qp_#amide>  (889) 
0

>  <i_qp_#amidine>  (889) 
0

>  <i_qp_#amine>  (889) 
0

>  <i_qp_#in34>  (889) 
0

>  <i_qp_#in56>  (889) 
22

>  <i_qp_#metab>  (889) 
3

>  <i_qp_#nonHatm>  (889) 
32

>  <i_qp_#noncon>  (889) 
0

>  <i_qp_#ringatoms>  (889) 
22

>  <i_qp_#rotor>  (889) 
7

>  <i_qp_#rtvFG>  (889) 
0

>  <i_qp_#stars>  (889) 
0

>  <i_qp_CNS>  (889) 
-1

>  <i_qp_HumanOralAbsorption>  (889) 
3

>  <i_qp_RuleOfFive>  (889) 
0

>  <i_qp_RuleOfThree>  (889) 
0

>  <i_sd_BIOSOLVEIT.INFINISEE\_REAGENT1\_NAME>  (889) 
6585758

>  <i_sd_BIOSOLVEIT.INFINISEE\_REAGENT2\_NAME>  (889) 
4971430

>  <i_sd_BIOSOLVEIT.INFINISEE\_RESULT\_RANK>  (889) 
91737

>  <i_sd_version>  (889) 
0

>  <b_lp_Chiralities_Consistent>  (889) 
1

>  <b_sd_chiral_flag>  (889) 
0

>  <canonical_id>  (889) 
ATP-HTVS-8E6E87523B7B

>  <compound_code>  (889) 
64451

>  <title>  (889) 
m_527bbb____6585758____4971430

>  <variant>  (889) 
64451-1

>  <source_file>  (889) 
运行/运行/ATP-VSW/ATP-VSW-DOCK_HTVS_1-003_lib/ATP-VSW-DOCK_HTVS_1-003_lib.mae

>  <canonical_smiles>  (889) 
CN(Cc1ccc([S@@](C)=O)cc1)C(=O)c1cc(NCc2ccccc2)nc2ccccc12

>  <scaffold>  (889) 
O=C(NCc1ccccc1)c1cc(NCc2ccccc2)nc2ccccc12

>  <molecular_formula>  (889) 
C26H25N3O2S

$$$$
ATP-HTVS-8E7556763F42
     RDKit          3D

 51 54  0  0  0  0  0  0  0  0999 V2000
  197.1462  192.0420  158.1178 Cl  0  0  0  0  0  0  0  0  0  0  0  0
  198.0782  190.6696  158.5766 C   0  0  0  0  0  0  0  0  0  0  0  0
  199.4870  190.7624  158.6749 C   0  0  0  0  0  0  0  0  0  0  0  0
  200.3256  192.2539  158.3397 Cl  0  0  0  0  0  0  0  0  0  0  0  0
  200.2319  189.6358  159.0780 C   0  0  0  0  0  0  0  0  0  0  0  0
  199.5879  188.4449  159.4088 C   0  0  0  0  0  0  0  0  0  0  0  0
  198.1837  188.3156  159.2822 C   0  0  0  0  0  0  0  0  0  0  0  0
  197.4360  189.4451  158.8643 C   0  0  0  0  0  0  0  0  0  0  0  0
  197.4391  187.0063  159.5777 C   0  0  2  0  0  0  0  0  0  0  0  0
  197.2598  186.0902  158.4225 N   0  0  0  0  0  0  0  0  0  0  0  0
  196.2887  185.0588  158.5518 C   0  0  0  0  0  0  0  0  0  0  0  0
  195.2471  185.1582  159.5146 C   0  0  0  0  0  0  0  0  0  0  0  0
  194.3586  184.0830  159.7010 C   0  0  0  0  0  0  0  0  0  0  0  0
  194.4542  182.9016  158.9345 C   0  0  0  0  0  0  0  0  0  0  0  0
  195.4503  182.8025  157.9566 C   0  0  0  0  0  0  0  0  0  0  0  0
  196.3071  183.8807  157.7245 C   0  0  0  0  0  0  0  0  0  0  0  0
  195.1378  186.3971  160.3414 C   0  0  0  0  0  0  0  0  0  0  0  0
  194.1497  186.6207  161.0459 O   0  0  0  0  0  0  0  0  0  0  0  0
  196.1499  187.2513  160.2395 N   0  0  0  0  0  0  0  0  0  0  0  0
  198.2479  186.1177  157.4027 C   0  0  0  0  0  0  0  0  0  0  0  0
  199.6339  185.8387  157.6165 C   0  0  0  0  0  0  0  0  0  0  0  0
  200.5129  185.9671  156.5106 C   0  0  0  0  0  0  0  0  0  0  0  0
  200.0347  186.3123  155.2295 C   0  0  0  0  0  0  0  0  0  0  0  0
  198.6636  186.5406  155.0327 C   0  0  0  0  0  0  0  0  0  0  0  0
  197.7755  186.4527  156.1173 C   0  0  0  0  0  0  0  0  0  0  0  0
  200.2487  185.4112  158.9691 C   0  0  1  0  0  0  0  0  0  0  0  0
  200.0748  183.9910  159.3611 N   0  0  2  0  0  0  0  0  0  0  0  0
  200.7802  183.0921  158.4166 C   0  0  2  0  0  0  0  0  0  0  0  0
  198.6661  183.6103  159.4934 C   0  0  2  0  0  0  0  0  0  0  0  0
  201.3085  189.6941  159.1596 H   0  0  0  0  0  0  0  0  0  0  0  0
  200.2465  187.6906  159.7550 H   0  0  0  0  0  0  0  0  0  0  0  0
  196.3469  189.3814  158.7715 H   0  0  0  0  0  0  0  0  0  0  0  0
  197.9469  186.4831  160.3741 H   0  0  0  0  0  0  0  0  0  0  0  0
  193.5721  184.1618  160.4435 H   0  0  0  0  0  0  0  0  0  0  0  0
  193.7731  182.0855  159.0724 H   0  0  0  0  0  0  0  0  0  0  0  0
  195.5600  181.9047  157.3838 H   0  0  0  0  0  0  0  0  0  0  0  0
  197.0718  183.7711  156.9433 H   0  0  0  0  0  0  0  0  0  0  0  0
  196.0719  188.1415  160.7167 H   0  0  0  0  0  0  0  0  0  0  0  0
  201.5715  185.7924  156.6303 H   0  0  0  0  0  0  0  0  0  0  0  0
  200.7198  186.3858  154.3887 H   0  0  0  0  0  0  0  0  0  0  0  0
  198.2814  186.7884  154.0570 H   0  0  0  0  0  0  0  0  0  0  0  0
  196.7199  186.6258  155.9644 H   0  0  0  0  0  0  0  0  0  0  0  0
  201.3132  185.6810  158.9792 H   0  0  0  0  0  0  0  0  0  0  0  0
  199.8034  185.9173  159.8010 H   0  0  0  0  0  0  0  0  0  0  0  0
  200.3987  183.2036  157.3849 H   0  0  0  0  0  0  0  0  0  0  0  0
  200.6215  182.0491  158.7325 H   0  0  0  0  0  0  0  0  0  0  0  0
  201.8546  183.3255  158.4249 H   0  0  0  0  0  0  0  0  0  0  0  0
  198.3620  183.7186  158.4895 H   0  0  0  0  0  0  0  0  0  0  0  0
  198.1217  184.2742  160.1618 H   0  0  0  0  0  0  0  0  0  0  0  0
  198.4765  182.6064  159.7872 H   0  0  0  0  0  0  0  0  0  0  0  0
  200.5108  183.9066  160.2835 H   0  0  0  0  0  0  0  0  0  0  0  0
  1  2  1  0
  2  3  2  0
  2  8  1  0
  3  4  1  0
  3  5  1  0
  5  6  2  0
  5 30  1  0
  6  7  1  0
  6 31  1  0
  7  8  2  0
  7  9  1  0
  8 32  1  0
  9 10  1  0
  9 19  1  0
  9 33  1  1
 10 11  1  0
 10 20  1  0
 11 12  1  0
 11 16  2  0
 12 13  2  0
 12 17  1  0
 13 14  1  0
 13 34  1  0
 14 15  2  0
 14 35  1  0
 15 16  1  0
 15 36  1  0
 16 37  1  0
 17 18  2  0
 17 19  1  0
 19 38  1  0
 20 21  1  0
 20 25  2  0
 21 22  2  0
 21 26  1  0
 22 23  1  0
 22 39  1  0
 23 24  2  0
 23 40  1  0
 24 25  1  0
 24 41  1  0
 25 42  1  0
 26 27  1  0
 26 43  1  6
 26 44  1  0
 27 28  1  0
 27 29  1  0
 27 51  1  1
 28 45  1  6
 28 46  1  0
 28 47  1  0
 29 48  1  6
 29 49  1  0
 29 50  1  0
M  CHG  1  27   1
M  END
>  <s_epik_Chemistry_Notes>  (890) 
This compound contains an acetal/aminal-like group ( X-CH(R)-Y where X, Y are N, S, or O) that may be acid/base labile, releasing an aldehyde.

>  <s_epik_cmdline>  (890) 
J2VwaWtfcHl0aG9uJywgJy1waCcsICc3LjAwMDAwMCcsICctcGh0JywgJzIuMDAwMDAwJywgJy1tcycsICcxNicsICctdG4nLCAnOCcsICctbWEnLCAnMjAwJywgJy1pbWFlJywgJzxpbmZpbGUubWFlPicsICctb21hZScsICc8b3V0ZmlsZS5tYWU+Jw==

>  <s_epik_input>  (890) 
W2NIXTFbY0hdW2NIXVtjSF1jKFtDSDJdTihbQ0gzXSlbQ0gzXSljMU4yW0NAQEhdKGMoW2NIXTMpW2NIXVtjSF1jKENsKWMzQ2wpW05IXUMoPU8pYyhjMjQpW2NIXVtjSF1bY0hdW2NIXTQ=

>  <s_i_glide_gridfile>  (890) 
ATP-Grid

>  <s_lp_Force_Field>  (890) 
OPLS_2005

>  <s_lp_Variant>  (890) 
rxn102b____EMOL975590____EMOL1362850-2

>  <s_lp_label>  (890) 
2826_sdstereoexpander_2_neutralizer_1_epik_1_stereoizer_1

>  <s_m_source_file>  (890) 
ATP-VSW-LIGPREP-003-in.maegz

>  <s_sd_BIOSOLVEIT.INFINISEE\_QUERY\_NAME>  (890) 
Ref-Lig

>  <s_sd_BIOSOLVEIT.INFINISEE\_QUERY\_SMILES>  (890) 
S(c1nc2c(cc1C[NH2+]Cc3ccc(cc3)C[NH+](C)C)cccc2)Cc4ccccc4

>  <s_sd_BIOSOLVEIT.INFINISEE\_REACTION\_NAME>  (890) 
rxn102b

>  <s_sd_BIOSOLVEIT.INFINISEE\_REAGENT1\_NAME>  (890) 
EMOL975590

>  <s_sd_BIOSOLVEIT.INFINISEE\_REAGENT1\_SMILES>  (890) 
Brc1c(cccc1)CN(C)C

>  <s_sd_BIOSOLVEIT.INFINISEE\_REAGENT2\_NAME>  (890) 
EMOL1362850

>  <s_sd_BIOSOLVEIT.INFINISEE\_REAGENT2\_SMILES>  (890) 
Clc1c(Cl)ccc(c1)C2Nc3c(cccc3)C(=O)N2

>  <s_sd_BIOSOLVEIT.INFINISEE\_SPACE>  (890) 
eXplore_7tr_2022-12

>  <s_vsw_compound_code>  (890) 
90403

>  <s_vsw_variant>  (890) 
90403-2

>  <r_epik_Charging_Adjusted_Penalty>  (890) 
0.088505879675181795

>  <r_epik_Ionization_Penalty>  (890) 
0.044299999999999999

>  <r_epik_Ionization_Penalty_Charging>  (890) 
0.044299999999999999

>  <r_epik_Ionization_Penalty_Neutral>  (890) 
0

>  <r_epik_State_Penalty>  (890) 
0.044299999999999999

>  <r_i_docking_score>  (890) 
-1.99068628487857

>  <r_i_glide_ecoul>  (890) 
-3.6034822463989298

>  <r_i_glide_eff_state_penalty>  (890) 
0.044299999999999999

>  <r_i_glide_einternal>  (890) 
1.17948853969574

>  <r_i_glide_emodel>  (890) 
-39.001948093680603

>  <r_i_glide_energy>  (890) 
-34.231177330017097

>  <r_i_glide_erotb>  (890) 
0.32614642946110101

>  <r_i_glide_esite>  (890) 
0

>  <r_i_glide_evdw>  (890) 
-30.6276950836182

>  <r_i_glide_gscore>  (890) 
-2.03498628487857

>  <r_i_glide_hbond>  (890) 
0

>  <r_i_glide_ligand_efficiency>  (890) 
-0.068644354650985007

>  <r_i_glide_ligand_efficiency_ln>  (890) 
-0.455816679788493

>  <r_i_glide_ligand_efficiency_sa>  (890) 
-0.21089720554585001

>  <r_i_glide_lipo>  (890) 
-1.1763830606786601

>  <r_i_glide_metal>  (890) 
-0

>  <r_i_glide_rewards>  (890) 
0.88715743747974096

>  <r_lp_Energy>  (890) 
31.197479000000001

>  <r_qp_ACxDN^.5/SA>  (890) 
0.0077863000000000003

>  <r_qp_CIQPlogS>  (890) 
-6.0949999999999998

>  <r_qp_EA(eV)>  (890) 
0.69299999999999995

>  <r_qp_FISA>  (890) 
67.825000000000003

>  <r_qp_FOSA>  (890) 
137.328

>  <r_qp_IP(eV)>  (890) 
8.2970000000000006

>  <r_qp_Jm>  (890) 
0.00083960728012030404

>  <r_qp_PISA>  (890) 
309.44999999999999

>  <r_qp_PSA>  (890) 
43.552999999999997

>  <r_qp_PercentHumanOralAbsorption>  (890) 
100

>  <r_qp_QPPCaco>  (890) 
561.84400000000005

>  <r_qp_QPPMDCK>  (890) 
1466.6700000000001

>  <r_qp_QPlogBB>  (890) 
0.54700000000000004

>  <r_qp_QPlogHERG>  (890) 
-5.9589999999999996

>  <r_qp_QPlogKhsa>  (890) 
0.90700000000000003

>  <r_qp_QPlogKp>  (890) 
-3.5499999999999998

>  <r_qp_QPlogPC16>  (890) 
13.401

>  <r_qp_QPlogPo/w>  (890) 
4.7539999999999996

>  <r_qp_QPlogPoct>  (890) 
19.861999999999998

>  <r_qp_QPlogPw>  (890) 
9.8239999999999998

>  <r_qp_QPlogS>  (890) 
-5.1559999999999997

>  <r_qp_QPpolrz>  (890) 
44.567

>  <r_qp_SASA>  (890) 
642.15700000000004

>  <r_qp_SAamideO>  (890) 
0

>  <r_qp_SAfluorine>  (890) 
0

>  <r_qp_WPSA>  (890) 
127.554

>  <r_qp_accptHB>  (890) 
5

>  <r_qp_dip^2/V>  (890) 
0.018682299999999999

>  <r_qp_dipole>  (890) 
4.7850000000000001

>  <r_qp_donorHB>  (890) 
1

>  <r_qp_glob>  (890) 
0.86251440000000001

>  <r_qp_mol_MW>  (890) 
426.34399999999999

>  <r_qp_volume>  (890) 
1225.6410000000001

>  <r_sd_BIOSOLVEIT.INFINISEE\_FTREES\_SIMILARITY>  (890) 
0.90600000000000003

>  <r_sd_BIOSOLVEIT.LOGP>  (890) 
4.2182000000000004

>  <r_sd_BIOSOLVEIT.MOLECULAR\_WEIGHT>  (890) 
427.35300000000001

>  <r_sd_BIOSOLVEIT.TPSA>  (890) 
36.780000000000001

>  <i_epik_Tot_Q>  (890) 
1

>  <i_epik_Tot_abs_Q>  (890) 
1

>  <i_f3d_flags>  (890) 
0

>  <i_i_glide_confnum>  (890) 
5

>  <i_i_glide_lignum>  (890) 
1351

>  <i_i_glide_posenum>  (890) 
3

>  <i_i_glide_rotatable_bonds>  (890) 
4

>  <i_lp_mmshare_version>  (890) 
65135

>  <i_m_ct_format>  (890) 
2

>  <i_m_source_file_index>  (890) 
2826

>  <i_qp_#NandO>  (890) 
4

>  <i_qp_#acid>  (890) 
0

>  <i_qp_#amide>  (890) 
0

>  <i_qp_#amidine>  (890) 
0

>  <i_qp_#amine>  (890) 
1

>  <i_qp_#in34>  (890) 
0

>  <i_qp_#in56>  (890) 
22

>  <i_qp_#metab>  (890) 
4

>  <i_qp_#nonHatm>  (890) 
29

>  <i_qp_#noncon>  (890) 
1

>  <i_qp_#ringatoms>  (890) 
22

>  <i_qp_#rotor>  (890) 
2

>  <i_qp_#rtvFG>  (890) 
0

>  <i_qp_#stars>  (890) 
0

>  <i_qp_CNS>  (890) 
2

>  <i_qp_HumanOralAbsorption>  (890) 
3

>  <i_qp_RuleOfFive>  (890) 
0

>  <i_qp_RuleOfThree>  (890) 
0

>  <i_sd_BIOSOLVEIT.INFINISEE\_RESULT\_RANK>  (890) 
66021

>  <i_sd_version>  (890) 
0

>  <b_lp_Chiralities_Consistent>  (890) 
1

>  <b_sd_chiral_flag>  (890) 
0

>  <canonical_id>  (890) 
ATP-HTVS-8E7556763F42

>  <compound_code>  (890) 
90403

>  <title>  (890) 
rxn102b____EMOL975590____EMOL1362850

>  <variant>  (890) 
90403-2

>  <source_file>  (890) 
运行/运行/ATP-VSW/ATP-VSW-DOCK_HTVS_1-003_lib/ATP-VSW-DOCK_HTVS_1-003_lib.mae

>  <canonical_smiles>  (890) 
C[NH+](C)Cc1ccccc1N1c2ccccc2C(=O)N[C@@H]1c1ccc(Cl)c(Cl)c1

>  <scaffold>  (890) 
O=C1NC(c2ccccc2)N(c2ccccc2)c2ccccc21

>  <molecular_formula>  (890) 
C23H22Cl2N3O+

$$$$
ATP-HTVS-8EB0CBA3C42A
     RDKit          3D

 67 70  0  0  0  0  0  0  0  0999 V2000
  196.8693  186.3150  159.6654 S   0  0  1  0  0  0  0  0  0  0  0  0
  198.3031  186.4792  159.6610 O   0  0  0  0  0  0  0  0  0  0  0  0
  196.0679  186.6545  160.8717 O   0  0  0  0  0  0  0  0  0  0  0  0
  196.2888  187.3319  158.4296 N   0  0  0  0  0  0  0  0  0  0  0  0
  196.3540  184.6697  159.1382 C   0  0  0  0  0  0  0  0  0  0  0  0
  197.2403  183.5960  158.8178 C   0  0  0  0  0  0  0  0  0  0  0  0
  196.6666  182.3638  158.4320 C   0  0  0  0  0  0  0  0  0  0  0  0
  195.2701  182.1857  158.3499 C   0  0  0  0  0  0  0  0  0  0  0  0
  194.4121  183.2489  158.6626 C   0  0  0  0  0  0  0  0  0  0  0  0
  194.9627  184.4772  159.0663 C   0  0  0  0  0  0  0  0  0  0  0  0
  198.7634  183.6746  158.8832 C   0  0  1  0  0  0  0  0  0  0  0  0
  199.4386  183.4388  157.6085 N   0  0  0  0  0  0  0  0  0  0  0  0
  200.1865  182.2585  157.5600 C   0  0  0  0  0  0  0  0  0  0  0  0
  199.6187  181.2263  156.9380 N   0  0  0  0  0  0  0  0  0  0  0  0
  200.2337  180.0452  156.8561 C   0  0  0  0  0  0  0  0  0  0  0  0
  201.4437  179.8438  157.4074 N   0  0  0  0  0  0  0  0  0  0  0  0
  202.0680  180.8547  158.0560 C   0  0  0  0  0  0  0  0  0  0  0  0
  201.4497  182.1200  158.1776 C   0  0  0  0  0  0  0  0  0  0  0  0
  202.0969  183.1450  158.9094 C   0  0  0  0  0  0  0  0  0  0  0  0
  203.3819  182.9292  159.4446 C   0  0  0  0  0  0  0  0  0  0  0  0
  204.0062  181.6723  159.3038 C   0  0  0  0  0  0  0  0  0  0  0  0
  203.3407  180.6388  158.6239 C   0  0  0  0  0  0  0  0  0  0  0  0
  199.6443  179.0032  156.1631 N   0  0  0  0  0  0  0  0  0  0  0  0
  198.4389  179.0690  155.3328 C   0  0  1  0  0  0  0  0  0  0  0  0
  198.2748  180.3252  154.4906 C   0  0  0  0  0  0  0  0  0  0  0  0
  199.1983  180.6317  153.4684 C   0  0  0  0  0  0  0  0  0  0  0  0
  199.0927  181.8453  152.7598 C   0  0  0  0  0  0  0  0  0  0  0  0
  198.0625  182.7592  153.0704 C   0  0  0  0  0  0  0  0  0  0  0  0
  197.1381  182.4456  154.0883 C   0  0  0  0  0  0  0  0  0  0  0  0
  197.2384  181.2314  154.7909 C   0  0  0  0  0  0  0  0  0  0  0  0
  197.9488  184.0723  152.3155 C   0  0  1  0  0  0  0  0  0  0  0  0
  197.3978  183.8797  150.9524 N   0  0  1  0  0  0  0  0  0  0  0  0
  195.9754  183.4703  150.9533 C   0  0  2  0  0  0  0  0  0  0  0  0
  197.6420  185.0495  150.0757 C   0  0  2  0  0  0  0  0  0  0  0  0
  200.0092  184.5612  156.8673 C   0  0  2  0  0  0  0  0  0  0  0  0
  196.7422  188.2454  158.5233 H   0  0  0  0  0  0  0  0  0  0  0  0
  195.2804  187.4210  158.4643 H   0  0  0  0  0  0  0  0  0  0  0  0
  197.2740  181.5113  158.1924 H   0  0  0  0  0  0  0  0  0  0  0  0
  194.8518  181.2332  158.0478 H   0  0  0  0  0  0  0  0  0  0  0  0
  193.3388  183.1128  158.5775 H   0  0  0  0  0  0  0  0  0  0  0  0
  194.2926  185.2871  159.3229 H   0  0  0  0  0  0  0  0  0  0  0  0
  199.1472  184.6078  159.2772 H   0  0  0  0  0  0  0  0  0  0  0  0
  199.0645  182.9065  159.6086 H   0  0  0  0  0  0  0  0  0  0  0  0
  201.6372  184.1093  159.0817 H   0  0  0  0  0  0  0  0  0  0  0  0
  203.8862  183.7346  159.9628 H   0  0  0  0  0  0  0  0  0  0  0  0
  204.9832  181.5037  159.7275 H   0  0  0  0  0  0  0  0  0  0  0  0
  203.8127  179.6662  158.5347 H   0  0  0  0  0  0  0  0  0  0  0  0
  200.0862  178.1032  156.2359 H   0  0  0  0  0  0  0  0  0  0  0  0
  198.4915  178.2364  154.6395 H   0  0  0  0  0  0  0  0  0  0  0  0
  197.5529  178.8952  155.9538 H   0  0  0  0  0  0  0  0  0  0  0  0
  200.0149  179.9573  153.2457 H   0  0  0  0  0  0  0  0  0  0  0  0
  199.8142  182.0798  151.9898 H   0  0  0  0  0  0  0  0  0  0  0  0
  196.3488  183.1364  154.3533 H   0  0  0  0  0  0  0  0  0  0  0  0
  196.5531  181.0176  155.5972 H   0  0  0  0  0  0  0  0  0  0  0  0
  197.3339  184.7857  152.8695 H   0  0  0  0  0  0  0  0  0  0  0  0
  198.9469  184.5056  152.2514 H   0  0  0  0  0  0  0  0  0  0  0  0
  195.3466  184.2320  151.4144 H   0  0  0  0  0  0  0  0  0  0  0  0
  195.8243  182.5369  151.4960 H   0  0  0  0  0  0  0  0  0  0  0  0
  195.6284  183.3201  149.9328 H   0  0  0  0  0  0  0  0  0  0  0  0
  197.1487  185.9432  150.4577 H   0  0  0  0  0  0  0  0  0  0  0  0
  197.2817  184.8647  149.0617 H   0  0  0  0  0  0  0  0  0  0  0  0
  198.7068  185.2731  150.0117 H   0  0  0  0  0  0  0  0  0  0  0  0
  200.1586  184.3077  155.8161 H   0  0  0  0  0  0  0  0  0  0  0  0
  200.9801  184.8592  157.2606 H   0  0  0  0  0  0  0  0  0  0  0  0
  199.3626  185.4377  156.9301 H   0  0  0  0  0  0  0  0  0  0  0  0
  201.9159  178.9396  157.3376 H   0  0  0  0  0  0  0  0  0  0  0  0
  197.9151  183.1109  150.5488 H   0  0  0  0  0  0  0  0  0  0  0  0
  1  2  2  0
  1  3  2  0
  1  4  1  6
  1  5  1  0
  4 36  1  0
  4 37  1  0
  5  6  1  0
  5 10  2  0
  6  7  2  0
  6 11  1  0
  7  8  1  0
  7 38  1  0
  8  9  2  0
  8 39  1  0
  9 10  1  0
  9 40  1  0
 10 41  1  0
 11 12  1  0
 11 42  1  1
 11 43  1  0
 12 13  1  0
 12 35  1  0
 13 14  2  0
 13 18  1  0
 14 15  1  0
 15 16  2  0
 15 23  1  0
 16 17  1  0
 16 66  1  0
 17 18  1  0
 17 22  2  0
 18 19  2  0
 19 20  1  0
 19 44  1  0
 20 21  2  0
 20 45  1  0
 21 22  1  0
 21 46  1  0
 22 47  1  0
 23 24  1  0
 23 48  1  0
 24 25  1  0
 24 49  1  6
 24 50  1  0
 25 26  1  0
 25 30  2  0
 26 27  2  0
 26 51  1  0
 27 28  1  0
 27 52  1  0
 28 29  2  0
 28 31  1  0
 29 30  1  0
 29 53  1  0
 30 54  1  0
 31 32  1  0
 31 55  1  1
 31 56  1  0
 32 33  1  0
 32 34  1  0
 32 67  1  6
 33 57  1  1
 33 58  1  0
 33 59  1  0
 34 60  1  1
 34 61  1  0
 34 62  1  0
 35 63  1  6
 35 64  1  0
 35 65  1  0
M  CHG  2  16   1  32   1
M  END
>  <s_epik_cmdline>  (891) 
J2VwaWtfcHl0aG9uJywgJy1waCcsICc3LjAwMDAwMCcsICctcGh0JywgJzIuMDAwMDAwJywgJy1tcycsICcxNicsICctdG4nLCAnOCcsICctbWEnLCAnMjAwJywgJy1pbWFlJywgJzxpbmZpbGUubWFlPicsICctb21hZScsICc8b3V0ZmlsZS5tYWU+Jw==

>  <s_epik_input>  (891) 
W2NIXTFbY0hdW2NIXVtjSF1jKGMxUyg9TykoPU8pW05IMl0pW0NIMl1OKFtDSDNdKWMoYyhjMjMpW2NIXVtjSF1bY0hdW2NIXTMpbmMobjIpW05IXVtDSDJdYzRbY0hdW2NIXWMoW2NIXVtjSF00KVtDSDJdTihbQ0gzXSlbQ0gzXQ==

>  <s_i_glide_gridfile>  (891) 
ATP-Grid

>  <s_lp_Force_Field>  (891) 
OPLS_2005

>  <s_lp_Variant>  (891) 
m_282030aaa____21909402____22360182____21945542-1

>  <s_lp_label>  (891) 
887_sdstereoexpander_1_neutralizer_1_epik_1_stereoizer_1

>  <s_m_source_file>  (891) 
ATP-VSW-LIGPREP-002-in.maegz

>  <s_sd_BIOSOLVEIT.INFINISEE\_QUERY\_NAME>  (891) 
Ref-Lig

>  <s_sd_BIOSOLVEIT.INFINISEE\_QUERY\_SMILES>  (891) 
S(c1nc2c(cc1C[NH2+]Cc3ccc(cc3)C[NH+](C)C)cccc2)Cc4ccccc4

>  <s_sd_BIOSOLVEIT.INFINISEE\_REACTION\_NAME>  (891) 
m_282030aaa

>  <s_sd_BIOSOLVEIT.INFINISEE\_REAGENT1\_SMILES>  (891) 
[R1*]N(Cc1c(S(=O)(=O)N)cccc1)C

>  <s_sd_BIOSOLVEIT.INFINISEE\_REAGENT2\_SMILES>  (891) 
[R2*]c1nc([R1*])c2c(n1)cccc2

>  <s_sd_BIOSOLVEIT.INFINISEE\_REAGENT3\_SMILES>  (891) 
[R2*]NCc1ccc(cc1)CN(C)C

>  <s_sd_BIOSOLVEIT.INFINISEE\_SPACE>  (891) 
REALSpace_44bn_2023-08

>  <s_vsw_compound_code>  (891) 
28354

>  <s_vsw_variant>  (891) 
28354-1

>  <r_epik_Charging_Adjusted_Penalty>  (891) 
0.092964181856787897

>  <r_epik_Ionization_Penalty>  (891) 
0.046899999999999997

>  <r_epik_Ionization_Penalty_Charging>  (891) 
0.046699999999999998

>  <r_epik_Ionization_Penalty_Neutral>  (891) 
0.00020000000000000001

>  <r_epik_State_Penalty>  (891) 
0.046199999999999998

>  <r_i_docking_score>  (891) 
-3.17605029065516

>  <r_i_glide_ecoul>  (891) 
-4.3892354965209996

>  <r_i_glide_eff_state_penalty>  (891) 
0.046199999999999998

>  <r_i_glide_einternal>  (891) 
6.4130439758300799

>  <r_i_glide_emodel>  (891) 
-49.827435935980702

>  <r_i_glide_energy>  (891) 
-39.886237144470201

>  <r_i_glide_erotb>  (891) 
0.58741885616192202

>  <r_i_glide_esite>  (891) 
-0.087951719108275705

>  <r_i_glide_evdw>  (891) 
-35.497001647949197

>  <r_i_glide_gscore>  (891) 
-3.2222502906551602

>  <r_i_glide_hbond>  (891) 
0

>  <r_i_glide_ligand_efficiency>  (891) 
-0.090744294018718905

>  <r_i_glide_ligand_efficiency_ln>  (891) 
-0.69721352743718201

>  <r_i_glide_ligand_efficiency_sa>  (891) 
-0.29683060265470101

>  <r_i_glide_lipo>  (891) 
-0.91927497392816304

>  <r_i_glide_metal>  (891) 
-0

>  <r_i_glide_rewards>  (891) 
-0.36920704690503597

>  <r_lp_Energy>  (891) 
29.685689

>  <r_qp_ACxDN^.5/SA>  (891) 
0.023425399999999999

>  <r_qp_CIQPlogS>  (891) 
-5.5609999999999999

>  <r_qp_EA(eV)>  (891) 
0.67900000000000005

>  <r_qp_FISA>  (891) 
136.64599999999999

>  <r_qp_FOSA>  (891) 
233.482

>  <r_qp_IP(eV)>  (891) 
8.0419999999999998

>  <r_qp_Jm>  (891) 
0.074313794236225098

>  <r_qp_PISA>  (891) 
331.44299999999998

>  <r_qp_PSA>  (891) 
97.016000000000005

>  <r_qp_PercentHumanOralAbsorption>  (891) 
81.426000000000002

>  <r_qp_QPPCaco>  (891) 
125.023

>  <r_qp_QPPMDCK>  (891) 
58.457000000000001

>  <r_qp_QPlogBB>  (891) 
-0.85999999999999999

>  <r_qp_QPlogHERG>  (891) 
-6.0430000000000001

>  <r_qp_QPlogKhsa>  (891) 
0.193

>  <r_qp_QPlogKp>  (891) 
-3.9729999999999999

>  <r_qp_QPlogPC16>  (891) 
15.159000000000001

>  <r_qp_QPlogPo/w>  (891) 
2.895

>  <r_qp_QPlogPoct>  (891) 
25.620999999999999

>  <r_qp_QPlogPw>  (891) 
16.138999999999999

>  <r_qp_QPlogS>  (891) 
-2.847

>  <r_qp_QPpolrz>  (891) 
46.829000000000001

>  <r_qp_SASA>  (891) 
702.41999999999996

>  <r_qp_SAamideO>  (891) 
0

>  <r_qp_SAfluorine>  (891) 
0

>  <r_qp_WPSA>  (891) 
0.84999999999999998

>  <r_qp_accptHB>  (891) 
9.5

>  <r_qp_dip^2/V>  (891) 
0.023109999999999999

>  <r_qp_dipole>  (891) 
5.6989999999999998

>  <r_qp_donorHB>  (891) 
3

>  <r_qp_glob>  (891) 
0.86378339999999998

>  <r_qp_mol_MW>  (891) 
490.62200000000001

>  <r_qp_volume>  (891) 
1405.2550000000001

>  <r_sd_BIOSOLVEIT.INFINISEE\_FTREES\_SIMILARITY>  (891) 
0.91900000000000004

>  <r_sd_BIOSOLVEIT.LOGP>  (891) 
2.8208000000000002

>  <r_sd_BIOSOLVEIT.MOLECULAR\_WEIGHT>  (891) 
491.63600000000002

>  <r_sd_BIOSOLVEIT.TPSA>  (891) 
105.65000000000001

>  <i_epik_Tot_Q>  (891) 
2

>  <i_epik_Tot_abs_Q>  (891) 
2

>  <i_f3d_flags>  (891) 
0

>  <i_i_glide_confnum>  (891) 
3

>  <i_i_glide_lignum>  (891) 
281

>  <i_i_glide_posenum>  (891) 
6

>  <i_i_glide_rotatable_bonds>  (891) 
9

>  <i_lp_mmshare_version>  (891) 
65135

>  <i_m_ct_format>  (891) 
2

>  <i_m_source_file_index>  (891) 
887

>  <i_qp_#NandO>  (891) 
8

>  <i_qp_#acid>  (891) 
0

>  <i_qp_#amide>  (891) 
0

>  <i_qp_#amidine>  (891) 
0

>  <i_qp_#amine>  (891) 
1

>  <i_qp_#in34>  (891) 
0

>  <i_qp_#in56>  (891) 
22

>  <i_qp_#metab>  (891) 
4

>  <i_qp_#nonHatm>  (891) 
35

>  <i_qp_#noncon>  (891) 
0

>  <i_qp_#ringatoms>  (891) 
22

>  <i_qp_#rotor>  (891) 
10

>  <i_qp_#rtvFG>  (891) 
0

>  <i_qp_#stars>  (891) 
0

>  <i_qp_CNS>  (891) 
-1

>  <i_qp_HumanOralAbsorption>  (891) 
3

>  <i_qp_RuleOfFive>  (891) 
0

>  <i_qp_RuleOfThree>  (891) 
0

>  <i_sd_BIOSOLVEIT.INFINISEE\_REAGENT1\_NAME>  (891) 
21909402

>  <i_sd_BIOSOLVEIT.INFINISEE\_REAGENT2\_NAME>  (891) 
22360182

>  <i_sd_BIOSOLVEIT.INFINISEE\_REAGENT3\_NAME>  (891) 
21945542

>  <i_sd_BIOSOLVEIT.INFINISEE\_RESULT\_RANK>  (891) 
17726

>  <i_sd_version>  (891) 
0

>  <b_lp_Chiralities_Consistent>  (891) 
1

>  <b_sd_chiral_flag>  (891) 
0

>  <canonical_id>  (891) 
ATP-HTVS-8EB0CBA3C42A

>  <compound_code>  (891) 
28354

>  <title>  (891) 
m_282030aaa____21909402____22360182____21945542

>  <variant>  (891) 
28354-1

>  <source_file>  (891) 
运行/运行/ATP-VSW/ATP-VSW-DOCK_HTVS_1-002_lib.maegz

>  <canonical_smiles>  (891) 
CN(Cc1ccccc1S(N)(=O)=O)c1nc(NCc2ccc(C[NH+](C)C)cc2)[nH+]c2ccccc12

>  <scaffold>  (891) 
c1ccc(CNc2nc(NCc3ccccc3)c3ccccc3[nH+]2)cc1

>  <molecular_formula>  (891) 
C26H32N6O2S+2

$$$$
ATP-HTVS-8EBB5954A050
     RDKit          3D

 58 61  0  0  0  0  0  0  0  0999 V2000
  197.7832  182.5487  154.5967 O   0  0  0  0  0  0  0  0  0  0  0  0
  197.3869  181.4999  155.1022 C   0  0  0  0  0  0  0  0  0  0  0  0
  197.1944  181.3861  156.4392 N   0  0  0  0  0  0  0  0  0  0  0  0
  197.5830  182.3659  157.4145 C   0  0  0  0  0  0  0  0  0  0  0  0
  198.9343  182.7962  157.5584 C   0  0  0  0  0  0  0  0  0  0  0  0
  200.0011  182.2892  156.7854 N   0  0  0  0  0  0  0  0  0  0  0  0
  200.7586  182.9925  155.8125 C   0  0  0  0  0  0  0  0  0  0  0  0
  201.5389  182.3366  154.8141 C   0  0  0  0  0  0  0  0  0  0  0  0
  202.2773  183.0700  153.8672 C   0  0  0  0  0  0  0  0  0  0  0  0
  202.2697  184.4787  153.8921 C   0  0  0  0  0  0  0  0  0  0  0  0
  201.5022  185.1448  154.8608 C   0  0  0  0  0  0  0  0  0  0  0  0
  200.7463  184.4139  155.7981 C   0  0  0  0  0  0  0  0  0  0  0  0
  200.3198  180.8816  157.0399 C   0  0  1  0  0  0  0  0  0  0  0  0
  201.5080  180.7135  157.8874 C   0  0  0  0  0  0  0  0  0  0  0  0
  202.4445  180.5655  158.5492 N   0  0  0  0  0  0  0  0  0  0  0  0
  199.2155  183.7460  158.5626 C   0  0  0  0  0  0  0  0  0  0  0  0
  198.2785  184.3082  159.3483 N   0  0  0  0  0  0  0  0  0  0  0  0
  196.9938  183.9424  159.2019 C   0  0  0  0  0  0  0  0  0  0  0  0
  196.5846  182.9582  158.2452 C   0  0  0  0  0  0  0  0  0  0  0  0
  195.2215  182.6238  158.1295 C   0  0  0  0  0  0  0  0  0  0  0  0
  194.2472  183.2716  158.9122 C   0  0  0  0  0  0  0  0  0  0  0  0
  194.6441  184.2530  159.8406 C   0  0  0  0  0  0  0  0  0  0  0  0
  196.0004  184.5748  159.9805 C   0  0  0  0  0  0  0  0  0  0  0  0
  197.0755  180.2826  154.2007 C   0  0  1  0  0  0  0  0  0  0  0  0
  196.5001  180.5860  152.8370 N   0  0  0  0  0  0  0  0  0  0  0  0
  197.1378  181.5733  151.9469 C   0  0  2  0  0  0  0  0  0  0  0  0
  196.1471  179.3790  152.1088 C   0  0  2  0  0  0  0  0  0  0  0  0
  198.2979  179.3944  154.2447 C   0  0  0  0  0  0  0  0  0  0  0  0
  198.7326  178.7682  155.4342 C   0  0  0  0  0  0  0  0  0  0  0  0
  199.8831  177.9562  155.5005 C   0  0  0  0  0  0  0  0  0  0  0  0
  200.6172  177.6925  154.3477 C   0  0  0  0  0  0  0  0  0  0  0  0
  200.1817  178.2530  153.1173 C   0  0  0  0  0  0  0  0  0  0  0  0
  199.0561  179.1006  153.0689 C   0  0  0  0  0  0  0  0  0  0  0  0
  196.7114  180.5771  156.8245 H   0  0  0  0  0  0  0  0  0  0  0  0
  201.5866  181.2591  154.7119 H   0  0  0  0  0  0  0  0  0  0  0  0
  202.8519  182.5455  153.1169 H   0  0  0  0  0  0  0  0  0  0  0  0
  202.8436  185.0384  153.1709 H   0  0  0  0  0  0  0  0  0  0  0  0
  201.4815  186.2263  154.8981 H   0  0  0  0  0  0  0  0  0  0  0  0
  200.1567  184.9800  156.5062 H   0  0  0  0  0  0  0  0  0  0  0  0
  199.4802  180.3597  157.5091 H   0  0  0  0  0  0  0  0  0  0  0  0
  200.5076  180.3726  156.0994 H   0  0  0  0  0  0  0  0  0  0  0  0
  200.2320  184.0552  158.7362 H   0  0  0  0  0  0  0  0  0  0  0  0
  194.8757  181.9072  157.3986 H   0  0  0  0  0  0  0  0  0  0  0  0
  193.2037  183.0264  158.7844 H   0  0  0  0  0  0  0  0  0  0  0  0
  193.8958  184.7555  160.4363 H   0  0  0  0  0  0  0  0  0  0  0  0
  196.3118  185.3223  160.7009 H   0  0  0  0  0  0  0  0  0  0  0  0
  196.2942  179.7673  154.7484 H   0  0  0  0  0  0  0  0  0  0  0  0
  196.4938  181.7370  151.0711 H   0  0  0  0  0  0  0  0  0  0  0  0
  198.1025  181.2217  151.5713 H   0  0  0  0  0  0  0  0  0  0  0  0
  197.2707  182.5578  152.4087 H   0  0  0  0  0  0  0  0  0  0  0  0
  195.4566  179.5973  151.2813 H   0  0  0  0  0  0  0  0  0  0  0  0
  195.6154  178.6883  152.7641 H   0  0  0  0  0  0  0  0  0  0  0  0
  197.0089  178.8570  151.7605 H   0  0  0  0  0  0  0  0  0  0  0  0
  198.1496  178.8941  156.3307 H   0  0  0  0  0  0  0  0  0  0  0  0
  200.1967  177.5563  156.4534 H   0  0  0  0  0  0  0  0  0  0  0  0
  201.4997  177.0674  154.3723 H   0  0  0  0  0  0  0  0  0  0  0  0
  200.7156  178.0177  152.2002 H   0  0  0  0  0  0  0  0  0  0  0  0
  198.7431  179.4856  152.0831 H   0  0  0  0  0  0  0  0  0  0  0  0
  1  2  2  0
  2  3  1  0
  2 24  1  0
  3  4  1  0
  3 34  1  0
  4  5  2  0
  4 19  1  0
  5  6  1  0
  5 16  1  0
  6  7  1  0
  6 13  1  0
  7  8  2  0
  7 12  1  0
  8  9  1  0
  8 35  1  0
  9 10  2  0
  9 36  1  0
 10 11  1  0
 10 37  1  0
 11 12  2  0
 11 38  1  0
 12 39  1  0
 13 14  1  0
 13 40  1  1
 13 41  1  0
 14 15  3  0
 16 17  2  0
 16 42  1  0
 17 18  1  0
 18 19  1  0
 18 23  2  0
 19 20  2  0
 20 21  1  0
 20 43  1  0
 21 22  2  0
 21 44  1  0
 22 23  1  0
 22 45  1  0
 23 46  1  0
 24 25  1  0
 24 28  1  0
 24 47  1  1
 25 26  1  0
 25 27  1  0
 26 48  1  6
 26 49  1  0
 26 50  1  0
 27 51  1  6
 27 52  1  0
 27 53  1  0
 28 29  2  0
 28 33  1  0
 29 30  1  0
 29 54  1  0
 30 31  2  0
 30 55  1  0
 31 32  1  0
 31 56  1  0
 32 33  2  0
 32 57  1  0
 33 58  1  0
M  END
>  <s_epik_cmdline>  (892) 
J2VwaWtfcHl0aG9uJywgJy1waCcsICc3LjAwMDAwMCcsICctcGh0JywgJzIuMDAwMDAwJywgJy1tcycsICcxNicsICctdG4nLCAnOCcsICctbWEnLCAnMjAwJywgJy1pbWFlJywgJzxpbmZpbGUubWFlPicsICctb21hZScsICc8b3V0ZmlsZS5tYWU+Jw==

>  <s_epik_input>  (892) 
W2NIXTFbY0hdW2NIXVtjSF1bY0hdYzFbQ0BIXShOKFtDSDNdKVtDSDNdKUMoPU8pW05IXWMoYyhjMjMpW2NIXVtjSF1bY0hdW2NIXTMpYyhbY0hdbjIpTihbQ0gyXUMjTiljNFtjSF1bY0hdW2NIXVtjSF1bY0hdNA==

>  <s_i_glide_gridfile>  (892) 
ATP-Grid

>  <s_lp_Force_Field>  (892) 
OPLS_2005

>  <s_lp_Variant>  (892) 
rxn502b____EMOL3728885____EMOL13728749____EMOL712348-2

>  <s_lp_label>  (892) 
2663_sdstereoexpander_2_neutralizer_1_epik_1_stereoizer_1

>  <s_m_source_file>  (892) 
ATP-VSW-LIGPREP-003-in.maegz

>  <s_sd_BIOSOLVEIT.INFINISEE\_QUERY\_NAME>  (892) 
Ref-Lig

>  <s_sd_BIOSOLVEIT.INFINISEE\_QUERY\_SMILES>  (892) 
S(c1nc2c(cc1C[NH2+]Cc3ccc(cc3)C[NH+](C)C)cccc2)Cc4ccccc4

>  <s_sd_BIOSOLVEIT.INFINISEE\_REACTION\_NAME>  (892) 
rxn502b

>  <s_sd_BIOSOLVEIT.INFINISEE\_REAGENT1\_NAME>  (892) 
EMOL3728885

>  <s_sd_BIOSOLVEIT.INFINISEE\_REAGENT1\_SMILES>  (892) 
O=C(O)C(N(C)C)c1ccccc1

>  <s_sd_BIOSOLVEIT.INFINISEE\_REAGENT2\_NAME>  (892) 
EMOL13728749

>  <s_sd_BIOSOLVEIT.INFINISEE\_REAGENT2\_SMILES>  (892) 
Brc1c(N)c2c(nc1)cccc2

>  <s_sd_BIOSOLVEIT.INFINISEE\_REAGENT3\_NAME>  (892) 
EMOL712348

>  <s_sd_BIOSOLVEIT.INFINISEE\_REAGENT3\_SMILES>  (892) 
N#CCNc1ccccc1

>  <s_sd_BIOSOLVEIT.INFINISEE\_SPACE>  (892) 
eXplore_7tr_2022-12

>  <s_vsw_compound_code>  (892) 
85187

>  <s_vsw_variant>  (892) 
85187-2

>  <r_epik_Charging_Adjusted_Penalty>  (892) 
0.12545256721339301

>  <r_epik_Ionization_Penalty>  (892) 
0.1298

>  <r_epik_Ionization_Penalty_Charging>  (892) 
0

>  <r_epik_Ionization_Penalty_Neutral>  (892) 
0.1298

>  <r_epik_State_Penalty>  (892) 
0.1255

>  <r_i_docking_score>  (892) 
-3.56939813924896

>  <r_i_glide_ecoul>  (892) 
-4.4036927223205602

>  <r_i_glide_eff_state_penalty>  (892) 
0.1255

>  <r_i_glide_einternal>  (892) 
6.63588619232178

>  <r_i_glide_emodel>  (892) 
-44.191818849289803

>  <r_i_glide_energy>  (892) 
-38.047892093658398

>  <r_i_glide_erotb>  (892) 
0.52523268923406896

>  <r_i_glide_esite>  (892) 
-0.10525327638427701

>  <r_i_glide_evdw>  (892) 
-33.644199371337898

>  <r_i_glide_gscore>  (892) 
-3.6948981392489699

>  <r_i_glide_hbond>  (892) 
-0.15383799054917399

>  <r_i_glide_ligand_efficiency>  (892) 
-0.10816357997724101

>  <r_i_glide_ligand_efficiency_ln>  (892) 
-0.79381566481450605

>  <r_i_glide_ligand_efficiency_sa>  (892) 
-0.34693839562789303

>  <r_i_glide_lipo>  (892) 
-1.1482636205582299

>  <r_i_glide_metal>  (892) 
-0

>  <r_i_glide_rewards>  (892) 
-0.47001206407637403

>  <r_lp_Energy>  (892) 
47.921878999999997

>  <r_qp_ACxDN^.5/SA>  (892) 
0.0108082

>  <r_qp_CIQPlogS>  (892) 
-6.3300000000000001

>  <r_qp_EA(eV)>  (892) 
1.2509999999999999

>  <r_qp_FISA>  (892) 
75.403000000000006

>  <r_qp_FOSA>  (892) 
126.087

>  <r_qp_IP(eV)>  (892) 
8.4589999999999996

>  <r_qp_Jm>  (892) 
0.037423950242193998

>  <r_qp_PISA>  (892) 
492.428

>  <r_qp_PSA>  (892) 
68.033000000000001

>  <r_qp_PercentHumanOralAbsorption>  (892) 
100

>  <r_qp_QPPCaco>  (892) 
476.15899999999999

>  <r_qp_QPPMDCK>  (892) 
245.42400000000001

>  <r_qp_QPlogBB>  (892) 
-0.22600000000000001

>  <r_qp_QPlogHERG>  (892) 
-7.1369999999999996

>  <r_qp_QPlogKhsa>  (892) 
0.42199999999999999

>  <r_qp_QPlogKp>  (892) 
-2.4689999999999999

>  <r_qp_QPlogPC16>  (892) 
14.781000000000001

>  <r_qp_QPlogPo/w>  (892) 
4.0389999999999997

>  <r_qp_QPlogPoct>  (892) 
21.827000000000002

>  <r_qp_QPlogPw>  (892) 
12.339

>  <r_qp_QPlogS>  (892) 
-4.5970000000000004

>  <r_qp_QPpolrz>  (892) 
46.710999999999999

>  <r_qp_SASA>  (892) 
693.91899999999998

>  <r_qp_SAamideO>  (892) 
0

>  <r_qp_SAfluorine>  (892) 
0

>  <r_qp_WPSA>  (892) 
0

>  <r_qp_accptHB>  (892) 
7.5

>  <r_qp_dip^2/V>  (892) 
0.047305600000000003

>  <r_qp_dipole>  (892) 
7.9370000000000003

>  <r_qp_donorHB>  (892) 
1

>  <r_qp_glob>  (892) 
0.84362570000000003

>  <r_qp_mol_MW>  (892) 
435.52699999999999

>  <r_qp_volume>  (892) 
1331.8019999999999

>  <r_sd_BIOSOLVEIT.INFINISEE\_FTREES\_SIMILARITY>  (892) 
0.91000000000000003

>  <r_sd_BIOSOLVEIT.LOGP>  (892) 
3.72078

>  <r_sd_BIOSOLVEIT.MOLECULAR\_WEIGHT>  (892) 
436.536

>  <r_sd_BIOSOLVEIT.TPSA>  (892) 
73.459999999999994

>  <i_epik_Tot_Q>  (892) 
0

>  <i_epik_Tot_abs_Q>  (892) 
0

>  <i_f3d_flags>  (892) 
0

>  <i_i_glide_confnum>  (892) 
6

>  <i_i_glide_lignum>  (892) 
1245

>  <i_i_glide_posenum>  (892) 
8

>  <i_i_glide_rotatable_bonds>  (892) 
8

>  <i_lp_mmshare_version>  (892) 
65135

>  <i_m_ct_format>  (892) 
2

>  <i_m_source_file_index>  (892) 
2663

>  <i_qp_#NandO>  (892) 
6

>  <i_qp_#acid>  (892) 
0

>  <i_qp_#amide>  (892) 
0

>  <i_qp_#amidine>  (892) 
0

>  <i_qp_#amine>  (892) 
1

>  <i_qp_#in34>  (892) 
0

>  <i_qp_#in56>  (892) 
22

>  <i_qp_#metab>  (892) 
7

>  <i_qp_#nonHatm>  (892) 
33

>  <i_qp_#noncon>  (892) 
0

>  <i_qp_#ringatoms>  (892) 
22

>  <i_qp_#rotor>  (892) 
8

>  <i_qp_#rtvFG>  (892) 
0

>  <i_qp_#stars>  (892) 
1

>  <i_qp_CNS>  (892) 
1

>  <i_qp_HumanOralAbsorption>  (892) 
3

>  <i_qp_RuleOfFive>  (892) 
0

>  <i_qp_RuleOfThree>  (892) 
1

>  <i_sd_BIOSOLVEIT.INFINISEE\_RESULT\_RANK>  (892) 
48020

>  <i_sd_version>  (892) 
0

>  <b_lp_Chiralities_Consistent>  (892) 
1

>  <b_sd_chiral_flag>  (892) 
0

>  <canonical_id>  (892) 
ATP-HTVS-8EBB5954A050

>  <compound_code>  (892) 
85187

>  <title>  (892) 
rxn502b____EMOL3728885____EMOL13728749____EMOL712348

>  <variant>  (892) 
85187-2

>  <source_file>  (892) 
运行/运行/ATP-VSW/ATP-VSW-DOCK_HTVS_1-003_lib/ATP-VSW-DOCK_HTVS_1-003_lib.mae

>  <canonical_smiles>  (892) 
CN(C)[C@H](C(=O)Nc1c(N(CC#N)c2ccccc2)cnc2ccccc12)c1ccccc1

>  <scaffold>  (892) 
O=C(Cc1ccccc1)Nc1c(Nc2ccccc2)cnc2ccccc12

>  <molecular_formula>  (892) 
C27H25N5O

$$$$
ATP-HTVS-8ECA82FC9C79
     RDKit          3D

 45 47  0  0  0  0  0  0  0  0999 V2000
  195.9059  187.8658  160.9559 S   0  0  0  0  0  0  0  0  0  0  0  0
  197.1701  187.2634  159.9012 C   0  0  0  0  0  0  0  0  0  0  0  0
  196.9026  186.0536  159.4044 N   0  0  0  0  0  0  0  0  0  0  0  0
  195.6810  185.5255  159.8372 C   0  0  0  0  0  0  0  0  0  0  0  0
  195.2803  184.1920  159.3844 C   0  0  0  0  0  0  0  0  0  0  0  0
  193.9511  183.9405  158.9783 C   0  0  0  0  0  0  0  0  0  0  0  0
  193.5697  182.6833  158.4908 C   0  0  0  0  0  0  0  0  0  0  0  0
  194.4783  181.6240  158.5226 C   0  0  0  0  0  0  0  0  0  0  0  0
  195.8009  181.8516  158.9405 C   0  0  0  0  0  0  0  0  0  0  0  0
  196.2093  183.1347  159.3547 C   0  0  0  0  0  0  0  0  0  0  0  0
  195.0085  186.3991  160.6579 C   0  0  0  0  0  0  0  0  0  0  0  0
  198.3200  188.0085  159.6582 N   0  0  0  0  0  0  0  0  0  0  0  0
  199.4520  187.8574  158.7542 C   0  0  1  0  0  0  0  0  0  0  0  0
  199.6421  186.4518  158.2204 C   0  0  0  0  0  0  0  0  0  0  0  0
  200.1364  185.4236  159.0480 C   0  0  0  0  0  0  0  0  0  0  0  0
  200.1577  184.0921  158.5850 C   0  0  0  0  0  0  0  0  0  0  0  0
  199.7088  183.7832  157.2759 C   0  0  0  0  0  0  0  0  0  0  0  0
  199.2985  184.8264  156.4207 C   0  0  0  0  0  0  0  0  0  0  0  0
  199.2359  186.1471  156.9007 C   0  0  0  0  0  0  0  0  0  0  0  0
  199.6253  182.3444  156.7963 C   0  0  1  0  0  0  0  0  0  0  0  0
  198.2340  181.7953  156.8126 N   0  0  1  0  0  0  0  0  0  0  0  0
  197.2619  182.5377  155.9705 C   0  0  2  0  0  0  0  0  0  0  0  0
  198.1914  180.3476  156.5133 C   0  0  2  0  0  0  0  0  0  0  0  0
  193.1996  184.7052  159.0139 H   0  0  0  0  0  0  0  0  0  0  0  0
  192.5679  182.5265  158.1164 H   0  0  0  0  0  0  0  0  0  0  0  0
  194.1599  180.6402  158.1980 H   0  0  0  0  0  0  0  0  0  0  0  0
  196.4969  181.0329  158.9529 H   0  0  0  0  0  0  0  0  0  0  0  0
  197.2288  183.2998  159.6759 H   0  0  0  0  0  0  0  0  0  0  0  0
  194.0402  186.2625  161.1139 H   0  0  0  0  0  0  0  0  0  0  0  0
  198.4297  188.7845  160.2947 H   0  0  0  0  0  0  0  0  0  0  0  0
  199.3120  188.5434  157.9202 H   0  0  0  0  0  0  0  0  0  0  0  0
  200.3647  188.1605  159.2630 H   0  0  0  0  0  0  0  0  0  0  0  0
  200.4365  185.6544  160.0595 H   0  0  0  0  0  0  0  0  0  0  0  0
  200.4933  183.3075  159.2558 H   0  0  0  0  0  0  0  0  0  0  0  0
  198.9965  184.6339  155.4144 H   0  0  0  0  0  0  0  0  0  0  0  0
  198.8170  186.9239  156.2681 H   0  0  0  0  0  0  0  0  0  0  0  0
  200.0510  182.2668  155.7918 H   0  0  0  0  0  0  0  0  0  0  0  0
  200.2603  181.7249  157.4361 H   0  0  0  0  0  0  0  0  0  0  0  0
  197.5891  182.5444  154.9290 H   0  0  0  0  0  0  0  0  0  0  0  0
  197.1412  183.5741  156.3035 H   0  0  0  0  0  0  0  0  0  0  0  0
  196.2648  182.0762  156.0023 H   0  0  0  0  0  0  0  0  0  0  0  0
  198.5919  180.1421  155.5206 H   0  0  0  0  0  0  0  0  0  0  0  0
  197.1568  179.9971  156.5342 H   0  0  0  0  0  0  0  0  0  0  0  0
  198.7603  179.7662  157.2391 H   0  0  0  0  0  0  0  0  0  0  0  0
  197.9005  181.8915  157.7599 H   0  0  0  0  0  0  0  0  0  0  0  0
  1  2  1  0
  1 11  1  0
  2  3  2  0
  2 12  1  0
  3  4  1  0
  4  5  1  0
  4 11  2  0
  5  6  2  0
  5 10  1  0
  6  7  1  0
  6 24  1  0
  7  8  2  0
  7 25  1  0
  8  9  1  0
  8 26  1  0
  9 10  2  0
  9 27  1  0
 10 28  1  0
 11 29  1  0
 12 13  1  0
 12 30  1  0
 13 14  1  0
 13 31  1  6
 13 32  1  0
 14 15  1  0
 14 19  2  0
 15 16  2  0
 15 33  1  0
 16 17  1  0
 16 34  1  0
 17 18  2  0
 17 20  1  0
 18 19  1  0
 18 35  1  0
 19 36  1  0
 20 21  1  0
 20 37  1  6
 20 38  1  0
 21 22  1  0
 21 23  1  0
 21 45  1  1
 22 39  1  6
 22 40  1  0
 22 41  1  0
 23 42  1  6
 23 43  1  0
 23 44  1  0
M  CHG  1  21   1
M  END
>  <s_epik_cmdline>  (893) 
J2VwaWtfcHl0aG9uJywgJy1waCcsICc3LjAwMDAwMCcsICctcGh0JywgJzIuMDAwMDAwJywgJy1tcycsICcxNicsICctdG4nLCAnOCcsICctbWEnLCAnMjAwJywgJy1pbWFlJywgJzxpbmZpbGUubWFlPicsICctb21hZScsICc8b3V0ZmlsZS5tYWU+Jw==

>  <s_epik_input>  (893) 
W2NIXTFbY0hdW2NIXVtjSF1bY0hdYzEtYyhuMilbY0hdc2MyW05IXVtDSDJdYzNbY0hdW2NIXWMoW2NIXVtjSF0zKVtDSDJdTihbQ0gzXSlbQ0gzXQ==

>  <s_i_glide_gridfile>  (893) 
ATP-Grid

>  <s_lp_Force_Field>  (893) 
OPLS_2005

>  <s_lp_Variant>  (893) 
WXDL_15E____QS5063____LN00171853____BT2957-1

>  <s_lp_label>  (893) 
628_sdstereoexpander_1_neutralizer_1_epik_1_stereoizer_1

>  <s_m_source_file>  (893) 
ATP-VSW-LIGPREP-002-in.maegz

>  <s_sd_BIOSOLVEIT.INFINISEE\_QUERY\_NAME>  (893) 
Ref-Lig

>  <s_sd_BIOSOLVEIT.INFINISEE\_QUERY\_SMILES>  (893) 
S(c1nc2c(cc1C[NH2+]Cc3ccc(cc3)C[NH+](C)C)cccc2)Cc4ccccc4

>  <s_sd_BIOSOLVEIT.INFINISEE\_REACTION\_NAME>  (893) 
WXDL_15E

>  <s_sd_BIOSOLVEIT.INFINISEE\_REAGENT1\_NAME>  (893) 
QS5063

>  <s_sd_BIOSOLVEIT.INFINISEE\_REAGENT1\_SMILES>  (893) 
O=Cc1ccc(cc1)CN(C)C

>  <s_sd_BIOSOLVEIT.INFINISEE\_REAGENT2\_NAME>  (893) 
LN00171853

>  <s_sd_BIOSOLVEIT.INFINISEE\_REAGENT2\_SMILES>  (893) 
BrC=1N=C(SC1)NC(=O)OC(C)(C)C

>  <s_sd_BIOSOLVEIT.INFINISEE\_REAGENT3\_NAME>  (893) 
BT2957

>  <s_sd_BIOSOLVEIT.INFINISEE\_REAGENT3\_SMILES>  (893) 
O1CCCOB1c2ccccc2

>  <s_sd_BIOSOLVEIT.INFINISEE\_SPACE>  (893) 
GalaXi_12bn_2023-03

>  <s_vsw_compound_code>  (893) 
20066

>  <s_vsw_variant>  (893) 
20066-1

>  <r_epik_Charging_Adjusted_Penalty>  (893) 
0.082222346837749399

>  <r_epik_Ionization_Penalty>  (893) 
0.047300000000000002

>  <r_epik_Ionization_Penalty_Charging>  (893) 
0.041099999999999998

>  <r_epik_Ionization_Penalty_Neutral>  (893) 
0.0061999999999999998

>  <r_epik_State_Penalty>  (893) 
0.041099999999999998

>  <r_i_docking_score>  (893) 
-4.3888441740390904

>  <r_i_glide_ecoul>  (893) 
-7.3479976654052699

>  <r_i_glide_eff_state_penalty>  (893) 
0.041099999999999998

>  <r_i_glide_einternal>  (893) 
2.12315893173218

>  <r_i_glide_emodel>  (893) 
-45.571702360825803

>  <r_i_glide_energy>  (893) 
-32.6592407226562

>  <r_i_glide_erotb>  (893) 
0.88946429549808403

>  <r_i_glide_esite>  (893) 
-0.0597936770640747

>  <r_i_glide_evdw>  (893) 
-25.311243057251001

>  <r_i_glide_gscore>  (893) 
-4.4299441740390897

>  <r_i_glide_hbond>  (893) 
0

>  <r_i_glide_ligand_efficiency>  (893) 
-0.190819311914743

>  <r_i_glide_ligand_efficiency_ln>  (893) 
-1.06126231712139

>  <r_i_glide_ligand_efficiency_sa>  (893) 
-0.54266473970516005

>  <r_i_glide_lipo>  (893) 
-1.47001717161795

>  <r_i_glide_metal>  (893) 
-0

>  <r_i_glide_rewards>  (893) 
-1.42183581818182

>  <r_lp_Energy>  (893) 
5.6018489999999996

>  <r_qp_ACxDN^.5/SA>  (893) 
0.0071907000000000004

>  <r_qp_CIQPlogS>  (893) 
-4.1550000000000002

>  <r_qp_EA(eV)>  (893) 
0.38400000000000001

>  <r_qp_FISA>  (893) 
19.074999999999999

>  <r_qp_FOSA>  (893) 
189.863

>  <r_qp_IP(eV)>  (893) 
8.2970000000000006

>  <r_qp_Jm>  (893) 
0.81266653990129001

>  <r_qp_PISA>  (893) 
293.80099999999999

>  <r_qp_PSA>  (893) 
25.085999999999999

>  <r_qp_PercentHumanOralAbsorption>  (893) 
100

>  <r_qp_QPPCaco>  (893) 
1628.953

>  <r_qp_QPPMDCK>  (893) 
1821.99

>  <r_qp_QPlogBB>  (893) 
0.63200000000000001

>  <r_qp_QPlogHERG>  (893) 
-5.399

>  <r_qp_QPlogKhsa>  (893) 
0.48199999999999998

>  <r_qp_QPlogKp>  (893) 
-2.419

>  <r_qp_QPlogPC16>  (893) 
10.845000000000001

>  <r_qp_QPlogPo/w>  (893) 
4.0410000000000004

>  <r_qp_QPlogPoct>  (893) 
15.115

>  <r_qp_QPlogPw>  (893) 
7.5060000000000002

>  <r_qp_QPlogS>  (893) 
-3.181

>  <r_qp_QPpolrz>  (893) 
35.067

>  <r_qp_SASA>  (893) 
556.27599999999995

>  <r_qp_SAamideO>  (893) 
0

>  <r_qp_SAfluorine>  (893) 
0

>  <r_qp_WPSA>  (893) 
53.536000000000001

>  <r_qp_accptHB>  (893) 
4

>  <r_qp_dip^2/V>  (893) 
0.0061431000000000003

>  <r_qp_dipole>  (893) 
2.528

>  <r_qp_donorHB>  (893) 
1

>  <r_qp_glob>  (893) 
0.8924742

>  <r_qp_mol_MW>  (893) 
323.45499999999998

>  <r_qp_volume>  (893) 
1040.114

>  <r_sd_BIOSOLVEIT.INFINISEE\_FTREES\_SIMILARITY>  (893) 
0.91400000000000003

>  <r_sd_BIOSOLVEIT.LOGP>  (893) 
3.0667

>  <r_sd_BIOSOLVEIT.MOLECULAR\_WEIGHT>  (893) 
324.46899999999999

>  <r_sd_BIOSOLVEIT.TPSA>  (893) 
29.359999999999999

>  <i_epik_Tot_Q>  (893) 
1

>  <i_epik_Tot_abs_Q>  (893) 
1

>  <i_f3d_flags>  (893) 
0

>  <i_i_glide_confnum>  (893) 
5

>  <i_i_glide_lignum>  (893) 
178

>  <i_i_glide_posenum>  (893) 
19

>  <i_i_glide_rotatable_bonds>  (893) 
6

>  <i_lp_mmshare_version>  (893) 
65135

>  <i_m_ct_format>  (893) 
2

>  <i_m_source_file_index>  (893) 
628

>  <i_qp_#NandO>  (893) 
3

>  <i_qp_#acid>  (893) 
0

>  <i_qp_#amide>  (893) 
0

>  <i_qp_#amidine>  (893) 
0

>  <i_qp_#amine>  (893) 
1

>  <i_qp_#in34>  (893) 
0

>  <i_qp_#in56>  (893) 
17

>  <i_qp_#metab>  (893) 
4

>  <i_qp_#nonHatm>  (893) 
23

>  <i_qp_#noncon>  (893) 
0

>  <i_qp_#ringatoms>  (893) 
17

>  <i_qp_#rotor>  (893) 
5

>  <i_qp_#rtvFG>  (893) 
0

>  <i_qp_#stars>  (893) 
0

>  <i_qp_CNS>  (893) 
2

>  <i_qp_HumanOralAbsorption>  (893) 
3

>  <i_qp_RuleOfFive>  (893) 
0

>  <i_qp_RuleOfThree>  (893) 
0

>  <i_sd_BIOSOLVEIT.INFINISEE\_RESULT\_RANK>  (893) 
30247

>  <i_sd_version>  (893) 
0

>  <b_lp_Chiralities_Consistent>  (893) 
1

>  <b_sd_chiral_flag>  (893) 
0

>  <canonical_id>  (893) 
ATP-HTVS-8ECA82FC9C79

>  <compound_code>  (893) 
20066

>  <title>  (893) 
WXDL_15E____QS5063____LN00171853____BT2957

>  <variant>  (893) 
20066-1

>  <source_file>  (893) 
运行/运行/ATP-VSW/ATP-VSW-DOCK_HTVS_1-002_lib.maegz

>  <canonical_smiles>  (893) 
C[NH+](C)Cc1ccc(CNc2nc(-c3ccccc3)cs2)cc1

>  <scaffold>  (893) 
c1ccc(CNc2nc(-c3ccccc3)cs2)cc1

>  <molecular_formula>  (893) 
C19H22N3S+

$$$$
ATP-HTVS-8EDB8C766CED
     RDKit          3D

 54 56  0  0  0  0  0  0  0  0999 V2000
  200.7375  177.4825  158.4698 Cl  0  0  0  0  0  0  0  0  0  0  0  0
  200.5322  177.4369  156.7731 C   0  0  0  0  0  0  0  0  0  0  0  0
  201.0170  175.9964  155.9233 S   0  0  0  0  0  0  0  0  0  0  0  0
  200.6598  176.7626  154.3960 C   0  0  0  0  0  0  0  0  0  0  0  0
  200.8806  175.9524  153.1829 C   0  0  0  0  0  0  0  0  0  0  0  0
  199.9359  175.8427  152.4087 O   0  0  0  0  0  0  0  0  0  0  0  0
  202.1132  175.4150  152.9478 N   0  0  0  0  0  0  0  0  0  0  0  0
  202.2962  174.3794  151.9820 C   0  0  0  0  0  0  0  0  0  0  0  0
  201.9101  174.5462  150.6315 C   0  0  0  0  0  0  0  0  0  0  0  0
  202.1093  173.5138  149.6949 C   0  0  0  0  0  0  0  0  0  0  0  0
  202.7087  172.3028  150.0926 C   0  0  0  0  0  0  0  0  0  0  0  0
  202.8793  171.2252  149.1341 C   0  0  0  0  0  0  0  0  0  0  0  0
  203.0105  170.3609  148.3767 N   0  0  0  0  0  0  0  0  0  0  0  0
  203.1055  172.1263  151.4346 C   0  0  0  0  0  0  0  0  0  0  0  0
  202.9073  173.1625  152.3728 C   0  0  0  0  0  0  0  0  0  0  0  0
  203.3056  175.8276  153.6934 C   0  0  2  0  0  0  0  0  0  0  0  0
  200.0799  177.9960  154.5663 C   0  0  0  0  0  0  0  0  0  0  0  0
  200.0522  178.4074  155.9364 C   0  0  0  0  0  0  0  0  0  0  0  0
  199.5504  179.6472  156.3592 N   0  0  0  0  0  0  0  0  0  0  0  0
  199.2351  180.7519  155.4622 C   0  0  1  0  0  0  0  0  0  0  0  0
  198.4251  181.8791  156.0834 C   0  0  0  0  0  0  0  0  0  0  0  0
  197.4301  181.6114  157.0441 C   0  0  0  0  0  0  0  0  0  0  0  0
  196.6772  182.6552  157.6151 C   0  0  0  0  0  0  0  0  0  0  0  0
  196.9218  183.9865  157.2094 C   0  0  0  0  0  0  0  0  0  0  0  0
  197.8984  184.2548  156.2313 C   0  0  0  0  0  0  0  0  0  0  0  0
  198.6523  183.2060  155.6711 C   0  0  0  0  0  0  0  0  0  0  0  0
  195.6251  182.3420  158.6667 C   0  0  1  0  0  0  0  0  0  0  0  0
  194.2443  182.4930  158.1322 N   0  0  2  0  0  0  0  0  0  0  0  0
  193.5628  183.7006  158.6503 C   0  0  2  0  0  0  0  0  0  0  0  0
  193.4273  181.2703  158.2789 C   0  0  2  0  0  0  0  0  0  0  0  0
  201.4563  175.4693  150.2988 H   0  0  0  0  0  0  0  0  0  0  0  0
  201.7869  173.6510  148.6720 H   0  0  0  0  0  0  0  0  0  0  0  0
  203.5560  171.1966  151.7645 H   0  0  0  0  0  0  0  0  0  0  0  0
  203.2127  173.0044  153.3969 H   0  0  0  0  0  0  0  0  0  0  0  0
  204.2224  175.5838  153.1417 H   0  0  0  0  0  0  0  0  0  0  0  0
  203.3702  175.3283  154.6591 H   0  0  0  0  0  0  0  0  0  0  0  0
  203.3077  176.9047  153.8481 H   0  0  0  0  0  0  0  0  0  0  0  0
  199.7009  178.5842  153.7439 H   0  0  0  0  0  0  0  0  0  0  0  0
  199.5630  179.8342  157.3530 H   0  0  0  0  0  0  0  0  0  0  0  0
  200.1773  181.1480  155.0865 H   0  0  0  0  0  0  0  0  0  0  0  0
  198.6687  180.3827  154.6008 H   0  0  0  0  0  0  0  0  0  0  0  0
  197.2348  180.5946  157.3492 H   0  0  0  0  0  0  0  0  0  0  0  0
  196.3601  184.8047  157.6353 H   0  0  0  0  0  0  0  0  0  0  0  0
  198.0729  185.2716  155.9055 H   0  0  0  0  0  0  0  0  0  0  0  0
  199.3992  183.4173  154.9196 H   0  0  0  0  0  0  0  0  0  0  0  0
  195.7925  181.3287  159.0376 H   0  0  0  0  0  0  0  0  0  0  0  0
  195.7964  182.9832  159.5306 H   0  0  0  0  0  0  0  0  0  0  0  0
  193.4691  183.6873  159.7343 H   0  0  0  0  0  0  0  0  0  0  0  0
  192.5607  183.7659  158.2390 H   0  0  0  0  0  0  0  0  0  0  0  0
  194.1044  184.6072  158.3830 H   0  0  0  0  0  0  0  0  0  0  0  0
  193.2892  181.0109  159.3282 H   0  0  0  0  0  0  0  0  0  0  0  0
  193.9157  180.4303  157.7855 H   0  0  0  0  0  0  0  0  0  0  0  0
  192.4454  181.3947  157.8230 H   0  0  0  0  0  0  0  0  0  0  0  0
  194.2906  182.6328  157.1232 H   0  0  0  0  0  0  0  0  0  0  0  0
  1  2  1  0
  2  3  1  0
  2 18  2  0
  3  4  1  0
  4  5  1  0
  4 17  2  0
  5  6  2  0
  5  7  1  0
  7  8  1  0
  7 16  1  0
  8  9  1  0
  8 15  2  0
  9 10  2  0
  9 31  1  0
 10 11  1  0
 10 32  1  0
 11 12  1  0
 11 14  2  0
 12 13  3  0
 14 15  1  0
 14 33  1  0
 15 34  1  0
 16 35  1  6
 16 36  1  0
 16 37  1  0
 17 18  1  0
 17 38  1  0
 18 19  1  0
 19 20  1  0
 19 39  1  0
 20 21  1  0
 20 40  1  6
 20 41  1  0
 21 22  2  0
 21 26  1  0
 22 23  1  0
 22 42  1  0
 23 24  2  0
 23 27  1  0
 24 25  1  0
 24 43  1  0
 25 26  2  0
 25 44  1  0
 26 45  1  0
 27 28  1  0
 27 46  1  1
 27 47  1  0
 28 29  1  0
 28 30  1  0
 28 54  1  6
 29 48  1  1
 29 49  1  0
 29 50  1  0
 30 51  1  1
 30 52  1  0
 30 53  1  0
M  CHG  1  28   1
M  END
>  <s_epik_cmdline>  (894) 
J2VwaWtfcHl0aG9uJywgJy1waCcsICc3LjAwMDAwMCcsICctcGh0JywgJzIuMDAwMDAwJywgJy1tcycsICcxNicsICctdG4nLCAnOCcsICctbWEnLCAnMjAwJywgJy1pbWFlJywgJzxpbmZpbGUubWFlPicsICctb21hZScsICc8b3V0ZmlsZS5tYWU+Jw==

>  <s_epik_input>  (894) 
TiNDYyhbY0hdW2NIXTEpW2NIXVtjSF1jMU4oW0NIM10pQyg9TyljKHNjMkNsKVtjSF1jMltOSF1bQ0gyXWMzW2NIXWMoW2NIXVtjSF1bY0hdMylbQ0gyXU4oW0NIM10pW0NIM10=

>  <s_i_glide_gridfile>  (894) 
ATP-Grid

>  <s_lp_Force_Field>  (894) 
OPLS_2005

>  <s_lp_Variant>  (894) 
rxn512b____EMOL17281285____EMOL44846536____EMOL2873214-1

>  <s_lp_label>  (894) 
2448_sdstereoexpander_1_neutralizer_1_epik_1_stereoizer_1

>  <s_m_source_file>  (894) 
ATP-VSW-LIGPREP-002-in.maegz

>  <s_sd_BIOSOLVEIT.INFINISEE\_QUERY\_NAME>  (894) 
Ref-Lig

>  <s_sd_BIOSOLVEIT.INFINISEE\_QUERY\_SMILES>  (894) 
S(c1nc2c(cc1C[NH2+]Cc3ccc(cc3)C[NH+](C)C)cccc2)Cc4ccccc4

>  <s_sd_BIOSOLVEIT.INFINISEE\_REACTION\_NAME>  (894) 
rxn512b

>  <s_sd_BIOSOLVEIT.INFINISEE\_REAGENT1\_NAME>  (894) 
EMOL17281285

>  <s_sd_BIOSOLVEIT.INFINISEE\_REAGENT1\_SMILES>  (894) 
N#Cc1ccc(NC)cc1

>  <s_sd_BIOSOLVEIT.INFINISEE\_REAGENT2\_NAME>  (894) 
EMOL44846536

>  <s_sd_BIOSOLVEIT.INFINISEE\_REAGENT2\_SMILES>  (894) 
BrC1=C(Cl)SC(C(=O)O)=C1

>  <s_sd_BIOSOLVEIT.INFINISEE\_REAGENT3\_NAME>  (894) 
EMOL2873214

>  <s_sd_BIOSOLVEIT.INFINISEE\_REAGENT3\_SMILES>  (894) 
N(Cc1cc(ccc1)CN)(C)C

>  <s_sd_BIOSOLVEIT.INFINISEE\_SPACE>  (894) 
eXplore_7tr_2022-12

>  <s_vsw_compound_code>  (894) 
78306

>  <s_vsw_variant>  (894) 
78306-1

>  <r_epik_Charging_Adjusted_Penalty>  (894) 
0.086140609825027206

>  <r_epik_Ionization_Penalty>  (894) 
0.043200000000000002

>  <r_epik_Ionization_Penalty_Charging>  (894) 
0.043099999999999999

>  <r_epik_Ionization_Penalty_Neutral>  (894) 
0.0001

>  <r_epik_State_Penalty>  (894) 
0.043099999999999999

>  <r_i_docking_score>  (894) 
-3.3408238222868598

>  <r_i_glide_ecoul>  (894) 
-8.9699506759643608

>  <r_i_glide_eff_state_penalty>  (894) 
0.043099999999999999

>  <r_i_glide_einternal>  (894) 
11.0793447494507

>  <r_i_glide_emodel>  (894) 
-49.1377992617968

>  <r_i_glide_energy>  (894) 
-42.0078382492065

>  <r_i_glide_erotb>  (894) 
0.72185624816151595

>  <r_i_glide_esite>  (894) 
-0.17623182502052001

>  <r_i_glide_evdw>  (894) 
-33.037887573242202

>  <r_i_glide_gscore>  (894) 
-3.3839238222868602

>  <r_i_glide_hbond>  (894) 
-0.20000000000000001

>  <r_i_glide_ligand_efficiency>  (894) 
-0.11136079407622899

>  <r_i_glide_ligand_efficiency_ln>  (894) 
-0.75907157361462496

>  <r_i_glide_ligand_efficiency_sa>  (894) 
-0.34602387885019298

>  <r_i_glide_lipo>  (894) 
-0.25594117189191501

>  <r_i_glide_metal>  (894) 
-0

>  <r_i_glide_rewards>  (894) 
-0.47622009347917899

>  <r_lp_Energy>  (894) 
37.370812000000001

>  <r_lp_tautomer_probability>  (894) 
0.99999274205267796

>  <r_qp_ACxDN^.5/SA>  (894) 
0.0094868999999999995

>  <r_qp_CIQPlogS>  (894) 
-5.0529999999999999

>  <r_qp_EA(eV)>  (894) 
0.878

>  <r_qp_FISA>  (894) 
124.241

>  <r_qp_FOSA>  (894) 
277.68400000000003

>  <r_qp_IP(eV)>  (894) 
8.4600000000000009

>  <r_qp_Jm>  (894) 
8.4018878908064602e-07

>  <r_qp_PISA>  (894) 
281.54199999999997

>  <r_qp_PSA>  (894) 
71.332999999999998

>  <r_qp_PercentHumanOralAbsorption>  (894) 
77.552999999999997

>  <r_qp_QPPCaco>  (894) 
40.881

>  <r_qp_QPPMDCK>  (894) 
73.789000000000001

>  <r_qp_QPlogBB>  (894) 
-0.27300000000000002

>  <r_qp_QPlogHERG>  (894) 
-8.1240000000000006

>  <r_qp_QPlogKhsa>  (894) 
0.56100000000000005

>  <r_qp_QPlogKp>  (894) 
-6.1749999999999998

>  <r_qp_QPlogPC16>  (894) 
15.276999999999999

>  <r_qp_QPlogPo/w>  (894) 
3.7170000000000001

>  <r_qp_QPlogPoct>  (894) 
22.370000000000001

>  <r_qp_QPlogPw>  (894) 
11.507

>  <r_qp_QPlogS>  (894) 
-5.5430000000000001

>  <r_qp_QPpolrz>  (894) 
47.399000000000001

>  <r_qp_SASA>  (894) 
790.56100000000004

>  <r_qp_SAamideO>  (894) 
0

>  <r_qp_SAfluorine>  (894) 
0

>  <r_qp_WPSA>  (894) 
107.09399999999999

>  <r_qp_accptHB>  (894) 
7.5

>  <r_qp_dip^2/V>  (894) 
0.0621383

>  <r_qp_dipole>  (894) 
9.3249999999999993

>  <r_qp_donorHB>  (894) 
1

>  <r_qp_glob>  (894) 
0.76532259999999996

>  <r_qp_mol_MW>  (894) 
438.97399999999999

>  <r_qp_volume>  (894) 
1399.338

>  <r_sd_BIOSOLVEIT.INFINISEE\_FTREES\_SIMILARITY>  (894) 
0.91600000000000004

>  <r_sd_BIOSOLVEIT.LOGP>  (894) 
3.8063799999999999

>  <r_sd_BIOSOLVEIT.MOLECULAR\_WEIGHT>  (894) 
439.988

>  <r_sd_BIOSOLVEIT.TPSA>  (894) 
60.57

>  <i_epik_Tot_Q>  (894) 
1

>  <i_epik_Tot_abs_Q>  (894) 
1

>  <i_f3d_flags>  (894) 
0

>  <i_i_glide_confnum>  (894) 
6

>  <i_i_glide_lignum>  (894) 
1056

>  <i_i_glide_posenum>  (894) 
13

>  <i_i_glide_rotatable_bonds>  (894) 
8

>  <i_lp_mmshare_version>  (894) 
65135

>  <i_m_ct_format>  (894) 
2

>  <i_m_source_file_index>  (894) 
2448

>  <i_qp_#NandO>  (894) 
5

>  <i_qp_#acid>  (894) 
0

>  <i_qp_#amide>  (894) 
0

>  <i_qp_#amidine>  (894) 
0

>  <i_qp_#amine>  (894) 
2

>  <i_qp_#in34>  (894) 
0

>  <i_qp_#in56>  (894) 
17

>  <i_qp_#metab>  (894) 
5

>  <i_qp_#nonHatm>  (894) 
30

>  <i_qp_#noncon>  (894) 
0

>  <i_qp_#ringatoms>  (894) 
17

>  <i_qp_#rotor>  (894) 
8

>  <i_qp_#rtvFG>  (894) 
0

>  <i_qp_#stars>  (894) 
0

>  <i_qp_CNS>  (894) 
1

>  <i_qp_HumanOralAbsorption>  (894) 
3

>  <i_qp_RuleOfFive>  (894) 
0

>  <i_qp_RuleOfThree>  (894) 
0

>  <i_sd_BIOSOLVEIT.INFINISEE\_RESULT\_RANK>  (894) 
25236

>  <i_sd_version>  (894) 
0

>  <b_lp_Chiralities_Consistent>  (894) 
1

>  <b_sd_chiral_flag>  (894) 
0

>  <canonical_id>  (894) 
ATP-HTVS-8EDB8C766CED

>  <compound_code>  (894) 
78306

>  <title>  (894) 
rxn512b____EMOL17281285____EMOL44846536____EMOL2873214

>  <variant>  (894) 
78306-1

>  <source_file>  (894) 
运行/运行/ATP-VSW/ATP-VSW-DOCK_HTVS_1-002_lib.maegz

>  <canonical_smiles>  (894) 
CN(C(=O)c1cc(NCc2cccc(C[NH+](C)C)c2)c(Cl)s1)c1ccc(C#N)cc1

>  <scaffold>  (894) 
O=C(Nc1ccccc1)c1cc(NCc2ccccc2)cs1

>  <molecular_formula>  (894) 
C23H24ClN4OS+

$$$$
ATP-HTVS-8EE5F01B86B2
     RDKit          3D

 46 49  0  0  0  0  0  0  0  0999 V2000
  194.9164  187.1083  161.2553 O   0  0  0  0  0  0  0  0  0  0  0  0
  195.3674  186.4587  160.3165 C   0  0  0  0  0  0  0  0  0  0  0  0
  195.2441  185.1255  160.2837 N   0  0  0  0  0  0  0  0  0  0  0  0
  195.7900  184.2527  159.3098 C   0  0  0  0  0  0  0  0  0  0  0  0
  197.0881  184.4532  158.7588 C   0  0  0  0  0  0  0  0  0  0  0  0
  197.5695  183.5197  157.7966 C   0  0  0  0  0  0  0  0  0  0  0  0
  196.7850  182.4226  157.4064 C   0  0  0  0  0  0  0  0  0  0  0  0
  195.5113  182.2298  157.9686 C   0  0  0  0  0  0  0  0  0  0  0  0
  195.0232  183.1336  158.9245 C   0  0  0  0  0  0  0  0  0  0  0  0
  197.9709  185.6077  159.2636 C   0  0  2  0  0  0  0  0  0  0  0  0
  197.4785  186.9535  158.9052 N   0  0  0  0  0  0  0  0  0  0  0  0
  198.2519  187.9947  159.6028 C   0  0  1  0  0  0  0  0  0  0  0  0
  198.2104  189.3331  158.8979 C   0  0  0  0  0  0  0  0  0  0  0  0
  198.8670  189.5034  157.6578 C   0  0  0  0  0  0  0  0  0  0  0  0
  198.8663  190.7628  157.0261 C   0  0  0  0  0  0  0  0  0  0  0  0
  199.5549  190.9441  155.7564 C   0  0  0  0  0  0  0  0  0  0  0  0
  200.0998  191.0888  154.7473 N   0  0  0  0  0  0  0  0  0  0  0  0
  198.1997  191.8476  157.6302 C   0  0  0  0  0  0  0  0  0  0  0  0
  197.5448  191.6741  158.8658 C   0  0  0  0  0  0  0  0  0  0  0  0
  197.5435  190.4166  159.4955 C   0  0  0  0  0  0  0  0  0  0  0  0
  196.0222  187.1663  159.1139 C   0  0  1  0  0  0  0  0  0  0  0  0
  199.4179  185.4203  158.7954 C   0  0  0  0  0  0  0  0  0  0  0  0
  199.8055  185.9201  157.5317 C   0  0  0  0  0  0  0  0  0  0  0  0
  201.1203  185.7567  157.0676 C   0  0  0  0  0  0  0  0  0  0  0  0
  202.0612  185.0597  157.8493 C   0  0  0  0  0  0  0  0  0  0  0  0
  201.6771  184.5349  159.0960 C   0  0  0  0  0  0  0  0  0  0  0  0
  200.3591  184.7079  159.5710 C   0  0  0  0  0  0  0  0  0  0  0  0
  194.6509  184.7091  160.9807 H   0  0  0  0  0  0  0  0  0  0  0  0
  198.5474  183.6019  157.3360 H   0  0  0  0  0  0  0  0  0  0  0  0
  197.1587  181.7227  156.6742 H   0  0  0  0  0  0  0  0  0  0  0  0
  194.9160  181.3843  157.6602 H   0  0  0  0  0  0  0  0  0  0  0  0
  194.0386  182.9729  159.3400 H   0  0  0  0  0  0  0  0  0  0  0  0
  197.9691  185.5373  160.3554 H   0  0  0  0  0  0  0  0  0  0  0  0
  197.9036  188.0947  160.6354 H   0  0  0  0  0  0  0  0  0  0  0  0
  199.3164  187.7673  159.6697 H   0  0  0  0  0  0  0  0  0  0  0  0
  199.3924  188.6758  157.2014 H   0  0  0  0  0  0  0  0  0  0  0  0
  198.1878  192.8163  157.1538 H   0  0  0  0  0  0  0  0  0  0  0  0
  197.0407  192.5058  159.3295 H   0  0  0  0  0  0  0  0  0  0  0  0
  197.0551  190.2803  160.4497 H   0  0  0  0  0  0  0  0  0  0  0  0
  195.5042  186.8205  158.2144 H   0  0  0  0  0  0  0  0  0  0  0  0
  195.7871  188.2301  159.1557 H   0  0  0  0  0  0  0  0  0  0  0  0
  199.0868  186.4352  156.9108 H   0  0  0  0  0  0  0  0  0  0  0  0
  201.3917  186.1517  156.1010 H   0  0  0  0  0  0  0  0  0  0  0  0
  203.0629  184.9176  157.4771 H   0  0  0  0  0  0  0  0  0  0  0  0
  202.3893  183.9814  159.6866 H   0  0  0  0  0  0  0  0  0  0  0  0
  200.0773  184.2862  160.5286 H   0  0  0  0  0  0  0  0  0  0  0  0
  1  2  2  0
  2  3  1  0
  2 21  1  0
  3  4  1  0
  3 28  1  0
  4  5  1  0
  4  9  2  0
  5  6  2  0
  5 10  1  0
  6  7  1  0
  6 29  1  0
  7  8  2  0
  7 30  1  0
  8  9  1  0
  8 31  1  0
  9 32  1  0
 10 11  1  0
 10 22  1  0
 10 33  1  1
 11 12  1  0
 11 21  1  0
 12 13  1  0
 12 34  1  1
 12 35  1  0
 13 14  1  0
 13 20  2  0
 14 15  2  0
 14 36  1  0
 15 16  1  0
 15 18  1  0
 16 17  3  0
 18 19  2  0
 18 37  1  0
 19 20  1  0
 19 38  1  0
 20 39  1  0
 21 40  1  6
 21 41  1  0
 22 23  2  0
 22 27  1  0
 23 24  1  0
 23 42  1  0
 24 25  2  0
 24 43  1  0
 25 26  1  0
 25 44  1  0
 26 27  2  0
 26 45  1  0
 27 46  1  0
M  END
>  <s_epik_cmdline>  (895) 
J2VwaWtfcHl0aG9uJywgJy1waCcsICc3LjAwMDAwMCcsICctcGh0JywgJzIuMDAwMDAwJywgJy1tcycsICcxNicsICctdG4nLCAnOCcsICctbWEnLCAnMjAwJywgJy1pbWFlJywgJzxpbmZpbGUubWFlPicsICctb21hZScsICc8b3V0ZmlsZS5tYWU+Jw==

>  <s_epik_input>  (895) 
W2NIXTFbY0hdW2NIXVtjSF1bY0hdYzFbQ0BIXShjKGMyMylbY0hdW2NIXVtjSF1bY0hdMylOKFtDSDJdQyg9TylbTkhdMilbQ0gyXWM0W2NIXWMoQyNOKVtjSF1bY0hdW2NIXTQ=

>  <s_i_glide_gridfile>  (895) 
ATP-Grid

>  <s_lp_Force_Field>  (895) 
OPLS_2005

>  <s_lp_Variant>  (895) 
m_2230bdc____17849930____666704-1

>  <s_lp_label>  (895) 
2068_sdstereoexpander_1_neutralizer_1_epik_1_stereoizer_1

>  <s_m_source_file>  (895) 
ATP-VSW-LIGPREP-001-in.maegz

>  <s_sd_BIOSOLVEIT.INFINISEE\_QUERY\_NAME>  (895) 
Ref-Lig

>  <s_sd_BIOSOLVEIT.INFINISEE\_QUERY\_SMILES>  (895) 
S(c1nc2c(cc1C[NH2+]Cc3ccc(cc3)C[NH+](C)C)cccc2)Cc4ccccc4

>  <s_sd_BIOSOLVEIT.INFINISEE\_REACTION\_NAME>  (895) 
m_2230bdc

>  <s_sd_BIOSOLVEIT.INFINISEE\_REAGENT1\_SMILES>  (895) 
[R1*]N1C(c2c(NC(=O)C1)cccc2)c3ccccc3

>  <s_sd_BIOSOLVEIT.INFINISEE\_REAGENT2\_SMILES>  (895) 
[R1*]Cc1cc(C#N)ccc1

>  <s_sd_BIOSOLVEIT.INFINISEE\_SPACE>  (895) 
REALSpace_44bn_2023-08

>  <s_vsw_compound_code>  (895) 
66145

>  <s_vsw_variant>  (895) 
66145-1

>  <r_epik_Charging_Adjusted_Penalty>  (895) 
0.0087634984339075902

>  <r_epik_Ionization_Penalty>  (895) 
0.0088000000000000005

>  <r_epik_Ionization_Penalty_Charging>  (895) 
0

>  <r_epik_Ionization_Penalty_Neutral>  (895) 
0.0088000000000000005

>  <r_epik_State_Penalty>  (895) 
0.0088000000000000005

>  <r_i_docking_score>  (895) 
-1.6624754275114799

>  <r_i_glide_ecoul>  (895) 
-0.21493129432201399

>  <r_i_glide_eff_state_penalty>  (895) 
0.0088000000000000005

>  <r_i_glide_einternal>  (895) 
0.88896167278289795

>  <r_i_glide_emodel>  (895) 
-34.339480933086698

>  <r_i_glide_energy>  (895) 
-31.5075242966413

>  <r_i_glide_erotb>  (895) 
0.45867311489565199

>  <r_i_glide_esite>  (895) 
0

>  <r_i_glide_evdw>  (895) 
-31.2925930023193

>  <r_i_glide_gscore>  (895) 
-1.6712754275114801

>  <r_i_glide_hbond>  (895) 
0

>  <r_i_glide_ligand_efficiency>  (895) 
-0.061573163981906799

>  <r_i_glide_ligand_efficiency_ln>  (895) 
-0.38699687147519501

>  <r_i_glide_ligand_efficiency_sa>  (895) 
-0.18471949174278501

>  <r_i_glide_lipo>  (895) 
-1.06538878032073

>  <r_i_glide_metal>  (895) 
-0

>  <r_i_glide_rewards>  (895) 
0.53230958217786195

>  <r_lp_Energy>  (895) 
38.176011000000003

>  <r_qp_ACxDN^.5/SA>  (895) 
0.0093585000000000005

>  <r_qp_CIQPlogS>  (895) 
-4.907

>  <r_qp_EA(eV)>  (895) 
0.48799999999999999

>  <r_qp_FISA>  (895) 
124.836

>  <r_qp_FOSA>  (895) 
47.765000000000001

>  <r_qp_IP(eV)>  (895) 
9.0820000000000007

>  <r_qp_Jm>  (895) 
0.00035726845182900498

>  <r_qp_PISA>  (895) 
468.52999999999997

>  <r_qp_PSA>  (895) 
66.977999999999994

>  <r_qp_PercentHumanOralAbsorption>  (895) 
84.992999999999995

>  <r_qp_QPPCaco>  (895) 
161.80099999999999

>  <r_qp_QPPMDCK>  (895) 
76.424000000000007

>  <r_qp_QPlogBB>  (895) 
-0.42999999999999999

>  <r_qp_QPlogHERG>  (895) 
-7.2610000000000001

>  <r_qp_QPlogKhsa>  (895) 
0.45100000000000001

>  <r_qp_QPlogKp>  (895) 
-3.944

>  <r_qp_QPlogPC16>  (895) 
13.324999999999999

>  <r_qp_QPlogPo/w>  (895) 
3.1619999999999999

>  <r_qp_QPlogPoct>  (895) 
20.198

>  <r_qp_QPlogPw>  (895) 
12.010999999999999

>  <r_qp_QPlogS>  (895) 
-5.0510000000000002

>  <r_qp_QPpolrz>  (895) 
42.496000000000002

>  <r_qp_SASA>  (895) 
641.13

>  <r_qp_SAamideO>  (895) 
0

>  <r_qp_SAfluorine>  (895) 
0

>  <r_qp_WPSA>  (895) 
0

>  <r_qp_accptHB>  (895) 
6

>  <r_qp_dip^2/V>  (895) 
0.077110700000000004

>  <r_qp_dipole>  (895) 
9.4250000000000007

>  <r_qp_donorHB>  (895) 
1

>  <r_qp_glob>  (895) 
0.82892460000000001

>  <r_qp_mol_MW>  (895) 
353.423

>  <r_qp_volume>  (895) 
1151.979

>  <r_sd_BIOSOLVEIT.INFINISEE\_FTREES\_SIMILARITY>  (895) 
0.90100000000000002

>  <r_sd_BIOSOLVEIT.LOGP>  (895) 
2.6848800000000002

>  <r_sd_BIOSOLVEIT.MOLECULAR\_WEIGHT>  (895) 
354.43099999999998

>  <r_sd_BIOSOLVEIT.TPSA>  (895) 
57.329999999999998

>  <i_epik_Tot_Q>  (895) 
0

>  <i_epik_Tot_abs_Q>  (895) 
0

>  <i_f3d_flags>  (895) 
0

>  <i_i_glide_confnum>  (895) 
2

>  <i_i_glide_lignum>  (895) 
635

>  <i_i_glide_posenum>  (895) 
7

>  <i_i_glide_rotatable_bonds>  (895) 
3

>  <i_lp_mmshare_version>  (895) 
65135

>  <i_m_ct_format>  (895) 
2

>  <i_m_source_file_index>  (895) 
2068

>  <i_qp_#NandO>  (895) 
4

>  <i_qp_#acid>  (895) 
0

>  <i_qp_#amide>  (895) 
0

>  <i_qp_#amidine>  (895) 
0

>  <i_qp_#amine>  (895) 
1

>  <i_qp_#in34>  (895) 
0

>  <i_qp_#in56>  (895) 
18

>  <i_qp_#metab>  (895) 
7

>  <i_qp_#nonHatm>  (895) 
27

>  <i_qp_#noncon>  (895) 
2

>  <i_qp_#ringatoms>  (895) 
23

>  <i_qp_#rotor>  (895) 
3

>  <i_qp_#rtvFG>  (895) 
0

>  <i_qp_#stars>  (895) 
1

>  <i_qp_CNS>  (895) 
1

>  <i_qp_HumanOralAbsorption>  (895) 
2

>  <i_qp_RuleOfFive>  (895) 
0

>  <i_qp_RuleOfThree>  (895) 
1

>  <i_sd_BIOSOLVEIT.INFINISEE\_REAGENT1\_NAME>  (895) 
17849930

>  <i_sd_BIOSOLVEIT.INFINISEE\_REAGENT2\_NAME>  (895) 
666704

>  <i_sd_BIOSOLVEIT.INFINISEE\_RESULT\_RANK>  (895) 
95180

>  <i_sd_version>  (895) 
0

>  <b_lp_Chiralities_Consistent>  (895) 
1

>  <b_sd_chiral_flag>  (895) 
0

>  <canonical_id>  (895) 
ATP-HTVS-8EE5F01B86B2

>  <compound_code>  (895) 
66145

>  <title>  (895) 
m_2230bdc____17849930____666704

>  <variant>  (895) 
66145-1

>  <source_file>  (895) 
运行/运行/ATP-VSW/ATP-VSW-DOCK_HTVS_1-001_lib/ATP-VSW-DOCK_HTVS_1-001_lib

>  <canonical_smiles>  (895) 
N#Cc1cccc(CN2CC(=O)Nc3ccccc3[C@H]2c2ccccc2)c1

>  <scaffold>  (895) 
O=C1CN(Cc2ccccc2)C(c2ccccc2)c2ccccc2N1

>  <molecular_formula>  (895) 
C23H19N3O

$$$$
ATP-HTVS-8F383301D999
     RDKit          3D

 56 59  0  0  0  0  0  0  0  0999 V2000
  197.5497  184.6430  146.3970 Cl  0  0  0  0  0  0  0  0  0  0  0  0
  198.0260  184.7503  148.0513 C   0  0  0  0  0  0  0  0  0  0  0  0
  197.2960  184.0969  149.0628 C   0  0  0  0  0  0  0  0  0  0  0  0
  197.7068  184.1975  150.4150 C   0  0  0  0  0  0  0  0  0  0  0  0
  198.8564  184.9590  150.7326 C   0  0  0  0  0  0  0  0  0  0  0  0
  199.5762  185.6163  149.7202 C   0  0  0  0  0  0  0  0  0  0  0  0
  199.1627  185.5091  148.3813 C   0  0  0  0  0  0  0  0  0  0  0  0
  196.9440  183.5036  151.5404 C   0  0  1  0  0  0  0  0  0  0  0  0
  195.5524  183.5025  151.3341 O   0  0  0  0  0  0  0  0  0  0  0  0
  197.4337  182.0557  151.7286 C   0  0  0  0  0  0  0  0  0  0  0  0
  197.6007  181.3313  150.7456 O   0  0  0  0  0  0  0  0  0  0  0  0
  197.6139  181.6646  153.0045 N   0  0  0  0  0  0  0  0  0  0  0  0
  198.2180  180.4841  153.5131 C   0  0  0  0  0  0  0  0  0  0  0  0
  198.9462  179.6464  152.7384 N   0  0  0  0  0  0  0  0  0  0  0  0
  199.5618  178.5715  153.2729 C   0  0  0  0  0  0  0  0  0  0  0  0
  199.4699  178.2706  154.6555 C   0  0  0  0  0  0  0  0  0  0  0  0
  198.7185  179.1245  155.4780 C   0  0  0  0  0  0  0  0  0  0  0  0
  198.0912  180.2479  154.9099 C   0  0  0  0  0  0  0  0  0  0  0  0
  197.3282  181.1056  155.8065 C   0  0  0  0  0  0  0  0  0  0  0  0
  196.7079  181.7896  156.5996 C   0  0  0  0  0  0  0  0  0  0  0  0
  195.9641  182.6204  157.5508 C   0  0  1  0  0  0  0  0  0  0  0  0
  194.7522  181.8419  157.8031 N   0  0  2  0  0  0  0  0  0  0  0  0
  196.7408  182.9506  158.8451 C   0  0  1  0  0  0  0  0  0  0  0  0
  196.3852  184.3100  159.4224 C   0  0  0  0  0  0  0  0  0  0  0  0
  195.1021  184.5807  159.9498 C   0  0  0  0  0  0  0  0  0  0  0  0
  194.8144  185.8435  160.5032 C   0  0  0  0  0  0  0  0  0  0  0  0
  193.5889  186.0968  161.0181 F   0  0  0  0  0  0  0  0  0  0  0  0
  195.7997  186.8448  160.5317 C   0  0  0  0  0  0  0  0  0  0  0  0
  197.0744  186.5844  159.9991 C   0  0  0  0  0  0  0  0  0  0  0  0
  197.3672  185.3249  159.4457 C   0  0  0  0  0  0  0  0  0  0  0  0
  200.0767  177.1205  155.1941 C   0  0  0  0  0  0  0  0  0  0  0  0
  200.8065  176.2596  154.3559 C   0  0  0  0  0  0  0  0  0  0  0  0
  200.9241  176.5514  152.9843 C   0  0  0  0  0  0  0  0  0  0  0  0
  200.3070  177.7017  152.4521 C   0  0  0  0  0  0  0  0  0  0  0  0
  194.2613  181.8168  156.9058 H   0  0  0  0  0  0  0  0  0  0  0  0
  194.1436  182.2835  158.4741 H   0  0  0  0  0  0  0  0  0  0  0  0
  196.4224  183.5138  148.8090 H   0  0  0  0  0  0  0  0  0  0  0  0
  199.1844  185.0495  151.7588 H   0  0  0  0  0  0  0  0  0  0  0  0
  200.4441  186.2104  149.9712 H   0  0  0  0  0  0  0  0  0  0  0  0
  199.7132  186.0153  147.6040 H   0  0  0  0  0  0  0  0  0  0  0  0
  197.1218  184.0900  152.4452 H   0  0  0  0  0  0  0  0  0  0  0  0
  195.1142  183.4414  152.1909 H   0  0  0  0  0  0  0  0  0  0  0  0
  197.3413  182.3204  153.7159 H   0  0  0  0  0  0  0  0  0  0  0  0
  198.6005  178.9156  156.5346 H   0  0  0  0  0  0  0  0  0  0  0  0
  195.7022  183.5234  157.0005 H   0  0  0  0  0  0  0  0  0  0  0  0
  196.5745  182.1860  159.6001 H   0  0  0  0  0  0  0  0  0  0  0  0
  197.8172  182.9358  158.6620 H   0  0  0  0  0  0  0  0  0  0  0  0
  194.3281  183.8291  159.9521 H   0  0  0  0  0  0  0  0  0  0  0  0
  195.5860  187.8041  160.9762 H   0  0  0  0  0  0  0  0  0  0  0  0
  197.8403  187.3454  160.0451 H   0  0  0  0  0  0  0  0  0  0  0  0
  198.3609  185.1353  159.0616 H   0  0  0  0  0  0  0  0  0  0  0  0
  199.9698  176.8912  156.2455 H   0  0  0  0  0  0  0  0  0  0  0  0
  201.2791  175.3774  154.7631 H   0  0  0  0  0  0  0  0  0  0  0  0
  201.4867  175.8927  152.3384 H   0  0  0  0  0  0  0  0  0  0  0  0
  200.3884  177.9223  151.3987 H   0  0  0  0  0  0  0  0  0  0  0  0
  195.0180  180.8837  158.0629 H   0  0  0  0  0  0  0  0  0  0  0  0
  1  2  1  0
  2  3  2  0
  2  7  1  0
  3  4  1  0
  3 37  1  0
  4  5  2  0
  4  8  1  0
  5  6  1  0
  5 38  1  0
  6  7  2  0
  6 39  1  0
  7 40  1  0
  8  9  1  0
  8 10  1  0
  8 41  1  1
  9 42  1  0
 10 11  2  0
 10 12  1  0
 12 13  1  0
 12 43  1  0
 13 14  2  0
 13 18  1  0
 14 15  1  0
 15 16  1  0
 15 34  2  0
 16 17  1  0
 16 31  2  0
 17 18  2  0
 17 44  1  0
 18 19  1  0
 19 20  3  0
 20 21  1  0
 21 22  1  0
 21 23  1  0
 21 45  1  6
 22 35  1  6
 22 36  1  0
 22 56  1  0
 23 24  1  0
 23 46  1  1
 23 47  1  0
 24 25  1  0
 24 30  2  0
 25 26  2  0
 25 48  1  0
 26 27  1  0
 26 28  1  0
 28 29  2  0
 28 49  1  0
 29 30  1  0
 29 50  1  0
 30 51  1  0
 31 32  1  0
 31 52  1  0
 32 33  2  0
 32 53  1  0
 33 34  1  0
 33 54  1  0
 34 55  1  0
M  CHG  1  22   1
M  END
>  <s_epik_cmdline>  (896) 
J2VwaWtfcHl0aG9uJywgJy1waCcsICc3LjAwMDAwMCcsICctcGh0JywgJzIuMDAwMDAwJywgJy1tcycsICcxNicsICctdG4nLCAnOCcsICctbWEnLCAnMjAwJywgJy1pbWFlJywgJzxpbmZpbGUubWFlPicsICctb21hZScsICc8b3V0ZmlsZS5tYWU+Jw==

>  <s_epik_input>  (896) 
Q2xjMVtjSF1jKFtjSF1bY0hdW2NIXTEpW0NAQEhdKFtPSF0pQyg9TylbTkhdYyhuMiljKFtjSF1jKGMyMylbY0hdW2NIXVtjSF1bY0hdMylDI0NbQ0BASF0oW05IMl0pW0NIMl1jNFtjSF1jKEYpW2NIXVtjSF1bY0hdNA==

>  <s_i_glide_gridfile>  (896) 
ATP-Grid

>  <s_lp_Force_Field>  (896) 
OPLS_2005

>  <s_lp_Variant>  (896) 
rxn503b____EMOL299973501____EMOL44466703____EMOL313110234-7

>  <s_lp_label>  (896) 
2609_sdstereoexpander_3_neutralizer_1_epik_2_stereoizer_1

>  <s_m_source_file>  (896) 
ATP-VSW-LIGPREP-002-in.maegz

>  <s_sd_BIOSOLVEIT.INFINISEE\_QUERY\_NAME>  (896) 
Ref-Lig

>  <s_sd_BIOSOLVEIT.INFINISEE\_QUERY\_SMILES>  (896) 
S(c1nc2c(cc1C[NH2+]Cc3ccc(cc3)C[NH+](C)C)cccc2)Cc4ccccc4

>  <s_sd_BIOSOLVEIT.INFINISEE\_REACTION\_NAME>  (896) 
rxn503b

>  <s_sd_BIOSOLVEIT.INFINISEE\_REAGENT1\_NAME>  (896) 
EMOL299973501

>  <s_sd_BIOSOLVEIT.INFINISEE\_REAGENT1\_SMILES>  (896) 
Clc1cc(ccc1)C(O)C(=O)O

>  <s_sd_BIOSOLVEIT.INFINISEE\_REAGENT2\_NAME>  (896) 
EMOL44466703

>  <s_sd_BIOSOLVEIT.INFINISEE\_REAGENT2\_SMILES>  (896) 
Brc1c(nc2c(c1)cccc2)N

>  <s_sd_BIOSOLVEIT.INFINISEE\_REAGENT3\_NAME>  (896) 
EMOL313110234

>  <s_sd_BIOSOLVEIT.INFINISEE\_REAGENT3\_SMILES>  (896) 
Fc1cc(ccc1)CC(N)C#C

>  <s_sd_BIOSOLVEIT.INFINISEE\_SPACE>  (896) 
eXplore_7tr_2022-12

>  <s_vsw_compound_code>  (896) 
83458

>  <s_vsw_variant>  (896) 
83458-7

>  <r_epik_Charging_Adjusted_Penalty>  (896) 
1.22591159016581

>  <r_epik_Ionization_Penalty>  (896) 
0.61399999999999999

>  <r_epik_Ionization_Penalty_Charging>  (896) 
0.61299999999999999

>  <r_epik_Ionization_Penalty_Neutral>  (896) 
0.001

>  <r_epik_State_Penalty>  (896) 
0.61299999999999999

>  <r_i_docking_score>  (896) 
-6.30624062048678

>  <r_i_glide_ecoul>  (896) 
-16.6838474273682

>  <r_i_glide_eff_state_penalty>  (896) 
0.61299999999999999

>  <r_i_glide_einternal>  (896) 
9.4511337280273402

>  <r_i_glide_emodel>  (896) 
-84.5025834650897

>  <r_i_glide_energy>  (896) 
-54.794511795043903

>  <r_i_glide_erotb>  (896) 
0.37684678745037198

>  <r_i_glide_esite>  (896) 
-0.107654852964943

>  <r_i_glide_evdw>  (896) 
-38.110664367675803

>  <r_i_glide_gscore>  (896) 
-6.9192406204867796

>  <r_i_glide_hbond>  (896) 
-0.37624178842851602

>  <r_i_glide_ligand_efficiency>  (896) 
-0.18547766530843501

>  <r_i_glide_ligand_efficiency_ln>  (896) 
-1.39322543712347

>  <r_i_glide_ligand_efficiency_sa>  (896) 
-0.60087563270029898

>  <r_i_glide_lipo>  (896) 
-2.22728998257928

>  <r_i_glide_metal>  (896) 
-0

>  <r_i_glide_rewards>  (896) 
-0.17679045147540401

>  <r_lp_Energy>  (896) 
24.221543

>  <r_qp_ACxDN^.5/SA>  (896) 
0.016886499999999999

>  <r_qp_CIQPlogS>  (896) 
-6.3499999999999996

>  <r_qp_EA(eV)>  (896) 
1.0369999999999999

>  <r_qp_FISA>  (896) 
120.645

>  <r_qp_FOSA>  (896) 
53.149000000000001

>  <r_qp_IP(eV)>  (896) 
8.7110000000000003

>  <r_qp_Jm>  (896) 
0.0034719268481180699

>  <r_qp_PISA>  (896) 
448.209

>  <r_qp_PSA>  (896) 
92.134

>  <r_qp_PercentHumanOralAbsorption>  (896) 
93.385999999999996

>  <r_qp_QPPCaco>  (896) 
177.304

>  <r_qp_QPPMDCK>  (896) 
347.86799999999999

>  <r_qp_QPlogBB>  (896) 
-0.502

>  <r_qp_QPlogHERG>  (896) 
-7.3150000000000004

>  <r_qp_QPlogKhsa>  (896) 
0.60099999999999998

>  <r_qp_QPlogKp>  (896) 
-3.363

>  <r_qp_QPlogPC16>  (896) 
16.254000000000001

>  <r_qp_QPlogPo/w>  (896) 
4.4729999999999999

>  <r_qp_QPlogPoct>  (896) 
26.875

>  <r_qp_QPlogPw>  (896) 
15.375

>  <r_qp_QPlogS>  (896) 
-4.7729999999999997

>  <r_qp_QPpolrz>  (896) 
47.905000000000001

>  <r_qp_SASA>  (896) 
734.31299999999999

>  <r_qp_SAamideO>  (896) 
0

>  <r_qp_SAfluorine>  (896) 
40.725000000000001

>  <r_qp_WPSA>  (896) 
112.309

>  <r_qp_accptHB>  (896) 
6.2000000000000002

>  <r_qp_dip^2/V>  (896) 
0.074394100000000005

>  <r_qp_dipole>  (896) 
10.163

>  <r_qp_donorHB>  (896) 
4

>  <r_qp_glob>  (896) 
0.81958560000000003

>  <r_qp_mol_MW>  (896) 
473.93299999999999

>  <r_qp_volume>  (896) 
1388.2439999999999

>  <r_sd_BIOSOLVEIT.INFINISEE\_FTREES\_SIMILARITY>  (896) 
0.91100000000000003

>  <r_sd_BIOSOLVEIT.LOGP>  (896) 
3.9041000000000001

>  <r_sd_BIOSOLVEIT.MOLECULAR\_WEIGHT>  (896) 
474.94099999999997

>  <r_sd_BIOSOLVEIT.TPSA>  (896) 
89.859999999999999

>  <i_epik_Tot_Q>  (896) 
1

>  <i_epik_Tot_abs_Q>  (896) 
1

>  <i_f3d_flags>  (896) 
0

>  <i_i_glide_confnum>  (896) 
4

>  <i_i_glide_lignum>  (896) 
1190

>  <i_i_glide_posenum>  (896) 
16

>  <i_i_glide_rotatable_bonds>  (896) 
9

>  <i_lp_mmshare_version>  (896) 
65135

>  <i_m_ct_format>  (896) 
2

>  <i_m_source_file_index>  (896) 
2609

>  <i_qp_#NandO>  (896) 
5

>  <i_qp_#acid>  (896) 
0

>  <i_qp_#amide>  (896) 
0

>  <i_qp_#amidine>  (896) 
0

>  <i_qp_#amine>  (896) 
1

>  <i_qp_#in34>  (896) 
0

>  <i_qp_#in56>  (896) 
22

>  <i_qp_#metab>  (896) 
6

>  <i_qp_#nonHatm>  (896) 
34

>  <i_qp_#noncon>  (896) 
0

>  <i_qp_#ringatoms>  (896) 
22

>  <i_qp_#rotor>  (896) 
9

>  <i_qp_#rtvFG>  (896) 
0

>  <i_qp_#stars>  (896) 
0

>  <i_qp_CNS>  (896) 
0

>  <i_qp_HumanOralAbsorption>  (896) 
3

>  <i_qp_RuleOfFive>  (896) 
0

>  <i_qp_RuleOfThree>  (896) 
0

>  <i_sd_BIOSOLVEIT.INFINISEE\_RESULT\_RANK>  (896) 
42289

>  <i_sd_version>  (896) 
0

>  <b_lp_Chiralities_Consistent>  (896) 
1

>  <b_sd_chiral_flag>  (896) 
0

>  <canonical_id>  (896) 
ATP-HTVS-8F383301D999

>  <compound_code>  (896) 
83458

>  <title>  (896) 
rxn503b____EMOL299973501____EMOL44466703____EMOL313110234

>  <variant>  (896) 
83458-7

>  <source_file>  (896) 
运行/运行/ATP-VSW/ATP-VSW-DOCK_HTVS_1-002_lib.maegz

>  <canonical_smiles>  (896) 
[NH3+][C@H](C#Cc1cc2ccccc2nc1NC(=O)[C@H](O)c1cccc(Cl)c1)Cc1cccc(F)c1

>  <scaffold>  (896) 
O=C(Cc1ccccc1)Nc1nc2ccccc2cc1C#CCCc1ccccc1

>  <molecular_formula>  (896) 
C27H22ClFN3O2+

$$$$
ATP-HTVS-8F7863C4F42C
     RDKit          3D

 62 65  0  0  0  0  0  0  0  0999 V2000
  198.4946  180.8660  148.5718 N   0  0  0  0  0  0  0  0  0  0  0  0
  198.1392  182.1236  148.9774 N   0  0  0  0  0  0  0  0  0  0  0  0
  197.6006  182.1073  150.2803 C   0  0  0  0  0  0  0  0  0  0  0  0
  197.6120  180.7974  150.6989 C   0  0  0  0  0  0  0  0  0  0  0  0
  198.1681  180.0928  149.5885 C   0  0  0  0  0  0  0  0  0  0  0  0
  198.3870  178.6399  149.4722 C   0  0  0  0  0  0  0  0  0  0  0  0
  198.1541  177.9777  148.2459 C   0  0  0  0  0  0  0  0  0  0  0  0
  198.3515  176.5843  148.1362 C   0  0  0  0  0  0  0  0  0  0  0  0
  198.7577  175.8392  149.2595 C   0  0  0  0  0  0  0  0  0  0  0  0
  198.9916  176.4867  150.4826 C   0  0  0  0  0  0  0  0  0  0  0  0
  198.8273  177.8846  150.5816 C   0  0  0  0  0  0  0  0  0  0  0  0
  197.1317  180.2617  152.0188 C   0  0  1  0  0  0  0  0  0  0  0  0
  198.0765  180.6545  153.0803 N   0  0  1  0  0  0  0  0  0  0  0  0
  197.7284  180.1781  154.4251 C   0  0  1  0  0  0  0  0  0  0  0  0
  198.4156  181.0509  155.4507 C   0  0  0  0  0  0  0  0  0  0  0  0
  197.6517  182.1238  156.0202 C   0  0  0  0  0  0  0  0  0  0  0  0
  198.1842  182.8534  157.0832 C   0  0  0  0  0  0  0  0  0  0  0  0
  199.5154  182.6233  157.5167 C   0  0  0  0  0  0  0  0  0  0  0  0
  200.2957  181.6160  156.8969 C   0  0  0  0  0  0  0  0  0  0  0  0
  199.7236  180.8101  155.8942 C   0  0  0  0  0  0  0  0  0  0  0  0
  197.3105  183.8899  157.8117 C   0  0  1  0  0  0  0  0  0  0  0  0
  196.2349  183.3324  158.6942 N   0  0  1  0  0  0  0  0  0  0  0  0
  195.3322  184.4023  159.2162 C   0  0  1  0  0  0  0  0  0  0  0  0
  196.0645  185.5954  159.8524 C   0  0  2  0  0  0  0  0  0  0  0  0
  195.4892  182.2368  158.0299 C   0  0  1  0  0  0  0  0  0  0  0  0
  194.2896  181.6739  158.8212 C   0  0  2  0  0  0  0  0  0  0  0  0
  197.1927  183.3472  150.8410 C   0  0  0  0  0  0  0  0  0  0  0  0
  197.3362  184.5009  150.1026 C   0  0  0  0  0  0  0  0  0  0  0  0
  197.8680  184.4591  148.7892 C   0  0  0  0  0  0  0  0  0  0  0  0
  198.2679  183.2634  148.2397 C   0  0  0  0  0  0  0  0  0  0  0  0
  199.0086  180.3284  152.8660 H   0  0  0  0  0  0  0  0  0  0  0  0
  197.8322  178.5295  147.3728 H   0  0  0  0  0  0  0  0  0  0  0  0
  198.1770  176.0887  147.1946 H   0  0  0  0  0  0  0  0  0  0  0  0
  198.9067  174.7730  149.1756 H   0  0  0  0  0  0  0  0  0  0  0  0
  199.3111  175.9228  151.3461 H   0  0  0  0  0  0  0  0  0  0  0  0
  199.0571  178.3581  151.5194 H   0  0  0  0  0  0  0  0  0  0  0  0
  196.1378  180.6577  152.2406 H   0  0  0  0  0  0  0  0  0  0  0  0
  197.0156  179.1771  152.0141 H   0  0  0  0  0  0  0  0  0  0  0  0
  196.6438  180.2286  154.5736 H   0  0  0  0  0  0  0  0  0  0  0  0
  198.0029  179.1298  154.5549 H   0  0  0  0  0  0  0  0  0  0  0  0
  196.6800  182.3221  155.6148 H   0  0  0  0  0  0  0  0  0  0  0  0
  199.9417  183.2056  158.3220 H   0  0  0  0  0  0  0  0  0  0  0  0
  201.2945  181.4372  157.2454 H   0  0  0  0  0  0  0  0  0  0  0  0
  200.3063  180.0001  155.4686 H   0  0  0  0  0  0  0  0  0  0  0  0
  197.9854  184.4743  158.4299 H   0  0  0  0  0  0  0  0  0  0  0  0
  196.9001  184.5596  157.0565 H   0  0  0  0  0  0  0  0  0  0  0  0
  194.6800  184.7651  158.4225 H   0  0  0  0  0  0  0  0  0  0  0  0
  194.6903  183.9840  159.9877 H   0  0  0  0  0  0  0  0  0  0  0  0
  195.3511  186.2991  160.2942 H   0  0  0  0  0  0  0  0  0  0  0  0
  196.6422  186.1637  159.1252 H   0  0  0  0  0  0  0  0  0  0  0  0
  196.7332  185.2523  160.6420 H   0  0  0  0  0  0  0  0  0  0  0  0
  195.1731  182.5908  157.0651 H   0  0  0  0  0  0  0  0  0  0  0  0
  196.1472  181.3967  157.8727 H   0  0  0  0  0  0  0  0  0  0  0  0
  193.8790  180.8094  158.2905 H   0  0  0  0  0  0  0  0  0  0  0  0
  193.4612  182.3823  158.9383 H   0  0  0  0  0  0  0  0  0  0  0  0
  194.6293  181.3068  159.7927 H   0  0  0  0  0  0  0  0  0  0  0  0
  196.7766  183.3838  151.8435 H   0  0  0  0  0  0  0  0  0  0  0  0
  197.0411  185.4522  150.5328 H   0  0  0  0  0  0  0  0  0  0  0  0
  197.9655  185.3747  148.2145 H   0  0  0  0  0  0  0  0  0  0  0  0
  198.6771  183.1640  147.2384 H   0  0  0  0  0  0  0  0  0  0  0  0
  196.6920  182.9026  159.4857 H   0  0  0  0  0  0  0  0  0  0  0  0
  198.1019  181.6624  153.1212 H   0  0  0  0  0  0  0  0  0  0  0  0
  1  2  1  0
  1  5  2  0
  2  3  1  0
  2 30  1  0
  3  4  2  0
  3 27  1  0
  4  5  1  0
  4 12  1  0
  5  6  1  0
  6  7  2  0
  6 11  1  0
  7  8  1  0
  7 32  1  0
  8  9  2  0
  8 33  1  0
  9 10  1  0
  9 34  1  0
 10 11  2  0
 10 35  1  0
 11 36  1  0
 12 13  1  0
 12 37  1  1
 12 38  1  0
 13 14  1  0
 13 31  1  6
 13 62  1  0
 14 15  1  0
 14 39  1  1
 14 40  1  0
 15 16  2  0
 15 20  1  0
 16 17  1  0
 16 41  1  0
 17 18  2  0
 17 21  1  0
 18 19  1  0
 18 42  1  0
 19 20  2  0
 19 43  1  0
 20 44  1  0
 21 22  1  0
 21 45  1  1
 21 46  1  0
 22 23  1  0
 22 25  1  0
 22 61  1  1
 23 24  1  0
 23 47  1  6
 23 48  1  0
 24 49  1  1
 24 50  1  0
 24 51  1  0
 25 26  1  0
 25 52  1  6
 25 53  1  0
 26 54  1  6
 26 55  1  0
 26 56  1  0
 27 28  2  0
 27 57  1  0
 28 29  1  0
 28 58  1  0
 29 30  2  0
 29 59  1  0
 30 60  1  0
M  CHG  2  13   1  22   1
M  END
>  <s_epik_cmdline>  (897) 
J2VwaWtfcHl0aG9uJywgJy1waCcsICc3LjAwMDAwMCcsICctcGh0JywgJzIuMDAwMDAwJywgJy1tcycsICcxNicsICctdG4nLCAnOCcsICctbWEnLCAnMjAwJywgJy1pbWFlJywgJzxpbmZpbGUubWFlPicsICctb21hZScsICc8b3V0ZmlsZS5tYWU+Jw==

>  <s_epik_input>  (897) 
W2NIXTFbY0hdW2NIXVtjSF1bY0hdYzEtYyhuMiljKGMobjIzKVtjSF1bY0hdW2NIXVtjSF0zKVtDSDJdW05IXVtDSDJdYzRbY0hdYyhbY0hdW2NIXVtjSF00KVtDSDJdTihbQ0gyXVtDSDNdKVtDSDJdW0NIM10=

>  <s_i_glide_gridfile>  (897) 
ATP-Grid

>  <s_lp_Force_Field>  (897) 
OPLS_2005

>  <s_lp_Variant>  (897) 
m_270004bbb____8290542____16711616-1

>  <s_lp_label>  (897) 
1029_sdstereoexpander_1_neutralizer_1_epik_1_stereoizer_1

>  <s_m_source_file>  (897) 
ATP-VSW-LIGPREP-002-in.maegz

>  <s_sd_BIOSOLVEIT.INFINISEE\_QUERY\_NAME>  (897) 
Ref-Lig

>  <s_sd_BIOSOLVEIT.INFINISEE\_QUERY\_SMILES>  (897) 
S(c1nc2c(cc1C[NH2+]Cc3ccc(cc3)C[NH+](C)C)cccc2)Cc4ccccc4

>  <s_sd_BIOSOLVEIT.INFINISEE\_REACTION\_NAME>  (897) 
m_270004bbb

>  <s_sd_BIOSOLVEIT.INFINISEE\_REAGENT1\_SMILES>  (897) 
[R1*]NCc1cc(ccc1)CN(CC)CC

>  <s_sd_BIOSOLVEIT.INFINISEE\_REAGENT2\_SMILES>  (897) 
[R1*]CC=1C(=NN2C1C=CC=C2)c3ccccc3

>  <s_sd_BIOSOLVEIT.INFINISEE\_SPACE>  (897) 
REALSpace_44bn_2023-08

>  <s_vsw_compound_code>  (897) 
32898

>  <s_vsw_variant>  (897) 
32898-1

>  <r_epik_Charging_Adjusted_Penalty>  (897) 
0.25939976541561099

>  <r_epik_Ionization_Penalty>  (897) 
0.13039999999999999

>  <r_epik_Ionization_Penalty_Charging>  (897) 
0.13039999999999999

>  <r_epik_Ionization_Penalty_Neutral>  (897) 
0

>  <r_epik_State_Penalty>  (897) 
0.129

>  <r_i_docking_score>  (897) 
-4.9087904899497996

>  <r_i_glide_ecoul>  (897) 
-8.7977323532104492

>  <r_i_glide_eff_state_penalty>  (897) 
0.129

>  <r_i_glide_einternal>  (897) 
4.0664834976196298

>  <r_i_glide_emodel>  (897) 
-60.204476123714997

>  <r_i_glide_energy>  (897) 
-42.779295921325698

>  <r_i_glide_erotb>  (897) 
0.85534673059382005

>  <r_i_glide_esite>  (897) 
-0.00045528449409024298

>  <r_i_glide_evdw>  (897) 
-33.981563568115199

>  <r_i_glide_gscore>  (897) 
-5.0377904899498001

>  <r_i_glide_hbond>  (897) 
0

>  <r_i_glide_ligand_efficiency>  (897) 
-0.16362634966499301

>  <r_i_glide_ligand_efficiency_ln>  (897) 
-1.1153306848728399

>  <r_i_glide_ligand_efficiency_sa>  (897) 
-0.50842511193322104

>  <r_i_glide_lipo>  (897) 
-1.89628982093118

>  <r_i_glide_metal>  (897) 
-0

>  <r_i_glide_rewards>  (897) 
-0.97765408373101503

>  <r_lp_Energy>  (897) 
23.808638999999999

>  <r_qp_ACxDN^.5/SA>  (897) 
0.0064795

>  <r_qp_CIQPlogS>  (897) 
-4.6829999999999998

>  <r_qp_EA(eV)>  (897) 
0.52800000000000002

>  <r_qp_FISA>  (897) 
30.161000000000001

>  <r_qp_FOSA>  (897) 
279.22000000000003

>  <r_qp_IP(eV)>  (897) 
8.4130000000000003

>  <r_qp_Jm>  (897) 
0.0099592806688805595

>  <r_qp_PISA>  (897) 
385.11599999999999

>  <r_qp_PSA>  (897) 
33.295000000000002

>  <r_qp_PercentHumanOralAbsorption>  (897) 
100

>  <r_qp_QPPCaco>  (897) 
318.91899999999998

>  <r_qp_QPPMDCK>  (897) 
176.054

>  <r_qp_QPlogBB>  (897) 
0.59199999999999997

>  <r_qp_QPlogHERG>  (897) 
-7.4539999999999997

>  <r_qp_QPlogKhsa>  (897) 
0.998

>  <r_qp_QPlogKp>  (897) 
-4.0759999999999996

>  <r_qp_QPlogPC16>  (897) 
13.593

>  <r_qp_QPlogPo/w>  (897) 
4.8810000000000002

>  <r_qp_QPlogPoct>  (897) 
18.734000000000002

>  <r_qp_QPlogPw>  (897) 
8.3480000000000008

>  <r_qp_QPlogS>  (897) 
-3.5259999999999998

>  <r_qp_QPpolrz>  (897) 
45.151000000000003

>  <r_qp_SASA>  (897) 
694.49699999999996

>  <r_qp_SAamideO>  (897) 
0

>  <r_qp_SAfluorine>  (897) 
0

>  <r_qp_WPSA>  (897) 
0

>  <r_qp_accptHB>  (897) 
4.5

>  <r_qp_dip^2/V>  (897) 
0.011060499999999999

>  <r_qp_dipole>  (897) 
3.819

>  <r_qp_donorHB>  (897) 
1

>  <r_qp_glob>  (897) 
0.83727640000000003

>  <r_qp_mol_MW>  (897) 
398.55000000000001

>  <r_qp_volume>  (897) 
1318.443

>  <r_sd_BIOSOLVEIT.INFINISEE\_FTREES\_SIMILARITY>  (897) 
0.91500000000000004

>  <r_sd_BIOSOLVEIT.LOGP>  (897) 
2.6896

>  <r_sd_BIOSOLVEIT.MOLECULAR\_WEIGHT>  (897) 
400.56700000000001

>  <r_sd_BIOSOLVEIT.TPSA>  (897) 
38.869999999999997

>  <i_epik_Tot_Q>  (897) 
2

>  <i_epik_Tot_abs_Q>  (897) 
2

>  <i_f3d_flags>  (897) 
0

>  <i_i_glide_confnum>  (897) 
8

>  <i_i_glide_lignum>  (897) 
335

>  <i_i_glide_posenum>  (897) 
2

>  <i_i_glide_rotatable_bonds>  (897) 
9

>  <i_lp_mmshare_version>  (897) 
65135

>  <i_m_ct_format>  (897) 
2

>  <i_m_source_file_index>  (897) 
1029

>  <i_qp_#NandO>  (897) 
4

>  <i_qp_#acid>  (897) 
0

>  <i_qp_#amide>  (897) 
0

>  <i_qp_#amidine>  (897) 
0

>  <i_qp_#amine>  (897) 
2

>  <i_qp_#in34>  (897) 
0

>  <i_qp_#in56>  (897) 
21

>  <i_qp_#metab>  (897) 
5

>  <i_qp_#nonHatm>  (897) 
30

>  <i_qp_#noncon>  (897) 
0

>  <i_qp_#ringatoms>  (897) 
21

>  <i_qp_#rotor>  (897) 
8

>  <i_qp_#rtvFG>  (897) 
0

>  <i_qp_#stars>  (897) 
0

>  <i_qp_CNS>  (897) 
2

>  <i_qp_HumanOralAbsorption>  (897) 
3

>  <i_qp_RuleOfFive>  (897) 
0

>  <i_qp_RuleOfThree>  (897) 
0

>  <i_sd_BIOSOLVEIT.INFINISEE\_REAGENT1\_NAME>  (897) 
8290542

>  <i_sd_BIOSOLVEIT.INFINISEE\_REAGENT2\_NAME>  (897) 
16711616

>  <i_sd_BIOSOLVEIT.INFINISEE\_RESULT\_RANK>  (897) 
28028

>  <i_sd_version>  (897) 
0

>  <b_lp_Chiralities_Consistent>  (897) 
1

>  <b_sd_chiral_flag>  (897) 
0

>  <canonical_id>  (897) 
ATP-HTVS-8F7863C4F42C

>  <compound_code>  (897) 
32898

>  <title>  (897) 
m_270004bbb____8290542____16711616

>  <variant>  (897) 
32898-1

>  <source_file>  (897) 
运行/运行/ATP-VSW/ATP-VSW-DOCK_HTVS_1-002_lib.maegz

>  <canonical_smiles>  (897) 
CC[NH+](CC)Cc1cccc(C[NH2+]Cc2c(-c3ccccc3)nn3ccccc23)c1

>  <scaffold>  (897) 
c1ccc(C[NH2+]Cc2c(-c3ccccc3)nn3ccccc23)cc1

>  <molecular_formula>  (897) 
C26H32N4+2

$$$$
ATP-HTVS-8F8686BB907F
     RDKit          3D

 53 56  0  0  0  0  0  0  0  0999 V2000
  197.9147  187.4717  159.4328 F   0  0  0  0  0  0  0  0  0  0  0  0
  197.2362  186.3441  159.1253 C   0  0  0  0  0  0  0  0  0  0  0  0
  197.8553  185.3355  158.3508 C   0  0  0  0  0  0  0  0  0  0  0  0
  197.1460  184.1560  158.0253 C   0  0  0  0  0  0  0  0  0  0  0  0
  195.8163  184.0116  158.4967 C   0  0  0  0  0  0  0  0  0  0  0  0
  195.2044  185.0134  159.2583 C   0  0  0  0  0  0  0  0  0  0  0  0
  195.9107  186.1802  159.5752 C   0  0  0  0  0  0  0  0  0  0  0  0
  197.8420  183.0804  157.1880 C   0  0  1  0  0  0  0  0  0  0  0  0
  197.3059  181.6581  157.4240 C   0  0  1  0  0  0  0  0  0  0  0  0
  196.0292  181.4396  156.7322 N   0  0  2  0  0  0  0  0  0  0  0  0
  198.1802  180.5885  156.9258 C   0  0  0  0  0  0  0  0  0  0  0  0
  198.9017  179.6630  156.5968 C   0  0  0  0  0  0  0  0  0  0  0  0
  199.7629  178.5688  156.1612 C   0  0  0  0  0  0  0  0  0  0  0  0
  199.9945  178.2846  154.7928 C   0  0  0  0  0  0  0  0  0  0  0  0
  199.3429  179.0397  153.7841 N   0  0  0  0  0  0  0  0  0  0  0  0
  199.5744  180.3352  153.5138 C   0  0  0  0  0  0  0  0  0  0  0  0
  200.4772  180.9926  154.0340 O   0  0  0  0  0  0  0  0  0  0  0  0
  198.5885  180.9879  152.5929 C   0  0  0  0  0  0  0  0  0  0  0  0
  197.9180  180.2351  151.5982 C   0  0  0  0  0  0  0  0  0  0  0  0
  196.9932  180.8638  150.7398 C   0  0  0  0  0  0  0  0  0  0  0  0
  196.3169  180.0731  149.7315 C   0  0  0  0  0  0  0  0  0  0  0  0
  195.7812  179.4374  148.9289 N   0  0  0  0  0  0  0  0  0  0  0  0
  196.7461  182.2438  150.8499 C   0  0  0  0  0  0  0  0  0  0  0  0
  197.4137  182.9999  151.8297 C   0  0  0  0  0  0  0  0  0  0  0  0
  198.3390  182.3762  152.6879 C   0  0  0  0  0  0  0  0  0  0  0  0
  200.8099  177.1692  154.4673 C   0  0  0  0  0  0  0  0  0  0  0  0
  201.3896  176.4163  155.5267 C   0  0  0  0  0  0  0  0  0  0  0  0
  201.1409  176.6886  156.8251 N   0  0  0  0  0  0  0  0  0  0  0  0
  200.3573  177.7412  157.1292 C   0  0  0  0  0  0  0  0  0  0  0  0
  202.2390  175.3372  155.2114 C   0  0  0  0  0  0  0  0  0  0  0  0
  202.5260  175.0043  153.8743 C   0  0  0  0  0  0  0  0  0  0  0  0
  201.9429  175.7439  152.8306 C   0  0  0  0  0  0  0  0  0  0  0  0
  201.0866  176.8239  153.1216 C   0  0  0  0  0  0  0  0  0  0  0  0
  195.7398  180.4811  157.0236 H   0  0  0  0  0  0  0  0  0  0  0  0
  196.1406  181.4805  155.7368 H   0  0  0  0  0  0  0  0  0  0  0  0
  198.8766  185.4816  158.0165 H   0  0  0  0  0  0  0  0  0  0  0  0
  195.1911  183.1618  158.3068 H   0  0  0  0  0  0  0  0  0  0  0  0
  194.1835  184.8671  159.5732 H   0  0  0  0  0  0  0  0  0  0  0  0
  195.4281  186.9519  160.1581 H   0  0  0  0  0  0  0  0  0  0  0  0
  197.7513  183.3307  156.1302 H   0  0  0  0  0  0  0  0  0  0  0  0
  198.9116  183.1099  157.4099 H   0  0  0  0  0  0  0  0  0  0  0  0
  197.1813  181.4729  158.4899 H   0  0  0  0  0  0  0  0  0  0  0  0
  198.6388  178.5610  153.2425 H   0  0  0  0  0  0  0  0  0  0  0  0
  198.0960  179.1702  151.4881 H   0  0  0  0  0  0  0  0  0  0  0  0
  196.0537  182.7260  150.1787 H   0  0  0  0  0  0  0  0  0  0  0  0
  197.2275  184.0573  151.9102 H   0  0  0  0  0  0  0  0  0  0  0  0
  198.8436  182.9662  153.4368 H   0  0  0  0  0  0  0  0  0  0  0  0
  200.1877  177.9165  158.1856 H   0  0  0  0  0  0  0  0  0  0  0  0
  202.6913  174.7738  156.0132 H   0  0  0  0  0  0  0  0  0  0  0  0
  203.1945  174.1808  153.6534 H   0  0  0  0  0  0  0  0  0  0  0  0
  202.1733  175.4938  151.8040 H   0  0  0  0  0  0  0  0  0  0  0  0
  200.6655  177.3823  152.3008 H   0  0  0  0  0  0  0  0  0  0  0  0
  195.3141  182.0946  157.0084 H   0  0  0  0  0  0  0  0  0  0  0  0
  1  2  1  0
  2  3  2  0
  2  7  1  0
  3  4  1  0
  3 36  1  0
  4  5  2  0
  4  8  1  0
  5  6  1  0
  5 37  1  0
  6  7  2  0
  6 38  1  0
  7 39  1  0
  8  9  1  0
  8 40  1  6
  8 41  1  0
  9 10  1  0
  9 11  1  0
  9 42  1  1
 10 34  1  6
 10 35  1  0
 10 53  1  0
 11 12  3  0
 12 13  1  0
 13 14  2  0
 13 29  1  0
 14 15  1  0
 14 26  1  0
 15 16  1  0
 15 43  1  0
 16 17  2  0
 16 18  1  0
 18 19  1  0
 18 25  2  0
 19 20  2  0
 19 44  1  0
 20 21  1  0
 20 23  1  0
 21 22  3  0
 23 24  2  0
 23 45  1  0
 24 25  1  0
 24 46  1  0
 25 47  1  0
 26 27  1  0
 26 33  2  0
 27 28  1  0
 27 30  2  0
 28 29  2  0
 29 48  1  0
 30 31  1  0
 30 49  1  0
 31 32  2  0
 31 50  1  0
 32 33  1  0
 32 51  1  0
 33 52  1  0
M  CHG  1  10   1
M  END
>  <s_epik_cmdline>  (898) 
J2VwaWtfcHl0aG9uJywgJy1waCcsICc3LjAwMDAwMCcsICctcGh0JywgJzIuMDAwMDAwJywgJy1tcycsICcxNicsICctdG4nLCAnOCcsICctbWEnLCAnMjAwJywgJy1pbWFlJywgJzxpbmZpbGUubWFlPicsICctb21hZScsICc8b3V0ZmlsZS5tYWU+Jw==

>  <s_epik_input>  (898) 
RmMxW2NIXWMoW2NIXVtjSF1bY0hdMSlbQ0gyXVtDQEBIXShbTkgyXSlDI0NjKFtjSF1uYyhjMjMpW2NIXVtjSF1bY0hdW2NIXTMpYzJbTkhdQyg9TyljNFtjSF1jKEMjTilbY0hdW2NIXVtjSF00

>  <s_i_glide_gridfile>  (898) 
ATP-Grid

>  <s_lp_Force_Field>  (898) 
OPLS_2005

>  <s_lp_Variant>  (898) 
rxn503b____EMOL483931____EMOL13728749____EMOL313110234-3

>  <s_lp_label>  (898) 
3042_sdstereoexpander_1_neutralizer_1_epik_2_stereoizer_1

>  <s_m_source_file>  (898) 
ATP-VSW-LIGPREP-002-in.maegz

>  <s_sd_BIOSOLVEIT.INFINISEE\_QUERY\_NAME>  (898) 
Ref-Lig

>  <s_sd_BIOSOLVEIT.INFINISEE\_QUERY\_SMILES>  (898) 
S(c1nc2c(cc1C[NH2+]Cc3ccc(cc3)C[NH+](C)C)cccc2)Cc4ccccc4

>  <s_sd_BIOSOLVEIT.INFINISEE\_REACTION\_NAME>  (898) 
rxn503b

>  <s_sd_BIOSOLVEIT.INFINISEE\_REAGENT1\_NAME>  (898) 
EMOL483931

>  <s_sd_BIOSOLVEIT.INFINISEE\_REAGENT1\_SMILES>  (898) 
O=C(O)c1cc(C#N)ccc1

>  <s_sd_BIOSOLVEIT.INFINISEE\_REAGENT2\_NAME>  (898) 
EMOL13728749

>  <s_sd_BIOSOLVEIT.INFINISEE\_REAGENT2\_SMILES>  (898) 
Brc1c(N)c2c(nc1)cccc2

>  <s_sd_BIOSOLVEIT.INFINISEE\_REAGENT3\_NAME>  (898) 
EMOL313110234

>  <s_sd_BIOSOLVEIT.INFINISEE\_REAGENT3\_SMILES>  (898) 
Fc1cc(ccc1)CC(N)C#C

>  <s_sd_BIOSOLVEIT.INFINISEE\_SPACE>  (898) 
eXplore_7tr_2022-12

>  <s_vsw_compound_code>  (898) 
97314

>  <s_vsw_variant>  (898) 
97314-3

>  <r_epik_Charging_Adjusted_Penalty>  (898) 
1.22591159016581

>  <r_epik_Ionization_Penalty>  (898) 
0.61380000000000001

>  <r_epik_Ionization_Penalty_Charging>  (898) 
0.61299999999999999

>  <r_epik_Ionization_Penalty_Neutral>  (898) 
0.00080000000000000004

>  <r_epik_State_Penalty>  (898) 
0.61299999999999999

>  <r_i_docking_score>  (898) 
-4.5313521745392498

>  <r_i_glide_ecoul>  (898) 
-11.294760704040501

>  <r_i_glide_eff_state_penalty>  (898) 
0.61299999999999999

>  <r_i_glide_einternal>  (898) 
7.9029235839843803

>  <r_i_glide_emodel>  (898) 
-61.146071369453303

>  <r_i_glide_energy>  (898) 
-44.439677238464398

>  <r_i_glide_erotb>  (898) 
0.63040519659612704

>  <r_i_glide_esite>  (898) 
-0.104475737217086

>  <r_i_glide_evdw>  (898) 
-33.1449165344238

>  <r_i_glide_gscore>  (898) 
-5.1443521745392502

>  <r_i_glide_hbond>  (898) 
-0.22582352807442699

>  <r_i_glide_ligand_efficiency>  (898) 
-0.13731370225876499

>  <r_i_glide_ligand_efficiency_ln>  (898) 
-1.0077492615316299

>  <r_i_glide_ligand_efficiency_sa>  (898) 
-0.44043841346048201

>  <r_i_glide_lipo>  (898) 
-1.18938276391791

>  <r_i_glide_metal>  (898) 
-0

>  <r_i_glide_rewards>  (898) 
-0.90361540959867703

>  <r_lp_Energy>  (898) 
32.033431999999998

>  <r_qp_ACxDN^.5/SA>  (898) 
0.0135993

>  <r_qp_CIQPlogS>  (898) 
-6.7560000000000002

>  <r_qp_EA(eV)>  (898) 
1.3049999999999999

>  <r_qp_FISA>  (898) 
163.30600000000001

>  <r_qp_FOSA>  (898) 
54.777999999999999

>  <r_qp_IP(eV)>  (898) 
8.9580000000000002

>  <r_qp_Jm>  (898) 
1.52657864758806e-05

>  <r_qp_PISA>  (898) 
499.81999999999999

>  <r_qp_PSA>  (898) 
97.745999999999995

>  <r_qp_PercentHumanOralAbsorption>  (898) 
84.097999999999999

>  <r_qp_QPPCaco>  (898) 
69.850999999999999

>  <r_qp_QPPMDCK>  (898) 
55.261000000000003

>  <r_qp_QPlogBB>  (898) 
-1.1919999999999999

>  <r_qp_QPlogHERG>  (898) 
-8.1869999999999994

>  <r_qp_QPlogKhsa>  (898) 
0.68799999999999994

>  <r_qp_QPlogKp>  (898) 
-4.0629999999999997

>  <r_qp_QPlogPC16>  (898) 
16.132999999999999

>  <r_qp_QPlogPo/w>  (898) 
4.1239999999999997

>  <r_qp_QPlogPoct>  (898) 
24.556999999999999

>  <r_qp_QPlogPw>  (898) 
14.624000000000001

>  <r_qp_QPlogS>  (898) 
-6.391

>  <r_qp_QPpolrz>  (898) 
48.338000000000001

>  <r_qp_SASA>  (898) 
764.17999999999995

>  <r_qp_SAamideO>  (898) 
0

>  <r_qp_SAfluorine>  (898) 
46.276000000000003

>  <r_qp_WPSA>  (898) 
46.276000000000003

>  <r_qp_accptHB>  (898) 
6

>  <r_qp_dip^2/V>  (898) 
0.021704600000000001

>  <r_qp_dipole>  (898) 
5.4539999999999997

>  <r_qp_donorHB>  (898) 
3

>  <r_qp_glob>  (898) 
0.78090950000000003

>  <r_qp_mol_MW>  (898) 
434.47199999999998

>  <r_qp_volume>  (898) 
1370.7149999999999

>  <r_sd_BIOSOLVEIT.INFINISEE\_FTREES\_SIMILARITY>  (898) 
0.90200000000000002

>  <r_sd_BIOSOLVEIT.LOGP>  (898) 
3.7025800000000002

>  <r_sd_BIOSOLVEIT.MOLECULAR\_WEIGHT>  (898) 
435.48000000000002

>  <r_sd_BIOSOLVEIT.TPSA>  (898) 
93.420000000000002

>  <i_epik_Tot_Q>  (898) 
1

>  <i_epik_Tot_abs_Q>  (898) 
1

>  <i_f3d_flags>  (898) 
0

>  <i_i_glide_confnum>  (898) 
4

>  <i_i_glide_lignum>  (898) 
104

>  <i_i_glide_posenum>  (898) 
6

>  <i_i_glide_rotatable_bonds>  (898) 
7

>  <i_lp_mmshare_version>  (898) 
65135

>  <i_m_ct_format>  (898) 
2

>  <i_m_source_file_index>  (898) 
3042

>  <i_qp_#NandO>  (898) 
5

>  <i_qp_#acid>  (898) 
0

>  <i_qp_#amide>  (898) 
0

>  <i_qp_#amidine>  (898) 
0

>  <i_qp_#amine>  (898) 
1

>  <i_qp_#in34>  (898) 
0

>  <i_qp_#in56>  (898) 
22

>  <i_qp_#metab>  (898) 
5

>  <i_qp_#nonHatm>  (898) 
33

>  <i_qp_#noncon>  (898) 
0

>  <i_qp_#ringatoms>  (898) 
22

>  <i_qp_#rotor>  (898) 
8

>  <i_qp_#rtvFG>  (898) 
0

>  <i_qp_#stars>  (898) 
1

>  <i_qp_CNS>  (898) 
-2

>  <i_qp_HumanOralAbsorption>  (898) 
1

>  <i_qp_RuleOfFive>  (898) 
0

>  <i_qp_RuleOfThree>  (898) 
1

>  <i_sd_BIOSOLVEIT.INFINISEE\_RESULT\_RANK>  (898) 
90207

>  <i_sd_version>  (898) 
0

>  <b_lp_Chiralities_Consistent>  (898) 
1

>  <b_sd_chiral_flag>  (898) 
0

>  <canonical_id>  (898) 
ATP-HTVS-8F8686BB907F

>  <compound_code>  (898) 
97314

>  <title>  (898) 
rxn503b____EMOL483931____EMOL13728749____EMOL313110234

>  <variant>  (898) 
97314-3

>  <source_file>  (898) 
运行/运行/ATP-VSW/ATP-VSW-DOCK_HTVS_1-003_lib/ATP-VSW-DOCK_HTVS_1-003_lib.mae

>  <canonical_smiles>  (898) 
N#Cc1cccc(C(=O)Nc2c(C#C[C@H]([NH3+])Cc3cccc(F)c3)cnc3ccccc23)c1

>  <scaffold>  (898) 
O=C(Nc1c(C#CCCc2ccccc2)cnc2ccccc12)c1ccccc1

>  <molecular_formula>  (898) 
C27H20FN4O+

$$$$
ATP-HTVS-8FAB3387FC95
     RDKit          3D

 55 58  0  0  0  0  0  0  0  0999 V2000
  195.2146  191.1240  162.6230 F   0  0  0  0  0  0  0  0  0  0  0  0
  196.2568  190.4443  162.1509 C   0  0  1  0  0  0  0  0  0  0  0  0
  196.9325  191.2457  161.0370 C   0  0  1  0  0  0  0  0  0  0  0  0
  198.1076  190.5597  160.5209 N   0  0  0  0  0  0  0  0  0  0  0  0
  198.3601  190.3017  159.2317 C   0  0  0  0  0  0  0  0  0  0  0  0
  197.5805  190.5695  158.3170 O   0  0  0  0  0  0  0  0  0  0  0  0
  199.6884  189.6557  158.9545 C   0  0  0  0  0  0  0  0  0  0  0  0
  199.8234  188.4979  158.1357 C   0  0  0  0  0  0  0  0  0  0  0  0
  201.1200  187.9697  157.8994 C   0  0  0  0  0  0  0  0  0  0  0  0
  202.2684  188.5795  158.4349 C   0  0  0  0  0  0  0  0  0  0  0  0
  202.1338  189.7298  159.2326 C   0  0  0  0  0  0  0  0  0  0  0  0
  200.8505  190.2576  159.4863 C   0  0  0  0  0  0  0  0  0  0  0  0
  198.6345  187.7831  157.4885 C   0  0  1  0  0  0  0  0  0  0  0  0
  198.3590  186.4511  158.0620 N   0  0  0  0  0  0  0  0  0  0  0  0
  197.4494  185.7150  157.1605 C   0  0  2  0  0  0  0  0  0  0  0  0
  196.8713  184.4263  157.7696 C   0  0  0  0  0  0  0  0  0  0  0  0
  195.9318  184.4943  158.8376 C   0  0  0  0  0  0  0  0  0  0  0  0
  195.5501  185.7323  159.4179 N   0  0  0  0  0  0  0  0  0  0  0  0
  196.3728  186.7536  159.6729 C   0  0  0  0  0  0  0  0  0  0  0  0
  195.9521  187.8234  160.0892 O   0  0  0  0  0  0  0  0  0  0  0  0
  197.8797  186.5623  159.4679 C   0  0  1  0  0  0  0  0  0  0  0  0
  195.3285  183.3209  159.3327 C   0  0  0  0  0  0  0  0  0  0  0  0
  195.6736  182.0648  158.8002 C   0  0  0  0  0  0  0  0  0  0  0  0
  196.6106  181.9863  157.7600 C   0  0  0  0  0  0  0  0  0  0  0  0
  197.2004  183.1478  157.2440 C   0  0  0  0  0  0  0  0  0  0  0  0
  198.1357  185.4236  155.8227 C   0  0  0  0  0  0  0  0  0  0  0  0
  197.4151  185.4425  154.6076 C   0  0  0  0  0  0  0  0  0  0  0  0
  198.0615  185.1431  153.3920 C   0  0  0  0  0  0  0  0  0  0  0  0
  199.4330  184.8139  153.3852 C   0  0  0  0  0  0  0  0  0  0  0  0
  200.1568  184.7846  154.5912 C   0  0  0  0  0  0  0  0  0  0  0  0
  199.5087  185.0776  155.8026 C   0  0  0  0  0  0  0  0  0  0  0  0
  196.9366  190.2414  162.9730 H   0  0  0  0  0  0  0  0  0  0  0  0
  195.8710  189.4963  161.7899 H   0  0  0  0  0  0  0  0  0  0  0  0
  196.2073  191.4345  160.2403 H   0  0  0  0  0  0  0  0  0  0  0  0
  197.2736  192.2088  161.4172 H   0  0  0  0  0  0  0  0  0  0  0  0
  198.7733  190.2159  161.2150 H   0  0  0  0  0  0  0  0  0  0  0  0
  201.2475  187.0887  157.2839 H   0  0  0  0  0  0  0  0  0  0  0  0
  203.2539  188.1789  158.2369 H   0  0  0  0  0  0  0  0  0  0  0  0
  203.0053  190.2205  159.6384 H   0  0  0  0  0  0  0  0  0  0  0  0
  200.7666  191.1451  160.0987 H   0  0  0  0  0  0  0  0  0  0  0  0
  197.6991  188.3500  157.4595 H   0  0  0  0  0  0  0  0  0  0  0  0
  198.9522  187.7318  156.4509 H   0  0  0  0  0  0  0  0  0  0  0  0
  196.5974  186.3562  156.9363 H   0  0  0  0  0  0  0  0  0  0  0  0
  194.5806  185.8257  159.6945 H   0  0  0  0  0  0  0  0  0  0  0  0
  198.1702  185.6534  160.0003 H   0  0  0  0  0  0  0  0  0  0  0  0
  198.3920  187.3615  160.0045 H   0  0  0  0  0  0  0  0  0  0  0  0
  194.6080  183.3774  160.1351 H   0  0  0  0  0  0  0  0  0  0  0  0
  195.2284  181.1564  159.1726 H   0  0  0  0  0  0  0  0  0  0  0  0
  196.8707  181.0310  157.3378 H   0  0  0  0  0  0  0  0  0  0  0  0
  197.8922  183.0113  156.4229 H   0  0  0  0  0  0  0  0  0  0  0  0
  196.3572  185.6898  154.6049 H   0  0  0  0  0  0  0  0  0  0  0  0
  197.5019  185.1541  152.4724 H   0  0  0  0  0  0  0  0  0  0  0  0
  199.9328  184.5776  152.4574 H   0  0  0  0  0  0  0  0  0  0  0  0
  201.2034  184.5215  154.6070 H   0  0  0  0  0  0  0  0  0  0  0  0
  200.0631  185.0262  156.7263 H   0  0  0  0  0  0  0  0  0  0  0  0
  1  2  1  0
  2  3  1  0
  2 32  1  1
  2 33  1  0
  3  4  1  0
  3 34  1  6
  3 35  1  0
  4  5  1  0
  4 36  1  0
  5  6  2  0
  5  7  1  0
  7  8  1  0
  7 12  2  0
  8  9  2  0
  8 13  1  0
  9 10  1  0
  9 37  1  0
 10 11  2  0
 10 38  1  0
 11 12  1  0
 11 39  1  0
 12 40  1  0
 13 14  1  0
 13 41  1  6
 13 42  1  0
 14 15  1  0
 14 21  1  0
 15 16  1  0
 15 26  1  0
 15 43  1  6
 16 17  1  0
 16 25  2  0
 17 18  1  0
 17 22  2  0
 18 19  1  0
 18 44  1  0
 19 20  2  0
 19 21  1  0
 21 45  1  1
 21 46  1  0
 22 23  1  0
 22 47  1  0
 23 24  2  0
 23 48  1  0
 24 25  1  0
 24 49  1  0
 25 50  1  0
 26 27  2  0
 26 31  1  0
 27 28  1  0
 27 51  1  0
 28 29  2  0
 28 52  1  0
 29 30  1  0
 29 53  1  0
 30 31  2  0
 30 54  1  0
 31 55  1  0
M  END
>  <s_epik_cmdline>  (899) 
J2VwaWtfcHl0aG9uJywgJy1waCcsICc3LjAwMDAwMCcsICctcGh0JywgJzIuMDAwMDAwJywgJy1tcycsICcxNicsICctdG4nLCAnOCcsICctbWEnLCAnMjAwJywgJy1pbWFlJywgJzxpbmZpbGUubWFlPicsICctb21hZScsICc8b3V0ZmlsZS5tYWU+Jw==

>  <s_epik_input>  (899) 
RltDSDJdW0NIMl1bTkhdQyg9TyljMWMoW2NIXVtjSF1bY0hdW2NIXTEpW0NIMl1OKFtDQEhdMmMzW2NIXVtjSF1bY0hdW2NIXVtjSF0zKVtDSDJdQyg9TylbTkhdYyhjMjQpW2NIXVtjSF1bY0hdW2NIXTQ=

>  <s_i_glide_gridfile>  (899) 
ATP-Grid

>  <s_lp_Force_Field>  (899) 
OPLS_2005

>  <s_lp_Variant>  (899) 
rxn512b____EMOL507327____EMOL1939773____EMOL6185419-2

>  <s_lp_label>  (899) 
2316_sdstereoexpander_3_neutralizer_1_epik_1_stereoizer_1

>  <s_m_source_file>  (899) 
ATP-VSW-LIGPREP-003-in.maegz

>  <s_sd_BIOSOLVEIT.INFINISEE\_QUERY\_NAME>  (899) 
Ref-Lig

>  <s_sd_BIOSOLVEIT.INFINISEE\_QUERY\_SMILES>  (899) 
S(c1nc2c(cc1C[NH2+]Cc3ccc(cc3)C[NH+](C)C)cccc2)Cc4ccccc4

>  <s_sd_BIOSOLVEIT.INFINISEE\_REACTION\_NAME>  (899) 
rxn512b

>  <s_sd_BIOSOLVEIT.INFINISEE\_REAGENT1\_NAME>  (899) 
EMOL507327

>  <s_sd_BIOSOLVEIT.INFINISEE\_REAGENT1\_SMILES>  (899) 
FCCN

>  <s_sd_BIOSOLVEIT.INFINISEE\_REAGENT2\_NAME>  (899) 
EMOL1939773

>  <s_sd_BIOSOLVEIT.INFINISEE\_REAGENT2\_SMILES>  (899) 
BrCc1c(cccc1)C(=O)O

>  <s_sd_BIOSOLVEIT.INFINISEE\_REAGENT3\_NAME>  (899) 
EMOL6185419

>  <s_sd_BIOSOLVEIT.INFINISEE\_REAGENT3\_SMILES>  (899) 
O=C1Nc2c(cccc2)C(NC1)c3ccccc3

>  <s_sd_BIOSOLVEIT.INFINISEE\_SPACE>  (899) 
eXplore_7tr_2022-12

>  <s_vsw_compound_code>  (899) 
74083

>  <s_vsw_variant>  (899) 
74083-2

>  <r_epik_Charging_Adjusted_Penalty>  (899) 
0.0087634984339075902

>  <r_epik_Ionization_Penalty>  (899) 
0.0088000000000000005

>  <r_epik_Ionization_Penalty_Charging>  (899) 
0

>  <r_epik_Ionization_Penalty_Neutral>  (899) 
0.0088000000000000005

>  <r_epik_State_Penalty>  (899) 
0.0088000000000000005

>  <r_i_docking_score>  (899) 
-3.23460333570709

>  <r_i_glide_ecoul>  (899) 
-3.6417527198791499

>  <r_i_glide_eff_state_penalty>  (899) 
0.0088000000000000005

>  <r_i_glide_einternal>  (899) 
2.2317023277282702

>  <r_i_glide_emodel>  (899) 
-39.649117641488203

>  <r_i_glide_energy>  (899) 
-33.455923557281501

>  <r_i_glide_erotb>  (899) 
0.68045092043761302

>  <r_i_glide_esite>  (899) 
-0.116525853326981

>  <r_i_glide_evdw>  (899) 
-29.814170837402301

>  <r_i_glide_gscore>  (899) 
-3.2434033357070899

>  <r_i_glide_hbond>  (899) 
-0.16

>  <r_i_glide_ligand_efficiency>  (899) 
-0.104342043087326

>  <r_i_glide_ligand_efficiency_ln>  (899) 
-0.72950218088928298

>  <r_i_glide_ligand_efficiency_sa>  (899) 
-0.32777807501031803

>  <r_i_glide_lipo>  (899) 
-0.64151323777409097

>  <r_i_glide_metal>  (899) 
-0

>  <r_i_glide_rewards>  (899) 
-0.96884371519164303

>  <r_lp_Energy>  (899) 
55.952902000000002

>  <r_qp_ACxDN^.5/SA>  (899) 
0.0146128

>  <r_qp_CIQPlogS>  (899) 
-4.7629999999999999

>  <r_qp_EA(eV)>  (899) 
0.45000000000000001

>  <r_qp_FISA>  (899) 
90.403999999999996

>  <r_qp_FOSA>  (899) 
98.671000000000006

>  <r_qp_IP(eV)>  (899) 
9.6950000000000003

>  <r_qp_Jm>  (899) 
0.0086081959487500706

>  <r_qp_PISA>  (899) 
442.024

>  <r_qp_PSA>  (899) 
71.575000000000003

>  <r_qp_PercentHumanOralAbsorption>  (899) 
94.248000000000005

>  <r_qp_QPPCaco>  (899) 
343.16300000000001

>  <r_qp_QPPMDCK>  (899) 
309.10500000000002

>  <r_qp_QPlogBB>  (899) 
-0.028000000000000001

>  <r_qp_QPlogHERG>  (899) 
-7.0199999999999996

>  <r_qp_QPlogKhsa>  (899) 
0.51900000000000002

>  <r_qp_QPlogKp>  (899) 
-3.3069999999999999

>  <r_qp_QPlogPC16>  (899) 
13.887

>  <r_qp_QPlogPo/w>  (899) 
3.7440000000000002

>  <r_qp_QPlogPoct>  (899) 
22.539999999999999

>  <r_qp_QPlogPw>  (899) 
13.929

>  <r_qp_QPlogS>  (899) 
-4.3789999999999996

>  <r_qp_QPpolrz>  (899) 
46.216000000000001

>  <r_qp_SASA>  (899) 
677.45500000000004

>  <r_qp_SAamideO>  (899) 
0

>  <r_qp_SAfluorine>  (899) 
46.356999999999999

>  <r_qp_WPSA>  (899) 
46.356999999999999

>  <r_qp_accptHB>  (899) 
7

>  <r_qp_dip^2/V>  (899) 
0.0037778

>  <r_qp_dipole>  (899) 
2.1880000000000002

>  <r_qp_donorHB>  (899) 
2

>  <r_qp_glob>  (899) 
0.83598939999999999

>  <r_qp_mol_MW>  (899) 
417.48200000000003

>  <r_qp_volume>  (899) 
1267.2850000000001

>  <r_sd_BIOSOLVEIT.INFINISEE\_FTREES\_SIMILARITY>  (899) 
0.92200000000000004

>  <r_sd_BIOSOLVEIT.LOGP>  (899) 
2.5125000000000002

>  <r_sd_BIOSOLVEIT.MOLECULAR\_WEIGHT>  (899) 
418.49000000000001

>  <r_sd_BIOSOLVEIT.TPSA>  (899) 
62.640000000000001

>  <i_epik_Tot_Q>  (899) 
0

>  <i_epik_Tot_abs_Q>  (899) 
0

>  <i_f3d_flags>  (899) 
0

>  <i_i_glide_confnum>  (899) 
5

>  <i_i_glide_lignum>  (899) 
955

>  <i_i_glide_posenum>  (899) 
4

>  <i_i_glide_rotatable_bonds>  (899) 
7

>  <i_lp_mmshare_version>  (899) 
65135

>  <i_m_ct_format>  (899) 
2

>  <i_m_source_file_index>  (899) 
2316

>  <i_qp_#NandO>  (899) 
5

>  <i_qp_#acid>  (899) 
0

>  <i_qp_#amide>  (899) 
0

>  <i_qp_#amidine>  (899) 
0

>  <i_qp_#amine>  (899) 
1

>  <i_qp_#in34>  (899) 
0

>  <i_qp_#in56>  (899) 
18

>  <i_qp_#metab>  (899) 
7

>  <i_qp_#nonHatm>  (899) 
31

>  <i_qp_#noncon>  (899) 
2

>  <i_qp_#ringatoms>  (899) 
23

>  <i_qp_#rotor>  (899) 
4

>  <i_qp_#rtvFG>  (899) 
0

>  <i_qp_#stars>  (899) 
0

>  <i_qp_CNS>  (899) 
1

>  <i_qp_HumanOralAbsorption>  (899) 
3

>  <i_qp_RuleOfFive>  (899) 
0

>  <i_qp_RuleOfThree>  (899) 
1

>  <i_sd_BIOSOLVEIT.INFINISEE\_RESULT\_RANK>  (899) 
13040

>  <i_sd_version>  (899) 
0

>  <b_lp_Chiralities_Consistent>  (899) 
1

>  <b_sd_chiral_flag>  (899) 
0

>  <canonical_id>  (899) 
ATP-HTVS-8FAB3387FC95

>  <compound_code>  (899) 
74083

>  <title>  (899) 
rxn512b____EMOL507327____EMOL1939773____EMOL6185419

>  <variant>  (899) 
74083-2

>  <source_file>  (899) 
运行/运行/ATP-VSW/ATP-VSW-DOCK_HTVS_1-003_lib/ATP-VSW-DOCK_HTVS_1-003_lib.mae

>  <canonical_smiles>  (899) 
O=C1CN(Cc2ccccc2C(=O)NCCF)[C@@H](c2ccccc2)c2ccccc2N1

>  <scaffold>  (899) 
O=C1CN(Cc2ccccc2)C(c2ccccc2)c2ccccc2N1

>  <molecular_formula>  (899) 
C25H24FN3O2

$$$$
ATP-HTVS-8FAC22D1DEE3
     RDKit          3D

 53 55  0  0  0  0  0  0  0  0999 V2000
  199.1215  183.1339  152.8570 S   0  0  0  0  0  0  0  0  0  0  0  0
  197.6967  182.1440  152.6372 C   0  0  0  0  0  0  0  0  0  0  0  0
  197.5653  181.5257  151.2909 C   0  0  0  0  0  0  0  0  0  0  0  0
  198.1442  182.0545  150.3415 O   0  0  0  0  0  0  0  0  0  0  0  0
  196.8698  180.3703  151.1374 N   0  0  0  0  0  0  0  0  0  0  0  0
  196.8073  179.6884  149.8365 C   0  0  1  0  0  0  0  0  0  0  0  0
  197.6370  178.4146  149.7285 C   0  0  0  0  0  0  0  0  0  0  0  0
  197.6419  177.7219  148.5008 C   0  0  0  0  0  0  0  0  0  0  0  0
  198.3703  176.5266  148.3606 C   0  0  0  0  0  0  0  0  0  0  0  0
  199.0952  176.0058  149.4481 C   0  0  0  0  0  0  0  0  0  0  0  0
  199.0966  176.6909  150.6791 C   0  0  0  0  0  0  0  0  0  0  0  0
  198.3835  177.8956  150.8148 C   0  0  0  0  0  0  0  0  0  0  0  0
  196.1563  179.6652  152.2081 C   0  0  2  0  0  0  0  0  0  0  0  0
  196.9110  182.1719  153.7693 C   0  0  0  0  0  0  0  0  0  0  0  0
  197.4941  182.9089  154.8444 C   0  0  0  0  0  0  0  0  0  0  0  0
  196.8042  182.9528  156.0684 N   0  0  0  0  0  0  0  0  0  0  0  0
  197.0686  183.7037  157.2236 C   0  0  0  0  0  0  0  0  0  0  0  0
  196.5404  183.2978  158.4829 C   0  0  0  0  0  0  0  0  0  0  0  0
  196.8298  184.0519  159.6487 C   0  0  0  0  0  0  0  0  0  0  0  0
  197.6331  185.2034  159.5702 C   0  0  0  0  0  0  0  0  0  0  0  0
  198.1349  185.6205  158.3279 C   0  0  0  0  0  0  0  0  0  0  0  0
  197.8254  184.8961  157.1596 C   0  0  0  0  0  0  0  0  0  0  0  0
  195.6308  182.0796  158.6084 C   0  0  1  0  0  0  0  0  0  0  0  0
  194.2379  182.3379  158.1371 N   0  0  1  0  0  0  0  0  0  0  0  0
  193.3649  181.1497  158.2803 C   0  0  2  0  0  0  0  0  0  0  0  0
  193.6259  183.5605  158.6873 C   0  0  2  0  0  0  0  0  0  0  0  0
  198.7042  183.4676  154.5134 C   0  0  0  0  0  0  0  0  0  0  0  0
  195.7584  179.4547  149.6426 H   0  0  0  0  0  0  0  0  0  0  0  0
  197.1038  180.3385  149.0079 H   0  0  0  0  0  0  0  0  0  0  0  0
  197.0811  178.1040  147.6585 H   0  0  0  0  0  0  0  0  0  0  0  0
  198.3674  176.0035  147.4156 H   0  0  0  0  0  0  0  0  0  0  0  0
  199.6506  175.0854  149.3447 H   0  0  0  0  0  0  0  0  0  0  0  0
  199.6449  176.2951  151.5224 H   0  0  0  0  0  0  0  0  0  0  0  0
  198.4195  178.3890  151.7722 H   0  0  0  0  0  0  0  0  0  0  0  0
  195.1808  180.1188  152.3601 H   0  0  0  0  0  0  0  0  0  0  0  0
  196.7129  179.6375  153.1461 H   0  0  0  0  0  0  0  0  0  0  0  0
  195.9683  178.6227  151.9563 H   0  0  0  0  0  0  0  0  0  0  0  0
  195.9583  181.6874  153.8925 H   0  0  0  0  0  0  0  0  0  0  0  0
  196.0536  182.2867  156.1247 H   0  0  0  0  0  0  0  0  0  0  0  0
  196.4144  183.7546  160.6042 H   0  0  0  0  0  0  0  0  0  0  0  0
  197.8457  185.7819  160.4548 H   0  0  0  0  0  0  0  0  0  0  0  0
  198.7545  186.4992  158.2565 H   0  0  0  0  0  0  0  0  0  0  0  0
  198.1746  185.2891  156.2059 H   0  0  0  0  0  0  0  0  0  0  0  0
  196.0746  181.2540  158.0520 H   0  0  0  0  0  0  0  0  0  0  0  0
  195.6040  181.7485  159.6518 H   0  0  0  0  0  0  0  0  0  0  0  0
  193.2383  180.8730  159.3319 H   0  0  0  0  0  0  0  0  0  0  0  0
  193.7772  180.2903  157.7486 H   0  0  0  0  0  0  0  0  0  0  0  0
  192.3785  181.3411  157.8455 H   0  0  0  0  0  0  0  0  0  0  0  0
  193.5809  183.5160  159.7717 H   0  0  0  0  0  0  0  0  0  0  0  0
  192.6076  183.6869  158.3185 H   0  0  0  0  0  0  0  0  0  0  0  0
  194.1795  184.4628  158.4240 H   0  0  0  0  0  0  0  0  0  0  0  0
  199.3793  184.0559  155.1173 H   0  0  0  0  0  0  0  0  0  0  0  0
  194.2580  182.5154  157.1302 H   0  0  0  0  0  0  0  0  0  0  0  0
  1  2  1  0
  1 27  1  0
  2  3  1  0
  2 14  2  0
  3  4  2  0
  3  5  1  0
  5  6  1  0
  5 13  1  0
  6  7  1  0
  6 28  1  6
  6 29  1  0
  7  8  2  0
  7 12  1  0
  8  9  1  0
  8 30  1  0
  9 10  2  0
  9 31  1  0
 10 11  1  0
 10 32  1  0
 11 12  2  0
 11 33  1  0
 12 34  1  0
 13 35  1  1
 13 36  1  0
 13 37  1  0
 14 15  1  0
 14 38  1  0
 15 16  1  0
 15 27  2  0
 16 17  1  0
 16 39  1  0
 17 18  1  0
 17 22  2  0
 18 19  2  0
 18 23  1  0
 19 20  1  0
 19 40  1  0
 20 21  2  0
 20 41  1  0
 21 22  1  0
 21 42  1  0
 22 43  1  0
 23 24  1  0
 23 44  1  6
 23 45  1  0
 24 25  1  0
 24 26  1  0
 24 53  1  6
 25 46  1  1
 25 47  1  0
 25 48  1  0
 26 49  1  1
 26 50  1  0
 26 51  1  0
 27 52  1  0
M  CHG  1  24   1
M  END
>  <s_epik_cmdline>  (900) 
J2VwaWtfcHl0aG9uJywgJy1waCcsICc3LjAwMDAwMCcsICctcGh0JywgJzIuMDAwMDAwJywgJy1tcycsICcxNicsICctdG4nLCAnOCcsICctbWEnLCAnMjAwJywgJy1pbWFlJywgJzxpbmZpbGUubWFlPicsICctb21hZScsICc8b3V0ZmlsZS5tYWU+Jw==

>  <s_epik_input>  (900) 
W2NIXTFbY0hdW2NIXVtjSF1jKFtDSDJdTihbQ0gzXSlbQ0gzXSljMVtOSF1jKFtjSF0yKVtjSF1zYzJDKD1PKU4oW0NIM10pW0NIMl1jM1tjSF1bY0hdW2NIXVtjSF1bY0hdMw==

>  <s_i_glide_gridfile>  (900) 
ATP-Grid

>  <s_lp_Force_Field>  (900) 
OPLS_2005

>  <s_lp_Variant>  (900) 
rxn512b____EMOL480996____EMOL720738____EMOL44691345-1

>  <s_lp_label>  (900) 
2595_sdstereoexpander_1_neutralizer_1_epik_1_stereoizer_1

>  <s_m_source_file>  (900) 
ATP-VSW-LIGPREP-003-in.maegz

>  <s_sd_BIOSOLVEIT.INFINISEE\_QUERY\_NAME>  (900) 
Ref-Lig

>  <s_sd_BIOSOLVEIT.INFINISEE\_QUERY\_SMILES>  (900) 
S(c1nc2c(cc1C[NH2+]Cc3ccc(cc3)C[NH+](C)C)cccc2)Cc4ccccc4

>  <s_sd_BIOSOLVEIT.INFINISEE\_REACTION\_NAME>  (900) 
rxn512b

>  <s_sd_BIOSOLVEIT.INFINISEE\_REAGENT1\_NAME>  (900) 
EMOL480996

>  <s_sd_BIOSOLVEIT.INFINISEE\_REAGENT1\_SMILES>  (900) 
N(Cc1ccccc1)C

>  <s_sd_BIOSOLVEIT.INFINISEE\_REAGENT2\_NAME>  (900) 
EMOL720738

>  <s_sd_BIOSOLVEIT.INFINISEE\_REAGENT2\_SMILES>  (900) 
BrC1=CSC(C(=O)O)=C1

>  <s_sd_BIOSOLVEIT.INFINISEE\_REAGENT3\_NAME>  (900) 
EMOL44691345

>  <s_sd_BIOSOLVEIT.INFINISEE\_REAGENT3\_SMILES>  (900) 
N(Cc1c(N)cccc1)(C)C

>  <s_sd_BIOSOLVEIT.INFINISEE\_SPACE>  (900) 
eXplore_7tr_2022-12

>  <s_vsw_compound_code>  (900) 
83011

>  <s_vsw_variant>  (900) 
83011-1

>  <r_epik_Charging_Adjusted_Penalty>  (900) 
0.085956694442709897

>  <r_epik_Ionization_Penalty>  (900) 
0.042999999999999997

>  <r_epik_Ionization_Penalty_Charging>  (900) 
0.042999999999999997

>  <r_epik_Ionization_Penalty_Neutral>  (900) 
0

>  <r_epik_State_Penalty>  (900) 
0.042999999999999997

>  <r_i_docking_score>  (900) 
-5.1691545302766597

>  <r_i_glide_ecoul>  (900) 
-10.6155605316162

>  <r_i_glide_eff_state_penalty>  (900) 
0.042999999999999997

>  <r_i_glide_einternal>  (900) 
0.97356110811233498

>  <r_i_glide_emodel>  (900) 
-63.278015077861603

>  <r_i_glide_energy>  (900) 
-43.5495700836182

>  <r_i_glide_erotb>  (900) 
0.80392098850184102

>  <r_i_glide_esite>  (900) 
-0.14990253178604401

>  <r_i_glide_evdw>  (900) 
-32.934009552002003

>  <r_i_glide_gscore>  (900) 
-5.2121545302766599

>  <r_i_glide_hbond>  (900) 
-0.20000000000000001

>  <r_i_glide_ligand_efficiency>  (900) 
-0.19145016778802501

>  <r_i_glide_ligand_efficiency_ln>  (900) 
-1.20329395447566

>  <r_i_glide_ligand_efficiency_sa>  (900) 
-0.57435050273308497

>  <r_i_glide_lipo>  (900) 
-1.5804511833222401

>  <r_i_glide_metal>  (900) 
-0

>  <r_i_glide_rewards>  (900) 
-0.84668724632769199

>  <r_lp_Energy>  (900) 
29.23837

>  <r_lp_tautomer_probability>  (900) 
0.99999274205267796

>  <r_qp_ACxDN^.5/SA>  (900) 
0.0076880000000000004

>  <r_qp_CIQPlogS>  (900) 
-4.702

>  <r_qp_EA(eV)>  (900) 
0.64000000000000001

>  <r_qp_FISA>  (900) 
38.866

>  <r_qp_FOSA>  (900) 
260.17399999999998

>  <r_qp_IP(eV)>  (900) 
7.992

>  <r_qp_Jm>  (900) 
0.0146870742829896

>  <r_qp_PISA>  (900) 
371.86099999999999

>  <r_qp_PSA>  (900) 
42.256999999999998

>  <r_qp_PercentHumanOralAbsorption>  (900) 
100

>  <r_qp_QPPCaco>  (900) 
1057.3789999999999

>  <r_qp_QPPMDCK>  (900) 
1018.982

>  <r_qp_QPlogBB>  (900) 
0.23899999999999999

>  <r_qp_QPlogHERG>  (900) 
-7.3490000000000002

>  <r_qp_QPlogKhsa>  (900) 
0.69999999999999996

>  <r_qp_QPlogKp>  (900) 
-2.3159999999999998

>  <r_qp_QPlogPC16>  (900) 
13.557

>  <r_qp_QPlogPo/w>  (900) 
4.7869999999999999

>  <r_qp_QPlogPoct>  (900) 
19.372

>  <r_qp_QPlogPw>  (900) 
9.5879999999999992

>  <r_qp_QPlogS>  (900) 
-5.0960000000000001

>  <r_qp_QPpolrz>  (900) 
43.939999999999998

>  <r_qp_SASA>  (900) 
715.39700000000005

>  <r_qp_SAamideO>  (900) 
0

>  <r_qp_SAfluorine>  (900) 
0

>  <r_qp_WPSA>  (900) 
44.494999999999997

>  <r_qp_accptHB>  (900) 
5.5

>  <r_qp_dip^2/V>  (900) 
0.043381700000000002

>  <r_qp_dipole>  (900) 
7.4379999999999997

>  <r_qp_donorHB>  (900) 
1

>  <r_qp_glob>  (900) 
0.79498800000000003

>  <r_qp_mol_MW>  (900) 
379.51900000000001

>  <r_qp_volume>  (900) 
1275.3030000000001

>  <r_sd_BIOSOLVEIT.INFINISEE\_FTREES\_SIMILARITY>  (900) 
0.91100000000000003

>  <r_sd_BIOSOLVEIT.LOGP>  (900) 
3.4083999999999999

>  <r_sd_BIOSOLVEIT.MOLECULAR\_WEIGHT>  (900) 
380.53199999999998

>  <r_sd_BIOSOLVEIT.TPSA>  (900) 
36.780000000000001

>  <i_epik_Tot_Q>  (900) 
1

>  <i_epik_Tot_abs_Q>  (900) 
1

>  <i_f3d_flags>  (900) 
0

>  <i_i_glide_confnum>  (900) 
1

>  <i_i_glide_lignum>  (900) 
1181

>  <i_i_glide_posenum>  (900) 
11

>  <i_i_glide_rotatable_bonds>  (900) 
8

>  <i_lp_mmshare_version>  (900) 
65135

>  <i_m_ct_format>  (900) 
2

>  <i_m_source_file_index>  (900) 
2595

>  <i_qp_#NandO>  (900) 
4

>  <i_qp_#acid>  (900) 
0

>  <i_qp_#amide>  (900) 
0

>  <i_qp_#amidine>  (900) 
0

>  <i_qp_#amine>  (900) 
1

>  <i_qp_#in34>  (900) 
0

>  <i_qp_#in56>  (900) 
17

>  <i_qp_#metab>  (900) 
7

>  <i_qp_#nonHatm>  (900) 
27

>  <i_qp_#noncon>  (900) 
0

>  <i_qp_#ringatoms>  (900) 
17

>  <i_qp_#rotor>  (900) 
7

>  <i_qp_#rtvFG>  (900) 
0

>  <i_qp_#stars>  (900) 
0

>  <i_qp_CNS>  (900) 
1

>  <i_qp_HumanOralAbsorption>  (900) 
3

>  <i_qp_RuleOfFive>  (900) 
0

>  <i_qp_RuleOfThree>  (900) 
1

>  <i_sd_BIOSOLVEIT.INFINISEE\_RESULT\_RANK>  (900) 
40878

>  <i_sd_version>  (900) 
0

>  <b_lp_Chiralities_Consistent>  (900) 
1

>  <b_sd_chiral_flag>  (900) 
0

>  <canonical_id>  (900) 
ATP-HTVS-8FAC22D1DEE3

>  <compound_code>  (900) 
83011

>  <title>  (900) 
rxn512b____EMOL480996____EMOL720738____EMOL44691345

>  <variant>  (900) 
83011-1

>  <source_file>  (900) 
运行/运行/ATP-VSW/ATP-VSW-DOCK_HTVS_1-003_lib/ATP-VSW-DOCK_HTVS_1-003_lib.mae

>  <canonical_smiles>  (900) 
CN(Cc1ccccc1)C(=O)c1cc(Nc2ccccc2C[NH+](C)C)cs1

>  <scaffold>  (900) 
O=C(NCc1ccccc1)c1cc(Nc2ccccc2)cs1

>  <molecular_formula>  (900) 
C22H26N3OS+

$$$$
ATP-HTVS-8FAD4DDE14EC
     RDKit          3D

 63 66  0  0  0  0  0  0  0  0999 V2000
  199.5900  186.6477  158.2673 F   0  0  0  0  0  0  0  0  0  0  0  0
  198.8006  185.5586  158.1162 C   0  0  0  0  0  0  0  0  0  0  0  0
  197.9917  185.4288  156.9722 C   0  0  0  0  0  0  0  0  0  0  0  0
  197.1577  184.3056  156.8210 C   0  0  0  0  0  0  0  0  0  0  0  0
  197.1271  183.2977  157.8132 C   0  0  0  0  0  0  0  0  0  0  0  0
  197.9512  183.4297  158.9538 C   0  0  0  0  0  0  0  0  0  0  0  0
  198.7835  184.5568  159.1041 C   0  0  0  0  0  0  0  0  0  0  0  0
  196.1748  182.1027  157.6869 C   0  0  1  0  0  0  0  0  0  0  0  0
  194.7784  182.4441  158.1079 N   0  0  1  0  0  0  0  0  0  0  0  0
  193.9515  181.2551  158.4117 C   0  0  2  0  0  0  0  0  0  0  0  0
  194.6860  183.4424  159.2052 C   0  0  2  0  0  0  0  0  0  0  0  0
  196.2416  181.4844  156.2608 C   0  0  1  0  0  0  0  0  0  0  0  0
  197.6043  181.0788  155.9538 N   0  0  0  0  0  0  0  0  0  0  0  0
  197.9956  180.3161  154.9195 C   0  0  0  0  0  0  0  0  0  0  0  0
  197.1765  179.9150  154.0882 O   0  0  0  0  0  0  0  0  0  0  0  0
  199.4506  180.0528  154.8962 C   0  0  0  0  0  0  0  0  0  0  0  0
  200.0935  179.1783  153.8693 C   0  0  0  0  0  0  0  0  0  0  0  0
  199.4421  178.5995  152.9975 O   0  0  0  0  0  0  0  0  0  0  0  0
  201.5878  179.0397  153.9223 C   0  0  0  0  0  0  0  0  0  0  0  0
  202.3457  179.6976  154.9322 C   0  0  0  0  0  0  0  0  0  0  0  0
  201.6562  180.4821  155.8816 N   0  0  0  0  0  0  0  0  0  0  0  0
  200.2749  180.6265  155.8152 C   0  0  0  0  0  0  0  0  0  0  0  0
  202.4078  181.1777  156.9332 C   0  0  1  0  0  0  0  0  0  0  0  0
  202.5296  180.3315  158.2165 C   0  0  1  0  0  0  0  0  0  0  0  0
  203.1449  181.1200  159.3578 C   0  0  0  0  0  0  0  0  0  0  0  0
  204.5191  180.9958  159.6459 C   0  0  0  0  0  0  0  0  0  0  0  0
  205.0944  181.7517  160.6858 C   0  0  0  0  0  0  0  0  0  0  0  0
  204.2958  182.6320  161.4419 C   0  0  0  0  0  0  0  0  0  0  0  0
  202.9211  182.7504  161.1644 C   0  0  0  0  0  0  0  0  0  0  0  0
  202.3461  181.9962  160.1246 C   0  0  0  0  0  0  0  0  0  0  0  0
  203.7571  179.5427  154.9331 C   0  0  0  0  0  0  0  0  0  0  0  0
  204.3972  178.7661  153.9544 C   0  0  0  0  0  0  0  0  0  0  0  0
  203.6443  178.1158  152.9613 C   0  0  0  0  0  0  0  0  0  0  0  0
  202.2440  178.2508  152.9481 C   0  0  0  0  0  0  0  0  0  0  0  0
  197.9993  186.1972  156.2131 H   0  0  0  0  0  0  0  0  0  0  0  0
  196.5379  184.2406  155.9385 H   0  0  0  0  0  0  0  0  0  0  0  0
  197.9308  182.6753  159.7301 H   0  0  0  0  0  0  0  0  0  0  0  0
  199.3963  184.6668  159.9869 H   0  0  0  0  0  0  0  0  0  0  0  0
  196.5415  181.3439  158.3832 H   0  0  0  0  0  0  0  0  0  0  0  0
  194.4168  180.6424  159.1854 H   0  0  0  0  0  0  0  0  0  0  0  0
  193.8046  180.6394  157.5254 H   0  0  0  0  0  0  0  0  0  0  0  0
  192.9619  181.5439  158.7621 H   0  0  0  0  0  0  0  0  0  0  0  0
  195.1994  183.0764  160.0975 H   0  0  0  0  0  0  0  0  0  0  0  0
  193.6506  183.6511  159.4760 H   0  0  0  0  0  0  0  0  0  0  0  0
  195.1211  184.4061  158.9378 H   0  0  0  0  0  0  0  0  0  0  0  0
  195.5747  180.6376  156.1540 H   0  0  0  0  0  0  0  0  0  0  0  0
  195.9315  182.1952  155.4942 H   0  0  0  0  0  0  0  0  0  0  0  0
  198.3117  181.3788  156.6042 H   0  0  0  0  0  0  0  0  0  0  0  0
  199.9209  181.2834  156.5972 H   0  0  0  0  0  0  0  0  0  0  0  0
  203.3953  181.5117  156.6025 H   0  0  0  0  0  0  0  0  0  0  0  0
  201.8721  182.0972  157.1713 H   0  0  0  0  0  0  0  0  0  0  0  0
  201.5501  179.9714  158.5297 H   0  0  0  0  0  0  0  0  0  0  0  0
  203.1248  179.4444  158.0332 H   0  0  0  0  0  0  0  0  0  0  0  0
  205.1377  180.3235  159.0666 H   0  0  0  0  0  0  0  0  0  0  0  0
  206.1478  181.6586  160.9020 H   0  0  0  0  0  0  0  0  0  0  0  0
  204.7382  183.2181  162.2342 H   0  0  0  0  0  0  0  0  0  0  0  0
  202.3075  183.4230  161.7453 H   0  0  0  0  0  0  0  0  0  0  0  0
  201.2916  182.0943  159.9111 H   0  0  0  0  0  0  0  0  0  0  0  0
  204.3851  180.0032  155.6824 H   0  0  0  0  0  0  0  0  0  0  0  0
  205.4729  178.6711  153.9712 H   0  0  0  0  0  0  0  0  0  0  0  0
  204.1413  177.5087  152.2178 H   0  0  0  0  0  0  0  0  0  0  0  0
  201.6801  177.7416  152.1789 H   0  0  0  0  0  0  0  0  0  0  0  0
  194.3547  182.8490  157.2763 H   0  0  0  0  0  0  0  0  0  0  0  0
  1  2  1  0
  2  3  1  0
  2  7  2  0
  3  4  2  0
  3 35  1  0
  4  5  1  0
  4 36  1  0
  5  6  2  0
  5  8  1  0
  6  7  1  0
  6 37  1  0
  7 38  1  0
  8  9  1  0
  8 12  1  0
  8 39  1  1
  9 10  1  0
  9 11  1  0
  9 63  1  6
 10 40  1  1
 10 41  1  0
 10 42  1  0
 11 43  1  1
 11 44  1  0
 11 45  1  0
 12 13  1  0
 12 46  1  1
 12 47  1  0
 13 14  1  0
 13 48  1  0
 14 15  2  0
 14 16  1  0
 16 17  1  0
 16 22  2  0
 17 18  2  0
 17 19  1  0
 19 20  1  0
 19 34  2  0
 20 21  1  0
 20 31  2  0
 21 22  1  0
 21 23  1  0
 22 49  1  0
 23 24  1  0
 23 50  1  6
 23 51  1  0
 24 25  1  0
 24 52  1  1
 24 53  1  0
 25 26  2  0
 25 30  1  0
 26 27  1  0
 26 54  1  0
 27 28  2  0
 27 55  1  0
 28 29  1  0
 28 56  1  0
 29 30  2  0
 29 57  1  0
 30 58  1  0
 31 32  1  0
 31 59  1  0
 32 33  2  0
 32 60  1  0
 33 34  1  0
 33 61  1  0
 34 62  1  0
M  CHG  1   9   1
M  END
>  <s_epik_cmdline>  (901) 
J2VwaWtfcHl0aG9uJywgJy1waCcsICc3LjAwMDAwMCcsICctcGh0JywgJzIuMDAwMDAwJywgJy1tcycsICcxNicsICctdG4nLCAnOCcsICctbWEnLCAnMjAwJywgJy1pbWFlJywgJzxpbmZpbGUubWFlPicsICctb21hZScsICc8b3V0ZmlsZS5tYWU+Jw==

>  <s_epik_input>  (901) 
RmMxW2NIXVtjSF1jKFtjSF1bY0hdMSlbQ0BASF0oTihbQ0gzXSlbQ0gzXSlbQ0gyXVtOSF1DKD1PKWMoYzI9TylbY0hdbihjKGMyMylbY0hdW2NIXVtjSF1bY0hdMylbQ0gyXVtDSDJdYzRbY0hdW2NIXVtjSF1bY0hdW2NIXTQ=

>  <s_i_glide_gridfile>  (901) 
ATP-Grid

>  <s_lp_Force_Field>  (901) 
OPLS_2005

>  <s_lp_Variant>  (901) 
YAS_R014____OTV5753507____OTV2889217____OTV7020431351-1

>  <s_lp_label>  (901) 
139_sdstereoexpander_1_neutralizer_1_epik_1_stereoizer_1

>  <s_m_source_file>  (901) 
ATP-VSW-LIGPREP-002-in.maegz

>  <s_sd_BIOSOLVEIT.INFINISEE\_QUERY\_NAME>  (901) 
Ref-Lig

>  <s_sd_BIOSOLVEIT.INFINISEE\_QUERY\_SMILES>  (901) 
S(c1nc2c(cc1C[NH2+]Cc3ccc(cc3)C[NH+](C)C)cccc2)Cc4ccccc4

>  <s_sd_BIOSOLVEIT.INFINISEE\_REACTION\_NAME>  (901) 
YAS_R014

>  <s_sd_BIOSOLVEIT.INFINISEE\_REAGENT1\_NAME>  (901) 
OTV5753507

>  <s_sd_BIOSOLVEIT.INFINISEE\_REAGENT1\_SMILES>  (901) 
Nc1ccccc1

>  <s_sd_BIOSOLVEIT.INFINISEE\_REAGENT2\_NAME>  (901) 
OTV2889217

>  <s_sd_BIOSOLVEIT.INFINISEE\_REAGENT2\_SMILES>  (901) 
BrCCc1ccccc1

>  <s_sd_BIOSOLVEIT.INFINISEE\_REAGENT3\_NAME>  (901) 
OTV7020431351

>  <s_sd_BIOSOLVEIT.INFINISEE\_REAGENT3\_SMILES>  (901) 
Fc1ccc(cc1)C(N(C)C)CN

>  <s_sd_BIOSOLVEIT.INFINISEE\_SPACE>  (901) 
CHEMriya_12bn_2022-01

>  <s_vsw_compound_code>  (901) 
4418

>  <s_vsw_variant>  (901) 
4418-1

>  <r_epik_Charging_Adjusted_Penalty>  (901) 
0.31349111248922001

>  <r_epik_Ionization_Penalty>  (901) 
0.15679999999999999

>  <r_epik_Ionization_Penalty_Charging>  (901) 
0.15679999999999999

>  <r_epik_Ionization_Penalty_Neutral>  (901) 
0

>  <r_epik_State_Penalty>  (901) 
0.15670000000000001

>  <r_i_docking_score>  (901) 
-3.6519751875052799

>  <r_i_glide_ecoul>  (901) 
-8.7523403167724592

>  <r_i_glide_eff_state_penalty>  (901) 
0.15670000000000001

>  <r_i_glide_einternal>  (901) 
3.67250776290894

>  <r_i_glide_emodel>  (901) 
-51.634076227670903

>  <r_i_glide_energy>  (901) 
-39.322362899780302

>  <r_i_glide_erotb>  (901) 
0.66960742893293101

>  <r_i_glide_esite>  (901) 
-0.196672820513038

>  <r_i_glide_evdw>  (901) 
-30.570022583007798

>  <r_i_glide_gscore>  (901) 
-3.8086751875052798

>  <r_i_glide_hbond>  (901) 
-0.20000000000000001

>  <r_i_glide_ligand_efficiency>  (901) 
-0.107411034926626

>  <r_i_glide_ligand_efficiency_ln>  (901) 
-0.80682375335424095

>  <r_i_glide_ligand_efficiency_sa>  (901) 
-0.34797005592670299

>  <r_i_glide_lipo>  (901) 
-0.93532415725428397

>  <r_i_glide_metal>  (901) 
-0

>  <r_i_glide_rewards>  (901) 
-0.304933462004633

>  <r_lp_Energy>  (901) 
27.794589999999999

>  <r_qp_ACxDN^.5/SA>  (901) 
0

>  <r_qp_CIQPlogS>  (901) 
-6.2770000000000001

>  <r_qp_EA(eV)>  (901) 
0.57499999999999996

>  <r_qp_FISA>  (901) 
78.582999999999998

>  <r_qp_FOSA>  (901) 
214.78999999999999

>  <r_qp_IP(eV)>  (901) 
8.5909999999999993

>  <r_qp_Jm>  (901) 
0.062574916863896907

>  <r_qp_PISA>  (901) 
362.03899999999999

>  <r_qp_PSA>  (901) 
68.138999999999996

>  <r_qp_PercentHumanOralAbsorption>  (901) 
100

>  <r_qp_QPPCaco>  (901) 
444.21699999999998

>  <r_qp_QPPMDCK>  (901) 
371.20499999999998

>  <r_qp_QPlogBB>  (901) 
-0.13700000000000001

>  <r_qp_QPlogHERG>  (901) 
-6.2889999999999997

>  <r_qp_QPlogKhsa>  (901) 
0.63800000000000001

>  <r_qp_QPlogKp>  (901) 
-2.9870000000000001

>  <r_qp_QPlogPC16>  (901) 
13.693

>  <r_qp_QPlogPo/w>  (901) 
4.7839999999999998

>  <r_qp_QPlogPoct>  (901) 
19.760999999999999

>  <r_qp_QPlogPw>  (901) 
8.5459999999999994

>  <r_qp_QPlogS>  (901) 
-3.8769999999999998

>  <r_qp_QPpolrz>  (901) 
46.825000000000003

>  <r_qp_SASA>  (901) 
694.16600000000005

>  <r_qp_SAamideO>  (901) 
0

>  <r_qp_SAfluorine>  (901) 
38.753999999999998

>  <r_qp_WPSA>  (901) 
38.753999999999998

>  <r_qp_accptHB>  (901) 
6

>  <r_qp_dip^2/V>  (901) 
0.053774200000000001

>  <r_qp_dipole>  (901) 
8.5700000000000003

>  <r_qp_donorHB>  (901) 
0

>  <r_qp_glob>  (901) 
0.85760879999999995

>  <r_qp_mol_MW>  (901) 
457.54599999999999

>  <r_qp_volume>  (901) 
1365.7829999999999

>  <r_sd_BIOSOLVEIT.INFINISEE\_FTREES\_SIMILARITY>  (901) 
0.90400000000000003

>  <r_sd_BIOSOLVEIT.LOGP>  (901) 
2.9569999999999999

>  <r_sd_BIOSOLVEIT.MOLECULAR\_WEIGHT>  (901) 
458.55399999999997

>  <r_sd_BIOSOLVEIT.TPSA>  (901) 
53.850000000000001

>  <i_epik_Tot_Q>  (901) 
1

>  <i_epik_Tot_abs_Q>  (901) 
1

>  <i_f3d_flags>  (901) 
0

>  <i_i_glide_confnum>  (901) 
4

>  <i_i_glide_lignum>  (901) 
109

>  <i_i_glide_posenum>  (901) 
11

>  <i_i_glide_rotatable_bonds>  (901) 
9

>  <i_lp_mmshare_version>  (901) 
65135

>  <i_m_ct_format>  (901) 
2

>  <i_m_source_file_index>  (901) 
139

>  <i_qp_#NandO>  (901) 
5

>  <i_qp_#acid>  (901) 
0

>  <i_qp_#amide>  (901) 
0

>  <i_qp_#amidine>  (901) 
0

>  <i_qp_#amine>  (901) 
1

>  <i_qp_#in34>  (901) 
0

>  <i_qp_#in56>  (901) 
22

>  <i_qp_#metab>  (901) 
5

>  <i_qp_#nonHatm>  (901) 
34

>  <i_qp_#noncon>  (901) 
0

>  <i_qp_#ringatoms>  (901) 
22

>  <i_qp_#rotor>  (901) 
8

>  <i_qp_#rtvFG>  (901) 
0

>  <i_qp_#stars>  (901) 
0

>  <i_qp_CNS>  (901) 
1

>  <i_qp_HumanOralAbsorption>  (901) 
3

>  <i_qp_RuleOfFive>  (901) 
0

>  <i_qp_RuleOfThree>  (901) 
0

>  <i_sd_BIOSOLVEIT.INFINISEE\_RESULT\_RANK>  (901) 
79505

>  <i_sd_version>  (901) 
0

>  <b_lp_Chiralities_Consistent>  (901) 
1

>  <b_sd_chiral_flag>  (901) 
0

>  <canonical_id>  (901) 
ATP-HTVS-8FAD4DDE14EC

>  <compound_code>  (901) 
4418

>  <title>  (901) 
YAS_R014____OTV5753507____OTV2889217____OTV7020431351

>  <variant>  (901) 
4418-1

>  <source_file>  (901) 
运行/运行/ATP-VSW/ATP-VSW-DOCK_HTVS_1-002_lib.maegz

>  <canonical_smiles>  (901) 
C[NH+](C)[C@@H](CNC(=O)c1cn(CCc2ccccc2)c2ccccc2c1=O)c1ccc(F)cc1

>  <scaffold>  (901) 
O=C(NCCc1ccccc1)c1cn(CCc2ccccc2)c2ccccc2c1=O

>  <molecular_formula>  (901) 
C28H29FN3O2+

$$$$
ATP-HTVS-8FCE9ABFEDC9
     RDKit          3D

 68 72  0  0  0  0  0  0  0  0999 V2000
  198.7771  175.3211  148.1898 F   0  0  0  0  0  0  0  0  0  0  0  0
  198.4372  176.4777  148.8035 C   0  0  0  0  0  0  0  0  0  0  0  0
  197.7233  177.4728  148.1086 C   0  0  0  0  0  0  0  0  0  0  0  0
  197.3705  178.6853  148.7406 C   0  0  0  0  0  0  0  0  0  0  0  0
  197.6921  178.8801  150.1232 C   0  0  0  0  0  0  0  0  0  0  0  0
  198.3199  177.8410  150.8353 C   0  0  0  0  0  0  0  0  0  0  0  0
  198.7485  176.6782  150.1710 C   0  0  0  0  0  0  0  0  0  0  0  0
  197.3905  180.2092  150.7652 C   0  0  0  0  0  0  0  0  0  0  0  0
  197.1184  181.1787  150.0706 O   0  0  0  0  0  0  0  0  0  0  0  0
  197.4374  180.2364  152.1225 N   0  0  0  0  0  0  0  0  0  0  0  0
  197.4322  181.3846  152.9726 C   0  0  0  0  0  0  0  0  0  0  0  0
  197.9568  181.2769  154.2975 C   0  0  0  0  0  0  0  0  0  0  0  0
  198.4778  180.0307  154.7081 N   0  0  0  0  0  0  0  0  0  0  0  0
  199.9351  179.9191  154.7775 C   0  0  1  0  0  0  0  0  0  0  0  0
  200.4602  178.5085  154.6177 C   0  0  0  0  0  0  0  0  0  0  0  0
  200.9511  177.7779  155.7308 C   0  0  0  0  0  0  0  0  0  0  0  0
  201.4716  176.4825  155.5350 C   0  0  0  0  0  0  0  0  0  0  0  0
  201.4394  175.8708  154.2663 C   0  0  0  0  0  0  0  0  0  0  0  0
  202.0050  174.5620  154.0548 N   0  0  0  0  0  0  0  0  0  0  0  0
  202.5269  174.1640  152.7516 C   0  0  1  0  0  0  0  0  0  0  0  0
  203.9826  173.6723  152.8722 C   0  0  1  0  0  0  0  0  0  0  0  0
  204.1439  172.6699  153.9509 N   0  0  2  0  0  0  0  0  0  0  0  0
  203.6531  173.1787  155.2510 C   0  0  1  0  0  0  0  0  0  0  0  0
  202.1881  173.6366  155.1611 C   0  0  1  0  0  0  0  0  0  0  0  0
  205.5085  172.1539  154.0260 C   0  0  2  0  0  0  0  0  0  0  0  0
  200.9159  176.6025  153.1760 C   0  0  0  0  0  0  0  0  0  0  0  0
  200.5097  177.9334  153.3465 C   0  0  0  0  0  0  0  0  0  0  0  0
  197.6837  179.3353  155.7163 C   0  0  2  0  0  0  0  0  0  0  0  0
  197.9634  182.4400  155.1291 C   0  0  0  0  0  0  0  0  0  0  0  0
  197.4500  183.6629  154.6160 C   0  0  0  0  0  0  0  0  0  0  0  0
  196.9658  183.7003  153.3620 N   0  0  0  0  0  0  0  0  0  0  0  0
  196.9243  182.6339  152.5520 C   0  0  0  0  0  0  0  0  0  0  0  0
  197.4186  184.8392  155.3903 C   0  0  0  0  0  0  0  0  0  0  0  0
  197.9134  184.8160  156.7058 C   0  0  0  0  0  0  0  0  0  0  0  0
  198.4376  183.6214  157.2343 C   0  0  0  0  0  0  0  0  0  0  0  0
  198.4619  182.4437  156.4576 C   0  0  0  0  0  0  0  0  0  0  0  0
  197.4402  177.3016  147.0722 H   0  0  0  0  0  0  0  0  0  0  0  0
  196.8390  179.4471  148.1877 H   0  0  0  0  0  0  0  0  0  0  0  0
  198.4689  177.9313  151.8985 H   0  0  0  0  0  0  0  0  0  0  0  0
  199.2763  175.9086  150.7019 H   0  0  0  0  0  0  0  0  0  0  0  0
  197.6453  179.3739  152.6028 H   0  0  0  0  0  0  0  0  0  0  0  0
  200.3699  180.5132  153.9706 H   0  0  0  0  0  0  0  0  0  0  0  0
  200.3163  180.3322  155.7103 H   0  0  0  0  0  0  0  0  0  0  0  0
  200.9909  178.2374  156.7122 H   0  0  0  0  0  0  0  0  0  0  0  0
  201.9306  176.0221  156.4029 H   0  0  0  0  0  0  0  0  0  0  0  0
  201.8929  173.3588  152.3605 H   0  0  0  0  0  0  0  0  0  0  0  0
  202.5246  174.9627  152.0076 H   0  0  0  0  0  0  0  0  0  0  0  0
  204.3280  173.2756  151.9144 H   0  0  0  0  0  0  0  0  0  0  0  0
  204.6224  174.5281  153.1105 H   0  0  0  0  0  0  0  0  0  0  0  0
  203.7374  172.4104  156.0151 H   0  0  0  0  0  0  0  0  0  0  0  0
  204.2852  174.0163  155.5542 H   0  0  0  0  0  0  0  0  0  0  0  0
  201.8801  174.0251  156.1309 H   0  0  0  0  0  0  0  0  0  0  0  0
  201.5394  172.7757  154.9662 H   0  0  0  0  0  0  0  0  0  0  0  0
  206.2008  172.9711  154.2335 H   0  0  0  0  0  0  0  0  0  0  0  0
  205.7959  171.6694  153.0915 H   0  0  0  0  0  0  0  0  0  0  0  0
  205.5974  171.4248  154.8261 H   0  0  0  0  0  0  0  0  0  0  0  0
  200.8610  176.1708  152.1947 H   0  0  0  0  0  0  0  0  0  0  0  0
  200.2254  178.5451  152.4982 H   0  0  0  0  0  0  0  0  0  0  0  0
  196.6897  179.7678  155.8215 H   0  0  0  0  0  0  0  0  0  0  0  0
  198.1758  179.3700  156.6870 H   0  0  0  0  0  0  0  0  0  0  0  0
  197.5645  178.2892  155.4376 H   0  0  0  0  0  0  0  0  0  0  0  0
  196.4731  182.8392  151.5933 H   0  0  0  0  0  0  0  0  0  0  0  0
  197.0083  185.7570  154.9880 H   0  0  0  0  0  0  0  0  0  0  0  0
  197.8904  185.7145  157.3054 H   0  0  0  0  0  0  0  0  0  0  0  0
  198.8190  183.6074  158.2452 H   0  0  0  0  0  0  0  0  0  0  0  0
  198.8626  181.5460  156.9003 H   0  0  0  0  0  0  0  0  0  0  0  0
  196.5600  184.5721  153.0204 H   0  0  0  0  0  0  0  0  0  0  0  0
  203.5530  171.8560  153.7436 H   0  0  0  0  0  0  0  0  0  0  0  0
  1  2  1  0
  2  3  1  0
  2  7  2  0
  3  4  2  0
  3 37  1  0
  4  5  1  0
  4 38  1  0
  5  6  2  0
  5  8  1  0
  6  7  1  0
  6 39  1  0
  7 40  1  0
  8  9  2  0
  8 10  1  0
 10 11  1  0
 10 41  1  0
 11 12  2  0
 11 32  1  0
 12 13  1  0
 12 29  1  0
 13 14  1  0
 13 28  1  0
 14 15  1  0
 14 42  1  6
 14 43  1  0
 15 16  1  0
 15 27  2  0
 16 17  2  0
 16 44  1  0
 17 18  1  0
 17 45  1  0
 18 19  1  0
 18 26  2  0
 19 20  1  0
 19 24  1  0
 20 21  1  0
 20 46  1  6
 20 47  1  0
 21 22  1  0
 21 48  1  6
 21 49  1  0
 22 23  1  0
 22 25  1  0
 22 68  1  6
 23 24  1  0
 23 50  1  1
 23 51  1  0
 24 52  1  1
 24 53  1  0
 25 54  1  1
 25 55  1  0
 25 56  1  0
 26 27  1  0
 26 57  1  0
 27 58  1  0
 28 59  1  1
 28 60  1  0
 28 61  1  0
 29 30  1  0
 29 36  2  0
 30 31  1  0
 30 33  2  0
 31 32  2  0
 31 67  1  0
 32 62  1  0
 33 34  1  0
 33 63  1  0
 34 35  2  0
 34 64  1  0
 35 36  1  0
 35 65  1  0
 36 66  1  0
M  CHG  2  22   1  31   1
M  END
>  <s_epik_cmdline>  (902) 
J2VwaWtfcHl0aG9uJywgJy1waCcsICc3LjAwMDAwMCcsICctcGh0JywgJzIuMDAwMDAwJywgJy1tcycsICcxNicsICctdG4nLCAnOCcsICctbWEnLCAnMjAwJywgJy1pbWFlJywgJzxpbmZpbGUubWFlPicsICctb21hZScsICc8b3V0ZmlsZS5tYWU+Jw==

>  <s_epik_input>  (902) 
RmMxW2NIXVtjSF1jKFtjSF1bY0hdMSlDKD1PKVtOSF1jKFtjSF1uYyhjMjMpW2NIXVtjSF1bY0hdW2NIXTMpYzJOKFtDSDNdKVtDSDJdYzRbY0hdW2NIXWMoW2NIXVtjSF00KU41W0NIMl1bQ0gyXU4oW0NIM10pW0NIMl1bQ0gyXTU=

>  <s_i_glide_gridfile>  (902) 
ATP-Grid

>  <s_lp_Force_Field>  (902) 
OPLS_2005

>  <s_lp_Variant>  (902) 
rxn502b____EMOL480289____EMOL30488121____EMOL64015596-1

>  <s_lp_label>  (902) 
3019_sdstereoexpander_1_neutralizer_1_epik_1_stereoizer_1

>  <s_m_source_file>  (902) 
ATP-VSW-LIGPREP-002-in.maegz

>  <s_sd_BIOSOLVEIT.INFINISEE\_QUERY\_NAME>  (902) 
Ref-Lig

>  <s_sd_BIOSOLVEIT.INFINISEE\_QUERY\_SMILES>  (902) 
S(c1nc2c(cc1C[NH2+]Cc3ccc(cc3)C[NH+](C)C)cccc2)Cc4ccccc4

>  <s_sd_BIOSOLVEIT.INFINISEE\_REACTION\_NAME>  (902) 
rxn502b

>  <s_sd_BIOSOLVEIT.INFINISEE\_REAGENT1\_NAME>  (902) 
EMOL480289

>  <s_sd_BIOSOLVEIT.INFINISEE\_REAGENT1\_SMILES>  (902) 
Fc1ccc(cc1)C(=O)O

>  <s_sd_BIOSOLVEIT.INFINISEE\_REAGENT2\_NAME>  (902) 
EMOL30488121

>  <s_sd_BIOSOLVEIT.INFINISEE\_REAGENT2\_SMILES>  (902) 
Brc1c(N)cnc2c1cccc2

>  <s_sd_BIOSOLVEIT.INFINISEE\_REAGENT3\_NAME>  (902) 
EMOL64015596

>  <s_sd_BIOSOLVEIT.INFINISEE\_REAGENT3\_SMILES>  (902) 
N1(c2ccc(cc2)CNC)CCN(CC1)C

>  <s_sd_BIOSOLVEIT.INFINISEE\_SPACE>  (902) 
eXplore_7tr_2022-12

>  <s_vsw_compound_code>  (902) 
96578

>  <s_vsw_variant>  (902) 
96578-1

>  <r_epik_Charging_Adjusted_Penalty>  (902) 
0.49809361164156102

>  <r_epik_Ionization_Penalty>  (902) 
0.10390000000000001

>  <r_epik_Ionization_Penalty_Charging>  (902) 
0.096500000000000002

>  <r_epik_Ionization_Penalty_Neutral>  (902) 
0.0074000000000000003

>  <r_epik_State_Penalty>  (902) 
0.40160000000000001

>  <r_i_docking_score>  (902) 
-4.59612623883549

>  <r_i_glide_ecoul>  (902) 
-9.9599113464355504

>  <r_i_glide_eff_state_penalty>  (902) 
0.40160000000000001

>  <r_i_glide_einternal>  (902) 
1.9773316383361801

>  <r_i_glide_emodel>  (902) 
-63.466419535093003

>  <r_i_glide_energy>  (902) 
-44.008945465087898

>  <r_i_glide_erotb>  (902) 
0.60310293333283105

>  <r_i_glide_esite>  (902) 
-0.18032784138639699

>  <r_i_glide_evdw>  (902) 
-34.049034118652301

>  <r_i_glide_gscore>  (902) 
-4.9977262388354902

>  <r_i_glide_hbond>  (902) 
-0.17887389149565699

>  <r_i_glide_ligand_efficiency>  (902) 
-0.12767017330098601

>  <r_i_glide_ligand_efficiency_ln>  (902) 
-1.00275057233289

>  <r_i_glide_ligand_efficiency_sa>  (902) 
-0.42155762359007098

>  <r_i_glide_lipo>  (902) 
-1.1280035486064499

>  <r_i_glide_metal>  (902) 
-0

>  <r_i_glide_rewards>  (902) 
-0.91718548278187095

>  <r_lp_Energy>  (902) 
59.574280000000002

>  <r_qp_ACxDN^.5/SA>  (902) 
0.010168200000000001

>  <r_qp_CIQPlogS>  (902) 
-6.4100000000000001

>  <r_qp_EA(eV)>  (902) 
1.04

>  <r_qp_FISA>  (902) 
51.008000000000003

>  <r_qp_FOSA>  (902) 
291.67599999999999

>  <r_qp_IP(eV)>  (902) 
8.2680000000000007

>  <r_qp_Jm>  (902) 
0.0066662931788131902

>  <r_qp_PISA>  (902) 
349.15499999999997

>  <r_qp_PSA>  (902) 
53.235999999999997

>  <r_qp_PercentHumanOralAbsorption>  (902) 
100

>  <r_qp_QPPCaco>  (902) 
811.13800000000003

>  <r_qp_QPPMDCK>  (902) 
777.38499999999999

>  <r_qp_QPlogBB>  (902) 
0.28599999999999998

>  <r_qp_QPlogHERG>  (902) 
-6.5830000000000002

>  <r_qp_QPlogKhsa>  (902) 
0.83299999999999996

>  <r_qp_QPlogKp>  (902) 
-2.8119999999999998

>  <r_qp_QPlogPC16>  (902) 
14.252000000000001

>  <r_qp_QPlogPo/w>  (902) 
4.8840000000000003

>  <r_qp_QPlogPoct>  (902) 
23.114999999999998

>  <r_qp_QPlogPw>  (902) 
11.981

>  <r_qp_QPlogS>  (902) 
-5.048

>  <r_qp_QPpolrz>  (902) 
51.552

>  <r_qp_SASA>  (902) 
737.59699999999998

>  <r_qp_SAamideO>  (902) 
0

>  <r_qp_SAfluorine>  (902) 
45.758000000000003

>  <r_qp_WPSA>  (902) 
45.758000000000003

>  <r_qp_accptHB>  (902) 
7.5

>  <r_qp_dip^2/V>  (902) 
0.018458800000000001

>  <r_qp_dipole>  (902) 
5.1539999999999999

>  <r_qp_donorHB>  (902) 
1

>  <r_qp_glob>  (902) 
0.83564360000000004

>  <r_qp_mol_MW>  (902) 
483.58699999999999

>  <r_qp_volume>  (902) 
1438.8420000000001

>  <r_sd_BIOSOLVEIT.INFINISEE\_FTREES\_SIMILARITY>  (902) 
0.90200000000000002

>  <r_sd_BIOSOLVEIT.LOGP>  (902) 
3.5973000000000002

>  <r_sd_BIOSOLVEIT.MOLECULAR\_WEIGHT>  (902) 
484.596

>  <r_sd_BIOSOLVEIT.TPSA>  (902) 
52.909999999999997

>  <i_epik_Tot_Q>  (902) 
2

>  <i_epik_Tot_abs_Q>  (902) 
2

>  <i_f3d_flags>  (902) 
0

>  <i_i_glide_confnum>  (902) 
2

>  <i_i_glide_lignum>  (902) 
83

>  <i_i_glide_posenum>  (902) 
8

>  <i_i_glide_rotatable_bonds>  (902) 
7

>  <i_lp_mmshare_version>  (902) 
65135

>  <i_m_ct_format>  (902) 
2

>  <i_m_source_file_index>  (902) 
3019

>  <i_qp_#NandO>  (902) 
6

>  <i_qp_#acid>  (902) 
0

>  <i_qp_#amide>  (902) 
0

>  <i_qp_#amidine>  (902) 
0

>  <i_qp_#amine>  (902) 
1

>  <i_qp_#in34>  (902) 
0

>  <i_qp_#in56>  (902) 
28

>  <i_qp_#metab>  (902) 
4

>  <i_qp_#nonHatm>  (902) 
36

>  <i_qp_#noncon>  (902) 
4

>  <i_qp_#ringatoms>  (902) 
28

>  <i_qp_#rotor>  (902) 
5

>  <i_qp_#rtvFG>  (902) 
0

>  <i_qp_#stars>  (902) 
0

>  <i_qp_CNS>  (902) 
1

>  <i_qp_HumanOralAbsorption>  (902) 
3

>  <i_qp_RuleOfFive>  (902) 
0

>  <i_qp_RuleOfThree>  (902) 
0

>  <i_sd_BIOSOLVEIT.INFINISEE\_RESULT\_RANK>  (902) 
87973

>  <i_sd_version>  (902) 
0

>  <b_lp_Chiralities_Consistent>  (902) 
1

>  <b_sd_chiral_flag>  (902) 
0

>  <canonical_id>  (902) 
ATP-HTVS-8FCE9ABFEDC9

>  <compound_code>  (902) 
96578

>  <title>  (902) 
rxn502b____EMOL480289____EMOL30488121____EMOL64015596

>  <variant>  (902) 
96578-1

>  <source_file>  (902) 
运行/运行/ATP-VSW/ATP-VSW-DOCK_HTVS_1-003_lib/ATP-VSW-DOCK_HTVS_1-003_lib.mae

>  <canonical_smiles>  (902) 
CN(Cc1ccc(N2CC[NH+](C)CC2)cc1)c1c(NC(=O)c2ccc(F)cc2)c[nH+]c2ccccc12

>  <scaffold>  (902) 
O=C(Nc1c[nH+]c2ccccc2c1NCc1ccc(N2CC[NH2+]CC2)cc1)c1ccccc1

>  <molecular_formula>  (902) 
C29H32FN5O+2

$$$$
ATP-HTVS-8FFDF10521D1
     RDKit          3D

 60 62  0  0  0  0  0  0  0  0999 V2000
  202.0500  175.8247  155.6174 Cl  0  0  0  0  0  0  0  0  0  0  0  0
  201.0463  177.1366  155.1030 C   0  0  0  0  0  0  0  0  0  0  0  0
  201.4243  177.9736  154.0309 C   0  0  0  0  0  0  0  0  0  0  0  0
  200.5846  179.0368  153.6246 C   0  0  0  0  0  0  0  0  0  0  0  0
  199.3371  179.2683  154.2709 C   0  0  0  0  0  0  0  0  0  0  0  0
  198.9495  178.3803  155.3111 C   0  0  0  0  0  0  0  0  0  0  0  0
  199.8126  177.3531  155.7413 C   0  0  0  0  0  0  0  0  0  0  0  0
  198.4767  180.4100  153.8708 C   0  0  0  0  0  0  0  0  0  0  0  0
  198.7134  181.0074  152.7073 N   0  0  0  0  0  0  0  0  0  0  0  0
  197.8170  182.0085  152.6058 N   0  0  0  0  0  0  0  0  0  0  0  0
  196.9702  182.0257  153.6872 C   0  0  0  0  0  0  0  0  0  0  0  0
  197.3796  181.0450  154.5472 C   0  0  0  0  0  0  0  0  0  0  0  0
  196.7652  180.7096  155.8780 C   0  0  1  0  0  0  0  0  0  0  0  0
  196.2752  181.9191  156.5824 N   0  0  1  0  0  0  0  0  0  0  0  0
  196.1468  181.7468  158.0482 C   0  0  1  0  0  0  0  0  0  0  0  0
  195.9169  183.0516  158.7635 C   0  0  0  0  0  0  0  0  0  0  0  0
  196.9925  183.9305  159.0201 C   0  0  0  0  0  0  0  0  0  0  0  0
  196.7466  185.2064  159.5765 C   0  0  0  0  0  0  0  0  0  0  0  0
  195.4387  185.5304  159.9872 C   0  0  0  0  0  0  0  0  0  0  0  0
  194.3748  184.6351  159.7654 C   0  0  0  0  0  0  0  0  0  0  0  0
  194.6097  183.4050  159.1340 C   0  0  0  0  0  0  0  0  0  0  0  0
  197.8706  186.2096  159.7568 C   0  0  1  0  0  0  0  0  0  0  0  0
  198.1601  186.9686  158.5077 N   0  0  1  0  0  0  0  0  0  0  0  0
  197.0202  187.7573  157.9513 C   0  0  1  0  0  0  0  0  0  0  0  0
  195.9603  186.8651  157.2250 C   0  0  2  0  0  0  0  0  0  0  0  0
  199.3772  187.8035  158.6674 C   0  0  2  0  0  0  0  0  0  0  0  0
  197.8235  182.8771  151.4410 C   0  0  1  0  0  0  0  0  0  0  0  0
  197.6222  184.3449  151.8277 C   0  0  1  0  0  0  0  0  0  0  0  0
  197.5901  185.2268  150.6546 C   0  0  0  0  0  0  0  0  0  0  0  0
  197.5625  185.9192  149.7316 N   0  0  0  0  0  0  0  0  0  0  0  0
  196.9912  182.6086  156.4428 H   0  0  0  0  0  0  0  0  0  0  0  0
  202.3636  177.8010  153.5201 H   0  0  0  0  0  0  0  0  0  0  0  0
  200.9130  179.6597  152.8008 H   0  0  0  0  0  0  0  0  0  0  0  0
  197.9883  178.4549  155.8151 H   0  0  0  0  0  0  0  0  0  0  0  0
  199.4921  176.7279  156.5602 H   0  0  0  0  0  0  0  0  0  0  0  0
  196.1481  182.7277  153.7561 H   0  0  0  0  0  0  0  0  0  0  0  0
  195.9622  179.9807  155.7320 H   0  0  0  0  0  0  0  0  0  0  0  0
  197.5114  180.2498  156.5400 H   0  0  0  0  0  0  0  0  0  0  0  0
  195.3205  181.0799  158.2586 H   0  0  0  0  0  0  0  0  0  0  0  0
  197.0419  181.2937  158.4888 H   0  0  0  0  0  0  0  0  0  0  0  0
  197.9796  183.6795  158.6646 H   0  0  0  0  0  0  0  0  0  0  0  0
  195.2459  186.4424  160.5098 H   0  0  0  0  0  0  0  0  0  0  0  0
  193.3676  184.9403  159.9899 H   0  0  0  0  0  0  0  0  0  0  0  0
  193.7679  182.7855  158.8532 H   0  0  0  0  0  0  0  0  0  0  0  0
  197.6064  186.9293  160.5429 H   0  0  0  0  0  0  0  0  0  0  0  0
  198.7760  185.6844  160.0985 H   0  0  0  0  0  0  0  0  0  0  0  0
  196.5812  188.3596  158.7524 H   0  0  0  0  0  0  0  0  0  0  0  0
  197.4306  188.4868  157.2501 H   0  0  0  0  0  0  0  0  0  0  0  0
  195.2291  187.5030  156.7095 H   0  0  0  0  0  0  0  0  0  0  0  0
  195.4169  186.1903  157.9083 H   0  0  0  0  0  0  0  0  0  0  0  0
  196.4487  186.3394  156.3790 H   0  0  0  0  0  0  0  0  0  0  0  0
  199.2412  188.5655  159.4332 H   0  0  0  0  0  0  0  0  0  0  0  0
  199.6263  188.3183  157.7429 H   0  0  0  0  0  0  0  0  0  0  0  0
  200.2476  187.2077  158.9417 H   0  0  0  0  0  0  0  0  0  0  0  0
  198.7661  182.7627  150.9008 H   0  0  0  0  0  0  0  0  0  0  0  0
  197.0321  182.5388  150.7727 H   0  0  0  0  0  0  0  0  0  0  0  0
  196.6816  184.4810  152.3594 H   0  0  0  0  0  0  0  0  0  0  0  0
  198.4239  184.6790  152.4856 H   0  0  0  0  0  0  0  0  0  0  0  0
  198.4016  186.2860  157.8037 H   0  0  0  0  0  0  0  0  0  0  0  0
  195.3880  182.2418  156.1862 H   0  0  0  0  0  0  0  0  0  0  0  0
  1  2  1  0
  2  3  1  0
  2  7  2  0
  3  4  2  0
  3 32  1  0
  4  5  1  0
  4 33  1  0
  5  6  2  0
  5  8  1  0
  6  7  1  0
  6 34  1  0
  7 35  1  0
  8  9  2  0
  8 12  1  0
  9 10  1  0
 10 11  1  0
 10 27  1  0
 11 12  2  0
 11 36  1  0
 12 13  1  0
 13 14  1  0
 13 37  1  6
 13 38  1  0
 14 15  1  0
 14 31  1  1
 14 60  1  0
 15 16  1  0
 15 39  1  6
 15 40  1  0
 16 17  2  0
 16 21  1  0
 17 18  1  0
 17 41  1  0
 18 19  2  0
 18 22  1  0
 19 20  1  0
 19 42  1  0
 20 21  2  0
 20 43  1  0
 21 44  1  0
 22 23  1  0
 22 45  1  1
 22 46  1  0
 23 24  1  0
 23 26  1  0
 23 59  1  6
 24 25  1  0
 24 47  1  1
 24 48  1  0
 25 49  1  6
 25 50  1  0
 25 51  1  0
 26 52  1  1
 26 53  1  0
 26 54  1  0
 27 28  1  0
 27 55  1  6
 27 56  1  0
 28 29  1  0
 28 57  1  1
 28 58  1  0
 29 30  3  0
M  CHG  2  14   1  23   1
M  END
>  <s_epik_cmdline>  (903) 
J2VwaWtfcHl0aG9uJywgJy1waCcsICc3LjAwMDAwMCcsICctcGh0JywgJzIuMDAwMDAwJywgJy1tcycsICcxNicsICctdG4nLCAnOCcsICctbWEnLCAnMjAwJywgJy1pbWFlJywgJzxpbmZpbGUubWFlPicsICctb21hZScsICc8b3V0ZmlsZS5tYWU+Jw==

>  <s_epik_input>  (903) 
Q2xjMVtjSF1bY0hdYyhbY0hdW2NIXTEpLWMybm4oW0NIMl1bQ0gyXUMjTilbY0hdYzJbQ0gyXVtOSF1bQ0gyXWMzW2NIXWMoW2NIXVtjSF1bY0hdMylbQ0gyXU4oW0NIM10pW0NIMl1bQ0gzXQ==

>  <s_i_glide_gridfile>  (903) 
ATP-Grid

>  <s_lp_Force_Field>  (903) 
OPLS_2005

>  <s_lp_Variant>  (903) 
m_270004bbb____8294988____24714838-1

>  <s_lp_label>  (903) 
1083_sdstereoexpander_1_neutralizer_1_epik_1_stereoizer_1

>  <s_m_source_file>  (903) 
ATP-VSW-LIGPREP-001-in.maegz

>  <s_sd_BIOSOLVEIT.INFINISEE\_QUERY\_NAME>  (903) 
Ref-Lig

>  <s_sd_BIOSOLVEIT.INFINISEE\_QUERY\_SMILES>  (903) 
S(c1nc2c(cc1C[NH2+]Cc3ccc(cc3)C[NH+](C)C)cccc2)Cc4ccccc4

>  <s_sd_BIOSOLVEIT.INFINISEE\_REACTION\_NAME>  (903) 
m_270004bbb

>  <s_sd_BIOSOLVEIT.INFINISEE\_REAGENT1\_SMILES>  (903) 
[R1*]NCc1cc(ccc1)CN(CC)C

>  <s_sd_BIOSOLVEIT.INFINISEE\_REAGENT2\_SMILES>  (903) 
[R1*]CC=1C(=NN(C1)CCC#N)c2ccc(Cl)cc2

>  <s_sd_BIOSOLVEIT.INFINISEE\_SPACE>  (903) 
REALSpace_44bn_2023-08

>  <s_vsw_compound_code>  (903) 
34625

>  <s_vsw_variant>  (903) 
34625-1

>  <r_epik_Charging_Adjusted_Penalty>  (903) 
0.28451925657200999

>  <r_epik_Ionization_Penalty>  (903) 
0.1431

>  <r_epik_Ionization_Penalty_Charging>  (903) 
0.1431

>  <r_epik_Ionization_Penalty_Neutral>  (903) 
0

>  <r_epik_State_Penalty>  (903) 
0.1414

>  <r_i_docking_score>  (903) 
-5.0847399101225301

>  <r_i_glide_ecoul>  (903) 
-12.8887844085693

>  <r_i_glide_eff_state_penalty>  (903) 
0.1414

>  <r_i_glide_einternal>  (903) 
5.2895689010620099

>  <r_i_glide_emodel>  (903) 
-68.087701409090997

>  <r_i_glide_energy>  (903) 
-46.488485336303697

>  <r_i_glide_erotb>  (903) 
0.88225426498176296

>  <r_i_glide_esite>  (903) 
-0.096244429891352401

>  <r_i_glide_evdw>  (903) 
-33.599700927734403

>  <r_i_glide_gscore>  (903) 
-5.2261399101225301

>  <r_i_glide_hbond>  (903) 
-0.20000000000000001

>  <r_i_glide_ligand_efficiency>  (903) 
-0.16949133033741801

>  <r_i_glide_ligand_efficiency_ln>  (903) 
-1.1553083102585699

>  <r_i_glide_ligand_efficiency_sa>  (903) 
-0.52664897050470905

>  <r_i_glide_lipo>  (903) 
-1.5418095602800801

>  <r_i_glide_metal>  (903) 
-0

>  <r_i_glide_rewards>  (903) 
-0.65703747726074901

>  <r_lp_Energy>  (903) 
16.922519000000001

>  <r_lp_tautomer_probability>  (903) 
1

>  <r_qp_ACxDN^.5/SA>  (903) 
0.0096276999999999995

>  <r_qp_CIQPlogS>  (903) 
-5.1139999999999999

>  <r_qp_EA(eV)>  (903) 
0.25800000000000001

>  <r_qp_FISA>  (903) 
83.731999999999999

>  <r_qp_FOSA>  (903) 
284.23599999999999

>  <r_qp_IP(eV)>  (903) 
8.9879999999999995

>  <r_qp_Jm>  (903) 
0.00065064044228391703

>  <r_qp_PISA>  (903) 
235.50700000000001

>  <r_qp_PSA>  (903) 
53.909999999999997

>  <r_qp_PercentHumanOralAbsorption>  (903) 
84.340000000000003

>  <r_qp_QPPCaco>  (903) 
99.007999999999996

>  <r_qp_QPPMDCK>  (903) 
122.774

>  <r_qp_QPlogBB>  (903) 
0.17299999999999999

>  <r_qp_QPlogHERG>  (903) 
-6.4299999999999997

>  <r_qp_QPlogKhsa>  (903) 
0.48299999999999998

>  <r_qp_QPlogKp>  (903) 
-5.3979999999999997

>  <r_qp_QPlogPC16>  (903) 
13.315

>  <r_qp_QPlogPo/w>  (903) 
3.702

>  <r_qp_QPlogPoct>  (903) 
19.026

>  <r_qp_QPlogPw>  (903) 
9.202

>  <r_qp_QPlogS>  (903) 
-3.4140000000000001

>  <r_qp_QPpolrz>  (903) 
41.997

>  <r_qp_SASA>  (903) 
675.13599999999997

>  <r_qp_SAamideO>  (903) 
0

>  <r_qp_SAfluorine>  (903) 
0

>  <r_qp_WPSA>  (903) 
71.661000000000001

>  <r_qp_accptHB>  (903) 
6.5

>  <r_qp_dip^2/V>  (903) 
0.0061294000000000001

>  <r_qp_dipole>  (903) 
2.831

>  <r_qp_donorHB>  (903) 
1

>  <r_qp_glob>  (903) 
0.85648009999999997

>  <r_qp_mol_MW>  (903) 
421.97199999999998

>  <r_qp_volume>  (903) 
1307.4200000000001

>  <r_sd_BIOSOLVEIT.INFINISEE\_FTREES\_SIMILARITY>  (903) 
0.91400000000000003

>  <r_sd_BIOSOLVEIT.LOGP>  (903) 
2.4153799999999999

>  <r_sd_BIOSOLVEIT.MOLECULAR\_WEIGHT>  (903) 
423.98899999999998

>  <r_sd_BIOSOLVEIT.TPSA>  (903) 
62.659999999999997

>  <i_epik_Tot_Q>  (903) 
2

>  <i_epik_Tot_abs_Q>  (903) 
2

>  <i_f3d_flags>  (903) 
0

>  <i_i_glide_confnum>  (903) 
4

>  <i_i_glide_lignum>  (903) 
247

>  <i_i_glide_posenum>  (903) 
7

>  <i_i_glide_rotatable_bonds>  (903) 
10

>  <i_lp_mmshare_version>  (903) 
65135

>  <i_m_ct_format>  (903) 
2

>  <i_m_source_file_index>  (903) 
1083

>  <i_qp_#NandO>  (903) 
5

>  <i_qp_#acid>  (903) 
0

>  <i_qp_#amide>  (903) 
0

>  <i_qp_#amidine>  (903) 
0

>  <i_qp_#amine>  (903) 
2

>  <i_qp_#in34>  (903) 
0

>  <i_qp_#in56>  (903) 
17

>  <i_qp_#metab>  (903) 
6

>  <i_qp_#nonHatm>  (903) 
30

>  <i_qp_#noncon>  (903) 
0

>  <i_qp_#ringatoms>  (903) 
17

>  <i_qp_#rotor>  (903) 
10

>  <i_qp_#rtvFG>  (903) 
0

>  <i_qp_#stars>  (903) 
0

>  <i_qp_CNS>  (903) 
1

>  <i_qp_HumanOralAbsorption>  (903) 
3

>  <i_qp_RuleOfFive>  (903) 
0

>  <i_qp_RuleOfThree>  (903) 
0

>  <i_sd_BIOSOLVEIT.INFINISEE\_REAGENT1\_NAME>  (903) 
8294988

>  <i_sd_BIOSOLVEIT.INFINISEE\_REAGENT2\_NAME>  (903) 
24714838

>  <i_sd_BIOSOLVEIT.INFINISEE\_RESULT\_RANK>  (903) 
32107

>  <i_sd_version>  (903) 
0

>  <b_lp_Chiralities_Consistent>  (903) 
1

>  <b_sd_chiral_flag>  (903) 
0

>  <canonical_id>  (903) 
ATP-HTVS-8FFDF10521D1

>  <compound_code>  (903) 
34625

>  <title>  (903) 
m_270004bbb____8294988____24714838

>  <variant>  (903) 
34625-1

>  <source_file>  (903) 
运行/运行/ATP-VSW/ATP-VSW-DOCK_HTVS_1-001_lib/ATP-VSW-DOCK_HTVS_1-001_lib

>  <canonical_smiles>  (903) 
CC[N@@H+](C)Cc1cccc(C[NH2+]Cc2cn(CCC#N)nc2-c2ccc(Cl)cc2)c1

>  <scaffold>  (903) 
c1ccc(C[NH2+]Cc2c[nH]nc2-c2ccccc2)cc1

>  <molecular_formula>  (903) 
C24H30ClN5+2

$$$$
ATP-HTVS-903509DD9171
     RDKit          3D

 60 63  0  0  0  0  0  0  0  0999 V2000
  202.3893  173.8130  155.3354 N   0  0  0  0  0  0  0  0  0  0  0  0
  201.8680  174.8441  155.3255 C   0  0  0  0  0  0  0  0  0  0  0  0
  201.2146  176.1415  155.3105 C   0  0  0  0  0  0  0  0  0  0  0  0
  200.6130  176.6227  154.1313 C   0  0  0  0  0  0  0  0  0  0  0  0
  199.9956  177.8897  154.1176 C   0  0  0  0  0  0  0  0  0  0  0  0
  199.9763  178.6806  155.2843 C   0  0  0  0  0  0  0  0  0  0  0  0
  200.5805  178.1980  156.4653 C   0  0  0  0  0  0  0  0  0  0  0  0
  201.1954  176.9307  156.4760 C   0  0  0  0  0  0  0  0  0  0  0  0
  199.3403  180.0575  155.2619 C   0  0  1  0  0  0  0  0  0  0  0  0
  198.2627  180.2384  156.2245 N   0  0  0  0  0  0  0  0  0  0  0  0
  197.7834  181.4608  156.6425 C   0  0  0  0  0  0  0  0  0  0  0  0
  198.3426  182.6010  156.2053 N   0  0  0  0  0  0  0  0  0  0  0  0
  197.9104  183.7820  156.7001 C   0  0  0  0  0  0  0  0  0  0  0  0
  198.5095  184.9491  156.2193 N   0  0  0  0  0  0  0  0  0  0  0  0
  199.2904  185.8078  157.1180 C   0  0  1  0  0  0  0  0  0  0  0  0
  200.4567  185.1318  157.8127 C   0  0  0  0  0  0  0  0  0  0  0  0
  200.5155  185.0789  159.2239 C   0  0  0  0  0  0  0  0  0  0  0  0
  201.6121  184.4701  159.8624 C   0  0  0  0  0  0  0  0  0  0  0  0
  202.6540  183.9087  159.0874 C   0  0  0  0  0  0  0  0  0  0  0  0
  202.5978  183.9819  157.6797 C   0  0  0  0  0  0  0  0  0  0  0  0
  201.4953  184.5788  157.0439 C   0  0  0  0  0  0  0  0  0  0  0  0
  203.8222  183.2026  159.7565 C   0  0  1  0  0  0  0  0  0  0  0  0
  203.6351  181.7293  159.8511 N   0  0  2  0  0  0  0  0  0  0  0  0
  203.5992  181.0319  158.5398 C   0  0  2  0  0  0  0  0  0  0  0  0
  202.5048  181.3452  160.7213 C   0  0  2  0  0  0  0  0  0  0  0  0
  196.8664  183.8413  157.6420 C   0  0  0  0  0  0  0  0  0  0  0  0
  196.2980  182.5993  158.0374 C   0  0  0  0  0  0  0  0  0  0  0  0
  196.7770  181.4554  157.5134 N   0  0  0  0  0  0  0  0  0  0  0  0
  195.2300  182.5807  158.9512 C   0  0  0  0  0  0  0  0  0  0  0  0
  194.7210  183.7958  159.4670 C   0  0  0  0  0  0  0  0  0  0  0  0
  195.2788  185.0251  159.0682 C   0  0  0  0  0  0  0  0  0  0  0  0
  196.3307  185.0592  158.1380 C   0  0  0  0  0  0  0  0  0  0  0  0
  200.6262  176.0250  153.2309 H   0  0  0  0  0  0  0  0  0  0  0  0
  199.5453  178.2471  153.2028 H   0  0  0  0  0  0  0  0  0  0  0  0
  200.5904  178.7978  157.3647 H   0  0  0  0  0  0  0  0  0  0  0  0
  201.6723  176.5727  157.3760 H   0  0  0  0  0  0  0  0  0  0  0  0
  200.1250  180.7911  155.4509 H   0  0  0  0  0  0  0  0  0  0  0  0
  198.9445  180.2748  154.2679 H   0  0  0  0  0  0  0  0  0  0  0  0
  197.8238  179.4149  156.6232 H   0  0  0  0  0  0  0  0  0  0  0  0
  198.4720  185.1525  155.2345 H   0  0  0  0  0  0  0  0  0  0  0  0
  199.6817  186.6509  156.5403 H   0  0  0  0  0  0  0  0  0  0  0  0
  198.6643  186.2363  157.9084 H   0  0  0  0  0  0  0  0  0  0  0  0
  199.7212  185.5070  159.8174 H   0  0  0  0  0  0  0  0  0  0  0  0
  201.6343  184.4228  160.9435 H   0  0  0  0  0  0  0  0  0  0  0  0
  203.3825  183.5579  157.0701 H   0  0  0  0  0  0  0  0  0  0  0  0
  201.4429  184.6078  155.9635 H   0  0  0  0  0  0  0  0  0  0  0  0
  204.7418  183.4255  159.2057 H   0  0  0  0  0  0  0  0  0  0  0  0
  203.9619  183.6199  160.7532 H   0  0  0  0  0  0  0  0  0  0  0  0
  202.7378  181.3335  157.9446 H   0  0  0  0  0  0  0  0  0  0  0  0
  203.5303  179.9480  158.6662 H   0  0  0  0  0  0  0  0  0  0  0  0
  204.5061  181.2469  157.9735 H   0  0  0  0  0  0  0  0  0  0  0  0
  201.5515  181.6670  160.3038 H   0  0  0  0  0  0  0  0  0  0  0  0
  202.6038  181.7847  161.7158 H   0  0  0  0  0  0  0  0  0  0  0  0
  202.4727  180.2619  160.8349 H   0  0  0  0  0  0  0  0  0  0  0  0
  194.7885  181.6336  159.2314 H   0  0  0  0  0  0  0  0  0  0  0  0
  193.8844  183.8079  160.1475 H   0  0  0  0  0  0  0  0  0  0  0  0
  194.8652  185.9452  159.4488 H   0  0  0  0  0  0  0  0  0  0  0  0
  196.6664  186.0249  157.7903 H   0  0  0  0  0  0  0  0  0  0  0  0
  196.3425  180.5184  157.7555 H   0  0  0  0  0  0  0  0  0  0  0  0
  204.4663  181.3895  160.3146 H   0  0  0  0  0  0  0  0  0  0  0  0
  1  2  3  0
  2  3  1  0
  3  4  1  0
  3  8  2  0
  4  5  2  0
  4 33  1  0
  5  6  1  0
  5 34  1  0
  6  7  2  0
  6  9  1  0
  7  8  1  0
  7 35  1  0
  8 36  1  0
  9 10  1  0
  9 37  1  1
  9 38  1  0
 10 11  1  0
 10 39  1  0
 11 12  1  0
 11 28  2  0
 12 13  2  0
 13 14  1  0
 13 26  1  0
 14 15  1  0
 14 40  1  0
 15 16  1  0
 15 41  1  6
 15 42  1  0
 16 17  1  0
 16 21  2  0
 17 18  2  0
 17 43  1  0
 18 19  1  0
 18 44  1  0
 19 20  2  0
 19 22  1  0
 20 21  1  0
 20 45  1  0
 21 46  1  0
 22 23  1  0
 22 47  1  6
 22 48  1  0
 23 24  1  0
 23 25  1  0
 23 60  1  1
 24 49  1  6
 24 50  1  0
 24 51  1  0
 25 52  1  6
 25 53  1  0
 25 54  1  0
 26 27  1  0
 26 32  2  0
 27 28  1  0
 27 29  2  0
 28 59  1  0
 29 30  1  0
 29 55  1  0
 30 31  2  0
 30 56  1  0
 31 32  1  0
 31 57  1  0
 32 58  1  0
M  CHG  2  23   1  28   1
M  END
>  <s_epik_cmdline>  (904) 
J2VwaWtfcHl0aG9uJywgJy1waCcsICc3LjAwMDAwMCcsICctcGh0JywgJzIuMDAwMDAwJywgJy1tcycsICcxNicsICctdG4nLCAnOCcsICctbWEnLCAnMjAwJywgJy1pbWFlJywgJzxpbmZpbGUubWFlPicsICctb21hZScsICc8b3V0ZmlsZS5tYWU+Jw==

>  <s_epik_input>  (904) 
TiNDYzFbY0hdW2NIXWMoW2NIXVtjSF0xKVtDSDJdW05IXWMobmMoYzIzKVtjSF1bY0hdW2NIXVtjSF0zKW5jMltOSF1bQ0gyXWM0W2NIXVtjSF1jKFtjSF1bY0hdNClbQ0gyXU4oW0NIM10pW0NIM10=

>  <s_i_glide_gridfile>  (904) 
ATP-Grid

>  <s_lp_Force_Field>  (904) 
OPLS_2005

>  <s_lp_Variant>  (904) 
m_282030aaa____21933454____22360182____21945542-1

>  <s_lp_label>  (904) 
1200_sdstereoexpander_1_neutralizer_1_epik_1_stereoizer_1

>  <s_m_source_file>  (904) 
ATP-VSW-LIGPREP-003-in.maegz

>  <s_sd_BIOSOLVEIT.INFINISEE\_QUERY\_NAME>  (904) 
Ref-Lig

>  <s_sd_BIOSOLVEIT.INFINISEE\_QUERY\_SMILES>  (904) 
S(c1nc2c(cc1C[NH2+]Cc3ccc(cc3)C[NH+](C)C)cccc2)Cc4ccccc4

>  <s_sd_BIOSOLVEIT.INFINISEE\_REACTION\_NAME>  (904) 
m_282030aaa

>  <s_sd_BIOSOLVEIT.INFINISEE\_REAGENT1\_SMILES>  (904) 
[R1*]NCc1ccc(C#N)cc1

>  <s_sd_BIOSOLVEIT.INFINISEE\_REAGENT2\_SMILES>  (904) 
[R2*]c1nc([R1*])c2c(n1)cccc2

>  <s_sd_BIOSOLVEIT.INFINISEE\_REAGENT3\_SMILES>  (904) 
[R2*]NCc1ccc(cc1)CN(C)C

>  <s_sd_BIOSOLVEIT.INFINISEE\_SPACE>  (904) 
REALSpace_44bn_2023-08

>  <s_vsw_compound_code>  (904) 
38371

>  <s_vsw_variant>  (904) 
38371-1

>  <r_epik_Charging_Adjusted_Penalty>  (904) 
0.123457744407288

>  <r_epik_Ionization_Penalty>  (904) 
0.058400000000000001

>  <r_epik_Ionization_Penalty_Charging>  (904) 
0.058400000000000001

>  <r_epik_Ionization_Penalty_Neutral>  (904) 
0

>  <r_epik_State_Penalty>  (904) 
0.065000000000000002

>  <r_i_docking_score>  (904) 
-4.2279429402684396

>  <r_i_glide_ecoul>  (904) 
-6.3624572753906197

>  <r_i_glide_eff_state_penalty>  (904) 
0.065000000000000002

>  <r_i_glide_einternal>  (904) 
10.4215965270996

>  <r_i_glide_emodel>  (904) 
-49.8853435225978

>  <r_i_glide_energy>  (904) 
-37.833106994628899

>  <r_i_glide_erotb>  (904) 
0.77013270036504

>  <r_i_glide_esite>  (904) 
-0.241542314303103

>  <r_i_glide_evdw>  (904) 
-31.470649719238299

>  <r_i_glide_gscore>  (904) 
-4.29294294026844

>  <r_i_glide_hbond>  (904) 
-0.28579937870468802

>  <r_i_glide_ligand_efficiency>  (904) 
-0.13212321688338899

>  <r_i_glide_ligand_efficiency_ln>  (904) 
-0.94675167369790003

>  <r_i_glide_ligand_efficiency_sa>  (904) 
-0.41946506645564302

>  <r_i_glide_lipo>  (904) 
-1.19684634234054

>  <r_i_glide_metal>  (904) 
-0

>  <r_i_glide_rewards>  (904) 
-0.81098652801464299

>  <r_lp_Energy>  (904) 
18.550594

>  <r_qp_ACxDN^.5/SA>  (904) 
0.011605300000000001

>  <r_qp_CIQPlogS>  (904) 
-6.423

>  <r_qp_EA(eV)>  (904) 
0.63400000000000001

>  <r_qp_FISA>  (904) 
117.626

>  <r_qp_FOSA>  (904) 
232.09999999999999

>  <r_qp_IP(eV)>  (904) 
8.0960000000000001

>  <r_qp_Jm>  (904) 
6.3436023493397596e-05

>  <r_qp_PISA>  (904) 
442.35700000000003

>  <r_qp_PSA>  (904) 
72.552999999999997

>  <r_qp_PercentHumanOralAbsorption>  (904) 
93.947999999999993

>  <r_qp_QPPCaco>  (904) 
189.386

>  <r_qp_QPPMDCK>  (904) 
90.599999999999994

>  <r_qp_QPlogBB>  (904) 
-0.89900000000000002

>  <r_qp_QPlogHERG>  (904) 
-8.0709999999999997

>  <r_qp_QPlogKhsa>  (904) 
0.751

>  <r_qp_QPlogKp>  (904) 
-3.3279999999999998

>  <r_qp_QPlogPC16>  (904) 
15.992000000000001

>  <r_qp_QPlogPo/w>  (904) 
4.4820000000000002

>  <r_qp_QPlogPoct>  (904) 
22.986999999999998

>  <r_qp_QPlogPw>  (904) 
12.781000000000001

>  <r_qp_QPlogS>  (904) 
-6.4960000000000004

>  <r_qp_QPpolrz>  (904) 
49.097000000000001

>  <r_qp_SASA>  (904) 
792.08299999999997

>  <r_qp_SAamideO>  (904) 
0

>  <r_qp_SAfluorine>  (904) 
0

>  <r_qp_WPSA>  (904) 
0

>  <r_qp_accptHB>  (904) 
6.5

>  <r_qp_dip^2/V>  (904) 
0.0191512

>  <r_qp_dipole>  (904) 
5.2140000000000004

>  <r_qp_donorHB>  (904) 
2

>  <r_qp_glob>  (904) 
0.77114890000000003

>  <r_qp_mol_MW>  (904) 
422.53199999999998

>  <r_qp_volume>  (904) 
1419.4369999999999

>  <r_sd_BIOSOLVEIT.INFINISEE\_FTREES\_SIMILARITY>  (904) 
0.91100000000000003

>  <r_sd_BIOSOLVEIT.LOGP>  (904) 
3.37018

>  <r_sd_BIOSOLVEIT.MOLECULAR\_WEIGHT>  (904) 
423.541

>  <r_sd_BIOSOLVEIT.TPSA>  (904) 
78.069999999999993

>  <i_epik_Tot_Q>  (904) 
2

>  <i_epik_Tot_abs_Q>  (904) 
2

>  <i_f3d_flags>  (904) 
0

>  <i_i_glide_confnum>  (904) 
6

>  <i_i_glide_lignum>  (904) 
496

>  <i_i_glide_posenum>  (904) 
20

>  <i_i_glide_rotatable_bonds>  (904) 
8

>  <i_lp_mmshare_version>  (904) 
65135

>  <i_m_ct_format>  (904) 
2

>  <i_m_source_file_index>  (904) 
1200

>  <i_qp_#NandO>  (904) 
6

>  <i_qp_#acid>  (904) 
0

>  <i_qp_#amide>  (904) 
0

>  <i_qp_#amidine>  (904) 
0

>  <i_qp_#amine>  (904) 
1

>  <i_qp_#in34>  (904) 
0

>  <i_qp_#in56>  (904) 
22

>  <i_qp_#metab>  (904) 
4

>  <i_qp_#nonHatm>  (904) 
32

>  <i_qp_#noncon>  (904) 
0

>  <i_qp_#ringatoms>  (904) 
22

>  <i_qp_#rotor>  (904) 
9

>  <i_qp_#rtvFG>  (904) 
0

>  <i_qp_#stars>  (904) 
0

>  <i_qp_CNS>  (904) 
0

>  <i_qp_HumanOralAbsorption>  (904) 
1

>  <i_qp_RuleOfFive>  (904) 
0

>  <i_qp_RuleOfThree>  (904) 
1

>  <i_sd_BIOSOLVEIT.INFINISEE\_REAGENT1\_NAME>  (904) 
21933454

>  <i_sd_BIOSOLVEIT.INFINISEE\_REAGENT2\_NAME>  (904) 
22360182

>  <i_sd_BIOSOLVEIT.INFINISEE\_REAGENT3\_NAME>  (904) 
21945542

>  <i_sd_BIOSOLVEIT.INFINISEE\_RESULT\_RANK>  (904) 
40155

>  <i_sd_version>  (904) 
0

>  <b_lp_Chiralities_Consistent>  (904) 
1

>  <b_sd_chiral_flag>  (904) 
0

>  <canonical_id>  (904) 
ATP-HTVS-903509DD9171

>  <compound_code>  (904) 
38371

>  <title>  (904) 
m_282030aaa____21933454____22360182____21945542

>  <variant>  (904) 
38371-1

>  <source_file>  (904) 
运行/运行/ATP-VSW/ATP-VSW-DOCK_HTVS_1-003_lib/ATP-VSW-DOCK_HTVS_1-003_lib.mae

>  <canonical_smiles>  (904) 
C[NH+](C)Cc1ccc(CNc2nc(NCc3ccc(C#N)cc3)[nH+]c3ccccc23)cc1

>  <scaffold>  (904) 
c1ccc(CNc2nc(NCc3ccccc3)c3ccccc3[nH+]2)cc1

>  <molecular_formula>  (904) 
C26H28N6+2

$$$$
ATP-HTVS-906C5B8F4575
     RDKit          3D

 60 62  0  0  0  0  0  0  0  0999 V2000
  197.7023  185.8242  159.7759 O   0  0  0  0  0  0  0  0  0  0  0  0
  197.9958  186.0111  158.4400 C   0  0  0  0  0  0  0  0  0  0  0  0
  199.3305  185.7752  158.0399 C   0  0  0  0  0  0  0  0  0  0  0  0
  200.2254  185.3822  159.0157 O   0  0  0  0  0  0  0  0  0  0  0  0
  201.5746  185.1570  158.6364 C   0  0  2  0  0  0  0  0  0  0  0  0
  199.6811  185.9381  156.6747 C   0  0  0  0  0  0  0  0  0  0  0  0
  198.7133  186.3204  155.7313 C   0  0  0  0  0  0  0  0  0  0  0  0
  197.3795  186.5173  156.1231 C   0  0  0  0  0  0  0  0  0  0  0  0
  197.0277  186.3803  157.4713 C   0  0  0  0  0  0  0  0  0  0  0  0
  196.3635  185.9812  160.2332 C   0  0  1  0  0  0  0  0  0  0  0  0
  195.5128  184.8488  159.7131 C   0  0  0  0  0  0  0  0  0  0  0  0
  196.1576  183.8365  159.0690 O   0  0  0  0  0  0  0  0  0  0  0  0
  195.1972  182.9948  158.6116 C   0  0  0  0  0  0  0  0  0  0  0  0
  193.9579  183.4180  158.9738 C   0  0  0  0  0  0  0  0  0  0  0  0
  194.1705  184.5995  159.7217 C   0  0  0  0  0  0  0  0  0  0  0  0
  195.6973  181.8294  157.8485 C   0  0  1  0  0  0  0  0  0  0  0  0
  195.9530  182.2028  156.4556 N   0  0  1  0  0  0  0  0  0  0  0  0
  196.6392  181.1663  155.6655 C   0  0  1  0  0  0  0  0  0  0  0  0
  196.8399  181.5939  154.1795 C   0  0  2  0  0  0  0  0  0  0  0  0
  197.4574  180.4459  153.4132 C   0  0  0  0  0  0  0  0  0  0  0  0
  196.7752  179.9023  152.2583 C   0  0  0  0  0  0  0  0  0  0  0  0
  197.4007  178.9223  151.4926 C   0  0  0  0  0  0  0  0  0  0  0  0
  198.6721  178.4221  151.8385 C   0  0  0  0  0  0  0  0  0  0  0  0
  199.3117  178.8995  153.0015 C   0  0  0  0  0  0  0  0  0  0  0  0
  198.6841  179.8913  153.7760 C   0  0  0  0  0  0  0  0  0  0  0  0
  197.6665  182.9016  154.0202 C   0  0  1  0  0  0  0  0  0  0  0  0
  197.7164  183.4511  152.6508 N   0  0  0  0  0  0  0  0  0  0  0  0
  198.5985  182.7018  151.7448 C   0  0  2  0  0  0  0  0  0  0  0  0
  198.2277  184.8166  152.6841 C   0  0  2  0  0  0  0  0  0  0  0  0
  195.0162  182.3963  156.0577 H   0  0  0  0  0  0  0  0  0  0  0  0
  202.1421  184.8255  159.5059 H   0  0  0  0  0  0  0  0  0  0  0  0
  202.0365  186.0734  158.2658 H   0  0  0  0  0  0  0  0  0  0  0  0
  201.6522  184.3781  157.8759 H   0  0  0  0  0  0  0  0  0  0  0  0
  200.6884  185.7850  156.3217 H   0  0  0  0  0  0  0  0  0  0  0  0
  199.0009  186.4733  154.7056 H   0  0  0  0  0  0  0  0  0  0  0  0
  196.6198  186.7719  155.3950 H   0  0  0  0  0  0  0  0  0  0  0  0
  195.9919  186.5359  157.7216 H   0  0  0  0  0  0  0  0  0  0  0  0
  196.3599  185.9866  161.3185 H   0  0  0  0  0  0  0  0  0  0  0  0
  195.9692  186.9567  159.9482 H   0  0  0  0  0  0  0  0  0  0  0  0
  193.0216  182.9189  158.7686 H   0  0  0  0  0  0  0  0  0  0  0  0
  193.4253  185.2276  160.2046 H   0  0  0  0  0  0  0  0  0  0  0  0
  196.6118  181.4453  158.3018 H   0  0  0  0  0  0  0  0  0  0  0  0
  194.9308  181.0460  157.8722 H   0  0  0  0  0  0  0  0  0  0  0  0
  197.6071  180.9626  156.1289 H   0  0  0  0  0  0  0  0  0  0  0  0
  196.0624  180.2403  155.7111 H   0  0  0  0  0  0  0  0  0  0  0  0
  195.8512  181.8052  153.7788 H   0  0  0  0  0  0  0  0  0  0  0  0
  195.8301  180.3051  151.9677 H   0  0  0  0  0  0  0  0  0  0  0  0
  196.9542  178.6201  150.5500 H   0  0  0  0  0  0  0  0  0  0  0  0
  199.1629  177.6922  151.2192 H   0  0  0  0  0  0  0  0  0  0  0  0
  200.3051  178.5625  153.2487 H   0  0  0  0  0  0  0  0  0  0  0  0
  199.2378  180.3142  154.6092 H   0  0  0  0  0  0  0  0  0  0  0  0
  197.1957  183.6651  154.6417 H   0  0  0  0  0  0  0  0  0  0  0  0
  198.6724  182.7943  154.4328 H   0  0  0  0  0  0  0  0  0  0  0  0
  198.2310  181.7067  151.5518 H   0  0  0  0  0  0  0  0  0  0  0  0
  199.6079  182.6609  152.1917 H   0  0  0  0  0  0  0  0  0  0  0  0
  198.6702  183.2368  150.7652 H   0  0  0  0  0  0  0  0  0  0  0  0
  197.6154  185.4928  153.2889 H   0  0  0  0  0  0  0  0  0  0  0  0
  198.2466  185.2174  151.6737 H   0  0  0  0  0  0  0  0  0  0  0  0
  199.2558  184.8248  153.0524 H   0  0  0  0  0  0  0  0  0  0  0  0
  196.4848  183.0504  156.4402 H   0  0  0  0  0  0  0  0  0  0  0  0
  1  2  1  0
  1 10  1  0
  2  3  1  0
  2  9  2  0
  3  4  1  0
  3  6  2  0
  4  5  1  0
  5 31  1  1
  5 32  1  0
  5 33  1  0
  6  7  1  0
  6 34  1  0
  7  8  2  0
  7 35  1  0
  8  9  1  0
  8 36  1  0
  9 37  1  0
 10 11  1  0
 10 38  1  1
 10 39  1  0
 11 12  1  0
 11 15  2  0
 12 13  1  0
 13 14  2  0
 13 16  1  0
 14 15  1  0
 14 40  1  0
 15 41  1  0
 16 17  1  0
 16 42  1  1
 16 43  1  0
 17 18  1  0
 17 30  1  6
 17 60  1  0
 18 19  1  0
 18 44  1  1
 18 45  1  0
 19 20  1  0
 19 26  1  0
 19 46  1  6
 20 21  2  0
 20 25  1  0
 21 22  1  0
 21 47  1  0
 22 23  2  0
 22 48  1  0
 23 24  1  0
 23 49  1  0
 24 25  2  0
 24 50  1  0
 25 51  1  0
 26 27  1  0
 26 52  1  1
 26 53  1  0
 27 28  1  0
 27 29  1  0
 28 54  1  6
 28 55  1  0
 28 56  1  0
 29 57  1  1
 29 58  1  0
 29 59  1  0
M  CHG  1  17   1
M  END
>  <s_epik_cmdline>  (905) 
J2VwaWtfcHl0aG9uJywgJy1waCcsICc3LjAwMDAwMCcsICctcGh0JywgJzIuMDAwMDAwJywgJy1tcycsICcxNicsICctdG4nLCAnOCcsICctbWEnLCAnMjAwJywgJy1pbWFlJywgJzxpbmZpbGUubWFlPicsICctb21hZScsICc8b3V0ZmlsZS5tYWU+Jw==

>  <s_epik_input>  (905) 
W2NIXTFbY0hdW2NIXVtjSF1jKE9bQ0gzXSljMU9bQ0gyXWMyb2MoW2NIXVtjSF0yKVtDSDJdW05IXVtDSDJdW0NAQEhdKFtDSDJdTihbQ0gzXSlbQ0gzXSljM1tjSF1bY0hdW2NIXVtjSF1bY0hdMw==

>  <s_i_glide_gridfile>  (905) 
ATP-Grid

>  <s_lp_Force_Field>  (905) 
OPLS_2005

>  <s_lp_Variant>  (905) 
m_270004bbb____23846038____24720270-4

>  <s_lp_label>  (905) 
1469_sdstereoexpander_2_neutralizer_1_epik_2_stereoizer_1

>  <s_m_source_file>  (905) 
ATP-VSW-LIGPREP-002-in.maegz

>  <s_sd_BIOSOLVEIT.INFINISEE\_QUERY\_NAME>  (905) 
Ref-Lig

>  <s_sd_BIOSOLVEIT.INFINISEE\_QUERY\_SMILES>  (905) 
S(c1nc2c(cc1C[NH2+]Cc3ccc(cc3)C[NH+](C)C)cccc2)Cc4ccccc4

>  <s_sd_BIOSOLVEIT.INFINISEE\_REACTION\_NAME>  (905) 
m_270004bbb

>  <s_sd_BIOSOLVEIT.INFINISEE\_REAGENT1\_SMILES>  (905) 
[R1*]NCC(c1ccccc1)CN(C)C

>  <s_sd_BIOSOLVEIT.INFINISEE\_REAGENT2\_SMILES>  (905) 
[R1*]CC=1OC(=CC1)COc2c(OC)cccc2

>  <s_sd_BIOSOLVEIT.INFINISEE\_SPACE>  (905) 
REALSpace_44bn_2023-08

>  <s_vsw_compound_code>  (905) 
46978

>  <s_vsw_variant>  (905) 
46978-4

>  <r_epik_Charging_Adjusted_Penalty>  (905) 
1.91888234900354

>  <r_epik_Ionization_Penalty>  (905) 
1.9137999999999999

>  <r_epik_Ionization_Penalty_Charging>  (905) 
0.001

>  <r_epik_Ionization_Penalty_Neutral>  (905) 
1.9127000000000001

>  <r_epik_State_Penalty>  (905) 
1.9177999999999999

>  <r_i_docking_score>  (905) 
-2.6077182427347601

>  <r_i_glide_ecoul>  (905) 
-10.7126979827881

>  <r_i_glide_eff_state_penalty>  (905) 
1.9177999999999999

>  <r_i_glide_einternal>  (905) 
0.36206415295600902

>  <r_i_glide_emodel>  (905) 
-56.481191640455897

>  <r_i_glide_energy>  (905) 
-39.129440307617202

>  <r_i_glide_erotb>  (905) 
1.0000856943254799

>  <r_i_glide_esite>  (905) 
-0.087360754407254201

>  <r_i_glide_evdw>  (905) 
-28.416742324829102

>  <r_i_glide_gscore>  (905) 
-4.5255182427347602

>  <r_i_glide_hbond>  (905) 
-0.19399965070783501

>  <r_i_glide_ligand_efficiency>  (905) 
-0.089921318714991594

>  <r_i_glide_ligand_efficiency_ln>  (905) 
-0.59710135155713395

>  <r_i_glide_ligand_efficiency_sa>  (905) 
-0.276266780165838

>  <r_i_glide_lipo>  (905) 
-1.5041008546491199

>  <r_i_glide_metal>  (905) 
-0

>  <r_i_glide_rewards>  (905) 
-0.71240086363636201

>  <r_lp_Energy>  (905) 
24.644269000000001

>  <r_lp_tautomer_probability>  (905) 
1

>  <r_qp_ACxDN^.5/SA>  (905) 
0.0077267999999999998

>  <r_qp_CIQPlogS>  (905) 
-3.9590000000000001

>  <r_qp_EA(eV)>  (905) 
-0.26200000000000001

>  <r_qp_FISA>  (905) 
7.3499999999999996

>  <r_qp_FOSA>  (905) 
324.48899999999998

>  <r_qp_IP(eV)>  (905) 
8.6199999999999992

>  <r_qp_Jm>  (905) 
0.175140186011841

>  <r_qp_PISA>  (905) 
379.97000000000003

>  <r_qp_PSA>  (905) 
39.240000000000002

>  <r_qp_PercentHumanOralAbsorption>  (905) 
100

>  <r_qp_QPPCaco>  (905) 
524.81100000000004

>  <r_qp_QPPMDCK>  (905) 
301.62400000000002

>  <r_qp_QPlogBB>  (905) 
0.625

>  <r_qp_QPlogHERG>  (905) 
-7.6529999999999996

>  <r_qp_QPlogKhsa>  (905) 
0.70399999999999996

>  <r_qp_QPlogKp>  (905) 
-3.3860000000000001

>  <r_qp_QPlogPC16>  (905) 
13.558999999999999

>  <r_qp_QPlogPo/w>  (905) 
4.7050000000000001

>  <r_qp_QPlogPoct>  (905) 
18.396999999999998

>  <r_qp_QPlogPw>  (905) 
8.5220000000000002

>  <r_qp_QPlogS>  (905) 
-2.9670000000000001

>  <r_qp_QPpolrz>  (905) 
43.811999999999998

>  <r_qp_SASA>  (905) 
711.80899999999997

>  <r_qp_SAamideO>  (905) 
0

>  <r_qp_SAfluorine>  (905) 
0

>  <r_qp_WPSA>  (905) 
0

>  <r_qp_accptHB>  (905) 
5.5

>  <r_qp_dip^2/V>  (905) 
0.0012681000000000001

>  <r_qp_dipole>  (905) 
1.3009999999999999

>  <r_qp_donorHB>  (905) 
1

>  <r_qp_glob>  (905) 
0.82346909999999995

>  <r_qp_mol_MW>  (905) 
394.51299999999998

>  <r_qp_volume>  (905) 
1334.347

>  <r_sd_BIOSOLVEIT.INFINISEE\_FTREES\_SIMILARITY>  (905) 
0.90700000000000003

>  <r_sd_BIOSOLVEIT.LOGP>  (905) 
1.8589

>  <r_sd_BIOSOLVEIT.MOLECULAR\_WEIGHT>  (905) 
396.52800000000002

>  <r_sd_BIOSOLVEIT.TPSA>  (905) 
52.649999999999999

>  <i_epik_Tot_Q>  (905) 
1

>  <i_epik_Tot_abs_Q>  (905) 
1

>  <i_f3d_flags>  (905) 
0

>  <i_i_glide_confnum>  (905) 
6

>  <i_i_glide_lignum>  (905) 
503

>  <i_i_glide_posenum>  (905) 
4

>  <i_i_glide_rotatable_bonds>  (905) 
11

>  <i_lp_mmshare_version>  (905) 
65135

>  <i_m_ct_format>  (905) 
2

>  <i_m_source_file_index>  (905) 
1469

>  <i_qp_#NandO>  (905) 
5

>  <i_qp_#acid>  (905) 
0

>  <i_qp_#amide>  (905) 
0

>  <i_qp_#amidine>  (905) 
0

>  <i_qp_#amine>  (905) 
2

>  <i_qp_#in34>  (905) 
0

>  <i_qp_#in56>  (905) 
17

>  <i_qp_#metab>  (905) 
9

>  <i_qp_#nonHatm>  (905) 
29

>  <i_qp_#noncon>  (905) 
0

>  <i_qp_#ringatoms>  (905) 
17

>  <i_qp_#rotor>  (905) 
11

>  <i_qp_#rtvFG>  (905) 
0

>  <i_qp_#stars>  (905) 
1

>  <i_qp_CNS>  (905) 
2

>  <i_qp_HumanOralAbsorption>  (905) 
3

>  <i_qp_RuleOfFive>  (905) 
0

>  <i_qp_RuleOfThree>  (905) 
1

>  <i_sd_BIOSOLVEIT.INFINISEE\_REAGENT1\_NAME>  (905) 
23846038

>  <i_sd_BIOSOLVEIT.INFINISEE\_REAGENT2\_NAME>  (905) 
24720270

>  <i_sd_BIOSOLVEIT.INFINISEE\_RESULT\_RANK>  (905) 
57292

>  <i_sd_version>  (905) 
0

>  <b_lp_Chiralities_Consistent>  (905) 
1

>  <b_sd_chiral_flag>  (905) 
0

>  <canonical_id>  (905) 
ATP-HTVS-906C5B8F4575

>  <compound_code>  (905) 
46978

>  <title>  (905) 
m_270004bbb____23846038____24720270

>  <variant>  (905) 
46978-4

>  <source_file>  (905) 
运行/运行/ATP-VSW/ATP-VSW-DOCK_HTVS_1-002_lib.maegz

>  <canonical_smiles>  (905) 
COc1ccccc1OCc1ccc(C[NH2+]C[C@@H](CN(C)C)c2ccccc2)o1

>  <scaffold>  (905) 
c1ccc(CC[NH2+]Cc2ccc(COc3ccccc3)o2)cc1

>  <molecular_formula>  (905) 
C24H31N2O3+

$$$$
ATP-HTVS-9071C340676C
     RDKit          3D

 66 69  0  0  0  0  0  0  0  0999 V2000
  200.6016  182.3972  155.6136 O   0  0  0  0  0  0  0  0  0  0  0  0
  199.3626  182.3295  155.6439 C   0  0  0  0  0  0  0  0  0  0  0  0
  198.6305  181.4173  154.9936 N   0  0  0  0  0  0  0  0  0  0  0  0
  199.1164  180.2774  154.2856 C   0  0  0  0  0  0  0  0  0  0  0  0
  200.2740  179.6037  154.6731 C   0  0  0  0  0  0  0  0  0  0  0  0
  200.6562  178.3887  154.0561 C   0  0  0  0  0  0  0  0  0  0  0  0
  199.9333  177.9320  152.9288 C   0  0  0  0  0  0  0  0  0  0  0  0
  198.7947  178.6559  152.4864 C   0  0  0  0  0  0  0  0  0  0  0  0
  198.3501  179.7938  153.1945 C   0  0  0  0  0  0  0  0  0  0  0  0
  201.8345  177.5830  154.5901 C   0  0  1  0  0  0  0  0  0  0  0  0
  201.6558  176.9733  155.9512 N   0  0  2  0  0  0  0  0  0  0  0  0
  201.3494  175.5147  155.9039 C   0  0  1  0  0  0  0  0  0  0  0  0
  202.5074  174.6637  155.3398 C   0  0  2  0  0  0  0  0  0  0  0  0
  200.7013  177.7308  156.8183 C   0  0  1  0  0  0  0  0  0  0  0  0
  200.9244  177.5168  158.3069 C   0  0  2  0  0  0  0  0  0  0  0  0
  198.5857  183.3840  156.4238 C   0  0  1  0  0  0  0  0  0  0  0  0
  198.9504  183.3731  157.9185 C   0  0  1  0  0  0  0  0  0  0  0  0
  198.0586  184.2037  158.7492 N   0  0  0  0  0  0  0  0  0  0  0  0
  196.7058  183.7701  158.8196 C   0  0  0  0  0  0  0  0  0  0  0  0
  195.7107  184.6832  159.2641 C   0  0  0  0  0  0  0  0  0  0  0  0
  194.3531  184.2993  159.3085 C   0  0  0  0  0  0  0  0  0  0  0  0
  193.9700  183.0150  158.9019 C   0  0  0  0  0  0  0  0  0  0  0  0
  194.9385  182.0924  158.4842 C   0  0  0  0  0  0  0  0  0  0  0  0
  196.2928  182.4625  158.4493 C   0  0  0  0  0  0  0  0  0  0  0  0
  196.0875  186.0534  159.6888 C   0  0  0  0  0  0  0  0  0  0  0  0
  195.2621  186.9018  160.0258 O   0  0  0  0  0  0  0  0  0  0  0  0
  197.5245  186.3406  159.7079 C   0  0  0  0  0  0  0  0  0  0  0  0
  198.4437  185.4418  159.2928 C   0  0  0  0  0  0  0  0  0  0  0  0
  199.8686  185.8360  159.3339 C   0  0  0  0  0  0  0  0  0  0  0  0
  200.8470  184.9460  159.8271 C   0  0  0  0  0  0  0  0  0  0  0  0
  202.2024  185.3194  159.8541 C   0  0  0  0  0  0  0  0  0  0  0  0
  202.5835  186.6069  159.4269 C   0  0  0  0  0  0  0  0  0  0  0  0
  201.6079  187.5166  158.9751 C   0  0  0  0  0  0  0  0  0  0  0  0
  200.2555  187.1336  158.9260 C   0  0  0  0  0  0  0  0  0  0  0  0
  197.6263  181.5784  154.9849 H   0  0  0  0  0  0  0  0  0  0  0  0
  200.8539  179.9935  155.4947 H   0  0  0  0  0  0  0  0  0  0  0  0
  200.2498  177.0470  152.3784 H   0  0  0  0  0  0  0  0  0  0  0  0
  198.2621  178.3386  151.6001 H   0  0  0  0  0  0  0  0  0  0  0  0
  197.4730  180.3493  152.8689 H   0  0  0  0  0  0  0  0  0  0  0  0
  202.0588  176.8343  153.8341 H   0  0  0  0  0  0  0  0  0  0  0  0
  202.7127  178.2224  154.5816 H   0  0  0  0  0  0  0  0  0  0  0  0
  201.1533  175.1599  156.9173 H   0  0  0  0  0  0  0  0  0  0  0  0
  200.4254  175.3591  155.3383 H   0  0  0  0  0  0  0  0  0  0  0  0
  202.2454  173.6058  155.3815 H   0  0  0  0  0  0  0  0  0  0  0  0
  203.4156  174.8313  155.9218 H   0  0  0  0  0  0  0  0  0  0  0  0
  202.7261  174.8880  154.2965 H   0  0  0  0  0  0  0  0  0  0  0  0
  200.9367  178.7557  156.7934 H   0  0  0  0  0  0  0  0  0  0  0  0
  199.6600  177.5168  156.5295 H   0  0  0  0  0  0  0  0  0  0  0  0
  200.2551  178.2059  158.8351 H   0  0  0  0  0  0  0  0  0  0  0  0
  201.9448  177.8379  158.5471 H   0  0  0  0  0  0  0  0  0  0  0  0
  200.7574  176.4888  158.6771 H   0  0  0  0  0  0  0  0  0  0  0  0
  198.7764  184.3679  155.9954 H   0  0  0  0  0  0  0  0  0  0  0  0
  197.5248  183.1910  156.2809 H   0  0  0  0  0  0  0  0  0  0  0  0
  198.9920  182.3605  158.3161 H   0  0  0  0  0  0  0  0  0  0  0  0
  199.9832  183.7058  157.9570 H   0  0  0  0  0  0  0  0  0  0  0  0
  193.5918  184.9950  159.6329 H   0  0  0  0  0  0  0  0  0  0  0  0
  192.9309  182.7330  158.9123 H   0  0  0  0  0  0  0  0  0  0  0  0
  194.6425  181.1008  158.1728 H   0  0  0  0  0  0  0  0  0  0  0  0
  196.9877  181.7144  158.1044 H   0  0  0  0  0  0  0  0  0  0  0  0
  197.8197  187.3058  160.0909 H   0  0  0  0  0  0  0  0  0  0  0  0
  200.5652  183.9541  160.1509 H   0  0  0  0  0  0  0  0  0  0  0  0
  202.9494  184.6127  160.1880 H   0  0  0  0  0  0  0  0  0  0  0  0
  203.6226  186.8979  159.4531 H   0  0  0  0  0  0  0  0  0  0  0  0
  201.8954  188.5096  158.6617 H   0  0  0  0  0  0  0  0  0  0  0  0
  199.5193  187.8401  158.5742 H   0  0  0  0  0  0  0  0  0  0  0  0
  202.5691  177.0549  156.3985 H   0  0  0  0  0  0  0  0  0  0  0  0
  1  2  2  0
  2  3  1  0
  2 16  1  0
  3  4  1  0
  3 35  1  0
  4  5  2  0
  4  9  1  0
  5  6  1  0
  5 36  1  0
  6  7  2  0
  6 10  1  0
  7  8  1  0
  7 37  1  0
  8  9  2  0
  8 38  1  0
  9 39  1  0
 10 11  1  0
 10 40  1  6
 10 41  1  0
 11 12  1  0
 11 14  1  0
 11 66  1  1
 12 13  1  0
 12 42  1  1
 12 43  1  0
 13 44  1  6
 13 45  1  0
 13 46  1  0
 14 15  1  0
 14 47  1  1
 14 48  1  0
 15 49  1  1
 15 50  1  0
 15 51  1  0
 16 17  1  0
 16 52  1  6
 16 53  1  0
 17 18  1  0
 17 54  1  1
 17 55  1  0
 18 19  1  0
 18 28  1  0
 19 20  1  0
 19 24  2  0
 20 21  2  0
 20 25  1  0
 21 22  1  0
 21 56  1  0
 22 23  2  0
 22 57  1  0
 23 24  1  0
 23 58  1  0
 24 59  1  0
 25 26  2  0
 25 27  1  0
 27 28  2  0
 27 60  1  0
 28 29  1  0
 29 30  2  0
 29 34  1  0
 30 31  1  0
 30 61  1  0
 31 32  2  0
 31 62  1  0
 32 33  1  0
 32 63  1  0
 33 34  2  0
 33 64  1  0
 34 65  1  0
M  CHG  1  11   1
M  END
>  <s_epik_cmdline>  (906) 
J2VwaWtfcHl0aG9uJywgJy1waCcsICc3LjAwMDAwMCcsICctcGh0JywgJzIuMDAwMDAwJywgJy1tcycsICcxNicsICctdG4nLCAnOCcsICctbWEnLCAnMjAwJywgJy1pbWFlJywgJzxpbmZpbGUubWFlPicsICctb21hZScsICc8b3V0ZmlsZS5tYWU+Jw==

>  <s_epik_input>  (906) 
W0NIM11bQ0gyXU4oW0NIMl1bQ0gzXSlbQ0gyXWMoW2NIXVtjSF1bY0hdMSlbY0hdYzFbTkhdQyg9TylbQ0gyXVtDSDJdbjJjKC1jM1tjSF1bY0hdW2NIXVtjSF1bY0hdMylbY0hdYyg9TyljKGMyNClbY0hdW2NIXVtjSF1bY0hdNA==

>  <s_i_glide_gridfile>  (906) 
ATP-Grid

>  <s_lp_Force_Field>  (906) 
OPLS_2005

>  <s_lp_Variant>  (906) 
rxn512b____EMOL331034537____EMOL477682____EMOL2739194-1

>  <s_lp_label>  (906) 
2873_sdstereoexpander_1_neutralizer_1_epik_1_stereoizer_1

>  <s_m_source_file>  (906) 
ATP-VSW-LIGPREP-003-in.maegz

>  <s_sd_BIOSOLVEIT.INFINISEE\_QUERY\_NAME>  (906) 
Ref-Lig

>  <s_sd_BIOSOLVEIT.INFINISEE\_QUERY\_SMILES>  (906) 
S(c1nc2c(cc1C[NH2+]Cc3ccc(cc3)C[NH+](C)C)cccc2)Cc4ccccc4

>  <s_sd_BIOSOLVEIT.INFINISEE\_REACTION\_NAME>  (906) 
rxn512b

>  <s_sd_BIOSOLVEIT.INFINISEE\_REAGENT1\_NAME>  (906) 
EMOL331034537

>  <s_sd_BIOSOLVEIT.INFINISEE\_REAGENT1\_SMILES>  (906) 
N(Cc1cc(N)ccc1)(CC)CC

>  <s_sd_BIOSOLVEIT.INFINISEE\_REAGENT2\_NAME>  (906) 
EMOL477682

>  <s_sd_BIOSOLVEIT.INFINISEE\_REAGENT2\_SMILES>  (906) 
BrCCC(=O)O

>  <s_sd_BIOSOLVEIT.INFINISEE\_REAGENT3\_NAME>  (906) 
EMOL2739194

>  <s_sd_BIOSOLVEIT.INFINISEE\_REAGENT3\_SMILES>  (906) 
O=C1c2c(NC(c3ccccc3)=C1)cccc2

>  <s_sd_BIOSOLVEIT.INFINISEE\_SPACE>  (906) 
eXplore_7tr_2022-12

>  <s_vsw_compound_code>  (906) 
91907

>  <s_vsw_variant>  (906) 
91907-1

>  <r_epik_Charging_Adjusted_Penalty>  (906) 
0.0389026359941805

>  <r_epik_Ionization_Penalty>  (906) 
0.0195

>  <r_epik_Ionization_Penalty_Charging>  (906) 
0.0195

>  <r_epik_Ionization_Penalty_Neutral>  (906) 
0

>  <r_epik_State_Penalty>  (906) 
0.019400000000000001

>  <r_i_docking_score>  (906) 
-4.4993105710441004

>  <r_i_glide_ecoul>  (906) 
-7.4460253715515101

>  <r_i_glide_eff_state_penalty>  (906) 
0.019400000000000001

>  <r_i_glide_einternal>  (906) 
9.4108161926269496

>  <r_i_glide_emodel>  (906) 
-52.211623342240401

>  <r_i_glide_energy>  (906) 
-42.038486003875697

>  <r_i_glide_erotb>  (906) 
0.77745603914811301

>  <r_i_glide_esite>  (906) 
-0.0092665517670010005

>  <r_i_glide_evdw>  (906) 
-34.592460632324197

>  <r_i_glide_gscore>  (906) 
-4.5187105710440996

>  <r_i_glide_hbond>  (906) 
-0.0113594568220616

>  <r_i_glide_ligand_efficiency>  (906) 
-0.132332663854238

>  <r_i_glide_ligand_efficiency_ln>  (906) 
-0.99402390653043304

>  <r_i_glide_ligand_efficiency_sa>  (906) 
-0.42870645901275201

>  <r_i_glide_lipo>  (906) 
-1.7990854342975799

>  <r_i_glide_metal>  (906) 
-0

>  <r_i_glide_rewards>  (906) 
-0.62992832995663395

>  <r_lp_Energy>  (906) 
26.487879

>  <r_qp_ACxDN^.5/SA>  (906) 
0.0098905999999999994

>  <r_qp_CIQPlogS>  (906) 
-5.9020000000000001

>  <r_qp_EA(eV)>  (906) 
0.624

>  <r_qp_FISA>  (906) 
68.876000000000005

>  <r_qp_FOSA>  (906) 
269.24099999999999

>  <r_qp_IP(eV)>  (906) 
8.6080000000000005

>  <r_qp_Jm>  (906) 
0.12743739021567199

>  <r_qp_PISA>  (906) 
369.62200000000001

>  <r_qp_PSA>  (906) 
64.869

>  <r_qp_PercentHumanOralAbsorption>  (906) 
100

>  <r_qp_QPPCaco>  (906) 
549.09299999999996

>  <r_qp_QPPMDCK>  (906) 
286.298

>  <r_qp_QPlogBB>  (906) 
-0.19900000000000001

>  <r_qp_QPlogHERG>  (906) 
-6.266

>  <r_qp_QPlogKhsa>  (906) 
0.71599999999999997

>  <r_qp_QPlogKp>  (906) 
-2.6850000000000001

>  <r_qp_QPlogPC16>  (906) 
14.574999999999999

>  <r_qp_QPlogPo/w>  (906) 
4.6859999999999999

>  <r_qp_QPlogPoct>  (906) 
21.497

>  <r_qp_QPlogPw>  (906) 
10.779

>  <r_qp_QPlogS>  (906) 
-3.8660000000000001

>  <r_qp_QPpolrz>  (906) 
48.228000000000002

>  <r_qp_SASA>  (906) 
707.73900000000003

>  <r_qp_SAamideO>  (906) 
0

>  <r_qp_SAfluorine>  (906) 
0

>  <r_qp_WPSA>  (906) 
0

>  <r_qp_accptHB>  (906) 
7

>  <r_qp_dip^2/V>  (906) 
0.015398200000000001

>  <r_qp_dipole>  (906) 
4.6680000000000001

>  <r_qp_donorHB>  (906) 
1

>  <r_qp_glob>  (906) 
0.86127540000000002

>  <r_qp_mol_MW>  (906) 
453.58300000000003

>  <r_qp_volume>  (906) 
1415.0619999999999

>  <r_sd_BIOSOLVEIT.INFINISEE\_FTREES\_SIMILARITY>  (906) 
0.90500000000000003

>  <r_sd_BIOSOLVEIT.LOGP>  (906) 
4.1839000000000004

>  <r_sd_BIOSOLVEIT.MOLECULAR\_WEIGHT>  (906) 
454.59100000000001

>  <r_sd_BIOSOLVEIT.TPSA>  (906) 
53.850000000000001

>  <i_epik_Tot_Q>  (906) 
1

>  <i_epik_Tot_abs_Q>  (906) 
1

>  <i_f3d_flags>  (906) 
0

>  <i_i_glide_confnum>  (906) 
9

>  <i_i_glide_lignum>  (906) 
1398

>  <i_i_glide_posenum>  (906) 
18

>  <i_i_glide_rotatable_bonds>  (906) 
10

>  <i_lp_mmshare_version>  (906) 
65135

>  <i_m_ct_format>  (906) 
2

>  <i_m_source_file_index>  (906) 
2873

>  <i_qp_#NandO>  (906) 
5

>  <i_qp_#acid>  (906) 
0

>  <i_qp_#amide>  (906) 
0

>  <i_qp_#amidine>  (906) 
0

>  <i_qp_#amine>  (906) 
1

>  <i_qp_#in34>  (906) 
0

>  <i_qp_#in56>  (906) 
22

>  <i_qp_#metab>  (906) 
6

>  <i_qp_#nonHatm>  (906) 
34

>  <i_qp_#noncon>  (906) 
0

>  <i_qp_#ringatoms>  (906) 
22

>  <i_qp_#rotor>  (906) 
9

>  <i_qp_#rtvFG>  (906) 
0

>  <i_qp_#stars>  (906) 
0

>  <i_qp_CNS>  (906) 
1

>  <i_qp_HumanOralAbsorption>  (906) 
3

>  <i_qp_RuleOfFive>  (906) 
0

>  <i_qp_RuleOfThree>  (906) 
0

>  <i_sd_BIOSOLVEIT.INFINISEE\_RESULT\_RANK>  (906) 
71725

>  <i_sd_version>  (906) 
0

>  <b_lp_Chiralities_Consistent>  (906) 
1

>  <b_sd_chiral_flag>  (906) 
0

>  <canonical_id>  (906) 
ATP-HTVS-9071C340676C

>  <compound_code>  (906) 
91907

>  <title>  (906) 
rxn512b____EMOL331034537____EMOL477682____EMOL2739194

>  <variant>  (906) 
91907-1

>  <source_file>  (906) 
运行/运行/ATP-VSW/ATP-VSW-DOCK_HTVS_1-003_lib/ATP-VSW-DOCK_HTVS_1-003_lib.mae

>  <canonical_smiles>  (906) 
CC[NH+](CC)Cc1cccc(NC(=O)CCn2c(-c3ccccc3)cc(=O)c3ccccc32)c1

>  <scaffold>  (906) 
O=C(CCn1c(-c2ccccc2)cc(=O)c2ccccc21)Nc1ccccc1

>  <molecular_formula>  (906) 
C29H32N3O2+

$$$$
ATP-HTVS-90D8E935D6BA
     RDKit          3D

 60 63  0  0  0  0  0  0  0  0999 V2000
  197.8988  184.4836  155.8454 S   0  0  0  0  0  0  0  0  0  0  0  0
  199.5998  184.6767  155.3938 C   0  0  0  0  0  0  0  0  0  0  0  0
  200.3042  183.4219  155.4573 C   0  0  0  0  0  0  0  0  0  0  0  0
  201.6805  183.4625  155.0556 C   0  0  0  0  0  0  0  0  0  0  0  0
  202.3103  184.6633  154.6316 C   0  0  0  0  0  0  0  0  0  0  0  0
  201.6045  185.8759  154.6274 C   0  0  0  0  0  0  0  0  0  0  0  0
  202.2054  187.0099  154.2015 F   0  0  0  0  0  0  0  0  0  0  0  0
  200.2553  185.8885  155.0187 C   0  0  0  0  0  0  0  0  0  0  0  0
  199.4134  182.3563  155.9413 C   0  0  0  0  0  0  0  0  0  0  0  0
  199.8004  180.9995  156.1254 N   0  0  0  0  0  0  0  0  0  0  0  0
  201.1543  180.4686  156.2623 C   0  0  1  0  0  0  0  0  0  0  0  0
  201.2043  178.9825  155.9953 C   0  0  0  0  0  0  0  0  0  0  0  0
  201.4093  178.5393  154.6720 C   0  0  0  0  0  0  0  0  0  0  0  0
  201.4591  177.1672  154.3854 C   0  0  0  0  0  0  0  0  0  0  0  0
  201.3328  176.2210  155.4276 C   0  0  0  0  0  0  0  0  0  0  0  0
  201.1177  176.6699  156.7515 C   0  0  0  0  0  0  0  0  0  0  0  0
  201.0561  178.0499  157.0339 C   0  0  0  0  0  0  0  0  0  0  0  0
  201.4275  174.7358  155.1223 C   0  0  1  0  0  0  0  0  0  0  0  0
  202.8267  174.2349  155.0459 N   0  0  1  0  0  0  0  0  0  0  0  0
  202.8775  172.7611  154.9112 C   0  0  2  0  0  0  0  0  0  0  0  0
  203.6472  174.8888  153.9958 C   0  0  2  0  0  0  0  0  0  0  0  0
  198.1626  182.8282  156.2427 C   0  0  0  0  0  0  0  0  0  0  0  0
  196.9721  182.1217  156.8026 C   0  0  0  0  0  0  0  0  0  0  0  0
  196.4473  181.2548  156.1277 O   0  0  0  0  0  0  0  0  0  0  0  0
  196.5513  182.4559  158.0656 N   0  0  0  0  0  0  0  0  0  0  0  0
  196.8208  183.7242  158.6586 C   0  0  0  0  0  0  0  0  0  0  0  0
  195.8025  184.5853  159.1244 C   0  0  0  0  0  0  0  0  0  0  0  0
  194.3904  184.1829  159.0277 C   0  0  0  0  0  0  0  0  0  0  0  0
  193.2789  183.8725  158.9401 N   0  0  0  0  0  0  0  0  0  0  0  0
  196.1101  185.8566  159.6655 C   0  0  0  0  0  0  0  0  0  0  0  0
  197.4466  186.2737  159.7593 C   0  0  0  0  0  0  0  0  0  0  0  0
  198.4816  185.3860  159.3255 C   0  0  0  0  0  0  0  0  0  0  0  0
  198.1890  184.1602  158.8014 C   0  0  0  0  0  0  0  0  0  0  0  0
  195.7304  181.4692  158.8338 C   0  0  2  0  0  0  0  0  0  0  0  0
  202.2883  182.5743  155.0296 H   0  0  0  0  0  0  0  0  0  0  0  0
  203.3360  184.6284  154.2754 H   0  0  0  0  0  0  0  0  0  0  0  0
  199.7048  186.8174  155.0207 H   0  0  0  0  0  0  0  0  0  0  0  0
  199.0579  180.3384  156.3078 H   0  0  0  0  0  0  0  0  0  0  0  0
  201.8356  180.9049  155.5332 H   0  0  0  0  0  0  0  0  0  0  0  0
  201.5522  180.6768  157.2611 H   0  0  0  0  0  0  0  0  0  0  0  0
  201.5461  179.2559  153.8738 H   0  0  0  0  0  0  0  0  0  0  0  0
  201.6163  176.8478  153.3639 H   0  0  0  0  0  0  0  0  0  0  0  0
  201.0337  175.9575  157.5652 H   0  0  0  0  0  0  0  0  0  0  0  0
  200.9125  178.3833  158.0501 H   0  0  0  0  0  0  0  0  0  0  0  0
  200.9032  174.2124  155.9205 H   0  0  0  0  0  0  0  0  0  0  0  0
  200.8870  174.5197  154.2000 H   0  0  0  0  0  0  0  0  0  0  0  0
  202.4116  172.4337  153.9826 H   0  0  0  0  0  0  0  0  0  0  0  0
  202.3565  172.2641  155.7306 H   0  0  0  0  0  0  0  0  0  0  0  0
  203.9058  172.4004  154.9209 H   0  0  0  0  0  0  0  0  0  0  0  0
  203.1952  174.7512  153.0119 H   0  0  0  0  0  0  0  0  0  0  0  0
  204.6572  174.4733  153.9670 H   0  0  0  0  0  0  0  0  0  0  0  0
  203.7643  175.9559  154.1779 H   0  0  0  0  0  0  0  0  0  0  0  0
  195.3337  186.5268  159.9852 H   0  0  0  0  0  0  0  0  0  0  0  0
  197.7032  187.2555  160.1341 H   0  0  0  0  0  0  0  0  0  0  0  0
  199.5233  185.7199  159.3962 H   0  0  0  0  0  0  0  0  0  0  0  0
  198.9973  183.4590  158.5703 H   0  0  0  0  0  0  0  0  0  0  0  0
  195.2450  181.9133  159.7039 H   0  0  0  0  0  0  0  0  0  0  0  0
  196.3748  180.7045  159.2542 H   0  0  0  0  0  0  0  0  0  0  0  0
  194.9501  181.0580  158.2296 H   0  0  0  0  0  0  0  0  0  0  0  0
  203.2519  174.4604  155.9348 H   0  0  0  0  0  0  0  0  0  0  0  0
  1  2  1  0
  1 22  1  0
  2  3  1  0
  2  8  2  0
  3  4  2  0
  3  9  1  0
  4  5  1  0
  4 35  1  0
  5  6  2  0
  5 36  1  0
  6  7  1  0
  6  8  1  0
  8 37  1  0
  9 10  1  0
  9 22  2  0
 10 11  1  0
 10 38  1  0
 11 12  1  0
 11 39  1  6
 11 40  1  0
 12 13  1  0
 12 17  2  0
 13 14  2  0
 13 41  1  0
 14 15  1  0
 14 42  1  0
 15 16  2  0
 15 18  1  0
 16 17  1  0
 16 43  1  0
 17 44  1  0
 18 19  1  0
 18 45  1  1
 18 46  1  0
 19 20  1  0
 19 21  1  0
 19 60  1  1
 20 47  1  6
 20 48  1  0
 20 49  1  0
 21 50  1  6
 21 51  1  0
 21 52  1  0
 22 23  1  0
 23 24  2  0
 23 25  1  0
 25 26  1  0
 25 34  1  0
 26 27  1  0
 26 33  2  0
 27 28  1  0
 27 30  2  0
 28 29  3  0
 30 31  1  0
 30 53  1  0
 31 32  2  0
 31 54  1  0
 32 33  1  0
 32 55  1  0
 33 56  1  0
 34 57  1  1
 34 58  1  0
 34 59  1  0
M  CHG  1  19   1
M  END
>  <s_epik_cmdline>  (907) 
J2VwaWtfcHl0aG9uJywgJy1waCcsICc3LjAwMDAwMCcsICctcGh0JywgJzIuMDAwMDAwJywgJy1tcycsICcxNicsICctdG4nLCAnOCcsICctbWEnLCAnMjAwJywgJy1pbWFlJywgJzxpbmZpbGUubWFlPicsICctb21hZScsICc8b3V0ZmlsZS5tYWU+Jw==

>  <s_epik_input>  (907) 
W2NIXTFbY0hdW2NIXVtjSF1jKEMjTiljMU4oW0NIM10pQyg9TyljKHMyKWMoYyhjMjMpW2NIXVtjSF1jKEYpW2NIXTMpW05IXVtDSDJdYzRbY0hdW2NIXWMoW2NIXVtjSF00KVtDSDJdTihbQ0gzXSlbQ0gzXQ==

>  <s_i_glide_gridfile>  (907) 
ATP-Grid

>  <s_lp_Force_Field>  (907) 
OPLS_2005

>  <s_lp_Variant>  (907) 
rxn512c____EMOL35875322____EMOL526741____EMOL50155899-1

>  <s_lp_label>  (907) 
2205_sdstereoexpander_1_neutralizer_1_epik_1_stereoizer_1

>  <s_m_source_file>  (907) 
ATP-VSW-LIGPREP-003-in.maegz

>  <s_sd_BIOSOLVEIT.INFINISEE\_QUERY\_NAME>  (907) 
Ref-Lig

>  <s_sd_BIOSOLVEIT.INFINISEE\_QUERY\_SMILES>  (907) 
S(c1nc2c(cc1C[NH2+]Cc3ccc(cc3)C[NH+](C)C)cccc2)Cc4ccccc4

>  <s_sd_BIOSOLVEIT.INFINISEE\_REACTION\_NAME>  (907) 
rxn512c

>  <s_sd_BIOSOLVEIT.INFINISEE\_REAGENT1\_NAME>  (907) 
EMOL35875322

>  <s_sd_BIOSOLVEIT.INFINISEE\_REAGENT1\_SMILES>  (907) 
N#Cc1c(NC)cccc1

>  <s_sd_BIOSOLVEIT.INFINISEE\_REAGENT2\_NAME>  (907) 
EMOL526741

>  <s_sd_BIOSOLVEIT.INFINISEE\_REAGENT2\_SMILES>  (907) 
ClC=1c2c(SC1C(=O)O)cc(F)cc2

>  <s_sd_BIOSOLVEIT.INFINISEE\_REAGENT3\_NAME>  (907) 
EMOL50155899

>  <s_sd_BIOSOLVEIT.INFINISEE\_REAGENT3\_SMILES>  (907) 
N(Cc1ccc(cc1)CN)(C)C

>  <s_sd_BIOSOLVEIT.INFINISEE\_SPACE>  (907) 
eXplore_7tr_2022-12

>  <s_vsw_compound_code>  (907) 
70531

>  <s_vsw_variant>  (907) 
70531-1

>  <r_epik_Charging_Adjusted_Penalty>  (907) 
0.080189274810459593

>  <r_epik_Ionization_Penalty>  (907) 
0.040099999999999997

>  <r_epik_Ionization_Penalty_Charging>  (907) 
0.040099999999999997

>  <r_epik_Ionization_Penalty_Neutral>  (907) 
0

>  <r_epik_State_Penalty>  (907) 
0.040099999999999997

>  <r_i_docking_score>  (907) 
-3.6158663481654898

>  <r_i_glide_ecoul>  (907) 
-2.2573878765106201

>  <r_i_glide_eff_state_penalty>  (907) 
0.040099999999999997

>  <r_i_glide_einternal>  (907) 
7.60974216461182

>  <r_i_glide_emodel>  (907) 
-43.986507902907299

>  <r_i_glide_energy>  (907) 
-36.833956480026202

>  <r_i_glide_erotb>  (907) 
0.63134511107277802

>  <r_i_glide_esite>  (907) 
-0.123728765736937

>  <r_i_glide_evdw>  (907) 
-34.576568603515597

>  <r_i_glide_gscore>  (907) 
-3.65596634816549

>  <r_i_glide_hbond>  (907) 
0

>  <r_i_glide_ligand_efficiency>  (907) 
-0.106349010240161

>  <r_i_glide_ligand_efficiency_ln>  (907) 
-0.79884629792544404

>  <r_i_glide_ligand_efficiency_sa>  (907) 
-0.34452950822322898

>  <r_i_glide_lipo>  (907) 
-1.6027638178418799

>  <r_i_glide_metal>  (907) 
-0

>  <r_i_glide_rewards>  (907) 
-0.49338226400708002

>  <r_lp_Energy>  (907) 
52.119101999999998

>  <r_qp_ACxDN^.5/SA>  (907) 
0

>  <r_qp_CIQPlogS>  (907) 
-6.2569999999999997

>  <r_qp_EA(eV)>  (907) 
0.88800000000000001

>  <r_qp_FISA>  (907) 
99.403000000000006

>  <r_qp_FOSA>  (907) 
243.09200000000001

>  <r_qp_IP(eV)>  (907) 
8.1560000000000006

>  <r_qp_Jm>  (907) 
4.9914754897377597e-06

>  <r_qp_PISA>  (907) 
375.27800000000002

>  <r_qp_PSA>  (907) 
66.637

>  <r_qp_PercentHumanOralAbsorption>  (907) 
87.915000000000006

>  <r_qp_QPPCaco>  (907) 
70.316999999999993

>  <r_qp_QPPMDCK>  (907) 
96.843999999999994

>  <r_qp_QPlogBB>  (907) 
0.001

>  <r_qp_QPlogHERG>  (907) 
-8.2759999999999998

>  <r_qp_QPlogKhsa>  (907) 
0.82299999999999995

>  <r_qp_QPlogKp>  (907) 
-5.3869999999999996

>  <r_qp_QPlogPC16>  (907) 
15.327

>  <r_qp_QPlogPo/w>  (907) 
4.7670000000000003

>  <r_qp_QPlogPoct>  (907) 
22.234000000000002

>  <r_qp_QPlogPw>  (907) 
9.5399999999999991

>  <r_qp_QPlogS>  (907) 
-5.5899999999999999

>  <r_qp_QPpolrz>  (907) 
51.343000000000004

>  <r_qp_SASA>  (907) 
799.94799999999998

>  <r_qp_SAamideO>  (907) 
0

>  <r_qp_SAfluorine>  (907) 
47.098999999999997

>  <r_qp_WPSA>  (907) 
82.174999999999997

>  <r_qp_accptHB>  (907) 
6.5

>  <r_qp_dip^2/V>  (907) 
0.095310199999999998

>  <r_qp_dipole>  (907) 
11.859

>  <r_qp_donorHB>  (907) 
0

>  <r_qp_glob>  (907) 
0.78354780000000002

>  <r_qp_mol_MW>  (907) 
472.57900000000001

>  <r_qp_volume>  (907) 
1475.5139999999999

>  <r_sd_BIOSOLVEIT.INFINISEE\_FTREES\_SIMILARITY>  (907) 
0.93100000000000005

>  <r_sd_BIOSOLVEIT.LOGP>  (907) 
4.4452800000000003

>  <r_sd_BIOSOLVEIT.MOLECULAR\_WEIGHT>  (907) 
473.59199999999998

>  <r_sd_BIOSOLVEIT.TPSA>  (907) 
60.57

>  <i_epik_Tot_Q>  (907) 
1

>  <i_epik_Tot_abs_Q>  (907) 
1

>  <i_f3d_flags>  (907) 
0

>  <i_i_glide_confnum>  (907) 
1

>  <i_i_glide_lignum>  (907) 
859

>  <i_i_glide_posenum>  (907) 
2

>  <i_i_glide_rotatable_bonds>  (907) 
8

>  <i_lp_mmshare_version>  (907) 
65135

>  <i_m_ct_format>  (907) 
2

>  <i_m_source_file_index>  (907) 
2205

>  <i_qp_#NandO>  (907) 
5

>  <i_qp_#acid>  (907) 
0

>  <i_qp_#amide>  (907) 
0

>  <i_qp_#amidine>  (907) 
0

>  <i_qp_#amine>  (907) 
2

>  <i_qp_#in34>  (907) 
0

>  <i_qp_#in56>  (907) 
21

>  <i_qp_#metab>  (907) 
6

>  <i_qp_#nonHatm>  (907) 
34

>  <i_qp_#noncon>  (907) 
0

>  <i_qp_#ringatoms>  (907) 
21

>  <i_qp_#rotor>  (907) 
8

>  <i_qp_#rtvFG>  (907) 
0

>  <i_qp_#stars>  (907) 
0

>  <i_qp_CNS>  (907) 
1

>  <i_qp_HumanOralAbsorption>  (907) 
3

>  <i_qp_RuleOfFive>  (907) 
0

>  <i_qp_RuleOfThree>  (907) 
0

>  <i_sd_BIOSOLVEIT.INFINISEE\_RESULT\_RANK>  (907) 
4132

>  <i_sd_version>  (907) 
0

>  <b_lp_Chiralities_Consistent>  (907) 
1

>  <b_sd_chiral_flag>  (907) 
0

>  <canonical_id>  (907) 
ATP-HTVS-90D8E935D6BA

>  <compound_code>  (907) 
70531

>  <title>  (907) 
rxn512c____EMOL35875322____EMOL526741____EMOL50155899

>  <variant>  (907) 
70531-1

>  <source_file>  (907) 
运行/运行/ATP-VSW/ATP-VSW-DOCK_HTVS_1-003_lib/ATP-VSW-DOCK_HTVS_1-003_lib.mae

>  <canonical_smiles>  (907) 
CN(C(=O)c1sc2cc(F)ccc2c1NCc1ccc(C[NH+](C)C)cc1)c1ccccc1C#N

>  <scaffold>  (907) 
O=C(Nc1ccccc1)c1sc2ccccc2c1NCc1ccccc1

>  <molecular_formula>  (907) 
C27H26FN4OS+

$$$$
ATP-HTVS-90E2293F5662
     RDKit          3D

 57 59  0  0  0  0  0  0  0  0999 V2000
  202.7449  174.3059  155.7404 Cl  0  0  0  0  0  0  0  0  0  0  0  0
  201.9484  175.6050  154.9044 C   0  0  0  0  0  0  0  0  0  0  0  0
  202.3954  176.0446  153.6339 C   0  0  0  0  0  0  0  0  0  0  0  0
  201.7185  177.0996  152.9503 C   0  0  0  0  0  0  0  0  0  0  0  0
  200.5549  177.7100  153.5179 C   0  0  0  0  0  0  0  0  0  0  0  0
  200.1191  177.2088  154.7753 C   0  0  0  0  0  0  0  0  0  0  0  0
  200.8231  176.2064  155.4719 C   0  0  0  0  0  0  0  0  0  0  0  0
  199.8452  178.8053  152.7980 C   0  0  0  0  0  0  0  0  0  0  0  0
  200.1455  179.0204  151.5148 N   0  0  0  0  0  0  0  0  0  0  0  0
  199.3486  180.0218  151.0759 N   0  0  0  0  0  0  0  0  0  0  0  0
  198.5838  180.5007  152.1138 C   0  0  0  0  0  0  0  0  0  0  0  0
  198.8177  179.7453  153.2256 C   0  0  0  0  0  0  0  0  0  0  0  0
  198.1080  179.9686  154.5543 C   0  0  1  0  0  0  0  0  0  0  0  0
  198.7486  181.0711  155.3023 N   0  0  1  0  0  0  0  0  0  0  0  0
  198.4626  181.0088  156.7494 C   0  0  1  0  0  0  0  0  0  0  0  0
  198.7956  182.3465  157.3910 C   0  0  0  0  0  0  0  0  0  0  0  0
  197.8116  183.3213  157.6985 C   0  0  0  0  0  0  0  0  0  0  0  0
  198.2234  184.5286  158.3221 C   0  0  0  0  0  0  0  0  0  0  0  0
  199.5789  184.7647  158.6253 C   0  0  0  0  0  0  0  0  0  0  0  0
  200.5491  183.8012  158.3029 C   0  0  0  0  0  0  0  0  0  0  0  0
  200.1556  182.6034  157.6861 C   0  0  0  0  0  0  0  0  0  0  0  0
  196.3269  183.1443  157.3774 C   0  0  1  0  0  0  0  0  0  0  0  0
  195.5190  182.9501  158.6100 N   0  0  1  0  0  0  0  0  0  0  0  0
  194.2380  183.6896  158.5757 C   0  0  2  0  0  0  0  0  0  0  0  0
  195.3162  181.5225  158.9177 C   0  0  2  0  0  0  0  0  0  0  0  0
  199.4354  180.4990  149.6956 C   0  0  1  0  0  0  0  0  0  0  0  0
  199.4446  179.3537  148.6673 C   0  0  1  0  0  0  0  0  0  0  0  0
  198.1232  178.7288  148.5142 C   0  0  0  0  0  0  0  0  0  0  0  0
  197.0796  178.2440  148.3932 N   0  0  0  0  0  0  0  0  0  0  0  0
  199.7504  181.0102  155.2066 H   0  0  0  0  0  0  0  0  0  0  0  0
  203.2704  175.5569  153.1845 H   0  0  0  0  0  0  0  0  0  0  0  0
  202.1135  177.3969  151.9864 H   0  0  0  0  0  0  0  0  0  0  0  0
  199.2245  177.4714  155.3244 H   0  0  0  0  0  0  0  0  0  0  0  0
  200.4230  175.9106  156.4211 H   0  0  0  0  0  0  0  0  0  0  0  0
  197.9284  181.3596  151.9469 H   0  0  0  0  0  0  0  0  0  0  0  0
  197.0517  180.1908  154.3757 H   0  0  0  0  0  0  0  0  0  0  0  0
  198.0702  179.1184  155.2625 H   0  0  0  0  0  0  0  0  0  0  0  0
  197.4404  180.6722  156.9165 H   0  0  0  0  0  0  0  0  0  0  0  0
  199.0583  180.2294  157.2343 H   0  0  0  0  0  0  0  0  0  0  0  0
  197.5036  185.2962  158.5687 H   0  0  0  0  0  0  0  0  0  0  0  0
  199.8866  185.6860  159.1023 H   0  0  0  0  0  0  0  0  0  0  0  0
  201.5898  183.9709  158.5368 H   0  0  0  0  0  0  0  0  0  0  0  0
  200.9099  181.8603  157.4617 H   0  0  0  0  0  0  0  0  0  0  0  0
  196.0570  184.0679  156.8759 H   0  0  0  0  0  0  0  0  0  0  0  0
  196.0661  182.3935  156.6222 H   0  0  0  0  0  0  0  0  0  0  0  0
  193.6097  183.3596  157.7480 H   0  0  0  0  0  0  0  0  0  0  0  0
  194.4168  184.7581  158.4723 H   0  0  0  0  0  0  0  0  0  0  0  0
  193.6808  183.5472  159.5015 H   0  0  0  0  0  0  0  0  0  0  0  0
  194.7416  181.0494  158.1174 H   0  0  0  0  0  0  0  0  0  0  0  0
  194.7533  181.3698  159.8366 H   0  0  0  0  0  0  0  0  0  0  0  0
  196.2844  181.0334  159.0248 H   0  0  0  0  0  0  0  0  0  0  0  0
  198.5916  181.1652  149.4972 H   0  0  0  0  0  0  0  0  0  0  0  0
  200.3402  181.1047  149.6066 H   0  0  0  0  0  0  0  0  0  0  0  0
  199.7225  179.7466  147.6931 H   0  0  0  0  0  0  0  0  0  0  0  0
  200.1786  178.5835  148.9123 H   0  0  0  0  0  0  0  0  0  0  0  0
  196.0571  183.3345  159.3752 H   0  0  0  0  0  0  0  0  0  0  0  0
  198.4554  181.9603  154.9302 H   0  0  0  0  0  0  0  0  0  0  0  0
  1  2  1  0
  2  3  1  0
  2  7  2  0
  3  4  2  0
  3 31  1  0
  4  5  1  0
  4 32  1  0
  5  6  2  0
  5  8  1  0
  6  7  1  0
  6 33  1  0
  7 34  1  0
  8  9  2  0
  8 12  1  0
  9 10  1  0
 10 11  1  0
 10 26  1  0
 11 12  2  0
 11 35  1  0
 12 13  1  0
 13 14  1  0
 13 36  1  6
 13 37  1  0
 14 15  1  0
 14 30  1  1
 14 57  1  0
 15 16  1  0
 15 38  1  6
 15 39  1  0
 16 17  1  0
 16 21  2  0
 17 18  2  0
 17 22  1  0
 18 19  1  0
 18 40  1  0
 19 20  2  0
 19 41  1  0
 20 21  1  0
 20 42  1  0
 21 43  1  0
 22 23  1  0
 22 44  1  6
 22 45  1  0
 23 24  1  0
 23 25  1  0
 23 56  1  1
 24 46  1  6
 24 47  1  0
 24 48  1  0
 25 49  1  6
 25 50  1  0
 25 51  1  0
 26 27  1  0
 26 52  1  6
 26 53  1  0
 27 28  1  0
 27 54  1  6
 27 55  1  0
 28 29  3  0
M  CHG  2  14   1  23   1
M  END
>  <s_epik_cmdline>  (908) 
J2VwaWtfcHl0aG9uJywgJy1waCcsICc3LjAwMDAwMCcsICctcGh0JywgJzIuMDAwMDAwJywgJy1tcycsICcxNicsICctdG4nLCAnOCcsICctbWEnLCAnMjAwJywgJy1pbWFlJywgJzxpbmZpbGUubWFlPicsICctb21hZScsICc8b3V0ZmlsZS5tYWU+Jw==

>  <s_epik_input>  (908) 
Q2xjMVtjSF1bY0hdYyhbY0hdW2NIXTEpLWMybm4oW0NIMl1bQ0gyXUMjTilbY0hdYzJbQ0gyXVtOSF1bQ0gyXWMzYyhbQ0gyXU4oW0NIM10pW0NIM10pW2NIXVtjSF1bY0hdW2NIXTM=

>  <s_i_glide_gridfile>  (908) 
ATP-Grid

>  <s_lp_Force_Field>  (908) 
OPLS_2005

>  <s_lp_Variant>  (908) 
m_270004bbb____8353320____24714838-1

>  <s_lp_label>  (908) 
863_sdstereoexpander_1_neutralizer_1_epik_1_stereoizer_1

>  <s_m_source_file>  (908) 
ATP-VSW-LIGPREP-003-in.maegz

>  <s_sd_BIOSOLVEIT.INFINISEE\_QUERY\_NAME>  (908) 
Ref-Lig

>  <s_sd_BIOSOLVEIT.INFINISEE\_QUERY\_SMILES>  (908) 
S(c1nc2c(cc1C[NH2+]Cc3ccc(cc3)C[NH+](C)C)cccc2)Cc4ccccc4

>  <s_sd_BIOSOLVEIT.INFINISEE\_REACTION\_NAME>  (908) 
m_270004bbb

>  <s_sd_BIOSOLVEIT.INFINISEE\_REAGENT1\_SMILES>  (908) 
[R1*]NCc1c(cccc1)CN(C)C

>  <s_sd_BIOSOLVEIT.INFINISEE\_REAGENT2\_SMILES>  (908) 
[R1*]CC=1C(=NN(C1)CCC#N)c2ccc(Cl)cc2

>  <s_sd_BIOSOLVEIT.INFINISEE\_SPACE>  (908) 
REALSpace_44bn_2023-08

>  <s_vsw_compound_code>  (908) 
27587

>  <s_vsw_variant>  (908) 
27587-1

>  <r_epik_Charging_Adjusted_Penalty>  (908) 
0.36989903753536102

>  <r_epik_Ionization_Penalty>  (908) 
0.1865

>  <r_epik_Ionization_Penalty_Charging>  (908) 
0.1865

>  <r_epik_Ionization_Penalty_Neutral>  (908) 
0

>  <r_epik_State_Penalty>  (908) 
0.18340000000000001

>  <r_i_docking_score>  (908) 
-3.7690407018657099

>  <r_i_glide_ecoul>  (908) 
-10.856346130371101

>  <r_i_glide_eff_state_penalty>  (908) 
0.18340000000000001

>  <r_i_glide_einternal>  (908) 
5.9664549827575701

>  <r_i_glide_emodel>  (908) 
-48.7697230915227

>  <r_i_glide_energy>  (908) 
-36.456521987915004

>  <r_i_glide_erotb>  (908) 
0.820345516058265

>  <r_i_glide_esite>  (908) 
-0.0445644886452616

>  <r_i_glide_evdw>  (908) 
-25.600175857543899

>  <r_i_glide_gscore>  (908) 
-3.9524407018657102

>  <r_i_glide_hbond>  (908) 
0

>  <r_i_glide_ligand_efficiency>  (908) 
-0.12996692075399

>  <r_i_glide_ligand_efficiency_ln>  (908) 
-0.86301474610145201

>  <r_i_glide_ligand_efficiency_sa>  (908) 
-0.39929955696687602

>  <r_i_glide_lipo>  (908) 
-0.68085151276897105

>  <r_i_glide_metal>  (908) 
-0

>  <r_i_glide_rewards>  (908) 
-1.13890950407688

>  <r_lp_Energy>  (908) 
20.226680000000002

>  <r_lp_tautomer_probability>  (908) 
1

>  <r_qp_ACxDN^.5/SA>  (908) 
0.0094187999999999997

>  <r_qp_CIQPlogS>  (908) 
-4.8289999999999997

>  <r_qp_EA(eV)>  (908) 
0.45000000000000001

>  <r_qp_FISA>  (908) 
88.825999999999993

>  <r_qp_FOSA>  (908) 
229.756

>  <r_qp_IP(eV)>  (908) 
9.1630000000000003

>  <r_qp_Jm>  (908) 
0.00025699173572957598

>  <r_qp_PISA>  (908) 
299.887

>  <r_qp_PSA>  (908) 
56.965000000000003

>  <r_qp_PercentHumanOralAbsorption>  (908) 
83.572000000000003

>  <r_qp_QPPCaco>  (908) 
88.584999999999994

>  <r_qp_QPPMDCK>  (908) 
108.842

>  <r_qp_QPlogBB>  (908) 
0.14899999999999999

>  <r_qp_QPlogHERG>  (908) 
-7.0529999999999999

>  <r_qp_QPlogKhsa>  (908) 
0.51000000000000001

>  <r_qp_QPlogKp>  (908) 
-5.3609999999999998

>  <r_qp_QPlogPC16>  (908) 
13.792999999999999

>  <r_qp_QPlogPo/w>  (908) 
3.718

>  <r_qp_QPlogPoct>  (908) 
19.548999999999999

>  <r_qp_QPlogPw>  (908) 
9.9309999999999992

>  <r_qp_QPlogS>  (908) 
-3.839

>  <r_qp_QPpolrz>  (908) 
43.165999999999997

>  <r_qp_SASA>  (908) 
690.11199999999997

>  <r_qp_SAamideO>  (908) 
0

>  <r_qp_SAfluorine>  (908) 
0

>  <r_qp_WPSA>  (908) 
71.644000000000005

>  <r_qp_accptHB>  (908) 
6.5

>  <r_qp_dip^2/V>  (908) 
0.0082796999999999992

>  <r_qp_dipole>  (908) 
3.2869999999999999

>  <r_qp_donorHB>  (908) 
1

>  <r_qp_glob>  (908) 
0.83695079999999999

>  <r_qp_mol_MW>  (908) 
407.94499999999999

>  <r_qp_volume>  (908) 
1305.2139999999999

>  <r_sd_BIOSOLVEIT.INFINISEE\_FTREES\_SIMILARITY>  (908) 
0.92000000000000004

>  <r_sd_BIOSOLVEIT.LOGP>  (908) 
2.02528

>  <r_sd_BIOSOLVEIT.MOLECULAR\_WEIGHT>  (908) 
409.96199999999999

>  <r_sd_BIOSOLVEIT.TPSA>  (908) 
62.659999999999997

>  <i_epik_Tot_Q>  (908) 
2

>  <i_epik_Tot_abs_Q>  (908) 
2

>  <i_f3d_flags>  (908) 
0

>  <i_i_glide_confnum>  (908) 
6

>  <i_i_glide_lignum>  (908) 
334

>  <i_i_glide_posenum>  (908) 
20

>  <i_i_glide_rotatable_bonds>  (908) 
9

>  <i_lp_mmshare_version>  (908) 
65135

>  <i_m_ct_format>  (908) 
2

>  <i_m_source_file_index>  (908) 
863

>  <i_qp_#NandO>  (908) 
5

>  <i_qp_#acid>  (908) 
0

>  <i_qp_#amide>  (908) 
0

>  <i_qp_#amidine>  (908) 
0

>  <i_qp_#amine>  (908) 
2

>  <i_qp_#in34>  (908) 
0

>  <i_qp_#in56>  (908) 
17

>  <i_qp_#metab>  (908) 
6

>  <i_qp_#nonHatm>  (908) 
29

>  <i_qp_#noncon>  (908) 
0

>  <i_qp_#ringatoms>  (908) 
17

>  <i_qp_#rotor>  (908) 
9

>  <i_qp_#rtvFG>  (908) 
0

>  <i_qp_#stars>  (908) 
0

>  <i_qp_CNS>  (908) 
1

>  <i_qp_HumanOralAbsorption>  (908) 
3

>  <i_qp_RuleOfFive>  (908) 
0

>  <i_qp_RuleOfThree>  (908) 
0

>  <i_sd_BIOSOLVEIT.INFINISEE\_REAGENT1\_NAME>  (908) 
8353320

>  <i_sd_BIOSOLVEIT.INFINISEE\_REAGENT2\_NAME>  (908) 
24714838

>  <i_sd_BIOSOLVEIT.INFINISEE\_RESULT\_RANK>  (908) 
15971

>  <i_sd_version>  (908) 
0

>  <b_lp_Chiralities_Consistent>  (908) 
1

>  <b_sd_chiral_flag>  (908) 
0

>  <canonical_id>  (908) 
ATP-HTVS-90E2293F5662

>  <compound_code>  (908) 
27587

>  <title>  (908) 
m_270004bbb____8353320____24714838

>  <variant>  (908) 
27587-1

>  <source_file>  (908) 
运行/运行/ATP-VSW/ATP-VSW-DOCK_HTVS_1-003_lib/ATP-VSW-DOCK_HTVS_1-003_lib.mae

>  <canonical_smiles>  (908) 
C[NH+](C)Cc1ccccc1C[NH2+]Cc1cn(CCC#N)nc1-c1ccc(Cl)cc1

>  <scaffold>  (908) 
c1ccc(C[NH2+]Cc2c[nH]nc2-c2ccccc2)cc1

>  <molecular_formula>  (908) 
C23H28ClN5+2

$$$$
ATP-HTVS-90F616328265
     RDKit          3D

 53 55  0  0  0  0  0  0  0  0999 V2000
  197.4055  179.6324  154.1667 O   0  0  0  0  0  0  0  0  0  0  0  0
  198.1326  180.5387  154.5807 C   0  0  0  0  0  0  0  0  0  0  0  0
  199.2489  180.3411  155.3595 N   0  0  0  0  0  0  0  0  0  0  0  0
  199.7242  179.0014  155.6260 C   0  0  0  0  0  0  0  0  0  0  0  0
  200.1632  178.6567  156.9268 C   0  0  0  0  0  0  0  0  0  0  0  0
  200.7014  177.3894  157.1970 C   0  0  0  0  0  0  0  0  0  0  0  0
  200.7939  176.4254  156.1792 C   0  0  0  0  0  0  0  0  0  0  0  0
  200.3551  176.7428  154.8801 C   0  0  0  0  0  0  0  0  0  0  0  0
  199.8302  178.0203  154.5984 C   0  0  0  0  0  0  0  0  0  0  0  0
  200.0834  181.4483  155.9087 C   0  0  1  0  0  0  0  0  0  0  0  0
  200.7642  182.2550  154.8702 C   0  0  0  0  0  0  0  0  0  0  0  0
  201.2891  182.8784  154.0444 N   0  0  0  0  0  0  0  0  0  0  0  0
  197.8006  181.9365  154.1335 C   0  0  0  0  0  0  0  0  0  0  0  0
  197.3686  182.9590  155.0009 C   0  0  0  0  0  0  0  0  0  0  0  0
  197.1778  182.6756  156.3734 N   0  0  0  0  0  0  0  0  0  0  0  0
  197.2277  183.5340  157.4650 C   0  0  0  0  0  0  0  0  0  0  0  0
  196.5114  183.2009  158.6439 C   0  0  0  0  0  0  0  0  0  0  0  0
  196.5972  184.0412  159.7649 C   0  0  0  0  0  0  0  0  0  0  0  0
  197.3728  185.2067  159.7369 C   0  0  0  0  0  0  0  0  0  0  0  0
  198.1283  185.5086  158.5930 C   0  0  0  0  0  0  0  0  0  0  0  0
  198.0620  184.6783  157.4631 C   0  0  0  0  0  0  0  0  0  0  0  0
  195.6077  181.9681  158.7102 C   0  0  1  0  0  0  0  0  0  0  0  0
  194.2559  182.2680  158.1848 N   0  0  1  0  0  0  0  0  0  0  0  0
  193.3419  181.1091  158.2890 C   0  0  2  0  0  0  0  0  0  0  0  0
  193.6373  183.5303  158.6520 C   0  0  2  0  0  0  0  0  0  0  0  0
  197.1439  184.2499  154.4610 C   0  0  0  0  0  0  0  0  0  0  0  0
  197.3241  184.5646  153.1586 N   0  0  0  0  0  0  0  0  0  0  0  0
  197.6913  183.5708  152.3319 C   0  0  0  0  0  0  0  0  0  0  0  0
  197.9382  182.2527  152.7613 C   0  0  0  0  0  0  0  0  0  0  0  0
  200.0966  179.3678  157.7315 H   0  0  0  0  0  0  0  0  0  0  0  0
  201.0275  177.1550  158.1997 H   0  0  0  0  0  0  0  0  0  0  0  0
  201.1763  175.4385  156.4062 H   0  0  0  0  0  0  0  0  0  0  0  0
  200.4285  175.9986  154.0933 H   0  0  0  0  0  0  0  0  0  0  0  0
  199.5443  178.2349  153.5784 H   0  0  0  0  0  0  0  0  0  0  0  0
  199.4885  182.1314  156.5348 H   0  0  0  0  0  0  0  0  0  0  0  0
  200.9125  181.0914  156.5454 H   0  0  0  0  0  0  0  0  0  0  0  0
  197.0393  181.7143  156.5993 H   0  0  0  0  0  0  0  0  0  0  0  0
  196.0142  183.8252  160.6563 H   0  0  0  0  0  0  0  0  0  0  0  0
  197.3622  185.9005  160.5583 H   0  0  0  0  0  0  0  0  0  0  0  0
  198.7627  186.3835  158.5732 H   0  0  0  0  0  0  0  0  0  0  0  0
  198.6919  184.8808  156.6094 H   0  0  0  0  0  0  0  0  0  0  0  0
  196.0524  181.1447  158.1481 H   0  0  0  0  0  0  0  0  0  0  0  0
  195.5643  181.6023  159.7445 H   0  0  0  0  0  0  0  0  0  0  0  0
  193.1851  180.8367  159.3329 H   0  0  0  0  0  0  0  0  0  0  0  0
  193.7388  180.2482  157.7576 H   0  0  0  0  0  0  0  0  0  0  0  0
  192.3822  181.3439  157.8266 H   0  0  0  0  0  0  0  0  0  0  0  0
  193.5398  183.4956  159.7340 H   0  0  0  0  0  0  0  0  0  0  0  0
  192.6512  183.6514  158.2057 H   0  0  0  0  0  0  0  0  0  0  0  0
  194.2157  184.4163  158.3805 H   0  0  0  0  0  0  0  0  0  0  0  0
  196.7728  185.0530  155.0855 H   0  0  0  0  0  0  0  0  0  0  0  0
  197.8042  183.8364  151.2954 H   0  0  0  0  0  0  0  0  0  0  0  0
  198.2714  181.5045  152.0537 H   0  0  0  0  0  0  0  0  0  0  0  0
  194.3433  182.4152  157.1651 H   0  0  0  0  0  0  0  0  0  0  0  0
  1  2  2  0
  2  3  1  0
  2 13  1  0
  3  4  1  0
  3 10  1  0
  4  5  2  0
  4  9  1  0
  5  6  1  0
  5 30  1  0
  6  7  2  0
  6 31  1  0
  7  8  1  0
  7 32  1  0
  8  9  2  0
  8 33  1  0
  9 34  1  0
 10 11  1  0
 10 35  1  1
 10 36  1  0
 11 12  3  0
 13 14  1  0
 13 29  2  0
 14 15  1  0
 14 26  2  0
 15 16  1  0
 15 37  1  0
 16 17  1  0
 16 21  2  0
 17 18  2  0
 17 22  1  0
 18 19  1  0
 18 38  1  0
 19 20  2  0
 19 39  1  0
 20 21  1  0
 20 40  1  0
 21 41  1  0
 22 23  1  0
 22 42  1  6
 22 43  1  0
 23 24  1  0
 23 25  1  0
 23 53  1  6
 24 44  1  1
 24 45  1  0
 24 46  1  0
 25 47  1  1
 25 48  1  0
 25 49  1  0
 26 27  1  0
 26 50  1  0
 27 28  2  0
 28 29  1  0
 28 51  1  0
 29 52  1  0
M  CHG  1  23   1
M  END
>  <s_epik_cmdline>  (909) 
J2VwaWtfcHl0aG9uJywgJy1waCcsICc3LjAwMDAwMCcsICctcGh0JywgJzIuMDAwMDAwJywgJy1tcycsICcxNicsICctdG4nLCAnOCcsICctbWEnLCAnMjAwJywgJy1pbWFlJywgJzxpbmZpbGUubWFlPicsICctb21hZScsICc8b3V0ZmlsZS5tYWU+Jw==

>  <s_epik_input>  (909) 
W2NIXTFbY0hdW2NIXVtjSF1bY0hdYzFOKFtDSDJdQyNOKUMoPU8pYzJjKFtjSF1uW2NIXVtjSF0yKVtOSF1jM2MoW0NIMl1OKFtDSDNdKVtDSDNdKVtjSF1bY0hdW2NIXVtjSF0z

>  <s_i_glide_gridfile>  (909) 
ATP-Grid

>  <s_lp_Force_Field>  (909) 
OPLS_2005

>  <s_lp_Variant>  (909) 
rxn514b____EMOL712348____EMOL17240199____EMOL975590-1

>  <s_lp_label>  (909) 
3100_sdstereoexpander_1_neutralizer_1_epik_1_stereoizer_1

>  <s_m_source_file>  (909) 
ATP-VSW-LIGPREP-001-in.maegz

>  <s_sd_BIOSOLVEIT.INFINISEE\_QUERY\_NAME>  (909) 
Ref-Lig

>  <s_sd_BIOSOLVEIT.INFINISEE\_QUERY\_SMILES>  (909) 
S(c1nc2c(cc1C[NH2+]Cc3ccc(cc3)C[NH+](C)C)cccc2)Cc4ccccc4

>  <s_sd_BIOSOLVEIT.INFINISEE\_REACTION\_NAME>  (909) 
rxn514b

>  <s_sd_BIOSOLVEIT.INFINISEE\_REAGENT1\_NAME>  (909) 
EMOL712348

>  <s_sd_BIOSOLVEIT.INFINISEE\_REAGENT1\_SMILES>  (909) 
N#CCNc1ccccc1

>  <s_sd_BIOSOLVEIT.INFINISEE\_REAGENT2\_NAME>  (909) 
EMOL17240199

>  <s_sd_BIOSOLVEIT.INFINISEE\_REAGENT2\_SMILES>  (909) 
O=C(OC(C)(C)C)Nc1c(ccnc1)C(=O)O

>  <s_sd_BIOSOLVEIT.INFINISEE\_REAGENT3\_NAME>  (909) 
EMOL975590

>  <s_sd_BIOSOLVEIT.INFINISEE\_REAGENT3\_SMILES>  (909) 
Brc1c(cccc1)CN(C)C

>  <s_sd_BIOSOLVEIT.INFINISEE\_SPACE>  (909) 
eXplore_7tr_2022-12

>  <s_vsw_compound_code>  (909) 
99169

>  <s_vsw_variant>  (909) 
99169-1

>  <r_epik_Charging_Adjusted_Penalty>  (909) 
0.074139713783215794

>  <r_epik_Ionization_Penalty>  (909) 
0.0373

>  <r_epik_Ionization_Penalty_Charging>  (909) 
0.037100000000000001

>  <r_epik_Ionization_Penalty_Neutral>  (909) 
0.00020000000000000001

>  <r_epik_State_Penalty>  (909) 
0.037100000000000001

>  <r_i_docking_score>  (909) 
-3.9155175669743598

>  <r_i_glide_ecoul>  (909) 
-7.4983901977539098

>  <r_i_glide_eff_state_penalty>  (909) 
0.037100000000000001

>  <r_i_glide_einternal>  (909) 
9.59924221038818

>  <r_i_glide_emodel>  (909) 
-51.421516899207397

>  <r_i_glide_energy>  (909) 
-41.531223297119098

>  <r_i_glide_erotb>  (909) 
0.78189128380002404

>  <r_i_glide_esite>  (909) 
-0.173749482100094

>  <r_i_glide_evdw>  (909) 
-34.032833099365199

>  <r_i_glide_gscore>  (909) 
-3.95261756697436

>  <r_i_glide_hbond>  (909) 
-0.20000000000000001

>  <r_i_glide_ligand_efficiency>  (909) 
-0.13501784713704701

>  <r_i_glide_ligand_efficiency_ln>  (909) 
-0.89655423387851696

>  <r_i_glide_ligand_efficiency_sa>  (909) 
-0.41481760306142501

>  <r_i_glide_lipo>  (909) 
-0.760288002224766

>  <r_i_glide_metal>  (909) 
-0

>  <r_i_glide_rewards>  (909) 
-0.77407118181818102

>  <r_lp_Energy>  (909) 
40.996060999999997

>  <r_lp_tautomer_probability>  (909) 
0.999999999999999

>  <r_qp_ACxDN^.5/SA>  (909) 
0

>  <r_qp_CIQPlogS>  (909) 
-4.8109999999999999

>  <r_qp_EA(eV)>  (909) 
0.58699999999999997

>  <r_qp_FISA>  (909) 
116.392

>  <r_qp_FOSA>  (909) 
169.999

>  <r_qp_IP(eV)>  (909) 
8.1460000000000008

>  <r_qp_Jm>  (909) 
0.036924875428187197

>  <r_qp_PISA>  (909) 
380.113

>  <r_qp_PSA>  (909) 
75.525999999999996

>  <r_qp_PercentHumanOralAbsorption>  (909) 
84.730000000000004

>  <r_qp_QPPCaco>  (909) 
194.559

>  <r_qp_QPPMDCK>  (909) 
93.278000000000006

>  <r_qp_QPlogBB>  (909) 
-0.622

>  <r_qp_QPlogHERG>  (909) 
-6.6710000000000003

>  <r_qp_QPlogKhsa>  (909) 
-0.11600000000000001

>  <r_qp_QPlogKp>  (909) 
-3.6200000000000001

>  <r_qp_QPlogPC16>  (909) 
13.269

>  <r_qp_QPlogPo/w>  (909) 
2.8719999999999999

>  <r_qp_QPlogPoct>  (909) 
18.986000000000001

>  <r_qp_QPlogPw>  (909) 
10.323

>  <r_qp_QPlogS>  (909) 
-3.399

>  <r_qp_QPpolrz>  (909) 
42.128999999999998

>  <r_qp_SASA>  (909) 
666.50400000000002

>  <r_qp_SAamideO>  (909) 
0

>  <r_qp_SAfluorine>  (909) 
0

>  <r_qp_WPSA>  (909) 
0

>  <r_qp_accptHB>  (909) 
7.5

>  <r_qp_dip^2/V>  (909) 
0.065481999999999999

>  <r_qp_dipole>  (909) 
9.0259999999999998

>  <r_qp_donorHB>  (909) 
0

>  <r_qp_glob>  (909) 
0.83933720000000001

>  <r_qp_mol_MW>  (909) 
385.46800000000002

>  <r_qp_volume>  (909) 
1244.1179999999999

>  <r_sd_BIOSOLVEIT.INFINISEE\_FTREES\_SIMILARITY>  (909) 
0.90100000000000002

>  <r_sd_BIOSOLVEIT.LOGP>  (909) 
2.6400800000000002

>  <r_sd_BIOSOLVEIT.MOLECULAR\_WEIGHT>  (909) 
386.47699999999998

>  <r_sd_BIOSOLVEIT.TPSA>  (909) 
73.459999999999994

>  <i_epik_Tot_Q>  (909) 
1

>  <i_epik_Tot_abs_Q>  (909) 
1

>  <i_f3d_flags>  (909) 
0

>  <i_i_glide_confnum>  (909) 
1

>  <i_i_glide_lignum>  (909) 
57

>  <i_i_glide_posenum>  (909) 
17

>  <i_i_glide_rotatable_bonds>  (909) 
8

>  <i_lp_mmshare_version>  (909) 
65135

>  <i_m_ct_format>  (909) 
2

>  <i_m_source_file_index>  (909) 
3100

>  <i_qp_#NandO>  (909) 
6

>  <i_qp_#acid>  (909) 
0

>  <i_qp_#amide>  (909) 
0

>  <i_qp_#amidine>  (909) 
0

>  <i_qp_#amine>  (909) 
1

>  <i_qp_#in34>  (909) 
0

>  <i_qp_#in56>  (909) 
18

>  <i_qp_#metab>  (909) 
9

>  <i_qp_#nonHatm>  (909) 
29

>  <i_qp_#noncon>  (909) 
0

>  <i_qp_#ringatoms>  (909) 
18

>  <i_qp_#rotor>  (909) 
8

>  <i_qp_#rtvFG>  (909) 
0

>  <i_qp_#stars>  (909) 
1

>  <i_qp_CNS>  (909) 
1

>  <i_qp_HumanOralAbsorption>  (909) 
2

>  <i_qp_RuleOfFive>  (909) 
0

>  <i_qp_RuleOfThree>  (909) 
1

>  <i_sd_BIOSOLVEIT.INFINISEE\_RESULT\_RANK>  (909) 
96823

>  <i_sd_version>  (909) 
0

>  <b_lp_Chiralities_Consistent>  (909) 
1

>  <b_sd_chiral_flag>  (909) 
0

>  <canonical_id>  (909) 
ATP-HTVS-90F616328265

>  <compound_code>  (909) 
99169

>  <title>  (909) 
rxn514b____EMOL712348____EMOL17240199____EMOL975590

>  <variant>  (909) 
99169-1

>  <source_file>  (909) 
运行/运行/ATP-VSW/ATP-VSW-DOCK_HTVS_1-002_lib.maegz

>  <canonical_smiles>  (909) 
C[NH+](C)Cc1ccccc1Nc1cnccc1C(=O)N(CC#N)c1ccccc1

>  <scaffold>  (909) 
O=C(Nc1ccccc1)c1ccncc1Nc1ccccc1

>  <molecular_formula>  (909) 
C23H24N5O+

$$$$
ATP-HTVS-9118BAC0F3E5
     RDKit          3D

 56 59  0  0  0  0  0  0  0  0999 V2000
  196.3720  179.0630  152.5295 O   0  0  0  0  0  0  0  0  0  0  0  0
  196.7594  180.1817  152.8688 C   0  0  0  0  0  0  0  0  0  0  0  0
  196.7348  181.2474  152.0276 N   0  0  0  0  0  0  0  0  0  0  0  0
  196.3000  181.0673  150.6293 C   0  0  1  0  0  0  0  0  0  0  0  0
  197.1062  180.0518  149.8282 C   0  0  0  0  0  0  0  0  0  0  0  0
  198.4965  179.9160  150.0097 C   0  0  0  0  0  0  0  0  0  0  0  0
  199.2133  178.9344  149.2972 C   0  0  0  0  0  0  0  0  0  0  0  0
  198.5456  178.0904  148.3858 C   0  0  0  0  0  0  0  0  0  0  0  0
  197.1591  178.2387  148.1838 C   0  0  0  0  0  0  0  0  0  0  0  0
  196.4422  179.2088  148.9076 C   0  0  0  0  0  0  0  0  0  0  0  0
  199.3200  177.0344  147.6206 C   0  0  1  0  0  0  0  0  0  0  0  0
  198.7350  175.7514  147.7275 O   0  0  0  0  0  0  0  0  0  0  0  0
  197.1565  182.6165  152.3723 C   0  0  2  0  0  0  0  0  0  0  0  0
  197.3329  180.3737  154.2542 C   0  0  0  0  0  0  0  0  0  0  0  0
  198.4897  179.6825  154.7182 C   0  0  0  0  0  0  0  0  0  0  0  0
  198.9622  179.9736  156.0353 C   0  0  0  0  0  0  0  0  0  0  0  0
  198.3685  180.9000  156.8204 N   0  0  0  0  0  0  0  0  0  0  0  0
  197.2502  181.5114  156.3987 C   0  0  0  0  0  0  0  0  0  0  0  0
  196.6507  182.4910  157.1882 N   0  0  0  0  0  0  0  0  0  0  0  0
  197.1005  182.7068  158.5544 C   0  0  1  0  0  0  0  0  0  0  0  0
  196.4623  183.9183  159.1959 C   0  0  0  0  0  0  0  0  0  0  0  0
  197.2358  185.0687  159.4552 C   0  0  0  0  0  0  0  0  0  0  0  0
  196.6463  186.2010  160.0502 C   0  0  0  0  0  0  0  0  0  0  0  0
  195.2788  186.1859  160.3840 C   0  0  0  0  0  0  0  0  0  0  0  0
  194.5018  185.0434  160.1075 C   0  0  0  0  0  0  0  0  0  0  0  0
  195.0911  183.9080  159.5229 C   0  0  0  0  0  0  0  0  0  0  0  0
  196.6830  181.2617  155.1328 C   0  0  0  0  0  0  0  0  0  0  0  0
  200.1103  179.3110  156.5160 C   0  0  0  0  0  0  0  0  0  0  0  0
  200.7851  178.3555  155.7348 C   0  0  0  0  0  0  0  0  0  0  0  0
  200.3253  178.0656  154.4380 C   0  0  0  0  0  0  0  0  0  0  0  0
  199.1939  178.7342  153.9297 C   0  0  0  0  0  0  0  0  0  0  0  0
  195.2545  180.7558  150.6295 H   0  0  0  0  0  0  0  0  0  0  0  0
  196.3427  182.0021  150.0722 H   0  0  0  0  0  0  0  0  0  0  0  0
  199.0199  180.5492  150.7092 H   0  0  0  0  0  0  0  0  0  0  0  0
  200.2747  178.8294  149.4680 H   0  0  0  0  0  0  0  0  0  0  0  0
  196.6366  177.6019  147.4860 H   0  0  0  0  0  0  0  0  0  0  0  0
  195.3775  179.3064  148.7543 H   0  0  0  0  0  0  0  0  0  0  0  0
  199.3690  177.3248  146.5703 H   0  0  0  0  0  0  0  0  0  0  0  0
  200.3463  176.9822  147.9853 H   0  0  0  0  0  0  0  0  0  0  0  0
  197.8631  175.7893  147.3749 H   0  0  0  0  0  0  0  0  0  0  0  0
  198.2231  182.6307  152.5975 H   0  0  0  0  0  0  0  0  0  0  0  0
  196.6096  183.0186  153.2293 H   0  0  0  0  0  0  0  0  0  0  0  0
  196.9911  183.3358  151.5654 H   0  0  0  0  0  0  0  0  0  0  0  0
  195.7680  182.8847  156.8915 H   0  0  0  0  0  0  0  0  0  0  0  0
  196.8788  181.8212  159.1503 H   0  0  0  0  0  0  0  0  0  0  0  0
  198.1822  182.8361  158.5576 H   0  0  0  0  0  0  0  0  0  0  0  0
  198.2833  185.0870  159.1926 H   0  0  0  0  0  0  0  0  0  0  0  0
  197.2438  187.0804  160.2507 H   0  0  0  0  0  0  0  0  0  0  0  0
  194.8296  187.0517  160.8472 H   0  0  0  0  0  0  0  0  0  0  0  0
  193.4529  185.0349  160.3654 H   0  0  0  0  0  0  0  0  0  0  0  0
  194.4931  183.0292  159.3252 H   0  0  0  0  0  0  0  0  0  0  0  0
  195.7722  181.7621  154.8617 H   0  0  0  0  0  0  0  0  0  0  0  0
  200.4610  179.5264  157.5128 H   0  0  0  0  0  0  0  0  0  0  0  0
  201.6572  177.8498  156.1305 H   0  0  0  0  0  0  0  0  0  0  0  0
  200.8404  177.3313  153.8365 H   0  0  0  0  0  0  0  0  0  0  0  0
  198.8758  178.4824  152.9292 H   0  0  0  0  0  0  0  0  0  0  0  0
  1  2  2  0
  2  3  1  0
  2 14  1  0
  3  4  1  0
  3 13  1  0
  4  5  1  0
  4 32  1  1
  4 33  1  0
  5  6  1  0
  5 10  2  0
  6  7  2  0
  6 34  1  0
  7  8  1  0
  7 35  1  0
  8  9  2  0
  8 11  1  0
  9 10  1  0
  9 36  1  0
 10 37  1  0
 11 12  1  0
 11 38  1  6
 11 39  1  0
 12 40  1  0
 13 41  1  1
 13 42  1  0
 13 43  1  0
 14 15  1  0
 14 27  2  0
 15 16  1  0
 15 31  2  0
 16 17  1  0
 16 28  2  0
 17 18  2  0
 18 19  1  0
 18 27  1  0
 19 20  1  0
 19 44  1  0
 20 21  1  0
 20 45  1  1
 20 46  1  0
 21 22  2  0
 21 26  1  0
 22 23  1  0
 22 47  1  0
 23 24  2  0
 23 48  1  0
 24 25  1  0
 24 49  1  0
 25 26  2  0
 25 50  1  0
 26 51  1  0
 27 52  1  0
 28 29  1  0
 28 53  1  0
 29 30  2  0
 29 54  1  0
 30 31  1  0
 30 55  1  0
 31 56  1  0
M  END
>  <s_epik_cmdline>  (910) 
J2VwaWtfcHl0aG9uJywgJy1waCcsICc3LjAwMDAwMCcsICctcGh0JywgJzIuMDAwMDAwJywgJy1tcycsICcxNicsICctdG4nLCAnOCcsICctbWEnLCAnMjAwJywgJy1pbWFlJywgJzxpbmZpbGUubWFlPicsICctb21hZScsICc8b3V0ZmlsZS5tYWU+Jw==

>  <s_epik_input>  (910) 
W2NIXTFbY0hdYyhbQ0gyXVtPSF0pW2NIXVtjSF1jMVtDSDJdTihbQ0gzXSlDKD1PKWMyW2NIXWMobmMoYzIzKVtjSF1bY0hdW2NIXVtjSF0zKVtOSF1bQ0gyXWM0W2NIXVtjSF1bY0hdW2NIXVtjSF00

>  <s_i_glide_gridfile>  (910) 
ATP-Grid

>  <s_lp_Force_Field>  (910) 
OPLS_2005

>  <s_lp_Variant>  (910) 
m_527bbb____20840648____4971430-1

>  <s_lp_label>  (910) 
1559_sdstereoexpander_1_neutralizer_1_epik_1_stereoizer_1

>  <s_m_source_file>  (910) 
ATP-VSW-LIGPREP-001-in.maegz

>  <s_sd_BIOSOLVEIT.INFINISEE\_QUERY\_NAME>  (910) 
Ref-Lig

>  <s_sd_BIOSOLVEIT.INFINISEE\_QUERY\_SMILES>  (910) 
S(c1nc2c(cc1C[NH2+]Cc3ccc(cc3)C[NH+](C)C)cccc2)Cc4ccccc4

>  <s_sd_BIOSOLVEIT.INFINISEE\_REACTION\_NAME>  (910) 
m_527bbb

>  <s_sd_BIOSOLVEIT.INFINISEE\_REAGENT1\_SMILES>  (910) 
[R1*]N(Cc1ccc(cc1)CO)C

>  <s_sd_BIOSOLVEIT.INFINISEE\_REAGENT2\_SMILES>  (910) 
[R1*]C(=O)c1c2c(nc(NCc3ccccc3)c1)cccc2

>  <s_sd_BIOSOLVEIT.INFINISEE\_SPACE>  (910) 
REALSpace_44bn_2023-08

>  <s_vsw_compound_code>  (910) 
49857

>  <s_vsw_variant>  (910) 
49857-1

>  <r_epik_Charging_Adjusted_Penalty>  (910) 
0

>  <r_epik_Ionization_Penalty>  (910) 
0.00020000000000000001

>  <r_epik_Ionization_Penalty_Charging>  (910) 
0

>  <r_epik_Ionization_Penalty_Neutral>  (910) 
0.00020000000000000001

>  <r_epik_State_Penalty>  (910) 
-0

>  <r_i_docking_score>  (910) 
-4.4571346455669296

>  <r_i_glide_ecoul>  (910) 
-3.7284226417541499

>  <r_i_glide_eff_state_penalty>  (910) 
-0

>  <r_i_glide_einternal>  (910) 
1.26980352401733

>  <r_i_glide_emodel>  (910) 
-55.138202018137797

>  <r_i_glide_energy>  (910) 
-43.5858635902405

>  <r_i_glide_erotb>  (910) 
0.93121287815819298

>  <r_i_glide_esite>  (910) 
-0.053297811563449399

>  <r_i_glide_evdw>  (910) 
-39.8574409484863

>  <r_i_glide_gscore>  (910) 
-4.4571346455669296

>  <r_i_glide_hbond>  (910) 
-0.249007899782863

>  <r_i_glide_ligand_efficiency>  (910) 
-0.14377853695377199

>  <r_i_glide_ligand_efficiency_ln>  (910) 
-1.0052204573478201

>  <r_i_glide_ligand_efficiency_sa>  (910) 
-0.45166311369871798

>  <r_i_glide_lipo>  (910) 
-1.77047475927728

>  <r_i_glide_metal>  (910) 
-0

>  <r_i_glide_rewards>  (910) 
-0.76343160941409405

>  <r_lp_Energy>  (910) 
30.102656

>  <r_lp_tautomer_probability>  (910) 
1

>  <r_qp_ACxDN^.5/SA>  (910) 
0.0116361

>  <r_qp_CIQPlogS>  (910) 
-6.3650000000000002

>  <r_qp_EA(eV)>  (910) 
0.80100000000000005

>  <r_qp_FISA>  (910) 
101.76600000000001

>  <r_qp_FOSA>  (910) 
173.386

>  <r_qp_IP(eV)>  (910) 
8.1820000000000004

>  <r_qp_Jm>  (910) 
0.023165787625621999

>  <r_qp_PISA>  (910) 
478.37400000000002

>  <r_qp_PSA>  (910) 
69.863

>  <r_qp_PercentHumanOralAbsorption>  (910) 
100

>  <r_qp_QPPCaco>  (910) 
1073.633

>  <r_qp_QPPMDCK>  (910) 
534.197

>  <r_qp_QPlogBB>  (910) 
-1.02

>  <r_qp_QPlogHERG>  (910) 
-7.2949999999999999

>  <r_qp_QPlogKhsa>  (910) 
0.68100000000000005

>  <r_qp_QPlogKp>  (910) 
-0.94199999999999995

>  <r_qp_QPlogPC16>  (910) 
15.43

>  <r_qp_QPlogPo/w>  (910) 
4.8710000000000004

>  <r_qp_QPlogPoct>  (910) 
22.344000000000001

>  <r_qp_QPlogPw>  (910) 
12.75

>  <r_qp_QPlogS>  (910) 
-6.3079999999999998

>  <r_qp_QPpolrz>  (910) 
47.399000000000001

>  <r_qp_SASA>  (910) 
753.52499999999998

>  <r_qp_SAamideO>  (910) 
0

>  <r_qp_SAfluorine>  (910) 
0

>  <r_qp_WPSA>  (910) 
0

>  <r_qp_accptHB>  (910) 
6.2000000000000002

>  <r_qp_dip^2/V>  (910) 
0.023017800000000001

>  <r_qp_dipole>  (910) 
5.5789999999999997

>  <r_qp_donorHB>  (910) 
2

>  <r_qp_glob>  (910) 
0.78486180000000005

>  <r_qp_mol_MW>  (910) 
411.50200000000001

>  <r_qp_volume>  (910) 
1352.3489999999999

>  <r_sd_BIOSOLVEIT.INFINISEE\_FTREES\_SIMILARITY>  (910) 
0.90600000000000003

>  <r_sd_BIOSOLVEIT.LOGP>  (910) 
4.6113999999999997

>  <r_sd_BIOSOLVEIT.MOLECULAR\_WEIGHT>  (910) 
411.50299999999999

>  <r_sd_BIOSOLVEIT.TPSA>  (910) 
65.459999999999994

>  <i_epik_Tot_Q>  (910) 
0

>  <i_epik_Tot_abs_Q>  (910) 
0

>  <i_f3d_flags>  (910) 
0

>  <i_i_glide_confnum>  (910) 
6

>  <i_i_glide_lignum>  (910) 
417

>  <i_i_glide_posenum>  (910) 
8

>  <i_i_glide_rotatable_bonds>  (910) 
9

>  <i_lp_mmshare_version>  (910) 
65135

>  <i_m_ct_format>  (910) 
2

>  <i_m_source_file_index>  (910) 
1559

>  <i_qp_#NandO>  (910) 
5

>  <i_qp_#acid>  (910) 
0

>  <i_qp_#amide>  (910) 
0

>  <i_qp_#amidine>  (910) 
0

>  <i_qp_#amine>  (910) 
0

>  <i_qp_#in34>  (910) 
0

>  <i_qp_#in56>  (910) 
22

>  <i_qp_#metab>  (910) 
3

>  <i_qp_#nonHatm>  (910) 
31

>  <i_qp_#noncon>  (910) 
0

>  <i_qp_#ringatoms>  (910) 
22

>  <i_qp_#rotor>  (910) 
8

>  <i_qp_#rtvFG>  (910) 
0

>  <i_qp_#stars>  (910) 
1

>  <i_qp_CNS>  (910) 
-2

>  <i_qp_HumanOralAbsorption>  (910) 
1

>  <i_qp_RuleOfFive>  (910) 
0

>  <i_qp_RuleOfThree>  (910) 
1

>  <i_sd_BIOSOLVEIT.INFINISEE\_REAGENT1\_NAME>  (910) 
20840648

>  <i_sd_BIOSOLVEIT.INFINISEE\_REAGENT2\_NAME>  (910) 
4971430

>  <i_sd_BIOSOLVEIT.INFINISEE\_RESULT\_RANK>  (910) 
62930

>  <i_sd_version>  (910) 
0

>  <b_lp_Chiralities_Consistent>  (910) 
1

>  <b_sd_chiral_flag>  (910) 
0

>  <canonical_id>  (910) 
ATP-HTVS-9118BAC0F3E5

>  <compound_code>  (910) 
49857

>  <title>  (910) 
m_527bbb____20840648____4971430

>  <variant>  (910) 
49857-1

>  <source_file>  (910) 
运行/运行/ATP-VSW/ATP-VSW-DOCK_HTVS_1-001_lib/ATP-VSW-DOCK_HTVS_1-001_lib

>  <canonical_smiles>  (910) 
CN(Cc1ccc(CO)cc1)C(=O)c1cc(NCc2ccccc2)nc2ccccc12

>  <scaffold>  (910) 
O=C(NCc1ccccc1)c1cc(NCc2ccccc2)nc2ccccc12

>  <molecular_formula>  (910) 
C26H25N3O2

$$$$
ATP-HTVS-9126C22B6E5D
     RDKit          3D

 64 67  0  0  0  0  0  0  0  0999 V2000
  198.7646  179.1862  154.2603 O   0  0  0  0  0  0  0  0  0  0  0  0
  197.7830  179.8247  154.6578 C   0  0  0  0  0  0  0  0  0  0  0  0
  196.7576  180.1628  153.8668 N   0  0  0  0  0  0  0  0  0  0  0  0
  196.5979  179.7080  152.4894 C   0  0  1  0  0  0  0  0  0  0  0  0
  197.6237  180.3405  151.5257 C   0  0  1  0  0  0  0  0  0  0  0  0
  197.7184  179.5811  150.2199 C   0  0  0  0  0  0  0  0  0  0  0  0
  198.9571  178.9966  149.8615 C   0  0  0  0  0  0  0  0  0  0  0  0
  199.0818  178.2698  148.6695 C   0  0  0  0  0  0  0  0  0  0  0  0
  197.9822  178.1569  147.7809 C   0  0  0  0  0  0  0  0  0  0  0  0
  196.7402  178.7120  148.1543 C   0  0  0  0  0  0  0  0  0  0  0  0
  196.6088  179.4326  149.3688 C   0  0  0  0  0  0  0  0  0  0  0  0
  198.1589  177.4414  146.4433 C   0  0  1  0  0  0  0  0  0  0  0  0
  198.8722  178.2423  145.3937 N   0  0  1  0  0  0  0  0  0  0  0  0
  198.0868  179.4066  144.9264 C   0  0  2  0  0  0  0  0  0  0  0  0
  200.2592  178.6397  145.7440 C   0  0  2  0  0  0  0  0  0  0  0  0
  197.7085  180.2560  156.1168 C   0  0  1  0  0  0  0  0  0  0  0  0
  198.5774  181.3817  156.3883 N   0  0  0  0  0  0  0  0  0  0  0  0
  199.9263  181.3418  156.7018 C   0  0  0  0  0  0  0  0  0  0  0  0
  200.3069  182.6914  156.8907 C   0  0  0  0  0  0  0  0  0  0  0  0
  199.2309  183.5399  156.6645 N   0  0  0  0  0  0  0  0  0  0  0  0
  198.2321  182.6963  156.3867 C   0  0  0  0  0  0  0  0  0  0  0  0
  196.8186  183.1453  156.1176 C   0  0  1  0  0  0  0  0  0  0  0  0
  196.1348  183.2735  157.3611 O   0  0  0  0  0  0  0  0  0  0  0  0
  196.3110  184.3999  158.1510 C   0  0  0  0  0  0  0  0  0  0  0  0
  197.1497  185.4782  157.7596 C   0  0  0  0  0  0  0  0  0  0  0  0
  197.2935  186.5950  158.6123 C   0  0  0  0  0  0  0  0  0  0  0  0
  196.5822  186.6770  159.8268 C   0  0  0  0  0  0  0  0  0  0  0  0
  195.7273  185.6233  160.2077 C   0  0  0  0  0  0  0  0  0  0  0  0
  195.6022  184.4829  159.3697 C   0  0  0  0  0  0  0  0  0  0  0  0
  201.6427  182.9771  157.2606 C   0  0  0  0  0  0  0  0  0  0  0  0
  202.5882  181.9279  157.4046 C   0  0  0  0  0  0  0  0  0  0  0  0
  202.2017  180.5905  157.1891 C   0  0  0  0  0  0  0  0  0  0  0  0
  200.8675  180.2843  156.8443 C   0  0  0  0  0  0  0  0  0  0  0  0
  195.9804  180.6660  154.2823 H   0  0  0  0  0  0  0  0  0  0  0  0
  196.6831  178.6202  152.4919 H   0  0  0  0  0  0  0  0  0  0  0  0
  195.5869  179.9303  152.1469 H   0  0  0  0  0  0  0  0  0  0  0  0
  197.3684  181.3859  151.3344 H   0  0  0  0  0  0  0  0  0  0  0  0
  198.6225  180.3506  151.9657 H   0  0  0  0  0  0  0  0  0  0  0  0
  199.8237  179.1270  150.4927 H   0  0  0  0  0  0  0  0  0  0  0  0
  200.0333  177.8186  148.4434 H   0  0  0  0  0  0  0  0  0  0  0  0
  195.8847  178.6253  147.5030 H   0  0  0  0  0  0  0  0  0  0  0  0
  195.6544  179.8699  149.6385 H   0  0  0  0  0  0  0  0  0  0  0  0
  198.6989  176.5083  146.6184 H   0  0  0  0  0  0  0  0  0  0  0  0
  197.1685  177.1631  146.0696 H   0  0  0  0  0  0  0  0  0  0  0  0
  197.9588  180.1195  145.7377 H   0  0  0  0  0  0  0  0  0  0  0  0
  197.1085  179.1022  144.5545 H   0  0  0  0  0  0  0  0  0  0  0  0
  198.6037  179.9224  144.1161 H   0  0  0  0  0  0  0  0  0  0  0  0
  200.2789  179.3514  146.5733 H   0  0  0  0  0  0  0  0  0  0  0  0
  200.7649  179.1126  144.8935 H   0  0  0  0  0  0  0  0  0  0  0  0
  200.8321  177.7558  146.0269 H   0  0  0  0  0  0  0  0  0  0  0  0
  196.6908  180.5133  156.3935 H   0  0  0  0  0  0  0  0  0  0  0  0
  198.0028  179.4298  156.7527 H   0  0  0  0  0  0  0  0  0  0  0  0
  196.8168  184.0979  155.5762 H   0  0  0  0  0  0  0  0  0  0  0  0
  196.2901  182.4039  155.5027 H   0  0  0  0  0  0  0  0  0  0  0  0
  197.6789  185.4763  156.8181 H   0  0  0  0  0  0  0  0  0  0  0  0
  197.9506  187.3851  158.3116 H   0  0  0  0  0  0  0  0  0  0  0  0
  196.7034  187.5558  160.4657 H   0  0  0  0  0  0  0  0  0  0  0  0
  195.1721  185.6803  161.1385 H   0  0  0  0  0  0  0  0  0  0  0  0
  194.9399  183.6595  159.6604 H   0  0  0  0  0  0  0  0  0  0  0  0
  201.9483  183.9948  157.4298 H   0  0  0  0  0  0  0  0  0  0  0  0
  203.6204  182.1563  157.6640 H   0  0  0  0  0  0  0  0  0  0  0  0
  202.9351  179.7918  157.2837 H   0  0  0  0  0  0  0  0  0  0  0  0
  200.5534  179.2620  156.6789 H   0  0  0  0  0  0  0  0  0  0  0  0
  198.9572  177.6360  144.5882 H   0  0  0  0  0  0  0  0  0  0  0  0
  1  2  2  0
  2  3  1  0
  2 16  1  0
  3  4  1  0
  3 34  1  0
  4  5  1  0
  4 35  1  1
  4 36  1  0
  5  6  1  0
  5 37  1  6
  5 38  1  0
  6  7  1  0
  6 11  2  0
  7  8  2  0
  7 39  1  0
  8  9  1  0
  8 40  1  0
  9 10  2  0
  9 12  1  0
 10 11  1  0
 10 41  1  0
 11 42  1  0
 12 13  1  0
 12 43  1  1
 12 44  1  0
 13 14  1  0
 13 15  1  0
 13 64  1  6
 14 45  1  1
 14 46  1  0
 14 47  1  0
 15 48  1  1
 15 49  1  0
 15 50  1  0
 16 17  1  0
 16 51  1  1
 16 52  1  0
 17 18  1  0
 17 21  1  0
 18 19  1  0
 18 33  2  0
 19 20  1  0
 19 30  2  0
 20 21  2  0
 21 22  1  0
 22 23  1  0
 22 53  1  6
 22 54  1  0
 23 24  1  0
 24 25  2  0
 24 29  1  0
 25 26  1  0
 25 55  1  0
 26 27  2  0
 26 56  1  0
 27 28  1  0
 27 57  1  0
 28 29  2  0
 28 58  1  0
 29 59  1  0
 30 31  1  0
 30 60  1  0
 31 32  2  0
 31 61  1  0
 32 33  1  0
 32 62  1  0
 33 63  1  0
M  CHG  1  13   1
M  END
>  <s_epik_cmdline>  (911) 
J2VwaWtfcHl0aG9uJywgJy1waCcsICc3LjAwMDAwMCcsICctcGh0JywgJzIuMDAwMDAwJywgJy1tcycsICcxNicsICctdG4nLCAnOCcsICctbWEnLCAnMjAwJywgJy1pbWFlJywgJzxpbmZpbGUubWFlPicsICctb21hZScsICc8b3V0ZmlsZS5tYWU+Jw==

>  <s_epik_input>  (911) 
W0NIM11OKFtDSDNdKVtDSDJdYyhbY0hdW2NIXTEpW2NIXVtjSF1jMVtDSDJdW0NIMl1bTkhdQyg9TylbQ0gyXW4yYyhuYyhjMjMpW2NIXVtjSF1bY0hdW2NIXTMpW0NIMl1PYzRbY0hdW2NIXVtjSF1bY0hdW2NIXTQ=

>  <s_i_glide_gridfile>  (911) 
ATP-Grid

>  <s_lp_Force_Field>  (911) 
OPLS_2005

>  <s_lp_Variant>  (911) 
m_527bbb____15775628____214828-1

>  <s_lp_label>  (911) 
740_sdstereoexpander_1_neutralizer_1_epik_1_stereoizer_1

>  <s_m_source_file>  (911) 
ATP-VSW-LIGPREP-001-in.maegz

>  <s_sd_BIOSOLVEIT.INFINISEE\_QUERY\_NAME>  (911) 
Ref-Lig

>  <s_sd_BIOSOLVEIT.INFINISEE\_QUERY\_SMILES>  (911) 
S(c1nc2c(cc1C[NH2+]Cc3ccc(cc3)C[NH+](C)C)cccc2)Cc4ccccc4

>  <s_sd_BIOSOLVEIT.INFINISEE\_REACTION\_NAME>  (911) 
m_527bbb

>  <s_sd_BIOSOLVEIT.INFINISEE\_REAGENT1\_SMILES>  (911) 
[R1*]NCCc1ccc(cc1)CN(C)C

>  <s_sd_BIOSOLVEIT.INFINISEE\_REAGENT2\_SMILES>  (911) 
[R1*]C(=O)CN1c2c(N=C1COc3ccccc3)cccc2

>  <s_sd_BIOSOLVEIT.INFINISEE\_SPACE>  (911) 
REALSpace_44bn_2023-08

>  <s_vsw_compound_code>  (911) 
23649

>  <s_vsw_variant>  (911) 
23649-1

>  <r_epik_Charging_Adjusted_Penalty>  (911) 
0.113592395849283

>  <r_epik_Ionization_Penalty>  (911) 
0.069500000000000006

>  <r_epik_Ionization_Penalty_Charging>  (911) 
0.0441

>  <r_epik_Ionization_Penalty_Neutral>  (911) 
0.025399999999999999

>  <r_epik_State_Penalty>  (911) 
0.069500000000000006

>  <r_i_docking_score>  (911) 
-4.3508512750638202

>  <r_i_glide_ecoul>  (911) 
-7.1801419258117702

>  <r_i_glide_eff_state_penalty>  (911) 
0.069500000000000006

>  <r_i_glide_einternal>  (911) 
6.4851870536804199

>  <r_i_glide_emodel>  (911) 
-54.786419414871297

>  <r_i_glide_energy>  (911) 
-41.737961292266803

>  <r_i_glide_erotb>  (911) 
1.01616698716511

>  <r_i_glide_esite>  (911) 
-0.18200309720980301

>  <r_i_glide_evdw>  (911) 
-34.557819366455099

>  <r_i_glide_gscore>  (911) 
-4.4203512750638199

>  <r_i_glide_hbond>  (911) 
-0.20000000000000001

>  <r_i_glide_ligand_efficiency>  (911) 
-0.13184397803223699

>  <r_i_glide_ligand_efficiency_ln>  (911) 
-0.967606796071938

>  <r_i_glide_ligand_efficiency_sa>  (911) 
-0.42289408524873201

>  <r_i_glide_lipo>  (911) 
-1.63978908964279

>  <r_i_glide_metal>  (911) 
-0

>  <r_i_glide_rewards>  (911) 
-0.60981381818181701

>  <r_lp_Energy>  (911) 
22.71829

>  <r_lp_tautomer_probability>  (911) 
1

>  <r_qp_ACxDN^.5/SA>  (911) 
0.0083254000000000002

>  <r_qp_CIQPlogS>  (911) 
-5.0789999999999997

>  <r_qp_EA(eV)>  (911) 
0.40799999999999997

>  <r_qp_FISA>  (911) 
50.128999999999998

>  <r_qp_FOSA>  (911) 
306.84100000000001

>  <r_qp_IP(eV)>  (911) 
8.9269999999999996

>  <r_qp_Jm>  (911) 
0.072438167089794794

>  <r_qp_PISA>  (911) 
453.80000000000001

>  <r_qp_PSA>  (911) 
61.219000000000001

>  <r_qp_PercentHumanOralAbsorption>  (911) 
100

>  <r_qp_QPPCaco>  (911) 
533.46699999999998

>  <r_qp_QPPMDCK>  (911) 
445.63400000000001

>  <r_qp_QPlogBB>  (911) 
-0.19600000000000001

>  <r_qp_QPlogHERG>  (911) 
-6.6799999999999997

>  <r_qp_QPlogKhsa>  (911) 
0.54600000000000004

>  <r_qp_QPlogKp>  (911) 
-1.9470000000000001

>  <r_qp_QPlogPC16>  (911) 
15.932

>  <r_qp_QPlogPo/w>  (911) 
4.7809999999999997

>  <r_qp_QPlogPoct>  (911) 
21.917000000000002

>  <r_qp_QPlogPw>  (911) 
12.775

>  <r_qp_QPlogS>  (911) 
-4.8390000000000004

>  <r_qp_QPpolrz>  (911) 
51.085999999999999

>  <r_qp_SASA>  (911) 
810.76900000000001

>  <r_qp_SAamideO>  (911) 
23.91

>  <r_qp_SAfluorine>  (911) 
0

>  <r_qp_WPSA>  (911) 
0

>  <r_qp_accptHB>  (911) 
6.75

>  <r_qp_dip^2/V>  (911) 
0.0088657000000000007

>  <r_qp_dipole>  (911) 
3.625

>  <r_qp_donorHB>  (911) 
1

>  <r_qp_glob>  (911) 
0.77550490000000005

>  <r_qp_mol_MW>  (911) 
442.56

>  <r_qp_volume>  (911) 
1482.433

>  <r_sd_BIOSOLVEIT.INFINISEE\_FTREES\_SIMILARITY>  (911) 
0.92700000000000005

>  <r_sd_BIOSOLVEIT.LOGP>  (911) 
2.6187

>  <r_sd_BIOSOLVEIT.MOLECULAR\_WEIGHT>  (911) 
443.56799999999998

>  <r_sd_BIOSOLVEIT.TPSA>  (911) 
60.590000000000003

>  <i_epik_Tot_Q>  (911) 
1

>  <i_epik_Tot_abs_Q>  (911) 
1

>  <i_f3d_flags>  (911) 
0

>  <i_i_glide_confnum>  (911) 
12

>  <i_i_glide_lignum>  (911) 
115

>  <i_i_glide_posenum>  (911) 
10

>  <i_i_glide_rotatable_bonds>  (911) 
11

>  <i_lp_mmshare_version>  (911) 
65135

>  <i_m_ct_format>  (911) 
2

>  <i_m_source_file_index>  (911) 
740

>  <i_qp_#NandO>  (911) 
6

>  <i_qp_#acid>  (911) 
0

>  <i_qp_#amide>  (911) 
1

>  <i_qp_#amidine>  (911) 
0

>  <i_qp_#amine>  (911) 
1

>  <i_qp_#in34>  (911) 
0

>  <i_qp_#in56>  (911) 
21

>  <i_qp_#metab>  (911) 
6

>  <i_qp_#nonHatm>  (911) 
33

>  <i_qp_#noncon>  (911) 
0

>  <i_qp_#ringatoms>  (911) 
21

>  <i_qp_#rotor>  (911) 
10

>  <i_qp_#rtvFG>  (911) 
0

>  <i_qp_#stars>  (911) 
1

>  <i_qp_CNS>  (911) 
1

>  <i_qp_HumanOralAbsorption>  (911) 
3

>  <i_qp_RuleOfFive>  (911) 
0

>  <i_qp_RuleOfThree>  (911) 
0

>  <i_sd_BIOSOLVEIT.INFINISEE\_REAGENT1\_NAME>  (911) 
15775628

>  <i_sd_BIOSOLVEIT.INFINISEE\_REAGENT2\_NAME>  (911) 
214828

>  <i_sd_BIOSOLVEIT.INFINISEE\_RESULT\_RANK>  (911) 
7124

>  <i_sd_version>  (911) 
0

>  <b_lp_Chiralities_Consistent>  (911) 
1

>  <b_sd_chiral_flag>  (911) 
0

>  <canonical_id>  (911) 
ATP-HTVS-9126C22B6E5D

>  <compound_code>  (911) 
23649

>  <title>  (911) 
m_527bbb____15775628____214828

>  <variant>  (911) 
23649-1

>  <source_file>  (911) 
运行/运行/ATP-VSW/ATP-VSW-DOCK_HTVS_1-001_lib/ATP-VSW-DOCK_HTVS_1-001_lib

>  <canonical_smiles>  (911) 
C[NH+](C)Cc1ccc(CCNC(=O)Cn2c(COc3ccccc3)nc3ccccc32)cc1

>  <scaffold>  (911) 
O=C(Cn1c(COc2ccccc2)nc2ccccc21)NCCc1ccccc1

>  <molecular_formula>  (911) 
C27H31N4O2+

$$$$
ATP-HTVS-91559CC1A0CF
     RDKit          3D

 54 56  0  0  0  0  0  0  0  0999 V2000
  196.5968  181.4297  155.2367 S   0  0  0  0  0  0  0  0  0  0  0  0
  197.5545  180.4295  154.1714 C   0  0  0  0  0  0  0  0  0  0  0  0
  197.0393  180.2848  152.7913 C   0  0  0  0  0  0  0  0  0  0  0  0
  196.4711  179.2385  152.4662 O   0  0  0  0  0  0  0  0  0  0  0  0
  197.2596  181.2939  151.9124 N   0  0  0  0  0  0  0  0  0  0  0  0
  197.9147  182.5155  152.2684 C   0  0  0  0  0  0  0  0  0  0  0  0
  197.2444  183.7541  152.1705 C   0  0  0  0  0  0  0  0  0  0  0  0
  195.9376  183.8210  151.7329 O   0  0  0  0  0  0  0  0  0  0  0  0
  197.8995  184.9448  152.5457 C   0  0  0  0  0  0  0  0  0  0  0  0
  199.2360  184.9098  152.9982 C   0  0  0  0  0  0  0  0  0  0  0  0
  199.9144  183.6835  153.0784 C   0  0  0  0  0  0  0  0  0  0  0  0
  199.2670  182.4934  152.7032 C   0  0  0  0  0  0  0  0  0  0  0  0
  196.7703  181.1574  150.5386 C   0  0  2  0  0  0  0  0  0  0  0  0
  198.6668  179.9345  154.8118 C   0  0  0  0  0  0  0  0  0  0  0  0
  199.6511  179.1150  154.2049 N   0  0  0  0  0  0  0  0  0  0  0  0
  201.0130  178.9932  154.7143 C   0  0  1  0  0  0  0  0  0  0  0  0
  201.5174  177.5718  154.7739 C   0  0  0  0  0  0  0  0  0  0  0  0
  200.8092  176.5979  155.5111 C   0  0  0  0  0  0  0  0  0  0  0  0
  201.3159  175.2865  155.6050 C   0  0  0  0  0  0  0  0  0  0  0  0
  202.5179  174.9290  154.9545 C   0  0  0  0  0  0  0  0  0  0  0  0
  203.2212  175.9081  154.2246 C   0  0  0  0  0  0  0  0  0  0  0  0
  202.7216  177.2222  154.1377 C   0  0  0  0  0  0  0  0  0  0  0  0
  203.0137  173.4859  155.0117 C   0  0  1  0  0  0  0  0  0  0  0  0
  202.4843  172.6416  153.9077 N   0  0  2  0  0  0  0  0  0  0  0  0
  203.1248  172.9330  152.6048 C   0  0  2  0  0  0  0  0  0  0  0  0
  201.0071  172.6328  153.8030 C   0  0  2  0  0  0  0  0  0  0  0  0
  198.7521  180.3764  156.1678 C   0  0  0  0  0  0  0  0  0  0  0  0
  197.7171  181.1844  156.5381 C   0  0  0  0  0  0  0  0  0  0  0  0
  195.3040  183.7975  152.4557 H   0  0  0  0  0  0  0  0  0  0  0  0
  197.3872  185.8922  152.4928 H   0  0  0  0  0  0  0  0  0  0  0  0
  199.7298  185.8239  153.2790 H   0  0  0  0  0  0  0  0  0  0  0  0
  200.9342  183.6503  153.4266 H   0  0  0  0  0  0  0  0  0  0  0  0
  199.8009  181.5622  152.7713 H   0  0  0  0  0  0  0  0  0  0  0  0
  196.9265  182.0656  149.9541 H   0  0  0  0  0  0  0  0  0  0  0  0
  195.6995  180.9336  150.5310 H   0  0  0  0  0  0  0  0  0  0  0  0
  197.2959  180.3541  150.0224 H   0  0  0  0  0  0  0  0  0  0  0  0
  199.5279  178.8933  153.2294 H   0  0  0  0  0  0  0  0  0  0  0  0
  201.6722  179.5934  154.0982 H   0  0  0  0  0  0  0  0  0  0  0  0
  201.1304  179.3994  155.7247 H   0  0  0  0  0  0  0  0  0  0  0  0
  199.8840  176.8518  156.0120 H   0  0  0  0  0  0  0  0  0  0  0  0
  200.7562  174.5411  156.1449 H   0  0  0  0  0  0  0  0  0  0  0  0
  204.1404  175.6548  153.7131 H   0  0  0  0  0  0  0  0  0  0  0  0
  203.2789  177.9673  153.5844 H   0  0  0  0  0  0  0  0  0  0  0  0
  204.0999  173.4802  154.9939 H   0  0  0  0  0  0  0  0  0  0  0  0
  202.7344  173.0447  155.9725 H   0  0  0  0  0  0  0  0  0  0  0  0
  202.8995  173.9455  152.2712 H   0  0  0  0  0  0  0  0  0  0  0  0
  202.7706  172.2482  151.8328 H   0  0  0  0  0  0  0  0  0  0  0  0
  204.2080  172.8268  152.6702 H   0  0  0  0  0  0  0  0  0  0  0  0
  200.6135  173.6184  153.5666 H   0  0  0  0  0  0  0  0  0  0  0  0
  200.5661  172.3014  154.7409 H   0  0  0  0  0  0  0  0  0  0  0  0
  200.6754  171.9643  153.0084 H   0  0  0  0  0  0  0  0  0  0  0  0
  199.5332  180.0954  156.8586 H   0  0  0  0  0  0  0  0  0  0  0  0
  197.5177  181.6064  157.5145 H   0  0  0  0  0  0  0  0  0  0  0  0
  202.7520  171.6643  154.1134 H   0  0  0  0  0  0  0  0  0  0  0  0
  1  2  1  0
  1 28  1  0
  2  3  1  0
  2 14  2  0
  3  4  2  0
  3  5  1  0
  5  6  1  0
  5 13  1  0
  6  7  1  0
  6 12  2  0
  7  8  1  0
  7  9  2  0
  8 29  1  0
  9 10  1  0
  9 30  1  0
 10 11  2  0
 10 31  1  0
 11 12  1  0
 11 32  1  0
 12 33  1  0
 13 34  1  6
 13 35  1  0
 13 36  1  0
 14 15  1  0
 14 27  1  0
 15 16  1  0
 15 37  1  0
 16 17  1  0
 16 38  1  6
 16 39  1  0
 17 18  1  0
 17 22  2  0
 18 19  2  0
 18 40  1  0
 19 20  1  0
 19 41  1  0
 20 21  2  0
 20 23  1  0
 21 22  1  0
 21 42  1  0
 22 43  1  0
 23 24  1  0
 23 44  1  1
 23 45  1  0
 24 25  1  0
 24 26  1  0
 24 54  1  1
 25 46  1  6
 25 47  1  0
 25 48  1  0
 26 49  1  6
 26 50  1  0
 26 51  1  0
 27 28  2  0
 27 52  1  0
 28 53  1  0
M  CHG  1  24   1
M  END
>  <s_epik_cmdline>  (912) 
J2VwaWtfcHl0aG9uJywgJy1waCcsICc3LjAwMDAwMCcsICctcGh0JywgJzIuMDAwMDAwJywgJy1tcycsICcxNicsICctdG4nLCAnOCcsICctbWEnLCAnMjAwJywgJy1pbWFlJywgJzxpbmZpbGUubWFlPicsICctb21hZScsICc8b3V0ZmlsZS5tYWU+Jw==

>  <s_epik_input>  (912) 
W2NIXTFbY0hdW2NIXVtjSF1jKFtPSF0pYzFOKFtDSDNdKUMoPU8pYzJzW2NIXVtjSF1jMltOSF1bQ0gyXWMzW2NIXVtjSF1jKFtjSF1bY0hdMylbQ0gyXU4oW0NIM10pW0NIM10=

>  <s_i_glide_gridfile>  (912) 
ATP-Grid

>  <s_lp_Force_Field>  (912) 
OPLS_2005

>  <s_lp_Variant>  (912) 
rxn512b____EMOL714785____EMOL525138____EMOL50155899-1

>  <s_lp_label>  (912) 
2418_sdstereoexpander_1_neutralizer_1_epik_1_stereoizer_1

>  <s_m_source_file>  (912) 
ATP-VSW-LIGPREP-001-in.maegz

>  <s_sd_BIOSOLVEIT.INFINISEE\_QUERY\_NAME>  (912) 
Ref-Lig

>  <s_sd_BIOSOLVEIT.INFINISEE\_QUERY\_SMILES>  (912) 
S(c1nc2c(cc1C[NH2+]Cc3ccc(cc3)C[NH+](C)C)cccc2)Cc4ccccc4

>  <s_sd_BIOSOLVEIT.INFINISEE\_REACTION\_NAME>  (912) 
rxn512b

>  <s_sd_BIOSOLVEIT.INFINISEE\_REAGENT1\_NAME>  (912) 
EMOL714785

>  <s_sd_BIOSOLVEIT.INFINISEE\_REAGENT1\_SMILES>  (912) 
Oc1c(NC)cccc1

>  <s_sd_BIOSOLVEIT.INFINISEE\_REAGENT2\_NAME>  (912) 
EMOL525138

>  <s_sd_BIOSOLVEIT.INFINISEE\_REAGENT2\_SMILES>  (912) 
BrC1=C(SC=C1)C(=O)O

>  <s_sd_BIOSOLVEIT.INFINISEE\_REAGENT3\_NAME>  (912) 
EMOL50155899

>  <s_sd_BIOSOLVEIT.INFINISEE\_REAGENT3\_SMILES>  (912) 
N(Cc1ccc(cc1)CN)(C)C

>  <s_sd_BIOSOLVEIT.INFINISEE\_SPACE>  (912) 
eXplore_7tr_2022-12

>  <s_vsw_compound_code>  (912) 
77345

>  <s_vsw_variant>  (912) 
77345-1

>  <r_epik_Charging_Adjusted_Penalty>  (912) 
0.080189274810459593

>  <r_epik_Ionization_Penalty>  (912) 
0.042799999999999998

>  <r_epik_Ionization_Penalty_Charging>  (912) 
0.040099999999999997

>  <r_epik_Ionization_Penalty_Neutral>  (912) 
0.0027000000000000001

>  <r_epik_State_Penalty>  (912) 
0.040099999999999997

>  <r_i_docking_score>  (912) 
-4.6807749025160001

>  <r_i_glide_ecoul>  (912) 
-13.328820228576699

>  <r_i_glide_eff_state_penalty>  (912) 
0.040099999999999997

>  <r_i_glide_einternal>  (912) 
8.5222969055175799

>  <r_i_glide_emodel>  (912) 
-55.394099899329703

>  <r_i_glide_energy>  (912) 
-42.274895668029799

>  <r_i_glide_erotb>  (912) 
0.87106186913735095

>  <r_i_glide_esite>  (912) 
-0.107082808449356

>  <r_i_glide_evdw>  (912) 
-28.9460754394531

>  <r_i_glide_gscore>  (912) 
-4.7208749025159999

>  <r_i_glide_hbond>  (912) 
-0.35999999999999999

>  <r_i_glide_ligand_efficiency>  (912) 
-0.167170532232714

>  <r_i_glide_ligand_efficiency_ln>  (912) 
-1.0804602810236901

>  <r_i_glide_ligand_efficiency_sa>  (912) 
-0.50762819403660497

>  <r_i_glide_lipo>  (912) 
-0.59184700870850804

>  <r_i_glide_metal>  (912) 
-0

>  <r_i_glide_rewards>  (912) 
-1.08638014823633

>  <r_lp_Energy>  (912) 
38.503867

>  <r_lp_tautomer_probability>  (912) 
0.99999274205004296

>  <r_qp_ACxDN^.5/SA>  (912) 
0.0082410000000000001

>  <r_qp_CIQPlogS>  (912) 
-3.879

>  <r_qp_EA(eV)>  (912) 
0.19400000000000001

>  <r_qp_FISA>  (912) 
72.058999999999997

>  <r_qp_FOSA>  (912) 
297.178

>  <r_qp_IP(eV)>  (912) 
8.1869999999999994

>  <r_qp_Jm>  (912) 
0.00159953268912542

>  <r_qp_PISA>  (912) 
298.48899999999998

>  <r_qp_PSA>  (912) 
65.489999999999995

>  <r_qp_PercentHumanOralAbsorption>  (912) 
87.131

>  <r_qp_QPPCaco>  (912) 
127.752

>  <r_qp_QPPMDCK>  (912) 
95.620999999999995

>  <r_qp_QPlogBB>  (912) 
0.23499999999999999

>  <r_qp_QPlogHERG>  (912) 
-7.3479999999999999

>  <r_qp_QPlogKhsa>  (912) 
0.63700000000000001

>  <r_qp_QPlogKp>  (912) 
-5.1529999999999996

>  <r_qp_QPlogPC16>  (912) 
13.19

>  <r_qp_QPlogPo/w>  (912) 
3.8399999999999999

>  <r_qp_QPlogPoct>  (912) 
18.896999999999998

>  <r_qp_QPlogPw>  (912) 
9.2929999999999993

>  <r_qp_QPlogS>  (912) 
-3.2400000000000002

>  <r_qp_QPpolrz>  (912) 
42.893999999999998

>  <r_qp_SASA>  (912) 
697.72799999999995

>  <r_qp_SAamideO>  (912) 
0

>  <r_qp_SAfluorine>  (912) 
0

>  <r_qp_WPSA>  (912) 
30.003

>  <r_qp_accptHB>  (912) 
5.75

>  <r_qp_dip^2/V>  (912) 
0.022348099999999999

>  <r_qp_dipole>  (912) 
5.3540000000000001

>  <r_qp_donorHB>  (912) 
1

>  <r_qp_glob>  (912) 
0.81827689999999997

>  <r_qp_mol_MW>  (912) 
395.51799999999997

>  <r_qp_volume>  (912) 
1282.72

>  <r_sd_BIOSOLVEIT.INFINISEE\_FTREES\_SIMILARITY>  (912) 
0.91700000000000004

>  <r_sd_BIOSOLVEIT.LOGP>  (912) 
2.9868999999999999

>  <r_sd_BIOSOLVEIT.MOLECULAR\_WEIGHT>  (912) 
396.53100000000001

>  <r_sd_BIOSOLVEIT.TPSA>  (912) 
57.009999999999998

>  <i_epik_Tot_Q>  (912) 
1

>  <i_epik_Tot_abs_Q>  (912) 
1

>  <i_f3d_flags>  (912) 
0

>  <i_i_glide_confnum>  (912) 
8

>  <i_i_glide_lignum>  (912) 
928

>  <i_i_glide_posenum>  (912) 
16

>  <i_i_glide_rotatable_bonds>  (912) 
9

>  <i_lp_mmshare_version>  (912) 
65135

>  <i_m_ct_format>  (912) 
2

>  <i_m_source_file_index>  (912) 
2418

>  <i_qp_#NandO>  (912) 
5

>  <i_qp_#acid>  (912) 
0

>  <i_qp_#amide>  (912) 
0

>  <i_qp_#amidine>  (912) 
0

>  <i_qp_#amine>  (912) 
2

>  <i_qp_#in34>  (912) 
0

>  <i_qp_#in56>  (912) 
17

>  <i_qp_#metab>  (912) 
7

>  <i_qp_#nonHatm>  (912) 
28

>  <i_qp_#noncon>  (912) 
0

>  <i_qp_#ringatoms>  (912) 
17

>  <i_qp_#rotor>  (912) 
8

>  <i_qp_#rtvFG>  (912) 
0

>  <i_qp_#stars>  (912) 
0

>  <i_qp_CNS>  (912) 
1

>  <i_qp_HumanOralAbsorption>  (912) 
3

>  <i_qp_RuleOfFive>  (912) 
0

>  <i_qp_RuleOfThree>  (912) 
1

>  <i_sd_BIOSOLVEIT.INFINISEE\_RESULT\_RANK>  (912) 
22240

>  <i_sd_version>  (912) 
0

>  <b_lp_Chiralities_Consistent>  (912) 
1

>  <b_sd_chiral_flag>  (912) 
0

>  <canonical_id>  (912) 
ATP-HTVS-91559CC1A0CF

>  <compound_code>  (912) 
77345

>  <title>  (912) 
rxn512b____EMOL714785____EMOL525138____EMOL50155899

>  <variant>  (912) 
77345-1

>  <source_file>  (912) 
运行/运行/ATP-VSW/ATP-VSW-DOCK_HTVS_1-001_lib/ATP-VSW-DOCK_HTVS_1-001_lib

>  <canonical_smiles>  (912) 
CN(C(=O)c1sccc1NCc1ccc(C[NH+](C)C)cc1)c1ccccc1O

>  <scaffold>  (912) 
O=C(Nc1ccccc1)c1sccc1NCc1ccccc1

>  <molecular_formula>  (912) 
C22H26N3O2S+

$$$$
ATP-HTVS-915EA674EB52
     RDKit          3D

 65 68  0  0  0  0  0  0  0  0999 V2000
  197.9475  184.3812  147.3917 S   0  0  0  0  0  0  0  0  0  0  0  0
  198.1076  184.6195  149.1035 C   0  0  0  0  0  0  0  0  0  0  0  0
  197.7192  183.6083  150.0102 C   0  0  0  0  0  0  0  0  0  0  0  0
  197.8291  183.8281  151.4055 C   0  0  0  0  0  0  0  0  0  0  0  0
  198.3671  185.0487  151.8714 C   0  0  0  0  0  0  0  0  0  0  0  0
  198.7534  186.0519  150.9666 C   0  0  0  0  0  0  0  0  0  0  0  0
  198.6264  185.8364  149.5845 C   0  0  0  0  0  0  0  0  0  0  0  0
  197.3972  182.7661  152.3732 C   0  0  0  0  0  0  0  0  0  0  0  0
  196.4636  182.0071  152.1237 O   0  0  0  0  0  0  0  0  0  0  0  0
  198.1640  182.6757  153.4780 N   0  0  0  0  0  0  0  0  0  0  0  0
  198.2194  181.5624  154.3485 C   0  0  0  0  0  0  0  0  0  0  0  0
  197.8147  181.7064  155.7228 C   0  0  0  0  0  0  0  0  0  0  0  0
  197.3127  182.9236  156.2205 N   0  0  0  0  0  0  0  0  0  0  0  0
  197.8655  183.3605  157.5147 C   0  0  1  0  0  0  0  0  0  0  0  0
  196.9436  184.1245  158.4252 C   0  0  0  0  0  0  0  0  0  0  0  0
  197.4029  185.2984  159.0743 C   0  0  0  0  0  0  0  0  0  0  0  0
  196.5026  186.1523  159.7527 C   0  0  0  0  0  0  0  0  0  0  0  0
  195.1729  185.7243  159.9689 C   0  0  0  0  0  0  0  0  0  0  0  0
  194.7303  184.5355  159.3608 C   0  0  0  0  0  0  0  0  0  0  0  0
  195.6036  183.7399  158.6073 C   0  0  0  0  0  0  0  0  0  0  0  0
  196.9471  187.5307  160.2375 C   0  0  1  0  0  0  0  0  0  0  0  0
  196.6996  188.6374  159.2673 N   0  0  1  0  0  0  0  0  0  0  0  0
  197.0994  189.9703  159.8144 C   0  0  1  0  0  0  0  0  0  0  0  0
  196.3462  190.3596  161.0971 C   0  0  2  0  0  0  0  0  0  0  0  0
  197.2870  188.4178  157.8973 C   0  0  1  0  0  0  0  0  0  0  0  0
  196.5422  187.3548  157.0164 C   0  0  2  0  0  0  0  0  0  0  0  0
  197.9335  180.5888  156.5610 C   0  0  0  0  0  0  0  0  0  0  0  0
  198.4897  179.4369  156.1619 N   0  0  0  0  0  0  0  0  0  0  0  0
  198.9310  179.2691  154.8644 C   0  0  0  0  0  0  0  0  0  0  0  0
  198.7993  180.3271  153.9462 C   0  0  0  0  0  0  0  0  0  0  0  0
  199.2920  180.1352  152.6134 C   0  0  0  0  0  0  0  0  0  0  0  0
  199.8563  178.9077  152.2427 C   0  0  0  0  0  0  0  0  0  0  0  0
  199.9666  177.8586  153.1648 C   0  0  0  0  0  0  0  0  0  0  0  0
  199.5119  178.0405  154.4968 C   0  0  0  0  0  0  0  0  0  0  0  0
  197.3351  182.6692  149.6323 H   0  0  0  0  0  0  0  0  0  0  0  0
  198.4687  185.2358  152.9278 H   0  0  0  0  0  0  0  0  0  0  0  0
  199.1431  186.9883  151.3345 H   0  0  0  0  0  0  0  0  0  0  0  0
  198.9286  186.6256  148.9131 H   0  0  0  0  0  0  0  0  0  0  0  0
  198.9029  183.3557  153.5698 H   0  0  0  0  0  0  0  0  0  0  0  0
  197.1406  183.6411  155.5210 H   0  0  0  0  0  0  0  0  0  0  0  0
  198.1795  182.5191  158.1190 H   0  0  0  0  0  0  0  0  0  0  0  0
  198.7707  183.9338  157.2896 H   0  0  0  0  0  0  0  0  0  0  0  0
  198.4014  185.6760  158.8300 H   0  0  0  0  0  0  0  0  0  0  0  0
  194.4720  186.3746  160.4398 H   0  0  0  0  0  0  0  0  0  0  0  0
  193.7025  184.2262  159.4906 H   0  0  0  0  0  0  0  0  0  0  0  0
  195.2375  182.8563  158.1115 H   0  0  0  0  0  0  0  0  0  0  0  0
  196.4127  187.7255  161.1679 H   0  0  0  0  0  0  0  0  0  0  0  0
  198.0137  187.5153  160.4701 H   0  0  0  0  0  0  0  0  0  0  0  0
  198.1758  190.0112  159.9903 H   0  0  0  0  0  0  0  0  0  0  0  0
  196.8944  190.7518  159.0760 H   0  0  0  0  0  0  0  0  0  0  0  0
  196.5139  191.4071  161.3554 H   0  0  0  0  0  0  0  0  0  0  0  0
  196.6767  189.7714  161.9537 H   0  0  0  0  0  0  0  0  0  0  0  0
  195.2715  190.2209  160.9769 H   0  0  0  0  0  0  0  0  0  0  0  0
  197.2533  189.3899  157.3352 H   0  0  0  0  0  0  0  0  0  0  0  0
  198.3644  188.1886  158.0110 H   0  0  0  0  0  0  0  0  0  0  0  0
  197.0905  187.1916  156.0680 H   0  0  0  0  0  0  0  0  0  0  0  0
  195.4577  187.5885  156.9103 H   0  0  0  0  0  0  0  0  0  0  0  0
  196.4995  186.4276  157.3827 H   0  0  0  0  0  0  0  0  0  0  0  0
  197.6281  180.5547  157.5982 H   0  0  0  0  0  0  0  0  0  0  0  0
  199.2401  180.9157  151.8788 H   0  0  0  0  0  0  0  0  0  0  0  0
  200.2087  178.7775  151.2263 H   0  0  0  0  0  0  0  0  0  0  0  0
  200.3887  176.9151  152.8678 H   0  0  0  0  0  0  0  0  0  0  0  0
  199.5807  177.2258  155.1966 H   0  0  0  0  0  0  0  0  0  0  0  0
  195.6977  188.7155  159.1300 H   0  0  0  0  0  0  0  0  0  0  0  0
  198.5166  178.6524  156.7969 H   0  0  0  0  0  0  0  0  0  0  0  0
  1  2  1  0
  2  3  2  0
  2  7  1  0
  3  4  1  0
  3 35  1  0
  4  5  2  0
  4  8  1  0
  5  6  1  0
  5 36  1  0
  6  7  2  0
  6 37  1  0
  7 38  1  0
  8  9  2  0
  8 10  1  0
 10 11  1  0
 10 39  1  0
 11 12  2  0
 11 30  1  0
 12 13  1  0
 12 27  1  0
 13 14  1  0
 13 40  1  0
 14 15  1  0
 14 41  1  1
 14 42  1  0
 15 16  2  0
 15 20  1  0
 16 17  1  0
 16 43  1  0
 17 18  2  0
 17 21  1  0
 18 19  1  0
 18 44  1  0
 19 20  2  0
 19 45  1  0
 20 46  1  0
 21 22  1  0
 21 47  1  1
 21 48  1  0
 22 23  1  0
 22 25  1  0
 22 64  1  6
 23 24  1  0
 23 49  1  1
 23 50  1  0
 24 51  1  1
 24 52  1  0
 24 53  1  0
 25 26  1  0
 25 54  1  6
 25 55  1  0
 26 56  1  6
 26 57  1  0
 26 58  1  0
 27 28  2  0
 27 59  1  0
 28 29  1  0
 28 65  1  0
 29 30  1  0
 29 34  2  0
 30 31  2  0
 31 32  1  0
 31 60  1  0
 32 33  2  0
 32 61  1  0
 33 34  1  0
 33 62  1  0
 34 63  1  0
M  CHG  3   1  -1  22   1  28   1
M  END
>  <s_epik_cmdline>  (913) 
J2VwaWtfcHl0aG9uJywgJy1waCcsICc3LjAwMDAwMCcsICctcGh0JywgJzIuMDAwMDAwJywgJy1tcycsICcxNicsICctdG4nLCAnOCcsICctbWEnLCAnMjAwJywgJy1pbWFlJywgJzxpbmZpbGUubWFlPicsICctb21hZScsICc8b3V0ZmlsZS5tYWU+Jw==

>  <s_epik_input>  (913) 
W1NIXWMxW2NIXWMoW2NIXVtjSF1bY0hdMSlDKD1PKVtOSF1jKGMoYzIzKVtjSF1bY0hdW2NIXVtjSF0zKWMoW2NIXW4yKVtOSF1bQ0gyXWM0W2NIXWMoW2NIXVtjSF1bY0hdNClbQ0gyXU4oW0NIMl1bQ0gzXSlbQ0gyXVtDSDNd

>  <s_i_glide_gridfile>  (913) 
ATP-Grid

>  <s_lp_Force_Field>  (913) 
OPLS_2005

>  <s_lp_Variant>  (913) 
rxn502b____EMOL509335____EMOL13728749____EMOL44153840-2

>  <s_lp_label>  (913) 
2377_sdstereoexpander_1_neutralizer_1_epik_2_stereoizer_1

>  <s_m_source_file>  (913) 
ATP-VSW-LIGPREP-001-in.maegz

>  <s_sd_BIOSOLVEIT.INFINISEE\_QUERY\_NAME>  (913) 
Ref-Lig

>  <s_sd_BIOSOLVEIT.INFINISEE\_QUERY\_SMILES>  (913) 
S(c1nc2c(cc1C[NH2+]Cc3ccc(cc3)C[NH+](C)C)cccc2)Cc4ccccc4

>  <s_sd_BIOSOLVEIT.INFINISEE\_REACTION\_NAME>  (913) 
rxn502b

>  <s_sd_BIOSOLVEIT.INFINISEE\_REAGENT1\_NAME>  (913) 
EMOL509335

>  <s_sd_BIOSOLVEIT.INFINISEE\_REAGENT1\_SMILES>  (913) 
Sc1cc(ccc1)C(=O)O

>  <s_sd_BIOSOLVEIT.INFINISEE\_REAGENT2\_NAME>  (913) 
EMOL13728749

>  <s_sd_BIOSOLVEIT.INFINISEE\_REAGENT2\_SMILES>  (913) 
Brc1c(N)c2c(nc1)cccc2

>  <s_sd_BIOSOLVEIT.INFINISEE\_REAGENT3\_NAME>  (913) 
EMOL44153840

>  <s_sd_BIOSOLVEIT.INFINISEE\_REAGENT3\_SMILES>  (913) 
N(Cc1cc(ccc1)CN)(CC)CC

>  <s_sd_BIOSOLVEIT.INFINISEE\_SPACE>  (913) 
eXplore_7tr_2022-12

>  <s_vsw_compound_code>  (913) 
76033

>  <s_vsw_variant>  (913) 
76033-2

>  <r_epik_Charging_Adjusted_Penalty>  (913) 
3.3133029515892698

>  <r_epik_Ionization_Penalty>  (913) 
1.6558999999999999

>  <r_epik_Ionization_Penalty_Charging>  (913) 
1.6558999999999999

>  <r_epik_Ionization_Penalty_Neutral>  (913) 
0

>  <r_epik_State_Penalty>  (913) 
1.6574

>  <r_i_docking_score>  (913) 
-3.12601315930246

>  <r_i_glide_ecoul>  (913) 
-6.9160938262939498

>  <r_i_glide_eff_state_penalty>  (913) 
1.6574

>  <r_i_glide_einternal>  (913) 
4.7632088661193803

>  <r_i_glide_emodel>  (913) 
-62.119120345608401

>  <r_i_glide_energy>  (913) 
-44.378934860229499

>  <r_i_glide_erotb>  (913) 
0.72698640941454296

>  <r_i_glide_esite>  (913) 
-0.14236911525903101

>  <r_i_glide_evdw>  (913) 
-37.462841033935497

>  <r_i_glide_gscore>  (913) 
-4.7834131593024596

>  <r_i_glide_hbond>  (913) 
-0.163137518177355

>  <r_i_glide_ligand_efficiency>  (913) 
-0.091941563508895902

>  <r_i_glide_ligand_efficiency_ln>  (913) 
-0.69062398858905505

>  <r_i_glide_ligand_efficiency_sa>  (913) 
-0.29785497382120801

>  <r_i_glide_lipo>  (913) 
-2.1009591278215698

>  <r_i_glide_metal>  (913) 
-0

>  <r_i_glide_rewards>  (913) 
-0.19337768181818099

>  <r_lp_Energy>  (913) 
33.419713000000002

>  <r_qp_ACxDN^.5/SA>  (913) 
0.017039800000000001

>  <r_qp_CIQPlogS>  (913) 
-6.125

>  <r_qp_EA(eV)>  (913) 
0.96899999999999997

>  <r_qp_FISA>  (913) 
61.002000000000002

>  <r_qp_FOSA>  (913) 
192.262

>  <r_qp_IP(eV)>  (913) 
8.3160000000000007

>  <r_qp_Jm>  (913) 
0.40724717442962699

>  <r_qp_PISA>  (913) 
366.101

>  <r_qp_PSA>  (913) 
59.040999999999997

>  <r_qp_PercentHumanOralAbsorption>  (913) 
100

>  <r_qp_QPPCaco>  (913) 
652.11099999999999

>  <r_qp_QPPMDCK>  (913) 
813.31299999999999

>  <r_qp_QPlogBB>  (913) 
-0.0030000000000000001

>  <r_qp_QPlogHERG>  (913) 
-6

>  <r_qp_QPlogKhsa>  (913) 
0.58099999999999996

>  <r_qp_QPlogKp>  (913) 
-2.4569999999999999

>  <r_qp_QPlogPC16>  (913) 
15.176

>  <r_qp_QPlogPo/w>  (913) 
4.6159999999999997

>  <r_qp_QPlogPoct>  (913) 
24.09

>  <r_qp_QPlogPw>  (913) 
13.092000000000001

>  <r_qp_QPlogS>  (913) 
-3.6059999999999999

>  <r_qp_QPpolrz>  (913) 
46.590000000000003

>  <r_qp_SASA>  (913) 
687.40499999999997

>  <r_qp_SAamideO>  (913) 
0

>  <r_qp_SAfluorine>  (913) 
0

>  <r_qp_WPSA>  (913) 
68.040000000000006

>  <r_qp_accptHB>  (913) 
7

>  <r_qp_dip^2/V>  (913) 
0.0329377

>  <r_qp_dipole>  (913) 
6.7690000000000001

>  <r_qp_donorHB>  (913) 
2.7999999999999998

>  <r_qp_glob>  (913) 
0.87667879999999998

>  <r_qp_mol_MW>  (913) 
470.63099999999997

>  <r_qp_volume>  (913) 
1391.0160000000001

>  <r_sd_BIOSOLVEIT.INFINISEE\_FTREES\_SIMILARITY>  (913) 
0.91900000000000004

>  <r_sd_BIOSOLVEIT.LOGP>  (913) 
5.1928000000000001

>  <r_sd_BIOSOLVEIT.MOLECULAR\_WEIGHT>  (913) 
471.64499999999998

>  <r_sd_BIOSOLVEIT.TPSA>  (913) 
58.460000000000001

>  <i_epik_Tot_Q>  (913) 
1

>  <i_epik_Tot_abs_Q>  (913) 
3

>  <i_f3d_flags>  (913) 
0

>  <i_i_glide_confnum>  (913) 
10

>  <i_i_glide_lignum>  (913) 
882

>  <i_i_glide_posenum>  (913) 
3

>  <i_i_glide_rotatable_bonds>  (913) 
10

>  <i_lp_mmshare_version>  (913) 
65135

>  <i_m_ct_format>  (913) 
2

>  <i_m_source_file_index>  (913) 
2377

>  <i_qp_#NandO>  (913) 
5

>  <i_qp_#acid>  (913) 
0

>  <i_qp_#amide>  (913) 
0

>  <i_qp_#amidine>  (913) 
0

>  <i_qp_#amine>  (913) 
1

>  <i_qp_#in34>  (913) 
0

>  <i_qp_#in56>  (913) 
22

>  <i_qp_#metab>  (913) 
7

>  <i_qp_#nonHatm>  (913) 
34

>  <i_qp_#noncon>  (913) 
0

>  <i_qp_#ringatoms>  (913) 
22

>  <i_qp_#rotor>  (913) 
10

>  <i_qp_#rtvFG>  (913) 
1

>  <i_qp_#stars>  (913) 
0

>  <i_qp_CNS>  (913) 
0

>  <i_qp_HumanOralAbsorption>  (913) 
3

>  <i_qp_RuleOfFive>  (913) 
0

>  <i_qp_RuleOfThree>  (913) 
1

>  <i_sd_BIOSOLVEIT.INFINISEE\_RESULT\_RANK>  (913) 
18208

>  <i_sd_version>  (913) 
0

>  <b_lp_Chiralities_Consistent>  (913) 
1

>  <b_sd_chiral_flag>  (913) 
0

>  <canonical_id>  (913) 
ATP-HTVS-915EA674EB52

>  <compound_code>  (913) 
76033

>  <title>  (913) 
rxn502b____EMOL509335____EMOL13728749____EMOL44153840

>  <variant>  (913) 
76033-2

>  <source_file>  (913) 
运行/运行/ATP-VSW/ATP-VSW-DOCK_HTVS_1-001_lib/ATP-VSW-DOCK_HTVS_1-001_lib

>  <canonical_smiles>  (913) 
CC[NH+](CC)Cc1cccc(CNc2c[nH+]c3ccccc3c2NC(=O)c2cccc([S-])c2)c1

>  <scaffold>  (913) 
O=C(Nc1c(NCc2ccccc2)c[nH+]c2ccccc12)c1ccccc1

>  <molecular_formula>  (913) 
C28H31N4OS+

$$$$
ATP-HTVS-917D65E68C1C
     RDKit          3D

 60 62  0  0  0  0  0  0  0  0999 V2000
  196.3511  184.2398  149.8334 Cl  0  0  0  0  0  0  0  0  0  0  0  0
  197.1086  182.8639  150.5521 C   0  0  0  0  0  0  0  0  0  0  0  0
  196.8118  182.5070  151.8778 C   0  0  0  0  0  0  0  0  0  0  0  0
  197.4320  181.3833  152.4566 C   0  0  0  0  0  0  0  0  0  0  0  0
  198.3544  180.5965  151.7153 C   0  0  0  0  0  0  0  0  0  0  0  0
  199.0110  179.4026  152.3265 C   0  0  0  0  0  0  0  0  0  0  0  0
  198.8574  179.2042  153.6328 N   0  0  0  0  0  0  0  0  0  0  0  0
  199.4692  178.1575  154.2268 C   0  0  0  0  0  0  0  0  0  0  0  0
  200.2518  177.2706  153.4726 C   0  0  0  0  0  0  0  0  0  0  0  0
  200.3346  177.5380  152.0935 C   0  0  0  0  0  0  0  0  0  0  0  0
  199.7333  178.5958  151.5264 N   0  0  0  0  0  0  0  0  0  0  0  0
  201.1105  176.6273  151.1747 C   0  0  2  0  0  0  0  0  0  0  0  0
  199.2843  177.9879  155.7281 C   0  0  1  0  0  0  0  0  0  0  0  0
  200.3612  178.6699  156.5126 N   0  0  2  0  0  0  0  0  0  0  0  0
  200.6295  180.0964  156.1252 C   0  0  1  0  0  0  0  0  0  0  0  0
  199.5275  181.0803  156.5166 C   0  0  0  0  0  0  0  0  0  0  0  0
  198.1896  180.9044  156.0863 C   0  0  0  0  0  0  0  0  0  0  0  0
  197.1802  181.7714  156.4808 C   0  0  0  0  0  0  0  0  0  0  0  0
  197.4791  182.8344  157.3546 C   0  0  0  0  0  0  0  0  0  0  0  0
  198.8049  183.0657  157.7680 C   0  0  0  0  0  0  0  0  0  0  0  0
  199.8299  182.1999  157.3289 C   0  0  0  0  0  0  0  0  0  0  0  0
  196.3376  183.7018  157.8279 C   0  0  1  0  0  0  0  0  0  0  0  0
  195.1363  182.9422  158.2741 N   0  0  2  0  0  0  0  0  0  0  0  0
  194.1197  183.8519  158.8441 C   0  0  2  0  0  0  0  0  0  0  0  0
  195.4237  181.8178  159.2029 C   0  0  2  0  0  0  0  0  0  0  0  0
  201.6266  177.8875  156.5950 C   0  0  1  0  0  0  0  0  0  0  0  0
  201.4743  176.3912  156.9464 C   0  0  2  0  0  0  0  0  0  0  0  0
  198.6450  180.9808  150.3835 C   0  0  0  0  0  0  0  0  0  0  0  0
  198.0290  182.0999  149.8051 C   0  0  0  0  0  0  0  0  0  0  0  0
  196.1064  183.0921  152.4494 H   0  0  0  0  0  0  0  0  0  0  0  0
  197.1866  181.1339  153.4746 H   0  0  0  0  0  0  0  0  0  0  0  0
  200.7384  176.4187  153.9100 H   0  0  0  0  0  0  0  0  0  0  0  0
  201.3285  175.6768  151.6663 H   0  0  0  0  0  0  0  0  0  0  0  0
  202.0544  177.1059  150.8964 H   0  0  0  0  0  0  0  0  0  0  0  0
  200.5316  176.4223  150.2662 H   0  0  0  0  0  0  0  0  0  0  0  0
  198.3259  178.3617  156.0646 H   0  0  0  0  0  0  0  0  0  0  0  0
  199.2110  176.9240  155.9574 H   0  0  0  0  0  0  0  0  0  0  0  0
  201.5564  180.4247  156.5920 H   0  0  0  0  0  0  0  0  0  0  0  0
  200.8449  180.2103  155.0653 H   0  0  0  0  0  0  0  0  0  0  0  0
  197.8201  180.0960  155.4951 H   0  0  0  0  0  0  0  0  0  0  0  0
  196.1655  181.5634  156.1701 H   0  0  0  0  0  0  0  0  0  0  0  0
  199.0402  183.8918  158.4314 H   0  0  0  0  0  0  0  0  0  0  0  0
  200.8423  182.3676  157.6791 H   0  0  0  0  0  0  0  0  0  0  0  0
  196.6925  184.3685  158.6178 H   0  0  0  0  0  0  0  0  0  0  0  0
  196.0791  184.2988  156.9583 H   0  0  0  0  0  0  0  0  0  0  0  0
  194.4931  184.3389  159.7508 H   0  0  0  0  0  0  0  0  0  0  0  0
  193.1971  183.3191  159.0934 H   0  0  0  0  0  0  0  0  0  0  0  0
  193.8650  184.6345  158.1326 H   0  0  0  0  0  0  0  0  0  0  0  0
  195.9313  182.1957  160.0895 H   0  0  0  0  0  0  0  0  0  0  0  0
  196.0636  181.0536  158.7682 H   0  0  0  0  0  0  0  0  0  0  0  0
  194.5021  181.3117  159.4956 H   0  0  0  0  0  0  0  0  0  0  0  0
  202.1946  177.9843  155.6709 H   0  0  0  0  0  0  0  0  0  0  0  0
  202.2191  178.3685  157.3728 H   0  0  0  0  0  0  0  0  0  0  0  0
  202.4451  175.8968  157.0305 H   0  0  0  0  0  0  0  0  0  0  0  0
  200.9245  175.8260  156.1942 H   0  0  0  0  0  0  0  0  0  0  0  0
  200.9580  176.2718  157.8970 H   0  0  0  0  0  0  0  0  0  0  0  0
  199.3519  180.4156  149.7958 H   0  0  0  0  0  0  0  0  0  0  0  0
  198.2550  182.3798  148.7896 H   0  0  0  0  0  0  0  0  0  0  0  0
  194.7104  182.5484  157.4386 H   0  0  0  0  0  0  0  0  0  0  0  0
  200.0210  178.7076  157.4653 H   0  0  0  0  0  0  0  0  0  0  0  0
  1  2  1  0
  2  3  1  0
  2 29  2  0
  3  4  2  0
  3 30  1  0
  4  5  1  0
  4 31  1  0
  5  6  1  0
  5 28  2  0
  6  7  1  0
  6 11  2  0
  7  8  2  0
  8  9  1  0
  8 13  1  0
  9 10  2  0
  9 32  1  0
 10 11  1  0
 10 12  1  0
 12 33  1  1
 12 34  1  0
 12 35  1  0
 13 14  1  0
 13 36  1  1
 13 37  1  0
 14 15  1  0
 14 26  1  0
 14 60  1  1
 15 16  1  0
 15 38  1  1
 15 39  1  0
 16 17  1  0
 16 21  2  0
 17 18  2  0
 17 40  1  0
 18 19  1  0
 18 41  1  0
 19 20  2  0
 19 22  1  0
 20 21  1  0
 20 42  1  0
 21 43  1  0
 22 23  1  0
 22 44  1  1
 22 45  1  0
 23 24  1  0
 23 25  1  0
 23 59  1  6
 24 46  1  1
 24 47  1  0
 24 48  1  0
 25 49  1  1
 25 50  1  0
 25 51  1  0
 26 27  1  0
 26 52  1  6
 26 53  1  0
 27 54  1  1
 27 55  1  0
 27 56  1  0
 28 29  1  0
 28 57  1  0
 29 58  1  0
M  CHG  2  14   1  23   1
M  END
>  <s_epik_cmdline>  (914) 
J2VwaWtfcHl0aG9uJywgJy1waCcsICc3LjAwMDAwMCcsICctcGh0JywgJzIuMDAwMDAwJywgJy1tcycsICcxNicsICctdG4nLCAnOCcsICctbWEnLCAnMjAwJywgJy1pbWFlJywgJzxpbmZpbGUubWFlPicsICctb21hZScsICc8b3V0ZmlsZS5tYWU+Jw==

>  <s_epik_input>  (914) 
Q2xjMVtjSF1bY0hdYyhbY0hdW2NIXTEpLWMybmMoW2NIXWMobjIpW0NIM10pW0NIMl1OKFtDSDJdW0NIM10pW0NIMl1jM1tjSF1bY0hdYyhbY0hdW2NIXTMpW0NIMl1OKFtDSDNdKVtDSDNd

>  <s_i_glide_gridfile>  (914) 
ATP-Grid

>  <s_lp_Force_Field>  (914) 
OPLS_2005

>  <s_lp_Variant>  (914) 
m_2230bec____12332212____7690348-3

>  <s_lp_label>  (914) 
1176_sdstereoexpander_1_neutralizer_1_epik_2_stereoizer_2

>  <s_m_source_file>  (914) 
ATP-VSW-LIGPREP-003-in.maegz

>  <s_sd_BIOSOLVEIT.INFINISEE\_QUERY\_NAME>  (914) 
Ref-Lig

>  <s_sd_BIOSOLVEIT.INFINISEE\_QUERY\_SMILES>  (914) 
S(c1nc2c(cc1C[NH2+]Cc3ccc(cc3)C[NH+](C)C)cccc2)Cc4ccccc4

>  <s_sd_BIOSOLVEIT.INFINISEE\_REACTION\_NAME>  (914) 
m_2230bec

>  <s_sd_BIOSOLVEIT.INFINISEE\_REAGENT1\_SMILES>  (914) 
[R1*]N(Cc1ccc(cc1)CN(C)C)CC

>  <s_sd_BIOSOLVEIT.INFINISEE\_REAGENT2\_SMILES>  (914) 
[R1*]Cc1nc(nc(c1)C)c2ccc(Cl)cc2

>  <s_sd_BIOSOLVEIT.INFINISEE\_SPACE>  (914) 
REALSpace_44bn_2023-08

>  <s_vsw_compound_code>  (914) 
37603

>  <s_vsw_variant>  (914) 
37603-3

>  <r_epik_Charging_Adjusted_Penalty>  (914) 
0.94911222915302196

>  <r_epik_Ionization_Penalty>  (914) 
0.4703

>  <r_epik_Ionization_Penalty_Charging>  (914) 
0.4703

>  <r_epik_Ionization_Penalty_Neutral>  (914) 
0

>  <r_epik_State_Penalty>  (914) 
0.4788

>  <r_i_docking_score>  (914) 
-3.8512169768906301

>  <r_i_glide_ecoul>  (914) 
-12.6963148117065

>  <r_i_glide_eff_state_penalty>  (914) 
0.4788

>  <r_i_glide_einternal>  (914) 
6.4460420608520499

>  <r_i_glide_emodel>  (914) 
-54.226521825649002

>  <r_i_glide_energy>  (914) 
-39.183665275573702

>  <r_i_glide_erotb>  (914) 
0.69998396707271704

>  <r_i_glide_esite>  (914) 
-0.088733141395579002

>  <r_i_glide_evdw>  (914) 
-26.487350463867202

>  <r_i_glide_gscore>  (914) 
-4.3300169768906303

>  <r_i_glide_hbond>  (914) 
-0.134807572301334

>  <r_i_glide_ligand_efficiency>  (914) 
-0.13280058541002199

>  <r_i_glide_ligand_efficiency_ln>  (914) 
-0.88183102927162105

>  <r_i_glide_ligand_efficiency_sa>  (914) 
-0.40800547255818198

>  <r_i_glide_lipo>  (914) 
-0.739396028052418

>  <r_i_glide_metal>  (914) 
-0

>  <r_i_glide_rewards>  (914) 
-0.83824945726467504

>  <r_lp_Energy>  (914) 
18.142427000000001

>  <r_lp_tautomer_probability>  (914) 
1

>  <r_qp_ACxDN^.5/SA>  (914) 
0

>  <r_qp_CIQPlogS>  (914) 
-3.9580000000000002

>  <r_qp_EA(eV)>  (914) 
0.77300000000000002

>  <r_qp_FISA>  (914) 
13.208

>  <r_qp_FOSA>  (914) 
407.71100000000001

>  <r_qp_IP(eV)>  (914) 
9.0839999999999996

>  <r_qp_Jm>  (914) 
0.0015137440357801701

>  <r_qp_PISA>  (914) 
280.68299999999999

>  <r_qp_PSA>  (914) 
27.978999999999999

>  <r_qp_PercentHumanOralAbsorption>  (914) 
100

>  <r_qp_QPPCaco>  (914) 
461.79700000000003

>  <r_qp_QPPMDCK>  (914) 
648.76499999999999

>  <r_qp_QPlogBB>  (914) 
0.91000000000000003

>  <r_qp_QPlogHERG>  (914) 
-7.8529999999999998

>  <r_qp_QPlogKhsa>  (914) 
0.73099999999999998

>  <r_qp_QPlogKp>  (914) 
-4.1310000000000002

>  <r_qp_QPlogPC16>  (914) 
13.904

>  <r_qp_QPlogPo/w>  (914) 
4.9489999999999998

>  <r_qp_QPlogPoct>  (914) 
18.821000000000002

>  <r_qp_QPlogPw>  (914) 
7.75

>  <r_qp_QPlogS>  (914) 
-4.2999999999999998

>  <r_qp_QPpolrz>  (914) 
47.329000000000001

>  <r_qp_SASA>  (914) 
773.28300000000002

>  <r_qp_SAamideO>  (914) 
0

>  <r_qp_SAfluorine>  (914) 
0

>  <r_qp_WPSA>  (914) 
71.680999999999997

>  <r_qp_accptHB>  (914) 
6

>  <r_qp_dip^2/V>  (914) 
0.017356300000000002

>  <r_qp_dipole>  (914) 
4.9249999999999998

>  <r_qp_donorHB>  (914) 
0

>  <r_qp_glob>  (914) 
0.78184319999999996

>  <r_qp_mol_MW>  (914) 
408.97300000000001

>  <r_qp_volume>  (914) 
1397.7819999999999

>  <r_sd_BIOSOLVEIT.INFINISEE\_FTREES\_SIMILARITY>  (914) 
0.91200000000000003

>  <r_sd_BIOSOLVEIT.LOGP>  (914) 
2.3549199999999999

>  <r_sd_BIOSOLVEIT.MOLECULAR\_WEIGHT>  (914) 
410.99000000000001

>  <r_sd_BIOSOLVEIT.TPSA>  (914) 
34.659999999999997

>  <i_epik_Tot_Q>  (914) 
2

>  <i_epik_Tot_abs_Q>  (914) 
2

>  <i_f3d_flags>  (914) 
0

>  <i_i_glide_confnum>  (914) 
2

>  <i_i_glide_lignum>  (914) 
465

>  <i_i_glide_posenum>  (914) 
8

>  <i_i_glide_rotatable_bonds>  (914) 
8

>  <i_lp_mmshare_version>  (914) 
65135

>  <i_m_ct_format>  (914) 
2

>  <i_m_source_file_index>  (914) 
1176

>  <i_qp_#NandO>  (914) 
4

>  <i_qp_#acid>  (914) 
0

>  <i_qp_#amide>  (914) 
0

>  <i_qp_#amidine>  (914) 
0

>  <i_qp_#amine>  (914) 
2

>  <i_qp_#in34>  (914) 
0

>  <i_qp_#in56>  (914) 
18

>  <i_qp_#metab>  (914) 
6

>  <i_qp_#nonHatm>  (914) 
29

>  <i_qp_#noncon>  (914) 
0

>  <i_qp_#ringatoms>  (914) 
18

>  <i_qp_#rotor>  (914) 
8

>  <i_qp_#rtvFG>  (914) 
0

>  <i_qp_#stars>  (914) 
0

>  <i_qp_CNS>  (914) 
2

>  <i_qp_HumanOralAbsorption>  (914) 
3

>  <i_qp_RuleOfFive>  (914) 
0

>  <i_qp_RuleOfThree>  (914) 
0

>  <i_sd_BIOSOLVEIT.INFINISEE\_REAGENT1\_NAME>  (914) 
12332212

>  <i_sd_BIOSOLVEIT.INFINISEE\_REAGENT2\_NAME>  (914) 
7690348

>  <i_sd_BIOSOLVEIT.INFINISEE\_RESULT\_RANK>  (914) 
38573

>  <i_sd_version>  (914) 
0

>  <b_lp_Chiralities_Consistent>  (914) 
1

>  <b_sd_chiral_flag>  (914) 
0

>  <canonical_id>  (914) 
ATP-HTVS-917D65E68C1C

>  <compound_code>  (914) 
37603

>  <title>  (914) 
m_2230bec____12332212____7690348

>  <variant>  (914) 
37603-3

>  <source_file>  (914) 
运行/运行/ATP-VSW/ATP-VSW-DOCK_HTVS_1-003_lib/ATP-VSW-DOCK_HTVS_1-003_lib.mae

>  <canonical_smiles>  (914) 
CC[N@@H+](Cc1ccc(C[NH+](C)C)cc1)Cc1cc(C)nc(-c2ccc(Cl)cc2)n1

>  <scaffold>  (914) 
c1ccc(C[NH2+]Cc2ccnc(-c3ccccc3)n2)cc1

>  <molecular_formula>  (914) 
C24H31ClN4+2

$$$$
ATP-HTVS-917EA3B617CA
     RDKit          3D

 60 63  0  0  0  0  0  0  0  0999 V2000
  196.7484  183.4781  149.1668 F   0  0  0  0  0  0  0  0  0  0  0  0
  197.2091  183.8858  150.3710 C   0  0  0  0  0  0  0  0  0  0  0  0
  196.9494  183.1118  151.5164 C   0  0  0  0  0  0  0  0  0  0  0  0
  197.4414  183.5183  152.7702 C   0  0  0  0  0  0  0  0  0  0  0  0
  197.2023  182.6925  153.8667 N   0  0  0  0  0  0  0  0  0  0  0  0
  198.1764  184.7256  152.8896 C   0  0  0  0  0  0  0  0  0  0  0  0
  198.4361  185.4929  151.7350 C   0  0  0  0  0  0  0  0  0  0  0  0
  197.9542  185.0721  150.4793 C   0  0  0  0  0  0  0  0  0  0  0  0
  198.7175  185.2074  154.2227 C   0  0  1  0  0  0  0  0  0  0  0  0
  197.9055  186.2389  154.8718 N   0  0  0  0  0  0  0  0  0  0  0  0
  198.5146  186.9296  155.9305 C   0  0  0  0  0  0  0  0  0  0  0  0
  198.5693  188.2818  155.8231 N   0  0  0  0  0  0  0  0  0  0  0  0
  199.1207  188.9767  156.8493 C   0  0  0  0  0  0  0  0  0  0  0  0
  199.6026  188.3047  158.0168 C   0  0  0  0  0  0  0  0  0  0  0  0
  199.5741  186.9631  158.0958 N   0  0  0  0  0  0  0  0  0  0  0  0
  198.9960  186.2769  157.0929 C   0  0  0  0  0  0  0  0  0  0  0  0
  198.7687  184.9088  157.2737 N   0  0  0  0  0  0  0  0  0  0  0  0
  198.4894  184.3500  158.5906 C   0  0  1  0  0  0  0  0  0  0  0  0
  197.1394  184.7525  159.2297 C   0  0  0  0  0  0  0  0  0  0  0  0
  196.1340  183.7857  159.5641 C   0  0  0  0  0  0  0  0  0  0  0  0
  194.9212  184.2332  160.1262 C   0  0  0  0  0  0  0  0  0  0  0  0
  194.6663  185.5870  160.3933 C   0  0  0  0  0  0  0  0  0  0  0  0
  193.4920  185.9767  160.9491 F   0  0  0  0  0  0  0  0  0  0  0  0
  195.6468  186.5406  160.0596 C   0  0  0  0  0  0  0  0  0  0  0  0
  196.8778  186.1263  159.5090 C   0  0  0  0  0  0  0  0  0  0  0  0
  196.2811  182.2753  159.2900 C   0  0  1  0  0  0  0  0  0  0  0  0
  195.5903  181.8576  158.0439 N   0  0  1  0  0  0  0  0  0  0  0  0
  194.1129  181.7764  158.1722 C   0  0  2  0  0  0  0  0  0  0  0  0
  196.0463  182.5647  156.8408 C   0  0  2  0  0  0  0  0  0  0  0  0
  200.0740  189.0609  159.1066 C   0  0  0  0  0  0  0  0  0  0  0  0
  200.1642  190.4642  159.0364 C   0  0  0  0  0  0  0  0  0  0  0  0
  199.7651  191.1227  157.8645 C   0  0  0  0  0  0  0  0  0  0  0  0
  199.2370  190.3862  156.7870 C   0  0  0  0  0  0  0  0  0  0  0  0
  196.3825  182.1972  151.4268 H   0  0  0  0  0  0  0  0  0  0  0  0
  197.6416  182.8696  154.7544 H   0  0  0  0  0  0  0  0  0  0  0  0
  196.7384  181.8014  153.7575 H   0  0  0  0  0  0  0  0  0  0  0  0
  199.0164  186.4023  151.8097 H   0  0  0  0  0  0  0  0  0  0  0  0
  198.1593  185.6575  149.5942 H   0  0  0  0  0  0  0  0  0  0  0  0
  198.8320  184.3358  154.8664 H   0  0  0  0  0  0  0  0  0  0  0  0
  199.7324  185.5731  154.0795 H   0  0  0  0  0  0  0  0  0  0  0  0
  197.3470  186.7994  154.2323 H   0  0  0  0  0  0  0  0  0  0  0  0
  198.2587  184.4990  156.5039 H   0  0  0  0  0  0  0  0  0  0  0  0
  198.5858  183.2880  158.4196 H   0  0  0  0  0  0  0  0  0  0  0  0
  199.2893  184.6106  159.2903 H   0  0  0  0  0  0  0  0  0  0  0  0
  194.1589  183.5204  160.3985 H   0  0  0  0  0  0  0  0  0  0  0  0
  195.4680  187.5941  160.2306 H   0  0  0  0  0  0  0  0  0  0  0  0
  197.5748  186.9028  159.3265 H   0  0  0  0  0  0  0  0  0  0  0  0
  197.3125  181.9416  159.2431 H   0  0  0  0  0  0  0  0  0  0  0  0
  195.8451  181.7206  160.1303 H   0  0  0  0  0  0  0  0  0  0  0  0
  193.6691  182.7614  158.3159 H   0  0  0  0  0  0  0  0  0  0  0  0
  193.8396  181.1276  159.0052 H   0  0  0  0  0  0  0  0  0  0  0  0
  193.6502  181.3545  157.2806 H   0  0  0  0  0  0  0  0  0  0  0  0
  195.7763  183.6248  156.9023 H   0  0  0  0  0  0  0  0  0  0  0  0
  195.6136  182.1335  155.9434 H   0  0  0  0  0  0  0  0  0  0  0  0
  197.1403  182.5058  156.7420 H   0  0  0  0  0  0  0  0  0  0  0  0
  200.3467  188.5663  160.0306 H   0  0  0  0  0  0  0  0  0  0  0  0
  200.5505  191.0167  159.8802 H   0  0  0  0  0  0  0  0  0  0  0  0
  199.8799  192.1910  157.7924 H   0  0  0  0  0  0  0  0  0  0  0  0
  198.9198  190.9080  155.8959 H   0  0  0  0  0  0  0  0  0  0  0  0
  195.8421  180.8581  157.8926 H   0  0  0  0  0  0  0  0  0  0  0  0
  1  2  1  0
  2  3  2  0
  2  8  1  0
  3  4  1  0
  3 34  1  0
  4  5  1  0
  4  6  2  0
  5 35  1  0
  5 36  1  0
  6  7  1  0
  6  9  1  0
  7  8  2  0
  7 37  1  0
  8 38  1  0
  9 10  1  0
  9 39  1  1
  9 40  1  0
 10 11  1  0
 10 41  1  0
 11 12  2  0
 11 16  1  0
 12 13  1  0
 13 14  1  0
 13 33  2  0
 14 15  1  0
 14 30  2  0
 15 16  2  0
 16 17  1  0
 17 18  1  0
 17 42  1  0
 18 19  1  0
 18 43  1  6
 18 44  1  0
 19 20  2  0
 19 25  1  0
 20 21  1  0
 20 26  1  0
 21 22  2  0
 21 45  1  0
 22 23  1  0
 22 24  1  0
 24 25  2  0
 24 46  1  0
 25 47  1  0
 26 27  1  0
 26 48  1  6
 26 49  1  0
 27 28  1  0
 27 29  1  0
 27 60  1  6
 28 50  1  1
 28 51  1  0
 28 52  1  0
 29 53  1  1
 29 54  1  0
 29 55  1  0
 30 31  1  0
 30 56  1  0
 31 32  2  0
 31 57  1  0
 32 33  1  0
 32 58  1  0
 33 59  1  0
M  CHG  1  27   1
M  END
>  <s_epik_cmdline>  (915) 
J2VwaWtfcHl0aG9uJywgJy1waCcsICc3LjAwMDAwMCcsICctcGh0JywgJzIuMDAwMDAwJywgJy1tcycsICcxNicsICctdG4nLCAnOCcsICctbWEnLCAnMjAwJywgJy1pbWFlJywgJzxpbmZpbGUubWFlPicsICctb21hZScsICc8b3V0ZmlsZS5tYWU+Jw==

>  <s_epik_input>  (915) 
RmMxW2NIXWMoW05IMl0pYyhbY0hdW2NIXTEpW0NIMl1bTkhdYyhuMiljKG5jKGMyMylbY0hdW2NIXVtjSF1bY0hdMylbTkhdW0NIMl1jNGMoW0NIMl1OKFtDSDNdKVtDSDNdKVtjSF1jKEYpW2NIXVtjSF00

>  <s_i_glide_gridfile>  (915) 
ATP-Grid

>  <s_lp_Force_Field>  (915) 
OPLS_2005

>  <s_lp_Variant>  (915) 
m_282030aaa____21896940____23157418____21938720-1

>  <s_lp_label>  (915) 
1677_sdstereoexpander_1_neutralizer_1_epik_1_stereoizer_1

>  <s_m_source_file>  (915) 
ATP-VSW-LIGPREP-002-in.maegz

>  <s_sd_BIOSOLVEIT.INFINISEE\_QUERY\_NAME>  (915) 
Ref-Lig

>  <s_sd_BIOSOLVEIT.INFINISEE\_QUERY\_SMILES>  (915) 
S(c1nc2c(cc1C[NH2+]Cc3ccc(cc3)C[NH+](C)C)cccc2)Cc4ccccc4

>  <s_sd_BIOSOLVEIT.INFINISEE\_REACTION\_NAME>  (915) 
m_282030aaa

>  <s_sd_BIOSOLVEIT.INFINISEE\_REAGENT1\_SMILES>  (915) 
[R1*]NCc1c(cc(F)cc1)CN(C)C

>  <s_sd_BIOSOLVEIT.INFINISEE\_REAGENT2\_SMILES>  (915) 
[R1*]c1nc2c(nc1[R2*])cccc2

>  <s_sd_BIOSOLVEIT.INFINISEE\_REAGENT3\_SMILES>  (915) 
[R2*]NCc1c(N)cc(F)cc1

>  <s_sd_BIOSOLVEIT.INFINISEE\_SPACE>  (915) 
REALSpace_44bn_2023-08

>  <s_vsw_compound_code>  (915) 
53634

>  <s_vsw_variant>  (915) 
53634-1

>  <r_epik_Charging_Adjusted_Penalty>  (915) 
0.089121335212406394

>  <r_epik_Ionization_Penalty>  (915) 
0.0453

>  <r_epik_Ionization_Penalty_Charging>  (915) 
0.044600000000000001

>  <r_epik_Ionization_Penalty_Neutral>  (915) 
0.00080000000000000004

>  <r_epik_State_Penalty>  (915) 
0.044600000000000001

>  <r_i_docking_score>  (915) 
-5.5567099982746599

>  <r_i_glide_ecoul>  (915) 
-11.7920083999634

>  <r_i_glide_eff_state_penalty>  (915) 
0.044600000000000001

>  <r_i_glide_einternal>  (915) 
7.8493242263793901

>  <r_i_glide_emodel>  (915) 
-58.896985815450201

>  <r_i_glide_energy>  (915) 
-41.733355522155797

>  <r_i_glide_erotb>  (915) 
0.69427824759496803

>  <r_i_glide_esite>  (915) 
-0.15334270218760301

>  <r_i_glide_evdw>  (915) 
-29.941347122192401

>  <r_i_glide_gscore>  (915) 
-5.6013099982746599

>  <r_i_glide_hbond>  (915) 
-0.52000000000000002

>  <r_i_glide_ligand_efficiency>  (915) 
-0.168385151462868

>  <r_i_glide_ligand_efficiency_ln>  (915) 
-1.2357835325117099

>  <r_i_glide_ligand_efficiency_sa>  (915) 
-0.54010115334920805

>  <r_i_glide_lipo>  (915) 
-1.6091293271245399

>  <r_i_glide_metal>  (915) 
-0

>  <r_i_glide_rewards>  (915) 
-0.74724760045336003

>  <r_lp_Energy>  (915) 
27.817246000000001

>  <r_qp_ACxDN^.5/SA>  (915) 
0.0172496

>  <r_qp_CIQPlogS>  (915) 
-5.9779999999999998

>  <r_qp_EA(eV)>  (915) 
0.84899999999999998

>  <r_qp_FISA>  (915) 
70.028000000000006

>  <r_qp_FOSA>  (915) 
202.82300000000001

>  <r_qp_IP(eV)>  (915) 
8.2739999999999991

>  <r_qp_Jm>  (915) 
0.16942723675323801

>  <r_qp_PISA>  (915) 
288.53199999999998

>  <r_qp_PSA>  (915) 
67.894000000000005

>  <r_qp_PercentHumanOralAbsorption>  (915) 
100

>  <r_qp_QPPCaco>  (915) 
535.46100000000001

>  <r_qp_QPPMDCK>  (915) 
860.03200000000004

>  <r_qp_QPlogBB>  (915) 
0.036999999999999998

>  <r_qp_QPlogHERG>  (915) 
-5.5650000000000004

>  <r_qp_QPlogKhsa>  (915) 
0.47699999999999998

>  <r_qp_QPlogKp>  (915) 
-2.992

>  <r_qp_QPlogPC16>  (915) 
12.941000000000001

>  <r_qp_QPlogPo/w>  (915) 
4.1719999999999997

>  <r_qp_QPlogPoct>  (915) 
22.98

>  <r_qp_QPlogPw>  (915) 
12.805999999999999

>  <r_qp_QPlogS>  (915) 
-3.431

>  <r_qp_QPpolrz>  (915) 
42.448

>  <r_qp_SASA>  (915) 
650.74000000000001

>  <r_qp_SAamideO>  (915) 
0

>  <r_qp_SAfluorine>  (915) 
89.356999999999999

>  <r_qp_WPSA>  (915) 
89.356999999999999

>  <r_qp_accptHB>  (915) 
6

>  <r_qp_dip^2/V>  (915) 
0.0212801

>  <r_qp_dipole>  (915) 
5.2389999999999999

>  <r_qp_donorHB>  (915) 
3.5

>  <r_qp_glob>  (915) 
0.88067870000000004

>  <r_qp_mol_MW>  (915) 
448.517

>  <r_qp_volume>  (915) 
1289.999

>  <r_sd_BIOSOLVEIT.INFINISEE\_FTREES\_SIMILARITY>  (915) 
0.90500000000000003

>  <r_sd_BIOSOLVEIT.LOGP>  (915) 
3.3589000000000002

>  <r_sd_BIOSOLVEIT.MOLECULAR\_WEIGHT>  (915) 
449.52600000000001

>  <r_sd_BIOSOLVEIT.TPSA>  (915) 
80.299999999999997

>  <i_epik_Tot_Q>  (915) 
1

>  <i_epik_Tot_abs_Q>  (915) 
1

>  <i_f3d_flags>  (915) 
0

>  <i_i_glide_confnum>  (915) 
5

>  <i_i_glide_lignum>  (915) 
586

>  <i_i_glide_posenum>  (915) 
20

>  <i_i_glide_rotatable_bonds>  (915) 
8

>  <i_lp_mmshare_version>  (915) 
65135

>  <i_m_ct_format>  (915) 
2

>  <i_m_source_file_index>  (915) 
1677

>  <i_qp_#NandO>  (915) 
6

>  <i_qp_#acid>  (915) 
0

>  <i_qp_#amide>  (915) 
0

>  <i_qp_#amidine>  (915) 
0

>  <i_qp_#amine>  (915) 
1

>  <i_qp_#in34>  (915) 
0

>  <i_qp_#in56>  (915) 
22

>  <i_qp_#metab>  (915) 
6

>  <i_qp_#nonHatm>  (915) 
33

>  <i_qp_#noncon>  (915) 
0

>  <i_qp_#ringatoms>  (915) 
22

>  <i_qp_#rotor>  (915) 
9

>  <i_qp_#rtvFG>  (915) 
0

>  <i_qp_#stars>  (915) 
0

>  <i_qp_CNS>  (915) 
1

>  <i_qp_HumanOralAbsorption>  (915) 
3

>  <i_qp_RuleOfFive>  (915) 
0

>  <i_qp_RuleOfThree>  (915) 
0

>  <i_sd_BIOSOLVEIT.INFINISEE\_REAGENT1\_NAME>  (915) 
21896940

>  <i_sd_BIOSOLVEIT.INFINISEE\_REAGENT2\_NAME>  (915) 
23157418

>  <i_sd_BIOSOLVEIT.INFINISEE\_REAGENT3\_NAME>  (915) 
21938720

>  <i_sd_BIOSOLVEIT.INFINISEE\_RESULT\_RANK>  (915) 
70349

>  <i_sd_version>  (915) 
0

>  <b_lp_Chiralities_Consistent>  (915) 
1

>  <b_sd_chiral_flag>  (915) 
0

>  <canonical_id>  (915) 
ATP-HTVS-917EA3B617CA

>  <compound_code>  (915) 
53634

>  <title>  (915) 
m_282030aaa____21896940____23157418____21938720

>  <variant>  (915) 
53634-1

>  <source_file>  (915) 
运行/运行/ATP-VSW/ATP-VSW-DOCK_HTVS_1-002_lib.maegz

>  <canonical_smiles>  (915) 
C[NH+](C)Cc1cc(F)ccc1CNc1nc2ccccc2nc1NCc1ccc(F)cc1N

>  <scaffold>  (915) 
c1ccc(CNc2nc3ccccc3nc2NCc2ccccc2)cc1

>  <molecular_formula>  (915) 
C25H27F2N6+

$$$$
ATP-HTVS-91FB2566E9C6
     RDKit          3D

 64 67  0  0  0  0  0  0  0  0999 V2000
  199.1455  188.9847  152.9424 O   0  0  0  0  0  0  0  0  0  0  0  0
  199.1494  187.7570  152.9395 N   0  0  0  0  0  0  0  0  0  0  0  0
  198.9501  187.0777  151.9373 O   0  0  0  0  0  0  0  0  0  0  0  0
  199.4123  187.0547  154.2132 C   0  0  0  0  0  0  0  0  0  0  0  0
  199.4087  187.7547  155.4419 C   0  0  0  0  0  0  0  0  0  0  0  0
  199.6470  187.0772  156.6561 C   0  0  0  0  0  0  0  0  0  0  0  0
  199.8970  185.6876  156.6572 C   0  0  0  0  0  0  0  0  0  0  0  0
  199.9083  184.9865  155.4353 C   0  0  0  0  0  0  0  0  0  0  0  0
  199.6680  185.6652  154.2253 C   0  0  0  0  0  0  0  0  0  0  0  0
  200.1767  184.9515  157.9603 C   0  0  1  0  0  0  0  0  0  0  0  0
  199.0040  184.6995  158.7861 N   0  0  0  0  0  0  0  0  0  0  0  0
  198.0357  183.7682  158.3763 C   0  0  0  0  0  0  0  0  0  0  0  0
  198.4338  182.7079  157.6443 N   0  0  0  0  0  0  0  0  0  0  0  0
  197.5473  181.7641  157.2995 C   0  0  0  0  0  0  0  0  0  0  0  0
  196.2588  181.8388  157.6301 N   0  0  0  0  0  0  0  0  0  0  0  0
  195.7947  182.9015  158.3239 C   0  0  0  0  0  0  0  0  0  0  0  0
  196.6837  183.9204  158.7433 C   0  0  0  0  0  0  0  0  0  0  0  0
  196.1850  185.0269  159.4729 C   0  0  0  0  0  0  0  0  0  0  0  0
  194.8111  185.1080  159.7693 C   0  0  0  0  0  0  0  0  0  0  0  0
  193.9317  184.1001  159.3299 C   0  0  0  0  0  0  0  0  0  0  0  0
  194.4250  182.9906  158.6146 C   0  0  0  0  0  0  0  0  0  0  0  0
  197.9493  180.6691  156.5695 N   0  0  0  0  0  0  0  0  0  0  0  0
  199.3442  180.2997  156.3634 C   0  0  1  0  0  0  0  0  0  0  0  0
  199.5831  179.4035  155.1578 C   0  0  0  0  0  0  0  0  0  0  0  0
  200.5783  178.4010  155.1945 C   0  0  0  0  0  0  0  0  0  0  0  0
  200.8252  177.6007  154.0546 C   0  0  0  0  0  0  0  0  0  0  0  0
  200.0765  177.8141  152.8813 C   0  0  0  0  0  0  0  0  0  0  0  0
  199.0812  178.8046  152.8436 C   0  0  0  0  0  0  0  0  0  0  0  0
  198.8398  179.6035  153.9749 C   0  0  0  0  0  0  0  0  0  0  0  0
  201.9126  176.5390  154.0824 C   0  0  1  0  0  0  0  0  0  0  0  0
  201.3560  175.1975  154.4230 N   0  0  2  0  0  0  0  0  0  0  0  0
  202.2903  174.3256  155.1792 C   0  0  1  0  0  0  0  0  0  0  0  0
  202.6014  174.8509  156.5910 C   0  0  2  0  0  0  0  0  0  0  0  0
  200.8095  174.4884  153.2341 C   0  0  2  0  0  0  0  0  0  0  0  0
  199.2297  188.8201  155.4566 H   0  0  0  0  0  0  0  0  0  0  0  0
  199.6512  187.6307  157.5856 H   0  0  0  0  0  0  0  0  0  0  0  0
  200.1139  183.9263  155.4227 H   0  0  0  0  0  0  0  0  0  0  0  0
  199.6926  185.1117  153.2995 H   0  0  0  0  0  0  0  0  0  0  0  0
  200.6980  184.0147  157.7508 H   0  0  0  0  0  0  0  0  0  0  0  0
  200.8723  185.5486  158.5514 H   0  0  0  0  0  0  0  0  0  0  0  0
  198.6926  185.4688  159.3579 H   0  0  0  0  0  0  0  0  0  0  0  0
  196.8289  185.8319  159.7962 H   0  0  0  0  0  0  0  0  0  0  0  0
  194.4146  185.9639  160.2954 H   0  0  0  0  0  0  0  0  0  0  0  0
  192.8722  184.1894  159.5276 H   0  0  0  0  0  0  0  0  0  0  0  0
  193.7395  182.2313  158.2595 H   0  0  0  0  0  0  0  0  0  0  0  0
  197.2639  179.9309  156.4653 H   0  0  0  0  0  0  0  0  0  0  0  0
  199.9676  181.1886  156.2373 H   0  0  0  0  0  0  0  0  0  0  0  0
  199.6982  179.8069  157.2689 H   0  0  0  0  0  0  0  0  0  0  0  0
  201.1692  178.2638  156.0918 H   0  0  0  0  0  0  0  0  0  0  0  0
  200.2610  177.2298  151.9937 H   0  0  0  0  0  0  0  0  0  0  0  0
  198.5100  178.9634  151.9409 H   0  0  0  0  0  0  0  0  0  0  0  0
  198.0825  180.3734  153.9217 H   0  0  0  0  0  0  0  0  0  0  0  0
  202.4319  176.5034  153.1220 H   0  0  0  0  0  0  0  0  0  0  0  0
  202.6560  176.8828  154.8026 H   0  0  0  0  0  0  0  0  0  0  0  0
  201.8409  173.3354  155.2778 H   0  0  0  0  0  0  0  0  0  0  0  0
  203.2055  174.1784  154.6054 H   0  0  0  0  0  0  0  0  0  0  0  0
  203.2167  174.1331  157.1406 H   0  0  0  0  0  0  0  0  0  0  0  0
  201.6919  175.0333  157.1665 H   0  0  0  0  0  0  0  0  0  0  0  0
  203.1453  175.7884  156.5589 H   0  0  0  0  0  0  0  0  0  0  0  0
  201.5953  174.3020  152.4988 H   0  0  0  0  0  0  0  0  0  0  0  0
  200.0253  175.0647  152.7422 H   0  0  0  0  0  0  0  0  0  0  0  0
  200.3680  173.5237  153.4987 H   0  0  0  0  0  0  0  0  0  0  0  0
  195.6093  181.0863  157.3813 H   0  0  0  0  0  0  0  0  0  0  0  0
  200.5766  175.3634  155.0429 H   0  0  0  0  0  0  0  0  0  0  0  0
  1  2  1  0
  2  3  2  0
  2  4  1  0
  4  5  1  0
  4  9  2  0
  5  6  2  0
  5 35  1  0
  6  7  1  0
  6 36  1  0
  7  8  2  0
  7 10  1  0
  8  9  1  0
  8 37  1  0
  9 38  1  0
 10 11  1  0
 10 39  1  6
 10 40  1  0
 11 12  1  0
 11 41  1  0
 12 13  2  0
 12 17  1  0
 13 14  1  0
 14 15  2  0
 14 22  1  0
 15 16  1  0
 15 63  1  0
 16 17  1  0
 16 21  2  0
 17 18  2  0
 18 19  1  0
 18 42  1  0
 19 20  2  0
 19 43  1  0
 20 21  1  0
 20 44  1  0
 21 45  1  0
 22 23  1  0
 22 46  1  0
 23 24  1  0
 23 47  1  6
 23 48  1  0
 24 25  2  0
 24 29  1  0
 25 26  1  0
 25 49  1  0
 26 27  2  0
 26 30  1  0
 27 28  1  0
 27 50  1  0
 28 29  2  0
 28 51  1  0
 29 52  1  0
 30 31  1  0
 30 53  1  6
 30 54  1  0
 31 32  1  0
 31 34  1  0
 31 64  1  1
 32 33  1  0
 32 55  1  1
 32 56  1  0
 33 57  1  1
 33 58  1  0
 33 59  1  0
 34 60  1  6
 34 61  1  0
 34 62  1  0
M  CHG  4   1  -1   2   1  15   1  31   1
M  END
>  <s_epik_cmdline>  (916) 
J2VwaWtfcHl0aG9uJywgJy1waCcsICc3LjAwMDAwMCcsICctcGh0JywgJzIuMDAwMDAwJywgJy1tcycsICcxNicsICctdG4nLCAnOCcsICctbWEnLCAnMjAwJywgJy1pbWFlJywgJzxpbmZpbGUubWFlPicsICctb21hZScsICc8b3V0ZmlsZS5tYWU+Jw==

>  <s_epik_input>  (916) 
W08tXVtOK10oPU8pYzFbY0hdW2NIXWMoW2NIXVtjSF0xKVtDSDJdW05IXWMoYyhjMjMpW2NIXVtjSF1bY0hdW2NIXTMpbmMobjIpW05IXVtDSDJdYzRbY0hdYyhbY0hdW2NIXVtjSF00KVtDSDJdTihbQ0gzXSlbQ0gyXVtDSDNd

>  <s_i_glide_gridfile>  (916) 
ATP-Grid

>  <s_lp_Force_Field>  (916) 
OPLS_2005

>  <s_lp_Variant>  (916) 
m_282030aaa____21930070____22360182____21978800-2

>  <s_lp_label>  (916) 
2068_sdstereoexpander_1_neutralizer_1_epik_1_stereoizer_2

>  <s_m_source_file>  (916) 
ATP-VSW-LIGPREP-003-in.maegz

>  <s_sd_BIOSOLVEIT.INFINISEE\_QUERY\_NAME>  (916) 
Ref-Lig

>  <s_sd_BIOSOLVEIT.INFINISEE\_QUERY\_SMILES>  (916) 
S(c1nc2c(cc1C[NH2+]Cc3ccc(cc3)C[NH+](C)C)cccc2)Cc4ccccc4

>  <s_sd_BIOSOLVEIT.INFINISEE\_REACTION\_NAME>  (916) 
m_282030aaa

>  <s_sd_BIOSOLVEIT.INFINISEE\_REAGENT1\_SMILES>  (916) 
[R1*]NCc1cc(ccc1)CN(CC)C

>  <s_sd_BIOSOLVEIT.INFINISEE\_REAGENT2\_SMILES>  (916) 
[R2*]c1nc([R1*])c2c(n1)cccc2

>  <s_sd_BIOSOLVEIT.INFINISEE\_REAGENT3\_SMILES>  (916) 
[R2*]NCc1ccc([N+]([O-])=O)cc1

>  <s_sd_BIOSOLVEIT.INFINISEE\_SPACE>  (916) 
REALSpace_44bn_2023-08

>  <s_vsw_compound_code>  (916) 
66147

>  <s_vsw_variant>  (916) 
66147-2

>  <r_epik_Charging_Adjusted_Penalty>  (916) 
0.089070388984551704

>  <r_epik_Ionization_Penalty>  (916) 
0.044900000000000002

>  <r_epik_Ionization_Penalty_Charging>  (916) 
0.044900000000000002

>  <r_epik_Ionization_Penalty_Neutral>  (916) 
0

>  <r_epik_State_Penalty>  (916) 
0.044200000000000003

>  <r_i_docking_score>  (916) 
-3.6064820451816102

>  <r_i_glide_ecoul>  (916) 
-5.5547862052917498

>  <r_i_glide_eff_state_penalty>  (916) 
0.044200000000000003

>  <r_i_glide_einternal>  (916) 
3.0538306236267099

>  <r_i_glide_emodel>  (916) 
-51.505529523691798

>  <r_i_glide_energy>  (916) 
-37.907950878143303

>  <r_i_glide_erotb>  (916) 
0.76524060150380302

>  <r_i_glide_esite>  (916) 
-0.25111423703730401

>  <r_i_glide_evdw>  (916) 
-32.353164672851598

>  <r_i_glide_gscore>  (916) 
-3.6506820451816102

>  <r_i_glide_hbond>  (916) 
-0.19511367728387799

>  <r_i_glide_ligand_efficiency>  (916) 
-0.106073001328871

>  <r_i_glide_ligand_efficiency_ln>  (916) 
-0.79677304217552203

>  <r_i_glide_ligand_efficiency_sa>  (916) 
-0.34363534649800498

>  <r_i_glide_lipo>  (916) 
-1.1228697988098999

>  <r_i_glide_metal>  (916) 
-0

>  <r_i_glide_rewards>  (916) 
-0.39594876911799198

>  <r_lp_Energy>  (916) 
21.391317000000001

>  <r_qp_ACxDN^.5/SA>  (916) 
0.0109444

>  <r_qp_CIQPlogS>  (916) 
-6.2999999999999998

>  <r_qp_EA(eV)>  (916) 
1.2809999999999999

>  <r_qp_FISA>  (916) 
143.75700000000001

>  <r_qp_FOSA>  (916) 
270.089

>  <r_qp_IP(eV)>  (916) 
8.2520000000000007

>  <r_qp_Jm>  (916) 
0.00028205184772868999

>  <r_qp_PISA>  (916) 
361.464

>  <r_qp_PSA>  (916) 
90.747

>  <r_qp_PercentHumanOralAbsorption>  (916) 
90.143000000000001

>  <r_qp_QPPCaco>  (916) 
107.04000000000001

>  <r_qp_QPPMDCK>  (916) 
48.896999999999998

>  <r_qp_QPlogBB>  (916) 
-1.1479999999999999

>  <r_qp_QPlogHERG>  (916) 
-7.2599999999999998

>  <r_qp_QPlogKhsa>  (916) 
0.88900000000000001

>  <r_qp_QPlogKp>  (916) 
-3.9980000000000002

>  <r_qp_QPlogPC16>  (916) 
15.706

>  <r_qp_QPlogPo/w>  (916) 
4.5890000000000004

>  <r_qp_QPlogPoct>  (916) 
22.963999999999999

>  <r_qp_QPlogPw>  (916) 
11.654999999999999

>  <r_qp_QPlogS>  (916) 
-5.2110000000000003

>  <r_qp_QPpolrz>  (916) 
48.719000000000001

>  <r_qp_SASA>  (916) 
775.31100000000004

>  <r_qp_SAamideO>  (916) 
0

>  <r_qp_SAfluorine>  (916) 
0

>  <r_qp_WPSA>  (916) 
0

>  <r_qp_accptHB>  (916) 
6

>  <r_qp_dip^2/V>  (916) 
0.039184799999999999

>  <r_qp_dipole>  (916) 
7.5259999999999998

>  <r_qp_donorHB>  (916) 
2

>  <r_qp_glob>  (916) 
0.79738569999999998

>  <r_qp_mol_MW>  (916) 
456.54599999999999

>  <r_qp_volume>  (916) 
1445.336

>  <r_sd_BIOSOLVEIT.INFINISEE\_FTREES\_SIMILARITY>  (916) 
0.90100000000000002

>  <r_sd_BIOSOLVEIT.LOGP>  (916) 
3.7968000000000002

>  <r_sd_BIOSOLVEIT.MOLECULAR\_WEIGHT>  (916) 
457.55500000000001

>  <r_sd_BIOSOLVEIT.TPSA>  (916) 
100.09999999999999

>  <i_epik_Tot_Q>  (916) 
2

>  <i_epik_Tot_abs_Q>  (916) 
4

>  <i_f3d_flags>  (916) 
0

>  <i_i_glide_confnum>  (916) 
7

>  <i_i_glide_lignum>  (916) 
767

>  <i_i_glide_posenum>  (916) 
12

>  <i_i_glide_rotatable_bonds>  (916) 
10

>  <i_lp_mmshare_version>  (916) 
65135

>  <i_m_ct_format>  (916) 
2

>  <i_m_source_file_index>  (916) 
2068

>  <i_qp_#NandO>  (916) 
8

>  <i_qp_#acid>  (916) 
0

>  <i_qp_#amide>  (916) 
0

>  <i_qp_#amidine>  (916) 
0

>  <i_qp_#amine>  (916) 
1

>  <i_qp_#in34>  (916) 
0

>  <i_qp_#in56>  (916) 
22

>  <i_qp_#metab>  (916) 
5

>  <i_qp_#nonHatm>  (916) 
34

>  <i_qp_#noncon>  (916) 
0

>  <i_qp_#ringatoms>  (916) 
22

>  <i_qp_#rotor>  (916) 
10

>  <i_qp_#rtvFG>  (916) 
0

>  <i_qp_#stars>  (916) 
0

>  <i_qp_CNS>  (916) 
-2

>  <i_qp_HumanOralAbsorption>  (916) 
3

>  <i_qp_RuleOfFive>  (916) 
0

>  <i_qp_RuleOfThree>  (916) 
0

>  <i_sd_BIOSOLVEIT.INFINISEE\_REAGENT1\_NAME>  (916) 
21930070

>  <i_sd_BIOSOLVEIT.INFINISEE\_REAGENT2\_NAME>  (916) 
22360182

>  <i_sd_BIOSOLVEIT.INFINISEE\_REAGENT3\_NAME>  (916) 
21978800

>  <i_sd_BIOSOLVEIT.INFINISEE\_RESULT\_RANK>  (916) 
95190

>  <i_sd_version>  (916) 
0

>  <b_lp_Chiralities_Consistent>  (916) 
1

>  <b_sd_chiral_flag>  (916) 
0

>  <canonical_id>  (916) 
ATP-HTVS-91FB2566E9C6

>  <compound_code>  (916) 
66147

>  <title>  (916) 
m_282030aaa____21930070____22360182____21978800

>  <variant>  (916) 
66147-2

>  <source_file>  (916) 
运行/运行/ATP-VSW/ATP-VSW-DOCK_HTVS_1-003_lib/ATP-VSW-DOCK_HTVS_1-003_lib.mae

>  <canonical_smiles>  (916) 
CC[N@H+](C)Cc1cccc(CNc2nc(NCc3ccc([N+](=O)[O-])cc3)c3ccccc3[nH+]2)c1

>  <scaffold>  (916) 
c1ccc(CNc2nc(NCc3ccccc3)c3ccccc3[nH+]2)cc1

>  <molecular_formula>  (916) 
C26H30N6O2+2

$$$$
ATP-HTVS-91FE8B97AF5D
     RDKit          3D

 56 58  0  0  0  0  0  0  0  0999 V2000
  198.4476  186.2068  150.5011 S   0  0  0  0  0  0  0  0  0  0  0  0
  198.3331  186.2031  152.2521 C   0  0  0  0  0  0  0  0  0  0  0  0
  197.8414  185.0290  152.7057 C   0  0  0  0  0  0  0  0  0  0  0  0
  197.5729  184.6973  154.0379 N   0  0  0  0  0  0  0  0  0  0  0  0
  198.2546  185.3267  155.1496 C   0  0  1  0  0  0  0  0  0  0  0  0
  197.9561  184.7047  156.5125 C   0  0  0  0  0  0  0  0  0  0  0  0
  197.1233  183.5695  156.6747 C   0  0  0  0  0  0  0  0  0  0  0  0
  196.8361  183.0768  157.9617 C   0  0  0  0  0  0  0  0  0  0  0  0
  197.4040  183.7000  159.0961 C   0  0  0  0  0  0  0  0  0  0  0  0
  198.2498  184.8105  158.9338 C   0  0  0  0  0  0  0  0  0  0  0  0
  198.5319  185.3049  157.6523 C   0  0  0  0  0  0  0  0  0  0  0  0
  195.8952  181.8938  158.1287 C   0  0  1  0  0  0  0  0  0  0  0  0
  194.4503  182.2830  158.1450 N   0  0  2  0  0  0  0  0  0  0  0  0
  194.1159  183.3794  159.0853 C   0  0  2  0  0  0  0  0  0  0  0  0
  193.5683  181.1027  158.3223 C   0  0  2  0  0  0  0  0  0  0  0  0
  197.5786  184.0753  151.6836 C   0  0  0  0  0  0  0  0  0  0  0  0
  197.0642  182.6961  151.8493 C   0  0  0  0  0  0  0  0  0  0  0  0
  195.9867  182.4145  151.3228 O   0  0  0  0  0  0  0  0  0  0  0  0
  197.8066  181.7922  152.5597 N   0  0  0  0  0  0  0  0  0  0  0  0
  197.3185  180.4028  152.7266 C   0  0  1  0  0  0  0  0  0  0  0  0
  197.6090  179.4648  151.5465 C   0  0  0  0  0  0  0  0  0  0  0  0
  198.5719  178.4295  151.6686 C   0  0  0  0  0  0  0  0  0  0  0  0
  198.8177  177.5412  150.5940 C   0  0  0  0  0  0  0  0  0  0  0  0
  198.1166  177.6887  149.3797 C   0  0  0  0  0  0  0  0  0  0  0  0
  198.3413  176.8372  148.3514 F   0  0  0  0  0  0  0  0  0  0  0  0
  197.1676  178.7206  149.2432 C   0  0  0  0  0  0  0  0  0  0  0  0
  196.9012  179.5843  150.3235 C   0  0  0  0  0  0  0  0  0  0  0  0
  199.1457  182.0644  153.1641 C   0  0  2  0  0  0  0  0  0  0  0  0
  197.7972  184.6060  150.4306 C   0  0  0  0  0  0  0  0  0  0  0  0
  198.6501  187.0733  152.8201 H   0  0  0  0  0  0  0  0  0  0  0  0
  197.3246  183.7135  154.1883 H   0  0  0  0  0  0  0  0  0  0  0  0
  199.2949  185.1493  154.9049 H   0  0  0  0  0  0  0  0  0  0  0  0
  198.0745  186.4140  155.1987 H   0  0  0  0  0  0  0  0  0  0  0  0
  196.6617  183.0803  155.8293 H   0  0  0  0  0  0  0  0  0  0  0  0
  197.1713  183.3388  160.0887 H   0  0  0  0  0  0  0  0  0  0  0  0
  198.6667  185.3015  159.7995 H   0  0  0  0  0  0  0  0  0  0  0  0
  199.1833  186.1577  157.5355 H   0  0  0  0  0  0  0  0  0  0  0  0
  196.0649  181.2107  157.2951 H   0  0  0  0  0  0  0  0  0  0  0  0
  196.1481  181.3560  159.0415 H   0  0  0  0  0  0  0  0  0  0  0  0
  194.3564  183.0854  160.1005 H   0  0  0  0  0  0  0  0  0  0  0  0
  193.0562  183.6218  159.0317 H   0  0  0  0  0  0  0  0  0  0  0  0
  194.6554  184.2980  158.8611 H   0  0  0  0  0  0  0  0  0  0  0  0
  193.7164  180.6517  159.2990 H   0  0  0  0  0  0  0  0  0  0  0  0
  193.7647  180.3534  157.5603 H   0  0  0  0  0  0  0  0  0  0  0  0
  192.5240  181.3857  158.2099 H   0  0  0  0  0  0  0  0  0  0  0  0
  197.7781  179.9525  153.6055 H   0  0  0  0  0  0  0  0  0  0  0  0
  196.2528  180.3608  152.9521 H   0  0  0  0  0  0  0  0  0  0  0  0
  199.1218  178.2938  152.5936 H   0  0  0  0  0  0  0  0  0  0  0  0
  199.5372  176.7386  150.7004 H   0  0  0  0  0  0  0  0  0  0  0  0
  196.6203  178.8415  148.3192 H   0  0  0  0  0  0  0  0  0  0  0  0
  196.1363  180.3329  150.1938 H   0  0  0  0  0  0  0  0  0  0  0  0
  199.1375  182.8959  153.8590 H   0  0  0  0  0  0  0  0  0  0  0  0
  199.8990  182.2209  152.3682 H   0  0  0  0  0  0  0  0  0  0  0  0
  199.5364  181.1761  153.6980 H   0  0  0  0  0  0  0  0  0  0  0  0
  197.6232  184.1329  149.4719 H   0  0  0  0  0  0  0  0  0  0  0  0
  194.2353  182.6183  157.2013 H   0  0  0  0  0  0  0  0  0  0  0  0
  1  2  1  0
  1 29  1  0
  2  3  2  0
  2 30  1  0
  3  4  1  0
  3 16  1  0
  4  5  1  0
  4 31  1  0
  5  6  1  0
  5 32  1  6
  5 33  1  0
  6  7  2  0
  6 11  1  0
  7  8  1  0
  7 34  1  0
  8  9  2  0
  8 12  1  0
  9 10  1  0
  9 35  1  0
 10 11  2  0
 10 36  1  0
 11 37  1  0
 12 13  1  0
 12 38  1  6
 12 39  1  0
 13 14  1  0
 13 15  1  0
 13 56  1  6
 14 40  1  1
 14 41  1  0
 14 42  1  0
 15 43  1  1
 15 44  1  0
 15 45  1  0
 16 17  1  0
 16 29  2  0
 17 18  2  0
 17 19  1  0
 19 20  1  0
 19 28  1  0
 20 21  1  0
 20 46  1  1
 20 47  1  0
 21 22  1  0
 21 27  2  0
 22 23  2  0
 22 48  1  0
 23 24  1  0
 23 49  1  0
 24 25  1  0
 24 26  2  0
 26 27  1  0
 26 50  1  0
 27 51  1  0
 28 52  1  1
 28 53  1  0
 28 54  1  0
 29 55  1  0
M  CHG  1  13   1
M  END
>  <s_epik_cmdline>  (917) 
J2VwaWtfcHl0aG9uJywgJy1waCcsICc3LjAwMDAwMCcsICctcGh0JywgJzIuMDAwMDAwJywgJy1tcycsICcxNicsICctdG4nLCAnOCcsICctbWEnLCAnMjAwJywgJy1pbWFlJywgJzxpbmZpbGUubWFlPicsICctb21hZScsICc8b3V0ZmlsZS5tYWU+Jw==

>  <s_epik_input>  (917) 
W2NIXTFbY0hdW2NIXWMoW0NIMl1OKFtDSDNdKVtDSDNdKVtjSF1jMVtDSDJdW05IXWMyW2NIXXNbY0hdYzJDKD1PKU4oW0NIM10pW0NIMl1jM1tjSF1bY0hdYyhGKVtjSF1bY0hdMw==

>  <s_i_glide_gridfile>  (917) 
ATP-Grid

>  <s_lp_Force_Field>  (917) 
OPLS_2005

>  <s_lp_Variant>  (917) 
rxn512b____EMOL523557____EMOL10439745____EMOL2873214-1

>  <s_lp_label>  (917) 
2322_sdstereoexpander_1_neutralizer_1_epik_1_stereoizer_1

>  <s_m_source_file>  (917) 
ATP-VSW-LIGPREP-002-in.maegz

>  <s_sd_BIOSOLVEIT.INFINISEE\_QUERY\_NAME>  (917) 
Ref-Lig

>  <s_sd_BIOSOLVEIT.INFINISEE\_QUERY\_SMILES>  (917) 
S(c1nc2c(cc1C[NH2+]Cc3ccc(cc3)C[NH+](C)C)cccc2)Cc4ccccc4

>  <s_sd_BIOSOLVEIT.INFINISEE\_REACTION\_NAME>  (917) 
rxn512b

>  <s_sd_BIOSOLVEIT.INFINISEE\_REAGENT1\_NAME>  (917) 
EMOL523557

>  <s_sd_BIOSOLVEIT.INFINISEE\_REAGENT1\_SMILES>  (917) 
Fc1ccc(cc1)CNC

>  <s_sd_BIOSOLVEIT.INFINISEE\_REAGENT2\_NAME>  (917) 
EMOL10439745

>  <s_sd_BIOSOLVEIT.INFINISEE\_REAGENT2\_SMILES>  (917) 
BrC=1C(C(=O)O)=CSC1

>  <s_sd_BIOSOLVEIT.INFINISEE\_REAGENT3\_NAME>  (917) 
EMOL2873214

>  <s_sd_BIOSOLVEIT.INFINISEE\_REAGENT3\_SMILES>  (917) 
N(Cc1cc(ccc1)CN)(C)C

>  <s_sd_BIOSOLVEIT.INFINISEE\_SPACE>  (917) 
eXplore_7tr_2022-12

>  <s_vsw_compound_code>  (917) 
74274

>  <s_vsw_variant>  (917) 
74274-1

>  <r_epik_Charging_Adjusted_Penalty>  (917) 
0.086140609825027206

>  <r_epik_Ionization_Penalty>  (917) 
0.043200000000000002

>  <r_epik_Ionization_Penalty_Charging>  (917) 
0.043099999999999999

>  <r_epik_Ionization_Penalty_Neutral>  (917) 
0.0001

>  <r_epik_State_Penalty>  (917) 
0.043099999999999999

>  <r_i_docking_score>  (917) 
-4.73078737167212

>  <r_i_glide_ecoul>  (917) 
-8.3474493026733398

>  <r_i_glide_eff_state_penalty>  (917) 
0.043099999999999999

>  <r_i_glide_einternal>  (917) 
2.9118616580963099

>  <r_i_glide_emodel>  (917) 
-59.824937263723101

>  <r_i_glide_energy>  (917) 
-42.785803794860797

>  <r_i_glide_erotb>  (917) 
0.81107677863442396

>  <r_i_glide_esite>  (917) 
-0.11731820270148401

>  <r_i_glide_evdw>  (917) 
-34.4383544921875

>  <r_i_glide_gscore>  (917) 
-4.77388737167212

>  <r_i_glide_hbond>  (917) 
-0.20000000000000001

>  <r_i_glide_ligand_efficiency>  (917) 
-0.163130599023177

>  <r_i_glide_ligand_efficiency_ln>  (917) 
-1.0832303456958099

>  <r_i_glide_ligand_efficiency_sa>  (917) 
-0.50118888360056602

>  <r_i_glide_lipo>  (917) 
-1.4595813600879901

>  <r_i_glide_metal>  (917) 
-0

>  <r_i_glide_rewards>  (917) 
-0.83402946750669804

>  <r_lp_Energy>  (917) 
23.161387999999999

>  <r_lp_tautomer_probability>  (917) 
0.99999274205267796

>  <r_qp_ACxDN^.5/SA>  (917) 
0

>  <r_qp_CIQPlogS>  (917) 
-4.4160000000000004

>  <r_qp_EA(eV)>  (917) 
0.45600000000000002

>  <r_qp_FISA>  (917) 
45.893999999999998

>  <r_qp_FOSA>  (917) 
213.51599999999999

>  <r_qp_IP(eV)>  (917) 
8.4039999999999999

>  <r_qp_Jm>  (917) 
0.014332977789207699

>  <r_qp_PISA>  (917) 
306.72199999999998

>  <r_qp_PSA>  (917) 
40.692999999999998

>  <r_qp_PercentHumanOralAbsorption>  (917) 
95.263000000000005

>  <r_qp_QPPCaco>  (917) 
226.19800000000001

>  <r_qp_QPPMDCK>  (917) 
405.97699999999998

>  <r_qp_QPlogBB>  (917) 
0.69499999999999995

>  <r_qp_QPlogHERG>  (917) 
-6.7919999999999998

>  <r_qp_QPlogKhsa>  (917) 
0.61499999999999999

>  <r_qp_QPlogKp>  (917) 
-4.6420000000000003

>  <r_qp_QPlogPC16>  (917) 
12.569000000000001

>  <r_qp_QPlogPo/w>  (917) 
4.4710000000000001

>  <r_qp_QPlogPoct>  (917) 
17.106000000000002

>  <r_qp_QPlogPw>  (917) 
6.9039999999999999

>  <r_qp_QPlogS>  (917) 
-2.8159999999999998

>  <r_qp_QPpolrz>  (917) 
42.295000000000002

>  <r_qp_SASA>  (917) 
661.80799999999999

>  <r_qp_SAamideO>  (917) 
0

>  <r_qp_SAfluorine>  (917) 
41.107999999999997

>  <r_qp_WPSA>  (917) 
95.676000000000002

>  <r_qp_accptHB>  (917) 
5

>  <r_qp_dip^2/V>  (917) 
0.016961

>  <r_qp_dipole>  (917) 
4.633

>  <r_qp_donorHB>  (917) 
0

>  <r_qp_glob>  (917) 
0.8550759

>  <r_qp_mol_MW>  (917) 
411.536

>  <r_qp_volume>  (917) 
1265.778

>  <r_sd_BIOSOLVEIT.INFINISEE\_FTREES\_SIMILARITY>  (917) 
0.92200000000000004

>  <r_sd_BIOSOLVEIT.LOGP>  (917) 
3.4159999999999999

>  <r_sd_BIOSOLVEIT.MOLECULAR\_WEIGHT>  (917) 
412.54899999999998

>  <r_sd_BIOSOLVEIT.TPSA>  (917) 
36.780000000000001

>  <i_epik_Tot_Q>  (917) 
1

>  <i_epik_Tot_abs_Q>  (917) 
1

>  <i_f3d_flags>  (917) 
0

>  <i_i_glide_confnum>  (917) 
2

>  <i_i_glide_lignum>  (917) 
935

>  <i_i_glide_posenum>  (917) 
9

>  <i_i_glide_rotatable_bonds>  (917) 
9

>  <i_lp_mmshare_version>  (917) 
65135

>  <i_m_ct_format>  (917) 
2

>  <i_m_source_file_index>  (917) 
2322

>  <i_qp_#NandO>  (917) 
4

>  <i_qp_#acid>  (917) 
0

>  <i_qp_#amide>  (917) 
0

>  <i_qp_#amidine>  (917) 
0

>  <i_qp_#amine>  (917) 
2

>  <i_qp_#in34>  (917) 
0

>  <i_qp_#in56>  (917) 
17

>  <i_qp_#metab>  (917) 
6

>  <i_qp_#nonHatm>  (917) 
29

>  <i_qp_#noncon>  (917) 
0

>  <i_qp_#ringatoms>  (917) 
17

>  <i_qp_#rotor>  (917) 
8

>  <i_qp_#rtvFG>  (917) 
0

>  <i_qp_#stars>  (917) 
0

>  <i_qp_CNS>  (917) 
2

>  <i_qp_HumanOralAbsorption>  (917) 
3

>  <i_qp_RuleOfFive>  (917) 
0

>  <i_qp_RuleOfThree>  (917) 
0

>  <i_sd_BIOSOLVEIT.INFINISEE\_RESULT\_RANK>  (917) 
13490

>  <i_sd_version>  (917) 
0

>  <b_lp_Chiralities_Consistent>  (917) 
1

>  <b_sd_chiral_flag>  (917) 
0

>  <canonical_id>  (917) 
ATP-HTVS-91FE8B97AF5D

>  <compound_code>  (917) 
74274

>  <title>  (917) 
rxn512b____EMOL523557____EMOL10439745____EMOL2873214

>  <variant>  (917) 
74274-1

>  <source_file>  (917) 
运行/运行/ATP-VSW/ATP-VSW-DOCK_HTVS_1-002_lib.maegz

>  <canonical_smiles>  (917) 
CN(Cc1ccc(F)cc1)C(=O)c1cscc1NCc1cccc(C[NH+](C)C)c1

>  <scaffold>  (917) 
O=C(NCc1ccccc1)c1cscc1NCc1ccccc1

>  <molecular_formula>  (917) 
C23H27FN3OS+

$$$$
ATP-HTVS-925A357E73C9
     RDKit          3D

 59 61  0  0  0  0  0  0  0  0999 V2000
  201.2312  173.8849  153.1462 O   0  0  0  0  0  0  0  0  0  0  0  0
  201.1974  174.9825  153.9637 C   0  0  0  0  0  0  0  0  0  0  0  0
  201.3215  174.9170  155.3742 C   0  0  0  0  0  0  0  0  0  0  0  0
  201.2260  176.0857  156.1605 C   0  0  0  0  0  0  0  0  0  0  0  0
  201.0123  177.3376  155.5603 C   0  0  0  0  0  0  0  0  0  0  0  0
  200.9440  177.4189  154.1462 C   0  0  0  0  0  0  0  0  0  0  0  0
  201.0044  176.2503  153.3684 C   0  0  0  0  0  0  0  0  0  0  0  0
  200.8257  178.5587  156.4413 C   0  0  1  0  0  0  0  0  0  0  0  0
  199.6273  179.3191  156.1432 N   0  0  0  0  0  0  0  0  0  0  0  0
  198.6012  178.7643  155.4434 N   0  0  0  0  0  0  0  0  0  0  0  0
  197.6982  179.6863  155.2789 N   0  0  0  0  0  0  0  0  0  0  0  0
  198.1161  180.8536  155.9212 C   0  0  0  0  0  0  0  0  0  0  0  0
  199.3293  180.6178  156.5139 C   0  0  0  0  0  0  0  0  0  0  0  0
  197.2455  182.0634  155.9432 C   0  0  2  0  0  0  0  0  0  0  0  0
  196.0073  181.7377  156.7020 N   0  0  1  0  0  0  0  0  0  0  0  0
  196.1556  181.7537  158.1741 C   0  0  1  0  0  0  0  0  0  0  0  0
  195.9986  183.1495  158.7429 C   0  0  0  0  0  0  0  0  0  0  0  0
  197.0924  184.0412  158.7762 C   0  0  0  0  0  0  0  0  0  0  0  0
  196.9247  185.3564  159.2518 C   0  0  0  0  0  0  0  0  0  0  0  0
  195.6697  185.7586  159.7597 C   0  0  0  0  0  0  0  0  0  0  0  0
  194.5844  184.8610  159.7528 C   0  0  0  0  0  0  0  0  0  0  0  0
  194.7440  183.5619  159.2402 C   0  0  0  0  0  0  0  0  0  0  0  0
  198.0926  186.3281  159.1929 C   0  0  1  0  0  0  0  0  0  0  0  0
  198.1411  187.1277  157.9374 N   0  0  1  0  0  0  0  0  0  0  0  0
  198.3097  186.3233  156.7016 C   0  0  2  0  0  0  0  0  0  0  0  0
  197.0366  188.1076  157.8196 C   0  0  2  0  0  0  0  0  0  0  0  0
  196.9425  182.5458  154.5244 C   0  0  2  0  0  0  0  0  0  0  0  0
  201.4875  172.6338  153.7409 C   0  0  2  0  0  0  0  0  0  0  0  0
  195.2214  182.3060  156.4081 H   0  0  0  0  0  0  0  0  0  0  0  0
  201.4493  173.9901  155.9285 H   0  0  0  0  0  0  0  0  0  0  0  0
  201.2789  175.9913  157.2511 H   0  0  0  0  0  0  0  0  0  0  0  0
  200.8007  178.3665  153.6672 H   0  0  0  0  0  0  0  0  0  0  0  0
  200.8671  176.3034  152.3020 H   0  0  0  0  0  0  0  0  0  0  0  0
  200.7699  178.2549  157.4889 H   0  0  0  0  0  0  0  0  0  0  0  0
  201.7008  179.1932  156.3405 H   0  0  0  0  0  0  0  0  0  0  0  0
  199.9828  181.2132  157.1373 H   0  0  0  0  0  0  0  0  0  0  0  0
  197.7861  182.8850  156.4211 H   0  0  0  0  0  0  0  0  0  0  0  0
  195.3814  181.1272  158.6077 H   0  0  0  0  0  0  0  0  0  0  0  0
  197.1059  181.3210  158.4861 H   0  0  0  0  0  0  0  0  0  0  0  0
  198.0589  183.7319  158.4101 H   0  0  0  0  0  0  0  0  0  0  0  0
  195.5245  186.7628  160.1338 H   0  0  0  0  0  0  0  0  0  0  0  0
  193.6238  185.1707  160.1297 H   0  0  0  0  0  0  0  0  0  0  0  0
  193.9047  182.8812  159.2263 H   0  0  0  0  0  0  0  0  0  0  0  0
  198.0342  186.9906  160.0534 H   0  0  0  0  0  0  0  0  0  0  0  0
  199.0302  185.7742  159.2979 H   0  0  0  0  0  0  0  0  0  0  0  0
  197.4555  185.6709  156.5193 H   0  0  0  0  0  0  0  0  0  0  0  0
  199.2073  185.7067  156.7681 H   0  0  0  0  0  0  0  0  0  0  0  0
  198.4138  186.9672  155.8237 H   0  0  0  0  0  0  0  0  0  0  0  0
  196.0714  187.6128  157.7100 H   0  0  0  0  0  0  0  0  0  0  0  0
  197.1776  188.7484  156.9464 H   0  0  0  0  0  0  0  0  0  0  0  0
  196.9963  188.7539  158.6984 H   0  0  0  0  0  0  0  0  0  0  0  0
  197.8719  182.7693  153.9995 H   0  0  0  0  0  0  0  0  0  0  0  0
  196.3644  183.4677  154.5647 H   0  0  0  0  0  0  0  0  0  0  0  0
  196.3929  181.8037  153.9440 H   0  0  0  0  0  0  0  0  0  0  0  0
  201.5437  171.8158  152.9978 H   0  0  0  0  0  0  0  0  0  0  0  0
  200.6884  172.3891  154.4349 H   0  0  0  0  0  0  0  0  0  0  0  0
  202.4369  172.6501  154.2696 H   0  0  0  0  0  0  0  0  0  0  0  0
  198.9806  187.6812  158.0175 H   0  0  0  0  0  0  0  0  0  0  0  0
  195.7793  180.7748  156.4850 H   0  0  0  0  0  0  0  0  0  0  0  0
  1  2  1  0
  1 28  1  0
  2  3  1  0
  2  7  2  0
  3  4  2  0
  3 30  1  0
  4  5  1  0
  4 31  1  0
  5  6  2  0
  5  8  1  0
  6  7  1  0
  6 32  1  0
  7 33  1  0
  8  9  1  0
  8 34  1  1
  8 35  1  0
  9 10  1  0
  9 13  1  0
 10 11  2  0
 11 12  1  0
 12 13  2  0
 12 14  1  0
 13 36  1  0
 14 15  1  0
 14 27  1  0
 14 37  1  1
 15 16  1  0
 15 29  1  1
 15 59  1  0
 16 17  1  0
 16 38  1  1
 16 39  1  0
 17 18  2  0
 17 22  1  0
 18 19  1  0
 18 40  1  0
 19 20  2  0
 19 23  1  0
 20 21  1  0
 20 41  1  0
 21 22  2  0
 21 42  1  0
 22 43  1  0
 23 24  1  0
 23 44  1  1
 23 45  1  0
 24 25  1  0
 24 26  1  0
 24 58  1  1
 25 46  1  6
 25 47  1  0
 25 48  1  0
 26 49  1  6
 26 50  1  0
 26 51  1  0
 27 52  1  6
 27 53  1  0
 27 54  1  0
 28 55  1  6
 28 56  1  0
 28 57  1  0
M  CHG  2  15   1  24   1
M  END
>  <s_epik_cmdline>  (918) 
J2VwaWtfcHl0aG9uJywgJy1waCcsICc3LjAwMDAwMCcsICctcGh0JywgJzIuMDAwMDAwJywgJy1tcycsICcxNicsICctdG4nLCAnOCcsICctbWEnLCAnMjAwJywgJy1pbWFlJywgJzxpbmZpbGUubWFlPicsICctb21hZScsICc8b3V0ZmlsZS5tYWU+Jw==

>  <s_epik_input>  (918) 
W0NIM11PYzFbY0hdW2NIXWMoW2NIXVtjSF0xKVtDSDJdbjJubmMoW2NIXTIpW0NAQEhdKFtDSDNdKVtOSF1bQ0gyXWMzW2NIXWMoW2NIXVtjSF1bY0hdMylbQ0gyXU4oW0NIM10pW0NIM10=

>  <s_i_glide_gridfile>  (918) 
ATP-Grid

>  <s_lp_Force_Field>  (918) 
OPLS_2005

>  <s_lp_Variant>  (918) 
rxn207____EMOL44467252____EMOL2873214-1

>  <s_lp_label>  (918) 
2612_sdstereoexpander_1_neutralizer_1_epik_1_stereoizer_1

>  <s_m_source_file>  (918) 
ATP-VSW-LIGPREP-001-in.maegz

>  <s_sd_BIOSOLVEIT.INFINISEE\_QUERY\_NAME>  (918) 
Ref-Lig

>  <s_sd_BIOSOLVEIT.INFINISEE\_QUERY\_SMILES>  (918) 
S(c1nc2c(cc1C[NH2+]Cc3ccc(cc3)C[NH+](C)C)cccc2)Cc4ccccc4

>  <s_sd_BIOSOLVEIT.INFINISEE\_REACTION\_NAME>  (918) 
rxn207

>  <s_sd_BIOSOLVEIT.INFINISEE\_REAGENT1\_NAME>  (918) 
EMOL44467252

>  <s_sd_BIOSOLVEIT.INFINISEE\_REAGENT1\_SMILES>  (918) 
O=C(C=1N=NN(C1)Cc2ccc(OC)cc2)C

>  <s_sd_BIOSOLVEIT.INFINISEE\_REAGENT2\_NAME>  (918) 
EMOL2873214

>  <s_sd_BIOSOLVEIT.INFINISEE\_REAGENT2\_SMILES>  (918) 
N(Cc1cc(ccc1)CN)(C)C

>  <s_sd_BIOSOLVEIT.INFINISEE\_SPACE>  (918) 
eXplore_7tr_2022-12

>  <s_vsw_compound_code>  (918) 
83553

>  <s_vsw_variant>  (918) 
83553-1

>  <r_epik_Charging_Adjusted_Penalty>  (918) 
0.59704099617922302

>  <r_epik_Ionization_Penalty>  (918) 
0.3009

>  <r_epik_Ionization_Penalty_Charging>  (918) 
0.3009

>  <r_epik_Ionization_Penalty_Neutral>  (918) 
0

>  <r_epik_State_Penalty>  (918) 
0.29620000000000002

>  <r_i_docking_score>  (918) 
-5.2705029257093496

>  <r_i_glide_ecoul>  (918) 
-10.9697151184082

>  <r_i_glide_eff_state_penalty>  (918) 
0.29620000000000002

>  <r_i_glide_einternal>  (918) 
9.1711301803588903

>  <r_i_glide_emodel>  (918) 
-65.398833652597006

>  <r_i_glide_energy>  (918) 
-45.014400482177699

>  <r_i_glide_erotb>  (918) 
0.933563424691779

>  <r_i_glide_esite>  (918) 
-0.32712007588382302

>  <r_i_glide_evdw>  (918) 
-34.044685363769503

>  <r_i_glide_gscore>  (918) 
-5.5667029257093503

>  <r_i_glide_hbond>  (918) 
-0.29121455907986499

>  <r_i_glide_ligand_efficiency>  (918) 
-0.188232247346763

>  <r_i_glide_ligand_efficiency_ln>  (918) 
-1.21658682394387

>  <r_i_glide_ligand_efficiency_sa>  (918) 
-0.57158396580967297

>  <r_i_glide_lipo>  (918) 
-1.7263840885786499

>  <r_i_glide_metal>  (918) 
-0

>  <r_i_glide_rewards>  (918) 
-0.80785609090908905

>  <r_lp_Energy>  (918) 
19.960184000000002

>  <r_lp_tautomer_probability>  (918) 
1

>  <r_qp_ACxDN^.5/SA>  (918) 
0.0087528999999999992

>  <r_qp_CIQPlogS>  (918) 
-3.1549999999999998

>  <r_qp_EA(eV)>  (918) 
0.154

>  <r_qp_FISA>  (918) 
55.128

>  <r_qp_FOSA>  (918) 
430.48500000000001

>  <r_qp_IP(eV)>  (918) 
9.0470000000000006

>  <r_qp_Jm>  (918) 
0.00083719201014622897

>  <r_qp_PISA>  (918) 
285.55700000000002

>  <r_qp_PSA>  (918) 
58.901000000000003

>  <r_qp_PercentHumanOralAbsorption>  (918) 
89.897000000000006

>  <r_qp_QPPCaco>  (918) 
184.89500000000001

>  <r_qp_QPPMDCK>  (918) 
97.665000000000006

>  <r_qp_QPlogBB>  (918) 
0.19400000000000001

>  <r_qp_QPlogHERG>  (918) 
-8.1140000000000008

>  <r_qp_QPlogKhsa>  (918) 
0.55300000000000005

>  <r_qp_QPlogKp>  (918) 
-4.7910000000000004

>  <r_qp_QPlogPC16>  (918) 
13.606999999999999

>  <r_qp_QPlogPo/w>  (918) 
3.8220000000000001

>  <r_qp_QPlogPoct>  (918) 
19.736999999999998

>  <r_qp_QPlogPw>  (918) 
10.02

>  <r_qp_QPlogS>  (918) 
-3.8660000000000001

>  <r_qp_QPpolrz>  (918) 
44.939999999999998

>  <r_qp_SASA>  (918) 
771.16999999999996

>  <r_qp_SAamideO>  (918) 
0

>  <r_qp_SAfluorine>  (918) 
0

>  <r_qp_WPSA>  (918) 
0

>  <r_qp_accptHB>  (918) 
6.75

>  <r_qp_dip^2/V>  (918) 
0.0284768

>  <r_qp_dipole>  (918) 
6.2069999999999999

>  <r_qp_donorHB>  (918) 
1

>  <r_qp_glob>  (918) 
0.76714110000000002

>  <r_qp_mol_MW>  (918) 
379.50400000000002

>  <r_qp_volume>  (918) 
1352.9760000000001

>  <r_sd_BIOSOLVEIT.INFINISEE\_FTREES\_SIMILARITY>  (918) 
0.91100000000000003

>  <r_sd_BIOSOLVEIT.LOGP>  (918) 
0.80410000000000004

>  <r_sd_BIOSOLVEIT.MOLECULAR\_WEIGHT>  (918) 
381.52100000000002

>  <r_sd_BIOSOLVEIT.TPSA>  (918) 
60.990000000000002

>  <i_epik_Tot_Q>  (918) 
2

>  <i_epik_Tot_abs_Q>  (918) 
2

>  <i_f3d_flags>  (918) 
0

>  <i_i_glide_confnum>  (918) 
8

>  <i_i_glide_lignum>  (918) 
1096

>  <i_i_glide_posenum>  (918) 
11

>  <i_i_glide_rotatable_bonds>  (918) 
9

>  <i_lp_mmshare_version>  (918) 
65135

>  <i_m_ct_format>  (918) 
2

>  <i_m_source_file_index>  (918) 
2612

>  <i_qp_#NandO>  (918) 
6

>  <i_qp_#acid>  (918) 
0

>  <i_qp_#amide>  (918) 
0

>  <i_qp_#amidine>  (918) 
0

>  <i_qp_#amine>  (918) 
2

>  <i_qp_#in34>  (918) 
0

>  <i_qp_#in56>  (918) 
17

>  <i_qp_#metab>  (918) 
7

>  <i_qp_#nonHatm>  (918) 
28

>  <i_qp_#noncon>  (918) 
0

>  <i_qp_#ringatoms>  (918) 
17

>  <i_qp_#rotor>  (918) 
9

>  <i_qp_#rtvFG>  (918) 
0

>  <i_qp_#stars>  (918) 
0

>  <i_qp_CNS>  (918) 
1

>  <i_qp_HumanOralAbsorption>  (918) 
3

>  <i_qp_RuleOfFive>  (918) 
0

>  <i_qp_RuleOfThree>  (918) 
1

>  <i_sd_BIOSOLVEIT.INFINISEE\_RESULT\_RANK>  (918) 
42518

>  <i_sd_version>  (918) 
0

>  <b_lp_Chiralities_Consistent>  (918) 
1

>  <b_sd_chiral_flag>  (918) 
0

>  <canonical_id>  (918) 
ATP-HTVS-925A357E73C9

>  <compound_code>  (918) 
83553

>  <title>  (918) 
rxn207____EMOL44467252____EMOL2873214

>  <variant>  (918) 
83553-1

>  <source_file>  (918) 
运行/运行/ATP-VSW/ATP-VSW-DOCK_HTVS_1-001_lib/ATP-VSW-DOCK_HTVS_1-001_lib

>  <canonical_smiles>  (918) 
COc1ccc(Cn2cc([C@@H](C)[NH2+]Cc3cccc(C[NH+](C)C)c3)nn2)cc1

>  <scaffold>  (918) 
c1ccc(C[NH2+]Cc2cn(Cc3ccccc3)nn2)cc1

>  <molecular_formula>  (918) 
C22H31N5O+2

$$$$
ATP-HTVS-9261E8E7C16B
     RDKit          3D

 61 64  0  0  0  0  0  0  0  0999 V2000
  193.2268  184.2195  159.5691 F   0  0  0  0  0  0  0  0  0  0  0  0
  194.5635  183.9532  159.5493 C   0  0  0  0  0  0  0  0  0  0  0  0
  195.0105  182.7408  158.9752 C   0  0  0  0  0  0  0  0  0  0  0  0
  194.1009  181.7929  158.5187 N   0  0  0  0  0  0  0  0  0  0  0  0
  196.3900  182.4833  158.8790 C   0  0  0  0  0  0  0  0  0  0  0  0
  197.3074  183.4123  159.3863 C   0  0  0  0  0  0  0  0  0  0  0  0
  196.8624  184.5658  160.0248 C   0  0  0  0  0  0  0  0  0  0  0  0
  195.4869  184.8903  160.0484 C   0  0  0  0  0  0  0  0  0  0  0  0
  195.0079  186.2333  160.6041 C   0  0  1  0  0  0  0  0  0  0  0  0
  195.8890  187.3836  160.4790 N   0  0  0  0  0  0  0  0  0  0  0  0
  196.8544  187.5846  159.4991 C   0  0  0  0  0  0  0  0  0  0  0  0
  196.9409  186.7607  158.4452 N   0  0  0  0  0  0  0  0  0  0  0  0
  197.9500  186.8413  157.5943 C   0  0  0  0  0  0  0  0  0  0  0  0
  198.1197  185.8343  156.6336 N   0  0  0  0  0  0  0  0  0  0  0  0
  197.9415  186.1967  155.2222 C   0  0  1  0  0  0  0  0  0  0  0  0
  197.7576  185.0513  154.2359 C   0  0  0  0  0  0  0  0  0  0  0  0
  197.3293  183.7645  154.6319 C   0  0  0  0  0  0  0  0  0  0  0  0
  197.1925  182.7349  153.6742 C   0  0  0  0  0  0  0  0  0  0  0  0
  197.4739  182.9975  152.3159 C   0  0  0  0  0  0  0  0  0  0  0  0
  197.8970  184.2778  151.9159 C   0  0  0  0  0  0  0  0  0  0  0  0
  198.0363  185.2989  152.8752 C   0  0  0  0  0  0  0  0  0  0  0  0
  196.7567  181.3515  154.1218 C   0  0  1  0  0  0  0  0  0  0  0  0
  197.6994  180.7319  155.0900 N   0  0  2  0  0  0  0  0  0  0  0  0
  199.1339  180.8698  154.7298 C   0  0  2  0  0  0  0  0  0  0  0  0
  197.3491  179.3257  155.3719 C   0  0  2  0  0  0  0  0  0  0  0  0
  198.9218  187.8463  157.7392 C   0  0  0  0  0  0  0  0  0  0  0  0
  198.7820  188.7305  158.8351 C   0  0  0  0  0  0  0  0  0  0  0  0
  197.7503  188.5538  159.6965 N   0  0  0  0  0  0  0  0  0  0  0  0
  199.7114  189.7781  159.0483 C   0  0  0  0  0  0  0  0  0  0  0  0
  200.7625  189.9843  158.1151 C   0  0  0  0  0  0  0  0  0  0  0  0
  200.9353  189.0810  157.0347 C   0  0  0  0  0  0  0  0  0  0  0  0
  200.0545  187.9815  156.8767 C   0  0  0  0  0  0  0  0  0  0  0  0
  194.4205  180.8745  158.2269 H   0  0  0  0  0  0  0  0  0  0  0  0
  193.1072  181.9281  158.6428 H   0  0  0  0  0  0  0  0  0  0  0  0
  196.7361  181.5593  158.4072 H   0  0  0  0  0  0  0  0  0  0  0  0
  198.3669  183.2209  159.2999 H   0  0  0  0  0  0  0  0  0  0  0  0
  197.5929  185.2919  160.4366 H   0  0  0  0  0  0  0  0  0  0  0  0
  194.0757  186.5099  160.1230 H   0  0  0  0  0  0  0  0  0  0  0  0
  194.7597  186.1056  161.6580 H   0  0  0  0  0  0  0  0  0  0  0  0
  195.8949  188.0489  161.2342 H   0  0  0  0  0  0  0  0  0  0  0  0
  197.8925  184.8974  156.9077 H   0  0  0  0  0  0  0  0  0  0  0  0
  197.0990  186.8765  155.1352 H   0  0  0  0  0  0  0  0  0  0  0  0
  198.8314  186.7233  154.8922 H   0  0  0  0  0  0  0  0  0  0  0  0
  197.1183  183.5531  155.6703 H   0  0  0  0  0  0  0  0  0  0  0  0
  197.3755  182.2223  151.5743 H   0  0  0  0  0  0  0  0  0  0  0  0
  198.1103  184.4838  150.8765 H   0  0  0  0  0  0  0  0  0  0  0  0
  198.3607  186.2829  152.5627 H   0  0  0  0  0  0  0  0  0  0  0  0
  195.7663  181.4321  154.5757 H   0  0  0  0  0  0  0  0  0  0  0  0
  196.6552  180.7122  153.2448 H   0  0  0  0  0  0  0  0  0  0  0  0
  199.3442  180.3878  153.7741 H   0  0  0  0  0  0  0  0  0  0  0  0
  199.7680  180.4149  155.4919 H   0  0  0  0  0  0  0  0  0  0  0  0
  199.4436  181.9126  154.6585 H   0  0  0  0  0  0  0  0  0  0  0  0
  197.4693  178.7083  154.4823 H   0  0  0  0  0  0  0  0  0  0  0  0
  196.3227  179.2410  155.7282 H   0  0  0  0  0  0  0  0  0  0  0  0
  198.0007  178.9156  156.1398 H   0  0  0  0  0  0  0  0  0  0  0  0
  199.5975  190.4561  159.8942 H   0  0  0  0  0  0  0  0  0  0  0  0
  201.4551  190.8302  158.2429 H   0  0  0  0  0  0  0  0  0  0  0  0
  201.7350  189.2404  156.3161 H   0  0  0  0  0  0  0  0  0  0  0  0
  200.2369  187.3042  156.0578 H   0  0  0  0  0  0  0  0  0  0  0  0
  197.7701  189.1335  160.5453 H   0  0  0  0  0  0  0  0  0  0  0  0
  197.5696  181.2302  155.9599 H   0  0  0  0  0  0  0  0  0  0  0  0
  1  2  1  0
  2  3  2  0
  2  8  1  0
  3  4  1  0
  3  5  1  0
  4 33  1  0
  4 34  1  0
  5  6  2  0
  5 35  1  0
  6  7  1  0
  6 36  1  0
  7  8  2  0
  7 37  1  0
  8  9  1  0
  9 10  1  0
  9 38  1  6
  9 39  1  0
 10 11  1  0
 10 40  1  0
 11 12  1  0
 11 28  2  0
 12 13  2  0
 13 14  1  0
 13 26  1  0
 14 15  1  0
 14 41  1  0
 15 16  1  0
 15 42  1  1
 15 43  1  0
 16 17  2  0
 16 21  1  0
 17 18  1  0
 17 44  1  0
 18 19  2  0
 18 22  1  0
 19 20  1  0
 19 45  1  0
 20 21  2  0
 20 46  1  0
 21 47  1  0
 22 23  1  0
 22 48  1  1
 22 49  1  0
 23 24  1  0
 23 25  1  0
 23 61  1  1
 24 50  1  6
 24 51  1  0
 24 52  1  0
 25 53  1  6
 25 54  1  0
 25 55  1  0
 26 27  1  0
 26 32  2  0
 27 28  1  0
 27 29  2  0
 28 60  1  0
 29 30  1  0
 29 56  1  0
 30 31  2  0
 30 57  1  0
 31 32  1  0
 31 58  1  0
 32 59  1  0
M  CHG  2  23   1  28   1
M  END
>  <s_epik_cmdline>  (919) 
J2VwaWtfcHl0aG9uJywgJy1waCcsICc3LjAwMDAwMCcsICctcGh0JywgJzIuMDAwMDAwJywgJy1tcycsICcxNicsICctdG4nLCAnOCcsICctbWEnLCAnMjAwJywgJy1pbWFlJywgJzxpbmZpbGUubWFlPicsICctb21hZScsICc8b3V0ZmlsZS5tYWU+Jw==

>  <s_epik_input>  (919) 
RmMxYyhbTkgyXSlbY0hdW2NIXVtjSF1jMVtDSDJdW05IXWMobmMoYzIzKVtjSF1bY0hdW2NIXVtjSF0zKW5jMltOSF1bQ0gyXWM0W2NIXWMoW2NIXVtjSF1bY0hdNClbQ0gyXU4oW0NIM10pW0NIM10=

>  <s_i_glide_gridfile>  (919) 
ATP-Grid

>  <s_lp_Force_Field>  (919) 
OPLS_2005

>  <s_lp_Variant>  (919) 
m_282030aaa____21928796____22360182____21970420-1

>  <s_lp_label>  (919) 
1183_sdstereoexpander_1_neutralizer_1_epik_1_stereoizer_1

>  <s_m_source_file>  (919) 
ATP-VSW-LIGPREP-002-in.maegz

>  <s_sd_BIOSOLVEIT.INFINISEE\_QUERY\_NAME>  (919) 
Ref-Lig

>  <s_sd_BIOSOLVEIT.INFINISEE\_QUERY\_SMILES>  (919) 
S(c1nc2c(cc1C[NH2+]Cc3ccc(cc3)C[NH+](C)C)cccc2)Cc4ccccc4

>  <s_sd_BIOSOLVEIT.INFINISEE\_REACTION\_NAME>  (919) 
m_282030aaa

>  <s_sd_BIOSOLVEIT.INFINISEE\_REAGENT1\_SMILES>  (919) 
[R1*]NCc1cc(ccc1)CN(C)C

>  <s_sd_BIOSOLVEIT.INFINISEE\_REAGENT2\_SMILES>  (919) 
[R2*]c1nc([R1*])c2c(n1)cccc2

>  <s_sd_BIOSOLVEIT.INFINISEE\_REAGENT3\_SMILES>  (919) 
[R2*]NCc1c(F)c(N)ccc1

>  <s_sd_BIOSOLVEIT.INFINISEE\_SPACE>  (919) 
REALSpace_44bn_2023-08

>  <s_vsw_compound_code>  (919) 
37826

>  <s_vsw_variant>  (919) 
37826-1

>  <r_epik_Charging_Adjusted_Penalty>  (919) 
0.12692837324988199

>  <r_epik_Ionization_Penalty>  (919) 
0.060999999999999999

>  <r_epik_Ionization_Penalty_Charging>  (919) 
0.0608

>  <r_epik_Ionization_Penalty_Neutral>  (919) 
0.00020000000000000001

>  <r_epik_State_Penalty>  (919) 
0.066100000000000006

>  <r_i_docking_score>  (919) 
-4.2826824489722597

>  <r_i_glide_ecoul>  (919) 
-6.6473293304443404

>  <r_i_glide_eff_state_penalty>  (919) 
0.066100000000000006

>  <r_i_glide_einternal>  (919) 
9.0814104080200195

>  <r_i_glide_emodel>  (919) 
-53.722852334688298

>  <r_i_glide_energy>  (919) 
-39.347757339477504

>  <r_i_glide_erotb>  (919) 
0.74454719589574203

>  <r_i_glide_esite>  (919) 
-0.171137192351036

>  <r_i_glide_evdw>  (919) 
-32.700428009033203

>  <r_i_glide_gscore>  (919) 
-4.3487824489722602

>  <r_i_glide_hbond>  (919) 
-0.10752734684470899

>  <r_i_glide_ligand_efficiency>  (919) 
-0.133833826530383

>  <r_i_glide_ligand_efficiency_ln>  (919) 
-0.95900934183933595

>  <r_i_glide_ligand_efficiency_sa>  (919) 
-0.42489591355565998

>  <r_i_glide_lipo>  (919) 
-1.2763452397961299

>  <r_i_glide_metal>  (919) 
-0

>  <r_i_glide_rewards>  (919) 
-0.90619906585781296

>  <r_lp_Energy>  (919) 
17.580897

>  <r_qp_ACxDN^.5/SA>  (919) 
0.016482

>  <r_qp_CIQPlogS>  (919) 
-5.6219999999999999

>  <r_qp_EA(eV)>  (919) 
0.499

>  <r_qp_FISA>  (919) 
84.918999999999997

>  <r_qp_FOSA>  (919) 
225.155

>  <r_qp_IP(eV)>  (919) 
7.9489999999999998

>  <r_qp_Jm>  (919) 
0.085451589501015501

>  <r_qp_PISA>  (919) 
347.19600000000003

>  <r_qp_PSA>  (919) 
69.745000000000005

>  <r_qp_PercentHumanOralAbsorption>  (919) 
96.254999999999995

>  <r_qp_QPPCaco>  (919) 
386.822

>  <r_qp_QPPMDCK>  (919) 
264.61500000000001

>  <r_qp_QPlogBB>  (919) 
-0.312

>  <r_qp_QPlogHERG>  (919) 
-6.3979999999999997

>  <r_qp_QPlogKhsa>  (919) 
0.47699999999999998

>  <r_qp_QPlogKp>  (919) 
-3.0600000000000001

>  <r_qp_QPlogPC16>  (919) 
13.968

>  <r_qp_QPlogPo/w>  (919) 
3.9279999999999999

>  <r_qp_QPlogPoct>  (919) 
22.908999999999999

>  <r_qp_QPlogPw>  (919) 
13.356999999999999

>  <r_qp_QPlogS>  (919) 
-3.6419999999999999

>  <r_qp_QPpolrz>  (919) 
43.466000000000001

>  <r_qp_SASA>  (919) 
681.04499999999996

>  <r_qp_SAamideO>  (919) 
0

>  <r_qp_SAfluorine>  (919) 
23.774000000000001

>  <r_qp_WPSA>  (919) 
23.774000000000001

>  <r_qp_accptHB>  (919) 
6

>  <r_qp_dip^2/V>  (919) 
0.0107014

>  <r_qp_dipole>  (919) 
3.7320000000000002

>  <r_qp_donorHB>  (919) 
3.5

>  <r_qp_glob>  (919) 
0.84645570000000003

>  <r_qp_mol_MW>  (919) 
430.52699999999999

>  <r_qp_volume>  (919) 
1301.4349999999999

>  <r_sd_BIOSOLVEIT.INFINISEE\_FTREES\_SIMILARITY>  (919) 
0.91200000000000003

>  <r_sd_BIOSOLVEIT.LOGP>  (919) 
3.2198000000000002

>  <r_sd_BIOSOLVEIT.MOLECULAR\_WEIGHT>  (919) 
431.536

>  <r_sd_BIOSOLVEIT.TPSA>  (919) 
80.299999999999997

>  <i_epik_Tot_Q>  (919) 
2

>  <i_epik_Tot_abs_Q>  (919) 
2

>  <i_f3d_flags>  (919) 
0

>  <i_i_glide_confnum>  (919) 
5

>  <i_i_glide_lignum>  (919) 
400

>  <i_i_glide_posenum>  (919) 
19

>  <i_i_glide_rotatable_bonds>  (919) 
8

>  <i_lp_mmshare_version>  (919) 
65135

>  <i_m_ct_format>  (919) 
2

>  <i_m_source_file_index>  (919) 
1183

>  <i_qp_#NandO>  (919) 
6

>  <i_qp_#acid>  (919) 
0

>  <i_qp_#amide>  (919) 
0

>  <i_qp_#amidine>  (919) 
0

>  <i_qp_#amine>  (919) 
1

>  <i_qp_#in34>  (919) 
0

>  <i_qp_#in56>  (919) 
22

>  <i_qp_#metab>  (919) 
7

>  <i_qp_#nonHatm>  (919) 
32

>  <i_qp_#noncon>  (919) 
0

>  <i_qp_#ringatoms>  (919) 
22

>  <i_qp_#rotor>  (919) 
9

>  <i_qp_#rtvFG>  (919) 
0

>  <i_qp_#stars>  (919) 
0

>  <i_qp_CNS>  (919) 
0

>  <i_qp_HumanOralAbsorption>  (919) 
3

>  <i_qp_RuleOfFive>  (919) 
0

>  <i_qp_RuleOfThree>  (919) 
1

>  <i_sd_BIOSOLVEIT.INFINISEE\_REAGENT1\_NAME>  (919) 
21928796

>  <i_sd_BIOSOLVEIT.INFINISEE\_REAGENT2\_NAME>  (919) 
22360182

>  <i_sd_BIOSOLVEIT.INFINISEE\_REAGENT3\_NAME>  (919) 
21970420

>  <i_sd_BIOSOLVEIT.INFINISEE\_RESULT\_RANK>  (919) 
39052

>  <i_sd_version>  (919) 
0

>  <b_lp_Chiralities_Consistent>  (919) 
1

>  <b_sd_chiral_flag>  (919) 
0

>  <canonical_id>  (919) 
ATP-HTVS-9261E8E7C16B

>  <compound_code>  (919) 
37826

>  <title>  (919) 
m_282030aaa____21928796____22360182____21970420

>  <variant>  (919) 
37826-1

>  <source_file>  (919) 
运行/运行/ATP-VSW/ATP-VSW-DOCK_HTVS_1-002_lib.maegz

>  <canonical_smiles>  (919) 
C[NH+](C)Cc1cccc(CNc2nc(NCc3cccc(N)c3F)[nH+]c3ccccc23)c1

>  <scaffold>  (919) 
c1ccc(CNc2nc(NCc3ccccc3)c3ccccc3[nH+]2)cc1

>  <molecular_formula>  (919) 
C25H29FN6+2

$$$$
ATP-HTVS-9279E9D3CA8E
     RDKit          3D

 55 58  0  0  0  0  0  0  0  0999 V2000
  199.1742  177.7375  152.0791 N   0  0  0  0  0  0  0  0  0  0  0  0
  199.9708  176.6694  152.1587 C   0  0  0  0  0  0  0  0  0  0  0  0
  200.2863  175.8989  151.1136 N   0  0  0  0  0  0  0  0  0  0  0  0
  199.7890  176.2170  149.9019 C   0  0  0  0  0  0  0  0  0  0  0  0
  198.9395  177.3421  149.7325 C   0  0  0  0  0  0  0  0  0  0  0  0
  198.6588  178.0918  150.8932 C   0  0  0  0  0  0  0  0  0  0  0  0
  197.8375  179.2322  150.8448 N   0  0  0  0  0  0  0  0  0  0  0  0
  197.3803  179.8870  152.0648 C   0  0  1  0  0  0  0  0  0  0  0  0
  198.4841  180.7084  152.7600 C   0  0  1  0  0  0  0  0  0  0  0  0
  198.0021  181.3415  154.0470 C   0  0  0  0  0  0  0  0  0  0  0  0
  197.5812  182.6834  154.0638 C   0  0  0  0  0  0  0  0  0  0  0  0
  197.1509  183.2748  155.2670 C   0  0  0  0  0  0  0  0  0  0  0  0
  197.1286  182.5204  156.4597 C   0  0  0  0  0  0  0  0  0  0  0  0
  197.5664  181.1774  156.4398 C   0  0  0  0  0  0  0  0  0  0  0  0
  197.9833  180.5842  155.2376 C   0  0  0  0  0  0  0  0  0  0  0  0
  196.6309  183.1391  157.7585 C   0  0  1  0  0  0  0  0  0  0  0  0
  195.1586  183.0071  157.9302 N   0  0  2  0  0  0  0  0  0  0  0  0
  194.6419  183.8688  159.0171 C   0  0  2  0  0  0  0  0  0  0  0  0
  194.6998  181.6132  158.0670 C   0  0  2  0  0  0  0  0  0  0  0  0
  198.4224  177.6665  148.4558 C   0  0  0  0  0  0  0  0  0  0  0  0
  198.7526  176.8741  147.3438 C   0  0  0  0  0  0  0  0  0  0  0  0
  199.5954  175.7548  147.5019 C   0  0  0  0  0  0  0  0  0  0  0  0
  200.1091  175.4382  148.7750 C   0  0  0  0  0  0  0  0  0  0  0  0
  200.5313  176.3159  153.4945 C   0  0  0  0  0  0  0  0  0  0  0  0
  200.2280  177.1222  154.5433 N   0  0  0  0  0  0  0  0  0  0  0  0
  200.7110  176.8228  155.7647 C   0  0  0  0  0  0  0  0  0  0  0  0
  201.5312  175.7079  156.0130 C   0  0  0  0  0  0  0  0  0  0  0  0
  201.8522  174.8638  154.9388 C   0  0  0  0  0  0  0  0  0  0  0  0
  201.3486  175.1704  153.6604 C   0  0  0  0  0  0  0  0  0  0  0  0
  197.4780  179.5471  149.9576 H   0  0  0  0  0  0  0  0  0  0  0  0
  196.5572  180.5512  151.7952 H   0  0  0  0  0  0  0  0  0  0  0  0
  196.9608  179.1410  152.7414 H   0  0  0  0  0  0  0  0  0  0  0  0
  199.3451  180.0971  153.0280 H   0  0  0  0  0  0  0  0  0  0  0  0
  198.8574  181.4756  152.0836 H   0  0  0  0  0  0  0  0  0  0  0  0
  197.5922  183.2626  153.1523 H   0  0  0  0  0  0  0  0  0  0  0  0
  196.8212  184.3038  155.2562 H   0  0  0  0  0  0  0  0  0  0  0  0
  197.5526  180.5779  157.3407 H   0  0  0  0  0  0  0  0  0  0  0  0
  198.2852  179.5449  155.2340 H   0  0  0  0  0  0  0  0  0  0  0  0
  197.1439  182.6898  158.6114 H   0  0  0  0  0  0  0  0  0  0  0  0
  196.9184  184.1938  157.7542 H   0  0  0  0  0  0  0  0  0  0  0  0
  195.0764  183.5891  159.9769 H   0  0  0  0  0  0  0  0  0  0  0  0
  193.5585  183.7754  159.1011 H   0  0  0  0  0  0  0  0  0  0  0  0
  194.8648  184.9208  158.8369 H   0  0  0  0  0  0  0  0  0  0  0  0
  195.1483  181.1335  158.9393 H   0  0  0  0  0  0  0  0  0  0  0  0
  194.9582  181.0573  157.1750 H   0  0  0  0  0  0  0  0  0  0  0  0
  193.6157  181.5635  158.1555 H   0  0  0  0  0  0  0  0  0  0  0  0
  197.7779  178.5163  148.3089 H   0  0  0  0  0  0  0  0  0  0  0  0
  198.3582  177.1160  146.3653 H   0  0  0  0  0  0  0  0  0  0  0  0
  199.8499  175.1424  146.6452 H   0  0  0  0  0  0  0  0  0  0  0  0
  200.7442  174.5713  148.8981 H   0  0  0  0  0  0  0  0  0  0  0  0
  200.4396  177.4914  156.5682 H   0  0  0  0  0  0  0  0  0  0  0  0
  201.9030  175.5085  157.0089 H   0  0  0  0  0  0  0  0  0  0  0  0
  202.4742  173.9945  155.0896 H   0  0  0  0  0  0  0  0  0  0  0  0
  201.5842  174.5285  152.8236 H   0  0  0  0  0  0  0  0  0  0  0  0
  194.7171  183.3073  157.0643 H   0  0  0  0  0  0  0  0  0  0  0  0
  1  2  2  0
  1  6  1  0
  2  3  1  0
  2 24  1  0
  3  4  2  0
  4  5  1  0
  4 23  1  0
  5  6  2  0
  5 20  1  0
  6  7  1  0
  7  8  1  0
  7 30  1  0
  8  9  1  0
  8 31  1  6
  8 32  1  0
  9 10  1  0
  9 33  1  1
  9 34  1  0
 10 11  1  0
 10 15  2  0
 11 12  2  0
 11 35  1  0
 12 13  1  0
 12 36  1  0
 13 14  2  0
 13 16  1  0
 14 15  1  0
 14 37  1  0
 15 38  1  0
 16 17  1  0
 16 39  1  1
 16 40  1  0
 17 18  1  0
 17 19  1  0
 17 55  1  6
 18 41  1  1
 18 42  1  0
 18 43  1  0
 19 44  1  1
 19 45  1  0
 19 46  1  0
 20 21  2  0
 20 47  1  0
 21 22  1  0
 21 48  1  0
 22 23  2  0
 22 49  1  0
 23 50  1  0
 24 25  1  0
 24 29  2  0
 25 26  2  0
 26 27  1  0
 26 51  1  0
 27 28  2  0
 27 52  1  0
 28 29  1  0
 28 53  1  0
 29 54  1  0
M  CHG  1  17   1
M  END
>  <s_epik_cmdline>  (920) 
J2VwaWtfcHl0aG9uJywgJy1waCcsICc3LjAwMDAwMCcsICctcGh0JywgJzIuMDAwMDAwJywgJy1tcycsICcxNicsICctdG4nLCAnOCcsICctbWEnLCAnMjAwJywgJy1pbWFlJywgJzxpbmZpbGUubWFlPicsICctb21hZScsICc8b3V0ZmlsZS5tYWU+Jw==

>  <s_epik_input>  (920) 
W2NIXTFbY0hdW2NIXVtjSF1uYzEtYyhuMiluYyhjKGMyMylbY0hdW2NIXVtjSF1bY0hdMylbTkhdW0NIMl1bQ0gyXWM0W2NIXVtjSF1jKFtjSF1bY0hdNClbQ0gyXU4oW0NIM10pW0NIM10=

>  <s_i_glide_gridfile>  (920) 
ATP-Grid

>  <s_lp_Force_Field>  (920) 
OPLS_2005

>  <s_lp_Variant>  (920) 
m_27bbd____15775612____9316198-1

>  <s_lp_label>  (920) 
824_sdstereoexpander_1_neutralizer_1_epik_1_stereoizer_1

>  <s_m_source_file>  (920) 
ATP-VSW-LIGPREP-001-in.maegz

>  <s_sd_BIOSOLVEIT.INFINISEE\_QUERY\_NAME>  (920) 
Ref-Lig

>  <s_sd_BIOSOLVEIT.INFINISEE\_QUERY\_SMILES>  (920) 
S(c1nc2c(cc1C[NH2+]Cc3ccc(cc3)C[NH+](C)C)cccc2)Cc4ccccc4

>  <s_sd_BIOSOLVEIT.INFINISEE\_REACTION\_NAME>  (920) 
m_27bbd

>  <s_sd_BIOSOLVEIT.INFINISEE\_REAGENT1\_SMILES>  (920) 
[R1*]NCCc1ccc(cc1)CN(C)C

>  <s_sd_BIOSOLVEIT.INFINISEE\_REAGENT2\_SMILES>  (920) 
[R1*]c1nc(nc2c1cccc2)c3ncccc3

>  <s_sd_BIOSOLVEIT.INFINISEE\_SPACE>  (920) 
REALSpace_44bn_2023-08

>  <s_vsw_compound_code>  (920) 
26337

>  <s_vsw_variant>  (920) 
26337-1

>  <r_epik_Charging_Adjusted_Penalty>  (920) 
0.081936508424468604

>  <r_epik_Ionization_Penalty>  (920) 
0.0436

>  <r_epik_Ionization_Penalty_Charging>  (920) 
0.041000000000000002

>  <r_epik_Ionization_Penalty_Neutral>  (920) 
0.0025999999999999999

>  <r_epik_State_Penalty>  (920) 
0.041000000000000002

>  <r_i_docking_score>  (920) 
-4.2582604846503402

>  <r_i_glide_ecoul>  (920) 
-6.2384586334228498

>  <r_i_glide_eff_state_penalty>  (920) 
0.041000000000000002

>  <r_i_glide_einternal>  (920) 
0.39793857932090798

>  <r_i_glide_emodel>  (920) 
-51.679961131397803

>  <r_i_glide_energy>  (920) 
-37.617935180664098

>  <r_i_glide_erotb>  (920) 
0.78910321647901405

>  <r_i_glide_esite>  (920) 
-0.0783126385391789

>  <r_i_glide_evdw>  (920) 
-31.3794765472412

>  <r_i_glide_gscore>  (920) 
-4.2992604846503397

>  <r_i_glide_hbond>  (920) 
-0.192442118216749

>  <r_i_glide_ligand_efficiency>  (920) 
-0.14683656843621901

>  <r_i_glide_ligand_efficiency_ln>  (920) 
-0.97503367081582004

>  <r_i_glide_ligand_efficiency_sa>  (920) 
-0.45112845932620399

>  <r_i_glide_lipo>  (920) 
-1.43142772161697

>  <r_i_glide_metal>  (920) 
-0

>  <r_i_glide_rewards>  (920) 
-0.881438600380962

>  <r_lp_Energy>  (920) 
17.082014000000001

>  <r_lp_tautomer_probability>  (920) 
0.99997800024199801

>  <r_qp_ACxDN^.5/SA>  (920) 
0.0075608999999999997

>  <r_qp_CIQPlogS>  (920) 
-5.0819999999999999

>  <r_qp_EA(eV)>  (920) 
0.97099999999999997

>  <r_qp_FISA>  (920) 
28.853000000000002

>  <r_qp_FOSA>  (920) 
246.93700000000001

>  <r_qp_IP(eV)>  (920) 
8.3870000000000005

>  <r_qp_Jm>  (920) 
0.0412769640317171

>  <r_qp_PISA>  (920) 
451.63900000000001

>  <r_qp_PSA>  (920) 
44.996000000000002

>  <r_qp_PercentHumanOralAbsorption>  (920) 
100

>  <r_qp_QPPCaco>  (920) 
1315.799

>  <r_qp_QPPMDCK>  (920) 
736.30799999999999

>  <r_qp_QPlogBB>  (920) 
0.23499999999999999

>  <r_qp_QPlogHERG>  (920) 
-7.7409999999999997

>  <r_qp_QPlogKhsa>  (920) 
0.78300000000000003

>  <r_qp_QPlogKp>  (920) 
-1.851

>  <r_qp_QPlogPC16>  (920) 
14.026

>  <r_qp_QPlogPo/w>  (920) 
4.9729999999999999

>  <r_qp_QPlogPoct>  (920) 
19.388999999999999

>  <r_qp_QPlogPw>  (920) 
10.076000000000001

>  <r_qp_QPlogS>  (920) 
-5.117

>  <r_qp_QPpolrz>  (920) 
45.921999999999997

>  <r_qp_SASA>  (920) 
727.428

>  <r_qp_SAamideO>  (920) 
0

>  <r_qp_SAfluorine>  (920) 
0

>  <r_qp_WPSA>  (920) 
0

>  <r_qp_accptHB>  (920) 
5.5

>  <r_qp_dip^2/V>  (920) 
0.0038352

>  <r_qp_dipole>  (920) 
2.238

>  <r_qp_donorHB>  (920) 
1

>  <r_qp_glob>  (920) 
0.79424640000000002

>  <r_qp_mol_MW>  (920) 
383.495

>  <r_qp_volume>  (920) 
1305.7819999999999

>  <r_sd_BIOSOLVEIT.INFINISEE\_FTREES\_SIMILARITY>  (920) 
0.92200000000000004

>  <r_sd_BIOSOLVEIT.LOGP>  (920) 
2.9908999999999999

>  <r_sd_BIOSOLVEIT.MOLECULAR\_WEIGHT>  (920) 
384.50400000000002

>  <r_sd_BIOSOLVEIT.TPSA>  (920) 
55.140000000000001

>  <i_epik_Tot_Q>  (920) 
1

>  <i_epik_Tot_abs_Q>  (920) 
1

>  <i_f3d_flags>  (920) 
0

>  <i_i_glide_confnum>  (920) 
4

>  <i_i_glide_lignum>  (920) 
140

>  <i_i_glide_posenum>  (920) 
4

>  <i_i_glide_rotatable_bonds>  (920) 
7

>  <i_lp_mmshare_version>  (920) 
65135

>  <i_m_ct_format>  (920) 
2

>  <i_m_source_file_index>  (920) 
824

>  <i_qp_#NandO>  (920) 
5

>  <i_qp_#acid>  (920) 
0

>  <i_qp_#amide>  (920) 
0

>  <i_qp_#amidine>  (920) 
0

>  <i_qp_#amine>  (920) 
1

>  <i_qp_#in34>  (920) 
0

>  <i_qp_#in56>  (920) 
22

>  <i_qp_#metab>  (920) 
4

>  <i_qp_#nonHatm>  (920) 
29

>  <i_qp_#noncon>  (920) 
0

>  <i_qp_#ringatoms>  (920) 
22

>  <i_qp_#rotor>  (920) 
7

>  <i_qp_#rtvFG>  (920) 
0

>  <i_qp_#stars>  (920) 
1

>  <i_qp_CNS>  (920) 
1

>  <i_qp_HumanOralAbsorption>  (920) 
3

>  <i_qp_RuleOfFive>  (920) 
0

>  <i_qp_RuleOfThree>  (920) 
0

>  <i_sd_BIOSOLVEIT.INFINISEE\_REAGENT1\_NAME>  (920) 
15775612

>  <i_sd_BIOSOLVEIT.INFINISEE\_REAGENT2\_NAME>  (920) 
9316198

>  <i_sd_BIOSOLVEIT.INFINISEE\_RESULT\_RANK>  (920) 
13076

>  <i_sd_version>  (920) 
0

>  <b_lp_Chiralities_Consistent>  (920) 
1

>  <b_sd_chiral_flag>  (920) 
0

>  <canonical_id>  (920) 
ATP-HTVS-9279E9D3CA8E

>  <compound_code>  (920) 
26337

>  <title>  (920) 
m_27bbd____15775612____9316198

>  <variant>  (920) 
26337-1

>  <source_file>  (920) 
运行/运行/ATP-VSW/ATP-VSW-DOCK_HTVS_1-001_lib/ATP-VSW-DOCK_HTVS_1-001_lib

>  <canonical_smiles>  (920) 
C[NH+](C)Cc1ccc(CCNc2nc(-c3ccccn3)nc3ccccc23)cc1

>  <scaffold>  (920) 
c1ccc(CCNc2nc(-c3ccccn3)nc3ccccc23)cc1

>  <molecular_formula>  (920) 
C24H26N5+

$$$$
ATP-HTVS-928F3709654C
     RDKit          3D

 63 66  0  0  0  0  0  0  0  0999 V2000
  199.6065  186.3466  154.4940 O   0  0  0  0  0  0  0  0  0  0  0  0
  198.8941  185.4089  154.1386 C   0  0  0  0  0  0  0  0  0  0  0  0
  198.6782  185.0343  152.8653 N   0  0  0  0  0  0  0  0  0  0  0  0
  199.3198  185.4600  151.6666 C   0  0  0  0  0  0  0  0  0  0  0  0
  200.4286  186.2372  151.7058 N   0  0  0  0  0  0  0  0  0  0  0  0
  201.0298  186.6027  150.5620 C   0  0  0  0  0  0  0  0  0  0  0  0
  200.5541  186.2195  149.3011 C   0  0  0  0  0  0  0  0  0  0  0  0
  199.4066  185.4031  149.2101 C   0  0  0  0  0  0  0  0  0  0  0  0
  198.7695  185.0041  150.4264 C   0  0  0  0  0  0  0  0  0  0  0  0
  197.5629  184.1154  150.4246 C   0  0  0  0  0  0  0  0  0  0  0  0
  196.4724  184.5308  150.0011 O   0  0  0  0  0  0  0  0  0  0  0  0
  197.7276  182.7460  151.0037 C   0  0  0  0  0  0  0  0  0  0  0  0
  199.0039  182.1473  151.1509 C   0  0  0  0  0  0  0  0  0  0  0  0
  199.1260  180.8681  151.7368 C   0  0  0  0  0  0  0  0  0  0  0  0
  197.9749  180.1789  152.1705 C   0  0  0  0  0  0  0  0  0  0  0  0
  196.7025  180.7628  152.0224 C   0  0  0  0  0  0  0  0  0  0  0  0
  196.5846  182.0393  151.4437 C   0  0  0  0  0  0  0  0  0  0  0  0
  198.9470  185.0059  147.8642 C   0  0  0  0  0  0  0  0  0  0  0  0
  199.8203  184.3600  146.9563 C   0  0  0  0  0  0  0  0  0  0  0  0
  199.3745  183.9639  145.6762 C   0  0  0  0  0  0  0  0  0  0  0  0
  198.0386  184.2080  145.2980 C   0  0  0  0  0  0  0  0  0  0  0  0
  197.5646  183.8250  144.0753 O   0  0  0  0  0  0  0  0  0  0  0  0
  197.1708  184.8619  146.1884 C   0  0  0  0  0  0  0  0  0  0  0  0
  197.6255  185.2800  147.4577 C   0  0  0  0  0  0  0  0  0  0  0  0
  200.3243  183.2825  144.7125 C   0  0  2  0  0  0  0  0  0  0  0  0
  198.1535  184.5778  155.1505 C   0  0  0  0  0  0  0  0  0  0  0  0
  197.7959  183.2322  154.8965 C   0  0  0  0  0  0  0  0  0  0  0  0
  197.1125  182.4747  155.8679 C   0  0  0  0  0  0  0  0  0  0  0  0
  196.7905  183.0500  157.1150 C   0  0  0  0  0  0  0  0  0  0  0  0
  197.1556  184.3828  157.3799 C   0  0  0  0  0  0  0  0  0  0  0  0
  197.8229  185.1444  156.4018 C   0  0  0  0  0  0  0  0  0  0  0  0
  196.0609  182.2340  158.1641 C   0  0  1  0  0  0  0  0  0  0  0  0
  194.5965  182.4841  158.1345 N   0  0  2  0  0  0  0  0  0  0  0  0
  194.2020  183.7126  158.8635 C   0  0  2  0  0  0  0  0  0  0  0  0
  193.8111  181.3179  158.5753 C   0  0  2  0  0  0  0  0  0  0  0  0
  197.9927  184.3073  152.7558 H   0  0  0  0  0  0  0  0  0  0  0  0
  201.9014  187.2378  150.6593 H   0  0  0  0  0  0  0  0  0  0  0  0
  201.0699  186.5621  148.4184 H   0  0  0  0  0  0  0  0  0  0  0  0
  199.9028  182.6493  150.8270 H   0  0  0  0  0  0  0  0  0  0  0  0
  200.1041  180.4212  151.8540 H   0  0  0  0  0  0  0  0  0  0  0  0
  198.0671  179.1995  152.6197 H   0  0  0  0  0  0  0  0  0  0  0  0
  195.8158  180.2402  152.3571 H   0  0  0  0  0  0  0  0  0  0  0  0
  195.6069  182.4898  151.3480 H   0  0  0  0  0  0  0  0  0  0  0  0
  200.8467  184.1629  147.2476 H   0  0  0  0  0  0  0  0  0  0  0  0
  198.1981  183.3435  143.5669 H   0  0  0  0  0  0  0  0  0  0  0  0
  196.1464  185.0372  145.9017 H   0  0  0  0  0  0  0  0  0  0  0  0
  196.9455  185.8002  148.1184 H   0  0  0  0  0  0  0  0  0  0  0  0
  200.4181  183.8754  143.8004 H   0  0  0  0  0  0  0  0  0  0  0  0
  199.9473  182.2921  144.4505 H   0  0  0  0  0  0  0  0  0  0  0  0
  201.3167  183.1676  145.1499 H   0  0  0  0  0  0  0  0  0  0  0  0
  198.0544  182.7491  153.9659 H   0  0  0  0  0  0  0  0  0  0  0  0
  196.8534  181.4452  155.6541 H   0  0  0  0  0  0  0  0  0  0  0  0
  196.9442  184.8337  158.3359 H   0  0  0  0  0  0  0  0  0  0  0  0
  198.0994  186.1656  156.6262 H   0  0  0  0  0  0  0  0  0  0  0  0
  196.2822  181.1793  157.9808 H   0  0  0  0  0  0  0  0  0  0  0  0
  196.4608  182.4414  159.1623 H   0  0  0  0  0  0  0  0  0  0  0  0
  194.4480  183.6295  159.9239 H   0  0  0  0  0  0  0  0  0  0  0  0
  193.1295  183.9013  158.7744 H   0  0  0  0  0  0  0  0  0  0  0  0
  194.7044  184.5963  158.4690 H   0  0  0  0  0  0  0  0  0  0  0  0
  194.0694  181.0355  159.5978 H   0  0  0  0  0  0  0  0  0  0  0  0
  193.9563  180.4627  157.9167 H   0  0  0  0  0  0  0  0  0  0  0  0
  192.7454  181.5530  158.5310 H   0  0  0  0  0  0  0  0  0  0  0  0
  194.3367  182.6228  157.1620 H   0  0  0  0  0  0  0  0  0  0  0  0
  1  2  2  0
  2  3  1  0
  2 26  1  0
  3  4  1  0
  3 36  1  0
  4  5  1  0
  4  9  2  0
  5  6  2  0
  6  7  1  0
  6 37  1  0
  7  8  2  0
  7 38  1  0
  8  9  1  0
  8 18  1  0
  9 10  1  0
 10 11  2  0
 10 12  1  0
 12 13  2  0
 12 17  1  0
 13 14  1  0
 13 39  1  0
 14 15  2  0
 14 40  1  0
 15 16  1  0
 15 41  1  0
 16 17  2  0
 16 42  1  0
 17 43  1  0
 18 19  2  0
 18 24  1  0
 19 20  1  0
 19 44  1  0
 20 21  2  0
 20 25  1  0
 21 22  1  0
 21 23  1  0
 22 45  1  0
 23 24  2  0
 23 46  1  0
 24 47  1  0
 25 48  1  6
 25 49  1  0
 25 50  1  0
 26 27  1  0
 26 31  2  0
 27 28  2  0
 27 51  1  0
 28 29  1  0
 28 52  1  0
 29 30  2  0
 29 32  1  0
 30 31  1  0
 30 53  1  0
 31 54  1  0
 32 33  1  0
 32 55  1  6
 32 56  1  0
 33 34  1  0
 33 35  1  0
 33 63  1  6
 34 57  1  1
 34 58  1  0
 34 59  1  0
 35 60  1  1
 35 61  1  0
 35 62  1  0
M  CHG  1  33   1
M  END
>  <s_epik_cmdline>  (921) 
J2VwaWtfcHl0aG9uJywgJy1waCcsICc3LjAwMDAwMCcsICctcGh0JywgJzIuMDAwMDAwJywgJy1tcycsICcxNicsICctdG4nLCAnOCcsICctbWEnLCAnMjAwJywgJy1pbWFlJywgJzxpbmZpbGUubWFlPicsICctb21hZScsICc8b3V0ZmlsZS5tYWU+Jw==

>  <s_epik_input>  (921) 
W0NIM11OKFtDSDNdKVtDSDJdYyhbY0hdW2NIXTEpW2NIXVtjSF1jMUMoPU8pW05IXWMybltjSF1bY0hdYygtYzNbY0hdYyhbQ0gzXSljKFtPSF0pW2NIXVtjSF0zKWMyQyg9TyljNFtjSF1bY0hdW2NIXVtjSF1bY0hdNA==

>  <s_i_glide_gridfile>  (921) 
ATP-Grid

>  <s_lp_Force_Field>  (921) 
OPLS_2005

>  <s_lp_Variant>  (921) 
rxn501c____EMOL18624763____EMOL36251210____EMOL32273941-1

>  <s_lp_label>  (921) 
2519_sdstereoexpander_1_neutralizer_1_epik_1_stereoizer_1

>  <s_m_source_file>  (921) 
ATP-VSW-LIGPREP-001-in.maegz

>  <s_sd_BIOSOLVEIT.INFINISEE\_QUERY\_NAME>  (921) 
Ref-Lig

>  <s_sd_BIOSOLVEIT.INFINISEE\_QUERY\_SMILES>  (921) 
S(c1nc2c(cc1C[NH2+]Cc3ccc(cc3)C[NH+](C)C)cccc2)Cc4ccccc4

>  <s_sd_BIOSOLVEIT.INFINISEE\_REACTION\_NAME>  (921) 
rxn501c

>  <s_sd_BIOSOLVEIT.INFINISEE\_REAGENT1\_NAME>  (921) 
EMOL18624763

>  <s_sd_BIOSOLVEIT.INFINISEE\_REAGENT1\_SMILES>  (921) 
O=C(O)c1ccc(cc1)CN(C)C

>  <s_sd_BIOSOLVEIT.INFINISEE\_REAGENT2\_NAME>  (921) 
EMOL36251210

>  <s_sd_BIOSOLVEIT.INFINISEE\_REAGENT2\_SMILES>  (921) 
Clc1c(c(ncc1)N)C(=O)c2ccccc2

>  <s_sd_BIOSOLVEIT.INFINISEE\_REAGENT3\_NAME>  (921) 
EMOL32273941

>  <s_sd_BIOSOLVEIT.INFINISEE\_REAGENT3\_SMILES>  (921) 
Oc1c(cc(cc1)B(O)O)C

>  <s_sd_BIOSOLVEIT.INFINISEE\_SPACE>  (921) 
eXplore_7tr_2022-12

>  <s_vsw_compound_code>  (921) 
80577

>  <s_vsw_variant>  (921) 
80577-1

>  <r_epik_Charging_Adjusted_Penalty>  (921) 
0.10433640840748

>  <r_epik_Ionization_Penalty>  (921) 
0.053199999999999997

>  <r_epik_Ionization_Penalty_Charging>  (921) 
0.052200000000000003

>  <r_epik_Ionization_Penalty_Neutral>  (921) 
0.001

>  <r_epik_State_Penalty>  (921) 
0.052200000000000003

>  <r_i_docking_score>  (921) 
-4.4523916874807101

>  <r_i_glide_ecoul>  (921) 
-11.5884304046631

>  <r_i_glide_eff_state_penalty>  (921) 
0.052200000000000003

>  <r_i_glide_einternal>  (921) 
2.8607742786407502

>  <r_i_glide_emodel>  (921) 
-61.276471951700799

>  <r_i_glide_energy>  (921) 
-45.2147541046143

>  <r_i_glide_erotb>  (921) 
0.64882283328308199

>  <r_i_glide_esite>  (921) 
-0.10000000000000001

>  <r_i_glide_evdw>  (921) 
-33.6263236999512

>  <r_i_glide_gscore>  (921) 
-4.5045916874807101

>  <r_i_glide_hbond>  (921) 
-0.30070780550256199

>  <r_i_glide_ligand_efficiency>  (921) 
-0.127211191070877

>  <r_i_glide_ligand_efficiency_ln>  (921) 
-0.97739879091148096

>  <r_i_glide_ligand_efficiency_sa>  (921) 
-0.416116240897765

>  <r_i_glide_lipo>  (921) 
-0.95548719565863804

>  <r_i_glide_metal>  (921) 
-0

>  <r_i_glide_rewards>  (921) 
-0.37763877390557099

>  <r_lp_Energy>  (921) 
39.609093000000001

>  <r_lp_tautomer_probability>  (921) 
0.999999999997365

>  <r_qp_ACxDN^.5/SA>  (921) 
0.0088752999999999992

>  <r_qp_CIQPlogS>  (921) 
-6.1630000000000003

>  <r_qp_EA(eV)>  (921) 
0.79000000000000004

>  <r_qp_FISA>  (921) 
133.44800000000001

>  <r_qp_FOSA>  (921) 
262.29199999999997

>  <r_qp_IP(eV)>  (921) 
9.077

>  <r_qp_Jm>  (921) 
0.000103147379559754

>  <r_qp_PISA>  (921) 
421.13499999999999

>  <r_qp_PSA>  (921) 
93.890000000000001

>  <r_qp_PercentHumanOralAbsorption>  (921) 
92.838999999999999

>  <r_qp_QPPCaco>  (921) 
134.06299999999999

>  <r_qp_QPPMDCK>  (921) 
62.366999999999997

>  <r_qp_QPlogBB>  (921) 
-0.98599999999999999

>  <r_qp_QPlogHERG>  (921) 
-7.8399999999999999

>  <r_qp_QPlogKhsa>  (921) 
0.92200000000000004

>  <r_qp_QPlogKp>  (921) 
-3.79

>  <r_qp_QPlogPC16>  (921) 
16.518000000000001

>  <r_qp_QPlogPo/w>  (921) 
4.7510000000000003

>  <r_qp_QPlogPoct>  (921) 
23.785

>  <r_qp_QPlogPw>  (921) 
12.298

>  <r_qp_QPlogS>  (921) 
-5.8650000000000002

>  <r_qp_QPpolrz>  (921) 
53.156999999999996

>  <r_qp_SASA>  (921) 
816.87599999999998

>  <r_qp_SAamideO>  (921) 
0

>  <r_qp_SAfluorine>  (921) 
0

>  <r_qp_WPSA>  (921) 
0

>  <r_qp_accptHB>  (921) 
7.25

>  <r_qp_dip^2/V>  (921) 
0.0392956

>  <r_qp_dipole>  (921) 
7.7030000000000003

>  <r_qp_donorHB>  (921) 
1

>  <r_qp_glob>  (921) 
0.77918030000000005

>  <r_qp_mol_MW>  (921) 
465.55099999999999

>  <r_qp_volume>  (921) 
1509.884

>  <r_sd_BIOSOLVEIT.INFINISEE\_FTREES\_SIMILARITY>  (921) 
0.91400000000000003

>  <r_sd_BIOSOLVEIT.LOGP>  (921) 
3.8904200000000002

>  <r_sd_BIOSOLVEIT.MOLECULAR\_WEIGHT>  (921) 
466.55799999999999

>  <r_sd_BIOSOLVEIT.TPSA>  (921) 
83.730000000000004

>  <i_epik_Tot_Q>  (921) 
1

>  <i_epik_Tot_abs_Q>  (921) 
1

>  <i_f3d_flags>  (921) 
0

>  <i_i_glide_confnum>  (921) 
10

>  <i_i_glide_lignum>  (921) 
997

>  <i_i_glide_posenum>  (921) 
12

>  <i_i_glide_rotatable_bonds>  (921) 
9

>  <i_lp_mmshare_version>  (921) 
65135

>  <i_m_ct_format>  (921) 
2

>  <i_m_source_file_index>  (921) 
2519

>  <i_qp_#NandO>  (921) 
6

>  <i_qp_#acid>  (921) 
0

>  <i_qp_#amide>  (921) 
0

>  <i_qp_#amidine>  (921) 
0

>  <i_qp_#amine>  (921) 
1

>  <i_qp_#in34>  (921) 
0

>  <i_qp_#in56>  (921) 
24

>  <i_qp_#metab>  (921) 
5

>  <i_qp_#nonHatm>  (921) 
35

>  <i_qp_#noncon>  (921) 
0

>  <i_qp_#ringatoms>  (921) 
24

>  <i_qp_#rotor>  (921) 
8

>  <i_qp_#rtvFG>  (921) 
0

>  <i_qp_#stars>  (921) 
0

>  <i_qp_CNS>  (921) 
0

>  <i_qp_HumanOralAbsorption>  (921) 
3

>  <i_qp_RuleOfFive>  (921) 
0

>  <i_qp_RuleOfThree>  (921) 
1

>  <i_sd_BIOSOLVEIT.INFINISEE\_RESULT\_RANK>  (921) 
32719

>  <i_sd_version>  (921) 
0

>  <b_lp_Chiralities_Consistent>  (921) 
1

>  <b_sd_chiral_flag>  (921) 
0

>  <canonical_id>  (921) 
ATP-HTVS-928F3709654C

>  <compound_code>  (921) 
80577

>  <title>  (921) 
rxn501c____EMOL18624763____EMOL36251210____EMOL32273941

>  <variant>  (921) 
80577-1

>  <source_file>  (921) 
运行/运行/ATP-VSW/ATP-VSW-DOCK_HTVS_1-001_lib/ATP-VSW-DOCK_HTVS_1-001_lib

>  <canonical_smiles>  (921) 
Cc1cc(-c2ccnc(NC(=O)c3ccc(C[NH+](C)C)cc3)c2C(=O)c2ccccc2)ccc1O

>  <scaffold>  (921) 
O=C(Nc1nccc(-c2ccccc2)c1C(=O)c1ccccc1)c1ccccc1

>  <molecular_formula>  (921) 
C29H28N3O3+

$$$$
ATP-HTVS-92BA88CED8DA
     RDKit          3D

 53 55  0  0  0  0  0  0  0  0999 V2000
  199.8042  177.2875  150.0122 O   0  0  0  0  0  0  0  0  0  0  0  0
  198.7902  178.1578  150.2883 C   0  0  0  0  0  0  0  0  0  0  0  0
  198.6535  178.6928  151.5815 C   0  0  0  0  0  0  0  0  0  0  0  0
  197.6086  179.5966  151.8915 C   0  0  0  0  0  0  0  0  0  0  0  0
  197.4726  180.1549  153.2485 C   0  0  0  0  0  0  0  0  0  0  0  0
  196.8966  181.4298  153.4756 C   0  0  0  0  0  0  0  0  0  0  0  0
  196.7503  181.9845  154.6904 N   0  0  0  0  0  0  0  0  0  0  0  0
  197.1611  181.2780  155.7561 C   0  0  0  0  0  0  0  0  0  0  0  0
  197.7675  180.0142  155.6652 C   0  0  0  0  0  0  0  0  0  0  0  0
  197.9167  179.4499  154.3939 C   0  0  0  0  0  0  0  0  0  0  0  0
  196.9578  181.9459  157.0842 C   0  0  1  0  0  0  0  0  0  0  0  0
  195.5473  181.9059  157.5210 N   0  0  1  0  0  0  0  0  0  0  0  0
  195.3251  182.2275  158.9469 C   0  0  1  0  0  0  0  0  0  0  0  0
  195.7611  183.6171  159.2553 C   0  0  0  0  0  0  0  0  0  0  0  0
  194.8275  184.6711  159.3988 C   0  0  0  0  0  0  0  0  0  0  0  0
  195.2736  185.9912  159.6277 C   0  0  0  0  0  0  0  0  0  0  0  0
  196.6615  186.2701  159.7297 C   0  0  0  0  0  0  0  0  0  0  0  0
  197.5956  185.1945  159.6744 C   0  0  0  0  0  0  0  0  0  0  0  0
  197.1430  183.9022  159.3994 C   0  0  0  0  0  0  0  0  0  0  0  0
  197.1642  187.6989  159.9162 C   0  0  1  0  0  0  0  0  0  0  0  0
  198.1604  188.1752  158.9035 N   0  0  2  0  0  0  0  0  0  0  0  0
  197.5777  188.3018  157.5549 C   0  0  2  0  0  0  0  0  0  0  0  0
  199.4358  187.4037  158.8427 C   0  0  2  0  0  0  0  0  0  0  0  0
  196.7073  179.9529  150.8599 C   0  0  0  0  0  0  0  0  0  0  0  0
  196.8450  179.4260  149.5637 C   0  0  0  0  0  0  0  0  0  0  0  0
  197.8850  178.5231  149.2756 C   0  0  0  0  0  0  0  0  0  0  0  0
  194.9490  182.4285  156.8942 H   0  0  0  0  0  0  0  0  0  0  0  0
  200.3814  177.1373  150.7451 H   0  0  0  0  0  0  0  0  0  0  0  0
  199.3693  178.4095  152.3391 H   0  0  0  0  0  0  0  0  0  0  0  0
  196.5413  182.0378  152.6580 H   0  0  0  0  0  0  0  0  0  0  0  0
  198.0810  179.4762  156.5467 H   0  0  0  0  0  0  0  0  0  0  0  0
  198.3593  178.4660  154.3130 H   0  0  0  0  0  0  0  0  0  0  0  0
  197.6075  181.4601  157.8195 H   0  0  0  0  0  0  0  0  0  0  0  0
  197.2651  182.9751  156.9663 H   0  0  0  0  0  0  0  0  0  0  0  0
  194.2648  182.0967  159.1871 H   0  0  0  0  0  0  0  0  0  0  0  0
  195.8705  181.5227  159.5964 H   0  0  0  0  0  0  0  0  0  0  0  0
  193.7597  184.4617  159.3390 H   0  0  0  0  0  0  0  0  0  0  0  0
  194.5556  186.7726  159.7354 H   0  0  0  0  0  0  0  0  0  0  0  0
  198.6275  185.3180  159.8002 H   0  0  0  0  0  0  0  0  0  0  0  0
  197.8875  183.1383  159.2629 H   0  0  0  0  0  0  0  0  0  0  0  0
  196.3117  188.3750  159.8982 H   0  0  0  0  0  0  0  0  0  0  0  0
  197.5547  187.7883  160.9306 H   0  0  0  0  0  0  0  0  0  0  0  0
  197.2334  187.3372  157.1754 H   0  0  0  0  0  0  0  0  0  0  0  0
  198.3163  188.6911  156.8538 H   0  0  0  0  0  0  0  0  0  0  0  0
  196.7336  188.9919  157.5580 H   0  0  0  0  0  0  0  0  0  0  0  0
  199.2982  186.4416  158.4344 H   0  0  0  0  0  0  0  0  0  0  0  0
  199.8788  187.3224  159.8439 H   0  0  0  0  0  0  0  0  0  0  0  0
  200.1821  187.9048  158.2024 H   0  0  0  0  0  0  0  0  0  0  0  0
  195.8934  180.6356  151.0550 H   0  0  0  0  0  0  0  0  0  0  0  0
  196.1484  179.7097  148.7893 H   0  0  0  0  0  0  0  0  0  0  0  0
  197.9893  178.1144  148.2819 H   0  0  0  0  0  0  0  0  0  0  0  0
  198.4010  189.1024  159.1999 H   0  0  0  0  0  0  0  0  0  0  0  0
  195.3010  180.9020  157.4342 H   0  0  0  0  0  0  0  0  0  0  0  0
  1  2  1  0
  1 28  1  0
  2  3  2  0
  2 26  1  0
  3  4  1  0
  3 29  1  0
  4  5  1  0
  4 24  2  0
  5  6  1  0
  5 10  2  0
  6  7  2  0
  6 30  1  0
  7  8  1  0
  8  9  2  0
  8 11  1  0
  9 10  1  0
  9 31  1  0
 10 32  1  0
 11 12  1  0
 11 33  1  1
 11 34  1  0
 12 13  1  0
 12 27  1  6
 12 53  1  0
 13 14  1  0
 13 35  1  1
 13 36  1  0
 14 15  1  0
 14 19  2  0
 15 16  2  0
 15 37  1  0
 16 17  1  0
 16 38  1  0
 17 18  2  0
 17 20  1  0
 18 19  1  0
 18 39  1  0
 19 40  1  0
 20 21  1  0
 20 41  1  1
 20 42  1  0
 21 22  1  0
 21 23  1  0
 21 52  1  1
 22 43  1  6
 22 44  1  0
 22 45  1  0
 23 46  1  6
 23 47  1  0
 23 48  1  0
 24 25  1  0
 24 49  1  0
 25 26  2  0
 25 50  1  0
 26 51  1  0
M  CHG  2  12   1  21   1
M  END
>  <s_epik_cmdline>  (922) 
J2VwaWtfcHl0aG9uJywgJy1waCcsICc3LjAwMDAwMCcsICctcGh0JywgJzIuMDAwMDAwJywgJy1tcycsICcxNicsICctdG4nLCAnOCcsICctbWEnLCAnMjAwJywgJy1pbWFlJywgJzxpbmZpbGUubWFlPicsICctb21hZScsICc8b3V0ZmlsZS5tYWU+Jw==

>  <s_epik_input>  (922) 
W09IXWMxW2NIXWMoW2NIXVtjSF1bY0hdMSktYzJbY0hdbmMoW2NIXVtjSF0yKVtDSDJdW05IXVtDSDJdYzNbY0hdW2NIXWMoW2NIXVtjSF0zKVtDSDJdTihbQ0gzXSlbQ0gzXQ==

>  <s_i_glide_gridfile>  (922) 
ATP-Grid

>  <s_lp_Force_Field>  (922) 
OPLS_2005

>  <s_lp_Variant>  (922) 
WXDL_15E____QS5063____LN00174727____BT2076-1

>  <s_lp_label>  (922) 
627_sdstereoexpander_1_neutralizer_1_epik_1_stereoizer_1

>  <s_m_source_file>  (922) 
ATP-VSW-LIGPREP-001-in.maegz

>  <s_sd_BIOSOLVEIT.INFINISEE\_QUERY\_NAME>  (922) 
Ref-Lig

>  <s_sd_BIOSOLVEIT.INFINISEE\_QUERY\_SMILES>  (922) 
S(c1nc2c(cc1C[NH2+]Cc3ccc(cc3)C[NH+](C)C)cccc2)Cc4ccccc4

>  <s_sd_BIOSOLVEIT.INFINISEE\_REACTION\_NAME>  (922) 
WXDL_15E

>  <s_sd_BIOSOLVEIT.INFINISEE\_REAGENT1\_NAME>  (922) 
QS5063

>  <s_sd_BIOSOLVEIT.INFINISEE\_REAGENT1\_SMILES>  (922) 
O=Cc1ccc(cc1)CN(C)C

>  <s_sd_BIOSOLVEIT.INFINISEE\_REAGENT2\_NAME>  (922) 
LN00174727

>  <s_sd_BIOSOLVEIT.INFINISEE\_REAGENT2\_SMILES>  (922) 
Brc1cnc(cc1)CNC(=O)OC(C)(C)C

>  <s_sd_BIOSOLVEIT.INFINISEE\_REAGENT3\_NAME>  (922) 
BT2076

>  <s_sd_BIOSOLVEIT.INFINISEE\_REAGENT3\_SMILES>  (922) 
O(C(C(O)(C)C)(C)C)B(O)c1cc(O)ccc1

>  <s_sd_BIOSOLVEIT.INFINISEE\_SPACE>  (922) 
GalaXi_12bn_2023-03

>  <s_vsw_compound_code>  (922) 
20033

>  <s_vsw_variant>  (922) 
20033-1

>  <r_epik_Charging_Adjusted_Penalty>  (922) 
0.355252158851251

>  <r_epik_Ionization_Penalty>  (922) 
0.17760000000000001

>  <r_epik_Ionization_Penalty_Charging>  (922) 
0.17630000000000001

>  <r_epik_Ionization_Penalty_Neutral>  (922) 
0.0012999999999999999

>  <r_epik_State_Penalty>  (922) 
0.17899999999999999

>  <r_i_docking_score>  (922) 
-6.1795954276148004

>  <r_i_glide_ecoul>  (922) 
-13.192979812622101

>  <r_i_glide_eff_state_penalty>  (922) 
0.17899999999999999

>  <r_i_glide_einternal>  (922) 
3.15296530723572

>  <r_i_glide_emodel>  (922) 
-71.820822963905201

>  <r_i_glide_energy>  (922) 
-44.706922531127901

>  <r_i_glide_erotb>  (922) 
0.93585446189056398

>  <r_i_glide_esite>  (922) 
-0.10000000000000001

>  <r_i_glide_evdw>  (922) 
-31.513942718505898

>  <r_i_glide_gscore>  (922) 
-6.3585954276147998

>  <r_i_glide_hbond>  (922) 
-0.40000000000000002

>  <r_i_glide_ligand_efficiency>  (922) 
-0.237676747215954

>  <r_i_glide_ligand_efficiency_ln>  (922) 
-1.4512577092688801

>  <r_i_glide_ligand_efficiency_sa>  (922) 
-0.70411642841442301

>  <r_i_glide_lipo>  (922) 
-1.98845996350494

>  <r_i_glide_metal>  (922) 
-0

>  <r_i_glide_rewards>  (922) 
-1.25134581818182

>  <r_lp_Energy>  (922) 
15.785899000000001

>  <r_lp_tautomer_probability>  (922) 
0.999999999997365

>  <r_qp_ACxDN^.5/SA>  (922) 
0.0102761

>  <r_qp_CIQPlogS>  (922) 
-3.1120000000000001

>  <r_qp_EA(eV)>  (922) 
0.58899999999999997

>  <r_qp_FISA>  (922) 
86.221000000000004

>  <r_qp_FOSA>  (922) 
252.26499999999999

>  <r_qp_IP(eV)>  (922) 
8.9809999999999999

>  <r_qp_Jm>  (922) 
0.00061028406918430303

>  <r_qp_PISA>  (922) 
384.02600000000001

>  <r_qp_PSA>  (922) 
53.697000000000003

>  <r_qp_PercentHumanOralAbsorption>  (922) 
82.905000000000001

>  <r_qp_QPPCaco>  (922) 
93.771000000000001

>  <r_qp_QPPMDCK>  (922) 
46.884999999999998

>  <r_qp_QPlogBB>  (922) 
-0.076999999999999999

>  <r_qp_QPlogHERG>  (922) 
-8.4489999999999998

>  <r_qp_QPlogKhsa>  (922) 
0.56999999999999995

>  <r_qp_QPlogKp>  (922) 
-5.1130000000000004

>  <r_qp_QPlogPC16>  (922) 
13.679

>  <r_qp_QPlogPo/w>  (922) 
3.5289999999999999

>  <r_qp_QPlogPoct>  (922) 
19.591000000000001

>  <r_qp_QPlogPw>  (922) 
10.992000000000001

>  <r_qp_QPlogS>  (922) 
-3.6429999999999998

>  <r_qp_QPpolrz>  (922) 
42.283000000000001

>  <r_qp_SASA>  (922) 
722.51199999999994

>  <r_qp_SAamideO>  (922) 
0

>  <r_qp_SAfluorine>  (922) 
0

>  <r_qp_WPSA>  (922) 
0

>  <r_qp_accptHB>  (922) 
5.25

>  <r_qp_dip^2/V>  (922) 
0.012428

>  <r_qp_dipole>  (922) 
3.9369999999999998

>  <r_qp_donorHB>  (922) 
2

>  <r_qp_glob>  (922) 
0.77548660000000003

>  <r_qp_mol_MW>  (922) 
347.459

>  <r_qp_volume>  (922) 
1247.0440000000001

>  <r_sd_BIOSOLVEIT.INFINISEE\_FTREES\_SIMILARITY>  (922) 
0.91700000000000004

>  <r_sd_BIOSOLVEIT.LOGP>  (922) 
1.3623000000000001

>  <r_sd_BIOSOLVEIT.MOLECULAR\_WEIGHT>  (922) 
349.47500000000002

>  <r_sd_BIOSOLVEIT.TPSA>  (922) 
54.170000000000002

>  <i_epik_Tot_Q>  (922) 
2

>  <i_epik_Tot_abs_Q>  (922) 
2

>  <i_f3d_flags>  (922) 
0

>  <i_i_glide_confnum>  (922) 
1

>  <i_i_glide_lignum>  (922) 
71

>  <i_i_glide_posenum>  (922) 
3

>  <i_i_glide_rotatable_bonds>  (922) 
8

>  <i_lp_mmshare_version>  (922) 
65135

>  <i_m_ct_format>  (922) 
2

>  <i_m_source_file_index>  (922) 
627

>  <i_qp_#NandO>  (922) 
4

>  <i_qp_#acid>  (922) 
0

>  <i_qp_#amide>  (922) 
0

>  <i_qp_#amidine>  (922) 
0

>  <i_qp_#amine>  (922) 
2

>  <i_qp_#in34>  (922) 
0

>  <i_qp_#in56>  (922) 
18

>  <i_qp_#metab>  (922) 
7

>  <i_qp_#nonHatm>  (922) 
26

>  <i_qp_#noncon>  (922) 
0

>  <i_qp_#ringatoms>  (922) 
18

>  <i_qp_#rotor>  (922) 
8

>  <i_qp_#rtvFG>  (922) 
0

>  <i_qp_#stars>  (922) 
0

>  <i_qp_CNS>  (922) 
1

>  <i_qp_HumanOralAbsorption>  (922) 
2

>  <i_qp_RuleOfFive>  (922) 
0

>  <i_qp_RuleOfThree>  (922) 
1

>  <i_sd_BIOSOLVEIT.INFINISEE\_RESULT\_RANK>  (922) 
24091

>  <i_sd_version>  (922) 
0

>  <b_lp_Chiralities_Consistent>  (922) 
1

>  <b_sd_chiral_flag>  (922) 
0

>  <canonical_id>  (922) 
ATP-HTVS-92BA88CED8DA

>  <compound_code>  (922) 
20033

>  <title>  (922) 
WXDL_15E____QS5063____LN00174727____BT2076

>  <variant>  (922) 
20033-1

>  <source_file>  (922) 
运行/运行/ATP-VSW/ATP-VSW-DOCK_HTVS_1-001_lib/ATP-VSW-DOCK_HTVS_1-001_lib

>  <canonical_smiles>  (922) 
C[NH+](C)Cc1ccc(C[NH2+]Cc2ccc(-c3cccc(O)c3)cn2)cc1

>  <scaffold>  (922) 
c1ccc(C[NH2+]Cc2ccc(-c3ccccc3)cn2)cc1

>  <molecular_formula>  (922) 
C22H27N3O+2

$$$$
ATP-HTVS-92C487CB2C4B
     RDKit          3D

 62 65  0  0  0  0  0  0  0  0999 V2000
  199.0193  178.3075  156.0582 N   0  0  0  0  0  0  0  0  0  0  0  0
  200.0518  177.5560  155.5534 C   0  0  0  0  0  0  0  0  0  0  0  0
  200.4457  178.2015  154.3610 C   0  0  0  0  0  0  0  0  0  0  0  0
  199.6191  179.3408  154.2522 N   0  0  0  0  0  0  0  0  0  0  0  0
  198.7703  179.4123  155.3393 C   0  0  0  0  0  0  0  0  0  0  0  0
  197.7465  180.4554  155.6940 C   0  0  1  0  0  0  0  0  0  0  0  0
  198.3545  181.6366  156.3056 N   0  0  0  0  0  0  0  0  0  0  0  0
  197.3373  182.6168  156.6778 C   0  0  2  0  0  0  0  0  0  0  0  0
  197.9681  184.0295  156.5661 C   0  0  1  0  0  0  0  0  0  0  0  0
  198.2469  184.4698  155.1821 N   0  0  1  0  0  0  0  0  0  0  0  0
  196.9996  184.6785  154.4001 C   0  0  2  0  0  0  0  0  0  0  0  0
  199.0749  185.7029  155.1904 C   0  0  2  0  0  0  0  0  0  0  0  0
  196.7782  182.2614  158.0793 C   0  0  1  0  0  0  0  0  0  0  0  0
  196.1744  183.4277  158.8490 C   0  0  0  0  0  0  0  0  0  0  0  0
  197.0120  184.4592  159.3402 C   0  0  0  0  0  0  0  0  0  0  0  0
  196.4712  185.5832  159.9757 C   0  0  0  0  0  0  0  0  0  0  0  0
  195.0846  185.6687  160.2006 C   0  0  0  0  0  0  0  0  0  0  0  0
  194.2471  184.6230  159.7652 C   0  0  0  0  0  0  0  0  0  0  0  0
  194.7845  183.5079  159.0838 C   0  0  0  0  0  0  0  0  0  0  0  0
  199.7413  180.2141  153.0795 C   0  0  1  0  0  0  0  0  0  0  0  0
  198.6598  179.9361  152.0354 C   0  0  0  0  0  0  0  0  0  0  0  0
  198.9882  179.2474  150.8388 C   0  0  0  0  0  0  0  0  0  0  0  0
  197.9788  179.0045  149.8667 C   0  0  0  0  0  0  0  0  0  0  0  0
  196.6414  179.4118  150.1051 C   0  0  0  0  0  0  0  0  0  0  0  0
  196.3303  180.0813  151.3055 C   0  0  0  0  0  0  0  0  0  0  0  0
  197.3282  180.3965  152.2517 C   0  0  0  0  0  0  0  0  0  0  0  0
  201.4657  177.6698  153.5743 C   0  0  0  0  0  0  0  0  0  0  0  0
  202.0844  176.4769  154.0310 C   0  0  0  0  0  0  0  0  0  0  0  0
  201.6916  175.8529  155.2310 C   0  0  0  0  0  0  0  0  0  0  0  0
  200.6666  176.3954  156.0243 C   0  0  0  0  0  0  0  0  0  0  0  0
  198.9068  181.3813  157.1166 H   0  0  0  0  0  0  0  0  0  0  0  0
  197.1820  180.7491  154.8596 H   0  0  0  0  0  0  0  0  0  0  0  0
  197.0460  180.0011  156.4225 H   0  0  0  0  0  0  0  0  0  0  0  0
  196.4834  182.5549  156.0016 H   0  0  0  0  0  0  0  0  0  0  0  0
  197.3034  184.8027  156.9630 H   0  0  0  0  0  0  0  0  0  0  0  0
  198.8959  184.0397  157.1471 H   0  0  0  0  0  0  0  0  0  0  0  0
  196.3759  185.4455  154.8700 H   0  0  0  0  0  0  0  0  0  0  0  0
  196.4037  183.7677  154.3091 H   0  0  0  0  0  0  0  0  0  0  0  0
  197.2281  185.0026  153.3846 H   0  0  0  0  0  0  0  0  0  0  0  0
  198.5674  186.5367  155.6904 H   0  0  0  0  0  0  0  0  0  0  0  0
  199.3040  186.0152  154.1722 H   0  0  0  0  0  0  0  0  0  0  0  0
  200.0186  185.5378  155.7140 H   0  0  0  0  0  0  0  0  0  0  0  0
  196.0292  181.4743  157.9679 H   0  0  0  0  0  0  0  0  0  0  0  0
  197.5499  181.8343  158.7133 H   0  0  0  0  0  0  0  0  0  0  0  0
  198.0871  184.3978  159.2395 H   0  0  0  0  0  0  0  0  0  0  0  0
  197.1224  186.3982  160.2658 H   0  0  0  0  0  0  0  0  0  0  0  0
  194.6679  186.5483  160.6707 H   0  0  0  0  0  0  0  0  0  0  0  0
  193.1813  184.6940  159.9171 H   0  0  0  0  0  0  0  0  0  0  0  0
  194.1179  182.7414  158.7007 H   0  0  0  0  0  0  0  0  0  0  0  0
  199.6782  181.2414  153.4287 H   0  0  0  0  0  0  0  0  0  0  0  0
  200.7349  180.1021  152.6540 H   0  0  0  0  0  0  0  0  0  0  0  0
  200.0077  178.9395  150.6339 H   0  0  0  0  0  0  0  0  0  0  0  0
  198.2263  178.5120  148.9333 H   0  0  0  0  0  0  0  0  0  0  0  0
  195.8643  179.2294  149.3748 H   0  0  0  0  0  0  0  0  0  0  0  0
  195.3217  180.3975  151.5137 H   0  0  0  0  0  0  0  0  0  0  0  0
  197.0497  181.0127  153.0630 H   0  0  0  0  0  0  0  0  0  0  0  0
  201.7839  178.1348  152.6571 H   0  0  0  0  0  0  0  0  0  0  0  0
  202.8784  176.0401  153.4473 H   0  0  0  0  0  0  0  0  0  0  0  0
  202.1796  174.9387  155.5473 H   0  0  0  0  0  0  0  0  0  0  0  0
  200.3529  175.9221  156.9473 H   0  0  0  0  0  0  0  0  0  0  0  0
  198.7855  183.7276  154.7498 H   0  0  0  0  0  0  0  0  0  0  0  0
  198.5093  178.1171  156.9446 H   0  0  0  0  0  0  0  0  0  0  0  0
  1  2  1  0
  1  5  2  0
  1 62  1  0
  2  3  1  0
  2 30  2  0
  3  4  1  0
  3 27  2  0
  4  5  1  0
  4 20  1  0
  5  6  1  0
  6  7  1  0
  6 32  1  6
  6 33  1  0
  7  8  1  0
  7 31  1  0
  8  9  1  0
  8 13  1  0
  8 34  1  6
  9 10  1  0
  9 35  1  1
  9 36  1  0
 10 11  1  0
 10 12  1  0
 10 61  1  6
 11 37  1  1
 11 38  1  0
 11 39  1  0
 12 40  1  1
 12 41  1  0
 12 42  1  0
 13 14  1  0
 13 43  1  6
 13 44  1  0
 14 15  2  0
 14 19  1  0
 15 16  1  0
 15 45  1  0
 16 17  2  0
 16 46  1  0
 17 18  1  0
 17 47  1  0
 18 19  2  0
 18 48  1  0
 19 49  1  0
 20 21  1  0
 20 50  1  1
 20 51  1  0
 21 22  2  0
 21 26  1  0
 22 23  1  0
 22 52  1  0
 23 24  2  0
 23 53  1  0
 24 25  1  0
 24 54  1  0
 25 26  2  0
 25 55  1  0
 26 56  1  0
 27 28  1  0
 27 57  1  0
 28 29  2  0
 28 58  1  0
 29 30  1  0
 29 59  1  0
 30 60  1  0
M  CHG  2   1   1  10   1
M  END
>  <s_epik_cmdline>  (923) 
J2VwaWtfcHl0aG9uJywgJy1waCcsICc3LjAwMDAwMCcsICctcGh0JywgJzIuMDAwMDAwJywgJy1tcycsICcxNicsICctdG4nLCAnOCcsICctbWEnLCAnMjAwJywgJy1pbWFlJywgJzxpbmZpbGUubWFlPicsICctb21hZScsICc8b3V0ZmlsZS5tYWU+Jw==

>  <s_epik_input>  (923) 
W2NIXTFbY0hdW2NIXVtjSF1bY0hdYzFbQ0gyXW4oYyhjMjMpW2NIXVtjSF1bY0hdW2NIXTMpYyhuMilbQ0gyXVtOSF1bQ0BIXShbQ0gyXU4oW0NIM10pW0NIM10pW0NIMl1jNFtjSF1bY0hdW2NIXVtjSF1bY0hdNA==

>  <s_i_glide_gridfile>  (923) 
ATP-Grid

>  <s_lp_Force_Field>  (923) 
OPLS_2005

>  <s_lp_Variant>  (923) 
m_270004bbb____8290930____24720860-4

>  <s_lp_label>  (923) 
2031_sdstereoexpander_2_neutralizer_1_epik_2_stereoizer_1

>  <s_m_source_file>  (923) 
ATP-VSW-LIGPREP-001-in.maegz

>  <s_sd_BIOSOLVEIT.INFINISEE\_QUERY\_NAME>  (923) 
Ref-Lig

>  <s_sd_BIOSOLVEIT.INFINISEE\_QUERY\_SMILES>  (923) 
S(c1nc2c(cc1C[NH2+]Cc3ccc(cc3)C[NH+](C)C)cccc2)Cc4ccccc4

>  <s_sd_BIOSOLVEIT.INFINISEE\_REACTION\_NAME>  (923) 
m_270004bbb

>  <s_sd_BIOSOLVEIT.INFINISEE\_REAGENT1\_SMILES>  (923) 
[R1*]NC(CN(C)C)Cc1ccccc1

>  <s_sd_BIOSOLVEIT.INFINISEE\_REAGENT2\_SMILES>  (923) 
[R1*]CC1=Nc2c(N1Cc3ccccc3)cccc2

>  <s_sd_BIOSOLVEIT.INFINISEE\_SPACE>  (923) 
REALSpace_44bn_2023-08

>  <s_vsw_compound_code>  (923) 
64961

>  <s_vsw_variant>  (923) 
64961-4

>  <r_epik_Charging_Adjusted_Penalty>  (923) 
2.349913947239

>  <r_epik_Ionization_Penalty>  (923) 
1.1718999999999999

>  <r_epik_Ionization_Penalty_Charging>  (923) 
1.1715

>  <r_epik_Ionization_Penalty_Neutral>  (923) 
0.00040000000000000002

>  <r_epik_State_Penalty>  (923) 
1.1783999999999999

>  <r_i_docking_score>  (923) 
-4.4703022966555697

>  <r_i_glide_ecoul>  (923) 
-12.9123888015747

>  <r_i_glide_eff_state_penalty>  (923) 
1.1783999999999999

>  <r_i_glide_einternal>  (923) 
3.19881343841553

>  <r_i_glide_emodel>  (923) 
-67.763588575637698

>  <r_i_glide_energy>  (923) 
-44.648537635803201

>  <r_i_glide_erotb>  (923) 
0.85534673059382005

>  <r_i_glide_esite>  (923) 
-0.16246915526550099

>  <r_i_glide_evdw>  (923) 
-31.736148834228501

>  <r_i_glide_gscore>  (923) 
-5.6487022966555704

>  <r_i_glide_hbond>  (923) 
-0.20000000000000001

>  <r_i_glide_ligand_efficiency>  (923) 
-0.149010076555186

>  <r_i_glide_ligand_efficiency_ln>  (923) 
-1.0157013896448599

>  <r_i_glide_ligand_efficiency_sa>  (923) 
-0.463008953062018

>  <r_i_glide_lipo>  (923) 
-1.93990783730899

>  <r_i_glide_metal>  (923) 
-0

>  <r_i_glide_rewards>  (923) 
-0.67800627272727099

>  <r_lp_Energy>  (923) 
34.985410999999999

>  <r_qp_ACxDN^.5/SA>  (923) 
0.0072066999999999999

>  <r_qp_CIQPlogS>  (923) 
-4.4820000000000002

>  <r_qp_EA(eV)>  (923) 
0.24299999999999999

>  <r_qp_FISA>  (923) 
31.975000000000001

>  <r_qp_FOSA>  (923) 
205.94999999999999

>  <r_qp_IP(eV)>  (923) 
8.6709999999999994

>  <r_qp_Jm>  (923) 
0.047344769689339997

>  <r_qp_PISA>  (923) 
455.87

>  <r_qp_PSA>  (923) 
33.289999999999999

>  <r_qp_PercentHumanOralAbsorption>  (923) 
100

>  <r_qp_QPPCaco>  (923) 
306.53699999999998

>  <r_qp_QPPMDCK>  (923) 
168.678

>  <r_qp_QPlogBB>  (923) 
0.52300000000000002

>  <r_qp_QPlogHERG>  (923) 
-7.585

>  <r_qp_QPlogKhsa>  (923) 
0.93600000000000005

>  <r_qp_QPlogKp>  (923) 
-3.7639999999999998

>  <r_qp_QPlogPC16>  (923) 
14.343

>  <r_qp_QPlogPo/w>  (923) 
4.9240000000000004

>  <r_qp_QPlogPoct>  (923) 
19.488

>  <r_qp_QPlogPw>  (923) 
9.1110000000000007

>  <r_qp_QPlogS>  (923) 
-3.161

>  <r_qp_QPpolrz>  (923) 
46.314

>  <r_qp_SASA>  (923) 
693.79499999999996

>  <r_qp_SAamideO>  (923) 
0

>  <r_qp_SAfluorine>  (923) 
0

>  <r_qp_WPSA>  (923) 
0

>  <r_qp_accptHB>  (923) 
5

>  <r_qp_dip^2/V>  (923) 
0.0053563999999999999

>  <r_qp_dipole>  (923) 
2.6859999999999999

>  <r_qp_donorHB>  (923) 
1

>  <r_qp_glob>  (923) 
0.8500451

>  <r_qp_mol_MW>  (923) 
398.55000000000001

>  <r_qp_volume>  (923) 
1346.672

>  <r_sd_BIOSOLVEIT.INFINISEE\_FTREES\_SIMILARITY>  (923) 
0.90200000000000002

>  <r_sd_BIOSOLVEIT.LOGP>  (923) 
1.9037999999999999

>  <r_sd_BIOSOLVEIT.MOLECULAR\_WEIGHT>  (923) 
400.56700000000001

>  <r_sd_BIOSOLVEIT.TPSA>  (923) 
38.869999999999997

>  <i_epik_Tot_Q>  (923) 
2

>  <i_epik_Tot_abs_Q>  (923) 
2

>  <i_f3d_flags>  (923) 
0

>  <i_i_glide_confnum>  (923) 
11

>  <i_i_glide_lignum>  (923) 
625

>  <i_i_glide_posenum>  (923) 
16

>  <i_i_glide_rotatable_bonds>  (923) 
9

>  <i_lp_mmshare_version>  (923) 
65135

>  <i_m_ct_format>  (923) 
2

>  <i_m_source_file_index>  (923) 
2031

>  <i_qp_#NandO>  (923) 
4

>  <i_qp_#acid>  (923) 
0

>  <i_qp_#amide>  (923) 
0

>  <i_qp_#amidine>  (923) 
0

>  <i_qp_#amine>  (923) 
2

>  <i_qp_#in34>  (923) 
0

>  <i_qp_#in56>  (923) 
21

>  <i_qp_#metab>  (923) 
5

>  <i_qp_#nonHatm>  (923) 
30

>  <i_qp_#noncon>  (923) 
0

>  <i_qp_#ringatoms>  (923) 
21

>  <i_qp_#rotor>  (923) 
9

>  <i_qp_#rtvFG>  (923) 
0

>  <i_qp_#stars>  (923) 
1

>  <i_qp_CNS>  (923) 
2

>  <i_qp_HumanOralAbsorption>  (923) 
3

>  <i_qp_RuleOfFive>  (923) 
0

>  <i_qp_RuleOfThree>  (923) 
0

>  <i_sd_BIOSOLVEIT.INFINISEE\_REAGENT1\_NAME>  (923) 
8290930

>  <i_sd_BIOSOLVEIT.INFINISEE\_REAGENT2\_NAME>  (923) 
24720860

>  <i_sd_BIOSOLVEIT.INFINISEE\_RESULT\_RANK>  (923) 
92872

>  <i_sd_version>  (923) 
0

>  <b_lp_Chiralities_Consistent>  (923) 
1

>  <b_sd_chiral_flag>  (923) 
0

>  <canonical_id>  (923) 
ATP-HTVS-92C487CB2C4B

>  <compound_code>  (923) 
64961

>  <title>  (923) 
m_270004bbb____8290930____24720860

>  <variant>  (923) 
64961-4

>  <source_file>  (923) 
运行/运行/ATP-VSW/ATP-VSW-DOCK_HTVS_1-001_lib/ATP-VSW-DOCK_HTVS_1-001_lib

>  <canonical_smiles>  (923) 
C[NH+](C)C[C@H](Cc1ccccc1)NCc1[nH+]c2ccccc2n1Cc1ccccc1

>  <scaffold>  (923) 
c1ccc(CCNCc2[nH+]c3ccccc3n2Cc2ccccc2)cc1

>  <molecular_formula>  (923) 
C26H32N4+2

$$$$
ATP-HTVS-92D1D8A066E2
     RDKit          3D

 63 66  0  0  0  0  0  0  0  0999 V2000
  194.7403  186.6499  161.0811 Cl  0  0  0  0  0  0  0  0  0  0  0  0
  195.1769  185.4182  159.9395 C   0  0  0  0  0  0  0  0  0  0  0  0
  196.3961  185.4915  159.2180 C   0  0  0  0  0  0  0  0  0  0  0  0
  197.2349  186.5998  159.4190 N   0  0  0  0  0  0  0  0  0  0  0  0
  196.7420  184.4498  158.3045 C   0  0  0  0  0  0  0  0  0  0  0  0
  195.8565  183.3491  158.1677 C   0  0  0  0  0  0  0  0  0  0  0  0
  194.6448  183.3021  158.8667 C   0  0  0  0  0  0  0  0  0  0  0  0
  194.2992  184.3347  159.7402 C   0  0  0  0  0  0  0  0  0  0  0  0
  198.0457  184.4828  157.5007 C   0  0  1  0  0  0  0  0  0  0  0  0
  197.9002  184.4917  156.0498 N   0  0  0  0  0  0  0  0  0  0  0  0
  197.6759  183.3817  155.2523 C   0  0  0  0  0  0  0  0  0  0  0  0
  197.6416  182.1598  155.7914 N   0  0  0  0  0  0  0  0  0  0  0  0
  197.2935  181.1015  155.0491 C   0  0  0  0  0  0  0  0  0  0  0  0
  197.1512  179.8761  155.6959 N   0  0  0  0  0  0  0  0  0  0  0  0
  198.0828  178.7948  155.4049 C   0  0  1  0  0  0  0  0  0  0  0  0
  199.4326  178.9487  156.1136 C   0  0  1  0  0  0  0  0  0  0  0  0
  200.4193  177.8937  155.6352 C   0  0  0  0  0  0  0  0  0  0  0  0
  200.7565  177.7948  154.2641 C   0  0  0  0  0  0  0  0  0  0  0  0
  201.6725  176.8231  153.8243 C   0  0  0  0  0  0  0  0  0  0  0  0
  202.2659  175.9416  154.7502 C   0  0  0  0  0  0  0  0  0  0  0  0
  201.9337  176.0426  156.1185 C   0  0  0  0  0  0  0  0  0  0  0  0
  201.0103  177.0064  156.5578 C   0  0  0  0  0  0  0  0  0  0  0  0
  203.2892  174.9233  154.2760 C   0  0  1  0  0  0  0  0  0  0  0  0
  203.1917  173.6235  154.9352 N   0  0  0  0  0  0  0  0  0  0  0  0
  201.9754  172.9302  154.5178 C   0  0  2  0  0  0  0  0  0  0  0  0
  204.3380  172.8080  154.5633 C   0  0  2  0  0  0  0  0  0  0  0  0
  197.0611  181.2470  153.6668 C   0  0  0  0  0  0  0  0  0  0  0  0
  197.1737  182.5508  153.1342 C   0  0  0  0  0  0  0  0  0  0  0  0
  197.4786  183.5886  153.9466 N   0  0  0  0  0  0  0  0  0  0  0  0
  196.9742  182.7769  151.7578 C   0  0  0  0  0  0  0  0  0  0  0  0
  196.6865  181.6881  150.9034 C   0  0  0  0  0  0  0  0  0  0  0  0
  196.5413  180.3850  151.4372 C   0  0  0  0  0  0  0  0  0  0  0  0
  196.6974  180.1711  152.8112 C   0  0  0  0  0  0  0  0  0  0  0  0
  198.1508  186.6839  159.0042 H   0  0  0  0  0  0  0  0  0  0  0  0
  196.9993  187.2970  160.1157 H   0  0  0  0  0  0  0  0  0  0  0  0
  196.0379  182.5022  157.5347 H   0  0  0  0  0  0  0  0  0  0  0  0
  193.9895  182.4574  158.7122 H   0  0  0  0  0  0  0  0  0  0  0  0
  193.3695  184.2833  160.2827 H   0  0  0  0  0  0  0  0  0  0  0  0
  198.6490  185.3521  157.7375 H   0  0  0  0  0  0  0  0  0  0  0  0
  198.6526  183.6277  157.8053 H   0  0  0  0  0  0  0  0  0  0  0  0
  197.8828  185.3880  155.5927 H   0  0  0  0  0  0  0  0  0  0  0  0
  196.5698  179.7642  156.5472 H   0  0  0  0  0  0  0  0  0  0  0  0
  197.6126  177.8571  155.6992 H   0  0  0  0  0  0  0  0  0  0  0  0
  198.2674  178.7518  154.3367 H   0  0  0  0  0  0  0  0  0  0  0  0
  199.8688  179.9285  155.9094 H   0  0  0  0  0  0  0  0  0  0  0  0
  199.2887  178.8821  157.1935 H   0  0  0  0  0  0  0  0  0  0  0  0
  200.3223  178.4666  153.5385 H   0  0  0  0  0  0  0  0  0  0  0  0
  201.9265  176.7634  152.7756 H   0  0  0  0  0  0  0  0  0  0  0  0
  202.3993  175.3881  156.8401 H   0  0  0  0  0  0  0  0  0  0  0  0
  200.7683  177.0760  157.6081 H   0  0  0  0  0  0  0  0  0  0  0  0
  203.2132  174.7973  153.1940 H   0  0  0  0  0  0  0  0  0  0  0  0
  204.2732  175.3523  154.4689 H   0  0  0  0  0  0  0  0  0  0  0  0
  201.9177  171.9466  154.9848 H   0  0  0  0  0  0  0  0  0  0  0  0
  201.9510  172.7827  153.4371 H   0  0  0  0  0  0  0  0  0  0  0  0
  201.0843  173.4905  154.8042 H   0  0  0  0  0  0  0  0  0  0  0  0
  204.2926  171.8376  155.0561 H   0  0  0  0  0  0  0  0  0  0  0  0
  205.2640  173.2900  154.8772 H   0  0  0  0  0  0  0  0  0  0  0  0
  204.3808  172.6371  153.4872 H   0  0  0  0  0  0  0  0  0  0  0  0
  197.0607  183.7681  151.3476 H   0  0  0  0  0  0  0  0  0  0  0  0
  196.5613  181.8518  149.8356 H   0  0  0  0  0  0  0  0  0  0  0  0
  196.3197  179.5519  150.7853 H   0  0  0  0  0  0  0  0  0  0  0  0
  196.5450  179.1746  153.1942 H   0  0  0  0  0  0  0  0  0  0  0  0
  197.4795  184.5230  153.5463 H   0  0  0  0  0  0  0  0  0  0  0  0
  1  2  1  0
  2  3  2  0
  2  8  1  0
  3  4  1  0
  3  5  1  0
  4 34  1  0
  4 35  1  0
  5  6  2  0
  5  9  1  0
  6  7  1  0
  6 36  1  0
  7  8  2  0
  7 37  1  0
  8 38  1  0
  9 10  1  0
  9 39  1  1
  9 40  1  0
 10 11  1  0
 10 41  1  0
 11 12  1  0
 11 29  2  0
 12 13  2  0
 13 14  1  0
 13 27  1  0
 14 15  1  0
 14 42  1  0
 15 16  1  0
 15 43  1  1
 15 44  1  0
 16 17  1  0
 16 45  1  1
 16 46  1  0
 17 18  1  0
 17 22  2  0
 18 19  2  0
 18 47  1  0
 19 20  1  0
 19 48  1  0
 20 21  2  0
 20 23  1  0
 21 22  1  0
 21 49  1  0
 22 50  1  0
 23 24  1  0
 23 51  1  6
 23 52  1  0
 24 25  1  0
 24 26  1  0
 25 53  1  1
 25 54  1  0
 25 55  1  0
 26 56  1  1
 26 57  1  0
 26 58  1  0
 27 28  1  0
 27 33  2  0
 28 29  1  0
 28 30  2  0
 29 63  1  0
 30 31  1  0
 30 59  1  0
 31 32  2  0
 31 60  1  0
 32 33  1  0
 32 61  1  0
 33 62  1  0
M  CHG  1  29   1
M  END
>  <s_epik_cmdline>  (924) 
J2VwaWtfcHl0aG9uJywgJy1waCcsICc3LjAwMDAwMCcsICctcGh0JywgJzIuMDAwMDAwJywgJy1tcycsICcxNicsICctdG4nLCAnOCcsICctbWEnLCAnMjAwJywgJy1pbWFlJywgJzxpbmZpbGUubWFlPicsICctb21hZScsICc8b3V0ZmlsZS5tYWU+Jw==

>  <s_epik_input>  (924) 
Q2xjMWMoW05IMl0pYyhbY0hdW2NIXVtjSF0xKVtDSDJdW05IXWMobmMoYzIzKVtjSF1bY0hdW2NIXVtjSF0zKW5jMltOSF1bQ0gyXVtDSDJdYzRbY0hdW2NIXWMoW2NIXVtjSF00KVtDSDJdTihbQ0gzXSlbQ0gzXQ==

>  <s_i_glide_gridfile>  (924) 
ATP-Grid

>  <s_lp_Force_Field>  (924) 
OPLS_2005

>  <s_lp_Variant>  (924) 
m_282030aaa____21926464____22360182____21936236-2

>  <s_lp_label>  (924) 
829_sdstereoexpander_1_neutralizer_1_epik_2_stereoizer_1

>  <s_m_source_file>  (924) 
ATP-VSW-LIGPREP-002-in.maegz

>  <s_sd_BIOSOLVEIT.INFINISEE\_QUERY\_NAME>  (924) 
Ref-Lig

>  <s_sd_BIOSOLVEIT.INFINISEE\_QUERY\_SMILES>  (924) 
S(c1nc2c(cc1C[NH2+]Cc3ccc(cc3)C[NH+](C)C)cccc2)Cc4ccccc4

>  <s_sd_BIOSOLVEIT.INFINISEE\_REACTION\_NAME>  (924) 
m_282030aaa

>  <s_sd_BIOSOLVEIT.INFINISEE\_REAGENT1\_SMILES>  (924) 
[R1*]NCCc1ccc(cc1)CN(C)C

>  <s_sd_BIOSOLVEIT.INFINISEE\_REAGENT2\_SMILES>  (924) 
[R2*]c1nc([R1*])c2c(n1)cccc2

>  <s_sd_BIOSOLVEIT.INFINISEE\_REAGENT3\_SMILES>  (924) 
[R2*]NCc1c(N)c(Cl)ccc1

>  <s_sd_BIOSOLVEIT.INFINISEE\_SPACE>  (924) 
REALSpace_44bn_2023-08

>  <s_vsw_compound_code>  (924) 
26498

>  <s_vsw_variant>  (924) 
26498-2

>  <r_epik_Charging_Adjusted_Penalty>  (924) 
1.64200878460804

>  <r_epik_Ionization_Penalty>  (924) 
1.6171

>  <r_epik_Ionization_Penalty_Charging>  (924) 
0.013599999999999999

>  <r_epik_Ionization_Penalty_Neutral>  (924) 
1.6034999999999999

>  <r_epik_State_Penalty>  (924) 
1.6284000000000001

>  <r_i_docking_score>  (924) 
-2.65640299054939

>  <r_i_glide_ecoul>  (924) 
-3.9188499450683598

>  <r_i_glide_eff_state_penalty>  (924) 
1.6284000000000001

>  <r_i_glide_einternal>  (924) 
10.4459629058838

>  <r_i_glide_emodel>  (924) 
-55.738414028034803

>  <r_i_glide_energy>  (924) 
-44.810047149658203

>  <r_i_glide_erotb>  (924) 
0.75485207178853597

>  <r_i_glide_esite>  (924) 
-0.14318249710769199

>  <r_i_glide_evdw>  (924) 
-40.891197204589801

>  <r_i_glide_gscore>  (924) 
-4.2848029905493901

>  <r_i_glide_hbond>  (924) 
-0.16

>  <r_i_glide_ligand_efficiency>  (924) 
-0.080497060319678501

>  <r_i_glide_ligand_efficiency_ln>  (924) 
-0.590770270979604

>  <r_i_glide_ligand_efficiency_sa>  (924) 
-0.25819708413818399

>  <r_i_glide_lipo>  (924) 
-1.8450577132404899

>  <r_i_glide_metal>  (924) 
-0

>  <r_i_glide_rewards>  (924) 
-0.25902749999999802

>  <r_lp_Energy>  (924) 
20.014893000000001

>  <r_qp_ACxDN^.5/SA>  (924) 
0.0148865

>  <r_qp_CIQPlogS>  (924) 
-6.2270000000000003

>  <r_qp_EA(eV)>  (924) 
0.54500000000000004

>  <r_qp_FISA>  (924) 
62.411999999999999

>  <r_qp_FOSA>  (924) 
264.28699999999998

>  <r_qp_IP(eV)>  (924) 
7.9790000000000001

>  <r_qp_Jm>  (924) 
0.037473194819069099

>  <r_qp_PISA>  (924) 
398.98000000000002

>  <r_qp_PSA>  (924) 
68.573999999999998

>  <r_qp_PercentHumanOralAbsorption>  (924) 
100

>  <r_qp_QPPCaco>  (924) 
632.32799999999997

>  <r_qp_QPPMDCK>  (924) 
476.899

>  <r_qp_QPlogBB>  (924) 
-0.20499999999999999

>  <r_qp_QPlogHERG>  (924) 
-7.2320000000000002

>  <r_qp_QPlogKhsa>  (924) 
0.70899999999999996

>  <r_qp_QPlogKp>  (924) 
-2.367

>  <r_qp_QPlogPC16>  (924) 
15.654999999999999

>  <r_qp_QPlogPo/w>  (924) 
4.8630000000000004

>  <r_qp_QPlogPoct>  (924) 
24.34

>  <r_qp_QPlogPw>  (924) 
13.512

>  <r_qp_QPlogS>  (924) 
-4.7229999999999999

>  <r_qp_QPpolrz>  (924) 
48.055999999999997

>  <r_qp_SASA>  (924) 
754.03899999999999

>  <r_qp_SAamideO>  (924) 
0

>  <r_qp_SAfluorine>  (924) 
0

>  <r_qp_WPSA>  (924) 
28.359999999999999

>  <r_qp_accptHB>  (924) 
6

>  <r_qp_dip^2/V>  (924) 
0.0084890999999999994

>  <r_qp_dipole>  (924) 
3.472

>  <r_qp_donorHB>  (924) 
3.5

>  <r_qp_glob>  (924) 
0.81019680000000005

>  <r_qp_mol_MW>  (924) 
461.00799999999998

>  <r_qp_volume>  (924) 
1419.806

>  <r_sd_BIOSOLVEIT.INFINISEE\_FTREES\_SIMILARITY>  (924) 
0.92200000000000004

>  <r_sd_BIOSOLVEIT.LOGP>  (924) 
3.7766000000000002

>  <r_sd_BIOSOLVEIT.MOLECULAR\_WEIGHT>  (924) 
462.01799999999997

>  <r_sd_BIOSOLVEIT.TPSA>  (924) 
80.299999999999997

>  <i_epik_Tot_Q>  (924) 
1

>  <i_epik_Tot_abs_Q>  (924) 
1

>  <i_f3d_flags>  (924) 
0

>  <i_i_glide_confnum>  (924) 
11

>  <i_i_glide_lignum>  (924) 
259

>  <i_i_glide_posenum>  (924) 
19

>  <i_i_glide_rotatable_bonds>  (924) 
9

>  <i_lp_mmshare_version>  (924) 
65135

>  <i_m_ct_format>  (924) 
2

>  <i_m_source_file_index>  (924) 
829

>  <i_qp_#NandO>  (924) 
6

>  <i_qp_#acid>  (924) 
0

>  <i_qp_#amide>  (924) 
0

>  <i_qp_#amidine>  (924) 
0

>  <i_qp_#amine>  (924) 
1

>  <i_qp_#in34>  (924) 
0

>  <i_qp_#in56>  (924) 
22

>  <i_qp_#metab>  (924) 
7

>  <i_qp_#nonHatm>  (924) 
33

>  <i_qp_#noncon>  (924) 
0

>  <i_qp_#ringatoms>  (924) 
22

>  <i_qp_#rotor>  (924) 
10

>  <i_qp_#rtvFG>  (924) 
0

>  <i_qp_#stars>  (924) 
0

>  <i_qp_CNS>  (924) 
0

>  <i_qp_HumanOralAbsorption>  (924) 
3

>  <i_qp_RuleOfFive>  (924) 
0

>  <i_qp_RuleOfThree>  (924) 
1

>  <i_sd_BIOSOLVEIT.INFINISEE\_REAGENT1\_NAME>  (924) 
21926464

>  <i_sd_BIOSOLVEIT.INFINISEE\_REAGENT2\_NAME>  (924) 
22360182

>  <i_sd_BIOSOLVEIT.INFINISEE\_REAGENT3\_NAME>  (924) 
21936236

>  <i_sd_BIOSOLVEIT.INFINISEE\_RESULT\_RANK>  (924) 
13458

>  <i_sd_version>  (924) 
0

>  <b_lp_Chiralities_Consistent>  (924) 
1

>  <b_sd_chiral_flag>  (924) 
0

>  <canonical_id>  (924) 
ATP-HTVS-92D1D8A066E2

>  <compound_code>  (924) 
26498

>  <title>  (924) 
m_282030aaa____21926464____22360182____21936236

>  <variant>  (924) 
26498-2

>  <source_file>  (924) 
运行/运行/ATP-VSW/ATP-VSW-DOCK_HTVS_1-002_lib.maegz

>  <canonical_smiles>  (924) 
CN(C)Cc1ccc(CCNc2nc(NCc3cccc(Cl)c3N)[nH+]c3ccccc23)cc1

>  <scaffold>  (924) 
c1ccc(CCNc2nc(NCc3ccccc3)[nH+]c3ccccc23)cc1

>  <molecular_formula>  (924) 
C26H30ClN6+

$$$$
ATP-HTVS-92F0D0267220
     RDKit          3D

 64 66  0  0  0  0  0  0  0  0999 V2000
  201.0657  175.8370  151.7421 O   0  0  0  0  0  0  0  0  0  0  0  0
  201.6615  175.3913  152.8939 C   0  0  0  0  0  0  0  0  0  0  0  0
  201.6386  174.0150  153.2154 C   0  0  0  0  0  0  0  0  0  0  0  0
  200.9701  173.1694  152.3528 O   0  0  0  0  0  0  0  0  0  0  0  0
  201.2928  171.7848  152.3836 C   0  0  2  0  0  0  0  0  0  0  0  0
  202.3020  173.5722  154.3864 C   0  0  0  0  0  0  0  0  0  0  0  0
  202.9716  174.4892  155.2135 C   0  0  0  0  0  0  0  0  0  0  0  0
  202.9976  175.8544  154.8808 C   0  0  0  0  0  0  0  0  0  0  0  0
  202.3479  176.3107  153.7166 C   0  0  0  0  0  0  0  0  0  0  0  0
  202.4268  177.7851  153.3441 C   0  0  1  0  0  0  0  0  0  0  0  0
  201.2101  178.5457  153.7097 N   0  0  1  0  0  0  0  0  0  0  0  0
  201.0616  178.7547  155.1757 C   0  0  1  0  0  0  0  0  0  0  0  0
  199.8151  179.5591  155.5120 C   0  0  0  0  0  0  0  0  0  0  0  0
  199.9373  180.8333  156.1017 C   0  0  0  0  0  0  0  0  0  0  0  0
  198.7922  181.6103  156.3574 C   0  0  0  0  0  0  0  0  0  0  0  0
  197.5085  181.1019  156.0795 C   0  0  0  0  0  0  0  0  0  0  0  0
  197.3874  179.8318  155.4732 C   0  0  0  0  0  0  0  0  0  0  0  0
  198.5309  179.0584  155.1998 C   0  0  0  0  0  0  0  0  0  0  0  0
  196.2577  181.9032  156.4294 C   0  0  1  0  0  0  0  0  0  0  0  0
  195.8938  181.8371  157.8763 N   0  0  1  0  0  0  0  0  0  0  0  0
  196.7995  182.5945  158.7754 C   0  0  2  0  0  0  0  0  0  0  0  0
  194.4824  182.2120  158.1338 C   0  0  2  0  0  0  0  0  0  0  0  0
  201.0796  179.7951  152.9085 C   0  0  2  0  0  0  0  0  0  0  0  0
  199.6725  176.0695  151.8666 C   0  0  1  0  0  0  0  0  0  0  0  0
  199.0822  176.5806  150.5703 C   0  0  0  0  0  0  0  0  0  0  0  0
  198.3477  177.7882  150.5443 C   0  0  0  0  0  0  0  0  0  0  0  0
  197.7847  178.2430  149.3384 C   0  0  0  0  0  0  0  0  0  0  0  0
  197.9504  177.4984  148.1549 C   0  0  0  0  0  0  0  0  0  0  0  0
  198.6885  176.2988  148.1758 C   0  0  0  0  0  0  0  0  0  0  0  0
  199.2510  175.8396  149.3830 C   0  0  0  0  0  0  0  0  0  0  0  0
  200.6455  171.2549  151.6827 H   0  0  0  0  0  0  0  0  0  0  0  0
  201.1447  171.3278  153.3600 H   0  0  0  0  0  0  0  0  0  0  0  0
  202.3261  171.6252  152.0827 H   0  0  0  0  0  0  0  0  0  0  0  0
  202.3090  172.5327  154.6763 H   0  0  0  0  0  0  0  0  0  0  0  0
  203.4738  174.1375  156.1026 H   0  0  0  0  0  0  0  0  0  0  0  0
  203.5398  176.5473  155.5058 H   0  0  0  0  0  0  0  0  0  0  0  0
  203.3111  178.2416  153.7935 H   0  0  0  0  0  0  0  0  0  0  0  0
  202.5818  177.8396  152.2655 H   0  0  0  0  0  0  0  0  0  0  0  0
  201.0081  177.8002  155.7054 H   0  0  0  0  0  0  0  0  0  0  0  0
  201.9541  179.2635  155.5502 H   0  0  0  0  0  0  0  0  0  0  0  0
  200.9079  181.2280  156.3555 H   0  0  0  0  0  0  0  0  0  0  0  0
  198.9183  182.5994  156.7787 H   0  0  0  0  0  0  0  0  0  0  0  0
  196.4079  179.4352  155.2390 H   0  0  0  0  0  0  0  0  0  0  0  0
  198.4077  178.0795  154.7577 H   0  0  0  0  0  0  0  0  0  0  0  0
  196.3523  182.9416  156.1031 H   0  0  0  0  0  0  0  0  0  0  0  0
  195.4482  181.4501  155.8569 H   0  0  0  0  0  0  0  0  0  0  0  0
  196.7971  183.6537  158.5086 H   0  0  0  0  0  0  0  0  0  0  0  0
  197.8278  182.2382  158.7373 H   0  0  0  0  0  0  0  0  0  0  0  0
  196.4719  182.5201  159.8163 H   0  0  0  0  0  0  0  0  0  0  0  0
  194.2969  183.2493  157.8463 H   0  0  0  0  0  0  0  0  0  0  0  0
  194.2309  182.1068  159.1884 H   0  0  0  0  0  0  0  0  0  0  0  0
  193.7979  181.5677  157.5777 H   0  0  0  0  0  0  0  0  0  0  0  0
  201.8779  180.4978  153.1524 H   0  0  0  0  0  0  0  0  0  0  0  0
  200.1259  180.3058  153.0568 H   0  0  0  0  0  0  0  0  0  0  0  0
  201.1352  179.5761  151.8412 H   0  0  0  0  0  0  0  0  0  0  0  0
  199.1437  175.1611  152.1589 H   0  0  0  0  0  0  0  0  0  0  0  0
  199.5102  176.8029  152.6543 H   0  0  0  0  0  0  0  0  0  0  0  0
  198.2024  178.3582  151.4493 H   0  0  0  0  0  0  0  0  0  0  0  0
  197.2054  179.1568  149.3233 H   0  0  0  0  0  0  0  0  0  0  0  0
  197.5074  177.8409  147.2307 H   0  0  0  0  0  0  0  0  0  0  0  0
  198.8077  175.7256  147.2686 H   0  0  0  0  0  0  0  0  0  0  0  0
  199.8041  174.9115  149.4004 H   0  0  0  0  0  0  0  0  0  0  0  0
  195.9464  180.8421  158.0996 H   0  0  0  0  0  0  0  0  0  0  0  0
  200.4313  177.9648  153.4422 H   0  0  0  0  0  0  0  0  0  0  0  0
  1  2  1  0
  1 24  1  0
  2  3  2  0
  2  9  1  0
  3  4  1  0
  3  6  1  0
  4  5  1  0
  5 31  1  6
  5 32  1  0
  5 33  1  0
  6  7  2  0
  6 34  1  0
  7  8  1  0
  7 35  1  0
  8  9  2  0
  8 36  1  0
  9 10  1  0
 10 11  1  0
 10 37  1  1
 10 38  1  0
 11 12  1  0
 11 23  1  0
 11 64  1  6
 12 13  1  0
 12 39  1  1
 12 40  1  0
 13 14  1  0
 13 18  2  0
 14 15  2  0
 14 41  1  0
 15 16  1  0
 15 42  1  0
 16 17  2  0
 16 19  1  0
 17 18  1  0
 17 43  1  0
 18 44  1  0
 19 20  1  0
 19 45  1  6
 19 46  1  0
 20 21  1  0
 20 22  1  0
 20 63  1  1
 21 47  1  6
 21 48  1  0
 21 49  1  0
 22 50  1  6
 22 51  1  0
 22 52  1  0
 23 53  1  1
 23 54  1  0
 23 55  1  0
 24 25  1  0
 24 56  1  1
 24 57  1  0
 25 26  2  0
 25 30  1  0
 26 27  1  0
 26 58  1  0
 27 28  2  0
 27 59  1  0
 28 29  1  0
 28 60  1  0
 29 30  2  0
 29 61  1  0
 30 62  1  0
M  CHG  2  11   1  20   1
M  END
>  <s_epik_cmdline>  (925) 
J2VwaWtfcHl0aG9uJywgJy1waCcsICc3LjAwMDAwMCcsICctcGh0JywgJzIuMDAwMDAwJywgJy1tcycsICcxNicsICctdG4nLCAnOCcsICctbWEnLCAnMjAwJywgJy1pbWFlJywgJzxpbmZpbGUubWFlPicsICctb21hZScsICc8b3V0ZmlsZS5tYWU+Jw==

>  <s_epik_input>  (925) 
W2NIXTFbY0hdW2NIXVtjSF1bY0hdYzFbQ0gyXU9jMmMoT1tDSDNdKVtjSF1bY0hdW2NIXWMyW0NIMl1OKFtDSDNdKVtDSDJdYzNbY0hdW2NIXWMoW2NIXVtjSF0zKVtDSDJdTihbQ0gzXSlbQ0gzXQ==

>  <s_i_glide_gridfile>  (925) 
ATP-Grid

>  <s_lp_Force_Field>  (925) 
OPLS_2005

>  <s_lp_Variant>  (925) 
m_270004bca____10206040____24720332-1

>  <s_lp_label>  (925) 
1425_sdstereoexpander_1_neutralizer_1_epik_1_stereoizer_1

>  <s_m_source_file>  (925) 
ATP-VSW-LIGPREP-002-in.maegz

>  <s_sd_BIOSOLVEIT.INFINISEE\_QUERY\_NAME>  (925) 
Ref-Lig

>  <s_sd_BIOSOLVEIT.INFINISEE\_QUERY\_SMILES>  (925) 
S(c1nc2c(cc1C[NH2+]Cc3ccc(cc3)C[NH+](C)C)cccc2)Cc4ccccc4

>  <s_sd_BIOSOLVEIT.INFINISEE\_REACTION\_NAME>  (925) 
m_270004bca

>  <s_sd_BIOSOLVEIT.INFINISEE\_REAGENT1\_SMILES>  (925) 
[R1*]N(Cc1ccc(cc1)CN(C)C)C

>  <s_sd_BIOSOLVEIT.INFINISEE\_REAGENT2\_SMILES>  (925) 
[R1*]Cc1c(OCc2ccccc2)c(OC)ccc1

>  <s_sd_BIOSOLVEIT.INFINISEE\_SPACE>  (925) 
REALSpace_44bn_2023-08

>  <s_vsw_compound_code>  (925) 
45570

>  <s_vsw_variant>  (925) 
45570-1

>  <r_epik_Charging_Adjusted_Penalty>  (925) 
0.38977114831933701

>  <r_epik_Ionization_Penalty>  (925) 
0.19370000000000001

>  <r_epik_Ionization_Penalty_Charging>  (925) 
0.19370000000000001

>  <r_epik_Ionization_Penalty_Neutral>  (925) 
0

>  <r_epik_State_Penalty>  (925) 
0.1961

>  <r_i_docking_score>  (925) 
-4.57744836383982

>  <r_i_glide_ecoul>  (925) 
-12.4736175537109

>  <r_i_glide_eff_state_penalty>  (925) 
0.1961

>  <r_i_glide_einternal>  (925) 
3.9138309955596902

>  <r_i_glide_emodel>  (925) 
-61.950924220085398

>  <r_i_glide_energy>  (925) 
-43.343399047851598

>  <r_i_glide_erotb>  (925) 
0.95169949150544197

>  <r_i_glide_esite>  (925) 
-0.10000000000000001

>  <r_i_glide_evdw>  (925) 
-30.8697814941406

>  <r_i_glide_gscore>  (925) 
-4.7735483638398204

>  <r_i_glide_hbond>  (925) 
-0.20000000000000001

>  <r_i_glide_ligand_efficiency>  (925) 
-0.15258161212799401

>  <r_i_glide_ligand_efficiency_ln>  (925) 
-1.04004614355903

>  <r_i_glide_ligand_efficiency_sa>  (925) 
-0.474106544477437

>  <r_i_glide_lipo>  (925) 
-1.1486276930361401

>  <r_i_glide_metal>  (925) 
-0

>  <r_i_glide_rewards>  (925) 
-0.86208845454545302

>  <r_lp_Energy>  (925) 
30.024013

>  <r_lp_tautomer_probability>  (925) 
1

>  <r_qp_ACxDN^.5/SA>  (925) 
0

>  <r_qp_CIQPlogS>  (925) 
-4.0960000000000001

>  <r_qp_EA(eV)>  (925) 
-0.14099999999999999

>  <r_qp_FISA>  (925) 
2.403

>  <r_qp_FOSA>  (925) 
350.36399999999998

>  <r_qp_IP(eV)>  (925) 
8.8759999999999994

>  <r_qp_Jm>  (925) 
0.48759928824400001

>  <r_qp_PISA>  (925) 
339.31400000000002

>  <r_qp_PSA>  (925) 
22.137

>  <r_qp_PercentHumanOralAbsorption>  (925) 
100

>  <r_qp_QPPCaco>  (925) 
584.678

>  <r_qp_QPPMDCK>  (925) 
338.98000000000002

>  <r_qp_QPlogBB>  (925) 
0.73599999999999999

>  <r_qp_QPlogHERG>  (925) 
-6.9960000000000004

>  <r_qp_QPlogKhsa>  (925) 
0.63100000000000001

>  <r_qp_QPlogKp>  (925) 
-3.5339999999999998

>  <r_qp_QPlogPC16>  (925) 
13.083

>  <r_qp_QPlogPo/w>  (925) 
4.7279999999999998

>  <r_qp_QPlogPoct>  (925) 
17.300000000000001

>  <r_qp_QPlogPw>  (925) 
6.9210000000000003

>  <r_qp_QPlogS>  (925) 
-2.3849999999999998

>  <r_qp_QPpolrz>  (925) 
44.552999999999997

>  <r_qp_SASA>  (925) 
692.08100000000002

>  <r_qp_SAamideO>  (925) 
0

>  <r_qp_SAfluorine>  (925) 
0

>  <r_qp_WPSA>  (925) 
0

>  <r_qp_accptHB>  (925) 
5.5

>  <r_qp_dip^2/V>  (925) 
0.0034366000000000002

>  <r_qp_dipole>  (925) 
2.1509999999999998

>  <r_qp_donorHB>  (925) 
0

>  <r_qp_glob>  (925) 
0.85208459999999997

>  <r_qp_mol_MW>  (925) 
404.55099999999999

>  <r_qp_volume>  (925) 
1346.5170000000001

>  <r_sd_BIOSOLVEIT.INFINISEE\_FTREES\_SIMILARITY>  (925) 
0.90800000000000003

>  <r_sd_BIOSOLVEIT.LOGP>  (925) 
2.1335999999999999

>  <r_sd_BIOSOLVEIT.MOLECULAR\_WEIGHT>  (925) 
406.56700000000001

>  <r_sd_BIOSOLVEIT.TPSA>  (925) 
27.34

>  <i_epik_Tot_Q>  (925) 
2

>  <i_epik_Tot_abs_Q>  (925) 
2

>  <i_f3d_flags>  (925) 
0

>  <i_i_glide_confnum>  (925) 
10

>  <i_i_glide_lignum>  (925) 
499

>  <i_i_glide_posenum>  (925) 
1

>  <i_i_glide_rotatable_bonds>  (925) 
10

>  <i_lp_mmshare_version>  (925) 
65135

>  <i_m_ct_format>  (925) 
2

>  <i_m_source_file_index>  (925) 
1425

>  <i_qp_#NandO>  (925) 
4

>  <i_qp_#acid>  (925) 
0

>  <i_qp_#amide>  (925) 
0

>  <i_qp_#amidine>  (925) 
0

>  <i_qp_#amine>  (925) 
2

>  <i_qp_#in34>  (925) 
0

>  <i_qp_#in56>  (925) 
18

>  <i_qp_#metab>  (925) 
8

>  <i_qp_#nonHatm>  (925) 
30

>  <i_qp_#noncon>  (925) 
0

>  <i_qp_#ringatoms>  (925) 
18

>  <i_qp_#rotor>  (925) 
10

>  <i_qp_#rtvFG>  (925) 
0

>  <i_qp_#stars>  (925) 
1

>  <i_qp_CNS>  (925) 
2

>  <i_qp_HumanOralAbsorption>  (925) 
3

>  <i_qp_RuleOfFive>  (925) 
0

>  <i_qp_RuleOfThree>  (925) 
1

>  <i_sd_BIOSOLVEIT.INFINISEE\_REAGENT1\_NAME>  (925) 
10206040

>  <i_sd_BIOSOLVEIT.INFINISEE\_REAGENT2\_NAME>  (925) 
24720332

>  <i_sd_BIOSOLVEIT.INFINISEE\_RESULT\_RANK>  (925) 
54428

>  <i_sd_version>  (925) 
0

>  <b_lp_Chiralities_Consistent>  (925) 
1

>  <b_sd_chiral_flag>  (925) 
0

>  <canonical_id>  (925) 
ATP-HTVS-92F0D0267220

>  <compound_code>  (925) 
45570

>  <title>  (925) 
m_270004bca____10206040____24720332

>  <variant>  (925) 
45570-1

>  <source_file>  (925) 
运行/运行/ATP-VSW/ATP-VSW-DOCK_HTVS_1-002_lib.maegz

>  <canonical_smiles>  (925) 
COc1cccc(C[N@H+](C)Cc2ccc(C[NH+](C)C)cc2)c1OCc1ccccc1

>  <scaffold>  (925) 
c1ccc(C[NH2+]Cc2ccccc2OCc2ccccc2)cc1

>  <molecular_formula>  (925) 
C26H34N2O2+2

$$$$
ATP-HTVS-9352BEE24C86
     RDKit          3D

 58 61  0  0  0  0  0  0  0  0999 V2000
  191.5609  186.6410  163.3678 N   0  0  0  0  0  0  0  0  0  0  0  0
  191.8585  187.7599  163.3195 C   0  0  0  0  0  0  0  0  0  0  0  0
  192.2364  189.1880  163.2717 C   0  0  2  0  0  0  0  0  0  0  0  0
  193.5861  189.4065  162.5750 C   0  0  0  0  0  0  0  0  0  0  0  0
  194.1379  188.3168  161.9676 N   0  0  0  0  0  0  0  0  0  0  0  0
  195.3427  188.4452  161.3247 C   0  0  0  0  0  0  0  0  0  0  0  0
  195.8977  187.3329  160.7071 N   0  0  0  0  0  0  0  0  0  0  0  0
  195.1211  186.1237  160.4918 C   0  0  1  0  0  0  0  0  0  0  0  0
  195.7466  185.1939  159.4802 C   0  0  0  0  0  0  0  0  0  0  0  0
  195.4004  183.8325  159.4889 C   0  0  0  0  0  0  0  0  0  0  0  0
  195.9681  182.9543  158.5465 C   0  0  0  0  0  0  0  0  0  0  0  0
  196.8951  183.4178  157.5830 C   0  0  0  0  0  0  0  0  0  0  0  0
  197.4881  182.5509  156.6438 N   0  0  0  0  0  0  0  0  0  0  0  0
  197.6464  181.1203  156.9111 C   0  0  1  0  0  0  0  0  0  0  0  0
  197.0291  180.2947  155.7663 C   0  0  1  0  0  0  0  0  0  0  0  0
  197.5538  180.7309  154.4533 N   0  0  2  0  0  0  0  0  0  0  0  0
  197.3236  182.1742  154.2140 C   0  0  1  0  0  0  0  0  0  0  0  0
  197.9409  183.0288  155.3354 C   0  0  1  0  0  0  0  0  0  0  0  0
  197.0279  179.9036  153.3512 C   0  0  2  0  0  0  0  0  0  0  0  0
  197.2239  184.7910  157.5820 C   0  0  0  0  0  0  0  0  0  0  0  0
  196.6517  185.6728  158.5127 C   0  0  0  0  0  0  0  0  0  0  0  0
  196.0616  189.6556  161.3040 C   0  0  0  0  0  0  0  0  0  0  0  0
  195.4949  190.7709  161.9550 C   0  0  0  0  0  0  0  0  0  0  0  0
  194.2450  190.6602  162.5934 C   0  0  0  0  0  0  0  0  0  0  0  0
  192.1335  189.8378  164.6634 C   0  0  0  0  0  0  0  0  0  0  0  0
  192.2373  191.2457  164.7965 C   0  0  0  0  0  0  0  0  0  0  0  0
  192.2914  191.8362  166.0780 C   0  0  0  0  0  0  0  0  0  0  0  0
  192.1135  191.0549  167.2397 C   0  0  0  0  0  0  0  0  0  0  0  0
  191.9111  189.6627  167.1113 C   0  0  0  0  0  0  0  0  0  0  0  0
  191.9435  189.0536  165.8339 C   0  0  0  0  0  0  0  0  0  0  0  0
  191.4721  189.6537  162.6486 H   0  0  0  0  0  0  0  0  0  0  0  0
  196.7862  187.4576  160.2428 H   0  0  0  0  0  0  0  0  0  0  0  0
  195.0451  185.6277  161.4603 H   0  0  0  0  0  0  0  0  0  0  0  0
  194.1073  186.3700  160.1674 H   0  0  0  0  0  0  0  0  0  0  0  0
  194.6886  183.4536  160.2063 H   0  0  0  0  0  0  0  0  0  0  0  0
  195.6545  181.9227  158.5840 H   0  0  0  0  0  0  0  0  0  0  0  0
  198.7102  180.9064  156.9921 H   0  0  0  0  0  0  0  0  0  0  0  0
  197.2181  180.8054  157.8639 H   0  0  0  0  0  0  0  0  0  0  0  0
  197.2284  179.2313  155.9341 H   0  0  0  0  0  0  0  0  0  0  0  0
  195.9494  180.4291  155.7654 H   0  0  0  0  0  0  0  0  0  0  0  0
  197.7355  182.4775  153.2460 H   0  0  0  0  0  0  0  0  0  0  0  0
  196.2502  182.3557  154.1764 H   0  0  0  0  0  0  0  0  0  0  0  0
  197.6708  184.0703  155.1484 H   0  0  0  0  0  0  0  0  0  0  0  0
  199.0292  182.9689  155.3016 H   0  0  0  0  0  0  0  0  0  0  0  0
  195.9570  180.0617  153.2509 H   0  0  0  0  0  0  0  0  0  0  0  0
  197.2059  178.8453  153.5469 H   0  0  0  0  0  0  0  0  0  0  0  0
  197.5108  180.1559  152.4044 H   0  0  0  0  0  0  0  0  0  0  0  0
  197.9363  185.2057  156.8861 H   0  0  0  0  0  0  0  0  0  0  0  0
  196.9364  186.7133  158.4624 H   0  0  0  0  0  0  0  0  0  0  0  0
  197.0183  189.7463  160.8084 H   0  0  0  0  0  0  0  0  0  0  0  0
  196.0135  191.7150  161.9792 H   0  0  0  0  0  0  0  0  0  0  0  0
  193.8737  191.5265  163.0682 H   0  0  0  0  0  0  0  0  0  0  0  0
  192.3194  191.8738  163.9336 H   0  0  0  0  0  0  0  0  0  0  0  0
  192.4740  192.8982  166.1635 H   0  0  0  0  0  0  0  0  0  0  0  0
  192.1018  191.5172  168.2196 H   0  0  0  0  0  0  0  0  0  0  0  0
  191.7323  189.0518  167.9893 H   0  0  0  0  0  0  0  0  0  0  0  0
  191.8119  187.9800  165.7939 H   0  0  0  0  0  0  0  0  0  0  0  0
  198.5522  180.5957  154.4918 H   0  0  0  0  0  0  0  0  0  0  0  0
  1  2  3  0
  2  3  1  0
  3  4  1  0
  3 25  1  0
  3 31  1  6
  4  5  1  0
  4 24  2  0
  5  6  2  0
  6  7  1  0
  6 22  1  0
  7  8  1  0
  7 32  1  0
  8  9  1  0
  8 33  1  1
  8 34  1  0
  9 10  1  0
  9 21  2  0
 10 11  2  0
 10 35  1  0
 11 12  1  0
 11 36  1  0
 12 13  1  0
 12 20  2  0
 13 14  1  0
 13 18  1  0
 14 15  1  0
 14 37  1  1
 14 38  1  0
 15 16  1  0
 15 39  1  1
 15 40  1  0
 16 17  1  0
 16 19  1  0
 16 58  1  1
 17 18  1  0
 17 41  1  6
 17 42  1  0
 18 43  1  6
 18 44  1  0
 19 45  1  6
 19 46  1  0
 19 47  1  0
 20 21  1  0
 20 48  1  0
 21 49  1  0
 22 23  2  0
 22 50  1  0
 23 24  1  0
 23 51  1  0
 24 52  1  0
 25 26  2  0
 25 30  1  0
 26 27  1  0
 26 53  1  0
 27 28  2  0
 27 54  1  0
 28 29  1  0
 28 55  1  0
 29 30  2  0
 29 56  1  0
 30 57  1  0
M  CHG  1  16   1
M  END
>  <s_epik_cmdline>  (926) 
J2VwaWtfcHl0aG9uJywgJy1waCcsICc3LjAwMDAwMCcsICctcGh0JywgJzIuMDAwMDAwJywgJy1tcycsICcxNicsICctdG4nLCAnOCcsICctbWEnLCAnMjAwJywgJy1pbWFlJywgJzxpbmZpbGUubWFlPicsICctb21hZScsICc8b3V0ZmlsZS5tYWU+Jw==

>  <s_epik_input>  (926) 
W2NIXTFbY0hdW2NIXVtjSF1bY0hdYzFbQ0BIXShDI04pYzJuYyhbY0hdW2NIXVtjSF0yKVtOSF1bQ0gyXWMzW2NIXVtjSF1jKFtjSF1bY0hdMylONFtDSDJdW0NIMl1OKFtDSDNdKVtDSDJdW0NIMl00

>  <s_i_glide_gridfile>  (926) 
ATP-Grid

>  <s_lp_Force_Field>  (926) 
OPLS_2005

>  <s_lp_Variant>  (926) 
rxn102c____EMOL4852476____EMOL720506-2

>  <s_lp_label>  (926) 
2927_sdstereoexpander_2_neutralizer_1_epik_1_stereoizer_1

>  <s_m_source_file>  (926) 
ATP-VSW-LIGPREP-002-in.maegz

>  <s_sd_BIOSOLVEIT.INFINISEE\_QUERY\_NAME>  (926) 
Ref-Lig

>  <s_sd_BIOSOLVEIT.INFINISEE\_QUERY\_SMILES>  (926) 
S(c1nc2c(cc1C[NH2+]Cc3ccc(cc3)C[NH+](C)C)cccc2)Cc4ccccc4

>  <s_sd_BIOSOLVEIT.INFINISEE\_REACTION\_NAME>  (926) 
rxn102c

>  <s_sd_BIOSOLVEIT.INFINISEE\_REAGENT1\_NAME>  (926) 
EMOL4852476

>  <s_sd_BIOSOLVEIT.INFINISEE\_REAGENT1\_SMILES>  (926) 
Clc1nc(ccc1)C(C#N)c2ccccc2

>  <s_sd_BIOSOLVEIT.INFINISEE\_REAGENT2\_NAME>  (926) 
EMOL720506

>  <s_sd_BIOSOLVEIT.INFINISEE\_REAGENT2\_SMILES>  (926) 
N1(c2ccc(cc2)CN)CCN(CC1)C

>  <s_sd_BIOSOLVEIT.INFINISEE\_SPACE>  (926) 
eXplore_7tr_2022-12

>  <s_vsw_compound_code>  (926) 
93634

>  <s_vsw_variant>  (926) 
93634-2

>  <r_epik_Charging_Adjusted_Penalty>  (926) 
0.106780829566025

>  <r_epik_Ionization_Penalty>  (926) 
0.057200000000000001

>  <r_epik_Ionization_Penalty_Charging>  (926) 
0.053400000000000003

>  <r_epik_Ionization_Penalty_Neutral>  (926) 
0.0038

>  <r_epik_State_Penalty>  (926) 
0.053400000000000003

>  <r_i_docking_score>  (926) 
-5.2720309446230704

>  <r_i_glide_ecoul>  (926) 
-6.5442256927490199

>  <r_i_glide_eff_state_penalty>  (926) 
0.053400000000000003

>  <r_i_glide_einternal>  (926) 
3.33986115455627

>  <r_i_glide_emodel>  (926) 
-63.634577645906099

>  <r_i_glide_energy>  (926) 
-46.379369735717802

>  <r_i_glide_erotb>  (926) 
0.73990867034457597

>  <r_i_glide_esite>  (926) 
-0.055768984782519397

>  <r_i_glide_evdw>  (926) 
-39.8351440429688

>  <r_i_glide_gscore>  (926) 
-5.3254309446230703

>  <r_i_glide_hbond>  (926) 
-0.0053972167121270403

>  <r_i_glide_ligand_efficiency>  (926) 
-0.17573436482076901

>  <r_i_glide_ligand_efficiency_ln>  (926) 
-1.1978628739963599

>  <r_i_glide_ligand_efficiency_sa>  (926) 
-0.54604753016517604

>  <r_i_glide_lipo>  (926) 
-1.7534924414642099

>  <r_i_glide_metal>  (926) 
-0

>  <r_i_glide_rewards>  (926) 
-1.277289915948

>  <r_lp_Energy>  (926) 
42.864466999999998

>  <r_lp_tautomer_probability>  (926) 
0.99999977220005198

>  <r_qp_ACxDN^.5/SA>  (926) 
0.0079298000000000007

>  <r_qp_CIQPlogS>  (926) 
-6.0279999999999996

>  <r_qp_EA(eV)>  (926) 
0.17199999999999999

>  <r_qp_FISA>  (926) 
79.632999999999996

>  <r_qp_FOSA>  (926) 
258.62900000000002

>  <r_qp_IP(eV)>  (926) 
8.359

>  <r_qp_Jm>  (926) 
9.7916060367256403e-05

>  <r_qp_PISA>  (926) 
418.37400000000002

>  <r_qp_PSA>  (926) 
54.994999999999997

>  <r_qp_PercentHumanOralAbsorption>  (926) 
100

>  <r_qp_QPPCaco>  (926) 
434.14600000000002

>  <r_qp_QPPMDCK>  (926) 
222.10400000000001

>  <r_qp_QPlogBB>  (926) 
-0.26000000000000001

>  <r_qp_QPlogHERG>  (926) 
-7.7229999999999999

>  <r_qp_QPlogKhsa>  (926) 
0.873

>  <r_qp_QPlogKp>  (926) 
-3

>  <r_qp_QPlogPC16>  (926) 
14.717000000000001

>  <r_qp_QPlogPo/w>  (926) 
4.726

>  <r_qp_QPlogPoct>  (926) 
21.207999999999998

>  <r_qp_QPlogPw>  (926) 
10.978999999999999

>  <r_qp_QPlogS>  (926) 
-6.609

>  <r_qp_QPpolrz>  (926) 
48.518000000000001

>  <r_qp_SASA>  (926) 
756.63699999999994

>  <r_qp_SAamideO>  (926) 
0

>  <r_qp_SAfluorine>  (926) 
0

>  <r_qp_WPSA>  (926) 
0

>  <r_qp_accptHB>  (926) 
6

>  <r_qp_dip^2/V>  (926) 
0.035268500000000001

>  <r_qp_dipole>  (926) 
6.9320000000000004

>  <r_qp_donorHB>  (926) 
1

>  <r_qp_glob>  (926) 
0.78556159999999997

>  <r_qp_mol_MW>  (926) 
397.52199999999999

>  <r_qp_volume>  (926) 
1362.5540000000001

>  <r_sd_BIOSOLVEIT.INFINISEE\_FTREES\_SIMILARITY>  (926) 
0.90400000000000003

>  <r_sd_BIOSOLVEIT.LOGP>  (926) 
2.6838799999999998

>  <r_sd_BIOSOLVEIT.MOLECULAR\_WEIGHT>  (926) 
398.53100000000001

>  <r_sd_BIOSOLVEIT.TPSA>  (926) 
56.390000000000001

>  <i_epik_Tot_Q>  (926) 
1

>  <i_epik_Tot_abs_Q>  (926) 
1

>  <i_f3d_flags>  (926) 
0

>  <i_i_glide_confnum>  (926) 
7

>  <i_i_glide_lignum>  (926) 
1457

>  <i_i_glide_posenum>  (926) 
11

>  <i_i_glide_rotatable_bonds>  (926) 
6

>  <i_lp_mmshare_version>  (926) 
65135

>  <i_m_ct_format>  (926) 
2

>  <i_m_source_file_index>  (926) 
2927

>  <i_qp_#NandO>  (926) 
5

>  <i_qp_#acid>  (926) 
0

>  <i_qp_#amide>  (926) 
0

>  <i_qp_#amidine>  (926) 
0

>  <i_qp_#amine>  (926) 
1

>  <i_qp_#in34>  (926) 
0

>  <i_qp_#in56>  (926) 
24

>  <i_qp_#metab>  (926) 
5

>  <i_qp_#nonHatm>  (926) 
30

>  <i_qp_#noncon>  (926) 
4

>  <i_qp_#ringatoms>  (926) 
24

>  <i_qp_#rotor>  (926) 
6

>  <i_qp_#rtvFG>  (926) 
0

>  <i_qp_#stars>  (926) 
1

>  <i_qp_CNS>  (926) 
1

>  <i_qp_HumanOralAbsorption>  (926) 
1

>  <i_qp_RuleOfFive>  (926) 
0

>  <i_qp_RuleOfThree>  (926) 
1

>  <i_sd_BIOSOLVEIT.INFINISEE\_RESULT\_RANK>  (926) 
77747

>  <i_sd_version>  (926) 
0

>  <b_lp_Chiralities_Consistent>  (926) 
1

>  <b_sd_chiral_flag>  (926) 
0

>  <canonical_id>  (926) 
ATP-HTVS-9352BEE24C86

>  <compound_code>  (926) 
93634

>  <title>  (926) 
rxn102c____EMOL4852476____EMOL720506

>  <variant>  (926) 
93634-2

>  <source_file>  (926) 
运行/运行/ATP-VSW/ATP-VSW-DOCK_HTVS_1-002_lib.maegz

>  <canonical_smiles>  (926) 
C[NH+]1CCN(c2ccc(CNc3cccc([C@@H](C#N)c4ccccc4)n3)cc2)CC1

>  <scaffold>  (926) 
c1ccc(Cc2cccc(NCc3ccc(N4CC[NH2+]CC4)cc3)n2)cc1

>  <molecular_formula>  (926) 
C25H28N5+

$$$$
ATP-HTVS-9360F17A3EC6
     RDKit          3D

 58 61  0  0  0  0  0  0  0  0999 V2000
  197.7384  186.6749  157.6776 F   0  0  0  0  0  0  0  0  0  0  0  0
  197.0349  185.6953  158.2940 C   0  0  0  0  0  0  0  0  0  0  0  0
  196.9093  184.4013  157.7222 C   0  0  0  0  0  0  0  0  0  0  0  0
  196.1518  183.4236  158.4150 C   0  0  0  0  0  0  0  0  0  0  0  0
  195.5091  183.7389  159.6259 C   0  0  0  0  0  0  0  0  0  0  0  0
  195.6319  185.0247  160.1758 C   0  0  0  0  0  0  0  0  0  0  0  0
  196.3968  185.9989  159.5147 C   0  0  0  0  0  0  0  0  0  0  0  0
  197.5657  184.0679  156.4026 C   0  0  0  0  0  0  0  0  0  0  0  0
  198.5332  184.7018  155.9798 O   0  0  0  0  0  0  0  0  0  0  0  0
  196.9894  183.0597  155.7206 N   0  0  0  0  0  0  0  0  0  0  0  0
  197.2369  182.6639  154.3768 C   0  0  0  0  0  0  0  0  0  0  0  0
  197.0449  181.3069  153.9910 C   0  0  0  0  0  0  0  0  0  0  0  0
  196.7847  180.3625  155.0039 N   0  0  0  0  0  0  0  0  0  0  0  0
  197.5566  179.1289  155.1070 C   0  0  1  0  0  0  0  0  0  0  0  0
  199.0034  179.3264  155.5680 C   0  0  1  0  0  0  0  0  0  0  0  0
  199.8064  178.0368  155.4598 C   0  0  0  0  0  0  0  0  0  0  0  0
  200.3730  177.4645  156.6130 C   0  0  0  0  0  0  0  0  0  0  0  0
  201.1295  176.2787  156.5294 C   0  0  0  0  0  0  0  0  0  0  0  0
  201.3201  175.6084  155.2962 C   0  0  0  0  0  0  0  0  0  0  0  0
  202.0502  174.4017  155.2248 N   0  0  0  0  0  0  0  0  0  0  0  0
  203.0977  174.1107  156.1990 C   0  0  2  0  0  0  0  0  0  0  0  0
  201.7049  173.3820  154.2361 C   0  0  2  0  0  0  0  0  0  0  0  0
  200.7484  176.1954  154.1386 C   0  0  0  0  0  0  0  0  0  0  0  0
  200.0068  177.3936  154.2165 C   0  0  0  0  0  0  0  0  0  0  0  0
  197.1379  180.9824  152.5996 C   0  0  0  0  0  0  0  0  0  0  0  0
  197.5218  181.9968  151.6732 C   0  0  0  0  0  0  0  0  0  0  0  0
  197.7139  183.2589  152.1067 N   0  0  0  0  0  0  0  0  0  0  0  0
  197.5569  183.6316  153.3924 C   0  0  0  0  0  0  0  0  0  0  0  0
  197.6920  181.7083  150.2977 C   0  0  0  0  0  0  0  0  0  0  0  0
  197.4942  180.3963  149.8281 C   0  0  0  0  0  0  0  0  0  0  0  0
  197.0592  179.4005  150.7182 C   0  0  0  0  0  0  0  0  0  0  0  0
  196.8280  179.6987  152.0743 C   0  0  0  0  0  0  0  0  0  0  0  0
  196.0266  182.4214  158.0309 H   0  0  0  0  0  0  0  0  0  0  0  0
  194.9234  182.9876  160.1313 H   0  0  0  0  0  0  0  0  0  0  0  0
  195.1456  185.2628  161.1098 H   0  0  0  0  0  0  0  0  0  0  0  0
  196.4929  186.9865  159.9411 H   0  0  0  0  0  0  0  0  0  0  0  0
  196.2567  182.5589  156.2052 H   0  0  0  0  0  0  0  0  0  0  0  0
  196.5707  180.7295  155.9240 H   0  0  0  0  0  0  0  0  0  0  0  0
  197.0301  178.4604  155.7958 H   0  0  0  0  0  0  0  0  0  0  0  0
  197.6076  178.6282  154.1608 H   0  0  0  0  0  0  0  0  0  0  0  0
  199.4940  180.0703  154.9472 H   0  0  0  0  0  0  0  0  0  0  0  0
  199.0229  179.6989  156.5934 H   0  0  0  0  0  0  0  0  0  0  0  0
  200.2196  177.9327  157.5755 H   0  0  0  0  0  0  0  0  0  0  0  0
  201.5290  175.8910  157.4501 H   0  0  0  0  0  0  0  0  0  0  0  0
  203.9514  174.7445  155.9843 H   0  0  0  0  0  0  0  0  0  0  0  0
  203.4254  173.0723  156.1359 H   0  0  0  0  0  0  0  0  0  0  0  0
  202.8013  174.2814  157.2315 H   0  0  0  0  0  0  0  0  0  0  0  0
  200.7855  172.8751  154.5312 H   0  0  0  0  0  0  0  0  0  0  0  0
  202.4900  172.6270  154.1645 H   0  0  0  0  0  0  0  0  0  0  0  0
  201.5713  173.7783  153.2305 H   0  0  0  0  0  0  0  0  0  0  0  0
  200.8810  175.7468  153.1665 H   0  0  0  0  0  0  0  0  0  0  0  0
  199.5932  177.8074  153.3059 H   0  0  0  0  0  0  0  0  0  0  0  0
  197.6772  184.6898  153.5914 H   0  0  0  0  0  0  0  0  0  0  0  0
  197.9892  182.4783  149.6002 H   0  0  0  0  0  0  0  0  0  0  0  0
  197.6406  180.1594  148.7821 H   0  0  0  0  0  0  0  0  0  0  0  0
  196.9045  178.3953  150.3530 H   0  0  0  0  0  0  0  0  0  0  0  0
  196.4086  178.9192  152.6913 H   0  0  0  0  0  0  0  0  0  0  0  0
  197.9567  183.9803  151.4253 H   0  0  0  0  0  0  0  0  0  0  0  0
  1  2  1  0
  2  3  1  0
  2  7  2  0
  3  4  2  0
  3  8  1  0
  4  5  1  0
  4 33  1  0
  5  6  2  0
  5 34  1  0
  6  7  1  0
  6 35  1  0
  7 36  1  0
  8  9  2  0
  8 10  1  0
 10 11  1  0
 10 37  1  0
 11 12  2  0
 11 28  1  0
 12 13  1  0
 12 25  1  0
 13 14  1  0
 13 38  1  0
 14 15  1  0
 14 39  1  1
 14 40  1  0
 15 16  1  0
 15 41  1  6
 15 42  1  0
 16 17  1  0
 16 24  2  0
 17 18  2  0
 17 43  1  0
 18 19  1  0
 18 44  1  0
 19 20  1  0
 19 23  2  0
 20 21  1  0
 20 22  1  0
 21 45  1  6
 21 46  1  0
 21 47  1  0
 22 48  1  1
 22 49  1  0
 22 50  1  0
 23 24  1  0
 23 51  1  0
 24 52  1  0
 25 26  1  0
 25 32  2  0
 26 27  1  0
 26 29  2  0
 27 28  2  0
 27 58  1  0
 28 53  1  0
 29 30  1  0
 29 54  1  0
 30 31  2  0
 30 55  1  0
 31 32  1  0
 31 56  1  0
 32 57  1  0
M  CHG  1  27   1
M  END
>  <s_epik_cmdline>  (927) 
J2VwaWtfcHl0aG9uJywgJy1waCcsICc3LjAwMDAwMCcsICctcGh0JywgJzIuMDAwMDAwJywgJy1tcycsICcxNicsICctdG4nLCAnOCcsICctbWEnLCAnMjAwJywgJy1pbWFlJywgJzxpbmZpbGUubWFlPicsICctb21hZScsICc8b3V0ZmlsZS5tYWU+Jw==

>  <s_epik_input>  (927) 
W2NIXTFbY0hdW2NIXVtjSF1jKGMxRilDKD1PKVtOSF1jKFtjSF1uYyhjMjMpW2NIXVtjSF1bY0hdW2NIXTMpYzJbTkhdW0NIMl1bQ0gyXWM0W2NIXVtjSF1jKE4oW0NIM10pW0NIM10pW2NIXVtjSF00

>  <s_i_glide_gridfile>  (927) 
ATP-Grid

>  <s_lp_Force_Field>  (927) 
OPLS_2005

>  <s_lp_Variant>  (927) 
rxn502b____EMOL505868____EMOL30488121____EMOL109645890-1

>  <s_lp_label>  (927) 
2355_sdstereoexpander_1_neutralizer_1_epik_1_stereoizer_1

>  <s_m_source_file>  (927) 
ATP-VSW-LIGPREP-001-in.maegz

>  <s_sd_BIOSOLVEIT.INFINISEE\_QUERY\_NAME>  (927) 
Ref-Lig

>  <s_sd_BIOSOLVEIT.INFINISEE\_QUERY\_SMILES>  (927) 
S(c1nc2c(cc1C[NH2+]Cc3ccc(cc3)C[NH+](C)C)cccc2)Cc4ccccc4

>  <s_sd_BIOSOLVEIT.INFINISEE\_REACTION\_NAME>  (927) 
rxn502b

>  <s_sd_BIOSOLVEIT.INFINISEE\_REAGENT1\_NAME>  (927) 
EMOL505868

>  <s_sd_BIOSOLVEIT.INFINISEE\_REAGENT1\_SMILES>  (927) 
Fc1c(cccc1)C(=O)O

>  <s_sd_BIOSOLVEIT.INFINISEE\_REAGENT2\_NAME>  (927) 
EMOL30488121

>  <s_sd_BIOSOLVEIT.INFINISEE\_REAGENT2\_SMILES>  (927) 
Brc1c(N)cnc2c1cccc2

>  <s_sd_BIOSOLVEIT.INFINISEE\_REAGENT3\_NAME>  (927) 
EMOL109645890

>  <s_sd_BIOSOLVEIT.INFINISEE\_REAGENT3\_SMILES>  (927) 
N(c1ccc(cc1)CCN)(C)C

>  <s_sd_BIOSOLVEIT.INFINISEE\_SPACE>  (927) 
eXplore_7tr_2022-12

>  <s_vsw_compound_code>  (927) 
75329

>  <s_vsw_variant>  (927) 
75329-1

>  <r_epik_Charging_Adjusted_Penalty>  (927) 
0.166392907084779

>  <r_epik_Ionization_Penalty>  (927) 
0.097500000000000003

>  <r_epik_Ionization_Penalty_Charging>  (927) 
0.069000000000000006

>  <r_epik_Ionization_Penalty_Neutral>  (927) 
0.028500000000000001

>  <r_epik_State_Penalty>  (927) 
0.0974

>  <r_i_docking_score>  (927) 
-4.9480829066281098

>  <r_i_glide_ecoul>  (927) 
-5.0901618003845197

>  <r_i_glide_eff_state_penalty>  (927) 
0.0974

>  <r_i_glide_einternal>  (927) 
4.8788714408874503

>  <r_i_glide_emodel>  (927) 
-59.863661101437899

>  <r_i_glide_energy>  (927) 
-45.2858595848083

>  <r_i_glide_erotb>  (927) 
0.75408111517189202

>  <r_i_glide_esite>  (927) 
-0.119881378424379

>  <r_i_glide_evdw>  (927) 
-40.1956977844238

>  <r_i_glide_gscore>  (927) 
-5.0454829066281102

>  <r_i_glide_hbond>  (927) 
0

>  <r_i_glide_ligand_efficiency>  (927) 
-0.15462759083212799

>  <r_i_glide_ligand_efficiency_ln>  (927) 
-1.1080106424399101

>  <r_i_glide_ligand_efficiency_sa>  (927) 
-0.49091200013333403

>  <r_i_glide_lipo>  (927) 
-2.006347629745

>  <r_i_glide_metal>  (927) 
-0

>  <r_i_glide_rewards>  (927) 
-0.90002585435175098

>  <r_lp_Energy>  (927) 
38.615341000000001

>  <r_qp_ACxDN^.5/SA>  (927) 
0.012579399999999999

>  <r_qp_CIQPlogS>  (927) 
-6.9740000000000002

>  <r_qp_EA(eV)>  (927) 
0.875

>  <r_qp_FISA>  (927) 
60.320999999999998

>  <r_qp_FOSA>  (927) 
173.48099999999999

>  <r_qp_IP(eV)>  (927) 
8.1709999999999994

>  <r_qp_Jm>  (927) 
3.0061195767125199

>  <r_qp_PISA>  (927) 
361.68599999999998

>  <r_qp_PSA>  (927) 
55.415999999999997

>  <r_qp_PercentHumanOralAbsorption>  (927) 
100

>  <r_qp_QPPCaco>  (927) 
2653.866

>  <r_qp_QPPMDCK>  (927) 
1895.1089999999999

>  <r_qp_QPlogBB>  (927) 
-0.29599999999999999

>  <r_qp_QPlogHERG>  (927) 
-4.8280000000000003

>  <r_qp_QPlogKhsa>  (927) 
0.626

>  <r_qp_QPlogKp>  (927) 
-0.68500000000000005

>  <r_qp_QPlogPC16>  (927) 
13.102

>  <r_qp_QPlogPo/w>  (927) 
4.7599999999999998

>  <r_qp_QPlogPoct>  (927) 
20.998999999999999

>  <r_qp_QPlogPw>  (927) 
10.888

>  <r_qp_QPlogS>  (927) 
-4.4690000000000003

>  <r_qp_QPpolrz>  (927) 
42.445

>  <r_qp_SASA>  (927) 
618.32899999999995

>  <r_qp_SAamideO>  (927) 
0

>  <r_qp_SAfluorine>  (927) 
22.841000000000001

>  <r_qp_WPSA>  (927) 
22.841000000000001

>  <r_qp_accptHB>  (927) 
5.5

>  <r_qp_dip^2/V>  (927) 
0.065733899999999998

>  <r_qp_dipole>  (927) 
9.0299999999999994

>  <r_qp_donorHB>  (927) 
2

>  <r_qp_glob>  (927) 
0.90291940000000004

>  <r_qp_mol_MW>  (927) 
428.50799999999998

>  <r_qp_volume>  (927) 
1240.3810000000001

>  <r_sd_BIOSOLVEIT.INFINISEE\_FTREES\_SIMILARITY>  (927) 
0.92000000000000004

>  <r_sd_BIOSOLVEIT.LOGP>  (927) 
5.3468

>  <r_sd_BIOSOLVEIT.MOLECULAR\_WEIGHT>  (927) 
428.50900000000001

>  <r_sd_BIOSOLVEIT.TPSA>  (927) 
57.259999999999998

>  <i_epik_Tot_Q>  (927) 
1

>  <i_epik_Tot_abs_Q>  (927) 
1

>  <i_f3d_flags>  (927) 
0

>  <i_i_glide_confnum>  (927) 
5

>  <i_i_glide_lignum>  (927) 
855

>  <i_i_glide_posenum>  (927) 
19

>  <i_i_glide_rotatable_bonds>  (927) 
8

>  <i_lp_mmshare_version>  (927) 
65135

>  <i_m_ct_format>  (927) 
2

>  <i_m_source_file_index>  (927) 
2355

>  <i_qp_#NandO>  (927) 
5

>  <i_qp_#acid>  (927) 
0

>  <i_qp_#amide>  (927) 
0

>  <i_qp_#amidine>  (927) 
0

>  <i_qp_#amine>  (927) 
0

>  <i_qp_#in34>  (927) 
0

>  <i_qp_#in56>  (927) 
22

>  <i_qp_#metab>  (927) 
5

>  <i_qp_#nonHatm>  (927) 
32

>  <i_qp_#noncon>  (927) 
0

>  <i_qp_#ringatoms>  (927) 
22

>  <i_qp_#rotor>  (927) 
7

>  <i_qp_#rtvFG>  (927) 
0

>  <i_qp_#stars>  (927) 
0

>  <i_qp_CNS>  (927) 
0

>  <i_qp_HumanOralAbsorption>  (927) 
3

>  <i_qp_RuleOfFive>  (927) 
0

>  <i_qp_RuleOfThree>  (927) 
0

>  <i_sd_BIOSOLVEIT.INFINISEE\_RESULT\_RANK>  (927) 
16289

>  <i_sd_version>  (927) 
0

>  <b_lp_Chiralities_Consistent>  (927) 
1

>  <b_sd_chiral_flag>  (927) 
0

>  <canonical_id>  (927) 
ATP-HTVS-9360F17A3EC6

>  <compound_code>  (927) 
75329

>  <title>  (927) 
rxn502b____EMOL505868____EMOL30488121____EMOL109645890

>  <variant>  (927) 
75329-1

>  <source_file>  (927) 
运行/运行/ATP-VSW/ATP-VSW-DOCK_HTVS_1-001_lib/ATP-VSW-DOCK_HTVS_1-001_lib

>  <canonical_smiles>  (927) 
CN(C)c1ccc(CCNc2c(NC(=O)c3ccccc3F)c[nH+]c3ccccc23)cc1

>  <scaffold>  (927) 
O=C(Nc1c[nH+]c2ccccc2c1NCCc1ccccc1)c1ccccc1

>  <molecular_formula>  (927) 
C26H26FN4O+

$$$$
ATP-HTVS-9393AACC3570
     RDKit          3D

 57 60  0  0  0  0  0  0  0  0999 V2000
  195.9185  183.3321  150.2548 F   0  0  0  0  0  0  0  0  0  0  0  0
  196.5117  182.5983  151.2255 C   0  0  0  0  0  0  0  0  0  0  0  0
  197.0061  183.2456  152.3635 C   0  0  0  0  0  0  0  0  0  0  0  0
  197.7035  182.5193  153.3468 C   0  0  0  0  0  0  0  0  0  0  0  0
  197.8092  181.1056  153.2763 C   0  0  0  0  0  0  0  0  0  0  0  0
  197.3078  180.4583  152.1138 C   0  0  0  0  0  0  0  0  0  0  0  0
  196.6828  181.2049  151.0865 C   0  0  0  0  0  0  0  0  0  0  0  0
  198.4288  180.3236  154.3725 C   0  0  0  0  0  0  0  0  0  0  0  0
  199.0316  179.1797  154.0614 N   0  0  0  0  0  0  0  0  0  0  0  0
  199.5145  178.6690  155.2168 N   0  0  0  0  0  0  0  0  0  0  0  0
  200.2450  177.4376  155.2348 C   0  0  0  0  0  0  0  0  0  0  0  0
  200.4353  176.6828  154.0481 C   0  0  0  0  0  0  0  0  0  0  0  0
  201.1551  175.4698  154.0726 C   0  0  0  0  0  0  0  0  0  0  0  0
  201.6989  174.9992  155.2802 C   0  0  0  0  0  0  0  0  0  0  0  0
  201.5304  175.7447  156.4585 C   0  0  0  0  0  0  0  0  0  0  0  0
  200.8004  176.9508  156.4413 C   0  0  0  0  0  0  0  0  0  0  0  0
  199.1963  179.5088  156.2676 C   0  0  0  0  0  0  0  0  0  0  0  0
  198.5013  180.5842  155.7856 C   0  0  0  0  0  0  0  0  0  0  0  0
  197.9902  181.7627  156.5960 C   0  0  1  0  0  0  0  0  0  0  0  0
  196.8755  181.4380  157.4826 N   0  0  0  0  0  0  0  0  0  0  0  0
  195.7323  182.3201  157.3047 C   0  0  1  0  0  0  0  0  0  0  0  0
  195.7120  183.4758  158.2823 C   0  0  0  0  0  0  0  0  0  0  0  0
  196.8400  184.3080  158.4419 C   0  0  0  0  0  0  0  0  0  0  0  0
  196.7966  185.4053  159.3162 C   0  0  0  0  0  0  0  0  0  0  0  0
  195.6064  185.7095  160.0104 C   0  0  0  0  0  0  0  0  0  0  0  0
  194.4936  184.8527  159.8826 C   0  0  0  0  0  0  0  0  0  0  0  0
  194.5348  183.7506  159.0077 C   0  0  0  0  0  0  0  0  0  0  0  0
  195.5383  186.8948  160.9290 C   0  0  0  0  0  0  0  0  0  0  0  0
  194.7780  186.8973  161.8961 O   0  0  0  0  0  0  0  0  0  0  0  0
  196.2850  187.9449  160.5465 N   0  0  0  0  0  0  0  0  0  0  0  0
  196.3809  189.2131  161.2539 C   0  0  1  0  0  0  0  0  0  0  0  0
  196.9788  190.2984  160.3540 C   0  0  2  0  0  0  0  0  0  0  0  0
  196.5255  180.4629  157.4044 H   0  0  0  0  0  0  0  0  0  0  0  0
  196.8906  184.3087  152.4939 H   0  0  0  0  0  0  0  0  0  0  0  0
  198.1705  183.1184  154.1111 H   0  0  0  0  0  0  0  0  0  0  0  0
  197.4256  179.3893  151.9905 H   0  0  0  0  0  0  0  0  0  0  0  0
  196.3359  180.7074  150.1895 H   0  0  0  0  0  0  0  0  0  0  0  0
  200.0316  177.0246  153.1068 H   0  0  0  0  0  0  0  0  0  0  0  0
  201.2881  174.8999  153.1650 H   0  0  0  0  0  0  0  0  0  0  0  0
  202.2405  174.0644  155.3091 H   0  0  0  0  0  0  0  0  0  0  0  0
  201.9425  175.3747  157.3802 H   0  0  0  0  0  0  0  0  0  0  0  0
  200.6769  177.4856  157.3702 H   0  0  0  0  0  0  0  0  0  0  0  0
  199.4847  179.2861  157.2835 H   0  0  0  0  0  0  0  0  0  0  0  0
  198.8057  182.1701  157.2013 H   0  0  0  0  0  0  0  0  0  0  0  0
  197.6723  182.5901  155.9862 H   0  0  0  0  0  0  0  0  0  0  0  0
  195.6572  182.7269  156.2980 H   0  0  0  0  0  0  0  0  0  0  0  0
  194.8241  181.7229  157.4127 H   0  0  0  0  0  0  0  0  0  0  0  0
  197.7470  184.1111  157.8930 H   0  0  0  0  0  0  0  0  0  0  0  0
  197.6819  186.0113  159.4262 H   0  0  0  0  0  0  0  0  0  0  0  0
  193.5810  185.0589  160.4188 H   0  0  0  0  0  0  0  0  0  0  0  0
  193.6617  183.1272  158.8783 H   0  0  0  0  0  0  0  0  0  0  0  0
  196.8375  187.8484  159.7097 H   0  0  0  0  0  0  0  0  0  0  0  0
  195.3971  189.5272  161.6007 H   0  0  0  0  0  0  0  0  0  0  0  0
  197.0197  189.0818  162.1310 H   0  0  0  0  0  0  0  0  0  0  0  0
  197.0762  191.2399  160.8950 H   0  0  0  0  0  0  0  0  0  0  0  0
  196.3516  190.4809  159.4805 H   0  0  0  0  0  0  0  0  0  0  0  0
  197.9720  190.0215  160.0004 H   0  0  0  0  0  0  0  0  0  0  0  0
  1  2  1  0
  2  3  1  0
  2  7  2  0
  3  4  2  0
  3 34  1  0
  4  5  1  0
  4 35  1  0
  5  6  2  0
  5  8  1  0
  6  7  1  0
  6 36  1  0
  7 37  1  0
  8  9  2  0
  8 18  1  0
  9 10  1  0
 10 11  1  0
 10 17  1  0
 11 12  2  0
 11 16  1  0
 12 13  1  0
 12 38  1  0
 13 14  2  0
 13 39  1  0
 14 15  1  0
 14 40  1  0
 15 16  2  0
 15 41  1  0
 16 42  1  0
 17 18  2  0
 17 43  1  0
 18 19  1  0
 19 20  1  0
 19 44  1  1
 19 45  1  0
 20 21  1  0
 20 33  1  0
 21 22  1  0
 21 46  1  6
 21 47  1  0
 22 23  1  0
 22 27  2  0
 23 24  2  0
 23 48  1  0
 24 25  1  0
 24 49  1  0
 25 26  2  0
 25 28  1  0
 26 27  1  0
 26 50  1  0
 27 51  1  0
 28 29  2  0
 28 30  1  0
 30 31  1  0
 30 52  1  0
 31 32  1  0
 31 53  1  1
 31 54  1  0
 32 55  1  1
 32 56  1  0
 32 57  1  0
M  END
>  <s_epik_cmdline>  (928) 
J2VwaWtfcHl0aG9uJywgJy1waCcsICc3LjAwMDAwMCcsICctcGh0JywgJzIuMDAwMDAwJywgJy1tcycsICcxNicsICctdG4nLCAnOCcsICctbWEnLCAnMjAwJywgJy1pbWFlJywgJzxpbmZpbGUubWFlPicsICctb21hZScsICc8b3V0ZmlsZS5tYWU+Jw==

>  <s_epik_input>  (928) 
RmMxW2NIXVtjSF1jKFtjSF1bY0hdMSktYzJubigtYzNbY0hdW2NIXVtjSF1bY0hdW2NIXTMpW2NIXWMyW0NIMl1bTkhdW0NIMl1jNFtjSF1bY0hdYyhbY0hdW2NIXTQpQyg9TylbTkhdW0NIMl1bQ0gzXQ==

>  <s_i_glide_gridfile>  (928) 
ATP-Grid

>  <s_lp_Force_Field>  (928) 
OPLS_2005

>  <s_lp_Variant>  (928) 
m_270004bbb____8296362____13581306-2

>  <s_lp_label>  (928) 
1411_sdstereoexpander_1_neutralizer_1_epik_2_stereoizer_1

>  <s_m_source_file>  (928) 
ATP-VSW-LIGPREP-002-in.maegz

>  <s_sd_BIOSOLVEIT.INFINISEE\_QUERY\_NAME>  (928) 
Ref-Lig

>  <s_sd_BIOSOLVEIT.INFINISEE\_QUERY\_SMILES>  (928) 
S(c1nc2c(cc1C[NH2+]Cc3ccc(cc3)C[NH+](C)C)cccc2)Cc4ccccc4

>  <s_sd_BIOSOLVEIT.INFINISEE\_REACTION\_NAME>  (928) 
m_270004bbb

>  <s_sd_BIOSOLVEIT.INFINISEE\_REAGENT1\_SMILES>  (928) 
[R1*]NCC=1C(=NN(c2ccccc2)C1)c3ccc(F)cc3

>  <s_sd_BIOSOLVEIT.INFINISEE\_REAGENT2\_SMILES>  (928) 
[R1*]Cc1ccc(cc1)C(=O)NCC

>  <s_sd_BIOSOLVEIT.INFINISEE\_SPACE>  (928) 
REALSpace_44bn_2023-08

>  <s_vsw_compound_code>  (928) 
45122

>  <s_vsw_variant>  (928) 
45122-2

>  <r_epik_Charging_Adjusted_Penalty>  (928) 
1.0937226114942

>  <r_epik_Ionization_Penalty>  (928) 
1.0936999999999999

>  <r_epik_Ionization_Penalty_Charging>  (928) 
0

>  <r_epik_Ionization_Penalty_Neutral>  (928) 
1.0936999999999999

>  <r_epik_State_Penalty>  (928) 
1.0936999999999999

>  <r_i_docking_score>  (928) 
-4.09612916239728

>  <r_i_glide_ecoul>  (928) 
-7.4454517364501998

>  <r_i_glide_eff_state_penalty>  (928) 
1.0936999999999999

>  <r_i_glide_einternal>  (928) 
5.0207204818725604

>  <r_i_glide_emodel>  (928) 
-62.844551080498299

>  <r_i_glide_energy>  (928) 
-48.5147380828857

>  <r_i_glide_erotb>  (928) 
0.86548164547520601

>  <r_i_glide_esite>  (928) 
-0.037721615627715303

>  <r_i_glide_evdw>  (928) 
-41.069286346435497

>  <r_i_glide_gscore>  (928) 
-5.1898291623972801

>  <r_i_glide_hbond>  (928) 
-0.16

>  <r_i_glide_ligand_efficiency>  (928) 
-0.128004036324915

>  <r_i_glide_ligand_efficiency_ln>  (928) 
-0.91723497572466695

>  <r_i_glide_ligand_efficiency_sa>  (928) 
-0.40638748336721398

>  <r_i_glide_lipo>  (928) 
-1.72460115944878

>  <r_i_glide_metal>  (928) 
-0

>  <r_i_glide_rewards>  (928) 
-0.96270595500668699

>  <r_lp_Energy>  (928) 
23.370813999999999

>  <r_lp_tautomer_probability>  (928) 
1

>  <r_qp_ACxDN^.5/SA>  (928) 
0.0102506

>  <r_qp_CIQPlogS>  (928) 
-6.1769999999999996

>  <r_qp_EA(eV)>  (928) 
0.64200000000000002

>  <r_qp_FISA>  (928) 
68.605000000000004

>  <r_qp_FOSA>  (928) 
182.75299999999999

>  <r_qp_IP(eV)>  (928) 
8.8019999999999996

>  <r_qp_Jm>  (928) 
0.0112342463734099

>  <r_qp_PISA>  (928) 
418.274

>  <r_qp_PSA>  (928) 
65.427000000000007

>  <r_qp_PercentHumanOralAbsorption>  (928) 
100

>  <r_qp_QPPCaco>  (928) 
552.35000000000002

>  <r_qp_QPPMDCK>  (928) 
371.69

>  <r_qp_QPlogBB>  (928) 
0.001

>  <r_qp_QPlogHERG>  (928) 
-6.8529999999999998

>  <r_qp_QPlogKhsa>  (928) 
0.90300000000000002

>  <r_qp_QPlogKp>  (928) 
-2.7970000000000002

>  <r_qp_QPlogPC16>  (928) 
14.116

>  <r_qp_QPlogPo/w>  (928) 
4.8259999999999996

>  <r_qp_QPlogPoct>  (928) 
21.745000000000001

>  <r_qp_QPlogPw>  (928) 
11.228999999999999

>  <r_qp_QPlogS>  (928) 
-4.7839999999999998

>  <r_qp_QPpolrz>  (928) 
46.408999999999999

>  <r_qp_SASA>  (928) 
689.82000000000005

>  <r_qp_SAamideO>  (928) 
0

>  <r_qp_SAfluorine>  (928) 
20.187000000000001

>  <r_qp_WPSA>  (928) 
20.187000000000001

>  <r_qp_accptHB>  (928) 
5

>  <r_qp_dip^2/V>  (928) 
0.042428599999999997

>  <r_qp_dipole>  (928) 
7.4550000000000001

>  <r_qp_donorHB>  (928) 
2

>  <r_qp_glob>  (928) 
0.83929180000000003

>  <r_qp_mol_MW>  (928) 
428.50799999999998

>  <r_qp_volume>  (928) 
1309.8610000000001

>  <r_sd_BIOSOLVEIT.INFINISEE\_FTREES\_SIMILARITY>  (928) 
0.90800000000000003

>  <r_sd_BIOSOLVEIT.LOGP>  (928) 
3.6917

>  <r_sd_BIOSOLVEIT.MOLECULAR\_WEIGHT>  (928) 
429.51600000000002

>  <r_sd_BIOSOLVEIT.TPSA>  (928) 
63.530000000000001

>  <i_epik_Tot_Q>  (928) 
0

>  <i_epik_Tot_abs_Q>  (928) 
0

>  <i_f3d_flags>  (928) 
0

>  <i_i_glide_confnum>  (928) 
5

>  <i_i_glide_lignum>  (928) 
498

>  <i_i_glide_posenum>  (928) 
1

>  <i_i_glide_rotatable_bonds>  (928) 
9

>  <i_lp_mmshare_version>  (928) 
65135

>  <i_m_ct_format>  (928) 
2

>  <i_m_source_file_index>  (928) 
1411

>  <i_qp_#NandO>  (928) 
5

>  <i_qp_#acid>  (928) 
0

>  <i_qp_#amide>  (928) 
0

>  <i_qp_#amidine>  (928) 
0

>  <i_qp_#amine>  (928) 
1

>  <i_qp_#in34>  (928) 
0

>  <i_qp_#in56>  (928) 
23

>  <i_qp_#metab>  (928) 
3

>  <i_qp_#nonHatm>  (928) 
32

>  <i_qp_#noncon>  (928) 
0

>  <i_qp_#ringatoms>  (928) 
23

>  <i_qp_#rotor>  (928) 
6

>  <i_qp_#rtvFG>  (928) 
0

>  <i_qp_#stars>  (928) 
0

>  <i_qp_CNS>  (928) 
1

>  <i_qp_HumanOralAbsorption>  (928) 
3

>  <i_qp_RuleOfFive>  (928) 
0

>  <i_qp_RuleOfThree>  (928) 
0

>  <i_sd_BIOSOLVEIT.INFINISEE\_REAGENT1\_NAME>  (928) 
8296362

>  <i_sd_BIOSOLVEIT.INFINISEE\_REAGENT2\_NAME>  (928) 
13581306

>  <i_sd_BIOSOLVEIT.INFINISEE\_RESULT\_RANK>  (928) 
53461

>  <i_sd_version>  (928) 
0

>  <b_lp_Chiralities_Consistent>  (928) 
1

>  <b_sd_chiral_flag>  (928) 
0

>  <canonical_id>  (928) 
ATP-HTVS-9393AACC3570

>  <compound_code>  (928) 
45122

>  <title>  (928) 
m_270004bbb____8296362____13581306

>  <variant>  (928) 
45122-2

>  <source_file>  (928) 
运行/运行/ATP-VSW/ATP-VSW-DOCK_HTVS_1-002_lib.maegz

>  <canonical_smiles>  (928) 
CCNC(=O)c1ccc(CNCc2cn(-c3ccccc3)nc2-c2ccc(F)cc2)cc1

>  <scaffold>  (928) 
c1ccc(CNCc2cn(-c3ccccc3)nc2-c2ccccc2)cc1

>  <molecular_formula>  (928) 
C26H25FN4O

$$$$
ATP-HTVS-93C7314F95B0
     RDKit          3D

 50 53  0  0  0  0  0  0  0  0999 V2000
  198.5381  189.3609  157.2258 O   0  0  0  0  0  0  0  0  0  0  0  0
  198.7299  188.3454  157.8834 C   0  0  0  0  0  0  0  0  0  0  0  0
  199.7980  187.5678  157.7179 N   0  0  0  0  0  0  0  0  0  0  0  0
  200.0590  186.3495  158.4017 C   0  0  0  0  0  0  0  0  0  0  0  0
  199.0325  185.4087  158.6994 C   0  0  0  0  0  0  0  0  0  0  0  0
  199.3872  184.2495  159.4225 C   0  0  0  0  0  0  0  0  0  0  0  0
  200.7178  183.9458  159.7393 C   0  0  0  0  0  0  0  0  0  0  0  0
  201.7201  184.8652  159.4176 C   0  0  0  0  0  0  0  0  0  0  0  0
  201.3931  186.0692  158.7633 C   0  0  0  0  0  0  0  0  0  0  0  0
  197.5761  185.6414  158.2327 C   0  0  2  0  0  0  0  0  0  0  0  0
  196.9455  186.7462  158.9828 N   0  0  0  0  0  0  0  0  0  0  0  0
  196.5608  186.4093  160.3691 C   0  0  1  0  0  0  0  0  0  0  0  0
  195.5738  187.3654  161.0248 C   0  0  0  0  0  0  0  0  0  0  0  0
  194.3185  186.9153  161.4808 C   0  0  0  0  0  0  0  0  0  0  0  0
  193.4518  187.8359  162.1330 C   0  0  0  0  0  0  0  0  0  0  0  0
  192.1928  187.3798  162.6584 C   0  0  0  0  0  0  0  0  0  0  0  0
  191.1754  187.0338  163.0866 N   0  0  0  0  0  0  0  0  0  0  0  0
  193.7938  189.2034  162.2578 C   0  0  0  0  0  0  0  0  0  0  0  0
  192.9552  190.0520  162.9243 O   0  0  0  0  0  0  0  0  0  0  0  0
  193.2701  191.4258  162.9030 C   0  0  2  0  0  0  0  0  0  0  0  0
  195.0534  189.6298  161.7460 C   0  0  0  0  0  0  0  0  0  0  0  0
  195.9177  188.7157  161.2264 C   0  0  0  0  0  0  0  0  0  0  0  0
  197.7627  187.9896  159.0115 C   0  0  1  0  0  0  0  0  0  0  0  0
  196.6866  184.3910  158.1456 C   0  0  0  0  0  0  0  0  0  0  0  0
  195.3159  184.4306  158.5352 C   0  0  0  0  0  0  0  0  0  0  0  0
  194.5987  183.2718  158.7875 C   0  0  0  0  0  0  0  0  0  0  0  0
  195.1746  182.0101  158.4874 C   0  0  0  0  0  0  0  0  0  0  0  0
  196.4755  181.9714  157.9753 C   0  0  0  0  0  0  0  0  0  0  0  0
  197.2333  183.1306  157.7789 C   0  0  0  0  0  0  0  0  0  0  0  0
  200.5057  187.9270  157.0897 H   0  0  0  0  0  0  0  0  0  0  0  0
  198.6685  183.5130  159.7217 H   0  0  0  0  0  0  0  0  0  0  0  0
  200.9243  183.0053  160.2232 H   0  0  0  0  0  0  0  0  0  0  0  0
  202.7357  184.6404  159.6965 H   0  0  0  0  0  0  0  0  0  0  0  0
  202.1808  186.7748  158.5447 H   0  0  0  0  0  0  0  0  0  0  0  0
  197.6311  185.9416  157.1818 H   0  0  0  0  0  0  0  0  0  0  0  0
  196.0432  185.4557  160.5294 H   0  0  0  0  0  0  0  0  0  0  0  0
  197.4341  186.1713  160.9551 H   0  0  0  0  0  0  0  0  0  0  0  0
  194.0175  185.8766  161.3857 H   0  0  0  0  0  0  0  0  0  0  0  0
  192.5140  191.9735  163.4683 H   0  0  0  0  0  0  0  0  0  0  0  0
  193.2660  191.8260  161.8804 H   0  0  0  0  0  0  0  0  0  0  0  0
  194.2362  191.6471  163.3699 H   0  0  0  0  0  0  0  0  0  0  0  0
  195.4252  190.6418  161.8156 H   0  0  0  0  0  0  0  0  0  0  0  0
  196.9065  189.1057  160.9963 H   0  0  0  0  0  0  0  0  0  0  0  0
  198.3572  188.0017  159.9312 H   0  0  0  0  0  0  0  0  0  0  0  0
  197.0917  188.8470  158.9768 H   0  0  0  0  0  0  0  0  0  0  0  0
  194.8287  185.3521  158.7725 H   0  0  0  0  0  0  0  0  0  0  0  0
  193.6067  183.3542  159.2105 H   0  0  0  0  0  0  0  0  0  0  0  0
  194.5919  181.1296  158.5916 H   0  0  0  0  0  0  0  0  0  0  0  0
  196.9382  181.0135  157.7360 H   0  0  0  0  0  0  0  0  0  0  0  0
  198.2541  183.0399  157.4796 H   0  0  0  0  0  0  0  0  0  0  0  0
  1  2  2  0
  2  3  1  0
  2 23  1  0
  3  4  1  0
  3 30  1  0
  4  5  1  0
  4  9  2  0
  5  6  2  0
  5 10  1  0
  6  7  1  0
  6 31  1  0
  7  8  2  0
  7 32  1  0
  8  9  1  0
  8 33  1  0
  9 34  1  0
 10 11  1  0
 10 24  1  0
 10 35  1  6
 11 12  1  0
 11 23  1  0
 12 13  1  0
 12 36  1  6
 12 37  1  0
 13 14  2  0
 13 22  1  0
 14 15  1  0
 14 38  1  0
 15 16  1  0
 15 18  2  0
 16 17  3  0
 18 19  1  0
 18 21  1  0
 19 20  1  0
 20 39  1  1
 20 40  1  0
 20 41  1  0
 21 22  2  0
 21 42  1  0
 22 43  1  0
 23 44  1  1
 23 45  1  0
 24 25  2  0
 24 29  1  0
 25 26  1  0
 25 46  1  0
 26 27  2  0
 26 47  1  0
 27 28  1  0
 27 48  1  0
 28 29  2  0
 28 49  1  0
 29 50  1  0
M  END
>  <s_epik_cmdline>  (929) 
J2VwaWtfcHl0aG9uJywgJy1waCcsICc3LjAwMDAwMCcsICctcGh0JywgJzIuMDAwMDAwJywgJy1tcycsICcxNicsICctdG4nLCAnOCcsICctbWEnLCAnMjAwJywgJy1pbWFlJywgJzxpbmZpbGUubWFlPicsICctb21hZScsICc8b3V0ZmlsZS5tYWU+Jw==

>  <s_epik_input>  (929) 
W2NIXTFbY0hdW2NIXVtjSF1bY0hdYzFbQ0BIXShjKGMyMylbY0hdW2NIXVtjSF1bY0hdMylOKFtDSDJdQyg9TylbTkhdMilbQ0gyXWM0W2NIXWMoQyNOKWMoT1tDSDNdKVtjSF1bY0hdNA==

>  <s_i_glide_gridfile>  (929) 
ATP-Grid

>  <s_lp_Force_Field>  (929) 
OPLS_2005

>  <s_lp_Variant>  (929) 
m_270004bda____24170338____7549178-1

>  <s_lp_label>  (929) 
2127_sdstereoexpander_1_neutralizer_1_epik_1_stereoizer_1

>  <s_m_source_file>  (929) 
ATP-VSW-LIGPREP-003-in.maegz

>  <s_sd_BIOSOLVEIT.INFINISEE\_QUERY\_NAME>  (929) 
Ref-Lig

>  <s_sd_BIOSOLVEIT.INFINISEE\_QUERY\_SMILES>  (929) 
S(c1nc2c(cc1C[NH2+]Cc3ccc(cc3)C[NH+](C)C)cccc2)Cc4ccccc4

>  <s_sd_BIOSOLVEIT.INFINISEE\_REACTION\_NAME>  (929) 
m_270004bda

>  <s_sd_BIOSOLVEIT.INFINISEE\_REAGENT1\_SMILES>  (929) 
[R1*]N1C(c2c(NC(=O)C1)cccc2)c3ccccc3

>  <s_sd_BIOSOLVEIT.INFINISEE\_REAGENT2\_SMILES>  (929) 
[R1*]Cc1cc(C#N)c(OC)cc1

>  <s_sd_BIOSOLVEIT.INFINISEE\_SPACE>  (929) 
REALSpace_44bn_2023-08

>  <s_vsw_compound_code>  (929) 
68035

>  <s_vsw_variant>  (929) 
68035-1

>  <r_epik_Charging_Adjusted_Penalty>  (929) 
0.0087634984339075902

>  <r_epik_Ionization_Penalty>  (929) 
0.0088000000000000005

>  <r_epik_Ionization_Penalty_Charging>  (929) 
0

>  <r_epik_Ionization_Penalty_Neutral>  (929) 
0.0088000000000000005

>  <r_epik_State_Penalty>  (929) 
0.0088000000000000005

>  <r_i_docking_score>  (929) 
-1.7385773432702201

>  <r_i_glide_ecoul>  (929) 
0.152244567871094

>  <r_i_glide_eff_state_penalty>  (929) 
0.0088000000000000005

>  <r_i_glide_einternal>  (929) 
9.6752805709838903

>  <r_i_glide_emodel>  (929) 
-30.466796783990201

>  <r_i_glide_energy>  (929) 
-31.688838958740199

>  <r_i_glide_erotb>  (929) 
0.39649926474209102

>  <r_i_glide_esite>  (929) 
0

>  <r_i_glide_evdw>  (929) 
-31.8410835266113

>  <r_i_glide_gscore>  (929) 
-1.74737734327022

>  <r_i_glide_hbond>  (929) 
0

>  <r_i_glide_ligand_efficiency>  (929) 
-0.059950942871386997

>  <r_i_glide_ligand_efficiency_ln>  (929) 
-0.398090125091345

>  <r_i_glide_ligand_efficiency_sa>  (929) 
-0.18418829029275399

>  <r_i_glide_lipo>  (929) 
-1.39393164055972

>  <r_i_glide_metal>  (929) 
-0

>  <r_i_glide_rewards>  (929) 
0.81927252369730597

>  <r_lp_Energy>  (929) 
41.736890000000002

>  <r_qp_ACxDN^.5/SA>  (929) 
0.0100345

>  <r_qp_CIQPlogS>  (929) 
-5.2119999999999997

>  <r_qp_EA(eV)>  (929) 
0.59499999999999997

>  <r_qp_FISA>  (929) 
133.05199999999999

>  <r_qp_FOSA>  (929) 
146.428

>  <r_qp_IP(eV)>  (929) 
9.0879999999999992

>  <r_qp_Jm>  (929) 
0.000143771678234348

>  <r_qp_PISA>  (929) 
393.19999999999999

>  <r_qp_PSA>  (929) 
76.152000000000001

>  <r_qp_PercentHumanOralAbsorption>  (929) 
83.451999999999998

>  <r_qp_QPPCaco>  (929) 
135.22800000000001

>  <r_qp_QPPMDCK>  (929) 
62.953000000000003

>  <r_qp_QPlogBB>  (929) 
-0.59299999999999997

>  <r_qp_QPlogHERG>  (929) 
-7.0190000000000001

>  <r_qp_QPlogKhsa>  (929) 
0.44

>  <r_qp_QPlogKp>  (929) 
-4.2649999999999997

>  <r_qp_QPlogPC16>  (929) 
13.507

>  <r_qp_QPlogPo/w>  (929) 
3.1360000000000001

>  <r_qp_QPlogPoct>  (929) 
20.774999999999999

>  <r_qp_QPlogPw>  (929) 
12.148999999999999

>  <r_qp_QPlogS>  (929) 
-5.1609999999999996

>  <r_qp_QPpolrz>  (929) 
43.927999999999997

>  <r_qp_SASA>  (929) 
672.68100000000004

>  <r_qp_SAamideO>  (929) 
0

>  <r_qp_SAfluorine>  (929) 
0

>  <r_qp_WPSA>  (929) 
0

>  <r_qp_accptHB>  (929) 
6.75

>  <r_qp_dip^2/V>  (929) 
0.0618849

>  <r_qp_dipole>  (929) 
8.6950000000000003

>  <r_qp_donorHB>  (929) 
1

>  <r_qp_glob>  (929) 
0.82163699999999995

>  <r_qp_mol_MW>  (929) 
383.44900000000001

>  <r_qp_volume>  (929) 
1221.761

>  <r_sd_BIOSOLVEIT.INFINISEE\_FTREES\_SIMILARITY>  (929) 
0.90100000000000002

>  <r_sd_BIOSOLVEIT.LOGP>  (929) 
2.6934800000000001

>  <r_sd_BIOSOLVEIT.MOLECULAR\_WEIGHT>  (929) 
384.45699999999999

>  <r_sd_BIOSOLVEIT.TPSA>  (929) 
66.560000000000002

>  <i_epik_Tot_Q>  (929) 
0

>  <i_epik_Tot_abs_Q>  (929) 
0

>  <i_f3d_flags>  (929) 
0

>  <i_i_glide_confnum>  (929) 
5

>  <i_i_glide_lignum>  (929) 
791

>  <i_i_glide_posenum>  (929) 
19

>  <i_i_glide_rotatable_bonds>  (929) 
4

>  <i_lp_mmshare_version>  (929) 
65135

>  <i_m_ct_format>  (929) 
2

>  <i_m_source_file_index>  (929) 
2127

>  <i_qp_#NandO>  (929) 
5

>  <i_qp_#acid>  (929) 
0

>  <i_qp_#amide>  (929) 
0

>  <i_qp_#amidine>  (929) 
0

>  <i_qp_#amine>  (929) 
1

>  <i_qp_#in34>  (929) 
0

>  <i_qp_#in56>  (929) 
18

>  <i_qp_#metab>  (929) 
8

>  <i_qp_#nonHatm>  (929) 
29

>  <i_qp_#noncon>  (929) 
2

>  <i_qp_#ringatoms>  (929) 
23

>  <i_qp_#rotor>  (929) 
4

>  <i_qp_#rtvFG>  (929) 
0

>  <i_qp_#stars>  (929) 
0

>  <i_qp_CNS>  (929) 
1

>  <i_qp_HumanOralAbsorption>  (929) 
2

>  <i_qp_RuleOfFive>  (929) 
0

>  <i_qp_RuleOfThree>  (929) 
1

>  <i_sd_BIOSOLVEIT.INFINISEE\_REAGENT1\_NAME>  (929) 
24170338

>  <i_sd_BIOSOLVEIT.INFINISEE\_REAGENT2\_NAME>  (929) 
7549178

>  <i_sd_BIOSOLVEIT.INFINISEE\_RESULT\_RANK>  (929) 
98907

>  <i_sd_version>  (929) 
0

>  <b_lp_Chiralities_Consistent>  (929) 
1

>  <b_sd_chiral_flag>  (929) 
0

>  <canonical_id>  (929) 
ATP-HTVS-93C7314F95B0

>  <compound_code>  (929) 
68035

>  <title>  (929) 
m_270004bda____24170338____7549178

>  <variant>  (929) 
68035-1

>  <source_file>  (929) 
运行/运行/ATP-VSW/ATP-VSW-DOCK_HTVS_1-003_lib/ATP-VSW-DOCK_HTVS_1-003_lib.mae

>  <canonical_smiles>  (929) 
COc1ccc(CN2CC(=O)Nc3ccccc3[C@H]2c2ccccc2)cc1C#N

>  <scaffold>  (929) 
O=C1CN(Cc2ccccc2)C(c2ccccc2)c2ccccc2N1

>  <molecular_formula>  (929) 
C24H21N3O2

$$$$
ATP-HTVS-93CB38BE3680
     RDKit          3D

 52 55  0  0  0  0  0  0  0  0999 V2000
  197.1931  185.0609  157.6416 Cl  0  0  0  0  0  0  0  0  0  0  0  0
  197.4889  183.6338  156.7038 C   0  0  0  0  0  0  0  0  0  0  0  0
  197.0193  182.3567  157.0890 C   0  0  0  0  0  0  0  0  0  0  0  0
  197.3919  181.2350  156.2962 C   0  0  0  0  0  0  0  0  0  0  0  0
  198.1801  181.3841  155.1331 C   0  0  0  0  0  0  0  0  0  0  0  0
  198.5248  180.2054  154.4156 N   0  0  0  0  0  0  0  0  0  0  0  0
  198.9673  180.0946  153.1582 C   0  0  0  0  0  0  0  0  0  0  0  0
  199.1214  181.0444  152.3711 O   0  0  0  0  0  0  0  0  0  0  0  0
  199.2559  178.6917  152.7107 C   0  0  0  0  0  0  0  0  0  0  0  0
  198.8174  178.1473  151.4843 C   0  0  0  0  0  0  0  0  0  0  0  0
  199.1953  176.8149  151.1623 C   0  0  0  0  0  0  0  0  0  0  0  0
  199.9515  176.0622  152.0022 N   0  0  0  0  0  0  0  0  0  0  0  0
  200.3762  176.5617  153.1799 C   0  0  0  0  0  0  0  0  0  0  0  0
  201.1844  175.6528  154.0373 C   0  0  0  0  0  0  0  0  0  0  0  0
  201.5194  175.9813  155.3754 C   0  0  0  0  0  0  0  0  0  0  0  0
  202.2976  175.0931  156.1430 C   0  0  0  0  0  0  0  0  0  0  0  0
  202.7563  173.9160  155.6747 N   0  0  0  0  0  0  0  0  0  0  0  0
  202.4319  173.5818  154.4143 C   0  0  0  0  0  0  0  0  0  0  0  0
  201.6651  174.4089  153.5614 C   0  0  0  0  0  0  0  0  0  0  0  0
  200.0506  177.8805  153.5649 C   0  0  0  0  0  0  0  0  0  0  0  0
  198.7669  176.2474  149.9471 C   0  0  0  0  0  0  0  0  0  0  0  0
  197.9705  176.9772  149.0446 C   0  0  0  0  0  0  0  0  0  0  0  0
  197.5863  178.2921  149.3594 C   0  0  0  0  0  0  0  0  0  0  0  0
  198.0039  178.8723  150.5725 C   0  0  0  0  0  0  0  0  0  0  0  0
  198.6189  182.6757  154.7642 C   0  0  0  0  0  0  0  0  0  0  0  0
  198.2563  183.7857  155.5416 C   0  0  0  0  0  0  0  0  0  0  0  0
  196.1697  182.1282  158.3366 C   0  0  1  0  0  0  0  0  0  0  0  0
  194.7406  182.5345  158.1320 N   0  0  2  0  0  0  0  0  0  0  0  0
  194.3425  183.7005  158.9532 C   0  0  2  0  0  0  0  0  0  0  0  0
  193.7840  181.4251  158.3274 C   0  0  2  0  0  0  0  0  0  0  0  0
  197.0918  180.2412  156.5862 H   0  0  0  0  0  0  0  0  0  0  0  0
  198.3825  179.3293  154.9087 H   0  0  0  0  0  0  0  0  0  0  0  0
  201.1971  176.8928  155.8480 H   0  0  0  0  0  0  0  0  0  0  0  0
  202.5464  175.3437  157.1589 H   0  0  0  0  0  0  0  0  0  0  0  0
  202.8035  172.6322  154.0580 H   0  0  0  0  0  0  0  0  0  0  0  0
  201.4632  174.0717  152.5597 H   0  0  0  0  0  0  0  0  0  0  0  0
  200.4204  178.2981  154.4820 H   0  0  0  0  0  0  0  0  0  0  0  0
  199.0543  175.2336  149.7075 H   0  0  0  0  0  0  0  0  0  0  0  0
  197.6391  176.5254  148.1206 H   0  0  0  0  0  0  0  0  0  0  0  0
  196.9634  178.8573  148.6796 H   0  0  0  0  0  0  0  0  0  0  0  0
  197.6819  179.8804  150.7802 H   0  0  0  0  0  0  0  0  0  0  0  0
  199.2556  182.8459  153.9088 H   0  0  0  0  0  0  0  0  0  0  0  0
  198.5996  184.7700  155.2498 H   0  0  0  0  0  0  0  0  0  0  0  0
  196.2432  181.0846  158.6286 H   0  0  0  0  0  0  0  0  0  0  0  0
  196.6220  182.6627  159.1783 H   0  0  0  0  0  0  0  0  0  0  0  0
  194.4125  183.4743  160.0120 H   0  0  0  0  0  0  0  0  0  0  0  0
  193.3155  183.9963  158.7408 H   0  0  0  0  0  0  0  0  0  0  0  0
  194.9785  184.5768  158.7548 H   0  0  0  0  0  0  0  0  0  0  0  0
  193.8340  181.0272  159.3412 H   0  0  0  0  0  0  0  0  0  0  0  0
  193.9580  180.6125  157.6233 H   0  0  0  0  0  0  0  0  0  0  0  0
  192.7619  181.7648  158.1423 H   0  0  0  0  0  0  0  0  0  0  0  0
  194.6154  182.7545  157.1540 H   0  0  0  0  0  0  0  0  0  0  0  0
  1  2  1  0
  2  3  2  0
  2 26  1  0
  3  4  1  0
  3 27  1  0
  4  5  2  0
  4 31  1  0
  5  6  1  0
  5 25  1  0
  6  7  1  0
  6 32  1  0
  7  8  2  0
  7  9  1  0
  9 10  1  0
  9 20  2  0
 10 11  1  0
 10 24  2  0
 11 12  1  0
 11 21  2  0
 12 13  2  0
 13 14  1  0
 13 20  1  0
 14 15  2  0
 14 19  1  0
 15 16  1  0
 15 33  1  0
 16 17  2  0
 16 34  1  0
 17 18  1  0
 18 19  2  0
 18 35  1  0
 19 36  1  0
 20 37  1  0
 21 22  1  0
 21 38  1  0
 22 23  2  0
 22 39  1  0
 23 24  1  0
 23 40  1  0
 24 41  1  0
 25 26  2  0
 25 42  1  0
 26 43  1  0
 27 28  1  0
 27 44  1  1
 27 45  1  0
 28 29  1  0
 28 30  1  0
 28 52  1  6
 29 46  1  1
 29 47  1  0
 29 48  1  0
 30 49  1  1
 30 50  1  0
 30 51  1  0
M  CHG  1  28   1
M  END
>  <s_epik_cmdline>  (930) 
J2VwaWtfcHl0aG9uJywgJy1waCcsICc3LjAwMDAwMCcsICctcGh0JywgJzIuMDAwMDAwJywgJy1tcycsICcxNicsICctdG4nLCAnOCcsICctbWEnLCAnMjAwJywgJy1pbWFlJywgJzxpbmZpbGUubWFlPicsICctb21hZScsICc8b3V0ZmlsZS5tYWU+Jw==

>  <s_epik_input>  (930) 
W0NIM11OKFtDSDNdKVtDSDJdYyhjMUNsKVtjSF1jKFtjSF1bY0hdMSlbTkhdQyg9TyljMltjSF1jKG5jKGMyMylbY0hdW2NIXVtjSF1bY0hdMyktYzRbY0hdW2NIXW5bY0hdW2NIXTQ=

>  <s_i_glide_gridfile>  (930) 
ATP-Grid

>  <s_lp_Force_Field>  (930) 
OPLS_2005

>  <s_lp_Variant>  (930) 
m_527dbb____9746914____156372-1

>  <s_lp_label>  (930) 
1500_sdstereoexpander_1_neutralizer_1_epik_1_stereoizer_1

>  <s_m_source_file>  (930) 
ATP-VSW-LIGPREP-003-in.maegz

>  <s_sd_BIOSOLVEIT.INFINISEE\_QUERY\_NAME>  (930) 
Ref-Lig

>  <s_sd_BIOSOLVEIT.INFINISEE\_QUERY\_SMILES>  (930) 
S(c1nc2c(cc1C[NH2+]Cc3ccc(cc3)C[NH+](C)C)cccc2)Cc4ccccc4

>  <s_sd_BIOSOLVEIT.INFINISEE\_REACTION\_NAME>  (930) 
m_527dbb

>  <s_sd_BIOSOLVEIT.INFINISEE\_REAGENT1\_SMILES>  (930) 
[R1*]Nc1cc(c(Cl)cc1)CN(C)C

>  <s_sd_BIOSOLVEIT.INFINISEE\_REAGENT2\_SMILES>  (930) 
[R1*]C(=O)c1c2c(nc(c3ccncc3)c1)cccc2

>  <s_sd_BIOSOLVEIT.INFINISEE\_SPACE>  (930) 
REALSpace_44bn_2023-08

>  <s_vsw_compound_code>  (930) 
47971

>  <s_vsw_variant>  (930) 
47971-1

>  <r_epik_Charging_Adjusted_Penalty>  (930) 
0.12769097181154601

>  <r_epik_Ionization_Penalty>  (930) 
0.069000000000000006

>  <r_epik_Ionization_Penalty_Charging>  (930) 
0.063799999999999996

>  <r_epik_Ionization_Penalty_Neutral>  (930) 
0.0051000000000000004

>  <r_epik_State_Penalty>  (930) 
0.063799999999999996

>  <r_i_docking_score>  (930) 
-5.1558057334961802

>  <r_i_glide_ecoul>  (930) 
-10.5610094070435

>  <r_i_glide_eff_state_penalty>  (930) 
0.063799999999999996

>  <r_i_glide_einternal>  (930) 
2.9446537494659402

>  <r_i_glide_emodel>  (930) 
-65.656145979999295

>  <r_i_glide_energy>  (930) 
-46.1837320327759

>  <r_i_glide_erotb>  (930) 
0.56597639060281502

>  <r_i_glide_esite>  (930) 
-0.115514864119991

>  <r_i_glide_evdw>  (930) 
-35.622722625732401

>  <r_i_glide_gscore>  (930) 
-5.2196057334961798

>  <r_i_glide_hbond>  (930) 
-0.20000000000000001

>  <r_i_glide_ligand_efficiency>  (930) 
-0.171860191116539

>  <r_i_glide_ligand_efficiency_ln>  (930) 
-1.1714552396532201

>  <r_i_glide_ligand_efficiency_sa>  (930) 
-0.53400957171133001

>  <r_i_glide_lipo>  (930) 
-1.54507776309041

>  <r_i_glide_metal>  (930) 
-0

>  <r_i_glide_rewards>  (930) 
-0.55970195454545302

>  <r_lp_Energy>  (930) 
31.154502999999998

>  <r_qp_ACxDN^.5/SA>  (930) 
0.0093389000000000007

>  <r_qp_CIQPlogS>  (930) 
-5.1559999999999997

>  <r_qp_EA(eV)>  (930) 
1.49

>  <r_qp_FISA>  (930) 
78.629000000000005

>  <r_qp_FOSA>  (930) 
170.77099999999999

>  <r_qp_IP(eV)>  (930) 
8.9589999999999996

>  <r_qp_Jm>  (930) 
0.0014800894424561099

>  <r_qp_PISA>  (930) 
448.64100000000002

>  <r_qp_PSA>  (930) 
61.491999999999997

>  <r_qp_PercentHumanOralAbsorption>  (930) 
100

>  <r_qp_QPPCaco>  (930) 
443.77499999999998

>  <r_qp_QPPMDCK>  (930) 
435.55399999999997

>  <r_qp_QPlogBB>  (930) 
-0.085000000000000006

>  <r_qp_QPlogHERG>  (930) 
-8.0329999999999995

>  <r_qp_QPlogKhsa>  (930) 
0.57799999999999996

>  <r_qp_QPlogKp>  (930) 
-2.9710000000000001

>  <r_qp_QPlogPC16>  (930) 
14.901

>  <r_qp_QPlogPo/w>  (930) 
4.2460000000000004

>  <r_qp_QPlogPoct>  (930) 
21.645

>  <r_qp_QPlogPw>  (930) 
12.384

>  <r_qp_QPlogS>  (930) 
-5.4790000000000001

>  <r_qp_QPpolrz>  (930) 
47.640000000000001

>  <r_qp_SASA>  (930) 
749.55399999999997

>  <r_qp_SAamideO>  (930) 
0

>  <r_qp_SAfluorine>  (930) 
0

>  <r_qp_WPSA>  (930) 
51.512999999999998

>  <r_qp_accptHB>  (930) 
7

>  <r_qp_dip^2/V>  (930) 
0.030408999999999999

>  <r_qp_dipole>  (930) 
6.3289999999999997

>  <r_qp_donorHB>  (930) 
1

>  <r_qp_glob>  (930) 
0.7753466

>  <r_qp_mol_MW>  (930) 
416.90899999999999

>  <r_qp_volume>  (930) 
1317.348

>  <r_sd_BIOSOLVEIT.INFINISEE\_FTREES\_SIMILARITY>  (930) 
0.90700000000000003

>  <r_sd_BIOSOLVEIT.LOGP>  (930) 
3.847

>  <r_sd_BIOSOLVEIT.MOLECULAR\_WEIGHT>  (930) 
417.91800000000001

>  <r_sd_BIOSOLVEIT.TPSA>  (930) 
59.32

>  <i_epik_Tot_Q>  (930) 
1

>  <i_epik_Tot_abs_Q>  (930) 
1

>  <i_f3d_flags>  (930) 
0

>  <i_i_glide_confnum>  (930) 
2

>  <i_i_glide_lignum>  (930) 
571

>  <i_i_glide_posenum>  (930) 
12

>  <i_i_glide_rotatable_bonds>  (930) 
6

>  <i_lp_mmshare_version>  (930) 
65135

>  <i_m_ct_format>  (930) 
2

>  <i_m_source_file_index>  (930) 
1500

>  <i_qp_#NandO>  (930) 
5

>  <i_qp_#acid>  (930) 
0

>  <i_qp_#amide>  (930) 
0

>  <i_qp_#amidine>  (930) 
0

>  <i_qp_#amine>  (930) 
1

>  <i_qp_#in34>  (930) 
0

>  <i_qp_#in56>  (930) 
22

>  <i_qp_#metab>  (930) 
4

>  <i_qp_#nonHatm>  (930) 
30

>  <i_qp_#noncon>  (930) 
0

>  <i_qp_#ringatoms>  (930) 
22

>  <i_qp_#rotor>  (930) 
5

>  <i_qp_#rtvFG>  (930) 
0

>  <i_qp_#stars>  (930) 
0

>  <i_qp_CNS>  (930) 
1

>  <i_qp_HumanOralAbsorption>  (930) 
3

>  <i_qp_RuleOfFive>  (930) 
0

>  <i_qp_RuleOfThree>  (930) 
0

>  <i_sd_BIOSOLVEIT.INFINISEE\_REAGENT1\_NAME>  (930) 
9746914

>  <i_sd_BIOSOLVEIT.INFINISEE\_REAGENT2\_NAME>  (930) 
156372

>  <i_sd_BIOSOLVEIT.INFINISEE\_RESULT\_RANK>  (930) 
59394

>  <i_sd_version>  (930) 
0

>  <b_lp_Chiralities_Consistent>  (930) 
1

>  <b_sd_chiral_flag>  (930) 
0

>  <canonical_id>  (930) 
ATP-HTVS-93CB38BE3680

>  <compound_code>  (930) 
47971

>  <title>  (930) 
m_527dbb____9746914____156372

>  <variant>  (930) 
47971-1

>  <source_file>  (930) 
运行/运行/ATP-VSW/ATP-VSW-DOCK_HTVS_1-003_lib/ATP-VSW-DOCK_HTVS_1-003_lib.mae

>  <canonical_smiles>  (930) 
C[NH+](C)Cc1cc(NC(=O)c2cc(-c3ccncc3)nc3ccccc23)ccc1Cl

>  <scaffold>  (930) 
O=C(Nc1ccccc1)c1cc(-c2ccncc2)nc2ccccc12

>  <molecular_formula>  (930) 
C24H22ClN4O+

$$$$
ATP-HTVS-93E6D0793690
     RDKit          3D

 49 52  0  0  0  0  0  0  0  0999 V2000
  197.0713  180.7213  150.8300 N   0  0  0  0  0  0  0  0  0  0  0  0
  196.7335  180.9318  152.1224 C   0  0  0  0  0  0  0  0  0  0  0  0
  197.3481  180.3166  153.2197 C   0  0  0  0  0  0  0  0  0  0  0  0
  198.4584  179.4504  153.0102 C   0  0  0  0  0  0  0  0  0  0  0  0
  198.8330  179.2127  151.6446 C   0  0  0  0  0  0  0  0  0  0  0  0
  198.0962  179.8679  150.6166 C   0  0  0  0  0  0  0  0  0  0  0  0
  199.1917  178.7684  154.1298 C   0  0  0  0  0  0  0  0  0  0  0  0
  199.9110  177.6693  153.8912 N   0  0  0  0  0  0  0  0  0  0  0  0
  200.4128  177.2535  155.0780 N   0  0  0  0  0  0  0  0  0  0  0  0
  201.2085  176.0759  155.1472 C   0  0  0  0  0  0  0  0  0  0  0  0
  201.2764  175.1876  154.0468 C   0  0  0  0  0  0  0  0  0  0  0  0
  202.0741  174.0235  154.1198 C   0  0  0  0  0  0  0  0  0  0  0  0
  202.8089  173.7446  155.2843 C   0  0  0  0  0  0  0  0  0  0  0  0
  202.7508  174.6315  156.3738 C   0  0  0  0  0  0  0  0  0  0  0  0
  201.9482  175.7807  156.3122 C   0  0  0  0  0  0  0  0  0  0  0  0
  200.0497  178.1202  156.0880 C   0  0  0  0  0  0  0  0  0  0  0  0
  199.2544  179.0898  155.5295 C   0  0  0  0  0  0  0  0  0  0  0  0
  198.7106  180.2719  156.2721 C   0  0  1  0  0  0  0  0  0  0  0  0
  197.2452  180.3033  156.2572 N   0  0  1  0  0  0  0  0  0  0  0  0
  196.6153  181.6597  156.1153 C   0  0  1  0  0  0  0  0  0  0  0  0
  196.8221  182.4684  157.3585 C   0  0  0  0  0  0  0  0  0  0  0  0
  195.8278  182.5393  158.3680 C   0  0  0  0  0  0  0  0  0  0  0  0
  194.5635  181.8487  158.2750 C   0  0  0  0  0  0  0  0  0  0  0  0
  193.4785  181.2489  158.1591 C   0  0  0  0  0  0  0  0  0  0  0  0
  196.1020  183.3034  159.5175 C   0  0  0  0  0  0  0  0  0  0  0  0
  197.3449  183.9525  159.6681 C   0  0  0  0  0  0  0  0  0  0  0  0
  198.3247  183.8775  158.6613 C   0  0  0  0  0  0  0  0  0  0  0  0
  198.0475  183.1572  157.4955 C   0  0  0  0  0  0  0  0  0  0  0  0
  196.9620  179.7553  155.4076 H   0  0  0  0  0  0  0  0  0  0  0  0
  195.9300  181.5860  152.3727 H   0  0  0  0  0  0  0  0  0  0  0  0
  196.8686  180.4913  154.1199 H   0  0  0  0  0  0  0  0  0  0  0  0
  199.6601  178.5266  151.3974 H   0  0  0  0  0  0  0  0  0  0  0  0
  198.3462  179.7097  149.5655 H   0  0  0  0  0  0  0  0  0  0  0  0
  200.7235  175.3808  153.1409 H   0  0  0  0  0  0  0  0  0  0  0  0
  202.1171  173.3437  153.2828 H   0  0  0  0  0  0  0  0  0  0  0  0
  203.4139  172.8539  155.3426 H   0  0  0  0  0  0  0  0  0  0  0  0
  203.3079  174.4205  157.2766 H   0  0  0  0  0  0  0  0  0  0  0  0
  201.9319  176.4518  157.1622 H   0  0  0  0  0  0  0  0  0  0  0  0
  200.3920  177.9949  157.1098 H   0  0  0  0  0  0  0  0  0  0  0  0
  199.0148  180.2801  157.3268 H   0  0  0  0  0  0  0  0  0  0  0  0
  199.1279  181.1744  155.8243 H   0  0  0  0  0  0  0  0  0  0  0  0
  197.0624  182.2147  155.2969 H   0  0  0  0  0  0  0  0  0  0  0  0
  195.5667  181.5270  155.8510 H   0  0  0  0  0  0  0  0  0  0  0  0
  192.5582  180.7418  158.0562 H   0  0  0  0  0  0  0  0  0  0  0  0
  195.3563  183.3735  160.2923 H   0  0  0  0  0  0  0  0  0  0  0  0
  197.5456  184.5235  160.5627 H   0  0  0  0  0  0  0  0  0  0  0  0
  199.2846  184.3651  158.7715 H   0  0  0  0  0  0  0  0  0  0  0  0
  198.8034  183.1181  156.7282 H   0  0  0  0  0  0  0  0  0  0  0  0
  196.8210  179.8147  157.0021 H   0  0  0  0  0  0  0  0  0  0  0  0
  1  2  2  0
  1  6  1  0
  2  3  1  0
  2 30  1  0
  3  4  2  0
  3 31  1  0
  4  5  1  0
  4  7  1  0
  5  6  2  0
  5 32  1  0
  6 33  1  0
  7  8  2  0
  7 17  1  0
  8  9  1  0
  9 10  1  0
  9 16  1  0
 10 11  2  0
 10 15  1  0
 11 12  1  0
 11 34  1  0
 12 13  2  0
 12 35  1  0
 13 14  1  0
 13 36  1  0
 14 15  2  0
 14 37  1  0
 15 38  1  0
 16 17  2  0
 16 39  1  0
 17 18  1  0
 18 19  1  0
 18 40  1  1
 18 41  1  0
 19 20  1  0
 19 29  1  6
 19 49  1  0
 20 21  1  0
 20 42  1  6
 20 43  1  0
 21 22  1  0
 21 28  2  0
 22 23  1  0
 22 25  2  0
 23 24  3  0
 24 44  1  0
 25 26  1  0
 25 45  1  0
 26 27  2  0
 26 46  1  0
 27 28  1  0
 27 47  1  0
 28 48  1  0
M  CHG  1  19   1
M  END
>  <s_epik_cmdline>  (931) 
J2VwaWtfcHl0aG9uJywgJy1waCcsICc3LjAwMDAwMCcsICctcGh0JywgJzIuMDAwMDAwJywgJy1tcycsICcxNicsICctdG4nLCAnOCcsICctbWEnLCAnMjAwJywgJy1pbWFlJywgJzxpbmZpbGUubWFlPicsICctb21hZScsICc8b3V0ZmlsZS5tYWU+Jw==

>  <s_epik_input>  (931) 
W2NIXTFbY0hdbltjSF1bY0hdYzEtYzJubigtYzNbY0hdW2NIXVtjSF1bY0hdW2NIXTMpW2NIXWMyW0NIMl1bTkhdW0NIMl1jNGMoQyNbQ0hdKVtjSF1bY0hdW2NIXVtjSF00

>  <s_i_glide_gridfile>  (931) 
ATP-Grid

>  <s_lp_Force_Field>  (931) 
OPLS_2005

>  <s_lp_Variant>  (931) 
m_270004bbb____16771676____7547806-1

>  <s_lp_label>  (931) 
1991_sdstereoexpander_1_neutralizer_1_epik_1_stereoizer_1

>  <s_m_source_file>  (931) 
ATP-VSW-LIGPREP-001-in.maegz

>  <s_sd_BIOSOLVEIT.INFINISEE\_QUERY\_NAME>  (931) 
Ref-Lig

>  <s_sd_BIOSOLVEIT.INFINISEE\_QUERY\_SMILES>  (931) 
S(c1nc2c(cc1C[NH2+]Cc3ccc(cc3)C[NH+](C)C)cccc2)Cc4ccccc4

>  <s_sd_BIOSOLVEIT.INFINISEE\_REACTION\_NAME>  (931) 
m_270004bbb

>  <s_sd_BIOSOLVEIT.INFINISEE\_REAGENT1\_SMILES>  (931) 
[R1*]NCc1c(C#C)cccc1

>  <s_sd_BIOSOLVEIT.INFINISEE\_REAGENT2\_SMILES>  (931) 
[R1*]CC=1C(=NN(c2ccccc2)C1)c3ccncc3

>  <s_sd_BIOSOLVEIT.INFINISEE\_SPACE>  (931) 
REALSpace_44bn_2023-08

>  <s_vsw_compound_code>  (931) 
63681

>  <s_vsw_variant>  (931) 
63681-1

>  <r_epik_Charging_Adjusted_Penalty>  (931) 
0.21331709560298001

>  <r_epik_Ionization_Penalty>  (931) 
0.109

>  <r_epik_Ionization_Penalty_Charging>  (931) 
0.1043

>  <r_epik_Ionization_Penalty_Neutral>  (931) 
0.0047000000000000002

>  <r_epik_State_Penalty>  (931) 
0.109

>  <r_i_docking_score>  (931) 
-4.7710526005952003

>  <r_i_glide_ecoul>  (931) 
-9.1444730758666992

>  <r_i_glide_eff_state_penalty>  (931) 
0.109

>  <r_i_glide_einternal>  (931) 
4.3531398773193404

>  <r_i_glide_emodel>  (931) 
-62.297164987188197

>  <r_i_glide_energy>  (931) 
-44.8673543930054

>  <r_i_glide_erotb>  (931) 
1.00823646886449

>  <r_i_glide_esite>  (931) 
-0.102123362996623

>  <r_i_glide_evdw>  (931) 
-35.7228813171387

>  <r_i_glide_gscore>  (931) 
-4.8800526005952003

>  <r_i_glide_hbond>  (931) 
-0.21432753521042

>  <r_i_glide_ligand_efficiency>  (931) 
-0.17039473573554301

>  <r_i_glide_ligand_efficiency_ln>  (931) 
-1.1012990244087599

>  <r_i_glide_ligand_efficiency_sa>  (931) 
-0.51741877482550203

>  <r_i_glide_lipo>  (931) 
-1.2716390985611701

>  <r_i_glide_metal>  (931) 
-0

>  <r_i_glide_rewards>  (931) 
-1.14238404545454

>  <r_lp_Energy>  (931) 
11.166248

>  <r_lp_tautomer_probability>  (931) 
1

>  <r_qp_ACxDN^.5/SA>  (931) 
0.0071738000000000001

>  <r_qp_CIQPlogS>  (931) 
-5.3079999999999998

>  <r_qp_EA(eV)>  (931) 
0.67400000000000004

>  <r_qp_FISA>  (931) 
44.161000000000001

>  <r_qp_FOSA>  (931) 
79.694999999999993

>  <r_qp_IP(eV)>  (931) 
8.9039999999999999

>  <r_qp_Jm>  (931) 
0.029520427854968001

>  <r_qp_PISA>  (931) 
559.04300000000001

>  <r_qp_PSA>  (931) 
39.295999999999999

>  <r_qp_PercentHumanOralAbsorption>  (931) 
100

>  <r_qp_QPPCaco>  (931) 
941.94299999999998

>  <r_qp_QPPMDCK>  (931) 
513.04200000000003

>  <r_qp_QPlogBB>  (931) 
0.20899999999999999

>  <r_qp_QPlogHERG>  (931) 
-8.0380000000000003

>  <r_qp_QPlogKhsa>  (931) 
0.90500000000000003

>  <r_qp_QPlogKp>  (931) 
-1.9470000000000001

>  <r_qp_QPlogPC16>  (931) 
14.141

>  <r_qp_QPlogPo/w>  (931) 
4.9820000000000002

>  <r_qp_QPlogPoct>  (931) 
19.640000000000001

>  <r_qp_QPlogPw>  (931) 
10.5

>  <r_qp_QPlogS>  (931) 
-5.1449999999999996

>  <r_qp_QPpolrz>  (931) 
44.707999999999998

>  <r_qp_SASA>  (931) 
682.899

>  <r_qp_SAamideO>  (931) 
0

>  <r_qp_SAfluorine>  (931) 
0

>  <r_qp_WPSA>  (931) 
0

>  <r_qp_accptHB>  (931) 
4

>  <r_qp_dip^2/V>  (931) 
0.033761600000000003

>  <r_qp_dipole>  (931) 
6.4119999999999999

>  <r_qp_donorHB>  (931) 
1.5

>  <r_qp_glob>  (931) 
0.80756850000000002

>  <r_qp_mol_MW>  (931) 
364.44900000000001

>  <r_qp_volume>  (931) 
1217.7439999999999

>  <r_sd_BIOSOLVEIT.INFINISEE\_FTREES\_SIMILARITY>  (931) 
0.90200000000000002

>  <r_sd_BIOSOLVEIT.LOGP>  (931) 
3.1791999999999998

>  <r_sd_BIOSOLVEIT.MOLECULAR\_WEIGHT>  (931) 
365.45800000000003

>  <r_sd_BIOSOLVEIT.TPSA>  (931) 
47.32

>  <i_epik_Tot_Q>  (931) 
1

>  <i_epik_Tot_abs_Q>  (931) 
1

>  <i_f3d_flags>  (931) 
0

>  <i_i_glide_confnum>  (931) 
9

>  <i_i_glide_lignum>  (931) 
605

>  <i_i_glide_posenum>  (931) 
4

>  <i_i_glide_rotatable_bonds>  (931) 
7

>  <i_lp_mmshare_version>  (931) 
65135

>  <i_m_ct_format>  (931) 
2

>  <i_m_source_file_index>  (931) 
1991

>  <i_qp_#NandO>  (931) 
4

>  <i_qp_#acid>  (931) 
0

>  <i_qp_#amide>  (931) 
0

>  <i_qp_#amidine>  (931) 
0

>  <i_qp_#amine>  (931) 
1

>  <i_qp_#in34>  (931) 
0

>  <i_qp_#in56>  (931) 
23

>  <i_qp_#metab>  (931) 
5

>  <i_qp_#nonHatm>  (931) 
28

>  <i_qp_#noncon>  (931) 
0

>  <i_qp_#ringatoms>  (931) 
23

>  <i_qp_#rotor>  (931) 
5

>  <i_qp_#rtvFG>  (931) 
0

>  <i_qp_#stars>  (931) 
1

>  <i_qp_CNS>  (931) 
1

>  <i_qp_HumanOralAbsorption>  (931) 
3

>  <i_qp_RuleOfFive>  (931) 
0

>  <i_qp_RuleOfThree>  (931) 
0

>  <i_sd_BIOSOLVEIT.INFINISEE\_REAGENT1\_NAME>  (931) 
16771676

>  <i_sd_BIOSOLVEIT.INFINISEE\_REAGENT2\_NAME>  (931) 
7547806

>  <i_sd_BIOSOLVEIT.INFINISEE\_RESULT\_RANK>  (931) 
90230

>  <i_sd_version>  (931) 
0

>  <b_lp_Chiralities_Consistent>  (931) 
1

>  <b_sd_chiral_flag>  (931) 
0

>  <canonical_id>  (931) 
ATP-HTVS-93E6D0793690

>  <compound_code>  (931) 
63681

>  <title>  (931) 
m_270004bbb____16771676____7547806

>  <variant>  (931) 
63681-1

>  <source_file>  (931) 
运行/运行/ATP-VSW/ATP-VSW-DOCK_HTVS_1-001_lib/ATP-VSW-DOCK_HTVS_1-001_lib

>  <canonical_smiles>  (931) 
C#Cc1ccccc1C[NH2+]Cc1cn(-c2ccccc2)nc1-c1ccncc1

>  <scaffold>  (931) 
c1ccc(C[NH2+]Cc2cn(-c3ccccc3)nc2-c2ccncc2)cc1

>  <molecular_formula>  (931) 
C24H21N4+

$$$$
ATP-HTVS-94036CD3F111
     RDKit          3D

 55 58  0  0  0  0  0  0  0  0999 V2000
  198.2731  181.1849  152.6586 Cl  0  0  0  0  0  0  0  0  0  0  0  0
  198.7348  180.2050  154.0005 C   0  0  0  0  0  0  0  0  0  0  0  0
  199.5673  178.7095  153.6582 S   0  0  0  0  0  0  0  0  0  0  0  0
  199.6577  178.3515  155.3609 C   0  0  0  0  0  0  0  0  0  0  0  0
  199.1077  179.3517  156.1212 C   0  0  0  0  0  0  0  0  0  0  0  0
  198.5547  180.4168  155.3458 C   0  0  0  0  0  0  0  0  0  0  0  0
  197.9258  181.6436  155.9272 C   0  0  0  0  0  0  0  0  0  0  0  0
  198.0129  182.7435  155.3817 O   0  0  0  0  0  0  0  0  0  0  0  0
  197.2395  181.4380  157.0671 N   0  0  0  0  0  0  0  0  0  0  0  0
  196.5928  182.4351  157.8400 C   0  0  0  0  0  0  0  0  0  0  0  0
  197.2586  183.5752  158.3766 C   0  0  0  0  0  0  0  0  0  0  0  0
  198.6195  183.7775  158.1203 N   0  0  0  0  0  0  0  0  0  0  0  0
  199.5282  183.5513  159.2259 C   0  0  1  0  0  0  0  0  0  0  0  0
  200.9765  183.4174  158.8224 C   0  0  0  0  0  0  0  0  0  0  0  0
  201.4399  182.2569  158.1673 C   0  0  0  0  0  0  0  0  0  0  0  0
  202.8083  182.1210  157.8456 C   0  0  0  0  0  0  0  0  0  0  0  0
  203.7029  183.1672  158.1494 C   0  0  0  0  0  0  0  0  0  0  0  0
  203.2363  184.3411  158.7732 C   0  0  0  0  0  0  0  0  0  0  0  0
  201.8750  184.4628  159.1127 C   0  0  0  0  0  0  0  0  0  0  0  0
  203.3153  180.8506  157.1824 C   0  0  1  0  0  0  0  0  0  0  0  0
  203.6832  181.0370  155.7823 N   0  0  0  0  0  0  0  0  0  0  0  0
  204.2832  179.8065  155.2819 C   0  0  2  0  0  0  0  0  0  0  0  0
  202.5066  181.3383  154.9732 C   0  0  2  0  0  0  0  0  0  0  0  0
  196.5106  184.4817  159.1659 C   0  0  0  0  0  0  0  0  0  0  0  0
  195.1251  184.2333  159.3861 C   0  0  0  0  0  0  0  0  0  0  0  0
  194.5547  183.1327  158.8469 N   0  0  0  0  0  0  0  0  0  0  0  0
  195.2317  182.2381  158.1118 C   0  0  0  0  0  0  0  0  0  0  0  0
  194.3479  185.1385  160.1345 C   0  0  0  0  0  0  0  0  0  0  0  0
  194.9457  186.2778  160.7018 C   0  0  0  0  0  0  0  0  0  0  0  0
  196.3174  186.5301  160.5028 C   0  0  0  0  0  0  0  0  0  0  0  0
  197.0881  185.6536  159.7145 C   0  0  0  0  0  0  0  0  0  0  0  0
  200.0920  177.4253  155.7026 H   0  0  0  0  0  0  0  0  0  0  0  0
  199.0891  179.3422  157.2028 H   0  0  0  0  0  0  0  0  0  0  0  0
  197.0458  180.4799  157.3425 H   0  0  0  0  0  0  0  0  0  0  0  0
  198.9157  183.2892  157.2849 H   0  0  0  0  0  0  0  0  0  0  0  0
  199.4727  184.3282  159.9847 H   0  0  0  0  0  0  0  0  0  0  0  0
  199.2464  182.6434  159.7519 H   0  0  0  0  0  0  0  0  0  0  0  0
  200.7471  181.4630  157.9267 H   0  0  0  0  0  0  0  0  0  0  0  0
  204.7467  183.0757  157.8956 H   0  0  0  0  0  0  0  0  0  0  0  0
  203.9248  185.1440  159.0109 H   0  0  0  0  0  0  0  0  0  0  0  0
  201.5280  185.3596  159.6028 H   0  0  0  0  0  0  0  0  0  0  0  0
  204.1873  180.5068  157.7446 H   0  0  0  0  0  0  0  0  0  0  0  0
  202.5633  180.0658  157.2737 H   0  0  0  0  0  0  0  0  0  0  0  0
  205.1772  179.5481  155.8522 H   0  0  0  0  0  0  0  0  0  0  0  0
  204.5784  179.9254  154.2410 H   0  0  0  0  0  0  0  0  0  0  0  0
  203.5904  178.9652  155.3423 H   0  0  0  0  0  0  0  0  0  0  0  0
  202.0289  182.2635  155.2936 H   0  0  0  0  0  0  0  0  0  0  0  0
  201.7698  180.5383  155.0374 H   0  0  0  0  0  0  0  0  0  0  0  0
  202.7792  181.4657  153.9259 H   0  0  0  0  0  0  0  0  0  0  0  0
  194.6786  181.3838  157.7357 H   0  0  0  0  0  0  0  0  0  0  0  0
  193.2855  184.9806  160.2643 H   0  0  0  0  0  0  0  0  0  0  0  0
  194.3550  186.9810  161.2805 H   0  0  0  0  0  0  0  0  0  0  0  0
  196.7797  187.4146  160.9205 H   0  0  0  0  0  0  0  0  0  0  0  0
  198.1167  185.9172  159.5236 H   0  0  0  0  0  0  0  0  0  0  0  0
  193.5585  182.9714  158.9870 H   0  0  0  0  0  0  0  0  0  0  0  0
  1  2  1  0
  2  3  1  0
  2  6  2  0
  3  4  1  0
  4  5  2  0
  4 32  1  0
  5  6  1  0
  5 33  1  0
  6  7  1  0
  7  8  2  0
  7  9  1  0
  9 10  1  0
  9 34  1  0
 10 11  2  0
 10 27  1  0
 11 12  1  0
 11 24  1  0
 12 13  1  0
 12 35  1  0
 13 14  1  0
 13 36  1  1
 13 37  1  0
 14 15  2  0
 14 19  1  0
 15 16  1  0
 15 38  1  0
 16 17  2  0
 16 20  1  0
 17 18  1  0
 17 39  1  0
 18 19  2  0
 18 40  1  0
 19 41  1  0
 20 21  1  0
 20 42  1  1
 20 43  1  0
 21 22  1  0
 21 23  1  0
 22 44  1  1
 22 45  1  0
 22 46  1  0
 23 47  1  1
 23 48  1  0
 23 49  1  0
 24 25  1  0
 24 31  2  0
 25 26  1  0
 25 28  2  0
 26 27  2  0
 26 55  1  0
 27 50  1  0
 28 29  1  0
 28 51  1  0
 29 30  2  0
 29 52  1  0
 30 31  1  0
 30 53  1  0
 31 54  1  0
M  CHG  1  26   1
M  END
>  <s_epik_cmdline>  (932) 
J2VwaWtfcHl0aG9uJywgJy1waCcsICc3LjAwMDAwMCcsICctcGh0JywgJzIuMDAwMDAwJywgJy1tcycsICcxNicsICctdG4nLCAnOCcsICctbWEnLCAnMjAwJywgJy1pbWFlJywgJzxpbmZpbGUubWFlPicsICctb21hZScsICc8b3V0ZmlsZS5tYWU+Jw==

>  <s_epik_input>  (932) 
Q2xjMXNbY0hdW2NIXWMxQyg9TylbTkhdYyhbY0hdbmMoYzIzKVtjSF1bY0hdW2NIXVtjSF0zKWMyW05IXVtDSDJdYzRbY0hdYyhbY0hdW2NIXVtjSF00KVtDSDJdTihbQ0gzXSlbQ0gzXQ==

>  <s_i_glide_gridfile>  (932) 
ATP-Grid

>  <s_lp_Force_Field>  (932) 
OPLS_2005

>  <s_lp_Variant>  (932) 
rxn502b____EMOL32179358____EMOL30488121____EMOL2873214-3

>  <s_lp_label>  (932) 
2848_sdstereoexpander_1_neutralizer_1_epik_3_stereoizer_1

>  <s_m_source_file>  (932) 
ATP-VSW-LIGPREP-002-in.maegz

>  <s_sd_BIOSOLVEIT.INFINISEE\_QUERY\_NAME>  (932) 
Ref-Lig

>  <s_sd_BIOSOLVEIT.INFINISEE\_QUERY\_SMILES>  (932) 
S(c1nc2c(cc1C[NH2+]Cc3ccc(cc3)C[NH+](C)C)cccc2)Cc4ccccc4

>  <s_sd_BIOSOLVEIT.INFINISEE\_REACTION\_NAME>  (932) 
rxn502b

>  <s_sd_BIOSOLVEIT.INFINISEE\_REAGENT1\_NAME>  (932) 
EMOL32179358

>  <s_sd_BIOSOLVEIT.INFINISEE\_REAGENT1\_SMILES>  (932) 
ClC=1SC=CC1C(=O)O

>  <s_sd_BIOSOLVEIT.INFINISEE\_REAGENT2\_NAME>  (932) 
EMOL30488121

>  <s_sd_BIOSOLVEIT.INFINISEE\_REAGENT2\_SMILES>  (932) 
Brc1c(N)cnc2c1cccc2

>  <s_sd_BIOSOLVEIT.INFINISEE\_REAGENT3\_NAME>  (932) 
EMOL2873214

>  <s_sd_BIOSOLVEIT.INFINISEE\_REAGENT3\_SMILES>  (932) 
N(Cc1cc(ccc1)CN)(C)C

>  <s_sd_BIOSOLVEIT.INFINISEE\_SPACE>  (932) 
eXplore_7tr_2022-12

>  <s_vsw_compound_code>  (932) 
91106

>  <s_vsw_variant>  (932) 
91106-3

>  <r_epik_Charging_Adjusted_Penalty>  (932) 
1.6875231650956799

>  <r_epik_Ionization_Penalty>  (932) 
1.6243000000000001

>  <r_epik_Ionization_Penalty_Charging>  (932) 
0.063200000000000006

>  <r_epik_Ionization_Penalty_Neutral>  (932) 
1.5610999999999999

>  <r_epik_State_Penalty>  (932) 
1.6243000000000001

>  <r_i_docking_score>  (932) 
-2.79144307709762

>  <r_i_glide_ecoul>  (932) 
-8.5567827224731392

>  <r_i_glide_eff_state_penalty>  (932) 
1.6243000000000001

>  <r_i_glide_einternal>  (932) 
5.4960513114929199

>  <r_i_glide_emodel>  (932) 
-52.946672871357102

>  <r_i_glide_energy>  (932) 
-40.360842704772899

>  <r_i_glide_erotb>  (932) 
0.68738513851976801

>  <r_i_glide_esite>  (932) 
-0.121328947087747

>  <r_i_glide_evdw>  (932) 
-31.804059982299801

>  <r_i_glide_gscore>  (932) 
-4.4157430770976198

>  <r_i_glide_hbond>  (932) 
-0.15346042868212301

>  <r_i_glide_ligand_efficiency>  (932) 
-0.090046550874116699

>  <r_i_glide_ligand_efficiency_ln>  (932) 
-0.62955596134196501

>  <r_i_glide_ligand_efficiency_sa>  (932) 
-0.28287049240673601

>  <r_i_glide_lipo>  (932) 
-1.4022929323615601

>  <r_i_glide_metal>  (932) 
-0

>  <r_i_glide_rewards>  (932) 
-0.55232549999999803

>  <r_lp_Energy>  (932) 
31.597456999999999

>  <r_qp_ACxDN^.5/SA>  (932) 
0.0131153

>  <r_qp_CIQPlogS>  (932) 
-5.9340000000000002

>  <r_qp_EA(eV)>  (932) 
0.98399999999999999

>  <r_qp_FISA>  (932) 
58.787999999999997

>  <r_qp_FOSA>  (932) 
168.27099999999999

>  <r_qp_IP(eV)>  (932) 
8.4469999999999992

>  <r_qp_Jm>  (932) 
0.0151337828411042

>  <r_qp_PISA>  (932) 
358.94400000000002

>  <r_qp_PSA>  (932) 
59.685000000000002

>  <r_qp_PercentHumanOralAbsorption>  (932) 
100

>  <r_qp_QPPCaco>  (932) 
684.399

>  <r_qp_QPPMDCK>  (932) 
1547.2850000000001

>  <r_qp_QPlogBB>  (932) 
0.26700000000000002

>  <r_qp_QPlogHERG>  (932) 
-6.5519999999999996

>  <r_qp_QPlogKhsa>  (932) 
0.68300000000000005

>  <r_qp_QPlogKp>  (932) 
-2.7290000000000001

>  <r_qp_QPlogPC16>  (932) 
14.872999999999999

>  <r_qp_QPlogPo/w>  (932) 
4.806

>  <r_qp_QPlogPoct>  (932) 
22.959

>  <r_qp_QPlogPw>  (932) 
12.074999999999999

>  <r_qp_QPlogS>  (932) 
-4.7450000000000001

>  <r_qp_QPpolrz>  (932) 
46.573999999999998

>  <r_qp_SASA>  (932) 
700.88999999999999

>  <r_qp_SAamideO>  (932) 
0

>  <r_qp_SAfluorine>  (932) 
0

>  <r_qp_WPSA>  (932) 
114.887

>  <r_qp_accptHB>  (932) 
6.5

>  <r_qp_dip^2/V>  (932) 
0.045033200000000002

>  <r_qp_dipole>  (932) 
7.7800000000000002

>  <r_qp_donorHB>  (932) 
2

>  <r_qp_glob>  (932) 
0.8404045

>  <r_qp_mol_MW>  (932) 
450.98500000000001

>  <r_qp_volume>  (932) 
1344.1880000000001

>  <r_sd_BIOSOLVEIT.INFINISEE\_FTREES\_SIMILARITY>  (932) 
0.90500000000000003

>  <r_sd_BIOSOLVEIT.LOGP>  (932) 
4.4585999999999997

>  <r_sd_BIOSOLVEIT.MOLECULAR\_WEIGHT>  (932) 
451.99900000000002

>  <r_sd_BIOSOLVEIT.TPSA>  (932) 
58.460000000000001

>  <i_epik_Tot_Q>  (932) 
1

>  <i_epik_Tot_abs_Q>  (932) 
1

>  <i_f3d_flags>  (932) 
0

>  <i_i_glide_confnum>  (932) 
11

>  <i_i_glide_lignum>  (932) 
1411

>  <i_i_glide_posenum>  (932) 
8

>  <i_i_glide_rotatable_bonds>  (932) 
8

>  <i_lp_mmshare_version>  (932) 
65135

>  <i_m_ct_format>  (932) 
2

>  <i_m_source_file_index>  (932) 
2848

>  <i_qp_#NandO>  (932) 
5

>  <i_qp_#acid>  (932) 
0

>  <i_qp_#amide>  (932) 
0

>  <i_qp_#amidine>  (932) 
0

>  <i_qp_#amine>  (932) 
1

>  <i_qp_#in34>  (932) 
0

>  <i_qp_#in56>  (932) 
21

>  <i_qp_#metab>  (932) 
7

>  <i_qp_#nonHatm>  (932) 
31

>  <i_qp_#noncon>  (932) 
0

>  <i_qp_#ringatoms>  (932) 
21

>  <i_qp_#rotor>  (932) 
7

>  <i_qp_#rtvFG>  (932) 
0

>  <i_qp_#stars>  (932) 
0

>  <i_qp_CNS>  (932) 
1

>  <i_qp_HumanOralAbsorption>  (932) 
3

>  <i_qp_RuleOfFive>  (932) 
0

>  <i_qp_RuleOfThree>  (932) 
1

>  <i_sd_BIOSOLVEIT.INFINISEE\_RESULT\_RANK>  (932) 
68712

>  <i_sd_version>  (932) 
0

>  <b_lp_Chiralities_Consistent>  (932) 
1

>  <b_sd_chiral_flag>  (932) 
0

>  <canonical_id>  (932) 
ATP-HTVS-94036CD3F111

>  <compound_code>  (932) 
91106

>  <title>  (932) 
rxn502b____EMOL32179358____EMOL30488121____EMOL2873214

>  <variant>  (932) 
91106-3

>  <source_file>  (932) 
运行/运行/ATP-VSW/ATP-VSW-DOCK_HTVS_1-002_lib.maegz

>  <canonical_smiles>  (932) 
CN(C)Cc1cccc(CNc2c(NC(=O)c3ccsc3Cl)c[nH+]c3ccccc23)c1

>  <scaffold>  (932) 
O=C(Nc1c[nH+]c2ccccc2c1NCc1ccccc1)c1ccsc1

>  <molecular_formula>  (932) 
C24H24ClN4OS+

$$$$
ATP-HTVS-94448DA501C0
     RDKit          3D

 60 63  0  0  0  0  0  0  0  0999 V2000
  202.7853  180.5768  157.6134 S   0  0  0  0  0  0  0  0  0  0  0  0
  203.3357  181.6709  158.8656 C   0  0  0  0  0  0  0  0  0  0  0  0
  202.4042  182.7478  159.0550 C   0  0  0  0  0  0  0  0  0  0  0  0
  202.7905  183.7354  159.9993 C   0  0  0  0  0  0  0  0  0  0  0  0
  203.9754  183.6387  160.7472 C   0  0  0  0  0  0  0  0  0  0  0  0
  204.8483  182.5555  160.5578 C   0  0  0  0  0  0  0  0  0  0  0  0
  205.9979  182.4752  161.2684 F   0  0  0  0  0  0  0  0  0  0  0  0
  204.5291  181.5694  159.6073 C   0  0  0  0  0  0  0  0  0  0  0  0
  201.2236  182.6088  158.2034 C   0  0  0  0  0  0  0  0  0  0  0  0
  200.1436  183.5247  158.2342 N   0  0  0  0  0  0  0  0  0  0  0  0
  199.5934  183.9487  159.5124 C   0  0  1  0  0  0  0  0  0  0  0  0
  198.2549  184.6396  159.3976 C   0  0  0  0  0  0  0  0  0  0  0  0
  197.0989  183.8661  159.5732 C   0  0  0  0  0  0  0  0  0  0  0  0
  195.8214  184.4246  159.2819 C   0  0  0  0  0  0  0  0  0  0  0  0
  195.7241  185.8105  159.0537 C   0  0  0  0  0  0  0  0  0  0  0  0
  196.8911  186.6347  159.0234 C   0  0  0  0  0  0  0  0  0  0  0  0
  198.1598  186.0124  159.1824 C   0  0  0  0  0  0  0  0  0  0  0  0
  194.5849  183.5062  159.2161 C   0  0  1  0  0  0  0  0  0  0  0  0
  194.6882  182.4283  158.2027 N   0  0  2  0  0  0  0  0  0  0  0  0
  193.6003  181.4424  158.2548 C   0  0  2  0  0  0  0  0  0  0  0  0
  195.9668  181.7484  158.0139 C   0  0  2  0  0  0  0  0  0  0  0  0
  201.3161  181.5090  157.3822 C   0  0  0  0  0  0  0  0  0  0  0  0
  200.4151  180.9470  156.3521 C   0  0  0  0  0  0  0  0  0  0  0  0
  200.8498  180.4042  155.3491 O   0  0  0  0  0  0  0  0  0  0  0  0
  199.1013  181.0157  156.6480 N   0  0  0  0  0  0  0  0  0  0  0  0
  198.0620  180.3261  155.8943 C   0  0  1  0  0  0  0  0  0  0  0  0
  197.5737  181.1446  154.7045 C   0  0  0  0  0  0  0  0  0  0  0  0
  197.1528  180.4674  153.5443 C   0  0  0  0  0  0  0  0  0  0  0  0
  196.7505  181.1779  152.4022 C   0  0  0  0  0  0  0  0  0  0  0  0
  196.7608  182.5923  152.4090 C   0  0  0  0  0  0  0  0  0  0  0  0
  196.3619  183.3227  151.2280 C   0  0  0  0  0  0  0  0  0  0  0  0
  196.0368  183.9101  150.2772 N   0  0  0  0  0  0  0  0  0  0  0  0
  197.1526  183.2832  153.5756 C   0  0  0  0  0  0  0  0  0  0  0  0
  197.5583  182.5627  154.7167 C   0  0  0  0  0  0  0  0  0  0  0  0
  202.1799  184.6030  160.1637 H   0  0  0  0  0  0  0  0  0  0  0  0
  204.2127  184.4102  161.4653 H   0  0  0  0  0  0  0  0  0  0  0  0
  205.2037  180.7408  159.4435 H   0  0  0  0  0  0  0  0  0  0  0  0
  199.4673  183.4101  157.4903 H   0  0  0  0  0  0  0  0  0  0  0  0
  199.5072  183.0651  160.1325 H   0  0  0  0  0  0  0  0  0  0  0  0
  200.2547  184.6539  160.0137 H   0  0  0  0  0  0  0  0  0  0  0  0
  197.1785  182.7924  159.7616 H   0  0  0  0  0  0  0  0  0  0  0  0
  194.7612  186.2633  158.8751 H   0  0  0  0  0  0  0  0  0  0  0  0
  196.7950  187.6972  158.8814 H   0  0  0  0  0  0  0  0  0  0  0  0
  199.0605  186.6454  159.1170 H   0  0  0  0  0  0  0  0  0  0  0  0
  194.4297  183.0749  160.2144 H   0  0  0  0  0  0  0  0  0  0  0  0
  193.7047  184.1213  158.9834 H   0  0  0  0  0  0  0  0  0  0  0  0
  193.6339  180.9095  159.1975 H   0  0  0  0  0  0  0  0  0  0  0  0
  193.7248  180.6948  157.4731 H   0  0  0  0  0  0  0  0  0  0  0  0
  192.6164  181.8772  158.0922 H   0  0  0  0  0  0  0  0  0  0  0  0
  196.2419  181.2716  158.9728 H   0  0  0  0  0  0  0  0  0  0  0  0
  196.7851  182.4427  157.8092 H   0  0  0  0  0  0  0  0  0  0  0  0
  195.7885  181.0379  157.2672 H   0  0  0  0  0  0  0  0  0  0  0  0
  198.8390  181.4876  157.4959 H   0  0  0  0  0  0  0  0  0  0  0  0
  198.4581  179.3624  155.5442 H   0  0  0  0  0  0  0  0  0  0  0  0
  197.2671  180.0850  156.5408 H   0  0  0  0  0  0  0  0  0  0  0  0
  197.1557  179.3896  153.5328 H   0  0  0  0  0  0  0  0  0  0  0  0
  196.4375  180.6362  151.5187 H   0  0  0  0  0  0  0  0  0  0  0  0
  197.1392  184.3705  153.5871 H   0  0  0  0  0  0  0  0  0  0  0  0
  197.8559  183.1221  155.5896 H   0  0  0  0  0  0  0  0  0  0  0  0
  194.5326  182.8737  157.2891 H   0  0  0  0  0  0  0  0  0  0  0  0
  1  2  1  0
  1 22  1  0
  2  3  1  0
  2  8  2  0
  3  4  2  0
  3  9  1  0
  4  5  1  0
  4 35  1  0
  5  6  2  0
  5 36  1  0
  6  7  1  0
  6  8  1  0
  8 37  1  0
  9 10  1  0
  9 22  2  0
 10 11  1  0
 10 38  1  0
 11 12  1  0
 11 39  1  1
 11 40  1  0
 12 13  2  0
 12 17  1  0
 13 14  1  0
 13 41  1  0
 14 15  2  0
 14 18  1  0
 15 16  1  0
 15 42  1  0
 16 17  2  0
 16 43  1  0
 17 44  1  0
 18 19  1  0
 18 45  1  1
 18 46  1  0
 19 20  1  0
 19 21  1  0
 19 60  1  6
 20 47  1  1
 20 48  1  0
 20 49  1  0
 21 50  1  1
 21 51  1  0
 21 52  1  0
 22 23  1  0
 23 24  2  0
 23 25  1  0
 25 26  1  0
 25 53  1  0
 26 27  1  0
 26 54  1  6
 26 55  1  0
 27 28  1  0
 27 34  2  0
 28 29  2  0
 28 56  1  0
 29 30  1  0
 29 57  1  0
 30 31  1  0
 30 33  2  0
 31 32  3  0
 33 34  1  0
 33 58  1  0
 34 59  1  0
M  CHG  1  19   1
M  END
>  <s_epik_cmdline>  (933) 
J2VwaWtfcHl0aG9uJywgJy1waCcsICc3LjAwMDAwMCcsICctcGh0JywgJzIuMDAwMDAwJywgJy1tcycsICcxNicsICctdG4nLCAnOCcsICctbWEnLCAnMjAwJywgJy1pbWFlJywgJzxpbmZpbGUubWFlPicsICctb21hZScsICc8b3V0ZmlsZS5tYWU+Jw==

>  <s_epik_input>  (933) 
TiNDYyhbY0hdW2NIXTEpW2NIXVtjSF1jMVtDSDJdW05IXUMoPU8pYyhzMiljKGMoYzIzKVtjSF1bY0hdYyhGKVtjSF0zKVtOSF1bQ0gyXWM0W2NIXWMoW2NIXVtjSF1bY0hdNClbQ0gyXU4oW0NIM10pW0NIM10=

>  <s_i_glide_gridfile>  (933) 
ATP-Grid

>  <s_lp_Force_Field>  (933) 
OPLS_2005

>  <s_lp_Variant>  (933) 
rxn512c____EMOL299969148____EMOL526741____EMOL2873214-1

>  <s_lp_label>  (933) 
2472_sdstereoexpander_1_neutralizer_1_epik_1_stereoizer_1

>  <s_m_source_file>  (933) 
ATP-VSW-LIGPREP-002-in.maegz

>  <s_sd_BIOSOLVEIT.INFINISEE\_QUERY\_NAME>  (933) 
Ref-Lig

>  <s_sd_BIOSOLVEIT.INFINISEE\_QUERY\_SMILES>  (933) 
S(c1nc2c(cc1C[NH2+]Cc3ccc(cc3)C[NH+](C)C)cccc2)Cc4ccccc4

>  <s_sd_BIOSOLVEIT.INFINISEE\_REACTION\_NAME>  (933) 
rxn512c

>  <s_sd_BIOSOLVEIT.INFINISEE\_REAGENT1\_NAME>  (933) 
EMOL299969148

>  <s_sd_BIOSOLVEIT.INFINISEE\_REAGENT1\_SMILES>  (933) 
N#Cc1ccc(cc1)CN

>  <s_sd_BIOSOLVEIT.INFINISEE\_REAGENT2\_NAME>  (933) 
EMOL526741

>  <s_sd_BIOSOLVEIT.INFINISEE\_REAGENT2\_SMILES>  (933) 
ClC=1c2c(SC1C(=O)O)cc(F)cc2

>  <s_sd_BIOSOLVEIT.INFINISEE\_REAGENT3\_NAME>  (933) 
EMOL2873214

>  <s_sd_BIOSOLVEIT.INFINISEE\_REAGENT3\_SMILES>  (933) 
N(Cc1cc(ccc1)CN)(C)C

>  <s_sd_BIOSOLVEIT.INFINISEE\_SPACE>  (933) 
eXplore_7tr_2022-12

>  <s_vsw_compound_code>  (933) 
79074

>  <s_vsw_variant>  (933) 
79074-1

>  <r_epik_Charging_Adjusted_Penalty>  (933) 
0.086140609825027206

>  <r_epik_Ionization_Penalty>  (933) 
0.043099999999999999

>  <r_epik_Ionization_Penalty_Charging>  (933) 
0.043099999999999999

>  <r_epik_Ionization_Penalty_Neutral>  (933) 
0

>  <r_epik_State_Penalty>  (933) 
0.043099999999999999

>  <r_i_docking_score>  (933) 
-4.5144902852666799

>  <r_i_glide_ecoul>  (933) 
-10.143443107605

>  <r_i_glide_eff_state_penalty>  (933) 
0.043099999999999999

>  <r_i_glide_einternal>  (933) 
4.3968024253845197

>  <r_i_glide_emodel>  (933) 
-63.6636565803081

>  <r_i_glide_energy>  (933) 
-46.678473472595201

>  <r_i_glide_erotb>  (933) 
0.72153726979746102

>  <r_i_glide_esite>  (933) 
-0.13864399370948599

>  <r_i_glide_evdw>  (933) 
-36.535030364990199

>  <r_i_glide_gscore>  (933) 
-4.5575902852666799

>  <r_i_glide_hbond>  (933) 
-0.192992418667289

>  <r_i_glide_ligand_efficiency>  (933) 
-0.132779126037255

>  <r_i_glide_ligand_efficiency_ln>  (933) 
-0.99737753117876304

>  <r_i_glide_ligand_efficiency_sa>  (933) 
-0.43015282316797798

>  <r_i_glide_lipo>  (933) 
-1.3785400842598601

>  <r_i_glide_metal>  (933) 
-0

>  <r_i_glide_rewards>  (933) 
-0.22068307403724999

>  <r_lp_Energy>  (933) 
23.255431999999999

>  <r_qp_ACxDN^.5/SA>  (933) 
0.0083583000000000008

>  <r_qp_CIQPlogS>  (933) 
-6.5940000000000003

>  <r_qp_EA(eV)>  (933) 
1.1080000000000001

>  <r_qp_FISA>  (933) 
110.58499999999999

>  <r_qp_FOSA>  (933) 
179.267

>  <r_qp_IP(eV)>  (933) 
8.625

>  <r_qp_Jm>  (933) 
4.1381045159248e-05

>  <r_qp_PISA>  (933) 
359.714

>  <r_qp_PSA>  (933) 
78.197000000000003

>  <r_qp_PercentHumanOralAbsorption>  (933) 
84.061999999999998

>  <r_qp_QPPCaco>  (933) 
55.082999999999998

>  <r_qp_QPPMDCK>  (933) 
62.423000000000002

>  <r_qp_QPlogBB>  (933) 
-0.052999999999999999

>  <r_qp_QPlogHERG>  (933) 
-7.2450000000000001

>  <r_qp_QPlogKhsa>  (933) 
0.87

>  <r_qp_QPlogKp>  (933) 
-5.5519999999999996

>  <r_qp_QPlogPC16>  (933) 
14.526999999999999

>  <r_qp_QPlogPo/w>  (933) 
4.4329999999999998

>  <r_qp_QPlogPoct>  (933) 
21.516999999999999

>  <r_qp_QPlogPw>  (933) 
10.058999999999999

>  <r_qp_QPlogS>  (933) 
-4.5060000000000002

>  <r_qp_QPpolrz>  (933) 
47.488

>  <r_qp_SASA>  (933) 
717.84699999999998

>  <r_qp_SAamideO>  (933) 
0

>  <r_qp_SAfluorine>  (933) 
47.07

>  <r_qp_WPSA>  (933) 
68.281000000000006

>  <r_qp_accptHB>  (933) 
6

>  <r_qp_dip^2/V>  (933) 
0.042672000000000002

>  <r_qp_dipole>  (933) 
7.726

>  <r_qp_donorHB>  (933) 
1

>  <r_qp_glob>  (933) 
0.84268430000000005

>  <r_qp_mol_MW>  (933) 
472.57900000000001

>  <r_qp_volume>  (933) 
1398.9359999999999

>  <r_sd_BIOSOLVEIT.INFINISEE\_FTREES\_SIMILARITY>  (933) 
0.91500000000000004

>  <r_sd_BIOSOLVEIT.LOGP>  (933) 
4.0986799999999999

>  <r_sd_BIOSOLVEIT.MOLECULAR\_WEIGHT>  (933) 
473.59199999999998

>  <r_sd_BIOSOLVEIT.TPSA>  (933) 
69.359999999999999

>  <i_epik_Tot_Q>  (933) 
1

>  <i_epik_Tot_abs_Q>  (933) 
1

>  <i_f3d_flags>  (933) 
0

>  <i_i_glide_confnum>  (933) 
8

>  <i_i_glide_lignum>  (933) 
1066

>  <i_i_glide_posenum>  (933) 
2

>  <i_i_glide_rotatable_bonds>  (933) 
9

>  <i_lp_mmshare_version>  (933) 
65135

>  <i_m_ct_format>  (933) 
2

>  <i_m_source_file_index>  (933) 
2472

>  <i_qp_#NandO>  (933) 
5

>  <i_qp_#acid>  (933) 
0

>  <i_qp_#amide>  (933) 
0

>  <i_qp_#amidine>  (933) 
0

>  <i_qp_#amine>  (933) 
2

>  <i_qp_#in34>  (933) 
0

>  <i_qp_#in56>  (933) 
21

>  <i_qp_#metab>  (933) 
6

>  <i_qp_#nonHatm>  (933) 
34

>  <i_qp_#noncon>  (933) 
0

>  <i_qp_#ringatoms>  (933) 
21

>  <i_qp_#rotor>  (933) 
9

>  <i_qp_#rtvFG>  (933) 
0

>  <i_qp_#stars>  (933) 
0

>  <i_qp_CNS>  (933) 
1

>  <i_qp_HumanOralAbsorption>  (933) 
3

>  <i_qp_RuleOfFive>  (933) 
0

>  <i_qp_RuleOfThree>  (933) 
0

>  <i_sd_BIOSOLVEIT.INFINISEE\_RESULT\_RANK>  (933) 
28059

>  <i_sd_version>  (933) 
0

>  <b_lp_Chiralities_Consistent>  (933) 
1

>  <b_sd_chiral_flag>  (933) 
0

>  <canonical_id>  (933) 
ATP-HTVS-94448DA501C0

>  <compound_code>  (933) 
79074

>  <title>  (933) 
rxn512c____EMOL299969148____EMOL526741____EMOL2873214

>  <variant>  (933) 
79074-1

>  <source_file>  (933) 
运行/运行/ATP-VSW/ATP-VSW-DOCK_HTVS_1-002_lib.maegz

>  <canonical_smiles>  (933) 
C[NH+](C)Cc1cccc(CNc2c(C(=O)NCc3ccc(C#N)cc3)sc3cc(F)ccc23)c1

>  <scaffold>  (933) 
O=C(NCc1ccccc1)c1sc2ccccc2c1NCc1ccccc1

>  <molecular_formula>  (933) 
C27H26FN4OS+

$$$$
ATP-HTVS-9480C2297FB5
     RDKit          3D

 59 62  0  0  0  0  0  0  0  0999 V2000
  197.5537  183.0995  149.0146 O   0  0  0  0  0  0  0  0  0  0  0  0
  197.8198  183.0633  150.2115 C   0  0  0  0  0  0  0  0  0  0  0  0
  197.9249  181.9386  150.9582 N   0  0  0  0  0  0  0  0  0  0  0  0
  198.0094  180.5834  150.5258 C   0  0  0  0  0  0  0  0  0  0  0  0
  198.0247  180.2439  149.2218 N   0  0  0  0  0  0  0  0  0  0  0  0
  198.1922  178.9614  148.8400 C   0  0  0  0  0  0  0  0  0  0  0  0
  198.3355  177.9139  149.7866 C   0  0  0  0  0  0  0  0  0  0  0  0
  198.3062  178.2452  151.1562 C   0  0  0  0  0  0  0  0  0  0  0  0
  198.1375  179.5925  151.5454 C   0  0  0  0  0  0  0  0  0  0  0  0
  198.1499  179.9122  152.9153 N   0  0  0  0  0  0  0  0  0  0  0  0
  196.9656  180.5420  153.4829 C   0  0  1  0  0  0  0  0  0  0  0  0
  197.2628  181.5025  154.6193 C   0  0  0  0  0  0  0  0  0  0  0  0
  196.6381  181.3296  155.8717 C   0  0  0  0  0  0  0  0  0  0  0  0
  196.7937  182.2902  156.8905 C   0  0  0  0  0  0  0  0  0  0  0  0
  197.5751  183.4399  156.6557 C   0  0  0  0  0  0  0  0  0  0  0  0
  198.2479  183.5836  155.4276 C   0  0  0  0  0  0  0  0  0  0  0  0
  198.1253  182.6014  154.4253 C   0  0  0  0  0  0  0  0  0  0  0  0
  196.1073  182.0844  158.2233 C   0  0  1  0  0  0  0  0  0  0  0  0
  194.6787  182.4743  158.1388 N   0  0  1  0  0  0  0  0  0  0  0  0
  193.7746  181.3798  158.5304 C   0  0  2  0  0  0  0  0  0  0  0  0
  194.3773  183.7416  158.8485 C   0  0  2  0  0  0  0  0  0  0  0  0
  198.5080  176.5770  149.3701 C   0  0  0  0  0  0  0  0  0  0  0  0
  198.5532  176.2761  147.9965 C   0  0  0  0  0  0  0  0  0  0  0  0
  198.4259  177.3071  147.0481 C   0  0  0  0  0  0  0  0  0  0  0  0
  198.2427  178.6355  147.4705 C   0  0  0  0  0  0  0  0  0  0  0  0
  198.1088  184.3402  150.9597 C   0  0  0  0  0  0  0  0  0  0  0  0
  197.5406  184.5894  152.2204 C   0  0  0  0  0  0  0  0  0  0  0  0
  197.9008  185.7489  152.9399 C   0  0  0  0  0  0  0  0  0  0  0  0
  198.7610  186.7064  152.3680 C   0  0  0  0  0  0  0  0  0  0  0  0
  199.0798  187.8397  153.0622 O   0  0  0  0  0  0  0  0  0  0  0  0
  199.2839  186.5019  151.0763 C   0  0  0  0  0  0  0  0  0  0  0  0
  198.9612  185.3183  150.3799 C   0  0  0  0  0  0  0  0  0  0  0  0
  198.0524  182.0504  151.9562 H   0  0  0  0  0  0  0  0  0  0  0  0
  198.4237  177.4673  151.8971 H   0  0  0  0  0  0  0  0  0  0  0  0
  198.5276  179.1975  153.5198 H   0  0  0  0  0  0  0  0  0  0  0  0
  196.4182  181.0975  152.7244 H   0  0  0  0  0  0  0  0  0  0  0  0
  196.2807  179.7573  153.8165 H   0  0  0  0  0  0  0  0  0  0  0  0
  196.0057  180.4630  156.0459 H   0  0  0  0  0  0  0  0  0  0  0  0
  197.6734  184.2067  157.4148 H   0  0  0  0  0  0  0  0  0  0  0  0
  198.8546  184.4566  155.2543 H   0  0  0  0  0  0  0  0  0  0  0  0
  198.6698  182.7307  153.4835 H   0  0  0  0  0  0  0  0  0  0  0  0
  196.2336  181.0411  158.4987 H   0  0  0  0  0  0  0  0  0  0  0  0
  196.6353  182.6566  158.9936 H   0  0  0  0  0  0  0  0  0  0  0  0
  193.9526  181.0826  159.5653 H   0  0  0  0  0  0  0  0  0  0  0  0
  193.9314  180.5187  157.8887 H   0  0  0  0  0  0  0  0  0  0  0  0
  192.7415  181.6790  158.4093 H   0  0  0  0  0  0  0  0  0  0  0  0
  194.5905  183.6478  159.9141 H   0  0  0  0  0  0  0  0  0  0  0  0
  193.3282  184.0093  158.7390 H   0  0  0  0  0  0  0  0  0  0  0  0
  194.9704  184.5662  158.4569 H   0  0  0  0  0  0  0  0  0  0  0  0
  198.6022  175.7761  150.0905 H   0  0  0  0  0  0  0  0  0  0  0  0
  198.6819  175.2558  147.6658 H   0  0  0  0  0  0  0  0  0  0  0  0
  198.4636  177.0835  145.9934 H   0  0  0  0  0  0  0  0  0  0  0  0
  198.1479  179.4198  146.7363 H   0  0  0  0  0  0  0  0  0  0  0  0
  196.8287  183.8907  152.6717 H   0  0  0  0  0  0  0  0  0  0  0  0
  197.4888  185.9201  153.9247 H   0  0  0  0  0  0  0  0  0  0  0  0
  198.5245  187.9575  153.8250 H   0  0  0  0  0  0  0  0  0  0  0  0
  199.9359  187.2479  150.6314 H   0  0  0  0  0  0  0  0  0  0  0  0
  199.3973  185.1503  149.4012 H   0  0  0  0  0  0  0  0  0  0  0  0
  194.4683  182.6317  157.1504 H   0  0  0  0  0  0  0  0  0  0  0  0
  1  2  2  0
  2  3  1  0
  2 26  1  0
  3  4  1  0
  3 33  1  0
  4  5  2  0
  4  9  1  0
  5  6  1  0
  6  7  1  0
  6 25  2  0
  7  8  1  0
  7 22  2  0
  8  9  2  0
  8 34  1  0
  9 10  1  0
 10 11  1  0
 10 35  1  0
 11 12  1  0
 11 36  1  6
 11 37  1  0
 12 13  2  0
 12 17  1  0
 13 14  1  0
 13 38  1  0
 14 15  2  0
 14 18  1  0
 15 16  1  0
 15 39  1  0
 16 17  2  0
 16 40  1  0
 17 41  1  0
 18 19  1  0
 18 42  1  1
 18 43  1  0
 19 20  1  0
 19 21  1  0
 19 59  1  6
 20 44  1  1
 20 45  1  0
 20 46  1  0
 21 47  1  1
 21 48  1  0
 21 49  1  0
 22 23  1  0
 22 50  1  0
 23 24  2  0
 23 51  1  0
 24 25  1  0
 24 52  1  0
 25 53  1  0
 26 27  1  0
 26 32  2  0
 27 28  2  0
 27 54  1  0
 28 29  1  0
 28 55  1  0
 29 30  1  0
 29 31  2  0
 30 56  1  0
 31 32  1  0
 31 57  1  0
 32 58  1  0
M  CHG  1  19   1
M  END
>  <s_epik_cmdline>  (934) 
J2VwaWtfcHl0aG9uJywgJy1waCcsICc3LjAwMDAwMCcsICctcGh0JywgJzIuMDAwMDAwJywgJy1tcycsICcxNicsICctdG4nLCAnOCcsICctbWEnLCAnMjAwJywgJy1pbWFlJywgJzxpbmZpbGUubWFlPicsICctb21hZScsICc8b3V0ZmlsZS5tYWU+Jw==

>  <s_epik_input>  (934) 
W2NIXTFbY0hdYyhbT0hdKVtjSF1bY0hdYzFDKD1PKVtOSF1jKG4yKWMoW2NIXWMoYzIzKVtjSF1bY0hdW2NIXVtjSF0zKVtOSF1bQ0gyXWM0W2NIXWMoW2NIXVtjSF1bY0hdNClbQ0gyXU4oW0NIM10pW0NIM10=

>  <s_i_glide_gridfile>  (934) 
ATP-Grid

>  <s_lp_Force_Field>  (934) 
OPLS_2005

>  <s_lp_Variant>  (934) 
rxn502b____EMOL490868____EMOL44466703____EMOL2873214-1

>  <s_lp_label>  (934) 
2206_sdstereoexpander_1_neutralizer_1_epik_1_stereoizer_1

>  <s_m_source_file>  (934) 
ATP-VSW-LIGPREP-003-in.maegz

>  <s_sd_BIOSOLVEIT.INFINISEE\_QUERY\_NAME>  (934) 
Ref-Lig

>  <s_sd_BIOSOLVEIT.INFINISEE\_QUERY\_SMILES>  (934) 
S(c1nc2c(cc1C[NH2+]Cc3ccc(cc3)C[NH+](C)C)cccc2)Cc4ccccc4

>  <s_sd_BIOSOLVEIT.INFINISEE\_REACTION\_NAME>  (934) 
rxn502b

>  <s_sd_BIOSOLVEIT.INFINISEE\_REAGENT1\_NAME>  (934) 
EMOL490868

>  <s_sd_BIOSOLVEIT.INFINISEE\_REAGENT1\_SMILES>  (934) 
O=C(O)c1ccc(O)cc1

>  <s_sd_BIOSOLVEIT.INFINISEE\_REAGENT2\_NAME>  (934) 
EMOL44466703

>  <s_sd_BIOSOLVEIT.INFINISEE\_REAGENT2\_SMILES>  (934) 
Brc1c(nc2c(c1)cccc2)N

>  <s_sd_BIOSOLVEIT.INFINISEE\_REAGENT3\_NAME>  (934) 
EMOL2873214

>  <s_sd_BIOSOLVEIT.INFINISEE\_REAGENT3\_SMILES>  (934) 
N(Cc1cc(ccc1)CN)(C)C

>  <s_sd_BIOSOLVEIT.INFINISEE\_SPACE>  (934) 
eXplore_7tr_2022-12

>  <s_vsw_compound_code>  (934) 
70563

>  <s_vsw_variant>  (934) 
70563-1

>  <r_epik_Charging_Adjusted_Penalty>  (934) 
0.10719627352135

>  <r_epik_Ionization_Penalty>  (934) 
0.063100000000000003

>  <r_epik_Ionization_Penalty_Charging>  (934) 
0.0441

>  <r_epik_Ionization_Penalty_Neutral>  (934) 
0.019099999999999999

>  <r_epik_State_Penalty>  (934) 
0.063100000000000003

>  <r_i_docking_score>  (934) 
-4.4248137611179903

>  <r_i_glide_ecoul>  (934) 
-9.7697696685790998

>  <r_i_glide_eff_state_penalty>  (934) 
0.063100000000000003

>  <r_i_glide_einternal>  (934) 
7.7841835021972701

>  <r_i_glide_emodel>  (934) 
-57.318551010916501

>  <r_i_glide_energy>  (934) 
-43.827844619750998

>  <r_i_glide_erotb>  (934) 
0.76045252336906599

>  <r_i_glide_esite>  (934) 
-0.10000000000000001

>  <r_i_glide_evdw>  (934) 
-34.058074951171903

>  <r_i_glide_gscore>  (934) 
-4.4879137611179898

>  <r_i_glide_hbond>  (934) 
-0.207585629960157

>  <r_i_glide_ligand_efficiency>  (934) 
-0.138275430034937

>  <r_i_glide_ligand_efficiency_ln>  (934) 
-0.99083641698200697

>  <r_i_glide_ligand_efficiency_sa>  (934) 
-0.438997125690479

>  <r_i_glide_lipo>  (934) 
-1.21035474614125

>  <r_i_glide_metal>  (934) 
-0

>  <r_i_glide_rewards>  (934) 
-0.56205671054018702

>  <r_lp_Energy>  (934) 
25.335377000000001

>  <r_lp_tautomer_probability>  (934) 
0.999999999997365

>  <r_qp_ACxDN^.5/SA>  (934) 
0.0183573

>  <r_qp_CIQPlogS>  (934) 
-5.1429999999999998

>  <r_qp_EA(eV)>  (934) 
0.73799999999999999

>  <r_qp_FISA>  (934) 
101.27500000000001

>  <r_qp_FOSA>  (934) 
159.72900000000001

>  <r_qp_IP(eV)>  (934) 
8.4830000000000005

>  <r_qp_Jm>  (934) 
0.088616149907591396

>  <r_qp_PISA>  (934) 
423.04700000000003

>  <r_qp_PSA>  (934) 
77.448999999999998

>  <r_qp_PercentHumanOralAbsorption>  (934) 
92.064999999999998

>  <r_qp_QPPCaco>  (934) 
270.65199999999999

>  <r_qp_QPPMDCK>  (934) 
133.27000000000001

>  <r_qp_QPlogBB>  (934) 
-0.435

>  <r_qp_QPlogHERG>  (934) 
-6.5549999999999997

>  <r_qp_QPlogKhsa>  (934) 
0.46999999999999997

>  <r_qp_QPlogKp>  (934) 
-3.1899999999999999

>  <r_qp_QPlogPC16>  (934) 
14.99

>  <r_qp_QPlogPo/w>  (934) 
3.6859999999999999

>  <r_qp_QPlogPoct>  (934) 
24.370000000000001

>  <r_qp_QPlogPw>  (934) 
14.702

>  <r_qp_QPlogS>  (934) 
-3.492

>  <r_qp_QPpolrz>  (934) 
46.362000000000002

>  <r_qp_SASA>  (934) 
684.05200000000002

>  <r_qp_SAamideO>  (934) 
0

>  <r_qp_SAfluorine>  (934) 
0

>  <r_qp_WPSA>  (934) 
0

>  <r_qp_accptHB>  (934) 
7.25

>  <r_qp_dip^2/V>  (934) 
0.033486500000000002

>  <r_qp_dipole>  (934) 
6.6980000000000004

>  <r_qp_donorHB>  (934) 
3

>  <r_qp_glob>  (934) 
0.85914820000000003

>  <r_qp_mol_MW>  (934) 
426.517

>  <r_qp_volume>  (934) 
1339.6389999999999

>  <r_sd_BIOSOLVEIT.INFINISEE\_FTREES\_SIMILARITY>  (934) 
0.93100000000000005

>  <r_sd_BIOSOLVEIT.LOGP>  (934) 
3.4493

>  <r_sd_BIOSOLVEIT.MOLECULAR\_WEIGHT>  (934) 
427.52499999999998

>  <r_sd_BIOSOLVEIT.TPSA>  (934) 
78.689999999999998

>  <i_epik_Tot_Q>  (934) 
1

>  <i_epik_Tot_abs_Q>  (934) 
1

>  <i_f3d_flags>  (934) 
0

>  <i_i_glide_confnum>  (934) 
5

>  <i_i_glide_lignum>  (934) 
861

>  <i_i_glide_posenum>  (934) 
15

>  <i_i_glide_rotatable_bonds>  (934) 
9

>  <i_lp_mmshare_version>  (934) 
65135

>  <i_m_ct_format>  (934) 
2

>  <i_m_source_file_index>  (934) 
2206

>  <i_qp_#NandO>  (934) 
6

>  <i_qp_#acid>  (934) 
0

>  <i_qp_#amide>  (934) 
0

>  <i_qp_#amidine>  (934) 
0

>  <i_qp_#amine>  (934) 
1

>  <i_qp_#in34>  (934) 
0

>  <i_qp_#in56>  (934) 
22

>  <i_qp_#metab>  (934) 
6

>  <i_qp_#nonHatm>  (934) 
32

>  <i_qp_#noncon>  (934) 
0

>  <i_qp_#ringatoms>  (934) 
22

>  <i_qp_#rotor>  (934) 
8

>  <i_qp_#rtvFG>  (934) 
0

>  <i_qp_#stars>  (934) 
0

>  <i_qp_CNS>  (934) 
0

>  <i_qp_HumanOralAbsorption>  (934) 
3

>  <i_qp_RuleOfFive>  (934) 
0

>  <i_qp_RuleOfThree>  (934) 
0

>  <i_sd_BIOSOLVEIT.INFINISEE\_RESULT\_RANK>  (934) 
4186

>  <i_sd_version>  (934) 
0

>  <b_lp_Chiralities_Consistent>  (934) 
1

>  <b_sd_chiral_flag>  (934) 
0

>  <canonical_id>  (934) 
ATP-HTVS-9480C2297FB5

>  <compound_code>  (934) 
70563

>  <title>  (934) 
rxn502b____EMOL490868____EMOL44466703____EMOL2873214

>  <variant>  (934) 
70563-1

>  <source_file>  (934) 
运行/运行/ATP-VSW/ATP-VSW-DOCK_HTVS_1-003_lib/ATP-VSW-DOCK_HTVS_1-003_lib.mae

>  <canonical_smiles>  (934) 
C[NH+](C)Cc1cccc(CNc2cc3ccccc3nc2NC(=O)c2ccc(O)cc2)c1

>  <scaffold>  (934) 
O=C(Nc1nc2ccccc2cc1NCc1ccccc1)c1ccccc1

>  <molecular_formula>  (934) 
C26H27N4O2+

$$$$
ATP-HTVS-94941B52F5EC
     RDKit          3D

 65 68  0  0  0  0  0  0  0  0999 V2000
  198.2613  183.6694  159.2055 O   0  0  0  0  0  0  0  0  0  0  0  0
  196.9095  183.9404  159.2954 C   0  0  0  0  0  0  0  0  0  0  0  0
  195.9064  183.1130  158.7287 C   0  0  0  0  0  0  0  0  0  0  0  0
  194.5430  183.4224  158.9176 C   0  0  0  0  0  0  0  0  0  0  0  0
  194.1781  184.5322  159.7043 C   0  0  0  0  0  0  0  0  0  0  0  0
  195.1550  185.3594  160.2665 C   0  0  0  0  0  0  0  0  0  0  0  0
  194.7582  186.4977  161.0724 C   0  0  0  0  0  0  0  0  0  0  0  0
  194.4368  187.4038  161.7202 N   0  0  0  0  0  0  0  0  0  0  0  0
  196.5195  185.0620  160.0580 C   0  0  0  0  0  0  0  0  0  0  0  0
  196.2222  181.8084  158.0197 C   0  0  1  0  0  0  0  0  0  0  0  0
  196.5957  181.9928  156.6230 N   0  0  0  0  0  0  0  0  0  0  0  0
  197.5839  181.1773  156.0087 C   0  0  0  0  0  0  0  0  0  0  0  0
  198.4603  180.5353  156.8190 N   0  0  0  0  0  0  0  0  0  0  0  0
  199.4176  179.7733  156.2549 C   0  0  0  0  0  0  0  0  0  0  0  0
  199.4983  179.6461  154.8290 C   0  0  0  0  0  0  0  0  0  0  0  0
  198.6795  180.3487  154.0132 N   0  0  0  0  0  0  0  0  0  0  0  0
  197.6957  181.0798  154.6019 C   0  0  0  0  0  0  0  0  0  0  0  0
  196.7484  181.7078  153.7874 N   0  0  0  0  0  0  0  0  0  0  0  0
  196.4947  181.2523  152.4384 C   0  0  1  0  0  0  0  0  0  0  0  0
  196.2706  179.7146  152.3035 C   0  0  1  0  0  0  0  0  0  0  0  0
  196.7416  179.2515  150.9451 C   0  0  0  0  0  0  0  0  0  0  0  0
  197.9525  178.5340  150.8126 C   0  0  0  0  0  0  0  0  0  0  0  0
  198.3546  178.0582  149.5515 C   0  0  0  0  0  0  0  0  0  0  0  0
  197.5761  178.3284  148.4113 C   0  0  0  0  0  0  0  0  0  0  0  0
  196.3784  179.0823  148.5439 C   0  0  0  0  0  0  0  0  0  0  0  0
  195.9691  179.5290  149.8044 C   0  0  0  0  0  0  0  0  0  0  0  0
  198.0276  177.8719  147.0386 C   0  0  1  0  0  0  0  0  0  0  0  0
  198.7437  178.9134  146.3014 N   0  0  0  0  0  0  0  0  0  0  0  0
  200.0356  179.2099  146.9128 C   0  0  2  0  0  0  0  0  0  0  0  0
  198.9901  178.4475  144.9447 C   0  0  2  0  0  0  0  0  0  0  0  0
  200.3824  178.6876  154.2952 C   0  0  0  0  0  0  0  0  0  0  0  0
  201.2517  177.9239  155.1053 C   0  0  0  0  0  0  0  0  0  0  0  0
  201.2426  178.1367  156.4979 C   0  0  0  0  0  0  0  0  0  0  0  0
  200.3331  179.0482  157.0642 C   0  0  0  0  0  0  0  0  0  0  0  0
  198.8835  183.8948  157.9351 C   0  0  2  0  0  0  0  0  0  0  0  0
  193.7604  182.7835  158.5285 H   0  0  0  0  0  0  0  0  0  0  0  0
  193.1393  184.7564  159.8711 H   0  0  0  0  0  0  0  0  0  0  0  0
  197.3022  185.6400  160.5109 H   0  0  0  0  0  0  0  0  0  0  0  0
  196.9960  181.3029  158.5937 H   0  0  0  0  0  0  0  0  0  0  0  0
  195.3346  181.1578  158.0961 H   0  0  0  0  0  0  0  0  0  0  0  0
  195.9935  182.5704  156.0778 H   0  0  0  0  0  0  0  0  0  0  0  0
  196.0265  182.2560  154.2309 H   0  0  0  0  0  0  0  0  0  0  0  0
  195.6036  181.7773  152.0921 H   0  0  0  0  0  0  0  0  0  0  0  0
  197.3218  181.6335  151.8345 H   0  0  0  0  0  0  0  0  0  0  0  0
  196.7975  179.0935  153.0350 H   0  0  0  0  0  0  0  0  0  0  0  0
  195.2072  179.4832  152.4437 H   0  0  0  0  0  0  0  0  0  0  0  0
  198.5560  178.3271  151.6831 H   0  0  0  0  0  0  0  0  0  0  0  0
  199.2840  177.5079  149.4608 H   0  0  0  0  0  0  0  0  0  0  0  0
  195.7395  179.2318  147.6924 H   0  0  0  0  0  0  0  0  0  0  0  0
  195.0389  180.0669  149.9195 H   0  0  0  0  0  0  0  0  0  0  0  0
  198.6462  176.9759  147.1265 H   0  0  0  0  0  0  0  0  0  0  0  0
  197.1436  177.5787  146.4697 H   0  0  0  0  0  0  0  0  0  0  0  0
  200.5806  179.9540  146.3302 H   0  0  0  0  0  0  0  0  0  0  0  0
  200.6563  178.3152  146.9831 H   0  0  0  0  0  0  0  0  0  0  0  0
  199.9106  179.6196  147.9144 H   0  0  0  0  0  0  0  0  0  0  0  0
  199.5194  179.1958  144.3519 H   0  0  0  0  0  0  0  0  0  0  0  0
  198.0475  178.2383  144.4404 H   0  0  0  0  0  0  0  0  0  0  0  0
  199.5862  177.5338  144.9529 H   0  0  0  0  0  0  0  0  0  0  0  0
  200.3817  178.5187  153.2288 H   0  0  0  0  0  0  0  0  0  0  0  0
  201.9481  177.2241  154.6611 H   0  0  0  0  0  0  0  0  0  0  0  0
  201.9437  177.5867  157.1192 H   0  0  0  0  0  0  0  0  0  0  0  0
  200.3317  179.1706  158.1430 H   0  0  0  0  0  0  0  0  0  0  0  0
  199.9530  183.6283  158.0434 H   0  0  0  0  0  0  0  0  0  0  0  0
  198.8085  184.9639  157.6940 H   0  0  0  0  0  0  0  0  0  0  0  0
  198.4400  183.3347  157.1553 H   0  0  0  0  0  0  0  0  0  0  0  0
  1  2  1  0
  1 35  1  0
  2  3  2  0
  2  9  1  0
  3  4  1  0
  3 10  1  0
  4  5  2  0
  4 36  1  0
  5  6  1  0
  5 37  1  0
  6  7  1  0
  6  9  2  0
  7  8  3  0
  9 38  1  0
 10 11  1  0
 10 39  1  1
 10 40  1  0
 11 12  1  0
 11 41  1  0
 12 13  2  0
 12 17  1  0
 13 14  1  0
 14 15  1  0
 14 34  2  0
 15 16  1  0
 15 31  2  0
 16 17  2  0
 17 18  1  0
 18 19  1  0
 18 42  1  0
 19 20  1  0
 19 43  1  6
 19 44  1  0
 20 21  1  0
 20 45  1  1
 20 46  1  0
 21 22  1  0
 21 26  2  0
 22 23  2  0
 22 47  1  0
 23 24  1  0
 23 48  1  0
 24 25  2  0
 24 27  1  0
 25 26  1  0
 25 49  1  0
 26 50  1  0
 27 28  1  0
 27 51  1  1
 27 52  1  0
 28 29  1  0
 28 30  1  0
 29 53  1  6
 29 54  1  0
 29 55  1  0
 30 56  1  6
 30 57  1  0
 30 58  1  0
 31 32  1  0
 31 59  1  0
 32 33  2  0
 32 60  1  0
 33 34  1  0
 33 61  1  0
 34 62  1  0
 35 63  1  1
 35 64  1  0
 35 65  1  0
M  END
>  <s_epik_cmdline>  (935) 
J2VwaWtfcHl0aG9uJywgJy1waCcsICc3LjAwMDAwMCcsICctcGh0JywgJzIuMDAwMDAwJywgJy1tcycsICcxNicsICctdG4nLCAnOCcsICctbWEnLCAnMjAwJywgJy1pbWFlJywgJzxpbmZpbGUubWFlPicsICctb21hZScsICc8b3V0ZmlsZS5tYWU+Jw==

>  <s_epik_input>  (935) 
TiNDYyhbY0hdMSlbY0hdW2NIXWMoYzFPW0NIM10pW0NIMl1bTkhdYyhuMiljKG5jKGMyMylbY0hdW2NIXVtjSF1bY0hdMylbTkhdW0NIMl1bQ0gyXWM0W2NIXVtjSF1jKFtjSF1bY0hdNClbQ0gyXU4oW0NIM10pW0NIM10=

>  <s_i_glide_gridfile>  (935) 
ATP-Grid

>  <s_lp_Force_Field>  (935) 
OPLS_2005

>  <s_lp_Variant>  (935) 
m_282030aaa____21917492____23157418____21967972-2

>  <s_lp_label>  (935) 
1756_sdstereoexpander_1_neutralizer_1_epik_2_stereoizer_1

>  <s_m_source_file>  (935) 
ATP-VSW-LIGPREP-001-in.maegz

>  <s_sd_BIOSOLVEIT.INFINISEE\_QUERY\_NAME>  (935) 
Ref-Lig

>  <s_sd_BIOSOLVEIT.INFINISEE\_QUERY\_SMILES>  (935) 
S(c1nc2c(cc1C[NH2+]Cc3ccc(cc3)C[NH+](C)C)cccc2)Cc4ccccc4

>  <s_sd_BIOSOLVEIT.INFINISEE\_REACTION\_NAME>  (935) 
m_282030aaa

>  <s_sd_BIOSOLVEIT.INFINISEE\_REAGENT1\_SMILES>  (935) 
[R1*]NCc1c(OC)cc(C#N)cc1

>  <s_sd_BIOSOLVEIT.INFINISEE\_REAGENT2\_SMILES>  (935) 
[R1*]c1nc2c(nc1[R2*])cccc2

>  <s_sd_BIOSOLVEIT.INFINISEE\_REAGENT3\_SMILES>  (935) 
[R2*]NCCc1ccc(cc1)CN(C)C

>  <s_sd_BIOSOLVEIT.INFINISEE\_SPACE>  (935) 
REALSpace_44bn_2023-08

>  <s_vsw_compound_code>  (935) 
56161

>  <s_vsw_variant>  (935) 
56161-2

>  <r_epik_Charging_Adjusted_Penalty>  (935) 
1.6032092271001199

>  <r_epik_Ionization_Penalty>  (935) 
1.6035999999999999

>  <r_epik_Ionization_Penalty_Charging>  (935) 
0

>  <r_epik_Ionization_Penalty_Neutral>  (935) 
1.6035999999999999

>  <r_epik_State_Penalty>  (935) 
1.6032

>  <r_i_docking_score>  (935) 
-3.4326665105423699

>  <r_i_glide_ecoul>  (935) 
-4.6909933090209996

>  <r_i_glide_eff_state_penalty>  (935) 
1.6032

>  <r_i_glide_einternal>  (935) 
10.724830627441399

>  <r_i_glide_emodel>  (935) 
-56.362162562245402

>  <r_i_glide_energy>  (935) 
-46.3682317733765

>  <r_i_glide_erotb>  (935) 
0.74143507201458103

>  <r_i_glide_esite>  (935) 
-0.11605991055187199

>  <r_i_glide_evdw>  (935) 
-41.677238464355497

>  <r_i_glide_gscore>  (935) 
-5.0358665105423697

>  <r_i_glide_hbond>  (935) 
-0.0058275249921878004

>  <r_i_glide_ligand_efficiency>  (935) 
-0.098076186015496405

>  <r_i_glide_ligand_efficiency_ln>  (935) 
-0.75354648299257099

>  <r_i_glide_ligand_efficiency_sa>  (935) 
-0.32081370752687799

>  <r_i_glide_lipo>  (935) 
-2.2578687150666301

>  <r_i_glide_metal>  (935) 
-0

>  <r_i_glide_rewards>  (935) 
-0.61003451237534001

>  <r_lp_Energy>  (935) 
27.146823000000001

>  <r_qp_ACxDN^.5/SA>  (935) 
0.015753699999999999

>  <r_qp_CIQPlogS>  (935) 
-7.016

>  <r_qp_EA(eV)>  (935) 
0.76700000000000002

>  <r_qp_FISA>  (935) 
95.959999999999994

>  <r_qp_FOSA>  (935) 
293.71600000000001

>  <r_qp_IP(eV)>  (935) 
8.0950000000000006

>  <r_qp_Jm>  (935) 
0.060078080249870901

>  <r_qp_PISA>  (935) 
261.15899999999999

>  <r_qp_PSA>  (935) 
75.647999999999996

>  <r_qp_PercentHumanOralAbsorption>  (935) 
93.498999999999995

>  <r_qp_QPPCaco>  (935) 
303.95400000000001

>  <r_qp_QPPMDCK>  (935) 
151.08000000000001

>  <r_qp_QPlogBB>  (935) 
-0.47799999999999998

>  <r_qp_QPlogHERG>  (935) 
-5.0069999999999997

>  <r_qp_QPlogKhsa>  (935) 
0.441

>  <r_qp_QPlogKp>  (935) 
-3.375

>  <r_qp_QPlogPC16>  (935) 
13.702

>  <r_qp_QPlogPo/w>  (935) 
3.7770000000000001

>  <r_qp_QPlogPoct>  (935) 
21.437000000000001

>  <r_qp_QPlogPw>  (935) 
11.358000000000001

>  <r_qp_QPlogS>  (935) 
-3.516

>  <r_qp_QPpolrz>  (935) 
43.253

>  <r_qp_SASA>  (935) 
650.83500000000004

>  <r_qp_SAamideO>  (935) 
0

>  <r_qp_SAfluorine>  (935) 
0

>  <r_qp_WPSA>  (935) 
0

>  <r_qp_accptHB>  (935) 
7.25

>  <r_qp_dip^2/V>  (935) 
0.019908599999999999

>  <r_qp_dipole>  (935) 
5.1820000000000004

>  <r_qp_donorHB>  (935) 
2

>  <r_qp_glob>  (935) 
0.90707740000000003

>  <r_qp_mol_MW>  (935) 
466.58499999999998

>  <r_qp_volume>  (935) 
1348.73

>  <r_sd_BIOSOLVEIT.INFINISEE\_FTREES\_SIMILARITY>  (935) 
0.90400000000000003

>  <r_sd_BIOSOLVEIT.LOGP>  (935) 
3.4212799999999999

>  <r_sd_BIOSOLVEIT.MOLECULAR\_WEIGHT>  (935) 
467.59399999999999

>  <r_sd_BIOSOLVEIT.TPSA>  (935) 
87.299999999999997

>  <i_epik_Tot_Q>  (935) 
0

>  <i_epik_Tot_abs_Q>  (935) 
0

>  <i_f3d_flags>  (935) 
0

>  <i_i_glide_confnum>  (935) 
9

>  <i_i_glide_lignum>  (935) 
500

>  <i_i_glide_posenum>  (935) 
6

>  <i_i_glide_rotatable_bonds>  (935) 
10

>  <i_lp_mmshare_version>  (935) 
65135

>  <i_m_ct_format>  (935) 
2

>  <i_m_source_file_index>  (935) 
1756

>  <i_qp_#NandO>  (935) 
7

>  <i_qp_#acid>  (935) 
0

>  <i_qp_#amide>  (935) 
0

>  <i_qp_#amidine>  (935) 
0

>  <i_qp_#amine>  (935) 
1

>  <i_qp_#in34>  (935) 
0

>  <i_qp_#in56>  (935) 
22

>  <i_qp_#metab>  (935) 
5

>  <i_qp_#nonHatm>  (935) 
35

>  <i_qp_#noncon>  (935) 
0

>  <i_qp_#ringatoms>  (935) 
22

>  <i_qp_#rotor>  (935) 
11

>  <i_qp_#rtvFG>  (935) 
0

>  <i_qp_#stars>  (935) 
0

>  <i_qp_CNS>  (935) 
1

>  <i_qp_HumanOralAbsorption>  (935) 
3

>  <i_qp_RuleOfFive>  (935) 
0

>  <i_qp_RuleOfThree>  (935) 
0

>  <i_sd_BIOSOLVEIT.INFINISEE\_REAGENT1\_NAME>  (935) 
21917492

>  <i_sd_BIOSOLVEIT.INFINISEE\_REAGENT2\_NAME>  (935) 
23157418

>  <i_sd_BIOSOLVEIT.INFINISEE\_REAGENT3\_NAME>  (935) 
21967972

>  <i_sd_BIOSOLVEIT.INFINISEE\_RESULT\_RANK>  (935) 
75011

>  <i_sd_version>  (935) 
0

>  <b_lp_Chiralities_Consistent>  (935) 
1

>  <b_sd_chiral_flag>  (935) 
0

>  <canonical_id>  (935) 
ATP-HTVS-94941B52F5EC

>  <compound_code>  (935) 
56161

>  <title>  (935) 
m_282030aaa____21917492____23157418____21967972

>  <variant>  (935) 
56161-2

>  <source_file>  (935) 
运行/运行/ATP-VSW/ATP-VSW-DOCK_HTVS_1-001_lib/ATP-VSW-DOCK_HTVS_1-001_lib

>  <canonical_smiles>  (935) 
COc1cc(C#N)ccc1CNc1nc2ccccc2nc1NCCc1ccc(CN(C)C)cc1

>  <scaffold>  (935) 
c1ccc(CCNc2nc3ccccc3nc2NCc2ccccc2)cc1

>  <molecular_formula>  (935) 
C28H30N6O

$$$$
ATP-HTVS-94D8827D88B0
     RDKit          3D

 62 65  0  0  0  0  0  0  0  0999 V2000
  195.7793  179.8265  149.8406 O   0  0  0  0  0  0  0  0  0  0  0  0
  196.7747  179.7230  150.5426 C   0  0  0  0  0  0  0  0  0  0  0  0
  197.6818  178.7058  150.4152 N   0  0  0  0  0  0  0  0  0  0  0  0
  198.6521  178.3292  151.4711 C   0  0  1  0  0  0  0  0  0  0  0  0
  199.9189  179.1768  151.4444 C   0  0  0  0  0  0  0  0  0  0  0  0
  200.4802  179.6499  152.6497 C   0  0  0  0  0  0  0  0  0  0  0  0
  201.6715  180.4018  152.6349 C   0  0  0  0  0  0  0  0  0  0  0  0
  202.3042  180.6926  151.4083 C   0  0  0  0  0  0  0  0  0  0  0  0
  201.7331  180.2504  150.1973 C   0  0  0  0  0  0  0  0  0  0  0  0
  200.5424  179.5020  150.2178 C   0  0  0  0  0  0  0  0  0  0  0  0
  197.7282  177.8053  149.2309 C   0  0  1  0  0  0  0  0  0  0  0  0
  197.3823  178.4567  147.8599 C   0  0  2  0  0  0  0  0  0  0  0  0
  196.0209  178.2109  147.5526 O   0  0  0  0  0  0  0  0  0  0  0  0
  198.1667  177.8933  146.6625 C   0  0  1  0  0  0  0  0  0  0  0  0
  197.8303  178.6387  145.3599 C   0  0  2  0  0  0  0  0  0  0  0  0
  196.9929  180.7904  151.5765 C   0  0  0  0  0  0  0  0  0  0  0  0
  197.1992  182.1622  151.2466 C   0  0  0  0  0  0  0  0  0  0  0  0
  197.3786  183.0886  152.3152 C   0  0  0  0  0  0  0  0  0  0  0  0
  197.3889  182.6953  153.6073 N   0  0  0  0  0  0  0  0  0  0  0  0
  197.1363  181.4037  153.9041 C   0  0  0  0  0  0  0  0  0  0  0  0
  197.1370  180.9893  155.2357 N   0  0  0  0  0  0  0  0  0  0  0  0
  196.4626  181.8578  156.1784 C   0  0  1  0  0  0  0  0  0  0  0  0
  197.3853  182.5321  157.1684 C   0  0  0  0  0  0  0  0  0  0  0  0
  196.9266  182.7775  158.4753 C   0  0  0  0  0  0  0  0  0  0  0  0
  197.7562  183.4390  159.3997 C   0  0  0  0  0  0  0  0  0  0  0  0
  199.0494  183.8481  159.0217 C   0  0  0  0  0  0  0  0  0  0  0  0
  199.5100  183.6065  157.7133 C   0  0  0  0  0  0  0  0  0  0  0  0
  198.6795  182.9511  156.7871 C   0  0  0  0  0  0  0  0  0  0  0  0
  196.9005  180.4355  152.9371 C   0  0  0  0  0  0  0  0  0  0  0  0
  197.5397  184.4565  152.0188 C   0  0  0  0  0  0  0  0  0  0  0  0
  197.5495  184.9250  150.6913 C   0  0  0  0  0  0  0  0  0  0  0  0
  197.3995  184.0124  149.6329 C   0  0  0  0  0  0  0  0  0  0  0  0
  197.2321  182.6419  149.9038 C   0  0  0  0  0  0  0  0  0  0  0  0
  198.2277  178.3727  152.4684 H   0  0  0  0  0  0  0  0  0  0  0  0
  198.9400  177.2751  151.3572 H   0  0  0  0  0  0  0  0  0  0  0  0
  200.0011  179.4376  153.5953 H   0  0  0  0  0  0  0  0  0  0  0  0
  202.1091  180.7420  153.5654 H   0  0  0  0  0  0  0  0  0  0  0  0
  203.2285  181.2544  151.3931 H   0  0  0  0  0  0  0  0  0  0  0  0
  202.2131  180.4663  149.2482 H   0  0  0  0  0  0  0  0  0  0  0  0
  200.1271  179.1789  149.2785 H   0  0  0  0  0  0  0  0  0  0  0  0
  198.7470  177.4221  149.1546 H   0  0  0  0  0  0  0  0  0  0  0  0
  197.1433  176.9098  149.4050 H   0  0  0  0  0  0  0  0  0  0  0  0
  197.5919  179.5258  147.8954 H   0  0  0  0  0  0  0  0  0  0  0  0
  195.9176  177.2769  147.4253 H   0  0  0  0  0  0  0  0  0  0  0  0
  199.2379  177.9838  146.8476 H   0  0  0  0  0  0  0  0  0  0  0  0
  197.9595  176.8289  146.5450 H   0  0  0  0  0  0  0  0  0  0  0  0
  198.4114  178.2439  144.5321 H   0  0  0  0  0  0  0  0  0  0  0  0
  198.0479  179.7037  145.4480 H   0  0  0  0  0  0  0  0  0  0  0  0
  196.7755  178.5411  145.0992 H   0  0  0  0  0  0  0  0  0  0  0  0
  196.9946  180.0051  155.4078 H   0  0  0  0  0  0  0  0  0  0  0  0
  195.9471  182.6461  155.6415 H   0  0  0  0  0  0  0  0  0  0  0  0
  195.7034  181.2655  156.6917 H   0  0  0  0  0  0  0  0  0  0  0  0
  195.9413  182.4435  158.7696 H   0  0  0  0  0  0  0  0  0  0  0  0
  197.4068  183.6033  160.4070 H   0  0  0  0  0  0  0  0  0  0  0  0
  199.6907  184.3406  159.7355 H   0  0  0  0  0  0  0  0  0  0  0  0
  200.4984  183.9212  157.4156 H   0  0  0  0  0  0  0  0  0  0  0  0
  199.0385  182.7774  155.7829 H   0  0  0  0  0  0  0  0  0  0  0  0
  196.6400  179.4310  153.2466 H   0  0  0  0  0  0  0  0  0  0  0  0
  197.6471  185.1508  152.8392 H   0  0  0  0  0  0  0  0  0  0  0  0
  197.6832  185.9809  150.4987 H   0  0  0  0  0  0  0  0  0  0  0  0
  197.4180  184.3759  148.6130 H   0  0  0  0  0  0  0  0  0  0  0  0
  197.1254  181.9778  149.0580 H   0  0  0  0  0  0  0  0  0  0  0  0
  1  2  2  0
  2  3  1  0
  2 16  1  0
  3  4  1  0
  3 11  1  0
  4  5  1  0
  4 34  1  1
  4 35  1  0
  5  6  2  0
  5 10  1  0
  6  7  1  0
  6 36  1  0
  7  8  2  0
  7 37  1  0
  8  9  1  0
  8 38  1  0
  9 10  2  0
  9 39  1  0
 10 40  1  0
 11 12  1  0
 11 41  1  6
 11 42  1  0
 12 13  1  0
 12 14  1  0
 12 43  1  1
 13 44  1  0
 14 15  1  0
 14 45  1  1
 14 46  1  0
 15 47  1  6
 15 48  1  0
 15 49  1  0
 16 17  1  0
 16 29  2  0
 17 18  1  0
 17 33  2  0
 18 19  1  0
 18 30  2  0
 19 20  2  0
 20 21  1  0
 20 29  1  0
 21 22  1  0
 21 50  1  0
 22 23  1  0
 22 51  1  6
 22 52  1  0
 23 24  2  0
 23 28  1  0
 24 25  1  0
 24 53  1  0
 25 26  2  0
 25 54  1  0
 26 27  1  0
 26 55  1  0
 27 28  2  0
 27 56  1  0
 28 57  1  0
 29 58  1  0
 30 31  1  0
 30 59  1  0
 31 32  2  0
 31 60  1  0
 32 33  1  0
 32 61  1  0
 33 62  1  0
M  END
>  <s_epik_cmdline>  (936) 
J2VwaWtfcHl0aG9uJywgJy1waCcsICc3LjAwMDAwMCcsICctcGh0JywgJzIuMDAwMDAwJywgJy1tcycsICcxNicsICctdG4nLCAnOCcsICctbWEnLCAnMjAwJywgJy1pbWFlJywgJzxpbmZpbGUubWFlPicsICctb21hZScsICc8b3V0ZmlsZS5tYWU+Jw==

>  <s_epik_input>  (936) 
W2NIXTFbY0hdW2NIXVtjSF1bY0hdYzFbQ0gyXU4oW0NIMl1bQ0BIXShbT0hdKVtDSDJdW0NIM10pQyg9TyljMltjSF1jKG5jKGMyMylbY0hdW2NIXVtjSF1bY0hdMylbTkhdW0NIMl1jNFtjSF1bY0hdW2NIXVtjSF1bY0hdNA==

>  <s_i_glide_gridfile>  (936) 
ATP-Grid

>  <s_lp_Force_Field>  (936) 
OPLS_2005

>  <s_lp_Variant>  (936) 
m_527bcb____7557140____4971430-1

>  <s_lp_label>  (936) 
1604_sdstereoexpander_1_neutralizer_1_epik_1_stereoizer_1

>  <s_m_source_file>  (936) 
ATP-VSW-LIGPREP-003-in.maegz

>  <s_sd_BIOSOLVEIT.INFINISEE\_QUERY\_NAME>  (936) 
Ref-Lig

>  <s_sd_BIOSOLVEIT.INFINISEE\_QUERY\_SMILES>  (936) 
S(c1nc2c(cc1C[NH2+]Cc3ccc(cc3)C[NH+](C)C)cccc2)Cc4ccccc4

>  <s_sd_BIOSOLVEIT.INFINISEE\_REACTION\_NAME>  (936) 
m_527bcb

>  <s_sd_BIOSOLVEIT.INFINISEE\_REAGENT1\_SMILES>  (936) 
[R1*]N(Cc1ccccc1)CC(O)CC

>  <s_sd_BIOSOLVEIT.INFINISEE\_REAGENT2\_SMILES>  (936) 
[R1*]C(=O)c1c2c(nc(NCc3ccccc3)c1)cccc2

>  <s_sd_BIOSOLVEIT.INFINISEE\_SPACE>  (936) 
REALSpace_44bn_2023-08

>  <s_vsw_compound_code>  (936) 
51299

>  <s_vsw_variant>  (936) 
51299-1

>  <r_epik_Charging_Adjusted_Penalty>  (936) 
0

>  <r_epik_Ionization_Penalty>  (936) 
0.00020000000000000001

>  <r_epik_Ionization_Penalty_Charging>  (936) 
0

>  <r_epik_Ionization_Penalty_Neutral>  (936) 
0.00020000000000000001

>  <r_epik_State_Penalty>  (936) 
-0

>  <r_i_docking_score>  (936) 
-3.23224548519724

>  <r_i_glide_ecoul>  (936) 
-2.9747557640075701

>  <r_i_glide_eff_state_penalty>  (936) 
-0

>  <r_i_glide_einternal>  (936) 
6.8973021507263201

>  <r_i_glide_emodel>  (936) 
-43.441706814992997

>  <r_i_glide_energy>  (936) 
-38.439473628997803

>  <r_i_glide_erotb>  (936) 
0.82645329093837805

>  <r_i_glide_esite>  (936) 
-0.052964311836973497

>  <r_i_glide_evdw>  (936) 
-35.464717864990199

>  <r_i_glide_gscore>  (936) 
-3.23224548519724

>  <r_i_glide_hbond>  (936) 
0

>  <r_i_glide_ligand_efficiency>  (936) 
-0.097946832884764801

>  <r_i_glide_ligand_efficiency_ln>  (936) 
-0.71883466023641696

>  <r_i_glide_ligand_efficiency_sa>  (936) 
-0.314167828626084

>  <r_i_glide_lipo>  (936) 
-1.1585302172751

>  <r_i_glide_metal>  (936) 
-0

>  <r_i_glide_rewards>  (936) 
-0.62775498917289196

>  <r_lp_Energy>  (936) 
31.533757999999999

>  <r_lp_tautomer_probability>  (936) 
1

>  <r_qp_ACxDN^.5/SA>  (936) 
0.012665900000000001

>  <r_qp_CIQPlogS>  (936) 
-6.9279999999999999

>  <r_qp_EA(eV)>  (936) 
0.98799999999999999

>  <r_qp_FISA>  (936) 
84.701999999999998

>  <r_qp_FOSA>  (936) 
153.12100000000001

>  <r_qp_IP(eV)>  (936) 
8.5489999999999995

>  <r_qp_Jm>  (936) 
1.5823505170074701

>  <r_qp_PISA>  (936) 
454.43700000000001

>  <r_qp_PSA>  (936) 
66.200000000000003

>  <r_qp_PercentHumanOralAbsorption>  (936) 
100

>  <r_qp_QPPCaco>  (936) 
1558.3679999999999

>  <r_qp_QPPMDCK>  (936) 
799.10400000000004

>  <r_qp_QPlogBB>  (936) 
-0.81399999999999995

>  <r_qp_QPlogHERG>  (936) 
-6.0659999999999998

>  <r_qp_QPlogKhsa>  (936) 
0.63600000000000001

>  <r_qp_QPlogKp>  (936) 
-0.52000000000000002

>  <r_qp_QPlogPC16>  (936) 
14.967000000000001

>  <r_qp_QPlogPo/w>  (936) 
4.9969999999999999

>  <r_qp_QPlogPoct>  (936) 
21.858000000000001

>  <r_qp_QPlogPw>  (936) 
11.882999999999999

>  <r_qp_QPlogS>  (936) 
-4.9240000000000004

>  <r_qp_QPpolrz>  (936) 
45.828000000000003

>  <r_qp_SASA>  (936) 
692.25999999999999

>  <r_qp_SAamideO>  (936) 
0

>  <r_qp_SAfluorine>  (936) 
0

>  <r_qp_WPSA>  (936) 
0

>  <r_qp_accptHB>  (936) 
6.2000000000000002

>  <r_qp_dip^2/V>  (936) 
0.019624800000000001

>  <r_qp_dipole>  (936) 
5.149

>  <r_qp_donorHB>  (936) 
2

>  <r_qp_glob>  (936) 
0.85371660000000005

>  <r_qp_mol_MW>  (936) 
439.55599999999998

>  <r_qp_volume>  (936) 
1350.912

>  <r_sd_BIOSOLVEIT.INFINISEE\_FTREES\_SIMILARITY>  (936) 
0.90600000000000003

>  <r_sd_BIOSOLVEIT.LOGP>  (936) 
5.2602000000000002

>  <r_sd_BIOSOLVEIT.MOLECULAR\_WEIGHT>  (936) 
439.55599999999998

>  <r_sd_BIOSOLVEIT.TPSA>  (936) 
65.459999999999994

>  <i_epik_Tot_Q>  (936) 
0

>  <i_epik_Tot_abs_Q>  (936) 
0

>  <i_f3d_flags>  (936) 
0

>  <i_i_glide_confnum>  (936) 
9

>  <i_i_glide_lignum>  (936) 
610

>  <i_i_glide_posenum>  (936) 
14

>  <i_i_glide_rotatable_bonds>  (936) 
11

>  <i_lp_mmshare_version>  (936) 
65135

>  <i_m_ct_format>  (936) 
2

>  <i_m_source_file_index>  (936) 
1604

>  <i_qp_#NandO>  (936) 
5

>  <i_qp_#acid>  (936) 
0

>  <i_qp_#amide>  (936) 
0

>  <i_qp_#amidine>  (936) 
0

>  <i_qp_#amine>  (936) 
0

>  <i_qp_#in34>  (936) 
0

>  <i_qp_#in56>  (936) 
22

>  <i_qp_#metab>  (936) 
3

>  <i_qp_#nonHatm>  (936) 
33

>  <i_qp_#noncon>  (936) 
0

>  <i_qp_#ringatoms>  (936) 
22

>  <i_qp_#rotor>  (936) 
10

>  <i_qp_#rtvFG>  (936) 
0

>  <i_qp_#stars>  (936) 
1

>  <i_qp_CNS>  (936) 
-1

>  <i_qp_HumanOralAbsorption>  (936) 
3

>  <i_qp_RuleOfFive>  (936) 
0

>  <i_qp_RuleOfThree>  (936) 
0

>  <i_sd_BIOSOLVEIT.INFINISEE\_REAGENT1\_NAME>  (936) 
7557140

>  <i_sd_BIOSOLVEIT.INFINISEE\_REAGENT2\_NAME>  (936) 
4971430

>  <i_sd_BIOSOLVEIT.INFINISEE\_RESULT\_RANK>  (936) 
66126

>  <i_sd_version>  (936) 
0

>  <b_lp_Chiralities_Consistent>  (936) 
1

>  <b_sd_chiral_flag>  (936) 
0

>  <canonical_id>  (936) 
ATP-HTVS-94D8827D88B0

>  <compound_code>  (936) 
51299

>  <title>  (936) 
m_527bcb____7557140____4971430

>  <variant>  (936) 
51299-1

>  <source_file>  (936) 
运行/运行/ATP-VSW/ATP-VSW-DOCK_HTVS_1-003_lib/ATP-VSW-DOCK_HTVS_1-003_lib.mae

>  <canonical_smiles>  (936) 
CC[C@@H](O)CN(Cc1ccccc1)C(=O)c1cc(NCc2ccccc2)nc2ccccc12

>  <scaffold>  (936) 
O=C(NCc1ccccc1)c1cc(NCc2ccccc2)nc2ccccc12

>  <molecular_formula>  (936) 
C28H29N3O2

$$$$
ATP-HTVS-94FDA1BF8648
     RDKit          3D

 51 54  0  0  0  0  0  0  0  0999 V2000
  196.0503  183.0497  150.9434 Cl  0  0  0  0  0  0  0  0  0  0  0  0
  197.3063  184.0393  150.2637 C   0  0  0  0  0  0  0  0  0  0  0  0
  198.1206  184.8631  151.0839 C   0  0  0  0  0  0  0  0  0  0  0  0
  198.0042  184.7171  152.4549 O   0  0  0  0  0  0  0  0  0  0  0  0
  198.6568  185.6582  153.3105 C   0  0  1  0  0  0  0  0  0  0  0  0
  198.6452  185.1425  154.7500 C   0  0  0  0  0  0  0  0  0  0  0  0
  199.6686  185.1920  155.4379 O   0  0  0  0  0  0  0  0  0  0  0  0
  197.4755  184.6717  155.2018 N   0  0  0  0  0  0  0  0  0  0  0  0
  197.2464  184.2088  156.5239 C   0  0  0  0  0  0  0  0  0  0  0  0
  197.2557  182.8234  156.8156 C   0  0  0  0  0  0  0  0  0  0  0  0
  197.4828  181.8131  155.8376 N   0  0  0  0  0  0  0  0  0  0  0  0
  198.4065  180.7493  155.9578 C   0  0  0  0  0  0  0  0  0  0  0  0
  198.2381  179.5019  155.2979 C   0  0  0  0  0  0  0  0  0  0  0  0
  199.2912  178.5481  155.3021 C   0  0  0  0  0  0  0  0  0  0  0  0
  200.4672  178.7652  156.0499 C   0  0  0  0  0  0  0  0  0  0  0  0
  200.5989  179.9596  156.7823 C   0  0  0  0  0  0  0  0  0  0  0  0
  199.6025  180.9510  156.7131 C   0  0  0  0  0  0  0  0  0  0  0  0
  196.4194  181.7283  154.8277 C   0  0  1  0  0  0  0  0  0  0  0  0
  196.8562  181.1616  153.5516 C   0  0  0  0  0  0  0  0  0  0  0  0
  197.1588  180.7498  152.5153 N   0  0  0  0  0  0  0  0  0  0  0  0
  196.9971  182.4484  158.1536 C   0  0  0  0  0  0  0  0  0  0  0  0
  196.7740  183.3324  159.1517 N   0  0  0  0  0  0  0  0  0  0  0  0
  196.7542  184.6488  158.8759 C   0  0  0  0  0  0  0  0  0  0  0  0
  196.9862  185.1528  157.5642 C   0  0  0  0  0  0  0  0  0  0  0  0
  196.9356  186.5415  157.3229 C   0  0  0  0  0  0  0  0  0  0  0  0
  196.6609  187.4443  158.3685 C   0  0  0  0  0  0  0  0  0  0  0  0
  196.4314  186.9557  159.6660 C   0  0  0  0  0  0  0  0  0  0  0  0
  196.4805  185.5711  159.9112 C   0  0  0  0  0  0  0  0  0  0  0  0
  199.0029  185.7836  150.4577 C   0  0  0  0  0  0  0  0  0  0  0  0
  199.0930  185.8343  149.0458 C   0  0  0  0  0  0  0  0  0  0  0  0
  198.3259  184.9606  148.2430 C   0  0  0  0  0  0  0  0  0  0  0  0
  197.4552  184.0509  148.8650 C   0  0  0  0  0  0  0  0  0  0  0  0
  199.7024  185.8336  153.0528 H   0  0  0  0  0  0  0  0  0  0  0  0
  198.1193  186.6053  153.2704 H   0  0  0  0  0  0  0  0  0  0  0  0
  196.7032  184.6168  154.5546 H   0  0  0  0  0  0  0  0  0  0  0  0
  197.3200  179.2649  154.7563 H   0  0  0  0  0  0  0  0  0  0  0  0
  199.1906  177.6505  154.7152 H   0  0  0  0  0  0  0  0  0  0  0  0
  201.2475  178.0163  156.0769 H   0  0  0  0  0  0  0  0  0  0  0  0
  201.4668  180.1226  157.4004 H   0  0  0  0  0  0  0  0  0  0  0  0
  199.7340  181.8839  157.2467 H   0  0  0  0  0  0  0  0  0  0  0  0
  195.5894  181.1476  155.2267 H   0  0  0  0  0  0  0  0  0  0  0  0
  196.0284  182.7088  154.5991 H   0  0  0  0  0  0  0  0  0  0  0  0
  196.9897  181.4105  158.4379 H   0  0  0  0  0  0  0  0  0  0  0  0
  197.0933  186.9449  156.3341 H   0  0  0  0  0  0  0  0  0  0  0  0
  196.6247  188.5054  158.1677 H   0  0  0  0  0  0  0  0  0  0  0  0
  196.2219  187.6534  160.4669 H   0  0  0  0  0  0  0  0  0  0  0  0
  196.2969  185.2022  160.9102 H   0  0  0  0  0  0  0  0  0  0  0  0
  199.5995  186.4914  151.0235 H   0  0  0  0  0  0  0  0  0  0  0  0
  199.7256  186.5819  148.5764 H   0  0  0  0  0  0  0  0  0  0  0  0
  198.3646  185.0230  147.1581 H   0  0  0  0  0  0  0  0  0  0  0  0
  196.8562  183.3840  148.2688 H   0  0  0  0  0  0  0  0  0  0  0  0
  1  2  1  0
  2  3  1  0
  2 32  2  0
  3  4  1  0
  3 29  2  0
  4  5  1  0
  5  6  1  0
  5 33  1  6
  5 34  1  0
  6  7  2  0
  6  8  1  0
  8  9  1  0
  8 35  1  0
  9 10  2  0
  9 24  1  0
 10 11  1  0
 10 21  1  0
 11 12  1  0
 11 18  1  0
 12 13  2  0
 12 17  1  0
 13 14  1  0
 13 36  1  0
 14 15  2  0
 14 37  1  0
 15 16  1  0
 15 38  1  0
 16 17  2  0
 16 39  1  0
 17 40  1  0
 18 19  1  0
 18 41  1  1
 18 42  1  0
 19 20  3  0
 21 22  2  0
 21 43  1  0
 22 23  1  0
 23 24  1  0
 23 28  2  0
 24 25  2  0
 25 26  1  0
 25 44  1  0
 26 27  2  0
 26 45  1  0
 27 28  1  0
 27 46  1  0
 28 47  1  0
 29 30  1  0
 29 48  1  0
 30 31  2  0
 30 49  1  0
 31 32  1  0
 31 50  1  0
 32 51  1  0
M  END
>  <s_epik_cmdline>  (937) 
J2VwaWtfcHl0aG9uJywgJy1waCcsICc3LjAwMDAwMCcsICctcGh0JywgJzIuMDAwMDAwJywgJy1tcycsICcxNicsICctdG4nLCAnOCcsICctbWEnLCAnMjAwJywgJy1pbWFlJywgJzxpbmZpbGUubWFlPicsICctb21hZScsICc8b3V0ZmlsZS5tYWU+Jw==

>  <s_epik_input>  (937) 
W2NIXTFbY0hdW2NIXVtjSF1jKGMxQ2wpT1tDSDJdQyg9TylbTkhdYyhjKGMyMylbY0hdW2NIXVtjSF1bY0hdMyljKFtjSF1uMilOKFtDSDJdQyNOKWM0W2NIXVtjSF1bY0hdW2NIXVtjSF00

>  <s_i_glide_gridfile>  (937) 
ATP-Grid

>  <s_lp_Force_Field>  (937) 
OPLS_2005

>  <s_lp_Variant>  (937) 
rxn502b____EMOL15318088____EMOL13728749____EMOL712348-1

>  <s_lp_label>  (937) 
2967_sdstereoexpander_1_neutralizer_1_epik_1_stereoizer_1

>  <s_m_source_file>  (937) 
ATP-VSW-LIGPREP-002-in.maegz

>  <s_sd_BIOSOLVEIT.INFINISEE\_QUERY\_NAME>  (937) 
Ref-Lig

>  <s_sd_BIOSOLVEIT.INFINISEE\_QUERY\_SMILES>  (937) 
S(c1nc2c(cc1C[NH2+]Cc3ccc(cc3)C[NH+](C)C)cccc2)Cc4ccccc4

>  <s_sd_BIOSOLVEIT.INFINISEE\_REACTION\_NAME>  (937) 
rxn502b

>  <s_sd_BIOSOLVEIT.INFINISEE\_REAGENT1\_NAME>  (937) 
EMOL15318088

>  <s_sd_BIOSOLVEIT.INFINISEE\_REAGENT1\_SMILES>  (937) 
Clc1c(OCC(Cl)=O)cccc1

>  <s_sd_BIOSOLVEIT.INFINISEE\_REAGENT2\_NAME>  (937) 
EMOL13728749

>  <s_sd_BIOSOLVEIT.INFINISEE\_REAGENT2\_SMILES>  (937) 
Brc1c(N)c2c(nc1)cccc2

>  <s_sd_BIOSOLVEIT.INFINISEE\_REAGENT3\_NAME>  (937) 
EMOL712348

>  <s_sd_BIOSOLVEIT.INFINISEE\_REAGENT3\_SMILES>  (937) 
N#CCNc1ccccc1

>  <s_sd_BIOSOLVEIT.INFINISEE\_SPACE>  (937) 
eXplore_7tr_2022-12

>  <s_vsw_compound_code>  (937) 
94914

>  <s_vsw_variant>  (937) 
94914-1

>  <r_epik_Charging_Adjusted_Penalty>  (937) 
0.00184577717228129

>  <r_epik_Ionization_Penalty>  (937) 
0.0018

>  <r_epik_Ionization_Penalty_Charging>  (937) 
0

>  <r_epik_Ionization_Penalty_Neutral>  (937) 
0.0018

>  <r_epik_State_Penalty>  (937) 
0.0018

>  <r_i_docking_score>  (937) 
-3.6185723026168701

>  <r_i_glide_ecoul>  (937) 
-0.75452911853790305

>  <r_i_glide_eff_state_penalty>  (937) 
0.0018

>  <r_i_glide_einternal>  (937) 
3.0996410846710201

>  <r_i_glide_emodel>  (937) 
-45.974324099020698

>  <r_i_glide_energy>  (937) 
-38.324174046516397

>  <r_i_glide_erotb>  (937) 
0.61136104090413101

>  <r_i_glide_esite>  (937) 
-0.056962240057224799

>  <r_i_glide_evdw>  (937) 
-37.569644927978501

>  <r_i_glide_gscore>  (937) 
-3.6203723026168699

>  <r_i_glide_hbond>  (937) 
0

>  <r_i_glide_ligand_efficiency>  (937) 
-0.113080384456777

>  <r_i_glide_ligand_efficiency_ln>  (937) 
-0.81029697711148896

>  <r_i_glide_ligand_efficiency_sa>  (937) 
-0.35900784207257103

>  <r_i_glide_lipo>  (937) 
-1.77519547509844

>  <r_i_glide_metal>  (937) 
-0

>  <r_i_glide_rewards>  (937) 
-0.40791401418572099

>  <r_lp_Energy>  (937) 
38.999659000000001

>  <r_lp_tautomer_probability>  (937) 
1

>  <r_qp_ACxDN^.5/SA>  (937) 
0.0088010999999999992

>  <r_qp_CIQPlogS>  (937) 
-8.0389999999999997

>  <r_qp_EA(eV)>  (937) 
1.409

>  <r_qp_FISA>  (937) 
110.30500000000001

>  <r_qp_FOSA>  (937) 
43.826000000000001

>  <r_qp_IP(eV)>  (937) 
8.375

>  <r_qp_Jm>  (937) 
0.0083752136027642407

>  <r_qp_PISA>  (937) 
515.40099999999995

>  <r_qp_PSA>  (937) 
79.168999999999997

>  <r_qp_PercentHumanOralAbsorption>  (937) 
100

>  <r_qp_QPPCaco>  (937) 
891.005

>  <r_qp_QPPMDCK>  (937) 
728.81899999999996

>  <r_qp_QPlogBB>  (937) 
-0.91800000000000004

>  <r_qp_QPlogHERG>  (937) 
-6.9370000000000003

>  <r_qp_QPlogKhsa>  (937) 
0.624

>  <r_qp_QPlogKp>  (937) 
-0.96899999999999997

>  <r_qp_QPlogPC16>  (937) 
15.371

>  <r_qp_QPlogPo/w>  (937) 
4.9240000000000004

>  <r_qp_QPlogPoct>  (937) 
21.858000000000001

>  <r_qp_QPlogPw>  (937) 
11.555

>  <r_qp_QPlogS>  (937) 
-6.7549999999999999

>  <r_qp_QPpolrz>  (937) 
46.304000000000002

>  <r_qp_SASA>  (937) 
710.13800000000003

>  <r_qp_SAamideO>  (937) 
0

>  <r_qp_SAfluorine>  (937) 
0

>  <r_qp_WPSA>  (937) 
40.606999999999999

>  <r_qp_accptHB>  (937) 
6.25

>  <r_qp_dip^2/V>  (937) 
0.087453000000000003

>  <r_qp_dipole>  (937) 
10.728999999999999

>  <r_qp_donorHB>  (937) 
1

>  <r_qp_glob>  (937) 
0.81789319999999999

>  <r_qp_mol_MW>  (937) 
442.904

>  <r_qp_volume>  (937) 
1316.1690000000001

>  <r_sd_BIOSOLVEIT.INFINISEE\_FTREES\_SIMILARITY>  (937) 
0.90300000000000002

>  <r_sd_BIOSOLVEIT.LOGP>  (937) 
5.56738

>  <r_sd_BIOSOLVEIT.MOLECULAR\_WEIGHT>  (937) 
442.904

>  <r_sd_BIOSOLVEIT.TPSA>  (937) 
78.25

>  <i_epik_Tot_Q>  (937) 
0

>  <i_epik_Tot_abs_Q>  (937) 
0

>  <i_f3d_flags>  (937) 
0

>  <i_i_glide_confnum>  (937) 
2

>  <i_i_glide_lignum>  (937) 
23

>  <i_i_glide_posenum>  (937) 
8

>  <i_i_glide_rotatable_bonds>  (937) 
8

>  <i_lp_mmshare_version>  (937) 
65135

>  <i_m_ct_format>  (937) 
2

>  <i_m_source_file_index>  (937) 
2967

>  <i_qp_#NandO>  (937) 
6

>  <i_qp_#acid>  (937) 
0

>  <i_qp_#amide>  (937) 
0

>  <i_qp_#amidine>  (937) 
0

>  <i_qp_#amine>  (937) 
0

>  <i_qp_#in34>  (937) 
0

>  <i_qp_#in56>  (937) 
22

>  <i_qp_#metab>  (937) 
6

>  <i_qp_#nonHatm>  (937) 
32

>  <i_qp_#noncon>  (937) 
0

>  <i_qp_#ringatoms>  (937) 
22

>  <i_qp_#rotor>  (937) 
8

>  <i_qp_#rtvFG>  (937) 
0

>  <i_qp_#stars>  (937) 
2

>  <i_qp_CNS>  (937) 
-1

>  <i_qp_HumanOralAbsorption>  (937) 
1

>  <i_qp_RuleOfFive>  (937) 
0

>  <i_qp_RuleOfThree>  (937) 
1

>  <i_sd_BIOSOLVEIT.INFINISEE\_RESULT\_RANK>  (937) 
82193

>  <i_sd_version>  (937) 
0

>  <b_lp_Chiralities_Consistent>  (937) 
1

>  <b_sd_chiral_flag>  (937) 
0

>  <canonical_id>  (937) 
ATP-HTVS-94FDA1BF8648

>  <compound_code>  (937) 
94914

>  <title>  (937) 
rxn502b____EMOL15318088____EMOL13728749____EMOL712348

>  <variant>  (937) 
94914-1

>  <source_file>  (937) 
运行/运行/ATP-VSW/ATP-VSW-DOCK_HTVS_1-003_lib/ATP-VSW-DOCK_HTVS_1-003_lib.mae

>  <canonical_smiles>  (937) 
N#CCN(c1ccccc1)c1cnc2ccccc2c1NC(=O)COc1ccccc1Cl

>  <scaffold>  (937) 
O=C(COc1ccccc1)Nc1c(Nc2ccccc2)cnc2ccccc12

>  <molecular_formula>  (937) 
C25H19ClN4O2

$$$$
ATP-HTVS-9505CBC4E7EE
     RDKit          3D

 64 68  0  0  0  0  0  0  0  0999 V2000
  197.2422  183.8859  149.0388 O   0  0  0  0  0  0  0  0  0  0  0  0
  198.2548  184.5885  149.6088 C   0  0  0  0  0  0  0  0  0  0  0  0
  198.9267  185.2958  148.6311 C   0  0  0  0  0  0  0  0  0  0  0  0
  198.3504  185.0719  147.4250 O   0  0  0  0  0  0  0  0  0  0  0  0
  197.2971  184.1812  147.6655 C   0  0  1  0  0  0  0  0  0  0  0  0
  200.0306  186.1083  148.9277 C   0  0  0  0  0  0  0  0  0  0  0  0
  200.4426  186.1834  150.2758 C   0  0  0  0  0  0  0  0  0  0  0  0
  199.7581  185.4594  151.2825 C   0  0  0  0  0  0  0  0  0  0  0  0
  198.6409  184.6484  150.9605 C   0  0  0  0  0  0  0  0  0  0  0  0
  197.9050  183.8431  152.0204 C   0  0  1  0  0  0  0  0  0  0  0  0
  197.7168  184.5514  153.2796 N   0  0  0  0  0  0  0  0  0  0  0  0
  197.4264  183.9320  154.4865 C   0  0  0  0  0  0  0  0  0  0  0  0
  197.2457  182.6097  154.5387 N   0  0  0  0  0  0  0  0  0  0  0  0
  196.9498  182.0182  155.7197 C   0  0  0  0  0  0  0  0  0  0  0  0
  196.7414  180.6381  155.7296 N   0  0  0  0  0  0  0  0  0  0  0  0
  197.6098  179.7551  154.9621 C   0  0  1  0  0  0  0  0  0  0  0  0
  198.9955  179.6018  155.6095 C   0  0  1  0  0  0  0  0  0  0  0  0
  199.8140  178.4607  155.0199 C   0  0  0  0  0  0  0  0  0  0  0  0
  200.5149  178.6516  153.8071 C   0  0  0  0  0  0  0  0  0  0  0  0
  201.3419  177.6354  153.3008 C   0  0  0  0  0  0  0  0  0  0  0  0
  201.4399  176.3979  153.9627 C   0  0  0  0  0  0  0  0  0  0  0  0
  200.7343  176.2060  155.1746 C   0  0  0  0  0  0  0  0  0  0  0  0
  199.9280  177.2333  155.7085 C   0  0  0  0  0  0  0  0  0  0  0  0
  202.2485  175.2550  153.3460 C   0  0  1  0  0  0  0  0  0  0  0  0
  201.7552  174.7462  152.0571 N   0  0  0  0  0  0  0  0  0  0  0  0
  200.4090  174.1995  152.1847 C   0  0  2  0  0  0  0  0  0  0  0  0
  201.7748  175.7375  150.9861 C   0  0  2  0  0  0  0  0  0  0  0  0
  196.8776  182.7854  156.8972 C   0  0  0  0  0  0  0  0  0  0  0  0
  197.1098  184.1696  156.7805 C   0  0  0  0  0  0  0  0  0  0  0  0
  197.3718  184.7185  155.5702 N   0  0  0  0  0  0  0  0  0  0  0  0
  197.0552  185.0106  157.9144 C   0  0  0  0  0  0  0  0  0  0  0  0
  196.7738  184.4506  159.1767 C   0  0  0  0  0  0  0  0  0  0  0  0
  196.5470  183.0695  159.2987 C   0  0  0  0  0  0  0  0  0  0  0  0
  196.5943  182.2327  158.1695 C   0  0  0  0  0  0  0  0  0  0  0  0
  197.4662  183.2715  147.0913 H   0  0  0  0  0  0  0  0  0  0  0  0
  196.3598  184.6364  147.3516 H   0  0  0  0  0  0  0  0  0  0  0  0
  200.5385  186.6633  148.1519 H   0  0  0  0  0  0  0  0  0  0  0  0
  201.2901  186.7999  150.5379 H   0  0  0  0  0  0  0  0  0  0  0  0
  200.1143  185.5249  152.2996 H   0  0  0  0  0  0  0  0  0  0  0  0
  196.9236  183.5549  151.6421 H   0  0  0  0  0  0  0  0  0  0  0  0
  198.4616  182.9209  152.1963 H   0  0  0  0  0  0  0  0  0  0  0  0
  197.8703  185.5437  153.2881 H   0  0  0  0  0  0  0  0  0  0  0  0
  196.3597  180.1860  156.5750 H   0  0  0  0  0  0  0  0  0  0  0  0
  197.1392  178.7748  154.9484 H   0  0  0  0  0  0  0  0  0  0  0  0
  197.6897  180.0816  153.9215 H   0  0  0  0  0  0  0  0  0  0  0  0
  199.5697  180.5189  155.4791 H   0  0  0  0  0  0  0  0  0  0  0  0
  198.9077  179.4324  156.6816 H   0  0  0  0  0  0  0  0  0  0  0  0
  200.4042  179.5819  153.2556 H   0  0  0  0  0  0  0  0  0  0  0  0
  201.8624  177.7665  152.3576 H   0  0  0  0  0  0  0  0  0  0  0  0
  200.7947  175.2493  155.6924 H   0  0  0  0  0  0  0  0  0  0  0  0
  199.4125  177.0775  156.6463 H   0  0  0  0  0  0  0  0  0  0  0  0
  203.2847  175.5818  153.2386 H   0  0  0  0  0  0  0  0  0  0  0  0
  202.2826  174.4241  154.0476 H   0  0  0  0  0  0  0  0  0  0  0  0
  200.0580  173.8238  151.2231 H   0  0  0  0  0  0  0  0  0  0  0  0
  199.7136  174.9740  152.5050 H   0  0  0  0  0  0  0  0  0  0  0  0
  200.3743  173.3821  152.9081 H   0  0  0  0  0  0  0  0  0  0  0  0
  201.5484  175.2715  150.0069 H   0  0  0  0  0  0  0  0  0  0  0  0
  202.7733  176.1695  150.9063 H   0  0  0  0  0  0  0  0  0  0  0  0
  201.1129  176.5689  151.2259 H   0  0  0  0  0  0  0  0  0  0  0  0
  197.2171  186.0703  157.8311 H   0  0  0  0  0  0  0  0  0  0  0  0
  196.7368  185.0835  160.0525 H   0  0  0  0  0  0  0  0  0  0  0  0
  196.3469  182.6422  160.2677 H   0  0  0  0  0  0  0  0  0  0  0  0
  196.4241  181.1730  158.2944 H   0  0  0  0  0  0  0  0  0  0  0  0
  197.5102  185.7204  155.5062 H   0  0  0  0  0  0  0  0  0  0  0  0
  1  2  1  0
  1  5  1  0
  2  3  2  0
  2  9  1  0
  3  4  1  0
  3  6  1  0
  4  5  1  0
  5 35  1  6
  5 36  1  0
  6  7  2  0
  6 37  1  0
  7  8  1  0
  7 38  1  0
  8  9  2  0
  8 39  1  0
  9 10  1  0
 10 11  1  0
 10 40  1  6
 10 41  1  0
 11 12  1  0
 11 42  1  0
 12 13  1  0
 12 30  2  0
 13 14  2  0
 14 15  1  0
 14 28  1  0
 15 16  1  0
 15 43  1  0
 16 17  1  0
 16 44  1  6
 16 45  1  0
 17 18  1  0
 17 46  1  1
 17 47  1  0
 18 19  1  0
 18 23  2  0
 19 20  2  0
 19 48  1  0
 20 21  1  0
 20 49  1  0
 21 22  2  0
 21 24  1  0
 22 23  1  0
 22 50  1  0
 23 51  1  0
 24 25  1  0
 24 52  1  6
 24 53  1  0
 25 26  1  0
 25 27  1  0
 26 54  1  6
 26 55  1  0
 26 56  1  0
 27 57  1  6
 27 58  1  0
 27 59  1  0
 28 29  1  0
 28 34  2  0
 29 30  1  0
 29 31  2  0
 30 64  1  0
 31 32  1  0
 31 60  1  0
 32 33  2  0
 32 61  1  0
 33 34  1  0
 33 62  1  0
 34 63  1  0
M  CHG  1  30   1
M  END
>  <s_epik_Chemistry_Notes>  (938) 
This compound contains an acetal/aminal-like group ( X-CH(R)-Y where X, Y are N, S, or O) that may be acid/base labile, releasing an aldehyde.

>  <s_epik_cmdline>  (938) 
J2VwaWtfcHl0aG9uJywgJy1waCcsICc3LjAwMDAwMCcsICctcGh0JywgJzIuMDAwMDAwJywgJy1tcycsICcxNicsICctdG4nLCAnOCcsICctbWEnLCAnMjAwJywgJy1pbWFlJywgJzxpbmZpbGUubWFlPicsICctb21hZScsICc8b3V0ZmlsZS5tYWU+Jw==

>  <s_epik_input>  (938) 
TzFbQ0gyXU9jKGMxMilbY0hdW2NIXVtjSF1jMltDSDJdW05IXWMobmMoYzM0KVtjSF1bY0hdW2NIXVtjSF00KW5jM1tOSF1bQ0gyXVtDSDJdYzVbY0hdW2NIXWMoW2NIXVtjSF01KVtDSDJdTihbQ0gzXSlbQ0gzXQ==

>  <s_i_glide_gridfile>  (938) 
ATP-Grid

>  <s_lp_Force_Field>  (938) 
OPLS_2005

>  <s_lp_Variant>  (938) 
m_282030aaa____21906104____22360182____21967972-2

>  <s_lp_label>  (938) 
2021_sdstereoexpander_1_neutralizer_1_epik_2_stereoizer_1

>  <s_m_source_file>  (938) 
ATP-VSW-LIGPREP-001-in.maegz

>  <s_sd_BIOSOLVEIT.INFINISEE\_QUERY\_NAME>  (938) 
Ref-Lig

>  <s_sd_BIOSOLVEIT.INFINISEE\_QUERY\_SMILES>  (938) 
S(c1nc2c(cc1C[NH2+]Cc3ccc(cc3)C[NH+](C)C)cccc2)Cc4ccccc4

>  <s_sd_BIOSOLVEIT.INFINISEE\_REACTION\_NAME>  (938) 
m_282030aaa

>  <s_sd_BIOSOLVEIT.INFINISEE\_REAGENT1\_SMILES>  (938) 
[R1*]NCc1c2OCOc2ccc1

>  <s_sd_BIOSOLVEIT.INFINISEE\_REAGENT2\_SMILES>  (938) 
[R2*]c1nc([R1*])c2c(n1)cccc2

>  <s_sd_BIOSOLVEIT.INFINISEE\_REAGENT3\_SMILES>  (938) 
[R2*]NCCc1ccc(cc1)CN(C)C

>  <s_sd_BIOSOLVEIT.INFINISEE\_SPACE>  (938) 
REALSpace_44bn_2023-08

>  <s_vsw_compound_code>  (938) 
64641

>  <s_vsw_variant>  (938) 
64641-2

>  <r_epik_Charging_Adjusted_Penalty>  (938) 
1.64207602211633

>  <r_epik_Ionization_Penalty>  (938) 
1.6168

>  <r_epik_Ionization_Penalty_Charging>  (938) 
0.013599999999999999

>  <r_epik_Ionization_Penalty_Neutral>  (938) 
1.6032

>  <r_epik_State_Penalty>  (938) 
1.6285000000000001

>  <r_i_docking_score>  (938) 
-1.65167439484376

>  <r_i_glide_ecoul>  (938) 
-5.8413343429565403

>  <r_i_glide_eff_state_penalty>  (938) 
1.6285000000000001

>  <r_i_glide_einternal>  (938) 
4.6934785842895499

>  <r_i_glide_emodel>  (938) 
-46.611270545057401

>  <r_i_glide_energy>  (938) 
-36.7023248672485

>  <r_i_glide_erotb>  (938) 
0.77134249875098504

>  <r_i_glide_esite>  (938) 
-0.124125086959023

>  <r_i_glide_evdw>  (938) 
-30.860990524291999

>  <r_i_glide_gscore>  (938) 
-3.2801743948437601

>  <r_i_glide_hbond>  (938) 
-0.16

>  <r_i_glide_ligand_efficiency>  (938) 
-0.048578658671875198

>  <r_i_glide_ligand_efficiency_ln>  (938) 
-0.36490120171853102

>  <r_i_glide_ligand_efficiency_sa>  (938) 
-0.15737599573864999

>  <r_i_glide_lipo>  (938) 
-0.77773313844953795

>  <r_i_glide_metal>  (938) 
-0

>  <r_i_glide_rewards>  (938) 
-0.57040899052810101

>  <r_lp_Energy>  (938) 
26.228119

>  <r_lp_tautomer_probability>  (938) 
1

>  <r_qp_ACxDN^.5/SA>  (938) 
0.0138876

>  <r_qp_CIQPlogS>  (938) 
-6.2009999999999996

>  <r_qp_EA(eV)>  (938) 
0.496

>  <r_qp_FISA>  (938) 
26.044

>  <r_qp_FOSA>  (938) 
298.63900000000001

>  <r_qp_IP(eV)>  (938) 
7.9509999999999996

>  <r_qp_Jm>  (938) 
2.4612594129711201

>  <r_qp_PISA>  (938) 
337.22800000000001

>  <r_qp_PSA>  (938) 
59.960999999999999

>  <r_qp_PercentHumanOralAbsorption>  (938) 
100

>  <r_qp_QPPCaco>  (938) 
1399.008

>  <r_qp_QPPMDCK>  (938) 
786.76300000000003

>  <r_qp_QPlogBB>  (938) 
0.20599999999999999

>  <r_qp_QPlogHERG>  (938) 
-5.4569999999999999

>  <r_qp_QPlogKhsa>  (938) 
0.70999999999999996

>  <r_qp_QPlogKp>  (938) 
-2.0099999999999998

>  <r_qp_QPlogPC16>  (938) 
13.919

>  <r_qp_QPlogPo/w>  (938) 
4.7779999999999996

>  <r_qp_QPlogPoct>  (938) 
21.617999999999999

>  <r_qp_QPlogPw>  (938) 
11.129

>  <r_qp_QPlogS>  (938) 
-3.2570000000000001

>  <r_qp_QPpolrz>  (938) 
46.155000000000001

>  <r_qp_SASA>  (938) 
661.91099999999994

>  <r_qp_SAamideO>  (938) 
0

>  <r_qp_SAfluorine>  (938) 
0

>  <r_qp_WPSA>  (938) 
0

>  <r_qp_accptHB>  (938) 
6.5

>  <r_qp_dip^2/V>  (938) 
0.00048959999999999997

>  <r_qp_dipole>  (938) 
0.81899999999999995

>  <r_qp_donorHB>  (938) 
2

>  <r_qp_glob>  (938) 
0.90168890000000002

>  <r_qp_mol_MW>  (938) 
455.55799999999999

>  <r_qp_volume>  (938) 
1370.999

>  <r_sd_BIOSOLVEIT.INFINISEE\_FTREES\_SIMILARITY>  (938) 
0.90200000000000002

>  <r_sd_BIOSOLVEIT.LOGP>  (938) 
3.2696999999999998

>  <r_sd_BIOSOLVEIT.MOLECULAR\_WEIGHT>  (938) 
456.56700000000001

>  <r_sd_BIOSOLVEIT.TPSA>  (938) 
72.739999999999995

>  <i_epik_Tot_Q>  (938) 
1

>  <i_epik_Tot_abs_Q>  (938) 
1

>  <i_f3d_flags>  (938) 
0

>  <i_i_glide_confnum>  (938) 
15

>  <i_i_glide_lignum>  (938) 
622

>  <i_i_glide_posenum>  (938) 
15

>  <i_i_glide_rotatable_bonds>  (938) 
9

>  <i_lp_mmshare_version>  (938) 
65135

>  <i_m_ct_format>  (938) 
2

>  <i_m_source_file_index>  (938) 
2021

>  <i_qp_#NandO>  (938) 
7

>  <i_qp_#acid>  (938) 
0

>  <i_qp_#amide>  (938) 
0

>  <i_qp_#amidine>  (938) 
0

>  <i_qp_#amine>  (938) 
1

>  <i_qp_#in34>  (938) 
0

>  <i_qp_#in56>  (938) 
25

>  <i_qp_#metab>  (938) 
5

>  <i_qp_#nonHatm>  (938) 
34

>  <i_qp_#noncon>  (938) 
1

>  <i_qp_#ringatoms>  (938) 
25

>  <i_qp_#rotor>  (938) 
9

>  <i_qp_#rtvFG>  (938) 
1

>  <i_qp_#stars>  (938) 
1

>  <i_qp_CNS>  (938) 
1

>  <i_qp_HumanOralAbsorption>  (938) 
3

>  <i_qp_RuleOfFive>  (938) 
0

>  <i_qp_RuleOfThree>  (938) 
0

>  <i_sd_BIOSOLVEIT.INFINISEE\_REAGENT1\_NAME>  (938) 
21906104

>  <i_sd_BIOSOLVEIT.INFINISEE\_REAGENT2\_NAME>  (938) 
22360182

>  <i_sd_BIOSOLVEIT.INFINISEE\_REAGENT3\_NAME>  (938) 
21967972

>  <i_sd_BIOSOLVEIT.INFINISEE\_RESULT\_RANK>  (938) 
92323

>  <i_sd_version>  (938) 
0

>  <b_lp_Chiralities_Consistent>  (938) 
1

>  <b_sd_chiral_flag>  (938) 
0

>  <canonical_id>  (938) 
ATP-HTVS-9505CBC4E7EE

>  <compound_code>  (938) 
64641

>  <title>  (938) 
m_282030aaa____21906104____22360182____21967972

>  <variant>  (938) 
64641-2

>  <source_file>  (938) 
运行/运行/ATP-VSW/ATP-VSW-DOCK_HTVS_1-001_lib/ATP-VSW-DOCK_HTVS_1-001_lib

>  <canonical_smiles>  (938) 
CN(C)Cc1ccc(CCNc2nc(NCc3cccc4c3OCO4)[nH+]c3ccccc23)cc1

>  <scaffold>  (938) 
c1ccc(CCNc2nc(NCc3cccc4c3OCO4)[nH+]c3ccccc23)cc1

>  <molecular_formula>  (938) 
C27H30N5O2+

$$$$
ATP-HTVS-952C6901247D
     RDKit          3D

 66 69  0  0  0  0  0  0  0  0999 V2000
  198.0397  178.0859  148.9549 O   0  0  0  0  0  0  0  0  0  0  0  0
  197.6680  178.6297  149.9976 C   0  0  0  0  0  0  0  0  0  0  0  0
  198.1600  178.3219  151.2125 N   0  0  0  0  0  0  0  0  0  0  0  0
  199.1128  177.3454  151.5749 C   0  0  0  0  0  0  0  0  0  0  0  0
  199.9803  177.5899  152.6826 C   0  0  0  0  0  0  0  0  0  0  0  0
  199.8639  178.8024  153.4125 N   0  0  0  0  0  0  0  0  0  0  0  0
  199.4471  178.6441  154.8106 C   0  0  1  0  0  0  0  0  0  0  0  0
  199.2386  179.9455  155.5682 C   0  0  0  0  0  0  0  0  0  0  0  0
  197.9611  180.3250  155.9243 C   0  0  0  0  0  0  0  0  0  0  0  0
  197.6754  181.6156  156.4558 C   0  0  0  0  0  0  0  0  0  0  0  0
  198.7929  182.4220  156.8110 C   0  0  0  0  0  0  0  0  0  0  0  0
  200.1014  181.9965  156.5718 C   0  0  0  0  0  0  0  0  0  0  0  0
  200.3539  180.7522  155.9466 C   0  0  0  0  0  0  0  0  0  0  0  0
  196.2469  182.1219  156.6608 C   0  0  1  0  0  0  0  0  0  0  0  0
  195.7473  181.8605  158.0176 N   0  0  1  0  0  0  0  0  0  0  0  0
  196.5088  182.5525  159.0633 C   0  0  2  0  0  0  0  0  0  0  0  0
  194.2857  182.0421  158.1435 C   0  0  2  0  0  0  0  0  0  0  0  0
  200.9093  176.5798  153.0406 C   0  0  0  0  0  0  0  0  0  0  0  0
  200.8982  175.3312  152.3432 C   0  0  0  0  0  0  0  0  0  0  0  0
  200.0080  175.1388  151.3393 N   0  0  0  0  0  0  0  0  0  0  0  0
  199.1417  176.0805  150.9302 C   0  0  0  0  0  0  0  0  0  0  0  0
  201.8092  174.3168  152.6738 C   0  0  0  0  0  0  0  0  0  0  0  0
  202.7498  174.5157  153.7048 C   0  0  0  0  0  0  0  0  0  0  0  0
  202.7794  175.7411  154.3982 C   0  0  0  0  0  0  0  0  0  0  0  0
  201.8833  176.7648  154.0593 C   0  0  0  0  0  0  0  0  0  0  0  0
  196.5740  179.7144  149.9670 C   0  0  1  0  0  0  0  0  0  0  0  0
  196.7434  180.7547  151.0828 C   0  0  0  0  0  0  0  0  0  0  0  0
  197.0927  182.1106  150.7914 C   0  0  0  0  0  0  0  0  0  0  0  0
  197.2229  182.4791  149.4548 O   0  0  0  0  0  0  0  0  0  0  0  0
  197.5115  183.8421  149.2379 C   0  0  2  0  0  0  0  0  0  0  0  0
  197.2843  183.0171  151.9012 C   0  0  0  0  0  0  0  0  0  0  0  0
  197.0654  182.5567  153.2241 C   0  0  0  0  0  0  0  0  0  0  0  0
  196.5908  181.2551  153.4572 C   0  0  0  0  0  0  0  0  0  0  0  0
  196.4895  180.3663  152.4077 C   0  0  0  0  0  0  0  0  0  0  0  0
  197.8467  178.9105  151.9727 H   0  0  0  0  0  0  0  0  0  0  0  0
  199.3674  179.5311  152.9150 H   0  0  0  0  0  0  0  0  0  0  0  0
  198.5101  178.0770  154.8165 H   0  0  0  0  0  0  0  0  0  0  0  0
  200.1508  178.0691  155.3971 H   0  0  0  0  0  0  0  0  0  0  0  0
  197.1186  179.6072  155.7157 H   0  0  0  0  0  0  0  0  0  0  0  0
  198.6019  183.3952  157.2227 H   0  0  0  0  0  0  0  0  0  0  0  0
  200.9264  182.6061  156.9220 H   0  0  0  0  0  0  0  0  0  0  0  0
  201.3619  180.4462  155.7281 H   0  0  0  0  0  0  0  0  0  0  0  0
  196.2125  183.1824  156.4392 H   0  0  0  0  0  0  0  0  0  0  0  0
  195.5060  181.6727  155.9905 H   0  0  0  0  0  0  0  0  0  0  0  0
  196.4105  183.6241  158.9110 H   0  0  0  0  0  0  0  0  0  0  0  0
  197.5554  182.2784  159.0329 H   0  0  0  0  0  0  0  0  0  0  0  0
  196.1384  182.2663  160.0361 H   0  0  0  0  0  0  0  0  0  0  0  0
  194.0178  183.0803  157.9530 H   0  0  0  0  0  0  0  0  0  0  0  0
  193.9680  181.7722  159.1415 H   0  0  0  0  0  0  0  0  0  0  0  0
  193.7328  181.4111  157.4375 H   0  0  0  0  0  0  0  0  0  0  0  0
  198.4573  175.7981  150.1407 H   0  0  0  0  0  0  0  0  0  0  0  0
  201.8113  173.3775  152.1391 H   0  0  0  0  0  0  0  0  0  0  0  0
  203.4540  173.7383  153.9537 H   0  0  0  0  0  0  0  0  0  0  0  0
  203.5002  175.9129  155.1871 H   0  0  0  0  0  0  0  0  0  0  0  0
  201.9793  177.7067  154.5842 H   0  0  0  0  0  0  0  0  0  0  0  0
  196.5597  180.2109  148.9843 H   0  0  0  0  0  0  0  0  0  0  0  0
  195.5853  179.2557  150.0982 H   0  0  0  0  0  0  0  0  0  0  0  0
  197.6738  183.9404  148.1775 H   0  0  0  0  0  0  0  0  0  0  0  0
  198.4174  184.1595  149.7572 H   0  0  0  0  0  0  0  0  0  0  0  0
  196.6720  184.4709  149.5363 H   0  0  0  0  0  0  0  0  0  0  0  0
  197.5359  184.0859  151.7459 H   0  0  0  0  0  0  0  0  0  0  0  0
  197.2060  183.2508  154.0279 H   0  0  0  0  0  0  0  0  0  0  0  0
  196.2623  180.8972  154.3559 H   0  0  0  0  0  0  0  0  0  0  0  0
  196.2192  179.3691  152.6565 H   0  0  0  0  0  0  0  0  0  0  0  0
  200.0092  174.2394  150.8468 H   0  0  0  0  0  0  0  0  0  0  0  0
  195.8828  180.8395  158.1007 H   0  0  0  0  0  0  0  0  0  0  0  0
  1  2  2  0
  2  3  1  0
  2 26  1  0
  3  4  1  0
  3 35  1  0
  4  5  2  0
  4 21  1  0
  5  6  1  0
  5 18  1  0
  6  7  1  0
  6 36  1  0
  7  8  1  0
  7 37  1  6
  7 38  1  0
  8  9  2  0
  8 13  1  0
  9 10  1  0
  9 39  1  0
 10 11  2  0
 10 14  1  0
 11 12  1  0
 11 40  1  0
 12 13  2  0
 12 41  1  0
 13 42  1  0
 14 15  1  0
 14 43  1  6
 14 44  1  0
 15 16  1  0
 15 17  1  0
 15 66  1  1
 16 45  1  6
 16 46  1  0
 16 47  1  0
 17 48  1  6
 17 49  1  0
 17 50  1  0
 18 19  1  0
 18 25  2  0
 19 20  1  0
 19 22  2  0
 20 21  2  0
 20 65  1  0
 21 51  1  0
 22 23  1  0
 22 52  1  0
 23 24  2  0
 23 53  1  0
 24 25  1  0
 24 54  1  0
 25 55  1  0
 26 27  1  0
 26 56  1  6
 26 57  1  0
 27 28  1  0
 27 34  2  0
 28 29  1  0
 28 31  2  0
 29 30  1  0
 30 58  1  6
 30 59  1  0
 30 60  1  0
 31 32  1  0
 31 61  1  0
 32 33  2  0
 32 62  1  0
 33 34  1  0
 33 63  1  0
 34 64  1  0
M  CHG  2  15   1  20   1
M  END
>  <s_epik_cmdline>  (939) 
J2VwaWtfcHl0aG9uJywgJy1waCcsICc3LjAwMDAwMCcsICctcGh0JywgJzIuMDAwMDAwJywgJy1tcycsICcxNicsICctdG4nLCAnOCcsICctbWEnLCAnMjAwJywgJy1pbWFlJywgJzxpbmZpbGUubWFlPicsICctb21hZScsICc8b3V0ZmlsZS5tYWU+Jw==

>  <s_epik_input>  (939) 
W2NIXTFbY0hdW2NIXVtjSF1jKE9bQ0gzXSljMVtDSDJdQyg9TylbTkhdYyhbY0hdbmMoYzIzKVtjSF1bY0hdW2NIXVtjSF0zKWMyW05IXVtDSDJdYzRbY0hdYyhbY0hdW2NIXVtjSF00KVtDSDJdTihbQ0gzXSlbQ0gzXQ==

>  <s_i_glide_gridfile>  (939) 
ATP-Grid

>  <s_lp_Force_Field>  (939) 
OPLS_2005

>  <s_lp_Variant>  (939) 
rxn502b____EMOL32280493____EMOL30488121____EMOL2873214-1

>  <s_lp_label>  (939) 
2224_sdstereoexpander_1_neutralizer_1_epik_1_stereoizer_1

>  <s_m_source_file>  (939) 
ATP-VSW-LIGPREP-002-in.maegz

>  <s_sd_BIOSOLVEIT.INFINISEE\_QUERY\_NAME>  (939) 
Ref-Lig

>  <s_sd_BIOSOLVEIT.INFINISEE\_QUERY\_SMILES>  (939) 
S(c1nc2c(cc1C[NH2+]Cc3ccc(cc3)C[NH+](C)C)cccc2)Cc4ccccc4

>  <s_sd_BIOSOLVEIT.INFINISEE\_REACTION\_NAME>  (939) 
rxn502b

>  <s_sd_BIOSOLVEIT.INFINISEE\_REAGENT1\_NAME>  (939) 
EMOL32280493

>  <s_sd_BIOSOLVEIT.INFINISEE\_REAGENT1\_SMILES>  (939) 
ClC(=O)Cc1c(OC)cccc1

>  <s_sd_BIOSOLVEIT.INFINISEE\_REAGENT2\_NAME>  (939) 
EMOL30488121

>  <s_sd_BIOSOLVEIT.INFINISEE\_REAGENT2\_SMILES>  (939) 
Brc1c(N)cnc2c1cccc2

>  <s_sd_BIOSOLVEIT.INFINISEE\_REAGENT3\_NAME>  (939) 
EMOL2873214

>  <s_sd_BIOSOLVEIT.INFINISEE\_REAGENT3\_SMILES>  (939) 
N(Cc1cc(ccc1)CN)(C)C

>  <s_sd_BIOSOLVEIT.INFINISEE\_SPACE>  (939) 
eXplore_7tr_2022-12

>  <s_vsw_compound_code>  (939) 
71138

>  <s_vsw_variant>  (939) 
71138-1

>  <r_epik_Charging_Adjusted_Penalty>  (939) 
0.147232245651675

>  <r_epik_Ionization_Penalty>  (939) 
0.073599999999999999

>  <r_epik_Ionization_Penalty_Charging>  (939) 
0.073599999999999999

>  <r_epik_Ionization_Penalty_Neutral>  (939) 
0

>  <r_epik_State_Penalty>  (939) 
0.073599999999999999

>  <r_i_docking_score>  (939) 
-4.77328082745397

>  <r_i_glide_ecoul>  (939) 
-12.6184034347534

>  <r_i_glide_eff_state_penalty>  (939) 
0.073599999999999999

>  <r_i_glide_einternal>  (939) 
3.95310282707214

>  <r_i_glide_emodel>  (939) 
-66.476295103956204

>  <r_i_glide_energy>  (939) 
-46.392382621765101

>  <r_i_glide_erotb>  (939) 
0.77128136383731805

>  <r_i_glide_esite>  (939) 
-0.101000719661439

>  <r_i_glide_evdw>  (939) 
-33.773979187011697

>  <r_i_glide_gscore>  (939) 
-4.8468808274539699

>  <r_i_glide_hbond>  (939) 
-0.20000000000000001

>  <r_i_glide_ligand_efficiency>  (939) 
-0.140390612572176

>  <r_i_glide_ligand_efficiency_ln>  (939) 
-1.05455162077677

>  <r_i_glide_ligand_efficiency_sa>  (939) 
-0.45481108474278598

>  <r_i_glide_lipo>  (939) 
-1.11871457611242

>  <r_i_glide_metal>  (939) 
-0

>  <r_i_glide_rewards>  (939) 
-0.61698742095383496

>  <r_lp_Energy>  (939) 
36.928257000000002

>  <r_lp_tautomer_probability>  (939) 
1

>  <r_qp_ACxDN^.5/SA>  (939) 
0.0135931

>  <r_qp_CIQPlogS>  (939) 
-5.7759999999999998

>  <r_qp_EA(eV)>  (939) 
0.90000000000000002

>  <r_qp_FISA>  (939) 
64.834000000000003

>  <r_qp_FOSA>  (939) 
245.89400000000001

>  <r_qp_IP(eV)>  (939) 
8.4130000000000003

>  <r_qp_Jm>  (939) 
0.052672114659815999

>  <r_qp_PISA>  (939) 
443.55399999999997

>  <r_qp_PSA>  (939) 
67.978999999999999

>  <r_qp_PercentHumanOralAbsorption>  (939) 
100

>  <r_qp_QPPCaco>  (939) 
599.75699999999995

>  <r_qp_QPPMDCK>  (939) 
314.95400000000001

>  <r_qp_QPlogBB>  (939) 
-0.22700000000000001

>  <r_qp_QPlogHERG>  (939) 
-7.3280000000000003

>  <r_qp_QPlogKhsa>  (939) 
0.69499999999999995

>  <r_qp_QPlogKp>  (939) 
-2.3500000000000001

>  <r_qp_QPlogPC16>  (939) 
15.596

>  <r_qp_QPlogPo/w>  (939) 
4.702

>  <r_qp_QPlogPoct>  (939) 
24.199000000000002

>  <r_qp_QPlogPw>  (939) 
13.077999999999999

>  <r_qp_QPlogS>  (939) 
-4.5860000000000003

>  <r_qp_QPpolrz>  (939) 
49.911999999999999

>  <r_qp_SASA>  (939) 
754.28200000000004

>  <r_qp_SAamideO>  (939) 
0

>  <r_qp_SAfluorine>  (939) 
0

>  <r_qp_WPSA>  (939) 
0

>  <r_qp_accptHB>  (939) 
7.25

>  <r_qp_dip^2/V>  (939) 
0.059360000000000003

>  <r_qp_dipole>  (939) 
9.2439999999999998

>  <r_qp_donorHB>  (939) 
2

>  <r_qp_glob>  (939) 
0.8174051

>  <r_qp_mol_MW>  (939) 
454.57100000000003

>  <r_qp_volume>  (939) 
1439.4929999999999

>  <r_sd_BIOSOLVEIT.INFINISEE\_FTREES\_SIMILARITY>  (939) 
0.92900000000000005

>  <r_sd_BIOSOLVEIT.LOGP>  (939) 
3.6812

>  <r_sd_BIOSOLVEIT.MOLECULAR\_WEIGHT>  (939) 
455.57900000000001

>  <r_sd_BIOSOLVEIT.TPSA>  (939) 
67.689999999999998

>  <i_epik_Tot_Q>  (939) 
2

>  <i_epik_Tot_abs_Q>  (939) 
2

>  <i_f3d_flags>  (939) 
0

>  <i_i_glide_confnum>  (939) 
7

>  <i_i_glide_lignum>  (939) 
863

>  <i_i_glide_posenum>  (939) 
6

>  <i_i_glide_rotatable_bonds>  (939) 
10

>  <i_lp_mmshare_version>  (939) 
65135

>  <i_m_ct_format>  (939) 
2

>  <i_m_source_file_index>  (939) 
2224

>  <i_qp_#NandO>  (939) 
6

>  <i_qp_#acid>  (939) 
0

>  <i_qp_#amide>  (939) 
0

>  <i_qp_#amidine>  (939) 
0

>  <i_qp_#amine>  (939) 
1

>  <i_qp_#in34>  (939) 
0

>  <i_qp_#in56>  (939) 
22

>  <i_qp_#metab>  (939) 
8

>  <i_qp_#nonHatm>  (939) 
34

>  <i_qp_#noncon>  (939) 
0

>  <i_qp_#ringatoms>  (939) 
22

>  <i_qp_#rotor>  (939) 
9

>  <i_qp_#rtvFG>  (939) 
0

>  <i_qp_#stars>  (939) 
0

>  <i_qp_CNS>  (939) 
1

>  <i_qp_HumanOralAbsorption>  (939) 
3

>  <i_qp_RuleOfFive>  (939) 
0

>  <i_qp_RuleOfThree>  (939) 
1

>  <i_sd_BIOSOLVEIT.INFINISEE\_RESULT\_RANK>  (939) 
5454

>  <i_sd_version>  (939) 
0

>  <b_lp_Chiralities_Consistent>  (939) 
1

>  <b_sd_chiral_flag>  (939) 
0

>  <canonical_id>  (939) 
ATP-HTVS-952C6901247D

>  <compound_code>  (939) 
71138

>  <title>  (939) 
rxn502b____EMOL32280493____EMOL30488121____EMOL2873214

>  <variant>  (939) 
71138-1

>  <source_file>  (939) 
运行/运行/ATP-VSW/ATP-VSW-DOCK_HTVS_1-002_lib.maegz

>  <canonical_smiles>  (939) 
COc1ccccc1CC(=O)Nc1c[nH+]c2ccccc2c1NCc1cccc(C[NH+](C)C)c1

>  <scaffold>  (939) 
O=C(Cc1ccccc1)Nc1c[nH+]c2ccccc2c1NCc1ccccc1

>  <molecular_formula>  (939) 
C28H32N4O2+2

$$$$
ATP-HTVS-9548848ABB82
     RDKit          3D

 63 66  0  0  0  0  0  0  0  0999 V2000
  198.1797  186.8168  159.7217 O   0  0  0  0  0  0  0  0  0  0  0  0
  197.6711  185.8627  159.1404 C   0  0  0  0  0  0  0  0  0  0  0  0
  198.1717  185.1053  158.1391 N   0  0  0  0  0  0  0  0  0  0  0  0
  197.2761  184.0021  157.7409 C   0  0  2  0  0  0  0  0  0  0  0  0
  196.0448  184.2935  158.5641 C   0  0  0  0  0  0  0  0  0  0  0  0
  196.3138  185.3631  159.3970 C   0  0  0  0  0  0  0  0  0  0  0  0
  195.3724  185.8925  160.2869 C   0  0  0  0  0  0  0  0  0  0  0  0
  194.0926  185.3002  160.2797 C   0  0  0  0  0  0  0  0  0  0  0  0
  193.7995  184.2295  159.4084 C   0  0  0  0  0  0  0  0  0  0  0  0
  194.7814  183.6891  158.5408 C   0  0  0  0  0  0  0  0  0  0  0  0
  197.8887  182.6219  158.1196 C   0  0  1  0  0  0  0  0  0  0  0  0
  197.4123  181.5334  157.2730 N   0  0  0  0  0  0  0  0  0  0  0  0
  197.7631  181.3836  155.9945 C   0  0  0  0  0  0  0  0  0  0  0  0
  198.5421  182.1411  155.4046 O   0  0  0  0  0  0  0  0  0  0  0  0
  197.1432  180.3485  155.4208 N   0  0  0  0  0  0  0  0  0  0  0  0
  197.3142  179.9646  154.0233 C   0  0  1  0  0  0  0  0  0  0  0  0
  198.5919  179.1806  153.7625 C   0  0  0  0  0  0  0  0  0  0  0  0
  199.0905  178.2789  154.7281 C   0  0  0  0  0  0  0  0  0  0  0  0
  200.2398  177.5091  154.4745 C   0  0  0  0  0  0  0  0  0  0  0  0
  200.6379  176.6089  155.4737 N   0  0  0  0  0  0  0  0  0  0  0  0
  201.6926  175.6256  155.2756 C   0  0  2  0  0  0  0  0  0  0  0  0
  201.1531  174.3703  154.5778 C   0  0  2  0  0  0  0  0  0  0  0  0
  202.3215  175.2844  156.6161 C   0  0  2  0  0  0  0  0  0  0  0  0
  200.9223  177.6763  153.2457 C   0  0  0  0  0  0  0  0  0  0  0  0
  200.4401  178.5869  152.2857 C   0  0  0  0  0  0  0  0  0  0  0  0
  199.2735  179.3308  152.5364 C   0  0  0  0  0  0  0  0  0  0  0  0
  199.4186  185.3544  157.4169 C   0  0  1  0  0  0  0  0  0  0  0  0
  199.4895  186.7221  156.7546 C   0  0  0  0  0  0  0  0  0  0  0  0
  200.0594  187.8150  157.4429 C   0  0  0  0  0  0  0  0  0  0  0  0
  200.1165  189.0862  156.8403 C   0  0  0  0  0  0  0  0  0  0  0  0
  199.6102  189.2674  155.5393 C   0  0  0  0  0  0  0  0  0  0  0  0
  199.0424  188.1789  154.8480 C   0  0  0  0  0  0  0  0  0  0  0  0
  198.9719  186.9102  155.4565 C   0  0  0  0  0  0  0  0  0  0  0  0
  197.0538  184.1062  156.6734 H   0  0  0  0  0  0  0  0  0  0  0  0
  195.5948  186.7429  160.9197 H   0  0  0  0  0  0  0  0  0  0  0  0
  193.3155  185.6951  160.9177 H   0  0  0  0  0  0  0  0  0  0  0  0
  192.7968  183.8297  159.3849 H   0  0  0  0  0  0  0  0  0  0  0  0
  194.5490  182.8828  157.8551 H   0  0  0  0  0  0  0  0  0  0  0  0
  198.9770  182.6544  158.0342 H   0  0  0  0  0  0  0  0  0  0  0  0
  197.6812  182.3784  159.1642 H   0  0  0  0  0  0  0  0  0  0  0  0
  196.7738  180.8533  157.6732 H   0  0  0  0  0  0  0  0  0  0  0  0
  196.5314  179.7861  156.0025 H   0  0  0  0  0  0  0  0  0  0  0  0
  196.4640  179.3581  153.7282 H   0  0  0  0  0  0  0  0  0  0  0  0
  197.2832  180.8514  153.3885 H   0  0  0  0  0  0  0  0  0  0  0  0
  198.5559  178.1362  155.6558 H   0  0  0  0  0  0  0  0  0  0  0  0
  200.1041  176.5788  156.3317 H   0  0  0  0  0  0  0  0  0  0  0  0
  202.4931  176.0520  154.6715 H   0  0  0  0  0  0  0  0  0  0  0  0
  201.9456  173.6346  154.4273 H   0  0  0  0  0  0  0  0  0  0  0  0
  200.7392  174.6130  153.5953 H   0  0  0  0  0  0  0  0  0  0  0  0
  200.3717  173.8905  155.1731 H   0  0  0  0  0  0  0  0  0  0  0  0
  203.1404  174.5728  156.5101 H   0  0  0  0  0  0  0  0  0  0  0  0
  201.5744  174.8873  157.2955 H   0  0  0  0  0  0  0  0  0  0  0  0
  202.7144  176.1860  157.0781 H   0  0  0  0  0  0  0  0  0  0  0  0
  201.8144  177.1190  153.0115 H   0  0  0  0  0  0  0  0  0  0  0  0
  200.9754  178.7190  151.3592 H   0  0  0  0  0  0  0  0  0  0  0  0
  198.9097  180.0221  151.7880 H   0  0  0  0  0  0  0  0  0  0  0  0
  200.2546  185.2497  158.1053 H   0  0  0  0  0  0  0  0  0  0  0  0
  199.5625  184.5811  156.6533 H   0  0  0  0  0  0  0  0  0  0  0  0
  200.4405  187.6875  158.4447 H   0  0  0  0  0  0  0  0  0  0  0  0
  200.5454  189.9192  157.3773 H   0  0  0  0  0  0  0  0  0  0  0  0
  199.6557  190.2408  155.0731 H   0  0  0  0  0  0  0  0  0  0  0  0
  198.6518  188.3169  153.8509 H   0  0  0  0  0  0  0  0  0  0  0  0
  198.5218  186.0794  154.9307 H   0  0  0  0  0  0  0  0  0  0  0  0
  1  2  2  0
  2  3  1  0
  2  6  1  0
  3  4  1  0
  3 27  1  0
  4  5  1  0
  4 11  1  0
  4 34  1  6
  5  6  1  0
  5 10  2  0
  6  7  2  0
  7  8  1  0
  7 35  1  0
  8  9  2  0
  8 36  1  0
  9 10  1  0
  9 37  1  0
 10 38  1  0
 11 12  1  0
 11 39  1  1
 11 40  1  0
 12 13  1  0
 12 41  1  0
 13 14  2  0
 13 15  1  0
 15 16  1  0
 15 42  1  0
 16 17  1  0
 16 43  1  6
 16 44  1  0
 17 18  1  0
 17 26  2  0
 18 19  2  0
 18 45  1  0
 19 20  1  0
 19 24  1  0
 20 21  1  0
 20 46  1  0
 21 22  1  0
 21 23  1  0
 21 47  1  6
 22 48  1  6
 22 49  1  0
 22 50  1  0
 23 51  1  6
 23 52  1  0
 23 53  1  0
 24 25  2  0
 24 54  1  0
 25 26  1  0
 25 55  1  0
 26 56  1  0
 27 28  1  0
 27 57  1  1
 27 58  1  0
 28 29  2  0
 28 33  1  0
 29 30  1  0
 29 59  1  0
 30 31  2  0
 30 60  1  0
 31 32  1  0
 31 61  1  0
 32 33  2  0
 32 62  1  0
 33 63  1  0
M  END
>  <s_epik_cmdline>  (940) 
J2VwaWtfcHl0aG9uJywgJy1waCcsICc3LjAwMDAwMCcsICctcGh0JywgJzIuMDAwMDAwJywgJy1tcycsICcxNicsICctdG4nLCAnOCcsICctbWEnLCAnMjAwJywgJy1pbWFlJywgJzxpbmZpbGUubWFlPicsICctb21hZScsICc8b3V0ZmlsZS5tYWU+Jw==

>  <s_epik_input>  (940) 
W2NIXTFbY0hdW2NIXVtjSF1bY0hdYzFbQ0gyXU4oQyg9TyljKGMyMylbY0hdW2NIXVtjSF1bY0hdMylbQ0BIXTJbQ0gyXVtOSF1DKD1PKVtOSF1bQ0gyXWM0W2NIXWMoW05IXVtDSF0oW0NIM10pW0NIM10pW2NIXVtjSF1bY0hdNA==

>  <s_i_glide_gridfile>  (940) 
ATP-Grid

>  <s_lp_Force_Field>  (940) 
OPLS_2005

>  <s_lp_Variant>  (940) 
m_2708bba____6950698____12219706-1

>  <s_lp_label>  (940) 
1174_sdstereoexpander_1_neutralizer_1_epik_1_stereoizer_1

>  <s_m_source_file>  (940) 
ATP-VSW-LIGPREP-001-in.maegz

>  <s_sd_BIOSOLVEIT.INFINISEE\_QUERY\_NAME>  (940) 
Ref-Lig

>  <s_sd_BIOSOLVEIT.INFINISEE\_QUERY\_SMILES>  (940) 
S(c1nc2c(cc1C[NH2+]Cc3ccc(cc3)C[NH+](C)C)cccc2)Cc4ccccc4

>  <s_sd_BIOSOLVEIT.INFINISEE\_REACTION\_NAME>  (940) 
m_2708bba

>  <s_sd_BIOSOLVEIT.INFINISEE\_REAGENT1\_SMILES>  (940) 
[R1*]C(=O)NCc1cc(NC(C)C)ccc1

>  <s_sd_BIOSOLVEIT.INFINISEE\_REAGENT2\_SMILES>  (940) 
[R1*]NCC1N(C(=O)c2c1cccc2)Cc3ccccc3

>  <s_sd_BIOSOLVEIT.INFINISEE\_SPACE>  (940) 
REALSpace_44bn_2023-08

>  <s_vsw_compound_code>  (940) 
37537

>  <s_vsw_variant>  (940) 
37537-1

>  <r_epik_Charging_Adjusted_Penalty>  (940) 
0.020567125668533401

>  <r_epik_Ionization_Penalty>  (940) 
0.0206

>  <r_epik_Ionization_Penalty_Charging>  (940) 
0

>  <r_epik_Ionization_Penalty_Neutral>  (940) 
0.0206

>  <r_epik_State_Penalty>  (940) 
0.0206

>  <r_i_docking_score>  (940) 
-3.80376357856523

>  <r_i_glide_ecoul>  (940) 
-5.4100360870361301

>  <r_i_glide_eff_state_penalty>  (940) 
0.0206

>  <r_i_glide_einternal>  (940) 
3.3511655330657999

>  <r_i_glide_emodel>  (940) 
-42.920291518112997

>  <r_i_glide_energy>  (940) 
-35.454484939575202

>  <r_i_glide_erotb>  (940) 
0.91833612780457796

>  <r_i_glide_esite>  (940) 
-0.20835251928613699

>  <r_i_glide_evdw>  (940) 
-30.044448852539102

>  <r_i_glide_gscore>  (940) 
-3.8243635785652299

>  <r_i_glide_hbond>  (940) 
-0.27255338755223601

>  <r_i_glide_ligand_efficiency>  (940) 
-0.115265562986825

>  <r_i_glide_ligand_efficiency_ln>  (940) 
-0.84593732503914199

>  <r_i_glide_ligand_efficiency_sa>  (940) 
-0.36971824991563002

>  <r_i_glide_lipo>  (940) 
-1.3466385102363201

>  <r_i_glide_metal>  (940) 
-0

>  <r_i_glide_rewards>  (940) 
-0.60142743361274298

>  <r_lp_Energy>  (940) 
35.774050000000003

>  <r_qp_ACxDN^.5/SA>  (940) 
0.014357

>  <r_qp_CIQPlogS>  (940) 
-6.1989999999999998

>  <r_qp_EA(eV)>  (940) 
0.19

>  <r_qp_FISA>  (940) 
99.816000000000003

>  <r_qp_FOSA>  (940) 
257.69

>  <r_qp_IP(eV)>  (940) 
8.0749999999999993

>  <r_qp_Jm>  (940) 
0.18149743473892599

>  <r_qp_PISA>  (940) 
366.34100000000001

>  <r_qp_PSA>  (940) 
86.650000000000006

>  <r_qp_PercentHumanOralAbsorption>  (940) 
100

>  <r_qp_QPPCaco>  (940) 
788.70000000000005

>  <r_qp_QPPMDCK>  (940) 
559.35900000000004

>  <r_qp_QPlogBB>  (940) 
-0.878

>  <r_qp_QPlogHERG>  (940) 
-4.6109999999999998

>  <r_qp_QPlogKhsa>  (940) 
0.46000000000000002

>  <r_qp_QPlogKp>  (940) 
-1.3009999999999999

>  <r_qp_QPlogPC16>  (940) 
15.061

>  <r_qp_QPlogPo/w>  (940) 
4.3010000000000002

>  <r_qp_QPlogPoct>  (940) 
24.172000000000001

>  <r_qp_QPlogPw>  (940) 
14.587999999999999

>  <r_qp_QPlogS>  (940) 
-5.0869999999999997

>  <r_qp_QPpolrz>  (940) 
47.896999999999998

>  <r_qp_SASA>  (940) 
723.84699999999998

>  <r_qp_SAamideO>  (940) 
19.149999999999999

>  <r_qp_SAfluorine>  (940) 
0

>  <r_qp_WPSA>  (940) 
0

>  <r_qp_accptHB>  (940) 
6

>  <r_qp_dip^2/V>  (940) 
0.042550400000000002

>  <r_qp_dipole>  (940) 
7.6950000000000003

>  <r_qp_donorHB>  (940) 
3

>  <r_qp_glob>  (940) 
0.8327502

>  <r_qp_mol_MW>  (940) 
442.56

>  <r_qp_volume>  (940) 
1391.537

>  <r_sd_BIOSOLVEIT.INFINISEE\_FTREES\_SIMILARITY>  (940) 
0.91200000000000003

>  <r_sd_BIOSOLVEIT.LOGP>  (940) 
4.7034000000000002

>  <r_sd_BIOSOLVEIT.MOLECULAR\_WEIGHT>  (940) 
442.56

>  <r_sd_BIOSOLVEIT.TPSA>  (940) 
73.469999999999999

>  <i_epik_Tot_Q>  (940) 
0

>  <i_epik_Tot_abs_Q>  (940) 
0

>  <i_f3d_flags>  (940) 
0

>  <i_i_glide_confnum>  (940) 
7

>  <i_i_glide_lignum>  (940) 
290

>  <i_i_glide_posenum>  (940) 
19

>  <i_i_glide_rotatable_bonds>  (940) 
10

>  <i_lp_mmshare_version>  (940) 
65135

>  <i_m_ct_format>  (940) 
2

>  <i_m_source_file_index>  (940) 
1174

>  <i_qp_#NandO>  (940) 
6

>  <i_qp_#acid>  (940) 
0

>  <i_qp_#amide>  (940) 
1

>  <i_qp_#amidine>  (940) 
0

>  <i_qp_#amine>  (940) 
0

>  <i_qp_#in34>  (940) 
0

>  <i_qp_#in56>  (940) 
21

>  <i_qp_#metab>  (940) 
6

>  <i_qp_#nonHatm>  (940) 
33

>  <i_qp_#noncon>  (940) 
1

>  <i_qp_#ringatoms>  (940) 
21

>  <i_qp_#rotor>  (940) 
8

>  <i_qp_#rtvFG>  (940) 
0

>  <i_qp_#stars>  (940) 
0

>  <i_qp_CNS>  (940) 
-1

>  <i_qp_HumanOralAbsorption>  (940) 
3

>  <i_qp_RuleOfFive>  (940) 
0

>  <i_qp_RuleOfThree>  (940) 
0

>  <i_sd_BIOSOLVEIT.INFINISEE\_REAGENT1\_NAME>  (940) 
6950698

>  <i_sd_BIOSOLVEIT.INFINISEE\_REAGENT2\_NAME>  (940) 
12219706

>  <i_sd_BIOSOLVEIT.INFINISEE\_RESULT\_RANK>  (940) 
38422

>  <i_sd_version>  (940) 
0

>  <b_lp_Chiralities_Consistent>  (940) 
1

>  <b_sd_chiral_flag>  (940) 
0

>  <canonical_id>  (940) 
ATP-HTVS-9548848ABB82

>  <compound_code>  (940) 
37537

>  <title>  (940) 
m_2708bba____6950698____12219706

>  <variant>  (940) 
37537-1

>  <source_file>  (940) 
运行/运行/ATP-VSW/ATP-VSW-DOCK_HTVS_1-001_lib/ATP-VSW-DOCK_HTVS_1-001_lib

>  <canonical_smiles>  (940) 
CC(C)Nc1cccc(CNC(=O)NC[C@H]2c3ccccc3C(=O)N2Cc2ccccc2)c1

>  <scaffold>  (940) 
O=C(NCc1ccccc1)NCC1c2ccccc2C(=O)N1Cc1ccccc1

>  <molecular_formula>  (940) 
C27H30N4O2

$$$$
ATP-HTVS-954980F32CB7
     RDKit          3D

 65 67  0  0  0  0  0  0  0  0999 V2000
  197.2112  186.2009  155.9745 S   0  0  0  0  0  0  0  0  0  0  0  0
  197.7915  184.6683  156.6446 C   0  0  0  0  0  0  0  0  0  0  0  0
  198.0602  183.7468  155.7083 N   0  0  0  0  0  0  0  0  0  0  0  0
  197.9170  184.2786  154.3974 C   0  0  0  0  0  0  0  0  0  0  0  0
  197.4329  185.5624  154.3697 C   0  0  0  0  0  0  0  0  0  0  0  0
  198.2940  183.3994  153.2469 C   0  0  1  0  0  0  0  0  0  0  0  0
  197.1220  182.5955  152.8684 N   0  0  1  0  0  0  0  0  0  0  0  0
  197.4331  181.3695  152.1027 C   0  0  1  0  0  0  0  0  0  0  0  0
  198.1799  180.3591  152.9679 C   0  0  0  0  0  0  0  0  0  0  0  0
  199.4968  179.9765  152.6281 C   0  0  0  0  0  0  0  0  0  0  0  0
  200.2028  179.0592  153.4295 C   0  0  0  0  0  0  0  0  0  0  0  0
  199.6006  178.5154  154.5834 C   0  0  0  0  0  0  0  0  0  0  0  0
  198.2919  178.9069  154.9358 C   0  0  0  0  0  0  0  0  0  0  0  0
  197.5825  179.8172  154.1285 C   0  0  0  0  0  0  0  0  0  0  0  0
  200.3535  177.5191  155.4491 C   0  0  1  0  0  0  0  0  0  0  0  0
  200.6746  178.0663  156.7894 N   0  0  1  0  0  0  0  0  0  0  0  0
  201.3190  177.0525  157.6478 C   0  0  2  0  0  0  0  0  0  0  0  0
  201.4736  179.3145  156.7468 C   0  0  2  0  0  0  0  0  0  0  0  0
  196.1571  180.7684  151.5006 C   0  0  2  0  0  0  0  0  0  0  0  0
  197.9736  184.3885  158.0447 N   0  0  0  0  0  0  0  0  0  0  0  0
  197.1488  185.1812  158.9048 C   0  0  0  0  0  0  0  0  0  0  0  0
  195.9191  184.7063  159.4484 C   0  0  0  0  0  0  0  0  0  0  0  0
  195.1559  185.5668  160.2758 C   0  0  0  0  0  0  0  0  0  0  0  0
  195.5716  186.8849  160.5383 C   0  0  0  0  0  0  0  0  0  0  0  0
  196.7735  187.3568  159.9885 C   0  0  0  0  0  0  0  0  0  0  0  0
  197.5641  186.5041  159.1946 C   0  0  0  0  0  0  0  0  0  0  0  0
  195.3899  183.2993  159.1819 C   0  0  1  0  0  0  0  0  0  0  0  0
  193.9413  183.2926  158.6728 C   0  0  2  0  0  0  0  0  0  0  0  0
  198.9180  183.5612  158.5807 C   0  0  0  0  0  0  0  0  0  0  0  0
  199.0343  183.4425  159.8035 O   0  0  0  0  0  0  0  0  0  0  0  0
  199.9396  182.7715  157.7391 C   0  0  2  0  0  0  0  0  0  0  0  0
  196.6327  182.3400  153.7142 H   0  0  0  0  0  0  0  0  0  0  0  0
  197.2105  186.1847  153.5130 H   0  0  0  0  0  0  0  0  0  0  0  0
  198.6450  183.9801  152.4016 H   0  0  0  0  0  0  0  0  0  0  0  0
  199.1312  182.7696  153.5464 H   0  0  0  0  0  0  0  0  0  0  0  0
  198.0746  181.6508  151.2668 H   0  0  0  0  0  0  0  0  0  0  0  0
  199.9764  180.3835  151.7501 H   0  0  0  0  0  0  0  0  0  0  0  0
  201.2088  178.7767  153.1501 H   0  0  0  0  0  0  0  0  0  0  0  0
  197.8141  178.4896  155.8095 H   0  0  0  0  0  0  0  0  0  0  0  0
  196.5742  180.0828  154.4130 H   0  0  0  0  0  0  0  0  0  0  0  0
  199.7401  176.6220  155.5552 H   0  0  0  0  0  0  0  0  0  0  0  0
  201.2713  177.2088  154.9471 H   0  0  0  0  0  0  0  0  0  0  0  0
  202.2744  176.7186  157.2412 H   0  0  0  0  0  0  0  0  0  0  0  0
  200.6903  176.1724  157.7249 H   0  0  0  0  0  0  0  0  0  0  0  0
  201.4735  177.4374  158.6559 H   0  0  0  0  0  0  0  0  0  0  0  0
  202.4296  179.1505  156.2461 H   0  0  0  0  0  0  0  0  0  0  0  0
  201.6803  179.6748  157.7555 H   0  0  0  0  0  0  0  0  0  0  0  0
  200.9476  180.1116  156.2226 H   0  0  0  0  0  0  0  0  0  0  0  0
  196.3725  179.8788  150.9042 H   0  0  0  0  0  0  0  0  0  0  0  0
  195.6489  181.4847  150.8529 H   0  0  0  0  0  0  0  0  0  0  0  0
  195.4634  180.4621  152.2806 H   0  0  0  0  0  0  0  0  0  0  0  0
  194.2252  185.2353  160.7070 H   0  0  0  0  0  0  0  0  0  0  0  0
  194.9616  187.5373  161.1461 H   0  0  0  0  0  0  0  0  0  0  0  0
  197.0870  188.3754  160.1673 H   0  0  0  0  0  0  0  0  0  0  0  0
  198.4824  186.8832  158.7728 H   0  0  0  0  0  0  0  0  0  0  0  0
  196.0137  182.7642  158.4695 H   0  0  0  0  0  0  0  0  0  0  0  0
  195.4505  182.7349  160.1021 H   0  0  0  0  0  0  0  0  0  0  0  0
  193.5824  182.2753  158.5013 H   0  0  0  0  0  0  0  0  0  0  0  0
  193.8691  183.8385  157.7335 H   0  0  0  0  0  0  0  0  0  0  0  0
  193.2368  183.7651  159.3604 H   0  0  0  0  0  0  0  0  0  0  0  0
  199.4924  182.2146  156.9078 H   0  0  0  0  0  0  0  0  0  0  0  0
  200.4564  182.0236  158.3589 H   0  0  0  0  0  0  0  0  0  0  0  0
  200.7029  183.4511  157.3551 H   0  0  0  0  0  0  0  0  0  0  0  0
  199.7848  178.2823  157.2215 H   0  0  0  0  0  0  0  0  0  0  0  0
  196.5079  183.1903  152.3347 H   0  0  0  0  0  0  0  0  0  0  0  0
  1  2  1  0
  1  5  1  0
  2  3  2  0
  2 20  1  0
  3  4  1  0
  4  5  2  0
  4  6  1  0
  5 33  1  0
  6  7  1  0
  6 34  1  6
  6 35  1  0
  7  8  1  0
  7 32  1  1
  7 65  1  0
  8  9  1  0
  8 19  1  0
  8 36  1  6
  9 10  1  0
  9 14  2  0
 10 11  2  0
 10 37  1  0
 11 12  1  0
 11 38  1  0
 12 13  2  0
 12 15  1  0
 13 14  1  0
 13 39  1  0
 14 40  1  0
 15 16  1  0
 15 41  1  1
 15 42  1  0
 16 17  1  0
 16 18  1  0
 16 64  1  1
 17 43  1  6
 17 44  1  0
 17 45  1  0
 18 46  1  6
 18 47  1  0
 18 48  1  0
 19 49  1  6
 19 50  1  0
 19 51  1  0
 20 21  1  0
 20 29  1  0
 21 22  1  0
 21 26  2  0
 22 23  2  0
 22 27  1  0
 23 24  1  0
 23 52  1  0
 24 25  2  0
 24 53  1  0
 25 26  1  0
 25 54  1  0
 26 55  1  0
 27 28  1  0
 27 56  1  6
 27 57  1  0
 28 58  1  6
 28 59  1  0
 28 60  1  0
 29 30  2  0
 29 31  1  0
 31 61  1  6
 31 62  1  0
 31 63  1  0
M  CHG  2   7   1  16   1
M  END
>  <s_epik_cmdline>  (941) 
J2VwaWtfcHl0aG9uJywgJy1waCcsICc3LjAwMDAwMCcsICctcGh0JywgJzIuMDAwMDAwJywgJy1tcycsICcxNicsICctdG4nLCAnOCcsICctbWEnLCAnMjAwJywgJy1pbWFlJywgJzxpbmZpbGUubWFlPicsICctb21hZScsICc8b3V0ZmlsZS5tYWU+Jw==

>  <s_epik_input>  (941) 
W2NIXTFbY0hdW2NIXVtjSF1jKFtDSDJdW0NIM10pYzFOKEMoPU8pW0NIM10pYzJzW2NIXWMobjIpW0NIMl1bTkhdW0NASF0oW0NIM10pYzNbY0hdW2NIXWMoW2NIXVtjSF0zKVtDSDJdTihbQ0gzXSlbQ0gzXQ==

>  <s_i_glide_gridfile>  (941) 
ATP-Grid

>  <s_lp_Force_Field>  (941) 
OPLS_2005

>  <s_lp_Variant>  (941) 
m_2230bbb____22404674____681058-1

>  <s_lp_label>  (941) 
1748_sdstereoexpander_1_neutralizer_1_epik_1_stereoizer_1

>  <s_m_source_file>  (941) 
ATP-VSW-LIGPREP-002-in.maegz

>  <s_sd_BIOSOLVEIT.INFINISEE\_QUERY\_NAME>  (941) 
Ref-Lig

>  <s_sd_BIOSOLVEIT.INFINISEE\_QUERY\_SMILES>  (941) 
S(c1nc2c(cc1C[NH2+]Cc3ccc(cc3)C[NH+](C)C)cccc2)Cc4ccccc4

>  <s_sd_BIOSOLVEIT.INFINISEE\_REACTION\_NAME>  (941) 
m_2230bbb

>  <s_sd_BIOSOLVEIT.INFINISEE\_REAGENT1\_SMILES>  (941) 
[R1*]NC(c1ccc(cc1)CN(C)C)C

>  <s_sd_BIOSOLVEIT.INFINISEE\_REAGENT2\_SMILES>  (941) 
[R1*]CC=1N=C(SC1)N(c2c(cccc2)CC)C(=O)C

>  <s_sd_BIOSOLVEIT.INFINISEE\_SPACE>  (941) 
REALSpace_44bn_2023-08

>  <s_vsw_compound_code>  (941) 
55906

>  <s_vsw_variant>  (941) 
55906-1

>  <r_epik_Charging_Adjusted_Penalty>  (941) 
0.42171508261021601

>  <r_epik_Ionization_Penalty>  (941) 
0.21110000000000001

>  <r_epik_Ionization_Penalty_Charging>  (941) 
0.21110000000000001

>  <r_epik_Ionization_Penalty_Neutral>  (941) 
0

>  <r_epik_State_Penalty>  (941) 
0.21060000000000001

>  <r_i_docking_score>  (941) 
-4.8904861423851198

>  <r_i_glide_ecoul>  (941) 
-11.229896545410201

>  <r_i_glide_eff_state_penalty>  (941) 
0.21060000000000001

>  <r_i_glide_einternal>  (941) 
6.3166451454162598

>  <r_i_glide_emodel>  (941) 
-63.066292363761598

>  <r_i_glide_energy>  (941) 
-45.318931579589801

>  <r_i_glide_erotb>  (941) 
0.72589844277573101

>  <r_i_glide_esite>  (941) 
-0.031009831489954998

>  <r_i_glide_evdw>  (941) 
-34.089035034179702

>  <r_i_glide_gscore>  (941) 
-5.1010861423851201

>  <r_i_glide_hbond>  (941) 
0

>  <r_i_glide_ligand_efficiency>  (941) 
-0.15775761749629399

>  <r_i_glide_ligand_efficiency_ln>  (941) 
-1.10295450050875

>  <r_i_glide_ligand_efficiency_sa>  (941) 
-0.495576726802953

>  <r_i_glide_lipo>  (941) 
-1.89985341147673

>  <r_i_glide_metal>  (941) 
-0

>  <r_i_glide_rewards>  (941) 
-0.50718510867365896

>  <r_lp_Energy>  (941) 
35.614708

>  <r_lp_tautomer_probability>  (941) 
1

>  <r_qp_ACxDN^.5/SA>  (941) 
0.0099632000000000002

>  <r_qp_CIQPlogS>  (941) 
-3.8010000000000002

>  <r_qp_EA(eV)>  (941) 
0.91800000000000004

>  <r_qp_FISA>  (941) 
49.896000000000001

>  <r_qp_FOSA>  (941) 
444.33800000000002

>  <r_qp_IP(eV)>  (941) 
8.9909999999999997

>  <r_qp_Jm>  (941) 
0.00076981088686286397

>  <r_qp_PISA>  (941) 
282.50599999999997

>  <r_qp_PSA>  (941) 
55.195

>  <r_qp_PercentHumanOralAbsorption>  (941) 
93.069000000000003

>  <r_qp_QPPCaco>  (941) 
207.27099999999999

>  <r_qp_QPPMDCK>  (941) 
153.80099999999999

>  <r_qp_QPlogBB>  (941) 
0.33800000000000002

>  <r_qp_QPlogHERG>  (941) 
-7.8700000000000001

>  <r_qp_QPlogKhsa>  (941) 
0.63300000000000001

>  <r_qp_QPlogKp>  (941) 
-4.7050000000000001

>  <r_qp_QPlogPC16>  (941) 
14.826000000000001

>  <r_qp_QPlogPo/w>  (941) 
4.2119999999999997

>  <r_qp_QPlogPoct>  (941) 
22.27

>  <r_qp_QPlogPw>  (941) 
11.281000000000001

>  <r_qp_QPlogS>  (941) 
-4.0490000000000004

>  <r_qp_QPpolrz>  (941) 
49.896000000000001

>  <r_qp_SASA>  (941) 
802.95100000000002

>  <r_qp_SAamideO>  (941) 
0

>  <r_qp_SAfluorine>  (941) 
0

>  <r_qp_WPSA>  (941) 
26.212

>  <r_qp_accptHB>  (941) 
8

>  <r_qp_dip^2/V>  (941) 
0.022186600000000001

>  <r_qp_dipole>  (941) 
5.7249999999999996

>  <r_qp_donorHB>  (941) 
1

>  <r_qp_glob>  (941) 
0.78132630000000003

>  <r_qp_mol_MW>  (941) 
436.61399999999998

>  <r_qp_volume>  (941) 
1477.5250000000001

>  <r_sd_BIOSOLVEIT.INFINISEE\_FTREES\_SIMILARITY>  (941) 
0.90400000000000003

>  <r_sd_BIOSOLVEIT.LOGP>  (941) 
2.8592

>  <r_sd_BIOSOLVEIT.MOLECULAR\_WEIGHT>  (941) 
438.63600000000002

>  <r_sd_BIOSOLVEIT.TPSA>  (941) 
54.25

>  <i_epik_Tot_Q>  (941) 
2

>  <i_epik_Tot_abs_Q>  (941) 
2

>  <i_f3d_flags>  (941) 
0

>  <i_i_glide_confnum>  (941) 
6

>  <i_i_glide_lignum>  (941) 
603

>  <i_i_glide_posenum>  (941) 
14

>  <i_i_glide_rotatable_bonds>  (941) 
10

>  <i_lp_mmshare_version>  (941) 
65135

>  <i_m_ct_format>  (941) 
2

>  <i_m_source_file_index>  (941) 
1748

>  <i_qp_#NandO>  (941) 
5

>  <i_qp_#acid>  (941) 
0

>  <i_qp_#amide>  (941) 
0

>  <i_qp_#amidine>  (941) 
0

>  <i_qp_#amine>  (941) 
2

>  <i_qp_#in34>  (941) 
0

>  <i_qp_#in56>  (941) 
17

>  <i_qp_#metab>  (941) 
8

>  <i_qp_#nonHatm>  (941) 
31

>  <i_qp_#noncon>  (941) 
0

>  <i_qp_#ringatoms>  (941) 
17

>  <i_qp_#rotor>  (941) 
9

>  <i_qp_#rtvFG>  (941) 
0

>  <i_qp_#stars>  (941) 
0

>  <i_qp_CNS>  (941) 
1

>  <i_qp_HumanOralAbsorption>  (941) 
3

>  <i_qp_RuleOfFive>  (941) 
0

>  <i_qp_RuleOfThree>  (941) 
1

>  <i_sd_BIOSOLVEIT.INFINISEE\_REAGENT1\_NAME>  (941) 
22404674

>  <i_sd_BIOSOLVEIT.INFINISEE\_REAGENT2\_NAME>  (941) 
681058

>  <i_sd_BIOSOLVEIT.INFINISEE\_RESULT\_RANK>  (941) 
74509

>  <i_sd_version>  (941) 
0

>  <b_lp_Chiralities_Consistent>  (941) 
1

>  <b_sd_chiral_flag>  (941) 
0

>  <canonical_id>  (941) 
ATP-HTVS-954980F32CB7

>  <compound_code>  (941) 
55906

>  <title>  (941) 
m_2230bbb____22404674____681058

>  <variant>  (941) 
55906-1

>  <source_file>  (941) 
运行/运行/ATP-VSW/ATP-VSW-DOCK_HTVS_1-002_lib.maegz

>  <canonical_smiles>  (941) 
CCc1ccccc1N(C(C)=O)c1nc(C[NH2+][C@H](C)c2ccc(C[NH+](C)C)cc2)cs1

>  <scaffold>  (941) 
c1ccc(C[NH2+]Cc2csc(Nc3ccccc3)n2)cc1

>  <molecular_formula>  (941) 
C25H34N4OS+2

$$$$
ATP-HTVS-95B9B67075F0
     RDKit          3D

 57 60  0  0  0  0  0  0  0  0999 V2000
  197.8065  184.4549  159.2400 O   0  0  0  0  0  0  0  0  0  0  0  0
  196.9480  183.9672  158.5037 C   0  0  0  0  0  0  0  0  0  0  0  0
  195.6549  183.8599  158.8409 N   0  0  0  0  0  0  0  0  0  0  0  0
  195.0776  184.3119  160.1025 C   0  0  1  0  0  0  0  0  0  0  0  0
  195.1204  185.8467  160.2485 C   0  0  1  0  0  0  0  0  0  0  0  0
  194.3085  186.3622  161.3573 C   0  0  0  0  0  0  0  0  0  0  0  0
  193.6098  186.7996  162.2700 C   0  0  0  0  0  0  0  0  0  0  0  0
  197.2968  183.5274  157.1220 C   0  0  0  0  0  0  0  0  0  0  0  0
  196.6496  182.4224  156.5250 C   0  0  0  0  0  0  0  0  0  0  0  0
  197.0179  182.0057  155.2321 C   0  0  0  0  0  0  0  0  0  0  0  0
  198.0599  182.6824  154.5438 C   0  0  0  0  0  0  0  0  0  0  0  0
  198.6889  183.7829  155.1277 C   0  0  0  0  0  0  0  0  0  0  0  0
  198.3164  184.2046  156.4188 C   0  0  0  0  0  0  0  0  0  0  0  0
  198.5285  182.2326  153.2065 C   0  0  1  0  0  0  0  0  0  0  0  0
  198.7220  183.2617  152.1789 N   0  0  0  0  0  0  0  0  0  0  0  0
  199.3187  182.6784  150.9671 C   0  0  2  0  0  0  0  0  0  0  0  0
  199.5972  183.7083  149.8657 C   0  0  0  0  0  0  0  0  0  0  0  0
  198.5175  184.2939  149.1488 C   0  0  0  0  0  0  0  0  0  0  0  0
  197.1718  184.0577  149.4590 N   0  0  0  0  0  0  0  0  0  0  0  0
  196.6627  183.9889  150.7059 C   0  0  0  0  0  0  0  0  0  0  0  0
  195.4967  183.6511  150.8712 O   0  0  0  0  0  0  0  0  0  0  0  0
  197.5818  184.2039  151.9424 C   0  0  1  0  0  0  0  0  0  0  0  0
  198.7655  185.1268  148.0539 C   0  0  0  0  0  0  0  0  0  0  0  0
  200.0865  185.4720  147.7049 C   0  0  0  0  0  0  0  0  0  0  0  0
  201.1632  184.9482  148.4447 C   0  0  0  0  0  0  0  0  0  0  0  0
  200.9282  184.0658  149.5175 C   0  0  0  0  0  0  0  0  0  0  0  0
  198.5067  181.5014  150.3879 C   0  0  0  0  0  0  0  0  0  0  0  0
  197.2022  181.1938  150.8668 C   0  0  0  0  0  0  0  0  0  0  0  0
  196.3994  180.1580  150.3525 C   0  0  0  0  0  0  0  0  0  0  0  0
  196.9210  179.4288  149.3073 C   0  0  0  0  0  0  0  0  0  0  0  0
  198.2064  179.7309  148.7847 C   0  0  0  0  0  0  0  0  0  0  0  0
  199.0061  180.7515  149.3134 C   0  0  0  0  0  0  0  0  0  0  0  0
  195.0346  183.4225  158.1727 H   0  0  0  0  0  0  0  0  0  0  0  0
  194.0442  183.9618  160.1409 H   0  0  0  0  0  0  0  0  0  0  0  0
  195.6059  183.8393  160.9287 H   0  0  0  0  0  0  0  0  0  0  0  0
  196.1459  186.1862  160.4063 H   0  0  0  0  0  0  0  0  0  0  0  0
  194.7631  186.3222  159.3367 H   0  0  0  0  0  0  0  0  0  0  0  0
  192.9975  187.1862  163.0462 H   0  0  0  0  0  0  0  0  0  0  0  0
  195.8727  181.8764  157.0410 H   0  0  0  0  0  0  0  0  0  0  0  0
  196.5048  181.1649  154.7879 H   0  0  0  0  0  0  0  0  0  0  0  0
  199.4733  184.2946  154.5714 H   0  0  0  0  0  0  0  0  0  0  0  0
  198.8423  185.0440  156.8434 H   0  0  0  0  0  0  0  0  0  0  0  0
  199.3667  181.5570  153.2825 H   0  0  0  0  0  0  0  0  0  0  0  0
  197.7507  181.4955  153.0379 H   0  0  0  0  0  0  0  0  0  0  0  0
  200.2918  182.2525  151.2530 H   0  0  0  0  0  0  0  0  0  0  0  0
  196.5354  183.8584  148.7156 H   0  0  0  0  0  0  0  0  0  0  0  0
  196.9294  184.2042  152.8181 H   0  0  0  0  0  0  0  0  0  0  0  0
  197.9453  185.2373  151.8480 H   0  0  0  0  0  0  0  0  0  0  0  0
  197.9341  185.5363  147.4964 H   0  0  0  0  0  0  0  0  0  0  0  0
  200.2578  186.1422  146.8775 H   0  0  0  0  0  0  0  0  0  0  0  0
  202.1742  185.2178  148.1675 H   0  0  0  0  0  0  0  0  0  0  0  0
  201.7728  183.6564  150.0529 H   0  0  0  0  0  0  0  0  0  0  0  0
  196.6577  181.7438  151.5878 H   0  0  0  0  0  0  0  0  0  0  0  0
  195.4460  180.0376  150.8054 H   0  0  0  0  0  0  0  0  0  0  0  0
  196.3043  178.6434  148.8972 H   0  0  0  0  0  0  0  0  0  0  0  0
  198.5784  179.1482  147.9390 H   0  0  0  0  0  0  0  0  0  0  0  0
  199.9700  180.9919  148.9016 H   0  0  0  0  0  0  0  0  0  0  0  0
  1  2  2  0
  2  3  1  0
  2  8  1  0
  3  4  1  0
  3 33  1  0
  4  5  1  0
  4 34  1  6
  4 35  1  0
  5  6  1  0
  5 36  1  1
  5 37  1  0
  6  7  3  0
  7 38  1  0
  8  9  1  0
  8 13  2  0
  9 10  2  0
  9 39  1  0
 10 11  1  0
 10 40  1  0
 11 12  2  0
 11 14  1  0
 12 13  1  0
 12 41  1  0
 13 42  1  0
 14 15  1  0
 14 43  1  1
 14 44  1  0
 15 16  1  0
 15 22  1  0
 16 17  1  0
 16 27  1  0
 16 45  1  1
 17 18  1  0
 17 26  2  0
 18 19  1  0
 18 23  2  0
 19 20  1  0
 19 46  1  0
 20 21  2  0
 20 22  1  0
 22 47  1  1
 22 48  1  0
 23 24  1  0
 23 49  1  0
 24 25  2  0
 24 50  1  0
 25 26  1  0
 25 51  1  0
 26 52  1  0
 27 28  2  0
 27 32  1  0
 28 29  1  0
 28 53  1  0
 29 30  2  0
 29 54  1  0
 30 31  1  0
 30 55  1  0
 31 32  2  0
 31 56  1  0
 32 57  1  0
M  END
>  <s_epik_cmdline>  (942) 
J2VwaWtfcHl0aG9uJywgJy1waCcsICc3LjAwMDAwMCcsICctcGh0JywgJzIuMDAwMDAwJywgJy1tcycsICcxNicsICctdG4nLCAnOCcsICctbWEnLCAnMjAwJywgJy1pbWFlJywgJzxpbmZpbGUubWFlPicsICctb21hZScsICc8b3V0ZmlsZS5tYWU+Jw==

>  <s_epik_input>  (942) 
W0NIXSNDW0NIMl1bQ0gyXVtOSF1DKD1PKWMxW2NIXVtjSF1jKFtjSF1bY0hdMSlbQ0gyXU4oW0NASF0yYzNbY0hdW2NIXVtjSF1bY0hdW2NIXTMpW0NIMl1DKD1PKVtOSF1jKGMyNClbY0hdW2NIXVtjSF1bY0hdNA==

>  <s_i_glide_gridfile>  (942) 
ATP-Grid

>  <s_lp_Force_Field>  (942) 
OPLS_2005

>  <s_lp_Variant>  (942) 
rxn512c____EMOL29781770____EMOL493239____EMOL6185419-2

>  <s_lp_label>  (942) 
2421_sdstereoexpander_3_neutralizer_1_epik_1_stereoizer_1

>  <s_m_source_file>  (942) 
ATP-VSW-LIGPREP-003-in.maegz

>  <s_sd_BIOSOLVEIT.INFINISEE\_QUERY\_NAME>  (942) 
Ref-Lig

>  <s_sd_BIOSOLVEIT.INFINISEE\_QUERY\_SMILES>  (942) 
S(c1nc2c(cc1C[NH2+]Cc3ccc(cc3)C[NH+](C)C)cccc2)Cc4ccccc4

>  <s_sd_BIOSOLVEIT.INFINISEE\_REACTION\_NAME>  (942) 
rxn512c

>  <s_sd_BIOSOLVEIT.INFINISEE\_REAGENT1\_NAME>  (942) 
EMOL29781770

>  <s_sd_BIOSOLVEIT.INFINISEE\_REAGENT1\_SMILES>  (942) 
NCCC#C

>  <s_sd_BIOSOLVEIT.INFINISEE\_REAGENT2\_NAME>  (942) 
EMOL493239

>  <s_sd_BIOSOLVEIT.INFINISEE\_REAGENT2\_SMILES>  (942) 
ClCc1ccc(cc1)C(=O)O

>  <s_sd_BIOSOLVEIT.INFINISEE\_REAGENT3\_NAME>  (942) 
EMOL6185419

>  <s_sd_BIOSOLVEIT.INFINISEE\_REAGENT3\_SMILES>  (942) 
O=C1Nc2c(cccc2)C(NC1)c3ccccc3

>  <s_sd_BIOSOLVEIT.INFINISEE\_SPACE>  (942) 
eXplore_7tr_2022-12

>  <s_vsw_compound_code>  (942) 
77443

>  <s_vsw_variant>  (942) 
77443-2

>  <r_epik_Charging_Adjusted_Penalty>  (942) 
0.0087634984339075902

>  <r_epik_Ionization_Penalty>  (942) 
0.0088000000000000005

>  <r_epik_Ionization_Penalty_Charging>  (942) 
0

>  <r_epik_Ionization_Penalty_Neutral>  (942) 
0.0088000000000000005

>  <r_epik_State_Penalty>  (942) 
0.0088000000000000005

>  <r_i_docking_score>  (942) 
-3.60768913216631

>  <r_i_glide_ecoul>  (942) 
-2.6238651275634801

>  <r_i_glide_eff_state_penalty>  (942) 
0.0088000000000000005

>  <r_i_glide_einternal>  (942) 
0.85123425722122203

>  <r_i_glide_emodel>  (942) 
-45.872789469333199

>  <r_i_glide_energy>  (942) 
-37.713811874389599

>  <r_i_glide_erotb>  (942) 
0.88404481986588901

>  <r_i_glide_esite>  (942) 
0

>  <r_i_glide_evdw>  (942) 
-35.0899467468262

>  <r_i_glide_gscore>  (942) 
-3.61648913216631

>  <r_i_glide_hbond>  (942) 
-0.18310102039603399

>  <r_i_glide_ligand_efficiency>  (942) 
-0.11274028538019699

>  <r_i_glide_ligand_efficiency_ln>  (942) 
-0.80785993858358696

>  <r_i_glide_ligand_efficiency_sa>  (942) 
-0.35792809480994497

>  <r_i_glide_lipo>  (942) 
-1.47590251403886

>  <r_i_glide_metal>  (942) 
-0

>  <r_i_glide_rewards>  (942) 
-0.69345331112147202

>  <r_lp_Energy>  (942) 
54.538896999999999

>  <r_qp_ACxDN^.5/SA>  (942) 
0.014656300000000001

>  <r_qp_CIQPlogS>  (942) 
-4.8470000000000004

>  <r_qp_EA(eV)>  (942) 
0.44500000000000001

>  <r_qp_FISA>  (942) 
108.035

>  <r_qp_FOSA>  (942) 
177.93700000000001

>  <r_qp_IP(eV)>  (942) 
9.5169999999999995

>  <r_qp_Jm>  (942) 
0.0014301288541237001

>  <r_qp_PISA>  (942) 
469.19600000000003

>  <r_qp_PSA>  (942) 
77.546000000000006

>  <r_qp_PercentHumanOralAbsorption>  (942) 
92.724999999999994

>  <r_qp_QPPCaco>  (942) 
233.50700000000001

>  <r_qp_QPPMDCK>  (942) 
113.61499999999999

>  <r_qp_QPlogBB>  (942) 
-0.55500000000000005

>  <r_qp_QPlogHERG>  (942) 
-7.8979999999999997

>  <r_qp_QPlogKhsa>  (942) 
0.64000000000000001

>  <r_qp_QPlogKp>  (942) 
-3.3439999999999999

>  <r_qp_QPlogPC16>  (942) 
15.662000000000001

>  <r_qp_QPlogPo/w>  (942) 
3.9950000000000001

>  <r_qp_QPlogPoct>  (942) 
24.013999999999999

>  <r_qp_QPlogPw>  (942) 
14.696

>  <r_qp_QPlogS>  (942) 
-5.1269999999999998

>  <r_qp_QPpolrz>  (942) 
49.277000000000001

>  <r_qp_SASA>  (942) 
755.16899999999998

>  <r_qp_SAamideO>  (942) 
0

>  <r_qp_SAfluorine>  (942) 
0

>  <r_qp_WPSA>  (942) 
0

>  <r_qp_accptHB>  (942) 
7

>  <r_qp_dip^2/V>  (942) 
0.0042265000000000002

>  <r_qp_dipole>  (942) 
2.4060000000000001

>  <r_qp_donorHB>  (942) 
2.5

>  <r_qp_glob>  (942) 
0.78971270000000005

>  <r_qp_mol_MW>  (942) 
423.51299999999998

>  <r_qp_volume>  (942) 
1369.375

>  <r_sd_BIOSOLVEIT.INFINISEE\_FTREES\_SIMILARITY>  (942) 
0.91700000000000004

>  <r_sd_BIOSOLVEIT.LOGP>  (942) 
2.5663

>  <r_sd_BIOSOLVEIT.MOLECULAR\_WEIGHT>  (942) 
424.52100000000002

>  <r_sd_BIOSOLVEIT.TPSA>  (942) 
62.640000000000001

>  <i_epik_Tot_Q>  (942) 
0

>  <i_epik_Tot_abs_Q>  (942) 
0

>  <i_f3d_flags>  (942) 
0

>  <i_i_glide_confnum>  (942) 
15

>  <i_i_glide_lignum>  (942) 
1036

>  <i_i_glide_posenum>  (942) 
5

>  <i_i_glide_rotatable_bonds>  (942) 
8

>  <i_lp_mmshare_version>  (942) 
65135

>  <i_m_ct_format>  (942) 
2

>  <i_m_source_file_index>  (942) 
2421

>  <i_qp_#NandO>  (942) 
5

>  <i_qp_#acid>  (942) 
0

>  <i_qp_#amide>  (942) 
0

>  <i_qp_#amidine>  (942) 
0

>  <i_qp_#amine>  (942) 
1

>  <i_qp_#in34>  (942) 
0

>  <i_qp_#in56>  (942) 
18

>  <i_qp_#metab>  (942) 
8

>  <i_qp_#nonHatm>  (942) 
32

>  <i_qp_#noncon>  (942) 
2

>  <i_qp_#ringatoms>  (942) 
23

>  <i_qp_#rotor>  (942) 
6

>  <i_qp_#rtvFG>  (942) 
0

>  <i_qp_#stars>  (942) 
1

>  <i_qp_CNS>  (942) 
0

>  <i_qp_HumanOralAbsorption>  (942) 
3

>  <i_qp_RuleOfFive>  (942) 
0

>  <i_qp_RuleOfThree>  (942) 
1

>  <i_sd_BIOSOLVEIT.INFINISEE\_RESULT\_RANK>  (942) 
22518

>  <i_sd_version>  (942) 
0

>  <b_lp_Chiralities_Consistent>  (942) 
1

>  <b_sd_chiral_flag>  (942) 
0

>  <canonical_id>  (942) 
ATP-HTVS-95B9B67075F0

>  <compound_code>  (942) 
77443

>  <title>  (942) 
rxn512c____EMOL29781770____EMOL493239____EMOL6185419

>  <variant>  (942) 
77443-2

>  <source_file>  (942) 
运行/运行/ATP-VSW/ATP-VSW-DOCK_HTVS_1-003_lib/ATP-VSW-DOCK_HTVS_1-003_lib.mae

>  <canonical_smiles>  (942) 
C#CCCNC(=O)c1ccc(CN2CC(=O)Nc3ccccc3[C@@H]2c2ccccc2)cc1

>  <scaffold>  (942) 
O=C1CN(Cc2ccccc2)C(c2ccccc2)c2ccccc2N1

>  <molecular_formula>  (942) 
C27H25N3O2

$$$$
ATP-HTVS-95C9BC6D1CE7
     RDKit          3D

 49 51  0  0  0  0  0  0  0  0999 V2000
  196.3522  180.7321  151.7410 Br  0  0  0  0  0  0  0  0  0  0  0  0
  196.7461  181.8406  153.2391 C   0  0  0  0  0  0  0  0  0  0  0  0
  196.5486  181.3114  154.4627 N   0  0  0  0  0  0  0  0  0  0  0  0
  196.8271  182.0645  155.5471 C   0  0  0  0  0  0  0  0  0  0  0  0
  196.5753  181.4619  156.7748 N   0  0  0  0  0  0  0  0  0  0  0  0
  197.2056  181.8956  157.9964 C   0  0  1  0  0  0  0  0  0  0  0  0
  196.5995  183.1239  158.6267 C   0  0  0  0  0  0  0  0  0  0  0  0
  195.2011  183.3068  158.6033 C   0  0  0  0  0  0  0  0  0  0  0  0
  194.6437  184.4526  159.1848 C   0  0  0  0  0  0  0  0  0  0  0  0
  195.4693  185.4153  159.7957 C   0  0  0  0  0  0  0  0  0  0  0  0
  194.8556  186.5376  160.3601 N   0  0  0  0  0  0  0  0  0  0  0  0
  195.5754  187.4596  161.2295 C   0  0  1  0  0  0  0  0  0  0  0  0
  196.4348  188.5052  160.4764 C   0  0  1  0  0  0  0  0  0  0  0  0
  196.7680  189.5686  161.3404 O   0  0  0  0  0  0  0  0  0  0  0  0
  196.8691  185.2205  159.8218 C   0  0  0  0  0  0  0  0  0  0  0  0
  197.4328  184.0791  159.2369 C   0  0  0  0  0  0  0  0  0  0  0  0
  197.3430  183.3787  155.4390 C   0  0  0  0  0  0  0  0  0  0  0  0
  197.5278  183.9332  154.1653 C   0  0  0  0  0  0  0  0  0  0  0  0
  197.2403  183.1492  153.0234 C   0  0  0  0  0  0  0  0  0  0  0  0
  197.4035  183.5802  151.7270 O   0  0  0  0  0  0  0  0  0  0  0  0
  198.1162  184.7915  151.5098 C   0  0  1  0  0  0  0  0  0  0  0  0
  198.3595  185.0107  150.0305 C   0  0  0  0  0  0  0  0  0  0  0  0
  197.3130  184.8319  149.1027 C   0  0  0  0  0  0  0  0  0  0  0  0
  197.5506  185.0335  147.7263 C   0  0  0  0  0  0  0  0  0  0  0  0
  198.8216  185.4320  147.2789 C   0  0  0  0  0  0  0  0  0  0  0  0
  199.8636  185.6246  148.2076 C   0  0  0  0  0  0  0  0  0  0  0  0
  199.6291  185.4246  149.5816 C   0  0  0  0  0  0  0  0  0  0  0  0
  196.1464  180.5239  156.8483 H   0  0  0  0  0  0  0  0  0  0  0  0
  197.0765  181.0850  158.7089 H   0  0  0  0  0  0  0  0  0  0  0  0
  198.2762  182.0467  157.8283 H   0  0  0  0  0  0  0  0  0  0  0  0
  194.5616  182.5755  158.1277 H   0  0  0  0  0  0  0  0  0  0  0  0
  193.5715  184.5894  159.1312 H   0  0  0  0  0  0  0  0  0  0  0  0
  193.8505  186.6124  160.2753 H   0  0  0  0  0  0  0  0  0  0  0  0
  194.8065  187.9645  161.8093 H   0  0  0  0  0  0  0  0  0  0  0  0
  196.1628  186.8888  161.9470 H   0  0  0  0  0  0  0  0  0  0  0  0
  197.3520  188.0983  160.0534 H   0  0  0  0  0  0  0  0  0  0  0  0
  195.8913  188.9284  159.6378 H   0  0  0  0  0  0  0  0  0  0  0  0
  197.6128  189.4065  161.7592 H   0  0  0  0  0  0  0  0  0  0  0  0
  197.5433  185.9199  160.2802 H   0  0  0  0  0  0  0  0  0  0  0  0
  198.5050  183.9468  159.2602 H   0  0  0  0  0  0  0  0  0  0  0  0
  197.5461  183.9808  156.3111 H   0  0  0  0  0  0  0  0  0  0  0  0
  197.8766  184.9517  154.0909 H   0  0  0  0  0  0  0  0  0  0  0  0
  197.5540  185.6404  151.9025 H   0  0  0  0  0  0  0  0  0  0  0  0
  199.0723  184.7555  152.0354 H   0  0  0  0  0  0  0  0  0  0  0  0
  196.3340  184.5264  149.4392 H   0  0  0  0  0  0  0  0  0  0  0  0
  196.7480  184.8923  147.0172 H   0  0  0  0  0  0  0  0  0  0  0  0
  198.9999  185.5911  146.2245 H   0  0  0  0  0  0  0  0  0  0  0  0
  200.8410  185.9327  147.8652 H   0  0  0  0  0  0  0  0  0  0  0  0
  200.4340  185.5692  150.2866 H   0  0  0  0  0  0  0  0  0  0  0  0
  1  2  1  0
  2  3  2  0
  2 19  1  0
  3  4  1  0
  4  5  1  0
  4 17  2  0
  5  6  1  0
  5 28  1  0
  6  7  1  0
  6 29  1  1
  6 30  1  0
  7  8  1  0
  7 16  2  0
  8  9  2  0
  8 31  1  0
  9 10  1  0
  9 32  1  0
 10 11  1  0
 10 15  2  0
 11 12  1  0
 11 33  1  0
 12 13  1  0
 12 34  1  1
 12 35  1  0
 13 14  1  0
 13 36  1  6
 13 37  1  0
 14 38  1  0
 15 16  1  0
 15 39  1  0
 16 40  1  0
 17 18  1  0
 17 41  1  0
 18 19  2  0
 18 42  1  0
 19 20  1  0
 20 21  1  0
 21 22  1  0
 21 43  1  1
 21 44  1  0
 22 23  2  0
 22 27  1  0
 23 24  1  0
 23 45  1  0
 24 25  2  0
 24 46  1  0
 25 26  1  0
 25 47  1  0
 26 27  2  0
 26 48  1  0
 27 49  1  0
M  END
>  <s_epik_cmdline>  (943) 
J2VwaWtfcHl0aG9uJywgJy1waCcsICc3LjAwMDAwMCcsICctcGh0JywgJzIuMDAwMDAwJywgJy1tcycsICcxNicsICctdG4nLCAnOCcsICctbWEnLCAnMjAwJywgJy1pbWFlJywgJzxpbmZpbGUubWFlPicsICctb21hZScsICc8b3V0ZmlsZS5tYWU+Jw==

>  <s_epik_input>  (943) 
W09IXVtDSDJdW0NIMl1bTkhdYyhbY0hdW2NIXTEpW2NIXVtjSF1jMVtDSDJdW05IXWMobmMyQnIpW2NIXVtjSF1jMk9bQ0gyXWMzW2NIXVtjSF1bY0hdW2NIXVtjSF0z

>  <s_i_glide_gridfile>  (943) 
ATP-Grid

>  <s_lp_Force_Field>  (943) 
OPLS_2005

>  <s_lp_Variant>  (943) 
rxn102a____EMOL31260559____EMOL324170366-1

>  <s_lp_label>  (943) 
2476_sdstereoexpander_1_neutralizer_1_epik_1_stereoizer_1

>  <s_m_source_file>  (943) 
ATP-VSW-LIGPREP-002-in.maegz

>  <s_sd_BIOSOLVEIT.INFINISEE\_QUERY\_NAME>  (943) 
Ref-Lig

>  <s_sd_BIOSOLVEIT.INFINISEE\_QUERY\_SMILES>  (943) 
S(c1nc2c(cc1C[NH2+]Cc3ccc(cc3)C[NH+](C)C)cccc2)Cc4ccccc4

>  <s_sd_BIOSOLVEIT.INFINISEE\_REACTION\_NAME>  (943) 
rxn102a

>  <s_sd_BIOSOLVEIT.INFINISEE\_REAGENT1\_NAME>  (943) 
EMOL31260559

>  <s_sd_BIOSOLVEIT.INFINISEE\_REAGENT1\_SMILES>  (943) 
Ic1nc(Br)c(OCc2ccccc2)cc1

>  <s_sd_BIOSOLVEIT.INFINISEE\_REAGENT2\_NAME>  (943) 
EMOL324170366

>  <s_sd_BIOSOLVEIT.INFINISEE\_REAGENT2\_SMILES>  (943) 
OCCNc1ccc(cc1)CN

>  <s_sd_BIOSOLVEIT.INFINISEE\_SPACE>  (943) 
eXplore_7tr_2022-12

>  <s_vsw_compound_code>  (943) 
79202

>  <s_vsw_variant>  (943) 
79202-1

>  <r_epik_Charging_Adjusted_Penalty>  (943) 
0.0117043856515906

>  <r_epik_Ionization_Penalty>  (943) 
0.011900000000000001

>  <r_epik_Ionization_Penalty_Charging>  (943) 
0

>  <r_epik_Ionization_Penalty_Neutral>  (943) 
0.011900000000000001

>  <r_epik_State_Penalty>  (943) 
0.0117

>  <r_i_docking_score>  (943) 
-4.7767273627266302

>  <r_i_glide_ecoul>  (943) 
-6.9491510391235396

>  <r_i_glide_eff_state_penalty>  (943) 
0.0117

>  <r_i_glide_einternal>  (943) 
4.9198203086853001

>  <r_i_glide_emodel>  (943) 
-54.693269501990699

>  <r_i_glide_energy>  (943) 
-43.233632087707498

>  <r_i_glide_erotb>  (943) 
0.97440387492951297

>  <r_i_glide_esite>  (943) 
-0.10000000000000001

>  <r_i_glide_evdw>  (943) 
-36.284481048583999

>  <r_i_glide_gscore>  (943) 
-4.7884273627266296

>  <r_i_glide_hbond>  (943) 
-0.33952624083078198

>  <r_i_glide_ligand_efficiency>  (943) 
-0.17691582824913499

>  <r_i_glide_ligand_efficiency_ln>  (943) 
-1.1119433795375

>  <r_i_glide_ligand_efficiency_sa>  (943) 
-0.53074748416431805

>  <r_i_glide_lipo>  (943) 
-1.97799656125491

>  <r_i_glide_metal>  (943) 
-0

>  <r_i_glide_rewards>  (943) 
-0.48871172727272699

>  <r_lp_Energy>  (943) 
26.620801

>  <r_lp_tautomer_probability>  (943) 
0.99999999818749996

>  <r_qp_ACxDN^.5/SA>  (943) 
0.0115931

>  <r_qp_CIQPlogS>  (943) 
-6.8250000000000002

>  <r_qp_EA(eV)>  (943) 
0.079000000000000001

>  <r_qp_FISA>  (943) 
98.430000000000007

>  <r_qp_FOSA>  (943) 
154.86600000000001

>  <r_qp_IP(eV)>  (943) 
8.0419999999999998

>  <r_qp_Jm>  (943) 
0.029013248579079401

>  <r_qp_PISA>  (943) 
417.38600000000002

>  <r_qp_PSA>  (943) 
65.891000000000005

>  <r_qp_PercentHumanOralAbsorption>  (943) 
100

>  <r_qp_QPPCaco>  (943) 
1154.75

>  <r_qp_QPPMDCK>  (943) 
1377.643

>  <r_qp_QPlogBB>  (943) 
-0.98599999999999999

>  <r_qp_QPlogHERG>  (943) 
-7.2930000000000001

>  <r_qp_QPlogKhsa>  (943) 
0.505

>  <r_qp_QPlogKp>  (943) 
-0.90300000000000002

>  <r_qp_QPlogPC16>  (943) 
14.975

>  <r_qp_QPlogPo/w>  (943) 
4.8559999999999999

>  <r_qp_QPlogPoct>  (943) 
21.48

>  <r_qp_QPlogPw>  (943) 
12.095000000000001

>  <r_qp_QPlogS>  (943) 
-6.266

>  <r_qp_QPpolrz>  (943) 
42.246000000000002

>  <r_qp_SASA>  (943) 
739.548

>  <r_qp_SAamideO>  (943) 
0

>  <r_qp_SAfluorine>  (943) 
0

>  <r_qp_WPSA>  (943) 
68.864999999999995

>  <r_qp_accptHB>  (943) 
4.9500000000000002

>  <r_qp_dip^2/V>  (943) 
0.0309917

>  <r_qp_dipole>  (943) 
6.274

>  <r_qp_donorHB>  (943) 
3

>  <r_qp_glob>  (943) 
0.76699249999999997

>  <r_qp_mol_MW>  (943) 
428.32799999999997

>  <r_qp_volume>  (943) 
1270.248

>  <r_sd_BIOSOLVEIT.INFINISEE\_FTREES\_SIMILARITY>  (943) 
0.91500000000000004

>  <r_sd_BIOSOLVEIT.LOGP>  (943) 
4.4394

>  <r_sd_BIOSOLVEIT.MOLECULAR\_WEIGHT>  (943) 
428.32799999999997

>  <r_sd_BIOSOLVEIT.TPSA>  (943) 
66.409999999999997

>  <i_epik_Tot_Q>  (943) 
0

>  <i_epik_Tot_abs_Q>  (943) 
0

>  <i_f3d_flags>  (943) 
0

>  <i_i_glide_confnum>  (943) 
4

>  <i_i_glide_lignum>  (943) 
1067

>  <i_i_glide_posenum>  (943) 
11

>  <i_i_glide_rotatable_bonds>  (943) 
10

>  <i_lp_mmshare_version>  (943) 
65135

>  <i_m_ct_format>  (943) 
2

>  <i_m_source_file_index>  (943) 
2476

>  <i_qp_#NandO>  (943) 
5

>  <i_qp_#acid>  (943) 
0

>  <i_qp_#amide>  (943) 
0

>  <i_qp_#amidine>  (943) 
0

>  <i_qp_#amine>  (943) 
0

>  <i_qp_#in34>  (943) 
0

>  <i_qp_#in56>  (943) 
18

>  <i_qp_#metab>  (943) 
6

>  <i_qp_#nonHatm>  (943) 
27

>  <i_qp_#noncon>  (943) 
0

>  <i_qp_#ringatoms>  (943) 
18

>  <i_qp_#rotor>  (943) 
10

>  <i_qp_#rtvFG>  (943) 
0

>  <i_qp_#stars>  (943) 
0

>  <i_qp_CNS>  (943) 
-1

>  <i_qp_HumanOralAbsorption>  (943) 
1

>  <i_qp_RuleOfFive>  (943) 
0

>  <i_qp_RuleOfThree>  (943) 
1

>  <i_sd_BIOSOLVEIT.INFINISEE\_RESULT\_RANK>  (943) 
28416

>  <i_sd_version>  (943) 
0

>  <b_lp_Chiralities_Consistent>  (943) 
1

>  <b_sd_chiral_flag>  (943) 
0

>  <canonical_id>  (943) 
ATP-HTVS-95C9BC6D1CE7

>  <compound_code>  (943) 
79202

>  <title>  (943) 
rxn102a____EMOL31260559____EMOL324170366

>  <variant>  (943) 
79202-1

>  <source_file>  (943) 
运行/运行/ATP-VSW/ATP-VSW-DOCK_HTVS_1-002_lib.maegz

>  <canonical_smiles>  (943) 
OCCNc1ccc(CNc2ccc(OCc3ccccc3)c(Br)n2)cc1

>  <scaffold>  (943) 
c1ccc(CNc2ccc(OCc3ccccc3)cn2)cc1

>  <molecular_formula>  (943) 
C21H22BrN3O2

$$$$
ATP-HTVS-95D1FAD4F080
     RDKit          3D

 59 62  0  0  0  0  0  0  0  0999 V2000
  201.1410  176.5360  155.4986 O   0  0  0  0  0  0  0  0  0  0  0  0
  200.7782  176.6040  154.3244 C   0  0  0  0  0  0  0  0  0  0  0  0
  199.9526  177.5394  153.8143 N   0  0  0  0  0  0  0  0  0  0  0  0
  199.3056  178.6380  154.4514 C   0  0  0  0  0  0  0  0  0  0  0  0
  199.5679  178.9632  155.7315 N   0  0  0  0  0  0  0  0  0  0  0  0
  198.9160  179.9838  156.3094 C   0  0  0  0  0  0  0  0  0  0  0  0
  197.9740  180.8002  155.6442 C   0  0  0  0  0  0  0  0  0  0  0  0
  197.3535  181.8949  156.2801 N   0  0  0  0  0  0  0  0  0  0  0  0
  197.2917  181.9353  157.7308 C   0  0  1  0  0  0  0  0  0  0  0  0
  196.6637  183.1962  158.2840 C   0  0  0  0  0  0  0  0  0  0  0  0
  197.2090  184.4527  157.9531 C   0  0  0  0  0  0  0  0  0  0  0  0
  196.6598  185.6339  158.4919 C   0  0  0  0  0  0  0  0  0  0  0  0
  195.5479  185.5478  159.3559 C   0  0  0  0  0  0  0  0  0  0  0  0
  194.9989  184.2936  159.6824 C   0  0  0  0  0  0  0  0  0  0  0  0
  195.5601  183.1153  159.1552 C   0  0  0  0  0  0  0  0  0  0  0  0
  197.2526  186.9861  158.1398 C   0  0  1  0  0  0  0  0  0  0  0  0
  198.2970  187.4219  159.1031 N   0  0  1  0  0  0  0  0  0  0  0  0
  199.4943  186.5464  159.1182 C   0  0  2  0  0  0  0  0  0  0  0  0
  198.6659  188.8431  158.9162 C   0  0  2  0  0  0  0  0  0  0  0  0
  197.6873  180.4716  154.2946 C   0  0  0  0  0  0  0  0  0  0  0  0
  198.3608  179.3761  153.6816 C   0  0  0  0  0  0  0  0  0  0  0  0
  198.0600  179.0463  152.3323 C   0  0  0  0  0  0  0  0  0  0  0  0
  197.1190  179.7961  151.6004 C   0  0  0  0  0  0  0  0  0  0  0  0
  196.4671  180.8840  152.2039 C   0  0  0  0  0  0  0  0  0  0  0  0
  196.7491  181.2191  153.5403 C   0  0  0  0  0  0  0  0  0  0  0  0
  201.1795  175.5347  153.3432 C   0  0  0  0  0  0  0  0  0  0  0  0
  201.2163  175.7915  151.9500 C   0  0  0  0  0  0  0  0  0  0  0  0
  201.5909  174.7798  151.0446 C   0  0  0  0  0  0  0  0  0  0  0  0
  201.6028  175.0603  149.6187 C   0  0  0  0  0  0  0  0  0  0  0  0
  201.6114  175.2858  148.4854 N   0  0  0  0  0  0  0  0  0  0  0  0
  201.9511  173.5045  151.5223 C   0  0  0  0  0  0  0  0  0  0  0  0
  201.9318  173.2415  152.9056 C   0  0  0  0  0  0  0  0  0  0  0  0
  201.5490  174.2518  153.8109 C   0  0  0  0  0  0  0  0  0  0  0  0
  199.7357  177.4290  152.8367 H   0  0  0  0  0  0  0  0  0  0  0  0
  199.1994  180.1445  157.3338 H   0  0  0  0  0  0  0  0  0  0  0  0
  196.5544  182.3096  155.8218 H   0  0  0  0  0  0  0  0  0  0  0  0
  196.7648  181.0509  158.0961 H   0  0  0  0  0  0  0  0  0  0  0  0
  198.3015  181.9118  158.1307 H   0  0  0  0  0  0  0  0  0  0  0  0
  198.0620  184.4970  157.2894 H   0  0  0  0  0  0  0  0  0  0  0  0
  195.1009  186.4432  159.7633 H   0  0  0  0  0  0  0  0  0  0  0  0
  194.1397  184.2334  160.3339 H   0  0  0  0  0  0  0  0  0  0  0  0
  195.1444  182.1507  159.4126 H   0  0  0  0  0  0  0  0  0  0  0  0
  197.6570  186.9591  157.1272 H   0  0  0  0  0  0  0  0  0  0  0  0
  196.4424  187.7166  158.1248 H   0  0  0  0  0  0  0  0  0  0  0  0
  199.9657  186.5131  158.1349 H   0  0  0  0  0  0  0  0  0  0  0  0
  199.2424  185.5273  159.4123 H   0  0  0  0  0  0  0  0  0  0  0  0
  200.2347  186.9075  159.8327 H   0  0  0  0  0  0  0  0  0  0  0  0
  199.1174  189.0027  157.9357 H   0  0  0  0  0  0  0  0  0  0  0  0
  199.3816  189.1610  159.6761 H   0  0  0  0  0  0  0  0  0  0  0  0
  197.7920  189.4907  158.9982 H   0  0  0  0  0  0  0  0  0  0  0  0
  198.5315  178.2206  151.8243 H   0  0  0  0  0  0  0  0  0  0  0  0
  196.9016  179.5386  150.5739 H   0  0  0  0  0  0  0  0  0  0  0  0
  195.7483  181.4655  151.6439 H   0  0  0  0  0  0  0  0  0  0  0  0
  196.2176  182.0539  153.9768 H   0  0  0  0  0  0  0  0  0  0  0  0
  200.9721  176.7673  151.5550 H   0  0  0  0  0  0  0  0  0  0  0  0
  202.2406  172.7231  150.8340 H   0  0  0  0  0  0  0  0  0  0  0  0
  202.2203  172.2664  153.2766 H   0  0  0  0  0  0  0  0  0  0  0  0
  201.5502  174.0393  154.8716 H   0  0  0  0  0  0  0  0  0  0  0  0
  197.8803  187.3606  160.0216 H   0  0  0  0  0  0  0  0  0  0  0  0
  1  2  2  0
  2  3  1  0
  2 26  1  0
  3  4  1  0
  3 34  1  0
  4  5  1  0
  4 21  2  0
  5  6  2  0
  6  7  1  0
  6 35  1  0
  7  8  1  0
  7 20  2  0
  8  9  1  0
  8 36  1  0
  9 10  1  0
  9 37  1  1
  9 38  1  0
 10 11  2  0
 10 15  1  0
 11 12  1  0
 11 39  1  0
 12 13  2  0
 12 16  1  0
 13 14  1  0
 13 40  1  0
 14 15  2  0
 14 41  1  0
 15 42  1  0
 16 17  1  0
 16 43  1  6
 16 44  1  0
 17 18  1  0
 17 19  1  0
 17 59  1  1
 18 45  1  6
 18 46  1  0
 18 47  1  0
 19 48  1  6
 19 49  1  0
 19 50  1  0
 20 21  1  0
 20 25  1  0
 21 22  1  0
 22 23  2  0
 22 51  1  0
 23 24  1  0
 23 52  1  0
 24 25  2  0
 24 53  1  0
 25 54  1  0
 26 27  1  0
 26 33  2  0
 27 28  2  0
 27 55  1  0
 28 29  1  0
 28 31  1  0
 29 30  3  0
 31 32  2  0
 31 56  1  0
 32 33  1  0
 32 57  1  0
 33 58  1  0
M  CHG  1  17   1
M  END
>  <s_epik_cmdline>  (944) 
J2VwaWtfcHl0aG9uJywgJy1waCcsICc3LjAwMDAwMCcsICctcGh0JywgJzIuMDAwMDAwJywgJy1tcycsICcxNicsICctdG4nLCAnOCcsICctbWEnLCAnMjAwJywgJy1pbWFlJywgJzxpbmZpbGUubWFlPicsICctb21hZScsICc8b3V0ZmlsZS5tYWU+Jw==

>  <s_epik_input>  (944) 
W2NIXTFbY0hdW2NIXWMoQyNOKVtjSF1jMUMoPU8pW05IXWMoYyhjMjMpW2NIXVtjSF1bY0hdW2NIXTMpbltjSF1jMltOSF1bQ0gyXWM0W2NIXWMoW2NIXVtjSF1bY0hdNClbQ0gyXU4oW0NIM10pW0NIM10=

>  <s_i_glide_gridfile>  (944) 
ATP-Grid

>  <s_lp_Force_Field>  (944) 
OPLS_2005

>  <s_lp_Variant>  (944) 
rxn502b____EMOL483931____EMOL7515103____EMOL2873214-1

>  <s_lp_label>  (944) 
2247_sdstereoexpander_1_neutralizer_1_epik_1_stereoizer_1

>  <s_m_source_file>  (944) 
ATP-VSW-LIGPREP-003-in.maegz

>  <s_sd_BIOSOLVEIT.INFINISEE\_QUERY\_NAME>  (944) 
Ref-Lig

>  <s_sd_BIOSOLVEIT.INFINISEE\_QUERY\_SMILES>  (944) 
S(c1nc2c(cc1C[NH2+]Cc3ccc(cc3)C[NH+](C)C)cccc2)Cc4ccccc4

>  <s_sd_BIOSOLVEIT.INFINISEE\_REACTION\_NAME>  (944) 
rxn502b

>  <s_sd_BIOSOLVEIT.INFINISEE\_REAGENT1\_NAME>  (944) 
EMOL483931

>  <s_sd_BIOSOLVEIT.INFINISEE\_REAGENT1\_SMILES>  (944) 
O=C(O)c1cc(C#N)ccc1

>  <s_sd_BIOSOLVEIT.INFINISEE\_REAGENT2\_NAME>  (944) 
EMOL7515103

>  <s_sd_BIOSOLVEIT.INFINISEE\_REAGENT2\_SMILES>  (944) 
Brc1c2c(c(nc1)N)cccc2

>  <s_sd_BIOSOLVEIT.INFINISEE\_REAGENT3\_NAME>  (944) 
EMOL2873214

>  <s_sd_BIOSOLVEIT.INFINISEE\_REAGENT3\_SMILES>  (944) 
N(Cc1cc(ccc1)CN)(C)C

>  <s_sd_BIOSOLVEIT.INFINISEE\_SPACE>  (944) 
eXplore_7tr_2022-12

>  <s_vsw_compound_code>  (944) 
71875

>  <s_vsw_variant>  (944) 
71875-1

>  <r_epik_Charging_Adjusted_Penalty>  (944) 
0.088195370499548398

>  <r_epik_Ionization_Penalty>  (944) 
0.044299999999999999

>  <r_epik_Ionization_Penalty_Charging>  (944) 
0.0441

>  <r_epik_Ionization_Penalty_Neutral>  (944) 
0.00020000000000000001

>  <r_epik_State_Penalty>  (944) 
0.0441

>  <r_i_docking_score>  (944) 
-3.3650515664154601

>  <r_i_glide_ecoul>  (944) 
-3.1937217712402299

>  <r_i_glide_eff_state_penalty>  (944) 
0.0441

>  <r_i_glide_einternal>  (944) 
0.66457730531692505

>  <r_i_glide_emodel>  (944) 
-50.970886626947198

>  <r_i_glide_energy>  (944) 
-39.576797485351598

>  <r_i_glide_erotb>  (944) 
0.73224968592044304

>  <r_i_glide_esite>  (944) 
-0.051661371799893899

>  <r_i_glide_evdw>  (944) 
-36.3830757141113

>  <r_i_glide_gscore>  (944) 
-3.4091515664154599

>  <r_i_glide_hbond>  (944) 
0

>  <r_i_glide_ligand_efficiency>  (944) 
-0.101971259588347

>  <r_i_glide_ligand_efficiency_ln>  (944) 
-0.74837004506626303

>  <r_i_glide_ligand_efficiency_sa>  (944) 
-0.32707631542133198

>  <r_i_glide_lipo>  (944) 
-1.28384640602046

>  <r_i_glide_metal>  (944) 
-0

>  <r_i_glide_rewards>  (944) 
-0.50768142312395004

>  <r_lp_Energy>  (944) 
30.09104

>  <r_qp_ACxDN^.5/SA>  (944) 
0.0139743

>  <r_qp_CIQPlogS>  (944) 
-6.1070000000000002

>  <r_qp_EA(eV)>  (944) 
1.077

>  <r_qp_FISA>  (944) 
148.54599999999999

>  <r_qp_FOSA>  (944) 
220.40299999999999

>  <r_qp_IP(eV)>  (944) 
7.9480000000000004

>  <r_qp_Jm>  (944) 
1.5754369942938501e-05

>  <r_qp_PISA>  (944) 
440.65600000000001

>  <r_qp_PSA>  (944) 
87.451999999999998

>  <r_qp_PercentHumanOralAbsorption>  (944) 
84.870999999999995

>  <r_qp_QPPCaco>  (944) 
96.414000000000001

>  <r_qp_QPPMDCK>  (944) 
43.671999999999997

>  <r_qp_QPlogBB>  (944) 
-1.214

>  <r_qp_QPlogHERG>  (944) 
-8.1690000000000005

>  <r_qp_QPlogKhsa>  (944) 
0.57899999999999996

>  <r_qp_QPlogKp>  (944) 
-3.9990000000000001

>  <r_qp_QPlogPC16>  (944) 
16.512

>  <r_qp_QPlogPo/w>  (944) 
3.8279999999999998

>  <r_qp_QPlogPoct>  (944) 
25.678999999999998

>  <r_qp_QPlogPw>  (944) 
14.720000000000001

>  <r_qp_QPlogS>  (944) 
-6.4420000000000002

>  <r_qp_QPpolrz>  (944) 
50.872999999999998

>  <r_qp_SASA>  (944) 
809.60500000000002

>  <r_qp_SAamideO>  (944) 
0

>  <r_qp_SAfluorine>  (944) 
0

>  <r_qp_WPSA>  (944) 
0

>  <r_qp_accptHB>  (944) 
8

>  <r_qp_dip^2/V>  (944) 
0.099478800000000006

>  <r_qp_dipole>  (944) 
12.003

>  <r_qp_donorHB>  (944) 
2

>  <r_qp_glob>  (944) 
0.76460539999999999

>  <r_qp_mol_MW>  (944) 
435.52699999999999

>  <r_qp_volume>  (944) 
1448.1669999999999

>  <r_sd_BIOSOLVEIT.INFINISEE\_FTREES\_SIMILARITY>  (944) 
0.92600000000000005

>  <r_sd_BIOSOLVEIT.LOGP>  (944) 
3.61538

>  <r_sd_BIOSOLVEIT.MOLECULAR\_WEIGHT>  (944) 
436.536

>  <r_sd_BIOSOLVEIT.TPSA>  (944) 
82.25

>  <i_epik_Tot_Q>  (944) 
1

>  <i_epik_Tot_abs_Q>  (944) 
1

>  <i_f3d_flags>  (944) 
0

>  <i_i_glide_confnum>  (944) 
2

>  <i_i_glide_lignum>  (944) 
919

>  <i_i_glide_posenum>  (944) 
11

>  <i_i_glide_rotatable_bonds>  (944) 
8

>  <i_lp_mmshare_version>  (944) 
65135

>  <i_m_ct_format>  (944) 
2

>  <i_m_source_file_index>  (944) 
2247

>  <i_qp_#NandO>  (944) 
6

>  <i_qp_#acid>  (944) 
0

>  <i_qp_#amide>  (944) 
0

>  <i_qp_#amidine>  (944) 
0

>  <i_qp_#amine>  (944) 
1

>  <i_qp_#in34>  (944) 
0

>  <i_qp_#in56>  (944) 
22

>  <i_qp_#metab>  (944) 
7

>  <i_qp_#nonHatm>  (944) 
33

>  <i_qp_#noncon>  (944) 
0

>  <i_qp_#ringatoms>  (944) 
22

>  <i_qp_#rotor>  (944) 
8

>  <i_qp_#rtvFG>  (944) 
0

>  <i_qp_#stars>  (944) 
0

>  <i_qp_CNS>  (944) 
-2

>  <i_qp_HumanOralAbsorption>  (944) 
1

>  <i_qp_RuleOfFive>  (944) 
0

>  <i_qp_RuleOfThree>  (944) 
2

>  <i_sd_BIOSOLVEIT.INFINISEE\_RESULT\_RANK>  (944) 
7530

>  <i_sd_version>  (944) 
0

>  <b_lp_Chiralities_Consistent>  (944) 
1

>  <b_sd_chiral_flag>  (944) 
0

>  <canonical_id>  (944) 
ATP-HTVS-95D1FAD4F080

>  <compound_code>  (944) 
71875

>  <title>  (944) 
rxn502b____EMOL483931____EMOL7515103____EMOL2873214

>  <variant>  (944) 
71875-1

>  <source_file>  (944) 
运行/运行/ATP-VSW/ATP-VSW-DOCK_HTVS_1-003_lib/ATP-VSW-DOCK_HTVS_1-003_lib.mae

>  <canonical_smiles>  (944) 
C[NH+](C)Cc1cccc(CNc2cnc(NC(=O)c3cccc(C#N)c3)c3ccccc23)c1

>  <scaffold>  (944) 
O=C(Nc1ncc(NCc2ccccc2)c2ccccc12)c1ccccc1

>  <molecular_formula>  (944) 
C27H26N5O+

$$$$
ATP-HTVS-95D98DD03D76
     RDKit          3D

 67 70  0  0  0  0  0  0  0  0999 V2000
  197.1448  184.3255  156.3074 S   0  0  0  0  0  0  0  0  0  0  0  0
  198.1935  184.1079  154.9263 C   0  0  0  0  0  0  0  0  0  0  0  0
  198.4138  182.7159  154.6593 C   0  0  0  0  0  0  0  0  0  0  0  0
  199.2777  182.4543  153.5687 C   0  0  0  0  0  0  0  0  0  0  0  0
  199.8306  183.4913  152.7699 C   0  0  0  0  0  0  0  0  0  0  0  0
  199.5849  184.8410  153.0737 C   0  0  0  0  0  0  0  0  0  0  0  0
  198.7685  185.1541  154.1704 C   0  0  0  0  0  0  0  0  0  0  0  0
  197.6785  181.8699  155.6113 C   0  0  0  0  0  0  0  0  0  0  0  0
  197.6675  180.4587  155.6177 N   0  0  0  0  0  0  0  0  0  0  0  0
  198.0094  179.5851  154.5178 C   0  0  1  0  0  0  0  0  0  0  0  0
  199.1816  178.6522  154.8049 C   0  0  0  0  0  0  0  0  0  0  0  0
  199.5514  178.3305  156.1301 C   0  0  0  0  0  0  0  0  0  0  0  0
  200.5983  177.4203  156.3958 C   0  0  0  0  0  0  0  0  0  0  0  0
  201.3030  176.8375  155.3265 C   0  0  0  0  0  0  0  0  0  0  0  0
  200.9646  177.1771  153.9975 C   0  0  0  0  0  0  0  0  0  0  0  0
  199.8943  178.0668  153.7424 C   0  0  0  0  0  0  0  0  0  0  0  0
  202.4207  175.8459  155.6051 C   0  0  1  0  0  0  0  0  0  0  0  0
  202.0454  174.4357  155.4803 N   0  0  0  0  0  0  0  0  0  0  0  0
  201.6995  174.0600  154.1110 C   0  0  2  0  0  0  0  0  0  0  0  0
  203.1379  173.5863  155.9282 C   0  0  2  0  0  0  0  0  0  0  0  0
  196.9995  182.6073  156.5518 C   0  0  0  0  0  0  0  0  0  0  0  0
  196.1820  182.0612  157.6993 C   0  0  1  0  0  0  0  0  0  0  0  0
  195.6749  183.0871  158.6241 N   0  0  0  0  0  0  0  0  0  0  0  0
  196.4580  183.7859  159.4790 C   0  0  0  0  0  0  0  0  0  0  0  0
  196.0099  184.7170  160.1534 O   0  0  0  0  0  0  0  0  0  0  0  0
  197.9509  183.4375  159.6408 C   0  0  1  0  0  0  0  0  0  0  0  0
  198.9207  184.6090  159.3727 C   0  0  1  0  0  0  0  0  0  0  0  0
  200.3688  184.1652  159.5092 C   0  0  0  0  0  0  0  0  0  0  0  0
  200.9145  183.1933  158.6392 C   0  0  0  0  0  0  0  0  0  0  0  0
  202.2537  182.7760  158.7892 C   0  0  0  0  0  0  0  0  0  0  0  0
  203.0534  183.3353  159.8052 C   0  0  0  0  0  0  0  0  0  0  0  0
  202.5131  184.3040  160.6718 C   0  0  0  0  0  0  0  0  0  0  0  0
  201.1748  184.7156  160.5260 C   0  0  0  0  0  0  0  0  0  0  0  0
  194.2423  183.4039  158.4895 C   0  0  2  0  0  0  0  0  0  0  0  0
  199.5274  181.4289  153.3224 H   0  0  0  0  0  0  0  0  0  0  0  0
  200.4445  183.2552  151.9093 H   0  0  0  0  0  0  0  0  0  0  0  0
  200.0078  185.6465  152.4810 H   0  0  0  0  0  0  0  0  0  0  0  0
  198.5699  186.1807  154.4558 H   0  0  0  0  0  0  0  0  0  0  0  0
  197.2113  180.0077  156.4044 H   0  0  0  0  0  0  0  0  0  0  0  0
  197.1297  178.9823  154.3197 H   0  0  0  0  0  0  0  0  0  0  0  0
  198.1974  180.1532  153.5931 H   0  0  0  0  0  0  0  0  0  0  0  0
  199.0432  178.7584  156.9728 H   0  0  0  0  0  0  0  0  0  0  0  0
  200.8462  177.1707  157.4184 H   0  0  0  0  0  0  0  0  0  0  0  0
  201.4963  176.7514  153.1646 H   0  0  0  0  0  0  0  0  0  0  0  0
  199.6171  178.2879  152.7260 H   0  0  0  0  0  0  0  0  0  0  0  0
  203.2785  176.0793  154.9675 H   0  0  0  0  0  0  0  0  0  0  0  0
  202.7508  176.0184  156.6313 H   0  0  0  0  0  0  0  0  0  0  0  0
  201.4089  173.0088  154.0626 H   0  0  0  0  0  0  0  0  0  0  0  0
  202.5518  174.2148  153.4470 H   0  0  0  0  0  0  0  0  0  0  0  0
  200.8539  174.6337  153.7335 H   0  0  0  0  0  0  0  0  0  0  0  0
  202.8385  172.5379  155.8828 H   0  0  0  0  0  0  0  0  0  0  0  0
  203.4187  173.8115  156.9604 H   0  0  0  0  0  0  0  0  0  0  0  0
  204.0205  173.7135  155.2952 H   0  0  0  0  0  0  0  0  0  0  0  0
  195.3536  181.4752  157.2905 H   0  0  0  0  0  0  0  0  0  0  0  0
  196.7587  181.3254  158.2668 H   0  0  0  0  0  0  0  0  0  0  0  0
  198.0792  183.0704  160.6586 H   0  0  0  0  0  0  0  0  0  0  0  0
  198.2432  182.6160  158.9878 H   0  0  0  0  0  0  0  0  0  0  0  0
  198.8105  185.0038  158.3630 H   0  0  0  0  0  0  0  0  0  0  0  0
  198.7103  185.4491  160.0434 H   0  0  0  0  0  0  0  0  0  0  0  0
  200.3166  182.7530  157.8529 H   0  0  0  0  0  0  0  0  0  0  0  0
  202.6696  182.0307  158.1264 H   0  0  0  0  0  0  0  0  0  0  0  0
  204.0809  183.0231  159.9213 H   0  0  0  0  0  0  0  0  0  0  0  0
  203.1181  184.7378  161.4536 H   0  0  0  0  0  0  0  0  0  0  0  0
  200.7660  185.4530  161.1972 H   0  0  0  0  0  0  0  0  0  0  0  0
  194.1073  184.4279  158.1424 H   0  0  0  0  0  0  0  0  0  0  0  0
  193.7121  183.2917  159.4330 H   0  0  0  0  0  0  0  0  0  0  0  0
  193.7342  182.7684  157.7660 H   0  0  0  0  0  0  0  0  0  0  0  0
  1  2  1  0
  1 21  1  0
  2  3  1  0
  2  7  2  0
  3  4  2  0
  3  8  1  0
  4  5  1  0
  4 35  1  0
  5  6  2  0
  5 36  1  0
  6  7  1  0
  6 37  1  0
  7 38  1  0
  8  9  1  0
  8 21  2  0
  9 10  1  0
  9 39  1  0
 10 11  1  0
 10 40  1  6
 10 41  1  0
 11 12  1  0
 11 16  2  0
 12 13  2  0
 12 42  1  0
 13 14  1  0
 13 43  1  0
 14 15  2  0
 14 17  1  0
 15 16  1  0
 15 44  1  0
 16 45  1  0
 17 18  1  0
 17 46  1  6
 17 47  1  0
 18 19  1  0
 18 20  1  0
 19 48  1  1
 19 49  1  0
 19 50  1  0
 20 51  1  1
 20 52  1  0
 20 53  1  0
 21 22  1  0
 22 23  1  0
 22 54  1  6
 22 55  1  0
 23 24  1  0
 23 34  1  0
 24 25  2  0
 24 26  1  0
 26 27  1  0
 26 56  1  1
 26 57  1  0
 27 28  1  0
 27 58  1  6
 27 59  1  0
 28 29  2  0
 28 33  1  0
 29 30  1  0
 29 60  1  0
 30 31  2  0
 30 61  1  0
 31 32  1  0
 31 62  1  0
 32 33  2  0
 32 63  1  0
 33 64  1  0
 34 65  1  6
 34 66  1  0
 34 67  1  0
M  END
>  <s_epik_cmdline>  (945) 
J2VwaWtfcHl0aG9uJywgJy1waCcsICc3LjAwMDAwMCcsICctcGh0JywgJzIuMDAwMDAwJywgJy1tcycsICcxNicsICctdG4nLCAnOCcsICctbWEnLCAnMjAwJywgJy1pbWFlJywgJzxpbmZpbGUubWFlPicsICctb21hZScsICc8b3V0ZmlsZS5tYWU+Jw==

>  <s_epik_input>  (945) 
W0NIM11OKFtDSDNdKVtDSDJdYyhbY0hdW2NIXTEpW2NIXVtjSF1jMVtDSDJdW05IXWMoYyhjMjMpW2NIXVtjSF1bY0hdW2NIXTMpYyhzMilbQ0gyXU4oW0NIM10pQyg9TylbQ0gyXVtDSDJdYzRbY0hdW2NIXVtjSF1bY0hdW2NIXTQ=

>  <s_i_glide_gridfile>  (945) 
ATP-Grid

>  <s_lp_Force_Field>  (945) 
OPLS_2005

>  <s_lp_Variant>  (945) 
rxn502c____EMOL480962____EMOL49259969____EMOL50155899-2

>  <s_lp_label>  (945) 
2229_sdstereoexpander_1_neutralizer_1_epik_2_stereoizer_1

>  <s_m_source_file>  (945) 
ATP-VSW-LIGPREP-002-in.maegz

>  <s_sd_BIOSOLVEIT.INFINISEE\_QUERY\_NAME>  (945) 
Ref-Lig

>  <s_sd_BIOSOLVEIT.INFINISEE\_QUERY\_SMILES>  (945) 
S(c1nc2c(cc1C[NH2+]Cc3ccc(cc3)C[NH+](C)C)cccc2)Cc4ccccc4

>  <s_sd_BIOSOLVEIT.INFINISEE\_REACTION\_NAME>  (945) 
rxn502c

>  <s_sd_BIOSOLVEIT.INFINISEE\_REAGENT1\_NAME>  (945) 
EMOL480962

>  <s_sd_BIOSOLVEIT.INFINISEE\_REAGENT1\_SMILES>  (945) 
O=C(O)CCc1ccccc1

>  <s_sd_BIOSOLVEIT.INFINISEE\_REAGENT2\_NAME>  (945) 
EMOL49259969

>  <s_sd_BIOSOLVEIT.INFINISEE\_REAGENT2\_SMILES>  (945) 
ClC=1c2c(SC1CNC)cccc2

>  <s_sd_BIOSOLVEIT.INFINISEE\_REAGENT3\_NAME>  (945) 
EMOL50155899

>  <s_sd_BIOSOLVEIT.INFINISEE\_REAGENT3\_SMILES>  (945) 
N(Cc1ccc(cc1)CN)(C)C

>  <s_sd_BIOSOLVEIT.INFINISEE\_SPACE>  (945) 
eXplore_7tr_2022-12

>  <s_vsw_compound_code>  (945) 
71298

>  <s_vsw_variant>  (945) 
71298-2

>  <r_epik_Charging_Adjusted_Penalty>  (945) 
1.6155483608401799

>  <r_epik_Ionization_Penalty>  (945) 
1.6155999999999999

>  <r_epik_Ionization_Penalty_Charging>  (945) 
0

>  <r_epik_Ionization_Penalty_Neutral>  (945) 
1.6155999999999999

>  <r_epik_State_Penalty>  (945) 
1.6154999999999999

>  <r_i_docking_score>  (945) 
-1.8449750419072899

>  <r_i_glide_ecoul>  (945) 
-4.4207854270935103

>  <r_i_glide_eff_state_penalty>  (945) 
1.6154999999999999

>  <r_i_glide_einternal>  (945) 
4.8936433792114302

>  <r_i_glide_emodel>  (945) 
-50.703369255291697

>  <r_i_glide_energy>  (945) 
-43.248052120208698

>  <r_i_glide_erotb>  (945) 
0.81779679772842495

>  <r_i_glide_esite>  (945) 
-0.089793273971043502

>  <r_i_glide_evdw>  (945) 
-38.827266693115199

>  <r_i_glide_gscore>  (945) 
-3.4604750419072898

>  <r_i_glide_hbond>  (945) 
-0.070688501340934504

>  <r_i_glide_ligand_efficiency>  (945) 
-0.054263971820802698

>  <r_i_glide_ligand_efficiency_ln>  (945) 
-0.40760673655436402

>  <r_i_glide_ligand_efficiency_sa>  (945) 
-0.17579420328822301

>  <r_i_glide_lipo>  (945) 
-1.07886835016647

>  <r_i_glide_metal>  (945) 
-0

>  <r_i_glide_rewards>  (945) 
-0.434440565437478

>  <r_lp_Energy>  (945) 
30.063434999999998

>  <r_qp_ACxDN^.5/SA>  (945) 
0.0077299999999999999

>  <r_qp_CIQPlogS>  (945) 
-4.9340000000000002

>  <r_qp_EA(eV)>  (945) 
0.53600000000000003

>  <r_qp_FISA>  (945) 
32.545999999999999

>  <r_qp_FOSA>  (945) 
311.21800000000002

>  <r_qp_IP(eV)>  (945) 
7.8449999999999998

>  <r_qp_Jm>  (945) 
0.011616556671642001

>  <r_qp_PISA>  (945) 
397.82999999999998

>  <r_qp_PSA>  (945) 
41.195

>  <r_qp_PercentHumanOralAbsorption>  (945) 
100

>  <r_qp_QPPCaco>  (945) 
227.75

>  <r_qp_QPPMDCK>  (945) 
257.49400000000003

>  <r_qp_QPlogBB>  (945) 
0.51900000000000002

>  <r_qp_QPlogHERG>  (945) 
-6.4409999999999998

>  <r_qp_QPlogKhsa>  (945) 
0.79000000000000004

>  <r_qp_QPlogKp>  (945) 
-3.883

>  <r_qp_QPlogPC16>  (945) 
15.646000000000001

>  <r_qp_QPlogPo/w>  (945) 
4.9359999999999999

>  <r_qp_QPlogPoct>  (945) 
21.853999999999999

>  <r_qp_QPlogPw>  (945) 
10.843999999999999

>  <r_qp_QPlogS>  (945) 
-3.726

>  <r_qp_QPpolrz>  (945) 
51.506

>  <r_qp_SASA>  (945) 
776.19899999999996

>  <r_qp_SAamideO>  (945) 
15.528

>  <r_qp_SAfluorine>  (945) 
0

>  <r_qp_WPSA>  (945) 
34.604999999999997

>  <r_qp_accptHB>  (945) 
6

>  <r_qp_dip^2/V>  (945) 
0.0072972999999999996

>  <r_qp_dipole>  (945) 
3.3149999999999999

>  <r_qp_donorHB>  (945) 
1

>  <r_qp_glob>  (945) 
0.81871439999999995

>  <r_qp_mol_MW>  (945) 
471.65899999999999

>  <r_qp_volume>  (945) 
1506.298

>  <r_sd_BIOSOLVEIT.INFINISEE\_FTREES\_SIMILARITY>  (945) 
0.92800000000000005

>  <r_sd_BIOSOLVEIT.LOGP>  (945) 
4.7491000000000003

>  <r_sd_BIOSOLVEIT.MOLECULAR\_WEIGHT>  (945) 
472.673

>  <r_sd_BIOSOLVEIT.TPSA>  (945) 
36.780000000000001

>  <i_epik_Tot_Q>  (945) 
0

>  <i_epik_Tot_abs_Q>  (945) 
0

>  <i_f3d_flags>  (945) 
0

>  <i_i_glide_confnum>  (945) 
12

>  <i_i_glide_lignum>  (945) 
868

>  <i_i_glide_posenum>  (945) 
17

>  <i_i_glide_rotatable_bonds>  (945) 
11

>  <i_lp_mmshare_version>  (945) 
65135

>  <i_m_ct_format>  (945) 
2

>  <i_m_source_file_index>  (945) 
2229

>  <i_qp_#NandO>  (945) 
4

>  <i_qp_#acid>  (945) 
0

>  <i_qp_#amide>  (945) 
1

>  <i_qp_#amidine>  (945) 
0

>  <i_qp_#amine>  (945) 
2

>  <i_qp_#in34>  (945) 
0

>  <i_qp_#in56>  (945) 
21

>  <i_qp_#metab>  (945) 
9

>  <i_qp_#nonHatm>  (945) 
34

>  <i_qp_#noncon>  (945) 
0

>  <i_qp_#ringatoms>  (945) 
21

>  <i_qp_#rotor>  (945) 
10

>  <i_qp_#rtvFG>  (945) 
0

>  <i_qp_#stars>  (945) 
2

>  <i_qp_CNS>  (945) 
2

>  <i_qp_HumanOralAbsorption>  (945) 
3

>  <i_qp_RuleOfFive>  (945) 
0

>  <i_qp_RuleOfThree>  (945) 
1

>  <i_sd_BIOSOLVEIT.INFINISEE\_RESULT\_RANK>  (945) 
5874

>  <i_sd_version>  (945) 
0

>  <b_lp_Chiralities_Consistent>  (945) 
1

>  <b_sd_chiral_flag>  (945) 
0

>  <canonical_id>  (945) 
ATP-HTVS-95D98DD03D76

>  <compound_code>  (945) 
71298

>  <title>  (945) 
rxn502c____EMOL480962____EMOL49259969____EMOL50155899

>  <variant>  (945) 
71298-2

>  <source_file>  (945) 
运行/运行/ATP-VSW/ATP-VSW-DOCK_HTVS_1-002_lib.maegz

>  <canonical_smiles>  (945) 
CN(C)Cc1ccc(CNc2c(CN(C)C(=O)CCc3ccccc3)sc3ccccc23)cc1

>  <scaffold>  (945) 
O=C(CCc1ccccc1)NCc1sc2ccccc2c1NCc1ccccc1

>  <molecular_formula>  (945) 
C29H33N3OS

$$$$
ATP-HTVS-95EE858F8EEC
     RDKit          3D

 69 72  0  0  0  0  0  0  0  0999 V2000
  198.3842  189.5061  157.4985 O   0  0  0  0  0  0  0  0  0  0  0  0
  199.1579  189.5023  156.5414 C   0  0  0  0  0  0  0  0  0  0  0  0
  199.5432  190.6317  155.9062 O   0  0  0  0  0  0  0  0  0  0  0  0
  199.0401  191.8833  156.3356 C   0  0  2  0  0  0  0  0  0  0  0  0
  199.7989  188.2732  155.9509 C   0  0  0  0  0  0  0  0  0  0  0  0
  199.2756  186.9359  156.0666 C   0  0  0  0  0  0  0  0  0  0  0  0
  200.0284  185.8567  155.5412 C   0  0  0  0  0  0  0  0  0  0  0  0
  201.2511  186.0569  154.8807 C   0  0  0  0  0  0  0  0  0  0  0  0
  201.7493  187.3600  154.7336 C   0  0  0  0  0  0  0  0  0  0  0  0
  201.0322  188.4454  155.2654 C   0  0  0  0  0  0  0  0  0  0  0  0
  197.9333  186.6095  156.6679 C   0  0  0  0  0  0  0  0  0  0  0  0
  196.9413  187.3031  156.4627 O   0  0  0  0  0  0  0  0  0  0  0  0
  197.9159  185.5085  157.4489 N   0  0  0  0  0  0  0  0  0  0  0  0
  196.7718  185.0046  158.1176 C   0  0  0  0  0  0  0  0  0  0  0  0
  196.2667  183.7286  157.7668 C   0  0  0  0  0  0  0  0  0  0  0  0
  196.8759  182.9869  156.7463 N   0  0  0  0  0  0  0  0  0  0  0  0
  196.5904  181.5609  156.6707 C   0  0  1  0  0  0  0  0  0  0  0  0
  197.4874  180.8493  155.6989 C   0  0  0  0  0  0  0  0  0  0  0  0
  197.2140  180.8838  154.3084 C   0  0  0  0  0  0  0  0  0  0  0  0
  198.0992  180.2368  153.4063 C   0  0  0  0  0  0  0  0  0  0  0  0
  199.2677  179.6141  153.9041 C   0  0  0  0  0  0  0  0  0  0  0  0
  199.4797  179.5105  155.2811 C   0  0  0  0  0  0  0  0  0  0  0  0
  198.6057  180.1388  156.1898 C   0  0  0  0  0  0  0  0  0  0  0  0
  197.7795  180.2451  151.9130 C   0  0  1  0  0  0  0  0  0  0  0  0
  197.5450  178.9273  151.2862 N   0  0  0  0  0  0  0  0  0  0  0  0
  198.8009  178.1541  151.2875 C   0  0  1  0  0  0  0  0  0  0  0  0
  198.7061  176.7335  150.7231 C   0  0  2  0  0  0  0  0  0  0  0  0
  197.0330  179.0887  149.9191 C   0  0  1  0  0  0  0  0  0  0  0  0
  195.6096  179.6764  149.8927 C   0  0  2  0  0  0  0  0  0  0  0  0
  195.1330  183.2565  158.4682 C   0  0  0  0  0  0  0  0  0  0  0  0
  194.5309  183.9357  159.4595 N   0  0  0  0  0  0  0  0  0  0  0  0
  195.0162  185.1471  159.8043 C   0  0  0  0  0  0  0  0  0  0  0  0
  196.1418  185.7252  159.1615 C   0  0  0  0  0  0  0  0  0  0  0  0
  196.6050  187.0013  159.5845 C   0  0  0  0  0  0  0  0  0  0  0  0
  195.9485  187.7003  160.6040 C   0  0  0  0  0  0  0  0  0  0  0  0
  194.8398  187.1311  161.2403 C   0  0  0  0  0  0  0  0  0  0  0  0
  194.3812  185.8667  160.8352 C   0  0  0  0  0  0  0  0  0  0  0  0
  199.5315  192.6833  155.7826 H   0  0  0  0  0  0  0  0  0  0  0  0
  199.2196  192.0431  157.4006 H   0  0  0  0  0  0  0  0  0  0  0  0
  197.9683  191.9381  156.1441 H   0  0  0  0  0  0  0  0  0  0  0  0
  199.6576  184.8428  155.6089 H   0  0  0  0  0  0  0  0  0  0  0  0
  201.7950  185.2117  154.4790 H   0  0  0  0  0  0  0  0  0  0  0  0
  202.6867  187.5233  154.2160 H   0  0  0  0  0  0  0  0  0  0  0  0
  201.4792  189.4224  155.1390 H   0  0  0  0  0  0  0  0  0  0  0  0
  198.7590  184.9631  157.5107 H   0  0  0  0  0  0  0  0  0  0  0  0
  197.7444  183.2998  156.3382 H   0  0  0  0  0  0  0  0  0  0  0  0
  196.7542  181.1243  157.6574 H   0  0  0  0  0  0  0  0  0  0  0  0
  195.5553  181.3595  156.3851 H   0  0  0  0  0  0  0  0  0  0  0  0
  196.3494  181.4388  153.9554 H   0  0  0  0  0  0  0  0  0  0  0  0
  199.9941  179.1752  153.2332 H   0  0  0  0  0  0  0  0  0  0  0  0
  200.3206  178.9363  155.6452 H   0  0  0  0  0  0  0  0  0  0  0  0
  198.8105  180.0903  157.2547 H   0  0  0  0  0  0  0  0  0  0  0  0
  196.8989  180.8758  151.8230 H   0  0  0  0  0  0  0  0  0  0  0  0
  198.5732  180.7709  151.3831 H   0  0  0  0  0  0  0  0  0  0  0  0
  199.5903  178.7253  150.7842 H   0  0  0  0  0  0  0  0  0  0  0  0
  199.0776  177.9547  152.2895 H   0  0  0  0  0  0  0  0  0  0  0  0
  199.6592  176.2399  150.9380 H   0  0  0  0  0  0  0  0  0  0  0  0
  198.5141  176.6527  149.6452 H   0  0  0  0  0  0  0  0  0  0  0  0
  197.9487  176.1943  151.3000 H   0  0  0  0  0  0  0  0  0  0  0  0
  197.7251  179.6877  149.3188 H   0  0  0  0  0  0  0  0  0  0  0  0
  196.9570  178.1141  149.4291 H   0  0  0  0  0  0  0  0  0  0  0  0
  195.2384  179.7250  148.8618 H   0  0  0  0  0  0  0  0  0  0  0  0
  195.5591  180.6776  150.3134 H   0  0  0  0  0  0  0  0  0  0  0  0
  194.9284  179.0562  150.4902 H   0  0  0  0  0  0  0  0  0  0  0  0
  194.6714  182.3094  158.2250 H   0  0  0  0  0  0  0  0  0  0  0  0
  197.4510  187.4828  159.1237 H   0  0  0  0  0  0  0  0  0  0  0  0
  196.3000  188.6900  160.8738 H   0  0  0  0  0  0  0  0  0  0  0  0
  194.3288  187.6797  162.0157 H   0  0  0  0  0  0  0  0  0  0  0  0
  193.5042  185.4453  161.3021 H   0  0  0  0  0  0  0  0  0  0  0  0
  1  2  2  0
  2  3  1  0
  2  5  1  0
  3  4  1  0
  4 38  1  6
  4 39  1  0
  4 40  1  0
  5  6  1  0
  5 10  2  0
  6  7  2  0
  6 11  1  0
  7  8  1  0
  7 41  1  0
  8  9  2  0
  8 42  1  0
  9 10  1  0
  9 43  1  0
 10 44  1  0
 11 12  2  0
 11 13  1  0
 13 14  1  0
 13 45  1  0
 14 15  2  0
 14 33  1  0
 15 16  1  0
 15 30  1  0
 16 17  1  0
 16 46  1  0
 17 18  1  0
 17 47  1  1
 17 48  1  0
 18 19  2  0
 18 23  1  0
 19 20  1  0
 19 49  1  0
 20 21  2  0
 20 24  1  0
 21 22  1  0
 21 50  1  0
 22 23  2  0
 22 51  1  0
 23 52  1  0
 24 25  1  0
 24 53  1  1
 24 54  1  0
 25 26  1  0
 25 28  1  0
 26 27  1  0
 26 55  1  6
 26 56  1  0
 27 57  1  6
 27 58  1  0
 27 59  1  0
 28 29  1  0
 28 60  1  6
 28 61  1  0
 29 62  1  6
 29 63  1  0
 29 64  1  0
 30 31  2  0
 30 65  1  0
 31 32  1  0
 32 33  1  0
 32 37  2  0
 33 34  2  0
 34 35  1  0
 34 66  1  0
 35 36  2  0
 35 67  1  0
 36 37  1  0
 36 68  1  0
 37 69  1  0
M  END
>  <s_epik_Chemistry_Notes>  (946) 
This compound has an ester and may undergo hydrolysis at high or low pH.

>  <s_epik_cmdline>  (946) 
J2VwaWtfcHl0aG9uJywgJy1waCcsICc3LjAwMDAwMCcsICctcGh0JywgJzIuMDAwMDAwJywgJy1tcycsICcxNicsICctdG4nLCAnOCcsICctbWEnLCAnMjAwJywgJy1pbWFlJywgJzxpbmZpbGUubWFlPicsICctb21hZScsICc8b3V0ZmlsZS5tYWU+Jw==

>  <s_epik_input>  (946) 
W0NIM11PQyg9TyljMWMoW2NIXVtjSF1bY0hdW2NIXTEpQyg9TylbTkhdYyhjKGMyMylbY0hdW2NIXVtjSF1bY0hdMyljKFtjSF1uMilbTkhdW0NIMl1jNFtjSF1jKFtjSF1bY0hdW2NIXTQpW0NIMl1OKFtDSDJdW0NIM10pW0NIMl1bQ0gzXQ==

>  <s_i_glide_gridfile>  (946) 
ATP-Grid

>  <s_lp_Force_Field>  (946) 
OPLS_2005

>  <s_lp_Variant>  (946) 
rxn502b____EMOL497269____EMOL13728749____EMOL44153840-3

>  <s_lp_label>  (946) 
2812_sdstereoexpander_1_neutralizer_1_epik_3_stereoizer_1

>  <s_m_source_file>  (946) 
ATP-VSW-LIGPREP-001-in.maegz

>  <s_sd_BIOSOLVEIT.INFINISEE\_QUERY\_NAME>  (946) 
Ref-Lig

>  <s_sd_BIOSOLVEIT.INFINISEE\_QUERY\_SMILES>  (946) 
S(c1nc2c(cc1C[NH2+]Cc3ccc(cc3)C[NH+](C)C)cccc2)Cc4ccccc4

>  <s_sd_BIOSOLVEIT.INFINISEE\_REACTION\_NAME>  (946) 
rxn502b

>  <s_sd_BIOSOLVEIT.INFINISEE\_REAGENT1\_NAME>  (946) 
EMOL497269

>  <s_sd_BIOSOLVEIT.INFINISEE\_REAGENT1\_SMILES>  (946) 
O=C(OC)c1c(cccc1)C(=O)O

>  <s_sd_BIOSOLVEIT.INFINISEE\_REAGENT2\_NAME>  (946) 
EMOL13728749

>  <s_sd_BIOSOLVEIT.INFINISEE\_REAGENT2\_SMILES>  (946) 
Brc1c(N)c2c(nc1)cccc2

>  <s_sd_BIOSOLVEIT.INFINISEE\_REAGENT3\_NAME>  (946) 
EMOL44153840

>  <s_sd_BIOSOLVEIT.INFINISEE\_REAGENT3\_SMILES>  (946) 
N(Cc1cc(ccc1)CN)(CC)CC

>  <s_sd_BIOSOLVEIT.INFINISEE\_SPACE>  (946) 
eXplore_7tr_2022-12

>  <s_vsw_compound_code>  (946) 
89953

>  <s_vsw_variant>  (946) 
89953-3

>  <r_epik_Charging_Adjusted_Penalty>  (946) 
2.1199260670942599

>  <r_epik_Ionization_Penalty>  (946) 
2.1200999999999999

>  <r_epik_Ionization_Penalty_Charging>  (946) 
0

>  <r_epik_Ionization_Penalty_Neutral>  (946) 
2.1200999999999999

>  <r_epik_State_Penalty>  (946) 
2.1198999999999999

>  <r_i_docking_score>  (946) 
-1.2799646783894101

>  <r_i_glide_ecoul>  (946) 
-1.92218065261841

>  <r_i_glide_eff_state_penalty>  (946) 
2.1198999999999999

>  <r_i_glide_einternal>  (946) 
2.5685696601867698

>  <r_i_glide_emodel>  (946) 
-49.553449942265097

>  <r_i_glide_energy>  (946) 
-41.915558338165297

>  <r_i_glide_erotb>  (946) 
0.74424941398667599

>  <r_i_glide_esite>  (946) 
-0.040744117873741201

>  <r_i_glide_evdw>  (946) 
-39.993377685546903

>  <r_i_glide_gscore>  (946) 
-3.39986467838941

>  <r_i_glide_hbond>  (946) 
0

>  <r_i_glide_ligand_efficiency>  (946) 
-0.034593639956470398

>  <r_i_glide_ligand_efficiency_ln>  (946) 
-0.27759433211323098

>  <r_i_glide_ligand_efficiency_sa>  (946) 
-0.115273682852175

>  <r_i_glide_lipo>  (946) 
-1.6538298095734201

>  <r_i_glide_metal>  (946) 
-0

>  <r_i_glide_rewards>  (946) 
-0.16154418275881099

>  <r_lp_Energy>  (946) 
47.136499999999998

>  <r_qp_ACxDN^.5/SA>  (946) 
0.015856200000000001

>  <r_qp_CIQPlogS>  (946) 
-6.1289999999999996

>  <r_qp_EA(eV)>  (946) 
1.048

>  <r_qp_FISA>  (946) 
82.070999999999998

>  <r_qp_FOSA>  (946) 
281.48000000000002

>  <r_qp_IP(eV)>  (946) 
8.4039999999999999

>  <r_qp_Jm>  (946) 
0.076595185584045003

>  <r_qp_PISA>  (946) 
394.56400000000002

>  <r_qp_PSA>  (946) 
87.213999999999999

>  <r_qp_PercentHumanOralAbsorption>  (946) 
100

>  <r_qp_QPPCaco>  (946) 
411.63999999999999

>  <r_qp_QPPMDCK>  (946) 
209.68600000000001

>  <r_qp_QPlogBB>  (946) 
-0.41699999999999998

>  <r_qp_QPlogHERG>  (946) 
-6.7350000000000003

>  <r_qp_QPlogKhsa>  (946) 
0.621

>  <r_qp_QPlogKp>  (946) 
-2.7450000000000001

>  <r_qp_QPlogPC16>  (946) 
15.916

>  <r_qp_QPlogPo/w>  (946) 
4.4779999999999998

>  <r_qp_QPlogPoct>  (946) 
24.899000000000001

>  <r_qp_QPlogPw>  (946) 
13.881

>  <r_qp_QPlogS>  (946) 
-4.0670000000000002

>  <r_qp_QPpolrz>  (946) 
51.624000000000002

>  <r_qp_SASA>  (946) 
758.11500000000001

>  <r_qp_SAamideO>  (946) 
0

>  <r_qp_SAfluorine>  (946) 
0

>  <r_qp_WPSA>  (946) 
0

>  <r_qp_accptHB>  (946) 
8.5

>  <r_qp_dip^2/V>  (946) 
0.0097002000000000008

>  <r_qp_dipole>  (946) 
3.827

>  <r_qp_donorHB>  (946) 
2

>  <r_qp_glob>  (946) 
0.8396209

>  <r_qp_mol_MW>  (946) 
496.608

>  <r_qp_volume>  (946) 
1510.011

>  <r_sd_BIOSOLVEIT.INFINISEE\_FTREES\_SIMILARITY>  (946) 
0.90600000000000003

>  <r_sd_BIOSOLVEIT.LOGP>  (946) 
4.3105000000000002

>  <r_sd_BIOSOLVEIT.MOLECULAR\_WEIGHT>  (946) 
497.61599999999999

>  <r_sd_BIOSOLVEIT.TPSA>  (946) 
84.760000000000005

>  <i_epik_Tot_Q>  (946) 
0

>  <i_epik_Tot_abs_Q>  (946) 
0

>  <i_f3d_flags>  (946) 
0

>  <i_i_glide_confnum>  (946) 
8

>  <i_i_glide_lignum>  (946) 
1285

>  <i_i_glide_posenum>  (946) 
3

>  <i_i_glide_rotatable_bonds>  (946) 
12

>  <i_lp_mmshare_version>  (946) 
65135

>  <i_m_ct_format>  (946) 
2

>  <i_m_source_file_index>  (946) 
2812

>  <i_qp_#NandO>  (946) 
7

>  <i_qp_#acid>  (946) 
0

>  <i_qp_#amide>  (946) 
0

>  <i_qp_#amidine>  (946) 
0

>  <i_qp_#amine>  (946) 
1

>  <i_qp_#in34>  (946) 
0

>  <i_qp_#in56>  (946) 
22

>  <i_qp_#metab>  (946) 
6

>  <i_qp_#nonHatm>  (946) 
37

>  <i_qp_#noncon>  (946) 
0

>  <i_qp_#ringatoms>  (946) 
22

>  <i_qp_#rotor>  (946) 
10

>  <i_qp_#rtvFG>  (946) 
1

>  <i_qp_#stars>  (946) 
0

>  <i_qp_CNS>  (946) 
1

>  <i_qp_HumanOralAbsorption>  (946) 
3

>  <i_qp_RuleOfFive>  (946) 
0

>  <i_qp_RuleOfThree>  (946) 
0

>  <i_sd_BIOSOLVEIT.INFINISEE\_RESULT\_RANK>  (946) 
64765

>  <i_sd_version>  (946) 
0

>  <b_lp_Chiralities_Consistent>  (946) 
1

>  <b_sd_chiral_flag>  (946) 
0

>  <canonical_id>  (946) 
ATP-HTVS-95EE858F8EEC

>  <compound_code>  (946) 
89953

>  <title>  (946) 
rxn502b____EMOL497269____EMOL13728749____EMOL44153840

>  <variant>  (946) 
89953-3

>  <source_file>  (946) 
运行/运行/ATP-VSW/ATP-VSW-DOCK_HTVS_1-001_lib/ATP-VSW-DOCK_HTVS_1-001_lib

>  <canonical_smiles>  (946) 
CCN(CC)Cc1cccc(CNc2cnc3ccccc3c2NC(=O)c2ccccc2C(=O)OC)c1

>  <scaffold>  (946) 
O=C(Nc1c(NCc2ccccc2)cnc2ccccc12)c1ccccc1

>  <molecular_formula>  (946) 
C30H32N4O3

$$$$
ATP-HTVS-96035055C171
     RDKit          3D

 56 59  0  0  0  0  0  0  0  0999 V2000
  199.2985  185.7035  158.1763 O   0  0  0  0  0  0  0  0  0  0  0  0
  198.4588  184.8349  158.3752 C   0  0  0  0  0  0  0  0  0  0  0  0
  198.5400  183.5028  158.1594 N   0  0  0  0  0  0  0  0  0  0  0  0
  197.2631  182.7848  158.4389 C   0  0  1  0  0  0  0  0  0  0  0  0
  196.4295  183.8860  159.0564 C   0  0  0  0  0  0  0  0  0  0  0  0
  197.1464  185.0676  159.0387 C   0  0  0  0  0  0  0  0  0  0  0  0
  196.6436  186.2657  159.5621 C   0  0  0  0  0  0  0  0  0  0  0  0
  195.3519  186.2375  160.1295 C   0  0  0  0  0  0  0  0  0  0  0  0
  194.6017  185.0318  160.1356 C   0  0  0  0  0  0  0  0  0  0  0  0
  195.1418  183.8360  159.6123 C   0  0  0  0  0  0  0  0  0  0  0  0
  196.5541  182.2273  157.1775 C   0  0  1  0  0  0  0  0  0  0  0  0
  197.2413  181.0363  156.6398 N   0  0  1  0  0  0  0  0  0  0  0  0
  196.8642  180.6373  155.2764 C   0  0  1  0  0  0  0  0  0  0  0  0
  197.9512  179.8107  154.6138 C   0  0  0  0  0  0  0  0  0  0  0  0
  198.6527  178.8130  155.3284 C   0  0  0  0  0  0  0  0  0  0  0  0
  199.6718  178.0531  154.7080 C   0  0  0  0  0  0  0  0  0  0  0  0
  200.3202  177.0688  155.5079 N   0  0  0  0  0  0  0  0  0  0  0  0
  201.4765  176.4135  155.2838 C   0  0  0  0  0  0  0  0  0  0  0  0
  202.1796  176.5484  154.2856 O   0  0  0  0  0  0  0  0  0  0  0  0
  201.9244  175.4522  156.3793 C   0  0  2  0  0  0  0  0  0  0  0  0
  199.9630  178.2861  153.3435 C   0  0  0  0  0  0  0  0  0  0  0  0
  199.2695  179.2852  152.6317 C   0  0  0  0  0  0  0  0  0  0  0  0
  198.2748  180.0537  153.2632 C   0  0  0  0  0  0  0  0  0  0  0  0
  199.7759  182.8067  157.7390 C   0  0  1  0  0  0  0  0  0  0  0  0
  200.8744  182.6411  158.7911 C   0  0  0  0  0  0  0  0  0  0  0  0
  201.8884  181.6893  158.5480 C   0  0  0  0  0  0  0  0  0  0  0  0
  202.9295  181.4895  159.4812 C   0  0  0  0  0  0  0  0  0  0  0  0
  202.9814  182.2771  160.6512 C   0  0  0  0  0  0  0  0  0  0  0  0
  201.9831  183.2396  160.8894 C   0  0  0  0  0  0  0  0  0  0  0  0
  200.9262  183.4167  159.9776 C   0  0  0  0  0  0  0  0  0  0  0  0
  198.2319  181.2128  156.6153 H   0  0  0  0  0  0  0  0  0  0  0  0
  197.4191  182.0186  159.1967 H   0  0  0  0  0  0  0  0  0  0  0  0
  197.2372  187.1702  159.5553 H   0  0  0  0  0  0  0  0  0  0  0  0
  194.9259  187.1442  160.5277 H   0  0  0  0  0  0  0  0  0  0  0  0
  193.5905  185.0405  160.5213 H   0  0  0  0  0  0  0  0  0  0  0  0
  194.5724  182.9148  159.6144 H   0  0  0  0  0  0  0  0  0  0  0  0
  195.5279  181.9311  157.4018 H   0  0  0  0  0  0  0  0  0  0  0  0
  196.4991  183.0149  156.4290 H   0  0  0  0  0  0  0  0  0  0  0  0
  195.9484  180.0418  155.3332 H   0  0  0  0  0  0  0  0  0  0  0  0
  196.6565  181.5127  154.6669 H   0  0  0  0  0  0  0  0  0  0  0  0
  198.4100  178.6252  156.3652 H   0  0  0  0  0  0  0  0  0  0  0  0
  199.8769  176.8847  156.3951 H   0  0  0  0  0  0  0  0  0  0  0  0
  202.1571  175.9991  157.2952 H   0  0  0  0  0  0  0  0  0  0  0  0
  202.8215  174.9147  156.0661 H   0  0  0  0  0  0  0  0  0  0  0  0
  201.1495  174.7117  156.5810 H   0  0  0  0  0  0  0  0  0  0  0  0
  200.6977  177.7140  152.8027 H   0  0  0  0  0  0  0  0  0  0  0  0
  199.5026  179.4553  151.5914 H   0  0  0  0  0  0  0  0  0  0  0  0
  197.7542  180.8161  152.6965 H   0  0  0  0  0  0  0  0  0  0  0  0
  199.5482  181.7880  157.4256 H   0  0  0  0  0  0  0  0  0  0  0  0
  200.1883  183.3091  156.8521 H   0  0  0  0  0  0  0  0  0  0  0  0
  201.8607  181.0795  157.6496 H   0  0  0  0  0  0  0  0  0  0  0  0
  203.6847  180.7327  159.2935 H   0  0  0  0  0  0  0  0  0  0  0  0
  203.7805  182.1391  161.3692 H   0  0  0  0  0  0  0  0  0  0  0  0
  202.0130  183.8583  161.7692 H   0  0  0  0  0  0  0  0  0  0  0  0
  200.1876  184.1546  160.2426 H   0  0  0  0  0  0  0  0  0  0  0  0
  197.0181  180.2574  157.2458 H   0  0  0  0  0  0  0  0  0  0  0  0
  1  2  2  0
  2  3  1  0
  2  6  1  0
  3  4  1  0
  3 24  1  0
  4  5  1  0
  4 11  1  0
  4 32  1  1
  5  6  1  0
  5 10  2  0
  6  7  2  0
  7  8  1  0
  7 33  1  0
  8  9  2  0
  8 34  1  0
  9 10  1  0
  9 35  1  0
 10 36  1  0
 11 12  1  0
 11 37  1  1
 11 38  1  0
 12 13  1  0
 12 31  1  6
 12 56  1  0
 13 14  1  0
 13 39  1  1
 13 40  1  0
 14 15  1  0
 14 23  2  0
 15 16  2  0
 15 41  1  0
 16 17  1  0
 16 21  1  0
 17 18  1  0
 17 42  1  0
 18 19  2  0
 18 20  1  0
 20 43  1  1
 20 44  1  0
 20 45  1  0
 21 22  2  0
 21 46  1  0
 22 23  1  0
 22 47  1  0
 23 48  1  0
 24 25  1  0
 24 49  1  6
 24 50  1  0
 25 26  2  0
 25 30  1  0
 26 27  1  0
 26 51  1  0
 27 28  2  0
 27 52  1  0
 28 29  1  0
 28 53  1  0
 29 30  2  0
 29 54  1  0
 30 55  1  0
M  CHG  1  12   1
M  END
>  <s_epik_cmdline>  (947) 
J2VwaWtfcHl0aG9uJywgJy1waCcsICc3LjAwMDAwMCcsICctcGh0JywgJzIuMDAwMDAwJywgJy1tcycsICcxNicsICctdG4nLCAnOCcsICctbWEnLCAnMjAwJywgJy1pbWFlJywgJzxpbmZpbGUubWFlPicsICctb21hZScsICc8b3V0ZmlsZS5tYWU+Jw==

>  <s_epik_input>  (947) 
W2NIXTFbY0hdW2NIXVtjSF1bY0hdYzFbQ0gyXU4oQyg9TyljKGMyMylbY0hdW2NIXVtjSF1bY0hdMylbQ0BASF0yW0NIMl1bTkhdW0NIMl1jNFtjSF1jKFtOSF1DKD1PKVtDSDNdKVtjSF1bY0hdW2NIXTQ=

>  <s_i_glide_gridfile>  (947) 
ATP-Grid

>  <s_lp_Force_Field>  (947) 
OPLS_2005

>  <s_lp_Variant>  (947) 
m_270004bbb____12219716____12427640-2

>  <s_lp_label>  (947) 
1026_sdstereoexpander_2_neutralizer_1_epik_1_stereoizer_1

>  <s_m_source_file>  (947) 
ATP-VSW-LIGPREP-001-in.maegz

>  <s_sd_BIOSOLVEIT.INFINISEE\_QUERY\_NAME>  (947) 
Ref-Lig

>  <s_sd_BIOSOLVEIT.INFINISEE\_QUERY\_SMILES>  (947) 
S(c1nc2c(cc1C[NH2+]Cc3ccc(cc3)C[NH+](C)C)cccc2)Cc4ccccc4

>  <s_sd_BIOSOLVEIT.INFINISEE\_REACTION\_NAME>  (947) 
m_270004bbb

>  <s_sd_BIOSOLVEIT.INFINISEE\_REAGENT1\_SMILES>  (947) 
[R1*]NCC1N(C(=O)c2c1cccc2)Cc3ccccc3

>  <s_sd_BIOSOLVEIT.INFINISEE\_REAGENT2\_SMILES>  (947) 
[R1*]Cc1cc(NC(=O)C)ccc1

>  <s_sd_BIOSOLVEIT.INFINISEE\_SPACE>  (947) 
REALSpace_44bn_2023-08

>  <s_vsw_compound_code>  (947) 
32801

>  <s_vsw_variant>  (947) 
32801-2

>  <r_epik_Charging_Adjusted_Penalty>  (947) 
0.126244097839946

>  <r_epik_Ionization_Penalty>  (947) 
0.063100000000000003

>  <r_epik_Ionization_Penalty_Charging>  (947) 
0.063100000000000003

>  <r_epik_Ionization_Penalty_Neutral>  (947) 
0

>  <r_epik_State_Penalty>  (947) 
0.063100000000000003

>  <r_i_docking_score>  (947) 
-5.8406342578885004

>  <r_i_glide_ecoul>  (947) 
-10.4392290115356

>  <r_i_glide_eff_state_penalty>  (947) 
0.063100000000000003

>  <r_i_glide_einternal>  (947) 
9.5002841949462908

>  <r_i_glide_emodel>  (947) 
-65.782292342431703

>  <r_i_glide_energy>  (947) 
-45.316155433654799

>  <r_i_glide_erotb>  (947) 
0.85560142518069704

>  <r_i_glide_esite>  (947) 
-0.10000000000000001

>  <r_i_glide_evdw>  (947) 
-34.876926422119098

>  <r_i_glide_gscore>  (947) 
-5.9037342578884999

>  <r_i_glide_hbond>  (947) 
-0.18136811992532301

>  <r_i_glide_ligand_efficiency>  (947) 
-0.19468780859628301

>  <r_i_glide_ligand_efficiency_ln>  (947) 
-1.3270557421995699

>  <r_i_glide_ligand_efficiency_sa>  (947) 
-0.60494028669745403

>  <r_i_glide_lipo>  (947) 
-2.0966909307024602

>  <r_i_glide_metal>  (947) 
-0

>  <r_i_glide_rewards>  (947) 
-1.07154595960511

>  <r_lp_Energy>  (947) 
51.315066999999999

>  <r_qp_ACxDN^.5/SA>  (947) 
0.013721199999999999

>  <r_qp_CIQPlogS>  (947) 
-4.6520000000000001

>  <r_qp_EA(eV)>  (947) 
0.23000000000000001

>  <r_qp_FISA>  (947) 
93.188999999999993

>  <r_qp_FOSA>  (947) 
193.55600000000001

>  <r_qp_IP(eV)>  (947) 
8.9399999999999995

>  <r_qp_Jm>  (947) 
0.011808529261053699

>  <r_qp_PISA>  (947) 
434.73099999999999

>  <r_qp_PSA>  (947) 
78.950999999999993

>  <r_qp_PercentHumanOralAbsorption>  (947) 
94.423000000000002

>  <r_qp_QPPCaco>  (947) 
322.916

>  <r_qp_QPPMDCK>  (947) 
161.292

>  <r_qp_QPlogBB>  (947) 
-0.41299999999999998

>  <r_qp_QPlogHERG>  (947) 
-7.4500000000000002

>  <r_qp_QPlogKhsa>  (947) 
0.51100000000000001

>  <r_qp_QPlogKp>  (947) 
-3.0960000000000001

>  <r_qp_QPlogPC16>  (947) 
14.696999999999999

>  <r_qp_QPlogPo/w>  (947) 
3.855

>  <r_qp_QPlogPoct>  (947) 
22.245999999999999

>  <r_qp_QPlogPw>  (947) 
13.326000000000001

>  <r_qp_QPlogS>  (947) 
-4.4329999999999998

>  <r_qp_QPpolrz>  (947) 
46.396000000000001

>  <r_qp_SASA>  (947) 
721.476

>  <r_qp_SAamideO>  (947) 
0

>  <r_qp_SAfluorine>  (947) 
0

>  <r_qp_WPSA>  (947) 
0

>  <r_qp_accptHB>  (947) 
7

>  <r_qp_dip^2/V>  (947) 
0.0090942000000000002

>  <r_qp_dipole>  (947) 
3.4670000000000001

>  <r_qp_donorHB>  (947) 
2

>  <r_qp_glob>  (947) 
0.80727839999999995

>  <r_qp_mol_MW>  (947) 
399.49099999999999

>  <r_qp_volume>  (947) 
1321.6610000000001

>  <r_sd_BIOSOLVEIT.INFINISEE\_FTREES\_SIMILARITY>  (947) 
0.91500000000000004

>  <r_sd_BIOSOLVEIT.LOGP>  (947) 
3.1057000000000001

>  <r_sd_BIOSOLVEIT.MOLECULAR\_WEIGHT>  (947) 
400.49900000000002

>  <r_sd_BIOSOLVEIT.TPSA>  (947) 
66.019999999999996

>  <i_epik_Tot_Q>  (947) 
1

>  <i_epik_Tot_abs_Q>  (947) 
1

>  <i_f3d_flags>  (947) 
0

>  <i_i_glide_confnum>  (947) 
5

>  <i_i_glide_lignum>  (947) 
223

>  <i_i_glide_posenum>  (947) 
4

>  <i_i_glide_rotatable_bonds>  (947) 
8

>  <i_lp_mmshare_version>  (947) 
65135

>  <i_m_ct_format>  (947) 
2

>  <i_m_source_file_index>  (947) 
1026

>  <i_qp_#NandO>  (947) 
5

>  <i_qp_#acid>  (947) 
0

>  <i_qp_#amide>  (947) 
0

>  <i_qp_#amidine>  (947) 
0

>  <i_qp_#amine>  (947) 
1

>  <i_qp_#in34>  (947) 
0

>  <i_qp_#in56>  (947) 
21

>  <i_qp_#metab>  (947) 
5

>  <i_qp_#nonHatm>  (947) 
30

>  <i_qp_#noncon>  (947) 
1

>  <i_qp_#ringatoms>  (947) 
21

>  <i_qp_#rotor>  (947) 
7

>  <i_qp_#rtvFG>  (947) 
0

>  <i_qp_#stars>  (947) 
0

>  <i_qp_CNS>  (947) 
1

>  <i_qp_HumanOralAbsorption>  (947) 
3

>  <i_qp_RuleOfFive>  (947) 
0

>  <i_qp_RuleOfThree>  (947) 
0

>  <i_sd_BIOSOLVEIT.INFINISEE\_REAGENT1\_NAME>  (947) 
12219716

>  <i_sd_BIOSOLVEIT.INFINISEE\_REAGENT2\_NAME>  (947) 
12427640

>  <i_sd_BIOSOLVEIT.INFINISEE\_RESULT\_RANK>  (947) 
27807

>  <i_sd_version>  (947) 
0

>  <b_lp_Chiralities_Consistent>  (947) 
1

>  <b_sd_chiral_flag>  (947) 
0

>  <canonical_id>  (947) 
ATP-HTVS-96035055C171

>  <compound_code>  (947) 
32801

>  <title>  (947) 
m_270004bbb____12219716____12427640

>  <variant>  (947) 
32801-2

>  <source_file>  (947) 
运行/运行/ATP-VSW/ATP-VSW-DOCK_HTVS_1-001_lib/ATP-VSW-DOCK_HTVS_1-001_lib

>  <canonical_smiles>  (947) 
CC(=O)Nc1cccc(C[NH2+]C[C@@H]2c3ccccc3C(=O)N2Cc2ccccc2)c1

>  <scaffold>  (947) 
O=C1c2ccccc2C(C[NH2+]Cc2ccccc2)N1Cc1ccccc1

>  <molecular_formula>  (947) 
C25H26N3O2+

$$$$
ATP-HTVS-9640828E0D0B
     RDKit          3D

 50 53  0  0  0  0  0  0  0  0999 V2000
  201.1838  175.4364  154.0852 Cl  0  0  0  0  0  0  0  0  0  0  0  0
  200.8670  176.6058  155.3163 C   0  0  0  0  0  0  0  0  0  0  0  0
  200.2981  177.8466  154.9748 C   0  0  0  0  0  0  0  0  0  0  0  0
  200.0354  178.7995  155.9759 C   0  0  0  0  0  0  0  0  0  0  0  0
  200.3506  178.5138  157.3221 C   0  0  0  0  0  0  0  0  0  0  0  0
  200.9029  177.2681  157.6641 C   0  0  0  0  0  0  0  0  0  0  0  0
  201.1639  176.3142  156.6626 C   0  0  0  0  0  0  0  0  0  0  0  0
  199.3999  180.1241  155.6073 C   0  0  1  0  0  0  0  0  0  0  0  0
  197.9514  180.1924  155.9717 N   0  0  1  0  0  0  0  0  0  0  0  0
  197.2885  181.5079  155.7197 C   0  0  1  0  0  0  0  0  0  0  0  0
  198.1309  182.5901  156.3385 C   0  0  0  0  0  0  0  0  0  0  0  0
  198.9759  183.3133  155.5951 N   0  0  0  0  0  0  0  0  0  0  0  0
  199.5785  184.1354  156.5269 C   0  0  0  0  0  0  0  0  0  0  0  0
  199.0585  183.8901  157.8317 C   0  0  0  0  0  0  0  0  0  0  0  0
  198.1290  182.8647  157.6669 N   0  0  0  0  0  0  0  0  0  0  0  0
  197.3354  182.2394  158.7115 C   0  0  1  0  0  0  0  0  0  0  0  0
  196.0170  182.9385  158.9308 C   0  0  0  0  0  0  0  0  0  0  0  0
  194.8471  182.4158  158.3539 C   0  0  0  0  0  0  0  0  0  0  0  0
  193.6233  183.0636  158.5405 C   0  0  0  0  0  0  0  0  0  0  0  0
  193.5618  184.2232  159.3419 C   0  0  0  0  0  0  0  0  0  0  0  0
  194.7292  184.7481  159.9175 C   0  0  0  0  0  0  0  0  0  0  0  0
  195.9564  184.1001  159.7246 C   0  0  0  0  0  0  0  0  0  0  0  0
  199.5082  184.6215  158.9481 C   0  0  0  0  0  0  0  0  0  0  0  0
  200.4896  185.6156  158.7756 C   0  0  0  0  0  0  0  0  0  0  0  0
  201.0337  185.8564  157.4977 C   0  0  0  0  0  0  0  0  0  0  0  0
  200.5889  185.1139  156.3816 C   0  0  0  0  0  0  0  0  0  0  0  0
  197.1610  179.0996  155.3514 C   0  0  2  0  0  0  0  0  0  0  0  0
  200.0660  178.0592  153.9405 H   0  0  0  0  0  0  0  0  0  0  0  0
  200.1591  179.2362  158.0986 H   0  0  0  0  0  0  0  0  0  0  0  0
  201.1237  177.0494  158.6989 H   0  0  0  0  0  0  0  0  0  0  0  0
  201.5889  175.3559  156.9290 H   0  0  0  0  0  0  0  0  0  0  0  0
  200.0235  180.8490  156.1287 H   0  0  0  0  0  0  0  0  0  0  0  0
  199.5069  180.3279  154.5441 H   0  0  0  0  0  0  0  0  0  0  0  0
  197.1888  181.7057  154.6469 H   0  0  0  0  0  0  0  0  0  0  0  0
  196.2867  181.5115  156.1322 H   0  0  0  0  0  0  0  0  0  0  0  0
  197.1546  181.1908  158.4799 H   0  0  0  0  0  0  0  0  0  0  0  0
  197.9000  182.2773  159.6388 H   0  0  0  0  0  0  0  0  0  0  0  0
  194.8574  181.5015  157.7695 H   0  0  0  0  0  0  0  0  0  0  0  0
  192.7339  182.6718  158.0700 H   0  0  0  0  0  0  0  0  0  0  0  0
  192.6113  184.6930  159.4975 H   0  0  0  0  0  0  0  0  0  0  0  0
  194.6736  185.6306  160.5439 H   0  0  0  0  0  0  0  0  0  0  0  0
  196.8552  184.5035  160.1815 H   0  0  0  0  0  0  0  0  0  0  0  0
  199.1040  184.4292  159.9289 H   0  0  0  0  0  0  0  0  0  0  0  0
  200.8199  186.2055  159.6172 H   0  0  0  0  0  0  0  0  0  0  0  0
  201.7859  186.6270  157.3679 H   0  0  0  0  0  0  0  0  0  0  0  0
  201.0184  185.2942  155.4075 H   0  0  0  0  0  0  0  0  0  0  0  0
  197.1774  179.1745  154.2628 H   0  0  0  0  0  0  0  0  0  0  0  0
  196.1270  179.1309  155.6835 H   0  0  0  0  0  0  0  0  0  0  0  0
  197.5411  178.1180  155.6404 H   0  0  0  0  0  0  0  0  0  0  0  0
  197.8872  180.0062  156.9658 H   0  0  0  0  0  0  0  0  0  0  0  0
  1  2  1  0
  2  3  2  0
  2  7  1  0
  3  4  1  0
  3 28  1  0
  4  5  2  0
  4  8  1  0
  5  6  1  0
  5 29  1  0
  6  7  2  0
  6 30  1  0
  7 31  1  0
  8  9  1  0
  8 32  1  1
  8 33  1  0
  9 10  1  0
  9 27  1  0
  9 50  1  1
 10 11  1  0
 10 34  1  6
 10 35  1  0
 11 12  2  0
 11 15  1  0
 12 13  1  0
 13 14  1  0
 13 26  2  0
 14 15  1  0
 14 23  2  0
 15 16  1  0
 16 17  1  0
 16 36  1  6
 16 37  1  0
 17 18  2  0
 17 22  1  0
 18 19  1  0
 18 38  1  0
 19 20  2  0
 19 39  1  0
 20 21  1  0
 20 40  1  0
 21 22  2  0
 21 41  1  0
 22 42  1  0
 23 24  1  0
 23 43  1  0
 24 25  2  0
 24 44  1  0
 25 26  1  0
 25 45  1  0
 26 46  1  0
 27 47  1  6
 27 48  1  0
 27 49  1  0
M  CHG  1   9   1
M  END
>  <s_epik_cmdline>  (948) 
J2VwaWtfcHl0aG9uJywgJy1waCcsICc3LjAwMDAwMCcsICctcGh0JywgJzIuMDAwMDAwJywgJy1tcycsICcxNicsICctdG4nLCAnOCcsICctbWEnLCAnMjAwJywgJy1pbWFlJywgJzxpbmZpbGUubWFlPicsICctb21hZScsICc8b3V0ZmlsZS5tYWU+Jw==

>  <s_epik_input>  (948) 
Q2xjMVtjSF1jKFtjSF1bY0hdW2NIXTEpW0NIMl1OKFtDSDNdKVtDSDJdYyhuMiluKGMoYzIzKVtjSF1bY0hdW2NIXVtjSF0zKVtDSDJdYzRbY0hdW2NIXVtjSF1bY0hdW2NIXTQ=

>  <s_i_glide_gridfile>  (948) 
ATP-Grid

>  <s_lp_Force_Field>  (948) 
OPLS_2005

>  <s_lp_Variant>  (948) 
m_270004bca____24158016____24720860-3

>  <s_lp_label>  (948) 
1795_sdstereoexpander_1_neutralizer_1_epik_2_stereoizer_2

>  <s_m_source_file>  (948) 
ATP-VSW-LIGPREP-003-in.maegz

>  <s_sd_BIOSOLVEIT.INFINISEE\_QUERY\_NAME>  (948) 
Ref-Lig

>  <s_sd_BIOSOLVEIT.INFINISEE\_QUERY\_SMILES>  (948) 
S(c1nc2c(cc1C[NH2+]Cc3ccc(cc3)C[NH+](C)C)cccc2)Cc4ccccc4

>  <s_sd_BIOSOLVEIT.INFINISEE\_REACTION\_NAME>  (948) 
m_270004bca

>  <s_sd_BIOSOLVEIT.INFINISEE\_REAGENT1\_SMILES>  (948) 
[R1*]N(Cc1cc(Cl)ccc1)C

>  <s_sd_BIOSOLVEIT.INFINISEE\_REAGENT2\_SMILES>  (948) 
[R1*]CC1=Nc2c(N1Cc3ccccc3)cccc2

>  <s_sd_BIOSOLVEIT.INFINISEE\_SPACE>  (948) 
REALSpace_44bn_2023-08

>  <s_vsw_compound_code>  (948) 
57411

>  <s_vsw_variant>  (948) 
57411-3

>  <r_epik_Charging_Adjusted_Penalty>  (948) 
1.71576611331825

>  <r_epik_Ionization_Penalty>  (948) 
0.79630000000000001

>  <r_epik_Ionization_Penalty_Charging>  (948) 
0.79379999999999995

>  <r_epik_Ionization_Penalty_Neutral>  (948) 
0.0025000000000000001

>  <r_epik_State_Penalty>  (948) 
0.92190000000000005

>  <r_i_docking_score>  (948) 
-3.3521369802434902

>  <r_i_glide_ecoul>  (948) 
-7.15228366851807

>  <r_i_glide_eff_state_penalty>  (948) 
0.92190000000000005

>  <r_i_glide_einternal>  (948) 
1.67908906936646

>  <r_i_glide_emodel>  (948) 
-50.114489438443002

>  <r_i_glide_energy>  (948) 
-36.444518089294398

>  <r_i_glide_erotb>  (948) 
0.681521393368685

>  <r_i_glide_esite>  (948) 
-0.11928136093446801

>  <r_i_glide_evdw>  (948) 
-29.292234420776399

>  <r_i_glide_gscore>  (948) 
-4.2740369802434897

>  <r_i_glide_hbond>  (948) 
0

>  <r_i_glide_ligand_efficiency>  (948) 
-0.1241532214905

>  <r_i_glide_ligand_efficiency_ln>  (948) 
-0.78032222470342505

>  <r_i_glide_ligand_efficiency_sa>  (948) 
-0.37245966406231001

>  <r_i_glide_lipo>  (948) 
-1.23451492317936

>  <r_i_glide_metal>  (948) 
-0

>  <r_i_glide_rewards>  (948) 
-1.06430781818182

>  <r_lp_Energy>  (948) 
14.043741000000001

>  <r_qp_ACxDN^.5/SA>  (948) 
0

>  <r_qp_CIQPlogS>  (948) 
-5.6429999999999998

>  <r_qp_EA(eV)>  (948) 
0.29299999999999998

>  <r_qp_FISA>  (948) 
8.2799999999999994

>  <r_qp_FOSA>  (948) 
157.62100000000001

>  <r_qp_IP(eV)>  (948) 
8.4730000000000008

>  <r_qp_Jm>  (948) 
1.48166512440484

>  <r_qp_PISA>  (948) 
357.88900000000001

>  <r_qp_PSA>  (948) 
15.553000000000001

>  <r_qp_PercentHumanOralAbsorption>  (948) 
100

>  <r_qp_QPPCaco>  (948) 
2061.9569999999999

>  <r_qp_QPPMDCK>  (948) 
2541.7869999999998

>  <r_qp_QPlogBB>  (948) 
0.67800000000000005

>  <r_qp_QPlogHERG>  (948) 
-5.6420000000000003

>  <r_qp_QPlogKhsa>  (948) 
0.69199999999999995

>  <r_qp_QPlogKp>  (948) 
-1.8979999999999999

>  <r_qp_QPlogPC16>  (948) 
11.807

>  <r_qp_QPlogPo/w>  (948) 
4.9909999999999997

>  <r_qp_QPlogPoct>  (948) 
15.099

>  <r_qp_QPlogPw>  (948) 
5.7590000000000003

>  <r_qp_QPlogS>  (948) 
-3.5059999999999998

>  <r_qp_QPpolrz>  (948) 
38.421999999999997

>  <r_qp_SASA>  (948) 
583.52200000000005

>  <r_qp_SAamideO>  (948) 
0

>  <r_qp_SAfluorine>  (948) 
0

>  <r_qp_WPSA>  (948) 
59.731999999999999

>  <r_qp_accptHB>  (948) 
3.5

>  <r_qp_dip^2/V>  (948) 
0.038085500000000001

>  <r_qp_dipole>  (948) 
6.5449999999999999

>  <r_qp_donorHB>  (948) 
0

>  <r_qp_glob>  (948) 
0.89632959999999995

>  <r_qp_mol_MW>  (948) 
375.89999999999998

>  <r_qp_volume>  (948) 
1124.7090000000001

>  <r_sd_BIOSOLVEIT.INFINISEE\_FTREES\_SIMILARITY>  (948) 
0.90400000000000003

>  <r_sd_BIOSOLVEIT.LOGP>  (948) 
3.9529000000000001

>  <r_sd_BIOSOLVEIT.MOLECULAR\_WEIGHT>  (948) 
376.90899999999999

>  <r_sd_BIOSOLVEIT.TPSA>  (948) 
22.260000000000002

>  <i_epik_Tot_Q>  (948) 
1

>  <i_epik_Tot_abs_Q>  (948) 
1

>  <i_f3d_flags>  (948) 
0

>  <i_i_glide_confnum>  (948) 
4

>  <i_i_glide_lignum>  (948) 
667

>  <i_i_glide_posenum>  (948) 
4

>  <i_i_glide_rotatable_bonds>  (948) 
6

>  <i_lp_mmshare_version>  (948) 
65135

>  <i_m_ct_format>  (948) 
2

>  <i_m_source_file_index>  (948) 
1795

>  <i_qp_#NandO>  (948) 
3

>  <i_qp_#acid>  (948) 
0

>  <i_qp_#amide>  (948) 
0

>  <i_qp_#amidine>  (948) 
0

>  <i_qp_#amine>  (948) 
1

>  <i_qp_#in34>  (948) 
0

>  <i_qp_#in56>  (948) 
21

>  <i_qp_#metab>  (948) 
4

>  <i_qp_#nonHatm>  (948) 
27

>  <i_qp_#noncon>  (948) 
0

>  <i_qp_#ringatoms>  (948) 
21

>  <i_qp_#rotor>  (948) 
6

>  <i_qp_#rtvFG>  (948) 
0

>  <i_qp_#stars>  (948) 
0

>  <i_qp_CNS>  (948) 
2

>  <i_qp_HumanOralAbsorption>  (948) 
3

>  <i_qp_RuleOfFive>  (948) 
0

>  <i_qp_RuleOfThree>  (948) 
0

>  <i_sd_BIOSOLVEIT.INFINISEE\_REAGENT1\_NAME>  (948) 
24158016

>  <i_sd_BIOSOLVEIT.INFINISEE\_REAGENT2\_NAME>  (948) 
24720860

>  <i_sd_BIOSOLVEIT.INFINISEE\_RESULT\_RANK>  (948) 
77576

>  <i_sd_version>  (948) 
0

>  <b_lp_Chiralities_Consistent>  (948) 
1

>  <b_sd_chiral_flag>  (948) 
0

>  <canonical_id>  (948) 
ATP-HTVS-9640828E0D0B

>  <compound_code>  (948) 
57411

>  <title>  (948) 
m_270004bca____24158016____24720860

>  <variant>  (948) 
57411-3

>  <source_file>  (948) 
运行/运行/ATP-VSW/ATP-VSW-DOCK_HTVS_1-003_lib/ATP-VSW-DOCK_HTVS_1-003_lib.mae

>  <canonical_smiles>  (948) 
C[N@@H+](Cc1cccc(Cl)c1)Cc1nc2ccccc2n1Cc1ccccc1

>  <scaffold>  (948) 
c1ccc(C[NH2+]Cc2nc3ccccc3n2Cc2ccccc2)cc1

>  <molecular_formula>  (948) 
C23H23ClN3+

$$$$
ATP-HTVS-96C7A2856398
     RDKit          3D

 62 66  0  0  0  0  0  0  0  0999 V2000
  200.2018  186.6198  152.8668 Cl  0  0  0  0  0  0  0  0  0  0  0  0
  199.4316  185.6746  154.0902 C   0  0  0  0  0  0  0  0  0  0  0  0
  200.1850  185.1442  155.1572 C   0  0  0  0  0  0  0  0  0  0  0  0
  199.5532  184.3737  156.1557 C   0  0  0  0  0  0  0  0  0  0  0  0
  198.1630  184.1284  156.0903 C   0  0  0  0  0  0  0  0  0  0  0  0
  197.4177  184.6671  155.0181 C   0  0  0  0  0  0  0  0  0  0  0  0
  198.0473  185.4341  154.0211 C   0  0  0  0  0  0  0  0  0  0  0  0
  197.4787  183.2937  157.1718 C   0  0  1  0  0  0  0  0  0  0  0  0
  196.5062  184.0905  157.9460 N   0  0  0  0  0  0  0  0  0  0  0  0
  197.1236  185.2076  158.6505 C   0  0  1  0  0  0  0  0  0  0  0  0
  196.0551  185.6570  159.6511 C   0  0  1  0  0  0  0  0  0  0  0  0
  195.2177  184.4129  159.8843 C   0  0  1  0  0  0  0  0  0  0  0  0
  195.8623  183.3413  159.0174 C   0  0  1  0  0  0  0  0  0  0  0  0
  196.8223  182.0307  156.5606 C   0  0  1  0  0  0  0  0  0  0  0  0
  197.8382  181.1302  155.9890 N   0  0  1  0  0  0  0  0  0  0  0  0
  197.2894  179.9120  155.3704 C   0  0  1  0  0  0  0  0  0  0  0  0
  198.3726  179.1223  154.7125 C   0  0  0  0  0  0  0  0  0  0  0  0
  198.7694  179.0662  153.3414 C   0  0  0  0  0  0  0  0  0  0  0  0
  199.7574  178.1979  153.1763 N   0  0  0  0  0  0  0  0  0  0  0  0
  200.0264  177.6622  154.3915 N   0  0  0  0  0  0  0  0  0  0  0  0
  201.0287  176.6583  154.5511 C   0  0  0  0  0  0  0  0  0  0  0  0
  201.7260  176.1442  153.4297 C   0  0  0  0  0  0  0  0  0  0  0  0
  202.7240  175.1610  153.5941 C   0  0  0  0  0  0  0  0  0  0  0  0
  203.0344  174.6796  154.8782 C   0  0  0  0  0  0  0  0  0  0  0  0
  202.3466  175.1791  155.9986 C   0  0  0  0  0  0  0  0  0  0  0  0
  201.3479  176.1608  155.8369 C   0  0  0  0  0  0  0  0  0  0  0  0
  199.2000  178.2287  155.3429 C   0  0  0  0  0  0  0  0  0  0  0  0
  198.2258  179.7818  152.1627 C   0  0  0  0  0  0  0  0  0  0  0  0
  198.4650  179.2957  150.8552 C   0  0  0  0  0  0  0  0  0  0  0  0
  197.9247  179.9894  149.7530 C   0  0  0  0  0  0  0  0  0  0  0  0
  197.1480  181.0844  149.8850 N   0  0  0  0  0  0  0  0  0  0  0  0
  196.9282  181.5564  151.1245 C   0  0  0  0  0  0  0  0  0  0  0  0
  197.4600  180.9655  152.2778 C   0  0  0  0  0  0  0  0  0  0  0  0
  198.3846  181.6499  155.3176 H   0  0  0  0  0  0  0  0  0  0  0  0
  201.2468  185.3324  155.2134 H   0  0  0  0  0  0  0  0  0  0  0  0
  200.1384  183.9858  156.9747 H   0  0  0  0  0  0  0  0  0  0  0  0
  196.3544  184.5045  154.9557 H   0  0  0  0  0  0  0  0  0  0  0  0
  197.4644  185.8451  153.2090 H   0  0  0  0  0  0  0  0  0  0  0  0
  198.2443  182.9702  157.8772 H   0  0  0  0  0  0  0  0  0  0  0  0
  198.0163  184.8732  159.1904 H   0  0  0  0  0  0  0  0  0  0  0  0
  197.4188  186.0193  157.9787 H   0  0  0  0  0  0  0  0  0  0  0  0
  196.5022  186.0308  160.5703 H   0  0  0  0  0  0  0  0  0  0  0  0
  195.4423  186.4500  159.2249 H   0  0  0  0  0  0  0  0  0  0  0  0
  195.2216  184.1002  160.9259 H   0  0  0  0  0  0  0  0  0  0  0  0
  194.1898  184.5799  159.5690 H   0  0  0  0  0  0  0  0  0  0  0  0
  195.1076  182.6425  158.6608 H   0  0  0  0  0  0  0  0  0  0  0  0
  196.6114  182.7915  159.5923 H   0  0  0  0  0  0  0  0  0  0  0  0
  196.2878  181.4328  157.2981 H   0  0  0  0  0  0  0  0  0  0  0  0
  196.0922  182.2999  155.7951 H   0  0  0  0  0  0  0  0  0  0  0  0
  196.8581  179.2864  156.1327 H   0  0  0  0  0  0  0  0  0  0  0  0
  196.4275  180.1182  154.7296 H   0  0  0  0  0  0  0  0  0  0  0  0
  201.5087  176.4963  152.4324 H   0  0  0  0  0  0  0  0  0  0  0  0
  203.2520  174.7793  152.7336 H   0  0  0  0  0  0  0  0  0  0  0  0
  203.8006  173.9263  155.0051 H   0  0  0  0  0  0  0  0  0  0  0  0
  202.5911  174.8194  156.9857 H   0  0  0  0  0  0  0  0  0  0  0  0
  200.8468  176.5254  156.7190 H   0  0  0  0  0  0  0  0  0  0  0  0
  199.2274  177.9409  156.3846 H   0  0  0  0  0  0  0  0  0  0  0  0
  199.0697  178.4184  150.6811 H   0  0  0  0  0  0  0  0  0  0  0  0
  198.1263  179.6600  148.7433 H   0  0  0  0  0  0  0  0  0  0  0  0
  196.3173  182.4392  151.2167 H   0  0  0  0  0  0  0  0  0  0  0  0
  197.2680  181.4635  153.2123 H   0  0  0  0  0  0  0  0  0  0  0  0
  198.4492  180.8401  156.7396 H   0  0  0  0  0  0  0  0  0  0  0  0
  1  2  1  0
  2  3  1  0
  2  7  2  0
  3  4  2  0
  3 35  1  0
  4  5  1  0
  4 36  1  0
  5  6  2  0
  5  8  1  0
  6  7  1  0
  6 37  1  0
  7 38  1  0
  8  9  1  0
  8 14  1  0
  8 39  1  1
  9 10  1  0
  9 13  1  0
 10 11  1  0
 10 40  1  1
 10 41  1  0
 11 12  1  0
 11 42  1  1
 11 43  1  0
 12 13  1  0
 12 44  1  1
 12 45  1  0
 13 46  1  6
 13 47  1  0
 14 15  1  0
 14 48  1  1
 14 49  1  0
 15 16  1  0
 15 34  1  6
 15 62  1  0
 16 17  1  0
 16 50  1  1
 16 51  1  0
 17 18  1  0
 17 27  2  0
 18 19  2  0
 18 28  1  0
 19 20  1  0
 20 21  1  0
 20 27  1  0
 21 22  2  0
 21 26  1  0
 22 23  1  0
 22 52  1  0
 23 24  2  0
 23 53  1  0
 24 25  1  0
 24 54  1  0
 25 26  2  0
 25 55  1  0
 26 56  1  0
 27 57  1  0
 28 29  2  0
 28 33  1  0
 29 30  1  0
 29 58  1  0
 30 31  2  0
 30 59  1  0
 31 32  1  0
 32 33  2  0
 32 60  1  0
 33 61  1  0
M  CHG  1  15   1
M  END
>  <s_epik_cmdline>  (949) 
J2VwaWtfcHl0aG9uJywgJy1waCcsICc3LjAwMDAwMCcsICctcGh0JywgJzIuMDAwMDAwJywgJy1tcycsICcxNicsICctdG4nLCAnOCcsICctbWEnLCAnMjAwJywgJy1pbWFlJywgJzxpbmZpbGUubWFlPicsICctb21hZScsICc8b3V0ZmlsZS5tYWU+Jw==

>  <s_epik_input>  (949) 
Q2xjMVtjSF1bY0hdYyhbY0hdW2NIXTEpW0NAQEhdKE4yW0NIMl1bQ0gyXVtDSDJdW0NIMl0yKVtDSDJdW05IXVtDSDJdYzNjKC1jNFtjSF1bY0hdbltjSF1bY0hdNClubihbY0hdMyktYzVbY0hdW2NIXVtjSF1bY0hdW2NIXTU=

>  <s_i_glide_gridfile>  (949) 
ATP-Grid

>  <s_lp_Force_Field>  (949) 
OPLS_2005

>  <s_lp_Variant>  (949) 
m_270004bbb____18361122____7547806-1

>  <s_lp_label>  (949) 
1812_sdstereoexpander_1_neutralizer_1_epik_1_stereoizer_1

>  <s_m_source_file>  (949) 
ATP-VSW-LIGPREP-001-in.maegz

>  <s_sd_BIOSOLVEIT.INFINISEE\_QUERY\_NAME>  (949) 
Ref-Lig

>  <s_sd_BIOSOLVEIT.INFINISEE\_QUERY\_SMILES>  (949) 
S(c1nc2c(cc1C[NH2+]Cc3ccc(cc3)C[NH+](C)C)cccc2)Cc4ccccc4

>  <s_sd_BIOSOLVEIT.INFINISEE\_REACTION\_NAME>  (949) 
m_270004bbb

>  <s_sd_BIOSOLVEIT.INFINISEE\_REAGENT1\_SMILES>  (949) 
[R1*]NCC(N1CCCC1)c2ccc(Cl)cc2

>  <s_sd_BIOSOLVEIT.INFINISEE\_REAGENT2\_SMILES>  (949) 
[R1*]CC=1C(=NN(c2ccccc2)C1)c3ccncc3

>  <s_sd_BIOSOLVEIT.INFINISEE\_SPACE>  (949) 
REALSpace_44bn_2023-08

>  <s_vsw_compound_code>  (949) 
57953

>  <s_vsw_variant>  (949) 
57953-1

>  <r_epik_Charging_Adjusted_Penalty>  (949) 
0.44919289896335801

>  <r_epik_Ionization_Penalty>  (949) 
0.060900000000000003

>  <r_epik_Ionization_Penalty_Charging>  (949) 
0.020799999999999999

>  <r_epik_Ionization_Penalty_Neutral>  (949) 
0.040000000000000001

>  <r_epik_State_Penalty>  (949) 
0.4284

>  <r_i_docking_score>  (949) 
-3.90880903018788

>  <r_i_glide_ecoul>  (949) 
-7.8805174827575701

>  <r_i_glide_eff_state_penalty>  (949) 
0.4284

>  <r_i_glide_einternal>  (949) 
4.0268373489379901

>  <r_i_glide_emodel>  (949) 
-59.1311810070669

>  <r_i_glide_energy>  (949) 
-43.709184169769301

>  <r_i_glide_erotb>  (949) 
0.76387508002914195

>  <r_i_glide_esite>  (949) 
-0.056586566650783598

>  <r_i_glide_evdw>  (949) 
-35.828666687011697

>  <r_i_glide_gscore>  (949) 
-4.3372090301878803

>  <r_i_glide_hbond>  (949) 
0

>  <r_i_glide_ligand_efficiency>  (949) 
-0.118448758490542

>  <r_i_glide_ligand_efficiency_ln>  (949) 
-0.86929888958377899

>  <r_i_glide_ligand_efficiency_sa>  (949) 
-0.37992845876099002

>  <r_i_glide_lipo>  (949) 
-1.56647767771111

>  <r_i_glide_metal>  (949) 
-0

>  <r_i_glide_rewards>  (949) 
-0.50450890909090795

>  <r_lp_Energy>  (949) 
37.570186999999997

>  <r_lp_tautomer_probability>  (949) 
1

>  <r_qp_ACxDN^.5/SA>  (949) 
0.0081984999999999992

>  <r_qp_CIQPlogS>  (949) 
-5.4550000000000001

>  <r_qp_EA(eV)>  (949) 
0.65300000000000002

>  <r_qp_FISA>  (949) 
37.003999999999998

>  <r_qp_FOSA>  (949) 
228.86099999999999

>  <r_qp_IP(eV)>  (949) 
8.8599999999999994

>  <r_qp_Jm>  (949) 
0.00149442458132857

>  <r_qp_PISA>  (949) 
411.27100000000002

>  <r_qp_PSA>  (949) 
43.253999999999998

>  <r_qp_PercentHumanOralAbsorption>  (949) 
100

>  <r_qp_QPPCaco>  (949) 
274.65800000000002

>  <r_qp_QPPMDCK>  (949) 
298.66500000000002

>  <r_qp_QPlogBB>  (949) 
0.77400000000000002

>  <r_qp_QPlogHERG>  (949) 
-7.7160000000000002

>  <r_qp_QPlogKhsa>  (949) 
1.0069999999999999

>  <r_qp_QPlogKp>  (949) 
-4.3019999999999996

>  <r_qp_QPlogPC16>  (949) 
14.99

>  <r_qp_QPlogPo/w>  (949) 
4.9800000000000004

>  <r_qp_QPlogPoct>  (949) 
22.123000000000001

>  <r_qp_QPlogPw>  (949) 
10.6

>  <r_qp_QPlogS>  (949) 
-4.1849999999999996

>  <r_qp_QPpolrz>  (949) 
50.131999999999998

>  <r_qp_SASA>  (949) 
731.84000000000003

>  <r_qp_SAamideO>  (949) 
0

>  <r_qp_SAfluorine>  (949) 
0

>  <r_qp_WPSA>  (949) 
54.704999999999998

>  <r_qp_accptHB>  (949) 
6

>  <r_qp_dip^2/V>  (949) 
0.041706699999999999

>  <r_qp_dipole>  (949) 
7.6539999999999999

>  <r_qp_donorHB>  (949) 
1

>  <r_qp_glob>  (949) 
0.82878870000000004

>  <r_qp_mol_MW>  (949) 
458.005

>  <r_qp_volume>  (949) 
1404.568

>  <r_sd_BIOSOLVEIT.INFINISEE\_FTREES\_SIMILARITY>  (949) 
0.90400000000000003

>  <r_sd_BIOSOLVEIT.LOGP>  (949) 
3.0710999999999999

>  <r_sd_BIOSOLVEIT.MOLECULAR\_WEIGHT>  (949) 
460.02199999999999

>  <r_sd_BIOSOLVEIT.TPSA>  (949) 
51.759999999999998

>  <i_epik_Tot_Q>  (949) 
1

>  <i_epik_Tot_abs_Q>  (949) 
1

>  <i_f3d_flags>  (949) 
0

>  <i_i_glide_confnum>  (949) 
3

>  <i_i_glide_lignum>  (949) 
527

>  <i_i_glide_posenum>  (949) 
10

>  <i_i_glide_rotatable_bonds>  (949) 
8

>  <i_lp_mmshare_version>  (949) 
65135

>  <i_m_ct_format>  (949) 
2

>  <i_m_source_file_index>  (949) 
1812

>  <i_qp_#NandO>  (949) 
5

>  <i_qp_#acid>  (949) 
0

>  <i_qp_#amide>  (949) 
0

>  <i_qp_#amidine>  (949) 
0

>  <i_qp_#amine>  (949) 
2

>  <i_qp_#in34>  (949) 
0

>  <i_qp_#in56>  (949) 
28

>  <i_qp_#metab>  (949) 
6

>  <i_qp_#nonHatm>  (949) 
33

>  <i_qp_#noncon>  (949) 
4

>  <i_qp_#ringatoms>  (949) 
28

>  <i_qp_#rotor>  (949) 
6

>  <i_qp_#rtvFG>  (949) 
0

>  <i_qp_#stars>  (949) 
0

>  <i_qp_CNS>  (949) 
2

>  <i_qp_HumanOralAbsorption>  (949) 
3

>  <i_qp_RuleOfFive>  (949) 
0

>  <i_qp_RuleOfThree>  (949) 
0

>  <i_sd_BIOSOLVEIT.INFINISEE\_REAGENT1\_NAME>  (949) 
18361122

>  <i_sd_BIOSOLVEIT.INFINISEE\_REAGENT2\_NAME>  (949) 
7547806

>  <i_sd_BIOSOLVEIT.INFINISEE\_RESULT\_RANK>  (949) 
78620

>  <i_sd_version>  (949) 
0

>  <b_lp_Chiralities_Consistent>  (949) 
1

>  <b_sd_chiral_flag>  (949) 
0

>  <canonical_id>  (949) 
ATP-HTVS-96C7A2856398

>  <compound_code>  (949) 
57953

>  <title>  (949) 
m_270004bbb____18361122____7547806

>  <variant>  (949) 
57953-1

>  <source_file>  (949) 
运行/运行/ATP-VSW/ATP-VSW-DOCK_HTVS_1-001_lib/ATP-VSW-DOCK_HTVS_1-001_lib

>  <canonical_smiles>  (949) 
Clc1ccc([C@H](C[NH2+]Cc2cn(-c3ccccc3)nc2-c2ccncc2)N2CCCC2)cc1

>  <scaffold>  (949) 
c1ccc(C(C[NH2+]Cc2cn(-c3ccccc3)nc2-c2ccncc2)N2CCCC2)cc1

>  <molecular_formula>  (949) 
C27H29ClN5+

$$$$
ATP-HTVS-9702CFD2E9A2
     RDKit          3D

 51 53  0  0  0  0  0  0  0  0999 V2000
  203.1449  174.2382  156.3966 Cl  0  0  0  0  0  0  0  0  0  0  0  0
  202.1865  175.3756  155.5577 C   0  0  0  0  0  0  0  0  0  0  0  0
  202.1804  175.3125  153.8317 S   0  0  0  0  0  0  0  0  0  0  0  0
  200.9261  176.5345  153.7569 C   0  0  0  0  0  0  0  0  0  0  0  0
  200.4079  176.9199  152.4120 C   0  0  0  0  0  0  0  0  0  0  0  0
  200.3546  178.1257  152.1610 O   0  0  0  0  0  0  0  0  0  0  0  0
  199.9629  175.9830  151.5280 N   0  0  0  0  0  0  0  0  0  0  0  0
  200.0476  174.6583  151.8146 C   0  0  0  0  0  0  0  0  0  0  0  0
  200.1491  173.5425  152.0739 N   0  0  0  0  0  0  0  0  0  0  0  0
  199.4493  176.3396  150.2457 C   0  0  0  0  0  0  0  0  0  0  0  0
  198.4138  177.2991  150.1047 C   0  0  0  0  0  0  0  0  0  0  0  0
  197.8709  177.5875  148.8371 C   0  0  0  0  0  0  0  0  0  0  0  0
  198.3510  176.9182  147.6948 C   0  0  0  0  0  0  0  0  0  0  0  0
  199.3831  175.9687  147.8202 C   0  0  0  0  0  0  0  0  0  0  0  0
  199.9232  175.6779  149.0889 C   0  0  0  0  0  0  0  0  0  0  0  0
  200.7418  177.1046  155.0047 C   0  0  0  0  0  0  0  0  0  0  0  0
  199.9752  178.2624  155.2592 N   0  0  0  0  0  0  0  0  0  0  0  0
  200.1662  179.0332  156.4792 C   0  0  1  0  0  0  0  0  0  0  0  0
  199.6005  180.4363  156.4033 C   0  0  0  0  0  0  0  0  0  0  0  0
  198.2158  180.6513  156.5484 C   0  0  0  0  0  0  0  0  0  0  0  0
  197.6824  181.9555  156.4850 C   0  0  0  0  0  0  0  0  0  0  0  0
  198.5431  183.0514  156.2718 C   0  0  0  0  0  0  0  0  0  0  0  0
  199.9278  182.8421  156.1246 C   0  0  0  0  0  0  0  0  0  0  0  0
  200.4560  181.5379  156.1891 C   0  0  0  0  0  0  0  0  0  0  0  0
  196.1871  182.1735  156.6455 C   0  0  1  0  0  0  0  0  0  0  0  0
  195.6885  181.8385  158.0061 N   0  0  2  0  0  0  0  0  0  0  0  0
  194.2193  181.9810  158.1143 C   0  0  2  0  0  0  0  0  0  0  0  0
  196.3858  182.5601  159.0988 C   0  0  2  0  0  0  0  0  0  0  0  0
  201.4308  176.4041  156.0524 C   0  0  0  0  0  0  0  0  0  0  0  0
  198.0116  177.7986  150.9754 H   0  0  0  0  0  0  0  0  0  0  0  0
  197.0653  178.3027  148.7409 H   0  0  0  0  0  0  0  0  0  0  0  0
  197.9311  177.1314  146.7242 H   0  0  0  0  0  0  0  0  0  0  0  0
  199.7516  175.4535  146.9425 H   0  0  0  0  0  0  0  0  0  0  0  0
  200.7029  174.9333  149.1677 H   0  0  0  0  0  0  0  0  0  0  0  0
  199.6299  178.7770  154.4571 H   0  0  0  0  0  0  0  0  0  0  0  0
  199.7100  178.5049  157.3175 H   0  0  0  0  0  0  0  0  0  0  0  0
  201.2321  179.1012  156.6940 H   0  0  0  0  0  0  0  0  0  0  0  0
  197.5606  179.8141  156.7357 H   0  0  0  0  0  0  0  0  0  0  0  0
  198.1496  184.0561  156.2165 H   0  0  0  0  0  0  0  0  0  0  0  0
  200.5850  183.6833  155.9568 H   0  0  0  0  0  0  0  0  0  0  0  0
  201.5194  181.3849  156.0711 H   0  0  0  0  0  0  0  0  0  0  0  0
  195.9453  183.2097  156.4128 H   0  0  0  0  0  0  0  0  0  0  0  0
  195.6714  181.5537  155.9092 H   0  0  0  0  0  0  0  0  0  0  0  0
  193.9129  183.0178  157.9776 H   0  0  0  0  0  0  0  0  0  0  0  0
  193.8602  181.6392  159.0845 H   0  0  0  0  0  0  0  0  0  0  0  0
  193.7215  181.3807  157.3505 H   0  0  0  0  0  0  0  0  0  0  0  0
  196.2702  183.6349  158.9885 H   0  0  0  0  0  0  0  0  0  0  0  0
  197.4464  182.3239  159.1143 H   0  0  0  0  0  0  0  0  0  0  0  0
  195.9705  182.2695  160.0600 H   0  0  0  0  0  0  0  0  0  0  0  0
  201.3727  176.6916  157.0991 H   0  0  0  0  0  0  0  0  0  0  0  0
  195.8598  180.8530  158.1135 H   0  0  0  0  0  0  0  0  0  0  0  0
  1  2  1  0
  2  3  1  0
  2 29  2  0
  3  4  1  0
  4  5  1  0
  4 16  2  0
  5  6  2  0
  5  7  1  0
  7  8  1  0
  7 10  1  0
  8  9  3  0
 10 11  2  0
 10 15  1  0
 11 12  1  0
 11 30  1  0
 12 13  2  0
 12 31  1  0
 13 14  1  0
 13 32  1  0
 14 15  2  0
 14 33  1  0
 15 34  1  0
 16 17  1  0
 16 29  1  0
 17 18  1  0
 17 35  1  0
 18 19  1  0
 18 36  1  1
 18 37  1  0
 19 20  2  0
 19 24  1  0
 20 21  1  0
 20 38  1  0
 21 22  2  0
 21 25  1  0
 22 23  1  0
 22 39  1  0
 23 24  2  0
 23 40  1  0
 24 41  1  0
 25 26  1  0
 25 42  1  6
 25 43  1  0
 26 27  1  0
 26 28  1  0
 26 51  1  1
 27 44  1  6
 27 45  1  0
 27 46  1  0
 28 47  1  6
 28 48  1  0
 28 49  1  0
 29 50  1  0
M  CHG  1  26   1
M  END
>  <s_epik_cmdline>  (950) 
J2VwaWtfcHl0aG9uJywgJy1waCcsICc3LjAwMDAwMCcsICctcGh0JywgJzIuMDAwMDAwJywgJy1tcycsICcxNicsICctdG4nLCAnOCcsICctbWEnLCAnMjAwJywgJy1pbWFlJywgJzxpbmZpbGUubWFlPicsICctb21hZScsICc8b3V0ZmlsZS5tYWU+Jw==

>  <s_epik_input>  (950) 
W2NIXTFbY0hdW2NIXVtjSF1bY0hdYzFOKEMjTilDKD1PKWMoc2MyQ2wpYyhbY0hdMilbTkhdW0NIMl1jM1tjSF1jKFtjSF1bY0hdW2NIXTMpW0NIMl1OKFtDSDNdKVtDSDNd

>  <s_i_glide_gridfile>  (950) 
ATP-Grid

>  <s_lp_Force_Field>  (950) 
OPLS_2005

>  <s_lp_Variant>  (950) 
rxn512b____EMOL36822768____EMOL49851977____EMOL2873214-1

>  <s_lp_label>  (950) 
2563_sdstereoexpander_1_neutralizer_1_epik_1_stereoizer_1

>  <s_m_source_file>  (950) 
ATP-VSW-LIGPREP-001-in.maegz

>  <s_sd_BIOSOLVEIT.INFINISEE\_QUERY\_NAME>  (950) 
Ref-Lig

>  <s_sd_BIOSOLVEIT.INFINISEE\_QUERY\_SMILES>  (950) 
S(c1nc2c(cc1C[NH2+]Cc3ccc(cc3)C[NH+](C)C)cccc2)Cc4ccccc4

>  <s_sd_BIOSOLVEIT.INFINISEE\_REACTION\_NAME>  (950) 
rxn512b

>  <s_sd_BIOSOLVEIT.INFINISEE\_REAGENT1\_NAME>  (950) 
EMOL36822768

>  <s_sd_BIOSOLVEIT.INFINISEE\_REAGENT1\_SMILES>  (950) 
N#CNc1ccccc1

>  <s_sd_BIOSOLVEIT.INFINISEE\_REAGENT2\_NAME>  (950) 
EMOL49851977

>  <s_sd_BIOSOLVEIT.INFINISEE\_REAGENT2\_SMILES>  (950) 
BrC1=C(SC(Cl)=C1)C(=O)O

>  <s_sd_BIOSOLVEIT.INFINISEE\_REAGENT3\_NAME>  (950) 
EMOL2873214

>  <s_sd_BIOSOLVEIT.INFINISEE\_REAGENT3\_SMILES>  (950) 
N(Cc1cc(ccc1)CN)(C)C

>  <s_sd_BIOSOLVEIT.INFINISEE\_SPACE>  (950) 
eXplore_7tr_2022-12

>  <s_vsw_compound_code>  (950) 
81985

>  <s_vsw_variant>  (950) 
81985-1

>  <r_epik_Charging_Adjusted_Penalty>  (950) 
0.086140609825027303

>  <r_epik_Ionization_Penalty>  (950) 
0.0441

>  <r_epik_Ionization_Penalty_Charging>  (950) 
0.043099999999999999

>  <r_epik_Ionization_Penalty_Neutral>  (950) 
0.001

>  <r_epik_State_Penalty>  (950) 
0.043099999999999999

>  <r_i_docking_score>  (950) 
-5.06834388681742

>  <r_i_glide_ecoul>  (950) 
-9.6700029373168892

>  <r_i_glide_eff_state_penalty>  (950) 
0.043099999999999999

>  <r_i_glide_einternal>  (950) 
4.33956003189087

>  <r_i_glide_emodel>  (950) 
-58.846638425403

>  <r_i_glide_energy>  (950) 
-41.182444572448702

>  <r_i_glide_erotb>  (950) 
0.76551173506548698

>  <r_i_glide_esite>  (950) 
-0.12510050171565401

>  <r_i_glide_evdw>  (950) 
-31.5124416351318

>  <r_i_glide_gscore>  (950) 
-5.1114438868174199

>  <r_i_glide_hbond>  (950) 
-0.20000000000000001

>  <r_i_glide_ligand_efficiency>  (950) 
-0.17477047885577299

>  <r_i_glide_ligand_efficiency_ln>  (950) 
-1.1605222279694101

>  <r_i_glide_ligand_efficiency_sa>  (950) 
-0.53695028221907404

>  <r_i_glide_lipo>  (950) 
-1.33010946025903

>  <r_i_glide_metal>  (950) 
-0

>  <r_i_glide_rewards>  (950) 
-1.1956231375541

>  <r_lp_Energy>  (950) 
34.965446

>  <r_lp_tautomer_probability>  (950) 
0.99999274205267796

>  <r_qp_ACxDN^.5/SA>  (950) 
0

>  <r_qp_CIQPlogS>  (950) 
-4.0049999999999999

>  <r_qp_EA(eV)>  (950) 
0.96999999999999997

>  <r_qp_FISA>  (950) 
93.849000000000004

>  <r_qp_FOSA>  (950) 
182.577

>  <r_qp_IP(eV)>  (950) 
8.8200000000000003

>  <r_qp_Jm>  (950) 
0.0057822839990871802

>  <r_qp_PISA>  (950) 
311.50200000000001

>  <r_qp_PSA>  (950) 
71.296000000000006

>  <r_qp_PercentHumanOralAbsorption>  (950) 
80.924999999999997

>  <r_qp_QPPCaco>  (950) 
79.382999999999996

>  <r_qp_QPPMDCK>  (950) 
124.923

>  <r_qp_QPlogBB>  (950) 
0.20300000000000001

>  <r_qp_QPlogHERG>  (950) 
-7.1689999999999996

>  <r_qp_QPlogKhsa>  (950) 
0.22

>  <r_qp_QPlogKp>  (950) 
-5.5090000000000003

>  <r_qp_QPlogPC16>  (950) 
13.491

>  <r_qp_QPlogPo/w>  (950) 
3.4119999999999999

>  <r_qp_QPlogPoct>  (950) 
18.393000000000001

>  <r_qp_QPlogPw>  (950) 
8.782

>  <r_qp_QPlogS>  (950) 
-2.3570000000000002

>  <r_qp_QPpolrz>  (950) 
42.417000000000002

>  <r_qp_SASA>  (950) 
679.89499999999998

>  <r_qp_SAamideO>  (950) 
0

>  <r_qp_SAfluorine>  (950) 
0

>  <r_qp_WPSA>  (950) 
91.966999999999999

>  <r_qp_accptHB>  (950) 
6.5

>  <r_qp_dip^2/V>  (950) 
0.038327600000000003

>  <r_qp_dipole>  (950) 
6.9699999999999998

>  <r_qp_donorHB>  (950) 
0

>  <r_qp_glob>  (950) 
0.83316429999999997

>  <r_qp_mol_MW>  (950) 
424.947

>  <r_qp_volume>  (950) 
1267.6849999999999

>  <r_sd_BIOSOLVEIT.INFINISEE\_FTREES\_SIMILARITY>  (950) 
0.91200000000000003

>  <r_sd_BIOSOLVEIT.LOGP>  (950) 
3.7859799999999999

>  <r_sd_BIOSOLVEIT.MOLECULAR\_WEIGHT>  (950) 
425.96100000000001

>  <r_sd_BIOSOLVEIT.TPSA>  (950) 
60.57

>  <i_epik_Tot_Q>  (950) 
1

>  <i_epik_Tot_abs_Q>  (950) 
1

>  <i_f3d_flags>  (950) 
0

>  <i_i_glide_confnum>  (950) 
5

>  <i_i_glide_lignum>  (950) 
1028

>  <i_i_glide_posenum>  (950) 
7

>  <i_i_glide_rotatable_bonds>  (950) 
8

>  <i_lp_mmshare_version>  (950) 
65135

>  <i_m_ct_format>  (950) 
2

>  <i_m_source_file_index>  (950) 
2563

>  <i_qp_#NandO>  (950) 
5

>  <i_qp_#acid>  (950) 
0

>  <i_qp_#amide>  (950) 
0

>  <i_qp_#amidine>  (950) 
0

>  <i_qp_#amine>  (950) 
2

>  <i_qp_#in34>  (950) 
0

>  <i_qp_#in56>  (950) 
17

>  <i_qp_#metab>  (950) 
6

>  <i_qp_#nonHatm>  (950) 
29

>  <i_qp_#noncon>  (950) 
0

>  <i_qp_#ringatoms>  (950) 
17

>  <i_qp_#rotor>  (950) 
8

>  <i_qp_#rtvFG>  (950) 
0

>  <i_qp_#stars>  (950) 
0

>  <i_qp_CNS>  (950) 
1

>  <i_qp_HumanOralAbsorption>  (950) 
3

>  <i_qp_RuleOfFive>  (950) 
0

>  <i_qp_RuleOfThree>  (950) 
0

>  <i_sd_BIOSOLVEIT.INFINISEE\_RESULT\_RANK>  (950) 
37232

>  <i_sd_version>  (950) 
0

>  <b_lp_Chiralities_Consistent>  (950) 
1

>  <b_sd_chiral_flag>  (950) 
0

>  <canonical_id>  (950) 
ATP-HTVS-9702CFD2E9A2

>  <compound_code>  (950) 
81985

>  <title>  (950) 
rxn512b____EMOL36822768____EMOL49851977____EMOL2873214

>  <variant>  (950) 
81985-1

>  <source_file>  (950) 
运行/运行/ATP-VSW/ATP-VSW-DOCK_HTVS_1-001_lib/ATP-VSW-DOCK_HTVS_1-001_lib

>  <canonical_smiles>  (950) 
C[NH+](C)Cc1cccc(CNc2cc(Cl)sc2C(=O)N(C#N)c2ccccc2)c1

>  <scaffold>  (950) 
O=C(Nc1ccccc1)c1sccc1NCc1ccccc1

>  <molecular_formula>  (950) 
C22H22ClN4OS+

$$$$
ATP-HTVS-970FBD5470AF
     RDKit          3D

 51 54  0  0  0  0  0  0  0  0999 V2000
  196.7442  179.4737  151.1786 F   0  0  0  0  0  0  0  0  0  0  0  0
  197.0480  180.5119  152.0208 C   0  0  0  0  0  0  0  0  0  0  0  0
  196.6900  181.8335  151.6286 C   0  0  0  0  0  0  0  0  0  0  0  0
  197.0383  182.8896  152.5070 C   0  0  0  0  0  0  0  0  0  0  0  0
  196.7632  184.1684  152.1884 F   0  0  0  0  0  0  0  0  0  0  0  0
  197.7242  182.6560  153.7187 C   0  0  0  0  0  0  0  0  0  0  0  0
  198.0250  181.3240  154.1246 C   0  0  0  0  0  0  0  0  0  0  0  0
  197.7034  180.2277  153.2587 C   0  0  0  0  0  0  0  0  0  0  0  0
  198.7225  181.1349  155.4823 C   0  0  1  0  0  0  0  0  0  0  0  0
  199.3401  182.4329  156.1534 C   0  0  1  0  0  0  0  0  0  0  0  0
  198.3527  183.4006  156.7213 N   0  0  0  0  0  0  0  0  0  0  0  0
  198.3254  183.3165  158.1934 C   0  0  1  0  0  0  0  0  0  0  0  0
  199.4760  184.1595  158.7638 C   0  0  0  0  0  0  0  0  0  0  0  0
  199.4757  185.5795  158.6731 C   0  0  0  0  0  0  0  0  0  0  0  0
  198.4182  186.3237  158.0435 N   0  0  0  0  0  0  0  0  0  0  0  0
  197.8407  185.9518  156.9315 C   0  0  0  0  0  0  0  0  0  0  0  0
  196.8360  186.5346  156.5276 O   0  0  0  0  0  0  0  0  0  0  0  0
  198.4539  184.8026  156.1335 C   0  0  1  0  0  0  0  0  0  0  0  0
  200.4407  186.3396  159.3058 C   0  0  0  0  0  0  0  0  0  0  0  0
  201.4820  185.6960  160.0052 C   0  0  0  0  0  0  0  0  0  0  0  0
  201.5515  184.2909  160.0388 C   0  0  0  0  0  0  0  0  0  0  0  0
  200.5558  183.5106  159.4189 C   0  0  0  0  0  0  0  0  0  0  0  0
  196.9581  183.6514  158.8170 C   0  0  0  0  0  0  0  0  0  0  0  0
  195.7673  183.3173  158.1311 C   0  0  0  0  0  0  0  0  0  0  0  0
  194.5237  183.8047  158.5772 C   0  0  0  0  0  0  0  0  0  0  0  0
  194.4539  184.6259  159.7220 C   0  0  0  0  0  0  0  0  0  0  0  0
  195.6246  184.9506  160.4269 C   0  0  0  0  0  0  0  0  0  0  0  0
  196.8486  184.4166  160.0035 C   0  0  0  0  0  0  0  0  0  0  0  0
  197.8119  180.3897  156.4742 C   0  0  2  0  0  0  0  0  0  0  0  0
  196.1907  182.0739  150.6784 H   0  0  0  0  0  0  0  0  0  0  0  0
  198.0603  183.4823  154.2210 H   0  0  0  0  0  0  0  0  0  0  0  0
  197.9875  179.2109  153.5596 H   0  0  0  0  0  0  0  0  0  0  0  0
  199.5775  180.4706  155.2864 H   0  0  0  0  0  0  0  0  0  0  0  0
  200.0920  182.1197  156.9049 H   0  0  0  0  0  0  0  0  0  0  0  0
  199.9669  182.9019  155.3914 H   0  0  0  0  0  0  0  0  0  0  0  0
  198.4426  182.2685  158.5059 H   0  0  0  0  0  0  0  0  0  0  0  0
  198.0080  187.1132  158.5283 H   0  0  0  0  0  0  0  0  0  0  0  0
  199.5099  185.0496  155.9586 H   0  0  0  0  0  0  0  0  0  0  0  0
  197.8471  184.9371  155.2480 H   0  0  0  0  0  0  0  0  0  0  0  0
  200.3373  187.4122  159.3103 H   0  0  0  0  0  0  0  0  0  0  0  0
  202.2231  186.3072  160.4864 H   0  0  0  0  0  0  0  0  0  0  0  0
  202.3727  183.8191  160.5601 H   0  0  0  0  0  0  0  0  0  0  0  0
  200.6083  182.4316  159.4993 H   0  0  0  0  0  0  0  0  0  0  0  0
  195.7946  182.8195  157.1696 H   0  0  0  0  0  0  0  0  0  0  0  0
  193.6378  183.5894  157.9896 H   0  0  0  0  0  0  0  0  0  0  0  0
  193.5065  185.0054  160.0628 H   0  0  0  0  0  0  0  0  0  0  0  0
  195.6131  185.6292  161.2735 H   0  0  0  0  0  0  0  0  0  0  0  0
  197.7150  184.7642  160.5277 H   0  0  0  0  0  0  0  0  0  0  0  0
  197.4382  179.4550  156.0628 H   0  0  0  0  0  0  0  0  0  0  0  0
  196.9392  180.9897  156.7211 H   0  0  0  0  0  0  0  0  0  0  0  0
  198.3323  180.1513  157.4020 H   0  0  0  0  0  0  0  0  0  0  0  0
  1  2  1  0
  2  3  1  0
  2  8  2  0
  3  4  2  0
  3 30  1  0
  4  5  1  0
  4  6  1  0
  6  7  2  0
  6 31  1  0
  7  8  1  0
  7  9  1  0
  8 32  1  0
  9 10  1  0
  9 29  1  0
  9 33  1  6
 10 11  1  0
 10 34  1  1
 10 35  1  0
 11 12  1  0
 11 18  1  0
 12 13  1  0
 12 23  1  0
 12 36  1  6
 13 14  1  0
 13 22  2  0
 14 15  1  0
 14 19  2  0
 15 16  1  0
 15 37  1  0
 16 17  2  0
 16 18  1  0
 18 38  1  6
 18 39  1  0
 19 20  1  0
 19 40  1  0
 20 21  2  0
 20 41  1  0
 21 22  1  0
 21 42  1  0
 22 43  1  0
 23 24  2  0
 23 28  1  0
 24 25  1  0
 24 44  1  0
 25 26  2  0
 25 45  1  0
 26 27  1  0
 26 46  1  0
 27 28  2  0
 27 47  1  0
 28 48  1  0
 29 49  1  6
 29 50  1  0
 29 51  1  0
M  END
>  <s_epik_cmdline>  (951) 
J2VwaWtfcHl0aG9uJywgJy1waCcsICc3LjAwMDAwMCcsICctcGh0JywgJzIuMDAwMDAwJywgJy1tcycsICcxNicsICctdG4nLCAnOCcsICctbWEnLCAnMjAwJywgJy1pbWFlJywgJzxpbmZpbGUubWFlPicsICctb21hZScsICc8b3V0ZmlsZS5tYWU+Jw==

>  <s_epik_input>  (951) 
RmMxW2NIXWMoRilbY0hdYyhbY0hdMSlbQ0BIXShbQ0gzXSlbQ0gyXU4oW0NAQEhdMmMzW2NIXVtjSF1bY0hdW2NIXVtjSF0zKVtDSDJdQyg9TylbTkhdYyhjMjQpW2NIXVtjSF1bY0hdW2NIXTQ=

>  <s_i_glide_gridfile>  (951) 
ATP-Grid

>  <s_lp_Force_Field>  (951) 
OPLS_2005

>  <s_lp_Variant>  (951) 
m_270004bda____24170338____10641794-2

>  <s_lp_label>  (951) 
1186_sdstereoexpander_2_neutralizer_1_epik_1_stereoizer_1

>  <s_m_source_file>  (951) 
ATP-VSW-LIGPREP-001-in.maegz

>  <s_sd_BIOSOLVEIT.INFINISEE\_QUERY\_NAME>  (951) 
Ref-Lig

>  <s_sd_BIOSOLVEIT.INFINISEE\_QUERY\_SMILES>  (951) 
S(c1nc2c(cc1C[NH2+]Cc3ccc(cc3)C[NH+](C)C)cccc2)Cc4ccccc4

>  <s_sd_BIOSOLVEIT.INFINISEE\_REACTION\_NAME>  (951) 
m_270004bda

>  <s_sd_BIOSOLVEIT.INFINISEE\_REAGENT1\_SMILES>  (951) 
[R1*]N1C(c2c(NC(=O)C1)cccc2)c3ccccc3

>  <s_sd_BIOSOLVEIT.INFINISEE\_REAGENT2\_SMILES>  (951) 
[R1*]CC(c1cc(F)cc(F)c1)C

>  <s_sd_BIOSOLVEIT.INFINISEE\_SPACE>  (951) 
REALSpace_44bn_2023-08

>  <s_vsw_compound_code>  (951) 
37921

>  <s_vsw_variant>  (951) 
37921-2

>  <r_epik_Charging_Adjusted_Penalty>  (951) 
0.028535983218273501

>  <r_epik_Ionization_Penalty>  (951) 
0.028500000000000001

>  <r_epik_Ionization_Penalty_Charging>  (951) 
0

>  <r_epik_Ionization_Penalty_Neutral>  (951) 
0.028500000000000001

>  <r_epik_State_Penalty>  (951) 
0.028500000000000001

>  <r_i_docking_score>  (951) 
-1.6970721327043701

>  <r_i_glide_ecoul>  (951) 
-1.0470485687255899

>  <r_i_glide_eff_state_penalty>  (951) 
0.028500000000000001

>  <r_i_glide_einternal>  (951) 
11.3566837310791

>  <r_i_glide_emodel>  (951) 
-28.688969254875101

>  <r_i_glide_energy>  (951) 
-31.101625442504901

>  <r_i_glide_erotb>  (951) 
0.50710433882635797

>  <r_i_glide_esite>  (951) 
-0.034828707369790601

>  <r_i_glide_evdw>  (951) 
-30.0545768737793

>  <r_i_glide_gscore>  (951) 
-1.72557213270437

>  <r_i_glide_hbond>  (951) 
0

>  <r_i_glide_ligand_efficiency>  (951) 
-0.058519728713943897

>  <r_i_glide_ligand_efficiency_ln>  (951) 
-0.38858648435309401

>  <r_i_glide_ligand_efficiency_sa>  (951) 
-0.17979114696061799

>  <r_i_glide_lipo>  (951) 
-1.3438337253099499

>  <r_i_glide_metal>  (951) 
-0

>  <r_i_glide_rewards>  (951) 
0.80577209014681195

>  <r_lp_Energy>  (951) 
39.943747999999999

>  <r_qp_ACxDN^.5/SA>  (951) 
0.0068399000000000003

>  <r_qp_CIQPlogS>  (951) 
-5.2960000000000003

>  <r_qp_EA(eV)>  (951) 
0.40799999999999997

>  <r_qp_FISA>  (951) 
65.048000000000002

>  <r_qp_FOSA>  (951) 
106.458

>  <r_qp_IP(eV)>  (951) 
9.0640000000000001

>  <r_qp_Jm>  (951) 
0.0014990234265525499

>  <r_qp_PISA>  (951) 
393.01100000000002

>  <r_qp_PSA>  (951) 
41.109000000000002

>  <r_qp_PercentHumanOralAbsorption>  (951) 
100

>  <r_qp_QPPCaco>  (951) 
596.96900000000005

>  <r_qp_QPPMDCK>  (951) 
1017.706

>  <r_qp_QPlogBB>  (951) 
0.39200000000000002

>  <r_qp_QPlogHERG>  (951) 
-6.7679999999999998

>  <r_qp_QPlogKhsa>  (951) 
0.92700000000000005

>  <r_qp_QPlogKp>  (951) 
-3.1080000000000001

>  <r_qp_QPlogPC16>  (951) 
12.356

>  <r_qp_QPlogPo/w>  (951) 
4.875

>  <r_qp_QPlogPoct>  (951) 
19.401

>  <r_qp_QPlogPw>  (951) 
9.6859999999999999

>  <r_qp_QPlogS>  (951) 
-5.3099999999999996

>  <r_qp_QPpolrz>  (951) 
44.310000000000002

>  <r_qp_SASA>  (951) 
657.90200000000004

>  <r_qp_SAamideO>  (951) 
0

>  <r_qp_SAfluorine>  (951) 
93.385000000000005

>  <r_qp_WPSA>  (951) 
93.385000000000005

>  <r_qp_accptHB>  (951) 
4.5

>  <r_qp_dip^2/V>  (951) 
0.024542499999999998

>  <r_qp_dipole>  (951) 
5.4610000000000003

>  <r_qp_donorHB>  (951) 
1

>  <r_qp_glob>  (951) 
0.83713289999999996

>  <r_qp_mol_MW>  (951) 
392.447

>  <r_qp_volume>  (951) 
1215.308

>  <r_sd_BIOSOLVEIT.INFINISEE\_FTREES\_SIMILARITY>  (951) 
0.91200000000000003

>  <r_sd_BIOSOLVEIT.LOGP>  (951) 
3.6949000000000001

>  <r_sd_BIOSOLVEIT.MOLECULAR\_WEIGHT>  (951) 
393.45499999999998

>  <r_sd_BIOSOLVEIT.TPSA>  (951) 
33.539999999999999

>  <i_epik_Tot_Q>  (951) 
0

>  <i_epik_Tot_abs_Q>  (951) 
0

>  <i_f3d_flags>  (951) 
0

>  <i_i_glide_confnum>  (951) 
2

>  <i_i_glide_lignum>  (951) 
297

>  <i_i_glide_posenum>  (951) 
14

>  <i_i_glide_rotatable_bonds>  (951) 
4

>  <i_lp_mmshare_version>  (951) 
65135

>  <i_m_ct_format>  (951) 
2

>  <i_m_source_file_index>  (951) 
1186

>  <i_qp_#NandO>  (951) 
3

>  <i_qp_#acid>  (951) 
0

>  <i_qp_#amide>  (951) 
0

>  <i_qp_#amidine>  (951) 
0

>  <i_qp_#amine>  (951) 
1

>  <i_qp_#in34>  (951) 
0

>  <i_qp_#in56>  (951) 
18

>  <i_qp_#metab>  (951) 
8

>  <i_qp_#nonHatm>  (951) 
29

>  <i_qp_#noncon>  (951) 
2

>  <i_qp_#ringatoms>  (951) 
23

>  <i_qp_#rotor>  (951) 
3

>  <i_qp_#rtvFG>  (951) 
0

>  <i_qp_#stars>  (951) 
0

>  <i_qp_CNS>  (951) 
1

>  <i_qp_HumanOralAbsorption>  (951) 
3

>  <i_qp_RuleOfFive>  (951) 
0

>  <i_qp_RuleOfThree>  (951) 
1

>  <i_sd_BIOSOLVEIT.INFINISEE\_REAGENT1\_NAME>  (951) 
24170338

>  <i_sd_BIOSOLVEIT.INFINISEE\_REAGENT2\_NAME>  (951) 
10641794

>  <i_sd_BIOSOLVEIT.INFINISEE\_RESULT\_RANK>  (951) 
39228

>  <i_sd_version>  (951) 
0

>  <b_lp_Chiralities_Consistent>  (951) 
1

>  <b_sd_chiral_flag>  (951) 
0

>  <canonical_id>  (951) 
ATP-HTVS-970FBD5470AF

>  <compound_code>  (951) 
37921

>  <title>  (951) 
m_270004bda____24170338____10641794

>  <variant>  (951) 
37921-2

>  <source_file>  (951) 
运行/运行/ATP-VSW/ATP-VSW-DOCK_HTVS_1-001_lib/ATP-VSW-DOCK_HTVS_1-001_lib

>  <canonical_smiles>  (951) 
C[C@H](CN1CC(=O)Nc2ccccc2[C@H]1c1ccccc1)c1cc(F)cc(F)c1

>  <scaffold>  (951) 
O=C1CN(CCc2ccccc2)C(c2ccccc2)c2ccccc2N1

>  <molecular_formula>  (951) 
C24H22F2N2O

$$$$
ATP-HTVS-970FD2D7162F
     RDKit          3D

 56 59  0  0  0  0  0  0  0  0999 V2000
  202.1522  174.4793  154.0176 O   0  0  0  0  0  0  0  0  0  0  0  0
  202.1280  174.8815  155.1988 C   0  0  0  0  0  0  0  0  0  0  0  0
  202.6752  174.2573  156.1395 O   0  0  0  0  0  0  0  0  0  0  0  0
  201.4188  176.1602  155.5008 C   0  0  0  0  0  0  0  0  0  0  0  0
  200.9869  176.9953  154.4520 C   0  0  0  0  0  0  0  0  0  0  0  0
  200.3109  178.1980  154.7321 C   0  0  0  0  0  0  0  0  0  0  0  0
  200.0684  178.6037  156.0637 C   0  0  0  0  0  0  0  0  0  0  0  0
  200.4935  177.7622  157.1204 C   0  0  0  0  0  0  0  0  0  0  0  0
  201.1703  176.5539  156.8350 C   0  0  0  0  0  0  0  0  0  0  0  0
  199.4393  179.9720  156.3459 C   0  0  2  0  0  0  0  0  0  0  0  0
  197.9857  179.8897  156.1222 N   0  0  1  0  0  0  0  0  0  0  0  0
  197.1236  181.0456  156.5077 C   0  0  1  0  0  0  0  0  0  0  0  0
  197.5511  182.3539  155.8309 C   0  0  0  0  0  0  0  0  0  0  0  0
  198.1872  183.3672  156.5944 C   0  0  0  0  0  0  0  0  0  0  0  0
  198.4444  183.1106  157.9296 O   0  0  0  0  0  0  0  0  0  0  0  0
  198.6233  184.1913  158.8462 C   0  0  1  0  0  0  0  0  0  0  0  0
  197.2885  184.7432  159.3067 C   0  0  0  0  0  0  0  0  0  0  0  0
  197.1993  186.0835  159.7274 C   0  0  0  0  0  0  0  0  0  0  0  0
  195.9695  186.6070  160.1647 C   0  0  0  0  0  0  0  0  0  0  0  0
  194.8234  185.7888  160.1752 C   0  0  0  0  0  0  0  0  0  0  0  0
  194.9014  184.4501  159.7418 C   0  0  0  0  0  0  0  0  0  0  0  0
  196.1349  183.9249  159.3154 C   0  0  0  0  0  0  0  0  0  0  0  0
  198.6463  184.5547  155.9551 C   0  0  0  0  0  0  0  0  0  0  0  0
  198.4792  184.7249  154.5800 C   0  0  0  0  0  0  0  0  0  0  0  0
  197.8193  183.7453  153.8171 C   0  0  0  0  0  0  0  0  0  0  0  0
  197.3466  182.5583  154.4301 C   0  0  0  0  0  0  0  0  0  0  0  0
  196.7119  181.5915  153.6133 C   0  0  0  0  0  0  0  0  0  0  0  0
  196.5798  181.7988  152.2328 C   0  0  0  0  0  0  0  0  0  0  0  0
  197.0622  182.9755  151.6353 C   0  0  0  0  0  0  0  0  0  0  0  0
  197.7045  183.9446  152.4339 C   0  0  0  0  0  0  0  0  0  0  0  0
  200.1803  181.0649  155.5170 C   0  0  2  0  0  0  0  0  0  0  0  0
  197.8106  179.6659  155.1548 H   0  0  0  0  0  0  0  0  0  0  0  0
  201.1810  176.7322  153.4210 H   0  0  0  0  0  0  0  0  0  0  0  0
  200.0284  178.8236  153.8984 H   0  0  0  0  0  0  0  0  0  0  0  0
  200.3352  178.0538  158.1521 H   0  0  0  0  0  0  0  0  0  0  0  0
  201.4993  175.9289  157.6497 H   0  0  0  0  0  0  0  0  0  0  0  0
  199.5776  180.1687  157.4143 H   0  0  0  0  0  0  0  0  0  0  0  0
  196.0812  180.8314  156.2599 H   0  0  0  0  0  0  0  0  0  0  0  0
  197.1220  181.1304  157.5960 H   0  0  0  0  0  0  0  0  0  0  0  0
  199.1601  183.8110  159.7191 H   0  0  0  0  0  0  0  0  0  0  0  0
  199.2516  185.0010  158.4654 H   0  0  0  0  0  0  0  0  0  0  0  0
  198.0793  186.7097  159.7188 H   0  0  0  0  0  0  0  0  0  0  0  0
  195.9094  187.6377  160.4852 H   0  0  0  0  0  0  0  0  0  0  0  0
  193.8777  186.1899  160.5034 H   0  0  0  0  0  0  0  0  0  0  0  0
  194.0205  183.8232  159.7379 H   0  0  0  0  0  0  0  0  0  0  0  0
  196.1872  182.8921  158.9966 H   0  0  0  0  0  0  0  0  0  0  0  0
  199.2613  185.2641  156.4695 H   0  0  0  0  0  0  0  0  0  0  0  0
  198.9596  185.5680  154.1095 H   0  0  0  0  0  0  0  0  0  0  0  0
  196.3435  180.6631  154.0202 H   0  0  0  0  0  0  0  0  0  0  0  0
  196.0814  181.0598  151.6246 H   0  0  0  0  0  0  0  0  0  0  0  0
  196.9190  183.1604  150.5845 H   0  0  0  0  0  0  0  0  0  0  0  0
  198.0961  184.8410  151.9751 H   0  0  0  0  0  0  0  0  0  0  0  0
  201.2525  180.9762  155.6776 H   0  0  0  0  0  0  0  0  0  0  0  0
  199.8631  182.0751  155.7978 H   0  0  0  0  0  0  0  0  0  0  0  0
  199.9748  180.9172  154.4586 H   0  0  0  0  0  0  0  0  0  0  0  0
  197.6052  179.1117  156.6746 H   0  0  0  0  0  0  0  0  0  0  0  0
  1  2  1  0
  2  3  2  0
  2  4  1  0
  4  5  1  0
  4  9  2  0
  5  6  2  0
  5 33  1  0
  6  7  1  0
  6 34  1  0
  7  8  2  0
  7 10  1  0
  8  9  1  0
  8 35  1  0
  9 36  1  0
 10 11  1  0
 10 31  1  0
 10 37  1  1
 11 12  1  0
 11 32  1  6
 11 56  1  0
 12 13  1  0
 12 38  1  6
 12 39  1  0
 13 14  2  0
 13 26  1  0
 14 15  1  0
 14 23  1  0
 15 16  1  0
 16 17  1  0
 16 40  1  1
 16 41  1  0
 17 18  2  0
 17 22  1  0
 18 19  1  0
 18 42  1  0
 19 20  2  0
 19 43  1  0
 20 21  1  0
 20 44  1  0
 21 22  2  0
 21 45  1  0
 22 46  1  0
 23 24  2  0
 23 47  1  0
 24 25  1  0
 24 48  1  0
 25 26  1  0
 25 30  2  0
 26 27  2  0
 27 28  1  0
 27 49  1  0
 28 29  2  0
 28 50  1  0
 29 30  1  0
 29 51  1  0
 30 52  1  0
 31 53  1  6
 31 54  1  0
 31 55  1  0
M  CHG  2   1  -1  11   1
M  END
>  <s_epik_cmdline>  (952) 
J2VwaWtfcHl0aG9uJywgJy1waCcsICc3LjAwMDAwMCcsICctcGh0JywgJzIuMDAwMDAwJywgJy1tcycsICcxNicsICctdG4nLCAnOCcsICctbWEnLCAnMjAwJywgJy1pbWFlJywgJzxpbmZpbGUubWFlPicsICctb21hZScsICc8b3V0ZmlsZS5tYWU+Jw==

>  <s_epik_input>  (952) 
W09IXUMoPU8pYzFbY0hdW2NIXWMoW2NIXVtjSF0xKVtDQEBIXShbQ0gzXSlbTkhdW0NIMl1jKGMoYzIzKVtjSF1bY0hdW2NIXVtjSF0zKWMoW2NIXVtjSF0yKU9bQ0gyXWM0W2NIXVtjSF1bY0hdW2NIXVtjSF00

>  <s_i_glide_gridfile>  (952) 
ATP-Grid

>  <s_lp_Force_Field>  (952) 
OPLS_2005

>  <s_lp_Variant>  (952) 
m_271304bba____16969956____21002128-1

>  <s_lp_label>  (952) 
1804_sdstereoexpander_1_neutralizer_1_epik_1_stereoizer_1

>  <s_m_source_file>  (952) 
ATP-VSW-LIGPREP-002-in.maegz

>  <s_sd_BIOSOLVEIT.INFINISEE\_QUERY\_NAME>  (952) 
Ref-Lig

>  <s_sd_BIOSOLVEIT.INFINISEE\_QUERY\_SMILES>  (952) 
S(c1nc2c(cc1C[NH2+]Cc3ccc(cc3)C[NH+](C)C)cccc2)Cc4ccccc4

>  <s_sd_BIOSOLVEIT.INFINISEE\_REACTION\_NAME>  (952) 
m_271304bba

>  <s_sd_BIOSOLVEIT.INFINISEE\_REAGENT1\_SMILES>  (952) 
[R1*]NC(c1ccc(cc1)C(=O)O)C

>  <s_sd_BIOSOLVEIT.INFINISEE\_REAGENT2\_SMILES>  (952) 
[R1*]Cc1c(OCc2ccccc2)ccc3c1cccc3

>  <s_sd_BIOSOLVEIT.INFINISEE\_SPACE>  (952) 
REALSpace_44bn_2023-08

>  <s_vsw_compound_code>  (952) 
57698

>  <s_vsw_variant>  (952) 
57698-1

>  <r_epik_Charging_Adjusted_Penalty>  (952) 
0.093814423682427206

>  <r_epik_Ionization_Penalty>  (952) 
0.047100000000000003

>  <r_epik_Ionization_Penalty_Charging>  (952) 
0.047100000000000003

>  <r_epik_Ionization_Penalty_Neutral>  (952) 
0

>  <r_epik_State_Penalty>  (952) 
0.046699999999999998

>  <r_i_docking_score>  (952) 
-4.9399756453726198

>  <r_i_glide_ecoul>  (952) 
-5.5197210311889604

>  <r_i_glide_eff_state_penalty>  (952) 
0.046699999999999998

>  <r_i_glide_einternal>  (952) 
3.2228977680206299

>  <r_i_glide_emodel>  (952) 
-55.483678176010002

>  <r_i_glide_energy>  (952) 
-40.777304649352999

>  <r_i_glide_erotb>  (952) 
0.81482305980982905

>  <r_i_glide_esite>  (952) 
-0.10000000000000001

>  <r_i_glide_evdw>  (952) 
-35.257583618164098

>  <r_i_glide_gscore>  (952) 
-4.9866756453726202

>  <r_i_glide_hbond>  (952) 
-0.26185678095261999

>  <r_i_glide_ligand_efficiency>  (952) 
-0.159354053076536

>  <r_i_glide_ligand_efficiency_ln>  (952) 
-1.1141159001035601

>  <r_i_glide_ligand_efficiency_sa>  (952) 
-0.50059173864177298

>  <r_i_glide_lipo>  (952) 
-1.7605433104925401

>  <r_i_glide_metal>  (952) 
-0

>  <r_i_glide_rewards>  (952) 
-1.0882612781507399

>  <r_lp_Energy>  (952) 
18.233581999999998

>  <r_qp_ACxDN^.5/SA>  (952) 
0.0090691999999999995

>  <r_qp_CIQPlogS>  (952) 
-6.0570000000000004

>  <r_qp_EA(eV)>  (952) 
0.71699999999999997

>  <r_qp_FISA>  (952) 
85.430999999999997

>  <r_qp_FOSA>  (952) 
131.86500000000001

>  <r_qp_IP(eV)>  (952) 
8.4060000000000006

>  <r_qp_Jm>  (952) 
0.0099621189629675606

>  <r_qp_PISA>  (952) 
445.43099999999998

>  <r_qp_PSA>  (952) 
60.015999999999998

>  <r_qp_PercentHumanOralAbsorption>  (952) 
81.772000000000006

>  <r_qp_QPPCaco>  (952) 
96.885999999999996

>  <r_qp_QPPMDCK>  (952) 
55.838999999999999

>  <r_qp_QPlogBB>  (952) 
-0.30599999999999999

>  <r_qp_QPlogHERG>  (952) 
-4.9820000000000002

>  <r_qp_QPlogKhsa>  (952) 
0.66100000000000003

>  <r_qp_QPlogKp>  (952) 
-2.819

>  <r_qp_QPlogPC16>  (952) 
14.108000000000001

>  <r_qp_QPlogPo/w>  (952) 
3.2919999999999998

>  <r_qp_QPlogPoct>  (952) 
19.965

>  <r_qp_QPlogPw>  (952) 
10.276

>  <r_qp_QPlogS>  (952) 
-4.7969999999999997

>  <r_qp_QPpolrz>  (952) 
43.383000000000003

>  <r_qp_SASA>  (952) 
662.72699999999998

>  <r_qp_SAamideO>  (952) 
0

>  <r_qp_SAfluorine>  (952) 
0

>  <r_qp_WPSA>  (952) 
0

>  <r_qp_accptHB>  (952) 
4.25

>  <r_qp_dip^2/V>  (952) 
0.020323899999999999

>  <r_qp_dipole>  (952) 
5.0599999999999996

>  <r_qp_donorHB>  (952) 
2

>  <r_qp_glob>  (952) 
0.85122929999999997

>  <r_qp_mol_MW>  (952) 
411.49900000000002

>  <r_qp_volume>  (952) 
1259.865

>  <r_sd_BIOSOLVEIT.INFINISEE\_FTREES\_SIMILARITY>  (952) 
0.90400000000000003

>  <r_sd_BIOSOLVEIT.LOGP>  (952) 
3.6069

>  <r_sd_BIOSOLVEIT.MOLECULAR\_WEIGHT>  (952) 
411.49900000000002

>  <r_sd_BIOSOLVEIT.TPSA>  (952) 
65.969999999999999

>  <i_epik_Tot_Q>  (952) 
0

>  <i_epik_Tot_abs_Q>  (952) 
2

>  <i_f3d_flags>  (952) 
0

>  <i_i_glide_confnum>  (952) 
6

>  <i_i_glide_lignum>  (952) 
631

>  <i_i_glide_posenum>  (952) 
18

>  <i_i_glide_rotatable_bonds>  (952) 
8

>  <i_lp_mmshare_version>  (952) 
65135

>  <i_m_ct_format>  (952) 
2

>  <i_m_source_file_index>  (952) 
1804

>  <i_qp_#NandO>  (952) 
4

>  <i_qp_#acid>  (952) 
1

>  <i_qp_#amide>  (952) 
0

>  <i_qp_#amidine>  (952) 
0

>  <i_qp_#amine>  (952) 
1

>  <i_qp_#in34>  (952) 
0

>  <i_qp_#in56>  (952) 
22

>  <i_qp_#metab>  (952) 
5

>  <i_qp_#nonHatm>  (952) 
31

>  <i_qp_#noncon>  (952) 
0

>  <i_qp_#ringatoms>  (952) 
22

>  <i_qp_#rotor>  (952) 
8

>  <i_qp_#rtvFG>  (952) 
0

>  <i_qp_#stars>  (952) 
0

>  <i_qp_CNS>  (952) 
0

>  <i_qp_HumanOralAbsorption>  (952) 
3

>  <i_qp_RuleOfFive>  (952) 
0

>  <i_qp_RuleOfThree>  (952) 
0

>  <i_sd_BIOSOLVEIT.INFINISEE\_REAGENT1\_NAME>  (952) 
16969956

>  <i_sd_BIOSOLVEIT.INFINISEE\_REAGENT2\_NAME>  (952) 
21002128

>  <i_sd_BIOSOLVEIT.INFINISEE\_RESULT\_RANK>  (952) 
78090

>  <i_sd_version>  (952) 
0

>  <b_lp_Chiralities_Consistent>  (952) 
1

>  <b_sd_chiral_flag>  (952) 
0

>  <canonical_id>  (952) 
ATP-HTVS-970FD2D7162F

>  <compound_code>  (952) 
57698

>  <title>  (952) 
m_271304bba____16969956____21002128

>  <variant>  (952) 
57698-1

>  <source_file>  (952) 
运行/运行/ATP-VSW/ATP-VSW-DOCK_HTVS_1-002_lib.maegz

>  <canonical_smiles>  (952) 
C[C@@H]([NH2+]Cc1c(OCc2ccccc2)ccc2ccccc12)c1ccc(C(=O)[O-])cc1

>  <scaffold>  (952) 
c1ccc(C[NH2+]Cc2c(OCc3ccccc3)ccc3ccccc23)cc1

>  <molecular_formula>  (952) 
C27H25NO3

$$$$
ATP-HTVS-971CA853FA9A
     RDKit          3D

 50 53  0  0  0  0  0  0  0  0999 V2000
  196.0585  183.8313  160.1315 Cl  0  0  0  0  0  0  0  0  0  0  0  0
  196.1834  185.5480  160.1192 C   0  0  0  0  0  0  0  0  0  0  0  0
  196.9924  186.1499  159.1557 C   0  0  0  0  0  0  0  0  0  0  0  0
  197.1255  187.5672  159.0942 C   0  0  0  0  0  0  0  0  0  0  0  0
  196.4414  188.3482  160.0507 C   0  0  0  0  0  0  0  0  0  0  0  0
  196.5507  189.8019  160.0677 N   0  0  0  0  0  0  0  0  0  0  0  0
  197.6572  190.5154  159.9910 C   0  0  0  0  0  0  0  0  0  0  0  0
  197.6526  191.7367  160.1876 O   0  0  0  0  0  0  0  0  0  0  0  0
  198.9787  189.7608  159.6993 C   0  0  1  0  0  0  0  0  0  0  0  0
  199.1148  188.9670  158.4195 N   0  0  0  0  0  0  0  0  0  0  0  0
  197.9044  188.2425  157.9727 C   0  0  1  0  0  0  0  0  0  0  0  0
  198.2466  187.2391  156.8757 C   0  0  0  0  0  0  0  0  0  0  0  0
  197.2397  186.7857  155.9989 C   0  0  0  0  0  0  0  0  0  0  0  0
  195.9739  187.2578  156.1315 F   0  0  0  0  0  0  0  0  0  0  0  0
  197.5426  185.8270  155.0112 C   0  0  0  0  0  0  0  0  0  0  0  0
  198.8608  185.3351  154.8815 C   0  0  0  0  0  0  0  0  0  0  0  0
  199.8708  185.7874  155.7526 C   0  0  0  0  0  0  0  0  0  0  0  0
  199.5587  186.7214  156.7439 C   0  0  0  0  0  0  0  0  0  0  0  0
  199.7567  189.7662  157.3478 C   0  0  1  0  0  0  0  0  0  0  0  0
  198.9048  190.9369  156.8786 C   0  0  0  0  0  0  0  0  0  0  0  0
  199.3955  192.1341  156.5234 C   0  0  0  0  0  0  0  0  0  0  0  0
  198.6504  193.2874  156.0960 C   0  0  0  0  0  0  0  0  0  0  0  0
  197.3817  193.6060  156.6028 N   0  0  0  0  0  0  0  0  0  0  0  0
  196.9766  194.7939  156.0059 C   0  0  0  0  0  0  0  0  0  0  0  0
  197.9538  195.2051  155.1400 C   0  0  0  0  0  0  0  0  0  0  0  0
  199.0077  194.2496  155.1936 C   0  0  0  0  0  0  0  0  0  0  0  0
  196.6420  192.9475  157.6828 C   0  0  2  0  0  0  0  0  0  0  0  0
  195.6195  187.7379  161.0206 C   0  0  0  0  0  0  0  0  0  0  0  0
  195.4899  186.3277  161.0581 C   0  0  0  0  0  0  0  0  0  0  0  0
  197.4870  185.5065  158.4458 H   0  0  0  0  0  0  0  0  0  0  0  0
  195.7083  190.2511  160.3612 H   0  0  0  0  0  0  0  0  0  0  0  0
  199.8073  190.4511  159.7623 H   0  0  0  0  0  0  0  0  0  0  0  0
  199.1398  189.0300  160.5158 H   0  0  0  0  0  0  0  0  0  0  0  0
  197.1796  188.9346  157.5416 H   0  0  0  0  0  0  0  0  0  0  0  0
  196.7602  185.4623  154.3595 H   0  0  0  0  0  0  0  0  0  0  0  0
  199.1063  184.6143  154.1152 H   0  0  0  0  0  0  0  0  0  0  0  0
  200.8959  185.4428  155.6614 H   0  0  0  0  0  0  0  0  0  0  0  0
  200.3448  187.0235  157.4196 H   0  0  0  0  0  0  0  0  0  0  0  0
  200.7649  190.0887  157.6615 H   0  0  0  0  0  0  0  0  0  0  0  0
  199.9092  189.1907  156.4292 H   0  0  0  0  0  0  0  0  0  0  0  0
  197.8393  190.7590  156.7933 H   0  0  0  0  0  0  0  0  0  0  0  0
  200.4794  192.2473  156.5721 H   0  0  0  0  0  0  0  0  0  0  0  0
  196.0441  195.2485  156.3135 H   0  0  0  0  0  0  0  0  0  0  0  0
  197.9006  196.0930  154.5271 H   0  0  0  0  0  0  0  0  0  0  0  0
  199.9292  194.2437  154.6238 H   0  0  0  0  0  0  0  0  0  0  0  0
  195.6819  193.4948  157.8142 H   0  0  0  0  0  0  0  0  0  0  0  0
  197.2561  192.9654  158.5459 H   0  0  0  0  0  0  0  0  0  0  0  0
  196.4022  191.9192  157.3679 H   0  0  0  0  0  0  0  0  0  0  0  0
  195.1066  188.3275  161.7699 H   0  0  0  0  0  0  0  0  0  0  0  0
  194.8864  185.8470  161.8159 H   0  0  0  0  0  0  0  0  0  0  0  0
  1  2  1  0
  2  3  2  0
  2 29  1  0
  3  4  1  0
  3 30  1  0
  4  5  2  0
  4 11  1  0
  5  6  1  0
  5 28  1  0
  6  7  1  0
  6 31  1  0
  7  8  2  0
  7  9  1  0
  9 10  1  0
  9 32  1  6
  9 33  1  0
 10 11  1  0
 10 19  1  0
 11 12  1  0
 11 34  1  6
 12 13  1  0
 12 18  2  0
 13 14  1  0
 13 15  2  0
 15 16  1  0
 15 35  1  0
 16 17  2  0
 16 36  1  0
 17 18  1  0
 17 37  1  0
 18 38  1  0
 19 20  1  0
 19 39  1  1
 19 40  1  0
 20 21  2  0
 20 41  1  0
 21 22  1  0
 21 42  1  0
 22 23  1  0
 22 26  2  0
 23 24  1  0
 23 27  1  0
 24 25  2  0
 24 43  1  0
 25 26  1  0
 25 44  1  0
 26 45  1  0
 27 46  1  1
 27 47  1  0
 27 48  1  0
 28 29  2  0
 28 49  1  0
 29 50  1  0
M  END
>  <s_epik_cmdline>  (953) 
J2VwaWtfcHl0aG9uJywgJy1waCcsICc3LjAwMDAwMCcsICctcGh0JywgJzIuMDAwMDAwJywgJy1tcycsICcxNicsICctdG4nLCAnOCcsICctbWEnLCAnMjAwJywgJy1pbWFlJywgJzxpbmZpbGUubWFlPicsICctb21hZScsICc8b3V0ZmlsZS5tYWU+Jw==

>  <s_epik_input>  (953) 
Q2xjKFtjSF0xKVtjSF1bY0hdYyhjMTIpW05IXUMoPU8pW0NIMl1OKFtDQEhdMmMzYyhGKVtjSF1bY0hdW2NIXVtjSF0zKVtDSDJdL1tDSF09W0NIXS9jNG4oW0NIM10pW2NIXVtjSF1bY0hdNA==

>  <s_i_glide_gridfile>  (953) 
ATP-Grid

>  <s_lp_Force_Field>  (953) 
OPLS_2005

>  <s_lp_Variant>  (953) 
m_270004bda____24171218____24594508-1

>  <s_lp_label>  (953) 
1472_sdstereoexpander_1_neutralizer_1_epik_1_stereoizer_1

>  <s_m_source_file>  (953) 
ATP-VSW-LIGPREP-003-in.maegz

>  <s_sd_BIOSOLVEIT.INFINISEE\_QUERY\_NAME>  (953) 
Ref-Lig

>  <s_sd_BIOSOLVEIT.INFINISEE\_QUERY\_SMILES>  (953) 
S(c1nc2c(cc1C[NH2+]Cc3ccc(cc3)C[NH+](C)C)cccc2)Cc4ccccc4

>  <s_sd_BIOSOLVEIT.INFINISEE\_REACTION\_NAME>  (953) 
m_270004bda

>  <s_sd_BIOSOLVEIT.INFINISEE\_REAGENT1\_SMILES>  (953) 
[R1*]N1C(c2c(F)cccc2)c3c(NC(=O)C1)ccc(Cl)c3

>  <s_sd_BIOSOLVEIT.INFINISEE\_REAGENT2\_SMILES>  (953) 
[R1*]CC=CC=1N(C=CC1)C

>  <s_sd_BIOSOLVEIT.INFINISEE\_SPACE>  (953) 
REALSpace_44bn_2023-08

>  <s_vsw_compound_code>  (953) 
47075

>  <s_vsw_variant>  (953) 
47075-1

>  <r_epik_Charging_Adjusted_Penalty>  (953) 
0.0113107156197903

>  <r_epik_Ionization_Penalty>  (953) 
0.011299999999999999

>  <r_epik_Ionization_Penalty_Charging>  (953) 
0

>  <r_epik_Ionization_Penalty_Neutral>  (953) 
0.011299999999999999

>  <r_epik_State_Penalty>  (953) 
0.011299999999999999

>  <r_i_docking_score>  (953) 
-1.9552877614600199

>  <r_i_glide_ecoul>  (953) 
-2.3635210990905802

>  <r_i_glide_eff_state_penalty>  (953) 
0.011299999999999999

>  <r_i_glide_einternal>  (953) 
6.6675429344177202

>  <r_i_glide_emodel>  (953) 
-33.833753264717203

>  <r_i_glide_energy>  (953) 
-33.212422847747803

>  <r_i_glide_erotb>  (953) 
0.46891571786757802

>  <r_i_glide_esite>  (953) 
-0.0430740359273395

>  <r_i_glide_evdw>  (953) 
-30.848901748657202

>  <r_i_glide_gscore>  (953) 
-1.96658776146002

>  <r_i_glide_hbond>  (953) 
0

>  <r_i_glide_ligand_efficiency>  (953) 
-0.067423715912414597

>  <r_i_glide_ligand_efficiency_ln>  (953) 
-0.44771131555475102

>  <r_i_glide_ligand_efficiency_sa>  (953) 
-0.207147016615466

>  <r_i_glide_lipo>  (953) 
-1.79781268219894

>  <r_i_glide_metal>  (953) 
-0

>  <r_i_glide_rewards>  (953) 
1.30235649109513

>  <r_lp_Energy>  (953) 
52.458457000000003

>  <r_qp_ACxDN^.5/SA>  (953) 
0.0066159000000000001

>  <r_qp_CIQPlogS>  (953) 
-5.5949999999999998

>  <r_qp_EA(eV)>  (953) 
0.46200000000000002

>  <r_qp_FISA>  (953) 
68.947000000000003

>  <r_qp_FOSA>  (953) 
132.536

>  <r_qp_IP(eV)>  (953) 
8.6709999999999994

>  <r_qp_Jm>  (953) 
0.00048669354232438002

>  <r_qp_PISA>  (953) 
384.19799999999998

>  <r_qp_PSA>  (953) 
46.026000000000003

>  <r_qp_PercentHumanOralAbsorption>  (953) 
100

>  <r_qp_QPPCaco>  (953) 
548.24599999999998

>  <r_qp_QPPMDCK>  (953) 
941.32000000000005

>  <r_qp_QPlogBB>  (953) 
0.33000000000000002

>  <r_qp_QPlogHERG>  (953) 
-6.9960000000000004

>  <r_qp_QPlogKhsa>  (953) 
0.98699999999999999

>  <r_qp_QPlogKp>  (953) 
-3.2109999999999999

>  <r_qp_QPlogPC16>  (953) 
13.513

>  <r_qp_QPlogPo/w>  (953) 
4.9900000000000002

>  <r_qp_QPlogPoct>  (953) 
20.018999999999998

>  <r_qp_QPlogPw>  (953) 
9.7070000000000007

>  <r_qp_QPlogS>  (953) 
-5.7140000000000004

>  <r_qp_QPpolrz>  (953) 
45.194000000000003

>  <r_qp_SASA>  (953) 
680.17600000000004

>  <r_qp_SAamideO>  (953) 
0

>  <r_qp_SAfluorine>  (953) 
22.969999999999999

>  <r_qp_WPSA>  (953) 
94.495000000000005

>  <r_qp_accptHB>  (953) 
4.5

>  <r_qp_dip^2/V>  (953) 
0.050542499999999997

>  <r_qp_dipole>  (953) 
7.915

>  <r_qp_donorHB>  (953) 
1

>  <r_qp_glob>  (953) 
0.82043129999999997

>  <r_qp_mol_MW>  (953) 
409.88999999999999

>  <r_qp_volume>  (953) 
1239.502

>  <r_sd_BIOSOLVEIT.INFINISEE\_FTREES\_SIMILARITY>  (953) 
0.90700000000000003

>  <r_sd_BIOSOLVEIT.LOGP>  (953) 
3.4573999999999998

>  <r_sd_BIOSOLVEIT.MOLECULAR\_WEIGHT>  (953) 
410.89800000000002

>  <r_sd_BIOSOLVEIT.TPSA>  (953) 
38.469999999999999

>  <i_epik_Tot_Q>  (953) 
0

>  <i_epik_Tot_abs_Q>  (953) 
0

>  <i_f3d_flags>  (953) 
0

>  <i_i_glide_confnum>  (953) 
4

>  <i_i_glide_lignum>  (953) 
561

>  <i_i_glide_posenum>  (953) 
1

>  <i_i_glide_rotatable_bonds>  (953) 
4

>  <i_lp_mmshare_version>  (953) 
65135

>  <i_m_ct_format>  (953) 
2

>  <i_m_source_file_index>  (953) 
1472

>  <i_qp_#NandO>  (953) 
4

>  <i_qp_#acid>  (953) 
0

>  <i_qp_#amide>  (953) 
0

>  <i_qp_#amidine>  (953) 
0

>  <i_qp_#amine>  (953) 
1

>  <i_qp_#in34>  (953) 
0

>  <i_qp_#in56>  (953) 
17

>  <i_qp_#metab>  (953) 
6

>  <i_qp_#nonHatm>  (953) 
29

>  <i_qp_#noncon>  (953) 
2

>  <i_qp_#ringatoms>  (953) 
22

>  <i_qp_#rotor>  (953) 
3

>  <i_qp_#rtvFG>  (953) 
0

>  <i_qp_#stars>  (953) 
0

>  <i_qp_CNS>  (953) 
1

>  <i_qp_HumanOralAbsorption>  (953) 
3

>  <i_qp_RuleOfFive>  (953) 
0

>  <i_qp_RuleOfThree>  (953) 
1

>  <i_sd_BIOSOLVEIT.INFINISEE\_REAGENT1\_NAME>  (953) 
24171218

>  <i_sd_BIOSOLVEIT.INFINISEE\_REAGENT2\_NAME>  (953) 
24594508

>  <i_sd_BIOSOLVEIT.INFINISEE\_RESULT\_RANK>  (953) 
57500

>  <i_sd_version>  (953) 
0

>  <b_lp_Chiralities_Consistent>  (953) 
1

>  <b_sd_chiral_flag>  (953) 
0

>  <canonical_id>  (953) 
ATP-HTVS-971CA853FA9A

>  <compound_code>  (953) 
47075

>  <title>  (953) 
m_270004bda____24171218____24594508

>  <variant>  (953) 
47075-1

>  <source_file>  (953) 
运行/运行/ATP-VSW/ATP-VSW-DOCK_HTVS_1-003_lib/ATP-VSW-DOCK_HTVS_1-003_lib.mae

>  <canonical_smiles>  (953) 
Cn1cccc1/C=C/CN1CC(=O)Nc2ccc(Cl)cc2[C@@H]1c1ccccc1F

>  <scaffold>  (953) 
O=C1CN(CC=Cc2ccc[nH]2)C(c2ccccc2)c2ccccc2N1

>  <molecular_formula>  (953) 
C23H21ClFN3O

$$$$
ATP-HTVS-976CFBCF515D
     RDKit          3D

 64 67  0  0  0  0  0  0  0  0999 V2000
  197.4265  183.7553  148.2972 O   0  0  0  0  0  0  0  0  0  0  0  0
  196.8379  183.8338  149.3724 N   0  0  0  0  0  0  0  0  0  0  0  0
  195.9492  184.6401  149.6200 O   0  0  0  0  0  0  0  0  0  0  0  0
  197.2200  182.9128  150.4543 C   0  0  0  0  0  0  0  0  0  0  0  0
  198.0496  181.7927  150.2038 C   0  0  0  0  0  0  0  0  0  0  0  0
  198.3880  180.9247  151.2634 C   0  0  0  0  0  0  0  0  0  0  0  0
  197.9487  181.1797  152.5848 C   0  0  0  0  0  0  0  0  0  0  0  0
  197.1801  182.3466  152.8274 C   0  0  0  0  0  0  0  0  0  0  0  0
  196.7795  183.1667  151.7666 C   0  0  0  0  0  0  0  0  0  0  0  0
  198.2903  180.2426  153.6712 C   0  0  0  0  0  0  0  0  0  0  0  0
  199.2603  179.3485  153.4866 N   0  0  0  0  0  0  0  0  0  0  0  0
  199.3607  178.6326  154.6279 N   0  0  0  0  0  0  0  0  0  0  0  0
  200.3083  177.5770  154.7655 C   0  0  0  0  0  0  0  0  0  0  0  0
  201.1240  177.1956  153.6708 C   0  0  0  0  0  0  0  0  0  0  0  0
  202.0636  176.1549  153.8049 C   0  0  0  0  0  0  0  0  0  0  0  0
  202.1994  175.4816  155.0335 C   0  0  0  0  0  0  0  0  0  0  0  0
  201.3945  175.8493  156.1272 C   0  0  0  0  0  0  0  0  0  0  0  0
  200.4520  176.8883  155.9942 C   0  0  0  0  0  0  0  0  0  0  0  0
  198.4345  179.0866  155.5414 C   0  0  0  0  0  0  0  0  0  0  0  0
  197.7212  180.1084  154.9702 C   0  0  0  0  0  0  0  0  0  0  0  0
  196.5887  180.8527  155.6193 C   0  0  1  0  0  0  0  0  0  0  0  0
  197.1253  181.8798  156.5387 N   0  0  1  0  0  0  0  0  0  0  0  0
  196.2529  182.1887  157.6918 C   0  0  1  0  0  0  0  0  0  0  0  0
  196.3524  183.6795  158.0966 C   0  0  1  0  0  0  0  0  0  0  0  0
  195.4957  184.0021  159.2522 N   0  0  0  0  0  0  0  0  0  0  0  0
  195.5140  185.4416  159.5073 C   0  0  2  0  0  0  0  0  0  0  0  0
  194.0961  183.6369  159.0372 C   0  0  2  0  0  0  0  0  0  0  0  0
  197.8177  184.0630  158.3325 C   0  0  0  0  0  0  0  0  0  0  0  0
  198.5254  184.9314  157.4577 C   0  0  0  0  0  0  0  0  0  0  0  0
  199.8707  185.2558  157.7370 C   0  0  0  0  0  0  0  0  0  0  0  0
  200.5179  184.7198  158.8686 C   0  0  0  0  0  0  0  0  0  0  0  0
  199.8263  183.8501  159.7245 C   0  0  0  0  0  0  0  0  0  0  0  0
  198.4824  183.5281  159.4575 C   0  0  0  0  0  0  0  0  0  0  0  0
  197.8730  185.5359  156.2245 C   0  0  2  0  0  0  0  0  0  0  0  0
  198.0166  181.5723  156.9159 H   0  0  0  0  0  0  0  0  0  0  0  0
  198.4262  181.5999  149.2096 H   0  0  0  0  0  0  0  0  0  0  0  0
  199.0212  180.0678  151.0380 H   0  0  0  0  0  0  0  0  0  0  0  0
  196.8700  182.6827  153.8052 H   0  0  0  0  0  0  0  0  0  0  0  0
  196.1434  184.0112  151.9967 H   0  0  0  0  0  0  0  0  0  0  0  0
  201.0387  177.6968  152.7178 H   0  0  0  0  0  0  0  0  0  0  0  0
  202.6804  175.8747  152.9634 H   0  0  0  0  0  0  0  0  0  0  0  0
  202.9200  174.6845  155.1379 H   0  0  0  0  0  0  0  0  0  0  0  0
  201.4986  175.3390  157.0731 H   0  0  0  0  0  0  0  0  0  0  0  0
  199.8489  177.1413  156.8540 H   0  0  0  0  0  0  0  0  0  0  0  0
  198.3482  178.6436  156.5308 H   0  0  0  0  0  0  0  0  0  0  0  0
  195.8326  181.2618  154.9436 H   0  0  0  0  0  0  0  0  0  0  0  0
  195.9827  180.1333  156.1232 H   0  0  0  0  0  0  0  0  0  0  0  0
  195.2254  181.9481  157.4222 H   0  0  0  0  0  0  0  0  0  0  0  0
  196.5335  181.5258  158.5127 H   0  0  0  0  0  0  0  0  0  0  0  0
  195.9614  184.2448  157.2562 H   0  0  0  0  0  0  0  0  0  0  0  0
  194.8811  185.6877  160.3602 H   0  0  0  0  0  0  0  0  0  0  0  0
  195.1530  186.0055  158.6454 H   0  0  0  0  0  0  0  0  0  0  0  0
  196.5171  185.7937  159.7482 H   0  0  0  0  0  0  0  0  0  0  0  0
  193.4774  183.9966  159.8585 H   0  0  0  0  0  0  0  0  0  0  0  0
  193.9598  182.5561  158.9993 H   0  0  0  0  0  0  0  0  0  0  0  0
  193.7015  184.0656  158.1160 H   0  0  0  0  0  0  0  0  0  0  0  0
  200.4170  185.9247  157.0903 H   0  0  0  0  0  0  0  0  0  0  0  0
  201.5437  184.9845  159.0803 H   0  0  0  0  0  0  0  0  0  0  0  0
  200.3186  183.4423  160.5960 H   0  0  0  0  0  0  0  0  0  0  0  0
  197.9460  182.8768  160.1310 H   0  0  0  0  0  0  0  0  0  0  0  0
  198.5802  186.1475  155.6625 H   0  0  0  0  0  0  0  0  0  0  0  0
  197.0355  186.1751  156.5066 H   0  0  0  0  0  0  0  0  0  0  0  0
  197.5097  184.7572  155.5538 H   0  0  0  0  0  0  0  0  0  0  0  0
  197.2931  182.7250  156.0132 H   0  0  0  0  0  0  0  0  0  0  0  0
  1  2  1  0
  2  3  2  0
  2  4  1  0
  4  5  1  0
  4  9  2  0
  5  6  2  0
  5 36  1  0
  6  7  1  0
  6 37  1  0
  7  8  2  0
  7 10  1  0
  8  9  1  0
  8 38  1  0
  9 39  1  0
 10 11  2  0
 10 20  1  0
 11 12  1  0
 12 13  1  0
 12 19  1  0
 13 14  2  0
 13 18  1  0
 14 15  1  0
 14 40  1  0
 15 16  2  0
 15 41  1  0
 16 17  1  0
 16 42  1  0
 17 18  2  0
 17 43  1  0
 18 44  1  0
 19 20  2  0
 19 45  1  0
 20 21  1  0
 21 22  1  0
 21 46  1  6
 21 47  1  0
 22 23  1  0
 22 35  1  1
 22 64  1  0
 23 24  1  0
 23 48  1  6
 23 49  1  0
 24 25  1  0
 24 28  1  0
 24 50  1  6
 25 26  1  0
 25 27  1  0
 26 51  1  1
 26 52  1  0
 26 53  1  0
 27 54  1  1
 27 55  1  0
 27 56  1  0
 28 29  1  0
 28 33  2  0
 29 30  2  0
 29 34  1  0
 30 31  1  0
 30 57  1  0
 31 32  2  0
 31 58  1  0
 32 33  1  0
 32 59  1  0
 33 60  1  0
 34 61  1  6
 34 62  1  0
 34 63  1  0
M  CHG  3   1  -1   2   1  22   1
M  END
>  <s_epik_cmdline>  (954) 
J2VwaWtfcHl0aG9uJywgJy1waCcsICc3LjAwMDAwMCcsICctcGh0JywgJzIuMDAwMDAwJywgJy1tcycsICcxNicsICctdG4nLCAnOCcsICctbWEnLCAnMjAwJywgJy1pbWFlJywgJzxpbmZpbGUubWFlPicsICctb21hZScsICc8b3V0ZmlsZS5tYWU+Jw==

>  <s_epik_input>  (954) 
W08tXVtOK10oPU8pYzFbY0hdW2NIXWMoW2NIXVtjSF0xKS1jMm5uKC1jM1tjSF1bY0hdW2NIXVtjSF1bY0hdMylbY0hdYzJbQ0gyXVtOSF1bQ0gyXVtDQEBIXShOKFtDSDNdKVtDSDNdKWM0YyhbQ0gzXSlbY0hdW2NIXVtjSF1bY0hdNA==

>  <s_i_glide_gridfile>  (954) 
ATP-Grid

>  <s_lp_Force_Field>  (954) 
OPLS_2005

>  <s_lp_Variant>  (954) 
a4____404852____300740-2

>  <s_lp_label>  (954) 
415_sdstereoexpander_2_neutralizer_1_epik_1_stereoizer_1

>  <s_m_source_file>  (954) 
ATP-VSW-LIGPREP-001-in.maegz

>  <s_sd_BIOSOLVEIT.INFINISEE\_QUERY\_NAME>  (954) 
Ref-Lig

>  <s_sd_BIOSOLVEIT.INFINISEE\_QUERY\_SMILES>  (954) 
S(c1nc2c(cc1C[NH2+]Cc3ccc(cc3)C[NH+](C)C)cccc2)Cc4ccccc4

>  <s_sd_BIOSOLVEIT.INFINISEE\_REACTION\_NAME>  (954) 
a4

>  <s_sd_BIOSOLVEIT.INFINISEE\_REAGENT1\_SMILES>  (954) 
[R1*]NCC(N(C)C)c1c(cccc1)C

>  <s_sd_BIOSOLVEIT.INFINISEE\_REAGENT2\_SMILES>  (954) 
[R1*]CC=1C(=NN(c2ccccc2)C1)c3ccc([N+]([O-])=O)cc3

>  <s_sd_BIOSOLVEIT.INFINISEE\_SPACE>  (954) 
FreedomSpace_5bn_2023-06

>  <s_vsw_compound_code>  (954) 
13249

>  <s_vsw_variant>  (954) 
13249-2

>  <r_epik_Charging_Adjusted_Penalty>  (954) 
0.209982659894069

>  <r_epik_Ionization_Penalty>  (954) 
0.043799999999999999

>  <r_epik_Ionization_Penalty_Charging>  (954) 
0.0373

>  <r_epik_Ionization_Penalty_Neutral>  (954) 
0.0064999999999999997

>  <r_epik_State_Penalty>  (954) 
0.17269999999999999

>  <r_i_docking_score>  (954) 
-4.53790384148156

>  <r_i_glide_ecoul>  (954) 
-9.2305402755737305

>  <r_i_glide_eff_state_penalty>  (954) 
0.17269999999999999

>  <r_i_glide_einternal>  (954) 
8.2278738021850604

>  <r_i_glide_emodel>  (954) 
-61.387608113080297

>  <r_i_glide_energy>  (954) 
-46.370764732360797

>  <r_i_glide_erotb>  (954) 
0.67492468640711201

>  <r_i_glide_esite>  (954) 
-0.082825504949272294

>  <r_i_glide_evdw>  (954) 
-37.140224456787102

>  <r_i_glide_gscore>  (954) 
-4.7106038414815599

>  <r_i_glide_hbond>  (954) 
0

>  <r_i_glide_ligand_efficiency>  (954) 
-0.133467760043575

>  <r_i_glide_ligand_efficiency_ln>  (954) 
-1.00255024247464

>  <r_i_glide_ligand_efficiency_sa>  (954) 
-0.432383730018991

>  <r_i_glide_lipo>  (954) 
-1.3250434012757799

>  <r_i_glide_metal>  (954) 
-0

>  <r_i_glide_rewards>  (954) 
-0.73606735748820695

>  <r_lp_Energy>  (954) 
28.370284999999999

>  <r_lp_tautomer_probability>  (954) 
1

>  <r_qp_ACxDN^.5/SA>  (954) 
0.0075789999999999998

>  <r_qp_CIQPlogS>  (954) 
-5.569

>  <r_qp_EA(eV)>  (954) 
1.0269999999999999

>  <r_qp_FISA>  (954) 
89.710999999999999

>  <r_qp_FOSA>  (954) 
237.702

>  <r_qp_IP(eV)>  (954) 
9.1159999999999997

>  <r_qp_Jm>  (954) 
0.00037067144246309198

>  <r_qp_PISA>  (954) 
398.274

>  <r_qp_PSA>  (954) 
72.822000000000003

>  <r_qp_PercentHumanOralAbsorption>  (954) 
88.677000000000007

>  <r_qp_QPPCaco>  (954) 
86.891000000000005

>  <r_qp_QPPMDCK>  (954) 
43.177999999999997

>  <r_qp_QPlogBB>  (954) 
0.084000000000000005

>  <r_qp_QPlogHERG>  (954) 
-7.532

>  <r_qp_QPlogKhsa>  (954) 
1.075

>  <r_qp_QPlogKp>  (954) 
-5.2229999999999999

>  <r_qp_QPlogPC16>  (954) 
14.879

>  <r_qp_QPlogPo/w>  (954) 
4.6159999999999997

>  <r_qp_QPlogPoct>  (954) 
22.292000000000002

>  <r_qp_QPlogPw>  (954) 
10.122999999999999

>  <r_qp_QPlogS>  (954) 
-3.867

>  <r_qp_QPpolrz>  (954) 
49.415999999999997

>  <r_qp_SASA>  (954) 
725.68600000000004

>  <r_qp_SAamideO>  (954) 
0

>  <r_qp_SAfluorine>  (954) 
0

>  <r_qp_WPSA>  (954) 
0

>  <r_qp_accptHB>  (954) 
5.5

>  <r_qp_dip^2/V>  (954) 
0.094279000000000002

>  <r_qp_dipole>  (954) 
11.513

>  <r_qp_donorHB>  (954) 
1

>  <r_qp_glob>  (954) 
0.83631770000000005

>  <r_qp_mol_MW>  (954) 
455.55799999999999

>  <r_qp_volume>  (954) 
1405.8299999999999

>  <r_sd_BIOSOLVEIT.INFINISEE\_FTREES\_SIMILARITY>  (954) 
0.90800000000000003

>  <r_sd_BIOSOLVEIT.LOGP>  (954) 
2.70512

>  <r_sd_BIOSOLVEIT.MOLECULAR\_WEIGHT>  (954) 
457.57499999999999

>  <r_sd_BIOSOLVEIT.TPSA>  (954) 
84.689999999999998

>  <i_epik_Tot_Q>  (954) 
1

>  <i_epik_Tot_abs_Q>  (954) 
3

>  <i_f3d_flags>  (954) 
0

>  <i_i_glide_confnum>  (954) 
6

>  <i_i_glide_lignum>  (954) 
54

>  <i_i_glide_posenum>  (954) 
20

>  <i_i_glide_rotatable_bonds>  (954) 
9

>  <i_lp_mmshare_version>  (954) 
65135

>  <i_m_ct_format>  (954) 
2

>  <i_m_source_file_index>  (954) 
415

>  <i_qp_#NandO>  (954) 
7

>  <i_qp_#acid>  (954) 
0

>  <i_qp_#amide>  (954) 
0

>  <i_qp_#amidine>  (954) 
0

>  <i_qp_#amine>  (954) 
2

>  <i_qp_#in34>  (954) 
0

>  <i_qp_#in56>  (954) 
23

>  <i_qp_#metab>  (954) 
7

>  <i_qp_#nonHatm>  (954) 
34

>  <i_qp_#noncon>  (954) 
0

>  <i_qp_#ringatoms>  (954) 
23

>  <i_qp_#rotor>  (954) 
7

>  <i_qp_#rtvFG>  (954) 
0

>  <i_qp_#stars>  (954) 
0

>  <i_qp_CNS>  (954) 
1

>  <i_qp_HumanOralAbsorption>  (954) 
3

>  <i_qp_RuleOfFive>  (954) 
0

>  <i_qp_RuleOfThree>  (954) 
1

>  <i_sd_BIOSOLVEIT.INFINISEE\_REAGENT1\_NAME>  (954) 
404852

>  <i_sd_BIOSOLVEIT.INFINISEE\_REAGENT2\_NAME>  (954) 
300740

>  <i_sd_BIOSOLVEIT.INFINISEE\_RESULT\_RANK>  (954) 
55158

>  <i_sd_version>  (954) 
0

>  <b_lp_Chiralities_Consistent>  (954) 
1

>  <b_sd_chiral_flag>  (954) 
0

>  <canonical_id>  (954) 
ATP-HTVS-976CFBCF515D

>  <compound_code>  (954) 
13249

>  <title>  (954) 
a4____404852____300740

>  <variant>  (954) 
13249-2

>  <source_file>  (954) 
运行/运行/ATP-VSW/ATP-VSW-DOCK_HTVS_1-001_lib/ATP-VSW-DOCK_HTVS_1-001_lib

>  <canonical_smiles>  (954) 
Cc1ccccc1[C@@H](C[NH2+]Cc1cn(-c2ccccc2)nc1-c1ccc([N+](=O)[O-])cc1)N(C)C

>  <scaffold>  (954) 
c1ccc(CC[NH2+]Cc2cn(-c3ccccc3)nc2-c2ccccc2)cc1

>  <molecular_formula>  (954) 
C27H30N5O2+

$$$$
ATP-HTVS-9774402850E8
     RDKit          3D

 62 65  0  0  0  0  0  0  0  0999 V2000
  197.1235  185.3069  154.7119 O   0  0  0  0  0  0  0  0  0  0  0  0
  197.1511  184.1612  155.1654 C   0  0  0  0  0  0  0  0  0  0  0  0
  197.2020  183.0311  154.4305 N   0  0  0  0  0  0  0  0  0  0  0  0
  197.2897  182.8748  153.0119 C   0  0  0  0  0  0  0  0  0  0  0  0
  197.1983  183.9353  152.1882 N   0  0  0  0  0  0  0  0  0  0  0  0
  197.2774  183.7663  150.8565 C   0  0  0  0  0  0  0  0  0  0  0  0
  197.4558  182.5075  150.2679 C   0  0  0  0  0  0  0  0  0  0  0  0
  197.5503  181.3716  151.0919 C   0  0  0  0  0  0  0  0  0  0  0  0
  197.4672  181.5475  152.5065 C   0  0  0  0  0  0  0  0  0  0  0  0
  197.5514  180.3649  153.4248 C   0  0  0  0  0  0  0  0  0  0  0  0
  196.7420  179.4410  153.3352 O   0  0  0  0  0  0  0  0  0  0  0  0
  198.6520  180.3349  154.4366 C   0  0  0  0  0  0  0  0  0  0  0  0
  198.5443  179.4847  155.5613 C   0  0  0  0  0  0  0  0  0  0  0  0
  199.5623  179.4514  156.5329 C   0  0  0  0  0  0  0  0  0  0  0  0
  200.6998  180.2681  156.3971 C   0  0  0  0  0  0  0  0  0  0  0  0
  200.8262  181.1074  155.2758 C   0  0  0  0  0  0  0  0  0  0  0  0
  199.8123  181.1374  154.2983 C   0  0  0  0  0  0  0  0  0  0  0  0
  197.8022  180.0628  150.4568 C   0  0  0  0  0  0  0  0  0  0  0  0
  198.8873  179.2742  150.8612 C   0  0  0  0  0  0  0  0  0  0  0  0
  199.1271  178.0156  150.2924 C   0  0  0  0  0  0  0  0  0  0  0  0
  198.2817  177.5366  149.2567 C   0  0  0  0  0  0  0  0  0  0  0  0
  198.4740  176.3029  148.6666 O   0  0  0  0  0  0  0  0  0  0  0  0
  199.5910  175.5419  149.1041 C   0  0  2  0  0  0  0  0  0  0  0  0
  197.2122  178.3346  148.8244 C   0  0  0  0  0  0  0  0  0  0  0  0
  196.9620  179.5919  149.4216 C   0  0  0  0  0  0  0  0  0  0  0  0
  197.1046  183.9048  156.6607 C   0  0  0  0  0  0  0  0  0  0  0  0
  197.5291  184.8739  157.6258 C   0  0  0  0  0  0  0  0  0  0  0  0
  197.4485  184.5473  159.0014 C   0  0  0  0  0  0  0  0  0  0  0  0
  196.8873  183.3197  159.4299 C   0  0  0  0  0  0  0  0  0  0  0  0
  196.4679  182.3722  158.4942 C   0  0  0  0  0  0  0  0  0  0  0  0
  196.5821  182.6544  157.1179 C   0  0  0  0  0  0  0  0  0  0  0  0
  198.0930  186.2754  157.2843 C   0  0  1  0  0  0  0  0  0  0  0  0
  197.1864  187.4053  157.5686 N   0  0  0  0  0  0  0  0  0  0  0  0
  197.8003  188.6415  157.0898 C   0  0  2  0  0  0  0  0  0  0  0  0
  196.8912  187.5843  158.9929 C   0  0  2  0  0  0  0  0  0  0  0  0
  197.1895  182.1698  154.9619 H   0  0  0  0  0  0  0  0  0  0  0  0
  197.2100  184.6607  150.2553 H   0  0  0  0  0  0  0  0  0  0  0  0
  197.5455  182.4235  149.1937 H   0  0  0  0  0  0  0  0  0  0  0  0
  197.6764  178.8524  155.7042 H   0  0  0  0  0  0  0  0  0  0  0  0
  199.4596  178.8046  157.3931 H   0  0  0  0  0  0  0  0  0  0  0  0
  201.4704  180.2521  157.1541 H   0  0  0  0  0  0  0  0  0  0  0  0
  201.6989  181.7350  155.1681 H   0  0  0  0  0  0  0  0  0  0  0  0
  199.9409  181.7849  153.4448 H   0  0  0  0  0  0  0  0  0  0  0  0
  199.5582  179.6121  151.6367 H   0  0  0  0  0  0  0  0  0  0  0  0
  199.9576  177.4675  150.6919 H   0  0  0  0  0  0  0  0  0  0  0  0
  199.6812  174.6187  148.5418 H   0  0  0  0  0  0  0  0  0  0  0  0
  199.4893  175.2927  150.1622 H   0  0  0  0  0  0  0  0  0  0  0  0
  200.5170  176.0958  148.9478 H   0  0  0  0  0  0  0  0  0  0  0  0
  196.5613  177.9822  148.0273 H   0  0  0  0  0  0  0  0  0  0  0  0
  196.1298  180.1935  149.0902 H   0  0  0  0  0  0  0  0  0  0  0  0
  197.8133  185.2381  159.7525 H   0  0  0  0  0  0  0  0  0  0  0  0
  196.7836  183.1143  160.4868 H   0  0  0  0  0  0  0  0  0  0  0  0
  196.0604  181.4126  158.8199 H   0  0  0  0  0  0  0  0  0  0  0  0
  196.2319  181.8732  156.4541 H   0  0  0  0  0  0  0  0  0  0  0  0
  199.0056  186.4099  157.8681 H   0  0  0  0  0  0  0  0  0  0  0  0
  198.4045  186.3261  156.2373 H   0  0  0  0  0  0  0  0  0  0  0  0
  197.1642  189.5003  157.3170 H   0  0  0  0  0  0  0  0  0  0  0  0
  197.9616  188.6302  156.0091 H   0  0  0  0  0  0  0  0  0  0  0  0
  198.7615  188.8066  157.5766 H   0  0  0  0  0  0  0  0  0  0  0  0
  196.3792  188.5460  159.1884 H   0  0  0  0  0  0  0  0  0  0  0  0
  197.8367  187.6242  159.5310 H   0  0  0  0  0  0  0  0  0  0  0  0
  196.3362  186.7226  159.3735 H   0  0  0  0  0  0  0  0  0  0  0  0
  1  2  2  0
  2  3  1  0
  2 26  1  0
  3  4  1  0
  3 36  1  0
  4  5  1  0
  4  9  2  0
  5  6  2  0
  6  7  1  0
  6 37  1  0
  7  8  2  0
  7 38  1  0
  8  9  1  0
  8 18  1  0
  9 10  1  0
 10 11  2  0
 10 12  1  0
 12 13  2  0
 12 17  1  0
 13 14  1  0
 13 39  1  0
 14 15  2  0
 14 40  1  0
 15 16  1  0
 15 41  1  0
 16 17  2  0
 16 42  1  0
 17 43  1  0
 18 19  1  0
 18 25  2  0
 19 20  2  0
 19 44  1  0
 20 21  1  0
 20 45  1  0
 21 22  1  0
 21 24  2  0
 22 23  1  0
 23 46  1  6
 23 47  1  0
 23 48  1  0
 24 25  1  0
 24 49  1  0
 25 50  1  0
 26 27  1  0
 26 31  2  0
 27 28  2  0
 27 32  1  0
 28 29  1  0
 28 51  1  0
 29 30  2  0
 29 52  1  0
 30 31  1  0
 30 53  1  0
 31 54  1  0
 32 33  1  0
 32 55  1  1
 32 56  1  0
 33 34  1  0
 33 35  1  0
 34 57  1  6
 34 58  1  0
 34 59  1  0
 35 60  1  6
 35 61  1  0
 35 62  1  0
M  END
>  <s_epik_cmdline>  (955) 
J2VwaWtfcHl0aG9uJywgJy1waCcsICc3LjAwMDAwMCcsICctcGh0JywgJzIuMDAwMDAwJywgJy1tcycsICcxNicsICctdG4nLCAnOCcsICctbWEnLCAnMjAwJywgJy1pbWFlJywgJzxpbmZpbGUubWFlPicsICctb21hZScsICc8b3V0ZmlsZS5tYWU+Jw==

>  <s_epik_input>  (955) 
W2NIXTFbY0hdW2NIXVtjSF1jKFtDSDJdTihbQ0gzXSlbQ0gzXSljMUMoPU8pW05IXWMybltjSF1bY0hdYygtYzNbY0hdW2NIXWMoT1tDSDNdKVtjSF1bY0hdMyljMkMoPU8pYzRbY0hdW2NIXVtjSF1bY0hdW2NIXTQ=

>  <s_i_glide_gridfile>  (955) 
ATP-Grid

>  <s_lp_Force_Field>  (955) 
OPLS_2005

>  <s_lp_Variant>  (955) 
rxn501c____EMOL5415347____EMOL36251210____EMOL506383-2

>  <s_lp_label>  (955) 
2452_sdstereoexpander_1_neutralizer_1_epik_2_stereoizer_1

>  <s_m_source_file>  (955) 
ATP-VSW-LIGPREP-001-in.maegz

>  <s_sd_BIOSOLVEIT.INFINISEE\_QUERY\_NAME>  (955) 
Ref-Lig

>  <s_sd_BIOSOLVEIT.INFINISEE\_QUERY\_SMILES>  (955) 
S(c1nc2c(cc1C[NH2+]Cc3ccc(cc3)C[NH+](C)C)cccc2)Cc4ccccc4

>  <s_sd_BIOSOLVEIT.INFINISEE\_REACTION\_NAME>  (955) 
rxn501c

>  <s_sd_BIOSOLVEIT.INFINISEE\_REAGENT1\_NAME>  (955) 
EMOL5415347

>  <s_sd_BIOSOLVEIT.INFINISEE\_REAGENT1\_SMILES>  (955) 
O=C(O)c1c(cccc1)CN(C)C

>  <s_sd_BIOSOLVEIT.INFINISEE\_REAGENT2\_NAME>  (955) 
EMOL36251210

>  <s_sd_BIOSOLVEIT.INFINISEE\_REAGENT2\_SMILES>  (955) 
Clc1c(c(ncc1)N)C(=O)c2ccccc2

>  <s_sd_BIOSOLVEIT.INFINISEE\_REAGENT3\_NAME>  (955) 
EMOL506383

>  <s_sd_BIOSOLVEIT.INFINISEE\_REAGENT3\_SMILES>  (955) 
O(c1ccc(cc1)B(O)O)C

>  <s_sd_BIOSOLVEIT.INFINISEE\_SPACE>  (955) 
eXplore_7tr_2022-12

>  <s_vsw_compound_code>  (955) 
78433

>  <s_vsw_variant>  (955) 
78433-2

>  <r_epik_Charging_Adjusted_Penalty>  (955) 
1.39759767167704

>  <r_epik_Ionization_Penalty>  (955) 
1.3861000000000001

>  <r_epik_Ionization_Penalty_Charging>  (955) 
0

>  <r_epik_Ionization_Penalty_Neutral>  (955) 
1.3861000000000001

>  <r_epik_State_Penalty>  (955) 
1.3976

>  <r_i_docking_score>  (955) 
-1.68224263464737

>  <r_i_glide_ecoul>  (955) 
-1.8168374300003101

>  <r_i_glide_eff_state_penalty>  (955) 
1.3976

>  <r_i_glide_einternal>  (955) 
4.8527498245239302

>  <r_i_glide_emodel>  (955) 
-45.8845158127247

>  <r_i_glide_energy>  (955) 
-40.299354672431903

>  <r_i_glide_erotb>  (955) 
0.65138645899480996

>  <r_i_glide_esite>  (955) 
-0.033410644591536899

>  <r_i_glide_evdw>  (955) 
-38.482517242431598

>  <r_i_glide_gscore>  (955) 
-3.07984263464737

>  <r_i_glide_hbond>  (955) 
0

>  <r_i_glide_ligand_efficiency>  (955) 
-0.048064075275639197

>  <r_i_glide_ligand_efficiency_ln>  (955) 
-0.36928959366879799

>  <r_i_glide_ligand_efficiency_sa>  (955) 
-0.157220777178187

>  <r_i_glide_lipo>  (955) 
-1.25985111375461

>  <r_i_glide_metal>  (955) 
-0

>  <r_i_glide_rewards>  (955) 
-0.241315858674405

>  <r_lp_Energy>  (955) 
46.672221

>  <r_lp_tautomer_probability>  (955) 
1

>  <r_qp_ACxDN^.5/SA>  (955) 
0

>  <r_qp_CIQPlogS>  (955) 
-5.9870000000000001

>  <r_qp_EA(eV)>  (955) 
0.872

>  <r_qp_FISA>  (955) 
65.119

>  <r_qp_FOSA>  (955) 
215.066

>  <r_qp_IP(eV)>  (955) 
9.1539999999999999

>  <r_qp_Jm>  (955) 
0.24732257098500299

>  <r_qp_PISA>  (955) 
457.10000000000002

>  <r_qp_PSA>  (955) 
70.724000000000004

>  <r_qp_PercentHumanOralAbsorption>  (955) 
100

>  <r_qp_QPPCaco>  (955) 
596.04100000000005

>  <r_qp_QPPMDCK>  (955) 
312.84500000000003

>  <r_qp_QPlogBB>  (955) 
-0.14499999999999999

>  <r_qp_QPlogHERG>  (955) 
-7.1310000000000002

>  <r_qp_QPlogKhsa>  (955) 
0.498

>  <r_qp_QPlogKp>  (955) 
-2.4039999999999999

>  <r_qp_QPlogPC16>  (955) 
15.132

>  <r_qp_QPlogPo/w>  (955) 
4.6680000000000001

>  <r_qp_QPlogPoct>  (955) 
21.087

>  <r_qp_QPlogPw>  (955) 
10.422000000000001

>  <r_qp_QPlogS>  (955) 
-3.871

>  <r_qp_QPpolrz>  (955) 
50.404000000000003

>  <r_qp_SASA>  (955) 
737.28599999999994

>  <r_qp_SAamideO>  (955) 
0

>  <r_qp_SAfluorine>  (955) 
0

>  <r_qp_WPSA>  (955) 
0

>  <r_qp_accptHB>  (955) 
7.25

>  <r_qp_dip^2/V>  (955) 
0.022705800000000002

>  <r_qp_dipole>  (955) 
5.7030000000000003

>  <r_qp_donorHB>  (955) 
0

>  <r_qp_glob>  (955) 
0.83354600000000001

>  <r_qp_mol_MW>  (955) 
465.55099999999999

>  <r_qp_volume>  (955) 
1432.52

>  <r_sd_BIOSOLVEIT.INFINISEE\_FTREES\_SIMILARITY>  (955) 
0.91600000000000004

>  <r_sd_BIOSOLVEIT.LOGP>  (955) 
3.8849999999999998

>  <r_sd_BIOSOLVEIT.MOLECULAR\_WEIGHT>  (955) 
466.55799999999999

>  <r_sd_BIOSOLVEIT.TPSA>  (955) 
72.730000000000004

>  <i_epik_Tot_Q>  (955) 
0

>  <i_epik_Tot_abs_Q>  (955) 
0

>  <i_f3d_flags>  (955) 
0

>  <i_i_glide_confnum>  (955) 
4

>  <i_i_glide_lignum>  (955) 
959

>  <i_i_glide_posenum>  (955) 
12

>  <i_i_glide_rotatable_bonds>  (955) 
9

>  <i_lp_mmshare_version>  (955) 
65135

>  <i_m_ct_format>  (955) 
2

>  <i_m_source_file_index>  (955) 
2452

>  <i_qp_#NandO>  (955) 
6

>  <i_qp_#acid>  (955) 
0

>  <i_qp_#amide>  (955) 
0

>  <i_qp_#amidine>  (955) 
0

>  <i_qp_#amine>  (955) 
1

>  <i_qp_#in34>  (955) 
0

>  <i_qp_#in56>  (955) 
24

>  <i_qp_#metab>  (955) 
4

>  <i_qp_#nonHatm>  (955) 
35

>  <i_qp_#noncon>  (955) 
0

>  <i_qp_#ringatoms>  (955) 
24

>  <i_qp_#rotor>  (955) 
8

>  <i_qp_#rtvFG>  (955) 
0

>  <i_qp_#stars>  (955) 
1

>  <i_qp_CNS>  (955) 
1

>  <i_qp_HumanOralAbsorption>  (955) 
3

>  <i_qp_RuleOfFive>  (955) 
0

>  <i_qp_RuleOfThree>  (955) 
0

>  <i_sd_BIOSOLVEIT.INFINISEE\_RESULT\_RANK>  (955) 
25760

>  <i_sd_version>  (955) 
0

>  <b_lp_Chiralities_Consistent>  (955) 
1

>  <b_sd_chiral_flag>  (955) 
0

>  <canonical_id>  (955) 
ATP-HTVS-9774402850E8

>  <compound_code>  (955) 
78433

>  <title>  (955) 
rxn501c____EMOL5415347____EMOL36251210____EMOL506383

>  <variant>  (955) 
78433-2

>  <source_file>  (955) 
运行/运行/ATP-VSW/ATP-VSW-DOCK_HTVS_1-001_lib/ATP-VSW-DOCK_HTVS_1-001_lib

>  <canonical_smiles>  (955) 
COc1ccc(-c2ccnc(NC(=O)c3ccccc3CN(C)C)c2C(=O)c2ccccc2)cc1

>  <scaffold>  (955) 
O=C(Nc1nccc(-c2ccccc2)c1C(=O)c1ccccc1)c1ccccc1

>  <molecular_formula>  (955) 
C29H27N3O3

$$$$
ATP-HTVS-980C1FC6FC1E
     RDKit          3D

 73 76  0  0  0  0  0  0  0  0999 V2000
  197.3232  181.7887  155.3718 N   0  0  0  0  0  0  0  0  0  0  0  0
  197.3774  182.9795  154.7979 C   0  0  0  0  0  0  0  0  0  0  0  0
  197.3763  183.1459  153.4749 N   0  0  0  0  0  0  0  0  0  0  0  0
  197.3006  182.0639  152.6538 C   0  0  0  0  0  0  0  0  0  0  0  0
  197.2646  180.7667  153.2384 C   0  0  0  0  0  0  0  0  0  0  0  0
  197.3041  180.6738  154.6410 C   0  0  0  0  0  0  0  0  0  0  0  0
  197.2842  179.4502  155.2556 N   0  0  0  0  0  0  0  0  0  0  0  0
  198.3575  178.4583  155.0815 C   0  0  1  0  0  0  0  0  0  0  0  0
  199.6389  178.7341  155.8812 C   0  0  1  0  0  0  0  0  0  0  0  0
  200.6947  177.6704  155.6087 C   0  0  0  0  0  0  0  0  0  0  0  0
  200.9594  176.6515  156.5521 C   0  0  0  0  0  0  0  0  0  0  0  0
  201.9579  175.6832  156.2900 C   0  0  0  0  0  0  0  0  0  0  0  0
  202.6571  175.6899  155.0540 C   0  0  0  0  0  0  0  0  0  0  0  0
  202.3056  176.6618  154.0913 C   0  0  0  0  0  0  0  0  0  0  0  0
  201.3933  177.6654  154.3750 C   0  0  0  0  0  0  0  0  0  0  0  0
  203.7631  174.6591  154.7900 C   0  0  1  0  0  0  0  0  0  0  0  0
  205.1070  175.2162  154.5495 N   0  0  0  0  0  0  0  0  0  0  0  0
  205.1416  176.0397  153.3179 C   0  0  2  0  0  0  0  0  0  0  0  0
  206.0715  174.1279  154.3264 C   0  0  2  0  0  0  0  0  0  0  0  0
  197.1451  179.6323  152.3648 C   0  0  0  0  0  0  0  0  0  0  0  0
  197.1068  179.8048  150.9674 C   0  0  0  0  0  0  0  0  0  0  0  0
  197.1464  181.1056  150.4262 C   0  0  0  0  0  0  0  0  0  0  0  0
  197.2284  182.2330  151.2538 C   0  0  0  0  0  0  0  0  0  0  0  0
  197.4947  184.1260  155.5938 N   0  0  0  0  0  0  0  0  0  0  0  0
  197.0459  184.1960  156.9711 C   0  0  1  0  0  0  0  0  0  0  0  0
  197.6125  183.0801  157.9236 C   0  0  2  0  0  0  0  0  0  0  0  0
  196.6943  182.7317  159.0546 N   0  0  2  0  0  0  0  0  0  0  0  0
  195.3447  182.2772  158.6039 C   0  0  2  0  0  0  0  0  0  0  0  0
  196.5837  183.7193  160.1659 C   0  0  2  0  0  0  0  0  0  0  0  0
  199.0574  183.4024  158.3147 C   0  0  0  0  0  0  0  0  0  0  0  0
  199.3625  184.4334  159.2450 C   0  0  0  0  0  0  0  0  0  0  0  0
  200.6602  184.6032  159.7059 C   0  0  0  0  0  0  0  0  0  0  0  0
  201.7142  183.8325  159.1637 C   0  0  0  0  0  0  0  0  0  0  0  0
  201.4435  182.8776  158.1593 C   0  0  0  0  0  0  0  0  0  0  0  0
  200.1150  182.6533  157.7465 C   0  0  0  0  0  0  0  0  0  0  0  0
  196.9339  179.4378  156.2405 H   0  0  0  0  0  0  0  0  0  0  0  0
  197.9636  177.4779  155.3603 H   0  0  0  0  0  0  0  0  0  0  0  0
  198.6410  178.3898  154.0338 H   0  0  0  0  0  0  0  0  0  0  0  0
  200.0588  179.6986  155.5896 H   0  0  0  0  0  0  0  0  0  0  0  0
  199.4282  178.7450  156.9492 H   0  0  0  0  0  0  0  0  0  0  0  0
  200.4088  176.6197  157.4796 H   0  0  0  0  0  0  0  0  0  0  0  0
  202.1716  174.9186  157.0356 H   0  0  0  0  0  0  0  0  0  0  0  0
  202.7705  176.6645  153.1112 H   0  0  0  0  0  0  0  0  0  0  0  0
  201.2181  178.4462  153.6413 H   0  0  0  0  0  0  0  0  0  0  0  0
  203.8300  173.9808  155.6450 H   0  0  0  0  0  0  0  0  0  0  0  0
  203.4415  174.0397  153.9499 H   0  0  0  0  0  0  0  0  0  0  0  0
  206.1663  176.3482  153.0522 H   0  0  0  0  0  0  0  0  0  0  0  0
  204.5677  176.9291  153.4649 H   0  0  0  0  0  0  0  0  0  0  0  0
  204.7226  175.4713  152.4725 H   0  0  0  0  0  0  0  0  0  0  0  0
  207.0511  174.5516  154.0919 H   0  0  0  0  0  0  0  0  0  0  0  0
  205.7727  173.4817  153.4946 H   0  0  0  0  0  0  0  0  0  0  0  0
  206.1862  173.5193  155.2261 H   0  0  0  0  0  0  0  0  0  0  0  0
  197.0650  178.6283  152.7726 H   0  0  0  0  0  0  0  0  0  0  0  0
  197.0479  178.9260  150.3470 H   0  0  0  0  0  0  0  0  0  0  0  0
  197.1076  181.2290  149.3673 H   0  0  0  0  0  0  0  0  0  0  0  0
  197.2496  183.2357  150.8467 H   0  0  0  0  0  0  0  0  0  0  0  0
  197.4620  185.0037  155.0987 H   0  0  0  0  0  0  0  0  0  0  0  0
  197.3060  185.1868  157.3804 H   0  0  0  0  0  0  0  0  0  0  0  0
  195.9577  184.2127  156.9396 H   0  0  0  0  0  0  0  0  0  0  0  0
  197.6820  182.1022  157.5203 H   0  0  0  0  0  0  0  0  0  0  0  0
  194.7714  183.0720  158.1246 H   0  0  0  0  0  0  0  0  0  0  0  0
  194.7542  181.9644  159.4622 H   0  0  0  0  0  0  0  0  0  0  0  0
  195.3938  181.4545  157.8953 H   0  0  0  0  0  0  0  0  0  0  0  0
  196.3305  184.6907  159.7250 H   0  0  0  0  0  0  0  0  0  0  0  0
  197.5414  183.7664  160.6776 H   0  0  0  0  0  0  0  0  0  0  0  0
  195.7968  183.4412  160.8817 H   0  0  0  0  0  0  0  0  0  0  0  0
  198.5655  185.0558  159.6369 H   0  0  0  0  0  0  0  0  0  0  0  0
  200.8262  185.3335  160.4851 H   0  0  0  0  0  0  0  0  0  0  0  0
  202.7232  184.0287  159.5042 H   0  0  0  0  0  0  0  0  0  0  0  0
  202.2610  182.3273  157.7237 H   0  0  0  0  0  0  0  0  0  0  0  0
  199.9258  181.8849  156.9846 H   0  0  0  0  0  0  0  0  0  0  0  0
  197.3884  184.0903  153.0324 H   0  0  0  0  0  0  0  0  0  0  0  0
  197.1221  181.8979  159.4543 H   0  0  0  0  0  0  0  0  0  0  0  0
  1  2  1  0
  1  6  2  0
  2  3  2  0
  2 24  1  0
  3  4  1  0
  3 72  1  0
  4  5  1  0
  4 23  2  0
  5  6  1  0
  5 20  2  0
  6  7  1  0
  7  8  1  0
  7 36  1  0
  8  9  1  0
  8 37  1  1
  8 38  1  0
  9 10  1  0
  9 39  1  6
  9 40  1  0
 10 11  1  0
 10 15  2  0
 11 12  2  0
 11 41  1  0
 12 13  1  0
 12 42  1  0
 13 14  2  0
 13 16  1  0
 14 15  1  0
 14 43  1  0
 15 44  1  0
 16 17  1  0
 16 45  1  1
 16 46  1  0
 17 18  1  0
 17 19  1  0
 18 47  1  6
 18 48  1  0
 18 49  1  0
 19 50  1  6
 19 51  1  0
 19 52  1  0
 20 21  1  0
 20 53  1  0
 21 22  2  0
 21 54  1  0
 22 23  1  0
 22 55  1  0
 23 56  1  0
 24 25  1  0
 24 57  1  0
 25 26  1  0
 25 58  1  1
 25 59  1  0
 26 27  1  0
 26 30  1  0
 26 60  1  6
 27 28  1  0
 27 29  1  0
 27 73  1  1
 28 61  1  6
 28 62  1  0
 28 63  1  0
 29 64  1  6
 29 65  1  0
 29 66  1  0
 30 31  2  0
 30 35  1  0
 31 32  1  0
 31 67  1  0
 32 33  2  0
 32 68  1  0
 33 34  1  0
 33 69  1  0
 34 35  2  0
 34 70  1  0
 35 71  1  0
M  CHG  2   3   1  27   1
M  END
>  <s_epik_cmdline>  (956) 
J2VwaWtfcHl0aG9uJywgJy1waCcsICc3LjAwMDAwMCcsICctcGh0JywgJzIuMDAwMDAwJywgJy1tcycsICcxNicsICctdG4nLCAnOCcsICctbWEnLCAnMjAwJywgJy1pbWFlJywgJzxpbmZpbGUubWFlPicsICctb21hZScsICc8b3V0ZmlsZS5tYWU+Jw==

>  <s_epik_input>  (956) 
W2NIXTFbY0hdW2NIXVtjSF1bY0hdYzFbQ0BASF0oTihbQ0gzXSlbQ0gzXSlbQ0gyXVtOSF1jKG4yKW5jKGMoYzIzKVtjSF1bY0hdW2NIXVtjSF0zKVtOSF1bQ0gyXVtDSDJdYzRbY0hdW2NIXWMoW2NIXVtjSF00KVtDSDJdTihbQ0gzXSlbQ0gzXQ==

>  <s_i_glide_gridfile>  (956) 
ATP-Grid

>  <s_lp_Force_Field>  (956) 
OPLS_2005

>  <s_lp_Variant>  (956) 
m_282030aaa____21930822____22360182____21967972-5

>  <s_lp_label>  (956) 
960_sdstereoexpander_1_neutralizer_1_epik_3_stereoizer_1

>  <s_m_source_file>  (956) 
ATP-VSW-LIGPREP-001-in.maegz

>  <s_sd_BIOSOLVEIT.INFINISEE\_QUERY\_NAME>  (956) 
Ref-Lig

>  <s_sd_BIOSOLVEIT.INFINISEE\_QUERY\_SMILES>  (956) 
S(c1nc2c(cc1C[NH2+]Cc3ccc(cc3)C[NH+](C)C)cccc2)Cc4ccccc4

>  <s_sd_BIOSOLVEIT.INFINISEE\_REACTION\_NAME>  (956) 
m_282030aaa

>  <s_sd_BIOSOLVEIT.INFINISEE\_REAGENT1\_SMILES>  (956) 
[R1*]NCC(N(C)C)c1ccccc1

>  <s_sd_BIOSOLVEIT.INFINISEE\_REAGENT2\_SMILES>  (956) 
[R2*]c1nc([R1*])c2c(n1)cccc2

>  <s_sd_BIOSOLVEIT.INFINISEE\_REAGENT3\_SMILES>  (956) 
[R2*]NCCc1ccc(cc1)CN(C)C

>  <s_sd_BIOSOLVEIT.INFINISEE\_SPACE>  (956) 
REALSpace_44bn_2023-08

>  <s_vsw_compound_code>  (956) 
30689

>  <s_vsw_variant>  (956) 
30689-5

>  <r_epik_Charging_Adjusted_Penalty>  (956) 
1.7724400010432799

>  <r_epik_Ionization_Penalty>  (956) 
1.7323

>  <r_epik_Ionization_Penalty_Charging>  (956) 
0.129

>  <r_epik_Ionization_Penalty_Neutral>  (956) 
1.6032999999999999

>  <r_epik_State_Penalty>  (956) 
1.6434

>  <r_i_docking_score>  (956) 
-2.76518341494562

>  <r_i_glide_ecoul>  (956) 
-7.8746438026428196

>  <r_i_glide_eff_state_penalty>  (956) 
1.6434

>  <r_i_glide_einternal>  (956) 
8.3119287490844709

>  <r_i_glide_emodel>  (956) 
-55.711520189768301

>  <r_i_glide_energy>  (956) 
-40.366217136383099

>  <r_i_glide_erotb>  (956) 
0.72976738307458999

>  <r_i_glide_esite>  (956) 
-0.18138358266552199

>  <r_i_glide_evdw>  (956) 
-32.491573333740199

>  <r_i_glide_gscore>  (956) 
-4.4085834149456202

>  <r_i_glide_hbond>  (956) 
-0.45600000000000002

>  <r_i_glide_ligand_efficiency>  (956) 
-0.079005240427017703

>  <r_i_glide_ligand_efficiency_ln>  (956) 
-0.60701912951993298

>  <r_i_glide_ligand_efficiency_sa>  (956) 
-0.258431379982896

>  <r_i_glide_lipo>  (956) 
-1.2700934782712501

>  <r_i_glide_metal>  (956) 
-0

>  <r_i_glide_rewards>  (956) 
-0.42509849999999799

>  <r_lp_Energy>  (956) 
24.295278

>  <r_qp_ACxDN^.5/SA>  (956) 
0.0125643

>  <r_qp_CIQPlogS>  (956) 
-5.1070000000000002

>  <r_qp_EA(eV)>  (956) 
0.624

>  <r_qp_FISA>  (956) 
46.523000000000003

>  <r_qp_FOSA>  (956) 
401.78800000000001

>  <r_qp_IP(eV)>  (956) 
8.0739999999999998

>  <r_qp_Jm>  (956) 
0.00519260545174406

>  <r_qp_PISA>  (956) 
339.59399999999999

>  <r_qp_PSA>  (956) 
51.575000000000003

>  <r_qp_PercentHumanOralAbsorption>  (956) 
100

>  <r_qp_QPPCaco>  (956) 
223.11099999999999

>  <r_qp_QPPMDCK>  (956) 
119.657

>  <r_qp_QPlogBB>  (956) 
0.23200000000000001

>  <r_qp_QPlogHERG>  (956) 
-7.5789999999999997

>  <r_qp_QPlogKhsa>  (956) 
0.90500000000000003

>  <r_qp_QPlogKp>  (956) 
-4.25

>  <r_qp_QPlogPC16>  (956) 
15.563000000000001

>  <r_qp_QPlogPo/w>  (956) 
4.8680000000000003

>  <r_qp_QPlogPoct>  (956) 
23.52

>  <r_qp_QPlogPw>  (956) 
11.638999999999999

>  <r_qp_QPlogS>  (956) 
-3.706

>  <r_qp_QPpolrz>  (956) 
51.383000000000003

>  <r_qp_SASA>  (956) 
787.90499999999997

>  <r_qp_SAamideO>  (956) 
0

>  <r_qp_SAfluorine>  (956) 
0

>  <r_qp_WPSA>  (956) 
0

>  <r_qp_accptHB>  (956) 
7

>  <r_qp_dip^2/V>  (956) 
0.0032913999999999999

>  <r_qp_dipole>  (956) 
2.246

>  <r_qp_donorHB>  (956) 
2

>  <r_qp_glob>  (956) 
0.81611210000000001

>  <r_qp_mol_MW>  (956) 
468.64400000000001

>  <r_qp_volume>  (956) 
1533.162

>  <r_sd_BIOSOLVEIT.INFINISEE\_FTREES\_SIMILARITY>  (956) 
0.91700000000000004

>  <r_sd_BIOSOLVEIT.LOGP>  (956) 
2.2265999999999999

>  <r_sd_BIOSOLVEIT.MOLECULAR\_WEIGHT>  (956) 
470.661

>  <r_sd_BIOSOLVEIT.TPSA>  (956) 
58.719999999999999

>  <i_epik_Tot_Q>  (956) 
2

>  <i_epik_Tot_abs_Q>  (956) 
2

>  <i_f3d_flags>  (956) 
0

>  <i_i_glide_confnum>  (956) 
8

>  <i_i_glide_lignum>  (956) 
194

>  <i_i_glide_posenum>  (956) 
20

>  <i_i_glide_rotatable_bonds>  (956) 
11

>  <i_lp_mmshare_version>  (956) 
65135

>  <i_m_ct_format>  (956) 
2

>  <i_m_source_file_index>  (956) 
960

>  <i_qp_#NandO>  (956) 
6

>  <i_qp_#acid>  (956) 
0

>  <i_qp_#amide>  (956) 
0

>  <i_qp_#amidine>  (956) 
0

>  <i_qp_#amine>  (956) 
2

>  <i_qp_#in34>  (956) 
0

>  <i_qp_#in56>  (956) 
22

>  <i_qp_#metab>  (956) 
6

>  <i_qp_#nonHatm>  (956) 
35

>  <i_qp_#noncon>  (956) 
0

>  <i_qp_#ringatoms>  (956) 
22

>  <i_qp_#rotor>  (956) 
11

>  <i_qp_#rtvFG>  (956) 
0

>  <i_qp_#stars>  (956) 
0

>  <i_qp_CNS>  (956) 
1

>  <i_qp_HumanOralAbsorption>  (956) 
3

>  <i_qp_RuleOfFive>  (956) 
0

>  <i_qp_RuleOfThree>  (956) 
0

>  <i_sd_BIOSOLVEIT.INFINISEE\_REAGENT1\_NAME>  (956) 
21930822

>  <i_sd_BIOSOLVEIT.INFINISEE\_REAGENT2\_NAME>  (956) 
22360182

>  <i_sd_BIOSOLVEIT.INFINISEE\_REAGENT3\_NAME>  (956) 
21967972

>  <i_sd_BIOSOLVEIT.INFINISEE\_RESULT\_RANK>  (956) 
23257

>  <i_sd_version>  (956) 
0

>  <b_lp_Chiralities_Consistent>  (956) 
1

>  <b_sd_chiral_flag>  (956) 
0

>  <canonical_id>  (956) 
ATP-HTVS-980C1FC6FC1E

>  <compound_code>  (956) 
30689

>  <title>  (956) 
m_282030aaa____21930822____22360182____21967972

>  <variant>  (956) 
30689-5

>  <source_file>  (956) 
运行/运行/ATP-VSW/ATP-VSW-DOCK_HTVS_1-001_lib/ATP-VSW-DOCK_HTVS_1-001_lib

>  <canonical_smiles>  (956) 
CN(C)Cc1ccc(CCNc2nc(NC[C@@H](c3ccccc3)[NH+](C)C)[nH+]c3ccccc23)cc1

>  <scaffold>  (956) 
c1ccc(CCNc2nc(NCCc3ccccc3)c3ccccc3[nH+]2)cc1

>  <molecular_formula>  (956) 
C29H38N6+2

$$$$
ATP-HTVS-985FC5CCBDCC
     RDKit          3D

 61 64  0  0  0  0  0  0  0  0999 V2000
  202.4408  183.7576  156.8556 Cl  0  0  0  0  0  0  0  0  0  0  0  0
  202.4519  183.3762  158.5472 C   0  0  0  0  0  0  0  0  0  0  0  0
  202.3079  182.0481  159.0393 C   0  0  0  0  0  0  0  0  0  0  0  0
  202.3553  181.8373  160.4400 C   0  0  0  0  0  0  0  0  0  0  0  0
  202.5152  182.9148  161.3309 C   0  0  0  0  0  0  0  0  0  0  0  0
  202.6396  184.2255  160.8318 C   0  0  0  0  0  0  0  0  0  0  0  0
  202.6071  184.4483  159.4433 C   0  0  0  0  0  0  0  0  0  0  0  0
  202.1257  180.8407  158.1180 C   0  0  2  0  0  0  0  0  0  0  0  0
  203.2479  180.6458  157.2805 O   0  0  0  0  0  0  0  0  0  0  0  0
  200.8672  180.9074  157.3352 C   0  0  0  0  0  0  0  0  0  0  0  0
  199.8322  181.0206  156.6925 C   0  0  0  0  0  0  0  0  0  0  0  0
  198.5925  181.1135  155.9952 C   0  0  0  0  0  0  0  0  0  0  0  0
  198.4334  180.5983  154.6606 C   0  0  0  0  0  0  0  0  0  0  0  0
  197.0822  180.8297  154.2632 C   0  0  0  0  0  0  0  0  0  0  0  0
  196.4827  181.4759  155.3233 N   0  0  0  0  0  0  0  0  0  0  0  0
  197.3509  181.5963  156.4005 C   0  0  0  0  0  0  0  0  0  0  0  0
  196.8649  182.2162  157.6606 C   0  0  0  0  0  0  0  0  0  0  0  0
  197.5967  182.4435  158.6153 O   0  0  0  0  0  0  0  0  0  0  0  0
  195.5779  182.5937  157.7074 N   0  0  0  0  0  0  0  0  0  0  0  0
  194.9131  183.2301  158.8271 C   0  0  1  0  0  0  0  0  0  0  0  0
  195.4579  184.6008  159.2612 C   0  0  0  0  0  0  0  0  0  0  0  0
  196.7492  185.0404  158.8430 C   0  0  0  0  0  0  0  0  0  0  0  0
  197.2487  186.2256  159.3927 C   0  0  0  0  0  0  0  0  0  0  0  0
  196.4709  187.0435  160.2536 C   0  0  0  0  0  0  0  0  0  0  0  0
  195.1620  186.6401  160.6113 C   0  0  0  0  0  0  0  0  0  0  0  0
  194.6627  185.4062  160.1330 C   0  0  0  0  0  0  0  0  0  0  0  0
  197.0668  188.3769  160.6851 C   0  0  1  0  0  0  0  0  0  0  0  0
  196.6727  189.4745  159.7617 N   0  0  2  0  0  0  0  0  0  0  0  0
  197.1495  189.2858  158.3644 C   0  0  2  0  0  0  0  0  0  0  0  0
  197.0662  190.7841  160.3035 C   0  0  2  0  0  0  0  0  0  0  0  0
  196.5854  180.4029  153.0261 C   0  0  0  0  0  0  0  0  0  0  0  0
  197.4377  179.7305  152.1413 C   0  0  0  0  0  0  0  0  0  0  0  0
  198.7755  179.4898  152.5002 C   0  0  0  0  0  0  0  0  0  0  0  0
  199.2724  179.9176  153.7473 C   0  0  0  0  0  0  0  0  0  0  0  0
  202.2644  180.8419  160.8476 H   0  0  0  0  0  0  0  0  0  0  0  0
  202.5403  182.7455  162.4005 H   0  0  0  0  0  0  0  0  0  0  0  0
  202.7661  185.0560  161.5099 H   0  0  0  0  0  0  0  0  0  0  0  0
  202.7059  185.4502  159.0572 H   0  0  0  0  0  0  0  0  0  0  0  0
  202.0259  179.9425  158.7295 H   0  0  0  0  0  0  0  0  0  0  0  0
  203.5087  179.7319  157.3280 H   0  0  0  0  0  0  0  0  0  0  0  0
  195.5076  181.7759  155.3534 H   0  0  0  0  0  0  0  0  0  0  0  0
  195.0331  182.4811  156.8778 H   0  0  0  0  0  0  0  0  0  0  0  0
  193.8739  183.3260  158.5138 H   0  0  0  0  0  0  0  0  0  0  0  0
  194.9089  182.5014  159.6383 H   0  0  0  0  0  0  0  0  0  0  0  0
  197.3748  184.4921  158.1753 H   0  0  0  0  0  0  0  0  0  0  0  0
  198.2286  186.5164  159.0941 H   0  0  0  0  0  0  0  0  0  0  0  0
  194.5417  187.2789  161.2477 H   0  0  0  0  0  0  0  0  0  0  0  0
  193.6527  185.0752  160.4322 H   0  0  0  0  0  0  0  0  0  0  0  0
  196.7325  188.5705  161.7139 H   0  0  0  0  0  0  0  0  0  0  0  0
  198.1558  188.2837  160.6947 H   0  0  0  0  0  0  0  0  0  0  0  0
  198.2391  189.2674  158.3250 H   0  0  0  0  0  0  0  0  0  0  0  0
  196.7840  190.0849  157.7188 H   0  0  0  0  0  0  0  0  0  0  0  0
  196.7777  188.3613  157.9205 H   0  0  0  0  0  0  0  0  0  0  0  0
  198.1473  190.8454  160.4303 H   0  0  0  0  0  0  0  0  0  0  0  0
  196.5970  190.9550  161.2711 H   0  0  0  0  0  0  0  0  0  0  0  0
  196.7521  191.5744  159.6297 H   0  0  0  0  0  0  0  0  0  0  0  0
  195.5552  180.5907  152.7724 H   0  0  0  0  0  0  0  0  0  0  0  0
  197.0554  179.4115  151.1894 H   0  0  0  0  0  0  0  0  0  0  0  0
  199.4291  178.9815  151.8185 H   0  0  0  0  0  0  0  0  0  0  0  0
  200.2994  179.7238  154.0255 H   0  0  0  0  0  0  0  0  0  0  0  0
  195.6605  189.4424  159.7303 H   0  0  0  0  0  0  0  0  0  0  0  0
  1  2  1  0
  2  3  1  0
  2  7  2  0
  3  4  2  0
  3  8  1  0
  4  5  1  0
  4 35  1  0
  5  6  2  0
  5 36  1  0
  6  7  1  0
  6 37  1  0
  7 38  1  0
  8  9  1  0
  8 10  1  0
  8 39  1  1
  9 40  1  0
 10 11  3  0
 11 12  1  0
 12 13  1  0
 12 16  2  0
 13 14  1  0
 13 34  2  0
 14 15  1  0
 14 31  2  0
 15 16  1  0
 15 41  1  0
 16 17  1  0
 17 18  2  0
 17 19  1  0
 19 20  1  0
 19 42  1  0
 20 21  1  0
 20 43  1  6
 20 44  1  0
 21 22  1  0
 21 26  2  0
 22 23  2  0
 22 45  1  0
 23 24  1  0
 23 46  1  0
 24 25  2  0
 24 27  1  0
 25 26  1  0
 25 47  1  0
 26 48  1  0
 27 28  1  0
 27 49  1  1
 27 50  1  0
 28 29  1  0
 28 30  1  0
 28 61  1  6
 29 51  1  1
 29 52  1  0
 29 53  1  0
 30 54  1  1
 30 55  1  0
 30 56  1  0
 31 32  1  0
 31 57  1  0
 32 33  2  0
 32 58  1  0
 33 34  1  0
 33 59  1  0
 34 60  1  0
M  CHG  1  28   1
M  END
>  <s_epik_cmdline>  (957) 
J2VwaWtfcHl0aG9uJywgJy1waCcsICc3LjAwMDAwMCcsICctcGh0JywgJzIuMDAwMDAwJywgJy1tcycsICcxNicsICctdG4nLCAnOCcsICctbWEnLCAnMjAwJywgJy1pbWFlJywgJzxpbmZpbGUubWFlPicsICctb21hZScsICc8b3V0ZmlsZS5tYWU+Jw==

>  <s_epik_input>  (957) 
W2NIXTFbY0hdW2NIXVtjSF1jKGMxQ2wpW0NASF0oW09IXSlDI0NjMmMoW25IXWMoYzIzKVtjSF1bY0hdW2NIXVtjSF0zKUMoPU8pW05IXVtDSDJdYzRbY0hdW2NIXWMoW2NIXVtjSF00KVtDSDJdTihbQ0gzXSlbQ0gzXQ==

>  <s_i_glide_gridfile>  (957) 
ATP-Grid

>  <s_lp_Force_Field>  (957) 
OPLS_2005

>  <s_lp_Variant>  (957) 
rxn513b____EMOL50155899____EMOL719673____EMOL38277732-1

>  <s_lp_label>  (957) 
2861_sdstereoexpander_1_neutralizer_1_epik_1_stereoizer_1

>  <s_m_source_file>  (957) 
ATP-VSW-LIGPREP-003-in.maegz

>  <s_sd_BIOSOLVEIT.INFINISEE\_QUERY\_NAME>  (957) 
Ref-Lig

>  <s_sd_BIOSOLVEIT.INFINISEE\_QUERY\_SMILES>  (957) 
S(c1nc2c(cc1C[NH2+]Cc3ccc(cc3)C[NH+](C)C)cccc2)Cc4ccccc4

>  <s_sd_BIOSOLVEIT.INFINISEE\_REACTION\_NAME>  (957) 
rxn513b

>  <s_sd_BIOSOLVEIT.INFINISEE\_REAGENT1\_NAME>  (957) 
EMOL50155899

>  <s_sd_BIOSOLVEIT.INFINISEE\_REAGENT1\_SMILES>  (957) 
N(Cc1ccc(cc1)CN)(C)C

>  <s_sd_BIOSOLVEIT.INFINISEE\_REAGENT2\_NAME>  (957) 
EMOL719673

>  <s_sd_BIOSOLVEIT.INFINISEE\_REAGENT2\_SMILES>  (957) 
BrC=1c2c(NC1C(=O)O)cccc2

>  <s_sd_BIOSOLVEIT.INFINISEE\_REAGENT3\_NAME>  (957) 
EMOL38277732

>  <s_sd_BIOSOLVEIT.INFINISEE\_REAGENT3\_SMILES>  (957) 
Clc1c(cccc1)C(O)C#C

>  <s_sd_BIOSOLVEIT.INFINISEE\_SPACE>  (957) 
eXplore_7tr_2022-12

>  <s_vsw_compound_code>  (957) 
91523

>  <s_vsw_variant>  (957) 
91523-1

>  <r_epik_Charging_Adjusted_Penalty>  (957) 
0.0903365638524595

>  <r_epik_Ionization_Penalty>  (957) 
0.048899999999999999

>  <r_epik_Ionization_Penalty_Charging>  (957) 
0.045199999999999997

>  <r_epik_Ionization_Penalty_Neutral>  (957) 
0.0038

>  <r_epik_State_Penalty>  (957) 
0.045199999999999997

>  <r_i_docking_score>  (957) 
-5.7148710725695304

>  <r_i_glide_ecoul>  (957) 
-11.5014400482178

>  <r_i_glide_eff_state_penalty>  (957) 
0.045199999999999997

>  <r_i_glide_einternal>  (957) 
3.8397645950317401

>  <r_i_glide_emodel>  (957) 
-69.394125352557296

>  <r_i_glide_energy>  (957) 
-49.088541030883803

>  <r_i_glide_erotb>  (957) 
0.63280883125612597

>  <r_i_glide_esite>  (957) 
-0.214416468282802

>  <r_i_glide_evdw>  (957) 
-37.587100982666001

>  <r_i_glide_gscore>  (957) 
-5.7600710725695397

>  <r_i_glide_hbond>  (957) 
-0.49417264353222801

>  <r_i_glide_ligand_efficiency>  (957) 
-0.168084443310869

>  <r_i_glide_ligand_efficiency_ln>  (957) 
-1.2625753166345799

>  <r_i_glide_ligand_efficiency_sa>  (957) 
-0.54452834552097895

>  <r_i_glide_lipo>  (957) 
-1.89553050837194

>  <r_i_glide_metal>  (957) 
-0

>  <r_i_glide_rewards>  (957) 
-0.18418922727272599

>  <r_lp_Energy>  (957) 
16.098904000000001

>  <r_qp_ACxDN^.5/SA>  (957) 
0.0135604

>  <r_qp_CIQPlogS>  (957) 
-6.3710000000000004

>  <r_qp_EA(eV)>  (957) 
0.70099999999999996

>  <r_qp_FISA>  (957) 
114.667

>  <r_qp_FOSA>  (957) 
222.63800000000001

>  <r_qp_IP(eV)>  (957) 
8.452

>  <r_qp_Jm>  (957) 
0.00072675319060475595

>  <r_qp_PISA>  (957) 
436.97300000000001

>  <r_qp_PSA>  (957) 
75.423000000000002

>  <r_qp_PercentHumanOralAbsorption>  (957) 
96.462000000000003

>  <r_qp_QPPCaco>  (957) 
202.02799999999999

>  <r_qp_QPPMDCK>  (957) 
121.35899999999999

>  <r_qp_QPlogBB>  (957) 
-0.76400000000000001

>  <r_qp_QPlogHERG>  (957) 
-7.7489999999999997

>  <r_qp_QPlogKhsa>  (957) 
0.878

>  <r_qp_QPlogKp>  (957) 
-3.2919999999999998

>  <r_qp_QPlogPC16>  (957) 
16.648

>  <r_qp_QPlogPo/w>  (957) 
4.8250000000000002

>  <r_qp_QPlogPoct>  (957) 
24.986999999999998

>  <r_qp_QPlogPw>  (957) 
13.898999999999999

>  <r_qp_QPlogS>  (957) 
-5.5209999999999999

>  <r_qp_QPpolrz>  (957) 
51.064999999999998

>  <r_qp_SASA>  (957) 
791.91499999999996

>  <r_qp_SAamideO>  (957) 
0

>  <r_qp_SAfluorine>  (957) 
0

>  <r_qp_WPSA>  (957) 
17.635999999999999

>  <r_qp_accptHB>  (957) 
6.2000000000000002

>  <r_qp_dip^2/V>  (957) 
0.0078372000000000008

>  <r_qp_dipole>  (957) 
3.3940000000000001

>  <r_qp_donorHB>  (957) 
3

>  <r_qp_glob>  (957) 
0.78947880000000004

>  <r_qp_mol_MW>  (957) 
471.98500000000001

>  <r_qp_volume>  (957) 
1469.876

>  <r_sd_BIOSOLVEIT.INFINISEE\_FTREES\_SIMILARITY>  (957) 
0.90500000000000003

>  <r_sd_BIOSOLVEIT.LOGP>  (957) 
3.4809000000000001

>  <r_sd_BIOSOLVEIT.MOLECULAR\_WEIGHT>  (957) 
472.99299999999999

>  <r_sd_BIOSOLVEIT.TPSA>  (957) 
69.560000000000002

>  <i_epik_Tot_Q>  (957) 
1

>  <i_epik_Tot_abs_Q>  (957) 
1

>  <i_f3d_flags>  (957) 
0

>  <i_i_glide_confnum>  (957) 
3

>  <i_i_glide_lignum>  (957) 
1382

>  <i_i_glide_posenum>  (957) 
15

>  <i_i_glide_rotatable_bonds>  (957) 
10

>  <i_lp_mmshare_version>  (957) 
65135

>  <i_m_ct_format>  (957) 
2

>  <i_m_source_file_index>  (957) 
2861

>  <i_qp_#NandO>  (957) 
5

>  <i_qp_#acid>  (957) 
0

>  <i_qp_#amide>  (957) 
0

>  <i_qp_#amidine>  (957) 
0

>  <i_qp_#amine>  (957) 
1

>  <i_qp_#in34>  (957) 
0

>  <i_qp_#in56>  (957) 
21

>  <i_qp_#metab>  (957) 
5

>  <i_qp_#nonHatm>  (957) 
34

>  <i_qp_#noncon>  (957) 
0

>  <i_qp_#ringatoms>  (957) 
21

>  <i_qp_#rotor>  (957) 
9

>  <i_qp_#rtvFG>  (957) 
0

>  <i_qp_#stars>  (957) 
0

>  <i_qp_CNS>  (957) 
-1

>  <i_qp_HumanOralAbsorption>  (957) 
3

>  <i_qp_RuleOfFive>  (957) 
0

>  <i_qp_RuleOfThree>  (957) 
0

>  <i_sd_BIOSOLVEIT.INFINISEE\_RESULT\_RANK>  (957) 
70262

>  <i_sd_version>  (957) 
0

>  <b_lp_Chiralities_Consistent>  (957) 
1

>  <b_sd_chiral_flag>  (957) 
0

>  <canonical_id>  (957) 
ATP-HTVS-985FC5CCBDCC

>  <compound_code>  (957) 
91523

>  <title>  (957) 
rxn513b____EMOL50155899____EMOL719673____EMOL38277732

>  <variant>  (957) 
91523-1

>  <source_file>  (957) 
运行/运行/ATP-VSW/ATP-VSW-DOCK_HTVS_1-003_lib/ATP-VSW-DOCK_HTVS_1-003_lib.mae

>  <canonical_smiles>  (957) 
C[NH+](C)Cc1ccc(CNC(=O)c2[nH]c3ccccc3c2C#C[C@@H](O)c2ccccc2Cl)cc1

>  <scaffold>  (957) 
O=C(NCc1ccccc1)c1[nH]c2ccccc2c1C#CCc1ccccc1

>  <molecular_formula>  (957) 
C28H27ClN3O2+

$$$$
ATP-HTVS-986AE7271DA8
     RDKit          3D

 62 65  0  0  0  0  0  0  0  0999 V2000
  198.1103  180.2527  154.3781 O   0  0  0  0  0  0  0  0  0  0  0  0
  198.9176  179.9119  155.2472 C   0  0  0  0  0  0  0  0  0  0  0  0
  199.3207  180.6739  156.2795 N   0  0  0  0  0  0  0  0  0  0  0  0
  198.6583  181.8213  156.8230 C   0  0  0  0  0  0  0  0  0  0  0  0
  197.3785  182.1067  156.5162 N   0  0  0  0  0  0  0  0  0  0  0  0
  196.7648  183.1206  157.1120 C   0  0  0  0  0  0  0  0  0  0  0  0
  197.3570  183.9723  158.0576 C   0  0  0  0  0  0  0  0  0  0  0  0
  196.6231  185.0263  158.6700 N   0  0  0  0  0  0  0  0  0  0  0  0
  196.9429  186.3828  158.4100 C   0  0  0  0  0  0  0  0  0  0  0  0
  196.8548  187.3763  159.4156 C   0  0  0  0  0  0  0  0  0  0  0  0
  197.1563  188.7209  159.1382 C   0  0  0  0  0  0  0  0  0  0  0  0
  197.6165  189.0892  157.8628 C   0  0  0  0  0  0  0  0  0  0  0  0
  197.7520  188.1069  156.8636 C   0  0  0  0  0  0  0  0  0  0  0  0
  197.4080  186.7668  157.1293 C   0  0  0  0  0  0  0  0  0  0  0  0
  195.1979  184.7444  158.9915 C   0  0  2  0  0  0  0  0  0  0  0  0
  194.6935  185.5617  160.1249 C   0  0  0  0  0  0  0  0  0  0  0  0
  194.2996  186.2056  161.0090 N   0  0  0  0  0  0  0  0  0  0  0  0
  194.8039  183.2543  159.2862 C   0  0  2  0  0  0  0  0  0  0  0  0
  198.7290  183.7442  158.3395 C   0  0  0  0  0  0  0  0  0  0  0  0
  199.3994  182.6444  157.7164 C   0  0  0  0  0  0  0  0  0  0  0  0
  200.7694  182.4118  157.9878 C   0  0  0  0  0  0  0  0  0  0  0  0
  201.4792  183.2607  158.8505 C   0  0  0  0  0  0  0  0  0  0  0  0
  200.8281  184.3296  159.4891 C   0  0  0  0  0  0  0  0  0  0  0  0
  199.4589  184.5523  159.2478 C   0  0  0  0  0  0  0  0  0  0  0  0
  199.6316  178.5972  155.1435 C   0  0  0  0  0  0  0  0  0  0  0  0
  199.9592  177.8630  156.3062 C   0  0  0  0  0  0  0  0  0  0  0  0
  200.5875  176.6086  156.2063 C   0  0  0  0  0  0  0  0  0  0  0  0
  200.8843  176.0655  154.9390 C   0  0  0  0  0  0  0  0  0  0  0  0
  200.5572  176.7946  153.7774 C   0  0  0  0  0  0  0  0  0  0  0  0
  199.9400  178.0540  153.8764 C   0  0  0  0  0  0  0  0  0  0  0  0
  201.5603  174.7071  154.8217 C   0  0  1  0  0  0  0  0  0  0  0  0
  203.0239  174.7942  155.0555 N   0  0  2  0  0  0  0  0  0  0  0  0
  203.7148  175.6650  154.0732 C   0  0  2  0  0  0  0  0  0  0  0  0
  203.6643  173.4597  155.1441 C   0  0  2  0  0  0  0  0  0  0  0  0
  200.1541  180.3734  156.7506 H   0  0  0  0  0  0  0  0  0  0  0  0
  195.7211  183.2857  156.7849 H   0  0  0  0  0  0  0  0  0  0  0  0
  196.5839  187.1428  160.4332 H   0  0  0  0  0  0  0  0  0  0  0  0
  197.0518  189.4601  159.9201 H   0  0  0  0  0  0  0  0  0  0  0  0
  197.8655  190.1220  157.6577 H   0  0  0  0  0  0  0  0  0  0  0  0
  198.1132  188.3855  155.8866 H   0  0  0  0  0  0  0  0  0  0  0  0
  197.5273  186.0320  156.3460 H   0  0  0  0  0  0  0  0  0  0  0  0
  194.6308  185.0979  158.1414 H   0  0  0  0  0  0  0  0  0  0  0  0
  193.7109  183.2081  159.4151 H   0  0  0  0  0  0  0  0  0  0  0  0
  195.3041  182.9789  160.2168 H   0  0  0  0  0  0  0  0  0  0  0  0
  195.0831  182.5204  158.5174 H   0  0  0  0  0  0  0  0  0  0  0  0
  201.3053  181.5985  157.5186 H   0  0  0  0  0  0  0  0  0  0  0  0
  202.5354  183.0834  159.0252 H   0  0  0  0  0  0  0  0  0  0  0  0
  201.3812  184.9873  160.1424 H   0  0  0  0  0  0  0  0  0  0  0  0
  198.9897  185.3878  159.7371 H   0  0  0  0  0  0  0  0  0  0  0  0
  199.6931  178.2415  157.2849 H   0  0  0  0  0  0  0  0  0  0  0  0
  200.8153  176.0638  157.1101 H   0  0  0  0  0  0  0  0  0  0  0  0
  200.7793  176.3903  152.8018 H   0  0  0  0  0  0  0  0  0  0  0  0
  199.6831  178.5931  152.9764 H   0  0  0  0  0  0  0  0  0  0  0  0
  201.1045  174.0224  155.5386 H   0  0  0  0  0  0  0  0  0  0  0  0
  201.3752  174.2865  153.8312 H   0  0  0  0  0  0  0  0  0  0  0  0
  203.6086  175.2673  153.0620 H   0  0  0  0  0  0  0  0  0  0  0  0
  204.7783  175.7514  154.2987 H   0  0  0  0  0  0  0  0  0  0  0  0
  203.3134  176.6790  154.0807 H   0  0  0  0  0  0  0  0  0  0  0  0
  203.5438  172.8952  154.2182 H   0  0  0  0  0  0  0  0  0  0  0  0
  203.2428  172.8698  155.9577 H   0  0  0  0  0  0  0  0  0  0  0  0
  204.7334  173.5620  155.3320 H   0  0  0  0  0  0  0  0  0  0  0  0
  203.1376  175.2316  155.9603 H   0  0  0  0  0  0  0  0  0  0  0  0
  1  2  2  0
  2  3  1  0
  2 25  1  0
  3  4  1  0
  3 35  1  0
  4  5  1  0
  4 20  2  0
  5  6  2  0
  6  7  1  0
  6 36  1  0
  7  8  1  0
  7 19  2  0
  8  9  1  0
  8 15  1  0
  9 10  2  0
  9 14  1  0
 10 11  1  0
 10 37  1  0
 11 12  2  0
 11 38  1  0
 12 13  1  0
 12 39  1  0
 13 14  2  0
 13 40  1  0
 14 41  1  0
 15 16  1  0
 15 18  1  0
 15 42  1  6
 16 17  3  0
 18 43  1  1
 18 44  1  0
 18 45  1  0
 19 20  1  0
 19 24  1  0
 20 21  1  0
 21 22  2  0
 21 46  1  0
 22 23  1  0
 22 47  1  0
 23 24  2  0
 23 48  1  0
 24 49  1  0
 25 26  1  0
 25 30  2  0
 26 27  2  0
 26 50  1  0
 27 28  1  0
 27 51  1  0
 28 29  2  0
 28 31  1  0
 29 30  1  0
 29 52  1  0
 30 53  1  0
 31 32  1  0
 31 54  1  1
 31 55  1  0
 32 33  1  0
 32 34  1  0
 32 62  1  1
 33 56  1  6
 33 57  1  0
 33 58  1  0
 34 59  1  6
 34 60  1  0
 34 61  1  0
M  CHG  1  32   1
M  END
>  <s_epik_cmdline>  (958) 
J2VwaWtfcHl0aG9uJywgJy1waCcsICc3LjAwMDAwMCcsICctcGh0JywgJzIuMDAwMDAwJywgJy1tcycsICcxNicsICctdG4nLCAnOCcsICctbWEnLCAnMjAwJywgJy1pbWFlJywgJzxpbmZpbGUubWFlPicsICctb21hZScsICc8b3V0ZmlsZS5tYWU+Jw==

>  <s_epik_input>  (958) 
W0NIM11OKFtDSDNdKVtDSDJdYyhbY0hdW2NIXTEpW2NIXVtjSF1jMUMoPU8pW05IXWMoYyhjMjMpW2NIXVtjSF1bY0hdW2NIXTMpbltjSF1jMk4oW0NASF0oQyNOKVtDSDNdKWM0W2NIXVtjSF1bY0hdW2NIXVtjSF00

>  <s_i_glide_gridfile>  (958) 
ATP-Grid

>  <s_lp_Force_Field>  (958) 
OPLS_2005

>  <s_lp_Variant>  (958) 
rxn502b____EMOL18624763____EMOL7515103____EMOL36790511-2

>  <s_lp_label>  (958) 
2190_sdstereoexpander_2_neutralizer_1_epik_1_stereoizer_1

>  <s_m_source_file>  (958) 
ATP-VSW-LIGPREP-001-in.maegz

>  <s_sd_BIOSOLVEIT.INFINISEE\_QUERY\_NAME>  (958) 
Ref-Lig

>  <s_sd_BIOSOLVEIT.INFINISEE\_QUERY\_SMILES>  (958) 
S(c1nc2c(cc1C[NH2+]Cc3ccc(cc3)C[NH+](C)C)cccc2)Cc4ccccc4

>  <s_sd_BIOSOLVEIT.INFINISEE\_REACTION\_NAME>  (958) 
rxn502b

>  <s_sd_BIOSOLVEIT.INFINISEE\_REAGENT1\_NAME>  (958) 
EMOL18624763

>  <s_sd_BIOSOLVEIT.INFINISEE\_REAGENT1\_SMILES>  (958) 
O=C(O)c1ccc(cc1)CN(C)C

>  <s_sd_BIOSOLVEIT.INFINISEE\_REAGENT2\_NAME>  (958) 
EMOL7515103

>  <s_sd_BIOSOLVEIT.INFINISEE\_REAGENT2\_SMILES>  (958) 
Brc1c2c(c(nc1)N)cccc2

>  <s_sd_BIOSOLVEIT.INFINISEE\_REAGENT3\_NAME>  (958) 
EMOL36790511

>  <s_sd_BIOSOLVEIT.INFINISEE\_REAGENT3\_SMILES>  (958) 
N#CC(Nc1ccccc1)C

>  <s_sd_BIOSOLVEIT.INFINISEE\_SPACE>  (958) 
eXplore_7tr_2022-12

>  <s_vsw_compound_code>  (958) 
70049

>  <s_vsw_variant>  (958) 
70049-2

>  <r_epik_Charging_Adjusted_Penalty>  (958) 
0.10433640840748

>  <r_epik_Ionization_Penalty>  (958) 
0.052200000000000003

>  <r_epik_Ionization_Penalty_Charging>  (958) 
0.052200000000000003

>  <r_epik_Ionization_Penalty_Neutral>  (958) 
0

>  <r_epik_State_Penalty>  (958) 
0.052200000000000003

>  <r_i_docking_score>  (958) 
-4.2774620772339604

>  <r_i_glide_ecoul>  (958) 
-4.7676677703857404

>  <r_i_glide_eff_state_penalty>  (958) 
0.052200000000000003

>  <r_i_glide_einternal>  (958) 
5.3072347640991202

>  <r_i_glide_emodel>  (958) 
-54.905300140752502

>  <r_i_glide_energy>  (958) 
-43.1439304351807

>  <r_i_glide_erotb>  (958) 
0.59261020438798995

>  <r_i_glide_esite>  (958) 
-0.0642479895106782

>  <r_i_glide_evdw>  (958) 
-38.376262664794901

>  <r_i_glide_gscore>  (958) 
-4.3296620772339596

>  <r_i_glide_hbond>  (958) 
0

>  <r_i_glide_ligand_efficiency>  (958) 
-0.12580770815393999

>  <r_i_glide_ligand_efficiency_ln>  (958) 
-0.94501135160829797

>  <r_i_glide_ligand_efficiency_sa>  (958) 
-0.40756813554810001

>  <r_i_glide_lipo>  (958) 
-1.7636732217687801

>  <r_i_glide_metal>  (958) 
-0

>  <r_i_glide_rewards>  (958) 
-0.46038777154488902

>  <r_lp_Energy>  (958) 
40.892615999999997

>  <r_qp_ACxDN^.5/SA>  (958) 
0.0092739999999999993

>  <r_qp_CIQPlogS>  (958) 
-6.6150000000000002

>  <r_qp_EA(eV)>  (958) 
1.2090000000000001

>  <r_qp_FISA>  (958) 
120.883

>  <r_qp_FOSA>  (958) 
261.08499999999998

>  <r_qp_IP(eV)>  (958) 
8.3330000000000002

>  <r_qp_Jm>  (958) 
3.12827688149851e-05

>  <r_qp_PISA>  (958) 
426.74700000000001

>  <r_qp_PSA>  (958) 
77.738

>  <r_qp_PercentHumanOralAbsorption>  (958) 
93.872

>  <r_qp_QPPCaco>  (958) 
176.386

>  <r_qp_QPPMDCK>  (958) 
83.897000000000006

>  <r_qp_QPlogBB>  (958) 
-0.85299999999999998

>  <r_qp_QPlogHERG>  (958) 
-7.8920000000000003

>  <r_qp_QPlogKhsa>  (958) 
0.79400000000000004

>  <r_qp_QPlogKp>  (958) 
-3.5390000000000001

>  <r_qp_QPlogPC16>  (958) 
16.228999999999999

>  <r_qp_QPlogPo/w>  (958) 
4.5629999999999997

>  <r_qp_QPlogPoct>  (958) 
24.245000000000001

>  <r_qp_QPlogPw>  (958) 
12.478

>  <r_qp_QPlogS>  (958) 
-6.6189999999999998

>  <r_qp_QPpolrz>  (958) 
52.122999999999998

>  <r_qp_SASA>  (958) 
808.71500000000003

>  <r_qp_SAamideO>  (958) 
0

>  <r_qp_SAfluorine>  (958) 
0

>  <r_qp_WPSA>  (958) 
0

>  <r_qp_accptHB>  (958) 
7.5

>  <r_qp_dip^2/V>  (958) 
0.094608800000000007

>  <r_qp_dipole>  (958) 
11.843999999999999

>  <r_qp_donorHB>  (958) 
1

>  <r_qp_glob>  (958) 
0.77757030000000005

>  <r_qp_mol_MW>  (958) 
449.55399999999997

>  <r_qp_volume>  (958) 
1482.7070000000001

>  <r_sd_BIOSOLVEIT.INFINISEE\_FTREES\_SIMILARITY>  (958) 
0.93500000000000005

>  <r_sd_BIOSOLVEIT.LOGP>  (958) 
4.1817799999999998

>  <r_sd_BIOSOLVEIT.MOLECULAR\_WEIGHT>  (958) 
450.56299999999999

>  <r_sd_BIOSOLVEIT.TPSA>  (958) 
73.459999999999994

>  <i_epik_Tot_Q>  (958) 
1

>  <i_epik_Tot_abs_Q>  (958) 
1

>  <i_f3d_flags>  (958) 
0

>  <i_i_glide_confnum>  (958) 
7

>  <i_i_glide_lignum>  (958) 
707

>  <i_i_glide_posenum>  (958) 
16

>  <i_i_glide_rotatable_bonds>  (958) 
8

>  <i_lp_mmshare_version>  (958) 
65135

>  <i_m_ct_format>  (958) 
2

>  <i_m_source_file_index>  (958) 
2190

>  <i_qp_#NandO>  (958) 
6

>  <i_qp_#acid>  (958) 
0

>  <i_qp_#amide>  (958) 
0

>  <i_qp_#amidine>  (958) 
0

>  <i_qp_#amine>  (958) 
1

>  <i_qp_#in34>  (958) 
0

>  <i_qp_#in56>  (958) 
22

>  <i_qp_#metab>  (958) 
6

>  <i_qp_#nonHatm>  (958) 
34

>  <i_qp_#noncon>  (958) 
0

>  <i_qp_#ringatoms>  (958) 
22

>  <i_qp_#rotor>  (958) 
8

>  <i_qp_#rtvFG>  (958) 
0

>  <i_qp_#stars>  (958) 
1

>  <i_qp_CNS>  (958) 
0

>  <i_qp_HumanOralAbsorption>  (958) 
1

>  <i_qp_RuleOfFive>  (958) 
0

>  <i_qp_RuleOfThree>  (958) 
1

>  <i_sd_BIOSOLVEIT.INFINISEE\_RESULT\_RANK>  (958) 
2755

>  <i_sd_version>  (958) 
0

>  <b_lp_Chiralities_Consistent>  (958) 
1

>  <b_sd_chiral_flag>  (958) 
0

>  <canonical_id>  (958) 
ATP-HTVS-986AE7271DA8

>  <compound_code>  (958) 
70049

>  <title>  (958) 
rxn502b____EMOL18624763____EMOL7515103____EMOL36790511

>  <variant>  (958) 
70049-2

>  <source_file>  (958) 
运行/运行/ATP-VSW/ATP-VSW-DOCK_HTVS_1-001_lib/ATP-VSW-DOCK_HTVS_1-001_lib

>  <canonical_smiles>  (958) 
C[C@@H](C#N)N(c1ccccc1)c1cnc(NC(=O)c2ccc(C[NH+](C)C)cc2)c2ccccc12

>  <scaffold>  (958) 
O=C(Nc1ncc(Nc2ccccc2)c2ccccc12)c1ccccc1

>  <molecular_formula>  (958) 
C28H28N5O+

$$$$
ATP-HTVS-9898F3268698
     RDKit          3D

 59 61  0  0  0  0  0  0  0  0999 V2000
  198.0262  186.2847  158.9912 S   0  0  0  0  0  0  0  0  0  0  0  0
  196.8414  184.9674  158.9151 C   0  0  0  0  0  0  0  0  0  0  0  0
  197.0011  183.9051  157.9815 C   0  0  0  0  0  0  0  0  0  0  0  0
  196.0016  182.9111  157.8447 C   0  0  0  0  0  0  0  0  0  0  0  0
  194.8940  182.9014  158.7135 C   0  0  0  0  0  0  0  0  0  0  0  0
  194.7929  183.9113  159.6967 C   0  0  0  0  0  0  0  0  0  0  0  0
  195.7596  184.9293  159.8147 C   0  0  0  0  0  0  0  0  0  0  0  0
  196.0653  181.9763  156.6957 C   0  0  1  0  0  0  0  0  0  0  0  0
  197.2242  181.0723  156.7942 N   0  0  1  0  0  0  0  0  0  0  0  0
  197.8490  180.5617  155.5360 C   0  0  2  0  0  0  0  0  0  0  0  0
  197.9813  181.5875  154.4067 C   0  0  0  0  0  0  0  0  0  0  0  0
  199.2452  182.0725  153.9930 C   0  0  0  0  0  0  0  0  0  0  0  0
  199.3111  183.0380  152.9681 C   0  0  0  0  0  0  0  0  0  0  0  0
  198.1556  183.5300  152.3342 C   0  0  0  0  0  0  0  0  0  0  0  0
  196.9015  183.0301  152.7387 C   0  0  0  0  0  0  0  0  0  0  0  0
  196.8133  182.0407  153.7137 C   0  0  0  0  0  0  0  0  0  0  0  0
  198.1955  184.6577  151.3255 C   0  0  1  0  0  0  0  0  0  0  0  0
  197.2116  184.5971  150.2833 N   0  0  0  0  0  0  0  0  0  0  0  0
  197.4684  183.3934  149.5448 C   0  0  2  0  0  0  0  0  0  0  0  0
  197.3580  185.7787  149.4625 C   0  0  2  0  0  0  0  0  0  0  0  0
  197.1570  179.3018  155.0285 C   0  0  2  0  0  0  0  0  0  0  0  0
  197.5621  187.5648  157.7719 C   0  0  1  0  0  0  0  0  0  0  0  0
  197.9839  187.1426  156.3535 C   0  0  0  0  0  0  0  0  0  0  0  0
  197.3771  186.0438  155.7677 C   0  0  0  0  0  0  0  0  0  0  0  0
  197.8752  185.5310  154.6349 C   0  0  0  0  0  0  0  0  0  0  0  0
  198.9003  186.1769  153.9402 C   0  0  0  0  0  0  0  0  0  0  0  0
  199.3732  187.4093  154.3575 C   0  0  0  0  0  0  0  0  0  0  0  0
  198.9612  187.8874  155.6248 C   0  0  0  0  0  0  0  0  0  0  0  0
  197.9322  181.5528  157.3311 H   0  0  0  0  0  0  0  0  0  0  0  0
  197.8195  183.9298  157.2742 H   0  0  0  0  0  0  0  0  0  0  0  0
  194.1308  182.1574  158.5733 H   0  0  0  0  0  0  0  0  0  0  0  0
  193.9649  183.8580  160.4024 H   0  0  0  0  0  0  0  0  0  0  0  0
  195.6706  185.6724  160.5671 H   0  0  0  0  0  0  0  0  0  0  0  0
  195.1599  181.4324  156.5215 H   0  0  0  0  0  0  0  0  0  0  0  0
  196.1577  182.7315  155.9317 H   0  0  0  0  0  0  0  0  0  0  0  0
  198.8619  180.2684  155.8224 H   0  0  0  0  0  0  0  0  0  0  0  0
  200.1273  181.7364  154.4814 H   0  0  0  0  0  0  0  0  0  0  0  0
  200.2916  183.4612  152.7267 H   0  0  0  0  0  0  0  0  0  0  0  0
  195.9930  183.5240  152.4276 H   0  0  0  0  0  0  0  0  0  0  0  0
  195.8283  181.7492  154.0368 H   0  0  0  0  0  0  0  0  0  0  0  0
  197.8912  185.6109  151.7898 H   0  0  0  0  0  0  0  0  0  0  0  0
  199.2140  184.7920  150.9673 H   0  0  0  0  0  0  0  0  0  0  0  0
  196.7166  183.3024  148.7527 H   0  0  0  0  0  0  0  0  0  0  0  0
  197.3766  182.5120  150.1938 H   0  0  0  0  0  0  0  0  0  0  0  0
  198.4848  183.4061  149.1319 H   0  0  0  0  0  0  0  0  0  0  0  0
  196.6217  185.7434  148.6500 H   0  0  0  0  0  0  0  0  0  0  0  0
  198.3654  185.8404  149.0382 H   0  0  0  0  0  0  0  0  0  0  0  0
  197.1816  186.6991  150.0301 H   0  0  0  0  0  0  0  0  0  0  0  0
  197.6725  178.9164  154.1481 H   0  0  0  0  0  0  0  0  0  0  0  0
  196.1330  179.5221  154.7532 H   0  0  0  0  0  0  0  0  0  0  0  0
  197.1487  178.5188  155.7781 H   0  0  0  0  0  0  0  0  0  0  0  0
  196.4945  187.7406  157.7298 H   0  0  0  0  0  0  0  0  0  0  0  0
  198.0886  188.5073  157.9752 H   0  0  0  0  0  0  0  0  0  0  0  0
  196.5596  185.5350  156.2350 H   0  0  0  0  0  0  0  0  0  0  0  0
  197.4074  184.6242  154.3901 H   0  0  0  0  0  0  0  0  0  0  0  0
  199.4125  185.8186  153.0259 H   0  0  0  0  0  0  0  0  0  0  0  0
  200.0845  187.9546  153.7195 H   0  0  0  0  0  0  0  0  0  0  0  0
  199.4088  188.8253  156.0166 H   0  0  0  0  0  0  0  0  0  0  0  0
  196.9128  180.2572  157.3334 H   0  0  0  0  0  0  0  0  0  0  0  0
  1  2  1  0
  1 22  1  0
  2  3  2  0
  2  7  1  0
  3  4  1  0
  3 30  1  0
  4  5  2  0
  4  8  1  0
  5  6  1  0
  5 31  1  0
  6  7  2  0
  6 32  1  0
  7 33  1  0
  8  9  1  0
  8 34  1  6
  8 35  1  0
  9 10  1  0
  9 29  1  1
  9 59  1  0
 10 11  1  0
 10 21  1  0
 10 36  1  1
 11 12  1  0
 11 16  2  0
 12 13  2  0
 12 37  1  0
 13 14  1  0
 13 38  1  0
 14 15  2  0
 14 17  1  0
 15 16  1  0
 15 39  1  0
 16 40  1  0
 17 18  1  0
 17 41  1  1
 17 42  1  0
 18 19  1  0
 18 20  1  0
 19 43  1  6
 19 44  1  0
 19 45  1  0
 20 46  1  6
 20 47  1  0
 20 48  1  0
 21 49  1  6
 21 50  1  0
 21 51  1  0
 22 23  1  0
 22 52  1  6
 22 53  1  0
 23 24  2  0
 23 28  1  0
 24 25  1  0
 24 54  1  0
 25 26  2  0
 25 55  1  0
 26 27  1  0
 26 56  1  0
 27 28  2  0
 27 57  1  0
 28 58  1  0
M  CHG  1   9   1
M  END
>  <s_epik_cmdline>  (959) 
J2VwaWtfcHl0aG9uJywgJy1waCcsICc3LjAwMDAwMCcsICctcGh0JywgJzIuMDAwMDAwJywgJy1tcycsICcxNicsICctdG4nLCAnOCcsICctbWEnLCAnMjAwJywgJy1pbWFlJywgJzxpbmZpbGUubWFlPicsICctb21hZScsICc8b3V0ZmlsZS5tYWU+Jw==

>  <s_epik_input>  (959) 
W2NIXTFbY0hdW2NIXVtjSF1bY0hdYzFbQ0gyXVNjMltjSF1jKFtjSF1bY0hdW2NIXTIpW0NIMl1bTkhdW0NAQEhdKFtDSDNdKWMzW2NIXVtjSF1jKFtjSF1bY0hdMylbQ0gyXU4oW0NIM10pW0NIM10=

>  <s_i_glide_gridfile>  (959) 
ATP-Grid

>  <s_lp_Force_Field>  (959) 
OPLS_2005

>  <s_lp_Variant>  (959) 
m_2230bbb____22404674____10176856-6

>  <s_lp_label>  (959) 
1917_sdstereoexpander_2_neutralizer_1_epik_3_stereoizer_1

>  <s_m_source_file>  (959) 
ATP-VSW-LIGPREP-001-in.maegz

>  <s_sd_BIOSOLVEIT.INFINISEE\_QUERY\_NAME>  (959) 
Ref-Lig

>  <s_sd_BIOSOLVEIT.INFINISEE\_QUERY\_SMILES>  (959) 
S(c1nc2c(cc1C[NH2+]Cc3ccc(cc3)C[NH+](C)C)cccc2)Cc4ccccc4

>  <s_sd_BIOSOLVEIT.INFINISEE\_REACTION\_NAME>  (959) 
m_2230bbb

>  <s_sd_BIOSOLVEIT.INFINISEE\_REAGENT1\_SMILES>  (959) 
[R1*]NC(c1ccc(cc1)CN(C)C)C

>  <s_sd_BIOSOLVEIT.INFINISEE\_REAGENT2\_SMILES>  (959) 
[R1*]Cc1cc(SCc2ccccc2)ccc1

>  <s_sd_BIOSOLVEIT.INFINISEE\_SPACE>  (959) 
REALSpace_44bn_2023-08

>  <s_vsw_compound_code>  (959) 
61313

>  <s_vsw_variant>  (959) 
61313-6

>  <r_epik_Charging_Adjusted_Penalty>  (959) 
1.6007284468982701

>  <r_epik_Ionization_Penalty>  (959) 
1.5177

>  <r_epik_Ionization_Penalty_Charging>  (959) 
0.062100000000000002

>  <r_epik_Ionization_Penalty_Neutral>  (959) 
1.4556

>  <r_epik_State_Penalty>  (959) 
1.5387

>  <r_i_docking_score>  (959) 
-2.98447795196858

>  <r_i_glide_ecoul>  (959) 
-8.6027412414550799

>  <r_i_glide_eff_state_penalty>  (959) 
1.5387

>  <r_i_glide_einternal>  (959) 
5.5455670356750497

>  <r_i_glide_emodel>  (959) 
-53.5920836300579

>  <r_i_glide_energy>  (959) 
-39.626810073852504

>  <r_i_glide_erotb>  (959) 
1.0181584773539001

>  <r_i_glide_esite>  (959) 
-0.10000000000000001

>  <r_i_glide_evdw>  (959) 
-31.0240688323975

>  <r_i_glide_gscore>  (959) 
-4.52317795196858

>  <r_i_glide_hbond>  (959) 
-0.20000000000000001

>  <r_i_glide_ligand_efficiency>  (959) 
-0.10658849828459201

>  <r_i_glide_ligand_efficiency_ln>  (959) 
-0.688905139394696

>  <r_i_glide_ligand_efficiency_sa>  (959) 
-0.32366545806027402

>  <r_i_glide_lipo>  (959) 
-1.4355834378479799

>  <r_i_glide_metal>  (959) 
-0

>  <r_i_glide_rewards>  (959) 
-0.96413836363636196

>  <r_lp_Energy>  (959) 
13.863521

>  <r_qp_ACxDN^.5/SA>  (959) 
0.00611

>  <r_qp_CIQPlogS>  (959) 
-4.54

>  <r_qp_EA(eV)>  (959) 
0.32300000000000001

>  <r_qp_FISA>  (959) 
15.769

>  <r_qp_FOSA>  (959) 
304.36700000000002

>  <r_qp_IP(eV)>  (959) 
8.6470000000000002

>  <r_qp_Jm>  (959) 
0.052599932049464303

>  <r_qp_PISA>  (959) 
316.21699999999998

>  <r_qp_PSA>  (959) 
18.405000000000001

>  <r_qp_PercentHumanOralAbsorption>  (959) 
100

>  <r_qp_QPPCaco>  (959) 
436.68200000000002

>  <r_qp_QPPMDCK>  (959) 
311.51400000000001

>  <r_qp_QPlogBB>  (959) 
0.72499999999999998

>  <r_qp_QPlogHERG>  (959) 
-6.5780000000000003

>  <r_qp_QPlogKhsa>  (959) 
0.96299999999999997

>  <r_qp_QPlogKp>  (959) 
-3.9569999999999999

>  <r_qp_QPlogPC16>  (959) 
12.802

>  <r_qp_QPlogPo/w>  (959) 
4.9489999999999998

>  <r_qp_QPlogPoct>  (959) 
17.324000000000002

>  <r_qp_QPlogPw>  (959) 
6.9779999999999998

>  <r_qp_QPlogS>  (959) 
-2.9129999999999998

>  <r_qp_QPpolrz>  (959) 
42.331000000000003

>  <r_qp_SASA>  (959) 
654.66300000000001

>  <r_qp_SAamideO>  (959) 
0

>  <r_qp_SAfluorine>  (959) 
0

>  <r_qp_WPSA>  (959) 
18.311

>  <r_qp_accptHB>  (959) 
4

>  <r_qp_dip^2/V>  (959) 
0.00059949999999999999

>  <r_qp_dipole>  (959) 
0.876

>  <r_qp_donorHB>  (959) 
1

>  <r_qp_glob>  (959) 
0.87108439999999998

>  <r_qp_mol_MW>  (959) 
390.58499999999998

>  <r_qp_volume>  (959) 
1280.47

>  <r_sd_BIOSOLVEIT.INFINISEE\_FTREES\_SIMILARITY>  (959) 
0.90300000000000002

>  <r_sd_BIOSOLVEIT.LOGP>  (959) 
3.448

>  <r_sd_BIOSOLVEIT.MOLECULAR\_WEIGHT>  (959) 
392.60700000000003

>  <r_sd_BIOSOLVEIT.TPSA>  (959) 
21.050000000000001

>  <i_epik_Tot_Q>  (959) 
1

>  <i_epik_Tot_abs_Q>  (959) 
1

>  <i_f3d_flags>  (959) 
0

>  <i_i_glide_confnum>  (959) 
6

>  <i_i_glide_lignum>  (959) 
577

>  <i_i_glide_posenum>  (959) 
17

>  <i_i_glide_rotatable_bonds>  (959) 
9

>  <i_lp_mmshare_version>  (959) 
65135

>  <i_m_ct_format>  (959) 
2

>  <i_m_source_file_index>  (959) 
1917

>  <i_qp_#NandO>  (959) 
2

>  <i_qp_#acid>  (959) 
0

>  <i_qp_#amide>  (959) 
0

>  <i_qp_#amidine>  (959) 
0

>  <i_qp_#amine>  (959) 
2

>  <i_qp_#in34>  (959) 
0

>  <i_qp_#in56>  (959) 
18

>  <i_qp_#metab>  (959) 
6

>  <i_qp_#nonHatm>  (959) 
28

>  <i_qp_#noncon>  (959) 
0

>  <i_qp_#ringatoms>  (959) 
18

>  <i_qp_#rotor>  (959) 
9

>  <i_qp_#rtvFG>  (959) 
0

>  <i_qp_#stars>  (959) 
1

>  <i_qp_CNS>  (959) 
2

>  <i_qp_HumanOralAbsorption>  (959) 
3

>  <i_qp_RuleOfFive>  (959) 
0

>  <i_qp_RuleOfThree>  (959) 
0

>  <i_sd_BIOSOLVEIT.INFINISEE\_REAGENT1\_NAME>  (959) 
22404674

>  <i_sd_BIOSOLVEIT.INFINISEE\_REAGENT2\_NAME>  (959) 
10176856

>  <i_sd_BIOSOLVEIT.INFINISEE\_RESULT\_RANK>  (959) 
85454

>  <i_sd_version>  (959) 
0

>  <b_lp_Chiralities_Consistent>  (959) 
1

>  <b_sd_chiral_flag>  (959) 
0

>  <canonical_id>  (959) 
ATP-HTVS-9898F3268698

>  <compound_code>  (959) 
61313

>  <title>  (959) 
m_2230bbb____22404674____10176856

>  <variant>  (959) 
61313-6

>  <source_file>  (959) 
运行/运行/ATP-VSW/ATP-VSW-DOCK_HTVS_1-001_lib/ATP-VSW-DOCK_HTVS_1-001_lib

>  <canonical_smiles>  (959) 
C[C@H]([NH2+]Cc1cccc(SCc2ccccc2)c1)c1ccc(CN(C)C)cc1

>  <scaffold>  (959) 
c1ccc(C[NH2+]Cc2cccc(SCc3ccccc3)c2)cc1

>  <molecular_formula>  (959) 
C25H31N2S+

$$$$
ATP-HTVS-98A0502BF743
     RDKit          3D

 63 65  0  0  0  0  0  0  0  0999 V2000
  198.5971  179.9822  155.1728 O   0  0  0  0  0  0  0  0  0  0  0  0
  197.9842  180.8836  154.3343 C   0  0  0  0  0  0  0  0  0  0  0  0
  197.4880  182.0808  154.8909 C   0  0  0  0  0  0  0  0  0  0  0  0
  196.9327  183.0509  154.0359 C   0  0  0  0  0  0  0  0  0  0  0  0
  196.8668  182.7808  152.6576 C   0  0  0  0  0  0  0  0  0  0  0  0
  197.3329  181.6416  152.1104 N   0  0  0  0  0  0  0  0  0  0  0  0
  197.8893  180.7269  152.9286 C   0  0  0  0  0  0  0  0  0  0  0  0
  197.5250  182.3235  156.3880 C   0  0  1  0  0  0  0  0  0  0  0  0
  196.2327  181.9490  157.0113 N   0  0  1  0  0  0  0  0  0  0  0  0
  196.1544  182.2229  158.4611 C   0  0  1  0  0  0  0  0  0  0  0  0
  196.3681  183.7019  158.7829 C   0  0  0  0  0  0  0  0  0  0  0  0
  195.3439  184.6474  158.5766 C   0  0  0  0  0  0  0  0  0  0  0  0
  195.5733  186.0036  158.8719 C   0  0  0  0  0  0  0  0  0  0  0  0
  196.8120  186.4558  159.3598 C   0  0  0  0  0  0  0  0  0  0  0  0
  196.9180  187.8190  159.5524 O   0  0  0  0  0  0  0  0  0  0  0  0
  198.0743  188.3702  160.1644 C   0  0  1  0  0  0  0  0  0  0  0  0
  198.4559  189.6990  159.5040 C   0  0  1  0  0  0  0  0  0  0  0  0
  199.6694  190.2794  160.1093 N   0  0  2  0  0  0  0  0  0  0  0  0
  199.8091  191.7157  159.8155 C   0  0  2  0  0  0  0  0  0  0  0  0
  200.9247  189.5486  159.8103 C   0  0  2  0  0  0  0  0  0  0  0  0
  197.8368  185.4995  159.5724 C   0  0  0  0  0  0  0  0  0  0  0  0
  197.6128  184.1410  159.2877 C   0  0  0  0  0  0  0  0  0  0  0  0
  194.8294  181.7179  159.0363 C   0  0  2  0  0  0  0  0  0  0  0  0
  198.4407  178.5970  154.8989 C   0  0  1  0  0  0  0  0  0  0  0  0
  199.5431  177.7783  155.5333 C   0  0  0  0  0  0  0  0  0  0  0  0
  199.9874  178.0783  156.8339 C   0  0  0  0  0  0  0  0  0  0  0  0
  200.9951  177.2964  157.4297 C   0  0  0  0  0  0  0  0  0  0  0  0
  201.5519  176.2123  156.7225 C   0  0  0  0  0  0  0  0  0  0  0  0
  201.1031  175.9028  155.4267 C   0  0  0  0  0  0  0  0  0  0  0  0
  200.0945  176.6862  154.8342 C   0  0  0  0  0  0  0  0  0  0  0  0
  195.4745  182.4333  156.5410 H   0  0  0  0  0  0  0  0  0  0  0  0
  196.5206  183.9757  154.4183 H   0  0  0  0  0  0  0  0  0  0  0  0
  196.4116  183.4898  151.9813 H   0  0  0  0  0  0  0  0  0  0  0  0
  198.3085  179.8740  152.4217 H   0  0  0  0  0  0  0  0  0  0  0  0
  198.3348  181.7653  156.8636 H   0  0  0  0  0  0  0  0  0  0  0  0
  197.7674  183.3786  156.5329 H   0  0  0  0  0  0  0  0  0  0  0  0
  196.9598  181.6575  158.9316 H   0  0  0  0  0  0  0  0  0  0  0  0
  194.3778  184.3561  158.1763 H   0  0  0  0  0  0  0  0  0  0  0  0
  194.7867  186.7231  158.6994 H   0  0  0  0  0  0  0  0  0  0  0  0
  197.8580  188.5456  161.2156 H   0  0  0  0  0  0  0  0  0  0  0  0
  198.9265  187.7239  160.0754 H   0  0  0  0  0  0  0  0  0  0  0  0
  198.6089  189.5565  158.4339 H   0  0  0  0  0  0  0  0  0  0  0  0
  197.6123  190.3892  159.5899 H   0  0  0  0  0  0  0  0  0  0  0  0
  199.9167  191.8860  158.7366 H   0  0  0  0  0  0  0  0  0  0  0  0
  200.6872  192.1467  160.3050 H   0  0  0  0  0  0  0  0  0  0  0  0
  198.9333  192.2774  160.1502 H   0  0  0  0  0  0  0  0  0  0  0  0
  201.1276  189.5311  158.7350 H   0  0  0  0  0  0  0  0  0  0  0  0
  200.9206  188.5187  160.1622 H   0  0  0  0  0  0  0  0  0  0  0  0
  201.7806  190.0125  160.3055 H   0  0  0  0  0  0  0  0  0  0  0  0
  198.8128  185.7591  159.9364 H   0  0  0  0  0  0  0  0  0  0  0  0
  198.4082  183.4260  159.4441 H   0  0  0  0  0  0  0  0  0  0  0  0
  194.7897  181.9335  160.0950 H   0  0  0  0  0  0  0  0  0  0  0  0
  194.7318  180.6392  158.9467 H   0  0  0  0  0  0  0  0  0  0  0  0
  193.9616  182.1781  158.5650 H   0  0  0  0  0  0  0  0  0  0  0  0
  197.4915  178.2850  155.3344 H   0  0  0  0  0  0  0  0  0  0  0  0
  198.4276  178.3519  153.8413 H   0  0  0  0  0  0  0  0  0  0  0  0
  199.5368  178.8887  157.3887 H   0  0  0  0  0  0  0  0  0  0  0  0
  201.3336  177.5266  158.4287 H   0  0  0  0  0  0  0  0  0  0  0  0
  202.3323  175.6182  157.1743 H   0  0  0  0  0  0  0  0  0  0  0  0
  201.5247  175.0670  154.8875 H   0  0  0  0  0  0  0  0  0  0  0  0
  199.7366  176.4348  153.8467 H   0  0  0  0  0  0  0  0  0  0  0  0
  199.5486  190.1789  161.1427 H   0  0  0  0  0  0  0  0  0  0  0  0
  196.0844  180.9494  156.8981 H   0  0  0  0  0  0  0  0  0  0  0  0
  1  2  1  0
  1 24  1  0
  2  3  1  0
  2  7  2  0
  3  4  2  0
  3  8  1  0
  4  5  1  0
  4 32  1  0
  5  6  2  0
  5 33  1  0
  6  7  1  0
  7 34  1  0
  8  9  1  0
  8 35  1  1
  8 36  1  0
  9 10  1  0
  9 31  1  6
  9 63  1  0
 10 11  1  0
 10 23  1  0
 10 37  1  1
 11 12  1  0
 11 22  2  0
 12 13  2  0
 12 38  1  0
 13 14  1  0
 13 39  1  0
 14 15  1  0
 14 21  2  0
 15 16  1  0
 16 17  1  0
 16 40  1  1
 16 41  1  0
 17 18  1  0
 17 42  1  6
 17 43  1  0
 18 19  1  0
 18 20  1  0
 18 62  1  1
 19 44  1  6
 19 45  1  0
 19 46  1  0
 20 47  1  6
 20 48  1  0
 20 49  1  0
 21 22  1  0
 21 50  1  0
 22 51  1  0
 23 52  1  1
 23 53  1  0
 23 54  1  0
 24 25  1  0
 24 55  1  1
 24 56  1  0
 25 26  2  0
 25 30  1  0
 26 27  1  0
 26 57  1  0
 27 28  2  0
 27 58  1  0
 28 29  1  0
 28 59  1  0
 29 30  2  0
 29 60  1  0
 30 61  1  0
M  CHG  2   9   1  18   1
M  END
>  <s_epik_cmdline>  (960) 
J2VwaWtfcHl0aG9uJywgJy1waCcsICc3LjAwMDAwMCcsICctcGh0JywgJzIuMDAwMDAwJywgJy1tcycsICcxNicsICctdG4nLCAnOCcsICctbWEnLCAnMjAwJywgJy1pbWFlJywgJzxpbmZpbGUubWFlPicsICctb21hZScsICc8b3V0ZmlsZS5tYWU+Jw==

>  <s_epik_input>  (960) 
W2NIXTFbY0hdW2NIXVtjSF1bY0hdYzFbQ0gyXU9jMmMoW2NIXVtjSF1uW2NIXTIpW0NIMl1bTkhdW0NASF0oW0NIM10pYzNbY0hdW2NIXWMoW2NIXVtjSF0zKU9bQ0gyXVtDSDJdTihbQ0gzXSlbQ0gzXQ==

>  <s_i_glide_gridfile>  (960) 
ATP-Grid

>  <s_lp_Force_Field>  (960) 
OPLS_2005

>  <s_lp_Variant>  (960) 
m_269862bba____10120112____7201160-1

>  <s_lp_label>  (960) 
1884_sdstereoexpander_1_neutralizer_1_epik_1_stereoizer_1

>  <s_m_source_file>  (960) 
ATP-VSW-LIGPREP-001-in.maegz

>  <s_sd_BIOSOLVEIT.INFINISEE\_QUERY\_NAME>  (960) 
Ref-Lig

>  <s_sd_BIOSOLVEIT.INFINISEE\_QUERY\_SMILES>  (960) 
S(c1nc2c(cc1C[NH2+]Cc3ccc(cc3)C[NH+](C)C)cccc2)Cc4ccccc4

>  <s_sd_BIOSOLVEIT.INFINISEE\_REACTION\_NAME>  (960) 
m_269862bba

>  <s_sd_BIOSOLVEIT.INFINISEE\_REAGENT1\_SMILES>  (960) 
[R1*]NCc1c(OCc2ccccc2)cncc1

>  <s_sd_BIOSOLVEIT.INFINISEE\_REAGENT2\_SMILES>  (960) 
[R1*]C(c1ccc(OCCN(C)C)cc1)C

>  <s_sd_BIOSOLVEIT.INFINISEE\_SPACE>  (960) 
REALSpace_44bn_2023-08

>  <s_vsw_compound_code>  (960) 
60257

>  <s_vsw_variant>  (960) 
60257-1

>  <r_epik_Charging_Adjusted_Penalty>  (960) 
0.215557398710087

>  <r_epik_Ionization_Penalty>  (960) 
0.10589999999999999

>  <r_epik_Ionization_Penalty_Charging>  (960) 
0.1057

>  <r_epik_Ionization_Penalty_Neutral>  (960) 
0.00020000000000000001

>  <r_epik_State_Penalty>  (960) 
0.10979999999999999

>  <r_i_docking_score>  (960) 
-5.1629110779533596

>  <r_i_glide_ecoul>  (960) 
-14.126568794250501

>  <r_i_glide_eff_state_penalty>  (960) 
0.10979999999999999

>  <r_i_glide_einternal>  (960) 
4.9186282157897896

>  <r_i_glide_emodel>  (960) 
-63.608067216919402

>  <r_i_glide_energy>  (960) 
-42.295649528503397

>  <r_i_glide_erotb>  (960) 
1.1844299767637001

>  <r_i_glide_esite>  (960) 
-0.17735918614173399

>  <r_i_glide_evdw>  (960) 
-28.169080734252901

>  <r_i_glide_gscore>  (960) 
-5.2727110779533604

>  <r_i_glide_hbond>  (960) 
-0.52492789298831999

>  <r_i_glide_ligand_efficiency>  (960) 
-0.172097035931779

>  <r_i_glide_ligand_efficiency_ln>  (960) 
-1.17306965133282

>  <r_i_glide_ligand_efficiency_sa>  (960) 
-0.53474550361927298

>  <r_i_glide_lipo>  (960) 
-1.37206293791861

>  <r_i_glide_metal>  (960) 
-0

>  <r_i_glide_rewards>  (960) 
-0.85535168181818

>  <r_lp_Energy>  (960) 
26.066458000000001

>  <r_lp_tautomer_probability>  (960) 
1

>  <r_qp_ACxDN^.5/SA>  (960) 
0.0081484999999999995

>  <r_qp_CIQPlogS>  (960) 
-3.8399999999999999

>  <r_qp_EA(eV)>  (960) 
0.062

>  <r_qp_FISA>  (960) 
36.438000000000002

>  <r_qp_FOSA>  (960) 
341.75999999999999

>  <r_qp_IP(eV)>  (960) 
8.8680000000000003

>  <r_qp_Jm>  (960) 
0.00515692171276377

>  <r_qp_PISA>  (960) 
419.49900000000002

>  <r_qp_PSA>  (960) 
42.807000000000002

>  <r_qp_PercentHumanOralAbsorption>  (960) 
100

>  <r_qp_QPPCaco>  (960) 
278.07400000000001

>  <r_qp_QPPMDCK>  (960) 
151.81399999999999

>  <r_qp_QPlogBB>  (960) 
0.28599999999999998

>  <r_qp_QPlogHERG>  (960) 
-8.7309999999999999

>  <r_qp_QPlogKhsa>  (960) 
0.72399999999999998

>  <r_qp_QPlogKp>  (960) 
-3.782

>  <r_qp_QPlogPC16>  (960) 
15.119999999999999

>  <r_qp_QPlogPo/w>  (960) 
4.6859999999999999

>  <r_qp_QPlogPoct>  (960) 
20.428000000000001

>  <r_qp_QPlogPw>  (960) 
10.180999999999999

>  <r_qp_QPlogS>  (960) 
-4.1130000000000004

>  <r_qp_QPpolrz>  (960) 
47.899999999999999

>  <r_qp_SASA>  (960) 
797.697

>  <r_qp_SAamideO>  (960) 
0

>  <r_qp_SAfluorine>  (960) 
0

>  <r_qp_WPSA>  (960) 
0

>  <r_qp_accptHB>  (960) 
6.5

>  <r_qp_dip^2/V>  (960) 
0.0068954999999999997

>  <r_qp_dipole>  (960) 
3.137

>  <r_qp_donorHB>  (960) 
1

>  <r_qp_glob>  (960) 
0.76846380000000003

>  <r_qp_mol_MW>  (960) 
405.53899999999999

>  <r_qp_volume>  (960) 
1427.067

>  <r_sd_BIOSOLVEIT.INFINISEE\_FTREES\_SIMILARITY>  (960) 
0.90300000000000002

>  <r_sd_BIOSOLVEIT.LOGP>  (960) 
2.0085000000000002

>  <r_sd_BIOSOLVEIT.MOLECULAR\_WEIGHT>  (960) 
407.55500000000001

>  <r_sd_BIOSOLVEIT.TPSA>  (960) 
52.399999999999999

>  <i_epik_Tot_Q>  (960) 
2

>  <i_epik_Tot_abs_Q>  (960) 
2

>  <i_f3d_flags>  (960) 
0

>  <i_i_glide_confnum>  (960) 
14

>  <i_i_glide_lignum>  (960) 
558

>  <i_i_glide_posenum>  (960) 
2

>  <i_i_glide_rotatable_bonds>  (960) 
11

>  <i_lp_mmshare_version>  (960) 
65135

>  <i_m_ct_format>  (960) 
2

>  <i_m_source_file_index>  (960) 
1884

>  <i_qp_#NandO>  (960) 
5

>  <i_qp_#acid>  (960) 
0

>  <i_qp_#amide>  (960) 
0

>  <i_qp_#amidine>  (960) 
0

>  <i_qp_#amine>  (960) 
2

>  <i_qp_#in34>  (960) 
0

>  <i_qp_#in56>  (960) 
18

>  <i_qp_#metab>  (960) 
9

>  <i_qp_#nonHatm>  (960) 
30

>  <i_qp_#noncon>  (960) 
0

>  <i_qp_#ringatoms>  (960) 
18

>  <i_qp_#rotor>  (960) 
11

>  <i_qp_#rtvFG>  (960) 
0

>  <i_qp_#stars>  (960) 
1

>  <i_qp_CNS>  (960) 
1

>  <i_qp_HumanOralAbsorption>  (960) 
3

>  <i_qp_RuleOfFive>  (960) 
0

>  <i_qp_RuleOfThree>  (960) 
1

>  <i_sd_BIOSOLVEIT.INFINISEE\_REAGENT1\_NAME>  (960) 
10120112

>  <i_sd_BIOSOLVEIT.INFINISEE\_REAGENT2\_NAME>  (960) 
7201160

>  <i_sd_BIOSOLVEIT.INFINISEE\_RESULT\_RANK>  (960) 
83272

>  <i_sd_version>  (960) 
0

>  <b_lp_Chiralities_Consistent>  (960) 
1

>  <b_sd_chiral_flag>  (960) 
0

>  <canonical_id>  (960) 
ATP-HTVS-98A0502BF743

>  <compound_code>  (960) 
60257

>  <title>  (960) 
m_269862bba____10120112____7201160

>  <variant>  (960) 
60257-1

>  <source_file>  (960) 
运行/运行/ATP-VSW/ATP-VSW-DOCK_HTVS_1-001_lib/ATP-VSW-DOCK_HTVS_1-001_lib

>  <canonical_smiles>  (960) 
C[C@@H]([NH2+]Cc1ccncc1OCc1ccccc1)c1ccc(OCC[NH+](C)C)cc1

>  <scaffold>  (960) 
c1ccc(C[NH2+]Cc2ccncc2OCc2ccccc2)cc1

>  <molecular_formula>  (960) 
C25H33N3O2+2

$$$$
ATP-HTVS-98C6C787C9CA
     RDKit          3D

 56 59  0  0  0  0  0  0  0  0999 V2000
  197.2115  184.9642  155.5991 F   0  0  0  0  0  0  0  0  0  0  0  0
  197.8054  186.1904  155.6792 C   0  0  0  0  0  0  0  0  0  0  0  0
  198.4924  186.7455  154.5618 C   0  0  0  0  0  0  0  0  0  0  0  0
  199.0478  188.0449  154.6890 C   0  0  0  0  0  0  0  0  0  0  0  0
  198.8959  188.7697  155.8992 C   0  0  0  0  0  0  0  0  0  0  0  0
  199.4295  190.1222  156.0019 C   0  0  0  0  0  0  0  0  0  0  0  0
  199.8521  191.1964  156.0880 N   0  0  0  0  0  0  0  0  0  0  0  0
  198.2324  188.2074  157.0134 C   0  0  0  0  0  0  0  0  0  0  0  0
  197.6985  186.9122  156.8915 C   0  0  0  0  0  0  0  0  0  0  0  0
  198.6469  185.9587  153.2761 C   0  0  0  0  0  0  0  0  0  0  0  0
  199.6312  186.1040  152.5535 O   0  0  0  0  0  0  0  0  0  0  0  0
  197.6421  185.1044  152.9792 N   0  0  0  0  0  0  0  0  0  0  0  0
  197.7555  183.9447  152.1449 C   0  0  0  0  0  0  0  0  0  0  0  0
  197.6006  182.6335  152.6762 C   0  0  0  0  0  0  0  0  0  0  0  0
  197.3640  182.4089  154.0913 C   0  0  0  0  0  0  0  0  0  0  0  0
  197.1621  182.2462  155.2883 C   0  0  0  0  0  0  0  0  0  0  0  0
  196.9381  182.1948  156.7509 C   0  0  1  0  0  0  0  0  0  0  0  0
  195.5669  181.7366  156.9628 N   0  0  1  0  0  0  0  0  0  0  0  0
  195.0450  181.8348  158.3411 C   0  0  1  0  0  0  0  0  0  0  0  0
  195.3116  183.1768  159.0399 C   0  0  0  0  0  0  0  0  0  0  0  0
  194.2549  184.0259  159.4837 C   0  0  0  0  0  0  0  0  0  0  0  0
  194.5165  185.2486  160.1424 C   0  0  0  0  0  0  0  0  0  0  0  0
  193.4996  185.9749  160.6398 F   0  0  0  0  0  0  0  0  0  0  0  0
  195.8339  185.6631  160.3508 C   0  0  0  0  0  0  0  0  0  0  0  0
  196.8927  184.8302  159.9266 C   0  0  0  0  0  0  0  0  0  0  0  0
  196.6368  183.5758  159.3300 C   0  0  0  0  0  0  0  0  0  0  0  0
  193.5567  181.4299  158.3045 C   0  0  2  0  0  0  0  0  0  0  0  0
  197.6709  181.5147  151.8136 C   0  0  0  0  0  0  0  0  0  0  0  0
  197.8875  181.7482  150.4270 C   0  0  0  0  0  0  0  0  0  0  0  0
  198.0373  182.9970  149.9180 N   0  0  0  0  0  0  0  0  0  0  0  0
  197.9838  184.0615  150.7534 C   0  0  0  0  0  0  0  0  0  0  0  0
  197.9474  180.6281  149.5723 C   0  0  0  0  0  0  0  0  0  0  0  0
  197.8024  179.3137  150.0573 C   0  0  0  0  0  0  0  0  0  0  0  0
  197.5888  179.0882  151.4238 C   0  0  0  0  0  0  0  0  0  0  0  0
  197.5225  180.1818  152.2980 C   0  0  0  0  0  0  0  0  0  0  0  0
  194.9198  182.2678  156.3851 H   0  0  0  0  0  0  0  0  0  0  0  0
  199.5466  188.4999  153.8395 H   0  0  0  0  0  0  0  0  0  0  0  0
  198.1160  188.7562  157.9469 H   0  0  0  0  0  0  0  0  0  0  0  0
  197.1903  186.4616  157.7251 H   0  0  0  0  0  0  0  0  0  0  0  0
  196.8646  185.1061  153.6258 H   0  0  0  0  0  0  0  0  0  0  0  0
  197.6799  181.5726  157.2303 H   0  0  0  0  0  0  0  0  0  0  0  0
  197.0845  183.1809  157.1739 H   0  0  0  0  0  0  0  0  0  0  0  0
  195.5840  181.0627  158.9268 H   0  0  0  0  0  0  0  0  0  0  0  0
  193.2046  183.7833  159.3241 H   0  0  0  0  0  0  0  0  0  0  0  0
  196.0341  186.6228  160.8189 H   0  0  0  0  0  0  0  0  0  0  0  0
  197.9184  185.1627  160.0699 H   0  0  0  0  0  0  0  0  0  0  0  0
  197.4570  182.9477  159.0099 H   0  0  0  0  0  0  0  0  0  0  0  0
  193.1548  181.3515  159.3099 H   0  0  0  0  0  0  0  0  0  0  0  0
  193.3871  180.4510  157.8259 H   0  0  0  0  0  0  0  0  0  0  0  0
  192.9665  182.1478  157.7429 H   0  0  0  0  0  0  0  0  0  0  0  0
  198.0869  185.0403  150.2924 H   0  0  0  0  0  0  0  0  0  0  0  0
  198.1225  180.7954  148.5250 H   0  0  0  0  0  0  0  0  0  0  0  0
  197.8656  178.4783  149.3806 H   0  0  0  0  0  0  0  0  0  0  0  0
  197.4909  178.0820  151.8045 H   0  0  0  0  0  0  0  0  0  0  0  0
  197.3624  179.9596  153.3446 H   0  0  0  0  0  0  0  0  0  0  0  0
  195.4781  180.7602  156.6615 H   0  0  0  0  0  0  0  0  0  0  0  0
  1  2  1  0
  2  3  2  0
  2  9  1  0
  3  4  1  0
  3 10  1  0
  4  5  2  0
  4 37  1  0
  5  6  1  0
  5  8  1  0
  6  7  3  0
  8  9  2  0
  8 38  1  0
  9 39  1  0
 10 11  2  0
 10 12  1  0
 12 13  1  0
 12 40  1  0
 13 14  2  0
 13 31  1  0
 14 15  1  0
 14 28  1  0
 15 16  3  0
 16 17  1  0
 17 18  1  0
 17 41  1  1
 17 42  1  0
 18 19  1  0
 18 36  1  6
 18 56  1  0
 19 20  1  0
 19 27  1  0
 19 43  1  1
 20 21  1  0
 20 26  2  0
 21 22  2  0
 21 44  1  0
 22 23  1  0
 22 24  1  0
 24 25  2  0
 24 45  1  0
 25 26  1  0
 25 46  1  0
 26 47  1  0
 27 48  1  1
 27 49  1  0
 27 50  1  0
 28 29  1  0
 28 35  2  0
 29 30  1  0
 29 32  2  0
 30 31  2  0
 31 51  1  0
 32 33  1  0
 32 52  1  0
 33 34  2  0
 33 53  1  0
 34 35  1  0
 34 54  1  0
 35 55  1  0
M  CHG  1  18   1
M  END
>  <s_epik_cmdline>  (961) 
J2VwaWtfcHl0aG9uJywgJy1waCcsICc3LjAwMDAwMCcsICctcGh0JywgJzIuMDAwMDAwJywgJy1tcycsICcxNicsICctdG4nLCAnOCcsICctbWEnLCAnMjAwJywgJy1pbWFlJywgJzxpbmZpbGUubWFlPicsICctb21hZScsICc8b3V0ZmlsZS5tYWU+Jw==

>  <s_epik_input>  (961) 
TiNDYyhbY0hdW2NIXTEpW2NIXWMoYzFGKUMoPU8pW05IXWMoW2NIXW5jKGMyMylbY0hdW2NIXVtjSF1bY0hdMyljMkMjQ1tDSDJdW05IXVtDQEhdKFtDSDNdKWM0W2NIXWMoRilbY0hdW2NIXVtjSF00

>  <s_i_glide_gridfile>  (961) 
ATP-Grid

>  <s_lp_Force_Field>  (961) 
OPLS_2005

>  <s_lp_Variant>  (961) 
rxn503b____EMOL911925____EMOL30488121____EMOL317509042-3

>  <s_lp_label>  (961) 
3061_sdstereoexpander_1_neutralizer_1_epik_2_stereoizer_1

>  <s_m_source_file>  (961) 
ATP-VSW-LIGPREP-002-in.maegz

>  <s_sd_BIOSOLVEIT.INFINISEE\_QUERY\_NAME>  (961) 
Ref-Lig

>  <s_sd_BIOSOLVEIT.INFINISEE\_QUERY\_SMILES>  (961) 
S(c1nc2c(cc1C[NH2+]Cc3ccc(cc3)C[NH+](C)C)cccc2)Cc4ccccc4

>  <s_sd_BIOSOLVEIT.INFINISEE\_REACTION\_NAME>  (961) 
rxn503b

>  <s_sd_BIOSOLVEIT.INFINISEE\_REAGENT1\_NAME>  (961) 
EMOL911925

>  <s_sd_BIOSOLVEIT.INFINISEE\_REAGENT1\_SMILES>  (961) 
Fc1c(cc(C#N)cc1)C(=O)O

>  <s_sd_BIOSOLVEIT.INFINISEE\_REAGENT2\_NAME>  (961) 
EMOL30488121

>  <s_sd_BIOSOLVEIT.INFINISEE\_REAGENT2\_SMILES>  (961) 
Brc1c(N)cnc2c1cccc2

>  <s_sd_BIOSOLVEIT.INFINISEE\_REAGENT3\_NAME>  (961) 
EMOL317509042

>  <s_sd_BIOSOLVEIT.INFINISEE\_REAGENT3\_SMILES>  (961) 
Fc1cc(ccc1)C(NCC#C)C

>  <s_sd_BIOSOLVEIT.INFINISEE\_SPACE>  (961) 
eXplore_7tr_2022-12

>  <s_vsw_compound_code>  (961) 
97922

>  <s_vsw_variant>  (961) 
97922-3

>  <r_epik_Charging_Adjusted_Penalty>  (961) 
1.25515797441685

>  <r_epik_Ionization_Penalty>  (961) 
0.62839999999999996

>  <r_epik_Ionization_Penalty_Charging>  (961) 
0.62760000000000005

>  <r_epik_Ionization_Penalty_Neutral>  (961) 
0.00080000000000000004

>  <r_epik_State_Penalty>  (961) 
0.62760000000000005

>  <r_i_docking_score>  (961) 
-4.54109621763806

>  <r_i_glide_ecoul>  (961) 
-11.1764116287231

>  <r_i_glide_eff_state_penalty>  (961) 
0.62760000000000005

>  <r_i_glide_einternal>  (961) 
12.909971237182599

>  <r_i_glide_emodel>  (961) 
-62.234706814850597

>  <r_i_glide_energy>  (961) 
-46.834492683410602

>  <r_i_glide_erotb>  (961) 
0.646449634170433

>  <r_i_glide_esite>  (961) 
-0.123144787924933

>  <r_i_glide_evdw>  (961) 
-35.6580810546875

>  <r_i_glide_gscore>  (961) 
-5.1686962176380602

>  <r_i_glide_hbond>  (961) 
-0.311226283273215

>  <r_i_glide_ligand_efficiency>  (961) 
-0.12974560621823

>  <r_i_glide_ligand_efficiency_ln>  (961) 
-0.99687140397199503

>  <r_i_glide_ligand_efficiency_sa>  (961) 
-0.42440648089247701

>  <r_i_glide_lipo>  (961) 
-1.57194367261998

>  <r_i_glide_metal>  (961) 
-0

>  <r_i_glide_rewards>  (961) 
-0.34946531094751598

>  <r_lp_Energy>  (961) 
29.603660000000001

>  <r_qp_ACxDN^.5/SA>  (961) 
0.011909100000000001

>  <r_qp_CIQPlogS>  (961) 
-7.3070000000000004

>  <r_qp_EA(eV)>  (961) 
1.337

>  <r_qp_FISA>  (961) 
145.74799999999999

>  <r_qp_FOSA>  (961) 
126.855

>  <r_qp_IP(eV)>  (961) 
8.782

>  <r_qp_Jm>  (961) 
1.5867549024801e-05

>  <r_qp_PISA>  (961) 
445.904

>  <r_qp_PSA>  (961) 
84.385000000000005

>  <r_qp_PercentHumanOralAbsorption>  (961) 
89.034000000000006

>  <r_qp_QPPCaco>  (961) 
102.489

>  <r_qp_QPPMDCK>  (961) 
91.471000000000004

>  <r_qp_QPlogBB>  (961) 
-0.95199999999999996

>  <r_qp_QPlogHERG>  (961) 
-7.8079999999999998

>  <r_qp_QPlogKhsa>  (961) 
0.78500000000000003

>  <r_qp_QPlogKp>  (961) 
-3.9289999999999998

>  <r_qp_QPlogPC16>  (961) 
15.702999999999999

>  <r_qp_QPlogPo/w>  (961) 
4.4580000000000002

>  <r_qp_QPlogPoct>  (961) 
24.27

>  <r_qp_QPlogPw>  (961) 
13.186999999999999

>  <r_qp_QPlogS>  (961) 
-6.5389999999999997

>  <r_qp_QPpolrz>  (961) 
49.462000000000003

>  <r_qp_SASA>  (961) 
771.88300000000004

>  <r_qp_SAamideO>  (961) 
0

>  <r_qp_SAfluorine>  (961) 
53.375999999999998

>  <r_qp_WPSA>  (961) 
53.375999999999998

>  <r_qp_accptHB>  (961) 
6.5

>  <r_qp_dip^2/V>  (961) 
0.064893400000000004

>  <r_qp_dipole>  (961) 
9.5709999999999997

>  <r_qp_donorHB>  (961) 
2

>  <r_qp_glob>  (961) 
0.78843600000000003

>  <r_qp_mol_MW>  (961) 
466.48899999999998

>  <r_qp_volume>  (961) 
1411.6559999999999

>  <r_sd_BIOSOLVEIT.INFINISEE\_FTREES\_SIMILARITY>  (961) 
0.90200000000000002

>  <r_sd_BIOSOLVEIT.LOGP>  (961) 
4.3130800000000002

>  <r_sd_BIOSOLVEIT.MOLECULAR\_WEIGHT>  (961) 
467.49700000000001

>  <r_sd_BIOSOLVEIT.TPSA>  (961) 
82.390000000000001

>  <i_epik_Tot_Q>  (961) 
1

>  <i_epik_Tot_abs_Q>  (961) 
1

>  <i_f3d_flags>  (961) 
0

>  <i_i_glide_confnum>  (961) 
1

>  <i_i_glide_lignum>  (961) 
114

>  <i_i_glide_posenum>  (961) 
12

>  <i_i_glide_rotatable_bonds>  (961) 
8

>  <i_lp_mmshare_version>  (961) 
65135

>  <i_m_ct_format>  (961) 
2

>  <i_m_source_file_index>  (961) 
3061

>  <i_qp_#NandO>  (961) 
5

>  <i_qp_#acid>  (961) 
0

>  <i_qp_#amide>  (961) 
0

>  <i_qp_#amidine>  (961) 
0

>  <i_qp_#amine>  (961) 
1

>  <i_qp_#in34>  (961) 
0

>  <i_qp_#in56>  (961) 
22

>  <i_qp_#metab>  (961) 
5

>  <i_qp_#nonHatm>  (961) 
35

>  <i_qp_#noncon>  (961) 
0

>  <i_qp_#ringatoms>  (961) 
22

>  <i_qp_#rotor>  (961) 
8

>  <i_qp_#rtvFG>  (961) 
0

>  <i_qp_#stars>  (961) 
1

>  <i_qp_CNS>  (961) 
0

>  <i_qp_HumanOralAbsorption>  (961) 
1

>  <i_qp_RuleOfFive>  (961) 
0

>  <i_qp_RuleOfThree>  (961) 
1

>  <i_sd_BIOSOLVEIT.INFINISEE\_RESULT\_RANK>  (961) 
91923

>  <i_sd_version>  (961) 
0

>  <b_lp_Chiralities_Consistent>  (961) 
1

>  <b_sd_chiral_flag>  (961) 
0

>  <canonical_id>  (961) 
ATP-HTVS-98C6C787C9CA

>  <compound_code>  (961) 
97922

>  <title>  (961) 
rxn503b____EMOL911925____EMOL30488121____EMOL317509042

>  <variant>  (961) 
97922-3

>  <source_file>  (961) 
运行/运行/ATP-VSW/ATP-VSW-DOCK_HTVS_1-003_lib/ATP-VSW-DOCK_HTVS_1-003_lib.mae

>  <canonical_smiles>  (961) 
C[C@@H]([NH2+]CC#Cc1c(NC(=O)c2cc(C#N)ccc2F)cnc2ccccc12)c1cccc(F)c1

>  <scaffold>  (961) 
O=C(Nc1cnc2ccccc2c1C#CC[NH2+]Cc1ccccc1)c1ccccc1

>  <molecular_formula>  (961) 
C28H21F2N4O+

$$$$
ATP-HTVS-98E751432A52
     RDKit          3D

 54 56  0  0  0  0  0  0  0  0999 V2000
  193.1572  183.3289  158.9177 F   0  0  0  0  0  0  0  0  0  0  0  0
  194.5072  183.3685  158.8367 C   0  0  0  0  0  0  0  0  0  0  0  0
  195.2142  184.4273  159.4348 C   0  0  0  0  0  0  0  0  0  0  0  0
  196.5565  184.5504  159.3054 N   0  0  0  0  0  0  0  0  0  0  0  0
  197.2302  183.6246  158.5891 C   0  0  0  0  0  0  0  0  0  0  0  0
  196.6155  182.5111  157.9805 C   0  0  0  0  0  0  0  0  0  0  0  0
  197.3334  181.5495  157.2564 N   0  0  0  0  0  0  0  0  0  0  0  0
  198.4027  181.9755  156.3600 C   0  0  1  0  0  0  0  0  0  0  0  0
  198.9457  180.8641  155.4754 C   0  0  0  0  0  0  0  0  0  0  0  0
  199.1418  179.5734  156.0071 C   0  0  0  0  0  0  0  0  0  0  0  0
  199.6976  178.5420  155.2205 C   0  0  0  0  0  0  0  0  0  0  0  0
  200.0187  178.7978  153.8707 C   0  0  0  0  0  0  0  0  0  0  0  0
  199.7933  180.0755  153.3236 C   0  0  0  0  0  0  0  0  0  0  0  0
  199.2683  181.1099  154.1248 C   0  0  0  0  0  0  0  0  0  0  0  0
  199.9379  177.1622  155.8173 C   0  0  1  0  0  0  0  0  0  0  0  0
  201.1848  177.1075  156.6205 N   0  0  1  0  0  0  0  0  0  0  0  0
  201.0126  177.6317  157.9978 C   0  0  2  0  0  0  0  0  0  0  0  0
  201.7988  175.7601  156.6202 C   0  0  2  0  0  0  0  0  0  0  0  0
  195.2183  182.3766  158.1278 C   0  0  0  0  0  0  0  0  0  0  0  0
  194.3906  185.3445  160.1331 N   0  0  0  0  0  0  0  0  0  0  0  0
  194.7561  186.3543  160.9311 C   0  0  0  0  0  0  0  0  0  0  0  0
  195.9088  186.6624  161.2229 O   0  0  0  0  0  0  0  0  0  0  0  0
  193.6405  187.1026  161.4595 C   0  0  0  0  0  0  0  0  0  0  0  0
  192.7459  187.7978  161.9160 C   0  0  0  0  0  0  0  0  0  0  0  0
  191.7025  188.6437  162.4675 C   0  0  0  0  0  0  0  0  0  0  0  0
  190.6166  189.0458  161.6618 C   0  0  0  0  0  0  0  0  0  0  0  0
  189.5943  189.8454  162.2076 C   0  0  0  0  0  0  0  0  0  0  0  0
  189.6615  190.2484  163.5554 C   0  0  0  0  0  0  0  0  0  0  0  0
  190.7499  189.8557  164.3576 C   0  0  0  0  0  0  0  0  0  0  0  0
  191.7708  189.0526  163.8141 C   0  0  0  0  0  0  0  0  0  0  0  0
  198.2987  183.7727  158.5257 H   0  0  0  0  0  0  0  0  0  0  0  0
  196.8423  180.6841  157.0419 H   0  0  0  0  0  0  0  0  0  0  0  0
  198.0369  182.7820  155.7278 H   0  0  0  0  0  0  0  0  0  0  0  0
  199.2359  182.3810  156.9348 H   0  0  0  0  0  0  0  0  0  0  0  0
  198.8546  179.3877  157.0332 H   0  0  0  0  0  0  0  0  0  0  0  0
  200.4195  178.0173  153.2390 H   0  0  0  0  0  0  0  0  0  0  0  0
  200.0252  180.2598  152.2852 H   0  0  0  0  0  0  0  0  0  0  0  0
  199.1102  182.0885  153.6920 H   0  0  0  0  0  0  0  0  0  0  0  0
  199.0820  176.8523  156.4152 H   0  0  0  0  0  0  0  0  0  0  0  0
  199.9967  176.4527  154.9891 H   0  0  0  0  0  0  0  0  0  0  0  0
  200.2624  177.0621  158.5491 H   0  0  0  0  0  0  0  0  0  0  0  0
  200.7279  178.6808  158.0073 H   0  0  0  0  0  0  0  0  0  0  0  0
  201.9509  177.5817  158.5361 H   0  0  0  0  0  0  0  0  0  0  0  0
  201.1491  175.0397  157.1084 H   0  0  0  0  0  0  0  0  0  0  0  0
  202.7449  175.7639  157.1603 H   0  0  0  0  0  0  0  0  0  0  0  0
  202.0135  175.4091  155.6081 H   0  0  0  0  0  0  0  0  0  0  0  0
  194.6964  181.5554  157.6533 H   0  0  0  0  0  0  0  0  0  0  0  0
  193.3988  185.2255  159.9631 H   0  0  0  0  0  0  0  0  0  0  0  0
  190.5561  188.7409  160.6264 H   0  0  0  0  0  0  0  0  0  0  0  0
  188.7498  190.1437  161.6030 H   0  0  0  0  0  0  0  0  0  0  0  0
  188.8682  190.8530  163.9702 H   0  0  0  0  0  0  0  0  0  0  0  0
  190.8012  190.1614  165.3919 H   0  0  0  0  0  0  0  0  0  0  0  0
  192.6006  188.7502  164.4364 H   0  0  0  0  0  0  0  0  0  0  0  0
  201.8531  177.7118  156.1631 H   0  0  0  0  0  0  0  0  0  0  0  0
  1  2  1  0
  2  3  2  0
  2 19  1  0
  3  4  1  0
  3 20  1  0
  4  5  2  0
  5  6  1  0
  5 31  1  0
  6  7  1  0
  6 19  2  0
  7  8  1  0
  7 32  1  0
  8  9  1  0
  8 33  1  6
  8 34  1  0
  9 10  2  0
  9 14  1  0
 10 11  1  0
 10 35  1  0
 11 12  2  0
 11 15  1  0
 12 13  1  0
 12 36  1  0
 13 14  2  0
 13 37  1  0
 14 38  1  0
 15 16  1  0
 15 39  1  1
 15 40  1  0
 16 17  1  0
 16 18  1  0
 16 54  1  6
 17 41  1  1
 17 42  1  0
 17 43  1  0
 18 44  1  1
 18 45  1  0
 18 46  1  0
 19 47  1  0
 20 21  1  0
 20 48  1  0
 21 22  2  0
 21 23  1  0
 23 24  3  0
 24 25  1  0
 25 26  2  0
 25 30  1  0
 26 27  1  0
 26 49  1  0
 27 28  2  0
 27 50  1  0
 28 29  1  0
 28 51  1  0
 29 30  2  0
 29 52  1  0
 30 53  1  0
M  CHG  1  16   1
M  END
>  <s_epik_cmdline>  (962) 
J2VwaWtfcHl0aG9uJywgJy1waCcsICc3LjAwMDAwMCcsICctcGh0JywgJzIuMDAwMDAwJywgJy1tcycsICcxNicsICctdG4nLCAnOCcsICctbWEnLCAnMjAwJywgJy1pbWFlJywgJzxpbmZpbGUubWFlPicsICctb21hZScsICc8b3V0ZmlsZS5tYWU+Jw==

>  <s_epik_input>  (962) 
W2NIXTFbY0hdW2NIXVtjSF1bY0hdYzFDI0NDKD1PKVtOSF1jKGMyRiluW2NIXWMoW2NIXTIpW05IXVtDSDJdYzNbY0hdYyhbY0hdW2NIXVtjSF0zKVtDSDJdTihbQ0gzXSlbQ0gzXQ==

>  <s_i_glide_gridfile>  (962) 
ATP-Grid

>  <s_lp_Force_Field>  (962) 
OPLS_2005

>  <s_lp_Variant>  (962) 
rxn502a____EMOL530803____EMOL44820718____EMOL2873214-1

>  <s_lp_label>  (962) 
2821_sdstereoexpander_1_neutralizer_1_epik_1_stereoizer_1

>  <s_m_source_file>  (962) 
ATP-VSW-LIGPREP-002-in.maegz

>  <s_sd_BIOSOLVEIT.INFINISEE\_QUERY\_NAME>  (962) 
Ref-Lig

>  <s_sd_BIOSOLVEIT.INFINISEE\_QUERY\_SMILES>  (962) 
S(c1nc2c(cc1C[NH2+]Cc3ccc(cc3)C[NH+](C)C)cccc2)Cc4ccccc4

>  <s_sd_BIOSOLVEIT.INFINISEE\_REACTION\_NAME>  (962) 
rxn502a

>  <s_sd_BIOSOLVEIT.INFINISEE\_REAGENT1\_NAME>  (962) 
EMOL530803

>  <s_sd_BIOSOLVEIT.INFINISEE\_REAGENT1\_SMILES>  (962) 
O=C(O)C#Cc1ccccc1

>  <s_sd_BIOSOLVEIT.INFINISEE\_REAGENT2\_NAME>  (962) 
EMOL44820718

>  <s_sd_BIOSOLVEIT.INFINISEE\_REAGENT2\_SMILES>  (962) 
Ic1cnc(N)c(F)c1

>  <s_sd_BIOSOLVEIT.INFINISEE\_REAGENT3\_NAME>  (962) 
EMOL2873214

>  <s_sd_BIOSOLVEIT.INFINISEE\_REAGENT3\_SMILES>  (962) 
N(Cc1cc(ccc1)CN)(C)C

>  <s_sd_BIOSOLVEIT.INFINISEE\_SPACE>  (962) 
eXplore_7tr_2022-12

>  <s_vsw_compound_code>  (962) 
90242

>  <s_vsw_variant>  (962) 
90242-1

>  <r_epik_Charging_Adjusted_Penalty>  (962) 
0.088195370499548398

>  <r_epik_Ionization_Penalty>  (962) 
0.0441

>  <r_epik_Ionization_Penalty_Charging>  (962) 
0.0441

>  <r_epik_Ionization_Penalty_Neutral>  (962) 
0

>  <r_epik_State_Penalty>  (962) 
0.0441

>  <r_i_docking_score>  (962) 
-6.28735821177687

>  <r_i_glide_ecoul>  (962) 
-8.5576972961425799

>  <r_i_glide_eff_state_penalty>  (962) 
0.0441

>  <r_i_glide_einternal>  (962) 
3.0866422653198202

>  <r_i_glide_emodel>  (962) 
-74.958466193830404

>  <r_i_glide_energy>  (962) 
-51.509101867675803

>  <r_i_glide_erotb>  (962) 
0.84425855915255898

>  <r_i_glide_esite>  (962) 
-0.13655671684415799

>  <r_i_glide_evdw>  (962) 
-42.951404571533203

>  <r_i_glide_gscore>  (962) 
-6.3314582117768703

>  <r_i_glide_hbond>  (962) 
-0.13995600385006901

>  <r_i_glide_ligand_efficiency>  (962) 
-0.20957860705922901

>  <r_i_glide_ligand_efficiency_ln>  (962) 
-1.4285562919703401

>  <r_i_glide_ligand_efficiency_sa>  (962) 
-0.65120945966867005

>  <r_i_glide_lipo>  (962) 
-2.19588329579015

>  <r_i_glide_metal>  (962) 
-0

>  <r_i_glide_rewards>  (962) 
-1.272095931447

>  <r_lp_Energy>  (962) 
20.141065999999999

>  <r_lp_tautomer_probability>  (962) 
0.999999999999999

>  <r_qp_ACxDN^.5/SA>  (962) 
0.011607299999999999

>  <r_qp_CIQPlogS>  (962) 
-4.7839999999999998

>  <r_qp_EA(eV)>  (962) 
0.45600000000000002

>  <r_qp_FISA>  (962) 
100.98399999999999

>  <r_qp_FOSA>  (962) 
223.005

>  <r_qp_IP(eV)>  (962) 
8.3049999999999997

>  <r_qp_Jm>  (962) 
0.00038919620878071198

>  <r_qp_PISA>  (962) 
425.90100000000001

>  <r_qp_PSA>  (962) 
69.867000000000004

>  <r_qp_PercentHumanOralAbsorption>  (962) 
95.563000000000002

>  <r_qp_QPPCaco>  (962) 
272.375

>  <r_qp_QPPMDCK>  (962) 
228.09299999999999

>  <r_qp_QPlogBB>  (962) 
-0.60799999999999998

>  <r_qp_QPlogHERG>  (962) 
-8.3030000000000008

>  <r_qp_QPlogKhsa>  (962) 
0.64000000000000001

>  <r_qp_QPlogKp>  (962) 
-3.1749999999999998

>  <r_qp_QPlogPC16>  (962) 
15.098000000000001

>  <r_qp_QPlogPo/w>  (962) 
4.2750000000000004

>  <r_qp_QPlogPoct>  (962) 
22.600000000000001

>  <r_qp_QPlogPw>  (962) 
12.791

>  <r_qp_QPlogS>  (962) 
-5.8399999999999999

>  <r_qp_QPpolrz>  (962) 
47.463000000000001

>  <r_qp_SASA>  (962) 
791.94899999999996

>  <r_qp_SAamideO>  (962) 
0

>  <r_qp_SAfluorine>  (962) 
42.058999999999997

>  <r_qp_WPSA>  (962) 
42.058999999999997

>  <r_qp_accptHB>  (962) 
6.5

>  <r_qp_dip^2/V>  (962) 
0.031214499999999999

>  <r_qp_dipole>  (962) 
6.5309999999999997

>  <r_qp_donorHB>  (962) 
2

>  <r_qp_glob>  (962) 
0.75197789999999998

>  <r_qp_mol_MW>  (962) 
402.47000000000003

>  <r_qp_volume>  (962) 
1366.4870000000001

>  <r_sd_BIOSOLVEIT.INFINISEE\_FTREES\_SIMILARITY>  (962) 
0.90600000000000003

>  <r_sd_BIOSOLVEIT.LOGP>  (962) 
2.4674999999999998

>  <r_sd_BIOSOLVEIT.MOLECULAR\_WEIGHT>  (962) 
403.47899999999998

>  <r_sd_BIOSOLVEIT.TPSA>  (962) 
58.460000000000001

>  <i_epik_Tot_Q>  (962) 
1

>  <i_epik_Tot_abs_Q>  (962) 
1

>  <i_f3d_flags>  (962) 
0

>  <i_i_glide_confnum>  (962) 
3

>  <i_i_glide_lignum>  (962) 
1376

>  <i_i_glide_posenum>  (962) 
6

>  <i_i_glide_rotatable_bonds>  (962) 
9

>  <i_lp_mmshare_version>  (962) 
65135

>  <i_m_ct_format>  (962) 
2

>  <i_m_source_file_index>  (962) 
2821

>  <i_qp_#NandO>  (962) 
5

>  <i_qp_#acid>  (962) 
0

>  <i_qp_#amide>  (962) 
0

>  <i_qp_#amidine>  (962) 
0

>  <i_qp_#amine>  (962) 
1

>  <i_qp_#in34>  (962) 
0

>  <i_qp_#in56>  (962) 
18

>  <i_qp_#metab>  (962) 
6

>  <i_qp_#nonHatm>  (962) 
30

>  <i_qp_#noncon>  (962) 
0

>  <i_qp_#ringatoms>  (962) 
18

>  <i_qp_#rotor>  (962) 
8

>  <i_qp_#rtvFG>  (962) 
0

>  <i_qp_#stars>  (962) 
0

>  <i_qp_CNS>  (962) 
1

>  <i_qp_HumanOralAbsorption>  (962) 
3

>  <i_qp_RuleOfFive>  (962) 
0

>  <i_qp_RuleOfThree>  (962) 
1

>  <i_sd_BIOSOLVEIT.INFINISEE\_RESULT\_RANK>  (962) 
65685

>  <i_sd_version>  (962) 
0

>  <b_lp_Chiralities_Consistent>  (962) 
1

>  <b_sd_chiral_flag>  (962) 
0

>  <canonical_id>  (962) 
ATP-HTVS-98E751432A52

>  <compound_code>  (962) 
90242

>  <title>  (962) 
rxn502a____EMOL530803____EMOL44820718____EMOL2873214

>  <variant>  (962) 
90242-1

>  <source_file>  (962) 
运行/运行/ATP-VSW/ATP-VSW-DOCK_HTVS_1-002_lib.maegz

>  <canonical_smiles>  (962) 
C[NH+](C)Cc1cccc(CNc2cnc(NC(=O)C#Cc3ccccc3)c(F)c2)c1

>  <scaffold>  (962) 
O=C(C#Cc1ccccc1)Nc1ccc(NCc2ccccc2)cn1

>  <molecular_formula>  (962) 
C24H24FN4O+

$$$$
ATP-HTVS-98EFE7D538B2
     RDKit          3D

 55 57  0  0  0  0  0  0  0  0999 V2000
  199.1898  188.2000  158.3630 S   0  0  0  0  0  0  0  0  0  0  0  0
  199.2701  186.5563  157.7808 C   0  0  0  0  0  0  0  0  0  0  0  0
  200.1135  185.6464  158.5847 C   0  0  0  0  0  0  0  0  0  0  0  0
  201.3178  185.8805  158.6777 O   0  0  0  0  0  0  0  0  0  0  0  0
  199.5320  184.5720  159.1763 N   0  0  0  0  0  0  0  0  0  0  0  0
  198.1262  184.3290  159.1758 C   0  0  0  0  0  0  0  0  0  0  0  0
  197.2140  185.2583  159.7428 C   0  0  0  0  0  0  0  0  0  0  0  0
  195.8353  184.9583  159.7533 C   0  0  0  0  0  0  0  0  0  0  0  0
  194.9507  185.8540  160.3575 N   0  0  0  0  0  0  0  0  0  0  0  0
  195.3496  183.7632  159.1864 C   0  0  0  0  0  0  0  0  0  0  0  0
  196.2653  182.8509  158.6253 C   0  0  0  0  0  0  0  0  0  0  0  0
  197.6494  183.1295  158.6136 C   0  0  0  0  0  0  0  0  0  0  0  0
  200.3977  183.5556  159.7724 C   0  0  2  0  0  0  0  0  0  0  0  0
  198.5164  186.3823  156.6429 C   0  0  0  0  0  0  0  0  0  0  0  0
  198.4033  185.1791  155.9145 N   0  0  0  0  0  0  0  0  0  0  0  0
  197.4465  184.9812  154.8373 C   0  0  1  0  0  0  0  0  0  0  0  0
  197.4844  183.5858  154.2380 C   0  0  0  0  0  0  0  0  0  0  0  0
  197.1079  182.4712  155.0095 C   0  0  0  0  0  0  0  0  0  0  0  0
  197.1536  181.1671  154.4671 C   0  0  0  0  0  0  0  0  0  0  0  0
  197.5461  180.9873  153.1277 C   0  0  0  0  0  0  0  0  0  0  0  0
  197.9115  182.1014  152.3473 C   0  0  0  0  0  0  0  0  0  0  0  0
  197.8863  183.3979  152.9010 C   0  0  0  0  0  0  0  0  0  0  0  0
  196.8111  179.9660  155.3386 C   0  0  1  0  0  0  0  0  0  0  0  0
  197.9783  179.4393  156.0916 N   0  0  1  0  0  0  0  0  0  0  0  0
  198.9258  178.6521  155.2765 C   0  0  2  0  0  0  0  0  0  0  0  0
  198.6553  180.4156  156.9388 C   0  0  2  0  0  0  0  0  0  0  0  0
  197.8534  187.5836  156.2417 C   0  0  0  0  0  0  0  0  0  0  0  0
  198.1125  188.6421  157.0716 C   0  0  0  0  0  0  0  0  0  0  0  0
  197.5757  186.1789  160.1927 H   0  0  0  0  0  0  0  0  0  0  0  0
  193.9490  185.6838  160.3633 H   0  0  0  0  0  0  0  0  0  0  0  0
  195.2975  186.7077  160.7827 H   0  0  0  0  0  0  0  0  0  0  0  0
  194.2859  183.5406  159.1693 H   0  0  0  0  0  0  0  0  0  0  0  0
  195.8909  181.9399  158.1911 H   0  0  0  0  0  0  0  0  0  0  0  0
  198.3541  182.4717  158.1707 H   0  0  0  0  0  0  0  0  0  0  0  0
  199.8646  182.6550  160.0627 H   0  0  0  0  0  0  0  0  0  0  0  0
  200.8545  183.9550  160.6732 H   0  0  0  0  0  0  0  0  0  0  0  0
  201.1981  183.2394  159.1006 H   0  0  0  0  0  0  0  0  0  0  0  0
  198.9503  184.3819  156.2044 H   0  0  0  0  0  0  0  0  0  0  0  0
  196.4430  185.1697  155.2192 H   0  0  0  0  0  0  0  0  0  0  0  0
  197.6325  185.7160  154.0537 H   0  0  0  0  0  0  0  0  0  0  0  0
  196.7941  182.6233  156.0277 H   0  0  0  0  0  0  0  0  0  0  0  0
  197.5919  179.9934  152.7038 H   0  0  0  0  0  0  0  0  0  0  0  0
  198.2221  181.9623  151.3228 H   0  0  0  0  0  0  0  0  0  0  0  0
  198.1666  184.2502  152.2984 H   0  0  0  0  0  0  0  0  0  0  0  0
  196.0373  180.2743  156.0452 H   0  0  0  0  0  0  0  0  0  0  0  0
  196.3614  179.1797  154.7331 H   0  0  0  0  0  0  0  0  0  0  0  0
  199.3867  179.2729  154.5086 H   0  0  0  0  0  0  0  0  0  0  0  0
  198.4035  177.8338  154.7973 H   0  0  0  0  0  0  0  0  0  0  0  0
  199.7151  178.2301  155.9003 H   0  0  0  0  0  0  0  0  0  0  0  0
  199.0593  181.2367  156.3464 H   0  0  0  0  0  0  0  0  0  0  0  0
  199.5045  179.9681  157.4678 H   0  0  0  0  0  0  0  0  0  0  0  0
  197.9011  180.7562  157.6098 H   0  0  0  0  0  0  0  0  0  0  0  0
  197.2375  187.6399  155.3593 H   0  0  0  0  0  0  0  0  0  0  0  0
  197.7578  189.6599  156.9939 H   0  0  0  0  0  0  0  0  0  0  0  0
  197.5897  178.7794  156.7677 H   0  0  0  0  0  0  0  0  0  0  0  0
  1  2  1  0
  1 28  1  0
  2  3  1  0
  2 14  2  0
  3  4  2  0
  3  5  1  0
  5  6  1  0
  5 13  1  0
  6  7  1  0
  6 12  2  0
  7  8  2  0
  7 29  1  0
  8  9  1  0
  8 10  1  0
  9 30  1  0
  9 31  1  0
 10 11  2  0
 10 32  1  0
 11 12  1  0
 11 33  1  0
 12 34  1  0
 13 35  1  1
 13 36  1  0
 13 37  1  0
 14 15  1  0
 14 27  1  0
 15 16  1  0
 15 38  1  0
 16 17  1  0
 16 39  1  1
 16 40  1  0
 17 18  2  0
 17 22  1  0
 18 19  1  0
 18 41  1  0
 19 20  2  0
 19 23  1  0
 20 21  1  0
 20 42  1  0
 21 22  2  0
 21 43  1  0
 22 44  1  0
 23 24  1  0
 23 45  1  1
 23 46  1  0
 24 25  1  0
 24 26  1  0
 24 55  1  1
 25 47  1  6
 25 48  1  0
 25 49  1  0
 26 50  1  6
 26 51  1  0
 26 52  1  0
 27 28  2  0
 27 53  1  0
 28 54  1  0
M  CHG  1  24   1
M  END
>  <s_epik_cmdline>  (963) 
J2VwaWtfcHl0aG9uJywgJy1waCcsICc3LjAwMDAwMCcsICctcGh0JywgJzIuMDAwMDAwJywgJy1tcycsICcxNicsICctdG4nLCAnOCcsICctbWEnLCAnMjAwJywgJy1pbWFlJywgJzxpbmZpbGUubWFlPicsICctb21hZScsICc8b3V0ZmlsZS5tYWU+Jw==

>  <s_epik_input>  (963) 
W2NIXTFbY0hdW2NIXWMoW05IMl0pW2NIXWMxTihbQ0gzXSlDKD1PKWMyc1tjSF1bY0hdYzJbTkhdW0NIMl1jM1tjSF1jKFtjSF1bY0hdW2NIXTMpW0NIMl1OKFtDSDNdKVtDSDNd

>  <s_i_glide_gridfile>  (963) 
ATP-Grid

>  <s_lp_Force_Field>  (963) 
OPLS_2005

>  <s_lp_Variant>  (963) 
rxn512b____EMOL300138311____EMOL525138____EMOL2873214-1

>  <s_lp_label>  (963) 
2419_sdstereoexpander_1_neutralizer_1_epik_1_stereoizer_1

>  <s_m_source_file>  (963) 
ATP-VSW-LIGPREP-003-in.maegz

>  <s_sd_BIOSOLVEIT.INFINISEE\_QUERY\_NAME>  (963) 
Ref-Lig

>  <s_sd_BIOSOLVEIT.INFINISEE\_QUERY\_SMILES>  (963) 
S(c1nc2c(cc1C[NH2+]Cc3ccc(cc3)C[NH+](C)C)cccc2)Cc4ccccc4

>  <s_sd_BIOSOLVEIT.INFINISEE\_REACTION\_NAME>  (963) 
rxn512b

>  <s_sd_BIOSOLVEIT.INFINISEE\_REAGENT1\_NAME>  (963) 
EMOL300138311

>  <s_sd_BIOSOLVEIT.INFINISEE\_REAGENT1\_SMILES>  (963) 
N(c1cc(N)ccc1)C

>  <s_sd_BIOSOLVEIT.INFINISEE\_REAGENT2\_NAME>  (963) 
EMOL525138

>  <s_sd_BIOSOLVEIT.INFINISEE\_REAGENT2\_SMILES>  (963) 
BrC1=C(SC=C1)C(=O)O

>  <s_sd_BIOSOLVEIT.INFINISEE\_REAGENT3\_NAME>  (963) 
EMOL2873214

>  <s_sd_BIOSOLVEIT.INFINISEE\_REAGENT3\_SMILES>  (963) 
N(Cc1cc(ccc1)CN)(C)C

>  <s_sd_BIOSOLVEIT.INFINISEE\_SPACE>  (963) 
eXplore_7tr_2022-12

>  <s_vsw_compound_code>  (963) 
77379

>  <s_vsw_variant>  (963) 
77379-1

>  <r_epik_Charging_Adjusted_Penalty>  (963) 
0.086140609825027206

>  <r_epik_Ionization_Penalty>  (963) 
0.043700000000000003

>  <r_epik_Ionization_Penalty_Charging>  (963) 
0.043099999999999999

>  <r_epik_Ionization_Penalty_Neutral>  (963) 
0.00059999999999999995

>  <r_epik_State_Penalty>  (963) 
0.043099999999999999

>  <r_i_docking_score>  (963) 
-4.46443026285238

>  <r_i_glide_ecoul>  (963) 
-9.70367527008057

>  <r_i_glide_eff_state_penalty>  (963) 
0.043099999999999999

>  <r_i_glide_einternal>  (963) 
3.8829996585845898

>  <r_i_glide_emodel>  (963) 
-53.520056303844399

>  <r_i_glide_energy>  (963) 
-39.276774406433098

>  <r_i_glide_erotb>  (963) 
0.87496582302105297

>  <r_i_glide_esite>  (963) 
-0.10000000000000001

>  <r_i_glide_evdw>  (963) 
-29.5730991363525

>  <r_i_glide_gscore>  (963) 
-4.5075302628523799

>  <r_i_glide_hbond>  (963) 
-0.26542139855760899

>  <r_i_glide_ligand_efficiency>  (963) 
-0.15944393795901399

>  <r_i_glide_ligand_efficiency_ln>  (963) 
-1.0305215860346899

>  <r_i_glide_ligand_efficiency_sa>  (963) 
-0.484165703100989

>  <r_i_glide_lipo>  (963) 
-1.2202238380424799

>  <r_i_glide_metal>  (963) 
-0

>  <r_i_glide_rewards>  (963) 
-0.86264460194363701

>  <r_lp_Energy>  (963) 
40.305576000000002

>  <r_lp_tautomer_probability>  (963) 
0.99999274205267796

>  <r_qp_ACxDN^.5/SA>  (963) 
0.010043099999999999

>  <r_qp_CIQPlogS>  (963) 
-3.7389999999999999

>  <r_qp_EA(eV)>  (963) 
0.214

>  <r_qp_FISA>  (963) 
95.706999999999994

>  <r_qp_FOSA>  (963) 
282.52999999999997

>  <r_qp_IP(eV)>  (963) 
8.0340000000000007

>  <r_qp_Jm>  (963) 
0.000222068431327503

>  <r_qp_PISA>  (963) 
321.37299999999999

>  <r_qp_PSA>  (963) 
70.409999999999997

>  <r_qp_PercentHumanOralAbsorption>  (963) 
82.375

>  <r_qp_QPPCaco>  (963) 
76.227000000000004

>  <r_qp_QPPMDCK>  (963) 
56.177999999999997

>  <r_qp_QPlogBB>  (963) 
-0.058999999999999997

>  <r_qp_QPlogHERG>  (963) 
-7.8780000000000001

>  <r_qp_QPlogKhsa>  (963) 
0.64200000000000002

>  <r_qp_QPlogKp>  (963) 
-5.508

>  <r_qp_QPlogPC16>  (963) 
13.988

>  <r_qp_QPlogPo/w>  (963) 
3.714

>  <r_qp_QPlogPoct>  (963) 
20.492000000000001

>  <r_qp_QPlogPw>  (963) 
10.67

>  <r_qp_QPlogS>  (963) 
-3.7410000000000001

>  <r_qp_QPpolrz>  (963) 
44.302999999999997

>  <r_qp_SASA>  (963) 
731.69600000000003

>  <r_qp_SAamideO>  (963) 
0

>  <r_qp_SAfluorine>  (963) 
0

>  <r_qp_WPSA>  (963) 
32.085000000000001

>  <r_qp_accptHB>  (963) 
6

>  <r_qp_dip^2/V>  (963) 
0.035469899999999999

>  <r_qp_dipole>  (963) 
6.8230000000000004

>  <r_qp_donorHB>  (963) 
1.5

>  <r_qp_glob>  (963) 
0.79230029999999996

>  <r_qp_mol_MW>  (963) 
394.53399999999999

>  <r_qp_volume>  (963) 
1312.45

>  <r_sd_BIOSOLVEIT.INFINISEE\_FTREES\_SIMILARITY>  (963) 
0.91700000000000004

>  <r_sd_BIOSOLVEIT.LOGP>  (963) 
2.8635000000000002

>  <r_sd_BIOSOLVEIT.MOLECULAR\_WEIGHT>  (963) 
395.54700000000003

>  <r_sd_BIOSOLVEIT.TPSA>  (963) 
62.799999999999997

>  <i_epik_Tot_Q>  (963) 
1

>  <i_epik_Tot_abs_Q>  (963) 
1

>  <i_f3d_flags>  (963) 
0

>  <i_i_glide_confnum>  (963) 
5

>  <i_i_glide_lignum>  (963) 
1033

>  <i_i_glide_posenum>  (963) 
9

>  <i_i_glide_rotatable_bonds>  (963) 
8

>  <i_lp_mmshare_version>  (963) 
65135

>  <i_m_ct_format>  (963) 
2

>  <i_m_source_file_index>  (963) 
2419

>  <i_qp_#NandO>  (963) 
5

>  <i_qp_#acid>  (963) 
0

>  <i_qp_#amide>  (963) 
0

>  <i_qp_#amidine>  (963) 
0

>  <i_qp_#amine>  (963) 
2

>  <i_qp_#in34>  (963) 
0

>  <i_qp_#in56>  (963) 
17

>  <i_qp_#metab>  (963) 
8

>  <i_qp_#nonHatm>  (963) 
28

>  <i_qp_#noncon>  (963) 
0

>  <i_qp_#ringatoms>  (963) 
17

>  <i_qp_#rotor>  (963) 
8

>  <i_qp_#rtvFG>  (963) 
0

>  <i_qp_#stars>  (963) 
0

>  <i_qp_CNS>  (963) 
1

>  <i_qp_HumanOralAbsorption>  (963) 
2

>  <i_qp_RuleOfFive>  (963) 
0

>  <i_qp_RuleOfThree>  (963) 
1

>  <i_sd_BIOSOLVEIT.INFINISEE\_RESULT\_RANK>  (963) 
22319

>  <i_sd_version>  (963) 
0

>  <b_lp_Chiralities_Consistent>  (963) 
1

>  <b_sd_chiral_flag>  (963) 
0

>  <canonical_id>  (963) 
ATP-HTVS-98EFE7D538B2

>  <compound_code>  (963) 
77379

>  <title>  (963) 
rxn512b____EMOL300138311____EMOL525138____EMOL2873214

>  <variant>  (963) 
77379-1

>  <source_file>  (963) 
运行/运行/ATP-VSW/ATP-VSW-DOCK_HTVS_1-003_lib/ATP-VSW-DOCK_HTVS_1-003_lib.mae

>  <canonical_smiles>  (963) 
CN(C(=O)c1sccc1NCc1cccc(C[NH+](C)C)c1)c1cccc(N)c1

>  <scaffold>  (963) 
O=C(Nc1ccccc1)c1sccc1NCc1ccccc1

>  <molecular_formula>  (963) 
C22H27N4OS+

$$$$
ATP-HTVS-99217F2350A2
     RDKit          3D

 61 64  0  0  0  0  0  0  0  0999 V2000
  199.5432  184.5706  147.0845 Br  0  0  0  0  0  0  0  0  0  0  0  0
  198.6408  183.4967  148.3602 C   0  0  0  0  0  0  0  0  0  0  0  0
  198.7791  182.0968  148.2822 C   0  0  0  0  0  0  0  0  0  0  0  0
  198.1054  181.2407  149.1930 C   0  0  0  0  0  0  0  0  0  0  0  0
  197.2795  181.8324  150.1978 C   0  0  0  0  0  0  0  0  0  0  0  0
  196.5635  181.0577  151.1360 N   0  0  0  0  0  0  0  0  0  0  0  0
  197.0546  179.9775  151.7525 C   0  0  0  0  0  0  0  0  0  0  0  0
  196.3483  179.2999  152.4917 O   0  0  0  0  0  0  0  0  0  0  0  0
  198.5293  179.5737  151.5435 C   0  0  1  0  0  0  0  0  0  0  0  0
  198.8962  179.0249  150.1988 N   0  0  0  0  0  0  0  0  0  0  0  0
  198.1917  179.6983  149.0679 C   0  0  2  0  0  0  0  0  0  0  0  0
  198.7988  179.2880  147.7216 C   0  0  0  0  0  0  0  0  0  0  0  0
  197.9723  178.9761  146.6155 C   0  0  0  0  0  0  0  0  0  0  0  0
  198.5413  178.6356  145.3705 C   0  0  0  0  0  0  0  0  0  0  0  0
  199.9445  178.5938  145.2302 C   0  0  0  0  0  0  0  0  0  0  0  0
  200.7828  178.8816  146.3264 C   0  0  0  0  0  0  0  0  0  0  0  0
  200.2037  179.2250  147.5649 C   0  0  0  0  0  0  0  0  0  0  0  0
  198.7315  177.5562  150.1204 C   0  0  1  0  0  0  0  0  0  0  0  0
  199.8738  176.7360  150.7296 C   0  0  0  0  0  0  0  0  0  0  0  0
  200.1068  176.7355  152.1167 C   0  0  0  0  0  0  0  0  0  0  0  0
  201.1715  175.9853  152.6900 C   0  0  0  0  0  0  0  0  0  0  0  0
  201.4430  175.9758  154.0438 O   0  0  0  0  0  0  0  0  0  0  0  0
  200.5601  176.7312  154.8739 C   0  0  1  0  0  0  0  0  0  0  0  0
  201.0248  176.6905  156.3285 C   0  0  1  0  0  0  0  0  0  0  0  0
  200.1380  177.4217  157.2771 N   0  0  1  0  0  0  0  0  0  0  0  0
  200.6503  177.3384  158.6572 C   0  0  2  0  0  0  0  0  0  0  0  0
  199.8517  178.8314  156.9194 C   0  0  2  0  0  0  0  0  0  0  0  0
  201.9657  175.1899  151.8458 C   0  0  0  0  0  0  0  0  0  0  0  0
  201.7143  175.1282  150.4547 C   0  0  0  0  0  0  0  0  0  0  0  0
  200.6774  175.9258  149.9006 C   0  0  0  0  0  0  0  0  0  0  0  0
  197.1628  183.2400  150.2764 C   0  0  0  0  0  0  0  0  0  0  0  0
  197.8369  184.0642  149.3552 C   0  0  0  0  0  0  0  0  0  0  0  0
  199.3947  181.7378  147.4726 H   0  0  0  0  0  0  0  0  0  0  0  0
  195.6789  181.4183  151.4847 H   0  0  0  0  0  0  0  0  0  0  0  0
  199.1677  180.4566  151.7149 H   0  0  0  0  0  0  0  0  0  0  0  0
  198.7129  178.8989  152.3478 H   0  0  0  0  0  0  0  0  0  0  0  0
  197.1697  179.3374  149.0619 H   0  0  0  0  0  0  0  0  0  0  0  0
  196.8934  179.0238  146.7226 H   0  0  0  0  0  0  0  0  0  0  0  0
  197.9101  178.4074  144.5206 H   0  0  0  0  0  0  0  0  0  0  0  0
  200.3732  178.3221  144.2779 H   0  0  0  0  0  0  0  0  0  0  0  0
  201.8626  178.8563  146.2261 H   0  0  0  0  0  0  0  0  0  0  0  0
  200.8381  179.4685  148.4001 H   0  0  0  0  0  0  0  0  0  0  0  0
  197.7700  177.2801  150.5557 H   0  0  0  0  0  0  0  0  0  0  0  0
  198.6529  177.1864  149.1028 H   0  0  0  0  0  0  0  0  0  0  0  0
  199.4318  177.2743  152.7458 H   0  0  0  0  0  0  0  0  0  0  0  0
  200.5637  177.7647  154.5391 H   0  0  0  0  0  0  0  0  0  0  0  0
  199.5370  176.3517  154.8088 H   0  0  0  0  0  0  0  0  0  0  0  0
  201.0930  175.6430  156.6287 H   0  0  0  0  0  0  0  0  0  0  0  0
  202.0385  177.0966  156.3910 H   0  0  0  0  0  0  0  0  0  0  0  0
  201.6198  177.8328  158.7532 H   0  0  0  0  0  0  0  0  0  0  0  0
  200.7435  176.3021  158.9858 H   0  0  0  0  0  0  0  0  0  0  0  0
  199.9527  177.8316  159.3261 H   0  0  0  0  0  0  0  0  0  0  0  0
  200.7818  179.4023  156.8592 H   0  0  0  0  0  0  0  0  0  0  0  0
  199.1990  179.2929  157.6663 H   0  0  0  0  0  0  0  0  0  0  0  0
  199.3080  178.9182  155.9780 H   0  0  0  0  0  0  0  0  0  0  0  0
  202.7607  174.5797  152.2880 H   0  0  0  0  0  0  0  0  0  0  0  0
  202.2881  174.4687  149.8271 H   0  0  0  0  0  0  0  0  0  0  0  0
  200.4877  175.8563  148.8208 H   0  0  0  0  0  0  0  0  0  0  0  0
  196.5567  183.6799  151.0548 H   0  0  0  0  0  0  0  0  0  0  0  0
  197.7363  185.1411  149.4065 H   0  0  0  0  0  0  0  0  0  0  0  0
  199.2270  176.9775  157.3203 H   0  0  0  0  0  0  0  0  0  0  0  0
  1  2  1  0
  2  3  2  0
  2 32  1  0
  3  4  1  0
  3 33  1  0
  4  5  2  0
  4 11  1  0
  5  6  1  0
  5 31  1  0
  6  7  1  0
  6 34  1  0
  7  8  2  0
  7  9  1  0
  9 10  1  0
  9 35  1  1
  9 36  1  0
 10 11  1  0
 10 18  1  0
 11 12  1  0
 11 37  1  6
 12 13  2  0
 12 17  1  0
 13 14  1  0
 13 38  1  0
 14 15  2  0
 14 39  1  0
 15 16  1  0
 15 40  1  0
 16 17  2  0
 16 41  1  0
 17 42  1  0
 18 19  1  0
 18 43  1  1
 18 44  1  0
 19 20  1  0
 19 30  2  0
 20 21  2  0
 20 45  1  0
 21 22  1  0
 21 28  1  0
 22 23  1  0
 23 24  1  0
 23 46  1  6
 23 47  1  0
 24 25  1  0
 24 48  1  1
 24 49  1  0
 25 26  1  0
 25 27  1  0
 25 61  1  1
 26 50  1  6
 26 51  1  0
 26 52  1  0
 27 53  1  6
 27 54  1  0
 27 55  1  0
 28 29  2  0
 28 56  1  0
 29 30  1  0
 29 57  1  0
 30 58  1  0
 31 32  2  0
 31 59  1  0
 32 60  1  0
M  CHG  1  25   1
M  END
>  <s_epik_cmdline>  (964) 
J2VwaWtfcHl0aG9uJywgJy1waCcsICc3LjAwMDAwMCcsICctcGh0JywgJzIuMDAwMDAwJywgJy1tcycsICcxNicsICctdG4nLCAnOCcsICctbWEnLCAnMjAwJywgJy1pbWFlJywgJzxpbmZpbGUubWFlPicsICctb21hZScsICc8b3V0ZmlsZS5tYWU+Jw==

>  <s_epik_input>  (964) 
QnJjKFtjSF0xKVtjSF1bY0hdYyhjMTIpW05IXUMoPU8pW0NIMl1OKFtDQEBIXTJjM1tjSF1bY0hdW2NIXVtjSF1bY0hdMylbQ0gyXWM0W2NIXWMoW2NIXVtjSF1bY0hdNClPW0NIMl1bQ0gyXU4oW0NIM10pW0NIM10=

>  <s_i_glide_gridfile>  (964) 
ATP-Grid

>  <s_lp_Force_Field>  (964) 
OPLS_2005

>  <s_lp_Variant>  (964) 
m_270004bda____24170772____24720380-1

>  <s_lp_label>  (964) 
864_sdstereoexpander_1_neutralizer_1_epik_1_stereoizer_1

>  <s_m_source_file>  (964) 
ATP-VSW-LIGPREP-002-in.maegz

>  <s_sd_BIOSOLVEIT.INFINISEE\_QUERY\_NAME>  (964) 
Ref-Lig

>  <s_sd_BIOSOLVEIT.INFINISEE\_QUERY\_SMILES>  (964) 
S(c1nc2c(cc1C[NH2+]Cc3ccc(cc3)C[NH+](C)C)cccc2)Cc4ccccc4

>  <s_sd_BIOSOLVEIT.INFINISEE\_REACTION\_NAME>  (964) 
m_270004bda

>  <s_sd_BIOSOLVEIT.INFINISEE\_REAGENT1\_SMILES>  (964) 
[R1*]N1C(c2c(NC(=O)C1)ccc(Br)c2)c3ccccc3

>  <s_sd_BIOSOLVEIT.INFINISEE\_REAGENT2\_SMILES>  (964) 
[R1*]Cc1cc(OCCN(C)C)ccc1

>  <s_sd_BIOSOLVEIT.INFINISEE\_SPACE>  (964) 
REALSpace_44bn_2023-08

>  <s_vsw_compound_code>  (964) 
27618

>  <s_vsw_variant>  (964) 
27618-1

>  <r_epik_Charging_Adjusted_Penalty>  (964) 
0.056943457182839899

>  <r_epik_Ionization_Penalty>  (964) 
0.032099999999999997

>  <r_epik_Ionization_Penalty_Charging>  (964) 
0.024799999999999999

>  <r_epik_Ionization_Penalty_Neutral>  (964) 
0.0073000000000000001

>  <r_epik_State_Penalty>  (964) 
0.032099999999999997

>  <r_i_docking_score>  (964) 
-1.4304558968226

>  <r_i_glide_ecoul>  (964) 
-6.1281604766845703

>  <r_i_glide_eff_state_penalty>  (964) 
0.032099999999999997

>  <r_i_glide_einternal>  (964) 
1.3198707103729199

>  <r_i_glide_emodel>  (964) 
-38.027485692314698

>  <r_i_glide_energy>  (964) 
-34.304666519165004

>  <r_i_glide_erotb>  (964) 
0.49831290830664998

>  <r_i_glide_esite>  (964) 
-0.095233254603436707

>  <r_i_glide_evdw>  (964) 
-28.176506042480501

>  <r_i_glide_gscore>  (964) 
-1.4625558968226

>  <r_i_glide_hbond>  (964) 
-0.097378826320419498

>  <r_i_glide_ligand_efficiency>  (964) 
-0.044701746775706402

>  <r_i_glide_ligand_efficiency_ln>  (964) 
-0.32031806805364399

>  <r_i_glide_ligand_efficiency_sa>  (964) 
-0.14191919954919299

>  <r_i_glide_lipo>  (964) 
-1.03694741840838

>  <r_i_glide_metal>  (964) 
-0

>  <r_i_glide_rewards>  (964) 
1.5967400678296899

>  <r_lp_Energy>  (964) 
47.641942

>  <r_lp_tautomer_probability>  (964) 
1

>  <r_qp_ACxDN^.5/SA>  (964) 
0.0099036999999999997

>  <r_qp_CIQPlogS>  (964) 
-5.2169999999999996

>  <r_qp_EA(eV)>  (964) 
0.66300000000000003

>  <r_qp_FISA>  (964) 
63.32

>  <r_qp_FOSA>  (964) 
242.738

>  <r_qp_IP(eV)>  (964) 
9.0489999999999995

>  <r_qp_Jm>  (964) 
0.0010738246586945101

>  <r_qp_PISA>  (964) 
367.34800000000001

>  <r_qp_PSA>  (964) 
53.366

>  <r_qp_PercentHumanOralAbsorption>  (964) 
90.513000000000005

>  <r_qp_QPPCaco>  (964) 
154.61000000000001

>  <r_qp_QPPMDCK>  (964) 
168.65799999999999

>  <r_qp_QPlogBB>  (964) 
0.52200000000000002

>  <r_qp_QPlogHERG>  (964) 
-7.5730000000000004

>  <r_qp_QPlogKhsa>  (964) 
0.71799999999999997

>  <r_qp_QPlogKp>  (964) 
-4.9420000000000002

>  <r_qp_QPlogPC16>  (964) 
14.816000000000001

>  <r_qp_QPlogPo/w>  (964) 
4.165

>  <r_qp_QPlogPoct>  (964) 
22.154

>  <r_qp_QPlogPw>  (964) 
11.712999999999999

>  <r_qp_QPlogS>  (964) 
-3.722

>  <r_qp_QPpolrz>  (964) 
49.317999999999998

>  <r_qp_SASA>  (964) 
732.048

>  <r_qp_SAamideO>  (964) 
0

>  <r_qp_SAfluorine>  (964) 
0

>  <r_qp_WPSA>  (964) 
58.640999999999998

>  <r_qp_accptHB>  (964) 
7.25

>  <r_qp_dip^2/V>  (964) 
0.0113293

>  <r_qp_dipole>  (964) 
3.9750000000000001

>  <r_qp_donorHB>  (964) 
1

>  <r_qp_glob>  (964) 
0.82467679999999999

>  <r_qp_mol_MW>  (964) 
494.43000000000001

>  <r_qp_volume>  (964) 
1394.721

>  <r_sd_BIOSOLVEIT.INFINISEE\_FTREES\_SIMILARITY>  (964) 
0.92000000000000004

>  <r_sd_BIOSOLVEIT.LOGP>  (964) 
2.0990000000000002

>  <r_sd_BIOSOLVEIT.MOLECULAR\_WEIGHT>  (964) 
496.44600000000003

>  <r_sd_BIOSOLVEIT.TPSA>  (964) 
47.210000000000001

>  <i_epik_Tot_Q>  (964) 
1

>  <i_epik_Tot_abs_Q>  (964) 
1

>  <i_f3d_flags>  (964) 
0

>  <i_i_glide_confnum>  (964) 
6

>  <i_i_glide_lignum>  (964) 
276

>  <i_i_glide_posenum>  (964) 
5

>  <i_i_glide_rotatable_bonds>  (964) 
7

>  <i_lp_mmshare_version>  (964) 
65135

>  <i_m_ct_format>  (964) 
2

>  <i_m_source_file_index>  (964) 
864

>  <i_qp_#NandO>  (964) 
5

>  <i_qp_#acid>  (964) 
0

>  <i_qp_#amide>  (964) 
0

>  <i_qp_#amidine>  (964) 
0

>  <i_qp_#amine>  (964) 
2

>  <i_qp_#in34>  (964) 
0

>  <i_qp_#in56>  (964) 
18

>  <i_qp_#metab>  (964) 
8

>  <i_qp_#nonHatm>  (964) 
32

>  <i_qp_#noncon>  (964) 
2

>  <i_qp_#ringatoms>  (964) 
23

>  <i_qp_#rotor>  (964) 
6

>  <i_qp_#rtvFG>  (964) 
0

>  <i_qp_#stars>  (964) 
0

>  <i_qp_CNS>  (964) 
2

>  <i_qp_HumanOralAbsorption>  (964) 
3

>  <i_qp_RuleOfFive>  (964) 
0

>  <i_qp_RuleOfThree>  (964) 
1

>  <i_sd_BIOSOLVEIT.INFINISEE\_REAGENT1\_NAME>  (964) 
24170772

>  <i_sd_BIOSOLVEIT.INFINISEE\_REAGENT2\_NAME>  (964) 
24720380

>  <i_sd_BIOSOLVEIT.INFINISEE\_RESULT\_RANK>  (964) 
16044

>  <i_sd_version>  (964) 
0

>  <b_lp_Chiralities_Consistent>  (964) 
1

>  <b_sd_chiral_flag>  (964) 
0

>  <canonical_id>  (964) 
ATP-HTVS-99217F2350A2

>  <compound_code>  (964) 
27618

>  <title>  (964) 
m_270004bda____24170772____24720380

>  <variant>  (964) 
27618-1

>  <source_file>  (964) 
运行/运行/ATP-VSW/ATP-VSW-DOCK_HTVS_1-002_lib.maegz

>  <canonical_smiles>  (964) 
C[NH+](C)CCOc1cccc(CN2CC(=O)Nc3ccc(Br)cc3[C@H]2c2ccccc2)c1

>  <scaffold>  (964) 
O=C1CN(Cc2ccccc2)C(c2ccccc2)c2ccccc2N1

>  <molecular_formula>  (964) 
C26H29BrN3O2+

$$$$
ATP-HTVS-99483DBEAA78
     RDKit          3D

 60 63  0  0  0  0  0  0  0  0999 V2000
  200.3570  180.3149  157.1418 O   0  0  0  0  0  0  0  0  0  0  0  0
  200.3898  179.9287  155.9704 C   0  0  0  0  0  0  0  0  0  0  0  0
  199.1541  180.0150  155.2091 N   0  0  0  0  0  0  0  0  0  0  0  0
  199.0973  179.5783  153.9359 N   0  0  0  0  0  0  0  0  0  0  0  0
  197.8725  179.8796  153.4986 C   0  0  0  0  0  0  0  0  0  0  0  0
  197.5197  179.6097  152.1065 C   0  0  0  0  0  0  0  0  0  0  0  0
  196.3191  180.1255  151.5681 C   0  0  0  0  0  0  0  0  0  0  0  0
  196.0065  179.8443  150.2256 C   0  0  0  0  0  0  0  0  0  0  0  0
  196.7910  179.1077  149.4160 N   0  0  0  0  0  0  0  0  0  0  0  0
  197.9437  178.6294  149.9213 C   0  0  0  0  0  0  0  0  0  0  0  0
  198.3483  178.8510  151.2524 C   0  0  0  0  0  0  0  0  0  0  0  0
  197.0898  180.4722  154.5174 C   0  0  0  0  0  0  0  0  0  0  0  0
  197.9248  180.5383  155.6021 C   0  0  0  0  0  0  0  0  0  0  0  0
  197.5946  181.0575  156.9732 C   0  0  1  0  0  0  0  0  0  0  0  0
  196.1982  181.6771  157.0705 C   0  0  1  0  0  0  0  0  0  0  0  0
  195.7734  181.8624  158.4674 N   0  0  1  0  0  0  0  0  0  0  0  0
  194.7148  182.8702  158.6459 C   0  0  1  0  0  0  0  0  0  0  0  0
  195.3086  184.1721  159.1618 C   0  0  0  0  0  0  0  0  0  0  0  0
  196.5572  184.6378  158.6851 C   0  0  0  0  0  0  0  0  0  0  0  0
  197.0971  185.8471  159.1654 C   0  0  0  0  0  0  0  0  0  0  0  0
  196.3947  186.6007  160.1172 C   0  0  0  0  0  0  0  0  0  0  0  0
  195.1507  186.1488  160.5971 C   0  0  0  0  0  0  0  0  0  0  0  0
  194.6125  184.9308  160.1250 C   0  0  0  0  0  0  0  0  0  0  0  0
  201.7033  179.3667  155.3320 C   0  0  1  0  0  0  0  0  0  0  0  0
  202.8273  179.8344  156.1259 N   0  0  0  0  0  0  0  0  0  0  0  0
  201.6185  177.8220  155.2879 C   0  0  0  0  0  0  0  0  0  0  0  0
  201.5375  177.0557  156.4846 C   0  0  0  0  0  0  0  0  0  0  0  0
  201.4808  175.6421  156.4361 C   0  0  0  0  0  0  0  0  0  0  0  0
  201.4656  174.9697  155.2001 C   0  0  0  0  0  0  0  0  0  0  0  0
  201.5275  175.7146  154.0123 C   0  0  0  0  0  0  0  0  0  0  0  0
  201.6036  177.1212  154.0586 C   0  0  0  0  0  0  0  0  0  0  0  0
  202.0441  179.9885  153.9429 C   0  0  2  0  0  0  0  0  0  0  0  0
  195.4442  180.9268  158.7260 H   0  0  0  0  0  0  0  0  0  0  0  0
  203.3816  179.0510  156.4660 H   0  0  0  0  0  0  0  0  0  0  0  0
  203.4410  180.3923  155.5563 H   0  0  0  0  0  0  0  0  0  0  0  0
  195.6514  180.7344  152.1541 H   0  0  0  0  0  0  0  0  0  0  0  0
  195.1019  180.2291  149.7867 H   0  0  0  0  0  0  0  0  0  0  0  0
  198.5560  178.0455  149.2557 H   0  0  0  0  0  0  0  0  0  0  0  0
  199.2833  178.4486  151.6096 H   0  0  0  0  0  0  0  0  0  0  0  0
  196.0624  180.8059  154.4539 H   0  0  0  0  0  0  0  0  0  0  0  0
  197.6824  180.2390  157.6923 H   0  0  0  0  0  0  0  0  0  0  0  0
  198.3191  181.8034  157.3038 H   0  0  0  0  0  0  0  0  0  0  0  0
  196.1918  182.6211  156.5193 H   0  0  0  0  0  0  0  0  0  0  0  0
  195.4388  181.0364  156.6197 H   0  0  0  0  0  0  0  0  0  0  0  0
  194.1574  183.0612  157.7237 H   0  0  0  0  0  0  0  0  0  0  0  0
  193.9824  182.4688  159.3411 H   0  0  0  0  0  0  0  0  0  0  0  0
  197.1258  184.0945  157.9476 H   0  0  0  0  0  0  0  0  0  0  0  0
  198.0503  186.1870  158.7843 H   0  0  0  0  0  0  0  0  0  0  0  0
  196.8109  187.5347  160.4754 H   0  0  0  0  0  0  0  0  0  0  0  0
  194.6092  186.7308  161.3247 H   0  0  0  0  0  0  0  0  0  0  0  0
  193.6542  184.5975  160.4921 H   0  0  0  0  0  0  0  0  0  0  0  0
  201.5527  177.5414  157.4516 H   0  0  0  0  0  0  0  0  0  0  0  0
  201.4280  175.0609  157.3464 H   0  0  0  0  0  0  0  0  0  0  0  0
  201.3983  173.8899  155.1524 H   0  0  0  0  0  0  0  0  0  0  0  0
  201.5152  175.2194  153.0528 H   0  0  0  0  0  0  0  0  0  0  0  0
  201.6513  177.6247  153.1078 H   0  0  0  0  0  0  0  0  0  0  0  0
  201.3070  179.7650  153.1673 H   0  0  0  0  0  0  0  0  0  0  0  0
  203.0163  179.6266  153.5920 H   0  0  0  0  0  0  0  0  0  0  0  0
  202.1168  181.0777  153.9850 H   0  0  0  0  0  0  0  0  0  0  0  0
  196.5543  182.0800  159.0721 H   0  0  0  0  0  0  0  0  0  0  0  0
  1  2  2  0
  2  3  1  0
  2 24  1  0
  3  4  1  0
  3 13  1  0
  4  5  2  0
  5  6  1  0
  5 12  1  0
  6  7  2  0
  6 11  1  0
  7  8  1  0
  7 36  1  0
  8  9  2  0
  8 37  1  0
  9 10  1  0
 10 11  2  0
 10 38  1  0
 11 39  1  0
 12 13  2  0
 12 40  1  0
 13 14  1  0
 14 15  1  0
 14 41  1  1
 14 42  1  0
 15 16  1  0
 15 43  1  6
 15 44  1  0
 16 17  1  0
 16 33  1  1
 16 60  1  0
 17 18  1  0
 17 45  1  6
 17 46  1  0
 18 19  2  0
 18 23  1  0
 19 20  1  0
 19 47  1  0
 20 21  2  0
 20 48  1  0
 21 22  1  0
 21 49  1  0
 22 23  2  0
 22 50  1  0
 23 51  1  0
 24 25  1  1
 24 26  1  0
 24 32  1  0
 25 34  1  0
 25 35  1  0
 26 27  2  0
 26 31  1  0
 27 28  1  0
 27 52  1  0
 28 29  2  0
 28 53  1  0
 29 30  1  0
 29 54  1  0
 30 31  2  0
 30 55  1  0
 31 56  1  0
 32 57  1  6
 32 58  1  0
 32 59  1  0
M  CHG  1  16   1
M  END
>  <s_epik_cmdline>  (965) 
J2VwaWtfcHl0aG9uJywgJy1waCcsICc3LjAwMDAwMCcsICctcGh0JywgJzIuMDAwMDAwJywgJy1tcycsICcxNicsICctdG4nLCAnOCcsICctbWEnLCAnMjAwJywgJy1pbWFlJywgJzxpbmZpbGUubWFlPicsICctb21hZScsICc8b3V0ZmlsZS5tYWU+Jw==

>  <s_epik_input>  (965) 
W2NIXTFbY0hdW2NIXVtjSF1bY0hdYzFbQ0BAXShbTkgyXSkoW0NIM10pQyg9TyluMm5jKC1jM1tjSF1bY0hdbltjSF1bY0hdMylbY0hdYzJbQ0gyXVtDSDJdW05IXVtDSDJdYzRbY0hdW2NIXVtjSF1bY0hdW2NIXTQ=

>  <s_i_glide_gridfile>  (965) 
ATP-Grid

>  <s_lp_Force_Field>  (965) 
OPLS_2005

>  <s_lp_Variant>  (965) 
Shen____49239300____93458992____40180766-2

>  <s_lp_label>  (965) 
656_sdstereoexpander_2_neutralizer_1_epik_1_stereoizer_1

>  <s_m_source_file>  (965) 
ATP-VSW-LIGPREP-003-in.maegz

>  <s_sd_BIOSOLVEIT.INFINISEE\_QUERY\_NAME>  (965) 
Ref-Lig

>  <s_sd_BIOSOLVEIT.INFINISEE\_QUERY\_SMILES>  (965) 
S(c1nc2c(cc1C[NH2+]Cc3ccc(cc3)C[NH+](C)C)cccc2)Cc4ccccc4

>  <s_sd_BIOSOLVEIT.INFINISEE\_REACTION\_NAME>  (965) 
Shen

>  <s_sd_BIOSOLVEIT.INFINISEE\_REAGENT1\_SMILES>  (965) 
O=C(CCNCc1ccccc1)C

>  <s_sd_BIOSOLVEIT.INFINISEE\_REAGENT2\_SMILES>  (965) 
O=C(OCC)c1ccncc1

>  <s_sd_BIOSOLVEIT.INFINISEE\_REAGENT3\_SMILES>  (965) 
O=C(NN)C(N)(c1ccccc1)C

>  <s_sd_BIOSOLVEIT.INFINISEE\_SPACE>  (965) 
KnowledgeSpace_290tr_2019-05

>  <s_vsw_compound_code>  (965) 
20963

>  <s_vsw_variant>  (965) 
20963-2

>  <r_epik_Charging_Adjusted_Penalty>  (965) 
0.064919483162042504

>  <r_epik_Ionization_Penalty>  (965) 
0.0407

>  <r_epik_Ionization_Penalty_Charging>  (965) 
0.0293

>  <r_epik_Ionization_Penalty_Neutral>  (965) 
0.0114

>  <r_epik_State_Penalty>  (965) 
0.035700000000000003

>  <r_i_docking_score>  (965) 
-6.3660091336743996

>  <r_i_glide_ecoul>  (965) 
-12.1385250091553

>  <r_i_glide_eff_state_penalty>  (965) 
0.035700000000000003

>  <r_i_glide_einternal>  (965) 
10.0636081695557

>  <r_i_glide_emodel>  (965) 
-69.898135696455498

>  <r_i_glide_energy>  (965) 
-48.5932941436768

>  <r_i_glide_erotb>  (965) 
0.87272429201832702

>  <r_i_glide_esite>  (965) 
-0.13559578883592999

>  <r_i_glide_evdw>  (965) 
-36.454769134521499

>  <r_i_glide_gscore>  (965) 
-6.4017091336743999

>  <r_i_glide_hbond>  (965) 
-0.45135996120782401

>  <r_i_glide_ligand_efficiency>  (965) 
-0.19893778542732499

>  <r_i_glide_ligand_efficiency_ln>  (965) 
-1.4255229758847401

>  <r_i_glide_ligand_efficiency_sa>  (965) 
-0.63158809899748003

>  <r_i_glide_lipo>  (965) 
-2.3180519675496098

>  <r_i_glide_metal>  (965) 
-0

>  <r_i_glide_rewards>  (965) 
-0.72590849999999896

>  <r_lp_Energy>  (965) 
23.942053000000001

>  <r_qp_ACxDN^.5/SA>  (965) 
0.020129299999999999

>  <r_qp_CIQPlogS>  (965) 
-4.0439999999999996

>  <r_qp_EA(eV)>  (965) 
0.54400000000000004

>  <r_qp_FISA>  (965) 
89.259

>  <r_qp_FOSA>  (965) 
173.946

>  <r_qp_IP(eV)>  (965) 
9.2569999999999997

>  <r_qp_Jm>  (965) 
0.073786448212853795

>  <r_qp_PISA>  (965) 
382.14100000000002

>  <r_qp_PSA>  (965) 
77.212000000000003

>  <r_qp_PercentHumanOralAbsorption>  (965) 
78.795000000000002

>  <r_qp_QPPCaco>  (965) 
87.751000000000005

>  <r_qp_QPPMDCK>  (965) 
43.640999999999998

>  <r_qp_QPlogBB>  (965) 
0.13400000000000001

>  <r_qp_QPlogHERG>  (965) 
-6.5190000000000001

>  <r_qp_QPlogKhsa>  (965) 
0.375

>  <r_qp_QPlogKp>  (965) 
-5.1760000000000002

>  <r_qp_QPlogPC16>  (965) 
14.337

>  <r_qp_QPlogPo/w>  (965) 
2.915

>  <r_qp_QPlogPoct>  (965) 
23.442

>  <r_qp_QPlogPw>  (965) 
14.494999999999999

>  <r_qp_QPlogS>  (965) 
-1.585

>  <r_qp_QPpolrz>  (965) 
44.521999999999998

>  <r_qp_SASA>  (965) 
645.34699999999998

>  <r_qp_SAamideO>  (965) 
0

>  <r_qp_SAfluorine>  (965) 
0

>  <r_qp_WPSA>  (965) 
0

>  <r_qp_accptHB>  (965) 
7.5

>  <r_qp_dip^2/V>  (965) 
0.0038099000000000002

>  <r_qp_dipole>  (965) 
2.2280000000000002

>  <r_qp_donorHB>  (965) 
3

>  <r_qp_glob>  (965) 
0.89419680000000001

>  <r_qp_mol_MW>  (965) 
425.53199999999998

>  <r_qp_volume>  (965) 
1303.444

>  <r_sd_BIOSOLVEIT.INFINISEE\_FTREES\_SIMILARITY>  (965) 
0.90200000000000002

>  <r_sd_BIOSOLVEIT.LOGP>  (965) 
2.0487000000000002

>  <r_sd_BIOSOLVEIT.MOLECULAR\_WEIGHT>  (965) 
427.54899999999998

>  <r_sd_BIOSOLVEIT.TPSA>  (965) 
92.030000000000001

>  <i_epik_Tot_Q>  (965) 
1

>  <i_epik_Tot_abs_Q>  (965) 
1

>  <i_f3d_flags>  (965) 
0

>  <i_i_glide_confnum>  (965) 
10

>  <i_i_glide_lignum>  (965) 
294

>  <i_i_glide_posenum>  (965) 
11

>  <i_i_glide_rotatable_bonds>  (965) 
9

>  <i_lp_mmshare_version>  (965) 
65135

>  <i_m_ct_format>  (965) 
2

>  <i_m_source_file_index>  (965) 
656

>  <i_qp_#NandO>  (965) 
6

>  <i_qp_#acid>  (965) 
0

>  <i_qp_#amide>  (965) 
0

>  <i_qp_#amidine>  (965) 
0

>  <i_qp_#amine>  (965) 
2

>  <i_qp_#in34>  (965) 
0

>  <i_qp_#in56>  (965) 
23

>  <i_qp_#metab>  (965) 
7

>  <i_qp_#nonHatm>  (965) 
32

>  <i_qp_#noncon>  (965) 
0

>  <i_qp_#ringatoms>  (965) 
23

>  <i_qp_#rotor>  (965) 
8

>  <i_qp_#rtvFG>  (965) 
0

>  <i_qp_#stars>  (965) 
0

>  <i_qp_CNS>  (965) 
1

>  <i_qp_HumanOralAbsorption>  (965) 
2

>  <i_qp_RuleOfFive>  (965) 
0

>  <i_qp_RuleOfThree>  (965) 
1

>  <i_sd_BIOSOLVEIT.INFINISEE\_REAGENT1\_NAME>  (965) 
49239300

>  <i_sd_BIOSOLVEIT.INFINISEE\_REAGENT2\_NAME>  (965) 
93458992

>  <i_sd_BIOSOLVEIT.INFINISEE\_REAGENT3\_NAME>  (965) 
40180766

>  <i_sd_BIOSOLVEIT.INFINISEE\_RESULT\_RANK>  (965) 
93707

>  <i_sd_version>  (965) 
0

>  <b_lp_Chiralities_Consistent>  (965) 
1

>  <b_sd_chiral_flag>  (965) 
0

>  <canonical_id>  (965) 
ATP-HTVS-99483DBEAA78

>  <compound_code>  (965) 
20963

>  <title>  (965) 
Shen____49239300____93458992____40180766

>  <variant>  (965) 
20963-2

>  <source_file>  (965) 
运行/运行/ATP-VSW/ATP-VSW-DOCK_HTVS_1-003_lib/ATP-VSW-DOCK_HTVS_1-003_lib.mae

>  <canonical_smiles>  (965) 
C[C@@](N)(C(=O)n1nc(-c2ccncc2)cc1CC[NH2+]Cc1ccccc1)c1ccccc1

>  <scaffold>  (965) 
O=C(Cc1ccccc1)n1nc(-c2ccncc2)cc1CC[NH2+]Cc1ccccc1

>  <molecular_formula>  (965) 
C26H28N5O+

$$$$
ATP-HTVS-9967BD998929
     RDKit          3D

 57 60  0  0  0  0  0  0  0  0999 V2000
  194.7713  182.2834  158.5383 Br  0  0  0  0  0  0  0  0  0  0  0  0
  196.6500  182.9214  158.7491 C   0  0  2  0  0  0  0  0  0  0  0  0
  196.5959  184.4463  158.7911 C   0  0  0  0  0  0  0  0  0  0  0  0
  196.3833  185.0995  160.0265 C   0  0  0  0  0  0  0  0  0  0  0  0
  196.3444  186.5069  160.0900 C   0  0  0  0  0  0  0  0  0  0  0  0
  196.5098  187.2753  158.9214 C   0  0  0  0  0  0  0  0  0  0  0  0
  196.7085  186.6341  157.6855 C   0  0  0  0  0  0  0  0  0  0  0  0
  196.7527  185.2291  157.6225 C   0  0  0  0  0  0  0  0  0  0  0  0
  197.6368  182.3710  157.6949 C   0  0  0  0  0  0  0  0  0  0  0  0
  198.8027  182.7819  157.6697 O   0  0  0  0  0  0  0  0  0  0  0  0
  197.1742  181.4526  156.8356 N   0  0  0  0  0  0  0  0  0  0  0  0
  197.9444  180.6824  155.9201 C   0  0  0  0  0  0  0  0  0  0  0  0
  197.4800  180.4640  154.5938 C   0  0  0  0  0  0  0  0  0  0  0  0
  196.3575  181.1816  154.1400 N   0  0  0  0  0  0  0  0  0  0  0  0
  196.4623  181.9554  152.8980 C   0  0  1  0  0  0  0  0  0  0  0  0
  197.3931  183.1749  153.0185 C   0  0  2  0  0  0  0  0  0  0  0  0
  196.7791  184.1152  153.8570 O   0  0  0  0  0  0  0  0  0  0  0  0
  197.6955  183.7582  151.6474 C   0  0  0  0  0  0  0  0  0  0  0  0
  199.0341  183.9614  151.2583 C   0  0  0  0  0  0  0  0  0  0  0  0
  199.3384  184.5087  149.9963 C   0  0  0  0  0  0  0  0  0  0  0  0
  198.3064  184.8475  149.1017 C   0  0  0  0  0  0  0  0  0  0  0  0
  196.9633  184.6350  149.4753 C   0  0  0  0  0  0  0  0  0  0  0  0
  196.6584  184.0925  150.7430 C   0  0  0  0  0  0  0  0  0  0  0  0
  198.6493  185.4296  147.7454 C   0  0  2  0  0  0  0  0  0  0  0  0
  198.2009  179.5434  153.7722 C   0  0  0  0  0  0  0  0  0  0  0  0
  199.4000  178.9562  154.2720 C   0  0  0  0  0  0  0  0  0  0  0  0
  199.8069  179.2356  155.5293 N   0  0  0  0  0  0  0  0  0  0  0  0
  199.1248  180.0470  156.3600 C   0  0  0  0  0  0  0  0  0  0  0  0
  200.1706  178.0805  153.4717 C   0  0  0  0  0  0  0  0  0  0  0  0
  199.7610  177.7907  152.1550 C   0  0  0  0  0  0  0  0  0  0  0  0
  198.5589  178.3310  151.6636 C   0  0  0  0  0  0  0  0  0  0  0  0
  197.7564  179.1567  152.4802 C   0  0  0  0  0  0  0  0  0  0  0  0
  196.9720  182.5441  159.7223 H   0  0  0  0  0  0  0  0  0  0  0  0
  196.2578  184.5208  160.9325 H   0  0  0  0  0  0  0  0  0  0  0  0
  196.2001  187.0012  161.0395 H   0  0  0  0  0  0  0  0  0  0  0  0
  196.4815  188.3552  158.9698 H   0  0  0  0  0  0  0  0  0  0  0  0
  196.8366  187.2107  156.7800 H   0  0  0  0  0  0  0  0  0  0  0  0
  196.8931  184.7658  156.6562 H   0  0  0  0  0  0  0  0  0  0  0  0
  196.1867  181.2323  156.9023 H   0  0  0  0  0  0  0  0  0  0  0  0
  195.8966  181.6985  154.8863 H   0  0  0  0  0  0  0  0  0  0  0  0
  196.8452  181.3701  152.0792 H   0  0  0  0  0  0  0  0  0  0  0  0
  195.4551  182.2651  152.5896 H   0  0  0  0  0  0  0  0  0  0  0  0
  198.3319  182.8677  153.4769 H   0  0  0  0  0  0  0  0  0  0  0  0
  195.8392  184.0453  153.7201 H   0  0  0  0  0  0  0  0  0  0  0  0
  199.8397  183.7007  151.9316 H   0  0  0  0  0  0  0  0  0  0  0  0
  200.3707  184.6755  149.7255 H   0  0  0  0  0  0  0  0  0  0  0  0
  196.1680  184.9044  148.7974 H   0  0  0  0  0  0  0  0  0  0  0  0
  195.6263  183.9395  151.0183 H   0  0  0  0  0  0  0  0  0  0  0  0
  197.7588  185.7659  147.2138 H   0  0  0  0  0  0  0  0  0  0  0  0
  199.1469  184.6781  147.1325 H   0  0  0  0  0  0  0  0  0  0  0  0
  199.3284  186.2762  147.8507 H   0  0  0  0  0  0  0  0  0  0  0  0
  199.5240  180.1347  157.3630 H   0  0  0  0  0  0  0  0  0  0  0  0
  201.0710  177.6254  153.8630 H   0  0  0  0  0  0  0  0  0  0  0  0
  200.3448  177.1169  151.5388 H   0  0  0  0  0  0  0  0  0  0  0  0
  198.2352  178.0977  150.6598 H   0  0  0  0  0  0  0  0  0  0  0  0
  196.8006  179.4806  152.0998 H   0  0  0  0  0  0  0  0  0  0  0  0
  200.6413  178.7732  155.8919 H   0  0  0  0  0  0  0  0  0  0  0  0
  1  2  1  0
  2  3  1  0
  2  9  1  0
  2 33  1  1
  3  4  2  0
  3  8  1  0
  4  5  1  0
  4 34  1  0
  5  6  2  0
  5 35  1  0
  6  7  1  0
  6 36  1  0
  7  8  2  0
  7 37  1  0
  8 38  1  0
  9 10  2  0
  9 11  1  0
 11 12  1  0
 11 39  1  0
 12 13  2  0
 12 28  1  0
 13 14  1  0
 13 25  1  0
 14 15  1  0
 14 40  1  0
 15 16  1  0
 15 41  1  6
 15 42  1  0
 16 17  1  0
 16 18  1  0
 16 43  1  1
 17 44  1  0
 18 19  1  0
 18 23  2  0
 19 20  2  0
 19 45  1  0
 20 21  1  0
 20 46  1  0
 21 22  2  0
 21 24  1  0
 22 23  1  0
 22 47  1  0
 23 48  1  0
 24 49  1  6
 24 50  1  0
 24 51  1  0
 25 26  1  0
 25 32  2  0
 26 27  1  0
 26 29  2  0
 27 28  2  0
 27 57  1  0
 28 52  1  0
 29 30  1  0
 29 53  1  0
 30 31  2  0
 30 54  1  0
 31 32  1  0
 31 55  1  0
 32 56  1  0
M  CHG  1  27   1
M  END
>  <s_epik_cmdline>  (966) 
J2VwaWtfcHl0aG9uJywgJy1waCcsICc3LjAwMDAwMCcsICctcGh0JywgJzIuMDAwMDAwJywgJy1tcycsICcxNicsICctdG4nLCAnOCcsICctbWEnLCAnMjAwJywgJy1pbWFlJywgJzxpbmZpbGUubWFlPicsICctb21hZScsICc8b3V0ZmlsZS5tYWU+Jw==

>  <s_epik_input>  (966) 
W2NIXTFbY0hdW2NIXVtjSF1bY0hdYzFbQ0BASF0oQnIpQyg9TylbTkhdYyhbY0hdbmMoYzIzKVtjSF1bY0hdW2NIXVtjSF0zKWMyW05IXVtDSDJdW0NASF0oW09IXSljNFtjSF1bY0hdYyhbQ0gzXSlbY0hdW2NIXTQ=

>  <s_i_glide_gridfile>  (966) 
ATP-Grid

>  <s_lp_Force_Field>  (966) 
OPLS_2005

>  <s_lp_Variant>  (966) 
rxn502b____EMOL535380____EMOL30488121____EMOL42769518-1

>  <s_lp_label>  (966) 
2269_sdstereoexpander_1_neutralizer_1_epik_1_stereoizer_1

>  <s_m_source_file>  (966) 
ATP-VSW-LIGPREP-002-in.maegz

>  <s_sd_BIOSOLVEIT.INFINISEE\_QUERY\_NAME>  (966) 
Ref-Lig

>  <s_sd_BIOSOLVEIT.INFINISEE\_QUERY\_SMILES>  (966) 
S(c1nc2c(cc1C[NH2+]Cc3ccc(cc3)C[NH+](C)C)cccc2)Cc4ccccc4

>  <s_sd_BIOSOLVEIT.INFINISEE\_REACTION\_NAME>  (966) 
rxn502b

>  <s_sd_BIOSOLVEIT.INFINISEE\_REAGENT1\_NAME>  (966) 
EMOL535380

>  <s_sd_BIOSOLVEIT.INFINISEE\_REAGENT1\_SMILES>  (966) 
BrC(c1ccccc1)C(=O)O

>  <s_sd_BIOSOLVEIT.INFINISEE\_REAGENT2\_NAME>  (966) 
EMOL30488121

>  <s_sd_BIOSOLVEIT.INFINISEE\_REAGENT2\_SMILES>  (966) 
Brc1c(N)cnc2c1cccc2

>  <s_sd_BIOSOLVEIT.INFINISEE\_REAGENT3\_NAME>  (966) 
EMOL42769518

>  <s_sd_BIOSOLVEIT.INFINISEE\_REAGENT3\_SMILES>  (966) 
OC(c1ccc(cc1)C)CN

>  <s_sd_BIOSOLVEIT.INFINISEE\_SPACE>  (966) 
eXplore_7tr_2022-12

>  <s_vsw_compound_code>  (966) 
72578

>  <s_vsw_variant>  (966) 
72578-1

>  <r_epik_Charging_Adjusted_Penalty>  (966) 
0.042112238290465002

>  <r_epik_Ionization_Penalty>  (966) 
0.021100000000000001

>  <r_epik_Ionization_Penalty_Charging>  (966) 
0.021100000000000001

>  <r_epik_Ionization_Penalty_Neutral>  (966) 
0

>  <r_epik_State_Penalty>  (966) 
0.021100000000000001

>  <r_i_docking_score>  (966) 
-4.99163821619935

>  <r_i_glide_ecoul>  (966) 
-9.32464694976807

>  <r_i_glide_eff_state_penalty>  (966) 
0.021100000000000001

>  <r_i_glide_einternal>  (966) 
11.1583051681519

>  <r_i_glide_emodel>  (966) 
-59.303144108964702

>  <r_i_glide_energy>  (966) 
-46.169556617736802

>  <r_i_glide_erotb>  (966) 
0.59013082371324499

>  <r_i_glide_esite>  (966) 
-0.19584099919932199

>  <r_i_glide_evdw>  (966) 
-36.8449096679688

>  <r_i_glide_gscore>  (966) 
-5.0127382161993497

>  <r_i_glide_hbond>  (966) 
-0.16890803106382199

>  <r_i_glide_ligand_efficiency>  (966) 
-0.15598869425622999

>  <r_i_glide_ligand_efficiency_ln>  (966) 
-1.11776386352581

>  <r_i_glide_ligand_efficiency_sa>  (966) 
-0.49523323414285397

>  <r_i_glide_lipo>  (966) 
-1.7135383928767101

>  <r_i_glide_metal>  (966) 
-0

>  <r_i_glide_rewards>  (966) 
-0.28363909090909101

>  <r_lp_Energy>  (966) 
33.586275999999998

>  <r_qp_ACxDN^.5/SA>  (966) 
0.015695000000000001

>  <r_qp_CIQPlogS>  (966) 
-7.8490000000000002

>  <r_qp_EA(eV)>  (966) 
0.99199999999999999

>  <r_qp_FISA>  (966) 
96.397000000000006

>  <r_qp_FOSA>  (966) 
101.38800000000001

>  <r_qp_IP(eV)>  (966) 
8.4290000000000003

>  <r_qp_Jm>  (966) 
0.29096363938894798

>  <r_qp_PISA>  (966) 
433.92000000000002

>  <r_qp_PSA>  (966) 
75.649000000000001

>  <r_qp_PercentHumanOralAbsorption>  (966) 
100

>  <r_qp_QPPCaco>  (966) 
1207.1759999999999

>  <r_qp_QPPMDCK>  (966) 
1175.914

>  <r_qp_QPlogBB>  (966) 
-0.67800000000000005

>  <r_qp_QPlogHERG>  (966) 
-6.016

>  <r_qp_QPlogKhsa>  (966) 
0.57999999999999996

>  <r_qp_QPlogKp>  (966) 
-0.999

>  <r_qp_QPlogPC16>  (966) 
15.238

>  <r_qp_QPlogPo/w>  (966) 
4.7290000000000001

>  <r_qp_QPlogPoct>  (966) 
23.893999999999998

>  <r_qp_QPlogPw>  (966) 
13.727

>  <r_qp_QPlogS>  (966) 
-5.2270000000000003

>  <r_qp_QPpolrz>  (966) 
45.701999999999998

>  <r_qp_SASA>  (966) 
684.21299999999997

>  <r_qp_SAamideO>  (966) 
0

>  <r_qp_SAfluorine>  (966) 
0

>  <r_qp_WPSA>  (966) 
52.508000000000003

>  <r_qp_accptHB>  (966) 
6.2000000000000002

>  <r_qp_dip^2/V>  (966) 
0.041455600000000002

>  <r_qp_dipole>  (966) 
7.399

>  <r_qp_donorHB>  (966) 
3

>  <r_qp_glob>  (966) 
0.85076640000000003

>  <r_qp_mol_MW>  (966) 
490.39800000000002

>  <r_qp_volume>  (966) 
1320.55

>  <r_sd_BIOSOLVEIT.INFINISEE\_FTREES\_SIMILARITY>  (966) 
0.92500000000000004

>  <r_sd_BIOSOLVEIT.LOGP>  (966) 
5.76342

>  <r_sd_BIOSOLVEIT.MOLECULAR\_WEIGHT>  (966) 
490.399

>  <r_sd_BIOSOLVEIT.TPSA>  (966) 
74.25

>  <i_epik_Tot_Q>  (966) 
1

>  <i_epik_Tot_abs_Q>  (966) 
1

>  <i_f3d_flags>  (966) 
0

>  <i_i_glide_confnum>  (966) 
3

>  <i_i_glide_lignum>  (966) 
903

>  <i_i_glide_posenum>  (966) 
10

>  <i_i_glide_rotatable_bonds>  (966) 
9

>  <i_lp_mmshare_version>  (966) 
65135

>  <i_m_ct_format>  (966) 
2

>  <i_m_source_file_index>  (966) 
2269

>  <i_qp_#NandO>  (966) 
5

>  <i_qp_#acid>  (966) 
0

>  <i_qp_#amide>  (966) 
0

>  <i_qp_#amidine>  (966) 
0

>  <i_qp_#amine>  (966) 
0

>  <i_qp_#in34>  (966) 
0

>  <i_qp_#in56>  (966) 
22

>  <i_qp_#metab>  (966) 
7

>  <i_qp_#nonHatm>  (966) 
32

>  <i_qp_#noncon>  (966) 
0

>  <i_qp_#ringatoms>  (966) 
22

>  <i_qp_#rotor>  (966) 
8

>  <i_qp_#rtvFG>  (966) 
1

>  <i_qp_#stars>  (966) 
0

>  <i_qp_CNS>  (966) 
-1

>  <i_qp_HumanOralAbsorption>  (966) 
3

>  <i_qp_RuleOfFive>  (966) 
0

>  <i_qp_RuleOfThree>  (966) 
1

>  <i_sd_BIOSOLVEIT.INFINISEE\_RESULT\_RANK>  (966) 
9131

>  <i_sd_version>  (966) 
0

>  <b_lp_Chiralities_Consistent>  (966) 
1

>  <b_sd_chiral_flag>  (966) 
0

>  <canonical_id>  (966) 
ATP-HTVS-9967BD998929

>  <compound_code>  (966) 
72578

>  <title>  (966) 
rxn502b____EMOL535380____EMOL30488121____EMOL42769518

>  <variant>  (966) 
72578-1

>  <source_file>  (966) 
运行/运行/ATP-VSW/ATP-VSW-DOCK_HTVS_1-002_lib.maegz

>  <canonical_smiles>  (966) 
Cc1ccc([C@@H](O)CNc2c(NC(=O)[C@H](Br)c3ccccc3)c[nH+]c3ccccc23)cc1

>  <scaffold>  (966) 
O=C(Cc1ccccc1)Nc1c[nH+]c2ccccc2c1NCCc1ccccc1

>  <molecular_formula>  (966) 
C26H25BrN3O2+

$$$$
ATP-HTVS-99B36318F637
     RDKit          3D

 58 61  0  0  0  0  0  0  0  0999 V2000
  198.4369  186.8431  159.3246 O   0  0  0  0  0  0  0  0  0  0  0  0
  197.2312  186.1760  159.6429 C   0  0  2  0  0  0  0  0  0  0  0  0
  196.9696  184.9795  158.7409 C   0  0  0  0  0  0  0  0  0  0  0  0
  197.3957  184.9898  157.3946 C   0  0  0  0  0  0  0  0  0  0  0  0
  197.1478  183.8858  156.5601 C   0  0  0  0  0  0  0  0  0  0  0  0
  196.4670  182.7601  157.0706 C   0  0  0  0  0  0  0  0  0  0  0  0
  196.0403  182.7417  158.4113 C   0  0  0  0  0  0  0  0  0  0  0  0
  196.2893  183.8483  159.2435 C   0  0  0  0  0  0  0  0  0  0  0  0
  196.1885  181.5699  156.1826 C   0  0  1  0  0  0  0  0  0  0  0  0
  197.3379  180.6530  156.1805 N   0  0  1  0  0  0  0  0  0  0  0  0
  197.1787  179.4976  155.2839 C   0  0  1  0  0  0  0  0  0  0  0  0
  198.5357  178.9732  154.9208 C   0  0  0  0  0  0  0  0  0  0  0  0
  199.1485  178.9188  153.6240 C   0  0  0  0  0  0  0  0  0  0  0  0
  200.3931  178.4760  153.7068 N   0  0  0  0  0  0  0  0  0  0  0  0
  200.5708  178.1112  154.9921 N   0  0  0  0  0  0  0  0  0  0  0  0
  199.4707  178.4228  155.7554 C   0  0  0  0  0  0  0  0  0  0  0  0
  201.8135  177.4588  155.3903 C   0  0  1  0  0  0  0  0  0  0  0  0
  201.9045  176.0092  154.9096 C   0  0  0  0  0  0  0  0  0  0  0  0
  201.5043  175.6416  153.5987 C   0  0  0  0  0  0  0  0  0  0  0  0
  201.5710  174.3000  153.1789 C   0  0  0  0  0  0  0  0  0  0  0  0
  202.0695  173.3101  154.0448 C   0  0  0  0  0  0  0  0  0  0  0  0
  202.5031  173.6721  155.3354 C   0  0  0  0  0  0  0  0  0  0  0  0
  202.4125  175.0107  155.7717 C   0  0  0  0  0  0  0  0  0  0  0  0
  198.5966  179.2519  152.2961 C   0  0  0  0  0  0  0  0  0  0  0  0
  199.4586  179.5604  151.2148 C   0  0  0  0  0  0  0  0  0  0  0  0
  198.9460  179.9205  149.9536 C   0  0  0  0  0  0  0  0  0  0  0  0
  197.5547  179.9891  149.7567 C   0  0  0  0  0  0  0  0  0  0  0  0
  196.6801  179.6615  150.8107 C   0  0  0  0  0  0  0  0  0  0  0  0
  197.1967  179.2580  152.0629 C   0  0  0  0  0  0  0  0  0  0  0  0
  196.0916  187.1999  159.5850 C   0  0  2  0  0  0  0  0  0  0  0  0
  198.1602  181.1604  155.9077 H   0  0  0  0  0  0  0  0  0  0  0  0
  198.5603  187.5631  159.9296 H   0  0  0  0  0  0  0  0  0  0  0  0
  197.3224  185.8116  160.6663 H   0  0  0  0  0  0  0  0  0  0  0  0
  197.9136  185.8485  156.9948 H   0  0  0  0  0  0  0  0  0  0  0  0
  197.4720  183.9127  155.5283 H   0  0  0  0  0  0  0  0  0  0  0  0
  195.5184  181.8772  158.7985 H   0  0  0  0  0  0  0  0  0  0  0  0
  195.9525  183.8224  160.2693 H   0  0  0  0  0  0  0  0  0  0  0  0
  195.3093  181.0387  156.5425 H   0  0  0  0  0  0  0  0  0  0  0  0
  195.9644  181.9194  155.1745 H   0  0  0  0  0  0  0  0  0  0  0  0
  196.5571  178.7262  155.7450 H   0  0  0  0  0  0  0  0  0  0  0  0
  196.6302  179.8526  154.4238 H   0  0  0  0  0  0  0  0  0  0  0  0
  199.4427  178.2207  156.8163 H   0  0  0  0  0  0  0  0  0  0  0  0
  202.6569  178.0306  154.9986 H   0  0  0  0  0  0  0  0  0  0  0  0
  201.8882  177.4975  156.4780 H   0  0  0  0  0  0  0  0  0  0  0  0
  201.1350  176.3730  152.8926 H   0  0  0  0  0  0  0  0  0  0  0  0
  201.2371  174.0437  152.1826 H   0  0  0  0  0  0  0  0  0  0  0  0
  202.1262  172.2796  153.7184 H   0  0  0  0  0  0  0  0  0  0  0  0
  202.8918  172.9108  155.9971 H   0  0  0  0  0  0  0  0  0  0  0  0
  202.7414  175.2681  156.7717 H   0  0  0  0  0  0  0  0  0  0  0  0
  200.5306  179.5177  151.3470 H   0  0  0  0  0  0  0  0  0  0  0  0
  199.6252  180.1404  149.1389 H   0  0  0  0  0  0  0  0  0  0  0  0
  197.1595  180.2675  148.7877 H   0  0  0  0  0  0  0  0  0  0  0  0
  195.6116  179.7185  150.6645 H   0  0  0  0  0  0  0  0  0  0  0  0
  196.4977  178.9546  152.8226 H   0  0  0  0  0  0  0  0  0  0  0  0
  195.1431  186.7474  159.8689 H   0  0  0  0  0  0  0  0  0  0  0  0
  195.9798  187.6084  158.5809 H   0  0  0  0  0  0  0  0  0  0  0  0
  196.2755  188.0323  160.2655 H   0  0  0  0  0  0  0  0  0  0  0  0
  197.4557  180.3069  157.1242 H   0  0  0  0  0  0  0  0  0  0  0  0
  1  2  1  0
  1 32  1  0
  2  3  1  0
  2 30  1  0
  2 33  1  1
  3  4  1  0
  3  8  2  0
  4  5  2  0
  4 34  1  0
  5  6  1  0
  5 35  1  0
  6  7  2  0
  6  9  1  0
  7  8  1  0
  7 36  1  0
  8 37  1  0
  9 10  1  0
  9 38  1  1
  9 39  1  0
 10 11  1  0
 10 31  1  6
 10 58  1  0
 11 12  1  0
 11 40  1  1
 11 41  1  0
 12 13  1  0
 12 16  2  0
 13 14  2  0
 13 24  1  0
 14 15  1  0
 15 16  1  0
 15 17  1  0
 16 42  1  0
 17 18  1  0
 17 43  1  6
 17 44  1  0
 18 19  2  0
 18 23  1  0
 19 20  1  0
 19 45  1  0
 20 21  2  0
 20 46  1  0
 21 22  1  0
 21 47  1  0
 22 23  2  0
 22 48  1  0
 23 49  1  0
 24 25  2  0
 24 29  1  0
 25 26  1  0
 25 50  1  0
 26 27  2  0
 26 51  1  0
 27 28  1  0
 27 52  1  0
 28 29  2  0
 28 53  1  0
 29 54  1  0
 30 55  1  1
 30 56  1  0
 30 57  1  0
M  CHG  1  10   1
M  END
>  <s_epik_cmdline>  (967) 
J2VwaWtfcHl0aG9uJywgJy1waCcsICc3LjAwMDAwMCcsICctcGh0JywgJzIuMDAwMDAwJywgJy1tcycsICcxNicsICctdG4nLCAnOCcsICctbWEnLCAnMjAwJywgJy1pbWFlJywgJzxpbmZpbGUubWFlPicsICctb21hZScsICc8b3V0ZmlsZS5tYWU+Jw==

>  <s_epik_input>  (967) 
W09IXVtDQEBIXShbQ0gzXSljMVtjSF1bY0hdYyhbY0hdW2NIXTEpW0NIMl1bTkhdW0NIMl1jMmMoLWMzW2NIXVtjSF1bY0hdW2NIXVtjSF0zKW5uKFtjSF0yKVtDSDJdYzRbY0hdW2NIXVtjSF1bY0hdW2NIXTQ=

>  <s_i_glide_gridfile>  (967) 
ATP-Grid

>  <s_lp_Force_Field>  (967) 
OPLS_2005

>  <s_lp_Variant>  (967) 
a4____45926____276639-2

>  <s_lp_label>  (967) 
191_sdstereoexpander_2_neutralizer_1_epik_1_stereoizer_1

>  <s_m_source_file>  (967) 
ATP-VSW-LIGPREP-001-in.maegz

>  <s_sd_BIOSOLVEIT.INFINISEE\_QUERY\_NAME>  (967) 
Ref-Lig

>  <s_sd_BIOSOLVEIT.INFINISEE\_QUERY\_SMILES>  (967) 
S(c1nc2c(cc1C[NH2+]Cc3ccc(cc3)C[NH+](C)C)cccc2)Cc4ccccc4

>  <s_sd_BIOSOLVEIT.INFINISEE\_REACTION\_NAME>  (967) 
a4

>  <s_sd_BIOSOLVEIT.INFINISEE\_REAGENT1\_SMILES>  (967) 
[R1*]NCc1ccc(cc1)C(O)C

>  <s_sd_BIOSOLVEIT.INFINISEE\_REAGENT2\_SMILES>  (967) 
[R1*]CC=1C(=NN(C1)Cc2ccccc2)c3ccccc3

>  <s_sd_BIOSOLVEIT.INFINISEE\_SPACE>  (967) 
FreedomSpace_5bn_2023-06

>  <s_vsw_compound_code>  (967) 
6081

>  <s_vsw_variant>  (967) 
6081-2

>  <r_epik_Charging_Adjusted_Penalty>  (967) 
0.17499113647254699

>  <r_epik_Ionization_Penalty>  (967) 
0.087499999999999994

>  <r_epik_Ionization_Penalty_Charging>  (967) 
0.087499999999999994

>  <r_epik_Ionization_Penalty_Neutral>  (967) 
0

>  <r_epik_State_Penalty>  (967) 
0.087499999999999994

>  <r_i_docking_score>  (967) 
-4.85891735735908

>  <r_i_glide_ecoul>  (967) 
-10.2376546859741

>  <r_i_glide_eff_state_penalty>  (967) 
0.087499999999999994

>  <r_i_glide_einternal>  (967) 
3.2590596675872798

>  <r_i_glide_emodel>  (967) 
-62.989164598231703

>  <r_i_glide_energy>  (967) 
-44.858012199401898

>  <r_i_glide_erotb>  (967) 
0.98655959359432499

>  <r_i_glide_esite>  (967) 
-0.10677980618834

>  <r_i_glide_evdw>  (967) 
-34.620357513427699

>  <r_i_glide_gscore>  (967) 
-4.9464173573590804

>  <r_i_glide_hbond>  (967) 
-0.022388766512619399

>  <r_i_glide_ligand_efficiency>  (967) 
-0.16196391191196899

>  <r_i_glide_ligand_efficiency_ln>  (967) 
-1.10399896573692

>  <r_i_glide_ligand_efficiency_sa>  (967) 
-0.503259531313757

>  <r_i_glide_lipo>  (967) 
-1.6202333451394899

>  <r_i_glide_metal>  (967) 
-0

>  <r_i_glide_rewards>  (967) 
-0.91690895454545296

>  <r_lp_Energy>  (967) 
14.03364

>  <r_lp_tautomer_probability>  (967) 
1

>  <r_qp_ACxDN^.5/SA>  (967) 
0.0095285999999999999

>  <r_qp_CIQPlogS>  (967) 
-5.6630000000000003

>  <r_qp_EA(eV)>  (967) 
0.084000000000000005

>  <r_qp_FISA>  (967) 
69.391999999999996

>  <r_qp_FOSA>  (967) 
181.089

>  <r_qp_IP(eV)>  (967) 
8.8689999999999998

>  <r_qp_Jm>  (967) 
0.030123281015136401

>  <r_qp_PISA>  (967) 
447.08199999999999

>  <r_qp_PSA>  (967) 
50.789000000000001

>  <r_qp_PercentHumanOralAbsorption>  (967) 
100

>  <r_qp_QPPCaco>  (967) 
542.94299999999998

>  <r_qp_QPPMDCK>  (967) 
282.83300000000003

>  <r_qp_QPlogBB>  (967) 
-0.191

>  <r_qp_QPlogHERG>  (967) 
-7.1349999999999998

>  <r_qp_QPlogKhsa>  (967) 
0.87

>  <r_qp_QPlogKp>  (967) 
-2.5179999999999998

>  <r_qp_QPlogPC16>  (967) 
14.473000000000001

>  <r_qp_QPlogPo/w>  (967) 
4.8970000000000002

>  <r_qp_QPlogPoct>  (967) 
20.786999999999999

>  <r_qp_QPlogPw>  (967) 
10.705

>  <r_qp_QPlogS>  (967) 
-4.6020000000000003

>  <r_qp_QPpolrz>  (967) 
45.436

>  <r_qp_SASA>  (967) 
697.56299999999999

>  <r_qp_SAamideO>  (967) 
0

>  <r_qp_SAfluorine>  (967) 
0

>  <r_qp_WPSA>  (967) 
0

>  <r_qp_accptHB>  (967) 
4.7000000000000002

>  <r_qp_dip^2/V>  (967) 
0.0203897

>  <r_qp_dipole>  (967) 
5.1699999999999999

>  <r_qp_donorHB>  (967) 
2

>  <r_qp_glob>  (967) 
0.83035740000000002

>  <r_qp_mol_MW>  (967) 
397.51900000000001

>  <r_qp_volume>  (967) 
1310.7650000000001

>  <r_sd_BIOSOLVEIT.INFINISEE\_FTREES\_SIMILARITY>  (967) 
0.92400000000000004

>  <r_sd_BIOSOLVEIT.LOGP>  (967) 
3.9152999999999998

>  <r_sd_BIOSOLVEIT.MOLECULAR\_WEIGHT>  (967) 
398.52699999999999

>  <r_sd_BIOSOLVEIT.TPSA>  (967) 
54.659999999999997

>  <i_epik_Tot_Q>  (967) 
1

>  <i_epik_Tot_abs_Q>  (967) 
1

>  <i_f3d_flags>  (967) 
0

>  <i_i_glide_confnum>  (967) 
7

>  <i_i_glide_lignum>  (967) 
41

>  <i_i_glide_posenum>  (967) 
19

>  <i_i_glide_rotatable_bonds>  (967) 
9

>  <i_lp_mmshare_version>  (967) 
65135

>  <i_m_ct_format>  (967) 
2

>  <i_m_source_file_index>  (967) 
191

>  <i_qp_#NandO>  (967) 
4

>  <i_qp_#acid>  (967) 
0

>  <i_qp_#amide>  (967) 
0

>  <i_qp_#amidine>  (967) 
0

>  <i_qp_#amine>  (967) 
1

>  <i_qp_#in34>  (967) 
0

>  <i_qp_#in56>  (967) 
23

>  <i_qp_#metab>  (967) 
5

>  <i_qp_#nonHatm>  (967) 
30

>  <i_qp_#noncon>  (967) 
0

>  <i_qp_#ringatoms>  (967) 
23

>  <i_qp_#rotor>  (967) 
8

>  <i_qp_#rtvFG>  (967) 
0

>  <i_qp_#stars>  (967) 
0

>  <i_qp_CNS>  (967) 
1

>  <i_qp_HumanOralAbsorption>  (967) 
3

>  <i_qp_RuleOfFive>  (967) 
0

>  <i_qp_RuleOfThree>  (967) 
0

>  <i_sd_BIOSOLVEIT.INFINISEE\_REAGENT1\_NAME>  (967) 
45926

>  <i_sd_BIOSOLVEIT.INFINISEE\_REAGENT2\_NAME>  (967) 
276639

>  <i_sd_BIOSOLVEIT.INFINISEE\_RESULT\_RANK>  (967) 
10317

>  <i_sd_version>  (967) 
0

>  <b_lp_Chiralities_Consistent>  (967) 
1

>  <b_sd_chiral_flag>  (967) 
0

>  <canonical_id>  (967) 
ATP-HTVS-99B36318F637

>  <compound_code>  (967) 
6081

>  <title>  (967) 
a4____45926____276639

>  <variant>  (967) 
6081-2

>  <source_file>  (967) 
运行/运行/ATP-VSW/ATP-VSW-DOCK_HTVS_1-001_lib/ATP-VSW-DOCK_HTVS_1-001_lib

>  <canonical_smiles>  (967) 
C[C@H](O)c1ccc(C[NH2+]Cc2cn(Cc3ccccc3)nc2-c2ccccc2)cc1

>  <scaffold>  (967) 
c1ccc(C[NH2+]Cc2cn(Cc3ccccc3)nc2-c2ccccc2)cc1

>  <molecular_formula>  (967) 
C26H28N3O+

$$$$
ATP-HTVS-99E4671812AC
     RDKit          3D

 64 67  0  0  0  0  0  0  0  0999 V2000
  197.5603  185.0393  152.7883 O   0  0  0  0  0  0  0  0  0  0  0  0
  197.6296  183.9086  153.2749 C   0  0  0  0  0  0  0  0  0  0  0  0
  197.7980  183.6253  154.5786 N   0  0  0  0  0  0  0  0  0  0  0  0
  197.8827  184.4777  155.7056 C   0  0  0  0  0  0  0  0  0  0  0  0
  197.7939  185.8251  155.6032 N   0  0  0  0  0  0  0  0  0  0  0  0
  197.8297  186.5986  156.7045 C   0  0  0  0  0  0  0  0  0  0  0  0
  197.9625  186.0429  157.9994 C   0  0  0  0  0  0  0  0  0  0  0  0
  198.0625  184.6436  158.1230 C   0  0  0  0  0  0  0  0  0  0  0  0
  198.0166  183.8329  156.9687 C   0  0  0  0  0  0  0  0  0  0  0  0
  198.0444  182.4216  157.1078 N   0  0  0  0  0  0  0  0  0  0  0  0
  198.8929  181.5216  156.4186 C   0  0  0  0  0  0  0  0  0  0  0  0
  200.1699  181.9556  155.9746 C   0  0  0  0  0  0  0  0  0  0  0  0
  201.0370  181.0768  155.2896 C   0  0  0  0  0  0  0  0  0  0  0  0
  200.6474  179.7450  155.0459 C   0  0  0  0  0  0  0  0  0  0  0  0
  199.3840  179.3024  155.4823 C   0  0  0  0  0  0  0  0  0  0  0  0
  198.5121  180.1831  156.1463 C   0  0  0  0  0  0  0  0  0  0  0  0
  196.9789  181.8805  157.9629 C   0  0  1  0  0  0  0  0  0  0  0  0
  195.5915  182.0822  157.3129 C   0  0  1  0  0  0  0  0  0  0  0  0
  194.5276  181.4506  158.0957 N   0  0  2  0  0  0  0  0  0  0  0  0
  197.9984  186.8652  159.1444 C   0  0  0  0  0  0  0  0  0  0  0  0
  197.9224  188.2650  159.0037 C   0  0  0  0  0  0  0  0  0  0  0  0
  197.7952  188.8315  157.7215 C   0  0  0  0  0  0  0  0  0  0  0  0
  197.7497  188.0004  156.5850 C   0  0  0  0  0  0  0  0  0  0  0  0
  197.5902  182.6991  152.3838 C   0  0  0  0  0  0  0  0  0  0  0  0
  198.1218  182.7714  151.0779 C   0  0  0  0  0  0  0  0  0  0  0  0
  198.1043  181.6453  150.2334 C   0  0  0  0  0  0  0  0  0  0  0  0
  197.5467  180.4319  150.6845 C   0  0  0  0  0  0  0  0  0  0  0  0
  196.9832  180.3618  151.9769 C   0  0  0  0  0  0  0  0  0  0  0  0
  197.0040  181.4871  152.8223 C   0  0  0  0  0  0  0  0  0  0  0  0
  197.5583  179.2067  149.7874 C   0  0  1  0  0  0  0  0  0  0  0  0
  198.7882  178.3875  149.9528 N   0  0  1  0  0  0  0  0  0  0  0  0
  198.9573  177.8192  151.3133 C   0  0  2  0  0  0  0  0  0  0  0  0
  198.8966  177.3398  148.9107 C   0  0  2  0  0  0  0  0  0  0  0  0
  193.6538  181.6100  157.6185 H   0  0  0  0  0  0  0  0  0  0  0  0
  194.4935  181.8157  159.0292 H   0  0  0  0  0  0  0  0  0  0  0  0
  197.8823  182.6488  154.8180 H   0  0  0  0  0  0  0  0  0  0  0  0
  198.1571  184.2013  159.1031 H   0  0  0  0  0  0  0  0  0  0  0  0
  200.4879  182.9747  156.1559 H   0  0  0  0  0  0  0  0  0  0  0  0
  202.0036  181.4249  154.9441 H   0  0  0  0  0  0  0  0  0  0  0  0
  201.3177  179.0634  154.5381 H   0  0  0  0  0  0  0  0  0  0  0  0
  199.0739  178.2833  155.3142 H   0  0  0  0  0  0  0  0  0  0  0  0
  197.5470  179.7906  156.4357 H   0  0  0  0  0  0  0  0  0  0  0  0
  197.1675  180.8269  158.1905 H   0  0  0  0  0  0  0  0  0  0  0  0
  196.9872  182.3790  158.9364 H   0  0  0  0  0  0  0  0  0  0  0  0
  195.3520  183.1454  157.2126 H   0  0  0  0  0  0  0  0  0  0  0  0
  195.5610  181.6407  156.3122 H   0  0  0  0  0  0  0  0  0  0  0  0
  198.1012  186.4364  160.1315 H   0  0  0  0  0  0  0  0  0  0  0  0
  197.9714  188.9011  159.8781 H   0  0  0  0  0  0  0  0  0  0  0  0
  197.7346  189.9042  157.6040 H   0  0  0  0  0  0  0  0  0  0  0  0
  197.6667  188.4246  155.5957 H   0  0  0  0  0  0  0  0  0  0  0  0
  198.5561  183.6943  150.7209 H   0  0  0  0  0  0  0  0  0  0  0  0
  198.5299  181.7199  149.2433 H   0  0  0  0  0  0  0  0  0  0  0  0
  196.5403  179.4437  152.3364 H   0  0  0  0  0  0  0  0  0  0  0  0
  196.5759  181.4044  153.8120 H   0  0  0  0  0  0  0  0  0  0  0  0
  196.6701  178.6065  149.9850 H   0  0  0  0  0  0  0  0  0  0  0  0
  197.4815  179.5378  148.7496 H   0  0  0  0  0  0  0  0  0  0  0  0
  198.1171  177.1716  151.5653 H   0  0  0  0  0  0  0  0  0  0  0  0
  199.0332  178.5981  152.0724 H   0  0  0  0  0  0  0  0  0  0  0  0
  199.8727  177.2289  151.3811 H   0  0  0  0  0  0  0  0  0  0  0  0
  198.0775  176.6228  148.9857 H   0  0  0  0  0  0  0  0  0  0  0  0
  199.8340  176.7906  149.0072 H   0  0  0  0  0  0  0  0  0  0  0  0
  198.8749  177.7750  147.9107 H   0  0  0  0  0  0  0  0  0  0  0  0
  194.7572  180.4526  158.1234 H   0  0  0  0  0  0  0  0  0  0  0  0
  199.5666  179.0161  149.8083 H   0  0  0  0  0  0  0  0  0  0  0  0
  1  2  2  0
  2  3  1  0
  2 24  1  0
  3  4  1  0
  3 36  1  0
  4  5  2  0
  4  9  1  0
  5  6  1  0
  6  7  1  0
  6 23  2  0
  7  8  1  0
  7 20  2  0
  8  9  2  0
  8 37  1  0
  9 10  1  0
 10 11  1  0
 10 17  1  0
 11 12  2  0
 11 16  1  0
 12 13  1  0
 12 38  1  0
 13 14  2  0
 13 39  1  0
 14 15  1  0
 14 40  1  0
 15 16  2  0
 15 41  1  0
 16 42  1  0
 17 18  1  0
 17 43  1  1
 17 44  1  0
 18 19  1  0
 18 45  1  6
 18 46  1  0
 19 34  1  6
 19 35  1  0
 19 63  1  0
 20 21  1  0
 20 47  1  0
 21 22  2  0
 21 48  1  0
 22 23  1  0
 22 49  1  0
 23 50  1  0
 24 25  1  0
 24 29  2  0
 25 26  2  0
 25 51  1  0
 26 27  1  0
 26 52  1  0
 27 28  2  0
 27 30  1  0
 28 29  1  0
 28 53  1  0
 29 54  1  0
 30 31  1  0
 30 55  1  1
 30 56  1  0
 31 32  1  0
 31 33  1  0
 31 64  1  6
 32 57  1  1
 32 58  1  0
 32 59  1  0
 33 60  1  6
 33 61  1  0
 33 62  1  0
M  CHG  2  19   1  31   1
M  END
>  <s_epik_cmdline>  (968) 
J2VwaWtfcHl0aG9uJywgJy1waCcsICc3LjAwMDAwMCcsICctcGh0JywgJzIuMDAwMDAwJywgJy1tcycsICcxNicsICctdG4nLCAnOCcsICctbWEnLCAnMjAwJywgJy1pbWFlJywgJzxpbmZpbGUubWFlPicsICctb21hZScsICc8b3V0ZmlsZS5tYWU+Jw==

>  <s_epik_input>  (968) 
W0NIM11OKFtDSDNdKVtDSDJdYyhbY0hdW2NIXTEpW2NIXVtjSF1jMUMoPU8pW05IXWMobjIpYyhbY0hdYyhjMjMpW2NIXVtjSF1bY0hdW2NIXTMpTihbQ0gyXVtDSDJdW05IMl0pYzRbY0hdW2NIXVtjSF1bY0hdW2NIXTQ=

>  <s_i_glide_gridfile>  (968) 
ATP-Grid

>  <s_lp_Force_Field>  (968) 
OPLS_2005

>  <s_lp_Variant>  (968) 
rxn502b____EMOL18624763____EMOL44466703____EMOL530647-1

>  <s_lp_label>  (968) 
2732_sdstereoexpander_1_neutralizer_1_epik_1_stereoizer_1

>  <s_m_source_file>  (968) 
ATP-VSW-LIGPREP-001-in.maegz

>  <s_sd_BIOSOLVEIT.INFINISEE\_QUERY\_NAME>  (968) 
Ref-Lig

>  <s_sd_BIOSOLVEIT.INFINISEE\_QUERY\_SMILES>  (968) 
S(c1nc2c(cc1C[NH2+]Cc3ccc(cc3)C[NH+](C)C)cccc2)Cc4ccccc4

>  <s_sd_BIOSOLVEIT.INFINISEE\_REACTION\_NAME>  (968) 
rxn502b

>  <s_sd_BIOSOLVEIT.INFINISEE\_REAGENT1\_NAME>  (968) 
EMOL18624763

>  <s_sd_BIOSOLVEIT.INFINISEE\_REAGENT1\_SMILES>  (968) 
O=C(O)c1ccc(cc1)CN(C)C

>  <s_sd_BIOSOLVEIT.INFINISEE\_REAGENT2\_NAME>  (968) 
EMOL44466703

>  <s_sd_BIOSOLVEIT.INFINISEE\_REAGENT2\_SMILES>  (968) 
Brc1c(nc2c(c1)cccc2)N

>  <s_sd_BIOSOLVEIT.INFINISEE\_REAGENT3\_NAME>  (968) 
EMOL530647

>  <s_sd_BIOSOLVEIT.INFINISEE\_REAGENT3\_SMILES>  (968) 
N(c1ccccc1)CCN

>  <s_sd_BIOSOLVEIT.INFINISEE\_SPACE>  (968) 
eXplore_7tr_2022-12

>  <s_vsw_compound_code>  (968) 
87393

>  <s_vsw_variant>  (968) 
87393-1

>  <r_epik_Charging_Adjusted_Penalty>  (968) 
0.105280166289174

>  <r_epik_Ionization_Penalty>  (968) 
0.053100000000000001

>  <r_epik_Ionization_Penalty_Charging>  (968) 
0.053100000000000001

>  <r_epik_Ionization_Penalty_Neutral>  (968) 
0

>  <r_epik_State_Penalty>  (968) 
0.052200000000000003

>  <r_i_docking_score>  (968) 
-5.2177363440788698

>  <r_i_glide_ecoul>  (968) 
-14.479702949523899

>  <r_i_glide_eff_state_penalty>  (968) 
0.052200000000000003

>  <r_i_glide_einternal>  (968) 
1.2992190122604399

>  <r_i_glide_emodel>  (968) 
-67.505229126075506

>  <r_i_glide_energy>  (968) 
-44.979018211364703

>  <r_i_glide_erotb>  (968) 
0.50200920846219799

>  <r_i_glide_esite>  (968) 
-0.15091061377756301

>  <r_i_glide_evdw>  (968) 
-30.499315261840799

>  <r_i_glide_gscore>  (968) 
-5.2699363440788698

>  <r_i_glide_hbond>  (968) 
-0.21593015372247201

>  <r_i_glide_ligand_efficiency>  (968) 
-0.15811322254784399

>  <r_i_glide_ligand_efficiency_ln>  (968) 
-1.1603975469302199

>  <r_i_glide_ligand_efficiency_sa>  (968) 
-0.50715358875739203

>  <r_i_glide_lipo>  (968) 
-0.77978317042948997

>  <r_i_glide_metal>  (968) 
-0

>  <r_i_glide_rewards>  (968) 
-0.92840040909090804

>  <r_lp_Energy>  (968) 
33.412171999999998

>  <r_qp_ACxDN^.5/SA>  (968) 
0.016577499999999998

>  <r_qp_CIQPlogS>  (968) 
-4.4420000000000002

>  <r_qp_EA(eV)>  (968) 
1.0109999999999999

>  <r_qp_FISA>  (968) 
114.226

>  <r_qp_FOSA>  (968) 
202.60400000000001

>  <r_qp_IP(eV)>  (968) 
8.3879999999999999

>  <r_qp_Jm>  (968) 
0.00181091437133266

>  <r_qp_PISA>  (968) 
414.54599999999999

>  <r_qp_PSA>  (968) 
77.619

>  <r_qp_PercentHumanOralAbsorption>  (968) 
78.009

>  <r_qp_QPPCaco>  (968) 
50.874000000000002

>  <r_qp_QPPMDCK>  (968) 
24.210000000000001

>  <r_qp_QPlogBB>  (968) 
-0.29299999999999998

>  <r_qp_QPlogHERG>  (968) 
-7.7439999999999998

>  <r_qp_QPlogKhsa>  (968) 
0.59599999999999997

>  <r_qp_QPlogKp>  (968) 
-5.4249999999999998

>  <r_qp_QPlogPC16>  (968) 
15.599

>  <r_qp_QPlogPo/w>  (968) 
3.5049999999999999

>  <r_qp_QPlogPoct>  (968) 
24.829000000000001

>  <r_qp_QPlogPw>  (968) 
14.379

>  <r_qp_QPlogS>  (968) 
-2.96

>  <r_qp_QPpolrz>  (968) 
48.106000000000002

>  <r_qp_SASA>  (968) 
731.37599999999998

>  <r_qp_SAamideO>  (968) 
0

>  <r_qp_SAfluorine>  (968) 
0

>  <r_qp_WPSA>  (968) 
0

>  <r_qp_accptHB>  (968) 
7

>  <r_qp_dip^2/V>  (968) 
0.038419099999999998

>  <r_qp_dipole>  (968) 
7.3369999999999997

>  <r_qp_donorHB>  (968) 
3

>  <r_qp_glob>  (968) 
0.82802690000000001

>  <r_qp_mol_MW>  (968) 
439.55900000000003

>  <r_qp_volume>  (968) 
1401.296

>  <r_sd_BIOSOLVEIT.INFINISEE\_FTREES\_SIMILARITY>  (968) 
0.90800000000000003

>  <r_sd_BIOSOLVEIT.LOGP>  (968) 
2.5116000000000001

>  <r_sd_BIOSOLVEIT.MOLECULAR\_WEIGHT>  (968) 
441.57600000000002

>  <r_sd_BIOSOLVEIT.TPSA>  (968) 
77.310000000000002

>  <i_epik_Tot_Q>  (968) 
2

>  <i_epik_Tot_abs_Q>  (968) 
2

>  <i_f3d_flags>  (968) 
0

>  <i_i_glide_confnum>  (968) 
8

>  <i_i_glide_lignum>  (968) 
1212

>  <i_i_glide_posenum>  (968) 
15

>  <i_i_glide_rotatable_bonds>  (968) 
9

>  <i_lp_mmshare_version>  (968) 
65135

>  <i_m_ct_format>  (968) 
2

>  <i_m_source_file_index>  (968) 
2732

>  <i_qp_#NandO>  (968) 
6

>  <i_qp_#acid>  (968) 
0

>  <i_qp_#amide>  (968) 
0

>  <i_qp_#amidine>  (968) 
0

>  <i_qp_#amine>  (968) 
2

>  <i_qp_#in34>  (968) 
0

>  <i_qp_#in56>  (968) 
22

>  <i_qp_#metab>  (968) 
6

>  <i_qp_#nonHatm>  (968) 
33

>  <i_qp_#noncon>  (968) 
0

>  <i_qp_#ringatoms>  (968) 
22

>  <i_qp_#rotor>  (968) 
9

>  <i_qp_#rtvFG>  (968) 
0

>  <i_qp_#stars>  (968) 
0

>  <i_qp_CNS>  (968) 
0

>  <i_qp_HumanOralAbsorption>  (968) 
3

>  <i_qp_RuleOfFive>  (968) 
0

>  <i_qp_RuleOfThree>  (968) 
0

>  <i_sd_BIOSOLVEIT.INFINISEE\_RESULT\_RANK>  (968) 
56138

>  <i_sd_version>  (968) 
0

>  <b_lp_Chiralities_Consistent>  (968) 
1

>  <b_sd_chiral_flag>  (968) 
0

>  <canonical_id>  (968) 
ATP-HTVS-99E4671812AC

>  <compound_code>  (968) 
87393

>  <title>  (968) 
rxn502b____EMOL18624763____EMOL44466703____EMOL530647

>  <variant>  (968) 
87393-1

>  <source_file>  (968) 
运行/运行/ATP-VSW/ATP-VSW-DOCK_HTVS_1-001_lib/ATP-VSW-DOCK_HTVS_1-001_lib

>  <canonical_smiles>  (968) 
C[NH+](C)Cc1ccc(C(=O)Nc2nc3ccccc3cc2N(CC[NH3+])c2ccccc2)cc1

>  <scaffold>  (968) 
O=C(Nc1nc2ccccc2cc1Nc1ccccc1)c1ccccc1

>  <molecular_formula>  (968) 
C27H31N5O+2

$$$$
ATP-HTVS-9A332D1A0286
     RDKit          3D

 58 61  0  0  0  0  0  0  0  0999 V2000
  198.0987  185.8998  154.2418 O   0  0  0  0  0  0  0  0  0  0  0  0
  198.1126  185.1229  155.2062 C   0  0  0  0  0  0  0  0  0  0  0  0
  197.6052  185.4089  156.4064 N   0  0  0  0  0  0  0  0  0  0  0  0
  196.8680  186.6179  156.7458 C   0  0  1  0  0  0  0  0  0  0  0  0
  196.5293  186.7141  158.2287 C   0  0  0  0  0  0  0  0  0  0  0  0
  195.9998  185.6211  158.9783 C   0  0  0  0  0  0  0  0  0  0  0  0
  195.7578  184.3810  158.3586 N   0  0  0  0  0  0  0  0  0  0  0  0
  195.4043  183.1660  159.0774 C   0  0  1  0  0  0  0  0  0  0  0  0
  194.6027  182.2189  158.1833 C   0  0  1  0  0  0  0  0  0  0  0  0
  194.3386  181.0558  158.9411 O   0  0  0  0  0  0  0  0  0  0  0  0
  195.7101  185.8155  160.3497 C   0  0  0  0  0  0  0  0  0  0  0  0
  195.9387  187.0570  160.9614 C   0  0  0  0  0  0  0  0  0  0  0  0
  196.4665  188.1263  160.2245 C   0  0  0  0  0  0  0  0  0  0  0  0
  196.7570  187.9548  158.8606 C   0  0  0  0  0  0  0  0  0  0  0  0
  198.7281  183.7512  155.1418 C   0  0  0  0  0  0  0  0  0  0  0  0
  200.0225  183.5200  154.5810 C   0  0  0  0  0  0  0  0  0  0  0  0
  200.5126  182.1891  154.5769 C   0  0  0  0  0  0  0  0  0  0  0  0
  199.8221  181.1828  155.1191 N   0  0  0  0  0  0  0  0  0  0  0  0
  198.6054  181.3592  155.6266 C   0  0  0  0  0  0  0  0  0  0  0  0
  197.9318  180.2128  156.0624 N   0  0  0  0  0  0  0  0  0  0  0  0
  198.0506  178.9239  155.3603 C   0  0  1  0  0  0  0  0  0  0  0  0
  199.4339  178.2779  155.2101 C   0  0  0  0  0  0  0  0  0  0  0  0
  199.8886  177.2997  156.1213 C   0  0  0  0  0  0  0  0  0  0  0  0
  201.1987  176.7818  156.0236 C   0  0  0  0  0  0  0  0  0  0  0  0
  202.0748  177.2610  155.0263 C   0  0  0  0  0  0  0  0  0  0  0  0
  201.6131  178.2100  154.0966 C   0  0  0  0  0  0  0  0  0  0  0  0
  200.2850  178.6565  154.1439 C   0  0  0  0  0  0  0  0  0  0  0  0
  198.0052  182.6361  155.6596 C   0  0  0  0  0  0  0  0  0  0  0  0
  201.7565  181.9178  153.9731 C   0  0  0  0  0  0  0  0  0  0  0  0
  202.5523  182.9298  153.4152 C   0  0  0  0  0  0  0  0  0  0  0  0
  202.1024  184.2610  153.4699 C   0  0  0  0  0  0  0  0  0  0  0  0
  200.8404  184.5619  154.0392 C   0  0  0  0  0  0  0  0  0  0  0  0
  197.7079  184.7057  157.1363 H   0  0  0  0  0  0  0  0  0  0  0  0
  197.4757  187.4667  156.4292 H   0  0  0  0  0  0  0  0  0  0  0  0
  195.9480  186.6445  156.1590 H   0  0  0  0  0  0  0  0  0  0  0  0
  195.9802  184.2856  157.3746 H   0  0  0  0  0  0  0  0  0  0  0  0
  196.3318  182.6895  159.4065 H   0  0  0  0  0  0  0  0  0  0  0  0
  194.7959  183.3746  159.9578 H   0  0  0  0  0  0  0  0  0  0  0  0
  193.6538  182.6751  157.8989 H   0  0  0  0  0  0  0  0  0  0  0  0
  195.1405  181.9548  157.2763 H   0  0  0  0  0  0  0  0  0  0  0  0
  194.8457  180.3405  158.5372 H   0  0  0  0  0  0  0  0  0  0  0  0
  195.3143  185.0268  160.9678 H   0  0  0  0  0  0  0  0  0  0  0  0
  195.7204  187.1768  162.0113 H   0  0  0  0  0  0  0  0  0  0  0  0
  196.6511  189.0728  160.7115 H   0  0  0  0  0  0  0  0  0  0  0  0
  197.1572  188.7893  158.3027 H   0  0  0  0  0  0  0  0  0  0  0  0
  197.0870  180.3076  156.6148 H   0  0  0  0  0  0  0  0  0  0  0  0
  197.4117  178.2237  155.8914 H   0  0  0  0  0  0  0  0  0  0  0  0
  197.6068  179.0264  154.3711 H   0  0  0  0  0  0  0  0  0  0  0  0
  199.2370  176.9682  156.9270 H   0  0  0  0  0  0  0  0  0  0  0  0
  201.5470  176.0352  156.7237 H   0  0  0  0  0  0  0  0  0  0  0  0
  203.1076  176.9267  154.9841 H   0  0  0  0  0  0  0  0  0  0  0  0
  202.2941  178.6381  153.3731 H   0  0  0  0  0  0  0  0  0  0  0  0
  199.9394  179.3891  153.4141 H   0  0  0  0  0  0  0  0  0  0  0  0
  196.9976  182.7661  156.0411 H   0  0  0  0  0  0  0  0  0  0  0  0
  202.0897  180.9023  153.9385 H   0  0  0  0  0  0  0  0  0  0  0  0
  203.5123  182.6696  152.9831 H   0  0  0  0  0  0  0  0  0  0  0  0
  202.7465  185.0446  153.0860 H   0  0  0  0  0  0  0  0  0  0  0  0
  200.5544  185.6071  154.0574 H   0  0  0  0  0  0  0  0  0  0  0  0
  1  2  2  0
  2  3  1  0
  2 15  1  0
  3  4  1  0
  3 33  1  0
  4  5  1  0
  4 34  1  6
  4 35  1  0
  5  6  1  0
  5 14  2  0
  6  7  1  0
  6 11  2  0
  7  8  1  0
  7 36  1  0
  8  9  1  0
  8 37  1  1
  8 38  1  0
  9 10  1  0
  9 39  1  6
  9 40  1  0
 10 41  1  0
 11 12  1  0
 11 42  1  0
 12 13  2  0
 12 43  1  0
 13 14  1  0
 13 44  1  0
 14 45  1  0
 15 16  1  0
 15 28  2  0
 16 17  1  0
 16 32  2  0
 17 18  1  0
 17 29  2  0
 18 19  2  0
 19 20  1  0
 19 28  1  0
 20 21  1  0
 20 46  1  0
 21 22  1  0
 21 47  1  1
 21 48  1  0
 22 23  2  0
 22 27  1  0
 23 24  1  0
 23 49  1  0
 24 25  2  0
 24 50  1  0
 25 26  1  0
 25 51  1  0
 26 27  2  0
 26 52  1  0
 27 53  1  0
 28 54  1  0
 29 30  1  0
 29 55  1  0
 30 31  2  0
 30 56  1  0
 31 32  1  0
 31 57  1  0
 32 58  1  0
M  END
>  <s_epik_cmdline>  (969) 
J2VwaWtfcHl0aG9uJywgJy1waCcsICc3LjAwMDAwMCcsICctcGh0JywgJzIuMDAwMDAwJywgJy1tcycsICcxNicsICctdG4nLCAnOCcsICctbWEnLCAnMjAwJywgJy1pbWFlJywgJzxpbmZpbGUubWFlPicsICctb21hZScsICc8b3V0ZmlsZS5tYWU+Jw==

>  <s_epik_input>  (969) 
W09IXVtDSDJdW0NIMl1bTkhdYyhbY0hdW2NIXVtjSF1bY0hdMSljMVtDSDJdW05IXUMoPU8pYzJbY0hdYyhuYyhjMjMpW2NIXVtjSF1bY0hdW2NIXTMpW05IXVtDSDJdYzRbY0hdW2NIXVtjSF1bY0hdW2NIXTQ=

>  <s_i_glide_gridfile>  (969) 
ATP-Grid

>  <s_lp_Force_Field>  (969) 
OPLS_2005

>  <s_lp_Variant>  (969) 
m_22bbc____21205742____16783554-1

>  <s_lp_label>  (969) 
864_sdstereoexpander_1_neutralizer_1_epik_1_stereoizer_1

>  <s_m_source_file>  (969) 
ATP-VSW-LIGPREP-001-in.maegz

>  <s_sd_BIOSOLVEIT.INFINISEE\_QUERY\_NAME>  (969) 
Ref-Lig

>  <s_sd_BIOSOLVEIT.INFINISEE\_QUERY\_SMILES>  (969) 
S(c1nc2c(cc1C[NH2+]Cc3ccc(cc3)C[NH+](C)C)cccc2)Cc4ccccc4

>  <s_sd_BIOSOLVEIT.INFINISEE\_REACTION\_NAME>  (969) 
m_22bbc

>  <s_sd_BIOSOLVEIT.INFINISEE\_REAGENT1\_SMILES>  (969) 
[R1*]NCc1c(NCCO)cccc1

>  <s_sd_BIOSOLVEIT.INFINISEE\_REAGENT2\_SMILES>  (969) 
[R1*]C(=O)c1c2c(nc(NCc3ccccc3)c1)cccc2

>  <s_sd_BIOSOLVEIT.INFINISEE\_SPACE>  (969) 
REALSpace_44bn_2023-08

>  <s_vsw_compound_code>  (969) 
27617

>  <s_vsw_variant>  (969) 
27617-1

>  <r_epik_Charging_Adjusted_Penalty>  (969) 
0

>  <r_epik_Ionization_Penalty>  (969) 
0.002

>  <r_epik_Ionization_Penalty_Charging>  (969) 
0

>  <r_epik_Ionization_Penalty_Neutral>  (969) 
0.002

>  <r_epik_State_Penalty>  (969) 
-0

>  <r_i_docking_score>  (969) 
-3.7722072269634199

>  <r_i_glide_ecoul>  (969) 
-6.8159294128418004

>  <r_i_glide_eff_state_penalty>  (969) 
-0

>  <r_i_glide_einternal>  (969) 
5.0558753013610804

>  <r_i_glide_emodel>  (969) 
-44.782731033643998

>  <r_i_glide_energy>  (969) 
-37.265232086181598

>  <r_i_glide_erotb>  (969) 
1.0910126841227299

>  <r_i_glide_esite>  (969) 
-0.093015939497091304

>  <r_i_glide_evdw>  (969) 
-30.449302673339801

>  <r_i_glide_gscore>  (969) 
-3.7722072269634199

>  <r_i_glide_hbond>  (969) 
-0.235787874674424

>  <r_i_glide_ligand_efficiency>  (969) 
-0.117881475842607

>  <r_i_glide_ligand_efficiency_ln>  (969) 
-0.84470002460255

>  <r_i_glide_ligand_efficiency_sa>  (969) 
-0.37425035708788501

>  <r_i_glide_lipo>  (969) 
-1.4545115033673599

>  <r_i_glide_metal>  (969) 
-0

>  <r_i_glide_rewards>  (969) 
-0.53505004795401201

>  <r_lp_Energy>  (969) 
25.598351999999998

>  <r_lp_tautomer_probability>  (969) 
1

>  <r_qp_ACxDN^.5/SA>  (969) 
0.019554800000000001

>  <r_qp_CIQPlogS>  (969) 
-6.2880000000000003

>  <r_qp_EA(eV)>  (969) 
0.97499999999999998

>  <r_qp_FISA>  (969) 
99.558999999999997

>  <r_qp_FOSA>  (969) 
139.976

>  <r_qp_IP(eV)>  (969) 
8.1080000000000005

>  <r_qp_Jm>  (969) 
2.4594415339204598

>  <r_qp_PISA>  (969) 
445.72000000000003

>  <r_qp_PSA>  (969) 
89.280000000000001

>  <r_qp_PercentHumanOralAbsorption>  (969) 
100

>  <r_qp_QPPCaco>  (969) 
1126.625

>  <r_qp_QPPMDCK>  (969) 
562.75300000000004

>  <r_qp_QPlogBB>  (969) 
-0.95699999999999996

>  <r_qp_QPlogHERG>  (969) 
-6.0789999999999997

>  <r_qp_QPlogKhsa>  (969) 
0.34899999999999998

>  <r_qp_QPlogKp>  (969) 
-0.82399999999999995

>  <r_qp_QPlogPC16>  (969) 
15.218

>  <r_qp_QPlogPo/w>  (969) 
4.1609999999999996

>  <r_qp_QPlogPoct>  (969) 
25.039999999999999

>  <r_qp_QPlogPw>  (969) 
15.329000000000001

>  <r_qp_QPlogS>  (969) 
-4.415

>  <r_qp_QPpolrz>  (969) 
44.610999999999997

>  <r_qp_SASA>  (969) 
685.255

>  <r_qp_SAamideO>  (969) 
0

>  <r_qp_SAfluorine>  (969) 
0

>  <r_qp_WPSA>  (969) 
0

>  <r_qp_accptHB>  (969) 
6.7000000000000002

>  <r_qp_dip^2/V>  (969) 
0.048606099999999999

>  <r_qp_dipole>  (969) 
8.0180000000000007

>  <r_qp_donorHB>  (969) 
4

>  <r_qp_glob>  (969) 
0.85033990000000004

>  <r_qp_mol_MW>  (969) 
426.517

>  <r_qp_volume>  (969) 
1322.5730000000001

>  <r_sd_BIOSOLVEIT.INFINISEE\_FTREES\_SIMILARITY>  (969) 
0.92000000000000004

>  <r_sd_BIOSOLVEIT.LOGP>  (969) 
4.1810999999999998

>  <r_sd_BIOSOLVEIT.MOLECULAR\_WEIGHT>  (969) 
426.517

>  <r_sd_BIOSOLVEIT.TPSA>  (969) 
86.280000000000001

>  <i_epik_Tot_Q>  (969) 
0

>  <i_epik_Tot_abs_Q>  (969) 
0

>  <i_f3d_flags>  (969) 
0

>  <i_i_glide_confnum>  (969) 
1

>  <i_i_glide_lignum>  (969) 
150

>  <i_i_glide_posenum>  (969) 
17

>  <i_i_glide_rotatable_bonds>  (969) 
11

>  <i_lp_mmshare_version>  (969) 
65135

>  <i_m_ct_format>  (969) 
2

>  <i_m_source_file_index>  (969) 
864

>  <i_qp_#NandO>  (969) 
6

>  <i_qp_#acid>  (969) 
0

>  <i_qp_#amide>  (969) 
0

>  <i_qp_#amidine>  (969) 
0

>  <i_qp_#amine>  (969) 
0

>  <i_qp_#in34>  (969) 
0

>  <i_qp_#in56>  (969) 
22

>  <i_qp_#metab>  (969) 
6

>  <i_qp_#nonHatm>  (969) 
32

>  <i_qp_#noncon>  (969) 
0

>  <i_qp_#ringatoms>  (969) 
22

>  <i_qp_#rotor>  (969) 
10

>  <i_qp_#rtvFG>  (969) 
0

>  <i_qp_#stars>  (969) 
0

>  <i_qp_CNS>  (969) 
-1

>  <i_qp_HumanOralAbsorption>  (969) 
3

>  <i_qp_RuleOfFive>  (969) 
0

>  <i_qp_RuleOfThree>  (969) 
0

>  <i_sd_BIOSOLVEIT.INFINISEE\_REAGENT1\_NAME>  (969) 
21205742

>  <i_sd_BIOSOLVEIT.INFINISEE\_REAGENT2\_NAME>  (969) 
16783554

>  <i_sd_BIOSOLVEIT.INFINISEE\_RESULT\_RANK>  (969) 
16043

>  <i_sd_version>  (969) 
0

>  <b_lp_Chiralities_Consistent>  (969) 
1

>  <b_sd_chiral_flag>  (969) 
0

>  <canonical_id>  (969) 
ATP-HTVS-9A332D1A0286

>  <compound_code>  (969) 
27617

>  <title>  (969) 
m_22bbc____21205742____16783554

>  <variant>  (969) 
27617-1

>  <source_file>  (969) 
运行/运行/ATP-VSW/ATP-VSW-DOCK_HTVS_1-001_lib/ATP-VSW-DOCK_HTVS_1-001_lib

>  <canonical_smiles>  (969) 
O=C(NCc1ccccc1NCCO)c1cc(NCc2ccccc2)nc2ccccc12

>  <scaffold>  (969) 
O=C(NCc1ccccc1)c1cc(NCc2ccccc2)nc2ccccc12

>  <molecular_formula>  (969) 
C26H26N4O2

$$$$
ATP-HTVS-9A3A5E055FE2
     RDKit          3D

 63 66  0  0  0  0  0  0  0  0999 V2000
  203.4001  172.9594  155.2047 F   0  0  0  0  0  0  0  0  0  0  0  0
  202.7548  174.0754  154.7825 C   0  0  0  0  0  0  0  0  0  0  0  0
  202.2219  174.1320  153.4740 C   0  0  0  0  0  0  0  0  0  0  0  0
  201.5690  175.3117  153.0455 C   0  0  0  0  0  0  0  0  0  0  0  0
  201.4690  176.4380  153.8888 C   0  0  0  0  0  0  0  0  0  0  0  0
  201.9916  176.3634  155.1979 C   0  0  0  0  0  0  0  0  0  0  0  0
  202.6351  175.1878  155.6420 C   0  0  0  0  0  0  0  0  0  0  0  0
  200.7882  177.7096  153.4034 C   0  0  1  0  0  0  0  0  0  0  0  0
  199.5418  178.0081  154.1223 N   0  0  0  0  0  0  0  0  0  0  0  0
  198.7464  179.0927  153.7556 C   0  0  0  0  0  0  0  0  0  0  0  0
  198.4184  179.9702  154.7263 N   0  0  0  0  0  0  0  0  0  0  0  0
  197.5945  180.9874  154.4650 C   0  0  0  0  0  0  0  0  0  0  0  0
  197.1031  181.2198  153.2414 N   0  0  0  0  0  0  0  0  0  0  0  0
  197.3968  180.3710  152.2201 C   0  0  0  0  0  0  0  0  0  0  0  0
  198.2206  179.2434  152.4590 C   0  0  0  0  0  0  0  0  0  0  0  0
  198.4487  178.3090  151.4174 C   0  0  0  0  0  0  0  0  0  0  0  0
  197.9111  178.5721  150.1338 C   0  0  0  0  0  0  0  0  0  0  0  0
  197.1175  179.7181  149.8863 C   0  0  0  0  0  0  0  0  0  0  0  0
  196.8414  180.6167  150.9413 C   0  0  0  0  0  0  0  0  0  0  0  0
  197.2434  181.8793  155.4725 N   0  0  0  0  0  0  0  0  0  0  0  0
  197.8619  181.8629  156.7947 C   0  0  1  0  0  0  0  0  0  0  0  0
  197.5473  183.0931  157.6600 C   0  0  0  0  0  0  0  0  0  0  0  0
  196.4463  183.1393  158.5721 C   0  0  0  0  0  0  0  0  0  0  0  0
  196.2707  184.2905  159.3739 C   0  0  0  0  0  0  0  0  0  0  0  0
  197.1126  185.4075  159.2249 C   0  0  0  0  0  0  0  0  0  0  0  0
  196.8680  186.5309  159.9496 F   0  0  0  0  0  0  0  0  0  0  0  0
  198.1867  185.3820  158.3104 C   0  0  0  0  0  0  0  0  0  0  0  0
  198.3978  184.2257  157.5342 C   0  0  0  0  0  0  0  0  0  0  0  0
  195.4400  181.9938  158.7349 C   0  0  1  0  0  0  0  0  0  0  0  0
  194.1008  182.2785  158.1420 N   0  0  2  0  0  0  0  0  0  0  0  0
  193.4743  183.5399  158.5968 C   0  0  2  0  0  0  0  0  0  0  0  0
  193.1816  181.1267  158.2710 C   0  0  2  0  0  0  0  0  0  0  0  0
  202.3664  172.9421  152.5270 C   0  0  1  0  0  0  0  0  0  0  0  0
  201.5948  171.8470  152.9182 O   0  0  0  0  0  0  0  0  0  0  0  0
  201.1774  175.3677  152.0445 H   0  0  0  0  0  0  0  0  0  0  0  0
  201.9370  177.2070  155.8739 H   0  0  0  0  0  0  0  0  0  0  0  0
  203.0751  175.1316  156.6348 H   0  0  0  0  0  0  0  0  0  0  0  0
  201.4936  178.5354  153.5547 H   0  0  0  0  0  0  0  0  0  0  0  0
  200.5953  177.6208  152.3318 H   0  0  0  0  0  0  0  0  0  0  0  0
  199.4579  177.6713  155.0649 H   0  0  0  0  0  0  0  0  0  0  0  0
  198.9977  177.4068  151.6212 H   0  0  0  0  0  0  0  0  0  0  0  0
  198.1061  177.8938  149.3180 H   0  0  0  0  0  0  0  0  0  0  0  0
  196.6990  179.9003  148.9046 H   0  0  0  0  0  0  0  0  0  0  0  0
  196.1947  181.4791  150.7761 H   0  0  0  0  0  0  0  0  0  0  0  0
  196.4562  182.4936  155.3013 H   0  0  0  0  0  0  0  0  0  0  0  0
  197.5714  180.9263  157.2847 H   0  0  0  0  0  0  0  0  0  0  0  0
  198.9397  181.8143  156.6772 H   0  0  0  0  0  0  0  0  0  0  0  0
  195.5053  184.3271  160.1339 H   0  0  0  0  0  0  0  0  0  0  0  0
  198.8119  186.2607  158.1951 H   0  0  0  0  0  0  0  0  0  0  0  0
  199.2282  184.2157  156.8441 H   0  0  0  0  0  0  0  0  0  0  0  0
  195.8257  181.0581  158.3195 H   0  0  0  0  0  0  0  0  0  0  0  0
  195.3355  181.7720  159.8058 H   0  0  0  0  0  0  0  0  0  0  0  0
  193.3744  183.5414  159.6759 H   0  0  0  0  0  0  0  0  0  0  0  0
  192.4485  183.6154  158.1778 H   0  0  0  0  0  0  0  0  0  0  0  0
  194.1006  184.4091  158.3364 H   0  0  0  0  0  0  0  0  0  0  0  0
  192.9868  180.8983  159.3167 H   0  0  0  0  0  0  0  0  0  0  0  0
  193.5657  180.2224  157.7955 H   0  0  0  0  0  0  0  0  0  0  0  0
  192.2428  181.3534  157.7743 H   0  0  0  0  0  0  0  0  0  0  0  0
  202.0700  173.2283  151.5130 H   0  0  0  0  0  0  0  0  0  0  0  0
  203.4094  172.6202  152.4769 H   0  0  0  0  0  0  0  0  0  0  0  0
  202.1555  171.2358  153.3956 H   0  0  0  0  0  0  0  0  0  0  0  0
  196.4989  182.0216  153.0756 H   0  0  0  0  0  0  0  0  0  0  0  0
  194.1968  182.4012  157.1279 H   0  0  0  0  0  0  0  0  0  0  0  0
  1  2  1  0
  2  3  2  0
  2  7  1  0
  3  4  1  0
  3 33  1  0
  4  5  2  0
  4 35  1  0
  5  6  1  0
  5  8  1  0
  6  7  2  0
  6 36  1  0
  7 37  1  0
  8  9  1  0
  8 38  1  6
  8 39  1  0
  9 10  1  0
  9 40  1  0
 10 11  2  0
 10 15  1  0
 11 12  1  0
 12 13  2  0
 12 20  1  0
 13 14  1  0
 13 62  1  0
 14 15  1  0
 14 19  2  0
 15 16  2  0
 16 17  1  0
 16 41  1  0
 17 18  2  0
 17 42  1  0
 18 19  1  0
 18 43  1  0
 19 44  1  0
 20 21  1  0
 20 45  1  0
 21 22  1  0
 21 46  1  1
 21 47  1  0
 22 23  2  0
 22 28  1  0
 23 24  1  0
 23 29  1  0
 24 25  2  0
 24 48  1  0
 25 26  1  0
 25 27  1  0
 27 28  2  0
 27 49  1  0
 28 50  1  0
 29 30  1  0
 29 51  1  6
 29 52  1  0
 30 31  1  0
 30 32  1  0
 30 63  1  6
 31 53  1  1
 31 54  1  0
 31 55  1  0
 32 56  1  1
 32 57  1  0
 32 58  1  0
 33 34  1  0
 33 59  1  6
 33 60  1  0
 34 61  1  0
M  CHG  2  13   1  30   1
M  END
>  <s_epik_cmdline>  (970) 
J2VwaWtfcHl0aG9uJywgJy1waCcsICc3LjAwMDAwMCcsICctcGh0JywgJzIuMDAwMDAwJywgJy1tcycsICcxNicsICctdG4nLCAnOCcsICctbWEnLCAnMjAwJywgJy1pbWFlJywgJzxpbmZpbGUubWFlPicsICctb21hZScsICc8b3V0ZmlsZS5tYWU+Jw==

>  <s_epik_input>  (970) 
RmMxYyhbQ0gyXVtPSF0pW2NIXWMoW2NIXVtjSF0xKVtDSDJdW05IXWMoYyhjMjMpW2NIXVtjSF1bY0hdW2NIXTMpbmMobjIpW05IXVtDSDJdYzRjKFtDSDJdTihbQ0gzXSlbQ0gzXSlbY0hdYyhGKVtjSF1bY0hdNA==

>  <s_i_glide_gridfile>  (970) 
ATP-Grid

>  <s_lp_Force_Field>  (970) 
OPLS_2005

>  <s_lp_Variant>  (970) 
m_282030aaa____21905842____22360182____21974936-1

>  <s_lp_label>  (970) 
2102_sdstereoexpander_1_neutralizer_1_epik_1_stereoizer_1

>  <s_m_source_file>  (970) 
ATP-VSW-LIGPREP-003-in.maegz

>  <s_sd_BIOSOLVEIT.INFINISEE\_QUERY\_NAME>  (970) 
Ref-Lig

>  <s_sd_BIOSOLVEIT.INFINISEE\_QUERY\_SMILES>  (970) 
S(c1nc2c(cc1C[NH2+]Cc3ccc(cc3)C[NH+](C)C)cccc2)Cc4ccccc4

>  <s_sd_BIOSOLVEIT.INFINISEE\_REACTION\_NAME>  (970) 
m_282030aaa

>  <s_sd_BIOSOLVEIT.INFINISEE\_REAGENT1\_SMILES>  (970) 
[R1*]NCc1cc(c(F)cc1)CO

>  <s_sd_BIOSOLVEIT.INFINISEE\_REAGENT2\_SMILES>  (970) 
[R2*]c1nc([R1*])c2c(n1)cccc2

>  <s_sd_BIOSOLVEIT.INFINISEE\_REAGENT3\_SMILES>  (970) 
[R2*]NCc1c(cc(F)cc1)CN(C)C

>  <s_sd_BIOSOLVEIT.INFINISEE\_SPACE>  (970) 
REALSpace_44bn_2023-08

>  <s_vsw_compound_code>  (970) 
67235

>  <s_vsw_variant>  (970) 
67235-1

>  <r_epik_Charging_Adjusted_Penalty>  (970) 
0.12911968035791099

>  <r_epik_Ionization_Penalty>  (970) 
0.0613

>  <r_epik_Ionization_Penalty_Charging>  (970) 
0.0613

>  <r_epik_Ionization_Penalty_Neutral>  (970) 
0

>  <r_epik_State_Penalty>  (970) 
0.067799999999999999

>  <r_i_docking_score>  (970) 
-5.0155284627055696

>  <r_i_glide_ecoul>  (970) 
-12.6202182769775

>  <r_i_glide_eff_state_penalty>  (970) 
0.067799999999999999

>  <r_i_glide_einternal>  (970) 
10.603482246398899

>  <r_i_glide_emodel>  (970) 
-66.729999542572401

>  <r_i_glide_energy>  (970) 
-45.496824264526403

>  <r_i_glide_erotb>  (970) 
0.74445570242190595

>  <r_i_glide_esite>  (970) 
-0.242344341941164

>  <r_i_glide_evdw>  (970) 
-32.8766059875488

>  <r_i_glide_gscore>  (970) 
-5.0833284627055697

>  <r_i_glide_hbond>  (970) 
-0.35999999999999999

>  <r_i_glide_ligand_efficiency>  (970) 
-0.14751554302075201

>  <r_i_glide_ligand_efficiency_ln>  (970) 
-1.10807091821986

>  <r_i_glide_ligand_efficiency_sa>  (970) 
-0.47789309348014403

>  <r_i_glide_lipo>  (970) 
-1.1188221464859001

>  <r_i_glide_metal>  (970) 
-0

>  <r_i_glide_rewards>  (970) 
-0.569754635776339

>  <r_lp_Energy>  (970) 
23.580466000000001

>  <r_qp_ACxDN^.5/SA>  (970) 
0.0153787

>  <r_qp_CIQPlogS>  (970) 
-6.0759999999999996

>  <r_qp_EA(eV)>  (970) 
0.73099999999999998

>  <r_qp_FISA>  (970) 
94.409999999999997

>  <r_qp_FOSA>  (970) 
233.244

>  <r_qp_IP(eV)>  (970) 
8.1479999999999997

>  <r_qp_Jm>  (970) 
0.0045790268719100398

>  <r_qp_PISA>  (970) 
344.01600000000002

>  <r_qp_PSA>  (970) 
68.581000000000003

>  <r_qp_PercentHumanOralAbsorption>  (970) 
100

>  <r_qp_QPPCaco>  (970) 
314.41899999999998

>  <r_qp_QPPMDCK>  (970) 
446.05200000000002

>  <r_qp_QPlogBB>  (970) 
-0.40200000000000002

>  <r_qp_QPlogHERG>  (970) 
-7.0119999999999996

>  <r_qp_QPlogKhsa>  (970) 
0.62

>  <r_qp_QPlogKp>  (970) 
-3.1499999999999999

>  <r_qp_QPlogPC16>  (970) 
14.603999999999999

>  <r_qp_QPlogPo/w>  (970) 
4.5819999999999999

>  <r_qp_QPlogPoct>  (970) 
24.280000000000001

>  <r_qp_QPlogPw>  (970) 
13.334

>  <r_qp_QPlogS>  (970) 
-4.8550000000000004

>  <r_qp_QPpolrz>  (970) 
47.323

>  <r_qp_SASA>  (970) 
754.60000000000002

>  <r_qp_SAamideO>  (970) 
0

>  <r_qp_SAfluorine>  (970) 
82.930000000000007

>  <r_qp_WPSA>  (970) 
82.930000000000007

>  <r_qp_accptHB>  (970) 
6.7000000000000002

>  <r_qp_dip^2/V>  (970) 
0.024455000000000001

>  <r_qp_dipole>  (970) 
5.8819999999999997

>  <r_qp_donorHB>  (970) 
3

>  <r_qp_glob>  (970) 
0.80761479999999997

>  <r_qp_mol_MW>  (970) 
463.529

>  <r_qp_volume>  (970) 
1414.5999999999999

>  <r_sd_BIOSOLVEIT.INFINISEE\_FTREES\_SIMILARITY>  (970) 
0.90100000000000002

>  <r_sd_BIOSOLVEIT.LOGP>  (970) 
3.2690000000000001

>  <r_sd_BIOSOLVEIT.MOLECULAR\_WEIGHT>  (970) 
464.53699999999998

>  <r_sd_BIOSOLVEIT.TPSA>  (970) 
74.510000000000005

>  <i_epik_Tot_Q>  (970) 
2

>  <i_epik_Tot_abs_Q>  (970) 
2

>  <i_f3d_flags>  (970) 
0

>  <i_i_glide_confnum>  (970) 
7

>  <i_i_glide_lignum>  (970) 
779

>  <i_i_glide_posenum>  (970) 
1

>  <i_i_glide_rotatable_bonds>  (970) 
10

>  <i_lp_mmshare_version>  (970) 
65135

>  <i_m_ct_format>  (970) 
2

>  <i_m_source_file_index>  (970) 
2102

>  <i_qp_#NandO>  (970) 
6

>  <i_qp_#acid>  (970) 
0

>  <i_qp_#amide>  (970) 
0

>  <i_qp_#amidine>  (970) 
0

>  <i_qp_#amine>  (970) 
1

>  <i_qp_#in34>  (970) 
0

>  <i_qp_#in56>  (970) 
22

>  <i_qp_#metab>  (970) 
5

>  <i_qp_#nonHatm>  (970) 
34

>  <i_qp_#noncon>  (970) 
0

>  <i_qp_#ringatoms>  (970) 
22

>  <i_qp_#rotor>  (970) 
10

>  <i_qp_#rtvFG>  (970) 
0

>  <i_qp_#stars>  (970) 
0

>  <i_qp_CNS>  (970) 
0

>  <i_qp_HumanOralAbsorption>  (970) 
3

>  <i_qp_RuleOfFive>  (970) 
0

>  <i_qp_RuleOfThree>  (970) 
0

>  <i_sd_BIOSOLVEIT.INFINISEE\_REAGENT1\_NAME>  (970) 
21905842

>  <i_sd_BIOSOLVEIT.INFINISEE\_REAGENT2\_NAME>  (970) 
22360182

>  <i_sd_BIOSOLVEIT.INFINISEE\_REAGENT3\_NAME>  (970) 
21974936

>  <i_sd_BIOSOLVEIT.INFINISEE\_RESULT\_RANK>  (970) 
97395

>  <i_sd_version>  (970) 
0

>  <b_lp_Chiralities_Consistent>  (970) 
1

>  <b_sd_chiral_flag>  (970) 
0

>  <canonical_id>  (970) 
ATP-HTVS-9A3A5E055FE2

>  <compound_code>  (970) 
67235

>  <title>  (970) 
m_282030aaa____21905842____22360182____21974936

>  <variant>  (970) 
67235-1

>  <source_file>  (970) 
运行/运行/ATP-VSW/ATP-VSW-DOCK_HTVS_1-003_lib/ATP-VSW-DOCK_HTVS_1-003_lib.mae

>  <canonical_smiles>  (970) 
C[NH+](C)Cc1cc(F)ccc1CNc1nc(NCc2ccc(F)c(CO)c2)c2ccccc2[nH+]1

>  <scaffold>  (970) 
c1ccc(CNc2nc(NCc3ccccc3)c3ccccc3[nH+]2)cc1

>  <molecular_formula>  (970) 
C26H29F2N5O+2

$$$$
ATP-HTVS-9A75570B0E27
     RDKit          3D

 53 55  0  0  0  0  0  0  0  0999 V2000
  198.1067  187.3975  156.2152 S   0  0  0  0  0  0  0  0  0  0  0  0
  199.1072  186.2708  157.1013 C   0  0  0  0  0  0  0  0  0  0  0  0
  200.1486  186.7738  158.0251 C   0  0  0  0  0  0  0  0  0  0  0  0
  201.3064  186.4282  157.8337 O   0  0  0  0  0  0  0  0  0  0  0  0
  199.7720  187.5029  159.1028 N   0  0  0  0  0  0  0  0  0  0  0  0
  198.3790  187.7464  159.5638 C   0  0  1  0  0  0  0  0  0  0  0  0
  197.4568  186.5203  159.6823 C   0  0  0  0  0  0  0  0  0  0  0  0
  196.0577  186.6990  159.7024 C   0  0  0  0  0  0  0  0  0  0  0  0
  195.1886  185.5799  159.7585 C   0  0  0  0  0  0  0  0  0  0  0  0
  195.7139  184.2786  159.7652 C   0  0  0  0  0  0  0  0  0  0  0  0
  197.1108  184.0962  159.7602 C   0  0  0  0  0  0  0  0  0  0  0  0
  197.9593  185.1992  159.7387 C   0  0  0  0  0  0  0  0  0  0  0  0
  200.8012  188.0719  159.9821 C   0  0  2  0  0  0  0  0  0  0  0  0
  198.7699  184.9811  156.8087 C   0  0  0  0  0  0  0  0  0  0  0  0
  197.6853  184.8527  155.8967 C   0  0  0  0  0  0  0  0  0  0  0  0
  197.1528  183.6177  155.4676 N   0  0  0  0  0  0  0  0  0  0  0  0
  197.7741  182.3550  155.4299 C   0  0  0  0  0  0  0  0  0  0  0  0
  199.1802  182.2148  155.4145 C   0  0  0  0  0  0  0  0  0  0  0  0
  199.7654  180.9502  155.4205 C   0  0  0  0  0  0  0  0  0  0  0  0
  198.9626  179.7863  155.4180 C   0  0  0  0  0  0  0  0  0  0  0  0
  197.5590  179.9155  155.3774 C   0  0  0  0  0  0  0  0  0  0  0  0
  196.9688  181.1999  155.3846 C   0  0  0  0  0  0  0  0  0  0  0  0
  199.6233  178.4188  155.4571 C   0  0  1  0  0  0  0  0  0  0  0  0
  199.9529  177.9411  156.8256 N   0  0  2  0  0  0  0  0  0  0  0  0
  200.7499  178.8792  157.6358 C   0  0  2  0  0  0  0  0  0  0  0  0
  200.5783  176.6144  156.7849 C   0  0  2  0  0  0  0  0  0  0  0  0
  197.1803  186.0792  155.5421 C   0  0  0  0  0  0  0  0  0  0  0  0
  198.3840  188.2445  160.5331 H   0  0  0  0  0  0  0  0  0  0  0  0
  197.9234  188.4760  158.8918 H   0  0  0  0  0  0  0  0  0  0  0  0
  195.6339  187.6995  159.6468 H   0  0  0  0  0  0  0  0  0  0  0  0
  194.1220  185.7215  159.7446 H   0  0  0  0  0  0  0  0  0  0  0  0
  195.0629  183.4082  159.7671 H   0  0  0  0  0  0  0  0  0  0  0  0
  197.5344  183.0963  159.7636 H   0  0  0  0  0  0  0  0  0  0  0  0
  199.0313  185.0134  159.8178 H   0  0  0  0  0  0  0  0  0  0  0  0
  201.6871  188.4028  159.4320 H   0  0  0  0  0  0  0  0  0  0  0  0
  201.1287  187.3344  160.7183 H   0  0  0  0  0  0  0  0  0  0  0  0
  200.4408  188.9449  160.5281 H   0  0  0  0  0  0  0  0  0  0  0  0
  199.2529  184.1407  157.3001 H   0  0  0  0  0  0  0  0  0  0  0  0
  196.1981  183.6208  155.1580 H   0  0  0  0  0  0  0  0  0  0  0  0
  199.8308  183.0771  155.4133 H   0  0  0  0  0  0  0  0  0  0  0  0
  200.8458  180.8781  155.4616 H   0  0  0  0  0  0  0  0  0  0  0  0
  196.9290  179.0352  155.3856 H   0  0  0  0  0  0  0  0  0  0  0  0
  195.8874  181.2787  155.3954 H   0  0  0  0  0  0  0  0  0  0  0  0
  198.9615  177.7018  154.9747 H   0  0  0  0  0  0  0  0  0  0  0  0
  200.5327  178.4605  154.8517 H   0  0  0  0  0  0  0  0  0  0  0  0
  201.7080  179.0964  157.1532 H   0  0  0  0  0  0  0  0  0  0  0  0
  200.9607  178.4662  158.6221 H   0  0  0  0  0  0  0  0  0  0  0  0
  200.2239  179.8226  157.7827 H   0  0  0  0  0  0  0  0  0  0  0  0
  201.5501  176.6543  156.2825 H   0  0  0  0  0  0  0  0  0  0  0  0
  199.9613  175.8948  156.2448 H   0  0  0  0  0  0  0  0  0  0  0  0
  200.7536  176.2372  157.7932 H   0  0  0  0  0  0  0  0  0  0  0  0
  196.3181  186.2614  154.9192 H   0  0  0  0  0  0  0  0  0  0  0  0
  199.0375  177.8351  157.3095 H   0  0  0  0  0  0  0  0  0  0  0  0
  1  2  1  0
  1 27  1  0
  2  3  1  0
  2 14  2  0
  3  4  2  0
  3  5  1  0
  5  6  1  0
  5 13  1  0
  6  7  1  0
  6 28  1  1
  6 29  1  0
  7  8  2  0
  7 12  1  0
  8  9  1  0
  8 30  1  0
  9 10  2  0
  9 31  1  0
 10 11  1  0
 10 32  1  0
 11 12  2  0
 11 33  1  0
 12 34  1  0
 13 35  1  6
 13 36  1  0
 13 37  1  0
 14 15  1  0
 14 38  1  0
 15 16  1  0
 15 27  2  0
 16 17  1  0
 16 39  1  0
 17 18  1  0
 17 22  2  0
 18 19  2  0
 18 40  1  0
 19 20  1  0
 19 41  1  0
 20 21  2  0
 20 23  1  0
 21 22  1  0
 21 42  1  0
 22 43  1  0
 23 24  1  0
 23 44  1  6
 23 45  1  0
 24 25  1  0
 24 26  1  0
 24 53  1  1
 25 46  1  6
 25 47  1  0
 25 48  1  0
 26 49  1  6
 26 50  1  0
 26 51  1  0
 27 52  1  0
M  CHG  1  24   1
M  END
>  <s_epik_cmdline>  (971) 
J2VwaWtfcHl0aG9uJywgJy1waCcsICc3LjAwMDAwMCcsICctcGh0JywgJzIuMDAwMDAwJywgJy1tcycsICcxNicsICctdG4nLCAnOCcsICctbWEnLCAnMjAwJywgJy1pbWFlJywgJzxpbmZpbGUubWFlPicsICctb21hZScsICc8b3V0ZmlsZS5tYWU+Jw==

>  <s_epik_input>  (971) 
W0NIM11OKFtDSDNdKVtDSDJdYyhbY0hdW2NIXTEpW2NIXVtjSF1jMVtOSF1jKFtjSF0yKVtjSF1zYzJDKD1PKU4oW0NIM10pW0NIMl1jM1tjSF1bY0hdW2NIXVtjSF1bY0hdMw==

>  <s_i_glide_gridfile>  (971) 
ATP-Grid

>  <s_lp_Force_Field>  (971) 
OPLS_2005

>  <s_lp_Variant>  (971) 
rxn512b____EMOL480996____EMOL720738____EMOL2873068-1

>  <s_lp_label>  (971) 
2595_sdstereoexpander_1_neutralizer_1_epik_1_stereoizer_1

>  <s_m_source_file>  (971) 
ATP-VSW-LIGPREP-001-in.maegz

>  <s_sd_BIOSOLVEIT.INFINISEE\_QUERY\_NAME>  (971) 
Ref-Lig

>  <s_sd_BIOSOLVEIT.INFINISEE\_QUERY\_SMILES>  (971) 
S(c1nc2c(cc1C[NH2+]Cc3ccc(cc3)C[NH+](C)C)cccc2)Cc4ccccc4

>  <s_sd_BIOSOLVEIT.INFINISEE\_REACTION\_NAME>  (971) 
rxn512b

>  <s_sd_BIOSOLVEIT.INFINISEE\_REAGENT1\_NAME>  (971) 
EMOL480996

>  <s_sd_BIOSOLVEIT.INFINISEE\_REAGENT1\_SMILES>  (971) 
N(Cc1ccccc1)C

>  <s_sd_BIOSOLVEIT.INFINISEE\_REAGENT2\_NAME>  (971) 
EMOL720738

>  <s_sd_BIOSOLVEIT.INFINISEE\_REAGENT2\_SMILES>  (971) 
BrC1=CSC(C(=O)O)=C1

>  <s_sd_BIOSOLVEIT.INFINISEE\_REAGENT3\_NAME>  (971) 
EMOL2873068

>  <s_sd_BIOSOLVEIT.INFINISEE\_REAGENT3\_SMILES>  (971) 
N(Cc1ccc(N)cc1)(C)C

>  <s_sd_BIOSOLVEIT.INFINISEE\_SPACE>  (971) 
eXplore_7tr_2022-12

>  <s_vsw_compound_code>  (971) 
83009

>  <s_vsw_variant>  (971) 
83009-1

>  <r_epik_Charging_Adjusted_Penalty>  (971) 
0.078320693119275198

>  <r_epik_Ionization_Penalty>  (971) 
0.039199999999999999

>  <r_epik_Ionization_Penalty_Charging>  (971) 
0.039199999999999999

>  <r_epik_Ionization_Penalty_Neutral>  (971) 
0

>  <r_epik_State_Penalty>  (971) 
0.039199999999999999

>  <r_i_docking_score>  (971) 
-4.5760706909972999

>  <r_i_glide_ecoul>  (971) 
-9.1679639816284197

>  <r_i_glide_eff_state_penalty>  (971) 
0.039199999999999999

>  <r_i_glide_einternal>  (971) 
7.0429582595825204

>  <r_i_glide_emodel>  (971) 
-50.255872365621698

>  <r_i_glide_energy>  (971) 
-37.9018907546997

>  <r_i_glide_erotb>  (971) 
0.80392098850184102

>  <r_i_glide_esite>  (971) 
-0.116044592336946

>  <r_i_glide_evdw>  (971) 
-28.7339267730713

>  <r_i_glide_gscore>  (971) 
-4.6152706909973

>  <r_i_glide_hbond>  (971) 
-0.20000000000000001

>  <r_i_glide_ligand_efficiency>  (971) 
-0.169484099666567

>  <r_i_glide_ligand_efficiency_ln>  (971) 
-1.0652338144426801

>  <r_i_glide_ligand_efficiency_sa>  (971) 
-0.50845229844110795

>  <r_i_glide_lipo>  (971) 
-1.4746677220281399

>  <r_i_glide_metal>  (971) 
-0

>  <r_i_glide_rewards>  (971) 
-0.81658842923622399

>  <r_lp_Energy>  (971) 
26.966246000000002

>  <r_lp_tautomer_probability>  (971) 
0.99999274205267796

>  <r_qp_ACxDN^.5/SA>  (971) 
0.0078405000000000002

>  <r_qp_CIQPlogS>  (971) 
-4.702

>  <r_qp_EA(eV)>  (971) 
0.57599999999999996

>  <r_qp_FISA>  (971) 
51.418999999999997

>  <r_qp_FOSA>  (971) 
283.57299999999998

>  <r_qp_IP(eV)>  (971) 
7.9880000000000004

>  <r_qp_Jm>  (971) 
0.0119366729998584

>  <r_qp_PISA>  (971) 
330.69900000000001

>  <r_qp_PSA>  (971) 
44.930999999999997

>  <r_qp_PercentHumanOralAbsorption>  (971) 
100

>  <r_qp_QPPCaco>  (971) 
803.88099999999997

>  <r_qp_QPPMDCK>  (971) 
678.94799999999998

>  <r_qp_QPlogBB>  (971) 
0.099000000000000005

>  <r_qp_QPlogHERG>  (971) 
-6.9950000000000001

>  <r_qp_QPlogKhsa>  (971) 
0.66600000000000004

>  <r_qp_QPlogKp>  (971) 
-2.6930000000000001

>  <r_qp_QPlogPC16>  (971) 
13.135999999999999

>  <r_qp_QPlogPo/w>  (971) 
4.5330000000000004

>  <r_qp_QPlogPoct>  (971) 
18.853000000000002

>  <r_qp_QPlogPw>  (971) 
9.3569999999999993

>  <r_qp_QPlogS>  (971) 
-4.8099999999999996

>  <r_qp_QPpolrz>  (971) 
42.978999999999999

>  <r_qp_SASA>  (971) 
701.48599999999999

>  <r_qp_SAamideO>  (971) 
0

>  <r_qp_SAfluorine>  (971) 
0

>  <r_qp_WPSA>  (971) 
35.795000000000002

>  <r_qp_accptHB>  (971) 
5.5

>  <r_qp_dip^2/V>  (971) 
0.0307067

>  <r_qp_dipole>  (971) 
6.2229999999999999

>  <r_qp_donorHB>  (971) 
1

>  <r_qp_glob>  (971) 
0.80472489999999997

>  <r_qp_mol_MW>  (971) 
379.51900000000001

>  <r_qp_volume>  (971) 
1261.106

>  <r_sd_BIOSOLVEIT.INFINISEE\_FTREES\_SIMILARITY>  (971) 
0.91100000000000003

>  <r_sd_BIOSOLVEIT.LOGP>  (971) 
3.4083999999999999

>  <r_sd_BIOSOLVEIT.MOLECULAR\_WEIGHT>  (971) 
380.53199999999998

>  <r_sd_BIOSOLVEIT.TPSA>  (971) 
36.780000000000001

>  <i_epik_Tot_Q>  (971) 
1

>  <i_epik_Tot_abs_Q>  (971) 
1

>  <i_f3d_flags>  (971) 
0

>  <i_i_glide_confnum>  (971) 
2

>  <i_i_glide_lignum>  (971) 
1077

>  <i_i_glide_posenum>  (971) 
16

>  <i_i_glide_rotatable_bonds>  (971) 
8

>  <i_lp_mmshare_version>  (971) 
65135

>  <i_m_ct_format>  (971) 
2

>  <i_m_source_file_index>  (971) 
2595

>  <i_qp_#NandO>  (971) 
4

>  <i_qp_#acid>  (971) 
0

>  <i_qp_#amide>  (971) 
0

>  <i_qp_#amidine>  (971) 
0

>  <i_qp_#amine>  (971) 
1

>  <i_qp_#in34>  (971) 
0

>  <i_qp_#in56>  (971) 
17

>  <i_qp_#metab>  (971) 
6

>  <i_qp_#nonHatm>  (971) 
27

>  <i_qp_#noncon>  (971) 
0

>  <i_qp_#ringatoms>  (971) 
17

>  <i_qp_#rotor>  (971) 
7

>  <i_qp_#rtvFG>  (971) 
0

>  <i_qp_#stars>  (971) 
0

>  <i_qp_CNS>  (971) 
1

>  <i_qp_HumanOralAbsorption>  (971) 
3

>  <i_qp_RuleOfFive>  (971) 
0

>  <i_qp_RuleOfThree>  (971) 
0

>  <i_sd_BIOSOLVEIT.INFINISEE\_RESULT\_RANK>  (971) 
40876

>  <i_sd_version>  (971) 
0

>  <b_lp_Chiralities_Consistent>  (971) 
1

>  <b_sd_chiral_flag>  (971) 
0

>  <canonical_id>  (971) 
ATP-HTVS-9A75570B0E27

>  <compound_code>  (971) 
83009

>  <title>  (971) 
rxn512b____EMOL480996____EMOL720738____EMOL2873068

>  <variant>  (971) 
83009-1

>  <source_file>  (971) 
运行/运行/ATP-VSW/ATP-VSW-DOCK_HTVS_1-001_lib/ATP-VSW-DOCK_HTVS_1-001_lib

>  <canonical_smiles>  (971) 
CN(Cc1ccccc1)C(=O)c1cc(Nc2ccc(C[NH+](C)C)cc2)cs1

>  <scaffold>  (971) 
O=C(NCc1ccccc1)c1cc(Nc2ccccc2)cs1

>  <molecular_formula>  (971) 
C22H26N3OS+

$$$$
ATP-HTVS-9A76BB66DB1D
     RDKit          3D

 51 54  0  0  0  0  0  0  0  0999 V2000
  198.2760  180.4772  156.5903 O   0  0  0  0  0  0  0  0  0  0  0  0
  197.6221  181.6015  156.0356 C   0  0  2  0  0  0  0  0  0  0  0  0
  197.2024  182.6241  157.0826 C   0  0  0  0  0  0  0  0  0  0  0  0
  197.2927  184.0001  156.7805 C   0  0  0  0  0  0  0  0  0  0  0  0
  196.9382  184.9707  157.7382 C   0  0  0  0  0  0  0  0  0  0  0  0
  196.4709  184.5724  159.0086 C   0  0  0  0  0  0  0  0  0  0  0  0
  196.3718  183.2001  159.3087 C   0  0  0  0  0  0  0  0  0  0  0  0
  196.7312  182.2294  158.3522 C   0  0  0  0  0  0  0  0  0  0  0  0
  196.0756  185.6107  160.0400 C   0  0  2  0  0  0  0  0  0  0  0  0
  196.4183  181.0973  155.2036 C   0  0  1  0  0  0  0  0  0  0  0  0
  196.7569  180.7186  153.8333 N   0  0  0  0  0  0  0  0  0  0  0  0
  196.9025  181.7158  152.8498 C   0  0  0  0  0  0  0  0  0  0  0  0
  197.4002  182.9180  153.2213 N   0  0  0  0  0  0  0  0  0  0  0  0
  197.5885  183.8624  152.2699 C   0  0  0  0  0  0  0  0  0  0  0  0
  197.2523  183.6049  150.9087 C   0  0  0  0  0  0  0  0  0  0  0  0
  196.7427  182.4062  150.5374 N   0  0  0  0  0  0  0  0  0  0  0  0
  196.5726  181.4648  151.4965 C   0  0  0  0  0  0  0  0  0  0  0  0
  195.9800  180.1415  151.0241 C   0  0  1  0  0  0  0  0  0  0  0  0
  196.9917  179.2198  150.3669 C   0  0  0  0  0  0  0  0  0  0  0  0
  197.9629  178.5620  151.1513 C   0  0  0  0  0  0  0  0  0  0  0  0
  198.8744  177.6714  150.5515 C   0  0  0  0  0  0  0  0  0  0  0  0
  198.8219  177.4383  149.1642 C   0  0  0  0  0  0  0  0  0  0  0  0
  197.8535  178.0914  148.3769 C   0  0  0  0  0  0  0  0  0  0  0  0
  196.9391  178.9790  148.9776 C   0  0  0  0  0  0  0  0  0  0  0  0
  197.4562  184.6193  149.9457 C   0  0  0  0  0  0  0  0  0  0  0  0
  197.9964  185.8672  150.3158 C   0  0  0  0  0  0  0  0  0  0  0  0
  198.3477  186.1144  151.6532 C   0  0  0  0  0  0  0  0  0  0  0  0
  198.1400  185.1153  152.6205 C   0  0  0  0  0  0  0  0  0  0  0  0
  197.6263  179.9242  157.0109 H   0  0  0  0  0  0  0  0  0  0  0  0
  198.3618  182.0985  155.4097 H   0  0  0  0  0  0  0  0  0  0  0  0
  197.6445  184.3194  155.8097 H   0  0  0  0  0  0  0  0  0  0  0  0
  197.0251  186.0201  157.4956 H   0  0  0  0  0  0  0  0  0  0  0  0
  196.0299  182.8831  160.2820 H   0  0  0  0  0  0  0  0  0  0  0  0
  196.6512  181.1810  158.6033 H   0  0  0  0  0  0  0  0  0  0  0  0
  195.2462  185.2509  160.6467 H   0  0  0  0  0  0  0  0  0  0  0  0
  195.7612  186.5362  159.5598 H   0  0  0  0  0  0  0  0  0  0  0  0
  196.9135  185.8334  160.6985 H   0  0  0  0  0  0  0  0  0  0  0  0
  195.9533  180.2526  155.7072 H   0  0  0  0  0  0  0  0  0  0  0  0
  195.6448  181.8597  155.1383 H   0  0  0  0  0  0  0  0  0  0  0  0
  196.4446  179.8025  153.5464 H   0  0  0  0  0  0  0  0  0  0  0  0
  195.5233  179.5977  151.8505 H   0  0  0  0  0  0  0  0  0  0  0  0
  195.1629  180.3531  150.3352 H   0  0  0  0  0  0  0  0  0  0  0  0
  198.0112  178.7237  152.2173 H   0  0  0  0  0  0  0  0  0  0  0  0
  199.6129  177.1639  151.1544 H   0  0  0  0  0  0  0  0  0  0  0  0
  199.5203  176.7565  148.7010 H   0  0  0  0  0  0  0  0  0  0  0  0
  197.8060  177.9023  147.3130 H   0  0  0  0  0  0  0  0  0  0  0  0
  196.1869  179.4574  148.3700 H   0  0  0  0  0  0  0  0  0  0  0  0
  197.1949  184.4371  148.9135 H   0  0  0  0  0  0  0  0  0  0  0  0
  198.1480  186.6352  149.5719 H   0  0  0  0  0  0  0  0  0  0  0  0
  198.7570  187.0716  151.9437 H   0  0  0  0  0  0  0  0  0  0  0  0
  198.4123  185.3061  153.6459 H   0  0  0  0  0  0  0  0  0  0  0  0
  1  2  1  0
  1 29  1  0
  2  3  1  0
  2 10  1  0
  2 30  1  6
  3  4  1  0
  3  8  2  0
  4  5  2  0
  4 31  1  0
  5  6  1  0
  5 32  1  0
  6  7  2  0
  6  9  1  0
  7  8  1  0
  7 33  1  0
  8 34  1  0
  9 35  1  1
  9 36  1  0
  9 37  1  0
 10 11  1  0
 10 38  1  1
 10 39  1  0
 11 12  1  0
 11 40  1  0
 12 13  2  0
 12 17  1  0
 13 14  1  0
 14 15  1  0
 14 28  2  0
 15 16  1  0
 15 25  2  0
 16 17  2  0
 17 18  1  0
 18 19  1  0
 18 41  1  1
 18 42  1  0
 19 20  2  0
 19 24  1  0
 20 21  1  0
 20 43  1  0
 21 22  2  0
 21 44  1  0
 22 23  1  0
 22 45  1  0
 23 24  2  0
 23 46  1  0
 24 47  1  0
 25 26  1  0
 25 48  1  0
 26 27  2  0
 26 49  1  0
 27 28  1  0
 27 50  1  0
 28 51  1  0
M  END
>  <s_epik_cmdline>  (972) 
J2VwaWtfcHl0aG9uJywgJy1waCcsICc3LjAwMDAwMCcsICctcGh0JywgJzIuMDAwMDAwJywgJy1tcycsICcxNicsICctdG4nLCAnOCcsICctbWEnLCAnMjAwJywgJy1pbWFlJywgJzxpbmZpbGUubWFlPicsICctb21hZScsICc8b3V0ZmlsZS5tYWU+Jw==

>  <s_epik_input>  (972) 
W2NIXTFbY0hdYyhbQ0gzXSlbY0hdW2NIXWMxW0NAQEhdKFtPSF0pW0NIMl1bTkhdYyhuMiljKG5jKGMyMylbY0hdW2NIXVtjSF1bY0hdMylbQ0gyXWM0W2NIXVtjSF1bY0hdW2NIXVtjSF00

>  <s_i_glide_gridfile>  (972) 
ATP-Grid

>  <s_lp_Force_Field>  (972) 
OPLS_2005

>  <s_lp_Variant>  (972) 
rxn102c____EMOL4851523____EMOL42769518-1

>  <s_lp_label>  (972) 
2204_sdstereoexpander_1_neutralizer_1_epik_1_stereoizer_1

>  <s_m_source_file>  (972) 
ATP-VSW-LIGPREP-002-in.maegz

>  <s_sd_BIOSOLVEIT.INFINISEE\_QUERY\_NAME>  (972) 
Ref-Lig

>  <s_sd_BIOSOLVEIT.INFINISEE\_QUERY\_SMILES>  (972) 
S(c1nc2c(cc1C[NH2+]Cc3ccc(cc3)C[NH+](C)C)cccc2)Cc4ccccc4

>  <s_sd_BIOSOLVEIT.INFINISEE\_REACTION\_NAME>  (972) 
rxn102c

>  <s_sd_BIOSOLVEIT.INFINISEE\_REAGENT1\_NAME>  (972) 
EMOL4851523

>  <s_sd_BIOSOLVEIT.INFINISEE\_REAGENT1\_SMILES>  (972) 
Clc1nc2c(nc1Cc3ccccc3)cccc2

>  <s_sd_BIOSOLVEIT.INFINISEE\_REAGENT2\_NAME>  (972) 
EMOL42769518

>  <s_sd_BIOSOLVEIT.INFINISEE\_REAGENT2\_SMILES>  (972) 
OC(c1ccc(cc1)C)CN

>  <s_sd_BIOSOLVEIT.INFINISEE\_SPACE>  (972) 
eXplore_7tr_2022-12

>  <s_vsw_compound_code>  (972) 
70498

>  <s_vsw_variant>  (972) 
70498-1

>  <r_epik_Charging_Adjusted_Penalty>  (972) 
0

>  <r_epik_Ionization_Penalty>  (972) 
0.00020000000000000001

>  <r_epik_Ionization_Penalty_Charging>  (972) 
0

>  <r_epik_Ionization_Penalty_Neutral>  (972) 
0.00020000000000000001

>  <r_epik_State_Penalty>  (972) 
-0

>  <r_i_docking_score>  (972) 
-4.5526818577853296

>  <r_i_glide_ecoul>  (972) 
-4.4179592132568404

>  <r_i_glide_eff_state_penalty>  (972) 
-0

>  <r_i_glide_einternal>  (972) 
6.4856042861938503

>  <r_i_glide_emodel>  (972) 
-48.814022656130597

>  <r_i_glide_energy>  (972) 
-40.365533828735401

>  <r_i_glide_erotb>  (972) 
0.84752707895998702

>  <r_i_glide_esite>  (972) 
-0.024037434182419399

>  <r_i_glide_evdw>  (972) 
-35.947574615478501

>  <r_i_glide_gscore>  (972) 
-4.5526818577853296

>  <r_i_glide_hbond>  (972) 
-0.076353883985964197

>  <r_i_glide_ligand_efficiency>  (972) 
-0.16259578063519001

>  <r_i_glide_ligand_efficiency_ln>  (972) 
-1.0508926453246299

>  <r_i_glide_ligand_efficiency_sa>  (972) 
-0.49373655380192299

>  <r_i_glide_lipo>  (972) 
-1.94969218763267

>  <r_i_glide_metal>  (972) 
-0

>  <r_i_glide_rewards>  (972) 
-0.89005281818181703

>  <r_lp_Energy>  (972) 
31.003782999999999

>  <r_lp_tautomer_probability>  (972) 
1

>  <r_qp_ACxDN^.5/SA>  (972) 
0.0097176999999999993

>  <r_qp_CIQPlogS>  (972) 
-6.2720000000000002

>  <r_qp_EA(eV)>  (972) 
0.84199999999999997

>  <r_qp_FISA>  (972) 
63.095999999999997

>  <r_qp_FOSA>  (972) 
139.22999999999999

>  <r_qp_IP(eV)>  (972) 
8.3279999999999994

>  <r_qp_Jm>  (972) 
2.3352301228227499

>  <r_qp_PISA>  (972) 
408.89999999999998

>  <r_qp_PSA>  (972) 
50.792999999999999

>  <r_qp_PercentHumanOralAbsorption>  (972) 
100

>  <r_qp_QPPCaco>  (972) 
2497.8069999999998

>  <r_qp_QPPMDCK>  (972) 
1330.6510000000001

>  <r_qp_QPlogBB>  (972) 
-0.40699999999999997

>  <r_qp_QPlogHERG>  (972) 
-5.4939999999999998

>  <r_qp_QPlogKhsa>  (972) 
0.629

>  <r_qp_QPlogKp>  (972) 
-0.56999999999999995

>  <r_qp_QPlogPC16>  (972) 
12.874000000000001

>  <r_qp_QPlogPo/w>  (972) 
4.718

>  <r_qp_QPlogPoct>  (972) 
18.632000000000001

>  <r_qp_QPlogPw>  (972) 
9.923

>  <r_qp_QPlogS>  (972) 
-4.6289999999999996

>  <r_qp_QPpolrz>  (972) 
39.847999999999999

>  <r_qp_SASA>  (972) 
611.22500000000002

>  <r_qp_SAamideO>  (972) 
0

>  <r_qp_SAfluorine>  (972) 
0

>  <r_qp_WPSA>  (972) 
0

>  <r_qp_accptHB>  (972) 
4.2000000000000002

>  <r_qp_dip^2/V>  (972) 
0.021710500000000001

>  <r_qp_dipole>  (972) 
5.0279999999999996

>  <r_qp_donorHB>  (972) 
2

>  <r_qp_glob>  (972) 
0.87563040000000003

>  <r_qp_mol_MW>  (972) 
369.46499999999997

>  <r_qp_volume>  (972) 
1164.222

>  <r_sd_BIOSOLVEIT.INFINISEE\_FTREES\_SIMILARITY>  (972) 
0.93200000000000005

>  <r_sd_BIOSOLVEIT.LOGP>  (972) 
4.6745200000000002

>  <r_sd_BIOSOLVEIT.MOLECULAR\_WEIGHT>  (972) 
369.46600000000001

>  <r_sd_BIOSOLVEIT.TPSA>  (972) 
58.039999999999999

>  <i_epik_Tot_Q>  (972) 
0

>  <i_epik_Tot_abs_Q>  (972) 
0

>  <i_f3d_flags>  (972) 
0

>  <i_i_glide_confnum>  (972) 
4

>  <i_i_glide_lignum>  (972) 
843

>  <i_i_glide_posenum>  (972) 
19

>  <i_i_glide_rotatable_bonds>  (972) 
7

>  <i_lp_mmshare_version>  (972) 
65135

>  <i_m_ct_format>  (972) 
2

>  <i_m_source_file_index>  (972) 
2204

>  <i_qp_#NandO>  (972) 
4

>  <i_qp_#acid>  (972) 
0

>  <i_qp_#amide>  (972) 
0

>  <i_qp_#amidine>  (972) 
0

>  <i_qp_#amine>  (972) 
0

>  <i_qp_#in34>  (972) 
0

>  <i_qp_#in56>  (972) 
22

>  <i_qp_#metab>  (972) 
3

>  <i_qp_#nonHatm>  (972) 
28

>  <i_qp_#noncon>  (972) 
0

>  <i_qp_#ringatoms>  (972) 
22

>  <i_qp_#rotor>  (972) 
7

>  <i_qp_#rtvFG>  (972) 
0

>  <i_qp_#stars>  (972) 
0

>  <i_qp_CNS>  (972) 
0

>  <i_qp_HumanOralAbsorption>  (972) 
3

>  <i_qp_RuleOfFive>  (972) 
0

>  <i_qp_RuleOfThree>  (972) 
0

>  <i_sd_BIOSOLVEIT.INFINISEE\_RESULT\_RANK>  (972) 
4067

>  <i_sd_version>  (972) 
0

>  <b_lp_Chiralities_Consistent>  (972) 
1

>  <b_sd_chiral_flag>  (972) 
0

>  <canonical_id>  (972) 
ATP-HTVS-9A76BB66DB1D

>  <compound_code>  (972) 
70498

>  <title>  (972) 
rxn102c____EMOL4851523____EMOL42769518

>  <variant>  (972) 
70498-1

>  <source_file>  (972) 
运行/运行/ATP-VSW/ATP-VSW-DOCK_HTVS_1-002_lib.maegz

>  <canonical_smiles>  (972) 
Cc1ccc([C@@H](O)CNc2nc3ccccc3nc2Cc2ccccc2)cc1

>  <scaffold>  (972) 
c1ccc(CCNc2nc3ccccc3nc2Cc2ccccc2)cc1

>  <molecular_formula>  (972) 
C24H23N3O

$$$$
ATP-HTVS-9A86ECE1052E
     RDKit          3D

 55 57  0  0  0  0  0  0  0  0999 V2000
  199.5837  182.3344  146.0067 S   0  0  0  0  0  0  0  0  0  0  0  0
  199.1457  181.9257  147.6713 C   0  0  0  0  0  0  0  0  0  0  0  0
  198.8202  180.6065  148.0522 C   0  0  0  0  0  0  0  0  0  0  0  0
  198.4617  180.3232  149.3854 C   0  0  0  0  0  0  0  0  0  0  0  0
  198.4306  181.3410  150.3654 C   0  0  0  0  0  0  0  0  0  0  0  0
  198.0657  181.0473  151.7705 C   0  0  0  0  0  0  0  0  0  0  0  0
  198.6388  181.7399  152.8610 C   0  0  0  0  0  0  0  0  0  0  0  0
  198.2593  181.5389  154.1410 N   0  0  0  0  0  0  0  0  0  0  0  0
  197.3244  180.6086  154.3321 C   0  0  0  0  0  0  0  0  0  0  0  0
  196.7499  179.8578  153.3992 N   0  0  0  0  0  0  0  0  0  0  0  0
  197.1098  180.0742  152.1281 C   0  0  0  0  0  0  0  0  0  0  0  0
  196.8284  180.4280  155.7516 C   0  0  1  0  0  0  0  0  0  0  0  0
  196.4035  181.7304  156.3530 N   0  0  1  0  0  0  0  0  0  0  0  0
  196.4640  181.7604  157.8402 C   0  0  1  0  0  0  0  0  0  0  0  0
  196.2747  183.1742  158.3581 C   0  0  0  0  0  0  0  0  0  0  0  0
  195.1142  183.5274  159.0904 C   0  0  0  0  0  0  0  0  0  0  0  0
  194.9414  184.8678  159.5277 C   0  0  0  0  0  0  0  0  0  0  0  0
  195.8979  185.8594  159.1797 C   0  0  0  0  0  0  0  0  0  0  0  0
  197.0058  185.4913  158.3844 C   0  0  0  0  0  0  0  0  0  0  0  0
  197.2377  184.1547  158.0602 C   0  0  0  0  0  0  0  0  0  0  0  0
  195.6804  187.3244  159.6024 C   0  0  1  0  0  0  0  0  0  0  0  0
  196.7415  187.8885  160.4856 N   0  0  1  0  0  0  0  0  0  0  0  0
  198.0767  188.0832  159.8313 C   0  0  2  0  0  0  0  0  0  0  0  0
  196.3091  189.1363  161.1720 C   0  0  2  0  0  0  0  0  0  0  0  0
  198.7475  182.6604  149.9646 C   0  0  0  0  0  0  0  0  0  0  0  0
  199.1008  182.9506  148.6336 C   0  0  0  0  0  0  0  0  0  0  0  0
  199.4410  180.8363  144.9930 C   0  0  2  0  0  0  0  0  0  0  0  0
  197.0415  182.4154  155.9793 H   0  0  0  0  0  0  0  0  0  0  0  0
  198.8356  179.8014  147.3339 H   0  0  0  0  0  0  0  0  0  0  0  0
  198.2233  179.3021  149.6467 H   0  0  0  0  0  0  0  0  0  0  0  0
  199.4027  182.4798  152.7099 H   0  0  0  0  0  0  0  0  0  0  0  0
  196.6032  179.4856  151.3738 H   0  0  0  0  0  0  0  0  0  0  0  0
  196.0284  179.7403  155.6712 H   0  0  0  0  0  0  0  0  0  0  0  0
  197.5979  179.9403  156.3540 H   0  0  0  0  0  0  0  0  0  0  0  0
  195.6881  181.1337  158.2677 H   0  0  0  0  0  0  0  0  0  0  0  0
  197.4301  181.3962  158.1921 H   0  0  0  0  0  0  0  0  0  0  0  0
  194.3503  182.7973  159.2928 H   0  0  0  0  0  0  0  0  0  0  0  0
  194.0362  185.1271  160.0517 H   0  0  0  0  0  0  0  0  0  0  0  0
  197.7121  186.2273  158.0110 H   0  0  0  0  0  0  0  0  0  0  0  0
  198.1514  183.8948  157.5323 H   0  0  0  0  0  0  0  0  0  0  0  0
  195.5641  187.9234  158.6996 H   0  0  0  0  0  0  0  0  0  0  0  0
  194.7354  187.3865  160.1259 H   0  0  0  0  0  0  0  0  0  0  0  0
  197.9427  188.7392  158.9415 H   0  0  0  0  0  0  0  0  0  0  0  0
  198.5322  187.1716  159.5542 H   0  0  0  0  0  0  0  0  0  0  0  0
  198.7618  188.6120  160.5138 H   0  0  0  0  0  0  0  0  0  0  0  0
  196.0899  189.9177  160.4463 H   0  0  0  0  0  0  0  0  0  0  0  0
  197.1295  189.4939  161.8098 H   0  0  0  0  0  0  0  0  0  0  0  0
  195.4334  188.9826  161.7915 H   0  0  0  0  0  0  0  0  0  0  0  0
  198.7137  183.4716  150.6763 H   0  0  0  0  0  0  0  0  0  0  0  0
  199.3315  183.9679  148.3477 H   0  0  0  0  0  0  0  0  0  0  0  0
  199.7076  181.0573  143.9595 H   0  0  0  0  0  0  0  0  0  0  0  0
  198.4187  180.4584  145.0087 H   0  0  0  0  0  0  0  0  0  0  0  0
  200.1121  180.0580  145.3565 H   0  0  0  0  0  0  0  0  0  0  0  0
  196.8842  187.2156  161.2143 H   0  0  0  0  0  0  0  0  0  0  0  0
  195.4631  181.9669  156.0528 H   0  0  0  0  0  0  0  0  0  0  0  0
  1  2  1  0
  1 27  1  0
  2  3  1  0
  2 26  2  0
  3  4  2  0
  3 29  1  0
  4  5  1  0
  4 30  1  0
  5  6  1  0
  5 25  2  0
  6  7  2  0
  6 11  1  0
  7  8  1  0
  7 31  1  0
  8  9  2  0
  9 10  1  0
  9 12  1  0
 10 11  2  0
 11 32  1  0
 12 13  1  0
 12 33  1  6
 12 34  1  0
 13 14  1  0
 13 28  1  6
 13 55  1  0
 14 15  1  0
 14 35  1  1
 14 36  1  0
 15 16  1  0
 15 20  2  0
 16 17  2  0
 16 37  1  0
 17 18  1  0
 17 38  1  0
 18 19  2  0
 18 21  1  0
 19 20  1  0
 19 39  1  0
 20 40  1  0
 21 22  1  0
 21 41  1  6
 21 42  1  0
 22 23  1  0
 22 24  1  0
 22 54  1  1
 23 43  1  6
 23 44  1  0
 23 45  1  0
 24 46  1  6
 24 47  1  0
 24 48  1  0
 25 26  1  0
 25 49  1  0
 26 50  1  0
 27 51  1  6
 27 52  1  0
 27 53  1  0
M  CHG  2  13   1  22   1
M  END
>  <s_epik_cmdline>  (973) 
J2VwaWtfcHl0aG9uJywgJy1waCcsICc3LjAwMDAwMCcsICctcGh0JywgJzIuMDAwMDAwJywgJy1tcycsICcxNicsICctdG4nLCAnOCcsICctbWEnLCAnMjAwJywgJy1pbWFlJywgJzxpbmZpbGUubWFlPicsICctb21hZScsICc8b3V0ZmlsZS5tYWU+Jw==

>  <s_epik_input>  (973) 
W0NIM11TYzFbY0hdW2NIXWMoW2NIXVtjSF0xKS1jMltjSF1uYyhuW2NIXTIpW0NIMl1bTkhdW0NIMl1jM1tjSF1bY0hdYyhbY0hdW2NIXTMpW0NIMl1OKFtDSDNdKVtDSDNd

>  <s_i_glide_gridfile>  (973) 
ATP-Grid

>  <s_lp_Force_Field>  (973) 
OPLS_2005

>  <s_lp_Variant>  (973) 
WXDL_15E____QS5063____LN00190257____BT1525-1

>  <s_lp_label>  (973) 
624_sdstereoexpander_1_neutralizer_1_epik_1_stereoizer_1

>  <s_m_source_file>  (973) 
ATP-VSW-LIGPREP-001-in.maegz

>  <s_sd_BIOSOLVEIT.INFINISEE\_QUERY\_NAME>  (973) 
Ref-Lig

>  <s_sd_BIOSOLVEIT.INFINISEE\_QUERY\_SMILES>  (973) 
S(c1nc2c(cc1C[NH2+]Cc3ccc(cc3)C[NH+](C)C)cccc2)Cc4ccccc4

>  <s_sd_BIOSOLVEIT.INFINISEE\_REACTION\_NAME>  (973) 
WXDL_15E

>  <s_sd_BIOSOLVEIT.INFINISEE\_REAGENT1\_NAME>  (973) 
QS5063

>  <s_sd_BIOSOLVEIT.INFINISEE\_REAGENT1\_SMILES>  (973) 
O=Cc1ccc(cc1)CN(C)C

>  <s_sd_BIOSOLVEIT.INFINISEE\_REAGENT2\_NAME>  (973) 
LN00190257

>  <s_sd_BIOSOLVEIT.INFINISEE\_REAGENT2\_SMILES>  (973) 
Brc1cnc(nc1)CNC(=O)OC(C)(C)C

>  <s_sd_BIOSOLVEIT.INFINISEE\_REAGENT3\_NAME>  (973) 
BT1525

>  <s_sd_BIOSOLVEIT.INFINISEE\_REAGENT3\_SMILES>  (973) 
S(c1ccc(cc1)B2OC(C(O2)(C)C)(C)C)C

>  <s_sd_BIOSOLVEIT.INFINISEE\_SPACE>  (973) 
GalaXi_12bn_2023-03

>  <s_vsw_compound_code>  (973) 
19937

>  <s_vsw_variant>  (973) 
19937-1

>  <r_epik_Charging_Adjusted_Penalty>  (973) 
0.56790821443324901

>  <r_epik_Ionization_Penalty>  (973) 
0.28070000000000001

>  <r_epik_Ionization_Penalty_Charging>  (973) 
0.28070000000000001

>  <r_epik_Ionization_Penalty_Neutral>  (973) 
0

>  <r_epik_State_Penalty>  (973) 
0.2873

>  <r_i_docking_score>  (973) 
-4.1511590844699899

>  <r_i_glide_ecoul>  (973) 
-11.617481231689499

>  <r_i_glide_eff_state_penalty>  (973) 
0.2873

>  <r_i_glide_einternal>  (973) 
4.3455638885498002

>  <r_i_glide_emodel>  (973) 
-54.7387377954025

>  <r_i_glide_energy>  (973) 
-38.504802703857401

>  <r_i_glide_erotb>  (973) 
0.80383324441665205

>  <r_i_glide_esite>  (973) 
-0.11552712513032801

>  <r_i_glide_evdw>  (973) 
-26.887321472168001

>  <r_i_glide_gscore>  (973) 
-4.43845908446999

>  <r_i_glide_hbond>  (973) 
-0.18039476304482399

>  <r_i_glide_ligand_efficiency>  (973) 
-0.15374663275814801

>  <r_i_glide_ligand_efficiency_ln>  (973) 
-0.96632139765844804

>  <r_i_glide_ligand_efficiency_sa>  (973) 
-0.46123989776772001

>  <r_i_glide_lipo>  (973) 
-1.0449539096224001

>  <r_i_glide_metal>  (973) 
-0

>  <r_i_glide_rewards>  (973) 
-0.81442827272727103

>  <r_lp_Energy>  (973) 
9.8477870000000003

>  <r_lp_tautomer_probability>  (973) 
1

>  <r_qp_ACxDN^.5/SA>  (973) 
0.0092610000000000001

>  <r_qp_CIQPlogS>  (973) 
-3.4940000000000002

>  <r_qp_EA(eV)>  (973) 
0.85199999999999998

>  <r_qp_FISA>  (973) 
52.359000000000002

>  <r_qp_FOSA>  (973) 
322.95600000000002

>  <r_qp_IP(eV)>  (973) 
8.6379999999999999

>  <r_qp_Jm>  (973) 
0.0172396434363992

>  <r_qp_PISA>  (973) 
231.399

>  <r_qp_PSA>  (973) 
39.646999999999998

>  <r_qp_PercentHumanOralAbsorption>  (973) 
88.418999999999997

>  <r_qp_QPPCaco>  (973) 
196.417

>  <r_qp_QPPMDCK>  (973) 
175.24199999999999

>  <r_qp_QPlogBB>  (973) 
0.502

>  <r_qp_QPlogHERG>  (973) 
-6.4390000000000001

>  <r_qp_QPlogKhsa>  (973) 
0.44700000000000001

>  <r_qp_QPlogKp>  (973) 
-5.0259999999999998

>  <r_qp_QPlogPC16>  (973) 
12.122

>  <r_qp_QPlogPo/w>  (973) 
3.4889999999999999

>  <r_qp_QPlogPoct>  (973) 
17.698

>  <r_qp_QPlogPw>  (973) 
8.8330000000000002

>  <r_qp_QPlogS>  (973) 
-2.3149999999999999

>  <r_qp_QPpolrz>  (973) 
39.954000000000001

>  <r_qp_SASA>  (973) 
647.88199999999995

>  <r_qp_SAamideO>  (973) 
0

>  <r_qp_SAfluorine>  (973) 
0

>  <r_qp_WPSA>  (973) 
41.167999999999999

>  <r_qp_accptHB>  (973) 
6

>  <r_qp_dip^2/V>  (973) 
0.002173

>  <r_qp_dipole>  (973) 
1.6319999999999999

>  <r_qp_donorHB>  (973) 
1

>  <r_qp_glob>  (973) 
0.85471419999999998

>  <r_qp_mol_MW>  (973) 
378.53399999999999

>  <r_qp_volume>  (973) 
1225.2570000000001

>  <r_sd_BIOSOLVEIT.INFINISEE\_FTREES\_SIMILARITY>  (973) 
0.92700000000000005

>  <r_sd_BIOSOLVEIT.LOGP>  (973) 
1.7736000000000001

>  <r_sd_BIOSOLVEIT.MOLECULAR\_WEIGHT>  (973) 
380.55599999999998

>  <r_sd_BIOSOLVEIT.TPSA>  (973) 
46.829999999999998

>  <i_epik_Tot_Q>  (973) 
2

>  <i_epik_Tot_abs_Q>  (973) 
2

>  <i_f3d_flags>  (973) 
0

>  <i_i_glide_confnum>  (973) 
1

>  <i_i_glide_lignum>  (973) 
67

>  <i_i_glide_posenum>  (973) 
17

>  <i_i_glide_rotatable_bonds>  (973) 
8

>  <i_lp_mmshare_version>  (973) 
65135

>  <i_m_ct_format>  (973) 
2

>  <i_m_source_file_index>  (973) 
624

>  <i_qp_#NandO>  (973) 
4

>  <i_qp_#acid>  (973) 
0

>  <i_qp_#amide>  (973) 
0

>  <i_qp_#amidine>  (973) 
0

>  <i_qp_#amine>  (973) 
2

>  <i_qp_#in34>  (973) 
0

>  <i_qp_#in56>  (973) 
18

>  <i_qp_#metab>  (973) 
7

>  <i_qp_#nonHatm>  (973) 
27

>  <i_qp_#noncon>  (973) 
0

>  <i_qp_#ringatoms>  (973) 
18

>  <i_qp_#rotor>  (973) 
8

>  <i_qp_#rtvFG>  (973) 
0

>  <i_qp_#stars>  (973) 
0

>  <i_qp_CNS>  (973) 
2

>  <i_qp_HumanOralAbsorption>  (973) 
3

>  <i_qp_RuleOfFive>  (973) 
0

>  <i_qp_RuleOfThree>  (973) 
1

>  <i_sd_BIOSOLVEIT.INFINISEE\_RESULT\_RANK>  (973) 
6924

>  <i_sd_version>  (973) 
0

>  <b_lp_Chiralities_Consistent>  (973) 
1

>  <b_sd_chiral_flag>  (973) 
0

>  <canonical_id>  (973) 
ATP-HTVS-9A86ECE1052E

>  <compound_code>  (973) 
19937

>  <title>  (973) 
WXDL_15E____QS5063____LN00190257____BT1525

>  <variant>  (973) 
19937-1

>  <source_file>  (973) 
运行/运行/ATP-VSW/ATP-VSW-DOCK_HTVS_1-001_lib/ATP-VSW-DOCK_HTVS_1-001_lib

>  <canonical_smiles>  (973) 
CSc1ccc(-c2cnc(C[NH2+]Cc3ccc(C[NH+](C)C)cc3)nc2)cc1

>  <scaffold>  (973) 
c1ccc(C[NH2+]Cc2ncc(-c3ccccc3)cn2)cc1

>  <molecular_formula>  (973) 
C22H28N4S+2

$$$$
ATP-HTVS-9AD82B0B5D2D
     RDKit          3D

 58 61  0  0  0  0  0  0  0  0999 V2000
  194.1978  186.2576  160.9399 Cl  0  0  0  0  0  0  0  0  0  0  0  0
  195.5449  185.5567  160.1321 C   0  0  0  0  0  0  0  0  0  0  0  0
  195.4305  184.2705  159.5796 C   0  0  0  0  0  0  0  0  0  0  0  0
  196.5232  183.6772  158.9052 C   0  0  0  0  0  0  0  0  0  0  0  0
  197.7441  184.3921  158.8258 C   0  0  0  0  0  0  0  0  0  0  0  0
  197.8492  185.6901  159.3611 C   0  0  0  0  0  0  0  0  0  0  0  0
  196.7494  186.2725  160.0169 C   0  0  0  0  0  0  0  0  0  0  0  0
  196.3943  182.2862  158.2724 C   0  0  1  0  0  0  0  0  0  0  0  0
  195.1165  181.7031  158.4698 O   0  0  0  0  0  0  0  0  0  0  0  0
  196.7350  182.2833  156.7640 C   0  0  0  0  0  0  0  0  0  0  0  0
  196.9130  183.3405  156.1546 O   0  0  0  0  0  0  0  0  0  0  0  0
  196.8638  181.0719  156.1969 N   0  0  0  0  0  0  0  0  0  0  0  0
  197.2084  180.8041  154.8493 C   0  0  0  0  0  0  0  0  0  0  0  0
  196.6459  181.4995  153.8379 N   0  0  0  0  0  0  0  0  0  0  0  0
  196.9435  181.1879  152.5675 C   0  0  0  0  0  0  0  0  0  0  0  0
  197.8375  180.1635  152.2139 C   0  0  0  0  0  0  0  0  0  0  0  0
  198.0508  179.8884  150.7995 C   0  0  0  0  0  0  0  0  0  0  0  0
  198.2047  179.6212  149.6185 C   0  0  0  0  0  0  0  0  0  0  0  0
  198.3637  179.2327  148.2082 C   0  0  1  0  0  0  0  0  0  0  0  0
  198.1283  177.8104  147.9906 N   0  0  0  0  0  0  0  0  0  0  0  0
  199.2500  176.9709  148.4025 C   0  0  2  0  0  0  0  0  0  0  0  0
  200.4566  177.0893  147.4790 C   0  0  0  0  0  0  0  0  0  0  0  0
  201.7519  177.1830  148.0299 C   0  0  0  0  0  0  0  0  0  0  0  0
  202.8752  177.3100  147.1897 C   0  0  0  0  0  0  0  0  0  0  0  0
  204.1140  177.4106  147.7280 F   0  0  0  0  0  0  0  0  0  0  0  0
  202.7124  177.3327  145.7912 C   0  0  0  0  0  0  0  0  0  0  0  0
  201.4231  177.2290  145.2339 C   0  0  0  0  0  0  0  0  0  0  0  0
  200.3005  177.1103  146.0755 C   0  0  0  0  0  0  0  0  0  0  0  0
  198.7497  175.5243  148.4836 C   0  0  2  0  0  0  0  0  0  0  0  0
  198.4702  179.4428  153.2582 C   0  0  0  0  0  0  0  0  0  0  0  0
  198.1349  179.7572  154.6039 C   0  0  0  0  0  0  0  0  0  0  0  0
  198.7398  179.0377  155.6606 C   0  0  0  0  0  0  0  0  0  0  0  0
  199.6553  178.0063  155.3924 C   0  0  0  0  0  0  0  0  0  0  0  0
  199.9917  177.6958  154.0639 C   0  0  0  0  0  0  0  0  0  0  0  0
  199.4090  178.4117  153.0023 C   0  0  0  0  0  0  0  0  0  0  0  0
  197.2635  177.5005  148.4081 H   0  0  0  0  0  0  0  0  0  0  0  0
  194.4859  183.7524  159.6661 H   0  0  0  0  0  0  0  0  0  0  0  0
  198.5932  183.9614  158.3156 H   0  0  0  0  0  0  0  0  0  0  0  0
  198.7723  186.2416  159.2596 H   0  0  0  0  0  0  0  0  0  0  0  0
  196.8304  187.2678  160.4328 H   0  0  0  0  0  0  0  0  0  0  0  0
  197.1131  181.6427  158.7816 H   0  0  0  0  0  0  0  0  0  0  0  0
  195.1495  180.7969  158.1644 H   0  0  0  0  0  0  0  0  0  0  0  0
  196.7462  180.2654  156.8059 H   0  0  0  0  0  0  0  0  0  0  0  0
  196.4317  181.7657  151.8113 H   0  0  0  0  0  0  0  0  0  0  0  0
  197.6288  179.7937  147.6385 H   0  0  0  0  0  0  0  0  0  0  0  0
  199.3472  179.5372  147.8474 H   0  0  0  0  0  0  0  0  0  0  0  0
  199.5573  177.2638  149.4061 H   0  0  0  0  0  0  0  0  0  0  0  0
  201.8902  177.1661  149.1012 H   0  0  0  0  0  0  0  0  0  0  0  0
  203.5737  177.4321  145.1475 H   0  0  0  0  0  0  0  0  0  0  0  0
  201.2854  177.2442  144.1611 H   0  0  0  0  0  0  0  0  0  0  0  0
  199.3173  177.0409  145.6330 H   0  0  0  0  0  0  0  0  0  0  0  0
  199.5412  174.8645  148.8391 H   0  0  0  0  0  0  0  0  0  0  0  0
  198.4196  175.1557  147.5107 H   0  0  0  0  0  0  0  0  0  0  0  0
  197.9156  175.4356  149.1801 H   0  0  0  0  0  0  0  0  0  0  0  0
  198.5030  179.2403  156.6951 H   0  0  0  0  0  0  0  0  0  0  0  0
  200.0939  177.4559  156.2129 H   0  0  0  0  0  0  0  0  0  0  0  0
  200.6949  176.9004  153.8622 H   0  0  0  0  0  0  0  0  0  0  0  0
  199.6771  178.1447  151.9917 H   0  0  0  0  0  0  0  0  0  0  0  0
  1  2  1  0
  2  3  2  0
  2  7  1  0
  3  4  1  0
  3 37  1  0
  4  5  2  0
  4  8  1  0
  5  6  1  0
  5 38  1  0
  6  7  2  0
  6 39  1  0
  7 40  1  0
  8  9  1  0
  8 10  1  0
  8 41  1  1
  9 42  1  0
 10 11  2  0
 10 12  1  0
 12 13  1  0
 12 43  1  0
 13 14  1  0
 13 31  2  0
 14 15  2  0
 15 16  1  0
 15 44  1  0
 16 17  1  0
 16 30  2  0
 17 18  3  0
 18 19  1  0
 19 20  1  0
 19 45  1  6
 19 46  1  0
 20 21  1  0
 20 36  1  0
 21 22  1  0
 21 29  1  0
 21 47  1  1
 22 23  1  0
 22 28  2  0
 23 24  2  0
 23 48  1  0
 24 25  1  0
 24 26  1  0
 26 27  2  0
 26 49  1  0
 27 28  1  0
 27 50  1  0
 28 51  1  0
 29 52  1  1
 29 53  1  0
 29 54  1  0
 30 31  1  0
 30 35  1  0
 31 32  1  0
 32 33  2  0
 32 55  1  0
 33 34  1  0
 33 56  1  0
 34 35  2  0
 34 57  1  0
 35 58  1  0
M  END
>  <s_epik_cmdline>  (974) 
J2VwaWtfcHl0aG9uJywgJy1waCcsICc3LjAwMDAwMCcsICctcGh0JywgJzIuMDAwMDAwJywgJy1tcycsICcxNicsICctdG4nLCAnOCcsICctbWEnLCAnMjAwJywgJy1pbWFlJywgJzxpbmZpbGUubWFlPicsICctb21hZScsICc8b3V0ZmlsZS5tYWU+Jw==

>  <s_epik_input>  (974) 
Q2xjMVtjSF1jKFtjSF1bY0hdW2NIXTEpW0NAQEhdKFtPSF0pQyg9TylbTkhdYyhjKGMyMylbY0hdW2NIXVtjSF1bY0hdMyluW2NIXWMyQyNDW0NIMl1bTkhdW0NAQEhdKFtDSDNdKWM0W2NIXWMoRilbY0hdW2NIXVtjSF00

>  <s_i_glide_gridfile>  (974) 
ATP-Grid

>  <s_lp_Force_Field>  (974) 
OPLS_2005

>  <s_lp_Variant>  (974) 
rxn503b____EMOL299973501____EMOL7515103____EMOL317509042-3

>  <s_lp_label>  (974) 
2520_sdstereoexpander_3_neutralizer_1_epik_1_stereoizer_1

>  <s_m_source_file>  (974) 
ATP-VSW-LIGPREP-002-in.maegz

>  <s_sd_BIOSOLVEIT.INFINISEE\_QUERY\_NAME>  (974) 
Ref-Lig

>  <s_sd_BIOSOLVEIT.INFINISEE\_QUERY\_SMILES>  (974) 
S(c1nc2c(cc1C[NH2+]Cc3ccc(cc3)C[NH+](C)C)cccc2)Cc4ccccc4

>  <s_sd_BIOSOLVEIT.INFINISEE\_REACTION\_NAME>  (974) 
rxn503b

>  <s_sd_BIOSOLVEIT.INFINISEE\_REAGENT1\_NAME>  (974) 
EMOL299973501

>  <s_sd_BIOSOLVEIT.INFINISEE\_REAGENT1\_SMILES>  (974) 
Clc1cc(ccc1)C(O)C(=O)O

>  <s_sd_BIOSOLVEIT.INFINISEE\_REAGENT2\_NAME>  (974) 
EMOL7515103

>  <s_sd_BIOSOLVEIT.INFINISEE\_REAGENT2\_SMILES>  (974) 
Brc1c2c(c(nc1)N)cccc2

>  <s_sd_BIOSOLVEIT.INFINISEE\_REAGENT3\_NAME>  (974) 
EMOL317509042

>  <s_sd_BIOSOLVEIT.INFINISEE\_REAGENT3\_SMILES>  (974) 
Fc1cc(ccc1)C(NCC#C)C

>  <s_sd_BIOSOLVEIT.INFINISEE\_SPACE>  (974) 
eXplore_7tr_2022-12

>  <s_vsw_compound_code>  (974) 
80610

>  <s_vsw_variant>  (974) 
80610-3

>  <r_epik_Charging_Adjusted_Penalty>  (974) 
0.25225277160849602

>  <r_epik_Ionization_Penalty>  (974) 
0.25750000000000001

>  <r_epik_Ionization_Penalty_Charging>  (974) 
0

>  <r_epik_Ionization_Penalty_Neutral>  (974) 
0.25750000000000001

>  <r_epik_State_Penalty>  (974) 
0.25230000000000002

>  <r_i_docking_score>  (974) 
-4.4453365122741699

>  <r_i_glide_ecoul>  (974) 
-9.5860166549682599

>  <r_i_glide_eff_state_penalty>  (974) 
0.25230000000000002

>  <r_i_glide_einternal>  (974) 
8.5623970031738299

>  <r_i_glide_emodel>  (974) 
-58.147056015216997

>  <r_i_glide_energy>  (974) 
-47.108740806579597

>  <r_i_glide_erotb>  (974) 
0.597784688238156

>  <r_i_glide_esite>  (974) 
-0.15124930680451101

>  <r_i_glide_evdw>  (974) 
-37.5227241516113

>  <r_i_glide_gscore>  (974) 
-4.6976365122741699

>  <r_i_glide_hbond>  (974) 
-0.152

>  <r_i_glide_ligand_efficiency>  (974) 
-0.127009614636405

>  <r_i_glide_ligand_efficiency_ln>  (974) 
-0.97585002337246696

>  <r_i_glide_ligand_efficiency_sa>  (974) 
-0.41545687101481499

>  <r_i_glide_lipo>  (974) 
-1.5959892537911

>  <r_i_glide_metal>  (974) 
-0

>  <r_i_glide_rewards>  (974) 
-0.082143934090908297

>  <r_lp_Energy>  (974) 
25.095541000000001

>  <r_qp_ACxDN^.5/SA>  (974) 
0.0151527

>  <r_qp_CIQPlogS>  (974) 
-6.5640000000000001

>  <r_qp_EA(eV)>  (974) 
1.137

>  <r_qp_FISA>  (974) 
108.58199999999999

>  <r_qp_FOSA>  (974) 
147.91999999999999

>  <r_qp_IP(eV)>  (974) 
8.3640000000000008

>  <r_qp_Jm>  (974) 
0.00112315355241432

>  <r_qp_PISA>  (974) 
399.49200000000002

>  <r_qp_PSA>  (974) 
77.921000000000006

>  <r_qp_PercentHumanOralAbsorption>  (974) 
100

>  <r_qp_QPPCaco>  (974) 
230.73500000000001

>  <r_qp_QPPMDCK>  (974) 
448.37400000000002

>  <r_qp_QPlogBB>  (974) 
-0.41799999999999998

>  <r_qp_QPlogHERG>  (974) 
-7.2610000000000001

>  <r_qp_QPlogKhsa>  (974) 
0.753

>  <r_qp_QPlogKp>  (974) 
-3.3119999999999998

>  <r_qp_QPlogPC16>  (974) 
16.193999999999999

>  <r_qp_QPlogPo/w>  (974) 
4.8659999999999997

>  <r_qp_QPlogPoct>  (974) 
25.622

>  <r_qp_QPlogPw>  (974) 
14.065

>  <r_qp_QPlogS>  (974) 
-5.3259999999999996

>  <r_qp_QPpolrz>  (974) 
49.866999999999997

>  <r_qp_SASA>  (974) 
765.85400000000004

>  <r_qp_SAamideO>  (974) 
0

>  <r_qp_SAfluorine>  (974) 
38.264000000000003

>  <r_qp_WPSA>  (974) 
109.85899999999999

>  <r_qp_accptHB>  (974) 
6.7000000000000002

>  <r_qp_dip^2/V>  (974) 
0.032144399999999997

>  <r_qp_dipole>  (974) 
6.8250000000000002

>  <r_qp_donorHB>  (974) 
3

>  <r_qp_glob>  (974) 
0.80855909999999998

>  <r_qp_mol_MW>  (974) 
487.95999999999998

>  <r_qp_volume>  (974) 
1448.902

>  <r_sd_BIOSOLVEIT.INFINISEE\_FTREES\_SIMILARITY>  (974) 
0.91300000000000003

>  <r_sd_BIOSOLVEIT.LOGP>  (974) 
4.3754999999999997

>  <r_sd_BIOSOLVEIT.MOLECULAR\_WEIGHT>  (974) 
488.96800000000002

>  <r_sd_BIOSOLVEIT.TPSA>  (974) 
78.829999999999998

>  <i_epik_Tot_Q>  (974) 
0

>  <i_epik_Tot_abs_Q>  (974) 
0

>  <i_f3d_flags>  (974) 
0

>  <i_i_glide_confnum>  (974) 
4

>  <i_i_glide_lignum>  (974) 
1105

>  <i_i_glide_posenum>  (974) 
16

>  <i_i_glide_rotatable_bonds>  (974) 
10

>  <i_lp_mmshare_version>  (974) 
65135

>  <i_m_ct_format>  (974) 
2

>  <i_m_source_file_index>  (974) 
2520

>  <i_qp_#NandO>  (974) 
5

>  <i_qp_#acid>  (974) 
0

>  <i_qp_#amide>  (974) 
0

>  <i_qp_#amidine>  (974) 
0

>  <i_qp_#amine>  (974) 
1

>  <i_qp_#in34>  (974) 
0

>  <i_qp_#in56>  (974) 
22

>  <i_qp_#metab>  (974) 
7

>  <i_qp_#nonHatm>  (974) 
35

>  <i_qp_#noncon>  (974) 
0

>  <i_qp_#ringatoms>  (974) 
22

>  <i_qp_#rotor>  (974) 
9

>  <i_qp_#rtvFG>  (974) 
0

>  <i_qp_#stars>  (974) 
0

>  <i_qp_CNS>  (974) 
0

>  <i_qp_HumanOralAbsorption>  (974) 
3

>  <i_qp_RuleOfFive>  (974) 
0

>  <i_qp_RuleOfThree>  (974) 
1

>  <i_sd_BIOSOLVEIT.INFINISEE\_RESULT\_RANK>  (974) 
32818

>  <i_sd_version>  (974) 
0

>  <b_lp_Chiralities_Consistent>  (974) 
1

>  <b_sd_chiral_flag>  (974) 
0

>  <canonical_id>  (974) 
ATP-HTVS-9AD82B0B5D2D

>  <compound_code>  (974) 
80610

>  <title>  (974) 
rxn503b____EMOL299973501____EMOL7515103____EMOL317509042

>  <variant>  (974) 
80610-3

>  <source_file>  (974) 
运行/运行/ATP-VSW/ATP-VSW-DOCK_HTVS_1-002_lib.maegz

>  <canonical_smiles>  (974) 
C[C@H](NCC#Cc1cnc(NC(=O)[C@H](O)c2cccc(Cl)c2)c2ccccc12)c1cccc(F)c1

>  <scaffold>  (974) 
O=C(Cc1ccccc1)Nc1ncc(C#CCNCc2ccccc2)c2ccccc12

>  <molecular_formula>  (974) 
C28H23ClFN3O2

$$$$
ATP-HTVS-9AEFC257B6AB
     RDKit          3D

 61 64  0  0  0  0  0  0  0  0999 V2000
  196.3153  179.6202  150.4583 O   0  0  0  0  0  0  0  0  0  0  0  0
  197.3860  179.0432  150.6525 C   0  0  0  0  0  0  0  0  0  0  0  0
  198.1398  179.1588  151.7667 N   0  0  0  0  0  0  0  0  0  0  0  0
  197.9087  179.9207  152.9522 C   0  0  0  0  0  0  0  0  0  0  0  0
  196.8856  180.8027  153.0420 N   0  0  0  0  0  0  0  0  0  0  0  0
  196.7309  181.5385  154.1543 C   0  0  0  0  0  0  0  0  0  0  0  0
  197.5676  181.4448  155.2704 C   0  0  0  0  0  0  0  0  0  0  0  0
  197.3275  182.3089  156.3466 N   0  0  0  0  0  0  0  0  0  0  0  0
  196.4287  181.8488  157.3953 C   0  0  1  0  0  0  0  0  0  0  0  0
  196.0206  182.9640  158.3417 C   0  0  0  0  0  0  0  0  0  0  0  0
  196.9887  183.8188  158.9081 C   0  0  0  0  0  0  0  0  0  0  0  0
  196.5885  184.8907  159.7330 C   0  0  0  0  0  0  0  0  0  0  0  0
  195.2241  185.1130  160.0131 C   0  0  0  0  0  0  0  0  0  0  0  0
  194.8819  186.1933  160.8391 N   0  0  0  0  0  0  0  0  0  0  0  0
  193.4975  186.4586  161.1963 C   0  0  1  0  0  0  0  0  0  0  0  0
  193.3754  187.3570  162.4353 C   0  0  1  0  0  0  0  0  0  0  0  0
  192.7195  186.6579  163.4707 O   0  0  0  0  0  0  0  0  0  0  0  0
  194.2632  184.2373  159.4539 C   0  0  0  0  0  0  0  0  0  0  0  0
  194.6590  183.1665  158.6289 C   0  0  0  0  0  0  0  0  0  0  0  0
  198.6312  180.5057  155.2242 C   0  0  0  0  0  0  0  0  0  0  0  0
  198.8165  179.7387  154.0366 C   0  0  0  0  0  0  0  0  0  0  0  0
  199.9015  178.8238  153.9766 C   0  0  0  0  0  0  0  0  0  0  0  0
  200.7689  178.6580  155.0732 C   0  0  0  0  0  0  0  0  0  0  0  0
  200.5828  179.4155  156.2439 C   0  0  0  0  0  0  0  0  0  0  0  0
  199.5220  180.3435  156.3167 C   0  0  0  0  0  0  0  0  0  0  0  0
  197.9834  178.1883  149.5618 C   0  0  0  0  0  0  0  0  0  0  0  0
  198.6269  176.9348  149.7932 C   0  0  0  0  0  0  0  0  0  0  0  0
  199.1721  176.2215  148.7039 C   0  0  0  0  0  0  0  0  0  0  0  0
  199.0731  176.7149  147.3903 C   0  0  0  0  0  0  0  0  0  0  0  0
  198.4135  177.9321  147.1474 C   0  0  0  0  0  0  0  0  0  0  0  0
  197.8755  178.6597  148.2298 C   0  0  0  0  0  0  0  0  0  0  0  0
  198.2864  178.4467  145.7262 C   0  0  2  0  0  0  0  0  0  0  0  0
  198.7554  176.2882  151.1624 C   0  0  2  0  0  0  0  0  0  0  0  0
  198.9874  178.6154  151.7633 H   0  0  0  0  0  0  0  0  0  0  0  0
  195.9226  182.2577  154.1571 H   0  0  0  0  0  0  0  0  0  0  0  0
  198.0252  183.0001  156.6013 H   0  0  0  0  0  0  0  0  0  0  0  0
  195.5416  181.3961  156.9423 H   0  0  0  0  0  0  0  0  0  0  0  0
  196.9177  181.0647  157.9734 H   0  0  0  0  0  0  0  0  0  0  0  0
  198.0388  183.6714  158.7003 H   0  0  0  0  0  0  0  0  0  0  0  0
  197.3408  185.5458  160.1466 H   0  0  0  0  0  0  0  0  0  0  0  0
  195.5850  186.8832  161.0672 H   0  0  0  0  0  0  0  0  0  0  0  0
  193.0333  186.9784  160.3663 H   0  0  0  0  0  0  0  0  0  0  0  0
  192.9289  185.5416  161.3453 H   0  0  0  0  0  0  0  0  0  0  0  0
  194.3450  187.7093  162.7807 H   0  0  0  0  0  0  0  0  0  0  0  0
  192.7927  188.2437  162.1840 H   0  0  0  0  0  0  0  0  0  0  0  0
  191.8477  186.4473  163.1684 H   0  0  0  0  0  0  0  0  0  0  0  0
  193.2046  184.3610  159.6236 H   0  0  0  0  0  0  0  0  0  0  0  0
  193.9133  182.5136  158.1973 H   0  0  0  0  0  0  0  0  0  0  0  0
  200.1156  178.2431  153.0958 H   0  0  0  0  0  0  0  0  0  0  0  0
  201.5806  177.9421  155.0137 H   0  0  0  0  0  0  0  0  0  0  0  0
  201.2586  179.2824  157.0767 H   0  0  0  0  0  0  0  0  0  0  0  0
  199.3865  180.9289  157.2166 H   0  0  0  0  0  0  0  0  0  0  0  0
  199.6714  175.2797  148.8751 H   0  0  0  0  0  0  0  0  0  0  0  0
  199.5043  176.1517  146.5732 H   0  0  0  0  0  0  0  0  0  0  0  0
  197.3730  179.5981  148.0304 H   0  0  0  0  0  0  0  0  0  0  0  0
  197.9408  179.4788  145.7095 H   0  0  0  0  0  0  0  0  0  0  0  0
  197.5784  177.8367  145.1660 H   0  0  0  0  0  0  0  0  0  0  0  0
  199.2492  178.4030  145.2180 H   0  0  0  0  0  0  0  0  0  0  0  0
  198.9830  175.2241  151.0861 H   0  0  0  0  0  0  0  0  0  0  0  0
  197.8323  176.3772  151.7305 H   0  0  0  0  0  0  0  0  0  0  0  0
  199.5722  176.7528  151.7079 H   0  0  0  0  0  0  0  0  0  0  0  0
  1  2  2  0
  2  3  1  0
  2 26  1  0
  3  4  1  0
  3 34  1  0
  4  5  1  0
  4 21  2  0
  5  6  2  0
  6  7  1  0
  6 35  1  0
  7  8  1  0
  7 20  2  0
  8  9  1  0
  8 36  1  0
  9 10  1  0
  9 37  1  6
  9 38  1  0
 10 11  1  0
 10 19  2  0
 11 12  2  0
 11 39  1  0
 12 13  1  0
 12 40  1  0
 13 14  1  0
 13 18  2  0
 14 15  1  0
 14 41  1  0
 15 16  1  0
 15 42  1  6
 15 43  1  0
 16 17  1  0
 16 44  1  1
 16 45  1  0
 17 46  1  0
 18 19  1  0
 18 47  1  0
 19 48  1  0
 20 21  1  0
 20 25  1  0
 21 22  1  0
 22 23  2  0
 22 49  1  0
 23 24  1  0
 23 50  1  0
 24 25  2  0
 24 51  1  0
 25 52  1  0
 26 27  2  0
 26 31  1  0
 27 28  1  0
 27 33  1  0
 28 29  2  0
 28 53  1  0
 29 30  1  0
 29 54  1  0
 30 31  2  0
 30 32  1  0
 31 55  1  0
 32 56  1  1
 32 57  1  0
 32 58  1  0
 33 59  1  6
 33 60  1  0
 33 61  1  0
M  END
>  <s_epik_cmdline>  (975) 
J2VwaWtfcHl0aG9uJywgJy1waCcsICc3LjAwMDAwMCcsICctcGh0JywgJzIuMDAwMDAwJywgJy1tcycsICcxNicsICctdG4nLCAnOCcsICctbWEnLCAnMjAwJywgJy1pbWFlJywgJzxpbmZpbGUubWFlPicsICctb21hZScsICc8b3V0ZmlsZS5tYWU+Jw==

>  <s_epik_input>  (975) 
W2NIXTFjKFtDSDNdKVtjSF1bY0hdYyhbQ0gzXSljMUMoPU8pW05IXWMoYyhjMjMpW2NIXVtjSF1bY0hdW2NIXTMpbltjSF1jMltOSF1bQ0gyXWM0W2NIXVtjSF1jKFtjSF1bY0hdNClbTkhdW0NIMl1bQ0gyXVtPSF0=

>  <s_i_glide_gridfile>  (975) 
ATP-Grid

>  <s_lp_Force_Field>  (975) 
OPLS_2005

>  <s_lp_Variant>  (975) 
rxn502b____EMOL11467954____EMOL7515103____EMOL324170366-1

>  <s_lp_label>  (975) 
2965_sdstereoexpander_1_neutralizer_1_epik_1_stereoizer_1

>  <s_m_source_file>  (975) 
ATP-VSW-LIGPREP-002-in.maegz

>  <s_sd_BIOSOLVEIT.INFINISEE\_QUERY\_NAME>  (975) 
Ref-Lig

>  <s_sd_BIOSOLVEIT.INFINISEE\_QUERY\_SMILES>  (975) 
S(c1nc2c(cc1C[NH2+]Cc3ccc(cc3)C[NH+](C)C)cccc2)Cc4ccccc4

>  <s_sd_BIOSOLVEIT.INFINISEE\_REACTION\_NAME>  (975) 
rxn502b

>  <s_sd_BIOSOLVEIT.INFINISEE\_REAGENT1\_NAME>  (975) 
EMOL11467954

>  <s_sd_BIOSOLVEIT.INFINISEE\_REAGENT1\_SMILES>  (975) 
ClC(=O)c1c(ccc(c1)C)C

>  <s_sd_BIOSOLVEIT.INFINISEE\_REAGENT2\_NAME>  (975) 
EMOL7515103

>  <s_sd_BIOSOLVEIT.INFINISEE\_REAGENT2\_SMILES>  (975) 
Brc1c2c(c(nc1)N)cccc2

>  <s_sd_BIOSOLVEIT.INFINISEE\_REAGENT3\_NAME>  (975) 
EMOL324170366

>  <s_sd_BIOSOLVEIT.INFINISEE\_REAGENT3\_SMILES>  (975) 
OCCNc1ccc(cc1)CN

>  <s_sd_BIOSOLVEIT.INFINISEE\_SPACE>  (975) 
eXplore_7tr_2022-12

>  <s_vsw_compound_code>  (975) 
94850

>  <s_vsw_variant>  (975) 
94850-1

>  <r_epik_Charging_Adjusted_Penalty>  (975) 
0.0117043856515906

>  <r_epik_Ionization_Penalty>  (975) 
0.0118

>  <r_epik_Ionization_Penalty_Charging>  (975) 
0

>  <r_epik_Ionization_Penalty_Neutral>  (975) 
0.0118

>  <r_epik_State_Penalty>  (975) 
0.0117

>  <r_i_docking_score>  (975) 
-4.6686251091270199

>  <r_i_glide_ecoul>  (975) 
-4.1889901161193803

>  <r_i_glide_eff_state_penalty>  (975) 
0.0117

>  <r_i_glide_einternal>  (975) 
14.240238189697299

>  <r_i_glide_emodel>  (975) 
-57.187045779055403

>  <r_i_glide_energy>  (975) 
-49.087522983550997

>  <r_i_glide_erotb>  (975) 
0.92597891764665796

>  <r_i_glide_esite>  (975) 
-0.036392471125602302

>  <r_i_glide_evdw>  (975) 
-44.898532867431598

>  <r_i_glide_gscore>  (975) 
-4.6803251091270202

>  <r_i_glide_hbond>  (975) 
-0.32000000000000001

>  <r_i_glide_ligand_efficiency>  (975) 
-0.14147348815536401

>  <r_i_glide_ligand_efficiency_ln>  (975) 
-1.0382780514227401

>  <r_i_glide_ligand_efficiency_sa>  (975) 
-0.453781069513705

>  <r_i_glide_lipo>  (975) 
-1.86882843375896

>  <r_i_glide_metal>  (975) 
-0

>  <r_i_glide_rewards>  (975) 
-0.50780796109961901

>  <r_lp_Energy>  (975) 
34.695371999999999

>  <r_qp_ACxDN^.5/SA>  (975) 
0.017293900000000001

>  <r_qp_CIQPlogS>  (975) 
-6.3849999999999998

>  <r_qp_EA(eV)>  (975) 
0.74099999999999999

>  <r_qp_FISA>  (975) 
126.49299999999999

>  <r_qp_FOSA>  (975) 
270.54300000000001

>  <r_qp_IP(eV)>  (975) 
7.532

>  <r_qp_Jm>  (975) 
0.0020349433547928101

>  <r_qp_PISA>  (975) 
435.62700000000001

>  <r_qp_PSA>  (975) 
88.531000000000006

>  <r_qp_PercentHumanOralAbsorption>  (975) 
100

>  <r_qp_QPPCaco>  (975) 
625.69799999999998

>  <r_qp_QPPMDCK>  (975) 
298.01900000000001

>  <r_qp_QPlogBB>  (975) 
-1.4750000000000001

>  <r_qp_QPlogHERG>  (975) 
-7.6440000000000001

>  <r_qp_QPlogKhsa>  (975) 
0.58599999999999997

>  <r_qp_QPlogKp>  (975) 
-1.452

>  <r_qp_QPlogPC16>  (975) 
17.081

>  <r_qp_QPlogPo/w>  (975) 
4.577

>  <r_qp_QPlogPoct>  (975) 
27.734000000000002

>  <r_qp_QPlogPw>  (975) 
16.512

>  <r_qp_QPlogS>  (975) 
-6.883

>  <r_qp_QPpolrz>  (975) 
51.030999999999999

>  <r_qp_SASA>  (975) 
832.66300000000001

>  <r_qp_SAamideO>  (975) 
0

>  <r_qp_SAfluorine>  (975) 
0

>  <r_qp_WPSA>  (975) 
0

>  <r_qp_accptHB>  (975) 
7.2000000000000002

>  <r_qp_dip^2/V>  (975) 
0.080759700000000004

>  <r_qp_dipole>  (975) 
10.893000000000001

>  <r_qp_donorHB>  (975) 
4

>  <r_qp_glob>  (975) 
0.75066379999999999

>  <r_qp_mol_MW>  (975) 
440.54399999999998

>  <r_qp_volume>  (975) 
1469.347

>  <r_sd_BIOSOLVEIT.INFINISEE\_FTREES\_SIMILARITY>  (975) 
0.90300000000000002

>  <r_sd_BIOSOLVEIT.LOGP>  (975) 
5.1202399999999999

>  <r_sd_BIOSOLVEIT.MOLECULAR\_WEIGHT>  (975) 
440.54399999999998

>  <r_sd_BIOSOLVEIT.TPSA>  (975) 
86.280000000000001

>  <i_epik_Tot_Q>  (975) 
0

>  <i_epik_Tot_abs_Q>  (975) 
0

>  <i_f3d_flags>  (975) 
0

>  <i_i_glide_confnum>  (975) 
9

>  <i_i_glide_lignum>  (975) 
21

>  <i_i_glide_posenum>  (975) 
13

>  <i_i_glide_rotatable_bonds>  (975) 
10

>  <i_lp_mmshare_version>  (975) 
65135

>  <i_m_ct_format>  (975) 
2

>  <i_m_source_file_index>  (975) 
2965

>  <i_qp_#NandO>  (975) 
6

>  <i_qp_#acid>  (975) 
0

>  <i_qp_#amide>  (975) 
0

>  <i_qp_#amidine>  (975) 
0

>  <i_qp_#amine>  (975) 
0

>  <i_qp_#in34>  (975) 
0

>  <i_qp_#in56>  (975) 
22

>  <i_qp_#metab>  (975) 
10

>  <i_qp_#nonHatm>  (975) 
33

>  <i_qp_#noncon>  (975) 
0

>  <i_qp_#ringatoms>  (975) 
22

>  <i_qp_#rotor>  (975) 
9

>  <i_qp_#rtvFG>  (975) 
0

>  <i_qp_#stars>  (975) 
3

>  <i_qp_CNS>  (975) 
-2

>  <i_qp_HumanOralAbsorption>  (975) 
1

>  <i_qp_RuleOfFive>  (975) 
0

>  <i_qp_RuleOfThree>  (975) 
2

>  <i_sd_BIOSOLVEIT.INFINISEE\_RESULT\_RANK>  (975) 
81957

>  <i_sd_version>  (975) 
0

>  <b_lp_Chiralities_Consistent>  (975) 
1

>  <b_sd_chiral_flag>  (975) 
0

>  <canonical_id>  (975) 
ATP-HTVS-9AEFC257B6AB

>  <compound_code>  (975) 
94850

>  <title>  (975) 
rxn502b____EMOL11467954____EMOL7515103____EMOL324170366

>  <variant>  (975) 
94850-1

>  <source_file>  (975) 
运行/运行/ATP-VSW/ATP-VSW-DOCK_HTVS_1-003_lib/ATP-VSW-DOCK_HTVS_1-003_lib.mae

>  <canonical_smiles>  (975) 
Cc1ccc(C)c(C(=O)Nc2ncc(NCc3ccc(NCCO)cc3)c3ccccc23)c1

>  <scaffold>  (975) 
O=C(Nc1ncc(NCc2ccccc2)c2ccccc12)c1ccccc1

>  <molecular_formula>  (975) 
C27H28N4O2

$$$$
ATP-HTVS-9AF19AD81321
     RDKit          3D

 52 54  0  0  0  0  0  0  0  0999 V2000
  199.9689  186.4780  148.4006 F   0  0  0  0  0  0  0  0  0  0  0  0
  199.5668  185.8445  147.2726 C   0  0  0  0  0  0  0  0  0  0  0  0
  198.8227  184.6406  147.3448 C   0  0  0  0  0  0  0  0  0  0  0  0
  198.4811  184.0413  148.5953 N   0  0  0  0  0  0  0  0  0  0  0  0
  197.7425  184.7128  149.5310 C   0  0  0  0  0  0  0  0  0  0  0  0
  197.2781  185.8356  149.3323 O   0  0  0  0  0  0  0  0  0  0  0  0
  197.5018  184.0848  150.8836 C   0  0  0  0  0  0  0  0  0  0  0  0
  197.8197  184.7898  152.0737 C   0  0  0  0  0  0  0  0  0  0  0  0
  197.6328  184.1587  153.3258 C   0  0  0  0  0  0  0  0  0  0  0  0
  197.1954  182.8858  153.4136 N   0  0  0  0  0  0  0  0  0  0  0  0
  196.8269  182.2415  152.2885 C   0  0  0  0  0  0  0  0  0  0  0  0
  196.9252  182.8005  151.0026 C   0  0  0  0  0  0  0  0  0  0  0  0
  197.9058  184.8684  154.5070 N   0  0  0  0  0  0  0  0  0  0  0  0
  197.8049  184.4509  155.8477 C   0  0  0  0  0  0  0  0  0  0  0  0
  196.9712  183.3910  156.2862 C   0  0  0  0  0  0  0  0  0  0  0  0
  196.9201  183.0151  157.6415 C   0  0  0  0  0  0  0  0  0  0  0  0
  197.6913  183.7148  158.5920 C   0  0  0  0  0  0  0  0  0  0  0  0
  198.5004  184.7886  158.1754 C   0  0  0  0  0  0  0  0  0  0  0  0
  198.5574  185.1531  156.8150 C   0  0  0  0  0  0  0  0  0  0  0  0
  196.0202  181.8652  158.0504 C   0  0  1  0  0  0  0  0  0  0  0  0
  194.5923  182.2718  158.1404 N   0  0  1  0  0  0  0  0  0  0  0  0
  193.6992  181.1173  158.3642 C   0  0  2  0  0  0  0  0  0  0  0  0
  194.3418  183.3712  159.0961 C   0  0  2  0  0  0  0  0  0  0  0  0
  198.9156  182.6477  148.7753 C   0  0  2  0  0  0  0  0  0  0  0  0
  198.4820  183.9716  146.1480 C   0  0  0  0  0  0  0  0  0  0  0  0
  198.8643  184.4936  144.8984 C   0  0  0  0  0  0  0  0  0  0  0  0
  199.5868  185.6990  144.8348 C   0  0  0  0  0  0  0  0  0  0  0  0
  199.9342  186.3740  146.0191 C   0  0  0  0  0  0  0  0  0  0  0  0
  198.2080  185.8086  152.0248 H   0  0  0  0  0  0  0  0  0  0  0  0
  196.4541  181.2409  152.4211 H   0  0  0  0  0  0  0  0  0  0  0  0
  196.6054  182.2317  150.1369 H   0  0  0  0  0  0  0  0  0  0  0  0
  198.3153  185.7810  154.3576 H   0  0  0  0  0  0  0  0  0  0  0  0
  196.3286  182.8441  155.6120 H   0  0  0  0  0  0  0  0  0  0  0  0
  197.6464  183.4399  159.6368 H   0  0  0  0  0  0  0  0  0  0  0  0
  199.0820  185.3365  158.9005 H   0  0  0  0  0  0  0  0  0  0  0  0
  199.1905  185.9753  156.5123 H   0  0  0  0  0  0  0  0  0  0  0  0
  196.1313  181.0844  157.2970 H   0  0  0  0  0  0  0  0  0  0  0  0
  196.3501  181.4397  158.9975 H   0  0  0  0  0  0  0  0  0  0  0  0
  193.9081  180.6457  159.3234 H   0  0  0  0  0  0  0  0  0  0  0  0
  193.8200  180.3772  157.5764 H   0  0  0  0  0  0  0  0  0  0  0  0
  192.6565  181.4287  158.3437 H   0  0  0  0  0  0  0  0  0  0  0  0
  194.6356  183.0756  160.1035 H   0  0  0  0  0  0  0  0  0  0  0  0
  193.2841  183.6425  159.1079 H   0  0  0  0  0  0  0  0  0  0  0  0
  194.8958  184.2742  158.8345 H   0  0  0  0  0  0  0  0  0  0  0  0
  199.4417  182.5199  149.7259 H   0  0  0  0  0  0  0  0  0  0  0  0
  199.6399  182.3446  148.0061 H   0  0  0  0  0  0  0  0  0  0  0  0
  198.0665  181.9802  148.7495 H   0  0  0  0  0  0  0  0  0  0  0  0
  197.9463  183.0366  146.1876 H   0  0  0  0  0  0  0  0  0  0  0  0
  198.6089  183.9652  143.9942 H   0  0  0  0  0  0  0  0  0  0  0  0
  199.8756  186.1077  143.8756 H   0  0  0  0  0  0  0  0  0  0  0  0
  200.5013  187.2899  145.9670 H   0  0  0  0  0  0  0  0  0  0  0  0
  194.3369  182.6153  157.2103 H   0  0  0  0  0  0  0  0  0  0  0  0
  1  2  1  0
  2  3  1  0
  2 28  2  0
  3  4  1  0
  3 25  2  0
  4  5  1  0
  4 24  1  0
  5  6  2  0
  5  7  1  0
  7  8  1  0
  7 12  2  0
  8  9  2  0
  8 29  1  0
  9 10  1  0
  9 13  1  0
 10 11  2  0
 11 12  1  0
 11 30  1  0
 12 31  1  0
 13 14  1  0
 13 32  1  0
 14 15  2  0
 14 19  1  0
 15 16  1  0
 15 33  1  0
 16 17  2  0
 16 20  1  0
 17 18  1  0
 17 34  1  0
 18 19  2  0
 18 35  1  0
 19 36  1  0
 20 21  1  0
 20 37  1  6
 20 38  1  0
 21 22  1  0
 21 23  1  0
 21 52  1  6
 22 39  1  1
 22 40  1  0
 22 41  1  0
 23 42  1  1
 23 43  1  0
 23 44  1  0
 24 45  1  1
 24 46  1  0
 24 47  1  0
 25 26  1  0
 25 48  1  0
 26 27  2  0
 26 49  1  0
 27 28  1  0
 27 50  1  0
 28 51  1  0
M  CHG  1  21   1
M  END
>  <s_epik_cmdline>  (976) 
J2VwaWtfcHl0aG9uJywgJy1waCcsICc3LjAwMDAwMCcsICctcGh0JywgJzIuMDAwMDAwJywgJy1tcycsICcxNicsICctdG4nLCAnOCcsICctbWEnLCAnMjAwJywgJy1pbWFlJywgJzxpbmZpbGUubWFlPicsICctb21hZScsICc8b3V0ZmlsZS5tYWU+Jw==

>  <s_epik_input>  (976) 
W2NIXTFbY0hdW2NIXVtjSF1jKGMxRilOKFtDSDNdKUMoPU8pYzJbY0hdYyhuW2NIXVtjSF0yKVtOSF1jM1tjSF1jKFtjSF1bY0hdW2NIXTMpW0NIMl1OKFtDSDNdKVtDSDNd

>  <s_i_glide_gridfile>  (976) 
ATP-Grid

>  <s_lp_Force_Field>  (976) 
OPLS_2005

>  <s_lp_Variant>  (976) 
rxn514b____EMOL2726699____EMOL40480322____EMOL4279023-1

>  <s_lp_label>  (976) 
2996_sdstereoexpander_1_neutralizer_1_epik_1_stereoizer_1

>  <s_m_source_file>  (976) 
ATP-VSW-LIGPREP-001-in.maegz

>  <s_sd_BIOSOLVEIT.INFINISEE\_QUERY\_NAME>  (976) 
Ref-Lig

>  <s_sd_BIOSOLVEIT.INFINISEE\_QUERY\_SMILES>  (976) 
S(c1nc2c(cc1C[NH2+]Cc3ccc(cc3)C[NH+](C)C)cccc2)Cc4ccccc4

>  <s_sd_BIOSOLVEIT.INFINISEE\_REACTION\_NAME>  (976) 
rxn514b

>  <s_sd_BIOSOLVEIT.INFINISEE\_REAGENT1\_NAME>  (976) 
EMOL2726699

>  <s_sd_BIOSOLVEIT.INFINISEE\_REAGENT1\_SMILES>  (976) 
Fc1c(NC)cccc1

>  <s_sd_BIOSOLVEIT.INFINISEE\_REAGENT2\_NAME>  (976) 
EMOL40480322

>  <s_sd_BIOSOLVEIT.INFINISEE\_REAGENT2\_SMILES>  (976) 
O=C(OC(C)(C)C)Nc1nccc(c1)C(=O)O

>  <s_sd_BIOSOLVEIT.INFINISEE\_REAGENT3\_NAME>  (976) 
EMOL4279023

>  <s_sd_BIOSOLVEIT.INFINISEE\_REAGENT3\_SMILES>  (976) 
Brc1cc(ccc1)CN(C)C

>  <s_sd_BIOSOLVEIT.INFINISEE\_SPACE>  (976) 
eXplore_7tr_2022-12

>  <s_vsw_compound_code>  (976) 
95841

>  <s_vsw_variant>  (976) 
95841-1

>  <r_epik_Charging_Adjusted_Penalty>  (976) 
0.090574175777464003

>  <r_epik_Ionization_Penalty>  (976) 
0.045699999999999998

>  <r_epik_Ionization_Penalty_Charging>  (976) 
0.0453

>  <r_epik_Ionization_Penalty_Neutral>  (976) 
0.00040000000000000002

>  <r_epik_State_Penalty>  (976) 
0.0453

>  <r_i_docking_score>  (976) 
-4.2878788677618003

>  <r_i_glide_ecoul>  (976) 
-8.8106584548950195

>  <r_i_glide_eff_state_penalty>  (976) 
0.0453

>  <r_i_glide_einternal>  (976) 
3.25173687934875

>  <r_i_glide_emodel>  (976) 
-52.7648686055336

>  <r_i_glide_energy>  (976) 
-39.237961769103997

>  <r_i_glide_erotb>  (976) 
0.80801291096181105

>  <r_i_glide_esite>  (976) 
-0.10000000000000001

>  <r_i_glide_evdw>  (976) 
-30.427303314208999

>  <r_i_glide_gscore>  (976) 
-4.3331788677618004

>  <r_i_glide_hbond>  (976) 
-0.20000000000000001

>  <r_i_glide_ligand_efficiency>  (976) 
-0.15313853099149299

>  <r_i_glide_ligand_efficiency_ln>  (976) 
-0.98976834027357397

>  <r_i_glide_ligand_efficiency_sa>  (976) 
-0.46501877386149398

>  <r_i_glide_lipo>  (976) 
-0.76828296155028897

>  <r_i_glide_metal>  (976) 
-0

>  <r_i_glide_rewards>  (976) 
-1.2299448832286199

>  <r_lp_Energy>  (976) 
38.239443000000001

>  <r_lp_tautomer_probability>  (976) 
0.99999977220005198

>  <r_qp_ACxDN^.5/SA>  (976) 
0.0092177000000000005

>  <r_qp_CIQPlogS>  (976) 
-4.3410000000000002

>  <r_qp_EA(eV)>  (976) 
0.621

>  <r_qp_FISA>  (976) 
56.927999999999997

>  <r_qp_FOSA>  (976) 
255.74700000000001

>  <r_qp_IP(eV)>  (976) 
8.1110000000000007

>  <r_qp_Jm>  (976) 
0.015902544145727102

>  <r_qp_PISA>  (976) 
366.63099999999997

>  <r_qp_PSA>  (976) 
53.335000000000001

>  <r_qp_PercentHumanOralAbsorption>  (976) 
100

>  <r_qp_QPPCaco>  (976) 
712.76700000000005

>  <r_qp_QPPMDCK>  (976) 
525.923

>  <r_qp_QPlogBB>  (976) 
0.067000000000000004

>  <r_qp_QPlogHERG>  (976) 
-7.2839999999999998

>  <r_qp_QPlogKhsa>  (976) 
0.47999999999999998

>  <r_qp_QPlogKp>  (976) 
-2.7639999999999998

>  <r_qp_QPlogPC16>  (976) 
12.955

>  <r_qp_QPlogPo/w>  (976) 
4.0259999999999998

>  <r_qp_QPlogPoct>  (976) 
19.760999999999999

>  <r_qp_QPlogPw>  (976) 
10.85

>  <r_qp_QPlogS>  (976) 
-4.6130000000000004

>  <r_qp_QPpolrz>  (976) 
43.674999999999997

>  <r_qp_SASA>  (976) 
705.16300000000001

>  <r_qp_SAamideO>  (976) 
0

>  <r_qp_SAfluorine>  (976) 
25.856000000000002

>  <r_qp_WPSA>  (976) 
25.856000000000002

>  <r_qp_accptHB>  (976) 
6.5

>  <r_qp_dip^2/V>  (976) 
0.037152299999999999

>  <r_qp_dipole>  (976) 
6.8250000000000002

>  <r_qp_donorHB>  (976) 
1

>  <r_qp_glob>  (976) 
0.79746300000000003

>  <r_qp_mol_MW>  (976) 
378.44799999999998

>  <r_qp_volume>  (976) 
1253.8689999999999

>  <r_sd_BIOSOLVEIT.INFINISEE\_FTREES\_SIMILARITY>  (976) 
0.90300000000000002

>  <r_sd_BIOSOLVEIT.LOGP>  (976) 
2.8854000000000002

>  <r_sd_BIOSOLVEIT.MOLECULAR\_WEIGHT>  (976) 
379.45699999999999

>  <r_sd_BIOSOLVEIT.TPSA>  (976) 
49.670000000000002

>  <i_epik_Tot_Q>  (976) 
1

>  <i_epik_Tot_abs_Q>  (976) 
1

>  <i_f3d_flags>  (976) 
0

>  <i_i_glide_confnum>  (976) 
2

>  <i_i_glide_lignum>  (976) 
1443

>  <i_i_glide_posenum>  (976) 
13

>  <i_i_glide_rotatable_bonds>  (976) 
7

>  <i_lp_mmshare_version>  (976) 
65135

>  <i_m_ct_format>  (976) 
2

>  <i_m_source_file_index>  (976) 
2996

>  <i_qp_#NandO>  (976) 
5

>  <i_qp_#acid>  (976) 
0

>  <i_qp_#amide>  (976) 
0

>  <i_qp_#amidine>  (976) 
0

>  <i_qp_#amine>  (976) 
1

>  <i_qp_#in34>  (976) 
0

>  <i_qp_#in56>  (976) 
18

>  <i_qp_#metab>  (976) 
6

>  <i_qp_#nonHatm>  (976) 
28

>  <i_qp_#noncon>  (976) 
0

>  <i_qp_#ringatoms>  (976) 
18

>  <i_qp_#rotor>  (976) 
6

>  <i_qp_#rtvFG>  (976) 
0

>  <i_qp_#stars>  (976) 
0

>  <i_qp_CNS>  (976) 
1

>  <i_qp_HumanOralAbsorption>  (976) 
3

>  <i_qp_RuleOfFive>  (976) 
0

>  <i_qp_RuleOfThree>  (976) 
0

>  <i_sd_BIOSOLVEIT.INFINISEE\_RESULT\_RANK>  (976) 
85352

>  <i_sd_version>  (976) 
0

>  <b_lp_Chiralities_Consistent>  (976) 
1

>  <b_sd_chiral_flag>  (976) 
0

>  <canonical_id>  (976) 
ATP-HTVS-9AF19AD81321

>  <compound_code>  (976) 
95841

>  <title>  (976) 
rxn514b____EMOL2726699____EMOL40480322____EMOL4279023

>  <variant>  (976) 
95841-1

>  <source_file>  (976) 
运行/运行/ATP-VSW/ATP-VSW-DOCK_HTVS_1-001_lib/ATP-VSW-DOCK_HTVS_1-001_lib

>  <canonical_smiles>  (976) 
CN(C(=O)c1ccnc(Nc2cccc(C[NH+](C)C)c2)c1)c1ccccc1F

>  <scaffold>  (976) 
O=C(Nc1ccccc1)c1ccnc(Nc2ccccc2)c1

>  <molecular_formula>  (976) 
C22H24FN4O+

$$$$
ATP-HTVS-9B930A3F277B
     RDKit          3D

 71 75  0  0  0  0  0  0  0  0999 V2000
  199.0952  185.7507  158.7494 O   0  0  0  0  0  0  0  0  0  0  0  0
  197.9010  185.1166  159.0482 C   0  0  0  0  0  0  0  0  0  0  0  0
  196.8947  185.8543  159.7230 C   0  0  0  0  0  0  0  0  0  0  0  0
  195.6327  185.2595  159.9940 C   0  0  0  0  0  0  0  0  0  0  0  0
  195.3616  183.9456  159.5724 C   0  0  0  0  0  0  0  0  0  0  0  0
  196.3611  183.2098  158.9069 C   0  0  0  0  0  0  0  0  0  0  0  0
  197.6345  183.7798  158.6999 C   0  0  0  0  0  0  0  0  0  0  0  0
  196.0720  181.8136  158.3967 C   0  0  1  0  0  0  0  0  0  0  0  0
  195.9499  181.7512  156.9252 N   0  0  1  0  0  0  0  0  0  0  0  0
  197.1773  182.0697  156.1722 C   0  0  1  0  0  0  0  0  0  0  0  0
  197.1320  181.5498  154.7487 C   0  0  0  0  0  0  0  0  0  0  0  0
  197.4928  180.2138  154.4171 C   0  0  0  0  0  0  0  0  0  0  0  0
  197.3824  179.8100  153.0648 C   0  0  0  0  0  0  0  0  0  0  0  0
  197.0200  180.7233  152.0630 C   0  0  0  0  0  0  0  0  0  0  0  0
  196.6914  182.0548  152.3945 C   0  0  0  0  0  0  0  0  0  0  0  0
  196.7441  182.4568  153.7369 C   0  0  0  0  0  0  0  0  0  0  0  0
  197.9752  179.1992  155.4670 C   0  0  1  0  0  0  0  0  0  0  0  0
  199.4088  178.8752  155.4060 N   0  0  0  0  0  0  0  0  0  0  0  0
  199.7703  177.9306  156.4791 C   0  0  1  0  0  0  0  0  0  0  0  0
  201.2619  177.5275  156.4307 C   0  0  1  0  0  0  0  0  0  0  0  0
  201.6189  176.9346  155.1364 N   0  0  0  0  0  0  0  0  0  0  0  0
  201.2772  177.8828  154.0822 C   0  0  1  0  0  0  0  0  0  0  0  0
  199.8021  178.2826  154.1231 C   0  0  1  0  0  0  0  0  0  0  0  0
  203.0287  176.5821  155.0701 C   0  0  2  0  0  0  0  0  0  0  0  0
  194.6387  185.9901  160.6724 C   0  0  0  0  0  0  0  0  0  0  0  0
  194.9015  187.3029  161.0992 C   0  0  0  0  0  0  0  0  0  0  0  0
  196.1456  187.9059  160.8184 C   0  0  0  0  0  0  0  0  0  0  0  0
  197.1358  187.1837  160.1298 C   0  0  0  0  0  0  0  0  0  0  0  0
  200.0853  185.0532  157.9940 C   0  0  1  0  0  0  0  0  0  0  0  0
  200.8647  184.0456  158.8298 C   0  0  0  0  0  0  0  0  0  0  0  0
  201.2176  182.7887  158.2916 C   0  0  0  0  0  0  0  0  0  0  0  0
  201.9561  181.8658  159.0601 C   0  0  0  0  0  0  0  0  0  0  0  0
  202.3479  182.1940  160.3729 C   0  0  0  0  0  0  0  0  0  0  0  0
  202.0070  183.4489  160.9132 C   0  0  0  0  0  0  0  0  0  0  0  0
  201.2665  184.3701  160.1446 C   0  0  0  0  0  0  0  0  0  0  0  0
  195.7188  180.7764  156.7492 H   0  0  0  0  0  0  0  0  0  0  0  0
  194.3924  183.4988  159.7560 H   0  0  0  0  0  0  0  0  0  0  0  0
  198.3938  183.1715  158.2285 H   0  0  0  0  0  0  0  0  0  0  0  0
  196.8577  181.1301  158.7234 H   0  0  0  0  0  0  0  0  0  0  0  0
  195.1456  181.4349  158.8320 H   0  0  0  0  0  0  0  0  0  0  0  0
  197.3113  183.1548  156.1396 H   0  0  0  0  0  0  0  0  0  0  0  0
  198.0621  181.6691  156.6667 H   0  0  0  0  0  0  0  0  0  0  0  0
  197.6153  178.7873  152.7913 H   0  0  0  0  0  0  0  0  0  0  0  0
  196.9862  180.4117  151.0276 H   0  0  0  0  0  0  0  0  0  0  0  0
  196.3943  182.7621  151.6290 H   0  0  0  0  0  0  0  0  0  0  0  0
  196.4662  183.4694  153.9900 H   0  0  0  0  0  0  0  0  0  0  0  0
  197.7457  179.5508  156.4751 H   0  0  0  0  0  0  0  0  0  0  0  0
  197.3831  178.2892  155.3645 H   0  0  0  0  0  0  0  0  0  0  0  0
  199.5533  178.3681  157.4552 H   0  0  0  0  0  0  0  0  0  0  0  0
  199.1536  177.0340  156.4053 H   0  0  0  0  0  0  0  0  0  0  0  0
  201.8794  178.4115  156.6155 H   0  0  0  0  0  0  0  0  0  0  0  0
  201.4803  176.8168  157.2316 H   0  0  0  0  0  0  0  0  0  0  0  0
  201.8964  178.7752  154.1726 H   0  0  0  0  0  0  0  0  0  0  0  0
  201.4977  177.4365  153.1136 H   0  0  0  0  0  0  0  0  0  0  0  0
  199.1927  177.4028  153.9252 H   0  0  0  0  0  0  0  0  0  0  0  0
  199.6372  178.9922  153.3115 H   0  0  0  0  0  0  0  0  0  0  0  0
  203.2756  176.1704  154.0908 H   0  0  0  0  0  0  0  0  0  0  0  0
  203.2729  175.8348  155.8261 H   0  0  0  0  0  0  0  0  0  0  0  0
  203.6544  177.4625  155.2294 H   0  0  0  0  0  0  0  0  0  0  0  0
  193.6741  185.5416  160.8671 H   0  0  0  0  0  0  0  0  0  0  0  0
  194.1369  187.8648  161.6171 H   0  0  0  0  0  0  0  0  0  0  0  0
  196.3397  188.9217  161.1317 H   0  0  0  0  0  0  0  0  0  0  0  0
  198.0892  187.6604  159.9292 H   0  0  0  0  0  0  0  0  0  0  0  0
  199.6535  184.5760  157.1097 H   0  0  0  0  0  0  0  0  0  0  0  0
  200.7998  185.7870  157.6144 H   0  0  0  0  0  0  0  0  0  0  0  0
  200.9270  182.5275  157.2852 H   0  0  0  0  0  0  0  0  0  0  0  0
  202.2199  180.9054  158.6423 H   0  0  0  0  0  0  0  0  0  0  0  0
  202.9082  181.4834  160.9651 H   0  0  0  0  0  0  0  0  0  0  0  0
  202.3104  183.7019  161.9193 H   0  0  0  0  0  0  0  0  0  0  0  0
  201.0088  185.3300  160.5679 H   0  0  0  0  0  0  0  0  0  0  0  0
  195.1681  182.3044  156.5800 H   0  0  0  0  0  0  0  0  0  0  0  0
  1  2  1  0
  1 29  1  0
  2  3  1  0
  2  7  2  0
  3  4  1  0
  3 28  2  0
  4  5  1  0
  4 25  2  0
  5  6  2  0
  5 37  1  0
  6  7  1  0
  6  8  1  0
  7 38  1  0
  8  9  1  0
  8 39  1  1
  8 40  1  0
  9 10  1  0
  9 36  1  1
  9 71  1  0
 10 11  1  0
 10 41  1  6
 10 42  1  0
 11 12  1  0
 11 16  2  0
 12 13  2  0
 12 17  1  0
 13 14  1  0
 13 43  1  0
 14 15  2  0
 14 44  1  0
 15 16  1  0
 15 45  1  0
 16 46  1  0
 17 18  1  0
 17 47  1  1
 17 48  1  0
 18 19  1  0
 18 23  1  0
 19 20  1  0
 19 49  1  1
 19 50  1  0
 20 21  1  0
 20 51  1  1
 20 52  1  0
 21 22  1  0
 21 24  1  0
 22 23  1  0
 22 53  1  1
 22 54  1  0
 23 55  1  6
 23 56  1  0
 24 57  1  6
 24 58  1  0
 24 59  1  0
 25 26  1  0
 25 60  1  0
 26 27  2  0
 26 61  1  0
 27 28  1  0
 27 62  1  0
 28 63  1  0
 29 30  1  0
 29 64  1  6
 29 65  1  0
 30 31  2  0
 30 35  1  0
 31 32  1  0
 31 66  1  0
 32 33  2  0
 32 67  1  0
 33 34  1  0
 33 68  1  0
 34 35  2  0
 34 69  1  0
 35 70  1  0
M  CHG  1   9   1
M  END
>  <s_epik_cmdline>  (977) 
J2VwaWtfcHl0aG9uJywgJy1waCcsICc3LjAwMDAwMCcsICctcGh0JywgJzIuMDAwMDAwJywgJy1tcycsICcxNicsICctdG4nLCAnOCcsICctbWEnLCAnMjAwJywgJy1pbWFlJywgJzxpbmZpbGUubWFlPicsICctb21hZScsICc8b3V0ZmlsZS5tYWU+Jw==

>  <s_epik_input>  (977) 
W2NIXTFbY0hdW2NIXVtjSF1bY0hdYzFbQ0gyXU9jMltjSF1jKFtjSF1jKGMyMylbY0hdW2NIXVtjSF1bY0hdMylbQ0gyXVtOSF1bQ0gyXWM0YyhbY0hdW2NIXVtjSF1bY0hdNClbQ0gyXU41W0NIMl1bQ0gyXU4oW0NIM10pW0NIMl1bQ0gyXTU=

>  <s_i_glide_gridfile>  (977) 
ATP-Grid

>  <s_lp_Force_Field>  (977) 
OPLS_2005

>  <s_lp_Variant>  (977) 
m_270004bbb____8349702____8127862-5

>  <s_lp_label>  (977) 
1459_sdstereoexpander_1_neutralizer_1_epik_5_stereoizer_1

>  <s_m_source_file>  (977) 
ATP-VSW-LIGPREP-002-in.maegz

>  <s_sd_BIOSOLVEIT.INFINISEE\_QUERY\_NAME>  (977) 
Ref-Lig

>  <s_sd_BIOSOLVEIT.INFINISEE\_QUERY\_SMILES>  (977) 
S(c1nc2c(cc1C[NH2+]Cc3ccc(cc3)C[NH+](C)C)cccc2)Cc4ccccc4

>  <s_sd_BIOSOLVEIT.INFINISEE\_REACTION\_NAME>  (977) 
m_270004bbb

>  <s_sd_BIOSOLVEIT.INFINISEE\_REAGENT1\_SMILES>  (977) 
[R1*]NCc1c(cccc1)CN2CCN(CC2)C

>  <s_sd_BIOSOLVEIT.INFINISEE\_REAGENT2\_SMILES>  (977) 
[R1*]Cc1cc(OCc2ccccc2)c3c(c1)cccc3

>  <s_sd_BIOSOLVEIT.INFINISEE\_SPACE>  (977) 
REALSpace_44bn_2023-08

>  <s_vsw_compound_code>  (977) 
46658

>  <s_vsw_variant>  (977) 
46658-5

>  <r_epik_Charging_Adjusted_Penalty>  (977) 
2.5131159707370099

>  <r_epik_Ionization_Penalty>  (977) 
3.9056000000000002

>  <r_epik_Ionization_Penalty_Charging>  (977) 
0.062100000000000002

>  <r_epik_Ionization_Penalty_Neutral>  (977) 
3.8435000000000001

>  <r_epik_State_Penalty>  (977) 
2.4510000000000001

>  <r_i_docking_score>  (977) 
-3.71626239896153

>  <r_i_glide_ecoul>  (977) 
-11.562497138977101

>  <r_i_glide_eff_state_penalty>  (977) 
2.4510000000000001

>  <r_i_glide_einternal>  (977) 
2.7558848857879599

>  <r_i_glide_emodel>  (977) 
-77.332862715895601

>  <r_i_glide_energy>  (977) 
-50.8292589187622

>  <r_i_glide_erotb>  (977) 
0.83392006795831997

>  <r_i_glide_esite>  (977) 
-0.10000000000000001

>  <r_i_glide_evdw>  (977) 
-39.266761779785199

>  <r_i_glide_gscore>  (977) 
-6.1672623989615296

>  <r_i_glide_hbond>  (977) 
-0.34753103974849198

>  <r_i_glide_ligand_efficiency>  (977) 
-0.106178925684615

>  <r_i_glide_ligand_efficiency_ln>  (977) 
-0.81580207457220399

>  <r_i_glide_ligand_efficiency_sa>  (977) 
-0.34731830624734999

>  <r_i_glide_lipo>  (977) 
-2.4034640400628202

>  <r_i_glide_metal>  (977) 
-0

>  <r_i_glide_rewards>  (977) 
-0.45247472727272497

>  <r_lp_Energy>  (977) 
42.881647000000001

>  <r_qp_ACxDN^.5/SA>  (977) 
0.0082827000000000005

>  <r_qp_CIQPlogS>  (977) 
-4.4610000000000003

>  <r_qp_EA(eV)>  (977) 
0.60499999999999998

>  <r_qp_FISA>  (977) 
21.593

>  <r_qp_FOSA>  (977) 
246.16999999999999

>  <r_qp_IP(eV)>  (977) 
8.2739999999999991

>  <r_qp_Jm>  (977) 
0.45463817070112

>  <r_qp_PISA>  (977) 
486.82299999999998

>  <r_qp_PSA>  (977) 
27.334

>  <r_qp_PercentHumanOralAbsorption>  (977) 
91.165999999999997

>  <r_qp_QPPCaco>  (977) 
95.903000000000006

>  <r_qp_QPPMDCK>  (977) 
53.146000000000001

>  <r_qp_QPlogBB>  (977) 
0.61299999999999999

>  <r_qp_QPlogHERG>  (977) 
-8.6560000000000006

>  <r_qp_QPlogKhsa>  (977) 
1.0780000000000001

>  <r_qp_QPlogKp>  (977) 
-3.464

>  <r_qp_QPlogPC16>  (977) 
15.788

>  <r_qp_QPlogPo/w>  (977) 
4.9100000000000001

>  <r_qp_QPlogPoct>  (977) 
22.312999999999999

>  <r_qp_QPlogPw>  (977) 
10.629

>  <r_qp_QPlogS>  (977) 
-2.5470000000000002

>  <r_qp_QPpolrz>  (977) 
52.534999999999997

>  <r_qp_SASA>  (977) 
754.58600000000001

>  <r_qp_SAamideO>  (977) 
0

>  <r_qp_SAfluorine>  (977) 
0

>  <r_qp_WPSA>  (977) 
0

>  <r_qp_accptHB>  (977) 
6.25

>  <r_qp_dip^2/V>  (977) 
0.0021080999999999999

>  <r_qp_dipole>  (977) 
1.7749999999999999

>  <r_qp_donorHB>  (977) 
1

>  <r_qp_glob>  (977) 
0.83784789999999998

>  <r_qp_mol_MW>  (977) 
465.637

>  <r_qp_volume>  (977) 
1494.731

>  <r_sd_BIOSOLVEIT.INFINISEE\_FTREES\_SIMILARITY>  (977) 
0.90800000000000003

>  <r_sd_BIOSOLVEIT.LOGP>  (977) 
1.5955999999999999

>  <r_sd_BIOSOLVEIT.MOLECULAR\_WEIGHT>  (977) 
468.661

>  <r_sd_BIOSOLVEIT.TPSA>  (977) 
34.719999999999999

>  <i_epik_Tot_Q>  (977) 
1

>  <i_epik_Tot_abs_Q>  (977) 
1

>  <i_f3d_flags>  (977) 
0

>  <i_i_glide_confnum>  (977) 
13

>  <i_i_glide_lignum>  (977) 
501

>  <i_i_glide_posenum>  (977) 
17

>  <i_i_glide_rotatable_bonds>  (977) 
9

>  <i_lp_mmshare_version>  (977) 
65135

>  <i_m_ct_format>  (977) 
2

>  <i_m_source_file_index>  (977) 
1459

>  <i_qp_#NandO>  (977) 
4

>  <i_qp_#acid>  (977) 
0

>  <i_qp_#amide>  (977) 
0

>  <i_qp_#amidine>  (977) 
0

>  <i_qp_#amine>  (977) 
3

>  <i_qp_#in34>  (977) 
0

>  <i_qp_#in56>  (977) 
28

>  <i_qp_#metab>  (977) 
8

>  <i_qp_#nonHatm>  (977) 
35

>  <i_qp_#noncon>  (977) 
4

>  <i_qp_#ringatoms>  (977) 
28

>  <i_qp_#rotor>  (977) 
9

>  <i_qp_#rtvFG>  (977) 
0

>  <i_qp_#stars>  (977) 
1

>  <i_qp_CNS>  (977) 
2

>  <i_qp_HumanOralAbsorption>  (977) 
3

>  <i_qp_RuleOfFive>  (977) 
0

>  <i_qp_RuleOfThree>  (977) 
1

>  <i_sd_BIOSOLVEIT.INFINISEE\_REAGENT1\_NAME>  (977) 
8349702

>  <i_sd_BIOSOLVEIT.INFINISEE\_REAGENT2\_NAME>  (977) 
8127862

>  <i_sd_BIOSOLVEIT.INFINISEE\_RESULT\_RANK>  (977) 
56660

>  <i_sd_version>  (977) 
0

>  <b_lp_Chiralities_Consistent>  (977) 
1

>  <b_sd_chiral_flag>  (977) 
0

>  <canonical_id>  (977) 
ATP-HTVS-9B930A3F277B

>  <compound_code>  (977) 
46658

>  <title>  (977) 
m_270004bbb____8349702____8127862

>  <variant>  (977) 
46658-5

>  <source_file>  (977) 
运行/运行/ATP-VSW/ATP-VSW-DOCK_HTVS_1-002_lib.maegz

>  <canonical_smiles>  (977) 
CN1CCN(Cc2ccccc2C[NH2+]Cc2cc(OCc3ccccc3)c3ccccc3c2)CC1

>  <scaffold>  (977) 
c1ccc(COc2cc(C[NH2+]Cc3ccccc3CN3CCNCC3)cc3ccccc23)cc1

>  <molecular_formula>  (977) 
C31H36N3O+

$$$$
ATP-HTVS-9BFBB44B9744
     RDKit          3D

 49 52  0  0  0  0  0  0  0  0999 V2000
  196.3125  187.8053  160.5673 O   0  0  0  0  0  0  0  0  0  0  0  0
  196.4633  186.8193  159.8471 C   0  0  0  0  0  0  0  0  0  0  0  0
  195.5097  185.8705  159.8737 N   0  0  0  0  0  0  0  0  0  0  0  0
  195.5385  184.6627  159.1559 C   0  0  0  0  0  0  0  0  0  0  0  0
  196.6508  184.3909  158.3333 C   0  0  0  0  0  0  0  0  0  0  0  0
  196.6638  183.1640  157.6206 C   0  0  0  0  0  0  0  0  0  0  0  0
  195.6011  182.2472  157.7521 C   0  0  0  0  0  0  0  0  0  0  0  0
  194.5031  182.5412  158.5799 C   0  0  0  0  0  0  0  0  0  0  0  0
  194.4670  183.7599  159.2806 C   0  0  0  0  0  0  0  0  0  0  0  0
  197.7234  185.4259  158.2550 C   0  0  0  0  0  0  0  0  0  0  0  0
  197.6311  186.5981  158.9633 C   0  0  0  0  0  0  0  0  0  0  0  0
  198.7167  187.6154  158.9542 C   0  0  0  0  0  0  0  0  0  0  0  0
  200.0528  187.2227  159.3382 C   0  0  0  0  0  0  0  0  0  0  0  0
  201.0699  188.2058  159.3029 C   0  0  0  0  0  0  0  0  0  0  0  0
  200.8034  189.5351  158.9301 C   0  0  0  0  0  0  0  0  0  0  0  0
  199.4798  189.9133  158.5837 C   0  0  0  0  0  0  0  0  0  0  0  0
  198.4289  188.9632  158.5860 C   0  0  0  0  0  0  0  0  0  0  0  0
  201.9480  190.5113  158.9396 C   0  0  2  0  0  0  0  0  0  0  0  0
  198.8929  185.1059  157.3184 C   0  0  1  0  0  0  0  0  0  0  0  0
  199.8576  184.0274  157.8162 C   0  0  0  0  0  0  0  0  0  0  0  0
  200.2091  183.9148  159.1905 C   0  0  0  0  0  0  0  0  0  0  0  0
  201.2580  183.0582  159.5805 C   0  0  0  0  0  0  0  0  0  0  0  0
  201.6888  183.1356  160.9009 N   0  0  0  0  0  0  0  0  0  0  0  0
  202.6771  182.2328  161.4500 C   0  0  2  0  0  0  0  0  0  0  0  0
  201.8386  182.1623  158.6405 C   0  0  0  0  0  0  0  0  0  0  0  0
  201.3850  182.1851  157.3025 C   0  0  0  0  0  0  0  0  0  0  0  0
  200.4349  183.1388  156.8735 C   0  0  0  0  0  0  0  0  0  0  0  0
  194.7034  186.0472  160.4581 H   0  0  0  0  0  0  0  0  0  0  0  0
  197.4758  182.9033  156.9592 H   0  0  0  0  0  0  0  0  0  0  0  0
  195.6136  181.3185  157.2003 H   0  0  0  0  0  0  0  0  0  0  0  0
  193.6908  181.8361  158.6682 H   0  0  0  0  0  0  0  0  0  0  0  0
  193.6252  183.9911  159.9180 H   0  0  0  0  0  0  0  0  0  0  0  0
  200.3442  186.2728  159.6861 H   0  0  0  0  0  0  0  0  0  0  0  0
  202.0539  187.8789  159.5692 H   0  0  0  0  0  0  0  0  0  0  0  0
  199.2604  190.9561  158.3158 H   0  0  0  0  0  0  0  0  0  0  0  0
  197.4123  189.2567  158.3178 H   0  0  0  0  0  0  0  0  0  0  0  0
  201.6300  191.4574  158.4774 H   0  0  0  0  0  0  0  0  0  0  0  0
  202.7907  190.0864  158.3797 H   0  0  0  0  0  0  0  0  0  0  0  0
  202.2621  190.6803  159.9782 H   0  0  0  0  0  0  0  0  0  0  0  0
  198.4894  184.8489  156.3369 H   0  0  0  0  0  0  0  0  0  0  0  0
  199.4745  186.0018  157.0938 H   0  0  0  0  0  0  0  0  0  0  0  0
  199.7232  184.5258  159.9441 H   0  0  0  0  0  0  0  0  0  0  0  0
  201.2516  183.7862  161.5498 H   0  0  0  0  0  0  0  0  0  0  0  0
  202.8074  182.4163  162.5187 H   0  0  0  0  0  0  0  0  0  0  0  0
  203.6347  182.3810  160.9525 H   0  0  0  0  0  0  0  0  0  0  0  0
  202.3536  181.2011  161.3147 H   0  0  0  0  0  0  0  0  0  0  0  0
  202.5704  181.4240  158.9488 H   0  0  0  0  0  0  0  0  0  0  0  0
  201.7638  181.4478  156.5965 H   0  0  0  0  0  0  0  0  0  0  0  0
  200.1097  183.1565  155.8420 H   0  0  0  0  0  0  0  0  0  0  0  0
  1  2  2  0
  2  3  1  0
  2 11  1  0
  3  4  1  0
  3 28  1  0
  4  5  1  0
  4  9  2  0
  5  6  2  0
  5 10  1  0
  6  7  1  0
  6 29  1  0
  7  8  2  0
  7 30  1  0
  8  9  1  0
  8 31  1  0
  9 32  1  0
 10 11  2  0
 10 19  1  0
 11 12  1  0
 12 13  1  0
 12 17  2  0
 13 14  2  0
 13 33  1  0
 14 15  1  0
 14 34  1  0
 15 16  2  0
 15 18  1  0
 16 17  1  0
 16 35  1  0
 17 36  1  0
 18 37  1  6
 18 38  1  0
 18 39  1  0
 19 20  1  0
 19 40  1  6
 19 41  1  0
 20 21  1  0
 20 27  2  0
 21 22  2  0
 21 42  1  0
 22 23  1  0
 22 25  1  0
 23 24  1  0
 23 43  1  0
 24 44  1  1
 24 45  1  0
 24 46  1  0
 25 26  2  0
 25 47  1  0
 26 27  1  0
 26 48  1  0
 27 49  1  0
M  END
>  <s_epik_cmdline>  (978) 
J2VwaWtfcHl0aG9uJywgJy1waCcsICc3LjAwMDAwMCcsICctcGh0JywgJzIuMDAwMDAwJywgJy1tcycsICcxNicsICctdG4nLCAnOCcsICctbWEnLCAnMjAwJywgJy1pbWFlJywgJzxpbmZpbGUubWFlPicsICctb21hZScsICc8b3V0ZmlsZS5tYWU+Jw==

>  <s_epik_input>  (978) 
W2NIXTFbY0hdYyhbQ0gzXSlbY0hdW2NIXWMxLWMoYyg9TylbbkhdMiljKGMoYzIzKVtjSF1bY0hdW2NIXVtjSF0zKVtDSDJdYzRbY0hdYyhbTkhdW0NIM10pW2NIXVtjSF1bY0hdNA==

>  <s_i_glide_gridfile>  (978) 
ATP-Grid

>  <s_lp_Force_Field>  (978) 
OPLS_2005

>  <s_lp_Variant>  (978) 
rxn112____EMOL42620905____EMOL45491381-1

>  <s_lp_label>  (978) 
2881_sdstereoexpander_1_neutralizer_1_epik_1_stereoizer_1

>  <s_m_source_file>  (978) 
ATP-VSW-LIGPREP-001-in.maegz

>  <s_sd_BIOSOLVEIT.INFINISEE\_QUERY\_NAME>  (978) 
Ref-Lig

>  <s_sd_BIOSOLVEIT.INFINISEE\_QUERY\_SMILES>  (978) 
S(c1nc2c(cc1C[NH2+]Cc3ccc(cc3)C[NH+](C)C)cccc2)Cc4ccccc4

>  <s_sd_BIOSOLVEIT.INFINISEE\_REACTION\_NAME>  (978) 
rxn112

>  <s_sd_BIOSOLVEIT.INFINISEE\_REAGENT1\_NAME>  (978) 
EMOL42620905

>  <s_sd_BIOSOLVEIT.INFINISEE\_REAGENT1\_SMILES>  (978) 
O=C(O)C=1c2c(NC(=O)C1c3ccc(cc3)C)cccc2

>  <s_sd_BIOSOLVEIT.INFINISEE\_REAGENT2\_NAME>  (978) 
EMOL45491381

>  <s_sd_BIOSOLVEIT.INFINISEE\_REAGENT2\_SMILES>  (978) 
N(c1cc(ccc1)CN)C

>  <s_sd_BIOSOLVEIT.INFINISEE\_SPACE>  (978) 
eXplore_7tr_2022-12

>  <s_vsw_compound_code>  (978) 
92161

>  <s_vsw_variant>  (978) 
92161-1

>  <r_epik_Charging_Adjusted_Penalty>  (978) 
0.0020199448972288898

>  <r_epik_Ionization_Penalty>  (978) 
0.002

>  <r_epik_Ionization_Penalty_Charging>  (978) 
0

>  <r_epik_Ionization_Penalty_Neutral>  (978) 
0.002

>  <r_epik_State_Penalty>  (978) 
0.002

>  <r_i_docking_score>  (978) 
-1.9075323465839999

>  <r_i_glide_ecoul>  (978) 
-0.69103157520294201

>  <r_i_glide_eff_state_penalty>  (978) 
0.002

>  <r_i_glide_einternal>  (978) 
0.85801213979721103

>  <r_i_glide_emodel>  (978) 
-34.281408425493197

>  <r_i_glide_energy>  (978) 
-31.159459233284

>  <r_i_glide_erotb>  (978) 
0.45630867521910501

>  <r_i_glide_esite>  (978) 
0

>  <r_i_glide_evdw>  (978) 
-30.468427658081101

>  <r_i_glide_gscore>  (978) 
-1.909532346584

>  <r_i_glide_hbond>  (978) 
-0.16599898641604599

>  <r_i_glide_ligand_efficiency>  (978) 
-0.070649346169777597

>  <r_i_glide_ligand_efficiency_ln>  (978) 
-0.44404208215621599

>  <r_i_glide_ligand_efficiency_sa>  (978) 
-0.21194803827648401

>  <r_i_glide_lipo>  (978) 
-1.2895336643499

>  <r_i_glide_metal>  (978) 
-0

>  <r_i_glide_rewards>  (978) 
0.71676774814733701

>  <r_lp_Energy>  (978) 
36.493664000000003

>  <r_qp_ACxDN^.5/SA>  (978) 
0.0075973000000000004

>  <r_qp_CIQPlogS>  (978) 
-6.226

>  <r_qp_EA(eV)>  (978) 
0.754

>  <r_qp_FISA>  (978) 
91.122

>  <r_qp_FOSA>  (978) 
200.815

>  <r_qp_IP(eV)>  (978) 
8.0749999999999993

>  <r_qp_Jm>  (978) 
0.0092371499031273993

>  <r_qp_PISA>  (978) 
359.57999999999998

>  <r_qp_PSA>  (978) 
54.380000000000003

>  <r_qp_PercentHumanOralAbsorption>  (978) 
100

>  <r_qp_QPPCaco>  (978) 
1354.529

>  <r_qp_QPPMDCK>  (978) 
686.74800000000005

>  <r_qp_QPlogBB>  (978) 
-0.56799999999999995

>  <r_qp_QPlogHERG>  (978) 
-6.0640000000000001

>  <r_qp_QPlogKhsa>  (978) 
0.879

>  <r_qp_QPlogKp>  (978) 
-1.548

>  <r_qp_QPlogPC16>  (978) 
12.749000000000001

>  <r_qp_QPlogPo/w>  (978) 
4.7750000000000004

>  <r_qp_QPlogPoct>  (978) 
18.969999999999999

>  <r_qp_QPlogPw>  (978) 
9.8469999999999995

>  <r_qp_QPlogS>  (978) 
-6.0359999999999996

>  <r_qp_QPpolrz>  (978) 
41.677

>  <r_qp_SASA>  (978) 
651.51700000000005

>  <r_qp_SAamideO>  (978) 
0

>  <r_qp_SAfluorine>  (978) 
0

>  <r_qp_WPSA>  (978) 
0

>  <r_qp_accptHB>  (978) 
3.5

>  <r_qp_dip^2/V>  (978) 
0.028708299999999999

>  <r_qp_dipole>  (978) 
5.8040000000000003

>  <r_qp_donorHB>  (978) 
2

>  <r_qp_glob>  (978) 
0.82586610000000005

>  <r_qp_mol_MW>  (978) 
354.45100000000002

>  <r_qp_volume>  (978) 
1173.5599999999999

>  <r_sd_BIOSOLVEIT.INFINISEE\_FTREES\_SIMILARITY>  (978) 
0.90500000000000003

>  <r_sd_BIOSOLVEIT.LOGP>  (978) 
5.1360200000000003

>  <r_sd_BIOSOLVEIT.MOLECULAR\_WEIGHT>  (978) 
354.45100000000002

>  <r_sd_BIOSOLVEIT.TPSA>  (978) 
44.890000000000001

>  <i_epik_Tot_Q>  (978) 
0

>  <i_epik_Tot_abs_Q>  (978) 
0

>  <i_f3d_flags>  (978) 
0

>  <i_i_glide_confnum>  (978) 
4

>  <i_i_glide_lignum>  (978) 
1328

>  <i_i_glide_posenum>  (978) 
8

>  <i_i_glide_rotatable_bonds>  (978) 
4

>  <i_lp_mmshare_version>  (978) 
65135

>  <i_m_ct_format>  (978) 
2

>  <i_m_source_file_index>  (978) 
2881

>  <i_qp_#NandO>  (978) 
3

>  <i_qp_#acid>  (978) 
0

>  <i_qp_#amide>  (978) 
0

>  <i_qp_#amidine>  (978) 
0

>  <i_qp_#amine>  (978) 
0

>  <i_qp_#in34>  (978) 
0

>  <i_qp_#in56>  (978) 
22

>  <i_qp_#metab>  (978) 
4

>  <i_qp_#nonHatm>  (978) 
27

>  <i_qp_#noncon>  (978) 
0

>  <i_qp_#ringatoms>  (978) 
22

>  <i_qp_#rotor>  (978) 
4

>  <i_qp_#rtvFG>  (978) 
0

>  <i_qp_#stars>  (978) 
0

>  <i_qp_CNS>  (978) 
0

>  <i_qp_HumanOralAbsorption>  (978) 
3

>  <i_qp_RuleOfFive>  (978) 
0

>  <i_qp_RuleOfThree>  (978) 
1

>  <i_sd_BIOSOLVEIT.INFINISEE\_RESULT\_RANK>  (978) 
72606

>  <i_sd_version>  (978) 
0

>  <b_lp_Chiralities_Consistent>  (978) 
1

>  <b_sd_chiral_flag>  (978) 
0

>  <canonical_id>  (978) 
ATP-HTVS-9BFBB44B9744

>  <compound_code>  (978) 
92161

>  <title>  (978) 
rxn112____EMOL42620905____EMOL45491381

>  <variant>  (978) 
92161-1

>  <source_file>  (978) 
运行/运行/ATP-VSW/ATP-VSW-DOCK_HTVS_1-001_lib/ATP-VSW-DOCK_HTVS_1-001_lib

>  <canonical_smiles>  (978) 
CNc1cccc(Cc2c(-c3ccc(C)cc3)c(=O)[nH]c3ccccc23)c1

>  <scaffold>  (978) 
O=c1[nH]c2ccccc2c(Cc2ccccc2)c1-c1ccccc1

>  <molecular_formula>  (978) 
C24H22N2O

$$$$
ATP-HTVS-9C0CB662701B
     RDKit          3D

 59 61  0  0  0  0  0  0  0  0999 V2000
  197.6838  183.1090  150.8776 O   0  0  0  0  0  0  0  0  0  0  0  0
  197.4701  182.6712  152.1662 C   0  0  0  0  0  0  0  0  0  0  0  0
  197.7159  183.4319  153.3356 C   0  0  0  0  0  0  0  0  0  0  0  0
  197.5107  182.9662  154.5892 N   0  0  0  0  0  0  0  0  0  0  0  0
  197.0333  181.7084  154.7285 C   0  0  0  0  0  0  0  0  0  0  0  0
  196.7483  180.8719  153.6365 C   0  0  0  0  0  0  0  0  0  0  0  0
  196.9754  181.3627  152.3372 C   0  0  0  0  0  0  0  0  0  0  0  0
  196.8008  181.2399  156.1519 C   0  0  1  0  0  0  0  0  0  0  0  0
  195.9867  182.2165  156.8842 N   0  0  1  0  0  0  0  0  0  0  0  0
  195.7417  181.8727  158.3024 C   0  0  1  0  0  0  0  0  0  0  0  0
  195.2452  183.0916  159.0957 C   0  0  1  0  0  0  0  0  0  0  0  0
  196.2336  184.2457  159.0215 C   0  0  0  0  0  0  0  0  0  0  0  0
  195.8068  185.4999  158.5314 C   0  0  0  0  0  0  0  0  0  0  0  0
  196.6952  186.5640  158.4128 C   0  0  0  0  0  0  0  0  0  0  0  0
  198.0288  186.4333  158.8416 C   0  0  0  0  0  0  0  0  0  0  0  0
  198.4702  185.1723  159.3350 C   0  0  0  0  0  0  0  0  0  0  0  0
  197.5790  184.0887  159.4169 C   0  0  0  0  0  0  0  0  0  0  0  0
  198.9595  187.6392  158.8019 C   0  0  1  0  0  0  0  0  0  0  0  0
  198.5883  188.7411  159.7404 N   0  0  2  0  0  0  0  0  0  0  0  0
  197.2089  189.2707  159.5734 C   0  0  2  0  0  0  0  0  0  0  0  0
  199.5854  189.8388  159.7362 C   0  0  2  0  0  0  0  0  0  0  0  0
  198.1450  184.4398  150.6867 C   0  0  1  0  0  0  0  0  0  0  0  0
  198.3419  184.7509  149.2153 C   0  0  0  0  0  0  0  0  0  0  0  0
  197.3686  184.3553  148.2747 C   0  0  0  0  0  0  0  0  0  0  0  0
  197.5446  184.6452  146.9082 C   0  0  0  0  0  0  0  0  0  0  0  0
  198.6897  185.3401  146.4758 C   0  0  0  0  0  0  0  0  0  0  0  0
  199.6617  185.7423  147.4118 C   0  0  0  0  0  0  0  0  0  0  0  0
  199.4875  185.4505  148.7794 C   0  0  0  0  0  0  0  0  0  0  0  0
  196.4400  183.1152  156.8050 H   0  0  0  0  0  0  0  0  0  0  0  0
  198.1020  184.4399  153.2864 H   0  0  0  0  0  0  0  0  0  0  0  0
  196.3652  179.8727  153.7836 H   0  0  0  0  0  0  0  0  0  0  0  0
  196.7726  180.7398  151.4766 H   0  0  0  0  0  0  0  0  0  0  0  0
  196.3096  180.2685  156.1658 H   0  0  0  0  0  0  0  0  0  0  0  0
  197.7659  181.1204  156.6435 H   0  0  0  0  0  0  0  0  0  0  0  0
  195.0064  181.0690  158.3783 H   0  0  0  0  0  0  0  0  0  0  0  0
  196.6651  181.4941  158.7491 H   0  0  0  0  0  0  0  0  0  0  0  0
  194.2740  183.4072  158.7031 H   0  0  0  0  0  0  0  0  0  0  0  0
  195.0891  182.8401  160.1293 H   0  0  0  0  0  0  0  0  0  0  0  0
  194.7595  185.6346  158.2594 H   0  0  0  0  0  0  0  0  0  0  0  0
  196.3443  187.5249  158.0547 H   0  0  0  0  0  0  0  0  0  0  0  0
  199.4974  185.0359  159.6505 H   0  0  0  0  0  0  0  0  0  0  0  0
  197.9366  183.1257  159.7786 H   0  0  0  0  0  0  0  0  0  0  0  0
  199.9665  187.3001  159.0426 H   0  0  0  0  0  0  0  0  0  0  0  0
  199.0075  188.0091  157.7735 H   0  0  0  0  0  0  0  0  0  0  0  0
  197.0818  189.6440  158.5560 H   0  0  0  0  0  0  0  0  0  0  0  0
  197.0283  190.1249  160.2455 H   0  0  0  0  0  0  0  0  0  0  0  0
  196.4551  188.4821  159.6852 H   0  0  0  0  0  0  0  0  0  0  0  0
  199.6647  190.2871  158.7480 H   0  0  0  0  0  0  0  0  0  0  0  0
  200.5719  189.4898  160.0439 H   0  0  0  0  0  0  0  0  0  0  0  0
  199.2854  190.6189  160.4335 H   0  0  0  0  0  0  0  0  0  0  0  0
  197.4148  185.1434  151.0884 H   0  0  0  0  0  0  0  0  0  0  0  0
  199.0890  184.5938  151.2118 H   0  0  0  0  0  0  0  0  0  0  0  0
  196.4841  183.8277  148.5997 H   0  0  0  0  0  0  0  0  0  0  0  0
  196.7929  184.3392  146.1953 H   0  0  0  0  0  0  0  0  0  0  0  0
  198.8217  185.5662  145.4276 H   0  0  0  0  0  0  0  0  0  0  0  0
  200.5408  186.2749  147.0801 H   0  0  0  0  0  0  0  0  0  0  0  0
  200.2381  185.7631  149.4904 H   0  0  0  0  0  0  0  0  0  0  0  0
  195.0776  182.2969  156.4176 H   0  0  0  0  0  0  0  0  0  0  0  0
  198.6359  188.3756  160.6840 H   0  0  0  0  0  0  0  0  0  0  0  0
  1  2  1  0
  1 22  1  0
  2  3  1  0
  2  7  2  0
  3  4  2  0
  3 30  1  0
  4  5  1  0
  5  6  2  0
  5  8  1  0
  6  7  1  0
  6 31  1  0
  7 32  1  0
  8  9  1  0
  8 33  1  6
  8 34  1  0
  9 10  1  0
  9 29  1  1
  9 58  1  0
 10 11  1  0
 10 35  1  6
 10 36  1  0
 11 12  1  0
 11 37  1  6
 11 38  1  0
 12 13  1  0
 12 17  2  0
 13 14  2  0
 13 39  1  0
 14 15  1  0
 14 40  1  0
 15 16  2  0
 15 18  1  0
 16 17  1  0
 16 41  1  0
 17 42  1  0
 18 19  1  0
 18 43  1  1
 18 44  1  0
 19 20  1  0
 19 21  1  0
 19 59  1  1
 20 45  1  6
 20 46  1  0
 20 47  1  0
 21 48  1  6
 21 49  1  0
 21 50  1  0
 22 23  1  0
 22 51  1  1
 22 52  1  0
 23 24  2  0
 23 28  1  0
 24 25  1  0
 24 53  1  0
 25 26  2  0
 25 54  1  0
 26 27  1  0
 26 55  1  0
 27 28  2  0
 27 56  1  0
 28 57  1  0
M  CHG  2   9   1  19   1
M  END
>  <s_epik_cmdline>  (979) 
J2VwaWtfcHl0aG9uJywgJy1waCcsICc3LjAwMDAwMCcsICctcGh0JywgJzIuMDAwMDAwJywgJy1tcycsICcxNicsICctdG4nLCAnOCcsICctbWEnLCAnMjAwJywgJy1pbWFlJywgJzxpbmZpbGUubWFlPicsICctb21hZScsICc8b3V0ZmlsZS5tYWU+Jw==

>  <s_epik_input>  (979) 
W2NIXTFbY0hdW2NIXVtjSF1bY0hdYzFbQ0gyXU9jMltjSF1uYyhbY0hdW2NIXTIpW0NIMl1bTkhdW0NIMl1bQ0gyXWMzW2NIXVtjSF1jKFtjSF1bY0hdMylbQ0gyXU4oW0NIM10pW0NIM10=

>  <s_i_glide_gridfile>  (979) 
ATP-Grid

>  <s_lp_Force_Field>  (979) 
OPLS_2005

>  <s_lp_Variant>  (979) 
m_270004bbb____15775648____24721296-1

>  <s_lp_label>  (979) 
715_sdstereoexpander_1_neutralizer_1_epik_1_stereoizer_1

>  <s_m_source_file>  (979) 
ATP-VSW-LIGPREP-001-in.maegz

>  <s_sd_BIOSOLVEIT.INFINISEE\_QUERY\_NAME>  (979) 
Ref-Lig

>  <s_sd_BIOSOLVEIT.INFINISEE\_QUERY\_SMILES>  (979) 
S(c1nc2c(cc1C[NH2+]Cc3ccc(cc3)C[NH+](C)C)cccc2)Cc4ccccc4

>  <s_sd_BIOSOLVEIT.INFINISEE\_REACTION\_NAME>  (979) 
m_270004bbb

>  <s_sd_BIOSOLVEIT.INFINISEE\_REAGENT1\_SMILES>  (979) 
[R1*]NCCc1ccc(cc1)CN(C)C

>  <s_sd_BIOSOLVEIT.INFINISEE\_REAGENT2\_SMILES>  (979) 
[R1*]Cc1ncc(OCc2ccccc2)cc1

>  <s_sd_BIOSOLVEIT.INFINISEE\_SPACE>  (979) 
REALSpace_44bn_2023-08

>  <s_vsw_compound_code>  (979) 
22849

>  <s_vsw_variant>  (979) 
22849-1

>  <r_epik_Charging_Adjusted_Penalty>  (979) 
0.16944537359002301

>  <r_epik_Ionization_Penalty>  (979) 
0.086199999999999999

>  <r_epik_Ionization_Penalty_Charging>  (979) 
0.086199999999999999

>  <r_epik_Ionization_Penalty_Neutral>  (979) 
0.0001

>  <r_epik_State_Penalty>  (979) 
0.083299999999999999

>  <r_i_docking_score>  (979) 
-5.2752628843144196

>  <r_i_glide_ecoul>  (979) 
-13.0692081451416

>  <r_i_glide_eff_state_penalty>  (979) 
0.083299999999999999

>  <r_i_glide_einternal>  (979) 
6.0958414077758798

>  <r_i_glide_emodel>  (979) 
-64.988944674512894

>  <r_i_glide_energy>  (979) 
-43.490785598754897

>  <r_i_glide_erotb>  (979) 
1.22312836419635

>  <r_i_glide_esite>  (979) 
-0.14411830245509399

>  <r_i_glide_evdw>  (979) 
-30.421577453613299

>  <r_i_glide_gscore>  (979) 
-5.35856288431442

>  <r_i_glide_hbond>  (979) 
-0.222722567991403

>  <r_i_glide_ligand_efficiency>  (979) 
-0.18840224586837201

>  <r_i_glide_ligand_efficiency_ln>  (979) 
-1.21768556214837

>  <r_i_glide_ligand_efficiency_sa>  (979) 
-0.57210018144505403

>  <r_i_glide_lipo>  (979) 
-1.67331601088509

>  <r_i_glide_metal>  (979) 
-0

>  <r_i_glide_rewards>  (979) 
-1.0600742727272701

>  <r_lp_Energy>  (979) 
22.729268999999999

>  <r_lp_tautomer_probability>  (979) 
1

>  <r_qp_ACxDN^.5/SA>  (979) 
0.0065826000000000001

>  <r_qp_CIQPlogS>  (979) 
-3.7320000000000002

>  <r_qp_EA(eV)>  (979) 
0.11

>  <r_qp_FISA>  (979) 
34.499000000000002

>  <r_qp_FOSA>  (979) 
315.24700000000001

>  <r_qp_IP(eV)>  (979) 
9.0229999999999997

>  <r_qp_Jm>  (979) 
0.00114890669356014

>  <r_qp_PISA>  (979) 
447.81299999999999

>  <r_qp_PSA>  (979) 
38.909999999999997

>  <r_qp_PercentHumanOralAbsorption>  (979) 
100

>  <r_qp_QPPCaco>  (979) 
290.09899999999999

>  <r_qp_QPPMDCK>  (979) 
158.923

>  <r_qp_QPlogBB>  (979) 
0.34999999999999998

>  <r_qp_QPlogHERG>  (979) 
-9.1430000000000007

>  <r_qp_QPlogKhsa>  (979) 
0.89400000000000002

>  <r_qp_QPlogKp>  (979) 
-3.7429999999999999

>  <r_qp_QPlogPC16>  (979) 
14.960000000000001

>  <r_qp_QPlogPo/w>  (979) 
4.9610000000000003

>  <r_qp_QPlogPoct>  (979) 
19.302

>  <r_qp_QPlogPw>  (979) 
9.3490000000000002

>  <r_qp_QPlogS>  (979) 
-4.7709999999999999

>  <r_qp_QPpolrz>  (979) 
46.905000000000001

>  <r_qp_SASA>  (979) 
797.55899999999997

>  <r_qp_SAamideO>  (979) 
0

>  <r_qp_SAfluorine>  (979) 
0

>  <r_qp_WPSA>  (979) 
0

>  <r_qp_accptHB>  (979) 
5.25

>  <r_qp_dip^2/V>  (979) 
0.0017891000000000001

>  <r_qp_dipole>  (979) 
1.571

>  <r_qp_donorHB>  (979) 
1

>  <r_qp_glob>  (979) 
0.75137889999999996

>  <r_qp_mol_MW>  (979) 
375.51299999999998

>  <r_qp_volume>  (979) 
1379.384

>  <r_sd_BIOSOLVEIT.INFINISEE\_FTREES\_SIMILARITY>  (979) 
0.92900000000000005

>  <r_sd_BIOSOLVEIT.LOGP>  (979) 
1.6112

>  <r_sd_BIOSOLVEIT.MOLECULAR\_WEIGHT>  (979) 
377.529

>  <r_sd_BIOSOLVEIT.TPSA>  (979) 
43.170000000000002

>  <i_epik_Tot_Q>  (979) 
2

>  <i_epik_Tot_abs_Q>  (979) 
2

>  <i_f3d_flags>  (979) 
0

>  <i_i_glide_confnum>  (979) 
6

>  <i_i_glide_lignum>  (979) 
99

>  <i_i_glide_posenum>  (979) 
18

>  <i_i_glide_rotatable_bonds>  (979) 
10

>  <i_lp_mmshare_version>  (979) 
65135

>  <i_m_ct_format>  (979) 
2

>  <i_m_source_file_index>  (979) 
715

>  <i_qp_#NandO>  (979) 
4

>  <i_qp_#acid>  (979) 
0

>  <i_qp_#amide>  (979) 
0

>  <i_qp_#amidine>  (979) 
0

>  <i_qp_#amine>  (979) 
2

>  <i_qp_#in34>  (979) 
0

>  <i_qp_#in56>  (979) 
18

>  <i_qp_#metab>  (979) 
8

>  <i_qp_#nonHatm>  (979) 
28

>  <i_qp_#noncon>  (979) 
0

>  <i_qp_#ringatoms>  (979) 
18

>  <i_qp_#rotor>  (979) 
10

>  <i_qp_#rtvFG>  (979) 
0

>  <i_qp_#stars>  (979) 
0

>  <i_qp_CNS>  (979) 
1

>  <i_qp_HumanOralAbsorption>  (979) 
3

>  <i_qp_RuleOfFive>  (979) 
0

>  <i_qp_RuleOfThree>  (979) 
1

>  <i_sd_BIOSOLVEIT.INFINISEE\_REAGENT1\_NAME>  (979) 
15775648

>  <i_sd_BIOSOLVEIT.INFINISEE\_REAGENT2\_NAME>  (979) 
24721296

>  <i_sd_BIOSOLVEIT.INFINISEE\_RESULT\_RANK>  (979) 
5439

>  <i_sd_version>  (979) 
0

>  <b_lp_Chiralities_Consistent>  (979) 
1

>  <b_sd_chiral_flag>  (979) 
0

>  <canonical_id>  (979) 
ATP-HTVS-9C0CB662701B

>  <compound_code>  (979) 
22849

>  <title>  (979) 
m_270004bbb____15775648____24721296

>  <variant>  (979) 
22849-1

>  <source_file>  (979) 
运行/运行/ATP-VSW/ATP-VSW-DOCK_HTVS_1-001_lib/ATP-VSW-DOCK_HTVS_1-001_lib

>  <canonical_smiles>  (979) 
C[NH+](C)Cc1ccc(CC[NH2+]Cc2ccc(OCc3ccccc3)cn2)cc1

>  <scaffold>  (979) 
c1ccc(CC[NH2+]Cc2ccc(OCc3ccccc3)cn2)cc1

>  <molecular_formula>  (979) 
C24H31N3O+2

$$$$
ATP-HTVS-9C2287A2D630
     RDKit          3D

 65 68  0  0  0  0  0  0  0  0999 V2000
  201.8843  175.7344  156.4776 Cl  0  0  0  0  0  0  0  0  0  0  0  0
  200.8676  176.9539  155.8008 C   0  0  0  0  0  0  0  0  0  0  0  0
  200.7618  177.0927  154.4064 C   0  0  0  0  0  0  0  0  0  0  0  0
  199.9081  178.0750  153.8511 C   0  0  0  0  0  0  0  0  0  0  0  0
  199.1313  178.9079  154.6854 C   0  0  0  0  0  0  0  0  0  0  0  0
  199.2531  178.7587  156.0891 C   0  0  0  0  0  0  0  0  0  0  0  0
  200.1177  177.7968  156.6424 C   0  0  0  0  0  0  0  0  0  0  0  0
  198.2182  179.9147  154.1076 C   0  0  0  0  0  0  0  0  0  0  0  0
  197.6440  179.6816  152.9356 N   0  0  0  0  0  0  0  0  0  0  0  0
  196.9339  180.7963  152.6644 N   0  0  0  0  0  0  0  0  0  0  0  0
  197.0259  181.7287  153.6632 C   0  0  0  0  0  0  0  0  0  0  0  0
  197.8698  181.2051  154.5985 C   0  0  0  0  0  0  0  0  0  0  0  0
  198.3761  181.9141  155.8079 C   0  0  1  0  0  0  0  0  0  0  0  0
  197.3662  181.9317  156.8909 N   0  0  1  0  0  0  0  0  0  0  0  0
  197.7902  182.6236  158.1496 C   0  0  2  0  0  0  0  0  0  0  0  0
  196.9378  183.8613  158.3880 C   0  0  0  0  0  0  0  0  0  0  0  0
  197.1882  185.0494  157.6707 C   0  0  0  0  0  0  0  0  0  0  0  0
  196.5226  186.2096  157.8901 N   0  0  0  0  0  0  0  0  0  0  0  0
  195.5591  186.2106  158.8286 C   0  0  0  0  0  0  0  0  0  0  0  0
  195.2136  185.0779  159.5929 C   0  0  0  0  0  0  0  0  0  0  0  0
  195.9222  183.8783  159.3696 C   0  0  0  0  0  0  0  0  0  0  0  0
  199.3178  182.9218  158.2528 C   0  0  1  0  0  0  0  0  0  0  0  0
  199.7389  183.6436  159.5562 C   0  0  1  0  0  0  0  0  0  0  0  0
  201.2116  183.7904  159.6382 N   0  0  2  0  0  0  0  0  0  0  0  0
  201.9190  182.5257  159.9373 C   0  0  2  0  0  0  0  0  0  0  0  0
  201.5985  184.8765  160.5619 C   0  0  2  0  0  0  0  0  0  0  0  0
  196.2004  180.8989  151.4319 C   0  0  1  0  0  0  0  0  0  0  0  0
  196.7435  182.0313  150.5773 C   0  0  0  0  0  0  0  0  0  0  0  0
  196.2686  183.3523  150.7500 C   0  0  0  0  0  0  0  0  0  0  0  0
  196.7733  184.3944  149.9452 C   0  0  0  0  0  0  0  0  0  0  0  0
  197.7599  184.1251  148.9799 C   0  0  0  0  0  0  0  0  0  0  0  0
  198.2505  182.8142  148.8193 C   0  0  0  0  0  0  0  0  0  0  0  0
  197.7436  181.7710  149.6192 C   0  0  0  0  0  0  0  0  0  0  0  0
  196.5314  182.4014  156.5483 H   0  0  0  0  0  0  0  0  0  0  0  0
  201.3210  176.4375  153.7544 H   0  0  0  0  0  0  0  0  0  0  0  0
  199.8294  178.1566  152.7786 H   0  0  0  0  0  0  0  0  0  0  0  0
  198.6487  179.3389  156.7676 H   0  0  0  0  0  0  0  0  0  0  0  0
  200.1700  177.6860  157.7159 H   0  0  0  0  0  0  0  0  0  0  0  0
  196.5479  182.6950  153.6076 H   0  0  0  0  0  0  0  0  0  0  0  0
  199.3006  181.4327  156.1238 H   0  0  0  0  0  0  0  0  0  0  0  0
  198.6503  182.9276  155.5369 H   0  0  0  0  0  0  0  0  0  0  0  0
  197.5450  181.9132  158.9299 H   0  0  0  0  0  0  0  0  0  0  0  0
  197.9588  185.0865  156.9219 H   0  0  0  0  0  0  0  0  0  0  0  0
  195.0369  187.1437  158.9591 H   0  0  0  0  0  0  0  0  0  0  0  0
  194.4166  185.1343  160.3193 H   0  0  0  0  0  0  0  0  0  0  0  0
  195.6903  183.0028  159.9613 H   0  0  0  0  0  0  0  0  0  0  0  0
  199.8726  182.0002  158.1197 H   0  0  0  0  0  0  0  0  0  0  0  0
  199.6559  183.5668  157.4431 H   0  0  0  0  0  0  0  0  0  0  0  0
  199.2954  184.6377  159.5548 H   0  0  0  0  0  0  0  0  0  0  0  0
  199.3488  183.1569  160.4467 H   0  0  0  0  0  0  0  0  0  0  0  0
  201.5825  182.1077  160.8858 H   0  0  0  0  0  0  0  0  0  0  0  0
  202.9948  182.6840  159.9977 H   0  0  0  0  0  0  0  0  0  0  0  0
  201.7664  181.7687  159.1685 H   0  0  0  0  0  0  0  0  0  0  0  0
  201.2772  184.6462  161.5744 H   0  0  0  0  0  0  0  0  0  0  0  0
  201.1395  185.8201  160.2704 H   0  0  0  0  0  0  0  0  0  0  0  0
  202.6777  185.0226  160.5677 H   0  0  0  0  0  0  0  0  0  0  0  0
  196.2588  179.9512  150.8936 H   0  0  0  0  0  0  0  0  0  0  0  0
  195.1570  181.0574  151.6960 H   0  0  0  0  0  0  0  0  0  0  0  0
  195.5208  183.5674  151.4977 H   0  0  0  0  0  0  0  0  0  0  0  0
  196.4079  185.4027  150.0686 H   0  0  0  0  0  0  0  0  0  0  0  0
  198.1469  184.9266  148.3664 H   0  0  0  0  0  0  0  0  0  0  0  0
  199.0094  182.6081  148.0794 H   0  0  0  0  0  0  0  0  0  0  0  0
  198.1205  180.7669  149.4884 H   0  0  0  0  0  0  0  0  0  0  0  0
  201.5233  184.0886  158.7271 H   0  0  0  0  0  0  0  0  0  0  0  0
  197.0740  180.9893  157.1152 H   0  0  0  0  0  0  0  0  0  0  0  0
  1  2  1  0
  2  3  1  0
  2  7  2  0
  3  4  2  0
  3 35  1  0
  4  5  1  0
  4 36  1  0
  5  6  2  0
  5  8  1  0
  6  7  1  0
  6 37  1  0
  7 38  1  0
  8  9  2  0
  8 12  1  0
  9 10  1  0
 10 11  1  0
 10 27  1  0
 11 12  2  0
 11 39  1  0
 12 13  1  0
 13 14  1  0
 13 40  1  1
 13 41  1  0
 14 15  1  0
 14 34  1  6
 14 65  1  0
 15 16  1  0
 15 22  1  0
 15 42  1  1
 16 17  2  0
 16 21  1  0
 17 18  1  0
 17 43  1  0
 18 19  2  0
 19 20  1  0
 19 44  1  0
 20 21  2  0
 20 45  1  0
 21 46  1  0
 22 23  1  0
 22 47  1  6
 22 48  1  0
 23 24  1  0
 23 49  1  6
 23 50  1  0
 24 25  1  0
 24 26  1  0
 24 64  1  6
 25 51  1  1
 25 52  1  0
 25 53  1  0
 26 54  1  1
 26 55  1  0
 26 56  1  0
 27 28  1  0
 27 57  1  6
 27 58  1  0
 28 29  2  0
 28 33  1  0
 29 30  1  0
 29 59  1  0
 30 31  2  0
 30 60  1  0
 31 32  1  0
 31 61  1  0
 32 33  2  0
 32 62  1  0
 33 63  1  0
M  CHG  2  14   1  24   1
M  END
>  <s_epik_cmdline>  (980) 
J2VwaWtfcHl0aG9uJywgJy1waCcsICc3LjAwMDAwMCcsICctcGh0JywgJzIuMDAwMDAwJywgJy1tcycsICcxNicsICctdG4nLCAnOCcsICctbWEnLCAnMjAwJywgJy1pbWFlJywgJzxpbmZpbGUubWFlPicsICctb21hZScsICc8b3V0ZmlsZS5tYWU+Jw==

>  <s_epik_input>  (980) 
Q2xjMVtjSF1bY0hdYyhbY0hdW2NIXTEpLWMybm4oW0NIMl1jM1tjSF1bY0hdW2NIXVtjSF1bY0hdMylbY0hdYzJbQ0gyXVtOSF1bQ0BASF0oW0NIMl1bQ0gyXU4oW0NIM10pW0NIM10pYzRbY0hdbltjSF1bY0hdW2NIXTQ=

>  <s_i_glide_gridfile>  (980) 
ATP-Grid

>  <s_lp_Force_Field>  (980) 
OPLS_2005

>  <s_lp_Variant>  (980) 
m_207bba____13165696____121449-4

>  <s_lp_label>  (980) 
1921_sdstereoexpander_2_neutralizer_1_epik_2_stereoizer_1

>  <s_m_source_file>  (980) 
ATP-VSW-LIGPREP-001-in.maegz

>  <s_sd_BIOSOLVEIT.INFINISEE\_QUERY\_NAME>  (980) 
Ref-Lig

>  <s_sd_BIOSOLVEIT.INFINISEE\_QUERY\_SMILES>  (980) 
S(c1nc2c(cc1C[NH2+]Cc3ccc(cc3)C[NH+](C)C)cccc2)Cc4ccccc4

>  <s_sd_BIOSOLVEIT.INFINISEE\_REACTION\_NAME>  (980) 
m_207bba

>  <s_sd_BIOSOLVEIT.INFINISEE\_REAGENT1\_SMILES>  (980) 
[R1*]NC(c1cnccc1)CCN(C)C

>  <s_sd_BIOSOLVEIT.INFINISEE\_REAGENT2\_SMILES>  (980) 
[R1*]CC=1C(=NN(C1)Cc2ccccc2)c3ccc(Cl)cc3

>  <s_sd_BIOSOLVEIT.INFINISEE\_SPACE>  (980) 
REALSpace_44bn_2023-08

>  <s_vsw_compound_code>  (980) 
61441

>  <s_vsw_variant>  (980) 
61441-4

>  <r_epik_Charging_Adjusted_Penalty>  (980) 
0.95661175356961103

>  <r_epik_Ionization_Penalty>  (980) 
0.48820000000000002

>  <r_epik_Ionization_Penalty_Charging>  (980) 
0.4874

>  <r_epik_Ionization_Penalty_Neutral>  (980) 
0.00089999999999999998

>  <r_epik_State_Penalty>  (980) 
0.46929999999999999

>  <r_i_docking_score>  (980) 
-4.8735831432510004

>  <r_i_glide_ecoul>  (980) 
-9.8744745254516602

>  <r_i_glide_eff_state_penalty>  (980) 
0.46929999999999999

>  <r_i_glide_einternal>  (980) 
5.7538070678710902

>  <r_i_glide_emodel>  (980) 
-66.585239477047594

>  <r_i_glide_energy>  (980) 
-46.469906806945801

>  <r_i_glide_erotb>  (980) 
0.75479289297707197

>  <r_i_glide_esite>  (980) 
-0.058074472870412099

>  <r_i_glide_evdw>  (980) 
-36.595432281494098

>  <r_i_glide_gscore>  (980) 
-5.342883143251

>  <r_i_glide_hbond>  (980) 
0

>  <r_i_glide_ligand_efficiency>  (980) 
-0.147684337674273

>  <r_i_glide_ligand_efficiency_ln>  (980) 
-1.083859656996

>  <r_i_glide_ligand_efficiency_sa>  (980) 
-0.47370258254082398

>  <r_i_glide_lipo>  (980) 
-2.1815936239340901

>  <r_i_glide_metal>  (980) 
-0

>  <r_i_glide_rewards>  (980) 
-0.54706514653111205

>  <r_lp_Energy>  (980) 
25.73565

>  <r_lp_tautomer_probability>  (980) 
1

>  <r_qp_ACxDN^.5/SA>  (980) 
0.0091249

>  <r_qp_CIQPlogS>  (980) 
-5.25

>  <r_qp_EA(eV)>  (980) 
0.22500000000000001

>  <r_qp_FISA>  (980) 
35.314999999999998

>  <r_qp_FOSA>  (980) 
215.15700000000001

>  <r_qp_IP(eV)>  (980) 
8.8719999999999999

>  <r_qp_Jm>  (980) 
0.026049747408706001

>  <r_qp_PISA>  (980) 
395.42899999999997

>  <r_qp_PSA>  (980) 
45.825000000000003

>  <r_qp_PercentHumanOralAbsorption>  (980) 
100

>  <r_qp_QPPCaco>  (980) 
284.97399999999999

>  <r_qp_QPPMDCK>  (980) 
360.36900000000003

>  <r_qp_QPlogBB>  (980) 
0.66000000000000003

>  <r_qp_QPlogHERG>  (980) 
-7.2050000000000001

>  <r_qp_QPlogKhsa>  (980) 
0.81599999999999995

>  <r_qp_QPlogKp>  (980) 
-4.0380000000000003

>  <r_qp_QPlogPC16>  (980) 
14.994

>  <r_qp_QPlogPo/w>  (980) 
4.8840000000000003

>  <r_qp_QPlogPoct>  (980) 
21.719000000000001

>  <r_qp_QPlogPw>  (980) 
10.268000000000001

>  <r_qp_QPlogS>  (980) 
-3.2080000000000002

>  <r_qp_QPpolrz>  (980) 
48.473999999999997

>  <r_qp_SASA>  (980) 
712.33600000000001

>  <r_qp_SAamideO>  (980) 
0

>  <r_qp_SAfluorine>  (980) 
0

>  <r_qp_WPSA>  (980) 
66.435000000000002

>  <r_qp_accptHB>  (980) 
6.5

>  <r_qp_dip^2/V>  (980) 
0.031751099999999997

>  <r_qp_dipole>  (980) 
6.7030000000000003

>  <r_qp_donorHB>  (980) 
1

>  <r_qp_glob>  (980) 
0.85571260000000005

>  <r_qp_mol_MW>  (980) 
460.01999999999998

>  <r_qp_volume>  (980) 
1415.049

>  <r_sd_BIOSOLVEIT.INFINISEE\_FTREES\_SIMILARITY>  (980) 
0.90300000000000002

>  <r_sd_BIOSOLVEIT.LOGP>  (980) 
2.9861

>  <r_sd_BIOSOLVEIT.MOLECULAR\_WEIGHT>  (980) 
462.03800000000001

>  <r_sd_BIOSOLVEIT.TPSA>  (980) 
51.759999999999998

>  <i_epik_Tot_Q>  (980) 
2

>  <i_epik_Tot_abs_Q>  (980) 
2

>  <i_f3d_flags>  (980) 
0

>  <i_i_glide_confnum>  (980) 
10

>  <i_i_glide_lignum>  (980) 
581

>  <i_i_glide_posenum>  (980) 
7

>  <i_i_glide_rotatable_bonds>  (980) 
10

>  <i_lp_mmshare_version>  (980) 
65135

>  <i_m_ct_format>  (980) 
2

>  <i_m_source_file_index>  (980) 
1921

>  <i_qp_#NandO>  (980) 
5

>  <i_qp_#acid>  (980) 
0

>  <i_qp_#amide>  (980) 
0

>  <i_qp_#amidine>  (980) 
0

>  <i_qp_#amine>  (980) 
2

>  <i_qp_#in34>  (980) 
0

>  <i_qp_#in56>  (980) 
23

>  <i_qp_#metab>  (980) 
8

>  <i_qp_#nonHatm>  (980) 
33

>  <i_qp_#noncon>  (980) 
0

>  <i_qp_#ringatoms>  (980) 
23

>  <i_qp_#rotor>  (980) 
9

>  <i_qp_#rtvFG>  (980) 
0

>  <i_qp_#stars>  (980) 
0

>  <i_qp_CNS>  (980) 
2

>  <i_qp_HumanOralAbsorption>  (980) 
3

>  <i_qp_RuleOfFive>  (980) 
0

>  <i_qp_RuleOfThree>  (980) 
1

>  <i_sd_BIOSOLVEIT.INFINISEE\_REAGENT1\_NAME>  (980) 
13165696

>  <i_sd_BIOSOLVEIT.INFINISEE\_REAGENT2\_NAME>  (980) 
121449

>  <i_sd_BIOSOLVEIT.INFINISEE\_RESULT\_RANK>  (980) 
85826

>  <i_sd_version>  (980) 
0

>  <b_lp_Chiralities_Consistent>  (980) 
1

>  <b_sd_chiral_flag>  (980) 
0

>  <canonical_id>  (980) 
ATP-HTVS-9C2287A2D630

>  <compound_code>  (980) 
61441

>  <title>  (980) 
m_207bba____13165696____121449

>  <variant>  (980) 
61441-4

>  <source_file>  (980) 
运行/运行/ATP-VSW/ATP-VSW-DOCK_HTVS_1-001_lib/ATP-VSW-DOCK_HTVS_1-001_lib

>  <canonical_smiles>  (980) 
C[NH+](C)CC[C@H]([NH2+]Cc1cn(Cc2ccccc2)nc1-c1ccc(Cl)cc1)c1cccnc1

>  <scaffold>  (980) 
c1ccc(Cn2cc(C[NH2+]Cc3cccnc3)c(-c3ccccc3)n2)cc1

>  <molecular_formula>  (980) 
C27H32ClN5+2

$$$$
ATP-HTVS-9C588CAB6516
     RDKit          3D

 60 63  0  0  0  0  0  0  0  0999 V2000
  194.2679  187.6246  161.7339 O   0  0  0  0  0  0  0  0  0  0  0  0
  194.8712  186.6746  160.9332 C   0  0  0  0  0  0  0  0  0  0  0  0
  196.1803  186.9390  160.4580 C   0  0  0  0  0  0  0  0  0  0  0  0
  196.8478  185.9787  159.6622 C   0  0  0  0  0  0  0  0  0  0  0  0
  196.2129  184.7852  159.2705 C   0  0  0  0  0  0  0  0  0  0  0  0
  196.9135  183.9005  158.4411 N   0  0  0  0  0  0  0  0  0  0  0  0
  196.1874  183.0649  157.4946 C   0  0  1  0  0  0  0  0  0  0  0  0
  197.1150  182.2840  156.6214 C   0  0  0  0  0  0  0  0  0  0  0  0
  197.1481  180.9318  156.5344 N   0  0  0  0  0  0  0  0  0  0  0  0
  198.1723  180.5311  155.6809 C   0  0  0  0  0  0  0  0  0  0  0  0
  198.7853  181.7042  155.1985 C   0  0  0  0  0  0  0  0  0  0  0  0
  198.0907  182.7673  155.7924 N   0  0  0  0  0  0  0  0  0  0  0  0
  198.4775  184.1498  155.4657 C   0  0  1  0  0  0  0  0  0  0  0  0
  198.2957  184.4888  153.9935 C   0  0  0  0  0  0  0  0  0  0  0  0
  197.2163  183.9577  153.2529 C   0  0  0  0  0  0  0  0  0  0  0  0
  197.0894  184.2366  151.8817 C   0  0  0  0  0  0  0  0  0  0  0  0
  198.0201  185.0847  151.2456 C   0  0  0  0  0  0  0  0  0  0  0  0
  199.0817  185.6423  151.9851 C   0  0  0  0  0  0  0  0  0  0  0  0
  199.2186  185.3448  153.3557 C   0  0  0  0  0  0  0  0  0  0  0  0
  199.8530  181.6578  154.3077 C   0  0  0  0  0  0  0  0  0  0  0  0
  200.2939  180.3753  153.9145 C   0  0  0  0  0  0  0  0  0  0  0  0
  199.6773  179.2034  154.4050 C   0  0  0  0  0  0  0  0  0  0  0  0
  198.5970  179.2638  155.3086 C   0  0  0  0  0  0  0  0  0  0  0  0
  194.8978  184.5380  159.7153 C   0  0  0  0  0  0  0  0  0  0  0  0
  194.2387  185.4712  160.5296 C   0  0  0  0  0  0  0  0  0  0  0  0
  196.8809  188.2602  160.7699 C   0  0  1  0  0  0  0  0  0  0  0  0
  196.6656  189.2968  159.7305 N   0  0  1  0  0  0  0  0  0  0  0  0
  197.2233  190.6030  160.1479 C   0  0  2  0  0  0  0  0  0  0  0  0
  197.1514  188.9199  158.3770 C   0  0  2  0  0  0  0  0  0  0  0  0
  192.9122  187.4147  162.1116 C   0  0  2  0  0  0  0  0  0  0  0  0
  197.8490  186.1817  159.3143 H   0  0  0  0  0  0  0  0  0  0  0  0
  197.8340  184.1759  158.1380 H   0  0  0  0  0  0  0  0  0  0  0  0
  195.5316  182.3669  158.0180 H   0  0  0  0  0  0  0  0  0  0  0  0
  195.5492  183.6826  156.8704 H   0  0  0  0  0  0  0  0  0  0  0  0
  197.8488  184.8279  156.0365 H   0  0  0  0  0  0  0  0  0  0  0  0
  199.5124  184.3039  155.7819 H   0  0  0  0  0  0  0  0  0  0  0  0
  196.4823  183.3173  153.7211 H   0  0  0  0  0  0  0  0  0  0  0  0
  196.2726  183.8092  151.3223 H   0  0  0  0  0  0  0  0  0  0  0  0
  197.9175  185.3083  150.1936 H   0  0  0  0  0  0  0  0  0  0  0  0
  199.7978  186.2916  151.5020 H   0  0  0  0  0  0  0  0  0  0  0  0
  200.0409  185.7676  153.9160 H   0  0  0  0  0  0  0  0  0  0  0  0
  200.3152  182.5566  153.9312 H   0  0  0  0  0  0  0  0  0  0  0  0
  201.1151  180.2915  153.2233 H   0  0  0  0  0  0  0  0  0  0  0  0
  200.0474  178.2403  154.0862 H   0  0  0  0  0  0  0  0  0  0  0  0
  198.1227  178.3771  155.7134 H   0  0  0  0  0  0  0  0  0  0  0  0
  194.3804  183.6317  159.4344 H   0  0  0  0  0  0  0  0  0  0  0  0
  193.2310  185.2356  160.8411 H   0  0  0  0  0  0  0  0  0  0  0  0
  196.5416  188.6339  161.7379 H   0  0  0  0  0  0  0  0  0  0  0  0
  197.9511  188.1054  160.8741 H   0  0  0  0  0  0  0  0  0  0  0  0
  198.3012  190.5411  160.3180 H   0  0  0  0  0  0  0  0  0  0  0  0
  196.7551  190.9540  161.0688 H   0  0  0  0  0  0  0  0  0  0  0  0
  197.0486  191.3532  159.3772 H   0  0  0  0  0  0  0  0  0  0  0  0
  198.2262  188.7299  158.3961 H   0  0  0  0  0  0  0  0  0  0  0  0
  196.9626  189.7193  157.6598 H   0  0  0  0  0  0  0  0  0  0  0  0
  196.6528  188.0367  157.9789 H   0  0  0  0  0  0  0  0  0  0  0  0
  192.5714  188.2634  162.7025 H   0  0  0  0  0  0  0  0  0  0  0  0
  192.8116  186.5200  162.7271 H   0  0  0  0  0  0  0  0  0  0  0  0
  192.2545  187.3323  161.2439 H   0  0  0  0  0  0  0  0  0  0  0  0
  195.6613  189.4178  159.6730 H   0  0  0  0  0  0  0  0  0  0  0  0
  196.5246  180.2992  157.0509 H   0  0  0  0  0  0  0  0  0  0  0  0
  1  2  1  0
  1 30  1  0
  2  3  2  0
  2 25  1  0
  3  4  1  0
  3 26  1  0
  4  5  2  0
  4 31  1  0
  5  6  1  0
  5 24  1  0
  6  7  1  0
  6 32  1  0
  7  8  1  0
  7 33  1  1
  7 34  1  0
  8  9  2  0
  8 12  1  0
  9 10  1  0
  9 60  1  0
 10 11  1  0
 10 23  2  0
 11 12  1  0
 11 20  2  0
 12 13  1  0
 13 14  1  0
 13 35  1  1
 13 36  1  0
 14 15  2  0
 14 19  1  0
 15 16  1  0
 15 37  1  0
 16 17  2  0
 16 38  1  0
 17 18  1  0
 17 39  1  0
 18 19  2  0
 18 40  1  0
 19 41  1  0
 20 21  1  0
 20 42  1  0
 21 22  2  0
 21 43  1  0
 22 23  1  0
 22 44  1  0
 23 45  1  0
 24 25  2  0
 24 46  1  0
 25 47  1  0
 26 27  1  0
 26 48  1  1
 26 49  1  0
 27 28  1  0
 27 29  1  0
 27 59  1  6
 28 50  1  1
 28 51  1  0
 28 52  1  0
 29 53  1  1
 29 54  1  0
 29 55  1  0
 30 56  1  1
 30 57  1  0
 30 58  1  0
M  CHG  2   9   1  27   1
M  END
>  <s_epik_cmdline>  (981) 
J2VwaWtfcHl0aG9uJywgJy1waCcsICc3LjAwMDAwMCcsICctcGh0JywgJzIuMDAwMDAwJywgJy1tcycsICcxNicsICctdG4nLCAnOCcsICctbWEnLCAnMjAwJywgJy1pbWFlJywgJzxpbmZpbGUubWFlPicsICctb21hZScsICc8b3V0ZmlsZS5tYWU+Jw==

>  <s_epik_input>  (981) 
W0NIM11OKFtDSDNdKVtDSDJdYyhjMU9bQ0gzXSlbY0hdYyhbY0hdW2NIXTEpW05IXVtDSDJdYyhuMiluKGMoYzIzKVtjSF1bY0hdW2NIXVtjSF0zKVtDSDJdYzRbY0hdW2NIXVtjSF1bY0hdW2NIXTQ=

>  <s_i_glide_gridfile>  (981) 
ATP-Grid

>  <s_lp_Force_Field>  (981) 
OPLS_2005

>  <s_lp_Variant>  (981) 
rxn102b____EMOL934546____EMOL44693140-2

>  <s_lp_label>  (981) 
3010_sdstereoexpander_1_neutralizer_1_epik_2_stereoizer_1

>  <s_m_source_file>  (981) 
ATP-VSW-LIGPREP-002-in.maegz

>  <s_sd_BIOSOLVEIT.INFINISEE\_QUERY\_NAME>  (981) 
Ref-Lig

>  <s_sd_BIOSOLVEIT.INFINISEE\_QUERY\_SMILES>  (981) 
S(c1nc2c(cc1C[NH2+]Cc3ccc(cc3)C[NH+](C)C)cccc2)Cc4ccccc4

>  <s_sd_BIOSOLVEIT.INFINISEE\_REACTION\_NAME>  (981) 
rxn102b

>  <s_sd_BIOSOLVEIT.INFINISEE\_REAGENT1\_NAME>  (981) 
EMOL934546

>  <s_sd_BIOSOLVEIT.INFINISEE\_REAGENT1\_SMILES>  (981) 
Brc1cc(c(OC)cc1)CN(C)C

>  <s_sd_BIOSOLVEIT.INFINISEE\_REAGENT2\_NAME>  (981) 
EMOL44693140

>  <s_sd_BIOSOLVEIT.INFINISEE\_REAGENT2\_SMILES>  (981) 
N=1c2c(N(C1CN)Cc3ccccc3)cccc2

>  <s_sd_BIOSOLVEIT.INFINISEE\_SPACE>  (981) 
eXplore_7tr_2022-12

>  <s_vsw_compound_code>  (981) 
96290

>  <s_vsw_variant>  (981) 
96290-2

>  <r_epik_Charging_Adjusted_Penalty>  (981) 
1.1200205559049401

>  <r_epik_Ionization_Penalty>  (981) 
0.55969999999999998

>  <r_epik_Ionization_Penalty_Charging>  (981) 
0.55969999999999998

>  <r_epik_Ionization_Penalty_Neutral>  (981) 
0

>  <r_epik_State_Penalty>  (981) 
0.56040000000000001

>  <r_i_docking_score>  (981) 
-5.0451826461415603

>  <r_i_glide_ecoul>  (981) 
-12.176755905151399

>  <r_i_glide_eff_state_penalty>  (981) 
0.56040000000000001

>  <r_i_glide_einternal>  (981) 
2.0256209373474099

>  <r_i_glide_emodel>  (981) 
-66.349940583269102

>  <r_i_glide_energy>  (981) 
-43.383409500122099

>  <r_i_glide_erotb>  (981) 
0.726697048323941

>  <r_i_glide_esite>  (981) 
-0.162518380646028

>  <r_i_glide_evdw>  (981) 
-31.2066535949707

>  <r_i_glide_gscore>  (981) 
-5.6055826461415599

>  <r_i_glide_hbond>  (981) 
-0.20000000000000001

>  <r_i_glide_ligand_efficiency>  (981) 
-0.168172754871385

>  <r_i_glide_ligand_efficiency_ln>  (981) 
-1.1463204688711801

>  <r_i_glide_ligand_efficiency_sa>  (981) 
-0.52255184995974502

>  <r_i_glide_lipo>  (981) 
-1.69336002102551

>  <r_i_glide_metal>  (981) 
-0

>  <r_i_glide_rewards>  (981) 
-0.88955522727272596

>  <r_lp_Energy>  (981) 
23.137878000000001

>  <r_qp_ACxDN^.5/SA>  (981) 
0.0078857000000000007

>  <r_qp_CIQPlogS>  (981) 
-5.4699999999999998

>  <r_qp_EA(eV)>  (981) 
0.26800000000000002

>  <r_qp_FISA>  (981) 
33.774999999999999

>  <r_qp_FOSA>  (981) 
288.91300000000001

>  <r_qp_IP(eV)>  (981) 
7.8810000000000002

>  <r_qp_Jm>  (981) 
0.26637416444247802

>  <r_qp_PISA>  (981) 
343.07100000000003

>  <r_qp_PSA>  (981) 
37.927

>  <r_qp_PercentHumanOralAbsorption>  (981) 
100

>  <r_qp_QPPCaco>  (981) 
1181.723

>  <r_qp_QPPMDCK>  (981) 
655.55700000000002

>  <r_qp_QPlogBB>  (981) 
0.17199999999999999

>  <r_qp_QPlogHERG>  (981) 
-6.2450000000000001

>  <r_qp_QPlogKhsa>  (981) 
0.73599999999999999

>  <r_qp_QPlogKp>  (981) 
-2.2280000000000002

>  <r_qp_QPlogPC16>  (981) 
12.942

>  <r_qp_QPlogPo/w>  (981) 
4.7560000000000002

>  <r_qp_QPlogPoct>  (981) 
18.465

>  <r_qp_QPlogPw>  (981) 
8.7560000000000002

>  <r_qp_QPlogS>  (981) 
-3.9489999999999998

>  <r_qp_QPpolrz>  (981) 
43.064

>  <r_qp_SASA>  (981) 
665.75900000000001

>  <r_qp_SAamideO>  (981) 
0

>  <r_qp_SAfluorine>  (981) 
0

>  <r_qp_WPSA>  (981) 
0

>  <r_qp_accptHB>  (981) 
5.25

>  <r_qp_dip^2/V>  (981) 
0.015037500000000001

>  <r_qp_dipole>  (981) 
4.3810000000000002

>  <r_qp_donorHB>  (981) 
1

>  <r_qp_glob>  (981) 
0.85472099999999995

>  <r_qp_mol_MW>  (981) 
400.52199999999999

>  <r_qp_volume>  (981) 
1276.3340000000001

>  <r_sd_BIOSOLVEIT.INFINISEE\_FTREES\_SIMILARITY>  (981) 
0.90200000000000002

>  <r_sd_BIOSOLVEIT.LOGP>  (981) 
3.3498000000000001

>  <r_sd_BIOSOLVEIT.MOLECULAR\_WEIGHT>  (981) 
401.53100000000001

>  <r_sd_BIOSOLVEIT.TPSA>  (981) 
43.520000000000003

>  <i_epik_Tot_Q>  (981) 
2

>  <i_epik_Tot_abs_Q>  (981) 
2

>  <i_f3d_flags>  (981) 
0

>  <i_i_glide_confnum>  (981) 
5

>  <i_i_glide_lignum>  (981) 
72

>  <i_i_glide_posenum>  (981) 
17

>  <i_i_glide_rotatable_bonds>  (981) 
8

>  <i_lp_mmshare_version>  (981) 
65135

>  <i_m_ct_format>  (981) 
2

>  <i_m_source_file_index>  (981) 
3010

>  <i_qp_#NandO>  (981) 
5

>  <i_qp_#acid>  (981) 
0

>  <i_qp_#amide>  (981) 
0

>  <i_qp_#amidine>  (981) 
0

>  <i_qp_#amine>  (981) 
1

>  <i_qp_#in34>  (981) 
0

>  <i_qp_#in56>  (981) 
21

>  <i_qp_#metab>  (981) 
8

>  <i_qp_#nonHatm>  (981) 
30

>  <i_qp_#noncon>  (981) 
0

>  <i_qp_#ringatoms>  (981) 
21

>  <i_qp_#rotor>  (981) 
8

>  <i_qp_#rtvFG>  (981) 
0

>  <i_qp_#stars>  (981) 
1

>  <i_qp_CNS>  (981) 
1

>  <i_qp_HumanOralAbsorption>  (981) 
3

>  <i_qp_RuleOfFive>  (981) 
0

>  <i_qp_RuleOfThree>  (981) 
1

>  <i_sd_BIOSOLVEIT.INFINISEE\_RESULT\_RANK>  (981) 
86689

>  <i_sd_version>  (981) 
0

>  <b_lp_Chiralities_Consistent>  (981) 
1

>  <b_sd_chiral_flag>  (981) 
0

>  <canonical_id>  (981) 
ATP-HTVS-9C588CAB6516

>  <compound_code>  (981) 
96290

>  <title>  (981) 
rxn102b____EMOL934546____EMOL44693140

>  <variant>  (981) 
96290-2

>  <source_file>  (981) 
运行/运行/ATP-VSW/ATP-VSW-DOCK_HTVS_1-003_lib/ATP-VSW-DOCK_HTVS_1-003_lib.mae

>  <canonical_smiles>  (981) 
COc1ccc(NCc2[nH+]c3ccccc3n2Cc2ccccc2)cc1C[NH+](C)C

>  <scaffold>  (981) 
c1ccc(Cn2c(CNc3ccccc3)[nH+]c3ccccc32)cc1

>  <molecular_formula>  (981) 
C25H30N4O+2

$$$$
ATP-HTVS-9C7CAB1133CD
     RDKit          3D

 54 56  0  0  0  0  0  0  0  0999 V2000
  202.9081  189.9512  155.4009 Cl  0  0  0  0  0  0  0  0  0  0  0  0
  201.7237  188.7938  154.9442 C   0  0  0  0  0  0  0  0  0  0  0  0
  201.3790  188.5545  153.2559 S   0  0  0  0  0  0  0  0  0  0  0  0
  200.2267  187.2972  153.6402 C   0  0  0  0  0  0  0  0  0  0  0  0
  199.5375  186.6970  152.4724 C   0  0  0  0  0  0  0  0  0  0  0  0
  199.1520  187.4941  151.6167 O   0  0  0  0  0  0  0  0  0  0  0  0
  199.3843  185.3433  152.3518 N   0  0  0  0  0  0  0  0  0  0  0  0
  198.5514  184.7677  151.3287 C   0  0  0  0  0  0  0  0  0  0  0  0
  198.6366  185.1847  149.9733 C   0  0  0  0  0  0  0  0  0  0  0  0
  197.8456  184.5662  148.9800 C   0  0  0  0  0  0  0  0  0  0  0  0
  197.9341  185.0306  147.6076 C   0  0  0  0  0  0  0  0  0  0  0  0
  198.0039  185.4046  146.5167 N   0  0  0  0  0  0  0  0  0  0  0  0
  196.9840  183.5084  149.3281 C   0  0  0  0  0  0  0  0  0  0  0  0
  196.8988  183.0737  150.6642 C   0  0  0  0  0  0  0  0  0  0  0  0
  197.6718  183.7051  151.6608 C   0  0  0  0  0  0  0  0  0  0  0  0
  199.9859  184.3960  153.2888 C   0  0  2  0  0  0  0  0  0  0  0  0
  200.0598  187.1716  155.0026 C   0  0  0  0  0  0  0  0  0  0  0  0
  199.1105  186.3208  155.6188 N   0  0  0  0  0  0  0  0  0  0  0  0
  198.9000  186.2430  157.0627 C   0  0  1  0  0  0  0  0  0  0  0  0
  197.9421  185.1335  157.4665 C   0  0  0  0  0  0  0  0  0  0  0  0
  197.1186  185.3369  158.5909 C   0  0  0  0  0  0  0  0  0  0  0  0
  196.2433  184.3176  159.0239 C   0  0  0  0  0  0  0  0  0  0  0  0
  196.1626  183.0997  158.3091 C   0  0  0  0  0  0  0  0  0  0  0  0
  196.9796  182.8954  157.1838 C   0  0  0  0  0  0  0  0  0  0  0  0
  197.8787  183.8972  156.7806 C   0  0  0  0  0  0  0  0  0  0  0  0
  195.2070  182.0102  158.7431 C   0  0  1  0  0  0  0  0  0  0  0  0
  193.8584  182.1466  158.1306 N   0  0  2  0  0  0  0  0  0  0  0  0
  193.1691  183.3944  158.5236 C   0  0  2  0  0  0  0  0  0  0  0  0
  193.0282  180.9413  158.3409 C   0  0  2  0  0  0  0  0  0  0  0  0
  200.9608  187.9952  155.7513 C   0  0  0  0  0  0  0  0  0  0  0  0
  199.3214  185.9590  149.6667 H   0  0  0  0  0  0  0  0  0  0  0  0
  196.3967  183.0246  148.5656 H   0  0  0  0  0  0  0  0  0  0  0  0
  196.2498  182.2522  150.9347 H   0  0  0  0  0  0  0  0  0  0  0  0
  197.5830  183.3461  152.6778 H   0  0  0  0  0  0  0  0  0  0  0  0
  200.1479  183.4084  152.8396 H   0  0  0  0  0  0  0  0  0  0  0  0
  199.2723  184.2507  154.1041 H   0  0  0  0  0  0  0  0  0  0  0  0
  200.9359  184.7470  153.6814 H   0  0  0  0  0  0  0  0  0  0  0  0
  198.6304  185.6586  155.0609 H   0  0  0  0  0  0  0  0  0  0  0  0
  199.8543  186.0742  157.5661 H   0  0  0  0  0  0  0  0  0  0  0  0
  198.5091  187.2090  157.3925 H   0  0  0  0  0  0  0  0  0  0  0  0
  197.1654  186.2758  159.1327 H   0  0  0  0  0  0  0  0  0  0  0  0
  195.6255  184.4884  159.8984 H   0  0  0  0  0  0  0  0  0  0  0  0
  196.9316  181.9610  156.6426 H   0  0  0  0  0  0  0  0  0  0  0  0
  198.5205  183.6599  155.9478 H   0  0  0  0  0  0  0  0  0  0  0  0
  195.6688  181.0511  158.5062 H   0  0  0  0  0  0  0  0  0  0  0  0
  195.1304  182.0242  159.8252 H   0  0  0  0  0  0  0  0  0  0  0  0
  193.0466  183.4465  159.6085 H   0  0  0  0  0  0  0  0  0  0  0  0
  192.1745  183.4230  158.0811 H   0  0  0  0  0  0  0  0  0  0  0  0
  193.7070  184.2696  158.1415 H   0  0  0  0  0  0  0  0  0  0  0  0
  192.8174  180.7760  159.3879 H   0  0  0  0  0  0  0  0  0  0  0  0
  193.5439  180.0559  158.0016 H   0  0  0  0  0  0  0  0  0  0  0  0
  192.0895  181.0114  157.8061 H   0  0  0  0  0  0  0  0  0  0  0  0
  201.0116  187.9850  156.8301 H   0  0  0  0  0  0  0  0  0  0  0  0
  193.9554  182.2527  157.1215 H   0  0  0  0  0  0  0  0  0  0  0  0
  1  2  1  0
  2  3  1  0
  2 30  2  0
  3  4  1  0
  4  5  1  0
  4 17  2  0
  5  6  2  0
  5  7  1  0
  7  8  1  0
  7 16  1  0
  8  9  1  0
  8 15  2  0
  9 10  2  0
  9 31  1  0
 10 11  1  0
 10 13  1  0
 11 12  3  0
 13 14  2  0
 13 32  1  0
 14 15  1  0
 14 33  1  0
 15 34  1  0
 16 35  1  6
 16 36  1  0
 16 37  1  0
 17 18  1  0
 17 30  1  0
 18 19  1  0
 18 38  1  0
 19 20  1  0
 19 39  1  1
 19 40  1  0
 20 21  1  0
 20 25  2  0
 21 22  2  0
 21 41  1  0
 22 23  1  0
 22 42  1  0
 23 24  2  0
 23 26  1  0
 24 25  1  0
 24 43  1  0
 25 44  1  0
 26 27  1  0
 26 45  1  1
 26 46  1  0
 27 28  1  0
 27 29  1  0
 27 54  1  6
 28 47  1  1
 28 48  1  0
 28 49  1  0
 29 50  1  1
 29 51  1  0
 29 52  1  0
 30 53  1  0
M  CHG  1  27   1
M  END
>  <s_epik_cmdline>  (982) 
J2VwaWtfcHl0aG9uJywgJy1waCcsICc3LjAwMDAwMCcsICctcGh0JywgJzIuMDAwMDAwJywgJy1tcycsICcxNicsICctdG4nLCAnOCcsICctbWEnLCAnMjAwJywgJy1pbWFlJywgJzxpbmZpbGUubWFlPicsICctb21hZScsICc8b3V0ZmlsZS5tYWU+Jw==

>  <s_epik_input>  (982) 
W2NIXTFbY0hdW2NIXWMoQyNOKVtjSF1jMU4oW0NIM10pQyg9TyljKHNjMkNsKWMoW2NIXTIpW05IXVtDSDJdYzNbY0hdW2NIXWMoW2NIXVtjSF0zKVtDSDJdTihbQ0gzXSlbQ0gzXQ==

>  <s_i_glide_gridfile>  (982) 
ATP-Grid

>  <s_lp_Force_Field>  (982) 
OPLS_2005

>  <s_lp_Variant>  (982) 
rxn512b____EMOL31412115____EMOL49851977____EMOL50155899-1

>  <s_lp_label>  (982) 
2448_sdstereoexpander_1_neutralizer_1_epik_1_stereoizer_1

>  <s_m_source_file>  (982) 
ATP-VSW-LIGPREP-001-in.maegz

>  <s_sd_BIOSOLVEIT.INFINISEE\_QUERY\_NAME>  (982) 
Ref-Lig

>  <s_sd_BIOSOLVEIT.INFINISEE\_QUERY\_SMILES>  (982) 
S(c1nc2c(cc1C[NH2+]Cc3ccc(cc3)C[NH+](C)C)cccc2)Cc4ccccc4

>  <s_sd_BIOSOLVEIT.INFINISEE\_REACTION\_NAME>  (982) 
rxn512b

>  <s_sd_BIOSOLVEIT.INFINISEE\_REAGENT1\_NAME>  (982) 
EMOL31412115

>  <s_sd_BIOSOLVEIT.INFINISEE\_REAGENT1\_SMILES>  (982) 
N#Cc1cc(NC)ccc1

>  <s_sd_BIOSOLVEIT.INFINISEE\_REAGENT2\_NAME>  (982) 
EMOL49851977

>  <s_sd_BIOSOLVEIT.INFINISEE\_REAGENT2\_SMILES>  (982) 
BrC1=C(SC(Cl)=C1)C(=O)O

>  <s_sd_BIOSOLVEIT.INFINISEE\_REAGENT3\_NAME>  (982) 
EMOL50155899

>  <s_sd_BIOSOLVEIT.INFINISEE\_REAGENT3\_SMILES>  (982) 
N(Cc1ccc(cc1)CN)(C)C

>  <s_sd_BIOSOLVEIT.INFINISEE\_SPACE>  (982) 
eXplore_7tr_2022-12

>  <s_vsw_compound_code>  (982) 
78305

>  <s_vsw_variant>  (982) 
78305-1

>  <r_epik_Charging_Adjusted_Penalty>  (982) 
0.080189274810459593

>  <r_epik_Ionization_Penalty>  (982) 
0.0402

>  <r_epik_Ionization_Penalty_Charging>  (982) 
0.040099999999999997

>  <r_epik_Ionization_Penalty_Neutral>  (982) 
0.0001

>  <r_epik_State_Penalty>  (982) 
0.040099999999999997

>  <r_i_docking_score>  (982) 
-3.81902247195702

>  <r_i_glide_ecoul>  (982) 
-9.8183917999267596

>  <r_i_glide_eff_state_penalty>  (982) 
0.040099999999999997

>  <r_i_glide_einternal>  (982) 
2.4654061794281001

>  <r_i_glide_emodel>  (982) 
-48.490325661454499

>  <r_i_glide_energy>  (982) 
-37.040136337280302

>  <r_i_glide_erotb>  (982) 
0.72185624816151595

>  <r_i_glide_esite>  (982) 
-0.10000000000000001

>  <r_i_glide_evdw>  (982) 
-27.221744537353501

>  <r_i_glide_gscore>  (982) 
-3.8591224719570199

>  <r_i_glide_hbond>  (982) 
-0.20000000000000001

>  <r_i_glide_ligand_efficiency>  (982) 
-0.127300749065234

>  <r_i_glide_ligand_efficiency_ln>  (982) 
-0.86772351721129404

>  <r_i_glide_ligand_efficiency_sa>  (982) 
-0.395553025079319

>  <r_i_glide_lipo>  (982) 
-0.79183449174923803

>  <r_i_glide_metal>  (982) 
-0

>  <r_i_glide_rewards>  (982) 
-0.65529823151261202

>  <r_lp_Energy>  (982) 
39.969310999999998

>  <r_lp_tautomer_probability>  (982) 
0.99999274205267796

>  <r_qp_ACxDN^.5/SA>  (982) 
0

>  <r_qp_CIQPlogS>  (982) 
-5.3029999999999999

>  <r_qp_EA(eV)>  (982) 
0.70999999999999996

>  <r_qp_FISA>  (982) 
114.092

>  <r_qp_FOSA>  (982) 
255.02799999999999

>  <r_qp_IP(eV)>  (982) 
8.4489999999999998

>  <r_qp_Jm>  (982) 
2.5783296675341302e-06

>  <r_qp_PISA>  (982) 
293.68200000000002

>  <r_qp_PSA>  (982) 
67.674999999999997

>  <r_qp_PercentHumanOralAbsorption>  (982) 
81.536000000000001

>  <r_qp_QPPCaco>  (982) 
51.023000000000003

>  <r_qp_QPPMDCK>  (982) 
102.107

>  <r_qp_QPlogBB>  (982) 
-0.112

>  <r_qp_QPlogHERG>  (982) 
-8.0440000000000005

>  <r_qp_QPlogKhsa>  (982) 
0.56200000000000006

>  <r_qp_QPlogKp>  (982) 
-5.9450000000000003

>  <r_qp_QPlogPC16>  (982) 
14.93

>  <r_qp_QPlogPo/w>  (982) 
4.1029999999999998

>  <r_qp_QPlogPoct>  (982) 
21.015000000000001

>  <r_qp_QPlogPw>  (982) 
9.0399999999999991

>  <r_qp_QPlogS>  (982) 
-5.2859999999999996

>  <r_qp_QPpolrz>  (982) 
46.960999999999999

>  <r_qp_SASA>  (982) 
776.65599999999995

>  <r_qp_SAamideO>  (982) 
0

>  <r_qp_SAfluorine>  (982) 
0

>  <r_qp_WPSA>  (982) 
113.855

>  <r_qp_accptHB>  (982) 
6.5

>  <r_qp_dip^2/V>  (982) 
0.1168742

>  <r_qp_dipole>  (982) 
12.725

>  <r_qp_donorHB>  (982) 
0

>  <r_qp_glob>  (982) 
0.77387220000000001

>  <r_qp_mol_MW>  (982) 
438.97399999999999

>  <r_qp_volume>  (982) 
1385.4780000000001

>  <r_sd_BIOSOLVEIT.INFINISEE\_FTREES\_SIMILARITY>  (982) 
0.91600000000000004

>  <r_sd_BIOSOLVEIT.LOGP>  (982) 
3.8063799999999999

>  <r_sd_BIOSOLVEIT.MOLECULAR\_WEIGHT>  (982) 
439.988

>  <r_sd_BIOSOLVEIT.TPSA>  (982) 
60.57

>  <i_epik_Tot_Q>  (982) 
1

>  <i_epik_Tot_abs_Q>  (982) 
1

>  <i_f3d_flags>  (982) 
0

>  <i_i_glide_confnum>  (982) 
10

>  <i_i_glide_lignum>  (982) 
955

>  <i_i_glide_posenum>  (982) 
8

>  <i_i_glide_rotatable_bonds>  (982) 
8

>  <i_lp_mmshare_version>  (982) 
65135

>  <i_m_ct_format>  (982) 
2

>  <i_m_source_file_index>  (982) 
2448

>  <i_qp_#NandO>  (982) 
5

>  <i_qp_#acid>  (982) 
0

>  <i_qp_#amide>  (982) 
0

>  <i_qp_#amidine>  (982) 
0

>  <i_qp_#amine>  (982) 
2

>  <i_qp_#in34>  (982) 
0

>  <i_qp_#in56>  (982) 
17

>  <i_qp_#metab>  (982) 
6

>  <i_qp_#nonHatm>  (982) 
30

>  <i_qp_#noncon>  (982) 
0

>  <i_qp_#ringatoms>  (982) 
17

>  <i_qp_#rotor>  (982) 
8

>  <i_qp_#rtvFG>  (982) 
0

>  <i_qp_#stars>  (982) 
1

>  <i_qp_CNS>  (982) 
1

>  <i_qp_HumanOralAbsorption>  (982) 
3

>  <i_qp_RuleOfFive>  (982) 
0

>  <i_qp_RuleOfThree>  (982) 
0

>  <i_sd_BIOSOLVEIT.INFINISEE\_RESULT\_RANK>  (982) 
25235

>  <i_sd_version>  (982) 
0

>  <b_lp_Chiralities_Consistent>  (982) 
1

>  <b_sd_chiral_flag>  (982) 
0

>  <canonical_id>  (982) 
ATP-HTVS-9C7CAB1133CD

>  <compound_code>  (982) 
78305

>  <title>  (982) 
rxn512b____EMOL31412115____EMOL49851977____EMOL50155899

>  <variant>  (982) 
78305-1

>  <source_file>  (982) 
运行/运行/ATP-VSW/ATP-VSW-DOCK_HTVS_1-001_lib/ATP-VSW-DOCK_HTVS_1-001_lib

>  <canonical_smiles>  (982) 
CN(C(=O)c1sc(Cl)cc1NCc1ccc(C[NH+](C)C)cc1)c1cccc(C#N)c1

>  <scaffold>  (982) 
O=C(Nc1ccccc1)c1sccc1NCc1ccccc1

>  <molecular_formula>  (982) 
C23H24ClN4OS+

$$$$
ATP-HTVS-9C9650448F2C
     RDKit          3D

 66 69  0  0  0  0  0  0  0  0999 V2000
  201.3404  179.5039  157.3446 O   0  0  0  0  0  0  0  0  0  0  0  0
  200.7098  179.0433  156.3952 C   0  0  0  0  0  0  0  0  0  0  0  0
  199.8070  179.7118  155.6600 N   0  0  0  0  0  0  0  0  0  0  0  0
  199.5901  181.1176  155.5677 C   0  0  0  0  0  0  0  0  0  0  0  0
  200.1557  181.9830  156.4430 N   0  0  0  0  0  0  0  0  0  0  0  0
  199.9271  183.3043  156.3195 C   0  0  0  0  0  0  0  0  0  0  0  0
  199.1070  183.8584  155.3324 C   0  0  0  0  0  0  0  0  0  0  0  0
  198.8471  185.2412  155.3537 N   0  0  0  0  0  0  0  0  0  0  0  0
  197.5764  185.6572  155.9751 C   0  0  2  0  0  0  0  0  0  0  0  0
  197.5849  187.0950  156.2930 C   0  0  0  0  0  0  0  0  0  0  0  0
  197.5886  188.2388  156.5363 N   0  0  0  0  0  0  0  0  0  0  0  0
  197.1107  184.7988  157.1669 C   0  0  0  0  0  0  0  0  0  0  0  0
  197.0823  185.3145  158.4907 C   0  0  0  0  0  0  0  0  0  0  0  0
  196.6706  184.4991  159.5718 C   0  0  0  0  0  0  0  0  0  0  0  0
  196.3052  183.1616  159.3442 C   0  0  0  0  0  0  0  0  0  0  0  0
  196.3037  182.6431  158.0374 C   0  0  0  0  0  0  0  0  0  0  0  0
  196.6636  183.4718  156.9544 C   0  0  0  0  0  0  0  0  0  0  0  0
  199.3471  185.9468  154.1751 C   0  0  2  0  0  0  0  0  0  0  0  0
  198.4808  182.9759  154.4166 C   0  0  0  0  0  0  0  0  0  0  0  0
  198.7612  181.5744  154.5068 C   0  0  0  0  0  0  0  0  0  0  0  0
  198.1390  180.6882  153.5751 C   0  0  0  0  0  0  0  0  0  0  0  0
  197.2797  181.1708  152.5763 C   0  0  0  0  0  0  0  0  0  0  0  0
  196.9953  182.5482  152.5084 C   0  0  0  0  0  0  0  0  0  0  0  0
  197.5946  183.4428  153.4244 C   0  0  0  0  0  0  0  0  0  0  0  0
  200.8938  177.6069  155.9821 C   0  0  0  0  0  0  0  0  0  0  0  0
  201.4882  176.6981  156.8770 C   0  0  0  0  0  0  0  0  0  0  0  0
  201.7336  175.3666  156.4840 C   0  0  0  0  0  0  0  0  0  0  0  0
  201.3752  174.9156  155.1976 C   0  0  0  0  0  0  0  0  0  0  0  0
  201.5897  173.5838  154.9272 O   0  0  0  0  0  0  0  0  0  0  0  0
  201.4091  173.0766  153.6168 C   0  0  1  0  0  0  0  0  0  0  0  0
  202.7144  173.2560  152.8068 C   0  0  1  0  0  0  0  0  0  0  0  0
  203.1178  172.0090  152.1221 N   0  0  2  0  0  0  0  0  0  0  0  0
  204.4866  172.0811  151.5708 C   0  0  2  0  0  0  0  0  0  0  0  0
  202.1437  171.5759  151.1004 C   0  0  2  0  0  0  0  0  0  0  0  0
  200.8058  175.8325  154.2858 C   0  0  0  0  0  0  0  0  0  0  0  0
  200.5704  177.1661  154.6779 C   0  0  0  0  0  0  0  0  0  0  0  0
  199.3119  179.1625  154.9808 H   0  0  0  0  0  0  0  0  0  0  0  0
  200.3591  183.9145  157.0954 H   0  0  0  0  0  0  0  0  0  0  0  0
  196.8049  185.5609  155.2138 H   0  0  0  0  0  0  0  0  0  0  0  0
  197.3723  186.3377  158.7026 H   0  0  0  0  0  0  0  0  0  0  0  0
  196.6580  184.9066  160.5722 H   0  0  0  0  0  0  0  0  0  0  0  0
  196.0166  182.5124  160.1503 H   0  0  0  0  0  0  0  0  0  0  0  0
  196.0344  181.6083  157.8520 H   0  0  0  0  0  0  0  0  0  0  0  0
  196.5754  183.0558  155.9549 H   0  0  0  0  0  0  0  0  0  0  0  0
  200.4019  185.6928  154.0129 H   0  0  0  0  0  0  0  0  0  0  0  0
  199.3032  187.0381  154.3035 H   0  0  0  0  0  0  0  0  0  0  0  0
  198.7559  185.6582  153.2961 H   0  0  0  0  0  0  0  0  0  0  0  0
  198.2834  179.6148  153.6349 H   0  0  0  0  0  0  0  0  0  0  0  0
  196.8106  180.4949  151.8858 H   0  0  0  0  0  0  0  0  0  0  0  0
  196.3058  182.9303  151.7684 H   0  0  0  0  0  0  0  0  0  0  0  0
  197.3419  184.4998  153.3762 H   0  0  0  0  0  0  0  0  0  0  0  0
  201.7827  177.0345  157.8600 H   0  0  0  0  0  0  0  0  0  0  0  0
  202.2033  174.6859  157.1799 H   0  0  0  0  0  0  0  0  0  0  0  0
  201.1912  172.0177  153.7552 H   0  0  0  0  0  0  0  0  0  0  0  0
  200.5522  173.4918  153.0820 H   0  0  0  0  0  0  0  0  0  0  0  0
  202.6170  174.0764  152.0794 H   0  0  0  0  0  0  0  0  0  0  0  0
  203.5262  173.5628  153.4720 H   0  0  0  0  0  0  0  0  0  0  0  0
  204.5669  172.8680  150.8143 H   0  0  0  0  0  0  0  0  0  0  0  0
  204.7644  171.1374  151.0997 H   0  0  0  0  0  0  0  0  0  0  0  0
  205.2182  172.2874  152.3515 H   0  0  0  0  0  0  0  0  0  0  0  0
  202.0498  172.3226  150.3031 H   0  0  0  0  0  0  0  0  0  0  0  0
  201.1462  171.4149  151.5166 H   0  0  0  0  0  0  0  0  0  0  0  0
  202.4559  170.6326  150.6469 H   0  0  0  0  0  0  0  0  0  0  0  0
  200.5183  175.5461  153.2838 H   0  0  0  0  0  0  0  0  0  0  0  0
  200.1433  177.8286  153.9387 H   0  0  0  0  0  0  0  0  0  0  0  0
  203.1382  171.2841  152.8431 H   0  0  0  0  0  0  0  0  0  0  0  0
  1  2  2  0
  2  3  1  0
  2 25  1  0
  3  4  1  0
  3 37  1  0
  4  5  1  0
  4 20  2  0
  5  6  2  0
  6  7  1  0
  6 38  1  0
  7  8  1  0
  7 19  2  0
  8  9  1  0
  8 18  1  0
  9 10  1  0
  9 12  1  0
  9 39  1  6
 10 11  3  0
 12 13  2  0
 12 17  1  0
 13 14  1  0
 13 40  1  0
 14 15  2  0
 14 41  1  0
 15 16  1  0
 15 42  1  0
 16 17  2  0
 16 43  1  0
 17 44  1  0
 18 45  1  6
 18 46  1  0
 18 47  1  0
 19 20  1  0
 19 24  1  0
 20 21  1  0
 21 22  2  0
 21 48  1  0
 22 23  1  0
 22 49  1  0
 23 24  2  0
 23 50  1  0
 24 51  1  0
 25 26  1  0
 25 36  2  0
 26 27  2  0
 26 52  1  0
 27 28  1  0
 27 53  1  0
 28 29  1  0
 28 35  2  0
 29 30  1  0
 30 31  1  0
 30 54  1  1
 30 55  1  0
 31 32  1  0
 31 56  1  6
 31 57  1  0
 32 33  1  0
 32 34  1  0
 32 66  1  1
 33 58  1  6
 33 59  1  0
 33 60  1  0
 34 61  1  6
 34 62  1  0
 34 63  1  0
 35 36  1  0
 35 64  1  0
 36 65  1  0
M  CHG  1  32   1
M  END
>  <s_epik_cmdline>  (983) 
J2VwaWtfcHl0aG9uJywgJy1waCcsICc3LjAwMDAwMCcsICctcGh0JywgJzIuMDAwMDAwJywgJy1tcycsICcxNicsICctdG4nLCAnOCcsICctbWEnLCAnMjAwJywgJy1pbWFlJywgJzxpbmZpbGUubWFlPicsICctb21hZScsICc8b3V0ZmlsZS5tYWU+Jw==

>  <s_epik_input>  (983) 
W0NIM11OKFtDSDNdKVtDSDJdW0NIMl1PYyhbY0hdW2NIXTEpW2NIXVtjSF1jMUMoPU8pW05IXWMoYyhjMjMpW2NIXVtjSF1bY0hdW2NIXTMpbltjSF1jMk4oW0NIM10pW0NASF0oQyNOKWM0W2NIXVtjSF1bY0hdW2NIXVtjSF00

>  <s_i_glide_gridfile>  (983) 
ATP-Grid

>  <s_lp_Force_Field>  (983) 
OPLS_2005

>  <s_lp_Variant>  (983) 
rxn502b____EMOL70144015____EMOL7515103____EMOL24630243-2

>  <s_lp_label>  (983) 
2621_sdstereoexpander_2_neutralizer_1_epik_1_stereoizer_1

>  <s_m_source_file>  (983) 
ATP-VSW-LIGPREP-001-in.maegz

>  <s_sd_BIOSOLVEIT.INFINISEE\_QUERY\_NAME>  (983) 
Ref-Lig

>  <s_sd_BIOSOLVEIT.INFINISEE\_QUERY\_SMILES>  (983) 
S(c1nc2c(cc1C[NH2+]Cc3ccc(cc3)C[NH+](C)C)cccc2)Cc4ccccc4

>  <s_sd_BIOSOLVEIT.INFINISEE\_REACTION\_NAME>  (983) 
rxn502b

>  <s_sd_BIOSOLVEIT.INFINISEE\_REAGENT1\_NAME>  (983) 
EMOL70144015

>  <s_sd_BIOSOLVEIT.INFINISEE\_REAGENT1\_SMILES>  (983) 
O=C(O)c1ccc(OCCN(C)C)cc1

>  <s_sd_BIOSOLVEIT.INFINISEE\_REAGENT2\_NAME>  (983) 
EMOL7515103

>  <s_sd_BIOSOLVEIT.INFINISEE\_REAGENT2\_SMILES>  (983) 
Brc1c2c(c(nc1)N)cccc2

>  <s_sd_BIOSOLVEIT.INFINISEE\_REAGENT3\_NAME>  (983) 
EMOL24630243

>  <s_sd_BIOSOLVEIT.INFINISEE\_REAGENT3\_SMILES>  (983) 
N#CC(NC)c1ccccc1

>  <s_sd_BIOSOLVEIT.INFINISEE\_SPACE>  (983) 
eXplore_7tr_2022-12

>  <s_vsw_compound_code>  (983) 
83841

>  <s_vsw_variant>  (983) 
83841-2

>  <r_epik_Charging_Adjusted_Penalty>  (983) 
0.049611777781538503

>  <r_epik_Ionization_Penalty>  (983) 
0.024899999999999999

>  <r_epik_Ionization_Penalty_Charging>  (983) 
0.024799999999999999

>  <r_epik_Ionization_Penalty_Neutral>  (983) 
0.0001

>  <r_epik_State_Penalty>  (983) 
0.024799999999999999

>  <r_i_docking_score>  (983) 
-4.3268677435331897

>  <r_i_glide_ecoul>  (983) 
-8.9936008453369105

>  <r_i_glide_eff_state_penalty>  (983) 
0.024799999999999999

>  <r_i_glide_einternal>  (983) 
9.7309246063232404

>  <r_i_glide_emodel>  (983) 
-54.740136726193803

>  <r_i_glide_energy>  (983) 
-43.989038467407198

>  <r_i_glide_erotb>  (983) 
0.79027730164020205

>  <r_i_glide_esite>  (983) 
-0.13016992075192299

>  <r_i_glide_evdw>  (983) 
-34.995437622070298

>  <r_i_glide_gscore>  (983) 
-4.3516677435331896

>  <r_i_glide_hbond>  (983) 
-0.249012815586344

>  <r_i_glide_ligand_efficiency>  (983) 
-0.1201907706537

>  <r_i_glide_ligand_efficiency_ln>  (983) 
-0.94400564318179303

>  <r_i_glide_ligand_efficiency_sa>  (983) 
-0.39686118021304201

>  <r_i_glide_lipo>  (983) 
-1.20817396713642

>  <r_i_glide_metal>  (983) 
-0

>  <r_i_glide_rewards>  (983) 
-0.45577633379464799

>  <r_lp_Energy>  (983) 
49.613031999999997

>  <r_lp_tautomer_probability>  (983) 
1

>  <r_qp_ACxDN^.5/SA>  (983) 
0.0099956000000000003

>  <r_qp_CIQPlogS>  (983) 
-6.7110000000000003

>  <r_qp_EA(eV)>  (983) 
1.194

>  <r_qp_FISA>  (983) 
117.82299999999999

>  <r_qp_FOSA>  (983) 
286.29399999999998

>  <r_qp_IP(eV)>  (983) 
8.5329999999999995

>  <r_qp_Jm>  (983) 
3.7427287150989502e-05

>  <r_qp_PISA>  (983) 
471.27100000000002

>  <r_qp_PSA>  (983) 
85.060000000000002

>  <r_qp_PercentHumanOralAbsorption>  (983) 
95.366

>  <r_qp_QPPCaco>  (983) 
188.577

>  <r_qp_QPPMDCK>  (983) 
90.182000000000002

>  <r_qp_QPlogBB>  (983) 
-1.0329999999999999

>  <r_qp_QPlogHERG>  (983) 
-8.532

>  <r_qp_QPlogKhsa>  (983) 
0.70399999999999996

>  <r_qp_QPlogKp>  (983) 
-3.133

>  <r_qp_QPlogPC16>  (983) 
17.684999999999999

>  <r_qp_QPlogPo/w>  (983) 
4.7300000000000004

>  <r_qp_QPlogPoct>  (983) 
26.202999999999999

>  <r_qp_QPlogPw>  (983) 
13.710000000000001

>  <r_qp_QPlogS>  (983) 
-6.9740000000000002

>  <r_qp_QPpolrz>  (983) 
55.372999999999998

>  <r_qp_SASA>  (983) 
875.38699999999994

>  <r_qp_SAamideO>  (983) 
0

>  <r_qp_SAfluorine>  (983) 
0

>  <r_qp_WPSA>  (983) 
0

>  <r_qp_accptHB>  (983) 
8.75

>  <r_qp_dip^2/V>  (983) 
0.1139303

>  <r_qp_dipole>  (983) 
13.44

>  <r_qp_donorHB>  (983) 
1

>  <r_qp_glob>  (983) 
0.751139

>  <r_qp_mol_MW>  (983) 
479.57999999999998

>  <r_qp_volume>  (983) 
1585.3800000000001

>  <r_sd_BIOSOLVEIT.INFINISEE\_FTREES\_SIMILARITY>  (983) 
0.91100000000000003

>  <r_sd_BIOSOLVEIT.LOGP>  (983) 
3.7114799999999999

>  <r_sd_BIOSOLVEIT.MOLECULAR\_WEIGHT>  (983) 
480.589

>  <r_sd_BIOSOLVEIT.TPSA>  (983) 
82.689999999999998

>  <i_epik_Tot_Q>  (983) 
1

>  <i_epik_Tot_abs_Q>  (983) 
1

>  <i_f3d_flags>  (983) 
0

>  <i_i_glide_confnum>  (983) 
8

>  <i_i_glide_lignum>  (983) 
1113

>  <i_i_glide_posenum>  (983) 
3

>  <i_i_glide_rotatable_bonds>  (983) 
10

>  <i_lp_mmshare_version>  (983) 
65135

>  <i_m_ct_format>  (983) 
2

>  <i_m_source_file_index>  (983) 
2621

>  <i_qp_#NandO>  (983) 
7

>  <i_qp_#acid>  (983) 
0

>  <i_qp_#amide>  (983) 
0

>  <i_qp_#amidine>  (983) 
0

>  <i_qp_#amine>  (983) 
1

>  <i_qp_#in34>  (983) 
0

>  <i_qp_#in56>  (983) 
22

>  <i_qp_#metab>  (983) 
6

>  <i_qp_#nonHatm>  (983) 
36

>  <i_qp_#noncon>  (983) 
0

>  <i_qp_#ringatoms>  (983) 
22

>  <i_qp_#rotor>  (983) 
10

>  <i_qp_#rtvFG>  (983) 
0

>  <i_qp_#stars>  (983) 
3

>  <i_qp_CNS>  (983) 
-2

>  <i_qp_HumanOralAbsorption>  (983) 
1

>  <i_qp_RuleOfFive>  (983) 
0

>  <i_qp_RuleOfThree>  (983) 
1

>  <i_sd_BIOSOLVEIT.INFINISEE\_RESULT\_RANK>  (983) 
43546

>  <i_sd_version>  (983) 
0

>  <b_lp_Chiralities_Consistent>  (983) 
1

>  <b_sd_chiral_flag>  (983) 
0

>  <canonical_id>  (983) 
ATP-HTVS-9C9650448F2C

>  <compound_code>  (983) 
83841

>  <title>  (983) 
rxn502b____EMOL70144015____EMOL7515103____EMOL24630243

>  <variant>  (983) 
83841-2

>  <source_file>  (983) 
运行/运行/ATP-VSW/ATP-VSW-DOCK_HTVS_1-001_lib/ATP-VSW-DOCK_HTVS_1-001_lib

>  <canonical_smiles>  (983) 
CN(c1cnc(NC(=O)c2ccc(OCC[NH+](C)C)cc2)c2ccccc12)[C@H](C#N)c1ccccc1

>  <scaffold>  (983) 
O=C(Nc1ncc(NCc2ccccc2)c2ccccc12)c1ccccc1

>  <molecular_formula>  (983) 
C29H30N5O2+

$$$$
ATP-HTVS-9CB3B225923C
     RDKit          3D

 51 54  0  0  0  0  0  0  0  0999 V2000
  197.1655  179.0529  155.3662 O   0  0  0  0  0  0  0  0  0  0  0  0
  198.1232  180.0780  155.2268 C   0  0  1  0  0  0  0  0  0  0  0  0
  197.4433  181.4086  154.8190 C   0  0  2  0  0  0  0  0  0  0  0  0
  196.9040  182.1150  155.9791 N   0  0  0  0  0  0  0  0  0  0  0  0
  197.6944  182.7722  156.9037 C   0  0  0  0  0  0  0  0  0  0  0  0
  197.0723  183.6745  157.6568 N   0  0  0  0  0  0  0  0  0  0  0  0
  197.8175  184.3980  158.5193 C   0  0  0  0  0  0  0  0  0  0  0  0
  199.2155  184.1758  158.6418 C   0  0  0  0  0  0  0  0  0  0  0  0
  199.7746  183.1701  157.8122 C   0  0  0  0  0  0  0  0  0  0  0  0
  198.9992  182.5016  156.9345 N   0  0  0  0  0  0  0  0  0  0  0  0
  201.1576  182.8982  157.9041 C   0  0  0  0  0  0  0  0  0  0  0  0
  201.9831  183.6281  158.7805 C   0  0  0  0  0  0  0  0  0  0  0  0
  201.4254  184.6326  159.5910 C   0  0  0  0  0  0  0  0  0  0  0  0
  200.0469  184.9004  159.5253 C   0  0  0  0  0  0  0  0  0  0  0  0
  197.0629  185.4344  159.2530 C   0  0  0  0  0  0  0  0  0  0  0  0
  195.8606  185.1139  159.9241 C   0  0  0  0  0  0  0  0  0  0  0  0
  195.1402  186.1000  160.6259 C   0  0  0  0  0  0  0  0  0  0  0  0
  195.6191  187.4202  160.6770 C   0  0  0  0  0  0  0  0  0  0  0  0
  196.8037  187.7603  160.0021 C   0  0  0  0  0  0  0  0  0  0  0  0
  197.5066  186.7767  159.2814 C   0  0  0  0  0  0  0  0  0  0  0  0
  196.3800  181.2718  153.7018 C   0  0  1  0  0  0  0  0  0  0  0  0
  196.9138  180.7929  152.3492 C   0  0  0  0  0  0  0  0  0  0  0  0
  197.3901  179.4706  152.1818 C   0  0  0  0  0  0  0  0  0  0  0  0
  197.9895  179.0607  150.9765 C   0  0  0  0  0  0  0  0  0  0  0  0
  198.0342  179.9497  149.8843 C   0  0  0  0  0  0  0  0  0  0  0  0
  197.4939  181.2470  150.0104 C   0  0  0  0  0  0  0  0  0  0  0  0
  196.9392  181.6701  151.2402 C   0  0  0  0  0  0  0  0  0  0  0  0
  198.5983  177.6763  150.8969 C   0  0  2  0  0  0  0  0  0  0  0  0
  196.8007  179.0911  156.2527 H   0  0  0  0  0  0  0  0  0  0  0  0
  198.7245  180.1186  156.1293 H   0  0  0  0  0  0  0  0  0  0  0  0
  198.8193  179.7830  154.4444 H   0  0  0  0  0  0  0  0  0  0  0  0
  198.2096  182.0764  154.4262 H   0  0  0  0  0  0  0  0  0  0  0  0
  195.9184  182.3659  155.9792 H   0  0  0  0  0  0  0  0  0  0  0  0
  201.5859  182.1246  157.2829 H   0  0  0  0  0  0  0  0  0  0  0  0
  203.0452  183.4288  158.8275 H   0  0  0  0  0  0  0  0  0  0  0  0
  202.0509  185.2088  160.2565 H   0  0  0  0  0  0  0  0  0  0  0  0
  199.6543  185.6755  160.1536 H   0  0  0  0  0  0  0  0  0  0  0  0
  195.4877  184.0973  159.8971 H   0  0  0  0  0  0  0  0  0  0  0  0
  194.2191  185.8400  161.1261 H   0  0  0  0  0  0  0  0  0  0  0  0
  195.0749  188.1813  161.2185 H   0  0  0  0  0  0  0  0  0  0  0  0
  197.1792  188.7726  160.0342 H   0  0  0  0  0  0  0  0  0  0  0  0
  198.4092  187.0598  158.7565 H   0  0  0  0  0  0  0  0  0  0  0  0
  195.5904  180.5992  154.0294 H   0  0  0  0  0  0  0  0  0  0  0  0
  195.8999  182.2362  153.5545 H   0  0  0  0  0  0  0  0  0  0  0  0
  197.3441  178.7504  152.9825 H   0  0  0  0  0  0  0  0  0  0  0  0
  198.4864  179.6383  148.9511 H   0  0  0  0  0  0  0  0  0  0  0  0
  197.5146  181.9252  149.1645 H   0  0  0  0  0  0  0  0  0  0  0  0
  196.5411  182.6748  151.3293 H   0  0  0  0  0  0  0  0  0  0  0  0
  198.7544  177.3665  149.8654 H   0  0  0  0  0  0  0  0  0  0  0  0
  197.9549  176.9434  151.3775 H   0  0  0  0  0  0  0  0  0  0  0  0
  199.5585  177.6613  151.4133 H   0  0  0  0  0  0  0  0  0  0  0  0
  1  2  1  0
  1 29  1  0
  2  3  1  0
  2 30  1  1
  2 31  1  0
  3  4  1  0
  3 21  1  0
  3 32  1  6
  4  5  1  0
  4 33  1  0
  5  6  2  0
  5 10  1  0
  6  7  1  0
  7  8  2  0
  7 15  1  0
  8  9  1  0
  8 14  1  0
  9 10  2  0
  9 11  1  0
 11 12  2  0
 11 34  1  0
 12 13  1  0
 12 35  1  0
 13 14  2  0
 13 36  1  0
 14 37  1  0
 15 16  2  0
 15 20  1  0
 16 17  1  0
 16 38  1  0
 17 18  2  0
 17 39  1  0
 18 19  1  0
 18 40  1  0
 19 20  2  0
 19 41  1  0
 20 42  1  0
 21 22  1  0
 21 43  1  1
 21 44  1  0
 22 23  1  0
 22 27  2  0
 23 24  2  0
 23 45  1  0
 24 25  1  0
 24 28  1  0
 25 26  2  0
 25 46  1  0
 26 27  1  0
 26 47  1  0
 27 48  1  0
 28 49  1  6
 28 50  1  0
 28 51  1  0
M  END
>  <s_epik_cmdline>  (984) 
J2VwaWtfcHl0aG9uJywgJy1waCcsICc3LjAwMDAwMCcsICctcGh0JywgJzIuMDAwMDAwJywgJy1tcycsICcxNicsICctdG4nLCAnOCcsICctbWEnLCAnMjAwJywgJy1pbWFlJywgJzxpbmZpbGUubWFlPicsICctb21hZScsICc8b3V0ZmlsZS5tYWU+Jw==

>  <s_epik_input>  (984) 
W2NIXTFbY0hdW2NIXWMoW0NIM10pW2NIXWMxW0NIMl1bQ0BIXShbQ0gyXVtPSF0pW05IXWMobmMoYzIzKVtjSF1bY0hdW2NIXVtjSF0zKW5jMi1jNFtjSF1bY0hdW2NIXVtjSF1bY0hdNA==

>  <s_i_glide_gridfile>  (984) 
ATP-Grid

>  <s_lp_Force_Field>  (984) 
OPLS_2005

>  <s_lp_Variant>  (984) 
m_27bjd____9173960____131187-1

>  <s_lp_label>  (984) 
1237_sdstereoexpander_1_neutralizer_1_epik_1_stereoizer_1

>  <s_m_source_file>  (984) 
ATP-VSW-LIGPREP-003-in.maegz

>  <s_sd_BIOSOLVEIT.INFINISEE\_QUERY\_NAME>  (984) 
Ref-Lig

>  <s_sd_BIOSOLVEIT.INFINISEE\_QUERY\_SMILES>  (984) 
S(c1nc2c(cc1C[NH2+]Cc3ccc(cc3)C[NH+](C)C)cccc2)Cc4ccccc4

>  <s_sd_BIOSOLVEIT.INFINISEE\_REACTION\_NAME>  (984) 
m_27bjd

>  <s_sd_BIOSOLVEIT.INFINISEE\_REAGENT1\_SMILES>  (984) 
[R1*]NC(CO)Cc1cc(ccc1)C

>  <s_sd_BIOSOLVEIT.INFINISEE\_REAGENT2\_SMILES>  (984) 
[R1*]c1nc(c2c(n1)cccc2)c3ccccc3

>  <s_sd_BIOSOLVEIT.INFINISEE\_SPACE>  (984) 
REALSpace_44bn_2023-08

>  <s_vsw_compound_code>  (984) 
39555

>  <s_vsw_variant>  (984) 
39555-1

>  <r_epik_Charging_Adjusted_Penalty>  (984) 
0.0062367673283105496

>  <r_epik_Ionization_Penalty>  (984) 
0.0061999999999999998

>  <r_epik_Ionization_Penalty_Charging>  (984) 
0

>  <r_epik_Ionization_Penalty_Neutral>  (984) 
0.0061999999999999998

>  <r_epik_State_Penalty>  (984) 
0.0061999999999999998

>  <r_i_docking_score>  (984) 
-4.2827899685834998

>  <r_i_glide_ecoul>  (984) 
-3.1879296302795401

>  <r_i_glide_eff_state_penalty>  (984) 
0.0061999999999999998

>  <r_i_glide_einternal>  (984) 
6.35129737854004

>  <r_i_glide_emodel>  (984) 
-39.426143828182603

>  <r_i_glide_energy>  (984) 
-32.825073719024701

>  <r_i_glide_erotb>  (984) 
0.84752707895998702

>  <r_i_glide_esite>  (984) 
-0.077992799688280295

>  <r_i_glide_evdw>  (984) 
-29.637144088745099

>  <r_i_glide_gscore>  (984) 
-4.2889899685834996

>  <r_i_glide_hbond>  (984) 
-0.20718956628281501

>  <r_i_glide_ligand_efficiency>  (984) 
-0.152956784592268

>  <r_i_glide_ligand_efficiency_ln>  (984) 
-0.98859367292664801

>  <r_i_glide_ligand_efficiency_sa>  (984) 
-0.46446688475054199

>  <r_i_glide_lipo>  (984) 
-2.0012352144113801

>  <r_i_glide_metal>  (984) 
-0

>  <r_i_glide_rewards>  (984) 
-0.89005281818181703

>  <r_lp_Energy>  (984) 
19.975255000000001

>  <r_qp_ACxDN^.5/SA>  (984) 
0.0094605999999999996

>  <r_qp_CIQPlogS>  (984) 
-6.2720000000000002

>  <r_qp_EA(eV)>  (984) 
0.94499999999999995

>  <r_qp_FISA>  (984) 
66.619

>  <r_qp_FOSA>  (984) 
158.00399999999999

>  <r_qp_IP(eV)>  (984) 
8.2750000000000004

>  <r_qp_Jm>  (984) 
0.98691016167566703

>  <r_qp_PISA>  (984) 
403.21499999999997

>  <r_qp_PSA>  (984) 
51.575000000000003

>  <r_qp_PercentHumanOralAbsorption>  (984) 
100

>  <r_qp_QPPCaco>  (984) 
2312.8800000000001

>  <r_qp_QPPMDCK>  (984) 
1224.4929999999999

>  <r_qp_QPlogBB>  (984) 
-0.46000000000000002

>  <r_qp_QPlogHERG>  (984) 
-5.7309999999999999

>  <r_qp_QPlogKhsa>  (984) 
0.65900000000000003

>  <r_qp_QPlogKp>  (984) 
-0.65500000000000003

>  <r_qp_QPlogPC16>  (984) 
12.954000000000001

>  <r_qp_QPlogPo/w>  (984) 
4.7679999999999998

>  <r_qp_QPlogPoct>  (984) 
18.478999999999999

>  <r_qp_QPlogPw>  (984) 
9.9480000000000004

>  <r_qp_QPlogS>  (984) 
-4.9180000000000001

>  <r_qp_QPpolrz>  (984) 
40.359000000000002

>  <r_qp_SASA>  (984) 
627.83799999999997

>  <r_qp_SAamideO>  (984) 
0

>  <r_qp_SAfluorine>  (984) 
0

>  <r_qp_WPSA>  (984) 
0

>  <r_qp_accptHB>  (984) 
4.2000000000000002

>  <r_qp_dip^2/V>  (984) 
0.00069410000000000001

>  <r_qp_dipole>  (984) 
0.90400000000000003

>  <r_qp_donorHB>  (984) 
2

>  <r_qp_glob>  (984) 
0.85933979999999999

>  <r_qp_mol_MW>  (984) 
369.46499999999997

>  <r_qp_volume>  (984) 
1178.3409999999999

>  <r_sd_BIOSOLVEIT.INFINISEE\_FTREES\_SIMILARITY>  (984) 
0.91100000000000003

>  <r_sd_BIOSOLVEIT.LOGP>  (984) 
4.6207200000000004

>  <r_sd_BIOSOLVEIT.MOLECULAR\_WEIGHT>  (984) 
369.46600000000001

>  <r_sd_BIOSOLVEIT.TPSA>  (984) 
58.039999999999999

>  <i_epik_Tot_Q>  (984) 
0

>  <i_epik_Tot_abs_Q>  (984) 
0

>  <i_f3d_flags>  (984) 
0

>  <i_i_glide_confnum>  (984) 
6

>  <i_i_glide_lignum>  (984) 
508

>  <i_i_glide_posenum>  (984) 
19

>  <i_i_glide_rotatable_bonds>  (984) 
7

>  <i_lp_mmshare_version>  (984) 
65135

>  <i_m_ct_format>  (984) 
2

>  <i_m_source_file_index>  (984) 
1237

>  <i_qp_#NandO>  (984) 
4

>  <i_qp_#acid>  (984) 
0

>  <i_qp_#amide>  (984) 
0

>  <i_qp_#amidine>  (984) 
0

>  <i_qp_#amine>  (984) 
0

>  <i_qp_#in34>  (984) 
0

>  <i_qp_#in56>  (984) 
22

>  <i_qp_#metab>  (984) 
3

>  <i_qp_#nonHatm>  (984) 
28

>  <i_qp_#noncon>  (984) 
0

>  <i_qp_#ringatoms>  (984) 
22

>  <i_qp_#rotor>  (984) 
7

>  <i_qp_#rtvFG>  (984) 
0

>  <i_qp_#stars>  (984) 
1

>  <i_qp_CNS>  (984) 
0

>  <i_qp_HumanOralAbsorption>  (984) 
3

>  <i_qp_RuleOfFive>  (984) 
0

>  <i_qp_RuleOfThree>  (984) 
0

>  <i_sd_BIOSOLVEIT.INFINISEE\_REAGENT1\_NAME>  (984) 
9173960

>  <i_sd_BIOSOLVEIT.INFINISEE\_REAGENT2\_NAME>  (984) 
131187

>  <i_sd_BIOSOLVEIT.INFINISEE\_RESULT\_RANK>  (984) 
42735

>  <i_sd_version>  (984) 
0

>  <b_lp_Chiralities_Consistent>  (984) 
1

>  <b_sd_chiral_flag>  (984) 
0

>  <canonical_id>  (984) 
ATP-HTVS-9CB3B225923C

>  <compound_code>  (984) 
39555

>  <title>  (984) 
m_27bjd____9173960____131187

>  <variant>  (984) 
39555-1

>  <source_file>  (984) 
运行/运行/ATP-VSW/ATP-VSW-DOCK_HTVS_1-003_lib/ATP-VSW-DOCK_HTVS_1-003_lib.mae

>  <canonical_smiles>  (984) 
Cc1cccc(C[C@H](CO)Nc2nc(-c3ccccc3)c3ccccc3n2)c1

>  <scaffold>  (984) 
c1ccc(CCNc2nc(-c3ccccc3)c3ccccc3n2)cc1

>  <molecular_formula>  (984) 
C24H23N3O

$$$$
ATP-HTVS-9CE7151F0CF5
     RDKit          3D

 51 54  0  0  0  0  0  0  0  0999 V2000
  199.6924  180.8357  156.4219 O   0  0  0  0  0  0  0  0  0  0  0  0
  199.5286  181.6883  155.5515 C   0  0  0  0  0  0  0  0  0  0  0  0
  198.6411  182.7047  155.5110 N   0  0  0  0  0  0  0  0  0  0  0  0
  198.7548  183.4489  154.3040 N   0  0  0  0  0  0  0  0  0  0  0  0
  199.7930  182.8702  153.5625 C   0  0  0  0  0  0  0  0  0  0  0  0
  200.2610  181.7770  154.2695 C   0  0  0  0  0  0  0  0  0  0  0  0
  201.2567  180.9290  153.7547 C   0  0  0  0  0  0  0  0  0  0  0  0
  201.7645  181.2245  152.4680 C   0  0  0  0  0  0  0  0  0  0  0  0
  201.2826  182.3394  151.7388 C   0  0  0  0  0  0  0  0  0  0  0  0
  200.2748  183.1731  152.2751 C   0  0  0  0  0  0  0  0  0  0  0  0
  197.4711  183.5647  153.5915 C   0  0  1  0  0  0  0  0  0  0  0  0
  197.0559  182.3352  152.7635 C   0  0  0  0  0  0  0  0  0  0  0  0
  196.6897  181.1433  153.4181 C   0  0  0  0  0  0  0  0  0  0  0  0
  196.3708  179.9953  152.6746 C   0  0  0  0  0  0  0  0  0  0  0  0
  196.3697  180.0353  151.2720 C   0  0  0  0  0  0  0  0  0  0  0  0
  196.7468  181.2212  150.6115 C   0  0  0  0  0  0  0  0  0  0  0  0
  197.0834  182.3704  151.3515 C   0  0  0  0  0  0  0  0  0  0  0  0
  197.8683  183.1537  156.6042 C   0  0  0  0  0  0  0  0  0  0  0  0
  196.9057  182.3081  157.1864 C   0  0  0  0  0  0  0  0  0  0  0  0
  196.1354  182.7586  158.2801 C   0  0  0  0  0  0  0  0  0  0  0  0
  196.3394  184.0616  158.7891 C   0  0  0  0  0  0  0  0  0  0  0  0
  197.3022  184.9095  158.2013 C   0  0  0  0  0  0  0  0  0  0  0  0
  198.0545  184.4607  157.1016 C   0  0  0  0  0  0  0  0  0  0  0  0
  195.0728  181.8537  158.8909 C   0  0  1  0  0  0  0  0  0  0  0  0
  193.8000  181.8900  158.1380 N   0  0  2  0  0  0  0  0  0  0  0  0
  193.1091  183.1793  158.2462 C   0  0  2  0  0  0  0  0  0  0  0  0
  192.8791  180.7916  158.4795 C   0  0  2  0  0  0  0  0  0  0  0  0
  201.5908  180.0635  154.3105 H   0  0  0  0  0  0  0  0  0  0  0  0
  202.5231  180.5880  152.0345 H   0  0  0  0  0  0  0  0  0  0  0  0
  201.6660  182.5348  150.7491 H   0  0  0  0  0  0  0  0  0  0  0  0
  199.8828  184.0069  151.7123 H   0  0  0  0  0  0  0  0  0  0  0  0
  196.6747  183.8117  154.2968 H   0  0  0  0  0  0  0  0  0  0  0  0
  197.5396  184.4276  152.9220 H   0  0  0  0  0  0  0  0  0  0  0  0
  196.6554  181.1011  154.4961 H   0  0  0  0  0  0  0  0  0  0  0  0
  196.1051  179.0835  153.1952 H   0  0  0  0  0  0  0  0  0  0  0  0
  196.0964  179.1519  150.7114 H   0  0  0  0  0  0  0  0  0  0  0  0
  196.7738  181.2455  149.5289 H   0  0  0  0  0  0  0  0  0  0  0  0
  197.3857  183.2701  150.8339 H   0  0  0  0  0  0  0  0  0  0  0  0
  196.7523  181.3074  156.8114 H   0  0  0  0  0  0  0  0  0  0  0  0
  195.7599  184.4135  159.6332 H   0  0  0  0  0  0  0  0  0  0  0  0
  197.4495  185.9054  158.6050 H   0  0  0  0  0  0  0  0  0  0  0  0
  198.7908  185.1114  156.6593 H   0  0  0  0  0  0  0  0  0  0  0  0
  195.4979  180.8665  158.9801 H   0  0  0  0  0  0  0  0  0  0  0  0
  194.8607  182.1751  159.9028 H   0  0  0  0  0  0  0  0  0  0  0  0
  192.9622  183.5019  159.2844 H   0  0  0  0  0  0  0  0  0  0  0  0
  192.1521  183.0207  157.7776 H   0  0  0  0  0  0  0  0  0  0  0  0
  193.6628  183.9565  157.7288 H   0  0  0  0  0  0  0  0  0  0  0  0
  192.5991  180.8080  159.5250 H   0  0  0  0  0  0  0  0  0  0  0  0
  193.3266  179.8389  158.2685 H   0  0  0  0  0  0  0  0  0  0  0  0
  191.9507  180.8442  157.9011 H   0  0  0  0  0  0  0  0  0  0  0  0
  194.0060  181.8072  157.1342 H   0  0  0  0  0  0  0  0  0  0  0  0
  1  2  2  0
  2  3  1  0
  2  6  1  0
  3  4  1  0
  3 18  1  0
  4  5  1  0
  4 11  1  0
  5  6  1  0
  5 10  2  0
  6  7  2  0
  7  8  1  0
  7 28  1  0
  8  9  2  0
  8 29  1  0
  9 10  1  0
  9 30  1  0
 10 31  1  0
 11 12  1  0
 11 32  1  1
 11 33  1  0
 12 13  2  0
 12 17  1  0
 13 14  1  0
 13 34  1  0
 14 15  2  0
 14 35  1  0
 15 16  1  0
 15 36  1  0
 16 17  2  0
 16 37  1  0
 17 38  1  0
 18 19  2  0
 18 23  1  0
 19 20  1  0
 19 39  1  0
 20 21  2  0
 20 24  1  0
 21 22  1  0
 21 40  1  0
 22 23  2  0
 22 41  1  0
 23 42  1  0
 24 25  1  0
 24 43  1  1
 24 44  1  0
 25 26  1  0
 25 27  1  0
 25 51  1  6
 26 45  1  1
 26 46  1  0
 26 47  1  0
 27 48  1  1
 27 49  1  0
 27 50  1  0
M  CHG  1  25   1
M  END
>  <s_epik_cmdline>  (985) 
J2VwaWtfcHl0aG9uJywgJy1waCcsICc3LjAwMDAwMCcsICctcGh0JywgJzIuMDAwMDAwJywgJy1tcycsICcxNicsICctdG4nLCAnOCcsICctbWEnLCAnMjAwJywgJy1pbWFlJywgJzxpbmZpbGUubWFlPicsICctb21hZScsICc8b3V0ZmlsZS5tYWU+Jw==

>  <s_epik_input>  (985) 
W2NIXTFbY0hdW2NIXVtjSF1jKGMxMiljKD1PKW4oLWMzW2NIXWMoW2NIXVtjSF1bY0hdMylbQ0gyXU4oW0NIM10pW0NIM10pbjJbQ0gyXWM0W2NIXVtjSF1bY0hdW2NIXVtjSF00

>  <s_i_glide_gridfile>  (985) 
ATP-Grid

>  <s_lp_Force_Field>  (985) 
OPLS_2005

>  <s_lp_Variant>  (985) 
N-ArylationHeterocycle____37094440____31229383-1

>  <s_lp_label>  (985) 
652_sdstereoexpander_1_neutralizer_1_epik_1_stereoizer_1

>  <s_m_source_file>  (985) 
ATP-VSW-LIGPREP-003-in.maegz

>  <s_sd_BIOSOLVEIT.INFINISEE\_QUERY\_NAME>  (985) 
Ref-Lig

>  <s_sd_BIOSOLVEIT.INFINISEE\_QUERY\_SMILES>  (985) 
S(c1nc2c(cc1C[NH2+]Cc3ccc(cc3)C[NH+](C)C)cccc2)Cc4ccccc4

>  <s_sd_BIOSOLVEIT.INFINISEE\_REACTION\_NAME>  (985) 
N-ArylationHeterocycle

>  <s_sd_BIOSOLVEIT.INFINISEE\_REAGENT1\_SMILES>  (985) 
OB(O)c1cc(ccc1)CN(C)C

>  <s_sd_BIOSOLVEIT.INFINISEE\_REAGENT2\_SMILES>  (985) 
O=C1NN(c2c1cccc2)Cc3ccccc3

>  <s_sd_BIOSOLVEIT.INFINISEE\_SPACE>  (985) 
KnowledgeSpace_290tr_2019-05

>  <s_vsw_compound_code>  (985) 
20835

>  <s_vsw_variant>  (985) 
20835-1

>  <r_epik_Charging_Adjusted_Penalty>  (985) 
0.114437570616907

>  <r_epik_Ionization_Penalty>  (985) 
0.057200000000000001

>  <r_epik_Ionization_Penalty_Charging>  (985) 
0.057200000000000001

>  <r_epik_Ionization_Penalty_Neutral>  (985) 
0

>  <r_epik_State_Penalty>  (985) 
0.057200000000000001

>  <r_i_docking_score>  (985) 
-3.2402495466166501

>  <r_i_glide_ecoul>  (985) 
-5.9362854957580602

>  <r_i_glide_eff_state_penalty>  (985) 
0.057200000000000001

>  <r_i_glide_einternal>  (985) 
2.6790676116943399

>  <r_i_glide_emodel>  (985) 
-36.316290639489303

>  <r_i_glide_energy>  (985) 
-28.9839844703674

>  <r_i_glide_erotb>  (985) 
0.596337630261489

>  <r_i_glide_esite>  (985) 
-0.10472244515074799

>  <r_i_glide_evdw>  (985) 
-23.0476989746094

>  <r_i_glide_gscore>  (985) 
-3.29744954661665

>  <r_i_glide_hbond>  (985) 
-0.14056187628667799

>  <r_i_glide_ligand_efficiency>  (985) 
-0.12000924246728301

>  <r_i_glide_ligand_efficiency_ln>  (985) 
-0.75427667476360505

>  <r_i_glide_ligand_efficiency_sa>  (985) 
-0.36002772700632002

>  <r_i_glide_lipo>  (985) 
-0.64060344598290397

>  <r_i_glide_metal>  (985) 
-0

>  <r_i_glide_rewards>  (985) 
-0.96507163636363502

>  <r_lp_Energy>  (985) 
46.654995999999997

>  <r_qp_ACxDN^.5/SA>  (985) 
0

>  <r_qp_CIQPlogS>  (985) 
-4.0919999999999996

>  <r_qp_EA(eV)>  (985) 
0.439

>  <r_qp_FISA>  (985) 
44.396999999999998

>  <r_qp_FOSA>  (985) 
203.202

>  <r_qp_IP(eV)>  (985) 
8.7140000000000004

>  <r_qp_Jm>  (985) 
0.358094291330943

>  <r_qp_PISA>  (985) 
394.49799999999999

>  <r_qp_PSA>  (985) 
39.768000000000001

>  <r_qp_PercentHumanOralAbsorption>  (985) 
100

>  <r_qp_QPPCaco>  (985) 
937.10199999999998

>  <r_qp_QPPMDCK>  (985) 
510.19299999999998

>  <r_qp_QPlogBB>  (985) 
0.30399999999999999

>  <r_qp_QPlogHERG>  (985) 
-6.6799999999999997

>  <r_qp_QPlogKhsa>  (985) 
0.28100000000000003

>  <r_qp_QPlogKp>  (985) 
-2.6269999999999998

>  <r_qp_QPlogPC16>  (985) 
12.317

>  <r_qp_QPlogPo/w>  (985) 
3.726

>  <r_qp_QPlogPoct>  (985) 
17.433

>  <r_qp_QPlogPw>  (985) 
9.2769999999999992

>  <r_qp_QPlogS>  (985) 
-3.3730000000000002

>  <r_qp_QPpolrz>  (985) 
42.435000000000002

>  <r_qp_SASA>  (985) 
642.09699999999998

>  <r_qp_SAamideO>  (985) 
0

>  <r_qp_SAfluorine>  (985) 
0

>  <r_qp_WPSA>  (985) 
0

>  <r_qp_accptHB>  (985) 
6

>  <r_qp_dip^2/V>  (985) 
0.0186465

>  <r_qp_dipole>  (985) 
4.6989999999999998

>  <r_qp_donorHB>  (985) 
0

>  <r_qp_glob>  (985) 
0.84302469999999996

>  <r_qp_mol_MW>  (985) 
357.45400000000001

>  <r_qp_volume>  (985) 
1184.1679999999999

>  <r_sd_BIOSOLVEIT.INFINISEE\_FTREES\_SIMILARITY>  (985) 
0.90500000000000003

>  <r_sd_BIOSOLVEIT.LOGP>  (985) 
2.4849999999999999

>  <r_sd_BIOSOLVEIT.MOLECULAR\_WEIGHT>  (985) 
358.46300000000002

>  <r_sd_BIOSOLVEIT.TPSA>  (985) 
31.370000000000001

>  <i_epik_Tot_Q>  (985) 
1

>  <i_epik_Tot_abs_Q>  (985) 
1

>  <i_f3d_flags>  (985) 
0

>  <i_i_glide_confnum>  (985) 
3

>  <i_i_glide_lignum>  (985) 
281

>  <i_i_glide_posenum>  (985) 
11

>  <i_i_glide_rotatable_bonds>  (985) 
5

>  <i_lp_mmshare_version>  (985) 
65135

>  <i_m_ct_format>  (985) 
2

>  <i_m_source_file_index>  (985) 
652

>  <i_qp_#NandO>  (985) 
4

>  <i_qp_#acid>  (985) 
0

>  <i_qp_#amide>  (985) 
0

>  <i_qp_#amidine>  (985) 
0

>  <i_qp_#amine>  (985) 
1

>  <i_qp_#in34>  (985) 
0

>  <i_qp_#in56>  (985) 
21

>  <i_qp_#metab>  (985) 
3

>  <i_qp_#nonHatm>  (985) 
27

>  <i_qp_#noncon>  (985) 
0

>  <i_qp_#ringatoms>  (985) 
21

>  <i_qp_#rotor>  (985) 
4

>  <i_qp_#rtvFG>  (985) 
1

>  <i_qp_#stars>  (985) 
0

>  <i_qp_CNS>  (985) 
1

>  <i_qp_HumanOralAbsorption>  (985) 
3

>  <i_qp_RuleOfFive>  (985) 
0

>  <i_qp_RuleOfThree>  (985) 
0

>  <i_sd_BIOSOLVEIT.INFINISEE\_REAGENT1\_NAME>  (985) 
37094440

>  <i_sd_BIOSOLVEIT.INFINISEE\_REAGENT2\_NAME>  (985) 
31229383

>  <i_sd_BIOSOLVEIT.INFINISEE\_RESULT\_RANK>  (985) 
71198

>  <i_sd_version>  (985) 
0

>  <b_lp_Chiralities_Consistent>  (985) 
1

>  <b_sd_chiral_flag>  (985) 
0

>  <canonical_id>  (985) 
ATP-HTVS-9CE7151F0CF5

>  <compound_code>  (985) 
20835

>  <title>  (985) 
N-ArylationHeterocycle____37094440____31229383

>  <variant>  (985) 
20835-1

>  <source_file>  (985) 
运行/运行/ATP-VSW/ATP-VSW-DOCK_HTVS_1-003_lib/ATP-VSW-DOCK_HTVS_1-003_lib.mae

>  <canonical_smiles>  (985) 
C[NH+](C)Cc1cccc(-n2c(=O)c3ccccc3n2Cc2ccccc2)c1

>  <scaffold>  (985) 
O=c1c2ccccc2n(Cc2ccccc2)n1-c1ccccc1

>  <molecular_formula>  (985) 
C23H24N3O+

$$$$
ATP-HTVS-9D3CA67459E0
     RDKit          3D

 73 76  0  0  0  0  0  0  0  0999 V2000
  200.0252  178.2268  152.2348 O   0  0  0  0  0  0  0  0  0  0  0  0
  200.2451  177.4885  153.1858 C   0  0  0  0  0  0  0  0  0  0  0  0
  200.8517  176.1435  153.0884 C   0  0  0  0  0  0  0  0  0  0  0  0
  201.5955  175.3905  154.0874 C   0  0  0  0  0  0  0  0  0  0  0  0
  202.0634  174.1821  153.4771 C   0  0  0  0  0  0  0  0  0  0  0  0
  201.5885  174.1806  152.1653 N   0  0  0  0  0  0  0  0  0  0  0  0
  200.8765  175.3663  151.9378 C   0  0  0  0  0  0  0  0  0  0  0  0
  200.2858  175.6398  150.6177 C   0  0  0  0  0  0  0  0  0  0  0  0
  201.0775  175.6079  149.4401 C   0  0  0  0  0  0  0  0  0  0  0  0
  200.5093  175.8309  148.1780 C   0  0  0  0  0  0  0  0  0  0  0  0
  199.1353  176.1317  148.0579 C   0  0  0  0  0  0  0  0  0  0  0  0
  198.3478  176.2058  149.2191 C   0  0  0  0  0  0  0  0  0  0  0  0
  198.9167  175.9517  150.4841 C   0  0  0  0  0  0  0  0  0  0  0  0
  201.8626  173.1147  151.1997 C   0  0  1  0  0  0  0  0  0  0  0  0
  201.2890  171.7651  151.6452 C   0  0  2  0  0  0  0  0  0  0  0  0
  202.8570  173.2570  154.1794 C   0  0  0  0  0  0  0  0  0  0  0  0
  203.1859  173.4886  155.5250 C   0  0  0  0  0  0  0  0  0  0  0  0
  202.7474  174.6626  156.1556 C   0  0  0  0  0  0  0  0  0  0  0  0
  201.9686  175.6026  155.4500 C   0  0  0  0  0  0  0  0  0  0  0  0
  199.9053  177.9914  154.5988 C   0  0  1  0  0  0  0  0  0  0  0  0
  199.3517  179.3479  154.7396 N   0  0  0  0  0  0  0  0  0  0  0  0
  199.0958  179.6450  156.1678 C   0  0  1  0  0  0  0  0  0  0  0  0
  198.6891  181.0820  156.4295 C   0  0  0  0  0  0  0  0  0  0  0  0
  197.3222  181.4192  156.5064 C   0  0  0  0  0  0  0  0  0  0  0  0
  196.9314  182.7538  156.7036 C   0  0  0  0  0  0  0  0  0  0  0  0
  197.9031  183.7571  156.8992 C   0  0  0  0  0  0  0  0  0  0  0  0
  199.2681  183.4173  156.8265 C   0  0  0  0  0  0  0  0  0  0  0  0
  199.6633  182.0806  156.5779 C   0  0  0  0  0  0  0  0  0  0  0  0
  197.4807  185.1960  157.1607 C   0  0  1  0  0  0  0  0  0  0  0  0
  197.0088  185.4951  158.5253 N   0  0  0  0  0  0  0  0  0  0  0  0
  195.7947  184.7312  158.8932 C   0  0  1  0  0  0  0  0  0  0  0  0
  195.4561  184.6475  160.3964 C   0  0  1  0  0  0  0  0  0  0  0  0
  195.4162  185.8851  161.0831 O   0  0  0  0  0  0  0  0  0  0  0  0
  194.4111  186.7793  160.6106 C   0  0  2  0  0  0  0  0  0  0  0  0
  196.8191  186.9456  158.6421 C   0  0  2  0  0  0  0  0  0  0  0  0
  198.1531  179.5511  153.9214 C   0  0  2  0  0  0  0  0  0  0  0  0
  202.1366  175.4030  149.5103 H   0  0  0  0  0  0  0  0  0  0  0  0
  201.1183  175.7521  147.2847 H   0  0  0  0  0  0  0  0  0  0  0  0
  198.6928  176.2963  147.0853 H   0  0  0  0  0  0  0  0  0  0  0  0
  197.2978  176.4506  149.1338 H   0  0  0  0  0  0  0  0  0  0  0  0
  198.2833  175.9974  151.3628 H   0  0  0  0  0  0  0  0  0  0  0  0
  201.4075  173.3300  150.2313 H   0  0  0  0  0  0  0  0  0  0  0  0
  202.9450  173.0623  151.0405 H   0  0  0  0  0  0  0  0  0  0  0  0
  201.4793  171.0311  150.8661 H   0  0  0  0  0  0  0  0  0  0  0  0
  200.2120  171.8540  151.7863 H   0  0  0  0  0  0  0  0  0  0  0  0
  201.7210  171.3952  152.5748 H   0  0  0  0  0  0  0  0  0  0  0  0
  203.2166  172.3524  153.7052 H   0  0  0  0  0  0  0  0  0  0  0  0
  203.7736  172.7577  156.0677 H   0  0  0  0  0  0  0  0  0  0  0  0
  203.0215  174.8584  157.1824 H   0  0  0  0  0  0  0  0  0  0  0  0
  201.6848  176.4959  155.9852 H   0  0  0  0  0  0  0  0  0  0  0  0
  199.2188  177.2796  155.0630 H   0  0  0  0  0  0  0  0  0  0  0  0
  200.8259  177.9864  155.1788 H   0  0  0  0  0  0  0  0  0  0  0  0
  198.3328  179.0000  156.6064 H   0  0  0  0  0  0  0  0  0  0  0  0
  199.9781  179.4239  156.7629 H   0  0  0  0  0  0  0  0  0  0  0  0
  196.5583  180.6629  156.3987 H   0  0  0  0  0  0  0  0  0  0  0  0
  195.8760  183.0060  156.7247 H   0  0  0  0  0  0  0  0  0  0  0  0
  200.0283  184.1797  156.9531 H   0  0  0  0  0  0  0  0  0  0  0  0
  200.7146  181.8354  156.4931 H   0  0  0  0  0  0  0  0  0  0  0  0
  198.3485  185.8177  156.9484 H   0  0  0  0  0  0  0  0  0  0  0  0
  196.7272  185.4794  156.4295 H   0  0  0  0  0  0  0  0  0  0  0  0
  194.9394  185.1273  158.3376 H   0  0  0  0  0  0  0  0  0  0  0  0
  195.8852  183.6870  158.6016 H   0  0  0  0  0  0  0  0  0  0  0  0
  194.5099  184.1214  160.5081 H   0  0  0  0  0  0  0  0  0  0  0  0
  196.2004  184.0096  160.8646 H   0  0  0  0  0  0  0  0  0  0  0  0
  194.5196  187.7091  161.1693 H   0  0  0  0  0  0  0  0  0  0  0  0
  193.4257  186.3943  160.7807 H   0  0  0  0  0  0  0  0  0  0  0  0
  194.6378  187.0159  159.5607 H   0  0  0  0  0  0  0  0  0  0  0  0
  197.6991  187.4802  158.2962 H   0  0  0  0  0  0  0  0  0  0  0  0
  196.4904  187.2480  159.6356 H   0  0  0  0  0  0  0  0  0  0  0  0
  196.0043  187.2570  157.9666 H   0  0  0  0  0  0  0  0  0  0  0  0
  198.3194  179.3856  152.8741 H   0  0  0  0  0  0  0  0  0  0  0  0
  197.7754  180.5772  154.0517 H   0  0  0  0  0  0  0  0  0  0  0  0
  197.3646  178.8779  154.2864 H   0  0  0  0  0  0  0  0  0  0  0  0
  1  2  2  0
  2  3  1  0
  2 20  1  0
  3  4  1  0
  3  7  2  0
  4  5  1  0
  4 19  2  0
  5  6  1  0
  5 16  2  0
  6  7  1  0
  6 14  1  0
  7  8  1  0
  8  9  2  0
  8 13  1  0
  9 10  1  0
  9 37  1  0
 10 11  2  0
 10 38  1  0
 11 12  1  0
 11 39  1  0
 12 13  2  0
 12 40  1  0
 13 41  1  0
 14 15  1  0
 14 42  1  6
 14 43  1  0
 15 44  1  6
 15 45  1  0
 15 46  1  0
 16 17  1  0
 16 47  1  0
 17 18  2  0
 17 48  1  0
 18 19  1  0
 18 49  1  0
 19 50  1  0
 20 21  1  0
 20 51  1  1
 20 52  1  0
 21 22  1  0
 21 36  1  0
 22 23  1  0
 22 53  1  1
 22 54  1  0
 23 24  1  0
 23 28  2  0
 24 25  2  0
 24 55  1  0
 25 26  1  0
 25 56  1  0
 26 27  2  0
 26 29  1  0
 27 28  1  0
 27 57  1  0
 28 58  1  0
 29 30  1  0
 29 59  1  6
 29 60  1  0
 30 31  1  0
 30 35  1  0
 31 32  1  0
 31 61  1  6
 31 62  1  0
 32 33  1  0
 32 63  1  6
 32 64  1  0
 33 34  1  0
 34 65  1  1
 34 66  1  0
 34 67  1  0
 35 68  1  6
 35 69  1  0
 35 70  1  0
 36 71  1  6
 36 72  1  0
 36 73  1  0
M  END
>  <s_epik_cmdline>  (986) 
J2VwaWtfcHl0aG9uJywgJy1waCcsICc3LjAwMDAwMCcsICctcGh0JywgJzIuMDAwMDAwJywgJy1tcycsICcxNicsICctdG4nLCAnOCcsICctbWEnLCAnMjAwJywgJy1pbWFlJywgJzxpbmZpbGUubWFlPicsICctb21hZScsICc8b3V0ZmlsZS5tYWU+Jw==

>  <s_epik_input>  (986) 
W2NIXTFbY0hdW2NIXVtjSF1bY0hdYzEtYyhuKFtDSDJdW0NIM10pYyhjMjMpW2NIXVtjSF1bY0hdW2NIXTMpYzJDKD1PKVtDSDJdTihbQ0gzXSlbQ0gyXWM0W2NIXVtjSF1jKFtjSF1bY0hdNClbQ0gyXU4oW0NIM10pW0NIMl1bQ0gyXU9bQ0gzXQ==

>  <s_i_glide_gridfile>  (986) 
ATP-Grid

>  <s_lp_Force_Field>  (986) 
OPLS_2005

>  <s_lp_Variant>  (986) 
m_2230bbc____17609644____7465806-7

>  <s_lp_label>  (986) 
2118_sdstereoexpander_1_neutralizer_1_epik_3_stereoizer_1

>  <s_m_source_file>  (986) 
ATP-VSW-LIGPREP-002-in.maegz

>  <s_sd_BIOSOLVEIT.INFINISEE\_QUERY\_NAME>  (986) 
Ref-Lig

>  <s_sd_BIOSOLVEIT.INFINISEE\_QUERY\_SMILES>  (986) 
S(c1nc2c(cc1C[NH2+]Cc3ccc(cc3)C[NH+](C)C)cccc2)Cc4ccccc4

>  <s_sd_BIOSOLVEIT.INFINISEE\_REACTION\_NAME>  (986) 
m_2230bbc

>  <s_sd_BIOSOLVEIT.INFINISEE\_REAGENT1\_SMILES>  (986) 
[R1*]N(Cc1ccc(cc1)CN(CCOC)C)C

>  <s_sd_BIOSOLVEIT.INFINISEE\_REAGENT2\_SMILES>  (986) 
[R1*]CC(=O)C=1c2c(N(C1c3ccccc3)CC)cccc2

>  <s_sd_BIOSOLVEIT.INFINISEE\_SPACE>  (986) 
REALSpace_44bn_2023-08

>  <s_vsw_compound_code>  (986) 
67746

>  <s_vsw_variant>  (986) 
67746-7

>  <r_epik_Charging_Adjusted_Penalty>  (986) 
1.22864075530504

>  <r_epik_Ionization_Penalty>  (986) 
1.2431000000000001

>  <r_epik_Ionization_Penalty_Charging>  (986) 
0

>  <r_epik_Ionization_Penalty_Neutral>  (986) 
1.2431000000000001

>  <r_epik_State_Penalty>  (986) 
1.2285999999999999

>  <r_i_docking_score>  (986) 
-2.8621206625713902

>  <r_i_glide_ecoul>  (986) 
-4.0148000717163104

>  <r_i_glide_eff_state_penalty>  (986) 
1.2285999999999999

>  <r_i_glide_einternal>  (986) 
4.6765513420104998

>  <r_i_glide_emodel>  (986) 
-52.9551411895564

>  <r_i_glide_energy>  (986) 
-43.651869773864703

>  <r_i_glide_erotb>  (986) 
0.86794385112783901

>  <r_i_glide_esite>  (986) 
0

>  <r_i_glide_evdw>  (986) 
-39.637069702148402

>  <r_i_glide_gscore>  (986) 
-4.0907206625713899

>  <r_i_glide_hbond>  (986) 
0

>  <r_i_glide_ligand_efficiency>  (986) 
-0.079503351738094294

>  <r_i_glide_ligand_efficiency_ln>  (986) 
-0.62443740300884598

>  <r_i_glide_ligand_efficiency_sa>  (986) 
-0.26251428316889303

>  <r_i_glide_lipo>  (986) 
-2.1651869856696999

>  <r_i_glide_metal>  (986) 
-0

>  <r_i_glide_rewards>  (986) 
-0.20940403216466499

>  <r_lp_Energy>  (986) 
45.384771999999998

>  <r_lp_tautomer_probability>  (986) 
0.99990000499974996

>  <r_qp_ACxDN^.5/SA>  (986) 
0

>  <r_qp_CIQPlogS>  (986) 
-4.9349999999999996

>  <r_qp_EA(eV)>  (986) 
0.32100000000000001

>  <r_qp_FISA>  (986) 
19.719000000000001

>  <r_qp_FOSA>  (986) 
415.47800000000001

>  <r_qp_IP(eV)>  (986) 
8.5090000000000003

>  <r_qp_Jm>  (986) 
0.34290435527943097

>  <r_qp_PISA>  (986) 
323.75700000000001

>  <r_qp_PSA>  (986) 
41.423999999999999

>  <r_qp_PercentHumanOralAbsorption>  (986) 
100

>  <r_qp_QPPCaco>  (986) 
400.59800000000001

>  <r_qp_QPPMDCK>  (986) 
225.25999999999999

>  <r_qp_QPlogBB>  (986) 
0.51400000000000001

>  <r_qp_QPlogHERG>  (986) 
-7.0259999999999998

>  <r_qp_QPlogKhsa>  (986) 
0.52900000000000003

>  <r_qp_QPlogKp>  (986) 
-3.8119999999999998

>  <r_qp_QPlogPC16>  (986) 
14.664999999999999

>  <r_qp_QPlogPo/w>  (986) 
4.7080000000000002

>  <r_qp_QPlogPoct>  (986) 
21.082999999999998

>  <r_qp_QPlogPw>  (986) 
9.0399999999999991

>  <r_qp_QPlogS>  (986) 
-2.3380000000000001

>  <r_qp_QPpolrz>  (986) 
51.058

>  <r_qp_SASA>  (986) 
758.95399999999995

>  <r_qp_SAamideO>  (986) 
0

>  <r_qp_SAfluorine>  (986) 
0

>  <r_qp_WPSA>  (986) 
0

>  <r_qp_accptHB>  (986) 
7.7000000000000002

>  <r_qp_dip^2/V>  (986) 
0.020154499999999999

>  <r_qp_dipole>  (986) 
5.5510000000000002

>  <r_qp_donorHB>  (986) 
0

>  <r_qp_glob>  (986) 
0.84564550000000005

>  <r_qp_mol_MW>  (986) 
483.65199999999999

>  <r_qp_volume>  (986) 
1528.826

>  <r_sd_BIOSOLVEIT.INFINISEE\_FTREES\_SIMILARITY>  (986) 
0.90100000000000002

>  <r_sd_BIOSOLVEIT.LOGP>  (986) 
2.8868999999999998

>  <r_sd_BIOSOLVEIT.MOLECULAR\_WEIGHT>  (986) 
485.66800000000001

>  <r_sd_BIOSOLVEIT.TPSA>  (986) 
40.109999999999999

>  <i_epik_Tot_Q>  (986) 
0

>  <i_epik_Tot_abs_Q>  (986) 
0

>  <i_f3d_flags>  (986) 
0

>  <i_i_glide_confnum>  (986) 
7

>  <i_i_glide_lignum>  (986) 
762

>  <i_i_glide_posenum>  (986) 
1

>  <i_i_glide_rotatable_bonds>  (986) 
12

>  <i_lp_mmshare_version>  (986) 
65135

>  <i_m_ct_format>  (986) 
2

>  <i_m_source_file_index>  (986) 
2118

>  <i_qp_#NandO>  (986) 
5

>  <i_qp_#acid>  (986) 
0

>  <i_qp_#amide>  (986) 
0

>  <i_qp_#amidine>  (986) 
0

>  <i_qp_#amine>  (986) 
2

>  <i_qp_#in34>  (986) 
0

>  <i_qp_#in56>  (986) 
21

>  <i_qp_#metab>  (986) 
6

>  <i_qp_#nonHatm>  (986) 
36

>  <i_qp_#noncon>  (986) 
0

>  <i_qp_#ringatoms>  (986) 
21

>  <i_qp_#rotor>  (986) 
11

>  <i_qp_#rtvFG>  (986) 
0

>  <i_qp_#stars>  (986) 
0

>  <i_qp_CNS>  (986) 
2

>  <i_qp_HumanOralAbsorption>  (986) 
3

>  <i_qp_RuleOfFive>  (986) 
0

>  <i_qp_RuleOfThree>  (986) 
0

>  <i_sd_BIOSOLVEIT.INFINISEE\_REAGENT1\_NAME>  (986) 
17609644

>  <i_sd_BIOSOLVEIT.INFINISEE\_REAGENT2\_NAME>  (986) 
7465806

>  <i_sd_BIOSOLVEIT.INFINISEE\_RESULT\_RANK>  (986) 
98388

>  <i_sd_version>  (986) 
0

>  <b_lp_Chiralities_Consistent>  (986) 
1

>  <b_sd_chiral_flag>  (986) 
0

>  <canonical_id>  (986) 
ATP-HTVS-9D3CA67459E0

>  <compound_code>  (986) 
67746

>  <title>  (986) 
m_2230bbc____17609644____7465806

>  <variant>  (986) 
67746-7

>  <source_file>  (986) 
运行/运行/ATP-VSW/ATP-VSW-DOCK_HTVS_1-002_lib.maegz

>  <canonical_smiles>  (986) 
CCn1c(-c2ccccc2)c(C(=O)CN(C)Cc2ccc(CN(C)CCOC)cc2)c2ccccc21

>  <scaffold>  (986) 
O=C(CNCc1ccccc1)c1c(-c2ccccc2)[nH]c2ccccc12

>  <molecular_formula>  (986) 
C31H37N3O2

$$$$
ATP-HTVS-9D856A339FA1
     RDKit          3D

 59 62  0  0  0  0  0  0  0  0999 V2000
  200.8331  175.9459  149.5667 O   0  0  0  0  0  0  0  0  0  0  0  0
  201.1852  176.2789  150.8919 C   0  0  1  0  0  0  0  0  0  0  0  0
  200.0591  175.8423  151.8544 C   0  0  1  0  0  0  0  0  0  0  0  0
  200.3344  176.2390  153.2413 N   0  0  0  0  0  0  0  0  0  0  0  0
  201.2228  175.5237  154.0769 C   0  0  0  0  0  0  0  0  0  0  0  0
  201.2798  175.8325  155.4631 C   0  0  0  0  0  0  0  0  0  0  0  0
  202.1787  175.1077  156.2847 C   0  0  0  0  0  0  0  0  0  0  0  0
  203.0010  174.0968  155.7565 C   0  0  0  0  0  0  0  0  0  0  0  0
  202.9305  173.7977  154.3812 C   0  0  0  0  0  0  0  0  0  0  0  0
  202.0373  174.5034  153.5507 C   0  0  0  0  0  0  0  0  0  0  0  0
  200.4004  176.8850  156.1379 C   0  0  1  0  0  0  0  0  0  0  0  0
  201.0465  178.1905  156.2558 N   0  0  0  0  0  0  0  0  0  0  0  0
  200.1137  179.2443  156.6629 C   0  0  1  0  0  0  0  0  0  0  0  0
  199.1906  179.6871  155.5316 C   0  0  0  0  0  0  0  0  0  0  0  0
  198.1877  180.7075  155.5442 C   0  0  0  0  0  0  0  0  0  0  0  0
  197.5280  180.7649  154.3963 N   0  0  0  0  0  0  0  0  0  0  0  0
  198.1105  179.8418  153.5983 N   0  0  0  0  0  0  0  0  0  0  0  0
  197.6678  179.6087  152.2769 C   0  0  0  0  0  0  0  0  0  0  0  0
  196.4476  180.1521  151.8008 C   0  0  0  0  0  0  0  0  0  0  0  0
  196.0124  179.8977  150.4814 C   0  0  0  0  0  0  0  0  0  0  0  0
  196.7762  179.0695  149.6295 C   0  0  0  0  0  0  0  0  0  0  0  0
  197.9800  178.5114  150.1058 C   0  0  0  0  0  0  0  0  0  0  0  0
  198.4414  178.7975  151.4059 C   0  0  0  0  0  0  0  0  0  0  0  0
  199.1253  179.2027  154.2622 C   0  0  0  0  0  0  0  0  0  0  0  0
  197.8418  181.6499  156.6018 C   0  0  0  0  0  0  0  0  0  0  0  0
  198.8478  182.3290  157.3219 C   0  0  0  0  0  0  0  0  0  0  0  0
  198.4949  183.2214  158.3488 C   0  0  0  0  0  0  0  0  0  0  0  0
  197.1358  183.4404  158.6563 C   0  0  0  0  0  0  0  0  0  0  0  0
  196.1305  182.7657  157.9320 C   0  0  0  0  0  0  0  0  0  0  0  0
  196.4847  181.8711  156.9103 C   0  0  0  0  0  0  0  0  0  0  0  0
  196.7528  184.3942  159.7560 C   0  0  2  0  0  0  0  0  0  0  0  0
  201.8070  178.1432  156.9256 H   0  0  0  0  0  0  0  0  0  0  0  0
  200.0396  176.4020  149.3255 H   0  0  0  0  0  0  0  0  0  0  0  0
  202.1471  175.8180  151.1120 H   0  0  0  0  0  0  0  0  0  0  0  0
  201.3414  177.3517  150.9378 H   0  0  0  0  0  0  0  0  0  0  0  0
  199.1407  176.3425  151.5829 H   0  0  0  0  0  0  0  0  0  0  0  0
  199.9151  174.7502  151.8043 H   0  0  0  0  0  0  0  0  0  0  0  0
  199.7529  176.9448  153.6622 H   0  0  0  0  0  0  0  0  0  0  0  0
  202.2122  175.3320  157.3439 H   0  0  0  0  0  0  0  0  0  0  0  0
  203.6557  173.5343  156.4130 H   0  0  0  0  0  0  0  0  0  0  0  0
  203.5576  173.0107  153.9631 H   0  0  0  0  0  0  0  0  0  0  0  0
  202.0061  174.2239  152.5012 H   0  0  0  0  0  0  0  0  0  0  0  0
  199.4686  176.9791  155.5835 H   0  0  0  0  0  0  0  0  0  0  0  0
  200.1283  176.5587  157.1401 H   0  0  0  0  0  0  0  0  0  0  0  0
  199.5667  178.8980  157.5410 H   0  0  0  0  0  0  0  0  0  0  0  0
  200.7357  180.0760  157.0136 H   0  0  0  0  0  0  0  0  0  0  0  0
  195.8408  180.7845  152.4345 H   0  0  0  0  0  0  0  0  0  0  0  0
  195.1113  180.3634  150.1111 H   0  0  0  0  0  0  0  0  0  0  0  0
  196.4453  178.8715  148.6157 H   0  0  0  0  0  0  0  0  0  0  0  0
  198.5533  177.8654  149.4503 H   0  0  0  0  0  0  0  0  0  0  0  0
  199.3876  178.3625  151.6971 H   0  0  0  0  0  0  0  0  0  0  0  0
  199.7323  178.4503  153.8067 H   0  0  0  0  0  0  0  0  0  0  0  0
  199.8903  182.1586  157.0856 H   0  0  0  0  0  0  0  0  0  0  0  0
  199.2750  183.7285  158.8959 H   0  0  0  0  0  0  0  0  0  0  0  0
  195.0813  182.9172  158.1446 H   0  0  0  0  0  0  0  0  0  0  0  0
  195.7149  181.3457  156.3557 H   0  0  0  0  0  0  0  0  0  0  0  0
  195.8172  184.0876  160.2217 H   0  0  0  0  0  0  0  0  0  0  0  0
  196.6277  185.3945  159.3453 H   0  0  0  0  0  0  0  0  0  0  0  0
  197.5222  184.4238  160.5248 H   0  0  0  0  0  0  0  0  0  0  0  0
  1  2  1  0
  1 33  1  0
  2  3  1  0
  2 34  1  1
  2 35  1  0
  3  4  1  0
  3 36  1  6
  3 37  1  0
  4  5  1  0
  4 38  1  0
  5  6  1  0
  5 10  2  0
  6  7  2  0
  6 11  1  0
  7  8  1  0
  7 39  1  0
  8  9  2  0
  8 40  1  0
  9 10  1  0
  9 41  1  0
 10 42  1  0
 11 12  1  0
 11 43  1  6
 11 44  1  0
 12 13  1  0
 12 32  1  0
 13 14  1  0
 13 45  1  1
 13 46  1  0
 14 15  1  0
 14 24  2  0
 15 16  2  0
 15 25  1  0
 16 17  1  0
 17 18  1  0
 17 24  1  0
 18 19  2  0
 18 23  1  0
 19 20  1  0
 19 47  1  0
 20 21  2  0
 20 48  1  0
 21 22  1  0
 21 49  1  0
 22 23  2  0
 22 50  1  0
 23 51  1  0
 24 52  1  0
 25 26  1  0
 25 30  2  0
 26 27  2  0
 26 53  1  0
 27 28  1  0
 27 54  1  0
 28 29  2  0
 28 31  1  0
 29 30  1  0
 29 55  1  0
 30 56  1  0
 31 57  1  1
 31 58  1  0
 31 59  1  0
M  END
>  <s_epik_cmdline>  (987) 
J2VwaWtfcHl0aG9uJywgJy1waCcsICc3LjAwMDAwMCcsICctcGh0JywgJzIuMDAwMDAwJywgJy1tcycsICcxNicsICctdG4nLCAnOCcsICctbWEnLCAnMjAwJywgJy1pbWFlJywgJzxpbmZpbGUubWFlPicsICctb21hZScsICc8b3V0ZmlsZS5tYWU+Jw==

>  <s_epik_input>  (987) 
W09IXVtDSDJdW0NIMl1bTkhdYzFjKFtjSF1bY0hdW2NIXVtjSF0xKVtDSDJdW05IXVtDSDJdYzJjKC1jM1tjSF1bY0hdYyhbQ0gzXSlbY0hdW2NIXTMpbm4oW2NIXTIpLWM0W2NIXVtjSF1bY0hdW2NIXVtjSF00

>  <s_i_glide_gridfile>  (987) 
ATP-Grid

>  <s_lp_Force_Field>  (987) 
OPLS_2005

>  <s_lp_Variant>  (987) 
m_270004bbb____25289968____7547744-2

>  <s_lp_label>  (987) 
740_sdstereoexpander_1_neutralizer_1_epik_2_stereoizer_1

>  <s_m_source_file>  (987) 
ATP-VSW-LIGPREP-002-in.maegz

>  <s_sd_BIOSOLVEIT.INFINISEE\_QUERY\_NAME>  (987) 
Ref-Lig

>  <s_sd_BIOSOLVEIT.INFINISEE\_QUERY\_SMILES>  (987) 
S(c1nc2c(cc1C[NH2+]Cc3ccc(cc3)C[NH+](C)C)cccc2)Cc4ccccc4

>  <s_sd_BIOSOLVEIT.INFINISEE\_REACTION\_NAME>  (987) 
m_270004bbb

>  <s_sd_BIOSOLVEIT.INFINISEE\_REAGENT1\_SMILES>  (987) 
[R1*]NCc1c(NCCO)cccc1

>  <s_sd_BIOSOLVEIT.INFINISEE\_REAGENT2\_SMILES>  (987) 
[R1*]CC=1C(=NN(c2ccccc2)C1)c3ccc(cc3)C

>  <s_sd_BIOSOLVEIT.INFINISEE\_SPACE>  (987) 
REALSpace_44bn_2023-08

>  <s_vsw_compound_code>  (987) 
23650

>  <s_vsw_variant>  (987) 
23650-2

>  <r_epik_Charging_Adjusted_Penalty>  (987) 
1.9336777116799999

>  <r_epik_Ionization_Penalty>  (987) 
1.2543

>  <r_epik_Ionization_Penalty_Charging>  (987) 
0

>  <r_epik_Ionization_Penalty_Neutral>  (987) 
1.2543

>  <r_epik_State_Penalty>  (987) 
1.9337

>  <r_i_docking_score>  (987) 
-1.7257324296579999

>  <r_i_glide_ecoul>  (987) 
-1.6608685255050699

>  <r_i_glide_eff_state_penalty>  (987) 
1.9337

>  <r_i_glide_einternal>  (987) 
1.48342049121857

>  <r_i_glide_emodel>  (987) 
-45.977826269015502

>  <r_i_glide_energy>  (987) 
-38.099703669547999

>  <r_i_glide_erotb>  (987) 
1.0428935904091601

>  <r_i_glide_esite>  (987) 
-0.0079471085192434794

>  <r_i_glide_evdw>  (987) 
-36.438835144042997

>  <r_i_glide_gscore>  (987) 
-3.6594324296580001

>  <r_i_glide_hbond>  (987) 
0

>  <r_i_glide_ligand_efficiency>  (987) 
-0.055668788053483999

>  <r_i_glide_ligand_efficiency_ln>  (987) 
-0.389205550235319

>  <r_i_glide_ligand_efficiency_sa>  (987) 
-0.17487685353311699

>  <r_i_glide_lipo>  (987) 
-2.0268981482472901

>  <r_i_glide_metal>  (987) 
-0

>  <r_i_glide_rewards>  (987) 
-0.59640872727272598

>  <r_lp_Energy>  (987) 
23.645316000000001

>  <r_lp_tautomer_probability>  (987) 
1

>  <r_qp_ACxDN^.5/SA>  (987) 
0.012586699999999999

>  <r_qp_CIQPlogS>  (987) 
-5.6699999999999999

>  <r_qp_EA(eV)>  (987) 
0.497

>  <r_qp_FISA>  (987) 
80.382000000000005

>  <r_qp_FOSA>  (987) 
218.953

>  <r_qp_IP(eV)>  (987) 
7.9939999999999998

>  <r_qp_Jm>  (987) 
0.015859153613919302

>  <r_qp_PISA>  (987) 
416.23599999999999

>  <r_qp_PSA>  (987) 
60.459000000000003

>  <r_qp_PercentHumanOralAbsorption>  (987) 
100

>  <r_qp_QPPCaco>  (987) 
427.11200000000002

>  <r_qp_QPPMDCK>  (987) 
218.21700000000001

>  <r_qp_QPlogBB>  (987) 
-0.311

>  <r_qp_QPlogHERG>  (987) 
-7.1020000000000003

>  <r_qp_QPlogKhsa>  (987) 
0.78200000000000003

>  <r_qp_QPlogKp>  (987) 
-2.8290000000000002

>  <r_qp_QPlogPC16>  (987) 
14.875

>  <r_qp_QPlogPo/w>  (987) 
4.5970000000000004

>  <r_qp_QPlogPoct>  (987) 
22.835999999999999

>  <r_qp_QPlogPw>  (987) 
12.57

>  <r_qp_QPlogS>  (987) 
-4.5860000000000003

>  <r_qp_QPpolrz>  (987) 
46.491999999999997

>  <r_qp_SASA>  (987) 
715.57000000000005

>  <r_qp_SAamideO>  (987) 
0

>  <r_qp_SAfluorine>  (987) 
0

>  <r_qp_WPSA>  (987) 
0

>  <r_qp_accptHB>  (987) 
5.2000000000000002

>  <r_qp_dip^2/V>  (987) 
0.0179711

>  <r_qp_dipole>  (987) 
4.9160000000000004

>  <r_qp_donorHB>  (987) 
3

>  <r_qp_glob>  (987) 
0.82329649999999999

>  <r_qp_mol_MW>  (987) 
412.53300000000002

>  <r_qp_volume>  (987) 
1344.5129999999999

>  <r_sd_BIOSOLVEIT.INFINISEE\_FTREES\_SIMILARITY>  (987) 
0.92700000000000005

>  <r_sd_BIOSOLVEIT.LOGP>  (987) 
3.51552

>  <r_sd_BIOSOLVEIT.MOLECULAR\_WEIGHT>  (987) 
413.54199999999997

>  <r_sd_BIOSOLVEIT.TPSA>  (987) 
66.689999999999998

>  <i_epik_Tot_Q>  (987) 
0

>  <i_epik_Tot_abs_Q>  (987) 
0

>  <i_f3d_flags>  (987) 
0

>  <i_i_glide_confnum>  (987) 
16

>  <i_i_glide_lignum>  (987) 
232

>  <i_i_glide_posenum>  (987) 
2

>  <i_i_glide_rotatable_bonds>  (987) 
10

>  <i_lp_mmshare_version>  (987) 
65135

>  <i_m_ct_format>  (987) 
2

>  <i_m_source_file_index>  (987) 
740

>  <i_qp_#NandO>  (987) 
5

>  <i_qp_#acid>  (987) 
0

>  <i_qp_#amide>  (987) 
0

>  <i_qp_#amidine>  (987) 
0

>  <i_qp_#amine>  (987) 
1

>  <i_qp_#in34>  (987) 
0

>  <i_qp_#in56>  (987) 
23

>  <i_qp_#metab>  (987) 
9

>  <i_qp_#nonHatm>  (987) 
31

>  <i_qp_#noncon>  (987) 
0

>  <i_qp_#ringatoms>  (987) 
23

>  <i_qp_#rotor>  (987) 
8

>  <i_qp_#rtvFG>  (987) 
0

>  <i_qp_#stars>  (987) 
1

>  <i_qp_CNS>  (987) 
0

>  <i_qp_HumanOralAbsorption>  (987) 
3

>  <i_qp_RuleOfFive>  (987) 
0

>  <i_qp_RuleOfThree>  (987) 
1

>  <i_sd_BIOSOLVEIT.INFINISEE\_REAGENT1\_NAME>  (987) 
25289968

>  <i_sd_BIOSOLVEIT.INFINISEE\_REAGENT2\_NAME>  (987) 
7547744

>  <i_sd_BIOSOLVEIT.INFINISEE\_RESULT\_RANK>  (987) 
7125

>  <i_sd_version>  (987) 
0

>  <b_lp_Chiralities_Consistent>  (987) 
1

>  <b_sd_chiral_flag>  (987) 
0

>  <canonical_id>  (987) 
ATP-HTVS-9D856A339FA1

>  <compound_code>  (987) 
23650

>  <title>  (987) 
m_270004bbb____25289968____7547744

>  <variant>  (987) 
23650-2

>  <source_file>  (987) 
运行/运行/ATP-VSW/ATP-VSW-DOCK_HTVS_1-002_lib.maegz

>  <canonical_smiles>  (987) 
Cc1ccc(-c2nn(-c3ccccc3)cc2CNCc2ccccc2NCCO)cc1

>  <scaffold>  (987) 
c1ccc(CNCc2cn(-c3ccccc3)nc2-c2ccccc2)cc1

>  <molecular_formula>  (987) 
C26H28N4O

$$$$
ATP-HTVS-9D863030CFC5
     RDKit          3D

 55 58  0  0  0  0  0  0  0  0999 V2000
  200.0739  185.8416  150.1167 S   0  0  0  0  0  0  0  0  0  0  0  0
  199.1104  185.3538  148.7403 C   0  0  0  0  0  0  0  0  0  0  0  0
  197.9210  184.5558  148.8080 C   0  0  0  0  0  0  0  0  0  0  0  0
  197.2460  184.2541  147.6043 C   0  0  0  0  0  0  0  0  0  0  0  0
  197.7178  184.7126  146.3620 C   0  0  0  0  0  0  0  0  0  0  0  0
  198.8722  185.5059  146.3028 C   0  0  0  0  0  0  0  0  0  0  0  0
  199.5645  185.8253  147.4836 C   0  0  0  0  0  0  0  0  0  0  0  0
  197.2945  184.0069  150.0696 C   0  0  0  0  0  0  0  0  0  0  0  0
  196.1004  184.1924  150.3010 O   0  0  0  0  0  0  0  0  0  0  0  0
  198.1302  183.2314  150.7873 N   0  0  0  0  0  0  0  0  0  0  0  0
  197.9536  182.5911  152.0541 C   0  0  0  0  0  0  0  0  0  0  0  0
  196.7499  182.5516  152.6735 N   0  0  0  0  0  0  0  0  0  0  0  0
  196.6332  181.9508  153.8686 C   0  0  0  0  0  0  0  0  0  0  0  0
  197.6825  181.2969  154.5298 C   0  0  0  0  0  0  0  0  0  0  0  0
  197.4283  180.6441  155.7511 N   0  0  0  0  0  0  0  0  0  0  0  0
  198.1807  181.0260  156.9318 C   0  0  1  0  0  0  0  0  0  0  0  0
  197.6832  182.2607  157.6605 C   0  0  0  0  0  0  0  0  0  0  0  0
  198.5213  183.3851  157.7881 C   0  0  0  0  0  0  0  0  0  0  0  0
  198.0903  184.5192  158.5002 C   0  0  0  0  0  0  0  0  0  0  0  0
  196.8121  184.5434  159.0957 C   0  0  0  0  0  0  0  0  0  0  0  0
  196.4359  185.7093  159.7748 N   0  0  0  0  0  0  0  0  0  0  0  0
  195.1358  185.8178  160.4118 C   0  0  1  0  0  0  0  0  0  0  0  0
  195.0794  186.9946  161.3896 C   0  0  1  0  0  0  0  0  0  0  0  0
  193.8567  186.9663  162.0905 O   0  0  0  0  0  0  0  0  0  0  0  0
  195.9738  183.4052  158.9743 C   0  0  0  0  0  0  0  0  0  0  0  0
  196.4106  182.2749  158.2565 C   0  0  0  0  0  0  0  0  0  0  0  0
  198.9497  181.2943  153.8826 C   0  0  0  0  0  0  0  0  0  0  0  0
  199.1017  181.9723  152.6348 C   0  0  0  0  0  0  0  0  0  0  0  0
  200.3794  181.9904  152.0032 C   0  0  0  0  0  0  0  0  0  0  0  0
  201.4772  181.3406  152.5939 C   0  0  0  0  0  0  0  0  0  0  0  0
  201.3135  180.6466  153.8073 C   0  0  0  0  0  0  0  0  0  0  0  0
  200.0513  180.6040  154.4339 C   0  0  0  0  0  0  0  0  0  0  0  0
  196.3484  183.6634  147.6388 H   0  0  0  0  0  0  0  0  0  0  0  0
  197.1838  184.4577  145.4594 H   0  0  0  0  0  0  0  0  0  0  0  0
  199.2300  185.8745  145.3549 H   0  0  0  0  0  0  0  0  0  0  0  0
  200.4457  186.4498  147.4035 H   0  0  0  0  0  0  0  0  0  0  0  0
  199.0641  183.2142  150.4153 H   0  0  0  0  0  0  0  0  0  0  0  0
  195.6486  181.9664  154.3055 H   0  0  0  0  0  0  0  0  0  0  0  0
  196.4807  180.3406  155.9622 H   0  0  0  0  0  0  0  0  0  0  0  0
  198.1527  180.1752  157.6167 H   0  0  0  0  0  0  0  0  0  0  0  0
  199.2346  181.1897  156.6890 H   0  0  0  0  0  0  0  0  0  0  0  0
  199.5105  183.3723  157.3544 H   0  0  0  0  0  0  0  0  0  0  0  0
  198.7594  185.3656  158.5894 H   0  0  0  0  0  0  0  0  0  0  0  0
  196.9771  186.5513  159.6390 H   0  0  0  0  0  0  0  0  0  0  0  0
  194.3614  185.9148  159.6490 H   0  0  0  0  0  0  0  0  0  0  0  0
  194.9331  184.8880  160.9421 H   0  0  0  0  0  0  0  0  0  0  0  0
  195.8898  186.9271  162.1091 H   0  0  0  0  0  0  0  0  0  0  0  0
  195.1877  187.9456  160.8638 H   0  0  0  0  0  0  0  0  0  0  0  0
  193.1557  187.1187  161.4764 H   0  0  0  0  0  0  0  0  0  0  0  0
  194.9877  183.3735  159.4207 H   0  0  0  0  0  0  0  0  0  0  0  0
  195.7685  181.4122  158.1817 H   0  0  0  0  0  0  0  0  0  0  0  0
  200.5343  182.4825  151.0538 H   0  0  0  0  0  0  0  0  0  0  0  0
  202.4413  181.3579  152.1062 H   0  0  0  0  0  0  0  0  0  0  0  0
  202.1571  180.1487  154.2681 H   0  0  0  0  0  0  0  0  0  0  0  0
  199.9253  180.0332  155.3439 H   0  0  0  0  0  0  0  0  0  0  0  0
  1  2  1  0
  2  3  1  0
  2  7  2  0
  3  4  2  0
  3  8  1  0
  4  5  1  0
  4 33  1  0
  5  6  2  0
  5 34  1  0
  6  7  1  0
  6 35  1  0
  7 36  1  0
  8  9  2  0
  8 10  1  0
 10 11  1  0
 10 37  1  0
 11 12  1  0
 11 28  2  0
 12 13  2  0
 13 14  1  0
 13 38  1  0
 14 15  1  0
 14 27  2  0
 15 16  1  0
 15 39  1  0
 16 17  1  0
 16 40  1  1
 16 41  1  0
 17 18  1  0
 17 26  2  0
 18 19  2  0
 18 42  1  0
 19 20  1  0
 19 43  1  0
 20 21  1  0
 20 25  2  0
 21 22  1  0
 21 44  1  0
 22 23  1  0
 22 45  1  6
 22 46  1  0
 23 24  1  0
 23 47  1  1
 23 48  1  0
 24 49  1  0
 25 26  1  0
 25 50  1  0
 26 51  1  0
 27 28  1  0
 27 32  1  0
 28 29  1  0
 29 30  2  0
 29 52  1  0
 30 31  1  0
 30 53  1  0
 31 32  2  0
 31 54  1  0
 32 55  1  0
M  CHG  1   1  -1
M  END
>  <s_epik_cmdline>  (988) 
J2VwaWtfcHl0aG9uJywgJy1waCcsICc3LjAwMDAwMCcsICctcGh0JywgJzIuMDAwMDAwJywgJy1tcycsICcxNicsICctdG4nLCAnOCcsICctbWEnLCAnMjAwJywgJy1pbWFlJywgJzxpbmZpbGUubWFlPicsICctb21hZScsICc8b3V0ZmlsZS5tYWU+Jw==

>  <s_epik_input>  (988) 
W2NIXTFbY0hdW2NIXVtjSF1jKGMxW1NIXSlDKD1PKVtOSF1jKGMoYzIzKVtjSF1bY0hdW2NIXVtjSF0zKW5bY0hdYzJbTkhdW0NIMl1jNFtjSF1bY0hdYyhbY0hdW2NIXTQpW05IXVtDSDJdW0NIMl1bT0hd

>  <s_i_glide_gridfile>  (988) 
ATP-Grid

>  <s_lp_Force_Field>  (988) 
OPLS_2005

>  <s_lp_Variant>  (988) 
rxn502b____EMOL49828490____EMOL7515103____EMOL324170366-1

>  <s_lp_label>  (988) 
2445_sdstereoexpander_1_neutralizer_1_epik_1_stereoizer_1

>  <s_m_source_file>  (988) 
ATP-VSW-LIGPREP-001-in.maegz

>  <s_sd_BIOSOLVEIT.INFINISEE\_QUERY\_NAME>  (988) 
Ref-Lig

>  <s_sd_BIOSOLVEIT.INFINISEE\_QUERY\_SMILES>  (988) 
S(c1nc2c(cc1C[NH2+]Cc3ccc(cc3)C[NH+](C)C)cccc2)Cc4ccccc4

>  <s_sd_BIOSOLVEIT.INFINISEE\_REACTION\_NAME>  (988) 
rxn502b

>  <s_sd_BIOSOLVEIT.INFINISEE\_REAGENT1\_NAME>  (988) 
EMOL49828490

>  <s_sd_BIOSOLVEIT.INFINISEE\_REAGENT1\_SMILES>  (988) 
ClC(=O)c1c(S)cccc1

>  <s_sd_BIOSOLVEIT.INFINISEE\_REAGENT2\_NAME>  (988) 
EMOL7515103

>  <s_sd_BIOSOLVEIT.INFINISEE\_REAGENT2\_SMILES>  (988) 
Brc1c2c(c(nc1)N)cccc2

>  <s_sd_BIOSOLVEIT.INFINISEE\_REAGENT3\_NAME>  (988) 
EMOL324170366

>  <s_sd_BIOSOLVEIT.INFINISEE\_REAGENT3\_SMILES>  (988) 
OCCNc1ccc(cc1)CN

>  <s_sd_BIOSOLVEIT.INFINISEE\_SPACE>  (988) 
eXplore_7tr_2022-12

>  <s_vsw_compound_code>  (988) 
78209

>  <s_vsw_variant>  (988) 
78209-1

>  <r_epik_Charging_Adjusted_Penalty>  (988) 
0.0122047258020005

>  <r_epik_Ionization_Penalty>  (988) 
0.0123

>  <r_epik_Ionization_Penalty_Charging>  (988) 
0.00050000000000000001

>  <r_epik_Ionization_Penalty_Neutral>  (988) 
0.0118

>  <r_epik_State_Penalty>  (988) 
0.0117

>  <r_i_docking_score>  (988) 
-3.5934851545958999

>  <r_i_glide_ecoul>  (988) 
-3.1800591945648198

>  <r_i_glide_eff_state_penalty>  (988) 
0.0117

>  <r_i_glide_einternal>  (988) 
6.9686918258667001

>  <r_i_glide_emodel>  (988) 
-43.891322547775601

>  <r_i_glide_energy>  (988) 
-38.902196645736701

>  <r_i_glide_erotb>  (988) 
0.91462113578919202

>  <r_i_glide_esite>  (988) 
-0.081730610346796698

>  <r_i_glide_evdw>  (988) 
-35.722137451171903

>  <r_i_glide_gscore>  (988) 
-3.6051851545959002

>  <r_i_glide_hbond>  (988) 
-0.020178872145432

>  <r_i_glide_ligand_efficiency>  (988) 
-0.112296411081122

>  <r_i_glide_ligand_efficiency_ln>  (988) 
-0.80467928081976803

>  <r_i_glide_ligand_efficiency_sa>  (988) 
-0.35651888175298602

>  <r_i_glide_lipo>  (988) 
-1.5750591658632001

>  <r_i_glide_metal>  (988) 
-0

>  <r_i_glide_rewards>  (988) 
-0.57972189028634702

>  <r_lp_Energy>  (988) 
43.455972000000003

>  <r_qp_ACxDN^.5/SA>  (988) 
0.017099300000000001

>  <r_qp_CIQPlogS>  (988) 
-6.6399999999999997

>  <r_qp_EA(eV)>  (988) 
0.84499999999999997

>  <r_qp_FISA>  (988) 
139.05600000000001

>  <r_qp_FOSA>  (988) 
131.42400000000001

>  <r_qp_IP(eV)>  (988) 
7.7069999999999999

>  <r_qp_Jm>  (988) 
0.0058141526073725597

>  <r_qp_PISA>  (988) 
445.32299999999998

>  <r_qp_PSA>  (988) 
91.364000000000004

>  <r_qp_PercentHumanOralAbsorption>  (988) 
100

>  <r_qp_QPPCaco>  (988) 
475.58800000000002

>  <r_qp_QPPMDCK>  (988) 
521.39599999999996

>  <r_qp_QPlogBB>  (988) 
-1.4339999999999999

>  <r_qp_QPlogHERG>  (988) 
-7.3680000000000003

>  <r_qp_QPlogKhsa>  (988) 
0.45400000000000001

>  <r_qp_QPlogKp>  (988) 
-1.5529999999999999

>  <r_qp_QPlogPC16>  (988) 
16.870999999999999

>  <r_qp_QPlogPo/w>  (988) 
4.5119999999999996

>  <r_qp_QPlogPoct>  (988) 
26.288

>  <r_qp_QPlogPw>  (988) 
15.856

>  <r_qp_QPlogS>  (988) 
-6.3300000000000001

>  <r_qp_QPpolrz>  (988) 
47.517000000000003

>  <r_qp_SASA>  (988) 
783.65599999999995

>  <r_qp_SAamideO>  (988) 
0

>  <r_qp_SAfluorine>  (988) 
0

>  <r_qp_WPSA>  (988) 
67.852000000000004

>  <r_qp_accptHB>  (988) 
6.7000000000000002

>  <r_qp_dip^2/V>  (988) 
0.050771200000000002

>  <r_qp_dipole>  (988) 
8.4169999999999998

>  <r_qp_donorHB>  (988) 
4

>  <r_qp_glob>  (988) 
0.77056979999999997

>  <r_qp_mol_MW>  (988) 
444.55000000000001

>  <r_qp_volume>  (988) 
1395.27

>  <r_sd_BIOSOLVEIT.INFINISEE\_FTREES\_SIMILARITY>  (988) 
0.91600000000000004

>  <r_sd_BIOSOLVEIT.LOGP>  (988) 
5.1722999999999999

>  <r_sd_BIOSOLVEIT.MOLECULAR\_WEIGHT>  (988) 
444.55599999999998

>  <r_sd_BIOSOLVEIT.TPSA>  (988) 
86.280000000000001

>  <i_epik_Tot_Q>  (988) 
-1

>  <i_epik_Tot_abs_Q>  (988) 
1

>  <i_f3d_flags>  (988) 
0

>  <i_i_glide_confnum>  (988) 
5

>  <i_i_glide_lignum>  (988) 
953

>  <i_i_glide_posenum>  (988) 
1

>  <i_i_glide_rotatable_bonds>  (988) 
10

>  <i_lp_mmshare_version>  (988) 
65135

>  <i_m_ct_format>  (988) 
2

>  <i_m_source_file_index>  (988) 
2445

>  <i_qp_#NandO>  (988) 
6

>  <i_qp_#acid>  (988) 
0

>  <i_qp_#amide>  (988) 
0

>  <i_qp_#amidine>  (988) 
0

>  <i_qp_#amine>  (988) 
0

>  <i_qp_#in34>  (988) 
0

>  <i_qp_#in56>  (988) 
22

>  <i_qp_#metab>  (988) 
9

>  <i_qp_#nonHatm>  (988) 
32

>  <i_qp_#noncon>  (988) 
0

>  <i_qp_#ringatoms>  (988) 
22

>  <i_qp_#rotor>  (988) 
10

>  <i_qp_#rtvFG>  (988) 
1

>  <i_qp_#stars>  (988) 
2

>  <i_qp_CNS>  (988) 
-2

>  <i_qp_HumanOralAbsorption>  (988) 
1

>  <i_qp_RuleOfFive>  (988) 
0

>  <i_qp_RuleOfThree>  (988) 
2

>  <i_sd_BIOSOLVEIT.INFINISEE\_RESULT\_RANK>  (988) 
24901

>  <i_sd_version>  (988) 
0

>  <b_lp_Chiralities_Consistent>  (988) 
1

>  <b_sd_chiral_flag>  (988) 
0

>  <canonical_id>  (988) 
ATP-HTVS-9D863030CFC5

>  <compound_code>  (988) 
78209

>  <title>  (988) 
rxn502b____EMOL49828490____EMOL7515103____EMOL324170366

>  <variant>  (988) 
78209-1

>  <source_file>  (988) 
运行/运行/ATP-VSW/ATP-VSW-DOCK_HTVS_1-001_lib/ATP-VSW-DOCK_HTVS_1-001_lib

>  <canonical_smiles>  (988) 
O=C(Nc1ncc(NCc2ccc(NCCO)cc2)c2ccccc12)c1ccccc1[S-]

>  <scaffold>  (988) 
O=C(Nc1ncc(NCc2ccccc2)c2ccccc12)c1ccccc1

>  <molecular_formula>  (988) 
C25H23N4O2S-

$$$$
ATP-HTVS-9DA78F477298
     RDKit          3D

 56 59  0  0  0  0  0  0  0  0999 V2000
  195.3458  185.3632  158.9911 F   0  0  0  0  0  0  0  0  0  0  0  0
  196.5993  184.8257  158.8879 C   0  0  0  0  0  0  0  0  0  0  0  0
  196.7880  183.5225  158.3870 C   0  0  0  0  0  0  0  0  0  0  0  0
  198.0963  182.9966  158.4216 C   0  0  0  0  0  0  0  0  0  0  0  0
  199.2110  183.7534  158.7224 C   0  0  0  0  0  0  0  0  0  0  0  0
  199.0203  185.0389  159.2325 C   0  0  0  0  0  0  0  0  0  0  0  0
  197.7138  185.5700  159.3471 C   0  0  0  0  0  0  0  0  0  0  0  0
  195.6053  182.7167  157.8239 C   0  0  1  0  0  0  0  0  0  0  0  0
  195.9592  181.8237  156.6770 N   0  0  1  0  0  0  0  0  0  0  0  0
  197.1773  182.1333  155.8870 C   0  0  1  0  0  0  0  0  0  0  0  0
  197.0808  181.5142  154.5980 C   0  0  0  0  0  0  0  0  0  0  0  0
  197.1675  180.9434  153.5357 C   0  0  0  0  0  0  0  0  0  0  0  0
  197.1991  180.2946  152.2452 C   0  0  0  0  0  0  0  0  0  0  0  0
  198.0338  179.1922  151.9607 C   0  0  0  0  0  0  0  0  0  0  0  0
  198.8935  178.6495  152.9562 N   0  0  0  0  0  0  0  0  0  0  0  0
  200.2294  178.5336  152.8466 C   0  0  0  0  0  0  0  0  0  0  0  0
  200.8899  179.0421  151.9460 O   0  0  0  0  0  0  0  0  0  0  0  0
  200.8763  177.6528  153.8714 C   0  0  0  0  0  0  0  0  0  0  0  0
  201.7665  176.6289  153.4720 C   0  0  0  0  0  0  0  0  0  0  0  0
  202.3871  175.8128  154.4409 C   0  0  0  0  0  0  0  0  0  0  0  0
  203.2423  174.8316  154.0641 F   0  0  0  0  0  0  0  0  0  0  0  0
  202.1182  176.0163  155.8067 C   0  0  0  0  0  0  0  0  0  0  0  0
  201.2350  177.0371  156.2037 C   0  0  0  0  0  0  0  0  0  0  0  0
  200.9568  177.2583  157.6108 C   0  0  0  0  0  0  0  0  0  0  0  0
  200.7389  177.4421  158.7245 N   0  0  0  0  0  0  0  0  0  0  0  0
  200.6027  177.8443  155.2381 C   0  0  0  0  0  0  0  0  0  0  0  0
  197.9232  178.6090  150.6803 C   0  0  0  0  0  0  0  0  0  0  0  0
  197.0235  179.1867  149.7393 C   0  0  0  0  0  0  0  0  0  0  0  0
  196.2577  180.2538  150.0346 N   0  0  0  0  0  0  0  0  0  0  0  0
  196.3448  180.8038  151.2503 C   0  0  0  0  0  0  0  0  0  0  0  0
  196.9139  178.5988  148.4623 C   0  0  0  0  0  0  0  0  0  0  0  0
  197.6677  177.4630  148.1160 C   0  0  0  0  0  0  0  0  0  0  0  0
  198.5419  176.8913  149.0495 C   0  0  0  0  0  0  0  0  0  0  0  0
  198.6581  177.4584  150.3233 C   0  0  0  0  0  0  0  0  0  0  0  0
  194.9013  181.9138  158.9320 C   0  0  2  0  0  0  0  0  0  0  0  0
  196.0099  180.8733  157.0453 H   0  0  0  0  0  0  0  0  0  0  0  0
  198.2974  181.9830  158.1484 H   0  0  0  0  0  0  0  0  0  0  0  0
  200.1960  183.3114  158.5987 H   0  0  0  0  0  0  0  0  0  0  0  0
  199.8931  185.5937  159.5879 H   0  0  0  0  0  0  0  0  0  0  0  0
  197.5756  186.5357  159.7818 H   0  0  0  0  0  0  0  0  0  0  0  0
  194.8572  183.4231  157.4395 H   0  0  0  0  0  0  0  0  0  0  0  0
  197.3855  183.2126  155.8121 H   0  0  0  0  0  0  0  0  0  0  0  0
  198.0456  181.5956  156.2348 H   0  0  0  0  0  0  0  0  0  0  0  0
  198.4476  178.1748  153.7362 H   0  0  0  0  0  0  0  0  0  0  0  0
  201.9798  176.4482  152.4257 H   0  0  0  0  0  0  0  0  0  0  0  0
  202.6102  175.4010  156.5484 H   0  0  0  0  0  0  0  0  0  0  0  0
  199.9307  178.6291  155.5484 H   0  0  0  0  0  0  0  0  0  0  0  0
  195.7142  181.6647  151.4373 H   0  0  0  0  0  0  0  0  0  0  0  0
  196.2363  179.0180  147.7353 H   0  0  0  0  0  0  0  0  0  0  0  0
  197.5727  177.0230  147.1355 H   0  0  0  0  0  0  0  0  0  0  0  0
  199.1332  176.0228  148.7974 H   0  0  0  0  0  0  0  0  0  0  0  0
  199.3388  176.9818  151.0074 H   0  0  0  0  0  0  0  0  0  0  0  0
  194.5952  182.5684  159.7354 H   0  0  0  0  0  0  0  0  0  0  0  0
  195.5630  181.1535  159.3414 H   0  0  0  0  0  0  0  0  0  0  0  0
  194.0048  181.4111  158.5620 H   0  0  0  0  0  0  0  0  0  0  0  0
  195.1631  181.8620  156.0311 H   0  0  0  0  0  0  0  0  0  0  0  0
  1  2  1  0
  2  3  1  0
  2  7  2  0
  3  4  2  0
  3  8  1  0
  4  5  1  0
  4 37  1  0
  5  6  2  0
  5 38  1  0
  6  7  1  0
  6 39  1  0
  7 40  1  0
  8  9  1  0
  8 35  1  0
  8 41  1  6
  9 10  1  0
  9 36  1  1
  9 56  1  0
 10 11  1  0
 10 42  1  6
 10 43  1  0
 11 12  3  0
 12 13  1  0
 13 14  2  0
 13 30  1  0
 14 15  1  0
 14 27  1  0
 15 16  1  0
 15 44  1  0
 16 17  2  0
 16 18  1  0
 18 19  2  0
 18 26  1  0
 19 20  1  0
 19 45  1  0
 20 21  1  0
 20 22  2  0
 22 23  1  0
 22 46  1  0
 23 24  1  0
 23 26  2  0
 24 25  3  0
 26 47  1  0
 27 28  1  0
 27 34  2  0
 28 29  1  0
 28 31  2  0
 29 30  2  0
 30 48  1  0
 31 32  1  0
 31 49  1  0
 32 33  2  0
 32 50  1  0
 33 34  1  0
 33 51  1  0
 34 52  1  0
 35 53  1  1
 35 54  1  0
 35 55  1  0
M  CHG  1   9   1
M  END
>  <s_epik_cmdline>  (989) 
J2VwaWtfcHl0aG9uJywgJy1waCcsICc3LjAwMDAwMCcsICctcGh0JywgJzIuMDAwMDAwJywgJy1tcycsICcxNicsICctdG4nLCAnOCcsICctbWEnLCAnMjAwJywgJy1pbWFlJywgJzxpbmZpbGUubWFlPicsICctb21hZScsICc8b3V0ZmlsZS5tYWU+Jw==

>  <s_epik_input>  (989) 
W2NIXTFbY0hdW2NIXVtjSF1jKGMxRilbQ0BIXShbQ0gzXSlbTkhdW0NIMl1DI0NjKFtjSF1uYyhjMjMpW2NIXVtjSF1bY0hdW2NIXTMpYzJbTkhdQyg9TyljNFtjSF1jKEYpW2NIXWMoQyNOKVtjSF00

>  <s_i_glide_gridfile>  (989) 
ATP-Grid

>  <s_lp_Force_Field>  (989) 
OPLS_2005

>  <s_lp_Variant>  (989) 
rxn503b____EMOL5759763____EMOL13728749____EMOL317509298-4

>  <s_lp_label>  (989) 
3059_sdstereoexpander_2_neutralizer_1_epik_2_stereoizer_1

>  <s_m_source_file>  (989) 
ATP-VSW-LIGPREP-001-in.maegz

>  <s_sd_BIOSOLVEIT.INFINISEE\_QUERY\_NAME>  (989) 
Ref-Lig

>  <s_sd_BIOSOLVEIT.INFINISEE\_QUERY\_SMILES>  (989) 
S(c1nc2c(cc1C[NH2+]Cc3ccc(cc3)C[NH+](C)C)cccc2)Cc4ccccc4

>  <s_sd_BIOSOLVEIT.INFINISEE\_REACTION\_NAME>  (989) 
rxn503b

>  <s_sd_BIOSOLVEIT.INFINISEE\_REAGENT1\_NAME>  (989) 
EMOL5759763

>  <s_sd_BIOSOLVEIT.INFINISEE\_REAGENT1\_SMILES>  (989) 
Fc1cc(C#N)cc(c1)C(=O)O

>  <s_sd_BIOSOLVEIT.INFINISEE\_REAGENT2\_NAME>  (989) 
EMOL13728749

>  <s_sd_BIOSOLVEIT.INFINISEE\_REAGENT2\_SMILES>  (989) 
Brc1c(N)c2c(nc1)cccc2

>  <s_sd_BIOSOLVEIT.INFINISEE\_REAGENT3\_NAME>  (989) 
EMOL317509298

>  <s_sd_BIOSOLVEIT.INFINISEE\_REAGENT3\_SMILES>  (989) 
Fc1c(cccc1)C(NCC#C)C

>  <s_sd_BIOSOLVEIT.INFINISEE\_SPACE>  (989) 
eXplore_7tr_2022-12

>  <s_vsw_compound_code>  (989) 
97857

>  <s_vsw_variant>  (989) 
97857-4

>  <r_epik_Charging_Adjusted_Penalty>  (989) 
1.25451524325635

>  <r_epik_Ionization_Penalty>  (989) 
0.63249999999999995

>  <r_epik_Ionization_Penalty_Charging>  (989) 
0.63019999999999998

>  <r_epik_Ionization_Penalty_Neutral>  (989) 
0.0023

>  <r_epik_State_Penalty>  (989) 
0.62439999999999996

>  <r_i_docking_score>  (989) 
-4.9640261921175499

>  <r_i_glide_ecoul>  (989) 
-10.275641441345201

>  <r_i_glide_eff_state_penalty>  (989) 
0.62439999999999996

>  <r_i_glide_einternal>  (989) 
10.336132049560501

>  <r_i_glide_emodel>  (989) 
-67.967095430415

>  <r_i_glide_energy>  (989) 
-48.574675559997601

>  <r_i_glide_erotb>  (989) 
0.646449634170433

>  <r_i_glide_esite>  (989) 
-0.096051179228104105

>  <r_i_glide_evdw>  (989) 
-38.299034118652301

>  <r_i_glide_gscore>  (989) 
-5.5884261921175504

>  <r_i_glide_hbond>  (989) 
-0.37744501362482902

>  <r_i_glide_ligand_efficiency>  (989) 
-0.14182931977478699

>  <r_i_glide_ligand_efficiency_ln>  (989) 
-1.0897139197953001

>  <r_i_glide_ligand_efficiency_sa>  (989) 
-0.463933109162456

>  <r_i_glide_lipo>  (989) 
-1.57369554042024

>  <r_i_glide_metal>  (989) 
-0

>  <r_i_glide_rewards>  (989) 
-0.73138617088040703

>  <r_lp_Energy>  (989) 
33.275339000000002

>  <r_qp_ACxDN^.5/SA>  (989) 
0.011311399999999999

>  <r_qp_CIQPlogS>  (989) 
-7.3070000000000004

>  <r_qp_EA(eV)>  (989) 
1.4199999999999999

>  <r_qp_FISA>  (989) 
145.761

>  <r_qp_FOSA>  (989) 
114.27

>  <r_qp_IP(eV)>  (989) 
9.0800000000000001

>  <r_qp_Jm>  (989) 
3.0336881123262999e-06

>  <r_qp_PISA>  (989) 
474.75700000000001

>  <r_qp_PSA>  (989) 
84.569999999999993

>  <r_qp_PercentHumanOralAbsorption>  (989) 
91.424999999999997

>  <r_qp_QPPCaco>  (989) 
102.459

>  <r_qp_QPPMDCK>  (989) 
124.55800000000001

>  <r_qp_QPlogBB>  (989) 
-0.98699999999999999

>  <r_qp_QPlogHERG>  (989) 
-8.3170000000000002

>  <r_qp_QPlogKhsa>  (989) 
0.89600000000000002

>  <r_qp_QPlogKp>  (989) 
-3.8279999999999998

>  <r_qp_QPlogPC16>  (989) 
16.323

>  <r_qp_QPlogPo/w>  (989) 
4.8659999999999997

>  <r_qp_QPlogPoct>  (989) 
24.366

>  <r_qp_QPlogPw>  (989) 
13.49

>  <r_qp_QPlogS>  (989) 
-7.359

>  <r_qp_QPpolrz>  (989) 
51.627000000000002

>  <r_qp_SASA>  (989) 
812.66700000000003

>  <r_qp_SAamideO>  (989) 
0

>  <r_qp_SAfluorine>  (989) 
77.879000000000005

>  <r_qp_WPSA>  (989) 
77.879000000000005

>  <r_qp_accptHB>  (989) 
6.5

>  <r_qp_dip^2/V>  (989) 
0.011683799999999999

>  <r_qp_dipole>  (989) 
4.1289999999999996

>  <r_qp_donorHB>  (989) 
2

>  <r_qp_glob>  (989) 
0.76547379999999998

>  <r_qp_mol_MW>  (989) 
466.48899999999998

>  <r_qp_volume>  (989) 
1458.8710000000001

>  <r_sd_BIOSOLVEIT.INFINISEE\_FTREES\_SIMILARITY>  (989) 
0.90200000000000002

>  <r_sd_BIOSOLVEIT.LOGP>  (989) 
4.3130800000000002

>  <r_sd_BIOSOLVEIT.MOLECULAR\_WEIGHT>  (989) 
467.49700000000001

>  <r_sd_BIOSOLVEIT.TPSA>  (989) 
82.390000000000001

>  <i_epik_Tot_Q>  (989) 
1

>  <i_epik_Tot_abs_Q>  (989) 
1

>  <i_f3d_flags>  (989) 
0

>  <i_i_glide_confnum>  (989) 
2

>  <i_i_glide_lignum>  (989) 
30

>  <i_i_glide_posenum>  (989) 
16

>  <i_i_glide_rotatable_bonds>  (989) 
8

>  <i_lp_mmshare_version>  (989) 
65135

>  <i_m_ct_format>  (989) 
2

>  <i_m_source_file_index>  (989) 
3059

>  <i_qp_#NandO>  (989) 
5

>  <i_qp_#acid>  (989) 
0

>  <i_qp_#amide>  (989) 
0

>  <i_qp_#amidine>  (989) 
0

>  <i_qp_#amine>  (989) 
1

>  <i_qp_#in34>  (989) 
0

>  <i_qp_#in56>  (989) 
22

>  <i_qp_#metab>  (989) 
5

>  <i_qp_#nonHatm>  (989) 
35

>  <i_qp_#noncon>  (989) 
0

>  <i_qp_#ringatoms>  (989) 
22

>  <i_qp_#rotor>  (989) 
8

>  <i_qp_#rtvFG>  (989) 
0

>  <i_qp_#stars>  (989) 
2

>  <i_qp_CNS>  (989) 
0

>  <i_qp_HumanOralAbsorption>  (989) 
1

>  <i_qp_RuleOfFive>  (989) 
0

>  <i_qp_RuleOfThree>  (989) 
1

>  <i_sd_BIOSOLVEIT.INFINISEE\_RESULT\_RANK>  (989) 
91858

>  <i_sd_version>  (989) 
0

>  <b_lp_Chiralities_Consistent>  (989) 
1

>  <b_sd_chiral_flag>  (989) 
0

>  <canonical_id>  (989) 
ATP-HTVS-9DA78F477298

>  <compound_code>  (989) 
97857

>  <title>  (989) 
rxn503b____EMOL5759763____EMOL13728749____EMOL317509298

>  <variant>  (989) 
97857-4

>  <source_file>  (989) 
运行/运行/ATP-VSW/ATP-VSW-DOCK_HTVS_1-002_lib.maegz

>  <canonical_smiles>  (989) 
C[C@H]([NH2+]CC#Cc1cnc2ccccc2c1NC(=O)c1cc(F)cc(C#N)c1)c1ccccc1F

>  <scaffold>  (989) 
O=C(Nc1c(C#CC[NH2+]Cc2ccccc2)cnc2ccccc12)c1ccccc1

>  <molecular_formula>  (989) 
C28H21F2N4O+

$$$$
ATP-HTVS-9DADF577E8AC
     RDKit          3D

 53 55  0  0  0  0  0  0  0  0999 V2000
  201.9456  179.4631  157.8819 F   0  0  0  0  0  0  0  0  0  0  0  0
  200.8799  179.8940  157.1676 C   0  0  0  0  0  0  0  0  0  0  0  0
  199.9407  178.9577  156.6834 C   0  0  0  0  0  0  0  0  0  0  0  0
  198.8341  179.4136  155.9454 C   0  0  0  0  0  0  0  0  0  0  0  0
  198.6688  180.7830  155.6753 C   0  0  0  0  0  0  0  0  0  0  0  0
  199.6139  181.7301  156.1429 C   0  0  0  0  0  0  0  0  0  0  0  0
  199.5178  183.1050  155.8778 N   0  0  0  0  0  0  0  0  0  0  0  0
  198.2420  183.7395  155.5634 C   0  0  1  0  0  0  0  0  0  0  0  0
  197.7944  184.7996  156.5580 C   0  0  0  0  0  0  0  0  0  0  0  0
  197.1129  184.4639  157.7564 C   0  0  0  0  0  0  0  0  0  0  0  0
  196.8670  183.1507  158.0766 O   0  0  0  0  0  0  0  0  0  0  0  0
  195.7227  182.5915  157.4547 C   0  0  2  0  0  0  0  0  0  0  0  0
  196.7264  185.4988  158.6491 C   0  0  0  0  0  0  0  0  0  0  0  0
  197.0050  186.8568  158.3322 C   0  0  0  0  0  0  0  0  0  0  0  0
  197.6722  187.1909  157.1309 C   0  0  0  0  0  0  0  0  0  0  0  0
  197.9154  188.5223  156.8661 O   0  0  0  0  0  0  0  0  0  0  0  0
  198.7351  188.8537  155.7544 C   0  0  2  0  0  0  0  0  0  0  0  0
  198.0600  186.1498  156.2556 C   0  0  0  0  0  0  0  0  0  0  0  0
  196.6153  187.8796  159.2306 C   0  0  0  0  0  0  0  0  0  0  0  0
  195.9479  187.5674  160.4294 C   0  0  0  0  0  0  0  0  0  0  0  0
  195.6513  186.2279  160.7338 C   0  0  0  0  0  0  0  0  0  0  0  0
  196.0495  185.1986  159.8537 C   0  0  0  0  0  0  0  0  0  0  0  0
  200.7131  181.2693  156.8956 C   0  0  0  0  0  0  0  0  0  0  0  0
  200.1194  177.4749  156.9548 C   0  0  1  0  0  0  0  0  0  0  0  0
  201.3631  176.9363  156.3444 N   0  0  2  0  0  0  0  0  0  0  0  0
  201.4749  177.1906  154.8865 C   0  0  2  0  0  0  0  0  0  0  0  0
  201.5525  175.5021  156.6580 C   0  0  2  0  0  0  0  0  0  0  0  0
  198.0938  178.7106  155.5827 H   0  0  0  0  0  0  0  0  0  0  0  0
  197.8029  181.0557  155.0934 H   0  0  0  0  0  0  0  0  0  0  0  0
  200.3088  183.7000  156.0983 H   0  0  0  0  0  0  0  0  0  0  0  0
  198.3296  184.1911  154.5706 H   0  0  0  0  0  0  0  0  0  0  0  0
  197.4084  183.0204  155.4828 H   0  0  0  0  0  0  0  0  0  0  0  0
  195.5634  181.5783  157.8191 H   0  0  0  0  0  0  0  0  0  0  0  0
  195.8725  182.5305  156.3702 H   0  0  0  0  0  0  0  0  0  0  0  0
  194.8289  183.1715  157.6918 H   0  0  0  0  0  0  0  0  0  0  0  0
  198.8348  189.9366  155.6967 H   0  0  0  0  0  0  0  0  0  0  0  0
  198.3053  188.5163  154.8101 H   0  0  0  0  0  0  0  0  0  0  0  0
  199.7348  188.4309  155.8645 H   0  0  0  0  0  0  0  0  0  0  0  0
  198.5608  186.3631  155.3278 H   0  0  0  0  0  0  0  0  0  0  0  0
  196.8099  188.9202  159.0047 H   0  0  0  0  0  0  0  0  0  0  0  0
  195.6427  188.3601  161.0966 H   0  0  0  0  0  0  0  0  0  0  0  0
  195.1198  185.9933  161.6460 H   0  0  0  0  0  0  0  0  0  0  0  0
  195.8291  184.1749  160.1205 H   0  0  0  0  0  0  0  0  0  0  0  0
  201.4503  181.9635  157.2732 H   0  0  0  0  0  0  0  0  0  0  0  0
  200.1320  177.3245  158.0365 H   0  0  0  0  0  0  0  0  0  0  0  0
  199.2514  176.9289  156.5790 H   0  0  0  0  0  0  0  0  0  0  0  0
  200.6509  176.7287  154.3424 H   0  0  0  0  0  0  0  0  0  0  0  0
  202.4107  176.7881  154.4991 H   0  0  0  0  0  0  0  0  0  0  0  0
  201.4761  178.2570  154.6622 H   0  0  0  0  0  0  0  0  0  0  0  0
  200.7671  174.8997  156.1960 H   0  0  0  0  0  0  0  0  0  0  0  0
  201.5349  175.3348  157.7328 H   0  0  0  0  0  0  0  0  0  0  0  0
  202.5124  175.1439  156.2791 H   0  0  0  0  0  0  0  0  0  0  0  0
  202.1281  177.4328  156.7817 H   0  0  0  0  0  0  0  0  0  0  0  0
  1  2  1  0
  2  3  2  0
  2 23  1  0
  3  4  1  0
  3 24  1  0
  4  5  2  0
  4 28  1  0
  5  6  1  0
  5 29  1  0
  6  7  1  0
  6 23  2  0
  7  8  1  0
  7 30  1  0
  8  9  1  0
  8 31  1  6
  8 32  1  0
  9 10  2  0
  9 18  1  0
 10 11  1  0
 10 13  1  0
 11 12  1  0
 12 33  1  1
 12 34  1  0
 12 35  1  0
 13 14  1  0
 13 22  2  0
 14 15  1  0
 14 19  2  0
 15 16  1  0
 15 18  2  0
 16 17  1  0
 17 36  1  6
 17 37  1  0
 17 38  1  0
 18 39  1  0
 19 20  1  0
 19 40  1  0
 20 21  2  0
 20 41  1  0
 21 22  1  0
 21 42  1  0
 22 43  1  0
 23 44  1  0
 24 25  1  0
 24 45  1  1
 24 46  1  0
 25 26  1  0
 25 27  1  0
 25 53  1  1
 26 47  1  6
 26 48  1  0
 26 49  1  0
 27 50  1  6
 27 51  1  0
 27 52  1  0
M  CHG  1  25   1
M  END
>  <s_epik_cmdline>  (990) 
J2VwaWtfcHl0aG9uJywgJy1waCcsICc3LjAwMDAwMCcsICctcGh0JywgJzIuMDAwMDAwJywgJy1tcycsICcxNicsICctdG4nLCAnOCcsICctbWEnLCAnMjAwJywgJy1pbWFlJywgJzxpbmZpbGUubWFlPicsICctb21hZScsICc8b3V0ZmlsZS5tYWU+Jw==

>  <s_epik_input>  (990) 
W0NIM11OKFtDSDNdKVtDSDJdYyhjMUYpW2NIXVtjSF1jKFtjSF0xKVtOSF1bQ0gyXWMoYzJPW0NIM10pW2NIXWMoT1tDSDNdKWMoYzIzKVtjSF1bY0hdW2NIXVtjSF0z

>  <s_i_glide_gridfile>  (990) 
ATP-Grid

>  <s_lp_Force_Field>  (990) 
OPLS_2005

>  <s_lp_Variant>  (990) 
m_270004dbb____8156874____24720236-1

>  <s_lp_label>  (990) 
1286_sdstereoexpander_1_neutralizer_1_epik_1_stereoizer_1

>  <s_m_source_file>  (990) 
ATP-VSW-LIGPREP-002-in.maegz

>  <s_sd_BIOSOLVEIT.INFINISEE\_QUERY\_NAME>  (990) 
Ref-Lig

>  <s_sd_BIOSOLVEIT.INFINISEE\_QUERY\_SMILES>  (990) 
S(c1nc2c(cc1C[NH2+]Cc3ccc(cc3)C[NH+](C)C)cccc2)Cc4ccccc4

>  <s_sd_BIOSOLVEIT.INFINISEE\_REACTION\_NAME>  (990) 
m_270004dbb

>  <s_sd_BIOSOLVEIT.INFINISEE\_REAGENT1\_SMILES>  (990) 
[R1*]Nc1cc(F)c(cc1)CN(C)C

>  <s_sd_BIOSOLVEIT.INFINISEE\_REAGENT2\_SMILES>  (990) 
[R1*]Cc1c(OC)c2c(c(OC)c1)cccc2

>  <s_sd_BIOSOLVEIT.INFINISEE\_SPACE>  (990) 
REALSpace_44bn_2023-08

>  <s_vsw_compound_code>  (990) 
41122

>  <s_vsw_variant>  (990) 
41122-1

>  <r_epik_Charging_Adjusted_Penalty>  (990) 
0.097724069631781402

>  <r_epik_Ionization_Penalty>  (990) 
0.048899999999999999

>  <r_epik_Ionization_Penalty_Charging>  (990) 
0.048899999999999999

>  <r_epik_Ionization_Penalty_Neutral>  (990) 
0

>  <r_epik_State_Penalty>  (990) 
0.048899999999999999

>  <r_i_docking_score>  (990) 
-4.5049171298659001

>  <r_i_glide_ecoul>  (990) 
-5.9868979454040501

>  <r_i_glide_eff_state_penalty>  (990) 
0.048899999999999999

>  <r_i_glide_einternal>  (990) 
3.3210587501525901

>  <r_i_glide_emodel>  (990) 
-47.057451634036497

>  <r_i_glide_energy>  (990) 
-35.375150203704798

>  <r_i_glide_erotb>  (990) 
0.56503575381728099

>  <r_i_glide_esite>  (990) 
-0.0232955740991595

>  <r_i_glide_evdw>  (990) 
-29.388252258300799

>  <r_i_glide_gscore>  (990) 
-4.5538171298658998

>  <r_i_glide_hbond>  (990) 
0

>  <r_i_glide_ligand_efficiency>  (990) 
-0.166848782587626

>  <r_i_glide_ligand_efficiency_ln>  (990) 
-1.0486704384694301

>  <r_i_glide_ligand_efficiency_sa>  (990) 
-0.50054634721297098

>  <r_i_glide_lipo>  (990) 
-1.61301302531292

>  <r_i_glide_metal>  (990) 
-0

>  <r_i_glide_rewards>  (990) 
-1.11509697954545

>  <r_lp_Energy>  (990) 
31.680219999999998

>  <r_qp_ACxDN^.5/SA>  (990) 
0.0063860000000000002

>  <r_qp_CIQPlogS>  (990) 
-4.8150000000000004

>  <r_qp_EA(eV)>  (990) 
0.87

>  <r_qp_FISA>  (990) 
12.663

>  <r_qp_FOSA>  (990) 
363.09300000000002

>  <r_qp_IP(eV)>  (990) 
8.0619999999999994

>  <r_qp_Jm>  (990) 
0.0165093503810196

>  <r_qp_PISA>  (990) 
294.41899999999998

>  <r_qp_PSA>  (990) 
32.183

>  <r_qp_PercentHumanOralAbsorption>  (990) 
100

>  <r_qp_QPPCaco>  (990) 
1873.7909999999999

>  <r_qp_QPPMDCK>  (990) 
1667.0450000000001

>  <r_qp_QPlogBB>  (990) 
0.48899999999999999

>  <r_qp_QPlogHERG>  (990) 
-7.0940000000000003

>  <r_qp_QPlogKhsa>  (990) 
0.78000000000000003

>  <r_qp_QPlogKp>  (990) 
-2.1059999999999999

>  <r_qp_QPlogPC16>  (990) 
11.874000000000001

>  <r_qp_QPlogPo/w>  (990) 
4.9740000000000002

>  <r_qp_QPlogPoct>  (990) 
17.260999999999999

>  <r_qp_QPlogPw>  (990) 
7.8689999999999998

>  <r_qp_QPlogS>  (990) 
-5.242

>  <r_qp_QPpolrz>  (990) 
41.392000000000003

>  <r_qp_SASA>  (990) 
704.66499999999996

>  <r_qp_SAamideO>  (990) 
0

>  <r_qp_SAfluorine>  (990) 
34.490000000000002

>  <r_qp_WPSA>  (990) 
34.490000000000002

>  <r_qp_accptHB>  (990) 
4.5

>  <r_qp_dip^2/V>  (990) 
0.019355899999999999

>  <r_qp_dipole>  (990) 
4.8799999999999999

>  <r_qp_donorHB>  (990) 
1

>  <r_qp_glob>  (990) 
0.78791299999999997

>  <r_qp_mol_MW>  (990) 
368.44999999999999

>  <r_qp_volume>  (990) 
1230.1110000000001

>  <r_sd_BIOSOLVEIT.INFINISEE\_FTREES\_SIMILARITY>  (990) 
0.91000000000000003

>  <r_sd_BIOSOLVEIT.LOGP>  (990) 
3.2526999999999999

>  <r_sd_BIOSOLVEIT.MOLECULAR\_WEIGHT>  (990) 
369.45699999999999

>  <r_sd_BIOSOLVEIT.TPSA>  (990) 
34.93

>  <i_epik_Tot_Q>  (990) 
1

>  <i_epik_Tot_abs_Q>  (990) 
1

>  <i_f3d_flags>  (990) 
0

>  <i_i_glide_confnum>  (990) 
5

>  <i_i_glide_lignum>  (990) 
453

>  <i_i_glide_posenum>  (990) 
13

>  <i_i_glide_rotatable_bonds>  (990) 
7

>  <i_lp_mmshare_version>  (990) 
65135

>  <i_m_ct_format>  (990) 
2

>  <i_m_source_file_index>  (990) 
1286

>  <i_qp_#NandO>  (990) 
4

>  <i_qp_#acid>  (990) 
0

>  <i_qp_#amide>  (990) 
0

>  <i_qp_#amidine>  (990) 
0

>  <i_qp_#amine>  (990) 
1

>  <i_qp_#in34>  (990) 
0

>  <i_qp_#in56>  (990) 
16

>  <i_qp_#metab>  (990) 
7

>  <i_qp_#nonHatm>  (990) 
27

>  <i_qp_#noncon>  (990) 
0

>  <i_qp_#ringatoms>  (990) 
16

>  <i_qp_#rotor>  (990) 
7

>  <i_qp_#rtvFG>  (990) 
0

>  <i_qp_#stars>  (990) 
0

>  <i_qp_CNS>  (990) 
2

>  <i_qp_HumanOralAbsorption>  (990) 
3

>  <i_qp_RuleOfFive>  (990) 
0

>  <i_qp_RuleOfThree>  (990) 
1

>  <i_sd_BIOSOLVEIT.INFINISEE\_REAGENT1\_NAME>  (990) 
8156874

>  <i_sd_BIOSOLVEIT.INFINISEE\_REAGENT2\_NAME>  (990) 
24720236

>  <i_sd_BIOSOLVEIT.INFINISEE\_RESULT\_RANK>  (990) 
45812

>  <i_sd_version>  (990) 
0

>  <b_lp_Chiralities_Consistent>  (990) 
1

>  <b_sd_chiral_flag>  (990) 
0

>  <canonical_id>  (990) 
ATP-HTVS-9DADF577E8AC

>  <compound_code>  (990) 
41122

>  <title>  (990) 
m_270004dbb____8156874____24720236

>  <variant>  (990) 
41122-1

>  <source_file>  (990) 
运行/运行/ATP-VSW/ATP-VSW-DOCK_HTVS_1-002_lib.maegz

>  <canonical_smiles>  (990) 
COc1cc(CNc2ccc(C[NH+](C)C)c(F)c2)c(OC)c2ccccc12

>  <scaffold>  (990) 
c1ccc(NCc2ccc3ccccc3c2)cc1

>  <molecular_formula>  (990) 
C22H26FN2O2+

$$$$
ATP-HTVS-9DBDBA397665
     RDKit          3D

 63 66  0  0  0  0  0  0  0  0999 V2000
  197.2430  179.0546  151.7160 O   0  0  0  0  0  0  0  0  0  0  0  0
  196.6916  180.1374  151.4236 C   0  0  0  0  0  0  0  0  0  0  0  0
  195.5945  180.2392  150.8326 O   0  0  0  0  0  0  0  0  0  0  0  0
  197.3716  181.4339  151.9146 C   0  0  2  0  0  0  0  0  0  0  0  0
  196.7411  182.0180  153.1217 N   0  0  0  0  0  0  0  0  0  0  0  0
  196.4378  181.0519  154.1707 C   0  0  1  0  0  0  0  0  0  0  0  0
  197.6879  180.5966  154.8802 C   0  0  0  0  0  0  0  0  0  0  0  0
  198.4677  181.5767  155.5755 C   0  0  0  0  0  0  0  0  0  0  0  0
  199.5230  181.1620  156.4316 C   0  0  0  0  0  0  0  0  0  0  0  0
  200.1190  181.9901  157.3862 O   0  0  0  0  0  0  0  0  0  0  0  0
  199.5898  183.2863  157.6204 C   0  0  1  0  0  0  0  0  0  0  0  0
  198.1874  183.2683  158.2485 C   0  0  0  0  0  0  0  0  0  0  0  0
  197.8311  184.2114  159.2173 C   0  0  0  0  0  0  0  0  0  0  0  0
  196.5219  184.1867  159.7551 C   0  0  0  0  0  0  0  0  0  0  0  0
  195.5701  183.2546  159.2950 C   0  0  0  0  0  0  0  0  0  0  0  0
  195.9005  182.3320  158.3284 C   0  0  0  0  0  0  0  0  0  0  0  0
  197.1997  182.3449  157.9175 C   0  0  0  0  0  0  0  0  0  0  0  0
  200.0130  179.8741  156.3099 C   0  0  0  0  0  0  0  0  0  0  0  0
  199.3916  178.9513  155.4290 C   0  0  0  0  0  0  0  0  0  0  0  0
  199.8967  177.7036  155.1401 O   0  0  0  0  0  0  0  0  0  0  0  0
  201.1263  177.3280  155.7380 C   0  0  1  0  0  0  0  0  0  0  0  0
  201.5444  175.9384  155.3009 C   0  0  0  0  0  0  0  0  0  0  0  0
  202.3534  175.1428  156.1373 C   0  0  0  0  0  0  0  0  0  0  0  0
  202.7565  173.8590  155.7216 C   0  0  0  0  0  0  0  0  0  0  0  0
  202.3502  173.3664  154.4669 C   0  0  0  0  0  0  0  0  0  0  0  0
  201.5483  174.1602  153.6248 C   0  0  0  0  0  0  0  0  0  0  0  0
  201.1503  175.4453  154.0392 C   0  0  0  0  0  0  0  0  0  0  0  0
  198.1993  179.3255  154.7778 C   0  0  0  0  0  0  0  0  0  0  0  0
  197.3266  182.3401  150.7225 C   0  0  0  0  0  0  0  0  0  0  0  0
  198.2655  182.1795  149.6767 C   0  0  0  0  0  0  0  0  0  0  0  0
  198.2806  183.0378  148.5620 C   0  0  0  0  0  0  0  0  0  0  0  0
  197.3427  184.0819  148.4642 C   0  0  0  0  0  0  0  0  0  0  0  0
  196.3749  184.2418  149.4743 C   0  0  0  0  0  0  0  0  0  0  0  0
  196.3655  183.3699  150.5837 C   0  0  0  0  0  0  0  0  0  0  0  0
  197.3732  185.0298  147.2842 C   0  0  2  0  0  0  0  0  0  0  0  0
  195.9541  182.6072  152.9133 H   0  0  0  0  0  0  0  0  0  0  0  0
  198.4070  181.1903  152.1602 H   0  0  0  0  0  0  0  0  0  0  0  0
  195.7327  181.5137  154.8643 H   0  0  0  0  0  0  0  0  0  0  0  0
  195.9023  180.1838  153.7719 H   0  0  0  0  0  0  0  0  0  0  0  0
  197.9520  182.5125  155.7156 H   0  0  0  0  0  0  0  0  0  0  0  0
  200.2614  183.8312  158.2916 H   0  0  0  0  0  0  0  0  0  0  0  0
  199.5664  183.8511  156.6857 H   0  0  0  0  0  0  0  0  0  0  0  0
  198.5529  184.9300  159.5685 H   0  0  0  0  0  0  0  0  0  0  0  0
  196.2478  184.8825  160.5074 H   0  0  0  0  0  0  0  0  0  0  0  0
  194.5696  183.2188  159.6926 H   0  0  0  0  0  0  0  0  0  0  0  0
  195.2303  181.5802  157.9231 H   0  0  0  0  0  0  0  0  0  0  0  0
  197.2913  181.4872  157.3371 H   0  0  0  0  0  0  0  0  0  0  0  0
  200.9109  179.6245  156.8489 H   0  0  0  0  0  0  0  0  0  0  0  0
  201.9196  178.0212  155.4522 H   0  0  0  0  0  0  0  0  0  0  0  0
  201.0297  177.3526  156.8244 H   0  0  0  0  0  0  0  0  0  0  0  0
  202.6737  175.5155  157.0998 H   0  0  0  0  0  0  0  0  0  0  0  0
  203.3727  173.2496  156.3666 H   0  0  0  0  0  0  0  0  0  0  0  0
  202.6556  172.3793  154.1485 H   0  0  0  0  0  0  0  0  0  0  0  0
  201.2402  173.7857  152.6600 H   0  0  0  0  0  0  0  0  0  0  0  0
  200.5377  176.0521  153.3877 H   0  0  0  0  0  0  0  0  0  0  0  0
  197.7235  178.6339  154.1021 H   0  0  0  0  0  0  0  0  0  0  0  0
  199.0004  181.3897  149.7408 H   0  0  0  0  0  0  0  0  0  0  0  0
  199.0253  182.8988  147.7925 H   0  0  0  0  0  0  0  0  0  0  0  0
  195.6431  185.0287  149.4053 H   0  0  0  0  0  0  0  0  0  0  0  0
  195.6164  183.5145  151.3473 H   0  0  0  0  0  0  0  0  0  0  0  0
  197.1469  186.0444  147.6070 H   0  0  0  0  0  0  0  0  0  0  0  0
  196.6326  184.7350  146.5418 H   0  0  0  0  0  0  0  0  0  0  0  0
  198.3552  185.0351  146.8105 H   0  0  0  0  0  0  0  0  0  0  0  0
  1  2  1  0
  2  3  2  0
  2  4  1  0
  4  5  1  0
  4 29  1  0
  4 37  1  1
  5  6  1  0
  5 36  1  0
  6  7  1  0
  6 38  1  1
  6 39  1  0
  7  8  2  0
  7 28  1  0
  8  9  1  0
  8 40  1  0
  9 10  1  0
  9 18  2  0
 10 11  1  0
 11 12  1  0
 11 41  1  1
 11 42  1  0
 12 13  2  0
 12 17  1  0
 13 14  1  0
 13 43  1  0
 14 15  2  0
 14 44  1  0
 15 16  1  0
 15 45  1  0
 16 17  2  0
 16 46  1  0
 17 47  1  0
 18 19  1  0
 18 48  1  0
 19 20  1  0
 19 28  2  0
 20 21  1  0
 21 22  1  0
 21 49  1  1
 21 50  1  0
 22 23  2  0
 22 27  1  0
 23 24  1  0
 23 51  1  0
 24 25  2  0
 24 52  1  0
 25 26  1  0
 25 53  1  0
 26 27  2  0
 26 54  1  0
 27 55  1  0
 28 56  1  0
 29 30  1  0
 29 34  2  0
 30 31  2  0
 30 57  1  0
 31 32  1  0
 31 58  1  0
 32 33  2  0
 32 35  1  0
 33 34  1  0
 33 59  1  0
 34 60  1  0
 35 61  1  1
 35 62  1  0
 35 63  1  0
M  CHG  1   1  -1
M  END
>  <s_epik_cmdline>  (991) 
J2VwaWtfcHl0aG9uJywgJy1waCcsICc3LjAwMDAwMCcsICctcGh0JywgJzIuMDAwMDAwJywgJy1tcycsICcxNicsICctdG4nLCAnOCcsICctbWEnLCAnMjAwJywgJy1pbWFlJywgJzxpbmZpbGUubWFlPicsICctb21hZScsICc8b3V0ZmlsZS5tYWU+Jw==

>  <s_epik_input>  (991) 
W2NIXTFbY0hdYyhbQ0gzXSlbY0hdW2NIXWMxW0NASF0oQyg9TylbT0hdKVtOSF1bQ0gyXWMyW2NIXWMoT1tDSDJdYzNbY0hdW2NIXVtjSF1bY0hdW2NIXTMpW2NIXWMoW2NIXTIpT1tDSDJdYzRbY0hdW2NIXVtjSF1bY0hdW2NIXTQ=

>  <s_i_glide_gridfile>  (991) 
ATP-Grid

>  <s_lp_Force_Field>  (991) 
OPLS_2005

>  <s_lp_Variant>  (991) 
rxn207____EMOL2869317____EMOL36552477-3

>  <s_lp_label>  (991) 
2860_sdstereoexpander_1_neutralizer_1_epik_2_stereoizer_1

>  <s_m_source_file>  (991) 
ATP-VSW-LIGPREP-001-in.maegz

>  <s_sd_BIOSOLVEIT.INFINISEE\_QUERY\_NAME>  (991) 
Ref-Lig

>  <s_sd_BIOSOLVEIT.INFINISEE\_QUERY\_SMILES>  (991) 
S(c1nc2c(cc1C[NH2+]Cc3ccc(cc3)C[NH+](C)C)cccc2)Cc4ccccc4

>  <s_sd_BIOSOLVEIT.INFINISEE\_REACTION\_NAME>  (991) 
rxn207

>  <s_sd_BIOSOLVEIT.INFINISEE\_REAGENT1\_NAME>  (991) 
EMOL2869317

>  <s_sd_BIOSOLVEIT.INFINISEE\_REAGENT1\_SMILES>  (991) 
O=C(O)C(=O)c1ccc(cc1)C

>  <s_sd_BIOSOLVEIT.INFINISEE\_REAGENT2\_NAME>  (991) 
EMOL36552477

>  <s_sd_BIOSOLVEIT.INFINISEE\_REAGENT2\_SMILES>  (991) 
O(c1cc(OCc2ccccc2)cc(c1)CN)Cc3ccccc3

>  <s_sd_BIOSOLVEIT.INFINISEE\_SPACE>  (991) 
eXplore_7tr_2022-12

>  <s_vsw_compound_code>  (991) 
91489

>  <s_vsw_variant>  (991) 
91489-3

>  <r_epik_Charging_Adjusted_Penalty>  (991) 
1.6297927606725899

>  <r_epik_Ionization_Penalty>  (991) 
1.6297999999999999

>  <r_epik_Ionization_Penalty_Charging>  (991) 
0.0035999999999999999

>  <r_epik_Ionization_Penalty_Neutral>  (991) 
1.6262000000000001

>  <r_epik_State_Penalty>  (991) 
1.6262000000000001

>  <r_i_docking_score>  (991) 
-1.6179247319782

>  <r_i_glide_ecoul>  (991) 
2.28373003005981

>  <r_i_glide_eff_state_penalty>  (991) 
1.6262000000000001

>  <r_i_glide_einternal>  (991) 
2.4211955070495601

>  <r_i_glide_emodel>  (991) 
-47.561830491271202

>  <r_i_glide_energy>  (991) 
-39.892047405242899

>  <r_i_glide_erotb>  (991) 
0.92690171688237299

>  <r_i_glide_esite>  (991) 
0

>  <r_i_glide_evdw>  (991) 
-42.175777435302699

>  <r_i_glide_gscore>  (991) 
-3.2441247319782001

>  <r_i_glide_hbond>  (991) 
0

>  <r_i_glide_ligand_efficiency>  (991) 
-0.046226420913662698

>  <r_i_glide_ligand_efficiency_ln>  (991) 
-0.35517038657397298

>  <r_i_glide_ligand_efficiency_sa>  (991) 
-0.15120968791207801

>  <r_i_glide_lipo>  (991) 
-1.9532027181310001

>  <r_i_glide_metal>  (991) 
-0

>  <r_i_glide_rewards>  (991) 
-0.45159436347340398

>  <r_lp_Energy>  (991) 
34.455098

>  <r_lp_tautomer_probability>  (991) 
1

>  <r_qp_ACxDN^.5/SA>  (991) 
0.0092125999999999996

>  <r_qp_CIQPlogS>  (991) 
-7.0330000000000004

>  <r_qp_EA(eV)>  (991) 
0.001

>  <r_qp_FISA>  (991) 
104.124

>  <r_qp_FOSA>  (991) 
152.90600000000001

>  <r_qp_IP(eV)>  (991) 
9.0090000000000003

>  <r_qp_Jm>  (991) 
0.0012797289470345601

>  <r_qp_PISA>  (991) 
510.51299999999998

>  <r_qp_PSA>  (991) 
73.760999999999996

>  <r_qp_PercentHumanOralAbsorption>  (991) 
83.738

>  <r_qp_QPPCaco>  (991) 
64.415999999999997

>  <r_qp_QPPMDCK>  (991) 
35.920000000000002

>  <r_qp_QPlogBB>  (991) 
-0.75900000000000001

>  <r_qp_QPlogHERG>  (991) 
-5.96

>  <r_qp_QPlogKhsa>  (991) 
0.91300000000000003

>  <r_qp_QPlogKp>  (991) 
-2.6469999999999998

>  <r_qp_QPlogPC16>  (991) 
16.533000000000001

>  <r_qp_QPlogPo/w>  (991) 
4.1699999999999999

>  <r_qp_QPlogPoct>  (991) 
22.780999999999999

>  <r_qp_QPlogPw>  (991) 
11.175000000000001

>  <r_qp_QPlogS>  (991) 
-5.9160000000000004

>  <r_qp_QPpolrz>  (991) 
49.988999999999997

>  <r_qp_SASA>  (991) 
767.54200000000003

>  <r_qp_SAamideO>  (991) 
0

>  <r_qp_SAfluorine>  (991) 
0

>  <r_qp_WPSA>  (991) 
0

>  <r_qp_accptHB>  (991) 
5

>  <r_qp_dip^2/V>  (991) 
0.0271956

>  <r_qp_dipole>  (991) 
6.2960000000000003

>  <r_qp_donorHB>  (991) 
2

>  <r_qp_glob>  (991) 
0.80998049999999999

>  <r_qp_mol_MW>  (991) 
467.56299999999999

>  <r_qp_volume>  (991) 
1457.53

>  <r_sd_BIOSOLVEIT.INFINISEE\_FTREES\_SIMILARITY>  (991) 
0.90500000000000003

>  <r_sd_BIOSOLVEIT.LOGP>  (991) 
3.7076199999999999

>  <r_sd_BIOSOLVEIT.MOLECULAR\_WEIGHT>  (991) 
467.56200000000001

>  <r_sd_BIOSOLVEIT.TPSA>  (991) 
75.200000000000003

>  <i_epik_Tot_Q>  (991) 
-1

>  <i_epik_Tot_abs_Q>  (991) 
1

>  <i_f3d_flags>  (991) 
0

>  <i_i_glide_confnum>  (991) 
12

>  <i_i_glide_lignum>  (991) 
1320

>  <i_i_glide_posenum>  (991) 
10

>  <i_i_glide_rotatable_bonds>  (991) 
11

>  <i_lp_mmshare_version>  (991) 
65135

>  <i_m_ct_format>  (991) 
2

>  <i_m_source_file_index>  (991) 
2860

>  <i_qp_#NandO>  (991) 
5

>  <i_qp_#acid>  (991) 
1

>  <i_qp_#amide>  (991) 
0

>  <i_qp_#amidine>  (991) 
0

>  <i_qp_#amine>  (991) 
1

>  <i_qp_#in34>  (991) 
0

>  <i_qp_#in56>  (991) 
24

>  <i_qp_#metab>  (991) 
8

>  <i_qp_#nonHatm>  (991) 
35

>  <i_qp_#noncon>  (991) 
0

>  <i_qp_#ringatoms>  (991) 
24

>  <i_qp_#rotor>  (991) 
11

>  <i_qp_#rtvFG>  (991) 
0

>  <i_qp_#stars>  (991) 
1

>  <i_qp_CNS>  (991) 
-1

>  <i_qp_HumanOralAbsorption>  (991) 
2

>  <i_qp_RuleOfFive>  (991) 
0

>  <i_qp_RuleOfThree>  (991) 
2

>  <i_sd_BIOSOLVEIT.INFINISEE\_RESULT\_RANK>  (991) 
70107

>  <i_sd_version>  (991) 
0

>  <b_lp_Chiralities_Consistent>  (991) 
1

>  <b_sd_chiral_flag>  (991) 
0

>  <canonical_id>  (991) 
ATP-HTVS-9DBDBA397665

>  <compound_code>  (991) 
91489

>  <title>  (991) 
rxn207____EMOL2869317____EMOL36552477

>  <variant>  (991) 
91489-3

>  <source_file>  (991) 
运行/运行/ATP-VSW/ATP-VSW-DOCK_HTVS_1-001_lib/ATP-VSW-DOCK_HTVS_1-001_lib

>  <canonical_smiles>  (991) 
Cc1ccc([C@@H](NCc2cc(OCc3ccccc3)cc(OCc3ccccc3)c2)C(=O)[O-])cc1

>  <scaffold>  (991) 
c1ccc(CNCc2cc(OCc3ccccc3)cc(OCc3ccccc3)c2)cc1

>  <molecular_formula>  (991) 
C30H28NO4-

$$$$
ATP-HTVS-9DFA3785F0DB
     RDKit          3D

 50 53  0  0  0  0  0  0  0  0999 V2000
  196.5898  187.5766  157.9259 O   0  0  0  0  0  0  0  0  0  0  0  0
  196.9937  186.4706  157.5616 C   0  0  0  0  0  0  0  0  0  0  0  0
  197.9838  186.3008  156.6368 N   0  0  0  0  0  0  0  0  0  0  0  0
  198.6786  187.4198  156.0660 C   0  0  0  0  0  0  0  0  0  0  0  0
  199.1838  188.4610  156.8853 C   0  0  0  0  0  0  0  0  0  0  0  0
  199.8645  189.5564  156.3205 C   0  0  0  0  0  0  0  0  0  0  0  0
  200.0640  189.6236  154.9299 C   0  0  0  0  0  0  0  0  0  0  0  0
  199.5746  188.5945  154.1048 C   0  0  0  0  0  0  0  0  0  0  0  0
  198.8878  187.5010  154.6677 C   0  0  0  0  0  0  0  0  0  0  0  0
  198.2856  185.0178  156.1354 C   0  0  0  0  0  0  0  0  0  0  0  0
  197.6904  183.8862  156.5623 C   0  0  0  0  0  0  0  0  0  0  0  0
  196.7069  183.9399  157.6714 C   0  0  0  0  0  0  0  0  0  0  0  0
  196.3607  185.2295  158.1515 C   0  0  0  0  0  0  0  0  0  0  0  0
  195.4058  185.3586  159.1859 C   0  0  0  0  0  0  0  0  0  0  0  0
  194.7989  184.2216  159.7432 C   0  0  0  0  0  0  0  0  0  0  0  0
  195.1787  182.9422  159.3062 C   0  0  0  0  0  0  0  0  0  0  0  0
  196.1372  182.7987  158.2938 C   0  0  0  0  0  0  0  0  0  0  0  0
  198.0262  182.6221  155.9126 C   0  0  0  0  0  0  0  0  0  0  0  0
  199.1708  182.2682  155.6307 O   0  0  0  0  0  0  0  0  0  0  0  0
  196.9409  181.8906  155.6142 N   0  0  0  0  0  0  0  0  0  0  0  0
  196.9498  180.5652  155.0201 C   0  0  1  0  0  0  0  0  0  0  0  0
  197.1476  180.5729  153.5134 C   0  0  0  0  0  0  0  0  0  0  0  0
  196.7124  181.6667  152.7317 C   0  0  0  0  0  0  0  0  0  0  0  0
  196.9162  181.6815  151.3357 C   0  0  0  0  0  0  0  0  0  0  0  0
  196.5088  182.7533  150.5291 N   0  0  0  0  0  0  0  0  0  0  0  0
  196.0981  184.0134  151.1249 C   0  0  2  0  0  0  0  0  0  0  0  0
  197.5516  180.5817  150.7240 C   0  0  0  0  0  0  0  0  0  0  0  0
  197.9755  179.4807  151.4954 C   0  0  0  0  0  0  0  0  0  0  0  0
  197.7724  179.4761  152.8872 C   0  0  0  0  0  0  0  0  0  0  0  0
  199.0527  188.4318  157.9590 H   0  0  0  0  0  0  0  0  0  0  0  0
  200.2365  190.3430  156.9600 H   0  0  0  0  0  0  0  0  0  0  0  0
  200.5902  190.4625  154.4989 H   0  0  0  0  0  0  0  0  0  0  0  0
  199.7225  188.6433  153.0361 H   0  0  0  0  0  0  0  0  0  0  0  0
  198.5010  186.7385  154.0056 H   0  0  0  0  0  0  0  0  0  0  0  0
  199.0276  184.9958  155.3490 H   0  0  0  0  0  0  0  0  0  0  0  0
  195.1153  186.3340  159.5456 H   0  0  0  0  0  0  0  0  0  0  0  0
  194.0562  184.3328  160.5184 H   0  0  0  0  0  0  0  0  0  0  0  0
  194.7353  182.0566  159.7316 H   0  0  0  0  0  0  0  0  0  0  0  0
  196.4024  181.7878  158.0151 H   0  0  0  0  0  0  0  0  0  0  0  0
  196.0295  182.2702  155.8379 H   0  0  0  0  0  0  0  0  0  0  0  0
  197.7113  179.9488  155.5039 H   0  0  0  0  0  0  0  0  0  0  0  0
  195.9944  180.0912  155.2430 H   0  0  0  0  0  0  0  0  0  0  0  0
  196.2208  182.4974  153.2155 H   0  0  0  0  0  0  0  0  0  0  0  0
  196.7655  182.7503  149.5527 H   0  0  0  0  0  0  0  0  0  0  0  0
  195.9523  184.7530  150.3382 H   0  0  0  0  0  0  0  0  0  0  0  0
  196.8528  184.3914  151.8158 H   0  0  0  0  0  0  0  0  0  0  0  0
  195.1578  183.8975  151.6636 H   0  0  0  0  0  0  0  0  0  0  0  0
  197.7196  180.5770  149.6571 H   0  0  0  0  0  0  0  0  0  0  0  0
  198.4655  178.6436  151.0191 H   0  0  0  0  0  0  0  0  0  0  0  0
  198.1101  178.6407  153.4789 H   0  0  0  0  0  0  0  0  0  0  0  0
  1  2  2  0
  2  3  1  0
  2 13  1  0
  3  4  1  0
  3 10  1  0
  4  5  2  0
  4  9  1  0
  5  6  1  0
  5 30  1  0
  6  7  2  0
  6 31  1  0
  7  8  1  0
  7 32  1  0
  8  9  2  0
  8 33  1  0
  9 34  1  0
 10 11  2  0
 10 35  1  0
 11 12  1  0
 11 18  1  0
 12 13  1  0
 12 17  2  0
 13 14  2  0
 14 15  1  0
 14 36  1  0
 15 16  2  0
 15 37  1  0
 16 17  1  0
 16 38  1  0
 17 39  1  0
 18 19  2  0
 18 20  1  0
 20 21  1  0
 20 40  1  0
 21 22  1  0
 21 41  1  1
 21 42  1  0
 22 23  1  0
 22 29  2  0
 23 24  2  0
 23 43  1  0
 24 25  1  0
 24 27  1  0
 25 26  1  0
 25 44  1  0
 26 45  1  6
 26 46  1  0
 26 47  1  0
 27 28  2  0
 27 48  1  0
 28 29  1  0
 28 49  1  0
 29 50  1  0
M  END
>  <s_epik_cmdline>  (992) 
J2VwaWtfcHl0aG9uJywgJy1waCcsICc3LjAwMDAwMCcsICctcGh0JywgJzIuMDAwMDAwJywgJy1tcycsICcxNicsICctdG4nLCAnOCcsICctbWEnLCAnMjAwJywgJy1pbWFlJywgJzxpbmZpbGUubWFlPicsICctb21hZScsICc8b3V0ZmlsZS5tYWU+Jw==

>  <s_epik_input>  (992) 
W2NIXTFbY0hdW2NIXVtjSF1bY0hdYzEtbihjKD1PKWMoYzIzKVtjSF1bY0hdW2NIXVtjSF0zKVtjSF1jMkMoPU8pW05IXVtDSDJdYzRbY0hdYyhbTkhdW0NIM10pW2NIXVtjSF1bY0hdNA==

>  <s_i_glide_gridfile>  (992) 
ATP-Grid

>  <s_lp_Force_Field>  (992) 
OPLS_2005

>  <s_lp_Variant>  (992) 
rxn101____EMOL45491381____EMOL31508813-1

>  <s_lp_label>  (992) 
2619_sdstereoexpander_1_neutralizer_1_epik_1_stereoizer_1

>  <s_m_source_file>  (992) 
ATP-VSW-LIGPREP-002-in.maegz

>  <s_sd_BIOSOLVEIT.INFINISEE\_QUERY\_NAME>  (992) 
Ref-Lig

>  <s_sd_BIOSOLVEIT.INFINISEE\_QUERY\_SMILES>  (992) 
S(c1nc2c(cc1C[NH2+]Cc3ccc(cc3)C[NH+](C)C)cccc2)Cc4ccccc4

>  <s_sd_BIOSOLVEIT.INFINISEE\_REACTION\_NAME>  (992) 
rxn101

>  <s_sd_BIOSOLVEIT.INFINISEE\_REAGENT1\_NAME>  (992) 
EMOL45491381

>  <s_sd_BIOSOLVEIT.INFINISEE\_REAGENT1\_SMILES>  (992) 
N(c1cc(ccc1)CN)C

>  <s_sd_BIOSOLVEIT.INFINISEE\_REAGENT2\_NAME>  (992) 
EMOL31508813

>  <s_sd_BIOSOLVEIT.INFINISEE\_REAGENT2\_SMILES>  (992) 
O=C1N(c2ccccc2)C=C(c3c1cccc3)C(=O)O

>  <s_sd_BIOSOLVEIT.INFINISEE\_SPACE>  (992) 
eXplore_7tr_2022-12

>  <s_vsw_compound_code>  (992) 
83778

>  <s_vsw_variant>  (992) 
83778-1

>  <r_epik_Charging_Adjusted_Penalty>  (992) 
0.0028305593992636502

>  <r_epik_Ionization_Penalty>  (992) 
0.0028

>  <r_epik_Ionization_Penalty_Charging>  (992) 
0

>  <r_epik_Ionization_Penalty_Neutral>  (992) 
0.0028

>  <r_epik_State_Penalty>  (992) 
0.0028

>  <r_i_docking_score>  (992) 
-3.13995854180973

>  <r_i_glide_ecoul>  (992) 
-1.4108579158782999

>  <r_i_glide_eff_state_penalty>  (992) 
0.0028

>  <r_i_glide_einternal>  (992) 
1.86980044841766

>  <r_i_glide_emodel>  (992) 
-41.406773700634602

>  <r_i_glide_energy>  (992) 
-34.7327687740326

>  <r_i_glide_erotb>  (992) 
0.66083210790348601

>  <r_i_glide_esite>  (992) 
-0.063314805413500999

>  <r_i_glide_evdw>  (992) 
-33.321910858154297

>  <r_i_glide_gscore>  (992) 
-3.1427585418097301

>  <r_i_glide_hbond>  (992) 
0

>  <r_i_glide_ligand_efficiency>  (992) 
-0.108274432476198

>  <r_i_glide_ligand_efficiency_ln>  (992) 
-0.71897088359582395

>  <r_i_glide_ligand_efficiency_sa>  (992) 
-0.33265336031482801

>  <r_i_glide_lipo>  (992) 
-0.99807619003515002

>  <r_i_glide_metal>  (992) 
-0

>  <r_i_glide_rewards>  (992) 
-0.86447542397511001

>  <r_lp_Energy>  (992) 
44.543708000000002

>  <r_qp_ACxDN^.5/SA>  (992) 
0.0132981

>  <r_qp_CIQPlogS>  (992) 
-5.6959999999999997

>  <r_qp_EA(eV)>  (992) 
0.71699999999999997

>  <r_qp_FISA>  (992) 
96.686999999999998

>  <r_qp_FOSA>  (992) 
116.489

>  <r_qp_IP(eV)>  (992) 
8.1270000000000007

>  <r_qp_Jm>  (992) 
0.036514242201444301

>  <r_qp_PISA>  (992) 
478.07900000000001

>  <r_qp_PSA>  (992) 
74.576999999999998

>  <r_qp_PercentHumanOralAbsorption>  (992) 
100

>  <r_qp_QPPCaco>  (992) 
1199.5440000000001

>  <r_qp_QPPMDCK>  (992) 
602.22299999999996

>  <r_qp_QPlogBB>  (992) 
-0.66700000000000004

>  <r_qp_QPlogHERG>  (992) 
-6.9349999999999996

>  <r_qp_QPlogKhsa>  (992) 
0.51300000000000001

>  <r_qp_QPlogKp>  (992) 
-1.2330000000000001

>  <r_qp_QPlogPC16>  (992) 
14.255000000000001

>  <r_qp_QPlogPo/w>  (992) 
4.093

>  <r_qp_QPlogPoct>  (992) 
22.152000000000001

>  <r_qp_QPlogPw>  (992) 
13.742000000000001

>  <r_qp_QPlogS>  (992) 
-5.7880000000000003

>  <r_qp_QPpolrz>  (992) 
45.423999999999999

>  <r_qp_SASA>  (992) 
691.25599999999997

>  <r_qp_SAamideO>  (992) 
0

>  <r_qp_SAfluorine>  (992) 
0

>  <r_qp_WPSA>  (992) 
0

>  <r_qp_accptHB>  (992) 
6.5

>  <r_qp_dip^2/V>  (992) 
0.035035900000000002

>  <r_qp_dipole>  (992) 
6.5880000000000001

>  <r_qp_donorHB>  (992) 
2

>  <r_qp_glob>  (992) 
0.80702359999999995

>  <r_qp_mol_MW>  (992) 
383.44900000000001

>  <r_qp_volume>  (992) 
1238.9100000000001

>  <r_sd_BIOSOLVEIT.INFINISEE\_FTREES\_SIMILARITY>  (992) 
0.91100000000000003

>  <r_sd_BIOSOLVEIT.LOGP>  (992) 
3.9624000000000001

>  <r_sd_BIOSOLVEIT.MOLECULAR\_WEIGHT>  (992) 
383.44900000000001

>  <r_sd_BIOSOLVEIT.TPSA>  (992) 
63.130000000000003

>  <i_epik_Tot_Q>  (992) 
0

>  <i_epik_Tot_abs_Q>  (992) 
0

>  <i_f3d_flags>  (992) 
0

>  <i_i_glide_confnum>  (992) 
6

>  <i_i_glide_lignum>  (992) 
1206

>  <i_i_glide_posenum>  (992) 
10

>  <i_i_glide_rotatable_bonds>  (992) 
6

>  <i_lp_mmshare_version>  (992) 
65135

>  <i_m_ct_format>  (992) 
2

>  <i_m_source_file_index>  (992) 
2619

>  <i_qp_#NandO>  (992) 
5

>  <i_qp_#acid>  (992) 
0

>  <i_qp_#amide>  (992) 
0

>  <i_qp_#amidine>  (992) 
0

>  <i_qp_#amine>  (992) 
0

>  <i_qp_#in34>  (992) 
0

>  <i_qp_#in56>  (992) 
22

>  <i_qp_#metab>  (992) 
4

>  <i_qp_#nonHatm>  (992) 
29

>  <i_qp_#noncon>  (992) 
0

>  <i_qp_#ringatoms>  (992) 
22

>  <i_qp_#rotor>  (992) 
4

>  <i_qp_#rtvFG>  (992) 
0

>  <i_qp_#stars>  (992) 
1

>  <i_qp_CNS>  (992) 
0

>  <i_qp_HumanOralAbsorption>  (992) 
3

>  <i_qp_RuleOfFive>  (992) 
0

>  <i_qp_RuleOfThree>  (992) 
1

>  <i_sd_BIOSOLVEIT.INFINISEE\_RESULT\_RANK>  (992) 
43347

>  <i_sd_version>  (992) 
0

>  <b_lp_Chiralities_Consistent>  (992) 
1

>  <b_sd_chiral_flag>  (992) 
0

>  <canonical_id>  (992) 
ATP-HTVS-9DFA3785F0DB

>  <compound_code>  (992) 
83778

>  <title>  (992) 
rxn101____EMOL45491381____EMOL31508813

>  <variant>  (992) 
83778-1

>  <source_file>  (992) 
运行/运行/ATP-VSW/ATP-VSW-DOCK_HTVS_1-002_lib.maegz

>  <canonical_smiles>  (992) 
CNc1cccc(CNC(=O)c2cn(-c3ccccc3)c(=O)c3ccccc23)c1

>  <scaffold>  (992) 
O=C(NCc1ccccc1)c1cn(-c2ccccc2)c(=O)c2ccccc12

>  <molecular_formula>  (992) 
C24H21N3O2

$$$$
ATP-HTVS-9E45A7CB1B23
     RDKit          3D

 61 64  0  0  0  0  0  0  0  0999 V2000
  199.5698  181.3896  154.6537 O   0  0  0  0  0  0  0  0  0  0  0  0
  198.4875  181.0784  155.1517 C   0  0  0  0  0  0  0  0  0  0  0  0
  198.3608  180.1284  156.0835 N   0  0  0  0  0  0  0  0  0  0  0  0
  199.4745  179.4315  156.7028 C   0  0  1  0  0  0  0  0  0  0  0  0
  199.9989  178.2775  155.8613 C   0  0  0  0  0  0  0  0  0  0  0  0
  200.2021  178.4252  154.4673 C   0  0  0  0  0  0  0  0  0  0  0  0
  200.7490  177.3521  153.7343 C   0  0  0  0  0  0  0  0  0  0  0  0
  201.0822  176.1357  154.3681 C   0  0  0  0  0  0  0  0  0  0  0  0
  201.7088  175.1558  153.5975 N   0  0  0  0  0  0  0  0  0  0  0  0
  202.2033  173.9087  154.1544 C   0  0  2  0  0  0  0  0  0  0  0  0
  201.0434  172.9713  154.5283 C   0  0  2  0  0  0  0  0  0  0  0  0
  203.2184  174.1501  155.2974 C   0  0  2  0  0  0  0  0  0  0  0  0
  200.8249  175.9823  155.7531 C   0  0  0  0  0  0  0  0  0  0  0  0
  200.3049  177.0533  156.5021 C   0  0  0  0  0  0  0  0  0  0  0  0
  197.2146  181.8259  154.7617 C   0  0  1  0  0  0  0  0  0  0  0  0
  197.1918  183.0989  155.4905 N   0  0  0  0  0  0  0  0  0  0  0  0
  196.8339  183.0921  156.8430 C   0  0  0  0  0  0  0  0  0  0  0  0
  196.9923  184.4196  157.2880 C   0  0  0  0  0  0  0  0  0  0  0  0
  197.4413  185.1615  156.1927 N   0  0  0  0  0  0  0  0  0  0  0  0
  197.5733  184.3506  155.1048 C   0  0  0  0  0  0  0  0  0  0  0  0
  198.0553  184.7713  153.7551 C   0  0  1  0  0  0  0  0  0  0  0  0
  197.2564  184.2071  152.7257 O   0  0  0  0  0  0  0  0  0  0  0  0
  197.5380  184.5377  151.4193 C   0  0  0  0  0  0  0  0  0  0  0  0
  196.7627  183.9058  150.4241 C   0  0  0  0  0  0  0  0  0  0  0  0
  196.9534  184.2136  149.0646 C   0  0  0  0  0  0  0  0  0  0  0  0
  197.9277  185.1528  148.6857 C   0  0  0  0  0  0  0  0  0  0  0  0
  198.7155  185.7826  149.6675 C   0  0  0  0  0  0  0  0  0  0  0  0
  198.5269  185.4756  151.0283 C   0  0  0  0  0  0  0  0  0  0  0  0
  196.7057  184.7964  158.5970 C   0  0  0  0  0  0  0  0  0  0  0  0
  196.2726  183.7753  159.4703 C   0  0  0  0  0  0  0  0  0  0  0  0
  196.1343  182.4436  159.0309 C   0  0  0  0  0  0  0  0  0  0  0  0
  196.4076  182.0806  157.7020 C   0  0  0  0  0  0  0  0  0  0  0  0
  197.4388  179.8933  156.4381 H   0  0  0  0  0  0  0  0  0  0  0  0
  200.2796  180.1254  156.9202 H   0  0  0  0  0  0  0  0  0  0  0  0
  199.1160  179.0641  157.6617 H   0  0  0  0  0  0  0  0  0  0  0  0
  199.9472  179.3449  153.9373 H   0  0  0  0  0  0  0  0  0  0  0  0
  200.9266  177.4913  152.6775 H   0  0  0  0  0  0  0  0  0  0  0  0
  202.0130  175.4077  152.6668 H   0  0  0  0  0  0  0  0  0  0  0  0
  202.7258  173.4275  153.3391 H   0  0  0  0  0  0  0  0  0  0  0  0
  201.4267  172.0293  154.9103 H   0  0  0  0  0  0  0  0  0  0  0  0
  200.4182  172.7489  153.6597 H   0  0  0  0  0  0  0  0  0  0  0  0
  200.3678  173.3959  155.2738 H   0  0  0  0  0  0  0  0  0  0  0  0
  203.6475  173.1943  155.6194 H   0  0  0  0  0  0  0  0  0  0  0  0
  202.7941  174.6440  156.1631 H   0  0  0  0  0  0  0  0  0  0  0  0
  204.0657  174.7403  154.9260 H   0  0  0  0  0  0  0  0  0  0  0  0
  201.0550  175.0643  156.2756 H   0  0  0  0  0  0  0  0  0  0  0  0
  200.1558  176.9431  157.5714 H   0  0  0  0  0  0  0  0  0  0  0  0
  197.2492  182.0127  153.6905 H   0  0  0  0  0  0  0  0  0  0  0  0
  196.3011  181.2606  154.9682 H   0  0  0  0  0  0  0  0  0  0  0  0
  198.0134  185.8605  153.7049 H   0  0  0  0  0  0  0  0  0  0  0  0
  199.0969  184.4626  153.6406 H   0  0  0  0  0  0  0  0  0  0  0  0
  196.0115  183.1859  150.7140 H   0  0  0  0  0  0  0  0  0  0  0  0
  196.3535  183.7325  148.3065 H   0  0  0  0  0  0  0  0  0  0  0  0
  198.0718  185.3898  147.6412 H   0  0  0  0  0  0  0  0  0  0  0  0
  199.4623  186.5074  149.3796 H   0  0  0  0  0  0  0  0  0  0  0  0
  199.1451  185.9821  151.7529 H   0  0  0  0  0  0  0  0  0  0  0  0
  196.8040  185.8170  158.9322 H   0  0  0  0  0  0  0  0  0  0  0  0
  196.0481  184.0121  160.5003 H   0  0  0  0  0  0  0  0  0  0  0  0
  195.8213  181.6700  159.7181 H   0  0  0  0  0  0  0  0  0  0  0  0
  196.2797  181.0530  157.3912 H   0  0  0  0  0  0  0  0  0  0  0  0
  197.6227  186.1555  156.1712 H   0  0  0  0  0  0  0  0  0  0  0  0
  1  2  2  0
  2  3  1  0
  2 15  1  0
  3  4  1  0
  3 33  1  0
  4  5  1  0
  4 34  1  1
  4 35  1  0
  5  6  1  0
  5 14  2  0
  6  7  2  0
  6 36  1  0
  7  8  1  0
  7 37  1  0
  8  9  1  0
  8 13  2  0
  9 10  1  0
  9 38  1  0
 10 11  1  0
 10 12  1  0
 10 39  1  6
 11 40  1  1
 11 41  1  0
 11 42  1  0
 12 43  1  1
 12 44  1  0
 12 45  1  0
 13 14  1  0
 13 46  1  0
 14 47  1  0
 15 16  1  0
 15 48  1  6
 15 49  1  0
 16 17  1  0
 16 20  1  0
 17 18  1  0
 17 32  2  0
 18 19  1  0
 18 29  2  0
 19 20  2  0
 19 61  1  0
 20 21  1  0
 21 22  1  0
 21 50  1  1
 21 51  1  0
 22 23  1  0
 23 24  2  0
 23 28  1  0
 24 25  1  0
 24 52  1  0
 25 26  2  0
 25 53  1  0
 26 27  1  0
 26 54  1  0
 27 28  2  0
 27 55  1  0
 28 56  1  0
 29 30  1  0
 29 57  1  0
 30 31  2  0
 30 58  1  0
 31 32  1  0
 31 59  1  0
 32 60  1  0
M  CHG  1  19   1
M  END
>  <s_epik_cmdline>  (993) 
J2VwaWtfcHl0aG9uJywgJy1waCcsICc3LjAwMDAwMCcsICctcGh0JywgJzIuMDAwMDAwJywgJy1tcycsICcxNicsICctdG4nLCAnOCcsICctbWEnLCAnMjAwJywgJy1pbWFlJywgJzxpbmZpbGUubWFlPicsICctb21hZScsICc8b3V0ZmlsZS5tYWU+Jw==

>  <s_epik_input>  (993) 
W0NIM11bQ0hdKFtDSDNdKVtOSF1jKFtjSF1bY0hdMSlbY0hdW2NIXWMxW0NIMl1bTkhdQyg9TylbQ0gyXW4yYyhuYyhjMjMpW2NIXVtjSF1bY0hdW2NIXTMpW0NIMl1PYzRbY0hdW2NIXVtjSF1bY0hdW2NIXTQ=

>  <s_i_glide_gridfile>  (993) 
ATP-Grid

>  <s_lp_Force_Field>  (993) 
OPLS_2005

>  <s_lp_Variant>  (993) 
m_22bbc____21205748____214827-2

>  <s_lp_label>  (993) 
751_sdstereoexpander_1_neutralizer_1_epik_2_stereoizer_1

>  <s_m_source_file>  (993) 
ATP-VSW-LIGPREP-003-in.maegz

>  <s_sd_BIOSOLVEIT.INFINISEE\_QUERY\_NAME>  (993) 
Ref-Lig

>  <s_sd_BIOSOLVEIT.INFINISEE\_QUERY\_SMILES>  (993) 
S(c1nc2c(cc1C[NH2+]Cc3ccc(cc3)C[NH+](C)C)cccc2)Cc4ccccc4

>  <s_sd_BIOSOLVEIT.INFINISEE\_REACTION\_NAME>  (993) 
m_22bbc

>  <s_sd_BIOSOLVEIT.INFINISEE\_REAGENT1\_SMILES>  (993) 
[R1*]NCc1ccc(NC(C)C)cc1

>  <s_sd_BIOSOLVEIT.INFINISEE\_REAGENT2\_SMILES>  (993) 
[R1*]C(=O)CN1c2c(N=C1COc3ccccc3)cccc2

>  <s_sd_BIOSOLVEIT.INFINISEE\_SPACE>  (993) 
REALSpace_44bn_2023-08

>  <s_vsw_compound_code>  (993) 
24003

>  <s_vsw_variant>  (993) 
24003-2

>  <r_epik_Charging_Adjusted_Penalty>  (993) 
3.7647186873383398

>  <r_epik_Ionization_Penalty>  (993) 
1.8924000000000001

>  <r_epik_Ionization_Penalty_Charging>  (993) 
1.8754

>  <r_epik_Ionization_Penalty_Neutral>  (993) 
0.017000000000000001

>  <r_epik_State_Penalty>  (993) 
1.8894

>  <r_i_docking_score>  (993) 
-2.3471107907383599

>  <r_i_glide_ecoul>  (993) 
-8.3088827133178693

>  <r_i_glide_eff_state_penalty>  (993) 
1.8894

>  <r_i_glide_einternal>  (993) 
1.4235576391220099

>  <r_i_glide_emodel>  (993) 
-60.403775213765798

>  <r_i_glide_energy>  (993) 
-45.897177696227999

>  <r_i_glide_erotb>  (993) 
0.96943141085155204

>  <r_i_glide_esite>  (993) 
-0.12621820096022901

>  <r_i_glide_evdw>  (993) 
-37.588294982910199

>  <r_i_glide_gscore>  (993) 
-4.2365107907383601

>  <r_i_glide_hbond>  (993) 
-0.031467757642698602

>  <r_i_glide_ligand_efficiency>  (993) 
-0.073347212210573595

>  <r_i_glide_ligand_efficiency_ln>  (993) 
-0.52558208587007305

>  <r_i_glide_ligand_efficiency_sa>  (993) 
-0.23286288337498501

>  <r_i_glide_lipo>  (993) 
-1.41418250467031

>  <r_i_glide_metal>  (993) 
-0

>  <r_i_glide_rewards>  (993) 
-0.50832658217348403

>  <r_lp_Energy>  (993) 
20.54365

>  <r_lp_tautomer_probability>  (993) 
1

>  <r_qp_ACxDN^.5/SA>  (993) 
0.011201900000000001

>  <r_qp_CIQPlogS>  (993) 
-6.1779999999999999

>  <r_qp_EA(eV)>  (993) 
0.28199999999999997

>  <r_qp_FISA>  (993) 
73.298000000000002

>  <r_qp_FOSA>  (993) 
229.798

>  <r_qp_IP(eV)>  (993) 
8.141

>  <r_qp_Jm>  (993) 
0.83838392189990096

>  <r_qp_PISA>  (993) 
422.827

>  <r_qp_PSA>  (993) 
71.704999999999998

>  <r_qp_PercentHumanOralAbsorption>  (993) 
100

>  <r_qp_QPPCaco>  (993) 
1416.251

>  <r_qp_QPPMDCK>  (993) 
1045.9059999999999

>  <r_qp_QPlogBB>  (993) 
-0.70199999999999996

>  <r_qp_QPlogHERG>  (993) 
-5.0540000000000003

>  <r_qp_QPlogKhsa>  (993) 
0.47099999999999997

>  <r_qp_QPlogKp>  (993) 
-0.51700000000000002

>  <r_qp_QPlogPC16>  (993) 
14.882

>  <r_qp_QPlogPo/w>  (993) 
4.6959999999999997

>  <r_qp_QPlogPoct>  (993) 
21.783000000000001

>  <r_qp_QPlogPw>  (993) 
12.84

>  <r_qp_QPlogS>  (993) 
-5.1920000000000002

>  <r_qp_QPpolrz>  (993) 
46.957000000000001

>  <r_qp_SASA>  (993) 
725.923

>  <r_qp_SAamideO>  (993) 
18.803000000000001

>  <r_qp_SAfluorine>  (993) 
0

>  <r_qp_WPSA>  (993) 
0

>  <r_qp_accptHB>  (993) 
5.75

>  <r_qp_dip^2/V>  (993) 
0.017611000000000002

>  <r_qp_dipole>  (993) 
4.9130000000000003

>  <r_qp_donorHB>  (993) 
2

>  <r_qp_glob>  (993) 
0.82202249999999999

>  <r_qp_mol_MW>  (993) 
428.53300000000002

>  <r_qp_volume>  (993) 
1370.6089999999999

>  <r_sd_BIOSOLVEIT.INFINISEE\_FTREES\_SIMILARITY>  (993) 
0.92600000000000005

>  <r_sd_BIOSOLVEIT.LOGP>  (993) 
4.7519999999999998

>  <r_sd_BIOSOLVEIT.MOLECULAR\_WEIGHT>  (993) 
428.53300000000002

>  <r_sd_BIOSOLVEIT.TPSA>  (993) 
68.180000000000007

>  <i_epik_Tot_Q>  (993) 
1

>  <i_epik_Tot_abs_Q>  (993) 
1

>  <i_f3d_flags>  (993) 
0

>  <i_i_glide_confnum>  (993) 
8

>  <i_i_glide_lignum>  (993) 
319

>  <i_i_glide_posenum>  (993) 
15

>  <i_i_glide_rotatable_bonds>  (993) 
10

>  <i_lp_mmshare_version>  (993) 
65135

>  <i_m_ct_format>  (993) 
2

>  <i_m_source_file_index>  (993) 
751

>  <i_qp_#NandO>  (993) 
6

>  <i_qp_#acid>  (993) 
0

>  <i_qp_#amide>  (993) 
1

>  <i_qp_#amidine>  (993) 
0

>  <i_qp_#amine>  (993) 
0

>  <i_qp_#in34>  (993) 
0

>  <i_qp_#in56>  (993) 
21

>  <i_qp_#metab>  (993) 
6

>  <i_qp_#nonHatm>  (993) 
32

>  <i_qp_#noncon>  (993) 
0

>  <i_qp_#ringatoms>  (993) 
21

>  <i_qp_#rotor>  (993) 
9

>  <i_qp_#rtvFG>  (993) 
0

>  <i_qp_#stars>  (993) 
0

>  <i_qp_CNS>  (993) 
-1

>  <i_qp_HumanOralAbsorption>  (993) 
3

>  <i_qp_RuleOfFive>  (993) 
0

>  <i_qp_RuleOfThree>  (993) 
0

>  <i_sd_BIOSOLVEIT.INFINISEE\_REAGENT1\_NAME>  (993) 
21205748

>  <i_sd_BIOSOLVEIT.INFINISEE\_REAGENT2\_NAME>  (993) 
214827

>  <i_sd_BIOSOLVEIT.INFINISEE\_RESULT\_RANK>  (993) 
7887

>  <i_sd_version>  (993) 
0

>  <b_lp_Chiralities_Consistent>  (993) 
1

>  <b_sd_chiral_flag>  (993) 
0

>  <canonical_id>  (993) 
ATP-HTVS-9E45A7CB1B23

>  <compound_code>  (993) 
24003

>  <title>  (993) 
m_22bbc____21205748____214827

>  <variant>  (993) 
24003-2

>  <source_file>  (993) 
运行/运行/ATP-VSW/ATP-VSW-DOCK_HTVS_1-003_lib/ATP-VSW-DOCK_HTVS_1-003_lib.mae

>  <canonical_smiles>  (993) 
CC(C)Nc1ccc(CNC(=O)Cn2c(COc3ccccc3)[nH+]c3ccccc32)cc1

>  <scaffold>  (993) 
O=C(Cn1c(COc2ccccc2)[nH+]c2ccccc21)NCc1ccccc1

>  <molecular_formula>  (993) 
C26H29N4O2+

$$$$
ATP-HTVS-9E60DE94BDF0
     RDKit          3D

 52 55  0  0  0  0  0  0  0  0999 V2000
  200.1411  185.9031  150.6110 S   0  0  0  0  0  0  0  0  0  0  0  0
  199.4469  185.4138  149.0703 C   0  0  0  0  0  0  0  0  0  0  0  0
  198.0535  185.2705  148.9246 C   0  0  0  0  0  0  0  0  0  0  0  0
  197.5220  184.8676  147.6828 C   0  0  0  0  0  0  0  0  0  0  0  0
  198.3745  184.6245  146.5811 C   0  0  0  0  0  0  0  0  0  0  0  0
  197.8580  184.2432  145.3881 F   0  0  0  0  0  0  0  0  0  0  0  0
  199.7664  184.7786  146.7247 C   0  0  0  0  0  0  0  0  0  0  0  0
  200.3007  185.1733  147.9693 C   0  0  0  0  0  0  0  0  0  0  0  0
  198.9034  185.5732  151.8918 C   0  0  1  0  0  0  0  0  0  0  0  0
  199.2571  186.2641  153.1778 C   0  0  0  0  0  0  0  0  0  0  0  0
  199.5600  187.6557  153.3213 C   0  0  0  0  0  0  0  0  0  0  0  0
  199.7352  187.9005  154.6991 C   0  0  0  0  0  0  0  0  0  0  0  0
  199.5484  186.7136  155.3870 O   0  0  0  0  0  0  0  0  0  0  0  0
  199.2841  185.7290  154.4603 C   0  0  0  0  0  0  0  0  0  0  0  0
  199.0272  184.3621  154.9498 C   0  0  0  0  0  0  0  0  0  0  0  0
  198.6895  183.4579  154.1967 O   0  0  0  0  0  0  0  0  0  0  0  0
  199.1740  184.1683  156.2703 N   0  0  0  0  0  0  0  0  0  0  0  0
  198.9948  182.8627  156.8923 C   0  0  1  0  0  0  0  0  0  0  0  0
  197.4904  182.4696  157.0243 C   0  0  1  0  0  0  0  0  0  0  0  0
  197.3848  181.0465  157.3339 N   0  0  2  0  0  0  0  0  0  0  0  0
  196.6928  183.3138  158.0421 C   0  0  0  0  0  0  0  0  0  0  0  0
  195.3011  183.1145  158.1554 C   0  0  0  0  0  0  0  0  0  0  0  0
  194.5268  183.8494  159.0780 C   0  0  0  0  0  0  0  0  0  0  0  0
  195.1454  184.8140  159.9045 C   0  0  0  0  0  0  0  0  0  0  0  0
  196.5327  185.0278  159.7912 C   0  0  0  0  0  0  0  0  0  0  0  0
  197.3039  184.2912  158.8750 C   0  0  0  0  0  0  0  0  0  0  0  0
  200.0284  189.1622  155.2258 C   0  0  0  0  0  0  0  0  0  0  0  0
  200.1670  190.2541  154.3391 C   0  0  0  0  0  0  0  0  0  0  0  0
  199.9842  190.0540  152.9544 C   0  0  0  0  0  0  0  0  0  0  0  0
  199.6872  188.7736  152.4564 C   0  0  0  0  0  0  0  0  0  0  0  0
  196.4211  180.7207  157.3353 H   0  0  0  0  0  0  0  0  0  0  0  0
  197.7569  180.8600  158.2428 H   0  0  0  0  0  0  0  0  0  0  0  0
  197.3757  185.4709  149.7426 H   0  0  0  0  0  0  0  0  0  0  0  0
  196.4574  184.7473  147.5675 H   0  0  0  0  0  0  0  0  0  0  0  0
  200.4275  184.5939  145.8805 H   0  0  0  0  0  0  0  0  0  0  0  0
  201.3658  185.2912  148.0800 H   0  0  0  0  0  0  0  0  0  0  0  0
  197.9415  185.9478  151.5757 H   0  0  0  0  0  0  0  0  0  0  0  0
  198.8315  184.4945  151.9919 H   0  0  0  0  0  0  0  0  0  0  0  0
  199.4232  184.9786  156.8173 H   0  0  0  0  0  0  0  0  0  0  0  0
  199.5314  182.1286  156.2874 H   0  0  0  0  0  0  0  0  0  0  0  0
  199.4725  182.8690  157.8768 H   0  0  0  0  0  0  0  0  0  0  0  0
  196.9924  182.6123  156.0642 H   0  0  0  0  0  0  0  0  0  0  0  0
  194.7974  182.3882  157.5272 H   0  0  0  0  0  0  0  0  0  0  0  0
  193.4603  183.6793  159.1480 H   0  0  0  0  0  0  0  0  0  0  0  0
  194.5479  185.3948  160.6008 H   0  0  0  0  0  0  0  0  0  0  0  0
  197.0030  185.7647  160.4272 H   0  0  0  0  0  0  0  0  0  0  0  0
  198.3615  184.5012  158.8389 H   0  0  0  0  0  0  0  0  0  0  0  0
  200.1643  189.2895  156.2911 H   0  0  0  0  0  0  0  0  0  0  0  0
  200.4079  191.2374  154.7193 H   0  0  0  0  0  0  0  0  0  0  0  0
  200.0916  190.8905  152.2712 H   0  0  0  0  0  0  0  0  0  0  0  0
  199.5467  188.6377  151.3963 H   0  0  0  0  0  0  0  0  0  0  0  0
  197.8688  180.4745  156.6584 H   0  0  0  0  0  0  0  0  0  0  0  0
  1  2  1  0
  1  9  1  0
  2  3  1  0
  2  8  2  0
  3  4  2  0
  3 33  1  0
  4  5  1  0
  4 34  1  0
  5  6  1  0
  5  7  2  0
  7  8  1  0
  7 35  1  0
  8 36  1  0
  9 10  1  0
  9 37  1  6
  9 38  1  0
 10 11  1  0
 10 14  2  0
 11 12  1  0
 11 30  2  0
 12 13  1  0
 12 27  2  0
 13 14  1  0
 14 15  1  0
 15 16  2  0
 15 17  1  0
 17 18  1  0
 17 39  1  0
 18 19  1  0
 18 40  1  6
 18 41  1  0
 19 20  1  0
 19 21  1  0
 19 42  1  6
 20 31  1  1
 20 32  1  0
 20 52  1  0
 21 22  2  0
 21 26  1  0
 22 23  1  0
 22 43  1  0
 23 24  2  0
 23 44  1  0
 24 25  1  0
 24 45  1  0
 25 26  2  0
 25 46  1  0
 26 47  1  0
 27 28  1  0
 27 48  1  0
 28 29  2  0
 28 49  1  0
 29 30  1  0
 29 50  1  0
 30 51  1  0
M  CHG  1  20   1
M  END
>  <s_epik_cmdline>  (994) 
J2VwaWtfcHl0aG9uJywgJy1waCcsICc3LjAwMDAwMCcsICctcGh0JywgJzIuMDAwMDAwJywgJy1tcycsICcxNicsICctdG4nLCAnOCcsICctbWEnLCAnMjAwJywgJy1pbWFlJywgJzxpbmZpbGUubWFlPicsICctb21hZScsICc8b3V0ZmlsZS5tYWU+Jw==

>  <s_epik_input>  (994) 
W2NIXTFbY0hdYyhGKVtjSF1bY0hdYzFTW0NIMl1jMmMob2MoYzIzKVtjSF1bY0hdW2NIXVtjSF0zKUMoPU8pW05IXVtDSDJdW0NAQEhdKFtOSDJdKWM0W2NIXVtjSF1bY0hdW2NIXVtjSF00

>  <s_i_glide_gridfile>  (994) 
ATP-Grid

>  <s_lp_Force_Field>  (994) 
OPLS_2005

>  <s_lp_Variant>  (994) 
m_270006bbb____11615382____8411684-2

>  <s_lp_label>  (994) 
1510_sdstereoexpander_2_neutralizer_1_epik_1_stereoizer_1

>  <s_m_source_file>  (994) 
ATP-VSW-LIGPREP-002-in.maegz

>  <s_sd_BIOSOLVEIT.INFINISEE\_QUERY\_NAME>  (994) 
Ref-Lig

>  <s_sd_BIOSOLVEIT.INFINISEE\_QUERY\_SMILES>  (994) 
S(c1nc2c(cc1C[NH2+]Cc3ccc(cc3)C[NH+](C)C)cccc2)Cc4ccccc4

>  <s_sd_BIOSOLVEIT.INFINISEE\_REACTION\_NAME>  (994) 
m_270006bbb

>  <s_sd_BIOSOLVEIT.INFINISEE\_REAGENT1\_SMILES>  (994) 
[R1*]NCC(N)c1ccccc1

>  <s_sd_BIOSOLVEIT.INFINISEE\_REAGENT2\_SMILES>  (994) 
[R1*]C(=O)C=1Oc2c(cccc2)C1CSc3ccc(F)cc3

>  <s_sd_BIOSOLVEIT.INFINISEE\_SPACE>  (994) 
REALSpace_44bn_2023-08

>  <s_vsw_compound_code>  (994) 
48290

>  <s_vsw_variant>  (994) 
48290-2

>  <r_epik_Charging_Adjusted_Penalty>  (994) 
0.13704053916911399

>  <r_epik_Ionization_Penalty>  (994) 
0.068500000000000005

>  <r_epik_Ionization_Penalty_Charging>  (994) 
0.068500000000000005

>  <r_epik_Ionization_Penalty_Neutral>  (994) 
0

>  <r_epik_State_Penalty>  (994) 
0.068500000000000005

>  <r_i_docking_score>  (994) 
-4.6088412841723301

>  <r_i_glide_ecoul>  (994) 
-8.9164390563964808

>  <r_i_glide_eff_state_penalty>  (994) 
0.068500000000000005

>  <r_i_glide_einternal>  (994) 
6.0475487709045401

>  <r_i_glide_emodel>  (994) 
-48.946473548803503

>  <r_i_glide_energy>  (994) 
-36.553863525390597

>  <r_i_glide_erotb>  (994) 
0.78018423984505403

>  <r_i_glide_esite>  (994) 
-0.088164313547519302

>  <r_i_glide_evdw>  (994) 
-27.637424468994102

>  <r_i_glide_gscore>  (994) 
-4.6773412841723303

>  <r_i_glide_hbond>  (994) 
-0.12772039932801099

>  <r_i_glide_ligand_efficiency>  (994) 
-0.15362804280574399

>  <r_i_glide_ligand_efficiency_ln>  (994) 
-1.0471789571118399

>  <r_i_glide_ligand_efficiency_sa>  (994) 
-0.47735804789088399

>  <r_i_glide_lipo>  (994) 
-1.6823788272532301

>  <r_i_glide_metal>  (994) 
-0

>  <r_i_glide_rewards>  (994) 
-0.83992490197944303

>  <r_lp_Energy>  (994) 
20.543102000000001

>  <r_qp_ACxDN^.5/SA>  (994) 
0.011324900000000001

>  <r_qp_CIQPlogS>  (994) 
-5.9630000000000001

>  <r_qp_EA(eV)>  (994) 
1.012

>  <r_qp_FISA>  (994) 
72.677000000000007

>  <r_qp_FOSA>  (994) 
81.174000000000007

>  <r_qp_IP(eV)>  (994) 
8.8819999999999997

>  <r_qp_Jm>  (994) 
0.027518166133212101

>  <r_qp_PISA>  (994) 
457.65499999999997

>  <r_qp_PSA>  (994) 
67.027000000000001

>  <r_qp_PercentHumanOralAbsorption>  (994) 
100

>  <r_qp_QPPCaco>  (994) 
505.36900000000003

>  <r_qp_QPPMDCK>  (994) 
688.96100000000001

>  <r_qp_QPlogBB>  (994) 
-0.047

>  <r_qp_QPlogHERG>  (994) 
-7.3029999999999999

>  <r_qp_QPlogKhsa>  (994) 
0.69099999999999995

>  <r_qp_QPlogKp>  (994) 
-2.5409999999999999

>  <r_qp_QPlogPC16>  (994) 
14.327999999999999

>  <r_qp_QPlogPo/w>  (994) 
4.7759999999999998

>  <r_qp_QPlogPoct>  (994) 
21.966000000000001

>  <r_qp_QPlogPw>  (994) 
12.071

>  <r_qp_QPlogS>  (994) 
-4.6429999999999998

>  <r_qp_QPpolrz>  (994) 
43.814

>  <r_qp_SASA>  (994) 
688.23599999999999

>  <r_qp_SAamideO>  (994) 
0

>  <r_qp_SAfluorine>  (994) 
46.323999999999998

>  <r_qp_WPSA>  (994) 
76.730000000000004

>  <r_qp_accptHB>  (994) 
4.5

>  <r_qp_dip^2/V>  (994) 
0.022777200000000001

>  <r_qp_dipole>  (994) 
5.3739999999999997

>  <r_qp_donorHB>  (994) 
3

>  <r_qp_glob>  (994) 
0.82308689999999995

>  <r_qp_mol_MW>  (994) 
420.5

>  <r_qp_volume>  (994) 
1267.731

>  <r_sd_BIOSOLVEIT.INFINISEE\_FTREES\_SIMILARITY>  (994) 
0.90700000000000003

>  <r_sd_BIOSOLVEIT.LOGP>  (994) 
4.5772000000000004

>  <r_sd_BIOSOLVEIT.MOLECULAR\_WEIGHT>  (994) 
421.51299999999998

>  <r_sd_BIOSOLVEIT.TPSA>  (994) 
69.879999999999995

>  <i_epik_Tot_Q>  (994) 
1

>  <i_epik_Tot_abs_Q>  (994) 
1

>  <i_f3d_flags>  (994) 
0

>  <i_i_glide_confnum>  (994) 
5

>  <i_i_glide_lignum>  (994) 
521

>  <i_i_glide_posenum>  (994) 
7

>  <i_i_glide_rotatable_bonds>  (994) 
8

>  <i_lp_mmshare_version>  (994) 
65135

>  <i_m_ct_format>  (994) 
2

>  <i_m_source_file_index>  (994) 
1510

>  <i_qp_#NandO>  (994) 
4

>  <i_qp_#acid>  (994) 
0

>  <i_qp_#amide>  (994) 
0

>  <i_qp_#amidine>  (994) 
0

>  <i_qp_#amine>  (994) 
1

>  <i_qp_#in34>  (994) 
0

>  <i_qp_#in56>  (994) 
21

>  <i_qp_#metab>  (994) 
6

>  <i_qp_#nonHatm>  (994) 
30

>  <i_qp_#noncon>  (994) 
0

>  <i_qp_#ringatoms>  (994) 
21

>  <i_qp_#rotor>  (994) 
8

>  <i_qp_#rtvFG>  (994) 
0

>  <i_qp_#stars>  (994) 
1

>  <i_qp_CNS>  (994) 
0

>  <i_qp_HumanOralAbsorption>  (994) 
3

>  <i_qp_RuleOfFive>  (994) 
0

>  <i_qp_RuleOfThree>  (994) 
0

>  <i_sd_BIOSOLVEIT.INFINISEE\_REAGENT1\_NAME>  (994) 
11615382

>  <i_sd_BIOSOLVEIT.INFINISEE\_REAGENT2\_NAME>  (994) 
8411684

>  <i_sd_BIOSOLVEIT.INFINISEE\_RESULT\_RANK>  (994) 
60082

>  <i_sd_version>  (994) 
0

>  <b_lp_Chiralities_Consistent>  (994) 
1

>  <b_sd_chiral_flag>  (994) 
0

>  <canonical_id>  (994) 
ATP-HTVS-9E60DE94BDF0

>  <compound_code>  (994) 
48290

>  <title>  (994) 
m_270006bbb____11615382____8411684

>  <variant>  (994) 
48290-2

>  <source_file>  (994) 
运行/运行/ATP-VSW/ATP-VSW-DOCK_HTVS_1-002_lib.maegz

>  <canonical_smiles>  (994) 
[NH3+][C@H](CNC(=O)c1oc2ccccc2c1CSc1ccc(F)cc1)c1ccccc1

>  <scaffold>  (994) 
O=C(NCCc1ccccc1)c1oc2ccccc2c1CSc1ccccc1

>  <molecular_formula>  (994) 
C24H22FN2O2S+

$$$$
ATP-HTVS-9F0B8180A605
     RDKit          3D

 52 55  0  0  0  0  0  0  0  0999 V2000
  195.1540  187.3795  161.0646 O   0  0  0  0  0  0  0  0  0  0  0  0
  195.5093  186.6134  160.1685 C   0  0  0  0  0  0  0  0  0  0  0  0
  195.2180  185.3092  160.2344 N   0  0  0  0  0  0  0  0  0  0  0  0
  195.6484  184.3037  159.3297 C   0  0  0  0  0  0  0  0  0  0  0  0
  196.9597  184.2964  158.7831 C   0  0  0  0  0  0  0  0  0  0  0  0
  197.3205  183.2449  157.8923 C   0  0  0  0  0  0  0  0  0  0  0  0
  196.4104  182.2304  157.5761 C   0  0  0  0  0  0  0  0  0  0  0  0
  195.1221  182.2368  158.1388 C   0  0  0  0  0  0  0  0  0  0  0  0
  194.7438  183.2678  159.0063 C   0  0  0  0  0  0  0  0  0  0  0  0
  197.9795  185.3626  159.2106 C   0  0  2  0  0  0  0  0  0  0  0  0
  197.6647  186.7265  158.7382 N   0  0  0  0  0  0  0  0  0  0  0  0
  198.5601  187.7044  159.3847 C   0  0  1  0  0  0  0  0  0  0  0  0
  198.6754  189.0103  158.6193 C   0  0  0  0  0  0  0  0  0  0  0  0
  198.3838  190.2382  159.2406 C   0  0  0  0  0  0  0  0  0  0  0  0
  197.9455  190.2674  160.5311 O   0  0  0  0  0  0  0  0  0  0  0  0
  198.5172  191.4523  158.5327 C   0  0  0  0  0  0  0  0  0  0  0  0
  198.9430  191.4280  157.1885 C   0  0  0  0  0  0  0  0  0  0  0  0
  199.2366  190.2061  156.5622 C   0  0  0  0  0  0  0  0  0  0  0  0
  199.1032  189.0031  157.2711 C   0  0  0  0  0  0  0  0  0  0  0  0
  198.1667  192.7673  159.1994 C   0  0  1  0  0  0  0  0  0  0  0  0
  199.2112  193.2357  160.2270 C   0  0  2  0  0  0  0  0  0  0  0  0
  196.2464  187.1480  158.9260 C   0  0  1  0  0  0  0  0  0  0  0  0
  199.3980  184.9377  158.8121 C   0  0  0  0  0  0  0  0  0  0  0  0
  200.1538  184.0643  159.6218 C   0  0  0  0  0  0  0  0  0  0  0  0
  201.4541  183.6719  159.2289 C   0  0  0  0  0  0  0  0  0  0  0  0
  202.0054  184.1537  158.0230 C   0  0  0  0  0  0  0  0  0  0  0  0
  201.2495  185.0159  157.2042 C   0  0  0  0  0  0  0  0  0  0  0  0
  199.9442  185.3746  157.5801 C   0  0  0  0  0  0  0  0  0  0  0  0
  194.5785  185.0228  160.9564 H   0  0  0  0  0  0  0  0  0  0  0  0
  198.3000  183.1738  157.4373 H   0  0  0  0  0  0  0  0  0  0  0  0
  196.7020  181.4333  156.9096 H   0  0  0  0  0  0  0  0  0  0  0  0
  194.4360  181.4406  157.8822 H   0  0  0  0  0  0  0  0  0  0  0  0
  193.7418  183.2747  159.4076 H   0  0  0  0  0  0  0  0  0  0  0  0
  197.9498  185.3820  160.3036 H   0  0  0  0  0  0  0  0  0  0  0  0
  198.2281  187.8542  160.4129 H   0  0  0  0  0  0  0  0  0  0  0  0
  199.5922  187.3645  159.4539 H   0  0  0  0  0  0  0  0  0  0  0  0
  198.5117  189.8369  161.1802 H   0  0  0  0  0  0  0  0  0  0  0  0
  199.0330  192.3526  156.6368 H   0  0  0  0  0  0  0  0  0  0  0  0
  199.5588  190.1822  155.5290 H   0  0  0  0  0  0  0  0  0  0  0  0
  199.3448  188.0790  156.7648 H   0  0  0  0  0  0  0  0  0  0  0  0
  198.0152  193.5315  158.4385 H   0  0  0  0  0  0  0  0  0  0  0  0
  197.2019  192.6251  159.6801 H   0  0  0  0  0  0  0  0  0  0  0  0
  198.8740  194.1523  160.7110 H   0  0  0  0  0  0  0  0  0  0  0  0
  200.1729  193.4356  159.7551 H   0  0  0  0  0  0  0  0  0  0  0  0
  199.3720  192.4946  161.0099 H   0  0  0  0  0  0  0  0  0  0  0  0
  195.6819  186.8127  158.0532 H   0  0  0  0  0  0  0  0  0  0  0  0
  196.1451  188.2343  158.8999 H   0  0  0  0  0  0  0  0  0  0  0  0
  199.7341  183.6691  160.5338 H   0  0  0  0  0  0  0  0  0  0  0  0
  202.0160  182.9834  159.8432 H   0  0  0  0  0  0  0  0  0  0  0  0
  202.9967  183.8530  157.7107 H   0  0  0  0  0  0  0  0  0  0  0  0
  201.6487  185.3873  156.2717 H   0  0  0  0  0  0  0  0  0  0  0  0
  199.3485  185.9817  156.9159 H   0  0  0  0  0  0  0  0  0  0  0  0
  1  2  2  0
  2  3  1  0
  2 22  1  0
  3  4  1  0
  3 29  1  0
  4  5  1  0
  4  9  2  0
  5  6  2  0
  5 10  1  0
  6  7  1  0
  6 30  1  0
  7  8  2  0
  7 31  1  0
  8  9  1  0
  8 32  1  0
  9 33  1  0
 10 11  1  0
 10 23  1  0
 10 34  1  1
 11 12  1  0
 11 22  1  0
 12 13  1  0
 12 35  1  1
 12 36  1  0
 13 14  2  0
 13 19  1  0
 14 15  1  0
 14 16  1  0
 15 37  1  0
 16 17  2  0
 16 20  1  0
 17 18  1  0
 17 38  1  0
 18 19  2  0
 18 39  1  0
 19 40  1  0
 20 21  1  0
 20 41  1  6
 20 42  1  0
 21 43  1  1
 21 44  1  0
 21 45  1  0
 22 46  1  6
 22 47  1  0
 23 24  2  0
 23 28  1  0
 24 25  1  0
 24 48  1  0
 25 26  2  0
 25 49  1  0
 26 27  1  0
 26 50  1  0
 27 28  2  0
 27 51  1  0
 28 52  1  0
M  END
>  <s_epik_cmdline>  (995) 
J2VwaWtfcHl0aG9uJywgJy1waCcsICc3LjAwMDAwMCcsICctcGh0JywgJzIuMDAwMDAwJywgJy1tcycsICcxNicsICctdG4nLCAnOCcsICctbWEnLCAnMjAwJywgJy1pbWFlJywgJzxpbmZpbGUubWFlPicsICctb21hZScsICc8b3V0ZmlsZS5tYWU+Jw==

>  <s_epik_input>  (995) 
W2NIXTFbY0hdW2NIXVtjSF1bY0hdYzFbQ0BIXShjKGMyMylbY0hdW2NIXVtjSF1bY0hdMylOKFtDSDJdQyg9TylbTkhdMilbQ0gyXWM0YyhbT0hdKWMoW0NIMl1bQ0gzXSlbY0hdW2NIXVtjSF00

>  <s_i_glide_gridfile>  (995) 
ATP-Grid

>  <s_lp_Force_Field>  (995) 
OPLS_2005

>  <s_lp_Variant>  (995) 
m_270004bda____24170338____11759814-1

>  <s_lp_label>  (995) 
1166_sdstereoexpander_1_neutralizer_1_epik_1_stereoizer_1

>  <s_m_source_file>  (995) 
ATP-VSW-LIGPREP-003-in.maegz

>  <s_sd_BIOSOLVEIT.INFINISEE\_QUERY\_NAME>  (995) 
Ref-Lig

>  <s_sd_BIOSOLVEIT.INFINISEE\_QUERY\_SMILES>  (995) 
S(c1nc2c(cc1C[NH2+]Cc3ccc(cc3)C[NH+](C)C)cccc2)Cc4ccccc4

>  <s_sd_BIOSOLVEIT.INFINISEE\_REACTION\_NAME>  (995) 
m_270004bda

>  <s_sd_BIOSOLVEIT.INFINISEE\_REAGENT1\_SMILES>  (995) 
[R1*]N1C(c2c(NC(=O)C1)cccc2)c3ccccc3

>  <s_sd_BIOSOLVEIT.INFINISEE\_REAGENT2\_SMILES>  (995) 
[R1*]Cc1c(O)c(ccc1)CC

>  <s_sd_BIOSOLVEIT.INFINISEE\_SPACE>  (995) 
REALSpace_44bn_2023-08

>  <s_vsw_compound_code>  (995) 
37283

>  <s_vsw_variant>  (995) 
37283-1

>  <r_epik_Charging_Adjusted_Penalty>  (995) 
0.0039775273375896097

>  <r_epik_Ionization_Penalty>  (995) 
0.0091000000000000004

>  <r_epik_Ionization_Penalty_Charging>  (995) 
0

>  <r_epik_Ionization_Penalty_Neutral>  (995) 
0.0091000000000000004

>  <r_epik_State_Penalty>  (995) 
0.0040000000000000001

>  <r_i_docking_score>  (995) 
-2.2871502699303701

>  <r_i_glide_ecoul>  (995) 
-3.7564826011657702

>  <r_i_glide_eff_state_penalty>  (995) 
0.0040000000000000001

>  <r_i_glide_einternal>  (995) 
3.31215476989746

>  <r_i_glide_emodel>  (995) 
-37.844649088281201

>  <r_i_glide_energy>  (995) 
-34.296746730804401

>  <r_i_glide_erotb>  (995) 
0.41767989597413802

>  <r_i_glide_esite>  (995) 
0

>  <r_i_glide_evdw>  (995) 
-30.5402641296387

>  <r_i_glide_gscore>  (995) 
-2.2911502699303701

>  <r_i_glide_hbond>  (995) 
-0.16

>  <r_i_glide_ligand_efficiency>  (995) 
-0.081683938211799104

>  <r_i_glide_ligand_efficiency_ln>  (995) 
-0.52794143594986398

>  <r_i_glide_ligand_efficiency_sa>  (995) 
-0.248040545677815

>  <r_i_glide_lipo>  (995) 
-1.1822497617123899

>  <r_i_glide_metal>  (995) 
-0

>  <r_i_glide_rewards>  (995) 
0.72390519246467899

>  <r_lp_Energy>  (995) 
40.240513

>  <r_lp_tautomer_probability>  (995) 
0.999999999997365

>  <r_qp_ACxDN^.5/SA>  (995) 
0.011149900000000001

>  <r_qp_CIQPlogS>  (995) 
-4.5259999999999998

>  <r_qp_EA(eV)>  (995) 
0.23999999999999999

>  <r_qp_FISA>  (995) 
76.619

>  <r_qp_FOSA>  (995) 
173.149

>  <r_qp_IP(eV)>  (995) 
8.8900000000000006

>  <r_qp_Jm>  (995) 
0.0079300651895503494

>  <r_qp_PISA>  (995) 
416.12200000000001

>  <r_qp_PSA>  (995) 
60.231000000000002

>  <r_qp_PercentHumanOralAbsorption>  (995) 
100

>  <r_qp_QPPCaco>  (995) 
463.68900000000002

>  <r_qp_QPPMDCK>  (995) 
238.48500000000001

>  <r_qp_QPlogBB>  (995) 
-0.031

>  <r_qp_QPlogHERG>  (995) 
-7.0890000000000004

>  <r_qp_QPlogKhsa>  (995) 
0.66700000000000004

>  <r_qp_QPlogKp>  (995) 
-3.1440000000000001

>  <r_qp_QPlogPC16>  (995) 
13.375

>  <r_qp_QPlogPo/w>  (995) 
3.9489999999999998

>  <r_qp_QPlogPoct>  (995) 
20.382000000000001

>  <r_qp_QPlogPw>  (995) 
11.891

>  <r_qp_QPlogS>  (995) 
-4.5279999999999996

>  <r_qp_QPpolrz>  (995) 
43.624000000000002

>  <r_qp_SASA>  (995) 
665.88900000000001

>  <r_qp_SAamideO>  (995) 
0

>  <r_qp_SAfluorine>  (995) 
0

>  <r_qp_WPSA>  (995) 
0

>  <r_qp_accptHB>  (995) 
5.25

>  <r_qp_dip^2/V>  (995) 
0.0113443

>  <r_qp_dipole>  (995) 
3.7029999999999998

>  <r_qp_donorHB>  (995) 
2

>  <r_qp_glob>  (995) 
0.82409589999999999

>  <r_qp_mol_MW>  (995) 
372.46600000000001

>  <r_qp_volume>  (995) 
1208.7090000000001

>  <r_sd_BIOSOLVEIT.INFINISEE\_FTREES\_SIMILARITY>  (995) 
0.91200000000000003

>  <r_sd_BIOSOLVEIT.LOGP>  (995) 
3.0811999999999999

>  <r_sd_BIOSOLVEIT.MOLECULAR\_WEIGHT>  (995) 
373.47399999999999

>  <r_sd_BIOSOLVEIT.TPSA>  (995) 
53.770000000000003

>  <i_epik_Tot_Q>  (995) 
0

>  <i_epik_Tot_abs_Q>  (995) 
0

>  <i_f3d_flags>  (995) 
0

>  <i_i_glide_confnum>  (995) 
4

>  <i_i_glide_lignum>  (995) 
458

>  <i_i_glide_posenum>  (995) 
8

>  <i_i_glide_rotatable_bonds>  (995) 
5

>  <i_lp_mmshare_version>  (995) 
65135

>  <i_m_ct_format>  (995) 
2

>  <i_m_source_file_index>  (995) 
1166

>  <i_qp_#NandO>  (995) 
4

>  <i_qp_#acid>  (995) 
0

>  <i_qp_#amide>  (995) 
0

>  <i_qp_#amidine>  (995) 
0

>  <i_qp_#amine>  (995) 
1

>  <i_qp_#in34>  (995) 
0

>  <i_qp_#in56>  (995) 
18

>  <i_qp_#metab>  (995) 
9

>  <i_qp_#nonHatm>  (995) 
28

>  <i_qp_#noncon>  (995) 
2

>  <i_qp_#ringatoms>  (995) 
23

>  <i_qp_#rotor>  (995) 
4

>  <i_qp_#rtvFG>  (995) 
0

>  <i_qp_#stars>  (995) 
1

>  <i_qp_CNS>  (995) 
1

>  <i_qp_HumanOralAbsorption>  (995) 
3

>  <i_qp_RuleOfFive>  (995) 
0

>  <i_qp_RuleOfThree>  (995) 
1

>  <i_sd_BIOSOLVEIT.INFINISEE\_REAGENT1\_NAME>  (995) 
24170338

>  <i_sd_BIOSOLVEIT.INFINISEE\_REAGENT2\_NAME>  (995) 
11759814

>  <i_sd_BIOSOLVEIT.INFINISEE\_RESULT\_RANK>  (995) 
37918

>  <i_sd_version>  (995) 
0

>  <b_lp_Chiralities_Consistent>  (995) 
1

>  <b_sd_chiral_flag>  (995) 
0

>  <canonical_id>  (995) 
ATP-HTVS-9F0B8180A605

>  <compound_code>  (995) 
37283

>  <title>  (995) 
m_270004bda____24170338____11759814

>  <variant>  (995) 
37283-1

>  <source_file>  (995) 
运行/运行/ATP-VSW/ATP-VSW-DOCK_HTVS_1-003_lib/ATP-VSW-DOCK_HTVS_1-003_lib.mae

>  <canonical_smiles>  (995) 
CCc1cccc(CN2CC(=O)Nc3ccccc3[C@H]2c2ccccc2)c1O

>  <scaffold>  (995) 
O=C1CN(Cc2ccccc2)C(c2ccccc2)c2ccccc2N1

>  <molecular_formula>  (995) 
C24H24N2O2

$$$$
ATP-HTVS-9F37D3A44946
     RDKit          3D

 66 69  0  0  0  0  0  0  0  0999 V2000
  197.5509  179.9153  152.3503 S   0  0  0  0  0  0  0  0  0  0  0  0
  197.6581  179.2543  150.7265 C   0  0  0  0  0  0  0  0  0  0  0  0
  198.8669  178.4987  150.5636 C   0  0  0  0  0  0  0  0  0  0  0  0
  199.0834  177.9512  149.2824 C   0  0  0  0  0  0  0  0  0  0  0  0
  198.1259  178.0802  148.2444 C   0  0  0  0  0  0  0  0  0  0  0  0
  196.9329  178.7959  148.4621 C   0  0  0  0  0  0  0  0  0  0  0  0
  196.7053  179.3927  149.7081 C   0  0  0  0  0  0  0  0  0  0  0  0
  199.6116  178.3907  151.8031 C   0  0  0  0  0  0  0  0  0  0  0  0
  200.8038  177.6090  151.8742 N   0  0  0  0  0  0  0  0  0  0  0  0
  200.7488  176.1482  151.6485 C   0  0  2  0  0  0  0  0  0  0  0  0
  199.3990  175.6388  151.2961 C   0  0  0  0  0  0  0  0  0  0  0  0
  198.3576  175.2192  151.0385 N   0  0  0  0  0  0  0  0  0  0  0  0
  201.2605  175.2678  152.7861 C   0  0  0  0  0  0  0  0  0  0  0  0
  201.6229  173.9398  152.5144 C   0  0  0  0  0  0  0  0  0  0  0  0
  202.0320  173.0834  153.5490 C   0  0  0  0  0  0  0  0  0  0  0  0
  202.0813  173.5492  154.8765 C   0  0  0  0  0  0  0  0  0  0  0  0
  201.7013  174.8741  155.1709 C   0  0  0  0  0  0  0  0  0  0  0  0
  201.2941  175.7336  154.1295 C   0  0  0  0  0  0  0  0  0  0  0  0
  201.9561  178.3144  151.3021 C   0  0  1  0  0  0  0  0  0  0  0  0
  203.3280  177.8280  151.8012 C   0  0  2  0  0  0  0  0  0  0  0  0
  199.0381  179.1393  152.8277 C   0  0  0  0  0  0  0  0  0  0  0  0
  199.5596  179.3180  154.2459 C   0  0  1  0  0  0  0  0  0  0  0  0
  198.7541  180.1850  155.1204 N   0  0  0  0  0  0  0  0  0  0  0  0
  199.1632  181.4324  155.4871 C   0  0  0  0  0  0  0  0  0  0  0  0
  200.2096  181.9222  155.0662 O   0  0  0  0  0  0  0  0  0  0  0  0
  198.3294  182.2914  156.3823 C   0  0  0  0  0  0  0  0  0  0  0  0
  197.3741  181.6661  157.1442 O   0  0  0  0  0  0  0  0  0  0  0  0
  196.7480  182.6759  157.8719 C   0  0  0  0  0  0  0  0  0  0  0  0
  197.3048  183.8976  157.5905 C   0  0  0  0  0  0  0  0  0  0  0  0
  198.3228  183.6416  156.6316 C   0  0  0  0  0  0  0  0  0  0  0  0
  195.6641  182.1342  158.7563 C   0  0  1  0  0  0  0  0  0  0  0  0
  194.3165  182.3524  158.1611 N   0  0  2  0  0  0  0  0  0  0  0  0
  193.7146  183.6056  158.6471 C   0  0  2  0  0  0  0  0  0  0  0  0
  193.4096  181.1984  158.2912 C   0  0  2  0  0  0  0  0  0  0  0  0
  197.4314  179.6189  155.4354 C   0  0  2  0  0  0  0  0  0  0  0  0
  199.9632  177.3560  149.1093 H   0  0  0  0  0  0  0  0  0  0  0  0
  198.2931  177.5772  147.2964 H   0  0  0  0  0  0  0  0  0  0  0  0
  196.2000  178.8840  147.6767 H   0  0  0  0  0  0  0  0  0  0  0  0
  195.7991  179.9360  149.9208 H   0  0  0  0  0  0  0  0  0  0  0  0
  201.3818  175.9204  150.7790 H   0  0  0  0  0  0  0  0  0  0  0  0
  201.5733  173.5658  151.5021 H   0  0  0  0  0  0  0  0  0  0  0  0
  202.3177  172.0612  153.3276 H   0  0  0  0  0  0  0  0  0  0  0  0
  202.4150  172.8869  155.6659 H   0  0  0  0  0  0  0  0  0  0  0  0
  201.7181  175.2299  156.1890 H   0  0  0  0  0  0  0  0  0  0  0  0
  200.9951  176.7373  154.3772 H   0  0  0  0  0  0  0  0  0  0  0  0
  201.9080  178.2156  150.2218 H   0  0  0  0  0  0  0  0  0  0  0  0
  201.8794  179.3807  151.5237 H   0  0  0  0  0  0  0  0  0  0  0  0
  204.1259  178.3701  151.2908 H   0  0  0  0  0  0  0  0  0  0  0  0
  203.4919  176.7697  151.6005 H   0  0  0  0  0  0  0  0  0  0  0  0
  203.4489  177.9984  152.8716 H   0  0  0  0  0  0  0  0  0  0  0  0
  199.5814  178.3619  154.7667 H   0  0  0  0  0  0  0  0  0  0  0  0
  200.6178  179.6086  154.1733 H   0  0  0  0  0  0  0  0  0  0  0  0
  197.0222  184.8407  158.0304 H   0  0  0  0  0  0  0  0  0  0  0  0
  198.9967  184.3481  156.1640 H   0  0  0  0  0  0  0  0  0  0  0  0
  195.8505  181.0642  158.9054 H   0  0  0  0  0  0  0  0  0  0  0  0
  195.7411  182.5591  159.7492 H   0  0  0  0  0  0  0  0  0  0  0  0
  193.5560  183.5755  159.7246 H   0  0  0  0  0  0  0  0  0  0  0  0
  192.7454  183.7674  158.1718 H   0  0  0  0  0  0  0  0  0  0  0  0
  194.3532  184.4634  158.4280 H   0  0  0  0  0  0  0  0  0  0  0  0
  193.2336  180.9388  159.3372 H   0  0  0  0  0  0  0  0  0  0  0  0
  193.8121  180.3221  157.7808 H   0  0  0  0  0  0  0  0  0  0  0  0
  192.4462  181.4078  157.8118 H   0  0  0  0  0  0  0  0  0  0  0  0
  196.6364  180.2448  155.0303 H   0  0  0  0  0  0  0  0  0  0  0  0
  197.2593  179.5394  156.5113 H   0  0  0  0  0  0  0  0  0  0  0  0
  197.2936  178.6153  155.0154 H   0  0  0  0  0  0  0  0  0  0  0  0
  194.3944  182.4615  157.1505 H   0  0  0  0  0  0  0  0  0  0  0  0
  1  2  1  0
  1 21  1  0
  2  3  1  0
  2  7  2  0
  3  4  2  0
  3  8  1  0
  4  5  1  0
  4 36  1  0
  5  6  2  0
  5 37  1  0
  6  7  1  0
  6 38  1  0
  7 39  1  0
  8  9  1  0
  8 21  2  0
  9 10  1  0
  9 19  1  0
 10 11  1  0
 10 13  1  0
 10 40  1  6
 11 12  3  0
 13 14  2  0
 13 18  1  0
 14 15  1  0
 14 41  1  0
 15 16  2  0
 15 42  1  0
 16 17  1  0
 16 43  1  0
 17 18  2  0
 17 44  1  0
 18 45  1  0
 19 20  1  0
 19 46  1  6
 19 47  1  0
 20 48  1  6
 20 49  1  0
 20 50  1  0
 21 22  1  0
 22 23  1  0
 22 51  1  1
 22 52  1  0
 23 24  1  0
 23 35  1  0
 24 25  2  0
 24 26  1  0
 26 27  1  0
 26 30  2  0
 27 28  1  0
 28 29  2  0
 28 31  1  0
 29 30  1  0
 29 53  1  0
 30 54  1  0
 31 32  1  0
 31 55  1  1
 31 56  1  0
 32 33  1  0
 32 34  1  0
 32 66  1  6
 33 57  1  1
 33 58  1  0
 33 59  1  0
 34 60  1  1
 34 61  1  0
 34 62  1  0
 35 63  1  6
 35 64  1  0
 35 65  1  0
M  CHG  1  32   1
M  END
>  <s_epik_cmdline>  (996) 
J2VwaWtfcHl0aG9uJywgJy1waCcsICc3LjAwMDAwMCcsICctcGh0JywgJzIuMDAwMDAwJywgJy1tcycsICcxNicsICctdG4nLCAnOCcsICctbWEnLCAnMjAwJywgJy1pbWFlJywgJzxpbmZpbGUubWFlPicsICctb21hZScsICc8b3V0ZmlsZS5tYWU+Jw==

>  <s_epik_input>  (996) 
W0NIM11OKFtDSDNdKVtDSDJdYyhbY0hdW2NIXTEpb2MxQyg9TylOKFtDSDNdKVtDSDJdYyhzMiljKGMoYzIzKVtjSF1bY0hdW2NIXVtjSF0zKU4oW0NIMl1bQ0gzXSlbQ0BIXShDI04pYzRbY0hdW2NIXVtjSF1bY0hdW2NIXTQ=

>  <s_i_glide_gridfile>  (996) 
ATP-Grid

>  <s_lp_Force_Field>  (996) 
OPLS_2005

>  <s_lp_Variant>  (996) 
rxn502c____EMOL816037____EMOL49259969____EMOL49839592-2

>  <s_lp_label>  (996) 
2933_sdstereoexpander_2_neutralizer_1_epik_1_stereoizer_1

>  <s_m_source_file>  (996) 
ATP-VSW-LIGPREP-002-in.maegz

>  <s_sd_BIOSOLVEIT.INFINISEE\_QUERY\_NAME>  (996) 
Ref-Lig

>  <s_sd_BIOSOLVEIT.INFINISEE\_QUERY\_SMILES>  (996) 
S(c1nc2c(cc1C[NH2+]Cc3ccc(cc3)C[NH+](C)C)cccc2)Cc4ccccc4

>  <s_sd_BIOSOLVEIT.INFINISEE\_REACTION\_NAME>  (996) 
rxn502c

>  <s_sd_BIOSOLVEIT.INFINISEE\_REAGENT1\_NAME>  (996) 
EMOL816037

>  <s_sd_BIOSOLVEIT.INFINISEE\_REAGENT1\_SMILES>  (996) 
O=C(O)C=1OC(=CC1)CN(C)C

>  <s_sd_BIOSOLVEIT.INFINISEE\_REAGENT2\_NAME>  (996) 
EMOL49259969

>  <s_sd_BIOSOLVEIT.INFINISEE\_REAGENT2\_SMILES>  (996) 
ClC=1c2c(SC1CNC)cccc2

>  <s_sd_BIOSOLVEIT.INFINISEE\_REAGENT3\_NAME>  (996) 
EMOL49839592

>  <s_sd_BIOSOLVEIT.INFINISEE\_REAGENT3\_SMILES>  (996) 
N#CC(NCC)c1ccccc1

>  <s_sd_BIOSOLVEIT.INFINISEE\_SPACE>  (996) 
eXplore_7tr_2022-12

>  <s_vsw_compound_code>  (996) 
93826

>  <s_vsw_variant>  (996) 
93826-2

>  <r_epik_Charging_Adjusted_Penalty>  (996) 
1.2521989424275599e-05

>  <r_epik_Ionization_Penalty>  (996) 
0.0001

>  <r_epik_Ionization_Penalty_Charging>  (996) 
0

>  <r_epik_Ionization_Penalty_Neutral>  (996) 
0.0001

>  <r_epik_State_Penalty>  (996) 
-0

>  <r_i_docking_score>  (996) 
-4.3373983846751702

>  <r_i_glide_ecoul>  (996) 
-9.4008865356445295

>  <r_i_glide_eff_state_penalty>  (996) 
-0

>  <r_i_glide_einternal>  (996) 
11.5286092758179

>  <r_i_glide_emodel>  (996) 
-56.356236448221999

>  <r_i_glide_energy>  (996) 
-44.6898384094238

>  <r_i_glide_erotb>  (996) 
0.68398997046034704

>  <r_i_glide_esite>  (996) 
-0.13540384244692599

>  <r_i_glide_evdw>  (996) 
-35.288951873779297

>  <r_i_glide_gscore>  (996) 
-4.3373983846751702

>  <r_i_glide_hbond>  (996) 
-0.194780113059695

>  <r_i_glide_ligand_efficiency>  (996) 
-0.123925668133576

>  <r_i_glide_ligand_efficiency_ln>  (996) 
-0.95215520880681503

>  <r_i_glide_ligand_efficiency_sa>  (996) 
-0.40536907751894402

>  <r_i_glide_lipo>  (996) 
-1.12977850761974

>  <r_i_glide_metal>  (996) 
-0

>  <r_i_glide_rewards>  (996) 
-0.38684531797351601

>  <r_lp_Energy>  (996) 
31.366142

>  <r_lp_tautomer_probability>  (996) 
1

>  <r_qp_ACxDN^.5/SA>  (996) 
0

>  <r_qp_CIQPlogS>  (996) 
-5.7990000000000004

>  <r_qp_EA(eV)>  (996) 
0.82899999999999996

>  <r_qp_FISA>  (996) 
49.226999999999997

>  <r_qp_FOSA>  (996) 
287.35000000000002

>  <r_qp_IP(eV)>  (996) 
8.8670000000000009

>  <r_qp_Jm>  (996) 
0.084850590538271597

>  <r_qp_PISA>  (996) 
328.32799999999997

>  <r_qp_PSA>  (996) 
62.822000000000003

>  <r_qp_PercentHumanOralAbsorption>  (996) 
90.828000000000003

>  <r_qp_QPPCaco>  (996) 
210.322

>  <r_qp_QPPMDCK>  (996) 
169.55099999999999

>  <r_qp_QPlogBB>  (996) 
0.41199999999999998

>  <r_qp_QPlogHERG>  (996) 
-6.5270000000000001

>  <r_qp_QPlogKhsa>  (996) 
0.19

>  <r_qp_QPlogKp>  (996) 
-4.4349999999999996

>  <r_qp_QPlogPC16>  (996) 
14.223000000000001

>  <r_qp_QPlogPo/w>  (996) 
3.8100000000000001

>  <r_qp_QPlogPoct>  (996) 
20.228999999999999

>  <r_qp_QPlogPw>  (996) 
9.6509999999999998

>  <r_qp_QPlogS>  (996) 
-2.323

>  <r_qp_QPpolrz>  (996) 
47.585999999999999

>  <r_qp_SASA>  (996) 
697.59400000000005

>  <r_qp_SAamideO>  (996) 
0

>  <r_qp_SAfluorine>  (996) 
0

>  <r_qp_WPSA>  (996) 
32.689

>  <r_qp_accptHB>  (996) 
8

>  <r_qp_dip^2/V>  (996) 
0.0034074999999999999

>  <r_qp_dipole>  (996) 
2.2029999999999998

>  <r_qp_donorHB>  (996) 
0

>  <r_qp_glob>  (996) 
0.87785299999999999

>  <r_qp_mol_MW>  (996) 
486.63099999999997

>  <r_qp_volume>  (996) 
1424.9159999999999

>  <r_sd_BIOSOLVEIT.INFINISEE\_FTREES\_SIMILARITY>  (996) 
0.90400000000000003

>  <r_sd_BIOSOLVEIT.LOGP>  (996) 
4.5021800000000001

>  <r_sd_BIOSOLVEIT.MOLECULAR\_WEIGHT>  (996) 
487.64400000000001

>  <r_sd_BIOSOLVEIT.TPSA>  (996) 
64.920000000000002

>  <i_epik_Tot_Q>  (996) 
1

>  <i_epik_Tot_abs_Q>  (996) 
1

>  <i_f3d_flags>  (996) 
0

>  <i_i_glide_confnum>  (996) 
3

>  <i_i_glide_lignum>  (996) 
2

>  <i_i_glide_posenum>  (996) 
3

>  <i_i_glide_rotatable_bonds>  (996) 
10

>  <i_lp_mmshare_version>  (996) 
65135

>  <i_m_ct_format>  (996) 
2

>  <i_m_source_file_index>  (996) 
2933

>  <i_qp_#NandO>  (996) 
6

>  <i_qp_#acid>  (996) 
0

>  <i_qp_#amide>  (996) 
0

>  <i_qp_#amidine>  (996) 
0

>  <i_qp_#amine>  (996) 
2

>  <i_qp_#in34>  (996) 
0

>  <i_qp_#in56>  (996) 
20

>  <i_qp_#metab>  (996) 
8

>  <i_qp_#nonHatm>  (996) 
35

>  <i_qp_#noncon>  (996) 
0

>  <i_qp_#ringatoms>  (996) 
20

>  <i_qp_#rotor>  (996) 
10

>  <i_qp_#rtvFG>  (996) 
0

>  <i_qp_#stars>  (996) 
0

>  <i_qp_CNS>  (996) 
1

>  <i_qp_HumanOralAbsorption>  (996) 
3

>  <i_qp_RuleOfFive>  (996) 
0

>  <i_qp_RuleOfThree>  (996) 
1

>  <i_sd_BIOSOLVEIT.INFINISEE\_RESULT\_RANK>  (996) 
78375

>  <i_sd_version>  (996) 
0

>  <b_lp_Chiralities_Consistent>  (996) 
1

>  <b_sd_chiral_flag>  (996) 
0

>  <canonical_id>  (996) 
ATP-HTVS-9F37D3A44946

>  <compound_code>  (996) 
93826

>  <title>  (996) 
rxn502c____EMOL816037____EMOL49259969____EMOL49839592

>  <variant>  (996) 
93826-2

>  <source_file>  (996) 
运行/运行/ATP-VSW/ATP-VSW-DOCK_HTVS_1-003_lib/ATP-VSW-DOCK_HTVS_1-003_lib.mae

>  <canonical_smiles>  (996) 
CCN(c1c(CN(C)C(=O)c2ccc(C[NH+](C)C)o2)sc2ccccc12)[C@H](C#N)c1ccccc1

>  <scaffold>  (996) 
O=C(NCc1sc2ccccc2c1NCc1ccccc1)c1ccco1

>  <molecular_formula>  (996) 
C28H31N4O2S+

$$$$
ATP-HTVS-9F5103B68EB9
     RDKit          3D

 57 59  0  0  0  0  0  0  0  0999 V2000
  202.1671  177.8915  152.7326 Cl  0  0  0  0  0  0  0  0  0  0  0  0
  200.8733  178.7409  153.5026 C   0  0  0  0  0  0  0  0  0  0  0  0
  200.1402  178.1594  154.5649 C   0  0  0  0  0  0  0  0  0  0  0  0
  199.1035  178.8974  155.1722 C   0  0  0  0  0  0  0  0  0  0  0  0
  198.8152  180.2140  154.7719 C   0  0  0  0  0  0  0  0  0  0  0  0
  197.8189  180.8957  155.4828 N   0  0  0  0  0  0  0  0  0  0  0  0
  197.7853  182.3499  155.5025 C   0  0  1  0  0  0  0  0  0  0  0  0
  197.0200  182.9666  156.6690 C   0  0  0  0  0  0  0  0  0  0  0  0
  197.3671  184.2598  157.1392 C   0  0  0  0  0  0  0  0  0  0  0  0
  198.4125  184.9408  156.5695 O   0  0  0  0  0  0  0  0  0  0  0  0
  198.0470  185.6823  155.4122 C   0  0  2  0  0  0  0  0  0  0  0  0
  196.6460  184.8311  158.2153 C   0  0  0  0  0  0  0  0  0  0  0  0
  195.5679  184.1221  158.8077 C   0  0  0  0  0  0  0  0  0  0  0  0
  195.2061  182.8388  158.3333 C   0  0  0  0  0  0  0  0  0  0  0  0
  194.1436  182.2019  158.9331 O   0  0  0  0  0  0  0  0  0  0  0  0
  193.3719  181.2985  158.1546 C   0  0  2  0  0  0  0  0  0  0  0  0
  195.9496  182.2694  157.2744 C   0  0  0  0  0  0  0  0  0  0  0  0
  194.8335  184.7210  159.8534 C   0  0  0  0  0  0  0  0  0  0  0  0
  195.1703  186.0016  160.3300 C   0  0  0  0  0  0  0  0  0  0  0  0
  196.2390  186.7027  159.7472 C   0  0  0  0  0  0  0  0  0  0  0  0
  196.9702  186.1226  158.6926 C   0  0  0  0  0  0  0  0  0  0  0  0
  199.5358  180.7795  153.6937 C   0  0  0  0  0  0  0  0  0  0  0  0
  200.5576  180.0417  153.0602 C   0  0  0  0  0  0  0  0  0  0  0  0
  200.4411  176.7579  155.0763 C   0  0  1  0  0  0  0  0  0  0  0  0
  201.4329  176.7640  156.1933 N   0  0  2  0  0  0  0  0  0  0  0  0
  202.1078  175.4518  156.3694 C   0  0  1  0  0  0  0  0  0  0  0  0
  203.1095  175.1210  155.2377 C   0  0  1  0  0  0  0  0  0  0  0  0
  203.7294  173.8816  155.4935 O   0  0  0  0  0  0  0  0  0  0  0  0
  200.8511  177.2754  157.4624 C   0  0  2  0  0  0  0  0  0  0  0  0
  198.5351  178.4595  155.9819 H   0  0  0  0  0  0  0  0  0  0  0  0
  197.3526  180.4161  156.2437 H   0  0  0  0  0  0  0  0  0  0  0  0
  198.8112  182.7115  155.5016 H   0  0  0  0  0  0  0  0  0  0  0  0
  197.3214  182.6984  154.5833 H   0  0  0  0  0  0  0  0  0  0  0  0
  198.9357  186.1703  155.0110 H   0  0  0  0  0  0  0  0  0  0  0  0
  197.3109  186.4560  155.6453 H   0  0  0  0  0  0  0  0  0  0  0  0
  197.6387  185.0396  154.6298 H   0  0  0  0  0  0  0  0  0  0  0  0
  192.6017  180.8619  158.7892 H   0  0  0  0  0  0  0  0  0  0  0  0
  193.9463  180.4675  157.7556 H   0  0  0  0  0  0  0  0  0  0  0  0
  192.8592  181.8107  157.3418 H   0  0  0  0  0  0  0  0  0  0  0  0
  195.6879  181.2948  156.8933 H   0  0  0  0  0  0  0  0  0  0  0  0
  193.9977  184.2028  160.2961 H   0  0  0  0  0  0  0  0  0  0  0  0
  194.5971  186.4506  161.1265 H   0  0  0  0  0  0  0  0  0  0  0  0
  196.4891  187.6927  160.0992 H   0  0  0  0  0  0  0  0  0  0  0  0
  197.7826  186.6811  158.2525 H   0  0  0  0  0  0  0  0  0  0  0  0
  199.3177  181.7780  153.3454 H   0  0  0  0  0  0  0  0  0  0  0  0
  201.1102  180.4697  152.2338 H   0  0  0  0  0  0  0  0  0  0  0  0
  199.5153  176.2850  155.4111 H   0  0  0  0  0  0  0  0  0  0  0  0
  200.7684  176.1583  154.2286 H   0  0  0  0  0  0  0  0  0  0  0  0
  202.6654  175.4574  157.3062 H   0  0  0  0  0  0  0  0  0  0  0  0
  201.3481  174.6797  156.4744 H   0  0  0  0  0  0  0  0  0  0  0  0
  202.6468  175.0572  154.2503 H   0  0  0  0  0  0  0  0  0  0  0  0
  203.8699  175.8973  155.1826 H   0  0  0  0  0  0  0  0  0  0  0  0
  203.1150  173.1867  155.2994 H   0  0  0  0  0  0  0  0  0  0  0  0
  200.0299  176.6385  157.8001 H   0  0  0  0  0  0  0  0  0  0  0  0
  200.4689  178.2927  157.3575 H   0  0  0  0  0  0  0  0  0  0  0  0
  201.6013  177.3291  158.2521 H   0  0  0  0  0  0  0  0  0  0  0  0
  202.1699  177.4170  155.9607 H   0  0  0  0  0  0  0  0  0  0  0  0
  1  2  1  0
  2  3  2  0
  2 23  1  0
  3  4  1  0
  3 24  1  0
  4  5  2  0
  4 30  1  0
  5  6  1  0
  5 22  1  0
  6  7  1  0
  6 31  1  0
  7  8  1  0
  7 32  1  6
  7 33  1  0
  8  9  2  0
  8 17  1  0
  9 10  1  0
  9 12  1  0
 10 11  1  0
 11 34  1  6
 11 35  1  0
 11 36  1  0
 12 13  1  0
 12 21  2  0
 13 14  1  0
 13 18  2  0
 14 15  1  0
 14 17  2  0
 15 16  1  0
 16 37  1  1
 16 38  1  0
 16 39  1  0
 17 40  1  0
 18 19  1  0
 18 41  1  0
 19 20  2  0
 19 42  1  0
 20 21  1  0
 20 43  1  0
 21 44  1  0
 22 23  2  0
 22 45  1  0
 23 46  1  0
 24 25  1  0
 24 47  1  1
 24 48  1  0
 25 26  1  0
 25 29  1  0
 25 57  1  6
 26 27  1  0
 26 49  1  1
 26 50  1  0
 27 28  1  0
 27 51  1  6
 27 52  1  0
 28 53  1  0
 29 54  1  1
 29 55  1  0
 29 56  1  0
M  CHG  1  25   1
M  END
>  <s_epik_cmdline>  (997) 
J2VwaWtfcHl0aG9uJywgJy1waCcsICc3LjAwMDAwMCcsICctcGh0JywgJzIuMDAwMDAwJywgJy1tcycsICcxNicsICctdG4nLCAnOCcsICctbWEnLCAnMjAwJywgJy1pbWFlJywgJzxpbmZpbGUubWFlPicsICctb21hZScsICc8b3V0ZmlsZS5tYWU+Jw==

>  <s_epik_input>  (997) 
W09IXVtDSDJdW0NIMl1OKFtDSDNdKVtDSDJdYyhjMUNsKVtjSF1jKFtjSF1bY0hdMSlbTkhdW0NIMl1jKGMyT1tDSDNdKVtjSF1jKE9bQ0gzXSljKGMyMylbY0hdW2NIXVtjSF1bY0hdMw==

>  <s_i_glide_gridfile>  (997) 
ATP-Grid

>  <s_lp_Force_Field>  (997) 
OPLS_2005

>  <s_lp_Variant>  (997) 
m_270004bbb____24794408____24720236-1

>  <s_lp_label>  (997) 
1933_sdstereoexpander_1_neutralizer_1_epik_1_stereoizer_1

>  <s_m_source_file>  (997) 
ATP-VSW-LIGPREP-002-in.maegz

>  <s_sd_BIOSOLVEIT.INFINISEE\_QUERY\_NAME>  (997) 
Ref-Lig

>  <s_sd_BIOSOLVEIT.INFINISEE\_QUERY\_SMILES>  (997) 
S(c1nc2c(cc1C[NH2+]Cc3ccc(cc3)C[NH+](C)C)cccc2)Cc4ccccc4

>  <s_sd_BIOSOLVEIT.INFINISEE\_REACTION\_NAME>  (997) 
m_270004bbb

>  <s_sd_BIOSOLVEIT.INFINISEE\_REAGENT1\_SMILES>  (997) 
[R1*]Nc1cc(c(Cl)cc1)CN(CCO)C

>  <s_sd_BIOSOLVEIT.INFINISEE\_REAGENT2\_SMILES>  (997) 
[R1*]Cc1c(OC)c2c(c(OC)c1)cccc2

>  <s_sd_BIOSOLVEIT.INFINISEE\_SPACE>  (997) 
REALSpace_44bn_2023-08

>  <s_vsw_compound_code>  (997) 
61826

>  <s_vsw_variant>  (997) 
61826-1

>  <r_epik_Charging_Adjusted_Penalty>  (997) 
0.069171375724569495

>  <r_epik_Ionization_Penalty>  (997) 
0.034599999999999999

>  <r_epik_Ionization_Penalty_Charging>  (997) 
0.034599999999999999

>  <r_epik_Ionization_Penalty_Neutral>  (997) 
0

>  <r_epik_State_Penalty>  (997) 
0.034599999999999999

>  <r_i_docking_score>  (997) 
-4.7004333270351504

>  <r_i_glide_ecoul>  (997) 
-8.3821382522583008

>  <r_i_glide_eff_state_penalty>  (997) 
0.034599999999999999

>  <r_i_glide_einternal>  (997) 
3.44885301589966

>  <r_i_glide_emodel>  (997) 
-58.330813033641803

>  <r_i_glide_energy>  (997) 
-43.320893287658699

>  <r_i_glide_erotb>  (997) 
0.79918618310249401

>  <r_i_glide_esite>  (997) 
-0.046813784755177001

>  <r_i_glide_evdw>  (997) 
-34.938755035400398

>  <r_i_glide_gscore>  (997) 
-4.7350333270351497

>  <r_i_glide_hbond>  (997) 
0

>  <r_i_glide_ligand_efficiency>  (997) 
-0.162083907828798

>  <r_i_glide_ligand_efficiency_ln>  (997) 
-1.0762800391861

>  <r_i_glide_ligand_efficiency_sa>  (997) 
-0.49797311663638999

>  <r_i_glide_lipo>  (997) 
-1.6849612357737001

>  <r_i_glide_metal>  (997) 
-0

>  <r_i_glide_rewards>  (997) 
-0.79818599999999895

>  <r_lp_Energy>  (997) 
34.964379000000001

>  <r_qp_ACxDN^.5/SA>  (997) 
0.0128901

>  <r_qp_CIQPlogS>  (997) 
-5.0259999999999998

>  <r_qp_EA(eV)>  (997) 
0.69999999999999996

>  <r_qp_FISA>  (997) 
61.759999999999998

>  <r_qp_FOSA>  (997) 
307.49799999999999

>  <r_qp_IP(eV)>  (997) 
8.1440000000000001

>  <r_qp_Jm>  (997) 
0.122354602722049

>  <r_qp_PISA>  (997) 
264.44200000000001

>  <r_qp_PSA>  (997) 
53.162999999999997

>  <r_qp_PercentHumanOralAbsorption>  (997) 
100

>  <r_qp_QPPCaco>  (997) 
641.404

>  <r_qp_QPPMDCK>  (997) 
608.99199999999996

>  <r_qp_QPlogBB>  (997) 
-0.115

>  <r_qp_QPlogHERG>  (997) 
-6.1710000000000003

>  <r_qp_QPlogKhsa>  (997) 
0.42699999999999999

>  <r_qp_QPlogKp>  (997) 
-2.8290000000000002

>  <r_qp_QPlogPC16>  (997) 
13.134

>  <r_qp_QPlogPo/w>  (997) 
4.101

>  <r_qp_QPlogPoct>  (997) 
19.655999999999999

>  <r_qp_QPlogPw>  (997) 
10.422000000000001

>  <r_qp_QPlogS>  (997) 
-3.702

>  <r_qp_QPpolrz>  (997) 
40.991

>  <r_qp_SASA>  (997) 
680.22199999999998

>  <r_qp_SAamideO>  (997) 
0

>  <r_qp_SAfluorine>  (997) 
0

>  <r_qp_WPSA>  (997) 
46.521999999999998

>  <r_qp_accptHB>  (997) 
6.2000000000000002

>  <r_qp_dip^2/V>  (997) 
0.0040118000000000003

>  <r_qp_dipole>  (997) 
2.262

>  <r_qp_donorHB>  (997) 
2

>  <r_qp_glob>  (997) 
0.83612759999999997

>  <r_qp_mol_MW>  (997) 
414.93099999999998

>  <r_qp_volume>  (997) 
1275.373

>  <r_sd_BIOSOLVEIT.INFINISEE\_FTREES\_SIMILARITY>  (997) 
0.90200000000000002

>  <r_sd_BIOSOLVEIT.LOGP>  (997) 
3.1295000000000002

>  <r_sd_BIOSOLVEIT.MOLECULAR\_WEIGHT>  (997) 
415.93799999999999

>  <r_sd_BIOSOLVEIT.TPSA>  (997) 
55.159999999999997

>  <i_epik_Tot_Q>  (997) 
1

>  <i_epik_Tot_abs_Q>  (997) 
1

>  <i_f3d_flags>  (997) 
0

>  <i_i_glide_confnum>  (997) 
5

>  <i_i_glide_lignum>  (997) 
700

>  <i_i_glide_posenum>  (997) 
7

>  <i_i_glide_rotatable_bonds>  (997) 
10

>  <i_lp_mmshare_version>  (997) 
65135

>  <i_m_ct_format>  (997) 
2

>  <i_m_source_file_index>  (997) 
1933

>  <i_qp_#NandO>  (997) 
5

>  <i_qp_#acid>  (997) 
0

>  <i_qp_#amide>  (997) 
0

>  <i_qp_#amidine>  (997) 
0

>  <i_qp_#amine>  (997) 
1

>  <i_qp_#in34>  (997) 
0

>  <i_qp_#in56>  (997) 
16

>  <i_qp_#metab>  (997) 
8

>  <i_qp_#nonHatm>  (997) 
29

>  <i_qp_#noncon>  (997) 
0

>  <i_qp_#ringatoms>  (997) 
16

>  <i_qp_#rotor>  (997) 
10

>  <i_qp_#rtvFG>  (997) 
0

>  <i_qp_#stars>  (997) 
0

>  <i_qp_CNS>  (997) 
1

>  <i_qp_HumanOralAbsorption>  (997) 
3

>  <i_qp_RuleOfFive>  (997) 
0

>  <i_qp_RuleOfThree>  (997) 
1

>  <i_sd_BIOSOLVEIT.INFINISEE\_REAGENT1\_NAME>  (997) 
24794408

>  <i_sd_BIOSOLVEIT.INFINISEE\_REAGENT2\_NAME>  (997) 
24720236

>  <i_sd_BIOSOLVEIT.INFINISEE\_RESULT\_RANK>  (997) 
86517

>  <i_sd_version>  (997) 
0

>  <b_lp_Chiralities_Consistent>  (997) 
1

>  <b_sd_chiral_flag>  (997) 
0

>  <canonical_id>  (997) 
ATP-HTVS-9F5103B68EB9

>  <compound_code>  (997) 
61826

>  <title>  (997) 
m_270004bbb____24794408____24720236

>  <variant>  (997) 
61826-1

>  <source_file>  (997) 
运行/运行/ATP-VSW/ATP-VSW-DOCK_HTVS_1-002_lib.maegz

>  <canonical_smiles>  (997) 
COc1cc(CNc2ccc(Cl)c(C[N@@H+](C)CCO)c2)c(OC)c2ccccc12

>  <scaffold>  (997) 
c1ccc(NCc2ccc3ccccc3c2)cc1

>  <molecular_formula>  (997) 
C23H28ClN2O3+

$$$$
ATP-HTVS-9F7EB006111C
     RDKit          3D

 54 57  0  0  0  0  0  0  0  0999 V2000
  196.8548  182.0001  150.8105 O   0  0  0  0  0  0  0  0  0  0  0  0
  197.6620  181.0390  151.4645 C   0  0  1  0  0  0  0  0  0  0  0  0
  197.9102  179.7870  150.6216 C   0  0  0  0  0  0  0  0  0  0  0  0
  197.9491  179.8607  149.2123 C   0  0  0  0  0  0  0  0  0  0  0  0
  198.1568  178.7008  148.4412 C   0  0  0  0  0  0  0  0  0  0  0  0
  198.3585  177.4562  149.0709 C   0  0  0  0  0  0  0  0  0  0  0  0
  198.3502  177.3794  150.4773 C   0  0  0  0  0  0  0  0  0  0  0  0
  198.1001  178.5318  151.2436 C   0  0  0  0  0  0  0  0  0  0  0  0
  198.5844  176.2131  148.2392 C   0  0  2  0  0  0  0  0  0  0  0  0
  198.9694  181.7428  151.9175 C   0  0  1  0  0  0  0  0  0  0  0  0
  199.8853  180.8924  152.6750 N   0  0  0  0  0  0  0  0  0  0  0  0
  199.4478  180.2854  153.8635 C   0  0  0  0  0  0  0  0  0  0  0  0
  198.5503  180.9399  154.6278 N   0  0  0  0  0  0  0  0  0  0  0  0
  198.0675  180.3561  155.7333 C   0  0  0  0  0  0  0  0  0  0  0  0
  198.4455  179.1341  156.1117 N   0  0  0  0  0  0  0  0  0  0  0  0
  199.3604  178.4467  155.4017 C   0  0  0  0  0  0  0  0  0  0  0  0
  199.9044  179.0010  154.2242 C   0  0  0  0  0  0  0  0  0  0  0  0
  200.8173  178.2386  153.4556 C   0  0  0  0  0  0  0  0  0  0  0  0
  201.1929  176.9472  153.8818 C   0  0  0  0  0  0  0  0  0  0  0  0
  200.6647  176.4135  155.0743 C   0  0  0  0  0  0  0  0  0  0  0  0
  199.7450  177.1652  155.8316 C   0  0  0  0  0  0  0  0  0  0  0  0
  197.1622  181.0371  156.5262 N   0  0  0  0  0  0  0  0  0  0  0  0
  196.8088  182.4380  156.3407 C   0  0  1  0  0  0  0  0  0  0  0  0
  196.5013  183.1398  157.6454 C   0  0  0  0  0  0  0  0  0  0  0  0
  197.4953  183.9091  158.2881 C   0  0  0  0  0  0  0  0  0  0  0  0
  197.2071  184.5666  159.5007 C   0  0  0  0  0  0  0  0  0  0  0  0
  195.9247  184.4575  160.0699 C   0  0  0  0  0  0  0  0  0  0  0  0
  194.9323  183.6940  159.4277 C   0  0  0  0  0  0  0  0  0  0  0  0
  195.2210  183.0275  158.2227 C   0  0  0  0  0  0  0  0  0  0  0  0
  196.6792  182.7079  151.4132 H   0  0  0  0  0  0  0  0  0  0  0  0
  197.0883  180.7305  152.3378 H   0  0  0  0  0  0  0  0  0  0  0  0
  197.8144  180.8095  148.7136 H   0  0  0  0  0  0  0  0  0  0  0  0
  198.1652  178.7710  147.3633 H   0  0  0  0  0  0  0  0  0  0  0  0
  198.5037  176.4325  150.9772 H   0  0  0  0  0  0  0  0  0  0  0  0
  198.0608  178.4432  152.3175 H   0  0  0  0  0  0  0  0  0  0  0  0
  198.3459  175.3135  148.8079 H   0  0  0  0  0  0  0  0  0  0  0  0
  199.6279  176.1572  147.9285 H   0  0  0  0  0  0  0  0  0  0  0  0
  197.9561  176.2341  147.3478 H   0  0  0  0  0  0  0  0  0  0  0  0
  199.5100  182.0880  151.0317 H   0  0  0  0  0  0  0  0  0  0  0  0
  198.7552  182.6339  152.5079 H   0  0  0  0  0  0  0  0  0  0  0  0
  200.5447  180.3734  152.1156 H   0  0  0  0  0  0  0  0  0  0  0  0
  201.2256  178.6113  152.5306 H   0  0  0  0  0  0  0  0  0  0  0  0
  201.8877  176.3645  153.2925 H   0  0  0  0  0  0  0  0  0  0  0  0
  200.9587  175.4251  155.4014 H   0  0  0  0  0  0  0  0  0  0  0  0
  199.3151  176.7582  156.7392 H   0  0  0  0  0  0  0  0  0  0  0  0
  196.6654  180.4858  157.2254 H   0  0  0  0  0  0  0  0  0  0  0  0
  197.6183  182.9839  155.8585 H   0  0  0  0  0  0  0  0  0  0  0  0
  195.9502  182.5020  155.6714 H   0  0  0  0  0  0  0  0  0  0  0  0
  198.4801  184.0044  157.8523 H   0  0  0  0  0  0  0  0  0  0  0  0
  197.9662  185.1572  159.9921 H   0  0  0  0  0  0  0  0  0  0  0  0
  195.7021  184.9617  160.9971 H   0  0  0  0  0  0  0  0  0  0  0  0
  193.9455  183.6166  159.8555 H   0  0  0  0  0  0  0  0  0  0  0  0
  194.4543  182.4420  157.7336 H   0  0  0  0  0  0  0  0  0  0  0  0
  198.0370  178.6812  156.9663 H   0  0  0  0  0  0  0  0  0  0  0  0
  1  2  1  0
  1 30  1  0
  2  3  1  0
  2 10  1  0
  2 31  1  1
  3  4  1  0
  3  8  2  0
  4  5  2  0
  4 32  1  0
  5  6  1  0
  5 33  1  0
  6  7  2  0
  6  9  1  0
  7  8  1  0
  7 34  1  0
  8 35  1  0
  9 36  1  1
  9 37  1  0
  9 38  1  0
 10 11  1  0
 10 39  1  6
 10 40  1  0
 11 12  1  0
 11 41  1  0
 12 13  2  0
 12 17  1  0
 13 14  1  0
 14 15  2  0
 14 22  1  0
 15 16  1  0
 15 54  1  0
 16 17  1  0
 16 21  2  0
 17 18  2  0
 18 19  1  0
 18 42  1  0
 19 20  2  0
 19 43  1  0
 20 21  1  0
 20 44  1  0
 21 45  1  0
 22 23  1  0
 22 46  1  0
 23 24  1  0
 23 47  1  6
 23 48  1  0
 24 25  2  0
 24 29  1  0
 25 26  1  0
 25 49  1  0
 26 27  2  0
 26 50  1  0
 27 28  1  0
 27 51  1  0
 28 29  2  0
 28 52  1  0
 29 53  1  0
M  CHG  1  15   1
M  END
>  <s_epik_cmdline>  (998) 
J2VwaWtfcHl0aG9uJywgJy1waCcsICc3LjAwMDAwMCcsICctcGh0JywgJzIuMDAwMDAwJywgJy1tcycsICcxNicsICctdG4nLCAnOCcsICctbWEnLCAnMjAwJywgJy1pbWFlJywgJzxpbmZpbGUubWFlPicsICctb21hZScsICc8b3V0ZmlsZS5tYWU+Jw==

>  <s_epik_input>  (998) 
W2NIXTFbY0hdYyhbQ0gzXSlbY0hdW2NIXWMxW0NASF0oW09IXSlbQ0gyXVtOSF1jKGMoYzIzKVtjSF1bY0hdW2NIXVtjSF0zKW5jKG4yKVtOSF1bQ0gyXWM0W2NIXVtjSF1bY0hdW2NIXVtjSF00

>  <s_i_glide_gridfile>  (998) 
ATP-Grid

>  <s_lp_Force_Field>  (998) 
OPLS_2005

>  <s_lp_Variant>  (998) 
YAS_R007____OTV5753507____OTV1038608____OTV1055862-2

>  <s_lp_label>  (998) 
93_sdstereoexpander_2_neutralizer_1_epik_1_stereoizer_1

>  <s_m_source_file>  (998) 
ATP-VSW-LIGPREP-001-in.maegz

>  <s_sd_BIOSOLVEIT.INFINISEE\_QUERY\_NAME>  (998) 
Ref-Lig

>  <s_sd_BIOSOLVEIT.INFINISEE\_QUERY\_SMILES>  (998) 
S(c1nc2c(cc1C[NH2+]Cc3ccc(cc3)C[NH+](C)C)cccc2)Cc4ccccc4

>  <s_sd_BIOSOLVEIT.INFINISEE\_REACTION\_NAME>  (998) 
YAS_R007

>  <s_sd_BIOSOLVEIT.INFINISEE\_REAGENT1\_NAME>  (998) 
OTV5753507

>  <s_sd_BIOSOLVEIT.INFINISEE\_REAGENT1\_SMILES>  (998) 
Nc1ccccc1

>  <s_sd_BIOSOLVEIT.INFINISEE\_REAGENT2\_NAME>  (998) 
OTV1038608

>  <s_sd_BIOSOLVEIT.INFINISEE\_REAGENT2\_SMILES>  (998) 
NCc1ccccc1

>  <s_sd_BIOSOLVEIT.INFINISEE\_REAGENT3\_NAME>  (998) 
OTV1055862

>  <s_sd_BIOSOLVEIT.INFINISEE\_REAGENT3\_SMILES>  (998) 
OC(c1ccc(cc1)C)CN

>  <s_sd_BIOSOLVEIT.INFINISEE\_SPACE>  (998) 
CHEMriya_12bn_2022-01

>  <s_vsw_compound_code>  (998) 
2945

>  <s_vsw_variant>  (998) 
2945-2

>  <r_epik_Charging_Adjusted_Penalty>  (998) 
0.017443059281410701

>  <r_epik_Ionization_Penalty>  (998) 
0.0063

>  <r_epik_Ionization_Penalty_Charging>  (998) 
0.0063

>  <r_epik_Ionization_Penalty_Neutral>  (998) 
0

>  <r_epik_State_Penalty>  (998) 
0.0112

>  <r_i_docking_score>  (998) 
-4.1751952883002996

>  <r_i_glide_ecoul>  (998) 
-5.4918785095214799

>  <r_i_glide_eff_state_penalty>  (998) 
0.0112

>  <r_i_glide_einternal>  (998) 
2.2540647983550999

>  <r_i_glide_emodel>  (998) 
-48.335644732733897

>  <r_i_glide_energy>  (998) 
-34.0425510406494

>  <r_i_glide_erotb>  (998) 
0.91640594727561697

>  <r_i_glide_esite>  (998) 
-0.265596419342149

>  <r_i_glide_evdw>  (998) 
-28.550672531127901

>  <r_i_glide_gscore>  (998) 
-4.1863952883003002

>  <r_i_glide_hbond>  (998) 
-0.40000000000000002

>  <r_i_glide_ligand_efficiency>  (998) 
-0.14397225132069999

>  <r_i_glide_ligand_efficiency_ln>  (998) 
-0.95601384720329996

>  <r_i_glide_ligand_efficiency_sa>  (998) 
-0.44232836966797501

>  <r_i_glide_lipo>  (998) 
-1.4050814587036999

>  <r_i_glide_metal>  (998) 
-0

>  <r_i_glide_rewards>  (998) 
-0.78080795454545304

>  <r_lp_Energy>  (998) 
14.043101999999999

>  <r_qp_ACxDN^.5/SA>  (998) 
0.011695199999999999

>  <r_qp_CIQPlogS>  (998) 
-6.2779999999999996

>  <r_qp_EA(eV)>  (998) 
0.66300000000000003

>  <r_qp_FISA>  (998) 
90.085999999999999

>  <r_qp_FOSA>  (998) 
148.88200000000001

>  <r_qp_IP(eV)>  (998) 
8.0310000000000006

>  <r_qp_Jm>  (998) 
0.14953953440612

>  <r_qp_PISA>  (998) 
457.101

>  <r_qp_PSA>  (998) 
63.499000000000002

>  <r_qp_PercentHumanOralAbsorption>  (998) 
100

>  <r_qp_QPPCaco>  (998) 
1385.5170000000001

>  <r_qp_QPPMDCK>  (998) 
703.745

>  <r_qp_QPlogBB>  (998) 
-0.82399999999999995

>  <r_qp_QPlogHERG>  (998) 
-6.71

>  <r_qp_QPlogKhsa>  (998) 
0.66000000000000003

>  <r_qp_QPlogKp>  (998) 
-0.80100000000000005

>  <r_qp_QPlogPC16>  (998) 
14.564

>  <r_qp_QPlogPo/w>  (998) 
4.8209999999999997

>  <r_qp_QPlogPoct>  (998) 
21.530999999999999

>  <r_qp_QPlogPw>  (998) 
12.375

>  <r_qp_QPlogS>  (998) 
-5.609

>  <r_qp_QPpolrz>  (998) 
43.890000000000001

>  <r_qp_SASA>  (998) 
696.06899999999996

>  <r_qp_SAamideO>  (998) 
0

>  <r_qp_SAfluorine>  (998) 
0

>  <r_qp_WPSA>  (998) 
0

>  <r_qp_accptHB>  (998) 
4.7000000000000002

>  <r_qp_dip^2/V>  (998) 
0.0052838

>  <r_qp_dipole>  (998) 
2.5899999999999999

>  <r_qp_donorHB>  (998) 
3

>  <r_qp_glob>  (998) 
0.81469199999999997

>  <r_qp_mol_MW>  (998) 
384.48000000000002

>  <r_qp_volume>  (998) 
1269.758

>  <r_sd_BIOSOLVEIT.INFINISEE\_FTREES\_SIMILARITY>  (998) 
0.90900000000000003

>  <r_sd_BIOSOLVEIT.LOGP>  (998) 
4.6958200000000003

>  <r_sd_BIOSOLVEIT.MOLECULAR\_WEIGHT>  (998) 
384.48099999999999

>  <r_sd_BIOSOLVEIT.TPSA>  (998) 
70.069999999999993

>  <i_epik_Tot_Q>  (998) 
1

>  <i_epik_Tot_abs_Q>  (998) 
1

>  <i_f3d_flags>  (998) 
0

>  <i_i_glide_confnum>  (998) 
8

>  <i_i_glide_lignum>  (998) 
15

>  <i_i_glide_posenum>  (998) 
15

>  <i_i_glide_rotatable_bonds>  (998) 
8

>  <i_lp_mmshare_version>  (998) 
65135

>  <i_m_ct_format>  (998) 
2

>  <i_m_source_file_index>  (998) 
93

>  <i_qp_#NandO>  (998) 
5

>  <i_qp_#acid>  (998) 
0

>  <i_qp_#amide>  (998) 
0

>  <i_qp_#amidine>  (998) 
0

>  <i_qp_#amine>  (998) 
0

>  <i_qp_#in34>  (998) 
0

>  <i_qp_#in56>  (998) 
22

>  <i_qp_#metab>  (998) 
3

>  <i_qp_#nonHatm>  (998) 
29

>  <i_qp_#noncon>  (998) 
0

>  <i_qp_#ringatoms>  (998) 
22

>  <i_qp_#rotor>  (998) 
8

>  <i_qp_#rtvFG>  (998) 
0

>  <i_qp_#stars>  (998) 
1

>  <i_qp_CNS>  (998) 
-1

>  <i_qp_HumanOralAbsorption>  (998) 
3

>  <i_qp_RuleOfFive>  (998) 
0

>  <i_qp_RuleOfThree>  (998) 
0

>  <i_sd_BIOSOLVEIT.INFINISEE\_RESULT\_RANK>  (998) 
48486

>  <i_sd_version>  (998) 
0

>  <b_lp_Chiralities_Consistent>  (998) 
1

>  <b_sd_chiral_flag>  (998) 
0

>  <canonical_id>  (998) 
ATP-HTVS-9F7EB006111C

>  <compound_code>  (998) 
2945

>  <title>  (998) 
YAS_R007____OTV5753507____OTV1038608____OTV1055862

>  <variant>  (998) 
2945-2

>  <source_file>  (998) 
运行/运行/ATP-VSW/ATP-VSW-DOCK_HTVS_1-001_lib/ATP-VSW-DOCK_HTVS_1-001_lib

>  <canonical_smiles>  (998) 
Cc1ccc([C@H](O)CNc2nc(NCc3ccccc3)[nH+]c3ccccc23)cc1

>  <scaffold>  (998) 
c1ccc(CCNc2nc(NCc3ccccc3)[nH+]c3ccccc23)cc1

>  <molecular_formula>  (998) 
C24H25N4O+

$$$$
ATP-HTVS-9F81472CEEC6
     RDKit          3D

 56 59  0  0  0  0  0  0  0  0999 V2000
  197.6665  190.3676  158.1298 F   0  0  0  0  0  0  0  0  0  0  0  0
  197.3339  189.0981  158.4674 C   0  0  0  0  0  0  0  0  0  0  0  0
  197.1468  188.1270  157.4665 C   0  0  0  0  0  0  0  0  0  0  0  0
  196.7844  186.8096  157.8131 C   0  0  0  0  0  0  0  0  0  0  0  0
  196.6263  186.4427  159.1717 C   0  0  0  0  0  0  0  0  0  0  0  0
  196.8156  187.4293  160.1664 C   0  0  0  0  0  0  0  0  0  0  0  0
  197.1675  188.7471  159.8185 C   0  0  0  0  0  0  0  0  0  0  0  0
  196.2401  185.0199  159.5753 C   0  0  2  0  0  0  0  0  0  0  0  0
  196.7756  184.0361  158.6047 N   0  0  1  0  0  0  0  0  0  0  0  0
  196.4287  182.6219  158.8376 C   0  0  1  0  0  0  0  0  0  0  0  0
  196.8777  181.9087  157.6370 C   0  0  0  0  0  0  0  0  0  0  0  0
  197.1937  181.3231  156.6156 C   0  0  0  0  0  0  0  0  0  0  0  0
  197.5942  180.6053  155.4186 C   0  0  0  0  0  0  0  0  0  0  0  0
  198.7328  179.7625  155.3743 C   0  0  0  0  0  0  0  0  0  0  0  0
  199.0637  179.1326  154.1431 C   0  0  0  0  0  0  0  0  0  0  0  0
  198.2337  179.3703  153.0071 C   0  0  0  0  0  0  0  0  0  0  0  0
  197.1349  180.1574  153.0866 N   0  0  0  0  0  0  0  0  0  0  0  0
  196.8270  180.7506  154.2521 C   0  0  0  0  0  0  0  0  0  0  0  0
  198.5985  178.7162  151.7999 N   0  0  0  0  0  0  0  0  0  0  0  0
  197.9170  178.6300  150.6411 C   0  0  0  0  0  0  0  0  0  0  0  0
  196.9410  179.3165  150.3378 O   0  0  0  0  0  0  0  0  0  0  0  0
  198.4740  177.6307  149.6655 C   0  0  0  0  0  0  0  0  0  0  0  0
  198.2790  177.8192  148.2774 C   0  0  0  0  0  0  0  0  0  0  0  0
  198.7657  176.8739  147.3504 C   0  0  0  0  0  0  0  0  0  0  0  0
  199.4430  175.7259  147.8041 C   0  0  0  0  0  0  0  0  0  0  0  0
  199.9463  174.7406  146.8630 C   0  0  0  0  0  0  0  0  0  0  0  0
  200.3463  173.9541  146.1158 N   0  0  0  0  0  0  0  0  0  0  0  0
  199.6288  175.5233  149.1852 C   0  0  0  0  0  0  0  0  0  0  0  0
  199.1380  176.4641  150.1113 C   0  0  0  0  0  0  0  0  0  0  0  0
  200.2049  178.2895  154.0901 C   0  0  0  0  0  0  0  0  0  0  0  0
  201.0060  178.0818  155.2293 C   0  0  0  0  0  0  0  0  0  0  0  0
  200.6809  178.7106  156.4412 C   0  0  0  0  0  0  0  0  0  0  0  0
  199.5503  179.5450  156.5100 C   0  0  0  0  0  0  0  0  0  0  0  0
  194.7155  184.8919  159.7434 C   0  0  2  0  0  0  0  0  0  0  0  0
  196.4375  184.2837  157.6891 H   0  0  0  0  0  0  0  0  0  0  0  0
  197.2795  188.3920  156.4281 H   0  0  0  0  0  0  0  0  0  0  0  0
  196.6360  186.1016  157.0119 H   0  0  0  0  0  0  0  0  0  0  0  0
  196.6896  187.1829  161.2103 H   0  0  0  0  0  0  0  0  0  0  0  0
  197.3172  189.4925  160.5885 H   0  0  0  0  0  0  0  0  0  0  0  0
  196.7126  184.8065  160.5380 H   0  0  0  0  0  0  0  0  0  0  0  0
  196.9395  182.2347  159.7198 H   0  0  0  0  0  0  0  0  0  0  0  0
  195.3524  182.4501  158.9301 H   0  0  0  0  0  0  0  0  0  0  0  0
  195.9482  181.3808  154.2483 H   0  0  0  0  0  0  0  0  0  0  0  0
  199.4332  178.1576  151.8551 H   0  0  0  0  0  0  0  0  0  0  0  0
  197.7524  178.6893  147.9139 H   0  0  0  0  0  0  0  0  0  0  0  0
  198.6101  177.0387  146.2933 H   0  0  0  0  0  0  0  0  0  0  0  0
  200.1392  174.6367  149.5393 H   0  0  0  0  0  0  0  0  0  0  0  0
  199.2752  176.2600  151.1637 H   0  0  0  0  0  0  0  0  0  0  0  0
  200.4967  177.7797  153.1855 H   0  0  0  0  0  0  0  0  0  0  0  0
  201.8719  177.4394  155.1765 H   0  0  0  0  0  0  0  0  0  0  0  0
  201.2957  178.5495  157.3157 H   0  0  0  0  0  0  0  0  0  0  0  0
  199.3117  179.9964  157.4590 H   0  0  0  0  0  0  0  0  0  0  0  0
  194.3255  185.6508  160.4307 H   0  0  0  0  0  0  0  0  0  0  0  0
  194.4144  183.9108  160.1208 H   0  0  0  0  0  0  0  0  0  0  0  0
  194.2246  185.0378  158.7858 H   0  0  0  0  0  0  0  0  0  0  0  0
  197.7809  184.1192  158.5915 H   0  0  0  0  0  0  0  0  0  0  0  0
  1  2  1  0
  2  3  1  0
  2  7  2  0
  3  4  2  0
  3 36  1  0
  4  5  1  0
  4 37  1  0
  5  6  2  0
  5  8  1  0
  6  7  1  0
  6 38  1  0
  7 39  1  0
  8  9  1  0
  8 34  1  0
  8 40  1  1
  9 10  1  0
  9 35  1  6
  9 56  1  0
 10 11  1  0
 10 41  1  1
 10 42  1  0
 11 12  3  0
 12 13  1  0
 13 14  2  0
 13 18  1  0
 14 15  1  0
 14 33  1  0
 15 16  2  0
 15 30  1  0
 16 17  1  0
 16 19  1  0
 17 18  2  0
 18 43  1  0
 19 20  1  0
 19 44  1  0
 20 21  2  0
 20 22  1  0
 22 23  1  0
 22 29  2  0
 23 24  2  0
 23 45  1  0
 24 25  1  0
 24 46  1  0
 25 26  1  0
 25 28  2  0
 26 27  3  0
 28 29  1  0
 28 47  1  0
 29 48  1  0
 30 31  2  0
 30 49  1  0
 31 32  1  0
 31 50  1  0
 32 33  2  0
 32 51  1  0
 33 52  1  0
 34 53  1  1
 34 54  1  0
 34 55  1  0
M  CHG  1   9   1
M  END
>  <s_epik_cmdline>  (999) 
J2VwaWtfcHl0aG9uJywgJy1waCcsICc3LjAwMDAwMCcsICctcGh0JywgJzIuMDAwMDAwJywgJy1tcycsICcxNicsICctdG4nLCAnOCcsICctbWEnLCAnMjAwJywgJy1pbWFlJywgJzxpbmZpbGUubWFlPicsICctb21hZScsICc8b3V0ZmlsZS5tYWU+Jw==

>  <s_epik_input>  (999) 
RmMxW2NIXVtjSF1jKFtjSF1bY0hdMSlbQ0BASF0oW0NIM10pW05IXVtDSDJdQyNDYzJbY0hdbmMoYyhjMjMpW2NIXVtjSF1bY0hdW2NIXTMpW05IXUMoPU8pYzRbY0hdW2NIXWMoQyNOKVtjSF1bY0hdNA==

>  <s_i_glide_gridfile>  (999) 
ATP-Grid

>  <s_lp_Force_Field>  (999) 
OPLS_2005

>  <s_lp_Variant>  (999) 
rxn503b____EMOL494614____EMOL7515103____EMOL317506007-3

>  <s_lp_label>  (999) 
2833_sdstereoexpander_1_neutralizer_1_epik_2_stereoizer_1

>  <s_m_source_file>  (999) 
ATP-VSW-LIGPREP-003-in.maegz

>  <s_sd_BIOSOLVEIT.INFINISEE\_QUERY\_NAME>  (999) 
Ref-Lig

>  <s_sd_BIOSOLVEIT.INFINISEE\_QUERY\_SMILES>  (999) 
S(c1nc2c(cc1C[NH2+]Cc3ccc(cc3)C[NH+](C)C)cccc2)Cc4ccccc4

>  <s_sd_BIOSOLVEIT.INFINISEE\_REACTION\_NAME>  (999) 
rxn503b

>  <s_sd_BIOSOLVEIT.INFINISEE\_REAGENT1\_NAME>  (999) 
EMOL494614

>  <s_sd_BIOSOLVEIT.INFINISEE\_REAGENT1\_SMILES>  (999) 
O=C(O)c1ccc(C#N)cc1

>  <s_sd_BIOSOLVEIT.INFINISEE\_REAGENT2\_NAME>  (999) 
EMOL7515103

>  <s_sd_BIOSOLVEIT.INFINISEE\_REAGENT2\_SMILES>  (999) 
Brc1c2c(c(nc1)N)cccc2

>  <s_sd_BIOSOLVEIT.INFINISEE\_REAGENT3\_NAME>  (999) 
EMOL317506007

>  <s_sd_BIOSOLVEIT.INFINISEE\_REAGENT3\_SMILES>  (999) 
Fc1ccc(cc1)C(NCC#C)C

>  <s_sd_BIOSOLVEIT.INFINISEE\_SPACE>  (999) 
eXplore_7tr_2022-12

>  <s_vsw_compound_code>  (999) 
90627

>  <s_vsw_variant>  (999) 
90627-3

>  <r_epik_Charging_Adjusted_Penalty>  (999) 
1.1575994546039801

>  <r_epik_Ionization_Penalty>  (999) 
0.57920000000000005

>  <r_epik_Ionization_Penalty_Charging>  (999) 
0.57879999999999998

>  <r_epik_Ionization_Penalty_Neutral>  (999) 
0.00040000000000000002

>  <r_epik_State_Penalty>  (999) 
0.57879999999999998

>  <r_i_docking_score>  (999) 
-3.9270061840848101

>  <r_i_glide_ecoul>  (999) 
-3.1637310981750502

>  <r_i_glide_eff_state_penalty>  (999) 
0.57879999999999998

>  <r_i_glide_einternal>  (999) 
5.0938529968261701

>  <r_i_glide_emodel>  (999) 
-58.107009948971601

>  <r_i_glide_energy>  (999) 
-44.759594440460198

>  <r_i_glide_erotb>  (999) 
0.69433441786033301

>  <r_i_glide_esite>  (999) 
0

>  <r_i_glide_evdw>  (999) 
-41.595863342285199

>  <r_i_glide_gscore>  (999) 
-4.5058061840848103

>  <r_i_glide_hbond>  (999) 
0

>  <r_i_glide_ligand_efficiency>  (999) 
-0.11550018188484699

>  <r_i_glide_ligand_efficiency_ln>  (999) 
-0.86758581485681097

>  <r_i_glide_ligand_efficiency_sa>  (999) 
-0.37417575184402102

>  <r_i_glide_lipo>  (999) 
-1.95307718820022

>  <r_i_glide_metal>  (999) 
-0

>  <r_i_glide_rewards>  (999) 
-0.69271058190441404

>  <r_lp_Energy>  (999) 
25.722021000000002

>  <r_qp_ACxDN^.5/SA>  (999) 
0.0108311

>  <r_qp_CIQPlogS>  (999) 
-6.944

>  <r_qp_EA(eV)>  (999) 
1.389

>  <r_qp_FISA>  (999) 
149.43000000000001

>  <r_qp_FOSA>  (999) 
128.35900000000001

>  <r_qp_IP(eV)>  (999) 
8.5709999999999997

>  <r_qp_Jm>  (999) 
1.1749891172796401e-06

>  <r_qp_PISA>  (999) 
523.89599999999996

>  <r_qp_PSA>  (999) 
83.475999999999999

>  <r_qp_PercentHumanOralAbsorption>  (999) 
90.805000000000007

>  <r_qp_QPPCaco>  (999) 
94.569999999999993

>  <r_qp_QPPMDCK>  (999) 
77.391999999999996

>  <r_qp_QPlogBB>  (999) 
-1.232

>  <r_qp_QPlogHERG>  (999) 
-8.9879999999999995

>  <r_qp_QPlogKhsa>  (999) 
0.92300000000000004

>  <r_qp_QPlogKp>  (999) 
-3.722

>  <r_qp_QPlogPC16>  (999) 
17.268999999999998

>  <r_qp_QPlogPo/w>  (999) 
4.867

>  <r_qp_QPlogPoct>  (999) 
24.847000000000001

>  <r_qp_QPlogPw>  (999) 
13.925000000000001

>  <r_qp_QPlogS>  (999) 
-7.859

>  <r_qp_QPpolrz>  (999) 
52.756

>  <r_qp_SASA>  (999) 
848.702

>  <r_qp_SAamideO>  (999) 
0

>  <r_qp_SAfluorine>  (999) 
47.017000000000003

>  <r_qp_WPSA>  (999) 
47.017000000000003

>  <r_qp_accptHB>  (999) 
6.5

>  <r_qp_dip^2/V>  (999) 
0.0324698

>  <r_qp_dipole>  (999) 
6.9210000000000003

>  <r_qp_donorHB>  (999) 
2

>  <r_qp_glob>  (999) 
0.73848000000000003

>  <r_qp_mol_MW>  (999) 
448.49799999999999

>  <r_qp_volume>  (999) 
1475.345

>  <r_sd_BIOSOLVEIT.INFINISEE\_FTREES\_SIMILARITY>  (999) 
0.90600000000000003

>  <r_sd_BIOSOLVEIT.LOGP>  (999) 
4.1739800000000002

>  <r_sd_BIOSOLVEIT.MOLECULAR\_WEIGHT>  (999) 
449.50700000000001

>  <r_sd_BIOSOLVEIT.TPSA>  (999) 
82.390000000000001

>  <i_epik_Tot_Q>  (999) 
1

>  <i_epik_Tot_abs_Q>  (999) 
1

>  <i_f3d_flags>  (999) 
0

>  <i_i_glide_confnum>  (999) 
1

>  <i_i_glide_lignum>  (999) 
1358

>  <i_i_glide_posenum>  (999) 
20

>  <i_i_glide_rotatable_bonds>  (999) 
8

>  <i_lp_mmshare_version>  (999) 
65135

>  <i_m_ct_format>  (999) 
2

>  <i_m_source_file_index>  (999) 
2833

>  <i_qp_#NandO>  (999) 
5

>  <i_qp_#acid>  (999) 
0

>  <i_qp_#amide>  (999) 
0

>  <i_qp_#amidine>  (999) 
0

>  <i_qp_#amine>  (999) 
1

>  <i_qp_#in34>  (999) 
0

>  <i_qp_#in56>  (999) 
22

>  <i_qp_#metab>  (999) 
4

>  <i_qp_#nonHatm>  (999) 
34

>  <i_qp_#noncon>  (999) 
0

>  <i_qp_#ringatoms>  (999) 
22

>  <i_qp_#rotor>  (999) 
8

>  <i_qp_#rtvFG>  (999) 
0

>  <i_qp_#stars>  (999) 
3

>  <i_qp_CNS>  (999) 
-2

>  <i_qp_HumanOralAbsorption>  (999) 
1

>  <i_qp_RuleOfFive>  (999) 
0

>  <i_qp_RuleOfThree>  (999) 
1

>  <i_sd_BIOSOLVEIT.INFINISEE\_RESULT\_RANK>  (999) 
66818

>  <i_sd_version>  (999) 
0

>  <b_lp_Chiralities_Consistent>  (999) 
1

>  <b_sd_chiral_flag>  (999) 
0

>  <canonical_id>  (999) 
ATP-HTVS-9F81472CEEC6

>  <compound_code>  (999) 
90627

>  <title>  (999) 
rxn503b____EMOL494614____EMOL7515103____EMOL317506007

>  <variant>  (999) 
90627-3

>  <source_file>  (999) 
运行/运行/ATP-VSW/ATP-VSW-DOCK_HTVS_1-003_lib/ATP-VSW-DOCK_HTVS_1-003_lib.mae

>  <canonical_smiles>  (999) 
C[C@@H]([NH2+]CC#Cc1cnc(NC(=O)c2ccc(C#N)cc2)c2ccccc12)c1ccc(F)cc1

>  <scaffold>  (999) 
O=C(Nc1ncc(C#CC[NH2+]Cc2ccccc2)c2ccccc12)c1ccccc1

>  <molecular_formula>  (999) 
C28H22FN4O+

$$$$
ATP-HTVS-9F81613398D9
     RDKit          3D

 60 63  0  0  0  0  0  0  0  0999 V2000
  196.4350  178.2428  148.2767 F   0  0  0  0  0  0  0  0  0  0  0  0
  197.6178  178.6477  147.7545 C   0  0  0  0  0  0  0  0  0  0  0  0
  197.9648  178.2412  146.4493 C   0  0  0  0  0  0  0  0  0  0  0  0
  197.1297  177.4446  145.7409 F   0  0  0  0  0  0  0  0  0  0  0  0
  199.1725  178.6712  145.8713 C   0  0  0  0  0  0  0  0  0  0  0  0
  200.0362  179.5146  146.5964 C   0  0  0  0  0  0  0  0  0  0  0  0
  199.6909  179.9276  147.8999 C   0  0  0  0  0  0  0  0  0  0  0  0
  198.4795  179.5016  148.4906 C   0  0  0  0  0  0  0  0  0  0  0  0
  198.1084  179.9362  149.8827 C   0  0  0  0  0  0  0  0  0  0  0  0
  197.5907  179.1407  150.6634 O   0  0  0  0  0  0  0  0  0  0  0  0
  198.3096  181.2463  150.1341 N   0  0  0  0  0  0  0  0  0  0  0  0
  197.9661  181.9858  151.3007 C   0  0  0  0  0  0  0  0  0  0  0  0
  197.8363  181.3983  152.5138 N   0  0  0  0  0  0  0  0  0  0  0  0
  197.6078  182.1591  153.6029 C   0  0  0  0  0  0  0  0  0  0  0  0
  197.4947  183.5650  153.5591 C   0  0  0  0  0  0  0  0  0  0  0  0
  197.3161  184.3283  154.7211 N   0  0  0  0  0  0  0  0  0  0  0  0
  198.2606  184.0970  155.8100 C   0  0  1  0  0  0  0  0  0  0  0  0
  197.6031  184.0722  157.1713 C   0  0  0  0  0  0  0  0  0  0  0  0
  196.7394  183.0167  157.4985 C   0  0  0  0  0  0  0  0  0  0  0  0
  196.0822  183.0053  158.7421 C   0  0  0  0  0  0  0  0  0  0  0  0
  196.3287  184.0254  159.6829 C   0  0  0  0  0  0  0  0  0  0  0  0
  197.2234  185.0665  159.3699 C   0  0  0  0  0  0  0  0  0  0  0  0
  197.8561  185.0964  158.1124 C   0  0  0  0  0  0  0  0  0  0  0  0
  195.0891  181.9088  159.0250 C   0  0  1  0  0  0  0  0  0  0  0  0
  193.8805  181.9944  158.1739 N   0  0  1  0  0  0  0  0  0  0  0  0
  193.0069  180.8083  158.3181 C   0  0  2  0  0  0  0  0  0  0  0  0
  193.1455  183.2595  158.3744 C   0  0  2  0  0  0  0  0  0  0  0  0
  197.5554  184.1821  152.2943 C   0  0  0  0  0  0  0  0  0  0  0  0
  197.8145  183.3951  151.1519 C   0  0  0  0  0  0  0  0  0  0  0  0
  197.9303  184.0426  149.8992 N   0  0  0  0  0  0  0  0  0  0  0  0
  197.1631  183.8069  148.7701 C   0  0  0  0  0  0  0  0  0  0  0  0
  197.6030  184.6296  147.7718 C   0  0  0  0  0  0  0  0  0  0  0  0
  198.6701  185.4079  148.3004 C   0  0  0  0  0  0  0  0  0  0  0  0
  198.8424  185.0408  149.6049 C   0  0  0  0  0  0  0  0  0  0  0  0
  199.4330  178.3503  144.8713 H   0  0  0  0  0  0  0  0  0  0  0  0
  200.9676  179.8383  146.1555 H   0  0  0  0  0  0  0  0  0  0  0  0
  200.3720  180.5661  148.4444 H   0  0  0  0  0  0  0  0  0  0  0  0
  198.6558  181.7977  149.3649 H   0  0  0  0  0  0  0  0  0  0  0  0
  197.5356  181.6301  154.5417 H   0  0  0  0  0  0  0  0  0  0  0  0
  197.0975  185.3049  154.5787 H   0  0  0  0  0  0  0  0  0  0  0  0
  198.8385  183.1816  155.6835 H   0  0  0  0  0  0  0  0  0  0  0  0
  198.9912  184.9087  155.7775 H   0  0  0  0  0  0  0  0  0  0  0  0
  196.5730  182.2257  156.7833 H   0  0  0  0  0  0  0  0  0  0  0  0
  195.8357  184.0142  160.6421 H   0  0  0  0  0  0  0  0  0  0  0  0
  197.4170  185.8410  160.0960 H   0  0  0  0  0  0  0  0  0  0  0  0
  198.5342  185.9077  157.8807 H   0  0  0  0  0  0  0  0  0  0  0  0
  195.6283  180.9775  158.9340 H   0  0  0  0  0  0  0  0  0  0  0  0
  194.7638  181.9639  160.0731 H   0  0  0  0  0  0  0  0  0  0  0  0
  192.6050  180.7139  159.3270 H   0  0  0  0  0  0  0  0  0  0  0  0
  193.5456  179.8937  158.1310 H   0  0  0  0  0  0  0  0  0  0  0  0
  192.1750  180.8578  157.6128 H   0  0  0  0  0  0  0  0  0  0  0  0
  192.8272  183.4376  159.3984 H   0  0  0  0  0  0  0  0  0  0  0  0
  192.2458  183.2047  157.7730 H   0  0  0  0  0  0  0  0  0  0  0  0
  193.7426  184.1254  158.0827 H   0  0  0  0  0  0  0  0  0  0  0  0
  197.4429  185.2544  152.2027 H   0  0  0  0  0  0  0  0  0  0  0  0
  196.3759  183.0687  148.7751 H   0  0  0  0  0  0  0  0  0  0  0  0
  197.2015  184.6680  146.7690 H   0  0  0  0  0  0  0  0  0  0  0  0
  199.2481  186.1592  147.7818 H   0  0  0  0  0  0  0  0  0  0  0  0
  199.5411  185.3907  150.3504 H   0  0  0  0  0  0  0  0  0  0  0  0
  194.1708  182.0240  157.1943 H   0  0  0  0  0  0  0  0  0  0  0  0
  1  2  1  0
  2  3  2  0
  2  8  1  0
  3  4  1  0
  3  5  1  0
  5  6  2  0
  5 35  1  0
  6  7  1  0
  6 36  1  0
  7  8  2  0
  7 37  1  0
  8  9  1  0
  9 10  2  0
  9 11  1  0
 11 12  1  0
 11 38  1  0
 12 13  1  0
 12 29  2  0
 13 14  2  0
 14 15  1  0
 14 39  1  0
 15 16  1  0
 15 28  2  0
 16 17  1  0
 16 40  1  0
 17 18  1  0
 17 41  1  6
 17 42  1  0
 18 19  2  0
 18 23  1  0
 19 20  1  0
 19 43  1  0
 20 21  2  0
 20 24  1  0
 21 22  1  0
 21 44  1  0
 22 23  2  0
 22 45  1  0
 23 46  1  0
 24 25  1  0
 24 47  1  1
 24 48  1  0
 25 26  1  0
 25 27  1  0
 25 60  1  6
 26 49  1  1
 26 50  1  0
 26 51  1  0
 27 52  1  1
 27 53  1  0
 27 54  1  0
 28 29  1  0
 28 55  1  0
 29 30  1  0
 30 31  1  0
 30 34  1  0
 31 32  2  0
 31 56  1  0
 32 33  1  0
 32 57  1  0
 33 34  2  0
 33 58  1  0
 34 59  1  0
M  CHG  1  25   1
M  END
>  <s_epik_cmdline>  (1000) 
J2VwaWtfcHl0aG9uJywgJy1waCcsICc3LjAwMDAwMCcsICctcGh0JywgJzIuMDAwMDAwJywgJy1tcycsICcxNicsICctdG4nLCAnOCcsICctbWEnLCAnMjAwJywgJy1pbWFlJywgJzxpbmZpbGUubWFlPicsICctb21hZScsICc8b3V0ZmlsZS5tYWU+Jw==

>  <s_epik_input>  (1000) 
RmMxYyhGKVtjSF1bY0hdW2NIXWMxQyg9TylbTkhdYzJuW2NIXWMoW2NIXWMyLW4zW2NIXVtjSF1bY0hdW2NIXTMpW05IXVtDSDJdYzRbY0hdYyhbY0hdW2NIXVtjSF00KVtDSDJdTihbQ0gzXSlbQ0gzXQ==

>  <s_i_glide_gridfile>  (1000) 
ATP-Grid

>  <s_lp_Force_Field>  (1000) 
OPLS_2005

>  <s_lp_Variant>  (1000) 
rxn502b____EMOL48663751____EMOL4363915____EMOL2873214-1

>  <s_lp_label>  (1000) 
2293_sdstereoexpander_1_neutralizer_1_epik_1_stereoizer_1

>  <s_m_source_file>  (1000) 
ATP-VSW-LIGPREP-003-in.maegz

>  <s_sd_BIOSOLVEIT.INFINISEE\_QUERY\_NAME>  (1000) 
Ref-Lig

>  <s_sd_BIOSOLVEIT.INFINISEE\_QUERY\_SMILES>  (1000) 
S(c1nc2c(cc1C[NH2+]Cc3ccc(cc3)C[NH+](C)C)cccc2)Cc4ccccc4

>  <s_sd_BIOSOLVEIT.INFINISEE\_REACTION\_NAME>  (1000) 
rxn502b

>  <s_sd_BIOSOLVEIT.INFINISEE\_REAGENT1\_NAME>  (1000) 
EMOL48663751

>  <s_sd_BIOSOLVEIT.INFINISEE\_REAGENT1\_SMILES>  (1000) 
Fc1c(F)cccc1C([O-])=O

>  <s_sd_BIOSOLVEIT.INFINISEE\_REAGENT2\_NAME>  (1000) 
EMOL4363915

>  <s_sd_BIOSOLVEIT.INFINISEE\_REAGENT2\_SMILES>  (1000) 
Brc1cnc(N)c(N2C=CC=C2)c1

>  <s_sd_BIOSOLVEIT.INFINISEE\_REAGENT3\_NAME>  (1000) 
EMOL2873214

>  <s_sd_BIOSOLVEIT.INFINISEE\_REAGENT3\_SMILES>  (1000) 
N(Cc1cc(ccc1)CN)(C)C

>  <s_sd_BIOSOLVEIT.INFINISEE\_SPACE>  (1000) 
eXplore_7tr_2022-12

>  <s_vsw_compound_code>  (1000) 
73347

>  <s_vsw_variant>  (1000) 
73347-1

>  <r_epik_Charging_Adjusted_Penalty>  (1000) 
0.207381605344195

>  <r_epik_Ionization_Penalty>  (1000) 
0.044699999999999997

>  <r_epik_Ionization_Penalty_Charging>  (1000) 
0.0441

>  <r_epik_Ionization_Penalty_Neutral>  (1000) 
0.00059999999999999995

>  <r_epik_State_Penalty>  (1000) 
0.1633

>  <r_i_docking_score>  (1000) 
-3.7914431609532699

>  <r_i_glide_ecoul>  (1000) 
-6.8495512008667001

>  <r_i_glide_eff_state_penalty>  (1000) 
0.1633

>  <r_i_glide_einternal>  (1000) 
4.2661542892456099

>  <r_i_glide_emodel>  (1000) 
-52.786391439781198

>  <r_i_glide_energy>  (1000) 
-41.087038993835399

>  <r_i_glide_erotb>  (1000) 
0.75335081161779605

>  <r_i_glide_esite>  (1000) 
-0.109627967964363

>  <r_i_glide_evdw>  (1000) 
-34.2374877929688

>  <r_i_glide_gscore>  (1000) 
-3.9547431609532699

>  <r_i_glide_hbond>  (1000) 
-0.151735189098016

>  <r_i_glide_ligand_efficiency>  (1000) 
-0.111513034145685

>  <r_i_glide_ligand_efficiency_ln>  (1000) 
-0.83763614063305103

>  <r_i_glide_ligand_efficiency_sa>  (1000) 
-0.36125894098997602

>  <r_i_glide_lipo>  (1000) 
-1.1613702104558199

>  <r_i_glide_metal>  (1000) 
-0

>  <r_i_glide_rewards>  (1000) 
-0.54605353527443401

>  <r_lp_Energy>  (1000) 
26.992018000000002

>  <r_qp_ACxDN^.5/SA>  (1000) 
0.0133285

>  <r_qp_CIQPlogS>  (1000) 
-6.266

>  <r_qp_EA(eV)>  (1000) 
0.88300000000000001

>  <r_qp_FISA>  (1000) 
59.295999999999999

>  <r_qp_FOSA>  (1000) 
154.83099999999999

>  <r_qp_IP(eV)>  (1000) 
8.4879999999999995

>  <r_qp_Jm>  (1000) 
0.046538149461174697

>  <r_qp_PISA>  (1000) 
397.45999999999998

>  <r_qp_PSA>  (1000) 
62.384999999999998

>  <r_qp_PercentHumanOralAbsorption>  (1000) 
100

>  <r_qp_QPPCaco>  (1000) 
676.84900000000005

>  <r_qp_QPPMDCK>  (1000) 
961.16300000000001

>  <r_qp_QPlogBB>  (1000) 
0.19600000000000001

>  <r_qp_QPlogHERG>  (1000) 
-6.4409999999999998

>  <r_qp_QPlogKhsa>  (1000) 
0.72399999999999998

>  <r_qp_QPlogKp>  (1000) 
-2.6030000000000002

>  <r_qp_QPlogPC16>  (1000) 
13.912000000000001

>  <r_qp_QPlogPo/w>  (1000) 
4.7869999999999999

>  <r_qp_QPlogPoct>  (1000) 
23.25

>  <r_qp_QPlogPw>  (1000) 
12.301

>  <r_qp_QPlogS>  (1000) 
-4.3940000000000001

>  <r_qp_QPpolrz>  (1000) 
47.372999999999998

>  <r_qp_SASA>  (1000) 
689.67999999999995

>  <r_qp_SAamideO>  (1000) 
0

>  <r_qp_SAfluorine>  (1000) 
78.091999999999999

>  <r_qp_WPSA>  (1000) 
78.091999999999999

>  <r_qp_accptHB>  (1000) 
6.5

>  <r_qp_dip^2/V>  (1000) 
0.048675799999999998

>  <r_qp_dipole>  (1000) 
8.1210000000000004

>  <r_qp_donorHB>  (1000) 
2

>  <r_qp_glob>  (1000) 
0.85862590000000005

>  <r_qp_mol_MW>  (1000) 
461.51299999999998

>  <r_qp_volume>  (1000) 
1354.9690000000001

>  <r_sd_BIOSOLVEIT.INFINISEE\_FTREES\_SIMILARITY>  (1000) 
0.92300000000000004

>  <r_sd_BIOSOLVEIT.LOGP>  (1000) 
3.6594000000000002

>  <r_sd_BIOSOLVEIT.MOLECULAR\_WEIGHT>  (1000) 
462.52100000000002

>  <r_sd_BIOSOLVEIT.TPSA>  (1000) 
63.390000000000001

>  <i_epik_Tot_Q>  (1000) 
1

>  <i_epik_Tot_abs_Q>  (1000) 
1

>  <i_f3d_flags>  (1000) 
0

>  <i_i_glide_confnum>  (1000) 
4

>  <i_i_glide_lignum>  (1000) 
938

>  <i_i_glide_posenum>  (1000) 
6

>  <i_i_glide_rotatable_bonds>  (1000) 
9

>  <i_lp_mmshare_version>  (1000) 
65135

>  <i_m_ct_format>  (1000) 
2

>  <i_m_source_file_index>  (1000) 
2293

>  <i_qp_#NandO>  (1000) 
6

>  <i_qp_#acid>  (1000) 
0

>  <i_qp_#amide>  (1000) 
0

>  <i_qp_#amidine>  (1000) 
0

>  <i_qp_#amine>  (1000) 
1

>  <i_qp_#in34>  (1000) 
0

>  <i_qp_#in56>  (1000) 
23

>  <i_qp_#metab>  (1000) 
6

>  <i_qp_#nonHatm>  (1000) 
34

>  <i_qp_#noncon>  (1000) 
0

>  <i_qp_#ringatoms>  (1000) 
23

>  <i_qp_#rotor>  (1000) 
7

>  <i_qp_#rtvFG>  (1000) 
0

>  <i_qp_#stars>  (1000) 
0

>  <i_qp_CNS>  (1000) 
1

>  <i_qp_HumanOralAbsorption>  (1000) 
3

>  <i_qp_RuleOfFive>  (1000) 
0

>  <i_qp_RuleOfThree>  (1000) 
0

>  <i_sd_BIOSOLVEIT.INFINISEE\_RESULT\_RANK>  (1000) 
11132

>  <i_sd_version>  (1000) 
0

>  <b_lp_Chiralities_Consistent>  (1000) 
1

>  <b_sd_chiral_flag>  (1000) 
0

>  <canonical_id>  (1000) 
ATP-HTVS-9F81613398D9

>  <compound_code>  (1000) 
73347

>  <title>  (1000) 
rxn502b____EMOL48663751____EMOL4363915____EMOL2873214

>  <variant>  (1000) 
73347-1

>  <source_file>  (1000) 
运行/运行/ATP-VSW/ATP-VSW-DOCK_HTVS_1-003_lib/ATP-VSW-DOCK_HTVS_1-003_lib.mae

>  <canonical_smiles>  (1000) 
C[NH+](C)Cc1cccc(CNc2cnc(NC(=O)c3cccc(F)c3F)c(-n3cccc3)c2)c1

>  <scaffold>  (1000) 
O=C(Nc1ncc(NCc2ccccc2)cc1-n1cccc1)c1ccccc1

>  <molecular_formula>  (1000) 
C26H26F2N5O+

$$$$
ATP-HTVS-9F8F78EE592C
     RDKit          3D

 66 69  0  0  0  0  0  0  0  0999 V2000
  196.5383  184.0041  159.5315 O   0  0  0  0  0  0  0  0  0  0  0  0
  196.9653  184.8312  158.7235 C   0  0  0  0  0  0  0  0  0  0  0  0
  197.3794  184.5490  157.4660 N   0  0  0  0  0  0  0  0  0  0  0  0
  197.3750  183.3195  156.7538 C   0  0  0  0  0  0  0  0  0  0  0  0
  198.0407  183.2446  155.4882 C   0  0  0  0  0  0  0  0  0  0  0  0
  198.7342  184.3478  154.9469 N   0  0  0  0  0  0  0  0  0  0  0  0
  197.9685  185.2600  154.0769 C   0  0  2  0  0  0  0  0  0  0  0  0
  197.4621  184.5676  152.8716 C   0  0  0  0  0  0  0  0  0  0  0  0
  197.0753  184.0255  151.9233 N   0  0  0  0  0  0  0  0  0  0  0  0
  198.7389  186.5182  153.6794 C   0  0  0  0  0  0  0  0  0  0  0  0
  199.3819  186.6300  152.4263 C   0  0  0  0  0  0  0  0  0  0  0  0
  200.0936  187.8000  152.1008 C   0  0  0  0  0  0  0  0  0  0  0  0
  200.1843  188.8597  153.0245 C   0  0  0  0  0  0  0  0  0  0  0  0
  199.5537  188.7490  154.2781 C   0  0  0  0  0  0  0  0  0  0  0  0
  198.8244  187.5884  154.5957 C   0  0  0  0  0  0  0  0  0  0  0  0
  200.0215  184.6990  155.5645 C   0  0  1  0  0  0  0  0  0  0  0  0
  200.9265  183.4868  155.8253 C   0  0  2  0  0  0  0  0  0  0  0  0
  198.0191  182.0125  154.7841 C   0  0  0  0  0  0  0  0  0  0  0  0
  197.3345  180.9078  155.3376 C   0  0  0  0  0  0  0  0  0  0  0  0
  196.7432  181.0132  156.5283 N   0  0  0  0  0  0  0  0  0  0  0  0
  196.7421  182.1630  157.2544 C   0  0  0  0  0  0  0  0  0  0  0  0
  197.2795  179.6759  154.6658 C   0  0  0  0  0  0  0  0  0  0  0  0
  197.9046  179.5370  153.4097 C   0  0  0  0  0  0  0  0  0  0  0  0
  198.6068  180.6203  152.8536 C   0  0  0  0  0  0  0  0  0  0  0  0
  198.6813  181.8414  153.5400 C   0  0  0  0  0  0  0  0  0  0  0  0
  196.9998  186.2971  159.0758 C   0  0  0  0  0  0  0  0  0  0  0  0
  196.3082  186.7861  160.2125 C   0  0  0  0  0  0  0  0  0  0  0  0
  196.3544  188.1625  160.5309 C   0  0  0  0  0  0  0  0  0  0  0  0
  197.0709  189.0727  159.7168 C   0  0  0  0  0  0  0  0  0  0  0  0
  197.7172  188.5755  158.5665 C   0  0  0  0  0  0  0  0  0  0  0  0
  197.7375  187.2194  158.2913 C   0  0  0  0  0  0  0  0  0  0  0  0
  197.1773  190.5487  160.0795 C   0  0  1  0  0  0  0  0  0  0  0  0
  198.5394  190.9819  160.5376 N   0  0  2  0  0  0  0  0  0  0  0  0
  198.5667  192.4184  160.8935 C   0  0  2  0  0  0  0  0  0  0  0  0
  199.6622  190.6537  159.6076 C   0  0  2  0  0  0  0  0  0  0  0  0
  197.7661  185.3262  156.9535 H   0  0  0  0  0  0  0  0  0  0  0  0
  197.0699  185.5725  154.6145 H   0  0  0  0  0  0  0  0  0  0  0  0
  199.3400  185.8279  151.7018 H   0  0  0  0  0  0  0  0  0  0  0  0
  200.5788  187.8792  151.1394 H   0  0  0  0  0  0  0  0  0  0  0  0
  200.7337  189.7564  152.7730 H   0  0  0  0  0  0  0  0  0  0  0  0
  199.6200  189.5535  154.9970 H   0  0  0  0  0  0  0  0  0  0  0  0
  198.3234  187.5195  155.5429 H   0  0  0  0  0  0  0  0  0  0  0  0
  200.5888  185.3708  154.9213 H   0  0  0  0  0  0  0  0  0  0  0  0
  199.8569  185.2426  156.4947 H   0  0  0  0  0  0  0  0  0  0  0  0
  201.8894  183.7954  156.2341 H   0  0  0  0  0  0  0  0  0  0  0  0
  201.1235  182.9538  154.8943 H   0  0  0  0  0  0  0  0  0  0  0  0
  200.4829  182.7866  156.5333 H   0  0  0  0  0  0  0  0  0  0  0  0
  196.2187  182.0781  158.1961 H   0  0  0  0  0  0  0  0  0  0  0  0
  196.7665  178.8499  155.1348 H   0  0  0  0  0  0  0  0  0  0  0  0
  197.8554  178.6069  152.8714 H   0  0  0  0  0  0  0  0  0  0  0  0
  199.0785  180.5205  151.8838 H   0  0  0  0  0  0  0  0  0  0  0  0
  199.2442  182.6442  153.0929 H   0  0  0  0  0  0  0  0  0  0  0  0
  195.7433  186.1053  160.8354 H   0  0  0  0  0  0  0  0  0  0  0  0
  195.8403  188.5066  161.4253 H   0  0  0  0  0  0  0  0  0  0  0  0
  198.2268  189.2552  157.8674 H   0  0  0  0  0  0  0  0  0  0  0  0
  198.3600  186.8644  157.4818 H   0  0  0  0  0  0  0  0  0  0  0  0
  196.8507  191.1377  159.2210 H   0  0  0  0  0  0  0  0  0  0  0  0
  196.4552  190.7577  160.8734 H   0  0  0  0  0  0  0  0  0  0  0  0
  198.3183  193.0406  160.0307 H   0  0  0  0  0  0  0  0  0  0  0  0
  199.5681  192.7076  161.2172 H   0  0  0  0  0  0  0  0  0  0  0  0
  197.8702  192.6672  161.6989 H   0  0  0  0  0  0  0  0  0  0  0  0
  199.4536  191.0938  158.6296 H   0  0  0  0  0  0  0  0  0  0  0  0
  199.7634  189.5748  159.4945 H   0  0  0  0  0  0  0  0  0  0  0  0
  200.6117  191.0765  159.9691 H   0  0  0  0  0  0  0  0  0  0  0  0
  198.7540  190.4500  161.3846 H   0  0  0  0  0  0  0  0  0  0  0  0
  196.2899  180.1902  156.9631 H   0  0  0  0  0  0  0  0  0  0  0  0
  1  2  2  0
  2  3  1  0
  2 26  1  0
  3  4  1  0
  3 36  1  0
  4  5  2  0
  4 21  1  0
  5  6  1  0
  5 18  1  0
  6  7  1  0
  6 16  1  0
  7  8  1  0
  7 10  1  0
  7 37  1  1
  8  9  3  0
 10 11  2  0
 10 15  1  0
 11 12  1  0
 11 38  1  0
 12 13  2  0
 12 39  1  0
 13 14  1  0
 13 40  1  0
 14 15  2  0
 14 41  1  0
 15 42  1  0
 16 17  1  0
 16 43  1  6
 16 44  1  0
 17 45  1  1
 17 46  1  0
 17 47  1  0
 18 19  1  0
 18 25  2  0
 19 20  1  0
 19 22  2  0
 20 21  2  0
 20 66  1  0
 21 48  1  0
 22 23  1  0
 22 49  1  0
 23 24  2  0
 23 50  1  0
 24 25  1  0
 24 51  1  0
 25 52  1  0
 26 27  1  0
 26 31  2  0
 27 28  2  0
 27 53  1  0
 28 29  1  0
 28 54  1  0
 29 30  2  0
 29 32  1  0
 30 31  1  0
 30 55  1  0
 31 56  1  0
 32 33  1  0
 32 57  1  6
 32 58  1  0
 33 34  1  0
 33 35  1  0
 33 65  1  1
 34 59  1  6
 34 60  1  0
 34 61  1  0
 35 62  1  6
 35 63  1  0
 35 64  1  0
M  CHG  2  20   1  33   1
M  END
>  <s_epik_cmdline>  (1001) 
J2VwaWtfcHl0aG9uJywgJy1waCcsICc3LjAwMDAwMCcsICctcGh0JywgJzIuMDAwMDAwJywgJy1tcycsICcxNicsICctdG4nLCAnOCcsICctbWEnLCAnMjAwJywgJy1pbWFlJywgJzxpbmZpbGUubWFlPicsICctb21hZScsICc8b3V0ZmlsZS5tYWU+Jw==

>  <s_epik_input>  (1001) 
W0NIM11OKFtDSDNdKVtDSDJdYyhbY0hdW2NIXTEpW2NIXVtjSF1jMUMoPU8pW05IXWMoW2NIXW5jKGMyMylbY0hdW2NIXVtjSF1bY0hdMyljMk4oW0NIMl1bQ0gzXSlbQ0BIXShDI04pYzRbY0hdW2NIXVtjSF1bY0hdW2NIXTQ=

>  <s_i_glide_gridfile>  (1001) 
ATP-Grid

>  <s_lp_Force_Field>  (1001) 
OPLS_2005

>  <s_lp_Variant>  (1001) 
rxn502b____EMOL18624763____EMOL30488121____EMOL49839592-2

>  <s_lp_label>  (1001) 
2209_sdstereoexpander_2_neutralizer_1_epik_1_stereoizer_1

>  <s_m_source_file>  (1001) 
ATP-VSW-LIGPREP-003-in.maegz

>  <s_sd_BIOSOLVEIT.INFINISEE\_QUERY\_NAME>  (1001) 
Ref-Lig

>  <s_sd_BIOSOLVEIT.INFINISEE\_QUERY\_SMILES>  (1001) 
S(c1nc2c(cc1C[NH2+]Cc3ccc(cc3)C[NH+](C)C)cccc2)Cc4ccccc4

>  <s_sd_BIOSOLVEIT.INFINISEE\_REACTION\_NAME>  (1001) 
rxn502b

>  <s_sd_BIOSOLVEIT.INFINISEE\_REAGENT1\_NAME>  (1001) 
EMOL18624763

>  <s_sd_BIOSOLVEIT.INFINISEE\_REAGENT1\_SMILES>  (1001) 
O=C(O)c1ccc(cc1)CN(C)C

>  <s_sd_BIOSOLVEIT.INFINISEE\_REAGENT2\_NAME>  (1001) 
EMOL30488121

>  <s_sd_BIOSOLVEIT.INFINISEE\_REAGENT2\_SMILES>  (1001) 
Brc1c(N)cnc2c1cccc2

>  <s_sd_BIOSOLVEIT.INFINISEE\_REAGENT3\_NAME>  (1001) 
EMOL49839592

>  <s_sd_BIOSOLVEIT.INFINISEE\_REAGENT3\_SMILES>  (1001) 
N#CC(NCC)c1ccccc1

>  <s_sd_BIOSOLVEIT.INFINISEE\_SPACE>  (1001) 
eXplore_7tr_2022-12

>  <s_vsw_compound_code>  (1001) 
70659

>  <s_vsw_variant>  (1001) 
70659-2

>  <r_epik_Charging_Adjusted_Penalty>  (1001) 
0.34433697612293301

>  <r_epik_Ionization_Penalty>  (1001) 
0.17219999999999999

>  <r_epik_Ionization_Penalty_Charging>  (1001) 
0.1721

>  <r_epik_Ionization_Penalty_Neutral>  (1001) 
0.0001

>  <r_epik_State_Penalty>  (1001) 
0.17219999999999999

>  <r_i_docking_score>  (1001) 
-4.9930440113079397

>  <r_i_glide_ecoul>  (1001) 
-13.319526672363301

>  <r_i_glide_eff_state_penalty>  (1001) 
0.17219999999999999

>  <r_i_glide_einternal>  (1001) 
3.9756062030792201

>  <r_i_glide_emodel>  (1001) 
-67.494349408533594

>  <r_i_glide_energy>  (1001) 
-45.968757629394503

>  <r_i_glide_erotb>  (1001) 
0.65126821140173496

>  <r_i_glide_esite>  (1001) 
-0.19331824584183499

>  <r_i_glide_evdw>  (1001) 
-32.6492309570312

>  <r_i_glide_gscore>  (1001) 
-5.1652440113079399

>  <r_i_glide_hbond>  (1001) 
-0.38438170359648299

>  <r_i_glide_ligand_efficiency>  (1001) 
-0.14265840032308399

>  <r_i_glide_ligand_efficiency_ln>  (1001) 
-1.09608397512339

>  <r_i_glide_ligand_efficiency_sa>  (1001) 
-0.466645086609209

>  <r_i_glide_lipo>  (1001) 
-1.02605018367278

>  <r_i_glide_metal>  (1001) 
-0

>  <r_i_glide_rewards>  (1001) 
-0.58237154089252496

>  <r_lp_Energy>  (1001) 
41.578384

>  <r_qp_ACxDN^.5/SA>  (1001) 
0.010648599999999999

>  <r_qp_CIQPlogS>  (1001) 
-6.6950000000000003

>  <r_qp_EA(eV)>  (1001) 
1.1519999999999999

>  <r_qp_FISA>  (1001) 
109.64400000000001

>  <r_qp_FOSA>  (1001) 
259.46300000000002

>  <r_qp_IP(eV)>  (1001) 
8.7010000000000005

>  <r_qp_Jm>  (1001) 
0.00107258695432178

>  <r_qp_PISA>  (1001) 
382.16800000000001

>  <r_qp_PSA>  (1001) 
72.585999999999999

>  <r_qp_PercentHumanOralAbsorption>  (1001) 
93.560000000000002

>  <r_qp_QPPCaco>  (1001) 
225.447

>  <r_qp_QPPMDCK>  (1001) 
109.383

>  <r_qp_QPlogBB>  (1001) 
-0.65700000000000003

>  <r_qp_QPlogHERG>  (1001) 
-6.9260000000000002

>  <r_qp_QPlogKhsa>  (1001) 
0.57799999999999996

>  <r_qp_QPlogKp>  (1001) 
-3.3919999999999999

>  <r_qp_QPlogPC16>  (1001) 
15.311

>  <r_qp_QPlogPo/w>  (1001) 
4.1840000000000002

>  <r_qp_QPlogPoct>  (1001) 
22.532

>  <r_qp_QPlogPw>  (1001) 
12.231999999999999

>  <r_qp_QPlogS>  (1001) 
-5.2430000000000003

>  <r_qp_QPpolrz>  (1001) 
49.692

>  <r_qp_SASA>  (1001) 
751.27599999999995

>  <r_qp_SAamideO>  (1001) 
0

>  <r_qp_SAfluorine>  (1001) 
0

>  <r_qp_WPSA>  (1001) 
0

>  <r_qp_accptHB>  (1001) 
8

>  <r_qp_dip^2/V>  (1001) 
0.0083836999999999991

>  <r_qp_dipole>  (1001) 
3.4849999999999999

>  <r_qp_donorHB>  (1001) 
1

>  <r_qp_glob>  (1001) 
0.82415059999999996

>  <r_qp_mol_MW>  (1001) 
463.58100000000002

>  <r_qp_volume>  (1001) 
1448.643

>  <r_sd_BIOSOLVEIT.INFINISEE\_FTREES\_SIMILARITY>  (1001) 
0.93100000000000005

>  <r_sd_BIOSOLVEIT.LOGP>  (1001) 
4.2227800000000002

>  <r_sd_BIOSOLVEIT.MOLECULAR\_WEIGHT>  (1001) 
464.58999999999997

>  <r_sd_BIOSOLVEIT.TPSA>  (1001) 
73.459999999999994

>  <i_epik_Tot_Q>  (1001) 
2

>  <i_epik_Tot_abs_Q>  (1001) 
2

>  <i_f3d_flags>  (1001) 
0

>  <i_i_glide_confnum>  (1001) 
8

>  <i_i_glide_lignum>  (1001) 
869

>  <i_i_glide_posenum>  (1001) 
12

>  <i_i_glide_rotatable_bonds>  (1001) 
9

>  <i_lp_mmshare_version>  (1001) 
65135

>  <i_m_ct_format>  (1001) 
2

>  <i_m_source_file_index>  (1001) 
2209

>  <i_qp_#NandO>  (1001) 
6

>  <i_qp_#acid>  (1001) 
0

>  <i_qp_#amide>  (1001) 
0

>  <i_qp_#amidine>  (1001) 
0

>  <i_qp_#amine>  (1001) 
1

>  <i_qp_#in34>  (1001) 
0

>  <i_qp_#in56>  (1001) 
22

>  <i_qp_#metab>  (1001) 
6

>  <i_qp_#nonHatm>  (1001) 
35

>  <i_qp_#noncon>  (1001) 
0

>  <i_qp_#ringatoms>  (1001) 
22

>  <i_qp_#rotor>  (1001) 
9

>  <i_qp_#rtvFG>  (1001) 
0

>  <i_qp_#stars>  (1001) 
0

>  <i_qp_CNS>  (1001) 
1

>  <i_qp_HumanOralAbsorption>  (1001) 
3

>  <i_qp_RuleOfFive>  (1001) 
0

>  <i_qp_RuleOfThree>  (1001) 
0

>  <i_sd_BIOSOLVEIT.INFINISEE\_RESULT\_RANK>  (1001) 
4382

>  <i_sd_version>  (1001) 
0

>  <b_lp_Chiralities_Consistent>  (1001) 
1

>  <b_sd_chiral_flag>  (1001) 
0

>  <canonical_id>  (1001) 
ATP-HTVS-9F8F78EE592C

>  <compound_code>  (1001) 
70659

>  <title>  (1001) 
rxn502b____EMOL18624763____EMOL30488121____EMOL49839592

>  <variant>  (1001) 
70659-2

>  <source_file>  (1001) 
运行/运行/ATP-VSW/ATP-VSW-DOCK_HTVS_1-003_lib/ATP-VSW-DOCK_HTVS_1-003_lib.mae

>  <canonical_smiles>  (1001) 
CCN(c1c(NC(=O)c2ccc(C[NH+](C)C)cc2)c[nH+]c2ccccc12)[C@H](C#N)c1ccccc1

>  <scaffold>  (1001) 
O=C(Nc1c[nH+]c2ccccc2c1NCc1ccccc1)c1ccccc1

>  <molecular_formula>  (1001) 
C29H31N5O+2

$$$$
ATP-HTVS-9F9A426F6493
     RDKit          3D

 65 68  0  0  0  0  0  0  0  0999 V2000
  193.4733  183.2159  158.5588 O   0  0  0  0  0  0  0  0  0  0  0  0
  194.2951  182.2964  158.5357 C   0  0  0  0  0  0  0  0  0  0  0  0
  193.9457  181.0426  158.2654 N   0  0  0  0  0  0  0  0  0  0  0  0
  195.7657  182.5914  158.8348 C   0  0  1  0  0  0  0  0  0  0  0  0
  196.4465  183.4685  157.7611 C   0  0  2  0  0  0  0  0  0  0  0  0
  196.5473  182.7630  156.4837 N   0  0  0  0  0  0  0  0  0  0  0  0
  197.1457  183.2988  155.3356 C   0  0  0  0  0  0  0  0  0  0  0  0
  197.6722  184.5434  155.3959 N   0  0  0  0  0  0  0  0  0  0  0  0
  198.2325  185.0553  154.2799 C   0  0  0  0  0  0  0  0  0  0  0  0
  198.2702  184.3060  153.0684 C   0  0  0  0  0  0  0  0  0  0  0  0
  197.7068  183.0749  152.9961 N   0  0  0  0  0  0  0  0  0  0  0  0
  197.1511  182.5690  154.1183 C   0  0  0  0  0  0  0  0  0  0  0  0
  196.5393  181.3139  153.9886 N   0  0  0  0  0  0  0  0  0  0  0  0
  197.1278  180.2119  154.7424 C   0  0  1  0  0  0  0  0  0  0  0  0
  198.4039  179.6538  154.1412 C   0  0  0  0  0  0  0  0  0  0  0  0
  199.5072  179.4155  154.9834 C   0  0  0  0  0  0  0  0  0  0  0  0
  200.6599  178.7706  154.4899 C   0  0  0  0  0  0  0  0  0  0  0  0
  200.7256  178.4296  153.1196 C   0  0  0  0  0  0  0  0  0  0  0  0
  199.6407  178.7044  152.2643 C   0  0  0  0  0  0  0  0  0  0  0  0
  198.4748  179.3062  152.7754 C   0  0  0  0  0  0  0  0  0  0  0  0
  201.7876  178.3866  155.4427 C   0  0  1  0  0  0  0  0  0  0  0  0
  201.5359  177.1101  156.1632 N   0  0  1  0  0  0  0  0  0  0  0  0
  200.4270  177.1867  157.1457 C   0  0  2  0  0  0  0  0  0  0  0  0
  201.4002  175.9341  155.2707 C   0  0  2  0  0  0  0  0  0  0  0  0
  198.9099  184.8650  151.9393 C   0  0  0  0  0  0  0  0  0  0  0  0
  199.4750  186.1551  151.9962 C   0  0  0  0  0  0  0  0  0  0  0  0
  199.4136  186.9001  153.1842 C   0  0  0  0  0  0  0  0  0  0  0  0
  198.7997  186.3440  154.3167 C   0  0  0  0  0  0  0  0  0  0  0  0
  197.7805  183.9568  158.2908 C   0  0  0  0  0  0  0  0  0  0  0  0
  197.8984  185.2699  158.7841 C   0  0  0  0  0  0  0  0  0  0  0  0
  199.1472  185.7416  159.2279 C   0  0  0  0  0  0  0  0  0  0  0  0
  200.2743  184.8962  159.1933 C   0  0  0  0  0  0  0  0  0  0  0  0
  200.1563  183.5829  158.6983 C   0  0  0  0  0  0  0  0  0  0  0  0
  198.9124  183.1194  158.2354 C   0  0  0  0  0  0  0  0  0  0  0  0
  192.9823  180.8469  158.0382 H   0  0  0  0  0  0  0  0  0  0  0  0
  194.6673  180.3167  158.1253 H   0  0  0  0  0  0  0  0  0  0  0  0
  195.7677  183.1155  159.7860 H   0  0  0  0  0  0  0  0  0  0  0  0
  196.3123  181.6572  158.9816 H   0  0  0  0  0  0  0  0  0  0  0  0
  195.8209  184.3489  157.6048 H   0  0  0  0  0  0  0  0  0  0  0  0
  195.8860  182.0194  156.3085 H   0  0  0  0  0  0  0  0  0  0  0  0
  196.3401  181.0611  153.0349 H   0  0  0  0  0  0  0  0  0  0  0  0
  197.3145  180.4622  155.7876 H   0  0  0  0  0  0  0  0  0  0  0  0
  196.3915  179.4169  154.7779 H   0  0  0  0  0  0  0  0  0  0  0  0
  199.4277  179.6815  156.0290 H   0  0  0  0  0  0  0  0  0  0  0  0
  201.5970  177.9325  152.7227 H   0  0  0  0  0  0  0  0  0  0  0  0
  199.6881  178.4245  151.2217 H   0  0  0  0  0  0  0  0  0  0  0  0
  197.6291  179.4783  152.1247 H   0  0  0  0  0  0  0  0  0  0  0  0
  202.7144  178.2948  154.8773 H   0  0  0  0  0  0  0  0  0  0  0  0
  201.9664  179.1894  156.1661 H   0  0  0  0  0  0  0  0  0  0  0  0
  199.4568  177.3499  156.6753 H   0  0  0  0  0  0  0  0  0  0  0  0
  200.6022  177.9821  157.8716 H   0  0  0  0  0  0  0  0  0  0  0  0
  200.3494  176.2418  157.6778 H   0  0  0  0  0  0  0  0  0  0  0  0
  200.5024  175.9980  154.6569 H   0  0  0  0  0  0  0  0  0  0  0  0
  201.3231  175.0067  155.8395 H   0  0  0  0  0  0  0  0  0  0  0  0
  202.2593  175.8453  154.6050 H   0  0  0  0  0  0  0  0  0  0  0  0
  198.9706  184.2939  151.0233 H   0  0  0  0  0  0  0  0  0  0  0  0
  199.9495  186.5801  151.1229 H   0  0  0  0  0  0  0  0  0  0  0  0
  199.8325  187.8912  153.2319 H   0  0  0  0  0  0  0  0  0  0  0  0
  198.7492  186.9066  155.2345 H   0  0  0  0  0  0  0  0  0  0  0  0
  197.0402  185.9264  158.7822 H   0  0  0  0  0  0  0  0  0  0  0  0
  199.2386  186.7581  159.5830 H   0  0  0  0  0  0  0  0  0  0  0  0
  201.2295  185.2602  159.5396 H   0  0  0  0  0  0  0  0  0  0  0  0
  201.0218  182.9371  158.6547 H   0  0  0  0  0  0  0  0  0  0  0  0
  198.8208  182.1337  157.8016 H   0  0  0  0  0  0  0  0  0  0  0  0
  202.3842  176.9706  156.7020 H   0  0  0  0  0  0  0  0  0  0  0  0
  1  2  2  0
  2  3  1  0
  2  4  1  0
  3 35  1  0
  3 36  1  0
  4  5  1  0
  4 37  1  1
  4 38  1  0
  5  6  1  0
  5 29  1  0
  5 39  1  6
  6  7  1  0
  6 40  1  0
  7  8  2  0
  7 12  1  0
  8  9  1  0
  9 10  1  0
  9 28  2  0
 10 11  1  0
 10 25  2  0
 11 12  2  0
 12 13  1  0
 13 14  1  0
 13 41  1  0
 14 15  1  0
 14 42  1  1
 14 43  1  0
 15 16  2  0
 15 20  1  0
 16 17  1  0
 16 44  1  0
 17 18  2  0
 17 21  1  0
 18 19  1  0
 18 45  1  0
 19 20  2  0
 19 46  1  0
 20 47  1  0
 21 22  1  0
 21 48  1  6
 21 49  1  0
 22 23  1  0
 22 24  1  0
 22 65  1  1
 23 50  1  6
 23 51  1  0
 23 52  1  0
 24 53  1  6
 24 54  1  0
 24 55  1  0
 25 26  1  0
 25 56  1  0
 26 27  2  0
 26 57  1  0
 27 28  1  0
 27 58  1  0
 28 59  1  0
 29 30  2  0
 29 34  1  0
 30 31  1  0
 30 60  1  0
 31 32  2  0
 31 61  1  0
 32 33  1  0
 32 62  1  0
 33 34  2  0
 33 63  1  0
 34 64  1  0
M  CHG  1  22   1
M  END
>  <s_epik_cmdline>  (1002) 
J2VwaWtfcHl0aG9uJywgJy1waCcsICc3LjAwMDAwMCcsICctcGh0JywgJzIuMDAwMDAwJywgJy1tcycsICcxNicsICctdG4nLCAnOCcsICctbWEnLCAnMjAwJywgJy1pbWFlJywgJzxpbmZpbGUubWFlPicsICctb21hZScsICc8b3V0ZmlsZS5tYWU+Jw==

>  <s_epik_input>  (1002) 
W2NIXTFbY0hdW2NIXVtjSF1bY0hdYzFbQ0BIXShbQ0gyXUMoPU8pW05IMl0pW05IXWMobjIpYyhuYyhjMjMpW2NIXVtjSF1bY0hdW2NIXTMpW05IXVtDSDJdYzRbY0hdYyhbY0hdW2NIXVtjSF00KVtDSDJdTihbQ0gzXSlbQ0gzXQ==

>  <s_i_glide_gridfile>  (1002) 
ATP-Grid

>  <s_lp_Force_Field>  (1002) 
OPLS_2005

>  <s_lp_Variant>  (1002) 
m_282030aaa____21928796____23157418____21950834-2

>  <s_lp_label>  (1002) 
1145_sdstereoexpander_2_neutralizer_1_epik_1_stereoizer_1

>  <s_m_source_file>  (1002) 
ATP-VSW-LIGPREP-003-in.maegz

>  <s_sd_BIOSOLVEIT.INFINISEE\_QUERY\_NAME>  (1002) 
Ref-Lig

>  <s_sd_BIOSOLVEIT.INFINISEE\_QUERY\_SMILES>  (1002) 
S(c1nc2c(cc1C[NH2+]Cc3ccc(cc3)C[NH+](C)C)cccc2)Cc4ccccc4

>  <s_sd_BIOSOLVEIT.INFINISEE\_REACTION\_NAME>  (1002) 
m_282030aaa

>  <s_sd_BIOSOLVEIT.INFINISEE\_REAGENT1\_SMILES>  (1002) 
[R1*]NCc1cc(ccc1)CN(C)C

>  <s_sd_BIOSOLVEIT.INFINISEE\_REAGENT2\_SMILES>  (1002) 
[R1*]c1nc2c(nc1[R2*])cccc2

>  <s_sd_BIOSOLVEIT.INFINISEE\_REAGENT3\_SMILES>  (1002) 
[R2*]NC(c1ccccc1)CC(=O)N

>  <s_sd_BIOSOLVEIT.INFINISEE\_SPACE>  (1002) 
REALSpace_44bn_2023-08

>  <s_vsw_compound_code>  (1002) 
36611

>  <s_vsw_variant>  (1002) 
36611-2

>  <r_epik_Charging_Adjusted_Penalty>  (1002) 
0.088195370499548398

>  <r_epik_Ionization_Penalty>  (1002) 
0.044299999999999999

>  <r_epik_Ionization_Penalty_Charging>  (1002) 
0.0441

>  <r_epik_Ionization_Penalty_Neutral>  (1002) 
0.00020000000000000001

>  <r_epik_State_Penalty>  (1002) 
0.0441

>  <r_i_docking_score>  (1002) 
-4.38124201372767

>  <r_i_glide_ecoul>  (1002) 
-12.99977684021

>  <r_i_glide_eff_state_penalty>  (1002) 
0.0441

>  <r_i_glide_einternal>  (1002) 
4.9513688087463397

>  <r_i_glide_emodel>  (1002) 
-61.716297182915703

>  <r_i_glide_energy>  (1002) 
-46.709428787231403

>  <r_i_glide_erotb>  (1002) 
0.77437998091972504

>  <r_i_glide_esite>  (1002) 
-0.29777184225515801

>  <r_i_glide_evdw>  (1002) 
-33.709651947021499

>  <r_i_glide_gscore>  (1002) 
-4.4253420137276702

>  <r_i_glide_hbond>  (1002) 
-0.16

>  <r_i_glide_ligand_efficiency>  (1002) 
-0.128860059227284

>  <r_i_glide_ligand_efficiency_ln>  (1002) 
-0.96793925050837704

>  <r_i_glide_ligand_efficiency_sa>  (1002) 
-0.417456568095325

>  <r_i_glide_lipo>  (1002) 
-0.57860084719148996

>  <r_i_glide_metal>  (1002) 
-0

>  <r_i_glide_rewards>  (1002) 
-0.52790018181817999

>  <r_lp_Energy>  (1002) 
18.067951999999998

>  <r_qp_ACxDN^.5/SA>  (1002) 
0.016121799999999999

>  <r_qp_CIQPlogS>  (1002) 
-5.3310000000000004

>  <r_qp_EA(eV)>  (1002) 
0.58899999999999997

>  <r_qp_FISA>  (1002) 
97.661000000000001

>  <r_qp_FOSA>  (1002) 
187.96700000000001

>  <r_qp_IP(eV)>  (1002) 
8.0220000000000002

>  <r_qp_Jm>  (1002) 
0.22069362364973999

>  <r_qp_PISA>  (1002) 
412.70100000000002

>  <r_qp_PSA>  (1002) 
95.498000000000005

>  <r_qp_PercentHumanOralAbsorption>  (1002) 
91.268000000000001

>  <r_qp_QPPCaco>  (1002) 
253.50800000000001

>  <r_qp_QPPMDCK>  (1002) 
145.13499999999999

>  <r_qp_QPlogBB>  (1002) 
-0.52000000000000002

>  <r_qp_QPlogHERG>  (1002) 
-5.1079999999999997

>  <r_qp_QPlogKhsa>  (1002) 
0.29899999999999999

>  <r_qp_QPlogKp>  (1002) 
-2.968

>  <r_qp_QPlogPC16>  (1002) 
15.282999999999999

>  <r_qp_QPlogPo/w>  (1002) 
3.637

>  <r_qp_QPlogPoct>  (1002) 
24.282

>  <r_qp_QPlogPw>  (1002) 
14.044

>  <r_qp_QPlogS>  (1002) 
-3.3460000000000001

>  <r_qp_QPpolrz>  (1002) 
46.802999999999997

>  <r_qp_SASA>  (1002) 
698.33000000000004

>  <r_qp_SAamideO>  (1002) 
7.875

>  <r_qp_SAfluorine>  (1002) 
0

>  <r_qp_WPSA>  (1002) 
0

>  <r_qp_accptHB>  (1002) 
6.5

>  <r_qp_dip^2/V>  (1002) 
0.0507202

>  <r_qp_dipole>  (1002) 
8.3819999999999997

>  <r_qp_donorHB>  (1002) 
3

>  <r_qp_glob>  (1002) 
0.86056980000000005

>  <r_qp_mol_MW>  (1002) 
454.57400000000001

>  <r_qp_volume>  (1002) 
1385.232

>  <r_sd_BIOSOLVEIT.INFINISEE\_FTREES\_SIMILARITY>  (1002) 
0.91200000000000003

>  <r_sd_BIOSOLVEIT.LOGP>  (1002) 
2.915

>  <r_sd_BIOSOLVEIT.MOLECULAR\_WEIGHT>  (1002) 
455.58300000000003

>  <r_sd_BIOSOLVEIT.TPSA>  (1002) 
97.370000000000005

>  <i_epik_Tot_Q>  (1002) 
1

>  <i_epik_Tot_abs_Q>  (1002) 
1

>  <i_f3d_flags>  (1002) 
0

>  <i_i_glide_confnum>  (1002) 
9

>  <i_i_glide_lignum>  (1002) 
448

>  <i_i_glide_posenum>  (1002) 
16

>  <i_i_glide_rotatable_bonds>  (1002) 
10

>  <i_lp_mmshare_version>  (1002) 
65135

>  <i_m_ct_format>  (1002) 
2

>  <i_m_source_file_index>  (1002) 
1145

>  <i_qp_#NandO>  (1002) 
7

>  <i_qp_#acid>  (1002) 
0

>  <i_qp_#amide>  (1002) 
1

>  <i_qp_#amidine>  (1002) 
0

>  <i_qp_#amine>  (1002) 
1

>  <i_qp_#in34>  (1002) 
0

>  <i_qp_#in56>  (1002) 
22

>  <i_qp_#metab>  (1002) 
7

>  <i_qp_#nonHatm>  (1002) 
34

>  <i_qp_#noncon>  (1002) 
0

>  <i_qp_#ringatoms>  (1002) 
22

>  <i_qp_#rotor>  (1002) 
10

>  <i_qp_#rtvFG>  (1002) 
0

>  <i_qp_#stars>  (1002) 
0

>  <i_qp_CNS>  (1002) 
0

>  <i_qp_HumanOralAbsorption>  (1002) 
3

>  <i_qp_RuleOfFive>  (1002) 
0

>  <i_qp_RuleOfThree>  (1002) 
1

>  <i_sd_BIOSOLVEIT.INFINISEE\_REAGENT1\_NAME>  (1002) 
21928796

>  <i_sd_BIOSOLVEIT.INFINISEE\_REAGENT2\_NAME>  (1002) 
23157418

>  <i_sd_BIOSOLVEIT.INFINISEE\_REAGENT3\_NAME>  (1002) 
21950834

>  <i_sd_BIOSOLVEIT.INFINISEE\_RESULT\_RANK>  (1002) 
36432

>  <i_sd_version>  (1002) 
0

>  <b_lp_Chiralities_Consistent>  (1002) 
1

>  <b_sd_chiral_flag>  (1002) 
0

>  <canonical_id>  (1002) 
ATP-HTVS-9F9A426F6493

>  <compound_code>  (1002) 
36611

>  <title>  (1002) 
m_282030aaa____21928796____23157418____21950834

>  <variant>  (1002) 
36611-2

>  <source_file>  (1002) 
运行/运行/ATP-VSW/ATP-VSW-DOCK_HTVS_1-003_lib/ATP-VSW-DOCK_HTVS_1-003_lib.mae

>  <canonical_smiles>  (1002) 
C[NH+](C)Cc1cccc(CNc2nc3ccccc3nc2N[C@@H](CC(N)=O)c2ccccc2)c1

>  <scaffold>  (1002) 
c1ccc(CNc2nc3ccccc3nc2NCc2ccccc2)cc1

>  <molecular_formula>  (1002) 
C27H31N6O+

$$$$
ATP-HTVS-A05CBA531631
     RDKit          3D

 66 69  0  0  0  0  0  0  0  0999 V2000
  198.7462  187.4123  157.9490 F   0  0  0  0  0  0  0  0  0  0  0  0
  197.7267  187.3827  158.8440 C   0  0  0  0  0  0  0  0  0  0  0  0
  196.9780  186.1978  159.0326 C   0  0  0  0  0  0  0  0  0  0  0  0
  195.9203  186.1908  159.9655 C   0  0  0  0  0  0  0  0  0  0  0  0
  195.6125  187.3551  160.6988 C   0  0  0  0  0  0  0  0  0  0  0  0
  196.3575  188.5389  160.5115 C   0  0  0  0  0  0  0  0  0  0  0  0
  197.4145  188.5428  159.5747 C   0  0  0  0  0  0  0  0  0  0  0  0
  196.0127  189.7946  161.2957 C   0  0  1  0  0  0  0  0  0  0  0  0
  197.1312  190.5993  161.6234 O   0  0  0  0  0  0  0  0  0  0  0  0
  197.2905  184.9307  158.2477 C   0  0  1  0  0  0  0  0  0  0  0  0
  197.4032  185.1502  156.8136 N   0  0  0  0  0  0  0  0  0  0  0  0
  197.2835  184.1634  155.8496 C   0  0  0  0  0  0  0  0  0  0  0  0
  197.1107  182.8869  156.2222 N   0  0  0  0  0  0  0  0  0  0  0  0
  196.9504  181.9357  155.2785 C   0  0  0  0  0  0  0  0  0  0  0  0
  196.7551  180.6274  155.7285 N   0  0  0  0  0  0  0  0  0  0  0  0
  197.7333  179.5917  155.4027 C   0  0  1  0  0  0  0  0  0  0  0  0
  199.0125  179.6902  156.2479 C   0  0  1  0  0  0  0  0  0  0  0  0
  199.9532  178.5245  155.9841 C   0  0  0  0  0  0  0  0  0  0  0  0
  200.3483  177.6898  157.0479 C   0  0  0  0  0  0  0  0  0  0  0  0
  201.1834  176.5863  156.8117 C   0  0  0  0  0  0  0  0  0  0  0  0
  201.6474  176.3099  155.5087 C   0  0  0  0  0  0  0  0  0  0  0  0
  201.2693  177.1589  154.4475 C   0  0  0  0  0  0  0  0  0  0  0  0
  200.4160  178.2502  154.6786 C   0  0  0  0  0  0  0  0  0  0  0  0
  202.5411  175.1069  155.2481 C   0  0  1  0  0  0  0  0  0  0  0  0
  201.7624  173.9117  154.8352 N   0  0  1  0  0  0  0  0  0  0  0  0
  201.1304  174.0377  153.4979 C   0  0  2  0  0  0  0  0  0  0  0  0
  202.5537  172.6648  154.9312 C   0  0  2  0  0  0  0  0  0  0  0  0
  196.9682  182.2748  153.9068 C   0  0  0  0  0  0  0  0  0  0  0  0
  197.1666  183.6384  153.5841 C   0  0  0  0  0  0  0  0  0  0  0  0
  197.3308  184.5524  154.5735 N   0  0  0  0  0  0  0  0  0  0  0  0
  197.1914  184.0656  152.2396 C   0  0  0  0  0  0  0  0  0  0  0  0
  197.0207  183.1203  151.2037 C   0  0  0  0  0  0  0  0  0  0  0  0
  196.8060  181.7623  151.5206 C   0  0  0  0  0  0  0  0  0  0  0  0
  196.7479  181.3439  152.8625 C   0  0  0  0  0  0  0  0  0  0  0  0
  195.3329  185.2953  160.1110 H   0  0  0  0  0  0  0  0  0  0  0  0
  194.7885  187.3351  161.3952 H   0  0  0  0  0  0  0  0  0  0  0  0
  197.9870  189.4429  159.4065 H   0  0  0  0  0  0  0  0  0  0  0  0
  195.2990  190.3808  160.7110 H   0  0  0  0  0  0  0  0  0  0  0  0
  195.4876  189.5084  162.2058 H   0  0  0  0  0  0  0  0  0  0  0  0
  197.8260  190.0470  162.0011 H   0  0  0  0  0  0  0  0  0  0  0  0
  198.2325  184.5227  158.6173 H   0  0  0  0  0  0  0  0  0  0  0  0
  196.5154  184.1854  158.4401 H   0  0  0  0  0  0  0  0  0  0  0  0
  197.5928  186.0898  156.4997 H   0  0  0  0  0  0  0  0  0  0  0  0
  196.3659  180.4873  156.6626 H   0  0  0  0  0  0  0  0  0  0  0  0
  197.2428  178.6341  155.5925 H   0  0  0  0  0  0  0  0  0  0  0  0
  198.0148  179.6183  154.3493 H   0  0  0  0  0  0  0  0  0  0  0  0
  199.5394  180.6124  156.0068 H   0  0  0  0  0  0  0  0  0  0  0  0
  198.7511  179.7357  157.3080 H   0  0  0  0  0  0  0  0  0  0  0  0
  199.9872  177.8914  158.0466 H   0  0  0  0  0  0  0  0  0  0  0  0
  201.4621  175.9550  157.6444 H   0  0  0  0  0  0  0  0  0  0  0  0
  201.6281  176.9696  153.4461 H   0  0  0  0  0  0  0  0  0  0  0  0
  200.1191  178.8680  153.8409 H   0  0  0  0  0  0  0  0  0  0  0  0
  203.2857  175.3430  154.4869 H   0  0  0  0  0  0  0  0  0  0  0  0
  203.0991  174.8889  156.1611 H   0  0  0  0  0  0  0  0  0  0  0  0
  201.8892  174.1705  152.7257 H   0  0  0  0  0  0  0  0  0  0  0  0
  200.4406  174.8794  153.4460 H   0  0  0  0  0  0  0  0  0  0  0  0
  200.5448  173.1503  153.2503 H   0  0  0  0  0  0  0  0  0  0  0  0
  203.4205  172.6788  154.2675 H   0  0  0  0  0  0  0  0  0  0  0  0
  201.9176  171.8337  154.6366 H   0  0  0  0  0  0  0  0  0  0  0  0
  202.8996  172.4809  155.9491 H   0  0  0  0  0  0  0  0  0  0  0  0
  197.3333  185.1078  151.9956 H   0  0  0  0  0  0  0  0  0  0  0  0
  197.0458  183.4357  150.1678 H   0  0  0  0  0  0  0  0  0  0  0  0
  196.6754  181.0329  150.7339 H   0  0  0  0  0  0  0  0  0  0  0  0
  196.5207  180.3098  153.0766 H   0  0  0  0  0  0  0  0  0  0  0  0
  197.4382  185.5347  154.3199 H   0  0  0  0  0  0  0  0  0  0  0  0
  201.0143  173.8182  155.5058 H   0  0  0  0  0  0  0  0  0  0  0  0
  1  2  1  0
  2  3  2  0
  2  7  1  0
  3  4  1  0
  3 10  1  0
  4  5  2  0
  4 35  1  0
  5  6  1  0
  5 36  1  0
  6  7  2  0
  6  8  1  0
  7 37  1  0
  8  9  1  0
  8 38  1  6
  8 39  1  0
  9 40  1  0
 10 11  1  0
 10 41  1  1
 10 42  1  0
 11 12  1  0
 11 43  1  0
 12 13  1  0
 12 30  2  0
 13 14  2  0
 14 15  1  0
 14 28  1  0
 15 16  1  0
 15 44  1  0
 16 17  1  0
 16 45  1  6
 16 46  1  0
 17 18  1  0
 17 47  1  6
 17 48  1  0
 18 19  1  0
 18 23  2  0
 19 20  2  0
 19 49  1  0
 20 21  1  0
 20 50  1  0
 21 22  2  0
 21 24  1  0
 22 23  1  0
 22 51  1  0
 23 52  1  0
 24 25  1  0
 24 53  1  6
 24 54  1  0
 25 26  1  0
 25 27  1  0
 25 66  1  1
 26 55  1  6
 26 56  1  0
 26 57  1  0
 27 58  1  6
 27 59  1  0
 27 60  1  0
 28 29  1  0
 28 34  2  0
 29 30  1  0
 29 31  2  0
 30 65  1  0
 31 32  1  0
 31 61  1  0
 32 33  2  0
 32 62  1  0
 33 34  1  0
 33 63  1  0
 34 64  1  0
M  CHG  2  25   1  30   1
M  END
>  <s_epik_cmdline>  (1003) 
J2VwaWtfcHl0aG9uJywgJy1waCcsICc3LjAwMDAwMCcsICctcGh0JywgJzIuMDAwMDAwJywgJy1tcycsICcxNicsICctdG4nLCAnOCcsICctbWEnLCAnMjAwJywgJy1pbWFlJywgJzxpbmZpbGUubWFlPicsICctb21hZScsICc8b3V0ZmlsZS5tYWU+Jw==

>  <s_epik_input>  (1003) 
W09IXVtDSDJdYyhbY0hdMSlbY0hdW2NIXWMoYzFGKVtDSDJdW05IXWMobmMoYzIzKVtjSF1bY0hdW2NIXVtjSF0zKW5jMltOSF1bQ0gyXVtDSDJdYzRbY0hdW2NIXWMoW2NIXVtjSF00KVtDSDJdTihbQ0gzXSlbQ0gzXQ==

>  <s_i_glide_gridfile>  (1003) 
ATP-Grid

>  <s_lp_Force_Field>  (1003) 
OPLS_2005

>  <s_lp_Variant>  (1003) 
m_282030aaa____21893406____22360182____21967972-1

>  <s_lp_label>  (1003) 
943_sdstereoexpander_1_neutralizer_1_epik_1_stereoizer_1

>  <s_m_source_file>  (1003) 
ATP-VSW-LIGPREP-003-in.maegz

>  <s_sd_BIOSOLVEIT.INFINISEE\_QUERY\_NAME>  (1003) 
Ref-Lig

>  <s_sd_BIOSOLVEIT.INFINISEE\_QUERY\_SMILES>  (1003) 
S(c1nc2c(cc1C[NH2+]Cc3ccc(cc3)C[NH+](C)C)cccc2)Cc4ccccc4

>  <s_sd_BIOSOLVEIT.INFINISEE\_REACTION\_NAME>  (1003) 
m_282030aaa

>  <s_sd_BIOSOLVEIT.INFINISEE\_REAGENT1\_SMILES>  (1003) 
[R1*]NCc1c(F)cc(cc1)CO

>  <s_sd_BIOSOLVEIT.INFINISEE\_REAGENT2\_SMILES>  (1003) 
[R2*]c1nc([R1*])c2c(n1)cccc2

>  <s_sd_BIOSOLVEIT.INFINISEE\_REAGENT3\_SMILES>  (1003) 
[R2*]NCCc1ccc(cc1)CN(C)C

>  <s_sd_BIOSOLVEIT.INFINISEE\_SPACE>  (1003) 
REALSpace_44bn_2023-08

>  <s_vsw_compound_code>  (1003) 
30147

>  <s_vsw_variant>  (1003) 
30147-1

>  <r_epik_Charging_Adjusted_Penalty>  (1003) 
0.115397305346272

>  <r_epik_Ionization_Penalty>  (1003) 
0.054600000000000003

>  <r_epik_Ionization_Penalty_Charging>  (1003) 
0.054600000000000003

>  <r_epik_Ionization_Penalty_Neutral>  (1003) 
0

>  <r_epik_State_Penalty>  (1003) 
0.0608

>  <r_i_docking_score>  (1003) 
-4.7790950506710397

>  <r_i_glide_ecoul>  (1003) 
-10.078275680541999

>  <r_i_glide_eff_state_penalty>  (1003) 
0.0608

>  <r_i_glide_einternal>  (1003) 
6.1570816040039098

>  <r_i_glide_emodel>  (1003) 
-65.896175278051103

>  <r_i_glide_energy>  (1003) 
-46.846189498901403

>  <r_i_glide_erotb>  (1003) 
0.85066737856169505

>  <r_i_glide_esite>  (1003) 
-0.112397596195738

>  <r_i_glide_evdw>  (1003) 
-36.767913818359403

>  <r_i_glide_gscore>  (1003) 
-4.8398950506710401

>  <r_i_glide_hbond>  (1003) 
-0.27839028795575899

>  <r_i_glide_ligand_efficiency>  (1003) 
-0.14056161913738399

>  <r_i_glide_ligand_efficiency_ln>  (1003) 
-1.0558361457688601

>  <r_i_glide_ligand_efficiency_sa>  (1003) 
-0.45536507962887801

>  <r_i_glide_lipo>  (1003) 
-1.66083603335146

>  <r_i_glide_metal>  (1003) 
-0

>  <r_i_glide_rewards>  (1003) 
-0.28880146873050999

>  <r_lp_Energy>  (1003) 
17.560855

>  <r_qp_ACxDN^.5/SA>  (1003) 
0.0149248

>  <r_qp_CIQPlogS>  (1003) 
-5.9969999999999999

>  <r_qp_EA(eV)>  (1003) 
0.59499999999999997

>  <r_qp_FISA>  (1003) 
101.20399999999999

>  <r_qp_FOSA>  (1003) 
293.08300000000003

>  <r_qp_IP(eV)>  (1003) 
7.9809999999999999

>  <r_qp_Jm>  (1003) 
0.0041838498296527197

>  <r_qp_PISA>  (1003) 
347.82100000000003

>  <r_qp_PSA>  (1003) 
70.174999999999997

>  <r_qp_PercentHumanOralAbsorption>  (1003) 
100

>  <r_qp_QPPCaco>  (1003) 
271.06999999999999

>  <r_qp_QPPMDCK>  (1003) 
208.732

>  <r_qp_QPlogBB>  (1003) 
-0.66300000000000003

>  <r_qp_QPlogHERG>  (1003) 
-7.1200000000000001

>  <r_qp_QPlogKhsa>  (1003) 
0.70199999999999996

>  <r_qp_QPlogKp>  (1003) 
-3.1659999999999999

>  <r_qp_QPlogPC16>  (1003) 
15.458

>  <r_qp_QPlogPo/w>  (1003) 
4.6630000000000003

>  <r_qp_QPlogPoct>  (1003) 
24.227

>  <r_qp_QPlogPw>  (1003) 
13.224

>  <r_qp_QPlogS>  (1003) 
-4.875

>  <r_qp_QPpolrz>  (1003) 
48.706000000000003

>  <r_qp_SASA>  (1003) 
777.54700000000003

>  <r_qp_SAamideO>  (1003) 
0

>  <r_qp_SAfluorine>  (1003) 
35.439

>  <r_qp_WPSA>  (1003) 
35.439

>  <r_qp_accptHB>  (1003) 
6.7000000000000002

>  <r_qp_dip^2/V>  (1003) 
0.0024973999999999999

>  <r_qp_dipole>  (1003) 
1.9119999999999999

>  <r_qp_donorHB>  (1003) 
3

>  <r_qp_glob>  (1003) 
0.80203100000000005

>  <r_qp_mol_MW>  (1003) 
459.565

>  <r_qp_volume>  (1003) 
1464.297

>  <r_sd_BIOSOLVEIT.INFINISEE\_FTREES\_SIMILARITY>  (1003) 
0.91700000000000004

>  <r_sd_BIOSOLVEIT.LOGP>  (1003) 
3.1724000000000001

>  <r_sd_BIOSOLVEIT.MOLECULAR\_WEIGHT>  (1003) 
460.57400000000001

>  <r_sd_BIOSOLVEIT.TPSA>  (1003) 
74.510000000000005

>  <i_epik_Tot_Q>  (1003) 
2

>  <i_epik_Tot_abs_Q>  (1003) 
2

>  <i_f3d_flags>  (1003) 
0

>  <i_i_glide_confnum>  (1003) 
6

>  <i_i_glide_lignum>  (1003) 
362

>  <i_i_glide_posenum>  (1003) 
14

>  <i_i_glide_rotatable_bonds>  (1003) 
11

>  <i_lp_mmshare_version>  (1003) 
65135

>  <i_m_ct_format>  (1003) 
2

>  <i_m_source_file_index>  (1003) 
943

>  <i_qp_#NandO>  (1003) 
6

>  <i_qp_#acid>  (1003) 
0

>  <i_qp_#amide>  (1003) 
0

>  <i_qp_#amidine>  (1003) 
0

>  <i_qp_#amine>  (1003) 
1

>  <i_qp_#in34>  (1003) 
0

>  <i_qp_#in56>  (1003) 
22

>  <i_qp_#metab>  (1003) 
6

>  <i_qp_#nonHatm>  (1003) 
34

>  <i_qp_#noncon>  (1003) 
0

>  <i_qp_#ringatoms>  (1003) 
22

>  <i_qp_#rotor>  (1003) 
11

>  <i_qp_#rtvFG>  (1003) 
0

>  <i_qp_#stars>  (1003) 
0

>  <i_qp_CNS>  (1003) 
0

>  <i_qp_HumanOralAbsorption>  (1003) 
3

>  <i_qp_RuleOfFive>  (1003) 
0

>  <i_qp_RuleOfThree>  (1003) 
0

>  <i_sd_BIOSOLVEIT.INFINISEE\_REAGENT1\_NAME>  (1003) 
21893406

>  <i_sd_BIOSOLVEIT.INFINISEE\_REAGENT2\_NAME>  (1003) 
22360182

>  <i_sd_BIOSOLVEIT.INFINISEE\_REAGENT3\_NAME>  (1003) 
21967972

>  <i_sd_BIOSOLVEIT.INFINISEE\_RESULT\_RANK>  (1003) 
21903

>  <i_sd_version>  (1003) 
0

>  <b_lp_Chiralities_Consistent>  (1003) 
1

>  <b_sd_chiral_flag>  (1003) 
0

>  <canonical_id>  (1003) 
ATP-HTVS-A05CBA531631

>  <compound_code>  (1003) 
30147

>  <title>  (1003) 
m_282030aaa____21893406____22360182____21967972

>  <variant>  (1003) 
30147-1

>  <source_file>  (1003) 
运行/运行/ATP-VSW/ATP-VSW-DOCK_HTVS_1-003_lib/ATP-VSW-DOCK_HTVS_1-003_lib.mae

>  <canonical_smiles>  (1003) 
C[NH+](C)Cc1ccc(CCNc2nc(NCc3ccc(CO)cc3F)[nH+]c3ccccc23)cc1

>  <scaffold>  (1003) 
c1ccc(CCNc2nc(NCc3ccccc3)[nH+]c3ccccc23)cc1

>  <molecular_formula>  (1003) 
C27H32FN5O+2

$$$$
ATP-HTVS-A0BE83379585
     RDKit          3D

 61 64  0  0  0  0  0  0  0  0999 V2000
  199.1293  182.5555  155.6057 O   0  0  0  0  0  0  0  0  0  0  0  0
  198.1638  182.2159  154.9534 C   0  0  0  0  0  0  0  0  0  0  0  0
  196.9979  181.7654  155.4518 N   0  0  0  0  0  0  0  0  0  0  0  0
  196.6795  181.5402  156.8600 C   0  0  1  0  0  0  0  0  0  0  0  0
  196.7367  182.7822  157.7305 C   0  0  0  0  0  0  0  0  0  0  0  0
  197.9881  183.3060  158.1248 C   0  0  0  0  0  0  0  0  0  0  0  0
  198.0524  184.5145  158.8232 C   0  0  0  0  0  0  0  0  0  0  0  0
  196.8668  185.1753  159.2190 C   0  0  0  0  0  0  0  0  0  0  0  0
  195.6100  184.6273  158.8848 C   0  0  0  0  0  0  0  0  0  0  0  0
  195.5499  183.4352  158.1368 C   0  0  0  0  0  0  0  0  0  0  0  0
  196.9720  186.4418  160.0338 C   0  0  1  0  0  0  0  0  0  0  0  0
  197.6383  187.5988  159.2646 C   0  0  1  0  0  0  0  0  0  0  0  0
  197.9184  188.7810  160.1196 N   0  0  1  0  0  0  0  0  0  0  0  0
  198.6748  189.8161  159.3829 C   0  0  2  0  0  0  0  0  0  0  0  0
  196.7142  189.3390  160.7742 C   0  0  2  0  0  0  0  0  0  0  0  0
  198.2362  182.2270  153.4514 C   0  0  0  0  0  0  0  0  0  0  0  0
  198.5233  183.4039  152.7069 C   0  0  0  0  0  0  0  0  0  0  0  0
  198.7028  183.2712  151.3026 C   0  0  0  0  0  0  0  0  0  0  0  0
  198.6085  182.0848  150.6678 N   0  0  0  0  0  0  0  0  0  0  0  0
  198.3138  180.9707  151.3737 C   0  0  0  0  0  0  0  0  0  0  0  0
  198.2218  179.7152  150.6105 C   0  0  0  0  0  0  0  0  0  0  0  0
  197.5731  179.6766  149.3596 C   0  0  0  0  0  0  0  0  0  0  0  0
  197.4221  178.5597  148.6154 N   0  0  0  0  0  0  0  0  0  0  0  0
  197.9474  177.4143  149.0928 C   0  0  0  0  0  0  0  0  0  0  0  0
  198.6062  177.3266  150.3352 C   0  0  0  0  0  0  0  0  0  0  0  0
  198.7412  178.4977  151.1060 C   0  0  0  0  0  0  0  0  0  0  0  0
  198.1143  181.0048  152.7638 C   0  0  0  0  0  0  0  0  0  0  0  0
  199.0113  184.4300  150.5539 C   0  0  0  0  0  0  0  0  0  0  0  0
  199.1214  185.6914  151.1677 C   0  0  0  0  0  0  0  0  0  0  0  0
  198.9462  185.8247  152.5539 C   0  0  0  0  0  0  0  0  0  0  0  0
  198.6493  184.6813  153.3204 C   0  0  0  0  0  0  0  0  0  0  0  0
  199.0618  187.1925  153.2020 C   0  0  2  0  0  0  0  0  0  0  0  0
  196.2874  181.4877  154.7927 H   0  0  0  0  0  0  0  0  0  0  0  0
  195.6710  181.1324  156.8886 H   0  0  0  0  0  0  0  0  0  0  0  0
  197.3262  180.7719  157.2748 H   0  0  0  0  0  0  0  0  0  0  0  0
  198.9041  182.8037  157.8513 H   0  0  0  0  0  0  0  0  0  0  0  0
  199.0193  184.9358  159.0585 H   0  0  0  0  0  0  0  0  0  0  0  0
  194.6912  185.1129  159.1862 H   0  0  0  0  0  0  0  0  0  0  0  0
  194.5860  183.0335  157.8418 H   0  0  0  0  0  0  0  0  0  0  0  0
  195.9691  186.7161  160.3536 H   0  0  0  0  0  0  0  0  0  0  0  0
  197.5370  186.1974  160.9270 H   0  0  0  0  0  0  0  0  0  0  0  0
  198.5871  187.2668  158.8386 H   0  0  0  0  0  0  0  0  0  0  0  0
  197.0120  187.8822  158.4162 H   0  0  0  0  0  0  0  0  0  0  0  0
  198.0896  190.2043  158.5473 H   0  0  0  0  0  0  0  0  0  0  0  0
  199.6080  189.4104  158.9875 H   0  0  0  0  0  0  0  0  0  0  0  0
  198.9285  190.6436  160.0450 H   0  0  0  0  0  0  0  0  0  0  0  0
  195.9793  189.6589  160.0335 H   0  0  0  0  0  0  0  0  0  0  0  0
  196.9863  190.1924  161.3939 H   0  0  0  0  0  0  0  0  0  0  0  0
  196.2447  188.6148  161.4389 H   0  0  0  0  0  0  0  0  0  0  0  0
  197.1457  180.5805  148.9457 H   0  0  0  0  0  0  0  0  0  0  0  0
  197.8240  176.5398  148.4771 H   0  0  0  0  0  0  0  0  0  0  0  0
  199.0030  176.3845  150.6847 H   0  0  0  0  0  0  0  0  0  0  0  0
  199.2429  178.4595  152.0627 H   0  0  0  0  0  0  0  0  0  0  0  0
  197.9385  180.0882  153.3174 H   0  0  0  0  0  0  0  0  0  0  0  0
  199.1493  184.3352  149.4890 H   0  0  0  0  0  0  0  0  0  0  0  0
  199.3354  186.5661  150.5635 H   0  0  0  0  0  0  0  0  0  0  0  0
  198.5221  184.8041  154.3869 H   0  0  0  0  0  0  0  0  0  0  0  0
  198.8675  187.1527  154.2746 H   0  0  0  0  0  0  0  0  0  0  0  0
  198.3513  187.8831  152.7509 H   0  0  0  0  0  0  0  0  0  0  0  0
  200.0555  187.6098  153.0416 H   0  0  0  0  0  0  0  0  0  0  0  0
  198.5319  188.4930  160.8741 H   0  0  0  0  0  0  0  0  0  0  0  0
  1  2  2  0
  2  3  1  0
  2 16  1  0
  3  4  1  0
  3 33  1  0
  4  5  1  0
  4 34  1  6
  4 35  1  0
  5  6  1  0
  5 10  2  0
  6  7  2  0
  6 36  1  0
  7  8  1  0
  7 37  1  0
  8  9  2  0
  8 11  1  0
  9 10  1  0
  9 38  1  0
 10 39  1  0
 11 12  1  0
 11 40  1  1
 11 41  1  0
 12 13  1  0
 12 42  1  6
 12 43  1  0
 13 14  1  0
 13 15  1  0
 13 61  1  1
 14 44  1  6
 14 45  1  0
 14 46  1  0
 15 47  1  6
 15 48  1  0
 15 49  1  0
 16 17  1  0
 16 27  2  0
 17 18  1  0
 17 31  2  0
 18 19  1  0
 18 28  2  0
 19 20  2  0
 20 21  1  0
 20 27  1  0
 21 22  2  0
 21 26  1  0
 22 23  1  0
 22 50  1  0
 23 24  2  0
 24 25  1  0
 24 51  1  0
 25 26  2  0
 25 52  1  0
 26 53  1  0
 27 54  1  0
 28 29  1  0
 28 55  1  0
 29 30  2  0
 29 56  1  0
 30 31  1  0
 30 32  1  0
 31 57  1  0
 32 58  1  1
 32 59  1  0
 32 60  1  0
M  CHG  1  13   1
M  END
>  <s_epik_cmdline>  (1004) 
J2VwaWtfcHl0aG9uJywgJy1waCcsICc3LjAwMDAwMCcsICctcGh0JywgJzIuMDAwMDAwJywgJy1tcycsICcxNicsICctdG4nLCAnOCcsICctbWEnLCAnMjAwJywgJy1pbWFlJywgJzxpbmZpbGUubWFlPicsICctb21hZScsICc8b3V0ZmlsZS5tYWU+Jw==

>  <s_epik_input>  (1004) 
W2NIXTFbY0hdW2NIXW5bY0hdYzEtYyhuYyhjMjMpW2NIXVtjSF1jKFtjSF0zKVtDSDNdKVtjSF1jMkMoPU8pW05IXVtDSDJdYzRbY0hdW2NIXWMoW2NIXVtjSF00KVtDSDJdW0NIMl1OKFtDSDNdKVtDSDNd

>  <s_i_glide_gridfile>  (1004) 
ATP-Grid

>  <s_lp_Force_Field>  (1004) 
OPLS_2005

>  <s_lp_Variant>  (1004) 
m_527bbb____9173210____4065512-1

>  <s_lp_label>  (1004) 
1790_sdstereoexpander_1_neutralizer_1_epik_1_stereoizer_1

>  <s_m_source_file>  (1004) 
ATP-VSW-LIGPREP-003-in.maegz

>  <s_sd_BIOSOLVEIT.INFINISEE\_QUERY\_NAME>  (1004) 
Ref-Lig

>  <s_sd_BIOSOLVEIT.INFINISEE\_QUERY\_SMILES>  (1004) 
S(c1nc2c(cc1C[NH2+]Cc3ccc(cc3)C[NH+](C)C)cccc2)Cc4ccccc4

>  <s_sd_BIOSOLVEIT.INFINISEE\_REACTION\_NAME>  (1004) 
m_527bbb

>  <s_sd_BIOSOLVEIT.INFINISEE\_REAGENT1\_SMILES>  (1004) 
[R1*]NCc1ccc(cc1)CCN(C)C

>  <s_sd_BIOSOLVEIT.INFINISEE\_REAGENT2\_SMILES>  (1004) 
[R1*]C(=O)c1c2c(nc(c3cnccc3)c1)ccc(c2)C

>  <s_sd_BIOSOLVEIT.INFINISEE\_SPACE>  (1004) 
REALSpace_44bn_2023-08

>  <s_vsw_compound_code>  (1004) 
57251

>  <s_vsw_variant>  (1004) 
57251-1

>  <r_epik_Charging_Adjusted_Penalty>  (1004) 
0.0083786032408328607

>  <r_epik_Ionization_Penalty>  (1004) 
0.0044000000000000003

>  <r_epik_Ionization_Penalty_Charging>  (1004) 
0.0041999999999999997

>  <r_epik_Ionization_Penalty_Neutral>  (1004) 
0.00029999999999999997

>  <r_epik_State_Penalty>  (1004) 
0.0041999999999999997

>  <r_i_docking_score>  (1004) 
-3.6899224384929998

>  <r_i_glide_ecoul>  (1004) 
-6.6424293518066397

>  <r_i_glide_eff_state_penalty>  (1004) 
0.0041999999999999997

>  <r_i_glide_einternal>  (1004) 
2.7459118366241499

>  <r_i_glide_emodel>  (1004) 
-48.969880343696701

>  <r_i_glide_energy>  (1004) 
-38.4453029632568

>  <r_i_glide_erotb>  (1004) 
0.76684582739809504

>  <r_i_glide_esite>  (1004) 
-0.107173574799237

>  <r_i_glide_evdw>  (1004) 
-31.802873611450199

>  <r_i_glide_gscore>  (1004) 
-3.6941224384929998

>  <r_i_glide_hbond>  (1004) 
-0.087982508500917295

>  <r_i_glide_ligand_efficiency>  (1004) 
-0.115310076202906

>  <r_i_glide_ligand_efficiency_ln>  (1004) 
-0.82627421746540297

>  <r_i_glide_ligand_efficiency_sa>  (1004) 
-0.36608667211113299

>  <r_i_glide_lipo>  (1004) 
-1.17165882652016

>  <r_i_glide_metal>  (1004) 
-0

>  <r_i_glide_rewards>  (1004) 
-0.507645272727271

>  <r_lp_Energy>  (1004) 
29.258555999999999

>  <r_qp_ACxDN^.5/SA>  (1004) 
0.0084688999999999997

>  <r_qp_CIQPlogS>  (1004) 
-5.3109999999999999

>  <r_qp_EA(eV)>  (1004) 
1.337

>  <r_qp_FISA>  (1004) 
73.738

>  <r_qp_FOSA>  (1004) 
339.25799999999998

>  <r_qp_IP(eV)>  (1004) 
9.0429999999999993

>  <r_qp_Jm>  (1004) 
0.00032709545644238699

>  <r_qp_PISA>  (1004) 
413.56

>  <r_qp_PSA>  (1004) 
62.656999999999996

>  <r_qp_PercentHumanOralAbsorption>  (1004) 
100

>  <r_qp_QPPCaco>  (1004) 
493.79199999999997

>  <r_qp_QPPMDCK>  (1004) 
255.26300000000001

>  <r_qp_QPlogBB>  (1004) 
-0.32500000000000001

>  <r_qp_QPlogHERG>  (1004) 
-8.2110000000000003

>  <r_qp_QPlogKhsa>  (1004) 
0.878

>  <r_qp_QPlogKp>  (1004) 
-2.8119999999999998

>  <r_qp_QPlogPC16>  (1004) 
15.784000000000001

>  <r_qp_QPlogPo/w>  (1004) 
4.9530000000000003

>  <r_qp_QPlogPoct>  (1004) 
22.588999999999999

>  <r_qp_QPlogPw>  (1004) 
11.837999999999999

>  <r_qp_QPlogS>  (1004) 
-6.3010000000000002

>  <r_qp_QPpolrz>  (1004) 
51.848999999999997

>  <r_qp_SASA>  (1004) 
826.55600000000004

>  <r_qp_SAamideO>  (1004) 
0

>  <r_qp_SAfluorine>  (1004) 
0

>  <r_qp_WPSA>  (1004) 
0

>  <r_qp_accptHB>  (1004) 
7

>  <r_qp_dip^2/V>  (1004) 
0.026221700000000001

>  <r_qp_dipole>  (1004) 
6.194

>  <r_qp_donorHB>  (1004) 
1

>  <r_qp_glob>  (1004) 
0.75402040000000004

>  <r_qp_mol_MW>  (1004) 
424.54399999999998

>  <r_qp_volume>  (1004) 
1462.9690000000001

>  <r_sd_BIOSOLVEIT.INFINISEE\_FTREES\_SIMILARITY>  (1004) 
0.90400000000000003

>  <r_sd_BIOSOLVEIT.LOGP>  (1004) 
3.2222200000000001

>  <r_sd_BIOSOLVEIT.MOLECULAR\_WEIGHT>  (1004) 
425.553

>  <r_sd_BIOSOLVEIT.TPSA>  (1004) 
59.32

>  <i_epik_Tot_Q>  (1004) 
1

>  <i_epik_Tot_abs_Q>  (1004) 
1

>  <i_f3d_flags>  (1004) 
0

>  <i_i_glide_confnum>  (1004) 
8

>  <i_i_glide_lignum>  (1004) 
666

>  <i_i_glide_posenum>  (1004) 
12

>  <i_i_glide_rotatable_bonds>  (1004) 
8

>  <i_lp_mmshare_version>  (1004) 
65135

>  <i_m_ct_format>  (1004) 
2

>  <i_m_source_file_index>  (1004) 
1790

>  <i_qp_#NandO>  (1004) 
5

>  <i_qp_#acid>  (1004) 
0

>  <i_qp_#amide>  (1004) 
0

>  <i_qp_#amidine>  (1004) 
0

>  <i_qp_#amine>  (1004) 
1

>  <i_qp_#in34>  (1004) 
0

>  <i_qp_#in56>  (1004) 
22

>  <i_qp_#metab>  (1004) 
6

>  <i_qp_#nonHatm>  (1004) 
32

>  <i_qp_#noncon>  (1004) 
0

>  <i_qp_#ringatoms>  (1004) 
22

>  <i_qp_#rotor>  (1004) 
7

>  <i_qp_#rtvFG>  (1004) 
0

>  <i_qp_#stars>  (1004) 
0

>  <i_qp_CNS>  (1004) 
1

>  <i_qp_HumanOralAbsorption>  (1004) 
1

>  <i_qp_RuleOfFive>  (1004) 
0

>  <i_qp_RuleOfThree>  (1004) 
1

>  <i_sd_BIOSOLVEIT.INFINISEE\_REAGENT1\_NAME>  (1004) 
9173210

>  <i_sd_BIOSOLVEIT.INFINISEE\_REAGENT2\_NAME>  (1004) 
4065512

>  <i_sd_BIOSOLVEIT.INFINISEE\_RESULT\_RANK>  (1004) 
77251

>  <i_sd_version>  (1004) 
0

>  <b_lp_Chiralities_Consistent>  (1004) 
1

>  <b_sd_chiral_flag>  (1004) 
0

>  <canonical_id>  (1004) 
ATP-HTVS-A0BE83379585

>  <compound_code>  (1004) 
57251

>  <title>  (1004) 
m_527bbb____9173210____4065512

>  <variant>  (1004) 
57251-1

>  <source_file>  (1004) 
运行/运行/ATP-VSW/ATP-VSW-DOCK_HTVS_1-003_lib/ATP-VSW-DOCK_HTVS_1-003_lib.mae

>  <canonical_smiles>  (1004) 
Cc1ccc2nc(-c3cccnc3)cc(C(=O)NCc3ccc(CC[NH+](C)C)cc3)c2c1

>  <scaffold>  (1004) 
O=C(NCc1ccccc1)c1cc(-c2cccnc2)nc2ccccc12

>  <molecular_formula>  (1004) 
C27H29N4O+

$$$$
ATP-HTVS-A0DD4911ADFC
     RDKit          3D

 66 70  0  0  0  0  0  0  0  0999 V2000
  197.4902  178.6518  150.4899 O   0  0  0  0  0  0  0  0  0  0  0  0
  198.5607  178.1024  150.7406 C   0  0  0  0  0  0  0  0  0  0  0  0
  199.2308  178.2413  151.9001 N   0  0  0  0  0  0  0  0  0  0  0  0
  198.8877  179.0405  153.0267 C   0  0  0  0  0  0  0  0  0  0  0  0
  197.9551  180.0082  152.9311 N   0  0  0  0  0  0  0  0  0  0  0  0
  197.6506  180.7651  153.9948 C   0  0  0  0  0  0  0  0  0  0  0  0
  198.2645  180.6135  155.2555 C   0  0  0  0  0  0  0  0  0  0  0  0
  197.9031  181.4406  156.3376 N   0  0  0  0  0  0  0  0  0  0  0  0
  196.5229  181.9071  156.4137 C   0  0  1  0  0  0  0  0  0  0  0  0
  196.2962  182.9442  157.4904 C   0  0  0  0  0  0  0  0  0  0  0  0
  196.9300  184.1942  157.3862 C   0  0  0  0  0  0  0  0  0  0  0  0
  196.7789  185.1584  158.4029 C   0  0  0  0  0  0  0  0  0  0  0  0
  195.9209  184.8866  159.4908 C   0  0  0  0  0  0  0  0  0  0  0  0
  195.2384  183.6553  159.5623 C   0  0  0  0  0  0  0  0  0  0  0  0
  195.4354  182.6760  158.5693 C   0  0  0  0  0  0  0  0  0  0  0  0
  197.5833  186.4450  158.3470 C   0  0  1  0  0  0  0  0  0  0  0  0
  198.9000  186.2730  159.0175 N   0  0  2  0  0  0  0  0  0  0  0  0
  199.5870  187.5605  159.2636 C   0  0  2  0  0  0  0  0  0  0  0  0
  199.7939  185.2981  158.3407 C   0  0  2  0  0  0  0  0  0  0  0  0
  199.2521  179.5975  155.3812 C   0  0  0  0  0  0  0  0  0  0  0  0
  199.5739  178.7939  154.2471 C   0  0  0  0  0  0  0  0  0  0  0  0
  200.5574  177.7744  154.3616 C   0  0  0  0  0  0  0  0  0  0  0  0
  201.2208  177.5554  155.5805 C   0  0  0  0  0  0  0  0  0  0  0  0
  200.9102  178.3493  156.6977 C   0  0  0  0  0  0  0  0  0  0  0  0
  199.9411  179.3662  156.5951 C   0  0  0  0  0  0  0  0  0  0  0  0
  199.2364  177.2136  149.7274 C   0  0  0  0  0  0  0  0  0  0  0  0
  199.0891  177.3961  148.3153 C   0  0  0  0  0  0  0  0  0  0  0  0
  199.7604  176.5134  147.4424 C   0  0  0  0  0  0  0  0  0  0  0  0
  200.5456  175.4544  147.9224 C   0  0  0  0  0  0  0  0  0  0  0  0
  200.6850  175.2694  149.3049 C   0  0  0  0  0  0  0  0  0  0  0  0
  200.0302  176.1344  150.1970 C   0  0  0  0  0  0  0  0  0  0  0  0
  198.2662  178.4914  147.6767 C   0  0  1  0  0  0  0  0  0  0  0  0
  198.9400  179.7597  147.7300 C   0  0  0  0  0  0  0  0  0  0  0  0
  199.4767  180.7841  147.7698 N   0  0  0  0  0  0  0  0  0  0  0  0
  197.4142  178.1835  146.4509 C   0  0  1  0  0  0  0  0  0  0  0  0
  196.7528  178.4553  147.7665 C   0  0  1  0  0  0  0  0  0  0  0  0
  200.0563  177.6707  152.0074 H   0  0  0  0  0  0  0  0  0  0  0  0
  196.9069  181.5233  153.7918 H   0  0  0  0  0  0  0  0  0  0  0  0
  198.2552  181.1404  157.2320 H   0  0  0  0  0  0  0  0  0  0  0  0
  196.1968  182.3824  155.4886 H   0  0  0  0  0  0  0  0  0  0  0  0
  195.8776  181.0417  156.5785 H   0  0  0  0  0  0  0  0  0  0  0  0
  197.5613  184.3904  156.5322 H   0  0  0  0  0  0  0  0  0  0  0  0
  195.7918  185.6103  160.2849 H   0  0  0  0  0  0  0  0  0  0  0  0
  194.5730  183.4452  160.3869 H   0  0  0  0  0  0  0  0  0  0  0  0
  194.9242  181.7262  158.6273 H   0  0  0  0  0  0  0  0  0  0  0  0
  197.7258  186.7633  157.3112 H   0  0  0  0  0  0  0  0  0  0  0  0
  197.0073  187.2368  158.8337 H   0  0  0  0  0  0  0  0  0  0  0  0
  199.8137  188.0684  158.3255 H   0  0  0  0  0  0  0  0  0  0  0  0
  200.5279  187.3953  159.7901 H   0  0  0  0  0  0  0  0  0  0  0  0
  198.9806  188.2269  159.8791 H   0  0  0  0  0  0  0  0  0  0  0  0
  200.0327  185.6339  157.3310 H   0  0  0  0  0  0  0  0  0  0  0  0
  199.3525  184.3046  158.2725 H   0  0  0  0  0  0  0  0  0  0  0  0
  200.7259  185.1752  158.8904 H   0  0  0  0  0  0  0  0  0  0  0  0
  200.8284  177.1436  153.5271 H   0  0  0  0  0  0  0  0  0  0  0  0
  201.9632  176.7759  155.6628 H   0  0  0  0  0  0  0  0  0  0  0  0
  201.4167  178.1714  157.6336 H   0  0  0  0  0  0  0  0  0  0  0  0
  199.7238  179.9532  157.4724 H   0  0  0  0  0  0  0  0  0  0  0  0
  199.6750  176.6324  146.3736 H   0  0  0  0  0  0  0  0  0  0  0  0
  201.0285  174.7760  147.2375 H   0  0  0  0  0  0  0  0  0  0  0  0
  201.2729  174.4458  149.6837 H   0  0  0  0  0  0  0  0  0  0  0  0
  200.1358  175.9213  151.2480 H   0  0  0  0  0  0  0  0  0  0  0  0
  197.3273  178.9456  145.6787 H   0  0  0  0  0  0  0  0  0  0  0  0
  197.3733  177.1571  146.0904 H   0  0  0  0  0  0  0  0  0  0  0  0
  196.3459  177.6099  148.3138 H   0  0  0  0  0  0  0  0  0  0  0  0
  196.2415  179.4053  147.9090 H   0  0  0  0  0  0  0  0  0  0  0  0
  198.6879  185.8866  159.9261 H   0  0  0  0  0  0  0  0  0  0  0  0
  1  2  2  0
  2  3  1  0
  2 26  1  0
  3  4  1  0
  3 37  1  0
  4  5  1  0
  4 21  2  0
  5  6  2  0
  6  7  1  0
  6 38  1  0
  7  8  1  0
  7 20  2  0
  8  9  1  0
  8 39  1  0
  9 10  1  0
  9 40  1  6
  9 41  1  0
 10 11  2  0
 10 15  1  0
 11 12  1  0
 11 42  1  0
 12 13  2  0
 12 16  1  0
 13 14  1  0
 13 43  1  0
 14 15  2  0
 14 44  1  0
 15 45  1  0
 16 17  1  0
 16 46  1  6
 16 47  1  0
 17 18  1  0
 17 19  1  0
 17 66  1  1
 18 48  1  6
 18 49  1  0
 18 50  1  0
 19 51  1  6
 19 52  1  0
 19 53  1  0
 20 21  1  0
 20 25  1  0
 21 22  1  0
 22 23  2  0
 22 54  1  0
 23 24  1  0
 23 55  1  0
 24 25  2  0
 24 56  1  0
 25 57  1  0
 26 27  1  0
 26 31  2  0
 27 28  2  0
 27 32  1  0
 28 29  1  0
 28 58  1  0
 29 30  2  0
 29 59  1  0
 30 31  1  0
 30 60  1  0
 31 61  1  0
 32 33  1  6
 32 35  1  0
 32 36  1  0
 33 34  3  0
 35 36  1  0
 35 62  1  6
 35 63  1  0
 36 64  1  1
 36 65  1  0
M  CHG  1  17   1
M  END
>  <s_epik_cmdline>  (1005) 
J2VwaWtfcHl0aG9uJywgJy1waCcsICc3LjAwMDAwMCcsICctcGh0JywgJzIuMDAwMDAwJywgJy1tcycsICcxNicsICctdG4nLCAnOCcsICctbWEnLCAnMjAwJywgJy1pbWFlJywgJzxpbmZpbGUubWFlPicsICctb21hZScsICc8b3V0ZmlsZS5tYWU+Jw==

>  <s_epik_input>  (1005) 
W2NIXTFbY0hdW2NIXVtjSF1jKEMyKEMjTilbQ0gyXVtDSDJdMiljMUMoPU8pW05IXWMoYyhjMzQpW2NIXVtjSF1bY0hdW2NIXTQpbltjSF1jM1tOSF1bQ0gyXWM1W2NIXWMoW2NIXVtjSF1bY0hdNSlbQ0gyXU4oW0NIM10pW0NIM10=

>  <s_i_glide_gridfile>  (1005) 
ATP-Grid

>  <s_lp_Force_Field>  (1005) 
OPLS_2005

>  <s_lp_Variant>  (1005) 
rxn502b____EMOL36369022____EMOL7515103____EMOL2873214-1

>  <s_lp_label>  (1005) 
2527_sdstereoexpander_1_neutralizer_1_epik_1_stereoizer_1

>  <s_m_source_file>  (1005) 
ATP-VSW-LIGPREP-002-in.maegz

>  <s_sd_BIOSOLVEIT.INFINISEE\_QUERY\_NAME>  (1005) 
Ref-Lig

>  <s_sd_BIOSOLVEIT.INFINISEE\_QUERY\_SMILES>  (1005) 
S(c1nc2c(cc1C[NH2+]Cc3ccc(cc3)C[NH+](C)C)cccc2)Cc4ccccc4

>  <s_sd_BIOSOLVEIT.INFINISEE\_REACTION\_NAME>  (1005) 
rxn502b

>  <s_sd_BIOSOLVEIT.INFINISEE\_REAGENT1\_NAME>  (1005) 
EMOL36369022

>  <s_sd_BIOSOLVEIT.INFINISEE\_REAGENT1\_SMILES>  (1005) 
O=C(O)c1c(cccc1)C2(C#N)CC2

>  <s_sd_BIOSOLVEIT.INFINISEE\_REAGENT2\_NAME>  (1005) 
EMOL7515103

>  <s_sd_BIOSOLVEIT.INFINISEE\_REAGENT2\_SMILES>  (1005) 
Brc1c2c(c(nc1)N)cccc2

>  <s_sd_BIOSOLVEIT.INFINISEE\_REAGENT3\_NAME>  (1005) 
EMOL2873214

>  <s_sd_BIOSOLVEIT.INFINISEE\_REAGENT3\_SMILES>  (1005) 
N(Cc1cc(ccc1)CN)(C)C

>  <s_sd_BIOSOLVEIT.INFINISEE\_SPACE>  (1005) 
eXplore_7tr_2022-12

>  <s_vsw_compound_code>  (1005) 
80834

>  <s_vsw_variant>  (1005) 
80834-1

>  <r_epik_Charging_Adjusted_Penalty>  (1005) 
0.088195370499548398

>  <r_epik_Ionization_Penalty>  (1005) 
0.044200000000000003

>  <r_epik_Ionization_Penalty_Charging>  (1005) 
0.0441

>  <r_epik_Ionization_Penalty_Neutral>  (1005) 
0.0001

>  <r_epik_State_Penalty>  (1005) 
0.0441

>  <r_i_docking_score>  (1005) 
-3.1859202757173999

>  <r_i_glide_ecoul>  (1005) 
-3.1606683731079102

>  <r_i_glide_eff_state_penalty>  (1005) 
0.0441

>  <r_i_glide_einternal>  (1005) 
1.2225811481475799

>  <r_i_glide_emodel>  (1005) 
-50.082369422637399

>  <r_i_glide_energy>  (1005) 
-40.269677162170403

>  <r_i_glide_erotb>  (1005) 
0.71324797024618902

>  <r_i_glide_esite>  (1005) 
-0.046143527659388603

>  <r_i_glide_evdw>  (1005) 
-37.1090087890625

>  <r_i_glide_gscore>  (1005) 
-3.2300202757174001

>  <r_i_glide_hbond>  (1005) 
0

>  <r_i_glide_ligand_efficiency>  (1005) 
-0.088497785436594603

>  <r_i_glide_ligand_efficiency_ln>  (1005) 
-0.69508173054272004

>  <r_i_glide_ligand_efficiency_sa>  (1005) 
-0.29221324885087102

>  <r_i_glide_lipo>  (1005) 
-1.2901063855705599

>  <r_i_glide_metal>  (1005) 
-0

>  <r_i_glide_rewards>  (1005) 
-0.27746763731433099

>  <r_lp_Energy>  (1005) 
38.425049000000001

>  <r_qp_ACxDN^.5/SA>  (1005) 
0.016042000000000001

>  <r_qp_CIQPlogS>  (1005) 
-6.71

>  <r_qp_EA(eV)>  (1005) 
0.82999999999999996

>  <r_qp_FISA>  (1005) 
90.146000000000001

>  <r_qp_FOSA>  (1005) 
223.16200000000001

>  <r_qp_IP(eV)>  (1005) 
7.8620000000000001

>  <r_qp_Jm>  (1005) 
0.0081485353321289998

>  <r_qp_PISA>  (1005) 
391.947

>  <r_qp_PSA>  (1005) 
77.661000000000001

>  <r_qp_PercentHumanOralAbsorption>  (1005) 
96.519999999999996

>  <r_qp_QPPCaco>  (1005) 
345.09699999999998

>  <r_qp_QPPMDCK>  (1005) 
173.30000000000001

>  <r_qp_QPlogBB>  (1005) 
-0.316

>  <r_qp_QPlogHERG>  (1005) 
-6.2489999999999997

>  <r_qp_QPlogKhsa>  (1005) 
0.60499999999999998

>  <r_qp_QPlogKp>  (1005) 
-3.0950000000000002

>  <r_qp_QPlogPC16>  (1005) 
15.199

>  <r_qp_QPlogPo/w>  (1005) 
4.1239999999999997

>  <r_qp_QPlogPoct>  (1005) 
24.094999999999999

>  <r_qp_QPlogPw>  (1005) 
13.74

>  <r_qp_QPlogS>  (1005) 
-4.6710000000000003

>  <r_qp_QPpolrz>  (1005) 
49.534999999999997

>  <r_qp_SASA>  (1005) 
705.255

>  <r_qp_SAamideO>  (1005) 
0

>  <r_qp_SAfluorine>  (1005) 
0

>  <r_qp_WPSA>  (1005) 
0

>  <r_qp_accptHB>  (1005) 
8

>  <r_qp_dip^2/V>  (1005) 
0.0106196

>  <r_qp_dipole>  (1005) 
3.8919999999999999

>  <r_qp_donorHB>  (1005) 
2

>  <r_qp_glob>  (1005) 
0.86889870000000002

>  <r_qp_mol_MW>  (1005) 
475.59199999999998

>  <r_qp_volume>  (1005) 
1426.3489999999999

>  <r_sd_BIOSOLVEIT.INFINISEE\_FTREES\_SIMILARITY>  (1005) 
0.91300000000000003

>  <r_sd_BIOSOLVEIT.LOGP>  (1005) 
4.2988799999999996

>  <r_sd_BIOSOLVEIT.MOLECULAR\_WEIGHT>  (1005) 
476.601

>  <r_sd_BIOSOLVEIT.TPSA>  (1005) 
82.25

>  <i_epik_Tot_Q>  (1005) 
1

>  <i_epik_Tot_abs_Q>  (1005) 
1

>  <i_f3d_flags>  (1005) 
0

>  <i_i_glide_confnum>  (1005) 
2

>  <i_i_glide_lignum>  (1005) 
1107

>  <i_i_glide_posenum>  (1005) 
4

>  <i_i_glide_rotatable_bonds>  (1005) 
9

>  <i_lp_mmshare_version>  (1005) 
65135

>  <i_m_ct_format>  (1005) 
2

>  <i_m_source_file_index>  (1005) 
2527

>  <i_qp_#NandO>  (1005) 
6

>  <i_qp_#acid>  (1005) 
0

>  <i_qp_#amide>  (1005) 
0

>  <i_qp_#amidine>  (1005) 
0

>  <i_qp_#amine>  (1005) 
1

>  <i_qp_#in34>  (1005) 
3

>  <i_qp_#in56>  (1005) 
22

>  <i_qp_#metab>  (1005) 
8

>  <i_qp_#nonHatm>  (1005) 
36

>  <i_qp_#noncon>  (1005) 
3

>  <i_qp_#ringatoms>  (1005) 
25

>  <i_qp_#rotor>  (1005) 
8

>  <i_qp_#rtvFG>  (1005) 
1

>  <i_qp_#stars>  (1005) 
1

>  <i_qp_CNS>  (1005) 
1

>  <i_qp_HumanOralAbsorption>  (1005) 
3

>  <i_qp_RuleOfFive>  (1005) 
0

>  <i_qp_RuleOfThree>  (1005) 
1

>  <i_sd_BIOSOLVEIT.INFINISEE\_RESULT\_RANK>  (1005) 
33429

>  <i_sd_version>  (1005) 
0

>  <b_lp_Chiralities_Consistent>  (1005) 
1

>  <b_sd_chiral_flag>  (1005) 
0

>  <canonical_id>  (1005) 
ATP-HTVS-A0DD4911ADFC

>  <compound_code>  (1005) 
80834

>  <title>  (1005) 
rxn502b____EMOL36369022____EMOL7515103____EMOL2873214

>  <variant>  (1005) 
80834-1

>  <source_file>  (1005) 
运行/运行/ATP-VSW/ATP-VSW-DOCK_HTVS_1-002_lib.maegz

>  <canonical_smiles>  (1005) 
C[NH+](C)Cc1cccc(CNc2cnc(NC(=O)c3ccccc3C3(C#N)CC3)c3ccccc23)c1

>  <scaffold>  (1005) 
O=C(Nc1ncc(NCc2ccccc2)c2ccccc12)c1ccccc1C1CC1

>  <molecular_formula>  (1005) 
C30H30N5O+

$$$$
ATP-HTVS-A10345D75118
     RDKit          3D

 66 69  0  0  0  0  0  0  0  0999 V2000
  200.9061  173.5672  152.0813 S   0  0  0  0  0  0  0  0  0  0  0  0
  199.9512  172.5767  152.7510 O   0  0  0  0  0  0  0  0  0  0  0  0
  201.1499  174.9045  153.2829 C   0  0  0  0  0  0  0  0  0  0  0  0
  201.0266  176.2336  152.8476 C   0  0  0  0  0  0  0  0  0  0  0  0
  201.2144  177.2800  153.7697 C   0  0  0  0  0  0  0  0  0  0  0  0
  201.5059  176.9911  155.1188 C   0  0  0  0  0  0  0  0  0  0  0  0
  201.6303  175.6489  155.5459 C   0  0  0  0  0  0  0  0  0  0  0  0
  201.4464  174.5997  154.6265 C   0  0  0  0  0  0  0  0  0  0  0  0
  201.6803  178.1235  156.1183 C   0  0  1  0  0  0  0  0  0  0  0  0
  200.6534  179.1627  156.0594 N   0  0  0  0  0  0  0  0  0  0  0  0
  200.9280  180.3578  156.7678 C   0  0  0  0  0  0  0  0  0  0  0  0
  201.7946  180.2845  157.8077 N   0  0  0  0  0  0  0  0  0  0  0  0
  202.0308  181.4001  158.5347 C   0  0  0  0  0  0  0  0  0  0  0  0
  201.4277  182.6382  158.1825 C   0  0  0  0  0  0  0  0  0  0  0  0
  200.6145  182.7240  157.1071 N   0  0  0  0  0  0  0  0  0  0  0  0
  200.3198  181.5963  156.4283 C   0  0  0  0  0  0  0  0  0  0  0  0
  199.4080  181.6894  155.3589 N   0  0  0  0  0  0  0  0  0  0  0  0
  198.5431  182.8477  155.1362 C   0  0  1  0  0  0  0  0  0  0  0  0
  197.7824  183.3409  156.3551 C   0  0  0  0  0  0  0  0  0  0  0  0
  196.7946  182.5318  156.9576 C   0  0  0  0  0  0  0  0  0  0  0  0
  196.1660  182.9541  158.1431 C   0  0  0  0  0  0  0  0  0  0  0  0
  196.5214  184.1912  158.7309 C   0  0  0  0  0  0  0  0  0  0  0  0
  197.5020  184.9993  158.1295 C   0  0  0  0  0  0  0  0  0  0  0  0
  198.1277  184.5732  156.9413 C   0  0  0  0  0  0  0  0  0  0  0  0
  195.1391  182.0545  158.8018 C   0  0  1  0  0  0  0  0  0  0  0  0
  193.8199  182.1375  158.1369 N   0  0  1  0  0  0  0  0  0  0  0  0
  192.9961  180.9267  158.3234 C   0  0  2  0  0  0  0  0  0  0  0  0
  193.0950  183.3800  158.4543 C   0  0  2  0  0  0  0  0  0  0  0  0
  201.6666  183.7820  158.9663 C   0  0  0  0  0  0  0  0  0  0  0  0
  202.5031  183.7194  160.0950 C   0  0  0  0  0  0  0  0  0  0  0  0
  203.1008  182.4953  160.4488 C   0  0  0  0  0  0  0  0  0  0  0  0
  202.8588  181.3433  159.6738 C   0  0  0  0  0  0  0  0  0  0  0  0
  199.2555  178.7346  156.0829 C   0  0  2  0  0  0  0  0  0  0  0  0
  202.6157  172.8641  152.2131 C   0  0  2  0  0  0  0  0  0  0  0  0
  200.7843  176.4540  151.8187 H   0  0  0  0  0  0  0  0  0  0  0  0
  201.1140  178.3041  153.4446 H   0  0  0  0  0  0  0  0  0  0  0  0
  201.8506  175.4252  156.5811 H   0  0  0  0  0  0  0  0  0  0  0  0
  201.5226  173.5719  154.9467 H   0  0  0  0  0  0  0  0  0  0  0  0
  201.7095  177.7040  157.1252 H   0  0  0  0  0  0  0  0  0  0  0  0
  202.6558  178.5770  155.9319 H   0  0  0  0  0  0  0  0  0  0  0  0
  199.1987  180.8303  154.8777 H   0  0  0  0  0  0  0  0  0  0  0  0
  199.1462  183.6577  154.7271 H   0  0  0  0  0  0  0  0  0  0  0  0
  197.8184  182.5893  154.3624 H   0  0  0  0  0  0  0  0  0  0  0  0
  196.5456  181.5719  156.5210 H   0  0  0  0  0  0  0  0  0  0  0  0
  196.0594  184.5200  159.6505 H   0  0  0  0  0  0  0  0  0  0  0  0
  197.8049  185.9293  158.5905 H   0  0  0  0  0  0  0  0  0  0  0  0
  198.9174  185.1684  156.5136 H   0  0  0  0  0  0  0  0  0  0  0  0
  195.5287  181.0353  158.8152 H   0  0  0  0  0  0  0  0  0  0  0  0
  195.0286  182.3493  159.8423 H   0  0  0  0  0  0  0  0  0  0  0  0
  192.7325  180.7864  159.3622 H   0  0  0  0  0  0  0  0  0  0  0  0
  193.5451  180.0394  158.0322 H   0  0  0  0  0  0  0  0  0  0  0  0
  192.0764  180.9720  157.7432 H   0  0  0  0  0  0  0  0  0  0  0  0
  192.8773  183.5002  159.5138 H   0  0  0  0  0  0  0  0  0  0  0  0
  192.1425  183.3603  157.9338 H   0  0  0  0  0  0  0  0  0  0  0  0
  193.6565  184.2554  158.1280 H   0  0  0  0  0  0  0  0  0  0  0  0
  201.1945  184.7156  158.6946 H   0  0  0  0  0  0  0  0  0  0  0  0
  202.6909  184.6081  160.6787 H   0  0  0  0  0  0  0  0  0  0  0  0
  203.7529  182.4457  161.3103 H   0  0  0  0  0  0  0  0  0  0  0  0
  203.3087  180.4036  159.9535 H   0  0  0  0  0  0  0  0  0  0  0  0
  198.7388  179.1509  156.9450 H   0  0  0  0  0  0  0  0  0  0  0  0
  199.1541  177.6479  156.1358 H   0  0  0  0  0  0  0  0  0  0  0  0
  198.7394  179.0623  155.1804 H   0  0  0  0  0  0  0  0  0  0  0  0
  203.3280  173.6188  152.5403 H   0  0  0  0  0  0  0  0  0  0  0  0
  202.9369  172.4798  151.2465 H   0  0  0  0  0  0  0  0  0  0  0  0
  202.6185  172.0475  152.9327 H   0  0  0  0  0  0  0  0  0  0  0  0
  193.9641  182.2186  157.1212 H   0  0  0  0  0  0  0  0  0  0  0  0
  1  2  2  0
  1  3  1  1
  1 34  1  0
  3  4  1  0
  3  8  2  0
  4  5  2  0
  4 35  1  0
  5  6  1  0
  5 36  1  0
  6  7  2  0
  6  9  1  0
  7  8  1  0
  7 37  1  0
  8 38  1  0
  9 10  1  0
  9 39  1  1
  9 40  1  0
 10 11  1  0
 10 33  1  0
 11 12  2  0
 11 16  1  0
 12 13  1  0
 13 14  1  0
 13 32  2  0
 14 15  1  0
 14 29  2  0
 15 16  2  0
 16 17  1  0
 17 18  1  0
 17 41  1  0
 18 19  1  0
 18 42  1  6
 18 43  1  0
 19 20  2  0
 19 24  1  0
 20 21  1  0
 20 44  1  0
 21 22  2  0
 21 25  1  0
 22 23  1  0
 22 45  1  0
 23 24  2  0
 23 46  1  0
 24 47  1  0
 25 26  1  0
 25 48  1  1
 25 49  1  0
 26 27  1  0
 26 28  1  0
 26 66  1  6
 27 50  1  1
 27 51  1  0
 27 52  1  0
 28 53  1  1
 28 54  1  0
 28 55  1  0
 29 30  1  0
 29 56  1  0
 30 31  2  0
 30 57  1  0
 31 32  1  0
 31 58  1  0
 32 59  1  0
 33 60  1  1
 33 61  1  0
 33 62  1  0
 34 63  1  1
 34 64  1  0
 34 65  1  0
M  CHG  1  26   1
M  END
>  <s_epik_cmdline>  (1006) 
J2VwaWtfcHl0aG9uJywgJy1waCcsICc3LjAwMDAwMCcsICctcGh0JywgJzIuMDAwMDAwJywgJy1tcycsICcxNicsICctdG4nLCAnOCcsICctbWEnLCAnMjAwJywgJy1pbWFlJywgJzxpbmZpbGUubWFlPicsICctb21hZScsICc8b3V0ZmlsZS5tYWU+Jw==

>  <s_epik_input>  (1006) 
Tz1bU0BdKFtDSDNdKWMxW2NIXVtjSF1jKFtjSF1bY0hdMSlbQ0gyXU4oW0NIM10pYyhuMiljKG5jKGMyMylbY0hdW2NIXVtjSF1bY0hdMylbTkhdW0NIMl1jNFtjSF1jKFtjSF1bY0hdW2NIXTQpW0NIMl1OKFtDSDNdKVtDSDNd

>  <s_i_glide_gridfile>  (1006) 
ATP-Grid

>  <s_lp_Force_Field>  (1006) 
OPLS_2005

>  <s_lp_Variant>  (1006) 
m_282030aaa____21915056____23157418____21940090-1

>  <s_lp_label>  (1006) 
797_sdstereoexpander_1_neutralizer_1_epik_1_stereoizer_1

>  <s_m_source_file>  (1006) 
ATP-VSW-LIGPREP-003-in.maegz

>  <s_sd_BIOSOLVEIT.INFINISEE\_QUERY\_NAME>  (1006) 
Ref-Lig

>  <s_sd_BIOSOLVEIT.INFINISEE\_QUERY\_SMILES>  (1006) 
S(c1nc2c(cc1C[NH2+]Cc3ccc(cc3)C[NH+](C)C)cccc2)Cc4ccccc4

>  <s_sd_BIOSOLVEIT.INFINISEE\_REACTION\_NAME>  (1006) 
m_282030aaa

>  <s_sd_BIOSOLVEIT.INFINISEE\_REAGENT1\_SMILES>  (1006) 
[R1*]N(Cc1ccc(S(=O)C)cc1)C

>  <s_sd_BIOSOLVEIT.INFINISEE\_REAGENT2\_SMILES>  (1006) 
[R1*]c1nc2c(nc1[R2*])cccc2

>  <s_sd_BIOSOLVEIT.INFINISEE\_REAGENT3\_SMILES>  (1006) 
[R2*]NCc1cc(ccc1)CN(C)C

>  <s_sd_BIOSOLVEIT.INFINISEE\_SPACE>  (1006) 
REALSpace_44bn_2023-08

>  <s_vsw_compound_code>  (1006) 
25475

>  <s_vsw_variant>  (1006) 
25475-1

>  <r_epik_Charging_Adjusted_Penalty>  (1006) 
0.088195370499548398

>  <r_epik_Ionization_Penalty>  (1006) 
0.044600000000000001

>  <r_epik_Ionization_Penalty_Charging>  (1006) 
0.0441

>  <r_epik_Ionization_Penalty_Neutral>  (1006) 
0.00050000000000000001

>  <r_epik_State_Penalty>  (1006) 
0.0441

>  <r_i_docking_score>  (1006) 
-4.6704824500530497

>  <r_i_glide_ecoul>  (1006) 
-11.3530359268188

>  <r_i_glide_eff_state_penalty>  (1006) 
0.0441

>  <r_i_glide_einternal>  (1006) 
1.2864308357238801

>  <r_i_glide_emodel>  (1006) 
-62.745902745575599

>  <r_i_glide_energy>  (1006) 
-45.203171730041497

>  <r_i_glide_erotb>  (1006) 
0.62878300454622704

>  <r_i_glide_esite>  (1006) 
-0.11368163483548401

>  <r_i_glide_evdw>  (1006) 
-33.850135803222699

>  <r_i_glide_gscore>  (1006) 
-4.71458245005305

>  <r_i_glide_hbond>  (1006) 
-0.46767345425940998

>  <r_i_glide_ligand_efficiency>  (1006) 
-0.137367130883913

>  <r_i_glide_ligand_efficiency_ln>  (1006) 
-1.0318405758120901

>  <r_i_glide_ligand_efficiency_sa>  (1006) 
-0.44501617779605801

>  <r_i_glide_lipo>  (1006) 
-1.03715352813914

>  <r_i_glide_metal>  (1006) 
-0

>  <r_i_glide_rewards>  (1006) 
-0.329394658181283

>  <r_lp_Energy>  (1006) 
28.587513999999999

>  <r_qp_ACxDN^.5/SA>  (1006) 
0.011455

>  <r_qp_CIQPlogS>  (1006) 
-5.4880000000000004

>  <r_qp_EA(eV)>  (1006) 
0.999

>  <r_qp_FISA>  (1006) 
56.549999999999997

>  <r_qp_FOSA>  (1006) 
320.82900000000001

>  <r_qp_IP(eV)>  (1006) 
8.4480000000000004

>  <r_qp_Jm>  (1006) 
1.0646707143440299

>  <r_qp_PISA>  (1006) 
386.21899999999999

>  <r_qp_PSA>  (1006) 
56.506999999999998

>  <r_qp_PercentHumanOralAbsorption>  (1006) 
79.549000000000007

>  <r_qp_QPPCaco>  (1006) 
28.611000000000001

>  <r_qp_QPPMDCK>  (1006) 
505.99700000000001

>  <r_qp_QPlogBB>  (1006) 
-0.105

>  <r_qp_QPlogHERG>  (1006) 
-7.2229999999999999

>  <r_qp_QPlogKhsa>  (1006) 
0.498

>  <r_qp_QPlogKp>  (1006) 
-2.3999999999999999

>  <r_qp_QPlogPC16>  (1006) 
15.651

>  <r_qp_QPlogPo/w>  (1006) 
4.532

>  <r_qp_QPlogPoct>  (1006) 
23.902000000000001

>  <r_qp_QPlogPw>  (1006) 
15.474

>  <r_qp_QPlogS>  (1006) 
-3.2490000000000001

>  <r_qp_QPpolrz>  (1006) 
51.829999999999998

>  <r_qp_SASA>  (1006) 
785.68499999999995

>  <r_qp_SAamideO>  (1006) 
0

>  <r_qp_SAfluorine>  (1006) 
0

>  <r_qp_WPSA>  (1006) 
22.085999999999999

>  <r_qp_accptHB>  (1006) 
9

>  <r_qp_dip^2/V>  (1006) 
0.029313100000000002

>  <r_qp_dipole>  (1006) 
6.633

>  <r_qp_donorHB>  (1006) 
1

>  <r_qp_glob>  (1006) 
0.80697390000000002

>  <r_qp_mol_MW>  (1006) 
473.63499999999999

>  <r_qp_volume>  (1006) 
1501.115

>  <r_sd_BIOSOLVEIT.INFINISEE\_FTREES\_SIMILARITY>  (1006) 
0.92300000000000004

>  <r_sd_BIOSOLVEIT.LOGP>  (1006) 
3.9108000000000001

>  <r_sd_BIOSOLVEIT.MOLECULAR\_WEIGHT>  (1006) 
474.649

>  <r_sd_BIOSOLVEIT.TPSA>  (1006) 
62.560000000000002

>  <i_epik_Tot_Q>  (1006) 
1

>  <i_epik_Tot_abs_Q>  (1006) 
1

>  <i_f3d_flags>  (1006) 
0

>  <i_i_glide_confnum>  (1006) 
6

>  <i_i_glide_lignum>  (1006) 
323

>  <i_i_glide_posenum>  (1006) 
12

>  <i_i_glide_rotatable_bonds>  (1006) 
9

>  <i_lp_mmshare_version>  (1006) 
65135

>  <i_m_ct_format>  (1006) 
2

>  <i_m_source_file_index>  (1006) 
797

>  <i_qp_#NandO>  (1006) 
6

>  <i_qp_#acid>  (1006) 
0

>  <i_qp_#amide>  (1006) 
0

>  <i_qp_#amidine>  (1006) 
0

>  <i_qp_#amine>  (1006) 
1

>  <i_qp_#in34>  (1006) 
0

>  <i_qp_#in56>  (1006) 
22

>  <i_qp_#metab>  (1006) 
5

>  <i_qp_#nonHatm>  (1006) 
34

>  <i_qp_#noncon>  (1006) 
0

>  <i_qp_#ringatoms>  (1006) 
22

>  <i_qp_#rotor>  (1006) 
9

>  <i_qp_#rtvFG>  (1006) 
0

>  <i_qp_#stars>  (1006) 
0

>  <i_qp_CNS>  (1006) 
1

>  <i_qp_HumanOralAbsorption>  (1006) 
2

>  <i_qp_RuleOfFive>  (1006) 
0

>  <i_qp_RuleOfThree>  (1006) 
0

>  <i_sd_BIOSOLVEIT.INFINISEE\_REAGENT1\_NAME>  (1006) 
21915056

>  <i_sd_BIOSOLVEIT.INFINISEE\_REAGENT2\_NAME>  (1006) 
23157418

>  <i_sd_BIOSOLVEIT.INFINISEE\_REAGENT3\_NAME>  (1006) 
21940090

>  <i_sd_BIOSOLVEIT.INFINISEE\_RESULT\_RANK>  (1006) 
11028

>  <i_sd_version>  (1006) 
0

>  <b_lp_Chiralities_Consistent>  (1006) 
1

>  <b_sd_chiral_flag>  (1006) 
0

>  <canonical_id>  (1006) 
ATP-HTVS-A10345D75118

>  <compound_code>  (1006) 
25475

>  <title>  (1006) 
m_282030aaa____21915056____23157418____21940090

>  <variant>  (1006) 
25475-1

>  <source_file>  (1006) 
运行/运行/ATP-VSW/ATP-VSW-DOCK_HTVS_1-003_lib/ATP-VSW-DOCK_HTVS_1-003_lib.mae

>  <canonical_smiles>  (1006) 
CN(Cc1ccc([S@@](C)=O)cc1)c1nc2ccccc2nc1NCc1cccc(C[NH+](C)C)c1

>  <scaffold>  (1006) 
c1ccc(CNc2nc3ccccc3nc2NCc2ccccc2)cc1

>  <molecular_formula>  (1006) 
C27H32N5OS+

$$$$
ATP-HTVS-A11F200701F2
     RDKit          3D

 64 67  0  0  0  0  0  0  0  0999 V2000
  196.6362  186.5124  160.6393 F   0  0  0  0  0  0  0  0  0  0  0  0
  196.7712  185.6243  159.6279 C   0  0  0  0  0  0  0  0  0  0  0  0
  196.1034  184.3897  159.6844 C   0  0  0  0  0  0  0  0  0  0  0  0
  196.1723  183.4830  158.6015 C   0  0  0  0  0  0  0  0  0  0  0  0
  196.9426  183.8184  157.4610 C   0  0  0  0  0  0  0  0  0  0  0  0
  197.6389  185.0484  157.4283 C   0  0  0  0  0  0  0  0  0  0  0  0
  197.5521  185.9490  158.5059 C   0  0  0  0  0  0  0  0  0  0  0  0
  197.0404  182.8886  156.2632 C   0  0  1  0  0  0  0  0  0  0  0  0
  197.9783  181.7946  156.4703 N   0  0  0  0  0  0  0  0  0  0  0  0
  198.2221  180.8466  155.4705 C   0  0  0  0  0  0  0  0  0  0  0  0
  197.5523  180.9587  154.3057 N   0  0  0  0  0  0  0  0  0  0  0  0
  197.7896  180.0970  153.3151 C   0  0  0  0  0  0  0  0  0  0  0  0
  198.6614  179.0895  153.4316 N   0  0  0  0  0  0  0  0  0  0  0  0
  199.3528  178.9199  154.5793 C   0  0  0  0  0  0  0  0  0  0  0  0
  199.1718  179.8197  155.6520 C   0  0  0  0  0  0  0  0  0  0  0  0
  199.9371  179.6563  156.8286 C   0  0  0  0  0  0  0  0  0  0  0  0
  200.8488  178.5896  156.9383 C   0  0  0  0  0  0  0  0  0  0  0  0
  201.0143  177.6877  155.8692 C   0  0  0  0  0  0  0  0  0  0  0  0
  200.2677  177.8580  154.6845 C   0  0  0  0  0  0  0  0  0  0  0  0
  197.1102  180.2239  152.1194 N   0  0  0  0  0  0  0  0  0  0  0  0
  196.2550  181.3528  151.7727 C   0  0  1  0  0  0  0  0  0  0  0  0
  197.0137  182.6293  151.4759 C   0  0  0  0  0  0  0  0  0  0  0  0
  197.0767  183.6348  152.4582 C   0  0  0  0  0  0  0  0  0  0  0  0
  197.7904  184.8173  152.2186 C   0  0  0  0  0  0  0  0  0  0  0  0
  198.4371  185.0260  150.9722 C   0  0  0  0  0  0  0  0  0  0  0  0
  199.1388  186.2065  150.6814 N   0  0  0  0  0  0  0  0  0  0  0  0
  199.4228  187.1445  151.7568 C   0  0  2  0  0  0  0  0  0  0  0  0
  198.3610  184.0188  149.9893 C   0  0  0  0  0  0  0  0  0  0  0  0
  197.6585  182.8214  150.2407 C   0  0  0  0  0  0  0  0  0  0  0  0
  195.3710  182.1883  158.6796 C   0  0  1  0  0  0  0  0  0  0  0  0
  193.9881  182.3034  158.1391 N   0  0  1  0  0  0  0  0  0  0  0  0
  193.2171  181.0494  158.2769 C   0  0  2  0  0  0  0  0  0  0  0  0
  193.2335  183.4834  158.6004 C   0  0  2  0  0  0  0  0  0  0  0  0
  195.4953  184.1630  160.5476 H   0  0  0  0  0  0  0  0  0  0  0  0
  198.2372  185.3117  156.5678 H   0  0  0  0  0  0  0  0  0  0  0  0
  198.0761  186.8917  158.4754 H   0  0  0  0  0  0  0  0  0  0  0  0
  196.0517  182.4935  156.0041 H   0  0  0  0  0  0  0  0  0  0  0  0
  197.3791  183.4804  155.4179 H   0  0  0  0  0  0  0  0  0  0  0  0
  198.2941  181.6029  157.4077 H   0  0  0  0  0  0  0  0  0  0  0  0
  199.8482  180.3363  157.6577 H   0  0  0  0  0  0  0  0  0  0  0  0
  201.4282  178.4597  157.8420 H   0  0  0  0  0  0  0  0  0  0  0  0
  201.7252  176.8771  155.9614 H   0  0  0  0  0  0  0  0  0  0  0  0
  200.4128  177.1628  153.8690 H   0  0  0  0  0  0  0  0  0  0  0  0
  197.4206  179.6385  151.3620 H   0  0  0  0  0  0  0  0  0  0  0  0
  195.6489  181.0830  150.9059 H   0  0  0  0  0  0  0  0  0  0  0  0
  195.5547  181.5481  152.5815 H   0  0  0  0  0  0  0  0  0  0  0  0
  196.5654  183.5041  153.3921 H   0  0  0  0  0  0  0  0  0  0  0  0
  197.7941  185.5424  153.0109 H   0  0  0  0  0  0  0  0  0  0  0  0
  199.6621  186.2842  149.8112 H   0  0  0  0  0  0  0  0  0  0  0  0
  200.0287  187.9885  151.4115 H   0  0  0  0  0  0  0  0  0  0  0  0
  199.9657  186.6452  152.5591 H   0  0  0  0  0  0  0  0  0  0  0  0
  198.4996  187.5471  152.1716 H   0  0  0  0  0  0  0  0  0  0  0  0
  198.8438  184.1561  149.0278 H   0  0  0  0  0  0  0  0  0  0  0  0
  197.6101  182.0497  149.4773 H   0  0  0  0  0  0  0  0  0  0  0  0
  195.8994  181.3967  158.1463 H   0  0  0  0  0  0  0  0  0  0  0  0
  195.3489  181.8789  159.7190 H   0  0  0  0  0  0  0  0  0  0  0  0
  193.0718  180.7927  159.3250 H   0  0  0  0  0  0  0  0  0  0  0  0
  193.7523  180.2296  157.7973 H   0  0  0  0  0  0  0  0  0  0  0  0
  192.2426  181.1320  157.8034 H   0  0  0  0  0  0  0  0  0  0  0  0
  193.1216  183.5054  159.6857 H   0  0  0  0  0  0  0  0  0  0  0  0
  192.2500  183.4543  158.1414 H   0  0  0  0  0  0  0  0  0  0  0  0
  193.7092  184.4220  158.3044 H   0  0  0  0  0  0  0  0  0  0  0  0
  198.8141  178.4252  152.6757 H   0  0  0  0  0  0  0  0  0  0  0  0
  194.0361  182.4579  157.1211 H   0  0  0  0  0  0  0  0  0  0  0  0
  1  2  1  0
  2  3  2  0
  2  7  1  0
  3  4  1  0
  3 34  1  0
  4  5  2  0
  4 30  1  0
  5  6  1  0
  5  8  1  0
  6  7  2  0
  6 35  1  0
  7 36  1  0
  8  9  1  0
  8 37  1  6
  8 38  1  0
  9 10  1  0
  9 39  1  0
 10 11  2  0
 10 15  1  0
 11 12  1  0
 12 13  2  0
 12 20  1  0
 13 14  1  0
 13 63  1  0
 14 15  1  0
 14 19  2  0
 15 16  2  0
 16 17  1  0
 16 40  1  0
 17 18  2  0
 17 41  1  0
 18 19  1  0
 18 42  1  0
 19 43  1  0
 20 21  1  0
 20 44  1  0
 21 22  1  0
 21 45  1  6
 21 46  1  0
 22 23  1  0
 22 29  2  0
 23 24  2  0
 23 47  1  0
 24 25  1  0
 24 48  1  0
 25 26  1  0
 25 28  2  0
 26 27  1  0
 26 49  1  0
 27 50  1  6
 27 51  1  0
 27 52  1  0
 28 29  1  0
 28 53  1  0
 29 54  1  0
 30 31  1  0
 30 55  1  6
 30 56  1  0
 31 32  1  0
 31 33  1  0
 31 64  1  6
 32 57  1  1
 32 58  1  0
 32 59  1  0
 33 60  1  1
 33 61  1  0
 33 62  1  0
M  CHG  2  13   1  31   1
M  END
>  <s_epik_cmdline>  (1007) 
J2VwaWtfcHl0aG9uJywgJy1waCcsICc3LjAwMDAwMCcsICctcGh0JywgJzIuMDAwMDAwJywgJy1tcycsICcxNicsICctdG4nLCAnOCcsICctbWEnLCAnMjAwJywgJy1pbWFlJywgJzxpbmZpbGUubWFlPicsICctb21hZScsICc8b3V0ZmlsZS5tYWU+Jw==

>  <s_epik_input>  (1007) 
RmMxW2NIXWMoW0NIMl1OKFtDSDNdKVtDSDNdKWMoW2NIXVtjSF0xKVtDSDJdW05IXWMoYyhjMjMpW2NIXVtjSF1bY0hdW2NIXTMpbmMobjIpW05IXVtDSDJdYzRbY0hdW2NIXWMoW05IXVtDSDNdKVtjSF1bY0hdNA==

>  <s_i_glide_gridfile>  (1007) 
ATP-Grid

>  <s_lp_Force_Field>  (1007) 
OPLS_2005

>  <s_lp_Variant>  (1007) 
m_282030aaa____21902366____22360182____21974936-1

>  <s_lp_label>  (1007) 
1617_sdstereoexpander_1_neutralizer_1_epik_1_stereoizer_1

>  <s_m_source_file>  (1007) 
ATP-VSW-LIGPREP-002-in.maegz

>  <s_sd_BIOSOLVEIT.INFINISEE\_QUERY\_NAME>  (1007) 
Ref-Lig

>  <s_sd_BIOSOLVEIT.INFINISEE\_QUERY\_SMILES>  (1007) 
S(c1nc2c(cc1C[NH2+]Cc3ccc(cc3)C[NH+](C)C)cccc2)Cc4ccccc4

>  <s_sd_BIOSOLVEIT.INFINISEE\_REACTION\_NAME>  (1007) 
m_282030aaa

>  <s_sd_BIOSOLVEIT.INFINISEE\_REAGENT1\_SMILES>  (1007) 
[R1*]NCc1ccc(NC)cc1

>  <s_sd_BIOSOLVEIT.INFINISEE\_REAGENT2\_SMILES>  (1007) 
[R2*]c1nc([R1*])c2c(n1)cccc2

>  <s_sd_BIOSOLVEIT.INFINISEE\_REAGENT3\_SMILES>  (1007) 
[R2*]NCc1c(cc(F)cc1)CN(C)C

>  <s_sd_BIOSOLVEIT.INFINISEE\_SPACE>  (1007) 
REALSpace_44bn_2023-08

>  <s_vsw_compound_code>  (1007) 
51714

>  <s_vsw_variant>  (1007) 
51714-1

>  <r_epik_Charging_Adjusted_Penalty>  (1007) 
0.147202612810994

>  <r_epik_Ionization_Penalty>  (1007) 
0.089800000000000005

>  <r_epik_Ionization_Penalty_Charging>  (1007) 
0.0613

>  <r_epik_Ionization_Penalty_Neutral>  (1007) 
0.0286

>  <r_epik_State_Penalty>  (1007) 
0.085900000000000004

>  <r_i_docking_score>  (1007) 
-4.5646727084426404

>  <r_i_glide_ecoul>  (1007) 
-10.3265085220337

>  <r_i_glide_eff_state_penalty>  (1007) 
0.085900000000000004

>  <r_i_glide_einternal>  (1007) 
3.0247595310211199

>  <r_i_glide_emodel>  (1007) 
-65.291011148377905

>  <r_i_glide_energy>  (1007) 
-45.284119606018102

>  <r_i_glide_erotb>  (1007) 
0.70265357449120003

>  <r_i_glide_esite>  (1007) 
-0.14049718604447101

>  <r_i_glide_evdw>  (1007) 
-34.957611083984403

>  <r_i_glide_gscore>  (1007) 
-4.65057270844264

>  <r_i_glide_hbond>  (1007) 
-0.20000000000000001

>  <r_i_glide_ligand_efficiency>  (1007) 
-0.13832341540735299

>  <r_i_glide_ligand_efficiency_ln>  (1007) 
-1.01515957574726

>  <r_i_glide_ligand_efficiency_sa>  (1007) 
-0.44367710304425101

>  <r_i_glide_lipo>  (1007) 
-1.1099144897687201

>  <r_i_glide_metal>  (1007) 
-0

>  <r_i_glide_rewards>  (1007) 
-0.60595777461638001

>  <r_lp_Energy>  (1007) 
21.10765

>  <r_qp_ACxDN^.5/SA>  (1007) 
0.0142022

>  <r_qp_CIQPlogS>  (1007) 
-5.9569999999999999

>  <r_qp_EA(eV)>  (1007) 
0.63100000000000001

>  <r_qp_FISA>  (1007) 
62.192999999999998

>  <r_qp_FOSA>  (1007) 
236.09999999999999

>  <r_qp_IP(eV)>  (1007) 
8.0449999999999999

>  <r_qp_Jm>  (1007) 
0.029381428732855899

>  <r_qp_PISA>  (1007) 
386.46699999999998

>  <r_qp_PSA>  (1007) 
60.581000000000003

>  <r_qp_PercentHumanOralAbsorption>  (1007) 
100

>  <r_qp_QPPCaco>  (1007) 
635.37099999999998

>  <r_qp_QPPMDCK>  (1007) 
606.30399999999997

>  <r_qp_QPlogBB>  (1007) 
-0.073999999999999996

>  <r_qp_QPlogHERG>  (1007) 
-6.9320000000000004

>  <r_qp_QPlogKhsa>  (1007) 
0.74199999999999999

>  <r_qp_QPlogKp>  (1007) 
-2.5030000000000001

>  <r_qp_QPlogPC16>  (1007) 
14.679

>  <r_qp_QPlogPo/w>  (1007) 
4.8780000000000001

>  <r_qp_QPlogPoct>  (1007) 
23.571999999999999

>  <r_qp_QPlogPw>  (1007) 
12.867000000000001

>  <r_qp_QPlogS>  (1007) 
-4.6769999999999996

>  <r_qp_QPpolrz>  (1007) 
47.579000000000001

>  <r_qp_SASA>  (1007) 
731.74099999999999

>  <r_qp_SAamideO>  (1007) 
0

>  <r_qp_SAfluorine>  (1007) 
46.981000000000002

>  <r_qp_WPSA>  (1007) 
46.981000000000002

>  <r_qp_accptHB>  (1007) 
6

>  <r_qp_dip^2/V>  (1007) 
0.0058582

>  <r_qp_dipole>  (1007) 
2.859

>  <r_qp_donorHB>  (1007) 
3

>  <r_qp_glob>  (1007) 
0.82506480000000004

>  <r_qp_mol_MW>  (1007) 
444.55399999999997

>  <r_qp_volume>  (1007) 
1394.829

>  <r_sd_BIOSOLVEIT.INFINISEE\_FTREES\_SIMILARITY>  (1007) 
0.90600000000000003

>  <r_sd_BIOSOLVEIT.LOGP>  (1007) 
3.6793

>  <r_sd_BIOSOLVEIT.MOLECULAR\_WEIGHT>  (1007) 
445.56299999999999

>  <r_sd_BIOSOLVEIT.TPSA>  (1007) 
66.310000000000002

>  <i_epik_Tot_Q>  (1007) 
2

>  <i_epik_Tot_abs_Q>  (1007) 
2

>  <i_f3d_flags>  (1007) 
0

>  <i_i_glide_confnum>  (1007) 
1

>  <i_i_glide_lignum>  (1007) 
568

>  <i_i_glide_posenum>  (1007) 
12

>  <i_i_glide_rotatable_bonds>  (1007) 
9

>  <i_lp_mmshare_version>  (1007) 
65135

>  <i_m_ct_format>  (1007) 
2

>  <i_m_source_file_index>  (1007) 
1617

>  <i_qp_#NandO>  (1007) 
6

>  <i_qp_#acid>  (1007) 
0

>  <i_qp_#amide>  (1007) 
0

>  <i_qp_#amidine>  (1007) 
0

>  <i_qp_#amine>  (1007) 
1

>  <i_qp_#in34>  (1007) 
0

>  <i_qp_#in56>  (1007) 
22

>  <i_qp_#metab>  (1007) 
6

>  <i_qp_#nonHatm>  (1007) 
33

>  <i_qp_#noncon>  (1007) 
0

>  <i_qp_#ringatoms>  (1007) 
22

>  <i_qp_#rotor>  (1007) 
9

>  <i_qp_#rtvFG>  (1007) 
0

>  <i_qp_#stars>  (1007) 
0

>  <i_qp_CNS>  (1007) 
0

>  <i_qp_HumanOralAbsorption>  (1007) 
3

>  <i_qp_RuleOfFive>  (1007) 
0

>  <i_qp_RuleOfThree>  (1007) 
0

>  <i_sd_BIOSOLVEIT.INFINISEE\_REAGENT1\_NAME>  (1007) 
21902366

>  <i_sd_BIOSOLVEIT.INFINISEE\_REAGENT2\_NAME>  (1007) 
22360182

>  <i_sd_BIOSOLVEIT.INFINISEE\_REAGENT3\_NAME>  (1007) 
21974936

>  <i_sd_BIOSOLVEIT.INFINISEE\_RESULT\_RANK>  (1007) 
66954

>  <i_sd_version>  (1007) 
0

>  <b_lp_Chiralities_Consistent>  (1007) 
1

>  <b_sd_chiral_flag>  (1007) 
0

>  <canonical_id>  (1007) 
ATP-HTVS-A11F200701F2

>  <compound_code>  (1007) 
51714

>  <title>  (1007) 
m_282030aaa____21902366____22360182____21974936

>  <variant>  (1007) 
51714-1

>  <source_file>  (1007) 
运行/运行/ATP-VSW/ATP-VSW-DOCK_HTVS_1-002_lib.maegz

>  <canonical_smiles>  (1007) 
CNc1ccc(CNc2nc(NCc3ccc(F)cc3C[NH+](C)C)c3ccccc3[nH+]2)cc1

>  <scaffold>  (1007) 
c1ccc(CNc2nc(NCc3ccccc3)c3ccccc3[nH+]2)cc1

>  <molecular_formula>  (1007) 
C26H31FN6+2

$$$$
ATP-HTVS-A12862845571
     RDKit          3D

 66 69  0  0  0  0  0  0  0  0999 V2000
  198.7997  180.8183  156.5288 N   0  0  0  0  0  0  0  0  0  0  0  0
  197.8511  181.1302  155.6164 C   0  0  0  0  0  0  0  0  0  0  0  0
  197.2408  182.3939  155.6863 N   0  0  0  0  0  0  0  0  0  0  0  0
  197.8797  183.5010  156.3870 C   0  0  1  0  0  0  0  0  0  0  0  0
  197.0354  184.1191  157.4855 C   0  0  0  0  0  0  0  0  0  0  0  0
  197.2885  185.4533  157.8683 C   0  0  0  0  0  0  0  0  0  0  0  0
  196.5373  186.0620  158.8956 C   0  0  0  0  0  0  0  0  0  0  0  0
  195.5232  185.3213  159.5464 C   0  0  0  0  0  0  0  0  0  0  0  0
  194.7578  185.8885  160.5635 N   0  0  0  0  0  0  0  0  0  0  0  0
  195.2708  183.9872  159.1668 C   0  0  0  0  0  0  0  0  0  0  0  0
  196.0286  183.3848  158.1433 C   0  0  0  0  0  0  0  0  0  0  0  0
  196.8271  187.5019  159.2836 C   0  0  2  0  0  0  0  0  0  0  0  0
  197.5238  180.2321  154.5735 C   0  0  0  0  0  0  0  0  0  0  0  0
  198.1487  179.0335  154.4592 N   0  0  0  0  0  0  0  0  0  0  0  0
  199.0969  178.7198  155.3697 C   0  0  0  0  0  0  0  0  0  0  0  0
  199.4299  179.6252  156.4200 C   0  0  0  0  0  0  0  0  0  0  0  0
  200.4606  179.2793  157.3191 C   0  0  0  0  0  0  0  0  0  0  0  0
  201.1434  178.0564  157.2021 C   0  0  0  0  0  0  0  0  0  0  0  0
  200.8132  177.1605  156.1722 C   0  0  0  0  0  0  0  0  0  0  0  0
  199.7933  177.4972  155.2616 C   0  0  0  0  0  0  0  0  0  0  0  0
  196.5749  180.5854  153.6026 N   0  0  0  0  0  0  0  0  0  0  0  0
  196.5766  179.9191  152.3069 C   0  0  1  0  0  0  0  0  0  0  0  0
  197.5151  180.6267  151.3230 C   0  0  1  0  0  0  0  0  0  0  0  0
  197.6897  179.8423  150.0436 C   0  0  0  0  0  0  0  0  0  0  0  0
  198.9829  179.4991  149.6209 C   0  0  0  0  0  0  0  0  0  0  0  0
  199.1688  178.7033  148.4592 C   0  0  0  0  0  0  0  0  0  0  0  0
  198.0533  178.2728  147.7202 C   0  0  0  0  0  0  0  0  0  0  0  0
  196.7513  178.6400  148.1431 C   0  0  0  0  0  0  0  0  0  0  0  0
  196.5636  179.4211  149.3035 C   0  0  0  0  0  0  0  0  0  0  0  0
  198.2683  177.4366  146.4580 C   0  0  1  0  0  0  0  0  0  0  0  0
  198.8938  178.1860  145.3391 N   0  0  1  0  0  0  0  0  0  0  0  0
  198.0651  179.3049  144.8392 C   0  0  2  0  0  0  0  0  0  0  0  0
  200.2927  178.6047  145.5825 C   0  0  2  0  0  0  0  0  0  0  0  0
  196.4126  182.5880  155.1362 H   0  0  0  0  0  0  0  0  0  0  0  0
  198.8427  183.2320  156.8288 H   0  0  0  0  0  0  0  0  0  0  0  0
  198.0990  184.2527  155.6367 H   0  0  0  0  0  0  0  0  0  0  0  0
  198.0701  186.0104  157.3697 H   0  0  0  0  0  0  0  0  0  0  0  0
  194.0395  185.3561  161.0307 H   0  0  0  0  0  0  0  0  0  0  0  0
  194.9304  186.8290  160.8878 H   0  0  0  0  0  0  0  0  0  0  0  0
  194.4939  183.4118  159.6506 H   0  0  0  0  0  0  0  0  0  0  0  0
  195.8224  182.3601  157.8805 H   0  0  0  0  0  0  0  0  0  0  0  0
  195.9485  188.1257  159.1137 H   0  0  0  0  0  0  0  0  0  0  0  0
  197.6494  187.9165  158.6998 H   0  0  0  0  0  0  0  0  0  0  0  0
  197.0988  187.5633  160.3383 H   0  0  0  0  0  0  0  0  0  0  0  0
  200.7383  179.9704  158.0997 H   0  0  0  0  0  0  0  0  0  0  0  0
  201.9379  177.8126  157.8963 H   0  0  0  0  0  0  0  0  0  0  0  0
  201.3472  176.2272  156.0721 H   0  0  0  0  0  0  0  0  0  0  0  0
  199.5506  176.8168  154.4573 H   0  0  0  0  0  0  0  0  0  0  0  0
  196.2334  181.5358  153.6215 H   0  0  0  0  0  0  0  0  0  0  0  0
  196.8491  178.8655  152.3990 H   0  0  0  0  0  0  0  0  0  0  0  0
  195.5531  179.9144  151.9219 H   0  0  0  0  0  0  0  0  0  0  0  0
  197.1452  181.6288  151.0972 H   0  0  0  0  0  0  0  0  0  0  0  0
  198.4915  180.7602  151.7978 H   0  0  0  0  0  0  0  0  0  0  0  0
  199.8541  179.8582  150.1586 H   0  0  0  0  0  0  0  0  0  0  0  0
  200.1611  178.4722  148.1095 H   0  0  0  0  0  0  0  0  0  0  0  0
  195.8832  178.3128  147.5828 H   0  0  0  0  0  0  0  0  0  0  0  0
  195.5660  179.6709  149.6263 H   0  0  0  0  0  0  0  0  0  0  0  0
  198.8699  176.5640  146.7164 H   0  0  0  0  0  0  0  0  0  0  0  0
  197.3104  177.0538  146.1284 H   0  0  0  0  0  0  0  0  0  0  0  0
  197.9496  180.0718  145.6039 H   0  0  0  0  0  0  0  0  0  0  0  0
  197.0727  178.9601  144.5413 H   0  0  0  0  0  0  0  0  0  0  0  0
  198.5244  179.7744  143.9670 H   0  0  0  0  0  0  0  0  0  0  0  0
  200.3518  179.3004  146.4463 H   0  0  0  0  0  0  0  0  0  0  0  0
  200.7459  179.0335  144.6676 H   0  0  0  0  0  0  0  0  0  0  0  0
  200.9014  177.7459  145.8586 H   0  0  0  0  0  0  0  0  0  0  0  0
  198.9503  177.5420  144.5616 H   0  0  0  0  0  0  0  0  0  0  0  0
  1  2  2  0
  1 16  1  0
  2  3  1  0
  2 13  1  0
  3  4  1  0
  3 34  1  0
  4  5  1  0
  4 35  1  1
  4 36  1  0
  5  6  2  0
  5 11  1  0
  6  7  1  0
  6 37  1  0
  7  8  2  0
  7 12  1  0
  8  9  1  0
  8 10  1  0
  9 38  1  0
  9 39  1  0
 10 11  2  0
 10 40  1  0
 11 41  1  0
 12 42  1  1
 12 43  1  0
 12 44  1  0
 13 14  2  0
 13 21  1  0
 14 15  1  0
 15 16  1  0
 15 20  2  0
 16 17  2  0
 17 18  1  0
 17 45  1  0
 18 19  2  0
 18 46  1  0
 19 20  1  0
 19 47  1  0
 20 48  1  0
 21 22  1  0
 21 49  1  0
 22 23  1  0
 22 50  1  1
 22 51  1  0
 23 24  1  0
 23 52  1  6
 23 53  1  0
 24 25  1  0
 24 29  2  0
 25 26  2  0
 25 54  1  0
 26 27  1  0
 26 55  1  0
 27 28  2  0
 27 30  1  0
 28 29  1  0
 28 56  1  0
 29 57  1  0
 30 31  1  0
 30 58  1  1
 30 59  1  0
 31 32  1  0
 31 33  1  0
 31 66  1  6
 32 60  1  1
 32 61  1  0
 32 62  1  0
 33 63  1  1
 33 64  1  0
 33 65  1  0
M  CHG  1  31   1
M  END
>  <s_epik_cmdline>  (1008) 
J2VwaWtfcHl0aG9uJywgJy1waCcsICc3LjAwMDAwMCcsICctcGh0JywgJzIuMDAwMDAwJywgJy1tcycsICcxNicsICctdG4nLCAnOCcsICctbWEnLCAnMjAwJywgJy1pbWFlJywgJzxpbmZpbGUubWFlPicsICctb21hZScsICc8b3V0ZmlsZS5tYWU+Jw==

>  <s_epik_input>  (1008) 
W2NIXTFbY0hdYyhbTkgyXSljKFtDSDNdKVtjSF1jMVtDSDJdW05IXWMobmMoYzIzKVtjSF1bY0hdW2NIXVtjSF0zKWMobjIpW05IXVtDSDJdW0NIMl1jNFtjSF1bY0hdYyhbY0hdW2NIXTQpW0NIMl1OKFtDSDNdKVtDSDNd

>  <s_i_glide_gridfile>  (1008) 
ATP-Grid

>  <s_lp_Force_Field>  (1008) 
OPLS_2005

>  <s_lp_Variant>  (1008) 
m_282030aaa____21926464____23157418____21941636-1

>  <s_lp_label>  (1008) 
1131_sdstereoexpander_1_neutralizer_1_epik_1_stereoizer_1

>  <s_m_source_file>  (1008) 
ATP-VSW-LIGPREP-002-in.maegz

>  <s_sd_BIOSOLVEIT.INFINISEE\_QUERY\_NAME>  (1008) 
Ref-Lig

>  <s_sd_BIOSOLVEIT.INFINISEE\_QUERY\_SMILES>  (1008) 
S(c1nc2c(cc1C[NH2+]Cc3ccc(cc3)C[NH+](C)C)cccc2)Cc4ccccc4

>  <s_sd_BIOSOLVEIT.INFINISEE\_REACTION\_NAME>  (1008) 
m_282030aaa

>  <s_sd_BIOSOLVEIT.INFINISEE\_REAGENT1\_SMILES>  (1008) 
[R1*]NCCc1ccc(cc1)CN(C)C

>  <s_sd_BIOSOLVEIT.INFINISEE\_REAGENT2\_SMILES>  (1008) 
[R1*]c1nc2c(nc1[R2*])cccc2

>  <s_sd_BIOSOLVEIT.INFINISEE\_REAGENT3\_SMILES>  (1008) 
[R2*]NCc1cc(c(N)cc1)C

>  <s_sd_BIOSOLVEIT.INFINISEE\_SPACE>  (1008) 
REALSpace_44bn_2023-08

>  <s_vsw_compound_code>  (1008) 
36162

>  <s_vsw_variant>  (1008) 
36162-1

>  <r_epik_Charging_Adjusted_Penalty>  (1008) 
0.091827087215800102

>  <r_epik_Ionization_Penalty>  (1008) 
0.051299999999999998

>  <r_epik_Ionization_Penalty_Charging>  (1008) 
0.041000000000000002

>  <r_epik_Ionization_Penalty_Neutral>  (1008) 
0.0103

>  <r_epik_State_Penalty>  (1008) 
0.050900000000000001

>  <r_i_docking_score>  (1008) 
-4.7765234933544001

>  <r_i_glide_ecoul>  (1008) 
-5.6083574295043901

>  <r_i_glide_eff_state_penalty>  (1008) 
0.050900000000000001

>  <r_i_glide_einternal>  (1008) 
3.6071140766143799

>  <r_i_glide_emodel>  (1008) 
-61.423105347067299

>  <r_i_glide_energy>  (1008) 
-45.627102851867697

>  <r_i_glide_erotb>  (1008) 
0.81952877097533405

>  <r_i_glide_esite>  (1008) 
-0.123733854679731

>  <r_i_glide_evdw>  (1008) 
-40.018745422363303

>  <r_i_glide_gscore>  (1008) 
-4.8274234933543996

>  <r_i_glide_hbond>  (1008) 
-0.20000000000000001

>  <r_i_glide_ligand_efficiency>  (1008) 
-0.14474313616225401

>  <r_i_glide_ligand_efficiency_ln>  (1008) 
-1.0622740934069701

>  <r_i_glide_ligand_efficiency_sa>  (1008) 
-0.464268577730585

>  <r_i_glide_lipo>  (1008) 
-1.8577851604698199

>  <r_i_glide_metal>  (1008) 
-0

>  <r_i_glide_rewards>  (1008) 
-0.62324236363636298

>  <r_lp_Energy>  (1008) 
28.675818

>  <r_qp_ACxDN^.5/SA>  (1008) 
0.0151235

>  <r_qp_CIQPlogS>  (1008) 
-5.8209999999999997

>  <r_qp_EA(eV)>  (1008) 
0.66100000000000003

>  <r_qp_FISA>  (1008) 
84.063000000000002

>  <r_qp_FOSA>  (1008) 
354.64999999999998

>  <r_qp_IP(eV)>  (1008) 
7.992

>  <r_qp_Jm>  (1008) 
0.013885857157289801

>  <r_qp_PISA>  (1008) 
303.50799999999998

>  <r_qp_PSA>  (1008) 
70.519999999999996

>  <r_qp_PercentHumanOralAbsorption>  (1008) 
100

>  <r_qp_QPPCaco>  (1008) 
394.12099999999998

>  <r_qp_QPPMDCK>  (1008) 
200.05600000000001

>  <r_qp_QPlogBB>  (1008) 
-0.46000000000000002

>  <r_qp_QPlogHERG>  (1008) 
-6.5

>  <r_qp_QPlogKhsa>  (1008) 
0.751

>  <r_qp_QPlogKp>  (1008) 
-3.1019999999999999

>  <r_qp_QPlogPC16>  (1008) 
14.978

>  <r_qp_QPlogPo/w>  (1008) 
4.5750000000000002

>  <r_qp_QPlogPoct>  (1008) 
24.398

>  <r_qp_QPlogPw>  (1008) 
12.972

>  <r_qp_QPlogS>  (1008) 
-4.399

>  <r_qp_QPpolrz>  (1008) 
47.579999999999998

>  <r_qp_SASA>  (1008) 
742.22199999999998

>  <r_qp_SAamideO>  (1008) 
0

>  <r_qp_SAfluorine>  (1008) 
0

>  <r_qp_WPSA>  (1008) 
0

>  <r_qp_accptHB>  (1008) 
6

>  <r_qp_dip^2/V>  (1008) 
0.032557900000000001

>  <r_qp_dipole>  (1008) 
6.8250000000000002

>  <r_qp_donorHB>  (1008) 
3.5

>  <r_qp_glob>  (1008) 
0.82729699999999995

>  <r_qp_mol_MW>  (1008) 
440.58999999999997

>  <r_qp_volume>  (1008) 
1430.6890000000001

>  <r_sd_BIOSOLVEIT.INFINISEE\_FTREES\_SIMILARITY>  (1008) 
0.91300000000000003

>  <r_sd_BIOSOLVEIT.LOGP>  (1008) 
3.4316200000000001

>  <r_sd_BIOSOLVEIT.MOLECULAR\_WEIGHT>  (1008) 
441.60000000000002

>  <r_sd_BIOSOLVEIT.TPSA>  (1008) 
80.299999999999997

>  <i_epik_Tot_Q>  (1008) 
1

>  <i_epik_Tot_abs_Q>  (1008) 
1

>  <i_f3d_flags>  (1008) 
0

>  <i_i_glide_confnum>  (1008) 
2

>  <i_i_glide_lignum>  (1008) 
380

>  <i_i_glide_posenum>  (1008) 
16

>  <i_i_glide_rotatable_bonds>  (1008) 
9

>  <i_lp_mmshare_version>  (1008) 
65135

>  <i_m_ct_format>  (1008) 
2

>  <i_m_source_file_index>  (1008) 
1131

>  <i_qp_#NandO>  (1008) 
6

>  <i_qp_#acid>  (1008) 
0

>  <i_qp_#amide>  (1008) 
0

>  <i_qp_#amidine>  (1008) 
0

>  <i_qp_#amine>  (1008) 
1

>  <i_qp_#in34>  (1008) 
0

>  <i_qp_#in56>  (1008) 
22

>  <i_qp_#metab>  (1008) 
7

>  <i_qp_#nonHatm>  (1008) 
33

>  <i_qp_#noncon>  (1008) 
0

>  <i_qp_#ringatoms>  (1008) 
22

>  <i_qp_#rotor>  (1008) 
10

>  <i_qp_#rtvFG>  (1008) 
0

>  <i_qp_#stars>  (1008) 
0

>  <i_qp_CNS>  (1008) 
0

>  <i_qp_HumanOralAbsorption>  (1008) 
3

>  <i_qp_RuleOfFive>  (1008) 
0

>  <i_qp_RuleOfThree>  (1008) 
1

>  <i_sd_BIOSOLVEIT.INFINISEE\_REAGENT1\_NAME>  (1008) 
21926464

>  <i_sd_BIOSOLVEIT.INFINISEE\_REAGENT2\_NAME>  (1008) 
23157418

>  <i_sd_BIOSOLVEIT.INFINISEE\_REAGENT3\_NAME>  (1008) 
21941636

>  <i_sd_BIOSOLVEIT.INFINISEE\_RESULT\_RANK>  (1008) 
35506

>  <i_sd_version>  (1008) 
0

>  <b_lp_Chiralities_Consistent>  (1008) 
1

>  <b_sd_chiral_flag>  (1008) 
0

>  <canonical_id>  (1008) 
ATP-HTVS-A12862845571

>  <compound_code>  (1008) 
36162

>  <title>  (1008) 
m_282030aaa____21926464____23157418____21941636

>  <variant>  (1008) 
36162-1

>  <source_file>  (1008) 
运行/运行/ATP-VSW/ATP-VSW-DOCK_HTVS_1-002_lib.maegz

>  <canonical_smiles>  (1008) 
Cc1cc(CNc2nc3ccccc3nc2NCCc2ccc(C[NH+](C)C)cc2)ccc1N

>  <scaffold>  (1008) 
c1ccc(CCNc2nc3ccccc3nc2NCc2ccccc2)cc1

>  <molecular_formula>  (1008) 
C27H33N6+

$$$$
ATP-HTVS-A1381500D8FF
     RDKit          3D

 55 58  0  0  0  0  0  0  0  0999 V2000
  194.7428  181.4321  159.3361 O   0  0  0  0  0  0  0  0  0  0  0  0
  195.2031  182.2269  158.5282 C   0  0  0  0  0  0  0  0  0  0  0  0
  196.0249  181.8385  157.5412 N   0  0  0  0  0  0  0  0  0  0  0  0
  196.6637  182.6751  156.5882 C   0  0  0  0  0  0  0  0  0  0  0  0
  197.2018  183.9437  156.9498 C   0  0  0  0  0  0  0  0  0  0  0  0
  197.8084  184.7386  155.9379 C   0  0  0  0  0  0  0  0  0  0  0  0
  197.8915  184.2899  154.6160 C   0  0  0  0  0  0  0  0  0  0  0  0
  197.3729  183.0323  154.2647 C   0  0  0  0  0  0  0  0  0  0  0  0
  196.7639  182.2278  155.2524 C   0  0  0  0  0  0  0  0  0  0  0  0
  197.1696  184.3991  158.4163 C   0  0  2  0  0  0  0  0  0  0  0  0
  195.8211  184.6927  158.9441 N   0  0  0  0  0  0  0  0  0  0  0  0
  195.8824  184.9177  160.3953 C   0  0  1  0  0  0  0  0  0  0  0  0
  194.9712  186.0411  160.8629 C   0  0  0  0  0  0  0  0  0  0  0  0
  193.5850  185.8453  160.9350 C   0  0  0  0  0  0  0  0  0  0  0  0
  192.7371  186.8438  161.4090 C   0  0  0  0  0  0  0  0  0  0  0  0
  193.2500  188.0701  161.8536 C   0  0  0  0  0  0  0  0  0  0  0  0
  192.4579  189.0884  162.3524 O   0  0  0  0  0  0  0  0  0  0  0  0
  191.2807  188.7171  163.0747 C   0  0  2  0  0  0  0  0  0  0  0  0
  190.3411  189.9206  163.1392 C   0  0  2  0  0  0  0  0  0  0  0  0
  191.7381  188.2458  164.4533 C   0  0  2  0  0  0  0  0  0  0  0  0
  194.6417  188.2981  161.7316 C   0  0  0  0  0  0  0  0  0  0  0  0
  195.5021  187.2844  161.2509 C   0  0  0  0  0  0  0  0  0  0  0  0
  194.7709  183.6863  158.6207 C   0  0  1  0  0  0  0  0  0  0  0  0
  198.1093  185.5886  158.6401 C   0  0  0  0  0  0  0  0  0  0  0  0
  199.4505  185.3817  159.0129 C   0  0  0  0  0  0  0  0  0  0  0  0
  200.3105  186.4852  159.1942 C   0  0  0  0  0  0  0  0  0  0  0  0
  199.8229  187.7985  159.0053 C   0  0  0  0  0  0  0  0  0  0  0  0
  198.4782  188.0120  158.6421 C   0  0  0  0  0  0  0  0  0  0  0  0
  197.6294  186.9078  158.4575 C   0  0  0  0  0  0  0  0  0  0  0  0
  196.0789  180.8261  157.4142 H   0  0  0  0  0  0  0  0  0  0  0  0
  198.2442  185.7067  156.1381 H   0  0  0  0  0  0  0  0  0  0  0  0
  198.3669  184.9255  153.8829 H   0  0  0  0  0  0  0  0  0  0  0  0
  197.4344  182.7013  153.2379 H   0  0  0  0  0  0  0  0  0  0  0  0
  196.3377  181.2773  154.9669 H   0  0  0  0  0  0  0  0  0  0  0  0
  197.5681  183.5648  159.0034 H   0  0  0  0  0  0  0  0  0  0  0  0
  195.6606  183.9931  160.9306 H   0  0  0  0  0  0  0  0  0  0  0  0
  196.8750  185.1808  160.7648 H   0  0  0  0  0  0  0  0  0  0  0  0
  193.1531  184.9077  160.6473 H   0  0  0  0  0  0  0  0  0  0  0  0
  191.6839  186.6278  161.3724 H   0  0  0  0  0  0  0  0  0  0  0  0
  190.6980  187.9366  162.5977 H   0  0  0  0  0  0  0  0  0  0  0  0
  189.4586  189.6706  163.7288 H   0  0  0  0  0  0  0  0  0  0  0  0
  189.9959  190.2015  162.1411 H   0  0  0  0  0  0  0  0  0  0  0  0
  190.8366  190.7755  163.5957 H   0  0  0  0  0  0  0  0  0  0  0  0
  190.8881  187.9727  165.0717 H   0  0  0  0  0  0  0  0  0  0  0  0
  192.3009  189.0347  164.9482 H   0  0  0  0  0  0  0  0  0  0  0  0
  192.3784  187.3690  164.3701 H   0  0  0  0  0  0  0  0  0  0  0  0
  195.0485  189.2542  162.0302 H   0  0  0  0  0  0  0  0  0  0  0  0
  196.5699  187.4691  161.2148 H   0  0  0  0  0  0  0  0  0  0  0  0
  194.2954  183.9432  157.6905 H   0  0  0  0  0  0  0  0  0  0  0  0
  193.9282  183.7086  159.2946 H   0  0  0  0  0  0  0  0  0  0  0  0
  199.8256  184.3774  159.1432 H   0  0  0  0  0  0  0  0  0  0  0  0
  201.3443  186.3268  159.4733 H   0  0  0  0  0  0  0  0  0  0  0  0
  200.4767  188.6481  159.1508 H   0  0  0  0  0  0  0  0  0  0  0  0
  198.0943  189.0152  158.4945 H   0  0  0  0  0  0  0  0  0  0  0  0
  196.6046  187.0716  158.1623 H   0  0  0  0  0  0  0  0  0  0  0  0
  1  2  2  0
  2  3  1  0
  2 23  1  0
  3  4  1  0
  3 30  1  0
  4  5  1  0
  4  9  2  0
  5  6  2  0
  5 10  1  0
  6  7  1  0
  6 31  1  0
  7  8  2  0
  7 32  1  0
  8  9  1  0
  8 33  1  0
  9 34  1  0
 10 11  1  0
 10 24  1  0
 10 35  1  1
 11 12  1  0
 11 23  1  0
 12 13  1  0
 12 36  1  1
 12 37  1  0
 13 14  1  0
 13 22  2  0
 14 15  2  0
 14 38  1  0
 15 16  1  0
 15 39  1  0
 16 17  1  0
 16 21  2  0
 17 18  1  0
 18 19  1  0
 18 20  1  0
 18 40  1  6
 19 41  1  1
 19 42  1  0
 19 43  1  0
 20 44  1  1
 20 45  1  0
 20 46  1  0
 21 22  1  0
 21 47  1  0
 22 48  1  0
 23 49  1  6
 23 50  1  0
 24 25  2  0
 24 29  1  0
 25 26  1  0
 25 51  1  0
 26 27  2  0
 26 52  1  0
 27 28  1  0
 27 53  1  0
 28 29  2  0
 28 54  1  0
 29 55  1  0
M  END
>  <s_epik_cmdline>  (1009) 
J2VwaWtfcHl0aG9uJywgJy1waCcsICc3LjAwMDAwMCcsICctcGh0JywgJzIuMDAwMDAwJywgJy1tcycsICcxNicsICctdG4nLCAnOCcsICctbWEnLCAnMjAwJywgJy1pbWFlJywgJzxpbmZpbGUubWFlPicsICctb21hZScsICc8b3V0ZmlsZS5tYWU+Jw==

>  <s_epik_input>  (1009) 
W2NIXTFbY0hdW2NIXVtjSF1bY0hdYzFbQ0BIXShjKGMyMylbY0hdW2NIXVtjSF1bY0hdMylOKFtDSDJdQyg9TylbTkhdMilbQ0gyXWM0W2NIXVtjSF1jKFtjSF1bY0hdNClPW0NIXShbQ0gzXSlbQ0gzXQ==

>  <s_i_glide_gridfile>  (1009) 
ATP-Grid

>  <s_lp_Force_Field>  (1009) 
OPLS_2005

>  <s_lp_Variant>  (1009) 
m_2230bdc____17849930____16809130-1

>  <s_lp_label>  (1009) 
904_sdstereoexpander_1_neutralizer_1_epik_1_stereoizer_1

>  <s_m_source_file>  (1009) 
ATP-VSW-LIGPREP-001-in.maegz

>  <s_sd_BIOSOLVEIT.INFINISEE\_QUERY\_NAME>  (1009) 
Ref-Lig

>  <s_sd_BIOSOLVEIT.INFINISEE\_QUERY\_SMILES>  (1009) 
S(c1nc2c(cc1C[NH2+]Cc3ccc(cc3)C[NH+](C)C)cccc2)Cc4ccccc4

>  <s_sd_BIOSOLVEIT.INFINISEE\_REACTION\_NAME>  (1009) 
m_2230bdc

>  <s_sd_BIOSOLVEIT.INFINISEE\_REAGENT1\_SMILES>  (1009) 
[R1*]N1C(c2c(NC(=O)C1)cccc2)c3ccccc3

>  <s_sd_BIOSOLVEIT.INFINISEE\_REAGENT2\_SMILES>  (1009) 
[R1*]Cc1ccc(OC(C)C)cc1

>  <s_sd_BIOSOLVEIT.INFINISEE\_SPACE>  (1009) 
REALSpace_44bn_2023-08

>  <s_vsw_compound_code>  (1009) 
28897

>  <s_vsw_variant>  (1009) 
28897-1

>  <r_epik_Charging_Adjusted_Penalty>  (1009) 
0.0087634984339075902

>  <r_epik_Ionization_Penalty>  (1009) 
0.0088000000000000005

>  <r_epik_Ionization_Penalty_Charging>  (1009) 
0

>  <r_epik_Ionization_Penalty_Neutral>  (1009) 
0.0088000000000000005

>  <r_epik_State_Penalty>  (1009) 
0.0088000000000000005

>  <r_i_docking_score>  (1009) 
-2.47390943571033

>  <r_i_glide_ecoul>  (1009) 
-2.7128002643585201

>  <r_i_glide_eff_state_penalty>  (1009) 
0.0088000000000000005

>  <r_i_glide_einternal>  (1009) 
8.6050500869750994

>  <r_i_glide_emodel>  (1009) 
-37.814146097415602

>  <r_i_glide_energy>  (1009) 
-36.545373201370197

>  <r_i_glide_erotb>  (1009) 
0.52122072972075095

>  <r_i_glide_esite>  (1009) 
-0.182755211598919

>  <r_i_glide_evdw>  (1009) 
-33.832572937011697

>  <r_i_glide_gscore>  (1009) 
-2.4827094357103299

>  <r_i_glide_hbond>  (1009) 
-0.16

>  <r_i_glide_ligand_efficiency>  (1009) 
-0.085307221921045895

>  <r_i_glide_ligand_efficiency_ln>  (1009) 
-0.56646252784712203

>  <r_i_glide_ligand_efficiency_sa>  (1009) 
-0.26209081296636699

>  <r_i_glide_lipo>  (1009) 
-1.6600793718554601

>  <r_i_glide_metal>  (1009) 
-0

>  <r_i_glide_rewards>  (1009) 
1.0974531045276701

>  <r_lp_Energy>  (1009) 
42.105522999999998

>  <r_lp_tautomer_probability>  (1009) 
1

>  <r_qp_ACxDN^.5/SA>  (1009) 
0.0074441999999999998

>  <r_qp_CIQPlogS>  (1009) 
-4.8739999999999997

>  <r_qp_EA(eV)>  (1009) 
0.32700000000000001

>  <r_qp_FISA>  (1009) 
60.012

>  <r_qp_FOSA>  (1009) 
219.68100000000001

>  <r_qp_IP(eV)>  (1009) 
8.9640000000000004

>  <r_qp_Jm>  (1009) 
0.0030033214254310001

>  <r_qp_PISA>  (1009) 
425.55500000000001

>  <r_qp_PSA>  (1009) 
47.283999999999999

>  <r_qp_PercentHumanOralAbsorption>  (1009) 
100

>  <r_qp_QPPCaco>  (1009) 
666.36199999999997

>  <r_qp_QPPMDCK>  (1009) 
352.92399999999998

>  <r_qp_QPlogBB>  (1009) 
0.105

>  <r_qp_QPlogHERG>  (1009) 
-7.4290000000000003

>  <r_qp_QPlogKhsa>  (1009) 
0.88

>  <r_qp_QPlogKp>  (1009) 
-2.8050000000000002

>  <r_qp_QPlogPC16>  (1009) 
13.731

>  <r_qp_QPlogPo/w>  (1009) 
4.6360000000000001

>  <r_qp_QPlogPoct>  (1009) 
19.742000000000001

>  <r_qp_QPlogPw>  (1009) 
10.473000000000001

>  <r_qp_QPlogS>  (1009) 
-5.3049999999999997

>  <r_qp_QPpolrz>  (1009) 
46.323999999999998

>  <r_qp_SASA>  (1009) 
705.24800000000005

>  <r_qp_SAamideO>  (1009) 
0

>  <r_qp_SAfluorine>  (1009) 
0

>  <r_qp_WPSA>  (1009) 
0

>  <r_qp_accptHB>  (1009) 
5.25

>  <r_qp_dip^2/V>  (1009) 
0.010631699999999999

>  <r_qp_dipole>  (1009) 
3.6800000000000002

>  <r_qp_donorHB>  (1009) 
1

>  <r_qp_glob>  (1009) 
0.80584529999999999

>  <r_qp_mol_MW>  (1009) 
386.49299999999999

>  <r_qp_volume>  (1009) 
1273.921

>  <r_sd_BIOSOLVEIT.INFINISEE\_FTREES\_SIMILARITY>  (1009) 
0.91900000000000004

>  <r_sd_BIOSOLVEIT.LOGP>  (1009) 
3.6004

>  <r_sd_BIOSOLVEIT.MOLECULAR\_WEIGHT>  (1009) 
387.5

>  <r_sd_BIOSOLVEIT.TPSA>  (1009) 
42.770000000000003

>  <i_epik_Tot_Q>  (1009) 
0

>  <i_epik_Tot_abs_Q>  (1009) 
0

>  <i_f3d_flags>  (1009) 
0

>  <i_i_glide_confnum>  (1009) 
6

>  <i_i_glide_lignum>  (1009) 
161

>  <i_i_glide_posenum>  (1009) 
8

>  <i_i_glide_rotatable_bonds>  (1009) 
5

>  <i_lp_mmshare_version>  (1009) 
65135

>  <i_m_ct_format>  (1009) 
2

>  <i_m_source_file_index>  (1009) 
904

>  <i_qp_#NandO>  (1009) 
4

>  <i_qp_#acid>  (1009) 
0

>  <i_qp_#amide>  (1009) 
0

>  <i_qp_#amidine>  (1009) 
0

>  <i_qp_#amine>  (1009) 
1

>  <i_qp_#in34>  (1009) 
0

>  <i_qp_#in56>  (1009) 
18

>  <i_qp_#metab>  (1009) 
8

>  <i_qp_#nonHatm>  (1009) 
29

>  <i_qp_#noncon>  (1009) 
2

>  <i_qp_#ringatoms>  (1009) 
23

>  <i_qp_#rotor>  (1009) 
4

>  <i_qp_#rtvFG>  (1009) 
0

>  <i_qp_#stars>  (1009) 
0

>  <i_qp_CNS>  (1009) 
1

>  <i_qp_HumanOralAbsorption>  (1009) 
3

>  <i_qp_RuleOfFive>  (1009) 
0

>  <i_qp_RuleOfThree>  (1009) 
1

>  <i_sd_BIOSOLVEIT.INFINISEE\_REAGENT1\_NAME>  (1009) 
17849930

>  <i_sd_BIOSOLVEIT.INFINISEE\_REAGENT2\_NAME>  (1009) 
16809130

>  <i_sd_BIOSOLVEIT.INFINISEE\_RESULT\_RANK>  (1009) 
19069

>  <i_sd_version>  (1009) 
0

>  <b_lp_Chiralities_Consistent>  (1009) 
1

>  <b_sd_chiral_flag>  (1009) 
0

>  <canonical_id>  (1009) 
ATP-HTVS-A1381500D8FF

>  <compound_code>  (1009) 
28897

>  <title>  (1009) 
m_2230bdc____17849930____16809130

>  <variant>  (1009) 
28897-1

>  <source_file>  (1009) 
运行/运行/ATP-VSW/ATP-VSW-DOCK_HTVS_1-001_lib/ATP-VSW-DOCK_HTVS_1-001_lib

>  <canonical_smiles>  (1009) 
CC(C)Oc1ccc(CN2CC(=O)Nc3ccccc3[C@H]2c2ccccc2)cc1

>  <scaffold>  (1009) 
O=C1CN(Cc2ccccc2)C(c2ccccc2)c2ccccc2N1

>  <molecular_formula>  (1009) 
C25H26N2O2

$$$$
ATP-HTVS-A1F737581FBF
     RDKit          3D

 50 53  0  0  0  0  0  0  0  0999 V2000
  197.9169  182.0583  154.2695 N   0  0  0  0  0  0  0  0  0  0  0  0
  197.8747  183.4152  154.5209 C   0  0  0  0  0  0  0  0  0  0  0  0
  197.7197  183.6799  155.9146 C   0  0  0  0  0  0  0  0  0  0  0  0
  197.6214  182.4141  156.5082 N   0  0  0  0  0  0  0  0  0  0  0  0
  197.7573  181.5285  155.4823 C   0  0  0  0  0  0  0  0  0  0  0  0
  197.7789  180.0422  155.6684 C   0  0  1  0  0  0  0  0  0  0  0  0
  199.1859  179.4734  155.8839 C   0  0  1  0  0  0  0  0  0  0  0  0
  199.1501  178.0175  156.1346 N   0  0  1  0  0  0  0  0  0  0  0  0
  200.4724  177.4112  156.4058 C   0  0  1  0  0  0  0  0  0  0  0  0
  200.8440  176.3847  155.3497 C   0  0  0  0  0  0  0  0  0  0  0  0
  201.2970  175.1035  155.7321 C   0  0  0  0  0  0  0  0  0  0  0  0
  201.6452  174.1537  154.7543 C   0  0  0  0  0  0  0  0  0  0  0  0
  201.5434  174.4774  153.3873 C   0  0  0  0  0  0  0  0  0  0  0  0
  201.0940  175.7535  153.0018 C   0  0  0  0  0  0  0  0  0  0  0  0
  200.7514  176.7070  153.9770 C   0  0  0  0  0  0  0  0  0  0  0  0
  197.4955  182.1372  157.9455 C   0  0  1  0  0  0  0  0  0  0  0  0
  196.4349  182.9789  158.6235 C   0  0  0  0  0  0  0  0  0  0  0  0
  196.8017  184.0533  159.4616 C   0  0  0  0  0  0  0  0  0  0  0  0
  195.8091  184.8901  160.0059 C   0  0  0  0  0  0  0  0  0  0  0  0
  194.4495  184.6279  159.7470 C   0  0  0  0  0  0  0  0  0  0  0  0
  194.0830  183.5319  158.9388 C   0  0  0  0  0  0  0  0  0  0  0  0
  195.0737  182.7039  158.3856 C   0  0  0  0  0  0  0  0  0  0  0  0
  197.7077  185.0056  156.4003 C   0  0  0  0  0  0  0  0  0  0  0  0
  197.8028  186.0797  155.4982 C   0  0  0  0  0  0  0  0  0  0  0  0
  197.9375  185.8376  154.1175 C   0  0  0  0  0  0  0  0  0  0  0  0
  197.9772  184.5132  153.6303 C   0  0  0  0  0  0  0  0  0  0  0  0
  198.5241  177.8372  156.9223 H   0  0  0  0  0  0  0  0  0  0  0  0
  197.1526  179.7838  156.5153 H   0  0  0  0  0  0  0  0  0  0  0  0
  197.3174  179.5750  154.7971 H   0  0  0  0  0  0  0  0  0  0  0  0
  199.8067  179.6776  155.0081 H   0  0  0  0  0  0  0  0  0  0  0  0
  199.6562  179.9634  156.7388 H   0  0  0  0  0  0  0  0  0  0  0  0
  201.2759  178.1566  156.4666 H   0  0  0  0  0  0  0  0  0  0  0  0
  200.4179  176.9438  157.3886 H   0  0  0  0  0  0  0  0  0  0  0  0
  201.3894  174.8467  156.7776 H   0  0  0  0  0  0  0  0  0  0  0  0
  202.0003  173.1759  155.0445 H   0  0  0  0  0  0  0  0  0  0  0  0
  201.8124  173.7477  152.6392 H   0  0  0  0  0  0  0  0  0  0  0  0
  201.0214  176.0065  151.9545 H   0  0  0  0  0  0  0  0  0  0  0  0
  200.4224  177.6856  153.6588 H   0  0  0  0  0  0  0  0  0  0  0  0
  197.2342  181.0938  158.1427 H   0  0  0  0  0  0  0  0  0  0  0  0
  198.4671  182.3284  158.4000 H   0  0  0  0  0  0  0  0  0  0  0  0
  197.8431  184.2721  159.6433 H   0  0  0  0  0  0  0  0  0  0  0  0
  196.0963  185.7562  160.5857 H   0  0  0  0  0  0  0  0  0  0  0  0
  193.6861  185.2771  160.1482 H   0  0  0  0  0  0  0  0  0  0  0  0
  193.0435  183.3358  158.7282 H   0  0  0  0  0  0  0  0  0  0  0  0
  194.7930  181.8908  157.7302 H   0  0  0  0  0  0  0  0  0  0  0  0
  197.6143  185.2405  157.4498 H   0  0  0  0  0  0  0  0  0  0  0  0
  197.7431  187.0896  155.8751 H   0  0  0  0  0  0  0  0  0  0  0  0
  197.9886  186.6770  153.4370 H   0  0  0  0  0  0  0  0  0  0  0  0
  198.0730  184.3308  152.5674 H   0  0  0  0  0  0  0  0  0  0  0  0
  198.7539  177.5446  155.3380 H   0  0  0  0  0  0  0  0  0  0  0  0
  1  2  1  0
  1  5  2  0
  2  3  1  0
  2 26  2  0
  3  4  1  0
  3 23  2  0
  4  5  1  0
  4 16  1  0
  5  6  1  0
  6  7  1  0
  6 28  1  1
  6 29  1  0
  7  8  1  0
  7 30  1  6
  7 31  1  0
  8  9  1  0
  8 27  1  1
  8 50  1  0
  9 10  1  0
  9 32  1  1
  9 33  1  0
 10 11  2  0
 10 15  1  0
 11 12  1  0
 11 34  1  0
 12 13  2  0
 12 35  1  0
 13 14  1  0
 13 36  1  0
 14 15  2  0
 14 37  1  0
 15 38  1  0
 16 17  1  0
 16 39  1  6
 16 40  1  0
 17 18  2  0
 17 22  1  0
 18 19  1  0
 18 41  1  0
 19 20  2  0
 19 42  1  0
 20 21  1  0
 20 43  1  0
 21 22  2  0
 21 44  1  0
 22 45  1  0
 23 24  1  0
 23 46  1  0
 24 25  2  0
 24 47  1  0
 25 26  1  0
 25 48  1  0
 26 49  1  0
M  CHG  1   8   1
M  END
>  <s_epik_cmdline>  (1010) 
J2VwaWtfcHl0aG9uJywgJy1waCcsICc3LjAwMDAwMCcsICctcGh0JywgJzIuMDAwMDAwJywgJy1tcycsICcxNicsICctdG4nLCAnOCcsICctbWEnLCAnMjAwJywgJy1pbWFlJywgJzxpbmZpbGUubWFlPicsICctb21hZScsICc8b3V0ZmlsZS5tYWU+Jw==

>  <s_epik_input>  (1010) 
W2NIXTFbY0hdW2NIXVtjSF1bY0hdYzFbQ0gyXW4oYyhjMjMpW2NIXVtjSF1bY0hdW2NIXTMpYyhuMilbQ0gyXVtDSDJdW05IXVtDSDJdYzRbY0hdW2NIXVtjSF1bY0hdW2NIXTQ=

>  <s_i_glide_gridfile>  (1010) 
ATP-Grid

>  <s_lp_Force_Field>  (1010) 
OPLS_2005

>  <s_lp_Variant>  (1010) 
rxn305____EMOL17003114____EMOL6199905-1

>  <s_lp_label>  (1010) 
2643_sdstereoexpander_1_neutralizer_1_epik_1_stereoizer_1

>  <s_m_source_file>  (1010) 
ATP-VSW-LIGPREP-003-in.maegz

>  <s_sd_BIOSOLVEIT.INFINISEE\_QUERY\_NAME>  (1010) 
Ref-Lig

>  <s_sd_BIOSOLVEIT.INFINISEE\_QUERY\_SMILES>  (1010) 
S(c1nc2c(cc1C[NH2+]Cc3ccc(cc3)C[NH+](C)C)cccc2)Cc4ccccc4

>  <s_sd_BIOSOLVEIT.INFINISEE\_REACTION\_NAME>  (1010) 
rxn305

>  <s_sd_BIOSOLVEIT.INFINISEE\_REAGENT1\_NAME>  (1010) 
EMOL17003114

>  <s_sd_BIOSOLVEIT.INFINISEE\_REAGENT1\_SMILES>  (1010) 
n1cc(N)c(NCc2ccccc2)cc1

>  <s_sd_BIOSOLVEIT.INFINISEE\_REAGENT2\_NAME>  (1010) 
EMOL6199905

>  <s_sd_BIOSOLVEIT.INFINISEE\_REAGENT2\_SMILES>  (1010) 
O=C(OC)CCNCc1ccccc1

>  <s_sd_BIOSOLVEIT.INFINISEE\_SPACE>  (1010) 
eXplore_7tr_2022-12

>  <s_vsw_compound_code>  (1010) 
84547

>  <s_vsw_variant>  (1010) 
84547-1

>  <r_epik_Charging_Adjusted_Penalty>  (1010) 
0.11283814422074499

>  <r_epik_Ionization_Penalty>  (1010) 
0.065799999999999997

>  <r_epik_Ionization_Penalty_Charging>  (1010) 
0.045900000000000003

>  <r_epik_Ionization_Penalty_Neutral>  (1010) 
0.019900000000000001

>  <r_epik_State_Penalty>  (1010) 
0.066900000000000001

>  <r_i_docking_score>  (1010) 
-5.0924819526804699

>  <r_i_glide_ecoul>  (1010) 
-10.371121406555201

>  <r_i_glide_eff_state_penalty>  (1010) 
0.066900000000000001

>  <r_i_glide_einternal>  (1010) 
5.0696792602539098

>  <r_i_glide_emodel>  (1010) 
-57.440692238794597

>  <r_i_glide_energy>  (1010) 
-41.089312553405797

>  <r_i_glide_erotb>  (1010) 
0.97015417389445302

>  <r_i_glide_esite>  (1010) 
-0.15722680282179

>  <r_i_glide_evdw>  (1010) 
-30.7181911468506

>  <r_i_glide_gscore>  (1010) 
-5.1593819526804703

>  <r_i_glide_hbond>  (1010) 
-0.20000000000000001

>  <r_i_glide_ligand_efficiency>  (1010) 
-0.19586469048770999

>  <r_i_glide_ligand_efficiency_ln>  (1010) 
-1.19595267679081

>  <r_i_glide_ligand_efficiency_sa>  (1010) 
-0.58024837487949998

>  <r_i_glide_lipo>  (1010) 
-1.60657310088188

>  <r_i_glide_metal>  (1010) 
-0

>  <r_i_glide_rewards>  (1010) 
-1.0741584545454499

>  <r_lp_Energy>  (1010) 
11.485465

>  <r_qp_ACxDN^.5/SA>  (1010) 
0.0050385999999999998

>  <r_qp_CIQPlogS>  (1010) 
-5.1529999999999996

>  <r_qp_EA(eV)>  (1010) 
0.104

>  <r_qp_FISA>  (1010) 
35.706000000000003

>  <r_qp_FOSA>  (1010) 
118.708

>  <r_qp_IP(eV)>  (1010) 
8.6159999999999997

>  <r_qp_Jm>  (1010) 
0.70222807575503199

>  <r_qp_PISA>  (1010) 
440.98899999999998

>  <r_qp_PSA>  (1010) 
29.972999999999999

>  <r_qp_PercentHumanOralAbsorption>  (1010) 
100

>  <r_qp_QPPCaco>  (1010) 
1132.9290000000001

>  <r_qp_QPPMDCK>  (1010) 
626.34900000000005

>  <r_qp_QPlogBB>  (1010) 
0.22700000000000001

>  <r_qp_QPlogHERG>  (1010) 
-6.4420000000000002

>  <r_qp_QPlogKhsa>  (1010) 
0.77800000000000002

>  <r_qp_QPlogKp>  (1010) 
-2.0150000000000001

>  <r_qp_QPlogPC16>  (1010) 
12.193

>  <r_qp_QPlogPo/w>  (1010) 
4.7489999999999997

>  <r_qp_QPlogPoct>  (1010) 
15.634

>  <r_qp_QPlogPw>  (1010) 
7.2699999999999996

>  <r_qp_QPlogS>  (1010) 
-3.6720000000000002

>  <r_qp_QPpolrz>  (1010) 
38.031999999999996

>  <r_qp_SASA>  (1010) 
595.40300000000002

>  <r_qp_SAamideO>  (1010) 
0

>  <r_qp_SAfluorine>  (1010) 
0

>  <r_qp_WPSA>  (1010) 
0

>  <r_qp_accptHB>  (1010) 
3

>  <r_qp_dip^2/V>  (1010) 
0.0114576

>  <r_qp_dipole>  (1010) 
3.5680000000000001

>  <r_qp_donorHB>  (1010) 
1

>  <r_qp_glob>  (1010) 
0.87138550000000004

>  <r_qp_mol_MW>  (1010) 
341.45499999999998

>  <r_qp_volume>  (1010) 
1111.1790000000001

>  <r_sd_BIOSOLVEIT.INFINISEE\_FTREES\_SIMILARITY>  (1010) 
0.91000000000000003

>  <r_sd_BIOSOLVEIT.LOGP>  (1010) 
3.3906999999999998

>  <r_sd_BIOSOLVEIT.MOLECULAR\_WEIGHT>  (1010) 
342.464

>  <r_sd_BIOSOLVEIT.TPSA>  (1010) 
34.43

>  <i_epik_Tot_Q>  (1010) 
1

>  <i_epik_Tot_abs_Q>  (1010) 
1

>  <i_f3d_flags>  (1010) 
0

>  <i_i_glide_confnum>  (1010) 
5

>  <i_i_glide_lignum>  (1010) 
1219

>  <i_i_glide_posenum>  (1010) 
20

>  <i_i_glide_rotatable_bonds>  (1010) 
7

>  <i_lp_mmshare_version>  (1010) 
65135

>  <i_m_ct_format>  (1010) 
2

>  <i_m_source_file_index>  (1010) 
2643

>  <i_qp_#NandO>  (1010) 
3

>  <i_qp_#acid>  (1010) 
0

>  <i_qp_#amide>  (1010) 
0

>  <i_qp_#amidine>  (1010) 
0

>  <i_qp_#amine>  (1010) 
1

>  <i_qp_#in34>  (1010) 
0

>  <i_qp_#in56>  (1010) 
21

>  <i_qp_#metab>  (1010) 
4

>  <i_qp_#nonHatm>  (1010) 
26

>  <i_qp_#noncon>  (1010) 
0

>  <i_qp_#ringatoms>  (1010) 
21

>  <i_qp_#rotor>  (1010) 
7

>  <i_qp_#rtvFG>  (1010) 
0

>  <i_qp_#stars>  (1010) 
0

>  <i_qp_CNS>  (1010) 
1

>  <i_qp_HumanOralAbsorption>  (1010) 
3

>  <i_qp_RuleOfFive>  (1010) 
0

>  <i_qp_RuleOfThree>  (1010) 
0

>  <i_sd_BIOSOLVEIT.INFINISEE\_RESULT\_RANK>  (1010) 
45460

>  <i_sd_version>  (1010) 
0

>  <b_lp_Chiralities_Consistent>  (1010) 
1

>  <b_sd_chiral_flag>  (1010) 
0

>  <canonical_id>  (1010) 
ATP-HTVS-A1F737581FBF

>  <compound_code>  (1010) 
84547

>  <title>  (1010) 
rxn305____EMOL17003114____EMOL6199905

>  <variant>  (1010) 
84547-1

>  <source_file>  (1010) 
运行/运行/ATP-VSW/ATP-VSW-DOCK_HTVS_1-003_lib/ATP-VSW-DOCK_HTVS_1-003_lib.mae

>  <canonical_smiles>  (1010) 
c1ccc(C[NH2+]CCc2nc3ccccc3n2Cc2ccccc2)cc1

>  <scaffold>  (1010) 
c1ccc(C[NH2+]CCc2nc3ccccc3n2Cc2ccccc2)cc1

>  <molecular_formula>  (1010) 
C23H24N3+

$$$$
ATP-HTVS-A20FC30C18FA
     RDKit          3D

 61 64  0  0  0  0  0  0  0  0999 V2000
  201.2144  180.5417  148.4205 F   0  0  0  0  0  0  0  0  0  0  0  0
  200.4029  179.7421  147.6836 C   0  0  0  0  0  0  0  0  0  0  0  0
  199.6022  178.7668  148.3159 C   0  0  0  0  0  0  0  0  0  0  0  0
  198.7561  177.9437  147.5336 C   0  0  0  0  0  0  0  0  0  0  0  0
  197.9468  176.9718  148.1216 N   0  0  0  0  0  0  0  0  0  0  0  0
  198.7274  178.1035  146.1321 C   0  0  0  0  0  0  0  0  0  0  0  0
  199.5268  179.0773  145.5084 C   0  0  0  0  0  0  0  0  0  0  0  0
  200.3663  179.9001  146.2850 C   0  0  0  0  0  0  0  0  0  0  0  0
  199.6497  178.6233  149.8293 C   0  0  1  0  0  0  0  0  0  0  0  0
  200.4593  177.5051  150.2942 N   0  0  0  0  0  0  0  0  0  0  0  0
  200.6354  177.2088  151.6331 C   0  0  0  0  0  0  0  0  0  0  0  0
  200.1207  178.0267  152.5551 N   0  0  0  0  0  0  0  0  0  0  0  0
  200.2583  177.7459  153.8664 C   0  0  0  0  0  0  0  0  0  0  0  0
  199.7212  178.6504  154.8018 N   0  0  0  0  0  0  0  0  0  0  0  0
  199.0723  179.8840  154.3760 C   0  0  1  0  0  0  0  0  0  0  0  0
  199.0109  180.9491  155.4528 C   0  0  0  0  0  0  0  0  0  0  0  0
  197.7754  181.5270  155.8091 C   0  0  0  0  0  0  0  0  0  0  0  0
  197.7256  182.5522  156.7754 C   0  0  0  0  0  0  0  0  0  0  0  0
  198.9143  182.9975  157.3896 C   0  0  0  0  0  0  0  0  0  0  0  0
  200.1478  182.4209  157.0381 C   0  0  0  0  0  0  0  0  0  0  0  0
  200.1973  181.3958  156.0737 C   0  0  0  0  0  0  0  0  0  0  0  0
  196.3926  183.1645  157.1633 C   0  0  1  0  0  0  0  0  0  0  0  0
  195.5307  182.2701  157.9797 N   0  0  1  0  0  0  0  0  0  0  0  0
  196.2507  181.5464  159.0482 C   0  0  2  0  0  0  0  0  0  0  0  0
  194.3488  182.9791  158.5174 C   0  0  2  0  0  0  0  0  0  0  0  0
  200.9401  176.5807  154.2710 C   0  0  0  0  0  0  0  0  0  0  0  0
  201.4785  175.7632  153.2499 C   0  0  0  0  0  0  0  0  0  0  0  0
  201.3109  176.1016  151.9541 N   0  0  0  0  0  0  0  0  0  0  0  0
  202.1863  174.5893  153.5703 C   0  0  0  0  0  0  0  0  0  0  0  0
  202.3602  174.2225  154.9192 C   0  0  0  0  0  0  0  0  0  0  0  0
  201.8367  175.0407  155.9400 C   0  0  0  0  0  0  0  0  0  0  0  0
  201.1220  176.2129  155.6226 C   0  0  0  0  0  0  0  0  0  0  0  0
  197.2560  176.4905  147.5484 H   0  0  0  0  0  0  0  0  0  0  0  0
  197.7579  176.9677  149.1112 H   0  0  0  0  0  0  0  0  0  0  0  0
  198.0943  177.4789  145.5190 H   0  0  0  0  0  0  0  0  0  0  0  0
  199.5018  179.1800  144.4311 H   0  0  0  0  0  0  0  0  0  0  0  0
  200.9781  180.6497  145.8072 H   0  0  0  0  0  0  0  0  0  0  0  0
  200.0336  179.5496  150.2560 H   0  0  0  0  0  0  0  0  0  0  0  0
  198.6379  178.5059  150.2191 H   0  0  0  0  0  0  0  0  0  0  0  0
  200.7591  176.8235  149.6125 H   0  0  0  0  0  0  0  0  0  0  0  0
  199.6469  178.3933  155.7748 H   0  0  0  0  0  0  0  0  0  0  0  0
  199.5988  180.3304  153.5341 H   0  0  0  0  0  0  0  0  0  0  0  0
  198.0684  179.6420  154.0306 H   0  0  0  0  0  0  0  0  0  0  0  0
  196.8625  181.1874  155.3409 H   0  0  0  0  0  0  0  0  0  0  0  0
  198.8864  183.7736  158.1384 H   0  0  0  0  0  0  0  0  0  0  0  0
  201.0555  182.7674  157.5099 H   0  0  0  0  0  0  0  0  0  0  0  0
  201.1503  180.9682  155.7955 H   0  0  0  0  0  0  0  0  0  0  0  0
  196.5766  184.0933  157.7055 H   0  0  0  0  0  0  0  0  0  0  0  0
  195.8913  183.4381  156.2401 H   0  0  0  0  0  0  0  0  0  0  0  0
  196.7233  182.2509  159.7347 H   0  0  0  0  0  0  0  0  0  0  0  0
  197.0278  180.8937  158.6474 H   0  0  0  0  0  0  0  0  0  0  0  0
  195.5691  180.9148  159.6213 H   0  0  0  0  0  0  0  0  0  0  0  0
  194.6411  183.7553  159.2253 H   0  0  0  0  0  0  0  0  0  0  0  0
  193.6970  182.2828  159.0363 H   0  0  0  0  0  0  0  0  0  0  0  0
  193.7621  183.4467  157.7340 H   0  0  0  0  0  0  0  0  0  0  0  0
  202.6038  173.9541  152.8004 H   0  0  0  0  0  0  0  0  0  0  0  0
  202.8946  173.3149  155.1685 H   0  0  0  0  0  0  0  0  0  0  0  0
  201.9807  174.7635  156.9721 H   0  0  0  0  0  0  0  0  0  0  0  0
  200.7255  176.8123  156.4285 H   0  0  0  0  0  0  0  0  0  0  0  0
  201.7122  175.4960  151.2392 H   0  0  0  0  0  0  0  0  0  0  0  0
  195.1880  181.5485  157.3539 H   0  0  0  0  0  0  0  0  0  0  0  0
  1  2  1  0
  2  3  2  0
  2  8  1  0
  3  4  1  0
  3  9  1  0
  4  5  1  0
  4  6  2  0
  5 33  1  0
  5 34  1  0
  6  7  1  0
  6 35  1  0
  7  8  2  0
  7 36  1  0
  8 37  1  0
  9 10  1  0
  9 38  1  1
  9 39  1  0
 10 11  1  0
 10 40  1  0
 11 12  1  0
 11 28  2  0
 12 13  2  0
 13 14  1  0
 13 26  1  0
 14 15  1  0
 14 41  1  0
 15 16  1  0
 15 42  1  6
 15 43  1  0
 16 17  2  0
 16 21  1  0
 17 18  1  0
 17 44  1  0
 18 19  2  0
 18 22  1  0
 19 20  1  0
 19 45  1  0
 20 21  2  0
 20 46  1  0
 21 47  1  0
 22 23  1  0
 22 48  1  1
 22 49  1  0
 23 24  1  0
 23 25  1  0
 23 61  1  6
 24 50  1  1
 24 51  1  0
 24 52  1  0
 25 53  1  1
 25 54  1  0
 25 55  1  0
 26 27  1  0
 26 32  2  0
 27 28  1  0
 27 29  2  0
 28 60  1  0
 29 30  1  0
 29 56  1  0
 30 31  2  0
 30 57  1  0
 31 32  1  0
 31 58  1  0
 32 59  1  0
M  CHG  2  23   1  28   1
M  END
>  <s_epik_cmdline>  (1011) 
J2VwaWtfcHl0aG9uJywgJy1waCcsICc3LjAwMDAwMCcsICctcGh0JywgJzIuMDAwMDAwJywgJy1tcycsICcxNicsICctdG4nLCAnOCcsICctbWEnLCAnMjAwJywgJy1pbWFlJywgJzxpbmZpbGUubWFlPicsICctb21hZScsICc8b3V0ZmlsZS5tYWU+Jw==

>  <s_epik_input>  (1011) 
W2NIXTFbY0hdW2NIXWMoW05IMl0pYyhjMUYpW0NIMl1bTkhdYyhuYyhjMjMpW2NIXVtjSF1bY0hdW2NIXTMpbmMyW05IXVtDSDJdYzRbY0hdYyhbY0hdW2NIXVtjSF00KVtDSDJdTihbQ0gzXSlbQ0gzXQ==

>  <s_i_glide_gridfile>  (1011) 
ATP-Grid

>  <s_lp_Force_Field>  (1011) 
OPLS_2005

>  <s_lp_Variant>  (1011) 
m_282030aaa____21928796____22360182____21939938-1

>  <s_lp_label>  (1011) 
1183_sdstereoexpander_1_neutralizer_1_epik_1_stereoizer_1

>  <s_m_source_file>  (1011) 
ATP-VSW-LIGPREP-003-in.maegz

>  <s_sd_BIOSOLVEIT.INFINISEE\_QUERY\_NAME>  (1011) 
Ref-Lig

>  <s_sd_BIOSOLVEIT.INFINISEE\_QUERY\_SMILES>  (1011) 
S(c1nc2c(cc1C[NH2+]Cc3ccc(cc3)C[NH+](C)C)cccc2)Cc4ccccc4

>  <s_sd_BIOSOLVEIT.INFINISEE\_REACTION\_NAME>  (1011) 
m_282030aaa

>  <s_sd_BIOSOLVEIT.INFINISEE\_REAGENT1\_SMILES>  (1011) 
[R1*]NCc1cc(ccc1)CN(C)C

>  <s_sd_BIOSOLVEIT.INFINISEE\_REAGENT2\_SMILES>  (1011) 
[R2*]c1nc([R1*])c2c(n1)cccc2

>  <s_sd_BIOSOLVEIT.INFINISEE\_REAGENT3\_SMILES>  (1011) 
[R2*]NCc1c(F)cccc1N

>  <s_sd_BIOSOLVEIT.INFINISEE\_SPACE>  (1011) 
REALSpace_44bn_2023-08

>  <s_vsw_compound_code>  (1011) 
37827

>  <s_vsw_variant>  (1011) 
37827-1

>  <r_epik_Charging_Adjusted_Penalty>  (1011) 
0.12044243362958

>  <r_epik_Ionization_Penalty>  (1011) 
0.061199999999999997

>  <r_epik_Ionization_Penalty_Charging>  (1011) 
0.0608

>  <r_epik_Ionization_Penalty_Neutral>  (1011) 
0.00040000000000000002

>  <r_epik_State_Penalty>  (1011) 
0.0596

>  <r_i_docking_score>  (1011) 
-3.72303822103631

>  <r_i_glide_ecoul>  (1011) 
-8.9974298477172905

>  <r_i_glide_eff_state_penalty>  (1011) 
0.0596

>  <r_i_glide_einternal>  (1011) 
2.45339155197144

>  <r_i_glide_emodel>  (1011) 
-49.108174560898902

>  <r_i_glide_energy>  (1011) 
-35.162253379821799

>  <r_i_glide_erotb>  (1011) 
0.74454719589574203

>  <r_i_glide_esite>  (1011) 
-0.106557530121212

>  <r_i_glide_evdw>  (1011) 
-26.164823532104499

>  <r_i_glide_gscore>  (1011) 
-3.7826382210363101

>  <r_i_glide_hbond>  (1011) 
-0.32000000000000001

>  <r_i_glide_ligand_efficiency>  (1011) 
-0.11634494440738501

>  <r_i_glide_ligand_efficiency_ln>  (1011) 
-0.83368974387898898

>  <r_i_glide_ligand_efficiency_sa>  (1011) 
-0.36937217386021298

>  <r_i_glide_lipo>  (1011) 
-0.73855040322921905

>  <r_i_glide_metal>  (1011) 
-0

>  <r_i_glide_rewards>  (1011) 
-0.70422182981880299

>  <r_lp_Energy>  (1011) 
19.92989

>  <r_qp_ACxDN^.5/SA>  (1011) 
0.016460900000000001

>  <r_qp_CIQPlogS>  (1011) 
-5.6219999999999999

>  <r_qp_EA(eV)>  (1011) 
0.48699999999999999

>  <r_qp_FISA>  (1011) 
75.034000000000006

>  <r_qp_FOSA>  (1011) 
166.53899999999999

>  <r_qp_IP(eV)>  (1011) 
7.8650000000000002

>  <r_qp_Jm>  (1011) 
0.19588132282683801

>  <r_qp_PISA>  (1011) 
409.99400000000003

>  <r_qp_PSA>  (1011) 
68.995000000000005

>  <r_qp_PercentHumanOralAbsorption>  (1011) 
100

>  <r_qp_QPPCaco>  (1011) 
480.00900000000001

>  <r_qp_QPPMDCK>  (1011) 
363.05000000000001

>  <r_qp_QPlogBB>  (1011) 
-0.20399999999999999

>  <r_qp_QPlogHERG>  (1011) 
-6.6980000000000004

>  <r_qp_QPlogKhsa>  (1011) 
0.48299999999999998

>  <r_qp_QPlogKp>  (1011) 
-2.657

>  <r_qp_QPlogPC16>  (1011) 
14.321

>  <r_qp_QPlogPo/w>  (1011) 
4.1100000000000003

>  <r_qp_QPlogPoct>  (1011) 
23.407

>  <r_qp_QPlogPw>  (1011) 
13.721

>  <r_qp_QPlogS>  (1011) 
-3.6850000000000001

>  <r_qp_QPpolrz>  (1011) 
44.167000000000002

>  <r_qp_SASA>  (1011) 
681.91899999999998

>  <r_qp_SAamideO>  (1011) 
0

>  <r_qp_SAfluorine>  (1011) 
30.352

>  <r_qp_WPSA>  (1011) 
30.352

>  <r_qp_accptHB>  (1011) 
6

>  <r_qp_dip^2/V>  (1011) 
0.022787600000000002

>  <r_qp_dipole>  (1011) 
5.4509999999999996

>  <r_qp_donorHB>  (1011) 
3.5

>  <r_qp_glob>  (1011) 
0.84646080000000001

>  <r_qp_mol_MW>  (1011) 
430.52699999999999

>  <r_qp_volume>  (1011) 
1303.953

>  <r_sd_BIOSOLVEIT.INFINISEE\_FTREES\_SIMILARITY>  (1011) 
0.91200000000000003

>  <r_sd_BIOSOLVEIT.LOGP>  (1011) 
3.2198000000000002

>  <r_sd_BIOSOLVEIT.MOLECULAR\_WEIGHT>  (1011) 
431.536

>  <r_sd_BIOSOLVEIT.TPSA>  (1011) 
80.299999999999997

>  <i_epik_Tot_Q>  (1011) 
2

>  <i_epik_Tot_abs_Q>  (1011) 
2

>  <i_f3d_flags>  (1011) 
0

>  <i_i_glide_confnum>  (1011) 
3

>  <i_i_glide_lignum>  (1011) 
475

>  <i_i_glide_posenum>  (1011) 
1

>  <i_i_glide_rotatable_bonds>  (1011) 
8

>  <i_lp_mmshare_version>  (1011) 
65135

>  <i_m_ct_format>  (1011) 
2

>  <i_m_source_file_index>  (1011) 
1183

>  <i_qp_#NandO>  (1011) 
6

>  <i_qp_#acid>  (1011) 
0

>  <i_qp_#amide>  (1011) 
0

>  <i_qp_#amidine>  (1011) 
0

>  <i_qp_#amine>  (1011) 
1

>  <i_qp_#in34>  (1011) 
0

>  <i_qp_#in56>  (1011) 
22

>  <i_qp_#metab>  (1011) 
7

>  <i_qp_#nonHatm>  (1011) 
32

>  <i_qp_#noncon>  (1011) 
0

>  <i_qp_#ringatoms>  (1011) 
22

>  <i_qp_#rotor>  (1011) 
9

>  <i_qp_#rtvFG>  (1011) 
0

>  <i_qp_#stars>  (1011) 
1

>  <i_qp_CNS>  (1011) 
0

>  <i_qp_HumanOralAbsorption>  (1011) 
3

>  <i_qp_RuleOfFive>  (1011) 
0

>  <i_qp_RuleOfThree>  (1011) 
1

>  <i_sd_BIOSOLVEIT.INFINISEE\_REAGENT1\_NAME>  (1011) 
21928796

>  <i_sd_BIOSOLVEIT.INFINISEE\_REAGENT2\_NAME>  (1011) 
22360182

>  <i_sd_BIOSOLVEIT.INFINISEE\_REAGENT3\_NAME>  (1011) 
21939938

>  <i_sd_BIOSOLVEIT.INFINISEE\_RESULT\_RANK>  (1011) 
39053

>  <i_sd_version>  (1011) 
0

>  <b_lp_Chiralities_Consistent>  (1011) 
1

>  <b_sd_chiral_flag>  (1011) 
0

>  <canonical_id>  (1011) 
ATP-HTVS-A20FC30C18FA

>  <compound_code>  (1011) 
37827

>  <title>  (1011) 
m_282030aaa____21928796____22360182____21939938

>  <variant>  (1011) 
37827-1

>  <source_file>  (1011) 
运行/运行/ATP-VSW/ATP-VSW-DOCK_HTVS_1-003_lib/ATP-VSW-DOCK_HTVS_1-003_lib.mae

>  <canonical_smiles>  (1011) 
C[NH+](C)Cc1cccc(CNc2nc(NCc3c(N)cccc3F)[nH+]c3ccccc23)c1

>  <scaffold>  (1011) 
c1ccc(CNc2nc(NCc3ccccc3)c3ccccc3[nH+]2)cc1

>  <molecular_formula>  (1011) 
C25H29FN6+2

$$$$
ATP-HTVS-A257C47BE0F3
     RDKit          3D

 64 67  0  0  0  0  0  0  0  0999 V2000
  199.1974  186.3177  159.2210 O   0  0  0  0  0  0  0  0  0  0  0  0
  199.3215  185.0946  159.2660 C   0  0  0  0  0  0  0  0  0  0  0  0
  200.4140  184.4848  159.7505 N   0  0  0  0  0  0  0  0  0  0  0  0
  201.5125  185.1825  160.4102 C   0  0  1  0  0  0  0  0  0  0  0  0
  202.5207  184.1899  161.0438 C   0  0  2  0  0  0  0  0  0  0  0  0
  203.6254  184.8525  161.8096 N   0  0  2  0  0  0  0  0  0  0  0  0
  204.5535  183.8857  162.4535 C   0  0  2  0  0  0  0  0  0  0  0  0
  203.1691  185.8644  162.7983 C   0  0  2  0  0  0  0  0  0  0  0  0
  203.0842  183.2368  159.9925 C   0  0  0  0  0  0  0  0  0  0  0  0
  203.8187  183.7393  158.8934 C   0  0  0  0  0  0  0  0  0  0  0  0
  204.3556  182.8594  157.9365 C   0  0  0  0  0  0  0  0  0  0  0  0
  204.1611  181.4742  158.0643 C   0  0  0  0  0  0  0  0  0  0  0  0
  204.6820  180.6375  157.1237 O   0  0  0  0  0  0  0  0  0  0  0  0
  203.4301  180.9635  159.1525 C   0  0  0  0  0  0  0  0  0  0  0  0
  202.8944  181.8403  160.1171 C   0  0  0  0  0  0  0  0  0  0  0  0
  198.2289  184.1600  158.8229 C   0  0  0  0  0  0  0  0  0  0  0  0
  196.8526  184.3378  159.1589 C   0  0  0  0  0  0  0  0  0  0  0  0
  195.9080  183.4108  158.6261 C   0  0  0  0  0  0  0  0  0  0  0  0
  196.2708  182.3816  157.8370 N   0  0  0  0  0  0  0  0  0  0  0  0
  197.5674  182.2118  157.5364 C   0  0  0  0  0  0  0  0  0  0  0  0
  198.5786  183.0601  158.0141 C   0  0  0  0  0  0  0  0  0  0  0  0
  197.9059  181.0320  156.6457 C   0  0  1  0  0  0  0  0  0  0  0  0
  198.0089  181.4616  155.1820 C   0  0  0  0  0  0  0  0  0  0  0  0
  198.8057  182.3453  154.8634 O   0  0  0  0  0  0  0  0  0  0  0  0
  197.2175  180.7916  154.3245 N   0  0  0  0  0  0  0  0  0  0  0  0
  197.1487  180.8729  152.9048 C   0  0  0  0  0  0  0  0  0  0  0  0
  196.4574  179.8374  152.2392 C   0  0  0  0  0  0  0  0  0  0  0  0
  196.3502  179.8359  150.8364 C   0  0  0  0  0  0  0  0  0  0  0  0
  196.9384  180.8675  150.0852 C   0  0  0  0  0  0  0  0  0  0  0  0
  197.6168  181.9131  150.7357 C   0  0  0  0  0  0  0  0  0  0  0  0
  197.7243  181.9188  152.1391 C   0  0  0  0  0  0  0  0  0  0  0  0
  194.5423  183.5742  158.9238 C   0  0  0  0  0  0  0  0  0  0  0  0
  194.0981  184.6290  159.7357 C   0  0  0  0  0  0  0  0  0  0  0  0
  195.0245  185.5336  160.2750 C   0  0  0  0  0  0  0  0  0  0  0  0
  196.3940  185.3906  159.9934 C   0  0  0  0  0  0  0  0  0  0  0  0
  200.4135  183.4751  159.7622 H   0  0  0  0  0  0  0  0  0  0  0  0
  202.0033  185.8352  159.6891 H   0  0  0  0  0  0  0  0  0  0  0  0
  201.0693  185.8264  161.1669 H   0  0  0  0  0  0  0  0  0  0  0  0
  201.9618  183.5844  161.7567 H   0  0  0  0  0  0  0  0  0  0  0  0
  204.0243  183.2506  163.1653 H   0  0  0  0  0  0  0  0  0  0  0  0
  205.3455  184.4060  162.9951 H   0  0  0  0  0  0  0  0  0  0  0  0
  205.0501  183.2417  161.7263 H   0  0  0  0  0  0  0  0  0  0  0  0
  202.4485  185.4401  163.4983 H   0  0  0  0  0  0  0  0  0  0  0  0
  202.7158  186.7283  162.3132 H   0  0  0  0  0  0  0  0  0  0  0  0
  204.0081  186.2522  163.3795 H   0  0  0  0  0  0  0  0  0  0  0  0
  203.9807  184.8014  158.7731 H   0  0  0  0  0  0  0  0  0  0  0  0
  204.9205  183.2460  157.0996 H   0  0  0  0  0  0  0  0  0  0  0  0
  204.4729  179.7171  157.2624 H   0  0  0  0  0  0  0  0  0  0  0  0
  203.2805  179.8982  159.2522 H   0  0  0  0  0  0  0  0  0  0  0  0
  202.3405  181.4291  160.9502 H   0  0  0  0  0  0  0  0  0  0  0  0
  199.6029  182.8769  157.7248 H   0  0  0  0  0  0  0  0  0  0  0  0
  198.8625  180.6071  156.9475 H   0  0  0  0  0  0  0  0  0  0  0  0
  197.1628  180.2426  156.7639 H   0  0  0  0  0  0  0  0  0  0  0  0
  196.6379  180.0841  154.7524 H   0  0  0  0  0  0  0  0  0  0  0  0
  196.0130  179.0297  152.8023 H   0  0  0  0  0  0  0  0  0  0  0  0
  195.8282  179.0384  150.3345 H   0  0  0  0  0  0  0  0  0  0  0  0
  196.8659  180.8591  149.0086 H   0  0  0  0  0  0  0  0  0  0  0  0
  198.0629  182.7097  150.1584 H   0  0  0  0  0  0  0  0  0  0  0  0
  198.2539  182.7412  152.5953 H   0  0  0  0  0  0  0  0  0  0  0  0
  193.8307  182.8858  158.4936 H   0  0  0  0  0  0  0  0  0  0  0  0
  193.0436  184.7472  159.9350 H   0  0  0  0  0  0  0  0  0  0  0  0
  194.6791  186.3455  160.8994 H   0  0  0  0  0  0  0  0  0  0  0  0
  197.0718  186.1107  160.4252 H   0  0  0  0  0  0  0  0  0  0  0  0
  204.1780  185.3532  161.1298 H   0  0  0  0  0  0  0  0  0  0  0  0
  1  2  2  0
  2  3  1  0
  2 16  1  0
  3  4  1  0
  3 36  1  0
  4  5  1  0
  4 37  1  6
  4 38  1  0
  5  6  1  0
  5  9  1  0
  5 39  1  1
  6  7  1  0
  6  8  1  0
  6 64  1  6
  7 40  1  1
  7 41  1  0
  7 42  1  0
  8 43  1  1
  8 44  1  0
  8 45  1  0
  9 10  1  0
  9 15  2  0
 10 11  2  0
 10 46  1  0
 11 12  1  0
 11 47  1  0
 12 13  1  0
 12 14  2  0
 13 48  1  0
 14 15  1  0
 14 49  1  0
 15 50  1  0
 16 17  1  0
 16 21  2  0
 17 18  1  0
 17 35  2  0
 18 19  1  0
 18 32  2  0
 19 20  2  0
 20 21  1  0
 20 22  1  0
 21 51  1  0
 22 23  1  0
 22 52  1  1
 22 53  1  0
 23 24  2  0
 23 25  1  0
 25 26  1  0
 25 54  1  0
 26 27  2  0
 26 31  1  0
 27 28  1  0
 27 55  1  0
 28 29  2  0
 28 56  1  0
 29 30  1  0
 29 57  1  0
 30 31  2  0
 30 58  1  0
 31 59  1  0
 32 33  1  0
 32 60  1  0
 33 34  2  0
 33 61  1  0
 34 35  1  0
 34 62  1  0
 35 63  1  0
M  CHG  1   6   1
M  END
>  <s_epik_cmdline>  (1012) 
J2VwaWtfcHl0aG9uJywgJy1waCcsICc3LjAwMDAwMCcsICctcGh0JywgJzIuMDAwMDAwJywgJy1tcycsICcxNicsICctdG4nLCAnOCcsICctbWEnLCAnMjAwJywgJy1pbWFlJywgJzxpbmZpbGUubWFlPicsICctb21hZScsICc8b3V0ZmlsZS5tYWU+Jw==

>  <s_epik_input>  (1012) 
W2NIXTFbY0hdYyhbT0hdKVtjSF1bY0hdYzFbQ0BASF0oTihbQ0gzXSlbQ0gzXSlbQ0gyXVtOSF1DKD1PKWMyW2NIXWMobmMoYzIzKVtjSF1bY0hdW2NIXVtjSF0zKVtDSDJdQyg9TylbTkhdYzRbY0hdW2NIXVtjSF1bY0hdW2NIXTQ=

>  <s_i_glide_gridfile>  (1012) 
ATP-Grid

>  <s_lp_Force_Field>  (1012) 
OPLS_2005

>  <s_lp_Variant>  (1012) 
YAS_R016____OTV5753507____OTV1000393____OTV2848234-1

>  <s_lp_label>  (1012) 
113_sdstereoexpander_1_neutralizer_1_epik_1_stereoizer_1

>  <s_m_source_file>  (1012) 
ATP-VSW-LIGPREP-003-in.maegz

>  <s_sd_BIOSOLVEIT.INFINISEE\_QUERY\_NAME>  (1012) 
Ref-Lig

>  <s_sd_BIOSOLVEIT.INFINISEE\_QUERY\_SMILES>  (1012) 
S(c1nc2c(cc1C[NH2+]Cc3ccc(cc3)C[NH+](C)C)cccc2)Cc4ccccc4

>  <s_sd_BIOSOLVEIT.INFINISEE\_REACTION\_NAME>  (1012) 
YAS_R016

>  <s_sd_BIOSOLVEIT.INFINISEE\_REAGENT1\_NAME>  (1012) 
OTV5753507

>  <s_sd_BIOSOLVEIT.INFINISEE\_REAGENT1\_SMILES>  (1012) 
Nc1ccccc1

>  <s_sd_BIOSOLVEIT.INFINISEE\_REAGENT2\_NAME>  (1012) 
OTV1000393

>  <s_sd_BIOSOLVEIT.INFINISEE\_REAGENT2\_SMILES>  (1012) 
Oc1ccc(cc1)C(N(C)C)CN

>  <s_sd_BIOSOLVEIT.INFINISEE\_REAGENT3\_NAME>  (1012) 
OTV2848234

>  <s_sd_BIOSOLVEIT.INFINISEE\_REAGENT3\_SMILES>  (1012) 
O=C(Nc1ccccc1)CC(=O)C

>  <s_sd_BIOSOLVEIT.INFINISEE\_SPACE>  (1012) 
CHEMriya_12bn_2022-01

>  <s_vsw_compound_code>  (1012) 
3587

>  <s_vsw_variant>  (1012) 
3587-1

>  <r_epik_Charging_Adjusted_Penalty>  (1012) 
0.21188443538388499

>  <r_epik_Ionization_Penalty>  (1012) 
0.1116

>  <r_epik_Ionization_Penalty_Charging>  (1012) 
0.10589999999999999

>  <r_epik_Ionization_Penalty_Neutral>  (1012) 
0.0057000000000000002

>  <r_epik_State_Penalty>  (1012) 
0.10589999999999999

>  <r_i_docking_score>  (1012) 
-4.6397364602869002

>  <r_i_glide_ecoul>  (1012) 
-5.6158609390258798

>  <r_i_glide_eff_state_penalty>  (1012) 
0.10589999999999999

>  <r_i_glide_einternal>  (1012) 
1.63777244091034

>  <r_i_glide_emodel>  (1012) 
-60.015930835930497

>  <r_i_glide_energy>  (1012) 
-44.208214759826703

>  <r_i_glide_erotb>  (1012) 
0.73288219248227005

>  <r_i_glide_esite>  (1012) 
-0.0518397934508215

>  <r_i_glide_evdw>  (1012) 
-38.592353820800803

>  <r_i_glide_gscore>  (1012) 
-4.7456364602869003

>  <r_i_glide_hbond>  (1012) 
-0.32000000000000001

>  <r_i_glide_ligand_efficiency>  (1012) 
-0.13256389886534001

>  <r_i_glide_ligand_efficiency_ln>  (1012) 
-1.0185251264356501

>  <r_i_glide_ligand_efficiency_sa>  (1012) 
-0.433625303011765

>  <r_i_glide_lipo>  (1012) 
-2.04090563864361

>  <r_i_glide_metal>  (1012) 
-0

>  <r_i_glide_rewards>  (1012) 
-0.29377638878081902

>  <r_lp_Energy>  (1012) 
33.157183000000003

>  <r_lp_tautomer_probability>  (1012) 
0.999999999997365

>  <r_qp_ACxDN^.5/SA>  (1012) 
0.020500000000000001

>  <r_qp_CIQPlogS>  (1012) 
-5.4109999999999996

>  <r_qp_EA(eV)>  (1012) 
1.2969999999999999

>  <r_qp_FISA>  (1012) 
100.03100000000001

>  <r_qp_FOSA>  (1012) 
215.06200000000001

>  <r_qp_IP(eV)>  (1012) 
8.7449999999999992

>  <r_qp_Jm>  (1012) 
0.062890262335048505

>  <r_qp_PISA>  (1012) 
424.19499999999999

>  <r_qp_PSA>  (1012) 
103.42

>  <r_qp_PercentHumanOralAbsorption>  (1012) 
92.075000000000003

>  <r_qp_QPPCaco>  (1012) 
278.101

>  <r_qp_QPPMDCK>  (1012) 
137.239

>  <r_qp_QPlogBB>  (1012) 
-0.54700000000000004

>  <r_qp_QPlogHERG>  (1012) 
-7.0250000000000004

>  <r_qp_QPlogKhsa>  (1012) 
0.38200000000000001

>  <r_qp_QPlogKp>  (1012) 
-3.0670000000000002

>  <r_qp_QPlogPC16>  (1012) 
15.816000000000001

>  <r_qp_QPlogPo/w>  (1012) 
3.6520000000000001

>  <r_qp_QPlogPoct>  (1012) 
25.818999999999999

>  <r_qp_QPlogPw>  (1012) 
16.091000000000001

>  <r_qp_QPlogS>  (1012) 
-3.8050000000000002

>  <r_qp_QPpolrz>  (1012) 
49.357999999999997

>  <r_qp_SASA>  (1012) 
739.28800000000001

>  <r_qp_SAamideO>  (1012) 
0

>  <r_qp_SAfluorine>  (1012) 
0

>  <r_qp_WPSA>  (1012) 
0

>  <r_qp_accptHB>  (1012) 
8.75

>  <r_qp_dip^2/V>  (1012) 
0.0120708

>  <r_qp_dipole>  (1012) 
4.1550000000000002

>  <r_qp_donorHB>  (1012) 
3

>  <r_qp_glob>  (1012) 
0.83041730000000002

>  <r_qp_mol_MW>  (1012) 
468.55399999999997

>  <r_qp_volume>  (1012) 
1430.269

>  <r_sd_BIOSOLVEIT.INFINISEE\_FTREES\_SIMILARITY>  (1012) 
0.90700000000000003

>  <r_sd_BIOSOLVEIT.LOGP>  (1012) 
2.7372000000000001

>  <r_sd_BIOSOLVEIT.MOLECULAR\_WEIGHT>  (1012) 
469.56200000000001

>  <r_sd_BIOSOLVEIT.TPSA>  (1012) 
95.760000000000005

>  <i_epik_Tot_Q>  (1012) 
1

>  <i_epik_Tot_abs_Q>  (1012) 
1

>  <i_f3d_flags>  (1012) 
0

>  <i_i_glide_confnum>  (1012) 
8

>  <i_i_glide_lignum>  (1012) 
174

>  <i_i_glide_posenum>  (1012) 
4

>  <i_i_glide_rotatable_bonds>  (1012) 
11

>  <i_lp_mmshare_version>  (1012) 
65135

>  <i_m_ct_format>  (1012) 
2

>  <i_m_source_file_index>  (1012) 
113

>  <i_qp_#NandO>  (1012) 
7

>  <i_qp_#acid>  (1012) 
0

>  <i_qp_#amide>  (1012) 
0

>  <i_qp_#amidine>  (1012) 
0

>  <i_qp_#amine>  (1012) 
1

>  <i_qp_#in34>  (1012) 
0

>  <i_qp_#in56>  (1012) 
22

>  <i_qp_#metab>  (1012) 
5

>  <i_qp_#nonHatm>  (1012) 
35

>  <i_qp_#noncon>  (1012) 
0

>  <i_qp_#ringatoms>  (1012) 
22

>  <i_qp_#rotor>  (1012) 
9

>  <i_qp_#rtvFG>  (1012) 
0

>  <i_qp_#stars>  (1012) 
0

>  <i_qp_CNS>  (1012) 
0

>  <i_qp_HumanOralAbsorption>  (1012) 
3

>  <i_qp_RuleOfFive>  (1012) 
0

>  <i_qp_RuleOfThree>  (1012) 
0

>  <i_sd_BIOSOLVEIT.INFINISEE\_RESULT\_RANK>  (1012) 
61038

>  <i_sd_version>  (1012) 
0

>  <b_lp_Chiralities_Consistent>  (1012) 
1

>  <b_sd_chiral_flag>  (1012) 
0

>  <canonical_id>  (1012) 
ATP-HTVS-A257C47BE0F3

>  <compound_code>  (1012) 
3587

>  <title>  (1012) 
YAS_R016____OTV5753507____OTV1000393____OTV2848234

>  <variant>  (1012) 
3587-1

>  <source_file>  (1012) 
运行/运行/ATP-VSW/ATP-VSW-DOCK_HTVS_1-003_lib/ATP-VSW-DOCK_HTVS_1-003_lib.mae

>  <canonical_smiles>  (1012) 
C[NH+](C)[C@@H](CNC(=O)c1cc(CC(=O)Nc2ccccc2)nc2ccccc12)c1ccc(O)cc1

>  <scaffold>  (1012) 
O=C(Cc1cc(C(=O)NCCc2ccccc2)c2ccccc2n1)Nc1ccccc1

>  <molecular_formula>  (1012) 
C28H29N4O3+

$$$$
ATP-HTVS-A25C4EA68E32
     RDKit          3D

 56 59  0  0  0  0  0  0  0  0999 V2000
  200.3544  179.2495  153.6640 O   0  0  0  0  0  0  0  0  0  0  0  0
  199.9732  178.3901  154.4494 C   0  0  0  0  0  0  0  0  0  0  0  0
  199.1462  178.6358  155.4813 N   0  0  0  0  0  0  0  0  0  0  0  0
  198.6657  179.9146  155.8592 C   0  0  0  0  0  0  0  0  0  0  0  0
  199.4935  180.8696  156.5096 C   0  0  0  0  0  0  0  0  0  0  0  0
  200.8478  180.5779  156.7526 N   0  0  0  0  0  0  0  0  0  0  0  0
  201.9661  181.3504  156.3952 C   0  0  0  0  0  0  0  0  0  0  0  0
  203.2358  180.9935  156.8948 C   0  0  0  0  0  0  0  0  0  0  0  0
  204.3618  181.7913  156.6019 C   0  0  0  0  0  0  0  0  0  0  0  0
  204.2278  182.9464  155.8070 C   0  0  0  0  0  0  0  0  0  0  0  0
  202.9661  183.2933  155.2917 C   0  0  0  0  0  0  0  0  0  0  0  0
  201.8475  182.4905  155.5687 C   0  0  0  0  0  0  0  0  0  0  0  0
  198.9135  182.1104  156.9140 C   0  0  0  0  0  0  0  0  0  0  0  0
  197.5434  182.3588  156.6242 C   0  0  0  0  0  0  0  0  0  0  0  0
  196.8100  181.4109  156.0011 N   0  0  0  0  0  0  0  0  0  0  0  0
  197.3145  180.2187  155.6231 C   0  0  0  0  0  0  0  0  0  0  0  0
  196.9382  183.5842  156.9796 C   0  0  0  0  0  0  0  0  0  0  0  0
  197.6931  184.5952  157.6029 C   0  0  0  0  0  0  0  0  0  0  0  0
  199.0444  184.3555  157.9168 C   0  0  0  0  0  0  0  0  0  0  0  0
  199.6362  183.1136  157.6089 C   0  0  0  0  0  0  0  0  0  0  0  0
  200.3641  176.9503  154.2894 C   0  0  0  0  0  0  0  0  0  0  0  0
  200.4261  176.3518  153.0057 C   0  0  0  0  0  0  0  0  0  0  0  0
  200.8150  175.0009  152.8670 C   0  0  0  0  0  0  0  0  0  0  0  0
  201.1561  174.2412  154.0075 C   0  0  0  0  0  0  0  0  0  0  0  0
  201.0827  174.8374  155.2816 C   0  0  0  0  0  0  0  0  0  0  0  0
  200.7053  176.1830  155.4214 C   0  0  0  0  0  0  0  0  0  0  0  0
  201.6131  172.7926  153.8803 C   0  0  1  0  0  0  0  0  0  0  0  0
  203.0851  172.6371  153.9939 N   0  0  2  0  0  0  0  0  0  0  0  0
  203.6808  173.2240  155.2206 C   0  0  2  0  0  0  0  0  0  0  0  0
  203.7970  173.0857  152.7775 C   0  0  2  0  0  0  0  0  0  0  0  0
  198.7905  177.8538  156.0143 H   0  0  0  0  0  0  0  0  0  0  0  0
  201.0390  179.6488  157.0953 H   0  0  0  0  0  0  0  0  0  0  0  0
  203.3506  180.1288  157.5402 H   0  0  0  0  0  0  0  0  0  0  0  0
  205.3313  181.5195  156.9976 H   0  0  0  0  0  0  0  0  0  0  0  0
  205.0837  183.5652  155.5914 H   0  0  0  0  0  0  0  0  0  0  0  0
  202.8432  184.1973  154.7052 H   0  0  0  0  0  0  0  0  0  0  0  0
  200.8945  182.7917  155.1611 H   0  0  0  0  0  0  0  0  0  0  0  0
  196.6251  179.5087  155.2020 H   0  0  0  0  0  0  0  0  0  0  0  0
  195.8990  183.7545  156.7526 H   0  0  0  0  0  0  0  0  0  0  0  0
  197.2434  185.5517  157.8416 H   0  0  0  0  0  0  0  0  0  0  0  0
  199.6464  185.1330  158.3721 H   0  0  0  0  0  0  0  0  0  0  0  0
  200.6629  182.9773  157.9054 H   0  0  0  0  0  0  0  0  0  0  0  0
  200.1703  176.9304  152.1290 H   0  0  0  0  0  0  0  0  0  0  0  0
  200.8403  174.5544  151.8823 H   0  0  0  0  0  0  0  0  0  0  0  0
  201.2955  174.2667  156.1687 H   0  0  0  0  0  0  0  0  0  0  0  0
  200.7036  176.6210  156.4128 H   0  0  0  0  0  0  0  0  0  0  0  0
  201.1281  172.1832  154.6499 H   0  0  0  0  0  0  0  0  0  0  0  0
  201.2707  172.3747  152.9305 H   0  0  0  0  0  0  0  0  0  0  0  0
  203.5824  174.3074  155.2475 H   0  0  0  0  0  0  0  0  0  0  0  0
  204.7508  173.0294  155.2643 H   0  0  0  0  0  0  0  0  0  0  0  0
  203.2105  172.7991  156.1080 H   0  0  0  0  0  0  0  0  0  0  0  0
  203.6605  174.1558  152.6115 H   0  0  0  0  0  0  0  0  0  0  0  0
  203.4354  172.5592  151.8928 H   0  0  0  0  0  0  0  0  0  0  0  0
  204.8656  172.8968  152.8608 H   0  0  0  0  0  0  0  0  0  0  0  0
  203.2360  171.6114  154.0805 H   0  0  0  0  0  0  0  0  0  0  0  0
  195.8161  181.5855  155.8443 H   0  0  0  0  0  0  0  0  0  0  0  0
  1  2  2  0
  2  3  1  0
  2 21  1  0
  3  4  1  0
  3 31  1  0
  4  5  2  0
  4 16  1  0
  5  6  1  0
  5 13  1  0
  6  7  1  0
  6 32  1  0
  7  8  2  0
  7 12  1  0
  8  9  1  0
  8 33  1  0
  9 10  2  0
  9 34  1  0
 10 11  1  0
 10 35  1  0
 11 12  2  0
 11 36  1  0
 12 37  1  0
 13 14  1  0
 13 20  2  0
 14 15  1  0
 14 17  2  0
 15 16  2  0
 15 56  1  0
 16 38  1  0
 17 18  1  0
 17 39  1  0
 18 19  2  0
 18 40  1  0
 19 20  1  0
 19 41  1  0
 20 42  1  0
 21 22  1  0
 21 26  2  0
 22 23  2  0
 22 43  1  0
 23 24  1  0
 23 44  1  0
 24 25  2  0
 24 27  1  0
 25 26  1  0
 25 45  1  0
 26 46  1  0
 27 28  1  0
 27 47  1  1
 27 48  1  0
 28 29  1  0
 28 30  1  0
 28 55  1  1
 29 49  1  6
 29 50  1  0
 29 51  1  0
 30 52  1  6
 30 53  1  0
 30 54  1  0
M  CHG  2  15   1  28   1
M  END
>  <s_epik_cmdline>  (1013) 
J2VwaWtfcHl0aG9uJywgJy1waCcsICc3LjAwMDAwMCcsICctcGh0JywgJzIuMDAwMDAwJywgJy1tcycsICcxNicsICctdG4nLCAnOCcsICctbWEnLCAnMjAwJywgJy1pbWFlJywgJzxpbmZpbGUubWFlPicsICctb21hZScsICc8b3V0ZmlsZS5tYWU+Jw==

>  <s_epik_input>  (1013) 
W0NIM11OKFtDSDNdKVtDSDJdYyhbY0hdW2NIXTEpW2NIXVtjSF1jMUMoPU8pW05IXWMoW2NIXW5jKGMyMylbY0hdW2NIXVtjSF1bY0hdMyljMltOSF1jNFtjSF1bY0hdW2NIXVtjSF1bY0hdNA==

>  <s_i_glide_gridfile>  (1013) 
ATP-Grid

>  <s_lp_Force_Field>  (1013) 
OPLS_2005

>  <s_lp_Variant>  (1013) 
rxn502b____EMOL18624763____EMOL30488121____EMOL477532-2

>  <s_lp_label>  (1013) 
2834_sdstereoexpander_1_neutralizer_1_epik_2_stereoizer_1

>  <s_m_source_file>  (1013) 
ATP-VSW-LIGPREP-002-in.maegz

>  <s_sd_BIOSOLVEIT.INFINISEE\_QUERY\_NAME>  (1013) 
Ref-Lig

>  <s_sd_BIOSOLVEIT.INFINISEE\_QUERY\_SMILES>  (1013) 
S(c1nc2c(cc1C[NH2+]Cc3ccc(cc3)C[NH+](C)C)cccc2)Cc4ccccc4

>  <s_sd_BIOSOLVEIT.INFINISEE\_REACTION\_NAME>  (1013) 
rxn502b

>  <s_sd_BIOSOLVEIT.INFINISEE\_REAGENT1\_NAME>  (1013) 
EMOL18624763

>  <s_sd_BIOSOLVEIT.INFINISEE\_REAGENT1\_SMILES>  (1013) 
O=C(O)c1ccc(cc1)CN(C)C

>  <s_sd_BIOSOLVEIT.INFINISEE\_REAGENT2\_NAME>  (1013) 
EMOL30488121

>  <s_sd_BIOSOLVEIT.INFINISEE\_REAGENT2\_SMILES>  (1013) 
Brc1c(N)cnc2c1cccc2

>  <s_sd_BIOSOLVEIT.INFINISEE\_REAGENT3\_NAME>  (1013) 
EMOL477532

>  <s_sd_BIOSOLVEIT.INFINISEE\_REAGENT3\_SMILES>  (1013) 
Nc1ccccc1

>  <s_sd_BIOSOLVEIT.INFINISEE\_SPACE>  (1013) 
eXplore_7tr_2022-12

>  <s_vsw_compound_code>  (1013) 
90658

>  <s_vsw_variant>  (1013) 
90658-2

>  <r_epik_Charging_Adjusted_Penalty>  (1013) 
1.42112632141646

>  <r_epik_Ionization_Penalty>  (1013) 
0.71030000000000004

>  <r_epik_Ionization_Penalty_Charging>  (1013) 
0.70999999999999996

>  <r_epik_Ionization_Penalty_Neutral>  (1013) 
0.00020000000000000001

>  <r_epik_State_Penalty>  (1013) 
0.71109999999999995

>  <r_i_docking_score>  (1013) 
-4.1100144606793796

>  <r_i_glide_ecoul>  (1013) 
-16.565696716308601

>  <r_i_glide_eff_state_penalty>  (1013) 
0.71109999999999995

>  <r_i_glide_einternal>  (1013) 
7.59671831130981

>  <r_i_glide_emodel>  (1013) 
-55.452681617608

>  <r_i_glide_energy>  (1013) 
-38.766399383544901

>  <r_i_glide_erotb>  (1013) 
0.73998611680727899

>  <r_i_glide_esite>  (1013) 
-0.24358663672230901

>  <r_i_glide_evdw>  (1013) 
-22.2007026672363

>  <r_i_glide_gscore>  (1013) 
-4.8211144606793797

>  <r_i_glide_hbond>  (1013) 
-0.14935726114869299

>  <r_i_glide_ligand_efficiency>  (1013) 
-0.137000482022646

>  <r_i_glide_ligand_efficiency_ln>  (1013) 
-0.93384006766067496

>  <r_i_glide_ligand_efficiency_sa>  (1013) 
-0.42569235058949101

>  <r_i_glide_lipo>  (1013) 
-0.65622253880754799

>  <r_i_glide_metal>  (1013) 
-0

>  <r_i_glide_rewards>  (1013) 
-0.91704449999999904

>  <r_lp_Energy>  (1013) 
39.446361000000003

>  <r_qp_ACxDN^.5/SA>  (1013) 
0.012651600000000001

>  <r_qp_CIQPlogS>  (1013) 
-5.0940000000000003

>  <r_qp_EA(eV)>  (1013) 
1.0680000000000001

>  <r_qp_FISA>  (1013) 
64.010999999999996

>  <r_qp_FOSA>  (1013) 
154.221

>  <r_qp_IP(eV)>  (1013) 
8.173

>  <r_qp_Jm>  (1013) 
0.0903705901555618

>  <r_qp_PISA>  (1013) 
452.45699999999999

>  <r_qp_PSA>  (1013) 
58.140999999999998

>  <r_qp_PercentHumanOralAbsorption>  (1013) 
100

>  <r_qp_QPPCaco>  (1013) 
610.63499999999999

>  <r_qp_QPPMDCK>  (1013) 
321.13299999999998

>  <r_qp_QPlogBB>  (1013) 
-0

>  <r_qp_QPlogHERG>  (1013) 
-6.96

>  <r_qp_QPlogKhsa>  (1013) 
0.60499999999999998

>  <r_qp_QPlogKp>  (1013) 
-2.5920000000000001

>  <r_qp_QPlogPC16>  (1013) 
14.039

>  <r_qp_QPlogPo/w>  (1013) 
4.1379999999999999

>  <r_qp_QPlogPoct>  (1013) 
21.823

>  <r_qp_QPlogPw>  (1013) 
12.362

>  <r_qp_QPlogS>  (1013) 
-4.0499999999999998

>  <r_qp_QPpolrz>  (1013) 
44.881999999999998

>  <r_qp_SASA>  (1013) 
670.68899999999996

>  <r_qp_SAamideO>  (1013) 
0

>  <r_qp_SAfluorine>  (1013) 
0

>  <r_qp_WPSA>  (1013) 
0

>  <r_qp_accptHB>  (1013) 
6

>  <r_qp_dip^2/V>  (1013) 
0.053007499999999999

>  <r_qp_dipole>  (1013) 
8.1839999999999993

>  <r_qp_donorHB>  (1013) 
2

>  <r_qp_glob>  (1013) 
0.84276510000000004

>  <r_qp_mol_MW>  (1013) 
396.49099999999999

>  <r_qp_volume>  (1013) 
1263.5550000000001

>  <r_sd_BIOSOLVEIT.INFINISEE\_FTREES\_SIMILARITY>  (1013) 
0.90600000000000003

>  <r_sd_BIOSOLVEIT.LOGP>  (1013) 
3.8752

>  <r_sd_BIOSOLVEIT.MOLECULAR\_WEIGHT>  (1013) 
397.5

>  <r_sd_BIOSOLVEIT.TPSA>  (1013) 
58.460000000000001

>  <i_epik_Tot_Q>  (1013) 
2

>  <i_epik_Tot_abs_Q>  (1013) 
2

>  <i_f3d_flags>  (1013) 
0

>  <i_i_glide_confnum>  (1013) 
3

>  <i_i_glide_lignum>  (1013) 
1389

>  <i_i_glide_posenum>  (1013) 
6

>  <i_i_glide_rotatable_bonds>  (1013) 
7

>  <i_lp_mmshare_version>  (1013) 
65135

>  <i_m_ct_format>  (1013) 
2

>  <i_m_source_file_index>  (1013) 
2834

>  <i_qp_#NandO>  (1013) 
5

>  <i_qp_#acid>  (1013) 
0

>  <i_qp_#amide>  (1013) 
0

>  <i_qp_#amidine>  (1013) 
0

>  <i_qp_#amine>  (1013) 
1

>  <i_qp_#in34>  (1013) 
0

>  <i_qp_#in56>  (1013) 
22

>  <i_qp_#metab>  (1013) 
5

>  <i_qp_#nonHatm>  (1013) 
30

>  <i_qp_#noncon>  (1013) 
0

>  <i_qp_#ringatoms>  (1013) 
22

>  <i_qp_#rotor>  (1013) 
6

>  <i_qp_#rtvFG>  (1013) 
0

>  <i_qp_#stars>  (1013) 
1

>  <i_qp_CNS>  (1013) 
1

>  <i_qp_HumanOralAbsorption>  (1013) 
3

>  <i_qp_RuleOfFive>  (1013) 
0

>  <i_qp_RuleOfThree>  (1013) 
0

>  <i_sd_BIOSOLVEIT.INFINISEE\_RESULT\_RANK>  (1013) 
66849

>  <i_sd_version>  (1013) 
0

>  <b_lp_Chiralities_Consistent>  (1013) 
1

>  <b_sd_chiral_flag>  (1013) 
0

>  <canonical_id>  (1013) 
ATP-HTVS-A25C4EA68E32

>  <compound_code>  (1013) 
90658

>  <title>  (1013) 
rxn502b____EMOL18624763____EMOL30488121____EMOL477532

>  <variant>  (1013) 
90658-2

>  <source_file>  (1013) 
运行/运行/ATP-VSW/ATP-VSW-DOCK_HTVS_1-002_lib.maegz

>  <canonical_smiles>  (1013) 
C[NH+](C)Cc1ccc(C(=O)Nc2c[nH+]c3ccccc3c2Nc2ccccc2)cc1

>  <scaffold>  (1013) 
O=C(Nc1c[nH+]c2ccccc2c1Nc1ccccc1)c1ccccc1

>  <molecular_formula>  (1013) 
C25H26N4O+2

$$$$
ATP-HTVS-A27D1CDFC59C
     RDKit          3D

 67 70  0  0  0  0  0  0  0  0999 V2000
  204.0708  180.6458  159.9901 O   0  0  0  0  0  0  0  0  0  0  0  0
  203.3216  181.6103  160.0276 N   0  0  0  0  0  0  0  0  0  0  0  0
  203.4265  182.5344  160.8412 O   0  0  0  0  0  0  0  0  0  0  0  0
  202.2258  181.6902  159.0408 C   0  0  0  0  0  0  0  0  0  0  0  0
  201.3785  182.8214  158.9914 C   0  0  0  0  0  0  0  0  0  0  0  0
  200.3800  182.9206  158.0183 C   0  0  0  0  0  0  0  0  0  0  0  0
  200.1040  181.8638  157.1259 C   0  0  0  0  0  0  0  0  0  0  0  0
  200.9533  180.7184  157.1706 C   0  0  0  0  0  0  0  0  0  0  0  0
  202.0117  180.6465  158.1053 C   0  0  0  0  0  0  0  0  0  0  0  0
  198.9771  181.9201  156.1608 C   0  0  0  0  0  0  0  0  0  0  0  0
  199.0473  181.1868  155.0598 N   0  0  0  0  0  0  0  0  0  0  0  0
  197.8989  181.4141  154.3812 N   0  0  0  0  0  0  0  0  0  0  0  0
  197.6258  180.7473  153.1729 C   0  0  0  0  0  0  0  0  0  0  0  0
  196.5984  181.2164  152.3257 C   0  0  0  0  0  0  0  0  0  0  0  0
  196.3397  180.5544  151.1154 C   0  0  0  0  0  0  0  0  0  0  0  0
  197.0957  179.4271  150.7490 C   0  0  0  0  0  0  0  0  0  0  0  0
  198.1136  178.9549  151.5971 C   0  0  0  0  0  0  0  0  0  0  0  0
  198.3779  179.6103  152.8087 C   0  0  0  0  0  0  0  0  0  0  0  0
  197.0992  182.3166  155.0451 C   0  0  0  0  0  0  0  0  0  0  0  0
  197.7453  182.6671  156.1980 C   0  0  0  0  0  0  0  0  0  0  0  0
  197.2124  183.6359  157.2035 C   0  0  1  0  0  0  0  0  0  0  0  0
  196.5718  182.9554  158.3819 N   0  0  1  0  0  0  0  0  0  0  0  0
  196.1144  183.8638  159.4674 C   0  0  1  0  0  0  0  0  0  0  0  0
  196.8275  185.2104  159.5132 C   0  0  0  0  0  0  0  0  0  0  0  0
  198.2294  185.2293  159.5117 C   0  0  0  0  0  0  0  0  0  0  0  0
  198.9091  186.4913  159.3382 C   0  0  0  0  0  0  0  0  0  0  0  0
  198.1634  187.6731  159.3791 C   0  0  0  0  0  0  0  0  0  0  0  0
  196.7643  187.6204  159.5843 C   0  0  0  0  0  0  0  0  0  0  0  0
  196.0842  186.3935  159.5635 C   0  0  0  0  0  0  0  0  0  0  0  0
  198.9034  189.0213  159.2822 C   0  0  1  0  0  0  0  0  0  0  0  0
  198.4478  189.9165  158.2064 N   0  0  0  0  0  0  0  0  0  0  0  0
  199.3158  191.0897  158.1467 C   0  0  2  0  0  0  0  0  0  0  0  0
  197.0961  190.4043  158.4209 C   0  0  2  0  0  0  0  0  0  0  0  0
  195.4906  182.0252  157.9517 C   0  0  1  0  0  0  0  0  0  0  0  0
  194.7340  181.3335  159.0777 C   0  0  2  0  0  0  0  0  0  0  0  0
  201.5177  183.6455  159.6772 H   0  0  0  0  0  0  0  0  0  0  0  0
  199.8575  183.8594  157.9637 H   0  0  0  0  0  0  0  0  0  0  0  0
  200.8022  179.8977  156.4747 H   0  0  0  0  0  0  0  0  0  0  0  0
  202.6492  179.7684  158.1036 H   0  0  0  0  0  0  0  0  0  0  0  0
  196.0073  182.0835  152.5865 H   0  0  0  0  0  0  0  0  0  0  0  0
  195.5555  180.9155  150.4710 H   0  0  0  0  0  0  0  0  0  0  0  0
  196.8947  178.9212  149.8173 H   0  0  0  0  0  0  0  0  0  0  0  0
  198.6949  178.0900  151.3230 H   0  0  0  0  0  0  0  0  0  0  0  0
  199.1603  179.2395  153.4550 H   0  0  0  0  0  0  0  0  0  0  0  0
  196.1274  182.6381  154.6868 H   0  0  0  0  0  0  0  0  0  0  0  0
  198.0619  184.2519  157.4623 H   0  0  0  0  0  0  0  0  0  0  0  0
  196.5133  184.3573  156.7677 H   0  0  0  0  0  0  0  0  0  0  0  0
  195.0498  184.0924  159.3521 H   0  0  0  0  0  0  0  0  0  0  0  0
  196.2445  183.3948  160.4455 H   0  0  0  0  0  0  0  0  0  0  0  0
  198.7898  184.3194  159.5787 H   0  0  0  0  0  0  0  0  0  0  0  0
  199.9767  186.4789  159.2053 H   0  0  0  0  0  0  0  0  0  0  0  0
  196.1560  188.4958  159.7688 H   0  0  0  0  0  0  0  0  0  0  0  0
  194.9968  186.3835  159.5923 H   0  0  0  0  0  0  0  0  0  0  0  0
  198.8070  189.5049  160.2534 H   0  0  0  0  0  0  0  0  0  0  0  0
  199.9715  188.8168  159.1627 H   0  0  0  0  0  0  0  0  0  0  0  0
  198.9182  191.7874  157.4053 H   0  0  0  0  0  0  0  0  0  0  0  0
  200.3365  190.8308  157.8471 H   0  0  0  0  0  0  0  0  0  0  0  0
  199.3459  191.6016  159.1122 H   0  0  0  0  0  0  0  0  0  0  0  0
  196.8138  191.1590  157.6926 H   0  0  0  0  0  0  0  0  0  0  0  0
  197.0049  190.8180  159.4231 H   0  0  0  0  0  0  0  0  0  0  0  0
  196.3848  189.5993  158.2916 H   0  0  0  0  0  0  0  0  0  0  0  0
  194.7528  182.6275  157.4534 H   0  0  0  0  0  0  0  0  0  0  0  0
  195.8804  181.2684  157.2729 H   0  0  0  0  0  0  0  0  0  0  0  0
  193.8828  180.7794  158.6694 H   0  0  0  0  0  0  0  0  0  0  0  0
  194.3296  182.0537  159.7670 H   0  0  0  0  0  0  0  0  0  0  0  0
  195.3889  180.6481  159.6099 H   0  0  0  0  0  0  0  0  0  0  0  0
  197.2657  182.3581  158.8091 H   0  0  0  0  0  0  0  0  0  0  0  0
  1  2  1  0
  2  3  2  0
  2  4  1  0
  4  5  1  0
  4  9  2  0
  5  6  2  0
  5 36  1  0
  6  7  1  0
  6 37  1  0
  7  8  2  0
  7 10  1  0
  8  9  1  0
  8 38  1  0
  9 39  1  0
 10 11  2  0
 10 20  1  0
 11 12  1  0
 12 13  1  0
 12 19  1  0
 13 14  2  0
 13 18  1  0
 14 15  1  0
 14 40  1  0
 15 16  2  0
 15 41  1  0
 16 17  1  0
 16 42  1  0
 17 18  2  0
 17 43  1  0
 18 44  1  0
 19 20  2  0
 19 45  1  0
 20 21  1  0
 21 22  1  0
 21 46  1  1
 21 47  1  0
 22 23  1  0
 22 34  1  0
 22 67  1  1
 23 24  1  0
 23 48  1  6
 23 49  1  0
 24 25  1  0
 24 29  2  0
 25 26  2  0
 25 50  1  0
 26 27  1  0
 26 51  1  0
 27 28  2  0
 27 30  1  0
 28 29  1  0
 28 52  1  0
 29 53  1  0
 30 31  1  0
 30 54  1  1
 30 55  1  0
 31 32  1  0
 31 33  1  0
 32 56  1  6
 32 57  1  0
 32 58  1  0
 33 59  1  6
 33 60  1  0
 33 61  1  0
 34 35  1  0
 34 62  1  6
 34 63  1  0
 35 64  1  6
 35 65  1  0
 35 66  1  0
M  CHG  3   1  -1   2   1  22   1
M  END
>  <s_epik_cmdline>  (1014) 
J2VwaWtfcHl0aG9uJywgJy1waCcsICc3LjAwMDAwMCcsICctcGh0JywgJzIuMDAwMDAwJywgJy1tcycsICcxNicsICctdG4nLCAnOCcsICctbWEnLCAnMjAwJywgJy1pbWFlJywgJzxpbmZpbGUubWFlPicsICctb21hZScsICc8b3V0ZmlsZS5tYWU+Jw==

>  <s_epik_input>  (1014) 
W08tXVtOK10oPU8pYzFbY0hdW2NIXWMoW2NIXVtjSF0xKS1jMm5uKC1jM1tjSF1bY0hdW2NIXVtjSF1bY0hdMylbY0hdYzJbQ0gyXU4oW0NIMl1bQ0gzXSlbQ0gyXWM0W2NIXVtjSF1jKFtjSF1bY0hdNClbQ0gyXU4oW0NIM10pW0NIM10=

>  <s_i_glide_gridfile>  (1014) 
ATP-Grid

>  <s_lp_Force_Field>  (1014) 
OPLS_2005

>  <s_lp_Variant>  (1014) 
a4____174475____300740-4

>  <s_lp_label>  (1014) 
376_sdstereoexpander_1_neutralizer_1_epik_3_stereoizer_1

>  <s_m_source_file>  (1014) 
ATP-VSW-LIGPREP-003-in.maegz

>  <s_sd_BIOSOLVEIT.INFINISEE\_QUERY\_NAME>  (1014) 
Ref-Lig

>  <s_sd_BIOSOLVEIT.INFINISEE\_QUERY\_SMILES>  (1014) 
S(c1nc2c(cc1C[NH2+]Cc3ccc(cc3)C[NH+](C)C)cccc2)Cc4ccccc4

>  <s_sd_BIOSOLVEIT.INFINISEE\_REACTION\_NAME>  (1014) 
a4

>  <s_sd_BIOSOLVEIT.INFINISEE\_REAGENT1\_SMILES>  (1014) 
[R1*]N(Cc1ccc(cc1)CN(C)C)CC

>  <s_sd_BIOSOLVEIT.INFINISEE\_REAGENT2\_SMILES>  (1014) 
[R1*]CC=1C(=NN(c2ccccc2)C1)c3ccc([N+]([O-])=O)cc3

>  <s_sd_BIOSOLVEIT.INFINISEE\_SPACE>  (1014) 
FreedomSpace_5bn_2023-06

>  <s_vsw_compound_code>  (1014) 
12003

>  <s_vsw_variant>  (1014) 
12003-4

>  <r_epik_Charging_Adjusted_Penalty>  (1014) 
1.7421267046328299

>  <r_epik_Ionization_Penalty>  (1014) 
1.5886

>  <r_epik_Ionization_Penalty_Charging>  (1014) 
0.1341

>  <r_epik_Ionization_Penalty_Neutral>  (1014) 
1.4544999999999999

>  <r_epik_State_Penalty>  (1014) 
1.6081000000000001

>  <r_i_docking_score>  (1014) 
-2.9053056395160901

>  <r_i_glide_ecoul>  (1014) 
-7.1353669166564897

>  <r_i_glide_eff_state_penalty>  (1014) 
1.6081000000000001

>  <r_i_glide_einternal>  (1014) 
6.58695363998413

>  <r_i_glide_emodel>  (1014) 
-54.652096303837702

>  <r_i_glide_energy>  (1014) 
-42.038652896881104

>  <r_i_glide_erotb>  (1014) 
0.63871048246767104

>  <r_i_glide_esite>  (1014) 
-0.0383321375628876

>  <r_i_glide_evdw>  (1014) 
-34.903285980224602

>  <r_i_glide_gscore>  (1014) 
-4.5134056395160904

>  <r_i_glide_hbond>  (1014) 
0

>  <r_i_glide_ligand_efficiency>  (1014) 
-0.083008732557602702

>  <r_i_glide_ligand_efficiency_ln>  (1014) 
-0.637779067658373

>  <r_i_glide_ligand_efficiency_sa>  (1014) 
-0.27152706819883798

>  <r_i_glide_lipo>  (1014) 
-1.6771037003693301

>  <r_i_glide_metal>  (1014) 
-0

>  <r_i_glide_rewards>  (1014) 
-0.62121094754184603

>  <r_lp_Energy>  (1014) 
27.531510999999998

>  <r_qp_ACxDN^.5/SA>  (1014) 
0

>  <r_qp_CIQPlogS>  (1014) 
-5.5449999999999999

>  <r_qp_EA(eV)>  (1014) 
1.117

>  <r_qp_FISA>  (1014) 
108.878

>  <r_qp_FOSA>  (1014) 
271.12400000000002

>  <r_qp_IP(eV)>  (1014) 
8.9800000000000004

>  <r_qp_Jm>  (1014) 
0.00026204577799388701

>  <r_qp_PISA>  (1014) 
378.21499999999997

>  <r_qp_PSA>  (1014) 
69.540999999999997

>  <r_qp_PercentHumanOralAbsorption>  (1014) 
85.165000000000006

>  <r_qp_QPPCaco>  (1014) 
57.174999999999997

>  <r_qp_QPPMDCK>  (1014) 
27.466000000000001

>  <r_qp_QPlogBB>  (1014) 
-0.193

>  <r_qp_QPlogHERG>  (1014) 
-7.6509999999999998

>  <r_qp_QPlogKhsa>  (1014) 
0.92900000000000005

>  <r_qp_QPlogKp>  (1014) 
-5.5510000000000002

>  <r_qp_QPlogPC16>  (1014) 
15.206

>  <r_qp_QPlogPo/w>  (1014) 
4.5720000000000001

>  <r_qp_QPlogPoct>  (1014) 
21.497

>  <r_qp_QPlogPw>  (1014) 
9.0020000000000007

>  <r_qp_QPlogS>  (1014) 
-3.702

>  <r_qp_QPpolrz>  (1014) 
50.985999999999997

>  <r_qp_SASA>  (1014) 
758.21799999999996

>  <r_qp_SAamideO>  (1014) 
0

>  <r_qp_SAfluorine>  (1014) 
0

>  <r_qp_WPSA>  (1014) 
0

>  <r_qp_accptHB>  (1014) 
6

>  <r_qp_dip^2/V>  (1014) 
0.082731899999999997

>  <r_qp_dipole>  (1014) 
11.013

>  <r_qp_donorHB>  (1014) 
0

>  <r_qp_glob>  (1014) 
0.82307059999999999

>  <r_qp_mol_MW>  (1014) 
469.58499999999998

>  <r_qp_volume>  (1014) 
1465.8820000000001

>  <r_sd_BIOSOLVEIT.INFINISEE\_FTREES\_SIMILARITY>  (1014) 
0.91000000000000003

>  <r_sd_BIOSOLVEIT.LOGP>  (1014) 
2.6970000000000001

>  <r_sd_BIOSOLVEIT.MOLECULAR\_WEIGHT>  (1014) 
471.60199999999998

>  <r_sd_BIOSOLVEIT.TPSA>  (1014) 
72.519999999999996

>  <i_epik_Tot_Q>  (1014) 
1

>  <i_epik_Tot_abs_Q>  (1014) 
3

>  <i_f3d_flags>  (1014) 
0

>  <i_i_glide_confnum>  (1014) 
9

>  <i_i_glide_lignum>  (1014) 
226

>  <i_i_glide_posenum>  (1014) 
8

>  <i_i_glide_rotatable_bonds>  (1014) 
10

>  <i_lp_mmshare_version>  (1014) 
65135

>  <i_m_ct_format>  (1014) 
2

>  <i_m_source_file_index>  (1014) 
376

>  <i_qp_#NandO>  (1014) 
7

>  <i_qp_#acid>  (1014) 
0

>  <i_qp_#amide>  (1014) 
0

>  <i_qp_#amidine>  (1014) 
0

>  <i_qp_#amine>  (1014) 
2

>  <i_qp_#in34>  (1014) 
0

>  <i_qp_#in56>  (1014) 
23

>  <i_qp_#metab>  (1014) 
6

>  <i_qp_#nonHatm>  (1014) 
35

>  <i_qp_#noncon>  (1014) 
0

>  <i_qp_#ringatoms>  (1014) 
23

>  <i_qp_#rotor>  (1014) 
8

>  <i_qp_#rtvFG>  (1014) 
0

>  <i_qp_#stars>  (1014) 
0

>  <i_qp_CNS>  (1014) 
1

>  <i_qp_HumanOralAbsorption>  (1014) 
3

>  <i_qp_RuleOfFive>  (1014) 
0

>  <i_qp_RuleOfThree>  (1014) 
0

>  <i_sd_BIOSOLVEIT.INFINISEE\_REAGENT1\_NAME>  (1014) 
174475

>  <i_sd_BIOSOLVEIT.INFINISEE\_REAGENT2\_NAME>  (1014) 
300740

>  <i_sd_BIOSOLVEIT.INFINISEE\_RESULT\_RANK>  (1014) 
47475

>  <i_sd_version>  (1014) 
0

>  <b_lp_Chiralities_Consistent>  (1014) 
1

>  <b_sd_chiral_flag>  (1014) 
0

>  <canonical_id>  (1014) 
ATP-HTVS-A27D1CDFC59C

>  <compound_code>  (1014) 
12003

>  <title>  (1014) 
a4____174475____300740

>  <variant>  (1014) 
12003-4

>  <source_file>  (1014) 
运行/运行/ATP-VSW/ATP-VSW-DOCK_HTVS_1-003_lib/ATP-VSW-DOCK_HTVS_1-003_lib.mae

>  <canonical_smiles>  (1014) 
CC[N@H+](Cc1ccc(CN(C)C)cc1)Cc1cn(-c2ccccc2)nc1-c1ccc([N+](=O)[O-])cc1

>  <scaffold>  (1014) 
c1ccc(C[NH2+]Cc2cn(-c3ccccc3)nc2-c2ccccc2)cc1

>  <molecular_formula>  (1014) 
C28H32N5O2+

$$$$
ATP-HTVS-A286808FA942
     RDKit          3D

 50 53  0  0  0  0  0  0  0  0999 V2000
  199.3714  185.6206  159.3331 Cl  0  0  0  0  0  0  0  0  0  0  0  0
  198.5526  184.4260  158.3991 C   0  0  0  0  0  0  0  0  0  0  0  0
  197.2050  184.0020  158.6243 C   0  0  0  0  0  0  0  0  0  0  0  0
  196.6815  182.9923  157.7828 C   0  0  0  0  0  0  0  0  0  0  0  0
  197.4635  182.4064  156.7673 C   0  0  0  0  0  0  0  0  0  0  0  0
  198.7924  182.8271  156.5695 C   0  0  0  0  0  0  0  0  0  0  0  0
  199.3209  183.8425  157.3800 C   0  0  0  0  0  0  0  0  0  0  0  0
  199.6546  182.1932  155.4967 C   0  0  2  0  0  0  0  0  0  0  0  0
  196.3304  184.5487  159.7266 C   0  0  0  0  0  0  0  0  0  0  0  0
  195.5395  183.8198  160.3248 O   0  0  0  0  0  0  0  0  0  0  0  0
  196.4296  185.8669  159.9335 N   0  0  0  0  0  0  0  0  0  0  0  0
  195.6242  186.7583  160.6855 C   0  0  0  0  0  0  0  0  0  0  0  0
  194.5830  186.3193  161.4301 N   0  0  0  0  0  0  0  0  0  0  0  0
  193.8308  187.1855  162.1356 C   0  0  0  0  0  0  0  0  0  0  0  0
  194.1075  188.5748  162.1297 C   0  0  0  0  0  0  0  0  0  0  0  0
  195.1756  189.0443  161.3469 C   0  0  0  0  0  0  0  0  0  0  0  0
  195.9493  188.1407  160.5677 C   0  0  0  0  0  0  0  0  0  0  0  0
  196.9884  188.6548  159.7286 N   0  0  0  0  0  0  0  0  0  0  0  0
  197.2581  188.2585  158.3882 C   0  0  0  0  0  0  0  0  0  0  0  0
  198.5214  188.4096  157.7515 C   0  0  0  0  0  0  0  0  0  0  0  0
  198.7553  187.9041  156.4573 C   0  0  0  0  0  0  0  0  0  0  0  0
  197.7371  187.2439  155.7482 C   0  0  0  0  0  0  0  0  0  0  0  0
  196.4795  187.1094  156.3459 C   0  0  0  0  0  0  0  0  0  0  0  0
  196.2509  187.6016  157.6409 C   0  0  0  0  0  0  0  0  0  0  0  0
  198.0538  189.2916  160.5131 C   0  0  1  0  0  0  0  0  0  0  0  0
  197.7581  190.6492  160.9845 C   0  0  0  0  0  0  0  0  0  0  0  0
  197.5445  191.7193  161.3633 N   0  0  0  0  0  0  0  0  0  0  0  0
  193.3422  189.4675  162.9123 C   0  0  0  0  0  0  0  0  0  0  0  0
  192.3140  188.9703  163.7271 C   0  0  0  0  0  0  0  0  0  0  0  0
  192.0361  187.5890  163.7528 C   0  0  0  0  0  0  0  0  0  0  0  0
  192.7877  186.7115  162.9478 C   0  0  0  0  0  0  0  0  0  0  0  0
  195.6660  182.6399  157.9087 H   0  0  0  0  0  0  0  0  0  0  0  0
  197.0452  181.6271  156.1452 H   0  0  0  0  0  0  0  0  0  0  0  0
  200.3442  184.1680  157.2525 H   0  0  0  0  0  0  0  0  0  0  0  0
  200.5269  182.8116  155.2775 H   0  0  0  0  0  0  0  0  0  0  0  0
  199.0833  182.0729  154.5767 H   0  0  0  0  0  0  0  0  0  0  0  0
  200.0029  181.2136  155.8256 H   0  0  0  0  0  0  0  0  0  0  0  0
  197.0660  186.3464  159.3157 H   0  0  0  0  0  0  0  0  0  0  0  0
  195.3590  190.1061  161.3141 H   0  0  0  0  0  0  0  0  0  0  0  0
  199.3912  188.8382  158.2229 H   0  0  0  0  0  0  0  0  0  0  0  0
  199.7328  188.0121  156.0160 H   0  0  0  0  0  0  0  0  0  0  0  0
  197.8986  186.8762  154.7423 H   0  0  0  0  0  0  0  0  0  0  0  0
  195.6739  186.6452  155.7931 H   0  0  0  0  0  0  0  0  0  0  0  0
  195.2541  187.4537  158.0387 H   0  0  0  0  0  0  0  0  0  0  0  0
  198.2331  188.6099  161.3446 H   0  0  0  0  0  0  0  0  0  0  0  0
  199.0222  189.4335  160.0289 H   0  0  0  0  0  0  0  0  0  0  0  0
  193.5551  190.5272  162.8986 H   0  0  0  0  0  0  0  0  0  0  0  0
  191.7334  189.6419  164.3434 H   0  0  0  0  0  0  0  0  0  0  0  0
  191.2588  187.1949  164.3936 H   0  0  0  0  0  0  0  0  0  0  0  0
  192.5863  185.6515  162.9755 H   0  0  0  0  0  0  0  0  0  0  0  0
  1  2  1  0
  2  3  2  0
  2  7  1  0
  3  4  1  0
  3  9  1  0
  4  5  2  0
  4 32  1  0
  5  6  1  0
  5 33  1  0
  6  7  2  0
  6  8  1  0
  7 34  1  0
  8 35  1  6
  8 36  1  0
  8 37  1  0
  9 10  2  0
  9 11  1  0
 11 12  1  0
 11 38  1  0
 12 13  2  0
 12 17  1  0
 13 14  1  0
 14 15  1  0
 14 31  2  0
 15 16  1  0
 15 28  2  0
 16 17  2  0
 16 39  1  0
 17 18  1  0
 18 19  1  0
 18 25  1  0
 19 20  2  0
 19 24  1  0
 20 21  1  0
 20 40  1  0
 21 22  2  0
 21 41  1  0
 22 23  1  0
 22 42  1  0
 23 24  2  0
 23 43  1  0
 24 44  1  0
 25 26  1  0
 25 45  1  1
 25 46  1  0
 26 27  3  0
 28 29  1  0
 28 47  1  0
 29 30  2  0
 29 48  1  0
 30 31  1  0
 30 49  1  0
 31 50  1  0
M  END
>  <s_epik_cmdline>  (1015) 
J2VwaWtfcHl0aG9uJywgJy1waCcsICc3LjAwMDAwMCcsICctcGh0JywgJzIuMDAwMDAwJywgJy1tcycsICcxNicsICctdG4nLCAnOCcsICctbWEnLCAnMjAwJywgJy1pbWFlJywgJzxpbmZpbGUubWFlPicsICctb21hZScsICc8b3V0ZmlsZS5tYWU+Jw==

>  <s_epik_input>  (1015) 
W2NIXTFjKFtDSDNdKVtjSF1bY0hdYyhjMUNsKUMoPU8pW05IXWMobjIpYyhbY0hdYyhjMjMpW2NIXVtjSF1bY0hdW2NIXTMpTihbQ0gyXUMjTiljNFtjSF1bY0hdW2NIXVtjSF1bY0hdNA==

>  <s_i_glide_gridfile>  (1015) 
ATP-Grid

>  <s_lp_Force_Field>  (1015) 
OPLS_2005

>  <s_lp_Variant>  (1015) 
rxn502b____EMOL918492____EMOL44466703____EMOL712348-1

>  <s_lp_label>  (1015) 
2546_sdstereoexpander_1_neutralizer_1_epik_1_stereoizer_1

>  <s_m_source_file>  (1015) 
ATP-VSW-LIGPREP-002-in.maegz

>  <s_sd_BIOSOLVEIT.INFINISEE\_QUERY\_NAME>  (1015) 
Ref-Lig

>  <s_sd_BIOSOLVEIT.INFINISEE\_QUERY\_SMILES>  (1015) 
S(c1nc2c(cc1C[NH2+]Cc3ccc(cc3)C[NH+](C)C)cccc2)Cc4ccccc4

>  <s_sd_BIOSOLVEIT.INFINISEE\_REACTION\_NAME>  (1015) 
rxn502b

>  <s_sd_BIOSOLVEIT.INFINISEE\_REAGENT1\_NAME>  (1015) 
EMOL918492

>  <s_sd_BIOSOLVEIT.INFINISEE\_REAGENT1\_SMILES>  (1015) 
Clc1c(ccc(c1)C)C(=O)O

>  <s_sd_BIOSOLVEIT.INFINISEE\_REAGENT2\_NAME>  (1015) 
EMOL44466703

>  <s_sd_BIOSOLVEIT.INFINISEE\_REAGENT2\_SMILES>  (1015) 
Brc1c(nc2c(c1)cccc2)N

>  <s_sd_BIOSOLVEIT.INFINISEE\_REAGENT3\_NAME>  (1015) 
EMOL712348

>  <s_sd_BIOSOLVEIT.INFINISEE\_REAGENT3\_SMILES>  (1015) 
N#CCNc1ccccc1

>  <s_sd_BIOSOLVEIT.INFINISEE\_SPACE>  (1015) 
eXplore_7tr_2022-12

>  <s_vsw_compound_code>  (1015) 
81442

>  <s_vsw_variant>  (1015) 
81442-1

>  <r_epik_Charging_Adjusted_Penalty>  (1015) 
0

>  <r_epik_Ionization_Penalty>  (1015) 
0

>  <r_epik_Ionization_Penalty_Charging>  (1015) 
0

>  <r_epik_Ionization_Penalty_Neutral>  (1015) 
0

>  <r_epik_State_Penalty>  (1015) 
-0

>  <r_i_docking_score>  (1015) 
-4.5188679704144299

>  <r_i_glide_ecoul>  (1015) 
-7.1068258285522496

>  <r_i_glide_eff_state_penalty>  (1015) 
-0

>  <r_i_glide_einternal>  (1015) 
5.9829211235046396

>  <r_i_glide_emodel>  (1015) 
-38.814975228855999

>  <r_i_glide_energy>  (1015) 
-31.979851722717299

>  <r_i_glide_erotb>  (1015) 
0.54461146686817496

>  <r_i_glide_esite>  (1015) 
-0.099840466240706305

>  <r_i_glide_evdw>  (1015) 
-24.873025894165

>  <r_i_glide_gscore>  (1015) 
-4.5188679704144299

>  <r_i_glide_hbond>  (1015) 
-0.15790443231828699

>  <r_i_glide_ligand_efficiency>  (1015) 
-0.14576993452949799

>  <r_i_glide_ligand_efficiency_ln>  (1015) 
-1.01914321400013

>  <r_i_glide_ligand_efficiency_sa>  (1015) 
-0.45791885150716199

>  <r_i_glide_lipo>  (1015) 
-1.6824030790808999

>  <r_i_glide_metal>  (1015) 
-0

>  <r_i_glide_rewards>  (1015) 
-0.81365629065162703

>  <r_lp_Energy>  (1015) 
35.415959999999998

>  <r_lp_tautomer_probability>  (1015) 
1

>  <r_qp_ACxDN^.5/SA>  (1015) 
0.0078271

>  <r_qp_CIQPlogS>  (1015) 
-8.0169999999999995

>  <r_qp_EA(eV)>  (1015) 
1.071

>  <r_qp_FISA>  (1015) 
104.05800000000001

>  <r_qp_FOSA>  (1015) 
116.15900000000001

>  <r_qp_IP(eV)>  (1015) 
8.7810000000000006

>  <r_qp_Jm>  (1015) 
0.00160643763909024

>  <r_qp_PISA>  (1015) 
456.38499999999999

>  <r_qp_PSA>  (1015) 
69.936999999999998

>  <r_qp_PercentHumanOralAbsorption>  (1015) 
100

>  <r_qp_QPPCaco>  (1015) 
1021.227

>  <r_qp_QPPMDCK>  (1015) 
703.21600000000001

>  <r_qp_QPlogBB>  (1015) 
-0.78000000000000003

>  <r_qp_QPlogHERG>  (1015) 
-6.7110000000000003

>  <r_qp_QPlogKhsa>  (1015) 
0.78400000000000003

>  <r_qp_QPlogKp>  (1015) 
-1.254

>  <r_qp_QPlogPC16>  (1015) 
14.550000000000001

>  <r_qp_QPlogPo/w>  (1015) 
4.976

>  <r_qp_QPlogPoct>  (1015) 
20.565000000000001

>  <r_qp_QPlogPw>  (1015) 
10.789999999999999

>  <r_qp_QPlogS>  (1015) 
-7.1710000000000003

>  <r_qp_QPpolrz>  (1015) 
45.871000000000002

>  <r_qp_SASA>  (1015) 
702.68399999999997

>  <r_qp_SAamideO>  (1015) 
0

>  <r_qp_SAfluorine>  (1015) 
0

>  <r_qp_WPSA>  (1015) 
26.082000000000001

>  <r_qp_accptHB>  (1015) 
5.5

>  <r_qp_dip^2/V>  (1015) 
0.045192400000000001

>  <r_qp_dipole>  (1015) 
7.6269999999999998

>  <r_qp_donorHB>  (1015) 
1

>  <r_qp_glob>  (1015) 
0.81445449999999997

>  <r_qp_mol_MW>  (1015) 
426.904

>  <r_qp_volume>  (1015) 
1287.338

>  <r_sd_BIOSOLVEIT.INFINISEE\_FTREES\_SIMILARITY>  (1015) 
0.91300000000000003

>  <r_sd_BIOSOLVEIT.LOGP>  (1015) 
6.1105999999999998

>  <r_sd_BIOSOLVEIT.MOLECULAR\_WEIGHT>  (1015) 
426.90499999999997

>  <r_sd_BIOSOLVEIT.TPSA>  (1015) 
69.019999999999996

>  <i_epik_Tot_Q>  (1015) 
0

>  <i_epik_Tot_abs_Q>  (1015) 
0

>  <i_f3d_flags>  (1015) 
0

>  <i_i_glide_confnum>  (1015) 
3

>  <i_i_glide_lignum>  (1015) 
1131

>  <i_i_glide_posenum>  (1015) 
20

>  <i_i_glide_rotatable_bonds>  (1015) 
6

>  <i_lp_mmshare_version>  (1015) 
65135

>  <i_m_ct_format>  (1015) 
2

>  <i_m_source_file_index>  (1015) 
2546

>  <i_qp_#NandO>  (1015) 
5

>  <i_qp_#acid>  (1015) 
0

>  <i_qp_#amide>  (1015) 
0

>  <i_qp_#amidine>  (1015) 
0

>  <i_qp_#amine>  (1015) 
0

>  <i_qp_#in34>  (1015) 
0

>  <i_qp_#in56>  (1015) 
22

>  <i_qp_#metab>  (1015) 
4

>  <i_qp_#nonHatm>  (1015) 
31

>  <i_qp_#noncon>  (1015) 
0

>  <i_qp_#ringatoms>  (1015) 
22

>  <i_qp_#rotor>  (1015) 
6

>  <i_qp_#rtvFG>  (1015) 
0

>  <i_qp_#stars>  (1015) 
2

>  <i_qp_CNS>  (1015) 
-1

>  <i_qp_HumanOralAbsorption>  (1015) 
1

>  <i_qp_RuleOfFive>  (1015) 
0

>  <i_qp_RuleOfThree>  (1015) 
1

>  <i_sd_BIOSOLVEIT.INFINISEE\_RESULT\_RANK>  (1015) 
35235

>  <i_sd_version>  (1015) 
0

>  <b_lp_Chiralities_Consistent>  (1015) 
1

>  <b_sd_chiral_flag>  (1015) 
0

>  <canonical_id>  (1015) 
ATP-HTVS-A286808FA942

>  <compound_code>  (1015) 
81442

>  <title>  (1015) 
rxn502b____EMOL918492____EMOL44466703____EMOL712348

>  <variant>  (1015) 
81442-1

>  <source_file>  (1015) 
运行/运行/ATP-VSW/ATP-VSW-DOCK_HTVS_1-002_lib.maegz

>  <canonical_smiles>  (1015) 
Cc1ccc(C(=O)Nc2nc3ccccc3cc2N(CC#N)c2ccccc2)c(Cl)c1

>  <scaffold>  (1015) 
O=C(Nc1nc2ccccc2cc1Nc1ccccc1)c1ccccc1

>  <molecular_formula>  (1015) 
C25H19ClN4O

$$$$
ATP-HTVS-A28F95EF9540
     RDKit          3D

 55 58  0  0  0  0  0  0  0  0999 V2000
  200.5788  188.7038  152.0772 Br  0  0  0  0  0  0  0  0  0  0  0  0
  200.4813  187.1775  153.2068 C   0  0  0  0  0  0  0  0  0  0  0  0
  199.2445  186.7617  153.7333 C   0  0  0  0  0  0  0  0  0  0  0  0
  199.1726  185.6452  154.5939 C   0  0  0  0  0  0  0  0  0  0  0  0
  200.3708  184.9719  154.9517 C   0  0  0  0  0  0  0  0  0  0  0  0
  200.3770  183.8614  155.8318 N   0  0  0  0  0  0  0  0  0  0  0  0
  199.6229  183.7212  156.9311 C   0  0  0  0  0  0  0  0  0  0  0  0
  199.6111  182.6643  157.5540 O   0  0  0  0  0  0  0  0  0  0  0  0
  198.7731  184.9246  157.4076 C   0  0  1  0  0  0  0  0  0  0  0  0
  197.6375  185.3928  156.5330 N   0  0  0  0  0  0  0  0  0  0  0  0
  197.8099  185.1420  155.0958 C   0  0  2  0  0  0  0  0  0  0  0  0
  197.5582  183.6821  154.6893 C   0  0  0  0  0  0  0  0  0  0  0  0
  198.0400  183.1897  153.4558 C   0  0  0  0  0  0  0  0  0  0  0  0
  197.9305  181.8223  153.1394 C   0  0  0  0  0  0  0  0  0  0  0  0
  197.3115  180.9323  154.0438 C   0  0  0  0  0  0  0  0  0  0  0  0
  196.7870  181.4200  155.2558 C   0  0  0  0  0  0  0  0  0  0  0  0
  196.8957  182.7850  155.5639 C   0  0  0  0  0  0  0  0  0  0  0  0
  197.2637  186.7917  156.7894 C   0  0  1  0  0  0  0  0  0  0  0  0
  196.8883  187.0305  158.2640 C   0  0  0  0  0  0  0  0  0  0  0  0
  197.4579  188.0423  159.0955 C   0  0  0  0  0  0  0  0  0  0  0  0
  196.9548  188.1814  160.4266 C   0  0  0  0  0  0  0  0  0  0  0  0
  195.9481  187.3342  160.9308 C   0  0  0  0  0  0  0  0  0  0  0  0
  195.4090  186.3224  160.1307 C   0  0  0  0  0  0  0  0  0  0  0  0
  195.8791  186.1788  158.8128 C   0  0  0  0  0  0  0  0  0  0  0  0
  198.5196  189.0742  158.6331 C   0  0  1  0  0  0  0  0  0  0  0  0
  199.5159  188.5569  157.6332 C   0  0  0  0  0  0  0  0  0  0  0  0
  200.2739  188.1857  156.8884 N   0  0  0  0  0  0  0  0  0  0  0  0
  197.8379  190.3323  158.0993 C   0  0  2  0  0  0  0  0  0  0  0  0
  199.4852  189.5282  159.7236 C   0  0  2  0  0  0  0  0  0  0  0  0
  201.5944  185.3582  154.3704 C   0  0  0  0  0  0  0  0  0  0  0  0
  201.6531  186.4610  153.5034 C   0  0  0  0  0  0  0  0  0  0  0  0
  198.3652  187.3149  153.4581 H   0  0  0  0  0  0  0  0  0  0  0  0
  200.9579  183.0798  155.5656 H   0  0  0  0  0  0  0  0  0  0  0  0
  198.3985  184.6833  158.4042 H   0  0  0  0  0  0  0  0  0  0  0  0
  199.4835  185.7420  157.5451 H   0  0  0  0  0  0  0  0  0  0  0  0
  197.0252  185.6986  154.5695 H   0  0  0  0  0  0  0  0  0  0  0  0
  198.5739  183.8394  152.7756 H   0  0  0  0  0  0  0  0  0  0  0  0
  198.3739  181.4461  152.2245 H   0  0  0  0  0  0  0  0  0  0  0  0
  197.2442  179.8788  153.8195 H   0  0  0  0  0  0  0  0  0  0  0  0
  196.3506  180.7463  155.9871 H   0  0  0  0  0  0  0  0  0  0  0  0
  196.5204  183.1126  156.5220 H   0  0  0  0  0  0  0  0  0  0  0  0
  197.9954  187.4657  156.3904 H   0  0  0  0  0  0  0  0  0  0  0  0
  196.3046  186.9756  156.2572 H   0  0  0  0  0  0  0  0  0  0  0  0
  197.3143  188.9446  161.0949 H   0  0  0  0  0  0  0  0  0  0  0  0
  195.5874  187.4626  161.9513 H   0  0  0  0  0  0  0  0  0  0  0  0
  194.6315  185.6754  160.5108 H   0  0  0  0  0  0  0  0  0  0  0  0
  195.4373  185.4094  158.2056 H   0  0  0  0  0  0  0  0  0  0  0  0
  197.1550  190.0880  157.2975 H   0  0  0  0  0  0  0  0  0  0  0  0
  198.5620  191.0649  157.7316 H   0  0  0  0  0  0  0  0  0  0  0  0
  197.2514  190.8256  158.8799 H   0  0  0  0  0  0  0  0  0  0  0  0
  199.9921  188.6821  160.1878 H   0  0  0  0  0  0  0  0  0  0  0  0
  198.9927  190.0817  160.5345 H   0  0  0  0  0  0  0  0  0  0  0  0
  200.2588  190.1976  159.3392 H   0  0  0  0  0  0  0  0  0  0  0  0
  202.4977  184.8090  154.5955 H   0  0  0  0  0  0  0  0  0  0  0  0
  202.5979  186.7685  153.0817 H   0  0  0  0  0  0  0  0  0  0  0  0
  1  2  1  0
  2  3  2  0
  2 31  1  0
  3  4  1  0
  3 32  1  0
  4  5  2  0
  4 11  1  0
  5  6  1  0
  5 30  1  0
  6  7  1  0
  6 33  1  0
  7  8  2  0
  7  9  1  0
  9 10  1  0
  9 34  1  1
  9 35  1  0
 10 11  1  0
 10 18  1  0
 11 12  1  0
 11 36  1  6
 12 13  2  0
 12 17  1  0
 13 14  1  0
 13 37  1  0
 14 15  2  0
 14 38  1  0
 15 16  1  0
 15 39  1  0
 16 17  2  0
 16 40  1  0
 17 41  1  0
 18 19  1  0
 18 42  1  6
 18 43  1  0
 19 20  1  0
 19 24  2  0
 20 21  2  0
 20 25  1  0
 21 22  1  0
 21 44  1  0
 22 23  2  0
 22 45  1  0
 23 24  1  0
 23 46  1  0
 24 47  1  0
 25 26  1  6
 25 28  1  0
 25 29  1  0
 26 27  3  0
 28 48  1  6
 28 49  1  0
 28 50  1  0
 29 51  1  1
 29 52  1  0
 29 53  1  0
 30 31  2  0
 30 54  1  0
 31 55  1  0
M  END
>  <s_epik_cmdline>  (1016) 
J2VwaWtfcHl0aG9uJywgJy1waCcsICc3LjAwMDAwMCcsICctcGh0JywgJzIuMDAwMDAwJywgJy1tcycsICcxNicsICctdG4nLCAnOCcsICctbWEnLCAnMjAwJywgJy1pbWFlJywgJzxpbmZpbGUubWFlPicsICctb21hZScsICc8b3V0ZmlsZS5tYWU+Jw==

>  <s_epik_input>  (1016) 
QnJjKFtjSF0xKVtjSF1bY0hdYyhjMTIpW05IXUMoPU8pW0NIMl1OKFtDQEBIXTJjM1tjSF1bY0hdW2NIXVtjSF1bY0hdMylbQ0gyXWM0YyhDKEMjTikoW0NIM10pW0NIM10pW2NIXVtjSF1bY0hdW2NIXTQ=

>  <s_i_glide_gridfile>  (1016) 
ATP-Grid

>  <s_lp_Force_Field>  (1016) 
OPLS_2005

>  <s_lp_Variant>  (1016) 
m_2230bdc____17626620____7347192-1

>  <s_lp_label>  (1016) 
1416_sdstereoexpander_1_neutralizer_1_epik_1_stereoizer_1

>  <s_m_source_file>  (1016) 
ATP-VSW-LIGPREP-001-in.maegz

>  <s_sd_BIOSOLVEIT.INFINISEE\_QUERY\_NAME>  (1016) 
Ref-Lig

>  <s_sd_BIOSOLVEIT.INFINISEE\_QUERY\_SMILES>  (1016) 
S(c1nc2c(cc1C[NH2+]Cc3ccc(cc3)C[NH+](C)C)cccc2)Cc4ccccc4

>  <s_sd_BIOSOLVEIT.INFINISEE\_REACTION\_NAME>  (1016) 
m_2230bdc

>  <s_sd_BIOSOLVEIT.INFINISEE\_REAGENT1\_SMILES>  (1016) 
[R1*]N1C(c2c(NC(=O)C1)ccc(Br)c2)c3ccccc3

>  <s_sd_BIOSOLVEIT.INFINISEE\_REAGENT2\_SMILES>  (1016) 
[R1*]Cc1c(cccc1)C(C#N)(C)C

>  <s_sd_BIOSOLVEIT.INFINISEE\_SPACE>  (1016) 
REALSpace_44bn_2023-08

>  <s_vsw_compound_code>  (1016) 
45281

>  <s_vsw_variant>  (1016) 
45281-1

>  <r_epik_Charging_Adjusted_Penalty>  (1016) 
0.0073316794013014502

>  <r_epik_Ionization_Penalty>  (1016) 
0.0073000000000000001

>  <r_epik_Ionization_Penalty_Charging>  (1016) 
0

>  <r_epik_Ionization_Penalty_Neutral>  (1016) 
0.0073000000000000001

>  <r_epik_State_Penalty>  (1016) 
0.0073000000000000001

>  <r_i_docking_score>  (1016) 
-0.78656020497421797

>  <r_i_glide_ecoul>  (1016) 
-1.51337110996246

>  <r_i_glide_eff_state_penalty>  (1016) 
0.0073000000000000001

>  <r_i_glide_einternal>  (1016) 
1.3088949918746899

>  <r_i_glide_emodel>  (1016) 
-30.463033567280199

>  <r_i_glide_energy>  (1016) 
-29.5971342325211

>  <r_i_glide_erotb>  (1016) 
0.35964986527653697

>  <r_i_glide_esite>  (1016) 
0

>  <r_i_glide_evdw>  (1016) 
-28.083763122558601

>  <r_i_glide_gscore>  (1016) 
-0.79386020497421805

>  <r_i_glide_hbond>  (1016) 
0

>  <r_i_glide_ligand_efficiency>  (1016) 
-0.025372909837877999

>  <r_i_glide_ligand_efficiency_ln>  (1016) 
-0.177393431397047

>  <r_i_glide_ligand_efficiency_sa>  (1016) 
-0.079705967968344796

>  <r_i_glide_lipo>  (1016) 
-1.28413877633586

>  <r_i_glide_metal>  (1016) 
-0

>  <r_i_glide_rewards>  (1016) 
1.7618225287074001

>  <r_lp_Energy>  (1016) 
45.318627999999997

>  <r_qp_ACxDN^.5/SA>  (1016) 
0.0087072

>  <r_qp_CIQPlogS>  (1016) 
-7.3700000000000001

>  <r_qp_EA(eV)>  (1016) 
0.45900000000000002

>  <r_qp_FISA>  (1016) 
92.813999999999993

>  <r_qp_FOSA>  (1016) 
145.971

>  <r_qp_IP(eV)>  (1016) 
9.048

>  <r_qp_Jm>  (1016) 
0.000107051891581397

>  <r_qp_PISA>  (1016) 
375.14499999999998

>  <r_qp_PSA>  (1016) 
62.915999999999997

>  <r_qp_PercentHumanOralAbsorption>  (1016) 
100

>  <r_qp_QPPCaco>  (1016) 
325.56700000000001

>  <r_qp_QPPMDCK>  (1016) 
419.904

>  <r_qp_QPlogBB>  (1016) 
0.021999999999999999

>  <r_qp_QPlogHERG>  (1016) 
-6.6829999999999998

>  <r_qp_QPlogKhsa>  (1016) 
0.81799999999999995

>  <r_qp_QPlogKp>  (1016) 
-3.5870000000000002

>  <r_qp_QPlogPC16>  (1016) 
14.353999999999999

>  <r_qp_QPlogPo/w>  (1016) 
4.5149999999999997

>  <r_qp_QPlogPoct>  (1016) 
21.129999999999999

>  <r_qp_QPlogPw>  (1016) 
11.079000000000001

>  <r_qp_QPlogS>  (1016) 
-6.0590000000000002

>  <r_qp_QPpolrz>  (1016) 
46.994999999999997

>  <r_qp_SASA>  (1016) 
689.08600000000001

>  <r_qp_SAamideO>  (1016) 
0

>  <r_qp_SAfluorine>  (1016) 
0

>  <r_qp_WPSA>  (1016) 
75.155000000000001

>  <r_qp_accptHB>  (1016) 
6

>  <r_qp_dip^2/V>  (1016) 
0.0217106

>  <r_qp_dipole>  (1016) 
5.3179999999999996

>  <r_qp_donorHB>  (1016) 
1

>  <r_qp_glob>  (1016) 
0.83712889999999995

>  <r_qp_mol_MW>  (1016) 
474.399

>  <r_qp_volume>  (1016) 
1302.7190000000001

>  <r_sd_BIOSOLVEIT.INFINISEE\_FTREES\_SIMILARITY>  (1016) 
0.90800000000000003

>  <r_sd_BIOSOLVEIT.LOGP>  (1016) 
4.3768799999999999

>  <r_sd_BIOSOLVEIT.MOLECULAR\_WEIGHT>  (1016) 
475.40800000000002

>  <r_sd_BIOSOLVEIT.TPSA>  (1016) 
57.329999999999998

>  <i_epik_Tot_Q>  (1016) 
0

>  <i_epik_Tot_abs_Q>  (1016) 
0

>  <i_f3d_flags>  (1016) 
0

>  <i_i_glide_confnum>  (1016) 
1

>  <i_i_glide_lignum>  (1016) 
372

>  <i_i_glide_posenum>  (1016) 
12

>  <i_i_glide_rotatable_bonds>  (1016) 
4

>  <i_lp_mmshare_version>  (1016) 
65135

>  <i_m_ct_format>  (1016) 
2

>  <i_m_source_file_index>  (1016) 
1416

>  <i_qp_#NandO>  (1016) 
4

>  <i_qp_#acid>  (1016) 
0

>  <i_qp_#amide>  (1016) 
0

>  <i_qp_#amidine>  (1016) 
0

>  <i_qp_#amine>  (1016) 
1

>  <i_qp_#in34>  (1016) 
0

>  <i_qp_#in56>  (1016) 
18

>  <i_qp_#metab>  (1016) 
7

>  <i_qp_#nonHatm>  (1016) 
31

>  <i_qp_#noncon>  (1016) 
2

>  <i_qp_#ringatoms>  (1016) 
23

>  <i_qp_#rotor>  (1016) 
4

>  <i_qp_#rtvFG>  (1016) 
0

>  <i_qp_#stars>  (1016) 
0

>  <i_qp_CNS>  (1016) 
1

>  <i_qp_HumanOralAbsorption>  (1016) 
3

>  <i_qp_RuleOfFive>  (1016) 
0

>  <i_qp_RuleOfThree>  (1016) 
2

>  <i_sd_BIOSOLVEIT.INFINISEE\_REAGENT1\_NAME>  (1016) 
17626620

>  <i_sd_BIOSOLVEIT.INFINISEE\_REAGENT2\_NAME>  (1016) 
7347192

>  <i_sd_BIOSOLVEIT.INFINISEE\_RESULT\_RANK>  (1016) 
53777

>  <i_sd_version>  (1016) 
0

>  <b_lp_Chiralities_Consistent>  (1016) 
1

>  <b_sd_chiral_flag>  (1016) 
0

>  <canonical_id>  (1016) 
ATP-HTVS-A28F95EF9540

>  <compound_code>  (1016) 
45281

>  <title>  (1016) 
m_2230bdc____17626620____7347192

>  <variant>  (1016) 
45281-1

>  <source_file>  (1016) 
运行/运行/ATP-VSW/ATP-VSW-DOCK_HTVS_1-001_lib/ATP-VSW-DOCK_HTVS_1-001_lib

>  <canonical_smiles>  (1016) 
CC(C)(C#N)c1ccccc1CN1CC(=O)Nc2ccc(Br)cc2[C@H]1c1ccccc1

>  <scaffold>  (1016) 
O=C1CN(Cc2ccccc2)C(c2ccccc2)c2ccccc2N1

>  <molecular_formula>  (1016) 
C26H24BrN3O

$$$$
ATP-HTVS-A2CFD20ABAD2
     RDKit          3D

 61 64  0  0  0  0  0  0  0  0999 V2000
  198.9557  184.0894  156.0539 O   0  0  0  0  0  0  0  0  0  0  0  0
  197.8932  183.4763  155.9720 C   0  0  0  0  0  0  0  0  0  0  0  0
  197.1456  183.4062  154.8529 N   0  0  0  0  0  0  0  0  0  0  0  0
  197.4227  184.0111  153.5898 C   0  0  0  0  0  0  0  0  0  0  0  0
  197.0103  183.3739  152.3939 C   0  0  0  0  0  0  0  0  0  0  0  0
  196.3490  182.1320  152.4611 N   0  0  0  0  0  0  0  0  0  0  0  0
  197.1229  180.9967  151.9833 C   0  0  1  0  0  0  0  0  0  0  0  0
  196.3229  180.1347  150.9789 C   0  0  1  0  0  0  0  0  0  0  0  0
  197.1647  179.0221  150.3912 C   0  0  0  0  0  0  0  0  0  0  0  0
  197.9828  178.2304  151.2197 C   0  0  0  0  0  0  0  0  0  0  0  0
  198.7471  177.1855  150.6734 C   0  0  0  0  0  0  0  0  0  0  0  0
  198.7130  176.9019  149.2834 C   0  0  0  0  0  0  0  0  0  0  0  0
  199.4757  175.8454  148.7407 N   0  0  0  0  0  0  0  0  0  0  0  0
  200.3420  175.0571  149.6080 C   0  0  2  0  0  0  0  0  0  0  0  0
  199.3622  175.5085  147.3298 C   0  0  2  0  0  0  0  0  0  0  0  0
  197.8937  177.7129  148.4570 C   0  0  0  0  0  0  0  0  0  0  0  0
  197.1379  178.7652  149.0058 C   0  0  0  0  0  0  0  0  0  0  0  0
  197.2854  184.0060  151.1553 C   0  0  0  0  0  0  0  0  0  0  0  0
  197.9825  185.2477  151.1530 C   0  0  0  0  0  0  0  0  0  0  0  0
  198.3535  185.8492  152.2992 N   0  0  0  0  0  0  0  0  0  0  0  0
  198.0738  185.2614  153.4820 C   0  0  0  0  0  0  0  0  0  0  0  0
  198.2705  185.8687  149.9110 C   0  0  0  0  0  0  0  0  0  0  0  0
  197.8927  185.2725  148.6906 C   0  0  0  0  0  0  0  0  0  0  0  0
  197.1964  184.0563  148.7017 C   0  0  0  0  0  0  0  0  0  0  0  0
  196.8687  183.4336  149.9257 C   0  0  0  0  0  0  0  0  0  0  0  0
  197.3605  182.7132  157.1935 C   0  0  1  0  0  0  0  0  0  0  0  0
  196.6693  183.6463  158.1753 C   0  0  0  0  0  0  0  0  0  0  0  0
  195.2903  183.4982  158.4327 C   0  0  0  0  0  0  0  0  0  0  0  0
  194.6443  184.3571  159.3416 C   0  0  0  0  0  0  0  0  0  0  0  0
  195.3741  185.3668  160.0021 C   0  0  0  0  0  0  0  0  0  0  0  0
  194.7123  186.2401  160.9599 C   0  0  0  0  0  0  0  0  0  0  0  0
  194.1858  186.9218  161.7286 N   0  0  0  0  0  0  0  0  0  0  0  0
  196.7513  185.5183  159.7478 C   0  0  0  0  0  0  0  0  0  0  0  0
  197.3979  184.6560  158.8423 C   0  0  0  0  0  0  0  0  0  0  0  0
  196.3365  182.8024  154.9108 H   0  0  0  0  0  0  0  0  0  0  0  0
  195.9257  181.9581  153.3615 H   0  0  0  0  0  0  0  0  0  0  0  0
  198.0665  181.3168  151.5436 H   0  0  0  0  0  0  0  0  0  0  0  0
  197.3948  180.4230  152.8608 H   0  0  0  0  0  0  0  0  0  0  0  0
  195.4414  179.6949  151.4686 H   0  0  0  0  0  0  0  0  0  0  0  0
  195.9499  180.7041  150.1363 H   0  0  0  0  0  0  0  0  0  0  0  0
  198.0185  178.3846  152.2861 H   0  0  0  0  0  0  0  0  0  0  0  0
  199.3453  176.5972  151.3546 H   0  0  0  0  0  0  0  0  0  0  0  0
  199.7720  174.6318  150.4339 H   0  0  0  0  0  0  0  0  0  0  0  0
  201.1409  175.6743  150.0191 H   0  0  0  0  0  0  0  0  0  0  0  0
  200.7983  174.2357  149.0603 H   0  0  0  0  0  0  0  0  0  0  0  0
  199.5694  176.3741  146.6977 H   0  0  0  0  0  0  0  0  0  0  0  0
  198.3562  175.1471  147.1154 H   0  0  0  0  0  0  0  0  0  0  0  0
  200.0708  174.7291  147.0529 H   0  0  0  0  0  0  0  0  0  0  0  0
  197.8144  177.5462  147.3916 H   0  0  0  0  0  0  0  0  0  0  0  0
  196.5197  179.3617  148.3522 H   0  0  0  0  0  0  0  0  0  0  0  0
  198.3721  185.8217  154.3619 H   0  0  0  0  0  0  0  0  0  0  0  0
  198.7812  186.8245  149.9110 H   0  0  0  0  0  0  0  0  0  0  0  0
  198.1156  185.7564  147.7483 H   0  0  0  0  0  0  0  0  0  0  0  0
  196.8970  183.5902  147.7752 H   0  0  0  0  0  0  0  0  0  0  0  0
  196.2976  182.5306  149.8973 H   0  0  0  0  0  0  0  0  0  0  0  0
  196.6755  181.9243  156.8737 H   0  0  0  0  0  0  0  0  0  0  0  0
  198.1853  182.2162  157.7007 H   0  0  0  0  0  0  0  0  0  0  0  0
  194.7195  182.7368  157.9205 H   0  0  0  0  0  0  0  0  0  0  0  0
  193.5846  184.2412  159.5212 H   0  0  0  0  0  0  0  0  0  0  0  0
  197.3183  186.2887  160.2512 H   0  0  0  0  0  0  0  0  0  0  0  0
  198.4561  184.7781  158.6583 H   0  0  0  0  0  0  0  0  0  0  0  0
  1  2  2  0
  2  3  1  0
  2 26  1  0
  3  4  1  0
  3 35  1  0
  4  5  2  0
  4 21  1  0
  5  6  1  0
  5 18  1  0
  6  7  1  0
  6 36  1  0
  7  8  1  0
  7 37  1  6
  7 38  1  0
  8  9  1  0
  8 39  1  1
  8 40  1  0
  9 10  1  0
  9 17  2  0
 10 11  2  0
 10 41  1  0
 11 12  1  0
 11 42  1  0
 12 13  1  0
 12 16  2  0
 13 14  1  0
 13 15  1  0
 14 43  1  1
 14 44  1  0
 14 45  1  0
 15 46  1  6
 15 47  1  0
 15 48  1  0
 16 17  1  0
 16 49  1  0
 17 50  1  0
 18 19  1  0
 18 25  2  0
 19 20  1  0
 19 22  2  0
 20 21  2  0
 21 51  1  0
 22 23  1  0
 22 52  1  0
 23 24  2  0
 23 53  1  0
 24 25  1  0
 24 54  1  0
 25 55  1  0
 26 27  1  0
 26 56  1  6
 26 57  1  0
 27 28  1  0
 27 34  2  0
 28 29  2  0
 28 58  1  0
 29 30  1  0
 29 59  1  0
 30 31  1  0
 30 33  2  0
 31 32  3  0
 33 34  1  0
 33 60  1  0
 34 61  1  0
M  END
>  <s_epik_cmdline>  (1017) 
J2VwaWtfcHl0aG9uJywgJy1waCcsICc3LjAwMDAwMCcsICctcGh0JywgJzIuMDAwMDAwJywgJy1tcycsICcxNicsICctdG4nLCAnOCcsICctbWEnLCAnMjAwJywgJy1pbWFlJywgJzxpbmZpbGUubWFlPicsICctb21hZScsICc8b3V0ZmlsZS5tYWU+Jw==

>  <s_epik_input>  (1017) 
TiNDYyhbY0hdW2NIXTEpW2NIXVtjSF1jMVtDSDJdQyg9TylbTkhdYyhbY0hdbmMoYzIzKVtjSF1bY0hdW2NIXVtjSF0zKWMyW05IXVtDSDJdW0NIMl1jNFtjSF1bY0hdYyhOKFtDSDNdKVtDSDNdKVtjSF1bY0hdNA==

>  <s_i_glide_gridfile>  (1017) 
ATP-Grid

>  <s_lp_Force_Field>  (1017) 
OPLS_2005

>  <s_lp_Variant>  (1017) 
rxn502b____EMOL525400____EMOL30488121____EMOL109645890-3

>  <s_lp_label>  (1017) 
2601_sdstereoexpander_1_neutralizer_1_epik_3_stereoizer_1

>  <s_m_source_file>  (1017) 
ATP-VSW-LIGPREP-003-in.maegz

>  <s_sd_BIOSOLVEIT.INFINISEE\_QUERY\_NAME>  (1017) 
Ref-Lig

>  <s_sd_BIOSOLVEIT.INFINISEE\_QUERY\_SMILES>  (1017) 
S(c1nc2c(cc1C[NH2+]Cc3ccc(cc3)C[NH+](C)C)cccc2)Cc4ccccc4

>  <s_sd_BIOSOLVEIT.INFINISEE\_REACTION\_NAME>  (1017) 
rxn502b

>  <s_sd_BIOSOLVEIT.INFINISEE\_REAGENT1\_NAME>  (1017) 
EMOL525400

>  <s_sd_BIOSOLVEIT.INFINISEE\_REAGENT1\_SMILES>  (1017) 
O=C(O)Cc1ccc(C#N)cc1

>  <s_sd_BIOSOLVEIT.INFINISEE\_REAGENT2\_NAME>  (1017) 
EMOL30488121

>  <s_sd_BIOSOLVEIT.INFINISEE\_REAGENT2\_SMILES>  (1017) 
Brc1c(N)cnc2c1cccc2

>  <s_sd_BIOSOLVEIT.INFINISEE\_REAGENT3\_NAME>  (1017) 
EMOL109645890

>  <s_sd_BIOSOLVEIT.INFINISEE\_REAGENT3\_SMILES>  (1017) 
N(c1ccc(cc1)CCN)(C)C

>  <s_sd_BIOSOLVEIT.INFINISEE\_SPACE>  (1017) 
eXplore_7tr_2022-12

>  <s_vsw_compound_code>  (1017) 
83203

>  <s_vsw_variant>  (1017) 
83203-3

>  <r_epik_Charging_Adjusted_Penalty>  (1017) 
1.91765040036521

>  <r_epik_Ionization_Penalty>  (1017) 
1.9177

>  <r_epik_Ionization_Penalty_Charging>  (1017) 
0

>  <r_epik_Ionization_Penalty_Neutral>  (1017) 
1.9177

>  <r_epik_State_Penalty>  (1017) 
1.9177

>  <r_i_docking_score>  (1017) 
-3.7514730124561

>  <r_i_glide_ecoul>  (1017) 
-3.1117022037506099

>  <r_i_glide_eff_state_penalty>  (1017) 
1.9177

>  <r_i_glide_einternal>  (1017) 
2.7454969882965101

>  <r_i_glide_emodel>  (1017) 
-65.017846523675303

>  <r_i_glide_energy>  (1017) 
-48.462517023086498

>  <r_i_glide_erotb>  (1017) 
0.79337102782620805

>  <r_i_glide_esite>  (1017) 
-0.081942689586180006

>  <r_i_glide_evdw>  (1017) 
-45.350814819335902

>  <r_i_glide_gscore>  (1017) 
-5.6691730124560999

>  <r_i_glide_hbond>  (1017) 
0

>  <r_i_glide_ligand_efficiency>  (1017) 
-0.110337441542826

>  <r_i_glide_ligand_efficiency_ln>  (1017) 
-0.82880561370533401

>  <r_i_glide_ligand_efficiency_sa>  (1017) 
-0.357450477324738

>  <r_i_glide_lipo>  (1017) 
-2.7874883908836501

>  <r_i_glide_metal>  (1017) 
-0

>  <r_i_glide_rewards>  (1017) 
-0.858816888283084

>  <r_lp_Energy>  (1017) 
28.94773

>  <r_qp_ACxDN^.5/SA>  (1017) 
0.013756600000000001

>  <r_qp_CIQPlogS>  (1017) 
-7.8200000000000003

>  <r_qp_EA(eV)>  (1017) 
1.022

>  <r_qp_FISA>  (1017) 
114.419

>  <r_qp_FOSA>  (1017) 
210.43000000000001

>  <r_qp_IP(eV)>  (1017) 
7.9930000000000003

>  <r_qp_Jm>  (1017) 
0.0096341921690314899

>  <r_qp_PISA>  (1017) 
394.76900000000001

>  <r_qp_PSA>  (1017) 
86.162000000000006

>  <r_qp_PercentHumanOralAbsorption>  (1017) 
100

>  <r_qp_QPPCaco>  (1017) 
814.45299999999997

>  <r_qp_QPPMDCK>  (1017) 
396.28399999999999

>  <r_qp_QPlogBB>  (1017) 
-1.0680000000000001

>  <r_qp_QPlogHERG>  (1017) 
-6.0549999999999997

>  <r_qp_QPlogKhsa>  (1017) 
0.624

>  <r_qp_QPlogKp>  (1017) 
-1.373

>  <r_qp_QPlogPC16>  (1017) 
15.111000000000001

>  <r_qp_QPlogPo/w>  (1017) 
4.6319999999999997

>  <r_qp_QPlogPoct>  (1017) 
22.881

>  <r_qp_QPlogPw>  (1017) 
12.753

>  <r_qp_QPlogS>  (1017) 
-6.2949999999999999

>  <r_qp_QPpolrz>  (1017) 
47.442

>  <r_qp_SASA>  (1017) 
719.61800000000005

>  <r_qp_SAamideO>  (1017) 
0

>  <r_qp_SAfluorine>  (1017) 
0

>  <r_qp_WPSA>  (1017) 
0

>  <r_qp_accptHB>  (1017) 
7

>  <r_qp_dip^2/V>  (1017) 
0.019251399999999998

>  <r_qp_dipole>  (1017) 
5.1719999999999997

>  <r_qp_donorHB>  (1017) 
2

>  <r_qp_glob>  (1017) 
0.83679990000000004

>  <r_qp_mol_MW>  (1017) 
449.55399999999997

>  <r_qp_volume>  (1017) 
1389.434

>  <r_sd_BIOSOLVEIT.INFINISEE\_FTREES\_SIMILARITY>  (1017) 
0.91100000000000003

>  <r_sd_BIOSOLVEIT.LOGP>  (1017) 
5.0082800000000001

>  <r_sd_BIOSOLVEIT.MOLECULAR\_WEIGHT>  (1017) 
449.55500000000001

>  <r_sd_BIOSOLVEIT.TPSA>  (1017) 
81.049999999999997

>  <i_epik_Tot_Q>  (1017) 
0

>  <i_epik_Tot_abs_Q>  (1017) 
0

>  <i_f3d_flags>  (1017) 
0

>  <i_i_glide_confnum>  (1017) 
2

>  <i_i_glide_lignum>  (1017) 
1187

>  <i_i_glide_posenum>  (1017) 
13

>  <i_i_glide_rotatable_bonds>  (1017) 
9

>  <i_lp_mmshare_version>  (1017) 
65135

>  <i_m_ct_format>  (1017) 
2

>  <i_m_source_file_index>  (1017) 
2601

>  <i_qp_#NandO>  (1017) 
6

>  <i_qp_#acid>  (1017) 
0

>  <i_qp_#amide>  (1017) 
0

>  <i_qp_#amidine>  (1017) 
0

>  <i_qp_#amine>  (1017) 
0

>  <i_qp_#in34>  (1017) 
0

>  <i_qp_#in56>  (1017) 
22

>  <i_qp_#metab>  (1017) 
7

>  <i_qp_#nonHatm>  (1017) 
34

>  <i_qp_#noncon>  (1017) 
0

>  <i_qp_#ringatoms>  (1017) 
22

>  <i_qp_#rotor>  (1017) 
9

>  <i_qp_#rtvFG>  (1017) 
0

>  <i_qp_#stars>  (1017) 
0

>  <i_qp_CNS>  (1017) 
-2

>  <i_qp_HumanOralAbsorption>  (1017) 
1

>  <i_qp_RuleOfFive>  (1017) 
0

>  <i_qp_RuleOfThree>  (1017) 
2

>  <i_sd_BIOSOLVEIT.INFINISEE\_RESULT\_RANK>  (1017) 
41653

>  <i_sd_version>  (1017) 
0

>  <b_lp_Chiralities_Consistent>  (1017) 
1

>  <b_sd_chiral_flag>  (1017) 
0

>  <canonical_id>  (1017) 
ATP-HTVS-A2CFD20ABAD2

>  <compound_code>  (1017) 
83203

>  <title>  (1017) 
rxn502b____EMOL525400____EMOL30488121____EMOL109645890

>  <variant>  (1017) 
83203-3

>  <source_file>  (1017) 
运行/运行/ATP-VSW/ATP-VSW-DOCK_HTVS_1-003_lib/ATP-VSW-DOCK_HTVS_1-003_lib.mae

>  <canonical_smiles>  (1017) 
CN(C)c1ccc(CCNc2c(NC(=O)Cc3ccc(C#N)cc3)cnc3ccccc23)cc1

>  <scaffold>  (1017) 
O=C(Cc1ccccc1)Nc1cnc2ccccc2c1NCCc1ccccc1

>  <molecular_formula>  (1017) 
C28H27N5O

$$$$
ATP-HTVS-A2EC0CC51325
     RDKit          3D

 54 56  0  0  0  0  0  0  0  0999 V2000
  201.1635  176.4608  156.9193 O   0  0  0  0  0  0  0  0  0  0  0  0
  199.9952  177.2491  156.8559 C   0  0  1  0  0  0  0  0  0  0  0  0
  199.8003  177.7698  155.4241 C   0  0  1  0  0  0  0  0  0  0  0  0
  198.6543  178.6607  155.3401 N   0  0  0  0  0  0  0  0  0  0  0  0
  198.3857  179.4204  154.1841 C   0  0  0  0  0  0  0  0  0  0  0  0
  197.2896  180.3220  154.1744 C   0  0  0  0  0  0  0  0  0  0  0  0
  197.0173  181.1000  153.0288 C   0  0  0  0  0  0  0  0  0  0  0  0
  197.8200  180.9809  151.8806 C   0  0  0  0  0  0  0  0  0  0  0  0
  198.9086  180.0908  151.8802 C   0  0  0  0  0  0  0  0  0  0  0  0
  199.1887  179.3150  153.0219 C   0  0  0  0  0  0  0  0  0  0  0  0
  196.4065  180.5014  155.3976 C   0  0  1  0  0  0  0  0  0  0  0  0
  197.1567  181.0615  156.5348 N   0  0  1  0  0  0  0  0  0  0  0  0
  197.4857  182.4976  156.4041 C   0  0  1  0  0  0  0  0  0  0  0  0
  198.4084  182.9211  157.5175 C   0  0  0  0  0  0  0  0  0  0  0  0
  198.0920  183.6159  158.7278 C   0  0  0  0  0  0  0  0  0  0  0  0
  199.1763  183.8358  159.4634 N   0  0  0  0  0  0  0  0  0  0  0  0
  200.1985  183.2971  158.7738 N   0  0  0  0  0  0  0  0  0  0  0  0
  199.7681  182.7518  157.5843 C   0  0  0  0  0  0  0  0  0  0  0  0
  201.5413  183.3866  159.3164 C   0  0  1  0  0  0  0  0  0  0  0  0
  201.6486  182.6862  160.6796 C   0  0  1  0  0  0  0  0  0  0  0  0
  202.9423  182.8990  161.3422 C   0  0  0  0  0  0  0  0  0  0  0  0
  203.9617  183.0629  161.8642 N   0  0  0  0  0  0  0  0  0  0  0  0
  196.7890  184.0915  159.2242 C   0  0  0  0  0  0  0  0  0  0  0  0
  196.7077  185.2601  160.0159 C   0  0  0  0  0  0  0  0  0  0  0  0
  195.4634  185.7302  160.4776 C   0  0  0  0  0  0  0  0  0  0  0  0
  194.2874  185.0369  160.1334 C   0  0  0  0  0  0  0  0  0  0  0  0
  194.3515  183.8857  159.3369 C   0  0  0  0  0  0  0  0  0  0  0  0
  195.5961  183.4005  158.9060 C   0  0  0  0  0  0  0  0  0  0  0  0
  196.5936  180.8661  157.3550 H   0  0  0  0  0  0  0  0  0  0  0  0
  201.9172  177.0227  156.8021 H   0  0  0  0  0  0  0  0  0  0  0  0
  199.1470  176.6352  157.1634 H   0  0  0  0  0  0  0  0  0  0  0  0
  200.0808  178.0753  157.5654 H   0  0  0  0  0  0  0  0  0  0  0  0
  200.7031  178.2884  155.1025 H   0  0  0  0  0  0  0  0  0  0  0  0
  199.6324  176.9303  154.7490 H   0  0  0  0  0  0  0  0  0  0  0  0
  197.9610  178.5394  156.0747 H   0  0  0  0  0  0  0  0  0  0  0  0
  196.1889  181.7953  153.0256 H   0  0  0  0  0  0  0  0  0  0  0  0
  197.6057  181.5807  151.0070 H   0  0  0  0  0  0  0  0  0  0  0  0
  199.5280  180.0026  150.9995 H   0  0  0  0  0  0  0  0  0  0  0  0
  200.0346  178.6461  152.9828 H   0  0  0  0  0  0  0  0  0  0  0  0
  195.5561  181.1482  155.1856 H   0  0  0  0  0  0  0  0  0  0  0  0
  196.0267  179.5197  155.6795 H   0  0  0  0  0  0  0  0  0  0  0  0
  197.9718  182.6765  155.4469 H   0  0  0  0  0  0  0  0  0  0  0  0
  196.5687  183.0865  156.3627 H   0  0  0  0  0  0  0  0  0  0  0  0
  200.4593  182.2844  156.8972 H   0  0  0  0  0  0  0  0  0  0  0  0
  202.2468  182.9484  158.6103 H   0  0  0  0  0  0  0  0  0  0  0  0
  201.7984  184.4413  159.4143 H   0  0  0  0  0  0  0  0  0  0  0  0
  200.8788  183.0423  161.3628 H   0  0  0  0  0  0  0  0  0  0  0  0
  201.5294  181.6096  160.5670 H   0  0  0  0  0  0  0  0  0  0  0  0
  197.6041  185.8058  160.2842 H   0  0  0  0  0  0  0  0  0  0  0  0
  195.4161  186.6180  161.0881 H   0  0  0  0  0  0  0  0  0  0  0  0
  193.3274  185.4060  160.4738 H   0  0  0  0  0  0  0  0  0  0  0  0
  193.4487  183.3581  159.0652 H   0  0  0  0  0  0  0  0  0  0  0  0
  195.6025  182.4897  158.3318 H   0  0  0  0  0  0  0  0  0  0  0  0
  198.0083  180.5260  156.6243 H   0  0  0  0  0  0  0  0  0  0  0  0
  1  2  1  0
  1 30  1  0
  2  3  1  0
  2 31  1  1
  2 32  1  0
  3  4  1  0
  3 33  1  6
  3 34  1  0
  4  5  1  0
  4 35  1  0
  5  6  1  0
  5 10  2  0
  6  7  2  0
  6 11  1  0
  7  8  1  0
  7 36  1  0
  8  9  2  0
  8 37  1  0
  9 10  1  0
  9 38  1  0
 10 39  1  0
 11 12  1  0
 11 40  1  6
 11 41  1  0
 12 13  1  0
 12 29  1  1
 12 54  1  0
 13 14  1  0
 13 42  1  6
 13 43  1  0
 14 15  1  0
 14 18  2  0
 15 16  2  0
 15 23  1  0
 16 17  1  0
 17 18  1  0
 17 19  1  0
 18 44  1  0
 19 20  1  0
 19 45  1  6
 19 46  1  0
 20 21  1  0
 20 47  1  1
 20 48  1  0
 21 22  3  0
 23 24  2  0
 23 28  1  0
 24 25  1  0
 24 49  1  0
 25 26  2  0
 25 50  1  0
 26 27  1  0
 26 51  1  0
 27 28  2  0
 27 52  1  0
 28 53  1  0
M  CHG  1  12   1
M  END
>  <s_epik_cmdline>  (1018) 
J2VwaWtfcHl0aG9uJywgJy1waCcsICc3LjAwMDAwMCcsICctcGh0JywgJzIuMDAwMDAwJywgJy1tcycsICcxNicsICctdG4nLCAnOCcsICctbWEnLCAnMjAwJywgJy1pbWFlJywgJzxpbmZpbGUubWFlPicsICctb21hZScsICc8b3V0ZmlsZS5tYWU+Jw==

>  <s_epik_input>  (1018) 
W09IXVtDSDJdW0NIMl1bTkhdYzFjKFtjSF1bY0hdW2NIXVtjSF0xKVtDSDJdW05IXVtDSDJdYzJjKG5uKFtjSF0yKVtDSDJdW0NIMl1DI04pLWMzW2NIXVtjSF1bY0hdW2NIXVtjSF0z

>  <s_i_glide_gridfile>  (1018) 
ATP-Grid

>  <s_lp_Force_Field>  (1018) 
OPLS_2005

>  <s_lp_Variant>  (1018) 
m_270004bbb____25289968____7547724-1

>  <s_lp_label>  (1018) 
2087_sdstereoexpander_1_neutralizer_1_epik_1_stereoizer_1

>  <s_m_source_file>  (1018) 
ATP-VSW-LIGPREP-001-in.maegz

>  <s_sd_BIOSOLVEIT.INFINISEE\_QUERY\_NAME>  (1018) 
Ref-Lig

>  <s_sd_BIOSOLVEIT.INFINISEE\_QUERY\_SMILES>  (1018) 
S(c1nc2c(cc1C[NH2+]Cc3ccc(cc3)C[NH+](C)C)cccc2)Cc4ccccc4

>  <s_sd_BIOSOLVEIT.INFINISEE\_REACTION\_NAME>  (1018) 
m_270004bbb

>  <s_sd_BIOSOLVEIT.INFINISEE\_REAGENT1\_SMILES>  (1018) 
[R1*]NCc1c(NCCO)cccc1

>  <s_sd_BIOSOLVEIT.INFINISEE\_REAGENT2\_SMILES>  (1018) 
[R1*]CC=1C(=NN(C1)CCC#N)c2ccccc2

>  <s_sd_BIOSOLVEIT.INFINISEE\_SPACE>  (1018) 
REALSpace_44bn_2023-08

>  <s_vsw_compound_code>  (1018) 
66753

>  <s_vsw_variant>  (1018) 
66753-1

>  <r_epik_Charging_Adjusted_Penalty>  (1018) 
0.099611185880856795

>  <r_epik_Ionization_Penalty>  (1018) 
0.076399999999999996

>  <r_epik_Ionization_Penalty_Charging>  (1018) 
0.076399999999999996

>  <r_epik_Ionization_Penalty_Neutral>  (1018) 
0

>  <r_epik_State_Penalty>  (1018) 
0.023199999999999998

>  <r_i_docking_score>  (1018) 
-5.1301135708737799

>  <r_i_glide_ecoul>  (1018) 
-12.254097938537599

>  <r_i_glide_eff_state_penalty>  (1018) 
0.023199999999999998

>  <r_i_glide_einternal>  (1018) 
2.3307657241821298

>  <r_i_glide_emodel>  (1018) 
-64.872013034212301

>  <r_i_glide_energy>  (1018) 
-45.066716194152797

>  <r_i_glide_erotb>  (1018) 
1.2292292050234499

>  <r_i_glide_esite>  (1018) 
-0.18089830714621999

>  <r_i_glide_evdw>  (1018) 
-32.812618255615199

>  <r_i_glide_gscore>  (1018) 
-5.1533135708737801

>  <r_i_glide_hbond>  (1018) 
-0.17701975923909399

>  <r_i_glide_ligand_efficiency>  (1018) 
-0.18321834181692101

>  <r_i_glide_ligand_efficiency_ln>  (1018) 
-1.1841808388372499

>  <r_i_glide_ligand_efficiency_sa>  (1018) 
-0.55635879558863999

>  <r_i_glide_lipo>  (1018) 
-1.2720747112498201

>  <r_i_glide_metal>  (1018) 
-0

>  <r_i_glide_rewards>  (1018) 
-1.2738043947007001

>  <r_lp_Energy>  (1018) 
11.284506

>  <r_lp_tautomer_probability>  (1018) 
1

>  <r_qp_ACxDN^.5/SA>  (1018) 
0.020452700000000001

>  <r_qp_CIQPlogS>  (1018) 
-4.875

>  <r_qp_EA(eV)>  (1018) 
0.13600000000000001

>  <r_qp_FISA>  (1018) 
108.23

>  <r_qp_FOSA>  (1018) 
172.59100000000001

>  <r_qp_IP(eV)>  (1018) 
8.0579999999999998

>  <r_qp_Jm>  (1018) 
0.24067969456879901

>  <r_qp_PISA>  (1018) 
328.916

>  <r_qp_PSA>  (1018) 
83.701999999999998

>  <r_qp_PercentHumanOralAbsorption>  (1018) 
84.381

>  <r_qp_QPPCaco>  (1018) 
232.518

>  <r_qp_QPPMDCK>  (1018) 
113.095

>  <r_qp_QPlogBB>  (1018) 
-0.625

>  <r_qp_QPlogHERG>  (1018) 
-5.7119999999999997

>  <r_qp_QPlogKhsa>  (1018) 
-0.029000000000000001

>  <r_qp_QPlogKp>  (1018) 
-3.3620000000000001

>  <r_qp_QPlogPC16>  (1018) 
12.976000000000001

>  <r_qp_QPlogPo/w>  (1018) 
2.5750000000000002

>  <r_qp_QPlogPoct>  (1018) 
21.117999999999999

>  <r_qp_QPlogPw>  (1018) 
13.218999999999999

>  <r_qp_QPlogS>  (1018) 
-2.831

>  <r_qp_QPpolrz>  (1018) 
36.975000000000001

>  <r_qp_SASA>  (1018) 
609.73699999999997

>  <r_qp_SAamideO>  (1018) 
0

>  <r_qp_SAfluorine>  (1018) 
0

>  <r_qp_WPSA>  (1018) 
0

>  <r_qp_accptHB>  (1018) 
7.2000000000000002

>  <r_qp_dip^2/V>  (1018) 
0.052774300000000003

>  <r_qp_dipole>  (1018) 
7.8769999999999998

>  <r_qp_donorHB>  (1018) 
3

>  <r_qp_glob>  (1018) 
0.8835151

>  <r_qp_mol_MW>  (1018) 
375.47199999999998

>  <r_qp_volume>  (1018) 
1175.674

>  <r_sd_BIOSOLVEIT.INFINISEE\_FTREES\_SIMILARITY>  (1018) 
0.90100000000000002

>  <r_sd_BIOSOLVEIT.LOGP>  (1018) 
2.13158

>  <r_sd_BIOSOLVEIT.MOLECULAR\_WEIGHT>  (1018) 
376.48099999999999

>  <r_sd_BIOSOLVEIT.TPSA>  (1018) 
90.480000000000004

>  <i_epik_Tot_Q>  (1018) 
1

>  <i_epik_Tot_abs_Q>  (1018) 
1

>  <i_f3d_flags>  (1018) 
0

>  <i_i_glide_confnum>  (1018) 
11

>  <i_i_glide_lignum>  (1018) 
652

>  <i_i_glide_posenum>  (1018) 
1

>  <i_i_glide_rotatable_bonds>  (1018) 
11

>  <i_lp_mmshare_version>  (1018) 
65135

>  <i_m_ct_format>  (1018) 
2

>  <i_m_source_file_index>  (1018) 
2087

>  <i_qp_#NandO>  (1018) 
6

>  <i_qp_#acid>  (1018) 
0

>  <i_qp_#amide>  (1018) 
0

>  <i_qp_#amidine>  (1018) 
0

>  <i_qp_#amine>  (1018) 
1

>  <i_qp_#in34>  (1018) 
0

>  <i_qp_#in56>  (1018) 
17

>  <i_qp_#metab>  (1018) 
8

>  <i_qp_#nonHatm>  (1018) 
28

>  <i_qp_#noncon>  (1018) 
0

>  <i_qp_#ringatoms>  (1018) 
17

>  <i_qp_#rotor>  (1018) 
11

>  <i_qp_#rtvFG>  (1018) 
0

>  <i_qp_#stars>  (1018) 
0

>  <i_qp_CNS>  (1018) 
0

>  <i_qp_HumanOralAbsorption>  (1018) 
2

>  <i_qp_RuleOfFive>  (1018) 
0

>  <i_qp_RuleOfThree>  (1018) 
1

>  <i_sd_BIOSOLVEIT.INFINISEE\_REAGENT1\_NAME>  (1018) 
25289968

>  <i_sd_BIOSOLVEIT.INFINISEE\_REAGENT2\_NAME>  (1018) 
7547724

>  <i_sd_BIOSOLVEIT.INFINISEE\_RESULT\_RANK>  (1018) 
96472

>  <i_sd_version>  (1018) 
0

>  <b_lp_Chiralities_Consistent>  (1018) 
1

>  <b_sd_chiral_flag>  (1018) 
0

>  <canonical_id>  (1018) 
ATP-HTVS-A2EC0CC51325

>  <compound_code>  (1018) 
66753

>  <title>  (1018) 
m_270004bbb____25289968____7547724

>  <variant>  (1018) 
66753-1

>  <source_file>  (1018) 
运行/运行/ATP-VSW/ATP-VSW-DOCK_HTVS_1-001_lib/ATP-VSW-DOCK_HTVS_1-001_lib

>  <canonical_smiles>  (1018) 
N#CCCn1cc(C[NH2+]Cc2ccccc2NCCO)c(-c2ccccc2)n1

>  <scaffold>  (1018) 
c1ccc(C[NH2+]Cc2c[nH]nc2-c2ccccc2)cc1

>  <molecular_formula>  (1018) 
C22H26N5O+

$$$$
ATP-HTVS-A2ECE24B89CB
     RDKit          3D

 67 70  0  0  0  0  0  0  0  0999 V2000
  197.9885  183.1664  155.4287 N   0  0  0  0  0  0  0  0  0  0  0  0
  197.8760  184.4409  155.0193 C   0  0  0  0  0  0  0  0  0  0  0  0
  197.5898  184.7460  153.7445 N   0  0  0  0  0  0  0  0  0  0  0  0
  197.3436  183.7655  152.8436 C   0  0  0  0  0  0  0  0  0  0  0  0
  197.3918  182.4036  153.2364 C   0  0  0  0  0  0  0  0  0  0  0  0
  197.7435  182.1382  154.5816 C   0  0  0  0  0  0  0  0  0  0  0  0
  197.8884  180.8300  155.0939 N   0  0  0  0  0  0  0  0  0  0  0  0
  198.8817  180.6476  156.1565 C   0  0  1  0  0  0  0  0  0  0  0  0
  199.5800  179.2995  156.2261 C   0  0  0  0  0  0  0  0  0  0  0  0
  200.5295  179.0540  157.2428 C   0  0  0  0  0  0  0  0  0  0  0  0
  201.1344  177.7900  157.3678 C   0  0  0  0  0  0  0  0  0  0  0  0
  200.7997  176.7570  156.4649 C   0  0  0  0  0  0  0  0  0  0  0  0
  199.8695  177.0066  155.4401 C   0  0  0  0  0  0  0  0  0  0  0  0
  199.2733  178.2790  155.3046 C   0  0  0  0  0  0  0  0  0  0  0  0
  201.4369  175.3875  156.5674 C   0  0  1  0  0  0  0  0  0  0  0  0
  202.7442  175.3234  155.8683 N   0  0  1  0  0  0  0  0  0  0  0  0
  203.4231  174.0226  156.0739 C   0  0  2  0  0  0  0  0  0  0  0  0
  202.6650  175.6695  154.4244 C   0  0  2  0  0  0  0  0  0  0  0  0
  196.6547  180.0569  155.2103 C   0  0  2  0  0  0  0  0  0  0  0  0
  197.1317  181.3973  152.2773 C   0  0  0  0  0  0  0  0  0  0  0  0
  196.8006  181.7505  150.9548 C   0  0  0  0  0  0  0  0  0  0  0  0
  196.7844  183.1091  150.5679 C   0  0  0  0  0  0  0  0  0  0  0  0
  197.0683  184.1139  151.5138 C   0  0  0  0  0  0  0  0  0  0  0  0
  198.0641  185.4691  155.9496 N   0  0  0  0  0  0  0  0  0  0  0  0
  198.2706  185.2014  157.3765 C   0  0  1  0  0  0  0  0  0  0  0  0
  197.0311  184.8259  158.1782 C   0  0  0  0  0  0  0  0  0  0  0  0
  196.5379  183.5031  158.1703 C   0  0  0  0  0  0  0  0  0  0  0  0
  195.4178  183.1540  158.9413 C   0  0  0  0  0  0  0  0  0  0  0  0
  194.9595  181.8343  158.9335 N   0  0  0  0  0  0  0  0  0  0  0  0
  194.7794  184.1276  159.7313 C   0  0  0  0  0  0  0  0  0  0  0  0
  195.2715  185.4444  159.7595 C   0  0  0  0  0  0  0  0  0  0  0  0
  196.3918  185.8008  158.9806 C   0  0  0  0  0  0  0  0  0  0  0  0
  197.9364  186.8662  155.5468 C   0  0  2  0  0  0  0  0  0  0  0  0
  199.6766  181.3927  156.0871 H   0  0  0  0  0  0  0  0  0  0  0  0
  198.3937  180.8319  157.1108 H   0  0  0  0  0  0  0  0  0  0  0  0
  200.7928  179.8411  157.9348 H   0  0  0  0  0  0  0  0  0  0  0  0
  201.8756  177.6277  158.1425 H   0  0  0  0  0  0  0  0  0  0  0  0
  199.5951  176.2225  154.7539 H   0  0  0  0  0  0  0  0  0  0  0  0
  198.5462  178.4460  154.5161 H   0  0  0  0  0  0  0  0  0  0  0  0
  201.5571  175.1327  157.6214 H   0  0  0  0  0  0  0  0  0  0  0  0
  200.7686  174.6345  156.1386 H   0  0  0  0  0  0  0  0  0  0  0  0
  202.8170  173.1936  155.6973 H   0  0  0  0  0  0  0  0  0  0  0  0
  203.6158  173.8430  157.1338 H   0  0  0  0  0  0  0  0  0  0  0  0
  204.3801  173.9958  155.5522 H   0  0  0  0  0  0  0  0  0  0  0  0
  202.0242  174.9656  153.8904 H   0  0  0  0  0  0  0  0  0  0  0  0
  203.6544  175.6457  153.9582 H   0  0  0  0  0  0  0  0  0  0  0  0
  202.2765  176.6738  154.2631 H   0  0  0  0  0  0  0  0  0  0  0  0
  196.0617  180.0772  154.2899 H   0  0  0  0  0  0  0  0  0  0  0  0
  196.0125  180.4547  156.0020 H   0  0  0  0  0  0  0  0  0  0  0  0
  196.9058  179.0088  155.4046 H   0  0  0  0  0  0  0  0  0  0  0  0
  197.1952  180.3510  152.5332 H   0  0  0  0  0  0  0  0  0  0  0  0
  196.5917  180.9793  150.2266 H   0  0  0  0  0  0  0  0  0  0  0  0
  196.5599  183.3781  149.5383 H   0  0  0  0  0  0  0  0  0  0  0  0
  197.0982  185.1458  151.1965 H   0  0  0  0  0  0  0  0  0  0  0  0
  199.0157  184.4117  157.4865 H   0  0  0  0  0  0  0  0  0  0  0  0
  198.7230  186.0763  157.8434 H   0  0  0  0  0  0  0  0  0  0  0  0
  197.0163  182.7261  157.5887 H   0  0  0  0  0  0  0  0  0  0  0  0
  194.2912  181.5129  159.6148 H   0  0  0  0  0  0  0  0  0  0  0  0
  195.4602  181.1084  158.4390 H   0  0  0  0  0  0  0  0  0  0  0  0
  193.9241  183.8562  160.3301 H   0  0  0  0  0  0  0  0  0  0  0  0
  194.7903  186.1846  160.3893 H   0  0  0  0  0  0  0  0  0  0  0  0
  196.7615  186.8130  159.0150 H   0  0  0  0  0  0  0  0  0  0  0  0
  198.5227  187.0684  154.6479 H   0  0  0  0  0  0  0  0  0  0  0  0
  198.2798  187.5494  156.3226 H   0  0  0  0  0  0  0  0  0  0  0  0
  196.8905  187.0849  155.3371 H   0  0  0  0  0  0  0  0  0  0  0  0
  197.5349  185.7185  153.4420 H   0  0  0  0  0  0  0  0  0  0  0  0
  203.3089  176.0397  156.3028 H   0  0  0  0  0  0  0  0  0  0  0  0
  1  2  1  0
  1  6  2  0
  2  3  2  0
  2 24  1  0
  3  4  1  0
  3 66  1  0
  4  5  1  0
  4 23  2  0
  5  6  1  0
  5 20  2  0
  6  7  1  0
  7  8  1  0
  7 19  1  0
  8  9  1  0
  8 34  1  6
  8 35  1  0
  9 10  1  0
  9 14  2  0
 10 11  2  0
 10 36  1  0
 11 12  1  0
 11 37  1  0
 12 13  2  0
 12 15  1  0
 13 14  1  0
 13 38  1  0
 14 39  1  0
 15 16  1  0
 15 40  1  1
 15 41  1  0
 16 17  1  0
 16 18  1  0
 16 67  1  1
 17 42  1  6
 17 43  1  0
 17 44  1  0
 18 45  1  6
 18 46  1  0
 18 47  1  0
 19 48  1  6
 19 49  1  0
 19 50  1  0
 20 21  1  0
 20 51  1  0
 21 22  2  0
 21 52  1  0
 22 23  1  0
 22 53  1  0
 23 54  1  0
 24 25  1  0
 24 33  1  0
 25 26  1  0
 25 55  1  6
 25 56  1  0
 26 27  1  0
 26 32  2  0
 27 28  2  0
 27 57  1  0
 28 29  1  0
 28 30  1  0
 29 58  1  0
 29 59  1  0
 30 31  2  0
 30 60  1  0
 31 32  1  0
 31 61  1  0
 32 62  1  0
 33 63  1  6
 33 64  1  0
 33 65  1  0
M  CHG  2   3   1  16   1
M  END
>  <s_epik_cmdline>  (1019) 
J2VwaWtfcHl0aG9uJywgJy1waCcsICc3LjAwMDAwMCcsICctcGh0JywgJzIuMDAwMDAwJywgJy1tcycsICcxNicsICctdG4nLCAnOCcsICctbWEnLCAnMjAwJywgJy1pbWFlJywgJzxpbmZpbGUubWFlPicsICctb21hZScsICc8b3V0ZmlsZS5tYWU+Jw==

>  <s_epik_input>  (1019) 
W2NIXTFbY0hdW2NIXWMoW05IMl0pW2NIXWMxW0NIMl1OKFtDSDNdKWMobjIpbmMoYyhjMjMpW2NIXVtjSF1bY0hdW2NIXTMpTihbQ0gzXSlbQ0gyXWM0W2NIXVtjSF1jKFtjSF1bY0hdNClbQ0gyXU4oW0NIM10pW0NIM10=

>  <s_i_glide_gridfile>  (1019) 
ATP-Grid

>  <s_lp_Force_Field>  (1019) 
OPLS_2005

>  <s_lp_Variant>  (1019) 
m_282030aaa____21933634____22360182____21958566-1

>  <s_lp_label>  (1019) 
767_sdstereoexpander_1_neutralizer_1_epik_1_stereoizer_1

>  <s_m_source_file>  (1019) 
ATP-VSW-LIGPREP-003-in.maegz

>  <s_sd_BIOSOLVEIT.INFINISEE\_QUERY\_NAME>  (1019) 
Ref-Lig

>  <s_sd_BIOSOLVEIT.INFINISEE\_QUERY\_SMILES>  (1019) 
S(c1nc2c(cc1C[NH2+]Cc3ccc(cc3)C[NH+](C)C)cccc2)Cc4ccccc4

>  <s_sd_BIOSOLVEIT.INFINISEE\_REACTION\_NAME>  (1019) 
m_282030aaa

>  <s_sd_BIOSOLVEIT.INFINISEE\_REAGENT1\_SMILES>  (1019) 
[R1*]N(Cc1ccc(cc1)CN(C)C)C

>  <s_sd_BIOSOLVEIT.INFINISEE\_REAGENT2\_SMILES>  (1019) 
[R2*]c1nc([R1*])c2c(n1)cccc2

>  <s_sd_BIOSOLVEIT.INFINISEE\_REAGENT3\_SMILES>  (1019) 
[R2*]N(Cc1cc(N)ccc1)C

>  <s_sd_BIOSOLVEIT.INFINISEE\_SPACE>  (1019) 
REALSpace_44bn_2023-08

>  <s_vsw_compound_code>  (1019) 
24515

>  <s_vsw_variant>  (1019) 
24515-1

>  <r_epik_Charging_Adjusted_Penalty>  (1019) 
0.076732365121504095

>  <r_epik_Ionization_Penalty>  (1019) 
0.044999999999999998

>  <r_epik_Ionization_Penalty_Charging>  (1019) 
0.040000000000000001

>  <r_epik_Ionization_Penalty_Neutral>  (1019) 
0.0050000000000000001

>  <r_epik_State_Penalty>  (1019) 
0.036799999999999999

>  <r_i_docking_score>  (1019) 
-4.4205569135954299

>  <r_i_glide_ecoul>  (1019) 
-3.72389459609985

>  <r_i_glide_eff_state_penalty>  (1019) 
0.036799999999999999

>  <r_i_glide_einternal>  (1019) 
4.13234663009644

>  <r_i_glide_emodel>  (1019) 
-59.865414909663599

>  <r_i_glide_energy>  (1019) 
-44.067835330963099

>  <r_i_glide_erotb>  (1019) 
0.714125596938052

>  <r_i_glide_esite>  (1019) 
-0.133159485615821

>  <r_i_glide_evdw>  (1019) 
-40.343940734863303

>  <r_i_glide_gscore>  (1019) 
-4.4573569135954303

>  <r_i_glide_hbond>  (1019) 
-0.13799957046286301

>  <r_i_glide_ligand_efficiency>  (1019) 
-0.133956270108952

>  <r_i_glide_ligand_efficiency_ln>  (1019) 
-0.98310896916488599

>  <r_i_glide_ligand_efficiency_sa>  (1019) 
-0.429669334591878

>  <r_i_glide_lipo>  (1019) 
-1.8789845770424001

>  <r_i_glide_metal>  (1019) 
-0

>  <r_i_glide_rewards>  (1019) 
-0.445557651254255

>  <r_lp_Energy>  (1019) 
21.392271999999998

>  <r_lp_tautomer_probability>  (1019) 
0.99350799999861505

>  <r_qp_ACxDN^.5/SA>  (1019) 
0.0107644

>  <r_qp_CIQPlogS>  (1019) 
-6.0170000000000003

>  <r_qp_EA(eV)>  (1019) 
0.70399999999999996

>  <r_qp_FISA>  (1019) 
40.655999999999999

>  <r_qp_FOSA>  (1019) 
328.25799999999998

>  <r_qp_IP(eV)>  (1019) 
7.9649999999999999

>  <r_qp_Jm>  (1019) 
0.302683099809123

>  <r_qp_PISA>  (1019) 
313.75099999999998

>  <r_qp_PSA>  (1019) 
49.805999999999997

>  <r_qp_PercentHumanOralAbsorption>  (1019) 
100

>  <r_qp_QPPCaco>  (1019) 
1016.86

>  <r_qp_QPPMDCK>  (1019) 
557.28599999999994

>  <r_qp_QPlogBB>  (1019) 
0.066000000000000003

>  <r_qp_QPlogHERG>  (1019) 
-5.7789999999999999

>  <r_qp_QPlogKhsa>  (1019) 
0.80500000000000005

>  <r_qp_QPlogKp>  (1019) 
-2.3620000000000001

>  <r_qp_QPlogPC16>  (1019) 
13.731999999999999

>  <r_qp_QPlogPo/w>  (1019) 
4.9130000000000003

>  <r_qp_QPlogPoct>  (1019) 
20.594000000000001

>  <r_qp_QPlogPw>  (1019) 
9.8940000000000001

>  <r_qp_QPlogS>  (1019) 
-3.8010000000000002

>  <r_qp_QPpolrz>  (1019) 
45.988

>  <r_qp_SASA>  (1019) 
682.66399999999999

>  <r_qp_SAamideO>  (1019) 
0

>  <r_qp_SAfluorine>  (1019) 
0

>  <r_qp_WPSA>  (1019) 
0

>  <r_qp_accptHB>  (1019) 
6

>  <r_qp_dip^2/V>  (1019) 
0.0075291000000000004

>  <r_qp_dipole>  (1019) 
3.2149999999999999

>  <r_qp_donorHB>  (1019) 
1.5

>  <r_qp_glob>  (1019) 
0.87488220000000005

>  <r_qp_mol_MW>  (1019) 
440.58999999999997

>  <r_qp_volume>  (1019) 
1372.422

>  <r_sd_BIOSOLVEIT.INFINISEE\_FTREES\_SIMILARITY>  (1019) 
0.92500000000000004

>  <r_sd_BIOSOLVEIT.LOGP>  (1019) 
3.1293000000000002

>  <r_sd_BIOSOLVEIT.MOLECULAR\_WEIGHT>  (1019) 
441.60000000000002

>  <r_sd_BIOSOLVEIT.TPSA>  (1019) 
62.719999999999999

>  <i_epik_Tot_Q>  (1019) 
2

>  <i_epik_Tot_abs_Q>  (1019) 
2

>  <i_f3d_flags>  (1019) 
0

>  <i_i_glide_confnum>  (1019) 
3

>  <i_i_glide_lignum>  (1019) 
322

>  <i_i_glide_posenum>  (1019) 
2

>  <i_i_glide_rotatable_bonds>  (1019) 
8

>  <i_lp_mmshare_version>  (1019) 
65135

>  <i_m_ct_format>  (1019) 
2

>  <i_m_source_file_index>  (1019) 
767

>  <i_qp_#NandO>  (1019) 
6

>  <i_qp_#acid>  (1019) 
0

>  <i_qp_#amide>  (1019) 
0

>  <i_qp_#amidine>  (1019) 
0

>  <i_qp_#amine>  (1019) 
1

>  <i_qp_#in34>  (1019) 
0

>  <i_qp_#in56>  (1019) 
22

>  <i_qp_#metab>  (1019) 
7

>  <i_qp_#nonHatm>  (1019) 
33

>  <i_qp_#noncon>  (1019) 
0

>  <i_qp_#ringatoms>  (1019) 
22

>  <i_qp_#rotor>  (1019) 
9

>  <i_qp_#rtvFG>  (1019) 
0

>  <i_qp_#stars>  (1019) 
0

>  <i_qp_CNS>  (1019) 
1

>  <i_qp_HumanOralAbsorption>  (1019) 
3

>  <i_qp_RuleOfFive>  (1019) 
0

>  <i_qp_RuleOfThree>  (1019) 
1

>  <i_sd_BIOSOLVEIT.INFINISEE\_REAGENT1\_NAME>  (1019) 
21933634

>  <i_sd_BIOSOLVEIT.INFINISEE\_REAGENT2\_NAME>  (1019) 
22360182

>  <i_sd_BIOSOLVEIT.INFINISEE\_REAGENT3\_NAME>  (1019) 
21958566

>  <i_sd_BIOSOLVEIT.INFINISEE\_RESULT\_RANK>  (1019) 
9034

>  <i_sd_version>  (1019) 
0

>  <b_lp_Chiralities_Consistent>  (1019) 
1

>  <b_sd_chiral_flag>  (1019) 
0

>  <canonical_id>  (1019) 
ATP-HTVS-A2ECE24B89CB

>  <compound_code>  (1019) 
24515

>  <title>  (1019) 
m_282030aaa____21933634____22360182____21958566

>  <variant>  (1019) 
24515-1

>  <source_file>  (1019) 
运行/运行/ATP-VSW/ATP-VSW-DOCK_HTVS_1-003_lib/ATP-VSW-DOCK_HTVS_1-003_lib.mae

>  <canonical_smiles>  (1019) 
CN(Cc1cccc(N)c1)c1nc(N(C)Cc2ccc(C[NH+](C)C)cc2)c2ccccc2[nH+]1

>  <scaffold>  (1019) 
c1ccc(CNc2nc(NCc3ccccc3)c3ccccc3[nH+]2)cc1

>  <molecular_formula>  (1019) 
C27H34N6+2

$$$$
ATP-HTVS-A2FDB4A8FB56
     RDKit          3D

 58 61  0  0  0  0  0  0  0  0999 V2000
  196.7088  187.9981  159.2132 O   0  0  0  0  0  0  0  0  0  0  0  0
  196.7363  186.7810  159.0440 C   0  0  0  0  0  0  0  0  0  0  0  0
  197.1923  186.1640  157.9369 N   0  0  0  0  0  0  0  0  0  0  0  0
  197.8392  186.7048  156.7918 C   0  0  0  0  0  0  0  0  0  0  0  0
  198.3573  187.9560  156.7935 N   0  0  0  0  0  0  0  0  0  0  0  0
  199.0005  188.4321  155.7124 C   0  0  0  0  0  0  0  0  0  0  0  0
  199.1368  187.6552  154.5366 C   0  0  0  0  0  0  0  0  0  0  0  0
  198.6031  186.3558  154.5138 C   0  0  0  0  0  0  0  0  0  0  0  0
  197.9587  185.8409  155.6608 C   0  0  0  0  0  0  0  0  0  0  0  0
  197.4630  184.5174  155.6964 N   0  0  0  0  0  0  0  0  0  0  0  0
  197.4916  183.6128  154.5535 C   0  0  1  0  0  0  0  0  0  0  0  0
  198.0715  182.2636  154.9082 C   0  0  0  0  0  0  0  0  0  0  0  0
  197.2253  181.2032  155.2833 C   0  0  0  0  0  0  0  0  0  0  0  0
  197.7769  179.9411  155.5840 C   0  0  0  0  0  0  0  0  0  0  0  0
  199.1731  179.7424  155.5276 C   0  0  0  0  0  0  0  0  0  0  0  0
  200.0196  180.8127  155.1690 C   0  0  0  0  0  0  0  0  0  0  0  0
  199.4668  182.0703  154.8657 C   0  0  0  0  0  0  0  0  0  0  0  0
  199.7624  178.3860  155.8623 C   0  0  1  0  0  0  0  0  0  0  0  0
  199.9497  178.2470  157.3192 N   0  0  1  0  0  0  0  0  0  0  0  0
  200.8454  177.1416  157.7011 C   0  0  2  0  0  0  0  0  0  0  0  0
  199.7804  188.1706  153.3953 C   0  0  0  0  0  0  0  0  0  0  0  0
  200.3081  189.4723  153.4138 C   0  0  0  0  0  0  0  0  0  0  0  0
  200.1951  190.2528  154.5814 C   0  0  0  0  0  0  0  0  0  0  0  0
  199.5472  189.7316  155.7224 C   0  0  0  0  0  0  0  0  0  0  0  0
  196.2066  185.8686  160.1625 C   0  0  1  0  0  0  0  0  0  0  0  0
  195.7714  184.5002  159.6523 C   0  0  0  0  0  0  0  0  0  0  0  0
  194.4152  184.2566  159.3509 C   0  0  0  0  0  0  0  0  0  0  0  0
  194.0202  183.0143  158.8212 C   0  0  0  0  0  0  0  0  0  0  0  0
  194.9737  182.0022  158.6090 C   0  0  0  0  0  0  0  0  0  0  0  0
  196.3270  182.2376  158.9084 C   0  0  0  0  0  0  0  0  0  0  0  0
  196.7266  183.4812  159.4361 C   0  0  0  0  0  0  0  0  0  0  0  0
  200.3076  179.1147  157.6861 H   0  0  0  0  0  0  0  0  0  0  0  0
  197.0728  185.1659  157.9252 H   0  0  0  0  0  0  0  0  0  0  0  0
  198.7073  185.7890  153.6017 H   0  0  0  0  0  0  0  0  0  0  0  0
  196.9315  184.1808  156.4823 H   0  0  0  0  0  0  0  0  0  0  0  0
  196.4756  183.4818  154.1779 H   0  0  0  0  0  0  0  0  0  0  0  0
  198.0883  183.9746  153.7085 H   0  0  0  0  0  0  0  0  0  0  0  0
  196.1563  181.3512  155.3310 H   0  0  0  0  0  0  0  0  0  0  0  0
  197.1234  179.1266  155.8675 H   0  0  0  0  0  0  0  0  0  0  0  0
  201.0919  180.6766  155.1144 H   0  0  0  0  0  0  0  0  0  0  0  0
  200.1137  182.8865  154.5804 H   0  0  0  0  0  0  0  0  0  0  0  0
  199.1035  177.5940  155.4998 H   0  0  0  0  0  0  0  0  0  0  0  0
  200.7152  178.2775  155.3435 H   0  0  0  0  0  0  0  0  0  0  0  0
  200.9271  177.0815  158.7851 H   0  0  0  0  0  0  0  0  0  0  0  0
  201.8416  177.2878  157.2855 H   0  0  0  0  0  0  0  0  0  0  0  0
  200.4563  176.1962  157.3301 H   0  0  0  0  0  0  0  0  0  0  0  0
  199.8635  187.5678  152.5016 H   0  0  0  0  0  0  0  0  0  0  0  0
  200.7998  189.8666  152.5330 H   0  0  0  0  0  0  0  0  0  0  0  0
  200.5975  191.2560  154.5981 H   0  0  0  0  0  0  0  0  0  0  0  0
  199.4455  190.3363  156.6134 H   0  0  0  0  0  0  0  0  0  0  0  0
  196.9867  185.7441  160.9135 H   0  0  0  0  0  0  0  0  0  0  0  0
  195.3685  186.3663  160.6572 H   0  0  0  0  0  0  0  0  0  0  0  0
  193.6783  185.0353  159.5030 H   0  0  0  0  0  0  0  0  0  0  0  0
  192.9868  182.8355  158.5688 H   0  0  0  0  0  0  0  0  0  0  0  0
  194.6715  181.0433  158.2151 H   0  0  0  0  0  0  0  0  0  0  0  0
  197.0565  181.4586  158.7300 H   0  0  0  0  0  0  0  0  0  0  0  0
  197.7710  183.6562  159.6515 H   0  0  0  0  0  0  0  0  0  0  0  0
  199.0165  178.0919  157.7135 H   0  0  0  0  0  0  0  0  0  0  0  0
  1  2  2  0
  2  3  1  0
  2 25  1  0
  3  4  1  0
  3 33  1  0
  4  5  2  0
  4  9  1  0
  5  6  1  0
  6  7  1  0
  6 24  2  0
  7  8  1  0
  7 21  2  0
  8  9  2  0
  8 34  1  0
  9 10  1  0
 10 11  1  0
 10 35  1  0
 11 12  1  0
 11 36  1  6
 11 37  1  0
 12 13  1  0
 12 17  2  0
 13 14  2  0
 13 38  1  0
 14 15  1  0
 14 39  1  0
 15 16  2  0
 15 18  1  0
 16 17  1  0
 16 40  1  0
 17 41  1  0
 18 19  1  0
 18 42  1  6
 18 43  1  0
 19 20  1  0
 19 32  1  1
 19 58  1  0
 20 44  1  1
 20 45  1  0
 20 46  1  0
 21 22  1  0
 21 47  1  0
 22 23  2  0
 22 48  1  0
 23 24  1  0
 23 49  1  0
 24 50  1  0
 25 26  1  0
 25 51  1  1
 25 52  1  0
 26 27  2  0
 26 31  1  0
 27 28  1  0
 27 53  1  0
 28 29  2  0
 28 54  1  0
 29 30  1  0
 29 55  1  0
 30 31  2  0
 30 56  1  0
 31 57  1  0
M  CHG  1  19   1
M  END
>  <s_epik_cmdline>  (1020) 
J2VwaWtfcHl0aG9uJywgJy1waCcsICc3LjAwMDAwMCcsICctcGh0JywgJzIuMDAwMDAwJywgJy1tcycsICcxNicsICctdG4nLCAnOCcsICctbWEnLCAnMjAwJywgJy1pbWFlJywgJzxpbmZpbGUubWFlPicsICctb21hZScsICc8b3V0ZmlsZS5tYWU+Jw==

>  <s_epik_input>  (1020) 
W2NIXTFbY0hdW2NIXVtjSF1bY0hdYzFbQ0gyXUMoPU8pW05IXWMobjIpYyhbY0hdYyhjMjMpW2NIXVtjSF1bY0hdW2NIXTMpW05IXVtDSDJdYzRbY0hdW2NIXWMoW2NIXVtjSF00KVtDSDJdW05IXVtDSDNd

>  <s_i_glide_gridfile>  (1020) 
ATP-Grid

>  <s_lp_Force_Field>  (1020) 
OPLS_2005

>  <s_lp_Variant>  (1020) 
rxn502b____EMOL530620____EMOL44466703____EMOL108753565-1

>  <s_lp_label>  (1020) 
2264_sdstereoexpander_1_neutralizer_1_epik_1_stereoizer_1

>  <s_m_source_file>  (1020) 
ATP-VSW-LIGPREP-001-in.maegz

>  <s_sd_BIOSOLVEIT.INFINISEE\_QUERY\_NAME>  (1020) 
Ref-Lig

>  <s_sd_BIOSOLVEIT.INFINISEE\_QUERY\_SMILES>  (1020) 
S(c1nc2c(cc1C[NH2+]Cc3ccc(cc3)C[NH+](C)C)cccc2)Cc4ccccc4

>  <s_sd_BIOSOLVEIT.INFINISEE\_REACTION\_NAME>  (1020) 
rxn502b

>  <s_sd_BIOSOLVEIT.INFINISEE\_REAGENT1\_NAME>  (1020) 
EMOL530620

>  <s_sd_BIOSOLVEIT.INFINISEE\_REAGENT1\_SMILES>  (1020) 
ClC(=O)Cc1ccccc1

>  <s_sd_BIOSOLVEIT.INFINISEE\_REAGENT2\_NAME>  (1020) 
EMOL44466703

>  <s_sd_BIOSOLVEIT.INFINISEE\_REAGENT2\_SMILES>  (1020) 
Brc1c(nc2c(c1)cccc2)N

>  <s_sd_BIOSOLVEIT.INFINISEE\_REAGENT3\_NAME>  (1020) 
EMOL108753565

>  <s_sd_BIOSOLVEIT.INFINISEE\_REAGENT3\_SMILES>  (1020) 
N(Cc1ccc(cc1)CN)C

>  <s_sd_BIOSOLVEIT.INFINISEE\_SPACE>  (1020) 
eXplore_7tr_2022-12

>  <s_vsw_compound_code>  (1020) 
72417

>  <s_vsw_variant>  (1020) 
72417-1

>  <r_epik_Charging_Adjusted_Penalty>  (1020) 
0.038218810978977197

>  <r_epik_Ionization_Penalty>  (1020) 
0.0224

>  <r_epik_Ionization_Penalty_Charging>  (1020) 
0.016

>  <r_epik_Ionization_Penalty_Neutral>  (1020) 
0.0064999999999999997

>  <r_epik_State_Penalty>  (1020) 
0.0223

>  <r_i_docking_score>  (1020) 
-4.8297199870259897

>  <r_i_glide_ecoul>  (1020) 
-9.3252830505371094

>  <r_i_glide_eff_state_penalty>  (1020) 
0.0223

>  <r_i_glide_einternal>  (1020) 
3.94688844680786

>  <r_i_glide_emodel>  (1020) 
-62.1287653093936

>  <r_i_glide_energy>  (1020) 
-45.314277648925803

>  <r_i_glide_erotb>  (1020) 
0.81472844982695203

>  <r_i_glide_esite>  (1020) 
-0.092667213689703806

>  <r_i_glide_evdw>  (1020) 
-35.9889945983887

>  <r_i_glide_gscore>  (1020) 
-4.8520199870259901

>  <r_i_glide_hbond>  (1020) 
-0.20000000000000001

>  <r_i_glide_ligand_efficiency>  (1020) 
-0.15579741893632201

>  <r_i_glide_ligand_efficiency_ln>  (1020) 
-1.0892498702162601

>  <r_i_glide_ligand_efficiency_sa>  (1020) 
-0.48941899697885999

>  <r_i_glide_lipo>  (1020) 
-1.3107121803334301

>  <r_i_glide_metal>  (1020) 
-0

>  <r_i_glide_rewards>  (1020) 
-0.86512685532981104

>  <r_lp_Energy>  (1020) 
25.058851000000001

>  <r_qp_ACxDN^.5/SA>  (1020) 
0.012729499999999999

>  <r_qp_CIQPlogS>  (1020) 
-5.2809999999999997

>  <r_qp_EA(eV)>  (1020) 
0.70699999999999996

>  <r_qp_FISA>  (1020) 
78.475999999999999

>  <r_qp_FOSA>  (1020) 
196.518

>  <r_qp_IP(eV)>  (1020) 
8.1679999999999993

>  <r_qp_Jm>  (1020) 
0.00147299179918242

>  <r_qp_PISA>  (1020) 
541.39800000000002

>  <r_qp_PSA>  (1020) 
71.361999999999995

>  <r_qp_PercentHumanOralAbsorption>  (1020) 
100

>  <r_qp_QPPCaco>  (1020) 
445.25700000000001

>  <r_qp_QPPMDCK>  (1020) 
228.255

>  <r_qp_QPlogBB>  (1020) 
-0.45200000000000001

>  <r_qp_QPlogHERG>  (1020) 
-8.9000000000000004

>  <r_qp_QPlogKhsa>  (1020) 
0.79900000000000004

>  <r_qp_QPlogKp>  (1020) 
-2.3530000000000002

>  <r_qp_QPlogPC16>  (1020) 
16.815999999999999

>  <r_qp_QPlogPo/w>  (1020) 
4.8789999999999996

>  <r_qp_QPlogPoct>  (1020) 
25.023

>  <r_qp_QPlogPw>  (1020) 
14.439

>  <r_qp_QPlogS>  (1020) 
-6.0919999999999996

>  <r_qp_QPpolrz>  (1020) 
50.789999999999999

>  <r_qp_SASA>  (1020) 
816.39200000000005

>  <r_qp_SAamideO>  (1020) 
0

>  <r_qp_SAfluorine>  (1020) 
0

>  <r_qp_WPSA>  (1020) 
0

>  <r_qp_accptHB>  (1020) 
6

>  <r_qp_dip^2/V>  (1020) 
0.046460399999999999

>  <r_qp_dipole>  (1020) 
8.1280000000000001

>  <r_qp_donorHB>  (1020) 
3

>  <r_qp_glob>  (1020) 
0.74910239999999995

>  <r_qp_mol_MW>  (1020) 
410.51799999999997

>  <r_qp_volume>  (1020) 
1422.0419999999999

>  <r_sd_BIOSOLVEIT.INFINISEE\_FTREES\_SIMILARITY>  (1020) 
0.92500000000000004

>  <r_sd_BIOSOLVEIT.LOGP>  (1020) 
3.7212999999999998

>  <r_sd_BIOSOLVEIT.MOLECULAR\_WEIGHT>  (1020) 
411.52600000000001

>  <r_sd_BIOSOLVEIT.TPSA>  (1020) 
70.629999999999995

>  <i_epik_Tot_Q>  (1020) 
1

>  <i_epik_Tot_abs_Q>  (1020) 
1

>  <i_f3d_flags>  (1020) 
0

>  <i_i_glide_confnum>  (1020) 
9

>  <i_i_glide_lignum>  (1020) 
789

>  <i_i_glide_posenum>  (1020) 
4

>  <i_i_glide_rotatable_bonds>  (1020) 
9

>  <i_lp_mmshare_version>  (1020) 
65135

>  <i_m_ct_format>  (1020) 
2

>  <i_m_source_file_index>  (1020) 
2264

>  <i_qp_#NandO>  (1020) 
5

>  <i_qp_#acid>  (1020) 
0

>  <i_qp_#amide>  (1020) 
0

>  <i_qp_#amidine>  (1020) 
0

>  <i_qp_#amine>  (1020) 
1

>  <i_qp_#in34>  (1020) 
0

>  <i_qp_#in56>  (1020) 
22

>  <i_qp_#metab>  (1020) 
6

>  <i_qp_#nonHatm>  (1020) 
31

>  <i_qp_#noncon>  (1020) 
0

>  <i_qp_#ringatoms>  (1020) 
22

>  <i_qp_#rotor>  (1020) 
8

>  <i_qp_#rtvFG>  (1020) 
0

>  <i_qp_#stars>  (1020) 
2

>  <i_qp_CNS>  (1020) 
0

>  <i_qp_HumanOralAbsorption>  (1020) 
3

>  <i_qp_RuleOfFive>  (1020) 
0

>  <i_qp_RuleOfThree>  (1020) 
1

>  <i_sd_BIOSOLVEIT.INFINISEE\_RESULT\_RANK>  (1020) 
8673

>  <i_sd_version>  (1020) 
0

>  <b_lp_Chiralities_Consistent>  (1020) 
1

>  <b_sd_chiral_flag>  (1020) 
0

>  <canonical_id>  (1020) 
ATP-HTVS-A2FDB4A8FB56

>  <compound_code>  (1020) 
72417

>  <title>  (1020) 
rxn502b____EMOL530620____EMOL44466703____EMOL108753565

>  <variant>  (1020) 
72417-1

>  <source_file>  (1020) 
运行/运行/ATP-VSW/ATP-VSW-DOCK_HTVS_1-001_lib/ATP-VSW-DOCK_HTVS_1-001_lib

>  <canonical_smiles>  (1020) 
C[NH2+]Cc1ccc(CNc2cc3ccccc3nc2NC(=O)Cc2ccccc2)cc1

>  <scaffold>  (1020) 
O=C(Cc1ccccc1)Nc1nc2ccccc2cc1NCc1ccccc1

>  <molecular_formula>  (1020) 
C26H27N4O+

$$$$
ATP-HTVS-A305C0BD9D10
     RDKit          3D

 58 61  0  0  0  0  0  0  0  0999 V2000
  197.4564  179.4953  152.4022 O   0  0  0  0  0  0  0  0  0  0  0  0
  197.2043  179.3544  151.0579 C   0  0  0  0  0  0  0  0  0  0  0  0
  198.3312  178.7830  150.4190 C   0  0  0  0  0  0  0  0  0  0  0  0
  198.2399  178.5500  149.0293 C   0  0  0  0  0  0  0  0  0  0  0  0
  197.0591  178.8709  148.3279 C   0  0  0  0  0  0  0  0  0  0  0  0
  195.9557  179.4323  148.9990 C   0  0  0  0  0  0  0  0  0  0  0  0
  196.0240  179.6917  150.3835 C   0  0  0  0  0  0  0  0  0  0  0  0
  199.3128  178.5873  151.4431 C   0  0  0  0  0  0  0  0  0  0  0  0
  198.7253  179.0013  152.6205 C   0  0  0  0  0  0  0  0  0  0  0  0
  199.2342  179.0048  154.0374 C   0  0  1  0  0  0  0  0  0  0  0  0
  198.1680  179.2438  155.0090 N   0  0  0  0  0  0  0  0  0  0  0  0
  198.6179  179.8717  156.2428 C   0  0  1  0  0  0  0  0  0  0  0  0
  198.9854  181.3333  156.0932 C   0  0  0  0  0  0  0  0  0  0  0  0
  197.9921  182.2585  155.7253 C   0  0  0  0  0  0  0  0  0  0  0  0
  198.3226  183.6128  155.4922 C   0  0  0  0  0  0  0  0  0  0  0  0
  199.6461  184.0476  155.7055 C   0  0  0  0  0  0  0  0  0  0  0  0
  200.6361  183.1236  156.0991 C   0  0  0  0  0  0  0  0  0  0  0  0
  200.3120  181.7646  156.2839 C   0  0  0  0  0  0  0  0  0  0  0  0
  197.2496  184.5697  154.9962 C   0  0  1  0  0  0  0  0  0  0  0  0
  196.9833  184.4906  153.5261 N   0  0  2  0  0  0  0  0  0  0  0  0
  196.7794  183.1253  152.9690 C   0  0  2  0  0  0  0  0  0  0  0  0
  197.9368  185.2832  152.7206 C   0  0  2  0  0  0  0  0  0  0  0  0
  199.9790  177.7639  154.3475 C   0  0  0  0  0  0  0  0  0  0  0  0
  200.6183  176.7495  154.5579 C   0  0  0  0  0  0  0  0  0  0  0  0
  201.3899  175.5377  154.7734 C   0  0  0  0  0  0  0  0  0  0  0  0
  201.3062  174.4605  153.8633 C   0  0  0  0  0  0  0  0  0  0  0  0
  202.0425  173.2825  154.0937 C   0  0  0  0  0  0  0  0  0  0  0  0
  201.9550  172.2438  153.2196 O   0  0  0  0  0  0  0  0  0  0  0  0
  202.8739  173.1734  155.2235 C   0  0  0  0  0  0  0  0  0  0  0  0
  202.9620  174.2446  156.1313 C   0  0  0  0  0  0  0  0  0  0  0  0
  202.2252  175.4271  155.9046 C   0  0  0  0  0  0  0  0  0  0  0  0
  197.7928  178.3514  155.2968 H   0  0  0  0  0  0  0  0  0  0  0  0
  199.0758  178.1220  148.5007 H   0  0  0  0  0  0  0  0  0  0  0  0
  197.0019  178.6842  147.2625 H   0  0  0  0  0  0  0  0  0  0  0  0
  195.0591  179.6706  148.4408 H   0  0  0  0  0  0  0  0  0  0  0  0
  195.1878  180.1054  150.9241 H   0  0  0  0  0  0  0  0  0  0  0  0
  200.2980  178.1654  151.3140 H   0  0  0  0  0  0  0  0  0  0  0  0
  199.9498  179.8199  154.0955 H   0  0  0  0  0  0  0  0  0  0  0  0
  197.7826  179.8293  156.9386 H   0  0  0  0  0  0  0  0  0  0  0  0
  199.4280  179.2927  156.6810 H   0  0  0  0  0  0  0  0  0  0  0  0
  196.9812  181.8937  155.5758 H   0  0  0  0  0  0  0  0  0  0  0  0
  199.9134  185.0775  155.5409 H   0  0  0  0  0  0  0  0  0  0  0  0
  201.6508  183.4553  156.2543 H   0  0  0  0  0  0  0  0  0  0  0  0
  201.0747  181.0506  156.5567 H   0  0  0  0  0  0  0  0  0  0  0  0
  196.3431  184.3461  155.5507 H   0  0  0  0  0  0  0  0  0  0  0  0
  197.5186  185.5928  155.2729 H   0  0  0  0  0  0  0  0  0  0  0  0
  197.6768  182.5114  153.0406 H   0  0  0  0  0  0  0  0  0  0  0  0
  196.5276  183.1491  151.9034 H   0  0  0  0  0  0  0  0  0  0  0  0
  195.9692  182.6286  153.5006 H   0  0  0  0  0  0  0  0  0  0  0  0
  198.9422  184.8758  152.8119 H   0  0  0  0  0  0  0  0  0  0  0  0
  197.9550  186.3278  153.0346 H   0  0  0  0  0  0  0  0  0  0  0  0
  197.6560  185.2636  151.6682 H   0  0  0  0  0  0  0  0  0  0  0  0
  200.6705  174.5312  152.9953 H   0  0  0  0  0  0  0  0  0  0  0  0
  202.4699  171.4813  153.5029 H   0  0  0  0  0  0  0  0  0  0  0  0
  203.4313  172.2680  155.4055 H   0  0  0  0  0  0  0  0  0  0  0  0
  203.5822  174.1654  157.0157 H   0  0  0  0  0  0  0  0  0  0  0  0
  202.3032  176.2503  156.6075 H   0  0  0  0  0  0  0  0  0  0  0  0
  196.0834  184.9376  153.4197 H   0  0  0  0  0  0  0  0  0  0  0  0
  1  2  1  0
  1  9  1  0
  2  3  1  0
  2  7  2  0
  3  4  2  0
  3  8  1  0
  4  5  1  0
  4 33  1  0
  5  6  2  0
  5 34  1  0
  6  7  1  0
  6 35  1  0
  7 36  1  0
  8  9  2  0
  8 37  1  0
  9 10  1  0
 10 11  1  0
 10 23  1  0
 10 38  1  6
 11 12  1  0
 11 32  1  0
 12 13  1  0
 12 39  1  1
 12 40  1  0
 13 14  2  0
 13 18  1  0
 14 15  1  0
 14 41  1  0
 15 16  2  0
 15 19  1  0
 16 17  1  0
 16 42  1  0
 17 18  2  0
 17 43  1  0
 18 44  1  0
 19 20  1  0
 19 45  1  1
 19 46  1  0
 20 21  1  0
 20 22  1  0
 20 58  1  1
 21 47  1  6
 21 48  1  0
 21 49  1  0
 22 50  1  6
 22 51  1  0
 22 52  1  0
 23 24  3  0
 24 25  1  0
 25 26  2  0
 25 31  1  0
 26 27  1  0
 26 53  1  0
 27 28  1  0
 27 29  2  0
 28 54  1  0
 29 30  1  0
 29 55  1  0
 30 31  2  0
 30 56  1  0
 31 57  1  0
M  CHG  1  20   1
M  END
>  <s_epik_cmdline>  (1021) 
J2VwaWtfcHl0aG9uJywgJy1waCcsICc3LjAwMDAwMCcsICctcGh0JywgJzIuMDAwMDAwJywgJy1tcycsICcxNicsICctdG4nLCAnOCcsICctbWEnLCAnMjAwJywgJy1pbWFlJywgJzxpbmZpbGUubWFlPicsICctb21hZScsICc8b3V0ZmlsZS5tYWU+Jw==

>  <s_epik_input>  (1021) 
W2NIXTFbY0hdW2NIXWMoW09IXSlbY0hdYzFDI0NbQ0BASF0oYyhvMilbY0hdYyhjMjMpW2NIXVtjSF1bY0hdW2NIXTMpW05IXVtDSDJdYzRbY0hdYyhbY0hdW2NIXVtjSF00KVtDSDJdTihbQ0gzXSlbQ0gzXQ==

>  <s_i_glide_gridfile>  (1021) 
ATP-Grid

>  <s_lp_Force_Field>  (1021) 
OPLS_2005

>  <s_lp_Variant>  (1021) 
rxn403____EMOL2873214____EMOL514739____EMOL525215-2

>  <s_lp_label>  (1021) 
2388_sdstereoexpander_2_neutralizer_1_epik_1_stereoizer_1

>  <s_m_source_file>  (1021) 
ATP-VSW-LIGPREP-002-in.maegz

>  <s_sd_BIOSOLVEIT.INFINISEE\_QUERY\_NAME>  (1021) 
Ref-Lig

>  <s_sd_BIOSOLVEIT.INFINISEE\_QUERY\_SMILES>  (1021) 
S(c1nc2c(cc1C[NH2+]Cc3ccc(cc3)C[NH+](C)C)cccc2)Cc4ccccc4

>  <s_sd_BIOSOLVEIT.INFINISEE\_REACTION\_NAME>  (1021) 
rxn403

>  <s_sd_BIOSOLVEIT.INFINISEE\_REAGENT1\_NAME>  (1021) 
EMOL2873214

>  <s_sd_BIOSOLVEIT.INFINISEE\_REAGENT1\_SMILES>  (1021) 
N(Cc1cc(ccc1)CN)(C)C

>  <s_sd_BIOSOLVEIT.INFINISEE\_REAGENT2\_NAME>  (1021) 
EMOL514739

>  <s_sd_BIOSOLVEIT.INFINISEE\_REAGENT2\_SMILES>  (1021) 
O=CC=1Oc2c(cccc2)C1

>  <s_sd_BIOSOLVEIT.INFINISEE\_REAGENT3\_NAME>  (1021) 
EMOL525215

>  <s_sd_BIOSOLVEIT.INFINISEE\_REAGENT3\_SMILES>  (1021) 
Oc1cc(C#C)ccc1

>  <s_sd_BIOSOLVEIT.INFINISEE\_SPACE>  (1021) 
eXplore_7tr_2022-12

>  <s_vsw_compound_code>  (1021) 
76386

>  <s_vsw_variant>  (1021) 
76386-2

>  <r_epik_Charging_Adjusted_Penalty>  (1021) 
0.25544104690792602

>  <r_epik_Ionization_Penalty>  (1021) 
0.2087

>  <r_epik_Ionization_Penalty_Charging>  (1021) 
0.044900000000000002

>  <r_epik_Ionization_Penalty_Neutral>  (1021) 
0.16370000000000001

>  <r_epik_State_Penalty>  (1021) 
0.21049999999999999

>  <r_i_docking_score>  (1021) 
-5.00305377577559

>  <r_i_glide_ecoul>  (1021) 
-11.796022415161101

>  <r_i_glide_eff_state_penalty>  (1021) 
0.21049999999999999

>  <r_i_glide_einternal>  (1021) 
4.8107452392578098

>  <r_i_glide_emodel>  (1021) 
-56.749433416759302

>  <r_i_glide_energy>  (1021) 
-41.019241333007798

>  <r_i_glide_erotb>  (1021) 
0.69834877666596296

>  <r_i_glide_esite>  (1021) 
-0.040400203408848201

>  <r_i_glide_evdw>  (1021) 
-29.223218917846701

>  <r_i_glide_gscore>  (1021) 
-5.2135537757755896

>  <r_i_glide_hbond>  (1021) 
-0.169492842467731

>  <r_i_glide_ligand_efficiency>  (1021) 
-0.16138883147663199

>  <r_i_glide_ligand_efficiency_ln>  (1021) 
-1.1283419516219699

>  <r_i_glide_ligand_efficiency_sa>  (1021) 
-0.50698375213242097

>  <r_i_glide_lipo>  (1021) 
-1.64314165294393

>  <r_i_glide_metal>  (1021) 
-0

>  <r_i_glide_rewards>  (1021) 
-0.82830354545454399

>  <r_lp_Energy>  (1021) 
13.069474

>  <r_qp_ACxDN^.5/SA>  (1021) 
0.0094213000000000005

>  <r_qp_CIQPlogS>  (1021) 
-4.7400000000000002

>  <r_qp_EA(eV)>  (1021) 
0.25800000000000001

>  <r_qp_FISA>  (1021) 
71.531999999999996

>  <r_qp_FOSA>  (1021) 
185.006

>  <r_qp_IP(eV)>  (1021) 
8.5950000000000006

>  <r_qp_Jm>  (1021) 
0.0044288908358996997

>  <r_qp_PISA>  (1021) 
456.47899999999998

>  <r_qp_PSA>  (1021) 
47.268999999999998

>  <r_qp_PercentHumanOralAbsorption>  (1021) 
90.730999999999995

>  <r_qp_QPPCaco>  (1021) 
129.22900000000001

>  <r_qp_QPPMDCK>  (1021) 
66.311999999999998

>  <r_qp_QPlogBB>  (1021) 
0.107

>  <r_qp_QPlogHERG>  (1021) 
-8.0920000000000005

>  <r_qp_QPlogKhsa>  (1021) 
0.85499999999999998

>  <r_qp_QPlogKp>  (1021) 
-4.4909999999999997

>  <r_qp_QPlogPC16>  (1021) 
14.715999999999999

>  <r_qp_QPlogPo/w>  (1021) 
4.4400000000000004

>  <r_qp_QPlogPoct>  (1021) 
20.585000000000001

>  <r_qp_QPlogPw>  (1021) 
10.648999999999999

>  <r_qp_QPlogS>  (1021) 
-3.476

>  <r_qp_QPpolrz>  (1021) 
45.515000000000001

>  <r_qp_SASA>  (1021) 
713.01700000000005

>  <r_qp_SAamideO>  (1021) 
0

>  <r_qp_SAfluorine>  (1021) 
0

>  <r_qp_WPSA>  (1021) 
0

>  <r_qp_accptHB>  (1021) 
4.75

>  <r_qp_dip^2/V>  (1021) 
0.0053426000000000003

>  <r_qp_dipole>  (1021) 
2.6619999999999999

>  <r_qp_donorHB>  (1021) 
2

>  <r_qp_glob>  (1021) 
0.81887080000000001

>  <r_qp_mol_MW>  (1021) 
410.51499999999999

>  <r_qp_volume>  (1021) 
1326.5550000000001

>  <r_sd_BIOSOLVEIT.INFINISEE\_FTREES\_SIMILARITY>  (1021) 
0.91900000000000004

>  <r_sd_BIOSOLVEIT.LOGP>  (1021) 
2.6393

>  <r_sd_BIOSOLVEIT.MOLECULAR\_WEIGHT>  (1021) 
412.52999999999997

>  <r_sd_BIOSOLVEIT.TPSA>  (1021) 
54.420000000000002

>  <i_epik_Tot_Q>  (1021) 
1

>  <i_epik_Tot_abs_Q>  (1021) 
1

>  <i_f3d_flags>  (1021) 
0

>  <i_i_glide_confnum>  (1021) 
3

>  <i_i_glide_lignum>  (1021) 
995

>  <i_i_glide_posenum>  (1021) 
17

>  <i_i_glide_rotatable_bonds>  (1021) 
9

>  <i_lp_mmshare_version>  (1021) 
65135

>  <i_m_ct_format>  (1021) 
2

>  <i_m_source_file_index>  (1021) 
2388

>  <i_qp_#NandO>  (1021) 
4

>  <i_qp_#acid>  (1021) 
0

>  <i_qp_#amide>  (1021) 
0

>  <i_qp_#amidine>  (1021) 
0

>  <i_qp_#amine>  (1021) 
2

>  <i_qp_#in34>  (1021) 
0

>  <i_qp_#in56>  (1021) 
21

>  <i_qp_#metab>  (1021) 
7

>  <i_qp_#nonHatm>  (1021) 
31

>  <i_qp_#noncon>  (1021) 
0

>  <i_qp_#ringatoms>  (1021) 
21

>  <i_qp_#rotor>  (1021) 
9

>  <i_qp_#rtvFG>  (1021) 
0

>  <i_qp_#stars>  (1021) 
1

>  <i_qp_CNS>  (1021) 
1

>  <i_qp_HumanOralAbsorption>  (1021) 
3

>  <i_qp_RuleOfFive>  (1021) 
0

>  <i_qp_RuleOfThree>  (1021) 
1

>  <i_sd_BIOSOLVEIT.INFINISEE\_RESULT\_RANK>  (1021) 
19152

>  <i_sd_version>  (1021) 
0

>  <b_lp_Chiralities_Consistent>  (1021) 
1

>  <b_sd_chiral_flag>  (1021) 
0

>  <canonical_id>  (1021) 
ATP-HTVS-A305C0BD9D10

>  <compound_code>  (1021) 
76386

>  <title>  (1021) 
rxn403____EMOL2873214____EMOL514739____EMOL525215

>  <variant>  (1021) 
76386-2

>  <source_file>  (1021) 
运行/运行/ATP-VSW/ATP-VSW-DOCK_HTVS_1-002_lib.maegz

>  <canonical_smiles>  (1021) 
C[NH+](C)Cc1cccc(CN[C@@H](C#Cc2cccc(O)c2)c2cc3ccccc3o2)c1

>  <scaffold>  (1021) 
C(#CC(NCc1ccccc1)c1cc2ccccc2o1)c1ccccc1

>  <molecular_formula>  (1021) 
C27H27N2O2+

$$$$
ATP-HTVS-A343C43AF9EC
     RDKit          3D

 57 60  0  0  0  0  0  0  0  0999 V2000
  197.2283  183.4241  156.5209 O   0  0  0  0  0  0  0  0  0  0  0  0
  197.1924  183.1078  155.1788 C   0  0  0  0  0  0  0  0  0  0  0  0
  196.9924  181.7436  154.8264 C   0  0  0  0  0  0  0  0  0  0  0  0
  196.9307  181.3612  153.4561 C   0  0  0  0  0  0  0  0  0  0  0  0
  197.0642  182.3504  152.4508 C   0  0  0  0  0  0  0  0  0  0  0  0
  197.2588  183.6978  152.8065 C   0  0  0  0  0  0  0  0  0  0  0  0
  197.3303  184.0728  154.1560 C   0  0  0  0  0  0  0  0  0  0  0  0
  197.0227  181.9969  151.0874 C   0  0  0  0  0  0  0  0  0  0  0  0
  196.8510  180.6552  150.7073 C   0  0  0  0  0  0  0  0  0  0  0  0
  196.7123  179.6631  151.6958 C   0  0  0  0  0  0  0  0  0  0  0  0
  196.7469  180.0116  153.0590 C   0  0  0  0  0  0  0  0  0  0  0  0
  196.8656  180.6931  155.9334 C   0  0  1  0  0  0  0  0  0  0  0  0
  198.0393  179.8388  156.0599 N   0  0  0  0  0  0  0  0  0  0  0  0
  199.2536  180.5528  156.4557 C   0  0  1  0  0  0  0  0  0  0  0  0
  200.4184  179.5744  156.7065 C   0  0  2  0  0  0  0  0  0  0  0  0
  201.5529  180.3111  157.1174 O   0  0  0  0  0  0  0  0  0  0  0  0
  200.7220  178.7169  155.4758 C   0  0  0  0  0  0  0  0  0  0  0  0
  200.8296  177.3032  155.5471 C   0  0  0  0  0  0  0  0  0  0  0  0
  201.0667  176.5623  154.3678 C   0  0  0  0  0  0  0  0  0  0  0  0
  201.1883  177.2089  153.1252 C   0  0  0  0  0  0  0  0  0  0  0  0
  201.0833  178.6092  153.0521 C   0  0  0  0  0  0  0  0  0  0  0  0
  200.8642  179.3556  154.2221 C   0  0  0  0  0  0  0  0  0  0  0  0
  200.6893  176.5527  156.8609 C   0  0  2  0  0  0  0  0  0  0  0  0
  197.4346  184.7685  156.9504 C   0  0  1  0  0  0  0  0  0  0  0  0
  196.6814  185.0781  158.2257 C   0  0  0  0  0  0  0  0  0  0  0  0
  195.5698  184.2923  158.6043 C   0  0  0  0  0  0  0  0  0  0  0  0
  194.8242  184.6314  159.7499 C   0  0  0  0  0  0  0  0  0  0  0  0
  195.1879  185.7545  160.5205 C   0  0  0  0  0  0  0  0  0  0  0  0
  196.2947  186.5434  160.1413 C   0  0  0  0  0  0  0  0  0  0  0  0
  197.0365  186.2023  158.9949 C   0  0  0  0  0  0  0  0  0  0  0  0
  197.8273  179.0988  156.7250 H   0  0  0  0  0  0  0  0  0  0  0  0
  197.3562  184.4460  152.0375 H   0  0  0  0  0  0  0  0  0  0  0  0
  197.4845  185.1146  154.3839 H   0  0  0  0  0  0  0  0  0  0  0  0
  197.1428  182.7565  150.3302 H   0  0  0  0  0  0  0  0  0  0  0  0
  196.8377  180.3857  149.6580 H   0  0  0  0  0  0  0  0  0  0  0  0
  196.5887  178.6299  151.4102 H   0  0  0  0  0  0  0  0  0  0  0  0
  196.6562  179.2202  153.7906 H   0  0  0  0  0  0  0  0  0  0  0  0
  196.6485  181.1495  156.8949 H   0  0  0  0  0  0  0  0  0  0  0  0
  195.9974  180.0719  155.7125 H   0  0  0  0  0  0  0  0  0  0  0  0
  199.5268  181.2856  155.6984 H   0  0  0  0  0  0  0  0  0  0  0  0
  199.0580  181.1380  157.3501 H   0  0  0  0  0  0  0  0  0  0  0  0
  200.1319  178.9565  157.5543 H   0  0  0  0  0  0  0  0  0  0  0  0
  202.2365  179.6970  157.3394 H   0  0  0  0  0  0  0  0  0  0  0  0
  201.1502  175.4857  154.4105 H   0  0  0  0  0  0  0  0  0  0  0  0
  201.3619  176.6362  152.2272 H   0  0  0  0  0  0  0  0  0  0  0  0
  201.1645  179.1153  152.1017 H   0  0  0  0  0  0  0  0  0  0  0  0
  200.7837  180.4292  154.1420 H   0  0  0  0  0  0  0  0  0  0  0  0
  200.7665  175.4770  156.7056 H   0  0  0  0  0  0  0  0  0  0  0  0
  199.7180  176.7467  157.3179 H   0  0  0  0  0  0  0  0  0  0  0  0
  201.4748  176.8474  157.5575 H   0  0  0  0  0  0  0  0  0  0  0  0
  198.5063  184.9181  157.1100 H   0  0  0  0  0  0  0  0  0  0  0  0
  197.0971  185.5198  156.2287 H   0  0  0  0  0  0  0  0  0  0  0  0
  195.2525  183.4540  158.0047 H   0  0  0  0  0  0  0  0  0  0  0  0
  193.9683  184.0322  160.0294 H   0  0  0  0  0  0  0  0  0  0  0  0
  194.6227  186.0104  161.4080 H   0  0  0  0  0  0  0  0  0  0  0  0
  196.5685  187.4099  160.7260 H   0  0  0  0  0  0  0  0  0  0  0  0
  197.8628  186.8255  158.6876 H   0  0  0  0  0  0  0  0  0  0  0  0
  1  2  1  0
  1 24  1  0
  2  3  2  0
  2  7  1  0
  3  4  1  0
  3 12  1  0
  4  5  1  0
  4 11  2  0
  5  6  1  0
  5  8  2  0
  6  7  2  0
  6 32  1  0
  7 33  1  0
  8  9  1  0
  8 34  1  0
  9 10  2  0
  9 35  1  0
 10 11  1  0
 10 36  1  0
 11 37  1  0
 12 13  1  0
 12 38  1  1
 12 39  1  0
 13 14  1  0
 13 31  1  0
 14 15  1  0
 14 40  1  6
 14 41  1  0
 15 16  1  0
 15 17  1  0
 15 42  1  1
 16 43  1  0
 17 18  1  0
 17 22  2  0
 18 19  2  0
 18 23  1  0
 19 20  1  0
 19 44  1  0
 20 21  2  0
 20 45  1  0
 21 22  1  0
 21 46  1  0
 22 47  1  0
 23 48  1  6
 23 49  1  0
 23 50  1  0
 24 25  1  0
 24 51  1  1
 24 52  1  0
 25 26  2  0
 25 30  1  0
 26 27  1  0
 26 53  1  0
 27 28  2  0
 27 54  1  0
 28 29  1  0
 28 55  1  0
 29 30  2  0
 29 56  1  0
 30 57  1  0
M  END
>  <s_epik_cmdline>  (1022) 
J2VwaWtfcHl0aG9uJywgJy1waCcsICc3LjAwMDAwMCcsICctcGh0JywgJzIuMDAwMDAwJywgJy1tcycsICcxNicsICctdG4nLCAnOCcsICctbWEnLCAnMjAwJywgJy1pbWFlJywgJzxpbmZpbGUubWFlPicsICctb21hZScsICc8b3V0ZmlsZS5tYWU+Jw==

>  <s_epik_input>  (1022) 
W2NIXTFbY0hdW2NIXVtjSF1bY0hdYzFbQ0gyXU9jKFtjSF1bY0hdYyhjMjMpW2NIXVtjSF1bY0hdW2NIXTMpYzJbQ0gyXVtOSF1bQ0gyXVtDQEhdKFtPSF0pYzRjKFtDSDNdKVtjSF1bY0hdW2NIXVtjSF00

>  <s_i_glide_gridfile>  (1022) 
ATP-Grid

>  <s_lp_Force_Field>  (1022) 
OPLS_2005

>  <s_lp_Variant>  (1022) 
m_270004bbb____8295396____21002124-3

>  <s_lp_label>  (1022) 
725_sdstereoexpander_1_neutralizer_1_epik_2_stereoizer_1

>  <s_m_source_file>  (1022) 
ATP-VSW-LIGPREP-001-in.maegz

>  <s_sd_BIOSOLVEIT.INFINISEE\_QUERY\_NAME>  (1022) 
Ref-Lig

>  <s_sd_BIOSOLVEIT.INFINISEE\_QUERY\_SMILES>  (1022) 
S(c1nc2c(cc1C[NH2+]Cc3ccc(cc3)C[NH+](C)C)cccc2)Cc4ccccc4

>  <s_sd_BIOSOLVEIT.INFINISEE\_REACTION\_NAME>  (1022) 
m_270004bbb

>  <s_sd_BIOSOLVEIT.INFINISEE\_REAGENT1\_SMILES>  (1022) 
[R1*]NCC(O)c1c(cccc1)C

>  <s_sd_BIOSOLVEIT.INFINISEE\_REAGENT2\_SMILES>  (1022) 
[R1*]Cc1c(OCc2ccccc2)ccc3c1cccc3

>  <s_sd_BIOSOLVEIT.INFINISEE\_SPACE>  (1022) 
REALSpace_44bn_2023-08

>  <s_vsw_compound_code>  (1022) 
23169

>  <s_vsw_variant>  (1022) 
23169-3

>  <r_epik_Charging_Adjusted_Penalty>  (1022) 
2.0725499308537598

>  <r_epik_Ionization_Penalty>  (1022) 
2.0726

>  <r_epik_Ionization_Penalty_Charging>  (1022) 
0

>  <r_epik_Ionization_Penalty_Neutral>  (1022) 
2.0726

>  <r_epik_State_Penalty>  (1022) 
2.0724999999999998

>  <r_i_docking_score>  (1022) 
-1.75974619112291

>  <r_i_glide_ecoul>  (1022) 
-3.2284097671508798

>  <r_i_glide_eff_state_penalty>  (1022) 
2.0724999999999998

>  <r_i_glide_einternal>  (1022) 
3.74714279174805

>  <r_i_glide_emodel>  (1022) 
-46.1485219978101

>  <r_i_glide_energy>  (1022) 
-38.193650245666497

>  <r_i_glide_erotb>  (1022) 
0.99107973538095795

>  <r_i_glide_esite>  (1022) 
0

>  <r_i_glide_evdw>  (1022) 
-34.965240478515597

>  <r_i_glide_gscore>  (1022) 
-3.83224619112291

>  <r_i_glide_hbond>  (1022) 
-0.16825140300434199

>  <r_i_glide_ligand_efficiency>  (1022) 
-0.058658206370763598

>  <r_i_glide_ligand_efficiency_ln>  (1022) 
-0.39983350859359201

>  <r_i_glide_ligand_efficiency_sa>  (1022) 
-0.18226468536954701

>  <r_i_glide_lipo>  (1022) 
-1.7237472617738401

>  <r_i_glide_metal>  (1022) 
-0

>  <r_i_glide_rewards>  (1022) 
-0.69880377272727201

>  <r_lp_Energy>  (1022) 
31.364332999999998

>  <r_qp_ACxDN^.5/SA>  (1022) 
0.0085374000000000005

>  <r_qp_CIQPlogS>  (1022) 
-5.8860000000000001

>  <r_qp_EA(eV)>  (1022) 
0.56899999999999995

>  <r_qp_FISA>  (1022) 
53.880000000000003

>  <r_qp_FOSA>  (1022) 
145.553

>  <r_qp_IP(eV)>  (1022) 
8.2639999999999993

>  <r_qp_Jm>  (1022) 
0.37755005240258399

>  <r_qp_PISA>  (1022) 
454.88400000000001

>  <r_qp_PSA>  (1022) 
34.963999999999999

>  <r_qp_PercentHumanOralAbsorption>  (1022) 
100

>  <r_qp_QPPCaco>  (1022) 
761.82399999999996

>  <r_qp_QPPMDCK>  (1022) 
407.87599999999998

>  <r_qp_QPlogBB>  (1022) 
-0.067000000000000004

>  <r_qp_QPlogHERG>  (1022) 
-6.7060000000000004

>  <r_qp_QPlogKhsa>  (1022) 
0.81799999999999995

>  <r_qp_QPlogKp>  (1022) 
-2.109

>  <r_qp_QPlogPC16>  (1022) 
13.898

>  <r_qp_QPlogPo/w>  (1022) 
4.96

>  <r_qp_QPlogPoct>  (1022) 
19.109999999999999

>  <r_qp_QPlogPw>  (1022) 
9.5890000000000004

>  <r_qp_QPlogS>  (1022) 
-3.9140000000000001

>  <r_qp_QPpolrz>  (1022) 
42.569000000000003

>  <r_qp_SASA>  (1022) 
654.31700000000001

>  <r_qp_SAamideO>  (1022) 
0

>  <r_qp_SAfluorine>  (1022) 
0

>  <r_qp_WPSA>  (1022) 
0

>  <r_qp_accptHB>  (1022) 
3.9500000000000002

>  <r_qp_dip^2/V>  (1022) 
0.0012821

>  <r_qp_dipole>  (1022) 
1.268

>  <r_qp_donorHB>  (1022) 
2

>  <r_qp_glob>  (1022) 
0.85918600000000001

>  <r_qp_mol_MW>  (1022) 
397.51600000000002

>  <r_qp_volume>  (1022) 
1253.3299999999999

>  <r_sd_BIOSOLVEIT.INFINISEE\_FTREES\_SIMILARITY>  (1022) 
0.92800000000000005

>  <r_sd_BIOSOLVEIT.LOGP>  (1022) 
4.5242199999999997

>  <r_sd_BIOSOLVEIT.MOLECULAR\_WEIGHT>  (1022) 
398.52300000000002

>  <r_sd_BIOSOLVEIT.TPSA>  (1022) 
46.07

>  <i_epik_Tot_Q>  (1022) 
0

>  <i_epik_Tot_abs_Q>  (1022) 
0

>  <i_f3d_flags>  (1022) 
0

>  <i_i_glide_confnum>  (1022) 
8

>  <i_i_glide_lignum>  (1022) 
109

>  <i_i_glide_posenum>  (1022) 
17

>  <i_i_glide_rotatable_bonds>  (1022) 
9

>  <i_lp_mmshare_version>  (1022) 
65135

>  <i_m_ct_format>  (1022) 
2

>  <i_m_source_file_index>  (1022) 
725

>  <i_qp_#NandO>  (1022) 
3

>  <i_qp_#acid>  (1022) 
0

>  <i_qp_#amide>  (1022) 
0

>  <i_qp_#amidine>  (1022) 
0

>  <i_qp_#amine>  (1022) 
1

>  <i_qp_#in34>  (1022) 
0

>  <i_qp_#in56>  (1022) 
22

>  <i_qp_#metab>  (1022) 
7

>  <i_qp_#nonHatm>  (1022) 
30

>  <i_qp_#noncon>  (1022) 
0

>  <i_qp_#ringatoms>  (1022) 
22

>  <i_qp_#rotor>  (1022) 
9

>  <i_qp_#rtvFG>  (1022) 
0

>  <i_qp_#stars>  (1022) 
1

>  <i_qp_CNS>  (1022) 
1

>  <i_qp_HumanOralAbsorption>  (1022) 
3

>  <i_qp_RuleOfFive>  (1022) 
0

>  <i_qp_RuleOfThree>  (1022) 
1

>  <i_sd_BIOSOLVEIT.INFINISEE\_REAGENT1\_NAME>  (1022) 
8295396

>  <i_sd_BIOSOLVEIT.INFINISEE\_REAGENT2\_NAME>  (1022) 
21002124

>  <i_sd_BIOSOLVEIT.INFINISEE\_RESULT\_RANK>  (1022) 
6149

>  <i_sd_version>  (1022) 
0

>  <b_lp_Chiralities_Consistent>  (1022) 
1

>  <b_sd_chiral_flag>  (1022) 
0

>  <canonical_id>  (1022) 
ATP-HTVS-A343C43AF9EC

>  <compound_code>  (1022) 
23169

>  <title>  (1022) 
m_270004bbb____8295396____21002124

>  <variant>  (1022) 
23169-3

>  <source_file>  (1022) 
运行/运行/ATP-VSW/ATP-VSW-DOCK_HTVS_1-001_lib/ATP-VSW-DOCK_HTVS_1-001_lib

>  <canonical_smiles>  (1022) 
Cc1ccccc1[C@@H](O)CNCc1c(OCc2ccccc2)ccc2ccccc12

>  <scaffold>  (1022) 
c1ccc(CCNCc2c(OCc3ccccc3)ccc3ccccc23)cc1

>  <molecular_formula>  (1022) 
C27H27NO2

$$$$
ATP-HTVS-A345DB3E7236
     RDKit          3D

 61 64  0  0  0  0  0  0  0  0999 V2000
  196.8693  181.6609  150.7171 Cl  0  0  0  0  0  0  0  0  0  0  0  0
  197.3519  183.3069  150.5093 C   0  0  0  0  0  0  0  0  0  0  0  0
  198.3336  183.8629  151.3483 C   0  0  0  0  0  0  0  0  0  0  0  0
  198.7079  185.2187  151.2001 C   0  0  0  0  0  0  0  0  0  0  0  0
  198.1174  186.0008  150.1855 C   0  0  0  0  0  0  0  0  0  0  0  0
  197.1526  185.4360  149.3306 C   0  0  0  0  0  0  0  0  0  0  0  0
  196.7680  184.0932  149.4957 C   0  0  0  0  0  0  0  0  0  0  0  0
  199.7435  185.8365  152.1265 C   0  0  1  0  0  0  0  0  0  0  0  0
  199.1496  186.1966  153.4951 C   0  0  0  0  0  0  0  0  0  0  0  0
  199.3031  187.3359  153.9298 O   0  0  0  0  0  0  0  0  0  0  0  0
  198.5251  185.2039  154.1627 N   0  0  0  0  0  0  0  0  0  0  0  0
  197.9210  185.2183  155.4483 C   0  0  0  0  0  0  0  0  0  0  0  0
  197.5995  183.9779  156.0667 C   0  0  0  0  0  0  0  0  0  0  0  0
  197.8937  182.7601  155.4322 N   0  0  0  0  0  0  0  0  0  0  0  0
  199.3075  182.4097  155.4349 C   0  0  1  0  0  0  0  0  0  0  0  0
  199.6024  180.9374  155.6537 C   0  0  0  0  0  0  0  0  0  0  0  0
  198.6402  179.9338  155.3984 C   0  0  0  0  0  0  0  0  0  0  0  0
  198.9539  178.5836  155.6263 C   0  0  0  0  0  0  0  0  0  0  0  0
  200.2269  178.2153  156.1065 C   0  0  0  0  0  0  0  0  0  0  0  0
  201.1890  179.2156  156.3591 C   0  0  0  0  0  0  0  0  0  0  0  0
  200.8808  180.5673  156.1235 C   0  0  0  0  0  0  0  0  0  0  0  0
  200.5589  176.7530  156.3484 C   0  0  1  0  0  0  0  0  0  0  0  0
  201.1538  176.0757  155.1936 N   0  0  0  0  0  0  0  0  0  0  0  0
  201.3254  174.6623  155.5021 C   0  0  2  0  0  0  0  0  0  0  0  0
  202.4664  176.6260  154.8698 C   0  0  2  0  0  0  0  0  0  0  0  0
  196.9936  183.9825  157.3525 C   0  0  0  0  0  0  0  0  0  0  0  0
  196.7175  185.2319  157.9709 C   0  0  0  0  0  0  0  0  0  0  0  0
  197.0299  186.3782  157.3370 N   0  0  0  0  0  0  0  0  0  0  0  0
  197.6032  186.4221  156.1203 C   0  0  0  0  0  0  0  0  0  0  0  0
  196.0922  185.2955  159.2287 C   0  0  0  0  0  0  0  0  0  0  0  0
  195.7680  184.1076  159.9062 C   0  0  0  0  0  0  0  0  0  0  0  0
  196.0504  182.8601  159.3167 C   0  0  0  0  0  0  0  0  0  0  0  0
  196.6579  182.7922  158.0478 C   0  0  0  0  0  0  0  0  0  0  0  0
  198.7823  183.2466  152.1136 H   0  0  0  0  0  0  0  0  0  0  0  0
  198.4000  187.0345  150.0619 H   0  0  0  0  0  0  0  0  0  0  0  0
  196.7058  186.0322  148.5465 H   0  0  0  0  0  0  0  0  0  0  0  0
  196.0303  183.6670  148.8385 H   0  0  0  0  0  0  0  0  0  0  0  0
  200.5807  185.1491  152.2544 H   0  0  0  0  0  0  0  0  0  0  0  0
  200.1512  186.7403  151.6652 H   0  0  0  0  0  0  0  0  0  0  0  0
  198.5243  184.2967  153.7182 H   0  0  0  0  0  0  0  0  0  0  0  0
  197.3264  181.9849  155.7500 H   0  0  0  0  0  0  0  0  0  0  0  0
  199.7348  182.7016  154.4780 H   0  0  0  0  0  0  0  0  0  0  0  0
  199.8392  182.9704  156.2054 H   0  0  0  0  0  0  0  0  0  0  0  0
  197.6522  180.1741  155.0338 H   0  0  0  0  0  0  0  0  0  0  0  0
  198.1997  177.8320  155.4466 H   0  0  0  0  0  0  0  0  0  0  0  0
  202.1688  178.9459  156.7259 H   0  0  0  0  0  0  0  0  0  0  0  0
  201.6321  181.3219  156.3055 H   0  0  0  0  0  0  0  0  0  0  0  0
  201.2141  176.6740  157.2182 H   0  0  0  0  0  0  0  0  0  0  0  0
  199.6296  176.2452  156.6149 H   0  0  0  0  0  0  0  0  0  0  0  0
  201.7637  174.1329  154.6554 H   0  0  0  0  0  0  0  0  0  0  0  0
  200.3665  174.1916  155.7176 H   0  0  0  0  0  0  0  0  0  0  0  0
  201.9783  174.5226  156.3648 H   0  0  0  0  0  0  0  0  0  0  0  0
  202.9095  176.0981  154.0249 H   0  0  0  0  0  0  0  0  0  0  0  0
  203.1479  176.5471  155.7182 H   0  0  0  0  0  0  0  0  0  0  0  0
  202.3963  177.6752  154.5829 H   0  0  0  0  0  0  0  0  0  0  0  0
  197.7800  187.4179  155.7353 H   0  0  0  0  0  0  0  0  0  0  0  0
  195.8722  186.2501  159.6894 H   0  0  0  0  0  0  0  0  0  0  0  0
  195.2989  184.1568  160.8765 H   0  0  0  0  0  0  0  0  0  0  0  0
  195.8158  181.9391  159.8293 H   0  0  0  0  0  0  0  0  0  0  0  0
  196.8547  181.8078  157.6420 H   0  0  0  0  0  0  0  0  0  0  0  0
  196.8080  187.2581  157.8020 H   0  0  0  0  0  0  0  0  0  0  0  0
  1  2  1  0
  2  3  2  0
  2  7  1  0
  3  4  1  0
  3 34  1  0
  4  5  2  0
  4  8  1  0
  5  6  1  0
  5 35  1  0
  6  7  2  0
  6 36  1  0
  7 37  1  0
  8  9  1  0
  8 38  1  1
  8 39  1  0
  9 10  2  0
  9 11  1  0
 11 12  1  0
 11 40  1  0
 12 13  2  0
 12 29  1  0
 13 14  1  0
 13 26  1  0
 14 15  1  0
 14 41  1  0
 15 16  1  0
 15 42  1  6
 15 43  1  0
 16 17  1  0
 16 21  2  0
 17 18  2  0
 17 44  1  0
 18 19  1  0
 18 45  1  0
 19 20  2  0
 19 22  1  0
 20 21  1  0
 20 46  1  0
 21 47  1  0
 22 23  1  0
 22 48  1  1
 22 49  1  0
 23 24  1  0
 23 25  1  0
 24 50  1  6
 24 51  1  0
 24 52  1  0
 25 53  1  6
 25 54  1  0
 25 55  1  0
 26 27  1  0
 26 33  2  0
 27 28  1  0
 27 30  2  0
 28 29  2  0
 28 61  1  0
 29 56  1  0
 30 31  1  0
 30 57  1  0
 31 32  2  0
 31 58  1  0
 32 33  1  0
 32 59  1  0
 33 60  1  0
M  CHG  1  28   1
M  END
>  <s_epik_cmdline>  (1023) 
J2VwaWtfcHl0aG9uJywgJy1waCcsICc3LjAwMDAwMCcsICctcGh0JywgJzIuMDAwMDAwJywgJy1tcycsICcxNicsICctdG4nLCAnOCcsICctbWEnLCAnMjAwJywgJy1pbWFlJywgJzxpbmZpbGUubWFlPicsICctb21hZScsICc8b3V0ZmlsZS5tYWU+Jw==

>  <s_epik_input>  (1023) 
Q2xjMVtjSF1jKFtjSF1bY0hdW2NIXTEpW0NIMl1DKD1PKVtOSF1jKFtjSF1uYyhjMjMpW2NIXVtjSF1bY0hdW2NIXTMpYzJbTkhdW0NIMl1jNFtjSF1bY0hdYyhbY0hdW2NIXTQpW0NIMl1OKFtDSDNdKVtDSDNd

>  <s_i_glide_gridfile>  (1023) 
ATP-Grid

>  <s_lp_Force_Field>  (1023) 
OPLS_2005

>  <s_lp_Variant>  (1023) 
rxn502b____EMOL492715____EMOL30488121____EMOL50155899-2

>  <s_lp_label>  (1023) 
2182_sdstereoexpander_1_neutralizer_1_epik_2_stereoizer_1

>  <s_m_source_file>  (1023) 
ATP-VSW-LIGPREP-003-in.maegz

>  <s_sd_BIOSOLVEIT.INFINISEE\_QUERY\_NAME>  (1023) 
Ref-Lig

>  <s_sd_BIOSOLVEIT.INFINISEE\_QUERY\_SMILES>  (1023) 
S(c1nc2c(cc1C[NH2+]Cc3ccc(cc3)C[NH+](C)C)cccc2)Cc4ccccc4

>  <s_sd_BIOSOLVEIT.INFINISEE\_REACTION\_NAME>  (1023) 
rxn502b

>  <s_sd_BIOSOLVEIT.INFINISEE\_REAGENT1\_NAME>  (1023) 
EMOL492715

>  <s_sd_BIOSOLVEIT.INFINISEE\_REAGENT1\_SMILES>  (1023) 
Clc1cc(ccc1)CC(=O)O

>  <s_sd_BIOSOLVEIT.INFINISEE\_REAGENT2\_NAME>  (1023) 
EMOL30488121

>  <s_sd_BIOSOLVEIT.INFINISEE\_REAGENT2\_SMILES>  (1023) 
Brc1c(N)cnc2c1cccc2

>  <s_sd_BIOSOLVEIT.INFINISEE\_REAGENT3\_NAME>  (1023) 
EMOL50155899

>  <s_sd_BIOSOLVEIT.INFINISEE\_REAGENT3\_SMILES>  (1023) 
N(Cc1ccc(cc1)CN)(C)C

>  <s_sd_BIOSOLVEIT.INFINISEE\_SPACE>  (1023) 
eXplore_7tr_2022-12

>  <s_vsw_compound_code>  (1023) 
69795

>  <s_vsw_variant>  (1023) 
69795-2

>  <r_epik_Charging_Adjusted_Penalty>  (1023) 
1.68793866639643

>  <r_epik_Ionization_Penalty>  (1023) 
1.6581999999999999

>  <r_epik_Ionization_Penalty_Charging>  (1023) 
0.0298

>  <r_epik_Ionization_Penalty_Neutral>  (1023) 
1.6284000000000001

>  <r_epik_State_Penalty>  (1023) 
1.6581999999999999

>  <r_i_docking_score>  (1023) 
-2.2923487770340598

>  <r_i_glide_ecoul>  (1023) 
-4.3456311225891104

>  <r_i_glide_eff_state_penalty>  (1023) 
1.6581999999999999

>  <r_i_glide_einternal>  (1023) 
3.3358345031738299

>  <r_i_glide_emodel>  (1023) 
-51.132401966852903

>  <r_i_glide_energy>  (1023) 
-40.726006031036398

>  <r_i_glide_erotb>  (1023) 
0.665786915641423

>  <r_i_glide_esite>  (1023) 
-0.013294531663682999

>  <r_i_glide_evdw>  (1023) 
-36.380374908447301

>  <r_i_glide_gscore>  (1023) 
-3.9505487770340602

>  <r_i_glide_hbond>  (1023) 
0

>  <r_i_glide_ligand_efficiency>  (1023) 
-0.069465114455577598

>  <r_i_glide_ligand_efficiency_ln>  (1023) 
-0.50980649886563101

>  <r_i_glide_ligand_efficiency_sa>  (1023) 
-0.222811739093667

>  <r_i_glide_lipo>  (1023) 
-1.8556789910816101

>  <r_i_glide_metal>  (1023) 
-0

>  <r_i_glide_rewards>  (1023) 
-0.27649875611946101

>  <r_lp_Energy>  (1023) 
34.150865000000003

>  <r_qp_ACxDN^.5/SA>  (1023) 
0.013272000000000001

>  <r_qp_CIQPlogS>  (1023) 
-6.1550000000000002

>  <r_qp_EA(eV)>  (1023) 
1.0149999999999999

>  <r_qp_FISA>  (1023) 
65.891999999999996

>  <r_qp_FOSA>  (1023) 
211.19800000000001

>  <r_qp_IP(eV)>  (1023) 
8.5559999999999992

>  <r_qp_Jm>  (1023) 
0.054264939105452402

>  <r_qp_PISA>  (1023) 
361.95400000000001

>  <r_qp_PSA>  (1023) 
62.634

>  <r_qp_PercentHumanOralAbsorption>  (1023) 
100

>  <r_qp_QPPCaco>  (1023) 
586.06399999999996

>  <r_qp_QPPMDCK>  (1023) 
603.76099999999997

>  <r_qp_QPlogBB>  (1023) 
0.012

>  <r_qp_QPlogHERG>  (1023) 
-6.3070000000000004

>  <r_qp_QPlogKhsa>  (1023) 
0.68899999999999995

>  <r_qp_QPlogKp>  (1023) 
-2.7530000000000001

>  <r_qp_QPlogPC16>  (1023) 
14.624000000000001

>  <r_qp_QPlogPo/w>  (1023) 
4.6269999999999998

>  <r_qp_QPlogPoct>  (1023) 
22.832000000000001

>  <r_qp_QPlogPw>  (1023) 
11.882

>  <r_qp_QPlogS>  (1023) 
-4.1740000000000004

>  <r_qp_QPpolrz>  (1023) 
46.533999999999999

>  <r_qp_SASA>  (1023) 
692.61400000000003

>  <r_qp_SAamideO>  (1023) 
0

>  <r_qp_SAfluorine>  (1023) 
0

>  <r_qp_WPSA>  (1023) 
53.570999999999998

>  <r_qp_accptHB>  (1023) 
6.5

>  <r_qp_dip^2/V>  (1023) 
0.0532795

>  <r_qp_dipole>  (1023) 
8.5079999999999991

>  <r_qp_donorHB>  (1023) 
2

>  <r_qp_glob>  (1023) 
0.85648060000000004

>  <r_qp_mol_MW>  (1023) 
458.98899999999998

>  <r_qp_volume>  (1023) 
1358.52

>  <r_sd_BIOSOLVEIT.INFINISEE\_FTREES\_SIMILARITY>  (1023) 
0.93600000000000005

>  <r_sd_BIOSOLVEIT.LOGP>  (1023) 
4.3259999999999996

>  <r_sd_BIOSOLVEIT.MOLECULAR\_WEIGHT>  (1023) 
459.99799999999999

>  <r_sd_BIOSOLVEIT.TPSA>  (1023) 
58.460000000000001

>  <i_epik_Tot_Q>  (1023) 
1

>  <i_epik_Tot_abs_Q>  (1023) 
1

>  <i_f3d_flags>  (1023) 
0

>  <i_i_glide_confnum>  (1023) 
2

>  <i_i_glide_lignum>  (1023) 
830

>  <i_i_glide_posenum>  (1023) 
15

>  <i_i_glide_rotatable_bonds>  (1023) 
9

>  <i_lp_mmshare_version>  (1023) 
65135

>  <i_m_ct_format>  (1023) 
2

>  <i_m_source_file_index>  (1023) 
2182

>  <i_qp_#NandO>  (1023) 
5

>  <i_qp_#acid>  (1023) 
0

>  <i_qp_#amide>  (1023) 
0

>  <i_qp_#amidine>  (1023) 
0

>  <i_qp_#amine>  (1023) 
1

>  <i_qp_#in34>  (1023) 
0

>  <i_qp_#in56>  (1023) 
22

>  <i_qp_#metab>  (1023) 
7

>  <i_qp_#nonHatm>  (1023) 
33

>  <i_qp_#noncon>  (1023) 
0

>  <i_qp_#ringatoms>  (1023) 
22

>  <i_qp_#rotor>  (1023) 
8

>  <i_qp_#rtvFG>  (1023) 
0

>  <i_qp_#stars>  (1023) 
0

>  <i_qp_CNS>  (1023) 
1

>  <i_qp_HumanOralAbsorption>  (1023) 
3

>  <i_qp_RuleOfFive>  (1023) 
0

>  <i_qp_RuleOfThree>  (1023) 
1

>  <i_sd_BIOSOLVEIT.INFINISEE\_RESULT\_RANK>  (1023) 
2230

>  <i_sd_version>  (1023) 
0

>  <b_lp_Chiralities_Consistent>  (1023) 
1

>  <b_sd_chiral_flag>  (1023) 
0

>  <canonical_id>  (1023) 
ATP-HTVS-A345DB3E7236

>  <compound_code>  (1023) 
69795

>  <title>  (1023) 
rxn502b____EMOL492715____EMOL30488121____EMOL50155899

>  <variant>  (1023) 
69795-2

>  <source_file>  (1023) 
运行/运行/ATP-VSW/ATP-VSW-DOCK_HTVS_1-003_lib/ATP-VSW-DOCK_HTVS_1-003_lib.mae

>  <canonical_smiles>  (1023) 
CN(C)Cc1ccc(CNc2c(NC(=O)Cc3cccc(Cl)c3)c[nH+]c3ccccc23)cc1

>  <scaffold>  (1023) 
O=C(Cc1ccccc1)Nc1c[nH+]c2ccccc2c1NCc1ccccc1

>  <molecular_formula>  (1023) 
C27H28ClN4O+

$$$$
ATP-HTVS-A361D156A19C
     RDKit          3D

 45 48  0  0  0  0  0  0  0  0999 V2000
  194.2470  186.5623  160.9769 Cl  0  0  0  0  0  0  0  0  0  0  0  0
  194.8858  185.2078  160.1149 C   0  0  0  0  0  0  0  0  0  0  0  0
  196.2798  185.0580  159.9752 C   0  0  0  0  0  0  0  0  0  0  0  0
  197.0892  186.0053  160.5086 F   0  0  0  0  0  0  0  0  0  0  0  0
  196.8159  183.9370  159.3075 C   0  0  0  0  0  0  0  0  0  0  0  0
  195.9414  182.9575  158.7837 C   0  0  0  0  0  0  0  0  0  0  0  0
  194.5487  183.1162  158.9070 C   0  0  0  0  0  0  0  0  0  0  0  0
  194.0180  184.2417  159.5695 C   0  0  0  0  0  0  0  0  0  0  0  0
  198.3196  183.7299  159.1959 C   0  0  1  0  0  0  0  0  0  0  0  0
  199.0543  184.9298  158.7322 N   0  0  0  0  0  0  0  0  0  0  0  0
  200.4547  184.9544  159.1640 C   0  0  2  0  0  0  0  0  0  0  0  0
  201.0419  186.3943  159.3064 C   0  0  0  0  0  0  0  0  0  0  0  0
  202.4492  186.6266  159.2820 C   0  0  0  0  0  0  0  0  0  0  0  0
  203.3463  185.6157  159.2493 F   0  0  0  0  0  0  0  0  0  0  0  0
  202.9384  187.9491  159.2212 C   0  0  0  0  0  0  0  0  0  0  0  0
  202.0632  189.0425  159.2253 C   0  0  0  0  0  0  0  0  0  0  0  0
  200.6801  188.8271  159.3008 C   0  0  0  0  0  0  0  0  0  0  0  0
  200.1754  187.5054  159.3523 C   0  0  0  0  0  0  0  0  0  0  0  0
  201.2884  184.0460  158.2621 C   0  0  0  0  0  0  0  0  0  0  0  0
  201.5706  184.4084  156.9246 C   0  0  0  0  0  0  0  0  0  0  0  0
  201.0232  185.5758  156.3290 N   0  0  0  0  0  0  0  0  0  0  0  0
  199.7783  186.0473  156.4867 C   0  0  0  0  0  0  0  0  0  0  0  0
  199.4496  187.1474  156.0642 O   0  0  0  0  0  0  0  0  0  0  0  0
  198.7666  185.1826  157.2839 C   0  0  1  0  0  0  0  0  0  0  0  0
  202.4901  183.6531  156.1651 C   0  0  0  0  0  0  0  0  0  0  0  0
  203.0557  182.4854  156.7094 C   0  0  0  0  0  0  0  0  0  0  0  0
  202.7211  182.0805  158.0135 C   0  0  0  0  0  0  0  0  0  0  0  0
  203.4171  180.6449  158.6821 Cl  0  0  0  0  0  0  0  0  0  0  0  0
  201.8527  182.8591  158.7965 C   0  0  0  0  0  0  0  0  0  0  0  0
  196.3264  182.0804  158.2890 H   0  0  0  0  0  0  0  0  0  0  0  0
  193.8879  182.3680  158.4985 H   0  0  0  0  0  0  0  0  0  0  0  0
  192.9474  184.3607  159.6648 H   0  0  0  0  0  0  0  0  0  0  0  0
  198.6612  183.4434  160.1856 H   0  0  0  0  0  0  0  0  0  0  0  0
  198.5428  182.8766  158.5599 H   0  0  0  0  0  0  0  0  0  0  0  0
  200.5058  184.5629  160.1764 H   0  0  0  0  0  0  0  0  0  0  0  0
  204.0005  188.0935  159.1072 H   0  0  0  0  0  0  0  0  0  0  0  0
  202.4446  190.0452  159.1373 H   0  0  0  0  0  0  0  0  0  0  0  0
  199.9834  189.6452  159.2592 H   0  0  0  0  0  0  0  0  0  0  0  0
  199.1023  187.3950  159.3721 H   0  0  0  0  0  0  0  0  0  0  0  0
  201.6580  186.1447  155.7804 H   0  0  0  0  0  0  0  0  0  0  0  0
  198.7272  184.2420  156.7322 H   0  0  0  0  0  0  0  0  0  0  0  0
  197.7798  185.6307  157.1873 H   0  0  0  0  0  0  0  0  0  0  0  0
  202.7676  183.9816  155.1739 H   0  0  0  0  0  0  0  0  0  0  0  0
  203.7503  181.9118  156.1239 H   0  0  0  0  0  0  0  0  0  0  0  0
  201.6396  182.5617  159.8088 H   0  0  0  0  0  0  0  0  0  0  0  0
  1  2  1  0
  2  3  2  0
  2  8  1  0
  3  4  1  0
  3  5  1  0
  5  6  2  0
  5  9  1  0
  6  7  1  0
  6 30  1  0
  7  8  2  0
  7 31  1  0
  8 32  1  0
  9 10  1  0
  9 33  1  1
  9 34  1  0
 10 11  1  0
 10 24  1  0
 11 12  1  0
 11 19  1  0
 11 35  1  1
 12 13  1  0
 12 18  2  0
 13 14  1  0
 13 15  2  0
 15 16  1  0
 15 36  1  0
 16 17  2  0
 16 37  1  0
 17 18  1  0
 17 38  1  0
 18 39  1  0
 19 20  2  0
 19 29  1  0
 20 21  1  0
 20 25  1  0
 21 22  1  0
 21 40  1  0
 22 23  2  0
 22 24  1  0
 24 41  1  6
 24 42  1  0
 25 26  2  0
 25 43  1  0
 26 27  1  0
 26 44  1  0
 27 28  1  0
 27 29  2  0
 29 45  1  0
M  END
>  <s_epik_cmdline>  (1024) 
J2VwaWtfcHl0aG9uJywgJy1waCcsICc3LjAwMDAwMCcsICctcGh0JywgJzIuMDAwMDAwJywgJy1tcycsICcxNicsICctdG4nLCAnOCcsICctbWEnLCAnMjAwJywgJy1pbWFlJywgJzxpbmZpbGUubWFlPicsICctb21hZScsICc8b3V0ZmlsZS5tYWU+Jw==

>  <s_epik_input>  (1024) 
W2NIXTFbY0hdW2NIXVtjSF1jKEYpYzFbQ0BIXTJOKFtDSDJdYyhjKEYpYzNDbClbY0hdW2NIXVtjSF0zKVtDSDJdQyg9TylbTkhdYyhjMjQpW2NIXVtjSF1jKENsKVtjSF00

>  <s_i_glide_gridfile>  (1024) 
ATP-Grid

>  <s_lp_Force_Field>  (1024) 
OPLS_2005

>  <s_lp_Variant>  (1024) 
m_2230bdc____14772912____9173500-2

>  <s_lp_label>  (1024) 
1556_sdstereoexpander_3_neutralizer_1_epik_1_stereoizer_1

>  <s_m_source_file>  (1024) 
ATP-VSW-LIGPREP-002-in.maegz

>  <s_sd_BIOSOLVEIT.INFINISEE\_QUERY\_NAME>  (1024) 
Ref-Lig

>  <s_sd_BIOSOLVEIT.INFINISEE\_QUERY\_SMILES>  (1024) 
S(c1nc2c(cc1C[NH2+]Cc3ccc(cc3)C[NH+](C)C)cccc2)Cc4ccccc4

>  <s_sd_BIOSOLVEIT.INFINISEE\_REACTION\_NAME>  (1024) 
m_2230bdc

>  <s_sd_BIOSOLVEIT.INFINISEE\_REAGENT1\_SMILES>  (1024) 
[R1*]N1C(c2c(F)cccc2)c3c(NC(=O)C1)ccc(Cl)c3

>  <s_sd_BIOSOLVEIT.INFINISEE\_REAGENT2\_SMILES>  (1024) 
[R1*]Cc1c(F)c(Cl)ccc1

>  <s_sd_BIOSOLVEIT.INFINISEE\_SPACE>  (1024) 
REALSpace_44bn_2023-08

>  <s_vsw_compound_code>  (1024) 
49762

>  <s_vsw_variant>  (1024) 
49762-2

>  <r_epik_Charging_Adjusted_Penalty>  (1024) 
0.0045720550350946999

>  <r_epik_Ionization_Penalty>  (1024) 
0.0045999999999999999

>  <r_epik_Ionization_Penalty_Charging>  (1024) 
0

>  <r_epik_Ionization_Penalty_Neutral>  (1024) 
0.0045999999999999999

>  <r_epik_State_Penalty>  (1024) 
0.0045999999999999999

>  <r_i_docking_score>  (1024) 
-1.19288878012677

>  <r_i_glide_ecoul>  (1024) 
-0.98237985372543302

>  <r_i_glide_eff_state_penalty>  (1024) 
0.0045999999999999999

>  <r_i_glide_einternal>  (1024) 
1.0483039617538501

>  <r_i_glide_emodel>  (1024) 
-29.9015028336052

>  <r_i_glide_energy>  (1024) 
-28.3200854659081

>  <r_i_glide_erotb>  (1024) 
0.318103201506231

>  <r_i_glide_esite>  (1024) 
0

>  <r_i_glide_evdw>  (1024) 
-27.337705612182599

>  <r_i_glide_gscore>  (1024) 
-1.19748878012677

>  <r_i_glide_hbond>  (1024) 
0

>  <r_i_glide_ligand_efficiency>  (1024) 
-0.0411340958664402

>  <r_i_glide_ligand_efficiency_ln>  (1024) 
-0.273141281599525

>  <r_i_glide_ligand_efficiency_sa>  (1024) 
-0.126376974697989

>  <r_i_glide_lipo>  (1024) 
-1.3471731680522501

>  <r_i_glide_metal>  (1024) 
-0

>  <r_i_glide_rewards>  (1024) 
1.3458234450872

>  <r_lp_Energy>  (1024) 
55.184373000000001

>  <r_qp_ACxDN^.5/SA>  (1024) 
0.0070894

>  <r_qp_CIQPlogS>  (1024) 
-6.1369999999999996

>  <r_qp_EA(eV)>  (1024) 
0.496

>  <r_qp_FISA>  (1024) 
64.406000000000006

>  <r_qp_FOSA>  (1024) 
39.247

>  <r_qp_IP(eV)>  (1024) 
9.3870000000000005

>  <r_qp_Jm>  (1024) 
0.00094986768599847804

>  <r_qp_PISA>  (1024) 
365.98399999999998

>  <r_qp_PSA>  (1024) 
42.207999999999998

>  <r_qp_PercentHumanOralAbsorption>  (1024) 
100

>  <r_qp_QPPCaco>  (1024) 
605.39800000000002

>  <r_qp_QPPMDCK>  (1024) 
2553.6100000000001

>  <r_qp_QPlogBB>  (1024) 
0.64600000000000002

>  <r_qp_QPlogHERG>  (1024) 
-6.5039999999999996

>  <r_qp_QPlogKhsa>  (1024) 
0.84499999999999997

>  <r_qp_QPlogKp>  (1024) 
-3.2879999999999998

>  <r_qp_QPlogPC16>  (1024) 
13.17

>  <r_qp_QPlogPo/w>  (1024) 
4.8300000000000001

>  <r_qp_QPlogPoct>  (1024) 
19.337

>  <r_qp_QPlogPw>  (1024) 
9.6880000000000006

>  <r_qp_QPlogS>  (1024) 
-5.3710000000000004

>  <r_qp_QPpolrz>  (1024) 
42.838000000000001

>  <r_qp_SASA>  (1024) 
634.75400000000002

>  <r_qp_SAamideO>  (1024) 
0

>  <r_qp_SAfluorine>  (1024) 
25.117000000000001

>  <r_qp_WPSA>  (1024) 
165.11699999999999

>  <r_qp_accptHB>  (1024) 
4.5

>  <r_qp_dip^2/V>  (1024) 
0.031389899999999998

>  <r_qp_dipole>  (1024) 
6.0570000000000004

>  <r_qp_donorHB>  (1024) 
1

>  <r_qp_glob>  (1024) 
0.8454467

>  <r_qp_mol_MW>  (1024) 
433.28399999999999

>  <r_qp_volume>  (1024) 
1168.934

>  <r_sd_BIOSOLVEIT.INFINISEE\_FTREES\_SIMILARITY>  (1024) 
0.90600000000000003

>  <r_sd_BIOSOLVEIT.LOGP>  (1024) 
4.3982000000000001

>  <r_sd_BIOSOLVEIT.MOLECULAR\_WEIGHT>  (1024) 
434.291

>  <r_sd_BIOSOLVEIT.TPSA>  (1024) 
33.539999999999999

>  <i_epik_Tot_Q>  (1024) 
0

>  <i_epik_Tot_abs_Q>  (1024) 
0

>  <i_f3d_flags>  (1024) 
0

>  <i_i_glide_confnum>  (1024) 
3

>  <i_i_glide_lignum>  (1024) 
536

>  <i_i_glide_posenum>  (1024) 
5

>  <i_i_glide_rotatable_bonds>  (1024) 
3

>  <i_lp_mmshare_version>  (1024) 
65135

>  <i_m_ct_format>  (1024) 
2

>  <i_m_source_file_index>  (1024) 
1556

>  <i_qp_#NandO>  (1024) 
3

>  <i_qp_#acid>  (1024) 
0

>  <i_qp_#amide>  (1024) 
0

>  <i_qp_#amidine>  (1024) 
0

>  <i_qp_#amine>  (1024) 
1

>  <i_qp_#in34>  (1024) 
0

>  <i_qp_#in56>  (1024) 
18

>  <i_qp_#metab>  (1024) 
6

>  <i_qp_#nonHatm>  (1024) 
29

>  <i_qp_#noncon>  (1024) 
2

>  <i_qp_#ringatoms>  (1024) 
23

>  <i_qp_#rotor>  (1024) 
2

>  <i_qp_#rtvFG>  (1024) 
0

>  <i_qp_#stars>  (1024) 
0

>  <i_qp_CNS>  (1024) 
2

>  <i_qp_HumanOralAbsorption>  (1024) 
3

>  <i_qp_RuleOfFive>  (1024) 
0

>  <i_qp_RuleOfThree>  (1024) 
0

>  <i_sd_BIOSOLVEIT.INFINISEE\_REAGENT1\_NAME>  (1024) 
14772912

>  <i_sd_BIOSOLVEIT.INFINISEE\_REAGENT2\_NAME>  (1024) 
9173500

>  <i_sd_BIOSOLVEIT.INFINISEE\_RESULT\_RANK>  (1024) 
62773

>  <i_sd_version>  (1024) 
0

>  <b_lp_Chiralities_Consistent>  (1024) 
1

>  <b_sd_chiral_flag>  (1024) 
0

>  <canonical_id>  (1024) 
ATP-HTVS-A361D156A19C

>  <compound_code>  (1024) 
49762

>  <title>  (1024) 
m_2230bdc____14772912____9173500

>  <variant>  (1024) 
49762-2

>  <source_file>  (1024) 
运行/运行/ATP-VSW/ATP-VSW-DOCK_HTVS_1-002_lib.maegz

>  <canonical_smiles>  (1024) 
O=C1CN(Cc2cccc(Cl)c2F)[C@H](c2ccccc2F)c2cc(Cl)ccc2N1

>  <scaffold>  (1024) 
O=C1CN(Cc2ccccc2)C(c2ccccc2)c2ccccc2N1

>  <molecular_formula>  (1024) 
C22H16Cl2F2N2O

$$$$
ATP-HTVS-A38ED211E8B3
     RDKit          3D

 68 71  0  0  0  0  0  0  0  0999 V2000
  196.4899  187.6010  157.2729 O   0  0  0  0  0  0  0  0  0  0  0  0
  197.6599  187.3665  157.0641 C   0  0  0  0  0  0  0  0  0  0  0  0
  198.5466  187.1970  158.0989 N   0  0  0  0  0  0  0  0  0  0  0  0
  199.7251  186.3862  157.9663 C   0  0  0  0  0  0  0  0  0  0  0  0
  201.0130  186.9889  158.1330 C   0  0  0  0  0  0  0  0  0  0  0  0
  202.2028  186.2368  157.8921 C   0  0  0  0  0  0  0  0  0  0  0  0
  202.0484  184.8799  157.4833 C   0  0  0  0  0  0  0  0  0  0  0  0
  200.7845  184.2619  157.4224 C   0  0  0  0  0  0  0  0  0  0  0  0
  199.5903  184.9991  157.6731 C   0  0  0  0  0  0  0  0  0  0  0  0
  198.2004  187.6056  159.4648 C   0  0  1  0  0  0  0  0  0  0  0  0
  197.3360  188.8729  159.6197 C   0  0  1  0  0  0  0  0  0  0  0  0
  197.1275  189.2654  161.0383 N   0  0  2  0  0  0  0  0  0  0  0  0
  198.2277  187.1859  155.7113 C   0  0  0  0  0  0  0  0  0  0  0  0
  199.0470  188.3220  155.2538 C   0  0  0  0  0  0  0  0  0  0  0  0
  199.2128  189.3642  155.8929 O   0  0  0  0  0  0  0  0  0  0  0  0
  199.6153  188.2045  154.0480 N   0  0  0  0  0  0  0  0  0  0  0  0
  199.4292  187.1004  153.1586 C   0  0  0  0  0  0  0  0  0  0  0  0
  198.6043  186.0356  153.5741 C   0  0  0  0  0  0  0  0  0  0  0  0
  198.4079  184.9400  152.6568 C   0  0  0  0  0  0  0  0  0  0  0  0
  199.1362  184.8914  151.4774 C   0  0  0  0  0  0  0  0  0  0  0  0
  199.9812  185.9648  151.0790 C   0  0  0  0  0  0  0  0  0  0  0  0
  200.1051  187.0820  151.9261 C   0  0  0  0  0  0  0  0  0  0  0  0
  198.0136  186.0774  154.9372 C   0  0  0  0  0  0  0  0  0  0  0  0
  197.3113  184.9806  155.4257 N   0  0  0  0  0  0  0  0  0  0  0  0
  197.7916  183.6549  155.5813 C   0  0  0  0  0  0  0  0  0  0  0  0
  196.9794  182.6928  156.2149 C   0  0  0  0  0  0  0  0  0  0  0  0
  197.4554  181.3626  156.3631 C   0  0  0  0  0  0  0  0  0  0  0  0
  198.7237  181.0189  155.8616 C   0  0  0  0  0  0  0  0  0  0  0  0
  199.5210  181.9955  155.2224 C   0  0  0  0  0  0  0  0  0  0  0  0
  199.0783  183.3172  155.1209 C   0  0  0  0  0  0  0  0  0  0  0  0
  199.2906  179.6285  156.0502 C   0  0  1  0  0  0  0  0  0  0  0  0
  200.5896  179.5939  156.9072 C   0  0  1  0  0  0  0  0  0  0  0  0
  201.1929  178.2388  156.9938 N   0  0  1  0  0  0  0  0  0  0  0  0
  200.2849  177.2238  157.5778 C   0  0  2  0  0  0  0  0  0  0  0  0
  201.8039  177.7884  155.7189 C   0  0  2  0  0  0  0  0  0  0  0  0
  196.5750  190.0948  161.0686 H   0  0  0  0  0  0  0  0  0  0  0  0
  198.0244  189.4681  161.5293 H   0  0  0  0  0  0  0  0  0  0  0  0
  201.1116  188.0482  158.4275 H   0  0  0  0  0  0  0  0  0  0  0  0
  203.1825  186.6746  157.9967 H   0  0  0  0  0  0  0  0  0  0  0  0
  202.9488  184.3063  157.2107 H   0  0  0  0  0  0  0  0  0  0  0  0
  200.7070  183.2215  157.1041 H   0  0  0  0  0  0  0  0  0  0  0  0
  198.6226  184.4927  157.5656 H   0  0  0  0  0  0  0  0  0  0  0  0
  197.7506  186.7504  159.9565 H   0  0  0  0  0  0  0  0  0  0  0  0
  199.1477  187.7951  159.9535 H   0  0  0  0  0  0  0  0  0  0  0  0
  197.8042  189.7049  159.0832 H   0  0  0  0  0  0  0  0  0  0  0  0
  196.3416  188.7075  159.1829 H   0  0  0  0  0  0  0  0  0  0  0  0
  200.1845  188.9830  153.7200 H   0  0  0  0  0  0  0  0  0  0  0  0
  197.7083  184.1429  152.8754 H   0  0  0  0  0  0  0  0  0  0  0  0
  199.0622  184.0002  150.8633 H   0  0  0  0  0  0  0  0  0  0  0  0
  200.5233  185.9019  150.1530 H   0  0  0  0  0  0  0  0  0  0  0  0
  200.7554  187.8997  151.6423 H   0  0  0  0  0  0  0  0  0  0  0  0
  196.5220  185.1691  156.0200 H   0  0  0  0  0  0  0  0  0  0  0  0
  195.9926  182.9398  156.5962 H   0  0  0  0  0  0  0  0  0  0  0  0
  196.9065  180.6622  156.9634 H   0  0  0  0  0  0  0  0  0  0  0  0
  200.4773  181.7103  154.8114 H   0  0  0  0  0  0  0  0  0  0  0  0
  199.6987  184.0174  154.5770 H   0  0  0  0  0  0  0  0  0  0  0  0
  198.5074  179.0060  156.4912 H   0  0  0  0  0  0  0  0  0  0  0  0
  199.4916  179.2638  155.0445 H   0  0  0  0  0  0  0  0  0  0  0  0
  201.3551  180.2700  156.5140 H   0  0  0  0  0  0  0  0  0  0  0  0
  200.3920  179.9615  157.9184 H   0  0  0  0  0  0  0  0  0  0  0  0
  199.4098  177.0491  156.9495 H   0  0  0  0  0  0  0  0  0  0  0  0
  199.9481  177.5428  158.5657 H   0  0  0  0  0  0  0  0  0  0  0  0
  200.7955  176.2668  157.6844 H   0  0  0  0  0  0  0  0  0  0  0  0
  201.0644  177.6702  154.9257 H   0  0  0  0  0  0  0  0  0  0  0  0
  202.3017  176.8280  155.8538 H   0  0  0  0  0  0  0  0  0  0  0  0
  202.5578  178.5031  155.3824 H   0  0  0  0  0  0  0  0  0  0  0  0
  201.9794  178.3158  157.6274 H   0  0  0  0  0  0  0  0  0  0  0  0
  196.6784  188.5257  161.5383 H   0  0  0  0  0  0  0  0  0  0  0  0
  1  2  2  0
  2  3  1  0
  2 13  1  0
  3  4  1  0
  3 10  1  0
  4  5  2  0
  4  9  1  0
  5  6  1  0
  5 38  1  0
  6  7  2  0
  6 39  1  0
  7  8  1  0
  7 40  1  0
  8  9  2  0
  8 41  1  0
  9 42  1  0
 10 11  1  0
 10 43  1  1
 10 44  1  0
 11 12  1  0
 11 45  1  6
 11 46  1  0
 12 36  1  6
 12 37  1  0
 12 68  1  0
 13 14  1  0
 13 23  2  0
 14 15  2  0
 14 16  1  0
 16 17  1  0
 16 47  1  0
 17 18  1  0
 17 22  2  0
 18 19  2  0
 18 23  1  0
 19 20  1  0
 19 48  1  0
 20 21  2  0
 20 49  1  0
 21 22  1  0
 21 50  1  0
 22 51  1  0
 23 24  1  0
 24 25  1  0
 24 52  1  0
 25 26  1  0
 25 30  2  0
 26 27  2  0
 26 53  1  0
 27 28  1  0
 27 54  1  0
 28 29  2  0
 28 31  1  0
 29 30  1  0
 29 55  1  0
 30 56  1  0
 31 32  1  0
 31 57  1  1
 31 58  1  0
 32 33  1  0
 32 59  1  6
 32 60  1  0
 33 34  1  0
 33 35  1  0
 33 67  1  1
 34 61  1  6
 34 62  1  0
 34 63  1  0
 35 64  1  6
 35 65  1  0
 35 66  1  0
M  CHG  2  12   1  33   1
M  END
>  <s_epik_cmdline>  (1025) 
J2VwaWtfcHl0aG9uJywgJy1waCcsICc3LjAwMDAwMCcsICctcGh0JywgJzIuMDAwMDAwJywgJy1tcycsICcxNicsICctdG4nLCAnOCcsICctbWEnLCAnMjAwJywgJy1pbWFlJywgJzxpbmZpbGUubWFlPicsICctb21hZScsICc8b3V0ZmlsZS5tYWU+Jw==

>  <s_epik_input>  (1025) 
W2NIXTFbY0hdW2NIXVtjSF1bY0hdYzFOKFtDSDJdW0NIMl1bTkgyXSlDKD1PKWMoYyg9TylbbkhdMiljKGMoYzIzKVtjSF1bY0hdW2NIXVtjSF0zKVtOSF1jNFtjSF1bY0hdYyhbY0hdW2NIXTQpW0NIMl1bQ0gyXU4oW0NIM10pW0NIM10=

>  <s_i_glide_gridfile>  (1025) 
ATP-Grid

>  <s_lp_Force_Field>  (1025) 
OPLS_2005

>  <s_lp_Variant>  (1025) 
rxn512c____EMOL530647____EMOL43362984____EMOL31232878-1

>  <s_lp_label>  (1025) 
2941_sdstereoexpander_1_neutralizer_1_epik_1_stereoizer_1

>  <s_m_source_file>  (1025) 
ATP-VSW-LIGPREP-003-in.maegz

>  <s_sd_BIOSOLVEIT.INFINISEE\_QUERY\_NAME>  (1025) 
Ref-Lig

>  <s_sd_BIOSOLVEIT.INFINISEE\_QUERY\_SMILES>  (1025) 
S(c1nc2c(cc1C[NH2+]Cc3ccc(cc3)C[NH+](C)C)cccc2)Cc4ccccc4

>  <s_sd_BIOSOLVEIT.INFINISEE\_REACTION\_NAME>  (1025) 
rxn512c

>  <s_sd_BIOSOLVEIT.INFINISEE\_REAGENT1\_NAME>  (1025) 
EMOL530647

>  <s_sd_BIOSOLVEIT.INFINISEE\_REAGENT1\_SMILES>  (1025) 
N(c1ccccc1)CCN

>  <s_sd_BIOSOLVEIT.INFINISEE\_REAGENT2\_NAME>  (1025) 
EMOL43362984

>  <s_sd_BIOSOLVEIT.INFINISEE\_REAGENT2\_SMILES>  (1025) 
ClC=1c2c(NC(=O)C1C(=O)O)cccc2

>  <s_sd_BIOSOLVEIT.INFINISEE\_REAGENT3\_NAME>  (1025) 
EMOL31232878

>  <s_sd_BIOSOLVEIT.INFINISEE\_REAGENT3\_SMILES>  (1025) 
N(CCc1ccc(N)cc1)(C)C

>  <s_sd_BIOSOLVEIT.INFINISEE\_SPACE>  (1025) 
eXplore_7tr_2022-12

>  <s_vsw_compound_code>  (1025) 
94083

>  <s_vsw_variant>  (1025) 
94083-1

>  <r_epik_Charging_Adjusted_Penalty>  (1025) 
0.018847516214823799

>  <r_epik_Ionization_Penalty>  (1025) 
0.0115

>  <r_epik_Ionization_Penalty_Charging>  (1025) 
0.0115

>  <r_epik_Ionization_Penalty_Neutral>  (1025) 
0

>  <r_epik_State_Penalty>  (1025) 
0.0073000000000000001

>  <r_i_docking_score>  (1025) 
-1.9539239976085001

>  <r_i_glide_ecoul>  (1025) 
-13.148393630981399

>  <r_i_glide_eff_state_penalty>  (1025) 
0.0073000000000000001

>  <r_i_glide_einternal>  (1025) 
7.0744132995605504

>  <r_i_glide_emodel>  (1025) 
-45.436144703034202

>  <r_i_glide_energy>  (1025) 
-40.917285919189503

>  <r_i_glide_erotb>  (1025) 
0.72711026094401499

>  <r_i_glide_esite>  (1025) 
-0.084122407235083005

>  <r_i_glide_evdw>  (1025) 
-27.768892288208001

>  <r_i_glide_gscore>  (1025) 
-1.9612239976085

>  <r_i_glide_hbond>  (1025) 
-0.20000000000000001

>  <r_i_glide_ligand_efficiency>  (1025) 
-0.055826399931671399

>  <r_i_glide_ligand_efficiency_ln>  (1025) 
-0.42892968248174801

>  <r_i_glide_ligand_efficiency_sa>  (1025) 
-0.18261185581918901

>  <r_i_glide_lipo>  (1025) 
-0.230837439032099

>  <r_i_glide_metal>  (1025) 
-0

>  <r_i_glide_rewards>  (1025) 
1.18732924677229

>  <r_lp_Energy>  (1025) 
76.789580999999998

>  <r_qp_ACxDN^.5/SA>  (1025) 
0.011812400000000001

>  <r_qp_CIQPlogS>  (1025) 
-5.1260000000000003

>  <r_qp_EA(eV)>  (1025) 
1.175

>  <r_qp_FISA>  (1025) 
149.536

>  <r_qp_FOSA>  (1025) 
249.285

>  <r_qp_IP(eV)>  (1025) 
8.4990000000000006

>  <r_qp_Jm>  (1025) 
1.08315535784201e-05

>  <r_qp_PISA>  (1025) 
439.23700000000002

>  <r_qp_PSA>  (1025) 
103.613

>  <r_qp_PercentHumanOralAbsorption>  (1025) 
76.085999999999999

>  <r_qp_QPPCaco>  (1025) 
23.530999999999999

>  <r_qp_QPPMDCK>  (1025) 
10.521000000000001

>  <r_qp_QPlogBB>  (1025) 
-0.94399999999999995

>  <r_qp_QPlogHERG>  (1025) 
-8.8759999999999994

>  <r_qp_QPlogKhsa>  (1025) 
0.89700000000000002

>  <r_qp_QPlogKp>  (1025) 
-5.8929999999999998

>  <r_qp_QPlogPC16>  (1025) 
17.245999999999999

>  <r_qp_QPlogPo/w>  (1025) 
4.2000000000000002

>  <r_qp_QPlogPoct>  (1025) 
25.111000000000001

>  <r_qp_QPlogPw>  (1025) 
13.359

>  <r_qp_QPlogS>  (1025) 
-4.7439999999999998

>  <r_qp_QPpolrz>  (1025) 
52.741999999999997

>  <r_qp_SASA>  (1025) 
838.05799999999999

>  <r_qp_SAamideO>  (1025) 
0

>  <r_qp_SAfluorine>  (1025) 
0

>  <r_qp_WPSA>  (1025) 
0

>  <r_qp_accptHB>  (1025) 
7

>  <r_qp_dip^2/V>  (1025) 
0.052228999999999998

>  <r_qp_dipole>  (1025) 
8.9309999999999992

>  <r_qp_donorHB>  (1025) 
2

>  <r_qp_glob>  (1025) 
0.76531450000000001

>  <r_qp_mol_MW>  (1025) 
469.58499999999998

>  <r_qp_volume>  (1025) 
1527.297

>  <r_sd_BIOSOLVEIT.INFINISEE\_FTREES\_SIMILARITY>  (1025) 
0.90400000000000003

>  <r_sd_BIOSOLVEIT.LOGP>  (1025) 
1.8473999999999999

>  <r_sd_BIOSOLVEIT.MOLECULAR\_WEIGHT>  (1025) 
471.60199999999998

>  <r_sd_BIOSOLVEIT.TPSA>  (1025) 
97.280000000000001

>  <i_epik_Tot_Q>  (1025) 
2

>  <i_epik_Tot_abs_Q>  (1025) 
2

>  <i_f3d_flags>  (1025) 
0

>  <i_i_glide_confnum>  (1025) 
11

>  <i_i_glide_lignum>  (1025) 
1460

>  <i_i_glide_posenum>  (1025) 
9

>  <i_i_glide_rotatable_bonds>  (1025) 
10

>  <i_lp_mmshare_version>  (1025) 
65135

>  <i_m_ct_format>  (1025) 
2

>  <i_m_source_file_index>  (1025) 
2941

>  <i_qp_#NandO>  (1025) 
7

>  <i_qp_#acid>  (1025) 
0

>  <i_qp_#amide>  (1025) 
0

>  <i_qp_#amidine>  (1025) 
0

>  <i_qp_#amine>  (1025) 
2

>  <i_qp_#in34>  (1025) 
0

>  <i_qp_#in56>  (1025) 
22

>  <i_qp_#metab>  (1025) 
6

>  <i_qp_#nonHatm>  (1025) 
35

>  <i_qp_#noncon>  (1025) 
0

>  <i_qp_#ringatoms>  (1025) 
22

>  <i_qp_#rotor>  (1025) 
10

>  <i_qp_#rtvFG>  (1025) 
0

>  <i_qp_#stars>  (1025) 
0

>  <i_qp_CNS>  (1025) 
0

>  <i_qp_HumanOralAbsorption>  (1025) 
2

>  <i_qp_RuleOfFive>  (1025) 
0

>  <i_qp_RuleOfThree>  (1025) 
0

>  <i_sd_BIOSOLVEIT.INFINISEE\_RESULT\_RANK>  (1025) 
79238

>  <i_sd_version>  (1025) 
0

>  <b_lp_Chiralities_Consistent>  (1025) 
1

>  <b_sd_chiral_flag>  (1025) 
0

>  <canonical_id>  (1025) 
ATP-HTVS-A38ED211E8B3

>  <compound_code>  (1025) 
94083

>  <title>  (1025) 
rxn512c____EMOL530647____EMOL43362984____EMOL31232878

>  <variant>  (1025) 
94083-1

>  <source_file>  (1025) 
运行/运行/ATP-VSW/ATP-VSW-DOCK_HTVS_1-003_lib/ATP-VSW-DOCK_HTVS_1-003_lib.mae

>  <canonical_smiles>  (1025) 
C[NH+](C)CCc1ccc(Nc2c(C(=O)N(CC[NH3+])c3ccccc3)c(=O)[nH]c3ccccc23)cc1

>  <scaffold>  (1025) 
O=C(Nc1ccccc1)c1c(Nc2ccccc2)c2ccccc2[nH]c1=O

>  <molecular_formula>  (1025) 
C28H33N5O2+2

$$$$
ATP-HTVS-A3A98DB30213
     RDKit          3D

 64 67  0  0  0  0  0  0  0  0999 V2000
  202.7971  182.7448  161.3735 O   0  0  0  0  0  0  0  0  0  0  0  0
  201.9459  183.4272  160.8172 N   0  0  0  0  0  0  0  0  0  0  0  0
  201.0069  182.9342  160.2022 O   0  0  0  0  0  0  0  0  0  0  0  0
  202.0750  184.9053  160.8752 C   0  0  0  0  0  0  0  0  0  0  0  0
  201.3659  185.8094  160.0248 C   0  0  0  0  0  0  0  0  0  0  0  0
  201.5952  187.2010  160.1466 C   0  0  0  0  0  0  0  0  0  0  0  0
  202.5129  187.7121  161.0814 C   0  0  0  0  0  0  0  0  0  0  0  0
  203.2097  186.8276  161.9151 C   0  0  0  0  0  0  0  0  0  0  0  0
  202.9908  185.4439  161.8094 C   0  0  0  0  0  0  0  0  0  0  0  0
  200.3750  185.3668  158.9530 C   0  0  1  0  0  0  0  0  0  0  0  0
  199.0206  185.1424  159.4489 N   0  0  0  0  0  0  0  0  0  0  0  0
  198.1520  184.2260  158.8365 C   0  0  0  0  0  0  0  0  0  0  0  0
  198.6691  183.3042  157.9992 N   0  0  0  0  0  0  0  0  0  0  0  0
  197.8730  182.4326  157.3815 C   0  0  0  0  0  0  0  0  0  0  0  0
  196.5411  182.4381  157.5434 N   0  0  0  0  0  0  0  0  0  0  0  0
  195.9678  183.3323  158.3796 C   0  0  0  0  0  0  0  0  0  0  0  0
  196.7599  184.2703  159.0777 C   0  0  0  0  0  0  0  0  0  0  0  0
  196.1353  185.1925  159.9505 C   0  0  0  0  0  0  0  0  0  0  0  0
  194.7300  185.1689  160.1038 C   0  0  0  0  0  0  0  0  0  0  0  0
  193.9524  184.2373  159.3915 C   0  0  0  0  0  0  0  0  0  0  0  0
  194.5729  183.3105  158.5308 C   0  0  0  0  0  0  0  0  0  0  0  0
  198.4436  181.5071  156.5367 N   0  0  0  0  0  0  0  0  0  0  0  0
  197.6811  180.7037  155.5905 C   0  0  1  0  0  0  0  0  0  0  0  0
  198.5044  179.7475  154.7507 C   0  0  0  0  0  0  0  0  0  0  0  0
  198.9620  178.5453  155.3304 C   0  0  0  0  0  0  0  0  0  0  0  0
  199.7714  177.6591  154.5889 C   0  0  0  0  0  0  0  0  0  0  0  0
  200.0492  177.9407  153.2324 C   0  0  0  0  0  0  0  0  0  0  0  0
  199.5574  179.1179  152.6377 C   0  0  0  0  0  0  0  0  0  0  0  0
  198.7958  180.0276  153.3983 C   0  0  0  0  0  0  0  0  0  0  0  0
  200.2976  176.3849  155.2302 C   0  0  1  0  0  0  0  0  0  0  0  0
  201.4527  176.6144  156.1450 N   0  0  2  0  0  0  0  0  0  0  0  0
  202.1393  175.3527  156.5166 C   0  0  1  0  0  0  0  0  0  0  0  0
  202.9562  174.7419  155.3656 C   0  0  2  0  0  0  0  0  0  0  0  0
  201.1018  177.4059  157.3527 C   0  0  2  0  0  0  0  0  0  0  0  0
  201.0808  187.9053  159.5130 H   0  0  0  0  0  0  0  0  0  0  0  0
  202.6885  188.7786  161.1650 H   0  0  0  0  0  0  0  0  0  0  0  0
  203.9095  187.2077  162.6445 H   0  0  0  0  0  0  0  0  0  0  0  0
  203.5510  184.7957  162.4659 H   0  0  0  0  0  0  0  0  0  0  0  0
  200.2969  186.1509  158.1895 H   0  0  0  0  0  0  0  0  0  0  0  0
  200.7921  184.4977  158.4411 H   0  0  0  0  0  0  0  0  0  0  0  0
  198.6036  185.8918  159.9852 H   0  0  0  0  0  0  0  0  0  0  0  0
  196.6998  185.9310  160.4984 H   0  0  0  0  0  0  0  0  0  0  0  0
  194.2424  185.8897  160.7501 H   0  0  0  0  0  0  0  0  0  0  0  0
  192.8784  184.2378  159.4939 H   0  0  0  0  0  0  0  0  0  0  0  0
  193.9721  182.6055  157.9730 H   0  0  0  0  0  0  0  0  0  0  0  0
  199.4579  181.4898  156.4987 H   0  0  0  0  0  0  0  0  0  0  0  0
  196.9544  180.1116  156.1469 H   0  0  0  0  0  0  0  0  0  0  0  0
  197.1117  181.3646  154.9386 H   0  0  0  0  0  0  0  0  0  0  0  0
  198.6861  178.3151  156.3465 H   0  0  0  0  0  0  0  0  0  0  0  0
  200.6296  177.2493  152.6342 H   0  0  0  0  0  0  0  0  0  0  0  0
  199.7571  179.3171  151.5940 H   0  0  0  0  0  0  0  0  0  0  0  0
  198.4268  180.9352  152.9365 H   0  0  0  0  0  0  0  0  0  0  0  0
  199.4863  175.8719  155.7495 H   0  0  0  0  0  0  0  0  0  0  0  0
  200.5848  175.7153  154.4200 H   0  0  0  0  0  0  0  0  0  0  0  0
  202.8281  175.5540  157.3342 H   0  0  0  0  0  0  0  0  0  0  0  0
  201.4195  174.6320  156.9003 H   0  0  0  0  0  0  0  0  0  0  0  0
  203.5258  173.8809  155.7205 H   0  0  0  0  0  0  0  0  0  0  0  0
  203.6675  175.4616  154.9580 H   0  0  0  0  0  0  0  0  0  0  0  0
  202.3280  174.3846  154.5476 H   0  0  0  0  0  0  0  0  0  0  0  0
  200.3250  176.9119  157.9332 H   0  0  0  0  0  0  0  0  0  0  0  0
  200.7702  178.4154  157.1086 H   0  0  0  0  0  0  0  0  0  0  0  0
  201.9556  177.5296  158.0179 H   0  0  0  0  0  0  0  0  0  0  0  0
  195.9443  181.7642  157.0747 H   0  0  0  0  0  0  0  0  0  0  0  0
  202.1256  177.1700  155.6355 H   0  0  0  0  0  0  0  0  0  0  0  0
  1  2  1  0
  2  3  2  0
  2  4  1  0
  4  5  1  0
  4  9  2  0
  5  6  2  0
  5 10  1  0
  6  7  1  0
  6 35  1  0
  7  8  2  0
  7 36  1  0
  8  9  1  0
  8 37  1  0
  9 38  1  0
 10 11  1  0
 10 39  1  6
 10 40  1  0
 11 12  1  0
 11 41  1  0
 12 13  2  0
 12 17  1  0
 13 14  1  0
 14 15  2  0
 14 22  1  0
 15 16  1  0
 15 63  1  0
 16 17  1  0
 16 21  2  0
 17 18  2  0
 18 19  1  0
 18 42  1  0
 19 20  2  0
 19 43  1  0
 20 21  1  0
 20 44  1  0
 21 45  1  0
 22 23  1  0
 22 46  1  0
 23 24  1  0
 23 47  1  1
 23 48  1  0
 24 25  2  0
 24 29  1  0
 25 26  1  0
 25 49  1  0
 26 27  2  0
 26 30  1  0
 27 28  1  0
 27 50  1  0
 28 29  2  0
 28 51  1  0
 29 52  1  0
 30 31  1  0
 30 53  1  1
 30 54  1  0
 31 32  1  0
 31 34  1  0
 31 64  1  6
 32 33  1  0
 32 55  1  1
 32 56  1  0
 33 57  1  1
 33 58  1  0
 33 59  1  0
 34 60  1  1
 34 61  1  0
 34 62  1  0
M  CHG  4   1  -1   2   1  15   1  31   1
M  END
>  <s_epik_cmdline>  (1026) 
J2VwaWtfcHl0aG9uJywgJy1waCcsICc3LjAwMDAwMCcsICctcGh0JywgJzIuMDAwMDAwJywgJy1tcycsICcxNicsICctdG4nLCAnOCcsICctbWEnLCAnMjAwJywgJy1pbWFlJywgJzxpbmZpbGUubWFlPicsICctb21hZScsICc8b3V0ZmlsZS5tYWU+Jw==

>  <s_epik_input>  (1026) 
W2NIXTFbY0hdW2NIXVtjSF1jKGMxW04rXShbTy1dKT1PKVtDSDJdW05IXWMoYyhjMjMpW2NIXVtjSF1bY0hdW2NIXTMpbmMobjIpW05IXVtDSDJdYzRbY0hdYyhbY0hdW2NIXVtjSF00KVtDSDJdTihbQ0gzXSlbQ0gyXVtDSDNd

>  <s_i_glide_gridfile>  (1026) 
ATP-Grid

>  <s_lp_Force_Field>  (1026) 
OPLS_2005

>  <s_lp_Variant>  (1026) 
m_282030aaa____21930070____22360182____21948120-2

>  <s_lp_label>  (1026) 
2068_sdstereoexpander_1_neutralizer_1_epik_1_stereoizer_2

>  <s_m_source_file>  (1026) 
ATP-VSW-LIGPREP-002-in.maegz

>  <s_sd_BIOSOLVEIT.INFINISEE\_QUERY\_NAME>  (1026) 
Ref-Lig

>  <s_sd_BIOSOLVEIT.INFINISEE\_QUERY\_SMILES>  (1026) 
S(c1nc2c(cc1C[NH2+]Cc3ccc(cc3)C[NH+](C)C)cccc2)Cc4ccccc4

>  <s_sd_BIOSOLVEIT.INFINISEE\_REACTION\_NAME>  (1026) 
m_282030aaa

>  <s_sd_BIOSOLVEIT.INFINISEE\_REAGENT1\_SMILES>  (1026) 
[R1*]NCc1cc(ccc1)CN(CC)C

>  <s_sd_BIOSOLVEIT.INFINISEE\_REAGENT2\_SMILES>  (1026) 
[R2*]c1nc([R1*])c2c(n1)cccc2

>  <s_sd_BIOSOLVEIT.INFINISEE\_REAGENT3\_SMILES>  (1026) 
[R2*]NCc1c([N+]([O-])=O)cccc1

>  <s_sd_BIOSOLVEIT.INFINISEE\_SPACE>  (1026) 
REALSpace_44bn_2023-08

>  <s_vsw_compound_code>  (1026) 
66146

>  <s_vsw_variant>  (1026) 
66146-2

>  <r_epik_Charging_Adjusted_Penalty>  (1026) 
0.089070388984551704

>  <r_epik_Ionization_Penalty>  (1026) 
0.044900000000000002

>  <r_epik_Ionization_Penalty_Charging>  (1026) 
0.044900000000000002

>  <r_epik_Ionization_Penalty_Neutral>  (1026) 
0

>  <r_epik_State_Penalty>  (1026) 
0.044200000000000003

>  <r_i_docking_score>  (1026) 
-4.4336455215563504

>  <r_i_glide_ecoul>  (1026) 
-5.6459674835205096

>  <r_i_glide_eff_state_penalty>  (1026) 
0.044200000000000003

>  <r_i_glide_einternal>  (1026) 
3.0518040657043501

>  <r_i_glide_emodel>  (1026) 
-59.187675280857299

>  <r_i_glide_energy>  (1026) 
-41.1670436859131

>  <r_i_glide_erotb>  (1026) 
0.76524060150380302

>  <r_i_glide_esite>  (1026) 
-0.116436717367186

>  <r_i_glide_evdw>  (1026) 
-35.521076202392599

>  <r_i_glide_gscore>  (1026) 
-4.4778455215563504

>  <r_i_glide_hbond>  (1026) 
0

>  <r_i_glide_ligand_efficiency>  (1026) 
-0.130401338869304

>  <r_i_glide_ligand_efficiency_ln>  (1026) 
-0.97951665525633902

>  <r_i_glide_ligand_efficiency_sa>  (1026) 
-0.42244971580681301

>  <r_i_glide_lipo>  (1026) 
-1.8614516018841101

>  <r_i_glide_metal>  (1026) 
-0

>  <r_i_glide_rewards>  (1026) 
-0.64224887116115803

>  <r_lp_Energy>  (1026) 
23.363356

>  <r_qp_ACxDN^.5/SA>  (1026) 
0.0111669

>  <r_qp_CIQPlogS>  (1026) 
-6.2999999999999998

>  <r_qp_EA(eV)>  (1026) 
1.167

>  <r_qp_FISA>  (1026) 
112.056

>  <r_qp_FOSA>  (1026) 
261.423

>  <r_qp_IP(eV)>  (1026) 
8.1329999999999991

>  <r_qp_Jm>  (1026) 
0.0024712651495012198

>  <r_qp_PISA>  (1026) 
386.37900000000002

>  <r_qp_PSA>  (1026) 
86.519999999999996

>  <r_qp_PercentHumanOralAbsorption>  (1026) 
96.245999999999995

>  <r_qp_QPPCaco>  (1026) 
213.881

>  <r_qp_QPPMDCK>  (1026) 
103.32899999999999

>  <r_qp_QPlogBB>  (1026) 
-0.79100000000000004

>  <r_qp_QPlogHERG>  (1026) 
-7.2430000000000003

>  <r_qp_QPlogKhsa>  (1026) 
0.83899999999999997

>  <r_qp_QPlogKp>  (1026) 
-3.3260000000000001

>  <r_qp_QPlogPC16>  (1026) 
15.435

>  <r_qp_QPlogPo/w>  (1026) 
4.7130000000000001

>  <r_qp_QPlogPoct>  (1026) 
22.390999999999998

>  <r_qp_QPlogPw>  (1026) 
11.571

>  <r_qp_QPlogS>  (1026) 
-4.9400000000000004

>  <r_qp_QPpolrz>  (1026) 
48.128999999999998

>  <r_qp_SASA>  (1026) 
759.85900000000004

>  <r_qp_SAamideO>  (1026) 
0

>  <r_qp_SAfluorine>  (1026) 
0

>  <r_qp_WPSA>  (1026) 
0

>  <r_qp_accptHB>  (1026) 
6

>  <r_qp_dip^2/V>  (1026) 
0.0186908

>  <r_qp_dipole>  (1026) 
5.1600000000000001

>  <r_qp_donorHB>  (1026) 
2

>  <r_qp_glob>  (1026) 
0.80581290000000005

>  <r_qp_mol_MW>  (1026) 
456.54599999999999

>  <r_qp_volume>  (1026) 
1424.633

>  <r_sd_BIOSOLVEIT.INFINISEE\_FTREES\_SIMILARITY>  (1026) 
0.90100000000000002

>  <r_sd_BIOSOLVEIT.LOGP>  (1026) 
3.7968000000000002

>  <r_sd_BIOSOLVEIT.MOLECULAR\_WEIGHT>  (1026) 
457.55500000000001

>  <r_sd_BIOSOLVEIT.TPSA>  (1026) 
100.09999999999999

>  <i_epik_Tot_Q>  (1026) 
2

>  <i_epik_Tot_abs_Q>  (1026) 
4

>  <i_f3d_flags>  (1026) 
0

>  <i_i_glide_confnum>  (1026) 
9

>  <i_i_glide_lignum>  (1026) 
742

>  <i_i_glide_posenum>  (1026) 
2

>  <i_i_glide_rotatable_bonds>  (1026) 
10

>  <i_lp_mmshare_version>  (1026) 
65135

>  <i_m_ct_format>  (1026) 
2

>  <i_m_source_file_index>  (1026) 
2068

>  <i_qp_#NandO>  (1026) 
8

>  <i_qp_#acid>  (1026) 
0

>  <i_qp_#amide>  (1026) 
0

>  <i_qp_#amidine>  (1026) 
0

>  <i_qp_#amine>  (1026) 
1

>  <i_qp_#in34>  (1026) 
0

>  <i_qp_#in56>  (1026) 
22

>  <i_qp_#metab>  (1026) 
5

>  <i_qp_#nonHatm>  (1026) 
34

>  <i_qp_#noncon>  (1026) 
0

>  <i_qp_#ringatoms>  (1026) 
22

>  <i_qp_#rotor>  (1026) 
10

>  <i_qp_#rtvFG>  (1026) 
0

>  <i_qp_#stars>  (1026) 
0

>  <i_qp_CNS>  (1026) 
0

>  <i_qp_HumanOralAbsorption>  (1026) 
3

>  <i_qp_RuleOfFive>  (1026) 
0

>  <i_qp_RuleOfThree>  (1026) 
0

>  <i_sd_BIOSOLVEIT.INFINISEE\_REAGENT1\_NAME>  (1026) 
21930070

>  <i_sd_BIOSOLVEIT.INFINISEE\_REAGENT2\_NAME>  (1026) 
22360182

>  <i_sd_BIOSOLVEIT.INFINISEE\_REAGENT3\_NAME>  (1026) 
21948120

>  <i_sd_BIOSOLVEIT.INFINISEE\_RESULT\_RANK>  (1026) 
95189

>  <i_sd_version>  (1026) 
0

>  <b_lp_Chiralities_Consistent>  (1026) 
1

>  <b_sd_chiral_flag>  (1026) 
0

>  <canonical_id>  (1026) 
ATP-HTVS-A3A98DB30213

>  <compound_code>  (1026) 
66146

>  <title>  (1026) 
m_282030aaa____21930070____22360182____21948120

>  <variant>  (1026) 
66146-2

>  <source_file>  (1026) 
运行/运行/ATP-VSW/ATP-VSW-DOCK_HTVS_1-002_lib.maegz

>  <canonical_smiles>  (1026) 
CC[N@H+](C)Cc1cccc(CNc2nc(NCc3ccccc3[N+](=O)[O-])c3ccccc3[nH+]2)c1

>  <scaffold>  (1026) 
c1ccc(CNc2nc(NCc3ccccc3)c3ccccc3[nH+]2)cc1

>  <molecular_formula>  (1026) 
C26H30N6O2+2

$$$$
ATP-HTVS-A3FFA90B66AA
     RDKit          3D

 54 57  0  0  0  0  0  0  0  0999 V2000
  198.1464  188.3513  159.2518 Br  0  0  0  0  0  0  0  0  0  0  0  0
  197.1895  186.7204  159.0648 C   0  0  0  0  0  0  0  0  0  0  0  0
  197.8044  185.6532  158.3987 C   0  0  0  0  0  0  0  0  0  0  0  0
  197.0942  184.4763  158.1917 C   0  0  0  0  0  0  0  0  0  0  0  0
  195.7983  184.2835  158.7323 C   0  0  0  0  0  0  0  0  0  0  0  0
  195.1805  185.3580  159.4085 C   0  0  0  0  0  0  0  0  0  0  0  0
  195.8737  186.5791  159.5495 C   0  0  0  0  0  0  0  0  0  0  0  0
  195.0448  182.9543  158.6007 C   0  0  1  0  0  0  0  0  0  0  0  0
  193.7083  183.1000  158.1443 O   0  0  0  0  0  0  0  0  0  0  0  0
  195.7472  181.8761  157.7247 C   0  0  1  0  0  0  0  0  0  0  0  0
  195.9517  182.4150  156.3572 N   0  0  1  0  0  0  0  0  0  0  0  0
  196.7127  181.5681  155.4162 C   0  0  1  0  0  0  0  0  0  0  0  0
  196.9018  182.4324  154.1961 C   0  0  0  0  0  0  0  0  0  0  0  0
  197.4149  183.6669  154.2761 N   0  0  0  0  0  0  0  0  0  0  0  0
  197.4408  184.0736  152.9520 C   0  0  0  0  0  0  0  0  0  0  0  0
  196.9356  183.0546  152.0963 C   0  0  0  0  0  0  0  0  0  0  0  0
  196.6079  182.0001  152.9436 N   0  0  0  0  0  0  0  0  0  0  0  0
  196.0392  180.7259  152.5186 C   0  0  1  0  0  0  0  0  0  0  0  0
  197.0643  179.8257  151.8651 C   0  0  0  0  0  0  0  0  0  0  0  0
  196.9815  179.5739  150.4815 C   0  0  0  0  0  0  0  0  0  0  0  0
  197.9196  178.7309  149.8606 C   0  0  0  0  0  0  0  0  0  0  0  0
  198.9386  178.1301  150.6232 C   0  0  0  0  0  0  0  0  0  0  0  0
  199.0234  178.3784  152.0067 C   0  0  0  0  0  0  0  0  0  0  0  0
  198.0865  179.2249  152.6305 C   0  0  0  0  0  0  0  0  0  0  0  0
  196.8534  183.2343  150.7005 C   0  0  0  0  0  0  0  0  0  0  0  0
  197.2904  184.4469  150.1329 C   0  0  0  0  0  0  0  0  0  0  0  0
  197.8108  185.4628  150.9611 C   0  0  0  0  0  0  0  0  0  0  0  0
  197.8794  185.2814  152.3609 C   0  0  0  0  0  0  0  0  0  0  0  0
  197.0818  181.3598  158.3520 C   0  0  2  0  0  0  0  0  0  0  0  0
  195.0158  182.5728  155.9614 H   0  0  0  0  0  0  0  0  0  0  0  0
  198.8094  185.7091  158.0006 H   0  0  0  0  0  0  0  0  0  0  0  0
  197.6303  183.7622  157.5950 H   0  0  0  0  0  0  0  0  0  0  0  0
  194.1614  185.2634  159.7765 H   0  0  0  0  0  0  0  0  0  0  0  0
  195.4043  187.4131  160.0312 H   0  0  0  0  0  0  0  0  0  0  0  0
  194.9299  182.5369  159.6061 H   0  0  0  0  0  0  0  0  0  0  0  0
  193.6494  183.0366  157.1751 H   0  0  0  0  0  0  0  0  0  0  0  0
  195.0373  181.0358  157.6227 H   0  0  0  0  0  0  0  0  0  0  0  0
  197.7063  181.2895  155.7700 H   0  0  0  0  0  0  0  0  0  0  0  0
  196.1280  180.6640  155.2573 H   0  0  0  0  0  0  0  0  0  0  0  0
  195.5732  180.1913  153.3359 H   0  0  0  0  0  0  0  0  0  0  0  0
  195.2207  180.9236  151.8281 H   0  0  0  0  0  0  0  0  0  0  0  0
  196.2015  180.0321  149.8928 H   0  0  0  0  0  0  0  0  0  0  0  0
  197.8590  178.5500  148.7986 H   0  0  0  0  0  0  0  0  0  0  0  0
  199.6561  177.4799  150.1451 H   0  0  0  0  0  0  0  0  0  0  0  0
  199.8032  177.9129  152.5904 H   0  0  0  0  0  0  0  0  0  0  0  0
  198.1534  179.4016  153.6951 H   0  0  0  0  0  0  0  0  0  0  0  0
  196.4790  182.4454  150.0649 H   0  0  0  0  0  0  0  0  0  0  0  0
  197.2334  184.5981  149.0628 H   0  0  0  0  0  0  0  0  0  0  0  0
  198.1207  186.4022  150.5250 H   0  0  0  0  0  0  0  0  0  0  0  0
  198.2407  186.0802  152.9903 H   0  0  0  0  0  0  0  0  0  0  0  0
  196.8158  180.8854  159.3106 H   0  0  0  0  0  0  0  0  0  0  0  0
  197.8714  182.0669  158.5697 H   0  0  0  0  0  0  0  0  0  0  0  0
  197.5332  180.5546  157.7734 H   0  0  0  0  0  0  0  0  0  0  0  0
  196.4041  183.3197  156.4055 H   0  0  0  0  0  0  0  0  0  0  0  0
  1  2  1  0
  2  3  1  0
  2  7  2  0
  3  4  2  0
  3 31  1  0
  4  5  1  0
  4 32  1  0
  5  6  2  0
  5  8  1  0
  6  7  1  0
  6 33  1  0
  7 34  1  0
  8  9  1  0
  8 10  1  0
  8 35  1  1
  9 36  1  0
 10 11  1  0
 10 29  1  0
 10 37  1  6
 11 12  1  0
 11 30  1  6
 11 54  1  0
 12 13  1  0
 12 38  1  1
 12 39  1  0
 13 14  2  0
 13 17  1  0
 14 15  1  0
 15 16  1  0
 15 28  2  0
 16 17  1  0
 16 25  2  0
 17 18  1  0
 18 19  1  0
 18 40  1  1
 18 41  1  0
 19 20  2  0
 19 24  1  0
 20 21  1  0
 20 42  1  0
 21 22  2  0
 21 43  1  0
 22 23  1  0
 22 44  1  0
 23 24  2  0
 23 45  1  0
 24 46  1  0
 25 26  1  0
 25 47  1  0
 26 27  2  0
 26 48  1  0
 27 28  1  0
 27 49  1  0
 28 50  1  0
 29 51  1  1
 29 52  1  0
 29 53  1  0
M  CHG  1  11   1
M  END
>  <s_epik_cmdline>  (1027) 
J2VwaWtfcHl0aG9uJywgJy1waCcsICc3LjAwMDAwMCcsICctcGh0JywgJzIuMDAwMDAwJywgJy1tcycsICcxNicsICctdG4nLCAnOCcsICctbWEnLCAnMjAwJywgJy1pbWFlJywgJzxpbmZpbGUubWFlPicsICctb21hZScsICc8b3V0ZmlsZS5tYWU+Jw==

>  <s_epik_input>  (1027) 
QnJjMVtjSF1bY0hdYyhbY0hdW2NIXTEpW0NAQEhdKFtPSF0pW0NASF0oW0NIM10pW05IXVtDSDJdYyhuMiluKGMoYzIzKVtjSF1bY0hdW2NIXVtjSF0zKVtDSDJdYzRbY0hdW2NIXVtjSF1bY0hdW2NIXTQ=

>  <s_i_glide_gridfile>  (1027) 
ATP-Grid

>  <s_lp_Force_Field>  (1027) 
OPLS_2005

>  <s_lp_Variant>  (1027) 
m_270004beb____8295862____24720860-7

>  <s_lp_label>  (1027) 
1826_sdstereoexpander_3_neutralizer_1_epik_2_stereoizer_1

>  <s_m_source_file>  (1027) 
ATP-VSW-LIGPREP-003-in.maegz

>  <s_sd_BIOSOLVEIT.INFINISEE\_QUERY\_NAME>  (1027) 
Ref-Lig

>  <s_sd_BIOSOLVEIT.INFINISEE\_QUERY\_SMILES>  (1027) 
S(c1nc2c(cc1C[NH2+]Cc3ccc(cc3)C[NH+](C)C)cccc2)Cc4ccccc4

>  <s_sd_BIOSOLVEIT.INFINISEE\_REACTION\_NAME>  (1027) 
m_270004beb

>  <s_sd_BIOSOLVEIT.INFINISEE\_REAGENT1\_SMILES>  (1027) 
[R1*]NC(C(O)c1ccc(Br)cc1)C

>  <s_sd_BIOSOLVEIT.INFINISEE\_REAGENT2\_SMILES>  (1027) 
[R1*]CC1=Nc2c(N1Cc3ccccc3)cccc2

>  <s_sd_BIOSOLVEIT.INFINISEE\_SPACE>  (1027) 
REALSpace_44bn_2023-08

>  <s_vsw_compound_code>  (1027) 
58403

>  <s_vsw_variant>  (1027) 
58403-7

>  <r_epik_Charging_Adjusted_Penalty>  (1027) 
1.07094624530619

>  <r_epik_Ionization_Penalty>  (1027) 
0.50180000000000002

>  <r_epik_Ionization_Penalty_Charging>  (1027) 
0.50080000000000002

>  <r_epik_Ionization_Penalty_Neutral>  (1027) 
0.00089999999999999998

>  <r_epik_State_Penalty>  (1027) 
0.57010000000000005

>  <r_i_docking_score>  (1027) 
-5.6737517177816299

>  <r_i_glide_ecoul>  (1027) 
-19.1255283355713

>  <r_i_glide_eff_state_penalty>  (1027) 
0.57010000000000005

>  <r_i_glide_einternal>  (1027) 
7.8917045593261701

>  <r_i_glide_emodel>  (1027) 
-67.750893020697006

>  <r_i_glide_energy>  (1027) 
-46.622711181640597

>  <r_i_glide_erotb>  (1027) 
0.59064443067111305

>  <r_i_glide_esite>  (1027) 
-0.17992841518953601

>  <r_i_glide_evdw>  (1027) 
-27.4971828460693

>  <r_i_glide_gscore>  (1027) 
-6.24385171778163

>  <r_i_glide_hbond>  (1027) 
-0.31801836677367101

>  <r_i_glide_ligand_efficiency>  (1027) 
-0.19564661095798699

>  <r_i_glide_ligand_efficiency_ln>  (1027) 
-1.2991452694422101

>  <r_i_glide_ligand_efficiency_sa>  (1027) 
-0.60108837405995696

>  <r_i_glide_lipo>  (1027) 
-1.7613527920322001

>  <r_i_glide_metal>  (1027) 
-0

>  <r_i_glide_rewards>  (1027) 
-0.33150818181818098

>  <r_lp_Energy>  (1027) 
19.488226999999998

>  <r_qp_ACxDN^.5/SA>  (1027) 
0.0102945

>  <r_qp_CIQPlogS>  (1027) 
-6.6180000000000003

>  <r_qp_EA(eV)>  (1027) 
0.33400000000000002

>  <r_qp_FISA>  (1027) 
64.411000000000001

>  <r_qp_FOSA>  (1027) 
125.977

>  <r_qp_IP(eV)>  (1027) 
8.7349999999999994

>  <r_qp_Jm>  (1027) 
0.094038545129823695

>  <r_qp_PISA>  (1027) 
380.74900000000002

>  <r_qp_PSA>  (1027) 
46.103999999999999

>  <r_qp_PercentHumanOralAbsorption>  (1027) 
100

>  <r_qp_QPPCaco>  (1027) 
605.33100000000002

>  <r_qp_QPPMDCK>  (1027) 
814.42700000000002

>  <r_qp_QPlogBB>  (1027) 
0.089999999999999997

>  <r_qp_QPlogHERG>  (1027) 
-6.2430000000000003

>  <r_qp_QPlogKhsa>  (1027) 
0.70599999999999996

>  <r_qp_QPlogKp>  (1027) 
-2.6600000000000001

>  <r_qp_QPlogPC16>  (1027) 
13.891

>  <r_qp_QPlogPo/w>  (1027) 
4.7300000000000004

>  <r_qp_QPlogPoct>  (1027) 
19.846

>  <r_qp_QPlogPw>  (1027) 
10.121

>  <r_qp_QPlogS>  (1027) 
-4.0199999999999996

>  <r_qp_QPpolrz>  (1027) 
42.091000000000001

>  <r_qp_SASA>  (1027) 
645.66399999999999

>  <r_qp_SAamideO>  (1027) 
0

>  <r_qp_SAfluorine>  (1027) 
0

>  <r_qp_WPSA>  (1027) 
74.528000000000006

>  <r_qp_accptHB>  (1027) 
4.7000000000000002

>  <r_qp_dip^2/V>  (1027) 
0.011689

>  <r_qp_dipole>  (1027) 
3.8119999999999998

>  <r_qp_donorHB>  (1027) 
2

>  <r_qp_glob>  (1027) 
0.86592309999999995

>  <r_qp_mol_MW>  (1027) 
450.37700000000001

>  <r_qp_volume>  (1027) 
1243.03

>  <r_sd_BIOSOLVEIT.INFINISEE\_FTREES\_SIMILARITY>  (1027) 
0.90400000000000003

>  <r_sd_BIOSOLVEIT.LOGP>  (1027) 
4.0326000000000004

>  <r_sd_BIOSOLVEIT.MOLECULAR\_WEIGHT>  (1027) 
451.38600000000002

>  <r_sd_BIOSOLVEIT.TPSA>  (1027) 
54.659999999999997

>  <i_epik_Tot_Q>  (1027) 
1

>  <i_epik_Tot_abs_Q>  (1027) 
1

>  <i_f3d_flags>  (1027) 
0

>  <i_i_glide_confnum>  (1027) 
5

>  <i_i_glide_lignum>  (1027) 
676

>  <i_i_glide_posenum>  (1027) 
17

>  <i_i_glide_rotatable_bonds>  (1027) 
8

>  <i_lp_mmshare_version>  (1027) 
65135

>  <i_m_ct_format>  (1027) 
2

>  <i_m_source_file_index>  (1027) 
1826

>  <i_qp_#NandO>  (1027) 
4

>  <i_qp_#acid>  (1027) 
0

>  <i_qp_#amide>  (1027) 
0

>  <i_qp_#amidine>  (1027) 
0

>  <i_qp_#amine>  (1027) 
1

>  <i_qp_#in34>  (1027) 
0

>  <i_qp_#in56>  (1027) 
21

>  <i_qp_#metab>  (1027) 
4

>  <i_qp_#nonHatm>  (1027) 
29

>  <i_qp_#noncon>  (1027) 
0

>  <i_qp_#ringatoms>  (1027) 
21

>  <i_qp_#rotor>  (1027) 
8

>  <i_qp_#rtvFG>  (1027) 
0

>  <i_qp_#stars>  (1027) 
0

>  <i_qp_CNS>  (1027) 
1

>  <i_qp_HumanOralAbsorption>  (1027) 
3

>  <i_qp_RuleOfFive>  (1027) 
0

>  <i_qp_RuleOfThree>  (1027) 
0

>  <i_sd_BIOSOLVEIT.INFINISEE\_REAGENT1\_NAME>  (1027) 
8295862

>  <i_sd_BIOSOLVEIT.INFINISEE\_REAGENT2\_NAME>  (1027) 
24720860

>  <i_sd_BIOSOLVEIT.INFINISEE\_RESULT\_RANK>  (1027) 
79532

>  <i_sd_version>  (1027) 
0

>  <b_lp_Chiralities_Consistent>  (1027) 
1

>  <b_sd_chiral_flag>  (1027) 
0

>  <canonical_id>  (1027) 
ATP-HTVS-A3FFA90B66AA

>  <compound_code>  (1027) 
58403

>  <title>  (1027) 
m_270004beb____8295862____24720860

>  <variant>  (1027) 
58403-7

>  <source_file>  (1027) 
运行/运行/ATP-VSW/ATP-VSW-DOCK_HTVS_1-003_lib/ATP-VSW-DOCK_HTVS_1-003_lib.mae

>  <canonical_smiles>  (1027) 
C[C@H]([NH2+]Cc1nc2ccccc2n1Cc1ccccc1)[C@H](O)c1ccc(Br)cc1

>  <scaffold>  (1027) 
c1ccc(CC[NH2+]Cc2nc3ccccc3n2Cc2ccccc2)cc1

>  <molecular_formula>  (1027) 
C24H25BrN3O+

$$$$
ATP-HTVS-A44EAAD38847
     RDKit          3D

 58 61  0  0  0  0  0  0  0  0999 V2000
  196.6094  183.5105  150.3821 F   0  0  0  0  0  0  0  0  0  0  0  0
  196.7164  182.9996  151.6435 C   0  0  0  0  0  0  0  0  0  0  0  0
  197.3499  183.7518  152.6604 C   0  0  0  0  0  0  0  0  0  0  0  0
  197.4989  183.1758  153.9467 C   0  0  0  0  0  0  0  0  0  0  0  0
  197.0565  181.8838  154.2128 C   0  0  0  0  0  0  0  0  0  0  0  0
  196.3429  181.1828  153.2025 C   0  0  0  0  0  0  0  0  0  0  0  0
  196.2594  181.7157  151.9050 C   0  0  0  0  0  0  0  0  0  0  0  0
  197.3349  181.2154  155.5569 C   0  0  1  0  0  0  0  0  0  0  0  0
  196.3315  181.6716  156.5523 N   0  0  1  0  0  0  0  0  0  0  0  0
  196.8307  181.9079  157.9268 C   0  0  1  0  0  0  0  0  0  0  0  0
  196.2205  183.1529  158.5348 C   0  0  0  0  0  0  0  0  0  0  0  0
  196.9527  184.3566  158.5276 C   0  0  0  0  0  0  0  0  0  0  0  0
  196.4283  185.5163  159.1373 C   0  0  0  0  0  0  0  0  0  0  0  0
  195.1575  185.4702  159.7369 C   0  0  0  0  0  0  0  0  0  0  0  0
  194.4182  184.2700  159.7313 C   0  0  0  0  0  0  0  0  0  0  0  0
  194.9470  183.1109  159.1316 C   0  0  0  0  0  0  0  0  0  0  0  0
  197.2303  186.8102  159.1217 C   0  0  1  0  0  0  0  0  0  0  0  0
  196.8851  187.7068  158.0184 N   0  0  0  0  0  0  0  0  0  0  0  0
  197.5897  188.9770  158.1702 C   0  0  2  0  0  0  0  0  0  0  0  0
  197.2811  187.1176  156.7435 C   0  0  2  0  0  0  0  0  0  0  0  0
  197.4440  179.6722  155.4883 C   0  0  1  0  0  0  0  0  0  0  0  0
  198.4918  179.1743  154.5749 N   0  0  0  0  0  0  0  0  0  0  0  0
  199.6201  178.4179  154.9745 C   0  0  0  0  0  0  0  0  0  0  0  0
  200.3435  178.1962  153.7718 C   0  0  0  0  0  0  0  0  0  0  0  0
  199.6984  178.7513  152.6838 N   0  0  0  0  0  0  0  0  0  0  0  0
  198.6222  179.2750  153.2195 C   0  0  0  0  0  0  0  0  0  0  0  0
  201.5509  177.4778  153.7783 C   0  0  0  0  0  0  0  0  0  0  0  0
  202.0294  176.9709  154.9931 C   0  0  0  0  0  0  0  0  0  0  0  0
  201.3110  177.1801  156.1915 C   0  0  0  0  0  0  0  0  0  0  0  0
  200.0965  177.9071  156.2017 C   0  0  0  0  0  0  0  0  0  0  0  0
  195.9366  182.5282  156.1985 H   0  0  0  0  0  0  0  0  0  0  0  0
  197.7117  184.7328  152.4472 H   0  0  0  0  0  0  0  0  0  0  0  0
  198.0698  183.7306  154.6981 H   0  0  0  0  0  0  0  0  0  0  0  0
  195.9170  180.1828  153.3790 H   0  0  0  0  0  0  0  0  0  0  0  0
  195.8450  181.0946  151.1219 H   0  0  0  0  0  0  0  0  0  0  0  0
  198.3195  181.5791  155.8427 H   0  0  0  0  0  0  0  0  0  0  0  0
  196.5936  181.0433  158.5420 H   0  0  0  0  0  0  0  0  0  0  0  0
  197.9137  182.0110  157.9575 H   0  0  0  0  0  0  0  0  0  0  0  0
  197.9208  184.3994  158.0549 H   0  0  0  0  0  0  0  0  0  0  0  0
  194.7369  186.3582  160.1914 H   0  0  0  0  0  0  0  0  0  0  0  0
  193.4399  184.2454  160.1821 H   0  0  0  0  0  0  0  0  0  0  0  0
  194.3759  182.1921  159.1463 H   0  0  0  0  0  0  0  0  0  0  0  0
  197.0627  187.3229  160.0694 H   0  0  0  0  0  0  0  0  0  0  0  0
  198.2954  186.5774  159.0873 H   0  0  0  0  0  0  0  0  0  0  0  0
  197.3601  189.6482  157.3413 H   0  0  0  0  0  0  0  0  0  0  0  0
  198.6710  188.8370  158.1950 H   0  0  0  0  0  0  0  0  0  0  0  0
  197.2926  189.4860  159.0874 H   0  0  0  0  0  0  0  0  0  0  0  0
  197.0437  187.7771  155.9077 H   0  0  0  0  0  0  0  0  0  0  0  0
  196.7522  186.1809  156.5663 H   0  0  0  0  0  0  0  0  0  0  0  0
  198.3533  186.9123  156.7285 H   0  0  0  0  0  0  0  0  0  0  0  0
  197.6299  179.3118  156.4946 H   0  0  0  0  0  0  0  0  0  0  0  0
  196.4865  179.2114  155.2421 H   0  0  0  0  0  0  0  0  0  0  0  0
  197.9004  179.7509  152.5650 H   0  0  0  0  0  0  0  0  0  0  0  0
  202.0434  177.3604  152.8167 H   0  0  0  0  0  0  0  0  0  0  0  0
  202.9606  176.4344  154.9654 H   0  0  0  0  0  0  0  0  0  0  0  0
  201.7146  176.7861  157.1078 H   0  0  0  0  0  0  0  0  0  0  0  0
  199.5408  178.0573  157.1299 H   0  0  0  0  0  0  0  0  0  0  0  0
  195.5896  180.9804  156.5912 H   0  0  0  0  0  0  0  0  0  0  0  0
  1  2  1  0
  2  3  1  0
  2  7  2  0
  3  4  2  0
  3 32  1  0
  4  5  1  0
  4 33  1  0
  5  6  2  0
  5  8  1  0
  6  7  1  0
  6 34  1  0
  7 35  1  0
  8  9  1  0
  8 21  1  0
  8 36  1  1
  9 10  1  0
  9 31  1  6
  9 58  1  0
 10 11  1  0
 10 37  1  1
 10 38  1  0
 11 12  1  0
 11 16  2  0
 12 13  2  0
 12 39  1  0
 13 14  1  0
 13 17  1  0
 14 15  2  0
 14 40  1  0
 15 16  1  0
 15 41  1  0
 16 42  1  0
 17 18  1  0
 17 43  1  1
 17 44  1  0
 18 19  1  0
 18 20  1  0
 19 45  1  6
 19 46  1  0
 19 47  1  0
 20 48  1  6
 20 49  1  0
 20 50  1  0
 21 22  1  0
 21 51  1  1
 21 52  1  0
 22 23  1  0
 22 26  1  0
 23 24  1  0
 23 30  2  0
 24 25  1  0
 24 27  2  0
 25 26  2  0
 26 53  1  0
 27 28  1  0
 27 54  1  0
 28 29  2  0
 28 55  1  0
 29 30  1  0
 29 56  1  0
 30 57  1  0
M  CHG  1   9   1
M  END
>  <s_epik_cmdline>  (1028) 
J2VwaWtfcHl0aG9uJywgJy1waCcsICc3LjAwMDAwMCcsICctcGh0JywgJzIuMDAwMDAwJywgJy1tcycsICcxNicsICctdG4nLCAnOCcsICctbWEnLCAnMjAwJywgJy1pbWFlJywgJzxpbmZpbGUubWFlPicsICctb21hZScsICc8b3V0ZmlsZS5tYWU+Jw==

>  <s_epik_input>  (1028) 
W2NIXTFbY0hdW2NIXWMoW0NIMl1OKFtDSDNdKVtDSDNdKVtjSF1jMVtDSDJdW05IXVtDQEhdKGMoW2NIXVtjSF0yKVtjSF1bY0hdYzJGKVtDSDJdbjNbY0hdbmMoYzM0KVtjSF1bY0hdW2NIXVtjSF00

>  <s_i_glide_gridfile>  (1028) 
ATP-Grid

>  <s_lp_Force_Field>  (1028) 
OPLS_2005

>  <s_lp_Variant>  (1028) 
m_2230bbb____8643106____18339498-5

>  <s_lp_label>  (1028) 
1489_sdstereoexpander_1_neutralizer_1_epik_3_stereoizer_1

>  <s_m_source_file>  (1028) 
ATP-VSW-LIGPREP-002-in.maegz

>  <s_sd_BIOSOLVEIT.INFINISEE\_QUERY\_NAME>  (1028) 
Ref-Lig

>  <s_sd_BIOSOLVEIT.INFINISEE\_QUERY\_SMILES>  (1028) 
S(c1nc2c(cc1C[NH2+]Cc3ccc(cc3)C[NH+](C)C)cccc2)Cc4ccccc4

>  <s_sd_BIOSOLVEIT.INFINISEE\_REACTION\_NAME>  (1028) 
m_2230bbb

>  <s_sd_BIOSOLVEIT.INFINISEE\_REAGENT1\_SMILES>  (1028) 
[R1*]NC(c1ccc(F)cc1)CN2c3c(N=C2)cccc3

>  <s_sd_BIOSOLVEIT.INFINISEE\_REAGENT2\_SMILES>  (1028) 
[R1*]Cc1cc(ccc1)CN(C)C

>  <s_sd_BIOSOLVEIT.INFINISEE\_SPACE>  (1028) 
REALSpace_44bn_2023-08

>  <s_vsw_compound_code>  (1028) 
47618

>  <s_vsw_variant>  (1028) 
47618-5

>  <r_epik_Charging_Adjusted_Penalty>  (1028) 
1.8293781268856899

>  <r_epik_Ionization_Penalty>  (1028) 
1.6500999999999999

>  <r_epik_Ionization_Penalty_Charging>  (1028) 
0.1908

>  <r_epik_Ionization_Penalty_Neutral>  (1028) 
1.4593

>  <r_epik_State_Penalty>  (1028) 
1.6385000000000001

>  <r_i_docking_score>  (1028) 
-3.24160266592602

>  <r_i_glide_ecoul>  (1028) 
-9.4697732925415004

>  <r_i_glide_eff_state_penalty>  (1028) 
1.6385000000000001

>  <r_i_glide_einternal>  (1028) 
7.2219486236572301

>  <r_i_glide_emodel>  (1028) 
-59.957390147772401

>  <r_i_glide_energy>  (1028) 
-43.738778114318798

>  <r_i_glide_erotb>  (1028) 
0.84409627414046295

>  <r_i_glide_esite>  (1028) 
-0.12926205928429599

>  <r_i_glide_evdw>  (1028) 
-34.269004821777301

>  <r_i_glide_gscore>  (1028) 
-4.88010266592602

>  <r_i_glide_hbond>  (1028) 
-0.062794697367541799

>  <r_i_glide_ligand_efficiency>  (1028) 
-0.108053422197534

>  <r_i_glide_ligand_efficiency_ln>  (1028) 
-0.73652744578835505

>  <r_i_glide_ligand_efficiency_sa>  (1028) 
-0.33574710545108699

>  <r_i_glide_lipo>  (1028) 
-1.3429874773353401

>  <r_i_glide_metal>  (1028) 
-0

>  <r_i_glide_rewards>  (1028) 
-1.05523847110921

>  <r_lp_Energy>  (1028) 
17.944965

>  <r_qp_ACxDN^.5/SA>  (1028) 
0.0074158999999999996

>  <r_qp_CIQPlogS>  (1028) 
-4.5629999999999997

>  <r_qp_EA(eV)>  (1028) 
0.311

>  <r_qp_FISA>  (1028) 
46.631999999999998

>  <r_qp_FOSA>  (1028) 
191.965

>  <r_qp_IP(eV)>  (1028) 
8.7100000000000009

>  <r_qp_Jm>  (1028) 
0.011445456066636999

>  <r_qp_PISA>  (1028) 
388.613

>  <r_qp_PSA>  (1028) 
35.045000000000002

>  <r_qp_PercentHumanOralAbsorption>  (1028) 
96.495000000000005

>  <r_qp_QPPCaco>  (1028) 
222.58199999999999

>  <r_qp_QPPMDCK>  (1028) 
215.96600000000001

>  <r_qp_QPlogBB>  (1028) 
0.57299999999999995

>  <r_qp_QPlogHERG>  (1028) 
-7.1130000000000004

>  <r_qp_QPlogKhsa>  (1028) 
0.88500000000000001

>  <r_qp_QPlogKp>  (1028) 
-4.367

>  <r_qp_QPlogPC16>  (1028) 
13.358000000000001

>  <r_qp_QPlogPo/w>  (1028) 
4.702

>  <r_qp_QPlogPoct>  (1028) 
19.498999999999999

>  <r_qp_QPlogPw>  (1028) 
8.9440000000000008

>  <r_qp_QPlogS>  (1028) 
-3.1789999999999998

>  <r_qp_QPpolrz>  (1028) 
44.902999999999999

>  <r_qp_SASA>  (1028) 
674.22799999999995

>  <r_qp_SAamideO>  (1028) 
0

>  <r_qp_SAfluorine>  (1028) 
47.018000000000001

>  <r_qp_WPSA>  (1028) 
47.018000000000001

>  <r_qp_accptHB>  (1028) 
5

>  <r_qp_dip^2/V>  (1028) 
0.0238739

>  <r_qp_dipole>  (1028) 
5.5949999999999998

>  <r_qp_donorHB>  (1028) 
1

>  <r_qp_glob>  (1028) 
0.85937479999999999

>  <r_qp_mol_MW>  (1028) 
402.51299999999998

>  <r_qp_volume>  (1028) 
1311.405

>  <r_sd_BIOSOLVEIT.INFINISEE\_FTREES\_SIMILARITY>  (1028) 
0.90700000000000003

>  <r_sd_BIOSOLVEIT.LOGP>  (1028) 
2.3248000000000002

>  <r_sd_BIOSOLVEIT.MOLECULAR\_WEIGHT>  (1028) 
404.52999999999997

>  <r_sd_BIOSOLVEIT.TPSA>  (1028) 
38.869999999999997

>  <i_epik_Tot_Q>  (1028) 
1

>  <i_epik_Tot_abs_Q>  (1028) 
1

>  <i_f3d_flags>  (1028) 
0

>  <i_i_glide_confnum>  (1028) 
6

>  <i_i_glide_lignum>  (1028) 
509

>  <i_i_glide_posenum>  (1028) 
2

>  <i_i_glide_rotatable_bonds>  (1028) 
8

>  <i_lp_mmshare_version>  (1028) 
65135

>  <i_m_ct_format>  (1028) 
2

>  <i_m_source_file_index>  (1028) 
1489

>  <i_qp_#NandO>  (1028) 
4

>  <i_qp_#acid>  (1028) 
0

>  <i_qp_#amide>  (1028) 
0

>  <i_qp_#amidine>  (1028) 
0

>  <i_qp_#amine>  (1028) 
2

>  <i_qp_#in34>  (1028) 
0

>  <i_qp_#in56>  (1028) 
21

>  <i_qp_#metab>  (1028) 
5

>  <i_qp_#nonHatm>  (1028) 
30

>  <i_qp_#noncon>  (1028) 
0

>  <i_qp_#ringatoms>  (1028) 
21

>  <i_qp_#rotor>  (1028) 
8

>  <i_qp_#rtvFG>  (1028) 
0

>  <i_qp_#stars>  (1028) 
0

>  <i_qp_CNS>  (1028) 
2

>  <i_qp_HumanOralAbsorption>  (1028) 
3

>  <i_qp_RuleOfFive>  (1028) 
0

>  <i_qp_RuleOfThree>  (1028) 
0

>  <i_sd_BIOSOLVEIT.INFINISEE\_REAGENT1\_NAME>  (1028) 
8643106

>  <i_sd_BIOSOLVEIT.INFINISEE\_REAGENT2\_NAME>  (1028) 
18339498

>  <i_sd_BIOSOLVEIT.INFINISEE\_RESULT\_RANK>  (1028) 
58507

>  <i_sd_version>  (1028) 
0

>  <b_lp_Chiralities_Consistent>  (1028) 
1

>  <b_sd_chiral_flag>  (1028) 
0

>  <canonical_id>  (1028) 
ATP-HTVS-A44EAAD38847

>  <compound_code>  (1028) 
47618

>  <title>  (1028) 
m_2230bbb____8643106____18339498

>  <variant>  (1028) 
47618-5

>  <source_file>  (1028) 
运行/运行/ATP-VSW/ATP-VSW-DOCK_HTVS_1-002_lib.maegz

>  <canonical_smiles>  (1028) 
CN(C)Cc1cccc(C[NH2+][C@@H](Cn2cnc3ccccc32)c2ccc(F)cc2)c1

>  <scaffold>  (1028) 
c1ccc(C[NH2+]C(Cn2cnc3ccccc32)c2ccccc2)cc1

>  <molecular_formula>  (1028) 
C25H28FN4+

$$$$
ATP-HTVS-A459F36766D8
     RDKit          3D

 64 67  0  0  0  0  0  0  0  0999 V2000
  195.9843  179.7817  150.9547 F   0  0  0  0  0  0  0  0  0  0  0  0
  196.9530  180.7141  151.1351 C   0  0  0  0  0  0  0  0  0  0  0  0
  198.2967  180.4362  150.7596 C   0  0  0  0  0  0  0  0  0  0  0  0
  199.3163  181.3554  151.0762 C   0  0  0  0  0  0  0  0  0  0  0  0
  200.6747  181.0395  150.9047 N   0  0  0  0  0  0  0  0  0  0  0  0
  198.9804  182.5688  151.7298 C   0  0  0  0  0  0  0  0  0  0  0  0
  197.6606  182.8389  152.0987 C   0  0  0  0  0  0  0  0  0  0  0  0
  196.6361  181.9068  151.8073 C   0  0  0  0  0  0  0  0  0  0  0  0
  198.6288  179.0656  150.1757 C   0  0  1  0  0  0  0  0  0  0  0  0
  199.3283  178.0858  151.0162 N   0  0  0  0  0  0  0  0  0  0  0  0
  199.4812  178.0624  152.4069 C   0  0  0  0  0  0  0  0  0  0  0  0
  198.8706  178.9931  153.1157 N   0  0  0  0  0  0  0  0  0  0  0  0
  198.9957  179.0038  154.4674 C   0  0  0  0  0  0  0  0  0  0  0  0
  198.2773  180.0016  155.1266 N   0  0  0  0  0  0  0  0  0  0  0  0
  198.8431  181.3488  155.1318 C   0  0  1  0  0  0  0  0  0  0  0  0
  198.1232  182.3440  156.0343 C   0  0  0  0  0  0  0  0  0  0  0  0
  197.0975  181.9121  156.8963 C   0  0  0  0  0  0  0  0  0  0  0  0
  196.4579  182.8012  157.7765 C   0  0  0  0  0  0  0  0  0  0  0  0
  196.8245  184.1614  157.7855 C   0  0  0  0  0  0  0  0  0  0  0  0
  197.8133  184.6212  156.8917 C   0  0  0  0  0  0  0  0  0  0  0  0
  198.4585  183.7208  156.0151 C   0  0  0  0  0  0  0  0  0  0  0  0
  195.4119  182.2346  158.7170 C   0  0  1  0  0  0  0  0  0  0  0  0
  194.0476  182.3755  158.1367 N   0  0  1  0  0  0  0  0  0  0  0  0
  193.2000  181.1597  158.3060 C   0  0  1  0  0  0  0  0  0  0  0  0
  192.0145  181.0973  157.3215 C   0  0  2  0  0  0  0  0  0  0  0  0
  193.4013  183.6200  158.6194 C   0  0  2  0  0  0  0  0  0  0  0  0
  199.7849  178.0503  155.1071 C   0  0  0  0  0  0  0  0  0  0  0  0
  200.4076  177.0615  154.2979 C   0  0  0  0  0  0  0  0  0  0  0  0
  200.2298  177.0861  152.9520 N   0  0  0  0  0  0  0  0  0  0  0  0
  201.1992  176.0519  154.8720 C   0  0  0  0  0  0  0  0  0  0  0  0
  201.3853  176.0455  156.2732 C   0  0  0  0  0  0  0  0  0  0  0  0
  200.7809  177.0237  157.0955 C   0  0  0  0  0  0  0  0  0  0  0  0
  199.9727  178.0297  156.5117 C   0  0  0  0  0  0  0  0  0  0  0  0
  201.3917  181.6039  151.3367 H   0  0  0  0  0  0  0  0  0  0  0  0
  200.9747  180.1148  150.6320 H   0  0  0  0  0  0  0  0  0  0  0  0
  199.7713  183.2178  152.0823 H   0  0  0  0  0  0  0  0  0  0  0  0
  197.4208  183.7130  152.6887 H   0  0  0  0  0  0  0  0  0  0  0  0
  195.6467  182.0600  152.2143 H   0  0  0  0  0  0  0  0  0  0  0  0
  197.7173  178.6087  149.7959 H   0  0  0  0  0  0  0  0  0  0  0  0
  199.2554  179.2305  149.2971 H   0  0  0  0  0  0  0  0  0  0  0  0
  199.7869  177.3430  150.5259 H   0  0  0  0  0  0  0  0  0  0  0  0
  197.8310  179.7169  155.9922 H   0  0  0  0  0  0  0  0  0  0  0  0
  199.9312  181.3730  155.2890 H   0  0  0  0  0  0  0  0  0  0  0  0
  198.6947  181.7263  154.1197 H   0  0  0  0  0  0  0  0  0  0  0  0
  196.7782  180.8829  156.9393 H   0  0  0  0  0  0  0  0  0  0  0  0
  196.3577  184.8480  158.4778 H   0  0  0  0  0  0  0  0  0  0  0  0
  198.0951  185.6668  156.9052 H   0  0  0  0  0  0  0  0  0  0  0  0
  199.2166  184.1001  155.3425 H   0  0  0  0  0  0  0  0  0  0  0  0
  195.6693  181.1936  158.9263 H   0  0  0  0  0  0  0  0  0  0  0  0
  195.5031  182.7303  159.6862 H   0  0  0  0  0  0  0  0  0  0  0  0
  193.7827  180.2536  158.1505 H   0  0  0  0  0  0  0  0  0  0  0  0
  192.8509  181.0850  159.3316 H   0  0  0  0  0  0  0  0  0  0  0  0
  191.3871  180.2350  157.5514 H   0  0  0  0  0  0  0  0  0  0  0  0
  192.3491  181.0160  156.2946 H   0  0  0  0  0  0  0  0  0  0  0  0
  191.3832  181.9804  157.3248 H   0  0  0  0  0  0  0  0  0  0  0  0
  193.2645  183.6328  159.6998 H   0  0  0  0  0  0  0  0  0  0  0  0
  192.4163  183.7344  158.1815 H   0  0  0  0  0  0  0  0  0  0  0  0
  193.9903  184.5040  158.3643 H   0  0  0  0  0  0  0  0  0  0  0  0
  201.6616  175.2950  154.2556 H   0  0  0  0  0  0  0  0  0  0  0  0
  202.0088  175.2646  156.7251 H   0  0  0  0  0  0  0  0  0  0  0  0
  200.9208  177.0078  158.1639 H   0  0  0  0  0  0  0  0  0  0  0  0
  199.4962  178.7598  157.1452 H   0  0  0  0  0  0  0  0  0  0  0  0
  200.6824  176.3667  152.3962 H   0  0  0  0  0  0  0  0  0  0  0  0
  194.1277  182.4799  157.1210 H   0  0  0  0  0  0  0  0  0  0  0  0
  1  2  1  0
  2  3  2  0
  2  8  1  0
  3  4  1  0
  3  9  1  0
  4  5  1  0
  4  6  2  0
  5 34  1  0
  5 35  1  0
  6  7  1  0
  6 36  1  0
  7  8  2  0
  7 37  1  0
  8 38  1  0
  9 10  1  0
  9 39  1  6
  9 40  1  0
 10 11  1  0
 10 41  1  0
 11 12  1  0
 11 29  2  0
 12 13  2  0
 13 14  1  0
 13 27  1  0
 14 15  1  0
 14 42  1  0
 15 16  1  0
 15 43  1  1
 15 44  1  0
 16 17  2  0
 16 21  1  0
 17 18  1  0
 17 45  1  0
 18 19  2  0
 18 22  1  0
 19 20  1  0
 19 46  1  0
 20 21  2  0
 20 47  1  0
 21 48  1  0
 22 23  1  0
 22 49  1  1
 22 50  1  0
 23 24  1  0
 23 26  1  0
 23 64  1  6
 24 25  1  0
 24 51  1  6
 24 52  1  0
 25 53  1  1
 25 54  1  0
 25 55  1  0
 26 56  1  1
 26 57  1  0
 26 58  1  0
 27 28  1  0
 27 33  2  0
 28 29  1  0
 28 30  2  0
 29 63  1  0
 30 31  1  0
 30 59  1  0
 31 32  2  0
 31 60  1  0
 32 33  1  0
 32 61  1  0
 33 62  1  0
M  CHG  2  23   1  29   1
M  END
>  <s_epik_cmdline>  (1029) 
J2VwaWtfcHl0aG9uJywgJy1waCcsICc3LjAwMDAwMCcsICctcGh0JywgJzIuMDAwMDAwJywgJy1tcycsICcxNicsICctdG4nLCAnOCcsICctbWEnLCAnMjAwJywgJy1pbWFlJywgJzxpbmZpbGUubWFlPicsICctb21hZScsICc8b3V0ZmlsZS5tYWU+Jw==

>  <s_epik_input>  (1029) 
W2NIXTFbY0hdW2NIXWMoW05IMl0pYyhjMUYpW0NIMl1bTkhdYyhuYyhjMjMpW2NIXVtjSF1bY0hdW2NIXTMpbmMyW05IXVtDSDJdYzRbY0hdYyhbY0hdW2NIXVtjSF00KVtDSDJdTihbQ0gzXSlbQ0gyXVtDSDNd

>  <s_i_glide_gridfile>  (1029) 
ATP-Grid

>  <s_lp_Force_Field>  (1029) 
OPLS_2005

>  <s_lp_Variant>  (1029) 
m_282030aaa____21930070____22360182____21939938-1

>  <s_lp_label>  (1029) 
1615_sdstereoexpander_1_neutralizer_1_epik_1_stereoizer_1

>  <s_m_source_file>  (1029) 
ATP-VSW-LIGPREP-002-in.maegz

>  <s_sd_BIOSOLVEIT.INFINISEE\_QUERY\_NAME>  (1029) 
Ref-Lig

>  <s_sd_BIOSOLVEIT.INFINISEE\_QUERY\_SMILES>  (1029) 
S(c1nc2c(cc1C[NH2+]Cc3ccc(cc3)C[NH+](C)C)cccc2)Cc4ccccc4

>  <s_sd_BIOSOLVEIT.INFINISEE\_REACTION\_NAME>  (1029) 
m_282030aaa

>  <s_sd_BIOSOLVEIT.INFINISEE\_REAGENT1\_SMILES>  (1029) 
[R1*]NCc1cc(ccc1)CN(CC)C

>  <s_sd_BIOSOLVEIT.INFINISEE\_REAGENT2\_SMILES>  (1029) 
[R2*]c1nc([R1*])c2c(n1)cccc2

>  <s_sd_BIOSOLVEIT.INFINISEE\_REAGENT3\_SMILES>  (1029) 
[R2*]NCc1c(F)cccc1N

>  <s_sd_BIOSOLVEIT.INFINISEE\_SPACE>  (1029) 
REALSpace_44bn_2023-08

>  <s_vsw_compound_code>  (1029) 
51650

>  <s_vsw_variant>  (1029) 
51650-1

>  <r_epik_Charging_Adjusted_Penalty>  (1029) 
0.089070388984551704

>  <r_epik_Ionization_Penalty>  (1029) 
0.0453

>  <r_epik_Ionization_Penalty_Charging>  (1029) 
0.044900000000000002

>  <r_epik_Ionization_Penalty_Neutral>  (1029) 
0.00040000000000000002

>  <r_epik_State_Penalty>  (1029) 
0.044200000000000003

>  <r_i_docking_score>  (1029) 
-3.8313986440739498

>  <r_i_glide_ecoul>  (1029) 
-10.098392486572299

>  <r_i_glide_eff_state_penalty>  (1029) 
0.044200000000000003

>  <r_i_glide_einternal>  (1029) 
10.292532920837401

>  <r_i_glide_emodel>  (1029) 
-54.314974978301798

>  <r_i_glide_energy>  (1029) 
-42.139801025390597

>  <r_i_glide_erotb>  (1029) 
0.80303265656137202

>  <r_i_glide_esite>  (1029) 
-0.14510910207734901

>  <r_i_glide_evdw>  (1029) 
-32.041408538818402

>  <r_i_glide_gscore>  (1029) 
-3.8755986440739498

>  <r_i_glide_hbond>  (1029) 
-0.20000000000000001

>  <r_i_glide_ligand_efficiency>  (1029) 
-0.116102989214362

>  <r_i_glide_ligand_efficiency_ln>  (1029) 
-0.85208322052157104

>  <r_i_glide_ligand_efficiency_sa>  (1029) 
-0.37240432328616402

>  <r_i_glide_lipo>  (1029) 
-0.546379164036081

>  <r_i_glide_metal>  (1029) 
-0

>  <r_i_glide_rewards>  (1029) 
-0.67031373459513799

>  <r_lp_Energy>  (1029) 
21.592448000000001

>  <r_qp_ACxDN^.5/SA>  (1029) 
0.014253999999999999

>  <r_qp_CIQPlogS>  (1029) 
-5.9000000000000004

>  <r_qp_EA(eV)>  (1029) 
0.45200000000000001

>  <r_qp_FISA>  (1029) 
73.572999999999993

>  <r_qp_FOSA>  (1029) 
261.69099999999997

>  <r_qp_IP(eV)>  (1029) 
7.8780000000000001

>  <r_qp_Jm>  (1029) 
0.0068902060269304703

>  <r_qp_PISA>  (1029) 
419.94600000000003

>  <r_qp_PSA>  (1029) 
67.927000000000007

>  <r_qp_PercentHumanOralAbsorption>  (1029) 
100

>  <r_qp_QPPCaco>  (1029) 
495.56900000000002

>  <r_qp_QPPMDCK>  (1029) 
385.05700000000002

>  <r_qp_QPlogBB>  (1029) 
-0.36399999999999999

>  <r_qp_QPlogHERG>  (1029) 
-7.7919999999999998

>  <r_qp_QPlogKhsa>  (1029) 
0.72899999999999998

>  <r_qp_QPlogKp>  (1029) 
-2.4990000000000001

>  <r_qp_QPlogPC16>  (1029) 
15.750999999999999

>  <r_qp_QPlogPo/w>  (1029) 
4.9039999999999999

>  <r_qp_QPlogPoct>  (1029) 
24.952999999999999

>  <r_qp_QPlogPw>  (1029) 
13.813000000000001

>  <r_qp_QPlogS>  (1029) 
-5.3109999999999999

>  <r_qp_QPpolrz>  (1029) 
48.914000000000001

>  <r_qp_SASA>  (1029) 
787.495

>  <r_qp_SAamideO>  (1029) 
0

>  <r_qp_SAfluorine>  (1029) 
32.283999999999999

>  <r_qp_WPSA>  (1029) 
32.283999999999999

>  <r_qp_accptHB>  (1029) 
6

>  <r_qp_dip^2/V>  (1029) 
0.0328448

>  <r_qp_dipole>  (1029) 
6.8680000000000003

>  <r_qp_donorHB>  (1029) 
3.5

>  <r_qp_glob>  (1029) 
0.78174920000000003

>  <r_qp_mol_MW>  (1029) 
444.55399999999997

>  <r_qp_volume>  (1029) 
1436.2329999999999

>  <r_sd_BIOSOLVEIT.INFINISEE\_FTREES\_SIMILARITY>  (1029) 
0.90600000000000003

>  <r_sd_BIOSOLVEIT.LOGP>  (1029) 
3.6099000000000001

>  <r_sd_BIOSOLVEIT.MOLECULAR\_WEIGHT>  (1029) 
445.56299999999999

>  <r_sd_BIOSOLVEIT.TPSA>  (1029) 
80.299999999999997

>  <i_epik_Tot_Q>  (1029) 
2

>  <i_epik_Tot_abs_Q>  (1029) 
2

>  <i_f3d_flags>  (1029) 
0

>  <i_i_glide_confnum>  (1029) 
3

>  <i_i_glide_lignum>  (1029) 
563

>  <i_i_glide_posenum>  (1029) 
1

>  <i_i_glide_rotatable_bonds>  (1029) 
9

>  <i_lp_mmshare_version>  (1029) 
65135

>  <i_m_ct_format>  (1029) 
2

>  <i_m_source_file_index>  (1029) 
1615

>  <i_qp_#NandO>  (1029) 
6

>  <i_qp_#acid>  (1029) 
0

>  <i_qp_#amide>  (1029) 
0

>  <i_qp_#amidine>  (1029) 
0

>  <i_qp_#amine>  (1029) 
1

>  <i_qp_#in34>  (1029) 
0

>  <i_qp_#in56>  (1029) 
22

>  <i_qp_#metab>  (1029) 
7

>  <i_qp_#nonHatm>  (1029) 
33

>  <i_qp_#noncon>  (1029) 
0

>  <i_qp_#ringatoms>  (1029) 
22

>  <i_qp_#rotor>  (1029) 
10

>  <i_qp_#rtvFG>  (1029) 
0

>  <i_qp_#stars>  (1029) 
1

>  <i_qp_CNS>  (1029) 
0

>  <i_qp_HumanOralAbsorption>  (1029) 
3

>  <i_qp_RuleOfFive>  (1029) 
0

>  <i_qp_RuleOfThree>  (1029) 
1

>  <i_sd_BIOSOLVEIT.INFINISEE\_REAGENT1\_NAME>  (1029) 
21930070

>  <i_sd_BIOSOLVEIT.INFINISEE\_REAGENT2\_NAME>  (1029) 
22360182

>  <i_sd_BIOSOLVEIT.INFINISEE\_REAGENT3\_NAME>  (1029) 
21939938

>  <i_sd_BIOSOLVEIT.INFINISEE\_RESULT\_RANK>  (1029) 
66777

>  <i_sd_version>  (1029) 
0

>  <b_lp_Chiralities_Consistent>  (1029) 
1

>  <b_sd_chiral_flag>  (1029) 
0

>  <canonical_id>  (1029) 
ATP-HTVS-A459F36766D8

>  <compound_code>  (1029) 
51650

>  <title>  (1029) 
m_282030aaa____21930070____22360182____21939938

>  <variant>  (1029) 
51650-1

>  <source_file>  (1029) 
运行/运行/ATP-VSW/ATP-VSW-DOCK_HTVS_1-002_lib.maegz

>  <canonical_smiles>  (1029) 
CC[N@@H+](C)Cc1cccc(CNc2nc(NCc3c(N)cccc3F)[nH+]c3ccccc23)c1

>  <scaffold>  (1029) 
c1ccc(CNc2nc(NCc3ccccc3)c3ccccc3[nH+]2)cc1

>  <molecular_formula>  (1029) 
C26H31FN6+2

$$$$
ATP-HTVS-A4810EBC0F15
     RDKit          3D

 52 55  0  0  0  0  0  0  0  0999 V2000
  201.3008  181.8896  155.3049 O   0  0  0  0  0  0  0  0  0  0  0  0
  200.5088  181.4566  156.1453 C   0  0  0  0  0  0  0  0  0  0  0  0
  199.9241  180.2558  156.0297 N   0  0  0  0  0  0  0  0  0  0  0  0
  200.0892  179.3262  154.8965 C   0  0  1  0  0  0  0  0  0  0  0  0
  199.0989  179.5320  153.7453 C   0  0  0  0  0  0  0  0  0  0  0  0
  197.6883  179.5250  153.9252 C   0  0  0  0  0  0  0  0  0  0  0  0
  196.8399  179.7933  152.8328 C   0  0  0  0  0  0  0  0  0  0  0  0
  197.3665  180.0313  151.5507 C   0  0  0  0  0  0  0  0  0  0  0  0
  198.7589  179.9899  151.3553 C   0  0  0  0  0  0  0  0  0  0  0  0
  199.6201  179.7522  152.4449 C   0  0  0  0  0  0  0  0  0  0  0  0
  197.0322  179.3004  155.2599 C   0  0  1  0  0  0  0  0  0  0  0  0
  196.9850  180.5159  155.9839 N   0  0  1  0  0  0  0  0  0  0  0  0
  196.4747  181.7693  155.2810 C   0  0  2  0  0  0  0  0  0  0  0  0
  200.0666  182.3022  157.3470 C   0  0  0  0  0  0  0  0  0  0  0  0
  200.9314  182.9395  158.2435 C   0  0  0  0  0  0  0  0  0  0  0  0
  200.3800  183.7464  159.3004 C   0  0  0  0  0  0  0  0  0  0  0  0
  199.0451  183.8976  159.4829 N   0  0  0  0  0  0  0  0  0  0  0  0
  198.1976  183.2866  158.6426 C   0  0  0  0  0  0  0  0  0  0  0  0
  196.7218  183.4479  158.8482 C   0  0  0  0  0  0  0  0  0  0  0  0
  196.2056  184.5580  159.5509 C   0  0  0  0  0  0  0  0  0  0  0  0
  194.8128  184.7052  159.7392 C   0  0  0  0  0  0  0  0  0  0  0  0
  193.8882  183.8405  159.2585 N   0  0  0  0  0  0  0  0  0  0  0  0
  194.3470  182.8019  158.5550 C   0  0  0  0  0  0  0  0  0  0  0  0
  195.7303  182.5504  158.3550 C   0  0  0  0  0  0  0  0  0  0  0  0
  198.6973  182.5320  157.5681 C   0  0  0  0  0  0  0  0  0  0  0  0
  201.2264  184.3855  160.1858 C   0  0  0  0  0  0  0  0  0  0  0  0
  202.6172  184.2377  160.0645 C   0  0  0  0  0  0  0  0  0  0  0  0
  203.1687  183.4446  159.0408 C   0  0  0  0  0  0  0  0  0  0  0  0
  202.3389  182.7950  158.1257 C   0  0  0  0  0  0  0  0  0  0  0  0
  196.4949  180.3417  156.8676 H   0  0  0  0  0  0  0  0  0  0  0  0
  199.3482  179.9153  156.7869 H   0  0  0  0  0  0  0  0  0  0  0  0
  201.1170  179.3841  154.5246 H   0  0  0  0  0  0  0  0  0  0  0  0
  199.9715  178.3010  155.2517 H   0  0  0  0  0  0  0  0  0  0  0  0
  195.7740  179.8605  152.9828 H   0  0  0  0  0  0  0  0  0  0  0  0
  196.6942  180.2258  150.7224 H   0  0  0  0  0  0  0  0  0  0  0  0
  199.1642  180.1414  150.3642 H   0  0  0  0  0  0  0  0  0  0  0  0
  200.6922  179.7368  152.2739 H   0  0  0  0  0  0  0  0  0  0  0  0
  195.9973  178.9916  155.1890 H   0  0  0  0  0  0  0  0  0  0  0  0
  197.5573  178.5476  155.8388 H   0  0  0  0  0  0  0  0  0  0  0  0
  196.4998  182.6951  155.8746 H   0  0  0  0  0  0  0  0  0  0  0  0
  195.4341  181.6207  155.0214 H   0  0  0  0  0  0  0  0  0  0  0  0
  197.0940  182.0160  154.4119 H   0  0  0  0  0  0  0  0  0  0  0  0
  196.8968  185.2809  159.9610 H   0  0  0  0  0  0  0  0  0  0  0  0
  194.4470  185.5413  160.3112 H   0  0  0  0  0  0  0  0  0  0  0  0
  193.5905  182.1211  158.1633 H   0  0  0  0  0  0  0  0  0  0  0  0
  195.9396  181.6268  157.8541 H   0  0  0  0  0  0  0  0  0  0  0  0
  198.0697  182.2184  156.8865 H   0  0  0  0  0  0  0  0  0  0  0  0
  200.7579  184.9710  160.9639 H   0  0  0  0  0  0  0  0  0  0  0  0
  203.2235  184.7345  160.7634 H   0  0  0  0  0  0  0  0  0  0  0  0
  204.2386  183.3245  158.9526 H   0  0  0  0  0  0  0  0  0  0  0  0
  202.7811  182.1690  157.3367 H   0  0  0  0  0  0  0  0  0  0  0  0
  197.9780  180.7419  156.2221 H   0  0  0  0  0  0  0  0  0  0  0  0
  1  2  2  0
  2  3  1  0
  2 14  1  0
  3  4  1  0
  3 31  1  0
  4  5  1  0
  4 32  1  6
  4 33  1  0
  5  6  1  0
  5 10  2  0
  6  7  2  0
  6 11  1  0
  7  8  1  0
  7 34  1  0
  8  9  2  0
  8 35  1  0
  9 10  1  0
  9 36  1  0
 10 37  1  0
 11 12  1  0
 11 38  1  6
 11 39  1  0
 12 13  1  0
 12 30  1  1
 12 52  1  0
 13 40  1  1
 13 41  1  0
 13 42  1  0
 14 15  1  0
 14 25  2  0
 15 16  1  0
 15 29  2  0
 16 17  1  0
 16 26  2  0
 17 18  2  0
 18 19  1  0
 18 25  1  0
 19 20  2  0
 19 24  1  0
 20 21  1  0
 20 43  1  0
 21 22  2  0
 21 44  1  0
 22 23  1  0
 23 24  2  0
 23 45  1  0
 24 46  1  0
 25 47  1  0
 26 27  1  0
 26 48  1  0
 27 28  2  0
 27 49  1  0
 28 29  1  0
 28 50  1  0
 29 51  1  0
M  CHG  1  12   1
M  END
>  <s_epik_cmdline>  (1030) 
J2VwaWtfcHl0aG9uJywgJy1waCcsICc3LjAwMDAwMCcsICctcGh0JywgJzIuMDAwMDAwJywgJy1tcycsICcxNicsICctdG4nLCAnOCcsICctbWEnLCAnMjAwJywgJy1pbWFlJywgJzxpbmZpbGUubWFlPicsICctb21hZScsICc8b3V0ZmlsZS5tYWU+Jw==

>  <s_epik_input>  (1030) 
W2NIXTFbY0hdW2NIXVtjSF1jKFtDSDJdW05IXVtDSDNdKWMxW0NIMl1bTkhdQyg9TyljMltjSF1jKG5jKGMyMylbY0hdW2NIXVtjSF1bY0hdMyktYzRbY0hdW2NIXW5bY0hdW2NIXTQ=

>  <s_i_glide_gridfile>  (1030) 
ATP-Grid

>  <s_lp_Force_Field>  (1030) 
OPLS_2005

>  <s_lp_Variant>  (1030) 
m_270006bbb____11732418____8405570-1

>  <s_lp_label>  (1030) 
1926_sdstereoexpander_1_neutralizer_1_epik_1_stereoizer_1

>  <s_m_source_file>  (1030) 
ATP-VSW-LIGPREP-001-in.maegz

>  <s_sd_BIOSOLVEIT.INFINISEE\_QUERY\_NAME>  (1030) 
Ref-Lig

>  <s_sd_BIOSOLVEIT.INFINISEE\_QUERY\_SMILES>  (1030) 
S(c1nc2c(cc1C[NH2+]Cc3ccc(cc3)C[NH+](C)C)cccc2)Cc4ccccc4

>  <s_sd_BIOSOLVEIT.INFINISEE\_REACTION\_NAME>  (1030) 
m_270006bbb

>  <s_sd_BIOSOLVEIT.INFINISEE\_REAGENT1\_SMILES>  (1030) 
[R1*]NCc1c(cccc1)CNC

>  <s_sd_BIOSOLVEIT.INFINISEE\_REAGENT2\_SMILES>  (1030) 
[R1*]C(=O)c1c2c(nc(c3ccncc3)c1)cccc2

>  <s_sd_BIOSOLVEIT.INFINISEE\_SPACE>  (1030) 
REALSpace_44bn_2023-08

>  <s_vsw_compound_code>  (1030) 
61601

>  <s_vsw_variant>  (1030) 
61601-1

>  <r_epik_Charging_Adjusted_Penalty>  (1030) 
0.037005618516229598

>  <r_epik_Ionization_Penalty>  (1030) 
0.023199999999999998

>  <r_epik_Ionization_Penalty_Charging>  (1030) 
0.018499999999999999

>  <r_epik_Ionization_Penalty_Neutral>  (1030) 
0.0047000000000000002

>  <r_epik_State_Penalty>  (1030) 
0.018499999999999999

>  <r_i_docking_score>  (1030) 
-4.6914092551401696

>  <r_i_glide_ecoul>  (1030) 
-11.3902635574341

>  <r_i_glide_eff_state_penalty>  (1030) 
0.018499999999999999

>  <r_i_glide_einternal>  (1030) 
1.8562929630279501

>  <r_i_glide_emodel>  (1030) 
-57.384196836437901

>  <r_i_glide_energy>  (1030) 
-39.9908990859985

>  <r_i_glide_erotb>  (1030) 
0.79291257533905701

>  <r_i_glide_esite>  (1030) 
-0.11828011396985

>  <r_i_glide_evdw>  (1030) 
-28.600635528564499

>  <r_i_glide_gscore>  (1030) 
-4.70990925514017

>  <r_i_glide_hbond>  (1030) 
-0.17176064617829501

>  <r_i_glide_ligand_efficiency>  (1030) 
-0.161772732935868

>  <r_i_glide_ligand_efficiency_ln>  (1030) 
-1.0742137555528699

>  <r_i_glide_ligand_efficiency_sa>  (1030) 
-0.49701708877818201

>  <r_i_glide_lipo>  (1030) 
-1.0546571693786599

>  <r_i_glide_metal>  (1030) 
-0

>  <r_i_glide_rewards>  (1030) 
-1.0195525909090899

>  <r_lp_Energy>  (1030) 
21.314896000000001

>  <r_qp_ACxDN^.5/SA>  (1030) 
0.013064299999999999

>  <r_qp_CIQPlogS>  (1030) 
-4.6280000000000001

>  <r_qp_EA(eV)>  (1030) 
1.387

>  <r_qp_FISA>  (1030) 
96.614000000000004

>  <r_qp_FOSA>  (1030) 
119.91500000000001

>  <r_qp_IP(eV)>  (1030) 
9.202

>  <r_qp_Jm>  (1030) 
0.0114259925155481

>  <r_qp_PISA>  (1030) 
487.10000000000002

>  <r_qp_PSA>  (1030) 
70.768000000000001

>  <r_qp_PercentHumanOralAbsorption>  (1030) 
92.856999999999999

>  <r_qp_QPPCaco>  (1030) 
299.64699999999999

>  <r_qp_QPPMDCK>  (1030) 
148.767

>  <r_qp_QPlogBB>  (1030) 
-0.40400000000000003

>  <r_qp_QPlogHERG>  (1030) 
-7.8070000000000004

>  <r_qp_QPlogKhsa>  (1030) 
0.47099999999999997

>  <r_qp_QPlogKp>  (1030) 
-3.0710000000000002

>  <r_qp_QPlogPC16>  (1030) 
14.504

>  <r_qp_QPlogPo/w>  (1030) 
3.6859999999999999

>  <r_qp_QPlogPoct>  (1030) 
22.175000000000001

>  <r_qp_QPlogPw>  (1030) 
13.391

>  <r_qp_QPlogS>  (1030) 
-4.4539999999999997

>  <r_qp_QPpolrz>  (1030) 
44.960999999999999

>  <r_qp_SASA>  (1030) 
703.62900000000002

>  <r_qp_SAamideO>  (1030) 
0

>  <r_qp_SAfluorine>  (1030) 
0

>  <r_qp_WPSA>  (1030) 
0

>  <r_qp_accptHB>  (1030) 
6.5

>  <r_qp_dip^2/V>  (1030) 
0.054002399999999999

>  <r_qp_dipole>  (1030) 
8.2400000000000002

>  <r_qp_donorHB>  (1030) 
2

>  <r_qp_glob>  (1030) 
0.80064610000000003

>  <r_qp_mol_MW>  (1030) 
382.464

>  <r_qp_volume>  (1030) 
1257.271

>  <r_sd_BIOSOLVEIT.INFINISEE\_FTREES\_SIMILARITY>  (1030) 
0.90300000000000002

>  <r_sd_BIOSOLVEIT.LOGP>  (1030) 
2.9199999999999999

>  <r_sd_BIOSOLVEIT.MOLECULAR\_WEIGHT>  (1030) 
383.47300000000001

>  <r_sd_BIOSOLVEIT.TPSA>  (1030) 
71.489999999999995

>  <i_epik_Tot_Q>  (1030) 
1

>  <i_epik_Tot_abs_Q>  (1030) 
1

>  <i_f3d_flags>  (1030) 
0

>  <i_i_glide_confnum>  (1030) 
6

>  <i_i_glide_lignum>  (1030) 
589

>  <i_i_glide_posenum>  (1030) 
11

>  <i_i_glide_rotatable_bonds>  (1030) 
7

>  <i_lp_mmshare_version>  (1030) 
65135

>  <i_m_ct_format>  (1030) 
2

>  <i_m_source_file_index>  (1030) 
1926

>  <i_qp_#NandO>  (1030) 
5

>  <i_qp_#acid>  (1030) 
0

>  <i_qp_#amide>  (1030) 
0

>  <i_qp_#amidine>  (1030) 
0

>  <i_qp_#amine>  (1030) 
1

>  <i_qp_#in34>  (1030) 
0

>  <i_qp_#in56>  (1030) 
22

>  <i_qp_#metab>  (1030) 
5

>  <i_qp_#nonHatm>  (1030) 
29

>  <i_qp_#noncon>  (1030) 
0

>  <i_qp_#ringatoms>  (1030) 
22

>  <i_qp_#rotor>  (1030) 
6

>  <i_qp_#rtvFG>  (1030) 
0

>  <i_qp_#stars>  (1030) 
1

>  <i_qp_CNS>  (1030) 
1

>  <i_qp_HumanOralAbsorption>  (1030) 
3

>  <i_qp_RuleOfFive>  (1030) 
0

>  <i_qp_RuleOfThree>  (1030) 
0

>  <i_sd_BIOSOLVEIT.INFINISEE\_REAGENT1\_NAME>  (1030) 
11732418

>  <i_sd_BIOSOLVEIT.INFINISEE\_REAGENT2\_NAME>  (1030) 
8405570

>  <i_sd_BIOSOLVEIT.INFINISEE\_RESULT\_RANK>  (1030) 
86138

>  <i_sd_version>  (1030) 
0

>  <b_lp_Chiralities_Consistent>  (1030) 
1

>  <b_sd_chiral_flag>  (1030) 
0

>  <canonical_id>  (1030) 
ATP-HTVS-A4810EBC0F15

>  <compound_code>  (1030) 
61601

>  <title>  (1030) 
m_270006bbb____11732418____8405570

>  <variant>  (1030) 
61601-1

>  <source_file>  (1030) 
运行/运行/ATP-VSW/ATP-VSW-DOCK_HTVS_1-001_lib/ATP-VSW-DOCK_HTVS_1-001_lib

>  <canonical_smiles>  (1030) 
C[NH2+]Cc1ccccc1CNC(=O)c1cc(-c2ccncc2)nc2ccccc12

>  <scaffold>  (1030) 
O=C(NCc1ccccc1)c1cc(-c2ccncc2)nc2ccccc12

>  <molecular_formula>  (1030) 
C24H23N4O+

$$$$
ATP-HTVS-A4BDF0A6C58A
     RDKit          3D

 57 60  0  0  0  0  0  0  0  0999 V2000
  196.1417  182.7805  151.5716 O   0  0  0  0  0  0  0  0  0  0  0  0
  196.7655  182.5356  152.6092 C   0  0  0  0  0  0  0  0  0  0  0  0
  196.8833  181.3515  153.2511 N   0  0  0  0  0  0  0  0  0  0  0  0
  197.7383  181.4308  154.4538 C   0  0  1  0  0  0  0  0  0  0  0  0
  198.1358  182.8973  154.4755 C   0  0  0  0  0  0  0  0  0  0  0  0
  197.5322  183.5272  153.3977 C   0  0  0  0  0  0  0  0  0  0  0  0
  197.6554  184.9095  153.1781 C   0  0  0  0  0  0  0  0  0  0  0  0
  198.4307  185.6587  154.0922 C   0  0  0  0  0  0  0  0  0  0  0  0
  199.0594  185.0218  155.1923 C   0  0  0  0  0  0  0  0  0  0  0  0
  198.9165  183.6264  155.3964 C   0  0  0  0  0  0  0  0  0  0  0  0
  197.0250  180.9801  155.7584 C   0  0  1  0  0  0  0  0  0  0  0  0
  196.2048  182.0497  156.3697 N   0  0  1  0  0  0  0  0  0  0  0  0
  195.7428  181.7344  157.7333 C   0  0  1  0  0  0  0  0  0  0  0  0
  195.6354  182.9836  158.5641 C   0  0  0  0  0  0  0  0  0  0  0  0
  196.7782  183.6433  159.0566 C   0  0  0  0  0  0  0  0  0  0  0  0
  198.0017  183.1034  158.6883 O   0  0  0  0  0  0  0  0  0  0  0  0
  199.1715  183.5771  159.3334 C   0  0  2  0  0  0  0  0  0  0  0  0
  196.6099  184.7849  159.8779 C   0  0  0  0  0  0  0  0  0  0  0  0
  195.3168  185.2556  160.2251 C   0  0  0  0  0  0  0  0  0  0  0  0
  195.2151  186.3585  161.0363 O   0  0  0  0  0  0  0  0  0  0  0  0
  193.9221  186.7697  161.4358 C   0  0  2  0  0  0  0  0  0  0  0  0
  194.1860  184.5639  159.7235 C   0  0  0  0  0  0  0  0  0  0  0  0
  194.3470  183.4446  158.8803 C   0  0  0  0  0  0  0  0  0  0  0  0
  196.3477  180.0743  152.7769 C   0  0  1  0  0  0  0  0  0  0  0  0
  197.0599  179.4844  151.5807 C   0  0  0  0  0  0  0  0  0  0  0  0
  198.2406  178.7377  151.7626 C   0  0  0  0  0  0  0  0  0  0  0  0
  198.8806  178.1466  150.6554 C   0  0  0  0  0  0  0  0  0  0  0  0
  198.3402  178.3122  149.3641 C   0  0  0  0  0  0  0  0  0  0  0  0
  197.1574  179.0547  149.1827 C   0  0  0  0  0  0  0  0  0  0  0  0
  196.5183  179.6436  150.2886 C   0  0  0  0  0  0  0  0  0  0  0  0
  196.7842  182.8707  156.4249 H   0  0  0  0  0  0  0  0  0  0  0  0
  198.6267  180.8313  154.2803 H   0  0  0  0  0  0  0  0  0  0  0  0
  197.1613  185.3902  152.3439 H   0  0  0  0  0  0  0  0  0  0  0  0
  198.5431  186.7227  153.9491 H   0  0  0  0  0  0  0  0  0  0  0  0
  199.6414  185.6111  155.8853 H   0  0  0  0  0  0  0  0  0  0  0  0
  199.3812  183.1469  156.2467 H   0  0  0  0  0  0  0  0  0  0  0  0
  196.4003  180.0827  155.6358 H   0  0  0  0  0  0  0  0  0  0  0  0
  197.8017  180.7042  156.4715 H   0  0  0  0  0  0  0  0  0  0  0  0
  194.7772  181.2466  157.6416 H   0  0  0  0  0  0  0  0  0  0  0  0
  196.4242  181.0521  158.2551 H   0  0  0  0  0  0  0  0  0  0  0  0
  200.0270  182.9999  158.9784 H   0  0  0  0  0  0  0  0  0  0  0  0
  199.1107  183.4413  160.4151 H   0  0  0  0  0  0  0  0  0  0  0  0
  199.3632  184.6275  159.1006 H   0  0  0  0  0  0  0  0  0  0  0  0
  197.4523  185.3284  160.2740 H   0  0  0  0  0  0  0  0  0  0  0  0
  193.9532  187.6689  162.0899 H   0  0  0  0  0  0  0  0  0  0  0  0
  193.4302  185.9872  162.0157 H   0  0  0  0  0  0  0  0  0  0  0  0
  193.3014  187.0224  160.5722 H   0  0  0  0  0  0  0  0  0  0  0  0
  193.1635  184.8649  159.9142 H   0  0  0  0  0  0  0  0  0  0  0  0
  193.4708  182.9511  158.4957 H   0  0  0  0  0  0  0  0  0  0  0  0
  196.3610  179.3134  153.5615 H   0  0  0  0  0  0  0  0  0  0  0  0
  195.3001  180.2226  152.5255 H   0  0  0  0  0  0  0  0  0  0  0  0
  198.6483  178.5959  152.7530 H   0  0  0  0  0  0  0  0  0  0  0  0
  199.7823  177.5705  150.7951 H   0  0  0  0  0  0  0  0  0  0  0  0
  198.8367  177.8714  148.5114 H   0  0  0  0  0  0  0  0  0  0  0  0
  196.7429  179.1759  148.1896 H   0  0  0  0  0  0  0  0  0  0  0  0
  195.6066  180.2043  150.1506 H   0  0  0  0  0  0  0  0  0  0  0  0
  195.3827  182.2616  155.8176 H   0  0  0  0  0  0  0  0  0  0  0  0
  1  2  2  0
  2  3  1  0
  2  6  1  0
  3  4  1  0
  3 24  1  0
  4  5  1  0
  4 11  1  0
  4 32  1  6
  5  6  1  0
  5 10  2  0
  6  7  2  0
  7  8  1  0
  7 33  1  0
  8  9  2  0
  8 34  1  0
  9 10  1  0
  9 35  1  0
 10 36  1  0
 11 12  1  0
 11 37  1  6
 11 38  1  0
 12 13  1  0
 12 31  1  1
 12 57  1  0
 13 14  1  0
 13 39  1  6
 13 40  1  0
 14 15  2  0
 14 23  1  0
 15 16  1  0
 15 18  1  0
 16 17  1  0
 17 41  1  6
 17 42  1  0
 17 43  1  0
 18 19  2  0
 18 44  1  0
 19 20  1  0
 19 22  1  0
 20 21  1  0
 21 45  1  1
 21 46  1  0
 21 47  1  0
 22 23  2  0
 22 48  1  0
 23 49  1  0
 24 25  1  0
 24 50  1  1
 24 51  1  0
 25 26  2  0
 25 30  1  0
 26 27  1  0
 26 52  1  0
 27 28  2  0
 27 53  1  0
 28 29  1  0
 28 54  1  0
 29 30  2  0
 29 55  1  0
 30 56  1  0
M  CHG  1  12   1
M  END
>  <s_epik_cmdline>  (1031) 
J2VwaWtfcHl0aG9uJywgJy1waCcsICc3LjAwMDAwMCcsICctcGh0JywgJzIuMDAwMDAwJywgJy1tcycsICcxNicsICctdG4nLCAnOCcsICctbWEnLCAnMjAwJywgJy1pbWFlJywgJzxpbmZpbGUubWFlPicsICctb21hZScsICc8b3V0ZmlsZS5tYWU+Jw==

>  <s_epik_input>  (1031) 
W2NIXTFbY0hdW2NIXVtjSF1bY0hdYzFbQ0gyXU4oQyg9TyljKGMyMylbY0hdW2NIXVtjSF1bY0hdMylbQ0BASF0yW0NIMl1bTkhdW0NIMl1jNGMoT1tDSDNdKVtjSF1jKE9bQ0gzXSlbY0hdW2NIXTQ=

>  <s_i_glide_gridfile>  (1031) 
ATP-Grid

>  <s_lp_Force_Field>  (1031) 
OPLS_2005

>  <s_lp_Variant>  (1031) 
m_207bba____12219688____109736-2

>  <s_lp_label>  (1031) 
1909_sdstereoexpander_2_neutralizer_1_epik_1_stereoizer_1

>  <s_m_source_file>  (1031) 
ATP-VSW-LIGPREP-002-in.maegz

>  <s_sd_BIOSOLVEIT.INFINISEE\_QUERY\_NAME>  (1031) 
Ref-Lig

>  <s_sd_BIOSOLVEIT.INFINISEE\_QUERY\_SMILES>  (1031) 
S(c1nc2c(cc1C[NH2+]Cc3ccc(cc3)C[NH+](C)C)cccc2)Cc4ccccc4

>  <s_sd_BIOSOLVEIT.INFINISEE\_REACTION\_NAME>  (1031) 
m_207bba

>  <s_sd_BIOSOLVEIT.INFINISEE\_REAGENT1\_SMILES>  (1031) 
[R1*]NCC1N(C(=O)c2c1cccc2)Cc3ccccc3

>  <s_sd_BIOSOLVEIT.INFINISEE\_REAGENT2\_SMILES>  (1031) 
[R1*]Cc1c(OC)cc(OC)cc1

>  <s_sd_BIOSOLVEIT.INFINISEE\_SPACE>  (1031) 
REALSpace_44bn_2023-08

>  <s_vsw_compound_code>  (1031) 
61058

>  <s_vsw_variant>  (1031) 
61058-2

>  <r_epik_Charging_Adjusted_Penalty>  (1031) 
0.0968159118929139

>  <r_epik_Ionization_Penalty>  (1031) 
0.048399999999999999

>  <r_epik_Ionization_Penalty_Charging>  (1031) 
0.048399999999999999

>  <r_epik_Ionization_Penalty_Neutral>  (1031) 
0

>  <r_epik_State_Penalty>  (1031) 
0.048399999999999999

>  <r_i_docking_score>  (1031) 
-5.6780041724192598

>  <r_i_glide_ecoul>  (1031) 
-9.6940708160400408

>  <r_i_glide_eff_state_penalty>  (1031) 
0.048399999999999999

>  <r_i_glide_einternal>  (1031) 
18.982835769653299

>  <r_i_glide_emodel>  (1031) 
-60.312774435111201

>  <r_i_glide_energy>  (1031) 
-46.584264755249002

>  <r_i_glide_erotb>  (1031) 
0.72358067980095497

>  <r_i_glide_esite>  (1031) 
-0.15643013420891999

>  <r_i_glide_evdw>  (1031) 
-36.890193939208999

>  <r_i_glide_gscore>  (1031) 
-5.7264041724192598

>  <r_i_glide_hbond>  (1031) 
-0.20000000000000001

>  <r_i_glide_ligand_efficiency>  (1031) 
-0.189266805747309

>  <r_i_glide_ligand_efficiency_ln>  (1031) 
-1.29010441478426

>  <r_i_glide_ligand_efficiency_sa>  (1031) 
-0.58809597044934903

>  <r_i_glide_lipo>  (1031) 
-2.1369353986448401

>  <r_i_glide_metal>  (1031) 
-0

>  <r_i_glide_rewards>  (1031) 
-0.657998999999999

>  <r_lp_Energy>  (1031) 
52.349510000000002

>  <r_lp_tautomer_probability>  (1031) 
1

>  <r_qp_ACxDN^.5/SA>  (1031) 
0.0089110999999999999

>  <r_qp_CIQPlogS>  (1031) 
-5.1429999999999998

>  <r_qp_EA(eV)>  (1031) 
0.16300000000000001

>  <r_qp_FISA>  (1031) 
51.597000000000001

>  <r_qp_FOSA>  (1031) 
233.739

>  <r_qp_IP(eV)>  (1031) 
9.0350000000000001

>  <r_qp_Jm>  (1031) 
0.25372731620964101

>  <r_qp_PISA>  (1031) 
387.97899999999998

>  <r_qp_PSA>  (1031) 
56.970999999999997

>  <r_qp_PercentHumanOralAbsorption>  (1031) 
100

>  <r_qp_QPPCaco>  (1031) 
800.76999999999998

>  <r_qp_QPPMDCK>  (1031) 
430.45999999999998

>  <r_qp_QPlogBB>  (1031) 
0.0040000000000000001

>  <r_qp_QPlogHERG>  (1031) 
-6.5330000000000004

>  <r_qp_QPlogKhsa>  (1031) 
0.61299999999999999

>  <r_qp_QPlogKp>  (1031) 
-2.3980000000000001

>  <r_qp_QPlogPC16>  (1031) 
13.484999999999999

>  <r_qp_QPlogPo/w>  (1031) 
4.4400000000000004

>  <r_qp_QPlogPoct>  (1031) 
19.594999999999999

>  <r_qp_QPlogPw>  (1031) 
9.9390000000000001

>  <r_qp_QPlogS>  (1031) 
-3.802

>  <r_qp_QPpolrz>  (1031) 
43.948999999999998

>  <r_qp_SASA>  (1031) 
673.31500000000005

>  <r_qp_SAamideO>  (1031) 
0

>  <r_qp_SAfluorine>  (1031) 
0

>  <r_qp_WPSA>  (1031) 
0

>  <r_qp_accptHB>  (1031) 
6

>  <r_qp_dip^2/V>  (1031) 
0.034530900000000003

>  <r_qp_dipole>  (1031) 
6.6680000000000001

>  <r_qp_donorHB>  (1031) 
1

>  <r_qp_glob>  (1031) 
0.85015320000000005

>  <r_qp_mol_MW>  (1031) 
402.49200000000002

>  <r_qp_volume>  (1031) 
1287.7329999999999

>  <r_sd_BIOSOLVEIT.INFINISEE\_FTREES\_SIMILARITY>  (1031) 
0.90300000000000002

>  <r_sd_BIOSOLVEIT.LOGP>  (1031) 
3.1644999999999999

>  <r_sd_BIOSOLVEIT.MOLECULAR\_WEIGHT>  (1031) 
403.49900000000002

>  <r_sd_BIOSOLVEIT.TPSA>  (1031) 
55.380000000000003

>  <i_epik_Tot_Q>  (1031) 
1

>  <i_epik_Tot_abs_Q>  (1031) 
1

>  <i_f3d_flags>  (1031) 
0

>  <i_i_glide_confnum>  (1031) 
1

>  <i_i_glide_lignum>  (1031) 
680

>  <i_i_glide_posenum>  (1031) 
13

>  <i_i_glide_rotatable_bonds>  (1031) 
8

>  <i_lp_mmshare_version>  (1031) 
65135

>  <i_m_ct_format>  (1031) 
2

>  <i_m_source_file_index>  (1031) 
1909

>  <i_qp_#NandO>  (1031) 
5

>  <i_qp_#acid>  (1031) 
0

>  <i_qp_#amide>  (1031) 
0

>  <i_qp_#amidine>  (1031) 
0

>  <i_qp_#amine>  (1031) 
1

>  <i_qp_#in34>  (1031) 
0

>  <i_qp_#in56>  (1031) 
21

>  <i_qp_#metab>  (1031) 
6

>  <i_qp_#nonHatm>  (1031) 
30

>  <i_qp_#noncon>  (1031) 
1

>  <i_qp_#ringatoms>  (1031) 
21

>  <i_qp_#rotor>  (1031) 
8

>  <i_qp_#rtvFG>  (1031) 
0

>  <i_qp_#stars>  (1031) 
0

>  <i_qp_CNS>  (1031) 
1

>  <i_qp_HumanOralAbsorption>  (1031) 
3

>  <i_qp_RuleOfFive>  (1031) 
0

>  <i_qp_RuleOfThree>  (1031) 
0

>  <i_sd_BIOSOLVEIT.INFINISEE\_REAGENT1\_NAME>  (1031) 
12219688

>  <i_sd_BIOSOLVEIT.INFINISEE\_REAGENT2\_NAME>  (1031) 
109736

>  <i_sd_BIOSOLVEIT.INFINISEE\_RESULT\_RANK>  (1031) 
84904

>  <i_sd_version>  (1031) 
0

>  <b_lp_Chiralities_Consistent>  (1031) 
1

>  <b_sd_chiral_flag>  (1031) 
0

>  <canonical_id>  (1031) 
ATP-HTVS-A4BDF0A6C58A

>  <compound_code>  (1031) 
61058

>  <title>  (1031) 
m_207bba____12219688____109736

>  <variant>  (1031) 
61058-2

>  <source_file>  (1031) 
运行/运行/ATP-VSW/ATP-VSW-DOCK_HTVS_1-002_lib.maegz

>  <canonical_smiles>  (1031) 
COc1ccc(C[NH2+]C[C@@H]2c3ccccc3C(=O)N2Cc2ccccc2)c(OC)c1

>  <scaffold>  (1031) 
O=C1c2ccccc2C(C[NH2+]Cc2ccccc2)N1Cc1ccccc1

>  <molecular_formula>  (1031) 
C25H27N2O3+

$$$$
ATP-HTVS-A4F2667C3349
     RDKit          3D

 63 66  0  0  0  0  0  0  0  0999 V2000
  196.3455  187.6179  159.9021 O   0  0  0  0  0  0  0  0  0  0  0  0
  196.6463  187.4436  158.7099 N   0  0  0  0  0  0  0  0  0  0  0  0
  195.8783  186.9971  157.8691 O   0  0  0  0  0  0  0  0  0  0  0  0
  198.0382  187.7965  158.3120 C   0  0  0  0  0  0  0  0  0  0  0  0
  198.5221  187.8245  156.9527 C   0  0  0  0  0  0  0  0  0  0  0  0
  199.8797  188.1560  156.6942 C   0  0  0  0  0  0  0  0  0  0  0  0
  200.7742  188.4628  157.7340 C   0  0  0  0  0  0  0  0  0  0  0  0
  200.3076  188.4563  159.0601 C   0  0  0  0  0  0  0  0  0  0  0  0
  198.9603  188.1400  159.3215 C   0  0  0  0  0  0  0  0  0  0  0  0
  197.6630  187.5280  155.7348 C   0  0  1  0  0  0  0  0  0  0  0  0
  197.6601  186.0224  155.3926 C   0  0  0  0  0  0  0  0  0  0  0  0
  197.6397  185.1772  156.2947 O   0  0  0  0  0  0  0  0  0  0  0  0
  197.6878  185.7439  154.0788 N   0  0  0  0  0  0  0  0  0  0  0  0
  197.5010  184.5066  153.3840 C   0  0  0  0  0  0  0  0  0  0  0  0
  197.1148  183.3769  154.0309 N   0  0  0  0  0  0  0  0  0  0  0  0
  196.7583  182.2860  153.3281 C   0  0  0  0  0  0  0  0  0  0  0  0
  196.9450  182.1569  151.9498 C   0  0  0  0  0  0  0  0  0  0  0  0
  196.6539  180.9379  151.3149 N   0  0  0  0  0  0  0  0  0  0  0  0
  197.7793  180.0720  150.9332 C   0  0  1  0  0  0  0  0  0  0  0  0
  198.7305  179.5972  152.0342 C   0  0  0  0  0  0  0  0  0  0  0  0
  198.2490  179.2402  153.3112 C   0  0  0  0  0  0  0  0  0  0  0  0
  199.1338  178.8639  154.3486 C   0  0  0  0  0  0  0  0  0  0  0  0
  200.5143  178.7767  154.0743 C   0  0  0  0  0  0  0  0  0  0  0  0
  201.0026  179.0826  152.7891 C   0  0  0  0  0  0  0  0  0  0  0  0
  200.1156  179.4954  151.7727 C   0  0  0  0  0  0  0  0  0  0  0  0
  198.6086  178.5969  155.7614 C   0  0  1  0  0  0  0  0  0  0  0  0
  198.3662  179.8365  156.5594 N   0  0  1  0  0  0  0  0  0  0  0  0
  199.6067  180.5859  156.8653 C   0  0  2  0  0  0  0  0  0  0  0  0
  197.3510  180.7190  155.9893 C   0  0  2  0  0  0  0  0  0  0  0  0
  197.3925  183.3120  151.2556 C   0  0  0  0  0  0  0  0  0  0  0  0
  197.6415  184.5169  151.9757 C   0  0  0  0  0  0  0  0  0  0  0  0
  197.9733  185.7006  151.2556 C   0  0  0  0  0  0  0  0  0  0  0  0
  198.0681  185.6610  149.8577 C   0  0  0  0  0  0  0  0  0  0  0  0
  197.8348  184.4688  149.1490 C   0  0  0  0  0  0  0  0  0  0  0  0
  197.5039  183.2947  149.8545 C   0  0  0  0  0  0  0  0  0  0  0  0
  200.2589  188.1679  155.6752 H   0  0  0  0  0  0  0  0  0  0  0  0
  201.8089  188.7123  157.5251 H   0  0  0  0  0  0  0  0  0  0  0  0
  200.9755  188.6986  159.8764 H   0  0  0  0  0  0  0  0  0  0  0  0
  198.6494  188.1692  160.3559 H   0  0  0  0  0  0  0  0  0  0  0  0
  196.6401  187.8805  155.8681 H   0  0  0  0  0  0  0  0  0  0  0  0
  198.0486  188.1108  154.8828 H   0  0  0  0  0  0  0  0  0  0  0  0
  197.7339  186.5636  153.4895 H   0  0  0  0  0  0  0  0  0  0  0  0
  196.3450  181.4579  153.8967 H   0  0  0  0  0  0  0  0  0  0  0  0
  195.9060  180.4266  151.7542 H   0  0  0  0  0  0  0  0  0  0  0  0
  197.3593  179.1816  150.4610 H   0  0  0  0  0  0  0  0  0  0  0  0
  198.3690  180.5767  150.1675 H   0  0  0  0  0  0  0  0  0  0  0  0
  197.1879  179.2913  153.5005 H   0  0  0  0  0  0  0  0  0  0  0  0
  201.2039  178.4997  154.8587 H   0  0  0  0  0  0  0  0  0  0  0  0
  202.0629  179.0150  152.5914 H   0  0  0  0  0  0  0  0  0  0  0  0
  200.5065  179.7311  150.7916 H   0  0  0  0  0  0  0  0  0  0  0  0
  197.6786  178.0298  155.6975 H   0  0  0  0  0  0  0  0  0  0  0  0
  199.3117  177.9482  156.2973 H   0  0  0  0  0  0  0  0  0  0  0  0
  200.1369  180.8688  155.9499 H   0  0  0  0  0  0  0  0  0  0  0  0
  200.2873  180.0011  157.4938 H   0  0  0  0  0  0  0  0  0  0  0  0
  199.3652  181.5252  157.3689 H   0  0  0  0  0  0  0  0  0  0  0  0
  197.8103  181.1010  155.0885 H   0  0  0  0  0  0  0  0  0  0  0  0
  197.0991  181.5677  156.6269 H   0  0  0  0  0  0  0  0  0  0  0  0
  196.4565  180.1565  155.7329 H   0  0  0  0  0  0  0  0  0  0  0  0
  198.1489  186.6426  151.7639 H   0  0  0  0  0  0  0  0  0  0  0  0
  198.3311  186.5538  149.3212 H   0  0  0  0  0  0  0  0  0  0  0  0
  197.9025  184.4303  148.0726 H   0  0  0  0  0  0  0  0  0  0  0  0
  197.2894  182.3823  149.3171 H   0  0  0  0  0  0  0  0  0  0  0  0
  197.9848  179.4662  157.4346 H   0  0  0  0  0  0  0  0  0  0  0  0
  1  2  1  0
  2  3  2  0
  2  4  1  0
  4  5  1  0
  4  9  2  0
  5  6  2  0
  5 10  1  0
  6  7  1  0
  6 36  1  0
  7  8  2  0
  7 37  1  0
  8  9  1  0
  8 38  1  0
  9 39  1  0
 10 11  1  0
 10 40  1  1
 10 41  1  0
 11 12  2  0
 11 13  1  0
 13 14  1  0
 13 42  1  0
 14 15  1  0
 14 31  2  0
 15 16  2  0
 16 17  1  0
 16 43  1  0
 17 18  1  0
 17 30  2  0
 18 19  1  0
 18 44  1  0
 19 20  1  0
 19 45  1  6
 19 46  1  0
 20 21  2  0
 20 25  1  0
 21 22  1  0
 21 47  1  0
 22 23  2  0
 22 26  1  0
 23 24  1  0
 23 48  1  0
 24 25  2  0
 24 49  1  0
 25 50  1  0
 26 27  1  0
 26 51  1  6
 26 52  1  0
 27 28  1  0
 27 29  1  0
 27 63  1  1
 28 53  1  6
 28 54  1  0
 28 55  1  0
 29 56  1  6
 29 57  1  0
 29 58  1  0
 30 31  1  0
 30 35  1  0
 31 32  1  0
 32 33  2  0
 32 59  1  0
 33 34  1  0
 33 60  1  0
 34 35  2  0
 34 61  1  0
 35 62  1  0
M  CHG  3   1  -1   2   1  27   1
M  END
>  <s_epik_cmdline>  (1032) 
J2VwaWtfcHl0aG9uJywgJy1waCcsICc3LjAwMDAwMCcsICctcGh0JywgJzIuMDAwMDAwJywgJy1tcycsICcxNicsICctdG4nLCAnOCcsICctbWEnLCAnMjAwJywgJy1pbWFlJywgJzxpbmZpbGUubWFlPicsICctb21hZScsICc8b3V0ZmlsZS5tYWU+Jw==

>  <s_epik_input>  (1032) 
W2NIXTFbY0hdW2NIXVtjSF1jKGMxW04rXShbTy1dKT1PKVtDSDJdQyg9TylbTkhdYyhjKGMyMylbY0hdW2NIXVtjSF1bY0hdMyluW2NIXWMyW05IXVtDSDJdYzRbY0hdYyhbY0hdW2NIXVtjSF00KVtDSDJdTihbQ0gzXSlbQ0gzXQ==

>  <s_i_glide_gridfile>  (1032) 
ATP-Grid

>  <s_lp_Force_Field>  (1032) 
OPLS_2005

>  <s_lp_Variant>  (1032) 
rxn502b____EMOL480467____EMOL7515103____EMOL2873214-1

>  <s_lp_label>  (1032) 
2274_sdstereoexpander_1_neutralizer_1_epik_1_stereoizer_1

>  <s_m_source_file>  (1032) 
ATP-VSW-LIGPREP-002-in.maegz

>  <s_sd_BIOSOLVEIT.INFINISEE\_QUERY\_NAME>  (1032) 
Ref-Lig

>  <s_sd_BIOSOLVEIT.INFINISEE\_QUERY\_SMILES>  (1032) 
S(c1nc2c(cc1C[NH2+]Cc3ccc(cc3)C[NH+](C)C)cccc2)Cc4ccccc4

>  <s_sd_BIOSOLVEIT.INFINISEE\_REACTION\_NAME>  (1032) 
rxn502b

>  <s_sd_BIOSOLVEIT.INFINISEE\_REAGENT1\_NAME>  (1032) 
EMOL480467

>  <s_sd_BIOSOLVEIT.INFINISEE\_REAGENT1\_SMILES>  (1032) 
[O-][N+](=O)c1c(cccc1)CC(=O)O

>  <s_sd_BIOSOLVEIT.INFINISEE\_REAGENT2\_NAME>  (1032) 
EMOL7515103

>  <s_sd_BIOSOLVEIT.INFINISEE\_REAGENT2\_SMILES>  (1032) 
Brc1c2c(c(nc1)N)cccc2

>  <s_sd_BIOSOLVEIT.INFINISEE\_REAGENT3\_NAME>  (1032) 
EMOL2873214

>  <s_sd_BIOSOLVEIT.INFINISEE\_REAGENT3\_SMILES>  (1032) 
N(Cc1cc(ccc1)CN)(C)C

>  <s_sd_BIOSOLVEIT.INFINISEE\_SPACE>  (1032) 
eXplore_7tr_2022-12

>  <s_vsw_compound_code>  (1032) 
72738

>  <s_vsw_variant>  (1032) 
72738-1

>  <r_epik_Charging_Adjusted_Penalty>  (1032) 
0.105810720196683

>  <r_epik_Ionization_Penalty>  (1032) 
0.0567

>  <r_epik_Ionization_Penalty_Charging>  (1032) 
0.0441

>  <r_epik_Ionization_Penalty_Neutral>  (1032) 
0.0126

>  <r_epik_State_Penalty>  (1032) 
0.061699999999999998

>  <r_i_docking_score>  (1032) 
-3.7697979650076001

>  <r_i_glide_ecoul>  (1032) 
-9.1854448318481392

>  <r_i_glide_eff_state_penalty>  (1032) 
0.061699999999999998

>  <r_i_glide_einternal>  (1032) 
6.4256162643432599

>  <r_i_glide_emodel>  (1032) 
-53.5319232448538

>  <r_i_glide_energy>  (1032) 
-41.533535957336397

>  <r_i_glide_erotb>  (1032) 
0.73007673240422

>  <r_i_glide_esite>  (1032) 
-0.10000000000000001

>  <r_i_glide_evdw>  (1032) 
-32.348091125488303

>  <r_i_glide_gscore>  (1032) 
-3.8314979650076002

>  <r_i_glide_hbond>  (1032) 
-0.175743139381175

>  <r_i_glide_ligand_efficiency>  (1032) 
-0.10770851328593101

>  <r_i_glide_ligand_efficiency_ln>  (1032) 
-0.82755431947718805

>  <r_i_glide_ligand_efficiency_sa>  (1032) 
-0.35232168871256803

>  <r_i_glide_lipo>  (1032) 
-0.76301500031865699

>  <r_i_glide_metal>  (1032) 
-0

>  <r_i_glide_rewards>  (1032) 
-0.527595276660349

>  <r_lp_Energy>  (1032) 
28.183685000000001

>  <r_qp_ACxDN^.5/SA>  (1032) 
0.0144338

>  <r_qp_CIQPlogS>  (1032) 
-5.9779999999999998

>  <r_qp_EA(eV)>  (1032) 
0.96399999999999997

>  <r_qp_FISA>  (1032) 
113.262

>  <r_qp_FOSA>  (1032) 
188.92400000000001

>  <r_qp_IP(eV)>  (1032) 
7.8070000000000004

>  <r_qp_Jm>  (1032) 
0.016595350594304299

>  <r_qp_PISA>  (1032) 
432.65800000000002

>  <r_qp_PSA>  (1032) 
99.569000000000003

>  <r_qp_PercentHumanOralAbsorption>  (1032) 
92.692999999999998

>  <r_qp_QPPCaco>  (1032) 
208.32300000000001

>  <r_qp_QPPMDCK>  (1032) 
100.431

>  <r_qp_QPlogBB>  (1032) 
-0.67300000000000004

>  <r_qp_QPlogHERG>  (1032) 
-7.0510000000000002

>  <r_qp_QPlogKhsa>  (1032) 
0.60799999999999998

>  <r_qp_QPlogKp>  (1032) 
-3.2810000000000001

>  <r_qp_QPlogPC16>  (1032) 
15.647

>  <r_qp_QPlogPo/w>  (1032) 
4.141

>  <r_qp_QPlogPoct>  (1032) 
23.577999999999999

>  <r_qp_QPlogPw>  (1032) 
13.532

>  <r_qp_QPlogS>  (1032) 
-4.1699999999999999

>  <r_qp_QPpolrz>  (1032) 
49.015999999999998

>  <r_qp_SASA>  (1032) 
734.84299999999996

>  <r_qp_SAamideO>  (1032) 
0

>  <r_qp_SAfluorine>  (1032) 
0

>  <r_qp_WPSA>  (1032) 
0

>  <r_qp_accptHB>  (1032) 
7.5

>  <r_qp_dip^2/V>  (1032) 
0.0069077000000000001

>  <r_qp_dipole>  (1032) 
3.1320000000000001

>  <r_qp_donorHB>  (1032) 
2

>  <r_qp_glob>  (1032) 
0.83132410000000001

>  <r_qp_mol_MW>  (1032) 
469.54199999999997

>  <r_qp_volume>  (1032) 
1419.712

>  <r_sd_BIOSOLVEIT.INFINISEE\_FTREES\_SIMILARITY>  (1032) 
0.92400000000000004

>  <r_sd_BIOSOLVEIT.LOGP>  (1032) 
3.5808

>  <r_sd_BIOSOLVEIT.MOLECULAR\_WEIGHT>  (1032) 
470.55000000000001

>  <r_sd_BIOSOLVEIT.TPSA>  (1032) 
104.28

>  <i_epik_Tot_Q>  (1032) 
1

>  <i_epik_Tot_abs_Q>  (1032) 
3

>  <i_f3d_flags>  (1032) 
0

>  <i_i_glide_confnum>  (1032) 
2

>  <i_i_glide_lignum>  (1032) 
907

>  <i_i_glide_posenum>  (1032) 
6

>  <i_i_glide_rotatable_bonds>  (1032) 
10

>  <i_lp_mmshare_version>  (1032) 
65135

>  <i_m_ct_format>  (1032) 
2

>  <i_m_source_file_index>  (1032) 
2274

>  <i_qp_#NandO>  (1032) 
8

>  <i_qp_#acid>  (1032) 
0

>  <i_qp_#amide>  (1032) 
0

>  <i_qp_#amidine>  (1032) 
0

>  <i_qp_#amine>  (1032) 
1

>  <i_qp_#in34>  (1032) 
0

>  <i_qp_#in56>  (1032) 
22

>  <i_qp_#metab>  (1032) 
9

>  <i_qp_#nonHatm>  (1032) 
35

>  <i_qp_#noncon>  (1032) 
0

>  <i_qp_#ringatoms>  (1032) 
22

>  <i_qp_#rotor>  (1032) 
9

>  <i_qp_#rtvFG>  (1032) 
0

>  <i_qp_#stars>  (1032) 
2

>  <i_qp_CNS>  (1032) 
1

>  <i_qp_HumanOralAbsorption>  (1032) 
3

>  <i_qp_RuleOfFive>  (1032) 
0

>  <i_qp_RuleOfThree>  (1032) 
1

>  <i_sd_BIOSOLVEIT.INFINISEE\_RESULT\_RANK>  (1032) 
9587

>  <i_sd_version>  (1032) 
0

>  <b_lp_Chiralities_Consistent>  (1032) 
1

>  <b_sd_chiral_flag>  (1032) 
0

>  <canonical_id>  (1032) 
ATP-HTVS-A4F2667C3349

>  <compound_code>  (1032) 
72738

>  <title>  (1032) 
rxn502b____EMOL480467____EMOL7515103____EMOL2873214

>  <variant>  (1032) 
72738-1

>  <source_file>  (1032) 
运行/运行/ATP-VSW/ATP-VSW-DOCK_HTVS_1-002_lib.maegz

>  <canonical_smiles>  (1032) 
C[NH+](C)Cc1cccc(CNc2cnc(NC(=O)Cc3ccccc3[N+](=O)[O-])c3ccccc23)c1

>  <scaffold>  (1032) 
O=C(Cc1ccccc1)Nc1ncc(NCc2ccccc2)c2ccccc12

>  <molecular_formula>  (1032) 
C27H28N5O3+

$$$$
ATP-HTVS-A521B3182CFE
     RDKit          3D

 67 70  0  0  0  0  0  0  0  0999 V2000
  197.7130  182.3840  155.2195 N   0  0  0  0  0  0  0  0  0  0  0  0
  197.2112  181.3478  155.9041 C   0  0  0  0  0  0  0  0  0  0  0  0
  196.7330  181.4424  157.1484 N   0  0  0  0  0  0  0  0  0  0  0  0
  196.6403  182.6442  157.7444 C   0  0  0  0  0  0  0  0  0  0  0  0
  197.0789  183.8093  157.0489 C   0  0  0  0  0  0  0  0  0  0  0  0
  197.6540  183.6003  155.7736 C   0  0  0  0  0  0  0  0  0  0  0  0
  198.2041  184.6470  155.0158 N   0  0  0  0  0  0  0  0  0  0  0  0
  199.5662  185.1228  155.2970 C   0  0  1  0  0  0  0  0  0  0  0  0
  199.9753  185.2335  156.7701 C   0  0  0  0  0  0  0  0  0  0  0  0
  200.3960  184.0842  157.4733 C   0  0  0  0  0  0  0  0  0  0  0  0
  200.6508  184.1571  158.8576 C   0  0  0  0  0  0  0  0  0  0  0  0
  201.0314  183.0143  159.5560 N   0  0  0  0  0  0  0  0  0  0  0  0
  200.4856  185.3752  159.5418 C   0  0  0  0  0  0  0  0  0  0  0  0
  200.0717  186.5238  158.8477 C   0  0  0  0  0  0  0  0  0  0  0  0
  199.8343  186.4601  157.4591 C   0  0  0  0  0  0  0  0  0  0  0  0
  197.2391  185.5617  154.4213 C   0  0  2  0  0  0  0  0  0  0  0  0
  196.9626  185.0645  157.6705 C   0  0  0  0  0  0  0  0  0  0  0  0
  196.5036  185.1705  158.9929 C   0  0  0  0  0  0  0  0  0  0  0  0
  196.0836  184.0154  159.6820 C   0  0  0  0  0  0  0  0  0  0  0  0
  196.1418  182.7543  159.0446 C   0  0  0  0  0  0  0  0  0  0  0  0
  197.1305  180.1070  155.3440 N   0  0  0  0  0  0  0  0  0  0  0  0
  197.6686  179.7406  154.0433 C   0  0  1  0  0  0  0  0  0  0  0  0
  196.7304  180.1194  152.8814 C   0  0  1  0  0  0  0  0  0  0  0  0
  197.0898  179.4927  151.5377 C   0  0  0  0  0  0  0  0  0  0  0  0
  198.1176  178.5308  151.3951 C   0  0  0  0  0  0  0  0  0  0  0  0
  198.3762  177.9314  150.1520 C   0  0  0  0  0  0  0  0  0  0  0  0
  197.6241  178.2925  149.0204 C   0  0  0  0  0  0  0  0  0  0  0  0
  196.6045  179.2588  149.1481 C   0  0  0  0  0  0  0  0  0  0  0  0
  196.3390  179.8567  150.4000 C   0  0  0  0  0  0  0  0  0  0  0  0
  197.9220  177.6378  147.6880 C   0  0  1  0  0  0  0  0  0  0  0  0
  199.0184  178.3227  146.9530 N   0  0  1  0  0  0  0  0  0  0  0  0
  199.4959  177.5293  145.7993 C   0  0  2  0  0  0  0  0  0  0  0  0
  198.6966  179.7143  146.5558 C   0  0  2  0  0  0  0  0  0  0  0  0
  200.2859  184.4756  154.7860 H   0  0  0  0  0  0  0  0  0  0  0  0
  199.6904  186.1217  154.8481 H   0  0  0  0  0  0  0  0  0  0  0  0
  200.4722  183.1371  156.9552 H   0  0  0  0  0  0  0  0  0  0  0  0
  201.1477  183.0237  160.5579 H   0  0  0  0  0  0  0  0  0  0  0  0
  201.0606  182.1131  159.1044 H   0  0  0  0  0  0  0  0  0  0  0  0
  200.6443  185.4247  160.6073 H   0  0  0  0  0  0  0  0  0  0  0  0
  199.8938  187.4410  159.3821 H   0  0  0  0  0  0  0  0  0  0  0  0
  199.4746  187.3365  156.9419 H   0  0  0  0  0  0  0  0  0  0  0  0
  196.3542  185.0344  154.0705 H   0  0  0  0  0  0  0  0  0  0  0  0
  197.6689  186.1119  153.5763 H   0  0  0  0  0  0  0  0  0  0  0  0
  196.9224  186.3128  155.1500 H   0  0  0  0  0  0  0  0  0  0  0  0
  197.2651  185.9610  157.1722 H   0  0  0  0  0  0  0  0  0  0  0  0
  196.5025  186.1361  159.4679 H   0  0  0  0  0  0  0  0  0  0  0  0
  195.7283  184.1041  160.6960 H   0  0  0  0  0  0  0  0  0  0  0  0
  195.8348  181.8630  159.5733 H   0  0  0  0  0  0  0  0  0  0  0  0
  196.7589  179.3726  155.9436 H   0  0  0  0  0  0  0  0  0  0  0  0
  198.6553  180.1828  153.8918 H   0  0  0  0  0  0  0  0  0  0  0  0
  197.7851  178.6667  154.1525 H   0  0  0  0  0  0  0  0  0  0  0  0
  195.7084  179.8308  153.1263 H   0  0  0  0  0  0  0  0  0  0  0  0
  196.6961  181.2041  152.7785 H   0  0  0  0  0  0  0  0  0  0  0  0
  198.7390  178.1908  152.2073 H   0  0  0  0  0  0  0  0  0  0  0  0
  199.1541  177.1847  150.0999 H   0  0  0  0  0  0  0  0  0  0  0  0
  196.0119  179.5333  148.2853 H   0  0  0  0  0  0  0  0  0  0  0  0
  195.5471  180.5912  150.4851 H   0  0  0  0  0  0  0  0  0  0  0  0
  198.2105  176.6049  147.8937 H   0  0  0  0  0  0  0  0  0  0  0  0
  197.0130  177.5850  147.0771 H   0  0  0  0  0  0  0  0  0  0  0  0
  198.7201  177.4476  145.0329 H   0  0  0  0  0  0  0  0  0  0  0  0
  199.7822  176.5201  146.1067 H   0  0  0  0  0  0  0  0  0  0  0  0
  200.3714  177.9910  145.3386 H   0  0  0  0  0  0  0  0  0  0  0  0
  197.8918  179.7240  145.8227 H   0  0  0  0  0  0  0  0  0  0  0  0
  199.5654  180.1994  146.1133 H   0  0  0  0  0  0  0  0  0  0  0  0
  198.3974  180.3298  147.4010 H   0  0  0  0  0  0  0  0  0  0  0  0
  196.3559  180.5705  157.5927 H   0  0  0  0  0  0  0  0  0  0  0  0
  199.7977  178.3787  147.5977 H   0  0  0  0  0  0  0  0  0  0  0  0
  1  2  1  0
  1  6  2  0
  2  3  2  0
  2 21  1  0
  3  4  1  0
  3 66  1  0
  4  5  1  0
  4 20  2  0
  5  6  1  0
  5 17  2  0
  6  7  1  0
  7  8  1  0
  7 16  1  0
  8  9  1  0
  8 34  1  6
  8 35  1  0
  9 10  1  0
  9 15  2  0
 10 11  2  0
 10 36  1  0
 11 12  1  0
 11 13  1  0
 12 37  1  0
 12 38  1  0
 13 14  2  0
 13 39  1  0
 14 15  1  0
 14 40  1  0
 15 41  1  0
 16 42  1  6
 16 43  1  0
 16 44  1  0
 17 18  1  0
 17 45  1  0
 18 19  2  0
 18 46  1  0
 19 20  1  0
 19 47  1  0
 20 48  1  0
 21 22  1  0
 21 49  1  0
 22 23  1  0
 22 50  1  6
 22 51  1  0
 23 24  1  0
 23 52  1  1
 23 53  1  0
 24 25  1  0
 24 29  2  0
 25 26  2  0
 25 54  1  0
 26 27  1  0
 26 55  1  0
 27 28  2  0
 27 30  1  0
 28 29  1  0
 28 56  1  0
 29 57  1  0
 30 31  1  0
 30 58  1  1
 30 59  1  0
 31 32  1  0
 31 33  1  0
 31 67  1  1
 32 60  1  6
 32 61  1  0
 32 62  1  0
 33 63  1  6
 33 64  1  0
 33 65  1  0
M  CHG  2   3   1  31   1
M  END
>  <s_epik_cmdline>  (1033) 
J2VwaWtfcHl0aG9uJywgJy1waCcsICc3LjAwMDAwMCcsICctcGh0JywgJzIuMDAwMDAwJywgJy1tcycsICcxNicsICctdG4nLCAnOCcsICctbWEnLCAnMjAwJywgJy1pbWFlJywgJzxpbmZpbGUubWFlPicsICctb21hZScsICc8b3V0ZmlsZS5tYWU+Jw==

>  <s_epik_input>  (1033) 
W2NIXTFbY0hdW2NIXWMoW05IMl0pW2NIXWMxW0NIMl1OKFtDSDNdKWMoYyhjMjMpW2NIXVtjSF1bY0hdW2NIXTMpbmMobjIpW05IXVtDSDJdW0NIMl1jNFtjSF1bY0hdYyhbY0hdW2NIXTQpW0NIMl1OKFtDSDNdKVtDSDNd

>  <s_i_glide_gridfile>  (1033) 
ATP-Grid

>  <s_lp_Force_Field>  (1033) 
OPLS_2005

>  <s_lp_Variant>  (1033) 
m_282030aaa____21917614____22360182____21967972-1

>  <s_lp_label>  (1033) 
662_sdstereoexpander_1_neutralizer_1_epik_1_stereoizer_1

>  <s_m_source_file>  (1033) 
ATP-VSW-LIGPREP-003-in.maegz

>  <s_sd_BIOSOLVEIT.INFINISEE\_QUERY\_NAME>  (1033) 
Ref-Lig

>  <s_sd_BIOSOLVEIT.INFINISEE\_QUERY\_SMILES>  (1033) 
S(c1nc2c(cc1C[NH2+]Cc3ccc(cc3)C[NH+](C)C)cccc2)Cc4ccccc4

>  <s_sd_BIOSOLVEIT.INFINISEE\_REACTION\_NAME>  (1033) 
m_282030aaa

>  <s_sd_BIOSOLVEIT.INFINISEE\_REAGENT1\_SMILES>  (1033) 
[R1*]N(Cc1cc(N)ccc1)C

>  <s_sd_BIOSOLVEIT.INFINISEE\_REAGENT2\_SMILES>  (1033) 
[R2*]c1nc([R1*])c2c(n1)cccc2

>  <s_sd_BIOSOLVEIT.INFINISEE\_REAGENT3\_SMILES>  (1033) 
[R2*]NCCc1ccc(cc1)CN(C)C

>  <s_sd_BIOSOLVEIT.INFINISEE\_SPACE>  (1033) 
REALSpace_44bn_2023-08

>  <s_vsw_compound_code>  (1033) 
21155

>  <s_vsw_variant>  (1033) 
21155-1

>  <r_epik_Charging_Adjusted_Penalty>  (1033) 
0.094590569804972893

>  <r_epik_Ionization_Penalty>  (1033) 
0.0516

>  <r_epik_Ionization_Penalty_Charging>  (1033) 
0.047500000000000001

>  <r_epik_Ionization_Penalty_Neutral>  (1033) 
0.0041000000000000003

>  <r_epik_State_Penalty>  (1033) 
0.047100000000000003

>  <r_i_docking_score>  (1033) 
-4.5566039891692398

>  <r_i_glide_ecoul>  (1033) 
-7.5123639106750497

>  <r_i_glide_eff_state_penalty>  (1033) 
0.047100000000000003

>  <r_i_glide_einternal>  (1033) 
5.1395163536071804

>  <r_i_glide_emodel>  (1033) 
-56.856373713670898

>  <r_i_glide_energy>  (1033) 
-39.468689441680901

>  <r_i_glide_erotb>  (1033) 
0.81614353935777395

>  <r_i_glide_esite>  (1033) 
-0.25059702447083898

>  <r_i_glide_evdw>  (1033) 
-31.956325531005898

>  <r_i_glide_gscore>  (1033) 
-4.6037039891692402

>  <r_i_glide_hbond>  (1033) 
-0.32173320495616797

>  <r_i_glide_ligand_efficiency>  (1033) 
-0.13807890876270401

>  <r_i_glide_ligand_efficiency_ln>  (1033) 
-1.01336513435844

>  <r_i_glide_ligand_efficiency_sa>  (1033) 
-0.44289283958854297

>  <r_i_glide_lipo>  (1033) 
-1.72201195645862

>  <r_i_glide_metal>  (1033) 
-0

>  <r_i_glide_rewards>  (1033) 
-0.40083447948983297

>  <r_lp_Energy>  (1033) 
19.808406999999999

>  <r_qp_ACxDN^.5/SA>  (1033) 
0.012661

>  <r_qp_CIQPlogS>  (1033) 
-5.9299999999999997

>  <r_qp_EA(eV)>  (1033) 
0.83699999999999997

>  <r_qp_FISA>  (1033) 
76.096000000000004

>  <r_qp_FOSA>  (1033) 
314.52499999999998

>  <r_qp_IP(eV)>  (1033) 
8.0709999999999997

>  <r_qp_Jm>  (1033) 
0.015639646424629099

>  <r_qp_PISA>  (1033) 
358.67500000000001

>  <r_qp_PSA>  (1033) 
63.378999999999998

>  <r_qp_PercentHumanOralAbsorption>  (1033) 
100

>  <r_qp_QPPCaco>  (1033) 
469.00799999999998

>  <r_qp_QPPMDCK>  (1033) 
241.44300000000001

>  <r_qp_QPlogBB>  (1033) 
-0.38800000000000001

>  <r_qp_QPlogHERG>  (1033) 
-6.8129999999999997

>  <r_qp_QPlogKhsa>  (1033) 
0.86499999999999999

>  <r_qp_QPlogKp>  (1033) 
-2.7610000000000001

>  <r_qp_QPlogPC16>  (1033) 
15.199999999999999

>  <r_qp_QPlogPo/w>  (1033) 
4.9660000000000002

>  <r_qp_QPlogPoct>  (1033) 
22.917000000000002

>  <r_qp_QPlogPw>  (1033) 
11.845000000000001

>  <r_qp_QPlogS>  (1033) 
-4.6890000000000001

>  <r_qp_QPpolrz>  (1033) 
48.600000000000001

>  <r_qp_SASA>  (1033) 
749.29700000000003

>  <r_qp_SAamideO>  (1033) 
0

>  <r_qp_SAfluorine>  (1033) 
0

>  <r_qp_WPSA>  (1033) 
0

>  <r_qp_accptHB>  (1033) 
6

>  <r_qp_dip^2/V>  (1033) 
0.0015433999999999999

>  <r_qp_dipole>  (1033) 
1.492

>  <r_qp_donorHB>  (1033) 
2.5

>  <r_qp_glob>  (1033) 
0.82418840000000004

>  <r_qp_mol_MW>  (1033) 
440.58999999999997

>  <r_qp_volume>  (1033) 
1443.021

>  <r_sd_BIOSOLVEIT.INFINISEE\_FTREES\_SIMILARITY>  (1033) 
0.94299999999999995

>  <r_sd_BIOSOLVEIT.LOGP>  (1033) 
3.1475

>  <r_sd_BIOSOLVEIT.MOLECULAR\_WEIGHT>  (1033) 
441.60000000000002

>  <r_sd_BIOSOLVEIT.TPSA>  (1033) 
71.510000000000005

>  <i_epik_Tot_Q>  (1033) 
2

>  <i_epik_Tot_abs_Q>  (1033) 
2

>  <i_f3d_flags>  (1033) 
0

>  <i_i_glide_confnum>  (1033) 
3

>  <i_i_glide_lignum>  (1033) 
297

>  <i_i_glide_posenum>  (1033) 
20

>  <i_i_glide_rotatable_bonds>  (1033) 
9

>  <i_lp_mmshare_version>  (1033) 
65135

>  <i_m_ct_format>  (1033) 
2

>  <i_m_source_file_index>  (1033) 
662

>  <i_qp_#NandO>  (1033) 
6

>  <i_qp_#acid>  (1033) 
0

>  <i_qp_#amide>  (1033) 
0

>  <i_qp_#amidine>  (1033) 
0

>  <i_qp_#amine>  (1033) 
1

>  <i_qp_#in34>  (1033) 
0

>  <i_qp_#in56>  (1033) 
22

>  <i_qp_#metab>  (1033) 
6

>  <i_qp_#nonHatm>  (1033) 
33

>  <i_qp_#noncon>  (1033) 
0

>  <i_qp_#ringatoms>  (1033) 
22

>  <i_qp_#rotor>  (1033) 
10

>  <i_qp_#rtvFG>  (1033) 
0

>  <i_qp_#stars>  (1033) 
0

>  <i_qp_CNS>  (1033) 
0

>  <i_qp_HumanOralAbsorption>  (1033) 
3

>  <i_qp_RuleOfFive>  (1033) 
0

>  <i_qp_RuleOfThree>  (1033) 
0

>  <i_sd_BIOSOLVEIT.INFINISEE\_REAGENT1\_NAME>  (1033) 
21917614

>  <i_sd_BIOSOLVEIT.INFINISEE\_REAGENT2\_NAME>  (1033) 
22360182

>  <i_sd_BIOSOLVEIT.INFINISEE\_REAGENT3\_NAME>  (1033) 
21967972

>  <i_sd_BIOSOLVEIT.INFINISEE\_RESULT\_RANK>  (1033) 
767

>  <i_sd_version>  (1033) 
0

>  <b_lp_Chiralities_Consistent>  (1033) 
1

>  <b_sd_chiral_flag>  (1033) 
0

>  <canonical_id>  (1033) 
ATP-HTVS-A521B3182CFE

>  <compound_code>  (1033) 
21155

>  <title>  (1033) 
m_282030aaa____21917614____22360182____21967972

>  <variant>  (1033) 
21155-1

>  <source_file>  (1033) 
运行/运行/ATP-VSW/ATP-VSW-DOCK_HTVS_1-003_lib/ATP-VSW-DOCK_HTVS_1-003_lib.mae

>  <canonical_smiles>  (1033) 
CN(Cc1cccc(N)c1)c1nc(NCCc2ccc(C[NH+](C)C)cc2)[nH+]c2ccccc12

>  <scaffold>  (1033) 
c1ccc(CCNc2nc(NCc3ccccc3)c3ccccc3[nH+]2)cc1

>  <molecular_formula>  (1033) 
C27H34N6+2

$$$$
ATP-HTVS-A5353E166184
     RDKit          3D

 59 62  0  0  0  0  0  0  0  0999 V2000
  196.3490  179.7761  152.3193 Cl  0  0  0  0  0  0  0  0  0  0  0  0
  197.2542  180.3535  150.9590 C   0  0  0  0  0  0  0  0  0  0  0  0
  197.6926  181.7005  150.8387 C   0  0  0  0  0  0  0  0  0  0  0  0
  198.4403  182.0816  149.6987 C   0  0  0  0  0  0  0  0  0  0  0  0
  198.8857  183.3546  149.5626 F   0  0  0  0  0  0  0  0  0  0  0  0
  198.7496  181.1369  148.7006 C   0  0  0  0  0  0  0  0  0  0  0  0
  198.2962  179.8116  148.8179 C   0  0  0  0  0  0  0  0  0  0  0  0
  197.5504  179.4243  149.9443 C   0  0  0  0  0  0  0  0  0  0  0  0
  197.3633  182.7425  151.8719 C   0  0  0  0  0  0  0  0  0  0  0  0
  196.8206  183.7983  151.5448 O   0  0  0  0  0  0  0  0  0  0  0  0
  197.7302  182.4205  153.1266 N   0  0  0  0  0  0  0  0  0  0  0  0
  197.5150  183.1575  154.3257 C   0  0  0  0  0  0  0  0  0  0  0  0
  197.4398  182.4718  155.5717 C   0  0  0  0  0  0  0  0  0  0  0  0
  197.6161  181.0701  155.5763 N   0  0  0  0  0  0  0  0  0  0  0  0
  198.5530  180.4873  156.5243 C   0  0  1  0  0  0  0  0  0  0  0  0
  199.5078  179.4970  155.9089 C   0  0  0  0  0  0  0  0  0  0  0  0
  200.8595  179.8409  155.7216 C   0  0  0  0  0  0  0  0  0  0  0  0
  201.7561  178.8990  155.1865 C   0  0  0  0  0  0  0  0  0  0  0  0
  201.3030  177.6095  154.8352 C   0  0  0  0  0  0  0  0  0  0  0  0
  199.9451  177.2725  155.0185 C   0  0  0  0  0  0  0  0  0  0  0  0
  199.0499  178.2153  155.5555 C   0  0  0  0  0  0  0  0  0  0  0  0
  202.2675  176.5786  154.2791 C   0  0  1  0  0  0  0  0  0  0  0  0
  202.9777  175.8173  155.3366 N   0  0  2  0  0  0  0  0  0  0  0  0
  203.9381  174.8475  154.7608 C   0  0  2  0  0  0  0  0  0  0  0  0
  202.0863  175.1648  156.3268 C   0  0  2  0  0  0  0  0  0  0  0  0
  197.2075  183.2329  156.7621 C   0  0  0  0  0  0  0  0  0  0  0  0
  197.1519  184.6531  156.6700 C   0  0  0  0  0  0  0  0  0  0  0  0
  197.2711  185.2483  155.4650 N   0  0  0  0  0  0  0  0  0  0  0  0
  197.4305  184.5690  154.3141 C   0  0  0  0  0  0  0  0  0  0  0  0
  196.9621  185.4547  157.8158 C   0  0  0  0  0  0  0  0  0  0  0  0
  196.8119  184.8537  159.0785 C   0  0  0  0  0  0  0  0  0  0  0  0
  196.8294  183.4509  159.1860 C   0  0  0  0  0  0  0  0  0  0  0  0
  196.9991  182.6484  158.0403 C   0  0  0  0  0  0  0  0  0  0  0  0
  199.3272  181.4396  147.8401 H   0  0  0  0  0  0  0  0  0  0  0  0
  198.5216  179.0924  148.0446 H   0  0  0  0  0  0  0  0  0  0  0  0
  197.1957  178.4076  150.0304 H   0  0  0  0  0  0  0  0  0  0  0  0
  198.1246  181.5001  153.2422 H   0  0  0  0  0  0  0  0  0  0  0  0
  197.5528  180.5733  154.6975 H   0  0  0  0  0  0  0  0  0  0  0  0
  199.1387  181.2632  157.0206 H   0  0  0  0  0  0  0  0  0  0  0  0
  197.9952  179.9558  157.2953 H   0  0  0  0  0  0  0  0  0  0  0  0
  201.2126  180.8217  156.0084 H   0  0  0  0  0  0  0  0  0  0  0  0
  202.7970  179.1661  155.0687 H   0  0  0  0  0  0  0  0  0  0  0  0
  199.5837  176.2835  154.7808 H   0  0  0  0  0  0  0  0  0  0  0  0
  198.0176  177.9423  155.7295 H   0  0  0  0  0  0  0  0  0  0  0  0
  201.7239  175.8953  153.6266 H   0  0  0  0  0  0  0  0  0  0  0  0
  202.9998  177.0914  153.6535 H   0  0  0  0  0  0  0  0  0  0  0  0
  203.4222  174.0874  154.1712 H   0  0  0  0  0  0  0  0  0  0  0  0
  204.4950  174.3255  155.5400 H   0  0  0  0  0  0  0  0  0  0  0  0
  204.6599  175.3441  154.1101 H   0  0  0  0  0  0  0  0  0  0  0  0
  201.4140  174.4551  155.8415 H   0  0  0  0  0  0  0  0  0  0  0  0
  201.4854  175.8922  156.8743 H   0  0  0  0  0  0  0  0  0  0  0  0
  202.6756  174.6348  157.0745 H   0  0  0  0  0  0  0  0  0  0  0  0
  197.5075  185.1863  153.4311 H   0  0  0  0  0  0  0  0  0  0  0  0
  196.9218  186.5337  157.7365 H   0  0  0  0  0  0  0  0  0  0  0  0
  196.6667  185.4657  159.9598 H   0  0  0  0  0  0  0  0  0  0  0  0
  196.7094  182.9766  160.1506 H   0  0  0  0  0  0  0  0  0  0  0  0
  196.9485  181.5785  158.1828 H   0  0  0  0  0  0  0  0  0  0  0  0
  203.5015  176.5024  155.8684 H   0  0  0  0  0  0  0  0  0  0  0  0
  197.2101  186.2681  155.4091 H   0  0  0  0  0  0  0  0  0  0  0  0
  1  2  1  0
  2  3  1  0
  2  8  2  0
  3  4  2  0
  3  9  1  0
  4  5  1  0
  4  6  1  0
  6  7  2  0
  6 34  1  0
  7  8  1  0
  7 35  1  0
  8 36  1  0
  9 10  2  0
  9 11  1  0
 11 12  1  0
 11 37  1  0
 12 13  2  0
 12 29  1  0
 13 14  1  0
 13 26  1  0
 14 15  1  0
 14 38  1  0
 15 16  1  0
 15 39  1  1
 15 40  1  0
 16 17  1  0
 16 21  2  0
 17 18  2  0
 17 41  1  0
 18 19  1  0
 18 42  1  0
 19 20  2  0
 19 22  1  0
 20 21  1  0
 20 43  1  0
 21 44  1  0
 22 23  1  0
 22 45  1  6
 22 46  1  0
 23 24  1  0
 23 25  1  0
 23 58  1  1
 24 47  1  6
 24 48  1  0
 24 49  1  0
 25 50  1  6
 25 51  1  0
 25 52  1  0
 26 27  1  0
 26 33  2  0
 27 28  1  0
 27 30  2  0
 28 29  2  0
 28 59  1  0
 29 53  1  0
 30 31  1  0
 30 54  1  0
 31 32  2  0
 31 55  1  0
 32 33  1  0
 32 56  1  0
 33 57  1  0
M  CHG  2  23   1  28   1
M  END
>  <s_epik_cmdline>  (1034) 
J2VwaWtfcHl0aG9uJywgJy1waCcsICc3LjAwMDAwMCcsICctcGh0JywgJzIuMDAwMDAwJywgJy1tcycsICcxNicsICctdG4nLCAnOCcsICctbWEnLCAnMjAwJywgJy1pbWFlJywgJzxpbmZpbGUubWFlPicsICctb21hZScsICc8b3V0ZmlsZS5tYWU+Jw==

>  <s_epik_input>  (1034) 
W2NIXTFbY0hdW2NIXWMoRiljKGMxQ2wpQyg9TylbTkhdYyhbY0hdbmMoYzIzKVtjSF1bY0hdW2NIXVtjSF0zKWMyW05IXVtDSDJdYzRbY0hdW2NIXWMoW2NIXVtjSF00KVtDSDJdTihbQ0gzXSlbQ0gzXQ==

>  <s_i_glide_gridfile>  (1034) 
ATP-Grid

>  <s_lp_Force_Field>  (1034) 
OPLS_2005

>  <s_lp_Variant>  (1034) 
rxn502b____EMOL485774____EMOL30488121____EMOL50155899-1

>  <s_lp_label>  (1034) 
2241_sdstereoexpander_1_neutralizer_1_epik_1_stereoizer_1

>  <s_m_source_file>  (1034) 
ATP-VSW-LIGPREP-003-in.maegz

>  <s_sd_BIOSOLVEIT.INFINISEE\_QUERY\_NAME>  (1034) 
Ref-Lig

>  <s_sd_BIOSOLVEIT.INFINISEE\_QUERY\_SMILES>  (1034) 
S(c1nc2c(cc1C[NH2+]Cc3ccc(cc3)C[NH+](C)C)cccc2)Cc4ccccc4

>  <s_sd_BIOSOLVEIT.INFINISEE\_REACTION\_NAME>  (1034) 
rxn502b

>  <s_sd_BIOSOLVEIT.INFINISEE\_REAGENT1\_NAME>  (1034) 
EMOL485774

>  <s_sd_BIOSOLVEIT.INFINISEE\_REAGENT1\_SMILES>  (1034) 
Clc1c(c(F)ccc1)C(=O)O

>  <s_sd_BIOSOLVEIT.INFINISEE\_REAGENT2\_NAME>  (1034) 
EMOL30488121

>  <s_sd_BIOSOLVEIT.INFINISEE\_REAGENT2\_SMILES>  (1034) 
Brc1c(N)cnc2c1cccc2

>  <s_sd_BIOSOLVEIT.INFINISEE\_REAGENT3\_NAME>  (1034) 
EMOL50155899

>  <s_sd_BIOSOLVEIT.INFINISEE\_REAGENT3\_SMILES>  (1034) 
N(Cc1ccc(cc1)CN)(C)C

>  <s_sd_BIOSOLVEIT.INFINISEE\_SPACE>  (1034) 
eXplore_7tr_2022-12

>  <s_vsw_compound_code>  (1034) 
71683

>  <s_vsw_variant>  (1034) 
71683-1

>  <r_epik_Charging_Adjusted_Penalty>  (1034) 
0.235705393499727

>  <r_epik_Ionization_Penalty>  (1034) 
0.1211

>  <r_epik_Ionization_Penalty_Charging>  (1034) 
0.1203

>  <r_epik_Ionization_Penalty_Neutral>  (1034) 
0.00080000000000000004

>  <r_epik_State_Penalty>  (1034) 
0.1154

>  <r_i_docking_score>  (1034) 
-3.8367353083768001

>  <r_i_glide_ecoul>  (1034) 
-8.1547832489013707

>  <r_i_glide_eff_state_penalty>  (1034) 
0.1154

>  <r_i_glide_einternal>  (1034) 
2.5048573017120401

>  <r_i_glide_emodel>  (1034) 
-57.118562710794301

>  <r_i_glide_energy>  (1034) 
-43.454229354858398

>  <r_i_glide_erotb>  (1034) 
0.65287121805677995

>  <r_i_glide_esite>  (1034) 
-0.067981369179103301

>  <r_i_glide_evdw>  (1034) 
-35.299446105957003

>  <r_i_glide_gscore>  (1034) 
-3.9521353083767998

>  <r_i_glide_hbond>  (1034) 
0

>  <r_i_glide_ligand_efficiency>  (1034) 
-0.116264706314448

>  <r_i_glide_ligand_efficiency_ln>  (1034) 
-0.85327006703075503

>  <r_i_glide_ligand_efficiency_sa>  (1034) 
-0.37292303643583302

>  <r_i_glide_lipo>  (1034) 
-1.06532368066099

>  <r_i_glide_metal>  (1034) 
-0

>  <r_i_glide_rewards>  (1034) 
-0.48351168396043398

>  <r_lp_Energy>  (1034) 
42.835189

>  <r_qp_ACxDN^.5/SA>  (1034) 
0.0124925

>  <r_qp_CIQPlogS>  (1034) 
-6.2350000000000003

>  <r_qp_EA(eV)>  (1034) 
0.96199999999999997

>  <r_qp_FISA>  (1034) 
70.947000000000003

>  <r_qp_FOSA>  (1034) 
216.71100000000001

>  <r_qp_IP(eV)>  (1034) 
8.4689999999999994

>  <r_qp_Jm>  (1034) 
0.0044815690020071396

>  <r_qp_PISA>  (1034) 
380.79700000000003

>  <r_qp_PSA>  (1034) 
61.420000000000002

>  <r_qp_PercentHumanOralAbsorption>  (1034) 
100

>  <r_qp_QPPCaco>  (1034) 
524.82100000000003

>  <r_qp_QPPMDCK>  (1034) 
637.80399999999997

>  <r_qp_QPlogBB>  (1034) 
-0.01

>  <r_qp_QPlogHERG>  (1034) 
-7.0949999999999998

>  <r_qp_QPlogKhsa>  (1034) 
0.751

>  <r_qp_QPlogKp>  (1034) 
-2.8759999999999999

>  <r_qp_QPlogPC16>  (1034) 
14.617000000000001

>  <r_qp_QPlogPo/w>  (1034) 
4.75

>  <r_qp_QPlogPoct>  (1034) 
23.387

>  <r_qp_QPlogPw>  (1034) 
12.374000000000001

>  <r_qp_QPlogS>  (1034) 
-5.1379999999999999

>  <r_qp_QPpolrz>  (1034) 
48.079000000000001

>  <r_qp_SASA>  (1034) 
735.83199999999999

>  <r_qp_SAamideO>  (1034) 
0

>  <r_qp_SAfluorine>  (1034) 
37.234000000000002

>  <r_qp_WPSA>  (1034) 
67.376999999999995

>  <r_qp_accptHB>  (1034) 
6.5

>  <r_qp_dip^2/V>  (1034) 
0.055562199999999999

>  <r_qp_dipole>  (1034) 
8.7460000000000004

>  <r_qp_donorHB>  (1034) 
2

>  <r_qp_glob>  (1034) 
0.81331070000000005

>  <r_qp_mol_MW>  (1034) 
462.95299999999997

>  <r_qp_volume>  (1034) 
1376.5909999999999

>  <r_sd_BIOSOLVEIT.INFINISEE\_FTREES\_SIMILARITY>  (1034) 
0.92700000000000005

>  <r_sd_BIOSOLVEIT.LOGP>  (1034) 
4.5362

>  <r_sd_BIOSOLVEIT.MOLECULAR\_WEIGHT>  (1034) 
463.96199999999999

>  <r_sd_BIOSOLVEIT.TPSA>  (1034) 
58.460000000000001

>  <i_epik_Tot_Q>  (1034) 
2

>  <i_epik_Tot_abs_Q>  (1034) 
2

>  <i_f3d_flags>  (1034) 
0

>  <i_i_glide_confnum>  (1034) 
11

>  <i_i_glide_lignum>  (1034) 
911

>  <i_i_glide_posenum>  (1034) 
14

>  <i_i_glide_rotatable_bonds>  (1034) 
8

>  <i_lp_mmshare_version>  (1034) 
65135

>  <i_m_ct_format>  (1034) 
2

>  <i_m_source_file_index>  (1034) 
2241

>  <i_qp_#NandO>  (1034) 
5

>  <i_qp_#acid>  (1034) 
0

>  <i_qp_#amide>  (1034) 
0

>  <i_qp_#amidine>  (1034) 
0

>  <i_qp_#amine>  (1034) 
1

>  <i_qp_#in34>  (1034) 
0

>  <i_qp_#in56>  (1034) 
22

>  <i_qp_#metab>  (1034) 
6

>  <i_qp_#nonHatm>  (1034) 
33

>  <i_qp_#noncon>  (1034) 
0

>  <i_qp_#ringatoms>  (1034) 
22

>  <i_qp_#rotor>  (1034) 
7

>  <i_qp_#rtvFG>  (1034) 
0

>  <i_qp_#stars>  (1034) 
0

>  <i_qp_CNS>  (1034) 
1

>  <i_qp_HumanOralAbsorption>  (1034) 
3

>  <i_qp_RuleOfFive>  (1034) 
0

>  <i_qp_RuleOfThree>  (1034) 
0

>  <i_sd_BIOSOLVEIT.INFINISEE\_RESULT\_RANK>  (1034) 
6948

>  <i_sd_version>  (1034) 
0

>  <b_lp_Chiralities_Consistent>  (1034) 
1

>  <b_sd_chiral_flag>  (1034) 
0

>  <canonical_id>  (1034) 
ATP-HTVS-A5353E166184

>  <compound_code>  (1034) 
71683

>  <title>  (1034) 
rxn502b____EMOL485774____EMOL30488121____EMOL50155899

>  <variant>  (1034) 
71683-1

>  <source_file>  (1034) 
运行/运行/ATP-VSW/ATP-VSW-DOCK_HTVS_1-003_lib/ATP-VSW-DOCK_HTVS_1-003_lib.mae

>  <canonical_smiles>  (1034) 
C[NH+](C)Cc1ccc(CNc2c(NC(=O)c3c(F)cccc3Cl)c[nH+]c3ccccc23)cc1

>  <scaffold>  (1034) 
O=C(Nc1c[nH+]c2ccccc2c1NCc1ccccc1)c1ccccc1

>  <molecular_formula>  (1034) 
C26H26ClFN4O+2

$$$$
ATP-HTVS-A53B334F5824
     RDKit          3D

 53 56  0  0  0  0  0  0  0  0999 V2000
  198.3916  185.8231  159.7366 F   0  0  0  0  0  0  0  0  0  0  0  0
  197.1947  185.2244  159.6407 C   0  0  0  0  0  0  0  0  0  0  0  0
  195.9901  185.8738  160.0398 C   0  0  0  0  0  0  0  0  0  0  0  0
  195.9552  187.1355  160.5759 O   0  0  0  0  0  0  0  0  0  0  0  0
  196.5542  188.1539  159.7784 C   0  0  2  0  0  0  0  0  0  0  0  0
  194.7775  185.1760  159.9579 C   0  0  0  0  0  0  0  0  0  0  0  0
  194.7199  183.8813  159.4126 C   0  0  0  0  0  0  0  0  0  0  0  0
  195.9087  183.2407  159.0024 C   0  0  0  0  0  0  0  0  0  0  0  0
  197.1388  183.9116  159.1406 C   0  0  0  0  0  0  0  0  0  0  0  0
  195.8733  181.8461  158.4089 C   0  0  1  0  0  0  0  0  0  0  0  0
  195.8393  181.8379  156.9315 N   0  0  1  0  0  0  0  0  0  0  0  0
  196.8524  182.6846  156.2413 C   0  0  1  0  0  0  0  0  0  0  0  0
  197.1314  182.2304  154.7995 C   0  0  1  0  0  0  0  0  0  0  0  0
  198.0511  183.1703  154.1154 N   0  0  0  0  0  0  0  0  0  0  0  0
  199.2576  182.6307  153.8179 C   0  0  0  0  0  0  0  0  0  0  0  0
  200.2177  183.1578  153.2608 O   0  0  0  0  0  0  0  0  0  0  0  0
  199.1892  181.2173  154.2543 C   0  0  0  0  0  0  0  0  0  0  0  0
  197.9493  180.9586  154.8078 C   0  0  0  0  0  0  0  0  0  0  0  0
  197.6275  179.6843  155.3020 C   0  0  0  0  0  0  0  0  0  0  0  0
  198.6120  178.6762  155.2292 C   0  0  0  0  0  0  0  0  0  0  0  0
  199.8737  178.9349  154.6398 C   0  0  0  0  0  0  0  0  0  0  0  0
  200.1806  180.2229  154.1409 C   0  0  0  0  0  0  0  0  0  0  0  0
  197.6004  184.4949  153.6825 C   0  0  1  0  0  0  0  0  0  0  0  0
  197.5534  184.6672  152.1703 C   0  0  0  0  0  0  0  0  0  0  0  0
  198.3200  185.6814  151.5524 C   0  0  0  0  0  0  0  0  0  0  0  0
  198.2692  185.8581  150.1559 C   0  0  0  0  0  0  0  0  0  0  0  0
  197.4522  185.0255  149.3697 C   0  0  0  0  0  0  0  0  0  0  0  0
  196.6903  184.0131  149.9821 C   0  0  0  0  0  0  0  0  0  0  0  0
  196.7395  183.8326  151.3777 C   0  0  0  0  0  0  0  0  0  0  0  0
  195.9476  180.8610  156.6892 H   0  0  0  0  0  0  0  0  0  0  0  0
  196.5783  189.0903  160.3438 H   0  0  0  0  0  0  0  0  0  0  0  0
  195.9455  188.3039  158.8823 H   0  0  0  0  0  0  0  0  0  0  0  0
  197.5786  187.9463  159.4597 H   0  0  0  0  0  0  0  0  0  0  0  0
  193.8598  185.6608  160.2777 H   0  0  0  0  0  0  0  0  0  0  0  0
  193.7654  183.3695  159.3134 H   0  0  0  0  0  0  0  0  0  0  0  0
  198.0658  183.4483  158.8546 H   0  0  0  0  0  0  0  0  0  0  0  0
  196.7482  181.2877  158.7489 H   0  0  0  0  0  0  0  0  0  0  0  0
  194.9974  181.2989  158.7767 H   0  0  0  0  0  0  0  0  0  0  0  0
  196.4841  183.7094  156.2737 H   0  0  0  0  0  0  0  0  0  0  0  0
  197.8034  182.6596  156.7702 H   0  0  0  0  0  0  0  0  0  0  0  0
  196.2174  182.1144  154.2207 H   0  0  0  0  0  0  0  0  0  0  0  0
  196.6647  179.4613  155.7279 H   0  0  0  0  0  0  0  0  0  0  0  0
  198.3844  177.6956  155.6199 H   0  0  0  0  0  0  0  0  0  0  0  0
  200.6033  178.1396  154.5703 H   0  0  0  0  0  0  0  0  0  0  0  0
  201.1396  180.4320  153.6863 H   0  0  0  0  0  0  0  0  0  0  0  0
  196.6013  184.6952  154.0718 H   0  0  0  0  0  0  0  0  0  0  0  0
  198.2540  185.2507  154.1214 H   0  0  0  0  0  0  0  0  0  0  0  0
  198.9434  186.3310  152.1478 H   0  0  0  0  0  0  0  0  0  0  0  0
  198.8548  186.6350  149.6907 H   0  0  0  0  0  0  0  0  0  0  0  0
  197.4078  185.1641  148.2993 H   0  0  0  0  0  0  0  0  0  0  0  0
  196.0664  183.3810  149.3718 H   0  0  0  0  0  0  0  0  0  0  0  0
  196.1412  183.0605  151.8446 H   0  0  0  0  0  0  0  0  0  0  0  0
  194.9274  182.1545  156.5919 H   0  0  0  0  0  0  0  0  0  0  0  0
  1  2  1  0
  2  3  2  0
  2  9  1  0
  3  4  1  0
  3  6  1  0
  4  5  1  0
  5 31  1  1
  5 32  1  0
  5 33  1  0
  6  7  2  0
  6 34  1  0
  7  8  1  0
  7 35  1  0
  8  9  2  0
  8 10  1  0
  9 36  1  0
 10 11  1  0
 10 37  1  6
 10 38  1  0
 11 12  1  0
 11 30  1  6
 11 53  1  0
 12 13  1  0
 12 39  1  6
 12 40  1  0
 13 14  1  0
 13 18  1  0
 13 41  1  6
 14 15  1  0
 14 23  1  0
 15 16  2  0
 15 17  1  0
 17 18  1  0
 17 22  2  0
 18 19  2  0
 19 20  1  0
 19 42  1  0
 20 21  2  0
 20 43  1  0
 21 22  1  0
 21 44  1  0
 22 45  1  0
 23 24  1  0
 23 46  1  1
 23 47  1  0
 24 25  2  0
 24 29  1  0
 25 26  1  0
 25 48  1  0
 26 27  2  0
 26 49  1  0
 27 28  1  0
 27 50  1  0
 28 29  2  0
 28 51  1  0
 29 52  1  0
M  CHG  1  11   1
M  END
>  <s_epik_cmdline>  (1035) 
J2VwaWtfcHl0aG9uJywgJy1waCcsICc3LjAwMDAwMCcsICctcGh0JywgJzIuMDAwMDAwJywgJy1tcycsICcxNicsICctdG4nLCAnOCcsICctbWEnLCAnMjAwJywgJy1pbWFlJywgJzxpbmZpbGUubWFlPicsICctb21hZScsICc8b3V0ZmlsZS5tYWU+Jw==

>  <s_epik_input>  (1035) 
RmMxYyhPW0NIM10pW2NIXVtjSF1jKFtjSF0xKVtDSDJdW05IXVtDSDJdW0NASF0oYyhjMjMpW2NIXVtjSF1bY0hdW2NIXTMpTihDMj1PKVtDSDJdYzRbY0hdW2NIXVtjSF1bY0hdW2NIXTQ=

>  <s_i_glide_gridfile>  (1035) 
ATP-Grid

>  <s_lp_Force_Field>  (1035) 
OPLS_2005

>  <s_lp_Variant>  (1035) 
m_270004bbb____12219716____7548208-2

>  <s_lp_label>  (1035) 
1594_sdstereoexpander_2_neutralizer_1_epik_1_stereoizer_1

>  <s_m_source_file>  (1035) 
ATP-VSW-LIGPREP-001-in.maegz

>  <s_sd_BIOSOLVEIT.INFINISEE\_QUERY\_NAME>  (1035) 
Ref-Lig

>  <s_sd_BIOSOLVEIT.INFINISEE\_QUERY\_SMILES>  (1035) 
S(c1nc2c(cc1C[NH2+]Cc3ccc(cc3)C[NH+](C)C)cccc2)Cc4ccccc4

>  <s_sd_BIOSOLVEIT.INFINISEE\_REACTION\_NAME>  (1035) 
m_270004bbb

>  <s_sd_BIOSOLVEIT.INFINISEE\_REAGENT1\_SMILES>  (1035) 
[R1*]NCC1N(C(=O)c2c1cccc2)Cc3ccccc3

>  <s_sd_BIOSOLVEIT.INFINISEE\_REAGENT2\_SMILES>  (1035) 
[R1*]Cc1cc(F)c(OC)cc1

>  <s_sd_BIOSOLVEIT.INFINISEE\_SPACE>  (1035) 
REALSpace_44bn_2023-08

>  <s_vsw_compound_code>  (1035) 
50977

>  <s_vsw_variant>  (1035) 
50977-2

>  <r_epik_Charging_Adjusted_Penalty>  (1035) 
0.123515073706067

>  <r_epik_Ionization_Penalty>  (1035) 
0.061800000000000001

>  <r_epik_Ionization_Penalty_Charging>  (1035) 
0.061800000000000001

>  <r_epik_Ionization_Penalty_Neutral>  (1035) 
0

>  <r_epik_State_Penalty>  (1035) 
0.061800000000000001

>  <r_i_docking_score>  (1035) 
-5.8257379411356096

>  <r_i_glide_ecoul>  (1035) 
-12.229570388793899

>  <r_i_glide_eff_state_penalty>  (1035) 
0.061800000000000001

>  <r_i_glide_einternal>  (1035) 
8.9079256057739293

>  <r_i_glide_emodel>  (1035) 
-67.493446860443797

>  <r_i_glide_energy>  (1035) 
-46.832372665405302

>  <r_i_glide_erotb>  (1035) 
0.76409230606485301

>  <r_i_glide_esite>  (1035) 
-0.10526187077875

>  <r_i_glide_evdw>  (1035) 
-34.6028022766113

>  <r_i_glide_gscore>  (1035) 
-5.8875379411356104

>  <r_i_glide_hbond>  (1035) 
-0.30895160306796698

>  <r_i_glide_ligand_efficiency>  (1035) 
-0.200887515211573

>  <r_i_glide_ligand_efficiency_ln>  (1035) 
-1.3339462605521899

>  <r_i_glide_ligand_efficiency_sa>  (1035) 
-0.61719009236198297

>  <r_i_glide_lipo>  (1035) 
-1.8517184236931601

>  <r_i_glide_metal>  (1035) 
-0

>  <r_i_glide_rewards>  (1035) 
-0.82112267751093004

>  <r_lp_Energy>  (1035) 
50.165492

>  <r_lp_tautomer_probability>  (1035) 
1

>  <r_qp_ACxDN^.5/SA>  (1035) 
0.0083947999999999991

>  <r_qp_CIQPlogS>  (1035) 
-5.2000000000000002

>  <r_qp_EA(eV)>  (1035) 
0.373

>  <r_qp_FISA>  (1035) 
36.823999999999998

>  <r_qp_FOSA>  (1035) 
195.01499999999999

>  <r_qp_IP(eV)>  (1035) 
9.3599999999999994

>  <r_qp_Jm>  (1035) 
0.53204082109361595

>  <r_qp_PISA>  (1035) 
359.87099999999998

>  <r_qp_PSA>  (1035) 
48.076999999999998

>  <r_qp_PercentHumanOralAbsorption>  (1035) 
100

>  <r_qp_QPPCaco>  (1035) 
1105.6079999999999

>  <r_qp_QPPMDCK>  (1035) 
932.92899999999997

>  <r_qp_QPlogBB>  (1035) 
0.30099999999999999

>  <r_qp_QPlogHERG>  (1035) 
-6.0179999999999998

>  <r_qp_QPlogKhsa>  (1035) 
0.58199999999999996

>  <r_qp_QPlogKp>  (1035) 
-2.3210000000000002

>  <r_qp_QPlogPC16>  (1035) 
12.218999999999999

>  <r_qp_QPlogPo/w>  (1035) 
4.4139999999999997

>  <r_qp_QPlogPoct>  (1035) 
18.337

>  <r_qp_QPlogPw>  (1035) 
9.0259999999999998

>  <r_qp_QPlogS>  (1035) 
-3.5449999999999999

>  <r_qp_QPpolrz>  (1035) 
40.848999999999997

>  <r_qp_SASA>  (1035) 
625.38800000000003

>  <r_qp_SAamideO>  (1035) 
0

>  <r_qp_SAfluorine>  (1035) 
33.679000000000002

>  <r_qp_WPSA>  (1035) 
33.679000000000002

>  <r_qp_accptHB>  (1035) 
5.25

>  <r_qp_dip^2/V>  (1035) 
0.041831100000000003

>  <r_qp_dipole>  (1035) 
7.0880000000000001

>  <r_qp_donorHB>  (1035) 
1

>  <r_qp_glob>  (1035) 
0.87368769999999996

>  <r_qp_mol_MW>  (1035) 
390.45600000000002

>  <r_qp_volume>  (1035) 
1200.913

>  <r_sd_BIOSOLVEIT.INFINISEE\_FTREES\_SIMILARITY>  (1035) 
0.90600000000000003

>  <r_sd_BIOSOLVEIT.LOGP>  (1035) 
3.2949999999999999

>  <r_sd_BIOSOLVEIT.MOLECULAR\_WEIGHT>  (1035) 
391.464

>  <r_sd_BIOSOLVEIT.TPSA>  (1035) 
46.149999999999999

>  <i_epik_Tot_Q>  (1035) 
1

>  <i_epik_Tot_abs_Q>  (1035) 
1

>  <i_f3d_flags>  (1035) 
0

>  <i_i_glide_confnum>  (1035) 
4

>  <i_i_glide_lignum>  (1035) 
425

>  <i_i_glide_posenum>  (1035) 
16

>  <i_i_glide_rotatable_bonds>  (1035) 
7

>  <i_lp_mmshare_version>  (1035) 
65135

>  <i_m_ct_format>  (1035) 
2

>  <i_m_source_file_index>  (1035) 
1594

>  <i_qp_#NandO>  (1035) 
4

>  <i_qp_#acid>  (1035) 
0

>  <i_qp_#amide>  (1035) 
0

>  <i_qp_#amidine>  (1035) 
0

>  <i_qp_#amine>  (1035) 
1

>  <i_qp_#in34>  (1035) 
0

>  <i_qp_#in56>  (1035) 
21

>  <i_qp_#metab>  (1035) 
5

>  <i_qp_#nonHatm>  (1035) 
29

>  <i_qp_#noncon>  (1035) 
1

>  <i_qp_#ringatoms>  (1035) 
21

>  <i_qp_#rotor>  (1035) 
7

>  <i_qp_#rtvFG>  (1035) 
0

>  <i_qp_#stars>  (1035) 
0

>  <i_qp_CNS>  (1035) 
1

>  <i_qp_HumanOralAbsorption>  (1035) 
3

>  <i_qp_RuleOfFive>  (1035) 
0

>  <i_qp_RuleOfThree>  (1035) 
0

>  <i_sd_BIOSOLVEIT.INFINISEE\_REAGENT1\_NAME>  (1035) 
12219716

>  <i_sd_BIOSOLVEIT.INFINISEE\_REAGENT2\_NAME>  (1035) 
7548208

>  <i_sd_BIOSOLVEIT.INFINISEE\_RESULT\_RANK>  (1035) 
65403

>  <i_sd_version>  (1035) 
0

>  <b_lp_Chiralities_Consistent>  (1035) 
1

>  <b_sd_chiral_flag>  (1035) 
0

>  <canonical_id>  (1035) 
ATP-HTVS-A53B334F5824

>  <compound_code>  (1035) 
50977

>  <title>  (1035) 
m_270004bbb____12219716____7548208

>  <variant>  (1035) 
50977-2

>  <source_file>  (1035) 
运行/运行/ATP-VSW/ATP-VSW-DOCK_HTVS_1-001_lib/ATP-VSW-DOCK_HTVS_1-001_lib

>  <canonical_smiles>  (1035) 
COc1ccc(C[NH2+]C[C@@H]2c3ccccc3C(=O)N2Cc2ccccc2)cc1F

>  <scaffold>  (1035) 
O=C1c2ccccc2C(C[NH2+]Cc2ccccc2)N1Cc1ccccc1

>  <molecular_formula>  (1035) 
C24H24FN2O2+

$$$$
ATP-HTVS-A5A2B8D72F00
     RDKit          3D

 50 53  0  0  0  0  0  0  0  0999 V2000
  196.7215  186.6661  160.0526 Cl  0  0  0  0  0  0  0  0  0  0  0  0
  195.9724  185.1819  159.5914 C   0  0  0  0  0  0  0  0  0  0  0  0
  196.7334  184.1288  159.0542 C   0  0  0  0  0  0  0  0  0  0  0  0
  196.1099  182.9189  158.6715 C   0  0  0  0  0  0  0  0  0  0  0  0
  194.7087  182.7585  158.8392 C   0  0  0  0  0  0  0  0  0  0  0  0
  194.0547  181.5865  158.5319 O   0  0  0  0  0  0  0  0  0  0  0  0
  193.9556  183.8385  159.3255 C   0  0  0  0  0  0  0  0  0  0  0  0
  194.5836  185.0309  159.7362 C   0  0  0  0  0  0  0  0  0  0  0  0
  196.9554  181.8067  158.0963 C   0  0  1  0  0  0  0  0  0  0  0  0
  196.5034  181.4365  156.7415 N   0  0  1  0  0  0  0  0  0  0  0  0
  197.4710  180.6196  155.9902 C   0  0  1  0  0  0  0  0  0  0  0  0
  197.7984  181.2901  154.6441 C   0  0  2  0  0  0  0  0  0  0  0  0
  198.8582  180.5487  153.9195 N   0  0  0  0  0  0  0  0  0  0  0  0
  199.9774  181.2831  153.7276 C   0  0  0  0  0  0  0  0  0  0  0  0
  201.0186  180.9535  153.1600 O   0  0  0  0  0  0  0  0  0  0  0  0
  199.7014  182.6223  154.3139 C   0  0  0  0  0  0  0  0  0  0  0  0
  198.4217  182.6496  154.8314 C   0  0  0  0  0  0  0  0  0  0  0  0
  197.8724  183.8215  155.3887 C   0  0  0  0  0  0  0  0  0  0  0  0
  198.6907  184.9636  155.4517 C   0  0  0  0  0  0  0  0  0  0  0  0
  200.0090  184.9362  154.9299 C   0  0  0  0  0  0  0  0  0  0  0  0
  200.5288  183.7581  154.3380 C   0  0  0  0  0  0  0  0  0  0  0  0
  198.6312  179.2184  153.3516 C   0  0  1  0  0  0  0  0  0  0  0  0
  198.0037  179.2552  151.9659 C   0  0  0  0  0  0  0  0  0  0  0  0
  196.6905  179.7438  151.7851 C   0  0  0  0  0  0  0  0  0  0  0  0
  196.1389  179.8314  150.4948 C   0  0  0  0  0  0  0  0  0  0  0  0
  196.8667  179.3767  149.3771 C   0  0  0  0  0  0  0  0  0  0  0  0
  198.1602  178.8481  149.5557 C   0  0  0  0  0  0  0  0  0  0  0  0
  198.7339  178.7965  150.8445 C   0  0  0  0  0  0  0  0  0  0  0  0
  195.6745  180.8551  156.8242 H   0  0  0  0  0  0  0  0  0  0  0  0
  197.8042  184.2670  158.9365 H   0  0  0  0  0  0  0  0  0  0  0  0
  194.5781  180.8175  158.3170 H   0  0  0  0  0  0  0  0  0  0  0  0
  192.8834  183.7538  159.4041 H   0  0  0  0  0  0  0  0  0  0  0  0
  193.9887  185.8330  160.1438 H   0  0  0  0  0  0  0  0  0  0  0  0
  197.9904  182.1485  158.0512 H   0  0  0  0  0  0  0  0  0  0  0  0
  196.9164  180.9492  158.7646 H   0  0  0  0  0  0  0  0  0  0  0  0
  198.3729  180.4027  156.5712 H   0  0  0  0  0  0  0  0  0  0  0  0
  196.9960  179.6513  155.8159 H   0  0  0  0  0  0  0  0  0  0  0  0
  196.9038  181.4258  154.0448 H   0  0  0  0  0  0  0  0  0  0  0  0
  196.8575  183.8717  155.7575 H   0  0  0  0  0  0  0  0  0  0  0  0
  198.3015  185.8657  155.9011 H   0  0  0  0  0  0  0  0  0  0  0  0
  200.6187  185.8266  154.9813 H   0  0  0  0  0  0  0  0  0  0  0  0
  201.5259  183.7294  153.9187 H   0  0  0  0  0  0  0  0  0  0  0  0
  199.5766  178.6683  153.3275 H   0  0  0  0  0  0  0  0  0  0  0  0
  197.9776  178.6383  154.0027 H   0  0  0  0  0  0  0  0  0  0  0  0
  196.0847  180.0601  152.6213 H   0  0  0  0  0  0  0  0  0  0  0  0
  195.1489  180.2316  150.3681 H   0  0  0  0  0  0  0  0  0  0  0  0
  196.4282  179.4203  148.3894 H   0  0  0  0  0  0  0  0  0  0  0  0
  198.7192  178.4866  148.7013 H   0  0  0  0  0  0  0  0  0  0  0  0
  199.7326  178.3980  150.9672 H   0  0  0  0  0  0  0  0  0  0  0  0
  196.2645  182.2548  156.2108 H   0  0  0  0  0  0  0  0  0  0  0  0
  1  2  1  0
  2  3  2  0
  2  8  1  0
  3  4  1  0
  3 30  1  0
  4  5  2  0
  4  9  1  0
  5  6  1  0
  5  7  1  0
  6 31  1  0
  7  8  2  0
  7 32  1  0
  8 33  1  0
  9 10  1  0
  9 34  1  6
  9 35  1  0
 10 11  1  0
 10 29  1  1
 10 50  1  0
 11 12  1  0
 11 36  1  1
 11 37  1  0
 12 13  1  0
 12 17  1  0
 12 38  1  6
 13 14  1  0
 13 22  1  0
 14 15  2  0
 14 16  1  0
 16 17  1  0
 16 21  2  0
 17 18  2  0
 18 19  1  0
 18 39  1  0
 19 20  2  0
 19 40  1  0
 20 21  1  0
 20 41  1  0
 21 42  1  0
 22 23  1  0
 22 43  1  6
 22 44  1  0
 23 24  2  0
 23 28  1  0
 24 25  1  0
 24 45  1  0
 25 26  2  0
 25 46  1  0
 26 27  1  0
 26 47  1  0
 27 28  2  0
 27 48  1  0
 28 49  1  0
M  CHG  1  10   1
M  END
>  <s_epik_cmdline>  (1036) 
J2VwaWtfcHl0aG9uJywgJy1waCcsICc3LjAwMDAwMCcsICctcGh0JywgJzIuMDAwMDAwJywgJy1tcycsICcxNicsICctdG4nLCAnOCcsICctbWEnLCAnMjAwJywgJy1pbWFlJywgJzxpbmZpbGUubWFlPicsICctb21hZScsICc8b3V0ZmlsZS5tYWU+Jw==

>  <s_epik_input>  (1036) 
Q2xjMVtjSF1jKGMoW09IXSlbY0hdW2NIXTEpW0NIMl1bTkhdW0NIMl1bQ0BASF0oYyhjMjMpW2NIXVtjSF1bY0hdW2NIXTMpTihDMj1PKVtDSDJdYzRbY0hdW2NIXVtjSF1bY0hdW2NIXTQ=

>  <s_i_glide_gridfile>  (1036) 
ATP-Grid

>  <s_lp_Force_Field>  (1036) 
OPLS_2005

>  <s_lp_Variant>  (1036) 
m_270004bbb____12219716____7548602-1

>  <s_lp_label>  (1036) 
1216_sdstereoexpander_1_neutralizer_1_epik_1_stereoizer_1

>  <s_m_source_file>  (1036) 
ATP-VSW-LIGPREP-002-in.maegz

>  <s_sd_BIOSOLVEIT.INFINISEE\_QUERY\_NAME>  (1036) 
Ref-Lig

>  <s_sd_BIOSOLVEIT.INFINISEE\_QUERY\_SMILES>  (1036) 
S(c1nc2c(cc1C[NH2+]Cc3ccc(cc3)C[NH+](C)C)cccc2)Cc4ccccc4

>  <s_sd_BIOSOLVEIT.INFINISEE\_REACTION\_NAME>  (1036) 
m_270004bbb

>  <s_sd_BIOSOLVEIT.INFINISEE\_REAGENT1\_SMILES>  (1036) 
[R1*]NCC1N(C(=O)c2c1cccc2)Cc3ccccc3

>  <s_sd_BIOSOLVEIT.INFINISEE\_REAGENT2\_SMILES>  (1036) 
[R1*]Cc1c(O)ccc(Cl)c1

>  <s_sd_BIOSOLVEIT.INFINISEE\_SPACE>  (1036) 
REALSpace_44bn_2023-08

>  <s_vsw_compound_code>  (1036) 
38882

>  <s_vsw_variant>  (1036) 
38882-1

>  <r_epik_Charging_Adjusted_Penalty>  (1036) 
0.175804473765622

>  <r_epik_Ionization_Penalty>  (1036) 
0.1133

>  <r_epik_Ionization_Penalty_Charging>  (1036) 
0.061499999999999999

>  <r_epik_Ionization_Penalty_Neutral>  (1036) 
0.051799999999999999

>  <r_epik_State_Penalty>  (1036) 
0.1143

>  <r_i_docking_score>  (1036) 
-5.3545965868063004

>  <r_i_glide_ecoul>  (1036) 
-11.899168014526399

>  <r_i_glide_eff_state_penalty>  (1036) 
0.1143

>  <r_i_glide_einternal>  (1036) 
5.8769345283508301

>  <r_i_glide_emodel>  (1036) 
-63.235085450937198

>  <r_i_glide_energy>  (1036) 
-43.394870758056598

>  <r_i_glide_erotb>  (1036) 
0.75565003809435805

>  <r_i_glide_esite>  (1036) 
-0.102282605748566

>  <r_i_glide_evdw>  (1036) 
-31.495702743530298

>  <r_i_glide_gscore>  (1036) 
-5.4688965868063004

>  <r_i_glide_hbond>  (1036) 
-0.24630359732440801

>  <r_i_glide_ligand_efficiency>  (1036) 
-0.19123559238593901

>  <r_i_glide_ligand_efficiency_ln>  (1036) 
-1.2359981100222199

>  <r_i_glide_ligand_efficiency_sa>  (1036) 
-0.58070389022424496

>  <r_i_glide_lipo>  (1036) 
-1.56779335519949

>  <r_i_glide_metal>  (1036) 
-0

>  <r_i_glide_rewards>  (1036) 
-0.948506727272726

>  <r_lp_Energy>  (1036) 
43.970098999999998

>  <r_lp_tautomer_probability>  (1036) 
0.999999999997365

>  <r_qp_ACxDN^.5/SA>  (1036) 
0.0107884

>  <r_qp_CIQPlogS>  (1036) 
-5.1790000000000003

>  <r_qp_EA(eV)>  (1036) 
0.20799999999999999

>  <r_qp_FISA>  (1036) 
69.507999999999996

>  <r_qp_FOSA>  (1036) 
88.834000000000003

>  <r_qp_IP(eV)>  (1036) 
8.9629999999999992

>  <r_qp_Jm>  (1036) 
0.019036998989777301

>  <r_qp_PISA>  (1036) 
458.26400000000001

>  <r_qp_PSA>  (1036) 
61.359999999999999

>  <r_qp_PercentHumanOralAbsorption>  (1036) 
100

>  <r_qp_QPPCaco>  (1036) 
541.56799999999998

>  <r_qp_QPPMDCK>  (1036) 
695.89400000000001

>  <r_qp_QPlogBB>  (1036) 
0.0089999999999999993

>  <r_qp_QPlogHERG>  (1036) 
-7.5190000000000001

>  <r_qp_QPlogKhsa>  (1036) 
0.60699999999999998

>  <r_qp_QPlogKp>  (1036) 
-2.577

>  <r_qp_QPlogPC16>  (1036) 
14.409000000000001

>  <r_qp_QPlogPo/w>  (1036) 
4.4909999999999997

>  <r_qp_QPlogPoct>  (1036) 
20.695

>  <r_qp_QPlogPw>  (1036) 
11.547000000000001

>  <r_qp_QPlogS>  (1036) 
-4.7380000000000004

>  <r_qp_QPpolrz>  (1036) 
43.247999999999998

>  <r_qp_SASA>  (1036) 
688.202

>  <r_qp_SAamideO>  (1036) 
0

>  <r_qp_SAfluorine>  (1036) 
0

>  <r_qp_WPSA>  (1036) 
71.596000000000004

>  <r_qp_accptHB>  (1036) 
5.25

>  <r_qp_dip^2/V>  (1036) 
0.026340800000000001

>  <r_qp_dipole>  (1036) 
5.7089999999999996

>  <r_qp_donorHB>  (1036) 
2

>  <r_qp_glob>  (1036) 
0.80993610000000005

>  <r_qp_mol_MW>  (1036) 
392.88400000000001

>  <r_qp_volume>  (1036) 
1237.3779999999999

>  <r_sd_BIOSOLVEIT.INFINISEE\_FTREES\_SIMILARITY>  (1036) 
0.91100000000000003

>  <r_sd_BIOSOLVEIT.LOGP>  (1036) 
3.5063

>  <r_sd_BIOSOLVEIT.MOLECULAR\_WEIGHT>  (1036) 
393.892

>  <r_sd_BIOSOLVEIT.TPSA>  (1036) 
57.149999999999999

>  <i_epik_Tot_Q>  (1036) 
1

>  <i_epik_Tot_abs_Q>  (1036) 
1

>  <i_f3d_flags>  (1036) 
0

>  <i_i_glide_confnum>  (1036) 
6

>  <i_i_glide_lignum>  (1036) 
423

>  <i_i_glide_posenum>  (1036) 
7

>  <i_i_glide_rotatable_bonds>  (1036) 
7

>  <i_lp_mmshare_version>  (1036) 
65135

>  <i_m_ct_format>  (1036) 
2

>  <i_m_source_file_index>  (1036) 
1216

>  <i_qp_#NandO>  (1036) 
4

>  <i_qp_#acid>  (1036) 
0

>  <i_qp_#amide>  (1036) 
0

>  <i_qp_#amidine>  (1036) 
0

>  <i_qp_#amine>  (1036) 
1

>  <i_qp_#in34>  (1036) 
0

>  <i_qp_#in56>  (1036) 
21

>  <i_qp_#metab>  (1036) 
5

>  <i_qp_#nonHatm>  (1036) 
28

>  <i_qp_#noncon>  (1036) 
1

>  <i_qp_#ringatoms>  (1036) 
21

>  <i_qp_#rotor>  (1036) 
7

>  <i_qp_#rtvFG>  (1036) 
0

>  <i_qp_#stars>  (1036) 
1

>  <i_qp_CNS>  (1036) 
1

>  <i_qp_HumanOralAbsorption>  (1036) 
3

>  <i_qp_RuleOfFive>  (1036) 
0

>  <i_qp_RuleOfThree>  (1036) 
0

>  <i_sd_BIOSOLVEIT.INFINISEE\_REAGENT1\_NAME>  (1036) 
12219716

>  <i_sd_BIOSOLVEIT.INFINISEE\_REAGENT2\_NAME>  (1036) 
7548602

>  <i_sd_BIOSOLVEIT.INFINISEE\_RESULT\_RANK>  (1036) 
41269

>  <i_sd_version>  (1036) 
0

>  <b_lp_Chiralities_Consistent>  (1036) 
1

>  <b_sd_chiral_flag>  (1036) 
0

>  <canonical_id>  (1036) 
ATP-HTVS-A5A2B8D72F00

>  <compound_code>  (1036) 
38882

>  <title>  (1036) 
m_270004bbb____12219716____7548602

>  <variant>  (1036) 
38882-1

>  <source_file>  (1036) 
运行/运行/ATP-VSW/ATP-VSW-DOCK_HTVS_1-002_lib.maegz

>  <canonical_smiles>  (1036) 
O=C1c2ccccc2[C@H](C[NH2+]Cc2cc(Cl)ccc2O)N1Cc1ccccc1

>  <scaffold>  (1036) 
O=C1c2ccccc2C(C[NH2+]Cc2ccccc2)N1Cc1ccccc1

>  <molecular_formula>  (1036) 
C23H22ClN2O2+

$$$$
ATP-HTVS-A5C0EA33BE09
     RDKit          3D

 57 60  0  0  0  0  0  0  0  0999 V2000
  201.0523  179.6891  151.0916 F   0  0  0  0  0  0  0  0  0  0  0  0
  200.1767  179.6200  152.1224 C   0  0  0  0  0  0  0  0  0  0  0  0
  200.6468  179.4660  153.4398 C   0  0  0  0  0  0  0  0  0  0  0  0
  199.7425  179.3996  154.5256 C   0  0  0  0  0  0  0  0  0  0  0  0
  198.3464  179.4763  154.2752 C   0  0  0  0  0  0  0  0  0  0  0  0
  197.8870  179.6223  152.9472 C   0  0  0  0  0  0  0  0  0  0  0  0
  198.7962  179.7002  151.8765 C   0  0  0  0  0  0  0  0  0  0  0  0
  197.3157  179.3751  155.3945 C   0  0  1  0  0  0  0  0  0  0  0  0
  197.1989  180.6224  156.1735 N   0  0  1  0  0  0  0  0  0  0  0  0
  196.3142  181.6124  155.5522 C   0  0  1  0  0  0  0  0  0  0  0  0
  196.7831  183.0052  155.9373 C   0  0  0  0  0  0  0  0  0  0  0  0
  196.7812  183.5055  157.3010 C   0  0  0  0  0  0  0  0  0  0  0  0
  197.2576  184.8464  157.3015 C   0  0  0  0  0  0  0  0  0  0  0  0
  197.5483  185.1236  155.9715 N   0  0  0  0  0  0  0  0  0  0  0  0
  197.2701  184.0216  155.1499 C   0  0  0  0  0  0  0  0  0  0  0  0
  197.5057  184.1458  153.6808 C   0  0  0  0  0  0  0  0  0  0  0  0
  198.1307  185.3143  153.1532 C   0  0  0  0  0  0  0  0  0  0  0  0
  198.3712  185.4411  151.7587 C   0  0  0  0  0  0  0  0  0  0  0  0
  198.0199  184.3974  150.8623 C   0  0  0  0  0  0  0  0  0  0  0  0
  197.3963  183.2478  151.3919 C   0  0  0  0  0  0  0  0  0  0  0  0
  197.1086  183.1245  152.7575 C   0  0  0  0  0  0  0  0  0  0  0  0
  197.3617  185.6166  158.4777 C   0  0  0  0  0  0  0  0  0  0  0  0
  196.9904  185.0348  159.7054 C   0  0  0  0  0  0  0  0  0  0  0  0
  196.5249  183.7069  159.7365 C   0  0  0  0  0  0  0  0  0  0  0  0
  196.4160  182.9581  158.5525 C   0  0  0  0  0  0  0  0  0  0  0  0
  200.3071  179.2232  155.9330 C   0  0  1  0  0  0  0  0  0  0  0  0
  199.9770  177.9118  156.5542 N   0  0  2  0  0  0  0  0  0  0  0  0
  200.6221  177.7467  157.8746 C   0  0  2  0  0  0  0  0  0  0  0  0
  200.2303  176.7514  155.6634 C   0  0  2  0  0  0  0  0  0  0  0  0
  196.7748  180.3415  157.0612 H   0  0  0  0  0  0  0  0  0  0  0  0
  201.7134  179.3955  153.6016 H   0  0  0  0  0  0  0  0  0  0  0  0
  196.8283  179.6763  152.7386 H   0  0  0  0  0  0  0  0  0  0  0  0
  198.4356  179.8240  150.8655 H   0  0  0  0  0  0  0  0  0  0  0  0
  196.3451  179.0970  154.9865 H   0  0  0  0  0  0  0  0  0  0  0  0
  197.5569  178.5629  156.0742 H   0  0  0  0  0  0  0  0  0  0  0  0
  196.3807  181.3956  154.5224 H   0  0  0  0  0  0  0  0  0  0  0  0
  195.2815  181.4339  155.8794 H   0  0  0  0  0  0  0  0  0  0  0  0
  197.8998  186.0032  155.6316 H   0  0  0  0  0  0  0  0  0  0  0  0
  198.4263  186.1539  153.7820 H   0  0  0  0  0  0  0  0  0  0  0  0
  198.8378  186.3416  151.3598 H   0  0  0  0  0  0  0  0  0  0  0  0
  198.1941  184.4651  149.7935 H   0  0  0  0  0  0  0  0  0  0  0  0
  197.1024  182.4299  150.7554 H   0  0  0  0  0  0  0  0  0  0  0  0
  196.5737  182.2468  152.9681 H   0  0  0  0  0  0  0  0  0  0  0  0
  197.7285  186.6327  158.4403 H   0  0  0  0  0  0  0  0  0  0  0  0
  197.0670  185.6017  160.6133 H   0  0  0  0  0  0  0  0  0  0  0  0
  196.2535  183.2492  160.6783 H   0  0  0  0  0  0  0  0  0  0  0  0
  196.0518  181.9382  158.5978 H   0  0  0  0  0  0  0  0  0  0  0  0
  201.3909  179.3291  155.8876 H   0  0  0  0  0  0  0  0  0  0  0  0
  199.9563  180.0350  156.5716 H   0  0  0  0  0  0  0  0  0  0  0  0
  201.7099  177.7117  157.7890 H   0  0  0  0  0  0  0  0  0  0  0  0
  200.2849  176.8266  158.3533 H   0  0  0  0  0  0  0  0  0  0  0  0
  200.3544  178.5745  158.5304 H   0  0  0  0  0  0  0  0  0  0  0  0
  201.2919  176.6577  155.4214 H   0  0  0  0  0  0  0  0  0  0  0  0
  199.6626  176.8106  154.7325 H   0  0  0  0  0  0  0  0  0  0  0  0
  199.9090  175.8316  156.1471 H   0  0  0  0  0  0  0  0  0  0  0  0
  198.9839  177.9051  156.7644 H   0  0  0  0  0  0  0  0  0  0  0  0
  198.1172  181.0222  156.3288 H   0  0  0  0  0  0  0  0  0  0  0  0
  1  2  1  0
  2  3  2  0
  2  7  1  0
  3  4  1  0
  3 31  1  0
  4  5  2  0
  4 26  1  0
  5  6  1  0
  5  8  1  0
  6  7  2  0
  6 32  1  0
  7 33  1  0
  8  9  1  0
  8 34  1  6
  8 35  1  0
  9 10  1  0
  9 30  1  1
  9 57  1  0
 10 11  1  0
 10 36  1  6
 10 37  1  0
 11 12  1  0
 11 15  2  0
 12 13  1  0
 12 25  2  0
 13 14  1  0
 13 22  2  0
 14 15  1  0
 14 38  1  0
 15 16  1  0
 16 17  2  0
 16 21  1  0
 17 18  1  0
 17 39  1  0
 18 19  2  0
 18 40  1  0
 19 20  1  0
 19 41  1  0
 20 21  2  0
 20 42  1  0
 21 43  1  0
 22 23  1  0
 22 44  1  0
 23 24  2  0
 23 45  1  0
 24 25  1  0
 24 46  1  0
 25 47  1  0
 26 27  1  0
 26 48  1  6
 26 49  1  0
 27 28  1  0
 27 29  1  0
 27 56  1  1
 28 50  1  6
 28 51  1  0
 28 52  1  0
 29 53  1  6
 29 54  1  0
 29 55  1  0
M  CHG  2   9   1  27   1
M  END
>  <s_epik_cmdline>  (1037) 
J2VwaWtfcHl0aG9uJywgJy1waCcsICc3LjAwMDAwMCcsICctcGh0JywgJzIuMDAwMDAwJywgJy1tcycsICcxNicsICctdG4nLCAnOCcsICctbWEnLCAnMjAwJywgJy1pbWFlJywgJzxpbmZpbGUubWFlPicsICctb21hZScsICc8b3V0ZmlsZS5tYWU+Jw==

>  <s_epik_input>  (1037) 
RmMxW2NIXWMoW0NIMl1OKFtDSDNdKVtDSDNdKWMoW2NIXVtjSF0xKVtDSDJdW05IXVtDSDJdYzJjKFtuSF1jKGMyMylbY0hdW2NIXVtjSF1bY0hdMyktYzRbY0hdW2NIXVtjSF1bY0hdW2NIXTQ=

>  <s_i_glide_gridfile>  (1037) 
ATP-Grid

>  <s_lp_Force_Field>  (1037) 
OPLS_2005

>  <s_lp_Variant>  (1037) 
m_270004bbb____24792668____24720908-1

>  <s_lp_label>  (1037) 
1897_sdstereoexpander_1_neutralizer_1_epik_1_stereoizer_1

>  <s_m_source_file>  (1037) 
ATP-VSW-LIGPREP-003-in.maegz

>  <s_sd_BIOSOLVEIT.INFINISEE\_QUERY\_NAME>  (1037) 
Ref-Lig

>  <s_sd_BIOSOLVEIT.INFINISEE\_QUERY\_SMILES>  (1037) 
S(c1nc2c(cc1C[NH2+]Cc3ccc(cc3)C[NH+](C)C)cccc2)Cc4ccccc4

>  <s_sd_BIOSOLVEIT.INFINISEE\_REACTION\_NAME>  (1037) 
m_270004bbb

>  <s_sd_BIOSOLVEIT.INFINISEE\_REAGENT1\_SMILES>  (1037) 
[R1*]NCc1c(cc(F)cc1)CN(C)C

>  <s_sd_BIOSOLVEIT.INFINISEE\_REAGENT2\_SMILES>  (1037) 
[R1*]CC=1c2c(NC1c3ccccc3)cccc2

>  <s_sd_BIOSOLVEIT.INFINISEE\_SPACE>  (1037) 
REALSpace_44bn_2023-08

>  <s_vsw_compound_code>  (1037) 
60675

>  <s_vsw_variant>  (1037) 
60675-1

>  <r_epik_Charging_Adjusted_Penalty>  (1037) 
0.39555009598371998

>  <r_epik_Ionization_Penalty>  (1037) 
0.19969999999999999

>  <r_epik_Ionization_Penalty_Charging>  (1037) 
0.19969999999999999

>  <r_epik_Ionization_Penalty_Neutral>  (1037) 
0

>  <r_epik_State_Penalty>  (1037) 
0.19589999999999999

>  <r_i_docking_score>  (1037) 
-5.1385987597664498

>  <r_i_glide_ecoul>  (1037) 
-15.439037322998001

>  <r_i_glide_eff_state_penalty>  (1037) 
0.19589999999999999

>  <r_i_glide_einternal>  (1037) 
4.1311116218566903

>  <r_i_glide_emodel>  (1037) 
-67.254397553413

>  <r_i_glide_energy>  (1037) 
-43.857383728027301

>  <r_i_glide_erotb>  (1037) 
0.77097538451077496

>  <r_i_glide_esite>  (1037) 
-0.176217433981087

>  <r_i_glide_evdw>  (1037) 
-28.4183464050293

>  <r_i_glide_gscore>  (1037) 
-5.3344987597664497

>  <r_i_glide_hbond>  (1037) 
-0.35218688912983098

>  <r_i_glide_ligand_efficiency>  (1037) 
-0.17719306068160201

>  <r_i_glide_ligand_efficiency_ln>  (1037) 
-1.1766088123648699

>  <r_i_glide_ligand_efficiency_sa>  (1037) 
-0.54439322111581401

>  <r_i_glide_lipo>  (1037) 
-0.86194455928332203

>  <r_i_glide_metal>  (1037) 
-0

>  <r_i_glide_rewards>  (1037) 
-0.97835234318181696

>  <r_lp_Energy>  (1037) 
20.762696999999999

>  <r_qp_ACxDN^.5/SA>  (1037) 
0.0074183000000000001

>  <r_qp_CIQPlogS>  (1037) 
-4.742

>  <r_qp_EA(eV)>  (1037) 
0.36799999999999999

>  <r_qp_FISA>  (1037) 
17.875

>  <r_qp_FOSA>  (1037) 
182.685

>  <r_qp_IP(eV)>  (1037) 
8.2799999999999994

>  <r_qp_Jm>  (1037) 
0.0081802047535675798

>  <r_qp_PISA>  (1037) 
419.70100000000002

>  <r_qp_PSA>  (1037) 
27.283999999999999

>  <r_qp_PercentHumanOralAbsorption>  (1037) 
100

>  <r_qp_QPPCaco>  (1037) 
417.05599999999998

>  <r_qp_QPPMDCK>  (1037) 
425.48899999999998

>  <r_qp_QPlogBB>  (1037) 
0.94599999999999995

>  <r_qp_QPlogHERG>  (1037) 
-7.548

>  <r_qp_QPlogKhsa>  (1037) 
1.012

>  <r_qp_QPlogKp>  (1037) 
-3.9199999999999999

>  <r_qp_QPlogPC16>  (1037) 
13.068

>  <r_qp_QPlogPo/w>  (1037) 
4.9770000000000003

>  <r_qp_QPlogPoct>  (1037) 
19.667000000000002

>  <r_qp_QPlogPw>  (1037) 
9.3710000000000004

>  <r_qp_QPlogS>  (1037) 
-3.7559999999999998

>  <r_qp_QPpolrz>  (1037) 
44.079999999999998

>  <r_qp_SASA>  (1037) 
667.23199999999997

>  <r_qp_SAamideO>  (1037) 
0

>  <r_qp_SAfluorine>  (1037) 
46.969999999999999

>  <r_qp_WPSA>  (1037) 
46.969999999999999

>  <r_qp_accptHB>  (1037) 
3.5

>  <r_qp_dip^2/V>  (1037) 
0.018911600000000001

>  <r_qp_dipole>  (1037) 
4.8650000000000002

>  <r_qp_donorHB>  (1037) 
2

>  <r_qp_glob>  (1037) 
0.8416593

>  <r_qp_mol_MW>  (1037) 
387.49900000000002

>  <r_qp_volume>  (1037) 
1251.3299999999999

>  <r_sd_BIOSOLVEIT.INFINISEE\_FTREES\_SIMILARITY>  (1037) 
0.90300000000000002

>  <r_sd_BIOSOLVEIT.LOGP>  (1037) 
2.8820999999999999

>  <r_sd_BIOSOLVEIT.MOLECULAR\_WEIGHT>  (1037) 
389.51499999999999

>  <r_sd_BIOSOLVEIT.TPSA>  (1037) 
36.840000000000003

>  <i_epik_Tot_Q>  (1037) 
2

>  <i_epik_Tot_abs_Q>  (1037) 
2

>  <i_f3d_flags>  (1037) 
0

>  <i_i_glide_confnum>  (1037) 
5

>  <i_i_glide_lignum>  (1037) 
713

>  <i_i_glide_posenum>  (1037) 
19

>  <i_i_glide_rotatable_bonds>  (1037) 
7

>  <i_lp_mmshare_version>  (1037) 
65135

>  <i_m_ct_format>  (1037) 
2

>  <i_m_source_file_index>  (1037) 
1897

>  <i_qp_#NandO>  (1037) 
3

>  <i_qp_#acid>  (1037) 
0

>  <i_qp_#amide>  (1037) 
0

>  <i_qp_#amidine>  (1037) 
0

>  <i_qp_#amine>  (1037) 
2

>  <i_qp_#in34>  (1037) 
0

>  <i_qp_#in56>  (1037) 
21

>  <i_qp_#metab>  (1037) 
5

>  <i_qp_#nonHatm>  (1037) 
29

>  <i_qp_#noncon>  (1037) 
0

>  <i_qp_#ringatoms>  (1037) 
21

>  <i_qp_#rotor>  (1037) 
6

>  <i_qp_#rtvFG>  (1037) 
0

>  <i_qp_#stars>  (1037) 
0

>  <i_qp_CNS>  (1037) 
2

>  <i_qp_HumanOralAbsorption>  (1037) 
3

>  <i_qp_RuleOfFive>  (1037) 
0

>  <i_qp_RuleOfThree>  (1037) 
0

>  <i_sd_BIOSOLVEIT.INFINISEE\_REAGENT1\_NAME>  (1037) 
24792668

>  <i_sd_BIOSOLVEIT.INFINISEE\_REAGENT2\_NAME>  (1037) 
24720908

>  <i_sd_BIOSOLVEIT.INFINISEE\_RESULT\_RANK>  (1037) 
84148

>  <i_sd_version>  (1037) 
0

>  <b_lp_Chiralities_Consistent>  (1037) 
1

>  <b_sd_chiral_flag>  (1037) 
0

>  <canonical_id>  (1037) 
ATP-HTVS-A5C0EA33BE09

>  <compound_code>  (1037) 
60675

>  <title>  (1037) 
m_270004bbb____24792668____24720908

>  <variant>  (1037) 
60675-1

>  <source_file>  (1037) 
运行/运行/ATP-VSW/ATP-VSW-DOCK_HTVS_1-003_lib/ATP-VSW-DOCK_HTVS_1-003_lib.mae

>  <canonical_smiles>  (1037) 
C[NH+](C)Cc1cc(F)ccc1C[NH2+]Cc1c(-c2ccccc2)[nH]c2ccccc12

>  <scaffold>  (1037) 
c1ccc(C[NH2+]Cc2c(-c3ccccc3)[nH]c3ccccc23)cc1

>  <molecular_formula>  (1037) 
C25H28FN3+2

$$$$
ATP-HTVS-A6599D500180
     RDKit          3D

 48 51  0  0  0  0  0  0  0  0999 V2000
  199.4153  183.4453  158.8501 Br  0  0  0  0  0  0  0  0  0  0  0  0
  197.6210  184.0496  159.1073 C   0  0  0  0  0  0  0  0  0  0  0  0
  196.4941  183.2839  158.7064 C   0  0  0  0  0  0  0  0  0  0  0  0
  195.1961  183.7977  158.9834 C   0  0  0  0  0  0  0  0  0  0  0  0
  193.7603  182.9359  158.5354 Cl  0  0  0  0  0  0  0  0  0  0  0  0
  195.0362  185.0326  159.6347 C   0  0  0  0  0  0  0  0  0  0  0  0
  196.1572  185.7873  160.0066 C   0  0  0  0  0  0  0  0  0  0  0  0
  197.4439  185.2973  159.7320 C   0  0  0  0  0  0  0  0  0  0  0  0
  196.6608  181.9414  157.9965 C   0  0  1  0  0  0  0  0  0  0  0  0
  197.4815  182.0474  156.7996 N   0  0  0  0  0  0  0  0  0  0  0  0
  196.9654  181.2444  155.6997 C   0  0  1  0  0  0  0  0  0  0  0  0
  197.9566  181.3128  154.5105 C   0  0  2  0  0  0  0  0  0  0  0  0
  197.3652  180.7632  153.2687 N   0  0  0  0  0  0  0  0  0  0  0  0
  197.9723  179.6379  152.8415 C   0  0  0  0  0  0  0  0  0  0  0  0
  197.6752  178.9332  151.8760 O   0  0  0  0  0  0  0  0  0  0  0  0
  199.1441  179.4355  153.7263 C   0  0  0  0  0  0  0  0  0  0  0  0
  199.1535  180.4025  154.7195 C   0  0  0  0  0  0  0  0  0  0  0  0
  200.1463  180.4119  155.7197 C   0  0  0  0  0  0  0  0  0  0  0  0
  201.1373  179.4002  155.6734 C   0  0  0  0  0  0  0  0  0  0  0  0
  201.1444  178.4340  154.6326 C   0  0  0  0  0  0  0  0  0  0  0  0
  200.1420  178.4517  153.6353 C   0  0  0  0  0  0  0  0  0  0  0  0
  196.3393  181.5133  152.5385 C   0  0  1  0  0  0  0  0  0  0  0  0
  196.8516  182.3325  151.3542 C   0  0  0  0  0  0  0  0  0  0  0  0
  196.6456  183.7343  151.3187 C   0  0  0  0  0  0  0  0  0  0  0  0
  197.1229  184.5020  150.2306 C   0  0  0  0  0  0  0  0  0  0  0  0
  197.8129  183.8710  149.1745 C   0  0  0  0  0  0  0  0  0  0  0  0
  198.0075  182.4752  149.2040 C   0  0  0  0  0  0  0  0  0  0  0  0
  197.5132  181.7036  150.2753 C   0  0  0  0  0  0  0  0  0  0  0  0
  198.3835  181.6613  157.0262 H   0  0  0  0  0  0  0  0  0  0  0  0
  194.0455  185.4084  159.8320 H   0  0  0  0  0  0  0  0  0  0  0  0
  196.0364  186.7376  160.4993 H   0  0  0  0  0  0  0  0  0  0  0  0
  198.3108  185.8698  160.0260 H   0  0  0  0  0  0  0  0  0  0  0  0
  197.1198  181.2300  158.6763 H   0  0  0  0  0  0  0  0  0  0  0  0
  195.6936  181.5141  157.7363 H   0  0  0  0  0  0  0  0  0  0  0  0
  196.8173  180.2100  156.0071 H   0  0  0  0  0  0  0  0  0  0  0  0
  195.9891  181.6495  155.4342 H   0  0  0  0  0  0  0  0  0  0  0  0
  198.2838  182.3354  154.3236 H   0  0  0  0  0  0  0  0  0  0  0  0
  200.1442  181.1444  156.5159 H   0  0  0  0  0  0  0  0  0  0  0  0
  201.8973  179.3559  156.4402 H   0  0  0  0  0  0  0  0  0  0  0  0
  201.9083  177.6684  154.6086 H   0  0  0  0  0  0  0  0  0  0  0  0
  200.1299  177.7280  152.8331 H   0  0  0  0  0  0  0  0  0  0  0  0
  195.5766  180.8243  152.1800 H   0  0  0  0  0  0  0  0  0  0  0  0
  195.8470  182.1803  153.2362 H   0  0  0  0  0  0  0  0  0  0  0  0
  196.1187  184.2284  152.1283 H   0  0  0  0  0  0  0  0  0  0  0  0
  196.9684  185.5722  150.2042 H   0  0  0  0  0  0  0  0  0  0  0  0
  198.1887  184.4502  148.3420 H   0  0  0  0  0  0  0  0  0  0  0  0
  198.5400  181.9844  148.4053 H   0  0  0  0  0  0  0  0  0  0  0  0
  197.6596  180.6224  150.2561 H   0  0  0  0  0  0  0  0  0  0  0  0
  1  2  1  0
  2  3  1  0
  2  8  2  0
  3  4  2  0
  3  9  1  0
  4  5  1  0
  4  6  1  0
  6  7  2  0
  6 30  1  0
  7  8  1  0
  7 31  1  0
  8 32  1  0
  9 10  1  0
  9 33  1  1
  9 34  1  0
 10 11  1  0
 10 29  1  0
 11 12  1  0
 11 35  1  1
 11 36  1  0
 12 13  1  0
 12 17  1  0
 12 37  1  6
 13 14  1  0
 13 22  1  0
 14 15  2  0
 14 16  1  0
 16 17  1  0
 16 21  2  0
 17 18  2  0
 18 19  1  0
 18 38  1  0
 19 20  2  0
 19 39  1  0
 20 21  1  0
 20 40  1  0
 21 41  1  0
 22 23  1  0
 22 42  1  6
 22 43  1  0
 23 24  2  0
 23 28  1  0
 24 25  1  0
 24 44  1  0
 25 26  2  0
 25 45  1  0
 26 27  1  0
 26 46  1  0
 27 28  2  0
 27 47  1  0
 28 48  1  0
M  END
>  <s_epik_cmdline>  (1038) 
J2VwaWtfcHl0aG9uJywgJy1waCcsICc3LjAwMDAwMCcsICctcGh0JywgJzIuMDAwMDAwJywgJy1tcycsICcxNicsICctdG4nLCAnOCcsICctbWEnLCAnMjAwJywgJy1pbWFlJywgJzxpbmZpbGUubWFlPicsICctb21hZScsICc8b3V0ZmlsZS5tYWU+Jw==

>  <s_epik_input>  (1038) 
W2NIXTFbY0hdW2NIXWMoQ2wpYyhjMUJyKVtDSDJdW05IXVtDSDJdW0NAQEhdKGMoYzIzKVtjSF1bY0hdW2NIXVtjSF0zKU4oQzI9TylbQ0gyXWM0W2NIXVtjSF1bY0hdW2NIXVtjSF00

>  <s_i_glide_gridfile>  (1038) 
ATP-Grid

>  <s_lp_Force_Field>  (1038) 
OPLS_2005

>  <s_lp_Variant>  (1038) 
m_207bba____12219688____13612918-3

>  <s_lp_label>  (1038) 
915_sdstereoexpander_1_neutralizer_1_epik_2_stereoizer_1

>  <s_m_source_file>  (1038) 
ATP-VSW-LIGPREP-002-in.maegz

>  <s_sd_BIOSOLVEIT.INFINISEE\_QUERY\_NAME>  (1038) 
Ref-Lig

>  <s_sd_BIOSOLVEIT.INFINISEE\_QUERY\_SMILES>  (1038) 
S(c1nc2c(cc1C[NH2+]Cc3ccc(cc3)C[NH+](C)C)cccc2)Cc4ccccc4

>  <s_sd_BIOSOLVEIT.INFINISEE\_REACTION\_NAME>  (1038) 
m_207bba

>  <s_sd_BIOSOLVEIT.INFINISEE\_REAGENT1\_SMILES>  (1038) 
[R1*]NCC1N(C(=O)c2c1cccc2)Cc3ccccc3

>  <s_sd_BIOSOLVEIT.INFINISEE\_REAGENT2\_SMILES>  (1038) 
[R1*]Cc1c(Br)cccc1Cl

>  <s_sd_BIOSOLVEIT.INFINISEE\_SPACE>  (1038) 
REALSpace_44bn_2023-08

>  <s_vsw_compound_code>  (1038) 
29250

>  <s_vsw_variant>  (1038) 
29250-3

>  <r_epik_Charging_Adjusted_Penalty>  (1038) 
1.1172901660564001

>  <r_epik_Ionization_Penalty>  (1038) 
1.1173

>  <r_epik_Ionization_Penalty_Charging>  (1038) 
0

>  <r_epik_Ionization_Penalty_Neutral>  (1038) 
1.1173

>  <r_epik_State_Penalty>  (1038) 
1.1173

>  <r_i_docking_score>  (1038) 
-2.4437479062987602

>  <r_i_glide_ecoul>  (1038) 
-2.65836429595947

>  <r_i_glide_eff_state_penalty>  (1038) 
1.1173

>  <r_i_glide_einternal>  (1038) 
4.1411714553832999

>  <r_i_glide_emodel>  (1038) 
-45.534146649584997

>  <r_i_glide_energy>  (1038) 
-38.835125923156703

>  <r_i_glide_erotb>  (1038) 
0.48360148100061401

>  <r_i_glide_esite>  (1038) 
-0.00118436976777066

>  <r_i_glide_evdw>  (1038) 
-36.176761627197301

>  <r_i_glide_gscore>  (1038) 
-3.5610479062987599

>  <r_i_glide_hbond>  (1038) 
0

>  <r_i_glide_ligand_efficiency>  (1038) 
-0.087276710939241303

>  <r_i_glide_ligand_efficiency_ln>  (1038) 
-0.56408876833008204

>  <r_i_glide_ligand_efficiency_sa>  (1038) 
-0.26502349764530903

>  <r_i_glide_lipo>  (1038) 
-1.4791130331648801

>  <r_i_glide_metal>  (1038) 
-0

>  <r_i_glide_rewards>  (1038) 
-0.356759258612936

>  <r_lp_Energy>  (1038) 
47.394585999999997

>  <r_qp_ACxDN^.5/SA>  (1038) 
0.0071834000000000004

>  <r_qp_CIQPlogS>  (1038) 
-6.8470000000000004

>  <r_qp_EA(eV)>  (1038) 
0.55800000000000005

>  <r_qp_FISA>  (1038) 
37.634999999999998

>  <r_qp_FOSA>  (1038) 
86.843999999999994

>  <r_qp_IP(eV)>  (1038) 
9.1880000000000006

>  <r_qp_Jm>  (1038) 
0.121921583489981

>  <r_qp_PISA>  (1038) 
401.86500000000001

>  <r_qp_PSA>  (1038) 
39.896000000000001

>  <r_qp_PercentHumanOralAbsorption>  (1038) 
100

>  <r_qp_QPPCaco>  (1038) 
1086.2

>  <r_qp_QPPMDCK>  (1038) 
2115.489

>  <r_qp_QPlogBB>  (1038) 
0.51100000000000001

>  <r_qp_QPlogHERG>  (1038) 
-6.3440000000000003

>  <r_qp_QPlogKhsa>  (1038) 
0.73499999999999999

>  <r_qp_QPlogKp>  (1038) 
-2.2839999999999998

>  <r_qp_QPlogPC16>  (1038) 
13.317

>  <r_qp_QPlogPo/w>  (1038) 
4.9379999999999997

>  <r_qp_QPlogPoct>  (1038) 
18.225999999999999

>  <r_qp_QPlogPw>  (1038) 
8.8249999999999993

>  <r_qp_QPlogS>  (1038) 
-4.2889999999999997

>  <r_qp_QPpolrz>  (1038) 
41.375999999999998

>  <r_qp_SASA>  (1038) 
626.447

>  <r_qp_SAamideO>  (1038) 
0

>  <r_qp_SAfluorine>  (1038) 
0

>  <r_qp_WPSA>  (1038) 
100.10299999999999

>  <r_qp_accptHB>  (1038) 
4.5

>  <r_qp_dip^2/V>  (1038) 
0.020424000000000001

>  <r_qp_dipole>  (1038) 
4.9260000000000002

>  <r_qp_donorHB>  (1038) 
1

>  <r_qp_glob>  (1038) 
0.86596050000000002

>  <r_qp_mol_MW>  (1038) 
455.78100000000001

>  <r_qp_volume>  (1038) 
1188.027

>  <r_sd_BIOSOLVEIT.INFINISEE\_FTREES\_SIMILARITY>  (1038) 
0.91800000000000004

>  <r_sd_BIOSOLVEIT.LOGP>  (1038) 
4.5632000000000001

>  <r_sd_BIOSOLVEIT.MOLECULAR\_WEIGHT>  (1038) 
456.78899999999999

>  <r_sd_BIOSOLVEIT.TPSA>  (1038) 
36.920000000000002

>  <i_epik_Tot_Q>  (1038) 
0

>  <i_epik_Tot_abs_Q>  (1038) 
0

>  <i_f3d_flags>  (1038) 
0

>  <i_i_glide_confnum>  (1038) 
1

>  <i_i_glide_lignum>  (1038) 
288

>  <i_i_glide_posenum>  (1038) 
19

>  <i_i_glide_rotatable_bonds>  (1038) 
6

>  <i_lp_mmshare_version>  (1038) 
65135

>  <i_m_ct_format>  (1038) 
2

>  <i_m_source_file_index>  (1038) 
915

>  <i_qp_#NandO>  (1038) 
3

>  <i_qp_#acid>  (1038) 
0

>  <i_qp_#amide>  (1038) 
0

>  <i_qp_#amidine>  (1038) 
0

>  <i_qp_#amine>  (1038) 
1

>  <i_qp_#in34>  (1038) 
0

>  <i_qp_#in56>  (1038) 
21

>  <i_qp_#metab>  (1038) 
4

>  <i_qp_#nonHatm>  (1038) 
28

>  <i_qp_#noncon>  (1038) 
1

>  <i_qp_#ringatoms>  (1038) 
21

>  <i_qp_#rotor>  (1038) 
6

>  <i_qp_#rtvFG>  (1038) 
0

>  <i_qp_#stars>  (1038) 
0

>  <i_qp_CNS>  (1038) 
2

>  <i_qp_HumanOralAbsorption>  (1038) 
3

>  <i_qp_RuleOfFive>  (1038) 
0

>  <i_qp_RuleOfThree>  (1038) 
0

>  <i_sd_BIOSOLVEIT.INFINISEE\_REAGENT1\_NAME>  (1038) 
12219688

>  <i_sd_BIOSOLVEIT.INFINISEE\_REAGENT2\_NAME>  (1038) 
13612918

>  <i_sd_BIOSOLVEIT.INFINISEE\_RESULT\_RANK>  (1038) 
19832

>  <i_sd_version>  (1038) 
0

>  <b_lp_Chiralities_Consistent>  (1038) 
1

>  <b_sd_chiral_flag>  (1038) 
0

>  <canonical_id>  (1038) 
ATP-HTVS-A6599D500180

>  <compound_code>  (1038) 
29250

>  <title>  (1038) 
m_207bba____12219688____13612918

>  <variant>  (1038) 
29250-3

>  <source_file>  (1038) 
运行/运行/ATP-VSW/ATP-VSW-DOCK_HTVS_1-002_lib.maegz

>  <canonical_smiles>  (1038) 
O=C1c2ccccc2[C@H](CNCc2c(Cl)cccc2Br)N1Cc1ccccc1

>  <scaffold>  (1038) 
O=C1c2ccccc2C(CNCc2ccccc2)N1Cc1ccccc1

>  <molecular_formula>  (1038) 
C23H20BrClN2O

$$$$
ATP-HTVS-A67C5EBB60CA
     RDKit          3D

 52 55  0  0  0  0  0  0  0  0999 V2000
  196.1435  184.8395  160.4167 F   0  0  0  0  0  0  0  0  0  0  0  0
  196.5293  184.8664  159.1191 C   0  0  0  0  0  0  0  0  0  0  0  0
  196.7647  186.0961  158.4764 C   0  0  0  0  0  0  0  0  0  0  0  0
  197.1488  186.1247  157.1188 C   0  0  0  0  0  0  0  0  0  0  0  0
  197.2984  184.9230  156.3881 C   0  0  0  0  0  0  0  0  0  0  0  0
  197.0724  183.6898  157.0530 C   0  0  0  0  0  0  0  0  0  0  0  0
  196.6879  183.6644  158.4079 C   0  0  0  0  0  0  0  0  0  0  0  0
  197.6984  184.9674  154.9354 C   0  0  0  0  0  0  0  0  0  0  0  0
  198.3061  185.9398  154.4841 O   0  0  0  0  0  0  0  0  0  0  0  0
  197.3214  183.8991  154.2124 N   0  0  0  0  0  0  0  0  0  0  0  0
  197.5612  183.6246  152.8384 C   0  0  0  0  0  0  0  0  0  0  0  0
  197.6300  184.6083  151.9118 N   0  0  0  0  0  0  0  0  0  0  0  0
  197.8211  184.3060  150.6101 C   0  0  0  0  0  0  0  0  0  0  0  0
  197.9703  182.9643  150.1729 C   0  0  0  0  0  0  0  0  0  0  0  0
  197.9089  181.9294  151.1210 C   0  0  0  0  0  0  0  0  0  0  0  0
  197.6764  182.2580  152.4689 C   0  0  0  0  0  0  0  0  0  0  0  0
  197.5869  181.1775  153.4408 C   0  0  0  0  0  0  0  0  0  0  0  0
  197.5274  180.3118  154.2989 C   0  0  0  0  0  0  0  0  0  0  0  0
  197.5024  179.3125  155.3749 C   0  0  1  0  0  0  0  0  0  0  0  0
  198.3452  179.8241  156.4855 N   0  0  1  0  0  0  0  0  0  0  0  0
  199.8194  179.8114  156.2831 C   0  0  1  0  0  0  0  0  0  0  0  0
  200.3303  178.4169  155.9667 C   0  0  0  0  0  0  0  0  0  0  0  0
  200.7550  177.5625  157.0049 C   0  0  0  0  0  0  0  0  0  0  0  0
  201.1814  176.2557  156.7116 C   0  0  0  0  0  0  0  0  0  0  0  0
  201.1739  175.7863  155.3833 C   0  0  0  0  0  0  0  0  0  0  0  0
  200.7472  176.6353  154.3458 C   0  0  0  0  0  0  0  0  0  0  0  0
  200.3481  177.9537  154.6328 C   0  0  0  0  0  0  0  0  0  0  0  0
  198.1788  182.6646  148.8110 C   0  0  0  0  0  0  0  0  0  0  0  0
  198.2285  183.7064  147.8681 C   0  0  0  0  0  0  0  0  0  0  0  0
  198.0710  185.0382  148.2860 C   0  0  0  0  0  0  0  0  0  0  0  0
  197.8708  185.3332  149.6483 C   0  0  0  0  0  0  0  0  0  0  0  0
  198.0439  180.7584  156.7208 H   0  0  0  0  0  0  0  0  0  0  0  0
  196.6473  187.0192  159.0259 H   0  0  0  0  0  0  0  0  0  0  0  0
  197.3238  187.0795  156.6413 H   0  0  0  0  0  0  0  0  0  0  0  0
  197.1801  182.7489  156.5378 H   0  0  0  0  0  0  0  0  0  0  0  0
  196.5020  182.7202  158.8985 H   0  0  0  0  0  0  0  0  0  0  0  0
  196.8727  183.1552  154.7256 H   0  0  0  0  0  0  0  0  0  0  0  0
  198.0149  180.8980  150.8145 H   0  0  0  0  0  0  0  0  0  0  0  0
  196.4702  179.2083  155.7235 H   0  0  0  0  0  0  0  0  0  0  0  0
  197.8155  178.3290  155.0119 H   0  0  0  0  0  0  0  0  0  0  0  0
  200.1014  180.4970  155.4809 H   0  0  0  0  0  0  0  0  0  0  0  0
  200.3090  180.1929  157.1839 H   0  0  0  0  0  0  0  0  0  0  0  0
  200.7281  177.9004  158.0338 H   0  0  0  0  0  0  0  0  0  0  0  0
  201.4949  175.5971  157.5065 H   0  0  0  0  0  0  0  0  0  0  0  0
  201.4762  174.7723  155.1629 H   0  0  0  0  0  0  0  0  0  0  0  0
  200.7071  176.2706  153.3264 H   0  0  0  0  0  0  0  0  0  0  0  0
  200.0145  178.5895  153.8249 H   0  0  0  0  0  0  0  0  0  0  0  0
  198.3013  181.6388  148.4887 H   0  0  0  0  0  0  0  0  0  0  0  0
  198.3857  183.4779  146.8255 H   0  0  0  0  0  0  0  0  0  0  0  0
  198.1115  185.8389  147.5613 H   0  0  0  0  0  0  0  0  0  0  0  0
  197.7564  186.3562  149.9715 H   0  0  0  0  0  0  0  0  0  0  0  0
  198.1147  179.2163  157.2715 H   0  0  0  0  0  0  0  0  0  0  0  0
  1  2  1  0
  2  3  1  0
  2  7  2  0
  3  4  2  0
  3 33  1  0
  4  5  1  0
  4 34  1  0
  5  6  2  0
  5  8  1  0
  6  7  1  0
  6 35  1  0
  7 36  1  0
  8  9  2  0
  8 10  1  0
 10 11  1  0
 10 37  1  0
 11 12  2  0
 11 16  1  0
 12 13  1  0
 13 14  1  0
 13 31  2  0
 14 15  1  0
 14 28  2  0
 15 16  2  0
 15 38  1  0
 16 17  1  0
 17 18  3  0
 18 19  1  0
 19 20  1  0
 19 39  1  1
 19 40  1  0
 20 21  1  0
 20 32  1  1
 20 52  1  0
 21 22  1  0
 21 41  1  6
 21 42  1  0
 22 23  2  0
 22 27  1  0
 23 24  1  0
 23 43  1  0
 24 25  2  0
 24 44  1  0
 25 26  1  0
 25 45  1  0
 26 27  2  0
 26 46  1  0
 27 47  1  0
 28 29  1  0
 28 48  1  0
 29 30  2  0
 29 49  1  0
 30 31  1  0
 30 50  1  0
 31 51  1  0
M  CHG  1  20   1
M  END
>  <s_epik_cmdline>  (1039) 
J2VwaWtfcHl0aG9uJywgJy1waCcsICc3LjAwMDAwMCcsICctcGh0JywgJzIuMDAwMDAwJywgJy1tcycsICcxNicsICctdG4nLCAnOCcsICctbWEnLCAnMjAwJywgJy1pbWFlJywgJzxpbmZpbGUubWFlPicsICctb21hZScsICc8b3V0ZmlsZS5tYWU+Jw==

>  <s_epik_input>  (1039) 
RmMxW2NIXVtjSF1jKFtjSF1bY0hdMSlDKD1PKVtOSF1jKG4yKWMoW2NIXWMoYzIzKVtjSF1bY0hdW2NIXVtjSF0zKUMjQ1tDSDJdW05IXVtDSDJdYzRbY0hdW2NIXVtjSF1bY0hdW2NIXTQ=

>  <s_i_glide_gridfile>  (1039) 
ATP-Grid

>  <s_lp_Force_Field>  (1039) 
OPLS_2005

>  <s_lp_Variant>  (1039) 
rxn503b____EMOL480289____EMOL44466703____EMOL1197208-2

>  <s_lp_label>  (1039) 
2371_sdstereoexpander_1_neutralizer_1_epik_2_stereoizer_1

>  <s_m_source_file>  (1039) 
ATP-VSW-LIGPREP-001-in.maegz

>  <s_sd_BIOSOLVEIT.INFINISEE\_QUERY\_NAME>  (1039) 
Ref-Lig

>  <s_sd_BIOSOLVEIT.INFINISEE\_QUERY\_SMILES>  (1039) 
S(c1nc2c(cc1C[NH2+]Cc3ccc(cc3)C[NH+](C)C)cccc2)Cc4ccccc4

>  <s_sd_BIOSOLVEIT.INFINISEE\_REACTION\_NAME>  (1039) 
rxn503b

>  <s_sd_BIOSOLVEIT.INFINISEE\_REAGENT1\_NAME>  (1039) 
EMOL480289

>  <s_sd_BIOSOLVEIT.INFINISEE\_REAGENT1\_SMILES>  (1039) 
Fc1ccc(cc1)C(=O)O

>  <s_sd_BIOSOLVEIT.INFINISEE\_REAGENT2\_NAME>  (1039) 
EMOL44466703

>  <s_sd_BIOSOLVEIT.INFINISEE\_REAGENT2\_SMILES>  (1039) 
Brc1c(nc2c(c1)cccc2)N

>  <s_sd_BIOSOLVEIT.INFINISEE\_REAGENT3\_NAME>  (1039) 
EMOL1197208

>  <s_sd_BIOSOLVEIT.INFINISEE\_REAGENT3\_SMILES>  (1039) 
N(CC#C)Cc1ccccc1

>  <s_sd_BIOSOLVEIT.INFINISEE\_SPACE>  (1039) 
eXplore_7tr_2022-12

>  <s_vsw_compound_code>  (1039) 
75841

>  <s_vsw_variant>  (1039) 
75841-2

>  <r_epik_Charging_Adjusted_Penalty>  (1039) 
1.1372904760564899

>  <r_epik_Ionization_Penalty>  (1039) 
0.56869999999999998

>  <r_epik_Ionization_Penalty_Charging>  (1039) 
0.56859999999999999

>  <r_epik_Ionization_Penalty_Neutral>  (1039) 
0

>  <r_epik_State_Penalty>  (1039) 
0.56859999999999999

>  <r_i_docking_score>  (1039) 
-4.3513788169656697

>  <r_i_glide_ecoul>  (1039) 
-7.6690406799316397

>  <r_i_glide_eff_state_penalty>  (1039) 
0.56859999999999999

>  <r_i_glide_einternal>  (1039) 
6.55576515197754

>  <r_i_glide_emodel>  (1039) 
-56.759331406449803

>  <r_i_glide_energy>  (1039) 
-41.581253051757798

>  <r_i_glide_erotb>  (1039) 
0.81851405372922603

>  <r_i_glide_esite>  (1039) 
-0.12310648042172601

>  <r_i_glide_evdw>  (1039) 
-33.9122123718262

>  <r_i_glide_gscore>  (1039) 
-4.9199788169656697

>  <r_i_glide_hbond>  (1039) 
-0.20000000000000001

>  <r_i_glide_ligand_efficiency>  (1039) 
-0.14036705861179599

>  <r_i_glide_ligand_efficiency_ln>  (1039) 
-0.98136927697131804

>  <r_i_glide_ligand_efficiency_sa>  (1039) 
-0.44094636165144901

>  <r_i_glide_lipo>  (1039) 
-1.6822358408818801

>  <r_i_glide_metal>  (1039) 
-0

>  <r_i_glide_rewards>  (1039) 
-0.88718382881022895

>  <r_lp_Energy>  (1039) 
23.071750000000002

>  <r_qp_ACxDN^.5/SA>  (1039) 
0.0102007

>  <r_qp_CIQPlogS>  (1039) 
-5.7320000000000002

>  <r_qp_EA(eV)>  (1039) 
1.0620000000000001

>  <r_qp_FISA>  (1039) 
58.265999999999998

>  <r_qp_FOSA>  (1039) 
87.209999999999994

>  <r_qp_IP(eV)>  (1039) 
8.7360000000000007

>  <r_qp_Jm>  (1039) 
0.056984486249730702

>  <r_qp_PISA>  (1039) 
521.14099999999996

>  <r_qp_PSA>  (1039) 
59.106999999999999

>  <r_qp_PercentHumanOralAbsorption>  (1039) 
100

>  <r_qp_QPPCaco>  (1039) 
692.25800000000004

>  <r_qp_QPPMDCK>  (1039) 
514.23599999999999

>  <r_qp_QPlogBB>  (1039) 
0.029000000000000001

>  <r_qp_QPlogHERG>  (1039) 
-7.6379999999999999

>  <r_qp_QPlogKhsa>  (1039) 
0.76300000000000001

>  <r_qp_QPlogKp>  (1039) 
-2.1480000000000001

>  <r_qp_QPlogPC16>  (1039) 
14.448

>  <r_qp_QPlogPo/w>  (1039) 
4.8250000000000002

>  <r_qp_QPlogPoct>  (1039) 
21.245000000000001

>  <r_qp_QPlogPw>  (1039) 
11.648

>  <r_qp_QPlogS>  (1039) 
-4.7080000000000002

>  <r_qp_QPpolrz>  (1039) 
45.430999999999997

>  <r_qp_SASA>  (1039) 
693.19299999999998

>  <r_qp_SAamideO>  (1039) 
0

>  <r_qp_SAfluorine>  (1039) 
26.576000000000001

>  <r_qp_WPSA>  (1039) 
26.576000000000001

>  <r_qp_accptHB>  (1039) 
5

>  <r_qp_dip^2/V>  (1039) 
0.029012400000000001

>  <r_qp_dipole>  (1039) 
6.0869999999999997

>  <r_qp_donorHB>  (1039) 
2

>  <r_qp_glob>  (1039) 
0.82114690000000001

>  <r_qp_mol_MW>  (1039) 
409.46199999999999

>  <r_qp_volume>  (1039) 
1276.923

>  <r_sd_BIOSOLVEIT.INFINISEE\_FTREES\_SIMILARITY>  (1039) 
0.91900000000000004

>  <r_sd_BIOSOLVEIT.LOGP>  (1039) 
3.7412999999999998

>  <r_sd_BIOSOLVEIT.MOLECULAR\_WEIGHT>  (1039) 
410.47000000000003

>  <r_sd_BIOSOLVEIT.TPSA>  (1039) 
58.600000000000001

>  <i_epik_Tot_Q>  (1039) 
1

>  <i_epik_Tot_abs_Q>  (1039) 
1

>  <i_f3d_flags>  (1039) 
0

>  <i_i_glide_confnum>  (1039) 
5

>  <i_i_glide_lignum>  (1039) 
879

>  <i_i_glide_posenum>  (1039) 
7

>  <i_i_glide_rotatable_bonds>  (1039) 
8

>  <i_lp_mmshare_version>  (1039) 
65135

>  <i_m_ct_format>  (1039) 
2

>  <i_m_source_file_index>  (1039) 
2371

>  <i_qp_#NandO>  (1039) 
4

>  <i_qp_#acid>  (1039) 
0

>  <i_qp_#amide>  (1039) 
0

>  <i_qp_#amidine>  (1039) 
0

>  <i_qp_#amine>  (1039) 
1

>  <i_qp_#in34>  (1039) 
0

>  <i_qp_#in56>  (1039) 
22

>  <i_qp_#metab>  (1039) 
3

>  <i_qp_#nonHatm>  (1039) 
31

>  <i_qp_#noncon>  (1039) 
0

>  <i_qp_#ringatoms>  (1039) 
22

>  <i_qp_#rotor>  (1039) 
7

>  <i_qp_#rtvFG>  (1039) 
0

>  <i_qp_#stars>  (1039) 
1

>  <i_qp_CNS>  (1039) 
1

>  <i_qp_HumanOralAbsorption>  (1039) 
3

>  <i_qp_RuleOfFive>  (1039) 
0

>  <i_qp_RuleOfThree>  (1039) 
0

>  <i_sd_BIOSOLVEIT.INFINISEE\_RESULT\_RANK>  (1039) 
17812

>  <i_sd_version>  (1039) 
0

>  <b_lp_Chiralities_Consistent>  (1039) 
1

>  <b_sd_chiral_flag>  (1039) 
0

>  <canonical_id>  (1039) 
ATP-HTVS-A67C5EBB60CA

>  <compound_code>  (1039) 
75841

>  <title>  (1039) 
rxn503b____EMOL480289____EMOL44466703____EMOL1197208

>  <variant>  (1039) 
75841-2

>  <source_file>  (1039) 
运行/运行/ATP-VSW/ATP-VSW-DOCK_HTVS_1-001_lib/ATP-VSW-DOCK_HTVS_1-001_lib

>  <canonical_smiles>  (1039) 
O=C(Nc1nc2ccccc2cc1C#CC[NH2+]Cc1ccccc1)c1ccc(F)cc1

>  <scaffold>  (1039) 
O=C(Nc1nc2ccccc2cc1C#CC[NH2+]Cc1ccccc1)c1ccccc1

>  <molecular_formula>  (1039) 
C26H21FN3O+

$$$$
ATP-HTVS-A67DD6FB98A9
     RDKit          3D

 59 62  0  0  0  0  0  0  0  0999 V2000
  200.5084  174.2569  151.3290 O   0  0  0  0  0  0  0  0  0  0  0  0
  200.5482  175.2183  152.0955 C   0  0  0  0  0  0  0  0  0  0  0  0
  200.0980  176.4519  151.7994 N   0  0  0  0  0  0  0  0  0  0  0  0
  199.6748  176.9662  150.5458 C   0  0  0  0  0  0  0  0  0  0  0  0
  200.1810  176.4960  149.3798 N   0  0  0  0  0  0  0  0  0  0  0  0
  199.8204  177.0516  148.2065 C   0  0  0  0  0  0  0  0  0  0  0  0
  198.8802  178.1092  148.1484 C   0  0  0  0  0  0  0  0  0  0  0  0
  198.3319  178.5972  149.3455 C   0  0  0  0  0  0  0  0  0  0  0  0
  198.7564  178.0526  150.5779 C   0  0  0  0  0  0  0  0  0  0  0  0
  198.3087  178.5862  151.8042 N   0  0  0  0  0  0  0  0  0  0  0  0
  197.4157  179.7328  151.8760 C   0  0  1  0  0  0  0  0  0  0  0  0
  197.3866  180.4192  153.2277 C   0  0  0  0  0  0  0  0  0  0  0  0
  197.1729  181.8094  153.2760 C   0  0  0  0  0  0  0  0  0  0  0  0
  197.1456  182.4812  154.5116 C   0  0  0  0  0  0  0  0  0  0  0  0
  197.3175  181.7660  155.7134 C   0  0  0  0  0  0  0  0  0  0  0  0
  197.5369  180.3748  155.6670 C   0  0  0  0  0  0  0  0  0  0  0  0
  197.5679  179.7041  154.4317 C   0  0  0  0  0  0  0  0  0  0  0  0
  197.2792  182.4912  157.0444 C   0  0  1  0  0  0  0  0  0  0  0  0
  195.9083  182.9192  157.4183 N   0  0  2  0  0  0  0  0  0  0  0  0
  195.9118  184.0684  158.3519 C   0  0  2  0  0  0  0  0  0  0  0  0
  195.0593  181.8196  157.9174 C   0  0  2  0  0  0  0  0  0  0  0  0
  198.4950  178.6781  146.9187 C   0  0  0  0  0  0  0  0  0  0  0  0
  199.0500  178.1915  145.7239 C   0  0  0  0  0  0  0  0  0  0  0  0
  199.9910  177.1505  145.7642 C   0  0  0  0  0  0  0  0  0  0  0  0
  200.3751  176.5863  146.9971 C   0  0  0  0  0  0  0  0  0  0  0  0
  201.1479  175.0641  153.4659 C   0  0  0  0  0  0  0  0  0  0  0  0
  201.9132  173.9110  153.7646 C   0  0  0  0  0  0  0  0  0  0  0  0
  202.4978  173.7478  155.0357 C   0  0  0  0  0  0  0  0  0  0  0  0
  203.2363  172.6371  155.3212 O   0  0  0  0  0  0  0  0  0  0  0  0
  202.3290  174.7395  156.0202 C   0  0  0  0  0  0  0  0  0  0  0  0
  201.5515  175.8780  155.7463 C   0  0  0  0  0  0  0  0  0  0  0  0
  200.9640  176.0427  154.4786 C   0  0  0  0  0  0  0  0  0  0  0  0
  200.0682  177.1028  152.5662 H   0  0  0  0  0  0  0  0  0  0  0  0
  197.6253  179.4089  149.2890 H   0  0  0  0  0  0  0  0  0  0  0  0
  198.7018  178.2769  152.6796 H   0  0  0  0  0  0  0  0  0  0  0  0
  197.7324  180.4843  151.1535 H   0  0  0  0  0  0  0  0  0  0  0  0
  196.4010  179.4195  151.6160 H   0  0  0  0  0  0  0  0  0  0  0  0
  197.0271  182.3684  152.3620 H   0  0  0  0  0  0  0  0  0  0  0  0
  196.9692  183.5478  154.5244 H   0  0  0  0  0  0  0  0  0  0  0  0
  197.6594  179.8089  156.5779 H   0  0  0  0  0  0  0  0  0  0  0  0
  197.7258  178.6362  154.4321 H   0  0  0  0  0  0  0  0  0  0  0  0
  197.7046  181.8702  157.8347 H   0  0  0  0  0  0  0  0  0  0  0  0
  197.9326  183.3584  156.9522 H   0  0  0  0  0  0  0  0  0  0  0  0
  196.3780  183.7977  159.3021 H   0  0  0  0  0  0  0  0  0  0  0  0
  194.8944  184.4044  158.5582 H   0  0  0  0  0  0  0  0  0  0  0  0
  196.4563  184.9153  157.9342 H   0  0  0  0  0  0  0  0  0  0  0  0
  195.4875  181.3636  158.8125 H   0  0  0  0  0  0  0  0  0  0  0  0
  194.9424  181.0552  157.1486 H   0  0  0  0  0  0  0  0  0  0  0  0
  194.0582  182.1821  158.1609 H   0  0  0  0  0  0  0  0  0  0  0  0
  197.7691  179.4778  146.8831 H   0  0  0  0  0  0  0  0  0  0  0  0
  198.7449  178.5953  144.7700 H   0  0  0  0  0  0  0  0  0  0  0  0
  200.3874  176.7650  144.8368 H   0  0  0  0  0  0  0  0  0  0  0  0
  201.0860  175.7722  147.0171 H   0  0  0  0  0  0  0  0  0  0  0  0
  202.0596  173.1423  153.0177 H   0  0  0  0  0  0  0  0  0  0  0  0
  203.1655  171.9193  154.6934 H   0  0  0  0  0  0  0  0  0  0  0  0
  202.7828  174.6242  156.9943 H   0  0  0  0  0  0  0  0  0  0  0  0
  201.4095  176.6329  156.5067 H   0  0  0  0  0  0  0  0  0  0  0  0
  200.3722  176.9301  154.3152 H   0  0  0  0  0  0  0  0  0  0  0  0
  195.4377  183.2122  156.5701 H   0  0  0  0  0  0  0  0  0  0  0  0
  1  2  2  0
  2  3  1  0
  2 26  1  0
  3  4  1  0
  3 33  1  0
  4  5  2  0
  4  9  1  0
  5  6  1  0
  6  7  1  0
  6 25  2  0
  7  8  1  0
  7 22  2  0
  8  9  2  0
  8 34  1  0
  9 10  1  0
 10 11  1  0
 10 35  1  0
 11 12  1  0
 11 36  1  6
 11 37  1  0
 12 13  1  0
 12 17  2  0
 13 14  2  0
 13 38  1  0
 14 15  1  0
 14 39  1  0
 15 16  2  0
 15 18  1  0
 16 17  1  0
 16 40  1  0
 17 41  1  0
 18 19  1  0
 18 42  1  1
 18 43  1  0
 19 20  1  0
 19 21  1  0
 19 59  1  6
 20 44  1  1
 20 45  1  0
 20 46  1  0
 21 47  1  1
 21 48  1  0
 21 49  1  0
 22 23  1  0
 22 50  1  0
 23 24  2  0
 23 51  1  0
 24 25  1  0
 24 52  1  0
 25 53  1  0
 26 27  1  0
 26 32  2  0
 27 28  2  0
 27 54  1  0
 28 29  1  0
 28 30  1  0
 29 55  1  0
 30 31  2  0
 30 56  1  0
 31 32  1  0
 31 57  1  0
 32 58  1  0
M  CHG  1  19   1
M  END
>  <s_epik_cmdline>  (1040) 
J2VwaWtfcHl0aG9uJywgJy1waCcsICc3LjAwMDAwMCcsICctcGh0JywgJzIuMDAwMDAwJywgJy1tcycsICcxNicsICctdG4nLCAnOCcsICctbWEnLCAnMjAwJywgJy1pbWFlJywgJzxpbmZpbGUubWFlPicsICctb21hZScsICc8b3V0ZmlsZS5tYWU+Jw==

>  <s_epik_input>  (1040) 
W2NIXTFbY0hdW2NIXWMoW09IXSlbY0hdYzFDKD1PKVtOSF1jKG4yKWMoW2NIXWMoYzIzKVtjSF1bY0hdW2NIXVtjSF0zKVtOSF1bQ0gyXWM0W2NIXVtjSF1jKFtjSF1bY0hdNClbQ0gyXU4oW0NIM10pW0NIM10=

>  <s_i_glide_gridfile>  (1040) 
ATP-Grid

>  <s_lp_Force_Field>  (1040) 
OPLS_2005

>  <s_lp_Variant>  (1040) 
rxn502b____EMOL519605____EMOL44466703____EMOL50155899-1

>  <s_lp_label>  (1040) 
2206_sdstereoexpander_1_neutralizer_1_epik_1_stereoizer_1

>  <s_m_source_file>  (1040) 
ATP-VSW-LIGPREP-002-in.maegz

>  <s_sd_BIOSOLVEIT.INFINISEE\_QUERY\_NAME>  (1040) 
Ref-Lig

>  <s_sd_BIOSOLVEIT.INFINISEE\_QUERY\_SMILES>  (1040) 
S(c1nc2c(cc1C[NH2+]Cc3ccc(cc3)C[NH+](C)C)cccc2)Cc4ccccc4

>  <s_sd_BIOSOLVEIT.INFINISEE\_REACTION\_NAME>  (1040) 
rxn502b

>  <s_sd_BIOSOLVEIT.INFINISEE\_REAGENT1\_NAME>  (1040) 
EMOL519605

>  <s_sd_BIOSOLVEIT.INFINISEE\_REAGENT1\_SMILES>  (1040) 
O=C(O)c1cc(O)ccc1

>  <s_sd_BIOSOLVEIT.INFINISEE\_REAGENT2\_NAME>  (1040) 
EMOL44466703

>  <s_sd_BIOSOLVEIT.INFINISEE\_REAGENT2\_SMILES>  (1040) 
Brc1c(nc2c(c1)cccc2)N

>  <s_sd_BIOSOLVEIT.INFINISEE\_REAGENT3\_NAME>  (1040) 
EMOL50155899

>  <s_sd_BIOSOLVEIT.INFINISEE\_REAGENT3\_SMILES>  (1040) 
N(Cc1ccc(cc1)CN)(C)C

>  <s_sd_BIOSOLVEIT.INFINISEE\_SPACE>  (1040) 
eXplore_7tr_2022-12

>  <s_vsw_compound_code>  (1040) 
70562

>  <s_vsw_variant>  (1040) 
70562-1

>  <r_epik_Charging_Adjusted_Penalty>  (1040) 
0.083396906286981098

>  <r_epik_Ionization_Penalty>  (1040) 
0.044200000000000003

>  <r_epik_Ionization_Penalty_Charging>  (1040) 
0.039199999999999999

>  <r_epik_Ionization_Penalty_Neutral>  (1040) 
0.0050000000000000001

>  <r_epik_State_Penalty>  (1040) 
0.044200000000000003

>  <r_i_docking_score>  (1040) 
-4.50992221844652

>  <r_i_glide_ecoul>  (1040) 
-10.027879714965801

>  <r_i_glide_eff_state_penalty>  (1040) 
0.044200000000000003

>  <r_i_glide_einternal>  (1040) 
4.4147806167602504

>  <r_i_glide_emodel>  (1040) 
-60.159012873754499

>  <r_i_glide_energy>  (1040) 
-44.434888839721701

>  <r_i_glide_erotb>  (1040) 
0.76045252336906599

>  <r_i_glide_esite>  (1040) 
-0.063462169527075299

>  <r_i_glide_evdw>  (1040) 
-34.407009124755902

>  <r_i_glide_gscore>  (1040) 
-4.55412221844652

>  <r_i_glide_hbond>  (1040) 
-0.29802660508148399

>  <r_i_glide_ligand_efficiency>  (1040) 
-0.140935069326454

>  <r_i_glide_ligand_efficiency_ln>  (1040) 
-1.00989452054679

>  <r_i_glide_ligand_efficiency_sa>  (1040) 
-0.44744095409914397

>  <r_i_glide_lipo>  (1040) 
-1.08293454909999

>  <r_i_glide_metal>  (1040) 
-0

>  <r_i_glide_rewards>  (1040) 
-0.64561900462437605

>  <r_lp_Energy>  (1040) 
29.620180000000001

>  <r_lp_tautomer_probability>  (1040) 
0.999999999997365

>  <r_qp_ACxDN^.5/SA>  (1040) 
0.015950200000000001

>  <r_qp_CIQPlogS>  (1040) 
-5.1429999999999998

>  <r_qp_EA(eV)>  (1040) 
0.76000000000000001

>  <r_qp_FISA>  (1040) 
116.45399999999999

>  <r_qp_FOSA>  (1040) 
223.114

>  <r_qp_IP(eV)>  (1040) 
8.3160000000000007

>  <r_qp_Jm>  (1040) 
0.0010939907504103001

>  <r_qp_PISA>  (1040) 
447.71600000000001

>  <r_qp_PSA>  (1040) 
84.623000000000005

>  <r_qp_PercentHumanOralAbsorption>  (1040) 
91.131

>  <r_qp_QPPCaco>  (1040) 
194.29599999999999

>  <r_qp_QPPMDCK>  (1040) 
93.141000000000005

>  <r_qp_QPlogBB>  (1040) 
-0.82099999999999995

>  <r_qp_QPlogHERG>  (1040) 
-8.0719999999999992

>  <r_qp_QPlogKhsa>  (1040) 
0.57199999999999995

>  <r_qp_QPlogKp>  (1040) 
-3.383

>  <r_qp_QPlogPC16>  (1040) 
16.157

>  <r_qp_QPlogPo/w>  (1040) 
3.9670000000000001

>  <r_qp_QPlogPoct>  (1040) 
25.148

>  <r_qp_QPlogPw>  (1040) 
15.222

>  <r_qp_QPlogS>  (1040) 
-5.2080000000000002

>  <r_qp_QPpolrz>  (1040) 
49.439999999999998

>  <r_qp_SASA>  (1040) 
787.28399999999999

>  <r_qp_SAamideO>  (1040) 
0

>  <r_qp_SAfluorine>  (1040) 
0

>  <r_qp_WPSA>  (1040) 
0

>  <r_qp_accptHB>  (1040) 
7.25

>  <r_qp_dip^2/V>  (1040) 
0.029390599999999999

>  <r_qp_dipole>  (1040) 
6.4390000000000001

>  <r_qp_donorHB>  (1040) 
3

>  <r_qp_glob>  (1040) 
0.77265539999999999

>  <r_qp_mol_MW>  (1040) 
426.517

>  <r_qp_volume>  (1040) 
1410.6800000000001

>  <r_sd_BIOSOLVEIT.INFINISEE\_FTREES\_SIMILARITY>  (1040) 
0.93100000000000005

>  <r_sd_BIOSOLVEIT.LOGP>  (1040) 
3.4493

>  <r_sd_BIOSOLVEIT.MOLECULAR\_WEIGHT>  (1040) 
427.52499999999998

>  <r_sd_BIOSOLVEIT.TPSA>  (1040) 
78.689999999999998

>  <i_epik_Tot_Q>  (1040) 
1

>  <i_epik_Tot_abs_Q>  (1040) 
1

>  <i_f3d_flags>  (1040) 
0

>  <i_i_glide_confnum>  (1040) 
10

>  <i_i_glide_lignum>  (1040) 
848

>  <i_i_glide_posenum>  (1040) 
15

>  <i_i_glide_rotatable_bonds>  (1040) 
9

>  <i_lp_mmshare_version>  (1040) 
65135

>  <i_m_ct_format>  (1040) 
2

>  <i_m_source_file_index>  (1040) 
2206

>  <i_qp_#NandO>  (1040) 
6

>  <i_qp_#acid>  (1040) 
0

>  <i_qp_#amide>  (1040) 
0

>  <i_qp_#amidine>  (1040) 
0

>  <i_qp_#amine>  (1040) 
1

>  <i_qp_#in34>  (1040) 
0

>  <i_qp_#in56>  (1040) 
22

>  <i_qp_#metab>  (1040) 
6

>  <i_qp_#nonHatm>  (1040) 
32

>  <i_qp_#noncon>  (1040) 
0

>  <i_qp_#ringatoms>  (1040) 
22

>  <i_qp_#rotor>  (1040) 
8

>  <i_qp_#rtvFG>  (1040) 
0

>  <i_qp_#stars>  (1040) 
0

>  <i_qp_CNS>  (1040) 
-1

>  <i_qp_HumanOralAbsorption>  (1040) 
3

>  <i_qp_RuleOfFive>  (1040) 
0

>  <i_qp_RuleOfThree>  (1040) 
0

>  <i_sd_BIOSOLVEIT.INFINISEE\_RESULT\_RANK>  (1040) 
4185

>  <i_sd_version>  (1040) 
0

>  <b_lp_Chiralities_Consistent>  (1040) 
1

>  <b_sd_chiral_flag>  (1040) 
0

>  <canonical_id>  (1040) 
ATP-HTVS-A67DD6FB98A9

>  <compound_code>  (1040) 
70562

>  <title>  (1040) 
rxn502b____EMOL519605____EMOL44466703____EMOL50155899

>  <variant>  (1040) 
70562-1

>  <source_file>  (1040) 
运行/运行/ATP-VSW/ATP-VSW-DOCK_HTVS_1-002_lib.maegz

>  <canonical_smiles>  (1040) 
C[NH+](C)Cc1ccc(CNc2cc3ccccc3nc2NC(=O)c2cccc(O)c2)cc1

>  <scaffold>  (1040) 
O=C(Nc1nc2ccccc2cc1NCc1ccccc1)c1ccccc1

>  <molecular_formula>  (1040) 
C26H27N4O2+

$$$$
ATP-HTVS-A6800539A705
     RDKit          3D

 66 69  0  0  0  0  0  0  0  0999 V2000
  194.3107  181.1563  158.7687 O   0  0  0  0  0  0  0  0  0  0  0  0
  193.9943  182.3298  158.6268 C   0  0  0  0  0  0  0  0  0  0  0  0
  192.8239  182.6870  158.1323 O   0  0  0  0  0  0  0  0  0  0  0  0
  192.0645  181.7054  157.3918 C   0  0  2  0  0  0  0  0  0  0  0  0
  194.8046  183.4715  159.1094 C   0  0  0  0  0  0  0  0  0  0  0  0
  196.2301  183.4727  159.2275 C   0  0  0  0  0  0  0  0  0  0  0  0
  196.8801  184.5938  159.8011 C   0  0  0  0  0  0  0  0  0  0  0  0
  196.1552  185.6890  160.3062 C   0  0  0  0  0  0  0  0  0  0  0  0
  194.7499  185.7058  160.1401 C   0  0  0  0  0  0  0  0  0  0  0  0
  194.1004  184.6255  159.5614 C   0  0  0  0  0  0  0  0  0  0  0  0
  197.1088  182.2796  158.8227 C   0  0  1  0  0  0  0  0  0  0  0  0
  197.6231  182.4007  157.3866 C   0  0  0  0  0  0  0  0  0  0  0  0
  198.8136  182.6527  157.1752 O   0  0  0  0  0  0  0  0  0  0  0  0
  196.7084  182.2452  156.4141 N   0  0  0  0  0  0  0  0  0  0  0  0
  196.9126  182.4394  155.0235 C   0  0  0  0  0  0  0  0  0  0  0  0
  196.7647  181.3891  154.1810 N   0  0  0  0  0  0  0  0  0  0  0  0
  196.8750  181.5844  152.8478 C   0  0  0  0  0  0  0  0  0  0  0  0
  197.1474  182.8644  152.3004 C   0  0  0  0  0  0  0  0  0  0  0  0
  197.2885  183.9547  153.1638 C   0  0  0  0  0  0  0  0  0  0  0  0
  197.1689  183.7586  154.5548 C   0  0  0  0  0  0  0  0  0  0  0  0
  197.3365  184.8199  155.4553 N   0  0  0  0  0  0  0  0  0  0  0  0
  197.1192  186.1992  155.0660 C   0  0  1  0  0  0  0  0  0  0  0  0
  197.5445  187.1657  156.1393 C   0  0  0  0  0  0  0  0  0  0  0  0
  198.5557  188.1124  155.8720 C   0  0  0  0  0  0  0  0  0  0  0  0
  199.0184  188.9662  156.8906 C   0  0  0  0  0  0  0  0  0  0  0  0
  198.4142  188.9141  158.1801 C   0  0  0  0  0  0  0  0  0  0  0  0
  197.3363  188.0280  158.4441 C   0  0  0  0  0  0  0  0  0  0  0  0
  196.9358  187.1328  157.4173 C   0  0  0  0  0  0  0  0  0  0  0  0
  198.8949  189.8226  159.3018 C   0  0  1  0  0  0  0  0  0  0  0  0
  198.2630  191.1393  159.2919 N   0  0  0  0  0  0  0  0  0  0  0  0
  198.7146  191.9094  158.1384 C   0  0  2  0  0  0  0  0  0  0  0  0
  198.6389  191.8725  160.4951 C   0  0  2  0  0  0  0  0  0  0  0  0
  197.2838  183.0439  150.9078 C   0  0  0  0  0  0  0  0  0  0  0  0
  197.1556  181.9468  150.0452 C   0  0  0  0  0  0  0  0  0  0  0  0
  196.8714  180.6743  150.5714 C   0  0  0  0  0  0  0  0  0  0  0  0
  196.7257  180.5022  151.9622 C   0  0  0  0  0  0  0  0  0  0  0  0
  191.1662  182.1721  157.0245 H   0  0  0  0  0  0  0  0  0  0  0  0
  191.7964  180.8814  158.0471 H   0  0  0  0  0  0  0  0  0  0  0  0
  192.6060  181.2743  156.5621 H   0  0  0  0  0  0  0  0  0  0  0  0
  197.9570  184.6330  159.8628 H   0  0  0  0  0  0  0  0  0  0  0  0
  196.6528  186.5211  160.7766 H   0  0  0  0  0  0  0  0  0  0  0  0
  194.1895  186.5925  160.3983 H   0  0  0  0  0  0  0  0  0  0  0  0
  193.0250  184.6413  159.4704 H   0  0  0  0  0  0  0  0  0  0  0  0
  197.9604  182.3392  159.5063 H   0  0  0  0  0  0  0  0  0  0  0  0
  196.6775  181.2998  158.9806 H   0  0  0  0  0  0  0  0  0  0  0  0
  195.7850  181.9640  156.6818 H   0  0  0  0  0  0  0  0  0  0  0  0
  197.4877  184.9283  152.7367 H   0  0  0  0  0  0  0  0  0  0  0  0
  197.2291  184.6163  156.4446 H   0  0  0  0  0  0  0  0  0  0  0  0
  197.6668  186.4454  154.1537 H   0  0  0  0  0  0  0  0  0  0  0  0
  196.0485  186.3237  154.8850 H   0  0  0  0  0  0  0  0  0  0  0  0
  198.9738  188.1853  154.8735 H   0  0  0  0  0  0  0  0  0  0  0  0
  199.7980  189.6718  156.6820 H   0  0  0  0  0  0  0  0  0  0  0  0
  196.8581  188.0537  159.3958 H   0  0  0  0  0  0  0  0  0  0  0  0
  196.1547  186.4067  157.6061 H   0  0  0  0  0  0  0  0  0  0  0  0
  198.6606  189.3248  160.2499 H   0  0  0  0  0  0  0  0  0  0  0  0
  199.9749  189.9055  159.2775 H   0  0  0  0  0  0  0  0  0  0  0  0
  198.2857  192.9101  158.1328 H   0  0  0  0  0  0  0  0  0  0  0  0
  198.4023  191.4377  157.2077 H   0  0  0  0  0  0  0  0  0  0  0  0
  199.8036  191.9875  158.1415 H   0  0  0  0  0  0  0  0  0  0  0  0
  198.1974  192.8716  160.4837 H   0  0  0  0  0  0  0  0  0  0  0  0
  199.7209  191.9836  160.5760 H   0  0  0  0  0  0  0  0  0  0  0  0
  198.2793  191.3626  161.3891 H   0  0  0  0  0  0  0  0  0  0  0  0
  197.5100  184.0175  150.5004 H   0  0  0  0  0  0  0  0  0  0  0  0
  197.2821  182.0824  148.9798 H   0  0  0  0  0  0  0  0  0  0  0  0
  196.7816  179.8311  149.9047 H   0  0  0  0  0  0  0  0  0  0  0  0
  196.5205  179.5181  152.3607 H   0  0  0  0  0  0  0  0  0  0  0  0
  1  2  2  0
  2  3  1  0
  2  5  1  0
  3  4  1  0
  4 37  1  6
  4 38  1  0
  4 39  1  0
  5  6  1  0
  5 10  2  0
  6  7  2  0
  6 11  1  0
  7  8  1  0
  7 40  1  0
  8  9  2  0
  8 41  1  0
  9 10  1  0
  9 42  1  0
 10 43  1  0
 11 12  1  0
 11 44  1  1
 11 45  1  0
 12 13  2  0
 12 14  1  0
 14 15  1  0
 14 46  1  0
 15 16  2  0
 15 20  1  0
 16 17  1  0
 17 18  1  0
 17 36  2  0
 18 19  1  0
 18 33  2  0
 19 20  2  0
 19 47  1  0
 20 21  1  0
 21 22  1  0
 21 48  1  0
 22 23  1  0
 22 49  1  6
 22 50  1  0
 23 24  1  0
 23 28  2  0
 24 25  2  0
 24 51  1  0
 25 26  1  0
 25 52  1  0
 26 27  2  0
 26 29  1  0
 27 28  1  0
 27 53  1  0
 28 54  1  0
 29 30  1  0
 29 55  1  1
 29 56  1  0
 30 31  1  0
 30 32  1  0
 31 57  1  1
 31 58  1  0
 31 59  1  0
 32 60  1  6
 32 61  1  0
 32 62  1  0
 33 34  1  0
 33 63  1  0
 34 35  2  0
 34 64  1  0
 35 36  1  0
 35 65  1  0
 36 66  1  0
M  END
>  <s_epik_Chemistry_Notes>  (1041) 
This compound has an ester and may undergo hydrolysis at high or low pH.

>  <s_epik_cmdline>  (1041) 
J2VwaWtfcHl0aG9uJywgJy1waCcsICc3LjAwMDAwMCcsICctcGh0JywgJzIuMDAwMDAwJywgJy1tcycsICcxNicsICctdG4nLCAnOCcsICctbWEnLCAnMjAwJywgJy1pbWFlJywgJzxpbmZpbGUubWFlPicsICctb21hZScsICc8b3V0ZmlsZS5tYWU+Jw==

>  <s_epik_input>  (1041) 
W0NIM11PQyg9TyljMWMoW2NIXVtjSF1bY0hdW2NIXTEpW0NIMl1DKD1PKVtOSF1jKG4yKWMoW2NIXWMoYzIzKVtjSF1bY0hdW2NIXVtjSF0zKVtOSF1bQ0gyXWM0W2NIXVtjSF1jKFtjSF1bY0hdNClbQ0gyXU4oW0NIM10pW0NIM10=

>  <s_i_glide_gridfile>  (1041) 
ATP-Grid

>  <s_lp_Force_Field>  (1041) 
OPLS_2005

>  <s_lp_Variant>  (1041) 
rxn502b____EMOL44750519____EMOL44466703____EMOL50155899-2

>  <s_lp_label>  (1041) 
2364_sdstereoexpander_1_neutralizer_1_epik_2_stereoizer_1

>  <s_m_source_file>  (1041) 
ATP-VSW-LIGPREP-002-in.maegz

>  <s_sd_BIOSOLVEIT.INFINISEE\_QUERY\_NAME>  (1041) 
Ref-Lig

>  <s_sd_BIOSOLVEIT.INFINISEE\_QUERY\_SMILES>  (1041) 
S(c1nc2c(cc1C[NH2+]Cc3ccc(cc3)C[NH+](C)C)cccc2)Cc4ccccc4

>  <s_sd_BIOSOLVEIT.INFINISEE\_REACTION\_NAME>  (1041) 
rxn502b

>  <s_sd_BIOSOLVEIT.INFINISEE\_REAGENT1\_NAME>  (1041) 
EMOL44750519

>  <s_sd_BIOSOLVEIT.INFINISEE\_REAGENT1\_SMILES>  (1041) 
O=C(OC)c1c(cccc1)CC(=O)O

>  <s_sd_BIOSOLVEIT.INFINISEE\_REAGENT2\_NAME>  (1041) 
EMOL44466703

>  <s_sd_BIOSOLVEIT.INFINISEE\_REAGENT2\_SMILES>  (1041) 
Brc1c(nc2c(c1)cccc2)N

>  <s_sd_BIOSOLVEIT.INFINISEE\_REAGENT3\_NAME>  (1041) 
EMOL50155899

>  <s_sd_BIOSOLVEIT.INFINISEE\_REAGENT3\_SMILES>  (1041) 
N(Cc1ccc(cc1)CN)(C)C

>  <s_sd_BIOSOLVEIT.INFINISEE\_SPACE>  (1041) 
eXplore_7tr_2022-12

>  <s_vsw_compound_code>  (1041) 
75618

>  <s_vsw_variant>  (1041) 
75618-2

>  <r_epik_Charging_Adjusted_Penalty>  (1041) 
1.63448132333604

>  <r_epik_Ionization_Penalty>  (1041) 
1.6349

>  <r_epik_Ionization_Penalty_Charging>  (1041) 
0

>  <r_epik_Ionization_Penalty_Neutral>  (1041) 
1.6349

>  <r_epik_State_Penalty>  (1041) 
1.6345000000000001

>  <r_i_docking_score>  (1041) 
-2.05448620479741

>  <r_i_glide_ecoul>  (1041) 
-3.21661305427551

>  <r_i_glide_eff_state_penalty>  (1041) 
1.6345000000000001

>  <r_i_glide_einternal>  (1041) 
9.9219264984130895

>  <r_i_glide_emodel>  (1041) 
-42.708303038707598

>  <r_i_glide_energy>  (1041) 
-38.133635759353602

>  <r_i_glide_erotb>  (1041) 
0.78432200314810596

>  <r_i_glide_esite>  (1041) 
-0.18785888369130099

>  <r_i_glide_evdw>  (1041) 
-34.917022705078097

>  <r_i_glide_gscore>  (1041) 
-3.68898620479741

>  <r_i_glide_hbond>  (1041) 
0

>  <r_i_glide_ligand_efficiency>  (1041) 
-0.057069061244372603

>  <r_i_glide_ligand_efficiency_ln>  (1041) 
-0.44823338408402802

>  <r_i_glide_ligand_efficiency_sa>  (1041) 
-0.18843788816654

>  <r_i_glide_lipo>  (1041) 
-1.93828918540444

>  <r_i_glide_metal>  (1041) 
-0

>  <r_i_glide_rewards>  (1041) 
-0.118817045454544

>  <r_lp_Energy>  (1041) 
29.175065

>  <r_qp_ACxDN^.5/SA>  (1041) 
0.0154763

>  <r_qp_CIQPlogS>  (1041) 
-5.8479999999999999

>  <r_qp_EA(eV)>  (1041) 
0.83999999999999997

>  <r_qp_FISA>  (1041) 
80.486000000000004

>  <r_qp_FOSA>  (1041) 
265.96800000000002

>  <r_qp_IP(eV)>  (1041) 
8.1050000000000004

>  <r_qp_Jm>  (1041) 
0.028399084878165799

>  <r_qp_PISA>  (1041) 
430.26900000000001

>  <r_qp_PSA>  (1041) 
87.694999999999993

>  <r_qp_PercentHumanOralAbsorption>  (1041) 
100

>  <r_qp_QPPCaco>  (1041) 
426.14299999999997

>  <r_qp_QPPMDCK>  (1041) 
217.68199999999999

>  <r_qp_QPlogBB>  (1041) 
-0.377

>  <r_qp_QPlogHERG>  (1041) 
-7.2149999999999999

>  <r_qp_QPlogKhsa>  (1041) 
0.65500000000000003

>  <r_qp_QPlogKp>  (1041) 
-2.6859999999999999

>  <r_qp_QPlogPC16>  (1041) 
16.245000000000001

>  <r_qp_QPlogPo/w>  (1041) 
4.5309999999999997

>  <r_qp_QPlogPoct>  (1041) 
26.334

>  <r_qp_QPlogPw>  (1041) 
14.379

>  <r_qp_QPlogS>  (1041) 
-4.5449999999999999

>  <r_qp_QPpolrz>  (1041) 
52.716000000000001

>  <r_qp_SASA>  (1041) 
776.72299999999996

>  <r_qp_SAamideO>  (1041) 
0

>  <r_qp_SAfluorine>  (1041) 
0

>  <r_qp_WPSA>  (1041) 
0

>  <r_qp_accptHB>  (1041) 
8.5

>  <r_qp_dip^2/V>  (1041) 
0.086703799999999998

>  <r_qp_dipole>  (1041) 
11.452

>  <r_qp_donorHB>  (1041) 
2

>  <r_qp_glob>  (1041) 
0.82049059999999996

>  <r_qp_mol_MW>  (1041) 
482.58100000000002

>  <r_qp_volume>  (1041) 
1512.7329999999999

>  <r_sd_BIOSOLVEIT.INFINISEE\_FTREES\_SIMILARITY>  (1041) 
0.92000000000000004

>  <r_sd_BIOSOLVEIT.LOGP>  (1041) 
3.4592000000000001

>  <r_sd_BIOSOLVEIT.MOLECULAR\_WEIGHT>  (1041) 
483.589

>  <r_sd_BIOSOLVEIT.TPSA>  (1041) 
84.760000000000005

>  <i_epik_Tot_Q>  (1041) 
0

>  <i_epik_Tot_abs_Q>  (1041) 
0

>  <i_f3d_flags>  (1041) 
0

>  <i_i_glide_confnum>  (1041) 
4

>  <i_i_glide_lignum>  (1041) 
967

>  <i_i_glide_posenum>  (1041) 
10

>  <i_i_glide_rotatable_bonds>  (1041) 
11

>  <i_lp_mmshare_version>  (1041) 
65135

>  <i_m_ct_format>  (1041) 
2

>  <i_m_source_file_index>  (1041) 
2364

>  <i_qp_#NandO>  (1041) 
7

>  <i_qp_#acid>  (1041) 
0

>  <i_qp_#amide>  (1041) 
0

>  <i_qp_#amidine>  (1041) 
0

>  <i_qp_#amine>  (1041) 
1

>  <i_qp_#in34>  (1041) 
0

>  <i_qp_#in56>  (1041) 
22

>  <i_qp_#metab>  (1041) 
6

>  <i_qp_#nonHatm>  (1041) 
36

>  <i_qp_#noncon>  (1041) 
0

>  <i_qp_#ringatoms>  (1041) 
22

>  <i_qp_#rotor>  (1041) 
9

>  <i_qp_#rtvFG>  (1041) 
1

>  <i_qp_#stars>  (1041) 
0

>  <i_qp_CNS>  (1041) 
1

>  <i_qp_HumanOralAbsorption>  (1041) 
3

>  <i_qp_RuleOfFive>  (1041) 
0

>  <i_qp_RuleOfThree>  (1041) 
0

>  <i_sd_BIOSOLVEIT.INFINISEE\_RESULT\_RANK>  (1041) 
17145

>  <i_sd_version>  (1041) 
0

>  <b_lp_Chiralities_Consistent>  (1041) 
1

>  <b_sd_chiral_flag>  (1041) 
0

>  <canonical_id>  (1041) 
ATP-HTVS-A6800539A705

>  <compound_code>  (1041) 
75618

>  <title>  (1041) 
rxn502b____EMOL44750519____EMOL44466703____EMOL50155899

>  <variant>  (1041) 
75618-2

>  <source_file>  (1041) 
运行/运行/ATP-VSW/ATP-VSW-DOCK_HTVS_1-002_lib.maegz

>  <canonical_smiles>  (1041) 
COC(=O)c1ccccc1CC(=O)Nc1nc2ccccc2cc1NCc1ccc(CN(C)C)cc1

>  <scaffold>  (1041) 
O=C(Cc1ccccc1)Nc1nc2ccccc2cc1NCc1ccccc1

>  <molecular_formula>  (1041) 
C29H30N4O3

$$$$
ATP-HTVS-A693217A85AE
     RDKit          3D

 53 55  0  0  0  0  0  0  0  0999 V2000
  197.8170  178.2548  145.7349 Br  0  0  0  0  0  0  0  0  0  0  0  0
  198.6745  177.4588  147.2364 C   0  0  0  0  0  0  0  0  0  0  0  0
  200.0725  177.2932  147.2616 C   0  0  0  0  0  0  0  0  0  0  0  0
  200.6936  176.7120  148.3858 C   0  0  0  0  0  0  0  0  0  0  0  0
  199.9202  176.2927  149.4894 C   0  0  0  0  0  0  0  0  0  0  0  0
  200.5376  175.7344  150.5827 O   0  0  0  0  0  0  0  0  0  0  0  0
  200.4124  176.3003  151.8351 C   0  0  0  0  0  0  0  0  0  0  0  0
  199.8338  177.5225  151.9467 N   0  0  0  0  0  0  0  0  0  0  0  0
  199.7100  178.0608  153.1741 C   0  0  0  0  0  0  0  0  0  0  0  0
  200.1649  177.4195  154.3479 C   0  0  0  0  0  0  0  0  0  0  0  0
  200.7709  176.1580  154.2316 C   0  0  0  0  0  0  0  0  0  0  0  0
  200.8965  175.5896  152.9534 C   0  0  0  0  0  0  0  0  0  0  0  0
  199.9679  178.0580  155.6988 C   0  0  1  0  0  0  0  0  0  0  0  0
  201.1288  178.9040  156.0602 N   0  0  1  0  0  0  0  0  0  0  0  0
  200.9173  179.7756  157.2309 C   0  0  1  0  0  0  0  0  0  0  0  0
  200.0659  180.9808  156.8556 C   0  0  0  0  0  0  0  0  0  0  0  0
  198.6537  180.9015  156.9036 C   0  0  0  0  0  0  0  0  0  0  0  0
  197.8613  182.0093  156.5520 C   0  0  0  0  0  0  0  0  0  0  0  0
  198.4830  183.2171  156.1641 C   0  0  0  0  0  0  0  0  0  0  0  0
  199.8878  183.3076  156.1268 C   0  0  0  0  0  0  0  0  0  0  0  0
  200.6763  182.1943  156.4699 C   0  0  0  0  0  0  0  0  0  0  0  0
  196.3452  181.9244  156.6426 C   0  0  1  0  0  0  0  0  0  0  0  0
  195.8461  181.8425  158.0418 N   0  0  1  0  0  0  0  0  0  0  0  0
  196.5056  182.7870  158.9786 C   0  0  2  0  0  0  0  0  0  0  0  0
  194.3738  181.9465  158.1238 C   0  0  2  0  0  0  0  0  0  0  0  0
  198.5166  176.4328  149.4465 C   0  0  0  0  0  0  0  0  0  0  0  0
  197.9015  177.0345  148.3330 C   0  0  0  0  0  0  0  0  0  0  0  0
  201.9183  178.3022  156.2459 H   0  0  0  0  0  0  0  0  0  0  0  0
  200.6664  177.6164  146.4181 H   0  0  0  0  0  0  0  0  0  0  0  0
  201.7682  176.5922  148.4062 H   0  0  0  0  0  0  0  0  0  0  0  0
  199.2004  179.0154  153.2206 H   0  0  0  0  0  0  0  0  0  0  0  0
  201.1232  175.6310  155.1060 H   0  0  0  0  0  0  0  0  0  0  0  0
  201.3501  174.6155  152.8271 H   0  0  0  0  0  0  0  0  0  0  0  0
  199.0450  178.6351  155.6401 H   0  0  0  0  0  0  0  0  0  0  0  0
  199.8076  177.3030  156.4751 H   0  0  0  0  0  0  0  0  0  0  0  0
  200.4642  179.2086  158.0451 H   0  0  0  0  0  0  0  0  0  0  0  0
  201.8872  180.1204  157.5855 H   0  0  0  0  0  0  0  0  0  0  0  0
  198.1732  179.9926  157.2406 H   0  0  0  0  0  0  0  0  0  0  0  0
  197.8882  184.0829  155.9148 H   0  0  0  0  0  0  0  0  0  0  0  0
  200.3568  184.2412  155.8515 H   0  0  0  0  0  0  0  0  0  0  0  0
  201.7550  182.2840  156.4439 H   0  0  0  0  0  0  0  0  0  0  0  0
  195.9398  182.8072  156.1489 H   0  0  0  0  0  0  0  0  0  0  0  0
  195.9881  181.0573  156.0799 H   0  0  0  0  0  0  0  0  0  0  0  0
  196.3191  183.8168  158.6690 H   0  0  0  0  0  0  0  0  0  0  0  0
  197.5833  182.6494  159.0437 H   0  0  0  0  0  0  0  0  0  0  0  0
  196.1235  182.6731  159.9946 H   0  0  0  0  0  0  0  0  0  0  0  0
  194.0328  182.9130  157.7517 H   0  0  0  0  0  0  0  0  0  0  0  0
  194.0318  181.8393  159.1543 H   0  0  0  0  0  0  0  0  0  0  0  0
  193.9007  181.1624  157.5313 H   0  0  0  0  0  0  0  0  0  0  0  0
  197.9151  176.1015  150.2781 H   0  0  0  0  0  0  0  0  0  0  0  0
  196.8291  177.1576  148.3082 H   0  0  0  0  0  0  0  0  0  0  0  0
  196.0465  180.8834  158.3210 H   0  0  0  0  0  0  0  0  0  0  0  0
  201.3641  179.4952  155.2769 H   0  0  0  0  0  0  0  0  0  0  0  0
  1  2  1  0
  2  3  1  0
  2 27  2  0
  3  4  2  0
  3 29  1  0
  4  5  1  0
  4 30  1  0
  5  6  1  0
  5 26  2  0
  6  7  1  0
  7  8  1  0
  7 12  2  0
  8  9  2  0
  9 10  1  0
  9 31  1  0
 10 11  2  0
 10 13  1  0
 11 12  1  0
 11 32  1  0
 12 33  1  0
 13 14  1  0
 13 34  1  6
 13 35  1  0
 14 15  1  0
 14 28  1  1
 14 53  1  0
 15 16  1  0
 15 36  1  1
 15 37  1  0
 16 17  2  0
 16 21  1  0
 17 18  1  0
 17 38  1  0
 18 19  2  0
 18 22  1  0
 19 20  1  0
 19 39  1  0
 20 21  2  0
 20 40  1  0
 21 41  1  0
 22 23  1  0
 22 42  1  6
 22 43  1  0
 23 24  1  0
 23 25  1  0
 23 52  1  1
 24 44  1  6
 24 45  1  0
 24 46  1  0
 25 47  1  6
 25 48  1  0
 25 49  1  0
 26 27  1  0
 26 50  1  0
 27 51  1  0
M  CHG  2  14   1  23   1
M  END
>  <s_epik_cmdline>  (1042) 
J2VwaWtfcHl0aG9uJywgJy1waCcsICc3LjAwMDAwMCcsICctcGh0JywgJzIuMDAwMDAwJywgJy1tcycsICcxNicsICctdG4nLCAnOCcsICctbWEnLCAnMjAwJywgJy1pbWFlJywgJzxpbmZpbGUubWFlPicsICctb21hZScsICc8b3V0ZmlsZS5tYWU+Jw==

>  <s_epik_input>  (1042) 
QnJjMVtjSF1bY0hdYyhbY0hdW2NIXTEpT2MybltjSF1jKFtjSF1bY0hdMilbQ0gyXVtOSF1bQ0gyXWMzW2NIXWMoW2NIXVtjSF1bY0hdMylbQ0gyXU4oW0NIM10pW0NIM10=

>  <s_i_glide_gridfile>  (1042) 
ATP-Grid

>  <s_lp_Force_Field>  (1042) 
OPLS_2005

>  <s_lp_Variant>  (1042) 
m_270004bbb____8349656____20640242-1

>  <s_lp_label>  (1042) 
1197_sdstereoexpander_1_neutralizer_1_epik_1_stereoizer_1

>  <s_m_source_file>  (1042) 
ATP-VSW-LIGPREP-003-in.maegz

>  <s_sd_BIOSOLVEIT.INFINISEE\_QUERY\_NAME>  (1042) 
Ref-Lig

>  <s_sd_BIOSOLVEIT.INFINISEE\_QUERY\_SMILES>  (1042) 
S(c1nc2c(cc1C[NH2+]Cc3ccc(cc3)C[NH+](C)C)cccc2)Cc4ccccc4

>  <s_sd_BIOSOLVEIT.INFINISEE\_REACTION\_NAME>  (1042) 
m_270004bbb

>  <s_sd_BIOSOLVEIT.INFINISEE\_REAGENT1\_SMILES>  (1042) 
[R1*]NCc1cc(ccc1)CN(C)C

>  <s_sd_BIOSOLVEIT.INFINISEE\_REAGENT2\_SMILES>  (1042) 
[R1*]Cc1cnc(Oc2ccc(Br)cc2)cc1

>  <s_sd_BIOSOLVEIT.INFINISEE\_SPACE>  (1042) 
REALSpace_44bn_2023-08

>  <s_vsw_compound_code>  (1042) 
38275

>  <s_vsw_variant>  (1042) 
38275-1

>  <r_epik_Charging_Adjusted_Penalty>  (1042) 
0.323109665142296

>  <r_epik_Ionization_Penalty>  (1042) 
0.16259999999999999

>  <r_epik_Ionization_Penalty_Charging>  (1042) 
0.16259999999999999

>  <r_epik_Ionization_Penalty_Neutral>  (1042) 
0

>  <r_epik_State_Penalty>  (1042) 
0.1605

>  <r_i_docking_score>  (1042) 
-4.1004249626291402

>  <r_i_glide_ecoul>  (1042) 
-13.6725921630859

>  <r_i_glide_eff_state_penalty>  (1042) 
0.1605

>  <r_i_glide_einternal>  (1042) 
3.38451147079468

>  <r_i_glide_emodel>  (1042) 
-56.829695351766503

>  <r_i_glide_energy>  (1042) 
-39.991044998168903

>  <r_i_glide_erotb>  (1042) 
0.75773174054959602

>  <r_i_glide_esite>  (1042) 
-0.10000000000000001

>  <r_i_glide_evdw>  (1042) 
-26.318452835083001

>  <r_i_glide_gscore>  (1042) 
-4.2609249626291401

>  <r_i_glide_hbond>  (1042) 
-0.16414333013427199

>  <r_i_glide_ligand_efficiency>  (1042) 
-0.151867591208487

>  <r_i_glide_ligand_efficiency_ln>  (1042) 
-0.95451133051126602

>  <r_i_glide_ligand_efficiency_sa>  (1042) 
-0.45560277312492897

>  <r_i_glide_lipo>  (1042) 
-0.67428377046378796

>  <r_i_glide_metal>  (1042) 
-0

>  <r_i_glide_rewards>  (1042) 
-0.71341813636363605

>  <r_lp_Energy>  (1042) 
21.944935999999998

>  <r_lp_tautomer_probability>  (1042) 
1

>  <r_qp_ACxDN^.5/SA>  (1042) 
0.0067057999999999996

>  <r_qp_CIQPlogS>  (1042) 
-4.8730000000000002

>  <r_qp_EA(eV)>  (1042) 
0.33000000000000002

>  <r_qp_FISA>  (1042) 
26.039999999999999

>  <r_qp_FOSA>  (1042) 
246.93299999999999

>  <r_qp_IP(eV)>  (1042) 
9.0730000000000004

>  <r_qp_Jm>  (1042) 
0.0011808544414952701

>  <r_qp_PISA>  (1042) 
395.25900000000001

>  <r_qp_PSA>  (1042) 
37.191000000000003

>  <r_qp_PercentHumanOralAbsorption>  (1042) 
100

>  <r_qp_QPPCaco>  (1042) 
348.947

>  <r_qp_QPPMDCK>  (1042) 
515.03200000000004

>  <r_qp_QPlogBB>  (1042) 
0.77800000000000002

>  <r_qp_QPlogHERG>  (1042) 
-8.5470000000000006

>  <r_qp_QPlogKhsa>  (1042) 
0.82199999999999995

>  <r_qp_QPlogKp>  (1042) 
-3.964

>  <r_qp_QPlogPC16>  (1042) 
14.183999999999999

>  <r_qp_QPlogPo/w>  (1042) 
4.8650000000000002

>  <r_qp_QPlogPoct>  (1042) 
18.744

>  <r_qp_QPlogPw>  (1042) 
9.0310000000000006

>  <r_qp_QPlogS>  (1042) 
-4.593

>  <r_qp_QPpolrz>  (1042) 
44.521999999999998

>  <r_qp_SASA>  (1042) 
745.62300000000005

>  <r_qp_SAamideO>  (1042) 
0

>  <r_qp_SAfluorine>  (1042) 
0

>  <r_qp_WPSA>  (1042) 
77.391000000000005

>  <r_qp_accptHB>  (1042) 
5

>  <r_qp_dip^2/V>  (1042) 
0.0017759

>  <r_qp_dipole>  (1042) 
1.52

>  <r_qp_donorHB>  (1042) 
1

>  <r_qp_glob>  (1042) 
0.77269929999999998

>  <r_qp_mol_MW>  (1042) 
426.35500000000002

>  <r_qp_volume>  (1042) 
1300.3099999999999

>  <r_sd_BIOSOLVEIT.INFINISEE\_FTREES\_SIMILARITY>  (1042) 
0.91100000000000003

>  <r_sd_BIOSOLVEIT.LOGP>  (1042) 
2.5445000000000002

>  <r_sd_BIOSOLVEIT.MOLECULAR\_WEIGHT>  (1042) 
428.37099999999998

>  <r_sd_BIOSOLVEIT.TPSA>  (1042) 
43.170000000000002

>  <i_epik_Tot_Q>  (1042) 
2

>  <i_epik_Tot_abs_Q>  (1042) 
2

>  <i_f3d_flags>  (1042) 
0

>  <i_i_glide_confnum>  (1042) 
8

>  <i_i_glide_lignum>  (1042) 
493

>  <i_i_glide_posenum>  (1042) 
18

>  <i_i_glide_rotatable_bonds>  (1042) 
8

>  <i_lp_mmshare_version>  (1042) 
65135

>  <i_m_ct_format>  (1042) 
2

>  <i_m_source_file_index>  (1042) 
1197

>  <i_qp_#NandO>  (1042) 
4

>  <i_qp_#acid>  (1042) 
0

>  <i_qp_#amide>  (1042) 
0

>  <i_qp_#amidine>  (1042) 
0

>  <i_qp_#amine>  (1042) 
2

>  <i_qp_#in34>  (1042) 
0

>  <i_qp_#in56>  (1042) 
18

>  <i_qp_#metab>  (1042) 
6

>  <i_qp_#nonHatm>  (1042) 
27

>  <i_qp_#noncon>  (1042) 
0

>  <i_qp_#ringatoms>  (1042) 
18

>  <i_qp_#rotor>  (1042) 
8

>  <i_qp_#rtvFG>  (1042) 
0

>  <i_qp_#stars>  (1042) 
0

>  <i_qp_CNS>  (1042) 
2

>  <i_qp_HumanOralAbsorption>  (1042) 
3

>  <i_qp_RuleOfFive>  (1042) 
0

>  <i_qp_RuleOfThree>  (1042) 
0

>  <i_sd_BIOSOLVEIT.INFINISEE\_REAGENT1\_NAME>  (1042) 
8349656

>  <i_sd_BIOSOLVEIT.INFINISEE\_REAGENT2\_NAME>  (1042) 
20640242

>  <i_sd_BIOSOLVEIT.INFINISEE\_RESULT\_RANK>  (1042) 
39996

>  <i_sd_version>  (1042) 
0

>  <b_lp_Chiralities_Consistent>  (1042) 
1

>  <b_sd_chiral_flag>  (1042) 
0

>  <canonical_id>  (1042) 
ATP-HTVS-A693217A85AE

>  <compound_code>  (1042) 
38275

>  <title>  (1042) 
m_270004bbb____8349656____20640242

>  <variant>  (1042) 
38275-1

>  <source_file>  (1042) 
运行/运行/ATP-VSW/ATP-VSW-DOCK_HTVS_1-003_lib/ATP-VSW-DOCK_HTVS_1-003_lib.mae

>  <canonical_smiles>  (1042) 
C[NH+](C)Cc1cccc(C[NH2+]Cc2ccc(Oc3ccc(Br)cc3)nc2)c1

>  <scaffold>  (1042) 
c1ccc(C[NH2+]Cc2ccc(Oc3ccccc3)nc2)cc1

>  <molecular_formula>  (1042) 
C22H26BrN3O+2

$$$$
ATP-HTVS-A6940AB4AD1D
     RDKit          3D

 54 56  0  0  0  0  0  0  0  0999 V2000
  194.8126  183.0434  158.4252 O   0  0  0  0  0  0  0  0  0  0  0  0
  196.0106  183.6975  158.5566 C   0  0  0  0  0  0  0  0  0  0  0  0
  196.0360  184.7855  159.4409 C   0  0  0  0  0  0  0  0  0  0  0  0
  194.8715  185.0555  160.1276 O   0  0  0  0  0  0  0  0  0  0  0  0
  194.8430  186.2227  160.9190 C   0  0  2  0  0  0  0  0  0  0  0  0
  197.2353  185.5145  159.5902 C   0  0  0  0  0  0  0  0  0  0  0  0
  198.3972  185.1846  158.8640 C   0  0  0  0  0  0  0  0  0  0  0  0
  198.3778  184.1108  157.9519 C   0  0  0  0  0  0  0  0  0  0  0  0
  197.1731  183.3794  157.7994 C   0  0  0  0  0  0  0  0  0  0  0  0
  197.1031  182.3801  156.6786 C   0  0  1  0  0  0  0  0  0  0  0  0
  197.6300  181.0420  157.0435 N   0  0  1  0  0  0  0  0  0  0  0  0
  197.6078  180.0130  155.9754 C   0  0  1  0  0  0  0  0  0  0  0  0
  198.6152  180.2374  154.8481 C   0  0  0  0  0  0  0  0  0  0  0  0
  198.3947  181.1686  153.8035 C   0  0  0  0  0  0  0  0  0  0  0  0
  197.1940  181.8782  153.7834 N   0  0  0  0  0  0  0  0  0  0  0  0
  197.0071  183.0826  153.0215 C   0  0  1  0  0  0  0  0  0  0  0  0
  196.3580  182.7685  151.6811 C   0  0  1  0  0  0  0  0  0  0  0  0
  195.5764  183.8622  151.3188 O   0  0  0  0  0  0  0  0  0  0  0  0
  199.3970  181.3972  152.8334 C   0  0  0  0  0  0  0  0  0  0  0  0
  200.5902  180.6656  152.8653 C   0  0  0  0  0  0  0  0  0  0  0  0
  200.7858  179.6883  153.8541 C   0  0  0  0  0  0  0  0  0  0  0  0
  199.8173  179.4948  154.8570 C   0  0  0  0  0  0  0  0  0  0  0  0
  199.5553  183.8568  157.1848 C   0  0  0  0  0  0  0  0  0  0  0  0
  200.7244  184.6151  157.3758 C   0  0  0  0  0  0  0  0  0  0  0  0
  200.7383  185.6454  158.3254 C   0  0  0  0  0  0  0  0  0  0  0  0
  199.5693  185.9413  159.0469 C   0  0  0  0  0  0  0  0  0  0  0  0
  194.8381  181.6739  158.7856 C   0  0  2  0  0  0  0  0  0  0  0  0
  198.5527  181.1351  157.4452 H   0  0  0  0  0  0  0  0  0  0  0  0
  193.8550  186.3309  161.3509 H   0  0  0  0  0  0  0  0  0  0  0  0
  195.0561  187.1054  160.3219 H   0  0  0  0  0  0  0  0  0  0  0  0
  195.5545  186.1591  161.7354 H   0  0  0  0  0  0  0  0  0  0  0  0
  197.2995  186.3206  160.2969 H   0  0  0  0  0  0  0  0  0  0  0  0
  196.0805  182.3103  156.3265 H   0  0  0  0  0  0  0  0  0  0  0  0
  197.6484  182.8508  155.8456 H   0  0  0  0  0  0  0  0  0  0  0  0
  197.9080  179.0977  156.4736 H   0  0  0  0  0  0  0  0  0  0  0  0
  196.5983  179.8180  155.6014 H   0  0  0  0  0  0  0  0  0  0  0  0
  196.5034  181.7465  154.4996 H   0  0  0  0  0  0  0  0  0  0  0  0
  196.3877  183.7046  153.6629 H   0  0  0  0  0  0  0  0  0  0  0  0
  197.9264  183.6549  152.9239 H   0  0  0  0  0  0  0  0  0  0  0  0
  197.1230  182.5457  150.9420 H   0  0  0  0  0  0  0  0  0  0  0  0
  195.6857  181.9220  151.7753 H   0  0  0  0  0  0  0  0  0  0  0  0
  194.9623  183.9564  152.0647 H   0  0  0  0  0  0  0  0  0  0  0  0
  199.2733  182.1452  152.0624 H   0  0  0  0  0  0  0  0  0  0  0  0
  201.3216  180.8319  152.0918 H   0  0  0  0  0  0  0  0  0  0  0  0
  201.6631  179.0631  153.8155 H   0  0  0  0  0  0  0  0  0  0  0  0
  199.9844  178.7311  155.6010 H   0  0  0  0  0  0  0  0  0  0  0  0
  199.6240  183.0839  156.4359 H   0  0  0  0  0  0  0  0  0  0  0  0
  201.6236  184.3956  156.8135 H   0  0  0  0  0  0  0  0  0  0  0  0
  201.6337  186.2217  158.4976 H   0  0  0  0  0  0  0  0  0  0  0  0
  199.5884  186.7555  159.7484 H   0  0  0  0  0  0  0  0  0  0  0  0
  194.2813  181.0756  158.0614 H   0  0  0  0  0  0  0  0  0  0  0  0
  194.3668  181.5716  159.7501 H   0  0  0  0  0  0  0  0  0  0  0  0
  195.8319  181.2531  158.9353 H   0  0  0  0  0  0  0  0  0  0  0  0
  197.0217  180.6288  157.7408 H   0  0  0  0  0  0  0  0  0  0  0  0
  1  2  1  0
  1 27  1  0
  2  3  1  0
  2  9  2  0
  3  4  1  0
  3  6  2  0
  4  5  1  0
  5 29  1  1
  5 30  1  0
  5 31  1  0
  6  7  1  0
  6 32  1  0
  7  8  1  0
  7 26  2  0
  8  9  1  0
  8 23  2  0
  9 10  1  0
 10 11  1  0
 10 33  1  6
 10 34  1  0
 11 12  1  0
 11 28  1  1
 11 54  1  0
 12 13  1  0
 12 35  1  1
 12 36  1  0
 13 14  1  0
 13 22  2  0
 14 15  1  0
 14 19  2  0
 15 16  1  0
 15 37  1  0
 16 17  1  0
 16 38  1  1
 16 39  1  0
 17 18  1  0
 17 40  1  6
 17 41  1  0
 18 42  1  0
 19 20  1  0
 19 43  1  0
 20 21  2  0
 20 44  1  0
 21 22  1  0
 21 45  1  0
 22 46  1  0
 23 24  1  0
 23 47  1  0
 24 25  2  0
 24 48  1  0
 25 26  1  0
 25 49  1  0
 26 50  1  0
 27 51  1  6
 27 52  1  0
 27 53  1  0
M  CHG  1  11   1
M  END
>  <s_epik_cmdline>  (1043) 
J2VwaWtfcHl0aG9uJywgJy1waCcsICc3LjAwMDAwMCcsICctcGh0JywgJzIuMDAwMDAwJywgJy1tcycsICcxNicsICctdG4nLCAnOCcsICctbWEnLCAnMjAwJywgJy1pbWFlJywgJzxpbmZpbGUubWFlPicsICctb21hZScsICc8b3V0ZmlsZS5tYWU+Jw==

>  <s_epik_input>  (1043) 
W2NIXTFbY0hdW2NIXVtjSF1jKGMxMiljKGMoT1tDSDNdKWMoW2NIXTIpT1tDSDNdKVtDSDJdW05IXVtDSDJdYzNjKFtOSF1bQ0gyXVtDSDJdW09IXSlbY0hdW2NIXVtjSF1bY0hdMw==

>  <s_i_glide_gridfile>  (1043) 
ATP-Grid

>  <s_lp_Force_Field>  (1043) 
OPLS_2005

>  <s_lp_Variant>  (1043) 
m_270004bbb____25289968____24720450-1

>  <s_lp_label>  (1043) 
763_sdstereoexpander_1_neutralizer_1_epik_1_stereoizer_1

>  <s_m_source_file>  (1043) 
ATP-VSW-LIGPREP-003-in.maegz

>  <s_sd_BIOSOLVEIT.INFINISEE\_QUERY\_NAME>  (1043) 
Ref-Lig

>  <s_sd_BIOSOLVEIT.INFINISEE\_QUERY\_SMILES>  (1043) 
S(c1nc2c(cc1C[NH2+]Cc3ccc(cc3)C[NH+](C)C)cccc2)Cc4ccccc4

>  <s_sd_BIOSOLVEIT.INFINISEE\_REACTION\_NAME>  (1043) 
m_270004bbb

>  <s_sd_BIOSOLVEIT.INFINISEE\_REAGENT1\_SMILES>  (1043) 
[R1*]NCc1c(NCCO)cccc1

>  <s_sd_BIOSOLVEIT.INFINISEE\_REAGENT2\_SMILES>  (1043) 
[R1*]Cc1c(OC)c(OC)cc2c1cccc2

>  <s_sd_BIOSOLVEIT.INFINISEE\_SPACE>  (1043) 
REALSpace_44bn_2023-08

>  <s_vsw_compound_code>  (1043) 
24387

>  <s_vsw_variant>  (1043) 
24387-1

>  <r_epik_Charging_Adjusted_Penalty>  (1043) 
0.109321511353525

>  <r_epik_Ionization_Penalty>  (1043) 
0.054699999999999999

>  <r_epik_Ionization_Penalty_Charging>  (1043) 
0.054699999999999999

>  <r_epik_Ionization_Penalty_Neutral>  (1043) 
0

>  <r_epik_State_Penalty>  (1043) 
0.054699999999999999

>  <r_i_docking_score>  (1043) 
-4.7351065952129101

>  <r_i_glide_ecoul>  (1043) 
-13.0390892028809

>  <r_i_glide_eff_state_penalty>  (1043) 
0.054699999999999999

>  <r_i_glide_einternal>  (1043) 
6.10906982421875

>  <r_i_glide_emodel>  (1043) 
-54.739503031165597

>  <r_i_glide_energy>  (1043) 
-39.707826614379897

>  <r_i_glide_erotb>  (1043) 
0.99840485879436602

>  <r_i_glide_esite>  (1043) 
-0.11235898080756999

>  <r_i_glide_evdw>  (1043) 
-26.668737411498999

>  <r_i_glide_gscore>  (1043) 
-4.7898065952129096

>  <r_i_glide_hbond>  (1043) 
-0.39807607984432303

>  <r_i_glide_ligand_efficiency>  (1043) 
-0.175374318341219

>  <r_i_glide_ligand_efficiency_ln>  (1043) 
-1.10225475103228

>  <r_i_glide_ligand_efficiency_sa>  (1043) 
-0.52612295444565205

>  <r_i_glide_lipo>  (1043) 
-0.85980373325739501

>  <r_i_glide_metal>  (1043) 
-0

>  <r_i_glide_rewards>  (1043) 
-1.1286724090909099

>  <r_lp_Energy>  (1043) 
29.049606000000001

>  <r_qp_ACxDN^.5/SA>  (1043) 
0.017057599999999999

>  <r_qp_CIQPlogS>  (1043) 
-4.165

>  <r_qp_EA(eV)>  (1043) 
0.751

>  <r_qp_FISA>  (1043) 
70.703000000000003

>  <r_qp_FOSA>  (1043) 
263.44400000000002

>  <r_qp_IP(eV)>  (1043) 
7.8090000000000002

>  <r_qp_Jm>  (1043) 
4.4396097262875598

>  <r_qp_PISA>  (1043) 
244.63800000000001

>  <r_qp_PSA>  (1043) 
54.012

>  <r_qp_PercentHumanOralAbsorption>  (1043) 
92.694999999999993

>  <r_qp_QPPCaco>  (1043) 
527.62800000000004

>  <r_qp_QPPMDCK>  (1043) 
274.22000000000003

>  <r_qp_QPlogBB>  (1043) 
-0.22600000000000001

>  <r_qp_QPlogHERG>  (1043) 
-5.085

>  <r_qp_QPlogKhsa>  (1043) 
0.085000000000000006

>  <r_qp_QPlogKp>  (1043) 
-3.0630000000000002

>  <r_qp_QPlogPC16>  (1043) 
11.609999999999999

>  <r_qp_QPlogPo/w>  (1043) 
2.9079999999999999

>  <r_qp_QPlogPoct>  (1043) 
18.672999999999998

>  <r_qp_QPlogPw>  (1043) 
11.058999999999999

>  <r_qp_QPlogS>  (1043) 
-1.853

>  <r_qp_QPpolrz>  (1043) 
34.304000000000002

>  <r_qp_SASA>  (1043) 
578.78399999999999

>  <r_qp_SAamideO>  (1043) 
0

>  <r_qp_SAfluorine>  (1043) 
0

>  <r_qp_WPSA>  (1043) 
0

>  <r_qp_accptHB>  (1043) 
5.7000000000000002

>  <r_qp_dip^2/V>  (1043) 
0.021520899999999999

>  <r_qp_dipole>  (1043) 
4.8940000000000001

>  <r_qp_donorHB>  (1043) 
3

>  <r_qp_glob>  (1043) 
0.8973932

>  <r_qp_mol_MW>  (1043) 
366.459

>  <r_qp_volume>  (1043) 
1113.0160000000001

>  <r_sd_BIOSOLVEIT.INFINISEE\_FTREES\_SIMILARITY>  (1043) 
0.92500000000000004

>  <r_sd_BIOSOLVEIT.LOGP>  (1043) 
2.5247999999999999

>  <r_sd_BIOSOLVEIT.MOLECULAR\_WEIGHT>  (1043) 
367.46600000000001

>  <r_sd_BIOSOLVEIT.TPSA>  (1043) 
67.329999999999998

>  <i_epik_Tot_Q>  (1043) 
1

>  <i_epik_Tot_abs_Q>  (1043) 
1

>  <i_f3d_flags>  (1043) 
0

>  <i_i_glide_confnum>  (1043) 
5

>  <i_i_glide_lignum>  (1043) 
320

>  <i_i_glide_posenum>  (1043) 
8

>  <i_i_glide_rotatable_bonds>  (1043) 
10

>  <i_lp_mmshare_version>  (1043) 
65135

>  <i_m_ct_format>  (1043) 
2

>  <i_m_source_file_index>  (1043) 
763

>  <i_qp_#NandO>  (1043) 
5

>  <i_qp_#acid>  (1043) 
0

>  <i_qp_#amide>  (1043) 
0

>  <i_qp_#amidine>  (1043) 
0

>  <i_qp_#amine>  (1043) 
1

>  <i_qp_#in34>  (1043) 
0

>  <i_qp_#in56>  (1043) 
16

>  <i_qp_#metab>  (1043) 
10

>  <i_qp_#nonHatm>  (1043) 
27

>  <i_qp_#noncon>  (1043) 
0

>  <i_qp_#ringatoms>  (1043) 
16

>  <i_qp_#rotor>  (1043) 
10

>  <i_qp_#rtvFG>  (1043) 
0

>  <i_qp_#stars>  (1043) 
2

>  <i_qp_CNS>  (1043) 
0

>  <i_qp_HumanOralAbsorption>  (1043) 
1

>  <i_qp_RuleOfFive>  (1043) 
0

>  <i_qp_RuleOfThree>  (1043) 
1

>  <i_sd_BIOSOLVEIT.INFINISEE\_REAGENT1\_NAME>  (1043) 
25289968

>  <i_sd_BIOSOLVEIT.INFINISEE\_REAGENT2\_NAME>  (1043) 
24720450

>  <i_sd_BIOSOLVEIT.INFINISEE\_RESULT\_RANK>  (1043) 
8750

>  <i_sd_version>  (1043) 
0

>  <b_lp_Chiralities_Consistent>  (1043) 
1

>  <b_sd_chiral_flag>  (1043) 
0

>  <canonical_id>  (1043) 
ATP-HTVS-A6940AB4AD1D

>  <compound_code>  (1043) 
24387

>  <title>  (1043) 
m_270004bbb____25289968____24720450

>  <variant>  (1043) 
24387-1

>  <source_file>  (1043) 
运行/运行/ATP-VSW/ATP-VSW-DOCK_HTVS_1-003_lib/ATP-VSW-DOCK_HTVS_1-003_lib.mae

>  <canonical_smiles>  (1043) 
COc1cc2ccccc2c(C[NH2+]Cc2ccccc2NCCO)c1OC

>  <scaffold>  (1043) 
c1ccc(C[NH2+]Cc2cccc3ccccc23)cc1

>  <molecular_formula>  (1043) 
C22H27N2O3+

$$$$
ATP-HTVS-A6CB9DE84F6F
     RDKit          3D

 66 69  0  0  0  0  0  0  0  0999 V2000
  197.4853  185.5035  154.9511 O   0  0  0  0  0  0  0  0  0  0  0  0
  197.5450  184.3423  155.3649 C   0  0  0  0  0  0  0  0  0  0  0  0
  197.8039  183.2741  154.5932 N   0  0  0  0  0  0  0  0  0  0  0  0
  197.8273  183.1673  153.1768 C   0  0  0  0  0  0  0  0  0  0  0  0
  197.5693  184.2244  152.3606 N   0  0  0  0  0  0  0  0  0  0  0  0
  197.6053  184.0765  151.0231 C   0  0  0  0  0  0  0  0  0  0  0  0
  197.8918  182.8289  150.4209 C   0  0  0  0  0  0  0  0  0  0  0  0
  198.1446  181.7235  151.2518 C   0  0  0  0  0  0  0  0  0  0  0  0
  198.1061  181.8728  152.6571 C   0  0  0  0  0  0  0  0  0  0  0  0
  198.2722  180.7504  153.5126 N   0  0  0  0  0  0  0  0  0  0  0  0
  199.2576  179.7447  153.0714 C   0  0  2  0  0  0  0  0  0  0  0  0
  198.6633  178.8030  152.1007 C   0  0  0  0  0  0  0  0  0  0  0  0
  198.1993  178.0770  151.3326 N   0  0  0  0  0  0  0  0  0  0  0  0
  199.9388  178.9534  154.1900 C   0  0  0  0  0  0  0  0  0  0  0  0
  199.1632  178.2307  155.1342 C   0  0  0  0  0  0  0  0  0  0  0  0
  199.8065  177.5296  156.1731 C   0  0  0  0  0  0  0  0  0  0  0  0
  201.2131  177.4839  156.2564 C   0  0  0  0  0  0  0  0  0  0  0  0
  201.9903  178.1610  155.2840 C   0  0  0  0  0  0  0  0  0  0  0  0
  201.3553  178.9080  154.2567 C   0  0  0  0  0  0  0  0  0  0  0  0
  196.9881  180.2984  154.0659 C   0  0  2  0  0  0  0  0  0  0  0  0
  197.9287  182.6780  149.0201 C   0  0  0  0  0  0  0  0  0  0  0  0
  197.6800  183.7898  148.1950 C   0  0  0  0  0  0  0  0  0  0  0  0
  197.3969  185.0361  148.7773 C   0  0  0  0  0  0  0  0  0  0  0  0
  197.3679  185.1771  150.1742 C   0  0  0  0  0  0  0  0  0  0  0  0
  197.3833  184.0248  156.8341 C   0  0  0  0  0  0  0  0  0  0  0  0
  197.8279  184.9268  157.8385 C   0  0  0  0  0  0  0  0  0  0  0  0
  198.4311  186.0993  157.4376 O   0  0  0  0  0  0  0  0  0  0  0  0
  198.8087  187.0526  158.4156 C   0  0  1  0  0  0  0  0  0  0  0  0
  197.5586  187.7061  159.0585 C   0  0  1  0  0  0  0  0  0  0  0  0
  197.9128  188.6862  160.1153 N   0  0  1  0  0  0  0  0  0  0  0  0
  198.5713  189.8977  159.5801 C   0  0  2  0  0  0  0  0  0  0  0  0
  196.7371  189.0133  160.9498 C   0  0  2  0  0  0  0  0  0  0  0  0
  197.6324  184.5946  159.2049 C   0  0  0  0  0  0  0  0  0  0  0  0
  196.9703  183.4143  159.5712 C   0  0  0  0  0  0  0  0  0  0  0  0
  196.5329  182.5160  158.5857 C   0  0  0  0  0  0  0  0  0  0  0  0
  196.7377  182.8242  157.2294 C   0  0  0  0  0  0  0  0  0  0  0  0
  197.9185  182.3949  155.0743 H   0  0  0  0  0  0  0  0  0  0  0  0
  198.3331  180.7804  150.7681 H   0  0  0  0  0  0  0  0  0  0  0  0
  200.0501  180.2577  152.5213 H   0  0  0  0  0  0  0  0  0  0  0  0
  198.1165  178.1584  155.0940 H   0  0  0  0  0  0  0  0  0  0  0  0
  199.1770  177.0280  156.8986 H   0  0  0  0  0  0  0  0  0  0  0  0
  201.6916  176.9190  157.0469 H   0  0  0  0  0  0  0  0  0  0  0  0
  203.0719  178.1025  155.3271 H   0  0  0  0  0  0  0  0  0  0  0  0
  201.9692  179.4142  153.5175 H   0  0  0  0  0  0  0  0  0  0  0  0
  197.0457  179.4680  154.6952 H   0  0  0  0  0  0  0  0  0  0  0  0
  196.2943  180.1093  153.2386 H   0  0  0  0  0  0  0  0  0  0  0  0
  196.5412  181.1053  154.6582 H   0  0  0  0  0  0  0  0  0  0  0  0
  198.1433  181.7167  148.5746 H   0  0  0  0  0  0  0  0  0  0  0  0
  197.7021  183.6837  147.1226 H   0  0  0  0  0  0  0  0  0  0  0  0
  197.1922  185.8837  148.1435 H   0  0  0  0  0  0  0  0  0  0  0  0
  197.1590  186.1354  150.6169 H   0  0  0  0  0  0  0  0  0  0  0  0
  199.4827  186.6009  159.1446 H   0  0  0  0  0  0  0  0  0  0  0  0
  199.4043  187.7972  157.8880 H   0  0  0  0  0  0  0  0  0  0  0  0
  196.9345  188.1708  158.2860 H   0  0  0  0  0  0  0  0  0  0  0  0
  196.9333  186.9428  159.5392 H   0  0  0  0  0  0  0  0  0  0  0  0
  197.9232  190.3903  158.8513 H   0  0  0  0  0  0  0  0  0  0  0  0
  199.5156  189.6540  159.0899 H   0  0  0  0  0  0  0  0  0  0  0  0
  198.8004  190.5952  160.3884 H   0  0  0  0  0  0  0  0  0  0  0  0
  195.9486  189.4634  160.3444 H   0  0  0  0  0  0  0  0  0  0  0  0
  197.0128  189.7019  161.7474 H   0  0  0  0  0  0  0  0  0  0  0  0
  196.3301  188.1142  161.4170 H   0  0  0  0  0  0  0  0  0  0  0  0
  197.9627  185.2325  160.0091 H   0  0  0  0  0  0  0  0  0  0  0  0
  196.8112  183.1913  160.6166 H   0  0  0  0  0  0  0  0  0  0  0  0
  196.0528  181.5891  158.8670 H   0  0  0  0  0  0  0  0  0  0  0  0
  196.3727  182.1171  156.5033 H   0  0  0  0  0  0  0  0  0  0  0  0
  198.5810  188.2608  160.7487 H   0  0  0  0  0  0  0  0  0  0  0  0
  1  2  2  0
  2  3  1  0
  2 25  1  0
  3  4  1  0
  3 37  1  0
  4  5  2  0
  4  9  1  0
  5  6  1  0
  6  7  1  0
  6 24  2  0
  7  8  1  0
  7 21  2  0
  8  9  2  0
  8 38  1  0
  9 10  1  0
 10 11  1  0
 10 20  1  0
 11 12  1  0
 11 14  1  0
 11 39  1  6
 12 13  3  0
 14 15  2  0
 14 19  1  0
 15 16  1  0
 15 40  1  0
 16 17  2  0
 16 41  1  0
 17 18  1  0
 17 42  1  0
 18 19  2  0
 18 43  1  0
 19 44  1  0
 20 45  1  1
 20 46  1  0
 20 47  1  0
 21 22  1  0
 21 48  1  0
 22 23  2  0
 22 49  1  0
 23 24  1  0
 23 50  1  0
 24 51  1  0
 25 26  1  0
 25 36  2  0
 26 27  1  0
 26 33  2  0
 27 28  1  0
 28 29  1  0
 28 52  1  1
 28 53  1  0
 29 30  1  0
 29 54  1  6
 29 55  1  0
 30 31  1  0
 30 32  1  0
 30 66  1  1
 31 56  1  6
 31 57  1  0
 31 58  1  0
 32 59  1  6
 32 60  1  0
 32 61  1  0
 33 34  1  0
 33 62  1  0
 34 35  2  0
 34 63  1  0
 35 36  1  0
 35 64  1  0
 36 65  1  0
M  CHG  1  30   1
M  END
>  <s_epik_cmdline>  (1044) 
J2VwaWtfcHl0aG9uJywgJy1waCcsICc3LjAwMDAwMCcsICctcGh0JywgJzIuMDAwMDAwJywgJy1tcycsICcxNicsICctdG4nLCAnOCcsICctbWEnLCAnMjAwJywgJy1pbWFlJywgJzxpbmZpbGUubWFlPicsICctb21hZScsICc8b3V0ZmlsZS5tYWU+Jw==

>  <s_epik_input>  (1044) 
W0NIM11OKFtDSDNdKVtDSDJdW0NIMl1PYyhbY0hdW2NIXVtjSF1bY0hdMSljMUMoPU8pW05IXWMobjIpYyhbY0hdYyhjMjMpW2NIXVtjSF1bY0hdW2NIXTMpTihbQ0gzXSlbQ0BIXShDI04pYzRbY0hdW2NIXVtjSF1bY0hdW2NIXTQ=

>  <s_i_glide_gridfile>  (1044) 
ATP-Grid

>  <s_lp_Force_Field>  (1044) 
OPLS_2005

>  <s_lp_Variant>  (1044) 
rxn502b____EMOL1542108____EMOL44466703____EMOL24630243-2

>  <s_lp_label>  (1044) 
2627_sdstereoexpander_2_neutralizer_1_epik_1_stereoizer_1

>  <s_m_source_file>  (1044) 
ATP-VSW-LIGPREP-002-in.maegz

>  <s_sd_BIOSOLVEIT.INFINISEE\_QUERY\_NAME>  (1044) 
Ref-Lig

>  <s_sd_BIOSOLVEIT.INFINISEE\_QUERY\_SMILES>  (1044) 
S(c1nc2c(cc1C[NH2+]Cc3ccc(cc3)C[NH+](C)C)cccc2)Cc4ccccc4

>  <s_sd_BIOSOLVEIT.INFINISEE\_REACTION\_NAME>  (1044) 
rxn502b

>  <s_sd_BIOSOLVEIT.INFINISEE\_REAGENT1\_NAME>  (1044) 
EMOL1542108

>  <s_sd_BIOSOLVEIT.INFINISEE\_REAGENT1\_SMILES>  (1044) 
O=C(O)c1c(OCCN(C)C)cccc1

>  <s_sd_BIOSOLVEIT.INFINISEE\_REAGENT2\_NAME>  (1044) 
EMOL44466703

>  <s_sd_BIOSOLVEIT.INFINISEE\_REAGENT2\_SMILES>  (1044) 
Brc1c(nc2c(c1)cccc2)N

>  <s_sd_BIOSOLVEIT.INFINISEE\_REAGENT3\_NAME>  (1044) 
EMOL24630243

>  <s_sd_BIOSOLVEIT.INFINISEE\_REAGENT3\_SMILES>  (1044) 
N#CC(NC)c1ccccc1

>  <s_sd_BIOSOLVEIT.INFINISEE\_SPACE>  (1044) 
eXplore_7tr_2022-12

>  <s_vsw_compound_code>  (1044) 
84034

>  <s_vsw_variant>  (1044) 
84034-2

>  <r_epik_Charging_Adjusted_Penalty>  (1044) 
0.049611777781538503

>  <r_epik_Ionization_Penalty>  (1044) 
0.024799999999999999

>  <r_epik_Ionization_Penalty_Charging>  (1044) 
0.024799999999999999

>  <r_epik_Ionization_Penalty_Neutral>  (1044) 
0

>  <r_epik_State_Penalty>  (1044) 
0.024799999999999999

>  <r_i_docking_score>  (1044) 
-3.5448721240447201

>  <r_i_glide_ecoul>  (1044) 
-5.21868801116943

>  <r_i_glide_eff_state_penalty>  (1044) 
0.024799999999999999

>  <r_i_glide_einternal>  (1044) 
1.60613000392914

>  <r_i_glide_emodel>  (1044) 
-54.073481091704203

>  <r_i_glide_energy>  (1044) 
-42.144770622253397

>  <r_i_glide_erotb>  (1044) 
0.79027730164020205

>  <r_i_glide_esite>  (1044) 
-0.066194221394822506

>  <r_i_glide_evdw>  (1044) 
-36.926082611083999

>  <r_i_glide_gscore>  (1044) 
-3.56967212404472

>  <r_i_glide_hbond>  (1044) 
-0.011867326506228

>  <r_i_glide_ligand_efficiency>  (1044) 
-0.098468670112353399

>  <r_i_glide_ligand_efficiency_ln>  (1044) 
-0.773395326089513

>  <r_i_glide_ligand_efficiency_sa>  (1044) 
-0.32513638461801803

>  <r_i_glide_lipo>  (1044) 
-1.2399495025239899

>  <r_i_glide_metal>  (1044) 
-0

>  <r_i_glide_rewards>  (1044) 
-0.41283104303027102

>  <r_lp_Energy>  (1044) 
44.337774000000003

>  <r_lp_tautomer_probability>  (1044) 
1

>  <r_qp_ACxDN^.5/SA>  (1044) 
0.010462900000000001

>  <r_qp_CIQPlogS>  (1044) 
-6.7110000000000003

>  <r_qp_EA(eV)>  (1044) 
0.91800000000000004

>  <r_qp_FISA>  (1044) 
86.576999999999998

>  <r_qp_FOSA>  (1044) 
274.62599999999998

>  <r_qp_IP(eV)>  (1044) 
8.516

>  <r_qp_Jm>  (1044) 
0.000718952912097732

>  <r_qp_PISA>  (1044) 
475.08499999999998

>  <r_qp_PSA>  (1044) 
82.569999999999993

>  <r_qp_PercentHumanOralAbsorption>  (1044) 
100

>  <r_qp_QPPCaco>  (1044) 
373.072

>  <r_qp_QPPMDCK>  (1044) 
188.53299999999999

>  <r_qp_QPlogBB>  (1044) 
-0.59399999999999997

>  <r_qp_QPlogHERG>  (1044) 
-8.1150000000000002

>  <r_qp_QPlogKhsa>  (1044) 
0.65300000000000002

>  <r_qp_QPlogKp>  (1044) 
-2.544

>  <r_qp_QPlogPC16>  (1044) 
17.039000000000001

>  <r_qp_QPlogPo/w>  (1044) 
4.8099999999999996

>  <r_qp_QPlogPoct>  (1044) 
25.038

>  <r_qp_QPlogPw>  (1044) 
13.43

>  <r_qp_QPlogS>  (1044) 
-6.2800000000000002

>  <r_qp_QPpolrz>  (1044) 
54.421999999999997

>  <r_qp_SASA>  (1044) 
836.28800000000001

>  <r_qp_SAamideO>  (1044) 
0

>  <r_qp_SAfluorine>  (1044) 
0

>  <r_qp_WPSA>  (1044) 
0

>  <r_qp_accptHB>  (1044) 
8.75

>  <r_qp_dip^2/V>  (1044) 
0.053808599999999998

>  <r_qp_dipole>  (1044) 
9.1639999999999997

>  <r_qp_donorHB>  (1044) 
1

>  <r_qp_glob>  (1044) 
0.77808279999999996

>  <r_qp_mol_MW>  (1044) 
479.57999999999998

>  <r_qp_volume>  (1044) 
1560.72

>  <r_sd_BIOSOLVEIT.INFINISEE\_FTREES\_SIMILARITY>  (1044) 
0.91000000000000003

>  <r_sd_BIOSOLVEIT.LOGP>  (1044) 
3.7114799999999999

>  <r_sd_BIOSOLVEIT.MOLECULAR\_WEIGHT>  (1044) 
480.589

>  <r_sd_BIOSOLVEIT.TPSA>  (1044) 
82.689999999999998

>  <i_epik_Tot_Q>  (1044) 
1

>  <i_epik_Tot_abs_Q>  (1044) 
1

>  <i_f3d_flags>  (1044) 
0

>  <i_i_glide_confnum>  (1044) 
8

>  <i_i_glide_lignum>  (1044) 
1222

>  <i_i_glide_posenum>  (1044) 
6

>  <i_i_glide_rotatable_bonds>  (1044) 
10

>  <i_lp_mmshare_version>  (1044) 
65135

>  <i_m_ct_format>  (1044) 
2

>  <i_m_source_file_index>  (1044) 
2627

>  <i_qp_#NandO>  (1044) 
7

>  <i_qp_#acid>  (1044) 
0

>  <i_qp_#amide>  (1044) 
0

>  <i_qp_#amidine>  (1044) 
0

>  <i_qp_#amine>  (1044) 
1

>  <i_qp_#in34>  (1044) 
0

>  <i_qp_#in56>  (1044) 
22

>  <i_qp_#metab>  (1044) 
5

>  <i_qp_#nonHatm>  (1044) 
36

>  <i_qp_#noncon>  (1044) 
0

>  <i_qp_#ringatoms>  (1044) 
22

>  <i_qp_#rotor>  (1044) 
10

>  <i_qp_#rtvFG>  (1044) 
0

>  <i_qp_#stars>  (1044) 
1

>  <i_qp_CNS>  (1044) 
1

>  <i_qp_HumanOralAbsorption>  (1044) 
1

>  <i_qp_RuleOfFive>  (1044) 
0

>  <i_qp_RuleOfThree>  (1044) 
1

>  <i_sd_BIOSOLVEIT.INFINISEE\_RESULT\_RANK>  (1044) 
44028

>  <i_sd_version>  (1044) 
0

>  <b_lp_Chiralities_Consistent>  (1044) 
1

>  <b_sd_chiral_flag>  (1044) 
0

>  <canonical_id>  (1044) 
ATP-HTVS-A6CB9DE84F6F

>  <compound_code>  (1044) 
84034

>  <title>  (1044) 
rxn502b____EMOL1542108____EMOL44466703____EMOL24630243

>  <variant>  (1044) 
84034-2

>  <source_file>  (1044) 
运行/运行/ATP-VSW/ATP-VSW-DOCK_HTVS_1-002_lib.maegz

>  <canonical_smiles>  (1044) 
CN(c1cc2ccccc2nc1NC(=O)c1ccccc1OCC[NH+](C)C)[C@H](C#N)c1ccccc1

>  <scaffold>  (1044) 
O=C(Nc1nc2ccccc2cc1NCc1ccccc1)c1ccccc1

>  <molecular_formula>  (1044) 
C29H30N5O2+

$$$$
ATP-HTVS-A6D74CA540BA
     RDKit          3D

 55 58  0  0  0  0  0  0  0  0999 V2000
  198.7332  186.2330  149.4051 F   0  0  0  0  0  0  0  0  0  0  0  0
  198.0894  185.3650  150.2257 C   0  0  0  0  0  0  0  0  0  0  0  0
  198.1457  185.5213  151.6369 C   0  0  0  0  0  0  0  0  0  0  0  0
  197.3962  184.6337  152.4516 C   0  0  0  0  0  0  0  0  0  0  0  0
  196.7107  183.5633  151.8651 C   0  0  0  0  0  0  0  0  0  0  0  0
  196.6846  183.3676  150.4703 C   0  0  0  0  0  0  0  0  0  0  0  0
  197.3463  184.3030  149.6454 C   0  0  0  0  0  0  0  0  0  0  0  0
  199.0200  186.6178  152.2603 C   0  0  1  0  0  0  0  0  0  0  0  0
  198.7554  186.8669  153.6778 N   0  0  0  0  0  0  0  0  0  0  0  0
  199.2290  185.8083  154.5819 C   0  0  1  0  0  0  0  0  0  0  0  0
  198.4076  185.7872  155.7975 C   0  0  0  0  0  0  0  0  0  0  0  0
  197.6834  185.6243  156.7779 C   0  0  0  0  0  0  0  0  0  0  0  0
  196.8668  185.2882  157.9458 C   0  0  0  0  0  0  0  0  0  0  0  0
  196.3112  183.9857  158.1072 C   0  0  0  0  0  0  0  0  0  0  0  0
  196.5083  182.9312  157.1739 N   0  0  0  0  0  0  0  0  0  0  0  0
  197.6808  182.3520  156.8759 C   0  0  0  0  0  0  0  0  0  0  0  0
  198.7401  182.6222  157.4484 O   0  0  0  0  0  0  0  0  0  0  0  0
  197.6436  181.3417  155.7747 C   0  0  0  0  0  0  0  0  0  0  0  0
  198.4810  180.2117  155.8234 C   0  0  0  0  0  0  0  0  0  0  0  0
  198.4446  179.2559  154.7906 C   0  0  0  0  0  0  0  0  0  0  0  0
  199.2872  178.0746  154.8663 C   0  0  0  0  0  0  0  0  0  0  0  0
  199.9544  177.1328  154.9237 N   0  0  0  0  0  0  0  0  0  0  0  0
  197.5800  179.4348  153.6920 C   0  0  0  0  0  0  0  0  0  0  0  0
  196.7479  180.5649  153.6349 C   0  0  0  0  0  0  0  0  0  0  0  0
  196.7737  181.5144  154.6732 C   0  0  0  0  0  0  0  0  0  0  0  0
  195.4654  183.7482  159.2055 C   0  0  0  0  0  0  0  0  0  0  0  0
  195.1560  184.6854  160.1235 N   0  0  0  0  0  0  0  0  0  0  0  0
  195.7002  185.9158  160.0099 C   0  0  0  0  0  0  0  0  0  0  0  0
  196.5589  186.2717  158.9357 C   0  0  0  0  0  0  0  0  0  0  0  0
  197.0838  187.5932  158.8711 C   0  0  0  0  0  0  0  0  0  0  0  0
  196.7847  188.5347  159.8726 C   0  0  0  0  0  0  0  0  0  0  0  0
  195.9528  188.1773  160.9474 C   0  0  0  0  0  0  0  0  0  0  0  0
  195.4122  186.8761  161.0056 C   0  0  0  0  0  0  0  0  0  0  0  0
  200.5328  186.3868  152.0572 C   0  0  2  0  0  0  0  0  0  0  0  0
  197.7687  187.0834  153.7820 H   0  0  0  0  0  0  0  0  0  0  0  0
  197.3691  184.7266  153.5313 H   0  0  0  0  0  0  0  0  0  0  0  0
  196.1774  182.8837  152.5024 H   0  0  0  0  0  0  0  0  0  0  0  0
  196.1181  182.5252  150.0731 H   0  0  0  0  0  0  0  0  0  0  0  0
  197.2760  184.1911  148.5699 H   0  0  0  0  0  0  0  0  0  0  0  0
  198.7710  187.5440  151.7397 H   0  0  0  0  0  0  0  0  0  0  0  0
  199.0818  184.8258  154.1152 H   0  0  0  0  0  0  0  0  0  0  0  0
  200.2850  185.9482  154.8587 H   0  0  0  0  0  0  0  0  0  0  0  0
  195.6871  182.5853  156.6966 H   0  0  0  0  0  0  0  0  0  0  0  0
  199.1452  180.0719  156.6662 H   0  0  0  0  0  0  0  0  0  0  0  0
  197.5323  178.7078  152.8968 H   0  0  0  0  0  0  0  0  0  0  0  0
  196.0810  180.6952  152.7955 H   0  0  0  0  0  0  0  0  0  0  0  0
  196.1445  182.3888  154.6212 H   0  0  0  0  0  0  0  0  0  0  0  0
  194.9999  182.7836  159.3326 H   0  0  0  0  0  0  0  0  0  0  0  0
  197.7364  187.8971  158.0683 H   0  0  0  0  0  0  0  0  0  0  0  0
  197.1948  189.5322  159.8077 H   0  0  0  0  0  0  0  0  0  0  0  0
  195.7167  188.9108  161.7013 H   0  0  0  0  0  0  0  0  0  0  0  0
  194.7608  186.6215  161.8248 H   0  0  0  0  0  0  0  0  0  0  0  0
  200.7906  186.2823  151.0030 H   0  0  0  0  0  0  0  0  0  0  0  0
  200.8713  185.4748  152.5497 H   0  0  0  0  0  0  0  0  0  0  0  0
  201.1231  187.2180  152.4567 H   0  0  0  0  0  0  0  0  0  0  0  0
  1  2  1  0
  2  3  1  0
  2  7  2  0
  3  4  2  0
  3  8  1  0
  4  5  1  0
  4 36  1  0
  5  6  2  0
  5 37  1  0
  6  7  1  0
  6 38  1  0
  7 39  1  0
  8  9  1  0
  8 34  1  0
  8 40  1  6
  9 10  1  0
  9 35  1  0
 10 11  1  0
 10 41  1  6
 10 42  1  0
 11 12  3  0
 12 13  1  0
 13 14  2  0
 13 29  1  0
 14 15  1  0
 14 26  1  0
 15 16  1  0
 15 43  1  0
 16 17  2  0
 16 18  1  0
 18 19  1  0
 18 25  2  0
 19 20  2  0
 19 44  1  0
 20 21  1  0
 20 23  1  0
 21 22  3  0
 23 24  2  0
 23 45  1  0
 24 25  1  0
 24 46  1  0
 25 47  1  0
 26 27  2  0
 26 48  1  0
 27 28  1  0
 28 29  1  0
 28 33  2  0
 29 30  2  0
 30 31  1  0
 30 49  1  0
 31 32  2  0
 31 50  1  0
 32 33  1  0
 32 51  1  0
 33 52  1  0
 34 53  1  6
 34 54  1  0
 34 55  1  0
M  END
>  <s_epik_cmdline>  (1045) 
J2VwaWtfcHl0aG9uJywgJy1waCcsICc3LjAwMDAwMCcsICctcGh0JywgJzIuMDAwMDAwJywgJy1tcycsICcxNicsICctdG4nLCAnOCcsICctbWEnLCAnMjAwJywgJy1pbWFlJywgJzxpbmZpbGUubWFlPicsICctb21hZScsICc8b3V0ZmlsZS5tYWU+Jw==

>  <s_epik_input>  (1045) 
W2NIXTFbY0hdW2NIXVtjSF1jKGMxRilbQ0BIXShbQ0gzXSlbTkhdW0NIMl1DI0NjKGMoYzIzKVtjSF1bY0hdW2NIXVtjSF0zKWMoW2NIXW4yKVtOSF1DKD1PKWM0W2NIXWMoQyNOKVtjSF1bY0hdW2NIXTQ=

>  <s_i_glide_gridfile>  (1045) 
ATP-Grid

>  <s_lp_Force_Field>  (1045) 
OPLS_2005

>  <s_lp_Variant>  (1045) 
rxn503b____EMOL483931____EMOL30488121____EMOL317509298-2

>  <s_lp_label>  (1045) 
2799_sdstereoexpander_2_neutralizer_1_epik_1_stereoizer_1

>  <s_m_source_file>  (1045) 
ATP-VSW-LIGPREP-001-in.maegz

>  <s_sd_BIOSOLVEIT.INFINISEE\_QUERY\_NAME>  (1045) 
Ref-Lig

>  <s_sd_BIOSOLVEIT.INFINISEE\_QUERY\_SMILES>  (1045) 
S(c1nc2c(cc1C[NH2+]Cc3ccc(cc3)C[NH+](C)C)cccc2)Cc4ccccc4

>  <s_sd_BIOSOLVEIT.INFINISEE\_REACTION\_NAME>  (1045) 
rxn503b

>  <s_sd_BIOSOLVEIT.INFINISEE\_REAGENT1\_NAME>  (1045) 
EMOL483931

>  <s_sd_BIOSOLVEIT.INFINISEE\_REAGENT1\_SMILES>  (1045) 
O=C(O)c1cc(C#N)ccc1

>  <s_sd_BIOSOLVEIT.INFINISEE\_REAGENT2\_NAME>  (1045) 
EMOL30488121

>  <s_sd_BIOSOLVEIT.INFINISEE\_REAGENT2\_SMILES>  (1045) 
Brc1c(N)cnc2c1cccc2

>  <s_sd_BIOSOLVEIT.INFINISEE\_REAGENT3\_NAME>  (1045) 
EMOL317509298

>  <s_sd_BIOSOLVEIT.INFINISEE\_REAGENT3\_SMILES>  (1045) 
Fc1c(cccc1)C(NCC#C)C

>  <s_sd_BIOSOLVEIT.INFINISEE\_SPACE>  (1045) 
eXplore_7tr_2022-12

>  <s_vsw_compound_code>  (1045) 
89537

>  <s_vsw_variant>  (1045) 
89537-2

>  <r_epik_Charging_Adjusted_Penalty>  (1045) 
0.25088885360206298

>  <r_epik_Ionization_Penalty>  (1045) 
0.25119999999999998

>  <r_epik_Ionization_Penalty_Charging>  (1045) 
0

>  <r_epik_Ionization_Penalty_Neutral>  (1045) 
0.25119999999999998

>  <r_epik_State_Penalty>  (1045) 
0.25090000000000001

>  <r_i_docking_score>  (1045) 
-4.8942944755537701

>  <r_i_glide_ecoul>  (1045) 
-5.5706152915954599

>  <r_i_glide_eff_state_penalty>  (1045) 
0.25090000000000001

>  <r_i_glide_einternal>  (1045) 
12.772432327270501

>  <r_i_glide_emodel>  (1045) 
-55.544902891145298

>  <r_i_glide_energy>  (1045) 
-46.506455898284898

>  <r_i_glide_erotb>  (1045) 
0.69717368561456505

>  <r_i_glide_esite>  (1045) 
-0.11408483558304

>  <r_i_glide_evdw>  (1045) 
-40.935840606689503

>  <r_i_glide_gscore>  (1045) 
-5.1451944755537697

>  <r_i_glide_hbond>  (1045) 
-0.35543721546391099

>  <r_i_glide_ligand_efficiency>  (1045) 
-0.14394983751628701

>  <r_i_glide_ligand_efficiency_ln>  (1045) 
-1.08128692995987

>  <r_i_glide_ligand_efficiency_sa>  (1045) 
-0.46634159186157798

>  <r_i_glide_lipo>  (1045) 
-2.0159089957373202

>  <r_i_glide_metal>  (1045) 
-0

>  <r_i_glide_rewards>  (1045) 
-0.47455279031027198

>  <r_lp_Energy>  (1045) 
31.574636000000002

>  <r_qp_ACxDN^.5/SA>  (1045) 
0.013427400000000001

>  <r_qp_CIQPlogS>  (1045) 
-6.944

>  <r_qp_EA(eV)>  (1045) 
1.3169999999999999

>  <r_qp_FISA>  (1045) 
128.41900000000001

>  <r_qp_FOSA>  (1045) 
135.328

>  <r_qp_IP(eV)>  (1045) 
8.7739999999999991

>  <r_qp_Jm>  (1045) 
0.0011562970266331999

>  <r_qp_PISA>  (1045) 
409.88799999999998

>  <r_qp_PSA>  (1045) 
81.581000000000003

>  <r_qp_PercentHumanOralAbsorption>  (1045) 
88.820999999999998

>  <r_qp_QPPCaco>  (1045) 
149.624

>  <r_qp_QPPMDCK>  (1045) 
80.641999999999996

>  <r_qp_QPlogBB>  (1045) 
-0.66400000000000003

>  <r_qp_QPlogHERG>  (1045) 
-6.5579999999999998

>  <r_qp_QPlogKhsa>  (1045) 
0.61799999999999999

>  <r_qp_QPlogKp>  (1045) 
-3.7370000000000001

>  <r_qp_QPlogPC16>  (1045) 
14.722

>  <r_qp_QPlogPo/w>  (1045) 
3.919

>  <r_qp_QPlogPoct>  (1045) 
23.52

>  <r_qp_QPlogPw>  (1045) 
12.599

>  <r_qp_QPlogS>  (1045) 
-4.8520000000000003

>  <r_qp_QPpolrz>  (1045) 
45.915999999999997

>  <r_qp_SASA>  (1045) 
684.59799999999996

>  <r_qp_SAamideO>  (1045) 
0

>  <r_qp_SAfluorine>  (1045) 
10.962999999999999

>  <r_qp_WPSA>  (1045) 
10.962999999999999

>  <r_qp_accptHB>  (1045) 
6.5

>  <r_qp_dip^2/V>  (1045) 
0.10766729999999999

>  <r_qp_dipole>  (1045) 
11.974

>  <r_qp_donorHB>  (1045) 
2

>  <r_qp_glob>  (1045) 
0.85504690000000005

>  <r_qp_mol_MW>  (1045) 
448.49799999999999

>  <r_qp_volume>  (1045) 
1331.6510000000001

>  <r_sd_BIOSOLVEIT.INFINISEE\_FTREES\_SIMILARITY>  (1045) 
0.90600000000000003

>  <r_sd_BIOSOLVEIT.LOGP>  (1045) 
4.1739800000000002

>  <r_sd_BIOSOLVEIT.MOLECULAR\_WEIGHT>  (1045) 
449.50700000000001

>  <r_sd_BIOSOLVEIT.TPSA>  (1045) 
82.390000000000001

>  <i_epik_Tot_Q>  (1045) 
0

>  <i_epik_Tot_abs_Q>  (1045) 
0

>  <i_f3d_flags>  (1045) 
0

>  <i_i_glide_confnum>  (1045) 
3

>  <i_i_glide_lignum>  (1045) 
1273

>  <i_i_glide_posenum>  (1045) 
16

>  <i_i_glide_rotatable_bonds>  (1045) 
8

>  <i_lp_mmshare_version>  (1045) 
65135

>  <i_m_ct_format>  (1045) 
2

>  <i_m_source_file_index>  (1045) 
2799

>  <i_qp_#NandO>  (1045) 
5

>  <i_qp_#acid>  (1045) 
0

>  <i_qp_#amide>  (1045) 
0

>  <i_qp_#amidine>  (1045) 
0

>  <i_qp_#amine>  (1045) 
1

>  <i_qp_#in34>  (1045) 
0

>  <i_qp_#in56>  (1045) 
22

>  <i_qp_#metab>  (1045) 
5

>  <i_qp_#nonHatm>  (1045) 
34

>  <i_qp_#noncon>  (1045) 
0

>  <i_qp_#ringatoms>  (1045) 
22

>  <i_qp_#rotor>  (1045) 
8

>  <i_qp_#rtvFG>  (1045) 
0

>  <i_qp_#stars>  (1045) 
0

>  <i_qp_CNS>  (1045) 
1

>  <i_qp_HumanOralAbsorption>  (1045) 
3

>  <i_qp_RuleOfFive>  (1045) 
0

>  <i_qp_RuleOfThree>  (1045) 
0

>  <i_sd_BIOSOLVEIT.INFINISEE\_RESULT\_RANK>  (1045) 
63627

>  <i_sd_version>  (1045) 
0

>  <b_lp_Chiralities_Consistent>  (1045) 
1

>  <b_sd_chiral_flag>  (1045) 
0

>  <canonical_id>  (1045) 
ATP-HTVS-A6D74CA540BA

>  <compound_code>  (1045) 
89537

>  <title>  (1045) 
rxn503b____EMOL483931____EMOL30488121____EMOL317509298

>  <variant>  (1045) 
89537-2

>  <source_file>  (1045) 
运行/运行/ATP-VSW/ATP-VSW-DOCK_HTVS_1-001_lib/ATP-VSW-DOCK_HTVS_1-001_lib

>  <canonical_smiles>  (1045) 
C[C@H](NCC#Cc1c(NC(=O)c2cccc(C#N)c2)cnc2ccccc12)c1ccccc1F

>  <scaffold>  (1045) 
O=C(Nc1cnc2ccccc2c1C#CCNCc1ccccc1)c1ccccc1

>  <molecular_formula>  (1045) 
C28H21FN4O

$$$$
ATP-HTVS-A7093622CBF0
     RDKit          3D

 70 73  0  0  0  0  0  0  0  0999 V2000
  200.3210  185.7470  157.8871 O   0  0  0  0  0  0  0  0  0  0  0  0
  199.3796  184.9801  158.0976 C   0  0  0  0  0  0  0  0  0  0  0  0
  199.4065  183.9896  159.0100 N   0  0  0  0  0  0  0  0  0  0  0  0
  200.4784  183.7303  159.9668 C   0  0  1  0  0  0  0  0  0  0  0  0
  201.4621  182.6444  159.5399 C   0  0  0  0  0  0  0  0  0  0  0  0
  202.2848  182.0358  160.5126 C   0  0  0  0  0  0  0  0  0  0  0  0
  203.2100  181.0451  160.1398 C   0  0  0  0  0  0  0  0  0  0  0  0
  203.3315  180.6620  158.7890 C   0  0  0  0  0  0  0  0  0  0  0  0
  202.5132  181.2662  157.8156 C   0  0  0  0  0  0  0  0  0  0  0  0
  201.5789  182.2498  158.1877 C   0  0  0  0  0  0  0  0  0  0  0  0
  198.0164  185.1483  157.3519 C   0  0  1  0  0  0  0  0  0  0  0  0
  198.0359  186.4290  156.7755 O   0  0  0  0  0  0  0  0  0  0  0  0
  196.8998  186.9070  156.0624 C   0  0  2  0  0  0  0  0  0  0  0  0
  197.7292  184.1270  156.3606 N   0  0  0  0  0  0  0  0  0  0  0  0
  198.3586  183.9568  155.1827 C   0  0  0  0  0  0  0  0  0  0  0  0
  199.2606  184.6911  154.7747 O   0  0  0  0  0  0  0  0  0  0  0  0
  197.8837  182.7456  154.3658 C   0  0  2  0  0  0  0  0  0  0  0  0
  198.7297  181.5403  154.7605 C   0  0  0  0  0  0  0  0  0  0  0  0
  198.1697  180.5099  155.5457 C   0  0  0  0  0  0  0  0  0  0  0  0
  198.9534  179.4017  155.9246 C   0  0  0  0  0  0  0  0  0  0  0  0
  200.3065  179.2996  155.5219 C   0  0  0  0  0  0  0  0  0  0  0  0
  201.1277  178.2114  155.8589 N   0  0  0  0  0  0  0  0  0  0  0  0
  200.6875  177.1294  156.7327 C   0  0  2  0  0  0  0  0  0  0  0  0
  200.7444  177.5369  158.2137 C   0  0  2  0  0  0  0  0  0  0  0  0
  201.5371  175.8788  156.4760 C   0  0  2  0  0  0  0  0  0  0  0  0
  200.8609  180.3374  154.7417 C   0  0  0  0  0  0  0  0  0  0  0  0
  200.0824  181.4496  154.3665 C   0  0  0  0  0  0  0  0  0  0  0  0
  197.8555  182.9746  152.8430 C   0  0  2  0  0  0  0  0  0  0  0  0
  196.9430  185.1438  158.4164 C   0  0  0  0  0  0  0  0  0  0  0  0
  196.5809  186.2187  159.3037 C   0  0  0  0  0  0  0  0  0  0  0  0
  195.5860  185.6985  160.1614 C   0  0  0  0  0  0  0  0  0  0  0  0
  195.3562  184.3760  159.8584 O   0  0  0  0  0  0  0  0  0  0  0  0
  196.1688  184.0745  158.8083 C   0  0  0  0  0  0  0  0  0  0  0  0
  194.9681  186.4542  161.1721 C   0  0  0  0  0  0  0  0  0  0  0  0
  195.3566  187.7957  161.3301 C   0  0  0  0  0  0  0  0  0  0  0  0
  196.3607  188.3462  160.5119 C   0  0  0  0  0  0  0  0  0  0  0  0
  196.9610  187.5661  159.5000 C   0  0  0  0  0  0  0  0  0  0  0  0
  198.5905  183.3978  159.0589 H   0  0  0  0  0  0  0  0  0  0  0  0
  201.0336  184.6380  160.2117 H   0  0  0  0  0  0  0  0  0  0  0  0
  199.9986  183.4415  160.9007 H   0  0  0  0  0  0  0  0  0  0  0  0
  202.1947  182.3238  161.5543 H   0  0  0  0  0  0  0  0  0  0  0  0
  203.8348  180.5690  160.8836 H   0  0  0  0  0  0  0  0  0  0  0  0
  204.0414  179.9046  158.4903 H   0  0  0  0  0  0  0  0  0  0  0  0
  202.6040  180.9815  156.7821 H   0  0  0  0  0  0  0  0  0  0  0  0
  200.9733  182.6835  157.4070 H   0  0  0  0  0  0  0  0  0  0  0  0
  197.1519  187.9042  155.6931 H   0  0  0  0  0  0  0  0  0  0  0  0
  196.0371  187.0135  156.7158 H   0  0  0  0  0  0  0  0  0  0  0  0
  196.6340  186.2695  155.2192 H   0  0  0  0  0  0  0  0  0  0  0  0
  196.8757  183.6090  156.4970 H   0  0  0  0  0  0  0  0  0  0  0  0
  196.8508  182.5399  154.6531 H   0  0  0  0  0  0  0  0  0  0  0  0
  197.1380  180.5502  155.8646 H   0  0  0  0  0  0  0  0  0  0  0  0
  198.4868  178.6452  156.5334 H   0  0  0  0  0  0  0  0  0  0  0  0
  202.0945  178.2012  155.5590 H   0  0  0  0  0  0  0  0  0  0  0  0
  199.6653  176.8542  156.4715 H   0  0  0  0  0  0  0  0  0  0  0  0
  200.3926  176.7350  158.8596 H   0  0  0  0  0  0  0  0  0  0  0  0
  200.1152  178.3990  158.4217 H   0  0  0  0  0  0  0  0  0  0  0  0
  201.7571  177.7901  158.5209 H   0  0  0  0  0  0  0  0  0  0  0  0
  201.1806  175.0441  157.0814 H   0  0  0  0  0  0  0  0  0  0  0  0
  202.5904  176.0454  156.7145 H   0  0  0  0  0  0  0  0  0  0  0  0
  201.4653  175.5850  155.4266 H   0  0  0  0  0  0  0  0  0  0  0  0
  201.8929  180.2900  154.4275 H   0  0  0  0  0  0  0  0  0  0  0  0
  200.5324  182.2346  153.7725 H   0  0  0  0  0  0  0  0  0  0  0  0
  198.8441  183.1633  152.4275 H   0  0  0  0  0  0  0  0  0  0  0  0
  197.2111  183.8112  152.5743 H   0  0  0  0  0  0  0  0  0  0  0  0
  197.4569  182.0916  152.3439 H   0  0  0  0  0  0  0  0  0  0  0  0
  196.1216  183.0475  158.4780 H   0  0  0  0  0  0  0  0  0  0  0  0
  194.1979  186.0129  161.7865 H   0  0  0  0  0  0  0  0  0  0  0  0
  194.8940  188.4056  162.0960 H   0  0  0  0  0  0  0  0  0  0  0  0
  196.6491  189.3820  160.6376 H   0  0  0  0  0  0  0  0  0  0  0  0
  197.7191  188.0078  158.8718 H   0  0  0  0  0  0  0  0  0  0  0  0
  1  2  2  0
  2  3  1  0
  2 11  1  0
  3  4  1  0
  3 38  1  0
  4  5  1  0
  4 39  1  1
  4 40  1  0
  5  6  2  0
  5 10  1  0
  6  7  1  0
  6 41  1  0
  7  8  2  0
  7 42  1  0
  8  9  1  0
  8 43  1  0
  9 10  2  0
  9 44  1  0
 10 45  1  0
 11 12  1  6
 11 14  1  0
 11 29  1  0
 12 13  1  0
 13 46  1  6
 13 47  1  0
 13 48  1  0
 14 15  1  0
 14 49  1  0
 15 16  2  0
 15 17  1  0
 17 18  1  0
 17 28  1  0
 17 50  1  1
 18 19  1  0
 18 27  2  0
 19 20  2  0
 19 51  1  0
 20 21  1  0
 20 52  1  0
 21 22  1  0
 21 26  2  0
 22 23  1  0
 22 53  1  0
 23 24  1  0
 23 25  1  0
 23 54  1  6
 24 55  1  1
 24 56  1  0
 24 57  1  0
 25 58  1  1
 25 59  1  0
 25 60  1  0
 26 27  1  0
 26 61  1  0
 27 62  1  0
 28 63  1  6
 28 64  1  0
 28 65  1  0
 29 30  1  0
 29 33  2  0
 30 31  1  0
 30 37  2  0
 31 32  1  0
 31 34  2  0
 32 33  1  0
 33 66  1  0
 34 35  1  0
 34 67  1  0
 35 36  2  0
 35 68  1  0
 36 37  1  0
 36 69  1  0
 37 70  1  0
M  END
>  <s_epik_cmdline>  (1046) 
J2VwaWtfcHl0aG9uJywgJy1waCcsICc3LjAwMDAwMCcsICctcGh0JywgJzIuMDAwMDAwJywgJy1tcycsICcxNicsICctdG4nLCAnOCcsICctbWEnLCAnMjAwJywgJy1pbWFlJywgJzxpbmZpbGUubWFlPicsICctb21hZScsICc8b3V0ZmlsZS5tYWU+Jw==

>  <s_epik_input>  (1046) 
W2NIXTFbY0hdW2NIXVtjSF1bY0hdYzFbQ0gyXVtOSF1DKD1PKVtDQF0oT1tDSDNdKShjMltjSF1vYyhjMjMpW2NIXVtjSF1bY0hdW2NIXTMpW05IXUMoPU8pW0NAQEhdKFtDSDNdKWM0W2NIXVtjSF1jKFtjSF1bY0hdNClbTkhdW0NIXShbQ0gzXSlbQ0gzXQ==

>  <s_i_glide_gridfile>  (1046) 
ATP-Grid

>  <s_lp_Force_Field>  (1046) 
OPLS_2005

>  <s_lp_Variant>  (1046) 
Timmer____107103830____107684799____54823033-3

>  <s_lp_label>  (1046) 
650_sdstereoexpander_3_neutralizer_1_epik_1_stereoizer_1

>  <s_m_source_file>  (1046) 
ATP-VSW-LIGPREP-003-in.maegz

>  <s_sd_BIOSOLVEIT.INFINISEE\_QUERY\_NAME>  (1046) 
Ref-Lig

>  <s_sd_BIOSOLVEIT.INFINISEE\_QUERY\_SMILES>  (1046) 
S(c1nc2c(cc1C[NH2+]Cc3ccc(cc3)C[NH+](C)C)cccc2)Cc4ccccc4

>  <s_sd_BIOSOLVEIT.INFINISEE\_REACTION\_NAME>  (1046) 
Timmer

>  <s_sd_BIOSOLVEIT.INFINISEE\_REAGENT1\_SMILES>  (1046) 
O=C(O)C(c1ccc(NC(C)C)cc1)C

>  <s_sd_BIOSOLVEIT.INFINISEE\_REAGENT2\_SMILES>  (1046) 
O1c2c(cccc2)C(C(OC)=N)=C1

>  <s_sd_BIOSOLVEIT.INFINISEE\_REAGENT3\_SMILES>  (1046) 
N(=C)Cc1ccccc1

>  <s_sd_BIOSOLVEIT.INFINISEE\_SPACE>  (1046) 
KnowledgeSpace_290tr_2019-05

>  <s_vsw_compound_code>  (1046) 
20771

>  <s_vsw_variant>  (1046) 
20771-3

>  <r_epik_Charging_Adjusted_Penalty>  (1046) 
0.017020372114158001

>  <r_epik_Ionization_Penalty>  (1046) 
0.017000000000000001

>  <r_epik_Ionization_Penalty_Charging>  (1046) 
0

>  <r_epik_Ionization_Penalty_Neutral>  (1046) 
0.017000000000000001

>  <r_epik_State_Penalty>  (1046) 
0.017000000000000001

>  <r_i_docking_score>  (1046) 
-4.2683923943093198

>  <r_i_glide_ecoul>  (1046) 
-2.7937672138214098

>  <r_i_glide_eff_state_penalty>  (1046) 
0.017000000000000001

>  <r_i_glide_einternal>  (1046) 
3.8552787303924601

>  <r_i_glide_emodel>  (1046) 
-54.8947430764578

>  <r_i_glide_energy>  (1046) 
-44.548005342483499

>  <r_i_glide_erotb>  (1046) 
0.65429088493660603

>  <r_i_glide_esite>  (1046) 
-0.0078049931578008398

>  <r_i_glide_evdw>  (1046) 
-41.754238128662102

>  <r_i_glide_gscore>  (1046) 
-4.2853923943093202

>  <r_i_glide_hbond>  (1046) 
0

>  <r_i_glide_ligand_efficiency>  (1046) 
-0.11536195660295499

>  <r_i_glide_ligand_efficiency_ln>  (1046) 
-0.92571424501060495

>  <r_i_glide_ligand_efficiency_sa>  (1046) 
-0.38441163217830498

>  <r_i_glide_lipo>  (1046) 
-2.38823321857378

>  <r_i_glide_metal>  (1046) 
-0

>  <r_i_glide_rewards>  (1046) 
-0.036868079008030102

>  <r_lp_Energy>  (1046) 
9.3951790000000006

>  <r_qp_ACxDN^.5/SA>  (1046) 
0.0123675

>  <r_qp_CIQPlogS>  (1046) 
-6.6600000000000001

>  <r_qp_EA(eV)>  (1046) 
0.39100000000000001

>  <r_qp_FISA>  (1046) 
42.942999999999998

>  <r_qp_FOSA>  (1046) 
361.28300000000002

>  <r_qp_IP(eV)>  (1046) 
8.3949999999999996

>  <r_qp_Jm>  (1046) 
1.7403212159891299

>  <r_qp_PISA>  (1046) 
384.12700000000001

>  <r_qp_PSA>  (1046) 
81.218999999999994

>  <r_qp_PercentHumanOralAbsorption>  (1046) 
100

>  <r_qp_QPPCaco>  (1046) 
2232.4520000000002

>  <r_qp_QPPMDCK>  (1046) 
2141.0639999999999

>  <r_qp_QPlogBB>  (1046) 
-0.46600000000000003

>  <r_qp_QPlogHERG>  (1046) 
-3.548

>  <r_qp_QPlogKhsa>  (1046) 
0.40799999999999997

>  <r_qp_QPlogKp>  (1046) 
0.002

>  <r_qp_QPlogPC16>  (1046) 
15.972

>  <r_qp_QPlogPo/w>  (1046) 
4.9640000000000004

>  <r_qp_QPlogPoct>  (1046) 
24.98

>  <r_qp_QPlogPw>  (1046) 
14.243

>  <r_qp_QPlogS>  (1046) 
-5.46

>  <r_qp_QPpolrz>  (1046) 
52.798000000000002

>  <r_qp_SASA>  (1046) 
788.35400000000004

>  <r_qp_SAamideO>  (1046) 
30.135999999999999

>  <r_qp_SAfluorine>  (1046) 
0

>  <r_qp_WPSA>  (1046) 
0

>  <r_qp_accptHB>  (1046) 
6.5

>  <r_qp_dip^2/V>  (1046) 
0.059221099999999999

>  <r_qp_dipole>  (1046) 
9.5559999999999992

>  <r_qp_donorHB>  (1046) 
2.25

>  <r_qp_glob>  (1046) 
0.81872140000000004

>  <r_qp_mol_MW>  (1046) 
499.608

>  <r_qp_volume>  (1046) 
1541.838

>  <r_sd_BIOSOLVEIT.INFINISEE\_FTREES\_SIMILARITY>  (1046) 
0.90700000000000003

>  <r_sd_BIOSOLVEIT.LOGP>  (1046) 
5.2885999999999997

>  <r_sd_BIOSOLVEIT.MOLECULAR\_WEIGHT>  (1046) 
499.608

>  <r_sd_BIOSOLVEIT.TPSA>  (1046) 
92.599999999999994

>  <i_epik_Tot_Q>  (1046) 
0

>  <i_epik_Tot_abs_Q>  (1046) 
0

>  <i_f3d_flags>  (1046) 
0

>  <i_i_glide_confnum>  (1046) 
5

>  <i_i_glide_lignum>  (1046) 
278

>  <i_i_glide_posenum>  (1046) 
4

>  <i_i_glide_rotatable_bonds>  (1046) 
12

>  <i_lp_mmshare_version>  (1046) 
65135

>  <i_m_ct_format>  (1046) 
2

>  <i_m_source_file_index>  (1046) 
650

>  <i_qp_#NandO>  (1046) 
7

>  <i_qp_#acid>  (1046) 
0

>  <i_qp_#amide>  (1046) 
2

>  <i_qp_#amidine>  (1046) 
0

>  <i_qp_#amine>  (1046) 
0

>  <i_qp_#in34>  (1046) 
0

>  <i_qp_#in56>  (1046) 
21

>  <i_qp_#metab>  (1046) 
6

>  <i_qp_#nonHatm>  (1046) 
37

>  <i_qp_#noncon>  (1046) 
0

>  <i_qp_#ringatoms>  (1046) 
21

>  <i_qp_#rotor>  (1046) 
10

>  <i_qp_#rtvFG>  (1046) 
0

>  <i_qp_#stars>  (1046) 
0

>  <i_qp_CNS>  (1046) 
-1

>  <i_qp_HumanOralAbsorption>  (1046) 
3

>  <i_qp_RuleOfFive>  (1046) 
0

>  <i_qp_RuleOfThree>  (1046) 
0

>  <i_sd_BIOSOLVEIT.INFINISEE\_REAGENT1\_NAME>  (1046) 
107103830

>  <i_sd_BIOSOLVEIT.INFINISEE\_REAGENT2\_NAME>  (1046) 
107684799

>  <i_sd_BIOSOLVEIT.INFINISEE\_REAGENT3\_NAME>  (1046) 
54823033

>  <i_sd_BIOSOLVEIT.INFINISEE\_RESULT\_RANK>  (1046) 
59365

>  <i_sd_version>  (1046) 
0

>  <b_lp_Chiralities_Consistent>  (1046) 
1

>  <b_sd_chiral_flag>  (1046) 
0

>  <canonical_id>  (1046) 
ATP-HTVS-A7093622CBF0

>  <compound_code>  (1046) 
20771

>  <title>  (1046) 
Timmer____107103830____107684799____54823033

>  <variant>  (1046) 
20771-3

>  <source_file>  (1046) 
运行/运行/ATP-VSW/ATP-VSW-DOCK_HTVS_1-003_lib/ATP-VSW-DOCK_HTVS_1-003_lib.mae

>  <canonical_smiles>  (1046) 
CO[C@@](NC(=O)[C@@H](C)c1ccc(NC(C)C)cc1)(C(=O)NCc1ccccc1)c1coc2ccccc12

>  <scaffold>  (1046) 
O=C(Cc1ccccc1)NC(C(=O)NCc1ccccc1)c1coc2ccccc12

>  <molecular_formula>  (1046) 
C30H33N3O4

$$$$
ATP-HTVS-A719F0D3C4DA
     RDKit          3D

 56 59  0  0  0  0  0  0  0  0999 V2000
  195.1069  187.3320  161.3390 Cl  0  0  0  0  0  0  0  0  0  0  0  0
  195.4766  186.0073  160.3082 C   0  0  0  0  0  0  0  0  0  0  0  0
  194.5061  185.0266  160.0639 C   0  0  0  0  0  0  0  0  0  0  0  0
  194.7822  183.9605  159.1834 C   0  0  0  0  0  0  0  0  0  0  0  0
  196.0392  183.8681  158.5323 C   0  0  0  0  0  0  0  0  0  0  0  0
  197.0246  184.8435  158.8325 C   0  0  0  0  0  0  0  0  0  0  0  0
  196.7416  185.9109  159.7082 C   0  0  0  0  0  0  0  0  0  0  0  0
  196.3510  182.7241  157.5496 C   0  0  1  0  0  0  0  0  0  0  0  0
  195.2197  181.8913  157.3368 O   0  0  0  0  0  0  0  0  0  0  0  0
  196.7819  183.3079  156.1829 C   0  0  1  0  0  0  0  0  0  0  0  0
  197.2342  182.2767  155.2615 N   0  0  0  0  0  0  0  0  0  0  0  0
  197.2780  182.6040  153.8918 C   0  0  0  0  0  0  0  0  0  0  0  0
  196.9884  181.6466  152.8921 C   0  0  0  0  0  0  0  0  0  0  0  0
  196.9534  182.0435  151.5244 C   0  0  0  0  0  0  0  0  0  0  0  0
  197.2302  183.4039  151.2059 C   0  0  0  0  0  0  0  0  0  0  0  0
  197.5738  184.2885  152.1628 N   0  0  0  0  0  0  0  0  0  0  0  0
  197.5900  183.9087  153.4527 C   0  0  0  0  0  0  0  0  0  0  0  0
  197.1063  183.7806  149.8396 N   0  0  0  0  0  0  0  0  0  0  0  0
  197.3705  184.9617  149.2495 C   0  0  0  0  0  0  0  0  0  0  0  0
  197.7623  185.9753  149.8232 O   0  0  0  0  0  0  0  0  0  0  0  0
  197.1450  184.9955  147.7383 C   0  0  1  0  0  0  0  0  0  0  0  0
  198.4116  184.6696  146.9717 C   0  0  0  0  0  0  0  0  0  0  0  0
  199.0391  185.6606  146.1867 C   0  0  0  0  0  0  0  0  0  0  0  0
  200.2140  185.3579  145.4728 C   0  0  0  0  0  0  0  0  0  0  0  0
  200.7638  184.0620  145.5383 C   0  0  0  0  0  0  0  0  0  0  0  0
  200.1350  183.0674  146.3125 C   0  0  0  0  0  0  0  0  0  0  0  0
  198.9583  183.3684  147.0211 C   0  0  0  0  0  0  0  0  0  0  0  0
  196.6537  181.0785  150.5336 C   0  0  0  0  0  0  0  0  0  0  0  0
  196.3561  179.7534  150.8893 C   0  0  0  0  0  0  0  0  0  0  0  0
  196.3994  179.3643  152.2367 C   0  0  0  0  0  0  0  0  0  0  0  0
  196.7307  180.2955  153.2328 C   0  0  0  0  0  0  0  0  0  0  0  0
  197.4436  181.8270  158.1317 C   0  0  2  0  0  0  0  0  0  0  0  0
  193.5355  185.0970  160.5285 H   0  0  0  0  0  0  0  0  0  0  0  0
  194.0145  183.2209  159.0110 H   0  0  0  0  0  0  0  0  0  0  0  0
  198.0101  184.7839  158.3926 H   0  0  0  0  0  0  0  0  0  0  0  0
  197.4891  186.6624  159.9190 H   0  0  0  0  0  0  0  0  0  0  0  0
  194.6105  182.2929  156.6952 H   0  0  0  0  0  0  0  0  0  0  0  0
  195.9524  183.8439  155.7347 H   0  0  0  0  0  0  0  0  0  0  0  0
  197.6044  184.0097  156.3158 H   0  0  0  0  0  0  0  0  0  0  0  0
  196.9045  181.3540  155.5213 H   0  0  0  0  0  0  0  0  0  0  0  0
  197.8672  184.6870  154.1458 H   0  0  0  0  0  0  0  0  0  0  0  0
  196.8118  183.0476  149.2186 H   0  0  0  0  0  0  0  0  0  0  0  0
  196.3595  184.2958  147.4462 H   0  0  0  0  0  0  0  0  0  0  0  0
  196.7925  185.9912  147.4778 H   0  0  0  0  0  0  0  0  0  0  0  0
  198.6272  186.6577  146.1289 H   0  0  0  0  0  0  0  0  0  0  0  0
  200.6956  186.1215  144.8786 H   0  0  0  0  0  0  0  0  0  0  0  0
  201.6703  183.8299  144.9991 H   0  0  0  0  0  0  0  0  0  0  0  0
  200.5560  182.0738  146.3688 H   0  0  0  0  0  0  0  0  0  0  0  0
  198.4854  182.5957  147.6086 H   0  0  0  0  0  0  0  0  0  0  0  0
  196.6415  181.3091  149.4804 H   0  0  0  0  0  0  0  0  0  0  0  0
  196.1046  179.0367  150.1244 H   0  0  0  0  0  0  0  0  0  0  0  0
  196.1796  178.3446  152.5182 H   0  0  0  0  0  0  0  0  0  0  0  0
  196.7664  179.9597  154.2603 H   0  0  0  0  0  0  0  0  0  0  0  0
  198.3722  182.3684  158.2839 H   0  0  0  0  0  0  0  0  0  0  0  0
  197.6655  180.9696  157.5037 H   0  0  0  0  0  0  0  0  0  0  0  0
  197.1276  181.4114  159.0833 H   0  0  0  0  0  0  0  0  0  0  0  0
  1  2  1  0
  2  3  1  0
  2  7  2  0
  3  4  2  0
  3 33  1  0
  4  5  1  0
  4 34  1  0
  5  6  2  0
  5  8  1  0
  6  7  1  0
  6 35  1  0
  7 36  1  0
  8  9  1  6
  8 10  1  0
  8 32  1  0
  9 37  1  0
 10 11  1  0
 10 38  1  6
 10 39  1  0
 11 12  1  0
 11 40  1  0
 12 13  2  0
 12 17  1  0
 13 14  1  0
 13 31  1  0
 14 15  2  0
 14 28  1  0
 15 16  1  0
 15 18  1  0
 16 17  2  0
 17 41  1  0
 18 19  1  0
 18 42  1  0
 19 20  2  0
 19 21  1  0
 21 22  1  0
 21 43  1  1
 21 44  1  0
 22 23  2  0
 22 27  1  0
 23 24  1  0
 23 45  1  0
 24 25  2  0
 24 46  1  0
 25 26  1  0
 25 47  1  0
 26 27  2  0
 26 48  1  0
 27 49  1  0
 28 29  2  0
 28 50  1  0
 29 30  1  0
 29 51  1  0
 30 31  2  0
 30 52  1  0
 31 53  1  0
 32 54  1  1
 32 55  1  0
 32 56  1  0
M  END
>  <s_epik_cmdline>  (1047) 
J2VwaWtfcHl0aG9uJywgJy1waCcsICc3LjAwMDAwMCcsICctcGh0JywgJzIuMDAwMDAwJywgJy1tcycsICcxNicsICctdG4nLCAnOCcsICctbWEnLCAnMjAwJywgJy1pbWFlJywgJzxpbmZpbGUubWFlPicsICctb21hZScsICc8b3V0ZmlsZS5tYWU+Jw==

>  <s_epik_input>  (1047) 
Q2xjMVtjSF1bY0hdYyhbY0hdW2NIXTEpW0NAXShbT0hdKShbQ0gzXSlbQ0gyXVtOSF1jMltjSF1uYyhjKGMyMylbY0hdW2NIXVtjSF1bY0hdMylbTkhdQyg9TylbQ0gyXWM0W2NIXVtjSF1bY0hdW2NIXVtjSF00

>  <s_i_glide_gridfile>  (1047) 
ATP-Grid

>  <s_lp_Force_Field>  (1047) 
OPLS_2005

>  <s_lp_Variant>  (1047) 
rxn502b____EMOL530620____EMOL7515103____EMOL13315001-1

>  <s_lp_label>  (1047) 
2332_sdstereoexpander_1_neutralizer_1_epik_1_stereoizer_1

>  <s_m_source_file>  (1047) 
ATP-VSW-LIGPREP-002-in.maegz

>  <s_sd_BIOSOLVEIT.INFINISEE\_QUERY\_NAME>  (1047) 
Ref-Lig

>  <s_sd_BIOSOLVEIT.INFINISEE\_QUERY\_SMILES>  (1047) 
S(c1nc2c(cc1C[NH2+]Cc3ccc(cc3)C[NH+](C)C)cccc2)Cc4ccccc4

>  <s_sd_BIOSOLVEIT.INFINISEE\_REACTION\_NAME>  (1047) 
rxn502b

>  <s_sd_BIOSOLVEIT.INFINISEE\_REAGENT1\_NAME>  (1047) 
EMOL530620

>  <s_sd_BIOSOLVEIT.INFINISEE\_REAGENT1\_SMILES>  (1047) 
ClC(=O)Cc1ccccc1

>  <s_sd_BIOSOLVEIT.INFINISEE\_REAGENT2\_NAME>  (1047) 
EMOL7515103

>  <s_sd_BIOSOLVEIT.INFINISEE\_REAGENT2\_SMILES>  (1047) 
Brc1c2c(c(nc1)N)cccc2

>  <s_sd_BIOSOLVEIT.INFINISEE\_REAGENT3\_NAME>  (1047) 
EMOL13315001

>  <s_sd_BIOSOLVEIT.INFINISEE\_REAGENT3\_SMILES>  (1047) 
Clc1ccc(cc1)C(O)(CN)C

>  <s_sd_BIOSOLVEIT.INFINISEE\_SPACE>  (1047) 
eXplore_7tr_2022-12

>  <s_vsw_compound_code>  (1047) 
74594

>  <s_vsw_variant>  (1047) 
74594-1

>  <r_epik_Charging_Adjusted_Penalty>  (1047) 
0.018582742641524

>  <r_epik_Ionization_Penalty>  (1047) 
0.016299999999999999

>  <r_epik_Ionization_Penalty_Charging>  (1047) 
0

>  <r_epik_Ionization_Penalty_Neutral>  (1047) 
0.016299999999999999

>  <r_epik_State_Penalty>  (1047) 
0.018599999999999998

>  <r_i_docking_score>  (1047) 
-5.0169331290994403

>  <r_i_glide_ecoul>  (1047) 
-4.7149772644043004

>  <r_i_glide_eff_state_penalty>  (1047) 
0.018599999999999998

>  <r_i_glide_einternal>  (1047) 
6.3109970092773402

>  <r_i_glide_emodel>  (1047) 
-54.127164296340503

>  <r_i_glide_energy>  (1047) 
-43.5127563476562

>  <r_i_glide_erotb>  (1047) 
0.60380312005720504

>  <r_i_glide_esite>  (1047) 
-0.0313525561219151

>  <r_i_glide_evdw>  (1047) 
-38.797779083252003

>  <r_i_glide_gscore>  (1047) 
-5.0355331290994396

>  <r_i_glide_hbond>  (1047) 
-0.16

>  <r_i_glide_ligand_efficiency>  (1047) 
-0.15677916028435701

>  <r_i_glide_ligand_efficiency_ln>  (1047) 
-1.12342808403743

>  <r_i_glide_ligand_efficiency_sa>  (1047) 
-0.497742807349145

>  <r_i_glide_lipo>  (1047) 
-2.1169237218354602

>  <r_i_glide_metal>  (1047) 
-0

>  <r_i_glide_rewards>  (1047) 
-0.68392442737602699

>  <r_lp_Energy>  (1047) 
30.639403000000001

>  <r_qp_ACxDN^.5/SA>  (1047) 
0.0144336

>  <r_qp_CIQPlogS>  (1047) 
-7.3090000000000002

>  <r_qp_EA(eV)>  (1047) 
0.94999999999999996

>  <r_qp_FISA>  (1047) 
94.209999999999994

>  <r_qp_FOSA>  (1047) 
142.30699999999999

>  <r_qp_IP(eV)>  (1047) 
7.9279999999999999

>  <r_qp_Jm>  (1047) 
1.02387362811789

>  <r_qp_PISA>  (1047) 
368.75200000000001

>  <r_qp_PSA>  (1047) 
75.421999999999997

>  <r_qp_PercentHumanOralAbsorption>  (1047) 
100

>  <r_qp_QPPCaco>  (1047) 
1266.2070000000001

>  <r_qp_QPPMDCK>  (1047) 
872.27200000000005

>  <r_qp_QPlogBB>  (1047) 
-0.63800000000000001

>  <r_qp_QPlogHERG>  (1047) 
-4.9560000000000004

>  <r_qp_QPlogKhsa>  (1047) 
0.61299999999999999

>  <r_qp_QPlogKp>  (1047) 
-1.1890000000000001

>  <r_qp_QPlogPC16>  (1047) 
14.119999999999999

>  <r_qp_QPlogPo/w>  (1047) 
4.5949999999999998

>  <r_qp_QPlogPoct>  (1047) 
22.062000000000001

>  <r_qp_QPlogPw>  (1047) 
12.193

>  <r_qp_QPlogS>  (1047) 
-4.4500000000000002

>  <r_qp_QPpolrz>  (1047) 
42.787999999999997

>  <r_qp_SASA>  (1047) 
630.00599999999997

>  <r_qp_SAamideO>  (1047) 
0

>  <r_qp_SAfluorine>  (1047) 
0

>  <r_qp_WPSA>  (1047) 
24.736000000000001

>  <r_qp_accptHB>  (1047) 
5.25

>  <r_qp_dip^2/V>  (1047) 
0.027634599999999999

>  <r_qp_dipole>  (1047) 
5.9089999999999998

>  <r_qp_donorHB>  (1047) 
3

>  <r_qp_glob>  (1047) 
0.89706609999999998

>  <r_qp_mol_MW>  (1047) 
445.947

>  <r_qp_volume>  (1047) 
1263.299

>  <r_sd_BIOSOLVEIT.INFINISEE\_FTREES\_SIMILARITY>  (1047) 
0.92100000000000004

>  <r_sd_BIOSOLVEIT.LOGP>  (1047) 
5.3890000000000002

>  <r_sd_BIOSOLVEIT.MOLECULAR\_WEIGHT>  (1047) 
445.94799999999998

>  <r_sd_BIOSOLVEIT.TPSA>  (1047) 
74.25

>  <i_epik_Tot_Q>  (1047) 
0

>  <i_epik_Tot_abs_Q>  (1047) 
0

>  <i_f3d_flags>  (1047) 
0

>  <i_i_glide_confnum>  (1047) 
2

>  <i_i_glide_lignum>  (1047) 
943

>  <i_i_glide_posenum>  (1047) 
11

>  <i_i_glide_rotatable_bonds>  (1047) 
9

>  <i_lp_mmshare_version>  (1047) 
65135

>  <i_m_ct_format>  (1047) 
2

>  <i_m_source_file_index>  (1047) 
2332

>  <i_qp_#NandO>  (1047) 
5

>  <i_qp_#acid>  (1047) 
0

>  <i_qp_#amide>  (1047) 
0

>  <i_qp_#amidine>  (1047) 
0

>  <i_qp_#amine>  (1047) 
0

>  <i_qp_#in34>  (1047) 
0

>  <i_qp_#in56>  (1047) 
22

>  <i_qp_#metab>  (1047) 
6

>  <i_qp_#nonHatm>  (1047) 
32

>  <i_qp_#noncon>  (1047) 
0

>  <i_qp_#ringatoms>  (1047) 
22

>  <i_qp_#rotor>  (1047) 
8

>  <i_qp_#rtvFG>  (1047) 
0

>  <i_qp_#stars>  (1047) 
0

>  <i_qp_CNS>  (1047) 
-1

>  <i_qp_HumanOralAbsorption>  (1047) 
3

>  <i_qp_RuleOfFive>  (1047) 
0

>  <i_qp_RuleOfThree>  (1047) 
0

>  <i_sd_BIOSOLVEIT.INFINISEE\_RESULT\_RANK>  (1047) 
14263

>  <i_sd_version>  (1047) 
0

>  <b_lp_Chiralities_Consistent>  (1047) 
1

>  <b_sd_chiral_flag>  (1047) 
0

>  <canonical_id>  (1047) 
ATP-HTVS-A719F0D3C4DA

>  <compound_code>  (1047) 
74594

>  <title>  (1047) 
rxn502b____EMOL530620____EMOL7515103____EMOL13315001

>  <variant>  (1047) 
74594-1

>  <source_file>  (1047) 
运行/运行/ATP-VSW/ATP-VSW-DOCK_HTVS_1-002_lib.maegz

>  <canonical_smiles>  (1047) 
C[C@](O)(CNc1cnc(NC(=O)Cc2ccccc2)c2ccccc12)c1ccc(Cl)cc1

>  <scaffold>  (1047) 
O=C(Cc1ccccc1)Nc1ncc(NCCc2ccccc2)c2ccccc12

>  <molecular_formula>  (1047) 
C26H24ClN3O2

$$$$
ATP-HTVS-A7693842EDE7
     RDKit          3D

 60 63  0  0  0  0  0  0  0  0999 V2000
  196.0028  188.0243  161.1543 Cl  0  0  0  0  0  0  0  0  0  0  0  0
  195.9386  186.4523  160.4348 C   0  0  0  0  0  0  0  0  0  0  0  0
  197.0752  185.6776  159.9925 C   0  0  0  0  0  0  0  0  0  0  0  0
  196.8651  184.4416  159.3479 C   0  0  0  0  0  0  0  0  0  0  0  0
  195.5777  183.8753  159.2663 C   0  0  0  0  0  0  0  0  0  0  0  0
  194.4919  184.6132  159.7836 C   0  0  0  0  0  0  0  0  0  0  0  0
  194.6619  185.8826  160.3516 C   0  0  0  0  0  0  0  0  0  0  0  0
  195.3274  182.5269  158.6951 C   0  0  0  0  0  0  0  0  0  0  0  0
  194.2743  181.9276  158.8663 O   0  0  0  0  0  0  0  0  0  0  0  0
  196.4425  181.8132  157.9081 C   0  0  1  0  0  0  0  0  0  0  0  0
  197.2793  182.7081  157.0952 N   0  0  0  0  0  0  0  0  0  0  0  0
  197.2095  182.7324  155.7116 C   0  0  0  0  0  0  0  0  0  0  0  0
  197.4562  183.9235  154.9735 C   0  0  0  0  0  0  0  0  0  0  0  0
  197.4083  183.9400  153.6312 N   0  0  0  0  0  0  0  0  0  0  0  0
  197.1264  182.8136  152.9522 C   0  0  0  0  0  0  0  0  0  0  0  0
  196.8916  181.5799  153.6130 C   0  0  0  0  0  0  0  0  0  0  0  0
  196.9355  181.5381  155.0078 C   0  0  0  0  0  0  0  0  0  0  0  0
  196.6208  180.4025  152.8941 C   0  0  0  0  0  0  0  0  0  0  0  0
  196.5674  180.4455  151.4873 C   0  0  0  0  0  0  0  0  0  0  0  0
  196.7928  181.6620  150.8207 C   0  0  0  0  0  0  0  0  0  0  0  0
  197.0688  182.8334  151.5415 C   0  0  0  0  0  0  0  0  0  0  0  0
  197.7292  185.1080  155.7181 N   0  0  0  0  0  0  0  0  0  0  0  0
  198.3209  186.2659  155.3088 C   0  0  0  0  0  0  0  0  0  0  0  0
  198.9064  186.3937  154.2167 O   0  0  0  0  0  0  0  0  0  0  0  0
  198.2788  187.4057  156.3111 C   0  0  0  0  0  0  0  0  0  0  0  0
  197.8089  187.1909  157.5811 C   0  0  0  0  0  0  0  0  0  0  0  0
  197.8617  188.2102  158.5380 C   0  0  0  0  0  0  0  0  0  0  0  0
  198.2478  189.4826  158.2644 C   0  0  0  0  0  0  0  0  0  0  0  0
  198.7147  189.7395  156.9628 C   0  0  0  0  0  0  0  0  0  0  0  0
  198.7622  188.6956  155.9937 C   0  0  0  0  0  0  0  0  0  0  0  0
  198.2486  190.5345  159.3622 C   0  0  1  0  0  0  0  0  0  0  0  0
  199.5306  190.6003  160.1253 N   0  0  1  0  0  0  0  0  0  0  0  0
  200.7263  190.4021  159.2702 C   0  0  2  0  0  0  0  0  0  0  0  0
  199.6561  191.8381  160.9331 C   0  0  2  0  0  0  0  0  0  0  0  0
  198.0749  186.0581  159.9247 H   0  0  0  0  0  0  0  0  0  0  0  0
  197.7582  184.0029  158.9648 H   0  0  0  0  0  0  0  0  0  0  0  0
  193.4948  184.2025  159.8083 H   0  0  0  0  0  0  0  0  0  0  0  0
  193.8642  186.4697  160.7103 H   0  0  0  0  0  0  0  0  0  0  0  0
  197.0833  181.2872  158.6161 H   0  0  0  0  0  0  0  0  0  0  0  0
  195.9684  181.0660  157.2850 H   0  0  0  0  0  0  0  0  0  0  0  0
  197.4659  183.5927  157.5609 H   0  0  0  0  0  0  0  0  0  0  0  0
  196.7846  180.6053  155.5233 H   0  0  0  0  0  0  0  0  0  0  0  0
  196.4442  179.4726  153.4183 H   0  0  0  0  0  0  0  0  0  0  0  0
  196.3557  179.5466  150.9357 H   0  0  0  0  0  0  0  0  0  0  0  0
  196.7601  181.6979  149.7463 H   0  0  0  0  0  0  0  0  0  0  0  0
  197.2490  183.7653  151.0342 H   0  0  0  0  0  0  0  0  0  0  0  0
  197.4044  185.0853  156.6681 H   0  0  0  0  0  0  0  0  0  0  0  0
  197.4547  186.2178  157.7871 H   0  0  0  0  0  0  0  0  0  0  0  0
  197.6871  187.9999  159.5661 H   0  0  0  0  0  0  0  0  0  0  0  0
  199.1067  190.7395  156.7269 H   0  0  0  0  0  0  0  0  0  0  0  0
  199.1743  188.9130  154.9893 H   0  0  0  0  0  0  0  0  0  0  0  0
  198.0535  191.5067  158.8848 H   0  0  0  0  0  0  0  0  0  0  0  0
  197.4322  190.3802  160.0668 H   0  0  0  0  0  0  0  0  0  0  0  0
  200.7829  191.1879  158.5136 H   0  0  0  0  0  0  0  0  0  0  0  0
  200.6919  189.4386  158.7583 H   0  0  0  0  0  0  0  0  0  0  0  0
  201.6418  190.4003  159.8517 H   0  0  0  0  0  0  0  0  0  0  0  0
  199.6183  192.7290  160.3037 H   0  0  0  0  0  0  0  0  0  0  0  0
  200.6050  191.8499  161.4747 H   0  0  0  0  0  0  0  0  0  0  0  0
  198.8588  191.9055  161.6702 H   0  0  0  0  0  0  0  0  0  0  0  0
  199.5264  189.8438  160.8064 H   0  0  0  0  0  0  0  0  0  0  0  0
  1  2  1  0
  2  3  1  0
  2  7  2  0
  3  4  2  0
  3 35  1  0
  4  5  1  0
  4 36  1  0
  5  6  2  0
  5  8  1  0
  6  7  1  0
  6 37  1  0
  7 38  1  0
  8  9  2  0
  8 10  1  0
 10 11  1  0
 10 39  1  1
 10 40  1  0
 11 12  1  0
 11 41  1  0
 12 13  1  0
 12 17  2  0
 13 14  2  0
 13 22  1  0
 14 15  1  0
 15 16  1  0
 15 21  2  0
 16 17  1  0
 16 18  2  0
 17 42  1  0
 18 19  1  0
 18 43  1  0
 19 20  2  0
 19 44  1  0
 20 21  1  0
 20 45  1  0
 21 46  1  0
 22 23  1  0
 22 47  1  0
 23 24  2  0
 23 25  1  0
 25 26  1  0
 25 30  2  0
 26 27  2  0
 26 48  1  0
 27 28  1  0
 27 49  1  0
 28 29  2  0
 28 31  1  0
 29 30  1  0
 29 50  1  0
 30 51  1  0
 31 32  1  0
 31 52  1  6
 31 53  1  0
 32 33  1  0
 32 34  1  0
 32 60  1  1
 33 54  1  6
 33 55  1  0
 33 56  1  0
 34 57  1  6
 34 58  1  0
 34 59  1  0
M  CHG  1  32   1
M  END
>  <s_epik_cmdline>  (1048) 
J2VwaWtfcHl0aG9uJywgJy1waCcsICc3LjAwMDAwMCcsICctcGh0JywgJzIuMDAwMDAwJywgJy1tcycsICcxNicsICctdG4nLCAnOCcsICctbWEnLCAnMjAwJywgJy1pbWFlJywgJzxpbmZpbGUubWFlPicsICctb21hZScsICc8b3V0ZmlsZS5tYWU+Jw==

>  <s_epik_input>  (1048) 
Q2xjMVtjSF1bY0hdYyhbY0hdW2NIXTEpQyg9TylbQ0gyXVtOSF1jKFtjSF1jKGMyMylbY0hdW2NIXVtjSF1bY0hdMyljKG4yKVtOSF1DKD1PKWM0W2NIXVtjSF1jKFtjSF1bY0hdNClbQ0gyXU4oW0NIM10pW0NIM10=

>  <s_i_glide_gridfile>  (1048) 
ATP-Grid

>  <s_lp_Force_Field>  (1048) 
OPLS_2005

>  <s_lp_Variant>  (1048) 
rxn502b____EMOL18624763____EMOL44466703____EMOL4851670-1

>  <s_lp_label>  (1048) 
2597_sdstereoexpander_1_neutralizer_1_epik_1_stereoizer_1

>  <s_m_source_file>  (1048) 
ATP-VSW-LIGPREP-002-in.maegz

>  <s_sd_BIOSOLVEIT.INFINISEE\_QUERY\_NAME>  (1048) 
Ref-Lig

>  <s_sd_BIOSOLVEIT.INFINISEE\_QUERY\_SMILES>  (1048) 
S(c1nc2c(cc1C[NH2+]Cc3ccc(cc3)C[NH+](C)C)cccc2)Cc4ccccc4

>  <s_sd_BIOSOLVEIT.INFINISEE\_REACTION\_NAME>  (1048) 
rxn502b

>  <s_sd_BIOSOLVEIT.INFINISEE\_REAGENT1\_NAME>  (1048) 
EMOL18624763

>  <s_sd_BIOSOLVEIT.INFINISEE\_REAGENT1\_SMILES>  (1048) 
O=C(O)c1ccc(cc1)CN(C)C

>  <s_sd_BIOSOLVEIT.INFINISEE\_REAGENT2\_NAME>  (1048) 
EMOL44466703

>  <s_sd_BIOSOLVEIT.INFINISEE\_REAGENT2\_SMILES>  (1048) 
Brc1c(nc2c(c1)cccc2)N

>  <s_sd_BIOSOLVEIT.INFINISEE\_REAGENT3\_NAME>  (1048) 
EMOL4851670

>  <s_sd_BIOSOLVEIT.INFINISEE\_REAGENT3\_SMILES>  (1048) 
Clc1ccc(cc1)C(=O)CN

>  <s_sd_BIOSOLVEIT.INFINISEE\_SPACE>  (1048) 
eXplore_7tr_2022-12

>  <s_vsw_compound_code>  (1048) 
83074

>  <s_vsw_variant>  (1048) 
83074-1

>  <r_epik_Charging_Adjusted_Penalty>  (1048) 
0.10433640840748

>  <r_epik_Ionization_Penalty>  (1048) 
0.052200000000000003

>  <r_epik_Ionization_Penalty_Charging>  (1048) 
0.052200000000000003

>  <r_epik_Ionization_Penalty_Neutral>  (1048) 
0

>  <r_epik_State_Penalty>  (1048) 
0.052200000000000003

>  <r_i_docking_score>  (1048) 
-4.7201532202072602

>  <r_i_glide_ecoul>  (1048) 
-4.9703898429870597

>  <r_i_glide_eff_state_penalty>  (1048) 
0.052200000000000003

>  <r_i_glide_einternal>  (1048) 
5.6773414611816397

>  <r_i_glide_emodel>  (1048) 
-61.156740660592803

>  <r_i_glide_energy>  (1048) 
-46.247443675994901

>  <r_i_glide_erotb>  (1048) 
0.63040258828407902

>  <r_i_glide_esite>  (1048) 
-0.16204534353579

>  <r_i_glide_evdw>  (1048) 
-41.277053833007798

>  <r_i_glide_gscore>  (1048) 
-4.7723532202072603

>  <r_i_glide_hbond>  (1048) 
-0.167432768985946

>  <r_i_glide_ligand_efficiency>  (1048) 
-0.138828035888449

>  <r_i_glide_ligand_efficiency_ln>  (1048) 
-1.0428142421570701

>  <r_i_glide_ligand_efficiency_sa>  (1048) 
-0.44974894288373402

>  <r_i_glide_lipo>  (1048) 
-2.0809143887916202

>  <r_i_glide_metal>  (1048) 
-0

>  <r_i_glide_rewards>  (1048) 
-0.18295213907953001

>  <r_lp_Energy>  (1048) 
38.048426999999997

>  <r_lp_tautomer_probability>  (1048) 
0.99990000499974996

>  <r_qp_ACxDN^.5/SA>  (1048) 
0.014344600000000001

>  <r_qp_CIQPlogS>  (1048) 
-5.657

>  <r_qp_EA(eV)>  (1048) 
1.1499999999999999

>  <r_qp_FISA>  (1048) 
97.170000000000002

>  <r_qp_FOSA>  (1048) 
203.239

>  <r_qp_IP(eV)>  (1048) 
8.3699999999999992

>  <r_qp_Jm>  (1048) 
0.00043986918216778402

>  <r_qp_PISA>  (1048) 
465.92200000000003

>  <r_qp_PSA>  (1048) 
89.433000000000007

>  <r_qp_PercentHumanOralAbsorption>  (1048) 
100

>  <r_qp_QPPCaco>  (1048) 
296.029

>  <r_qp_QPPMDCK>  (1048) 
362.58999999999997

>  <r_qp_QPlogBB>  (1048) 
-0.47899999999999998

>  <r_qp_QPlogHERG>  (1048) 
-8.4339999999999993

>  <r_qp_QPlogKhsa>  (1048) 
0.60699999999999998

>  <r_qp_QPlogKp>  (1048) 
-2.964

>  <r_qp_QPlogPC16>  (1048) 
17.373999999999999

>  <r_qp_QPlogPo/w>  (1048) 
4.5860000000000003

>  <r_qp_QPlogPoct>  (1048) 
25.911000000000001

>  <r_qp_QPlogPw>  (1048) 
15.128

>  <r_qp_QPlogS>  (1048) 
-6.0679999999999996

>  <r_qp_QPpolrz>  (1048) 
53.119999999999997

>  <r_qp_SASA>  (1048) 
838.00300000000004

>  <r_qp_SAamideO>  (1048) 
0

>  <r_qp_SAfluorine>  (1048) 
0

>  <r_qp_WPSA>  (1048) 
71.671000000000006

>  <r_qp_accptHB>  (1048) 
8.5

>  <r_qp_dip^2/V>  (1048) 
0.031367899999999997

>  <r_qp_dipole>  (1048) 
6.8559999999999999

>  <r_qp_donorHB>  (1048) 
2

>  <r_qp_glob>  (1048) 
0.75564469999999995

>  <r_qp_mol_MW>  (1048) 
472.97300000000001

>  <r_qp_volume>  (1048) 
1498.2940000000001

>  <r_sd_BIOSOLVEIT.INFINISEE\_FTREES\_SIMILARITY>  (1048) 
0.91100000000000003

>  <r_sd_BIOSOLVEIT.LOGP>  (1048) 
4.0797999999999996

>  <r_sd_BIOSOLVEIT.MOLECULAR\_WEIGHT>  (1048) 
473.98099999999999

>  <r_sd_BIOSOLVEIT.TPSA>  (1048) 
75.530000000000001

>  <i_epik_Tot_Q>  (1048) 
1

>  <i_epik_Tot_abs_Q>  (1048) 
1

>  <i_f3d_flags>  (1048) 
0

>  <i_i_glide_confnum>  (1048) 
3

>  <i_i_glide_lignum>  (1048) 
1178

>  <i_i_glide_posenum>  (1048) 
18

>  <i_i_glide_rotatable_bonds>  (1048) 
9

>  <i_lp_mmshare_version>  (1048) 
65135

>  <i_m_ct_format>  (1048) 
2

>  <i_m_source_file_index>  (1048) 
2597

>  <i_qp_#NandO>  (1048) 
6

>  <i_qp_#acid>  (1048) 
0

>  <i_qp_#amide>  (1048) 
0

>  <i_qp_#amidine>  (1048) 
0

>  <i_qp_#amine>  (1048) 
1

>  <i_qp_#in34>  (1048) 
0

>  <i_qp_#in56>  (1048) 
22

>  <i_qp_#metab>  (1048) 
5

>  <i_qp_#nonHatm>  (1048) 
34

>  <i_qp_#noncon>  (1048) 
0

>  <i_qp_#ringatoms>  (1048) 
22

>  <i_qp_#rotor>  (1048) 
8

>  <i_qp_#rtvFG>  (1048) 
0

>  <i_qp_#stars>  (1048) 
1

>  <i_qp_CNS>  (1048) 
1

>  <i_qp_HumanOralAbsorption>  (1048) 
3

>  <i_qp_RuleOfFive>  (1048) 
0

>  <i_qp_RuleOfThree>  (1048) 
1

>  <i_sd_BIOSOLVEIT.INFINISEE\_RESULT\_RANK>  (1048) 
41099

>  <i_sd_version>  (1048) 
0

>  <b_lp_Chiralities_Consistent>  (1048) 
1

>  <b_sd_chiral_flag>  (1048) 
0

>  <canonical_id>  (1048) 
ATP-HTVS-A7693842EDE7

>  <compound_code>  (1048) 
83074

>  <title>  (1048) 
rxn502b____EMOL18624763____EMOL44466703____EMOL4851670

>  <variant>  (1048) 
83074-1

>  <source_file>  (1048) 
运行/运行/ATP-VSW/ATP-VSW-DOCK_HTVS_1-002_lib.maegz

>  <canonical_smiles>  (1048) 
C[NH+](C)Cc1ccc(C(=O)Nc2nc3ccccc3cc2NCC(=O)c2ccc(Cl)cc2)cc1

>  <scaffold>  (1048) 
O=C(CNc1cc2ccccc2nc1NC(=O)c1ccccc1)c1ccccc1

>  <molecular_formula>  (1048) 
C27H26ClN4O2+

$$$$
ATP-HTVS-A7BD7D96AE57
     RDKit          3D

 45 48  0  0  0  0  0  0  0  0999 V2000
  193.8376  181.6440  158.3203 I   0  0  0  0  0  0  0  0  0  0  0  0
  195.0174  183.3046  158.8167 C   0  0  0  0  0  0  0  0  0  0  0  0
  196.2969  183.4976  158.2559 C   0  0  0  0  0  0  0  0  0  0  0  0
  196.7520  182.5627  157.2840 N   0  0  0  0  0  0  0  0  0  0  0  0
  198.0096  182.2764  156.9063 C   0  0  0  0  0  0  0  0  0  0  0  0
  199.0086  182.6978  157.5039 O   0  0  0  0  0  0  0  0  0  0  0  0
  198.0337  181.4234  155.7147 C   0  0  0  0  0  0  0  0  0  0  0  0
  198.9432  180.2486  155.6294 C   0  0  0  0  0  0  0  0  0  0  0  0
  198.8096  179.4230  154.4816 C   0  0  0  0  0  0  0  0  0  0  0  0
  199.6466  178.2958  154.3192 C   0  0  0  0  0  0  0  0  0  0  0  0
  200.5929  177.9469  155.2968 C   0  0  0  0  0  0  0  0  0  0  0  0
  200.7289  178.7575  156.4391 C   0  0  0  0  0  0  0  0  0  0  0  0
  199.9165  179.9008  156.6036 C   0  0  0  0  0  0  0  0  0  0  0  0
  197.7609  179.7289  153.4327 C   0  0  0  0  0  0  0  0  0  0  0  0
  197.5298  178.9246  152.5190 O   0  0  0  0  0  0  0  0  0  0  0  0
  197.1291  180.9277  153.5143 N   0  0  0  0  0  0  0  0  0  0  0  0
  197.2176  181.7124  154.6719 C   0  0  0  0  0  0  0  0  0  0  0  0
  196.2424  181.3996  152.4333 C   0  0  1  0  0  0  0  0  0  0  0  0
  196.9486  181.9874  151.2095 C   0  0  0  0  0  0  0  0  0  0  0  0
  196.8391  183.3696  150.9195 C   0  0  0  0  0  0  0  0  0  0  0  0
  197.5079  183.9170  149.7952 C   0  0  0  0  0  0  0  0  0  0  0  0
  198.3051  183.0906  148.9701 C   0  0  0  0  0  0  0  0  0  0  0  0
  198.4050  181.7191  149.2518 C   0  0  0  0  0  0  0  0  0  0  0  0
  197.7042  181.1651  150.3359 C   0  0  0  0  0  0  0  0  0  0  0  0
  197.0502  184.6460  158.6090 C   0  0  0  0  0  0  0  0  0  0  0  0
  196.5412  185.5686  159.5420 C   0  0  0  0  0  0  0  0  0  0  0  0
  195.2725  185.3616  160.1097 C   0  0  0  0  0  0  0  0  0  0  0  0
  194.5086  184.2425  159.7364 C   0  0  0  0  0  0  0  0  0  0  0  0
  196.0197  182.0305  156.8278 H   0  0  0  0  0  0  0  0  0  0  0  0
  199.5536  177.6645  153.4499 H   0  0  0  0  0  0  0  0  0  0  0  0
  201.2007  177.0580  155.1689 H   0  0  0  0  0  0  0  0  0  0  0  0
  201.4605  178.4938  157.1890 H   0  0  0  0  0  0  0  0  0  0  0  0
  200.0558  180.4811  157.5044 H   0  0  0  0  0  0  0  0  0  0  0  0
  196.5456  182.5554  154.6661 H   0  0  0  0  0  0  0  0  0  0  0  0
  195.5841  180.5950  152.1116 H   0  0  0  0  0  0  0  0  0  0  0  0
  195.5699  182.1610  152.8208 H   0  0  0  0  0  0  0  0  0  0  0  0
  196.2491  184.0198  151.5542 H   0  0  0  0  0  0  0  0  0  0  0  0
  197.4200  184.9765  149.5671 H   0  0  0  0  0  0  0  0  0  0  0  0
  198.8290  183.4947  148.1152 H   0  0  0  0  0  0  0  0  0  0  0  0
  199.0102  181.0659  148.6468 H   0  0  0  0  0  0  0  0  0  0  0  0
  197.7884  180.0807  150.4729 H   0  0  0  0  0  0  0  0  0  0  0  0
  198.0114  184.8397  158.1572 H   0  0  0  0  0  0  0  0  0  0  0  0
  197.1193  186.4408  159.8121 H   0  0  0  0  0  0  0  0  0  0  0  0
  194.8781  186.0657  160.8265 H   0  0  0  0  0  0  0  0  0  0  0  0
  193.5262  184.0968  160.1456 H   0  0  0  0  0  0  0  0  0  0  0  0
  1  2  1  0
  2  3  1  0
  2 28  2  0
  3  4  1  0
  3 25  2  0
  4  5  1  0
  4 29  1  0
  5  6  2  0
  5  7  1  0
  7  8  1  0
  7 17  2  0
  8  9  1  0
  8 13  2  0
  9 10  2  0
  9 14  1  0
 10 11  1  0
 10 30  1  0
 11 12  2  0
 11 31  1  0
 12 13  1  0
 12 32  1  0
 13 33  1  0
 14 15  2  0
 14 16  1  0
 16 17  1  0
 16 18  1  0
 17 34  1  0
 18 19  1  0
 18 35  1  6
 18 36  1  0
 19 20  2  0
 19 24  1  0
 20 21  1  0
 20 37  1  0
 21 22  2  0
 21 38  1  0
 22 23  1  0
 22 39  1  0
 23 24  2  0
 23 40  1  0
 24 41  1  0
 25 26  1  0
 25 42  1  0
 26 27  2  0
 26 43  1  0
 27 28  1  0
 27 44  1  0
 28 45  1  0
M  END
>  <s_epik_cmdline>  (1049) 
J2VwaWtfcHl0aG9uJywgJy1waCcsICc3LjAwMDAwMCcsICctcGh0JywgJzIuMDAwMDAwJywgJy1tcycsICcxNicsICctdG4nLCAnOCcsICctbWEnLCAnMjAwJywgJy1pbWFlJywgJzxpbmZpbGUubWFlPicsICctb21hZScsICc8b3V0ZmlsZS5tYWU+Jw==

>  <s_epik_input>  (1049) 
W2NIXTFbY0hdW2NIXVtjSF1jKGMxSSlbTkhdQyg9TyljMltjSF1uKGMoPU8pYyhjMjMpW2NIXVtjSF1bY0hdW2NIXTMpW0NIMl1jNFtjSF1bY0hdW2NIXVtjSF1bY0hdNA==

>  <s_i_glide_gridfile>  (1049) 
ATP-Grid

>  <s_lp_Force_Field>  (1049) 
OPLS_2005

>  <s_lp_Variant>  (1049) 
YAS_R001____OTV6666766____OTV7020410063-1

>  <s_lp_label>  (1049) 
140_sdstereoexpander_1_neutralizer_1_epik_1_stereoizer_1

>  <s_m_source_file>  (1049) 
ATP-VSW-LIGPREP-003-in.maegz

>  <s_sd_BIOSOLVEIT.INFINISEE\_QUERY\_NAME>  (1049) 
Ref-Lig

>  <s_sd_BIOSOLVEIT.INFINISEE\_QUERY\_SMILES>  (1049) 
S(c1nc2c(cc1C[NH2+]Cc3ccc(cc3)C[NH+](C)C)cccc2)Cc4ccccc4

>  <s_sd_BIOSOLVEIT.INFINISEE\_REACTION\_NAME>  (1049) 
YAS_R001

>  <s_sd_BIOSOLVEIT.INFINISEE\_REAGENT1\_NAME>  (1049) 
OTV6666766

>  <s_sd_BIOSOLVEIT.INFINISEE\_REAGENT1\_SMILES>  (1049) 
O=C1N(C=C(c2c1cccc2)C(=O)O)Cc3ccccc3

>  <s_sd_BIOSOLVEIT.INFINISEE\_REAGENT2\_NAME>  (1049) 
OTV7020410063

>  <s_sd_BIOSOLVEIT.INFINISEE\_REAGENT2\_SMILES>  (1049) 
Ic1c(N)cccc1

>  <s_sd_BIOSOLVEIT.INFINISEE\_SPACE>  (1049) 
CHEMriya_12bn_2022-01

>  <s_vsw_compound_code>  (1049) 
4451

>  <s_vsw_variant>  (1049) 
4451-1

>  <r_epik_Charging_Adjusted_Penalty>  (1049) 
2.0707354966268199e-08

>  <r_epik_Ionization_Penalty>  (1049) 
0

>  <r_epik_Ionization_Penalty_Charging>  (1049) 
0

>  <r_epik_Ionization_Penalty_Neutral>  (1049) 
0

>  <r_epik_State_Penalty>  (1049) 
-0

>  <r_i_docking_score>  (1049) 
-3.2397410036752201

>  <r_i_glide_ecoul>  (1049) 
-1.91566586494446

>  <r_i_glide_eff_state_penalty>  (1049) 
-0

>  <r_i_glide_einternal>  (1049) 
2.46522068977356

>  <r_i_glide_emodel>  (1049) 
-47.072754113297599

>  <r_i_glide_energy>  (1049) 
-39.910386323928797

>  <r_i_glide_erotb>  (1049) 
0.43951595978820601

>  <r_i_glide_esite>  (1049) 
-0.086634752242099503

>  <r_i_glide_evdw>  (1049) 
-37.994720458984403

>  <r_i_glide_gscore>  (1049) 
-3.2397410036752201

>  <r_i_glide_hbond>  (1049) 
0

>  <r_i_glide_ligand_efficiency>  (1049) 
-0.11570503584554399

>  <r_i_glide_ligand_efficiency_ln>  (1049) 
-0.74782734657745897

>  <r_i_glide_ligand_efficiency_sa>  (1049) 
-0.35134863544880102

>  <r_i_glide_lipo>  (1049) 
-1.27120278580317

>  <r_i_glide_metal>  (1049) 
-0

>  <r_i_glide_rewards>  (1049) 
-0.134333522727272

>  <r_lp_Energy>  (1049) 
39.535829999999997

>  <r_lp_tautomer_probability>  (1049) 
1

>  <r_qp_ACxDN^.5/SA>  (1049) 
0.0082412000000000006

>  <r_qp_CIQPlogS>  (1049) 
-8.1150000000000002

>  <r_qp_EA(eV)>  (1049) 
1.2090000000000001

>  <r_qp_FISA>  (1049) 
71.206000000000003

>  <r_qp_FOSA>  (1049) 
37.372

>  <r_qp_IP(eV)>  (1049) 
8.9009999999999998

>  <r_qp_Jm>  (1049) 
0.098987106396918295

>  <r_qp_PISA>  (1049) 
501.51900000000001

>  <r_qp_PSA>  (1049) 
59.851999999999997

>  <r_qp_PercentHumanOralAbsorption>  (1049) 
100

>  <r_qp_QPPCaco>  (1049) 
2092.4409999999998

>  <r_qp_QPPMDCK>  (1049) 
2263.1480000000001

>  <r_qp_QPlogBB>  (1049) 
-0.251

>  <r_qp_QPlogHERG>  (1049) 
-6.915

>  <r_qp_QPlogKhsa>  (1049) 
0.61299999999999999

>  <r_qp_QPlogKp>  (1049) 
-0.68100000000000005

>  <r_qp_QPlogPC16>  (1049) 
13.974

>  <r_qp_QPlogPo/w>  (1049) 
4.7789999999999999

>  <r_qp_QPlogPoct>  (1049) 
19.442

>  <r_qp_QPlogPw>  (1049) 
11.241

>  <r_qp_QPlogS>  (1049) 
-6.0049999999999999

>  <r_qp_QPpolrz>  (1049) 
43.814

>  <r_qp_SASA>  (1049) 
667.37599999999998

>  <r_qp_SAamideO>  (1049) 
0

>  <r_qp_SAfluorine>  (1049) 
0

>  <r_qp_WPSA>  (1049) 
57.279000000000003

>  <r_qp_accptHB>  (1049) 
5.5

>  <r_qp_dip^2/V>  (1049) 
0.0082622000000000008

>  <r_qp_dipole>  (1049) 
3.1400000000000001

>  <r_qp_donorHB>  (1049) 
1

>  <r_qp_glob>  (1049) 
0.81515349999999998

>  <r_qp_mol_MW>  (1049) 
480.30399999999997

>  <r_qp_volume>  (1049) 
1193.0740000000001

>  <r_sd_BIOSOLVEIT.INFINISEE\_FTREES\_SIMILARITY>  (1049) 
0.90300000000000002

>  <r_sd_BIOSOLVEIT.LOGP>  (1049) 
4.9066999999999998

>  <r_sd_BIOSOLVEIT.MOLECULAR\_WEIGHT>  (1049) 
480.29899999999998

>  <r_sd_BIOSOLVEIT.TPSA>  (1049) 
51.100000000000001

>  <i_epik_Tot_Q>  (1049) 
0

>  <i_epik_Tot_abs_Q>  (1049) 
0

>  <i_f3d_flags>  (1049) 
0

>  <i_i_glide_confnum>  (1049) 
6

>  <i_i_glide_lignum>  (1049) 
187

>  <i_i_glide_posenum>  (1049) 
15

>  <i_i_glide_rotatable_bonds>  (1049) 
5

>  <i_lp_mmshare_version>  (1049) 
65135

>  <i_m_ct_format>  (1049) 
2

>  <i_m_source_file_index>  (1049) 
140

>  <i_qp_#NandO>  (1049) 
4

>  <i_qp_#acid>  (1049) 
0

>  <i_qp_#amide>  (1049) 
0

>  <i_qp_#amidine>  (1049) 
0

>  <i_qp_#amine>  (1049) 
0

>  <i_qp_#in34>  (1049) 
0

>  <i_qp_#in56>  (1049) 
22

>  <i_qp_#metab>  (1049) 
2

>  <i_qp_#nonHatm>  (1049) 
28

>  <i_qp_#noncon>  (1049) 
0

>  <i_qp_#ringatoms>  (1049) 
22

>  <i_qp_#rotor>  (1049) 
4

>  <i_qp_#rtvFG>  (1049) 
0

>  <i_qp_#stars>  (1049) 
1

>  <i_qp_CNS>  (1049) 
0

>  <i_qp_HumanOralAbsorption>  (1049) 
3

>  <i_qp_RuleOfFive>  (1049) 
0

>  <i_qp_RuleOfThree>  (1049) 
1

>  <i_sd_BIOSOLVEIT.INFINISEE\_RESULT\_RANK>  (1049) 
79841

>  <i_sd_version>  (1049) 
0

>  <b_lp_Chiralities_Consistent>  (1049) 
1

>  <b_sd_chiral_flag>  (1049) 
0

>  <canonical_id>  (1049) 
ATP-HTVS-A7BD7D96AE57

>  <compound_code>  (1049) 
4451

>  <title>  (1049) 
YAS_R001____OTV6666766____OTV7020410063

>  <variant>  (1049) 
4451-1

>  <source_file>  (1049) 
运行/运行/ATP-VSW/ATP-VSW-DOCK_HTVS_1-003_lib/ATP-VSW-DOCK_HTVS_1-003_lib.mae

>  <canonical_smiles>  (1049) 
O=C(Nc1ccccc1I)c1cn(Cc2ccccc2)c(=O)c2ccccc12

>  <scaffold>  (1049) 
O=C(Nc1ccccc1)c1cn(Cc2ccccc2)c(=O)c2ccccc12

>  <molecular_formula>  (1049) 
C23H17IN2O2

$$$$
ATP-HTVS-A7EE593102BF
     RDKit          3D

 59 62  0  0  0  0  0  0  0  0999 V2000
  197.1110  180.1949  152.1870 Cl  0  0  0  0  0  0  0  0  0  0  0  0
  198.2598  179.4109  153.2200 C   0  0  0  0  0  0  0  0  0  0  0  0
  198.2691  179.6825  154.6045 C   0  0  0  0  0  0  0  0  0  0  0  0
  199.1316  179.1098  155.4602 N   0  0  0  0  0  0  0  0  0  0  0  0
  199.9861  178.1674  155.0214 C   0  0  0  0  0  0  0  0  0  0  0  0
  200.0340  177.7895  153.6528 C   0  0  0  0  0  0  0  0  0  0  0  0
  199.1644  178.4290  152.7248 C   0  0  0  0  0  0  0  0  0  0  0  0
  199.1347  178.0605  151.2990 C   0  0  0  0  0  0  0  0  0  0  0  0
  199.4713  179.0117  150.3146 C   0  0  0  0  0  0  0  0  0  0  0  0
  199.4415  178.6697  148.9503 C   0  0  0  0  0  0  0  0  0  0  0  0
  199.0849  177.3654  148.5597 C   0  0  0  0  0  0  0  0  0  0  0  0
  198.7440  176.4086  149.5337 C   0  0  0  0  0  0  0  0  0  0  0  0
  198.7592  176.7602  150.8972 C   0  0  0  0  0  0  0  0  0  0  0  0
  200.9469  176.7801  153.2508 C   0  0  0  0  0  0  0  0  0  0  0  0
  201.7887  176.1494  154.1884 C   0  0  0  0  0  0  0  0  0  0  0  0
  201.7416  176.5307  155.5376 C   0  0  0  0  0  0  0  0  0  0  0  0
  200.8459  177.5332  155.9484 C   0  0  0  0  0  0  0  0  0  0  0  0
  197.2748  180.6406  155.2317 C   0  0  1  0  0  0  0  0  0  0  0  0
  197.7300  182.0301  155.1217 N   0  0  0  0  0  0  0  0  0  0  0  0
  197.0915  183.0027  156.0082 C   0  0  2  0  0  0  0  0  0  0  0  0
  197.9219  184.3228  155.9442 C   0  0  1  0  0  0  0  0  0  0  0  0
  197.4907  185.3362  154.9859 N   0  0  0  0  0  0  0  0  0  0  0  0
  198.2899  186.5467  155.1410 C   0  0  2  0  0  0  0  0  0  0  0  0
  197.5328  184.8673  153.6105 C   0  0  2  0  0  0  0  0  0  0  0  0
  196.9628  182.4296  157.4358 C   0  0  1  0  0  0  0  0  0  0  0  0
  196.3054  183.3762  158.4102 C   0  0  0  0  0  0  0  0  0  0  0  0
  197.0873  184.2811  159.1621 C   0  0  0  0  0  0  0  0  0  0  0  0
  196.4668  185.2053  160.0165 C   0  0  0  0  0  0  0  0  0  0  0  0
  195.0622  185.1882  160.1630 C   0  0  0  0  0  0  0  0  0  0  0  0
  194.2826  184.2537  159.4523 C   0  0  0  0  0  0  0  0  0  0  0  0
  194.9054  183.3557  158.5663 C   0  0  0  0  0  0  0  0  0  0  0  0
  197.5494  182.3451  154.1712 H   0  0  0  0  0  0  0  0  0  0  0  0
  199.7456  180.0153  150.6127 H   0  0  0  0  0  0  0  0  0  0  0  0
  199.7008  179.4114  148.2087 H   0  0  0  0  0  0  0  0  0  0  0  0
  199.0781  177.0982  147.5170 H   0  0  0  0  0  0  0  0  0  0  0  0
  198.4818  175.4010  149.2434 H   0  0  0  0  0  0  0  0  0  0  0  0
  198.4964  176.0199  151.6430 H   0  0  0  0  0  0  0  0  0  0  0  0
  201.0165  176.4733  152.2177 H   0  0  0  0  0  0  0  0  0  0  0  0
  202.4710  175.3838  153.8541 H   0  0  0  0  0  0  0  0  0  0  0  0
  202.4048  176.0588  156.2542 H   0  0  0  0  0  0  0  0  0  0  0  0
  200.8171  177.8211  156.9905 H   0  0  0  0  0  0  0  0  0  0  0  0
  196.2891  180.5144  154.7869 H   0  0  0  0  0  0  0  0  0  0  0  0
  197.2092  180.3239  156.2543 H   0  0  0  0  0  0  0  0  0  0  0  0
  196.0819  183.1937  155.6434 H   0  0  0  0  0  0  0  0  0  0  0  0
  197.8841  184.8221  156.9038 H   0  0  0  0  0  0  0  0  0  0  0  0
  198.9771  184.0866  155.7944 H   0  0  0  0  0  0  0  0  0  0  0  0
  197.9548  187.3328  154.4646 H   0  0  0  0  0  0  0  0  0  0  0  0
  199.3439  186.3502  154.9397 H   0  0  0  0  0  0  0  0  0  0  0  0
  198.2114  186.9402  156.1554 H   0  0  0  0  0  0  0  0  0  0  0  0
  197.2527  185.6667  152.9193 H   0  0  0  0  0  0  0  0  0  0  0  0
  196.8255  184.0500  153.4657 H   0  0  0  0  0  0  0  0  0  0  0  0
  198.5345  184.5162  153.3556 H   0  0  0  0  0  0  0  0  0  0  0  0
  196.3514  181.5342  157.4289 H   0  0  0  0  0  0  0  0  0  0  0  0
  197.9387  182.1372  157.8157 H   0  0  0  0  0  0  0  0  0  0  0  0
  198.1624  184.2845  159.0576 H   0  0  0  0  0  0  0  0  0  0  0  0
  197.0663  185.9251  160.5554 H   0  0  0  0  0  0  0  0  0  0  0  0
  194.5788  185.9001  160.8202 H   0  0  0  0  0  0  0  0  0  0  0  0
  193.2079  184.2350  159.5621 H   0  0  0  0  0  0  0  0  0  0  0  0
  194.3126  182.6549  157.9971 H   0  0  0  0  0  0  0  0  0  0  0  0
  1  2  1  0
  2  3  1  0
  2  7  2  0
  3  4  2  0
  3 18  1  0
  4  5  1  0
  5  6  1  0
  5 17  2  0
  6  7  1  0
  6 14  2  0
  7  8  1  0
  8  9  2  0
  8 13  1  0
  9 10  1  0
  9 33  1  0
 10 11  2  0
 10 34  1  0
 11 12  1  0
 11 35  1  0
 12 13  2  0
 12 36  1  0
 13 37  1  0
 14 15  1  0
 14 38  1  0
 15 16  2  0
 15 39  1  0
 16 17  1  0
 16 40  1  0
 17 41  1  0
 18 19  1  0
 18 42  1  6
 18 43  1  0
 19 20  1  0
 19 32  1  0
 20 21  1  0
 20 25  1  0
 20 44  1  6
 21 22  1  0
 21 45  1  1
 21 46  1  0
 22 23  1  0
 22 24  1  0
 23 47  1  6
 23 48  1  0
 23 49  1  0
 24 50  1  6
 24 51  1  0
 24 52  1  0
 25 26  1  0
 25 53  1  6
 25 54  1  0
 26 27  2  0
 26 31  1  0
 27 28  1  0
 27 55  1  0
 28 29  2  0
 28 56  1  0
 29 30  1  0
 29 57  1  0
 30 31  2  0
 30 58  1  0
 31 59  1  0
M  END
>  <s_epik_cmdline>  (1050) 
J2VwaWtfcHl0aG9uJywgJy1waCcsICc3LjAwMDAwMCcsICctcGh0JywgJzIuMDAwMDAwJywgJy1tcycsICcxNicsICctdG4nLCAnOCcsICctbWEnLCAnMjAwJywgJy1pbWFlJywgJzxpbmZpbGUubWFlPicsICctb21hZScsICc8b3V0ZmlsZS5tYWU+Jw==

>  <s_epik_input>  (1050) 
W2NIXTFbY0hdW2NIXVtjSF1bY0hdYzEtYyhjKGMyMylbY0hdW2NIXVtjSF1bY0hdMyljKENsKWMobjIpW0NIMl1bTkhdW0NASF0oW0NIMl1OKFtDSDNdKVtDSDNdKVtDSDJdYzRbY0hdW2NIXVtjSF1bY0hdW2NIXTQ=

>  <s_i_glide_gridfile>  (1050) 
ATP-Grid

>  <s_lp_Force_Field>  (1050) 
OPLS_2005

>  <s_lp_Variant>  (1050) 
m_2230bbb____22397410____7471132-6

>  <s_lp_label>  (1050) 
1048_sdstereoexpander_2_neutralizer_1_epik_3_stereoizer_1

>  <s_m_source_file>  (1050) 
ATP-VSW-LIGPREP-001-in.maegz

>  <s_sd_BIOSOLVEIT.INFINISEE\_QUERY\_NAME>  (1050) 
Ref-Lig

>  <s_sd_BIOSOLVEIT.INFINISEE\_QUERY\_SMILES>  (1050) 
S(c1nc2c(cc1C[NH2+]Cc3ccc(cc3)C[NH+](C)C)cccc2)Cc4ccccc4

>  <s_sd_BIOSOLVEIT.INFINISEE\_REACTION\_NAME>  (1050) 
m_2230bbb

>  <s_sd_BIOSOLVEIT.INFINISEE\_REAGENT1\_SMILES>  (1050) 
[R1*]NC(CN(C)C)Cc1ccccc1

>  <s_sd_BIOSOLVEIT.INFINISEE\_REAGENT2\_SMILES>  (1050) 
[R1*]Cc1nc2c(c(c1Cl)c3ccccc3)cccc2

>  <s_sd_BIOSOLVEIT.INFINISEE\_SPACE>  (1050) 
REALSpace_44bn_2023-08

>  <s_vsw_compound_code>  (1050) 
33505

>  <s_vsw_variant>  (1050) 
33505-6

>  <r_epik_Charging_Adjusted_Penalty>  (1050) 
2.0801523893636999

>  <r_epik_Ionization_Penalty>  (1050) 
3.2338

>  <r_epik_Ionization_Penalty_Charging>  (1050) 
0

>  <r_epik_Ionization_Penalty_Neutral>  (1050) 
3.2338

>  <r_epik_State_Penalty>  (1050) 
2.0802

>  <r_i_docking_score>  (1050) 
-1.1698147240760499

>  <r_i_glide_ecoul>  (1050) 
-0.79404872655868497

>  <r_i_glide_eff_state_penalty>  (1050) 
2.0802

>  <r_i_glide_einternal>  (1050) 
5.1247258186340297

>  <r_i_glide_emodel>  (1050) 
-41.839300928097103

>  <r_i_glide_energy>  (1050) 
-36.793579518794999

>  <r_i_glide_erotb>  (1050) 
0.64506316639007999

>  <r_i_glide_esite>  (1050) 
0

>  <r_i_glide_evdw>  (1050) 
-35.9995307922363

>  <r_i_glide_gscore>  (1050) 
-3.25001472407605

>  <r_i_glide_hbond>  (1050) 
0

>  <r_i_glide_ligand_efficiency>  (1050) 
-0.037735958841162799

>  <r_i_glide_ligand_efficiency_ln>  (1050) 
-0.26382907079495799

>  <r_i_glide_ligand_efficiency_sa>  (1050) 
-0.118543010867375

>  <r_i_glide_lipo>  (1050) 
-1.49861236005233

>  <r_i_glide_metal>  (1050) 
-0

>  <r_i_glide_rewards>  (1050) 
-0.47738168181818103

>  <r_lp_Energy>  (1050) 
35.815902999999999

>  <r_qp_ACxDN^.5/SA>  (1050) 
0.0068120999999999998

>  <r_qp_CIQPlogS>  (1050) 
-5.3899999999999997

>  <r_qp_EA(eV)>  (1050) 
0.94299999999999995

>  <r_qp_FISA>  (1050) 
20.335999999999999

>  <r_qp_FOSA>  (1050) 
213.87299999999999

>  <r_qp_IP(eV)>  (1050) 
8.827

>  <r_qp_Jm>  (1050) 
0.0581648725489467

>  <r_qp_PISA>  (1050) 
400.72399999999999

>  <r_qp_PSA>  (1050) 
27.414000000000001

>  <r_qp_PercentHumanOralAbsorption>  (1050) 
100

>  <r_qp_QPPCaco>  (1050) 
395.23700000000002

>  <r_qp_QPPMDCK>  (1050) 
306.85300000000001

>  <r_qp_QPlogBB>  (1050) 
0.76300000000000001

>  <r_qp_QPlogHERG>  (1050) 
-6.9720000000000004

>  <r_qp_QPlogKhsa>  (1050) 
0.95699999999999996

>  <r_qp_QPlogKp>  (1050) 
-3.8399999999999999

>  <r_qp_QPlogPC16>  (1050) 
13.643000000000001

>  <r_qp_QPlogPo/w>  (1050) 
4.9539999999999997

>  <r_qp_QPlogPoct>  (1050) 
18.602

>  <r_qp_QPlogPw>  (1050) 
8.3140000000000001

>  <r_qp_QPlogS>  (1050) 
-3.0289999999999999

>  <r_qp_QPpolrz>  (1050) 
44.527999999999999

>  <r_qp_SASA>  (1050) 
660.59299999999996

>  <r_qp_SAamideO>  (1050) 
0

>  <r_qp_SAfluorine>  (1050) 
0

>  <r_qp_WPSA>  (1050) 
25.661000000000001

>  <r_qp_accptHB>  (1050) 
4.5

>  <r_qp_dip^2/V>  (1050) 
0.00048450000000000001

>  <r_qp_dipole>  (1050) 
0.79300000000000004

>  <r_qp_donorHB>  (1050) 
1

>  <r_qp_glob>  (1050) 
0.87164079999999999

>  <r_qp_mol_MW>  (1050) 
429.99099999999999

>  <r_qp_volume>  (1050) 
1299.1510000000001

>  <r_sd_BIOSOLVEIT.INFINISEE\_FTREES\_SIMILARITY>  (1050) 
0.91500000000000004

>  <r_sd_BIOSOLVEIT.LOGP>  (1050) 
3.3744000000000001

>  <r_sd_BIOSOLVEIT.MOLECULAR\_WEIGHT>  (1050) 
432.00799999999998

>  <r_sd_BIOSOLVEIT.TPSA>  (1050) 
33.939999999999998

>  <i_epik_Tot_Q>  (1050) 
0

>  <i_epik_Tot_abs_Q>  (1050) 
0

>  <i_f3d_flags>  (1050) 
0

>  <i_i_glide_confnum>  (1050) 
14

>  <i_i_glide_lignum>  (1050) 
233

>  <i_i_glide_posenum>  (1050) 
3

>  <i_i_glide_rotatable_bonds>  (1050) 
8

>  <i_lp_mmshare_version>  (1050) 
65135

>  <i_m_ct_format>  (1050) 
2

>  <i_m_source_file_index>  (1050) 
1048

>  <i_qp_#NandO>  (1050) 
3

>  <i_qp_#acid>  (1050) 
0

>  <i_qp_#amide>  (1050) 
0

>  <i_qp_#amidine>  (1050) 
0

>  <i_qp_#amine>  (1050) 
2

>  <i_qp_#in34>  (1050) 
0

>  <i_qp_#in56>  (1050) 
22

>  <i_qp_#metab>  (1050) 
4

>  <i_qp_#nonHatm>  (1050) 
31

>  <i_qp_#noncon>  (1050) 
0

>  <i_qp_#ringatoms>  (1050) 
22

>  <i_qp_#rotor>  (1050) 
8

>  <i_qp_#rtvFG>  (1050) 
0

>  <i_qp_#stars>  (1050) 
1

>  <i_qp_CNS>  (1050) 
2

>  <i_qp_HumanOralAbsorption>  (1050) 
3

>  <i_qp_RuleOfFive>  (1050) 
0

>  <i_qp_RuleOfThree>  (1050) 
0

>  <i_sd_BIOSOLVEIT.INFINISEE\_REAGENT1\_NAME>  (1050) 
22397410

>  <i_sd_BIOSOLVEIT.INFINISEE\_REAGENT2\_NAME>  (1050) 
7471132

>  <i_sd_BIOSOLVEIT.INFINISEE\_RESULT\_RANK>  (1050) 
29553

>  <i_sd_version>  (1050) 
0

>  <b_lp_Chiralities_Consistent>  (1050) 
1

>  <b_sd_chiral_flag>  (1050) 
0

>  <canonical_id>  (1050) 
ATP-HTVS-A7EE593102BF

>  <compound_code>  (1050) 
33505

>  <title>  (1050) 
m_2230bbb____22397410____7471132

>  <variant>  (1050) 
33505-6

>  <source_file>  (1050) 
运行/运行/ATP-VSW/ATP-VSW-DOCK_HTVS_1-001_lib/ATP-VSW-DOCK_HTVS_1-001_lib

>  <canonical_smiles>  (1050) 
CN(C)C[C@H](Cc1ccccc1)NCc1nc2ccccc2c(-c2ccccc2)c1Cl

>  <scaffold>  (1050) 
c1ccc(CCNCc2cc(-c3ccccc3)c3ccccc3n2)cc1

>  <molecular_formula>  (1050) 
C27H28ClN3

$$$$
ATP-HTVS-A8111C46748E
     RDKit          3D

 57 59  0  0  0  0  0  0  0  0999 V2000
  201.1482  183.0803  159.3716 Cl  0  0  0  0  0  0  0  0  0  0  0  0
  200.2058  182.6696  157.9996 C   0  0  0  0  0  0  0  0  0  0  0  0
  200.9076  181.6202  156.8123 S   0  0  0  0  0  0  0  0  0  0  0  0
  199.4311  181.6606  155.8909 C   0  0  0  0  0  0  0  0  0  0  0  0
  199.4561  180.9316  154.6167 C   0  0  0  0  0  0  0  0  0  0  0  0
  199.6492  181.5760  153.5893 O   0  0  0  0  0  0  0  0  0  0  0  0
  199.2835  179.5830  154.6322 N   0  0  0  0  0  0  0  0  0  0  0  0
  199.3495  178.7552  153.4081 C   0  0  2  0  0  0  0  0  0  0  0  0
  200.7340  178.6686  152.8769 C   0  0  0  0  0  0  0  0  0  0  0  0
  201.8086  178.5861  152.4685 N   0  0  0  0  0  0  0  0  0  0  0  0
  198.3139  179.0408  152.3153 C   0  0  0  0  0  0  0  0  0  0  0  0
  198.4469  178.4376  151.0387 C   0  0  0  0  0  0  0  0  0  0  0  0
  197.5347  178.7066  150.0035 C   0  0  0  0  0  0  0  0  0  0  0  0
  196.4610  179.5921  150.2327 C   0  0  0  0  0  0  0  0  0  0  0  0
  196.2973  180.1644  151.5108 C   0  0  0  0  0  0  0  0  0  0  0  0
  197.1817  179.8644  152.5628 C   0  0  0  0  0  0  0  0  0  0  0  0
  199.1986  178.8186  155.8845 C   0  0  2  0  0  0  0  0  0  0  0  0
  198.4783  182.4686  156.4588 C   0  0  0  0  0  0  0  0  0  0  0  0
  198.9261  183.0447  157.6874 C   0  0  0  0  0  0  0  0  0  0  0  0
  198.1468  183.9132  158.4642 N   0  0  0  0  0  0  0  0  0  0  0  0
  196.7973  184.3196  158.1324 C   0  0  1  0  0  0  0  0  0  0  0  0
  196.2033  185.2494  159.1699 C   0  0  0  0  0  0  0  0  0  0  0  0
  196.8914  186.4217  159.5384 C   0  0  0  0  0  0  0  0  0  0  0  0
  196.3217  187.3336  160.4532 C   0  0  0  0  0  0  0  0  0  0  0  0
  195.0681  187.0337  161.0344 C   0  0  0  0  0  0  0  0  0  0  0  0
  194.3838  185.8574  160.6719 C   0  0  0  0  0  0  0  0  0  0  0  0
  194.9497  184.9609  159.7428 C   0  0  0  0  0  0  0  0  0  0  0  0
  197.0456  188.6343  160.7848 C   0  0  1  0  0  0  0  0  0  0  0  0
  196.7499  189.7300  159.8206 N   0  0  1  0  0  0  0  0  0  0  0  0
  197.2731  191.0278  160.2938 C   0  0  2  0  0  0  0  0  0  0  0  0
  197.1808  189.4577  158.4234 C   0  0  2  0  0  0  0  0  0  0  0  0
  199.1622  177.7223  153.6763 H   0  0  0  0  0  0  0  0  0  0  0  0
  199.2811  177.7683  150.8358 H   0  0  0  0  0  0  0  0  0  0  0  0
  197.6673  178.2584  149.0272 H   0  0  0  0  0  0  0  0  0  0  0  0
  195.7752  179.8459  149.4344 H   0  0  0  0  0  0  0  0  0  0  0  0
  195.4990  180.8653  151.6982 H   0  0  0  0  0  0  0  0  0  0  0  0
  196.9719  180.2679  153.5415 H   0  0  0  0  0  0  0  0  0  0  0  0
  198.6035  179.3351  156.6371 H   0  0  0  0  0  0  0  0  0  0  0  0
  200.1932  178.6532  156.3048 H   0  0  0  0  0  0  0  0  0  0  0  0
  198.7304  177.8429  155.7607 H   0  0  0  0  0  0  0  0  0  0  0  0
  197.5169  182.6676  156.0115 H   0  0  0  0  0  0  0  0  0  0  0  0
  198.5256  184.2101  159.3469 H   0  0  0  0  0  0  0  0  0  0  0  0
  196.8138  184.8389  157.1712 H   0  0  0  0  0  0  0  0  0  0  0  0
  196.1616  183.4382  158.0033 H   0  0  0  0  0  0  0  0  0  0  0  0
  197.8495  186.6370  159.0901 H   0  0  0  0  0  0  0  0  0  0  0  0
  194.6072  187.7175  161.7339 H   0  0  0  0  0  0  0  0  0  0  0  0
  193.4073  185.6467  161.0837 H   0  0  0  0  0  0  0  0  0  0  0  0
  194.4080  184.0671  159.4572 H   0  0  0  0  0  0  0  0  0  0  0  0
  196.7449  188.9493  161.7882 H   0  0  0  0  0  0  0  0  0  0  0  0
  198.1208  188.4755  160.8362 H   0  0  0  0  0  0  0  0  0  0  0  0
  198.3577  190.9936  160.4071 H   0  0  0  0  0  0  0  0  0  0  0  0
  196.8400  191.3026  161.2554 H   0  0  0  0  0  0  0  0  0  0  0  0
  197.0355  191.8208  159.5825 H   0  0  0  0  0  0  0  0  0  0  0  0
  198.2607  189.2934  158.3896 H   0  0  0  0  0  0  0  0  0  0  0  0
  196.9530  190.2997  157.7698 H   0  0  0  0  0  0  0  0  0  0  0  0
  196.6876  188.5831  157.9942 H   0  0  0  0  0  0  0  0  0  0  0  0
  195.7388  189.8107  159.7931 H   0  0  0  0  0  0  0  0  0  0  0  0
  1  2  1  0
  2  3  1  0
  2 19  2  0
  3  4  1  0
  4  5  1  0
  4 18  2  0
  5  6  2  0
  5  7  1  0
  7  8  1  0
  7 17  1  0
  8  9  1  0
  8 11  1  0
  8 32  1  1
  9 10  3  0
 11 12  2  0
 11 16  1  0
 12 13  1  0
 12 33  1  0
 13 14  2  0
 13 34  1  0
 14 15  1  0
 14 35  1  0
 15 16  2  0
 15 36  1  0
 16 37  1  0
 17 38  1  1
 17 39  1  0
 17 40  1  0
 18 19  1  0
 18 41  1  0
 19 20  1  0
 20 21  1  0
 20 42  1  0
 21 22  1  0
 21 43  1  6
 21 44  1  0
 22 23  2  0
 22 27  1  0
 23 24  1  0
 23 45  1  0
 24 25  2  0
 24 28  1  0
 25 26  1  0
 25 46  1  0
 26 27  2  0
 26 47  1  0
 27 48  1  0
 28 29  1  0
 28 49  1  1
 28 50  1  0
 29 30  1  0
 29 31  1  0
 29 57  1  6
 30 51  1  1
 30 52  1  0
 30 53  1  0
 31 54  1  1
 31 55  1  0
 31 56  1  0
M  CHG  1  29   1
M  END
>  <s_epik_cmdline>  (1051) 
J2VwaWtfcHl0aG9uJywgJy1waCcsICc3LjAwMDAwMCcsICctcGh0JywgJzIuMDAwMDAwJywgJy1tcycsICcxNicsICctdG4nLCAnOCcsICctbWEnLCAnMjAwJywgJy1pbWFlJywgJzxpbmZpbGUubWFlPicsICctb21hZScsICc8b3V0ZmlsZS5tYWU+Jw==

>  <s_epik_input>  (1051) 
W2NIXTFbY0hdW2NIXVtjSF1bY0hdYzFbQ0BASF0oQyNOKU4oW0NIM10pQyg9TyljKHNjMkNsKVtjSF1jMltOSF1bQ0gyXWMzW2NIXWMoW2NIXVtjSF1bY0hdMylbQ0gyXU4oW0NIM10pW0NIM10=

>  <s_i_glide_gridfile>  (1051) 
ATP-Grid

>  <s_lp_Force_Field>  (1051) 
OPLS_2005

>  <s_lp_Variant>  (1051) 
rxn512b____EMOL24630243____EMOL44846536____EMOL2873214-2

>  <s_lp_label>  (1051) 
2307_sdstereoexpander_2_neutralizer_1_epik_1_stereoizer_1

>  <s_m_source_file>  (1051) 
ATP-VSW-LIGPREP-002-in.maegz

>  <s_sd_BIOSOLVEIT.INFINISEE\_QUERY\_NAME>  (1051) 
Ref-Lig

>  <s_sd_BIOSOLVEIT.INFINISEE\_QUERY\_SMILES>  (1051) 
S(c1nc2c(cc1C[NH2+]Cc3ccc(cc3)C[NH+](C)C)cccc2)Cc4ccccc4

>  <s_sd_BIOSOLVEIT.INFINISEE\_REACTION\_NAME>  (1051) 
rxn512b

>  <s_sd_BIOSOLVEIT.INFINISEE\_REAGENT1\_NAME>  (1051) 
EMOL24630243

>  <s_sd_BIOSOLVEIT.INFINISEE\_REAGENT1\_SMILES>  (1051) 
N#CC(NC)c1ccccc1

>  <s_sd_BIOSOLVEIT.INFINISEE\_REAGENT2\_NAME>  (1051) 
EMOL44846536

>  <s_sd_BIOSOLVEIT.INFINISEE\_REAGENT2\_SMILES>  (1051) 
BrC1=C(Cl)SC(C(=O)O)=C1

>  <s_sd_BIOSOLVEIT.INFINISEE\_REAGENT3\_NAME>  (1051) 
EMOL2873214

>  <s_sd_BIOSOLVEIT.INFINISEE\_REAGENT3\_SMILES>  (1051) 
N(Cc1cc(ccc1)CN)(C)C

>  <s_sd_BIOSOLVEIT.INFINISEE\_SPACE>  (1051) 
eXplore_7tr_2022-12

>  <s_vsw_compound_code>  (1051) 
73794

>  <s_vsw_variant>  (1051) 
73794-2

>  <r_epik_Charging_Adjusted_Penalty>  (1051) 
0.086140609825027206

>  <r_epik_Ionization_Penalty>  (1051) 
0.043200000000000002

>  <r_epik_Ionization_Penalty_Charging>  (1051) 
0.043099999999999999

>  <r_epik_Ionization_Penalty_Neutral>  (1051) 
0.0001

>  <r_epik_State_Penalty>  (1051) 
0.043099999999999999

>  <r_i_docking_score>  (1051) 
-4.4202998157677804

>  <r_i_glide_ecoul>  (1051) 
-6.3550715446472203

>  <r_i_glide_eff_state_penalty>  (1051) 
0.043099999999999999

>  <r_i_glide_einternal>  (1051) 
4.9656128883361799

>  <r_i_glide_emodel>  (1051) 
-54.652967348895501

>  <r_i_glide_energy>  (1051) 
-40.104548931121798

>  <r_i_glide_erotb>  (1051) 
0.68184292590448703

>  <r_i_glide_esite>  (1051) 
-0.026752955271115701

>  <r_i_glide_evdw>  (1051) 
-33.749477386474602

>  <r_i_glide_gscore>  (1051) 
-4.4633998157677803

>  <r_i_glide_hbond>  (1051) 
0

>  <r_i_glide_ligand_efficiency>  (1051) 
-0.14259031663766999

>  <r_i_glide_ligand_efficiency_ln>  (1051) 
-0.99691307437614596

>  <r_i_glide_ligand_efficiency_sa>  (1051) 
-0.44793046139121101

>  <r_i_glide_lipo>  (1051) 
-2.1641743217439702

>  <r_i_glide_metal>  (1051) 
-0

>  <r_i_glide_rewards>  (1051) 
-0.31358086363636201

>  <r_lp_Energy>  (1051) 
25.638480999999999

>  <r_lp_tautomer_probability>  (1051) 
0.99999274205267796

>  <r_qp_ACxDN^.5/SA>  (1051) 
0.0092204999999999995

>  <r_qp_CIQPlogS>  (1051) 
-5.3369999999999997

>  <r_qp_EA(eV)>  (1051) 
0.80400000000000005

>  <r_qp_FISA>  (1051) 
94.703000000000003

>  <r_qp_FOSA>  (1051) 
276.03500000000003

>  <r_qp_IP(eV)>  (1051) 
8.2460000000000004

>  <r_qp_Jm>  (1051) 
3.2230422410622498e-06

>  <r_qp_PISA>  (1051) 
333.41699999999997

>  <r_qp_PSA>  (1051) 
68.225999999999999

>  <r_qp_PercentHumanOralAbsorption>  (1051) 
85.891000000000005

>  <r_qp_QPPCaco>  (1051) 
77.917000000000002

>  <r_qp_QPPMDCK>  (1051) 
152.25700000000001

>  <r_qp_QPlogBB>  (1051) 
-0.0060000000000000001

>  <r_qp_QPlogHERG>  (1051) 
-8.452

>  <r_qp_QPlogKhsa>  (1051) 
0.64300000000000002

>  <r_qp_QPlogKp>  (1051) 
-5.351

>  <r_qp_QPlogPC16>  (1051) 
15.930999999999999

>  <r_qp_QPlogPo/w>  (1051) 
4.2850000000000001

>  <r_qp_QPlogPoct>  (1051) 
23.114999999999998

>  <r_qp_QPlogPw>  (1051) 
11.494

>  <r_qp_QPlogS>  (1051) 
-5.7960000000000003

>  <r_qp_QPpolrz>  (1051) 
49.131

>  <r_qp_SASA>  (1051) 
813.40700000000004

>  <r_qp_SAamideO>  (1051) 
0

>  <r_qp_SAfluorine>  (1051) 
0

>  <r_qp_WPSA>  (1051) 
109.252

>  <r_qp_accptHB>  (1051) 
7.5

>  <r_qp_dip^2/V>  (1051) 
0.079432699999999995

>  <r_qp_dipole>  (1051) 
10.718

>  <r_qp_donorHB>  (1051) 
1

>  <r_qp_glob>  (1051) 
0.7603647

>  <r_qp_mol_MW>  (1051) 
453.00099999999998

>  <r_qp_volume>  (1051) 
1446.2629999999999

>  <r_sd_BIOSOLVEIT.INFINISEE\_FTREES\_SIMILARITY>  (1051) 
0.92200000000000004

>  <r_sd_BIOSOLVEIT.LOGP>  (1051) 
3.99498

>  <r_sd_BIOSOLVEIT.MOLECULAR\_WEIGHT>  (1051) 
454.01400000000001

>  <r_sd_BIOSOLVEIT.TPSA>  (1051) 
60.57

>  <i_epik_Tot_Q>  (1051) 
1

>  <i_epik_Tot_abs_Q>  (1051) 
1

>  <i_f3d_flags>  (1051) 
0

>  <i_i_glide_confnum>  (1051) 
4

>  <i_i_glide_lignum>  (1051) 
925

>  <i_i_glide_posenum>  (1051) 
13

>  <i_i_glide_rotatable_bonds>  (1051) 
9

>  <i_lp_mmshare_version>  (1051) 
65135

>  <i_m_ct_format>  (1051) 
2

>  <i_m_source_file_index>  (1051) 
2307

>  <i_qp_#NandO>  (1051) 
5

>  <i_qp_#acid>  (1051) 
0

>  <i_qp_#amide>  (1051) 
0

>  <i_qp_#amidine>  (1051) 
0

>  <i_qp_#amine>  (1051) 
2

>  <i_qp_#in34>  (1051) 
0

>  <i_qp_#in56>  (1051) 
17

>  <i_qp_#metab>  (1051) 
7

>  <i_qp_#nonHatm>  (1051) 
31

>  <i_qp_#noncon>  (1051) 
0

>  <i_qp_#ringatoms>  (1051) 
17

>  <i_qp_#rotor>  (1051) 
9

>  <i_qp_#rtvFG>  (1051) 
0

>  <i_qp_#stars>  (1051) 
0

>  <i_qp_CNS>  (1051) 
1

>  <i_qp_HumanOralAbsorption>  (1051) 
3

>  <i_qp_RuleOfFive>  (1051) 
0

>  <i_qp_RuleOfThree>  (1051) 
2

>  <i_sd_BIOSOLVEIT.INFINISEE\_RESULT\_RANK>  (1051) 
12299

>  <i_sd_version>  (1051) 
0

>  <b_lp_Chiralities_Consistent>  (1051) 
1

>  <b_sd_chiral_flag>  (1051) 
0

>  <canonical_id>  (1051) 
ATP-HTVS-A8111C46748E

>  <compound_code>  (1051) 
73794

>  <title>  (1051) 
rxn512b____EMOL24630243____EMOL44846536____EMOL2873214

>  <variant>  (1051) 
73794-2

>  <source_file>  (1051) 
运行/运行/ATP-VSW/ATP-VSW-DOCK_HTVS_1-002_lib.maegz

>  <canonical_smiles>  (1051) 
CN(C(=O)c1cc(NCc2cccc(C[NH+](C)C)c2)c(Cl)s1)[C@H](C#N)c1ccccc1

>  <scaffold>  (1051) 
O=C(NCc1ccccc1)c1cc(NCc2ccccc2)cs1

>  <molecular_formula>  (1051) 
C24H26ClN4OS+

$$$$
ATP-HTVS-A820F1D60548
     RDKit          3D

 55 57  0  0  0  0  0  0  0  0999 V2000
  196.2966  186.6452  160.8761 F   0  0  0  0  0  0  0  0  0  0  0  0
  196.5522  185.8319  159.8235 C   0  0  0  0  0  0  0  0  0  0  0  0
  196.0000  184.5399  159.7900 C   0  0  0  0  0  0  0  0  0  0  0  0
  196.2082  183.6862  158.6858 C   0  0  0  0  0  0  0  0  0  0  0  0
  197.0112  184.1468  157.6081 C   0  0  0  0  0  0  0  0  0  0  0  0
  197.5847  185.4385  157.6589 C   0  0  0  0  0  0  0  0  0  0  0  0
  197.3543  186.2811  158.7606 C   0  0  0  0  0  0  0  0  0  0  0  0
  197.3025  183.2815  156.3983 C   0  0  1  0  0  0  0  0  0  0  0  0
  198.2707  182.2631  156.7396 N   0  0  0  0  0  0  0  0  0  0  0  0
  198.4929  181.3798  155.6157 C   0  0  1  0  0  0  0  0  0  0  0  0
  199.4149  180.2646  155.9983 C   0  0  0  0  0  0  0  0  0  0  0  0
  200.7090  180.3588  156.5940 C   0  0  0  0  0  0  0  0  0  0  0  0
  201.2795  179.1787  156.7118 N   0  0  0  0  0  0  0  0  0  0  0  0
  200.3666  178.2942  156.2462 N   0  0  0  0  0  0  0  0  0  0  0  0
  199.2025  178.9300  155.8752 C   0  0  0  0  0  0  0  0  0  0  0  0
  200.7119  176.8794  156.1931 C   0  0  1  0  0  0  0  0  0  0  0  0
  200.8424  176.3149  154.7688 C   0  0  0  0  0  0  0  0  0  0  0  0
  201.7704  175.2821  154.4138 C   0  0  0  0  0  0  0  0  0  0  0  0
  201.8288  174.8169  153.0731 C   0  0  0  0  0  0  0  0  0  0  0  0
  200.9737  175.3363  152.0857 C   0  0  0  0  0  0  0  0  0  0  0  0
  200.0529  176.3333  152.4322 C   0  0  0  0  0  0  0  0  0  0  0  0
  199.9831  176.8213  153.7560 C   0  0  0  0  0  0  0  0  0  0  0  0
  202.7563  174.6204  155.3970 C   0  0  1  0  0  0  0  0  0  0  0  0
  202.5399  174.8588  156.6852 F   0  0  0  0  0  0  0  0  0  0  0  0
  202.7488  173.2970  155.2292 F   0  0  0  0  0  0  0  0  0  0  0  0
  203.9860  175.0345  155.1085 F   0  0  0  0  0  0  0  0  0  0  0  0
  195.5181  182.3163  158.6896 C   0  0  1  0  0  0  0  0  0  0  0  0
  194.1156  182.3625  158.2128 N   0  0  2  0  0  0  0  0  0  0  0  0
  193.3104  183.5116  158.6549 C   0  0  2  0  0  0  0  0  0  0  0  0
  193.3962  181.0772  158.3300 C   0  0  2  0  0  0  0  0  0  0  0  0
  199.1478  182.7039  156.9679 H   0  0  0  0  0  0  0  0  0  0  0  0
  195.3758  184.2229  160.6095 H   0  0  0  0  0  0  0  0  0  0  0  0
  198.2054  185.7896  156.8461 H   0  0  0  0  0  0  0  0  0  0  0  0
  197.7877  187.2699  158.7920 H   0  0  0  0  0  0  0  0  0  0  0  0
  196.3788  182.8293  156.0392 H   0  0  0  0  0  0  0  0  0  0  0  0
  197.6990  183.8889  155.5819 H   0  0  0  0  0  0  0  0  0  0  0  0
  197.5412  180.9640  155.2912 H   0  0  0  0  0  0  0  0  0  0  0  0
  198.8890  181.9488  154.7666 H   0  0  0  0  0  0  0  0  0  0  0  0
  201.2749  181.2291  156.9110 H   0  0  0  0  0  0  0  0  0  0  0  0
  198.3514  178.3808  155.4962 H   0  0  0  0  0  0  0  0  0  0  0  0
  201.6344  176.7553  156.7440 H   0  0  0  0  0  0  0  0  0  0  0  0
  199.9430  176.3312  156.7346 H   0  0  0  0  0  0  0  0  0  0  0  0
  202.5462  174.0477  152.8066 H   0  0  0  0  0  0  0  0  0  0  0  0
  201.0214  174.9718  151.0686 H   0  0  0  0  0  0  0  0  0  0  0  0
  199.3788  176.7297  151.6851 H   0  0  0  0  0  0  0  0  0  0  0  0
  199.2300  177.5698  153.9482 H   0  0  0  0  0  0  0  0  0  0  0  0
  196.0782  181.5835  158.0993 H   0  0  0  0  0  0  0  0  0  0  0  0
  195.5352  181.9245  159.7103 H   0  0  0  0  0  0  0  0  0  0  0  0
  193.2074  183.5190  159.7222 H   0  0  0  0  0  0  0  0  0  0  0  0
  192.3227  183.4619  158.1991 H   0  0  0  0  0  0  0  0  0  0  0  0
  193.7419  184.4673  158.3518 H   0  0  0  0  0  0  0  0  0  0  0  0
  193.2989  180.7906  159.3735 H   0  0  0  0  0  0  0  0  0  0  0  0
  193.9178  180.2787  157.8062 H   0  0  0  0  0  0  0  0  0  0  0  0
  192.3968  181.1472  157.9011 H   0  0  0  0  0  0  0  0  0  0  0  0
  194.1626  182.5108  157.1813 H   0  0  0  0  0  0  0  0  0  0  0  0
  1  2  1  0
  2  3  2  0
  2  7  1  0
  3  4  1  0
  3 32  1  0
  4  5  2  0
  4 27  1  0
  5  6  1  0
  5  8  1  0
  6  7  2  0
  6 33  1  0
  7 34  1  0
  8  9  1  0
  8 35  1  6
  8 36  1  0
  9 10  1  0
  9 31  1  0
 10 11  1  0
 10 37  1  6
 10 38  1  0
 11 12  1  0
 11 15  2  0
 12 13  2  0
 12 39  1  0
 13 14  1  0
 14 15  1  0
 14 16  1  0
 15 40  1  0
 16 17  1  0
 16 41  1  1
 16 42  1  0
 17 18  1  0
 17 22  2  0
 18 19  2  0
 18 23  1  0
 19 20  1  0
 19 43  1  0
 20 21  2  0
 20 44  1  0
 21 22  1  0
 21 45  1  0
 22 46  1  0
 23 24  1  1
 23 25  1  0
 23 26  1  0
 27 28  1  0
 27 47  1  6
 27 48  1  0
 28 29  1  0
 28 30  1  0
 28 55  1  6
 29 49  1  1
 29 50  1  0
 29 51  1  0
 30 52  1  1
 30 53  1  0
 30 54  1  0
M  CHG  1  28   1
M  END
>  <s_epik_cmdline>  (1052) 
J2VwaWtfcHl0aG9uJywgJy1waCcsICc3LjAwMDAwMCcsICctcGh0JywgJzIuMDAwMDAwJywgJy1tcycsICcxNicsICctdG4nLCAnOCcsICctbWEnLCAnMjAwJywgJy1pbWFlJywgJzxpbmZpbGUubWFlPicsICctb21hZScsICc8b3V0ZmlsZS5tYWU+Jw==

>  <s_epik_input>  (1052) 
RmMxW2NIXWMoW0NIMl1OKFtDSDNdKVtDSDNdKWMoW2NIXVtjSF0xKVtDSDJdW05IXVtDSDJdYzJbY0hdbm4oW2NIXTIpW0NIMl1jM2MoQyhGKShGKUYpW2NIXVtjSF1bY0hdW2NIXTM=

>  <s_i_glide_gridfile>  (1052) 
ATP-Grid

>  <s_lp_Force_Field>  (1052) 
OPLS_2005

>  <s_lp_Variant>  (1052) 
m_270004bbb____24792668____18718090-2

>  <s_lp_label>  (1052) 
1974_sdstereoexpander_1_neutralizer_1_epik_2_stereoizer_1

>  <s_m_source_file>  (1052) 
ATP-VSW-LIGPREP-002-in.maegz

>  <s_sd_BIOSOLVEIT.INFINISEE\_QUERY\_NAME>  (1052) 
Ref-Lig

>  <s_sd_BIOSOLVEIT.INFINISEE\_QUERY\_SMILES>  (1052) 
S(c1nc2c(cc1C[NH2+]Cc3ccc(cc3)C[NH+](C)C)cccc2)Cc4ccccc4

>  <s_sd_BIOSOLVEIT.INFINISEE\_REACTION\_NAME>  (1052) 
m_270004bbb

>  <s_sd_BIOSOLVEIT.INFINISEE\_REAGENT1\_SMILES>  (1052) 
[R1*]NCc1c(cc(F)cc1)CN(C)C

>  <s_sd_BIOSOLVEIT.INFINISEE\_REAGENT2\_SMILES>  (1052) 
[R1*]CC=1C=NN(C1)Cc2c(cccc2)C(F)(F)F

>  <s_sd_BIOSOLVEIT.INFINISEE\_SPACE>  (1052) 
REALSpace_44bn_2023-08

>  <s_vsw_compound_code>  (1052) 
63138

>  <s_vsw_variant>  (1052) 
63138-2

>  <r_epik_Charging_Adjusted_Penalty>  (1052) 
1.0901169823971599

>  <r_epik_Ionization_Penalty>  (1052) 
1.0269999999999999

>  <r_epik_Ionization_Penalty_Charging>  (1052) 
0.049700000000000001

>  <r_epik_Ionization_Penalty_Neutral>  (1052) 
0.97729999999999995

>  <r_epik_State_Penalty>  (1052) 
1.0404

>  <r_i_docking_score>  (1052) 
-3.9313150662595899

>  <r_i_glide_ecoul>  (1052) 
-8.5835189819335902

>  <r_i_glide_eff_state_penalty>  (1052) 
1.0404

>  <r_i_glide_einternal>  (1052) 
5.1237335205078098

>  <r_i_glide_emodel>  (1052) 
-55.550921800379299

>  <r_i_glide_energy>  (1052) 
-40.338027954101598

>  <r_i_glide_erotb>  (1052) 
0.78036424000677995

>  <r_i_glide_esite>  (1052) 
-0.15572380200358399

>  <r_i_glide_evdw>  (1052) 
-31.754508972168001

>  <r_i_glide_gscore>  (1052) 
-4.9717150662595904

>  <r_i_glide_hbond>  (1052) 
-0.20000000000000001

>  <r_i_glide_ligand_efficiency>  (1052) 
-0.13104383554198601

>  <r_i_glide_ligand_efficiency_ln>  (1052) 
-0.89323761816264802

>  <r_i_glide_ligand_efficiency_sa>  (1052) 
-0.40718366503929398

>  <r_i_glide_lipo>  (1052) 
-1.4399231005626001

>  <r_i_glide_metal>  (1052) 
-0

>  <r_i_glide_rewards>  (1052) 
-1.0811791078017401

>  <r_lp_Energy>  (1052) 
15.456721

>  <r_lp_tautomer_probability>  (1052) 
1

>  <r_qp_ACxDN^.5/SA>  (1052) 
0.0074612000000000003

>  <r_qp_CIQPlogS>  (1052) 
-4.6909999999999998

>  <r_qp_EA(eV)>  (1052) 
0.82299999999999995

>  <r_qp_FISA>  (1052) 
29.32

>  <r_qp_FOSA>  (1052) 
208.464

>  <r_qp_IP(eV)>  (1052) 
8.7699999999999996

>  <r_qp_Jm>  (1052) 
0.0067693946223694196

>  <r_qp_PISA>  (1052) 
305.71499999999997

>  <r_qp_PSA>  (1052) 
31.260000000000002

>  <r_qp_PercentHumanOralAbsorption>  (1052) 
100

>  <r_qp_QPPCaco>  (1052) 
324.82900000000001

>  <r_qp_QPPMDCK>  (1052) 
887.12

>  <r_qp_QPlogBB>  (1052) 
0.90900000000000003

>  <r_qp_QPlogHERG>  (1052) 
-7.1050000000000004

>  <r_qp_QPlogKhsa>  (1052) 
0.69599999999999995

>  <r_qp_QPlogKp>  (1052) 
-4.3399999999999999

>  <r_qp_QPlogPC16>  (1052) 
11.550000000000001

>  <r_qp_QPlogPo/w>  (1052) 
4.601

>  <r_qp_QPlogPoct>  (1052) 
18.477

>  <r_qp_QPlogPw>  (1052) 
8.2799999999999994

>  <r_qp_QPlogS>  (1052) 
-3.4529999999999998

>  <r_qp_QPpolrz>  (1052) 
41.475999999999999

>  <r_qp_SASA>  (1052) 
670.13599999999997

>  <r_qp_SAamideO>  (1052) 
0

>  <r_qp_SAfluorine>  (1052) 
126.637

>  <r_qp_WPSA>  (1052) 
126.637

>  <r_qp_accptHB>  (1052) 
5

>  <r_qp_dip^2/V>  (1052) 
0.032928899999999997

>  <r_qp_dipole>  (1052) 
6.4039999999999999

>  <r_qp_donorHB>  (1052) 
1

>  <r_qp_glob>  (1052) 
0.83543369999999995

>  <r_qp_mol_MW>  (1052) 
420.452

>  <r_qp_volume>  (1052) 
1245.5619999999999

>  <r_sd_BIOSOLVEIT.INFINISEE\_FTREES\_SIMILARITY>  (1052) 
0.90200000000000002

>  <r_sd_BIOSOLVEIT.LOGP>  (1052) 
1.9974000000000001

>  <r_sd_BIOSOLVEIT.MOLECULAR\_WEIGHT>  (1052) 
422.46699999999998

>  <r_sd_BIOSOLVEIT.TPSA>  (1052) 
38.869999999999997

>  <i_epik_Tot_Q>  (1052) 
1

>  <i_epik_Tot_abs_Q>  (1052) 
1

>  <i_f3d_flags>  (1052) 
0

>  <i_i_glide_confnum>  (1052) 
12

>  <i_i_glide_lignum>  (1052) 
711

>  <i_i_glide_posenum>  (1052) 
20

>  <i_i_glide_rotatable_bonds>  (1052) 
9

>  <i_lp_mmshare_version>  (1052) 
65135

>  <i_m_ct_format>  (1052) 
2

>  <i_m_source_file_index>  (1052) 
1974

>  <i_qp_#NandO>  (1052) 
4

>  <i_qp_#acid>  (1052) 
0

>  <i_qp_#amide>  (1052) 
0

>  <i_qp_#amidine>  (1052) 
0

>  <i_qp_#amine>  (1052) 
2

>  <i_qp_#in34>  (1052) 
0

>  <i_qp_#in56>  (1052) 
17

>  <i_qp_#metab>  (1052) 
7

>  <i_qp_#nonHatm>  (1052) 
30

>  <i_qp_#noncon>  (1052) 
0

>  <i_qp_#ringatoms>  (1052) 
17

>  <i_qp_#rotor>  (1052) 
8

>  <i_qp_#rtvFG>  (1052) 
0

>  <i_qp_#stars>  (1052) 
0

>  <i_qp_CNS>  (1052) 
2

>  <i_qp_HumanOralAbsorption>  (1052) 
3

>  <i_qp_RuleOfFive>  (1052) 
0

>  <i_qp_RuleOfThree>  (1052) 
1

>  <i_sd_BIOSOLVEIT.INFINISEE\_REAGENT1\_NAME>  (1052) 
24792668

>  <i_sd_BIOSOLVEIT.INFINISEE\_REAGENT2\_NAME>  (1052) 
18718090

>  <i_sd_BIOSOLVEIT.INFINISEE\_RESULT\_RANK>  (1052) 
88936

>  <i_sd_version>  (1052) 
0

>  <b_lp_Chiralities_Consistent>  (1052) 
1

>  <b_sd_chiral_flag>  (1052) 
0

>  <canonical_id>  (1052) 
ATP-HTVS-A820F1D60548

>  <compound_code>  (1052) 
63138

>  <title>  (1052) 
m_270004bbb____24792668____18718090

>  <variant>  (1052) 
63138-2

>  <source_file>  (1052) 
运行/运行/ATP-VSW/ATP-VSW-DOCK_HTVS_1-002_lib.maegz

>  <canonical_smiles>  (1052) 
C[NH+](C)Cc1cc(F)ccc1CNCc1cnn(Cc2ccccc2C(F)(F)F)c1

>  <scaffold>  (1052) 
c1ccc(CNCc2cnn(Cc3ccccc3)c2)cc1

>  <molecular_formula>  (1052) 
C22H25F4N4+

$$$$
ATP-HTVS-A844998385F9
     RDKit          3D

 53 55  0  0  0  0  0  0  0  0999 V2000
  196.4975  185.6082  158.0522 O   0  0  0  0  0  0  0  0  0  0  0  0
  196.9278  184.3631  157.6529 C   0  0  0  0  0  0  0  0  0  0  0  0
  196.2408  183.2268  158.1620 C   0  0  0  0  0  0  0  0  0  0  0  0
  196.6735  181.9327  157.8014 C   0  0  0  0  0  0  0  0  0  0  0  0
  197.7668  181.7727  156.9333 C   0  0  0  0  0  0  0  0  0  0  0  0
  198.4004  182.8851  156.4721 N   0  0  0  0  0  0  0  0  0  0  0  0
  198.0236  184.1349  156.7847 C   0  0  0  0  0  0  0  0  0  0  0  0
  198.2210  180.5074  156.5537 N   0  0  0  0  0  0  0  0  0  0  0  0
  199.3665  180.3563  155.6645 C   0  0  1  0  0  0  0  0  0  0  0  0
  200.0425  179.0053  155.7584 C   0  0  0  0  0  0  0  0  0  0  0  0
  200.1709  178.3527  157.0015 C   0  0  0  0  0  0  0  0  0  0  0  0
  200.7803  177.0905  157.0834 C   0  0  0  0  0  0  0  0  0  0  0  0
  201.2897  176.4684  155.9271 C   0  0  0  0  0  0  0  0  0  0  0  0
  201.8635  175.1975  156.0620 N   0  0  0  0  0  0  0  0  0  0  0  0
  202.4548  174.5131  154.9192 C   0  0  1  0  0  0  0  0  0  0  0  0
  203.1073  173.1768  155.3158 C   0  0  1  0  0  0  0  0  0  0  0  0
  203.7706  172.6378  154.2013 O   0  0  0  0  0  0  0  0  0  0  0  0
  201.1939  177.1400  154.6854 C   0  0  0  0  0  0  0  0  0  0  0  0
  200.5720  178.4015  154.6021 C   0  0  0  0  0  0  0  0  0  0  0  0
  195.0495  183.3992  159.0875 C   0  0  2  0  0  0  0  0  0  0  0  0
  197.1297  186.7804  157.5381 C   0  0  1  0  0  0  0  0  0  0  0  0
  197.0543  187.9350  158.5068 C   0  0  0  0  0  0  0  0  0  0  0  0
  196.6108  187.7406  159.8336 C   0  0  0  0  0  0  0  0  0  0  0  0
  196.5879  188.8237  160.7286 C   0  0  0  0  0  0  0  0  0  0  0  0
  197.0145  190.0969  160.3088 C   0  0  0  0  0  0  0  0  0  0  0  0
  197.4837  190.2870  158.9941 C   0  0  0  0  0  0  0  0  0  0  0  0
  197.5096  189.2040  158.0975 C   0  0  0  0  0  0  0  0  0  0  0  0
  196.1641  181.0569  158.1897 H   0  0  0  0  0  0  0  0  0  0  0  0
  198.6414  184.8904  156.3197 H   0  0  0  0  0  0  0  0  0  0  0  0
  197.7657  179.6784  156.9305 H   0  0  0  0  0  0  0  0  0  0  0  0
  199.0202  180.5304  154.6445 H   0  0  0  0  0  0  0  0  0  0  0  0
  200.1359  181.1034  155.8701 H   0  0  0  0  0  0  0  0  0  0  0  0
  199.7781  178.7948  157.9052 H   0  0  0  0  0  0  0  0  0  0  0  0
  200.8412  176.6088  158.0475 H   0  0  0  0  0  0  0  0  0  0  0  0
  201.7944  174.7124  156.9433 H   0  0  0  0  0  0  0  0  0  0  0  0
  201.6749  174.3360  154.1820 H   0  0  0  0  0  0  0  0  0  0  0  0
  203.2017  175.1586  154.4547 H   0  0  0  0  0  0  0  0  0  0  0  0
  203.8201  173.3280  156.1312 H   0  0  0  0  0  0  0  0  0  0  0  0
  202.3539  172.4771  155.6746 H   0  0  0  0  0  0  0  0  0  0  0  0
  203.5635  171.6764  154.1313 H   0  0  0  0  0  0  0  0  0  0  0  0
  201.5813  176.7004  153.7802 H   0  0  0  0  0  0  0  0  0  0  0  0
  200.4946  178.8969  153.6448 H   0  0  0  0  0  0  0  0  0  0  0  0
  194.6301  182.4347  159.3777 H   0  0  0  0  0  0  0  0  0  0  0  0
  194.2654  183.9702  158.5895 H   0  0  0  0  0  0  0  0  0  0  0  0
  195.3394  183.9307  159.9944 H   0  0  0  0  0  0  0  0  0  0  0  0
  198.2038  186.6913  157.3756 H   0  0  0  0  0  0  0  0  0  0  0  0
  196.6535  187.0482  156.5940 H   0  0  0  0  0  0  0  0  0  0  0  0
  196.2943  186.7664  160.1770 H   0  0  0  0  0  0  0  0  0  0  0  0
  196.2420  188.6715  161.7399 H   0  0  0  0  0  0  0  0  0  0  0  0
  196.9901  190.9247  160.9989 H   0  0  0  0  0  0  0  0  0  0  0  0
  197.8150  191.2625  158.6713 H   0  0  0  0  0  0  0  0  0  0  0  0
  197.8786  189.3509  157.0913 H   0  0  0  0  0  0  0  0  0  0  0  0
  199.2076  182.7697  155.8634 H   0  0  0  0  0  0  0  0  0  0  0  0
  1  2  1  0
  1 21  1  0
  2  3  1  0
  2  7  2  0
  3  4  2  0
  3 20  1  0
  4  5  1  0
  4 28  1  0
  5  6  2  0
  5  8  1  0
  6  7  1  0
  6 53  1  0
  7 29  1  0
  8  9  1  0
  8 30  1  0
  9 10  1  0
  9 31  1  6
  9 32  1  0
 10 11  1  0
 10 19  2  0
 11 12  2  0
 11 33  1  0
 12 13  1  0
 12 34  1  0
 13 14  1  0
 13 18  2  0
 14 15  1  0
 14 35  1  0
 15 16  1  0
 15 36  1  6
 15 37  1  0
 16 17  1  0
 16 38  1  1
 16 39  1  0
 17 40  1  0
 18 19  1  0
 18 41  1  0
 19 42  1  0
 20 43  1  1
 20 44  1  0
 20 45  1  0
 21 22  1  0
 21 46  1  6
 21 47  1  0
 22 23  2  0
 22 27  1  0
 23 24  1  0
 23 48  1  0
 24 25  2  0
 24 49  1  0
 25 26  1  0
 25 50  1  0
 26 27  2  0
 26 51  1  0
 27 52  1  0
M  CHG  1   6   1
M  END
>  <s_epik_cmdline>  (1053) 
J2VwaWtfcHl0aG9uJywgJy1waCcsICc3LjAwMDAwMCcsICctcGh0JywgJzIuMDAwMDAwJywgJy1tcycsICcxNicsICctdG4nLCAnOCcsICctbWEnLCAnMjAwJywgJy1pbWFlJywgJzxpbmZpbGUubWFlPicsICctb21hZScsICc8b3V0ZmlsZS5tYWU+Jw==

>  <s_epik_input>  (1053) 
W2NIXTFbY0hdW2NIXVtjSF1bY0hdYzFbQ0gyXU9jMmMoW0NIM10pW2NIXWMobltjSF0yKVtOSF1bQ0gyXWMzW2NIXVtjSF1jKFtjSF1bY0hdMylbTkhdW0NIMl1bQ0gyXVtPSF0=

>  <s_i_glide_gridfile>  (1053) 
ATP-Grid

>  <s_lp_Force_Field>  (1053) 
OPLS_2005

>  <s_lp_Variant>  (1053) 
rxn102c____EMOL330509100____EMOL324170366-1

>  <s_lp_label>  (1053) 
2423_sdstereoexpander_1_neutralizer_1_epik_1_stereoizer_1

>  <s_m_source_file>  (1053) 
ATP-VSW-LIGPREP-001-in.maegz

>  <s_sd_BIOSOLVEIT.INFINISEE\_QUERY\_NAME>  (1053) 
Ref-Lig

>  <s_sd_BIOSOLVEIT.INFINISEE\_QUERY\_SMILES>  (1053) 
S(c1nc2c(cc1C[NH2+]Cc3ccc(cc3)C[NH+](C)C)cccc2)Cc4ccccc4

>  <s_sd_BIOSOLVEIT.INFINISEE\_REACTION\_NAME>  (1053) 
rxn102c

>  <s_sd_BIOSOLVEIT.INFINISEE\_REAGENT1\_NAME>  (1053) 
EMOL330509100

>  <s_sd_BIOSOLVEIT.INFINISEE\_REAGENT1\_SMILES>  (1053) 
Clc1ncc(OCc2ccccc2)c(c1)C

>  <s_sd_BIOSOLVEIT.INFINISEE\_REAGENT2\_NAME>  (1053) 
EMOL324170366

>  <s_sd_BIOSOLVEIT.INFINISEE\_REAGENT2\_SMILES>  (1053) 
OCCNc1ccc(cc1)CN

>  <s_sd_BIOSOLVEIT.INFINISEE\_SPACE>  (1053) 
eXplore_7tr_2022-12

>  <s_vsw_compound_code>  (1053) 
77505

>  <s_vsw_variant>  (1053) 
77505-1

>  <r_epik_Charging_Adjusted_Penalty>  (1053) 
0.038772025283546202

>  <r_epik_Ionization_Penalty>  (1053) 
0.025399999999999999

>  <r_epik_Ionization_Penalty_Charging>  (1053) 
0.0137

>  <r_epik_Ionization_Penalty_Neutral>  (1053) 
0.0117

>  <r_epik_State_Penalty>  (1053) 
0.025100000000000001

>  <r_i_docking_score>  (1053) 
-4.5128577453542098

>  <r_i_glide_ecoul>  (1053) 
-12.1295051574707

>  <r_i_glide_eff_state_penalty>  (1053) 
0.025100000000000001

>  <r_i_glide_einternal>  (1053) 
3.8117125034332302

>  <r_i_glide_emodel>  (1053) 
-57.901391233969299

>  <r_i_glide_energy>  (1053) 
-42.295574188232401

>  <r_i_glide_erotb>  (1053) 
1.3025932741600199

>  <r_i_glide_esite>  (1053) 
-0.095614752283135304

>  <r_i_glide_evdw>  (1053) 
-30.166069030761701

>  <r_i_glide_gscore>  (1053) 
-4.5379577453542099

>  <r_i_glide_hbond>  (1053) 
-0.27644543610963201

>  <r_i_glide_ligand_efficiency>  (1053) 
-0.16714287945756301

>  <r_i_glide_ligand_efficiency_ln>  (1053) 
-1.0505188828438301

>  <r_i_glide_ligand_efficiency_sa>  (1053) 
-0.50142863782181502

>  <r_i_glide_lipo>  (1053) 
-1.2166302877809601

>  <r_i_glide_metal>  (1053) 
-0

>  <r_i_glide_rewards>  (1053) 
-0.92413131818181704

>  <r_lp_Energy>  (1053) 
32.808712

>  <r_lp_tautomer_probability>  (1053) 
0.99942875493586703

>  <r_qp_ACxDN^.5/SA>  (1053) 
0.0114673

>  <r_qp_CIQPlogS>  (1053) 
-5.5350000000000001

>  <r_qp_EA(eV)>  (1053) 
-0.184

>  <r_qp_FISA>  (1053) 
87.897999999999996

>  <r_qp_FOSA>  (1053) 
235.13399999999999

>  <r_qp_IP(eV)>  (1053) 
7.8319999999999999

>  <r_qp_Jm>  (1053) 
0.058872379306651103

>  <r_qp_PISA>  (1053) 
424.63

>  <r_qp_PSA>  (1053) 
64.397000000000006

>  <r_qp_PercentHumanOralAbsorption>  (1053) 
100

>  <r_qp_QPPCaco>  (1053) 
1453.335

>  <r_qp_QPPMDCK>  (1053) 
741.05100000000004

>  <r_qp_QPlogBB>  (1053) 
-1.044

>  <r_qp_QPlogHERG>  (1053) 
-7.3810000000000002

>  <r_qp_QPlogKhsa>  (1053) 
0.53600000000000003

>  <r_qp_QPlogKp>  (1053) 
-0.68400000000000005

>  <r_qp_QPlogPC16>  (1053) 
14.606

>  <r_qp_QPlogPo/w>  (1053) 
4.7519999999999998

>  <r_qp_QPlogPoct>  (1053) 
21.199000000000002

>  <r_qp_QPlogPw>  (1053) 
12.068

>  <r_qp_QPlogS>  (1053) 
-6.1070000000000002

>  <r_qp_QPpolrz>  (1053) 
42.82

>  <r_qp_SASA>  (1053) 
747.66099999999994

>  <r_qp_SAamideO>  (1053) 
0

>  <r_qp_SAfluorine>  (1053) 
0

>  <r_qp_WPSA>  (1053) 
0

>  <r_qp_accptHB>  (1053) 
4.9500000000000002

>  <r_qp_dip^2/V>  (1053) 
0.0247087

>  <r_qp_dipole>  (1053) 
5.6299999999999999

>  <r_qp_donorHB>  (1053) 
3

>  <r_qp_glob>  (1053) 
0.76368360000000002

>  <r_qp_mol_MW>  (1053) 
363.45800000000003

>  <r_qp_volume>  (1053) 
1282.8620000000001

>  <r_sd_BIOSOLVEIT.INFINISEE\_FTREES\_SIMILARITY>  (1053) 
0.91700000000000004

>  <r_sd_BIOSOLVEIT.LOGP>  (1053) 
3.9853200000000002

>  <r_sd_BIOSOLVEIT.MOLECULAR\_WEIGHT>  (1053) 
363.459

>  <r_sd_BIOSOLVEIT.TPSA>  (1053) 
66.409999999999997

>  <i_epik_Tot_Q>  (1053) 
1

>  <i_epik_Tot_abs_Q>  (1053) 
1

>  <i_f3d_flags>  (1053) 
0

>  <i_i_glide_confnum>  (1053) 
13

>  <i_i_glide_lignum>  (1053) 
930

>  <i_i_glide_posenum>  (1053) 
11

>  <i_i_glide_rotatable_bonds>  (1053) 
10

>  <i_lp_mmshare_version>  (1053) 
65135

>  <i_m_ct_format>  (1053) 
2

>  <i_m_source_file_index>  (1053) 
2423

>  <i_qp_#NandO>  (1053) 
5

>  <i_qp_#acid>  (1053) 
0

>  <i_qp_#amide>  (1053) 
0

>  <i_qp_#amidine>  (1053) 
0

>  <i_qp_#amine>  (1053) 
0

>  <i_qp_#in34>  (1053) 
0

>  <i_qp_#in56>  (1053) 
18

>  <i_qp_#metab>  (1053) 
9

>  <i_qp_#nonHatm>  (1053) 
27

>  <i_qp_#noncon>  (1053) 
0

>  <i_qp_#ringatoms>  (1053) 
18

>  <i_qp_#rotor>  (1053) 
10

>  <i_qp_#rtvFG>  (1053) 
0

>  <i_qp_#stars>  (1053) 
2

>  <i_qp_CNS>  (1053) 
-2

>  <i_qp_HumanOralAbsorption>  (1053) 
3

>  <i_qp_RuleOfFive>  (1053) 
0

>  <i_qp_RuleOfThree>  (1053) 
2

>  <i_sd_BIOSOLVEIT.INFINISEE\_RESULT\_RANK>  (1053) 
22757

>  <i_sd_version>  (1053) 
0

>  <b_lp_Chiralities_Consistent>  (1053) 
1

>  <b_sd_chiral_flag>  (1053) 
0

>  <canonical_id>  (1053) 
ATP-HTVS-A844998385F9

>  <compound_code>  (1053) 
77505

>  <title>  (1053) 
rxn102c____EMOL330509100____EMOL324170366

>  <variant>  (1053) 
77505-1

>  <source_file>  (1053) 
运行/运行/ATP-VSW/ATP-VSW-DOCK_HTVS_1-001_lib/ATP-VSW-DOCK_HTVS_1-001_lib

>  <canonical_smiles>  (1053) 
Cc1cc(NCc2ccc(NCCO)cc2)[nH+]cc1OCc1ccccc1

>  <scaffold>  (1053) 
c1ccc(CNc2ccc(OCc3ccccc3)c[nH+]2)cc1

>  <molecular_formula>  (1053) 
C22H26N3O2+

$$$$
ATP-HTVS-A845026C7E40
     RDKit          3D

 61 64  0  0  0  0  0  0  0  0999 V2000
  198.7943  175.8963  149.6592 Cl  0  0  0  0  0  0  0  0  0  0  0  0
  199.2010  176.6685  148.1655 C   0  0  0  0  0  0  0  0  0  0  0  0
  198.3737  177.6612  147.5838 C   0  0  0  0  0  0  0  0  0  0  0  0
  198.7650  178.2575  146.3629 C   0  0  0  0  0  0  0  0  0  0  0  0
  199.9611  177.8750  145.7303 C   0  0  0  0  0  0  0  0  0  0  0  0
  200.7812  176.8924  146.3148 C   0  0  0  0  0  0  0  0  0  0  0  0
  200.3994  176.2909  147.5296 C   0  0  0  0  0  0  0  0  0  0  0  0
  197.0644  178.0890  148.2283 C   0  0  2  0  0  0  0  0  0  0  0  0
  196.0202  178.2304  147.2966 O   0  0  0  0  0  0  0  0  0  0  0  0
  197.1978  179.3181  149.0234 C   0  0  0  0  0  0  0  0  0  0  0  0
  197.2393  180.3399  149.6877 C   0  0  0  0  0  0  0  0  0  0  0  0
  197.2245  181.5202  150.4753 C   0  0  0  0  0  0  0  0  0  0  0  0
  197.5118  182.8073  149.9017 C   0  0  0  0  0  0  0  0  0  0  0  0
  197.4023  183.7655  150.9509 C   0  0  0  0  0  0  0  0  0  0  0  0
  197.0609  183.0586  152.0830 N   0  0  0  0  0  0  0  0  0  0  0  0
  196.9704  181.6964  151.8162 C   0  0  0  0  0  0  0  0  0  0  0  0
  196.7076  180.7358  152.9143 C   0  0  0  0  0  0  0  0  0  0  0  0
  196.6235  179.5307  152.6790 O   0  0  0  0  0  0  0  0  0  0  0  0
  196.6081  181.2393  154.1520 N   0  0  0  0  0  0  0  0  0  0  0  0
  196.7459  180.4654  155.3767 C   0  0  1  0  0  0  0  0  0  0  0  0
  198.1905  180.4782  155.8335 C   0  0  0  0  0  0  0  0  0  0  0  0
  199.0185  179.3667  155.5758 C   0  0  0  0  0  0  0  0  0  0  0  0
  200.3450  179.3471  156.0531 C   0  0  0  0  0  0  0  0  0  0  0  0
  200.8524  180.4692  156.7433 C   0  0  0  0  0  0  0  0  0  0  0  0
  200.0439  181.6012  156.9492 C   0  0  0  0  0  0  0  0  0  0  0  0
  198.7108  181.6062  156.4987 C   0  0  0  0  0  0  0  0  0  0  0  0
  201.1983  178.1051  155.8821 C   0  0  1  0  0  0  0  0  0  0  0  0
  200.8560  177.0452  156.8659 N   0  0  2  0  0  0  0  0  0  0  0  0
  200.9054  177.4918  158.2762 C   0  0  2  0  0  0  0  0  0  0  0  0
  201.6665  175.8248  156.6487 C   0  0  2  0  0  0  0  0  0  0  0  0
  197.6408  185.1300  150.7466 C   0  0  0  0  0  0  0  0  0  0  0  0
  197.9946  185.5847  149.4706 C   0  0  0  0  0  0  0  0  0  0  0  0
  198.0998  184.6702  148.4009 C   0  0  0  0  0  0  0  0  0  0  0  0
  197.8744  183.2945  148.6205 C   0  0  0  0  0  0  0  0  0  0  0  0
  198.1376  179.0050  145.9035 H   0  0  0  0  0  0  0  0  0  0  0  0
  200.2495  178.3268  144.7909 H   0  0  0  0  0  0  0  0  0  0  0  0
  201.6962  176.5955  145.8238 H   0  0  0  0  0  0  0  0  0  0  0  0
  201.0297  175.5313  147.9716 H   0  0  0  0  0  0  0  0  0  0  0  0
  196.7446  177.3221  148.9241 H   0  0  0  0  0  0  0  0  0  0  0  0
  195.8119  177.3551  146.9850 H   0  0  0  0  0  0  0  0  0  0  0  0
  196.9025  183.4750  152.9864 H   0  0  0  0  0  0  0  0  0  0  0  0
  196.5140  182.2376  154.2655 H   0  0  0  0  0  0  0  0  0  0  0  0
  196.1024  180.9144  156.1362 H   0  0  0  0  0  0  0  0  0  0  0  0
  196.3961  179.4376  155.2556 H   0  0  0  0  0  0  0  0  0  0  0  0
  198.6128  178.5176  155.0432 H   0  0  0  0  0  0  0  0  0  0  0  0
  201.8505  180.4536  157.1474 H   0  0  0  0  0  0  0  0  0  0  0  0
  200.4272  182.4486  157.4986 H   0  0  0  0  0  0  0  0  0  0  0  0
  198.0814  182.4648  156.6830 H   0  0  0  0  0  0  0  0  0  0  0  0
  201.0551  177.7212  154.8705 H   0  0  0  0  0  0  0  0  0  0  0  0
  202.2503  178.3770  155.9652 H   0  0  0  0  0  0  0  0  0  0  0  0
  201.9020  177.8504  158.5334 H   0  0  0  0  0  0  0  0  0  0  0  0
  200.6520  176.6723  158.9472 H   0  0  0  0  0  0  0  0  0  0  0  0
  200.1849  178.2852  158.4752 H   0  0  0  0  0  0  0  0  0  0  0  0
  202.7249  176.0136  156.8279 H   0  0  0  0  0  0  0  0  0  0  0  0
  201.5699  175.4548  155.6274 H   0  0  0  0  0  0  0  0  0  0  0  0
  201.3601  175.0377  157.3267 H   0  0  0  0  0  0  0  0  0  0  0  0
  197.5596  185.8355  151.5605 H   0  0  0  0  0  0  0  0  0  0  0  0
  198.1815  186.6397  149.3457 H   0  0  0  0  0  0  0  0  0  0  0  0
  198.3531  185.0088  147.4080 H   0  0  0  0  0  0  0  0  0  0  0  0
  197.9720  182.5939  147.8024 H   0  0  0  0  0  0  0  0  0  0  0  0
  199.8862  176.8131  156.6991 H   0  0  0  0  0  0  0  0  0  0  0  0
  1  2  1  0
  2  3  1  0
  2  7  2  0
  3  4  2  0
  3  8  1  0
  4  5  1  0
  4 35  1  0
  5  6  2  0
  5 36  1  0
  6  7  1  0
  6 37  1  0
  7 38  1  0
  8  9  1  0
  8 10  1  0
  8 39  1  1
  9 40  1  0
 10 11  3  0
 11 12  1  0
 12 13  1  0
 12 16  2  0
 13 14  1  0
 13 34  2  0
 14 15  1  0
 14 31  2  0
 15 16  1  0
 15 41  1  0
 16 17  1  0
 17 18  2  0
 17 19  1  0
 19 20  1  0
 19 42  1  0
 20 21  1  0
 20 43  1  1
 20 44  1  0
 21 22  2  0
 21 26  1  0
 22 23  1  0
 22 45  1  0
 23 24  2  0
 23 27  1  0
 24 25  1  0
 24 46  1  0
 25 26  2  0
 25 47  1  0
 26 48  1  0
 27 28  1  0
 27 49  1  6
 27 50  1  0
 28 29  1  0
 28 30  1  0
 28 61  1  6
 29 51  1  1
 29 52  1  0
 29 53  1  0
 30 54  1  1
 30 55  1  0
 30 56  1  0
 31 32  1  0
 31 57  1  0
 32 33  2  0
 32 58  1  0
 33 34  1  0
 33 59  1  0
 34 60  1  0
M  CHG  1  28   1
M  END
>  <s_epik_cmdline>  (1054) 
J2VwaWtfcHl0aG9uJywgJy1waCcsICc3LjAwMDAwMCcsICctcGh0JywgJzIuMDAwMDAwJywgJy1tcycsICcxNicsICctdG4nLCAnOCcsICctbWEnLCAnMjAwJywgJy1pbWFlJywgJzxpbmZpbGUubWFlPicsICctb21hZScsICc8b3V0ZmlsZS5tYWU+Jw==

>  <s_epik_input>  (1054) 
W2NIXTFbY0hdW2NIXVtjSF1jKGMxQ2wpW0NASF0oW09IXSlDI0NjMmMoW25IXWMoYzIzKVtjSF1bY0hdW2NIXVtjSF0zKUMoPU8pW05IXVtDSDJdYzRbY0hdYyhbY0hdW2NIXVtjSF00KVtDSDJdTihbQ0gzXSlbQ0gzXQ==

>  <s_i_glide_gridfile>  (1054) 
ATP-Grid

>  <s_lp_Force_Field>  (1054) 
OPLS_2005

>  <s_lp_Variant>  (1054) 
rxn513b____EMOL2873214____EMOL719673____EMOL38277732-1

>  <s_lp_label>  (1054) 
2861_sdstereoexpander_1_neutralizer_1_epik_1_stereoizer_1

>  <s_m_source_file>  (1054) 
ATP-VSW-LIGPREP-002-in.maegz

>  <s_sd_BIOSOLVEIT.INFINISEE\_QUERY\_NAME>  (1054) 
Ref-Lig

>  <s_sd_BIOSOLVEIT.INFINISEE\_QUERY\_SMILES>  (1054) 
S(c1nc2c(cc1C[NH2+]Cc3ccc(cc3)C[NH+](C)C)cccc2)Cc4ccccc4

>  <s_sd_BIOSOLVEIT.INFINISEE\_REACTION\_NAME>  (1054) 
rxn513b

>  <s_sd_BIOSOLVEIT.INFINISEE\_REAGENT1\_NAME>  (1054) 
EMOL2873214

>  <s_sd_BIOSOLVEIT.INFINISEE\_REAGENT1\_SMILES>  (1054) 
N(Cc1cc(ccc1)CN)(C)C

>  <s_sd_BIOSOLVEIT.INFINISEE\_REAGENT2\_NAME>  (1054) 
EMOL719673

>  <s_sd_BIOSOLVEIT.INFINISEE\_REAGENT2\_SMILES>  (1054) 
BrC=1c2c(NC1C(=O)O)cccc2

>  <s_sd_BIOSOLVEIT.INFINISEE\_REAGENT3\_NAME>  (1054) 
EMOL38277732

>  <s_sd_BIOSOLVEIT.INFINISEE\_REAGENT3\_SMILES>  (1054) 
Clc1c(cccc1)C(O)C#C

>  <s_sd_BIOSOLVEIT.INFINISEE\_SPACE>  (1054) 
eXplore_7tr_2022-12

>  <s_vsw_compound_code>  (1054) 
91522

>  <s_vsw_variant>  (1054) 
91522-1

>  <r_epik_Charging_Adjusted_Penalty>  (1054) 
0.090499947298345707

>  <r_epik_Ionization_Penalty>  (1054) 
0.049000000000000002

>  <r_epik_Ionization_Penalty_Charging>  (1054) 
0.045199999999999997

>  <r_epik_Ionization_Penalty_Neutral>  (1054) 
0.0038

>  <r_epik_State_Penalty>  (1054) 
0.045199999999999997

>  <r_i_docking_score>  (1054) 
-5.2426641656798001

>  <r_i_glide_ecoul>  (1054) 
-8.1171321868896502

>  <r_i_glide_eff_state_penalty>  (1054) 
0.045199999999999997

>  <r_i_glide_einternal>  (1054) 
3.6241271495819101

>  <r_i_glide_emodel>  (1054) 
-68.958426728468197

>  <r_i_glide_energy>  (1054) 
-49.599969863891602

>  <r_i_glide_erotb>  (1054) 
0.63280883125612597

>  <r_i_glide_esite>  (1054) 
-0.062701051227549404

>  <r_i_glide_evdw>  (1054) 
-41.482837677002003

>  <r_i_glide_gscore>  (1054) 
-5.2878641656798004

>  <r_i_glide_hbond>  (1054) 
-0.32000000000000001

>  <r_i_glide_ligand_efficiency>  (1054) 
-0.154196004872935

>  <r_i_glide_ligand_efficiency_ln>  (1054) 
-1.1582515659475401

>  <r_i_glide_ligand_efficiency_sa>  (1054) 
-0.49953519650902101

>  <r_i_glide_lipo>  (1054) 
-1.7683381578428901

>  <r_i_glide_metal>  (1054) 
-0

>  <r_i_glide_rewards>  (1054) 
-0.47792207598194197

>  <r_lp_Energy>  (1054) 
14.586207999999999

>  <r_qp_ACxDN^.5/SA>  (1054) 
0.0154702

>  <r_qp_CIQPlogS>  (1054) 
-6.3710000000000004

>  <r_qp_EA(eV)>  (1054) 
0.42199999999999999

>  <r_qp_FISA>  (1054) 
93.929000000000002

>  <r_qp_FOSA>  (1054) 
182.09700000000001

>  <r_qp_IP(eV)>  (1054) 
8.2490000000000006

>  <r_qp_Jm>  (1054) 
0.047828624150317002

>  <r_qp_PISA>  (1054) 
388.185

>  <r_qp_PSA>  (1054) 
74.370999999999995

>  <r_qp_PercentHumanOralAbsorption>  (1054) 
100

>  <r_qp_QPPCaco>  (1054) 
317.74299999999999

>  <r_qp_QPPMDCK>  (1054) 
231.249

>  <r_qp_QPlogBB>  (1054) 
-0.34799999999999998

>  <r_qp_QPlogHERG>  (1054) 
-6.3280000000000003

>  <r_qp_QPlogKhsa>  (1054) 
0.69499999999999995

>  <r_qp_QPlogKp>  (1054) 
-3.0819999999999999

>  <r_qp_QPlogPC16>  (1054) 
15.234

>  <r_qp_QPlogPo/w>  (1054) 
4.4459999999999997

>  <r_qp_QPlogPoct>  (1054) 
23.821999999999999

>  <r_qp_QPlogPw>  (1054) 
13.195

>  <r_qp_QPlogS>  (1054) 
-3.9129999999999998

>  <r_qp_QPpolrz>  (1054) 
46.933999999999997

>  <r_qp_SASA>  (1054) 
694.15700000000004

>  <r_qp_SAamideO>  (1054) 
0

>  <r_qp_SAfluorine>  (1054) 
0

>  <r_qp_WPSA>  (1054) 
29.946000000000002

>  <r_qp_accptHB>  (1054) 
6.2000000000000002

>  <r_qp_dip^2/V>  (1054) 
0.016190199999999998

>  <r_qp_dipole>  (1054) 
4.7240000000000002

>  <r_qp_donorHB>  (1054) 
3

>  <r_qp_glob>  (1054) 
0.86285909999999999

>  <r_qp_mol_MW>  (1054) 
471.98500000000001

>  <r_qp_volume>  (1054) 
1378.316

>  <r_sd_BIOSOLVEIT.INFINISEE\_FTREES\_SIMILARITY>  (1054) 
0.90500000000000003

>  <r_sd_BIOSOLVEIT.LOGP>  (1054) 
3.4809000000000001

>  <r_sd_BIOSOLVEIT.MOLECULAR\_WEIGHT>  (1054) 
472.99299999999999

>  <r_sd_BIOSOLVEIT.TPSA>  (1054) 
69.560000000000002

>  <i_epik_Tot_Q>  (1054) 
1

>  <i_epik_Tot_abs_Q>  (1054) 
1

>  <i_f3d_flags>  (1054) 
0

>  <i_i_glide_confnum>  (1054) 
7

>  <i_i_glide_lignum>  (1054) 
1418

>  <i_i_glide_posenum>  (1054) 
19

>  <i_i_glide_rotatable_bonds>  (1054) 
10

>  <i_lp_mmshare_version>  (1054) 
65135

>  <i_m_ct_format>  (1054) 
2

>  <i_m_source_file_index>  (1054) 
2861

>  <i_qp_#NandO>  (1054) 
5

>  <i_qp_#acid>  (1054) 
0

>  <i_qp_#amide>  (1054) 
0

>  <i_qp_#amidine>  (1054) 
0

>  <i_qp_#amine>  (1054) 
1

>  <i_qp_#in34>  (1054) 
0

>  <i_qp_#in56>  (1054) 
21

>  <i_qp_#metab>  (1054) 
5

>  <i_qp_#nonHatm>  (1054) 
34

>  <i_qp_#noncon>  (1054) 
0

>  <i_qp_#ringatoms>  (1054) 
21

>  <i_qp_#rotor>  (1054) 
9

>  <i_qp_#rtvFG>  (1054) 
0

>  <i_qp_#stars>  (1054) 
0

>  <i_qp_CNS>  (1054) 
0

>  <i_qp_HumanOralAbsorption>  (1054) 
3

>  <i_qp_RuleOfFive>  (1054) 
0

>  <i_qp_RuleOfThree>  (1054) 
0

>  <i_sd_BIOSOLVEIT.INFINISEE\_RESULT\_RANK>  (1054) 
70261

>  <i_sd_version>  (1054) 
0

>  <b_lp_Chiralities_Consistent>  (1054) 
1

>  <b_sd_chiral_flag>  (1054) 
0

>  <canonical_id>  (1054) 
ATP-HTVS-A845026C7E40

>  <compound_code>  (1054) 
91522

>  <title>  (1054) 
rxn513b____EMOL2873214____EMOL719673____EMOL38277732

>  <variant>  (1054) 
91522-1

>  <source_file>  (1054) 
运行/运行/ATP-VSW/ATP-VSW-DOCK_HTVS_1-002_lib.maegz

>  <canonical_smiles>  (1054) 
C[NH+](C)Cc1cccc(CNC(=O)c2[nH]c3ccccc3c2C#C[C@@H](O)c2ccccc2Cl)c1

>  <scaffold>  (1054) 
O=C(NCc1ccccc1)c1[nH]c2ccccc2c1C#CCc1ccccc1

>  <molecular_formula>  (1054) 
C28H27ClN3O2+

$$$$
ATP-HTVS-A8555051B7A8
     RDKit          3D

 52 54  0  0  0  0  0  0  0  0999 V2000
  197.6166  183.4298  154.2491 N   0  0  0  0  0  0  0  0  0  0  0  0
  197.4087  182.3437  155.0381 C   0  0  0  0  0  0  0  0  0  0  0  0
  197.0135  181.1278  154.4237 N   0  0  0  0  0  0  0  0  0  0  0  0
  196.9230  180.8589  153.0445 C   0  0  0  0  0  0  0  0  0  0  0  0
  196.4022  181.8255  152.1494 C   0  0  0  0  0  0  0  0  0  0  0  0
  196.3447  181.5720  150.7726 C   0  0  0  0  0  0  0  0  0  0  0  0
  196.7522  180.3271  150.2659 C   0  0  0  0  0  0  0  0  0  0  0  0
  197.2525  179.3450  151.1401 C   0  0  0  0  0  0  0  0  0  0  0  0
  197.3548  179.6154  152.5194 C   0  0  0  0  0  0  0  0  0  0  0  0
  196.7457  179.9964  155.3203 C   0  0  2  0  0  0  0  0  0  0  0  0
  197.6424  182.4088  156.4321 C   0  0  0  0  0  0  0  0  0  0  0  0
  198.1088  183.5894  157.0127 C   0  0  0  0  0  0  0  0  0  0  0  0
  198.2075  184.7434  156.1973 C   0  0  0  0  0  0  0  0  0  0  0  0
  197.9628  184.6025  154.8160 C   0  0  0  0  0  0  0  0  0  0  0  0
  198.5954  186.1040  156.7713 C   0  0  1  0  0  0  0  0  0  0  0  0
  197.6344  186.6806  157.6965 N   0  0  0  0  0  0  0  0  0  0  0  0
  197.6713  186.0260  159.0001 C   0  0  1  0  0  0  0  0  0  0  0  0
  196.4040  186.2766  159.7700 C   0  0  0  0  0  0  0  0  0  0  0  0
  195.3014  185.3663  159.7367 C   0  0  0  0  0  0  0  0  0  0  0  0
  195.3847  184.1847  158.9803 N   0  0  0  0  0  0  0  0  0  0  0  0
  194.2288  183.3191  158.7089 C   0  0  1  0  0  0  0  0  0  0  0  0
  194.6019  181.8364  158.7273 C   0  0  2  0  0  0  0  0  0  0  0  0
  194.1720  185.6615  160.5272 C   0  0  0  0  0  0  0  0  0  0  0  0
  194.1141  186.8192  161.3274 C   0  0  0  0  0  0  0  0  0  0  0  0
  195.1983  187.7218  161.3198 C   0  0  0  0  0  0  0  0  0  0  0  0
  196.3308  187.4563  160.5512 C   0  0  0  0  0  0  0  0  0  0  0  0
  197.8391  187.6749  157.7665 H   0  0  0  0  0  0  0  0  0  0  0  0
  196.0373  182.7801  152.5015 H   0  0  0  0  0  0  0  0  0  0  0  0
  195.9745  182.3524  150.1297 H   0  0  0  0  0  0  0  0  0  0  0  0
  196.6915  180.1294  149.2110 H   0  0  0  0  0  0  0  0  0  0  0  0
  197.5723  178.3863  150.7698 H   0  0  0  0  0  0  0  0  0  0  0  0
  197.7738  178.8550  153.1652 H   0  0  0  0  0  0  0  0  0  0  0  0
  196.3684  179.0995  154.8271 H   0  0  0  0  0  0  0  0  0  0  0  0
  195.9664  180.2860  156.0292 H   0  0  0  0  0  0  0  0  0  0  0  0
  197.6300  179.7040  155.8927 H   0  0  0  0  0  0  0  0  0  0  0  0
  197.5012  181.5551  157.0849 H   0  0  0  0  0  0  0  0  0  0  0  0
  198.3667  183.5628  158.0537 H   0  0  0  0  0  0  0  0  0  0  0  0
  198.0620  185.4389  154.1433 H   0  0  0  0  0  0  0  0  0  0  0  0
  199.5677  186.0400  157.2428 H   0  0  0  0  0  0  0  0  0  0  0  0
  198.7108  186.8017  155.9475 H   0  0  0  0  0  0  0  0  0  0  0  0
  197.7495  184.9885  158.9694 H   0  0  0  0  0  0  0  0  0  0  0  0
  198.5386  186.4199  159.5531 H   0  0  0  0  0  0  0  0  0  0  0  0
  196.1548  184.0695  158.3420 H   0  0  0  0  0  0  0  0  0  0  0  0
  193.4033  183.4282  159.4059 H   0  0  0  0  0  0  0  0  0  0  0  0
  193.8286  183.5858  157.7311 H   0  0  0  0  0  0  0  0  0  0  0  0
  193.7164  181.2208  158.5597 H   0  0  0  0  0  0  0  0  0  0  0  0
  195.0213  181.5515  159.6928 H   0  0  0  0  0  0  0  0  0  0  0  0
  195.3238  181.5809  157.9500 H   0  0  0  0  0  0  0  0  0  0  0  0
  193.2967  185.0230  160.5588 H   0  0  0  0  0  0  0  0  0  0  0  0
  193.2308  187.0077  161.9289 H   0  0  0  0  0  0  0  0  0  0  0  0
  195.1522  188.6129  161.9488 H   0  0  0  0  0  0  0  0  0  0  0  0
  197.1718  188.1352  160.5945 H   0  0  0  0  0  0  0  0  0  0  0  0
  1  2  1  0
  1 14  2  0
  2  3  1  0
  2 11  2  0
  3  4  1  0
  3 10  1  0
  4  5  2  0
  4  9  1  0
  5  6  1  0
  5 28  1  0
  6  7  2  0
  6 29  1  0
  7  8  1  0
  7 30  1  0
  8  9  2  0
  8 31  1  0
  9 32  1  0
 10 33  1  6
 10 34  1  0
 10 35  1  0
 11 12  1  0
 11 36  1  0
 12 13  2  0
 12 37  1  0
 13 14  1  0
 13 15  1  0
 14 38  1  0
 15 16  1  0
 15 39  1  1
 15 40  1  0
 16 17  1  0
 16 27  1  0
 17 18  1  0
 17 41  1  6
 17 42  1  0
 18 19  1  0
 18 26  2  0
 19 20  1  0
 19 23  2  0
 20 21  1  0
 20 43  1  0
 21 22  1  0
 21 44  1  1
 21 45  1  0
 22 46  1  6
 22 47  1  0
 22 48  1  0
 23 24  1  0
 23 49  1  0
 24 25  2  0
 24 50  1  0
 25 26  1  0
 25 51  1  0
 26 52  1  0
M  END
>  <s_epik_cmdline>  (1055) 
J2VwaWtfcHl0aG9uJywgJy1waCcsICc3LjAwMDAwMCcsICctcGh0JywgJzIuMDAwMDAwJywgJy1tcycsICcxNicsICctdG4nLCAnOCcsICctbWEnLCAnMjAwJywgJy1pbWFlJywgJzxpbmZpbGUubWFlPicsICctb21hZScsICc8b3V0ZmlsZS5tYWU+Jw==

>  <s_epik_input>  (1055) 
W2NIXTFbY0hdW2NIXVtjSF1bY0hdYzFOKFtDSDNdKWMybltjSF1jKFtjSF1bY0hdMilbQ0gyXVtOSF1bQ0gyXWMzYyhbTkhdW0NIMl1bQ0gzXSlbY0hdW2NIXVtjSF1bY0hdMw==

>  <s_i_glide_gridfile>  (1055) 
ATP-Grid

>  <s_lp_Force_Field>  (1055) 
OPLS_2005

>  <s_lp_Variant>  (1055) 
m_270004bbb____25290082____9705990-2

>  <s_lp_label>  (1055) 
825_sdstereoexpander_1_neutralizer_1_epik_2_stereoizer_1

>  <s_m_source_file>  (1055) 
ATP-VSW-LIGPREP-001-in.maegz

>  <s_sd_BIOSOLVEIT.INFINISEE\_QUERY\_NAME>  (1055) 
Ref-Lig

>  <s_sd_BIOSOLVEIT.INFINISEE\_QUERY\_SMILES>  (1055) 
S(c1nc2c(cc1C[NH2+]Cc3ccc(cc3)C[NH+](C)C)cccc2)Cc4ccccc4

>  <s_sd_BIOSOLVEIT.INFINISEE\_REACTION\_NAME>  (1055) 
m_270004bbb

>  <s_sd_BIOSOLVEIT.INFINISEE\_REAGENT1\_SMILES>  (1055) 
[R1*]NCc1c(NCC)cccc1

>  <s_sd_BIOSOLVEIT.INFINISEE\_REAGENT2\_SMILES>  (1055) 
[R1*]Cc1cnc(N(c2ccccc2)C)cc1

>  <s_sd_BIOSOLVEIT.INFINISEE\_SPACE>  (1055) 
REALSpace_44bn_2023-08

>  <s_vsw_compound_code>  (1055) 
26369

>  <s_vsw_variant>  (1055) 
26369-2

>  <r_epik_Charging_Adjusted_Penalty>  (1055) 
1.24675868823712

>  <r_epik_Ionization_Penalty>  (1055) 
1.3078000000000001

>  <r_epik_Ionization_Penalty_Charging>  (1055) 
0

>  <r_epik_Ionization_Penalty_Neutral>  (1055) 
1.3078000000000001

>  <r_epik_State_Penalty>  (1055) 
1.2467999999999999

>  <r_i_docking_score>  (1055) 
-2.1222899244209499

>  <r_i_glide_ecoul>  (1055) 
-0.88970285654068004

>  <r_i_glide_eff_state_penalty>  (1055) 
1.2467999999999999

>  <r_i_glide_einternal>  (1055) 
2.1480629444122301

>  <r_i_glide_emodel>  (1055) 
-40.921472620892601

>  <r_i_glide_energy>  (1055) 
-34.491372168064103

>  <r_i_glide_erotb>  (1055) 
1.10868771081685

>  <r_i_glide_esite>  (1055) 
-0.032250390999457201

>  <r_i_glide_evdw>  (1055) 
-33.601669311523402

>  <r_i_glide_gscore>  (1055) 
-3.3690899244209498

>  <r_i_glide_hbond>  (1055) 
0

>  <r_i_glide_ligand_efficiency>  (1055) 
-0.081626535554651894

>  <r_i_glide_ligand_efficiency_ln>  (1055) 
-0.498412824949025

>  <r_i_glide_ligand_efficiency_sa>  (1055) 
-0.24181829039574801

>  <r_i_glide_lipo>  (1055) 
-1.58518362290834

>  <r_i_glide_metal>  (1055) 
-0

>  <r_i_glide_rewards>  (1055) 
-1.0468047272727301

>  <r_lp_Energy>  (1055) 
23.687018999999999

>  <r_lp_tautomer_probability>  (1055) 
1

>  <r_qp_ACxDN^.5/SA>  (1055) 
0.0089196999999999992

>  <r_qp_CIQPlogS>  (1055) 
-4.5949999999999998

>  <r_qp_EA(eV)>  (1055) 
0.26000000000000001

>  <r_qp_FISA>  (1055) 
29.010999999999999

>  <r_qp_FOSA>  (1055) 
210.90799999999999

>  <r_qp_IP(eV)>  (1055) 
7.875

>  <r_qp_Jm>  (1055) 
0.74556990548323798

>  <r_qp_PISA>  (1055) 
394.28100000000001

>  <r_qp_PSA>  (1055) 
35.781999999999996

>  <r_qp_PercentHumanOralAbsorption>  (1055) 
100

>  <r_qp_QPPCaco>  (1055) 
1311.2460000000001

>  <r_qp_QPPMDCK>  (1055) 
733.55399999999997

>  <r_qp_QPlogBB>  (1055) 
0.217

>  <r_qp_QPlogHERG>  (1055) 
-6.4420000000000002

>  <r_qp_QPlogKhsa>  (1055) 
0.68799999999999994

>  <r_qp_QPlogKp>  (1055) 
-1.96

>  <r_qp_QPlogPC16>  (1055) 
12.753

>  <r_qp_QPlogPo/w>  (1055) 
4.6580000000000004

>  <r_qp_QPlogPoct>  (1055) 
18.154

>  <r_qp_QPlogPw>  (1055) 
9.2289999999999992

>  <r_qp_QPlogS>  (1055) 
-3.7069999999999999

>  <r_qp_QPpolrz>  (1055) 
40.207000000000001

>  <r_qp_SASA>  (1055) 
634.20100000000002

>  <r_qp_SAamideO>  (1055) 
0

>  <r_qp_SAfluorine>  (1055) 
0

>  <r_qp_WPSA>  (1055) 
0

>  <r_qp_accptHB>  (1055) 
4

>  <r_qp_dip^2/V>  (1055) 
0.0059100000000000003

>  <r_qp_dipole>  (1055) 
2.6549999999999998

>  <r_qp_donorHB>  (1055) 
2

>  <r_qp_glob>  (1055) 
0.85762340000000004

>  <r_qp_mol_MW>  (1055) 
346.47399999999999

>  <r_qp_volume>  (1055) 
1192.7180000000001

>  <r_sd_BIOSOLVEIT.INFINISEE\_FTREES\_SIMILARITY>  (1055) 
0.92200000000000004

>  <r_sd_BIOSOLVEIT.LOGP>  (1055) 
3.5449000000000002

>  <r_sd_BIOSOLVEIT.MOLECULAR\_WEIGHT>  (1055) 
347.483

>  <r_sd_BIOSOLVEIT.TPSA>  (1055) 
44.770000000000003

>  <i_epik_Tot_Q>  (1055) 
0

>  <i_epik_Tot_abs_Q>  (1055) 
0

>  <i_f3d_flags>  (1055) 
0

>  <i_i_glide_confnum>  (1055) 
5

>  <i_i_glide_lignum>  (1055) 
142

>  <i_i_glide_posenum>  (1055) 
8

>  <i_i_glide_rotatable_bonds>  (1055) 
8

>  <i_lp_mmshare_version>  (1055) 
65135

>  <i_m_ct_format>  (1055) 
2

>  <i_m_source_file_index>  (1055) 
825

>  <i_qp_#NandO>  (1055) 
4

>  <i_qp_#acid>  (1055) 
0

>  <i_qp_#amide>  (1055) 
0

>  <i_qp_#amidine>  (1055) 
0

>  <i_qp_#amine>  (1055) 
1

>  <i_qp_#in34>  (1055) 
0

>  <i_qp_#in56>  (1055) 
18

>  <i_qp_#metab>  (1055) 
9

>  <i_qp_#nonHatm>  (1055) 
26

>  <i_qp_#noncon>  (1055) 
0

>  <i_qp_#ringatoms>  (1055) 
18

>  <i_qp_#rotor>  (1055) 
8

>  <i_qp_#rtvFG>  (1055) 
0

>  <i_qp_#stars>  (1055) 
2

>  <i_qp_CNS>  (1055) 
1

>  <i_qp_HumanOralAbsorption>  (1055) 
3

>  <i_qp_RuleOfFive>  (1055) 
0

>  <i_qp_RuleOfThree>  (1055) 
1

>  <i_sd_BIOSOLVEIT.INFINISEE\_REAGENT1\_NAME>  (1055) 
25290082

>  <i_sd_BIOSOLVEIT.INFINISEE\_REAGENT2\_NAME>  (1055) 
9705990

>  <i_sd_BIOSOLVEIT.INFINISEE\_RESULT\_RANK>  (1055) 
13211

>  <i_sd_version>  (1055) 
0

>  <b_lp_Chiralities_Consistent>  (1055) 
1

>  <b_sd_chiral_flag>  (1055) 
0

>  <canonical_id>  (1055) 
ATP-HTVS-A8555051B7A8

>  <compound_code>  (1055) 
26369

>  <title>  (1055) 
m_270004bbb____25290082____9705990

>  <variant>  (1055) 
26369-2

>  <source_file>  (1055) 
运行/运行/ATP-VSW/ATP-VSW-DOCK_HTVS_1-001_lib/ATP-VSW-DOCK_HTVS_1-001_lib

>  <canonical_smiles>  (1055) 
CCNc1ccccc1CNCc1ccc(N(C)c2ccccc2)nc1

>  <scaffold>  (1055) 
c1ccc(CNCc2ccc(Nc3ccccc3)nc2)cc1

>  <molecular_formula>  (1055) 
C22H26N4

$$$$
ATP-HTVS-A86A798575A4
     RDKit          3D

 52 55  0  0  0  0  0  0  0  0999 V2000
  200.9289  182.1472  146.6820 F   0  0  0  0  0  0  0  0  0  0  0  0
  200.0521  182.9357  147.3533 C   0  0  0  0  0  0  0  0  0  0  0  0
  199.1310  182.3753  148.2658 C   0  0  0  0  0  0  0  0  0  0  0  0
  199.1400  180.9940  148.5011 N   0  0  0  0  0  0  0  0  0  0  0  0
  198.3248  180.4531  149.3605 C   0  0  0  0  0  0  0  0  0  0  0  0
  197.3719  181.2447  150.0745 N   0  0  0  0  0  0  0  0  0  0  0  0
  197.2073  182.5772  149.8635 C   0  0  0  0  0  0  0  0  0  0  0  0
  196.3085  183.2444  150.3693 O   0  0  0  0  0  0  0  0  0  0  0  0
  198.2097  183.2141  148.9359 C   0  0  0  0  0  0  0  0  0  0  0  0
  198.2384  184.6065  148.7197 C   0  0  0  0  0  0  0  0  0  0  0  0
  199.1570  185.1658  147.8091 C   0  0  0  0  0  0  0  0  0  0  0  0
  200.0565  184.3270  147.1193 C   0  0  0  0  0  0  0  0  0  0  0  0
  196.4366  180.5752  151.0075 C   0  0  1  0  0  0  0  0  0  0  0  0
  196.7553  180.7661  152.4911 C   0  0  0  0  0  0  0  0  0  0  0  0
  196.8663  179.6439  153.3400 C   0  0  0  0  0  0  0  0  0  0  0  0
  197.1471  179.7897  154.7155 C   0  0  0  0  0  0  0  0  0  0  0  0
  197.3459  181.0825  155.2465 C   0  0  0  0  0  0  0  0  0  0  0  0
  197.2854  182.2052  154.3864 C   0  0  0  0  0  0  0  0  0  0  0  0
  196.9503  182.0662  153.0263 C   0  0  0  0  0  0  0  0  0  0  0  0
  197.6236  181.2738  156.7305 C   0  0  1  0  0  0  0  0  0  0  0  0
  196.4685  181.8483  157.4725 N   0  0  2  0  0  0  0  0  0  0  0  0
  196.1708  183.2706  157.1622 C   0  0  2  0  0  0  0  0  0  0  0  0
  196.6207  181.6862  158.9324 C   0  0  2  0  0  0  0  0  0  0  0  0
  198.4337  178.9686  149.5180 C   0  0  0  0  0  0  0  0  0  0  0  0
  198.7405  178.4066  150.7762 C   0  0  0  0  0  0  0  0  0  0  0  0
  198.8274  177.0108  150.9288 C   0  0  0  0  0  0  0  0  0  0  0  0
  198.6322  176.1645  149.8191 C   0  0  0  0  0  0  0  0  0  0  0  0
  198.3433  176.7196  148.5568 C   0  0  0  0  0  0  0  0  0  0  0  0
  198.2422  178.1176  148.4053 C   0  0  0  0  0  0  0  0  0  0  0  0
  197.5464  185.2502  149.2396 H   0  0  0  0  0  0  0  0  0  0  0  0
  199.1570  186.2335  147.6300 H   0  0  0  0  0  0  0  0  0  0  0  0
  200.7513  184.7538  146.4116 H   0  0  0  0  0  0  0  0  0  0  0  0
  195.4252  180.9435  150.8284 H   0  0  0  0  0  0  0  0  0  0  0  0
  196.3268  179.5216  150.7950 H   0  0  0  0  0  0  0  0  0  0  0  0
  196.7293  178.6537  152.9353 H   0  0  0  0  0  0  0  0  0  0  0  0
  197.2131  178.9152  155.3614 H   0  0  0  0  0  0  0  0  0  0  0  0
  197.4628  183.2005  154.7642 H   0  0  0  0  0  0  0  0  0  0  0  0
  196.8391  182.9532  152.4245 H   0  0  0  0  0  0  0  0  0  0  0  0
  197.8803  180.2993  157.1613 H   0  0  0  0  0  0  0  0  0  0  0  0
  198.5063  181.9062  156.8513 H   0  0  0  0  0  0  0  0  0  0  0  0
  197.0365  183.9086  157.3509 H   0  0  0  0  0  0  0  0  0  0  0  0
  195.3338  183.6452  157.7598 H   0  0  0  0  0  0  0  0  0  0  0  0
  195.9077  183.4032  156.1151 H   0  0  0  0  0  0  0  0  0  0  0  0
  197.4853  182.2399  159.2971 H   0  0  0  0  0  0  0  0  0  0  0  0
  196.7612  180.6442  159.1961 H   0  0  0  0  0  0  0  0  0  0  0  0
  195.7366  182.0437  159.4591 H   0  0  0  0  0  0  0  0  0  0  0  0
  198.9106  179.0470  151.6282 H   0  0  0  0  0  0  0  0  0  0  0  0
  199.0458  176.5879  151.9006 H   0  0  0  0  0  0  0  0  0  0  0  0
  198.7082  175.0922  149.9380 H   0  0  0  0  0  0  0  0  0  0  0  0
  198.2022  176.0698  147.7042 H   0  0  0  0  0  0  0  0  0  0  0  0
  198.0253  178.5279  147.4284 H   0  0  0  0  0  0  0  0  0  0  0  0
  195.6693  181.2829  157.2158 H   0  0  0  0  0  0  0  0  0  0  0  0
  1  2  1  0
  2  3  2  0
  2 12  1  0
  3  4  1  0
  3  9  1  0
  4  5  2  0
  5  6  1  0
  5 24  1  0
  6  7  1  0
  6 13  1  0
  7  8  2  0
  7  9  1  0
  9 10  2  0
 10 11  1  0
 10 30  1  0
 11 12  2  0
 11 31  1  0
 12 32  1  0
 13 14  1  0
 13 33  1  1
 13 34  1  0
 14 15  1  0
 14 19  2  0
 15 16  2  0
 15 35  1  0
 16 17  1  0
 16 36  1  0
 17 18  2  0
 17 20  1  0
 18 19  1  0
 18 37  1  0
 19 38  1  0
 20 21  1  0
 20 39  1  1
 20 40  1  0
 21 22  1  0
 21 23  1  0
 21 52  1  6
 22 41  1  1
 22 42  1  0
 22 43  1  0
 23 44  1  1
 23 45  1  0
 23 46  1  0
 24 25  2  0
 24 29  1  0
 25 26  1  0
 25 47  1  0
 26 27  2  0
 26 48  1  0
 27 28  1  0
 27 49  1  0
 28 29  2  0
 28 50  1  0
 29 51  1  0
M  CHG  1  21   1
M  END
>  <s_epik_cmdline>  (1056) 
J2VwaWtfcHl0aG9uJywgJy1waCcsICc3LjAwMDAwMCcsICctcGh0JywgJzIuMDAwMDAwJywgJy1tcycsICcxNicsICctdG4nLCAnOCcsICctbWEnLCAnMjAwJywgJy1pbWFlJywgJzxpbmZpbGUubWFlPicsICctb21hZScsICc8b3V0ZmlsZS5tYWU+Jw==

>  <s_epik_input>  (1056) 
RmMxW2NIXVtjSF1bY0hdYyhjMTIpYyg9TyluKGMobjIpLWMzW2NIXVtjSF1bY0hdW2NIXVtjSF0zKVtDSDJdYzRbY0hdW2NIXWMoW2NIXVtjSF00KVtDSDJdTihbQ0gzXSlbQ0gzXQ==

>  <s_i_glide_gridfile>  (1056) 
ATP-Grid

>  <s_lp_Force_Field>  (1056) 
OPLS_2005

>  <s_lp_Variant>  (1056) 
rxn318____EMOL50155899____EMOL478180____EMOL917339-1

>  <s_lp_label>  (1056) 
3071_sdstereoexpander_1_neutralizer_1_epik_1_stereoizer_1

>  <s_m_source_file>  (1056) 
ATP-VSW-LIGPREP-001-in.maegz

>  <s_sd_BIOSOLVEIT.INFINISEE\_QUERY\_NAME>  (1056) 
Ref-Lig

>  <s_sd_BIOSOLVEIT.INFINISEE\_QUERY\_SMILES>  (1056) 
S(c1nc2c(cc1C[NH2+]Cc3ccc(cc3)C[NH+](C)C)cccc2)Cc4ccccc4

>  <s_sd_BIOSOLVEIT.INFINISEE\_REACTION\_NAME>  (1056) 
rxn318

>  <s_sd_BIOSOLVEIT.INFINISEE\_REAGENT1\_NAME>  (1056) 
EMOL50155899

>  <s_sd_BIOSOLVEIT.INFINISEE\_REAGENT1\_SMILES>  (1056) 
N(Cc1ccc(cc1)CN)(C)C

>  <s_sd_BIOSOLVEIT.INFINISEE\_REAGENT2\_NAME>  (1056) 
EMOL478180

>  <s_sd_BIOSOLVEIT.INFINISEE\_REAGENT2\_SMILES>  (1056) 
[O-]C(=O)c1ccccc1

>  <s_sd_BIOSOLVEIT.INFINISEE\_REAGENT3\_NAME>  (1056) 
EMOL917339

>  <s_sd_BIOSOLVEIT.INFINISEE\_REAGENT3\_SMILES>  (1056) 
Fc1c(N)c(ccc1)C(=O)O

>  <s_sd_BIOSOLVEIT.INFINISEE\_SPACE>  (1056) 
eXplore_7tr_2022-12

>  <s_vsw_compound_code>  (1056) 
98241

>  <s_vsw_variant>  (1056) 
98241-1

>  <r_epik_Charging_Adjusted_Penalty>  (1056) 
0.084962150586894894

>  <r_epik_Ionization_Penalty>  (1056) 
0.042500000000000003

>  <r_epik_Ionization_Penalty_Charging>  (1056) 
0.042500000000000003

>  <r_epik_Ionization_Penalty_Neutral>  (1056) 
0

>  <r_epik_State_Penalty>  (1056) 
0.042500000000000003

>  <r_i_docking_score>  (1056) 
-4.7347846752284104

>  <r_i_glide_ecoul>  (1056) 
-7.7176961898803702

>  <r_i_glide_eff_state_penalty>  (1056) 
0.042500000000000003

>  <r_i_glide_einternal>  (1056) 
2.5170986652374299

>  <r_i_glide_emodel>  (1056) 
-52.022475038688398

>  <r_i_glide_energy>  (1056) 
-36.933049201965297

>  <r_i_glide_erotb>  (1056) 
0.51648312658222995

>  <r_i_glide_esite>  (1056) 
-0.10000000000000001

>  <r_i_glide_evdw>  (1056) 
-29.215353012085

>  <r_i_glide_gscore>  (1056) 
-4.7772846752284099

>  <r_i_glide_hbond>  (1056) 
-0.035006803050041398

>  <r_i_glide_ligand_efficiency>  (1056) 
-0.16326843707684199

>  <r_i_glide_ligand_efficiency_ln>  (1056) 
-1.08414562684733

>  <r_i_glide_ligand_efficiency_sa>  (1056) 
-0.50161236577158697

>  <r_i_glide_lipo>  (1056) 
-1.4259210280419199

>  <r_i_glide_metal>  (1056) 
-0

>  <r_i_glide_rewards>  (1056) 
-1.1144178916323799

>  <r_lp_Energy>  (1056) 
35.461821999999998

>  <r_lp_tautomer_probability>  (1056) 
1

>  <r_qp_ACxDN^.5/SA>  (1056) 
0

>  <r_qp_CIQPlogS>  (1056) 
-4.7889999999999997

>  <r_qp_EA(eV)>  (1056) 
0.84199999999999997

>  <r_qp_FISA>  (1056) 
44.238

>  <r_qp_FOSA>  (1056) 
201.874

>  <r_qp_IP(eV)>  (1056) 
9.1039999999999992

>  <r_qp_Jm>  (1056) 
0.036643574420496101

>  <r_qp_PISA>  (1056) 
415.45699999999999

>  <r_qp_PSA>  (1056) 
43.731999999999999

>  <r_qp_PercentHumanOralAbsorption>  (1056) 
100

>  <r_qp_QPPCaco>  (1056) 
940.34400000000005

>  <r_qp_QPPMDCK>  (1056) 
875.76599999999996

>  <r_qp_QPlogBB>  (1056) 
0.30599999999999999

>  <r_qp_QPlogHERG>  (1056) 
-7.4530000000000003

>  <r_qp_QPlogKhsa>  (1056) 
0.46000000000000002

>  <r_qp_QPlogKp>  (1056) 
-2.4540000000000002

>  <r_qp_QPlogPC16>  (1056) 
12.928000000000001

>  <r_qp_QPlogPo/w>  (1056) 
4.4119999999999999

>  <r_qp_QPlogPoct>  (1056) 
18.260000000000002

>  <r_qp_QPlogPw>  (1056) 
9.3620000000000001

>  <r_qp_QPlogS>  (1056) 
-4.5700000000000003

>  <r_qp_QPpolrz>  (1056) 
45.043999999999997

>  <r_qp_SASA>  (1056) 
704.10900000000004

>  <r_qp_SAamideO>  (1056) 
0

>  <r_qp_SAfluorine>  (1056) 
42.539999999999999

>  <r_qp_WPSA>  (1056) 
42.539999999999999

>  <r_qp_accptHB>  (1056) 
6

>  <r_qp_dip^2/V>  (1056) 
0.0073596

>  <r_qp_dipole>  (1056) 
3.0459999999999998

>  <r_qp_donorHB>  (1056) 
0

>  <r_qp_glob>  (1056) 
0.80142679999999999

>  <r_qp_mol_MW>  (1056) 
387.45600000000002

>  <r_qp_volume>  (1056) 
1260.3979999999999

>  <r_sd_BIOSOLVEIT.INFINISEE\_FTREES\_SIMILARITY>  (1056) 
0.90200000000000002

>  <r_sd_BIOSOLVEIT.LOGP>  (1056) 
2.8954

>  <r_sd_BIOSOLVEIT.MOLECULAR\_WEIGHT>  (1056) 
388.464

>  <r_sd_BIOSOLVEIT.TPSA>  (1056) 
39.329999999999998

>  <i_epik_Tot_Q>  (1056) 
1

>  <i_epik_Tot_abs_Q>  (1056) 
1

>  <i_f3d_flags>  (1056) 
0

>  <i_i_glide_confnum>  (1056) 
5

>  <i_i_glide_lignum>  (1056) 
39

>  <i_i_glide_posenum>  (1056) 
2

>  <i_i_glide_rotatable_bonds>  (1056) 
5

>  <i_lp_mmshare_version>  (1056) 
65135

>  <i_m_ct_format>  (1056) 
2

>  <i_m_source_file_index>  (1056) 
3071

>  <i_qp_#NandO>  (1056) 
4

>  <i_qp_#acid>  (1056) 
0

>  <i_qp_#amide>  (1056) 
0

>  <i_qp_#amidine>  (1056) 
0

>  <i_qp_#amine>  (1056) 
1

>  <i_qp_#in34>  (1056) 
0

>  <i_qp_#in56>  (1056) 
22

>  <i_qp_#metab>  (1056) 
3

>  <i_qp_#nonHatm>  (1056) 
29

>  <i_qp_#noncon>  (1056) 
0

>  <i_qp_#ringatoms>  (1056) 
22

>  <i_qp_#rotor>  (1056) 
5

>  <i_qp_#rtvFG>  (1056) 
0

>  <i_qp_#stars>  (1056) 
0

>  <i_qp_CNS>  (1056) 
1

>  <i_qp_HumanOralAbsorption>  (1056) 
3

>  <i_qp_RuleOfFive>  (1056) 
0

>  <i_qp_RuleOfThree>  (1056) 
0

>  <i_sd_BIOSOLVEIT.INFINISEE\_RESULT\_RANK>  (1056) 
93263

>  <i_sd_version>  (1056) 
0

>  <b_lp_Chiralities_Consistent>  (1056) 
1

>  <b_sd_chiral_flag>  (1056) 
0

>  <canonical_id>  (1056) 
ATP-HTVS-A86A798575A4

>  <compound_code>  (1056) 
98241

>  <title>  (1056) 
rxn318____EMOL50155899____EMOL478180____EMOL917339

>  <variant>  (1056) 
98241-1

>  <source_file>  (1056) 
运行/运行/ATP-VSW/ATP-VSW-DOCK_HTVS_1-002_lib.maegz

>  <canonical_smiles>  (1056) 
C[NH+](C)Cc1ccc(Cn2c(-c3ccccc3)nc3c(F)cccc3c2=O)cc1

>  <scaffold>  (1056) 
O=c1c2ccccc2nc(-c2ccccc2)n1Cc1ccccc1

>  <molecular_formula>  (1056) 
C24H23FN3O+

$$$$
ATP-HTVS-A89DA5D53108
     RDKit          3D

 63 66  0  0  0  0  0  0  0  0999 V2000
  199.5456  180.9700  155.7944 O   0  0  0  0  0  0  0  0  0  0  0  0
  198.4220  180.5867  156.1050 C   0  0  0  0  0  0  0  0  0  0  0  0
  197.6066  181.2371  156.9592 N   0  0  0  0  0  0  0  0  0  0  0  0
  197.6942  182.5684  157.4581 C   0  0  0  0  0  0  0  0  0  0  0  0
  198.8256  183.3077  157.3341 N   0  0  0  0  0  0  0  0  0  0  0  0
  198.8765  184.5454  157.8542 C   0  0  0  0  0  0  0  0  0  0  0  0
  197.8199  185.1593  158.5572 C   0  0  0  0  0  0  0  0  0  0  0  0
  198.0191  186.4416  159.1151 N   0  0  0  0  0  0  0  0  0  0  0  0
  197.1263  187.5244  158.6836 C   0  0  1  0  0  0  0  0  0  0  0  0
  197.7369  188.8925  158.7847 C   0  0  0  0  0  0  0  0  0  0  0  0
  198.6056  189.3557  157.7874 C   0  0  0  0  0  0  0  0  0  0  0  0
  199.1440  190.6539  157.8889 C   0  0  0  0  0  0  0  0  0  0  0  0
  198.8234  191.4831  158.9886 C   0  0  0  0  0  0  0  0  0  0  0  0
  199.4072  192.7577  159.0410 N   0  0  0  0  0  0  0  0  0  0  0  0
  199.2308  193.6277  160.2003 C   0  0  1  0  0  0  0  0  0  0  0  0
  199.4784  195.1069  159.8588 C   0  0  1  0  0  0  0  0  0  0  0  0
  199.0820  195.9334  160.9333 O   0  0  0  0  0  0  0  0  0  0  0  0
  197.9371  191.0022  159.9828 C   0  0  0  0  0  0  0  0  0  0  0  0
  197.3985  189.7108  159.8764 C   0  0  0  0  0  0  0  0  0  0  0  0
  196.6135  184.4084  158.6681 C   0  0  0  0  0  0  0  0  0  0  0  0
  196.5370  183.1107  158.0872 C   0  0  0  0  0  0  0  0  0  0  0  0
  195.3150  182.3789  158.1657 C   0  0  0  0  0  0  0  0  0  0  0  0
  194.1928  182.9195  158.8224 C   0  0  0  0  0  0  0  0  0  0  0  0
  194.2929  184.1841  159.4327 C   0  0  0  0  0  0  0  0  0  0  0  0
  195.4983  184.9122  159.3928 C   0  0  0  0  0  0  0  0  0  0  0  0
  197.8600  179.2664  155.5428 C   0  0  1  0  0  0  0  0  0  0  0  0
  198.1577  179.1223  154.1519 O   0  0  0  0  0  0  0  0  0  0  0  0
  197.5426  179.9186  153.1963 C   0  0  0  0  0  0  0  0  0  0  0  0
  197.6802  179.5232  151.8383 C   0  0  0  0  0  0  0  0  0  0  0  0
  198.3396  178.3298  151.5883 O   0  0  0  0  0  0  0  0  0  0  0  0
  198.4597  177.9035  150.2310 C   0  0  2  0  0  0  0  0  0  0  0  0
  197.1581  180.3492  150.8037 C   0  0  0  0  0  0  0  0  0  0  0  0
  196.5274  181.5742  151.1038 C   0  0  0  0  0  0  0  0  0  0  0  0
  196.3883  181.9523  152.4464 C   0  0  0  0  0  0  0  0  0  0  0  0
  196.8372  181.1269  153.4870 C   0  0  0  0  0  0  0  0  0  0  0  0
  196.7477  180.7307  157.1567 H   0  0  0  0  0  0  0  0  0  0  0  0
  199.8236  185.0527  157.7442 H   0  0  0  0  0  0  0  0  0  0  0  0
  198.9720  186.7375  159.2627 H   0  0  0  0  0  0  0  0  0  0  0  0
  196.7603  187.3591  157.6697 H   0  0  0  0  0  0  0  0  0  0  0  0
  196.2575  187.5916  159.3410 H   0  0  0  0  0  0  0  0  0  0  0  0
  198.8428  188.7219  156.9450 H   0  0  0  0  0  0  0  0  0  0  0  0
  199.8085  191.0052  157.1098 H   0  0  0  0  0  0  0  0  0  0  0  0
  200.1314  192.9820  158.3799 H   0  0  0  0  0  0  0  0  0  0  0  0
  198.2220  193.5696  160.6043 H   0  0  0  0  0  0  0  0  0  0  0  0
  199.9237  193.3126  160.9791 H   0  0  0  0  0  0  0  0  0  0  0  0
  200.5297  195.2775  159.5993 H   0  0  0  0  0  0  0  0  0  0  0  0
  198.8805  195.3873  158.9854 H   0  0  0  0  0  0  0  0  0  0  0  0
  199.4101  195.5583  161.7805 H   0  0  0  0  0  0  0  0  0  0  0  0
  197.6474  191.5749  160.8499 H   0  0  0  0  0  0  0  0  0  0  0  0
  196.7222  189.3643  160.6443 H   0  0  0  0  0  0  0  0  0  0  0  0
  195.1914  181.3856  157.7247 H   0  0  0  0  0  0  0  0  0  0  0  0
  193.2700  182.3634  158.8689 H   0  0  0  0  0  0  0  0  0  0  0  0
  193.4485  184.6139  159.9452 H   0  0  0  0  0  0  0  0  0  0  0  0
  195.5426  185.8424  159.9491 H   0  0  0  0  0  0  0  0  0  0  0  0
  198.2970  178.4231  156.0966 H   0  0  0  0  0  0  0  0  0  0  0  0
  196.7870  179.1853  155.7157 H   0  0  0  0  0  0  0  0  0  0  0  0
  198.9772  176.9415  150.1938 H   0  0  0  0  0  0  0  0  0  0  0  0
  199.0429  178.6163  149.6413 H   0  0  0  0  0  0  0  0  0  0  0  0
  197.4809  177.7672  149.7623 H   0  0  0  0  0  0  0  0  0  0  0  0
  197.2364  180.0811  149.7586 H   0  0  0  0  0  0  0  0  0  0  0  0
  196.1353  182.2249  150.3296 H   0  0  0  0  0  0  0  0  0  0  0  0
  195.9373  182.8992  152.7222 H   0  0  0  0  0  0  0  0  0  0  0  0
  196.6551  181.5047  154.4891 H   0  0  0  0  0  0  0  0  0  0  0  0
  1  2  2  0
  2  3  1  0
  2 26  1  0
  3  4  1  0
  3 36  1  0
  4  5  1  0
  4 21  2  0
  5  6  2  0
  6  7  1  0
  6 37  1  0
  7  8  1  0
  7 20  2  0
  8  9  1  0
  8 38  1  0
  9 10  1  0
  9 39  1  6
  9 40  1  0
 10 11  1  0
 10 19  2  0
 11 12  2  0
 11 41  1  0
 12 13  1  0
 12 42  1  0
 13 14  1  0
 13 18  2  0
 14 15  1  0
 14 43  1  0
 15 16  1  0
 15 44  1  1
 15 45  1  0
 16 17  1  0
 16 46  1  6
 16 47  1  0
 17 48  1  0
 18 19  1  0
 18 49  1  0
 19 50  1  0
 20 21  1  0
 20 25  1  0
 21 22  1  0
 22 23  2  0
 22 51  1  0
 23 24  1  0
 23 52  1  0
 24 25  2  0
 24 53  1  0
 25 54  1  0
 26 27  1  0
 26 55  1  1
 26 56  1  0
 27 28  1  0
 28 29  1  0
 28 35  2  0
 29 30  1  0
 29 32  2  0
 30 31  1  0
 31 57  1  1
 31 58  1  0
 31 59  1  0
 32 33  1  0
 32 60  1  0
 33 34  2  0
 33 61  1  0
 34 35  1  0
 34 62  1  0
 35 63  1  0
M  END
>  <s_epik_cmdline>  (1057) 
J2VwaWtfcHl0aG9uJywgJy1waCcsICc3LjAwMDAwMCcsICctcGh0JywgJzIuMDAwMDAwJywgJy1tcycsICcxNicsICctdG4nLCAnOCcsICctbWEnLCAnMjAwJywgJy1pbWFlJywgJzxpbmZpbGUubWFlPicsICctb21hZScsICc8b3V0ZmlsZS5tYWU+Jw==

>  <s_epik_input>  (1057) 
W2NIXTFbY0hdW2NIXVtjSF1jKE9bQ0gzXSljMU9bQ0gyXUMoPU8pW05IXWMoYyhjMjMpW2NIXVtjSF1bY0hdW2NIXTMpbltjSF1jMltOSF1bQ0gyXWM0W2NIXVtjSF1jKFtjSF1bY0hdNClbTkhdW0NIMl1bQ0gyXVtPSF0=

>  <s_i_glide_gridfile>  (1057) 
ATP-Grid

>  <s_lp_Force_Field>  (1057) 
OPLS_2005

>  <s_lp_Variant>  (1057) 
rxn502b____EMOL1315007____EMOL7515103____EMOL324170366-1

>  <s_lp_label>  (1057) 
3036_sdstereoexpander_1_neutralizer_1_epik_1_stereoizer_1

>  <s_m_source_file>  (1057) 
ATP-VSW-LIGPREP-001-in.maegz

>  <s_sd_BIOSOLVEIT.INFINISEE\_QUERY\_NAME>  (1057) 
Ref-Lig

>  <s_sd_BIOSOLVEIT.INFINISEE\_QUERY\_SMILES>  (1057) 
S(c1nc2c(cc1C[NH2+]Cc3ccc(cc3)C[NH+](C)C)cccc2)Cc4ccccc4

>  <s_sd_BIOSOLVEIT.INFINISEE\_REACTION\_NAME>  (1057) 
rxn502b

>  <s_sd_BIOSOLVEIT.INFINISEE\_REAGENT1\_NAME>  (1057) 
EMOL1315007

>  <s_sd_BIOSOLVEIT.INFINISEE\_REAGENT1\_SMILES>  (1057) 
ClC(=O)COc1c(OC)cccc1

>  <s_sd_BIOSOLVEIT.INFINISEE\_REAGENT2\_NAME>  (1057) 
EMOL7515103

>  <s_sd_BIOSOLVEIT.INFINISEE\_REAGENT2\_SMILES>  (1057) 
Brc1c2c(c(nc1)N)cccc2

>  <s_sd_BIOSOLVEIT.INFINISEE\_REAGENT3\_NAME>  (1057) 
EMOL324170366

>  <s_sd_BIOSOLVEIT.INFINISEE\_REAGENT3\_SMILES>  (1057) 
OCCNc1ccc(cc1)CN

>  <s_sd_BIOSOLVEIT.INFINISEE\_SPACE>  (1057) 
eXplore_7tr_2022-12

>  <s_vsw_compound_code>  (1057) 
97121

>  <s_vsw_variant>  (1057) 
97121-1

>  <r_epik_Charging_Adjusted_Penalty>  (1057) 
0.062665033750159305

>  <r_epik_Ionization_Penalty>  (1057) 
0.0356

>  <r_epik_Ionization_Penalty_Charging>  (1057) 
0

>  <r_epik_Ionization_Penalty_Neutral>  (1057) 
0.0356

>  <r_epik_State_Penalty>  (1057) 
0.062700000000000006

>  <r_i_docking_score>  (1057) 
-3.9489168676843001

>  <r_i_glide_ecoul>  (1057) 
-9.3631515502929705

>  <r_i_glide_eff_state_penalty>  (1057) 
0.062700000000000006

>  <r_i_glide_einternal>  (1057) 
7.5712733268737802

>  <r_i_glide_emodel>  (1057) 
-57.461573803241301

>  <r_i_glide_energy>  (1057) 
-47.618373870849602

>  <r_i_glide_erotb>  (1057) 
0.99614304439613399

>  <r_i_glide_esite>  (1057) 
-0.142715743057655

>  <r_i_glide_evdw>  (1057) 
-38.255222320556598

>  <r_i_glide_gscore>  (1057) 
-4.0116168676842996

>  <r_i_glide_hbond>  (1057) 
-0.145148551653007

>  <r_i_glide_ligand_efficiency>  (1057) 
-0.11282619621955201

>  <r_i_glide_ligand_efficiency_ln>  (1057) 
-0.86687489394458495

>  <r_i_glide_ligand_efficiency_sa>  (1057) 
-0.36906196892312099

>  <r_i_glide_lipo>  (1057) 
-1.2154046324343699

>  <r_i_glide_metal>  (1057) 
-0

>  <r_i_glide_rewards>  (1057) 
-0.187257136363634

>  <r_lp_Energy>  (1057) 
39.758673000000002

>  <r_lp_tautomer_probability>  (1057) 
1

>  <r_qp_ACxDN^.5/SA>  (1057) 
0.0210796

>  <r_qp_CIQPlogS>  (1057) 
-6.4710000000000001

>  <r_qp_EA(eV)>  (1057) 
0.68700000000000006

>  <r_qp_FISA>  (1057) 
148.679

>  <r_qp_FOSA>  (1057) 
249.33699999999999

>  <r_qp_IP(eV)>  (1057) 
7.5789999999999997

>  <r_qp_Jm>  (1057) 
0.0166525573171095

>  <r_qp_PISA>  (1057) 
427.42599999999999

>  <r_qp_PSA>  (1057) 
108.458

>  <r_qp_PercentHumanOralAbsorption>  (1057) 
100

>  <r_qp_QPPCaco>  (1057) 
385.45699999999999

>  <r_qp_QPPMDCK>  (1057) 
176.53899999999999

>  <r_qp_QPlogBB>  (1057) 
-1.835

>  <r_qp_QPlogHERG>  (1057) 
-7.3049999999999997

>  <r_qp_QPlogKhsa>  (1057) 
0.32300000000000001

>  <r_qp_QPlogKp>  (1057) 
-1.6020000000000001

>  <r_qp_QPlogPC16>  (1057) 
17.367999999999999

>  <r_qp_QPlogPo/w>  (1057) 
4.0789999999999997

>  <r_qp_QPlogPoct>  (1057) 
27.849

>  <r_qp_QPlogPw>  (1057) 
17.405000000000001

>  <r_qp_QPlogS>  (1057) 
-5.851

>  <r_qp_QPpolrz>  (1057) 
50.424999999999997

>  <r_qp_SASA>  (1057) 
825.44200000000001

>  <r_qp_SAamideO>  (1057) 
0

>  <r_qp_SAfluorine>  (1057) 
0

>  <r_qp_WPSA>  (1057) 
0

>  <r_qp_accptHB>  (1057) 
8.6999999999999993

>  <r_qp_dip^2/V>  (1057) 
0.037665900000000002

>  <r_qp_dipole>  (1057) 
7.5270000000000001

>  <r_qp_donorHB>  (1057) 
4

>  <r_qp_glob>  (1057) 
0.76919280000000001

>  <r_qp_mol_MW>  (1057) 
472.54300000000001

>  <r_qp_volume>  (1057) 
1504.3009999999999

>  <r_sd_BIOSOLVEIT.INFINISEE\_FTREES\_SIMILARITY>  (1057) 
0.90200000000000002

>  <r_sd_BIOSOLVEIT.LOGP>  (1057) 
4.2771999999999997

>  <r_sd_BIOSOLVEIT.MOLECULAR\_WEIGHT>  (1057) 
472.54199999999997

>  <r_sd_BIOSOLVEIT.TPSA>  (1057) 
104.73999999999999

>  <i_epik_Tot_Q>  (1057) 
0

>  <i_epik_Tot_abs_Q>  (1057) 
0

>  <i_f3d_flags>  (1057) 
0

>  <i_i_glide_confnum>  (1057) 
16

>  <i_i_glide_lignum>  (1057) 
13

>  <i_i_glide_posenum>  (1057) 
19

>  <i_i_glide_rotatable_bonds>  (1057) 
13

>  <i_lp_mmshare_version>  (1057) 
65135

>  <i_m_ct_format>  (1057) 
2

>  <i_m_source_file_index>  (1057) 
3036

>  <i_qp_#NandO>  (1057) 
8

>  <i_qp_#acid>  (1057) 
0

>  <i_qp_#amide>  (1057) 
0

>  <i_qp_#amidine>  (1057) 
0

>  <i_qp_#amine>  (1057) 
0

>  <i_qp_#in34>  (1057) 
0

>  <i_qp_#in56>  (1057) 
22

>  <i_qp_#metab>  (1057) 
11

>  <i_qp_#nonHatm>  (1057) 
35

>  <i_qp_#noncon>  (1057) 
0

>  <i_qp_#ringatoms>  (1057) 
22

>  <i_qp_#rotor>  (1057) 
12

>  <i_qp_#rtvFG>  (1057) 
0

>  <i_qp_#stars>  (1057) 
2

>  <i_qp_CNS>  (1057) 
-2

>  <i_qp_HumanOralAbsorption>  (1057) 
1

>  <i_qp_RuleOfFive>  (1057) 
0

>  <i_qp_RuleOfThree>  (1057) 
2

>  <i_sd_BIOSOLVEIT.INFINISEE\_RESULT\_RANK>  (1057) 
89825

>  <i_sd_version>  (1057) 
0

>  <b_lp_Chiralities_Consistent>  (1057) 
1

>  <b_sd_chiral_flag>  (1057) 
0

>  <canonical_id>  (1057) 
ATP-HTVS-A89DA5D53108

>  <compound_code>  (1057) 
97121

>  <title>  (1057) 
rxn502b____EMOL1315007____EMOL7515103____EMOL324170366

>  <variant>  (1057) 
97121-1

>  <source_file>  (1057) 
运行/运行/ATP-VSW/ATP-VSW-DOCK_HTVS_1-002_lib.maegz

>  <canonical_smiles>  (1057) 
COc1ccccc1OCC(=O)Nc1ncc(NCc2ccc(NCCO)cc2)c2ccccc12

>  <scaffold>  (1057) 
O=C(COc1ccccc1)Nc1ncc(NCc2ccccc2)c2ccccc12

>  <molecular_formula>  (1057) 
C27H28N4O4

$$$$
ATP-HTVS-A8B79B8D9CE4
     RDKit          3D

 55 58  0  0  0  0  0  0  0  0999 V2000
  196.5746  185.5258  160.0128 Cl  0  0  0  0  0  0  0  0  0  0  0  0
  196.3887  184.1462  158.9944 C   0  0  0  0  0  0  0  0  0  0  0  0
  195.1718  183.4424  158.9954 C   0  0  0  0  0  0  0  0  0  0  0  0
  195.0133  182.3141  158.1664 C   0  0  0  0  0  0  0  0  0  0  0  0
  193.7757  181.5610  158.1443 C   0  0  0  0  0  0  0  0  0  0  0  0
  192.7897  180.9552  158.1377 N   0  0  0  0  0  0  0  0  0  0  0  0
  196.0800  181.9054  157.3397 C   0  0  0  0  0  0  0  0  0  0  0  0
  197.3046  182.6055  157.3282 C   0  0  0  0  0  0  0  0  0  0  0  0
  197.4532  183.7231  158.1750 C   0  0  0  0  0  0  0  0  0  0  0  0
  198.4540  182.1355  156.4805 C   0  0  0  0  0  0  0  0  0  0  0  0
  199.6080  182.4715  156.7436 O   0  0  0  0  0  0  0  0  0  0  0  0
  198.0895  181.3954  155.4132 N   0  0  0  0  0  0  0  0  0  0  0  0
  198.9131  180.7031  154.4900 C   0  0  0  0  0  0  0  0  0  0  0  0
  200.2194  180.4474  154.7390 N   0  0  0  0  0  0  0  0  0  0  0  0
  200.9490  179.7544  153.8476 C   0  0  0  0  0  0  0  0  0  0  0  0
  200.4398  179.2939  152.6280 C   0  0  0  0  0  0  0  0  0  0  0  0
  201.3244  178.5527  151.7292 C   0  0  0  0  0  0  0  0  0  0  0  0
  202.0108  177.9071  150.9589 C   0  0  0  0  0  0  0  0  0  0  0  0
  202.7694  177.0691  149.9975 C   0  0  1  0  0  0  0  0  0  0  0  0
  202.1297  177.0124  148.6824 N   0  0  0  0  0  0  0  0  0  0  0  0
  200.8832  176.2352  148.6579 C   0  0  1  0  0  0  0  0  0  0  0  0
  199.8146  176.9284  147.8121 C   0  0  0  0  0  0  0  0  0  0  0  0
  198.5096  177.1057  148.3198 C   0  0  0  0  0  0  0  0  0  0  0  0
  198.1672  176.5902  149.5297 F   0  0  0  0  0  0  0  0  0  0  0  0
  197.5507  177.8138  147.5696 C   0  0  0  0  0  0  0  0  0  0  0  0
  197.8517  178.2444  146.2678 C   0  0  0  0  0  0  0  0  0  0  0  0
  199.1285  178.0055  145.7326 C   0  0  0  0  0  0  0  0  0  0  0  0
  200.1116  177.3668  146.5056 C   0  0  0  0  0  0  0  0  0  0  0  0
  201.1712  174.8313  148.1357 C   0  0  2  0  0  0  0  0  0  0  0  0
  199.0818  179.5687  152.3355 C   0  0  0  0  0  0  0  0  0  0  0  0
  198.2866  180.2672  153.2888 C   0  0  0  0  0  0  0  0  0  0  0  0
  196.9143  180.5212  153.0064 C   0  0  0  0  0  0  0  0  0  0  0  0
  196.3421  180.0799  151.7996 C   0  0  0  0  0  0  0  0  0  0  0  0
  197.1344  179.4087  150.8548 C   0  0  0  0  0  0  0  0  0  0  0  0
  198.4960  179.1758  151.1132 C   0  0  0  0  0  0  0  0  0  0  0  0
  202.7874  176.5504  148.0676 H   0  0  0  0  0  0  0  0  0  0  0  0
  194.3617  183.7642  159.6299 H   0  0  0  0  0  0  0  0  0  0  0  0
  195.9179  181.0324  156.7152 H   0  0  0  0  0  0  0  0  0  0  0  0
  198.3926  184.2660  158.1911 H   0  0  0  0  0  0  0  0  0  0  0  0
  197.0998  181.2940  155.2677 H   0  0  0  0  0  0  0  0  0  0  0  0
  201.9815  179.5737  154.1192 H   0  0  0  0  0  0  0  0  0  0  0  0
  203.7577  177.5144  149.8881 H   0  0  0  0  0  0  0  0  0  0  0  0
  202.9016  176.0732  150.4014 H   0  0  0  0  0  0  0  0  0  0  0  0
  200.4878  176.1490  149.6643 H   0  0  0  0  0  0  0  0  0  0  0  0
  196.5597  177.9757  147.9696 H   0  0  0  0  0  0  0  0  0  0  0  0
  197.0928  178.7250  145.6635 H   0  0  0  0  0  0  0  0  0  0  0  0
  199.3441  178.2891  144.7070 H   0  0  0  0  0  0  0  0  0  0  0  0
  201.0889  177.1867  146.0776 H   0  0  0  0  0  0  0  0  0  0  0  0
  200.2538  174.2387  148.1384 H   0  0  0  0  0  0  0  0  0  0  0  0
  201.8978  174.3022  148.7565 H   0  0  0  0  0  0  0  0  0  0  0  0
  201.5419  174.8401  147.1117 H   0  0  0  0  0  0  0  0  0  0  0  0
  196.2727  181.0588  153.6878 H   0  0  0  0  0  0  0  0  0  0  0  0
  195.2985  180.2724  151.5862 H   0  0  0  0  0  0  0  0  0  0  0  0
  196.6907  179.0814  149.9287 H   0  0  0  0  0  0  0  0  0  0  0  0
  199.1159  178.7005  150.3700 H   0  0  0  0  0  0  0  0  0  0  0  0
  1  2  1  0
  2  3  2  0
  2  9  1  0
  3  4  1  0
  3 37  1  0
  4  5  1  0
  4  7  2  0
  5  6  3  0
  7  8  1  0
  7 38  1  0
  8  9  2  0
  8 10  1  0
  9 39  1  0
 10 11  2  0
 10 12  1  0
 12 13  1  0
 12 40  1  0
 13 14  1  0
 13 31  2  0
 14 15  2  0
 15 16  1  0
 15 41  1  0
 16 17  1  0
 16 30  2  0
 17 18  3  0
 18 19  1  0
 19 20  1  0
 19 42  1  6
 19 43  1  0
 20 21  1  0
 20 36  1  0
 21 22  1  0
 21 29  1  0
 21 44  1  1
 22 23  1  0
 22 28  2  0
 23 24  1  0
 23 25  2  0
 25 26  1  0
 25 45  1  0
 26 27  2  0
 26 46  1  0
 27 28  1  0
 27 47  1  0
 28 48  1  0
 29 49  1  6
 29 50  1  0
 29 51  1  0
 30 31  1  0
 30 35  1  0
 31 32  1  0
 32 33  2  0
 32 52  1  0
 33 34  1  0
 33 53  1  0
 34 35  2  0
 34 54  1  0
 35 55  1  0
M  END
>  <s_epik_cmdline>  (1058) 
J2VwaWtfcHl0aG9uJywgJy1waCcsICc3LjAwMDAwMCcsICctcGh0JywgJzIuMDAwMDAwJywgJy1tcycsICcxNicsICctdG4nLCAnOCcsICctbWEnLCAnMjAwJywgJy1pbWFlJywgJzxpbmZpbGUubWFlPicsICctb21hZScsICc8b3V0ZmlsZS5tYWU+Jw==

>  <s_epik_input>  (1058) 
Q2xjMVtjSF1jKEMjTilbY0hdYyhbY0hdMSlDKD1PKVtOSF1jKGMoYzIzKVtjSF1bY0hdW2NIXVtjSF0zKW5bY0hdYzJDI0NbQ0gyXVtOSF1bQ0BIXShbQ0gzXSljNGMoRilbY0hdW2NIXVtjSF1bY0hdNA==

>  <s_i_glide_gridfile>  (1058) 
ATP-Grid

>  <s_lp_Force_Field>  (1058) 
OPLS_2005

>  <s_lp_Variant>  (1058) 
rxn503b____EMOL14063046____EMOL7515103____EMOL317509298-1

>  <s_lp_label>  (1058) 
3078_sdstereoexpander_1_neutralizer_1_epik_1_stereoizer_1

>  <s_m_source_file>  (1058) 
ATP-VSW-LIGPREP-002-in.maegz

>  <s_sd_BIOSOLVEIT.INFINISEE\_QUERY\_NAME>  (1058) 
Ref-Lig

>  <s_sd_BIOSOLVEIT.INFINISEE\_QUERY\_SMILES>  (1058) 
S(c1nc2c(cc1C[NH2+]Cc3ccc(cc3)C[NH+](C)C)cccc2)Cc4ccccc4

>  <s_sd_BIOSOLVEIT.INFINISEE\_REACTION\_NAME>  (1058) 
rxn503b

>  <s_sd_BIOSOLVEIT.INFINISEE\_REAGENT1\_NAME>  (1058) 
EMOL14063046

>  <s_sd_BIOSOLVEIT.INFINISEE\_REAGENT1\_SMILES>  (1058) 
Clc1cc(C#N)cc(c1)C(=O)O

>  <s_sd_BIOSOLVEIT.INFINISEE\_REAGENT2\_NAME>  (1058) 
EMOL7515103

>  <s_sd_BIOSOLVEIT.INFINISEE\_REAGENT2\_SMILES>  (1058) 
Brc1c2c(c(nc1)N)cccc2

>  <s_sd_BIOSOLVEIT.INFINISEE\_REAGENT3\_NAME>  (1058) 
EMOL317509298

>  <s_sd_BIOSOLVEIT.INFINISEE\_REAGENT3\_SMILES>  (1058) 
Fc1c(cccc1)C(NCC#C)C

>  <s_sd_BIOSOLVEIT.INFINISEE\_SPACE>  (1058) 
eXplore_7tr_2022-12

>  <s_vsw_compound_code>  (1058) 
98466

>  <s_vsw_variant>  (1058) 
98466-1

>  <r_epik_Charging_Adjusted_Penalty>  (1058) 
0.25088885360206298

>  <r_epik_Ionization_Penalty>  (1058) 
0.25119999999999998

>  <r_epik_Ionization_Penalty_Charging>  (1058) 
0

>  <r_epik_Ionization_Penalty_Neutral>  (1058) 
0.25119999999999998

>  <r_epik_State_Penalty>  (1058) 
0.25090000000000001

>  <r_i_docking_score>  (1058) 
-3.4449649868288601

>  <r_i_glide_ecoul>  (1058) 
-4.3040351867675799

>  <r_i_glide_eff_state_penalty>  (1058) 
0.25090000000000001

>  <r_i_glide_einternal>  (1058) 
5.7557306289672896

>  <r_i_glide_emodel>  (1058) 
-48.394969620678403

>  <r_i_glide_energy>  (1058) 
-41.604110717773402

>  <r_i_glide_erotb>  (1058) 
0.60919194948839805

>  <r_i_glide_esite>  (1058) 
-0.141554387017122

>  <r_i_glide_evdw>  (1058) 
-37.300075531005902

>  <r_i_glide_gscore>  (1058) 
-3.6958649868288602

>  <r_i_glide_hbond>  (1058) 
0

>  <r_i_glide_ligand_efficiency>  (1058) 
-0.098427571052253096

>  <r_i_glide_ligand_efficiency_ln>  (1058) 
-0.75624627148742896

>  <r_i_glide_ligand_efficiency_sa>  (1058) 
-0.32196311128115501

>  <r_i_glide_lipo>  (1058) 
-1.17622504593064

>  <r_i_glide_metal>  (1058) 
-0

>  <r_i_glide_rewards>  (1058) 
-0.476668448804068

>  <r_lp_Energy>  (1058) 
27.169688000000001

>  <r_qp_ACxDN^.5/SA>  (1058) 
0.011855900000000001

>  <r_qp_CIQPlogS>  (1058) 
-7.6399999999999997

>  <r_qp_EA(eV)>  (1058) 
1.325

>  <r_qp_FISA>  (1058) 
146.92099999999999

>  <r_qp_FOSA>  (1058) 
136.892

>  <r_qp_IP(eV)>  (1058) 
8.5169999999999995

>  <r_qp_Jm>  (1058) 
5.7398037016458299e-06

>  <r_qp_PISA>  (1058) 
394.06799999999998

>  <r_qp_PSA>  (1058) 
82.802999999999997

>  <r_qp_PercentHumanOralAbsorption>  (1058) 
90.304000000000002

>  <r_qp_QPPCaco>  (1058) 
99.896000000000001

>  <r_qp_QPPMDCK>  (1058) 
155.154

>  <r_qp_QPlogBB>  (1058) 
-0.83599999999999997

>  <r_qp_QPlogHERG>  (1058) 
-7.4770000000000003

>  <r_qp_QPlogKhsa>  (1058) 
0.85099999999999998

>  <r_qp_QPlogKp>  (1058) 
-4.1340000000000003

>  <r_qp_QPlogPC16>  (1058) 
16.219999999999999

>  <r_qp_QPlogPo/w>  (1058) 
4.7089999999999996

>  <r_qp_QPlogPoct>  (1058) 
23.98

>  <r_qp_QPlogPw>  (1058) 
12.866

>  <r_qp_QPlogS>  (1058) 
-6.7910000000000004

>  <r_qp_QPpolrz>  (1058) 
49.911000000000001

>  <r_qp_SASA>  (1058) 
775.34299999999996

>  <r_qp_SAamideO>  (1058) 
0

>  <r_qp_SAfluorine>  (1058) 
25.939

>  <r_qp_WPSA>  (1058) 
97.462999999999994

>  <r_qp_accptHB>  (1058) 
6.5

>  <r_qp_dip^2/V>  (1058) 
0.019563400000000002

>  <r_qp_dipole>  (1058) 
5.2990000000000004

>  <r_qp_donorHB>  (1058) 
2

>  <r_qp_glob>  (1058) 
0.79363729999999999

>  <r_qp_mol_MW>  (1058) 
482.94400000000002

>  <r_qp_volume>  (1058) 
1435.2460000000001

>  <r_sd_BIOSOLVEIT.INFINISEE\_FTREES\_SIMILARITY>  (1058) 
0.90100000000000002

>  <r_sd_BIOSOLVEIT.LOGP>  (1058) 
4.8273799999999998

>  <r_sd_BIOSOLVEIT.MOLECULAR\_WEIGHT>  (1058) 
483.952

>  <r_sd_BIOSOLVEIT.TPSA>  (1058) 
82.390000000000001

>  <i_epik_Tot_Q>  (1058) 
0

>  <i_epik_Tot_abs_Q>  (1058) 
0

>  <i_f3d_flags>  (1058) 
0

>  <i_i_glide_confnum>  (1058) 
2

>  <i_i_glide_lignum>  (1058) 
128

>  <i_i_glide_posenum>  (1058) 
15

>  <i_i_glide_rotatable_bonds>  (1058) 
8

>  <i_lp_mmshare_version>  (1058) 
65135

>  <i_m_ct_format>  (1058) 
2

>  <i_m_source_file_index>  (1058) 
3078

>  <i_qp_#NandO>  (1058) 
5

>  <i_qp_#acid>  (1058) 
0

>  <i_qp_#amide>  (1058) 
0

>  <i_qp_#amidine>  (1058) 
0

>  <i_qp_#amine>  (1058) 
1

>  <i_qp_#in34>  (1058) 
0

>  <i_qp_#in56>  (1058) 
22

>  <i_qp_#metab>  (1058) 
5

>  <i_qp_#nonHatm>  (1058) 
35

>  <i_qp_#noncon>  (1058) 
0

>  <i_qp_#ringatoms>  (1058) 
22

>  <i_qp_#rotor>  (1058) 
8

>  <i_qp_#rtvFG>  (1058) 
0

>  <i_qp_#stars>  (1058) 
1

>  <i_qp_CNS>  (1058) 
0

>  <i_qp_HumanOralAbsorption>  (1058) 
1

>  <i_qp_RuleOfFive>  (1058) 
0

>  <i_qp_RuleOfThree>  (1058) 
1

>  <i_sd_BIOSOLVEIT.INFINISEE\_RESULT\_RANK>  (1058) 
94175

>  <i_sd_version>  (1058) 
0

>  <b_lp_Chiralities_Consistent>  (1058) 
1

>  <b_sd_chiral_flag>  (1058) 
0

>  <canonical_id>  (1058) 
ATP-HTVS-A8B79B8D9CE4

>  <compound_code>  (1058) 
98466

>  <title>  (1058) 
rxn503b____EMOL14063046____EMOL7515103____EMOL317509298

>  <variant>  (1058) 
98466-1

>  <source_file>  (1058) 
运行/运行/ATP-VSW/ATP-VSW-DOCK_HTVS_1-003_lib/ATP-VSW-DOCK_HTVS_1-003_lib.mae

>  <canonical_smiles>  (1058) 
C[C@@H](NCC#Cc1cnc(NC(=O)c2cc(Cl)cc(C#N)c2)c2ccccc12)c1ccccc1F

>  <scaffold>  (1058) 
O=C(Nc1ncc(C#CCNCc2ccccc2)c2ccccc12)c1ccccc1

>  <molecular_formula>  (1058) 
C28H20ClFN4O

$$$$
ATP-HTVS-A8F9662136B7
     RDKit          3D

 64 67  0  0  0  0  0  0  0  0999 V2000
  198.8034  187.7135  156.8850 O   0  0  0  0  0  0  0  0  0  0  0  0
  198.5600  186.8445  157.7067 C   0  0  0  0  0  0  0  0  0  0  0  0
  197.3352  186.6831  158.2730 N   0  0  0  0  0  0  0  0  0  0  0  0
  197.0243  185.9015  159.4949 C   0  0  2  0  0  0  0  0  0  0  0  0
  196.2741  184.5881  159.2413 C   0  0  0  0  0  0  0  0  0  0  0  0
  194.8683  184.6216  159.1039 C   0  0  0  0  0  0  0  0  0  0  0  0
  194.1341  183.4321  158.8872 C   0  0  0  0  0  0  0  0  0  0  0  0
  194.8129  182.1998  158.8084 C   0  0  0  0  0  0  0  0  0  0  0  0
  196.2160  182.1679  158.9369 C   0  0  0  0  0  0  0  0  0  0  0  0
  196.9346  183.3551  159.1691 C   0  0  0  0  0  0  0  0  0  0  0  0
  196.4096  186.7616  160.5969 C   0  0  2  0  0  0  0  0  0  0  0  0
  196.1822  187.4341  157.6977 C   0  0  2  0  0  0  0  0  0  0  0  0
  199.5741  185.8775  158.1167 C   0  0  0  0  0  0  0  0  0  0  0  0
  200.5835  186.4138  159.0516 C   0  0  0  0  0  0  0  0  0  0  0  0
  200.6291  187.5841  159.4545 O   0  0  0  0  0  0  0  0  0  0  0  0
  201.4935  185.5361  159.4847 N   0  0  0  0  0  0  0  0  0  0  0  0
  201.5946  184.1790  159.0935 C   0  0  0  0  0  0  0  0  0  0  0  0
  200.6777  183.6644  158.1558 C   0  0  0  0  0  0  0  0  0  0  0  0
  200.8012  182.3051  157.7589 C   0  0  0  0  0  0  0  0  0  0  0  0
  201.8241  181.4972  158.2837 C   0  0  0  0  0  0  0  0  0  0  0  0
  202.7301  182.0262  159.2220 C   0  0  0  0  0  0  0  0  0  0  0  0
  202.6150  183.3691  159.6300 C   0  0  0  0  0  0  0  0  0  0  0  0
  199.6399  184.5744  157.6470 C   0  0  0  0  0  0  0  0  0  0  0  0
  198.7705  184.0217  156.7214 N   0  0  0  0  0  0  0  0  0  0  0  0
  198.5656  184.4047  155.3803 C   0  0  0  0  0  0  0  0  0  0  0  0
  197.7204  183.6347  154.5506 C   0  0  0  0  0  0  0  0  0  0  0  0
  197.5101  184.0299  153.1990 C   0  0  0  0  0  0  0  0  0  0  0  0
  198.1392  185.1883  152.7049 C   0  0  0  0  0  0  0  0  0  0  0  0
  198.9740  185.9503  153.5312 C   0  0  0  0  0  0  0  0  0  0  0  0
  199.2086  185.5481  154.8756 C   0  0  0  0  0  0  0  0  0  0  0  0
  197.0281  182.3677  155.0552 C   0  0  1  0  0  0  0  0  0  0  0  0
  197.8823  181.1795  154.9875 N   0  0  0  0  0  0  0  0  0  0  0  0
  197.2714  180.0884  155.7327 C   0  0  2  0  0  0  0  0  0  0  0  0
  198.0609  180.7417  153.6060 C   0  0  2  0  0  0  0  0  0  0  0  0
  197.9783  185.5558  159.9715 H   0  0  0  0  0  0  0  0  0  0  0  0
  194.3773  185.5622  159.1761 H   0  0  0  0  0  0  0  0  0  0  0  0
  193.0585  183.4659  158.8222 H   0  0  0  0  0  0  0  0  0  0  0  0
  194.2665  181.2743  158.6718 H   0  0  0  0  0  0  0  0  0  0  0  0
  196.7337  181.2237  158.8790 H   0  0  0  0  0  0  0  0  0  0  0  0
  198.0054  183.3002  159.2903 H   0  0  0  0  0  0  0  0  0  0  0  0
  196.4459  186.2455  161.5567 H   0  0  0  0  0  0  0  0  0  0  0  0
  195.3717  187.0118  160.4403 H   0  0  0  0  0  0  0  0  0  0  0  0
  196.9585  187.7025  160.7088 H   0  0  0  0  0  0  0  0  0  0  0  0
  195.7968  186.9253  156.8120 H   0  0  0  0  0  0  0  0  0  0  0  0
  196.4735  188.4350  157.3844 H   0  0  0  0  0  0  0  0  0  0  0  0
  195.3427  187.5610  158.3744 H   0  0  0  0  0  0  0  0  0  0  0  0
  202.1777  185.8785  160.1455 H   0  0  0  0  0  0  0  0  0  0  0  0
  200.1155  181.8676  157.0477 H   0  0  0  0  0  0  0  0  0  0  0  0
  201.9148  180.4697  157.9708 H   0  0  0  0  0  0  0  0  0  0  0  0
  203.5213  181.3996  159.6177 H   0  0  0  0  0  0  0  0  0  0  0  0
  203.3229  183.7662  160.3380 H   0  0  0  0  0  0  0  0  0  0  0  0
  198.4755  183.0706  156.9117 H   0  0  0  0  0  0  0  0  0  0  0  0
  196.8905  183.4237  152.5539 H   0  0  0  0  0  0  0  0  0  0  0  0
  197.9873  185.4843  151.6792 H   0  0  0  0  0  0  0  0  0  0  0  0
  199.4408  186.8508  153.1745 H   0  0  0  0  0  0  0  0  0  0  0  0
  199.8423  186.1673  155.4921 H   0  0  0  0  0  0  0  0  0  0  0  0
  196.7198  182.5224  156.1027 H   0  0  0  0  0  0  0  0  0  0  0  0
  196.0998  182.1954  154.5164 H   0  0  0  0  0  0  0  0  0  0  0  0
  197.8886  179.1880  155.7082 H   0  0  0  0  0  0  0  0  0  0  0  0
  196.2871  179.8360  155.3351 H   0  0  0  0  0  0  0  0  0  0  0  0
  197.1537  180.3718  156.7764 H   0  0  0  0  0  0  0  0  0  0  0  0
  198.6683  179.8366  153.5597 H   0  0  0  0  0  0  0  0  0  0  0  0
  198.5716  181.4999  153.0094 H   0  0  0  0  0  0  0  0  0  0  0  0
  197.1013  180.5261  153.1342 H   0  0  0  0  0  0  0  0  0  0  0  0
  1  2  2  0
  2  3  1  0
  2 13  1  0
  3  4  1  0
  3 12  1  0
  4  5  1  0
  4 11  1  0
  4 35  1  1
  5  6  2  0
  5 10  1  0
  6  7  1  0
  6 36  1  0
  7  8  2  0
  7 37  1  0
  8  9  1  0
  8 38  1  0
  9 10  2  0
  9 39  1  0
 10 40  1  0
 11 41  1  1
 11 42  1  0
 11 43  1  0
 12 44  1  6
 12 45  1  0
 12 46  1  0
 13 14  1  0
 13 23  2  0
 14 15  2  0
 14 16  1  0
 16 17  1  0
 16 47  1  0
 17 18  1  0
 17 22  2  0
 18 19  2  0
 18 23  1  0
 19 20  1  0
 19 48  1  0
 20 21  2  0
 20 49  1  0
 21 22  1  0
 21 50  1  0
 22 51  1  0
 23 24  1  0
 24 25  1  0
 24 52  1  0
 25 26  1  0
 25 30  2  0
 26 27  2  0
 26 31  1  0
 27 28  1  0
 27 53  1  0
 28 29  2  0
 28 54  1  0
 29 30  1  0
 29 55  1  0
 30 56  1  0
 31 32  1  0
 31 57  1  1
 31 58  1  0
 32 33  1  0
 32 34  1  0
 33 59  1  1
 33 60  1  0
 33 61  1  0
 34 62  1  1
 34 63  1  0
 34 64  1  0
M  END
>  <s_epik_cmdline>  (1059) 
J2VwaWtfcHl0aG9uJywgJy1waCcsICc3LjAwMDAwMCcsICctcGh0JywgJzIuMDAwMDAwJywgJy1tcycsICcxNicsICctdG4nLCAnOCcsICctbWEnLCAnMjAwJywgJy1pbWFlJywgJzxpbmZpbGUubWFlPicsICctb21hZScsICc8b3V0ZmlsZS5tYWU+Jw==

>  <s_epik_input>  (1059) 
W2NIXTFbY0hdW2NIXVtjSF1bY0hdYzFbQ0BIXShbQ0gzXSlOKFtDSDNdKUMoPU8pYyhjKD1PKVtuSF0yKWMoYyhjMjMpW2NIXVtjSF1bY0hdW2NIXTMpW05IXWM0YyhbQ0gyXU4oW0NIM10pW0NIM10pW2NIXVtjSF1bY0hdW2NIXTQ=

>  <s_i_glide_gridfile>  (1059) 
ATP-Grid

>  <s_lp_Force_Field>  (1059) 
OPLS_2005

>  <s_lp_Variant>  (1059) 
rxn512c____EMOL25685613____EMOL43362984____EMOL44691345-4

>  <s_lp_label>  (1059) 
2600_sdstereoexpander_2_neutralizer_1_epik_2_stereoizer_1

>  <s_m_source_file>  (1059) 
ATP-VSW-LIGPREP-002-in.maegz

>  <s_sd_BIOSOLVEIT.INFINISEE\_QUERY\_NAME>  (1059) 
Ref-Lig

>  <s_sd_BIOSOLVEIT.INFINISEE\_QUERY\_SMILES>  (1059) 
S(c1nc2c(cc1C[NH2+]Cc3ccc(cc3)C[NH+](C)C)cccc2)Cc4ccccc4

>  <s_sd_BIOSOLVEIT.INFINISEE\_REACTION\_NAME>  (1059) 
rxn512c

>  <s_sd_BIOSOLVEIT.INFINISEE\_REAGENT1\_NAME>  (1059) 
EMOL25685613

>  <s_sd_BIOSOLVEIT.INFINISEE\_REAGENT1\_SMILES>  (1059) 
N(C(c1ccccc1)C)C

>  <s_sd_BIOSOLVEIT.INFINISEE\_REAGENT2\_NAME>  (1059) 
EMOL43362984

>  <s_sd_BIOSOLVEIT.INFINISEE\_REAGENT2\_SMILES>  (1059) 
ClC=1c2c(NC(=O)C1C(=O)O)cccc2

>  <s_sd_BIOSOLVEIT.INFINISEE\_REAGENT3\_NAME>  (1059) 
EMOL44691345

>  <s_sd_BIOSOLVEIT.INFINISEE\_REAGENT3\_SMILES>  (1059) 
N(Cc1c(N)cccc1)(C)C

>  <s_sd_BIOSOLVEIT.INFINISEE\_SPACE>  (1059) 
eXplore_7tr_2022-12

>  <s_vsw_compound_code>  (1059) 
83170

>  <s_vsw_variant>  (1059) 
83170-4

>  <r_epik_Charging_Adjusted_Penalty>  (1059) 
1.6605294130364101

>  <r_epik_Ionization_Penalty>  (1059) 
1.6608000000000001

>  <r_epik_Ionization_Penalty_Charging>  (1059) 
0

>  <r_epik_Ionization_Penalty_Neutral>  (1059) 
1.6608000000000001

>  <r_epik_State_Penalty>  (1059) 
1.6605000000000001

>  <r_i_docking_score>  (1059) 
0.020856506913378401

>  <r_i_glide_ecoul>  (1059) 
-1.92698001861572

>  <r_i_glide_eff_state_penalty>  (1059) 
1.6605000000000001

>  <r_i_glide_einternal>  (1059) 
8.1367559432983398

>  <r_i_glide_emodel>  (1059) 
-36.459422780521599

>  <r_i_glide_energy>  (1059) 
-36.665394783019998

>  <r_i_glide_erotb>  (1059) 
0.58313843407634502

>  <r_i_glide_esite>  (1059) 
-0.00069469294487961998

>  <r_i_glide_evdw>  (1059) 
-34.738414764404297

>  <r_i_glide_gscore>  (1059) 
-1.6396434930866199

>  <r_i_glide_hbond>  (1059) 
0

>  <r_i_glide_ligand_efficiency>  (1059) 
0.000613426673922893

>  <r_i_glide_ligand_efficiency_ln>  (1059) 
0.0046077873823687603

>  <r_i_glide_ligand_efficiency_sa>  (1059) 
0.0019872642897230601

>  <r_i_glide_lipo>  (1059) 
-1.64190014447368

>  <r_i_glide_metal>  (1059) 
-0

>  <r_i_glide_rewards>  (1059) 
1.4457806512681699

>  <r_lp_Energy>  (1059) 
64.743048999999999

>  <r_qp_ACxDN^.5/SA>  (1059) 
0

>  <r_qp_CIQPlogS>  (1059) 
-6.2140000000000004

>  <r_qp_EA(eV)>  (1059) 
1.143

>  <r_qp_FISA>  (1059) 
82.076999999999998

>  <r_qp_FOSA>  (1059) 
249.119

>  <r_qp_IP(eV)>  (1059) 
8.5749999999999993

>  <r_qp_Jm>  (1059) 
0.0162963229563871

>  <r_qp_PISA>  (1059) 
390.87400000000002

>  <r_qp_PSA>  (1059) 
71.429000000000002

>  <r_qp_PercentHumanOralAbsorption>  (1059) 
100

>  <r_qp_QPPCaco>  (1059) 
411.58800000000002

>  <r_qp_QPPMDCK>  (1059) 
209.65700000000001

>  <r_qp_QPlogBB>  (1059) 
-0.24299999999999999

>  <r_qp_QPlogHERG>  (1059) 
-6.7800000000000002

>  <r_qp_QPlogKhsa>  (1059) 
0.76200000000000001

>  <r_qp_QPlogKp>  (1059) 
-3.0459999999999998

>  <r_qp_QPlogPC16>  (1059) 
14.442

>  <r_qp_QPlogPo/w>  (1059) 
4.8300000000000001

>  <r_qp_QPlogPoct>  (1059) 
19.923999999999999

>  <r_qp_QPlogPw>  (1059) 
9.0399999999999991

>  <r_qp_QPlogS>  (1059) 
-4.4000000000000004

>  <r_qp_QPpolrz>  (1059) 
48.868000000000002

>  <r_qp_SASA>  (1059) 
722.07000000000005

>  <r_qp_SAamideO>  (1059) 
0

>  <r_qp_SAfluorine>  (1059) 
0

>  <r_qp_WPSA>  (1059) 
0

>  <r_qp_accptHB>  (1059) 
6

>  <r_qp_dip^2/V>  (1059) 
0.0261032

>  <r_qp_dipole>  (1059) 
6.032

>  <r_qp_donorHB>  (1059) 
0

>  <r_qp_glob>  (1059) 
0.83574309999999996

>  <r_qp_mol_MW>  (1059) 
454.57100000000003

>  <r_qp_volume>  (1059) 
1393.8969999999999

>  <r_sd_BIOSOLVEIT.INFINISEE\_FTREES\_SIMILARITY>  (1059) 
0.91100000000000003

>  <r_sd_BIOSOLVEIT.LOGP>  (1059) 
3.7494000000000001

>  <r_sd_BIOSOLVEIT.MOLECULAR\_WEIGHT>  (1059) 
455.57900000000001

>  <r_sd_BIOSOLVEIT.TPSA>  (1059) 
69.640000000000001

>  <i_epik_Tot_Q>  (1059) 
0

>  <i_epik_Tot_abs_Q>  (1059) 
0

>  <i_f3d_flags>  (1059) 
0

>  <i_i_glide_confnum>  (1059) 
7

>  <i_i_glide_lignum>  (1059) 
1181

>  <i_i_glide_posenum>  (1059) 
16

>  <i_i_glide_rotatable_bonds>  (1059) 
8

>  <i_lp_mmshare_version>  (1059) 
65135

>  <i_m_ct_format>  (1059) 
2

>  <i_m_source_file_index>  (1059) 
2600

>  <i_qp_#NandO>  (1059) 
6

>  <i_qp_#acid>  (1059) 
0

>  <i_qp_#amide>  (1059) 
0

>  <i_qp_#amidine>  (1059) 
0

>  <i_qp_#amine>  (1059) 
1

>  <i_qp_#in34>  (1059) 
0

>  <i_qp_#in56>  (1059) 
22

>  <i_qp_#metab>  (1059) 
6

>  <i_qp_#nonHatm>  (1059) 
34

>  <i_qp_#noncon>  (1059) 
0

>  <i_qp_#ringatoms>  (1059) 
22

>  <i_qp_#rotor>  (1059) 
7

>  <i_qp_#rtvFG>  (1059) 
0

>  <i_qp_#stars>  (1059) 
0

>  <i_qp_CNS>  (1059) 
1

>  <i_qp_HumanOralAbsorption>  (1059) 
3

>  <i_qp_RuleOfFive>  (1059) 
0

>  <i_qp_RuleOfThree>  (1059) 
0

>  <i_sd_BIOSOLVEIT.INFINISEE\_RESULT\_RANK>  (1059) 
41468

>  <i_sd_version>  (1059) 
0

>  <b_lp_Chiralities_Consistent>  (1059) 
1

>  <b_sd_chiral_flag>  (1059) 
0

>  <canonical_id>  (1059) 
ATP-HTVS-A8F9662136B7

>  <compound_code>  (1059) 
83170

>  <title>  (1059) 
rxn512c____EMOL25685613____EMOL43362984____EMOL44691345

>  <variant>  (1059) 
83170-4

>  <source_file>  (1059) 
运行/运行/ATP-VSW/ATP-VSW-DOCK_HTVS_1-002_lib.maegz

>  <canonical_smiles>  (1059) 
C[C@@H](c1ccccc1)N(C)C(=O)c1c(Nc2ccccc2CN(C)C)c2ccccc2[nH]c1=O

>  <scaffold>  (1059) 
O=C(NCc1ccccc1)c1c(Nc2ccccc2)c2ccccc2[nH]c1=O

>  <molecular_formula>  (1059) 
C28H30N4O2

$$$$
ATP-HTVS-A8FD4BE75532
     RDKit          3D

 69 72  0  0  0  0  0  0  0  0999 V2000
  199.5316  182.4533  157.7235 O   0  0  0  0  0  0  0  0  0  0  0  0
  198.8685  182.9268  156.7972 C   0  0  0  0  0  0  0  0  0  0  0  0
  198.5119  182.2905  155.6681 N   0  0  0  0  0  0  0  0  0  0  0  0
  198.9069  181.0157  155.2006 C   0  0  0  0  0  0  0  0  0  0  0  0
  199.4401  180.0783  156.0253 N   0  0  0  0  0  0  0  0  0  0  0  0
  199.8148  178.8736  155.5385 C   0  0  0  0  0  0  0  0  0  0  0  0
  199.6904  178.5655  154.1644 C   0  0  0  0  0  0  0  0  0  0  0  0
  199.1644  179.5385  153.2935 C   0  0  0  0  0  0  0  0  0  0  0  0
  198.7342  180.7834  153.8086 C   0  0  0  0  0  0  0  0  0  0  0  0
  198.1766  181.7503  152.9436 N   0  0  0  0  0  0  0  0  0  0  0  0
  199.0921  182.2770  151.9053 C   0  0  2  0  0  0  0  0  0  0  0  0
  200.3660  182.7348  152.4961 C   0  0  0  0  0  0  0  0  0  0  0  0
  201.3647  183.0960  152.9620 N   0  0  0  0  0  0  0  0  0  0  0  0
  198.4887  183.3485  150.9994 C   0  0  0  0  0  0  0  0  0  0  0  0
  198.5531  184.7271  151.3344 C   0  0  0  0  0  0  0  0  0  0  0  0
  197.9453  185.6931  150.4996 C   0  0  0  0  0  0  0  0  0  0  0  0
  197.2342  185.2907  149.3500 C   0  0  0  0  0  0  0  0  0  0  0  0
  197.1668  183.9279  149.0134 C   0  0  0  0  0  0  0  0  0  0  0  0
  197.8191  182.9724  149.8158 C   0  0  0  0  0  0  0  0  0  0  0  0
  196.7706  181.5106  152.6105 C   0  0  1  0  0  0  0  0  0  0  0  0
  196.5428  180.3392  151.6302 C   0  0  2  0  0  0  0  0  0  0  0  0
  200.0817  177.3092  153.6603 C   0  0  0  0  0  0  0  0  0  0  0  0
  200.6204  176.3443  154.5291 C   0  0  0  0  0  0  0  0  0  0  0  0
  200.7630  176.6388  155.8973 C   0  0  0  0  0  0  0  0  0  0  0  0
  200.3631  177.8965  156.3934 C   0  0  0  0  0  0  0  0  0  0  0  0
  198.3430  184.3229  156.8889 C   0  0  0  0  0  0  0  0  0  0  0  0
  198.2985  185.1487  155.7495 C   0  0  0  0  0  0  0  0  0  0  0  0
  197.8477  186.4732  155.8635 C   0  0  0  0  0  0  0  0  0  0  0  0
  197.4357  186.9793  157.1113 C   0  0  0  0  0  0  0  0  0  0  0  0
  197.0779  188.3015  157.1380 O   0  0  0  0  0  0  0  0  0  0  0  0
  196.7900  188.8986  158.3837 C   0  0  1  0  0  0  0  0  0  0  0  0
  198.0529  188.9974  159.2604 C   0  0  1  0  0  0  0  0  0  0  0  0
  197.8334  189.7488  160.5485 N   0  0  1  0  0  0  0  0  0  0  0  0
  197.9018  191.2099  160.3498 C   0  0  2  0  0  0  0  0  0  0  0  0
  196.6286  189.3198  161.2791 C   0  0  2  0  0  0  0  0  0  0  0  0
  197.4470  186.1480  158.2521 C   0  0  0  0  0  0  0  0  0  0  0  0
  197.9370  184.8217  158.1433 C   0  0  0  0  0  0  0  0  0  0  0  0
  197.9552  182.8158  155.0094 H   0  0  0  0  0  0  0  0  0  0  0  0
  199.0893  179.3226  152.2415 H   0  0  0  0  0  0  0  0  0  0  0  0
  199.3661  181.4371  151.2645 H   0  0  0  0  0  0  0  0  0  0  0  0
  199.0664  185.0538  152.2254 H   0  0  0  0  0  0  0  0  0  0  0  0
  198.0099  186.7457  150.7512 H   0  0  0  0  0  0  0  0  0  0  0  0
  196.7472  186.0214  148.7201 H   0  0  0  0  0  0  0  0  0  0  0  0
  196.6151  183.6093  148.1431 H   0  0  0  0  0  0  0  0  0  0  0  0
  197.7672  181.9223  149.5213 H   0  0  0  0  0  0  0  0  0  0  0  0
  196.2088  181.3459  153.5268 H   0  0  0  0  0  0  0  0  0  0  0  0
  196.3500  182.4202  152.1985 H   0  0  0  0  0  0  0  0  0  0  0  0
  195.4869  180.2369  151.3924 H   0  0  0  0  0  0  0  0  0  0  0  0
  196.8407  179.3759  152.0445 H   0  0  0  0  0  0  0  0  0  0  0  0
  197.0789  180.4791  150.6784 H   0  0  0  0  0  0  0  0  0  0  0  0
  199.9579  177.0746  152.6120 H   0  0  0  0  0  0  0  0  0  0  0  0
  200.9146  175.3774  154.1478 H   0  0  0  0  0  0  0  0  0  0  0  0
  201.1782  175.9014  156.5668 H   0  0  0  0  0  0  0  0  0  0  0  0
  200.4678  178.1172  157.4440 H   0  0  0  0  0  0  0  0  0  0  0  0
  198.6198  184.7939  154.7787 H   0  0  0  0  0  0  0  0  0  0  0  0
  197.8444  187.1189  154.9947 H   0  0  0  0  0  0  0  0  0  0  0  0
  196.4011  189.8849  158.1789 H   0  0  0  0  0  0  0  0  0  0  0  0
  195.9766  188.3530  158.8549 H   0  0  0  0  0  0  0  0  0  0  0  0
  198.4007  187.9981  159.5645 H   0  0  0  0  0  0  0  0  0  0  0  0
  198.8730  189.4721  158.7077 H   0  0  0  0  0  0  0  0  0  0  0  0
  197.1115  191.5759  159.6959 H   0  0  0  0  0  0  0  0  0  0  0  0
  198.8677  191.4859  159.9219 H   0  0  0  0  0  0  0  0  0  0  0  0
  197.8115  191.7084  161.3207 H   0  0  0  0  0  0  0  0  0  0  0  0
  195.6948  189.5492  160.7706 H   0  0  0  0  0  0  0  0  0  0  0  0
  196.5925  189.8244  162.2492 H   0  0  0  0  0  0  0  0  0  0  0  0
  196.6572  188.2463  161.4716 H   0  0  0  0  0  0  0  0  0  0  0  0
  197.1513  186.5009  159.2193 H   0  0  0  0  0  0  0  0  0  0  0  0
  198.0054  184.2096  159.0301 H   0  0  0  0  0  0  0  0  0  0  0  0
  198.5928  189.5260  161.1511 H   0  0  0  0  0  0  0  0  0  0  0  0
  1  2  2  0
  2  3  1  0
  2 26  1  0
  3  4  1  0
  3 38  1  0
  4  5  2  0
  4  9  1  0
  5  6  1  0
  6  7  1  0
  6 25  2  0
  7  8  1  0
  7 22  2  0
  8  9  2  0
  8 39  1  0
  9 10  1  0
 10 11  1  0
 10 20  1  0
 11 12  1  0
 11 14  1  0
 11 40  1  6
 12 13  3  0
 14 15  2  0
 14 19  1  0
 15 16  1  0
 15 41  1  0
 16 17  2  0
 16 42  1  0
 17 18  1  0
 17 43  1  0
 18 19  2  0
 18 44  1  0
 19 45  1  0
 20 21  1  0
 20 46  1  1
 20 47  1  0
 21 48  1  6
 21 49  1  0
 21 50  1  0
 22 23  1  0
 22 51  1  0
 23 24  2  0
 23 52  1  0
 24 25  1  0
 24 53  1  0
 25 54  1  0
 26 27  1  0
 26 37  2  0
 27 28  2  0
 27 55  1  0
 28 29  1  0
 28 56  1  0
 29 30  1  0
 29 36  2  0
 30 31  1  0
 31 32  1  0
 31 57  1  6
 31 58  1  0
 32 33  1  0
 32 59  1  1
 32 60  1  0
 33 34  1  0
 33 35  1  0
 33 69  1  1
 34 61  1  6
 34 62  1  0
 34 63  1  0
 35 64  1  6
 35 65  1  0
 35 66  1  0
 36 37  1  0
 36 67  1  0
 37 68  1  0
M  CHG  1  33   1
M  END
>  <s_epik_cmdline>  (1060) 
J2VwaWtfcHl0aG9uJywgJy1waCcsICc3LjAwMDAwMCcsICctcGh0JywgJzIuMDAwMDAwJywgJy1tcycsICcxNicsICctdG4nLCAnOCcsICctbWEnLCAnMjAwJywgJy1pbWFlJywgJzxpbmZpbGUubWFlPicsICctb21hZScsICc8b3V0ZmlsZS5tYWU+Jw==

>  <s_epik_input>  (1060) 
W0NIM11OKFtDSDNdKVtDSDJdW0NIMl1PYyhbY0hdW2NIXTEpW2NIXVtjSF1jMUMoPU8pW05IXWMobjIpYyhbY0hdYyhjMjMpW2NIXVtjSF1bY0hdW2NIXTMpTihbQ0gyXVtDSDNdKVtDQEhdKEMjTiljNFtjSF1bY0hdW2NIXVtjSF1bY0hdNA==

>  <s_i_glide_gridfile>  (1060) 
ATP-Grid

>  <s_lp_Force_Field>  (1060) 
OPLS_2005

>  <s_lp_Variant>  (1060) 
rxn502b____EMOL70144015____EMOL44466703____EMOL49839592-2

>  <s_lp_label>  (1060) 
2795_sdstereoexpander_2_neutralizer_1_epik_1_stereoizer_1

>  <s_m_source_file>  (1060) 
ATP-VSW-LIGPREP-001-in.maegz

>  <s_sd_BIOSOLVEIT.INFINISEE\_QUERY\_NAME>  (1060) 
Ref-Lig

>  <s_sd_BIOSOLVEIT.INFINISEE\_QUERY\_SMILES>  (1060) 
S(c1nc2c(cc1C[NH2+]Cc3ccc(cc3)C[NH+](C)C)cccc2)Cc4ccccc4

>  <s_sd_BIOSOLVEIT.INFINISEE\_REACTION\_NAME>  (1060) 
rxn502b

>  <s_sd_BIOSOLVEIT.INFINISEE\_REAGENT1\_NAME>  (1060) 
EMOL70144015

>  <s_sd_BIOSOLVEIT.INFINISEE\_REAGENT1\_SMILES>  (1060) 
O=C(O)c1ccc(OCCN(C)C)cc1

>  <s_sd_BIOSOLVEIT.INFINISEE\_REAGENT2\_NAME>  (1060) 
EMOL44466703

>  <s_sd_BIOSOLVEIT.INFINISEE\_REAGENT2\_SMILES>  (1060) 
Brc1c(nc2c(c1)cccc2)N

>  <s_sd_BIOSOLVEIT.INFINISEE\_REAGENT3\_NAME>  (1060) 
EMOL49839592

>  <s_sd_BIOSOLVEIT.INFINISEE\_REAGENT3\_SMILES>  (1060) 
N#CC(NCC)c1ccccc1

>  <s_sd_BIOSOLVEIT.INFINISEE\_SPACE>  (1060) 
eXplore_7tr_2022-12

>  <s_vsw_compound_code>  (1060) 
89409

>  <s_vsw_variant>  (1060) 
89409-2

>  <r_epik_Charging_Adjusted_Penalty>  (1060) 
0.049611777781538503

>  <r_epik_Ionization_Penalty>  (1060) 
0.024799999999999999

>  <r_epik_Ionization_Penalty_Charging>  (1060) 
0.024799999999999999

>  <r_epik_Ionization_Penalty_Neutral>  (1060) 
0

>  <r_epik_State_Penalty>  (1060) 
0.024799999999999999

>  <r_i_docking_score>  (1060) 
-3.9415146334587199

>  <r_i_glide_ecoul>  (1060) 
-7.1802830696106001

>  <r_i_glide_eff_state_penalty>  (1060) 
0.024799999999999999

>  <r_i_glide_einternal>  (1060) 
5.0552859306335396

>  <r_i_glide_emodel>  (1060) 
-51.158236521319303

>  <r_i_glide_energy>  (1060) 
-40.562672138214097

>  <r_i_glide_erotb>  (1060) 
0.74975212697279203

>  <r_i_glide_esite>  (1060) 
-0.1134908715813

>  <r_i_glide_evdw>  (1060) 
-33.382389068603501

>  <r_i_glide_gscore>  (1060) 
-3.9663146334587198

>  <r_i_glide_hbond>  (1060) 
-0.221967093512659

>  <r_i_glide_ligand_efficiency>  (1060) 
-0.10652742252591101

>  <r_i_glide_ligand_efficiency_ln>  (1060) 
-0.85482212178407102

>  <r_i_glide_ligand_efficiency_sa>  (1060) 
-0.354973004713103

>  <r_i_glide_lipo>  (1060) 
-1.59767901782942

>  <r_i_glide_metal>  (1060) 
-0

>  <r_i_glide_rewards>  (1060) 
-0.036767863636362599

>  <r_lp_Energy>  (1060) 
42.183763999999996

>  <r_lp_tautomer_probability>  (1060) 
1

>  <r_qp_ACxDN^.5/SA>  (1060) 
0.010470500000000001

>  <r_qp_CIQPlogS>  (1060) 
-6.9969999999999999

>  <r_qp_EA(eV)>  (1060) 
0.95799999999999996

>  <r_qp_FISA>  (1060) 
98.510999999999996

>  <r_qp_FOSA>  (1060) 
330.07400000000001

>  <r_qp_IP(eV)>  (1060) 
8.6039999999999992

>  <r_qp_Jm>  (1060) 
0.00047789676048605098

>  <r_qp_PISA>  (1060) 
407.09699999999998

>  <r_qp_PSA>  (1060) 
82.927000000000007

>  <r_qp_PercentHumanOralAbsorption>  (1060) 
100

>  <r_qp_QPPCaco>  (1060) 
287.49099999999999

>  <r_qp_QPPMDCK>  (1060) 
142.255

>  <r_qp_QPlogBB>  (1060) 
-0.77400000000000002

>  <r_qp_QPlogHERG>  (1060) 
-7.7229999999999999

>  <r_qp_QPlogKhsa>  (1060) 
0.64200000000000002

>  <r_qp_QPlogKp>  (1060) 
-2.907

>  <r_qp_QPlogPC16>  (1060) 
16.710999999999999

>  <r_qp_QPlogPo/w>  (1060) 
4.7190000000000003

>  <r_qp_QPlogPoct>  (1060) 
24.361000000000001

>  <r_qp_QPlogPw>  (1060) 
12.826000000000001

>  <r_qp_QPlogS>  (1060) 
-6.1070000000000002

>  <r_qp_QPpolrz>  (1060) 
53.563000000000002

>  <r_qp_SASA>  (1060) 
835.68100000000004

>  <r_qp_SAamideO>  (1060) 
0

>  <r_qp_SAfluorine>  (1060) 
0

>  <r_qp_WPSA>  (1060) 
0

>  <r_qp_accptHB>  (1060) 
8.75

>  <r_qp_dip^2/V>  (1060) 
0.030571500000000001

>  <r_qp_dipole>  (1060) 
6.931

>  <r_qp_donorHB>  (1060) 
1

>  <r_qp_glob>  (1060) 
0.78223399999999998

>  <r_qp_mol_MW>  (1060) 
493.60700000000003

>  <r_qp_volume>  (1060) 
1571.5150000000001

>  <r_sd_BIOSOLVEIT.INFINISEE\_FTREES\_SIMILARITY>  (1060) 
0.90600000000000003

>  <r_sd_BIOSOLVEIT.LOGP>  (1060) 
4.1015800000000002

>  <r_sd_BIOSOLVEIT.MOLECULAR\_WEIGHT>  (1060) 
494.61599999999999

>  <r_sd_BIOSOLVEIT.TPSA>  (1060) 
82.689999999999998

>  <i_epik_Tot_Q>  (1060) 
1

>  <i_epik_Tot_abs_Q>  (1060) 
1

>  <i_f3d_flags>  (1060) 
0

>  <i_i_glide_confnum>  (1060) 
7

>  <i_i_glide_lignum>  (1060) 
1264

>  <i_i_glide_posenum>  (1060) 
2

>  <i_i_glide_rotatable_bonds>  (1060) 
11

>  <i_lp_mmshare_version>  (1060) 
65135

>  <i_m_ct_format>  (1060) 
2

>  <i_m_source_file_index>  (1060) 
2795

>  <i_qp_#NandO>  (1060) 
7

>  <i_qp_#acid>  (1060) 
0

>  <i_qp_#amide>  (1060) 
0

>  <i_qp_#amidine>  (1060) 
0

>  <i_qp_#amine>  (1060) 
1

>  <i_qp_#in34>  (1060) 
0

>  <i_qp_#in56>  (1060) 
22

>  <i_qp_#metab>  (1060) 
5

>  <i_qp_#nonHatm>  (1060) 
37

>  <i_qp_#noncon>  (1060) 
0

>  <i_qp_#ringatoms>  (1060) 
22

>  <i_qp_#rotor>  (1060) 
11

>  <i_qp_#rtvFG>  (1060) 
0

>  <i_qp_#stars>  (1060) 
0

>  <i_qp_CNS>  (1060) 
0

>  <i_qp_HumanOralAbsorption>  (1060) 
3

>  <i_qp_RuleOfFive>  (1060) 
0

>  <i_qp_RuleOfThree>  (1060) 
1

>  <i_sd_BIOSOLVEIT.INFINISEE\_RESULT\_RANK>  (1060) 
63236

>  <i_sd_version>  (1060) 
0

>  <b_lp_Chiralities_Consistent>  (1060) 
1

>  <b_sd_chiral_flag>  (1060) 
0

>  <canonical_id>  (1060) 
ATP-HTVS-A8FD4BE75532

>  <compound_code>  (1060) 
89409

>  <title>  (1060) 
rxn502b____EMOL70144015____EMOL44466703____EMOL49839592

>  <variant>  (1060) 
89409-2

>  <source_file>  (1060) 
运行/运行/ATP-VSW/ATP-VSW-DOCK_HTVS_1-001_lib/ATP-VSW-DOCK_HTVS_1-001_lib

>  <canonical_smiles>  (1060) 
CCN(c1cc2ccccc2nc1NC(=O)c1ccc(OCC[NH+](C)C)cc1)[C@H](C#N)c1ccccc1

>  <scaffold>  (1060) 
O=C(Nc1nc2ccccc2cc1NCc1ccccc1)c1ccccc1

>  <molecular_formula>  (1060) 
C30H32N5O2+

$$$$
ATP-HTVS-A9326BC55FC3
     RDKit          3D

 53 55  0  0  0  0  0  0  0  0999 V2000
  201.5756  182.4822  160.7668 O   0  0  0  0  0  0  0  0  0  0  0  0
  202.0095  182.7539  159.6387 C   0  0  0  0  0  0  0  0  0  0  0  0
  202.7136  181.8362  158.9258 N   0  0  0  0  0  0  0  0  0  0  0  0
  203.0814  181.9937  157.5499 C   0  0  0  0  0  0  0  0  0  0  0  0
  204.4264  181.7503  157.1719 C   0  0  0  0  0  0  0  0  0  0  0  0
  204.8451  181.9641  155.8428 C   0  0  0  0  0  0  0  0  0  0  0  0
  203.9277  182.4171  154.8789 C   0  0  0  0  0  0  0  0  0  0  0  0
  202.5815  182.6322  155.2365 C   0  0  0  0  0  0  0  0  0  0  0  0
  202.1551  182.3929  156.5630 C   0  0  0  0  0  0  0  0  0  0  0  0
  203.1406  180.6155  159.6040 C   0  0  1  0  0  0  0  0  0  0  0  0
  204.2801  180.8324  160.5101 C   0  0  0  0  0  0  0  0  0  0  0  0
  205.1809  181.0050  161.2127 N   0  0  0  0  0  0  0  0  0  0  0  0
  201.6539  184.0752  159.0153 C   0  0  0  0  0  0  0  0  0  0  0  0
  200.2780  184.4566  158.9478 C   0  0  0  0  0  0  0  0  0  0  0  0
  199.9334  185.6171  158.1918 C   0  0  0  0  0  0  0  0  0  0  0  0
  200.8671  186.3966  157.6070 N   0  0  0  0  0  0  0  0  0  0  0  0
  202.1760  186.0822  157.7599 C   0  0  0  0  0  0  0  0  0  0  0  0
  202.6219  184.9366  158.4478 C   0  0  0  0  0  0  0  0  0  0  0  0
  198.5949  186.0071  157.9853 N   0  0  0  0  0  0  0  0  0  0  0  0
  197.4472  185.4706  158.5673 C   0  0  0  0  0  0  0  0  0  0  0  0
  197.2872  184.0681  158.5794 C   0  0  0  0  0  0  0  0  0  0  0  0
  196.1718  183.4742  159.2207 C   0  0  0  0  0  0  0  0  0  0  0  0
  195.1924  184.2960  159.8297 C   0  0  0  0  0  0  0  0  0  0  0  0
  195.3301  185.6986  159.7857 C   0  0  0  0  0  0  0  0  0  0  0  0
  196.4553  186.2775  159.1659 C   0  0  0  0  0  0  0  0  0  0  0  0
  196.0382  181.9595  159.2024 C   0  0  1  0  0  0  0  0  0  0  0  0
  195.2992  181.4745  158.0278 N   0  0  2  0  0  0  0  0  0  0  0  0
  195.9223  181.8408  156.7386 C   0  0  2  0  0  0  0  0  0  0  0  0
  193.8508  181.7697  158.1124 C   0  0  2  0  0  0  0  0  0  0  0  0
  205.1618  181.4459  157.9096 H   0  0  0  0  0  0  0  0  0  0  0  0
  205.8776  181.7969  155.5758 H   0  0  0  0  0  0  0  0  0  0  0  0
  204.2496  182.6040  153.8640 H   0  0  0  0  0  0  0  0  0  0  0  0
  201.8752  183.0170  154.5111 H   0  0  0  0  0  0  0  0  0  0  0  0
  201.1172  182.5659  156.7934 H   0  0  0  0  0  0  0  0  0  0  0  0
  202.3437  180.1490  160.1687 H   0  0  0  0  0  0  0  0  0  0  0  0
  203.4677  179.8721  158.8852 H   0  0  0  0  0  0  0  0  0  0  0  0
  199.5063  183.7829  159.3412 H   0  0  0  0  0  0  0  0  0  0  0  0
  202.8864  186.7483  157.2934 H   0  0  0  0  0  0  0  0  0  0  0  0
  203.6723  184.6971  158.4724 H   0  0  0  0  0  0  0  0  0  0  0  0
  198.4838  186.8749  157.4697 H   0  0  0  0  0  0  0  0  0  0  0  0
  198.0269  183.4458  158.0990 H   0  0  0  0  0  0  0  0  0  0  0  0
  194.3140  183.8491  160.2925 H   0  0  0  0  0  0  0  0  0  0  0  0
  194.5621  186.3145  160.2200 H   0  0  0  0  0  0  0  0  0  0  0  0
  196.5692  187.3571  159.1651 H   0  0  0  0  0  0  0  0  0  0  0  0
  197.0338  181.5150  159.1862 H   0  0  0  0  0  0  0  0  0  0  0  0
  195.5546  181.5914  160.1100 H   0  0  0  0  0  0  0  0  0  0  0  0
  195.9259  182.9168  156.5543 H   0  0  0  0  0  0  0  0  0  0  0  0
  195.3846  181.4035  155.9008 H   0  0  0  0  0  0  0  0  0  0  0  0
  196.9501  181.4718  156.6904 H   0  0  0  0  0  0  0  0  0  0  0  0
  193.6512  182.8473  158.0595 H   0  0  0  0  0  0  0  0  0  0  0  0
  193.4193  181.3793  159.0389 H   0  0  0  0  0  0  0  0  0  0  0  0
  193.3078  181.2964  157.2956 H   0  0  0  0  0  0  0  0  0  0  0  0
  195.4035  180.4615  158.0522 H   0  0  0  0  0  0  0  0  0  0  0  0
  1  2  2  0
  2  3  1  0
  2 13  1  0
  3  4  1  0
  3 10  1  0
  4  5  2  0
  4  9  1  0
  5  6  1  0
  5 30  1  0
  6  7  2  0
  6 31  1  0
  7  8  1  0
  7 32  1  0
  8  9  2  0
  8 33  1  0
  9 34  1  0
 10 11  1  0
 10 35  1  1
 10 36  1  0
 11 12  3  0
 13 14  1  0
 13 18  2  0
 14 15  2  0
 14 37  1  0
 15 16  1  0
 15 19  1  0
 16 17  2  0
 17 18  1  0
 17 38  1  0
 18 39  1  0
 19 20  1  0
 19 40  1  0
 20 21  2  0
 20 25  1  0
 21 22  1  0
 21 41  1  0
 22 23  2  0
 22 26  1  0
 23 24  1  0
 23 42  1  0
 24 25  2  0
 24 43  1  0
 25 44  1  0
 26 27  1  0
 26 45  1  6
 26 46  1  0
 27 28  1  0
 27 29  1  0
 27 53  1  1
 28 47  1  6
 28 48  1  0
 28 49  1  0
 29 50  1  1
 29 51  1  0
 29 52  1  0
M  CHG  1  27   1
M  END
>  <s_epik_cmdline>  (1061) 
J2VwaWtfcHl0aG9uJywgJy1waCcsICc3LjAwMDAwMCcsICctcGh0JywgJzIuMDAwMDAwJywgJy1tcycsICcxNicsICctdG4nLCAnOCcsICctbWEnLCAnMjAwJywgJy1pbWFlJywgJzxpbmZpbGUubWFlPicsICctb21hZScsICc8b3V0ZmlsZS5tYWU+Jw==

>  <s_epik_input>  (1061) 
W2NIXTFbY0hdW2NIXVtjSF1bY0hdYzFOKFtDSDJdQyNOKUMoPU8pYzJbY0hdYyhuW2NIXVtjSF0yKVtOSF1jM1tjSF1jKFtjSF1bY0hdW2NIXTMpW0NIMl1OKFtDSDNdKVtDSDNd

>  <s_i_glide_gridfile>  (1061) 
ATP-Grid

>  <s_lp_Force_Field>  (1061) 
OPLS_2005

>  <s_lp_Variant>  (1061) 
rxn514b____EMOL712348____EMOL40480322____EMOL4279023-1

>  <s_lp_label>  (1061) 
3099_sdstereoexpander_1_neutralizer_1_epik_1_stereoizer_1

>  <s_m_source_file>  (1061) 
ATP-VSW-LIGPREP-002-in.maegz

>  <s_sd_BIOSOLVEIT.INFINISEE\_QUERY\_NAME>  (1061) 
Ref-Lig

>  <s_sd_BIOSOLVEIT.INFINISEE\_QUERY\_SMILES>  (1061) 
S(c1nc2c(cc1C[NH2+]Cc3ccc(cc3)C[NH+](C)C)cccc2)Cc4ccccc4

>  <s_sd_BIOSOLVEIT.INFINISEE\_REACTION\_NAME>  (1061) 
rxn514b

>  <s_sd_BIOSOLVEIT.INFINISEE\_REAGENT1\_NAME>  (1061) 
EMOL712348

>  <s_sd_BIOSOLVEIT.INFINISEE\_REAGENT1\_SMILES>  (1061) 
N#CCNc1ccccc1

>  <s_sd_BIOSOLVEIT.INFINISEE\_REAGENT2\_NAME>  (1061) 
EMOL40480322

>  <s_sd_BIOSOLVEIT.INFINISEE\_REAGENT2\_SMILES>  (1061) 
O=C(OC(C)(C)C)Nc1nccc(c1)C(=O)O

>  <s_sd_BIOSOLVEIT.INFINISEE\_REAGENT3\_NAME>  (1061) 
EMOL4279023

>  <s_sd_BIOSOLVEIT.INFINISEE\_REAGENT3\_SMILES>  (1061) 
Brc1cc(ccc1)CN(C)C

>  <s_sd_BIOSOLVEIT.INFINISEE\_SPACE>  (1061) 
eXplore_7tr_2022-12

>  <s_vsw_compound_code>  (1061) 
99138

>  <s_vsw_variant>  (1061) 
99138-1

>  <r_epik_Charging_Adjusted_Penalty>  (1061) 
0.0905741757774641

>  <r_epik_Ionization_Penalty>  (1061) 
0.045499999999999999

>  <r_epik_Ionization_Penalty_Charging>  (1061) 
0.0453

>  <r_epik_Ionization_Penalty_Neutral>  (1061) 
0.00020000000000000001

>  <r_epik_State_Penalty>  (1061) 
0.0453

>  <r_i_docking_score>  (1061) 
-5.4652244894482198

>  <r_i_glide_ecoul>  (1061) 
-15.1270666122437

>  <r_i_glide_eff_state_penalty>  (1061) 
0.0453

>  <r_i_glide_einternal>  (1061) 
6.5058689117431596

>  <r_i_glide_emodel>  (1061) 
-50.541850455407499

>  <r_i_glide_energy>  (1061) 
-35.7702188491821

>  <r_i_glide_erotb>  (1061) 
0.78189128380002404

>  <r_i_glide_esite>  (1061) 
-0.10000000000000001

>  <r_i_glide_evdw>  (1061) 
-20.643152236938501

>  <r_i_glide_gscore>  (1061) 
-5.5105244894482199

>  <r_i_glide_hbond>  (1061) 
-0.124280617163888

>  <r_i_glide_ligand_efficiency>  (1061) 
-0.188456016877525

>  <r_i_glide_ligand_efficiency_ln>  (1061) 
-1.2513978219481301

>  <r_i_glide_ligand_efficiency_sa>  (1061) 
-0.57899659090467104

>  <r_i_glide_lipo>  (1061) 
-1.2939743181946399

>  <r_i_glide_metal>  (1061) 
-0

>  <r_i_glide_rewards>  (1061) 
-1.4729432342062501

>  <r_lp_Energy>  (1061) 
38.549723999999998

>  <r_lp_tautomer_probability>  (1061) 
0.99999977220005198

>  <r_qp_ACxDN^.5/SA>  (1061) 
0.0108518

>  <r_qp_CIQPlogS>  (1061) 
-4.8819999999999997

>  <r_qp_EA(eV)>  (1061) 
0.48799999999999999

>  <r_qp_FISA>  (1061) 
110.77500000000001

>  <r_qp_FOSA>  (1061) 
208.52600000000001

>  <r_qp_IP(eV)>  (1061) 
8.2520000000000007

>  <r_qp_Jm>  (1061) 
0.00110370590912134

>  <r_qp_PISA>  (1061) 
417.90600000000001

>  <r_qp_PSA>  (1061) 
78.030000000000001

>  <r_qp_PercentHumanOralAbsorption>  (1061) 
88.028000000000006

>  <r_qp_QPPCaco>  (1061) 
219.95099999999999

>  <r_qp_QPPMDCK>  (1061) 
106.503

>  <r_qp_QPlogBB>  (1061) 
-0.72699999999999998

>  <r_qp_QPlogHERG>  (1061) 
-7.774

>  <r_qp_QPlogKhsa>  (1061) 
0.20499999999999999

>  <r_qp_QPlogKp>  (1061) 
-3.383

>  <r_qp_QPlogPC16>  (1061) 
14.374000000000001

>  <r_qp_QPlogPo/w>  (1061) 
3.2719999999999998

>  <r_qp_QPlogPoct>  (1061) 
21.126000000000001

>  <r_qp_QPlogPw>  (1061) 
12.669

>  <r_qp_QPlogS>  (1061) 
-5.1600000000000001

>  <r_qp_QPpolrz>  (1061) 
44.816000000000003

>  <r_qp_SASA>  (1061) 
737.20600000000002

>  <r_qp_SAamideO>  (1061) 
0

>  <r_qp_SAfluorine>  (1061) 
0

>  <r_qp_WPSA>  (1061) 
0

>  <r_qp_accptHB>  (1061) 
8

>  <r_qp_dip^2/V>  (1061) 
0.041204900000000003

>  <r_qp_dipole>  (1061) 
7.3250000000000002

>  <r_qp_donorHB>  (1061) 
1

>  <r_qp_glob>  (1061) 
0.78230029999999995

>  <r_qp_mol_MW>  (1061) 
385.46800000000002

>  <r_qp_volume>  (1061) 
1302.2550000000001

>  <r_sd_BIOSOLVEIT.INFINISEE\_FTREES\_SIMILARITY>  (1061) 
0.90100000000000002

>  <r_sd_BIOSOLVEIT.LOGP>  (1061) 
2.6400800000000002

>  <r_sd_BIOSOLVEIT.MOLECULAR\_WEIGHT>  (1061) 
386.47699999999998

>  <r_sd_BIOSOLVEIT.TPSA>  (1061) 
73.459999999999994

>  <i_epik_Tot_Q>  (1061) 
1

>  <i_epik_Tot_abs_Q>  (1061) 
1

>  <i_f3d_flags>  (1061) 
0

>  <i_i_glide_confnum>  (1061) 
7

>  <i_i_glide_lignum>  (1061) 
140

>  <i_i_glide_posenum>  (1061) 
7

>  <i_i_glide_rotatable_bonds>  (1061) 
8

>  <i_lp_mmshare_version>  (1061) 
65135

>  <i_m_ct_format>  (1061) 
2

>  <i_m_source_file_index>  (1061) 
3099

>  <i_qp_#NandO>  (1061) 
6

>  <i_qp_#acid>  (1061) 
0

>  <i_qp_#amide>  (1061) 
0

>  <i_qp_#amidine>  (1061) 
0

>  <i_qp_#amine>  (1061) 
1

>  <i_qp_#in34>  (1061) 
0

>  <i_qp_#in56>  (1061) 
18

>  <i_qp_#metab>  (1061) 
7

>  <i_qp_#nonHatm>  (1061) 
29

>  <i_qp_#noncon>  (1061) 
0

>  <i_qp_#ringatoms>  (1061) 
18

>  <i_qp_#rotor>  (1061) 
8

>  <i_qp_#rtvFG>  (1061) 
0

>  <i_qp_#stars>  (1061) 
0

>  <i_qp_CNS>  (1061) 
0

>  <i_qp_HumanOralAbsorption>  (1061) 
3

>  <i_qp_RuleOfFive>  (1061) 
0

>  <i_qp_RuleOfThree>  (1061) 
1

>  <i_sd_BIOSOLVEIT.INFINISEE\_RESULT\_RANK>  (1061) 
96792

>  <i_sd_version>  (1061) 
0

>  <b_lp_Chiralities_Consistent>  (1061) 
1

>  <b_sd_chiral_flag>  (1061) 
0

>  <canonical_id>  (1061) 
ATP-HTVS-A9326BC55FC3

>  <compound_code>  (1061) 
99138

>  <title>  (1061) 
rxn514b____EMOL712348____EMOL40480322____EMOL4279023

>  <variant>  (1061) 
99138-1

>  <source_file>  (1061) 
运行/运行/ATP-VSW/ATP-VSW-DOCK_HTVS_1-003_lib/ATP-VSW-DOCK_HTVS_1-003_lib.mae

>  <canonical_smiles>  (1061) 
C[NH+](C)Cc1cccc(Nc2cc(C(=O)N(CC#N)c3ccccc3)ccn2)c1

>  <scaffold>  (1061) 
O=C(Nc1ccccc1)c1ccnc(Nc2ccccc2)c1

>  <molecular_formula>  (1061) 
C23H24N5O+

$$$$
ATP-HTVS-A949B56C75C5
     RDKit          3D

 52 55  0  0  0  0  0  0  0  0999 V2000
  196.7433  183.0975  156.3009 O   0  0  0  0  0  0  0  0  0  0  0  0
  197.1689  182.1398  156.9477 C   0  0  0  0  0  0  0  0  0  0  0  0
  197.7563  181.0676  156.3950 N   0  0  0  0  0  0  0  0  0  0  0  0
  197.8331  180.7603  155.0128 C   0  0  0  0  0  0  0  0  0  0  0  0
  196.7696  180.9617  154.2023 N   0  0  0  0  0  0  0  0  0  0  0  0
  196.8454  180.6066  152.9077 C   0  0  0  0  0  0  0  0  0  0  0  0
  197.9845  180.0329  152.3080 C   0  0  0  0  0  0  0  0  0  0  0  0
  197.9208  179.6890  150.9339 N   0  0  0  0  0  0  0  0  0  0  0  0
  198.1226  178.3982  150.3703 C   0  0  0  0  0  0  0  0  0  0  0  0
  197.8276  178.1116  149.0078 C   0  0  0  0  0  0  0  0  0  0  0  0
  198.0474  176.8266  148.4675 C   0  0  0  0  0  0  0  0  0  0  0  0
  198.5985  175.8025  149.2619 C   0  0  0  0  0  0  0  0  0  0  0  0
  198.8910  176.0594  150.6108 C   0  0  0  0  0  0  0  0  0  0  0  0
  198.6267  177.3388  151.1701 C   0  0  0  0  0  0  0  0  0  0  0  0
  197.6019  180.8338  150.0594 C   0  0  1  0  0  0  0  0  0  0  0  0
  198.8084  181.5460  149.6110 C   0  0  0  0  0  0  0  0  0  0  0  0
  199.7562  182.1115  149.2648 N   0  0  0  0  0  0  0  0  0  0  0  0
  199.1230  179.8305  153.1418 C   0  0  0  0  0  0  0  0  0  0  0  0
  199.0363  180.1765  154.5289 C   0  0  0  0  0  0  0  0  0  0  0  0
  200.1466  179.9398  155.3799 C   0  0  0  0  0  0  0  0  0  0  0  0
  201.3173  179.3479  154.8787 C   0  0  0  0  0  0  0  0  0  0  0  0
  201.4070  179.0142  153.5195 C   0  0  0  0  0  0  0  0  0  0  0  0
  200.3193  179.2914  152.6369 C   0  0  0  0  0  0  0  0  0  0  0  0
  197.1407  182.1518  158.4771 C   0  0  1  0  0  0  0  0  0  0  0  0
  196.3132  183.2851  159.0434 C   0  0  0  0  0  0  0  0  0  0  0  0
  196.9350  184.4448  159.5600 C   0  0  0  0  0  0  0  0  0  0  0  0
  196.1538  185.4939  160.0706 C   0  0  0  0  0  0  0  0  0  0  0  0
  196.7444  186.6372  160.5272 O   0  0  0  0  0  0  0  0  0  0  0  0
  194.7452  185.3857  160.0766 C   0  0  0  0  0  0  0  0  0  0  0  0
  193.9734  186.4025  160.5381 O   0  0  0  0  0  0  0  0  0  0  0  0
  194.1278  184.2243  159.5628 C   0  0  0  0  0  0  0  0  0  0  0  0
  194.9094  183.1756  159.0535 C   0  0  0  0  0  0  0  0  0  0  0  0
  198.2174  180.4205  157.0187 H   0  0  0  0  0  0  0  0  0  0  0  0
  195.9433  180.7769  152.3399 H   0  0  0  0  0  0  0  0  0  0  0  0
  197.4159  178.8495  148.3306 H   0  0  0  0  0  0  0  0  0  0  0  0
  197.7783  176.6305  147.4393 H   0  0  0  0  0  0  0  0  0  0  0  0
  198.7820  174.8227  148.8412 H   0  0  0  0  0  0  0  0  0  0  0  0
  199.3250  175.2888  151.2323 H   0  0  0  0  0  0  0  0  0  0  0  0
  198.8471  177.4717  152.2198 H   0  0  0  0  0  0  0  0  0  0  0  0
  197.0203  180.5608  149.1762 H   0  0  0  0  0  0  0  0  0  0  0  0
  196.9854  181.5767  150.5652 H   0  0  0  0  0  0  0  0  0  0  0  0
  200.1155  180.1793  156.4313 H   0  0  0  0  0  0  0  0  0  0  0  0
  202.1501  179.1343  155.5382 H   0  0  0  0  0  0  0  0  0  0  0  0
  202.2977  178.5517  153.1251 H   0  0  0  0  0  0  0  0  0  0  0  0
  200.4571  179.0917  151.5970 H   0  0  0  0  0  0  0  0  0  0  0  0
  196.7693  181.2021  158.8679 H   0  0  0  0  0  0  0  0  0  0  0  0
  198.1606  182.2773  158.8252 H   0  0  0  0  0  0  0  0  0  0  0  0
  198.0137  184.5350  159.5413 H   0  0  0  0  0  0  0  0  0  0  0  0
  197.6845  186.6426  160.4218 H   0  0  0  0  0  0  0  0  0  0  0  0
  193.0901  186.3416  160.2245 H   0  0  0  0  0  0  0  0  0  0  0  0
  193.0511  184.1496  159.5340 H   0  0  0  0  0  0  0  0  0  0  0  0
  194.4330  182.2938  158.6476 H   0  0  0  0  0  0  0  0  0  0  0  0
  1  2  2  0
  2  3  1  0
  2 24  1  0
  3  4  1  0
  3 33  1  0
  4  5  1  0
  4 19  2  0
  5  6  2  0
  6  7  1  0
  6 34  1  0
  7  8  1  0
  7 18  2  0
  8  9  1  0
  8 15  1  0
  9 10  2  0
  9 14  1  0
 10 11  1  0
 10 35  1  0
 11 12  2  0
 11 36  1  0
 12 13  1  0
 12 37  1  0
 13 14  2  0
 13 38  1  0
 14 39  1  0
 15 16  1  0
 15 40  1  6
 15 41  1  0
 16 17  3  0
 18 19  1  0
 18 23  1  0
 19 20  1  0
 20 21  2  0
 20 42  1  0
 21 22  1  0
 21 43  1  0
 22 23  2  0
 22 44  1  0
 23 45  1  0
 24 25  1  0
 24 46  1  1
 24 47  1  0
 25 26  2  0
 25 32  1  0
 26 27  1  0
 26 48  1  0
 27 28  1  0
 27 29  2  0
 28 49  1  0
 29 30  1  0
 29 31  1  0
 30 50  1  0
 31 32  2  0
 31 51  1  0
 32 52  1  0
M  END
>  <s_epik_cmdline>  (1062) 
J2VwaWtfcHl0aG9uJywgJy1waCcsICc3LjAwMDAwMCcsICctcGh0JywgJzIuMDAwMDAwJywgJy1tcycsICcxNicsICctdG4nLCAnOCcsICctbWEnLCAnMjAwJywgJy1pbWFlJywgJzxpbmZpbGUubWFlPicsICctb21hZScsICc8b3V0ZmlsZS5tYWU+Jw==

>  <s_epik_input>  (1062) 
W2NIXTFbY0hdYyhbT0hdKWMoW09IXSlbY0hdYzFbQ0gyXUMoPU8pW05IXWMoYyhjMjMpW2NIXVtjSF1bY0hdW2NIXTMpbltjSF1jMk4oW0NIMl1DI04pYzRbY0hdW2NIXVtjSF1bY0hdW2NIXTQ=

>  <s_i_glide_gridfile>  (1062) 
ATP-Grid

>  <s_lp_Force_Field>  (1062) 
OPLS_2005

>  <s_lp_Variant>  (1062) 
rxn502b____EMOL502826____EMOL7515103____EMOL712348-1

>  <s_lp_label>  (1062) 
2935_sdstereoexpander_1_neutralizer_1_epik_1_stereoizer_1

>  <s_m_source_file>  (1062) 
ATP-VSW-LIGPREP-003-in.maegz

>  <s_sd_BIOSOLVEIT.INFINISEE\_QUERY\_NAME>  (1062) 
Ref-Lig

>  <s_sd_BIOSOLVEIT.INFINISEE\_QUERY\_SMILES>  (1062) 
S(c1nc2c(cc1C[NH2+]Cc3ccc(cc3)C[NH+](C)C)cccc2)Cc4ccccc4

>  <s_sd_BIOSOLVEIT.INFINISEE\_REACTION\_NAME>  (1062) 
rxn502b

>  <s_sd_BIOSOLVEIT.INFINISEE\_REAGENT1\_NAME>  (1062) 
EMOL502826

>  <s_sd_BIOSOLVEIT.INFINISEE\_REAGENT1\_SMILES>  (1062) 
O=C(O)Cc1cc(O)c(O)cc1

>  <s_sd_BIOSOLVEIT.INFINISEE\_REAGENT2\_NAME>  (1062) 
EMOL7515103

>  <s_sd_BIOSOLVEIT.INFINISEE\_REAGENT2\_SMILES>  (1062) 
Brc1c2c(c(nc1)N)cccc2

>  <s_sd_BIOSOLVEIT.INFINISEE\_REAGENT3\_NAME>  (1062) 
EMOL712348

>  <s_sd_BIOSOLVEIT.INFINISEE\_REAGENT3\_SMILES>  (1062) 
N#CCNc1ccccc1

>  <s_sd_BIOSOLVEIT.INFINISEE\_SPACE>  (1062) 
eXplore_7tr_2022-12

>  <s_vsw_compound_code>  (1062) 
93891

>  <s_vsw_variant>  (1062) 
93891-1

>  <r_epik_Charging_Adjusted_Penalty>  (1062) 
0

>  <r_epik_Ionization_Penalty>  (1062) 
0.0086

>  <r_epik_Ionization_Penalty_Charging>  (1062) 
0

>  <r_epik_Ionization_Penalty_Neutral>  (1062) 
0.0086

>  <r_epik_State_Penalty>  (1062) 
-0

>  <r_i_docking_score>  (1062) 
-4.4633034600827202

>  <r_i_glide_ecoul>  (1062) 
-5.1233139038085902

>  <r_i_glide_eff_state_penalty>  (1062) 
-0

>  <r_i_glide_einternal>  (1062) 
5.3023185729980504

>  <r_i_glide_emodel>  (1062) 
-51.100783974100402

>  <r_i_glide_energy>  (1062) 
-40.488895416259801

>  <r_i_glide_erotb>  (1062) 
0.66036538507620901

>  <r_i_glide_esite>  (1062) 
-0.12579668254092599

>  <r_i_glide_evdw>  (1062) 
-35.3655815124512

>  <r_i_glide_gscore>  (1062) 
-4.4633034600827202

>  <r_i_glide_hbond>  (1062) 
0

>  <r_i_glide_ligand_efficiency>  (1062) 
-0.13947823312758501

>  <r_i_glide_ligand_efficiency_ln>  (1062) 
-0.99945530976977903

>  <r_i_glide_ligand_efficiency_sa>  (1062) 
-0.44281578747522798

>  <r_i_glide_lipo>  (1062) 
-1.9367814453171801

>  <r_i_glide_metal>  (1062) 
-0

>  <r_i_glide_rewards>  (1062) 
-0.52431455610697597

>  <r_lp_Energy>  (1062) 
30.588470000000001

>  <r_lp_tautomer_probability>  (1062) 
1

>  <r_qp_ACxDN^.5/SA>  (1062) 
0.016586199999999999

>  <r_qp_CIQPlogS>  (1062) 
-7.242

>  <r_qp_EA(eV)>  (1062) 
1.327

>  <r_qp_FISA>  (1062) 
213.989

>  <r_qp_FOSA>  (1062) 
77.122

>  <r_qp_IP(eV)>  (1062) 
8.3650000000000002

>  <r_qp_Jm>  (1062) 
0.00015343730978244801

>  <r_qp_PISA>  (1062) 
439.88099999999997

>  <r_qp_PSA>  (1062) 
116.79000000000001

>  <r_qp_PercentHumanOralAbsorption>  (1062) 
81.856999999999999

>  <r_qp_QPPCaco>  (1062) 
92.606999999999999

>  <r_qp_QPPMDCK>  (1062) 
37.792999999999999

>  <r_qp_QPlogBB>  (1062) 
-2.23

>  <r_qp_QPlogHERG>  (1062) 
-6.9299999999999997

>  <r_qp_QPlogKhsa>  (1062) 
0.35999999999999999

>  <r_qp_QPlogKp>  (1062) 
-3.0499999999999998

>  <r_qp_QPlogPC16>  (1062) 
15.827999999999999

>  <r_qp_QPlogPo/w>  (1062) 
3.367

>  <r_qp_QPlogPoct>  (1062) 
24.056000000000001

>  <r_qp_QPlogPw>  (1062) 
15.228999999999999

>  <r_qp_QPlogS>  (1062) 
-6.3920000000000003

>  <r_qp_QPpolrz>  (1062) 
45.087000000000003

>  <r_qp_SASA>  (1062) 
730.99099999999999

>  <r_qp_SAamideO>  (1062) 
0

>  <r_qp_SAfluorine>  (1062) 
0

>  <r_qp_WPSA>  (1062) 
0

>  <r_qp_accptHB>  (1062) 
7

>  <r_qp_dip^2/V>  (1062) 
0.032710099999999999

>  <r_qp_dipole>  (1062) 
6.5700000000000003

>  <r_qp_donorHB>  (1062) 
3

>  <r_qp_glob>  (1062) 
0.79602580000000001

>  <r_qp_mol_MW>  (1062) 
424.45800000000003

>  <r_qp_volume>  (1062) 
1319.8109999999999

>  <r_sd_BIOSOLVEIT.INFINISEE\_FTREES\_SIMILARITY>  (1062) 
0.90400000000000003

>  <r_sd_BIOSOLVEIT.LOGP>  (1062) 
4.48888

>  <r_sd_BIOSOLVEIT.MOLECULAR\_WEIGHT>  (1062) 
424.45800000000003

>  <r_sd_BIOSOLVEIT.TPSA>  (1062) 
109.48

>  <i_epik_Tot_Q>  (1062) 
0

>  <i_epik_Tot_abs_Q>  (1062) 
0

>  <i_f3d_flags>  (1062) 
0

>  <i_i_glide_confnum>  (1062) 
4

>  <i_i_glide_lignum>  (1062) 
1449

>  <i_i_glide_posenum>  (1062) 
16

>  <i_i_glide_rotatable_bonds>  (1062) 
9

>  <i_lp_mmshare_version>  (1062) 
65135

>  <i_m_ct_format>  (1062) 
2

>  <i_m_source_file_index>  (1062) 
2935

>  <i_qp_#NandO>  (1062) 
7

>  <i_qp_#acid>  (1062) 
0

>  <i_qp_#amide>  (1062) 
0

>  <i_qp_#amidine>  (1062) 
0

>  <i_qp_#amine>  (1062) 
0

>  <i_qp_#in34>  (1062) 
0

>  <i_qp_#in56>  (1062) 
22

>  <i_qp_#metab>  (1062) 
7

>  <i_qp_#nonHatm>  (1062) 
32

>  <i_qp_#noncon>  (1062) 
0

>  <i_qp_#ringatoms>  (1062) 
22

>  <i_qp_#rotor>  (1062) 
9

>  <i_qp_#rtvFG>  (1062) 
0

>  <i_qp_#stars>  (1062) 
0

>  <i_qp_CNS>  (1062) 
-2

>  <i_qp_HumanOralAbsorption>  (1062) 
1

>  <i_qp_RuleOfFive>  (1062) 
0

>  <i_qp_RuleOfThree>  (1062) 
2

>  <i_sd_BIOSOLVEIT.INFINISEE\_RESULT\_RANK>  (1062) 
78613

>  <i_sd_version>  (1062) 
0

>  <b_lp_Chiralities_Consistent>  (1062) 
1

>  <b_sd_chiral_flag>  (1062) 
0

>  <canonical_id>  (1062) 
ATP-HTVS-A949B56C75C5

>  <compound_code>  (1062) 
93891

>  <title>  (1062) 
rxn502b____EMOL502826____EMOL7515103____EMOL712348

>  <variant>  (1062) 
93891-1

>  <source_file>  (1062) 
运行/运行/ATP-VSW/ATP-VSW-DOCK_HTVS_1-003_lib/ATP-VSW-DOCK_HTVS_1-003_lib.mae

>  <canonical_smiles>  (1062) 
N#CCN(c1ccccc1)c1cnc(NC(=O)Cc2ccc(O)c(O)c2)c2ccccc12

>  <scaffold>  (1062) 
O=C(Cc1ccccc1)Nc1ncc(Nc2ccccc2)c2ccccc12

>  <molecular_formula>  (1062) 
C25H20N4O3

$$$$
ATP-HTVS-A9572D0B6B20
     RDKit          3D

 63 66  0  0  0  0  0  0  0  0999 V2000
  200.1564  182.1317  156.4056 O   0  0  0  0  0  0  0  0  0  0  0  0
  199.0324  181.7132  156.6428 C   0  0  0  0  0  0  0  0  0  0  0  0
  198.6351  180.4729  156.2968 N   0  0  0  0  0  0  0  0  0  0  0  0
  199.4263  179.5223  155.6022 C   0  0  0  0  0  0  0  0  0  0  0  0
  199.0253  179.0885  154.3169 C   0  0  0  0  0  0  0  0  0  0  0  0
  197.8653  179.6465  153.7371 N   0  0  0  0  0  0  0  0  0  0  0  0
  197.5888  179.5989  152.3066 C   0  0  2  0  0  0  0  0  0  0  0  0
  198.2003  180.8083  151.5835 C   0  0  2  0  0  0  0  0  0  0  0  0
  196.0785  179.5190  152.0657 C   0  0  2  0  0  0  0  0  0  0  0  0
  199.8009  178.1000  153.6658 C   0  0  0  0  0  0  0  0  0  0  0  0
  200.9256  177.5380  154.2974 C   0  0  0  0  0  0  0  0  0  0  0  0
  201.3203  177.9773  155.5721 C   0  0  0  0  0  0  0  0  0  0  0  0
  200.5713  178.9734  156.2274 C   0  0  0  0  0  0  0  0  0  0  0  0
  198.0111  182.5426  157.3572 C   0  0  0  0  0  0  0  0  0  0  0  0
  196.7495  182.0011  157.5830 N   0  0  0  0  0  0  0  0  0  0  0  0
  195.9272  182.8805  158.2538 C   0  0  0  0  0  0  0  0  0  0  0  0
  196.7278  184.0370  158.5110 C   0  0  0  0  0  0  0  0  0  0  0  0
  196.1254  185.0969  159.2456 C   0  0  0  0  0  0  0  0  0  0  0  0
  194.7760  185.0128  159.6194 C   0  0  0  0  0  0  0  0  0  0  0  0
  193.9964  183.8683  159.3157 C   0  0  0  0  0  0  0  0  0  0  0  0
  194.5810  182.7803  158.6587 C   0  0  0  0  0  0  0  0  0  0  0  0
  198.0172  183.8227  157.9041 C   0  0  0  0  0  0  0  0  0  0  0  0
  199.0262  184.8221  157.9549 N   0  0  0  0  0  0  0  0  0  0  0  0
  198.8893  186.0173  157.0906 C   0  0  2  0  0  0  0  0  0  0  0  0
  197.8208  186.9057  157.5080 C   0  0  0  0  0  0  0  0  0  0  0  0
  196.9484  187.6485  157.8303 N   0  0  0  0  0  0  0  0  0  0  0  0
  198.7897  185.7038  155.6061 C   0  0  0  0  0  0  0  0  0  0  0  0
  197.6019  185.1933  155.0426 C   0  0  0  0  0  0  0  0  0  0  0  0
  197.5228  184.9153  153.6656 C   0  0  0  0  0  0  0  0  0  0  0  0
  198.6370  185.1571  152.8383 C   0  0  0  0  0  0  0  0  0  0  0  0
  199.8233  185.6765  153.3937 C   0  0  0  0  0  0  0  0  0  0  0  0
  199.9019  185.9501  154.7696 C   0  0  0  0  0  0  0  0  0  0  0  0
  200.3976  184.4696  158.3215 C   0  0  1  0  0  0  0  0  0  0  0  0
  200.5135  183.4058  159.4276 C   0  0  2  0  0  0  0  0  0  0  0  0
  197.6777  180.2077  156.4571 H   0  0  0  0  0  0  0  0  0  0  0  0
  197.3583  180.3316  154.2780 H   0  0  0  0  0  0  0  0  0  0  0  0
  198.0080  178.6989  151.8631 H   0  0  0  0  0  0  0  0  0  0  0  0
  197.9987  180.7568  150.5129 H   0  0  0  0  0  0  0  0  0  0  0  0
  199.2833  180.8454  151.7084 H   0  0  0  0  0  0  0  0  0  0  0  0
  197.7877  181.7487  151.9514 H   0  0  0  0  0  0  0  0  0  0  0  0
  195.8581  179.4376  151.0015 H   0  0  0  0  0  0  0  0  0  0  0  0
  195.5635  180.3965  152.4551 H   0  0  0  0  0  0  0  0  0  0  0  0
  195.6566  178.6366  152.5451 H   0  0  0  0  0  0  0  0  0  0  0  0
  199.5314  177.7085  152.7010 H   0  0  0  0  0  0  0  0  0  0  0  0
  201.4821  176.7594  153.7962 H   0  0  0  0  0  0  0  0  0  0  0  0
  202.1790  177.5341  156.0568 H   0  0  0  0  0  0  0  0  0  0  0  0
  200.8667  179.2995  157.2137 H   0  0  0  0  0  0  0  0  0  0  0  0
  196.4647  181.0526  157.3464 H   0  0  0  0  0  0  0  0  0  0  0  0
  196.6859  185.9897  159.4549 H   0  0  0  0  0  0  0  0  0  0  0  0
  194.3013  185.8445  160.1208 H   0  0  0  0  0  0  0  0  0  0  0  0
  192.9535  183.8402  159.6105 H   0  0  0  0  0  0  0  0  0  0  0  0
  194.0168  181.8782  158.4515 H   0  0  0  0  0  0  0  0  0  0  0  0
  199.7882  186.6172  157.2335 H   0  0  0  0  0  0  0  0  0  0  0  0
  196.7437  185.0069  155.6723 H   0  0  0  0  0  0  0  0  0  0  0  0
  196.6067  184.5190  153.2481 H   0  0  0  0  0  0  0  0  0  0  0  0
  198.5850  184.9401  151.7840 H   0  0  0  0  0  0  0  0  0  0  0  0
  200.6819  185.8661  152.7617 H   0  0  0  0  0  0  0  0  0  0  0  0
  200.8111  186.3516  155.1920 H   0  0  0  0  0  0  0  0  0  0  0  0
  200.9332  184.1535  157.4290 H   0  0  0  0  0  0  0  0  0  0  0  0
  200.9158  185.3662  158.6610 H   0  0  0  0  0  0  0  0  0  0  0  0
  201.5533  183.2297  159.6951 H   0  0  0  0  0  0  0  0  0  0  0  0
  200.1177  182.4436  159.1203 H   0  0  0  0  0  0  0  0  0  0  0  0
  199.9802  183.7096  160.3265 H   0  0  0  0  0  0  0  0  0  0  0  0
  1  2  2  0
  2  3  1  0
  2 14  1  0
  3  4  1  0
  3 35  1  0
  4  5  1  0
  4 13  2  0
  5  6  1  0
  5 10  2  0
  6  7  1  0
  6 36  1  0
  7  8  1  0
  7  9  1  0
  7 37  1  6
  8 38  1  6
  8 39  1  0
  8 40  1  0
  9 41  1  6
  9 42  1  0
  9 43  1  0
 10 11  1  0
 10 44  1  0
 11 12  2  0
 11 45  1  0
 12 13  1  0
 12 46  1  0
 13 47  1  0
 14 15  1  0
 14 22  2  0
 15 16  1  0
 15 48  1  0
 16 17  1  0
 16 21  2  0
 17 18  2  0
 17 22  1  0
 18 19  1  0
 18 49  1  0
 19 20  2  0
 19 50  1  0
 20 21  1  0
 20 51  1  0
 21 52  1  0
 22 23  1  0
 23 24  1  0
 23 33  1  0
 24 25  1  0
 24 27  1  0
 24 53  1  6
 25 26  3  0
 27 28  2  0
 27 32  1  0
 28 29  1  0
 28 54  1  0
 29 30  2  0
 29 55  1  0
 30 31  1  0
 30 56  1  0
 31 32  2  0
 31 57  1  0
 32 58  1  0
 33 34  1  0
 33 59  1  6
 33 60  1  0
 34 61  1  1
 34 62  1  0
 34 63  1  0
M  END
>  <s_epik_cmdline>  (1063) 
J2VwaWtfcHl0aG9uJywgJy1waCcsICc3LjAwMDAwMCcsICctcGh0JywgJzIuMDAwMDAwJywgJy1tcycsICcxNicsICctdG4nLCAnOCcsICctbWEnLCAnMjAwJywgJy1pbWFlJywgJzxpbmZpbGUubWFlPicsICctb21hZScsICc8b3V0ZmlsZS5tYWU+Jw==

>  <s_epik_input>  (1063) 
W2NIXTFbY0hdW2NIXVtjSF1jKFtOSF1bQ0hdKFtDSDNdKVtDSDNdKWMxW05IXUMoPU8pYyhbbkhdMiljKGMoYzIzKVtjSF1bY0hdW2NIXVtjSF0zKU4oW0NIMl1bQ0gzXSlbQ0BIXShDI04pYzRbY0hdW2NIXVtjSF1bY0hdW2NIXTQ=

>  <s_i_glide_gridfile>  (1063) 
ATP-Grid

>  <s_lp_Force_Field>  (1063) 
OPLS_2005

>  <s_lp_Variant>  (1063) 
rxn512b____EMOL108753642____EMOL719673____EMOL49839592-2

>  <s_lp_label>  (1063) 
2514_sdstereoexpander_2_neutralizer_1_epik_1_stereoizer_1

>  <s_m_source_file>  (1063) 
ATP-VSW-LIGPREP-001-in.maegz

>  <s_sd_BIOSOLVEIT.INFINISEE\_QUERY\_NAME>  (1063) 
Ref-Lig

>  <s_sd_BIOSOLVEIT.INFINISEE\_QUERY\_SMILES>  (1063) 
S(c1nc2c(cc1C[NH2+]Cc3ccc(cc3)C[NH+](C)C)cccc2)Cc4ccccc4

>  <s_sd_BIOSOLVEIT.INFINISEE\_REACTION\_NAME>  (1063) 
rxn512b

>  <s_sd_BIOSOLVEIT.INFINISEE\_REAGENT1\_NAME>  (1063) 
EMOL108753642

>  <s_sd_BIOSOLVEIT.INFINISEE\_REAGENT1\_SMILES>  (1063) 
N(c1c(N)cccc1)C(C)C

>  <s_sd_BIOSOLVEIT.INFINISEE\_REAGENT2\_NAME>  (1063) 
EMOL719673

>  <s_sd_BIOSOLVEIT.INFINISEE\_REAGENT2\_SMILES>  (1063) 
BrC=1c2c(NC1C(=O)O)cccc2

>  <s_sd_BIOSOLVEIT.INFINISEE\_REAGENT3\_NAME>  (1063) 
EMOL49839592

>  <s_sd_BIOSOLVEIT.INFINISEE\_REAGENT3\_SMILES>  (1063) 
N#CC(NCC)c1ccccc1

>  <s_sd_BIOSOLVEIT.INFINISEE\_SPACE>  (1063) 
eXplore_7tr_2022-12

>  <s_vsw_compound_code>  (1063) 
80417

>  <s_vsw_variant>  (1063) 
80417-2

>  <r_epik_Charging_Adjusted_Penalty>  (1063) 
0.0048330832837496602

>  <r_epik_Ionization_Penalty>  (1063) 
0.0047999999999999996

>  <r_epik_Ionization_Penalty_Charging>  (1063) 
0

>  <r_epik_Ionization_Penalty_Neutral>  (1063) 
0.0047999999999999996

>  <r_epik_State_Penalty>  (1063) 
0.0047999999999999996

>  <r_i_docking_score>  (1063) 
-3.7188203426865098

>  <r_i_glide_ecoul>  (1063) 
-4.6382408142089799

>  <r_i_glide_eff_state_penalty>  (1063) 
0.0047999999999999996

>  <r_i_glide_einternal>  (1063) 
5.2659206390380904

>  <r_i_glide_emodel>  (1063) 
-48.739569078339699

>  <r_i_glide_energy>  (1063) 
-41.222381591796903

>  <r_i_glide_erotb>  (1063) 
0.68857471245351898

>  <r_i_glide_esite>  (1063) 
-0.17477698384336901

>  <r_i_glide_evdw>  (1063) 
-36.584140777587898

>  <r_i_glide_gscore>  (1063) 
-3.7236203426865102

>  <r_i_glide_hbond>  (1063) 
0

>  <r_i_glide_ligand_efficiency>  (1063) 
-0.10937706890254401

>  <r_i_glide_ligand_efficiency_ln>  (1063) 
-0.82159172307686801

>  <r_i_glide_ligand_efficiency_sa>  (1063) 
-0.354339242789314

>  <r_i_glide_lipo>  (1063) 
-1.2681300812785901

>  <r_i_glide_metal>  (1063) 
-0

>  <r_i_glide_rewards>  (1063) 
-0.44434482900733002

>  <r_lp_Energy>  (1063) 
32.200406000000001

>  <r_qp_ACxDN^.5/SA>  (1063) 
0.0138709

>  <r_qp_CIQPlogS>  (1063) 
-7.0369999999999999

>  <r_qp_EA(eV)>  (1063) 
0.51800000000000002

>  <r_qp_FISA>  (1063) 
80.180999999999997

>  <r_qp_FOSA>  (1063) 
271.77699999999999

>  <r_qp_IP(eV)>  (1063) 
8.2870000000000008

>  <r_qp_Jm>  (1063) 
0.0012250396016471

>  <r_qp_PISA>  (1063) 
397.25700000000001

>  <r_qp_PSA>  (1063) 
81.400999999999996

>  <r_qp_PercentHumanOralAbsorption>  (1063) 
100

>  <r_qp_QPPCaco>  (1063) 
428.99000000000001

>  <r_qp_QPPMDCK>  (1063) 
219.25399999999999

>  <r_qp_QPlogBB>  (1063) 
-0.378

>  <r_qp_QPlogHERG>  (1063) 
-7.0899999999999999

>  <r_qp_QPlogKhsa>  (1063) 
0.82299999999999995

>  <r_qp_QPlogKp>  (1063) 
-2.7959999999999998

>  <r_qp_QPlogPC16>  (1063) 
15.497999999999999

>  <r_qp_QPlogPo/w>  (1063) 
4.7869999999999999

>  <r_qp_QPlogPoct>  (1063) 
24.359000000000002

>  <r_qp_QPlogPw>  (1063) 
13.087999999999999

>  <r_qp_QPlogS>  (1063) 
-5.7699999999999996

>  <r_qp_QPpolrz>  (1063) 
49.000999999999998

>  <r_qp_SASA>  (1063) 
749.21400000000006

>  <r_qp_SAamideO>  (1063) 
0

>  <r_qp_SAfluorine>  (1063) 
0

>  <r_qp_WPSA>  (1063) 
0

>  <r_qp_accptHB>  (1063) 
6

>  <r_qp_dip^2/V>  (1063) 
0.037304400000000001

>  <r_qp_dipole>  (1063) 
7.298

>  <r_qp_donorHB>  (1063) 
3

>  <r_qp_glob>  (1063) 
0.81847139999999996

>  <r_qp_mol_MW>  (1063) 
451.56999999999999

>  <r_qp_volume>  (1063) 
1427.798

>  <r_sd_BIOSOLVEIT.INFINISEE\_FTREES\_SIMILARITY>  (1063) 
0.91400000000000003

>  <r_sd_BIOSOLVEIT.LOGP>  (1063) 
6.3316800000000004

>  <r_sd_BIOSOLVEIT.MOLECULAR\_WEIGHT>  (1063) 
451.57100000000003

>  <r_sd_BIOSOLVEIT.TPSA>  (1063) 
83.950000000000003

>  <i_epik_Tot_Q>  (1063) 
0

>  <i_epik_Tot_abs_Q>  (1063) 
0

>  <i_f3d_flags>  (1063) 
0

>  <i_i_glide_confnum>  (1063) 
7

>  <i_i_glide_lignum>  (1063) 
989

>  <i_i_glide_posenum>  (1063) 
15

>  <i_i_glide_rotatable_bonds>  (1063) 
9

>  <i_lp_mmshare_version>  (1063) 
65135

>  <i_m_ct_format>  (1063) 
2

>  <i_m_source_file_index>  (1063) 
2514

>  <i_qp_#NandO>  (1063) 
6

>  <i_qp_#acid>  (1063) 
0

>  <i_qp_#amide>  (1063) 
0

>  <i_qp_#amidine>  (1063) 
0

>  <i_qp_#amine>  (1063) 
1

>  <i_qp_#in34>  (1063) 
0

>  <i_qp_#in56>  (1063) 
21

>  <i_qp_#metab>  (1063) 
7

>  <i_qp_#nonHatm>  (1063) 
34

>  <i_qp_#noncon>  (1063) 
0

>  <i_qp_#ringatoms>  (1063) 
21

>  <i_qp_#rotor>  (1063) 
9

>  <i_qp_#rtvFG>  (1063) 
0

>  <i_qp_#stars>  (1063) 
0

>  <i_qp_CNS>  (1063) 
0

>  <i_qp_HumanOralAbsorption>  (1063) 
3

>  <i_qp_RuleOfFive>  (1063) 
0

>  <i_qp_RuleOfThree>  (1063) 
2

>  <i_sd_BIOSOLVEIT.INFINISEE\_RESULT\_RANK>  (1063) 
32124

>  <i_sd_version>  (1063) 
0

>  <b_lp_Chiralities_Consistent>  (1063) 
1

>  <b_sd_chiral_flag>  (1063) 
0

>  <canonical_id>  (1063) 
ATP-HTVS-A9572D0B6B20

>  <compound_code>  (1063) 
80417

>  <title>  (1063) 
rxn512b____EMOL108753642____EMOL719673____EMOL49839592

>  <variant>  (1063) 
80417-2

>  <source_file>  (1063) 
运行/运行/ATP-VSW/ATP-VSW-DOCK_HTVS_1-001_lib/ATP-VSW-DOCK_HTVS_1-001_lib

>  <canonical_smiles>  (1063) 
CCN(c1c(C(=O)Nc2ccccc2NC(C)C)[nH]c2ccccc12)[C@H](C#N)c1ccccc1

>  <scaffold>  (1063) 
O=C(Nc1ccccc1)c1[nH]c2ccccc2c1NCc1ccccc1

>  <molecular_formula>  (1063) 
C28H29N5O

$$$$
ATP-HTVS-A95E57B9EC2C
     RDKit          3D

 62 65  0  0  0  0  0  0  0  0999 V2000
  194.5870  186.7692  160.6811 F   0  0  0  0  0  0  0  0  0  0  0  0
  195.5521  185.9991  160.1246 C   0  0  0  0  0  0  0  0  0  0  0  0
  196.8366  186.5337  159.8893 C   0  0  0  0  0  0  0  0  0  0  0  0
  197.8362  185.7094  159.3252 C   0  0  0  0  0  0  0  0  0  0  0  0
  197.5624  184.3651  158.9879 C   0  0  0  0  0  0  0  0  0  0  0  0
  196.2721  183.8420  159.2311 C   0  0  0  0  0  0  0  0  0  0  0  0
  195.2705  184.6607  159.7897 C   0  0  0  0  0  0  0  0  0  0  0  0
  198.6717  183.4898  158.4218 C   0  0  1  0  0  0  0  0  0  0  0  0
  198.2918  182.6521  157.2924 N   0  0  0  0  0  0  0  0  0  0  0  0
  198.1566  183.2336  156.0231 C   0  0  0  0  0  0  0  0  0  0  0  0
  198.9416  184.2778  155.6932 N   0  0  0  0  0  0  0  0  0  0  0  0
  198.8004  184.8126  154.4558 C   0  0  0  0  0  0  0  0  0  0  0  0
  197.8593  184.2818  153.5211 C   0  0  0  0  0  0  0  0  0  0  0  0
  197.0753  183.2322  153.8601 N   0  0  0  0  0  0  0  0  0  0  0  0
  197.2156  182.7092  155.1012 C   0  0  0  0  0  0  0  0  0  0  0  0
  196.3530  181.6786  155.4680 N   0  0  0  0  0  0  0  0  0  0  0  0
  196.8719  180.3184  155.5853 C   0  0  1  0  0  0  0  0  0  0  0  0
  197.7319  179.8671  154.4017 C   0  0  0  0  0  0  0  0  0  0  0  0
  199.0721  179.4184  154.5445 C   0  0  0  0  0  0  0  0  0  0  0  0
  199.7933  179.0228  153.3884 C   0  0  0  0  0  0  0  0  0  0  0  0
  199.2083  179.0589  152.1094 C   0  0  0  0  0  0  0  0  0  0  0  0
  197.8867  179.5142  151.9663 C   0  0  0  0  0  0  0  0  0  0  0  0
  197.1627  179.9180  153.1051 C   0  0  0  0  0  0  0  0  0  0  0  0
  199.7566  179.2833  155.9055 C   0  0  1  0  0  0  0  0  0  0  0  0
  199.5670  177.9486  156.5356 N   0  0  2  0  0  0  0  0  0  0  0  0
  200.3378  177.8299  157.7916 C   0  0  2  0  0  0  0  0  0  0  0  0
  199.8339  176.7930  155.6455 C   0  0  2  0  0  0  0  0  0  0  0  0
  197.7640  184.8621  152.2371 C   0  0  0  0  0  0  0  0  0  0  0  0
  198.5717  185.9560  151.8743 C   0  0  0  0  0  0  0  0  0  0  0  0
  199.4969  186.4738  152.7925 C   0  0  0  0  0  0  0  0  0  0  0  0
  199.6047  185.9056  154.0726 C   0  0  0  0  0  0  0  0  0  0  0  0
  197.1512  187.9776  160.2507 C   0  0  1  0  0  0  0  0  0  0  0  0
  196.6982  188.8951  159.2816 O   0  0  0  0  0  0  0  0  0  0  0  0
  198.8233  186.1124  159.1517 H   0  0  0  0  0  0  0  0  0  0  0  0
  196.0466  182.8101  158.9981 H   0  0  0  0  0  0  0  0  0  0  0  0
  194.2840  184.2602  159.9730 H   0  0  0  0  0  0  0  0  0  0  0  0
  199.5246  184.1142  158.1553 H   0  0  0  0  0  0  0  0  0  0  0  0
  199.0240  182.8379  159.2192 H   0  0  0  0  0  0  0  0  0  0  0  0
  197.5989  181.9385  157.4816 H   0  0  0  0  0  0  0  0  0  0  0  0
  195.3590  181.8064  155.2507 H   0  0  0  0  0  0  0  0  0  0  0  0
  197.3702  180.2384  156.5425 H   0  0  0  0  0  0  0  0  0  0  0  0
  196.0269  179.6183  155.6438 H   0  0  0  0  0  0  0  0  0  0  0  0
  200.8083  178.6665  153.4723 H   0  0  0  0  0  0  0  0  0  0  0  0
  199.7714  178.7365  151.2375 H   0  0  0  0  0  0  0  0  0  0  0  0
  197.4350  179.5562  150.9802 H   0  0  0  0  0  0  0  0  0  0  0  0
  196.1472  180.2633  152.9756 H   0  0  0  0  0  0  0  0  0  0  0  0
  200.8306  179.4292  155.7225 H   0  0  0  0  0  0  0  0  0  0  0  0
  199.4863  180.0727  156.5968 H   0  0  0  0  0  0  0  0  0  0  0  0
  201.4104  177.8938  157.6030 H   0  0  0  0  0  0  0  0  0  0  0  0
  200.1311  176.8820  158.2862 H   0  0  0  0  0  0  0  0  0  0  0  0
  200.0634  178.6233  158.4804 H   0  0  0  0  0  0  0  0  0  0  0  0
  200.8674  176.8179  155.2934 H   0  0  0  0  0  0  0  0  0  0  0  0
  199.1758  176.7752  154.7748 H   0  0  0  0  0  0  0  0  0  0  0  0
  199.6897  175.8427  156.1432 H   0  0  0  0  0  0  0  0  0  0  0  0
  197.0504  184.4673  151.5304 H   0  0  0  0  0  0  0  0  0  0  0  0
  198.4844  186.3972  150.8929 H   0  0  0  0  0  0  0  0  0  0  0  0
  200.1254  187.3096  152.5198 H   0  0  0  0  0  0  0  0  0  0  0  0
  200.3225  186.2996  154.7780 H   0  0  0  0  0  0  0  0  0  0  0  0
  196.7160  188.2287  161.2190 H   0  0  0  0  0  0  0  0  0  0  0  0
  198.2304  188.1125  160.3524 H   0  0  0  0  0  0  0  0  0  0  0  0
  195.7477  188.9422  159.3316 H   0  0  0  0  0  0  0  0  0  0  0  0
  198.5874  177.8687  156.8490 H   0  0  0  0  0  0  0  0  0  0  0  0
  1  2  1  0
  2  3  2  0
  2  7  1  0
  3  4  1  0
  3 32  1  0
  4  5  2  0
  4 34  1  0
  5  6  1  0
  5  8  1  0
  6  7  2  0
  6 35  1  0
  7 36  1  0
  8  9  1  0
  8 37  1  6
  8 38  1  0
  9 10  1  0
  9 39  1  0
 10 11  2  0
 10 15  1  0
 11 12  1  0
 12 13  1  0
 12 31  2  0
 13 14  1  0
 13 28  2  0
 14 15  2  0
 15 16  1  0
 16 17  1  0
 16 40  1  0
 17 18  1  0
 17 41  1  1
 17 42  1  0
 18 19  1  0
 18 23  2  0
 19 20  2  0
 19 24  1  0
 20 21  1  0
 20 43  1  0
 21 22  2  0
 21 44  1  0
 22 23  1  0
 22 45  1  0
 23 46  1  0
 24 25  1  0
 24 47  1  6
 24 48  1  0
 25 26  1  0
 25 27  1  0
 25 62  1  1
 26 49  1  6
 26 50  1  0
 26 51  1  0
 27 52  1  6
 27 53  1  0
 27 54  1  0
 28 29  1  0
 28 55  1  0
 29 30  2  0
 29 56  1  0
 30 31  1  0
 30 57  1  0
 31 58  1  0
 32 33  1  0
 32 59  1  1
 32 60  1  0
 33 61  1  0
M  CHG  1  25   1
M  END
>  <s_epik_cmdline>  (1064) 
J2VwaWtfcHl0aG9uJywgJy1waCcsICc3LjAwMDAwMCcsICctcGh0JywgJzIuMDAwMDAwJywgJy1tcycsICcxNicsICctdG4nLCAnOCcsICctbWEnLCAnMjAwJywgJy1pbWFlJywgJzxpbmZpbGUubWFlPicsICctb21hZScsICc8b3V0ZmlsZS5tYWU+Jw==

>  <s_epik_input>  (1064) 
RmMxYyhbQ0gyXVtPSF0pW2NIXWMoW2NIXVtjSF0xKVtDSDJdW05IXWMobjIpYyhuYyhjMjMpW2NIXVtjSF1bY0hdW2NIXTMpW05IXVtDSDJdYzRjKFtDSDJdTihbQ0gzXSlbQ0gzXSlbY0hdW2NIXVtjSF1bY0hdNA==

>  <s_i_glide_gridfile>  (1064) 
ATP-Grid

>  <s_lp_Force_Field>  (1064) 
OPLS_2005

>  <s_lp_Variant>  (1064) 
m_282030aaa____21905842____23157418____21973156-1

>  <s_lp_label>  (1064) 
1567_sdstereoexpander_1_neutralizer_1_epik_1_stereoizer_1

>  <s_m_source_file>  (1064) 
ATP-VSW-LIGPREP-001-in.maegz

>  <s_sd_BIOSOLVEIT.INFINISEE\_QUERY\_NAME>  (1064) 
Ref-Lig

>  <s_sd_BIOSOLVEIT.INFINISEE\_QUERY\_SMILES>  (1064) 
S(c1nc2c(cc1C[NH2+]Cc3ccc(cc3)C[NH+](C)C)cccc2)Cc4ccccc4

>  <s_sd_BIOSOLVEIT.INFINISEE\_REACTION\_NAME>  (1064) 
m_282030aaa

>  <s_sd_BIOSOLVEIT.INFINISEE\_REAGENT1\_SMILES>  (1064) 
[R1*]NCc1cc(c(F)cc1)CO

>  <s_sd_BIOSOLVEIT.INFINISEE\_REAGENT2\_SMILES>  (1064) 
[R1*]c1nc2c(nc1[R2*])cccc2

>  <s_sd_BIOSOLVEIT.INFINISEE\_REAGENT3\_SMILES>  (1064) 
[R2*]NCc1c(cccc1)CN(C)C

>  <s_sd_BIOSOLVEIT.INFINISEE\_SPACE>  (1064) 
REALSpace_44bn_2023-08

>  <s_vsw_compound_code>  (1064) 
50113

>  <s_vsw_variant>  (1064) 
50113-1

>  <r_epik_Charging_Adjusted_Penalty>  (1064) 
0.076612674508475406

>  <r_epik_Ionization_Penalty>  (1064) 
0.038699999999999998

>  <r_epik_Ionization_Penalty_Charging>  (1064) 
0.038300000000000001

>  <r_epik_Ionization_Penalty_Neutral>  (1064) 
0.00040000000000000002

>  <r_epik_State_Penalty>  (1064) 
0.038300000000000001

>  <r_i_docking_score>  (1064) 
-5.4071984731157698

>  <r_i_glide_ecoul>  (1064) 
-11.222599029541

>  <r_i_glide_eff_state_penalty>  (1064) 
0.038300000000000001

>  <r_i_glide_einternal>  (1064) 
9.6134843826293892

>  <r_i_glide_emodel>  (1064) 
-64.397565596103902

>  <r_i_glide_energy>  (1064) 
-46.3842582702637

>  <r_i_glide_erotb>  (1064) 
0.80310840242159398

>  <r_i_glide_esite>  (1064) 
-0.18599431183106399

>  <r_i_glide_evdw>  (1064) 
-35.161659240722699

>  <r_i_glide_gscore>  (1064) 
-5.4454984731157703

>  <r_i_glide_hbond>  (1064) 
-0.53176538777666604

>  <r_i_glide_ligand_efficiency>  (1064) 
-0.16385449918532599

>  <r_i_glide_ligand_efficiency_ln>  (1064) 
-1.20253294344562

>  <r_i_glide_ligand_efficiency_sa>  (1064) 
-0.52556893064865495

>  <r_i_glide_lipo>  (1064) 
-1.4810766219185401

>  <r_i_glide_metal>  (1064) 
-0

>  <r_i_glide_rewards>  (1064) 
-0.60829773754380201

>  <r_lp_Energy>  (1064) 
26.736001999999999

>  <r_qp_ACxDN^.5/SA>  (1064) 
0.014437999999999999

>  <r_qp_CIQPlogS>  (1064) 
-5.718

>  <r_qp_EA(eV)>  (1064) 
0.81699999999999995

>  <r_qp_FISA>  (1064) 
79.486999999999995

>  <r_qp_FOSA>  (1064) 
264.47800000000001

>  <r_qp_IP(eV)>  (1064) 
8.1579999999999995

>  <r_qp_Jm>  (1064) 
0.00357353199309084

>  <r_qp_PISA>  (1064) 
422.07799999999997

>  <r_qp_PSA>  (1064) 
69.207999999999998

>  <r_qp_PercentHumanOralAbsorption>  (1064) 
100

>  <r_qp_QPPCaco>  (1064) 
435.53699999999998

>  <r_qp_QPPMDCK>  (1064) 
358.65800000000002

>  <r_qp_QPlogBB>  (1064) 
-0.438

>  <r_qp_QPlogHERG>  (1064) 
-7.9630000000000001

>  <r_qp_QPlogKhsa>  (1064) 
0.68999999999999995

>  <r_qp_QPlogKp>  (1064) 
-2.6000000000000001

>  <r_qp_QPlogPC16>  (1064) 
15.872999999999999

>  <r_qp_QPlogPo/w>  (1064) 
4.8120000000000003

>  <r_qp_QPlogPoct>  (1064) 
24.498000000000001

>  <r_qp_QPlogPw>  (1064) 
13.866

>  <r_qp_QPlogS>  (1064) 
-5.4960000000000004

>  <r_qp_QPpolrz>  (1064) 
49.597000000000001

>  <r_qp_SASA>  (1064) 
803.76099999999997

>  <r_qp_SAamideO>  (1064) 
0

>  <r_qp_SAfluorine>  (1064) 
37.718000000000004

>  <r_qp_WPSA>  (1064) 
37.718000000000004

>  <r_qp_accptHB>  (1064) 
6.7000000000000002

>  <r_qp_dip^2/V>  (1064) 
0.0065643000000000003

>  <r_qp_dipole>  (1064) 
3.0880000000000001

>  <r_qp_donorHB>  (1064) 
3

>  <r_qp_glob>  (1064) 
0.77181200000000005

>  <r_qp_mol_MW>  (1064) 
445.53800000000001

>  <r_qp_volume>  (1064) 
1452.8150000000001

>  <r_sd_BIOSOLVEIT.INFINISEE\_FTREES\_SIMILARITY>  (1064) 
0.90600000000000003

>  <r_sd_BIOSOLVEIT.LOGP>  (1064) 
3.1299000000000001

>  <r_sd_BIOSOLVEIT.MOLECULAR\_WEIGHT>  (1064) 
446.54700000000003

>  <r_sd_BIOSOLVEIT.TPSA>  (1064) 
74.510000000000005

>  <i_epik_Tot_Q>  (1064) 
1

>  <i_epik_Tot_abs_Q>  (1064) 
1

>  <i_f3d_flags>  (1064) 
0

>  <i_i_glide_confnum>  (1064) 
2

>  <i_i_glide_lignum>  (1064) 
418

>  <i_i_glide_posenum>  (1064) 
6

>  <i_i_glide_rotatable_bonds>  (1064) 
10

>  <i_lp_mmshare_version>  (1064) 
65135

>  <i_m_ct_format>  (1064) 
2

>  <i_m_source_file_index>  (1064) 
1567

>  <i_qp_#NandO>  (1064) 
6

>  <i_qp_#acid>  (1064) 
0

>  <i_qp_#amide>  (1064) 
0

>  <i_qp_#amidine>  (1064) 
0

>  <i_qp_#amine>  (1064) 
1

>  <i_qp_#in34>  (1064) 
0

>  <i_qp_#in56>  (1064) 
22

>  <i_qp_#metab>  (1064) 
5

>  <i_qp_#nonHatm>  (1064) 
33

>  <i_qp_#noncon>  (1064) 
0

>  <i_qp_#ringatoms>  (1064) 
22

>  <i_qp_#rotor>  (1064) 
10

>  <i_qp_#rtvFG>  (1064) 
0

>  <i_qp_#stars>  (1064) 
0

>  <i_qp_CNS>  (1064) 
0

>  <i_qp_HumanOralAbsorption>  (1064) 
3

>  <i_qp_RuleOfFive>  (1064) 
0

>  <i_qp_RuleOfThree>  (1064) 
0

>  <i_sd_BIOSOLVEIT.INFINISEE\_REAGENT1\_NAME>  (1064) 
21905842

>  <i_sd_BIOSOLVEIT.INFINISEE\_REAGENT2\_NAME>  (1064) 
23157418

>  <i_sd_BIOSOLVEIT.INFINISEE\_REAGENT3\_NAME>  (1064) 
21973156

>  <i_sd_BIOSOLVEIT.INFINISEE\_RESULT\_RANK>  (1064) 
63490

>  <i_sd_version>  (1064) 
0

>  <b_lp_Chiralities_Consistent>  (1064) 
1

>  <b_sd_chiral_flag>  (1064) 
0

>  <canonical_id>  (1064) 
ATP-HTVS-A95E57B9EC2C

>  <compound_code>  (1064) 
50113

>  <title>  (1064) 
m_282030aaa____21905842____23157418____21973156

>  <variant>  (1064) 
50113-1

>  <source_file>  (1064) 
运行/运行/ATP-VSW/ATP-VSW-DOCK_HTVS_1-001_lib/ATP-VSW-DOCK_HTVS_1-001_lib

>  <canonical_smiles>  (1064) 
C[NH+](C)Cc1ccccc1CNc1nc2ccccc2nc1NCc1ccc(F)c(CO)c1

>  <scaffold>  (1064) 
c1ccc(CNc2nc3ccccc3nc2NCc2ccccc2)cc1

>  <molecular_formula>  (1064) 
C26H29FN5O+

$$$$
ATP-HTVS-A9E2ECE51DBC
     RDKit          3D

 56 59  0  0  0  0  0  0  0  0999 V2000
  199.2929  185.3315  153.1897 O   0  0  0  0  0  0  0  0  0  0  0  0
  198.7796  184.0482  153.4878 C   0  0  1  0  0  0  0  0  0  0  0  0
  199.8301  182.9937  153.1157 C   0  0  1  0  0  0  0  0  0  0  0  0
  199.3170  181.6485  153.3444 N   0  0  0  0  0  0  0  0  0  0  0  0
  198.3372  181.1126  152.4814 C   0  0  0  0  0  0  0  0  0  0  0  0
  197.3016  180.2789  152.9885 C   0  0  0  0  0  0  0  0  0  0  0  0
  196.3173  179.7568  152.1217 C   0  0  0  0  0  0  0  0  0  0  0  0
  196.3413  180.0665  150.7514 C   0  0  0  0  0  0  0  0  0  0  0  0
  197.3625  180.8844  150.2436 C   0  0  0  0  0  0  0  0  0  0  0  0
  198.3557  181.3909  151.0949 C   0  0  0  0  0  0  0  0  0  0  0  0
  197.1977  179.9561  154.4686 C   0  0  1  0  0  0  0  0  0  0  0  0
  197.0648  181.1828  155.2792 N   0  0  1  0  0  0  0  0  0  0  0  0
  197.3718  180.9420  156.6931 C   0  0  1  0  0  0  0  0  0  0  0  0
  198.2115  182.0380  157.2601 C   0  0  0  0  0  0  0  0  0  0  0  0
  199.5894  182.0099  157.0288 N   0  0  0  0  0  0  0  0  0  0  0  0
  200.1369  183.1213  157.7108 C   0  0  0  0  0  0  0  0  0  0  0  0
  199.1719  183.7837  158.3355 N   0  0  0  0  0  0  0  0  0  0  0  0
  197.9561  183.1369  158.0502 C   0  0  0  0  0  0  0  0  0  0  0  0
  196.6982  183.6632  158.6434 C   0  0  0  0  0  0  0  0  0  0  0  0
  195.4345  183.0625  158.4082 C   0  0  0  0  0  0  0  0  0  0  0  0
  194.2781  183.5594  158.9832 C   0  0  0  0  0  0  0  0  0  0  0  0
  194.2953  184.7012  159.8006 C   0  0  0  0  0  0  0  0  0  0  0  0
  195.5348  185.3632  160.0416 C   0  0  0  0  0  0  0  0  0  0  0  0
  196.7385  184.8279  159.4738 C   0  0  0  0  0  0  0  0  0  0  0  0
  201.5595  183.3094  157.6179 C   0  0  0  0  0  0  0  0  0  0  0  0
  202.3248  182.4325  156.8870 C   0  0  0  0  0  0  0  0  0  0  0  0
  201.7265  181.3246  156.2458 C   0  0  0  0  0  0  0  0  0  0  0  0
  200.3690  181.1233  156.3431 C   0  0  0  0  0  0  0  0  0  0  0  0
  198.3623  186.3562  153.4778 C   0  0  2  0  0  0  0  0  0  0  0  0
  197.6952  181.8718  154.9009 H   0  0  0  0  0  0  0  0  0  0  0  0
  198.5439  183.9848  154.5518 H   0  0  0  0  0  0  0  0  0  0  0  0
  197.8540  183.8833  152.9266 H   0  0  0  0  0  0  0  0  0  0  0  0
  200.1620  183.1329  152.0881 H   0  0  0  0  0  0  0  0  0  0  0  0
  200.7332  183.1212  153.7199 H   0  0  0  0  0  0  0  0  0  0  0  0
  199.3464  181.3664  154.3144 H   0  0  0  0  0  0  0  0  0  0  0  0
  195.5321  179.1241  152.5109 H   0  0  0  0  0  0  0  0  0  0  0  0
  195.5846  179.6759  150.0900 H   0  0  0  0  0  0  0  0  0  0  0  0
  197.4038  181.1397  149.1971 H   0  0  0  0  0  0  0  0  0  0  0  0
  199.1218  181.9971  150.6428 H   0  0  0  0  0  0  0  0  0  0  0  0
  196.3527  179.3081  154.7119 H   0  0  0  0  0  0  0  0  0  0  0  0
  198.0906  179.3962  154.7425 H   0  0  0  0  0  0  0  0  0  0  0  0
  196.3929  180.9143  157.1291 H   0  0  0  0  0  0  0  0  0  0  0  0
  197.8671  179.9724  156.8742 H   0  0  0  0  0  0  0  0  0  0  0  0
  195.2128  182.2297  157.7720 H   0  0  0  0  0  0  0  0  0  0  0  0
  193.3486  183.0569  158.7693 H   0  0  0  0  0  0  0  0  0  0  0  0
  193.3565  185.0969  160.2075 H   0  0  0  0  0  0  0  0  0  0  0  0
  195.5530  186.2791  160.6530 H   0  0  0  0  0  0  0  0  0  0  0  0
  197.6627  185.3802  159.6873 H   0  0  0  0  0  0  0  0  0  0  0  0
  202.0087  184.1612  158.1248 H   0  0  0  0  0  0  0  0  0  0  0  0
  203.3962  182.5782  156.8075 H   0  0  0  0  0  0  0  0  0  0  0  0
  202.3228  180.6196  155.6676 H   0  0  0  0  0  0  0  0  0  0  0  0
  199.8845  180.2620  155.9012 H   0  0  0  0  0  0  0  0  0  0  0  0
  198.7674  187.3204  153.1758 H   0  0  0  0  0  0  0  0  0  0  0  0
  198.1421  186.3947  154.5431 H   0  0  0  0  0  0  0  0  0  0  0  0
  197.4333  186.2038  152.9353 H   0  0  0  0  0  0  0  0  0  0  0  0
  196.1384  181.5772  155.1718 H   0  0  0  0  0  0  0  0  0  0  0  0
  1  2  1  0
  1 29  1  0
  2  3  1  0
  2 31  1  1
  2 32  1  0
  3  4  1  0
  3 33  1  6
  3 34  1  0
  4  5  1  0
  4 35  1  0
  5  6  1  0
  5 10  2  0
  6  7  2  0
  6 11  1  0
  7  8  1  0
  7 36  1  0
  8  9  2  0
  8 37  1  0
  9 10  1  0
  9 38  1  0
 10 39  1  0
 11 12  1  0
 11 40  1  6
 11 41  1  0
 12 13  1  0
 12 30  1  6
 12 56  1  0
 13 14  1  0
 13 42  1  1
 13 43  1  0
 14 15  1  0
 14 18  2  0
 15 16  1  0
 15 28  1  0
 16 17  2  0
 16 25  1  0
 17 18  1  0
 18 19  1  0
 19 20  2  0
 19 24  1  0
 20 21  1  0
 20 44  1  0
 21 22  2  0
 21 45  1  0
 22 23  1  0
 22 46  1  0
 23 24  2  0
 23 47  1  0
 24 48  1  0
 25 26  2  0
 25 49  1  0
 26 27  1  0
 26 50  1  0
 27 28  2  0
 27 51  1  0
 28 52  1  0
 29 53  1  6
 29 54  1  0
 29 55  1  0
M  CHG  1  12   1
M  END
>  <s_epik_cmdline>  (1065) 
J2VwaWtfcHl0aG9uJywgJy1waCcsICc3LjAwMDAwMCcsICctcGh0JywgJzIuMDAwMDAwJywgJy1tcycsICcxNicsICctdG4nLCAnOCcsICctbWEnLCAnMjAwJywgJy1pbWFlJywgJzxpbmZpbGUubWFlPicsICctb21hZScsICc8b3V0ZmlsZS5tYWU+Jw==

>  <s_epik_input>  (1065) 
W0NIM11PW0NIMl1bQ0gyXVtOSF1jMWMoW2NIXVtjSF1bY0hdW2NIXTEpW0NIMl1bTkhdW0NIMl1jMmMobmMobjIzKVtjSF1bY0hdW2NIXVtjSF0zKS1jNFtjSF1bY0hdW2NIXVtjSF1bY0hdNA==

>  <s_i_glide_gridfile>  (1065) 
ATP-Grid

>  <s_lp_Force_Field>  (1065) 
OPLS_2005

>  <s_lp_Variant>  (1065) 
m_270004bbb____25289960____24720750-1

>  <s_lp_label>  (1065) 
1499_sdstereoexpander_1_neutralizer_1_epik_1_stereoizer_1

>  <s_m_source_file>  (1065) 
ATP-VSW-LIGPREP-001-in.maegz

>  <s_sd_BIOSOLVEIT.INFINISEE\_QUERY\_NAME>  (1065) 
Ref-Lig

>  <s_sd_BIOSOLVEIT.INFINISEE\_QUERY\_SMILES>  (1065) 
S(c1nc2c(cc1C[NH2+]Cc3ccc(cc3)C[NH+](C)C)cccc2)Cc4ccccc4

>  <s_sd_BIOSOLVEIT.INFINISEE\_REACTION\_NAME>  (1065) 
m_270004bbb

>  <s_sd_BIOSOLVEIT.INFINISEE\_REAGENT1\_SMILES>  (1065) 
[R1*]NCc1c(NCCOC)cccc1

>  <s_sd_BIOSOLVEIT.INFINISEE\_REAGENT2\_SMILES>  (1065) 
[R1*]CC=1N2C(=NC1c3ccccc3)C=CC=C2

>  <s_sd_BIOSOLVEIT.INFINISEE\_SPACE>  (1065) 
REALSpace_44bn_2023-08

>  <s_vsw_compound_code>  (1065) 
47937

>  <s_vsw_variant>  (1065) 
47937-1

>  <r_epik_Charging_Adjusted_Penalty>  (1065) 
0.57808952727817198

>  <r_epik_Ionization_Penalty>  (1065) 
0.2651

>  <r_epik_Ionization_Penalty_Charging>  (1065) 
0.2651

>  <r_epik_Ionization_Penalty_Neutral>  (1065) 
0

>  <r_epik_State_Penalty>  (1065) 
0.313

>  <r_i_docking_score>  (1065) 
-3.7644766013358599

>  <r_i_glide_ecoul>  (1065) 
-8.0456047058105504

>  <r_i_glide_eff_state_penalty>  (1065) 
0.313

>  <r_i_glide_einternal>  (1065) 
4.6614685058593803

>  <r_i_glide_emodel>  (1065) 
-46.501095675918698

>  <r_i_glide_energy>  (1065) 
-35.487218856811502

>  <r_i_glide_erotb>  (1065) 
1.0375642870948201

>  <r_i_glide_esite>  (1065) 
-0.056781128828515902

>  <r_i_glide_evdw>  (1065) 
-27.441614151001001

>  <r_i_glide_gscore>  (1065) 
-4.0774766013358601

>  <r_i_glide_hbond>  (1065) 
0

>  <r_i_glide_ligand_efficiency>  (1065) 
-0.12980953797709899

>  <r_i_glide_ligand_efficiency_ln>  (1065) 
-0.86196968281572095

>  <r_i_glide_ligand_efficiency_sa>  (1065) 
-0.39881602721390302

>  <r_i_glide_lipo>  (1065) 
-1.4872750279987199

>  <r_i_glide_metal>  (1065) 
-0

>  <r_i_glide_rewards>  (1065) 
-0.99206331818181703

>  <r_lp_Energy>  (1065) 
21.794402999999999

>  <r_qp_ACxDN^.5/SA>  (1065) 
0.011758299999999999

>  <r_qp_CIQPlogS>  (1065) 
-4.9470000000000001

>  <r_qp_EA(eV)>  (1065) 
0.72699999999999998

>  <r_qp_FISA>  (1065) 
31.655999999999999

>  <r_qp_FOSA>  (1065) 
157.30600000000001

>  <r_qp_IP(eV)>  (1065) 
8.1989999999999998

>  <r_qp_Jm>  (1065) 
0.73241979822970504

>  <r_qp_PISA>  (1065) 
496.59800000000001

>  <r_qp_PSA>  (1065) 
47.042000000000002

>  <r_qp_PercentHumanOralAbsorption>  (1065) 
100

>  <r_qp_QPPCaco>  (1065) 
1237.673

>  <r_qp_QPPMDCK>  (1065) 
689.16899999999998

>  <r_qp_QPlogBB>  (1065) 
0.17100000000000001

>  <r_qp_QPlogHERG>  (1065) 
-7.4409999999999998

>  <r_qp_QPlogKhsa>  (1065) 
0.57299999999999995

>  <r_qp_QPlogKp>  (1065) 
-1.6479999999999999

>  <r_qp_QPlogPC16>  (1065) 
14.164

>  <r_qp_QPlogPo/w>  (1065) 
4.5430000000000001

>  <r_qp_QPlogPoct>  (1065) 
20.73

>  <r_qp_QPlogPw>  (1065) 
11.741

>  <r_qp_QPlogS>  (1065) 
-4.0739999999999998

>  <r_qp_QPpolrz>  (1065) 
44.164000000000001

>  <r_qp_SASA>  (1065) 
685.56100000000004

>  <r_qp_SAamideO>  (1065) 
0

>  <r_qp_SAfluorine>  (1065) 
0

>  <r_qp_WPSA>  (1065) 
0

>  <r_qp_accptHB>  (1065) 
5.7000000000000002

>  <r_qp_dip^2/V>  (1065) 
0.019654499999999998

>  <r_qp_dipole>  (1065) 
4.9909999999999997

>  <r_qp_donorHB>  (1065) 
2

>  <r_qp_glob>  (1065) 
0.82605799999999996

>  <r_qp_mol_MW>  (1065) 
386.49599999999998

>  <r_qp_volume>  (1065) 
1267.1759999999999

>  <r_sd_BIOSOLVEIT.INFINISEE\_FTREES\_SIMILARITY>  (1065) 
0.90700000000000003

>  <r_sd_BIOSOLVEIT.LOGP>  (1065) 
3.3231999999999999

>  <r_sd_BIOSOLVEIT.MOLECULAR\_WEIGHT>  (1065) 
387.50400000000002

>  <r_sd_BIOSOLVEIT.TPSA>  (1065) 
55.689999999999998

>  <i_epik_Tot_Q>  (1065) 
1

>  <i_epik_Tot_abs_Q>  (1065) 
1

>  <i_f3d_flags>  (1065) 
0

>  <i_i_glide_confnum>  (1065) 
7

>  <i_i_glide_lignum>  (1065) 
386

>  <i_i_glide_posenum>  (1065) 
4

>  <i_i_glide_rotatable_bonds>  (1065) 
9

>  <i_lp_mmshare_version>  (1065) 
65135

>  <i_m_ct_format>  (1065) 
2

>  <i_m_source_file_index>  (1065) 
1499

>  <i_qp_#NandO>  (1065) 
5

>  <i_qp_#acid>  (1065) 
0

>  <i_qp_#amide>  (1065) 
0

>  <i_qp_#amidine>  (1065) 
0

>  <i_qp_#amine>  (1065) 
1

>  <i_qp_#in34>  (1065) 
0

>  <i_qp_#in56>  (1065) 
21

>  <i_qp_#metab>  (1065) 
7

>  <i_qp_#nonHatm>  (1065) 
29

>  <i_qp_#noncon>  (1065) 
0

>  <i_qp_#ringatoms>  (1065) 
21

>  <i_qp_#rotor>  (1065) 
8

>  <i_qp_#rtvFG>  (1065) 
0

>  <i_qp_#stars>  (1065) 
1

>  <i_qp_CNS>  (1065) 
1

>  <i_qp_HumanOralAbsorption>  (1065) 
3

>  <i_qp_RuleOfFive>  (1065) 
0

>  <i_qp_RuleOfThree>  (1065) 
1

>  <i_sd_BIOSOLVEIT.INFINISEE\_REAGENT1\_NAME>  (1065) 
25289960

>  <i_sd_BIOSOLVEIT.INFINISEE\_REAGENT2\_NAME>  (1065) 
24720750

>  <i_sd_BIOSOLVEIT.INFINISEE\_RESULT\_RANK>  (1065) 
59302

>  <i_sd_version>  (1065) 
0

>  <b_lp_Chiralities_Consistent>  (1065) 
1

>  <b_sd_chiral_flag>  (1065) 
0

>  <canonical_id>  (1065) 
ATP-HTVS-A9E2ECE51DBC

>  <compound_code>  (1065) 
47937

>  <title>  (1065) 
m_270004bbb____25289960____24720750

>  <variant>  (1065) 
47937-1

>  <source_file>  (1065) 
运行/运行/ATP-VSW/ATP-VSW-DOCK_HTVS_1-001_lib/ATP-VSW-DOCK_HTVS_1-001_lib

>  <canonical_smiles>  (1065) 
COCCNc1ccccc1C[NH2+]Cc1c(-c2ccccc2)nc2ccccn12

>  <scaffold>  (1065) 
c1ccc(C[NH2+]Cc2c(-c3ccccc3)nc3ccccn23)cc1

>  <molecular_formula>  (1065) 
C24H27N4O+

$$$$
ATP-HTVS-AAAC0953A4ED
     RDKit          3D

 45 48  0  0  0  0  0  0  0  0999 V2000
  197.0759  182.4295  157.2383 Br  0  0  0  0  0  0  0  0  0  0  0  0
  196.1057  183.5433  158.4370 C   0  0  0  0  0  0  0  0  0  0  0  0
  196.7551  184.5378  159.2173 C   0  0  0  0  0  0  0  0  0  0  0  0
  195.9841  185.3360  160.0858 C   0  0  0  0  0  0  0  0  0  0  0  0
  194.5902  185.2063  160.1367 C   0  0  0  0  0  0  0  0  0  0  0  0
  193.6906  186.2496  161.1803 Cl  0  0  0  0  0  0  0  0  0  0  0  0
  193.9480  184.2238  159.3696 C   0  0  0  0  0  0  0  0  0  0  0  0
  194.7064  183.3811  158.5365 C   0  0  0  0  0  0  0  0  0  0  0  0
  198.2616  184.7780  159.1418 C   0  0  1  0  0  0  0  0  0  0  0  0
  198.6526  185.8545  158.2226 N   0  0  0  0  0  0  0  0  0  0  0  0
  200.1030  185.8911  157.9577 C   0  0  2  0  0  0  0  0  0  0  0  0
  200.8494  186.5213  159.1517 C   0  0  0  0  0  0  0  0  0  0  0  0
  200.7518  187.9199  159.4097 C   0  0  0  0  0  0  0  0  0  0  0  0
  199.9093  188.7809  158.6537 N   0  0  0  0  0  0  0  0  0  0  0  0
  198.6813  188.4883  158.1958 C   0  0  0  0  0  0  0  0  0  0  0  0
  198.0974  189.2132  157.3918 O   0  0  0  0  0  0  0  0  0  0  0  0
  198.0446  187.1635  158.6410 C   0  0  1  0  0  0  0  0  0  0  0  0
  201.5679  188.5123  160.3900 C   0  0  0  0  0  0  0  0  0  0  0  0
  202.4205  187.7203  161.1751 C   0  0  0  0  0  0  0  0  0  0  0  0
  202.4723  186.3289  160.9723 C   0  0  0  0  0  0  0  0  0  0  0  0
  201.7049  185.7352  159.9528 C   0  0  0  0  0  0  0  0  0  0  0  0
  200.4942  186.4845  156.5734 C   0  0  0  0  0  0  0  0  0  0  0  0
  201.7476  187.1174  156.3887 C   0  0  0  0  0  0  0  0  0  0  0  0
  202.0012  187.8633  155.2243 C   0  0  0  0  0  0  0  0  0  0  0  0
  201.0227  187.9692  154.2213 C   0  0  0  0  0  0  0  0  0  0  0  0
  199.7883  187.3200  154.3832 C   0  0  0  0  0  0  0  0  0  0  0  0
  199.5298  186.5726  155.5429 C   0  0  0  0  0  0  0  0  0  0  0  0
  196.4465  186.0942  160.6986 H   0  0  0  0  0  0  0  0  0  0  0  0
  192.8722  184.1106  159.4240 H   0  0  0  0  0  0  0  0  0  0  0  0
  194.2104  182.6289  157.9365 H   0  0  0  0  0  0  0  0  0  0  0  0
  198.6557  184.9987  160.1253 H   0  0  0  0  0  0  0  0  0  0  0  0
  198.7367  183.8344  158.8640 H   0  0  0  0  0  0  0  0  0  0  0  0
  200.4485  184.8522  157.8833 H   0  0  0  0  0  0  0  0  0  0  0  0
  200.2953  189.6643  158.3707 H   0  0  0  0  0  0  0  0  0  0  0  0
  197.0031  187.1848  158.3231 H   0  0  0  0  0  0  0  0  0  0  0  0
  198.0583  187.2464  159.7311 H   0  0  0  0  0  0  0  0  0  0  0  0
  201.5341  189.5832  160.5436 H   0  0  0  0  0  0  0  0  0  0  0  0
  203.0290  188.1810  161.9308 H   0  0  0  0  0  0  0  0  0  0  0  0
  203.1215  185.7198  161.5845 H   0  0  0  0  0  0  0  0  0  0  0  0
  201.7827  184.6723  159.7894 H   0  0  0  0  0  0  0  0  0  0  0  0
  202.4974  187.1115  157.1694 H   0  0  0  0  0  0  0  0  0  0  0  0
  202.9265  188.4138  155.1468 H   0  0  0  0  0  0  0  0  0  0  0  0
  201.2027  188.5798  153.3538 H   0  0  0  0  0  0  0  0  0  0  0  0
  198.9973  187.4471  153.6606 H   0  0  0  0  0  0  0  0  0  0  0  0
  198.5419  186.1449  155.6607 H   0  0  0  0  0  0  0  0  0  0  0  0
  1  2  1  0
  2  3  2  0
  2  8  1  0
  3  4  1  0
  3  9  1  0
  4  5  2  0
  4 28  1  0
  5  6  1  0
  5  7  1  0
  7  8  2  0
  7 29  1  0
  8 30  1  0
  9 10  1  0
  9 31  1  1
  9 32  1  0
 10 11  1  0
 10 17  1  0
 11 12  1  0
 11 22  1  0
 11 33  1  6
 12 13  1  0
 12 21  2  0
 13 14  1  0
 13 18  2  0
 14 15  1  0
 14 34  1  0
 15 16  2  0
 15 17  1  0
 17 35  1  6
 17 36  1  0
 18 19  1  0
 18 37  1  0
 19 20  2  0
 19 38  1  0
 20 21  1  0
 20 39  1  0
 21 40  1  0
 22 23  2  0
 22 27  1  0
 23 24  1  0
 23 41  1  0
 24 25  2  0
 24 42  1  0
 25 26  1  0
 25 43  1  0
 26 27  2  0
 26 44  1  0
 27 45  1  0
M  END
>  <s_epik_cmdline>  (1066) 
J2VwaWtfcHl0aG9uJywgJy1waCcsICc3LjAwMDAwMCcsICctcGh0JywgJzIuMDAwMDAwJywgJy1tcycsICcxNicsICctdG4nLCAnOCcsICctbWEnLCAnMjAwJywgJy1pbWFlJywgJzxpbmZpbGUubWFlPicsICctb21hZScsICc8b3V0ZmlsZS5tYWU+Jw==

>  <s_epik_input>  (1066) 
W2NIXTFbY0hdW2NIXVtjSF1bY0hdYzFbQ0BASF0yTihbQ0gyXWMoYzNCcilbY0hdYyhDbClbY0hdW2NIXTMpW0NIMl1DKD1PKVtOSF1jKGMyNClbY0hdW2NIXVtjSF1bY0hdNA==

>  <s_i_glide_gridfile>  (1066) 
ATP-Grid

>  <s_lp_Force_Field>  (1066) 
OPLS_2005

>  <s_lp_Variant>  (1066) 
m_2230bdc____17849930____10391580-2

>  <s_lp_label>  (1066) 
987_sdstereoexpander_3_neutralizer_1_epik_1_stereoizer_1

>  <s_m_source_file>  (1066) 
ATP-VSW-LIGPREP-003-in.maegz

>  <s_sd_BIOSOLVEIT.INFINISEE\_QUERY\_NAME>  (1066) 
Ref-Lig

>  <s_sd_BIOSOLVEIT.INFINISEE\_QUERY\_SMILES>  (1066) 
S(c1nc2c(cc1C[NH2+]Cc3ccc(cc3)C[NH+](C)C)cccc2)Cc4ccccc4

>  <s_sd_BIOSOLVEIT.INFINISEE\_REACTION\_NAME>  (1066) 
m_2230bdc

>  <s_sd_BIOSOLVEIT.INFINISEE\_REAGENT1\_SMILES>  (1066) 
[R1*]N1C(c2c(NC(=O)C1)cccc2)c3ccccc3

>  <s_sd_BIOSOLVEIT.INFINISEE\_REAGENT2\_SMILES>  (1066) 
[R1*]Cc1c(Br)ccc(Cl)c1

>  <s_sd_BIOSOLVEIT.INFINISEE\_SPACE>  (1066) 
REALSpace_44bn_2023-08

>  <s_vsw_compound_code>  (1066) 
31555

>  <s_vsw_variant>  (1066) 
31555-2

>  <r_epik_Charging_Adjusted_Penalty>  (1066) 
0.0087634984339075902

>  <r_epik_Ionization_Penalty>  (1066) 
0.0088000000000000005

>  <r_epik_Ionization_Penalty_Charging>  (1066) 
0

>  <r_epik_Ionization_Penalty_Neutral>  (1066) 
0.0088000000000000005

>  <r_epik_State_Penalty>  (1066) 
0.0088000000000000005

>  <r_i_docking_score>  (1066) 
-0.58856307459601798

>  <r_i_glide_ecoul>  (1066) 
-0.366020977497101

>  <r_i_glide_eff_state_penalty>  (1066) 
0.0088000000000000005

>  <r_i_glide_einternal>  (1066) 
2.6080226898193399

>  <r_i_glide_emodel>  (1066) 
-28.454154821468201

>  <r_i_glide_energy>  (1066) 
-28.6863830685616

>  <r_i_glide_erotb>  (1066) 
0.30712541175046898

>  <r_i_glide_esite>  (1066) 
-0.0077101573843289398

>  <r_i_glide_evdw>  (1066) 
-28.320362091064499

>  <r_i_glide_gscore>  (1066) 
-0.59736307459601801

>  <r_i_glide_hbond>  (1066) 
0

>  <r_i_glide_ligand_efficiency>  (1066) 
-0.021798632392445099

>  <r_i_glide_ligand_efficiency_ln>  (1066) 
-0.13700778054532001

>  <r_i_glide_ligand_efficiency_sa>  (1066) 
-0.065395897105490597

>  <r_i_glide_lipo>  (1066) 
-0.99295753376232199

>  <r_i_glide_metal>  (1066) 
-0

>  <r_i_glide_rewards>  (1066) 
1.56710045597795

>  <r_lp_Energy>  (1066) 
51.200169000000002

>  <r_qp_ACxDN^.5/SA>  (1066) 
0.0071249

>  <r_qp_CIQPlogS>  (1066) 
-6.3120000000000003

>  <r_qp_EA(eV)>  (1066) 
0.54200000000000004

>  <r_qp_FISA>  (1066) 
61.378

>  <r_qp_FOSA>  (1066) 
31.609999999999999

>  <r_qp_IP(eV)>  (1066) 
9.4710000000000001

>  <r_qp_Jm>  (1066) 
0.0026140653011969498

>  <r_qp_PISA>  (1066) 
410.601

>  <r_qp_PSA>  (1066) 
41.107999999999997

>  <r_qp_PercentHumanOralAbsorption>  (1066) 
100

>  <r_qp_QPPCaco>  (1066) 
646.76700000000005

>  <r_qp_QPPMDCK>  (1066) 
1717.26

>  <r_qp_QPlogBB>  (1066) 
0.57799999999999996

>  <r_qp_QPlogHERG>  (1066) 
-6.7770000000000001

>  <r_qp_QPlogKhsa>  (1066) 
0.80000000000000004

>  <r_qp_QPlogKp>  (1066) 
-3.0750000000000002

>  <r_qp_QPlogPC16>  (1066) 
13.387

>  <r_qp_QPlogPo/w>  (1066) 
4.657

>  <r_qp_QPlogPoct>  (1066) 
18.885000000000002

>  <r_qp_QPlogPw>  (1066) 
9.9499999999999993

>  <r_qp_QPlogS>  (1066) 
-5.1529999999999996

>  <r_qp_QPpolrz>  (1066) 
42.609999999999999

>  <r_qp_SASA>  (1066) 
631.58600000000001

>  <r_qp_SAamideO>  (1066) 
0

>  <r_qp_SAfluorine>  (1066) 
0

>  <r_qp_WPSA>  (1066) 
127.997

>  <r_qp_accptHB>  (1066) 
4.5

>  <r_qp_dip^2/V>  (1066) 
0.0149724

>  <r_qp_dipole>  (1066) 
4.1539999999999999

>  <r_qp_donorHB>  (1066) 
1

>  <r_qp_glob>  (1066) 
0.8417502

>  <r_qp_mol_MW>  (1066) 
441.75400000000002

>  <r_qp_volume>  (1066) 
1152.5930000000001

>  <r_sd_BIOSOLVEIT.INFINISEE\_FTREES\_SIMILARITY>  (1066) 
0.91600000000000004

>  <r_sd_BIOSOLVEIT.LOGP>  (1066) 
4.2290999999999999

>  <r_sd_BIOSOLVEIT.MOLECULAR\_WEIGHT>  (1066) 
442.762

>  <r_sd_BIOSOLVEIT.TPSA>  (1066) 
33.539999999999999

>  <i_epik_Tot_Q>  (1066) 
0

>  <i_epik_Tot_abs_Q>  (1066) 
0

>  <i_f3d_flags>  (1066) 
0

>  <i_i_glide_confnum>  (1066) 
4

>  <i_i_glide_lignum>  (1066) 
367

>  <i_i_glide_posenum>  (1066) 
1

>  <i_i_glide_rotatable_bonds>  (1066) 
3

>  <i_lp_mmshare_version>  (1066) 
65135

>  <i_m_ct_format>  (1066) 
2

>  <i_m_source_file_index>  (1066) 
987

>  <i_qp_#NandO>  (1066) 
3

>  <i_qp_#acid>  (1066) 
0

>  <i_qp_#amide>  (1066) 
0

>  <i_qp_#amidine>  (1066) 
0

>  <i_qp_#amine>  (1066) 
1

>  <i_qp_#in34>  (1066) 
0

>  <i_qp_#in56>  (1066) 
18

>  <i_qp_#metab>  (1066) 
7

>  <i_qp_#nonHatm>  (1066) 
27

>  <i_qp_#noncon>  (1066) 
2

>  <i_qp_#ringatoms>  (1066) 
23

>  <i_qp_#rotor>  (1066) 
2

>  <i_qp_#rtvFG>  (1066) 
0

>  <i_qp_#stars>  (1066) 
0

>  <i_qp_CNS>  (1066) 
2

>  <i_qp_HumanOralAbsorption>  (1066) 
3

>  <i_qp_RuleOfFive>  (1066) 
0

>  <i_qp_RuleOfThree>  (1066) 
1

>  <i_sd_BIOSOLVEIT.INFINISEE\_REAGENT1\_NAME>  (1066) 
17849930

>  <i_sd_BIOSOLVEIT.INFINISEE\_REAGENT2\_NAME>  (1066) 
10391580

>  <i_sd_BIOSOLVEIT.INFINISEE\_RESULT\_RANK>  (1066) 
25051

>  <i_sd_version>  (1066) 
0

>  <b_lp_Chiralities_Consistent>  (1066) 
1

>  <b_sd_chiral_flag>  (1066) 
0

>  <canonical_id>  (1066) 
ATP-HTVS-AAAC0953A4ED

>  <compound_code>  (1066) 
31555

>  <title>  (1066) 
m_2230bdc____17849930____10391580

>  <variant>  (1066) 
31555-2

>  <source_file>  (1066) 
运行/运行/ATP-VSW/ATP-VSW-DOCK_HTVS_1-003_lib/ATP-VSW-DOCK_HTVS_1-003_lib.mae

>  <canonical_smiles>  (1066) 
O=C1CN(Cc2cc(Cl)ccc2Br)[C@@H](c2ccccc2)c2ccccc2N1

>  <scaffold>  (1066) 
O=C1CN(Cc2ccccc2)C(c2ccccc2)c2ccccc2N1

>  <molecular_formula>  (1066) 
C22H18BrClN2O

$$$$
ATP-HTVS-AACA343AA4DE
     RDKit          3D

 68 71  0  0  0  0  0  0  0  0999 V2000
  204.1200  177.7513  153.6705 F   0  0  0  0  0  0  0  0  0  0  0  0
  203.9749  176.4327  153.9490 C   0  0  0  0  0  0  0  0  0  0  0  0
  202.7231  175.9093  154.3362 C   0  0  0  0  0  0  0  0  0  0  0  0
  202.6220  174.5260  154.6267 C   0  0  0  0  0  0  0  0  0  0  0  0
  203.7531  173.6862  154.5215 C   0  0  0  0  0  0  0  0  0  0  0  0
  204.9937  174.2182  154.1353 C   0  0  0  0  0  0  0  0  0  0  0  0
  205.1059  175.5920  153.8455 C   0  0  0  0  0  0  0  0  0  0  0  0
  201.5090  176.8248  154.4854 C   0  0  1  0  0  0  0  0  0  0  0  0
  200.3310  176.3361  153.7779 N   0  0  0  0  0  0  0  0  0  0  0  0
  199.9633  176.8742  152.5286 C   0  0  0  0  0  0  0  0  0  0  0  0
  199.9368  176.0060  151.4902 N   0  0  0  0  0  0  0  0  0  0  0  0
  199.5273  176.4674  150.2791 C   0  0  0  0  0  0  0  0  0  0  0  0
  199.1036  177.8193  150.1397 C   0  0  0  0  0  0  0  0  0  0  0  0
  199.1155  178.6775  151.1702 N   0  0  0  0  0  0  0  0  0  0  0  0
  199.5298  178.2222  152.3613 C   0  0  0  0  0  0  0  0  0  0  0  0
  199.4959  179.1116  153.4336 N   0  0  0  0  0  0  0  0  0  0  0  0
  198.3728  180.0417  153.5428 C   0  0  1  0  0  0  0  0  0  0  0  0
  198.5480  180.9956  154.7060 C   0  0  0  0  0  0  0  0  0  0  0  0
  197.7462  180.8991  155.8639 C   0  0  0  0  0  0  0  0  0  0  0  0
  197.9252  181.8055  156.9353 C   0  0  0  0  0  0  0  0  0  0  0  0
  198.9219  182.8030  156.8539 C   0  0  0  0  0  0  0  0  0  0  0  0
  199.7404  182.8815  155.7109 C   0  0  0  0  0  0  0  0  0  0  0  0
  199.5570  181.9749  154.6499 C   0  0  0  0  0  0  0  0  0  0  0  0
  197.0753  181.6707  158.1916 C   0  0  1  0  0  0  0  0  0  0  0  0
  195.6650  182.0679  157.9586 N   0  0  1  0  0  0  0  0  0  0  0  0
  194.7293  181.5124  158.9572 C   0  0  1  0  0  0  0  0  0  0  0  0
  193.4005  181.0830  158.3289 C   0  0  2  0  0  0  0  0  0  0  0  0
  195.5093  183.5340  157.8424 C   0  0  2  0  0  0  0  0  0  0  0  0
  198.6607  178.2950  148.8862 C   0  0  0  0  0  0  0  0  0  0  0  0
  198.6464  177.4618  147.7649 C   0  0  0  0  0  0  0  0  0  0  0  0
  199.0758  176.1315  147.8912 C   0  0  0  0  0  0  0  0  0  0  0  0
  199.5151  175.6444  149.1476 C   0  0  0  0  0  0  0  0  0  0  0  0
  201.2154  177.0531  155.9930 C   0  0  1  0  0  0  0  0  0  0  0  0
  200.1965  178.1630  156.2998 C   0  0  1  0  0  0  0  0  0  0  0  0
  199.9650  178.3095  157.6785 O   0  0  0  0  0  0  0  0  0  0  0  0
  201.6831  174.0966  154.9404 H   0  0  0  0  0  0  0  0  0  0  0  0
  203.6641  172.6261  154.7350 H   0  0  0  0  0  0  0  0  0  0  0  0
  205.8557  173.5742  154.0485 H   0  0  0  0  0  0  0  0  0  0  0  0
  206.0606  176.0033  153.5422 H   0  0  0  0  0  0  0  0  0  0  0  0
  201.7956  177.7735  154.0329 H   0  0  0  0  0  0  0  0  0  0  0  0
  200.2559  175.3305  153.8381 H   0  0  0  0  0  0  0  0  0  0  0  0
  199.7075  178.6253  154.2734 H   0  0  0  0  0  0  0  0  0  0  0  0
  198.2315  180.6702  152.6503 H   0  0  0  0  0  0  0  0  0  0  0  0
  197.4379  179.4958  153.6650 H   0  0  0  0  0  0  0  0  0  0  0  0
  196.9950  180.1257  155.9525 H   0  0  0  0  0  0  0  0  0  0  0  0
  199.0757  183.4983  157.6693 H   0  0  0  0  0  0  0  0  0  0  0  0
  200.5073  183.6397  155.6541 H   0  0  0  0  0  0  0  0  0  0  0  0
  200.1930  182.0377  153.7831 H   0  0  0  0  0  0  0  0  0  0  0  0
  197.1510  180.6385  158.4856 H   0  0  0  0  0  0  0  0  0  0  0  0
  197.4923  182.2579  159.0152 H   0  0  0  0  0  0  0  0  0  0  0  0
  195.1502  180.6375  159.4536 H   0  0  0  0  0  0  0  0  0  0  0  0
  194.5741  182.2610  159.7314 H   0  0  0  0  0  0  0  0  0  0  0  0
  192.7242  180.6920  159.0882 H   0  0  0  0  0  0  0  0  0  0  0  0
  193.5586  180.2799  157.6171 H   0  0  0  0  0  0  0  0  0  0  0  0
  192.9028  181.9003  157.8060 H   0  0  0  0  0  0  0  0  0  0  0  0
  195.8620  184.0454  158.7340 H   0  0  0  0  0  0  0  0  0  0  0  0
  194.4626  183.8026  157.7318 H   0  0  0  0  0  0  0  0  0  0  0  0
  196.0776  183.9064  156.9952 H   0  0  0  0  0  0  0  0  0  0  0  0
  198.3488  179.3303  148.8134 H   0  0  0  0  0  0  0  0  0  0  0  0
  198.3072  177.8457  146.8155 H   0  0  0  0  0  0  0  0  0  0  0  0
  199.0770  175.4848  147.0266 H   0  0  0  0  0  0  0  0  0  0  0  0
  199.8661  174.6292  149.2296 H   0  0  0  0  0  0  0  0  0  0  0  0
  200.9012  176.1170  156.4682 H   0  0  0  0  0  0  0  0  0  0  0  0
  202.1476  177.3499  156.4752 H   0  0  0  0  0  0  0  0  0  0  0  0
  200.5582  179.1090  155.8981 H   0  0  0  0  0  0  0  0  0  0  0  0
  199.2286  177.9273  155.8695 H   0  0  0  0  0  0  0  0  0  0  0  0
  199.0170  178.2345  157.8037 H   0  0  0  0  0  0  0  0  0  0  0  0
  195.3988  181.6377  157.0826 H   0  0  0  0  0  0  0  0  0  0  0  0
  1  2  1  0
  2  3  1  0
  2  7  2  0
  3  4  2  0
  3  8  1  0
  4  5  1  0
  4 36  1  0
  5  6  2  0
  5 37  1  0
  6  7  1  0
  6 38  1  0
  7 39  1  0
  8  9  1  0
  8 33  1  0
  8 40  1  6
  9 10  1  0
  9 41  1  0
 10 11  2  0
 10 15  1  0
 11 12  1  0
 12 13  1  0
 12 32  2  0
 13 14  1  0
 13 29  2  0
 14 15  2  0
 15 16  1  0
 16 17  1  0
 16 42  1  0
 17 18  1  0
 17 43  1  6
 17 44  1  0
 18 19  2  0
 18 23  1  0
 19 20  1  0
 19 45  1  0
 20 21  2  0
 20 24  1  0
 21 22  1  0
 21 46  1  0
 22 23  2  0
 22 47  1  0
 23 48  1  0
 24 25  1  0
 24 49  1  1
 24 50  1  0
 25 26  1  0
 25 28  1  0
 25 68  1  6
 26 27  1  0
 26 51  1  1
 26 52  1  0
 27 53  1  1
 27 54  1  0
 27 55  1  0
 28 56  1  1
 28 57  1  0
 28 58  1  0
 29 30  1  0
 29 59  1  0
 30 31  2  0
 30 60  1  0
 31 32  1  0
 31 61  1  0
 32 62  1  0
 33 34  1  0
 33 63  1  1
 33 64  1  0
 34 35  1  0
 34 65  1  6
 34 66  1  0
 35 67  1  0
M  CHG  1  25   1
M  END
>  <s_epik_cmdline>  (1067) 
J2VwaWtfcHl0aG9uJywgJy1waCcsICc3LjAwMDAwMCcsICctcGh0JywgJzIuMDAwMDAwJywgJy1tcycsICcxNicsICctdG4nLCAnOCcsICctbWEnLCAnMjAwJywgJy1pbWFlJywgJzxpbmZpbGUubWFlPicsICctb21hZScsICc8b3V0ZmlsZS5tYWU+Jw==

>  <s_epik_input>  (1067) 
W2NIXTFbY0hdW2NIXVtjSF1jKGMxRilbQ0BIXShbQ0gyXVtDSDJdW09IXSlbTkhdYyhuMiljKG5jKGMyMylbY0hdW2NIXVtjSF1bY0hdMylbTkhdW0NIMl1jNFtjSF1jKFtjSF1bY0hdW2NIXTQpW0NIMl1OKFtDSDNdKVtDSDJdW0NIM10=

>  <s_i_glide_gridfile>  (1067) 
ATP-Grid

>  <s_lp_Force_Field>  (1067) 
OPLS_2005

>  <s_lp_Variant>  (1067) 
m_282030aaa____21906080____23157418____21950844-3

>  <s_lp_label>  (1067) 
1636_sdstereoexpander_2_neutralizer_1_epik_1_stereoizer_1

>  <s_m_source_file>  (1067) 
ATP-VSW-LIGPREP-001-in.maegz

>  <s_sd_BIOSOLVEIT.INFINISEE\_QUERY\_NAME>  (1067) 
Ref-Lig

>  <s_sd_BIOSOLVEIT.INFINISEE\_QUERY\_SMILES>  (1067) 
S(c1nc2c(cc1C[NH2+]Cc3ccc(cc3)C[NH+](C)C)cccc2)Cc4ccccc4

>  <s_sd_BIOSOLVEIT.INFINISEE\_REACTION\_NAME>  (1067) 
m_282030aaa

>  <s_sd_BIOSOLVEIT.INFINISEE\_REAGENT1\_SMILES>  (1067) 
[R1*]NC(c1c(F)cccc1)CCO

>  <s_sd_BIOSOLVEIT.INFINISEE\_REAGENT2\_SMILES>  (1067) 
[R1*]c1nc2c(nc1[R2*])cccc2

>  <s_sd_BIOSOLVEIT.INFINISEE\_REAGENT3\_SMILES>  (1067) 
[R2*]NCc1cc(ccc1)CN(CC)C

>  <s_sd_BIOSOLVEIT.INFINISEE\_SPACE>  (1067) 
REALSpace_44bn_2023-08

>  <s_vsw_compound_code>  (1067) 
52321

>  <s_vsw_variant>  (1067) 
52321-3

>  <r_epik_Charging_Adjusted_Penalty>  (1067) 
0.0564066539916546

>  <r_epik_Ionization_Penalty>  (1067) 
0.028500000000000001

>  <r_epik_Ionization_Penalty_Charging>  (1067) 
0.028199999999999999

>  <r_epik_Ionization_Penalty_Neutral>  (1067) 
0.00029999999999999997

>  <r_epik_State_Penalty>  (1067) 
0.028199999999999999

>  <r_i_docking_score>  (1067) 
-4.0174495287030698

>  <r_i_glide_ecoul>  (1067) 
-11.9631500244141

>  <r_i_glide_eff_state_penalty>  (1067) 
0.028199999999999999

>  <r_i_glide_einternal>  (1067) 
12.0906629562378

>  <r_i_glide_emodel>  (1067) 
-54.689082632346498

>  <r_i_glide_energy>  (1067) 
-44.2221488952637

>  <r_i_glide_erotb>  (1067) 
0.89843063831926295

>  <r_i_glide_esite>  (1067) 
-0.10503372157485601

>  <r_i_glide_evdw>  (1067) 
-32.258998870849602

>  <r_i_glide_gscore>  (1067) 
-4.0456495287030698

>  <r_i_glide_hbond>  (1067) 
-0.16

>  <r_i_glide_ligand_efficiency>  (1067) 
-0.114784272248659

>  <r_i_glide_ligand_efficiency_ln>  (1067) 
-0.88191933403866596

>  <r_i_glide_ligand_efficiency_sa>  (1067) 
-0.37546696544713198

>  <r_i_glide_lipo>  (1067) 
-0.87339392778834701

>  <r_i_glide_metal>  (1067) 
-0

>  <r_i_glide_rewards>  (1067) 
-0.39823007045454401

>  <r_lp_Energy>  (1067) 
24.874621000000001

>  <r_qp_ACxDN^.5/SA>  (1067) 
0.017181100000000001

>  <r_qp_CIQPlogS>  (1067) 
-6.2759999999999998

>  <r_qp_EA(eV)>  (1067) 
0.88400000000000001

>  <r_qp_FISA>  (1067) 
92.578000000000003

>  <r_qp_FOSA>  (1067) 
253.45400000000001

>  <r_qp_IP(eV)>  (1067) 
8.3160000000000007

>  <r_qp_Jm>  (1067) 
0.46790246161546001

>  <r_qp_PISA>  (1067) 
306.40300000000002

>  <r_qp_PSA>  (1067) 
65.963999999999999

>  <r_qp_PercentHumanOralAbsorption>  (1067) 
96.555999999999997

>  <r_qp_QPPCaco>  (1067) 
327.25299999999999

>  <r_qp_QPPMDCK>  (1067) 
218.721

>  <r_qp_QPlogBB>  (1067) 
-0.48499999999999999

>  <r_qp_QPlogHERG>  (1067) 
-5.5140000000000002

>  <r_qp_QPlogKhsa>  (1067) 
0.52400000000000002

>  <r_qp_QPlogKp>  (1067) 
-3.0569999999999999

>  <r_qp_QPlogPC16>  (1067) 
14.339

>  <r_qp_QPlogPo/w>  (1067) 
4.2009999999999996

>  <r_qp_QPlogPoct>  (1067) 
23.013000000000002

>  <r_qp_QPlogPw>  (1067) 
12.413

>  <r_qp_QPlogS>  (1067) 
-2.948

>  <r_qp_QPpolrz>  (1067) 
44.445

>  <r_qp_SASA>  (1067) 
675.43799999999999

>  <r_qp_SAamideO>  (1067) 
0

>  <r_qp_SAfluorine>  (1067) 
23.004000000000001

>  <r_qp_WPSA>  (1067) 
23.004000000000001

>  <r_qp_accptHB>  (1067) 
6.7000000000000002

>  <r_qp_dip^2/V>  (1067) 
0.013384399999999999

>  <r_qp_dipole>  (1067) 
4.3040000000000003

>  <r_qp_donorHB>  (1067) 
3

>  <r_qp_glob>  (1067) 
0.88910650000000002

>  <r_qp_mol_MW>  (1067) 
473.59199999999998

>  <r_qp_volume>  (1067) 
1383.7619999999999

>  <r_sd_BIOSOLVEIT.INFINISEE\_FTREES\_SIMILARITY>  (1067) 
0.90500000000000003

>  <r_sd_BIOSOLVEIT.LOGP>  (1067) 
3.9512

>  <r_sd_BIOSOLVEIT.MOLECULAR\_WEIGHT>  (1067) 
474.601

>  <r_sd_BIOSOLVEIT.TPSA>  (1067) 
74.510000000000005

>  <i_epik_Tot_Q>  (1067) 
1

>  <i_epik_Tot_abs_Q>  (1067) 
1

>  <i_f3d_flags>  (1067) 
0

>  <i_i_glide_confnum>  (1067) 
17

>  <i_i_glide_lignum>  (1067) 
437

>  <i_i_glide_posenum>  (1067) 
12

>  <i_i_glide_rotatable_bonds>  (1067) 
12

>  <i_lp_mmshare_version>  (1067) 
65135

>  <i_m_ct_format>  (1067) 
2

>  <i_m_source_file_index>  (1067) 
1636

>  <i_qp_#NandO>  (1067) 
6

>  <i_qp_#acid>  (1067) 
0

>  <i_qp_#amide>  (1067) 
0

>  <i_qp_#amidine>  (1067) 
0

>  <i_qp_#amine>  (1067) 
1

>  <i_qp_#in34>  (1067) 
0

>  <i_qp_#in56>  (1067) 
22

>  <i_qp_#metab>  (1067) 
6

>  <i_qp_#nonHatm>  (1067) 
35

>  <i_qp_#noncon>  (1067) 
0

>  <i_qp_#ringatoms>  (1067) 
22

>  <i_qp_#rotor>  (1067) 
12

>  <i_qp_#rtvFG>  (1067) 
0

>  <i_qp_#stars>  (1067) 
0

>  <i_qp_CNS>  (1067) 
0

>  <i_qp_HumanOralAbsorption>  (1067) 
3

>  <i_qp_RuleOfFive>  (1067) 
0

>  <i_qp_RuleOfThree>  (1067) 
0

>  <i_sd_BIOSOLVEIT.INFINISEE\_REAGENT1\_NAME>  (1067) 
21906080

>  <i_sd_BIOSOLVEIT.INFINISEE\_REAGENT2\_NAME>  (1067) 
23157418

>  <i_sd_BIOSOLVEIT.INFINISEE\_REAGENT3\_NAME>  (1067) 
21950844

>  <i_sd_BIOSOLVEIT.INFINISEE\_RESULT\_RANK>  (1067) 
68039

>  <i_sd_version>  (1067) 
0

>  <b_lp_Chiralities_Consistent>  (1067) 
1

>  <b_sd_chiral_flag>  (1067) 
0

>  <canonical_id>  (1067) 
ATP-HTVS-AACA343AA4DE

>  <compound_code>  (1067) 
52321

>  <title>  (1067) 
m_282030aaa____21906080____23157418____21950844

>  <variant>  (1067) 
52321-3

>  <source_file>  (1067) 
运行/运行/ATP-VSW/ATP-VSW-DOCK_HTVS_1-001_lib/ATP-VSW-DOCK_HTVS_1-001_lib

>  <canonical_smiles>  (1067) 
CC[N@@H+](C)Cc1cccc(CNc2nc3ccccc3nc2N[C@@H](CCO)c2ccccc2F)c1

>  <scaffold>  (1067) 
c1ccc(CNc2nc3ccccc3nc2NCc2ccccc2)cc1

>  <molecular_formula>  (1067) 
C28H33FN5O+

$$$$
ATP-HTVS-AAD4045BFE18
     RDKit          3D

 57 60  0  0  0  0  0  0  0  0999 V2000
  199.1373  181.4884  154.3396 O   0  0  0  0  0  0  0  0  0  0  0  0
  198.5594  181.0676  155.3348 C   0  0  0  0  0  0  0  0  0  0  0  0
  198.6388  179.7716  155.7298 N   0  0  0  0  0  0  0  0  0  0  0  0
  199.3888  178.7419  155.1005 C   0  0  0  0  0  0  0  0  0  0  0  0
  200.0213  177.7710  155.9221 C   0  0  0  0  0  0  0  0  0  0  0  0
  199.9457  177.8074  157.3244 N   0  0  0  0  0  0  0  0  0  0  0  0
  201.1413  177.9174  158.1035 C   0  0  1  0  0  0  0  0  0  0  0  0
  201.7899  179.2839  157.8811 C   0  0  2  0  0  0  0  0  0  0  0  0
  200.7633  176.7273  155.3195 C   0  0  0  0  0  0  0  0  0  0  0  0
  200.8256  176.6098  153.9156 C   0  0  0  0  0  0  0  0  0  0  0  0
  200.1779  177.5617  153.1035 C   0  0  0  0  0  0  0  0  0  0  0  0
  199.4706  178.6229  153.6898 C   0  0  0  0  0  0  0  0  0  0  0  0
  197.8089  181.9877  156.2267 C   0  0  0  0  0  0  0  0  0  0  0  0
  196.8076  181.4998  157.0410 N   0  0  0  0  0  0  0  0  0  0  0  0
  196.2287  182.4487  157.8308 C   0  0  0  0  0  0  0  0  0  0  0  0
  196.8861  183.6576  157.4850 C   0  0  0  0  0  0  0  0  0  0  0  0
  196.4449  184.8193  158.1466 C   0  0  0  0  0  0  0  0  0  0  0  0
  195.4049  184.7726  159.0957 C   0  0  0  0  0  0  0  0  0  0  0  0
  194.7785  183.5503  159.4128 C   0  0  0  0  0  0  0  0  0  0  0  0
  195.2030  182.3720  158.7896 C   0  0  0  0  0  0  0  0  0  0  0  0
  197.8716  183.3473  156.4752 C   0  0  0  0  0  0  0  0  0  0  0  0
  198.7097  184.3213  155.9119 N   0  0  0  0  0  0  0  0  0  0  0  0
  199.7451  184.9467  156.7443 C   0  0  2  0  0  0  0  0  0  0  0  0
  200.6714  185.7651  155.9401 C   0  0  0  0  0  0  0  0  0  0  0  0
  201.4034  186.4035  155.3091 N   0  0  0  0  0  0  0  0  0  0  0  0
  200.5394  183.9800  157.6070 C   0  0  0  0  0  0  0  0  0  0  0  0
  201.4066  183.0275  157.0045 C   0  0  0  0  0  0  0  0  0  0  0  0
  202.1825  182.1674  157.7805 C   0  0  0  0  0  0  0  0  0  0  0  0
  202.0137  182.1684  159.1895 C   0  0  0  0  0  0  0  0  0  0  0  0
  201.1496  183.0997  159.8027 C   0  0  0  0  0  0  0  0  0  0  0  0
  200.4211  184.0096  159.0139 C   0  0  0  0  0  0  0  0  0  0  0  0
  198.8139  184.4028  154.4625 C   0  0  2  0  0  0  0  0  0  0  0  0
  198.2467  179.5490  156.6297 H   0  0  0  0  0  0  0  0  0  0  0  0
  199.0081  178.0719  157.7674 H   0  0  0  0  0  0  0  0  0  0  0  0
  200.8785  177.8667  159.1600 H   0  0  0  0  0  0  0  0  0  0  0  0
  201.8641  177.1144  157.9053 H   0  0  0  0  0  0  0  0  0  0  0  0
  202.6671  179.4220  158.5224 H   0  0  0  0  0  0  0  0  0  0  0  0
  201.0529  180.0640  158.1274 H   0  0  0  0  0  0  0  0  0  0  0  0
  202.0959  179.4131  156.8363 H   0  0  0  0  0  0  0  0  0  0  0  0
  201.2342  175.9845  155.9403 H   0  0  0  0  0  0  0  0  0  0  0  0
  201.3464  175.7787  153.4698 H   0  0  0  0  0  0  0  0  0  0  0  0
  200.2191  177.4635  152.0280 H   0  0  0  0  0  0  0  0  0  0  0  0
  198.9649  179.3314  153.0453 H   0  0  0  0  0  0  0  0  0  0  0  0
  196.5367  180.5321  157.1025 H   0  0  0  0  0  0  0  0  0  0  0  0
  196.8956  185.7617  157.8909 H   0  0  0  0  0  0  0  0  0  0  0  0
  195.0682  185.6735  159.5714 H   0  0  0  0  0  0  0  0  0  0  0  0
  193.9736  183.5285  160.1257 H   0  0  0  0  0  0  0  0  0  0  0  0
  194.7393  181.4135  159.0147 H   0  0  0  0  0  0  0  0  0  0  0  0
  199.2566  185.6457  157.4212 H   0  0  0  0  0  0  0  0  0  0  0  0
  201.4612  182.9590  155.9250 H   0  0  0  0  0  0  0  0  0  0  0  0
  202.8823  181.4736  157.3121 H   0  0  0  0  0  0  0  0  0  0  0  0
  202.5464  181.4562  159.7948 H   0  0  0  0  0  0  0  0  0  0  0  0
  201.0100  183.0740  160.8826 H   0  0  0  0  0  0  0  0  0  0  0  0
  199.7552  184.7168  159.4891 H   0  0  0  0  0  0  0  0  0  0  0  0
  198.0513  183.7992  153.9707 H   0  0  0  0  0  0  0  0  0  0  0  0
  199.7922  184.0468  154.1412 H   0  0  0  0  0  0  0  0  0  0  0  0
  198.6914  185.4328  154.1323 H   0  0  0  0  0  0  0  0  0  0  0  0
  1  2  2  0
  2  3  1  0
  2 13  1  0
  3  4  1  0
  3 33  1  0
  4  5  1  0
  4 12  2  0
  5  6  1  0
  5  9  2  0
  6  7  1  0
  6 34  1  0
  7  8  1  0
  7 35  1  1
  7 36  1  0
  8 37  1  1
  8 38  1  0
  8 39  1  0
  9 10  1  0
  9 40  1  0
 10 11  2  0
 10 41  1  0
 11 12  1  0
 11 42  1  0
 12 43  1  0
 13 14  1  0
 13 21  2  0
 14 15  1  0
 14 44  1  0
 15 16  1  0
 15 20  2  0
 16 17  2  0
 16 21  1  0
 17 18  1  0
 17 45  1  0
 18 19  2  0
 18 46  1  0
 19 20  1  0
 19 47  1  0
 20 48  1  0
 21 22  1  0
 22 23  1  0
 22 32  1  0
 23 24  1  0
 23 26  1  0
 23 49  1  1
 24 25  3  0
 26 27  2  0
 26 31  1  0
 27 28  1  0
 27 50  1  0
 28 29  2  0
 28 51  1  0
 29 30  1  0
 29 52  1  0
 30 31  2  0
 30 53  1  0
 31 54  1  0
 32 55  1  6
 32 56  1  0
 32 57  1  0
M  END
>  <s_epik_cmdline>  (1068) 
J2VwaWtfcHl0aG9uJywgJy1waCcsICc3LjAwMDAwMCcsICctcGh0JywgJzIuMDAwMDAwJywgJy1tcycsICcxNicsICctdG4nLCAnOCcsICctbWEnLCAnMjAwJywgJy1pbWFlJywgJzxpbmZpbGUubWFlPicsICctb21hZScsICc8b3V0ZmlsZS5tYWU+Jw==

>  <s_epik_input>  (1068) 
W2NIXTFbY0hdW2NIXVtjSF1jKFtOSF1bQ0gyXVtDSDNdKWMxW05IXUMoPU8pYyhbbkhdMiljKGMoYzIzKVtjSF1bY0hdW2NIXVtjSF0zKU4oW0NIM10pW0NASF0oQyNOKWM0W2NIXVtjSF1bY0hdW2NIXVtjSF00

>  <s_i_glide_gridfile>  (1068) 
ATP-Grid

>  <s_lp_Force_Field>  (1068) 
OPLS_2005

>  <s_lp_Variant>  (1068) 
rxn512b____EMOL29704305____EMOL719673____EMOL24630243-2

>  <s_lp_label>  (1068) 
2582_sdstereoexpander_2_neutralizer_1_epik_1_stereoizer_1

>  <s_m_source_file>  (1068) 
ATP-VSW-LIGPREP-003-in.maegz

>  <s_sd_BIOSOLVEIT.INFINISEE\_QUERY\_NAME>  (1068) 
Ref-Lig

>  <s_sd_BIOSOLVEIT.INFINISEE\_QUERY\_SMILES>  (1068) 
S(c1nc2c(cc1C[NH2+]Cc3ccc(cc3)C[NH+](C)C)cccc2)Cc4ccccc4

>  <s_sd_BIOSOLVEIT.INFINISEE\_REACTION\_NAME>  (1068) 
rxn512b

>  <s_sd_BIOSOLVEIT.INFINISEE\_REAGENT1\_NAME>  (1068) 
EMOL29704305

>  <s_sd_BIOSOLVEIT.INFINISEE\_REAGENT1\_SMILES>  (1068) 
N(c1c(N)cccc1)CC

>  <s_sd_BIOSOLVEIT.INFINISEE\_REAGENT2\_NAME>  (1068) 
EMOL719673

>  <s_sd_BIOSOLVEIT.INFINISEE\_REAGENT2\_SMILES>  (1068) 
BrC=1c2c(NC1C(=O)O)cccc2

>  <s_sd_BIOSOLVEIT.INFINISEE\_REAGENT3\_NAME>  (1068) 
EMOL24630243

>  <s_sd_BIOSOLVEIT.INFINISEE\_REAGENT3\_SMILES>  (1068) 
N#CC(NC)c1ccccc1

>  <s_sd_BIOSOLVEIT.INFINISEE\_SPACE>  (1068) 
eXplore_7tr_2022-12

>  <s_vsw_compound_code>  (1068) 
82595

>  <s_vsw_variant>  (1068) 
82595-2

>  <r_epik_Charging_Adjusted_Penalty>  (1068) 
0.0018927921280575901

>  <r_epik_Ionization_Penalty>  (1068) 
0.0019

>  <r_epik_Ionization_Penalty_Charging>  (1068) 
0

>  <r_epik_Ionization_Penalty_Neutral>  (1068) 
0.0019

>  <r_epik_State_Penalty>  (1068) 
0.0019

>  <r_i_docking_score>  (1068) 
-4.4957846335649201

>  <r_i_glide_ecoul>  (1068) 
-9.6830997467040998

>  <r_i_glide_eff_state_penalty>  (1068) 
0.0019

>  <r_i_glide_einternal>  (1068) 
9.2901458740234393

>  <r_i_glide_emodel>  (1068) 
-48.873699667440903

>  <r_i_glide_energy>  (1068) 
-40.621526718139599

>  <r_i_glide_erotb>  (1068) 
0.77352831388993204

>  <r_i_glide_esite>  (1068) 
-0.28644450259958798

>  <r_i_glide_evdw>  (1068) 
-30.938426971435501

>  <r_i_glide_gscore>  (1068) 
-4.4976846335649201

>  <r_i_glide_hbond>  (1068) 
-0.30399999999999999

>  <r_i_glide_ligand_efficiency>  (1068) 
-0.140493269798904

>  <r_i_glide_ligand_efficiency_ln>  (1068) 
-1.0067287299157901

>  <r_i_glide_ligand_efficiency_sa>  (1068) 
-0.44603832803117999

>  <r_i_glide_lipo>  (1068) 
-1.1598566797324099

>  <r_i_glide_metal>  (1068) 
-0

>  <r_i_glide_rewards>  (1068) 
-0.52152545454545396

>  <r_lp_Energy>  (1068) 
34.131231

>  <r_qp_ACxDN^.5/SA>  (1068) 
0.014143899999999999

>  <r_qp_CIQPlogS>  (1068) 
-6.4779999999999998

>  <r_qp_EA(eV)>  (1068) 
0.55800000000000005

>  <r_qp_FISA>  (1068) 
76.111999999999995

>  <r_qp_FOSA>  (1068) 
210.982

>  <r_qp_IP(eV)>  (1068) 
8.1349999999999998

>  <r_qp_Jm>  (1068) 
0.0019985267851596301

>  <r_qp_PISA>  (1068) 
447.66300000000001

>  <r_qp_PSA>  (1068) 
85.412999999999997

>  <r_qp_PercentHumanOralAbsorption>  (1068) 
100

>  <r_qp_QPPCaco>  (1068) 
468.84199999999998

>  <r_qp_QPPMDCK>  (1068) 
241.351

>  <r_qp_QPlogBB>  (1068) 
-0.29599999999999999

>  <r_qp_QPlogHERG>  (1068) 
-7.4850000000000003

>  <r_qp_QPlogKhsa>  (1068) 
0.68799999999999994

>  <r_qp_QPlogKp>  (1068) 
-2.6400000000000001

>  <r_qp_QPlogPC16>  (1068) 
15.266

>  <r_qp_QPlogPo/w>  (1068) 
4.46

>  <r_qp_QPlogPoct>  (1068) 
24.119

>  <r_qp_QPlogPw>  (1068) 
13.589

>  <r_qp_QPlogS>  (1068) 
-5.6859999999999999

>  <r_qp_QPpolrz>  (1068) 
47.512

>  <r_qp_SASA>  (1068) 
734.75699999999995

>  <r_qp_SAamideO>  (1068) 
0

>  <r_qp_SAfluorine>  (1068) 
0

>  <r_qp_WPSA>  (1068) 
0

>  <r_qp_accptHB>  (1068) 
6

>  <r_qp_dip^2/V>  (1068) 
0.055999399999999998

>  <r_qp_dipole>  (1068) 
8.7349999999999994

>  <r_qp_donorHB>  (1068) 
3

>  <r_qp_glob>  (1068) 
0.80893729999999997

>  <r_qp_mol_MW>  (1068) 
423.51600000000002

>  <r_qp_volume>  (1068) 
1362.5129999999999

>  <r_sd_BIOSOLVEIT.INFINISEE\_FTREES\_SIMILARITY>  (1068) 
0.91200000000000003

>  <r_sd_BIOSOLVEIT.LOGP>  (1068) 
5.5530799999999996

>  <r_sd_BIOSOLVEIT.MOLECULAR\_WEIGHT>  (1068) 
423.51799999999997

>  <r_sd_BIOSOLVEIT.TPSA>  (1068) 
83.950000000000003

>  <i_epik_Tot_Q>  (1068) 
0

>  <i_epik_Tot_abs_Q>  (1068) 
0

>  <i_f3d_flags>  (1068) 
0

>  <i_i_glide_confnum>  (1068) 
6

>  <i_i_glide_lignum>  (1068) 
1164

>  <i_i_glide_posenum>  (1068) 
1

>  <i_i_glide_rotatable_bonds>  (1068) 
8

>  <i_lp_mmshare_version>  (1068) 
65135

>  <i_m_ct_format>  (1068) 
2

>  <i_m_source_file_index>  (1068) 
2582

>  <i_qp_#NandO>  (1068) 
6

>  <i_qp_#acid>  (1068) 
0

>  <i_qp_#amide>  (1068) 
0

>  <i_qp_#amidine>  (1068) 
0

>  <i_qp_#amine>  (1068) 
1

>  <i_qp_#in34>  (1068) 
0

>  <i_qp_#in56>  (1068) 
21

>  <i_qp_#metab>  (1068) 
7

>  <i_qp_#nonHatm>  (1068) 
32

>  <i_qp_#noncon>  (1068) 
0

>  <i_qp_#ringatoms>  (1068) 
21

>  <i_qp_#rotor>  (1068) 
8

>  <i_qp_#rtvFG>  (1068) 
0

>  <i_qp_#stars>  (1068) 
0

>  <i_qp_CNS>  (1068) 
0

>  <i_qp_HumanOralAbsorption>  (1068) 
3

>  <i_qp_RuleOfFive>  (1068) 
0

>  <i_qp_RuleOfThree>  (1068) 
1

>  <i_sd_BIOSOLVEIT.INFINISEE\_RESULT\_RANK>  (1068) 
39414

>  <i_sd_version>  (1068) 
0

>  <b_lp_Chiralities_Consistent>  (1068) 
1

>  <b_sd_chiral_flag>  (1068) 
0

>  <canonical_id>  (1068) 
ATP-HTVS-AAD4045BFE18

>  <compound_code>  (1068) 
82595

>  <title>  (1068) 
rxn512b____EMOL29704305____EMOL719673____EMOL24630243

>  <variant>  (1068) 
82595-2

>  <source_file>  (1068) 
运行/运行/ATP-VSW/ATP-VSW-DOCK_HTVS_1-003_lib/ATP-VSW-DOCK_HTVS_1-003_lib.mae

>  <canonical_smiles>  (1068) 
CCNc1ccccc1NC(=O)c1[nH]c2ccccc2c1N(C)[C@H](C#N)c1ccccc1

>  <scaffold>  (1068) 
O=C(Nc1ccccc1)c1[nH]c2ccccc2c1NCc1ccccc1

>  <molecular_formula>  (1068) 
C26H25N5O

$$$$
ATP-HTVS-AAEC409DC9E3
     RDKit          3D

 60 63  0  0  0  0  0  0  0  0999 V2000
  197.1567  185.4424  148.9480 Br  0  0  0  0  0  0  0  0  0  0  0  0
  198.4550  184.2633  149.7112 C   0  0  0  0  0  0  0  0  0  0  0  0
  198.2700  183.6726  150.9943 C   0  0  0  0  0  0  0  0  0  0  0  0
  199.2662  182.8459  151.5271 C   0  0  0  0  0  0  0  0  0  0  0  0
  200.4115  182.5200  150.7502 C   0  0  0  0  0  0  0  0  0  0  0  0
  200.5767  183.0780  149.4712 C   0  0  0  0  0  0  0  0  0  0  0  0
  199.6072  183.9579  148.9581 C   0  0  0  0  0  0  0  0  0  0  0  0
  196.9918  183.9164  151.8040 C   0  0  1  0  0  0  0  0  0  0  0  0
  196.3494  182.7404  152.3906 N   0  0  0  0  0  0  0  0  0  0  0  0
  196.7580  181.4281  152.1200 C   0  0  0  0  0  0  0  0  0  0  0  0
  196.8993  181.0529  150.8344 N   0  0  0  0  0  0  0  0  0  0  0  0
  197.5151  179.8672  150.5784 C   0  0  0  0  0  0  0  0  0  0  0  0
  197.9098  179.0106  151.6421 C   0  0  0  0  0  0  0  0  0  0  0  0
  197.7070  179.3664  152.9331 N   0  0  0  0  0  0  0  0  0  0  0  0
  197.1428  180.5707  153.1829 C   0  0  0  0  0  0  0  0  0  0  0  0
  197.0352  180.9982  154.5178 N   0  0  0  0  0  0  0  0  0  0  0  0
  198.1834  180.7677  155.3877 C   0  0  1  0  0  0  0  0  0  0  0  0
  198.2814  181.7533  156.5374 C   0  0  0  0  0  0  0  0  0  0  0  0
  197.2442  181.8267  157.4888 C   0  0  0  0  0  0  0  0  0  0  0  0
  197.3454  182.6998  158.5939 C   0  0  0  0  0  0  0  0  0  0  0  0
  198.4821  183.5169  158.7341 C   0  0  0  0  0  0  0  0  0  0  0  0
  199.5092  183.4693  157.7722 C   0  0  0  0  0  0  0  0  0  0  0  0
  199.4117  182.5835  156.6801 C   0  0  0  0  0  0  0  0  0  0  0  0
  196.2387  182.7513  159.6373 C   0  0  1  0  0  0  0  0  0  0  0  0
  195.1296  183.6568  159.3279 N   0  0  0  0  0  0  0  0  0  0  0  0
  194.4199  183.2108  158.1370 C   0  0  2  0  0  0  0  0  0  0  0  0
  195.5883  185.0290  159.1521 C   0  0  2  0  0  0  0  0  0  0  0  0
  198.5210  177.7711  151.3335 C   0  0  0  0  0  0  0  0  0  0  0  0
  198.7556  177.3870  149.9977 C   0  0  0  0  0  0  0  0  0  0  0  0
  198.4279  178.2649  148.9557 C   0  0  0  0  0  0  0  0  0  0  0  0
  197.8158  179.4996  149.2499 C   0  0  0  0  0  0  0  0  0  0  0  0
  197.2504  184.9686  152.8947 C   0  0  2  0  0  0  0  0  0  0  0  0
  199.1790  182.4323  152.5161 H   0  0  0  0  0  0  0  0  0  0  0  0
  201.1207  181.8076  151.1433 H   0  0  0  0  0  0  0  0  0  0  0  0
  201.4433  182.8077  148.8781 H   0  0  0  0  0  0  0  0  0  0  0  0
  199.7280  184.3771  147.9744 H   0  0  0  0  0  0  0  0  0  0  0  0
  196.2276  184.3127  151.1423 H   0  0  0  0  0  0  0  0  0  0  0  0
  195.7910  182.9285  153.2165 H   0  0  0  0  0  0  0  0  0  0  0  0
  196.5585  181.8793  154.6705 H   0  0  0  0  0  0  0  0  0  0  0  0
  198.1096  179.7644  155.8080 H   0  0  0  0  0  0  0  0  0  0  0  0
  199.1064  180.8076  154.8074 H   0  0  0  0  0  0  0  0  0  0  0  0
  196.3801  181.1870  157.3799 H   0  0  0  0  0  0  0  0  0  0  0  0
  198.5590  184.1919  159.5738 H   0  0  0  0  0  0  0  0  0  0  0  0
  200.3708  184.1128  157.8803 H   0  0  0  0  0  0  0  0  0  0  0  0
  200.2115  182.5485  155.9551 H   0  0  0  0  0  0  0  0  0  0  0  0
  195.8517  181.7415  159.7626 H   0  0  0  0  0  0  0  0  0  0  0  0
  196.6725  183.0383  160.5972 H   0  0  0  0  0  0  0  0  0  0  0  0
  193.5656  183.8518  157.9198 H   0  0  0  0  0  0  0  0  0  0  0  0
  194.0502  182.1906  158.2552 H   0  0  0  0  0  0  0  0  0  0  0  0
  195.0822  183.2369  157.2751 H   0  0  0  0  0  0  0  0  0  0  0  0
  194.7501  185.6881  158.9228 H   0  0  0  0  0  0  0  0  0  0  0  0
  196.3016  185.1121  158.3319 H   0  0  0  0  0  0  0  0  0  0  0  0
  196.0688  185.3894  160.0629 H   0  0  0  0  0  0  0  0  0  0  0  0
  198.7754  177.0930  152.1314 H   0  0  0  0  0  0  0  0  0  0  0  0
  199.1866  176.4185  149.7793 H   0  0  0  0  0  0  0  0  0  0  0  0
  198.6276  177.9880  147.9291 H   0  0  0  0  0  0  0  0  0  0  0  0
  197.5982  180.1869  148.4483 H   0  0  0  0  0  0  0  0  0  0  0  0
  197.6307  185.8943  152.4570 H   0  0  0  0  0  0  0  0  0  0  0  0
  197.9943  184.6142  153.6100 H   0  0  0  0  0  0  0  0  0  0  0  0
  196.3427  185.2197  153.4483 H   0  0  0  0  0  0  0  0  0  0  0  0
  1  2  1  0
  2  3  1  0
  2  7  2  0
  3  4  2  0
  3  8  1  0
  4  5  1  0
  4 33  1  0
  5  6  2  0
  5 34  1  0
  6  7  1  0
  6 35  1  0
  7 36  1  0
  8  9  1  0
  8 32  1  0
  8 37  1  6
  9 10  1  0
  9 38  1  0
 10 11  2  0
 10 15  1  0
 11 12  1  0
 12 13  1  0
 12 31  2  0
 13 14  1  0
 13 28  2  0
 14 15  2  0
 15 16  1  0
 16 17  1  0
 16 39  1  0
 17 18  1  0
 17 40  1  1
 17 41  1  0
 18 19  2  0
 18 23  1  0
 19 20  1  0
 19 42  1  0
 20 21  2  0
 20 24  1  0
 21 22  1  0
 21 43  1  0
 22 23  2  0
 22 44  1  0
 23 45  1  0
 24 25  1  0
 24 46  1  1
 24 47  1  0
 25 26  1  0
 25 27  1  0
 26 48  1  6
 26 49  1  0
 26 50  1  0
 27 51  1  6
 27 52  1  0
 27 53  1  0
 28 29  1  0
 28 54  1  0
 29 30  2  0
 29 55  1  0
 30 31  1  0
 30 56  1  0
 31 57  1  0
 32 58  1  6
 32 59  1  0
 32 60  1  0
M  END
>  <s_epik_cmdline>  (1069) 
J2VwaWtfcHl0aG9uJywgJy1waCcsICc3LjAwMDAwMCcsICctcGh0JywgJzIuMDAwMDAwJywgJy1tcycsICcxNicsICctdG4nLCAnOCcsICctbWEnLCAnMjAwJywgJy1pbWFlJywgJzxpbmZpbGUubWFlPicsICctb21hZScsICc8b3V0ZmlsZS5tYWU+Jw==

>  <s_epik_input>  (1069) 
W2NIXTFbY0hdW2NIXVtjSF1jKGMxQnIpW0NASF0oW0NIM10pW05IXWMobjIpYyhuYyhjMjMpW2NIXVtjSF1bY0hdW2NIXTMpW05IXVtDSDJdYzRbY0hdYyhbY0hdW2NIXVtjSF00KVtDSDJdTihbQ0gzXSlbQ0gzXQ==

>  <s_i_glide_gridfile>  (1069) 
ATP-Grid

>  <s_lp_Force_Field>  (1069) 
OPLS_2005

>  <s_lp_Variant>  (1069) 
m_282030aaa____21931874____23157418____21940090-4

>  <s_lp_label>  (1069) 
1017_sdstereoexpander_2_neutralizer_1_epik_2_stereoizer_1

>  <s_m_source_file>  (1069) 
ATP-VSW-LIGPREP-003-in.maegz

>  <s_sd_BIOSOLVEIT.INFINISEE\_QUERY\_NAME>  (1069) 
Ref-Lig

>  <s_sd_BIOSOLVEIT.INFINISEE\_QUERY\_SMILES>  (1069) 
S(c1nc2c(cc1C[NH2+]Cc3ccc(cc3)C[NH+](C)C)cccc2)Cc4ccccc4

>  <s_sd_BIOSOLVEIT.INFINISEE\_REACTION\_NAME>  (1069) 
m_282030aaa

>  <s_sd_BIOSOLVEIT.INFINISEE\_REAGENT1\_SMILES>  (1069) 
[R1*]NC(c1c(Br)cccc1)C

>  <s_sd_BIOSOLVEIT.INFINISEE\_REAGENT2\_SMILES>  (1069) 
[R1*]c1nc2c(nc1[R2*])cccc2

>  <s_sd_BIOSOLVEIT.INFINISEE\_REAGENT3\_SMILES>  (1069) 
[R2*]NCc1cc(ccc1)CN(C)C

>  <s_sd_BIOSOLVEIT.INFINISEE\_SPACE>  (1069) 
REALSpace_44bn_2023-08

>  <s_vsw_compound_code>  (1069) 
32515

>  <s_vsw_variant>  (1069) 
32515-4

>  <r_epik_Charging_Adjusted_Penalty>  (1069) 
1.56114245651254

>  <r_epik_Ionization_Penalty>  (1069) 
1.5615000000000001

>  <r_epik_Ionization_Penalty_Charging>  (1069) 
0

>  <r_epik_Ionization_Penalty_Neutral>  (1069) 
1.5615000000000001

>  <r_epik_State_Penalty>  (1069) 
1.5610999999999999

>  <r_i_docking_score>  (1069) 
-1.44060854903555

>  <r_i_glide_ecoul>  (1069) 
-3.21670770645142

>  <r_i_glide_eff_state_penalty>  (1069) 
1.5610999999999999

>  <r_i_glide_einternal>  (1069) 
7.1508636474609402

>  <r_i_glide_emodel>  (1069) 
-41.5917043838365

>  <r_i_glide_energy>  (1069) 
-37.544546604156501

>  <r_i_glide_erotb>  (1069) 
0.59225083100704801

>  <r_i_glide_esite>  (1069) 
-0.10716369850543001

>  <r_i_glide_evdw>  (1069) 
-34.327838897705099

>  <r_i_glide_gscore>  (1069) 
-3.0017085490355502

>  <r_i_glide_hbond>  (1069) 
-0.10983610880399899

>  <r_i_glide_ligand_efficiency>  (1069) 
-0.045019017157360799

>  <r_i_glide_ligand_efficiency_ln>  (1069) 
-0.32259152363496901

>  <r_i_glide_ligand_efficiency_sa>  (1069) 
-0.142926470223223

>  <r_i_glide_lipo>  (1069) 
-1.1128661536983799

>  <r_i_glide_metal>  (1069) 
-0

>  <r_i_glide_rewards>  (1069) 
-0.065195318181817397

>  <r_lp_Energy>  (1069) 
24.733150999999999

>  <r_qp_ACxDN^.5/SA>  (1069) 
0.011347899999999999

>  <r_qp_CIQPlogS>  (1069) 
-7.3810000000000002

>  <r_qp_EA(eV)>  (1069) 
0.745

>  <r_qp_FISA>  (1069) 
35.783000000000001

>  <r_qp_FOSA>  (1069) 
231.80799999999999

>  <r_qp_IP(eV)>  (1069) 
8.2159999999999993

>  <r_qp_Jm>  (1069) 
0.72962095093816703

>  <r_qp_PISA>  (1069) 
306.05900000000003

>  <r_qp_PSA>  (1069) 
45.203000000000003

>  <r_qp_PercentHumanOralAbsorption>  (1069) 
100

>  <r_qp_QPPCaco>  (1069) 
1131.021

>  <r_qp_QPPMDCK>  (1069) 
1166.8309999999999

>  <r_qp_QPlogBB>  (1069) 
0.317

>  <r_qp_QPlogHERG>  (1069) 
-5.0839999999999996

>  <r_qp_QPlogKhsa>  (1069) 
0.78300000000000003

>  <r_qp_QPlogKp>  (1069) 
-2.395

>  <r_qp_QPlogPC16>  (1069) 
13.41

>  <r_qp_QPlogPo/w>  (1069) 
4.8959999999999999

>  <r_qp_QPlogPoct>  (1069) 
20.117999999999999

>  <r_qp_QPlogPw>  (1069) 
9.6509999999999998

>  <r_qp_QPlogS>  (1069) 
-3.4319999999999999

>  <r_qp_QPpolrz>  (1069) 
42.911000000000001

>  <r_qp_SASA>  (1069) 
623.11800000000005

>  <r_qp_SAamideO>  (1069) 
0

>  <r_qp_SAfluorine>  (1069) 
0

>  <r_qp_WPSA>  (1069) 
49.466999999999999

>  <r_qp_accptHB>  (1069) 
5

>  <r_qp_dip^2/V>  (1069) 
0.0128716

>  <r_qp_dipole>  (1069) 
4.0609999999999999

>  <r_qp_donorHB>  (1069) 
2

>  <r_qp_glob>  (1069) 
0.91559219999999997

>  <r_qp_mol_MW>  (1069) 
490.44499999999999

>  <r_qp_volume>  (1069) 
1281.3299999999999

>  <r_sd_BIOSOLVEIT.INFINISEE\_FTREES\_SIMILARITY>  (1069) 
0.91500000000000004

>  <r_sd_BIOSOLVEIT.LOGP>  (1069) 
4.8220000000000001

>  <r_sd_BIOSOLVEIT.MOLECULAR\_WEIGHT>  (1069) 
491.45400000000001

>  <r_sd_BIOSOLVEIT.TPSA>  (1069) 
54.280000000000001

>  <i_epik_Tot_Q>  (1069) 
0

>  <i_epik_Tot_abs_Q>  (1069) 
0

>  <i_f3d_flags>  (1069) 
0

>  <i_i_glide_confnum>  (1069) 
5

>  <i_i_glide_lignum>  (1069) 
388

>  <i_i_glide_posenum>  (1069) 
18

>  <i_i_glide_rotatable_bonds>  (1069) 
8

>  <i_lp_mmshare_version>  (1069) 
65135

>  <i_m_ct_format>  (1069) 
2

>  <i_m_source_file_index>  (1069) 
1017

>  <i_qp_#NandO>  (1069) 
5

>  <i_qp_#acid>  (1069) 
0

>  <i_qp_#amide>  (1069) 
0

>  <i_qp_#amidine>  (1069) 
0

>  <i_qp_#amine>  (1069) 
1

>  <i_qp_#in34>  (1069) 
0

>  <i_qp_#in56>  (1069) 
22

>  <i_qp_#metab>  (1069) 
5

>  <i_qp_#nonHatm>  (1069) 
32

>  <i_qp_#noncon>  (1069) 
0

>  <i_qp_#ringatoms>  (1069) 
22

>  <i_qp_#rotor>  (1069) 
8

>  <i_qp_#rtvFG>  (1069) 
0

>  <i_qp_#stars>  (1069) 
0

>  <i_qp_CNS>  (1069) 
1

>  <i_qp_HumanOralAbsorption>  (1069) 
3

>  <i_qp_RuleOfFive>  (1069) 
0

>  <i_qp_RuleOfThree>  (1069) 
0

>  <i_sd_BIOSOLVEIT.INFINISEE\_REAGENT1\_NAME>  (1069) 
21931874

>  <i_sd_BIOSOLVEIT.INFINISEE\_REAGENT2\_NAME>  (1069) 
23157418

>  <i_sd_BIOSOLVEIT.INFINISEE\_REAGENT3\_NAME>  (1069) 
21940090

>  <i_sd_BIOSOLVEIT.INFINISEE\_RESULT\_RANK>  (1069) 
27202

>  <i_sd_version>  (1069) 
0

>  <b_lp_Chiralities_Consistent>  (1069) 
1

>  <b_sd_chiral_flag>  (1069) 
0

>  <canonical_id>  (1069) 
ATP-HTVS-AAEC409DC9E3

>  <compound_code>  (1069) 
32515

>  <title>  (1069) 
m_282030aaa____21931874____23157418____21940090

>  <variant>  (1069) 
32515-4

>  <source_file>  (1069) 
运行/运行/ATP-VSW/ATP-VSW-DOCK_HTVS_1-003_lib/ATP-VSW-DOCK_HTVS_1-003_lib.mae

>  <canonical_smiles>  (1069) 
C[C@H](Nc1nc2ccccc2nc1NCc1cccc(CN(C)C)c1)c1ccccc1Br

>  <scaffold>  (1069) 
c1ccc(CNc2nc3ccccc3nc2NCc2ccccc2)cc1

>  <molecular_formula>  (1069) 
C26H28BrN5

$$$$
ATP-HTVS-AB4BD250F7B6
     RDKit          3D

 56 59  0  0  0  0  0  0  0  0999 V2000
  200.8675  183.4225  160.9247 F   0  0  0  0  0  0  0  0  0  0  0  0
  200.9259  183.6328  159.5919 C   0  0  0  0  0  0  0  0  0  0  0  0
  199.7802  183.4453  158.8049 C   0  0  0  0  0  0  0  0  0  0  0  0
  199.8153  183.6896  157.4052 C   0  0  0  0  0  0  0  0  0  0  0  0
  201.0521  184.0532  156.7977 C   0  0  0  0  0  0  0  0  0  0  0  0
  201.1734  184.2076  155.4603 N   0  0  0  0  0  0  0  0  0  0  0  0
  200.0973  183.9917  154.6820 C   0  0  0  0  0  0  0  0  0  0  0  0
  198.8329  183.6418  155.1825 C   0  0  0  0  0  0  0  0  0  0  0  0
  198.6651  183.5282  156.5872 C   0  0  0  0  0  0  0  0  0  0  0  0
  197.4054  183.1899  157.1124 N   0  0  0  0  0  0  0  0  0  0  0  0
  196.6170  183.7878  158.0656 C   0  0  0  0  0  0  0  0  0  0  0  0
  195.3603  183.2326  158.4173 C   0  0  0  0  0  0  0  0  0  0  0  0
  194.8661  181.9510  157.7582 N   0  0  1  0  0  0  0  0  0  0  0  0
  193.7538  181.2501  158.4222 C   0  0  2  0  0  0  0  0  0  0  0  0
  194.5311  183.8894  159.3612 C   0  0  0  0  0  0  0  0  0  0  0  0
  194.9738  185.0740  159.9822 C   0  0  0  0  0  0  0  0  0  0  0  0
  196.2335  185.6186  159.6639 C   0  0  0  0  0  0  0  0  0  0  0  0
  197.0412  184.9830  158.6954 C   0  0  0  0  0  0  0  0  0  0  0  0
  197.7077  183.4107  154.2187 C   0  0  0  0  0  0  0  0  0  0  0  0
  197.0184  184.3844  153.9186 O   0  0  0  0  0  0  0  0  0  0  0  0
  197.5174  182.1467  153.7207 N   0  0  0  0  0  0  0  0  0  0  0  0
  198.2146  180.9998  154.2362 C   0  0  0  0  0  0  0  0  0  0  0  0
  198.1462  180.6556  155.6154 C   0  0  0  0  0  0  0  0  0  0  0  0
  198.8908  179.5718  156.1093 C   0  0  0  0  0  0  0  0  0  0  0  0
  199.6013  178.7156  155.2402 C   0  0  0  0  0  0  0  0  0  0  0  0
  199.5973  179.0016  153.8513 C   0  0  0  0  0  0  0  0  0  0  0  0
  198.9451  180.1544  153.3490 C   0  0  0  0  0  0  0  0  0  0  0  0
  196.5612  181.9615  152.5950 C   0  0  2  0  0  0  0  0  0  0  0  0
  196.3577  180.5535  152.1929 C   0  0  0  0  0  0  0  0  0  0  0  0
  196.2010  179.4505  151.8748 N   0  0  0  0  0  0  0  0  0  0  0  0
  196.9063  182.8175  151.3469 C   0  0  2  0  0  0  0  0  0  0  0  0
  202.1926  184.2332  157.6089 C   0  0  0  0  0  0  0  0  0  0  0  0
  202.1298  184.0423  159.0011 C   0  0  0  0  0  0  0  0  0  0  0  0
  198.8833  183.1025  159.2927 H   0  0  0  0  0  0  0  0  0  0  0  0
  200.2467  184.1128  153.6167 H   0  0  0  0  0  0  0  0  0  0  0  0
  196.8845  182.5077  156.5065 H   0  0  0  0  0  0  0  0  0  0  0  0
  194.5159  182.1739  156.8209 H   0  0  0  0  0  0  0  0  0  0  0  0
  193.4682  180.3375  157.8925 H   0  0  0  0  0  0  0  0  0  0  0  0
  192.8657  181.8816  158.4630 H   0  0  0  0  0  0  0  0  0  0  0  0
  194.0529  180.9915  159.4384 H   0  0  0  0  0  0  0  0  0  0  0  0
  193.5519  183.5216  159.6187 H   0  0  0  0  0  0  0  0  0  0  0  0
  194.3243  185.5653  160.6933 H   0  0  0  0  0  0  0  0  0  0  0  0
  196.5750  186.5288  160.1361 H   0  0  0  0  0  0  0  0  0  0  0  0
  197.9941  185.4301  158.4524 H   0  0  0  0  0  0  0  0  0  0  0  0
  197.5158  181.1283  156.3130 H   0  0  0  0  0  0  0  0  0  0  0  0
  198.8686  179.3858  157.1672 H   0  0  0  0  0  0  0  0  0  0  0  0
  200.1039  177.8360  155.6347 H   0  0  0  0  0  0  0  0  0  0  0  0
  200.0825  178.3109  153.1568 H   0  0  0  0  0  0  0  0  0  0  0  0
  198.9582  180.3464  152.2774 H   0  0  0  0  0  0  0  0  0  0  0  0
  195.5638  182.2361  152.9387 H   0  0  0  0  0  0  0  0  0  0  0  0
  196.1376  182.7224  150.5776 H   0  0  0  0  0  0  0  0  0  0  0  0
  197.8634  182.5182  150.9181 H   0  0  0  0  0  0  0  0  0  0  0  0
  196.9706  183.8825  151.5649 H   0  0  0  0  0  0  0  0  0  0  0  0
  203.1205  184.5311  157.1523 H   0  0  0  0  0  0  0  0  0  0  0  0
  203.0061  184.1996  159.6146 H   0  0  0  0  0  0  0  0  0  0  0  0
  195.6001  181.2527  157.6761 H   0  0  0  0  0  0  0  0  0  0  0  0
  1  2  1  0
  2  3  1  0
  2 33  2  0
  3  4  2  0
  3 34  1  0
  4  5  1  0
  4  9  1  0
  5  6  1  0
  5 32  2  0
  6  7  2  0
  7  8  1  0
  7 35  1  0
  8  9  2  0
  8 19  1  0
  9 10  1  0
 10 11  1  0
 10 36  1  0
 11 12  1  0
 11 18  2  0
 12 13  1  0
 12 15  2  0
 13 14  1  0
 13 37  1  6
 13 56  1  0
 14 38  1  6
 14 39  1  0
 14 40  1  0
 15 16  1  0
 15 41  1  0
 16 17  2  0
 16 42  1  0
 17 18  1  0
 17 43  1  0
 18 44  1  0
 19 20  2  0
 19 21  1  0
 21 22  1  0
 21 28  1  0
 22 23  2  0
 22 27  1  0
 23 24  1  0
 23 45  1  0
 24 25  2  0
 24 46  1  0
 25 26  1  0
 25 47  1  0
 26 27  2  0
 26 48  1  0
 27 49  1  0
 28 29  1  0
 28 31  1  0
 28 50  1  1
 29 30  3  0
 31 51  1  6
 31 52  1  0
 31 53  1  0
 32 33  1  0
 32 54  1  0
 33 55  1  0
M  CHG  1  13   1
M  END
>  <s_epik_cmdline>  (1070) 
J2VwaWtfcHl0aG9uJywgJy1waCcsICc3LjAwMDAwMCcsICctcGh0JywgJzIuMDAwMDAwJywgJy1tcycsICcxNicsICctdG4nLCAnOCcsICctbWEnLCAnMjAwJywgJy1pbWFlJywgJzxpbmZpbGUubWFlPicsICctb21hZScsICc8b3V0ZmlsZS5tYWU+Jw==

>  <s_epik_input>  (1070) 
W2NIXTFbY0hdW2NIXVtjSF1bY0hdYzFOKFtDQEhdKEMjTilbQ0gzXSlDKD1PKWMoW2NIXW5jKGMyMylbY0hdW2NIXWMoRilbY0hdMiljM1tOSF1jNGMoW05IXVtDSDNdKVtjSF1bY0hdW2NIXVtjSF00

>  <s_i_glide_gridfile>  (1070) 
ATP-Grid

>  <s_lp_Force_Field>  (1070) 
OPLS_2005

>  <s_lp_Variant>  (1070) 
rxn512c____EMOL2735375____EMOL36725275____EMOL36790511-4

>  <s_lp_label>  (1070) 
2543_sdstereoexpander_2_neutralizer_1_epik_2_stereoizer_1

>  <s_m_source_file>  (1070) 
ATP-VSW-LIGPREP-002-in.maegz

>  <s_sd_BIOSOLVEIT.INFINISEE\_QUERY\_NAME>  (1070) 
Ref-Lig

>  <s_sd_BIOSOLVEIT.INFINISEE\_QUERY\_SMILES>  (1070) 
S(c1nc2c(cc1C[NH2+]Cc3ccc(cc3)C[NH+](C)C)cccc2)Cc4ccccc4

>  <s_sd_BIOSOLVEIT.INFINISEE\_REACTION\_NAME>  (1070) 
rxn512c

>  <s_sd_BIOSOLVEIT.INFINISEE\_REAGENT1\_NAME>  (1070) 
EMOL2735375

>  <s_sd_BIOSOLVEIT.INFINISEE\_REAGENT1\_SMILES>  (1070) 
N(c1c(N)cccc1)C

>  <s_sd_BIOSOLVEIT.INFINISEE\_REAGENT2\_NAME>  (1070) 
EMOL36725275

>  <s_sd_BIOSOLVEIT.INFINISEE\_REAGENT2\_SMILES>  (1070) 
Clc1c2c(ncc1C(=O)O)ccc(F)c2

>  <s_sd_BIOSOLVEIT.INFINISEE\_REAGENT3\_NAME>  (1070) 
EMOL36790511

>  <s_sd_BIOSOLVEIT.INFINISEE\_REAGENT3\_SMILES>  (1070) 
N#CC(Nc1ccccc1)C

>  <s_sd_BIOSOLVEIT.INFINISEE\_SPACE>  (1070) 
eXplore_7tr_2022-12

>  <s_vsw_compound_code>  (1070) 
81346

>  <s_vsw_variant>  (1070) 
81346-4

>  <r_epik_Charging_Adjusted_Penalty>  (1070) 
0.88201840557076505

>  <r_epik_Ionization_Penalty>  (1070) 
0.44230000000000003

>  <r_epik_Ionization_Penalty_Charging>  (1070) 
0.43969999999999998

>  <r_epik_Ionization_Penalty_Neutral>  (1070) 
0.0025999999999999999

>  <r_epik_State_Penalty>  (1070) 
0.44230000000000003

>  <r_i_docking_score>  (1070) 
-4.06295298997816

>  <r_i_glide_ecoul>  (1070) 
-7.3797435760498002

>  <r_i_glide_eff_state_penalty>  (1070) 
0.44230000000000003

>  <r_i_glide_einternal>  (1070) 
7.07063865661621

>  <r_i_glide_emodel>  (1070) 
-55.327781924131301

>  <r_i_glide_energy>  (1070) 
-41.7062892913818

>  <r_i_glide_erotb>  (1070) 
0.51452747811090205

>  <r_i_glide_esite>  (1070) 
-0.154977611291752

>  <r_i_glide_evdw>  (1070) 
-34.326545715332003

>  <r_i_glide_gscore>  (1070) 
-4.5052529899781604

>  <r_i_glide_hbond>  (1070) 
-0.299226430118604

>  <r_i_glide_ligand_efficiency>  (1070) 
-0.12311978757509601

>  <r_i_glide_ligand_efficiency_ln>  (1070) 
-0.90357970812642796

>  <r_i_glide_ligand_efficiency_sa>  (1070) 
-0.39491094488864298

>  <r_i_glide_lipo>  (1070) 
-0.99927349363936602

>  <r_i_glide_metal>  (1070) 
-0

>  <r_i_glide_rewards>  (1070) 
-0.74301411086526503

>  <r_lp_Energy>  (1070) 
47.804841000000003

>  <r_qp_ACxDN^.5/SA>  (1070) 
0.0089224000000000005

>  <r_qp_CIQPlogS>  (1070) 
-8.0709999999999997

>  <r_qp_EA(eV)>  (1070) 
1.45

>  <r_qp_FISA>  (1070) 
94.366

>  <r_qp_FOSA>  (1070) 
164.75899999999999

>  <r_qp_IP(eV)>  (1070) 
8.5180000000000007

>  <r_qp_Jm>  (1070) 
0.0094591620638534192

>  <r_qp_PISA>  (1070) 
366.77100000000002

>  <r_qp_PSA>  (1070) 
79.757999999999996

>  <r_qp_PercentHumanOralAbsorption>  (1070) 
100

>  <r_qp_QPPCaco>  (1070) 
1261.9190000000001

>  <r_qp_QPPMDCK>  (1070) 
1144.654

>  <r_qp_QPlogBB>  (1070) 
-0.60399999999999998

>  <r_qp_QPlogHERG>  (1070) 
-5.6189999999999998

>  <r_qp_QPlogKhsa>  (1070) 
0.68500000000000005

>  <r_qp_QPlogKp>  (1070) 
-1.2949999999999999

>  <r_qp_QPlogPC16>  (1070) 
13.420999999999999

>  <r_qp_QPlogPo/w>  (1070) 
4.8879999999999999

>  <r_qp_QPlogPoct>  (1070) 
20.448

>  <r_qp_QPlogPw>  (1070) 
10.321

>  <r_qp_QPlogS>  (1070) 
-6.3730000000000002

>  <r_qp_QPpolrz>  (1070) 
44.781999999999996

>  <r_qp_SASA>  (1070) 
672.46699999999998

>  <r_qp_SAamideO>  (1070) 
0

>  <r_qp_SAfluorine>  (1070) 
46.572000000000003

>  <r_qp_WPSA>  (1070) 
46.572000000000003

>  <r_qp_accptHB>  (1070) 
6

>  <r_qp_dip^2/V>  (1070) 
0.041371499999999999

>  <r_qp_dipole>  (1070) 
7.327

>  <r_qp_donorHB>  (1070) 
1

>  <r_qp_glob>  (1070) 
0.85554359999999996

>  <r_qp_mol_MW>  (1070) 
439.49099999999999

>  <r_qp_volume>  (1070) 
1297.5429999999999

>  <r_sd_BIOSOLVEIT.INFINISEE\_FTREES\_SIMILARITY>  (1070) 
0.91300000000000003

>  <r_sd_BIOSOLVEIT.LOGP>  (1070) 
5.7180799999999996

>  <r_sd_BIOSOLVEIT.MOLECULAR\_WEIGHT>  (1070) 
439.49200000000002

>  <r_sd_BIOSOLVEIT.TPSA>  (1070) 
81.049999999999997

>  <i_epik_Tot_Q>  (1070) 
1

>  <i_epik_Tot_abs_Q>  (1070) 
1

>  <i_f3d_flags>  (1070) 
0

>  <i_i_glide_confnum>  (1070) 
1

>  <i_i_glide_lignum>  (1070) 
1128

>  <i_i_glide_posenum>  (1070) 
17

>  <i_i_glide_rotatable_bonds>  (1070) 
7

>  <i_lp_mmshare_version>  (1070) 
65135

>  <i_m_ct_format>  (1070) 
2

>  <i_m_source_file_index>  (1070) 
2543

>  <i_qp_#NandO>  (1070) 
6

>  <i_qp_#acid>  (1070) 
0

>  <i_qp_#amide>  (1070) 
0

>  <i_qp_#amidine>  (1070) 
0

>  <i_qp_#amine>  (1070) 
0

>  <i_qp_#in34>  (1070) 
0

>  <i_qp_#in56>  (1070) 
22

>  <i_qp_#metab>  (1070) 
8

>  <i_qp_#nonHatm>  (1070) 
33

>  <i_qp_#noncon>  (1070) 
0

>  <i_qp_#ringatoms>  (1070) 
22

>  <i_qp_#rotor>  (1070) 
7

>  <i_qp_#rtvFG>  (1070) 
0

>  <i_qp_#stars>  (1070) 
0

>  <i_qp_CNS>  (1070) 
0

>  <i_qp_HumanOralAbsorption>  (1070) 
1

>  <i_qp_RuleOfFive>  (1070) 
0

>  <i_qp_RuleOfThree>  (1070) 
2

>  <i_sd_BIOSOLVEIT.INFINISEE\_RESULT\_RANK>  (1070) 
34907

>  <i_sd_version>  (1070) 
0

>  <b_lp_Chiralities_Consistent>  (1070) 
1

>  <b_sd_chiral_flag>  (1070) 
0

>  <canonical_id>  (1070) 
ATP-HTVS-AB4BD250F7B6

>  <compound_code>  (1070) 
81346

>  <title>  (1070) 
rxn512c____EMOL2735375____EMOL36725275____EMOL36790511

>  <variant>  (1070) 
81346-4

>  <source_file>  (1070) 
运行/运行/ATP-VSW/ATP-VSW-DOCK_HTVS_1-002_lib.maegz

>  <canonical_smiles>  (1070) 
C[NH2+]c1ccccc1Nc1c(C(=O)N(c2ccccc2)[C@@H](C)C#N)cnc2ccc(F)cc12

>  <scaffold>  (1070) 
O=C(Nc1ccccc1)c1cnc2ccccc2c1Nc1ccccc1

>  <molecular_formula>  (1070) 
C26H23FN5O+

$$$$
ATP-HTVS-AB5753B8B47E
     RDKit          3D

 49 52  0  0  0  0  0  0  0  0999 V2000
  196.8380  188.0883  160.3453 O   0  0  0  0  0  0  0  0  0  0  0  0
  197.6642  187.7529  159.5212 C   0  0  0  0  0  0  0  0  0  0  0  0
  198.8438  188.3894  159.4108 N   0  0  0  0  0  0  0  0  0  0  0  0
  199.8923  188.0300  158.5297 C   0  0  0  0  0  0  0  0  0  0  0  0
  200.2747  186.6653  158.3138 C   0  0  0  0  0  0  0  0  0  0  0  0
  201.3417  186.3933  157.4305 C   0  0  0  0  0  0  0  0  0  0  0  0
  202.0148  187.4350  156.7575 C   0  0  0  0  0  0  0  0  0  0  0  0
  201.6343  188.7665  156.9688 C   0  0  0  0  0  0  0  0  0  0  0  0
  200.5825  189.0624  157.8563 C   0  0  0  0  0  0  0  0  0  0  0  0
  199.5671  185.5346  159.0958 C   0  0  1  0  0  0  0  0  0  0  0  0
  198.1488  185.3209  158.7239 N   0  0  0  0  0  0  0  0  0  0  0  0
  197.5349  184.4115  159.7165 C   0  0  1  0  0  0  0  0  0  0  0  0
  196.1595  183.8974  159.3387 C   0  0  0  0  0  0  0  0  0  0  0  0
  195.0146  184.5834  159.7886 C   0  0  0  0  0  0  0  0  0  0  0  0
  195.1935  185.6514  160.6220 O   0  0  0  0  0  0  0  0  0  0  0  0
  194.0708  186.4408  161.0002 C   0  0  2  0  0  0  0  0  0  0  0  0
  193.7405  184.1281  159.3365 C   0  0  0  0  0  0  0  0  0  0  0  0
  193.6387  182.9870  158.5272 C   0  0  0  0  0  0  0  0  0  0  0  0
  194.7894  182.2699  158.1480 C   0  0  0  0  0  0  0  0  0  0  0  0
  196.0549  182.7402  158.5363 C   0  0  0  0  0  0  0  0  0  0  0  0
  197.3793  186.5955  158.5318 C   0  0  1  0  0  0  0  0  0  0  0  0
  200.3727  184.2317  159.0387 C   0  0  0  0  0  0  0  0  0  0  0  0
  200.2190  183.3686  157.9492 C   0  0  0  0  0  0  0  0  0  0  0  0
  200.9843  182.1886  157.8407 C   0  0  0  0  0  0  0  0  0  0  0  0
  201.9138  181.8715  158.8506 C   0  0  0  0  0  0  0  0  0  0  0  0
  202.0696  182.7225  159.9639 C   0  0  0  0  0  0  0  0  0  0  0  0
  201.3125  183.9048  160.0634 C   0  0  0  0  0  0  0  0  0  0  0  0
  198.9545  189.2417  159.9547 H   0  0  0  0  0  0  0  0  0  0  0  0
  201.7125  185.3995  157.2292 H   0  0  0  0  0  0  0  0  0  0  0  0
  202.8194  187.1810  156.0901 H   0  0  0  0  0  0  0  0  0  0  0  0
  202.1562  189.5576  156.4513 H   0  0  0  0  0  0  0  0  0  0  0  0
  200.2886  190.0902  158.0102 H   0  0  0  0  0  0  0  0  0  0  0  0
  199.5940  185.8392  160.1309 H   0  0  0  0  0  0  0  0  0  0  0  0
  198.1029  183.4924  159.8661 H   0  0  0  0  0  0  0  0  0  0  0  0
  197.5262  184.8875  160.6909 H   0  0  0  0  0  0  0  0  0  0  0  0
  194.4173  187.3085  161.5646 H   0  0  0  0  0  0  0  0  0  0  0  0
  193.3947  185.8654  161.6348 H   0  0  0  0  0  0  0  0  0  0  0  0
  193.5371  186.8273  160.1386 H   0  0  0  0  0  0  0  0  0  0  0  0
  192.8361  184.6394  159.6176 H   0  0  0  0  0  0  0  0  0  0  0  0
  192.6826  182.6561  158.1490 H   0  0  0  0  0  0  0  0  0  0  0  0
  194.6991  181.3943  157.5145 H   0  0  0  0  0  0  0  0  0  0  0  0
  196.9359  182.2105  158.1990 H   0  0  0  0  0  0  0  0  0  0  0  0
  196.2973  186.4311  158.4838 H   0  0  0  0  0  0  0  0  0  0  0  0
  197.6278  186.9651  157.5341 H   0  0  0  0  0  0  0  0  0  0  0  0
  199.5107  183.6217  157.1694 H   0  0  0  0  0  0  0  0  0  0  0  0
  200.8523  181.5505  156.9791 H   0  0  0  0  0  0  0  0  0  0  0  0
  202.4972  180.9671  158.7647 H   0  0  0  0  0  0  0  0  0  0  0  0
  202.7849  182.4794  160.7343 H   0  0  0  0  0  0  0  0  0  0  0  0
  201.4522  184.5643  160.9046 H   0  0  0  0  0  0  0  0  0  0  0  0
  1  2  2  0
  2  3  1  0
  2 21  1  0
  3  4  1  0
  3 28  1  0
  4  5  1  0
  4  9  2  0
  5  6  2  0
  5 10  1  0
  6  7  1  0
  6 29  1  0
  7  8  2  0
  7 30  1  0
  8  9  1  0
  8 31  1  0
  9 32  1  0
 10 11  1  0
 10 22  1  0
 10 33  1  1
 11 12  1  0
 11 21  1  0
 12 13  1  0
 12 34  1  1
 12 35  1  0
 13 14  1  0
 13 20  2  0
 14 15  1  0
 14 17  2  0
 15 16  1  0
 16 36  1  1
 16 37  1  0
 16 38  1  0
 17 18  1  0
 17 39  1  0
 18 19  2  0
 18 40  1  0
 19 20  1  0
 19 41  1  0
 20 42  1  0
 21 43  1  6
 21 44  1  0
 22 23  2  0
 22 27  1  0
 23 24  1  0
 23 45  1  0
 24 25  2  0
 24 46  1  0
 25 26  1  0
 25 47  1  0
 26 27  2  0
 26 48  1  0
 27 49  1  0
M  END
>  <s_epik_cmdline>  (1071) 
J2VwaWtfcHl0aG9uJywgJy1waCcsICc3LjAwMDAwMCcsICctcGh0JywgJzIuMDAwMDAwJywgJy1tcycsICcxNicsICctdG4nLCAnOCcsICctbWEnLCAnMjAwJywgJy1pbWFlJywgJzxpbmZpbGUubWFlPicsICctb21hZScsICc8b3V0ZmlsZS5tYWU+Jw==

>  <s_epik_input>  (1071) 
W2NIXTFbY0hdW2NIXVtjSF1bY0hdYzFbQ0BASF0oYyhjMjMpW2NIXVtjSF1bY0hdW2NIXTMpTihbQ0gyXUMoPU8pW05IXTIpW0NIMl1jNGMoT1tDSDNdKVtjSF1bY0hdW2NIXVtjSF00

>  <s_i_glide_gridfile>  (1071) 
ATP-Grid

>  <s_lp_Force_Field>  (1071) 
OPLS_2005

>  <s_lp_Variant>  (1071) 
m_2230bdc____17849930____680324-2

>  <s_lp_label>  (1071) 
1274_sdstereoexpander_2_neutralizer_1_epik_1_stereoizer_1

>  <s_m_source_file>  (1071) 
ATP-VSW-LIGPREP-001-in.maegz

>  <s_sd_BIOSOLVEIT.INFINISEE\_QUERY\_NAME>  (1071) 
Ref-Lig

>  <s_sd_BIOSOLVEIT.INFINISEE\_QUERY\_SMILES>  (1071) 
S(c1nc2c(cc1C[NH2+]Cc3ccc(cc3)C[NH+](C)C)cccc2)Cc4ccccc4

>  <s_sd_BIOSOLVEIT.INFINISEE\_REACTION\_NAME>  (1071) 
m_2230bdc

>  <s_sd_BIOSOLVEIT.INFINISEE\_REAGENT1\_SMILES>  (1071) 
[R1*]N1C(c2c(NC(=O)C1)cccc2)c3ccccc3

>  <s_sd_BIOSOLVEIT.INFINISEE\_REAGENT2\_SMILES>  (1071) 
[R1*]Cc1c(OC)cccc1

>  <s_sd_BIOSOLVEIT.INFINISEE\_SPACE>  (1071) 
REALSpace_44bn_2023-08

>  <s_vsw_compound_code>  (1071) 
40737

>  <s_vsw_variant>  (1071) 
40737-2

>  <r_epik_Charging_Adjusted_Penalty>  (1071) 
0.0087634984339075902

>  <r_epik_Ionization_Penalty>  (1071) 
0.0088000000000000005

>  <r_epik_Ionization_Penalty_Charging>  (1071) 
0

>  <r_epik_Ionization_Penalty_Neutral>  (1071) 
0.0088000000000000005

>  <r_epik_State_Penalty>  (1071) 
0.0088000000000000005

>  <r_i_docking_score>  (1071) 
-1.7589779599005799

>  <r_i_glide_ecoul>  (1071) 
-1.13044416904449

>  <r_i_glide_eff_state_penalty>  (1071) 
0.0088000000000000005

>  <r_i_glide_einternal>  (1071) 
0.72298252582550004

>  <r_i_glide_emodel>  (1071) 
-31.520377328943901

>  <r_i_glide_energy>  (1071) 
-28.794016480445901

>  <r_i_glide_erotb>  (1071) 
0.44730476290996002

>  <r_i_glide_esite>  (1071) 
-0.0338570383903928

>  <r_i_glide_evdw>  (1071) 
-27.663572311401399

>  <r_i_glide_gscore>  (1071) 
-1.7677779599005801

>  <r_i_glide_hbond>  (1071) 
0

>  <r_i_glide_ligand_efficiency>  (1071) 
-0.065147331848169607

>  <r_i_glide_ligand_efficiency_ln>  (1071) 
-0.40946107004679

>  <r_i_glide_ligand_efficiency_sa>  (1071) 
-0.195441995329794

>  <r_i_glide_lipo>  (1071) 
-1.57127161401195

>  <r_i_glide_metal>  (1071) 
-0

>  <r_i_glide_rewards>  (1071) 
0.942791170518544

>  <r_lp_Energy>  (1071) 
42.100636000000002

>  <r_lp_tautomer_probability>  (1071) 
1

>  <r_qp_ACxDN^.5/SA>  (1071) 
0.0082328999999999996

>  <r_qp_CIQPlogS>  (1071) 
-4.3040000000000003

>  <r_qp_EA(eV)>  (1071) 
0.25

>  <r_qp_FISA>  (1071) 
53.893000000000001

>  <r_qp_FOSA>  (1071) 
131.619

>  <r_qp_IP(eV)>  (1071) 
8.8989999999999991

>  <r_qp_Jm>  (1071) 
0.039269578013963698

>  <r_qp_PISA>  (1071) 
452.17500000000001

>  <r_qp_PSA>  (1071) 
47.658999999999999

>  <r_qp_PercentHumanOralAbsorption>  (1071) 
100

>  <r_qp_QPPCaco>  (1071) 
761.61000000000001

>  <r_qp_QPPMDCK>  (1071) 
407.75200000000001

>  <r_qp_QPlogBB>  (1071) 
0.26800000000000002

>  <r_qp_QPlogHERG>  (1071) 
-7.0590000000000002

>  <r_qp_QPlogKhsa>  (1071) 
0.622

>  <r_qp_QPlogKp>  (1071) 
-2.694

>  <r_qp_QPlogPC16>  (1071) 
12.776

>  <r_qp_QPlogPo/w>  (1071) 
3.992

>  <r_qp_QPlogPoct>  (1071) 
18.611000000000001

>  <r_qp_QPlogPw>  (1071) 
10.67

>  <r_qp_QPlogS>  (1071) 
-4.266

>  <r_qp_QPpolrz>  (1071) 
42.603999999999999

>  <r_qp_SASA>  (1071) 
637.68600000000004

>  <r_qp_SAamideO>  (1071) 
0

>  <r_qp_SAfluorine>  (1071) 
0

>  <r_qp_WPSA>  (1071) 
0

>  <r_qp_accptHB>  (1071) 
5.25

>  <r_qp_dip^2/V>  (1071) 
0.013458599999999999

>  <r_qp_dipole>  (1071) 
3.9489999999999998

>  <r_qp_donorHB>  (1071) 
1

>  <r_qp_glob>  (1071) 
0.83657530000000002

>  <r_qp_mol_MW>  (1071) 
358.43900000000002

>  <r_qp_volume>  (1071) 
1158.566

>  <r_sd_BIOSOLVEIT.INFINISEE\_FTREES\_SIMILARITY>  (1071) 
0.91000000000000003

>  <r_sd_BIOSOLVEIT.LOGP>  (1071) 
2.8218000000000001

>  <r_sd_BIOSOLVEIT.MOLECULAR\_WEIGHT>  (1071) 
359.447

>  <r_sd_BIOSOLVEIT.TPSA>  (1071) 
42.770000000000003

>  <i_epik_Tot_Q>  (1071) 
0

>  <i_epik_Tot_abs_Q>  (1071) 
0

>  <i_f3d_flags>  (1071) 
0

>  <i_i_glide_confnum>  (1071) 
4

>  <i_i_glide_lignum>  (1071) 
348

>  <i_i_glide_posenum>  (1071) 
5

>  <i_i_glide_rotatable_bonds>  (1071) 
4

>  <i_lp_mmshare_version>  (1071) 
65135

>  <i_m_ct_format>  (1071) 
2

>  <i_m_source_file_index>  (1071) 
1274

>  <i_qp_#NandO>  (1071) 
4

>  <i_qp_#acid>  (1071) 
0

>  <i_qp_#amide>  (1071) 
0

>  <i_qp_#amidine>  (1071) 
0

>  <i_qp_#amine>  (1071) 
1

>  <i_qp_#in34>  (1071) 
0

>  <i_qp_#in56>  (1071) 
18

>  <i_qp_#metab>  (1071) 
8

>  <i_qp_#nonHatm>  (1071) 
27

>  <i_qp_#noncon>  (1071) 
2

>  <i_qp_#ringatoms>  (1071) 
23

>  <i_qp_#rotor>  (1071) 
3

>  <i_qp_#rtvFG>  (1071) 
0

>  <i_qp_#stars>  (1071) 
1

>  <i_qp_CNS>  (1071) 
1

>  <i_qp_HumanOralAbsorption>  (1071) 
3

>  <i_qp_RuleOfFive>  (1071) 
0

>  <i_qp_RuleOfThree>  (1071) 
1

>  <i_sd_BIOSOLVEIT.INFINISEE\_REAGENT1\_NAME>  (1071) 
17849930

>  <i_sd_BIOSOLVEIT.INFINISEE\_REAGENT2\_NAME>  (1071) 
680324

>  <i_sd_BIOSOLVEIT.INFINISEE\_RESULT\_RANK>  (1071) 
45113

>  <i_sd_version>  (1071) 
0

>  <b_lp_Chiralities_Consistent>  (1071) 
1

>  <b_sd_chiral_flag>  (1071) 
0

>  <canonical_id>  (1071) 
ATP-HTVS-AB5753B8B47E

>  <compound_code>  (1071) 
40737

>  <title>  (1071) 
m_2230bdc____17849930____680324

>  <variant>  (1071) 
40737-2

>  <source_file>  (1071) 
运行/运行/ATP-VSW/ATP-VSW-DOCK_HTVS_1-001_lib/ATP-VSW-DOCK_HTVS_1-001_lib

>  <canonical_smiles>  (1071) 
COc1ccccc1CN1CC(=O)Nc2ccccc2[C@@H]1c1ccccc1

>  <scaffold>  (1071) 
O=C1CN(Cc2ccccc2)C(c2ccccc2)c2ccccc2N1

>  <molecular_formula>  (1071) 
C23H22N2O2

$$$$
ATP-HTVS-AB5D2E649063
     RDKit          3D

 63 65  0  0  0  0  0  0  0  0999 V2000
  200.7264  186.5652  159.7285 O   0  0  0  0  0  0  0  0  0  0  0  0
  199.6865  186.0591  159.2804 C   0  0  0  0  0  0  0  0  0  0  0  0
  199.6013  184.6884  159.2149 N   0  0  0  0  0  0  0  0  0  0  0  0
  198.7290  183.8974  158.3963 C   0  0  0  0  0  0  0  0  0  0  0  0
  197.9131  182.9964  159.0277 N   0  0  0  0  0  0  0  0  0  0  0  0
  196.9133  182.3358  158.3989 C   0  0  0  0  0  0  0  0  0  0  0  0
  196.6330  182.6524  157.0493 C   0  0  0  0  0  0  0  0  0  0  0  0
  197.4694  183.5585  156.3513 C   0  0  0  0  0  0  0  0  0  0  0  0
  197.1542  183.9860  155.0459 N   0  0  0  0  0  0  0  0  0  0  0  0
  197.0090  182.9492  154.0357 C   0  0  1  0  0  0  0  0  0  0  0  0
  197.6915  181.6192  154.3389 C   0  0  0  0  0  0  0  0  0  0  0  0
  199.0496  181.4348  154.0227 C   0  0  0  0  0  0  0  0  0  0  0  0
  199.6812  180.2120  154.3153 C   0  0  0  0  0  0  0  0  0  0  0  0
  198.9632  179.1668  154.9347 C   0  0  0  0  0  0  0  0  0  0  0  0
  197.6163  179.3635  155.2864 C   0  0  0  0  0  0  0  0  0  0  0  0
  196.9836  180.5719  154.9637 C   0  0  0  0  0  0  0  0  0  0  0  0
  199.6664  177.8624  155.2835 C   0  0  1  0  0  0  0  0  0  0  0  0
  199.9411  177.7222  156.7365 N   0  0  1  0  0  0  0  0  0  0  0  0
  200.8420  176.5774  157.0399 C   0  0  2  0  0  0  0  0  0  0  0  0
  200.4514  178.9742  157.3449 C   0  0  2  0  0  0  0  0  0  0  0  0
  198.5537  184.1473  157.0337 C   0  0  0  0  0  0  0  0  0  0  0  0
  200.5862  183.8875  159.9026 C   0  0  2  0  0  0  0  0  0  0  0  0
  198.5575  187.0668  158.8348 C   0  0  1  0  0  0  0  0  0  0  0  0
  198.5699  187.2409  157.4251 O   0  0  0  0  0  0  0  0  0  0  0  0
  197.1671  186.6086  159.3451 C   0  0  0  0  0  0  0  0  0  0  0  0
  196.4856  185.5519  158.7539 C   0  0  0  0  0  0  0  0  0  0  0  0
  195.3556  184.8807  159.1797 C   0  0  0  0  0  0  0  0  0  0  0  0
  194.6872  185.4796  160.2027 C   0  0  0  0  0  0  0  0  0  0  0  0
  195.2111  186.6538  160.7716 C   0  0  0  0  0  0  0  0  0  0  0  0
  196.4507  187.1999  160.3719 C   0  0  0  0  0  0  0  0  0  0  0  0
  198.8833  188.4907  159.3628 C   0  0  2  0  0  0  0  0  0  0  0  0
  196.3131  181.6441  158.9856 H   0  0  0  0  0  0  0  0  0  0  0  0
  195.7848  182.1709  156.5827 H   0  0  0  0  0  0  0  0  0  0  0  0
  197.4755  184.8922  154.7217 H   0  0  0  0  0  0  0  0  0  0  0  0
  195.9507  182.7803  153.8328 H   0  0  0  0  0  0  0  0  0  0  0  0
  197.4378  183.3300  153.1067 H   0  0  0  0  0  0  0  0  0  0  0  0
  199.6034  182.2243  153.5392 H   0  0  0  0  0  0  0  0  0  0  0  0
  200.7217  180.0805  154.0605 H   0  0  0  0  0  0  0  0  0  0  0  0
  197.0577  178.5882  155.7915 H   0  0  0  0  0  0  0  0  0  0  0  0
  195.9484  180.6959  155.2370 H   0  0  0  0  0  0  0  0  0  0  0  0
  199.0634  177.0235  154.9362 H   0  0  0  0  0  0  0  0  0  0  0  0
  200.6002  177.8277  154.7231 H   0  0  0  0  0  0  0  0  0  0  0  0
  201.8104  176.6922  156.5566 H   0  0  0  0  0  0  0  0  0  0  0  0
  200.4083  175.6417  156.6981 H   0  0  0  0  0  0  0  0  0  0  0  0
  201.0052  176.4980  158.1137 H   0  0  0  0  0  0  0  0  0  0  0  0
  201.4023  179.2643  156.9015 H   0  0  0  0  0  0  0  0  0  0  0  0
  200.5817  178.8523  158.4149 H   0  0  0  0  0  0  0  0  0  0  0  0
  199.7429  179.7912  157.2056 H   0  0  0  0  0  0  0  0  0  0  0  0
  198.9972  185.0319  156.5883 H   0  0  0  0  0  0  0  0  0  0  0  0
  200.3258  182.8303  159.8626 H   0  0  0  0  0  0  0  0  0  0  0  0
  200.6911  184.1696  160.9489 H   0  0  0  0  0  0  0  0  0  0  0  0
  201.5348  184.0091  159.3860 H   0  0  0  0  0  0  0  0  0  0  0  0
  198.3164  186.4316  157.0138 H   0  0  0  0  0  0  0  0  0  0  0  0
  196.8198  185.1299  157.9028 H   0  0  0  0  0  0  0  0  0  0  0  0
  195.0377  183.9706  158.6700 H   0  0  0  0  0  0  0  0  0  0  0  0
  193.7540  185.0438  160.4782 H   0  0  0  0  0  0  0  0  0  0  0  0
  194.6629  187.1308  161.5283 H   0  0  0  0  0  0  0  0  0  0  0  0
  196.8278  188.0858  160.8285 H   0  0  0  0  0  0  0  0  0  0  0  0
  199.0218  188.4909  160.4455 H   0  0  0  0  0  0  0  0  0  0  0  0
  198.0846  189.1985  159.1383 H   0  0  0  0  0  0  0  0  0  0  0  0
  199.8005  188.9010  158.9380 H   0  0  0  0  0  0  0  0  0  0  0  0
  197.9642  182.8501  160.0417 H   0  0  0  0  0  0  0  0  0  0  0  0
  199.0531  177.5305  157.1841 H   0  0  0  0  0  0  0  0  0  0  0  0
  1  2  2  0
  2  3  1  0
  2 23  1  0
  3  4  1  0
  3 22  1  0
  4  5  1  0
  4 21  2  0
  5  6  2  0
  5 62  1  0
  6  7  1  0
  6 32  1  0
  7  8  2  0
  7 33  1  0
  8  9  1  0
  8 21  1  0
  9 10  1  0
  9 34  1  0
 10 11  1  0
 10 35  1  6
 10 36  1  0
 11 12  1  0
 11 16  2  0
 12 13  2  0
 12 37  1  0
 13 14  1  0
 13 38  1  0
 14 15  2  0
 14 17  1  0
 15 16  1  0
 15 39  1  0
 16 40  1  0
 17 18  1  0
 17 41  1  6
 17 42  1  0
 18 19  1  0
 18 20  1  0
 18 63  1  1
 19 43  1  6
 19 44  1  0
 19 45  1  0
 20 46  1  6
 20 47  1  0
 20 48  1  0
 21 49  1  0
 22 50  1  1
 22 51  1  0
 22 52  1  0
 23 24  1  6
 23 25  1  0
 23 31  1  0
 24 53  1  0
 25 26  2  0
 25 30  1  0
 26 27  1  0
 26 54  1  0
 27 28  2  0
 27 55  1  0
 28 29  1  0
 28 56  1  0
 29 30  2  0
 29 57  1  0
 30 58  1  0
 31 59  1  1
 31 60  1  0
 31 61  1  0
M  CHG  2   5   1  18   1
M  END
>  <s_epik_cmdline>  (1072) 
J2VwaWtfcHl0aG9uJywgJy1waCcsICc3LjAwMDAwMCcsICctcGh0JywgJzIuMDAwMDAwJywgJy1tcycsICcxNicsICctdG4nLCAnOCcsICctbWEnLCAnMjAwJywgJy1pbWFlJywgJzxpbmZpbGUubWFlPicsICctb21hZScsICc8b3V0ZmlsZS5tYWU+Jw==

>  <s_epik_input>  (1072) 
W2NIXTFbY0hdW2NIXVtjSF1bY0hdYzFbQ0BAXShbT0hdKShbQ0gzXSlDKD1PKU4oW0NIM10pYzJuW2NIXVtjSF1jKFtjSF0yKVtOSF1bQ0gyXWMzW2NIXVtjSF1jKFtjSF1bY0hdMylbQ0gyXU4oW0NIM10pW0NIM10=

>  <s_i_glide_gridfile>  (1072) 
ATP-Grid

>  <s_lp_Force_Field>  (1072) 
OPLS_2005

>  <s_lp_Variant>  (1072) 
rxn502a____EMOL299976369____EMOL45981693____EMOL50155899-2

>  <s_lp_label>  (1072) 
2939_sdstereoexpander_2_neutralizer_1_epik_1_stereoizer_1

>  <s_m_source_file>  (1072) 
ATP-VSW-LIGPREP-003-in.maegz

>  <s_sd_BIOSOLVEIT.INFINISEE\_QUERY\_NAME>  (1072) 
Ref-Lig

>  <s_sd_BIOSOLVEIT.INFINISEE\_QUERY\_SMILES>  (1072) 
S(c1nc2c(cc1C[NH2+]Cc3ccc(cc3)C[NH+](C)C)cccc2)Cc4ccccc4

>  <s_sd_BIOSOLVEIT.INFINISEE\_REACTION\_NAME>  (1072) 
rxn502a

>  <s_sd_BIOSOLVEIT.INFINISEE\_REAGENT1\_NAME>  (1072) 
EMOL299976369

>  <s_sd_BIOSOLVEIT.INFINISEE\_REAGENT1\_SMILES>  (1072) 
O=C(O)C(O)(c1ccccc1)C

>  <s_sd_BIOSOLVEIT.INFINISEE\_REAGENT2\_NAME>  (1072) 
EMOL45981693

>  <s_sd_BIOSOLVEIT.INFINISEE\_REAGENT2\_SMILES>  (1072) 
Ic1cc(ncc1)NC

>  <s_sd_BIOSOLVEIT.INFINISEE\_REAGENT3\_NAME>  (1072) 
EMOL50155899

>  <s_sd_BIOSOLVEIT.INFINISEE\_REAGENT3\_SMILES>  (1072) 
N(Cc1ccc(cc1)CN)(C)C

>  <s_sd_BIOSOLVEIT.INFINISEE\_SPACE>  (1072) 
eXplore_7tr_2022-12

>  <s_vsw_compound_code>  (1072) 
94019

>  <s_vsw_variant>  (1072) 
94019-2

>  <r_epik_Charging_Adjusted_Penalty>  (1072) 
0.101659132916483

>  <r_epik_Ionization_Penalty>  (1072) 
0.050799999999999998

>  <r_epik_Ionization_Penalty_Charging>  (1072) 
0.050799999999999998

>  <r_epik_Ionization_Penalty_Neutral>  (1072) 
0

>  <r_epik_State_Penalty>  (1072) 
0.050799999999999998

>  <r_i_docking_score>  (1072) 
-5.3268596997033502

>  <r_i_glide_ecoul>  (1072) 
-11.6439924240112

>  <r_i_glide_eff_state_penalty>  (1072) 
0.050799999999999998

>  <r_i_glide_einternal>  (1072) 
8.2416210174560494

>  <r_i_glide_emodel>  (1072) 
-64.229121407671897

>  <r_i_glide_energy>  (1072) 
-44.4492025375366

>  <r_i_glide_erotb>  (1072) 
0.78341034321874403

>  <r_i_glide_esite>  (1072) 
-0.093986964268861203

>  <r_i_glide_evdw>  (1072) 
-32.805210113525398

>  <r_i_glide_gscore>  (1072) 
-5.3776596997033499

>  <r_i_glide_hbond>  (1072) 
-0.20000000000000001

>  <r_i_glide_ligand_efficiency>  (1072) 
-0.17183418386139801

>  <r_i_glide_ligand_efficiency_ln>  (1072) 
-1.2013701109274799

>  <r_i_glide_ligand_efficiency_sa>  (1072) 
-0.53979657998377695

>  <r_i_glide_lipo>  (1072) 
-1.5466469148336599

>  <r_i_glide_metal>  (1072) 
-0

>  <r_i_glide_rewards>  (1072) 
-0.93357679454161602

>  <r_lp_Energy>  (1072) 
48.843387999999997

>  <r_lp_tautomer_probability>  (1072) 
0.9999999999368

>  <r_qp_ACxDN^.5/SA>  (1072) 
0.0142349

>  <r_qp_CIQPlogS>  (1072) 
-4.6280000000000001

>  <r_qp_EA(eV)>  (1072) 
0.41699999999999998

>  <r_qp_FISA>  (1072) 
62.896999999999998

>  <r_qp_FOSA>  (1072) 
354.25299999999999

>  <r_qp_IP(eV)>  (1072) 
8.984

>  <r_qp_Jm>  (1072) 
0.020065034475320299

>  <r_qp_PISA>  (1072) 
352.80200000000002

>  <r_qp_PSA>  (1072) 
68.117999999999995

>  <r_qp_PercentHumanOralAbsorption>  (1072) 
100

>  <r_qp_QPPCaco>  (1072) 
625.67399999999998

>  <r_qp_QPPMDCK>  (1072) 
329.69

>  <r_qp_QPlogBB>  (1072) 
-0.253

>  <r_qp_QPlogHERG>  (1072) 
-7.3460000000000001

>  <r_qp_QPlogKhsa>  (1072) 
0.502

>  <r_qp_QPlogKp>  (1072) 
-2.6339999999999999

>  <r_qp_QPlogPC16>  (1072) 
14.782

>  <r_qp_QPlogPo/w>  (1072) 
4.1980000000000004

>  <r_qp_QPlogPoct>  (1072) 
23.135000000000002

>  <r_qp_QPlogPw>  (1072) 
12.977

>  <r_qp_QPlogS>  (1072) 
-4.6849999999999996

>  <r_qp_QPpolrz>  (1072) 
47.840000000000003

>  <r_qp_SASA>  (1072) 
769.952

>  <r_qp_SAamideO>  (1072) 
0

>  <r_qp_SAfluorine>  (1072) 
0

>  <r_qp_WPSA>  (1072) 
0

>  <r_qp_accptHB>  (1072) 
7.75

>  <r_qp_dip^2/V>  (1072) 
0.036795000000000001

>  <r_qp_dipole>  (1072) 
7.2009999999999996

>  <r_qp_donorHB>  (1072) 
2

>  <r_qp_glob>  (1072) 
0.78956729999999997

>  <r_qp_mol_MW>  (1072) 
418.53800000000001

>  <r_qp_volume>  (1072) 
1409.3920000000001

>  <r_sd_BIOSOLVEIT.INFINISEE\_FTREES\_SIMILARITY>  (1072) 
0.90400000000000003

>  <r_sd_BIOSOLVEIT.LOGP>  (1072) 
2.2086999999999999

>  <r_sd_BIOSOLVEIT.MOLECULAR\_WEIGHT>  (1072) 
419.54599999999999

>  <r_sd_BIOSOLVEIT.TPSA>  (1072) 
69.900000000000006

>  <i_epik_Tot_Q>  (1072) 
2

>  <i_epik_Tot_abs_Q>  (1072) 
2

>  <i_f3d_flags>  (1072) 
0

>  <i_i_glide_confnum>  (1072) 
1

>  <i_i_glide_lignum>  (1072) 
1453

>  <i_i_glide_posenum>  (1072) 
11

>  <i_i_glide_rotatable_bonds>  (1072) 
10

>  <i_lp_mmshare_version>  (1072) 
65135

>  <i_m_ct_format>  (1072) 
2

>  <i_m_source_file_index>  (1072) 
2939

>  <i_qp_#NandO>  (1072) 
6

>  <i_qp_#acid>  (1072) 
0

>  <i_qp_#amide>  (1072) 
0

>  <i_qp_#amidine>  (1072) 
0

>  <i_qp_#amine>  (1072) 
1

>  <i_qp_#in34>  (1072) 
0

>  <i_qp_#in56>  (1072) 
18

>  <i_qp_#metab>  (1072) 
9

>  <i_qp_#nonHatm>  (1072) 
31

>  <i_qp_#noncon>  (1072) 
0

>  <i_qp_#ringatoms>  (1072) 
18

>  <i_qp_#rotor>  (1072) 
9

>  <i_qp_#rtvFG>  (1072) 
0

>  <i_qp_#stars>  (1072) 
1

>  <i_qp_CNS>  (1072) 
1

>  <i_qp_HumanOralAbsorption>  (1072) 
3

>  <i_qp_RuleOfFive>  (1072) 
0

>  <i_qp_RuleOfThree>  (1072) 
1

>  <i_sd_BIOSOLVEIT.INFINISEE\_RESULT\_RANK>  (1072) 
79057

>  <i_sd_version>  (1072) 
0

>  <b_lp_Chiralities_Consistent>  (1072) 
1

>  <b_sd_chiral_flag>  (1072) 
0

>  <canonical_id>  (1072) 
ATP-HTVS-AB5D2E649063

>  <compound_code>  (1072) 
94019

>  <title>  (1072) 
rxn502a____EMOL299976369____EMOL45981693____EMOL50155899

>  <variant>  (1072) 
94019-2

>  <source_file>  (1072) 
运行/运行/ATP-VSW/ATP-VSW-DOCK_HTVS_1-003_lib/ATP-VSW-DOCK_HTVS_1-003_lib.mae

>  <canonical_smiles>  (1072) 
CN(C(=O)[C@@](C)(O)c1ccccc1)c1cc(NCc2ccc(C[NH+](C)C)cc2)cc[nH+]1

>  <scaffold>  (1072) 
O=C(Cc1ccccc1)Nc1cc(NCc2ccccc2)cc[nH+]1

>  <molecular_formula>  (1072) 
C25H32N4O2+2

$$$$
ATP-HTVS-AB6A0F8FBF12
     RDKit          3D

 65 68  0  0  0  0  0  0  0  0999 V2000
  199.4315  184.7533  158.8212 S   0  0  1  0  0  0  0  0  0  0  0  0
  199.7956  183.4508  159.3907 O   0  0  0  0  0  0  0  0  0  0  0  0
  198.9341  185.8222  159.7072 O   0  0  0  0  0  0  0  0  0  0  0  0
  200.8036  185.3778  157.9949 N   0  0  0  0  0  0  0  0  0  0  0  0
  202.0125  185.6605  158.7677 C   0  0  2  0  0  0  0  0  0  0  0  0
  198.2355  184.5146  157.4629 C   0  0  1  0  0  0  0  0  0  0  0  0
  196.8896  184.0144  157.9763 C   0  0  0  0  0  0  0  0  0  0  0  0
  196.4258  182.6781  157.8210 C   0  0  0  0  0  0  0  0  0  0  0  0
  195.1353  182.3441  158.2964 C   0  0  0  0  0  0  0  0  0  0  0  0
  194.3258  183.3048  158.9313 C   0  0  0  0  0  0  0  0  0  0  0  0
  194.8022  184.6128  159.1191 C   0  0  0  0  0  0  0  0  0  0  0  0
  196.0699  184.9617  158.6277 C   0  0  0  0  0  0  0  0  0  0  0  0
  197.2207  181.5744  157.1376 C   0  0  1  0  0  0  0  0  0  0  0  0
  196.7168  181.3647  155.7622 N   0  0  1  0  0  0  0  0  0  0  0  0
  197.6776  180.7174  154.8500 C   0  0  1  0  0  0  0  0  0  0  0  0
  197.2294  180.8304  153.4123 C   0  0  0  0  0  0  0  0  0  0  0  0
  197.3433  181.9201  152.4863 C   0  0  0  0  0  0  0  0  0  0  0  0
  196.8830  181.5925  151.2885 N   0  0  0  0  0  0  0  0  0  0  0  0
  196.4954  180.3053  151.3921 N   0  0  0  0  0  0  0  0  0  0  0  0
  196.6531  179.8365  152.6739 C   0  0  0  0  0  0  0  0  0  0  0  0
  196.0215  179.5883  150.2226 C   0  0  1  0  0  0  0  0  0  0  0  0
  197.0891  178.7095  149.5768 C   0  0  0  0  0  0  0  0  0  0  0  0
  197.0974  178.5365  148.1740 C   0  0  0  0  0  0  0  0  0  0  0  0
  198.0556  177.7008  147.5655 C   0  0  0  0  0  0  0  0  0  0  0  0
  199.0093  177.0278  148.3519 C   0  0  0  0  0  0  0  0  0  0  0  0
  198.9998  177.1920  149.7500 C   0  0  0  0  0  0  0  0  0  0  0  0
  198.0450  178.0227  150.3585 C   0  0  0  0  0  0  0  0  0  0  0  0
  197.8917  183.2758  152.6727 C   0  0  0  0  0  0  0  0  0  0  0  0
  198.6270  183.9087  151.6363 C   0  0  0  0  0  0  0  0  0  0  0  0
  199.1459  185.2144  151.8271 C   0  0  0  0  0  0  0  0  0  0  0  0
  198.9265  185.8762  153.0541 C   0  0  0  0  0  0  0  0  0  0  0  0
  198.1694  185.2667  154.0608 C   0  0  0  0  0  0  0  0  0  0  0  0
  197.6613  183.9756  153.8768 C   0  0  0  0  0  0  0  0  0  0  0  0
  199.4703  187.2608  153.3105 C   0  0  2  0  0  0  0  0  0  0  0  0
  195.8564  180.8268  155.8110 H   0  0  0  0  0  0  0  0  0  0  0  0
  200.5523  186.2005  157.4477 H   0  0  0  0  0  0  0  0  0  0  0  0
  202.8180  185.9995  158.1136 H   0  0  0  0  0  0  0  0  0  0  0  0
  202.3376  184.7643  159.2958 H   0  0  0  0  0  0  0  0  0  0  0  0
  201.8024  186.4419  159.4973 H   0  0  0  0  0  0  0  0  0  0  0  0
  198.0748  185.5165  157.0613 H   0  0  0  0  0  0  0  0  0  0  0  0
  198.6984  183.9090  156.6809 H   0  0  0  0  0  0  0  0  0  0  0  0
  194.7462  181.3425  158.1678 H   0  0  0  0  0  0  0  0  0  0  0  0
  193.3347  183.0418  159.2822 H   0  0  0  0  0  0  0  0  0  0  0  0
  194.1840  185.3467  159.6190 H   0  0  0  0  0  0  0  0  0  0  0  0
  196.3986  185.9840  158.7514 H   0  0  0  0  0  0  0  0  0  0  0  0
  198.2827  181.8106  157.1288 H   0  0  0  0  0  0  0  0  0  0  0  0
  197.1498  180.6427  157.6987 H   0  0  0  0  0  0  0  0  0  0  0  0
  198.6610  181.1792  154.9543 H   0  0  0  0  0  0  0  0  0  0  0  0
  197.8125  179.6806  155.1599 H   0  0  0  0  0  0  0  0  0  0  0  0
  196.3992  178.8236  152.9387 H   0  0  0  0  0  0  0  0  0  0  0  0
  195.1422  179.0376  150.5361 H   0  0  0  0  0  0  0  0  0  0  0  0
  195.6571  180.2893  149.4816 H   0  0  0  0  0  0  0  0  0  0  0  0
  196.3603  179.0312  147.5537 H   0  0  0  0  0  0  0  0  0  0  0  0
  198.0534  177.5645  146.4901 H   0  0  0  0  0  0  0  0  0  0  0  0
  199.7493  176.3872  147.8933 H   0  0  0  0  0  0  0  0  0  0  0  0
  199.7188  176.6774  150.3708 H   0  0  0  0  0  0  0  0  0  0  0  0
  198.0723  178.0879  151.4340 H   0  0  0  0  0  0  0  0  0  0  0  0
  198.7765  183.4096  150.6843 H   0  0  0  0  0  0  0  0  0  0  0  0
  199.6896  185.6981  151.0266 H   0  0  0  0  0  0  0  0  0  0  0  0
  197.9586  185.8052  154.9744 H   0  0  0  0  0  0  0  0  0  0  0  0
  197.0571  183.5652  154.6635 H   0  0  0  0  0  0  0  0  0  0  0  0
  199.8621  187.3271  154.3283 H   0  0  0  0  0  0  0  0  0  0  0  0
  198.6644  187.9886  153.2165 H   0  0  0  0  0  0  0  0  0  0  0  0
  200.2706  187.5087  152.6151 H   0  0  0  0  0  0  0  0  0  0  0  0
  196.4801  182.2579  155.3687 H   0  0  0  0  0  0  0  0  0  0  0  0
  1  2  2  0
  1  3  2  0
  1  4  1  6
  1  6  1  0
  4  5  1  0
  4 36  1  0
  5 37  1  6
  5 38  1  0
  5 39  1  0
  6  7  1  0
  6 40  1  6
  6 41  1  0
  7  8  1  0
  7 12  2  0
  8  9  2  0
  8 13  1  0
  9 10  1  0
  9 42  1  0
 10 11  2  0
 10 43  1  0
 11 12  1  0
 11 44  1  0
 12 45  1  0
 13 14  1  0
 13 46  1  6
 13 47  1  0
 14 15  1  0
 14 35  1  1
 14 65  1  0
 15 16  1  0
 15 48  1  6
 15 49  1  0
 16 17  1  0
 16 20  2  0
 17 18  2  0
 17 28  1  0
 18 19  1  0
 19 20  1  0
 19 21  1  0
 20 50  1  0
 21 22  1  0
 21 51  1  1
 21 52  1  0
 22 23  2  0
 22 27  1  0
 23 24  1  0
 23 53  1  0
 24 25  2  0
 24 54  1  0
 25 26  1  0
 25 55  1  0
 26 27  2  0
 26 56  1  0
 27 57  1  0
 28 29  1  0
 28 33  2  0
 29 30  2  0
 29 58  1  0
 30 31  1  0
 30 59  1  0
 31 32  2  0
 31 34  1  0
 32 33  1  0
 32 60  1  0
 33 61  1  0
 34 62  1  1
 34 63  1  0
 34 64  1  0
M  CHG  1  14   1
M  END
>  <s_epik_cmdline>  (1073) 
J2VwaWtfcHl0aG9uJywgJy1waCcsICc3LjAwMDAwMCcsICctcGh0JywgJzIuMDAwMDAwJywgJy1tcycsICcxNicsICctdG4nLCAnOCcsICctbWEnLCAnMjAwJywgJy1pbWFlJywgJzxpbmZpbGUubWFlPicsICctb21hZScsICc8b3V0ZmlsZS5tYWU+Jw==

>  <s_epik_input>  (1073) 
W0NIM11bTkhdUyg9TykoPU8pW0NIMl1jMWMoW2NIXVtjSF1bY0hdW2NIXTEpW0NIMl1bTkhdW0NIMl1jMmMoLWMzW2NIXVtjSF1jKFtDSDNdKVtjSF1bY0hdMylubihbY0hdMilbQ0gyXWM0W2NIXVtjSF1bY0hdW2NIXVtjSF00

>  <s_i_glide_gridfile>  (1073) 
ATP-Grid

>  <s_lp_Force_Field>  (1073) 
OPLS_2005

>  <s_lp_Variant>  (1073) 
a4____190530____159047-1

>  <s_lp_label>  (1073) 
594_sdstereoexpander_1_neutralizer_1_epik_1_stereoizer_1

>  <s_m_source_file>  (1073) 
ATP-VSW-LIGPREP-001-in.maegz

>  <s_sd_BIOSOLVEIT.INFINISEE\_QUERY\_NAME>  (1073) 
Ref-Lig

>  <s_sd_BIOSOLVEIT.INFINISEE\_QUERY\_SMILES>  (1073) 
S(c1nc2c(cc1C[NH2+]Cc3ccc(cc3)C[NH+](C)C)cccc2)Cc4ccccc4

>  <s_sd_BIOSOLVEIT.INFINISEE\_REACTION\_NAME>  (1073) 
a4

>  <s_sd_BIOSOLVEIT.INFINISEE\_REAGENT1\_SMILES>  (1073) 
[R1*]NCc1c(cccc1)CS(=O)(=O)NC

>  <s_sd_BIOSOLVEIT.INFINISEE\_REAGENT2\_SMILES>  (1073) 
[R1*]CC=1C(=NN(C1)Cc2ccccc2)c3ccc(cc3)C

>  <s_sd_BIOSOLVEIT.INFINISEE\_SPACE>  (1073) 
FreedomSpace_5bn_2023-06

>  <s_vsw_compound_code>  (1073) 
18977

>  <s_vsw_variant>  (1073) 
18977-1

>  <r_epik_Charging_Adjusted_Penalty>  (1073) 
0.191024163652638

>  <r_epik_Ionization_Penalty>  (1073) 
0.095500000000000002

>  <r_epik_Ionization_Penalty_Charging>  (1073) 
0.095500000000000002

>  <r_epik_Ionization_Penalty_Neutral>  (1073) 
0

>  <r_epik_State_Penalty>  (1073) 
0.095500000000000002

>  <r_i_docking_score>  (1073) 
-4.3384165376675803

>  <r_i_glide_ecoul>  (1073) 
-7.3766765594482404

>  <r_i_glide_eff_state_penalty>  (1073) 
0.095500000000000002

>  <r_i_glide_einternal>  (1073) 
6.5377669334411603

>  <r_i_glide_emodel>  (1073) 
-56.566550116507898

>  <r_i_glide_energy>  (1073) 
-43.769838333129897

>  <r_i_glide_erotb>  (1073) 
0.80538129210144904

>  <r_i_glide_esite>  (1073) 
-0.063495886987703004

>  <r_i_glide_evdw>  (1073) 
-36.393161773681598

>  <r_i_glide_gscore>  (1073) 
-4.4339165376675904

>  <r_i_glide_hbond>  (1073) 
0

>  <r_i_glide_ligand_efficiency>  (1073) 
-0.12760048640198801

>  <r_i_glide_ligand_efficiency_ln>  (1073) 
-0.95847790163278801

>  <r_i_glide_ligand_efficiency_sa>  (1073) 
-0.41337604111072201

>  <r_i_glide_lipo>  (1073) 
-1.51416315876023

>  <r_i_glide_metal>  (1073) 
-0

>  <r_i_glide_rewards>  (1073) 
-0.73547921141978501

>  <r_lp_Energy>  (1073) 
11.90631

>  <r_lp_tautomer_probability>  (1073) 
1

>  <r_qp_ACxDN^.5/SA>  (1073) 
0.013022499999999999

>  <r_qp_CIQPlogS>  (1073) 
-6.1399999999999997

>  <r_qp_EA(eV)>  (1073) 
0.378

>  <r_qp_FISA>  (1073) 
83.296000000000006

>  <r_qp_FOSA>  (1073) 
273.83600000000001

>  <r_qp_IP(eV)>  (1073) 
8.7650000000000006

>  <r_qp_Jm>  (1073) 
0.0031317733789761998

>  <r_qp_PISA>  (1073) 
457.35399999999998

>  <r_qp_PSA>  (1073) 
78.150999999999996

>  <r_qp_PercentHumanOralAbsorption>  (1073) 
100

>  <r_qp_QPPCaco>  (1073) 
400.77999999999997

>  <r_qp_QPPMDCK>  (1073) 
203.71199999999999

>  <r_qp_QPlogBB>  (1073) 
-0.48899999999999999

>  <r_qp_QPlogHERG>  (1073) 
-7.9710000000000001

>  <r_qp_QPlogKhsa>  (1073) 
0.81100000000000005

>  <r_qp_QPlogKp>  (1073) 
-2.6419999999999999

>  <r_qp_QPlogPC16>  (1073) 
16.638000000000002

>  <r_qp_QPlogPo/w>  (1073) 
4.9089999999999998

>  <r_qp_QPlogPoct>  (1073) 
24.684000000000001

>  <r_qp_QPlogPw>  (1073) 
13.688000000000001

>  <r_qp_QPlogS>  (1073) 
-5.5389999999999997

>  <r_qp_QPpolrz>  (1073) 
52.893999999999998

>  <r_qp_SASA>  (1073) 
814.48500000000001

>  <r_qp_SAamideO>  (1073) 
0

>  <r_qp_SAfluorine>  (1073) 
0

>  <r_qp_WPSA>  (1073) 
0

>  <r_qp_accptHB>  (1073) 
7.5

>  <r_qp_dip^2/V>  (1073) 
0.010933200000000001

>  <r_qp_dipole>  (1073) 
4.0640000000000001

>  <r_qp_donorHB>  (1073) 
2

>  <r_qp_glob>  (1073) 
0.7817596

>  <r_qp_mol_MW>  (1073) 
474.62

>  <r_qp_volume>  (1073) 
1510.731

>  <r_sd_BIOSOLVEIT.INFINISEE\_FTREES\_SIMILARITY>  (1073) 
0.90100000000000002

>  <r_sd_BIOSOLVEIT.LOGP>  (1073) 
3.8702200000000002

>  <r_sd_BIOSOLVEIT.MOLECULAR\_WEIGHT>  (1073) 
475.63299999999998

>  <r_sd_BIOSOLVEIT.TPSA>  (1073) 
80.599999999999994

>  <i_epik_Tot_Q>  (1073) 
1

>  <i_epik_Tot_abs_Q>  (1073) 
1

>  <i_f3d_flags>  (1073) 
0

>  <i_i_glide_confnum>  (1073) 
7

>  <i_i_glide_lignum>  (1073) 
65

>  <i_i_glide_posenum>  (1073) 
14

>  <i_i_glide_rotatable_bonds>  (1073) 
10

>  <i_lp_mmshare_version>  (1073) 
65135

>  <i_m_ct_format>  (1073) 
2

>  <i_m_source_file_index>  (1073) 
594

>  <i_qp_#NandO>  (1073) 
6

>  <i_qp_#acid>  (1073) 
0

>  <i_qp_#amide>  (1073) 
0

>  <i_qp_#amidine>  (1073) 
0

>  <i_qp_#amine>  (1073) 
1

>  <i_qp_#in34>  (1073) 
0

>  <i_qp_#in56>  (1073) 
23

>  <i_qp_#metab>  (1073) 
6

>  <i_qp_#nonHatm>  (1073) 
34

>  <i_qp_#noncon>  (1073) 
0

>  <i_qp_#ringatoms>  (1073) 
23

>  <i_qp_#rotor>  (1073) 
9

>  <i_qp_#rtvFG>  (1073) 
0

>  <i_qp_#stars>  (1073) 
1

>  <i_qp_CNS>  (1073) 
1

>  <i_qp_HumanOralAbsorption>  (1073) 
3

>  <i_qp_RuleOfFive>  (1073) 
0

>  <i_qp_RuleOfThree>  (1073) 
0

>  <i_sd_BIOSOLVEIT.INFINISEE\_REAGENT1\_NAME>  (1073) 
190530

>  <i_sd_BIOSOLVEIT.INFINISEE\_REAGENT2\_NAME>  (1073) 
159047

>  <i_sd_BIOSOLVEIT.INFINISEE\_RESULT\_RANK>  (1073) 
94310

>  <i_sd_version>  (1073) 
0

>  <b_lp_Chiralities_Consistent>  (1073) 
1

>  <b_sd_chiral_flag>  (1073) 
0

>  <canonical_id>  (1073) 
ATP-HTVS-AB6A0F8FBF12

>  <compound_code>  (1073) 
18977

>  <title>  (1073) 
a4____190530____159047

>  <variant>  (1073) 
18977-1

>  <source_file>  (1073) 
运行/运行/ATP-VSW/ATP-VSW-DOCK_HTVS_1-001_lib/ATP-VSW-DOCK_HTVS_1-001_lib

>  <canonical_smiles>  (1073) 
CNS(=O)(=O)Cc1ccccc1C[NH2+]Cc1cn(Cc2ccccc2)nc1-c1ccc(C)cc1

>  <scaffold>  (1073) 
c1ccc(C[NH2+]Cc2cn(Cc3ccccc3)nc2-c2ccccc2)cc1

>  <molecular_formula>  (1073) 
C27H31N4O2S+

$$$$
ATP-HTVS-ABB27A5BB422
     RDKit          3D

 61 64  0  0  0  0  0  0  0  0999 V2000
  199.5922  179.4034  153.5499 N   0  0  0  0  0  0  0  0  0  0  0  0
  199.4178  178.9353  154.8049 C   0  0  0  0  0  0  0  0  0  0  0  0
  198.1189  178.9381  155.3342 N   0  0  0  0  0  0  0  0  0  0  0  0
  197.1314  179.8740  154.8122 C   0  0  1  0  0  0  0  0  0  0  0  0
  197.2931  181.2845  155.3500 C   0  0  0  0  0  0  0  0  0  0  0  0
  197.3065  181.5056  156.7414 C   0  0  0  0  0  0  0  0  0  0  0  0
  197.3532  182.8178  157.2613 C   0  0  0  0  0  0  0  0  0  0  0  0
  197.4697  183.9057  156.3663 C   0  0  0  0  0  0  0  0  0  0  0  0
  197.4991  183.6855  154.9741 C   0  0  0  0  0  0  0  0  0  0  0  0
  197.3988  182.3774  154.4635 C   0  0  0  0  0  0  0  0  0  0  0  0
  197.2677  183.0566  158.7659 C   0  0  1  0  0  0  0  0  0  0  0  0
  195.8902  182.9421  159.3230 N   0  0  1  0  0  0  0  0  0  0  0  0
  194.9888  184.0342  158.8974 C   0  0  2  0  0  0  0  0  0  0  0  0
  195.2648  181.6127  159.1304 C   0  0  2  0  0  0  0  0  0  0  0  0
  200.5088  178.3938  155.5398 C   0  0  0  0  0  0  0  0  0  0  0  0
  201.7531  178.3714  155.0065 N   0  0  0  0  0  0  0  0  0  0  0  0
  201.9190  178.7984  153.7328 C   0  0  0  0  0  0  0  0  0  0  0  0
  200.8181  179.3354  152.9927 C   0  0  0  0  0  0  0  0  0  0  0  0
  201.0315  179.8092  151.6796 C   0  0  0  0  0  0  0  0  0  0  0  0
  202.3100  179.7640  151.0894 C   0  0  0  0  0  0  0  0  0  0  0  0
  203.3813  179.1870  151.7968 C   0  0  0  0  0  0  0  0  0  0  0  0
  203.1768  178.7023  153.1019 C   0  0  0  0  0  0  0  0  0  0  0  0
  200.3064  177.7908  156.7939 N   0  0  0  0  0  0  0  0  0  0  0  0
  201.1909  176.7231  157.2560 C   0  0  1  0  0  0  0  0  0  0  0  0
  201.5481  175.6173  156.2599 C   0  0  0  0  0  0  0  0  0  0  0  0
  200.7774  175.4076  155.0946 C   0  0  0  0  0  0  0  0  0  0  0  0
  201.1702  174.4362  154.1582 C   0  0  0  0  0  0  0  0  0  0  0  0
  202.3051  173.6395  154.4087 C   0  0  0  0  0  0  0  0  0  0  0  0
  202.7055  172.6374  153.3779 N   0  0  2  0  0  0  0  0  0  0  0  0
  203.0685  173.8018  155.5792 C   0  0  0  0  0  0  0  0  0  0  0  0
  202.6740  174.7944  156.5001 C   0  0  0  0  0  0  0  0  0  0  0  0
  197.9783  178.6589  156.2930 H   0  0  0  0  0  0  0  0  0  0  0  0
  197.1377  179.8826  153.7203 H   0  0  0  0  0  0  0  0  0  0  0  0
  196.1506  179.4944  155.0983 H   0  0  0  0  0  0  0  0  0  0  0  0
  197.2443  180.6509  157.4029 H   0  0  0  0  0  0  0  0  0  0  0  0
  197.5145  184.9206  156.7445 H   0  0  0  0  0  0  0  0  0  0  0  0
  197.5691  184.5238  154.2968 H   0  0  0  0  0  0  0  0  0  0  0  0
  197.3843  182.2121  153.3934 H   0  0  0  0  0  0  0  0  0  0  0  0
  197.9273  182.3522  159.2727 H   0  0  0  0  0  0  0  0  0  0  0  0
  197.6642  184.0494  158.9992 H   0  0  0  0  0  0  0  0  0  0  0  0
  194.8557  184.0178  157.8155 H   0  0  0  0  0  0  0  0  0  0  0  0
  195.3887  185.0075  159.1880 H   0  0  0  0  0  0  0  0  0  0  0  0
  194.0045  183.9277  159.3570 H   0  0  0  0  0  0  0  0  0  0  0  0
  195.0506  181.4354  158.0745 H   0  0  0  0  0  0  0  0  0  0  0  0
  194.3256  181.5289  159.6776 H   0  0  0  0  0  0  0  0  0  0  0  0
  195.9219  180.8260  159.5016 H   0  0  0  0  0  0  0  0  0  0  0  0
  200.2134  180.2575  151.1351 H   0  0  0  0  0  0  0  0  0  0  0  0
  202.4712  180.1767  150.1014 H   0  0  0  0  0  0  0  0  0  0  0  0
  204.3653  179.1472  151.3473 H   0  0  0  0  0  0  0  0  0  0  0  0
  203.9995  178.2531  153.6387 H   0  0  0  0  0  0  0  0  0  0  0  0
  199.3617  177.7700  157.1539 H   0  0  0  0  0  0  0  0  0  0  0  0
  202.1025  177.1969  157.6227 H   0  0  0  0  0  0  0  0  0  0  0  0
  200.7408  176.2622  158.1386 H   0  0  0  0  0  0  0  0  0  0  0  0
  199.8847  175.9834  154.9044 H   0  0  0  0  0  0  0  0  0  0  0  0
  200.6092  174.3297  153.2344 H   0  0  0  0  0  0  0  0  0  0  0  0
  203.6345  172.8158  153.0332 H   0  0  0  0  0  0  0  0  0  0  0  0
  202.0501  172.6356  152.6160 H   0  0  0  0  0  0  0  0  0  0  0  0
  203.9394  173.1910  155.7631 H   0  0  0  0  0  0  0  0  0  0  0  0
  203.2503  174.9272  157.4073 H   0  0  0  0  0  0  0  0  0  0  0  0
  196.0117  183.0484  160.3200 H   0  0  0  0  0  0  0  0  0  0  0  0
  202.7288  171.6800  153.7660 H   0  0  0  0  0  0  0  0  0  0  0  0
  1  2  2  0
  1 18  1  0
  2  3  1  0
  2 15  1  0
  3  4  1  0
  3 32  1  0
  4  5  1  0
  4 33  1  6
  4 34  1  0
  5  6  2  0
  5 10  1  0
  6  7  1  0
  6 35  1  0
  7  8  2  0
  7 11  1  0
  8  9  1  0
  8 36  1  0
  9 10  2  0
  9 37  1  0
 10 38  1  0
 11 12  1  0
 11 39  1  1
 11 40  1  0
 12 13  1  0
 12 14  1  0
 12 60  1  1
 13 41  1  6
 13 42  1  0
 13 43  1  0
 14 44  1  6
 14 45  1  0
 14 46  1  0
 15 16  2  0
 15 23  1  0
 16 17  1  0
 17 18  1  0
 17 22  2  0
 18 19  2  0
 19 20  1  0
 19 47  1  0
 20 21  2  0
 20 48  1  0
 21 22  1  0
 21 49  1  0
 22 50  1  0
 23 24  1  0
 23 51  1  0
 24 25  1  0
 24 52  1  1
 24 53  1  0
 25 26  1  0
 25 31  2  0
 26 27  2  0
 26 54  1  0
 27 28  1  0
 27 55  1  0
 28 29  1  0
 28 30  2  0
 29 56  1  6
 29 57  1  0
 29 61  1  0
 30 31  1  0
 30 58  1  0
 31 59  1  0
M  CHG  2  12   1  29   1
M  END
>  <s_epik_cmdline>  (1074) 
J2VwaWtfcHl0aG9uJywgJy1waCcsICc3LjAwMDAwMCcsICctcGh0JywgJzIuMDAwMDAwJywgJy1tcycsICcxNicsICctdG4nLCAnOCcsICctbWEnLCAnMjAwJywgJy1pbWFlJywgJzxpbmZpbGUubWFlPicsICctb21hZScsICc8b3V0ZmlsZS5tYWU+Jw==

>  <s_epik_input>  (1074) 
W2NIXTFbY0hdW2NIXWMoW0NIMl1OKFtDSDNdKVtDSDNdKVtjSF1jMVtDSDJdW05IXWMobmMoYzIzKVtjSF1bY0hdW2NIXVtjSF0zKWMobjIpW05IXVtDSDJdYzRbY0hdW2NIXWMoW05IMl0pW2NIXVtjSF00

>  <s_i_glide_gridfile>  (1074) 
ATP-Grid

>  <s_lp_Force_Field>  (1074) 
OPLS_2005

>  <s_lp_Variant>  (1074) 
m_282030aaa____21912752____23157418____21940090-3

>  <s_lp_label>  (1074) 
1013_sdstereoexpander_1_neutralizer_1_epik_3_stereoizer_1

>  <s_m_source_file>  (1074) 
ATP-VSW-LIGPREP-002-in.maegz

>  <s_sd_BIOSOLVEIT.INFINISEE\_QUERY\_NAME>  (1074) 
Ref-Lig

>  <s_sd_BIOSOLVEIT.INFINISEE\_QUERY\_SMILES>  (1074) 
S(c1nc2c(cc1C[NH2+]Cc3ccc(cc3)C[NH+](C)C)cccc2)Cc4ccccc4

>  <s_sd_BIOSOLVEIT.INFINISEE\_REACTION\_NAME>  (1074) 
m_282030aaa

>  <s_sd_BIOSOLVEIT.INFINISEE\_REAGENT1\_SMILES>  (1074) 
[R1*]NCc1ccc(N)cc1

>  <s_sd_BIOSOLVEIT.INFINISEE\_REAGENT2\_SMILES>  (1074) 
[R1*]c1nc2c(nc1[R2*])cccc2

>  <s_sd_BIOSOLVEIT.INFINISEE\_REAGENT3\_SMILES>  (1074) 
[R2*]NCc1cc(ccc1)CN(C)C

>  <s_sd_BIOSOLVEIT.INFINISEE\_SPACE>  (1074) 
REALSpace_44bn_2023-08

>  <s_vsw_compound_code>  (1074) 
32386

>  <s_vsw_variant>  (1074) 
32386-3

>  <r_epik_Charging_Adjusted_Penalty>  (1074) 
4.1724395840357298

>  <r_epik_Ionization_Penalty>  (1074) 
2.0865999999999998

>  <r_epik_Ionization_Penalty_Charging>  (1074) 
2.0861999999999998

>  <r_epik_Ionization_Penalty_Neutral>  (1074) 
0.00040000000000000002

>  <r_epik_State_Penalty>  (1074) 
2.0861999999999998

>  <r_i_docking_score>  (1074) 
-3.9003873065902099

>  <r_i_glide_ecoul>  (1074) 
-15.6077880859375

>  <r_i_glide_eff_state_penalty>  (1074) 
2.0861999999999998

>  <r_i_glide_einternal>  (1074) 
3.1116392612457302

>  <r_i_glide_emodel>  (1074) 
-69.675573714333296

>  <r_i_glide_energy>  (1074) 
-44.402820587158203

>  <r_i_glide_erotb>  (1074) 
0.80402097421960494

>  <r_i_glide_esite>  (1074) 
-0.24581556736198601

>  <r_i_glide_evdw>  (1074) 
-28.7950325012207

>  <r_i_glide_gscore>  (1074) 
-5.9865873065902102

>  <r_i_glide_hbond>  (1074) 
-0.43525201371139599

>  <r_i_glide_ligand_efficiency>  (1074) 
-0.125818945373878

>  <r_i_glide_ligand_efficiency_ln>  (1074) 
-0.879656870151727

>  <r_i_glide_ligand_efficiency_sa>  (1074) 
-0.39524520024936699

>  <r_i_glide_lipo>  (1074) 
-1.2959792708756801

>  <r_i_glide_metal>  (1074) 
-0

>  <r_i_glide_rewards>  (1074) 
-1.03264159090909

>  <r_lp_Energy>  (1074) 
26.450841

>  <r_qp_ACxDN^.5/SA>  (1074) 
0.0146622

>  <r_qp_CIQPlogS>  (1074) 
-5.2679999999999998

>  <r_qp_EA(eV)>  (1074) 
0.70799999999999996

>  <r_qp_FISA>  (1074) 
93.775999999999996

>  <r_qp_FOSA>  (1074) 
266.74000000000001

>  <r_qp_IP(eV)>  (1074) 
8.1709999999999994

>  <r_qp_Jm>  (1074) 
0.00434025425962393

>  <r_qp_PISA>  (1074) 
405.05799999999999

>  <r_qp_PSA>  (1074) 
73.930000000000007

>  <r_qp_PercentHumanOralAbsorption>  (1074) 
100

>  <r_qp_QPPCaco>  (1074) 
318.80599999999998

>  <r_qp_QPPMDCK>  (1074) 
159.07499999999999

>  <r_qp_QPlogBB>  (1074) 
-0.58899999999999997

>  <r_qp_QPlogHERG>  (1074) 
-7.6340000000000003

>  <r_qp_QPlogKhsa>  (1074) 
0.65800000000000003

>  <r_qp_QPlogKp>  (1074) 
-3.0190000000000001

>  <r_qp_QPlogPC16>  (1074) 
15.548999999999999

>  <r_qp_QPlogPo/w>  (1074) 
4.3470000000000004

>  <r_qp_QPlogPoct>  (1074) 
24.260000000000002

>  <r_qp_QPlogPw>  (1074) 
14.006

>  <r_qp_QPlogS>  (1074) 
-4.9589999999999996

>  <r_qp_QPpolrz>  (1074) 
47.600000000000001

>  <r_qp_SASA>  (1074) 
765.57399999999996

>  <r_qp_SAamideO>  (1074) 
0

>  <r_qp_SAfluorine>  (1074) 
0

>  <r_qp_WPSA>  (1074) 
0

>  <r_qp_accptHB>  (1074) 
6

>  <r_qp_dip^2/V>  (1074) 
0.018716699999999999

>  <r_qp_dipole>  (1074) 
5.1020000000000003

>  <r_qp_donorHB>  (1074) 
3.5

>  <r_qp_glob>  (1074) 
0.78713379999999999

>  <r_qp_mol_MW>  (1074) 
412.536

>  <r_qp_volume>  (1074) 
1390.932

>  <r_sd_BIOSOLVEIT.INFINISEE\_FTREES\_SIMILARITY>  (1074) 
0.91600000000000004

>  <r_sd_BIOSOLVEIT.LOGP>  (1074) 
3.0807000000000002

>  <r_sd_BIOSOLVEIT.MOLECULAR\_WEIGHT>  (1074) 
413.54599999999999

>  <r_sd_BIOSOLVEIT.TPSA>  (1074) 
80.299999999999997

>  <i_epik_Tot_Q>  (1074) 
2

>  <i_epik_Tot_abs_Q>  (1074) 
2

>  <i_f3d_flags>  (1074) 
0

>  <i_i_glide_confnum>  (1074) 
8

>  <i_i_glide_lignum>  (1074) 
322

>  <i_i_glide_posenum>  (1074) 
11

>  <i_i_glide_rotatable_bonds>  (1074) 
8

>  <i_lp_mmshare_version>  (1074) 
65135

>  <i_m_ct_format>  (1074) 
2

>  <i_m_source_file_index>  (1074) 
1013

>  <i_qp_#NandO>  (1074) 
6

>  <i_qp_#acid>  (1074) 
0

>  <i_qp_#amide>  (1074) 
0

>  <i_qp_#amidine>  (1074) 
0

>  <i_qp_#amine>  (1074) 
1

>  <i_qp_#in34>  (1074) 
0

>  <i_qp_#in56>  (1074) 
22

>  <i_qp_#metab>  (1074) 
5

>  <i_qp_#nonHatm>  (1074) 
31

>  <i_qp_#noncon>  (1074) 
0

>  <i_qp_#ringatoms>  (1074) 
22

>  <i_qp_#rotor>  (1074) 
9

>  <i_qp_#rtvFG>  (1074) 
0

>  <i_qp_#stars>  (1074) 
0

>  <i_qp_CNS>  (1074) 
0

>  <i_qp_HumanOralAbsorption>  (1074) 
3

>  <i_qp_RuleOfFive>  (1074) 
0

>  <i_qp_RuleOfThree>  (1074) 
0

>  <i_sd_BIOSOLVEIT.INFINISEE\_REAGENT1\_NAME>  (1074) 
21912752

>  <i_sd_BIOSOLVEIT.INFINISEE\_REAGENT2\_NAME>  (1074) 
23157418

>  <i_sd_BIOSOLVEIT.INFINISEE\_REAGENT3\_NAME>  (1074) 
21940090

>  <i_sd_BIOSOLVEIT.INFINISEE\_RESULT\_RANK>  (1074) 
26907

>  <i_sd_version>  (1074) 
0

>  <b_lp_Chiralities_Consistent>  (1074) 
1

>  <b_sd_chiral_flag>  (1074) 
0

>  <canonical_id>  (1074) 
ATP-HTVS-ABB27A5BB422

>  <compound_code>  (1074) 
32386

>  <title>  (1074) 
m_282030aaa____21912752____23157418____21940090

>  <variant>  (1074) 
32386-3

>  <source_file>  (1074) 
运行/运行/ATP-VSW/ATP-VSW-DOCK_HTVS_1-002_lib.maegz

>  <canonical_smiles>  (1074) 
C[NH+](C)Cc1cccc(CNc2nc3ccccc3nc2NCc2ccc([NH3+])cc2)c1

>  <scaffold>  (1074) 
c1ccc(CNc2nc3ccccc3nc2NCc2ccccc2)cc1

>  <molecular_formula>  (1074) 
C25H30N6+2

$$$$
ATP-HTVS-AC48CD61B4D9
     RDKit          3D

 62 65  0  0  0  0  0  0  0  0999 V2000
  201.8554  175.5433  156.1223 S   0  0  0  0  0  0  0  0  0  0  0  0
  201.5822  174.7399  154.5690 C   0  0  0  0  0  0  0  0  0  0  0  0
  201.2521  175.4879  153.4151 C   0  0  0  0  0  0  0  0  0  0  0  0
  200.8978  174.8250  152.2127 C   0  0  0  0  0  0  0  0  0  0  0  0
  200.9984  173.4221  152.1239 C   0  0  0  0  0  0  0  0  0  0  0  0
  201.4196  172.6858  153.2544 C   0  0  0  0  0  0  0  0  0  0  0  0
  201.6924  173.3374  154.4787 C   0  0  0  0  0  0  0  0  0  0  0  0
  201.3796  177.2984  155.9833 C   0  0  1  0  0  0  0  0  0  0  0  0
  199.8771  177.5119  155.6997 C   0  0  1  0  0  0  0  0  0  0  0  0
  199.6462  178.9125  155.3397 N   0  0  0  0  0  0  0  0  0  0  0  0
  198.8532  179.2127  154.2184 C   0  0  0  0  0  0  0  0  0  0  0  0
  197.6964  180.0436  154.3273 C   0  0  0  0  0  0  0  0  0  0  0  0
  196.9125  180.2929  153.2519 N   0  0  0  0  0  0  0  0  0  0  0  0
  197.1887  179.7498  152.0531 C   0  0  0  0  0  0  0  0  0  0  0  0
  198.3222  178.9188  151.8716 C   0  0  0  0  0  0  0  0  0  0  0  0
  199.1797  178.6747  152.9571 C   0  0  0  0  0  0  0  0  0  0  0  0
  198.6314  178.3186  150.6423 C   0  0  0  0  0  0  0  0  0  0  0  0
  197.8364  178.5652  149.5173 C   0  0  0  0  0  0  0  0  0  0  0  0
  196.7199  179.4126  149.6640 C   0  0  0  0  0  0  0  0  0  0  0  0
  196.3919  179.9848  150.9143 C   0  0  0  0  0  0  0  0  0  0  0  0
  197.3833  180.5858  155.5889 N   0  0  0  0  0  0  0  0  0  0  0  0
  198.0564  181.5925  156.1576 C   0  0  0  0  0  0  0  0  0  0  0  0
  199.1937  181.9492  155.8246 O   0  0  0  0  0  0  0  0  0  0  0  0
  197.3394  182.2721  157.2922 C   0  0  0  0  0  0  0  0  0  0  0  0
  195.9369  182.2127  157.3834 C   0  0  0  0  0  0  0  0  0  0  0  0
  195.2426  182.9017  158.3870 C   0  0  0  0  0  0  0  0  0  0  0  0
  195.9551  183.6701  159.3322 C   0  0  0  0  0  0  0  0  0  0  0  0
  197.3587  183.7010  159.2813 C   0  0  0  0  0  0  0  0  0  0  0  0
  198.0522  183.0398  158.2405 C   0  0  0  0  0  0  0  0  0  0  0  0
  195.2137  184.4626  160.3853 C   0  0  1  0  0  0  0  0  0  0  0  0
  195.0621  185.9223  160.1070 N   0  0  1  0  0  0  0  0  0  0  0  0
  194.2710  186.5886  161.1646 C   0  0  2  0  0  0  0  0  0  0  0  0
  196.3320  186.6687  159.8763 C   0  0  2  0  0  0  0  0  0  0  0  0
  201.2646  176.5839  153.4453 H   0  0  0  0  0  0  0  0  0  0  0  0
  200.5701  175.4039  151.3571 H   0  0  0  0  0  0  0  0  0  0  0  0
  200.7932  172.9331  151.1856 H   0  0  0  0  0  0  0  0  0  0  0  0
  201.5486  171.6156  153.1938 H   0  0  0  0  0  0  0  0  0  0  0  0
  202.0171  172.7778  155.3365 H   0  0  0  0  0  0  0  0  0  0  0  0
  201.6354  177.8210  156.9063 H   0  0  0  0  0  0  0  0  0  0  0  0
  202.0007  177.7659  155.2209 H   0  0  0  0  0  0  0  0  0  0  0  0
  199.4897  176.8577  154.9145 H   0  0  0  0  0  0  0  0  0  0  0  0
  199.2849  177.2393  156.5840 H   0  0  0  0  0  0  0  0  0  0  0  0
  200.3462  179.5914  155.6134 H   0  0  0  0  0  0  0  0  0  0  0  0
  200.0851  178.0668  152.7923 H   0  0  0  0  0  0  0  0  0  0  0  0
  199.4960  177.6686  150.5473 H   0  0  0  0  0  0  0  0  0  0  0  0
  198.0877  178.1120  148.5668 H   0  0  0  0  0  0  0  0  0  0  0  0
  196.1147  179.6084  148.7804 H   0  0  0  0  0  0  0  0  0  0  0  0
  195.5319  180.6279  150.9994 H   0  0  0  0  0  0  0  0  0  0  0  0
  196.4745  180.3662  155.9625 H   0  0  0  0  0  0  0  0  0  0  0  0
  195.3466  181.6608  156.6695 H   0  0  0  0  0  0  0  0  0  0  0  0
  194.1529  182.8431  158.3843 H   0  0  0  0  0  0  0  0  0  0  0  0
  197.9415  184.2365  160.0045 H   0  0  0  0  0  0  0  0  0  0  0  0
  199.1261  183.1820  158.1542 H   0  0  0  0  0  0  0  0  0  0  0  0
  194.2155  184.0207  160.4903 H   0  0  0  0  0  0  0  0  0  0  0  0
  195.7250  184.3081  161.3333 H   0  0  0  0  0  0  0  0  0  0  0  0
  194.7586  186.4986  162.1368 H   0  0  0  0  0  0  0  0  0  0  0  0
  193.2664  186.1727  161.2423 H   0  0  0  0  0  0  0  0  0  0  0  0
  194.1796  187.6512  160.9517 H   0  0  0  0  0  0  0  0  0  0  0  0
  196.9968  186.5343  160.7373 H   0  0  0  0  0  0  0  0  0  0  0  0
  196.1608  187.7462  159.7525 H   0  0  0  0  0  0  0  0  0  0  0  0
  196.8555  186.3580  158.9695 H   0  0  0  0  0  0  0  0  0  0  0  0
  194.5189  185.9887  159.2543 H   0  0  0  0  0  0  0  0  0  0  0  0
  1  2  1  0
  1  8  1  0
  2  3  2  0
  2  7  1  0
  3  4  1  0
  3 34  1  0
  4  5  2  0
  4 35  1  0
  5  6  1  0
  5 36  1  0
  6  7  2  0
  6 37  1  0
  7 38  1  0
  8  9  1  0
  8 39  1  1
  8 40  1  0
  9 10  1  0
  9 41  1  6
  9 42  1  0
 10 11  1  0
 10 43  1  0
 11 12  1  0
 11 16  2  0
 12 13  2  0
 12 21  1  0
 13 14  1  0
 14 15  1  0
 14 20  2  0
 15 16  1  0
 15 17  2  0
 16 44  1  0
 17 18  1  0
 17 45  1  0
 18 19  2  0
 18 46  1  0
 19 20  1  0
 19 47  1  0
 20 48  1  0
 21 22  1  0
 21 49  1  0
 22 23  2  0
 22 24  1  0
 24 25  1  0
 24 29  2  0
 25 26  2  0
 25 50  1  0
 26 27  1  0
 26 51  1  0
 27 28  2  0
 27 30  1  0
 28 29  1  0
 28 52  1  0
 29 53  1  0
 30 31  1  0
 30 54  1  1
 30 55  1  0
 31 32  1  0
 31 33  1  0
 31 62  1  6
 32 56  1  1
 32 57  1  0
 32 58  1  0
 33 59  1  1
 33 60  1  0
 33 61  1  0
M  CHG  1  31   1
M  END
>  <s_epik_cmdline>  (1075) 
J2VwaWtfcHl0aG9uJywgJy1waCcsICc3LjAwMDAwMCcsICctcGh0JywgJzIuMDAwMDAwJywgJy1tcycsICcxNicsICctdG4nLCAnOCcsICctbWEnLCAnMjAwJywgJy1pbWFlJywgJzxpbmZpbGUubWFlPicsICctb21hZScsICc8b3V0ZmlsZS5tYWU+Jw==

>  <s_epik_input>  (1075) 
W2NIXTFbY0hdW2NIXVtjSF1bY0hdYzFTW0NIMl1bQ0gyXVtOSF1jKFtjSF1jKGMyMylbY0hdW2NIXVtjSF1bY0hdMyljKG4yKVtOSF1DKD1PKWM0W2NIXVtjSF1jKFtjSF1bY0hdNClbQ0gyXU4oW0NIM10pW0NIM10=

>  <s_i_glide_gridfile>  (1075) 
ATP-Grid

>  <s_lp_Force_Field>  (1075) 
OPLS_2005

>  <s_lp_Variant>  (1075) 
rxn502b____EMOL18624763____EMOL44466703____EMOL2866855-1

>  <s_lp_label>  (1075) 
2341_sdstereoexpander_1_neutralizer_1_epik_1_stereoizer_1

>  <s_m_source_file>  (1075) 
ATP-VSW-LIGPREP-001-in.maegz

>  <s_sd_BIOSOLVEIT.INFINISEE\_QUERY\_NAME>  (1075) 
Ref-Lig

>  <s_sd_BIOSOLVEIT.INFINISEE\_QUERY\_SMILES>  (1075) 
S(c1nc2c(cc1C[NH2+]Cc3ccc(cc3)C[NH+](C)C)cccc2)Cc4ccccc4

>  <s_sd_BIOSOLVEIT.INFINISEE\_REACTION\_NAME>  (1075) 
rxn502b

>  <s_sd_BIOSOLVEIT.INFINISEE\_REAGENT1\_NAME>  (1075) 
EMOL18624763

>  <s_sd_BIOSOLVEIT.INFINISEE\_REAGENT1\_SMILES>  (1075) 
O=C(O)c1ccc(cc1)CN(C)C

>  <s_sd_BIOSOLVEIT.INFINISEE\_REAGENT2\_NAME>  (1075) 
EMOL44466703

>  <s_sd_BIOSOLVEIT.INFINISEE\_REAGENT2\_SMILES>  (1075) 
Brc1c(nc2c(c1)cccc2)N

>  <s_sd_BIOSOLVEIT.INFINISEE\_REAGENT3\_NAME>  (1075) 
EMOL2866855

>  <s_sd_BIOSOLVEIT.INFINISEE\_REAGENT3\_SMILES>  (1075) 
S(c1ccccc1)CCN

>  <s_sd_BIOSOLVEIT.INFINISEE\_SPACE>  (1075) 
eXplore_7tr_2022-12

>  <s_vsw_compound_code>  (1075) 
74881

>  <s_vsw_variant>  (1075) 
74881-1

>  <r_epik_Charging_Adjusted_Penalty>  (1075) 
0.10433640840748

>  <r_epik_Ionization_Penalty>  (1075) 
0.052200000000000003

>  <r_epik_Ionization_Penalty_Charging>  (1075) 
0.052200000000000003

>  <r_epik_Ionization_Penalty_Neutral>  (1075) 
0

>  <r_epik_State_Penalty>  (1075) 
0.052200000000000003

>  <r_i_docking_score>  (1075) 
-5.04243611504985

>  <r_i_glide_ecoul>  (1075) 
-5.4401478767395002

>  <r_i_glide_eff_state_penalty>  (1075) 
0.052200000000000003

>  <r_i_glide_einternal>  (1075) 
15.706335067749

>  <r_i_glide_emodel>  (1075) 
-60.127059622706099

>  <r_i_glide_energy>  (1075) 
-49.898907184600802

>  <r_i_glide_erotb>  (1075) 
0.76811750288784597

>  <r_i_glide_esite>  (1075) 
-0.14610035759402501

>  <r_i_glide_evdw>  (1075) 
-44.4587593078613

>  <r_i_glide_gscore>  (1075) 
-5.09463611504985

>  <r_i_glide_hbond>  (1075) 
-0.020608532077534499

>  <r_i_glide_ligand_efficiency>  (1075) 
-0.15280109439545

>  <r_i_glide_ligand_efficiency_ln>  (1075) 
-1.12141168365017

>  <r_i_glide_ligand_efficiency_sa>  (1075) 
-0.490114755363109

>  <r_i_glide_lipo>  (1075) 
-2.3680711268166998

>  <r_i_glide_metal>  (1075) 
-0

>  <r_i_glide_rewards>  (1075) 
-0.28901345454545402

>  <r_lp_Energy>  (1075) 
27.464884000000001

>  <r_qp_ACxDN^.5/SA>  (1075) 
0.0135

>  <r_qp_CIQPlogS>  (1075) 
-5.9130000000000003

>  <r_qp_EA(eV)>  (1075) 
0.78900000000000003

>  <r_qp_FISA>  (1075) 
64.436000000000007

>  <r_qp_FOSA>  (1075) 
228.02199999999999

>  <r_qp_IP(eV)>  (1075) 
8.5389999999999997

>  <r_qp_Jm>  (1075) 
0.070348620767528694

>  <r_qp_PISA>  (1075) 
421.79399999999998

>  <r_qp_PSA>  (1075) 
60.279000000000003

>  <r_qp_PercentHumanOralAbsorption>  (1075) 
100

>  <r_qp_QPPCaco>  (1075) 
605.00099999999998

>  <r_qp_QPPMDCK>  (1075) 
404.26900000000001

>  <r_qp_QPlogBB>  (1075) 
-0.161

>  <r_qp_QPlogHERG>  (1075) 
-7.0620000000000003

>  <r_qp_QPlogKhsa>  (1075) 
0.65900000000000003

>  <r_qp_QPlogKp>  (1075) 
-2.4199999999999999

>  <r_qp_QPlogPC16>  (1075) 
15.242000000000001

>  <r_qp_QPlogPo/w>  (1075) 
4.6470000000000002

>  <r_qp_QPlogPoct>  (1075) 
23.449000000000002

>  <r_qp_QPlogPw>  (1075) 
12.637

>  <r_qp_QPlogS>  (1075) 
-4.3929999999999998

>  <r_qp_QPpolrz>  (1075) 
48.334000000000003

>  <r_qp_SASA>  (1075) 
733.298

>  <r_qp_SAamideO>  (1075) 
0

>  <r_qp_SAfluorine>  (1075) 
0

>  <r_qp_WPSA>  (1075) 
19.045999999999999

>  <r_qp_accptHB>  (1075) 
7

>  <r_qp_dip^2/V>  (1075) 
0.048389500000000002

>  <r_qp_dipole>  (1075) 
8.2460000000000004

>  <r_qp_donorHB>  (1075) 
2

>  <r_qp_glob>  (1075) 
0.82741790000000004

>  <r_qp_mol_MW>  (1075) 
456.60399999999998

>  <r_qp_volume>  (1075) 
1405.2729999999999

>  <r_sd_BIOSOLVEIT.INFINISEE\_FTREES\_SIMILARITY>  (1075) 
0.92100000000000004

>  <r_sd_BIOSOLVEIT.LOGP>  (1075) 
4.3357999999999999

>  <r_sd_BIOSOLVEIT.MOLECULAR\_WEIGHT>  (1075) 
457.61799999999999

>  <r_sd_BIOSOLVEIT.TPSA>  (1075) 
58.460000000000001

>  <i_epik_Tot_Q>  (1075) 
1

>  <i_epik_Tot_abs_Q>  (1075) 
1

>  <i_f3d_flags>  (1075) 
0

>  <i_i_glide_confnum>  (1075) 
2

>  <i_i_glide_lignum>  (1075) 
843

>  <i_i_glide_posenum>  (1075) 
7

>  <i_i_glide_rotatable_bonds>  (1075) 
10

>  <i_lp_mmshare_version>  (1075) 
65135

>  <i_m_ct_format>  (1075) 
2

>  <i_m_source_file_index>  (1075) 
2341

>  <i_qp_#NandO>  (1075) 
5

>  <i_qp_#acid>  (1075) 
0

>  <i_qp_#amide>  (1075) 
0

>  <i_qp_#amidine>  (1075) 
0

>  <i_qp_#amine>  (1075) 
1

>  <i_qp_#in34>  (1075) 
0

>  <i_qp_#in56>  (1075) 
22

>  <i_qp_#metab>  (1075) 
4

>  <i_qp_#nonHatm>  (1075) 
33

>  <i_qp_#noncon>  (1075) 
0

>  <i_qp_#ringatoms>  (1075) 
22

>  <i_qp_#rotor>  (1075) 
9

>  <i_qp_#rtvFG>  (1075) 
0

>  <i_qp_#stars>  (1075) 
0

>  <i_qp_CNS>  (1075) 
1

>  <i_qp_HumanOralAbsorption>  (1075) 
3

>  <i_qp_RuleOfFive>  (1075) 
0

>  <i_qp_RuleOfThree>  (1075) 
0

>  <i_sd_BIOSOLVEIT.INFINISEE\_RESULT\_RANK>  (1075) 
15157

>  <i_sd_version>  (1075) 
0

>  <b_lp_Chiralities_Consistent>  (1075) 
1

>  <b_sd_chiral_flag>  (1075) 
0

>  <canonical_id>  (1075) 
ATP-HTVS-AC48CD61B4D9

>  <compound_code>  (1075) 
74881

>  <title>  (1075) 
rxn502b____EMOL18624763____EMOL44466703____EMOL2866855

>  <variant>  (1075) 
74881-1

>  <source_file>  (1075) 
运行/运行/ATP-VSW/ATP-VSW-DOCK_HTVS_1-001_lib/ATP-VSW-DOCK_HTVS_1-001_lib

>  <canonical_smiles>  (1075) 
C[NH+](C)Cc1ccc(C(=O)Nc2nc3ccccc3cc2NCCSc2ccccc2)cc1

>  <scaffold>  (1075) 
O=C(Nc1nc2ccccc2cc1NCCSc1ccccc1)c1ccccc1

>  <molecular_formula>  (1075) 
C27H29N4OS+

$$$$
ATP-HTVS-AC6C82062264
     RDKit          3D

 54 56  0  0  0  0  0  0  0  0999 V2000
  197.8047  184.9456  153.4958 Cl  0  0  0  0  0  0  0  0  0  0  0  0
  197.6941  183.3020  154.0042 C   0  0  0  0  0  0  0  0  0  0  0  0
  197.0227  182.3566  153.2711 N   0  0  0  0  0  0  0  0  0  0  0  0
  197.0893  181.1641  153.9112 N   0  0  0  0  0  0  0  0  0  0  0  0
  197.7905  181.3879  155.0196 C   0  0  0  0  0  0  0  0  0  0  0  0
  198.2065  182.7510  155.1392 C   0  0  0  0  0  0  0  0  0  0  0  0
  198.9573  183.4023  156.2591 C   0  0  1  0  0  0  0  0  0  0  0  0
  198.0605  184.2411  157.0338 N   0  0  0  0  0  0  0  0  0  0  0  0
  198.5827  184.4795  158.3655 C   0  0  1  0  0  0  0  0  0  0  0  0
  197.7464  185.5051  159.1127 C   0  0  0  0  0  0  0  0  0  0  0  0
  196.5930  185.1420  159.8544 C   0  0  0  0  0  0  0  0  0  0  0  0
  195.8565  186.1395  160.5298 C   0  0  0  0  0  0  0  0  0  0  0  0
  196.2550  187.4871  160.4707 C   0  0  0  0  0  0  0  0  0  0  0  0
  195.5504  188.4285  161.1471 F   0  0  0  0  0  0  0  0  0  0  0  0
  197.3853  187.8496  159.7186 C   0  0  0  0  0  0  0  0  0  0  0  0
  198.1253  186.8616  159.0372 C   0  0  0  0  0  0  0  0  0  0  0  0
  196.1342  183.6958  159.9586 C   0  0  1  0  0  0  0  0  0  0  0  0
  195.4373  183.2086  158.7708 N   0  0  0  0  0  0  0  0  0  0  0  0
  194.1294  183.8383  158.6278 C   0  0  2  0  0  0  0  0  0  0  0  0
  195.2407  181.7696  158.8669 C   0  0  2  0  0  0  0  0  0  0  0  0
  198.0458  180.2447  155.9624 C   0  0  2  0  0  0  0  0  0  0  0  0
  196.2816  182.4897  152.0288 C   0  0  1  0  0  0  0  0  0  0  0  0
  196.8584  181.6095  150.9358 C   0  0  0  0  0  0  0  0  0  0  0  0
  196.4703  180.2554  150.8358 C   0  0  0  0  0  0  0  0  0  0  0  0
  197.0284  179.4352  149.8371 C   0  0  0  0  0  0  0  0  0  0  0  0
  197.9704  179.9633  148.9335 C   0  0  0  0  0  0  0  0  0  0  0  0
  198.5062  179.1719  147.9762 F   0  0  0  0  0  0  0  0  0  0  0  0
  198.3536  181.3158  149.0261 C   0  0  0  0  0  0  0  0  0  0  0  0
  197.7979  182.1370  150.0262 C   0  0  0  0  0  0  0  0  0  0  0  0
  197.1466  183.8072  157.0948 H   0  0  0  0  0  0  0  0  0  0  0  0
  199.4131  182.6428  156.8953 H   0  0  0  0  0  0  0  0  0  0  0  0
  199.7804  184.0198  155.8972 H   0  0  0  0  0  0  0  0  0  0  0  0
  198.6260  183.5394  158.9155 H   0  0  0  0  0  0  0  0  0  0  0  0
  199.6099  184.8407  158.2990 H   0  0  0  0  0  0  0  0  0  0  0  0
  194.9778  185.8769  161.0966 H   0  0  0  0  0  0  0  0  0  0  0  0
  197.6938  188.8847  159.6742 H   0  0  0  0  0  0  0  0  0  0  0  0
  198.9951  187.1492  158.4660 H   0  0  0  0  0  0  0  0  0  0  0  0
  196.9951  183.0610  160.1638 H   0  0  0  0  0  0  0  0  0  0  0  0
  195.4867  183.6085  160.8305 H   0  0  0  0  0  0  0  0  0  0  0  0
  193.6144  183.4645  157.7460 H   0  0  0  0  0  0  0  0  0  0  0  0
  194.2326  184.9157  158.5240 H   0  0  0  0  0  0  0  0  0  0  0  0
  193.4959  183.6456  159.4963 H   0  0  0  0  0  0  0  0  0  0  0  0
  194.7477  181.3930  157.9681 H   0  0  0  0  0  0  0  0  0  0  0  0
  194.6274  181.5030  159.7283 H   0  0  0  0  0  0  0  0  0  0  0  0
  196.1960  181.2516  158.9566 H   0  0  0  0  0  0  0  0  0  0  0  0
  198.8042  179.5707  155.5653 H   0  0  0  0  0  0  0  0  0  0  0  0
  197.1456  179.6562  156.1281 H   0  0  0  0  0  0  0  0  0  0  0  0
  198.3848  180.5865  156.9395 H   0  0  0  0  0  0  0  0  0  0  0  0
  195.2429  182.2263  152.2103 H   0  0  0  0  0  0  0  0  0  0  0  0
  196.2821  183.5330  151.7112 H   0  0  0  0  0  0  0  0  0  0  0  0
  195.7574  179.8470  151.5361 H   0  0  0  0  0  0  0  0  0  0  0  0
  196.7462  178.3932  149.7669 H   0  0  0  0  0  0  0  0  0  0  0  0
  199.0773  181.7187  148.3353 H   0  0  0  0  0  0  0  0  0  0  0  0
  198.1012  183.1730  150.0994 H   0  0  0  0  0  0  0  0  0  0  0  0
  1  2  1  0
  2  3  1  0
  2  6  2  0
  3  4  1  0
  3 22  1  0
  4  5  2  0
  5  6  1  0
  5 21  1  0
  6  7  1  0
  7  8  1  0
  7 31  1  1
  7 32  1  0
  8  9  1  0
  8 30  1  0
  9 10  1  0
  9 33  1  1
  9 34  1  0
 10 11  2  0
 10 16  1  0
 11 12  1  0
 11 17  1  0
 12 13  2  0
 12 35  1  0
 13 14  1  0
 13 15  1  0
 15 16  2  0
 15 36  1  0
 16 37  1  0
 17 18  1  0
 17 38  1  1
 17 39  1  0
 18 19  1  0
 18 20  1  0
 19 40  1  6
 19 41  1  0
 19 42  1  0
 20 43  1  6
 20 44  1  0
 20 45  1  0
 21 46  1  6
 21 47  1  0
 21 48  1  0
 22 23  1  0
 22 49  1  1
 22 50  1  0
 23 24  1  0
 23 29  2  0
 24 25  2  0
 24 51  1  0
 25 26  1  0
 25 52  1  0
 26 27  1  0
 26 28  2  0
 28 29  1  0
 28 53  1  0
 29 54  1  0
M  END
>  <s_epik_cmdline>  (1076) 
J2VwaWtfcHl0aG9uJywgJy1waCcsICc3LjAwMDAwMCcsICctcGh0JywgJzIuMDAwMDAwJywgJy1tcycsICcxNicsICctdG4nLCAnOCcsICctbWEnLCAnMjAwJywgJy1pbWFlJywgJzxpbmZpbGUubWFlPicsICctb21hZScsICc8b3V0ZmlsZS5tYWU+Jw==

>  <s_epik_input>  (1076) 
W2NIXTFbY0hdYyhGKVtjSF1bY0hdYzFbQ0gyXW4oYzJDbCluYyhbQ0gzXSljMltDSDJdW05IXVtDSDJdYzNjKFtDSDJdTihbQ0gzXSlbQ0gzXSlbY0hdYyhGKVtjSF1bY0hdMw==

>  <s_i_glide_gridfile>  (1076) 
ATP-Grid

>  <s_lp_Force_Field>  (1076) 
OPLS_2005

>  <s_lp_Variant>  (1076) 
m_270004bbb____24792668____7547884-4

>  <s_lp_label>  (1076) 
2009_sdstereoexpander_1_neutralizer_1_epik_4_stereoizer_1

>  <s_m_source_file>  (1076) 
ATP-VSW-LIGPREP-002-in.maegz

>  <s_sd_BIOSOLVEIT.INFINISEE\_QUERY\_NAME>  (1076) 
Ref-Lig

>  <s_sd_BIOSOLVEIT.INFINISEE\_QUERY\_SMILES>  (1076) 
S(c1nc2c(cc1C[NH2+]Cc3ccc(cc3)C[NH+](C)C)cccc2)Cc4ccccc4

>  <s_sd_BIOSOLVEIT.INFINISEE\_REACTION\_NAME>  (1076) 
m_270004bbb

>  <s_sd_BIOSOLVEIT.INFINISEE\_REAGENT1\_SMILES>  (1076) 
[R1*]NCc1c(cc(F)cc1)CN(C)C

>  <s_sd_BIOSOLVEIT.INFINISEE\_REAGENT2\_SMILES>  (1076) 
[R1*]CC1=C(Cl)N(N=C1C)Cc2ccc(F)cc2

>  <s_sd_BIOSOLVEIT.INFINISEE\_SPACE>  (1076) 
REALSpace_44bn_2023-08

>  <s_vsw_compound_code>  (1076) 
64258

>  <s_vsw_variant>  (1076) 
64258-4

>  <r_epik_Charging_Adjusted_Penalty>  (1076) 
2.47739822211516

>  <r_epik_Ionization_Penalty>  (1076) 
2.6507000000000001

>  <r_epik_Ionization_Penalty_Charging>  (1076) 
0

>  <r_epik_Ionization_Penalty_Neutral>  (1076) 
2.6507000000000001

>  <r_epik_State_Penalty>  (1076) 
2.4773999999999998

>  <r_i_docking_score>  (1076) 
-1.17766950734732

>  <r_i_glide_ecoul>  (1076) 
-1.40055060386658

>  <r_i_glide_eff_state_penalty>  (1076) 
2.4773999999999998

>  <r_i_glide_einternal>  (1076) 
1.8493347167968801

>  <r_i_glide_emodel>  (1076) 
-43.540563888471503

>  <r_i_glide_energy>  (1076) 
-36.077220678329503

>  <r_i_glide_erotb>  (1076) 
0.78895270682310903

>  <r_i_glide_esite>  (1076) 
-0.032986006755230703

>  <r_i_glide_evdw>  (1076) 
-34.676670074462898

>  <r_i_glide_gscore>  (1076) 
-3.6550695073473198

>  <r_i_glide_hbond>  (1076) 
0

>  <r_i_glide_ligand_efficiency>  (1076) 
-0.040609293356804098

>  <r_i_glide_ligand_efficiency_ln>  (1076) 
-0.26965645406048999

>  <r_i_glide_ligand_efficiency_sa>  (1076) 
-0.124764615119282

>  <r_i_glide_lipo>  (1076) 
-1.84665874817148

>  <r_i_glide_metal>  (1076) 
-0

>  <r_i_glide_rewards>  (1076) 
-0.62046136494058601

>  <r_lp_Energy>  (1076) 
20.388435999999999

>  <r_lp_tautomer_probability>  (1076) 
1

>  <r_qp_ACxDN^.5/SA>  (1076) 
0.0068272000000000003

>  <r_qp_CIQPlogS>  (1076) 
-4.8620000000000001

>  <r_qp_EA(eV)>  (1076) 
0.46800000000000003

>  <r_qp_FISA>  (1076) 
18.053000000000001

>  <r_qp_FOSA>  (1076) 
281.17700000000002

>  <r_qp_IP(eV)>  (1076) 
9.0909999999999993

>  <r_qp_Jm>  (1076) 
0.0072180596204071698

>  <r_qp_PISA>  (1076) 
241.74000000000001

>  <r_qp_PSA>  (1076) 
31.388999999999999

>  <r_qp_PercentHumanOralAbsorption>  (1076) 
100

>  <r_qp_QPPCaco>  (1076) 
415.43900000000002

>  <r_qp_QPPMDCK>  (1076) 
1039.9929999999999

>  <r_qp_QPlogBB>  (1076) 
1.006

>  <r_qp_QPlogHERG>  (1076) 
-6.3780000000000001

>  <r_qp_QPlogKhsa>  (1076) 
0.879

>  <r_qp_QPlogKp>  (1076) 
-4.3579999999999997

>  <r_qp_QPlogPC16>  (1076) 
11.714

>  <r_qp_QPlogPo/w>  (1076) 
4.9619999999999997

>  <r_qp_QPlogPoct>  (1076) 
18.088000000000001

>  <r_qp_QPlogPw>  (1076) 
7.2460000000000004

>  <r_qp_QPlogS>  (1076) 
-3.4060000000000001

>  <r_qp_QPpolrz>  (1076) 
41.933999999999997

>  <r_qp_SASA>  (1076) 
659.12699999999995

>  <r_qp_SAamideO>  (1076) 
0

>  <r_qp_SAfluorine>  (1076) 
88.902000000000001

>  <r_qp_WPSA>  (1076) 
118.158

>  <r_qp_accptHB>  (1076) 
4.5

>  <r_qp_dip^2/V>  (1076) 
0.019114800000000001

>  <r_qp_dipole>  (1076) 
4.931

>  <r_qp_donorHB>  (1076) 
1

>  <r_qp_glob>  (1076) 
0.86148950000000002

>  <r_qp_mol_MW>  (1076) 
418.916

>  <r_qp_volume>  (1076) 
1272.2750000000001

>  <r_sd_BIOSOLVEIT.INFINISEE\_FTREES\_SIMILARITY>  (1076) 
0.90200000000000002

>  <r_sd_BIOSOLVEIT.LOGP>  (1076) 
2.07952

>  <r_sd_BIOSOLVEIT.MOLECULAR\_WEIGHT>  (1076) 
420.93200000000002

>  <r_sd_BIOSOLVEIT.TPSA>  (1076) 
38.869999999999997

>  <i_epik_Tot_Q>  (1076) 
0

>  <i_epik_Tot_abs_Q>  (1076) 
0

>  <i_f3d_flags>  (1076) 
0

>  <i_i_glide_confnum>  (1076) 
6

>  <i_i_glide_lignum>  (1076) 
727

>  <i_i_glide_posenum>  (1076) 
3

>  <i_i_glide_rotatable_bonds>  (1076) 
8

>  <i_lp_mmshare_version>  (1076) 
65135

>  <i_m_ct_format>  (1076) 
2

>  <i_m_source_file_index>  (1076) 
2009

>  <i_qp_#NandO>  (1076) 
4

>  <i_qp_#acid>  (1076) 
0

>  <i_qp_#amide>  (1076) 
0

>  <i_qp_#amidine>  (1076) 
0

>  <i_qp_#amine>  (1076) 
2

>  <i_qp_#in34>  (1076) 
0

>  <i_qp_#in56>  (1076) 
17

>  <i_qp_#metab>  (1076) 
7

>  <i_qp_#nonHatm>  (1076) 
29

>  <i_qp_#noncon>  (1076) 
0

>  <i_qp_#ringatoms>  (1076) 
17

>  <i_qp_#rotor>  (1076) 
8

>  <i_qp_#rtvFG>  (1076) 
0

>  <i_qp_#stars>  (1076) 
0

>  <i_qp_CNS>  (1076) 
2

>  <i_qp_HumanOralAbsorption>  (1076) 
3

>  <i_qp_RuleOfFive>  (1076) 
0

>  <i_qp_RuleOfThree>  (1076) 
1

>  <i_sd_BIOSOLVEIT.INFINISEE\_REAGENT1\_NAME>  (1076) 
24792668

>  <i_sd_BIOSOLVEIT.INFINISEE\_REAGENT2\_NAME>  (1076) 
7547884

>  <i_sd_BIOSOLVEIT.INFINISEE\_RESULT\_RANK>  (1076) 
91325

>  <i_sd_version>  (1076) 
0

>  <b_lp_Chiralities_Consistent>  (1076) 
1

>  <b_sd_chiral_flag>  (1076) 
0

>  <canonical_id>  (1076) 
ATP-HTVS-AC6C82062264

>  <compound_code>  (1076) 
64258

>  <title>  (1076) 
m_270004bbb____24792668____7547884

>  <variant>  (1076) 
64258-4

>  <source_file>  (1076) 
运行/运行/ATP-VSW/ATP-VSW-DOCK_HTVS_1-002_lib.maegz

>  <canonical_smiles>  (1076) 
Cc1nn(Cc2ccc(F)cc2)c(Cl)c1CNCc1ccc(F)cc1CN(C)C

>  <scaffold>  (1076) 
c1ccc(CNCc2cnn(Cc3ccccc3)c2)cc1

>  <molecular_formula>  (1076) 
C22H25ClF2N4

$$$$
ATP-HTVS-AC71774ACC4B
     RDKit          3D

 59 61  0  0  0  0  0  0  0  0999 V2000
  200.3085  180.5484  156.3626 S   0  0  0  0  0  0  0  0  0  0  0  0
  198.6920  181.1770  156.2191 C   0  0  0  0  0  0  0  0  0  0  0  0
  198.2222  182.0298  157.3130 C   0  0  0  0  0  0  0  0  0  0  0  0
  199.0170  182.7236  157.9385 O   0  0  0  0  0  0  0  0  0  0  0  0
  196.9284  181.8792  157.6618 N   0  0  0  0  0  0  0  0  0  0  0  0
  196.2338  182.5423  158.7718 C   0  0  1  0  0  0  0  0  0  0  0  0
  196.2041  184.0733  158.6698 C   0  0  0  0  0  0  0  0  0  0  0  0
  195.6176  184.8342  159.7238 C   0  0  0  0  0  0  0  0  0  0  0  0
  195.5707  186.2436  159.6560 C   0  0  0  0  0  0  0  0  0  0  0  0
  196.1409  186.9205  158.5641 C   0  0  0  0  0  0  0  0  0  0  0  0
  196.7476  186.1709  157.5224 C   0  0  0  0  0  0  0  0  0  0  0  0
  196.7537  184.7636  157.5603 C   0  0  0  0  0  0  0  0  0  0  0  0
  194.8060  181.9476  158.9640 C   0  0  1  0  0  0  0  0  0  0  0  0
  194.1988  181.4220  157.7418 N   0  0  2  0  0  0  0  0  0  0  0  0
  198.1129  180.8397  155.0261 C   0  0  0  0  0  0  0  0  0  0  0  0
  198.9636  180.0136  154.2314 C   0  0  0  0  0  0  0  0  0  0  0  0
  198.5657  179.5614  152.9694 N   0  0  0  0  0  0  0  0  0  0  0  0
  199.3628  178.6062  152.2211 C   0  0  1  0  0  0  0  0  0  0  0  0
  198.8666  178.4400  150.8046 C   0  0  0  0  0  0  0  0  0  0  0  0
  198.6121  177.1642  150.2725 C   0  0  0  0  0  0  0  0  0  0  0  0
  198.1593  177.0347  148.9378 C   0  0  0  0  0  0  0  0  0  0  0  0
  197.9760  178.1770  148.1290 C   0  0  0  0  0  0  0  0  0  0  0  0
  198.1912  179.4560  148.6861 C   0  0  0  0  0  0  0  0  0  0  0  0
  198.6629  179.5865  149.9988 C   0  0  0  0  0  0  0  0  0  0  0  0
  197.5746  178.0518  146.6676 C   0  0  1  0  0  0  0  0  0  0  0  0
  198.6792  178.2983  145.6856 N   0  0  2  0  0  0  0  0  0  0  0  0
  199.9598  178.8206  146.2398 C   0  0  2  0  0  0  0  0  0  0  0  0
  198.2316  179.1100  144.5338 C   0  0  2  0  0  0  0  0  0  0  0  0
  200.1663  179.7561  154.8330 C   0  0  0  0  0  0  0  0  0  0  0  0
  193.2609  181.0976  157.9064 H   0  0  0  0  0  0  0  0  0  0  0  0
  194.7690  180.6394  157.4377 H   0  0  0  0  0  0  0  0  0  0  0  0
  196.4711  181.1268  157.1793 H   0  0  0  0  0  0  0  0  0  0  0  0
  196.7948  182.3184  159.6833 H   0  0  0  0  0  0  0  0  0  0  0  0
  195.1928  184.3361  160.5901 H   0  0  0  0  0  0  0  0  0  0  0  0
  195.0926  186.8074  160.4481 H   0  0  0  0  0  0  0  0  0  0  0  0
  196.1085  187.9996  158.4945 H   0  0  0  0  0  0  0  0  0  0  0  0
  197.1717  186.6682  156.6573 H   0  0  0  0  0  0  0  0  0  0  0  0
  197.1521  184.2351  156.6951 H   0  0  0  0  0  0  0  0  0  0  0  0
  194.8311  181.1219  159.6875 H   0  0  0  0  0  0  0  0  0  0  0  0
  194.1043  182.6851  159.3663 H   0  0  0  0  0  0  0  0  0  0  0  0
  197.1371  181.1742  154.6825 H   0  0  0  0  0  0  0  0  0  0  0  0
  197.6732  179.8542  152.5938 H   0  0  0  0  0  0  0  0  0  0  0  0
  200.3998  178.9383  152.1979 H   0  0  0  0  0  0  0  0  0  0  0  0
  199.3368  177.6482  152.7321 H   0  0  0  0  0  0  0  0  0  0  0  0
  198.7903  176.2810  150.8698 H   0  0  0  0  0  0  0  0  0  0  0  0
  198.0082  176.0383  148.5297 H   0  0  0  0  0  0  0  0  0  0  0  0
  198.0419  180.3445  148.1052 H   0  0  0  0  0  0  0  0  0  0  0  0
  198.9310  180.5685  150.3842 H   0  0  0  0  0  0  0  0  0  0  0  0
  197.1636  177.0597  146.4761 H   0  0  0  0  0  0  0  0  0  0  0  0
  196.7352  178.7314  146.4983 H   0  0  0  0  0  0  0  0  0  0  0  0
  199.8293  179.8292  146.6364 H   0  0  0  0  0  0  0  0  0  0  0  0
  200.7469  178.8829  145.4669 H   0  0  0  0  0  0  0  0  0  0  0  0
  200.3539  178.1791  147.0266 H   0  0  0  0  0  0  0  0  0  0  0  0
  197.9043  180.0939  144.8620 H   0  0  0  0  0  0  0  0  0  0  0  0
  197.4000  178.6352  144.0111 H   0  0  0  0  0  0  0  0  0  0  0  0
  199.0439  179.2417  143.8190 H   0  0  0  0  0  0  0  0  0  0  0  0
  201.0045  179.1666  154.4902 H   0  0  0  0  0  0  0  0  0  0  0  0
  194.1513  182.1285  157.0125 H   0  0  0  0  0  0  0  0  0  0  0  0
  198.9115  177.3986  145.2859 H   0  0  0  0  0  0  0  0  0  0  0  0
  1  2  1  0
  1 29  1  0
  2  3  1  0
  2 15  2  0
  3  4  2  0
  3  5  1  0
  5  6  1  0
  5 32  1  0
  6  7  1  0
  6 13  1  0
  6 33  1  1
  7  8  2  0
  7 12  1  0
  8  9  1  0
  8 34  1  0
  9 10  2  0
  9 35  1  0
 10 11  1  0
 10 36  1  0
 11 12  2  0
 11 37  1  0
 12 38  1  0
 13 14  1  0
 13 39  1  1
 13 40  1  0
 14 30  1  1
 14 31  1  0
 14 58  1  0
 15 16  1  0
 15 41  1  0
 16 17  1  0
 16 29  2  0
 17 18  1  0
 17 42  1  0
 18 19  1  0
 18 43  1  6
 18 44  1  0
 19 20  1  0
 19 24  2  0
 20 21  2  0
 20 45  1  0
 21 22  1  0
 21 46  1  0
 22 23  2  0
 22 25  1  0
 23 24  1  0
 23 47  1  0
 24 48  1  0
 25 26  1  0
 25 49  1  1
 25 50  1  0
 26 27  1  0
 26 28  1  0
 26 59  1  6
 27 51  1  1
 27 52  1  0
 27 53  1  0
 28 54  1  1
 28 55  1  0
 28 56  1  0
 29 57  1  0
M  CHG  2  14   1  26   1
M  END
>  <s_epik_cmdline>  (1077) 
J2VwaWtfcHl0aG9uJywgJy1waCcsICc3LjAwMDAwMCcsICctcGh0JywgJzIuMDAwMDAwJywgJy1tcycsICcxNicsICctdG4nLCAnOCcsICctbWEnLCAnMjAwJywgJy1pbWFlJywgJzxpbmZpbGUubWFlPicsICctb21hZScsICc8b3V0ZmlsZS5tYWU+Jw==

>  <s_epik_input>  (1077) 
W2NIXTFbY0hdW2NIXVtjSF1bY0hdYzFbQ0BASF0oW0NIMl1bTkgyXSlbTkhdQyg9TyljMnNbY0hdYyhbY0hdMilbTkhdW0NIMl1jM1tjSF1bY0hdYyhbY0hdW2NIXTMpW0NIMl1OKFtDSDNdKVtDSDNd

>  <s_i_glide_gridfile>  (1077) 
ATP-Grid

>  <s_lp_Force_Field>  (1077) 
OPLS_2005

>  <s_lp_Variant>  (1077) 
rxn512b____EMOL44391395____EMOL720738____EMOL50155899-2

>  <s_lp_label>  (1077) 
2847_sdstereoexpander_2_neutralizer_1_epik_1_stereoizer_1

>  <s_m_source_file>  (1077) 
ATP-VSW-LIGPREP-002-in.maegz

>  <s_sd_BIOSOLVEIT.INFINISEE\_QUERY\_NAME>  (1077) 
Ref-Lig

>  <s_sd_BIOSOLVEIT.INFINISEE\_QUERY\_SMILES>  (1077) 
S(c1nc2c(cc1C[NH2+]Cc3ccc(cc3)C[NH+](C)C)cccc2)Cc4ccccc4

>  <s_sd_BIOSOLVEIT.INFINISEE\_REACTION\_NAME>  (1077) 
rxn512b

>  <s_sd_BIOSOLVEIT.INFINISEE\_REAGENT1\_NAME>  (1077) 
EMOL44391395

>  <s_sd_BIOSOLVEIT.INFINISEE\_REAGENT1\_SMILES>  (1077) 
NC(c1ccccc1)CN

>  <s_sd_BIOSOLVEIT.INFINISEE\_REAGENT2\_NAME>  (1077) 
EMOL720738

>  <s_sd_BIOSOLVEIT.INFINISEE\_REAGENT2\_SMILES>  (1077) 
BrC1=CSC(C(=O)O)=C1

>  <s_sd_BIOSOLVEIT.INFINISEE\_REAGENT3\_NAME>  (1077) 
EMOL50155899

>  <s_sd_BIOSOLVEIT.INFINISEE\_REAGENT3\_SMILES>  (1077) 
N(Cc1ccc(cc1)CN)(C)C

>  <s_sd_BIOSOLVEIT.INFINISEE\_SPACE>  (1077) 
eXplore_7tr_2022-12

>  <s_vsw_compound_code>  (1077) 
91074

>  <s_vsw_variant>  (1077) 
91074-2

>  <r_epik_Charging_Adjusted_Penalty>  (1077) 
0.094513192304038707

>  <r_epik_Ionization_Penalty>  (1077) 
0.047300000000000002

>  <r_epik_Ionization_Penalty_Charging>  (1077) 
0.047300000000000002

>  <r_epik_Ionization_Penalty_Neutral>  (1077) 
0

>  <r_epik_State_Penalty>  (1077) 
0.047300000000000002

>  <r_i_docking_score>  (1077) 
-6.9600504474176503

>  <r_i_glide_ecoul>  (1077) 
-16.904239654541001

>  <r_i_glide_eff_state_penalty>  (1077) 
0.047300000000000002

>  <r_i_glide_einternal>  (1077) 
21.483129501342798

>  <r_i_glide_emodel>  (1077) 
-71.219546799954898

>  <r_i_glide_energy>  (1077) 
-46.4540405273438

>  <r_i_glide_erotb>  (1077) 
0.57267372062484601

>  <r_i_glide_esite>  (1077) 
-0.25090472108820899

>  <r_i_glide_evdw>  (1077) 
-29.549800872802699

>  <r_i_glide_gscore>  (1077) 
-7.0073504474176396

>  <r_i_glide_hbond>  (1077) 
-0.44596216317542098

>  <r_i_glide_ligand_efficiency>  (1077) 
-0.240001739566126

>  <r_i_glide_ligand_efficiency_ln>  (1077) 
-1.5936750608074099

>  <r_i_glide_ligand_efficiency_sa>  (1077) 
-0.73736138183524302

>  <r_i_glide_lipo>  (1077) 
-1.5053256101393899

>  <r_i_glide_metal>  (1077) 
-0

>  <r_i_glide_rewards>  (1077) 
-1.36470568181818

>  <r_lp_Energy>  (1077) 
26.542280000000002

>  <r_lp_tautomer_probability>  (1077) 
0.99999274205267796

>  <r_qp_ACxDN^.5/SA>  (1077) 
0.016450900000000001

>  <r_qp_CIQPlogS>  (1077) 
-2.5659999999999998

>  <r_qp_EA(eV)>  (1077) 
0.68100000000000005

>  <r_qp_FISA>  (1077) 
106.77800000000001

>  <r_qp_FOSA>  (1077) 
259.74299999999999

>  <r_qp_IP(eV)>  (1077) 
8.2620000000000005

>  <r_qp_Jm>  (1077) 
0.0043132134358632099

>  <r_qp_PISA>  (1077) 
388.64400000000001

>  <r_qp_PSA>  (1077) 
77.453000000000003

>  <r_qp_PercentHumanOralAbsorption>  (1077) 
65.376000000000005

>  <r_qp_QPPCaco>  (1077) 
14.929

>  <r_qp_QPPMDCK>  (1077) 
11.076000000000001

>  <r_qp_QPlogBB>  (1077) 
-0.38500000000000001

>  <r_qp_QPlogHERG>  (1077) 
-9.4309999999999992

>  <r_qp_QPlogKhsa>  (1077) 
0.45400000000000001

>  <r_qp_QPlogKp>  (1077) 
-5.2830000000000004

>  <r_qp_QPlogPC16>  (1077) 
15.987

>  <r_qp_QPlogPo/w>  (1077) 
2.9750000000000001

>  <r_qp_QPlogPoct>  (1077) 
25.036999999999999

>  <r_qp_QPlogPw>  (1077) 
15.058

>  <r_qp_QPlogS>  (1077) 
-2.6930000000000001

>  <r_qp_QPpolrz>  (1077) 
46.628999999999998

>  <r_qp_SASA>  (1077) 
790.22900000000004

>  <r_qp_SAamideO>  (1077) 
0

>  <r_qp_SAfluorine>  (1077) 
0

>  <r_qp_WPSA>  (1077) 
35.063000000000002

>  <r_qp_accptHB>  (1077) 
6.5

>  <r_qp_dip^2/V>  (1077) 
0.024104199999999999

>  <r_qp_dipole>  (1077) 
5.7809999999999997

>  <r_qp_donorHB>  (1077) 
4

>  <r_qp_glob>  (1077) 
0.76099559999999999

>  <r_qp_mol_MW>  (1077) 
408.56

>  <r_qp_volume>  (1077) 
1386.6110000000001

>  <r_sd_BIOSOLVEIT.INFINISEE\_FTREES\_SIMILARITY>  (1077) 
0.90500000000000003

>  <r_sd_BIOSOLVEIT.LOGP>  (1077) 
1.7177

>  <r_sd_BIOSOLVEIT.MOLECULAR\_WEIGHT>  (1077) 
410.58199999999999

>  <r_sd_BIOSOLVEIT.TPSA>  (1077) 
73.209999999999994

>  <i_epik_Tot_Q>  (1077) 
2

>  <i_epik_Tot_abs_Q>  (1077) 
2

>  <i_f3d_flags>  (1077) 
0

>  <i_i_glide_confnum>  (1077) 
1

>  <i_i_glide_lignum>  (1077) 
1408

>  <i_i_glide_posenum>  (1077) 
16

>  <i_i_glide_rotatable_bonds>  (1077) 
10

>  <i_lp_mmshare_version>  (1077) 
65135

>  <i_m_ct_format>  (1077) 
2

>  <i_m_source_file_index>  (1077) 
2847

>  <i_qp_#NandO>  (1077) 
5

>  <i_qp_#acid>  (1077) 
0

>  <i_qp_#amide>  (1077) 
0

>  <i_qp_#amidine>  (1077) 
0

>  <i_qp_#amine>  (1077) 
3

>  <i_qp_#in34>  (1077) 
0

>  <i_qp_#in56>  (1077) 
17

>  <i_qp_#metab>  (1077) 
9

>  <i_qp_#nonHatm>  (1077) 
29

>  <i_qp_#noncon>  (1077) 
0

>  <i_qp_#ringatoms>  (1077) 
17

>  <i_qp_#rotor>  (1077) 
10

>  <i_qp_#rtvFG>  (1077) 
0

>  <i_qp_#stars>  (1077) 
1

>  <i_qp_CNS>  (1077) 
0

>  <i_qp_HumanOralAbsorption>  (1077) 
2

>  <i_qp_RuleOfFive>  (1077) 
0

>  <i_qp_RuleOfThree>  (1077) 
2

>  <i_sd_BIOSOLVEIT.INFINISEE\_RESULT\_RANK>  (1077) 
68643

>  <i_sd_version>  (1077) 
0

>  <b_lp_Chiralities_Consistent>  (1077) 
1

>  <b_sd_chiral_flag>  (1077) 
0

>  <canonical_id>  (1077) 
ATP-HTVS-AC71774ACC4B

>  <compound_code>  (1077) 
91074

>  <title>  (1077) 
rxn512b____EMOL44391395____EMOL720738____EMOL50155899

>  <variant>  (1077) 
91074-2

>  <source_file>  (1077) 
运行/运行/ATP-VSW/ATP-VSW-DOCK_HTVS_1-002_lib.maegz

>  <canonical_smiles>  (1077) 
C[NH+](C)Cc1ccc(CNc2csc(C(=O)N[C@H](C[NH3+])c3ccccc3)c2)cc1

>  <scaffold>  (1077) 
O=C(NCc1ccccc1)c1cc(NCc2ccccc2)cs1

>  <molecular_formula>  (1077) 
C23H30N4OS+2

$$$$
ATP-HTVS-ACBE41267A18
     RDKit          3D

 60 63  0  0  0  0  0  0  0  0999 V2000
  195.3636  185.8681  160.5931 Cl  0  0  0  0  0  0  0  0  0  0  0  0
  195.9217  184.9566  159.2432 C   0  0  0  0  0  0  0  0  0  0  0  0
  195.2874  183.7523  158.8962 C   0  0  0  0  0  0  0  0  0  0  0  0
  195.7128  183.0321  157.7687 C   0  0  0  0  0  0  0  0  0  0  0  0
  196.7910  183.4970  156.9771 C   0  0  0  0  0  0  0  0  0  0  0  0
  197.4332  184.7044  157.3388 C   0  0  0  0  0  0  0  0  0  0  0  0
  197.0006  185.4284  158.4710 C   0  0  0  0  0  0  0  0  0  0  0  0
  197.2437  182.7527  155.7216 C   0  0  1  0  0  0  0  0  0  0  0  0
  196.9685  181.2399  155.7478 C   0  0  1  0  0  0  0  0  0  0  0  0
  197.4392  180.5246  154.4985 C   0  0  0  0  0  0  0  0  0  0  0  0
  198.5154  179.7571  154.6096 N   0  0  0  0  0  0  0  0  0  0  0  0
  198.8848  179.0320  153.5389 C   0  0  0  0  0  0  0  0  0  0  0  0
  199.9405  178.1140  153.6981 N   0  0  0  0  0  0  0  0  0  0  0  0
  200.0313  177.4127  154.9792 C   0  0  1  0  0  0  0  0  0  0  0  0
  201.4815  177.3879  155.5363 C   0  0  1  0  0  0  0  0  0  0  0  0
  201.5297  177.6112  157.0116 N   0  0  1  0  0  0  0  0  0  0  0  0
  201.2037  179.0066  157.3935 C   0  0  2  0  0  0  0  0  0  0  0  0
  200.7411  176.6482  157.8220 C   0  0  2  0  0  0  0  0  0  0  0  0
  202.2449  176.1179  155.1165 C   0  0  0  0  0  0  0  0  0  0  0  0
  203.5363  176.2065  154.5441 C   0  0  0  0  0  0  0  0  0  0  0  0
  204.2286  175.0330  154.1673 C   0  0  0  0  0  0  0  0  0  0  0  0
  203.6419  173.7638  154.3561 C   0  0  0  0  0  0  0  0  0  0  0  0
  204.3168  172.6389  153.9893 O   0  0  0  0  0  0  0  0  0  0  0  0
  202.3617  173.6701  154.9222 C   0  0  0  0  0  0  0  0  0  0  0  0
  201.6703  174.8361  155.2927 C   0  0  0  0  0  0  0  0  0  0  0  0
  198.2017  179.1529  152.3052 C   0  0  0  0  0  0  0  0  0  0  0  0
  197.0819  180.0251  152.2872 C   0  0  0  0  0  0  0  0  0  0  0  0
  196.7106  180.6867  153.3975 N   0  0  0  0  0  0  0  0  0  0  0  0
  196.3671  180.1839  151.0806 C   0  0  0  0  0  0  0  0  0  0  0  0
  196.7482  179.4895  149.9171 C   0  0  0  0  0  0  0  0  0  0  0  0
  197.8552  178.6208  149.9488 C   0  0  0  0  0  0  0  0  0  0  0  0
  198.5797  178.4490  151.1433 C   0  0  0  0  0  0  0  0  0  0  0  0
  194.4535  183.3828  159.4719 H   0  0  0  0  0  0  0  0  0  0  0  0
  195.1599  182.1383  157.5180 H   0  0  0  0  0  0  0  0  0  0  0  0
  198.2470  185.0949  156.7409 H   0  0  0  0  0  0  0  0  0  0  0  0
  197.4892  186.3529  158.7424 H   0  0  0  0  0  0  0  0  0  0  0  0
  196.7437  183.2013  154.8639 H   0  0  0  0  0  0  0  0  0  0  0  0
  198.3104  182.9233  155.5698 H   0  0  0  0  0  0  0  0  0  0  0  0
  197.4472  180.8043  156.6237 H   0  0  0  0  0  0  0  0  0  0  0  0
  195.9088  181.0220  155.8373 H   0  0  0  0  0  0  0  0  0  0  0  0
  200.1541  177.5534  152.8896 H   0  0  0  0  0  0  0  0  0  0  0  0
  199.3579  177.8205  155.7300 H   0  0  0  0  0  0  0  0  0  0  0  0
  199.6372  176.4120  154.8181 H   0  0  0  0  0  0  0  0  0  0  0  0
  202.0366  178.2320  155.1077 H   0  0  0  0  0  0  0  0  0  0  0  0
  200.1898  179.3031  157.1059 H   0  0  0  0  0  0  0  0  0  0  0  0
  201.9064  179.7093  156.9398 H   0  0  0  0  0  0  0  0  0  0  0  0
  201.2755  179.1218  158.4757 H   0  0  0  0  0  0  0  0  0  0  0  0
  199.6913  176.6395  157.5290 H   0  0  0  0  0  0  0  0  0  0  0  0
  200.7478  176.9110  158.8786 H   0  0  0  0  0  0  0  0  0  0  0  0
  201.1530  175.6496  157.7403 H   0  0  0  0  0  0  0  0  0  0  0  0
  204.0059  177.1703  154.4013 H   0  0  0  0  0  0  0  0  0  0  0  0
  205.2120  175.1108  153.7274 H   0  0  0  0  0  0  0  0  0  0  0  0
  203.8699  171.7837  154.0954 H   0  0  0  0  0  0  0  0  0  0  0  0
  201.9105  172.7001  155.0654 H   0  0  0  0  0  0  0  0  0  0  0  0
  200.6881  174.7105  155.7227 H   0  0  0  0  0  0  0  0  0  0  0  0
  195.5255  180.8600  151.0655 H   0  0  0  0  0  0  0  0  0  0  0  0
  196.1950  179.6216  148.9992 H   0  0  0  0  0  0  0  0  0  0  0  0
  198.1559  178.0913  149.0537 H   0  0  0  0  0  0  0  0  0  0  0  0
  199.4270  177.7830  151.1396 H   0  0  0  0  0  0  0  0  0  0  0  0
  202.5095  177.4958  157.2675 H   0  0  0  0  0  0  0  0  0  0  0  0
  1  2  1  0
  2  3  1  0
  2  7  2  0
  3  4  2  0
  3 33  1  0
  4  5  1  0
  4 34  1  0
  5  6  2  0
  5  8  1  0
  6  7  1  0
  6 35  1  0
  7 36  1  0
  8  9  1  0
  8 37  1  6
  8 38  1  0
  9 10  1  0
  9 39  1  1
  9 40  1  0
 10 11  2  0
 10 28  1  0
 11 12  1  0
 12 13  1  0
 12 26  2  0
 13 14  1  0
 13 41  1  0
 14 15  1  0
 14 42  1  1
 14 43  1  0
 15 16  1  0
 15 19  1  0
 15 44  1  6
 16 17  1  0
 16 18  1  0
 16 60  1  1
 17 45  1  6
 17 46  1  0
 17 47  1  0
 18 48  1  6
 18 49  1  0
 18 50  1  0
 19 20  1  0
 19 25  2  0
 20 21  2  0
 20 51  1  0
 21 22  1  0
 21 52  1  0
 22 23  1  0
 22 24  2  0
 23 53  1  0
 24 25  1  0
 24 54  1  0
 25 55  1  0
 26 27  1  0
 26 32  1  0
 27 28  2  0
 27 29  1  0
 29 30  2  0
 29 56  1  0
 30 31  1  0
 30 57  1  0
 31 32  2  0
 31 58  1  0
 32 59  1  0
M  CHG  1  16   1
M  END
>  <s_epik_cmdline>  (1078) 
J2VwaWtfcHl0aG9uJywgJy1waCcsICc3LjAwMDAwMCcsICctcGh0JywgJzIuMDAwMDAwJywgJy1tcycsICcxNicsICctdG4nLCAnOCcsICctbWEnLCAnMjAwJywgJy1pbWFlJywgJzxpbmZpbGUubWFlPicsICctb21hZScsICc8b3V0ZmlsZS5tYWU+Jw==

>  <s_epik_input>  (1078) 
Q2xjMVtjSF1bY0hdYyhbY0hdW2NIXTEpW0NIMl1bQ0gyXWMobmMoYzIzKVtjSF1bY0hdW2NIXVtjSF0zKW5jMltOSF1bQ0gyXVtDQEBIXShOKFtDSDNdKVtDSDNdKWM0W2NIXVtjSF1jKFtPSF0pW2NIXVtjSF00

>  <s_i_glide_gridfile>  (1078) 
ATP-Grid

>  <s_lp_Force_Field>  (1078) 
OPLS_2005

>  <s_lp_Variant>  (1078) 
YAS_R006____OTV5753507____OTV7018930011____OTV1000393-2

>  <s_lp_label>  (1078) 
135_sdstereoexpander_2_neutralizer_1_epik_1_stereoizer_1

>  <s_m_source_file>  (1078) 
ATP-VSW-LIGPREP-002-in.maegz

>  <s_sd_BIOSOLVEIT.INFINISEE\_QUERY\_NAME>  (1078) 
Ref-Lig

>  <s_sd_BIOSOLVEIT.INFINISEE\_QUERY\_SMILES>  (1078) 
S(c1nc2c(cc1C[NH2+]Cc3ccc(cc3)C[NH+](C)C)cccc2)Cc4ccccc4

>  <s_sd_BIOSOLVEIT.INFINISEE\_REACTION\_NAME>  (1078) 
YAS_R006

>  <s_sd_BIOSOLVEIT.INFINISEE\_REAGENT1\_NAME>  (1078) 
OTV5753507

>  <s_sd_BIOSOLVEIT.INFINISEE\_REAGENT1\_SMILES>  (1078) 
Nc1ccccc1

>  <s_sd_BIOSOLVEIT.INFINISEE\_REAGENT2\_NAME>  (1078) 
OTV7018930011

>  <s_sd_BIOSOLVEIT.INFINISEE\_REAGENT2\_SMILES>  (1078) 
Clc1ccc(cc1)CCC(=O)O

>  <s_sd_BIOSOLVEIT.INFINISEE\_REAGENT3\_NAME>  (1078) 
OTV1000393

>  <s_sd_BIOSOLVEIT.INFINISEE\_REAGENT3\_SMILES>  (1078) 
Oc1ccc(cc1)C(N(C)C)CN

>  <s_sd_BIOSOLVEIT.INFINISEE\_SPACE>  (1078) 
CHEMriya_12bn_2022-01

>  <s_vsw_compound_code>  (1078) 
4290

>  <s_vsw_variant>  (1078) 
4290-2

>  <r_epik_Charging_Adjusted_Penalty>  (1078) 
0.26873930093119802

>  <r_epik_Ionization_Penalty>  (1078) 
0.17030000000000001

>  <r_epik_Ionization_Penalty_Charging>  (1078) 
0.036499999999999998

>  <r_epik_Ionization_Penalty_Neutral>  (1078) 
0.1338

>  <r_epik_State_Penalty>  (1078) 
0.23230000000000001

>  <r_i_docking_score>  (1078) 
-5.7449206229209704

>  <r_i_glide_ecoul>  (1078) 
-14.0682888031006

>  <r_i_glide_eff_state_penalty>  (1078) 
0.23230000000000001

>  <r_i_glide_einternal>  (1078) 
7.66115427017212

>  <r_i_glide_emodel>  (1078) 
-74.565741546298298

>  <r_i_glide_energy>  (1078) 
-53.829736709594698

>  <r_i_glide_erotb>  (1078) 
0.69862128445825

>  <r_i_glide_esite>  (1078) 
-0.032759376069992303

>  <r_i_glide_evdw>  (1078) 
-39.761447906494098

>  <r_i_glide_gscore>  (1078) 
-5.9772206229209699

>  <r_i_glide_hbond>  (1078) 
-0.16

>  <r_i_glide_ligand_efficiency>  (1078) 
-0.17952876946627999

>  <r_i_glide_ligand_efficiency_ln>  (1078) 
-1.2864443280936699

>  <r_i_glide_ligand_efficiency_sa>  (1078) 
-0.56996831436020601

>  <r_i_glide_lipo>  (1078) 
-1.80508104279216

>  <r_i_glide_metal>  (1078) 
-0

>  <r_i_glide_rewards>  (1078) 
-0.57968577272727095

>  <r_lp_Energy>  (1078) 
13.746171

>  <r_lp_tautomer_probability>  (1078) 
0.99997800023936201

>  <r_qp_ACxDN^.5/SA>  (1078) 
0.0112751

>  <r_qp_CIQPlogS>  (1078) 
-6.3959999999999999

>  <r_qp_EA(eV)>  (1078) 
0.96199999999999997

>  <r_qp_FISA>  (1078) 
71.609999999999999

>  <r_qp_FOSA>  (1078) 
241.96000000000001

>  <r_qp_IP(eV)>  (1078) 
8.6359999999999992

>  <r_qp_Jm>  (1078) 
0.056081493424413702

>  <r_qp_PISA>  (1078) 
282.411

>  <r_qp_PSA>  (1078) 
57.945

>  <r_qp_PercentHumanOralAbsorption>  (1078) 
100

>  <r_qp_QPPCaco>  (1078) 
517.27999999999997

>  <r_qp_QPPMDCK>  (1078) 
590.58299999999997

>  <r_qp_QPlogBB>  (1078) 
-0.042999999999999997

>  <r_qp_QPlogHERG>  (1078) 
-5.5430000000000001

>  <r_qp_QPlogKhsa>  (1078) 
0.76000000000000001

>  <r_qp_QPlogKp>  (1078) 
-3.0430000000000001

>  <r_qp_QPlogPC16>  (1078) 
13.776

>  <r_qp_QPlogPo/w>  (1078) 
4.7450000000000001

>  <r_qp_QPlogPoct>  (1078) 
20.346

>  <r_qp_QPlogPw>  (1078) 
9.8490000000000002

>  <r_qp_QPlogS>  (1078) 
-3.859

>  <r_qp_QPpolrz>  (1078) 
43.274000000000001

>  <r_qp_SASA>  (1078) 
658.49900000000002

>  <r_qp_SAamideO>  (1078) 
0

>  <r_qp_SAfluorine>  (1078) 
0

>  <r_qp_WPSA>  (1078) 
62.518999999999998

>  <r_qp_accptHB>  (1078) 
5.25

>  <r_qp_dip^2/V>  (1078) 
0.0058541000000000001

>  <r_qp_dipole>  (1078) 
2.7709999999999999

>  <r_qp_donorHB>  (1078) 
2

>  <r_qp_glob>  (1078) 
0.88020929999999997

>  <r_qp_mol_MW>  (1078) 
446.97800000000001

>  <r_qp_volume>  (1078) 
1312.0930000000001

>  <r_sd_BIOSOLVEIT.INFINISEE\_FTREES\_SIMILARITY>  (1078) 
0.90400000000000003

>  <r_sd_BIOSOLVEIT.LOGP>  (1078) 
4.0716999999999999

>  <r_sd_BIOSOLVEIT.MOLECULAR\_WEIGHT>  (1078) 
447.98700000000002

>  <r_sd_BIOSOLVEIT.TPSA>  (1078) 
62.479999999999997

>  <i_epik_Tot_Q>  (1078) 
1

>  <i_epik_Tot_abs_Q>  (1078) 
1

>  <i_f3d_flags>  (1078) 
0

>  <i_i_glide_confnum>  (1078) 
3

>  <i_i_glide_lignum>  (1078) 
106

>  <i_i_glide_posenum>  (1078) 
18

>  <i_i_glide_rotatable_bonds>  (1078) 
9

>  <i_lp_mmshare_version>  (1078) 
65135

>  <i_m_ct_format>  (1078) 
2

>  <i_m_source_file_index>  (1078) 
135

>  <i_qp_#NandO>  (1078) 
5

>  <i_qp_#acid>  (1078) 
0

>  <i_qp_#amide>  (1078) 
0

>  <i_qp_#amidine>  (1078) 
0

>  <i_qp_#amine>  (1078) 
1

>  <i_qp_#in34>  (1078) 
0

>  <i_qp_#in56>  (1078) 
22

>  <i_qp_#metab>  (1078) 
5

>  <i_qp_#nonHatm>  (1078) 
32

>  <i_qp_#noncon>  (1078) 
0

>  <i_qp_#ringatoms>  (1078) 
22

>  <i_qp_#rotor>  (1078) 
9

>  <i_qp_#rtvFG>  (1078) 
0

>  <i_qp_#stars>  (1078) 
0

>  <i_qp_CNS>  (1078) 
1

>  <i_qp_HumanOralAbsorption>  (1078) 
3

>  <i_qp_RuleOfFive>  (1078) 
0

>  <i_qp_RuleOfThree>  (1078) 
0

>  <i_sd_BIOSOLVEIT.INFINISEE\_RESULT\_RANK>  (1078) 
76622

>  <i_sd_version>  (1078) 
0

>  <b_lp_Chiralities_Consistent>  (1078) 
1

>  <b_sd_chiral_flag>  (1078) 
0

>  <canonical_id>  (1078) 
ATP-HTVS-ACBE41267A18

>  <compound_code>  (1078) 
4290

>  <title>  (1078) 
YAS_R006____OTV5753507____OTV7018930011____OTV1000393

>  <variant>  (1078) 
4290-2

>  <source_file>  (1078) 
运行/运行/ATP-VSW/ATP-VSW-DOCK_HTVS_1-002_lib.maegz

>  <canonical_smiles>  (1078) 
C[NH+](C)[C@H](CNc1nc(CCc2ccc(Cl)cc2)nc2ccccc12)c1ccc(O)cc1

>  <scaffold>  (1078) 
c1ccc(CCNc2nc(CCc3ccccc3)nc3ccccc23)cc1

>  <molecular_formula>  (1078) 
C26H28ClN4O+

$$$$
ATP-HTVS-AD26772F5837
     RDKit          3D

 66 69  0  0  0  0  0  0  0  0999 V2000
  200.8238  175.4760  153.7605 O   0  0  0  0  0  0  0  0  0  0  0  0
  201.4656  175.4850  154.8095 C   0  0  0  0  0  0  0  0  0  0  0  0
  201.8397  174.3412  155.3805 N   0  0  0  0  0  0  0  0  0  0  0  0
  201.9110  176.8037  155.4801 C   0  0  1  0  0  0  0  0  0  0  0  0
  200.8468  177.9276  155.6194 C   0  0  2  0  0  0  0  0  0  0  0  0
  200.1338  178.1552  154.3616 N   0  0  0  0  0  0  0  0  0  0  0  0
  199.0591  179.0414  154.2195 C   0  0  0  0  0  0  0  0  0  0  0  0
  198.6907  179.7868  155.2676 N   0  0  0  0  0  0  0  0  0  0  0  0
  197.7455  180.7009  155.1362 C   0  0  0  0  0  0  0  0  0  0  0  0
  197.0859  180.9009  153.9907 N   0  0  0  0  0  0  0  0  0  0  0  0
  197.3800  180.1402  152.9125 C   0  0  0  0  0  0  0  0  0  0  0  0
  198.4066  179.1717  152.9831 C   0  0  0  0  0  0  0  0  0  0  0  0
  198.7138  178.3874  151.8405 C   0  0  0  0  0  0  0  0  0  0  0  0
  197.9763  178.5615  150.6514 C   0  0  0  0  0  0  0  0  0  0  0  0
  196.9515  179.5303  150.5937 C   0  0  0  0  0  0  0  0  0  0  0  0
  196.6566  180.3239  151.7228 C   0  0  0  0  0  0  0  0  0  0  0  0
  197.5180  181.4927  156.2361 N   0  0  0  0  0  0  0  0  0  0  0  0
  196.5889  182.6042  156.2478 C   0  0  1  0  0  0  0  0  0  0  0  0
  196.7295  183.4961  157.4702 C   0  0  0  0  0  0  0  0  0  0  0  0
  196.0838  183.1900  158.6935 C   0  0  0  0  0  0  0  0  0  0  0  0
  196.2243  184.0700  159.7929 C   0  0  0  0  0  0  0  0  0  0  0  0
  197.0100  185.2306  159.6857 C   0  0  0  0  0  0  0  0  0  0  0  0
  197.6591  185.5299  158.4764 C   0  0  0  0  0  0  0  0  0  0  0  0
  197.5206  184.6630  157.3721 C   0  0  0  0  0  0  0  0  0  0  0  0
  195.1960  181.9562  158.8377 C   0  0  1  0  0  0  0  0  0  0  0  0
  193.8864  182.0897  158.1462 N   0  0  2  0  0  0  0  0  0  0  0  0
  193.1656  183.3489  158.4447 C   0  0  2  0  0  0  0  0  0  0  0  0
  193.0288  180.9013  158.3254 C   0  0  2  0  0  0  0  0  0  0  0  0
  201.4904  179.1915  156.1954 C   0  0  0  0  0  0  0  0  0  0  0  0
  201.5561  179.3855  157.5932 C   0  0  0  0  0  0  0  0  0  0  0  0
  202.0928  180.5812  158.1144 C   0  0  0  0  0  0  0  0  0  0  0  0
  202.5235  181.6027  157.2454 C   0  0  0  0  0  0  0  0  0  0  0  0
  202.4418  181.4238  155.8525 C   0  0  0  0  0  0  0  0  0  0  0  0
  201.9418  180.2193  155.3336 C   0  0  0  0  0  0  0  0  0  0  0  0
  201.5605  173.4802  154.9339 H   0  0  0  0  0  0  0  0  0  0  0  0
  202.4102  174.3264  156.2108 H   0  0  0  0  0  0  0  0  0  0  0  0
  202.2864  176.5801  156.4799 H   0  0  0  0  0  0  0  0  0  0  0  0
  202.7618  177.1939  154.9173 H   0  0  0  0  0  0  0  0  0  0  0  0
  200.0976  177.5842  156.3377 H   0  0  0  0  0  0  0  0  0  0  0  0
  200.3322  177.4741  153.6319 H   0  0  0  0  0  0  0  0  0  0  0  0
  199.4821  177.6301  151.8660 H   0  0  0  0  0  0  0  0  0  0  0  0
  198.1907  177.9467  149.7874 H   0  0  0  0  0  0  0  0  0  0  0  0
  196.3882  179.6593  149.6735 H   0  0  0  0  0  0  0  0  0  0  0  0
  195.8746  181.0632  151.6660 H   0  0  0  0  0  0  0  0  0  0  0  0
  198.0071  181.2484  157.0820 H   0  0  0  0  0  0  0  0  0  0  0  0
  196.7398  183.2188  155.3569 H   0  0  0  0  0  0  0  0  0  0  0  0
  195.5892  182.1954  156.1706 H   0  0  0  0  0  0  0  0  0  0  0  0
  195.7255  183.8606  160.7269 H   0  0  0  0  0  0  0  0  0  0  0  0
  197.1142  185.8983  160.5303 H   0  0  0  0  0  0  0  0  0  0  0  0
  198.2644  186.4219  158.3904 H   0  0  0  0  0  0  0  0  0  0  0  0
  198.0161  184.9090  156.4447 H   0  0  0  0  0  0  0  0  0  0  0  0
  195.7452  181.0808  158.5011 H   0  0  0  0  0  0  0  0  0  0  0  0
  195.0071  181.7717  159.8843 H   0  0  0  0  0  0  0  0  0  0  0  0
  192.9256  183.4782  159.4898 H   0  0  0  0  0  0  0  0  0  0  0  0
  192.2349  183.3371  157.8846 H   0  0  0  0  0  0  0  0  0  0  0  0
  193.7346  184.2276  158.1299 H   0  0  0  0  0  0  0  0  0  0  0  0
  192.7292  180.7749  159.3531 H   0  0  0  0  0  0  0  0  0  0  0  0
  193.5498  179.9935  158.0560 H   0  0  0  0  0  0  0  0  0  0  0  0
  192.1246  180.9703  157.7164 H   0  0  0  0  0  0  0  0  0  0  0  0
  201.2120  178.6076  158.2615 H   0  0  0  0  0  0  0  0  0  0  0  0
  202.1508  180.7227  159.1805 H   0  0  0  0  0  0  0  0  0  0  0  0
  202.9073  182.5307  157.6426 H   0  0  0  0  0  0  0  0  0  0  0  0
  202.7424  182.2091  155.1738 H   0  0  0  0  0  0  0  0  0  0  0  0
  201.8711  180.1042  154.2614 H   0  0  0  0  0  0  0  0  0  0  0  0
  196.3676  181.6208  153.9128 H   0  0  0  0  0  0  0  0  0  0  0  0
  194.0460  182.1640  157.1385 H   0  0  0  0  0  0  0  0  0  0  0  0
  1  2  2  0
  2  3  1  0
  2  4  1  0
  3 35  1  0
  3 36  1  0
  4  5  1  0
  4 37  1  1
  4 38  1  0
  5  6  1  0
  5 29  1  0
  5 39  1  1
  6  7  1  0
  6 40  1  0
  7  8  2  0
  7 12  1  0
  8  9  1  0
  9 10  2  0
  9 17  1  0
 10 11  1  0
 10 65  1  0
 11 12  1  0
 11 16  2  0
 12 13  2  0
 13 14  1  0
 13 41  1  0
 14 15  2  0
 14 42  1  0
 15 16  1  0
 15 43  1  0
 16 44  1  0
 17 18  1  0
 17 45  1  0
 18 19  1  0
 18 46  1  6
 18 47  1  0
 19 20  1  0
 19 24  2  0
 20 21  2  0
 20 25  1  0
 21 22  1  0
 21 48  1  0
 22 23  2  0
 22 49  1  0
 23 24  1  0
 23 50  1  0
 24 51  1  0
 25 26  1  0
 25 52  1  6
 25 53  1  0
 26 27  1  0
 26 28  1  0
 26 66  1  6
 27 54  1  1
 27 55  1  0
 27 56  1  0
 28 57  1  1
 28 58  1  0
 28 59  1  0
 29 30  2  0
 29 34  1  0
 30 31  1  0
 30 60  1  0
 31 32  2  0
 31 61  1  0
 32 33  1  0
 32 62  1  0
 33 34  2  0
 33 63  1  0
 34 64  1  0
M  CHG  2  10   1  26   1
M  END
>  <s_epik_cmdline>  (1079) 
J2VwaWtfcHl0aG9uJywgJy1waCcsICc3LjAwMDAwMCcsICctcGh0JywgJzIuMDAwMDAwJywgJy1tcycsICcxNicsICctdG4nLCAnOCcsICctbWEnLCAnMjAwJywgJy1pbWFlJywgJzxpbmZpbGUubWFlPicsICctb21hZScsICc8b3V0ZmlsZS5tYWU+Jw==

>  <s_epik_input>  (1079) 
W2NIXTFbY0hdW2NIXVtjSF1bY0hdYzFbQ0BIXShbQ0gyXUMoPU8pW05IMl0pW05IXWMoYyhjMjMpW2NIXVtjSF1bY0hdW2NIXTMpbmMobjIpW05IXVtDSDJdYzRjKFtDSDJdTihbQ0gzXSlbQ0gzXSlbY0hdW2NIXVtjSF1bY0hdNA==

>  <s_i_glide_gridfile>  (1079) 
ATP-Grid

>  <s_lp_Force_Field>  (1079) 
OPLS_2005

>  <s_lp_Variant>  (1079) 
m_282030aaa____21927700____22360182____21950834-2

>  <s_lp_label>  (1079) 
1114_sdstereoexpander_2_neutralizer_1_epik_1_stereoizer_1

>  <s_m_source_file>  (1079) 
ATP-VSW-LIGPREP-001-in.maegz

>  <s_sd_BIOSOLVEIT.INFINISEE\_QUERY\_NAME>  (1079) 
Ref-Lig

>  <s_sd_BIOSOLVEIT.INFINISEE\_QUERY\_SMILES>  (1079) 
S(c1nc2c(cc1C[NH2+]Cc3ccc(cc3)C[NH+](C)C)cccc2)Cc4ccccc4

>  <s_sd_BIOSOLVEIT.INFINISEE\_REACTION\_NAME>  (1079) 
m_282030aaa

>  <s_sd_BIOSOLVEIT.INFINISEE\_REAGENT1\_SMILES>  (1079) 
[R1*]NCc1c(cccc1)CN(C)C

>  <s_sd_BIOSOLVEIT.INFINISEE\_REAGENT2\_SMILES>  (1079) 
[R2*]c1nc([R1*])c2c(n1)cccc2

>  <s_sd_BIOSOLVEIT.INFINISEE\_REAGENT3\_SMILES>  (1079) 
[R2*]NC(c1ccccc1)CC(=O)N

>  <s_sd_BIOSOLVEIT.INFINISEE\_SPACE>  (1079) 
REALSpace_44bn_2023-08

>  <s_vsw_compound_code>  (1079) 
35617

>  <s_vsw_variant>  (1079) 
35617-2

>  <r_epik_Charging_Adjusted_Penalty>  (1079) 
0.14109882725339901

>  <r_epik_Ionization_Penalty>  (1079) 
0.066299999999999998

>  <r_epik_Ionization_Penalty_Charging>  (1079) 
0.066299999999999998

>  <r_epik_Ionization_Penalty_Neutral>  (1079) 
0

>  <r_epik_State_Penalty>  (1079) 
0.074800000000000005

>  <r_i_docking_score>  (1079) 
-3.9477833682894001

>  <r_i_glide_ecoul>  (1079) 
-7.2178430557251003

>  <r_i_glide_eff_state_penalty>  (1079) 
0.074800000000000005

>  <r_i_glide_einternal>  (1079) 
2.07169413566589

>  <r_i_glide_emodel>  (1079) 
-60.825070542089499

>  <r_i_glide_energy>  (1079) 
-41.0421686172485

>  <r_i_glide_erotb>  (1079) 
0.77127121639332796

>  <r_i_glide_esite>  (1079) 
-0.22183079611845499

>  <r_i_glide_evdw>  (1079) 
-33.824325561523402

>  <r_i_glide_gscore>  (1079) 
-4.0225833682893999

>  <r_i_glide_hbond>  (1079) 
-0.197844374163584

>  <r_i_glide_ligand_efficiency>  (1079) 
-0.116111275537923

>  <r_i_glide_ligand_efficiency_ln>  (1079) 
-0.87217607762787996

>  <r_i_glide_ligand_efficiency_sa>  (1079) 
-0.37615545805188499

>  <r_i_glide_lipo>  (1079) 
-1.1180552251557301

>  <r_i_glide_metal>  (1079) 
-0

>  <r_i_glide_rewards>  (1079) 
-0.482231452810022

>  <r_lp_Energy>  (1079) 
22.699214000000001

>  <r_qp_ACxDN^.5/SA>  (1079) 
0.013776500000000001

>  <r_qp_CIQPlogS>  (1079) 
-5.3310000000000004

>  <r_qp_EA(eV)>  (1079) 
0.433

>  <r_qp_FISA>  (1079) 
104.764

>  <r_qp_FOSA>  (1079) 
208.87700000000001

>  <r_qp_IP(eV)>  (1079) 
7.7729999999999997

>  <r_qp_Jm>  (1079) 
0.018236575981305399

>  <r_qp_PISA>  (1079) 
503.57400000000001

>  <r_qp_PSA>  (1079) 
94.090999999999994

>  <r_qp_PercentHumanOralAbsorption>  (1079) 
90.688999999999993

>  <r_qp_QPPCaco>  (1079) 
143.59299999999999

>  <r_qp_QPPMDCK>  (1079) 
122.735

>  <r_qp_QPlogBB>  (1079) 
-0.81000000000000005

>  <r_qp_QPlogHERG>  (1079) 
-6.9580000000000002

>  <r_qp_QPlogKhsa>  (1079) 
0.51000000000000001

>  <r_qp_QPlogKp>  (1079) 
-2.7789999999999999

>  <r_qp_QPlogPC16>  (1079) 
17.236000000000001

>  <r_qp_QPlogPo/w>  (1079) 
4.2930000000000001

>  <r_qp_QPlogPoct>  (1079) 
25.672999999999998

>  <r_qp_QPlogPw>  (1079) 
16.666

>  <r_qp_QPlogS>  (1079) 
-4.6180000000000003

>  <r_qp_QPpolrz>  (1079) 
51.981000000000002

>  <r_qp_SASA>  (1079) 
817.21500000000003

>  <r_qp_SAamideO>  (1079) 
30.425999999999998

>  <r_qp_SAfluorine>  (1079) 
0

>  <r_qp_WPSA>  (1079) 
0

>  <r_qp_accptHB>  (1079) 
6.5

>  <r_qp_dip^2/V>  (1079) 
0.032710400000000001

>  <r_qp_dipole>  (1079) 
6.9880000000000004

>  <r_qp_donorHB>  (1079) 
3

>  <r_qp_glob>  (1079) 
0.77301059999999999

>  <r_qp_mol_MW>  (1079) 
454.57400000000001

>  <r_qp_volume>  (1079) 
1492.9159999999999

>  <r_sd_BIOSOLVEIT.INFINISEE\_FTREES\_SIMILARITY>  (1079) 
0.91300000000000003

>  <r_sd_BIOSOLVEIT.LOGP>  (1079) 
2.915

>  <r_sd_BIOSOLVEIT.MOLECULAR\_WEIGHT>  (1079) 
455.58300000000003

>  <r_sd_BIOSOLVEIT.TPSA>  (1079) 
97.370000000000005

>  <i_epik_Tot_Q>  (1079) 
2

>  <i_epik_Tot_abs_Q>  (1079) 
2

>  <i_f3d_flags>  (1079) 
0

>  <i_i_glide_confnum>  (1079) 
6

>  <i_i_glide_lignum>  (1079) 
265

>  <i_i_glide_posenum>  (1079) 
6

>  <i_i_glide_rotatable_bonds>  (1079) 
10

>  <i_lp_mmshare_version>  (1079) 
65135

>  <i_m_ct_format>  (1079) 
2

>  <i_m_source_file_index>  (1079) 
1114

>  <i_qp_#NandO>  (1079) 
7

>  <i_qp_#acid>  (1079) 
0

>  <i_qp_#amide>  (1079) 
1

>  <i_qp_#amidine>  (1079) 
0

>  <i_qp_#amine>  (1079) 
1

>  <i_qp_#in34>  (1079) 
0

>  <i_qp_#in56>  (1079) 
22

>  <i_qp_#metab>  (1079) 
8

>  <i_qp_#nonHatm>  (1079) 
34

>  <i_qp_#noncon>  (1079) 
0

>  <i_qp_#ringatoms>  (1079) 
22

>  <i_qp_#rotor>  (1079) 
10

>  <i_qp_#rtvFG>  (1079) 
0

>  <i_qp_#stars>  (1079) 
2

>  <i_qp_CNS>  (1079) 
-1

>  <i_qp_HumanOralAbsorption>  (1079) 
3

>  <i_qp_RuleOfFive>  (1079) 
0

>  <i_qp_RuleOfThree>  (1079) 
1

>  <i_sd_BIOSOLVEIT.INFINISEE\_REAGENT1\_NAME>  (1079) 
21927700

>  <i_sd_BIOSOLVEIT.INFINISEE\_REAGENT2\_NAME>  (1079) 
22360182

>  <i_sd_BIOSOLVEIT.INFINISEE\_REAGENT3\_NAME>  (1079) 
21950834

>  <i_sd_BIOSOLVEIT.INFINISEE\_RESULT\_RANK>  (1079) 
34338

>  <i_sd_version>  (1079) 
0

>  <b_lp_Chiralities_Consistent>  (1079) 
1

>  <b_sd_chiral_flag>  (1079) 
0

>  <canonical_id>  (1079) 
ATP-HTVS-AD26772F5837

>  <compound_code>  (1079) 
35617

>  <title>  (1079) 
m_282030aaa____21927700____22360182____21950834

>  <variant>  (1079) 
35617-2

>  <source_file>  (1079) 
运行/运行/ATP-VSW/ATP-VSW-DOCK_HTVS_1-001_lib/ATP-VSW-DOCK_HTVS_1-001_lib

>  <canonical_smiles>  (1079) 
C[NH+](C)Cc1ccccc1CNc1nc(N[C@@H](CC(N)=O)c2ccccc2)c2ccccc2[nH+]1

>  <scaffold>  (1079) 
c1ccc(CNc2nc(NCc3ccccc3)c3ccccc3[nH+]2)cc1

>  <molecular_formula>  (1079) 
C27H32N6O+2

$$$$
ATP-HTVS-AD556EC8B5E3
     RDKit          3D

 60 63  0  0  0  0  0  0  0  0999 V2000
  199.2024  183.0778  158.1156 O   0  0  0  0  0  0  0  0  0  0  0  0
  198.1707  182.6517  157.5838 C   0  0  0  0  0  0  0  0  0  0  0  0
  196.8582  183.0027  158.1234 C   0  0  0  0  0  0  0  0  0  0  0  0
  196.5000  184.1567  158.9248 C   0  0  0  0  0  0  0  0  0  0  0  0
  195.1103  184.0657  159.2233 C   0  0  0  0  0  0  0  0  0  0  0  0
  194.6579  182.9218  158.6112 N   0  0  0  0  0  0  0  0  0  0  0  0
  195.6939  182.2743  157.9792 C   0  0  0  0  0  0  0  0  0  0  0  0
  194.4373  185.0263  159.9977 C   0  0  0  0  0  0  0  0  0  0  0  0
  195.1521  186.1174  160.5038 C   0  0  0  0  0  0  0  0  0  0  0  0
  196.5287  186.2494  160.2170 C   0  0  0  0  0  0  0  0  0  0  0  0
  197.1992  185.2789  159.4350 C   0  0  0  0  0  0  0  0  0  0  0  0
  198.2425  181.8326  156.2529 C   0  0  2  0  0  0  0  0  0  0  0  0
  197.0651  180.9850  155.9916 N   0  0  0  0  0  0  0  0  0  0  0  0
  197.0928  180.2148  154.7700 C   0  0  1  0  0  0  0  0  0  0  0  0
  197.2360  181.1422  153.5434 C   0  0  1  0  0  0  0  0  0  0  0  0
  197.3422  180.3307  152.2881 C   0  0  0  0  0  0  0  0  0  0  0  0
  198.5652  179.7141  151.9800 C   0  0  0  0  0  0  0  0  0  0  0  0
  198.6772  178.9290  150.8191 C   0  0  0  0  0  0  0  0  0  0  0  0
  197.5575  178.7833  149.9682 C   0  0  0  0  0  0  0  0  0  0  0  0
  196.3484  179.4359  150.2712 C   0  0  0  0  0  0  0  0  0  0  0  0
  196.2322  180.1997  151.4533 C   0  0  0  0  0  0  0  0  0  0  0  0
  197.6812  177.9401  148.7070 C   0  0  1  0  0  0  0  0  0  0  0  0
  197.9225  178.7379  147.5105 N   0  0  0  0  0  0  0  0  0  0  0  0
  199.2433  179.3544  147.5737 C   0  0  2  0  0  0  0  0  0  0  0  0
  197.8748  177.8732  146.3386 C   0  0  2  0  0  0  0  0  0  0  0  0
  199.5475  181.0795  156.2474 C   0  0  0  0  0  0  0  0  0  0  0  0
  200.7499  181.6712  155.7784 C   0  0  0  0  0  0  0  0  0  0  0  0
  201.9558  180.9478  155.7351 C   0  0  0  0  0  0  0  0  0  0  0  0
  201.9856  179.5963  156.1436 C   0  0  0  0  0  0  0  0  0  0  0  0
  200.8014  178.9845  156.6021 C   0  0  0  0  0  0  0  0  0  0  0  0
  199.6195  179.7246  156.6528 C   0  0  0  0  0  0  0  0  0  0  0  0
  196.8696  180.3350  156.7872 H   0  0  0  0  0  0  0  0  0  0  0  0
  193.7037  182.5848  158.5853 H   0  0  0  0  0  0  0  0  0  0  0  0
  195.4949  181.3486  157.4512 H   0  0  0  0  0  0  0  0  0  0  0  0
  193.3852  184.8967  160.1654 H   0  0  0  0  0  0  0  0  0  0  0  0
  194.6331  186.8565  161.1002 H   0  0  0  0  0  0  0  0  0  0  0  0
  197.0771  187.0966  160.6108 H   0  0  0  0  0  0  0  0  0  0  0  0
  198.2562  185.3874  159.2356 H   0  0  0  0  0  0  0  0  0  0  0  0
  198.3036  182.5912  155.4578 H   0  0  0  0  0  0  0  0  0  0  0  0
  197.8484  179.4002  154.7204 H   0  0  0  0  0  0  0  0  0  0  0  0
  196.1381  179.6820  154.7157 H   0  0  0  0  0  0  0  0  0  0  0  0
  196.3948  181.8302  153.5051 H   0  0  0  0  0  0  0  0  0  0  0  0
  198.1454  181.7329  153.5870 H   0  0  0  0  0  0  0  0  0  0  0  0
  199.4197  179.8317  152.6333 H   0  0  0  0  0  0  0  0  0  0  0  0
  199.6219  178.4619  150.5770 H   0  0  0  0  0  0  0  0  0  0  0  0
  195.4800  179.3396  149.6279 H   0  0  0  0  0  0  0  0  0  0  0  0
  195.3008  180.6677  151.7134 H   0  0  0  0  0  0  0  0  0  0  0  0
  198.4679  177.2001  148.8449 H   0  0  0  0  0  0  0  0  0  0  0  0
  196.7503  177.3858  148.5960 H   0  0  0  0  0  0  0  0  0  0  0  0
  199.4475  179.9333  146.6721 H   0  0  0  0  0  0  0  0  0  0  0  0
  200.0196  178.5963  147.6824 H   0  0  0  0  0  0  0  0  0  0  0  0
  199.3181  180.0420  148.4165 H   0  0  0  0  0  0  0  0  0  0  0  0
  198.0980  178.4408  145.4348 H   0  0  0  0  0  0  0  0  0  0  0  0
  196.8839  177.4353  146.2142 H   0  0  0  0  0  0  0  0  0  0  0  0
  198.5996  177.0618  146.4128 H   0  0  0  0  0  0  0  0  0  0  0  0
  200.7435  182.6947  155.4360 H   0  0  0  0  0  0  0  0  0  0  0  0
  202.8688  181.4147  155.3878 H   0  0  0  0  0  0  0  0  0  0  0  0
  202.9045  179.0204  156.1136 H   0  0  0  0  0  0  0  0  0  0  0  0
  200.7916  177.9344  156.8933 H   0  0  0  0  0  0  0  0  0  0  0  0
  198.7347  179.2126  156.9930 H   0  0  0  0  0  0  0  0  0  0  0  0
  1  2  2  0
  2  3  1  0
  2 12  1  0
  3  4  1  0
  3  7  2  0
  4  5  1  0
  4 11  2  0
  5  6  1  0
  5  8  2  0
  6  7  1  0
  6 33  1  0
  7 34  1  0
  8  9  1  0
  8 35  1  0
  9 10  2  0
  9 36  1  0
 10 11  1  0
 10 37  1  0
 11 38  1  0
 12 13  1  0
 12 26  1  0
 12 39  1  6
 13 14  1  0
 13 32  1  0
 14 15  1  0
 14 40  1  1
 14 41  1  0
 15 16  1  0
 15 42  1  6
 15 43  1  0
 16 17  1  0
 16 21  2  0
 17 18  2  0
 17 44  1  0
 18 19  1  0
 18 45  1  0
 19 20  2  0
 19 22  1  0
 20 21  1  0
 20 46  1  0
 21 47  1  0
 22 23  1  0
 22 48  1  1
 22 49  1  0
 23 24  1  0
 23 25  1  0
 24 50  1  6
 24 51  1  0
 24 52  1  0
 25 53  1  6
 25 54  1  0
 25 55  1  0
 26 27  2  0
 26 31  1  0
 27 28  1  0
 27 56  1  0
 28 29  2  0
 28 57  1  0
 29 30  1  0
 29 58  1  0
 30 31  2  0
 30 59  1  0
 31 60  1  0
M  END
>  <s_epik_cmdline>  (1080) 
J2VwaWtfcHl0aG9uJywgJy1waCcsICc3LjAwMDAwMCcsICctcGh0JywgJzIuMDAwMDAwJywgJy1tcycsICcxNicsICctdG4nLCAnOCcsICctbWEnLCAnMjAwJywgJy1pbWFlJywgJzxpbmZpbGUubWFlPicsICctb21hZScsICc8b3V0ZmlsZS5tYWU+Jw==

>  <s_epik_input>  (1080) 
W2NIXTFbY0hdW2NIXVtjSF1jKGMxMilbbkhdW2NIXWMyQyg9TylbQ0BASF0oYzNbY0hdW2NIXVtjSF1bY0hdW2NIXTMpW05IXVtDSDJdW0NIMl1jNFtjSF1bY0hdYyhbY0hdW2NIXTQpW0NIMl1OKFtDSDNdKVtDSDNd

>  <s_i_glide_gridfile>  (1080) 
ATP-Grid

>  <s_lp_Force_Field>  (1080) 
OPLS_2005

>  <s_lp_Variant>  (1080) 
m_44daa____15775616____90990-5

>  <s_lp_label>  (1080) 
1005_sdstereoexpander_1_neutralizer_1_epik_3_stereoizer_1

>  <s_m_source_file>  (1080) 
ATP-VSW-LIGPREP-003-in.maegz

>  <s_sd_BIOSOLVEIT.INFINISEE\_QUERY\_NAME>  (1080) 
Ref-Lig

>  <s_sd_BIOSOLVEIT.INFINISEE\_QUERY\_SMILES>  (1080) 
S(c1nc2c(cc1C[NH2+]Cc3ccc(cc3)C[NH+](C)C)cccc2)Cc4ccccc4

>  <s_sd_BIOSOLVEIT.INFINISEE\_REACTION\_NAME>  (1080) 
m_44daa

>  <s_sd_BIOSOLVEIT.INFINISEE\_REAGENT1\_SMILES>  (1080) 
[R1*]NCCc1ccc(cc1)CN(C)C

>  <s_sd_BIOSOLVEIT.INFINISEE\_REAGENT2\_SMILES>  (1080) 
[R1*]C(c1ccccc1)C(=O)C=2c3c(NC2)cccc3

>  <s_sd_BIOSOLVEIT.INFINISEE\_SPACE>  (1080) 
REALSpace_44bn_2023-08

>  <s_vsw_compound_code>  (1080) 
32131

>  <s_vsw_variant>  (1080) 
32131-5

>  <r_epik_Charging_Adjusted_Penalty>  (1080) 
1.6271071262021899

>  <r_epik_Ionization_Penalty>  (1080) 
1.6501999999999999

>  <r_epik_Ionization_Penalty_Charging>  (1080) 
0

>  <r_epik_Ionization_Penalty_Neutral>  (1080) 
1.6501999999999999

>  <r_epik_State_Penalty>  (1080) 
1.6271

>  <r_i_docking_score>  (1080) 
-2.7251190821622502

>  <r_i_glide_ecoul>  (1080) 
-6.5364475250244096

>  <r_i_glide_eff_state_penalty>  (1080) 
1.6271

>  <r_i_glide_einternal>  (1080) 
7.78757572174072

>  <r_i_glide_emodel>  (1080) 
-51.372272257872702

>  <r_i_glide_energy>  (1080) 
-42.891523361206097

>  <r_i_glide_erotb>  (1080) 
0.93103706486083104

>  <r_i_glide_esite>  (1080) 
-0.058327662455857299

>  <r_i_glide_evdw>  (1080) 
-36.355075836181598

>  <r_i_glide_gscore>  (1080) 
-4.3522190821622502

>  <r_i_glide_hbond>  (1080) 
0

>  <r_i_glide_ligand_efficiency>  (1080) 
-0.087907067166524203

>  <r_i_glide_ligand_efficiency_ln>  (1080) 
-0.61459786789769899

>  <r_i_glide_ligand_efficiency_sa>  (1080) 
-0.276149559689292

>  <r_i_glide_lipo>  (1080) 
-1.8235620640044801

>  <r_i_glide_metal>  (1080) 
-0

>  <r_i_glide_rewards>  (1080) 
-0.603145499999999

>  <r_lp_Energy>  (1080) 
34.037294000000003

>  <r_lp_tautomer_probability>  (1080) 
0.99990000499974996

>  <r_qp_ACxDN^.5/SA>  (1080) 
0.0065687999999999996

>  <r_qp_CIQPlogS>  (1080) 
-4.9500000000000002

>  <r_qp_EA(eV)>  (1080) 
0.109

>  <r_qp_FISA>  (1080) 
38.189

>  <r_qp_FOSA>  (1080) 
206.87

>  <r_qp_IP(eV)>  (1080) 
8.3059999999999992

>  <r_qp_Jm>  (1080) 
0.030642937223110699

>  <r_qp_PISA>  (1080) 
439.99799999999999

>  <r_qp_PSA>  (1080) 
51.515999999999998

>  <r_qp_PercentHumanOralAbsorption>  (1080) 
100

>  <r_qp_QPPCaco>  (1080) 
267.64400000000001

>  <r_qp_QPPMDCK>  (1080) 
145.66900000000001

>  <r_qp_QPlogBB>  (1080) 
0.46600000000000003

>  <r_qp_QPlogHERG>  (1080) 
-7.4969999999999999

>  <r_qp_QPlogKhsa>  (1080) 
0.97299999999999998

>  <r_qp_QPlogKp>  (1080) 
-3.9340000000000002

>  <r_qp_QPlogPC16>  (1080) 
14.068

>  <r_qp_QPlogPo/w>  (1080) 
4.923

>  <r_qp_QPlogPoct>  (1080) 
19.135000000000002

>  <r_qp_QPlogPw>  (1080) 
8.532

>  <r_qp_QPlogS>  (1080) 
-3.194

>  <r_qp_QPpolrz>  (1080) 
45.216999999999999

>  <r_qp_SASA>  (1080) 
685.05700000000002

>  <r_qp_SAamideO>  (1080) 
0

>  <r_qp_SAfluorine>  (1080) 
0

>  <r_qp_WPSA>  (1080) 
0

>  <r_qp_accptHB>  (1080) 
4.5

>  <r_qp_dip^2/V>  (1080) 
0.027494399999999999

>  <r_qp_dipole>  (1080) 
6.0309999999999997

>  <r_qp_donorHB>  (1080) 
1

>  <r_qp_glob>  (1080) 
0.85078109999999996

>  <r_qp_mol_MW>  (1080) 
411.54599999999999

>  <r_qp_volume>  (1080) 
1323.028

>  <r_sd_BIOSOLVEIT.INFINISEE\_FTREES\_SIMILARITY>  (1080) 
0.91600000000000004

>  <r_sd_BIOSOLVEIT.LOGP>  (1080) 
2.5425

>  <r_sd_BIOSOLVEIT.MOLECULAR\_WEIGHT>  (1080) 
413.56200000000001

>  <r_sd_BIOSOLVEIT.TPSA>  (1080) 
53.909999999999997

>  <i_epik_Tot_Q>  (1080) 
0

>  <i_epik_Tot_abs_Q>  (1080) 
0

>  <i_f3d_flags>  (1080) 
0

>  <i_i_glide_confnum>  (1080) 
9

>  <i_i_glide_lignum>  (1080) 
377

>  <i_i_glide_posenum>  (1080) 
5

>  <i_i_glide_rotatable_bonds>  (1080) 
9

>  <i_lp_mmshare_version>  (1080) 
65135

>  <i_m_ct_format>  (1080) 
2

>  <i_m_source_file_index>  (1080) 
1005

>  <i_qp_#NandO>  (1080) 
4

>  <i_qp_#acid>  (1080) 
0

>  <i_qp_#amide>  (1080) 
0

>  <i_qp_#amidine>  (1080) 
0

>  <i_qp_#amine>  (1080) 
2

>  <i_qp_#in34>  (1080) 
0

>  <i_qp_#in56>  (1080) 
21

>  <i_qp_#metab>  (1080) 
6

>  <i_qp_#nonHatm>  (1080) 
31

>  <i_qp_#noncon>  (1080) 
0

>  <i_qp_#ringatoms>  (1080) 
21

>  <i_qp_#rotor>  (1080) 
9

>  <i_qp_#rtvFG>  (1080) 
0

>  <i_qp_#stars>  (1080) 
0

>  <i_qp_CNS>  (1080) 
2

>  <i_qp_HumanOralAbsorption>  (1080) 
3

>  <i_qp_RuleOfFive>  (1080) 
0

>  <i_qp_RuleOfThree>  (1080) 
0

>  <i_sd_BIOSOLVEIT.INFINISEE\_REAGENT1\_NAME>  (1080) 
15775616

>  <i_sd_BIOSOLVEIT.INFINISEE\_REAGENT2\_NAME>  (1080) 
90990

>  <i_sd_BIOSOLVEIT.INFINISEE\_RESULT\_RANK>  (1080) 
26319

>  <i_sd_version>  (1080) 
0

>  <b_lp_Chiralities_Consistent>  (1080) 
1

>  <b_sd_chiral_flag>  (1080) 
0

>  <canonical_id>  (1080) 
ATP-HTVS-AD556EC8B5E3

>  <compound_code>  (1080) 
32131

>  <title>  (1080) 
m_44daa____15775616____90990

>  <variant>  (1080) 
32131-5

>  <source_file>  (1080) 
运行/运行/ATP-VSW/ATP-VSW-DOCK_HTVS_1-003_lib/ATP-VSW-DOCK_HTVS_1-003_lib.mae

>  <canonical_smiles>  (1080) 
CN(C)Cc1ccc(CCN[C@@H](C(=O)c2c[nH]c3ccccc23)c2ccccc2)cc1

>  <scaffold>  (1080) 
O=C(c1c[nH]c2ccccc12)C(NCCc1ccccc1)c1ccccc1

>  <molecular_formula>  (1080) 
C27H29N3O

$$$$
ATP-HTVS-AD7BC7F537E7
     RDKit          3D

 53 56  0  0  0  0  0  0  0  0999 V2000
  197.4204  179.3353  150.2457 F   0  0  0  0  0  0  0  0  0  0  0  0
  198.0694  178.1591  150.0617 C   0  0  0  0  0  0  0  0  0  0  0  0
  198.9214  177.6099  151.0606 C   0  0  0  0  0  0  0  0  0  0  0  0
  199.1786  178.2543  152.2983 C   0  0  0  0  0  0  0  0  0  0  0  0
  199.9732  177.7097  153.2448 N   0  0  0  0  0  0  0  0  0  0  0  0
  200.5509  176.5207  153.0207 C   0  0  0  0  0  0  0  0  0  0  0  0
  201.3556  176.0544  154.0563 N   0  0  0  0  0  0  0  0  0  0  0  0
  200.3865  175.7861  151.8266 C   0  0  0  0  0  0  0  0  0  0  0  0
  199.5465  176.3521  150.8289 C   0  0  0  0  0  0  0  0  0  0  0  0
  199.3169  175.6859  149.6059 C   0  0  0  0  0  0  0  0  0  0  0  0
  198.4899  176.2427  148.6178 C   0  0  0  0  0  0  0  0  0  0  0  0
  197.8660  177.4771  148.8502 C   0  0  0  0  0  0  0  0  0  0  0  0
  201.0809  174.4953  151.6332 C   0  0  0  0  0  0  0  0  0  0  0  0
  200.7919  173.3877  152.4608 C   0  0  0  0  0  0  0  0  0  0  0  0
  201.4593  172.1625  152.2800 C   0  0  0  0  0  0  0  0  0  0  0  0
  202.4191  172.0255  151.2614 C   0  0  0  0  0  0  0  0  0  0  0  0
  202.7154  173.1202  150.4280 C   0  0  0  0  0  0  0  0  0  0  0  0
  202.0552  174.3487  150.6203 C   0  0  0  0  0  0  0  0  0  0  0  0
  198.5918  179.4957  152.6036 N   0  0  0  0  0  0  0  0  0  0  0  0
  198.7224  180.2668  153.7716 C   0  0  0  0  0  0  0  0  0  0  0  0
  197.5655  180.8289  154.3560 C   0  0  0  0  0  0  0  0  0  0  0  0
  197.6694  181.6765  155.4842 C   0  0  0  0  0  0  0  0  0  0  0  0
  198.9527  181.9813  155.9976 C   0  0  0  0  0  0  0  0  0  0  0  0
  200.1018  181.3752  155.4459 C   0  0  0  0  0  0  0  0  0  0  0  0
  199.9897  180.5240  154.3354 C   0  0  0  0  0  0  0  0  0  0  0  0
  196.4190  182.2636  156.1323 C   0  0  1  0  0  0  0  0  0  0  0  0
  196.2109  181.8576  157.5497 N   0  0  2  0  0  0  0  0  0  0  0  0
  194.8016  181.9964  157.9778 C   0  0  2  0  0  0  0  0  0  0  0  0
  197.1275  182.5045  158.5254 C   0  0  2  0  0  0  0  0  0  0  0  0
  201.8430  175.1738  153.9751 H   0  0  0  0  0  0  0  0  0  0  0  0
  201.4628  176.5745  154.9142 H   0  0  0  0  0  0  0  0  0  0  0  0
  199.7714  174.7300  149.3988 H   0  0  0  0  0  0  0  0  0  0  0  0
  198.3347  175.7205  147.6843 H   0  0  0  0  0  0  0  0  0  0  0  0
  197.2227  177.8978  148.0916 H   0  0  0  0  0  0  0  0  0  0  0  0
  200.0593  173.4770  153.2493 H   0  0  0  0  0  0  0  0  0  0  0  0
  201.2455  171.3293  152.9334 H   0  0  0  0  0  0  0  0  0  0  0  0
  202.9331  171.0847  151.1321 H   0  0  0  0  0  0  0  0  0  0  0  0
  203.4502  173.0207  149.6420 H   0  0  0  0  0  0  0  0  0  0  0  0
  202.2927  175.1824  149.9745 H   0  0  0  0  0  0  0  0  0  0  0  0
  197.9504  179.8402  151.8966 H   0  0  0  0  0  0  0  0  0  0  0  0
  196.5961  180.6310  153.9229 H   0  0  0  0  0  0  0  0  0  0  0  0
  199.0712  182.6619  156.8303 H   0  0  0  0  0  0  0  0  0  0  0  0
  201.0712  181.5722  155.8730 H   0  0  0  0  0  0  0  0  0  0  0  0
  200.8781  180.1033  153.8918 H   0  0  0  0  0  0  0  0  0  0  0  0
  196.4219  183.3497  156.0355 H   0  0  0  0  0  0  0  0  0  0  0  0
  195.5731  181.9026  155.5537 H   0  0  0  0  0  0  0  0  0  0  0  0
  194.4915  183.0431  157.9650 H   0  0  0  0  0  0  0  0  0  0  0  0
  194.6728  181.6083  158.9915 H   0  0  0  0  0  0  0  0  0  0  0  0
  194.1268  181.4351  157.3357 H   0  0  0  0  0  0  0  0  0  0  0  0
  197.0264  183.5881  158.4844 H   0  0  0  0  0  0  0  0  0  0  0  0
  198.1767  182.2698  158.3520 H   0  0  0  0  0  0  0  0  0  0  0  0
  196.8590  182.2068  159.5428 H   0  0  0  0  0  0  0  0  0  0  0  0
  196.3600  180.8523  157.5844 H   0  0  0  0  0  0  0  0  0  0  0  0
  1  2  1  0
  2  3  1  0
  2 12  2  0
  3  4  2  0
  3  9  1  0
  4  5  1  0
  4 19  1  0
  5  6  2  0
  6  7  1  0
  6  8  1  0
  7 30  1  0
  7 31  1  0
  8  9  2  0
  8 13  1  0
  9 10  1  0
 10 11  2  0
 10 32  1  0
 11 12  1  0
 11 33  1  0
 12 34  1  0
 13 14  2  0
 13 18  1  0
 14 15  1  0
 14 35  1  0
 15 16  2  0
 15 36  1  0
 16 17  1  0
 16 37  1  0
 17 18  2  0
 17 38  1  0
 18 39  1  0
 19 20  1  0
 19 40  1  0
 20 21  2  0
 20 25  1  0
 21 22  1  0
 21 41  1  0
 22 23  2  0
 22 26  1  0
 23 24  1  0
 23 42  1  0
 24 25  2  0
 24 43  1  0
 25 44  1  0
 26 27  1  0
 26 45  1  1
 26 46  1  0
 27 28  1  0
 27 29  1  0
 27 53  1  6
 28 47  1  1
 28 48  1  0
 28 49  1  0
 29 50  1  1
 29 51  1  0
 29 52  1  0
M  CHG  1  27   1
M  END
>  <s_epik_cmdline>  (1081) 
J2VwaWtfcHl0aG9uJywgJy1waCcsICc3LjAwMDAwMCcsICctcGh0JywgJzIuMDAwMDAwJywgJy1tcycsICcxNicsICctdG4nLCAnOCcsICctbWEnLCAnMjAwJywgJy1pbWFlJywgJzxpbmZpbGUubWFlPicsICctb21hZScsICc8b3V0ZmlsZS5tYWU+Jw==

>  <s_epik_input>  (1081) 
RmMxW2NIXVtjSF1bY0hdYyhjMTIpYygtYzNbY0hdW2NIXVtjSF1bY0hdW2NIXTMpYyhbTkgyXSluYzJbTkhdYzRbY0hdYyhbY0hdW2NIXVtjSF00KVtDSDJdTihbQ0gzXSlbQ0gzXQ==

>  <s_i_glide_gridfile>  (1081) 
ATP-Grid

>  <s_lp_Force_Field>  (1081) 
OPLS_2005

>  <s_lp_Variant>  (1081) 
rxn102b____EMOL4895078____EMOL3728368-1

>  <s_lp_label>  (1081) 
3016_sdstereoexpander_1_neutralizer_1_epik_1_stereoizer_1

>  <s_m_source_file>  (1081) 
ATP-VSW-LIGPREP-002-in.maegz

>  <s_sd_BIOSOLVEIT.INFINISEE\_QUERY\_NAME>  (1081) 
Ref-Lig

>  <s_sd_BIOSOLVEIT.INFINISEE\_QUERY\_SMILES>  (1081) 
S(c1nc2c(cc1C[NH2+]Cc3ccc(cc3)C[NH+](C)C)cccc2)Cc4ccccc4

>  <s_sd_BIOSOLVEIT.INFINISEE\_REACTION\_NAME>  (1081) 
rxn102b

>  <s_sd_BIOSOLVEIT.INFINISEE\_REAGENT1\_NAME>  (1081) 
EMOL4895078

>  <s_sd_BIOSOLVEIT.INFINISEE\_REAGENT1\_SMILES>  (1081) 
Brc1nc(N)c(c2c1c(F)ccc2)c3ccccc3

>  <s_sd_BIOSOLVEIT.INFINISEE\_REAGENT2\_NAME>  (1081) 
EMOL3728368

>  <s_sd_BIOSOLVEIT.INFINISEE\_REAGENT2\_SMILES>  (1081) 
N(Cc1cc(N)ccc1)(C)C

>  <s_sd_BIOSOLVEIT.INFINISEE\_SPACE>  (1081) 
eXplore_7tr_2022-12

>  <s_vsw_compound_code>  (1081) 
96482

>  <s_vsw_variant>  (1081) 
96482-1

>  <r_epik_Charging_Adjusted_Penalty>  (1081) 
0.0905741757774641

>  <r_epik_Ionization_Penalty>  (1081) 
0.045999999999999999

>  <r_epik_Ionization_Penalty_Charging>  (1081) 
0.0453

>  <r_epik_Ionization_Penalty_Neutral>  (1081) 
0.00069999999999999999

>  <r_epik_State_Penalty>  (1081) 
0.0453

>  <r_i_docking_score>  (1081) 
-4.5718727892928603

>  <r_i_glide_ecoul>  (1081) 
-8.5218830108642596

>  <r_i_glide_eff_state_penalty>  (1081) 
0.0453

>  <r_i_glide_einternal>  (1081) 
5.5845985412597701

>  <r_i_glide_emodel>  (1081) 
-49.162993384928299

>  <r_i_glide_energy>  (1081) 
-36.016538619995103

>  <r_i_glide_erotb>  (1081) 
0.51884178336439601

>  <r_i_glide_esite>  (1081) 
-0.10000000000000001

>  <r_i_glide_evdw>  (1081) 
-27.494655609130898

>  <r_i_glide_gscore>  (1081) 
-4.6171727892928596

>  <r_i_glide_hbond>  (1081) 
-0.197949521237475

>  <r_i_glide_ligand_efficiency>  (1081) 
-0.15765078583768499

>  <r_i_glide_ligand_efficiency_ln>  (1081) 
-1.0468429360570799

>  <r_i_glide_ligand_efficiency_sa>  (1081) 
-0.484353161368062

>  <r_i_glide_lipo>  (1081) 
-1.06509723797239

>  <r_i_glide_metal>  (1081) 
-0

>  <r_i_glide_rewards>  (1081) 
-1.1199525813612199

>  <r_lp_Energy>  (1081) 
32.218915000000003

>  <r_qp_ACxDN^.5/SA>  (1081) 
0.0097003999999999996

>  <r_qp_CIQPlogS>  (1081) 
-5.5170000000000003

>  <r_qp_EA(eV)>  (1081) 
0.81000000000000005

>  <r_qp_FISA>  (1081) 
58.633000000000003

>  <r_qp_FOSA>  (1081) 
180.369

>  <r_qp_IP(eV)>  (1081) 
7.6959999999999997

>  <r_qp_Jm>  (1081) 
0.0050779283482964904

>  <r_qp_PISA>  (1081) 
444.37599999999998

>  <r_qp_PSA>  (1081) 
46.627000000000002

>  <r_qp_PercentHumanOralAbsorption>  (1081) 
100

>  <r_qp_QPPCaco>  (1081) 
686.72900000000004

>  <r_qp_QPPMDCK>  (1081) 
537.96199999999999

>  <r_qp_QPlogBB>  (1081) 
0.050999999999999997

>  <r_qp_QPlogHERG>  (1081) 
-7.7610000000000001

>  <r_qp_QPlogKhsa>  (1081) 
0.82399999999999995

>  <r_qp_QPlogKp>  (1081) 
-2.5209999999999999

>  <r_qp_QPlogPC16>  (1081) 
14.036

>  <r_qp_QPlogPo/w>  (1081) 
4.819

>  <r_qp_QPlogPoct>  (1081) 
21.350000000000001

>  <r_qp_QPlogPw>  (1081) 
11.881

>  <r_qp_QPlogS>  (1081) 
-5.3600000000000003

>  <r_qp_QPpolrz>  (1081) 
44.756999999999998

>  <r_qp_SASA>  (1081) 
714.21699999999998

>  <r_qp_SAamideO>  (1081) 
0

>  <r_qp_SAfluorine>  (1081) 
30.838999999999999

>  <r_qp_WPSA>  (1081) 
30.838999999999999

>  <r_qp_accptHB>  (1081) 
4

>  <r_qp_dip^2/V>  (1081) 
0.002062

>  <r_qp_dipole>  (1081) 
1.613

>  <r_qp_donorHB>  (1081) 
3

>  <r_qp_glob>  (1081) 
0.7909098

>  <r_qp_mol_MW>  (1081) 
386.471

>  <r_qp_volume>  (1081) 
1262.374

>  <r_sd_BIOSOLVEIT.INFINISEE\_FTREES\_SIMILARITY>  (1081) 
0.90200000000000002

>  <r_sd_BIOSOLVEIT.LOGP>  (1081) 
4.0111999999999997

>  <r_sd_BIOSOLVEIT.MOLECULAR\_WEIGHT>  (1081) 
387.48000000000002

>  <r_sd_BIOSOLVEIT.TPSA>  (1081) 
55.380000000000003

>  <i_epik_Tot_Q>  (1081) 
1

>  <i_epik_Tot_abs_Q>  (1081) 
1

>  <i_f3d_flags>  (1081) 
0

>  <i_i_glide_confnum>  (1081) 
6

>  <i_i_glide_lignum>  (1081) 
81

>  <i_i_glide_posenum>  (1081) 
6

>  <i_i_glide_rotatable_bonds>  (1081) 
5

>  <i_lp_mmshare_version>  (1081) 
65135

>  <i_m_ct_format>  (1081) 
2

>  <i_m_source_file_index>  (1081) 
3016

>  <i_qp_#NandO>  (1081) 
4

>  <i_qp_#acid>  (1081) 
0

>  <i_qp_#amide>  (1081) 
0

>  <i_qp_#amidine>  (1081) 
0

>  <i_qp_#amine>  (1081) 
1

>  <i_qp_#in34>  (1081) 
0

>  <i_qp_#in56>  (1081) 
22

>  <i_qp_#metab>  (1081) 
4

>  <i_qp_#nonHatm>  (1081) 
29

>  <i_qp_#noncon>  (1081) 
0

>  <i_qp_#ringatoms>  (1081) 
22

>  <i_qp_#rotor>  (1081) 
6

>  <i_qp_#rtvFG>  (1081) 
0

>  <i_qp_#stars>  (1081) 
1

>  <i_qp_CNS>  (1081) 
1

>  <i_qp_HumanOralAbsorption>  (1081) 
3

>  <i_qp_RuleOfFive>  (1081) 
0

>  <i_qp_RuleOfThree>  (1081) 
0

>  <i_sd_BIOSOLVEIT.INFINISEE\_RESULT\_RANK>  (1081) 
87618

>  <i_sd_version>  (1081) 
0

>  <b_lp_Chiralities_Consistent>  (1081) 
1

>  <b_sd_chiral_flag>  (1081) 
0

>  <canonical_id>  (1081) 
ATP-HTVS-AD7BC7F537E7

>  <compound_code>  (1081) 
96482

>  <title>  (1081) 
rxn102b____EMOL4895078____EMOL3728368

>  <variant>  (1081) 
96482-1

>  <source_file>  (1081) 
运行/运行/ATP-VSW/ATP-VSW-DOCK_HTVS_1-003_lib/ATP-VSW-DOCK_HTVS_1-003_lib.mae

>  <canonical_smiles>  (1081) 
C[NH+](C)Cc1cccc(Nc2nc(N)c(-c3ccccc3)c3cccc(F)c23)c1

>  <scaffold>  (1081) 
c1ccc(Nc2ncc(-c3ccccc3)c3ccccc23)cc1

>  <molecular_formula>  (1081) 
C24H24FN4+

$$$$
ATP-HTVS-AD7D334F30DB
     RDKit          3D

 52 55  0  0  0  0  0  0  0  0999 V2000
  200.1017  187.5419  153.3974 F   0  0  0  0  0  0  0  0  0  0  0  0
  199.2579  187.4605  154.4570 C   0  0  0  0  0  0  0  0  0  0  0  0
  198.3693  186.3629  154.6184 C   0  0  0  0  0  0  0  0  0  0  0  0
  197.5015  186.3582  155.7403 C   0  0  0  0  0  0  0  0  0  0  0  0
  197.5117  187.4168  156.6646 C   0  0  0  0  0  0  0  0  0  0  0  0
  196.6052  187.4410  157.6642 F   0  0  0  0  0  0  0  0  0  0  0  0
  198.4275  188.4696  156.5251 C   0  0  0  0  0  0  0  0  0  0  0  0
  199.2916  188.4960  155.4164 C   0  0  0  0  0  0  0  0  0  0  0  0
  198.3073  185.2608  153.5838 C   0  0  0  0  0  0  0  0  0  0  0  0
  198.7233  185.4405  152.4345 O   0  0  0  0  0  0  0  0  0  0  0  0
  197.7660  184.1123  154.0308 N   0  0  0  0  0  0  0  0  0  0  0  0
  197.6576  182.8470  153.3904 C   0  0  0  0  0  0  0  0  0  0  0  0
  198.1766  182.6158  152.1647 N   0  0  0  0  0  0  0  0  0  0  0  0
  198.0860  181.3977  151.5957 C   0  0  0  0  0  0  0  0  0  0  0  0
  197.4343  180.3213  152.2500 C   0  0  0  0  0  0  0  0  0  0  0  0
  196.8819  180.5394  153.5237 C   0  0  0  0  0  0  0  0  0  0  0  0
  197.0027  181.8104  154.1154 C   0  0  0  0  0  0  0  0  0  0  0  0
  196.4578  182.0001  155.4578 C   0  0  0  0  0  0  0  0  0  0  0  0
  195.9934  182.1779  156.5745 C   0  0  0  0  0  0  0  0  0  0  0  0
  195.4175  182.4432  157.9090 C   0  0  1  0  0  0  0  0  0  0  0  0
  194.3553  181.4339  158.0880 N   0  0  2  0  0  0  0  0  0  0  0  0
  196.4644  182.3643  159.0341 C   0  0  1  0  0  0  0  0  0  0  0  0
  197.4287  183.5405  159.0529 C   0  0  0  0  0  0  0  0  0  0  0  0
  198.7343  183.4097  158.5327 C   0  0  0  0  0  0  0  0  0  0  0  0
  199.6282  184.4949  158.5818 C   0  0  0  0  0  0  0  0  0  0  0  0
  200.8784  184.3653  158.0812 F   0  0  0  0  0  0  0  0  0  0  0  0
  199.2172  185.7177  159.1383 C   0  0  0  0  0  0  0  0  0  0  0  0
  197.9135  185.8510  159.6554 C   0  0  0  0  0  0  0  0  0  0  0  0
  197.0163  184.7676  159.6063 C   0  0  0  0  0  0  0  0  0  0  0  0
  197.3466  179.0570  151.6347 C   0  0  0  0  0  0  0  0  0  0  0  0
  197.9102  178.8543  150.3605 C   0  0  0  0  0  0  0  0  0  0  0  0
  198.5638  179.9143  149.7056 C   0  0  0  0  0  0  0  0  0  0  0  0
  198.6493  181.1750  150.3259 C   0  0  0  0  0  0  0  0  0  0  0  0
  193.7138  181.5648  157.3092 H   0  0  0  0  0  0  0  0  0  0  0  0
  193.8888  181.5684  158.9740 H   0  0  0  0  0  0  0  0  0  0  0  0
  196.7896  185.5690  155.9176 H   0  0  0  0  0  0  0  0  0  0  0  0
  198.4427  189.2720  157.2492 H   0  0  0  0  0  0  0  0  0  0  0  0
  199.9707  189.3287  155.2813 H   0  0  0  0  0  0  0  0  0  0  0  0
  197.4058  184.1307  154.9684 H   0  0  0  0  0  0  0  0  0  0  0  0
  196.3904  179.7351  154.0545 H   0  0  0  0  0  0  0  0  0  0  0  0
  194.9373  183.4250  157.8916 H   0  0  0  0  0  0  0  0  0  0  0  0
  195.9600  182.3352  159.9977 H   0  0  0  0  0  0  0  0  0  0  0  0
  197.0178  181.4296  158.9394 H   0  0  0  0  0  0  0  0  0  0  0  0
  199.0642  182.4745  158.1104 H   0  0  0  0  0  0  0  0  0  0  0  0
  199.8901  186.5632  159.1474 H   0  0  0  0  0  0  0  0  0  0  0  0
  197.5947  186.7955  160.0713 H   0  0  0  0  0  0  0  0  0  0  0  0
  196.0123  184.8917  159.9865 H   0  0  0  0  0  0  0  0  0  0  0  0
  196.8497  178.2372  152.1342 H   0  0  0  0  0  0  0  0  0  0  0  0
  197.8501  177.8849  149.8868 H   0  0  0  0  0  0  0  0  0  0  0  0
  199.0011  179.7611  148.7287 H   0  0  0  0  0  0  0  0  0  0  0  0
  199.1561  181.9886  149.8271 H   0  0  0  0  0  0  0  0  0  0  0  0
  194.7497  180.4879  158.0591 H   0  0  0  0  0  0  0  0  0  0  0  0
  1  2  1  0
  2  3  2  0
  2  8  1  0
  3  4  1  0
  3  9  1  0
  4  5  2  0
  4 36  1  0
  5  6  1  0
  5  7  1  0
  7  8  2  0
  7 37  1  0
  8 38  1  0
  9 10  2  0
  9 11  1  0
 11 12  1  0
 11 39  1  0
 12 13  2  0
 12 17  1  0
 13 14  1  0
 14 15  1  0
 14 33  2  0
 15 16  1  0
 15 30  2  0
 16 17  2  0
 16 40  1  0
 17 18  1  0
 18 19  3  0
 19 20  1  0
 20 21  1  0
 20 22  1  0
 20 41  1  6
 21 34  1  6
 21 35  1  0
 21 52  1  0
 22 23  1  0
 22 42  1  1
 22 43  1  0
 23 24  1  0
 23 29  2  0
 24 25  2  0
 24 44  1  0
 25 26  1  0
 25 27  1  0
 27 28  2  0
 27 45  1  0
 28 29  1  0
 28 46  1  0
 29 47  1  0
 30 31  1  0
 30 48  1  0
 31 32  2  0
 31 49  1  0
 32 33  1  0
 32 50  1  0
 33 51  1  0
M  CHG  1  21   1
M  END
>  <s_epik_cmdline>  (1082) 
J2VwaWtfcHl0aG9uJywgJy1waCcsICc3LjAwMDAwMCcsICctcGh0JywgJzIuMDAwMDAwJywgJy1tcycsICcxNicsICctdG4nLCAnOCcsICctbWEnLCAnMjAwJywgJy1pbWFlJywgJzxpbmZpbGUubWFlPicsICctb21hZScsICc8b3V0ZmlsZS5tYWU+Jw==

>  <s_epik_input>  (1082) 
W2NIXTFbY0hdYyhGKVtjSF1jKGMxRilDKD1PKVtOSF1jKG4yKWMoW2NIXWMoYzIzKVtjSF1bY0hdW2NIXVtjSF0zKUMjQ1tDQEBIXShbTkgyXSlbQ0gyXWM0W2NIXWMoRilbY0hdW2NIXVtjSF00

>  <s_i_glide_gridfile>  (1082) 
ATP-Grid

>  <s_lp_Force_Field>  (1082) 
OPLS_2005

>  <s_lp_Variant>  (1082) 
rxn503b____EMOL491633____EMOL44466703____EMOL313110234-4

>  <s_lp_label>  (1082) 
2772_sdstereoexpander_2_neutralizer_1_epik_2_stereoizer_1

>  <s_m_source_file>  (1082) 
ATP-VSW-LIGPREP-001-in.maegz

>  <s_sd_BIOSOLVEIT.INFINISEE\_QUERY\_NAME>  (1082) 
Ref-Lig

>  <s_sd_BIOSOLVEIT.INFINISEE\_QUERY\_SMILES>  (1082) 
S(c1nc2c(cc1C[NH2+]Cc3ccc(cc3)C[NH+](C)C)cccc2)Cc4ccccc4

>  <s_sd_BIOSOLVEIT.INFINISEE\_REACTION\_NAME>  (1082) 
rxn503b

>  <s_sd_BIOSOLVEIT.INFINISEE\_REAGENT1\_NAME>  (1082) 
EMOL491633

>  <s_sd_BIOSOLVEIT.INFINISEE\_REAGENT1\_SMILES>  (1082) 
Fc1c(cc(F)cc1)C(=O)O

>  <s_sd_BIOSOLVEIT.INFINISEE\_REAGENT2\_NAME>  (1082) 
EMOL44466703

>  <s_sd_BIOSOLVEIT.INFINISEE\_REAGENT2\_SMILES>  (1082) 
Brc1c(nc2c(c1)cccc2)N

>  <s_sd_BIOSOLVEIT.INFINISEE\_REAGENT3\_NAME>  (1082) 
EMOL313110234

>  <s_sd_BIOSOLVEIT.INFINISEE\_REAGENT3\_SMILES>  (1082) 
Fc1cc(ccc1)CC(N)C#C

>  <s_sd_BIOSOLVEIT.INFINISEE\_SPACE>  (1082) 
eXplore_7tr_2022-12

>  <s_vsw_compound_code>  (1082) 
88673

>  <s_vsw_variant>  (1082) 
88673-4

>  <r_epik_Charging_Adjusted_Penalty>  (1082) 
1.22591159016581

>  <r_epik_Ionization_Penalty>  (1082) 
0.61309999999999998

>  <r_epik_Ionization_Penalty_Charging>  (1082) 
0.61299999999999999

>  <r_epik_Ionization_Penalty_Neutral>  (1082) 
0.00020000000000000001

>  <r_epik_State_Penalty>  (1082) 
0.61299999999999999

>  <r_i_docking_score>  (1082) 
-5.0640072206641804

>  <r_i_glide_ecoul>  (1082) 
-11.581933021545399

>  <r_i_glide_eff_state_penalty>  (1082) 
0.61299999999999999

>  <r_i_glide_einternal>  (1082) 
2.85350894927979

>  <r_i_glide_emodel>  (1082) 
-62.904257658117302

>  <r_i_glide_energy>  (1082) 
-41.869652748107903

>  <r_i_glide_erotb>  (1082) 
0.42179665442063402

>  <r_i_glide_esite>  (1082) 
-0.112034949509704

>  <r_i_glide_evdw>  (1082) 
-30.2877197265625

>  <r_i_glide_gscore>  (1082) 
-5.67700722066418

>  <r_i_glide_hbond>  (1082) 
-0.31277344649369199

>  <r_i_glide_ligand_efficiency>  (1082) 
-0.153454764262551

>  <r_i_glide_ligand_efficiency_ln>  (1082) 
-1.1262089858495901

>  <r_i_glide_ligand_efficiency_sa>  (1082) 
-0.49221142389987499

>  <r_i_glide_lipo>  (1082) 
-1.14354886960313

>  <r_i_glide_metal>  (1082) 
-0

>  <r_i_glide_rewards>  (1082) 
-1.2787706699183601

>  <r_lp_Energy>  (1082) 
23.446842

>  <r_qp_ACxDN^.5/SA>  (1082) 
0.0110017

>  <r_qp_CIQPlogS>  (1082) 
-6.5270000000000001

>  <r_qp_EA(eV)>  (1082) 
1.0389999999999999

>  <r_qp_FISA>  (1082) 
112.253

>  <r_qp_FOSA>  (1082) 
51.597999999999999

>  <r_qp_IP(eV)>  (1082) 
8.734

>  <r_qp_Jm>  (1082) 
0.0011087719050808999

>  <r_qp_PISA>  (1082) 
453.06

>  <r_qp_PSA>  (1082) 
70.689999999999998

>  <r_qp_PercentHumanOralAbsorption>  (1082) 
96.613

>  <r_qp_QPPCaco>  (1082) 
212.965

>  <r_qp_QPPMDCK>  (1082) 
326.35500000000002

>  <r_qp_QPlogBB>  (1082) 
-0.36099999999999999

>  <r_qp_QPlogHERG>  (1082) 
-7.4100000000000001

>  <r_qp_QPlogKhsa>  (1082) 
0.82799999999999996

>  <r_qp_QPlogKp>  (1082) 
-3.383

>  <r_qp_QPlogPC16>  (1082) 
14.422000000000001

>  <r_qp_QPlogPo/w>  (1082) 
4.7809999999999997

>  <r_qp_QPlogPoct>  (1082) 
23.469999999999999

>  <r_qp_QPlogPw>  (1082) 
12.584

>  <r_qp_QPlogS>  (1082) 
-5.2210000000000001

>  <r_qp_QPpolrz>  (1082) 
45.902000000000001

>  <r_qp_SASA>  (1082) 
708.45500000000004

>  <r_qp_SAamideO>  (1082) 
0

>  <r_qp_SAfluorine>  (1082) 
91.543999999999997

>  <r_qp_WPSA>  (1082) 
91.543999999999997

>  <r_qp_accptHB>  (1082) 
4.5

>  <r_qp_dip^2/V>  (1082) 
0.059005299999999997

>  <r_qp_dipole>  (1082) 
8.7750000000000004

>  <r_qp_donorHB>  (1082) 
3

>  <r_qp_glob>  (1082) 
0.81516670000000002

>  <r_qp_mol_MW>  (1082) 
445.44299999999998

>  <r_qp_volume>  (1082) 
1304.9400000000001

>  <r_sd_BIOSOLVEIT.INFINISEE\_FTREES\_SIMILARITY>  (1082) 
0.90700000000000003

>  <r_sd_BIOSOLVEIT.LOGP>  (1082) 
4.1090999999999998

>  <r_sd_BIOSOLVEIT.MOLECULAR\_WEIGHT>  (1082) 
446.44999999999999

>  <r_sd_BIOSOLVEIT.TPSA>  (1082) 
69.629999999999995

>  <i_epik_Tot_Q>  (1082) 
1

>  <i_epik_Tot_abs_Q>  (1082) 
1

>  <i_f3d_flags>  (1082) 
0

>  <i_i_glide_confnum>  (1082) 
4

>  <i_i_glide_lignum>  (1082) 
1254

>  <i_i_glide_posenum>  (1082) 
5

>  <i_i_glide_rotatable_bonds>  (1082) 
7

>  <i_lp_mmshare_version>  (1082) 
65135

>  <i_m_ct_format>  (1082) 
2

>  <i_m_source_file_index>  (1082) 
2772

>  <i_qp_#NandO>  (1082) 
4

>  <i_qp_#acid>  (1082) 
0

>  <i_qp_#amide>  (1082) 
0

>  <i_qp_#amidine>  (1082) 
0

>  <i_qp_#amine>  (1082) 
1

>  <i_qp_#in34>  (1082) 
0

>  <i_qp_#in56>  (1082) 
22

>  <i_qp_#metab>  (1082) 
4

>  <i_qp_#nonHatm>  (1082) 
33

>  <i_qp_#noncon>  (1082) 
0

>  <i_qp_#ringatoms>  (1082) 
22

>  <i_qp_#rotor>  (1082) 
7

>  <i_qp_#rtvFG>  (1082) 
0

>  <i_qp_#stars>  (1082) 
1

>  <i_qp_CNS>  (1082) 
0

>  <i_qp_HumanOralAbsorption>  (1082) 
3

>  <i_qp_RuleOfFive>  (1082) 
0

>  <i_qp_RuleOfThree>  (1082) 
0

>  <i_sd_BIOSOLVEIT.INFINISEE\_RESULT\_RANK>  (1082) 
60497

>  <i_sd_version>  (1082) 
0

>  <b_lp_Chiralities_Consistent>  (1082) 
1

>  <b_sd_chiral_flag>  (1082) 
0

>  <canonical_id>  (1082) 
ATP-HTVS-AD7D334F30DB

>  <compound_code>  (1082) 
88673

>  <title>  (1082) 
rxn503b____EMOL491633____EMOL44466703____EMOL313110234

>  <variant>  (1082) 
88673-4

>  <source_file>  (1082) 
运行/运行/ATP-VSW/ATP-VSW-DOCK_HTVS_1-001_lib/ATP-VSW-DOCK_HTVS_1-001_lib

>  <canonical_smiles>  (1082) 
[NH3+][C@H](C#Cc1cc2ccccc2nc1NC(=O)c1cc(F)ccc1F)Cc1cccc(F)c1

>  <scaffold>  (1082) 
O=C(Nc1nc2ccccc2cc1C#CCCc1ccccc1)c1ccccc1

>  <molecular_formula>  (1082) 
C26H19F3N3O+

$$$$
ATP-HTVS-AD7FACE11FDD
     RDKit          3D

 52 54  0  0  0  0  0  0  0  0999 V2000
  193.2561  185.4395  160.5192 F   0  0  0  0  0  0  0  0  0  0  0  0
  194.3875  184.9241  159.9789 C   0  0  0  0  0  0  0  0  0  0  0  0
  194.2992  183.7468  159.3252 N   0  0  0  0  0  0  0  0  0  0  0  0
  195.4244  183.2195  158.8026 C   0  0  0  0  0  0  0  0  0  0  0  0
  196.7076  183.8132  158.9346 C   0  0  0  0  0  0  0  0  0  0  0  0
  197.8525  183.2286  158.3864 N   0  0  0  0  0  0  0  0  0  0  0  0
  199.0868  183.9819  158.1290 C   0  0  1  0  0  0  0  0  0  0  0  0
  200.3116  183.2218  158.5883 C   0  0  0  0  0  0  0  0  0  0  0  0
  200.8507  183.4366  159.8762 C   0  0  0  0  0  0  0  0  0  0  0  0
  202.0035  182.7414  160.2967 C   0  0  0  0  0  0  0  0  0  0  0  0
  202.5183  182.9970  161.5783 N   0  0  0  0  0  0  0  0  0  0  0  0
  203.8757  182.5863  161.9009 C   0  0  2  0  0  0  0  0  0  0  0  0
  202.5977  181.8084  159.4087 C   0  0  0  0  0  0  0  0  0  0  0  0
  202.0430  181.5742  158.1365 C   0  0  0  0  0  0  0  0  0  0  0  0
  200.8995  182.2765  157.7249 C   0  0  0  0  0  0  0  0  0  0  0  0
  196.7849  185.0155  159.6702 C   0  0  0  0  0  0  0  0  0  0  0  0
  195.6000  185.6059  160.1398 C   0  0  0  0  0  0  0  0  0  0  0  0
  195.6439  186.9130  160.8746 C   0  0  0  0  0  0  0  0  0  0  0  0
  195.1332  186.9139  161.9942 O   0  0  0  0  0  0  0  0  0  0  0  0
  196.2457  187.9951  160.3008 N   0  0  0  0  0  0  0  0  0  0  0  0
  196.9607  187.9688  159.0460 C   0  0  0  0  0  0  0  0  0  0  0  0
  198.2958  188.4287  158.9560 C   0  0  0  0  0  0  0  0  0  0  0  0
  198.9975  188.3535  157.7282 C   0  0  0  0  0  0  0  0  0  0  0  0
  198.3704  187.8449  156.5762 C   0  0  0  0  0  0  0  0  0  0  0  0
  197.0385  187.4060  156.6495 C   0  0  0  0  0  0  0  0  0  0  0  0
  196.3295  187.4912  157.8640 C   0  0  0  0  0  0  0  0  0  0  0  0
  196.3020  189.2783  161.0361 C   0  0  1  0  0  0  0  0  0  0  0  0
  195.0741  189.7116  161.7369 C   0  0  0  0  0  0  0  0  0  0  0  0
  194.1163  190.0366  162.3081 N   0  0  0  0  0  0  0  0  0  0  0  0
  195.2325  181.9066  158.0758 C   0  0  2  0  0  0  0  0  0  0  0  0
  197.7458  182.3323  157.9193 H   0  0  0  0  0  0  0  0  0  0  0  0
  199.1599  184.1438  157.0486 H   0  0  0  0  0  0  0  0  0  0  0  0
  199.1714  184.9727  158.5571 H   0  0  0  0  0  0  0  0  0  0  0  0
  200.3859  184.1579  160.5423 H   0  0  0  0  0  0  0  0  0  0  0  0
  201.9608  183.4824  162.2870 H   0  0  0  0  0  0  0  0  0  0  0  0
  204.1391  182.8281  162.9318 H   0  0  0  0  0  0  0  0  0  0  0  0
  204.5877  183.0818  161.2367 H   0  0  0  0  0  0  0  0  0  0  0  0
  203.9972  181.5108  161.7544 H   0  0  0  0  0  0  0  0  0  0  0  0
  203.4669  181.2328  159.6678 H   0  0  0  0  0  0  0  0  0  0  0  0
  202.4987  180.8471  157.4860 H   0  0  0  0  0  0  0  0  0  0  0  0
  200.4758  182.0954  156.7479 H   0  0  0  0  0  0  0  0  0  0  0  0
  197.7194  185.5101  159.8768 H   0  0  0  0  0  0  0  0  0  0  0  0
  198.8204  188.7922  159.8296 H   0  0  0  0  0  0  0  0  0  0  0  0
  200.0321  188.6642  157.6684 H   0  0  0  0  0  0  0  0  0  0  0  0
  198.9060  187.7664  155.6390 H   0  0  0  0  0  0  0  0  0  0  0  0
  196.5515  186.9968  155.7805 H   0  0  0  0  0  0  0  0  0  0  0  0
  195.3094  187.1562  157.8910 H   0  0  0  0  0  0  0  0  0  0  0  0
  197.1163  189.2682  161.7495 H   0  0  0  0  0  0  0  0  0  0  0  0
  196.5030  190.0878  160.3447 H   0  0  0  0  0  0  0  0  0  0  0  0
  195.5747  181.9852  157.0439 H   0  0  0  0  0  0  0  0  0  0  0  0
  194.1849  181.5922  158.0615 H   0  0  0  0  0  0  0  0  0  0  0  0
  195.8147  181.1481  158.5948 H   0  0  0  0  0  0  0  0  0  0  0  0
  1  2  1  0
  2  3  2  0
  2 17  1  0
  3  4  1  0
  4  5  2  0
  4 30  1  0
  5  6  1  0
  5 16  1  0
  6  7  1  0
  6 31  1  0
  7  8  1  0
  7 32  1  6
  7 33  1  0
  8  9  1  0
  8 15  2  0
  9 10  2  0
  9 34  1  0
 10 11  1  0
 10 13  1  0
 11 12  1  0
 11 35  1  0
 12 36  1  1
 12 37  1  0
 12 38  1  0
 13 14  2  0
 13 39  1  0
 14 15  1  0
 14 40  1  0
 15 41  1  0
 16 17  2  0
 16 42  1  0
 17 18  1  0
 18 19  2  0
 18 20  1  0
 20 21  1  0
 20 27  1  0
 21 22  2  0
 21 26  1  0
 22 23  1  0
 22 43  1  0
 23 24  2  0
 23 44  1  0
 24 25  1  0
 24 45  1  0
 25 26  2  0
 25 46  1  0
 26 47  1  0
 27 28  1  0
 27 48  1  1
 27 49  1  0
 28 29  3  0
 30 50  1  6
 30 51  1  0
 30 52  1  0
M  END
>  <s_epik_cmdline>  (1083) 
J2VwaWtfcHl0aG9uJywgJy1waCcsICc3LjAwMDAwMCcsICctcGh0JywgJzIuMDAwMDAwJywgJy1tcycsICcxNicsICctdG4nLCAnOCcsICctbWEnLCAnMjAwJywgJy1pbWFlJywgJzxpbmZpbGUubWFlPicsICctb21hZScsICc8b3V0ZmlsZS5tYWU+Jw==

>  <s_epik_input>  (1083) 
W2NIXTFbY0hdW2NIXWMoW05IXVtDSDNdKVtjSF1jMVtDSDJdW05IXWMoYyhbQ0gzXSluYzJGKVtjSF1jMkMoPU8pTihbQ0gyXUMjTiljM1tjSF1bY0hdW2NIXVtjSF1bY0hdMw==

>  <s_i_glide_gridfile>  (1083) 
ATP-Grid

>  <s_lp_Force_Field>  (1083) 
OPLS_2005

>  <s_lp_Variant>  (1083) 
rxn512b____EMOL45491381____EMOL337714226____EMOL712348-1

>  <s_lp_label>  (1083) 
2870_sdstereoexpander_1_neutralizer_1_epik_1_stereoizer_1

>  <s_m_source_file>  (1083) 
ATP-VSW-LIGPREP-002-in.maegz

>  <s_sd_BIOSOLVEIT.INFINISEE\_QUERY\_NAME>  (1083) 
Ref-Lig

>  <s_sd_BIOSOLVEIT.INFINISEE\_QUERY\_SMILES>  (1083) 
S(c1nc2c(cc1C[NH2+]Cc3ccc(cc3)C[NH+](C)C)cccc2)Cc4ccccc4

>  <s_sd_BIOSOLVEIT.INFINISEE\_REACTION\_NAME>  (1083) 
rxn512b

>  <s_sd_BIOSOLVEIT.INFINISEE\_REAGENT1\_NAME>  (1083) 
EMOL45491381

>  <s_sd_BIOSOLVEIT.INFINISEE\_REAGENT1\_SMILES>  (1083) 
N(c1cc(ccc1)CN)C

>  <s_sd_BIOSOLVEIT.INFINISEE\_REAGENT2\_NAME>  (1083) 
EMOL337714226

>  <s_sd_BIOSOLVEIT.INFINISEE\_REAGENT2\_SMILES>  (1083) 
Brc1c(nc(F)c(c1)C(=O)O)C

>  <s_sd_BIOSOLVEIT.INFINISEE\_REAGENT3\_NAME>  (1083) 
EMOL712348

>  <s_sd_BIOSOLVEIT.INFINISEE\_REAGENT3\_SMILES>  (1083) 
N#CCNc1ccccc1

>  <s_sd_BIOSOLVEIT.INFINISEE\_SPACE>  (1083) 
eXplore_7tr_2022-12

>  <s_vsw_compound_code>  (1083) 
91810

>  <s_vsw_variant>  (1083) 
91810-1

>  <r_epik_Charging_Adjusted_Penalty>  (1083) 
0.0049480399513120001

>  <r_epik_Ionization_Penalty>  (1083) 
0.0048999999999999998

>  <r_epik_Ionization_Penalty_Charging>  (1083) 
0

>  <r_epik_Ionization_Penalty_Neutral>  (1083) 
0.0048999999999999998

>  <r_epik_State_Penalty>  (1083) 
0.0048999999999999998

>  <r_i_docking_score>  (1083) 
-6.1235875253885101

>  <r_i_glide_ecoul>  (1083) 
-7.8165435791015598

>  <r_i_glide_eff_state_penalty>  (1083) 
0.0048999999999999998

>  <r_i_glide_einternal>  (1083) 
7.0929832458496103

>  <r_i_glide_emodel>  (1083) 
-58.733788800101102

>  <r_i_glide_energy>  (1083) 
-44.481285095214801

>  <r_i_glide_erotb>  (1083) 
0.72371442769363703

>  <r_i_glide_esite>  (1083) 
-0.081613883862970305

>  <r_i_glide_evdw>  (1083) 
-36.664741516113303

>  <r_i_glide_gscore>  (1083) 
-6.1284875253885103

>  <r_i_glide_hbond>  (1083) 
-0.41279980364392099

>  <r_i_glide_ligand_efficiency>  (1083) 
-0.20411958417961701

>  <r_i_glide_ligand_efficiency_ln>  (1083) 
-1.39134580759836

>  <r_i_glide_ligand_efficiency_sa>  (1083) 
-0.63424700634562503

>  <r_i_glide_lipo>  (1083) 
-2.07838603649363

>  <r_i_glide_metal>  (1083) 
-0

>  <r_i_glide_rewards>  (1083) 
-1.2736836164107299

>  <r_lp_Energy>  (1083) 
35.187052000000001

>  <r_lp_tautomer_probability>  (1083) 
0.999999999999999

>  <r_qp_ACxDN^.5/SA>  (1083) 
0.0144707

>  <r_qp_CIQPlogS>  (1083) 
-6.4740000000000002

>  <r_qp_EA(eV)>  (1083) 
0.57199999999999995

>  <r_qp_FISA>  (1083) 
138.73500000000001

>  <r_qp_FOSA>  (1083) 
243.465

>  <r_qp_IP(eV)>  (1083) 
8.3699999999999992

>  <r_qp_Jm>  (1083) 
0.00068276497923387095

>  <r_qp_PISA>  (1083) 
328.19

>  <r_qp_PSA>  (1083) 
88.930999999999997

>  <r_qp_PercentHumanOralAbsorption>  (1083) 
96.709000000000003

>  <r_qp_QPPCaco>  (1083) 
478.93900000000002

>  <r_qp_QPPMDCK>  (1083) 
296.81

>  <r_qp_QPlogBB>  (1083) 
-1.3500000000000001

>  <r_qp_QPlogHERG>  (1083) 
-6.516

>  <r_qp_QPlogKhsa>  (1083) 
0.32400000000000001

>  <r_qp_QPlogKp>  (1083) 
-2.1520000000000001

>  <r_qp_QPlogPC16>  (1083) 
14.041

>  <r_qp_QPlogPo/w>  (1083) 
3.722

>  <r_qp_QPlogPoct>  (1083) 
23.719000000000001

>  <r_qp_QPlogPw>  (1083) 
13.218999999999999

>  <r_qp_QPlogS>  (1083) 
-6.6189999999999998

>  <r_qp_QPpolrz>  (1083) 
44.149000000000001

>  <r_qp_SASA>  (1083) 
732.97199999999998

>  <r_qp_SAamideO>  (1083) 
0

>  <r_qp_SAfluorine>  (1083) 
22.582999999999998

>  <r_qp_WPSA>  (1083) 
22.582999999999998

>  <r_qp_accptHB>  (1083) 
7.5

>  <r_qp_dip^2/V>  (1083) 
0.1510677

>  <r_qp_dipole>  (1083) 
14.051

>  <r_qp_donorHB>  (1083) 
2

>  <r_qp_glob>  (1083) 
0.78872549999999997

>  <r_qp_mol_MW>  (1083) 
403.45800000000003

>  <r_qp_volume>  (1083) 
1306.99

>  <r_sd_BIOSOLVEIT.INFINISEE\_FTREES\_SIMILARITY>  (1083) 
0.90500000000000003

>  <r_sd_BIOSOLVEIT.LOGP>  (1083) 
4.3532999999999999

>  <r_sd_BIOSOLVEIT.MOLECULAR\_WEIGHT>  (1083) 
403.459

>  <r_sd_BIOSOLVEIT.TPSA>  (1083) 
81.049999999999997

>  <i_epik_Tot_Q>  (1083) 
0

>  <i_epik_Tot_abs_Q>  (1083) 
0

>  <i_f3d_flags>  (1083) 
0

>  <i_i_glide_confnum>  (1083) 
3

>  <i_i_glide_lignum>  (1083) 
1422

>  <i_i_glide_posenum>  (1083) 
9

>  <i_i_glide_rotatable_bonds>  (1083) 
8

>  <i_lp_mmshare_version>  (1083) 
65135

>  <i_m_ct_format>  (1083) 
2

>  <i_m_source_file_index>  (1083) 
2870

>  <i_qp_#NandO>  (1083) 
6

>  <i_qp_#acid>  (1083) 
0

>  <i_qp_#amide>  (1083) 
0

>  <i_qp_#amidine>  (1083) 
0

>  <i_qp_#amine>  (1083) 
0

>  <i_qp_#in34>  (1083) 
0

>  <i_qp_#in56>  (1083) 
18

>  <i_qp_#metab>  (1083) 
9

>  <i_qp_#nonHatm>  (1083) 
30

>  <i_qp_#noncon>  (1083) 
0

>  <i_qp_#ringatoms>  (1083) 
18

>  <i_qp_#rotor>  (1083) 
8

>  <i_qp_#rtvFG>  (1083) 
0

>  <i_qp_#stars>  (1083) 
3

>  <i_qp_CNS>  (1083) 
-2

>  <i_qp_HumanOralAbsorption>  (1083) 
1

>  <i_qp_RuleOfFive>  (1083) 
0

>  <i_qp_RuleOfThree>  (1083) 
2

>  <i_sd_BIOSOLVEIT.INFINISEE\_RESULT\_RANK>  (1083) 
71279

>  <i_sd_version>  (1083) 
0

>  <b_lp_Chiralities_Consistent>  (1083) 
1

>  <b_sd_chiral_flag>  (1083) 
0

>  <canonical_id>  (1083) 
ATP-HTVS-AD7FACE11FDD

>  <compound_code>  (1083) 
91810

>  <title>  (1083) 
rxn512b____EMOL45491381____EMOL337714226____EMOL712348

>  <variant>  (1083) 
91810-1

>  <source_file>  (1083) 
运行/运行/ATP-VSW/ATP-VSW-DOCK_HTVS_1-002_lib.maegz

>  <canonical_smiles>  (1083) 
CNc1cccc(CNc2cc(C(=O)N(CC#N)c3ccccc3)c(F)nc2C)c1

>  <scaffold>  (1083) 
O=C(Nc1ccccc1)c1cncc(NCc2ccccc2)c1

>  <molecular_formula>  (1083) 
C23H22FN5O

$$$$
ATP-HTVS-AD7FBCC01633
     RDKit          3D

 56 59  0  0  0  0  0  0  0  0999 V2000
  195.5443  184.7616  160.5333 F   0  0  0  0  0  0  0  0  0  0  0  0
  196.6285  184.6543  159.7317 C   0  0  0  0  0  0  0  0  0  0  0  0
  196.7647  183.5284  158.9074 C   0  0  0  0  0  0  0  0  0  0  0  0
  197.8742  183.4025  158.0345 C   0  0  0  0  0  0  0  0  0  0  0  0
  198.8585  184.4111  158.0364 C   0  0  0  0  0  0  0  0  0  0  0  0
  198.7324  185.5277  158.8865 C   0  0  0  0  0  0  0  0  0  0  0  0
  197.6118  185.6556  159.7274 C   0  0  0  0  0  0  0  0  0  0  0  0
  198.0280  182.2030  157.1044 C   0  0  1  0  0  0  0  0  0  0  0  0
  196.8477  182.0278  156.1292 C   0  0  2  0  0  0  0  0  0  0  0  0
  195.6666  181.4370  156.8000 N   0  0  2  0  0  0  0  0  0  0  0  0
  197.1452  181.1465  154.9957 C   0  0  0  0  0  0  0  0  0  0  0  0
  197.3898  180.4610  154.0112 C   0  0  0  0  0  0  0  0  0  0  0  0
  197.7039  179.7280  152.7978 C   0  0  0  0  0  0  0  0  0  0  0  0
  198.7940  178.8223  152.7050 C   0  0  0  0  0  0  0  0  0  0  0  0
  199.0269  178.1307  151.5603 N   0  0  0  0  0  0  0  0  0  0  0  0
  198.2446  178.3040  150.4759 C   0  0  0  0  0  0  0  0  0  0  0  0
  197.1656  179.2239  150.4861 C   0  0  0  0  0  0  0  0  0  0  0  0
  196.8894  179.9306  151.6670 C   0  0  0  0  0  0  0  0  0  0  0  0
  196.3844  179.4333  149.3324 C   0  0  0  0  0  0  0  0  0  0  0  0
  196.6436  178.6927  148.1660 C   0  0  0  0  0  0  0  0  0  0  0  0
  197.6970  177.7600  148.1410 C   0  0  0  0  0  0  0  0  0  0  0  0
  198.4811  177.5659  149.2951 C   0  0  0  0  0  0  0  0  0  0  0  0
  199.5485  178.5461  153.8785 N   0  0  0  0  0  0  0  0  0  0  0  0
  200.7812  178.0417  153.9401 C   0  0  0  0  0  0  0  0  0  0  0  0
  201.5931  178.1767  153.0112 O   0  0  0  0  0  0  0  0  0  0  0  0
  201.1964  177.3753  155.2659 C   0  0  1  0  0  0  0  0  0  0  0  0
  202.0123  176.1139  155.0289 C   0  0  0  0  0  0  0  0  0  0  0  0
  203.3925  176.2013  154.7389 C   0  0  0  0  0  0  0  0  0  0  0  0
  204.1551  175.0335  154.5284 C   0  0  0  0  0  0  0  0  0  0  0  0
  203.5495  173.7623  154.5896 C   0  0  0  0  0  0  0  0  0  0  0  0
  204.2987  172.6346  154.3811 O   0  0  0  0  0  0  0  0  0  0  0  0
  202.1682  173.6706  154.8653 C   0  0  0  0  0  0  0  0  0  0  0  0
  201.4047  174.8362  155.0924 C   0  0  0  0  0  0  0  0  0  0  0  0
  194.9001  181.4396  156.1406 H   0  0  0  0  0  0  0  0  0  0  0  0
  195.3675  182.0321  157.5417 H   0  0  0  0  0  0  0  0  0  0  0  0
  195.9936  182.7843  158.9899 H   0  0  0  0  0  0  0  0  0  0  0  0
  199.7264  184.3355  157.3952 H   0  0  0  0  0  0  0  0  0  0  0  0
  199.4980  186.2869  158.8941 H   0  0  0  0  0  0  0  0  0  0  0  0
  197.5141  186.5055  160.3847 H   0  0  0  0  0  0  0  0  0  0  0  0
  198.9654  182.3040  156.5430 H   0  0  0  0  0  0  0  0  0  0  0  0
  198.1299  181.3025  157.7088 H   0  0  0  0  0  0  0  0  0  0  0  0
  196.5751  182.9942  155.6875 H   0  0  0  0  0  0  0  0  0  0  0  0
  196.0730  180.6346  151.6972 H   0  0  0  0  0  0  0  0  0  0  0  0
  195.5658  180.1391  149.3482 H   0  0  0  0  0  0  0  0  0  0  0  0
  196.0391  178.8282  147.2811 H   0  0  0  0  0  0  0  0  0  0  0  0
  197.8976  177.2089  147.2325 H   0  0  0  0  0  0  0  0  0  0  0  0
  199.2896  176.8521  149.2648 H   0  0  0  0  0  0  0  0  0  0  0  0
  199.0526  178.6427  154.7560 H   0  0  0  0  0  0  0  0  0  0  0  0
  201.7547  178.0800  155.8884 H   0  0  0  0  0  0  0  0  0  0  0  0
  200.3102  177.0991  155.8460 H   0  0  0  0  0  0  0  0  0  0  0  0
  203.8713  177.1678  154.6974 H   0  0  0  0  0  0  0  0  0  0  0  0
  205.2093  175.1090  154.3140 H   0  0  0  0  0  0  0  0  0  0  0  0
  203.8169  171.8037  154.2816 H   0  0  0  0  0  0  0  0  0  0  0  0
  201.7077  172.6976  154.9090 H   0  0  0  0  0  0  0  0  0  0  0  0
  200.3549  174.7435  155.3198 H   0  0  0  0  0  0  0  0  0  0  0  0
  195.8153  180.4780  157.1648 H   0  0  0  0  0  0  0  0  0  0  0  0
  1  2  1  0
  2  3  2  0
  2  7  1  0
  3  4  1  0
  3 36  1  0
  4  5  2  0
  4  8  1  0
  5  6  1  0
  5 37  1  0
  6  7  2  0
  6 38  1  0
  7 39  1  0
  8  9  1  0
  8 40  1  6
  8 41  1  0
  9 10  1  0
  9 11  1  0
  9 42  1  6
 10 34  1  6
 10 35  1  0
 10 56  1  0
 11 12  3  0
 12 13  1  0
 13 14  1  0
 13 18  2  0
 14 15  2  0
 14 23  1  0
 15 16  1  0
 16 17  1  0
 16 22  2  0
 17 18  1  0
 17 19  2  0
 18 43  1  0
 19 20  1  0
 19 44  1  0
 20 21  2  0
 20 45  1  0
 21 22  1  0
 21 46  1  0
 22 47  1  0
 23 24  1  0
 23 48  1  0
 24 25  2  0
 24 26  1  0
 26 27  1  0
 26 49  1  1
 26 50  1  0
 27 28  1  0
 27 33  2  0
 28 29  2  0
 28 51  1  0
 29 30  1  0
 29 52  1  0
 30 31  1  0
 30 32  2  0
 31 53  1  0
 32 33  1  0
 32 54  1  0
 33 55  1  0
M  CHG  1  10   1
M  END
>  <s_epik_cmdline>  (1084) 
J2VwaWtfcHl0aG9uJywgJy1waCcsICc3LjAwMDAwMCcsICctcGh0JywgJzIuMDAwMDAwJywgJy1tcycsICcxNicsICctdG4nLCAnOCcsICctbWEnLCAnMjAwJywgJy1pbWFlJywgJzxpbmZpbGUubWFlPicsICctb21hZScsICc8b3V0ZmlsZS5tYWU+Jw==

>  <s_epik_input>  (1084) 
RmMxW2NIXWMoW2NIXVtjSF1bY0hdMSlbQ0gyXVtDQEhdKFtOSDJdKUMjQ2MoW2NIXWMoYzIzKVtjSF1bY0hdW2NIXVtjSF0zKWMobjIpW05IXUMoPU8pW0NIMl1jNFtjSF1bY0hdYyhbT0hdKVtjSF1bY0hdNA==

>  <s_i_glide_gridfile>  (1084) 
ATP-Grid

>  <s_lp_Force_Field>  (1084) 
OPLS_2005

>  <s_lp_Variant>  (1084) 
rxn503b____EMOL521529____EMOL44466703____EMOL313110234-4

>  <s_lp_label>  (1084) 
2664_sdstereoexpander_2_neutralizer_1_epik_2_stereoizer_1

>  <s_m_source_file>  (1084) 
ATP-VSW-LIGPREP-001-in.maegz

>  <s_sd_BIOSOLVEIT.INFINISEE\_QUERY\_NAME>  (1084) 
Ref-Lig

>  <s_sd_BIOSOLVEIT.INFINISEE\_QUERY\_SMILES>  (1084) 
S(c1nc2c(cc1C[NH2+]Cc3ccc(cc3)C[NH+](C)C)cccc2)Cc4ccccc4

>  <s_sd_BIOSOLVEIT.INFINISEE\_REACTION\_NAME>  (1084) 
rxn503b

>  <s_sd_BIOSOLVEIT.INFINISEE\_REAGENT1\_NAME>  (1084) 
EMOL521529

>  <s_sd_BIOSOLVEIT.INFINISEE\_REAGENT1\_SMILES>  (1084) 
O=C(O)Cc1ccc(O)cc1

>  <s_sd_BIOSOLVEIT.INFINISEE\_REAGENT2\_NAME>  (1084) 
EMOL44466703

>  <s_sd_BIOSOLVEIT.INFINISEE\_REAGENT2\_SMILES>  (1084) 
Brc1c(nc2c(c1)cccc2)N

>  <s_sd_BIOSOLVEIT.INFINISEE\_REAGENT3\_NAME>  (1084) 
EMOL313110234

>  <s_sd_BIOSOLVEIT.INFINISEE\_REAGENT3\_SMILES>  (1084) 
Fc1cc(ccc1)CC(N)C#C

>  <s_sd_BIOSOLVEIT.INFINISEE\_SPACE>  (1084) 
eXplore_7tr_2022-12

>  <s_vsw_compound_code>  (1084) 
85217

>  <s_vsw_variant>  (1084) 
85217-4

>  <r_epik_Charging_Adjusted_Penalty>  (1084) 
1.2271758803980499

>  <r_epik_Ionization_Penalty>  (1084) 
0.61439999999999995

>  <r_epik_Ionization_Penalty_Charging>  (1084) 
0.61299999999999999

>  <r_epik_Ionization_Penalty_Neutral>  (1084) 
0.0014

>  <r_epik_State_Penalty>  (1084) 
0.61419999999999997

>  <r_i_docking_score>  (1084) 
-6.4929946623529302

>  <r_i_glide_ecoul>  (1084) 
-19.282735824585

>  <r_i_glide_eff_state_penalty>  (1084) 
0.61419999999999997

>  <r_i_glide_einternal>  (1084) 
9.4100675582885707

>  <r_i_glide_emodel>  (1084) 
-79.623200691425794

>  <r_i_glide_energy>  (1084) 
-51.664319992065401

>  <r_i_glide_erotb>  (1084) 
0.72034826401853302

>  <r_i_glide_esite>  (1084) 
-0.100451183419526

>  <r_i_glide_evdw>  (1084) 
-32.381584167480497

>  <r_i_glide_gscore>  (1084) 
-7.1071946623529296

>  <r_i_glide_hbond>  (1084) 
-0.48418838982917001

>  <r_i_glide_ligand_efficiency>  (1084) 
-0.19675741401069499

>  <r_i_glide_ligand_efficiency_ln>  (1084) 
-1.44400839398018

>  <r_i_glide_ligand_efficiency_sa>  (1084) 
-0.63110615938494996

>  <r_i_glide_lipo>  (1084) 
-1.9121235292468199

>  <r_i_glide_metal>  (1084) 
-0

>  <r_i_glide_rewards>  (1084) 
-0.81929024181418098

>  <r_lp_Energy>  (1084) 
21.141826999999999

>  <r_lp_tautomer_probability>  (1084) 
0.999999999997365

>  <r_qp_ACxDN^.5/SA>  (1084) 
0.0143331

>  <r_qp_CIQPlogS>  (1084) 
-6.0030000000000001

>  <r_qp_EA(eV)>  (1084) 
0.95599999999999996

>  <r_qp_FISA>  (1084) 
122.953

>  <r_qp_FOSA>  (1084) 
91.137

>  <r_qp_IP(eV)>  (1084) 
8.6509999999999998

>  <r_qp_Jm>  (1084) 
0.0042910865585608403

>  <r_qp_PISA>  (1084) 
472.726

>  <r_qp_PSA>  (1084) 
92.001999999999995

>  <r_qp_PercentHumanOralAbsorption>  (1084) 
93.067999999999998

>  <r_qp_QPPCaco>  (1084) 
168.59200000000001

>  <r_qp_QPPMDCK>  (1084) 
142.292

>  <r_qp_QPlogBB>  (1084) 
-0.69999999999999996

>  <r_qp_QPlogHERG>  (1084) 
-7.4939999999999998

>  <r_qp_QPlogKhsa>  (1084) 
0.70099999999999996

>  <r_qp_QPlogKp>  (1084) 
-3.319

>  <r_qp_QPlogPC16>  (1084) 
15.784000000000001

>  <r_qp_QPlogPo/w>  (1084) 
4.4859999999999998

>  <r_qp_QPlogPoct>  (1084) 
25.675999999999998

>  <r_qp_QPlogPw>  (1084) 
14.593999999999999

>  <r_qp_QPlogS>  (1084) 
-4.6920000000000002

>  <r_qp_QPpolrz>  (1084) 
47.552999999999997

>  <r_qp_SASA>  (1084) 
732.572

>  <r_qp_SAamideO>  (1084) 
0

>  <r_qp_SAfluorine>  (1084) 
45.756

>  <r_qp_WPSA>  (1084) 
45.756

>  <r_qp_accptHB>  (1084) 
5.25

>  <r_qp_dip^2/V>  (1084) 
0.0553851

>  <r_qp_dipole>  (1084) 
8.7219999999999995

>  <r_qp_donorHB>  (1084) 
4

>  <r_qp_glob>  (1084) 
0.81574040000000003

>  <r_qp_mol_MW>  (1084) 
439.488

>  <r_qp_volume>  (1084) 
1373.585

>  <r_sd_BIOSOLVEIT.INFINISEE\_FTREES\_SIMILARITY>  (1084) 
0.90900000000000003

>  <r_sd_BIOSOLVEIT.LOGP>  (1084) 
3.4653999999999998

>  <r_sd_BIOSOLVEIT.MOLECULAR\_WEIGHT>  (1084) 
440.49599999999998

>  <r_sd_BIOSOLVEIT.TPSA>  (1084) 
89.859999999999999

>  <i_epik_Tot_Q>  (1084) 
1

>  <i_epik_Tot_abs_Q>  (1084) 
1

>  <i_f3d_flags>  (1084) 
0

>  <i_i_glide_confnum>  (1084) 
3

>  <i_i_glide_lignum>  (1084) 
1173

>  <i_i_glide_posenum>  (1084) 
17

>  <i_i_glide_rotatable_bonds>  (1084) 
9

>  <i_lp_mmshare_version>  (1084) 
65135

>  <i_m_ct_format>  (1084) 
2

>  <i_m_source_file_index>  (1084) 
2664

>  <i_qp_#NandO>  (1084) 
5

>  <i_qp_#acid>  (1084) 
0

>  <i_qp_#amide>  (1084) 
0

>  <i_qp_#amidine>  (1084) 
0

>  <i_qp_#amine>  (1084) 
1

>  <i_qp_#in34>  (1084) 
0

>  <i_qp_#in56>  (1084) 
22

>  <i_qp_#metab>  (1084) 
6

>  <i_qp_#nonHatm>  (1084) 
33

>  <i_qp_#noncon>  (1084) 
0

>  <i_qp_#ringatoms>  (1084) 
22

>  <i_qp_#rotor>  (1084) 
9

>  <i_qp_#rtvFG>  (1084) 
0

>  <i_qp_#stars>  (1084) 
1

>  <i_qp_CNS>  (1084) 
0

>  <i_qp_HumanOralAbsorption>  (1084) 
3

>  <i_qp_RuleOfFive>  (1084) 
0

>  <i_qp_RuleOfThree>  (1084) 
0

>  <i_sd_BIOSOLVEIT.INFINISEE\_RESULT\_RANK>  (1084) 
48132

>  <i_sd_version>  (1084) 
0

>  <b_lp_Chiralities_Consistent>  (1084) 
1

>  <b_sd_chiral_flag>  (1084) 
0

>  <canonical_id>  (1084) 
ATP-HTVS-AD7FBCC01633

>  <compound_code>  (1084) 
85217

>  <title>  (1084) 
rxn503b____EMOL521529____EMOL44466703____EMOL313110234

>  <variant>  (1084) 
85217-4

>  <source_file>  (1084) 
运行/运行/ATP-VSW/ATP-VSW-DOCK_HTVS_1-001_lib/ATP-VSW-DOCK_HTVS_1-001_lib

>  <canonical_smiles>  (1084) 
[NH3+][C@H](C#Cc1cc2ccccc2nc1NC(=O)Cc1ccc(O)cc1)Cc1cccc(F)c1

>  <scaffold>  (1084) 
O=C(Cc1ccccc1)Nc1nc2ccccc2cc1C#CCCc1ccccc1

>  <molecular_formula>  (1084) 
C27H23FN3O2+

$$$$
ATP-HTVS-ADC6A568E437
     RDKit          3D

 59 61  0  0  0  0  0  0  0  0999 V2000
  196.2687  188.1332  160.8004 F   0  0  0  0  0  0  0  0  0  0  0  0
  196.1433  186.8706  160.3286 C   0  0  0  0  0  0  0  0  0  0  0  0
  194.9008  186.2113  160.3945 C   0  0  0  0  0  0  0  0  0  0  0  0
  194.7630  184.9071  159.8768 C   0  0  0  0  0  0  0  0  0  0  0  0
  195.8712  184.2512  159.2999 C   0  0  0  0  0  0  0  0  0  0  0  0
  197.1268  184.9023  159.2884 C   0  0  0  0  0  0  0  0  0  0  0  0
  197.2518  186.2136  159.7662 C   0  0  0  0  0  0  0  0  0  0  0  0
  195.7083  182.8520  158.7107 C   0  0  1  0  0  0  0  0  0  0  0  0
  196.3277  182.6833  157.3106 C   0  0  0  0  0  0  0  0  0  0  0  0
  196.7405  183.6456  156.6580 O   0  0  0  0  0  0  0  0  0  0  0  0
  196.3930  181.4404  156.8502 N   0  0  0  0  0  0  0  0  0  0  0  0
  196.8867  181.0419  155.5898 C   0  0  0  0  0  0  0  0  0  0  0  0
  196.3520  181.5618  154.4704 N   0  0  0  0  0  0  0  0  0  0  0  0
  196.7525  181.2336  153.2336 C   0  0  0  0  0  0  0  0  0  0  0  0
  197.7797  180.2795  153.0416 C   0  0  0  0  0  0  0  0  0  0  0  0
  198.2047  179.9182  151.7534 N   0  0  0  0  0  0  0  0  0  0  0  0
  197.5460  180.4462  150.5714 C   0  0  1  0  0  0  0  0  0  0  0  0
  198.0757  179.8494  149.2871 C   0  0  0  0  0  0  0  0  0  0  0  0
  197.2893  178.9389  148.5512 C   0  0  0  0  0  0  0  0  0  0  0  0
  197.7819  178.3823  147.3549 C   0  0  0  0  0  0  0  0  0  0  0  0
  199.0623  178.7393  146.8790 C   0  0  0  0  0  0  0  0  0  0  0  0
  199.8501  179.6432  147.6234 C   0  0  0  0  0  0  0  0  0  0  0  0
  199.3575  180.2009  148.8179 C   0  0  0  0  0  0  0  0  0  0  0  0
  199.5729  178.1651  145.5581 C   0  0  1  0  0  0  0  0  0  0  0  0
  199.3072  179.0398  144.3881 N   0  0  2  0  0  0  0  0  0  0  0  0
  200.2309  180.1903  144.2957 C   0  0  2  0  0  0  0  0  0  0  0  0
  197.8904  179.4554  144.2380 C   0  0  2  0  0  0  0  0  0  0  0  0
  198.3745  179.6934  154.1912 C   0  0  0  0  0  0  0  0  0  0  0  0
  197.9066  180.0696  155.4793 C   0  0  0  0  0  0  0  0  0  0  0  0
  199.4842  178.6600  154.0517 C   0  0  2  0  0  0  0  0  0  0  0  0
  194.0466  186.7202  160.8180 H   0  0  0  0  0  0  0  0  0  0  0  0
  193.7905  184.4299  159.9012 H   0  0  0  0  0  0  0  0  0  0  0  0
  197.9993  184.4094  158.8760 H   0  0  0  0  0  0  0  0  0  0  0  0
  198.2050  186.7197  159.6951 H   0  0  0  0  0  0  0  0  0  0  0  0
  196.1599  182.1357  159.3948 H   0  0  0  0  0  0  0  0  0  0  0  0
  194.6496  182.5959  158.6542 H   0  0  0  0  0  0  0  0  0  0  0  0
  196.0637  180.6591  157.4419 H   0  0  0  0  0  0  0  0  0  0  0  0
  196.2129  181.7303  152.4448 H   0  0  0  0  0  0  0  0  0  0  0  0
  199.0565  179.3877  151.6243 H   0  0  0  0  0  0  0  0  0  0  0  0
  196.4736  180.2576  150.6331 H   0  0  0  0  0  0  0  0  0  0  0  0
  197.6803  181.5275  150.5341 H   0  0  0  0  0  0  0  0  0  0  0  0
  196.2986  178.6758  148.8913 H   0  0  0  0  0  0  0  0  0  0  0  0
  197.1594  177.6999  146.7924 H   0  0  0  0  0  0  0  0  0  0  0  0
  200.8296  179.9323  147.2702 H   0  0  0  0  0  0  0  0  0  0  0  0
  199.9586  180.9119  149.3685 H   0  0  0  0  0  0  0  0  0  0  0  0
  200.6438  177.9644  145.6422 H   0  0  0  0  0  0  0  0  0  0  0  0
  199.1160  177.1921  145.3788 H   0  0  0  0  0  0  0  0  0  0  0  0
  200.0901  180.8775  145.1322 H   0  0  0  0  0  0  0  0  0  0  0  0
  200.0659  180.7631  143.3848 H   0  0  0  0  0  0  0  0  0  0  0  0
  201.2713  179.8652  144.3012 H   0  0  0  0  0  0  0  0  0  0  0  0
  197.5680  180.0598  145.0855 H   0  0  0  0  0  0  0  0  0  0  0  0
  197.2330  178.5911  144.1728 H   0  0  0  0  0  0  0  0  0  0  0  0
  197.7436  180.0605  143.3425 H   0  0  0  0  0  0  0  0  0  0  0  0
  198.3213  179.6176  156.3727 H   0  0  0  0  0  0  0  0  0  0  0  0
  199.8098  178.2717  155.0157 H   0  0  0  0  0  0  0  0  0  0  0  0
  200.3479  179.0978  153.5522 H   0  0  0  0  0  0  0  0  0  0  0  0
  199.1463  177.8217  153.4467 H   0  0  0  0  0  0  0  0  0  0  0  0
  199.4921  178.4263  143.5863 H   0  0  0  0  0  0  0  0  0  0  0  0
  195.5993  182.2534  154.5797 H   0  0  0  0  0  0  0  0  0  0  0  0
  1  2  1  0
  2  3  1  0
  2  7  2  0
  3  4  2  0
  3 31  1  0
  4  5  1  0
  4 32  1  0
  5  6  2  0
  5  8  1  0
  6  7  1  0
  6 33  1  0
  7 34  1  0
  8  9  1  0
  8 35  1  1
  8 36  1  0
  9 10  2  0
  9 11  1  0
 11 12  1  0
 11 37  1  0
 12 13  2  0
 12 29  1  0
 13 14  1  0
 13 59  1  0
 14 15  2  0
 14 38  1  0
 15 16  1  0
 15 28  1  0
 16 17  1  0
 16 39  1  0
 17 18  1  0
 17 40  1  1
 17 41  1  0
 18 19  1  0
 18 23  2  0
 19 20  2  0
 19 42  1  0
 20 21  1  0
 20 43  1  0
 21 22  2  0
 21 24  1  0
 22 23  1  0
 22 44  1  0
 23 45  1  0
 24 25  1  0
 24 46  1  1
 24 47  1  0
 25 26  1  0
 25 27  1  0
 25 58  1  6
 26 48  1  1
 26 49  1  0
 26 50  1  0
 27 51  1  1
 27 52  1  0
 27 53  1  0
 28 29  2  0
 28 30  1  0
 29 54  1  0
 30 55  1  1
 30 56  1  0
 30 57  1  0
M  CHG  2  13   1  25   1
M  END
>  <s_epik_cmdline>  (1085) 
J2VwaWtfcHl0aG9uJywgJy1waCcsICc3LjAwMDAwMCcsICctcGh0JywgJzIuMDAwMDAwJywgJy1tcycsICcxNicsICctdG4nLCAnOCcsICctbWEnLCAnMjAwJywgJy1pbWFlJywgJzxpbmZpbGUubWFlPicsICctb21hZScsICc8b3V0ZmlsZS5tYWU+Jw==

>  <s_epik_input>  (1085) 
RmMxW2NIXVtjSF1jKFtjSF1bY0hdMSlbQ0gyXUMoPU8pW05IXWMybltjSF1jKGMoW2NIXTIpW0NIM10pW05IXVtDSDJdYzNbY0hdW2NIXWMoW2NIXVtjSF0zKVtDSDJdTihbQ0gzXSlbQ0gzXQ==

>  <s_i_glide_gridfile>  (1085) 
ATP-Grid

>  <s_lp_Force_Field>  (1085) 
OPLS_2005

>  <s_lp_Variant>  (1085) 
rxn502a____EMOL512495____EMOL728867____EMOL50155899-2

>  <s_lp_label>  (1085) 
3024_sdstereoexpander_1_neutralizer_1_epik_2_stereoizer_1

>  <s_m_source_file>  (1085) 
ATP-VSW-LIGPREP-002-in.maegz

>  <s_sd_BIOSOLVEIT.INFINISEE\_QUERY\_NAME>  (1085) 
Ref-Lig

>  <s_sd_BIOSOLVEIT.INFINISEE\_QUERY\_SMILES>  (1085) 
S(c1nc2c(cc1C[NH2+]Cc3ccc(cc3)C[NH+](C)C)cccc2)Cc4ccccc4

>  <s_sd_BIOSOLVEIT.INFINISEE\_REACTION\_NAME>  (1085) 
rxn502a

>  <s_sd_BIOSOLVEIT.INFINISEE\_REAGENT1\_NAME>  (1085) 
EMOL512495

>  <s_sd_BIOSOLVEIT.INFINISEE\_REAGENT1\_SMILES>  (1085) 
Fc1ccc(cc1)CC(=O)O

>  <s_sd_BIOSOLVEIT.INFINISEE\_REAGENT2\_NAME>  (1085) 
EMOL728867

>  <s_sd_BIOSOLVEIT.INFINISEE\_REAGENT2\_SMILES>  (1085) 
Ic1c(cc(nc1)N)C

>  <s_sd_BIOSOLVEIT.INFINISEE\_REAGENT3\_NAME>  (1085) 
EMOL50155899

>  <s_sd_BIOSOLVEIT.INFINISEE\_REAGENT3\_SMILES>  (1085) 
N(Cc1ccc(cc1)CN)(C)C

>  <s_sd_BIOSOLVEIT.INFINISEE\_SPACE>  (1085) 
eXplore_7tr_2022-12

>  <s_vsw_compound_code>  (1085) 
96738

>  <s_vsw_variant>  (1085) 
96738-2

>  <r_epik_Charging_Adjusted_Penalty>  (1085) 
2.80211805886589

>  <r_epik_Ionization_Penalty>  (1085) 
1.5588

>  <r_epik_Ionization_Penalty_Charging>  (1085) 
1.3897999999999999

>  <r_epik_Ionization_Penalty_Neutral>  (1085) 
0.16900000000000001

>  <r_epik_State_Penalty>  (1085) 
1.4124000000000001

>  <r_i_docking_score>  (1085) 
-5.4809890158960997

>  <r_i_glide_ecoul>  (1085) 
-18.2783298492432

>  <r_i_glide_eff_state_penalty>  (1085) 
1.4124000000000001

>  <r_i_glide_einternal>  (1085) 
6.6099619865417498

>  <r_i_glide_emodel>  (1085) 
-81.650272265519902

>  <r_i_glide_energy>  (1085) 
-49.020727157592802

>  <r_i_glide_erotb>  (1085) 
0.82557920657044503

>  <r_i_glide_esite>  (1085) 
-0.3073045992724

>  <r_i_glide_evdw>  (1085) 
-30.742397308349599

>  <r_i_glide_gscore>  (1085) 
-6.8933890158961004

>  <r_i_glide_hbond>  (1085) 
-0.476020147471306

>  <r_i_glide_ligand_efficiency>  (1085) 
-0.18269963386320301

>  <r_i_glide_ligand_efficiency_ln>  (1085) 
-1.2453404245701301

>  <r_i_glide_ligand_efficiency_sa>  (1085) 
-0.56769024052200501

>  <r_i_glide_lipo>  (1085) 
-1.5634720523382899

>  <r_i_glide_metal>  (1085) 
-0

>  <r_i_glide_rewards>  (1085) 
-1.09330208058059

>  <r_lp_Energy>  (1085) 
30.757265

>  <r_lp_tautomer_probability>  (1085) 
0.99984579293731701

>  <r_qp_ACxDN^.5/SA>  (1085) 
0.011514999999999999

>  <r_qp_CIQPlogS>  (1085) 
-4.8639999999999999

>  <r_qp_EA(eV)>  (1085) 
0.13

>  <r_qp_FISA>  (1085) 
72.900000000000006

>  <r_qp_FOSA>  (1085) 
328.649

>  <r_qp_IP(eV)>  (1085) 
8.0470000000000006

>  <r_qp_Jm>  (1085) 
0.00051417812994645898

>  <r_qp_PISA>  (1085) 
349.726

>  <r_qp_PSA>  (1085) 
64.691000000000003

>  <r_qp_PercentHumanOralAbsorption>  (1085) 
100

>  <r_qp_QPPCaco>  (1085) 
502.91199999999998

>  <r_qp_QPPMDCK>  (1085) 
471.13900000000001

>  <r_qp_QPlogBB>  (1085) 
-0.254

>  <r_qp_QPlogHERG>  (1085) 
-7.8650000000000002

>  <r_qp_QPlogKhsa>  (1085) 
0.72099999999999997

>  <r_qp_QPlogKp>  (1085) 
-2.9260000000000002

>  <r_qp_QPlogPC16>  (1085) 
14.584

>  <r_qp_QPlogPo/w>  (1085) 
4.7030000000000003

>  <r_qp_QPlogPoct>  (1085) 
22.548999999999999

>  <r_qp_QPlogPw>  (1085) 
12.099

>  <r_qp_QPlogS>  (1085) 
-5.9720000000000004

>  <r_qp_QPpolrz>  (1085) 
47.904000000000003

>  <r_qp_SASA>  (1085) 
798.29399999999998

>  <r_qp_SAamideO>  (1085) 
0

>  <r_qp_SAfluorine>  (1085) 
47.018999999999998

>  <r_qp_WPSA>  (1085) 
47.018999999999998

>  <r_qp_accptHB>  (1085) 
6.5

>  <r_qp_dip^2/V>  (1085) 
0.031294299999999997

>  <r_qp_dipole>  (1085) 
6.609

>  <r_qp_donorHB>  (1085) 
2

>  <r_qp_glob>  (1085) 
0.75658689999999995

>  <r_qp_mol_MW>  (1085) 
406.50200000000001

>  <r_qp_volume>  (1085) 
1395.6759999999999

>  <r_sd_BIOSOLVEIT.INFINISEE\_FTREES\_SIMILARITY>  (1085) 
0.90200000000000002

>  <r_sd_BIOSOLVEIT.LOGP>  (1085) 
2.96692

>  <r_sd_BIOSOLVEIT.MOLECULAR\_WEIGHT>  (1085) 
407.50999999999999

>  <r_sd_BIOSOLVEIT.TPSA>  (1085) 
58.460000000000001

>  <i_epik_Tot_Q>  (1085) 
2

>  <i_epik_Tot_abs_Q>  (1085) 
2

>  <i_f3d_flags>  (1085) 
0

>  <i_i_glide_confnum>  (1085) 
7

>  <i_i_glide_lignum>  (1085) 
89

>  <i_i_glide_posenum>  (1085) 
2

>  <i_i_glide_rotatable_bonds>  (1085) 
9

>  <i_lp_mmshare_version>  (1085) 
65135

>  <i_m_ct_format>  (1085) 
2

>  <i_m_source_file_index>  (1085) 
3024

>  <i_qp_#NandO>  (1085) 
5

>  <i_qp_#acid>  (1085) 
0

>  <i_qp_#amide>  (1085) 
0

>  <i_qp_#amidine>  (1085) 
0

>  <i_qp_#amine>  (1085) 
1

>  <i_qp_#in34>  (1085) 
0

>  <i_qp_#in56>  (1085) 
18

>  <i_qp_#metab>  (1085) 
8

>  <i_qp_#nonHatm>  (1085) 
30

>  <i_qp_#noncon>  (1085) 
0

>  <i_qp_#ringatoms>  (1085) 
18

>  <i_qp_#rotor>  (1085) 
8

>  <i_qp_#rtvFG>  (1085) 
0

>  <i_qp_#stars>  (1085) 
0

>  <i_qp_CNS>  (1085) 
1

>  <i_qp_HumanOralAbsorption>  (1085) 
3

>  <i_qp_RuleOfFive>  (1085) 
0

>  <i_qp_RuleOfThree>  (1085) 
2

>  <i_sd_BIOSOLVEIT.INFINISEE\_RESULT\_RANK>  (1085) 
88669

>  <i_sd_version>  (1085) 
0

>  <b_lp_Chiralities_Consistent>  (1085) 
1

>  <b_sd_chiral_flag>  (1085) 
0

>  <canonical_id>  (1085) 
ATP-HTVS-ADC6A568E437

>  <compound_code>  (1085) 
96738

>  <title>  (1085) 
rxn502a____EMOL512495____EMOL728867____EMOL50155899

>  <variant>  (1085) 
96738-2

>  <source_file>  (1085) 
运行/运行/ATP-VSW/ATP-VSW-DOCK_HTVS_1-003_lib/ATP-VSW-DOCK_HTVS_1-003_lib.mae

>  <canonical_smiles>  (1085) 
Cc1cc(NC(=O)Cc2ccc(F)cc2)[nH+]cc1NCc1ccc(C[NH+](C)C)cc1

>  <scaffold>  (1085) 
O=C(Cc1ccccc1)Nc1ccc(NCc2ccccc2)c[nH+]1

>  <molecular_formula>  (1085) 
C24H29FN4O+2

$$$$
ATP-HTVS-ADEEA10F1B91
     RDKit          3D

 52 55  0  0  0  0  0  0  0  0999 V2000
  197.1552  184.6098  152.8109 O   0  0  0  0  0  0  0  0  0  0  0  0
  197.2444  183.4229  153.1247 C   0  0  0  0  0  0  0  0  0  0  0  0
  197.5275  182.9742  154.3600 N   0  0  0  0  0  0  0  0  0  0  0  0
  197.6193  183.7117  155.5779 C   0  0  0  0  0  0  0  0  0  0  0  0
  197.1627  184.9811  155.7085 N   0  0  0  0  0  0  0  0  0  0  0  0
  197.2515  185.6089  156.9005 C   0  0  0  0  0  0  0  0  0  0  0  0
  197.8316  185.0091  158.0457 C   0  0  0  0  0  0  0  0  0  0  0  0
  198.3224  183.7032  157.9353 C   0  0  0  0  0  0  0  0  0  0  0  0
  198.2105  183.0542  156.6919 C   0  0  0  0  0  0  0  0  0  0  0  0
  198.7108  181.7017  156.6269 C   0  0  0  0  0  0  0  0  0  0  0  0
  199.1188  180.5639  156.6350 C   0  0  0  0  0  0  0  0  0  0  0  0
  199.6031  179.2039  156.4170 C   0  0  1  0  0  0  0  0  0  0  0  0
  200.7265  178.8377  157.2612 N   0  0  0  0  0  0  0  0  0  0  0  0
  200.7510  177.3919  157.4713 C   0  0  1  0  0  0  0  0  0  0  0  0
  201.0580  176.5334  156.2413 C   0  0  0  0  0  0  0  0  0  0  0  0
  200.4184  176.7445  154.9979 C   0  0  0  0  0  0  0  0  0  0  0  0
  200.7843  175.9841  153.8794 C   0  0  0  0  0  0  0  0  0  0  0  0
  201.6872  174.8995  153.9960 C   0  0  0  0  0  0  0  0  0  0  0  0
  202.2546  174.6121  155.2602 C   0  0  0  0  0  0  0  0  0  0  0  0
  201.9767  175.4422  156.3669 C   0  0  0  0  0  0  0  0  0  0  0  0
  197.9248  185.6890  159.2691 C   0  0  0  0  0  0  0  0  0  0  0  0
  197.4234  186.9961  159.3691 C   0  0  0  0  0  0  0  0  0  0  0  0
  196.8319  187.6095  158.2494 C   0  0  0  0  0  0  0  0  0  0  0  0
  196.7490  186.9148  157.0274 C   0  0  0  0  0  0  0  0  0  0  0  0
  197.1506  182.3531  152.0741 C   0  0  0  0  0  0  0  0  0  0  0  0
  197.6233  182.6087  150.7679 C   0  0  0  0  0  0  0  0  0  0  0  0
  197.5279  181.6196  149.7689 C   0  0  0  0  0  0  0  0  0  0  0  0
  196.9445  180.3703  150.0653 C   0  0  0  0  0  0  0  0  0  0  0  0
  196.8341  179.3553  149.0301 C   0  0  0  0  0  0  0  0  0  0  0  0
  196.7485  178.5483  148.2061 N   0  0  0  0  0  0  0  0  0  0  0  0
  196.4616  180.1120  151.3632 C   0  0  0  0  0  0  0  0  0  0  0  0
  196.5660  181.0984  152.3636 C   0  0  0  0  0  0  0  0  0  0  0  0
  201.5871  179.1400  156.8299 H   0  0  0  0  0  0  0  0  0  0  0  0
  197.7051  181.9805  154.4412 H   0  0  0  0  0  0  0  0  0  0  0  0
  198.7805  183.1911  158.7740 H   0  0  0  0  0  0  0  0  0  0  0  0
  198.7575  178.5356  156.5084 H   0  0  0  0  0  0  0  0  0  0  0  0
  199.9196  179.2173  155.3764 H   0  0  0  0  0  0  0  0  0  0  0  0
  201.5077  177.2246  158.2585 H   0  0  0  0  0  0  0  0  0  0  0  0
  199.8101  177.0627  157.9218 H   0  0  0  0  0  0  0  0  0  0  0  0
  199.6559  177.4604  154.8234 H   0  0  0  0  0  0  0  0  0  0  0  0
  200.3131  176.2273  152.9451 H   0  0  0  0  0  0  0  0  0  0  0  0
  201.8826  174.2752  153.1054 H   0  0  0  0  0  0  0  0  0  0  0  0
  202.9200  173.7458  155.3532 H   0  0  0  0  0  0  0  0  0  0  0  0
  202.4417  175.1777  157.3248 H   0  0  0  0  0  0  0  0  0  0  0  0
  198.3793  185.2174  160.1268 H   0  0  0  0  0  0  0  0  0  0  0  0
  197.4946  187.5308  160.3047 H   0  0  0  0  0  0  0  0  0  0  0  0
  196.4479  188.6156  158.3311 H   0  0  0  0  0  0  0  0  0  0  0  0
  196.2960  187.3830  156.1668 H   0  0  0  0  0  0  0  0  0  0  0  0
  198.0672  183.5640  150.5247 H   0  0  0  0  0  0  0  0  0  0  0  0
  197.8972  181.8294  148.7750 H   0  0  0  0  0  0  0  0  0  0  0  0
  196.0033  179.1628  151.6008 H   0  0  0  0  0  0  0  0  0  0  0  0
  196.1774  180.8889  153.3496 H   0  0  0  0  0  0  0  0  0  0  0  0
  1  2  2  0
  2  3  1  0
  2 25  1  0
  3  4  1  0
  3 34  1  0
  4  5  2  0
  4  9  1  0
  5  6  1  0
  6  7  1  0
  6 24  2  0
  7  8  1  0
  7 21  2  0
  8  9  2  0
  8 35  1  0
  9 10  1  0
 10 11  3  0
 11 12  1  0
 12 13  1  0
 12 36  1  6
 12 37  1  0
 13 14  1  0
 13 33  1  0
 14 15  1  0
 14 38  1  1
 14 39  1  0
 15 16  2  0
 15 20  1  0
 16 17  1  0
 16 40  1  0
 17 18  2  0
 17 41  1  0
 18 19  1  0
 18 42  1  0
 19 20  2  0
 19 43  1  0
 20 44  1  0
 21 22  1  0
 21 45  1  0
 22 23  2  0
 22 46  1  0
 23 24  1  0
 23 47  1  0
 24 48  1  0
 25 26  1  0
 25 32  2  0
 26 27  2  0
 26 49  1  0
 27 28  1  0
 27 50  1  0
 28 29  1  0
 28 31  2  0
 29 30  3  0
 31 32  1  0
 31 51  1  0
 32 52  1  0
M  END
>  <s_epik_cmdline>  (1086) 
J2VwaWtfcHl0aG9uJywgJy1waCcsICc3LjAwMDAwMCcsICctcGh0JywgJzIuMDAwMDAwJywgJy1tcycsICcxNicsICctdG4nLCAnOCcsICctbWEnLCAnMjAwJywgJy1pbWFlJywgJzxpbmZpbGUubWFlPicsICctb21hZScsICc8b3V0ZmlsZS5tYWU+Jw==

>  <s_epik_input>  (1086) 
TiNDYyhbY0hdW2NIXTEpW2NIXVtjSF1jMUMoPU8pW05IXWMobjIpYyhbY0hdYyhjMjMpW2NIXVtjSF1bY0hdW2NIXTMpQyNDW0NIMl1bTkhdW0NIMl1jNFtjSF1bY0hdW2NIXVtjSF1bY0hdNA==

>  <s_i_glide_gridfile>  (1086) 
ATP-Grid

>  <s_lp_Force_Field>  (1086) 
OPLS_2005

>  <s_lp_Variant>  (1086) 
rxn503b____EMOL494614____EMOL44466703____EMOL1197208-1

>  <s_lp_label>  (1086) 
2753_sdstereoexpander_1_neutralizer_1_epik_1_stereoizer_1

>  <s_m_source_file>  (1086) 
ATP-VSW-LIGPREP-001-in.maegz

>  <s_sd_BIOSOLVEIT.INFINISEE\_QUERY\_NAME>  (1086) 
Ref-Lig

>  <s_sd_BIOSOLVEIT.INFINISEE\_QUERY\_SMILES>  (1086) 
S(c1nc2c(cc1C[NH2+]Cc3ccc(cc3)C[NH+](C)C)cccc2)Cc4ccccc4

>  <s_sd_BIOSOLVEIT.INFINISEE\_REACTION\_NAME>  (1086) 
rxn503b

>  <s_sd_BIOSOLVEIT.INFINISEE\_REAGENT1\_NAME>  (1086) 
EMOL494614

>  <s_sd_BIOSOLVEIT.INFINISEE\_REAGENT1\_SMILES>  (1086) 
O=C(O)c1ccc(C#N)cc1

>  <s_sd_BIOSOLVEIT.INFINISEE\_REAGENT2\_NAME>  (1086) 
EMOL44466703

>  <s_sd_BIOSOLVEIT.INFINISEE\_REAGENT2\_SMILES>  (1086) 
Brc1c(nc2c(c1)cccc2)N

>  <s_sd_BIOSOLVEIT.INFINISEE\_REAGENT3\_NAME>  (1086) 
EMOL1197208

>  <s_sd_BIOSOLVEIT.INFINISEE\_REAGENT3\_SMILES>  (1086) 
N(CC#C)Cc1ccccc1

>  <s_sd_BIOSOLVEIT.INFINISEE\_SPACE>  (1086) 
eXplore_7tr_2022-12

>  <s_vsw_compound_code>  (1086) 
88065

>  <s_vsw_variant>  (1086) 
88065-1

>  <r_epik_Charging_Adjusted_Penalty>  (1086) 
0.28608794728970499

>  <r_epik_Ionization_Penalty>  (1086) 
0.28639999999999999

>  <r_epik_Ionization_Penalty_Charging>  (1086) 
0

>  <r_epik_Ionization_Penalty_Neutral>  (1086) 
0.28639999999999999

>  <r_epik_State_Penalty>  (1086) 
0.28610000000000002

>  <r_i_docking_score>  (1086) 
-3.9844606159560501

>  <r_i_glide_ecoul>  (1086) 
-1.0919152498245199

>  <r_i_glide_eff_state_penalty>  (1086) 
0.28610000000000002

>  <r_i_glide_einternal>  (1086) 
5.3705263137817401

>  <r_i_glide_emodel>  (1086) 
-48.279156206608903

>  <r_i_glide_energy>  (1086) 
-40.355007290840099

>  <r_i_glide_erotb>  (1086) 
0.797311366095941

>  <r_i_glide_esite>  (1086) 
-0.0558899586609704

>  <r_i_glide_evdw>  (1086) 
-39.263092041015597

>  <r_i_glide_gscore>  (1086) 
-4.2705606159560503

>  <r_i_glide_hbond>  (1086) 
0

>  <r_i_glide_ligand_efficiency>  (1086) 
-0.124514394248626

>  <r_i_glide_ligand_efficiency_ln>  (1086) 
-0.89222934420686395

>  <r_i_glide_ligand_efficiency_sa>  (1086) 
-0.39530856037422701

>  <r_i_glide_lipo>  (1086) 
-2.10837680941491

>  <r_i_glide_metal>  (1086) 
-0

>  <r_i_glide_rewards>  (1086) 
-0.77666332445165298

>  <r_lp_Energy>  (1086) 
24.883544000000001

>  <r_qp_ACxDN^.5/SA>  (1086) 
0.0114549

>  <r_qp_CIQPlogS>  (1086) 
-6.3029999999999999

>  <r_qp_EA(eV)>  (1086) 
1.1459999999999999

>  <r_qp_FISA>  (1086) 
147.03100000000001

>  <r_qp_FOSA>  (1086) 
68.936999999999998

>  <r_qp_IP(eV)>  (1086) 
8.8350000000000009

>  <r_qp_Jm>  (1086) 
2.0944917753505199e-05

>  <r_qp_PISA>  (1086) 
586.51700000000005

>  <r_qp_PSA>  (1086) 
85.311999999999998

>  <r_qp_PercentHumanOralAbsorption>  (1086) 
88.028000000000006

>  <r_qp_QPPCaco>  (1086) 
99.655000000000001

>  <r_qp_QPPMDCK>  (1086) 
45.261000000000003

>  <r_qp_QPlogBB>  (1086) 
-1.2410000000000001

>  <r_qp_QPlogHERG>  (1086) 
-9.0239999999999991

>  <r_qp_QPlogKhsa>  (1086) 
0.73499999999999999

>  <r_qp_QPlogKp>  (1086) 
-3.4580000000000002

>  <r_qp_QPlogPC16>  (1086) 
17.149999999999999

>  <r_qp_QPlogPo/w>  (1086) 
4.3230000000000004

>  <r_qp_QPlogPoct>  (1086) 
24.001999999999999

>  <r_qp_QPlogPw>  (1086) 
14.207000000000001

>  <r_qp_QPlogS>  (1086) 
-6.8410000000000002

>  <r_qp_QPpolrz>  (1086) 
50.396000000000001

>  <r_qp_SASA>  (1086) 
802.48500000000001

>  <r_qp_SAamideO>  (1086) 
0

>  <r_qp_SAfluorine>  (1086) 
0

>  <r_qp_WPSA>  (1086) 
0

>  <r_qp_accptHB>  (1086) 
6.5

>  <r_qp_dip^2/V>  (1086) 
0.036450000000000003

>  <r_qp_dipole>  (1086) 
7.1470000000000002

>  <r_qp_donorHB>  (1086) 
2

>  <r_qp_glob>  (1086) 
0.75470870000000001

>  <r_qp_mol_MW>  (1086) 
416.48099999999999

>  <r_qp_volume>  (1086) 
1401.4490000000001

>  <r_sd_BIOSOLVEIT.INFINISEE\_FTREES\_SIMILARITY>  (1086) 
0.90700000000000003

>  <r_sd_BIOSOLVEIT.LOGP>  (1086) 
3.4738799999999999

>  <r_sd_BIOSOLVEIT.MOLECULAR\_WEIGHT>  (1086) 
417.49000000000001

>  <r_sd_BIOSOLVEIT.TPSA>  (1086) 
82.390000000000001

>  <i_epik_Tot_Q>  (1086) 
0

>  <i_epik_Tot_abs_Q>  (1086) 
0

>  <i_f3d_flags>  (1086) 
0

>  <i_i_glide_confnum>  (1086) 
6

>  <i_i_glide_lignum>  (1086) 
1234

>  <i_i_glide_posenum>  (1086) 
15

>  <i_i_glide_rotatable_bonds>  (1086) 
8

>  <i_lp_mmshare_version>  (1086) 
65135

>  <i_m_ct_format>  (1086) 
2

>  <i_m_source_file_index>  (1086) 
2753

>  <i_qp_#NandO>  (1086) 
5

>  <i_qp_#acid>  (1086) 
0

>  <i_qp_#amide>  (1086) 
0

>  <i_qp_#amidine>  (1086) 
0

>  <i_qp_#amine>  (1086) 
1

>  <i_qp_#in34>  (1086) 
0

>  <i_qp_#in56>  (1086) 
22

>  <i_qp_#metab>  (1086) 
3

>  <i_qp_#nonHatm>  (1086) 
32

>  <i_qp_#noncon>  (1086) 
0

>  <i_qp_#ringatoms>  (1086) 
22

>  <i_qp_#rotor>  (1086) 
8

>  <i_qp_#rtvFG>  (1086) 
0

>  <i_qp_#stars>  (1086) 
2

>  <i_qp_CNS>  (1086) 
-2

>  <i_qp_HumanOralAbsorption>  (1086) 
1

>  <i_qp_RuleOfFive>  (1086) 
0

>  <i_qp_RuleOfThree>  (1086) 
1

>  <i_sd_BIOSOLVEIT.INFINISEE\_RESULT\_RANK>  (1086) 
58553

>  <i_sd_version>  (1086) 
0

>  <b_lp_Chiralities_Consistent>  (1086) 
1

>  <b_sd_chiral_flag>  (1086) 
0

>  <canonical_id>  (1086) 
ATP-HTVS-ADEEA10F1B91

>  <compound_code>  (1086) 
88065

>  <title>  (1086) 
rxn503b____EMOL494614____EMOL44466703____EMOL1197208

>  <variant>  (1086) 
88065-1

>  <source_file>  (1086) 
运行/运行/ATP-VSW/ATP-VSW-DOCK_HTVS_1-001_lib/ATP-VSW-DOCK_HTVS_1-001_lib

>  <canonical_smiles>  (1086) 
N#Cc1ccc(C(=O)Nc2nc3ccccc3cc2C#CCNCc2ccccc2)cc1

>  <scaffold>  (1086) 
O=C(Nc1nc2ccccc2cc1C#CCNCc1ccccc1)c1ccccc1

>  <molecular_formula>  (1086) 
C27H20N4O

$$$$
ATP-HTVS-ADF1B73D9E23
     RDKit          3D

 69 72  0  0  0  0  0  0  0  0999 V2000
  196.3872  180.9486  154.7276 O   0  0  0  0  0  0  0  0  0  0  0  0
  197.1037  181.7980  155.2532 C   0  0  0  0  0  0  0  0  0  0  0  0
  197.5653  182.9088  154.6344 N   0  0  0  0  0  0  0  0  0  0  0  0
  197.3818  183.3396  153.2954 C   0  0  0  0  0  0  0  0  0  0  0  0
  196.6776  182.6187  152.4010 N   0  0  0  0  0  0  0  0  0  0  0  0
  196.4919  183.0925  151.1627 C   0  0  0  0  0  0  0  0  0  0  0  0
  197.0856  184.2789  150.6580 C   0  0  0  0  0  0  0  0  0  0  0  0
  196.9790  184.5922  149.2934 N   0  0  0  0  0  0  0  0  0  0  0  0
  198.1495  184.4419  148.4113 C   0  0  1  0  0  0  0  0  0  0  0  0
  198.6161  183.0098  148.1472 C   0  0  0  0  0  0  0  0  0  0  0  0
  199.1797  182.6974  146.8854 C   0  0  0  0  0  0  0  0  0  0  0  0
  199.7230  181.4163  146.6847 C   0  0  0  0  0  0  0  0  0  0  0  0
  199.4885  180.3772  147.6231 C   0  0  0  0  0  0  0  0  0  0  0  0
  198.9256  180.7022  148.8776 C   0  0  0  0  0  0  0  0  0  0  0  0
  198.6108  182.0263  149.1577 C   0  0  0  0  0  0  0  0  0  0  0  0
  199.8990  178.9303  147.3620 C   0  0  1  0  0  0  0  0  0  0  0  0
  198.7562  178.1158  146.8343 N   0  0  1  0  0  0  0  0  0  0  0  0
  198.7099  178.0932  145.3244 C   0  0  1  0  0  0  0  0  0  0  0  0
  198.3967  179.4033  144.6128 C   0  0  2  0  0  0  0  0  0  0  0  0
  198.7384  176.7393  147.4394 C   0  0  1  0  0  0  0  0  0  0  0  0
  198.4494  176.7138  148.9651 C   0  0  2  0  0  0  0  0  0  0  0  0
  197.8308  185.0343  151.5906 C   0  0  0  0  0  0  0  0  0  0  0  0
  197.9725  184.5878  152.9179 C   0  0  0  0  0  0  0  0  0  0  0  0
  198.6761  185.3870  153.8549 C   0  0  0  0  0  0  0  0  0  0  0  0
  199.2380  186.6176  153.4492 C   0  0  0  0  0  0  0  0  0  0  0  0
  199.1386  187.0335  152.1137 C   0  0  0  0  0  0  0  0  0  0  0  0
  198.4520  186.2420  151.1820 C   0  0  0  0  0  0  0  0  0  0  0  0
  197.5544  181.6201  156.7081 C   0  0  1  0  0  0  0  0  0  0  0  0
  196.8733  182.6193  157.6292 C   0  0  0  0  0  0  0  0  0  0  0  0
  197.5271  183.8151  157.9919 C   0  0  0  0  0  0  0  0  0  0  0  0
  196.8865  184.7438  158.8367 C   0  0  0  0  0  0  0  0  0  0  0  0
  197.5224  185.9028  159.1799 O   0  0  0  0  0  0  0  0  0  0  0  0
  195.5905  184.4755  159.3240 C   0  0  0  0  0  0  0  0  0  0  0  0
  194.9689  185.3777  160.1366 O   0  0  0  0  0  0  0  0  0  0  0  0
  194.9397  183.2807  158.9678 C   0  0  0  0  0  0  0  0  0  0  0  0
  195.5820  182.3532  158.1280 C   0  0  0  0  0  0  0  0  0  0  0  0
  198.0960  183.5297  155.2222 H   0  0  0  0  0  0  0  0  0  0  0  0
  195.9981  182.4033  150.4859 H   0  0  0  0  0  0  0  0  0  0  0  0
  196.1349  184.9936  148.8944 H   0  0  0  0  0  0  0  0  0  0  0  0
  197.8923  184.9031  147.4552 H   0  0  0  0  0  0  0  0  0  0  0  0
  199.0189  185.0180  148.7522 H   0  0  0  0  0  0  0  0  0  0  0  0
  199.2631  183.4338  146.0761 H   0  0  0  0  0  0  0  0  0  0  0  0
  200.3238  181.2636  145.7972 H   0  0  0  0  0  0  0  0  0  0  0  0
  198.8379  179.9852  149.6983 H   0  0  0  0  0  0  0  0  0  0  0  0
  198.4271  182.2240  150.1839 H   0  0  0  0  0  0  0  0  0  0  0  0
  200.7785  178.8974  146.7201 H   0  0  0  0  0  0  0  0  0  0  0  0
  200.2698  178.5890  148.3262 H   0  0  0  0  0  0  0  0  0  0  0  0
  199.6564  177.6751  144.9487 H   0  0  0  0  0  0  0  0  0  0  0  0
  197.9033  177.4149  145.0216 H   0  0  0  0  0  0  0  0  0  0  0  0
  198.2451  179.2855  143.5505 H   0  0  0  0  0  0  0  0  0  0  0  0
  199.2989  180.0218  144.6686 H   0  0  0  0  0  0  0  0  0  0  0  0
  197.5598  179.9075  145.0610 H   0  0  0  0  0  0  0  0  0  0  0  0
  197.9621  176.1597  146.9455 H   0  0  0  0  0  0  0  0  0  0  0  0
  199.6801  176.2385  147.2104 H   0  0  0  0  0  0  0  0  0  0  0  0
  198.5300  175.6926  149.3393 H   0  0  0  0  0  0  0  0  0  0  0  0
  197.4508  177.0965  149.1837 H   0  0  0  0  0  0  0  0  0  0  0  0
  199.1494  177.2840  149.5665 H   0  0  0  0  0  0  0  0  0  0  0  0
  198.7769  185.1117  154.8940 H   0  0  0  0  0  0  0  0  0  0  0  0
  199.7473  187.2366  154.1724 H   0  0  0  0  0  0  0  0  0  0  0  0
  199.5583  187.9866  151.8069 H   0  0  0  0  0  0  0  0  0  0  0  0
  198.3562  186.5937  150.1727 H   0  0  0  0  0  0  0  0  0  0  0  0
  197.3351  180.6062  157.0351 H   0  0  0  0  0  0  0  0  0  0  0  0
  198.6372  181.7308  156.7654 H   0  0  0  0  0  0  0  0  0  0  0  0
  198.5206  184.0141  157.6191 H   0  0  0  0  0  0  0  0  0  0  0  0
  198.3801  185.9777  158.7888 H   0  0  0  0  0  0  0  0  0  0  0  0
  195.4884  186.1652  160.2104 H   0  0  0  0  0  0  0  0  0  0  0  0
  193.9453  183.0771  159.3305 H   0  0  0  0  0  0  0  0  0  0  0  0
  195.0750  181.4418  157.8487 H   0  0  0  0  0  0  0  0  0  0  0  0
  197.8922  178.5522  147.1402 H   0  0  0  0  0  0  0  0  0  0  0  0
  1  2  2  0
  2  3  1  0
  2 28  1  0
  3  4  1  0
  3 37  1  0
  4  5  1  0
  4 23  2  0
  5  6  2  0
  6  7  1  0
  6 38  1  0
  7  8  1  0
  7 22  2  0
  8  9  1  0
  8 39  1  0
  9 10  1  0
  9 40  1  6
  9 41  1  0
 10 11  1  0
 10 15  2  0
 11 12  2  0
 11 42  1  0
 12 13  1  0
 12 43  1  0
 13 14  2  0
 13 16  1  0
 14 15  1  0
 14 44  1  0
 15 45  1  0
 16 17  1  0
 16 46  1  6
 16 47  1  0
 17 18  1  0
 17 20  1  0
 17 69  1  1
 18 19  1  0
 18 48  1  6
 18 49  1  0
 19 50  1  6
 19 51  1  0
 19 52  1  0
 20 21  1  0
 20 53  1  6
 20 54  1  0
 21 55  1  1
 21 56  1  0
 21 57  1  0
 22 23  1  0
 22 27  1  0
 23 24  1  0
 24 25  2  0
 24 58  1  0
 25 26  1  0
 25 59  1  0
 26 27  2  0
 26 60  1  0
 27 61  1  0
 28 29  1  0
 28 62  1  1
 28 63  1  0
 29 30  2  0
 29 36  1  0
 30 31  1  0
 30 64  1  0
 31 32  1  0
 31 33  2  0
 32 65  1  0
 33 34  1  0
 33 35  1  0
 34 66  1  0
 35 36  2  0
 35 67  1  0
 36 68  1  0
M  CHG  1  17   1
M  END
>  <s_epik_cmdline>  (1087) 
J2VwaWtfcHl0aG9uJywgJy1waCcsICc3LjAwMDAwMCcsICctcGh0JywgJzIuMDAwMDAwJywgJy1tcycsICcxNicsICctdG4nLCAnOCcsICctbWEnLCAnMjAwJywgJy1pbWFlJywgJzxpbmZpbGUubWFlPicsICctb21hZScsICc8b3V0ZmlsZS5tYWU+Jw==

>  <s_epik_input>  (1087) 
W2NIXTFbY0hdYyhbT0hdKWMoW09IXSlbY0hdYzFbQ0gyXUMoPU8pW05IXWMoYyhjMjMpW2NIXVtjSF1bY0hdW2NIXTMpbltjSF1jMltOSF1bQ0gyXWM0W2NIXVtjSF1jKFtjSF1bY0hdNClbQ0gyXU4oW0NIMl1bQ0gzXSlbQ0gyXVtDSDNd

>  <s_i_glide_gridfile>  (1087) 
ATP-Grid

>  <s_lp_Force_Field>  (1087) 
OPLS_2005

>  <s_lp_Variant>  (1087) 
rxn502b____EMOL502826____EMOL7515103____EMOL2868412-1

>  <s_lp_label>  (1087) 
2673_sdstereoexpander_1_neutralizer_1_epik_1_stereoizer_1

>  <s_m_source_file>  (1087) 
ATP-VSW-LIGPREP-003-in.maegz

>  <s_sd_BIOSOLVEIT.INFINISEE\_QUERY\_NAME>  (1087) 
Ref-Lig

>  <s_sd_BIOSOLVEIT.INFINISEE\_QUERY\_SMILES>  (1087) 
S(c1nc2c(cc1C[NH2+]Cc3ccc(cc3)C[NH+](C)C)cccc2)Cc4ccccc4

>  <s_sd_BIOSOLVEIT.INFINISEE\_REACTION\_NAME>  (1087) 
rxn502b

>  <s_sd_BIOSOLVEIT.INFINISEE\_REAGENT1\_NAME>  (1087) 
EMOL502826

>  <s_sd_BIOSOLVEIT.INFINISEE\_REAGENT1\_SMILES>  (1087) 
O=C(O)Cc1cc(O)c(O)cc1

>  <s_sd_BIOSOLVEIT.INFINISEE\_REAGENT2\_NAME>  (1087) 
EMOL7515103

>  <s_sd_BIOSOLVEIT.INFINISEE\_REAGENT2\_SMILES>  (1087) 
Brc1c2c(c(nc1)N)cccc2

>  <s_sd_BIOSOLVEIT.INFINISEE\_REAGENT3\_NAME>  (1087) 
EMOL2868412

>  <s_sd_BIOSOLVEIT.INFINISEE\_REAGENT3\_SMILES>  (1087) 
N(Cc1ccc(cc1)CN)(CC)CC

>  <s_sd_BIOSOLVEIT.INFINISEE\_SPACE>  (1087) 
eXplore_7tr_2022-12

>  <s_vsw_compound_code>  (1087) 
85507

>  <s_vsw_variant>  (1087) 
85507-1

>  <r_epik_Charging_Adjusted_Penalty>  (1087) 
0.046063411191320902

>  <r_epik_Ionization_Penalty>  (1087) 
0.033500000000000002

>  <r_epik_Ionization_Penalty_Charging>  (1087) 
0.015900000000000001

>  <r_epik_Ionization_Penalty_Neutral>  (1087) 
0.017600000000000001

>  <r_epik_State_Penalty>  (1087) 
0.030099999999999998

>  <r_i_docking_score>  (1087) 
-3.3362451886446598

>  <r_i_glide_ecoul>  (1087) 
-3.0283050537109402

>  <r_i_glide_eff_state_penalty>  (1087) 
0.030099999999999998

>  <r_i_glide_einternal>  (1087) 
10.0968980789185

>  <r_i_glide_emodel>  (1087) 
-50.116488126881301

>  <r_i_glide_energy>  (1087) 
-44.051971435546903

>  <r_i_glide_erotb>  (1087) 
0.77541327550133898

>  <r_i_glide_esite>  (1087) 
-0.0574067161671298

>  <r_i_glide_evdw>  (1087) 
-41.023666381835902

>  <r_i_glide_gscore>  (1087) 
-3.3663451886446598

>  <r_i_glide_hbond>  (1087) 
0

>  <r_i_glide_ligand_efficiency>  (1087) 
-0.092673477462351495

>  <r_i_glide_ligand_efficiency_ln>  (1087) 
-0.72787856523364103

>  <r_i_glide_ligand_efficiency_sa>  (1087) 
-0.30600108011723998

>  <r_i_glide_lipo>  (1087) 
-1.4807225799213399

>  <r_i_glide_metal>  (1087) 
-0

>  <r_i_glide_rewards>  (1087) 
-0.098200090909089197

>  <r_lp_Energy>  (1087) 
30.932866000000001

>  <r_lp_tautomer_probability>  (1087) 
0.99999999999977596

>  <r_qp_ACxDN^.5/SA>  (1087) 
0.018297299999999999

>  <r_qp_CIQPlogS>  (1087) 
-5.9100000000000001

>  <r_qp_EA(eV)>  (1087) 
0.79400000000000004

>  <r_qp_FISA>  (1087) 
164.10300000000001

>  <r_qp_FOSA>  (1087) 
306.54300000000001

>  <r_qp_IP(eV)>  (1087) 
7.6070000000000002

>  <r_qp_Jm>  (1087) 
0.000101116239199375

>  <r_qp_PISA>  (1087) 
403.798

>  <r_qp_PSA>  (1087) 
107.366

>  <r_qp_PercentHumanOralAbsorption>  (1087) 
84.385000000000005

>  <r_qp_QPPCaco>  (1087) 
68.644999999999996

>  <r_qp_QPPMDCK>  (1087) 
30.251000000000001

>  <r_qp_QPlogBB>  (1087) 
-1.6879999999999999

>  <r_qp_QPlogHERG>  (1087) 
-8.173

>  <r_qp_QPlogKhsa>  (1087) 
0.63900000000000001

>  <r_qp_QPlogKp>  (1087) 
-4.032

>  <r_qp_QPlogPC16>  (1087) 
18.239999999999998

>  <r_qp_QPlogPo/w>  (1087) 
4.1959999999999997

>  <r_qp_QPlogPoct>  (1087) 
28.937999999999999

>  <r_qp_QPlogPw>  (1087) 
16.777999999999999

>  <r_qp_QPlogS>  (1087) 
-5.649

>  <r_qp_QPpolrz>  (1087) 
53.637999999999998

>  <r_qp_SASA>  (1087) 
874.44399999999996

>  <r_qp_SAamideO>  (1087) 
0

>  <r_qp_SAfluorine>  (1087) 
0

>  <r_qp_WPSA>  (1087) 
0

>  <r_qp_accptHB>  (1087) 
8

>  <r_qp_dip^2/V>  (1087) 
0.064037899999999995

>  <r_qp_dipole>  (1087) 
10.090999999999999

>  <r_qp_donorHB>  (1087) 
4

>  <r_qp_glob>  (1087) 
0.75347810000000004

>  <r_qp_mol_MW>  (1087) 
484.59699999999998

>  <r_qp_volume>  (1087) 
1590.2170000000001

>  <r_sd_BIOSOLVEIT.INFINISEE\_FTREES\_SIMILARITY>  (1087) 
0.90900000000000003

>  <r_sd_BIOSOLVEIT.LOGP>  (1087) 
3.8639999999999999

>  <r_sd_BIOSOLVEIT.MOLECULAR\_WEIGHT>  (1087) 
485.60500000000002

>  <r_sd_BIOSOLVEIT.TPSA>  (1087) 
98.920000000000002

>  <i_epik_Tot_Q>  (1087) 
1

>  <i_epik_Tot_abs_Q>  (1087) 
1

>  <i_f3d_flags>  (1087) 
0

>  <i_i_glide_confnum>  (1087) 
9

>  <i_i_glide_lignum>  (1087) 
1260

>  <i_i_glide_posenum>  (1087) 
4

>  <i_i_glide_rotatable_bonds>  (1087) 
13

>  <i_lp_mmshare_version>  (1087) 
65135

>  <i_m_ct_format>  (1087) 
2

>  <i_m_source_file_index>  (1087) 
2673

>  <i_qp_#NandO>  (1087) 
7

>  <i_qp_#acid>  (1087) 
0

>  <i_qp_#amide>  (1087) 
0

>  <i_qp_#amidine>  (1087) 
0

>  <i_qp_#amine>  (1087) 
1

>  <i_qp_#in34>  (1087) 
0

>  <i_qp_#in56>  (1087) 
22

>  <i_qp_#metab>  (1087) 
10

>  <i_qp_#nonHatm>  (1087) 
36

>  <i_qp_#noncon>  (1087) 
0

>  <i_qp_#ringatoms>  (1087) 
22

>  <i_qp_#rotor>  (1087) 
12

>  <i_qp_#rtvFG>  (1087) 
0

>  <i_qp_#stars>  (1087) 
3

>  <i_qp_CNS>  (1087) 
-2

>  <i_qp_HumanOralAbsorption>  (1087) 
1

>  <i_qp_RuleOfFive>  (1087) 
0

>  <i_qp_RuleOfThree>  (1087) 
1

>  <i_sd_BIOSOLVEIT.INFINISEE\_RESULT\_RANK>  (1087) 
49328

>  <i_sd_version>  (1087) 
0

>  <b_lp_Chiralities_Consistent>  (1087) 
1

>  <b_sd_chiral_flag>  (1087) 
0

>  <canonical_id>  (1087) 
ATP-HTVS-ADF1B73D9E23

>  <compound_code>  (1087) 
85507

>  <title>  (1087) 
rxn502b____EMOL502826____EMOL7515103____EMOL2868412

>  <variant>  (1087) 
85507-1

>  <source_file>  (1087) 
运行/运行/ATP-VSW/ATP-VSW-DOCK_HTVS_1-003_lib/ATP-VSW-DOCK_HTVS_1-003_lib.mae

>  <canonical_smiles>  (1087) 
CC[NH+](CC)Cc1ccc(CNc2cnc(NC(=O)Cc3ccc(O)c(O)c3)c3ccccc23)cc1

>  <scaffold>  (1087) 
O=C(Cc1ccccc1)Nc1ncc(NCc2ccccc2)c2ccccc12

>  <molecular_formula>  (1087) 
C29H33N4O3+

$$$$
ATP-HTVS-ADFEB0A5CD8C
     RDKit          3D

 51 54  0  0  0  0  0  0  0  0999 V2000
  202.7285  183.2545  160.7724 Br  0  0  0  0  0  0  0  0  0  0  0  0
  201.3120  184.2216  159.9447 C   0  0  0  0  0  0  0  0  0  0  0  0
  200.2224  183.5225  159.3986 C   0  0  0  0  0  0  0  0  0  0  0  0
  199.1577  184.2155  158.7835 C   0  0  0  0  0  0  0  0  0  0  0  0
  199.2393  185.6321  158.6680 C   0  0  0  0  0  0  0  0  0  0  0  0
  198.2160  186.4051  158.0599 N   0  0  0  0  0  0  0  0  0  0  0  0
  197.4935  186.0706  156.9853 C   0  0  0  0  0  0  0  0  0  0  0  0
  196.5093  186.7300  156.6593 O   0  0  0  0  0  0  0  0  0  0  0  0
  197.9207  184.8212  156.1823 C   0  0  1  0  0  0  0  0  0  0  0  0
  197.8349  183.4782  156.8409 N   0  0  0  0  0  0  0  0  0  0  0  0
  197.9060  183.4527  158.3081 C   0  0  2  0  0  0  0  0  0  0  0  0
  196.5947  183.8969  159.0114 C   0  0  0  0  0  0  0  0  0  0  0  0
  195.3386  183.5848  158.4521 C   0  0  0  0  0  0  0  0  0  0  0  0
  194.1637  184.1377  159.0039 C   0  0  0  0  0  0  0  0  0  0  0  0
  194.2180  185.0034  160.1091 C   0  0  0  0  0  0  0  0  0  0  0  0
  195.4596  185.3198  160.6643 C   0  0  0  0  0  0  0  0  0  0  0  0
  196.6265  184.7206  160.1520 C   0  0  0  0  0  0  0  0  0  0  0  0
  198.7379  182.5064  156.1943 C   0  0  1  0  0  0  0  0  0  0  0  0
  198.0534  181.1513  155.8954 C   0  0  2  0  0  0  0  0  0  0  0  0
  199.0553  180.1812  155.2654 C   0  0  0  0  0  0  0  0  0  0  0  0
  199.4503  179.0149  155.9583 C   0  0  0  0  0  0  0  0  0  0  0  0
  200.3636  178.1069  155.3873 C   0  0  0  0  0  0  0  0  0  0  0  0
  200.8975  178.3560  154.1099 C   0  0  0  0  0  0  0  0  0  0  0  0
  200.5099  179.5111  153.4052 C   0  0  0  0  0  0  0  0  0  0  0  0
  199.5940  180.4166  153.9782 C   0  0  0  0  0  0  0  0  0  0  0  0
  196.8073  181.2965  155.0027 C   0  0  2  0  0  0  0  0  0  0  0  0
  200.3006  186.3306  159.2777 C   0  0  0  0  0  0  0  0  0  0  0  0
  201.3410  185.6279  159.9069 C   0  0  0  0  0  0  0  0  0  0  0  0
  200.2054  182.4494  159.4656 H   0  0  0  0  0  0  0  0  0  0  0  0
  197.9162  187.2304  158.5540 H   0  0  0  0  0  0  0  0  0  0  0  0
  197.3695  184.7845  155.2408 H   0  0  0  0  0  0  0  0  0  0  0  0
  198.9619  185.0278  155.9257 H   0  0  0  0  0  0  0  0  0  0  0  0
  198.0109  182.4076  158.6097 H   0  0  0  0  0  0  0  0  0  0  0  0
  195.2704  183.0000  157.5426 H   0  0  0  0  0  0  0  0  0  0  0  0
  193.2223  183.9738  158.5029 H   0  0  0  0  0  0  0  0  0  0  0  0
  193.3313  185.4856  160.4866 H   0  0  0  0  0  0  0  0  0  0  0  0
  195.5475  186.0197  161.4767 H   0  0  0  0  0  0  0  0  0  0  0  0
  197.5464  184.9845  160.6461 H   0  0  0  0  0  0  0  0  0  0  0  0
  199.0925  182.9045  155.2456 H   0  0  0  0  0  0  0  0  0  0  0  0
  199.6380  182.3509  156.7876 H   0  0  0  0  0  0  0  0  0  0  0  0
  197.7266  180.7176  156.8405 H   0  0  0  0  0  0  0  0  0  0  0  0
  199.0482  178.8012  156.9343 H   0  0  0  0  0  0  0  0  0  0  0  0
  200.6534  177.2189  155.9320 H   0  0  0  0  0  0  0  0  0  0  0  0
  201.6005  177.6603  153.6720 H   0  0  0  0  0  0  0  0  0  0  0  0
  200.9190  179.7010  152.4224 H   0  0  0  0  0  0  0  0  0  0  0  0
  199.3091  181.2952  153.4210 H   0  0  0  0  0  0  0  0  0  0  0  0
  196.3439  180.3279  154.8291 H   0  0  0  0  0  0  0  0  0  0  0  0
  197.0392  181.7296  154.0313 H   0  0  0  0  0  0  0  0  0  0  0  0
  196.0453  181.9311  155.4603 H   0  0  0  0  0  0  0  0  0  0  0  0
  200.3016  187.4153  159.2817 H   0  0  0  0  0  0  0  0  0  0  0  0
  202.1442  186.1646  160.3747 H   0  0  0  0  0  0  0  0  0  0  0  0
  1  2  1  0
  2  3  2  0
  2 28  1  0
  3  4  1  0
  3 29  1  0
  4  5  2  0
  4 11  1  0
  5  6  1  0
  5 27  1  0
  6  7  1  0
  6 30  1  0
  7  8  2  0
  7  9  1  0
  9 10  1  0
  9 31  1  6
  9 32  1  0
 10 11  1  0
 10 18  1  0
 11 12  1  0
 11 33  1  6
 12 13  2  0
 12 17  1  0
 13 14  1  0
 13 34  1  0
 14 15  2  0
 14 35  1  0
 15 16  1  0
 15 36  1  0
 16 17  2  0
 16 37  1  0
 17 38  1  0
 18 19  1  0
 18 39  1  6
 18 40  1  0
 19 20  1  0
 19 26  1  0
 19 41  1  1
 20 21  2  0
 20 25  1  0
 21 22  1  0
 21 42  1  0
 22 23  2  0
 22 43  1  0
 23 24  1  0
 23 44  1  0
 24 25  2  0
 24 45  1  0
 25 46  1  0
 26 47  1  6
 26 48  1  0
 26 49  1  0
 27 28  2  0
 27 50  1  0
 28 51  1  0
M  END
>  <s_epik_cmdline>  (1088) 
J2VwaWtfcHl0aG9uJywgJy1waCcsICc3LjAwMDAwMCcsICctcGh0JywgJzIuMDAwMDAwJywgJy1tcycsICcxNicsICctdG4nLCAnOCcsICctbWEnLCAnMjAwJywgJy1pbWFlJywgJzxpbmZpbGUubWFlPicsICctb21hZScsICc8b3V0ZmlsZS5tYWU+Jw==

>  <s_epik_input>  (1088) 
QnJjKFtjSF0xKVtjSF1bY0hdYyhjMTIpW05IXUMoPU8pW0NIMl1OKFtDQEBIXTJjM1tjSF1bY0hdW2NIXVtjSF1bY0hdMylbQ0gyXVtDQEBIXShbQ0gzXSljNFtjSF1bY0hdW2NIXVtjSF1bY0hdNA==

>  <s_i_glide_gridfile>  (1088) 
ATP-Grid

>  <s_lp_Force_Field>  (1088) 
OPLS_2005

>  <s_lp_Variant>  (1088) 
m_2230bdc____17626620____22993900-3

>  <s_lp_label>  (1088) 
1749_sdstereoexpander_5_neutralizer_1_epik_1_stereoizer_1

>  <s_m_source_file>  (1088) 
ATP-VSW-LIGPREP-003-in.maegz

>  <s_sd_BIOSOLVEIT.INFINISEE\_QUERY\_NAME>  (1088) 
Ref-Lig

>  <s_sd_BIOSOLVEIT.INFINISEE\_QUERY\_SMILES>  (1088) 
S(c1nc2c(cc1C[NH2+]Cc3ccc(cc3)C[NH+](C)C)cccc2)Cc4ccccc4

>  <s_sd_BIOSOLVEIT.INFINISEE\_REACTION\_NAME>  (1088) 
m_2230bdc

>  <s_sd_BIOSOLVEIT.INFINISEE\_REAGENT1\_SMILES>  (1088) 
[R1*]N1C(c2c(NC(=O)C1)ccc(Br)c2)c3ccccc3

>  <s_sd_BIOSOLVEIT.INFINISEE\_REAGENT2\_SMILES>  (1088) 
[R1*]CC(c1ccccc1)C

>  <s_sd_BIOSOLVEIT.INFINISEE\_SPACE>  (1088) 
REALSpace_44bn_2023-08

>  <s_vsw_compound_code>  (1088) 
55939

>  <s_vsw_variant>  (1088) 
55939-3

>  <r_epik_Charging_Adjusted_Penalty>  (1088) 
0.023938139668873201

>  <r_epik_Ionization_Penalty>  (1088) 
0.023900000000000001

>  <r_epik_Ionization_Penalty_Charging>  (1088) 
0

>  <r_epik_Ionization_Penalty_Neutral>  (1088) 
0.023900000000000001

>  <r_epik_State_Penalty>  (1088) 
0.023900000000000001

>  <r_i_docking_score>  (1088) 
-1.2949661650248601

>  <r_i_glide_ecoul>  (1088) 
-1.3961920738220199

>  <r_i_glide_eff_state_penalty>  (1088) 
0.023900000000000001

>  <r_i_glide_einternal>  (1088) 
6.3784532546997097

>  <r_i_glide_emodel>  (1088) 
-28.807628474077401

>  <r_i_glide_energy>  (1088) 
-29.513385295867899

>  <r_i_glide_erotb>  (1088) 
0.42047334433657302

>  <r_i_glide_esite>  (1088) 
0

>  <r_i_glide_evdw>  (1088) 
-28.117193222045898

>  <r_i_glide_gscore>  (1088) 
-1.3188661650248601

>  <r_i_glide_hbond>  (1088) 
0

>  <r_i_glide_ligand_efficiency>  (1088) 
-0.046248791608030797

>  <r_i_glide_ligand_efficiency_ln>  (1088) 
-0.29891621274649699

>  <r_i_glide_ligand_efficiency_sa>  (1088) 
-0.140438570403532

>  <r_i_glide_lipo>  (1088) 
-1.4084365841459601

>  <r_i_glide_metal>  (1088) 
-0

>  <r_i_glide_rewards>  (1088) 
1.28438554696012

>  <r_lp_Energy>  (1088) 
38.993358999999998

>  <r_qp_ACxDN^.5/SA>  (1088) 
0.0066303999999999998

>  <r_qp_CIQPlogS>  (1088) 
-6.1799999999999997

>  <r_qp_EA(eV)>  (1088) 
0.57799999999999996

>  <r_qp_FISA>  (1088) 
67.054000000000002

>  <r_qp_FOSA>  (1088) 
108.23099999999999

>  <r_qp_IP(eV)>  (1088) 
9.0879999999999992

>  <r_qp_Jm>  (1088) 
0.00099321605655655295

>  <r_qp_PISA>  (1088) 
426.02499999999998

>  <r_qp_PSA>  (1088) 
41.095999999999997

>  <r_qp_PercentHumanOralAbsorption>  (1088) 
100

>  <r_qp_QPPCaco>  (1088) 
571.37800000000004

>  <r_qp_QPPMDCK>  (1088) 
793.15899999999999

>  <r_qp_QPlogBB>  (1088) 
0.31

>  <r_qp_QPlogHERG>  (1088) 
-7.1609999999999996

>  <r_qp_QPlogKhsa>  (1088) 
0.98999999999999999

>  <r_qp_QPlogKp>  (1088) 
-3.0289999999999999

>  <r_qp_QPlogPC16>  (1088) 
13.99

>  <r_qp_QPlogPo/w>  (1088) 
4.992

>  <r_qp_QPlogPoct>  (1088) 
19.536999999999999

>  <r_qp_QPlogPw>  (1088) 
9.9689999999999994

>  <r_qp_QPlogS>  (1088) 
-5.6130000000000004

>  <r_qp_QPpolrz>  (1088) 
45.622999999999998

>  <r_qp_SASA>  (1088) 
678.68700000000001

>  <r_qp_SAamideO>  (1088) 
0

>  <r_qp_SAfluorine>  (1088) 
0

>  <r_qp_WPSA>  (1088) 
77.376000000000005

>  <r_qp_accptHB>  (1088) 
4.5

>  <r_qp_dip^2/V>  (1088) 
0.0056759000000000002

>  <r_qp_dipole>  (1088) 
2.653

>  <r_qp_donorHB>  (1088) 
1

>  <r_qp_glob>  (1088) 
0.82256560000000001

>  <r_qp_mol_MW>  (1088) 
435.36200000000002

>  <r_qp_volume>  (1088) 
1240.26

>  <r_sd_BIOSOLVEIT.INFINISEE\_FTREES\_SIMILARITY>  (1088) 
0.90400000000000003

>  <r_sd_BIOSOLVEIT.LOGP>  (1088) 
4.1791999999999998

>  <r_sd_BIOSOLVEIT.MOLECULAR\_WEIGHT>  (1088) 
436.37099999999998

>  <r_sd_BIOSOLVEIT.TPSA>  (1088) 
33.539999999999999

>  <i_epik_Tot_Q>  (1088) 
0

>  <i_epik_Tot_abs_Q>  (1088) 
0

>  <i_f3d_flags>  (1088) 
0

>  <i_i_glide_confnum>  (1088) 
4

>  <i_i_glide_lignum>  (1088) 
650

>  <i_i_glide_posenum>  (1088) 
12

>  <i_i_glide_rotatable_bonds>  (1088) 
4

>  <i_lp_mmshare_version>  (1088) 
65135

>  <i_m_ct_format>  (1088) 
2

>  <i_m_source_file_index>  (1088) 
1749

>  <i_qp_#NandO>  (1088) 
3

>  <i_qp_#acid>  (1088) 
0

>  <i_qp_#amide>  (1088) 
0

>  <i_qp_#amidine>  (1088) 
0

>  <i_qp_#amine>  (1088) 
1

>  <i_qp_#in34>  (1088) 
0

>  <i_qp_#in56>  (1088) 
18

>  <i_qp_#metab>  (1088) 
7

>  <i_qp_#nonHatm>  (1088) 
28

>  <i_qp_#noncon>  (1088) 
2

>  <i_qp_#ringatoms>  (1088) 
23

>  <i_qp_#rotor>  (1088) 
3

>  <i_qp_#rtvFG>  (1088) 
0

>  <i_qp_#stars>  (1088) 
0

>  <i_qp_CNS>  (1088) 
1

>  <i_qp_HumanOralAbsorption>  (1088) 
3

>  <i_qp_RuleOfFive>  (1088) 
0

>  <i_qp_RuleOfThree>  (1088) 
1

>  <i_sd_BIOSOLVEIT.INFINISEE\_REAGENT1\_NAME>  (1088) 
17626620

>  <i_sd_BIOSOLVEIT.INFINISEE\_REAGENT2\_NAME>  (1088) 
22993900

>  <i_sd_BIOSOLVEIT.INFINISEE\_RESULT\_RANK>  (1088) 
74598

>  <i_sd_version>  (1088) 
0

>  <b_lp_Chiralities_Consistent>  (1088) 
1

>  <b_sd_chiral_flag>  (1088) 
0

>  <canonical_id>  (1088) 
ATP-HTVS-ADFEB0A5CD8C

>  <compound_code>  (1088) 
55939

>  <title>  (1088) 
m_2230bdc____17626620____22993900

>  <variant>  (1088) 
55939-3

>  <source_file>  (1088) 
运行/运行/ATP-VSW/ATP-VSW-DOCK_HTVS_1-003_lib/ATP-VSW-DOCK_HTVS_1-003_lib.mae

>  <canonical_smiles>  (1088) 
C[C@H](CN1CC(=O)Nc2ccc(Br)cc2[C@H]1c1ccccc1)c1ccccc1

>  <scaffold>  (1088) 
O=C1CN(CCc2ccccc2)C(c2ccccc2)c2ccccc2N1

>  <molecular_formula>  (1088) 
C24H23BrN2O

$$$$
ATP-HTVS-AE2593E94038
     RDKit          3D

 56 59  0  0  0  0  0  0  0  0999 V2000
  197.5472  183.4176  147.7650 F   0  0  0  0  0  0  0  0  0  0  0  0
  197.7400  183.8782  149.0213 C   0  0  0  0  0  0  0  0  0  0  0  0
  197.5543  183.0445  150.1493 C   0  0  0  0  0  0  0  0  0  0  0  0
  197.1474  181.6546  150.0157 C   0  0  0  0  0  0  0  0  0  0  0  0
  196.8257  180.5443  149.9242 N   0  0  0  0  0  0  0  0  0  0  0  0
  197.7684  183.5641  151.4409 C   0  0  0  0  0  0  0  0  0  0  0  0
  198.1467  184.9178  151.6244 C   0  0  0  0  0  0  0  0  0  0  0  0
  198.3482  185.7333  150.4869 C   0  0  0  0  0  0  0  0  0  0  0  0
  198.1368  185.2154  149.1962 C   0  0  0  0  0  0  0  0  0  0  0  0
  198.3605  185.4888  152.9983 C   0  0  0  0  0  0  0  0  0  0  0  0
  199.0531  186.4924  153.1637 O   0  0  0  0  0  0  0  0  0  0  0  0
  197.7354  184.8189  153.9819 N   0  0  0  0  0  0  0  0  0  0  0  0
  197.5332  185.1845  155.3398 C   0  0  0  0  0  0  0  0  0  0  0  0
  197.1661  184.1914  156.2845 C   0  0  0  0  0  0  0  0  0  0  0  0
  197.0555  182.7925  155.8640 C   0  0  0  0  0  0  0  0  0  0  0  0
  196.9906  181.6408  155.4618 C   0  0  0  0  0  0  0  0  0  0  0  0
  196.9637  180.2615  154.9379 C   0  0  1  0  0  0  0  0  0  0  0  0
  197.9127  179.4449  155.7329 N   0  0  1  0  0  0  0  0  0  0  0  0
  199.3502  179.6401  155.4306 C   0  0  2  0  0  0  0  0  0  0  0  0
  200.0141  178.3001  155.1450 C   0  0  0  0  0  0  0  0  0  0  0  0
  200.4736  177.4725  156.1949 C   0  0  0  0  0  0  0  0  0  0  0  0
  201.1080  176.2485  155.9156 C   0  0  0  0  0  0  0  0  0  0  0  0
  201.5581  175.4751  156.9306 F   0  0  0  0  0  0  0  0  0  0  0  0
  201.2767  175.8307  154.5829 C   0  0  0  0  0  0  0  0  0  0  0  0
  200.8145  176.6401  153.5261 C   0  0  0  0  0  0  0  0  0  0  0  0
  200.1882  177.8719  153.8062 C   0  0  0  0  0  0  0  0  0  0  0  0
  200.0510  180.4440  156.5419 C   0  0  2  0  0  0  0  0  0  0  0  0
  196.8821  184.5995  157.6167 C   0  0  0  0  0  0  0  0  0  0  0  0
  196.9403  185.9921  157.9246 C   0  0  0  0  0  0  0  0  0  0  0  0
  197.2744  186.9246  157.0104 N   0  0  0  0  0  0  0  0  0  0  0  0
  197.5688  186.5305  155.7605 C   0  0  0  0  0  0  0  0  0  0  0  0
  196.6347  186.4204  159.2287 C   0  0  0  0  0  0  0  0  0  0  0  0
  196.2810  185.4995  160.2236 C   0  0  0  0  0  0  0  0  0  0  0  0
  196.2231  184.1308  159.9273 C   0  0  0  0  0  0  0  0  0  0  0  0
  196.5163  183.6768  158.6301 C   0  0  0  0  0  0  0  0  0  0  0  0
  197.7274  179.5815  156.7194 H   0  0  0  0  0  0  0  0  0  0  0  0
  197.6191  182.9051  152.2868 H   0  0  0  0  0  0  0  0  0  0  0  0
  198.6498  186.7643  150.6006 H   0  0  0  0  0  0  0  0  0  0  0  0
  198.2818  185.8419  148.3294 H   0  0  0  0  0  0  0  0  0  0  0  0
  197.3076  183.9451  153.7133 H   0  0  0  0  0  0  0  0  0  0  0  0
  195.9521  179.8744  155.0585 H   0  0  0  0  0  0  0  0  0  0  0  0
  197.2116  180.2618  153.8726 H   0  0  0  0  0  0  0  0  0  0  0  0
  199.4540  180.2232  154.5105 H   0  0  0  0  0  0  0  0  0  0  0  0
  200.3535  177.7622  157.2280 H   0  0  0  0  0  0  0  0  0  0  0  0
  201.7621  174.8878  154.3718 H   0  0  0  0  0  0  0  0  0  0  0  0
  200.9490  176.3207  152.5037 H   0  0  0  0  0  0  0  0  0  0  0  0
  199.8504  178.4868  152.9837 H   0  0  0  0  0  0  0  0  0  0  0  0
  201.0996  180.6132  156.2982 H   0  0  0  0  0  0  0  0  0  0  0  0
  200.0048  179.9298  157.4994 H   0  0  0  0  0  0  0  0  0  0  0  0
  199.5918  181.4211  156.6843 H   0  0  0  0  0  0  0  0  0  0  0  0
  197.7734  187.3378  155.0747 H   0  0  0  0  0  0  0  0  0  0  0  0
  196.6904  187.4738  159.4662 H   0  0  0  0  0  0  0  0  0  0  0  0
  196.0673  185.8481  161.2242 H   0  0  0  0  0  0  0  0  0  0  0  0
  195.9622  183.4269  160.7030 H   0  0  0  0  0  0  0  0  0  0  0  0
  196.4495  182.6145  158.4381 H   0  0  0  0  0  0  0  0  0  0  0  0
  197.6984  178.4718  155.5733 H   0  0  0  0  0  0  0  0  0  0  0  0
  1  2  1  0
  2  3  2  0
  2  9  1  0
  3  4  1  0
  3  6  1  0
  4  5  3  0
  6  7  2  0
  6 37  1  0
  7  8  1  0
  7 10  1  0
  8  9  2  0
  8 38  1  0
  9 39  1  0
 10 11  2  0
 10 12  1  0
 12 13  1  0
 12 40  1  0
 13 14  2  0
 13 31  1  0
 14 15  1  0
 14 28  1  0
 15 16  3  0
 16 17  1  0
 17 18  1  0
 17 41  1  6
 17 42  1  0
 18 19  1  0
 18 36  1  1
 18 56  1  0
 19 20  1  0
 19 27  1  0
 19 43  1  6
 20 21  1  0
 20 26  2  0
 21 22  2  0
 21 44  1  0
 22 23  1  0
 22 24  1  0
 24 25  2  0
 24 45  1  0
 25 26  1  0
 25 46  1  0
 26 47  1  0
 27 48  1  6
 27 49  1  0
 27 50  1  0
 28 29  1  0
 28 35  2  0
 29 30  1  0
 29 32  2  0
 30 31  2  0
 31 51  1  0
 32 33  1  0
 32 52  1  0
 33 34  2  0
 33 53  1  0
 34 35  1  0
 34 54  1  0
 35 55  1  0
M  CHG  1  18   1
M  END
>  <s_epik_cmdline>  (1089) 
J2VwaWtfcHl0aG9uJywgJy1waCcsICc3LjAwMDAwMCcsICctcGh0JywgJzIuMDAwMDAwJywgJy1tcycsICcxNicsICctdG4nLCAnOCcsICctbWEnLCAnMjAwJywgJy1pbWFlJywgJzxpbmZpbGUubWFlPicsICctb21hZScsICc8b3V0ZmlsZS5tYWU+Jw==

>  <s_epik_input>  (1089) 
RmMxYyhDI04pW2NIXWMoW2NIXVtjSF0xKUMoPU8pW05IXWMoW2NIXW5jKGMyMylbY0hdW2NIXVtjSF1bY0hdMyljMkMjQ1tDSDJdW05IXVtDQEBIXShbQ0gzXSljNFtjSF1jKEYpW2NIXVtjSF1bY0hdNA==

>  <s_i_glide_gridfile>  (1089) 
ATP-Grid

>  <s_lp_Force_Field>  (1089) 
OPLS_2005

>  <s_lp_Variant>  (1089) 
rxn503b____EMOL908682____EMOL30488121____EMOL317509042-4

>  <s_lp_label>  (1089) 
3060_sdstereoexpander_2_neutralizer_1_epik_2_stereoizer_1

>  <s_m_source_file>  (1089) 
ATP-VSW-LIGPREP-002-in.maegz

>  <s_sd_BIOSOLVEIT.INFINISEE\_QUERY\_NAME>  (1089) 
Ref-Lig

>  <s_sd_BIOSOLVEIT.INFINISEE\_QUERY\_SMILES>  (1089) 
S(c1nc2c(cc1C[NH2+]Cc3ccc(cc3)C[NH+](C)C)cccc2)Cc4ccccc4

>  <s_sd_BIOSOLVEIT.INFINISEE\_REACTION\_NAME>  (1089) 
rxn503b

>  <s_sd_BIOSOLVEIT.INFINISEE\_REAGENT1\_NAME>  (1089) 
EMOL908682

>  <s_sd_BIOSOLVEIT.INFINISEE\_REAGENT1\_SMILES>  (1089) 
Fc1c(C#N)cc(cc1)C(=O)O

>  <s_sd_BIOSOLVEIT.INFINISEE\_REAGENT2\_NAME>  (1089) 
EMOL30488121

>  <s_sd_BIOSOLVEIT.INFINISEE\_REAGENT2\_SMILES>  (1089) 
Brc1c(N)cnc2c1cccc2

>  <s_sd_BIOSOLVEIT.INFINISEE\_REAGENT3\_NAME>  (1089) 
EMOL317509042

>  <s_sd_BIOSOLVEIT.INFINISEE\_REAGENT3\_SMILES>  (1089) 
Fc1cc(ccc1)C(NCC#C)C

>  <s_sd_BIOSOLVEIT.INFINISEE\_SPACE>  (1089) 
eXplore_7tr_2022-12

>  <s_vsw_compound_code>  (1089) 
97890

>  <s_vsw_variant>  (1089) 
97890-4

>  <r_epik_Charging_Adjusted_Penalty>  (1089) 
1.25515797441685

>  <r_epik_Ionization_Penalty>  (1089) 
0.62790000000000001

>  <r_epik_Ionization_Penalty_Charging>  (1089) 
0.62760000000000005

>  <r_epik_Ionization_Penalty_Neutral>  (1089) 
0.00029999999999999997

>  <r_epik_State_Penalty>  (1089) 
0.62760000000000005

>  <r_i_docking_score>  (1089) 
-4.6827595809583498

>  <r_i_glide_ecoul>  (1089) 
-7.0931320190429696

>  <r_i_glide_eff_state_penalty>  (1089) 
0.62760000000000005

>  <r_i_glide_einternal>  (1089) 
9.4648828506469709

>  <r_i_glide_emodel>  (1089) 
-62.650672149796499

>  <r_i_glide_energy>  (1089) 
-46.230918884277301

>  <r_i_glide_erotb>  (1089) 
0.646449634170433

>  <r_i_glide_esite>  (1089) 
-0.10000000000000001

>  <r_i_glide_evdw>  (1089) 
-39.137786865234403

>  <r_i_glide_gscore>  (1089) 
-5.3103595809583499

>  <r_i_glide_hbond>  (1089) 
-0.046336076124375299

>  <r_i_glide_ligand_efficiency>  (1089) 
-0.13379313088452399

>  <r_i_glide_ligand_efficiency_ln>  (1089) 
-1.02796965626975

>  <r_i_glide_ligand_efficiency_sa>  (1089) 
-0.43764620245235802

>  <r_i_glide_lipo>  (1089) 
-1.91324526893601

>  <r_i_glide_metal>  (1089) 
-0

>  <r_i_glide_rewards>  (1089) 
-0.87636872395023102

>  <r_lp_Energy>  (1089) 
28.448388999999999

>  <r_qp_ACxDN^.5/SA>  (1089) 
0.0120184

>  <r_qp_CIQPlogS>  (1089) 
-7.3070000000000004

>  <r_qp_EA(eV)>  (1089) 
1.4039999999999999

>  <r_qp_FISA>  (1089) 
103.91800000000001

>  <r_qp_FOSA>  (1089) 
110.75700000000001

>  <r_qp_IP(eV)>  (1089) 
8.8279999999999994

>  <r_qp_Jm>  (1089) 
9.8838883610977997e-05

>  <r_qp_PISA>  (1089) 
461.53699999999998

>  <r_qp_PSA>  (1089) 
83.572999999999993

>  <r_qp_PercentHumanOralAbsorption>  (1089) 
100

>  <r_qp_QPPCaco>  (1089) 
255.47399999999999

>  <r_qp_QPPMDCK>  (1089) 
383.04500000000002

>  <r_qp_QPlogBB>  (1089) 
-0.39300000000000002

>  <r_qp_QPlogHERG>  (1089) 
-7.7439999999999998

>  <r_qp_QPlogKhsa>  (1089) 
0.80000000000000004

>  <r_qp_QPlogKp>  (1089) 
-3.1030000000000002

>  <r_qp_QPlogPC16>  (1089) 
15.282999999999999

>  <r_qp_QPlogPo/w>  (1089) 
4.9279999999999999

>  <r_qp_QPlogPoct>  (1089) 
23.664000000000001

>  <r_qp_QPlogPw>  (1089) 
13.004

>  <r_qp_QPlogS>  (1089) 
-6.5709999999999997

>  <r_qp_QPpolrz>  (1089) 
49.753999999999998

>  <r_qp_SASA>  (1089) 
764.85900000000004

>  <r_qp_SAamideO>  (1089) 
0

>  <r_qp_SAfluorine>  (1089) 
88.647000000000006

>  <r_qp_WPSA>  (1089) 
88.647000000000006

>  <r_qp_accptHB>  (1089) 
6.5

>  <r_qp_dip^2/V>  (1089) 
0.0106777

>  <r_qp_dipole>  (1089) 
3.887

>  <r_qp_donorHB>  (1089) 
2

>  <r_qp_glob>  (1089) 
0.79701359999999999

>  <r_qp_mol_MW>  (1089) 
466.48899999999998

>  <r_qp_volume>  (1089) 
1415.2159999999999

>  <r_sd_BIOSOLVEIT.INFINISEE\_FTREES\_SIMILARITY>  (1089) 
0.90200000000000002

>  <r_sd_BIOSOLVEIT.LOGP>  (1089) 
4.3130800000000002

>  <r_sd_BIOSOLVEIT.MOLECULAR\_WEIGHT>  (1089) 
467.49700000000001

>  <r_sd_BIOSOLVEIT.TPSA>  (1089) 
82.390000000000001

>  <i_epik_Tot_Q>  (1089) 
1

>  <i_epik_Tot_abs_Q>  (1089) 
1

>  <i_f3d_flags>  (1089) 
0

>  <i_i_glide_confnum>  (1089) 
7

>  <i_i_glide_lignum>  (1089) 
111

>  <i_i_glide_posenum>  (1089) 
4

>  <i_i_glide_rotatable_bonds>  (1089) 
8

>  <i_lp_mmshare_version>  (1089) 
65135

>  <i_m_ct_format>  (1089) 
2

>  <i_m_source_file_index>  (1089) 
3060

>  <i_qp_#NandO>  (1089) 
5

>  <i_qp_#acid>  (1089) 
0

>  <i_qp_#amide>  (1089) 
0

>  <i_qp_#amidine>  (1089) 
0

>  <i_qp_#amine>  (1089) 
1

>  <i_qp_#in34>  (1089) 
0

>  <i_qp_#in56>  (1089) 
22

>  <i_qp_#metab>  (1089) 
5

>  <i_qp_#nonHatm>  (1089) 
35

>  <i_qp_#noncon>  (1089) 
0

>  <i_qp_#ringatoms>  (1089) 
22

>  <i_qp_#rotor>  (1089) 
8

>  <i_qp_#rtvFG>  (1089) 
0

>  <i_qp_#stars>  (1089) 
2

>  <i_qp_CNS>  (1089) 
1

>  <i_qp_HumanOralAbsorption>  (1089) 
1

>  <i_qp_RuleOfFive>  (1089) 
0

>  <i_qp_RuleOfThree>  (1089) 
1

>  <i_sd_BIOSOLVEIT.INFINISEE\_RESULT\_RANK>  (1089) 
91891

>  <i_sd_version>  (1089) 
0

>  <b_lp_Chiralities_Consistent>  (1089) 
1

>  <b_sd_chiral_flag>  (1089) 
0

>  <canonical_id>  (1089) 
ATP-HTVS-AE2593E94038

>  <compound_code>  (1089) 
97890

>  <title>  (1089) 
rxn503b____EMOL908682____EMOL30488121____EMOL317509042

>  <variant>  (1089) 
97890-4

>  <source_file>  (1089) 
运行/运行/ATP-VSW/ATP-VSW-DOCK_HTVS_1-003_lib/ATP-VSW-DOCK_HTVS_1-003_lib.mae

>  <canonical_smiles>  (1089) 
C[C@H]([NH2+]CC#Cc1c(NC(=O)c2ccc(F)c(C#N)c2)cnc2ccccc12)c1cccc(F)c1

>  <scaffold>  (1089) 
O=C(Nc1cnc2ccccc2c1C#CC[NH2+]Cc1ccccc1)c1ccccc1

>  <molecular_formula>  (1089) 
C28H21F2N4O+

$$$$
ATP-HTVS-AE73BF67DB9D
     RDKit          3D

 65 68  0  0  0  0  0  0  0  0999 V2000
  201.8208  180.9146  154.0911 O   0  0  0  0  0  0  0  0  0  0  0  0
  201.0226  181.0382  155.0182 C   0  0  0  0  0  0  0  0  0  0  0  0
  199.9852  180.2302  155.3479 N   0  0  0  0  0  0  0  0  0  0  0  0
  199.2592  180.6923  156.5600 C   0  0  1  0  0  0  0  0  0  0  0  0
  200.0439  181.9174  156.9567 C   0  0  0  0  0  0  0  0  0  0  0  0
  201.0559  182.1160  156.0385 C   0  0  0  0  0  0  0  0  0  0  0  0
  201.9336  183.2066  156.1456 C   0  0  0  0  0  0  0  0  0  0  0  0
  201.7323  184.1067  157.2180 C   0  0  0  0  0  0  0  0  0  0  0  0
  200.6814  183.9141  158.1464 C   0  0  0  0  0  0  0  0  0  0  0  0
  199.8221  182.8066  158.0219 C   0  0  0  0  0  0  0  0  0  0  0  0
  197.8027  181.0444  156.2226 C   0  0  1  0  0  0  0  0  0  0  0  0
  197.0000  181.4604  157.3831 N   0  0  1  0  0  0  0  0  0  0  0  0
  195.8271  182.2836  157.0360 C   0  0  1  0  0  0  0  0  0  0  0  0
  195.5897  183.3165  158.1174 C   0  0  0  0  0  0  0  0  0  0  0  0
  196.5989  184.2435  158.4450 C   0  0  0  0  0  0  0  0  0  0  0  0
  196.3799  185.2270  159.4295 C   0  0  0  0  0  0  0  0  0  0  0  0
  195.1277  185.3147  160.0758 C   0  0  0  0  0  0  0  0  0  0  0  0
  194.9568  186.3234  161.0022 O   0  0  0  0  0  0  0  0  0  0  0  0
  193.6328  186.6582  161.3945 C   0  0  2  0  0  0  0  0  0  0  0  0
  194.1202  184.3789  159.7335 C   0  0  0  0  0  0  0  0  0  0  0  0
  194.3514  183.3786  158.7767 C   0  0  0  0  0  0  0  0  0  0  0  0
  197.4868  186.2096  159.7737 C   0  0  1  0  0  0  0  0  0  0  0  0
  197.2426  187.5569  159.2021 N   0  0  2  0  0  0  0  0  0  0  0  0
  197.3236  187.5844  157.7223 C   0  0  2  0  0  0  0  0  0  0  0  0
  198.1025  188.5921  159.8211 C   0  0  2  0  0  0  0  0  0  0  0  0
  199.6812  178.9326  154.7124 C   0  0  1  0  0  0  0  0  0  0  0  0
  198.8286  179.0413  153.4422 C   0  0  0  0  0  0  0  0  0  0  0  0
  197.4557  179.4340  153.5190 C   0  0  0  0  0  0  0  0  0  0  0  0
  196.6856  179.5607  152.3435 C   0  0  0  0  0  0  0  0  0  0  0  0
  197.2341  179.2346  151.0879 C   0  0  0  0  0  0  0  0  0  0  0  0
  198.5707  178.7950  151.0235 C   0  0  0  0  0  0  0  0  0  0  0  0
  199.3829  178.7050  152.1747 C   0  0  0  0  0  0  0  0  0  0  0  0
  196.6458  180.5878  157.7890 H   0  0  0  0  0  0  0  0  0  0  0  0
  199.3055  179.9288  157.3422 H   0  0  0  0  0  0  0  0  0  0  0  0
  202.7349  183.3469  155.4402 H   0  0  0  0  0  0  0  0  0  0  0  0
  202.3896  184.9528  157.3388 H   0  0  0  0  0  0  0  0  0  0  0  0
  200.5384  184.6009  158.9636 H   0  0  0  0  0  0  0  0  0  0  0  0
  199.0233  182.6418  158.7278 H   0  0  0  0  0  0  0  0  0  0  0  0
  197.7695  181.7622  155.3863 H   0  0  0  0  0  0  0  0  0  0  0  0
  197.3058  180.1201  156.0513 H   0  0  0  0  0  0  0  0  0  0  0  0
  195.9697  182.7981  156.0821 H   0  0  0  0  0  0  0  0  0  0  0  0
  194.9556  181.6320  156.9258 H   0  0  0  0  0  0  0  0  0  0  0  0
  197.5436  184.2134  157.9267 H   0  0  0  0  0  0  0  0  0  0  0  0
  193.6643  187.4996  162.0845 H   0  0  0  0  0  0  0  0  0  0  0  0
  193.1288  185.8345  161.9071 H   0  0  0  0  0  0  0  0  0  0  0  0
  193.0291  186.9636  160.5369 H   0  0  0  0  0  0  0  0  0  0  0  0
  193.1543  184.3974  160.2080 H   0  0  0  0  0  0  0  0  0  0  0  0
  193.5646  182.6797  158.5328 H   0  0  0  0  0  0  0  0  0  0  0  0
  197.5401  186.2725  160.8600 H   0  0  0  0  0  0  0  0  0  0  0  0
  198.4536  185.8298  159.4408 H   0  0  0  0  0  0  0  0  0  0  0  0
  198.3332  187.3488  157.3814 H   0  0  0  0  0  0  0  0  0  0  0  0
  197.0581  188.5707  157.3408 H   0  0  0  0  0  0  0  0  0  0  0  0
  196.6364  186.8679  157.2718 H   0  0  0  0  0  0  0  0  0  0  0  0
  199.1589  188.3899  159.6351 H   0  0  0  0  0  0  0  0  0  0  0  0
  197.9482  188.6374  160.9005 H   0  0  0  0  0  0  0  0  0  0  0  0
  197.8707  189.5786  159.4180 H   0  0  0  0  0  0  0  0  0  0  0  0
  200.6202  178.3992  154.4914 H   0  0  0  0  0  0  0  0  0  0  0  0
  199.1669  178.2967  155.4403 H   0  0  0  0  0  0  0  0  0  0  0  0
  196.8953  179.5822  154.3859 H   0  0  0  0  0  0  0  0  0  0  0  0
  195.6651  179.8726  152.4731 H   0  0  0  0  0  0  0  0  0  0  0  0
  196.5884  179.3109  150.2184 H   0  0  0  0  0  0  0  0  0  0  0  0
  198.9747  178.5288  150.0548 H   0  0  0  0  0  0  0  0  0  0  0  0
  200.4100  178.3537  152.0977 H   0  0  0  0  0  0  0  0  0  0  0  0
  196.2921  187.7957  159.4512 H   0  0  0  0  0  0  0  0  0  0  0  0
  197.5827  181.9788  158.0260 H   0  0  0  0  0  0  0  0  0  0  0  0
  1  2  2  0
  2  3  1  0
  2  6  1  0
  3  4  1  0
  3 26  1  0
  4  5  1  0
  4 11  1  0
  4 34  1  1
  5  6  1  0
  5 10  2  0
  6  7  2  0
  7  8  1  0
  7 35  1  0
  8  9  2  0
  8 36  1  0
  9 10  1  0
  9 37  1  0
 10 38  1  0
 11 12  1  0
 11 39  1  6
 11 40  1  0
 12 13  1  0
 12 33  1  1
 12 65  1  0
 13 14  1  0
 13 41  1  6
 13 42  1  0
 14 15  2  0
 14 21  1  0
 15 16  1  0
 15 43  1  0
 16 17  2  0
 16 22  1  0
 17 18  1  0
 17 20  1  0
 18 19  1  0
 19 44  1  1
 19 45  1  0
 19 46  1  0
 20 21  2  0
 20 47  1  0
 21 48  1  0
 22 23  1  0
 22 49  1  1
 22 50  1  0
 23 24  1  0
 23 25  1  0
 23 64  1  6
 24 51  1  1
 24 52  1  0
 24 53  1  0
 25 54  1  1
 25 55  1  0
 25 56  1  0
 26 27  1  0
 26 57  1  6
 26 58  1  0
 27 28  2  0
 27 32  1  0
 28 29  1  0
 28 59  1  0
 29 30  2  0
 29 60  1  0
 30 31  1  0
 30 61  1  0
 31 32  2  0
 31 62  1  0
 32 63  1  0
M  CHG  2  12   1  23   1
M  END
>  <s_epik_cmdline>  (1090) 
J2VwaWtfcHl0aG9uJywgJy1waCcsICc3LjAwMDAwMCcsICctcGh0JywgJzIuMDAwMDAwJywgJy1tcycsICcxNicsICctdG4nLCAnOCcsICctbWEnLCAnMjAwJywgJy1pbWFlJywgJzxpbmZpbGUubWFlPicsICctb21hZScsICc8b3V0ZmlsZS5tYWU+Jw==

>  <s_epik_input>  (1090) 
W2NIXTFbY0hdW2NIXVtjSF1bY0hdYzFbQ0gyXU4oQyg9TyljKGMyMylbY0hdW2NIXVtjSF1bY0hdMylbQ0BASF0yW0NIMl1bTkhdW0NIMl1jNFtjSF1jKGMoT1tDSDNdKVtjSF1bY0hdNClbQ0gyXU4oW0NIM10pW0NIM10=

>  <s_i_glide_gridfile>  (1090) 
ATP-Grid

>  <s_lp_Force_Field>  (1090) 
OPLS_2005

>  <s_lp_Variant>  (1090) 
a4____241569____385177-2

>  <s_lp_label>  (1090) 
170_sdstereoexpander_2_neutralizer_1_epik_1_stereoizer_1

>  <s_m_source_file>  (1090) 
ATP-VSW-LIGPREP-002-in.maegz

>  <s_sd_BIOSOLVEIT.INFINISEE\_QUERY\_NAME>  (1090) 
Ref-Lig

>  <s_sd_BIOSOLVEIT.INFINISEE\_QUERY\_SMILES>  (1090) 
S(c1nc2c(cc1C[NH2+]Cc3ccc(cc3)C[NH+](C)C)cccc2)Cc4ccccc4

>  <s_sd_BIOSOLVEIT.INFINISEE\_REACTION\_NAME>  (1090) 
a4

>  <s_sd_BIOSOLVEIT.INFINISEE\_REAGENT1\_SMILES>  (1090) 
[R1*]NCC1N(C(=O)c2c1cccc2)Cc3ccccc3

>  <s_sd_BIOSOLVEIT.INFINISEE\_REAGENT2\_SMILES>  (1090) 
[R1*]Cc1cc(c(OC)cc1)CN(C)C

>  <s_sd_BIOSOLVEIT.INFINISEE\_SPACE>  (1090) 
FreedomSpace_5bn_2023-06

>  <s_vsw_compound_code>  (1090) 
5410

>  <s_vsw_variant>  (1090) 
5410-2

>  <r_epik_Charging_Adjusted_Penalty>  (1090) 
0.229494017934398

>  <r_epik_Ionization_Penalty>  (1090) 
0.1153

>  <r_epik_Ionization_Penalty_Charging>  (1090) 
0.1153

>  <r_epik_Ionization_Penalty_Neutral>  (1090) 
0

>  <r_epik_State_Penalty>  (1090) 
0.1142

>  <r_i_docking_score>  (1090) 
-5.2447905305966298

>  <r_i_glide_ecoul>  (1090) 
-12.659371376037599

>  <r_i_glide_eff_state_penalty>  (1090) 
0.1142

>  <r_i_glide_einternal>  (1090) 
6.3157253265380904

>  <r_i_glide_emodel>  (1090) 
-63.903116577248099

>  <r_i_glide_energy>  (1090) 
-43.498074531555197

>  <r_i_glide_erotb>  (1090) 
0.74757151002167699

>  <r_i_glide_esite>  (1090) 
-0.107994870083668

>  <r_i_glide_evdw>  (1090) 
-30.838703155517599

>  <r_i_glide_gscore>  (1090) 
-5.3589905305966301

>  <r_i_glide_hbond>  (1090) 
-0.20000000000000001

>  <r_i_glide_ligand_efficiency>  (1090) 
-0.16389970408114499

>  <r_i_glide_ligand_efficiency_ln>  (1090) 
-1.17445156739083

>  <r_i_glide_ligand_efficiency_sa>  (1090) 
-0.52034912475024098

>  <r_i_glide_lipo>  (1090) 
-1.6661568972622101

>  <r_i_glide_metal>  (1090) 
-0

>  <r_i_glide_rewards>  (1090) 
-0.69156940909090703

>  <r_lp_Energy>  (1090) 
52.866250999999998

>  <r_lp_tautomer_probability>  (1090) 
1

>  <r_qp_ACxDN^.5/SA>  (1090) 
0.0105872

>  <r_qp_CIQPlogS>  (1090) 
-4.1379999999999999

>  <r_qp_EA(eV)>  (1090) 
0.26200000000000001

>  <r_qp_FISA>  (1090) 
25.035

>  <r_qp_FOSA>  (1090) 
304.38

>  <r_qp_IP(eV)>  (1090) 
8.7910000000000004

>  <r_qp_Jm>  (1090) 
0.31086882614401901

>  <r_qp_PISA>  (1090) 
355.37200000000001

>  <r_qp_PSA>  (1090) 
48.665999999999997

>  <r_qp_PercentHumanOralAbsorption>  (1090) 
96.751999999999995

>  <r_qp_QPPCaco>  (1090) 
356.69400000000002

>  <r_qp_QPPMDCK>  (1090) 
198.69800000000001

>  <r_qp_QPlogBB>  (1090) 
0.59999999999999998

>  <r_qp_QPlogHERG>  (1090) 
-6.702

>  <r_qp_QPlogKhsa>  (1090) 
0.57499999999999996

>  <r_qp_QPlogKp>  (1090) 
-3.9900000000000002

>  <r_qp_QPlogPC16>  (1090) 
13.858000000000001

>  <r_qp_QPlogPo/w>  (1090) 
4.1200000000000001

>  <r_qp_QPlogPoct>  (1090) 
20.834

>  <r_qp_QPlogPw>  (1090) 
10.574999999999999

>  <r_qp_QPlogS>  (1090) 
-2.1499999999999999

>  <r_qp_QPpolrz>  (1090) 
46.652999999999999

>  <r_qp_SASA>  (1090) 
684.78700000000003

>  <r_qp_SAamideO>  (1090) 
0

>  <r_qp_SAfluorine>  (1090) 
0

>  <r_qp_WPSA>  (1090) 
0

>  <r_qp_accptHB>  (1090) 
7.25

>  <r_qp_dip^2/V>  (1090) 
0.0123543

>  <r_qp_dipole>  (1090) 
4.1280000000000001

>  <r_qp_donorHB>  (1090) 
1

>  <r_qp_glob>  (1090) 
0.87499819999999995

>  <r_qp_mol_MW>  (1090) 
429.56099999999998

>  <r_qp_volume>  (1090) 
1379.1030000000001

>  <r_sd_BIOSOLVEIT.INFINISEE\_FTREES\_SIMILARITY>  (1090) 
0.93999999999999995

>  <r_sd_BIOSOLVEIT.LOGP>  (1090) 
1.8004

>  <r_sd_BIOSOLVEIT.MOLECULAR\_WEIGHT>  (1090) 
431.577

>  <r_sd_BIOSOLVEIT.TPSA>  (1090) 
50.590000000000003

>  <i_epik_Tot_Q>  (1090) 
2

>  <i_epik_Tot_abs_Q>  (1090) 
2

>  <i_f3d_flags>  (1090) 
0

>  <i_i_glide_confnum>  (1090) 
9

>  <i_i_glide_lignum>  (1090) 
126

>  <i_i_glide_posenum>  (1090) 
12

>  <i_i_glide_rotatable_bonds>  (1090) 
9

>  <i_lp_mmshare_version>  (1090) 
65135

>  <i_m_ct_format>  (1090) 
2

>  <i_m_source_file_index>  (1090) 
170

>  <i_qp_#NandO>  (1090) 
5

>  <i_qp_#acid>  (1090) 
0

>  <i_qp_#amide>  (1090) 
0

>  <i_qp_#amidine>  (1090) 
0

>  <i_qp_#amine>  (1090) 
2

>  <i_qp_#in34>  (1090) 
0

>  <i_qp_#in56>  (1090) 
21

>  <i_qp_#metab>  (1090) 
7

>  <i_qp_#nonHatm>  (1090) 
32

>  <i_qp_#noncon>  (1090) 
1

>  <i_qp_#ringatoms>  (1090) 
21

>  <i_qp_#rotor>  (1090) 
9

>  <i_qp_#rtvFG>  (1090) 
0

>  <i_qp_#stars>  (1090) 
0

>  <i_qp_CNS>  (1090) 
2

>  <i_qp_HumanOralAbsorption>  (1090) 
3

>  <i_qp_RuleOfFive>  (1090) 
0

>  <i_qp_RuleOfThree>  (1090) 
1

>  <i_sd_BIOSOLVEIT.INFINISEE\_REAGENT1\_NAME>  (1090) 
241569

>  <i_sd_BIOSOLVEIT.INFINISEE\_REAGENT2\_NAME>  (1090) 
385177

>  <i_sd_BIOSOLVEIT.INFINISEE\_RESULT\_RANK>  (1090) 
1230

>  <i_sd_version>  (1090) 
0

>  <b_lp_Chiralities_Consistent>  (1090) 
1

>  <b_sd_chiral_flag>  (1090) 
0

>  <canonical_id>  (1090) 
ATP-HTVS-AE73BF67DB9D

>  <compound_code>  (1090) 
5410

>  <title>  (1090) 
a4____241569____385177

>  <variant>  (1090) 
5410-2

>  <source_file>  (1090) 
运行/运行/ATP-VSW/ATP-VSW-DOCK_HTVS_1-002_lib.maegz

>  <canonical_smiles>  (1090) 
COc1ccc(C[NH2+]C[C@@H]2c3ccccc3C(=O)N2Cc2ccccc2)cc1C[NH+](C)C

>  <scaffold>  (1090) 
O=C1c2ccccc2C(C[NH2+]Cc2ccccc2)N1Cc1ccccc1

>  <molecular_formula>  (1090) 
C27H33N3O2+2

$$$$
ATP-HTVS-AE7F15E1977E
     RDKit          3D

 65 68  0  0  0  0  0  0  0  0999 V2000
  195.4231  185.9601  160.5272 Cl  0  0  0  0  0  0  0  0  0  0  0  0
  195.4709  184.5503  159.5244 C   0  0  0  0  0  0  0  0  0  0  0  0
  196.6508  184.0315  158.9053 C   0  0  0  0  0  0  0  0  0  0  0  0
  196.5383  182.8661  158.1159 C   0  0  0  0  0  0  0  0  0  0  0  0
  195.2996  182.2258  157.9353 C   0  0  0  0  0  0  0  0  0  0  0  0
  194.1466  182.7436  158.5300 C   0  0  0  0  0  0  0  0  0  0  0  0
  194.2365  183.8950  159.3319 C   0  0  0  0  0  0  0  0  0  0  0  0
  197.7277  182.3213  157.4691 C   0  0  0  0  0  0  0  0  0  0  0  0
  198.9452  182.8976  157.6008 C   0  0  0  0  0  0  0  0  0  0  0  0
  199.0846  184.0759  158.4055 N   0  0  0  0  0  0  0  0  0  0  0  0
  200.3680  184.6913  158.5731 C   0  0  0  0  0  0  0  0  0  0  0  0
  201.4156  184.0119  159.2346 C   0  0  0  0  0  0  0  0  0  0  0  0
  202.6848  184.6145  159.3610 C   0  0  0  0  0  0  0  0  0  0  0  0
  202.9054  185.9136  158.8630 C   0  0  0  0  0  0  0  0  0  0  0  0
  201.8609  186.6079  158.2267 C   0  0  0  0  0  0  0  0  0  0  0  0
  200.5996  185.9987  158.0788 C   0  0  0  0  0  0  0  0  0  0  0  0
  198.0211  184.6728  159.0360 C   0  0  0  0  0  0  0  0  0  0  0  0
  198.1499  185.7051  159.6956 O   0  0  0  0  0  0  0  0  0  0  0  0
  200.1968  182.3209  156.8997 C   0  0  1  0  0  0  0  0  0  0  0  0
  199.9794  180.9793  156.3608 N   0  0  0  0  0  0  0  0  0  0  0  0
  201.1975  180.3290  155.8972 C   0  0  1  0  0  0  0  0  0  0  0  0
  200.9105  179.0348  155.1723 C   0  0  0  0  0  0  0  0  0  0  0  0
  200.2567  179.0592  153.9233 C   0  0  0  0  0  0  0  0  0  0  0  0
  199.9647  177.8594  153.2390 C   0  0  0  0  0  0  0  0  0  0  0  0
  199.2860  177.9714  152.0497 O   0  0  0  0  0  0  0  0  0  0  0  0
  198.9443  176.8022  151.3148 C   0  0  1  0  0  0  0  0  0  0  0  0
  200.0769  176.4812  150.3164 C   0  0  1  0  0  0  0  0  0  0  0  0
  199.7078  175.4391  149.3271 N   0  0  1  0  0  0  0  0  0  0  0  0
  198.5952  175.8307  148.4281 C   0  0  2  0  0  0  0  0  0  0  0  0
  200.8815  174.9671  148.5561 C   0  0  2  0  0  0  0  0  0  0  0  0
  200.3652  176.6286  153.8152 C   0  0  0  0  0  0  0  0  0  0  0  0
  201.0215  176.6092  155.0629 C   0  0  0  0  0  0  0  0  0  0  0  0
  201.2900  177.8087  155.7424 C   0  0  0  0  0  0  0  0  0  0  0  0
  200.6900  183.2419  155.7588 C   0  0  2  0  0  0  0  0  0  0  0  0
  199.5951  180.4013  157.0926 H   0  0  0  0  0  0  0  0  0  0  0  0
  195.2256  181.3521  157.3159 H   0  0  0  0  0  0  0  0  0  0  0  0
  193.1976  182.2551  158.3808 H   0  0  0  0  0  0  0  0  0  0  0  0
  193.3410  184.2946  159.7937 H   0  0  0  0  0  0  0  0  0  0  0  0
  197.5676  181.4428  156.8599 H   0  0  0  0  0  0  0  0  0  0  0  0
  201.2584  183.0228  159.6392 H   0  0  0  0  0  0  0  0  0  0  0  0
  203.4895  184.0726  159.8350 H   0  0  0  0  0  0  0  0  0  0  0  0
  203.8763  186.3753  158.9676 H   0  0  0  0  0  0  0  0  0  0  0  0
  202.0257  187.6057  157.8442 H   0  0  0  0  0  0  0  0  0  0  0  0
  199.8096  186.5410  157.5773 H   0  0  0  0  0  0  0  0  0  0  0  0
  200.9856  182.1761  157.6327 H   0  0  0  0  0  0  0  0  0  0  0  0
  201.7306  180.9747  155.1985 H   0  0  0  0  0  0  0  0  0  0  0  0
  201.8620  180.1352  156.7480 H   0  0  0  0  0  0  0  0  0  0  0  0
  199.9703  180.0065  153.4837 H   0  0  0  0  0  0  0  0  0  0  0  0
  198.7120  175.9314  151.9333 H   0  0  0  0  0  0  0  0  0  0  0  0
  198.0205  177.0650  150.7966 H   0  0  0  0  0  0  0  0  0  0  0  0
  200.3820  177.3827  149.7845 H   0  0  0  0  0  0  0  0  0  0  0  0
  200.9593  176.1553  150.8719 H   0  0  0  0  0  0  0  0  0  0  0  0
  198.8510  176.7282  147.8618 H   0  0  0  0  0  0  0  0  0  0  0  0
  197.6673  176.0192  148.9700 H   0  0  0  0  0  0  0  0  0  0  0  0
  198.3782  175.0370  147.7114 H   0  0  0  0  0  0  0  0  0  0  0  0
  201.3049  175.7753  147.9583 H   0  0  0  0  0  0  0  0  0  0  0  0
  200.5993  174.1565  147.8828 H   0  0  0  0  0  0  0  0  0  0  0  0
  201.6608  174.5856  149.2179 H   0  0  0  0  0  0  0  0  0  0  0  0
  200.1852  175.6804  153.3314 H   0  0  0  0  0  0  0  0  0  0  0  0
  201.3161  175.6637  155.5005 H   0  0  0  0  0  0  0  0  0  0  0  0
  201.8001  177.7861  156.6937 H   0  0  0  0  0  0  0  0  0  0  0  0
  200.8503  184.2685  156.0868 H   0  0  0  0  0  0  0  0  0  0  0  0
  199.9443  183.2927  154.9683 H   0  0  0  0  0  0  0  0  0  0  0  0
  201.6303  182.8869  155.3266 H   0  0  0  0  0  0  0  0  0  0  0  0
  199.4018  174.6186  149.8423 H   0  0  0  0  0  0  0  0  0  0  0  0
  1  2  1  0
  2  3  2  0
  2  7  1  0
  3  4  1  0
  3 17  1  0
  4  5  2  0
  4  8  1  0
  5  6  1  0
  5 36  1  0
  6  7  2  0
  6 37  1  0
  7 38  1  0
  8  9  2  0
  8 39  1  0
  9 10  1  0
  9 19  1  0
 10 11  1  0
 10 17  1  0
 11 12  2  0
 11 16  1  0
 12 13  1  0
 12 40  1  0
 13 14  2  0
 13 41  1  0
 14 15  1  0
 14 42  1  0
 15 16  2  0
 15 43  1  0
 16 44  1  0
 17 18  2  0
 19 20  1  0
 19 34  1  0
 19 45  1  1
 20 21  1  0
 20 35  1  0
 21 22  1  0
 21 46  1  6
 21 47  1  0
 22 23  1  0
 22 33  2  0
 23 24  2  0
 23 48  1  0
 24 25  1  0
 24 31  1  0
 25 26  1  0
 26 27  1  0
 26 49  1  1
 26 50  1  0
 27 28  1  0
 27 51  1  6
 27 52  1  0
 28 29  1  0
 28 30  1  0
 28 65  1  1
 29 53  1  6
 29 54  1  0
 29 55  1  0
 30 56  1  6
 30 57  1  0
 30 58  1  0
 31 32  2  0
 31 59  1  0
 32 33  1  0
 32 60  1  0
 33 61  1  0
 34 62  1  1
 34 63  1  0
 34 64  1  0
M  CHG  1  28   1
M  END
>  <s_epik_cmdline>  (1091) 
J2VwaWtfcHl0aG9uJywgJy1waCcsICc3LjAwMDAwMCcsICctcGh0JywgJzIuMDAwMDAwJywgJy1tcycsICcxNicsICctdG4nLCAnOCcsICctbWEnLCAnMjAwJywgJy1pbWFlJywgJzxpbmZpbGUubWFlPicsICctb21hZScsICc8b3V0ZmlsZS5tYWU+Jw==

>  <s_epik_input>  (1091) 
Q2xjMVtjSF1bY0hdW2NIXWMoYzEyKVtjSF1jKG4oYzI9TyktYzNbY0hdW2NIXVtjSF1bY0hdW2NIXTMpW0NASF0oW0NIM10pW05IXVtDSDJdYzRbY0hdYyhbY0hdW2NIXVtjSF00KU9bQ0gyXVtDSDJdTihbQ0gzXSlbQ0gzXQ==

>  <s_i_glide_gridfile>  (1091) 
ATP-Grid

>  <s_lp_Force_Field>  (1091) 
OPLS_2005

>  <s_lp_Variant>  (1091) 
a4____33703____182810-4

>  <s_lp_label>  (1091) 
181_sdstereoexpander_2_neutralizer_1_epik_2_stereoizer_1

>  <s_m_source_file>  (1091) 
ATP-VSW-LIGPREP-001-in.maegz

>  <s_sd_BIOSOLVEIT.INFINISEE\_QUERY\_NAME>  (1091) 
Ref-Lig

>  <s_sd_BIOSOLVEIT.INFINISEE\_QUERY\_SMILES>  (1091) 
S(c1nc2c(cc1C[NH2+]Cc3ccc(cc3)C[NH+](C)C)cccc2)Cc4ccccc4

>  <s_sd_BIOSOLVEIT.INFINISEE\_REACTION\_NAME>  (1091) 
a4

>  <s_sd_BIOSOLVEIT.INFINISEE\_REAGENT1\_SMILES>  (1091) 
[R1*]NC(C=1N(c2ccccc2)C(=O)c3c(Cl)cccc3C1)C

>  <s_sd_BIOSOLVEIT.INFINISEE\_REAGENT2\_SMILES>  (1091) 
[R1*]Cc1cc(OCCN(C)C)ccc1

>  <s_sd_BIOSOLVEIT.INFINISEE\_SPACE>  (1091) 
FreedomSpace_5bn_2023-06

>  <s_vsw_compound_code>  (1091) 
5761

>  <s_vsw_variant>  (1091) 
5761-4

>  <r_epik_Charging_Adjusted_Penalty>  (1091) 
0.76959808262565899

>  <r_epik_Ionization_Penalty>  (1091) 
0.74480000000000002

>  <r_epik_Ionization_Penalty_Charging>  (1091) 
0.024799999999999999

>  <r_epik_Ionization_Penalty_Neutral>  (1091) 
0.71999999999999997

>  <r_epik_State_Penalty>  (1091) 
0.74480000000000002

>  <r_i_docking_score>  (1091) 
-2.78181395560203

>  <r_i_glide_ecoul>  (1091) 
-5.7615447044372603

>  <r_i_glide_eff_state_penalty>  (1091) 
0.74480000000000002

>  <r_i_glide_einternal>  (1091) 
3.4843184947967498

>  <r_i_glide_emodel>  (1091) 
-48.190224943747502

>  <r_i_glide_energy>  (1091) 
-39.867085933685303

>  <r_i_glide_erotb>  (1091) 
0.71208697276822996

>  <r_i_glide_esite>  (1091) 
0

>  <r_i_glide_evdw>  (1091) 
-34.105541229247997

>  <r_i_glide_gscore>  (1091) 
-3.5266139556020302

>  <r_i_glide_hbond>  (1091) 
0

>  <r_i_glide_ligand_efficiency>  (1091) 
-0.081818057517706794

>  <r_i_glide_ligand_efficiency_ln>  (1091) 
-0.61458073003098501

>  <r_i_glide_ligand_efficiency_sa>  (1091) 
-0.265058744380399

>  <r_i_glide_lipo>  (1091) 
-1.45459815457214

>  <r_i_glide_metal>  (1091) 
-0

>  <r_i_glide_rewards>  (1091) 
-0.21459400667013401

>  <r_lp_Energy>  (1091) 
56.991719000000003

>  <r_lp_tautomer_probability>  (1091) 
1

>  <r_qp_ACxDN^.5/SA>  (1091) 
0.0093057000000000001

>  <r_qp_CIQPlogS>  (1091) 
-5.2089999999999996

>  <r_qp_EA(eV)>  (1091) 
0.53800000000000003

>  <r_qp_FISA>  (1091) 
41.537999999999997

>  <r_qp_FOSA>  (1091) 
299.25900000000001

>  <r_qp_IP(eV)>  (1091) 
8.6219999999999999

>  <r_qp_Jm>  (1091) 
0.00137272381007702

>  <r_qp_PISA>  (1091) 
378.69099999999997

>  <r_qp_PSA>  (1091) 
50.976999999999997

>  <r_qp_PercentHumanOralAbsorption>  (1091) 
100

>  <r_qp_QPPCaco>  (1091) 
248.768

>  <r_qp_QPPMDCK>  (1091) 
285.45600000000002

>  <r_qp_QPlogBB>  (1091) 
0.59399999999999997

>  <r_qp_QPlogHERG>  (1091) 
-7.9969999999999999

>  <r_qp_QPlogKhsa>  (1091) 
0.81999999999999995

>  <r_qp_QPlogKp>  (1091) 
-4.3079999999999998

>  <r_qp_QPlogPC16>  (1091) 
15.486000000000001

>  <r_qp_QPlogPo/w>  (1091) 
4.7850000000000001

>  <r_qp_QPlogPoct>  (1091) 
22.699000000000002

>  <r_qp_QPlogPw>  (1091) 
11.314

>  <r_qp_QPlogS>  (1091) 
-4.2320000000000002

>  <r_qp_QPpolrz>  (1091) 
51.081000000000003

>  <r_qp_SASA>  (1091) 
779.09100000000001

>  <r_qp_SAamideO>  (1091) 
0

>  <r_qp_SAfluorine>  (1091) 
0

>  <r_qp_WPSA>  (1091) 
59.603000000000002

>  <r_qp_accptHB>  (1091) 
7.25

>  <r_qp_dip^2/V>  (1091) 
0.022657199999999999

>  <r_qp_dipole>  (1091) 
5.7679999999999998

>  <r_qp_donorHB>  (1091) 
1

>  <r_qp_glob>  (1091) 
0.801844

>  <r_qp_mol_MW>  (1091) 
476.017

>  <r_qp_volume>  (1091) 
1468.1469999999999

>  <r_sd_BIOSOLVEIT.INFINISEE\_FTREES\_SIMILARITY>  (1091) 
0.92700000000000005

>  <r_sd_BIOSOLVEIT.LOGP>  (1091) 
2.992

>  <r_sd_BIOSOLVEIT.MOLECULAR\_WEIGHT>  (1091) 
478.03300000000002

>  <r_sd_BIOSOLVEIT.TPSA>  (1091) 
52.280000000000001

>  <i_epik_Tot_Q>  (1091) 
1

>  <i_epik_Tot_abs_Q>  (1091) 
1

>  <i_f3d_flags>  (1091) 
0

>  <i_i_glide_confnum>  (1091) 
12

>  <i_i_glide_lignum>  (1091) 
38

>  <i_i_glide_posenum>  (1091) 
9

>  <i_i_glide_rotatable_bonds>  (1091) 
9

>  <i_lp_mmshare_version>  (1091) 
65135

>  <i_m_ct_format>  (1091) 
2

>  <i_m_source_file_index>  (1091) 
181

>  <i_qp_#NandO>  (1091) 
5

>  <i_qp_#acid>  (1091) 
0

>  <i_qp_#amide>  (1091) 
0

>  <i_qp_#amidine>  (1091) 
0

>  <i_qp_#amine>  (1091) 
2

>  <i_qp_#in34>  (1091) 
0

>  <i_qp_#in56>  (1091) 
22

>  <i_qp_#metab>  (1091) 
5

>  <i_qp_#nonHatm>  (1091) 
34

>  <i_qp_#noncon>  (1091) 
0

>  <i_qp_#ringatoms>  (1091) 
22

>  <i_qp_#rotor>  (1091) 
8

>  <i_qp_#rtvFG>  (1091) 
0

>  <i_qp_#stars>  (1091) 
0

>  <i_qp_CNS>  (1091) 
2

>  <i_qp_HumanOralAbsorption>  (1091) 
3

>  <i_qp_RuleOfFive>  (1091) 
0

>  <i_qp_RuleOfThree>  (1091) 
0

>  <i_sd_BIOSOLVEIT.INFINISEE\_REAGENT1\_NAME>  (1091) 
33703

>  <i_sd_BIOSOLVEIT.INFINISEE\_REAGENT2\_NAME>  (1091) 
182810

>  <i_sd_BIOSOLVEIT.INFINISEE\_RESULT\_RANK>  (1091) 
6801

>  <i_sd_version>  (1091) 
0

>  <b_lp_Chiralities_Consistent>  (1091) 
1

>  <b_sd_chiral_flag>  (1091) 
0

>  <canonical_id>  (1091) 
ATP-HTVS-AE7F15E1977E

>  <compound_code>  (1091) 
5761

>  <title>  (1091) 
a4____33703____182810

>  <variant>  (1091) 
5761-4

>  <source_file>  (1091) 
运行/运行/ATP-VSW/ATP-VSW-DOCK_HTVS_1-001_lib/ATP-VSW-DOCK_HTVS_1-001_lib

>  <canonical_smiles>  (1091) 
C[C@H](NCc1cccc(OCC[NH+](C)C)c1)c1cc2cccc(Cl)c2c(=O)n1-c1ccccc1

>  <scaffold>  (1091) 
O=c1c2ccccc2cc(CNCc2ccccc2)n1-c1ccccc1

>  <molecular_formula>  (1091) 
C28H31ClN3O2+

$$$$
ATP-HTVS-AE8349DE7653
     RDKit          3D

 55 58  0  0  0  0  0  0  0  0999 V2000
  200.9881  174.3128  151.8321 S   0  0  0  0  0  0  0  0  0  0  0  0
  201.7097  174.3913  153.4242 C   0  0  0  0  0  0  0  0  0  0  0  0
  202.4821  173.3677  153.9036 N   0  0  0  0  0  0  0  0  0  0  0  0
  202.9659  173.5332  155.1497 C   0  0  0  0  0  0  0  0  0  0  0  0
  202.7195  174.6674  155.9383 C   0  0  0  0  0  0  0  0  0  0  0  0
  201.9225  175.7074  155.4185 C   0  0  0  0  0  0  0  0  0  0  0  0
  201.3762  175.6089  154.1058 C   0  0  0  0  0  0  0  0  0  0  0  0
  200.5240  176.4608  153.2716 C   0  0  0  0  0  0  0  0  0  0  0  0
  199.9816  177.7025  153.6637 N   0  0  0  0  0  0  0  0  0  0  0  0
  200.4203  178.5713  154.7436 C   0  0  1  0  0  0  0  0  0  0  0  0
  199.3693  179.5504  155.2189 C   0  0  0  0  0  0  0  0  0  0  0  0
  198.0274  179.4442  154.7944 C   0  0  0  0  0  0  0  0  0  0  0  0
  197.0557  180.3204  155.2986 C   0  0  0  0  0  0  0  0  0  0  0  0
  197.4109  181.3136  156.2334 C   0  0  0  0  0  0  0  0  0  0  0  0
  198.7503  181.4182  156.6656 C   0  0  0  0  0  0  0  0  0  0  0  0
  199.7227  180.5332  156.1658 C   0  0  0  0  0  0  0  0  0  0  0  0
  196.3465  182.2622  156.7380 C   0  0  1  0  0  0  0  0  0  0  0  0
  195.7936  181.8379  158.0460 N   0  0  2  0  0  0  0  0  0  0  0  0
  194.3276  182.0018  158.1383 C   0  0  2  0  0  0  0  0  0  0  0  0
  196.4785  182.4832  159.1870 C   0  0  2  0  0  0  0  0  0  0  0  0
  200.2697  175.8874  152.0412 C   0  0  0  0  0  0  0  0  0  0  0  0
  199.4516  176.3768  150.9028 C   0  0  0  0  0  0  0  0  0  0  0  0
  198.3737  176.9344  151.1225 O   0  0  0  0  0  0  0  0  0  0  0  0
  199.9999  176.2497  149.6766 N   0  0  0  0  0  0  0  0  0  0  0  0
  199.5750  176.7901  148.4270 C   0  0  0  0  0  0  0  0  0  0  0  0
  200.5207  176.7964  147.3795 C   0  0  0  0  0  0  0  0  0  0  0  0
  201.7665  176.3020  147.5879 F   0  0  0  0  0  0  0  0  0  0  0  0
  200.1854  177.3224  146.1143 C   0  0  0  0  0  0  0  0  0  0  0  0
  198.9006  177.8473  145.8862 C   0  0  0  0  0  0  0  0  0  0  0  0
  197.9492  177.8421  146.9216 C   0  0  0  0  0  0  0  0  0  0  0  0
  198.2803  177.3161  148.1860 C   0  0  0  0  0  0  0  0  0  0  0  0
  203.5749  172.7284  155.5353 H   0  0  0  0  0  0  0  0  0  0  0  0
  203.1311  174.7548  156.9358 H   0  0  0  0  0  0  0  0  0  0  0  0
  201.7539  176.5655  156.0604 H   0  0  0  0  0  0  0  0  0  0  0  0
  199.2121  178.0406  153.1072 H   0  0  0  0  0  0  0  0  0  0  0  0
  200.6700  177.9993  155.6445 H   0  0  0  0  0  0  0  0  0  0  0  0
  201.3173  179.1171  154.4272 H   0  0  0  0  0  0  0  0  0  0  0  0
  197.6876  178.6764  154.1182 H   0  0  0  0  0  0  0  0  0  0  0  0
  196.0328  180.2143  154.9611 H   0  0  0  0  0  0  0  0  0  0  0  0
  199.0401  182.1741  157.3853 H   0  0  0  0  0  0  0  0  0  0  0  0
  200.7366  180.5846  156.5336 H   0  0  0  0  0  0  0  0  0  0  0  0
  196.7436  183.2794  156.7630 H   0  0  0  0  0  0  0  0  0  0  0  0
  195.5639  182.2483  155.9832 H   0  0  0  0  0  0  0  0  0  0  0  0
  194.0459  183.0503  158.0269 H   0  0  0  0  0  0  0  0  0  0  0  0
  193.9532  181.6295  159.0955 H   0  0  0  0  0  0  0  0  0  0  0  0
  193.8394  181.4279  157.3520 H   0  0  0  0  0  0  0  0  0  0  0  0
  196.3830  183.5694  159.1390 H   0  0  0  0  0  0  0  0  0  0  0  0
  197.5411  182.2356  159.2120 H   0  0  0  0  0  0  0  0  0  0  0  0
  196.0233  182.1704  160.1248 H   0  0  0  0  0  0  0  0  0  0  0  0
  200.9097  175.8106  149.6566 H   0  0  0  0  0  0  0  0  0  0  0  0
  200.9033  177.3113  145.3069 H   0  0  0  0  0  0  0  0  0  0  0  0
  198.6398  178.2237  144.9070 H   0  0  0  0  0  0  0  0  0  0  0  0
  196.9555  178.2264  146.7453 H   0  0  0  0  0  0  0  0  0  0  0  0
  197.5141  177.3285  148.9428 H   0  0  0  0  0  0  0  0  0  0  0  0
  195.9331  180.8207  158.0901 H   0  0  0  0  0  0  0  0  0  0  0  0
  1  2  1  0
  1 21  1  0
  2  3  1  0
  2  7  2  0
  3  4  2  0
  4  5  1  0
  4 32  1  0
  5  6  2  0
  5 33  1  0
  6  7  1  0
  6 34  1  0
  7  8  1  0
  8  9  1  0
  8 21  2  0
  9 10  1  0
  9 35  1  0
 10 11  1  0
 10 36  1  1
 10 37  1  0
 11 12  1  0
 11 16  2  0
 12 13  2  0
 12 38  1  0
 13 14  1  0
 13 39  1  0
 14 15  2  0
 14 17  1  0
 15 16  1  0
 15 40  1  0
 16 41  1  0
 17 18  1  0
 17 42  1  1
 17 43  1  0
 18 19  1  0
 18 20  1  0
 18 55  1  1
 19 44  1  6
 19 45  1  0
 19 46  1  0
 20 47  1  6
 20 48  1  0
 20 49  1  0
 21 22  1  0
 22 23  2  0
 22 24  1  0
 24 25  1  0
 24 50  1  0
 25 26  1  0
 25 31  2  0
 26 27  1  0
 26 28  2  0
 28 29  1  0
 28 51  1  0
 29 30  2  0
 29 52  1  0
 30 31  1  0
 30 53  1  0
 31 54  1  0
M  CHG  1  18   1
M  END
>  <s_epik_cmdline>  (1092) 
J2VwaWtfcHl0aG9uJywgJy1waCcsICc3LjAwMDAwMCcsICctcGh0JywgJzIuMDAwMDAwJywgJy1tcycsICcxNicsICctdG4nLCAnOCcsICctbWEnLCAnMjAwJywgJy1pbWFlJywgJzxpbmZpbGUubWFlPicsICctb21hZScsICc8b3V0ZmlsZS5tYWU+Jw==

>  <s_epik_input>  (1092) 
W2NIXTFbY0hdW2NIXVtjSF1jKEYpYzFbTkhdQyg9TyljKHMyKWMoYyhjMjMpW2NIXVtjSF1bY0hdbjMpW05IXVtDSDJdYzRbY0hdW2NIXWMoW2NIXVtjSF00KVtDSDJdTihbQ0gzXSlbQ0gzXQ==

>  <s_i_glide_gridfile>  (1092) 
ATP-Grid

>  <s_lp_Force_Field>  (1092) 
OPLS_2005

>  <s_lp_Variant>  (1092) 
rxn512c____EMOL511418____EMOL44845843____EMOL50155899-1

>  <s_lp_label>  (1092) 
2907_sdstereoexpander_1_neutralizer_1_epik_1_stereoizer_1

>  <s_m_source_file>  (1092) 
ATP-VSW-LIGPREP-001-in.maegz

>  <s_sd_BIOSOLVEIT.INFINISEE\_QUERY\_NAME>  (1092) 
Ref-Lig

>  <s_sd_BIOSOLVEIT.INFINISEE\_QUERY\_SMILES>  (1092) 
S(c1nc2c(cc1C[NH2+]Cc3ccc(cc3)C[NH+](C)C)cccc2)Cc4ccccc4

>  <s_sd_BIOSOLVEIT.INFINISEE\_REACTION\_NAME>  (1092) 
rxn512c

>  <s_sd_BIOSOLVEIT.INFINISEE\_REAGENT1\_NAME>  (1092) 
EMOL511418

>  <s_sd_BIOSOLVEIT.INFINISEE\_REAGENT1\_SMILES>  (1092) 
Fc1c(N)cccc1

>  <s_sd_BIOSOLVEIT.INFINISEE\_REAGENT2\_NAME>  (1092) 
EMOL44845843

>  <s_sd_BIOSOLVEIT.INFINISEE\_REAGENT2\_SMILES>  (1092) 
ClC=1c2c(SC1C(=O)O)nccc2

>  <s_sd_BIOSOLVEIT.INFINISEE\_REAGENT3\_NAME>  (1092) 
EMOL50155899

>  <s_sd_BIOSOLVEIT.INFINISEE\_REAGENT3\_SMILES>  (1092) 
N(Cc1ccc(cc1)CN)(C)C

>  <s_sd_BIOSOLVEIT.INFINISEE\_SPACE>  (1092) 
eXplore_7tr_2022-12

>  <s_vsw_compound_code>  (1092) 
92993

>  <s_vsw_variant>  (1092) 
92993-1

>  <r_epik_Charging_Adjusted_Penalty>  (1092) 
0.080189274810459593

>  <r_epik_Ionization_Penalty>  (1092) 
0.0402

>  <r_epik_Ionization_Penalty_Charging>  (1092) 
0.040099999999999997

>  <r_epik_Ionization_Penalty_Neutral>  (1092) 
0.0001

>  <r_epik_State_Penalty>  (1092) 
0.040099999999999997

>  <r_i_docking_score>  (1092) 
-4.4541928601115597

>  <r_i_glide_ecoul>  (1092) 
-8.1815376281738299

>  <r_i_glide_eff_state_penalty>  (1092) 
0.040099999999999997

>  <r_i_glide_einternal>  (1092) 
6.8858838081359899

>  <r_i_glide_emodel>  (1092) 
-56.413149834645601

>  <r_i_glide_energy>  (1092) 
-42.718822479247997

>  <r_i_glide_erotb>  (1092) 
0.73527169282447202

>  <r_i_glide_esite>  (1092) 
-0.10000000000000001

>  <r_i_glide_evdw>  (1092) 
-34.537284851074197

>  <r_i_glide_gscore>  (1092) 
-4.4942928601115604

>  <r_i_glide_hbond>  (1092) 
-0.20000000000000001

>  <r_i_glide_ligand_efficiency>  (1092) 
-0.14368364064875999

>  <r_i_glide_ligand_efficiency_ln>  (1092) 
-1.00455699457273

>  <r_i_glide_ligand_efficiency_sa>  (1092) 
-0.45136500828251103

>  <r_i_glide_lipo>  (1092) 
-1.1257160513202999

>  <r_i_glide_metal>  (1092) 
-0

>  <r_i_glide_rewards>  (1092) 
-0.84975361483594403

>  <r_lp_Energy>  (1092) 
36.410400000000003

>  <r_qp_ACxDN^.5/SA>  (1092) 
0.0070114000000000001

>  <r_qp_CIQPlogS>  (1092) 
-5.0170000000000003

>  <r_qp_EA(eV)>  (1092) 
1.008

>  <r_qp_FISA>  (1092) 
70.575000000000003

>  <r_qp_FOSA>  (1092) 
201.40299999999999

>  <r_qp_IP(eV)>  (1092) 
8.1590000000000007

>  <r_qp_Jm>  (1092) 
4.2854644982369603e-05

>  <r_qp_PISA>  (1092) 
434.46300000000002

>  <r_qp_PSA>  (1092) 
63.691000000000003

>  <r_qp_PercentHumanOralAbsorption>  (1092) 
93.632999999999996

>  <r_qp_QPPCaco>  (1092) 
131.958

>  <r_qp_QPPMDCK>  (1092) 
181.417

>  <r_qp_QPlogBB>  (1092) 
0.32600000000000001

>  <r_qp_QPlogHERG>  (1092) 
-8.8599999999999994

>  <r_qp_QPlogKhsa>  (1092) 
0.98099999999999998

>  <r_qp_QPlogKp>  (1092) 
-4.7430000000000003

>  <r_qp_QPlogPC16>  (1092) 
15.054

>  <r_qp_QPlogPo/w>  (1092) 
4.9080000000000004

>  <r_qp_QPlogPoct>  (1092) 
20.978000000000002

>  <r_qp_QPlogPw>  (1092) 
10.407999999999999

>  <r_qp_QPlogS>  (1092) 
-5.2629999999999999

>  <r_qp_QPpolrz>  (1092) 
48.808

>  <r_qp_SASA>  (1092) 
784.43899999999996

>  <r_qp_SAamideO>  (1092) 
0

>  <r_qp_SAfluorine>  (1092) 
40.914000000000001

>  <r_qp_WPSA>  (1092) 
77.998000000000005

>  <r_qp_accptHB>  (1092) 
5.5

>  <r_qp_dip^2/V>  (1092) 
0.013365200000000001

>  <r_qp_dipole>  (1092) 
4.298

>  <r_qp_donorHB>  (1092) 
1

>  <r_qp_glob>  (1092) 
0.76491100000000001

>  <r_qp_mol_MW>  (1092) 
434.52999999999997

>  <r_qp_volume>  (1092) 
1381.999

>  <r_sd_BIOSOLVEIT.INFINISEE\_FTREES\_SIMILARITY>  (1092) 
0.90400000000000003

>  <r_sd_BIOSOLVEIT.LOGP>  (1092) 
3.9443000000000001

>  <r_sd_BIOSOLVEIT.MOLECULAR\_WEIGHT>  (1092) 
435.54399999999998

>  <r_sd_BIOSOLVEIT.TPSA>  (1092) 
58.460000000000001

>  <i_epik_Tot_Q>  (1092) 
1

>  <i_epik_Tot_abs_Q>  (1092) 
1

>  <i_f3d_flags>  (1092) 
0

>  <i_i_glide_confnum>  (1092) 
9

>  <i_i_glide_lignum>  (1092) 
1355

>  <i_i_glide_posenum>  (1092) 
2

>  <i_i_glide_rotatable_bonds>  (1092) 
8

>  <i_lp_mmshare_version>  (1092) 
65135

>  <i_m_ct_format>  (1092) 
2

>  <i_m_source_file_index>  (1092) 
2907

>  <i_qp_#NandO>  (1092) 
5

>  <i_qp_#acid>  (1092) 
0

>  <i_qp_#amide>  (1092) 
0

>  <i_qp_#amidine>  (1092) 
0

>  <i_qp_#amine>  (1092) 
2

>  <i_qp_#in34>  (1092) 
0

>  <i_qp_#in56>  (1092) 
21

>  <i_qp_#metab>  (1092) 
7

>  <i_qp_#nonHatm>  (1092) 
31

>  <i_qp_#noncon>  (1092) 
0

>  <i_qp_#ringatoms>  (1092) 
21

>  <i_qp_#rotor>  (1092) 
7

>  <i_qp_#rtvFG>  (1092) 
0

>  <i_qp_#stars>  (1092) 
0

>  <i_qp_CNS>  (1092) 
1

>  <i_qp_HumanOralAbsorption>  (1092) 
3

>  <i_qp_RuleOfFive>  (1092) 
0

>  <i_qp_RuleOfThree>  (1092) 
1

>  <i_sd_BIOSOLVEIT.INFINISEE\_RESULT\_RANK>  (1092) 
75641

>  <i_sd_version>  (1092) 
0

>  <b_lp_Chiralities_Consistent>  (1092) 
1

>  <b_sd_chiral_flag>  (1092) 
0

>  <canonical_id>  (1092) 
ATP-HTVS-AE8349DE7653

>  <compound_code>  (1092) 
92993

>  <title>  (1092) 
rxn512c____EMOL511418____EMOL44845843____EMOL50155899

>  <variant>  (1092) 
92993-1

>  <source_file>  (1092) 
运行/运行/ATP-VSW/ATP-VSW-DOCK_HTVS_1-001_lib/ATP-VSW-DOCK_HTVS_1-001_lib

>  <canonical_smiles>  (1092) 
C[NH+](C)Cc1ccc(CNc2c(C(=O)Nc3ccccc3F)sc3ncccc23)cc1

>  <scaffold>  (1092) 
O=C(Nc1ccccc1)c1sc2ncccc2c1NCc1ccccc1

>  <molecular_formula>  (1092) 
C24H24FN4OS+

$$$$
ATP-HTVS-AEA5EF37F369
     RDKit          3D

 67 70  0  0  0  0  0  0  0  0999 V2000
  200.6346  178.5094  157.4223 O   0  0  0  0  0  0  0  0  0  0  0  0
  200.2362  179.6794  156.8184 C   0  0  0  0  0  0  0  0  0  0  0  0
  201.1137  180.7863  156.7646 C   0  0  0  0  0  0  0  0  0  0  0  0
  200.7816  181.9754  156.2028 N   0  0  0  0  0  0  0  0  0  0  0  0
  199.5519  182.1018  155.6585 C   0  0  0  0  0  0  0  0  0  0  0  0
  198.5867  181.0593  155.6894 C   0  0  0  0  0  0  0  0  0  0  0  0
  198.9408  179.8308  156.2802 C   0  0  0  0  0  0  0  0  0  0  0  0
  197.1526  181.2240  155.1758 C   0  0  1  0  0  0  0  0  0  0  0  0
  196.3460  182.1480  156.0077 N   0  0  1  0  0  0  0  0  0  0  0  0
  196.3598  181.8683  157.4629 C   0  0  1  0  0  0  0  0  0  0  0  0
  195.9203  183.0652  158.2704 C   0  0  0  0  0  0  0  0  0  0  0  0
  196.8647  184.0229  158.7047 C   0  0  0  0  0  0  0  0  0  0  0  0
  196.4540  185.1062  159.5105 C   0  0  0  0  0  0  0  0  0  0  0  0
  195.0990  185.2185  159.8855 C   0  0  0  0  0  0  0  0  0  0  0  0
  194.1608  184.2711  159.4390 C   0  0  0  0  0  0  0  0  0  0  0  0
  194.5674  183.1988  158.6280 C   0  0  0  0  0  0  0  0  0  0  0  0
  197.4512  186.1608  159.9648 C   0  0  1  0  0  0  0  0  0  0  0  0
  197.6162  187.2607  158.9820 N   0  0  2  0  0  0  0  0  0  0  0  0
  198.6937  188.1994  159.3671 C   0  0  2  0  0  0  0  0  0  0  0  0
  196.3581  187.9856  158.6824 C   0  0  2  0  0  0  0  0  0  0  0  0
  197.0912  181.7334  153.8019 C   0  0  0  0  0  0  0  0  0  0  0  0
  197.0911  182.1632  152.6595 C   0  0  0  0  0  0  0  0  0  0  0  0
  197.1110  182.7080  151.3165 C   0  0  0  0  0  0  0  0  0  0  0  0
  197.9196  182.1440  150.3119 C   0  0  0  0  0  0  0  0  0  0  0  0
  197.9669  182.6162  149.0495 N   0  0  0  0  0  0  0  0  0  0  0  0
  197.2125  183.6890  148.7456 C   0  0  0  0  0  0  0  0  0  0  0  0
  196.3739  184.3288  149.6805 C   0  0  0  0  0  0  0  0  0  0  0  0
  196.3167  183.8235  150.9926 C   0  0  0  0  0  0  0  0  0  0  0  0
  200.0133  177.2916  157.0130 C   0  0  1  0  0  0  0  0  0  0  0  0
  200.8872  176.5742  156.0117 C   0  0  0  0  0  0  0  0  0  0  0  0
  200.9273  177.0088  154.6730 C   0  0  0  0  0  0  0  0  0  0  0  0
  201.7102  176.3152  153.7331 C   0  0  0  0  0  0  0  0  0  0  0  0
  202.4575  175.1905  154.1362 C   0  0  0  0  0  0  0  0  0  0  0  0
  202.4182  174.7545  155.4766 C   0  0  0  0  0  0  0  0  0  0  0  0
  201.6372  175.4500  156.4146 C   0  0  0  0  0  0  0  0  0  0  0  0
  196.7213  183.0689  155.8643 H   0  0  0  0  0  0  0  0  0  0  0  0
  202.1083  180.7161  157.1828 H   0  0  0  0  0  0  0  0  0  0  0  0
  199.3027  183.0762  155.2596 H   0  0  0  0  0  0  0  0  0  0  0  0
  198.2083  179.0402  156.3536 H   0  0  0  0  0  0  0  0  0  0  0  0
  196.6728  180.2464  155.1778 H   0  0  0  0  0  0  0  0  0  0  0  0
  195.6858  181.0426  157.6443 H   0  0  0  0  0  0  0  0  0  0  0  0
  197.3386  181.5725  157.8476 H   0  0  0  0  0  0  0  0  0  0  0  0
  197.9063  183.9234  158.4361 H   0  0  0  0  0  0  0  0  0  0  0  0
  194.7602  186.0556  160.4785 H   0  0  0  0  0  0  0  0  0  0  0  0
  193.1175  184.3920  159.6917 H   0  0  0  0  0  0  0  0  0  0  0  0
  193.8359  182.4784  158.2875 H   0  0  0  0  0  0  0  0  0  0  0  0
  197.1298  186.5734  160.9180 H   0  0  0  0  0  0  0  0  0  0  0  0
  198.4171  185.6768  160.1487 H   0  0  0  0  0  0  0  0  0  0  0  0
  198.4714  188.7030  160.3107 H   0  0  0  0  0  0  0  0  0  0  0  0
  198.8271  188.9662  158.6024 H   0  0  0  0  0  0  0  0  0  0  0  0
  199.6479  187.6789  159.4781 H   0  0  0  0  0  0  0  0  0  0  0  0
  195.9523  188.4612  159.5783 H   0  0  0  0  0  0  0  0  0  0  0  0
  195.5931  187.3245  158.2741 H   0  0  0  0  0  0  0  0  0  0  0  0
  196.5275  188.7536  157.9278 H   0  0  0  0  0  0  0  0  0  0  0  0
  198.5478  181.2897  150.5238 H   0  0  0  0  0  0  0  0  0  0  0  0
  197.2436  184.0318  147.7226 H   0  0  0  0  0  0  0  0  0  0  0  0
  195.7646  185.1606  149.3665 H   0  0  0  0  0  0  0  0  0  0  0  0
  195.6631  184.2577  151.7335 H   0  0  0  0  0  0  0  0  0  0  0  0
  199.8775  176.6621  157.9045 H   0  0  0  0  0  0  0  0  0  0  0  0
  199.0555  177.3955  156.5441 H   0  0  0  0  0  0  0  0  0  0  0  0
  200.3428  177.8660  154.3636 H   0  0  0  0  0  0  0  0  0  0  0  0
  201.7416  176.6443  152.7024 H   0  0  0  0  0  0  0  0  0  0  0  0
  203.0647  174.6566  153.4194 H   0  0  0  0  0  0  0  0  0  0  0  0
  202.9837  173.8890  155.7945 H   0  0  0  0  0  0  0  0  0  0  0  0
  201.5886  175.1189  157.4376 H   0  0  0  0  0  0  0  0  0  0  0  0
  197.9049  186.8258  158.1176 H   0  0  0  0  0  0  0  0  0  0  0  0
  195.3721  182.1636  155.7027 H   0  0  0  0  0  0  0  0  0  0  0  0
  1  2  1  0
  1 29  1  0
  2  3  1  0
  2  7  2  0
  3  4  2  0
  3 37  1  0
  4  5  1  0
  5  6  2  0
  5 38  1  0
  6  7  1  0
  6  8  1  0
  7 39  1  0
  8  9  1  0
  8 21  1  0
  8 40  1  6
  9 10  1  0
  9 36  1  1
  9 67  1  0
 10 11  1  0
 10 41  1  6
 10 42  1  0
 11 12  2  0
 11 16  1  0
 12 13  1  0
 12 43  1  0
 13 14  2  0
 13 17  1  0
 14 15  1  0
 14 44  1  0
 15 16  2  0
 15 45  1  0
 16 46  1  0
 17 18  1  0
 17 47  1  1
 17 48  1  0
 18 19  1  0
 18 20  1  0
 18 66  1  6
 19 49  1  1
 19 50  1  0
 19 51  1  0
 20 52  1  1
 20 53  1  0
 20 54  1  0
 21 22  3  0
 22 23  1  0
 23 24  2  0
 23 28  1  0
 24 25  1  0
 24 55  1  0
 25 26  2  0
 26 27  1  0
 26 56  1  0
 27 28  2  0
 27 57  1  0
 28 58  1  0
 29 30  1  0
 29 59  1  1
 29 60  1  0
 30 31  2  0
 30 35  1  0
 31 32  1  0
 31 61  1  0
 32 33  2  0
 32 62  1  0
 33 34  1  0
 33 63  1  0
 34 35  2  0
 34 64  1  0
 35 65  1  0
M  CHG  2   9   1  18   1
M  END
>  <s_epik_cmdline>  (1093) 
J2VwaWtfcHl0aG9uJywgJy1waCcsICc3LjAwMDAwMCcsICctcGh0JywgJzIuMDAwMDAwJywgJy1tcycsICcxNicsICctdG4nLCAnOCcsICctbWEnLCAnMjAwJywgJy1pbWFlJywgJzxpbmZpbGUubWFlPicsICctb21hZScsICc8b3V0ZmlsZS5tYWU+Jw==

>  <s_epik_input>  (1093) 
W2NIXTFbY0hdW2NIXVtjSF1bY0hdYzFbQ0gyXU9jMltjSF1uW2NIXWMoW2NIXTIpW0NAQEhdKFtOSF1bQ0gyXWMzW2NIXWMoW2NIXVtjSF1bY0hdMylbQ0gyXU4oW0NIM10pW0NIM10pQyNDYzRbY0hdbltjSF1bY0hdW2NIXTQ=

>  <s_i_glide_gridfile>  (1093) 
ATP-Grid

>  <s_lp_Force_Field>  (1093) 
OPLS_2005

>  <s_lp_Variant>  (1093) 
rxn403____EMOL2873214____EMOL49239917____EMOL516769-6

>  <s_lp_label>  (1093) 
2381_sdstereoexpander_2_neutralizer_1_epik_3_stereoizer_1

>  <s_m_source_file>  (1093) 
ATP-VSW-LIGPREP-001-in.maegz

>  <s_sd_BIOSOLVEIT.INFINISEE\_QUERY\_NAME>  (1093) 
Ref-Lig

>  <s_sd_BIOSOLVEIT.INFINISEE\_QUERY\_SMILES>  (1093) 
S(c1nc2c(cc1C[NH2+]Cc3ccc(cc3)C[NH+](C)C)cccc2)Cc4ccccc4

>  <s_sd_BIOSOLVEIT.INFINISEE\_REACTION\_NAME>  (1093) 
rxn403

>  <s_sd_BIOSOLVEIT.INFINISEE\_REAGENT1\_NAME>  (1093) 
EMOL2873214

>  <s_sd_BIOSOLVEIT.INFINISEE\_REAGENT1\_SMILES>  (1093) 
N(Cc1cc(ccc1)CN)(C)C

>  <s_sd_BIOSOLVEIT.INFINISEE\_REAGENT2\_NAME>  (1093) 
EMOL49239917

>  <s_sd_BIOSOLVEIT.INFINISEE\_REAGENT2\_SMILES>  (1093) 
O=Cc1cncc(OCc2ccccc2)c1

>  <s_sd_BIOSOLVEIT.INFINISEE\_REAGENT3\_NAME>  (1093) 
EMOL516769

>  <s_sd_BIOSOLVEIT.INFINISEE\_REAGENT3\_SMILES>  (1093) 
n1cc(C#C)ccc1

>  <s_sd_BIOSOLVEIT.INFINISEE\_SPACE>  (1093) 
eXplore_7tr_2022-12

>  <s_vsw_compound_code>  (1093) 
76161

>  <s_vsw_variant>  (1093) 
76161-6

>  <r_epik_Charging_Adjusted_Penalty>  (1093) 
3.9438248713557198

>  <r_epik_Ionization_Penalty>  (1093) 
1.9781

>  <r_epik_Ionization_Penalty_Charging>  (1093) 
1.9741

>  <r_epik_Ionization_Penalty_Neutral>  (1093) 
0.0038999999999999998

>  <r_epik_State_Penalty>  (1093) 
1.9697

>  <r_i_docking_score>  (1093) 
-3.73581852107815

>  <r_i_glide_ecoul>  (1093) 
-11.3410129547119

>  <r_i_glide_eff_state_penalty>  (1093) 
1.9697

>  <r_i_glide_einternal>  (1093) 
5.2691097259521502

>  <r_i_glide_emodel>  (1093) 
-77.518070508789194

>  <r_i_glide_energy>  (1093) 
-51.823644638061502

>  <r_i_glide_erotb>  (1093) 
0.840594092267958

>  <r_i_glide_esite>  (1093) 
-0.088139525804797503

>  <r_i_glide_evdw>  (1093) 
-40.482631683349602

>  <r_i_glide_gscore>  (1093) 
-5.7055185210781501

>  <r_i_glide_hbond>  (1093) 
-0.20000000000000001

>  <r_i_glide_ligand_efficiency>  (1093) 
-0.106737672030804

>  <r_i_glide_ligand_efficiency_ln>  (1093) 
-0.82009507740154797

>  <r_i_glide_ligand_efficiency_sa>  (1093) 
-0.34914600259414402

>  <r_i_glide_lipo>  (1093) 
-2.2913346510761401

>  <r_i_glide_metal>  (1093) 
-0

>  <r_i_glide_rewards>  (1093) 
-0.24135490909090701

>  <r_lp_Energy>  (1093) 
21.57892

>  <r_lp_tautomer_probability>  (1093) 
1

>  <r_qp_ACxDN^.5/SA>  (1093) 
0.0097252999999999992

>  <r_qp_CIQPlogS>  (1093) 
-5.0549999999999997

>  <r_qp_EA(eV)>  (1093) 
0.56699999999999995

>  <r_qp_FISA>  (1093) 
67.436999999999998

>  <r_qp_FOSA>  (1093) 
186.96799999999999

>  <r_qp_IP(eV)>  (1093) 
9.0559999999999992

>  <r_qp_Jm>  (1093) 
0.047316829421459601

>  <r_qp_PISA>  (1093) 
491.07100000000003

>  <r_qp_PSA>  (1093) 
48.911999999999999

>  <r_qp_PercentHumanOralAbsorption>  (1093) 
91.575000000000003

>  <r_qp_QPPCaco>  (1093) 
141.316

>  <r_qp_QPPMDCK>  (1093) 
73.040999999999997

>  <r_qp_QPlogBB>  (1093) 
0.051999999999999998

>  <r_qp_QPlogHERG>  (1093) 
-8.0069999999999997

>  <r_qp_QPlogKhsa>  (1093) 
0.68300000000000005

>  <r_qp_QPlogKp>  (1093) 
-4.1020000000000003

>  <r_qp_QPlogPC16>  (1093) 
15.837999999999999

>  <r_qp_QPlogPo/w>  (1093) 
4.4649999999999999

>  <r_qp_QPlogPoct>  (1093) 
22.100999999999999

>  <r_qp_QPlogPw>  (1093) 
11.491

>  <r_qp_QPlogS>  (1093) 
-2.8889999999999998

>  <r_qp_QPpolrz>  (1093) 
49.841000000000001

>  <r_qp_SASA>  (1093) 
745.476

>  <r_qp_SAamideO>  (1093) 
0

>  <r_qp_SAfluorine>  (1093) 
0

>  <r_qp_WPSA>  (1093) 
0

>  <r_qp_accptHB>  (1093) 
7.25

>  <r_qp_dip^2/V>  (1093) 
0.0062823000000000002

>  <r_qp_dipole>  (1093) 
3.0270000000000001

>  <r_qp_donorHB>  (1093) 
1

>  <r_qp_glob>  (1093) 
0.83431379999999999

>  <r_qp_mol_MW>  (1093) 
462.59300000000002

>  <r_qp_volume>  (1093) 
1458.47

>  <r_sd_BIOSOLVEIT.INFINISEE\_FTREES\_SIMILARITY>  (1093) 
0.91900000000000004

>  <r_sd_BIOSOLVEIT.LOGP>  (1093) 
2.5565000000000002

>  <r_sd_BIOSOLVEIT.MOLECULAR\_WEIGHT>  (1093) 
464.61000000000001

>  <r_sd_BIOSOLVEIT.TPSA>  (1093) 
56.060000000000002

>  <i_epik_Tot_Q>  (1093) 
2

>  <i_epik_Tot_abs_Q>  (1093) 
2

>  <i_f3d_flags>  (1093) 
0

>  <i_i_glide_confnum>  (1093) 
3

>  <i_i_glide_lignum>  (1093) 
884

>  <i_i_glide_posenum>  (1093) 
10

>  <i_i_glide_rotatable_bonds>  (1093) 
11

>  <i_lp_mmshare_version>  (1093) 
65135

>  <i_m_ct_format>  (1093) 
2

>  <i_m_source_file_index>  (1093) 
2381

>  <i_qp_#NandO>  (1093) 
5

>  <i_qp_#acid>  (1093) 
0

>  <i_qp_#amide>  (1093) 
0

>  <i_qp_#amidine>  (1093) 
0

>  <i_qp_#amine>  (1093) 
2

>  <i_qp_#in34>  (1093) 
0

>  <i_qp_#in56>  (1093) 
24

>  <i_qp_#metab>  (1093) 
12

>  <i_qp_#nonHatm>  (1093) 
35

>  <i_qp_#noncon>  (1093) 
0

>  <i_qp_#ringatoms>  (1093) 
24

>  <i_qp_#rotor>  (1093) 
11

>  <i_qp_#rtvFG>  (1093) 
0

>  <i_qp_#stars>  (1093) 
2

>  <i_qp_CNS>  (1093) 
1

>  <i_qp_HumanOralAbsorption>  (1093) 
1

>  <i_qp_RuleOfFive>  (1093) 
0

>  <i_qp_RuleOfThree>  (1093) 
1

>  <i_sd_BIOSOLVEIT.INFINISEE\_RESULT\_RANK>  (1093) 
18553

>  <i_sd_version>  (1093) 
0

>  <b_lp_Chiralities_Consistent>  (1093) 
1

>  <b_sd_chiral_flag>  (1093) 
0

>  <canonical_id>  (1093) 
ATP-HTVS-AEA5EF37F369

>  <compound_code>  (1093) 
76161

>  <title>  (1093) 
rxn403____EMOL2873214____EMOL49239917____EMOL516769

>  <variant>  (1093) 
76161-6

>  <source_file>  (1093) 
运行/运行/ATP-VSW/ATP-VSW-DOCK_HTVS_1-001_lib/ATP-VSW-DOCK_HTVS_1-001_lib

>  <canonical_smiles>  (1093) 
C[NH+](C)Cc1cccc(C[NH2+][C@@H](C#Cc2cccnc2)c2cncc(OCc3ccccc3)c2)c1

>  <scaffold>  (1093) 
C(#CC([NH2+]Cc1ccccc1)c1cncc(OCc2ccccc2)c1)c1cccnc1

>  <molecular_formula>  (1093) 
C30H32N4O+2

$$$$
ATP-HTVS-AEC4D9F1E0F4
     RDKit          3D

 62 65  0  0  0  0  0  0  0  0999 V2000
  197.0572  179.4060  149.9292 S   0  0  0  0  0  0  0  0  0  0  0  0
  196.0809  179.8437  151.3868 C   0  0  1  0  0  0  0  0  0  0  0  0
  196.8454  180.7982  152.2826 C   0  0  0  0  0  0  0  0  0  0  0  0
  197.1039  182.1234  151.8694 C   0  0  0  0  0  0  0  0  0  0  0  0
  197.8594  182.9810  152.6924 C   0  0  0  0  0  0  0  0  0  0  0  0
  198.3888  182.5365  153.9283 C   0  0  0  0  0  0  0  0  0  0  0  0
  198.0937  181.2056  154.3411 C   0  0  0  0  0  0  0  0  0  0  0  0
  197.3174  180.3524  153.5332 C   0  0  0  0  0  0  0  0  0  0  0  0
  199.2533  183.4616  154.7344 C   0  0  0  0  0  0  0  0  0  0  0  0
  199.9252  184.3264  154.1755 O   0  0  0  0  0  0  0  0  0  0  0  0
  199.1582  183.3062  156.0731 N   0  0  0  0  0  0  0  0  0  0  0  0
  199.8547  183.9898  157.1217 C   0  0  0  0  0  0  0  0  0  0  0  0
  200.4951  183.2445  158.0437 N   0  0  0  0  0  0  0  0  0  0  0  0
  201.0637  183.8369  159.1107 C   0  0  0  0  0  0  0  0  0  0  0  0
  201.0043  185.2421  159.2871 C   0  0  0  0  0  0  0  0  0  0  0  0
  200.3019  186.0191  158.3552 C   0  0  0  0  0  0  0  0  0  0  0  0
  199.6689  185.3922  157.2773 C   0  0  0  0  0  0  0  0  0  0  0  0
  198.8428  186.1317  156.4001 N   0  0  0  0  0  0  0  0  0  0  0  0
  197.7613  186.8886  157.0217 C   0  0  1  0  0  0  0  0  0  0  0  0
  196.9097  186.1459  158.0518 C   0  0  0  0  0  0  0  0  0  0  0  0
  196.9557  184.7281  158.1296 C   0  0  0  0  0  0  0  0  0  0  0  0
  196.1810  184.0437  159.0862 C   0  0  0  0  0  0  0  0  0  0  0  0
  195.2983  184.7646  159.9673 C   0  0  0  0  0  0  0  0  0  0  0  0
  195.2205  186.1896  159.8775 C   0  0  0  0  0  0  0  0  0  0  0  0
  196.0253  186.8797  158.9196 C   0  0  0  0  0  0  0  0  0  0  0  0
  196.2738  182.5238  159.1550 C   0  0  1  0  0  0  0  0  0  0  0  0
  195.5367  181.8481  158.0489 N   0  0  2  0  0  0  0  0  0  0  0  0
  196.0148  182.1581  156.6867 C   0  0  2  0  0  0  0  0  0  0  0  0
  194.0784  181.9754  158.1673 C   0  0  2  0  0  0  0  0  0  0  0  0
  201.6166  185.8553  160.4024 C   0  0  0  0  0  0  0  0  0  0  0  0
  202.3344  185.0760  161.3209 C   0  0  0  0  0  0  0  0  0  0  0  0
  202.3959  183.6774  161.1655 C   0  0  0  0  0  0  0  0  0  0  0  0
  201.7338  183.0617  160.0783 C   0  0  0  0  0  0  0  0  0  0  0  0
  198.1109  178.9421  150.6095 H   0  0  0  0  0  0  0  0  0  0  0  0
  195.1583  180.3246  151.0647 H   0  0  0  0  0  0  0  0  0  0  0  0
  195.8095  178.9375  151.9282 H   0  0  0  0  0  0  0  0  0  0  0  0
  196.7671  182.4646  150.9049 H   0  0  0  0  0  0  0  0  0  0  0  0
  198.0640  183.9870  152.3552 H   0  0  0  0  0  0  0  0  0  0  0  0
  198.4748  180.8137  155.2712 H   0  0  0  0  0  0  0  0  0  0  0  0
  197.1275  179.3423  153.8670 H   0  0  0  0  0  0  0  0  0  0  0  0
  198.5815  182.5406  156.4272 H   0  0  0  0  0  0  0  0  0  0  0  0
  200.1997  187.0770  158.5072 H   0  0  0  0  0  0  0  0  0  0  0  0
  198.6098  185.6353  155.5418 H   0  0  0  0  0  0  0  0  0  0  0  0
  198.1732  187.7973  157.4500 H   0  0  0  0  0  0  0  0  0  0  0  0
  197.1164  187.2026  156.2136 H   0  0  0  0  0  0  0  0  0  0  0  0
  197.5591  184.1814  157.4613 H   0  0  0  0  0  0  0  0  0  0  0  0
  194.6651  184.2203  160.6605 H   0  0  0  0  0  0  0  0  0  0  0  0
  194.5138  186.7463  160.5183 H   0  0  0  0  0  0  0  0  0  0  0  0
  195.9404  187.9647  158.8388 H   0  0  0  0  0  0  0  0  0  0  0  0
  197.3349  182.2682  159.0929 H   0  0  0  0  0  0  0  0  0  0  0  0
  195.9460  182.1312  160.1153 H   0  0  0  0  0  0  0  0  0  0  0  0
  195.8483  183.1927  156.4073 H   0  0  0  0  0  0  0  0  0  0  0  0
  195.5470  181.5452  155.9139 H   0  0  0  0  0  0  0  0  0  0  0  0
  197.0707  181.9263  156.6771 H   0  0  0  0  0  0  0  0  0  0  0  0
  193.7878  183.0239  158.1065 H   0  0  0  0  0  0  0  0  0  0  0  0
  193.7442  181.5489  159.1181 H   0  0  0  0  0  0  0  0  0  0  0  0
  193.6035  181.4188  157.3532 H   0  0  0  0  0  0  0  0  0  0  0  0
  201.5706  186.9231  160.5257 H   0  0  0  0  0  0  0  0  0  0  0  0
  202.8435  185.5479  162.1474 H   0  0  0  0  0  0  0  0  0  0  0  0
  202.9536  183.0825  161.8706 H   0  0  0  0  0  0  0  0  0  0  0  0
  201.7896  181.9894  159.9655 H   0  0  0  0  0  0  0  0  0  0  0  0
  195.7108  180.8438  158.1365 H   0  0  0  0  0  0  0  0  0  0  0  0
  1  2  1  0
  1 34  1  0
  2  3  1  0
  2 35  1  6
  2 36  1  0
  3  4  1  0
  3  8  2  0
  4  5  2  0
  4 37  1  0
  5  6  1  0
  5 38  1  0
  6  7  2  0
  6  9  1  0
  7  8  1  0
  7 39  1  0
  8 40  1  0
  9 10  2  0
  9 11  1  0
 11 12  1  0
 11 41  1  0
 12 13  2  0
 12 17  1  0
 13 14  1  0
 14 15  1  0
 14 33  2  0
 15 16  1  0
 15 30  2  0
 16 17  2  0
 16 42  1  0
 17 18  1  0
 18 19  1  0
 18 43  1  0
 19 20  1  0
 19 44  1  1
 19 45  1  0
 20 21  2  0
 20 25  1  0
 21 22  1  0
 21 46  1  0
 22 23  2  0
 22 26  1  0
 23 24  1  0
 23 47  1  0
 24 25  2  0
 24 48  1  0
 25 49  1  0
 26 27  1  0
 26 50  1  6
 26 51  1  0
 27 28  1  0
 27 29  1  0
 27 62  1  1
 28 52  1  6
 28 53  1  0
 28 54  1  0
 29 55  1  1
 29 56  1  0
 29 57  1  0
 30 31  1  0
 30 58  1  0
 31 32  2  0
 31 59  1  0
 32 33  1  0
 32 60  1  0
 33 61  1  0
M  CHG  1  27   1
M  END
>  <s_epik_cmdline>  (1094) 
J2VwaWtfcHl0aG9uJywgJy1waCcsICc3LjAwMDAwMCcsICctcGh0JywgJzIuMDAwMDAwJywgJy1tcycsICcxNicsICctdG4nLCAnOCcsICctbWEnLCAnMjAwJywgJy1pbWFlJywgJzxpbmZpbGUubWFlPicsICctb21hZScsICc8b3V0ZmlsZS5tYWU+Jw==

>  <s_epik_input>  (1094) 
W1NIXVtDSDJdYzFbY0hdW2NIXWMoW2NIXVtjSF0xKUMoPU8pW05IXWMobjIpYyhbY0hdYyhjMjMpW2NIXVtjSF1bY0hdW2NIXTMpW05IXVtDSDJdYzRbY0hdYyhbY0hdW2NIXVtjSF00KVtDSDJdTihbQ0gzXSlbQ0gzXQ==

>  <s_i_glide_gridfile>  (1094) 
ATP-Grid

>  <s_lp_Force_Field>  (1094) 
OPLS_2005

>  <s_lp_Variant>  (1094) 
rxn502b____EMOL1959427____EMOL44466703____EMOL2873214-1

>  <s_lp_label>  (1094) 
2251_sdstereoexpander_1_neutralizer_1_epik_1_stereoizer_1

>  <s_m_source_file>  (1094) 
ATP-VSW-LIGPREP-001-in.maegz

>  <s_sd_BIOSOLVEIT.INFINISEE\_QUERY\_NAME>  (1094) 
Ref-Lig

>  <s_sd_BIOSOLVEIT.INFINISEE\_QUERY\_SMILES>  (1094) 
S(c1nc2c(cc1C[NH2+]Cc3ccc(cc3)C[NH+](C)C)cccc2)Cc4ccccc4

>  <s_sd_BIOSOLVEIT.INFINISEE\_REACTION\_NAME>  (1094) 
rxn502b

>  <s_sd_BIOSOLVEIT.INFINISEE\_REAGENT1\_NAME>  (1094) 
EMOL1959427

>  <s_sd_BIOSOLVEIT.INFINISEE\_REAGENT1\_SMILES>  (1094) 
SCc1ccc(cc1)C(=O)O

>  <s_sd_BIOSOLVEIT.INFINISEE\_REAGENT2\_NAME>  (1094) 
EMOL44466703

>  <s_sd_BIOSOLVEIT.INFINISEE\_REAGENT2\_SMILES>  (1094) 
Brc1c(nc2c(c1)cccc2)N

>  <s_sd_BIOSOLVEIT.INFINISEE\_REAGENT3\_NAME>  (1094) 
EMOL2873214

>  <s_sd_BIOSOLVEIT.INFINISEE\_REAGENT3\_SMILES>  (1094) 
N(Cc1cc(ccc1)CN)(C)C

>  <s_sd_BIOSOLVEIT.INFINISEE\_SPACE>  (1094) 
eXplore_7tr_2022-12

>  <s_vsw_compound_code>  (1094) 
72001

>  <s_vsw_variant>  (1094) 
72001-1

>  <r_epik_Charging_Adjusted_Penalty>  (1094) 
0.092883058967779597

>  <r_epik_Ionization_Penalty>  (1094) 
0.048800000000000003

>  <r_epik_Ionization_Penalty_Charging>  (1094) 
0.0441

>  <r_epik_Ionization_Penalty_Neutral>  (1094) 
0.0047000000000000002

>  <r_epik_State_Penalty>  (1094) 
0.048800000000000003

>  <r_i_docking_score>  (1094) 
-5.315303887102

>  <r_i_glide_ecoul>  (1094) 
-10.2588911056519

>  <r_i_glide_eff_state_penalty>  (1094) 
0.048800000000000003

>  <r_i_glide_einternal>  (1094) 
10.3704223632812

>  <r_i_glide_emodel>  (1094) 
-62.137393701279599

>  <r_i_glide_energy>  (1094) 
-45.529353141784703

>  <r_i_glide_erotb>  (1094) 
0.76811750288784597

>  <r_i_glide_esite>  (1094) 
-0.100085509797881

>  <r_i_glide_evdw>  (1094) 
-35.270462036132798

>  <r_i_glide_gscore>  (1094) 
-5.3641038871019999

>  <r_i_glide_hbond>  (1094) 
-0.20000000000000001

>  <r_i_glide_ligand_efficiency>  (1094) 
-0.16106981476066701

>  <r_i_glide_ligand_efficiency_ln>  (1094) 
-1.1820960633208599

>  <r_i_glide_ligand_efficiency_sa>  (1094) 
-0.516636959768766

>  <r_i_glide_lipo>  (1094) 
-1.8385658635445501

>  <r_i_glide_metal>  (1094) 
-0

>  <r_i_glide_rewards>  (1094) 
-0.69121324899300196

>  <r_lp_Energy>  (1094) 
22.978097000000002

>  <r_qp_ACxDN^.5/SA>  (1094) 
0.016064599999999998

>  <r_qp_CIQPlogS>  (1094) 
-5.8460000000000001

>  <r_qp_EA(eV)>  (1094) 
0.92600000000000005

>  <r_qp_FISA>  (1094) 
58.316000000000003

>  <r_qp_FOSA>  (1094) 
217.05500000000001

>  <r_qp_IP(eV)>  (1094) 
8.7040000000000006

>  <r_qp_Jm>  (1094) 
0.050194476072685103

>  <r_qp_PISA>  (1094) 
377.77999999999997

>  <r_qp_PSA>  (1094) 
59.613999999999997

>  <r_qp_PercentHumanOralAbsorption>  (1094) 
100

>  <r_qp_QPPCaco>  (1094) 
691.49000000000001

>  <r_qp_QPPMDCK>  (1094) 
957.82000000000005

>  <r_qp_QPlogBB>  (1094) 
0.043999999999999997

>  <r_qp_QPlogHERG>  (1094) 
-6.7889999999999997

>  <r_qp_QPlogKhsa>  (1094) 
0.61599999999999999

>  <r_qp_QPlogKp>  (1094) 
-2.4620000000000002

>  <r_qp_QPlogPC16>  (1094) 
15.445

>  <r_qp_QPlogPo/w>  (1094) 
4.7149999999999999

>  <r_qp_QPlogPoct>  (1094) 
24.309999999999999

>  <r_qp_QPlogPw>  (1094) 
13.477

>  <r_qp_QPlogS>  (1094) 
-4.4969999999999999

>  <r_qp_QPpolrz>  (1094) 
47.832000000000001

>  <r_qp_SASA>  (1094) 
729.13300000000004

>  <r_qp_SAamideO>  (1094) 
0

>  <r_qp_SAfluorine>  (1094) 
0

>  <r_qp_WPSA>  (1094) 
75.981999999999999

>  <r_qp_accptHB>  (1094) 
7

>  <r_qp_dip^2/V>  (1094) 
0.024790900000000001

>  <r_qp_dipole>  (1094) 
5.8979999999999997

>  <r_qp_donorHB>  (1094) 
2.7999999999999998

>  <r_qp_glob>  (1094) 
0.83133729999999995

>  <r_qp_mol_MW>  (1094) 
456.60399999999998

>  <r_qp_volume>  (1094) 
1403.2280000000001

>  <r_sd_BIOSOLVEIT.INFINISEE\_FTREES\_SIMILARITY>  (1094) 
0.92600000000000005

>  <r_sd_BIOSOLVEIT.LOGP>  (1094) 
4.5537000000000001

>  <r_sd_BIOSOLVEIT.MOLECULAR\_WEIGHT>  (1094) 
457.61799999999999

>  <r_sd_BIOSOLVEIT.TPSA>  (1094) 
58.460000000000001

>  <i_epik_Tot_Q>  (1094) 
1

>  <i_epik_Tot_abs_Q>  (1094) 
1

>  <i_f3d_flags>  (1094) 
0

>  <i_i_glide_confnum>  (1094) 
5

>  <i_i_glide_lignum>  (1094) 
770

>  <i_i_glide_posenum>  (1094) 
17

>  <i_i_glide_rotatable_bonds>  (1094) 
10

>  <i_lp_mmshare_version>  (1094) 
65135

>  <i_m_ct_format>  (1094) 
2

>  <i_m_source_file_index>  (1094) 
2251

>  <i_qp_#NandO>  (1094) 
5

>  <i_qp_#acid>  (1094) 
0

>  <i_qp_#amide>  (1094) 
0

>  <i_qp_#amidine>  (1094) 
0

>  <i_qp_#amine>  (1094) 
1

>  <i_qp_#in34>  (1094) 
0

>  <i_qp_#in56>  (1094) 
22

>  <i_qp_#metab>  (1094) 
7

>  <i_qp_#nonHatm>  (1094) 
33

>  <i_qp_#noncon>  (1094) 
0

>  <i_qp_#ringatoms>  (1094) 
22

>  <i_qp_#rotor>  (1094) 
9

>  <i_qp_#rtvFG>  (1094) 
1

>  <i_qp_#stars>  (1094) 
0

>  <i_qp_CNS>  (1094) 
1

>  <i_qp_HumanOralAbsorption>  (1094) 
3

>  <i_qp_RuleOfFive>  (1094) 
0

>  <i_qp_RuleOfThree>  (1094) 
1

>  <i_sd_BIOSOLVEIT.INFINISEE\_RESULT\_RANK>  (1094) 
7741

>  <i_sd_version>  (1094) 
0

>  <b_lp_Chiralities_Consistent>  (1094) 
1

>  <b_sd_chiral_flag>  (1094) 
0

>  <canonical_id>  (1094) 
ATP-HTVS-AEC4D9F1E0F4

>  <compound_code>  (1094) 
72001

>  <title>  (1094) 
rxn502b____EMOL1959427____EMOL44466703____EMOL2873214

>  <variant>  (1094) 
72001-1

>  <source_file>  (1094) 
运行/运行/ATP-VSW/ATP-VSW-DOCK_HTVS_1-001_lib/ATP-VSW-DOCK_HTVS_1-001_lib

>  <canonical_smiles>  (1094) 
C[NH+](C)Cc1cccc(CNc2cc3ccccc3nc2NC(=O)c2ccc(CS)cc2)c1

>  <scaffold>  (1094) 
O=C(Nc1nc2ccccc2cc1NCc1ccccc1)c1ccccc1

>  <molecular_formula>  (1094) 
C27H29N4OS+

$$$$
ATP-HTVS-AEE242E516D8
     RDKit          3D

 55 58  0  0  0  0  0  0  0  0999 V2000
  199.4997  181.3044  152.5774 O   0  0  0  0  0  0  0  0  0  0  0  0
  198.7444  180.6841  153.3275 C   0  0  0  0  0  0  0  0  0  0  0  0
  198.3979  179.3993  153.1490 N   0  0  0  0  0  0  0  0  0  0  0  0
  198.7967  178.5641  152.0704 C   0  0  0  0  0  0  0  0  0  0  0  0
  198.3532  178.8020  150.8120 N   0  0  0  0  0  0  0  0  0  0  0  0
  198.6711  177.9380  149.8192 C   0  0  0  0  0  0  0  0  0  0  0  0
  199.4279  176.7629  150.0677 C   0  0  0  0  0  0  0  0  0  0  0  0
  199.8246  176.4573  151.3736 C   0  0  0  0  0  0  0  0  0  0  0  0
  199.5705  177.4011  152.4031 C   0  0  0  0  0  0  0  0  0  0  0  0
  200.0054  177.1739  153.7323 N   0  0  0  0  0  0  0  0  0  0  0  0
  200.9545  176.2605  154.2369 C   0  0  0  0  0  0  0  0  0  0  0  0
  201.0543  176.1223  155.6478 C   0  0  0  0  0  0  0  0  0  0  0  0
  201.9891  175.2180  156.2079 C   0  0  0  0  0  0  0  0  0  0  0  0
  202.8004  174.4017  155.3813 C   0  0  0  0  0  0  0  0  0  0  0  0
  202.6993  174.5486  153.9803 C   0  0  0  0  0  0  0  0  0  0  0  0
  201.8363  175.5043  153.4108 C   0  0  0  0  0  0  0  0  0  0  0  0
  199.8002  175.8811  149.0297 C   0  0  0  0  0  0  0  0  0  0  0  0
  199.3760  176.1212  147.7170 C   0  0  0  0  0  0  0  0  0  0  0  0
  198.5818  177.2521  147.4525 C   0  0  0  0  0  0  0  0  0  0  0  0
  198.2335  178.1496  148.4936 C   0  0  0  0  0  0  0  0  0  0  0  0
  198.1415  181.3441  154.5398 C   0  0  0  0  0  0  0  0  0  0  0  0
  197.7151  182.6908  154.4846 C   0  0  0  0  0  0  0  0  0  0  0  0
  197.1538  183.3073  155.6195 C   0  0  0  0  0  0  0  0  0  0  0  0
  197.0306  182.5929  156.8287 C   0  0  0  0  0  0  0  0  0  0  0  0
  197.4802  181.2591  156.8861 C   0  0  0  0  0  0  0  0  0  0  0  0
  198.0178  180.6314  155.7519 C   0  0  0  0  0  0  0  0  0  0  0  0
  196.4061  183.2371  158.0545 C   0  0  1  0  0  0  0  0  0  0  0  0
  194.9300  183.0614  158.1332 N   0  0  2  0  0  0  0  0  0  0  0  0
  194.3250  183.9225  159.1709 C   0  0  2  0  0  0  0  0  0  0  0  0
  194.5018  181.6513  158.2715 C   0  0  2  0  0  0  0  0  0  0  0  0
  197.8349  178.9786  153.8767 H   0  0  0  0  0  0  0  0  0  0  0  0
  200.2838  175.5061  151.5340 H   0  0  0  0  0  0  0  0  0  0  0  0
  199.5940  177.7700  154.4293 H   0  0  0  0  0  0  0  0  0  0  0  0
  200.4480  176.7246  156.3153 H   0  0  0  0  0  0  0  0  0  0  0  0
  202.1042  175.1467  157.2982 H   0  0  0  0  0  0  0  0  0  0  0  0
  203.5242  173.7112  155.8020 H   0  0  0  0  0  0  0  0  0  0  0  0
  203.3087  173.9523  153.3273 H   0  0  0  0  0  0  0  0  0  0  0  0
  201.9022  175.6250  152.3520 H   0  0  0  0  0  0  0  0  0  0  0  0
  200.4070  175.0152  149.2404 H   0  0  0  0  0  0  0  0  0  0  0  0
  199.6551  175.4311  146.9211 H   0  0  0  0  0  0  0  0  0  0  0  0
  198.2479  177.4330  146.4402 H   0  0  0  0  0  0  0  0  0  0  0  0
  197.6156  179.0155  148.2700 H   0  0  0  0  0  0  0  0  0  0  0  0
  197.8013  183.2508  153.5648 H   0  0  0  0  0  0  0  0  0  0  0  0
  196.8162  184.3297  155.5588 H   0  0  0  0  0  0  0  0  0  0  0  0
  197.3726  180.6839  157.7932 H   0  0  0  0  0  0  0  0  0  0  0  0
  198.3288  179.5989  155.8400 H   0  0  0  0  0  0  0  0  0  0  0  0
  196.8744  182.8391  158.9565 H   0  0  0  0  0  0  0  0  0  0  0  0
  196.6451  184.3015  158.0304 H   0  0  0  0  0  0  0  0  0  0  0  0
  194.6842  183.6367  160.1610 H   0  0  0  0  0  0  0  0  0  0  0  0
  193.2379  183.8359  159.1658 H   0  0  0  0  0  0  0  0  0  0  0  0
  194.5735  184.9727  159.0125 H   0  0  0  0  0  0  0  0  0  0  0  0
  194.9081  181.2032  159.1797 H   0  0  0  0  0  0  0  0  0  0  0  0
  194.8181  181.0604  157.4144 H   0  0  0  0  0  0  0  0  0  0  0  0
  193.4152  181.5772  158.2998 H   0  0  0  0  0  0  0  0  0  0  0  0
  194.5522  183.3438  157.2280 H   0  0  0  0  0  0  0  0  0  0  0  0
  1  2  2  0
  2  3  1  0
  2 21  1  0
  3  4  1  0
  3 31  1  0
  4  5  2  0
  4  9  1  0
  5  6  1  0
  6  7  1  0
  6 20  2  0
  7  8  1  0
  7 17  2  0
  8  9  2  0
  8 32  1  0
  9 10  1  0
 10 11  1  0
 10 33  1  0
 11 12  2  0
 11 16  1  0
 12 13  1  0
 12 34  1  0
 13 14  2  0
 13 35  1  0
 14 15  1  0
 14 36  1  0
 15 16  2  0
 15 37  1  0
 16 38  1  0
 17 18  1  0
 17 39  1  0
 18 19  2  0
 18 40  1  0
 19 20  1  0
 19 41  1  0
 20 42  1  0
 21 22  1  0
 21 26  2  0
 22 23  2  0
 22 43  1  0
 23 24  1  0
 23 44  1  0
 24 25  2  0
 24 27  1  0
 25 26  1  0
 25 45  1  0
 26 46  1  0
 27 28  1  0
 27 47  1  1
 27 48  1  0
 28 29  1  0
 28 30  1  0
 28 55  1  6
 29 49  1  1
 29 50  1  0
 29 51  1  0
 30 52  1  1
 30 53  1  0
 30 54  1  0
M  CHG  1  28   1
M  END
>  <s_epik_cmdline>  (1095) 
J2VwaWtfcHl0aG9uJywgJy1waCcsICc3LjAwMDAwMCcsICctcGh0JywgJzIuMDAwMDAwJywgJy1tcycsICcxNicsICctdG4nLCAnOCcsICctbWEnLCAnMjAwJywgJy1pbWFlJywgJzxpbmZpbGUubWFlPicsICctb21hZScsICc8b3V0ZmlsZS5tYWU+Jw==

>  <s_epik_input>  (1095) 
W0NIM11OKFtDSDNdKVtDSDJdYyhbY0hdW2NIXTEpW2NIXVtjSF1jMUMoPU8pW05IXWMobjIpYyhbY0hdYyhjMjMpW2NIXVtjSF1bY0hdW2NIXTMpW05IXWM0W2NIXVtjSF1bY0hdW2NIXVtjSF00

>  <s_i_glide_gridfile>  (1095) 
ATP-Grid

>  <s_lp_Force_Field>  (1095) 
OPLS_2005

>  <s_lp_Variant>  (1095) 
rxn502b____EMOL18624763____EMOL44466703____EMOL477532-1

>  <s_lp_label>  (1095) 
2834_sdstereoexpander_1_neutralizer_1_epik_1_stereoizer_1

>  <s_m_source_file>  (1095) 
ATP-VSW-LIGPREP-001-in.maegz

>  <s_sd_BIOSOLVEIT.INFINISEE\_QUERY\_NAME>  (1095) 
Ref-Lig

>  <s_sd_BIOSOLVEIT.INFINISEE\_QUERY\_SMILES>  (1095) 
S(c1nc2c(cc1C[NH2+]Cc3ccc(cc3)C[NH+](C)C)cccc2)Cc4ccccc4

>  <s_sd_BIOSOLVEIT.INFINISEE\_REACTION\_NAME>  (1095) 
rxn502b

>  <s_sd_BIOSOLVEIT.INFINISEE\_REAGENT1\_NAME>  (1095) 
EMOL18624763

>  <s_sd_BIOSOLVEIT.INFINISEE\_REAGENT1\_SMILES>  (1095) 
O=C(O)c1ccc(cc1)CN(C)C

>  <s_sd_BIOSOLVEIT.INFINISEE\_REAGENT2\_NAME>  (1095) 
EMOL44466703

>  <s_sd_BIOSOLVEIT.INFINISEE\_REAGENT2\_SMILES>  (1095) 
Brc1c(nc2c(c1)cccc2)N

>  <s_sd_BIOSOLVEIT.INFINISEE\_REAGENT3\_NAME>  (1095) 
EMOL477532

>  <s_sd_BIOSOLVEIT.INFINISEE\_REAGENT3\_SMILES>  (1095) 
Nc1ccccc1

>  <s_sd_BIOSOLVEIT.INFINISEE\_SPACE>  (1095) 
eXplore_7tr_2022-12

>  <s_vsw_compound_code>  (1095) 
90657

>  <s_vsw_variant>  (1095) 
90657-1

>  <r_epik_Charging_Adjusted_Penalty>  (1095) 
0.10433640840748

>  <r_epik_Ionization_Penalty>  (1095) 
0.052200000000000003

>  <r_epik_Ionization_Penalty_Charging>  (1095) 
0.052200000000000003

>  <r_epik_Ionization_Penalty_Neutral>  (1095) 
0

>  <r_epik_State_Penalty>  (1095) 
0.052200000000000003

>  <r_i_docking_score>  (1095) 
-4.4813391060821299

>  <r_i_glide_ecoul>  (1095) 
-7.1283984184265101

>  <r_i_glide_eff_state_penalty>  (1095) 
0.052200000000000003

>  <r_i_glide_einternal>  (1095) 
6.8881945610046396

>  <r_i_glide_emodel>  (1095) 
-51.492049602956797

>  <r_i_glide_energy>  (1095) 
-39.172950267791698

>  <r_i_glide_erotb>  (1095) 
0.74336557954494098

>  <r_i_glide_esite>  (1095) 
-0.074081860589687201

>  <r_i_glide_evdw>  (1095) 
-32.044551849365199

>  <r_i_glide_gscore>  (1095) 
-4.53353910608213

>  <r_i_glide_hbond>  (1095) 
-0.196474881316511

>  <r_i_glide_ligand_efficiency>  (1095) 
-0.14937797020273799

>  <r_i_glide_ligand_efficiency_ln>  (1095) 
-1.01820907300224

>  <r_i_glide_ligand_efficiency_sa>  (1095) 
-0.46415208416112902

>  <r_i_glide_lipo>  (1095) 
-1.63594377030682

>  <r_i_glide_metal>  (1095) 
-0

>  <r_i_glide_rewards>  (1095) 
-0.69891681818181695

>  <r_lp_Energy>  (1095) 
32.265365000000003

>  <r_qp_ACxDN^.5/SA>  (1095) 
0.0111249

>  <r_qp_CIQPlogS>  (1095) 
-5.0940000000000003

>  <r_qp_EA(eV)>  (1095) 
0.91300000000000003

>  <r_qp_FISA>  (1095) 
64.209999999999994

>  <r_qp_FOSA>  (1095) 
180.84

>  <r_qp_IP(eV)>  (1095) 
8.1669999999999998

>  <r_qp_Jm>  (1095) 
0.00389575505913267

>  <r_qp_PISA>  (1095) 
517.678

>  <r_qp_PSA>  (1095) 
61.383000000000003

>  <r_qp_PercentHumanOralAbsorption>  (1095) 
100

>  <r_qp_QPPCaco>  (1095) 
607.99599999999998

>  <r_qp_QPPMDCK>  (1095) 
319.63299999999998

>  <r_qp_QPlogBB>  (1095) 
-0.11799999999999999

>  <r_qp_QPlogHERG>  (1095) 
-8.4149999999999991

>  <r_qp_QPlogKhsa>  (1095) 
0.77200000000000002

>  <r_qp_QPlogKp>  (1095) 
-2.3660000000000001

>  <r_qp_QPlogPC16>  (1095) 
15.42

>  <r_qp_QPlogPo/w>  (1095) 
4.6680000000000001

>  <r_qp_QPlogPoct>  (1095) 
22.744

>  <r_qp_QPlogPw>  (1095) 
13.028

>  <r_qp_QPlogS>  (1095) 
-5.6420000000000003

>  <r_qp_QPpolrz>  (1095) 
48.713999999999999

>  <r_qp_SASA>  (1095) 
762.72799999999995

>  <r_qp_SAamideO>  (1095) 
0

>  <r_qp_SAfluorine>  (1095) 
0

>  <r_qp_WPSA>  (1095) 
0

>  <r_qp_accptHB>  (1095) 
6

>  <r_qp_dip^2/V>  (1095) 
0.035274300000000001

>  <r_qp_dipole>  (1095) 
6.8849999999999998

>  <r_qp_donorHB>  (1095) 
2

>  <r_qp_glob>  (1095) 
0.77209850000000002

>  <r_qp_mol_MW>  (1095) 
396.49099999999999

>  <r_qp_volume>  (1095) 
1343.7429999999999

>  <r_sd_BIOSOLVEIT.INFINISEE\_FTREES\_SIMILARITY>  (1095) 
0.90600000000000003

>  <r_sd_BIOSOLVEIT.LOGP>  (1095) 
3.8752

>  <r_sd_BIOSOLVEIT.MOLECULAR\_WEIGHT>  (1095) 
397.5

>  <r_sd_BIOSOLVEIT.TPSA>  (1095) 
58.460000000000001

>  <i_epik_Tot_Q>  (1095) 
1

>  <i_epik_Tot_abs_Q>  (1095) 
1

>  <i_f3d_flags>  (1095) 
0

>  <i_i_glide_confnum>  (1095) 
6

>  <i_i_glide_lignum>  (1095) 
1303

>  <i_i_glide_posenum>  (1095) 
5

>  <i_i_glide_rotatable_bonds>  (1095) 
7

>  <i_lp_mmshare_version>  (1095) 
65135

>  <i_m_ct_format>  (1095) 
2

>  <i_m_source_file_index>  (1095) 
2834

>  <i_qp_#NandO>  (1095) 
5

>  <i_qp_#acid>  (1095) 
0

>  <i_qp_#amide>  (1095) 
0

>  <i_qp_#amidine>  (1095) 
0

>  <i_qp_#amine>  (1095) 
1

>  <i_qp_#in34>  (1095) 
0

>  <i_qp_#in56>  (1095) 
22

>  <i_qp_#metab>  (1095) 
4

>  <i_qp_#nonHatm>  (1095) 
30

>  <i_qp_#noncon>  (1095) 
0

>  <i_qp_#ringatoms>  (1095) 
22

>  <i_qp_#rotor>  (1095) 
6

>  <i_qp_#rtvFG>  (1095) 
0

>  <i_qp_#stars>  (1095) 
1

>  <i_qp_CNS>  (1095) 
1

>  <i_qp_HumanOralAbsorption>  (1095) 
3

>  <i_qp_RuleOfFive>  (1095) 
0

>  <i_qp_RuleOfThree>  (1095) 
0

>  <i_sd_BIOSOLVEIT.INFINISEE\_RESULT\_RANK>  (1095) 
66848

>  <i_sd_version>  (1095) 
0

>  <b_lp_Chiralities_Consistent>  (1095) 
1

>  <b_sd_chiral_flag>  (1095) 
0

>  <canonical_id>  (1095) 
ATP-HTVS-AEE242E516D8

>  <compound_code>  (1095) 
90657

>  <title>  (1095) 
rxn502b____EMOL18624763____EMOL44466703____EMOL477532

>  <variant>  (1095) 
90657-1

>  <source_file>  (1095) 
运行/运行/ATP-VSW/ATP-VSW-DOCK_HTVS_1-001_lib/ATP-VSW-DOCK_HTVS_1-001_lib

>  <canonical_smiles>  (1095) 
C[NH+](C)Cc1ccc(C(=O)Nc2nc3ccccc3cc2Nc2ccccc2)cc1

>  <scaffold>  (1095) 
O=C(Nc1nc2ccccc2cc1Nc1ccccc1)c1ccccc1

>  <molecular_formula>  (1095) 
C25H25N4O+

$$$$
ATP-HTVS-AF0D06B60C3E
     RDKit          3D

 50 53  0  0  0  0  0  0  0  0999 V2000
  198.5752  184.6726  159.3546 Cl  0  0  0  0  0  0  0  0  0  0  0  0
  196.9267  184.1883  159.2340 C   0  0  0  0  0  0  0  0  0  0  0  0
  195.8228  184.9868  159.6632 C   0  0  0  0  0  0  0  0  0  0  0  0
  194.5192  184.4597  159.4978 C   0  0  0  0  0  0  0  0  0  0  0  0
  194.3230  183.1829  158.9293 C   0  0  0  0  0  0  0  0  0  0  0  0
  195.4211  182.4084  158.5270 C   0  0  0  0  0  0  0  0  0  0  0  0
  196.7173  182.9177  158.6709 C   0  0  0  0  0  0  0  0  0  0  0  0
  195.9759  186.3358  160.3192 C   0  0  0  0  0  0  0  0  0  0  0  0
  195.3191  186.6240  161.3208 O   0  0  0  0  0  0  0  0  0  0  0  0
  196.8282  187.1628  159.6842 N   0  0  0  0  0  0  0  0  0  0  0  0
  197.2207  188.4997  159.9716 C   0  0  0  0  0  0  0  0  0  0  0  0
  198.4132  188.9925  159.3784 C   0  0  0  0  0  0  0  0  0  0  0  0
  199.1794  188.1469  158.5229 N   0  0  0  0  0  0  0  0  0  0  0  0
  200.3606  187.4620  158.9350 C   0  0  0  0  0  0  0  0  0  0  0  0
  200.8759  186.3400  158.2314 C   0  0  0  0  0  0  0  0  0  0  0  0
  201.9824  185.6128  158.7167 C   0  0  0  0  0  0  0  0  0  0  0  0
  202.6338  186.0085  159.8972 C   0  0  0  0  0  0  0  0  0  0  0  0
  202.1659  187.1348  160.5967 C   0  0  0  0  0  0  0  0  0  0  0  0
  201.0454  187.8478  160.1228 C   0  0  0  0  0  0  0  0  0  0  0  0
  198.7706  188.0872  157.0894 C   0  0  2  0  0  0  0  0  0  0  0  0
  199.2252  189.2661  156.3400 C   0  0  0  0  0  0  0  0  0  0  0  0
  199.5803  190.1941  155.7510 N   0  0  0  0  0  0  0  0  0  0  0  0
  197.2712  187.8188  156.8255 C   0  0  2  0  0  0  0  0  0  0  0  0
  198.8044  190.3323  159.6841 C   0  0  0  0  0  0  0  0  0  0  0  0
  197.9552  191.1212  160.5201 C   0  0  0  0  0  0  0  0  0  0  0  0
  196.7840  190.6567  161.0104 N   0  0  0  0  0  0  0  0  0  0  0  0
  196.4440  189.3786  160.7568 C   0  0  0  0  0  0  0  0  0  0  0  0
  198.3507  192.4341  160.8506 C   0  0  0  0  0  0  0  0  0  0  0  0
  199.5532  192.9779  160.3825 C   0  0  0  0  0  0  0  0  0  0  0  0
  200.3918  192.2059  159.5606 C   0  0  0  0  0  0  0  0  0  0  0  0
  200.0185  190.8952  159.2067 C   0  0  0  0  0  0  0  0  0  0  0  0
  193.6581  185.0377  159.7977 H   0  0  0  0  0  0  0  0  0  0  0  0
  193.3232  182.7925  158.8026 H   0  0  0  0  0  0  0  0  0  0  0  0
  195.2776  181.4214  158.1071 H   0  0  0  0  0  0  0  0  0  0  0  0
  197.5642  182.3215  158.3758 H   0  0  0  0  0  0  0  0  0  0  0  0
  197.3151  186.7699  158.9049 H   0  0  0  0  0  0  0  0  0  0  0  0
  200.3900  185.9364  157.3593 H   0  0  0  0  0  0  0  0  0  0  0  0
  202.3064  184.7231  158.1958 H   0  0  0  0  0  0  0  0  0  0  0  0
  203.4678  185.4323  160.2788 H   0  0  0  0  0  0  0  0  0  0  0  0
  202.6485  187.4393  161.5148 H   0  0  0  0  0  0  0  0  0  0  0  0
  200.7036  188.6802  160.7222 H   0  0  0  0  0  0  0  0  0  0  0  0
  199.2697  187.2712  156.5693 H   0  0  0  0  0  0  0  0  0  0  0  0
  197.0822  187.7666  155.7500 H   0  0  0  0  0  0  0  0  0  0  0  0
  196.6431  188.6132  157.2243 H   0  0  0  0  0  0  0  0  0  0  0  0
  196.9441  186.8629  157.2444 H   0  0  0  0  0  0  0  0  0  0  0  0
  195.4856  189.0798  161.1647 H   0  0  0  0  0  0  0  0  0  0  0  0
  197.7082  193.0374  161.4809 H   0  0  0  0  0  0  0  0  0  0  0  0
  199.8318  193.9873  160.6571 H   0  0  0  0  0  0  0  0  0  0  0  0
  201.3268  192.6201  159.2065 H   0  0  0  0  0  0  0  0  0  0  0  0
  200.6896  190.3195  158.5899 H   0  0  0  0  0  0  0  0  0  0  0  0
  1  2  1  0
  2  3  1  0
  2  7  2  0
  3  4  2  0
  3  8  1  0
  4  5  1  0
  4 32  1  0
  5  6  2  0
  5 33  1  0
  6  7  1  0
  6 34  1  0
  7 35  1  0
  8  9  2  0
  8 10  1  0
 10 11  1  0
 10 36  1  0
 11 12  2  0
 11 27  1  0
 12 13  1  0
 12 24  1  0
 13 14  1  0
 13 20  1  0
 14 15  2  0
 14 19  1  0
 15 16  1  0
 15 37  1  0
 16 17  2  0
 16 38  1  0
 17 18  1  0
 17 39  1  0
 18 19  2  0
 18 40  1  0
 19 41  1  0
 20 21  1  0
 20 23  1  0
 20 42  1  6
 21 22  3  0
 23 43  1  6
 23 44  1  0
 23 45  1  0
 24 25  1  0
 24 31  2  0
 25 26  1  0
 25 28  2  0
 26 27  2  0
 27 46  1  0
 28 29  1  0
 28 47  1  0
 29 30  2  0
 29 48  1  0
 30 31  1  0
 30 49  1  0
 31 50  1  0
M  END
>  <s_epik_cmdline>  (1096) 
J2VwaWtfcHl0aG9uJywgJy1waCcsICc3LjAwMDAwMCcsICctcGh0JywgJzIuMDAwMDAwJywgJy1tcycsICcxNicsICctdG4nLCAnOCcsICctbWEnLCAnMjAwJywgJy1pbWFlJywgJzxpbmZpbGUubWFlPicsICctb21hZScsICc8b3V0ZmlsZS5tYWU+Jw==

>  <s_epik_input>  (1096) 
W2NIXTFbY0hdW2NIXVtjSF1jKGMxQ2wpQyg9TylbTkhdYyhbY0hdbmMoYzIzKVtjSF1bY0hdW2NIXVtjSF0zKWMyTihbQ0BIXShDI04pW0NIM10pYzRbY0hdW2NIXVtjSF1bY0hdW2NIXTQ=

>  <s_i_glide_gridfile>  (1096) 
ATP-Grid

>  <s_lp_Force_Field>  (1096) 
OPLS_2005

>  <s_lp_Variant>  (1096) 
rxn502b____EMOL480988____EMOL30488121____EMOL36790511-2

>  <s_lp_label>  (1096) 
2477_sdstereoexpander_2_neutralizer_1_epik_1_stereoizer_1

>  <s_m_source_file>  (1096) 
ATP-VSW-LIGPREP-002-in.maegz

>  <s_sd_BIOSOLVEIT.INFINISEE\_QUERY\_NAME>  (1096) 
Ref-Lig

>  <s_sd_BIOSOLVEIT.INFINISEE\_QUERY\_SMILES>  (1096) 
S(c1nc2c(cc1C[NH2+]Cc3ccc(cc3)C[NH+](C)C)cccc2)Cc4ccccc4

>  <s_sd_BIOSOLVEIT.INFINISEE\_REACTION\_NAME>  (1096) 
rxn502b

>  <s_sd_BIOSOLVEIT.INFINISEE\_REAGENT1\_NAME>  (1096) 
EMOL480988

>  <s_sd_BIOSOLVEIT.INFINISEE\_REAGENT1\_SMILES>  (1096) 
Clc1c(cccc1)C(=O)O

>  <s_sd_BIOSOLVEIT.INFINISEE\_REAGENT2\_NAME>  (1096) 
EMOL30488121

>  <s_sd_BIOSOLVEIT.INFINISEE\_REAGENT2\_SMILES>  (1096) 
Brc1c(N)cnc2c1cccc2

>  <s_sd_BIOSOLVEIT.INFINISEE\_REAGENT3\_NAME>  (1096) 
EMOL36790511

>  <s_sd_BIOSOLVEIT.INFINISEE\_REAGENT3\_SMILES>  (1096) 
N#CC(Nc1ccccc1)C

>  <s_sd_BIOSOLVEIT.INFINISEE\_SPACE>  (1096) 
eXplore_7tr_2022-12

>  <s_vsw_compound_code>  (1096) 
79234

>  <s_vsw_variant>  (1096) 
79234-2

>  <r_epik_Charging_Adjusted_Penalty>  (1096) 
0.019463526243537001

>  <r_epik_Ionization_Penalty>  (1096) 
0.0195

>  <r_epik_Ionization_Penalty_Charging>  (1096) 
0

>  <r_epik_Ionization_Penalty_Neutral>  (1096) 
0.0195

>  <r_epik_State_Penalty>  (1096) 
0.0195

>  <r_i_docking_score>  (1096) 
-3.83687277027258

>  <r_i_glide_ecoul>  (1096) 
-4.0368208885192898

>  <r_i_glide_eff_state_penalty>  (1096) 
0.0195

>  <r_i_glide_einternal>  (1096) 
2.7522416114807098

>  <r_i_glide_emodel>  (1096) 
-49.5136962076324

>  <r_i_glide_energy>  (1096) 
-40.771317958831801

>  <r_i_glide_erotb>  (1096) 
0.54461146686817496

>  <r_i_glide_esite>  (1096) 
-0.0041779086147065402

>  <r_i_glide_evdw>  (1096) 
-36.7344970703125

>  <r_i_glide_gscore>  (1096) 
-3.8563727702725799

>  <r_i_glide_hbond>  (1096) 
0

>  <r_i_glide_ligand_efficiency>  (1096) 
-0.123770089363632

>  <r_i_glide_ligand_efficiency_ln>  (1096) 
-0.86533239572532705

>  <r_i_glide_ligand_efficiency_sa>  (1096) 
-0.38880896362661099

>  <r_i_glide_lipo>  (1096) 
-1.0370623254875

>  <r_i_glide_metal>  (1096) 
-0

>  <r_i_glide_rewards>  (1096) 
-0.91749601624502897

>  <r_lp_Energy>  (1096) 
38.823219000000002

>  <r_qp_ACxDN^.5/SA>  (1096) 
0.0081090999999999993

>  <r_qp_CIQPlogS>  (1096) 
-8.0169999999999995

>  <r_qp_EA(eV)>  (1096) 
1.3120000000000001

>  <r_qp_FISA>  (1096) 
108.16500000000001

>  <r_qp_FOSA>  (1096) 
49.909999999999997

>  <r_qp_IP(eV)>  (1096) 
8.7200000000000006

>  <r_qp_Jm>  (1096) 
0.0037641122069511398

>  <r_qp_PISA>  (1096) 
478.59100000000001

>  <r_qp_PSA>  (1096) 
68.947999999999993

>  <r_qp_PercentHumanOralAbsorption>  (1096) 
100

>  <r_qp_QPPCaco>  (1096) 
933.62900000000002

>  <r_qp_QPPMDCK>  (1096) 
776.08399999999995

>  <r_qp_QPlogBB>  (1096) 
-0.72799999999999998

>  <r_qp_QPlogHERG>  (1096) 
-6.4669999999999996

>  <r_qp_QPlogKhsa>  (1096) 
0.745

>  <r_qp_QPlogKp>  (1096) 
-1.2509999999999999

>  <r_qp_QPlogPC16>  (1096) 
14.657999999999999

>  <r_qp_QPlogPo/w>  (1096) 
4.9299999999999997

>  <r_qp_QPlogPoct>  (1096) 
20.367000000000001

>  <r_qp_QPlogPw>  (1096) 
10.916

>  <r_qp_QPlogS>  (1096) 
-6.8040000000000003

>  <r_qp_QPpolrz>  (1096) 
45.378

>  <r_qp_SASA>  (1096) 
678.25

>  <r_qp_SAamideO>  (1096) 
0

>  <r_qp_SAfluorine>  (1096) 
0

>  <r_qp_WPSA>  (1096) 
41.584000000000003

>  <r_qp_accptHB>  (1096) 
5.5

>  <r_qp_dip^2/V>  (1096) 
0.0275147

>  <r_qp_dipole>  (1096) 
5.9109999999999996

>  <r_qp_donorHB>  (1096) 
1

>  <r_qp_glob>  (1096) 
0.83607370000000003

>  <r_qp_mol_MW>  (1096) 
426.904

>  <r_qp_volume>  (1096) 
1269.7080000000001

>  <r_sd_BIOSOLVEIT.INFINISEE\_FTREES\_SIMILARITY>  (1096) 
0.91500000000000004

>  <r_sd_BIOSOLVEIT.LOGP>  (1096) 
6.1906800000000004

>  <r_sd_BIOSOLVEIT.MOLECULAR\_WEIGHT>  (1096) 
426.90499999999997

>  <r_sd_BIOSOLVEIT.TPSA>  (1096) 
69.019999999999996

>  <i_epik_Tot_Q>  (1096) 
0

>  <i_epik_Tot_abs_Q>  (1096) 
0

>  <i_f3d_flags>  (1096) 
0

>  <i_i_glide_confnum>  (1096) 
6

>  <i_i_glide_lignum>  (1096) 
1069

>  <i_i_glide_posenum>  (1096) 
13

>  <i_i_glide_rotatable_bonds>  (1096) 
6

>  <i_lp_mmshare_version>  (1096) 
65135

>  <i_m_ct_format>  (1096) 
2

>  <i_m_source_file_index>  (1096) 
2477

>  <i_qp_#NandO>  (1096) 
5

>  <i_qp_#acid>  (1096) 
0

>  <i_qp_#amide>  (1096) 
0

>  <i_qp_#amidine>  (1096) 
0

>  <i_qp_#amine>  (1096) 
0

>  <i_qp_#in34>  (1096) 
0

>  <i_qp_#in56>  (1096) 
22

>  <i_qp_#metab>  (1096) 
4

>  <i_qp_#nonHatm>  (1096) 
31

>  <i_qp_#noncon>  (1096) 
0

>  <i_qp_#ringatoms>  (1096) 
22

>  <i_qp_#rotor>  (1096) 
6

>  <i_qp_#rtvFG>  (1096) 
0

>  <i_qp_#stars>  (1096) 
2

>  <i_qp_CNS>  (1096) 
-1

>  <i_qp_HumanOralAbsorption>  (1096) 
1

>  <i_qp_RuleOfFive>  (1096) 
0

>  <i_qp_RuleOfThree>  (1096) 
1

>  <i_sd_BIOSOLVEIT.INFINISEE\_RESULT\_RANK>  (1096) 
28508

>  <i_sd_version>  (1096) 
0

>  <b_lp_Chiralities_Consistent>  (1096) 
1

>  <b_sd_chiral_flag>  (1096) 
0

>  <canonical_id>  (1096) 
ATP-HTVS-AF0D06B60C3E

>  <compound_code>  (1096) 
79234

>  <title>  (1096) 
rxn502b____EMOL480988____EMOL30488121____EMOL36790511

>  <variant>  (1096) 
79234-2

>  <source_file>  (1096) 
运行/运行/ATP-VSW/ATP-VSW-DOCK_HTVS_1-002_lib.maegz

>  <canonical_smiles>  (1096) 
C[C@@H](C#N)N(c1ccccc1)c1c(NC(=O)c2ccccc2Cl)cnc2ccccc12

>  <scaffold>  (1096) 
O=C(Nc1cnc2ccccc2c1Nc1ccccc1)c1ccccc1

>  <molecular_formula>  (1096) 
C25H19ClN4O

$$$$
ATP-HTVS-AF24076E5CF3
     RDKit          3D

 62 65  0  0  0  0  0  0  0  0999 V2000
  196.2729  182.7958  158.3468 S   0  0  0  0  0  0  0  0  0  0  0  0
  197.9940  183.1306  158.2331 C   0  0  0  0  0  0  0  0  0  0  0  0
  198.5598  182.5011  157.0737 C   0  0  0  0  0  0  0  0  0  0  0  0
  199.9457  182.7186  156.8641 C   0  0  0  0  0  0  0  0  0  0  0  0
  200.7189  183.5014  157.7290 C   0  0  0  0  0  0  0  0  0  0  0  0
  200.1387  184.0997  158.8650 C   0  0  0  0  0  0  0  0  0  0  0  0
  198.7681  183.9142  159.1184 C   0  0  0  0  0  0  0  0  0  0  0  0
  197.5712  181.7692  156.2980 C   0  0  0  0  0  0  0  0  0  0  0  0
  196.3354  181.8528  156.8932 C   0  0  0  0  0  0  0  0  0  0  0  0
  197.7784  181.0120  155.0053 C   0  0  1  0  0  0  0  0  0  0  0  0
  197.6663  181.8628  153.7874 N   0  0  0  0  0  0  0  0  0  0  0  0
  197.1191  181.4215  152.6211 C   0  0  0  0  0  0  0  0  0  0  0  0
  196.9952  182.1548  151.6376 O   0  0  0  0  0  0  0  0  0  0  0  0
  196.6321  179.9656  152.4832 C   0  0  1  0  0  0  0  0  0  0  0  0
  197.0370  179.3746  151.1445 C   0  0  0  0  0  0  0  0  0  0  0  0
  196.2568  179.6144  149.9952 C   0  0  0  0  0  0  0  0  0  0  0  0
  196.6199  179.0347  148.7642 C   0  0  0  0  0  0  0  0  0  0  0  0
  197.7618  178.2084  148.6778 C   0  0  0  0  0  0  0  0  0  0  0  0
  198.5430  177.9676  149.8285 C   0  0  0  0  0  0  0  0  0  0  0  0
  198.1805  178.5544  151.0556 C   0  0  0  0  0  0  0  0  0  0  0  0
  198.1700  177.6112  147.3421 C   0  0  1  0  0  0  0  0  0  0  0  0
  199.2063  178.4235  146.6473 N   0  0  2  0  0  0  0  0  0  0  0  0
  198.8713  179.8633  146.5167 C   0  0  2  0  0  0  0  0  0  0  0  0
  199.5694  177.8377  145.3389 C   0  0  2  0  0  0  0  0  0  0  0  0
  198.2158  183.2399  153.8176 C   0  0  1  0  0  0  0  0  0  0  0  0
  197.1203  184.3097  153.9959 C   0  0  2  0  0  0  0  0  0  0  0  0
  199.0151  180.0929  155.0310 C   0  0  0  0  0  0  0  0  0  0  0  0
  200.2517  180.4362  154.4281 C   0  0  0  0  0  0  0  0  0  0  0  0
  201.3603  179.6718  154.5203 N   0  0  0  0  0  0  0  0  0  0  0  0
  201.2833  178.5073  155.1961 C   0  0  0  0  0  0  0  0  0  0  0  0
  200.0912  178.0374  155.7701 C   0  0  0  0  0  0  0  0  0  0  0  0
  198.9404  178.8453  155.6830 C   0  0  0  0  0  0  0  0  0  0  0  0
  200.4472  182.3114  155.9998 H   0  0  0  0  0  0  0  0  0  0  0  0
  201.7642  183.6454  157.4978 H   0  0  0  0  0  0  0  0  0  0  0  0
  200.7453  184.7149  159.5112 H   0  0  0  0  0  0  0  0  0  0  0  0
  198.2840  184.3908  159.9656 H   0  0  0  0  0  0  0  0  0  0  0  0
  195.4163  181.4113  156.5283 H   0  0  0  0  0  0  0  0  0  0  0  0
  196.9285  180.3233  154.9942 H   0  0  0  0  0  0  0  0  0  0  0  0
  197.0371  179.2827  153.2266 H   0  0  0  0  0  0  0  0  0  0  0  0
  195.5469  179.9344  152.5717 H   0  0  0  0  0  0  0  0  0  0  0  0
  195.3758  180.2350  150.0665 H   0  0  0  0  0  0  0  0  0  0  0  0
  196.0094  179.2184  147.8916 H   0  0  0  0  0  0  0  0  0  0  0  0
  199.4228  177.3415  149.7832 H   0  0  0  0  0  0  0  0  0  0  0  0
  198.7804  178.3649  151.9342 H   0  0  0  0  0  0  0  0  0  0  0  0
  198.5541  176.6033  147.5083 H   0  0  0  0  0  0  0  0  0  0  0  0
  197.2821  177.4990  146.7178 H   0  0  0  0  0  0  0  0  0  0  0  0
  197.9538  179.9917  145.9411 H   0  0  0  0  0  0  0  0  0  0  0  0
  199.6673  180.4059  146.0058 H   0  0  0  0  0  0  0  0  0  0  0  0
  198.7442  180.3460  147.4886 H   0  0  0  0  0  0  0  0  0  0  0  0
  198.7058  177.8452  144.6729 H   0  0  0  0  0  0  0  0  0  0  0  0
  199.9211  176.8105  145.4422 H   0  0  0  0  0  0  0  0  0  0  0  0
  200.3662  178.4075  144.8599 H   0  0  0  0  0  0  0  0  0  0  0  0
  198.9578  183.3887  154.5963 H   0  0  0  0  0  0  0  0  0  0  0  0
  198.7670  183.4171  152.8872 H   0  0  0  0  0  0  0  0  0  0  0  0
  197.5347  185.3127  153.9279 H   0  0  0  0  0  0  0  0  0  0  0  0
  196.6563  184.2128  154.9715 H   0  0  0  0  0  0  0  0  0  0  0  0
  196.3353  184.2351  153.2508 H   0  0  0  0  0  0  0  0  0  0  0  0
  200.3805  181.3703  153.9077 H   0  0  0  0  0  0  0  0  0  0  0  0
  202.2004  177.9280  155.2775 H   0  0  0  0  0  0  0  0  0  0  0  0
  200.0595  177.0854  156.2881 H   0  0  0  0  0  0  0  0  0  0  0  0
  198.0154  178.5224  156.1336 H   0  0  0  0  0  0  0  0  0  0  0  0
  200.0313  178.3805  147.2283 H   0  0  0  0  0  0  0  0  0  0  0  0
  1  2  1  0
  1  9  1  0
  2  3  1  0
  2  7  2  0
  3  4  2  0
  3  8  1  0
  4  5  1  0
  4 33  1  0
  5  6  2  0
  5 34  1  0
  6  7  1  0
  6 35  1  0
  7 36  1  0
  8  9  2  0
  8 10  1  0
  9 37  1  0
 10 11  1  0
 10 27  1  0
 10 38  1  6
 11 12  1  0
 11 25  1  0
 12 13  2  0
 12 14  1  0
 14 15  1  0
 14 39  1  1
 14 40  1  0
 15 16  1  0
 15 20  2  0
 16 17  2  0
 16 41  1  0
 17 18  1  0
 17 42  1  0
 18 19  2  0
 18 21  1  0
 19 20  1  0
 19 43  1  0
 20 44  1  0
 21 22  1  0
 21 45  1  1
 21 46  1  0
 22 23  1  0
 22 24  1  0
 22 62  1  1
 23 47  1  6
 23 48  1  0
 23 49  1  0
 24 50  1  6
 24 51  1  0
 24 52  1  0
 25 26  1  0
 25 53  1  1
 25 54  1  0
 26 55  1  1
 26 56  1  0
 26 57  1  0
 27 28  2  0
 27 32  1  0
 28 29  1  0
 28 58  1  0
 29 30  2  0
 30 31  1  0
 30 59  1  0
 31 32  2  0
 31 60  1  0
 32 61  1  0
M  CHG  1  22   1
M  END
>  <s_epik_cmdline>  (1097) 
J2VwaWtfcHl0aG9uJywgJy1waCcsICc3LjAwMDAwMCcsICctcGh0JywgJzIuMDAwMDAwJywgJy1tcycsICcxNicsICctdG4nLCAnOCcsICctbWEnLCAnMjAwJywgJy1pbWFlJywgJzxpbmZpbGUubWFlPicsICctb21hZScsICc8b3V0ZmlsZS5tYWU+Jw==

>  <s_epik_input>  (1097) 
W2NIXTFbY0hdW2NIXVtjSF1jKGMxMiljKFtjSF1zMilbQ0BIXShjM1tjSF1uW2NIXVtjSF1bY0hdMylOKFtDSDJdW0NIM10pQyg9TylbQ0gyXWM0W2NIXVtjSF1jKFtjSF1bY0hdNClbQ0gyXU4oW0NIM10pW0NIM10=

>  <s_i_glide_gridfile>  (1097) 
ATP-Grid

>  <s_lp_Force_Field>  (1097) 
OPLS_2005

>  <s_lp_Variant>  (1097) 
m_22dcb____4784852____24594302-2

>  <s_lp_label>  (1097) 
1517_sdstereoexpander_2_neutralizer_1_epik_1_stereoizer_1

>  <s_m_source_file>  (1097) 
ATP-VSW-LIGPREP-001-in.maegz

>  <s_sd_BIOSOLVEIT.INFINISEE\_QUERY\_NAME>  (1097) 
Ref-Lig

>  <s_sd_BIOSOLVEIT.INFINISEE\_QUERY\_SMILES>  (1097) 
S(c1nc2c(cc1C[NH2+]Cc3ccc(cc3)C[NH+](C)C)cccc2)Cc4ccccc4

>  <s_sd_BIOSOLVEIT.INFINISEE\_REACTION\_NAME>  (1097) 
m_22dcb

>  <s_sd_BIOSOLVEIT.INFINISEE\_REAGENT1\_SMILES>  (1097) 
[R1*]N(C(c1cnccc1)C=2c3c(SC2)cccc3)CC

>  <s_sd_BIOSOLVEIT.INFINISEE\_REAGENT2\_SMILES>  (1097) 
[R1*]C(=O)Cc1ccc(cc1)CN(C)C

>  <s_sd_BIOSOLVEIT.INFINISEE\_SPACE>  (1097) 
REALSpace_44bn_2023-08

>  <s_vsw_compound_code>  (1097) 
48513

>  <s_vsw_variant>  (1097) 
48513-2

>  <r_epik_Charging_Adjusted_Penalty>  (1097) 
0.100284005177026

>  <r_epik_Ionization_Penalty>  (1097) 
0.054100000000000002

>  <r_epik_Ionization_Penalty_Charging>  (1097) 
0.046100000000000002

>  <r_epik_Ionization_Penalty_Neutral>  (1097) 
0.0080000000000000002

>  <r_epik_State_Penalty>  (1097) 
0.054199999999999998

>  <r_i_docking_score>  (1097) 
-3.55872693725179

>  <r_i_glide_ecoul>  (1097) 
-6.7144188880920401

>  <r_i_glide_eff_state_penalty>  (1097) 
0.054199999999999998

>  <r_i_glide_einternal>  (1097) 
3.80814456939697

>  <r_i_glide_emodel>  (1097) 
-50.612582353423001

>  <r_i_glide_energy>  (1097) 
-40.942286014556899

>  <r_i_glide_erotb>  (1097) 
0.70826319370938495

>  <r_i_glide_esite>  (1097) 
-0.027919880378851802

>  <r_i_glide_evdw>  (1097) 
-34.227867126464801

>  <r_i_glide_gscore>  (1097) 
-3.6129269372517898

>  <r_i_glide_hbond>  (1097) 
0

>  <r_i_glide_ligand_efficiency>  (1097) 
-0.11121021678911901

>  <r_i_glide_ligand_efficiency_ln>  (1097) 
-0.79689596848320099

>  <r_i_glide_ligand_efficiency_sa>  (1097) 
-0.35307042983343401

>  <r_i_glide_lipo>  (1097) 
-1.1970726974089101

>  <r_i_glide_metal>  (1097) 
-0

>  <r_i_glide_rewards>  (1097) 
-0.37764136363636203

>  <r_lp_Energy>  (1097) 
30.925439999999998

>  <r_qp_ACxDN^.5/SA>  (1097) 
0

>  <r_qp_CIQPlogS>  (1097) 
-5.048

>  <r_qp_EA(eV)>  (1097) 
0.86899999999999999

>  <r_qp_FISA>  (1097) 
46.186

>  <r_qp_FOSA>  (1097) 
285.86799999999999

>  <r_qp_IP(eV)>  (1097) 
8.9260000000000002

>  <r_qp_Jm>  (1097) 
0.099340244156951599

>  <r_qp_PISA>  (1097) 
377.36500000000001

>  <r_qp_PSA>  (1097) 
41.179000000000002

>  <r_qp_PercentHumanOralAbsorption>  (1097) 
100

>  <r_qp_QPPCaco>  (1097) 
646.04499999999996

>  <r_qp_QPPMDCK>  (1097) 
926.048

>  <r_qp_QPlogBB>  (1097) 
0.13700000000000001

>  <r_qp_QPlogHERG>  (1097) 
-5.7309999999999999

>  <r_qp_QPlogKhsa>  (1097) 
0.40000000000000002

>  <r_qp_QPlogKp>  (1097) 
-2.3359999999999999

>  <r_qp_QPlogPC16>  (1097) 
14.932

>  <r_qp_QPlogPo/w>  (1097) 
4.6909999999999998

>  <r_qp_QPlogPoct>  (1097) 
20.359000000000002

>  <r_qp_QPlogPw>  (1097) 
10.429

>  <r_qp_QPlogS>  (1097) 
-4.3140000000000001

>  <r_qp_QPpolrz>  (1097) 
49.969000000000001

>  <r_qp_SASA>  (1097) 
760.029

>  <r_qp_SAamideO>  (1097) 
18.16

>  <r_qp_SAfluorine>  (1097) 
0

>  <r_qp_WPSA>  (1097) 
50.609999999999999

>  <r_qp_accptHB>  (1097) 
6.5

>  <r_qp_dip^2/V>  (1097) 
0.0151053

>  <r_qp_dipole>  (1097) 
4.665

>  <r_qp_donorHB>  (1097) 
0

>  <r_qp_glob>  (1097) 
0.81167230000000001

>  <r_qp_mol_MW>  (1097) 
443.60599999999999

>  <r_qp_volume>  (1097) 
1440.683

>  <r_sd_BIOSOLVEIT.INFINISEE\_FTREES\_SIMILARITY>  (1097) 
0.90700000000000003

>  <r_sd_BIOSOLVEIT.LOGP>  (1097) 
4.1214000000000004

>  <r_sd_BIOSOLVEIT.MOLECULAR\_WEIGHT>  (1097) 
444.61900000000003

>  <r_sd_BIOSOLVEIT.TPSA>  (1097) 
37.640000000000001

>  <i_epik_Tot_Q>  (1097) 
1

>  <i_epik_Tot_abs_Q>  (1097) 
1

>  <i_f3d_flags>  (1097) 
0

>  <i_i_glide_confnum>  (1097) 
6

>  <i_i_glide_lignum>  (1097) 
396

>  <i_i_glide_posenum>  (1097) 
6

>  <i_i_glide_rotatable_bonds>  (1097) 
9

>  <i_lp_mmshare_version>  (1097) 
65135

>  <i_m_ct_format>  (1097) 
2

>  <i_m_source_file_index>  (1097) 
1517

>  <i_qp_#NandO>  (1097) 
4

>  <i_qp_#acid>  (1097) 
0

>  <i_qp_#amide>  (1097) 
1

>  <i_qp_#amidine>  (1097) 
0

>  <i_qp_#amine>  (1097) 
1

>  <i_qp_#in34>  (1097) 
0

>  <i_qp_#in56>  (1097) 
21

>  <i_qp_#metab>  (1097) 
8

>  <i_qp_#nonHatm>  (1097) 
32

>  <i_qp_#noncon>  (1097) 
0

>  <i_qp_#ringatoms>  (1097) 
21

>  <i_qp_#rotor>  (1097) 
8

>  <i_qp_#rtvFG>  (1097) 
0

>  <i_qp_#stars>  (1097) 
0

>  <i_qp_CNS>  (1097) 
1

>  <i_qp_HumanOralAbsorption>  (1097) 
3

>  <i_qp_RuleOfFive>  (1097) 
0

>  <i_qp_RuleOfThree>  (1097) 
1

>  <i_sd_BIOSOLVEIT.INFINISEE\_REAGENT1\_NAME>  (1097) 
4784852

>  <i_sd_BIOSOLVEIT.INFINISEE\_REAGENT2\_NAME>  (1097) 
24594302

>  <i_sd_BIOSOLVEIT.INFINISEE\_RESULT\_RANK>  (1097) 
60473

>  <i_sd_version>  (1097) 
0

>  <b_lp_Chiralities_Consistent>  (1097) 
1

>  <b_sd_chiral_flag>  (1097) 
0

>  <canonical_id>  (1097) 
ATP-HTVS-AF24076E5CF3

>  <compound_code>  (1097) 
48513

>  <title>  (1097) 
m_22dcb____4784852____24594302

>  <variant>  (1097) 
48513-2

>  <source_file>  (1097) 
运行/运行/ATP-VSW/ATP-VSW-DOCK_HTVS_1-001_lib/ATP-VSW-DOCK_HTVS_1-001_lib

>  <canonical_smiles>  (1097) 
CCN(C(=O)Cc1ccc(C[NH+](C)C)cc1)[C@@H](c1cccnc1)c1csc2ccccc12

>  <scaffold>  (1097) 
O=C(Cc1ccccc1)NC(c1cccnc1)c1csc2ccccc12

>  <molecular_formula>  (1097) 
C27H30N3OS+

$$$$
ATP-HTVS-AF546DDC8B5A
     RDKit          3D

 54 57  0  0  0  0  0  0  0  0999 V2000
  198.1785  188.6866  160.1224 O   0  0  0  0  0  0  0  0  0  0  0  0
  197.1369  187.8133  160.2677 C   0  0  0  0  0  0  0  0  0  0  0  0
  195.9496  188.1847  160.9327 C   0  0  0  0  0  0  0  0  0  0  0  0
  194.9285  187.2296  161.1287 C   0  0  0  0  0  0  0  0  0  0  0  0
  195.0818  185.9130  160.6572 C   0  0  0  0  0  0  0  0  0  0  0  0
  196.2708  185.5380  160.0021 C   0  0  0  0  0  0  0  0  0  0  0  0
  197.2890  186.4913  159.8010 C   0  0  0  0  0  0  0  0  0  0  0  0
  196.4778  184.1081  159.5429 C   0  0  1  0  0  0  0  0  0  0  0  0
  196.5793  183.9998  158.0267 C   0  0  1  0  0  0  0  0  0  0  0  0
  197.1474  182.7008  157.6310 N   0  0  1  0  0  0  0  0  0  0  0  0
  197.7127  182.7349  156.2778 C   0  0  1  0  0  0  0  0  0  0  0  0
  198.5053  181.4668  156.1952 C   0  0  0  0  0  0  0  0  0  0  0  0
  199.7307  181.3844  156.7210 N   0  0  0  0  0  0  0  0  0  0  0  0
  200.0888  180.0762  156.4607 C   0  0  0  0  0  0  0  0  0  0  0  0
  199.0446  179.3898  155.7729 C   0  0  0  0  0  0  0  0  0  0  0  0
  198.0386  180.3436  155.6048 N   0  0  0  0  0  0  0  0  0  0  0  0
  196.7565  180.1249  154.9453 C   0  0  1  0  0  0  0  0  0  0  0  0
  196.7616  180.5696  153.4765 C   0  0  0  0  0  0  0  0  0  0  0  0
  196.7390  181.9489  153.1315 C   0  0  0  0  0  0  0  0  0  0  0  0
  196.7466  182.3424  151.7800 C   0  0  0  0  0  0  0  0  0  0  0  0
  196.7548  181.3908  150.7460 C   0  0  0  0  0  0  0  0  0  0  0  0
  196.7564  180.0126  151.0746 C   0  0  0  0  0  0  0  0  0  0  0  0
  196.7652  179.6033  152.4373 C   0  0  0  0  0  0  0  0  0  0  0  0
  199.1680  178.0352  155.4231 C   0  0  0  0  0  0  0  0  0  0  0  0
  200.3421  177.3296  155.7550 C   0  0  0  0  0  0  0  0  0  0  0  0
  201.3903  177.9967  156.4184 C   0  0  0  0  0  0  0  0  0  0  0  0
  201.2674  179.3568  156.7691 C   0  0  0  0  0  0  0  0  0  0  0  0
  195.7610  189.6049  161.4321 C   0  0  2  0  0  0  0  0  0  0  0  0
  197.8616  182.4195  158.2860 H   0  0  0  0  0  0  0  0  0  0  0  0
  198.4072  189.1573  160.9177 H   0  0  0  0  0  0  0  0  0  0  0  0
  194.0152  187.5073  161.6289 H   0  0  0  0  0  0  0  0  0  0  0  0
  194.2874  185.1962  160.8044 H   0  0  0  0  0  0  0  0  0  0  0  0
  198.2236  186.2039  159.3416 H   0  0  0  0  0  0  0  0  0  0  0  0
  197.3912  183.7250  160.0051 H   0  0  0  0  0  0  0  0  0  0  0  0
  195.6624  183.4719  159.8924 H   0  0  0  0  0  0  0  0  0  0  0  0
  195.5948  184.1398  157.5773 H   0  0  0  0  0  0  0  0  0  0  0  0
  197.2027  184.8052  157.6337 H   0  0  0  0  0  0  0  0  0  0  0  0
  196.8528  182.7934  155.6415 H   0  0  0  0  0  0  0  0  0  0  0  0
  198.3950  183.5857  156.1271 H   0  0  0  0  0  0  0  0  0  0  0  0
  196.5080  179.0677  155.0253 H   0  0  0  0  0  0  0  0  0  0  0  0
  195.9743  180.6332  155.5005 H   0  0  0  0  0  0  0  0  0  0  0  0
  196.6756  182.7514  153.8287 H   0  0  0  0  0  0  0  0  0  0  0  0
  196.7299  183.3979  151.5630 H   0  0  0  0  0  0  0  0  0  0  0  0
  196.7543  181.7178  149.7163 H   0  0  0  0  0  0  0  0  0  0  0  0
  196.7554  179.2710  150.2805 H   0  0  0  0  0  0  0  0  0  0  0  0
  196.7624  178.5479  152.6592 H   0  0  0  0  0  0  0  0  0  0  0  0
  198.3509  177.5207  154.9413 H   0  0  0  0  0  0  0  0  0  0  0  0
  200.4431  176.2854  155.5138 H   0  0  0  0  0  0  0  0  0  0  0  0
  202.2924  177.4563  156.6570 H   0  0  0  0  0  0  0  0  0  0  0  0
  202.0793  179.8582  157.2815 H   0  0  0  0  0  0  0  0  0  0  0  0
  194.7891  189.7348  161.9069 H   0  0  0  0  0  0  0  0  0  0  0  0
  195.8245  190.3090  160.6017 H   0  0  0  0  0  0  0  0  0  0  0  0
  196.5342  189.8544  162.1583 H   0  0  0  0  0  0  0  0  0  0  0  0
  196.4240  182.0006  157.6247 H   0  0  0  0  0  0  0  0  0  0  0  0
  1  2  1  0
  1 30  1  0
  2  3  2  0
  2  7  1  0
  3  4  1  0
  3 28  1  0
  4  5  2  0
  4 31  1  0
  5  6  1  0
  5 32  1  0
  6  7  2  0
  6  8  1  0
  7 33  1  0
  8  9  1  0
  8 34  1  1
  8 35  1  0
  9 10  1  0
  9 36  1  6
  9 37  1  0
 10 11  1  0
 10 29  1  1
 10 54  1  0
 11 12  1  0
 11 38  1  6
 11 39  1  0
 12 13  2  0
 12 16  1  0
 13 14  1  0
 14 15  1  0
 14 27  2  0
 15 16  1  0
 15 24  2  0
 16 17  1  0
 17 18  1  0
 17 40  1  6
 17 41  1  0
 18 19  2  0
 18 23  1  0
 19 20  1  0
 19 42  1  0
 20 21  2  0
 20 43  1  0
 21 22  1  0
 21 44  1  0
 22 23  2  0
 22 45  1  0
 23 46  1  0
 24 25  1  0
 24 47  1  0
 25 26  2  0
 25 48  1  0
 26 27  1  0
 26 49  1  0
 27 50  1  0
 28 51  1  1
 28 52  1  0
 28 53  1  0
M  CHG  1  10   1
M  END
>  <s_epik_cmdline>  (1098) 
J2VwaWtfcHl0aG9uJywgJy1waCcsICc3LjAwMDAwMCcsICctcGh0JywgJzIuMDAwMDAwJywgJy1tcycsICcxNicsICctdG4nLCAnOCcsICctbWEnLCAnMjAwJywgJy1pbWFlJywgJzxpbmZpbGUubWFlPicsICctb21hZScsICc8b3V0ZmlsZS5tYWU+Jw==

>  <s_epik_input>  (1098) 
W09IXWMxYyhbQ0gzXSlbY0hdW2NIXWMoW2NIXTEpW0NIMl1bQ0gyXVtOSF1bQ0gyXWMobjIpbihjKGMyMylbY0hdW2NIXVtjSF1bY0hdMylbQ0gyXWM0W2NIXVtjSF1bY0hdW2NIXVtjSF00

>  <s_i_glide_gridfile>  (1098) 
ATP-Grid

>  <s_lp_Force_Field>  (1098) 
OPLS_2005

>  <s_lp_Variant>  (1098) 
m_270004bbb____24791870____24720860-1

>  <s_lp_label>  (1098) 
1245_sdstereoexpander_1_neutralizer_1_epik_1_stereoizer_1

>  <s_m_source_file>  (1098) 
ATP-VSW-LIGPREP-003-in.maegz

>  <s_sd_BIOSOLVEIT.INFINISEE\_QUERY\_NAME>  (1098) 
Ref-Lig

>  <s_sd_BIOSOLVEIT.INFINISEE\_QUERY\_SMILES>  (1098) 
S(c1nc2c(cc1C[NH2+]Cc3ccc(cc3)C[NH+](C)C)cccc2)Cc4ccccc4

>  <s_sd_BIOSOLVEIT.INFINISEE\_REACTION\_NAME>  (1098) 
m_270004bbb

>  <s_sd_BIOSOLVEIT.INFINISEE\_REAGENT1\_SMILES>  (1098) 
[R1*]NCCc1cc(O)c(cc1)C

>  <s_sd_BIOSOLVEIT.INFINISEE\_REAGENT2\_SMILES>  (1098) 
[R1*]CC1=Nc2c(N1Cc3ccccc3)cccc2

>  <s_sd_BIOSOLVEIT.INFINISEE\_SPACE>  (1098) 
REALSpace_44bn_2023-08

>  <s_vsw_compound_code>  (1098) 
39811

>  <s_vsw_variant>  (1098) 
39811-1

>  <r_epik_Charging_Adjusted_Penalty>  (1098) 
0.118451747801628

>  <r_epik_Ionization_Penalty>  (1098) 
0.055599999999999997

>  <r_epik_Ionization_Penalty_Charging>  (1098) 
0.053900000000000003

>  <r_epik_Ionization_Penalty_Neutral>  (1098) 
0.0016999999999999999

>  <r_epik_State_Penalty>  (1098) 
0.064600000000000005

>  <r_i_docking_score>  (1098) 
-4.8672803770161899

>  <r_i_glide_ecoul>  (1098) 
-7.4915757179260298

>  <r_i_glide_eff_state_penalty>  (1098) 
0.064600000000000005

>  <r_i_glide_einternal>  (1098) 
5.0425977706909197

>  <r_i_glide_emodel>  (1098) 
-54.264392300934702

>  <r_i_glide_energy>  (1098) 
-39.369537830352797

>  <r_i_glide_erotb>  (1098) 
0.97447796415444998

>  <r_i_glide_esite>  (1098) 
-0.12596336340921599

>  <r_i_glide_evdw>  (1098) 
-31.8779621124268

>  <r_i_glide_gscore>  (1098) 
-4.9318803770161903

>  <r_i_glide_hbond>  (1098) 
-0.16

>  <r_i_glide_ligand_efficiency>  (1098) 
-0.173831442036293

>  <r_i_glide_ligand_efficiency_ln>  (1098) 
-1.1235112205770099

>  <r_i_glide_ligand_efficiency_sa>  (1098) 
-0.52785463926634302

>  <r_i_glide_lipo>  (1098) 
-1.8083246508148201

>  <r_i_glide_metal>  (1098) 
-0

>  <r_i_glide_rewards>  (1098) 
-1.09443586363636

>  <r_lp_Energy>  (1098) 
16.057967999999999

>  <r_lp_tautomer_probability>  (1098) 
0.999999999997365

>  <r_qp_ACxDN^.5/SA>  (1098) 
0.0079182999999999996

>  <r_qp_CIQPlogS>  (1098) 
-5.3710000000000004

>  <r_qp_EA(eV)>  (1098) 
0.042000000000000003

>  <r_qp_FISA>  (1098) 
69.466999999999999

>  <r_qp_FOSA>  (1098) 
217.55600000000001

>  <r_qp_IP(eV)>  (1098) 
8.5530000000000008

>  <r_qp_Jm>  (1098) 
0.0258189321553795

>  <r_qp_PISA>  (1098) 
382.73200000000003

>  <r_qp_PSA>  (1098) 
44.363999999999997

>  <r_qp_PercentHumanOralAbsorption>  (1098) 
100

>  <r_qp_QPPCaco>  (1098) 
542.06100000000004

>  <r_qp_QPPMDCK>  (1098) 
282.33699999999999

>  <r_qp_QPlogBB>  (1098) 
-0.19400000000000001

>  <r_qp_QPlogHERG>  (1098) 
-6.8529999999999998

>  <r_qp_QPlogKhsa>  (1098) 
0.81899999999999995

>  <r_qp_QPlogKp>  (1098) 
-2.746

>  <r_qp_QPlogPC16>  (1098) 
13.282999999999999

>  <r_qp_QPlogPo/w>  (1098) 
4.6840000000000002

>  <r_qp_QPlogPoct>  (1098) 
18.687000000000001

>  <r_qp_QPlogPw>  (1098) 
9.2650000000000006

>  <r_qp_QPlogS>  (1098) 
-4.4119999999999999

>  <r_qp_QPpolrz>  (1098) 
41.581000000000003

>  <r_qp_SASA>  (1098) 
669.75400000000002

>  <r_qp_SAamideO>  (1098) 
0

>  <r_qp_SAfluorine>  (1098) 
0

>  <r_qp_WPSA>  (1098) 
0

>  <r_qp_accptHB>  (1098) 
3.75

>  <r_qp_dip^2/V>  (1098) 
0.013276

>  <r_qp_dipole>  (1098) 
4.0410000000000004

>  <r_qp_donorHB>  (1098) 
2

>  <r_qp_glob>  (1098) 
0.82884259999999998

>  <r_qp_mol_MW>  (1098) 
371.48099999999999

>  <r_qp_volume>  (1098) 
1229.798

>  <r_sd_BIOSOLVEIT.INFINISEE\_FTREES\_SIMILARITY>  (1098) 
0.91100000000000003

>  <r_sd_BIOSOLVEIT.LOGP>  (1098) 
3.4047200000000002

>  <r_sd_BIOSOLVEIT.MOLECULAR\_WEIGHT>  (1098) 
372.48899999999998

>  <r_sd_BIOSOLVEIT.TPSA>  (1098) 
54.659999999999997

>  <i_epik_Tot_Q>  (1098) 
1

>  <i_epik_Tot_abs_Q>  (1098) 
1

>  <i_f3d_flags>  (1098) 
0

>  <i_i_glide_confnum>  (1098) 
9

>  <i_i_glide_lignum>  (1098) 
510

>  <i_i_glide_posenum>  (1098) 
11

>  <i_i_glide_rotatable_bonds>  (1098) 
8

>  <i_lp_mmshare_version>  (1098) 
65135

>  <i_m_ct_format>  (1098) 
2

>  <i_m_source_file_index>  (1098) 
1245

>  <i_qp_#NandO>  (1098) 
4

>  <i_qp_#acid>  (1098) 
0

>  <i_qp_#amide>  (1098) 
0

>  <i_qp_#amidine>  (1098) 
0

>  <i_qp_#amine>  (1098) 
1

>  <i_qp_#in34>  (1098) 
0

>  <i_qp_#in56>  (1098) 
21

>  <i_qp_#metab>  (1098) 
6

>  <i_qp_#nonHatm>  (1098) 
28

>  <i_qp_#noncon>  (1098) 
0

>  <i_qp_#ringatoms>  (1098) 
21

>  <i_qp_#rotor>  (1098) 
8

>  <i_qp_#rtvFG>  (1098) 
0

>  <i_qp_#stars>  (1098) 
0

>  <i_qp_CNS>  (1098) 
1

>  <i_qp_HumanOralAbsorption>  (1098) 
3

>  <i_qp_RuleOfFive>  (1098) 
0

>  <i_qp_RuleOfThree>  (1098) 
0

>  <i_sd_BIOSOLVEIT.INFINISEE\_REAGENT1\_NAME>  (1098) 
24791870

>  <i_sd_BIOSOLVEIT.INFINISEE\_REAGENT2\_NAME>  (1098) 
24720860

>  <i_sd_BIOSOLVEIT.INFINISEE\_RESULT\_RANK>  (1098) 
43159

>  <i_sd_version>  (1098) 
0

>  <b_lp_Chiralities_Consistent>  (1098) 
1

>  <b_sd_chiral_flag>  (1098) 
0

>  <canonical_id>  (1098) 
ATP-HTVS-AF546DDC8B5A

>  <compound_code>  (1098) 
39811

>  <title>  (1098) 
m_270004bbb____24791870____24720860

>  <variant>  (1098) 
39811-1

>  <source_file>  (1098) 
运行/运行/ATP-VSW/ATP-VSW-DOCK_HTVS_1-003_lib/ATP-VSW-DOCK_HTVS_1-003_lib.mae

>  <canonical_smiles>  (1098) 
Cc1ccc(CC[NH2+]Cc2nc3ccccc3n2Cc2ccccc2)cc1O

>  <scaffold>  (1098) 
c1ccc(CC[NH2+]Cc2nc3ccccc3n2Cc2ccccc2)cc1

>  <molecular_formula>  (1098) 
C24H26N3O+

$$$$
ATP-HTVS-AF6DFEAC4438
     RDKit          3D

 56 59  0  0  0  0  0  0  0  0999 V2000
  202.8070  173.1166  154.9084 Cl  0  0  0  0  0  0  0  0  0  0  0  0
  202.0381  174.6279  155.2461 C   0  0  0  0  0  0  0  0  0  0  0  0
  202.1466  175.1949  156.5334 C   0  0  0  0  0  0  0  0  0  0  0  0
  201.5109  176.4194  156.8170 C   0  0  0  0  0  0  0  0  0  0  0  0
  200.7691  177.1054  155.8253 C   0  0  0  0  0  0  0  0  0  0  0  0
  200.6783  176.5264  154.5330 C   0  0  0  0  0  0  0  0  0  0  0  0
  201.3098  175.2965  154.2500 C   0  0  0  0  0  0  0  0  0  0  0  0
  200.1401  178.4163  156.1877 C   0  0  0  0  0  0  0  0  0  0  0  0
  200.2867  178.9628  157.2835 O   0  0  0  0  0  0  0  0  0  0  0  0
  199.3343  179.0877  155.1463 C   0  0  0  0  0  0  0  0  0  0  0  0
  198.6866  179.6030  154.2501 C   0  0  0  0  0  0  0  0  0  0  0  0
  197.8864  180.2566  153.2059 C   0  0  0  0  0  0  0  0  0  0  0  0
  197.2572  181.4958  153.4963 C   0  0  0  0  0  0  0  0  0  0  0  0
  197.4012  182.0689  154.7968 N   0  0  0  0  0  0  0  0  0  0  0  0
  197.4419  183.3689  155.1326 C   0  0  0  0  0  0  0  0  0  0  0  0
  197.2368  184.2987  154.3516 O   0  0  0  0  0  0  0  0  0  0  0  0
  197.8896  183.6504  156.5425 C   0  0  0  0  0  0  0  0  0  0  0  0
  197.2594  183.0894  157.6919 C   0  0  0  0  0  0  0  0  0  0  0  0
  197.7633  183.4100  158.9755 C   0  0  0  0  0  0  0  0  0  0  0  0
  198.8445  184.2937  159.1305 C   0  0  0  0  0  0  0  0  0  0  0  0
  199.4480  184.8675  157.9997 C   0  0  0  0  0  0  0  0  0  0  0  0
  198.9705  184.5437  156.7163 C   0  0  0  0  0  0  0  0  0  0  0  0
  196.0197  182.1994  157.6074 C   0  0  1  0  0  0  0  0  0  0  0  0
  195.0385  182.4162  158.6800 N   0  0  0  0  0  0  0  0  0  0  0  0
  194.5508  183.7900  158.6910 C   0  0  2  0  0  0  0  0  0  0  0  0
  193.8917  181.5329  158.4960 C   0  0  2  0  0  0  0  0  0  0  0  0
  196.5025  182.1117  152.4724 C   0  0  0  0  0  0  0  0  0  0  0  0
  196.3483  181.5872  151.2417 N   0  0  0  0  0  0  0  0  0  0  0  0
  196.9332  180.4068  150.9499 C   0  0  0  0  0  0  0  0  0  0  0  0
  197.7308  179.7005  151.9002 C   0  0  0  0  0  0  0  0  0  0  0  0
  198.3329  178.4747  151.5081 C   0  0  0  0  0  0  0  0  0  0  0  0
  198.1414  177.9444  150.2169 C   0  0  0  0  0  0  0  0  0  0  0  0
  197.3359  178.6289  149.2935 C   0  0  0  0  0  0  0  0  0  0  0  0
  196.7354  179.8421  149.6701 C   0  0  0  0  0  0  0  0  0  0  0  0
  202.7226  174.6839  157.2914 H   0  0  0  0  0  0  0  0  0  0  0  0
  201.5833  176.8522  157.8061 H   0  0  0  0  0  0  0  0  0  0  0  0
  200.1458  176.9992  153.7243 H   0  0  0  0  0  0  0  0  0  0  0  0
  201.2305  174.8714  153.2619 H   0  0  0  0  0  0  0  0  0  0  0  0
  197.6812  181.4357  155.5301 H   0  0  0  0  0  0  0  0  0  0  0  0
  197.3056  182.9941  159.8606 H   0  0  0  0  0  0  0  0  0  0  0  0
  199.1895  184.5569  160.1181 H   0  0  0  0  0  0  0  0  0  0  0  0
  200.2711  185.5547  158.1273 H   0  0  0  0  0  0  0  0  0  0  0  0
  199.4479  184.9939  155.8590 H   0  0  0  0  0  0  0  0  0  0  0  0
  195.5384  182.3286  156.6418 H   0  0  0  0  0  0  0  0  0  0  0  0
  196.3586  181.1642  157.6322 H   0  0  0  0  0  0  0  0  0  0  0  0
  195.3521  184.5134  158.8470 H   0  0  0  0  0  0  0  0  0  0  0  0
  193.8250  183.9377  159.4912 H   0  0  0  0  0  0  0  0  0  0  0  0
  194.0579  184.0296  157.7432 H   0  0  0  0  0  0  0  0  0  0  0  0
  194.1837  180.4865  158.4984 H   0  0  0  0  0  0  0  0  0  0  0  0
  193.3604  181.7436  157.5668 H   0  0  0  0  0  0  0  0  0  0  0  0
  193.1908  181.6437  159.3197 H   0  0  0  0  0  0  0  0  0  0  0  0
  195.9753  183.0380  152.6353 H   0  0  0  0  0  0  0  0  0  0  0  0
  198.9488  177.9107  152.1887 H   0  0  0  0  0  0  0  0  0  0  0  0
  198.5982  177.0053  149.9332 H   0  0  0  0  0  0  0  0  0  0  0  0
  197.1751  178.2269  148.3017 H   0  0  0  0  0  0  0  0  0  0  0  0
  196.1121  180.3425  148.9491 H   0  0  0  0  0  0  0  0  0  0  0  0
  1  2  1  0
  2  3  1  0
  2  7  2  0
  3  4  2  0
  3 35  1  0
  4  5  1  0
  4 36  1  0
  5  6  2  0
  5  8  1  0
  6  7  1  0
  6 37  1  0
  7 38  1  0
  8  9  2  0
  8 10  1  0
 10 11  3  0
 11 12  1  0
 12 13  2  0
 12 30  1  0
 13 14  1  0
 13 27  1  0
 14 15  1  0
 14 39  1  0
 15 16  2  0
 15 17  1  0
 17 18  1  0
 17 22  2  0
 18 19  2  0
 18 23  1  0
 19 20  1  0
 19 40  1  0
 20 21  2  0
 20 41  1  0
 21 22  1  0
 21 42  1  0
 22 43  1  0
 23 24  1  0
 23 44  1  6
 23 45  1  0
 24 25  1  0
 24 26  1  0
 25 46  1  1
 25 47  1  0
 25 48  1  0
 26 49  1  6
 26 50  1  0
 26 51  1  0
 27 28  2  0
 27 52  1  0
 28 29  1  0
 29 30  1  0
 29 34  2  0
 30 31  2  0
 31 32  1  0
 31 53  1  0
 32 33  2  0
 32 54  1  0
 33 34  1  0
 33 55  1  0
 34 56  1  0
M  END
>  <s_epik_cmdline>  (1099) 
J2VwaWtfcHl0aG9uJywgJy1waCcsICc3LjAwMDAwMCcsICctcGh0JywgJzIuMDAwMDAwJywgJy1tcycsICcxNicsICctdG4nLCAnOCcsICctbWEnLCAnMjAwJywgJy1pbWFlJywgJzxpbmZpbGUubWFlPicsICctb21hZScsICc8b3V0ZmlsZS5tYWU+Jw==

>  <s_epik_input>  (1099) 
Q2xjMVtjSF1bY0hdYyhbY0hdW2NIXTEpQyg9TylDI0NjKGMoYzIzKVtjSF1bY0hdW2NIXVtjSF0zKWMoW2NIXW4yKVtOSF1DKD1PKWM0YyhbQ0gyXU4oW0NIM10pW0NIM10pW2NIXVtjSF1bY0hdW2NIXTQ=

>  <s_i_glide_gridfile>  (1099) 
ATP-Grid

>  <s_lp_Force_Field>  (1099) 
OPLS_2005

>  <s_lp_Variant>  (1099) 
rxn503b____EMOL5415347____EMOL30488121____EMOL41348129-2

>  <s_lp_label>  (1099) 
2435_sdstereoexpander_1_neutralizer_1_epik_2_stereoizer_1

>  <s_m_source_file>  (1099) 
ATP-VSW-LIGPREP-003-in.maegz

>  <s_sd_BIOSOLVEIT.INFINISEE\_QUERY\_NAME>  (1099) 
Ref-Lig

>  <s_sd_BIOSOLVEIT.INFINISEE\_QUERY\_SMILES>  (1099) 
S(c1nc2c(cc1C[NH2+]Cc3ccc(cc3)C[NH+](C)C)cccc2)Cc4ccccc4

>  <s_sd_BIOSOLVEIT.INFINISEE\_REACTION\_NAME>  (1099) 
rxn503b

>  <s_sd_BIOSOLVEIT.INFINISEE\_REAGENT1\_NAME>  (1099) 
EMOL5415347

>  <s_sd_BIOSOLVEIT.INFINISEE\_REAGENT1\_SMILES>  (1099) 
O=C(O)c1c(cccc1)CN(C)C

>  <s_sd_BIOSOLVEIT.INFINISEE\_REAGENT2\_NAME>  (1099) 
EMOL30488121

>  <s_sd_BIOSOLVEIT.INFINISEE\_REAGENT2\_SMILES>  (1099) 
Brc1c(N)cnc2c1cccc2

>  <s_sd_BIOSOLVEIT.INFINISEE\_REAGENT3\_NAME>  (1099) 
EMOL41348129

>  <s_sd_BIOSOLVEIT.INFINISEE\_REAGENT3\_SMILES>  (1099) 
Clc1ccc(cc1)C(=O)C#C

>  <s_sd_BIOSOLVEIT.INFINISEE\_SPACE>  (1099) 
eXplore_7tr_2022-12

>  <s_vsw_compound_code>  (1099) 
77891

>  <s_vsw_variant>  (1099) 
77891-2

>  <r_epik_Charging_Adjusted_Penalty>  (1099) 
1.3860306059066501

>  <r_epik_Ionization_Penalty>  (1099) 
1.3861000000000001

>  <r_epik_Ionization_Penalty_Charging>  (1099) 
0

>  <r_epik_Ionization_Penalty_Neutral>  (1099) 
1.3861000000000001

>  <r_epik_State_Penalty>  (1099) 
1.3859999999999999

>  <r_i_docking_score>  (1099) 
-2.3794456839342599

>  <r_i_glide_ecoul>  (1099) 
-1.14055907726288

>  <r_i_glide_eff_state_penalty>  (1099) 
1.3859999999999999

>  <r_i_glide_einternal>  (1099) 
7.3551168441772496

>  <r_i_glide_emodel>  (1099) 
-49.141018309612903

>  <r_i_glide_energy>  (1099) 
-42.632155299186699

>  <r_i_glide_erotb>  (1099) 
0.55311413025157397

>  <r_i_glide_esite>  (1099) 
-0.088697769733005694

>  <r_i_glide_evdw>  (1099) 
-41.4915962219238

>  <r_i_glide_gscore>  (1099) 
-3.76544568393426

>  <r_i_glide_hbond>  (1099) 
0

>  <r_i_glide_ligand_efficiency>  (1099) 
-0.069983696586301797

>  <r_i_glide_ligand_efficiency_ln>  (1099) 
-0.52568629277183798

>  <r_i_glide_ligand_efficiency_sa>  (1099) 
-0.226720009091507

>  <r_i_glide_lipo>  (1099) 
-1.7656475535853899

>  <r_i_glide_metal>  (1099) 
-0

>  <r_i_glide_rewards>  (1099) 
-0.21855081818181801

>  <r_lp_Energy>  (1099) 
36.222002000000003

>  <r_qp_ACxDN^.5/SA>  (1099) 
0.010164100000000001

>  <r_qp_CIQPlogS>  (1099) 
-5.9900000000000002

>  <r_qp_EA(eV)>  (1099) 
1.452

>  <r_qp_FISA>  (1099) 
77.161000000000001

>  <r_qp_FOSA>  (1099) 
120.64

>  <r_qp_IP(eV)>  (1099) 
8.7070000000000007

>  <r_qp_Jm>  (1099) 
0.0140345757737568

>  <r_qp_PISA>  (1099) 
468.41199999999998

>  <r_qp_PSA>  (1099) 
74.802999999999997

>  <r_qp_PercentHumanOralAbsorption>  (1099) 
100

>  <r_qp_QPPCaco>  (1099) 
458.23200000000003

>  <r_qp_QPPMDCK>  (1099) 
581.50800000000004

>  <r_qp_QPlogBB>  (1099) 
-0.044999999999999998

>  <r_qp_QPlogHERG>  (1099) 
-7.3730000000000002

>  <r_qp_QPlogKhsa>  (1099) 
0.64800000000000002

>  <r_qp_QPlogKp>  (1099) 
-2.6819999999999999

>  <r_qp_QPlogPC16>  (1099) 
15.811999999999999

>  <r_qp_QPlogPo/w>  (1099) 
4.718

>  <r_qp_QPlogPoct>  (1099) 
23.004999999999999

>  <r_qp_QPlogPw>  (1099) 
12.539

>  <r_qp_QPlogS>  (1099) 
-4.8410000000000002

>  <r_qp_QPpolrz>  (1099) 
50.033000000000001

>  <r_qp_SASA>  (1099) 
737.89099999999996

>  <r_qp_SAamideO>  (1099) 
0

>  <r_qp_SAfluorine>  (1099) 
0

>  <r_qp_WPSA>  (1099) 
71.677999999999997

>  <r_qp_accptHB>  (1099) 
7.5

>  <r_qp_dip^2/V>  (1099) 
0.026654299999999999

>  <r_qp_dipole>  (1099) 
6.1189999999999998

>  <r_qp_donorHB>  (1099) 
1

>  <r_qp_glob>  (1099) 
0.82197169999999997

>  <r_qp_mol_MW>  (1099) 
467.95400000000001

>  <r_qp_volume>  (1099) 
1404.5129999999999

>  <r_sd_BIOSOLVEIT.INFINISEE\_FTREES\_SIMILARITY>  (1099) 
0.91700000000000004

>  <r_sd_BIOSOLVEIT.LOGP>  (1099) 
4.0194000000000001

>  <r_sd_BIOSOLVEIT.MOLECULAR\_WEIGHT>  (1099) 
468.96199999999999

>  <r_sd_BIOSOLVEIT.TPSA>  (1099) 
63.5

>  <i_epik_Tot_Q>  (1099) 
0

>  <i_epik_Tot_abs_Q>  (1099) 
0

>  <i_f3d_flags>  (1099) 
0

>  <i_i_glide_confnum>  (1099) 
10

>  <i_i_glide_lignum>  (1099) 
1047

>  <i_i_glide_posenum>  (1099) 
18

>  <i_i_glide_rotatable_bonds>  (1099) 
8

>  <i_lp_mmshare_version>  (1099) 
65135

>  <i_m_ct_format>  (1099) 
2

>  <i_m_source_file_index>  (1099) 
2435

>  <i_qp_#NandO>  (1099) 
5

>  <i_qp_#acid>  (1099) 
0

>  <i_qp_#amide>  (1099) 
0

>  <i_qp_#amidine>  (1099) 
0

>  <i_qp_#amine>  (1099) 
1

>  <i_qp_#in34>  (1099) 
0

>  <i_qp_#in56>  (1099) 
22

>  <i_qp_#metab>  (1099) 
3

>  <i_qp_#nonHatm>  (1099) 
34

>  <i_qp_#noncon>  (1099) 
0

>  <i_qp_#ringatoms>  (1099) 
22

>  <i_qp_#rotor>  (1099) 
7

>  <i_qp_#rtvFG>  (1099) 
0

>  <i_qp_#stars>  (1099) 
1

>  <i_qp_CNS>  (1099) 
1

>  <i_qp_HumanOralAbsorption>  (1099) 
3

>  <i_qp_RuleOfFive>  (1099) 
0

>  <i_qp_RuleOfThree>  (1099) 
0

>  <i_sd_BIOSOLVEIT.INFINISEE\_RESULT\_RANK>  (1099) 
23796

>  <i_sd_version>  (1099) 
0

>  <b_lp_Chiralities_Consistent>  (1099) 
1

>  <b_sd_chiral_flag>  (1099) 
0

>  <canonical_id>  (1099) 
ATP-HTVS-AF6DFEAC4438

>  <compound_code>  (1099) 
77891

>  <title>  (1099) 
rxn503b____EMOL5415347____EMOL30488121____EMOL41348129

>  <variant>  (1099) 
77891-2

>  <source_file>  (1099) 
运行/运行/ATP-VSW/ATP-VSW-DOCK_HTVS_1-003_lib/ATP-VSW-DOCK_HTVS_1-003_lib.mae

>  <canonical_smiles>  (1099) 
CN(C)Cc1ccccc1C(=O)Nc1cnc2ccccc2c1C#CC(=O)c1ccc(Cl)cc1

>  <scaffold>  (1099) 
O=C(C#Cc1c(NC(=O)c2ccccc2)cnc2ccccc12)c1ccccc1

>  <molecular_formula>  (1099) 
C28H22ClN3O2

$$$$
ATP-HTVS-AFAE325C96BD
     RDKit          3D

 53 56  0  0  0  0  0  0  0  0999 V2000
  195.4941  183.8510  158.6115 Br  0  0  0  0  0  0  0  0  0  0  0  0
  195.7965  185.5207  159.4642 C   0  0  0  0  0  0  0  0  0  0  0  0
  196.8564  186.3170  159.0169 C   0  0  0  0  0  0  0  0  0  0  0  0
  197.1688  187.5597  159.6421 C   0  0  0  0  0  0  0  0  0  0  0  0
  196.3352  187.9814  160.7225 C   0  0  0  0  0  0  0  0  0  0  0  0
  196.5358  189.1985  161.4229 N   0  0  0  0  0  0  0  0  0  0  0  0
  196.8735  190.3496  160.8638 C   0  0  0  0  0  0  0  0  0  0  0  0
  197.1490  191.3355  161.5490 O   0  0  0  0  0  0  0  0  0  0  0  0
  196.9102  190.4243  159.3422 C   0  0  1  0  0  0  0  0  0  0  0  0
  198.0278  189.7477  158.6264 N   0  0  0  0  0  0  0  0  0  0  0  0
  198.3818  188.4302  159.2080 C   0  0  2  0  0  0  0  0  0  0  0  0
  199.3066  187.6338  158.2711 C   0  0  0  0  0  0  0  0  0  0  0  0
  199.0498  187.6093  156.8769 C   0  0  0  0  0  0  0  0  0  0  0  0
  199.8398  186.8448  156.0013 C   0  0  0  0  0  0  0  0  0  0  0  0
  200.9113  186.0980  156.5306 C   0  0  0  0  0  0  0  0  0  0  0  0
  201.1908  186.1131  157.9181 C   0  0  0  0  0  0  0  0  0  0  0  0
  200.3912  186.8840  158.7897 C   0  0  0  0  0  0  0  0  0  0  0  0
  199.1906  190.6311  158.4209 C   0  0  1  0  0  0  0  0  0  0  0  0
  199.1096  191.5906  157.2234 C   0  0  0  0  0  0  0  0  0  0  0  0
  198.1557  192.6300  157.1677 C   0  0  0  0  0  0  0  0  0  0  0  0
  198.0577  193.5422  156.0995 C   0  0  0  0  0  0  0  0  0  0  0  0
  197.0046  194.4827  156.1572 N   0  0  0  0  0  0  0  0  0  0  0  0
  195.7737  194.2400  156.9406 C   0  0  2  0  0  0  0  0  0  0  0  0
  197.0831  195.6818  155.3478 C   0  0  2  0  0  0  0  0  0  0  0  0
  199.0407  193.4689  155.0701 C   0  0  0  0  0  0  0  0  0  0  0  0
  200.0382  192.4577  155.1227 C   0  0  0  0  0  0  0  0  0  0  0  0
  200.0644  191.4999  156.1776 C   0  0  0  0  0  0  0  0  0  0  0  0
  195.2675  187.1755  161.1596 C   0  0  0  0  0  0  0  0  0  0  0  0
  195.0022  185.9447  160.5319 C   0  0  0  0  0  0  0  0  0  0  0  0
  197.4028  185.8869  158.1989 H   0  0  0  0  0  0  0  0  0  0  0  0
  196.4030  189.1941  162.4313 H   0  0  0  0  0  0  0  0  0  0  0  0
  195.9958  190.0041  158.9181 H   0  0  0  0  0  0  0  0  0  0  0  0
  196.8812  191.5177  159.2755 H   0  0  0  0  0  0  0  0  0  0  0  0
  198.9469  188.6515  160.1192 H   0  0  0  0  0  0  0  0  0  0  0  0
  198.2036  188.1438  156.4735 H   0  0  0  0  0  0  0  0  0  0  0  0
  199.5907  186.8222  154.9439 H   0  0  0  0  0  0  0  0  0  0  0  0
  201.5201  185.5086  155.8645 H   0  0  0  0  0  0  0  0  0  0  0  0
  202.0092  185.5322  158.3201 H   0  0  0  0  0  0  0  0  0  0  0  0
  200.5701  186.8896  159.8583 H   0  0  0  0  0  0  0  0  0  0  0  0
  199.4381  191.1189  159.3603 H   0  0  0  0  0  0  0  0  0  0  0  0
  200.0901  190.0569  158.2156 H   0  0  0  0  0  0  0  0  0  0  0  0
  197.5067  192.8485  157.9900 H   0  0  0  0  0  0  0  0  0  0  0  0
  195.1910  193.4361  156.4936 H   0  0  0  0  0  0  0  0  0  0  0  0
  195.1437  195.1206  156.9757 H   0  0  0  0  0  0  0  0  0  0  0  0
  195.8761  194.0127  158.0039 H   0  0  0  0  0  0  0  0  0  0  0  0
  197.2932  195.4076  154.3166 H   0  0  0  0  0  0  0  0  0  0  0  0
  197.8750  196.3272  155.7396 H   0  0  0  0  0  0  0  0  0  0  0  0
  196.1265  196.2115  155.3521 H   0  0  0  0  0  0  0  0  0  0  0  0
  199.0601  194.1794  154.2475 H   0  0  0  0  0  0  0  0  0  0  0  0
  200.7927  192.4283  154.3326 H   0  0  0  0  0  0  0  0  0  0  0  0
  200.8607  190.7537  156.1889 H   0  0  0  0  0  0  0  0  0  0  0  0
  194.6502  187.5179  161.9739 H   0  0  0  0  0  0  0  0  0  0  0  0
  194.1817  185.3333  160.8561 H   0  0  0  0  0  0  0  0  0  0  0  0
  1  2  1  0
  2  3  2  0
  2 29  1  0
  3  4  1  0
  3 30  1  0
  4  5  2  0
  4 11  1  0
  5  6  1  0
  5 28  1  0
  6  7  1  0
  6 31  1  0
  7  8  2  0
  7  9  1  0
  9 10  1  0
  9 32  1  6
  9 33  1  0
 10 11  1  0
 10 18  1  0
 11 12  1  0
 11 34  1  1
 12 13  2  0
 12 17  1  0
 13 14  1  0
 13 35  1  0
 14 15  2  0
 14 36  1  0
 15 16  1  0
 15 37  1  0
 16 17  2  0
 16 38  1  0
 17 39  1  0
 18 19  1  0
 18 40  1  1
 18 41  1  0
 19 20  1  0
 19 27  2  0
 20 21  2  0
 20 42  1  0
 21 22  1  0
 21 25  1  0
 22 23  1  0
 22 24  1  0
 23 43  1  6
 23 44  1  0
 23 45  1  0
 24 46  1  6
 24 47  1  0
 24 48  1  0
 25 26  2  0
 25 49  1  0
 26 27  1  0
 26 50  1  0
 27 51  1  0
 28 29  2  0
 28 52  1  0
 29 53  1  0
M  END
>  <s_epik_cmdline>  (1100) 
J2VwaWtfcHl0aG9uJywgJy1waCcsICc3LjAwMDAwMCcsICctcGh0JywgJzIuMDAwMDAwJywgJy1tcycsICcxNicsICctdG4nLCAnOCcsICctbWEnLCAnMjAwJywgJy1pbWFlJywgJzxpbmZpbGUubWFlPicsICctb21hZScsICc8b3V0ZmlsZS5tYWU+Jw==

>  <s_epik_input>  (1100) 
QnJjKFtjSF0xKVtjSF1bY0hdYyhjMTIpW05IXUMoPU8pW0NIMl1OKFtDQEBIXTJjM1tjSF1bY0hdW2NIXVtjSF1bY0hdMylbQ0gyXWM0W2NIXWMoTihbQ0gzXSlbQ0gzXSlbY0hdW2NIXVtjSF00

>  <s_i_glide_gridfile>  (1100) 
ATP-Grid

>  <s_lp_Force_Field>  (1100) 
OPLS_2005

>  <s_lp_Variant>  (1100) 
m_270004bda____24170772____24721592-1

>  <s_lp_label>  (1100) 
942_sdstereoexpander_1_neutralizer_1_epik_1_stereoizer_1

>  <s_m_source_file>  (1100) 
ATP-VSW-LIGPREP-002-in.maegz

>  <s_sd_BIOSOLVEIT.INFINISEE\_QUERY\_NAME>  (1100) 
Ref-Lig

>  <s_sd_BIOSOLVEIT.INFINISEE\_QUERY\_SMILES>  (1100) 
S(c1nc2c(cc1C[NH2+]Cc3ccc(cc3)C[NH+](C)C)cccc2)Cc4ccccc4

>  <s_sd_BIOSOLVEIT.INFINISEE\_REACTION\_NAME>  (1100) 
m_270004bda

>  <s_sd_BIOSOLVEIT.INFINISEE\_REAGENT1\_SMILES>  (1100) 
[R1*]N1C(c2c(NC(=O)C1)ccc(Br)c2)c3ccccc3

>  <s_sd_BIOSOLVEIT.INFINISEE\_REAGENT2\_SMILES>  (1100) 
[R1*]Cc1cc(N(C)C)ccc1

>  <s_sd_BIOSOLVEIT.INFINISEE\_SPACE>  (1100) 
REALSpace_44bn_2023-08

>  <s_vsw_compound_code>  (1100) 
30114

>  <s_vsw_variant>  (1100) 
30114-1

>  <r_epik_Charging_Adjusted_Penalty>  (1100) 
0.0073316794013013097

>  <r_epik_Ionization_Penalty>  (1100) 
0.013100000000000001

>  <r_epik_Ionization_Penalty_Charging>  (1100) 
0

>  <r_epik_Ionization_Penalty_Neutral>  (1100) 
0.013100000000000001

>  <r_epik_State_Penalty>  (1100) 
0.0073000000000000001

>  <r_i_docking_score>  (1100) 
-2.3848410186053401

>  <r_i_glide_ecoul>  (1100) 
-2.2544627189636199

>  <r_i_glide_eff_state_penalty>  (1100) 
0.0073000000000000001

>  <r_i_glide_einternal>  (1100) 
1.7461677789688099

>  <r_i_glide_emodel>  (1100) 
-39.046304386846501

>  <r_i_glide_energy>  (1100) 
-34.7769198417664

>  <r_i_glide_erotb>  (1100) 
0.29652521162338502

>  <r_i_glide_esite>  (1100) 
-0.061666118184325998

>  <r_i_glide_evdw>  (1100) 
-32.522457122802699

>  <r_i_glide_gscore>  (1100) 
-2.39214101860534

>  <r_i_glide_hbond>  (1100) 
-0.431408518221577

>  <r_i_glide_ligand_efficiency>  (1100) 
-0.082235897193287402

>  <r_i_glide_ligand_efficiency_ln>  (1100) 
-0.54606811891025997

>  <r_i_glide_ligand_efficiency_sa>  (1100) 
-0.25265473033872099

>  <r_i_glide_lipo>  (1100) 
-1.87204569658371

>  <r_i_glide_metal>  (1100) 
-0

>  <r_i_glide_rewards>  (1100) 
1.64074636674557

>  <r_lp_Energy>  (1100) 
39.008496999999998

>  <r_qp_ACxDN^.5/SA>  (1100) 
0.0081709

>  <r_qp_CIQPlogS>  (1100) 
-6.0810000000000004

>  <r_qp_EA(eV)>  (1100) 
0.57499999999999996

>  <r_qp_FISA>  (1100) 
72.358000000000004

>  <r_qp_FOSA>  (1100) 
172.61099999999999

>  <r_qp_IP(eV)>  (1100) 
8.0579999999999998

>  <r_qp_Jm>  (1100) 
0.00175077162370349

>  <r_qp_PISA>  (1100) 
365.89699999999999

>  <r_qp_PSA>  (1100) 
46.866

>  <r_qp_PercentHumanOralAbsorption>  (1100) 
100

>  <r_qp_QPPCaco>  (1100) 
508.89699999999999

>  <r_qp_QPPMDCK>  (1100) 
578.31700000000001

>  <r_qp_QPlogBB>  (1100) 
0.23699999999999999

>  <r_qp_QPlogHERG>  (1100) 
-6.7210000000000001

>  <r_qp_QPlogKhsa>  (1100) 
0.80700000000000005

>  <r_qp_QPlogKp>  (1100) 
-3.339

>  <r_qp_QPlogPC16>  (1100) 
13.545999999999999

>  <r_qp_QPlogPo/w>  (1100) 
4.4480000000000004

>  <r_qp_QPlogPoct>  (1100) 
19.978000000000002

>  <r_qp_QPlogPw>  (1100) 
10.561999999999999

>  <r_qp_QPlogS>  (1100) 
-5.0720000000000001

>  <r_qp_QPpolrz>  (1100) 
45.289999999999999

>  <r_qp_SASA>  (1100) 
673.12

>  <r_qp_SAamideO>  (1100) 
0

>  <r_qp_SAfluorine>  (1100) 
0

>  <r_qp_WPSA>  (1100) 
62.255000000000003

>  <r_qp_accptHB>  (1100) 
5.5

>  <r_qp_dip^2/V>  (1100) 
0.014756699999999999

>  <r_qp_dipole>  (1100) 
4.2880000000000003

>  <r_qp_donorHB>  (1100) 
1

>  <r_qp_glob>  (1100) 
0.83204319999999998

>  <r_qp_mol_MW>  (1100) 
450.37700000000001

>  <r_qp_volume>  (1100) 
1246.2650000000001

>  <r_sd_BIOSOLVEIT.INFINISEE\_FTREES\_SIMILARITY>  (1100) 
0.91700000000000004

>  <r_sd_BIOSOLVEIT.LOGP>  (1100) 
3.6417000000000002

>  <r_sd_BIOSOLVEIT.MOLECULAR\_WEIGHT>  (1100) 
451.38600000000002

>  <r_sd_BIOSOLVEIT.TPSA>  (1100) 
36.780000000000001

>  <i_epik_Tot_Q>  (1100) 
0

>  <i_epik_Tot_abs_Q>  (1100) 
0

>  <i_f3d_flags>  (1100) 
0

>  <i_i_glide_confnum>  (1100) 
2

>  <i_i_glide_lignum>  (1100) 
292

>  <i_i_glide_posenum>  (1100) 
18

>  <i_i_glide_rotatable_bonds>  (1100) 
4

>  <i_lp_mmshare_version>  (1100) 
65135

>  <i_m_ct_format>  (1100) 
2

>  <i_m_source_file_index>  (1100) 
942

>  <i_qp_#NandO>  (1100) 
4

>  <i_qp_#acid>  (1100) 
0

>  <i_qp_#amide>  (1100) 
0

>  <i_qp_#amidine>  (1100) 
0

>  <i_qp_#amine>  (1100) 
1

>  <i_qp_#in34>  (1100) 
0

>  <i_qp_#in56>  (1100) 
18

>  <i_qp_#metab>  (1100) 
8

>  <i_qp_#nonHatm>  (1100) 
29

>  <i_qp_#noncon>  (1100) 
2

>  <i_qp_#ringatoms>  (1100) 
23

>  <i_qp_#rotor>  (1100) 
3

>  <i_qp_#rtvFG>  (1100) 
0

>  <i_qp_#stars>  (1100) 
0

>  <i_qp_CNS>  (1100) 
1

>  <i_qp_HumanOralAbsorption>  (1100) 
3

>  <i_qp_RuleOfFive>  (1100) 
0

>  <i_qp_RuleOfThree>  (1100) 
1

>  <i_sd_BIOSOLVEIT.INFINISEE\_REAGENT1\_NAME>  (1100) 
24170772

>  <i_sd_BIOSOLVEIT.INFINISEE\_REAGENT2\_NAME>  (1100) 
24721592

>  <i_sd_BIOSOLVEIT.INFINISEE\_RESULT\_RANK>  (1100) 
21844

>  <i_sd_version>  (1100) 
0

>  <b_lp_Chiralities_Consistent>  (1100) 
1

>  <b_sd_chiral_flag>  (1100) 
0

>  <canonical_id>  (1100) 
ATP-HTVS-AFAE325C96BD

>  <compound_code>  (1100) 
30114

>  <title>  (1100) 
m_270004bda____24170772____24721592

>  <variant>  (1100) 
30114-1

>  <source_file>  (1100) 
运行/运行/ATP-VSW/ATP-VSW-DOCK_HTVS_1-002_lib.maegz

>  <canonical_smiles>  (1100) 
CN(C)c1cccc(CN2CC(=O)Nc3ccc(Br)cc3[C@H]2c2ccccc2)c1

>  <scaffold>  (1100) 
O=C1CN(Cc2ccccc2)C(c2ccccc2)c2ccccc2N1

>  <molecular_formula>  (1100) 
C24H24BrN3O

$$$$
ATP-HTVS-AFB94CABAED0
     RDKit          3D

 72 75  0  0  0  0  0  0  0  0999 V2000
  198.9014  187.3507  156.5802 O   0  0  0  0  0  0  0  0  0  0  0  0
  198.6246  186.2318  156.1428 C   0  0  0  0  0  0  0  0  0  0  0  0
  197.4977  185.9774  155.4157 O   0  0  0  0  0  0  0  0  0  0  0  0
  197.1956  184.6725  154.9571 C   0  0  2  0  0  0  0  0  0  0  0  0
  199.5535  185.0148  156.3789 C   0  0  1  0  0  0  0  0  0  0  0  0
  200.2245  185.0819  157.6986 N   0  0  0  0  0  0  0  0  0  0  0  0
  201.5893  185.4830  157.6780 C   0  0  0  0  0  0  0  0  0  0  0  0
  202.0616  186.4580  158.5801 C   0  0  0  0  0  0  0  0  0  0  0  0
  203.3897  186.9072  158.4936 C   0  0  0  0  0  0  0  0  0  0  0  0
  204.2468  186.4012  157.4998 C   0  0  0  0  0  0  0  0  0  0  0  0
  203.7759  185.4435  156.5852 C   0  0  0  0  0  0  0  0  0  0  0  0
  202.4531  184.9802  156.6758 C   0  0  0  0  0  0  0  0  0  0  0  0
  199.5768  184.7099  158.8523 C   0  0  0  0  0  0  0  0  0  0  0  0
  200.1144  184.7293  159.9594 O   0  0  0  0  0  0  0  0  0  0  0  0
  198.1548  184.2724  158.8023 C   0  0  0  0  0  0  0  0  0  0  0  0
  197.2395  185.0389  159.5091 N   0  0  0  0  0  0  0  0  0  0  0  0
  195.9659  184.5364  159.3668 C   0  0  0  0  0  0  0  0  0  0  0  0
  196.0761  183.3959  158.5085 C   0  0  0  0  0  0  0  0  0  0  0  0
  194.8646  182.7296  158.1692 C   0  0  0  0  0  0  0  0  0  0  0  0
  193.6360  183.1610  158.6613 C   0  0  0  0  0  0  0  0  0  0  0  0
  193.5764  184.2582  159.5235 C   0  0  0  0  0  0  0  0  0  0  0  0
  194.7357  184.9615  159.8818 C   0  0  0  0  0  0  0  0  0  0  0  0
  197.4790  183.2417  158.1971 C   0  0  0  0  0  0  0  0  0  0  0  0
  198.0245  182.2341  157.3759 N   0  0  0  0  0  0  0  0  0  0  0  0
  197.2647  181.1182  156.8121 C   0  0  1  0  0  0  0  0  0  0  0  0
  197.9635  180.3926  155.6937 C   0  0  0  0  0  0  0  0  0  0  0  0
  199.2325  179.8127  156.0418 C   0  0  0  0  0  0  0  0  0  0  0  0
  199.8729  179.0533  154.9937 C   0  0  0  0  0  0  0  0  0  0  0  0
  199.3135  178.9224  153.6740 C   0  0  0  0  0  0  0  0  0  0  0  0
  198.0746  179.5591  153.3934 C   0  0  0  0  0  0  0  0  0  0  0  0
  197.3680  180.2812  154.3909 C   0  0  0  0  0  0  0  0  0  0  0  0
  201.2062  178.3996  155.3404 C   0  0  1  0  0  0  0  0  0  0  0  0
  201.0099  177.0571  155.9887 N   0  0  2  0  0  0  0  0  0  0  0  0
  201.3438  177.0323  157.4507 C   0  0  1  0  0  0  0  0  0  0  0  0
  200.5107  177.9602  158.3542 C   0  0  2  0  0  0  0  0  0  0  0  0
  201.7153  175.9452  155.2753 C   0  0  1  0  0  0  0  0  0  0  0  0
  201.3229  175.7641  153.7913 C   0  0  2  0  0  0  0  0  0  0  0  0
  196.2738  184.6423  154.3333 H   0  0  0  0  0  0  0  0  0  0  0  0
  196.9978  184.0236  155.8013 H   0  0  0  0  0  0  0  0  0  0  0  0
  198.0016  184.2448  154.3711 H   0  0  0  0  0  0  0  0  0  0  0  0
  199.0210  184.0609  156.3720 H   0  0  0  0  0  0  0  0  0  0  0  0
  200.2463  184.9326  155.5291 H   0  0  0  0  0  0  0  0  0  0  0  0
  201.4007  186.8799  159.3255 H   0  0  0  0  0  0  0  0  0  0  0  0
  203.7398  187.6457  159.1929 H   0  0  0  0  0  0  0  0  0  0  0  0
  205.2626  186.7489  157.4400 H   0  0  0  0  0  0  0  0  0  0  0  0
  204.4270  185.0625  155.8143 H   0  0  0  0  0  0  0  0  0  0  0  0
  202.1241  184.2474  155.9522 H   0  0  0  0  0  0  0  0  0  0  0  0
  197.4846  185.8617  160.0470 H   0  0  0  0  0  0  0  0  0  0  0  0
  194.7857  181.8804  157.5110 H   0  0  0  0  0  0  0  0  0  0  0  0
  192.7534  182.6336  158.3285 H   0  0  0  0  0  0  0  0  0  0  0  0
  192.6237  184.6320  159.8342 H   0  0  0  0  0  0  0  0  0  0  0  0
  194.6462  185.8378  160.5053 H   0  0  0  0  0  0  0  0  0  0  0  0
  199.0152  182.2247  157.2069 H   0  0  0  0  0  0  0  0  0  0  0  0
  197.1464  180.4741  157.6827 H   0  0  0  0  0  0  0  0  0  0  0  0
  196.2937  181.4051  156.4065 H   0  0  0  0  0  0  0  0  0  0  0  0
  199.6073  179.9649  156.9901 H   0  0  0  0  0  0  0  0  0  0  0  0
  199.8342  178.3928  152.8880 H   0  0  0  0  0  0  0  0  0  0  0  0
  197.6502  179.5147  152.3837 H   0  0  0  0  0  0  0  0  0  0  0  0
  196.4239  180.7671  154.1963 H   0  0  0  0  0  0  0  0  0  0  0  0
  201.8255  178.3483  154.4388 H   0  0  0  0  0  0  0  0  0  0  0  0
  201.7958  179.0630  155.9858 H   0  0  0  0  0  0  0  0  0  0  0  0
  201.3170  175.9997  157.8012 H   0  0  0  0  0  0  0  0  0  0  0  0
  202.3295  177.4541  157.6034 H   0  0  0  0  0  0  0  0  0  0  0  0
  200.6636  177.7171  159.4381 H   0  0  0  0  0  0  0  0  0  0  0  0
  199.5310  177.5794  158.1444 H   0  0  0  0  0  0  0  0  0  0  0  0
  200.6076  178.9838  158.1210 H   0  0  0  0  0  0  0  0  0  0  0  0
  202.8008  176.0763  155.3840 H   0  0  0  0  0  0  0  0  0  0  0  0
  201.4897  175.0083  155.7937 H   0  0  0  0  0  0  0  0  0  0  0  0
  201.9223  174.9758  153.3286 H   0  0  0  0  0  0  0  0  0  0  0  0
  201.4921  176.6520  153.1796 H   0  0  0  0  0  0  0  0  0  0  0  0
  200.2658  175.5009  153.6933 H   0  0  0  0  0  0  0  0  0  0  0  0
  200.0173  176.8438  155.9339 H   0  0  0  0  0  0  0  0  0  0  0  0
  1  2  2  0
  2  3  1  0
  2  5  1  0
  3  4  1  0
  4 38  1  6
  4 39  1  0
  4 40  1  0
  5  6  1  0
  5 41  1  1
  5 42  1  0
  6  7  1  0
  6 13  1  0
  7  8  2  0
  7 12  1  0
  8  9  1  0
  8 43  1  0
  9 10  2  0
  9 44  1  0
 10 11  1  0
 10 45  1  0
 11 12  2  0
 11 46  1  0
 12 47  1  0
 13 14  2  0
 13 15  1  0
 15 16  1  0
 15 23  2  0
 16 17  1  0
 16 48  1  0
 17 18  1  0
 17 22  2  0
 18 19  2  0
 18 23  1  0
 19 20  1  0
 19 49  1  0
 20 21  2  0
 20 50  1  0
 21 22  1  0
 21 51  1  0
 22 52  1  0
 23 24  1  0
 24 25  1  0
 24 53  1  0
 25 26  1  0
 25 54  1  1
 25 55  1  0
 26 27  2  0
 26 31  1  0
 27 28  1  0
 27 56  1  0
 28 29  2  0
 28 32  1  0
 29 30  1  0
 29 57  1  0
 30 31  2  0
 30 58  1  0
 31 59  1  0
 32 33  1  0
 32 60  1  6
 32 61  1  0
 33 34  1  0
 33 36  1  0
 33 72  1  1
 34 35  1  0
 34 62  1  1
 34 63  1  0
 35 64  1  1
 35 65  1  0
 35 66  1  0
 36 37  1  0
 36 67  1  6
 36 68  1  0
 37 69  1  6
 37 70  1  0
 37 71  1  0
M  CHG  1  33   1
M  END
>  <s_epik_Chemistry_Notes>  (1101) 
This compound has an ester and may undergo hydrolysis at high or low pH.

>  <s_epik_cmdline>  (1101) 
J2VwaWtfcHl0aG9uJywgJy1waCcsICc3LjAwMDAwMCcsICctcGh0JywgJzIuMDAwMDAwJywgJy1tcycsICcxNicsICctdG4nLCAnOCcsICctbWEnLCAnMjAwJywgJy1pbWFlJywgJzxpbmZpbGUubWFlPicsICctb21hZScsICc8b3V0ZmlsZS5tYWU+Jw==

>  <s_epik_input>  (1101) 
W2NIXTFbY0hdW2NIXVtjSF1bY0hdYzFOKFtDSDJdQyg9TylPW0NIM10pQyg9TyljKFtuSF0yKWMoYyhjMjMpW2NIXVtjSF1bY0hdW2NIXTMpW05IXVtDSDJdYzRbY0hdYyhbY0hdW2NIXVtjSF00KVtDSDJdTihbQ0gyXVtDSDNdKVtDSDJdW0NIM10=

>  <s_i_glide_gridfile>  (1101) 
ATP-Grid

>  <s_lp_Force_Field>  (1101) 
OPLS_2005

>  <s_lp_Variant>  (1101) 
rxn512b____EMOL300028928____EMOL719673____EMOL44153840-1

>  <s_lp_label>  (1101) 
3000_sdstereoexpander_1_neutralizer_1_epik_1_stereoizer_1

>  <s_m_source_file>  (1101) 
ATP-VSW-LIGPREP-002-in.maegz

>  <s_sd_BIOSOLVEIT.INFINISEE\_QUERY\_NAME>  (1101) 
Ref-Lig

>  <s_sd_BIOSOLVEIT.INFINISEE\_QUERY\_SMILES>  (1101) 
S(c1nc2c(cc1C[NH2+]Cc3ccc(cc3)C[NH+](C)C)cccc2)Cc4ccccc4

>  <s_sd_BIOSOLVEIT.INFINISEE\_REACTION\_NAME>  (1101) 
rxn512b

>  <s_sd_BIOSOLVEIT.INFINISEE\_REAGENT1\_NAME>  (1101) 
EMOL300028928

>  <s_sd_BIOSOLVEIT.INFINISEE\_REAGENT1\_SMILES>  (1101) 
O=C(OC)CNc1ccccc1

>  <s_sd_BIOSOLVEIT.INFINISEE\_REAGENT2\_NAME>  (1101) 
EMOL719673

>  <s_sd_BIOSOLVEIT.INFINISEE\_REAGENT2\_SMILES>  (1101) 
BrC=1c2c(NC1C(=O)O)cccc2

>  <s_sd_BIOSOLVEIT.INFINISEE\_REAGENT3\_NAME>  (1101) 
EMOL44153840

>  <s_sd_BIOSOLVEIT.INFINISEE\_REAGENT3\_SMILES>  (1101) 
N(Cc1cc(ccc1)CN)(CC)CC

>  <s_sd_BIOSOLVEIT.INFINISEE\_SPACE>  (1101) 
eXplore_7tr_2022-12

>  <s_vsw_compound_code>  (1101) 
95970

>  <s_vsw_variant>  (1101) 
95970-1

>  <r_epik_Charging_Adjusted_Penalty>  (1101) 
0.035161277462333801

>  <r_epik_Ionization_Penalty>  (1101) 
0.017600000000000001

>  <r_epik_Ionization_Penalty_Charging>  (1101) 
0.017600000000000001

>  <r_epik_Ionization_Penalty_Neutral>  (1101) 
0

>  <r_epik_State_Penalty>  (1101) 
0.017600000000000001

>  <r_i_docking_score>  (1101) 
-2.7858338944677099

>  <r_i_glide_ecoul>  (1101) 
-5.95485496520996

>  <r_i_glide_eff_state_penalty>  (1101) 
0.017600000000000001

>  <r_i_glide_einternal>  (1101) 
13.1246662139893

>  <r_i_glide_emodel>  (1101) 
-34.440938446649199

>  <r_i_glide_energy>  (1101) 
-33.9696941375732

>  <r_i_glide_erotb>  (1101) 
0.817794046323156

>  <r_i_glide_esite>  (1101) 
-0.026323241487067401

>  <r_i_glide_evdw>  (1101) 
-28.014839172363299

>  <r_i_glide_gscore>  (1101) 
-2.8034338944677

>  <r_i_glide_hbond>  (1101) 
0

>  <r_i_glide_ligand_efficiency>  (1101) 
-0.075292807958586602

>  <r_i_glide_ligand_efficiency_ln>  (1101) 
-0.60418206249742401

>  <r_i_glide_ligand_efficiency_sa>  (1101) 
-0.250892339649401

>  <r_i_glide_lipo>  (1101) 
-0.95371802180711596

>  <r_i_glide_metal>  (1101) 
-0

>  <r_i_glide_rewards>  (1101) 
-0.347216474097019

>  <r_lp_Energy>  (1101) 
43.870511

>  <r_qp_ACxDN^.5/SA>  (1101) 
0.0083218000000000007

>  <r_qp_CIQPlogS>  (1101) 
-5.7160000000000002

>  <r_qp_EA(eV)>  (1101) 
0.25900000000000001

>  <r_qp_FISA>  (1101) 
103.10899999999999

>  <r_qp_FOSA>  (1101) 
373.05900000000003

>  <r_qp_IP(eV)>  (1101) 
7.4969999999999999

>  <r_qp_Jm>  (1101) 
6.3408328593697106e-05

>  <r_qp_PISA>  (1101) 
364.99700000000001

>  <r_qp_PSA>  (1101) 
89.424999999999997

>  <r_qp_PercentHumanOralAbsorption>  (1101) 
88.465999999999994

>  <r_qp_QPPCaco>  (1101) 
64.852000000000004

>  <r_qp_QPPMDCK>  (1101) 
31.472999999999999

>  <r_qp_QPlogBB>  (1101) 
-0.42599999999999999

>  <r_qp_QPlogHERG>  (1101) 
-8.2490000000000006

>  <r_qp_QPlogKhsa>  (1101) 
1.0620000000000001

>  <r_qp_QPlogKp>  (1101) 
-5.2030000000000003

>  <r_qp_QPlogPC16>  (1101) 
16.585999999999999

>  <r_qp_QPlogPo/w>  (1101) 
4.968

>  <r_qp_QPlogPoct>  (1101) 
23.338999999999999

>  <r_qp_QPlogPw>  (1101) 
10.861000000000001

>  <r_qp_QPlogS>  (1101) 
-4.6929999999999996

>  <r_qp_QPpolrz>  (1101) 
53.777999999999999

>  <r_qp_SASA>  (1101) 
841.16499999999996

>  <r_qp_SAamideO>  (1101) 
0

>  <r_qp_SAfluorine>  (1101) 
0

>  <r_qp_WPSA>  (1101) 
0

>  <r_qp_accptHB>  (1101) 
7

>  <r_qp_dip^2/V>  (1101) 
0.0223147

>  <r_qp_dipole>  (1101) 
5.9509999999999996

>  <r_qp_donorHB>  (1101) 
1

>  <r_qp_glob>  (1101) 
0.78221169999999995

>  <r_qp_mol_MW>  (1101) 
498.62400000000002

>  <r_qp_volume>  (1101) 
1586.9400000000001

>  <r_sd_BIOSOLVEIT.INFINISEE\_FTREES\_SIMILARITY>  (1101) 
0.90300000000000002

>  <r_sd_BIOSOLVEIT.LOGP>  (1101) 
4.0244999999999997

>  <r_sd_BIOSOLVEIT.MOLECULAR\_WEIGHT>  (1101) 
499.63200000000001

>  <r_sd_BIOSOLVEIT.TPSA>  (1101) 
78.870000000000005

>  <i_epik_Tot_Q>  (1101) 
1

>  <i_epik_Tot_abs_Q>  (1101) 
1

>  <i_f3d_flags>  (1101) 
0

>  <i_i_glide_confnum>  (1101) 
11

>  <i_i_glide_lignum>  (1101) 
66

>  <i_i_glide_posenum>  (1101) 
9

>  <i_i_glide_rotatable_bonds>  (1101) 
13

>  <i_lp_mmshare_version>  (1101) 
65135

>  <i_m_ct_format>  (1101) 
2

>  <i_m_source_file_index>  (1101) 
3000

>  <i_qp_#NandO>  (1101) 
7

>  <i_qp_#acid>  (1101) 
0

>  <i_qp_#amide>  (1101) 
0

>  <i_qp_#amidine>  (1101) 
0

>  <i_qp_#amine>  (1101) 
2

>  <i_qp_#in34>  (1101) 
0

>  <i_qp_#in56>  (1101) 
21

>  <i_qp_#metab>  (1101) 
7

>  <i_qp_#nonHatm>  (1101) 
37

>  <i_qp_#noncon>  (1101) 
0

>  <i_qp_#ringatoms>  (1101) 
21

>  <i_qp_#rotor>  (1101) 
11

>  <i_qp_#rtvFG>  (1101) 
1

>  <i_qp_#stars>  (1101) 
1

>  <i_qp_CNS>  (1101) 
1

>  <i_qp_HumanOralAbsorption>  (1101) 
3

>  <i_qp_RuleOfFive>  (1101) 
0

>  <i_qp_RuleOfThree>  (1101) 
1

>  <i_sd_BIOSOLVEIT.INFINISEE\_RESULT\_RANK>  (1101) 
85628

>  <i_sd_version>  (1101) 
0

>  <b_lp_Chiralities_Consistent>  (1101) 
1

>  <b_sd_chiral_flag>  (1101) 
0

>  <canonical_id>  (1101) 
ATP-HTVS-AFB94CABAED0

>  <compound_code>  (1101) 
95970

>  <title>  (1101) 
rxn512b____EMOL300028928____EMOL719673____EMOL44153840

>  <variant>  (1101) 
95970-1

>  <source_file>  (1101) 
运行/运行/ATP-VSW/ATP-VSW-DOCK_HTVS_1-003_lib/ATP-VSW-DOCK_HTVS_1-003_lib.mae

>  <canonical_smiles>  (1101) 
CC[NH+](CC)Cc1cccc(CNc2c(C(=O)N(CC(=O)OC)c3ccccc3)[nH]c3ccccc23)c1

>  <scaffold>  (1101) 
O=C(Nc1ccccc1)c1[nH]c2ccccc2c1NCc1ccccc1

>  <molecular_formula>  (1101) 
C30H35N4O3+

$$$$
ATP-HTVS-AFD6D96F704F
     RDKit          3D

 63 66  0  0  0  0  0  0  0  0999 V2000
  204.6411  183.0968  163.3990 N   0  0  0  0  0  0  0  0  0  0  0  0
  203.9780  183.7849  162.7456 C   0  0  0  0  0  0  0  0  0  0  0  0
  203.1473  184.6483  161.9233 C   0  0  0  0  0  0  0  0  0  0  0  0
  202.3209  184.0925  160.9239 C   0  0  0  0  0  0  0  0  0  0  0  0
  201.5130  184.9271  160.1211 C   0  0  0  0  0  0  0  0  0  0  0  0
  201.5460  186.3248  160.3258 C   0  0  0  0  0  0  0  0  0  0  0  0
  202.3630  186.8779  161.3293 C   0  0  0  0  0  0  0  0  0  0  0  0
  203.1654  186.0410  162.1265 C   0  0  0  0  0  0  0  0  0  0  0  0
  200.6423  184.3165  159.0306 C   0  0  1  0  0  0  0  0  0  0  0  0
  199.2447  184.7176  159.1485 N   0  0  0  0  0  0  0  0  0  0  0  0
  198.1947  183.9169  158.6611 C   0  0  0  0  0  0  0  0  0  0  0  0
  198.4923  182.8920  157.8348 N   0  0  0  0  0  0  0  0  0  0  0  0
  197.5225  182.0887  157.3839 C   0  0  0  0  0  0  0  0  0  0  0  0
  196.2442  182.2587  157.7165 N   0  0  0  0  0  0  0  0  0  0  0  0
  195.8833  183.2731  158.5304 C   0  0  0  0  0  0  0  0  0  0  0  0
  196.8603  184.1596  159.0417 C   0  0  0  0  0  0  0  0  0  0  0  0
  196.4718  185.2137  159.8992 C   0  0  0  0  0  0  0  0  0  0  0  0
  195.1171  185.3735  160.2422 C   0  0  0  0  0  0  0  0  0  0  0  0
  194.1496  184.4841  159.7311 C   0  0  0  0  0  0  0  0  0  0  0  0
  194.5303  183.4382  158.8702 C   0  0  0  0  0  0  0  0  0  0  0  0
  197.8381  181.0396  156.5410 N   0  0  0  0  0  0  0  0  0  0  0  0
  199.2039  180.6665  156.2001 C   0  0  1  0  0  0  0  0  0  0  0  0
  199.3298  180.0369  154.8230 C   0  0  0  0  0  0  0  0  0  0  0  0
  199.4815  178.6392  154.6191 C   0  0  0  0  0  0  0  0  0  0  0  0
  199.5976  178.1487  153.2992 C   0  0  0  0  0  0  0  0  0  0  0  0
  199.5535  179.0216  152.1967 C   0  0  0  0  0  0  0  0  0  0  0  0
  199.3998  180.4026  152.4019 C   0  0  0  0  0  0  0  0  0  0  0  0
  199.2913  180.9042  153.7102 C   0  0  0  0  0  0  0  0  0  0  0  0
  199.4898  177.6436  155.7741 C   0  0  1  0  0  0  0  0  0  0  0  0
  200.8457  177.4823  156.3608 N   0  0  1  0  0  0  0  0  0  0  0  0
  200.8528  177.5532  157.8406 C   0  0  2  0  0  0  0  0  0  0  0  0
  201.5415  176.2706  155.8716 C   0  0  2  0  0  0  0  0  0  0  0  0
  201.2070  184.6536  157.6375 C   0  0  2  0  0  0  0  0  0  0  0  0
  202.3103  183.0229  160.7687 H   0  0  0  0  0  0  0  0  0  0  0  0
  200.9409  186.9823  159.7173 H   0  0  0  0  0  0  0  0  0  0  0  0
  202.3793  187.9470  161.4854 H   0  0  0  0  0  0  0  0  0  0  0  0
  203.7910  186.4739  162.8929 H   0  0  0  0  0  0  0  0  0  0  0  0
  200.6828  183.2329  159.1655 H   0  0  0  0  0  0  0  0  0  0  0  0
  199.0349  185.4968  159.7517 H   0  0  0  0  0  0  0  0  0  0  0  0
  197.1905  185.9050  160.3124 H   0  0  0  0  0  0  0  0  0  0  0  0
  194.8115  186.1788  160.8951 H   0  0  0  0  0  0  0  0  0  0  0  0
  193.1101  184.6227  159.9806 H   0  0  0  0  0  0  0  0  0  0  0  0
  193.7851  182.7742  158.4566 H   0  0  0  0  0  0  0  0  0  0  0  0
  197.1030  180.3663  156.3723 H   0  0  0  0  0  0  0  0  0  0  0  0
  199.8666  181.5353  156.2063 H   0  0  0  0  0  0  0  0  0  0  0  0
  199.5805  180.0092  156.9771 H   0  0  0  0  0  0  0  0  0  0  0  0
  199.6963  177.0882  153.1170 H   0  0  0  0  0  0  0  0  0  0  0  0
  199.6301  178.6317  151.1913 H   0  0  0  0  0  0  0  0  0  0  0  0
  199.3681  181.0768  151.5574 H   0  0  0  0  0  0  0  0  0  0  0  0
  199.1734  181.9679  153.8584 H   0  0  0  0  0  0  0  0  0  0  0  0
  198.7584  177.9596  156.5175 H   0  0  0  0  0  0  0  0  0  0  0  0
  199.1335  176.6747  155.4245 H   0  0  0  0  0  0  0  0  0  0  0  0
  200.2279  176.7736  158.2757 H   0  0  0  0  0  0  0  0  0  0  0  0
  200.4824  178.5126  158.1974 H   0  0  0  0  0  0  0  0  0  0  0  0
  201.8695  177.4370  158.2192 H   0  0  0  0  0  0  0  0  0  0  0  0
  201.0272  175.3660  156.1991 H   0  0  0  0  0  0  0  0  0  0  0  0
  202.5639  176.2263  156.2491 H   0  0  0  0  0  0  0  0  0  0  0  0
  201.5905  176.2576  154.7817 H   0  0  0  0  0  0  0  0  0  0  0  0
  202.2273  184.2868  157.5377 H   0  0  0  0  0  0  0  0  0  0  0  0
  201.2254  185.7275  157.4588 H   0  0  0  0  0  0  0  0  0  0  0  0
  200.6264  184.2032  156.8336 H   0  0  0  0  0  0  0  0  0  0  0  0
  195.5217  181.6275  157.3592 H   0  0  0  0  0  0  0  0  0  0  0  0
  201.3887  178.2692  156.0366 H   0  0  0  0  0  0  0  0  0  0  0  0
  1  2  3  0
  2  3  1  0
  3  4  2  0
  3  8  1  0
  4  5  1  0
  4 34  1  0
  5  6  2  0
  5  9  1  0
  6  7  1  0
  6 35  1  0
  7  8  2  0
  7 36  1  0
  8 37  1  0
  9 10  1  0
  9 33  1  0
  9 38  1  1
 10 11  1  0
 10 39  1  0
 11 12  2  0
 11 16  1  0
 12 13  1  0
 13 14  2  0
 13 21  1  0
 14 15  1  0
 14 62  1  0
 15 16  1  0
 15 20  2  0
 16 17  2  0
 17 18  1  0
 17 40  1  0
 18 19  2  0
 18 41  1  0
 19 20  1  0
 19 42  1  0
 20 43  1  0
 21 22  1  0
 21 44  1  0
 22 23  1  0
 22 45  1  6
 22 46  1  0
 23 24  1  0
 23 28  2  0
 24 25  2  0
 24 29  1  0
 25 26  1  0
 25 47  1  0
 26 27  2  0
 26 48  1  0
 27 28  1  0
 27 49  1  0
 28 50  1  0
 29 30  1  0
 29 51  1  1
 29 52  1  0
 30 31  1  0
 30 32  1  0
 30 63  1  6
 31 53  1  1
 31 54  1  0
 31 55  1  0
 32 56  1  1
 32 57  1  0
 32 58  1  0
 33 59  1  1
 33 60  1  0
 33 61  1  0
M  CHG  2  14   1  30   1
M  END
>  <s_epik_cmdline>  (1102) 
J2VwaWtfcHl0aG9uJywgJy1waCcsICc3LjAwMDAwMCcsICctcGh0JywgJzIuMDAwMDAwJywgJy1tcycsICcxNicsICctdG4nLCAnOCcsICctbWEnLCAnMjAwJywgJy1pbWFlJywgJzxpbmZpbGUubWFlPicsICctb21hZScsICc8b3V0ZmlsZS5tYWU+Jw==

>  <s_epik_input>  (1102) 
TiNDYzFbY0hdYyhbY0hdW2NIXVtjSF0xKVtDQEhdKFtDSDNdKVtOSF1jKGMoYzIzKVtjSF1bY0hdW2NIXVtjSF0zKW5jKG4yKVtOSF1bQ0gyXWM0YyhbQ0gyXU4oW0NIM10pW0NIM10pW2NIXVtjSF1bY0hdW2NIXTQ=

>  <s_i_glide_gridfile>  (1102) 
ATP-Grid

>  <s_lp_Force_Field>  (1102) 
OPLS_2005

>  <s_lp_Variant>  (1102) 
m_282030aaa____21917230____22360182____21973156-2

>  <s_lp_label>  (1102) 
1348_sdstereoexpander_2_neutralizer_1_epik_1_stereoizer_1

>  <s_m_source_file>  (1102) 
ATP-VSW-LIGPREP-002-in.maegz

>  <s_sd_BIOSOLVEIT.INFINISEE\_QUERY\_NAME>  (1102) 
Ref-Lig

>  <s_sd_BIOSOLVEIT.INFINISEE\_QUERY\_SMILES>  (1102) 
S(c1nc2c(cc1C[NH2+]Cc3ccc(cc3)C[NH+](C)C)cccc2)Cc4ccccc4

>  <s_sd_BIOSOLVEIT.INFINISEE\_REACTION\_NAME>  (1102) 
m_282030aaa

>  <s_sd_BIOSOLVEIT.INFINISEE\_REAGENT1\_SMILES>  (1102) 
[R1*]NC(c1cc(C#N)ccc1)C

>  <s_sd_BIOSOLVEIT.INFINISEE\_REAGENT2\_SMILES>  (1102) 
[R2*]c1nc([R1*])c2c(n1)cccc2

>  <s_sd_BIOSOLVEIT.INFINISEE\_REAGENT3\_SMILES>  (1102) 
[R2*]NCc1c(cccc1)CN(C)C

>  <s_sd_BIOSOLVEIT.INFINISEE\_SPACE>  (1102) 
REALSpace_44bn_2023-08

>  <s_vsw_compound_code>  (1102) 
43106

>  <s_vsw_variant>  (1102) 
43106-2

>  <r_epik_Charging_Adjusted_Penalty>  (1102) 
0.12970749140042101

>  <r_epik_Ionization_Penalty>  (1102) 
0.060400000000000002

>  <r_epik_Ionization_Penalty_Charging>  (1102) 
0.060400000000000002

>  <r_epik_Ionization_Penalty_Neutral>  (1102) 
0

>  <r_epik_State_Penalty>  (1102) 
0.0693

>  <r_i_docking_score>  (1102) 
-4.2302673644777098

>  <r_i_glide_ecoul>  (1102) 
-5.8912043571472203

>  <r_i_glide_eff_state_penalty>  (1102) 
0.0693

>  <r_i_glide_einternal>  (1102) 
4.6640372276306197

>  <r_i_glide_emodel>  (1102) 
-55.629177718876903

>  <r_i_glide_energy>  (1102) 
-38.745757579803502

>  <r_i_glide_erotb>  (1102) 
0.72608572124474802

>  <r_i_glide_esite>  (1102) 
-0.20313489208632901

>  <r_i_glide_evdw>  (1102) 
-32.8545532226562

>  <r_i_glide_gscore>  (1102) 
-4.2995673644777099

>  <r_i_glide_hbond>  (1102) 
-0.018790703808511701

>  <r_i_glide_ligand_efficiency>  (1102) 
-0.128189920135688

>  <r_i_glide_ligand_efficiency_ln>  (1102) 
-0.94078955870766201

>  <r_i_glide_ligand_efficiency_sa>  (1102) 
-0.41117356911542002

>  <r_i_glide_lipo>  (1102) 
-1.63345985694091

>  <r_i_glide_metal>  (1102) 
-0

>  <r_i_glide_rewards>  (1102) 
-0.64385931818181696

>  <r_lp_Energy>  (1102) 
18.883768

>  <r_qp_ACxDN^.5/SA>  (1102) 
0.013282199999999999

>  <r_qp_CIQPlogS>  (1102) 
-6.7039999999999997

>  <r_qp_EA(eV)>  (1102) 
0.68999999999999995

>  <r_qp_FISA>  (1102) 
94.978999999999999

>  <r_qp_FOSA>  (1102) 
196.03

>  <r_qp_IP(eV)>  (1102) 
7.9660000000000002

>  <r_qp_Jm>  (1102) 
0.0065442196087068102

>  <r_qp_PISA>  (1102) 
401.07400000000001

>  <r_qp_PSA>  (1102) 
67.460999999999999

>  <r_qp_PercentHumanOralAbsorption>  (1102) 
96.543999999999997

>  <r_qp_QPPCaco>  (1102) 
310.536

>  <r_qp_QPPMDCK>  (1102) 
154.619

>  <r_qp_QPlogBB>  (1102) 
-0.442

>  <r_qp_QPlogHERG>  (1102) 
-6.4809999999999999

>  <r_qp_QPlogKhsa>  (1102) 
0.64800000000000002

>  <r_qp_QPlogKp>  (1102) 
-3.056

>  <r_qp_QPlogPC16>  (1102) 
14.728999999999999

>  <r_qp_QPlogPo/w>  (1102) 
4.2690000000000001

>  <r_qp_QPlogPoct>  (1102) 
22.234999999999999

>  <r_qp_QPlogPw>  (1102) 
12.105

>  <r_qp_QPlogS>  (1102) 
-4.7690000000000001

>  <r_qp_QPpolrz>  (1102) 
46.274999999999999

>  <r_qp_SASA>  (1102) 
692.08399999999995

>  <r_qp_SAamideO>  (1102) 
0

>  <r_qp_SAfluorine>  (1102) 
0

>  <r_qp_WPSA>  (1102) 
0

>  <r_qp_accptHB>  (1102) 
6.5

>  <r_qp_dip^2/V>  (1102) 
0.0227867

>  <r_qp_dipole>  (1102) 
5.5640000000000001

>  <r_qp_donorHB>  (1102) 
2

>  <r_qp_glob>  (1102) 
0.85723709999999997

>  <r_qp_mol_MW>  (1102) 
436.55799999999999

>  <r_qp_volume>  (1102) 
1358.7560000000001

>  <r_sd_BIOSOLVEIT.INFINISEE\_FTREES\_SIMILARITY>  (1102) 
0.90900000000000003

>  <r_sd_BIOSOLVEIT.LOGP>  (1102) 
3.9311799999999999

>  <r_sd_BIOSOLVEIT.MOLECULAR\_WEIGHT>  (1102) 
437.56799999999998

>  <r_sd_BIOSOLVEIT.TPSA>  (1102) 
78.069999999999993

>  <i_epik_Tot_Q>  (1102) 
2

>  <i_epik_Tot_abs_Q>  (1102) 
2

>  <i_f3d_flags>  (1102) 
0

>  <i_i_glide_confnum>  (1102) 
9

>  <i_i_glide_lignum>  (1102) 
466

>  <i_i_glide_posenum>  (1102) 
1

>  <i_i_glide_rotatable_bonds>  (1102) 
8

>  <i_lp_mmshare_version>  (1102) 
65135

>  <i_m_ct_format>  (1102) 
2

>  <i_m_source_file_index>  (1102) 
1348

>  <i_qp_#NandO>  (1102) 
6

>  <i_qp_#acid>  (1102) 
0

>  <i_qp_#amide>  (1102) 
0

>  <i_qp_#amidine>  (1102) 
0

>  <i_qp_#amine>  (1102) 
1

>  <i_qp_#in34>  (1102) 
0

>  <i_qp_#in56>  (1102) 
22

>  <i_qp_#metab>  (1102) 
6

>  <i_qp_#nonHatm>  (1102) 
33

>  <i_qp_#noncon>  (1102) 
0

>  <i_qp_#ringatoms>  (1102) 
22

>  <i_qp_#rotor>  (1102) 
9

>  <i_qp_#rtvFG>  (1102) 
0

>  <i_qp_#stars>  (1102) 
0

>  <i_qp_CNS>  (1102) 
1

>  <i_qp_HumanOralAbsorption>  (1102) 
3

>  <i_qp_RuleOfFive>  (1102) 
0

>  <i_qp_RuleOfThree>  (1102) 
0

>  <i_sd_BIOSOLVEIT.INFINISEE\_REAGENT1\_NAME>  (1102) 
21917230

>  <i_sd_BIOSOLVEIT.INFINISEE\_REAGENT2\_NAME>  (1102) 
22360182

>  <i_sd_BIOSOLVEIT.INFINISEE\_REAGENT3\_NAME>  (1102) 
21973156

>  <i_sd_BIOSOLVEIT.INFINISEE\_RESULT\_RANK>  (1102) 
49470

>  <i_sd_version>  (1102) 
0

>  <b_lp_Chiralities_Consistent>  (1102) 
1

>  <b_sd_chiral_flag>  (1102) 
0

>  <canonical_id>  (1102) 
ATP-HTVS-AFD6D96F704F

>  <compound_code>  (1102) 
43106

>  <title>  (1102) 
m_282030aaa____21917230____22360182____21973156

>  <variant>  (1102) 
43106-2

>  <source_file>  (1102) 
运行/运行/ATP-VSW/ATP-VSW-DOCK_HTVS_1-002_lib.maegz

>  <canonical_smiles>  (1102) 
C[C@H](Nc1nc(NCc2ccccc2C[NH+](C)C)[nH+]c2ccccc12)c1cccc(C#N)c1

>  <scaffold>  (1102) 
c1ccc(CNc2nc(NCc3ccccc3)c3ccccc3[nH+]2)cc1

>  <molecular_formula>  (1102) 
C27H30N6+2

$$$$
ATP-HTVS-AFF6C4F7FD39
     RDKit          3D

 63 66  0  0  0  0  0  0  0  0999 V2000
  196.8486  184.8633  158.2591 F   0  0  0  0  0  0  0  0  0  0  0  0
  197.1319  183.8932  157.3560 C   0  0  0  0  0  0  0  0  0  0  0  0
  196.4435  182.6631  157.3893 C   0  0  0  0  0  0  0  0  0  0  0  0
  196.7538  181.6685  156.4375 C   0  0  0  0  0  0  0  0  0  0  0  0
  197.7437  181.8940  155.4599 C   0  0  0  0  0  0  0  0  0  0  0  0
  198.4240  183.1279  155.4302 C   0  0  0  0  0  0  0  0  0  0  0  0
  198.1167  184.1248  156.3759 C   0  0  0  0  0  0  0  0  0  0  0  0
  198.0732  180.8146  154.4486 C   0  0  1  0  0  0  0  0  0  0  0  0
  198.7081  179.6488  155.0402 N   0  0  0  0  0  0  0  0  0  0  0  0
  199.2751  178.6313  154.2905 C   0  0  0  0  0  0  0  0  0  0  0  0
  199.1641  178.6534  152.9572 N   0  0  0  0  0  0  0  0  0  0  0  0
  199.6789  177.6389  152.2252 C   0  0  0  0  0  0  0  0  0  0  0  0
  199.4941  177.6600  150.8306 N   0  0  0  0  0  0  0  0  0  0  0  0
  198.5826  178.6127  150.2092 C   0  0  1  0  0  0  0  0  0  0  0  0
  198.4221  178.4327  148.7084 C   0  0  0  0  0  0  0  0  0  0  0  0
  199.5489  178.3504  147.8611 C   0  0  0  0  0  0  0  0  0  0  0  0
  199.3863  178.2226  146.4643 C   0  0  0  0  0  0  0  0  0  0  0  0
  198.0923  178.1964  145.9105 C   0  0  0  0  0  0  0  0  0  0  0  0
  196.9697  178.2494  146.7583 C   0  0  0  0  0  0  0  0  0  0  0  0
  197.1316  178.3848  148.1441 C   0  0  0  0  0  0  0  0  0  0  0  0
  200.6020  178.0907  145.5470 C   0  0  1  0  0  0  0  0  0  0  0  0
  200.7479  176.7423  144.9423 N   0  0  2  0  0  0  0  0  0  0  0  0
  200.6549  175.6303  145.9222 C   0  0  2  0  0  0  0  0  0  0  0  0
  201.9608  176.6303  144.1082 C   0  0  2  0  0  0  0  0  0  0  0  0
  200.3647  176.5757  152.8493 C   0  0  0  0  0  0  0  0  0  0  0  0
  200.4628  176.6203  154.2604 C   0  0  0  0  0  0  0  0  0  0  0  0
  199.9031  177.6486  154.9389 N   0  0  0  0  0  0  0  0  0  0  0  0
  201.1145  175.5920  154.9623 C   0  0  0  0  0  0  0  0  0  0  0  0
  201.6713  174.5036  154.2630 C   0  0  0  0  0  0  0  0  0  0  0  0
  201.5765  174.4511  152.8592 C   0  0  0  0  0  0  0  0  0  0  0  0
  200.9261  175.4795  152.1510 C   0  0  0  0  0  0  0  0  0  0  0  0
  195.3673  182.4110  158.4283 C   0  0  1  0  0  0  0  0  0  0  0  0
  194.2192  183.1882  158.2140 O   0  0  0  0  0  0  0  0  0  0  0  0
  196.2301  180.7236  156.4555 H   0  0  0  0  0  0  0  0  0  0  0  0
  199.1873  183.3182  154.6876 H   0  0  0  0  0  0  0  0  0  0  0  0
  198.6349  185.0701  156.3524 H   0  0  0  0  0  0  0  0  0  0  0  0
  197.1570  180.4989  153.9498 H   0  0  0  0  0  0  0  0  0  0  0  0
  198.7268  181.2273  153.6797 H   0  0  0  0  0  0  0  0  0  0  0  0
  198.7137  179.5572  156.0462 H   0  0  0  0  0  0  0  0  0  0  0  0
  199.7880  176.8703  150.2814 H   0  0  0  0  0  0  0  0  0  0  0  0
  197.6094  178.5320  150.6987 H   0  0  0  0  0  0  0  0  0  0  0  0
  198.9486  179.6256  150.3852 H   0  0  0  0  0  0  0  0  0  0  0  0
  200.5358  178.3709  148.2937 H   0  0  0  0  0  0  0  0  0  0  0  0
  197.9467  178.0639  144.8463 H   0  0  0  0  0  0  0  0  0  0  0  0
  195.9741  178.1888  146.3374 H   0  0  0  0  0  0  0  0  0  0  0  0
  196.2629  178.4735  148.7796 H   0  0  0  0  0  0  0  0  0  0  0  0
  200.5374  178.8492  144.7652 H   0  0  0  0  0  0  0  0  0  0  0  0
  201.5055  178.3126  146.1208 H   0  0  0  0  0  0  0  0  0  0  0  0
  201.4700  175.6897  146.6534 H   0  0  0  0  0  0  0  0  0  0  0  0
  200.7079  174.6553  145.4310 H   0  0  0  0  0  0  0  0  0  0  0  0
  199.7249  175.6179  146.5027 H   0  0  0  0  0  0  0  0  0  0  0  0
  202.8593  176.7841  144.7058 H   0  0  0  0  0  0  0  0  0  0  0  0
  201.9372  177.3665  143.3081 H   0  0  0  0  0  0  0  0  0  0  0  0
  202.0178  175.6414  143.6564 H   0  0  0  0  0  0  0  0  0  0  0  0
  201.1837  175.6175  156.0401 H   0  0  0  0  0  0  0  0  0  0  0  0
  202.1674  173.7081  154.7943 H   0  0  0  0  0  0  0  0  0  0  0  0
  202.0122  173.6198  152.3277 H   0  0  0  0  0  0  0  0  0  0  0  0
  200.8735  175.4111  151.0762 H   0  0  0  0  0  0  0  0  0  0  0  0
  195.0756  181.3624  158.4267 H   0  0  0  0  0  0  0  0  0  0  0  0
  195.7745  182.6157  159.4247 H   0  0  0  0  0  0  0  0  0  0  0  0
  193.9285  183.0364  157.3108 H   0  0  0  0  0  0  0  0  0  0  0  0
  199.9593  177.6440  155.9605 H   0  0  0  0  0  0  0  0  0  0  0  0
  199.9906  176.6384  144.2577 H   0  0  0  0  0  0  0  0  0  0  0  0
  1  2  1  0
  2  3  2  0
  2  7  1  0
  3  4  1  0
  3 32  1  0
  4  5  2  0
  4 34  1  0
  5  6  1  0
  5  8  1  0
  6  7  2  0
  6 35  1  0
  7 36  1  0
  8  9  1  0
  8 37  1  6
  8 38  1  0
  9 10  1  0
  9 39  1  0
 10 11  1  0
 10 27  2  0
 11 12  2  0
 12 13  1  0
 12 25  1  0
 13 14  1  0
 13 40  1  0
 14 15  1  0
 14 41  1  1
 14 42  1  0
 15 16  2  0
 15 20  1  0
 16 17  1  0
 16 43  1  0
 17 18  2  0
 17 21  1  0
 18 19  1  0
 18 44  1  0
 19 20  2  0
 19 45  1  0
 20 46  1  0
 21 22  1  0
 21 47  1  6
 21 48  1  0
 22 23  1  0
 22 24  1  0
 22 63  1  6
 23 49  1  1
 23 50  1  0
 23 51  1  0
 24 52  1  1
 24 53  1  0
 24 54  1  0
 25 26  1  0
 25 31  2  0
 26 27  1  0
 26 28  2  0
 27 62  1  0
 28 29  1  0
 28 55  1  0
 29 30  2  0
 29 56  1  0
 30 31  1  0
 30 57  1  0
 31 58  1  0
 32 33  1  0
 32 59  1  1
 32 60  1  0
 33 61  1  0
M  CHG  2  22   1  27   1
M  END
>  <s_epik_cmdline>  (1103) 
J2VwaWtfcHl0aG9uJywgJy1waCcsICc3LjAwMDAwMCcsICctcGh0JywgJzIuMDAwMDAwJywgJy1tcycsICcxNicsICctdG4nLCAnOCcsICctbWEnLCAnMjAwJywgJy1pbWFlJywgJzxpbmZpbGUubWFlPicsICctb21hZScsICc8b3V0ZmlsZS5tYWU+Jw==

>  <s_epik_input>  (1103) 
RmMxYyhbQ0gyXVtPSF0pW2NIXWMoW2NIXVtjSF0xKVtDSDJdW05IXWMobmMoYzIzKVtjSF1bY0hdW2NIXVtjSF0zKW5jMltOSF1bQ0gyXWM0W2NIXWMoW2NIXVtjSF1bY0hdNClbQ0gyXU4oW0NIM10pW0NIM10=

>  <s_i_glide_gridfile>  (1103) 
ATP-Grid

>  <s_lp_Force_Field>  (1103) 
OPLS_2005

>  <s_lp_Variant>  (1103) 
m_282030aaa____21905842____22360182____21940090-1

>  <s_lp_label>  (1103) 
1512_sdstereoexpander_1_neutralizer_1_epik_1_stereoizer_1

>  <s_m_source_file>  (1103) 
ATP-VSW-LIGPREP-003-in.maegz

>  <s_sd_BIOSOLVEIT.INFINISEE\_QUERY\_NAME>  (1103) 
Ref-Lig

>  <s_sd_BIOSOLVEIT.INFINISEE\_QUERY\_SMILES>  (1103) 
S(c1nc2c(cc1C[NH2+]Cc3ccc(cc3)C[NH+](C)C)cccc2)Cc4ccccc4

>  <s_sd_BIOSOLVEIT.INFINISEE\_REACTION\_NAME>  (1103) 
m_282030aaa

>  <s_sd_BIOSOLVEIT.INFINISEE\_REAGENT1\_SMILES>  (1103) 
[R1*]NCc1cc(c(F)cc1)CO

>  <s_sd_BIOSOLVEIT.INFINISEE\_REAGENT2\_SMILES>  (1103) 
[R2*]c1nc([R1*])c2c(n1)cccc2

>  <s_sd_BIOSOLVEIT.INFINISEE\_REAGENT3\_SMILES>  (1103) 
[R2*]NCc1cc(ccc1)CN(C)C

>  <s_sd_BIOSOLVEIT.INFINISEE\_SPACE>  (1103) 
REALSpace_44bn_2023-08

>  <s_vsw_compound_code>  (1103) 
48355

>  <s_vsw_variant>  (1103) 
48355-1

>  <r_epik_Charging_Adjusted_Penalty>  (1103) 
0.12709614042424699

>  <r_epik_Ionization_Penalty>  (1103) 
0.0608

>  <r_epik_Ionization_Penalty_Charging>  (1103) 
0.0608

>  <r_epik_Ionization_Penalty_Neutral>  (1103) 
0

>  <r_epik_State_Penalty>  (1103) 
0.066299999999999998

>  <r_i_docking_score>  (1103) 
-4.4490893968087404

>  <r_i_glide_ecoul>  (1103) 
-12.484351158142101

>  <r_i_glide_eff_state_penalty>  (1103) 
0.066299999999999998

>  <r_i_glide_einternal>  (1103) 
2.66917943954468

>  <r_i_glide_emodel>  (1103) 
-58.474528118956002

>  <r_i_glide_energy>  (1103) 
-39.617299079894998

>  <r_i_glide_erotb>  (1103) 
0.79982463678156301

>  <r_i_glide_esite>  (1103) 
-0.17226770023297699

>  <r_i_glide_evdw>  (1103) 
-27.132947921752901

>  <r_i_glide_gscore>  (1103) 
-4.5153893968087404

>  <r_i_glide_hbond>  (1103) 
-0.35999999999999999

>  <r_i_glide_ligand_efficiency>  (1103) 
-0.13482089081238599

>  <r_i_glide_ligand_efficiency_ln>  (1103) 
-0.98945444569823604

>  <r_i_glide_ligand_efficiency_sa>  (1103) 
-0.432442635177334

>  <r_i_glide_lipo>  (1103) 
-0.89350414650002996

>  <r_i_glide_metal>  (1103) 
-0

>  <r_i_glide_rewards>  (1103) 
-0.66014211704833603

>  <r_lp_Energy>  (1103) 
22.024875999999999

>  <r_qp_ACxDN^.5/SA>  (1103) 
0.015105800000000001

>  <r_qp_CIQPlogS>  (1103) 
-5.718

>  <r_qp_EA(eV)>  (1103) 
0.61699999999999999

>  <r_qp_FISA>  (1103) 
100.58499999999999

>  <r_qp_FOSA>  (1103) 
254.745

>  <r_qp_IP(eV)>  (1103) 
8.0120000000000005

>  <r_qp_Jm>  (1103) 
0.0040214209629727297

>  <r_qp_PISA>  (1103) 
375.02499999999998

>  <r_qp_PSA>  (1103) 
70.448999999999998

>  <r_qp_PercentHumanOralAbsorption>  (1103) 
96.875

>  <r_qp_QPPCaco>  (1103) 
274.76100000000002

>  <r_qp_QPPMDCK>  (1103) 
218.41900000000001

>  <r_qp_QPlogBB>  (1103) 
-0.59899999999999998

>  <r_qp_QPlogHERG>  (1103) 
-7.3029999999999999

>  <r_qp_QPlogKhsa>  (1103) 
0.65100000000000002

>  <r_qp_QPlogKp>  (1103) 
-3.1549999999999998

>  <r_qp_QPlogPC16>  (1103) 
15.327

>  <r_qp_QPlogPo/w>  (1103) 
4.4880000000000004

>  <r_qp_QPlogPoct>  (1103) 
24.111999999999998

>  <r_qp_QPlogPw>  (1103) 
13.603999999999999

>  <r_qp_QPlogS>  (1103) 
-4.8899999999999997

>  <r_qp_QPpolrz>  (1103) 
48.207000000000001

>  <r_qp_SASA>  (1103) 
768.23099999999999

>  <r_qp_SAamideO>  (1103) 
0

>  <r_qp_SAfluorine>  (1103) 
37.875999999999998

>  <r_qp_WPSA>  (1103) 
37.875999999999998

>  <r_qp_accptHB>  (1103) 
6.7000000000000002

>  <r_qp_dip^2/V>  (1103) 
0.0026540000000000001

>  <r_qp_dipole>  (1103) 
1.948

>  <r_qp_donorHB>  (1103) 
3

>  <r_qp_glob>  (1103) 
0.79876979999999997

>  <r_qp_mol_MW>  (1103) 
445.53800000000001

>  <r_qp_volume>  (1103) 
1429.297

>  <r_sd_BIOSOLVEIT.INFINISEE\_FTREES\_SIMILARITY>  (1103) 
0.90700000000000003

>  <r_sd_BIOSOLVEIT.LOGP>  (1103) 
3.1299000000000001

>  <r_sd_BIOSOLVEIT.MOLECULAR\_WEIGHT>  (1103) 
446.54700000000003

>  <r_sd_BIOSOLVEIT.TPSA>  (1103) 
74.510000000000005

>  <i_epik_Tot_Q>  (1103) 
2

>  <i_epik_Tot_abs_Q>  (1103) 
2

>  <i_f3d_flags>  (1103) 
0

>  <i_i_glide_confnum>  (1103) 
7

>  <i_i_glide_lignum>  (1103) 
576

>  <i_i_glide_posenum>  (1103) 
1

>  <i_i_glide_rotatable_bonds>  (1103) 
10

>  <i_lp_mmshare_version>  (1103) 
65135

>  <i_m_ct_format>  (1103) 
2

>  <i_m_source_file_index>  (1103) 
1512

>  <i_qp_#NandO>  (1103) 
6

>  <i_qp_#acid>  (1103) 
0

>  <i_qp_#amide>  (1103) 
0

>  <i_qp_#amidine>  (1103) 
0

>  <i_qp_#amine>  (1103) 
1

>  <i_qp_#in34>  (1103) 
0

>  <i_qp_#in56>  (1103) 
22

>  <i_qp_#metab>  (1103) 
5

>  <i_qp_#nonHatm>  (1103) 
33

>  <i_qp_#noncon>  (1103) 
0

>  <i_qp_#ringatoms>  (1103) 
22

>  <i_qp_#rotor>  (1103) 
10

>  <i_qp_#rtvFG>  (1103) 
0

>  <i_qp_#stars>  (1103) 
0

>  <i_qp_CNS>  (1103) 
0

>  <i_qp_HumanOralAbsorption>  (1103) 
3

>  <i_qp_RuleOfFive>  (1103) 
0

>  <i_qp_RuleOfThree>  (1103) 
0

>  <i_sd_BIOSOLVEIT.INFINISEE\_REAGENT1\_NAME>  (1103) 
21905842

>  <i_sd_BIOSOLVEIT.INFINISEE\_REAGENT2\_NAME>  (1103) 
22360182

>  <i_sd_BIOSOLVEIT.INFINISEE\_REAGENT3\_NAME>  (1103) 
21940090

>  <i_sd_BIOSOLVEIT.INFINISEE\_RESULT\_RANK>  (1103) 
60215

>  <i_sd_version>  (1103) 
0

>  <b_lp_Chiralities_Consistent>  (1103) 
1

>  <b_sd_chiral_flag>  (1103) 
0

>  <canonical_id>  (1103) 
ATP-HTVS-AFF6C4F7FD39

>  <compound_code>  (1103) 
48355

>  <title>  (1103) 
m_282030aaa____21905842____22360182____21940090

>  <variant>  (1103) 
48355-1

>  <source_file>  (1103) 
运行/运行/ATP-VSW/ATP-VSW-DOCK_HTVS_1-003_lib/ATP-VSW-DOCK_HTVS_1-003_lib.mae

>  <canonical_smiles>  (1103) 
C[NH+](C)Cc1cccc(CNc2nc(NCc3ccc(F)c(CO)c3)[nH+]c3ccccc23)c1

>  <scaffold>  (1103) 
c1ccc(CNc2nc(NCc3ccccc3)c3ccccc3[nH+]2)cc1

>  <molecular_formula>  (1103) 
C26H30FN5O+2

$$$$
ATP-HTVS-B00F3517908E
     RDKit          3D

 58 61  0  0  0  0  0  0  0  0999 V2000
  200.2052  180.0774  156.7958 Cl  0  0  0  0  0  0  0  0  0  0  0  0
  200.5788  178.4925  156.2021 C   0  0  0  0  0  0  0  0  0  0  0  0
  201.0991  177.5385  157.0999 C   0  0  0  0  0  0  0  0  0  0  0  0
  201.2830  177.8665  158.4005 F   0  0  0  0  0  0  0  0  0  0  0  0
  201.4330  176.2462  156.6516 C   0  0  0  0  0  0  0  0  0  0  0  0
  201.2244  175.8880  155.3075 C   0  0  0  0  0  0  0  0  0  0  0  0
  200.6934  176.8285  154.4082 C   0  0  0  0  0  0  0  0  0  0  0  0
  200.3612  178.1323  154.8465 C   0  0  0  0  0  0  0  0  0  0  0  0
  199.8277  179.1170  153.8474 C   0  0  0  0  0  0  0  0  0  0  0  0
  200.3259  180.2370  153.7309 O   0  0  0  0  0  0  0  0  0  0  0  0
  198.7800  178.6693  153.1335 N   0  0  0  0  0  0  0  0  0  0  0  0
  198.1023  179.3499  152.0836 C   0  0  0  0  0  0  0  0  0  0  0  0
  197.4962  180.6179  152.2864 C   0  0  0  0  0  0  0  0  0  0  0  0
  197.5170  181.2175  153.5558 N   0  0  0  0  0  0  0  0  0  0  0  0
  197.4463  182.6658  153.6796 C   0  0  1  0  0  0  0  0  0  0  0  0
  197.5206  183.1125  155.1255 C   0  0  0  0  0  0  0  0  0  0  0  0
  196.7383  182.4563  156.0974 C   0  0  0  0  0  0  0  0  0  0  0  0
  196.7175  182.9109  157.4291 C   0  0  0  0  0  0  0  0  0  0  0  0
  197.5247  184.0041  157.8057 C   0  0  0  0  0  0  0  0  0  0  0  0
  198.3314  184.6431  156.8448 C   0  0  0  0  0  0  0  0  0  0  0  0
  198.3257  184.2055  155.5050 C   0  0  0  0  0  0  0  0  0  0  0  0
  195.8222  182.2134  158.4319 C   0  0  1  0  0  0  0  0  0  0  0  0
  194.3849  182.4658  158.1367 N   0  0  2  0  0  0  0  0  0  0  0  0
  193.8675  183.6904  158.7852 C   0  0  2  0  0  0  0  0  0  0  0  0
  193.5377  181.2856  158.3919 C   0  0  2  0  0  0  0  0  0  0  0  0
  196.8502  181.2214  151.1872 C   0  0  0  0  0  0  0  0  0  0  0  0
  196.7461  180.6466  149.9780 N   0  0  0  0  0  0  0  0  0  0  0  0
  197.2768  179.4221  149.7848 C   0  0  0  0  0  0  0  0  0  0  0  0
  197.9603  178.7198  150.8171 C   0  0  0  0  0  0  0  0  0  0  0  0
  198.4884  177.4309  150.5537 C   0  0  0  0  0  0  0  0  0  0  0  0
  198.3472  176.8468  149.2792 C   0  0  0  0  0  0  0  0  0  0  0  0
  197.6785  177.5432  148.2594 C   0  0  0  0  0  0  0  0  0  0  0  0
  197.1467  178.8174  148.5198 C   0  0  0  0  0  0  0  0  0  0  0  0
  201.8434  175.5220  157.3371 H   0  0  0  0  0  0  0  0  0  0  0  0
  201.4924  174.8992  154.9655 H   0  0  0  0  0  0  0  0  0  0  0  0
  200.5587  176.5461  153.3733 H   0  0  0  0  0  0  0  0  0  0  0  0
  198.5253  177.7049  153.2759 H   0  0  0  0  0  0  0  0  0  0  0  0
  198.1218  180.7881  154.2369 H   0  0  0  0  0  0  0  0  0  0  0  0
  198.2558  183.1156  153.1005 H   0  0  0  0  0  0  0  0  0  0  0  0
  196.4997  183.0376  153.2899 H   0  0  0  0  0  0  0  0  0  0  0  0
  196.1141  181.6230  155.8091 H   0  0  0  0  0  0  0  0  0  0  0  0
  197.5322  184.3514  158.8282 H   0  0  0  0  0  0  0  0  0  0  0  0
  198.9634  185.4702  157.1329 H   0  0  0  0  0  0  0  0  0  0  0  0
  198.9346  184.7093  154.7698 H   0  0  0  0  0  0  0  0  0  0  0  0
  196.0625  181.1510  158.3916 H   0  0  0  0  0  0  0  0  0  0  0  0
  196.0674  182.5171  159.4527 H   0  0  0  0  0  0  0  0  0  0  0  0
  193.9632  183.6312  159.8710 H   0  0  0  0  0  0  0  0  0  0  0  0
  192.8125  183.8409  158.5473 H   0  0  0  0  0  0  0  0  0  0  0  0
  194.4118  184.5764  158.4513 H   0  0  0  0  0  0  0  0  0  0  0  0
  193.5799  181.0112  159.4436 H   0  0  0  0  0  0  0  0  0  0  0  0
  193.8770  180.4369  157.8021 H   0  0  0  0  0  0  0  0  0  0  0  0
  192.4993  181.4730  158.1124 H   0  0  0  0  0  0  0  0  0  0  0  0
  196.3848  182.1951  151.2650 H   0  0  0  0  0  0  0  0  0  0  0  0
  199.0066  176.8676  151.3142 H   0  0  0  0  0  0  0  0  0  0  0  0
  198.7498  175.8628  149.0810 H   0  0  0  0  0  0  0  0  0  0  0  0
  197.5647  177.1011  147.2794 H   0  0  0  0  0  0  0  0  0  0  0  0
  196.6381  179.3536  147.7324 H   0  0  0  0  0  0  0  0  0  0  0  0
  194.2888  182.6253  157.1285 H   0  0  0  0  0  0  0  0  0  0  0  0
  1  2  1  0
  2  3  2  0
  2  8  1  0
  3  4  1  0
  3  5  1  0
  5  6  2  0
  5 34  1  0
  6  7  1  0
  6 35  1  0
  7  8  2  0
  7 36  1  0
  8  9  1  0
  9 10  2  0
  9 11  1  0
 11 12  1  0
 11 37  1  0
 12 13  2  0
 12 29  1  0
 13 14  1  0
 13 26  1  0
 14 15  1  0
 14 38  1  0
 15 16  1  0
 15 39  1  6
 15 40  1  0
 16 17  2  0
 16 21  1  0
 17 18  1  0
 17 41  1  0
 18 19  2  0
 18 22  1  0
 19 20  1  0
 19 42  1  0
 20 21  2  0
 20 43  1  0
 21 44  1  0
 22 23  1  0
 22 45  1  1
 22 46  1  0
 23 24  1  0
 23 25  1  0
 23 58  1  6
 24 47  1  1
 24 48  1  0
 24 49  1  0
 25 50  1  1
 25 51  1  0
 25 52  1  0
 26 27  2  0
 26 53  1  0
 27 28  1  0
 28 29  1  0
 28 33  2  0
 29 30  2  0
 30 31  1  0
 30 54  1  0
 31 32  2  0
 31 55  1  0
 32 33  1  0
 32 56  1  0
 33 57  1  0
M  CHG  1  23   1
M  END
>  <s_epik_cmdline>  (1104) 
J2VwaWtfcHl0aG9uJywgJy1waCcsICc3LjAwMDAwMCcsICctcGh0JywgJzIuMDAwMDAwJywgJy1tcycsICcxNicsICctdG4nLCAnOCcsICctbWEnLCAnMjAwJywgJy1pbWFlJywgJzxpbmZpbGUubWFlPicsICctb21hZScsICc8b3V0ZmlsZS5tYWU+Jw==

>  <s_epik_input>  (1104) 
Q2xjMWMoRilbY0hdW2NIXVtjSF1jMUMoPU8pW05IXWMoYyhjMjMpW2NIXVtjSF1bY0hdW2NIXTMpYyhbY0hdbjIpW05IXVtDSDJdYzRbY0hdYyhbY0hdW2NIXVtjSF00KVtDSDJdTihbQ0gzXSlbQ0gzXQ==

>  <s_i_glide_gridfile>  (1104) 
ATP-Grid

>  <s_lp_Force_Field>  (1104) 
OPLS_2005

>  <s_lp_Variant>  (1104) 
rxn502b____EMOL908292____EMOL13728749____EMOL2873214-1

>  <s_lp_label>  (1104) 
2242_sdstereoexpander_1_neutralizer_1_epik_1_stereoizer_1

>  <s_m_source_file>  (1104) 
ATP-VSW-LIGPREP-003-in.maegz

>  <s_sd_BIOSOLVEIT.INFINISEE\_QUERY\_NAME>  (1104) 
Ref-Lig

>  <s_sd_BIOSOLVEIT.INFINISEE\_QUERY\_SMILES>  (1104) 
S(c1nc2c(cc1C[NH2+]Cc3ccc(cc3)C[NH+](C)C)cccc2)Cc4ccccc4

>  <s_sd_BIOSOLVEIT.INFINISEE\_REACTION\_NAME>  (1104) 
rxn502b

>  <s_sd_BIOSOLVEIT.INFINISEE\_REAGENT1\_NAME>  (1104) 
EMOL908292

>  <s_sd_BIOSOLVEIT.INFINISEE\_REAGENT1\_SMILES>  (1104) 
Clc1c(F)cccc1C(=O)O

>  <s_sd_BIOSOLVEIT.INFINISEE\_REAGENT2\_NAME>  (1104) 
EMOL13728749

>  <s_sd_BIOSOLVEIT.INFINISEE\_REAGENT2\_SMILES>  (1104) 
Brc1c(N)c2c(nc1)cccc2

>  <s_sd_BIOSOLVEIT.INFINISEE\_REAGENT3\_NAME>  (1104) 
EMOL2873214

>  <s_sd_BIOSOLVEIT.INFINISEE\_REAGENT3\_SMILES>  (1104) 
N(Cc1cc(ccc1)CN)(C)C

>  <s_sd_BIOSOLVEIT.INFINISEE\_SPACE>  (1104) 
eXplore_7tr_2022-12

>  <s_vsw_compound_code>  (1104) 
71715

>  <s_vsw_variant>  (1104) 
71715-1

>  <r_epik_Charging_Adjusted_Penalty>  (1104) 
0.127426369452352

>  <r_epik_Ionization_Penalty>  (1104) 
0.083500000000000005

>  <r_epik_Ionization_Penalty_Charging>  (1104) 
0.0441

>  <r_epik_Ionization_Penalty_Neutral>  (1104) 
0.039399999999999998

>  <r_epik_State_Penalty>  (1104) 
0.083299999999999999

>  <r_i_docking_score>  (1104) 
-4.6137468457007804

>  <r_i_glide_ecoul>  (1104) 
-8.3103675842285192

>  <r_i_glide_eff_state_penalty>  (1104) 
0.083299999999999999

>  <r_i_glide_einternal>  (1104) 
2.2086589336395299

>  <r_i_glide_emodel>  (1104) 
-63.652467496838199

>  <r_i_glide_energy>  (1104) 
-45.648605346679702

>  <r_i_glide_erotb>  (1104) 
0.65545897505428696

>  <r_i_glide_esite>  (1104) 
-0.112149708996261

>  <r_i_glide_evdw>  (1104) 
-37.3382377624512

>  <r_i_glide_gscore>  (1104) 
-4.6970468457007799

>  <r_i_glide_hbond>  (1104) 
-0.20000000000000001

>  <r_i_glide_ligand_efficiency>  (1104) 
-0.139810510475781

>  <r_i_glide_ligand_efficiency_ln>  (1104) 
-1.0260734097811799

>  <r_i_glide_ligand_efficiency_sa>  (1104) 
-0.44844701152264299

>  <r_i_glide_lipo>  (1104) 
-1.4973829602756199

>  <r_i_glide_metal>  (1104) 
-0

>  <r_i_glide_rewards>  (1104) 
-0.429506125726349

>  <r_lp_Energy>  (1104) 
34.456094

>  <r_qp_ACxDN^.5/SA>  (1104) 
0.013472400000000001

>  <r_qp_CIQPlogS>  (1104) 
-6.2350000000000003

>  <r_qp_EA(eV)>  (1104) 
0.98599999999999999

>  <r_qp_FISA>  (1104) 
39.640999999999998

>  <r_qp_FOSA>  (1104) 
144.34

>  <r_qp_IP(eV)>  (1104) 
8.2710000000000008

>  <r_qp_Jm>  (1104) 
0.17169326466631199

>  <r_qp_PISA>  (1104) 
419.97699999999998

>  <r_qp_PSA>  (1104) 
58.795000000000002

>  <r_qp_PercentHumanOralAbsorption>  (1104) 
100

>  <r_qp_QPPCaco>  (1104) 
1039.6389999999999

>  <r_qp_QPPMDCK>  (1104) 
1533.6020000000001

>  <r_qp_QPlogBB>  (1104) 
0.374

>  <r_qp_QPlogHERG>  (1104) 
-6.5519999999999996

>  <r_qp_QPlogKhsa>  (1104) 
0.66600000000000004

>  <r_qp_QPlogKp>  (1104) 
-2.161

>  <r_qp_QPlogPC16>  (1104) 
14.305

>  <r_qp_QPlogPo/w>  (1104) 
4.8120000000000003

>  <r_qp_QPlogPoct>  (1104) 
22.829999999999998

>  <r_qp_QPlogPw>  (1104) 
12.303000000000001

>  <r_qp_QPlogS>  (1104) 
-4.2699999999999996

>  <r_qp_QPpolrz>  (1104) 
46.701000000000001

>  <r_qp_SASA>  (1104) 
682.31500000000005

>  <r_qp_SAamideO>  (1104) 
0

>  <r_qp_SAfluorine>  (1104) 
36.530000000000001

>  <r_qp_WPSA>  (1104) 
78.355999999999995

>  <r_qp_accptHB>  (1104) 
6.5

>  <r_qp_dip^2/V>  (1104) 
0.040353

>  <r_qp_dipole>  (1104) 
7.3339999999999996

>  <r_qp_donorHB>  (1104) 
2

>  <r_qp_glob>  (1104) 
0.85840099999999997

>  <r_qp_mol_MW>  (1104) 
462.95299999999997

>  <r_qp_volume>  (1104) 
1332.8009999999999

>  <r_sd_BIOSOLVEIT.INFINISEE\_FTREES\_SIMILARITY>  (1104) 
0.92700000000000005

>  <r_sd_BIOSOLVEIT.LOGP>  (1104) 
4.5362

>  <r_sd_BIOSOLVEIT.MOLECULAR\_WEIGHT>  (1104) 
463.96199999999999

>  <r_sd_BIOSOLVEIT.TPSA>  (1104) 
58.460000000000001

>  <i_epik_Tot_Q>  (1104) 
1

>  <i_epik_Tot_abs_Q>  (1104) 
1

>  <i_f3d_flags>  (1104) 
0

>  <i_i_glide_confnum>  (1104) 
8

>  <i_i_glide_lignum>  (1104) 
914

>  <i_i_glide_posenum>  (1104) 
18

>  <i_i_glide_rotatable_bonds>  (1104) 
8

>  <i_lp_mmshare_version>  (1104) 
65135

>  <i_m_ct_format>  (1104) 
2

>  <i_m_source_file_index>  (1104) 
2242

>  <i_qp_#NandO>  (1104) 
5

>  <i_qp_#acid>  (1104) 
0

>  <i_qp_#amide>  (1104) 
0

>  <i_qp_#amidine>  (1104) 
0

>  <i_qp_#amine>  (1104) 
1

>  <i_qp_#in34>  (1104) 
0

>  <i_qp_#in56>  (1104) 
22

>  <i_qp_#metab>  (1104) 
6

>  <i_qp_#nonHatm>  (1104) 
33

>  <i_qp_#noncon>  (1104) 
0

>  <i_qp_#ringatoms>  (1104) 
22

>  <i_qp_#rotor>  (1104) 
7

>  <i_qp_#rtvFG>  (1104) 
0

>  <i_qp_#stars>  (1104) 
0

>  <i_qp_CNS>  (1104) 
1

>  <i_qp_HumanOralAbsorption>  (1104) 
3

>  <i_qp_RuleOfFive>  (1104) 
0

>  <i_qp_RuleOfThree>  (1104) 
0

>  <i_sd_BIOSOLVEIT.INFINISEE\_RESULT\_RANK>  (1104) 
6980

>  <i_sd_version>  (1104) 
0

>  <b_lp_Chiralities_Consistent>  (1104) 
1

>  <b_sd_chiral_flag>  (1104) 
0

>  <canonical_id>  (1104) 
ATP-HTVS-B00F3517908E

>  <compound_code>  (1104) 
71715

>  <title>  (1104) 
rxn502b____EMOL908292____EMOL13728749____EMOL2873214

>  <variant>  (1104) 
71715-1

>  <source_file>  (1104) 
运行/运行/ATP-VSW/ATP-VSW-DOCK_HTVS_1-003_lib/ATP-VSW-DOCK_HTVS_1-003_lib.mae

>  <canonical_smiles>  (1104) 
C[NH+](C)Cc1cccc(CNc2cnc3ccccc3c2NC(=O)c2cccc(F)c2Cl)c1

>  <scaffold>  (1104) 
O=C(Nc1c(NCc2ccccc2)cnc2ccccc12)c1ccccc1

>  <molecular_formula>  (1104) 
C26H25ClFN4O+

$$$$
ATP-HTVS-B0742D29E2ED
     RDKit          3D

 55 57  0  0  0  0  0  0  0  0999 V2000
  196.4152  180.1739  150.5076 Cl  0  0  0  0  0  0  0  0  0  0  0  0
  196.9892  181.6982  151.0844 C   0  0  0  0  0  0  0  0  0  0  0  0
  197.7784  182.5363  150.2681 C   0  0  0  0  0  0  0  0  0  0  0  0
  198.2399  183.7773  150.7610 C   0  0  0  0  0  0  0  0  0  0  0  0
  197.9107  184.2091  152.0700 C   0  0  0  0  0  0  0  0  0  0  0  0
  197.0507  183.3859  152.8459 C   0  0  0  0  0  0  0  0  0  0  0  0
  196.6416  182.1366  152.3824 C   0  0  0  0  0  0  0  0  0  0  0  0
  198.4043  185.5420  152.5886 C   0  0  0  0  0  0  0  0  0  0  0  0
  198.3641  186.4951  151.8052 O   0  0  0  0  0  0  0  0  0  0  0  0
  198.9228  185.6157  153.8523 N   0  0  0  0  0  0  0  0  0  0  0  0
  199.1758  186.8915  154.4734 C   0  0  0  0  0  0  0  0  0  0  0  0
  199.8907  187.8973  153.8989 N   0  0  0  0  0  0  0  0  0  0  0  0
  200.0873  189.0530  154.5906 C   0  0  0  0  0  0  0  0  0  0  0  0
  199.6191  189.2556  155.9105 C   0  0  0  0  0  0  0  0  0  0  0  0
  198.8838  188.2159  156.5294 C   0  0  0  0  0  0  0  0  0  0  0  0
  198.3470  188.3759  157.8252 N   0  0  0  0  0  0  0  0  0  0  0  0
  198.5610  187.3602  158.8674 C   0  0  1  0  0  0  0  0  0  0  0  0
  197.4001  186.3996  159.0965 C   0  0  0  0  0  0  0  0  0  0  0  0
  197.2535  185.2527  158.2734 C   0  0  0  0  0  0  0  0  0  0  0  0
  196.0993  184.4497  158.3784 C   0  0  0  0  0  0  0  0  0  0  0  0
  195.1560  184.6846  159.4092 C   0  0  0  0  0  0  0  0  0  0  0  0
  195.3641  185.7597  160.3051 C   0  0  0  0  0  0  0  0  0  0  0  0
  196.4635  186.6334  160.1332 C   0  0  0  0  0  0  0  0  0  0  0  0
  195.8884  183.3412  157.3584 C   0  0  1  0  0  0  0  0  0  0  0  0
  196.7703  182.1866  157.6177 N   0  0  1  0  0  0  0  0  0  0  0  0
  196.4241  181.4934  158.8756 C   0  0  2  0  0  0  0  0  0  0  0  0
  196.8346  181.2571  156.4667 C   0  0  2  0  0  0  0  0  0  0  0  0
  198.6390  187.0231  155.7856 C   0  0  0  0  0  0  0  0  0  0  0  0
  199.3158  184.4032  154.6285 C   0  0  2  0  0  0  0  0  0  0  0  0
  198.0194  182.2301  149.2583 H   0  0  0  0  0  0  0  0  0  0  0  0
  198.8523  184.4075  150.1204 H   0  0  0  0  0  0  0  0  0  0  0  0
  196.6961  183.7301  153.8161 H   0  0  0  0  0  0  0  0  0  0  0  0
  196.0387  181.5005  153.0178 H   0  0  0  0  0  0  0  0  0  0  0  0
  200.6403  189.8316  154.0684 H   0  0  0  0  0  0  0  0  0  0  0  0
  199.7992  190.1947  156.4142 H   0  0  0  0  0  0  0  0  0  0  0  0
  198.1796  189.3147  158.1612 H   0  0  0  0  0  0  0  0  0  0  0  0
  199.4715  186.7921  158.6851 H   0  0  0  0  0  0  0  0  0  0  0  0
  198.7486  187.8817  159.8051 H   0  0  0  0  0  0  0  0  0  0  0  0
  198.0072  184.9858  157.5558 H   0  0  0  0  0  0  0  0  0  0  0  0
  194.3028  184.0294  159.5243 H   0  0  0  0  0  0  0  0  0  0  0  0
  194.6759  185.9052  161.1320 H   0  0  0  0  0  0  0  0  0  0  0  0
  196.6090  187.4537  160.8286 H   0  0  0  0  0  0  0  0  0  0  0  0
  194.8479  183.0266  157.3355 H   0  0  0  0  0  0  0  0  0  0  0  0
  196.1037  183.7340  156.3645 H   0  0  0  0  0  0  0  0  0  0  0  0
  195.4075  181.0985  158.8559 H   0  0  0  0  0  0  0  0  0  0  0  0
  196.5087  182.1693  159.7283 H   0  0  0  0  0  0  0  0  0  0  0  0
  197.1081  180.6603  159.0208 H   0  0  0  0  0  0  0  0  0  0  0  0
  195.8543  180.8361  156.2488 H   0  0  0  0  0  0  0  0  0  0  0  0
  197.5237  180.4348  156.6691 H   0  0  0  0  0  0  0  0  0  0  0  0
  197.1807  181.7632  155.5656 H   0  0  0  0  0  0  0  0  0  0  0  0
  197.9915  186.2779  156.1425 H   0  0  0  0  0  0  0  0  0  0  0  0
  199.7077  184.6561  155.6233 H   0  0  0  0  0  0  0  0  0  0  0  0
  200.1420  183.9113  154.1001 H   0  0  0  0  0  0  0  0  0  0  0  0
  198.5107  183.6758  154.7912 H   0  0  0  0  0  0  0  0  0  0  0  0
  197.7052  182.5502  157.7356 H   0  0  0  0  0  0  0  0  0  0  0  0
  1  2  1  0
  2  3  1  0
  2  7  2  0
  3  4  2  0
  3 30  1  0
  4  5  1  0
  4 31  1  0
  5  6  2  0
  5  8  1  0
  6  7  1  0
  6 32  1  0
  7 33  1  0
  8  9  2  0
  8 10  1  0
 10 11  1  0
 10 29  1  0
 11 12  1  0
 11 28  2  0
 12 13  2  0
 13 14  1  0
 13 34  1  0
 14 15  2  0
 14 35  1  0
 15 16  1  0
 15 28  1  0
 16 17  1  0
 16 36  1  0
 17 18  1  0
 17 37  1  6
 17 38  1  0
 18 19  2  0
 18 23  1  0
 19 20  1  0
 19 39  1  0
 20 21  2  0
 20 24  1  0
 21 22  1  0
 21 40  1  0
 22 23  2  0
 22 41  1  0
 23 42  1  0
 24 25  1  0
 24 43  1  6
 24 44  1  0
 25 26  1  0
 25 27  1  0
 25 55  1  1
 26 45  1  6
 26 46  1  0
 26 47  1  0
 27 48  1  6
 27 49  1  0
 27 50  1  0
 28 51  1  0
 29 52  1  1
 29 53  1  0
 29 54  1  0
M  CHG  1  25   1
M  END
>  <s_epik_cmdline>  (1105) 
J2VwaWtfcHl0aG9uJywgJy1waCcsICc3LjAwMDAwMCcsICctcGh0JywgJzIuMDAwMDAwJywgJy1tcycsICcxNicsICctdG4nLCAnOCcsICctbWEnLCAnMjAwJywgJy1pbWFlJywgJzxpbmZpbGUubWFlPicsICctb21hZScsICc8b3V0ZmlsZS5tYWU+Jw==

>  <s_epik_input>  (1105) 
Q2xjMVtjSF1bY0hdYyhbY0hdW2NIXTEpQyg9TylOKFtDSDNdKWMybltjSF1bY0hdYyhbY0hdMilbTkhdW0NIMl1jM1tjSF1jKFtjSF1bY0hdW2NIXTMpW0NIMl1OKFtDSDNdKVtDSDNd

>  <s_i_glide_gridfile>  (1105) 
ATP-Grid

>  <s_lp_Force_Field>  (1105) 
OPLS_2005

>  <s_lp_Variant>  (1105) 
rxn502a____EMOL480990____EMOL45981693____EMOL2873214-1

>  <s_lp_label>  (1105) 
2891_sdstereoexpander_1_neutralizer_1_epik_1_stereoizer_1

>  <s_m_source_file>  (1105) 
ATP-VSW-LIGPREP-001-in.maegz

>  <s_sd_BIOSOLVEIT.INFINISEE\_QUERY\_NAME>  (1105) 
Ref-Lig

>  <s_sd_BIOSOLVEIT.INFINISEE\_QUERY\_SMILES>  (1105) 
S(c1nc2c(cc1C[NH2+]Cc3ccc(cc3)C[NH+](C)C)cccc2)Cc4ccccc4

>  <s_sd_BIOSOLVEIT.INFINISEE\_REACTION\_NAME>  (1105) 
rxn502a

>  <s_sd_BIOSOLVEIT.INFINISEE\_REAGENT1\_NAME>  (1105) 
EMOL480990

>  <s_sd_BIOSOLVEIT.INFINISEE\_REAGENT1\_SMILES>  (1105) 
Clc1ccc(cc1)C(=O)O

>  <s_sd_BIOSOLVEIT.INFINISEE\_REAGENT2\_NAME>  (1105) 
EMOL45981693

>  <s_sd_BIOSOLVEIT.INFINISEE\_REAGENT2\_SMILES>  (1105) 
Ic1cc(ncc1)NC

>  <s_sd_BIOSOLVEIT.INFINISEE\_REAGENT3\_NAME>  (1105) 
EMOL2873214

>  <s_sd_BIOSOLVEIT.INFINISEE\_REAGENT3\_SMILES>  (1105) 
N(Cc1cc(ccc1)CN)(C)C

>  <s_sd_BIOSOLVEIT.INFINISEE\_SPACE>  (1105) 
eXplore_7tr_2022-12

>  <s_vsw_compound_code>  (1105) 
92481

>  <s_vsw_variant>  (1105) 
92481-1

>  <r_epik_Charging_Adjusted_Penalty>  (1105) 
0.173155986569416

>  <r_epik_Ionization_Penalty>  (1105) 
0.12909999999999999

>  <r_epik_Ionization_Penalty_Charging>  (1105) 
0.0441

>  <r_epik_Ionization_Penalty_Neutral>  (1105) 
0.085000000000000006

>  <r_epik_State_Penalty>  (1105) 
0.12909999999999999

>  <r_i_docking_score>  (1105) 
-4.0563151976237197

>  <r_i_glide_ecoul>  (1105) 
-7.22882127761841

>  <r_i_glide_eff_state_penalty>  (1105) 
0.12909999999999999

>  <r_i_glide_einternal>  (1105) 
7.8919172286987296

>  <r_i_glide_emodel>  (1105) 
-48.031114661379704

>  <r_i_glide_energy>  (1105) 
-37.525331974029498

>  <r_i_glide_erotb>  (1105) 
0.82042919597903496

>  <r_i_glide_esite>  (1105) 
-0.069291013236027599

>  <r_i_glide_evdw>  (1105) 
-30.296510696411101

>  <r_i_glide_gscore>  (1105) 
-4.1854151976237199

>  <r_i_glide_hbond>  (1105) 
0

>  <r_i_glide_ligand_efficiency>  (1105) 
-0.13987293784909399

>  <r_i_glide_ligand_efficiency_ln>  (1105) 
-0.928793320977362

>  <r_i_glide_ligand_efficiency_sa>  (1105) 
-0.42973397992953499

>  <r_i_glide_lipo>  (1105) 
-1.4284481917640599

>  <r_i_glide_metal>  (1105) 
-0

>  <r_i_glide_rewards>  (1105) 
-0.908956462139347

>  <r_lp_Energy>  (1105) 
34.271940000000001

>  <r_lp_tautomer_probability>  (1105) 
0.999999106000799

>  <r_qp_ACxDN^.5/SA>  (1105) 
0.0097415999999999996

>  <r_qp_CIQPlogS>  (1105) 
-4.7549999999999999

>  <r_qp_EA(eV)>  (1105) 
0.35999999999999999

>  <r_qp_FISA>  (1105) 
67.879000000000005

>  <r_qp_FOSA>  (1105) 
289.17000000000002

>  <r_qp_IP(eV)>  (1105) 
8.8040000000000003

>  <r_qp_Jm>  (1105) 
0.0059914373715910102

>  <r_qp_PISA>  (1105) 
289.86700000000002

>  <r_qp_PSA>  (1105) 
57.481999999999999

>  <r_qp_PercentHumanOralAbsorption>  (1105) 
100

>  <r_qp_QPPCaco>  (1105) 
561.17999999999995

>  <r_qp_QPPMDCK>  (1105) 
723.65200000000004

>  <r_qp_QPlogBB>  (1105) 
0.029999999999999999

>  <r_qp_QPlogHERG>  (1105) 
-6.6829999999999998

>  <r_qp_QPlogKhsa>  (1105) 
0.53300000000000003

>  <r_qp_QPlogKp>  (1105) 
-3.1400000000000001

>  <r_qp_QPlogPC16>  (1105) 
13.795999999999999

>  <r_qp_QPlogPo/w>  (1105) 
4.2789999999999999

>  <r_qp_QPlogPoct>  (1105) 
20.817

>  <r_qp_QPlogPw>  (1105) 
10.722

>  <r_qp_QPlogS>  (1105) 
-4.694

>  <r_qp_QPpolrz>  (1105) 
45.151000000000003

>  <r_qp_SASA>  (1105) 
718.56500000000005

>  <r_qp_SAamideO>  (1105) 
0

>  <r_qp_SAfluorine>  (1105) 
0

>  <r_qp_WPSA>  (1105) 
71.647999999999996

>  <r_qp_accptHB>  (1105) 
7

>  <r_qp_dip^2/V>  (1105) 
0.041441100000000002

>  <r_qp_dipole>  (1105) 
7.4100000000000001

>  <r_qp_donorHB>  (1105) 
1

>  <r_qp_glob>  (1105) 
0.81196380000000001

>  <r_qp_mol_MW>  (1105) 
408.93000000000001

>  <r_qp_volume>  (1105) 
1325.123

>  <r_sd_BIOSOLVEIT.INFINISEE\_FTREES\_SIMILARITY>  (1105) 
0.90400000000000003

>  <r_sd_BIOSOLVEIT.LOGP>  (1105) 
3.2682000000000002

>  <r_sd_BIOSOLVEIT.MOLECULAR\_WEIGHT>  (1105) 
409.93799999999999

>  <r_sd_BIOSOLVEIT.TPSA>  (1105) 
49.670000000000002

>  <i_epik_Tot_Q>  (1105) 
1

>  <i_epik_Tot_abs_Q>  (1105) 
1

>  <i_f3d_flags>  (1105) 
0

>  <i_i_glide_confnum>  (1105) 
6

>  <i_i_glide_lignum>  (1105) 
1332

>  <i_i_glide_posenum>  (1105) 
14

>  <i_i_glide_rotatable_bonds>  (1105) 
8

>  <i_lp_mmshare_version>  (1105) 
65135

>  <i_m_ct_format>  (1105) 
2

>  <i_m_source_file_index>  (1105) 
2891

>  <i_qp_#NandO>  (1105) 
5

>  <i_qp_#acid>  (1105) 
0

>  <i_qp_#amide>  (1105) 
0

>  <i_qp_#amidine>  (1105) 
0

>  <i_qp_#amine>  (1105) 
1

>  <i_qp_#in34>  (1105) 
0

>  <i_qp_#in56>  (1105) 
18

>  <i_qp_#metab>  (1105) 
7

>  <i_qp_#nonHatm>  (1105) 
29

>  <i_qp_#noncon>  (1105) 
0

>  <i_qp_#ringatoms>  (1105) 
18

>  <i_qp_#rotor>  (1105) 
7

>  <i_qp_#rtvFG>  (1105) 
0

>  <i_qp_#stars>  (1105) 
0

>  <i_qp_CNS>  (1105) 
1

>  <i_qp_HumanOralAbsorption>  (1105) 
3

>  <i_qp_RuleOfFive>  (1105) 
0

>  <i_qp_RuleOfThree>  (1105) 
1

>  <i_sd_BIOSOLVEIT.INFINISEE\_RESULT\_RANK>  (1105) 
73736

>  <i_sd_version>  (1105) 
0

>  <b_lp_Chiralities_Consistent>  (1105) 
1

>  <b_sd_chiral_flag>  (1105) 
0

>  <canonical_id>  (1105) 
ATP-HTVS-B0742D29E2ED

>  <compound_code>  (1105) 
92481

>  <title>  (1105) 
rxn502a____EMOL480990____EMOL45981693____EMOL2873214

>  <variant>  (1105) 
92481-1

>  <source_file>  (1105) 
运行/运行/ATP-VSW/ATP-VSW-DOCK_HTVS_1-001_lib/ATP-VSW-DOCK_HTVS_1-001_lib

>  <canonical_smiles>  (1105) 
CN(C(=O)c1ccc(Cl)cc1)c1cc(NCc2cccc(C[NH+](C)C)c2)ccn1

>  <scaffold>  (1105) 
O=C(Nc1cc(NCc2ccccc2)ccn1)c1ccccc1

>  <molecular_formula>  (1105) 
C23H26ClN4O+

$$$$
ATP-HTVS-B0A71AB87D72
     RDKit          3D

 54 56  0  0  0  0  0  0  0  0999 V2000
  199.5886  189.5123  155.3531 Cl  0  0  0  0  0  0  0  0  0  0  0  0
  199.4025  188.1614  154.3101 C   0  0  0  0  0  0  0  0  0  0  0  0
  199.9170  188.2844  152.6497 S   0  0  0  0  0  0  0  0  0  0  0  0
  199.4151  186.6274  152.3479 C   0  0  0  0  0  0  0  0  0  0  0  0
  199.5759  186.1337  150.9559 C   0  0  0  0  0  0  0  0  0  0  0  0
  200.4706  186.6315  150.2663 O   0  0  0  0  0  0  0  0  0  0  0  0
  198.7353  185.1686  150.4828 N   0  0  0  0  0  0  0  0  0  0  0  0
  198.7103  184.8389  149.0992 C   0  0  0  0  0  0  0  0  0  0  0  0
  197.5231  184.9387  148.3453 C   0  0  0  0  0  0  0  0  0  0  0  0
  196.3691  185.3991  148.9240 O   0  0  0  0  0  0  0  0  0  0  0  0
  197.4980  184.6004  146.9921 C   0  0  0  0  0  0  0  0  0  0  0  0
  198.6726  184.1578  146.3618 C   0  0  0  0  0  0  0  0  0  0  0  0
  199.8715  184.0532  147.0904 C   0  0  0  0  0  0  0  0  0  0  0  0
  199.8872  184.3894  148.4571 C   0  0  0  0  0  0  0  0  0  0  0  0
  197.7385  184.4902  151.3158 C   0  0  2  0  0  0  0  0  0  0  0  0
  198.9505  186.0448  153.5065 C   0  0  0  0  0  0  0  0  0  0  0  0
  198.9131  186.9225  154.6164 C   0  0  0  0  0  0  0  0  0  0  0  0
  198.4235  186.4715  155.8517 N   0  0  0  0  0  0  0  0  0  0  0  0
  197.0610  186.7236  156.2934 C   0  0  1  0  0  0  0  0  0  0  0  0
  196.7773  186.1084  157.6454 C   0  0  0  0  0  0  0  0  0  0  0  0
  196.9420  184.7281  157.7998 C   0  0  0  0  0  0  0  0  0  0  0  0
  196.5295  184.0707  158.9775 C   0  0  0  0  0  0  0  0  0  0  0  0
  196.1150  184.8463  160.0864 C   0  0  0  0  0  0  0  0  0  0  0  0
  196.0775  186.2548  159.9773 C   0  0  0  0  0  0  0  0  0  0  0  0
  196.3732  186.8857  158.7446 C   0  0  0  0  0  0  0  0  0  0  0  0
  196.5326  182.5378  159.0506 C   0  0  1  0  0  0  0  0  0  0  0  0
  195.7384  181.8333  157.9951 N   0  0  1  0  0  0  0  0  0  0  0  0
  194.2848  181.9938  158.1858 C   0  0  2  0  0  0  0  0  0  0  0  0
  196.1304  182.0857  156.5923 C   0  0  2  0  0  0  0  0  0  0  0  0
  195.6859  185.6447  148.2894 H   0  0  0  0  0  0  0  0  0  0  0  0
  196.5860  184.6706  146.4208 H   0  0  0  0  0  0  0  0  0  0  0  0
  198.6634  183.8890  145.3125 H   0  0  0  0  0  0  0  0  0  0  0  0
  200.7822  183.7193  146.6110 H   0  0  0  0  0  0  0  0  0  0  0  0
  200.8130  184.3104  149.0105 H   0  0  0  0  0  0  0  0  0  0  0  0
  197.0322  183.8728  150.7695 H   0  0  0  0  0  0  0  0  0  0  0  0
  197.1515  185.2181  151.8710 H   0  0  0  0  0  0  0  0  0  0  0  0
  198.2334  183.8006  151.9958 H   0  0  0  0  0  0  0  0  0  0  0  0
  198.6147  185.0332  153.6529 H   0  0  0  0  0  0  0  0  0  0  0  0
  199.0495  185.9955  156.4846 H   0  0  0  0  0  0  0  0  0  0  0  0
  196.8763  187.8042  156.3269 H   0  0  0  0  0  0  0  0  0  0  0  0
  196.3746  186.3200  155.5394 H   0  0  0  0  0  0  0  0  0  0  0  0
  197.3681  184.2210  156.9705 H   0  0  0  0  0  0  0  0  0  0  0  0
  195.8825  184.3681  161.0361 H   0  0  0  0  0  0  0  0  0  0  0  0
  195.8348  186.8605  160.8472 H   0  0  0  0  0  0  0  0  0  0  0  0
  196.3341  187.9726  158.6566 H   0  0  0  0  0  0  0  0  0  0  0  0
  197.5677  182.2103  159.0428 H   0  0  0  0  0  0  0  0  0  0  0  0
  196.1462  182.2415  160.0412 H   0  0  0  0  0  0  0  0  0  0  0  0
  193.9907  183.0484  158.0934 H   0  0  0  0  0  0  0  0  0  0  0  0
  193.9633  181.6282  159.1665 H   0  0  0  0  0  0  0  0  0  0  0  0
  193.7507  181.4252  157.4239 H   0  0  0  0  0  0  0  0  0  0  0  0
  195.8296  183.0829  156.2999 H   0  0  0  0  0  0  0  0  0  0  0  0
  195.6201  181.4477  155.8880 H   0  0  0  0  0  0  0  0  0  0  0  0
  197.2027  181.9813  156.4759 H   0  0  0  0  0  0  0  0  0  0  0  0
  195.9113  180.8251  158.1391 H   0  0  0  0  0  0  0  0  0  0  0  0
  1  2  1  0
  2  3  1  0
  2 17  2  0
  3  4  1  0
  4  5  1  0
  4 16  2  0
  5  6  2  0
  5  7  1  0
  7  8  1  0
  7 15  1  0
  8  9  1  0
  8 14  2  0
  9 10  1  0
  9 11  2  0
 10 30  1  0
 11 12  1  0
 11 31  1  0
 12 13  2  0
 12 32  1  0
 13 14  1  0
 13 33  1  0
 14 34  1  0
 15 35  1  6
 15 36  1  0
 15 37  1  0
 16 17  1  0
 16 38  1  0
 17 18  1  0
 18 19  1  0
 18 39  1  0
 19 20  1  0
 19 40  1  1
 19 41  1  0
 20 21  2  0
 20 25  1  0
 21 22  1  0
 21 42  1  0
 22 23  2  0
 22 26  1  0
 23 24  1  0
 23 43  1  0
 24 25  2  0
 24 44  1  0
 25 45  1  0
 26 27  1  0
 26 46  1  1
 26 47  1  0
 27 28  1  0
 27 29  1  0
 27 54  1  1
 28 48  1  1
 28 49  1  0
 28 50  1  0
 29 51  1  6
 29 52  1  0
 29 53  1  0
M  CHG  1  27   1
M  END
>  <s_epik_cmdline>  (1106) 
J2VwaWtfcHl0aG9uJywgJy1waCcsICc3LjAwMDAwMCcsICctcGh0JywgJzIuMDAwMDAwJywgJy1tcycsICcxNicsICctdG4nLCAnOCcsICctbWEnLCAnMjAwJywgJy1pbWFlJywgJzxpbmZpbGUubWFlPicsICctb21hZScsICc8b3V0ZmlsZS5tYWU+Jw==

>  <s_epik_input>  (1106) 
W2NIXTFbY0hdW2NIXVtjSF1jKFtPSF0pYzFOKFtDSDNdKUMoPU8pYyhzYzJDbClbY0hdYzJbTkhdW0NIMl1jM1tjSF1jKFtjSF1bY0hdW2NIXTMpW0NIMl1OKFtDSDNdKVtDSDNd

>  <s_i_glide_gridfile>  (1106) 
ATP-Grid

>  <s_lp_Force_Field>  (1106) 
OPLS_2005

>  <s_lp_Variant>  (1106) 
rxn512b____EMOL714785____EMOL44846536____EMOL2873214-1

>  <s_lp_label>  (1106) 
2328_sdstereoexpander_1_neutralizer_1_epik_1_stereoizer_1

>  <s_m_source_file>  (1106) 
ATP-VSW-LIGPREP-003-in.maegz

>  <s_sd_BIOSOLVEIT.INFINISEE\_QUERY\_NAME>  (1106) 
Ref-Lig

>  <s_sd_BIOSOLVEIT.INFINISEE\_QUERY\_SMILES>  (1106) 
S(c1nc2c(cc1C[NH2+]Cc3ccc(cc3)C[NH+](C)C)cccc2)Cc4ccccc4

>  <s_sd_BIOSOLVEIT.INFINISEE\_REACTION\_NAME>  (1106) 
rxn512b

>  <s_sd_BIOSOLVEIT.INFINISEE\_REAGENT1\_NAME>  (1106) 
EMOL714785

>  <s_sd_BIOSOLVEIT.INFINISEE\_REAGENT1\_SMILES>  (1106) 
Oc1c(NC)cccc1

>  <s_sd_BIOSOLVEIT.INFINISEE\_REAGENT2\_NAME>  (1106) 
EMOL44846536

>  <s_sd_BIOSOLVEIT.INFINISEE\_REAGENT2\_SMILES>  (1106) 
BrC1=C(Cl)SC(C(=O)O)=C1

>  <s_sd_BIOSOLVEIT.INFINISEE\_REAGENT3\_NAME>  (1106) 
EMOL2873214

>  <s_sd_BIOSOLVEIT.INFINISEE\_REAGENT3\_SMILES>  (1106) 
N(Cc1cc(ccc1)CN)(C)C

>  <s_sd_BIOSOLVEIT.INFINISEE\_SPACE>  (1106) 
eXplore_7tr_2022-12

>  <s_vsw_compound_code>  (1106) 
74467

>  <s_vsw_variant>  (1106) 
74467-1

>  <r_epik_Charging_Adjusted_Penalty>  (1106) 
0.086140609825027206

>  <r_epik_Ionization_Penalty>  (1106) 
0.045900000000000003

>  <r_epik_Ionization_Penalty_Charging>  (1106) 
0.043099999999999999

>  <r_epik_Ionization_Penalty_Neutral>  (1106) 
0.0028

>  <r_epik_State_Penalty>  (1106) 
0.043099999999999999

>  <r_i_docking_score>  (1106) 
-6.3559887442051997

>  <r_i_glide_ecoul>  (1106) 
-15.0975694656372

>  <r_i_glide_eff_state_penalty>  (1106) 
0.043099999999999999

>  <r_i_glide_einternal>  (1106) 
11.2084245681763

>  <r_i_glide_emodel>  (1106) 
-66.492093582920404

>  <r_i_glide_energy>  (1106) 
-46.046597480773897

>  <r_i_glide_erotb>  (1106) 
0.74945293056595097

>  <r_i_glide_esite>  (1106) 
-0.10000000000000001

>  <r_i_glide_evdw>  (1106) 
-30.949028015136701

>  <r_i_glide_gscore>  (1106) 
-6.3990887442051996

>  <r_i_glide_hbond>  (1106) 
-0.52000000000000002

>  <r_i_glide_ligand_efficiency>  (1106) 
-0.219172025662248

>  <r_i_glide_ligand_efficiency_ln>  (1106) 
-1.45536024845491

>  <r_i_glide_ligand_efficiency_sa>  (1106) 
-0.67336590140596897

>  <r_i_glide_lipo>  (1106) 
-1.8426127157266401

>  <r_i_glide_metal>  (1106) 
-0

>  <r_i_glide_rewards>  (1106) 
-0.87384213844209802

>  <r_lp_Energy>  (1106) 
38.735954999999997

>  <r_lp_tautomer_probability>  (1106) 
0.99999274205004296

>  <r_qp_ACxDN^.5/SA>  (1106) 
0.012344300000000001

>  <r_qp_CIQPlogS>  (1106) 
-4.1280000000000001

>  <r_qp_EA(eV)>  (1106) 
0.434

>  <r_qp_FISA>  (1106) 
83.784999999999997

>  <r_qp_FOSA>  (1106) 
266.08300000000003

>  <r_qp_IP(eV)>  (1106) 
8.093

>  <r_qp_Jm>  (1106) 
7.6471421473781596e-05

>  <r_qp_PISA>  (1106) 
322.64800000000002

>  <r_qp_PSA>  (1106) 
65.497

>  <r_qp_PercentHumanOralAbsorption>  (1106) 
85.885999999999996

>  <r_qp_QPPCaco>  (1106) 
98.893000000000001

>  <r_qp_QPPMDCK>  (1106) 
177.065

>  <r_qp_QPlogBB>  (1106) 
0.17899999999999999

>  <r_qp_QPlogHERG>  (1106) 
-8.2720000000000002

>  <r_qp_QPlogKhsa>  (1106) 
0.59099999999999997

>  <r_qp_QPlogKp>  (1106) 
-5.2839999999999998

>  <r_qp_QPlogPC16>  (1106) 
15.086

>  <r_qp_QPlogPo/w>  (1106) 
3.968

>  <r_qp_QPlogPoct>  (1106) 
22.254999999999999

>  <r_qp_QPlogPw>  (1106) 
12.193

>  <r_qp_QPlogS>  (1106) 
-4.4660000000000002

>  <r_qp_QPpolrz>  (1106) 
46.283999999999999

>  <r_qp_SASA>  (1106) 
773.30700000000002

>  <r_qp_SAamideO>  (1106) 
0

>  <r_qp_SAfluorine>  (1106) 
0

>  <r_qp_WPSA>  (1106) 
100.791

>  <r_qp_accptHB>  (1106) 
6.75

>  <r_qp_dip^2/V>  (1106) 
0.017469800000000001

>  <r_qp_dipole>  (1106) 
4.8769999999999998

>  <r_qp_donorHB>  (1106) 
2

>  <r_qp_glob>  (1106) 
0.7682871

>  <r_qp_mol_MW>  (1106) 
429.96300000000002

>  <r_qp_volume>  (1106) 
1361.6489999999999

>  <r_sd_BIOSOLVEIT.INFINISEE\_FTREES\_SIMILARITY>  (1106) 
0.92200000000000004

>  <r_sd_BIOSOLVEIT.LOGP>  (1106) 
3.6402999999999999

>  <r_sd_BIOSOLVEIT.MOLECULAR\_WEIGHT>  (1106) 
430.97699999999998

>  <r_sd_BIOSOLVEIT.TPSA>  (1106) 
57.009999999999998

>  <i_epik_Tot_Q>  (1106) 
1

>  <i_epik_Tot_abs_Q>  (1106) 
1

>  <i_f3d_flags>  (1106) 
0

>  <i_i_glide_confnum>  (1106) 
8

>  <i_i_glide_lignum>  (1106) 
969

>  <i_i_glide_posenum>  (1106) 
18

>  <i_i_glide_rotatable_bonds>  (1106) 
9

>  <i_lp_mmshare_version>  (1106) 
65135

>  <i_m_ct_format>  (1106) 
2

>  <i_m_source_file_index>  (1106) 
2328

>  <i_qp_#NandO>  (1106) 
5

>  <i_qp_#acid>  (1106) 
0

>  <i_qp_#amide>  (1106) 
0

>  <i_qp_#amidine>  (1106) 
0

>  <i_qp_#amine>  (1106) 
2

>  <i_qp_#in34>  (1106) 
0

>  <i_qp_#in56>  (1106) 
17

>  <i_qp_#metab>  (1106) 
7

>  <i_qp_#nonHatm>  (1106) 
29

>  <i_qp_#noncon>  (1106) 
0

>  <i_qp_#ringatoms>  (1106) 
17

>  <i_qp_#rotor>  (1106) 
8

>  <i_qp_#rtvFG>  (1106) 
0

>  <i_qp_#stars>  (1106) 
0

>  <i_qp_CNS>  (1106) 
1

>  <i_qp_HumanOralAbsorption>  (1106) 
3

>  <i_qp_RuleOfFive>  (1106) 
0

>  <i_qp_RuleOfThree>  (1106) 
1

>  <i_sd_BIOSOLVEIT.INFINISEE\_RESULT\_RANK>  (1106) 
13866

>  <i_sd_version>  (1106) 
0

>  <b_lp_Chiralities_Consistent>  (1106) 
1

>  <b_sd_chiral_flag>  (1106) 
0

>  <canonical_id>  (1106) 
ATP-HTVS-B0A71AB87D72

>  <compound_code>  (1106) 
74467

>  <title>  (1106) 
rxn512b____EMOL714785____EMOL44846536____EMOL2873214

>  <variant>  (1106) 
74467-1

>  <source_file>  (1106) 
运行/运行/ATP-VSW/ATP-VSW-DOCK_HTVS_1-003_lib/ATP-VSW-DOCK_HTVS_1-003_lib.mae

>  <canonical_smiles>  (1106) 
CN(C(=O)c1cc(NCc2cccc(C[NH+](C)C)c2)c(Cl)s1)c1ccccc1O

>  <scaffold>  (1106) 
O=C(Nc1ccccc1)c1cc(NCc2ccccc2)cs1

>  <molecular_formula>  (1106) 
C22H25ClN3O2S+

$$$$
ATP-HTVS-B0AB4541452E
     RDKit          3D

 56 58  0  0  0  0  0  0  0  0999 V2000
  201.6512  173.4334  154.5325 Cl  0  0  0  0  0  0  0  0  0  0  0  0
  201.5127  173.8815  152.8723 C   0  0  0  0  0  0  0  0  0  0  0  0
  200.5694  174.8499  152.4933 C   0  0  0  0  0  0  0  0  0  0  0  0
  200.4767  175.2978  151.1520 C   0  0  0  0  0  0  0  0  0  0  0  0
  199.5200  176.3107  150.8031 N   0  0  0  0  0  0  0  0  0  0  0  0
  199.4159  177.5117  151.4392 C   0  0  0  0  0  0  0  0  0  0  0  0
  198.4793  178.2919  151.2409 O   0  0  0  0  0  0  0  0  0  0  0  0
  200.4048  177.8726  152.4766 C   0  0  0  0  0  0  0  0  0  0  0  0
  202.0765  178.0798  152.0005 S   0  0  0  0  0  0  0  0  0  0  0  0
  202.5199  178.4064  153.6510 C   0  0  0  0  0  0  0  0  0  0  0  0
  204.1792  178.6480  154.0168 Cl  0  0  0  0  0  0  0  0  0  0  0  0
  201.4419  178.4362  154.4964 C   0  0  0  0  0  0  0  0  0  0  0  0
  201.5055  178.6935  155.8818 N   0  0  0  0  0  0  0  0  0  0  0  0
  200.3363  178.9980  156.7036 C   0  0  1  0  0  0  0  0  0  0  0  0
  199.7503  180.3930  156.4983 C   0  0  0  0  0  0  0  0  0  0  0  0
  198.3514  180.5788  156.5348 C   0  0  0  0  0  0  0  0  0  0  0  0
  197.7877  181.8684  156.4175 C   0  0  0  0  0  0  0  0  0  0  0  0
  198.6399  182.9828  156.2561 C   0  0  0  0  0  0  0  0  0  0  0  0
  200.0341  182.8044  156.2041 C   0  0  0  0  0  0  0  0  0  0  0  0
  200.5899  181.5156  156.3311 C   0  0  0  0  0  0  0  0  0  0  0  0
  196.2794  182.0669  156.5470 C   0  0  1  0  0  0  0  0  0  0  0  0
  195.7875  181.8421  157.9350 N   0  0  1  0  0  0  0  0  0  0  0  0
  196.5077  182.6175  158.9732 C   0  0  2  0  0  0  0  0  0  0  0  0
  194.3273  182.0431  158.0452 C   0  0  2  0  0  0  0  0  0  0  0  0
  200.2179  178.1654  153.8065 C   0  0  0  0  0  0  0  0  0  0  0  0
  198.5427  176.0055  149.7525 C   0  0  2  0  0  0  0  0  0  0  0  0
  201.3292  174.7093  150.1736 C   0  0  0  0  0  0  0  0  0  0  0  0
  202.2503  173.7142  150.5644 C   0  0  0  0  0  0  0  0  0  0  0  0
  202.3439  173.2983  151.9044 C   0  0  0  0  0  0  0  0  0  0  0  0
  201.3275  175.1369  148.7070 C   0  0  2  0  0  0  0  0  0  0  0  0
  199.9476  175.2794  153.2621 H   0  0  0  0  0  0  0  0  0  0  0  0
  202.4217  178.8541  156.2861 H   0  0  0  0  0  0  0  0  0  0  0  0
  199.5614  178.2511  156.5221 H   0  0  0  0  0  0  0  0  0  0  0  0
  200.6082  178.8749  157.7541 H   0  0  0  0  0  0  0  0  0  0  0  0
  197.7067  179.7255  156.6824 H   0  0  0  0  0  0  0  0  0  0  0  0
  198.2265  183.9804  156.1812 H   0  0  0  0  0  0  0  0  0  0  0  0
  200.6818  183.6629  156.0956 H   0  0  0  0  0  0  0  0  0  0  0  0
  201.6646  181.3988  156.3164 H   0  0  0  0  0  0  0  0  0  0  0  0
  196.0046  183.0682  156.2194 H   0  0  0  0  0  0  0  0  0  0  0  0
  195.7799  181.3785  155.8634 H   0  0  0  0  0  0  0  0  0  0  0  0
  196.4071  183.6833  158.7966 H   0  0  0  0  0  0  0  0  0  0  0  0
  197.5681  182.3821  159.0111 H   0  0  0  0  0  0  0  0  0  0  0  0
  196.1065  182.4091  159.9565 H   0  0  0  0  0  0  0  0  0  0  0  0
  194.0518  183.0697  157.7864 H   0  0  0  0  0  0  0  0  0  0  0  0
  193.9705  181.8439  159.0544 H   0  0  0  0  0  0  0  0  0  0  0  0
  193.7971  181.3696  157.3638 H   0  0  0  0  0  0  0  0  0  0  0  0
  199.2521  178.1365  154.2870 H   0  0  0  0  0  0  0  0  0  0  0  0
  198.6110  176.7155  148.9229 H   0  0  0  0  0  0  0  0  0  0  0  0
  197.5506  176.0541  150.1644 H   0  0  0  0  0  0  0  0  0  0  0  0
  198.6409  174.9989  149.3513 H   0  0  0  0  0  0  0  0  0  0  0  0
  202.9035  173.2672  149.8277 H   0  0  0  0  0  0  0  0  0  0  0  0
  203.0653  172.5491  152.2045 H   0  0  0  0  0  0  0  0  0  0  0  0
  202.2723  174.9063  148.2211 H   0  0  0  0  0  0  0  0  0  0  0  0
  201.1629  176.2119  148.6075 H   0  0  0  0  0  0  0  0  0  0  0  0
  200.5455  174.6111  148.1541 H   0  0  0  0  0  0  0  0  0  0  0  0
  195.9318  180.8427  158.0957 H   0  0  0  0  0  0  0  0  0  0  0  0
  1  2  1  0
  2  3  2  0
  2 29  1  0
  3  4  1  0
  3 31  1  0
  4  5  1  0
  4 27  2  0
  5  6  1  0
  5 26  1  0
  6  7  2  0
  6  8  1  0
  8  9  1  0
  8 25  2  0
  9 10  1  0
 10 11  1  0
 10 12  2  0
 12 13  1  0
 12 25  1  0
 13 14  1  0
 13 32  1  0
 14 15  1  0
 14 33  1  6
 14 34  1  0
 15 16  2  0
 15 20  1  0
 16 17  1  0
 16 35  1  0
 17 18  2  0
 17 21  1  0
 18 19  1  0
 18 36  1  0
 19 20  2  0
 19 37  1  0
 20 38  1  0
 21 22  1  0
 21 39  1  6
 21 40  1  0
 22 23  1  0
 22 24  1  0
 22 56  1  1
 23 41  1  6
 23 42  1  0
 23 43  1  0
 24 44  1  6
 24 45  1  0
 24 46  1  0
 25 47  1  0
 26 48  1  6
 26 49  1  0
 26 50  1  0
 27 28  1  0
 27 30  1  0
 28 29  2  0
 28 51  1  0
 29 52  1  0
 30 53  1  6
 30 54  1  0
 30 55  1  0
M  CHG  1  22   1
M  END
>  <s_epik_cmdline>  (1107) 
J2VwaWtfcHl0aG9uJywgJy1waCcsICc3LjAwMDAwMCcsICctcGh0JywgJzIuMDAwMDAwJywgJy1tcycsICcxNicsICctdG4nLCAnOCcsICctbWEnLCAnMjAwJywgJy1pbWFlJywgJzxpbmZpbGUubWFlPicsICctb21hZScsICc8b3V0ZmlsZS5tYWU+Jw==

>  <s_epik_input>  (1107) 
Q2xjMVtjSF1jKGMoW0NIM10pW2NIXVtjSF0xKU4oW0NIM10pQyg9TyljMnNjKENsKWMoW2NIXTIpW05IXVtDSDJdYzNbY0hdYyhbY0hdW2NIXVtjSF0zKVtDSDJdTihbQ0gzXSlbQ0gzXQ==

>  <s_i_glide_gridfile>  (1107) 
ATP-Grid

>  <s_lp_Force_Field>  (1107) 
OPLS_2005

>  <s_lp_Variant>  (1107) 
rxn512b____EMOL30099731____EMOL44846536____EMOL2873214-1

>  <s_lp_label>  (1107) 
2462_sdstereoexpander_1_neutralizer_1_epik_1_stereoizer_1

>  <s_m_source_file>  (1107) 
ATP-VSW-LIGPREP-001-in.maegz

>  <s_sd_BIOSOLVEIT.INFINISEE\_QUERY\_NAME>  (1107) 
Ref-Lig

>  <s_sd_BIOSOLVEIT.INFINISEE\_QUERY\_SMILES>  (1107) 
S(c1nc2c(cc1C[NH2+]Cc3ccc(cc3)C[NH+](C)C)cccc2)Cc4ccccc4

>  <s_sd_BIOSOLVEIT.INFINISEE\_REACTION\_NAME>  (1107) 
rxn512b

>  <s_sd_BIOSOLVEIT.INFINISEE\_REAGENT1\_NAME>  (1107) 
EMOL30099731

>  <s_sd_BIOSOLVEIT.INFINISEE\_REAGENT1\_SMILES>  (1107) 
Clc1cc(NC)c(cc1)C

>  <s_sd_BIOSOLVEIT.INFINISEE\_REAGENT2\_NAME>  (1107) 
EMOL44846536

>  <s_sd_BIOSOLVEIT.INFINISEE\_REAGENT2\_SMILES>  (1107) 
BrC1=C(Cl)SC(C(=O)O)=C1

>  <s_sd_BIOSOLVEIT.INFINISEE\_REAGENT3\_NAME>  (1107) 
EMOL2873214

>  <s_sd_BIOSOLVEIT.INFINISEE\_REAGENT3\_SMILES>  (1107) 
N(Cc1cc(ccc1)CN)(C)C

>  <s_sd_BIOSOLVEIT.INFINISEE\_SPACE>  (1107) 
eXplore_7tr_2022-12

>  <s_vsw_compound_code>  (1107) 
78753

>  <s_vsw_variant>  (1107) 
78753-1

>  <r_epik_Charging_Adjusted_Penalty>  (1107) 
0.086140609825027206

>  <r_epik_Ionization_Penalty>  (1107) 
0.043200000000000002

>  <r_epik_Ionization_Penalty_Charging>  (1107) 
0.043099999999999999

>  <r_epik_Ionization_Penalty_Neutral>  (1107) 
0.0001

>  <r_epik_State_Penalty>  (1107) 
0.043099999999999999

>  <r_i_docking_score>  (1107) 
-3.8214612147788101

>  <r_i_glide_ecoul>  (1107) 
-10.3019771575928

>  <r_i_glide_eff_state_penalty>  (1107) 
0.043099999999999999

>  <r_i_glide_einternal>  (1107) 
6.0490999221801802

>  <r_i_glide_emodel>  (1107) 
-49.716077207438097

>  <r_i_glide_energy>  (1107) 
-38.410993576049798

>  <r_i_glide_erotb>  (1107) 
0.65677567333271103

>  <r_i_glide_esite>  (1107) 
-0.10819838505868

>  <r_i_glide_evdw>  (1107) 
-28.109016418456999

>  <r_i_glide_gscore>  (1107) 
-3.86456121477881

>  <r_i_glide_hbond>  (1107) 
-0.224349320622038

>  <r_i_glide_ligand_efficiency>  (1107) 
-0.127382040492627

>  <r_i_glide_ligand_efficiency_ln>  (1107) 
-0.86827762615263504

>  <r_i_glide_ligand_efficiency_sa>  (1107) 
-0.39580561644468398

>  <r_i_glide_lipo>  (1107) 
-0.52138109512372799

>  <r_i_glide_metal>  (1107) 
-0

>  <r_i_glide_rewards>  (1107) 
-0.71666069274530797

>  <r_lp_Energy>  (1107) 
34.360114000000003

>  <r_lp_tautomer_probability>  (1107) 
0.99999274205267796

>  <r_qp_ACxDN^.5/SA>  (1107) 
0.0081171999999999998

>  <r_qp_CIQPlogS>  (1107) 
-5.1459999999999999

>  <r_qp_EA(eV)>  (1107) 
0.70399999999999996

>  <r_qp_FISA>  (1107) 
47.345999999999997

>  <r_qp_FOSA>  (1107) 
314.33199999999999

>  <r_qp_IP(eV)>  (1107) 
8.1929999999999996

>  <r_qp_Jm>  (1107) 
0.000101451280444338

>  <r_qp_PISA>  (1107) 
221.53399999999999

>  <r_qp_PSA>  (1107) 
43.780999999999999

>  <r_qp_PercentHumanOralAbsorption>  (1107) 
100

>  <r_qp_QPPCaco>  (1107) 
219.137

>  <r_qp_QPPMDCK>  (1107) 
839.18100000000004

>  <r_qp_QPlogBB>  (1107) 
0.84499999999999997

>  <r_qp_QPlogHERG>  (1107) 
-7.0499999999999998

>  <r_qp_QPlogKhsa>  (1107) 
0.91200000000000003

>  <r_qp_QPlogKp>  (1107) 
-5.0650000000000004

>  <r_qp_QPlogPC16>  (1107) 
14.329000000000001

>  <r_qp_QPlogPo/w>  (1107) 
4.96

>  <r_qp_QPlogPoct>  (1107) 
21.064

>  <r_qp_QPlogPw>  (1107) 
9.2119999999999997

>  <r_qp_QPlogS>  (1107) 
-4.5940000000000003

>  <r_qp_QPpolrz>  (1107) 
47.006999999999998

>  <r_qp_SASA>  (1107) 
739.17399999999998

>  <r_qp_SAamideO>  (1107) 
0

>  <r_qp_SAfluorine>  (1107) 
0

>  <r_qp_WPSA>  (1107) 
155.96100000000001

>  <r_qp_accptHB>  (1107) 
6

>  <r_qp_dip^2/V>  (1107) 
0.033995400000000002

>  <r_qp_dipole>  (1107) 
6.8689999999999998

>  <r_qp_donorHB>  (1107) 
1

>  <r_qp_glob>  (1107) 
0.81402640000000004

>  <r_qp_mol_MW>  (1107) 
462.43599999999998

>  <r_qp_volume>  (1107) 
1387.8099999999999

>  <r_sd_BIOSOLVEIT.INFINISEE\_FTREES\_SIMILARITY>  (1107) 
0.91600000000000004

>  <r_sd_BIOSOLVEIT.LOGP>  (1107) 
4.8965199999999998

>  <r_sd_BIOSOLVEIT.MOLECULAR\_WEIGHT>  (1107) 
463.44900000000001

>  <r_sd_BIOSOLVEIT.TPSA>  (1107) 
36.780000000000001

>  <i_epik_Tot_Q>  (1107) 
1

>  <i_epik_Tot_abs_Q>  (1107) 
1

>  <i_f3d_flags>  (1107) 
0

>  <i_i_glide_confnum>  (1107) 
3

>  <i_i_glide_lignum>  (1107) 
962

>  <i_i_glide_posenum>  (1107) 
8

>  <i_i_glide_rotatable_bonds>  (1107) 
8

>  <i_lp_mmshare_version>  (1107) 
65135

>  <i_m_ct_format>  (1107) 
2

>  <i_m_source_file_index>  (1107) 
2462

>  <i_qp_#NandO>  (1107) 
4

>  <i_qp_#acid>  (1107) 
0

>  <i_qp_#amide>  (1107) 
0

>  <i_qp_#amidine>  (1107) 
0

>  <i_qp_#amine>  (1107) 
2

>  <i_qp_#in34>  (1107) 
0

>  <i_qp_#in56>  (1107) 
17

>  <i_qp_#metab>  (1107) 
7

>  <i_qp_#nonHatm>  (1107) 
30

>  <i_qp_#noncon>  (1107) 
0

>  <i_qp_#ringatoms>  (1107) 
17

>  <i_qp_#rotor>  (1107) 
7

>  <i_qp_#rtvFG>  (1107) 
0

>  <i_qp_#stars>  (1107) 
0

>  <i_qp_CNS>  (1107) 
2

>  <i_qp_HumanOralAbsorption>  (1107) 
3

>  <i_qp_RuleOfFive>  (1107) 
0

>  <i_qp_RuleOfThree>  (1107) 
1

>  <i_sd_BIOSOLVEIT.INFINISEE\_RESULT\_RANK>  (1107) 
26981

>  <i_sd_version>  (1107) 
0

>  <b_lp_Chiralities_Consistent>  (1107) 
1

>  <b_sd_chiral_flag>  (1107) 
0

>  <canonical_id>  (1107) 
ATP-HTVS-B0AB4541452E

>  <compound_code>  (1107) 
78753

>  <title>  (1107) 
rxn512b____EMOL30099731____EMOL44846536____EMOL2873214

>  <variant>  (1107) 
78753-1

>  <source_file>  (1107) 
运行/运行/ATP-VSW/ATP-VSW-DOCK_HTVS_1-001_lib/ATP-VSW-DOCK_HTVS_1-001_lib

>  <canonical_smiles>  (1107) 
Cc1ccc(Cl)cc1N(C)C(=O)c1cc(NCc2cccc(C[NH+](C)C)c2)c(Cl)s1

>  <scaffold>  (1107) 
O=C(Nc1ccccc1)c1cc(NCc2ccccc2)cs1

>  <molecular_formula>  (1107) 
C23H26Cl2N3OS+

$$$$
ATP-HTVS-B0B19F009301
     RDKit          3D

 50 53  0  0  0  0  0  0  0  0999 V2000
  200.5847  192.5216  156.4108 S   0  0  0  0  0  0  0  0  0  0  0  0
  199.6168  191.8160  157.6690 C   0  0  0  0  0  0  0  0  0  0  0  0
  198.3281  191.3690  157.3466 C   0  0  0  0  0  0  0  0  0  0  0  0
  197.5099  190.8821  158.3680 C   0  0  0  0  0  0  0  0  0  0  0  0
  197.9715  190.8248  159.6972 C   0  0  0  0  0  0  0  0  0  0  0  0
  199.3029  191.1954  159.9801 C   0  0  0  0  0  0  0  0  0  0  0  0
  200.1378  191.6869  158.9673 C   0  0  0  0  0  0  0  0  0  0  0  0
  197.0425  190.3788  160.8219 C   0  0  1  0  0  0  0  0  0  0  0  0
  196.5862  188.9213  160.6674 C   0  0  0  0  0  0  0  0  0  0  0  0
  195.5831  188.5368  161.2660 O   0  0  0  0  0  0  0  0  0  0  0  0
  197.3584  188.1342  159.8945 N   0  0  0  0  0  0  0  0  0  0  0  0
  197.1392  186.8071  159.4568 C   0  0  0  0  0  0  0  0  0  0  0  0
  195.9539  186.1730  159.6095 N   0  0  0  0  0  0  0  0  0  0  0  0
  195.7997  184.9025  159.1786 C   0  0  0  0  0  0  0  0  0  0  0  0
  196.8598  184.1958  158.5533 C   0  0  0  0  0  0  0  0  0  0  0  0
  198.0945  184.8455  158.3745 C   0  0  0  0  0  0  0  0  0  0  0  0
  198.2433  186.1729  158.8298 C   0  0  0  0  0  0  0  0  0  0  0  0
  199.4807  186.8355  158.6641 N   0  0  0  0  0  0  0  0  0  0  0  0
  199.8063  187.6804  157.5720 C   0  0  0  0  0  0  0  0  0  0  0  0
  201.0606  188.3477  157.5195 C   0  0  0  0  0  0  0  0  0  0  0  0
  201.3415  189.2314  156.4508 C   0  0  0  0  0  0  0  0  0  0  0  0
  200.4374  189.4357  155.4276 C   0  0  0  0  0  0  0  0  0  0  0  0
  199.1575  188.7713  155.4782 C   0  0  0  0  0  0  0  0  0  0  0  0
  198.8793  187.9158  156.5396 C   0  0  0  0  0  0  0  0  0  0  0  0
  200.5665  186.2553  159.4531 C   0  0  1  0  0  0  0  0  0  0  0  0
  201.2899  185.1914  158.7285 C   0  0  0  0  0  0  0  0  0  0  0  0
  201.8538  184.3544  158.1627 N   0  0  0  0  0  0  0  0  0  0  0  0
  196.6833  182.8672  158.1160 C   0  0  0  0  0  0  0  0  0  0  0  0
  195.4403  182.2378  158.2940 C   0  0  0  0  0  0  0  0  0  0  0  0
  194.3792  182.9304  158.8985 C   0  0  0  0  0  0  0  0  0  0  0  0
  194.5627  184.2513  159.3437 C   0  0  0  0  0  0  0  0  0  0  0  0
  197.9681  191.3775  156.3235 H   0  0  0  0  0  0  0  0  0  0  0  0
  196.5066  190.5718  158.1291 H   0  0  0  0  0  0  0  0  0  0  0  0
  199.6800  191.1413  160.9877 H   0  0  0  0  0  0  0  0  0  0  0  0
  201.1672  191.9479  159.2027 H   0  0  0  0  0  0  0  0  0  0  0  0
  197.5431  190.4786  161.7818 H   0  0  0  0  0  0  0  0  0  0  0  0
  196.1679  191.0323  160.8584 H   0  0  0  0  0  0  0  0  0  0  0  0
  198.2163  188.5544  159.5513 H   0  0  0  0  0  0  0  0  0  0  0  0
  198.9097  184.3265  157.8879 H   0  0  0  0  0  0  0  0  0  0  0  0
  201.7798  188.2823  158.2988 H   0  0  0  0  0  0  0  0  0  0  0  0
  202.3229  189.7334  156.4205 H   0  0  0  0  0  0  0  0  0  0  0  0
  200.6755  190.1117  154.5950 H   0  0  0  0  0  0  0  0  0  0  0  0
  198.4485  188.9783  154.7257 H   0  0  0  0  0  0  0  0  0  0  0  0
  197.8750  187.4837  156.5863 H   0  0  0  0  0  0  0  0  0  0  0  0
  201.2814  187.0039  159.7907 H   0  0  0  0  0  0  0  0  0  0  0  0
  200.1681  185.8042  160.3617 H   0  0  0  0  0  0  0  0  0  0  0  0
  197.4890  182.3289  157.6367 H   0  0  0  0  0  0  0  0  0  0  0  0
  195.2894  181.2266  157.9459 H   0  0  0  0  0  0  0  0  0  0  0  0
  193.4215  182.4445  158.9966 H   0  0  0  0  0  0  0  0  0  0  0  0
  193.7438  184.7881  159.8013 H   0  0  0  0  0  0  0  0  0  0  0  0
  1  2  1  0
  2  3  1  0
  2  7  2  0
  3  4  2  0
  3 32  1  0
  4  5  1  0
  4 33  1  0
  5  6  2  0
  5  8  1  0
  6  7  1  0
  6 34  1  0
  7 35  1  0
  8  9  1  0
  8 36  1  1
  8 37  1  0
  9 10  2  0
  9 11  1  0
 11 12  1  0
 11 38  1  0
 12 13  2  0
 12 17  1  0
 13 14  1  0
 14 15  1  0
 14 31  2  0
 15 16  1  0
 15 28  2  0
 16 17  2  0
 16 39  1  0
 17 18  1  0
 18 19  1  0
 18 25  1  0
 19 20  2  0
 19 24  1  0
 20 21  1  0
 20 40  1  0
 21 22  2  0
 21 41  1  0
 22 23  1  0
 22 42  1  0
 23 24  2  0
 23 43  1  0
 24 44  1  0
 25 26  1  0
 25 45  1  1
 25 46  1  0
 26 27  3  0
 28 29  1  0
 28 47  1  0
 29 30  2  0
 29 48  1  0
 30 31  1  0
 30 49  1  0
 31 50  1  0
M  CHG  1   1  -1
M  END
>  <s_epik_cmdline>  (1108) 
J2VwaWtfcHl0aG9uJywgJy1waCcsICc3LjAwMDAwMCcsICctcGh0JywgJzIuMDAwMDAwJywgJy1tcycsICcxNicsICctdG4nLCAnOCcsICctbWEnLCAnMjAwJywgJy1pbWFlJywgJzxpbmZpbGUubWFlPicsICctb21hZScsICc8b3V0ZmlsZS5tYWU+Jw==

>  <s_epik_input>  (1108) 
W1NIXWMxW2NIXVtjSF1jKFtjSF1bY0hdMSlbQ0gyXUMoPU8pW05IXWMobjIpYyhbY0hdYyhjMjMpW2NIXVtjSF1bY0hdW2NIXTMpTihbQ0gyXUMjTiljNFtjSF1bY0hdW2NIXVtjSF1bY0hdNA==

>  <s_i_glide_gridfile>  (1108) 
ATP-Grid

>  <s_lp_Force_Field>  (1108) 
OPLS_2005

>  <s_lp_Variant>  (1108) 
rxn502b____EMOL527437____EMOL44466703____EMOL712348-1

>  <s_lp_label>  (1108) 
2330_sdstereoexpander_1_neutralizer_1_epik_1_stereoizer_1

>  <s_m_source_file>  (1108) 
ATP-VSW-LIGPREP-001-in.maegz

>  <s_sd_BIOSOLVEIT.INFINISEE\_QUERY\_NAME>  (1108) 
Ref-Lig

>  <s_sd_BIOSOLVEIT.INFINISEE\_QUERY\_SMILES>  (1108) 
S(c1nc2c(cc1C[NH2+]Cc3ccc(cc3)C[NH+](C)C)cccc2)Cc4ccccc4

>  <s_sd_BIOSOLVEIT.INFINISEE\_REACTION\_NAME>  (1108) 
rxn502b

>  <s_sd_BIOSOLVEIT.INFINISEE\_REAGENT1\_NAME>  (1108) 
EMOL527437

>  <s_sd_BIOSOLVEIT.INFINISEE\_REAGENT1\_SMILES>  (1108) 
Sc1ccc(cc1)CC(=O)O

>  <s_sd_BIOSOLVEIT.INFINISEE\_REAGENT2\_NAME>  (1108) 
EMOL44466703

>  <s_sd_BIOSOLVEIT.INFINISEE\_REAGENT2\_SMILES>  (1108) 
Brc1c(nc2c(c1)cccc2)N

>  <s_sd_BIOSOLVEIT.INFINISEE\_REAGENT3\_NAME>  (1108) 
EMOL712348

>  <s_sd_BIOSOLVEIT.INFINISEE\_REAGENT3\_SMILES>  (1108) 
N#CCNc1ccccc1

>  <s_sd_BIOSOLVEIT.INFINISEE\_SPACE>  (1108) 
eXplore_7tr_2022-12

>  <s_vsw_compound_code>  (1108) 
74529

>  <s_vsw_variant>  (1108) 
74529-1

>  <r_epik_Charging_Adjusted_Penalty>  (1108) 
0.13291232759490201

>  <r_epik_Ionization_Penalty>  (1108) 
0.067799999999999999

>  <r_epik_Ionization_Penalty_Charging>  (1108) 
0.066500000000000004

>  <r_epik_Ionization_Penalty_Neutral>  (1108) 
0.0012999999999999999

>  <r_epik_State_Penalty>  (1108) 
0.066500000000000004

>  <r_i_docking_score>  (1108) 
-2.5388930340320401

>  <r_i_glide_ecoul>  (1108) 
-0.21313232183456399

>  <r_i_glide_eff_state_penalty>  (1108) 
0.066500000000000004

>  <r_i_glide_einternal>  (1108) 
2.6594266891479501

>  <r_i_glide_emodel>  (1108) 
-34.815946147492397

>  <r_i_glide_energy>  (1108) 
-31.247558057308201

>  <r_i_glide_erotb>  (1108) 
0.55251795857730401

>  <r_i_glide_esite>  (1108) 
0

>  <r_i_glide_evdw>  (1108) 
-31.034425735473601

>  <r_i_glide_gscore>  (1108) 
-2.6053930340320401

>  <r_i_glide_hbond>  (1108) 
0

>  <r_i_glide_ligand_efficiency>  (1108) 
-0.081899775291356294

>  <r_i_glide_ligand_efficiency_ln>  (1108) 
-0.57259818690136399

>  <r_i_glide_ligand_efficiency_sa>  (1108) 
-0.25727836924097203

>  <r_i_glide_lipo>  (1108) 
-1.01834767737217

>  <r_i_glide_metal>  (1108) 
-0

>  <r_i_glide_rewards>  (1108) 
-0.55587218018830997

>  <r_lp_Energy>  (1108) 
23.968715

>  <r_qp_ACxDN^.5/SA>  (1108) 
0.0121344

>  <r_qp_CIQPlogS>  (1108) 
-7.718

>  <r_qp_EA(eV)>  (1108) 
1.2050000000000001

>  <r_qp_FISA>  (1108) 
111.622

>  <r_qp_FOSA>  (1108) 
79.137

>  <r_qp_IP(eV)>  (1108) 
8.7599999999999998

>  <r_qp_Jm>  (1108) 
0.0145144519400146

>  <r_qp_PISA>  (1108) 
410.733

>  <r_qp_PSA>  (1108) 
71.873999999999995

>  <r_qp_PercentHumanOralAbsorption>  (1108) 
100

>  <r_qp_QPPCaco>  (1108) 
865.73900000000003

>  <r_qp_QPPMDCK>  (1108) 
924.19000000000005

>  <r_qp_QPlogBB>  (1108) 
-0.79100000000000004

>  <r_qp_QPlogHERG>  (1108) 
-5.8819999999999997

>  <r_qp_QPlogKhsa>  (1108) 
0.53600000000000003

>  <r_qp_QPlogKp>  (1108) 
-1.3620000000000001

>  <r_qp_QPlogPC16>  (1108) 
14.476000000000001

>  <r_qp_QPlogPo/w>  (1108) 
4.5620000000000003

>  <r_qp_QPlogPoct>  (1108) 
20.744

>  <r_qp_QPlogPw>  (1108) 
11.672000000000001

>  <r_qp_QPlogS>  (1108) 
-6.1040000000000001

>  <r_qp_QPpolrz>  (1108) 
43.215000000000003

>  <r_qp_SASA>  (1108) 
663.39200000000005

>  <r_qp_SAamideO>  (1108) 
0

>  <r_qp_SAfluorine>  (1108) 
0

>  <r_qp_WPSA>  (1108) 
61.899999999999999

>  <r_qp_accptHB>  (1108) 
6

>  <r_qp_dip^2/V>  (1108) 
0.0055241999999999999

>  <r_qp_dipole>  (1108) 
2.6419999999999999

>  <r_qp_donorHB>  (1108) 
1.8

>  <r_qp_glob>  (1108) 
0.85221570000000002

>  <r_qp_mol_MW>  (1108) 
424.51900000000001

>  <r_qp_volume>  (1108) 
1263.9559999999999

>  <r_sd_BIOSOLVEIT.INFINISEE\_FTREES\_SIMILARITY>  (1108) 
0.92100000000000004

>  <r_sd_BIOSOLVEIT.LOGP>  (1108) 
5.7465799999999998

>  <r_sd_BIOSOLVEIT.MOLECULAR\_WEIGHT>  (1108) 
424.52499999999998

>  <r_sd_BIOSOLVEIT.TPSA>  (1108) 
69.019999999999996

>  <i_epik_Tot_Q>  (1108) 
-1

>  <i_epik_Tot_abs_Q>  (1108) 
1

>  <i_f3d_flags>  (1108) 
0

>  <i_i_glide_confnum>  (1108) 
4

>  <i_i_glide_lignum>  (1108) 
835

>  <i_i_glide_posenum>  (1108) 
14

>  <i_i_glide_rotatable_bonds>  (1108) 
7

>  <i_lp_mmshare_version>  (1108) 
65135

>  <i_m_ct_format>  (1108) 
2

>  <i_m_source_file_index>  (1108) 
2330

>  <i_qp_#NandO>  (1108) 
5

>  <i_qp_#acid>  (1108) 
0

>  <i_qp_#amide>  (1108) 
0

>  <i_qp_#amidine>  (1108) 
0

>  <i_qp_#amine>  (1108) 
0

>  <i_qp_#in34>  (1108) 
0

>  <i_qp_#in56>  (1108) 
22

>  <i_qp_#metab>  (1108) 
5

>  <i_qp_#nonHatm>  (1108) 
31

>  <i_qp_#noncon>  (1108) 
0

>  <i_qp_#ringatoms>  (1108) 
22

>  <i_qp_#rotor>  (1108) 
8

>  <i_qp_#rtvFG>  (1108) 
1

>  <i_qp_#stars>  (1108) 
0

>  <i_qp_CNS>  (1108) 
-1

>  <i_qp_HumanOralAbsorption>  (1108) 
3

>  <i_qp_RuleOfFive>  (1108) 
0

>  <i_qp_RuleOfThree>  (1108) 
1

>  <i_sd_BIOSOLVEIT.INFINISEE\_RESULT\_RANK>  (1108) 
13991

>  <i_sd_version>  (1108) 
0

>  <b_lp_Chiralities_Consistent>  (1108) 
1

>  <b_sd_chiral_flag>  (1108) 
0

>  <canonical_id>  (1108) 
ATP-HTVS-B0B19F009301

>  <compound_code>  (1108) 
74529

>  <title>  (1108) 
rxn502b____EMOL527437____EMOL44466703____EMOL712348

>  <variant>  (1108) 
74529-1

>  <source_file>  (1108) 
运行/运行/ATP-VSW/ATP-VSW-DOCK_HTVS_1-001_lib/ATP-VSW-DOCK_HTVS_1-001_lib

>  <canonical_smiles>  (1108) 
N#CCN(c1ccccc1)c1cc2ccccc2nc1NC(=O)Cc1ccc([S-])cc1

>  <scaffold>  (1108) 
O=C(Cc1ccccc1)Nc1nc2ccccc2cc1Nc1ccccc1

>  <molecular_formula>  (1108) 
C25H19N4OS-

$$$$
ATP-HTVS-B107F9A324A3
     RDKit          3D

 45 47  0  0  0  0  0  0  0  0999 V2000
  197.2497  186.7516  156.5608 S   0  0  0  0  0  0  0  0  0  0  0  0
  197.8833  188.2291  157.2417 C   0  0  0  0  0  0  0  0  0  0  0  0
  198.7088  188.8789  156.4048 N   0  0  0  0  0  0  0  0  0  0  0  0
  198.9403  188.1796  155.2143 C   0  0  0  0  0  0  0  0  0  0  0  0
  198.3125  186.9484  155.1967 C   0  0  0  0  0  0  0  0  0  0  0  0
  198.3614  185.8786  154.1736 C   0  0  0  0  0  0  0  0  0  0  0  0
  197.5046  184.7527  154.2524 C   0  0  0  0  0  0  0  0  0  0  0  0
  197.5189  183.7466  153.2726 C   0  0  0  0  0  0  0  0  0  0  0  0
  198.4036  183.8559  152.1831 C   0  0  0  0  0  0  0  0  0  0  0  0
  199.2729  184.9648  152.0955 C   0  0  0  0  0  0  0  0  0  0  0  0
  199.2560  185.9633  153.0842 C   0  0  0  0  0  0  0  0  0  0  0  0
  197.5522  188.6551  158.5179 N   0  0  0  0  0  0  0  0  0  0  0  0
  196.8640  188.0746  159.6810 C   0  0  1  0  0  0  0  0  0  0  0  0
  196.7384  186.5658  159.6987 C   0  0  0  0  0  0  0  0  0  0  0  0
  195.4828  185.9624  159.8636 C   0  0  0  0  0  0  0  0  0  0  0  0
  195.3428  184.5608  159.7833 C   0  0  0  0  0  0  0  0  0  0  0  0
  196.4674  183.7616  159.4878 C   0  0  0  0  0  0  0  0  0  0  0  0
  197.7332  184.3749  159.3351 C   0  0  0  0  0  0  0  0  0  0  0  0
  197.8804  185.7495  159.4741 C   0  0  0  0  0  0  0  0  0  0  0  0
  196.3280  182.2612  159.2801 C   0  0  1  0  0  0  0  0  0  0  0  0
  195.6567  181.8699  158.0205 N   0  0  1  0  0  0  0  0  0  0  0  0
  194.1849  181.8071  158.1293 C   0  0  2  0  0  0  0  0  0  0  0  0
  196.1285  182.5905  156.8168 C   0  0  2  0  0  0  0  0  0  0  0  0
  199.5706  188.6338  154.4648 H   0  0  0  0  0  0  0  0  0  0  0  0
  196.7945  184.6349  155.0568 H   0  0  0  0  0  0  0  0  0  0  0  0
  196.8368  182.9158  153.3564 H   0  0  0  0  0  0  0  0  0  0  0  0
  198.4011  183.0846  151.4187 H   0  0  0  0  0  0  0  0  0  0  0  0
  199.9441  185.0419  151.2563 H   0  0  0  0  0  0  0  0  0  0  0  0
  199.9253  186.7956  152.9998 H   0  0  0  0  0  0  0  0  0  0  0  0
  197.8476  189.5989  158.6935 H   0  0  0  0  0  0  0  0  0  0  0  0
  197.3855  188.3837  160.5884 H   0  0  0  0  0  0  0  0  0  0  0  0
  195.8717  188.5248  159.7359 H   0  0  0  0  0  0  0  0  0  0  0  0
  194.5905  186.5681  159.9800 H   0  0  0  0  0  0  0  0  0  0  0  0
  194.3606  184.1319  159.8686 H   0  0  0  0  0  0  0  0  0  0  0  0
  198.5940  183.7690  159.0673 H   0  0  0  0  0  0  0  0  0  0  0  0
  198.8508  186.2068  159.3468 H   0  0  0  0  0  0  0  0  0  0  0  0
  197.3283  181.8383  159.2781 H   0  0  0  0  0  0  0  0  0  0  0  0
  195.8106  181.8332  160.1352 H   0  0  0  0  0  0  0  0  0  0  0  0
  193.7401  182.7936  158.2651 H   0  0  0  0  0  0  0  0  0  0  0  0
  193.8946  181.1588  158.9642 H   0  0  0  0  0  0  0  0  0  0  0  0
  193.7386  181.3629  157.2389 H   0  0  0  0  0  0  0  0  0  0  0  0
  195.8802  183.6490  156.8866 H   0  0  0  0  0  0  0  0  0  0  0  0
  195.6630  182.1852  155.9193 H   0  0  0  0  0  0  0  0  0  0  0  0
  197.2078  182.5026  156.6941 H   0  0  0  0  0  0  0  0  0  0  0  0
  195.9088  180.8954  157.8682 H   0  0  0  0  0  0  0  0  0  0  0  0
  1  2  1  0
  1  5  1  0
  2  3  2  0
  2 12  1  0
  3  4  1  0
  4  5  2  0
  4 24  1  0
  5  6  1  0
  6  7  2  0
  6 11  1  0
  7  8  1  0
  7 25  1  0
  8  9  2  0
  8 26  1  0
  9 10  1  0
  9 27  1  0
 10 11  2  0
 10 28  1  0
 11 29  1  0
 12 13  1  0
 12 30  1  0
 13 14  1  0
 13 31  1  1
 13 32  1  0
 14 15  1  0
 14 19  2  0
 15 16  2  0
 15 33  1  0
 16 17  1  0
 16 34  1  0
 17 18  2  0
 17 20  1  0
 18 19  1  0
 18 35  1  0
 19 36  1  0
 20 21  1  0
 20 37  1  6
 20 38  1  0
 21 22  1  0
 21 23  1  0
 21 45  1  6
 22 39  1  1
 22 40  1  0
 22 41  1  0
 23 42  1  1
 23 43  1  0
 23 44  1  0
M  CHG  1  21   1
M  END
>  <s_epik_cmdline>  (1109) 
J2VwaWtfcHl0aG9uJywgJy1waCcsICc3LjAwMDAwMCcsICctcGh0JywgJzIuMDAwMDAwJywgJy1tcycsICcxNicsICctdG4nLCAnOCcsICctbWEnLCAnMjAwJywgJy1pbWFlJywgJzxpbmZpbGUubWFlPicsICctb21hZScsICc8b3V0ZmlsZS5tYWU+Jw==

>  <s_epik_input>  (1109) 
W2NIXTFbY0hdW2NIXVtjSF1bY0hdYzEtYyhbY0hdbjIpc2MyW05IXVtDSDJdYzNbY0hdW2NIXWMoW2NIXVtjSF0zKVtDSDJdTihbQ0gzXSlbQ0gzXQ==

>  <s_i_glide_gridfile>  (1109) 
ATP-Grid

>  <s_lp_Force_Field>  (1109) 
OPLS_2005

>  <s_lp_Variant>  (1109) 
WXDL_15E____QS5063____LN00172681____BT2957-1

>  <s_lp_label>  (1109) 
628_sdstereoexpander_1_neutralizer_1_epik_1_stereoizer_1

>  <s_m_source_file>  (1109) 
ATP-VSW-LIGPREP-001-in.maegz

>  <s_sd_BIOSOLVEIT.INFINISEE\_QUERY\_NAME>  (1109) 
Ref-Lig

>  <s_sd_BIOSOLVEIT.INFINISEE\_QUERY\_SMILES>  (1109) 
S(c1nc2c(cc1C[NH2+]Cc3ccc(cc3)C[NH+](C)C)cccc2)Cc4ccccc4

>  <s_sd_BIOSOLVEIT.INFINISEE\_REACTION\_NAME>  (1109) 
WXDL_15E

>  <s_sd_BIOSOLVEIT.INFINISEE\_REAGENT1\_NAME>  (1109) 
QS5063

>  <s_sd_BIOSOLVEIT.INFINISEE\_REAGENT1\_SMILES>  (1109) 
O=Cc1ccc(cc1)CN(C)C

>  <s_sd_BIOSOLVEIT.INFINISEE\_REAGENT2\_NAME>  (1109) 
LN00172681

>  <s_sd_BIOSOLVEIT.INFINISEE\_REAGENT2\_SMILES>  (1109) 
BrC=1SC(=NC1)NC(=O)OC(C)(C)C

>  <s_sd_BIOSOLVEIT.INFINISEE\_REAGENT3\_NAME>  (1109) 
BT2957

>  <s_sd_BIOSOLVEIT.INFINISEE\_REAGENT3\_SMILES>  (1109) 
O1CCCOB1c2ccccc2

>  <s_sd_BIOSOLVEIT.INFINISEE\_SPACE>  (1109) 
GalaXi_12bn_2023-03

>  <s_vsw_compound_code>  (1109) 
20065

>  <s_vsw_variant>  (1109) 
20065-1

>  <r_epik_Charging_Adjusted_Penalty>  (1109) 
0.088962582738523505

>  <r_epik_Ionization_Penalty>  (1109) 
0.048300000000000003

>  <r_epik_Ionization_Penalty_Charging>  (1109) 
0.041099999999999998

>  <r_epik_Ionization_Penalty_Neutral>  (1109) 
0.0071999999999999998

>  <r_epik_State_Penalty>  (1109) 
0.047899999999999998

>  <r_i_docking_score>  (1109) 
-5.0400005904791403

>  <r_i_glide_ecoul>  (1109) 
-9.2388181686401403

>  <r_i_glide_eff_state_penalty>  (1109) 
0.047899999999999998

>  <r_i_glide_einternal>  (1109) 
4.3800530433654803

>  <r_i_glide_emodel>  (1109) 
-50.768160658433899

>  <r_i_glide_energy>  (1109) 
-35.540778160095201

>  <r_i_glide_erotb>  (1109) 
0.88946429549808403

>  <r_i_glide_esite>  (1109) 
-0.10000000000000001

>  <r_i_glide_evdw>  (1109) 
-26.301959991455099

>  <r_i_glide_gscore>  (1109) 
-5.0879005904791397

>  <r_i_glide_hbond>  (1109) 
-0.20000000000000001

>  <r_i_glide_ligand_efficiency>  (1109) 
-0.21913046045561499

>  <r_i_glide_ligand_efficiency_ln>  (1109) 
-1.21871784297654

>  <r_i_glide_ligand_efficiency_sa>  (1109) 
-0.62317788011806796

>  <r_i_glide_lipo>  (1109) 
-1.55460834292663

>  <r_i_glide_metal>  (1109) 
-0

>  <r_i_glide_rewards>  (1109) 
-1.42183581818182

>  <r_lp_Energy>  (1109) 
9.3509039999999999

>  <r_qp_ACxDN^.5/SA>  (1109) 
0.0063137999999999996

>  <r_qp_CIQPlogS>  (1109) 
-4.1550000000000002

>  <r_qp_EA(eV)>  (1109) 
0.59799999999999998

>  <r_qp_FISA>  (1109) 
26.568000000000001

>  <r_qp_FOSA>  (1109) 
220.82900000000001

>  <r_qp_IP(eV)>  (1109) 
8.2539999999999996

>  <r_qp_Jm>  (1109) 
0.045263338348271898

>  <r_qp_PISA>  (1109) 
348.279

>  <r_qp_PSA>  (1109) 
28.597000000000001

>  <r_qp_PercentHumanOralAbsorption>  (1109) 
100

>  <r_qp_QPPCaco>  (1109) 
1383.095

>  <r_qp_QPPMDCK>  (1109) 
1252.673

>  <r_qp_QPlogBB>  (1109) 
0.49099999999999999

>  <r_qp_QPlogHERG>  (1109) 
-6.8200000000000003

>  <r_qp_QPlogKhsa>  (1109) 
0.66100000000000003

>  <r_qp_QPlogKp>  (1109) 
-2.3650000000000002

>  <r_qp_QPlogPC16>  (1109) 
11.694000000000001

>  <r_qp_QPlogPo/w>  (1109) 
4.4420000000000002

>  <r_qp_QPlogPoct>  (1109) 
16.190000000000001

>  <r_qp_QPlogPw>  (1109) 
8.1080000000000005

>  <r_qp_QPlogS>  (1109) 
-4.4889999999999999

>  <r_qp_QPpolrz>  (1109) 
38.578000000000003

>  <r_qp_SASA>  (1109) 
633.53099999999995

>  <r_qp_SAamideO>  (1109) 
0

>  <r_qp_SAfluorine>  (1109) 
0

>  <r_qp_WPSA>  (1109) 
37.853999999999999

>  <r_qp_accptHB>  (1109) 
4

>  <r_qp_dip^2/V>  (1109) 
0.0075893999999999996

>  <r_qp_dipole>  (1109) 
2.9089999999999998

>  <r_qp_donorHB>  (1109) 
1

>  <r_qp_glob>  (1109) 
0.82074860000000005

>  <r_qp_mol_MW>  (1109) 
323.45499999999998

>  <r_qp_volume>  (1109) 
1114.8579999999999

>  <r_sd_BIOSOLVEIT.INFINISEE\_FTREES\_SIMILARITY>  (1109) 
0.91400000000000003

>  <r_sd_BIOSOLVEIT.LOGP>  (1109) 
3.0667

>  <r_sd_BIOSOLVEIT.MOLECULAR\_WEIGHT>  (1109) 
324.46899999999999

>  <r_sd_BIOSOLVEIT.TPSA>  (1109) 
29.359999999999999

>  <i_epik_Tot_Q>  (1109) 
1

>  <i_epik_Tot_abs_Q>  (1109) 
1

>  <i_f3d_flags>  (1109) 
0

>  <i_i_glide_confnum>  (1109) 
3

>  <i_i_glide_lignum>  (1109) 
74

>  <i_i_glide_posenum>  (1109) 
20

>  <i_i_glide_rotatable_bonds>  (1109) 
6

>  <i_lp_mmshare_version>  (1109) 
65135

>  <i_m_ct_format>  (1109) 
2

>  <i_m_source_file_index>  (1109) 
628

>  <i_qp_#NandO>  (1109) 
3

>  <i_qp_#acid>  (1109) 
0

>  <i_qp_#amide>  (1109) 
0

>  <i_qp_#amidine>  (1109) 
0

>  <i_qp_#amine>  (1109) 
1

>  <i_qp_#in34>  (1109) 
0

>  <i_qp_#in56>  (1109) 
17

>  <i_qp_#metab>  (1109) 
4

>  <i_qp_#nonHatm>  (1109) 
23

>  <i_qp_#noncon>  (1109) 
0

>  <i_qp_#ringatoms>  (1109) 
17

>  <i_qp_#rotor>  (1109) 
5

>  <i_qp_#rtvFG>  (1109) 
0

>  <i_qp_#stars>  (1109) 
0

>  <i_qp_CNS>  (1109) 
2

>  <i_qp_HumanOralAbsorption>  (1109) 
3

>  <i_qp_RuleOfFive>  (1109) 
0

>  <i_qp_RuleOfThree>  (1109) 
0

>  <i_sd_BIOSOLVEIT.INFINISEE\_RESULT\_RANK>  (1109) 
30246

>  <i_sd_version>  (1109) 
0

>  <b_lp_Chiralities_Consistent>  (1109) 
1

>  <b_sd_chiral_flag>  (1109) 
0

>  <canonical_id>  (1109) 
ATP-HTVS-B107F9A324A3

>  <compound_code>  (1109) 
20065

>  <title>  (1109) 
WXDL_15E____QS5063____LN00172681____BT2957

>  <variant>  (1109) 
20065-1

>  <source_file>  (1109) 
运行/运行/ATP-VSW/ATP-VSW-DOCK_HTVS_1-001_lib/ATP-VSW-DOCK_HTVS_1-001_lib

>  <canonical_smiles>  (1109) 
C[NH+](C)Cc1ccc(CNc2ncc(-c3ccccc3)s2)cc1

>  <scaffold>  (1109) 
c1ccc(CNc2ncc(-c3ccccc3)s2)cc1

>  <molecular_formula>  (1109) 
C19H22N3S+

$$$$
ATP-HTVS-B13A57A9D1F9
     RDKit          3D

 57 60  0  0  0  0  0  0  0  0999 V2000
  194.2144  184.7407  160.1297 O   0  0  0  0  0  0  0  0  0  0  0  0
  195.2399  185.2510  159.6699 C   0  0  0  0  0  0  0  0  0  0  0  0
  195.8815  186.2056  160.3423 N   0  0  0  0  0  0  0  0  0  0  0  0
  197.0521  186.8911  159.8951 C   0  0  0  0  0  0  0  0  0  0  0  0
  198.1317  186.2036  159.2746 C   0  0  0  0  0  0  0  0  0  0  0  0
  199.2720  186.9628  158.8823 C   0  0  0  0  0  0  0  0  0  0  0  0
  199.3298  188.3455  159.1117 C   0  0  0  0  0  0  0  0  0  0  0  0
  198.2579  189.0097  159.7369 C   0  0  0  0  0  0  0  0  0  0  0  0
  197.1246  188.2783  160.1338 C   0  0  0  0  0  0  0  0  0  0  0  0
  198.1014  184.6632  159.1308 C   0  0  1  0  0  0  0  0  0  0  0  0
  197.0820  184.1550  158.1905 N   0  0  0  0  0  0  0  0  0  0  0  0
  196.9619  182.6747  158.2061 C   0  0  2  0  0  0  0  0  0  0  0  0
  196.5688  182.1089  156.8273 C   0  0  1  0  0  0  0  0  0  0  0  0
  197.6231  182.3162  155.7289 C   0  0  1  0  0  0  0  0  0  0  0  0
  197.2424  181.6712  154.4167 C   0  0  0  0  0  0  0  0  0  0  0  0
  196.7581  182.4699  153.3573 C   0  0  0  0  0  0  0  0  0  0  0  0
  196.3804  181.8789  152.1366 C   0  0  0  0  0  0  0  0  0  0  0  0
  196.5184  180.4882  151.9523 C   0  0  0  0  0  0  0  0  0  0  0  0
  197.0209  179.6981  153.0030 C   0  0  0  0  0  0  0  0  0  0  0  0
  197.3805  180.2806  154.2336 C   0  0  0  0  0  0  0  0  0  0  0  0
  196.1153  179.8442  150.6450 C   0  0  2  0  0  0  0  0  0  0  0  0
  196.0423  182.1531  159.3243 C   0  0  2  0  0  0  0  0  0  0  0  0
  195.7551  184.8508  158.2801 C   0  0  1  0  0  0  0  0  0  0  0  0
  199.4973  184.1132  158.8004 C   0  0  0  0  0  0  0  0  0  0  0  0
  200.3708  183.6883  159.8258 C   0  0  0  0  0  0  0  0  0  0  0  0
  201.6542  183.1889  159.5159 C   0  0  0  0  0  0  0  0  0  0  0  0
  202.0710  183.1112  158.1739 C   0  0  0  0  0  0  0  0  0  0  0  0
  201.2123  183.5394  157.1447 C   0  0  0  0  0  0  0  0  0  0  0  0
  199.9455  184.0605  157.4579 C   0  0  0  0  0  0  0  0  0  0  0  0
  195.4404  186.5567  161.1782 H   0  0  0  0  0  0  0  0  0  0  0  0
  200.1484  186.5244  158.4328 H   0  0  0  0  0  0  0  0  0  0  0  0
  200.2193  188.8861  158.8231 H   0  0  0  0  0  0  0  0  0  0  0  0
  198.3254  190.0656  159.9282 H   0  0  0  0  0  0  0  0  0  0  0  0
  196.3090  188.7873  160.6188 H   0  0  0  0  0  0  0  0  0  0  0  0
  197.8514  184.2899  160.1178 H   0  0  0  0  0  0  0  0  0  0  0  0
  197.9296  182.2054  158.4087 H   0  0  0  0  0  0  0  0  0  0  0  0
  196.4359  181.0372  156.9398 H   0  0  0  0  0  0  0  0  0  0  0  0
  195.6037  182.4993  156.5149 H   0  0  0  0  0  0  0  0  0  0  0  0
  197.7679  183.3836  155.5468 H   0  0  0  0  0  0  0  0  0  0  0  0
  198.5890  181.9143  156.0395 H   0  0  0  0  0  0  0  0  0  0  0  0
  196.6311  183.5342  153.4949 H   0  0  0  0  0  0  0  0  0  0  0  0
  195.9848  182.5049  151.3461 H   0  0  0  0  0  0  0  0  0  0  0  0
  197.1239  178.6377  152.8713 H   0  0  0  0  0  0  0  0  0  0  0  0
  197.7529  179.6631  155.0386 H   0  0  0  0  0  0  0  0  0  0  0  0
  196.8019  179.0430  150.3817 H   0  0  0  0  0  0  0  0  0  0  0  0
  196.1120  180.5700  149.8340 H   0  0  0  0  0  0  0  0  0  0  0  0
  195.1181  179.4210  150.7351 H   0  0  0  0  0  0  0  0  0  0  0  0
  196.1128  181.0602  159.4012 H   0  0  0  0  0  0  0  0  0  0  0  0
  194.9937  182.3762  159.1358 H   0  0  0  0  0  0  0  0  0  0  0  0
  196.3381  182.5935  160.2766 H   0  0  0  0  0  0  0  0  0  0  0  0
  194.9929  184.2767  157.7619 H   0  0  0  0  0  0  0  0  0  0  0  0
  195.8420  185.7992  157.7347 H   0  0  0  0  0  0  0  0  0  0  0  0
  200.0634  183.7481  160.8605 H   0  0  0  0  0  0  0  0  0  0  0  0
  202.3060  182.8837  160.3115 H   0  0  0  0  0  0  0  0  0  0  0  0
  203.0521  182.7308  157.9310 H   0  0  0  0  0  0  0  0  0  0  0  0
  201.5225  183.4909  156.1084 H   0  0  0  0  0  0  0  0  0  0  0  0
  199.3032  184.4356  156.6770 H   0  0  0  0  0  0  0  0  0  0  0  0
  1  2  2  0
  2  3  1  0
  2 23  1  0
  3  4  1  0
  3 30  1  0
  4  5  1  0
  4  9  2  0
  5  6  2  0
  5 10  1  0
  6  7  1  0
  6 31  1  0
  7  8  2  0
  7 32  1  0
  8  9  1  0
  8 33  1  0
  9 34  1  0
 10 11  1  0
 10 24  1  0
 10 35  1  1
 11 12  1  0
 11 23  1  0
 12 13  1  0
 12 22  1  0
 12 36  1  1
 13 14  1  0
 13 37  1  1
 13 38  1  0
 14 15  1  0
 14 39  1  6
 14 40  1  0
 15 16  1  0
 15 20  2  0
 16 17  2  0
 16 41  1  0
 17 18  1  0
 17 42  1  0
 18 19  2  0
 18 21  1  0
 19 20  1  0
 19 43  1  0
 20 44  1  0
 21 45  1  6
 21 46  1  0
 21 47  1  0
 22 48  1  1
 22 49  1  0
 22 50  1  0
 23 51  1  6
 23 52  1  0
 24 25  2  0
 24 29  1  0
 25 26  1  0
 25 53  1  0
 26 27  2  0
 26 54  1  0
 27 28  1  0
 27 55  1  0
 28 29  2  0
 28 56  1  0
 29 57  1  0
M  END
>  <s_epik_cmdline>  (1110) 
J2VwaWtfcHl0aG9uJywgJy1waCcsICc3LjAwMDAwMCcsICctcGh0JywgJzIuMDAwMDAwJywgJy1tcycsICcxNicsICctdG4nLCAnOCcsICctbWEnLCAnMjAwJywgJy1pbWFlJywgJzxpbmZpbGUubWFlPicsICctb21hZScsICc8b3V0ZmlsZS5tYWU+Jw==

>  <s_epik_input>  (1110) 
W2NIXTFbY0hdW2NIXVtjSF1bY0hdYzFbQ0BASF0oYyhjMjMpW2NIXVtjSF1bY0hdW2NIXTMpTihbQ0gyXUMoPU8pW05IXTIpW0NAQEhdKFtDSDNdKVtDSDJdW0NIMl1jNFtjSF1bY0hdYyhbQ0gzXSlbY0hdW2NIXTQ=

>  <s_i_glide_gridfile>  (1110) 
ATP-Grid

>  <s_lp_Force_Field>  (1110) 
OPLS_2005

>  <s_lp_Variant>  (1110) 
rxn207____EMOL10224202____EMOL6185419-4

>  <s_lp_label>  (1110) 
3069_sdstereoexpander_6_neutralizer_1_epik_1_stereoizer_1

>  <s_m_source_file>  (1110) 
ATP-VSW-LIGPREP-002-in.maegz

>  <s_sd_BIOSOLVEIT.INFINISEE\_QUERY\_NAME>  (1110) 
Ref-Lig

>  <s_sd_BIOSOLVEIT.INFINISEE\_QUERY\_SMILES>  (1110) 
S(c1nc2c(cc1C[NH2+]Cc3ccc(cc3)C[NH+](C)C)cccc2)Cc4ccccc4

>  <s_sd_BIOSOLVEIT.INFINISEE\_REACTION\_NAME>  (1110) 
rxn207

>  <s_sd_BIOSOLVEIT.INFINISEE\_REAGENT1\_NAME>  (1110) 
EMOL10224202

>  <s_sd_BIOSOLVEIT.INFINISEE\_REAGENT1\_SMILES>  (1110) 
O=C(CCc1ccc(cc1)C)C

>  <s_sd_BIOSOLVEIT.INFINISEE\_REAGENT2\_NAME>  (1110) 
EMOL6185419

>  <s_sd_BIOSOLVEIT.INFINISEE\_REAGENT2\_SMILES>  (1110) 
O=C1Nc2c(cccc2)C(NC1)c3ccccc3

>  <s_sd_BIOSOLVEIT.INFINISEE\_SPACE>  (1110) 
eXplore_7tr_2022-12

>  <s_vsw_compound_code>  (1110) 
98178

>  <s_vsw_variant>  (1110) 
98178-4

>  <r_epik_Charging_Adjusted_Penalty>  (1110) 
0.039039712932940902

>  <r_epik_Ionization_Penalty>  (1110) 
0.039

>  <r_epik_Ionization_Penalty_Charging>  (1110) 
0

>  <r_epik_Ionization_Penalty_Neutral>  (1110) 
0.039

>  <r_epik_State_Penalty>  (1110) 
0.039

>  <r_i_docking_score>  (1110) 
-1.61421560434641

>  <r_i_glide_ecoul>  (1110) 
-0.34542798995971702

>  <r_i_glide_eff_state_penalty>  (1110) 
0.039

>  <r_i_glide_einternal>  (1110) 
2.03128957748413

>  <r_i_glide_emodel>  (1110) 
-35.892483217873703

>  <r_i_glide_energy>  (1110) 
-33.484889507293701

>  <r_i_glide_erotb>  (1110) 
0.65753515742927204

>  <r_i_glide_esite>  (1110) 
0

>  <r_i_glide_evdw>  (1110) 
-33.139461517333999

>  <r_i_glide_gscore>  (1110) 
-1.6532156043464099

>  <r_i_glide_hbond>  (1110) 
0

>  <r_i_glide_ligand_efficiency>  (1110) 
-0.055662607046427899

>  <r_i_glide_ligand_efficiency_ln>  (1110) 
-0.36961444041939501

>  <r_i_glide_ligand_efficiency_sa>  (1110) 
-0.171013163998329

>  <r_i_glide_lipo>  (1110) 
-1.41573845026259

>  <r_i_glide_metal>  (1110) 
-0

>  <r_i_glide_rewards>  (1110) 
0.81377496284756901

>  <r_lp_Energy>  (1110) 
43.117702000000001

>  <r_qp_ACxDN^.5/SA>  (1110) 
0.0067174000000000001

>  <r_qp_CIQPlogS>  (1110) 
-5.1340000000000003

>  <r_qp_EA(eV)>  (1110) 
0.28799999999999998

>  <r_qp_FISA>  (1110) 
60.194000000000003

>  <r_qp_FOSA>  (1110) 
218.55600000000001

>  <r_qp_IP(eV)>  (1110) 
8.9870000000000001

>  <r_qp_Jm>  (1110) 
0.0050182800987622501

>  <r_qp_PISA>  (1110) 
391.154

>  <r_qp_PSA>  (1110) 
38.082000000000001

>  <r_qp_PercentHumanOralAbsorption>  (1110) 
100

>  <r_qp_QPPCaco>  (1110) 
663.71500000000003

>  <r_qp_QPPMDCK>  (1110) 
351.40899999999999

>  <r_qp_QPlogBB>  (1110) 
0.151

>  <r_qp_QPlogHERG>  (1110) 
-6.7249999999999996

>  <r_qp_QPlogKhsa>  (1110) 
0.98899999999999999

>  <r_qp_QPlogKp>  (1110) 
-2.9300000000000002

>  <r_qp_QPlogPC16>  (1110) 
13.260999999999999

>  <r_qp_QPlogPo/w>  (1110) 
4.7930000000000001

>  <r_qp_QPlogPoct>  (1110) 
19.097000000000001

>  <r_qp_QPlogPw>  (1110) 
9.4160000000000004

>  <r_qp_QPlogS>  (1110) 
-4.9550000000000001

>  <r_qp_QPpolrz>  (1110) 
45.173000000000002

>  <r_qp_SASA>  (1110) 
669.904

>  <r_qp_SAamideO>  (1110) 
0

>  <r_qp_SAfluorine>  (1110) 
0

>  <r_qp_WPSA>  (1110) 
0

>  <r_qp_accptHB>  (1110) 
4.5

>  <r_qp_dip^2/V>  (1110) 
0.0169821

>  <r_qp_dipole>  (1110) 
4.6139999999999999

>  <r_qp_donorHB>  (1110) 
1

>  <r_qp_glob>  (1110) 
0.83920720000000004

>  <r_qp_mol_MW>  (1110) 
384.51999999999998

>  <r_qp_volume>  (1110) 
1253.3579999999999

>  <r_sd_BIOSOLVEIT.INFINISEE\_FTREES\_SIMILARITY>  (1110) 
0.90200000000000002

>  <r_sd_BIOSOLVEIT.LOGP>  (1110) 
3.94272

>  <r_sd_BIOSOLVEIT.MOLECULAR\_WEIGHT>  (1110) 
385.52800000000002

>  <r_sd_BIOSOLVEIT.TPSA>  (1110) 
33.539999999999999

>  <i_epik_Tot_Q>  (1110) 
0

>  <i_epik_Tot_abs_Q>  (1110) 
0

>  <i_f3d_flags>  (1110) 
0

>  <i_i_glide_confnum>  (1110) 
5

>  <i_i_glide_lignum>  (1110) 
117

>  <i_i_glide_posenum>  (1110) 
12

>  <i_i_glide_rotatable_bonds>  (1110) 
5

>  <i_lp_mmshare_version>  (1110) 
65135

>  <i_m_ct_format>  (1110) 
2

>  <i_m_source_file_index>  (1110) 
3069

>  <i_qp_#NandO>  (1110) 
3

>  <i_qp_#acid>  (1110) 
0

>  <i_qp_#amide>  (1110) 
0

>  <i_qp_#amidine>  (1110) 
0

>  <i_qp_#amine>  (1110) 
1

>  <i_qp_#in34>  (1110) 
0

>  <i_qp_#in56>  (1110) 
18

>  <i_qp_#metab>  (1110) 
8

>  <i_qp_#nonHatm>  (1110) 
29

>  <i_qp_#noncon>  (1110) 
2

>  <i_qp_#ringatoms>  (1110) 
23

>  <i_qp_#rotor>  (1110) 
4

>  <i_qp_#rtvFG>  (1110) 
0

>  <i_qp_#stars>  (1110) 
0

>  <i_qp_CNS>  (1110) 
1

>  <i_qp_HumanOralAbsorption>  (1110) 
3

>  <i_qp_RuleOfFive>  (1110) 
0

>  <i_qp_RuleOfThree>  (1110) 
1

>  <i_sd_BIOSOLVEIT.INFINISEE\_RESULT\_RANK>  (1110) 
92961

>  <i_sd_version>  (1110) 
0

>  <b_lp_Chiralities_Consistent>  (1110) 
1

>  <b_sd_chiral_flag>  (1110) 
0

>  <canonical_id>  (1110) 
ATP-HTVS-B13A57A9D1F9

>  <compound_code>  (1110) 
98178

>  <title>  (1110) 
rxn207____EMOL10224202____EMOL6185419

>  <variant>  (1110) 
98178-4

>  <source_file>  (1110) 
运行/运行/ATP-VSW/ATP-VSW-DOCK_HTVS_1-003_lib/ATP-VSW-DOCK_HTVS_1-003_lib.mae

>  <canonical_smiles>  (1110) 
Cc1ccc(CC[C@H](C)N2CC(=O)Nc3ccccc3[C@@H]2c2ccccc2)cc1

>  <scaffold>  (1110) 
O=C1CN(CCCc2ccccc2)C(c2ccccc2)c2ccccc2N1

>  <molecular_formula>  (1110) 
C26H28N2O

$$$$
ATP-HTVS-B13D85D04AEE
     RDKit          3D

 56 59  0  0  0  0  0  0  0  0999 V2000
  197.1774  184.1448  154.1995 F   0  0  0  0  0  0  0  0  0  0  0  0
  197.7514  185.0513  153.3654 C   0  0  0  0  0  0  0  0  0  0  0  0
  197.7357  184.8764  151.9545 C   0  0  0  0  0  0  0  0  0  0  0  0
  198.3468  185.8751  151.1508 C   0  0  0  0  0  0  0  0  0  0  0  0
  198.9549  187.0016  151.7372 C   0  0  0  0  0  0  0  0  0  0  0  0
  198.9641  187.1619  153.1317 C   0  0  0  0  0  0  0  0  0  0  0  0
  199.5279  188.3640  153.7281 C   0  0  0  0  0  0  0  0  0  0  0  0
  199.9677  189.3234  154.1998 N   0  0  0  0  0  0  0  0  0  0  0  0
  198.3685  186.1799  153.9465 C   0  0  0  0  0  0  0  0  0  0  0  0
  197.1289  183.6724  151.2844 C   0  0  0  0  0  0  0  0  0  0  0  0
  196.7285  183.7215  150.1161 O   0  0  0  0  0  0  0  0  0  0  0  0
  197.1245  182.5659  152.0380 N   0  0  0  0  0  0  0  0  0  0  0  0
  197.3784  181.2298  151.6226 C   0  0  0  0  0  0  0  0  0  0  0  0
  197.4230  180.8402  150.3183 N   0  0  0  0  0  0  0  0  0  0  0  0
  197.7534  179.5652  149.9896 C   0  0  0  0  0  0  0  0  0  0  0  0
  198.0686  178.6015  150.9787 C   0  0  0  0  0  0  0  0  0  0  0  0
  198.0759  179.0034  152.3233 C   0  0  0  0  0  0  0  0  0  0  0  0
  197.7134  180.3112  152.6580 C   0  0  0  0  0  0  0  0  0  0  0  0
  197.7269  180.6965  154.0640 C   0  0  0  0  0  0  0  0  0  0  0  0
  197.7217  181.0719  155.2209 C   0  0  0  0  0  0  0  0  0  0  0  0
  197.7077  181.6228  156.5840 C   0  0  1  0  0  0  0  0  0  0  0  0
  196.2902  181.7157  156.9876 N   0  0  1  0  0  0  0  0  0  0  0  0
  196.0420  182.1207  158.3846 C   0  0  1  0  0  0  0  0  0  0  0  0
  196.6279  183.4991  158.6938 C   0  0  0  0  0  0  0  0  0  0  0  0
  195.8704  184.6806  158.5444 C   0  0  0  0  0  0  0  0  0  0  0  0
  196.4334  185.9375  158.8077 C   0  0  0  0  0  0  0  0  0  0  0  0
  195.6808  187.0496  158.6678 F   0  0  0  0  0  0  0  0  0  0  0  0
  197.7817  186.0379  159.2041 C   0  0  0  0  0  0  0  0  0  0  0  0
  198.5557  184.8695  159.3364 C   0  0  0  0  0  0  0  0  0  0  0  0
  197.9825  183.6052  159.1109 C   0  0  0  0  0  0  0  0  0  0  0  0
  194.5420  182.0083  158.6953 C   0  0  2  0  0  0  0  0  0  0  0  0
  198.3580  177.2614  150.6271 C   0  0  0  0  0  0  0  0  0  0  0  0
  198.3485  176.8684  149.2770 C   0  0  0  0  0  0  0  0  0  0  0  0
  198.0664  177.8189  148.2838 C   0  0  0  0  0  0  0  0  0  0  0  0
  197.7799  179.1519  148.6434 C   0  0  0  0  0  0  0  0  0  0  0  0
  195.7540  182.2912  156.3568 H   0  0  0  0  0  0  0  0  0  0  0  0
  198.3442  185.7816  150.0762 H   0  0  0  0  0  0  0  0  0  0  0  0
  199.3937  187.7652  151.1076 H   0  0  0  0  0  0  0  0  0  0  0  0
  198.3474  186.3084  155.0147 H   0  0  0  0  0  0  0  0  0  0  0  0
  197.3199  182.7342  153.0176 H   0  0  0  0  0  0  0  0  0  0  0  0
  198.3564  178.3046  153.0944 H   0  0  0  0  0  0  0  0  0  0  0  0
  198.2722  180.9633  157.2459 H   0  0  0  0  0  0  0  0  0  0  0  0
  198.1935  182.5996  156.5465 H   0  0  0  0  0  0  0  0  0  0  0  0
  196.5618  181.3906  159.0149 H   0  0  0  0  0  0  0  0  0  0  0  0
  194.8368  184.6667  158.2125 H   0  0  0  0  0  0  0  0  0  0  0  0
  198.2074  187.0098  159.3997 H   0  0  0  0  0  0  0  0  0  0  0  0
  199.5922  184.9449  159.6337 H   0  0  0  0  0  0  0  0  0  0  0  0
  198.5848  182.7183  159.2265 H   0  0  0  0  0  0  0  0  0  0  0  0
  194.3471  182.3062  159.7237 H   0  0  0  0  0  0  0  0  0  0  0  0
  194.1721  180.9793  158.5723 H   0  0  0  0  0  0  0  0  0  0  0  0
  193.9307  182.6261  158.0418 H   0  0  0  0  0  0  0  0  0  0  0  0
  198.5732  176.5201  151.3879 H   0  0  0  0  0  0  0  0  0  0  0  0
  198.5690  175.8463  148.9988 H   0  0  0  0  0  0  0  0  0  0  0  0
  198.0699  177.5337  147.2420 H   0  0  0  0  0  0  0  0  0  0  0  0
  197.5705  179.8588  147.8607 H   0  0  0  0  0  0  0  0  0  0  0  0
  195.9295  180.7672  156.9546 H   0  0  0  0  0  0  0  0  0  0  0  0
  1  2  1  0
  2  3  2  0
  2  9  1  0
  3  4  1  0
  3 10  1  0
  4  5  2  0
  4 37  1  0
  5  6  1  0
  5 38  1  0
  6  7  1  0
  6  9  2  0
  7  8  3  0
  9 39  1  0
 10 11  2  0
 10 12  1  0
 12 13  1  0
 12 40  1  0
 13 14  2  0
 13 18  1  0
 14 15  1  0
 15 16  1  0
 15 35  2  0
 16 17  1  0
 16 32  2  0
 17 18  2  0
 17 41  1  0
 18 19  1  0
 19 20  3  0
 20 21  1  0
 21 22  1  0
 21 42  1  1
 21 43  1  0
 22 23  1  0
 22 36  1  6
 22 56  1  0
 23 24  1  0
 23 31  1  0
 23 44  1  1
 24 25  1  0
 24 30  2  0
 25 26  2  0
 25 45  1  0
 26 27  1  0
 26 28  1  0
 28 29  2  0
 28 46  1  0
 29 30  1  0
 29 47  1  0
 30 48  1  0
 31 49  1  1
 31 50  1  0
 31 51  1  0
 32 33  1  0
 32 52  1  0
 33 34  2  0
 33 53  1  0
 34 35  1  0
 34 54  1  0
 35 55  1  0
M  CHG  1  22   1
M  END
>  <s_epik_cmdline>  (1111) 
J2VwaWtfcHl0aG9uJywgJy1waCcsICc3LjAwMDAwMCcsICctcGh0JywgJzIuMDAwMDAwJywgJy1tcycsICcxNicsICctdG4nLCAnOCcsICctbWEnLCAnMjAwJywgJy1pbWFlJywgJzxpbmZpbGUubWFlPicsICctb21hZScsICc8b3V0ZmlsZS5tYWU+Jw==

>  <s_epik_input>  (1111) 
TiNDYyhbY0hdMSlbY0hdW2NIXWMoYzFGKUMoPU8pW05IXWMobjIpYyhbY0hdYyhjMjMpW2NIXVtjSF1bY0hdW2NIXTMpQyNDW0NIMl1bTkhdW0NASF0oW0NIM10pYzRbY0hdYyhGKVtjSF1bY0hdW2NIXTQ=

>  <s_i_glide_gridfile>  (1111) 
ATP-Grid

>  <s_lp_Force_Field>  (1111) 
OPLS_2005

>  <s_lp_Variant>  (1111) 
rxn503b____EMOL892106____EMOL44466703____EMOL317509042-3

>  <s_lp_label>  (1111) 
3062_sdstereoexpander_1_neutralizer_1_epik_2_stereoizer_1

>  <s_m_source_file>  (1111) 
ATP-VSW-LIGPREP-001-in.maegz

>  <s_sd_BIOSOLVEIT.INFINISEE\_QUERY\_NAME>  (1111) 
Ref-Lig

>  <s_sd_BIOSOLVEIT.INFINISEE\_QUERY\_SMILES>  (1111) 
S(c1nc2c(cc1C[NH2+]Cc3ccc(cc3)C[NH+](C)C)cccc2)Cc4ccccc4

>  <s_sd_BIOSOLVEIT.INFINISEE\_REACTION\_NAME>  (1111) 
rxn503b

>  <s_sd_BIOSOLVEIT.INFINISEE\_REAGENT1\_NAME>  (1111) 
EMOL892106

>  <s_sd_BIOSOLVEIT.INFINISEE\_REAGENT1\_SMILES>  (1111) 
Fc1c(ccc(C#N)c1)C(=O)O

>  <s_sd_BIOSOLVEIT.INFINISEE\_REAGENT2\_NAME>  (1111) 
EMOL44466703

>  <s_sd_BIOSOLVEIT.INFINISEE\_REAGENT2\_SMILES>  (1111) 
Brc1c(nc2c(c1)cccc2)N

>  <s_sd_BIOSOLVEIT.INFINISEE\_REAGENT3\_NAME>  (1111) 
EMOL317509042

>  <s_sd_BIOSOLVEIT.INFINISEE\_REAGENT3\_SMILES>  (1111) 
Fc1cc(ccc1)C(NCC#C)C

>  <s_sd_BIOSOLVEIT.INFINISEE\_SPACE>  (1111) 
eXplore_7tr_2022-12

>  <s_vsw_compound_code>  (1111) 
97953

>  <s_vsw_variant>  (1111) 
97953-3

>  <r_epik_Charging_Adjusted_Penalty>  (1111) 
1.2551631875810201

>  <r_epik_Ionization_Penalty>  (1111) 
0.62949999999999995

>  <r_epik_Ionization_Penalty_Charging>  (1111) 
0.62760000000000005

>  <r_epik_Ionization_Penalty_Neutral>  (1111) 
0.0019

>  <r_epik_State_Penalty>  (1111) 
0.62760000000000005

>  <r_i_docking_score>  (1111) 
-4.9630850929314798

>  <r_i_glide_ecoul>  (1111) 
-9.8746452331543004

>  <r_i_glide_eff_state_penalty>  (1111) 
0.62760000000000005

>  <r_i_glide_einternal>  (1111) 
11.2678623199463

>  <r_i_glide_emodel>  (1111) 
-66.801205504058501

>  <r_i_glide_energy>  (1111) 
-48.552764892578097

>  <r_i_glide_erotb>  (1111) 
0.646449634170433

>  <r_i_glide_esite>  (1111) 
-0.13597053369981199

>  <r_i_glide_evdw>  (1111) 
-38.6781196594238

>  <r_i_glide_gscore>  (1111) 
-5.59068509293148

>  <r_i_glide_hbond>  (1111) 
-0.252369065183282

>  <r_i_glide_ligand_efficiency>  (1111) 
-0.14180243122661401

>  <r_i_glide_ligand_efficiency_ln>  (1111) 
-1.0895073276373901

>  <r_i_glide_ligand_efficiency_sa>  (1111) 
-0.46384515493849998

>  <r_i_glide_lipo>  (1111) 
-1.6817488965145699

>  <r_i_glide_metal>  (1111) 
-0

>  <r_i_glide_rewards>  (1111) 
-0.75194346375991195

>  <r_lp_Energy>  (1111) 
24.897365000000001

>  <r_qp_ACxDN^.5/SA>  (1111) 
0.0122174

>  <r_qp_CIQPlogS>  (1111) 
-7.3070000000000004

>  <r_qp_EA(eV)>  (1111) 
1.298

>  <r_qp_FISA>  (1111) 
124.884

>  <r_qp_FOSA>  (1111) 
122.711

>  <r_qp_IP(eV)>  (1111) 
8.8149999999999995

>  <r_qp_Jm>  (1111) 
7.3593118641213998e-05

>  <r_qp_PISA>  (1111) 
441.78500000000003

>  <r_qp_PSA>  (1111) 
83.132000000000005

>  <r_qp_PercentHumanOralAbsorption>  (1111) 
93.489999999999995

>  <r_qp_QPPCaco>  (1111) 
161.63300000000001

>  <r_qp_QPPMDCK>  (1111) 
169.03399999999999

>  <r_qp_QPlogBB>  (1111) 
-0.64400000000000002

>  <r_qp_QPlogHERG>  (1111) 
-7.4900000000000002

>  <r_qp_QPlogKhsa>  (1111) 
0.78300000000000003

>  <r_qp_QPlogKp>  (1111) 
-3.5590000000000002

>  <r_qp_QPlogPC16>  (1111) 
15.339

>  <r_qp_QPlogPo/w>  (1111) 
4.6139999999999999

>  <r_qp_QPlogPoct>  (1111) 
23.754999999999999

>  <r_qp_QPlogPw>  (1111) 
12.973000000000001

>  <r_qp_QPlogS>  (1111) 
-6.2430000000000003

>  <r_qp_QPpolrz>  (1111) 
49.215000000000003

>  <r_qp_SASA>  (1111) 
752.40099999999995

>  <r_qp_SAamideO>  (1111) 
0

>  <r_qp_SAfluorine>  (1111) 
63.021000000000001

>  <r_qp_WPSA>  (1111) 
63.021000000000001

>  <r_qp_accptHB>  (1111) 
6.5

>  <r_qp_dip^2/V>  (1111) 
0.031982299999999998

>  <r_qp_dipole>  (1111) 
6.7069999999999999

>  <r_qp_donorHB>  (1111) 
2

>  <r_qp_glob>  (1111) 
0.80686880000000005

>  <r_qp_mol_MW>  (1111) 
466.48899999999998

>  <r_qp_volume>  (1111) 
1406.471

>  <r_sd_BIOSOLVEIT.INFINISEE\_FTREES\_SIMILARITY>  (1111) 
0.90200000000000002

>  <r_sd_BIOSOLVEIT.LOGP>  (1111) 
4.3130800000000002

>  <r_sd_BIOSOLVEIT.MOLECULAR\_WEIGHT>  (1111) 
467.49700000000001

>  <r_sd_BIOSOLVEIT.TPSA>  (1111) 
82.390000000000001

>  <i_epik_Tot_Q>  (1111) 
1

>  <i_epik_Tot_abs_Q>  (1111) 
1

>  <i_f3d_flags>  (1111) 
0

>  <i_i_glide_confnum>  (1111) 
7

>  <i_i_glide_lignum>  (1111) 
34

>  <i_i_glide_posenum>  (1111) 
9

>  <i_i_glide_rotatable_bonds>  (1111) 
8

>  <i_lp_mmshare_version>  (1111) 
65135

>  <i_m_ct_format>  (1111) 
2

>  <i_m_source_file_index>  (1111) 
3062

>  <i_qp_#NandO>  (1111) 
5

>  <i_qp_#acid>  (1111) 
0

>  <i_qp_#amide>  (1111) 
0

>  <i_qp_#amidine>  (1111) 
0

>  <i_qp_#amine>  (1111) 
1

>  <i_qp_#in34>  (1111) 
0

>  <i_qp_#in56>  (1111) 
22

>  <i_qp_#metab>  (1111) 
4

>  <i_qp_#nonHatm>  (1111) 
35

>  <i_qp_#noncon>  (1111) 
0

>  <i_qp_#ringatoms>  (1111) 
22

>  <i_qp_#rotor>  (1111) 
8

>  <i_qp_#rtvFG>  (1111) 
0

>  <i_qp_#stars>  (1111) 
0

>  <i_qp_CNS>  (1111) 
1

>  <i_qp_HumanOralAbsorption>  (1111) 
1

>  <i_qp_RuleOfFive>  (1111) 
0

>  <i_qp_RuleOfThree>  (1111) 
1

>  <i_sd_BIOSOLVEIT.INFINISEE\_RESULT\_RANK>  (1111) 
91954

>  <i_sd_version>  (1111) 
0

>  <b_lp_Chiralities_Consistent>  (1111) 
1

>  <b_sd_chiral_flag>  (1111) 
0

>  <canonical_id>  (1111) 
ATP-HTVS-B13D85D04AEE

>  <compound_code>  (1111) 
97953

>  <title>  (1111) 
rxn503b____EMOL892106____EMOL44466703____EMOL317509042

>  <variant>  (1111) 
97953-3

>  <source_file>  (1111) 
运行/运行/ATP-VSW/ATP-VSW-DOCK_HTVS_1-002_lib.maegz

>  <canonical_smiles>  (1111) 
C[C@@H]([NH2+]CC#Cc1cc2ccccc2nc1NC(=O)c1ccc(C#N)cc1F)c1cccc(F)c1

>  <scaffold>  (1111) 
O=C(Nc1nc2ccccc2cc1C#CC[NH2+]Cc1ccccc1)c1ccccc1

>  <molecular_formula>  (1111) 
C28H21F2N4O+

$$$$
ATP-HTVS-B16CEB425A58
     RDKit          3D

 52 55  0  0  0  0  0  0  0  0999 V2000
  199.6836  190.8061  157.2222 Cl  0  0  0  0  0  0  0  0  0  0  0  0
  198.7652  189.3470  157.0025 C   0  0  0  0  0  0  0  0  0  0  0  0
  199.0634  188.4986  155.9193 C   0  0  0  0  0  0  0  0  0  0  0  0
  200.0227  188.8474  155.0382 F   0  0  0  0  0  0  0  0  0  0  0  0
  198.3268  187.2875  155.7770 C   0  0  0  0  0  0  0  0  0  0  0  0
  197.2865  186.9974  156.6729 C   0  0  0  0  0  0  0  0  0  0  0  0
  196.9442  187.8830  157.7216 C   0  0  0  0  0  0  0  0  0  0  0  0
  197.7471  189.0388  157.8981 C   0  0  0  0  0  0  0  0  0  0  0  0
  198.6039  186.3578  154.6104 C   0  0  0  0  0  0  0  0  0  0  0  0
  199.0474  186.7932  153.5556 O   0  0  0  0  0  0  0  0  0  0  0  0
  198.3065  185.0533  154.8369 N   0  0  0  0  0  0  0  0  0  0  0  0
  198.2522  183.9884  153.8907 C   0  0  0  0  0  0  0  0  0  0  0  0
  197.5002  182.8120  154.1812 C   0  0  0  0  0  0  0  0  0  0  0  0
  196.7917  182.6936  155.4604 C   0  0  0  0  0  0  0  0  0  0  0  0
  196.2176  182.6214  156.5308 C   0  0  0  0  0  0  0  0  0  0  0  0
  195.5329  182.5997  157.8346 C   0  0  1  0  0  0  0  0  0  0  0  0
  194.6260  181.4370  157.8125 N   0  0  2  0  0  0  0  0  0  0  0  0
  196.5012  182.5585  159.0259 C   0  0  1  0  0  0  0  0  0  0  0  0
  197.4124  183.7880  159.1603 C   0  0  0  0  0  0  0  0  0  0  0  0
  198.7871  183.6735  158.8655 C   0  0  0  0  0  0  0  0  0  0  0  0
  199.6054  184.8145  158.9788 C   0  0  0  0  0  0  0  0  0  0  0  0
  200.9378  184.7229  158.6689 F   0  0  0  0  0  0  0  0  0  0  0  0
  199.0637  186.0404  159.3739 C   0  0  0  0  0  0  0  0  0  0  0  0
  197.7014  186.1414  159.7390 C   0  0  0  0  0  0  0  0  0  0  0  0
  196.8692  185.0121  159.5697 C   0  0  0  0  0  0  0  0  0  0  0  0
  197.4676  181.7632  153.2151 C   0  0  0  0  0  0  0  0  0  0  0  0
  198.2007  181.9364  152.0057 C   0  0  0  0  0  0  0  0  0  0  0  0
  198.9181  183.0425  151.7499 N   0  0  0  0  0  0  0  0  0  0  0  0
  198.9474  184.0267  152.6635 C   0  0  0  0  0  0  0  0  0  0  0  0
  198.1974  180.9110  151.0408 C   0  0  0  0  0  0  0  0  0  0  0  0
  197.4798  179.7231  151.2458 C   0  0  0  0  0  0  0  0  0  0  0  0
  196.7477  179.5528  152.4334 C   0  0  0  0  0  0  0  0  0  0  0  0
  196.7468  180.5614  153.4158 C   0  0  0  0  0  0  0  0  0  0  0  0
  194.0056  181.5731  157.0220 H   0  0  0  0  0  0  0  0  0  0  0  0
  194.1005  181.3974  158.6595 H   0  0  0  0  0  0  0  0  0  0  0  0
  196.7131  186.0727  156.6057 H   0  0  0  0  0  0  0  0  0  0  0  0
  196.1431  187.6586  158.4136 H   0  0  0  0  0  0  0  0  0  0  0  0
  197.5573  189.6624  158.7612 H   0  0  0  0  0  0  0  0  0  0  0  0
  197.9509  184.8365  155.7536 H   0  0  0  0  0  0  0  0  0  0  0  0
  194.9062  183.5022  157.8838 H   0  0  0  0  0  0  0  0  0  0  0  0
  195.9434  182.4841  159.9533 H   0  0  0  0  0  0  0  0  0  0  0  0
  197.1156  181.6704  158.9427 H   0  0  0  0  0  0  0  0  0  0  0  0
  199.2161  182.7375  158.5679 H   0  0  0  0  0  0  0  0  0  0  0  0
  199.6912  186.9183  159.4565 H   0  0  0  0  0  0  0  0  0  0  0  0
  197.2851  187.0648  160.1200 H   0  0  0  0  0  0  0  0  0  0  0  0
  195.8077  185.1209  159.7758 H   0  0  0  0  0  0  0  0  0  0  0  0
  199.5737  184.8573  152.3778 H   0  0  0  0  0  0  0  0  0  0  0  0
  198.7664  181.0462  150.1336 H   0  0  0  0  0  0  0  0  0  0  0  0
  197.4965  178.9460  150.4966 H   0  0  0  0  0  0  0  0  0  0  0  0
  196.1929  178.6444  152.5926 H   0  0  0  0  0  0  0  0  0  0  0  0
  196.1795  180.3884  154.3180 H   0  0  0  0  0  0  0  0  0  0  0  0
  195.1255  180.5105  157.7100 H   0  0  0  0  0  0  0  0  0  0  0  0
  1  2  1  0
  2  3  2  0
  2  8  1  0
  3  4  1  0
  3  5  1  0
  5  6  2  0
  5  9  1  0
  6  7  1  0
  6 36  1  0
  7  8  2  0
  7 37  1  0
  8 38  1  0
  9 10  2  0
  9 11  1  0
 11 12  1  0
 11 39  1  0
 12 13  2  0
 12 29  1  0
 13 14  1  0
 13 26  1  0
 14 15  3  0
 15 16  1  0
 16 17  1  0
 16 18  1  0
 16 40  1  1
 17 34  1  6
 17 35  1  0
 17 52  1  0
 18 19  1  0
 18 41  1  1
 18 42  1  0
 19 20  1  0
 19 25  2  0
 20 21  2  0
 20 43  1  0
 21 22  1  0
 21 23  1  0
 23 24  2  0
 23 44  1  0
 24 25  1  0
 24 45  1  0
 25 46  1  0
 26 27  1  0
 26 33  2  0
 27 28  1  0
 27 30  2  0
 28 29  2  0
 29 47  1  0
 30 31  1  0
 30 48  1  0
 31 32  2  0
 31 49  1  0
 32 33  1  0
 32 50  1  0
 33 51  1  0
M  CHG  1  17   1
M  END
>  <s_epik_cmdline>  (1112) 
J2VwaWtfcHl0aG9uJywgJy1waCcsICc3LjAwMDAwMCcsICctcGh0JywgJzIuMDAwMDAwJywgJy1tcycsICcxNicsICctdG4nLCAnOCcsICctbWEnLCAnMjAwJywgJy1pbWFlJywgJzxpbmZpbGUubWFlPicsICctb21hZScsICc8b3V0ZmlsZS5tYWU+Jw==

>  <s_epik_input>  (1112) 
W2NIXTFbY0hdW2NIXVtjSF1jKGMxMiluW2NIXWMoW05IXUMoPU8pYyhjKEYpYzNDbClbY0hdW2NIXVtjSF0zKWMyQyNDW0NAQEhdKFtOSDJdKVtDSDJdYzRbY0hdYyhGKVtjSF1bY0hdW2NIXTQ=

>  <s_i_glide_gridfile>  (1112) 
ATP-Grid

>  <s_lp_Force_Field>  (1112) 
OPLS_2005

>  <s_lp_Variant>  (1112) 
rxn503b____EMOL518545____EMOL30488121____EMOL313110234-4

>  <s_lp_label>  (1112) 
2954_sdstereoexpander_2_neutralizer_1_epik_2_stereoizer_1

>  <s_m_source_file>  (1112) 
ATP-VSW-LIGPREP-001-in.maegz

>  <s_sd_BIOSOLVEIT.INFINISEE\_QUERY\_NAME>  (1112) 
Ref-Lig

>  <s_sd_BIOSOLVEIT.INFINISEE\_QUERY\_SMILES>  (1112) 
S(c1nc2c(cc1C[NH2+]Cc3ccc(cc3)C[NH+](C)C)cccc2)Cc4ccccc4

>  <s_sd_BIOSOLVEIT.INFINISEE\_REACTION\_NAME>  (1112) 
rxn503b

>  <s_sd_BIOSOLVEIT.INFINISEE\_REAGENT1\_NAME>  (1112) 
EMOL518545

>  <s_sd_BIOSOLVEIT.INFINISEE\_REAGENT1\_SMILES>  (1112) 
Clc1c(F)c(ccc1)C(=O)O

>  <s_sd_BIOSOLVEIT.INFINISEE\_REAGENT2\_NAME>  (1112) 
EMOL30488121

>  <s_sd_BIOSOLVEIT.INFINISEE\_REAGENT2\_SMILES>  (1112) 
Brc1c(N)cnc2c1cccc2

>  <s_sd_BIOSOLVEIT.INFINISEE\_REAGENT3\_NAME>  (1112) 
EMOL313110234

>  <s_sd_BIOSOLVEIT.INFINISEE\_REAGENT3\_SMILES>  (1112) 
Fc1cc(ccc1)CC(N)C#C

>  <s_sd_BIOSOLVEIT.INFINISEE\_SPACE>  (1112) 
eXplore_7tr_2022-12

>  <s_vsw_compound_code>  (1112) 
94497

>  <s_vsw_variant>  (1112) 
94497-4

>  <r_epik_Charging_Adjusted_Penalty>  (1112) 
1.22591159016581

>  <r_epik_Ionization_Penalty>  (1112) 
0.61329999999999996

>  <r_epik_Ionization_Penalty_Charging>  (1112) 
0.61299999999999999

>  <r_epik_Ionization_Penalty_Neutral>  (1112) 
0.00029999999999999997

>  <r_epik_State_Penalty>  (1112) 
0.61299999999999999

>  <r_i_docking_score>  (1112) 
-5.1509778939505901

>  <r_i_glide_ecoul>  (1112) 
-13.3987264633179

>  <r_i_glide_eff_state_penalty>  (1112) 
0.61299999999999999

>  <r_i_glide_einternal>  (1112) 
4.0477800369262704

>  <r_i_glide_emodel>  (1112) 
-62.813831949006001

>  <r_i_glide_energy>  (1112) 
-41.812558174133301

>  <r_i_glide_erotb>  (1112) 
0.394911928453065

>  <r_i_glide_esite>  (1112) 
-0.107749042160511

>  <r_i_glide_evdw>  (1112) 
-28.413831710815401

>  <r_i_glide_gscore>  (1112) 
-5.7639778939506003

>  <r_i_glide_hbond>  (1112) 
-0.34458551858415898

>  <r_i_glide_ligand_efficiency>  (1112) 
-0.15609023921062401

>  <r_i_glide_ligand_efficiency_ln>  (1112) 
-1.14555081327844

>  <r_i_glide_ligand_efficiency_sa>  (1112) 
-0.50066480026181104

>  <r_i_glide_lipo>  (1112) 
-1.4539614283983899

>  <r_i_glide_metal>  (1112) 
-0

>  <r_i_glide_rewards>  (1112) 
-0.82209327822214595

>  <r_lp_Energy>  (1112) 
30.441552999999999

>  <r_qp_ACxDN^.5/SA>  (1112) 
0.0111465

>  <r_qp_CIQPlogS>  (1112) 
-6.8609999999999998

>  <r_qp_EA(eV)>  (1112) 
1.2549999999999999

>  <r_qp_FISA>  (1112) 
110.024

>  <r_qp_FOSA>  (1112) 
53.454000000000001

>  <r_qp_IP(eV)>  (1112) 
8.7159999999999993

>  <r_qp_Jm>  (1112) 
0.00069208347798968897

>  <r_qp_PISA>  (1112) 
394.70499999999998

>  <r_qp_PSA>  (1112) 
72.212000000000003

>  <r_qp_PercentHumanOralAbsorption>  (1112) 
100

>  <r_qp_QPPCaco>  (1112) 
223.584

>  <r_qp_QPPMDCK>  (1112) 
642.42499999999995

>  <r_qp_QPlogBB>  (1112) 
-0.17899999999999999

>  <r_qp_QPlogHERG>  (1112) 
-6.8959999999999999

>  <r_qp_QPlogKhsa>  (1112) 
0.85999999999999999

>  <r_qp_QPlogKp>  (1112) 
-3.5470000000000002

>  <r_qp_QPlogPC16>  (1112) 
14.657

>  <r_qp_QPlogPo/w>  (1112) 
4.9829999999999997

>  <r_qp_QPlogPoct>  (1112) 
24.212

>  <r_qp_QPlogPw>  (1112) 
12.167

>  <r_qp_QPlogS>  (1112) 
-5.2770000000000001

>  <r_qp_QPpolrz>  (1112) 
45.706000000000003

>  <r_qp_SASA>  (1112) 
699.25099999999998

>  <r_qp_SAamideO>  (1112) 
0

>  <r_qp_SAfluorine>  (1112) 
72.722999999999999

>  <r_qp_WPSA>  (1112) 
141.06800000000001

>  <r_qp_accptHB>  (1112) 
4.5

>  <r_qp_dip^2/V>  (1112) 
0.103215

>  <r_qp_dipole>  (1112) 
11.646000000000001

>  <r_qp_donorHB>  (1112) 
3

>  <r_qp_glob>  (1112) 
0.82969959999999998

>  <r_qp_mol_MW>  (1112) 
461.89699999999999

>  <r_qp_volume>  (1112) 
1313.9649999999999

>  <r_sd_BIOSOLVEIT.INFINISEE\_FTREES\_SIMILARITY>  (1112) 
0.90300000000000002

>  <r_sd_BIOSOLVEIT.LOGP>  (1112) 
4.6234000000000002

>  <r_sd_BIOSOLVEIT.MOLECULAR\_WEIGHT>  (1112) 
462.90499999999997

>  <r_sd_BIOSOLVEIT.TPSA>  (1112) 
69.629999999999995

>  <i_epik_Tot_Q>  (1112) 
1

>  <i_epik_Tot_abs_Q>  (1112) 
1

>  <i_f3d_flags>  (1112) 
0

>  <i_i_glide_confnum>  (1112) 
4

>  <i_i_glide_lignum>  (1112) 
1399

>  <i_i_glide_posenum>  (1112) 
19

>  <i_i_glide_rotatable_bonds>  (1112) 
7

>  <i_lp_mmshare_version>  (1112) 
65135

>  <i_m_ct_format>  (1112) 
2

>  <i_m_source_file_index>  (1112) 
2954

>  <i_qp_#NandO>  (1112) 
4

>  <i_qp_#acid>  (1112) 
0

>  <i_qp_#amide>  (1112) 
0

>  <i_qp_#amidine>  (1112) 
0

>  <i_qp_#amine>  (1112) 
1

>  <i_qp_#in34>  (1112) 
0

>  <i_qp_#in56>  (1112) 
22

>  <i_qp_#metab>  (1112) 
5

>  <i_qp_#nonHatm>  (1112) 
33

>  <i_qp_#noncon>  (1112) 
0

>  <i_qp_#ringatoms>  (1112) 
22

>  <i_qp_#rotor>  (1112) 
7

>  <i_qp_#rtvFG>  (1112) 
0

>  <i_qp_#stars>  (1112) 
0

>  <i_qp_CNS>  (1112) 
0

>  <i_qp_HumanOralAbsorption>  (1112) 
3

>  <i_qp_RuleOfFive>  (1112) 
0

>  <i_qp_RuleOfThree>  (1112) 
0

>  <i_sd_BIOSOLVEIT.INFINISEE\_RESULT\_RANK>  (1112) 
80473

>  <i_sd_version>  (1112) 
0

>  <b_lp_Chiralities_Consistent>  (1112) 
1

>  <b_sd_chiral_flag>  (1112) 
0

>  <canonical_id>  (1112) 
ATP-HTVS-B16CEB425A58

>  <compound_code>  (1112) 
94497

>  <title>  (1112) 
rxn503b____EMOL518545____EMOL30488121____EMOL313110234

>  <variant>  (1112) 
94497-4

>  <source_file>  (1112) 
运行/运行/ATP-VSW/ATP-VSW-DOCK_HTVS_1-001_lib/ATP-VSW-DOCK_HTVS_1-001_lib

>  <canonical_smiles>  (1112) 
[NH3+][C@H](C#Cc1c(NC(=O)c2cccc(Cl)c2F)cnc2ccccc12)Cc1cccc(F)c1

>  <scaffold>  (1112) 
O=C(Nc1cnc2ccccc2c1C#CCCc1ccccc1)c1ccccc1

>  <molecular_formula>  (1112) 
C26H19ClF2N3O+

$$$$
ATP-HTVS-B1D0FF1C8AAB
     RDKit          3D

 61 64  0  0  0  0  0  0  0  0999 V2000
  197.1591  184.8595  149.5956 Cl  0  0  0  0  0  0  0  0  0  0  0  0
  197.6314  183.9149  150.9655 C   0  0  0  0  0  0  0  0  0  0  0  0
  196.7832  183.8392  152.0842 C   0  0  0  0  0  0  0  0  0  0  0  0
  197.1581  183.0992  153.2133 C   0  0  0  0  0  0  0  0  0  0  0  0
  198.3687  182.3616  153.2360 C   0  0  0  0  0  0  0  0  0  0  0  0
  199.2197  182.4396  152.1037 C   0  0  0  0  0  0  0  0  0  0  0  0
  198.8594  183.2190  150.9791 C   0  0  0  0  0  0  0  0  0  0  0  0
  198.7286  181.5220  154.3957 C   0  0  0  0  0  0  0  0  0  0  0  0
  200.0061  181.2812  154.6536 N   0  0  0  0  0  0  0  0  0  0  0  0
  200.0160  180.5004  155.7548 N   0  0  0  0  0  0  0  0  0  0  0  0
  198.7410  180.2225  156.1889 C   0  0  0  0  0  0  0  0  0  0  0  0
  197.8770  180.8673  155.3481 C   0  0  0  0  0  0  0  0  0  0  0  0
  196.3752  180.8830  155.4347 C   0  0  1  0  0  0  0  0  0  0  0  0
  195.9495  182.0067  156.3014 N   0  0  1  0  0  0  0  0  0  0  0  0
  195.9390  181.7300  157.7503 C   0  0  1  0  0  0  0  0  0  0  0  0
  195.7961  182.9877  158.5634 C   0  0  0  0  0  0  0  0  0  0  0  0
  196.9478  183.6821  158.9749 C   0  0  0  0  0  0  0  0  0  0  0  0
  196.8266  184.8308  159.7720 C   0  0  0  0  0  0  0  0  0  0  0  0
  195.5482  185.3138  160.1371 C   0  0  0  0  0  0  0  0  0  0  0  0
  194.3988  184.6114  159.7231 C   0  0  0  0  0  0  0  0  0  0  0  0
  194.5189  183.4514  158.9378 C   0  0  0  0  0  0  0  0  0  0  0  0
  195.4076  186.6055  160.9340 C   0  0  1  0  0  0  0  0  0  0  0  0
  196.3633  187.6650  160.5930 N   0  0  0  0  0  0  0  0  0  0  0  0
  196.7334  188.0541  159.3617 C   0  0  0  0  0  0  0  0  0  0  0  0
  196.3046  187.5569  158.3237 O   0  0  0  0  0  0  0  0  0  0  0  0
  197.7496  189.1897  159.2846 C   0  0  2  0  0  0  0  0  0  0  0  0
  201.2721  180.0582  156.3259 C   0  0  1  0  0  0  0  0  0  0  0  0
  201.5363  178.6067  155.9752 C   0  0  0  0  0  0  0  0  0  0  0  0
  202.1844  178.2794  154.7656 C   0  0  0  0  0  0  0  0  0  0  0  0
  202.4386  176.9325  154.4421 C   0  0  0  0  0  0  0  0  0  0  0  0
  202.0461  175.9094  155.3268 C   0  0  0  0  0  0  0  0  0  0  0  0
  201.3988  176.2349  156.5341 C   0  0  0  0  0  0  0  0  0  0  0  0
  201.1375  177.5800  156.8564 C   0  0  0  0  0  0  0  0  0  0  0  0
  196.5431  182.7973  156.1302 H   0  0  0  0  0  0  0  0  0  0  0  0
  195.8389  184.3573  152.1041 H   0  0  0  0  0  0  0  0  0  0  0  0
  196.4750  183.1268  154.0454 H   0  0  0  0  0  0  0  0  0  0  0  0
  200.1594  181.8990  152.0889 H   0  0  0  0  0  0  0  0  0  0  0  0
  199.5234  183.2747  150.1256 H   0  0  0  0  0  0  0  0  0  0  0  0
  198.5457  179.5972  157.0485 H   0  0  0  0  0  0  0  0  0  0  0  0
  195.9432  181.0263  154.4479 H   0  0  0  0  0  0  0  0  0  0  0  0
  195.9552  179.9171  155.7347 H   0  0  0  0  0  0  0  0  0  0  0  0
  195.0989  181.0762  157.9683 H   0  0  0  0  0  0  0  0  0  0  0  0
  196.8624  181.2291  158.0438 H   0  0  0  0  0  0  0  0  0  0  0  0
  197.9263  183.3507  158.6634 H   0  0  0  0  0  0  0  0  0  0  0  0
  197.7195  185.3523  160.0725 H   0  0  0  0  0  0  0  0  0  0  0  0
  193.4176  184.9779  159.9982 H   0  0  0  0  0  0  0  0  0  0  0  0
  193.6268  182.9385  158.6035 H   0  0  0  0  0  0  0  0  0  0  0  0
  194.3909  187.0030  160.8430 H   0  0  0  0  0  0  0  0  0  0  0  0
  195.5341  186.3667  161.9892 H   0  0  0  0  0  0  0  0  0  0  0  0
  196.7639  188.1598  161.3746 H   0  0  0  0  0  0  0  0  0  0  0  0
  198.5835  189.0253  159.9689 H   0  0  0  0  0  0  0  0  0  0  0  0
  197.2650  190.1377  159.5166 H   0  0  0  0  0  0  0  0  0  0  0  0
  198.1420  189.2430  158.2700 H   0  0  0  0  0  0  0  0  0  0  0  0
  202.0832  180.6877  155.9563 H   0  0  0  0  0  0  0  0  0  0  0  0
  201.2322  180.1911  157.4074 H   0  0  0  0  0  0  0  0  0  0  0  0
  202.4916  179.0624  154.0871 H   0  0  0  0  0  0  0  0  0  0  0  0
  202.9427  176.6851  153.5200 H   0  0  0  0  0  0  0  0  0  0  0  0
  202.2457  174.8765  155.0849 H   0  0  0  0  0  0  0  0  0  0  0  0
  201.1156  175.4507  157.2196 H   0  0  0  0  0  0  0  0  0  0  0  0
  200.6386  177.8222  157.7839 H   0  0  0  0  0  0  0  0  0  0  0  0
  194.9858  182.2726  156.0458 H   0  0  0  0  0  0  0  0  0  0  0  0
  1  2  1  0
  2  3  1  0
  2  7  2  0
  3  4  2  0
  3 35  1  0
  4  5  1  0
  4 36  1  0
  5  6  2  0
  5  8  1  0
  6  7  1  0
  6 37  1  0
  7 38  1  0
  8  9  2  0
  8 12  1  0
  9 10  1  0
 10 11  1  0
 10 27  1  0
 11 12  2  0
 11 39  1  0
 12 13  1  0
 13 14  1  0
 13 40  1  6
 13 41  1  0
 14 15  1  0
 14 34  1  1
 14 61  1  0
 15 16  1  0
 15 42  1  6
 15 43  1  0
 16 17  1  0
 16 21  2  0
 17 18  2  0
 17 44  1  0
 18 19  1  0
 18 45  1  0
 19 20  2  0
 19 22  1  0
 20 21  1  0
 20 46  1  0
 21 47  1  0
 22 23  1  0
 22 48  1  1
 22 49  1  0
 23 24  1  0
 23 50  1  0
 24 25  2  0
 24 26  1  0
 26 51  1  1
 26 52  1  0
 26 53  1  0
 27 28  1  0
 27 54  1  6
 27 55  1  0
 28 29  2  0
 28 33  1  0
 29 30  1  0
 29 56  1  0
 30 31  2  0
 30 57  1  0
 31 32  1  0
 31 58  1  0
 32 33  2  0
 32 59  1  0
 33 60  1  0
M  CHG  1  14   1
M  END
>  <s_epik_cmdline>  (1113) 
J2VwaWtfcHl0aG9uJywgJy1waCcsICc3LjAwMDAwMCcsICctcGh0JywgJzIuMDAwMDAwJywgJy1tcycsICcxNicsICctdG4nLCAnOCcsICctbWEnLCAnMjAwJywgJy1pbWFlJywgJzxpbmZpbGUubWFlPicsICctb21hZScsICc8b3V0ZmlsZS5tYWU+Jw==

>  <s_epik_input>  (1113) 
Q2xjMVtjSF1bY0hdYyhbY0hdW2NIXTEpLWMybm4oW0NIMl1jM1tjSF1bY0hdW2NIXVtjSF1bY0hdMylbY0hdYzJbQ0gyXVtOSF1bQ0gyXWM0W2NIXVtjSF1jKFtjSF1bY0hdNClbQ0gyXVtOSF1DKD1PKVtDSDNd

>  <s_i_glide_gridfile>  (1113) 
ATP-Grid

>  <s_lp_Force_Field>  (1113) 
OPLS_2005

>  <s_lp_Variant>  (1113) 
m_270004bbb____11963946____7547832-1

>  <s_lp_label>  (1113) 
1465_sdstereoexpander_1_neutralizer_1_epik_1_stereoizer_1

>  <s_m_source_file>  (1113) 
ATP-VSW-LIGPREP-002-in.maegz

>  <s_sd_BIOSOLVEIT.INFINISEE\_QUERY\_NAME>  (1113) 
Ref-Lig

>  <s_sd_BIOSOLVEIT.INFINISEE\_QUERY\_SMILES>  (1113) 
S(c1nc2c(cc1C[NH2+]Cc3ccc(cc3)C[NH+](C)C)cccc2)Cc4ccccc4

>  <s_sd_BIOSOLVEIT.INFINISEE\_REACTION\_NAME>  (1113) 
m_270004bbb

>  <s_sd_BIOSOLVEIT.INFINISEE\_REAGENT1\_SMILES>  (1113) 
[R1*]NCc1ccc(cc1)CNC(=O)C

>  <s_sd_BIOSOLVEIT.INFINISEE\_REAGENT2\_SMILES>  (1113) 
[R1*]CC=1C(=NN(C1)Cc2ccccc2)c3ccc(Cl)cc3

>  <s_sd_BIOSOLVEIT.INFINISEE\_SPACE>  (1113) 
REALSpace_44bn_2023-08

>  <s_vsw_compound_code>  (1113) 
46850

>  <s_vsw_variant>  (1113) 
46850-1

>  <r_epik_Charging_Adjusted_Penalty>  (1113) 
0.17392552981294801

>  <r_epik_Ionization_Penalty>  (1113) 
0.086999999999999994

>  <r_epik_Ionization_Penalty_Charging>  (1113) 
0.086999999999999994

>  <r_epik_Ionization_Penalty_Neutral>  (1113) 
0

>  <r_epik_State_Penalty>  (1113) 
0.086999999999999994

>  <r_i_docking_score>  (1113) 
-5.6097162445389301

>  <r_i_glide_ecoul>  (1113) 
-11.7645978927612

>  <r_i_glide_eff_state_penalty>  (1113) 
0.086999999999999994

>  <r_i_glide_einternal>  (1113) 
4.2501163482665998

>  <r_i_glide_emodel>  (1113) 
-74.546653577988906

>  <r_i_glide_energy>  (1113) 
-51.324595451355002

>  <r_i_glide_erotb>  (1113) 
0.85601174868182905

>  <r_i_glide_esite>  (1113) 
-0.094778393819303294

>  <r_i_glide_evdw>  (1113) 
-39.5599975585938

>  <r_i_glide_gscore>  (1113) 
-5.6967162445389299

>  <r_i_glide_hbond>  (1113) 
-0.199004251241272

>  <r_i_glide_ligand_efficiency>  (1113) 
-0.16999140134966501

>  <r_i_glide_ligand_efficiency_ln>  (1113) 
-1.2475718472292301

>  <r_i_glide_ligand_efficiency_sa>  (1113) 
-0.54525325499765398

>  <r_i_glide_lipo>  (1113) 
-2.0741399563680698

>  <r_i_glide_metal>  (1113) 
-0

>  <r_i_glide_rewards>  (1113) 
-0.442115829948245

>  <r_lp_Energy>  (1113) 
9.5968090000000004

>  <r_lp_tautomer_probability>  (1113) 
1

>  <r_qp_ACxDN^.5/SA>  (1113) 
0.010436000000000001

>  <r_qp_CIQPlogS>  (1113) 
-5.9630000000000001

>  <r_qp_EA(eV)>  (1113) 
0.224

>  <r_qp_FISA>  (1113) 
70.730999999999995

>  <r_qp_FOSA>  (1113) 
227.70099999999999

>  <r_qp_IP(eV)>  (1113) 
9.0169999999999995

>  <r_qp_Jm>  (1113) 
0.048386262502207199

>  <r_qp_PISA>  (1113) 
401.488

>  <r_qp_PSA>  (1113) 
67.923000000000002

>  <r_qp_PercentHumanOralAbsorption>  (1113) 
100

>  <r_qp_QPPCaco>  (1113) 
286.21499999999997

>  <r_qp_QPPMDCK>  (1113) 
485.84699999999998

>  <r_qp_QPlogBB>  (1113) 
-0.111

>  <r_qp_QPlogHERG>  (1113) 
-5.7220000000000004

>  <r_qp_QPlogKhsa>  (1113) 
0.68799999999999994

>  <r_qp_QPlogKp>  (1113) 
-2.7029999999999998

>  <r_qp_QPlogPC16>  (1113) 
15.473000000000001

>  <r_qp_QPlogPo/w>  (1113) 
4.7380000000000004

>  <r_qp_QPlogPoct>  (1113) 
22.853999999999999

>  <r_qp_QPlogPw>  (1113) 
13.789999999999999

>  <r_qp_QPlogS>  (1113) 
-4.274

>  <r_qp_QPpolrz>  (1113) 
49.329000000000001

>  <r_qp_SASA>  (1113) 
745.32000000000005

>  <r_qp_SAamideO>  (1113) 
33.337000000000003

>  <r_qp_SAfluorine>  (1113) 
0

>  <r_qp_WPSA>  (1113) 
45.399000000000001

>  <r_qp_accptHB>  (1113) 
5.5

>  <r_qp_dip^2/V>  (1113) 
0.028979600000000001

>  <r_qp_dipole>  (1113) 
6.4119999999999999

>  <r_qp_donorHB>  (1113) 
2

>  <r_qp_glob>  (1113) 
0.81933590000000001

>  <r_qp_mol_MW>  (1113) 
458.98899999999998

>  <r_qp_volume>  (1113) 
1418.925

>  <r_sd_BIOSOLVEIT.INFINISEE\_FTREES\_SIMILARITY>  (1113) 
0.90800000000000003

>  <r_sd_BIOSOLVEIT.LOGP>  (1113) 
4.1515000000000004

>  <r_sd_BIOSOLVEIT.MOLECULAR\_WEIGHT>  (1113) 
459.99799999999999

>  <r_sd_BIOSOLVEIT.TPSA>  (1113) 
63.530000000000001

>  <i_epik_Tot_Q>  (1113) 
1

>  <i_epik_Tot_abs_Q>  (1113) 
1

>  <i_f3d_flags>  (1113) 
0

>  <i_i_glide_confnum>  (1113) 
1

>  <i_i_glide_lignum>  (1113) 
502

>  <i_i_glide_posenum>  (1113) 
9

>  <i_i_glide_rotatable_bonds>  (1113) 
10

>  <i_lp_mmshare_version>  (1113) 
65135

>  <i_m_ct_format>  (1113) 
2

>  <i_m_source_file_index>  (1113) 
1465

>  <i_qp_#NandO>  (1113) 
5

>  <i_qp_#acid>  (1113) 
0

>  <i_qp_#amide>  (1113) 
1

>  <i_qp_#amidine>  (1113) 
0

>  <i_qp_#amine>  (1113) 
1

>  <i_qp_#in34>  (1113) 
0

>  <i_qp_#in56>  (1113) 
23

>  <i_qp_#metab>  (1113) 
5

>  <i_qp_#nonHatm>  (1113) 
33

>  <i_qp_#noncon>  (1113) 
0

>  <i_qp_#ringatoms>  (1113) 
23

>  <i_qp_#rotor>  (1113) 
8

>  <i_qp_#rtvFG>  (1113) 
0

>  <i_qp_#stars>  (1113) 
0

>  <i_qp_CNS>  (1113) 
1

>  <i_qp_HumanOralAbsorption>  (1113) 
3

>  <i_qp_RuleOfFive>  (1113) 
0

>  <i_qp_RuleOfThree>  (1113) 
0

>  <i_sd_BIOSOLVEIT.INFINISEE\_REAGENT1\_NAME>  (1113) 
11963946

>  <i_sd_BIOSOLVEIT.INFINISEE\_REAGENT2\_NAME>  (1113) 
7547832

>  <i_sd_BIOSOLVEIT.INFINISEE\_RESULT\_RANK>  (1113) 
57050

>  <i_sd_version>  (1113) 
0

>  <b_lp_Chiralities_Consistent>  (1113) 
1

>  <b_sd_chiral_flag>  (1113) 
0

>  <canonical_id>  (1113) 
ATP-HTVS-B1D0FF1C8AAB

>  <compound_code>  (1113) 
46850

>  <title>  (1113) 
m_270004bbb____11963946____7547832

>  <variant>  (1113) 
46850-1

>  <source_file>  (1113) 
运行/运行/ATP-VSW/ATP-VSW-DOCK_HTVS_1-002_lib.maegz

>  <canonical_smiles>  (1113) 
CC(=O)NCc1ccc(C[NH2+]Cc2cn(Cc3ccccc3)nc2-c2ccc(Cl)cc2)cc1

>  <scaffold>  (1113) 
c1ccc(C[NH2+]Cc2cn(Cc3ccccc3)nc2-c2ccccc2)cc1

>  <molecular_formula>  (1113) 
C27H28ClN4O+

$$$$
ATP-HTVS-B1DCCC83FEFE
     RDKit          3D

 67 70  0  0  0  0  0  0  0  0999 V2000
  199.9262  178.9000  151.9249 O   0  0  0  0  0  0  0  0  0  0  0  0
  198.8252  178.9442  151.3779 C   0  0  0  0  0  0  0  0  0  0  0  0
  198.1199  180.0715  151.2225 N   0  0  0  0  0  0  0  0  0  0  0  0
  198.4662  181.3468  151.8350 C   0  0  1  0  0  0  0  0  0  0  0  0
  198.0991  181.4297  153.3142 C   0  0  0  0  0  0  0  0  0  0  0  0
  198.6095  182.4886  154.0961 C   0  0  0  0  0  0  0  0  0  0  0  0
  198.2930  182.5738  155.4684 C   0  0  0  0  0  0  0  0  0  0  0  0
  197.4716  181.5973  156.0623 C   0  0  0  0  0  0  0  0  0  0  0  0
  196.9543  180.5475  155.2849 C   0  0  0  0  0  0  0  0  0  0  0  0
  197.2561  180.4653  153.9221 C   0  0  0  0  0  0  0  0  0  0  0  0
  197.1502  181.6393  157.5367 C   0  0  1  0  0  0  0  0  0  0  0  0
  195.8520  182.3028  157.8214 N   0  0  2  0  0  0  0  0  0  0  0  0
  195.9569  183.7805  157.9385 C   0  0  1  0  0  0  0  0  0  0  0  0
  196.8144  184.2720  159.1341 C   0  0  2  0  0  0  0  0  0  0  0  0
  195.0596  181.6882  158.9204 C   0  0  1  0  0  0  0  0  0  0  0  0
  193.6511  181.2876  158.4696 C   0  0  2  0  0  0  0  0  0  0  0  0
  198.1528  177.6751  150.8689 C   0  0  1  0  0  0  0  0  0  0  0  0
  198.9313  177.0633  149.8122 N   0  0  0  0  0  0  0  0  0  0  0  0
  199.0292  177.5089  148.5011 C   0  0  0  0  0  0  0  0  0  0  0  0
  199.8935  176.5752  147.8614 C   0  0  0  0  0  0  0  0  0  0  0  0
  200.3110  175.6004  148.7374 N   0  0  0  0  0  0  0  0  0  0  0  0
  199.7136  175.9492  149.8760 C   0  0  0  0  0  0  0  0  0  0  0  0
  199.8775  175.1282  151.1182 C   0  0  1  0  0  0  0  0  0  0  0  0
  200.5739  175.9010  152.0895 O   0  0  0  0  0  0  0  0  0  0  0  0
  201.1279  175.2112  153.1452 C   0  0  0  0  0  0  0  0  0  0  0  0
  201.1862  173.8007  153.1904 C   0  0  0  0  0  0  0  0  0  0  0  0
  201.8115  173.1412  154.2590 C   0  0  0  0  0  0  0  0  0  0  0  0
  202.3743  173.8799  155.3191 C   0  0  0  0  0  0  0  0  0  0  0  0
  202.3086  175.2833  155.3091 C   0  0  0  0  0  0  0  0  0  0  0  0
  201.6917  175.9468  154.2236 C   0  0  0  0  0  0  0  0  0  0  0  0
  200.2028  176.7564  146.5009 C   0  0  0  0  0  0  0  0  0  0  0  0
  199.6611  177.8470  145.7897 C   0  0  0  0  0  0  0  0  0  0  0  0
  198.8086  178.7677  146.4375 C   0  0  0  0  0  0  0  0  0  0  0  0
  198.4847  178.5993  147.8018 C   0  0  0  0  0  0  0  0  0  0  0  0
  197.2192  180.0038  150.7738 H   0  0  0  0  0  0  0  0  0  0  0  0
  199.5310  181.5420  151.7088 H   0  0  0  0  0  0  0  0  0  0  0  0
  197.9317  182.1321  151.3045 H   0  0  0  0  0  0  0  0  0  0  0  0
  199.2577  183.2292  153.6442 H   0  0  0  0  0  0  0  0  0  0  0  0
  198.7083  183.3784  156.0562 H   0  0  0  0  0  0  0  0  0  0  0  0
  196.3438  179.7807  155.7330 H   0  0  0  0  0  0  0  0  0  0  0  0
  196.8409  179.6324  153.3692 H   0  0  0  0  0  0  0  0  0  0  0  0
  197.1554  180.6083  157.8786 H   0  0  0  0  0  0  0  0  0  0  0  0
  197.9865  182.0918  158.0668 H   0  0  0  0  0  0  0  0  0  0  0  0
  196.3560  184.1912  157.0122 H   0  0  0  0  0  0  0  0  0  0  0  0
  194.9521  184.1823  158.0244 H   0  0  0  0  0  0  0  0  0  0  0  0
  196.8043  185.3651  159.1976 H   0  0  0  0  0  0  0  0  0  0  0  0
  197.8601  183.9755  159.0520 H   0  0  0  0  0  0  0  0  0  0  0  0
  196.4512  183.9068  160.0941 H   0  0  0  0  0  0  0  0  0  0  0  0
  195.5615  180.8219  159.3558 H   0  0  0  0  0  0  0  0  0  0  0  0
  194.9372  182.3987  159.7312 H   0  0  0  0  0  0  0  0  0  0  0  0
  193.0982  180.8748  159.3130 H   0  0  0  0  0  0  0  0  0  0  0  0
  193.6798  180.5279  157.6911 H   0  0  0  0  0  0  0  0  0  0  0  0
  193.0952  182.1462  158.0882 H   0  0  0  0  0  0  0  0  0  0  0  0
  198.0412  176.9863  151.7025 H   0  0  0  0  0  0  0  0  0  0  0  0
  197.1600  177.8920  150.4792 H   0  0  0  0  0  0  0  0  0  0  0  0
  198.8938  174.8366  151.4886 H   0  0  0  0  0  0  0  0  0  0  0  0
  200.4284  174.2428  150.8445 H   0  0  0  0  0  0  0  0  0  0  0  0
  200.7736  173.1991  152.4019 H   0  0  0  0  0  0  0  0  0  0  0  0
  201.8751  172.0631  154.2650 H   0  0  0  0  0  0  0  0  0  0  0  0
  202.8525  173.3658  156.1434 H   0  0  0  0  0  0  0  0  0  0  0  0
  202.7291  175.8599  156.1230 H   0  0  0  0  0  0  0  0  0  0  0  0
  201.6490  177.0263  154.2012 H   0  0  0  0  0  0  0  0  0  0  0  0
  200.8531  176.0512  145.9978 H   0  0  0  0  0  0  0  0  0  0  0  0
  199.8913  177.9637  144.7366 H   0  0  0  0  0  0  0  0  0  0  0  0
  198.3986  179.6035  145.8854 H   0  0  0  0  0  0  0  0  0  0  0  0
  197.8437  179.3036  148.3093 H   0  0  0  0  0  0  0  0  0  0  0  0
  195.2938  182.1346  156.9940 H   0  0  0  0  0  0  0  0  0  0  0  0
  1  2  2  0
  2  3  1  0
  2 17  1  0
  3  4  1  0
  3 35  1  0
  4  5  1  0
  4 36  1  1
  4 37  1  0
  5  6  1  0
  5 10  2  0
  6  7  2  0
  6 38  1  0
  7  8  1  0
  7 39  1  0
  8  9  2  0
  8 11  1  0
  9 10  1  0
  9 40  1  0
 10 41  1  0
 11 12  1  0
 11 42  1  1
 11 43  1  0
 12 13  1  0
 12 15  1  0
 12 67  1  6
 13 14  1  0
 13 44  1  6
 13 45  1  0
 14 46  1  1
 14 47  1  0
 14 48  1  0
 15 16  1  0
 15 49  1  1
 15 50  1  0
 16 51  1  1
 16 52  1  0
 16 53  1  0
 17 18  1  0
 17 54  1  1
 17 55  1  0
 18 19  1  0
 18 22  1  0
 19 20  1  0
 19 34  2  0
 20 21  1  0
 20 31  2  0
 21 22  2  0
 22 23  1  0
 23 24  1  0
 23 56  1  1
 23 57  1  0
 24 25  1  0
 25 26  2  0
 25 30  1  0
 26 27  1  0
 26 58  1  0
 27 28  2  0
 27 59  1  0
 28 29  1  0
 28 60  1  0
 29 30  2  0
 29 61  1  0
 30 62  1  0
 31 32  1  0
 31 63  1  0
 32 33  2  0
 32 64  1  0
 33 34  1  0
 33 65  1  0
 34 66  1  0
M  CHG  1  12   1
M  END
>  <s_epik_cmdline>  (1114) 
J2VwaWtfcHl0aG9uJywgJy1waCcsICc3LjAwMDAwMCcsICctcGh0JywgJzIuMDAwMDAwJywgJy1tcycsICcxNicsICctdG4nLCAnOCcsICctbWEnLCAnMjAwJywgJy1pbWFlJywgJzxpbmZpbGUubWFlPicsICctb21hZScsICc8b3V0ZmlsZS5tYWU+Jw==

>  <s_epik_input>  (1114) 
W0NIM11bQ0gyXU4oW0NIMl1bQ0gzXSlbQ0gyXWMoW2NIXVtjSF0xKVtjSF1bY0hdYzFbQ0gyXVtOSF1DKD1PKVtDSDJdbjJjKG5jKGMyMylbY0hdW2NIXVtjSF1bY0hdMylbQ0gyXU9jNFtjSF1bY0hdW2NIXVtjSF1bY0hdNA==

>  <s_i_glide_gridfile>  (1114) 
ATP-Grid

>  <s_lp_Force_Field>  (1114) 
OPLS_2005

>  <s_lp_Variant>  (1114) 
m_11dba____134712____214826-1

>  <s_lp_label>  (1114) 
957_sdstereoexpander_1_neutralizer_1_epik_1_stereoizer_1

>  <s_m_source_file>  (1114) 
ATP-VSW-LIGPREP-003-in.maegz

>  <s_sd_BIOSOLVEIT.INFINISEE\_QUERY\_NAME>  (1114) 
Ref-Lig

>  <s_sd_BIOSOLVEIT.INFINISEE\_QUERY\_SMILES>  (1114) 
S(c1nc2c(cc1C[NH2+]Cc3ccc(cc3)C[NH+](C)C)cccc2)Cc4ccccc4

>  <s_sd_BIOSOLVEIT.INFINISEE\_REACTION\_NAME>  (1114) 
m_11dba

>  <s_sd_BIOSOLVEIT.INFINISEE\_REAGENT1\_SMILES>  (1114) 
[R1*]NCc1ccc(cc1)CN(CC)CC

>  <s_sd_BIOSOLVEIT.INFINISEE\_REAGENT2\_SMILES>  (1114) 
[R1*]C(=O)CN1c2c(N=C1COc3ccccc3)cccc2

>  <s_sd_BIOSOLVEIT.INFINISEE\_SPACE>  (1114) 
REALSpace_44bn_2023-08

>  <s_vsw_compound_code>  (1114) 
30595

>  <s_vsw_variant>  (1114) 
30595-1

>  <r_epik_Charging_Adjusted_Penalty>  (1114) 
0.062415986400297899

>  <r_epik_Ionization_Penalty>  (1114) 
0.043999999999999997

>  <r_epik_Ionization_Penalty_Charging>  (1114) 
0.0184

>  <r_epik_Ionization_Penalty_Neutral>  (1114) 
0.025499999999999998

>  <r_epik_State_Penalty>  (1114) 
0.043999999999999997

>  <r_i_docking_score>  (1114) 
-3.6092067318224901

>  <r_i_glide_ecoul>  (1114) 
-7.3043780326843297

>  <r_i_glide_eff_state_penalty>  (1114) 
0.043999999999999997

>  <r_i_glide_einternal>  (1114) 
8.8154220581054705

>  <r_i_glide_emodel>  (1114) 
-52.796939623693198

>  <r_i_glide_energy>  (1114) 
-43.379909038543701

>  <r_i_glide_erotb>  (1114) 
0.96023910160949399

>  <r_i_glide_esite>  (1114) 
-0.081918868406571602

>  <r_i_glide_evdw>  (1114) 
-36.075531005859403

>  <r_i_glide_gscore>  (1114) 
-3.6532067318224901

>  <r_i_glide_hbond>  (1114) 
-0.070624893951963294

>  <r_i_glide_ligand_efficiency>  (1114) 
-0.10615313917124999

>  <r_i_glide_ligand_efficiency_ln>  (1114) 
-0.79737500187936405

>  <r_i_glide_ligand_efficiency_sa>  (1114) 
-0.343894961997599

>  <r_i_glide_lipo>  (1114) 
-0.98347528694838904

>  <r_i_glide_metal>  (1114) 
-0

>  <r_i_glide_rewards>  (1114) 
-0.577993528929444

>  <r_lp_Energy>  (1114) 
22.817323999999999

>  <r_lp_tautomer_probability>  (1114) 
1

>  <r_qp_ACxDN^.5/SA>  (1114) 
0.0081393000000000004

>  <r_qp_CIQPlogS>  (1114) 
-5.3650000000000002

>  <r_qp_EA(eV)>  (1114) 
0.40100000000000002

>  <r_qp_FISA>  (1114) 
58.731999999999999

>  <r_qp_FOSA>  (1114) 
338.69600000000003

>  <r_qp_IP(eV)>  (1114) 
8.8919999999999995

>  <r_qp_Jm>  (1114) 
0.032546070006872797

>  <r_qp_PISA>  (1114) 
431.88299999999998

>  <r_qp_PSA>  (1114) 
59.944000000000003

>  <r_qp_PercentHumanOralAbsorption>  (1114) 
100

>  <r_qp_QPPCaco>  (1114) 
454.83600000000001

>  <r_qp_QPPMDCK>  (1114) 
363.74099999999999

>  <r_qp_QPlogBB>  (1114) 
-0.35499999999999998

>  <r_qp_QPlogHERG>  (1114) 
-6.6059999999999999

>  <r_qp_QPlogKhsa>  (1114) 
0.628

>  <r_qp_QPlogKp>  (1114) 
-2.0870000000000002

>  <r_qp_QPlogPC16>  (1114) 
16.271000000000001

>  <r_qp_QPlogPo/w>  (1114) 
4.984

>  <r_qp_QPlogPoct>  (1114) 
22.295999999999999

>  <r_qp_QPlogPw>  (1114) 
12.394

>  <r_qp_QPlogS>  (1114) 
-5.0599999999999996

>  <r_qp_QPpolrz>  (1114) 
52.058

>  <r_qp_SASA>  (1114) 
829.31200000000001

>  <r_qp_SAamideO>  (1114) 
22.359999999999999

>  <r_qp_SAfluorine>  (1114) 
0

>  <r_qp_WPSA>  (1114) 
0

>  <r_qp_accptHB>  (1114) 
6.75

>  <r_qp_dip^2/V>  (1114) 
0.0131263

>  <r_qp_dipole>  (1114) 
4.4790000000000001

>  <r_qp_donorHB>  (1114) 
1

>  <r_qp_glob>  (1114) 
0.77362450000000005

>  <r_qp_mol_MW>  (1114) 
456.58600000000001

>  <r_qp_volume>  (1114) 
1528.0039999999999

>  <r_sd_BIOSOLVEIT.INFINISEE\_FTREES\_SIMILARITY>  (1114) 
0.91700000000000004

>  <r_sd_BIOSOLVEIT.LOGP>  (1114) 
3.3563999999999998

>  <r_sd_BIOSOLVEIT.MOLECULAR\_WEIGHT>  (1114) 
457.59500000000003

>  <r_sd_BIOSOLVEIT.TPSA>  (1114) 
60.590000000000003

>  <i_epik_Tot_Q>  (1114) 
1

>  <i_epik_Tot_abs_Q>  (1114) 
1

>  <i_f3d_flags>  (1114) 
0

>  <i_i_glide_confnum>  (1114) 
20

>  <i_i_glide_lignum>  (1114) 
364

>  <i_i_glide_posenum>  (1114) 
13

>  <i_i_glide_rotatable_bonds>  (1114) 
12

>  <i_lp_mmshare_version>  (1114) 
65135

>  <i_m_ct_format>  (1114) 
2

>  <i_m_source_file_index>  (1114) 
957

>  <i_qp_#NandO>  (1114) 
6

>  <i_qp_#acid>  (1114) 
0

>  <i_qp_#amide>  (1114) 
1

>  <i_qp_#amidine>  (1114) 
0

>  <i_qp_#amine>  (1114) 
1

>  <i_qp_#in34>  (1114) 
0

>  <i_qp_#in56>  (1114) 
21

>  <i_qp_#metab>  (1114) 
6

>  <i_qp_#nonHatm>  (1114) 
34

>  <i_qp_#noncon>  (1114) 
0

>  <i_qp_#ringatoms>  (1114) 
21

>  <i_qp_#rotor>  (1114) 
11

>  <i_qp_#rtvFG>  (1114) 
0

>  <i_qp_#stars>  (1114) 
0

>  <i_qp_CNS>  (1114) 
1

>  <i_qp_HumanOralAbsorption>  (1114) 
3

>  <i_qp_RuleOfFive>  (1114) 
0

>  <i_qp_RuleOfThree>  (1114) 
0

>  <i_sd_BIOSOLVEIT.INFINISEE\_REAGENT1\_NAME>  (1114) 
134712

>  <i_sd_BIOSOLVEIT.INFINISEE\_REAGENT2\_NAME>  (1114) 
214826

>  <i_sd_BIOSOLVEIT.INFINISEE\_RESULT\_RANK>  (1114) 
22948

>  <i_sd_version>  (1114) 
0

>  <b_lp_Chiralities_Consistent>  (1114) 
1

>  <b_sd_chiral_flag>  (1114) 
0

>  <canonical_id>  (1114) 
ATP-HTVS-B1DCCC83FEFE

>  <compound_code>  (1114) 
30595

>  <title>  (1114) 
m_11dba____134712____214826

>  <variant>  (1114) 
30595-1

>  <source_file>  (1114) 
运行/运行/ATP-VSW/ATP-VSW-DOCK_HTVS_1-003_lib/ATP-VSW-DOCK_HTVS_1-003_lib.mae

>  <canonical_smiles>  (1114) 
CC[NH+](CC)Cc1ccc(CNC(=O)Cn2c(COc3ccccc3)nc3ccccc32)cc1

>  <scaffold>  (1114) 
O=C(Cn1c(COc2ccccc2)nc2ccccc21)NCc1ccccc1

>  <molecular_formula>  (1114) 
C28H33N4O2+

$$$$
ATP-HTVS-B1E26FAB67D9
     RDKit          3D

 57 60  0  0  0  0  0  0  0  0999 V2000
  198.6614  180.4823  148.3468 F   0  0  0  0  0  0  0  0  0  0  0  0
  198.2216  180.3244  149.6158 C   0  0  0  0  0  0  0  0  0  0  0  0
  198.6685  179.2322  150.3815 C   0  0  0  0  0  0  0  0  0  0  0  0
  198.2183  179.0697  151.7054 C   0  0  0  0  0  0  0  0  0  0  0  0
  197.3168  180.0012  152.2614 C   0  0  0  0  0  0  0  0  0  0  0  0
  196.8658  179.8383  153.5426 O   0  0  0  0  0  0  0  0  0  0  0  0
  197.3947  180.6329  154.5268 C   0  0  0  0  0  0  0  0  0  0  0  0
  196.5102  181.0417  155.4540 N   0  0  0  0  0  0  0  0  0  0  0  0
  196.9660  181.7979  156.4510 C   0  0  0  0  0  0  0  0  0  0  0  0
  198.2245  182.2016  156.6071 N   0  0  0  0  0  0  0  0  0  0  0  0
  199.1286  181.7977  155.6939 C   0  0  0  0  0  0  0  0  0  0  0  0
  200.4259  182.2211  155.8602 O   0  0  0  0  0  0  0  0  0  0  0  0
  201.0264  182.0938  157.0937 C   0  0  0  0  0  0  0  0  0  0  0  0
  201.9182  181.0249  157.3077 C   0  0  0  0  0  0  0  0  0  0  0  0
  202.5842  180.8907  158.5390 C   0  0  0  0  0  0  0  0  0  0  0  0
  202.3589  181.8211  159.5716 C   0  0  0  0  0  0  0  0  0  0  0  0
  202.9918  181.6786  160.7608 F   0  0  0  0  0  0  0  0  0  0  0  0
  201.4665  182.8913  159.3670 C   0  0  0  0  0  0  0  0  0  0  0  0
  200.8160  183.0394  158.1245 C   0  0  0  0  0  0  0  0  0  0  0  0
  198.7556  180.9969  154.5945 C   0  0  0  0  0  0  0  0  0  0  0  0
  196.0329  182.2133  157.3821 N   0  0  0  0  0  0  0  0  0  0  0  0
  196.0095  183.2526  158.3253 C   0  0  0  0  0  0  0  0  0  0  0  0
  197.1899  183.7484  158.9281 C   0  0  0  0  0  0  0  0  0  0  0  0
  197.1488  184.8761  159.7571 C   0  0  0  0  0  0  0  0  0  0  0  0
  195.9285  185.5090  160.0466 C   0  0  0  0  0  0  0  0  0  0  0  0
  194.7391  184.9622  159.5193 C   0  0  0  0  0  0  0  0  0  0  0  0
  194.7769  183.8504  158.6552 C   0  0  0  0  0  0  0  0  0  0  0  0
  195.9246  186.7526  160.9263 C   0  0  1  0  0  0  0  0  0  0  0  0
  196.1490  188.0307  160.1843 N   0  0  1  0  0  0  0  0  0  0  0  0
  196.2812  189.1958  161.0903 C   0  0  2  0  0  0  0  0  0  0  0  0
  197.2854  187.9914  159.2280 C   0  0  2  0  0  0  0  0  0  0  0  0
  194.6650  186.8880  161.6856 C   0  0  0  0  0  0  0  0  0  0  0  0
  193.6762  186.9918  162.2803 N   0  0  0  0  0  0  0  0  0  0  0  0
  196.8699  181.0962  151.4933 C   0  0  0  0  0  0  0  0  0  0  0  0
  197.3237  181.2561  150.1698 C   0  0  0  0  0  0  0  0  0  0  0  0
  199.3542  178.5179  149.9518 H   0  0  0  0  0  0  0  0  0  0  0  0
  198.5627  178.2335  152.2967 H   0  0  0  0  0  0  0  0  0  0  0  0
  202.1003  180.3136  156.5146 H   0  0  0  0  0  0  0  0  0  0  0  0
  203.2734  180.0724  158.6865 H   0  0  0  0  0  0  0  0  0  0  0  0
  201.2940  183.5965  160.1663 H   0  0  0  0  0  0  0  0  0  0  0  0
  200.1555  183.8788  157.9675 H   0  0  0  0  0  0  0  0  0  0  0  0
  199.4715  180.6750  153.8582 H   0  0  0  0  0  0  0  0  0  0  0  0
  195.1272  181.8196  157.1636 H   0  0  0  0  0  0  0  0  0  0  0  0
  198.1545  183.3070  158.7537 H   0  0  0  0  0  0  0  0  0  0  0  0
  198.0771  185.2542  160.1545 H   0  0  0  0  0  0  0  0  0  0  0  0
  193.7768  185.4139  159.7367 H   0  0  0  0  0  0  0  0  0  0  0  0
  193.8541  183.4855  158.2180 H   0  0  0  0  0  0  0  0  0  0  0  0
  197.1461  189.0872  161.7481 H   0  0  0  0  0  0  0  0  0  0  0  0
  195.3920  189.3270  161.7068 H   0  0  0  0  0  0  0  0  0  0  0  0
  196.4044  190.1126  160.5129 H   0  0  0  0  0  0  0  0  0  0  0  0
  198.2188  187.7403  159.7358 H   0  0  0  0  0  0  0  0  0  0  0  0
  197.4219  188.9577  158.7404 H   0  0  0  0  0  0  0  0  0  0  0  0
  197.1198  187.2666  158.4308 H   0  0  0  0  0  0  0  0  0  0  0  0
  196.1777  181.8082  151.9226 H   0  0  0  0  0  0  0  0  0  0  0  0
  196.9809  182.0900  149.5768 H   0  0  0  0  0  0  0  0  0  0  0  0
  196.7253  186.6378  161.6508 H   0  0  0  0  0  0  0  0  0  0  0  0
  195.3170  188.1952  159.6345 H   0  0  0  0  0  0  0  0  0  0  0  0
  1  2  1  0
  2  3  1  0
  2 35  2  0
  3  4  2  0
  3 36  1  0
  4  5  1  0
  4 37  1  0
  5  6  1  0
  5 34  2  0
  6  7  1  0
  7  8  2  0
  7 20  1  0
  8  9  1  0
  9 10  2  0
  9 21  1  0
 10 11  1  0
 11 12  1  0
 11 20  2  0
 12 13  1  0
 13 14  1  0
 13 19  2  0
 14 15  2  0
 14 38  1  0
 15 16  1  0
 15 39  1  0
 16 17  1  0
 16 18  2  0
 18 19  1  0
 18 40  1  0
 19 41  1  0
 20 42  1  0
 21 22  1  0
 21 43  1  0
 22 23  1  0
 22 27  2  0
 23 24  2  0
 23 44  1  0
 24 25  1  0
 24 45  1  0
 25 26  2  0
 25 28  1  0
 26 27  1  0
 26 46  1  0
 27 47  1  0
 28 29  1  0
 28 32  1  0
 28 56  1  1
 29 30  1  0
 29 31  1  0
 29 57  1  6
 30 48  1  1
 30 49  1  0
 30 50  1  0
 31 51  1  1
 31 52  1  0
 31 53  1  0
 32 33  3  0
 34 35  1  0
 34 54  1  0
 35 55  1  0
M  CHG  1  29   1
M  END
>  <s_epik_cmdline>  (1115) 
J2VwaWtfcHl0aG9uJywgJy1waCcsICc3LjAwMDAwMCcsICctcGh0JywgJzIuMDAwMDAwJywgJy1tcycsICcxNicsICctdG4nLCAnOCcsICctbWEnLCAnMjAwJywgJy1pbWFlJywgJzxpbmZpbGUubWFlPicsICctb21hZScsICc8b3V0ZmlsZS5tYWU+Jw==

>  <s_epik_input>  (1115) 
RmMxW2NIXVtjSF1jKFtjSF1bY0hdMSlPYzJuYyhbTkhdYzNbY0hdW2NIXWMoW2NIXVtjSF0zKVtDQEhdKEMjTilOKFtDSDNdKVtDSDNdKW5jKFtjSF0yKU9jNFtjSF1bY0hdYyhGKVtjSF1bY0hdNA==

>  <s_i_glide_gridfile>  (1115) 
ATP-Grid

>  <s_lp_Force_Field>  (1115) 
OPLS_2005

>  <s_lp_Variant>  (1115) 
rxn102c____EMOL982815____EMOL27507560-3

>  <s_lp_label>  (1115) 
2671_sdstereoexpander_1_neutralizer_1_epik_2_stereoizer_1

>  <s_m_source_file>  (1115) 
ATP-VSW-LIGPREP-003-in.maegz

>  <s_sd_BIOSOLVEIT.INFINISEE\_QUERY\_NAME>  (1115) 
Ref-Lig

>  <s_sd_BIOSOLVEIT.INFINISEE\_QUERY\_SMILES>  (1115) 
S(c1nc2c(cc1C[NH2+]Cc3ccc(cc3)C[NH+](C)C)cccc2)Cc4ccccc4

>  <s_sd_BIOSOLVEIT.INFINISEE\_REACTION\_NAME>  (1115) 
rxn102c

>  <s_sd_BIOSOLVEIT.INFINISEE\_REAGENT1\_NAME>  (1115) 
EMOL982815

>  <s_sd_BIOSOLVEIT.INFINISEE\_REAGENT1\_SMILES>  (1115) 
Clc1ccc(cc1)C(N(C)C)C#N

>  <s_sd_BIOSOLVEIT.INFINISEE\_REAGENT2\_NAME>  (1115) 
EMOL27507560

>  <s_sd_BIOSOLVEIT.INFINISEE\_REAGENT2\_SMILES>  (1115) 
Fc1ccc(Oc2nc(nc(Oc3ccc(F)cc3)c2)N)cc1

>  <s_sd_BIOSOLVEIT.INFINISEE\_SPACE>  (1115) 
eXplore_7tr_2022-12

>  <s_vsw_compound_code>  (1115) 
85443

>  <s_vsw_variant>  (1115) 
85443-3

>  <r_epik_Charging_Adjusted_Penalty>  (1115) 
2.5812112603102402

>  <r_epik_Ionization_Penalty>  (1115) 
1.3626

>  <r_epik_Ionization_Penalty_Charging>  (1115) 
1.286

>  <r_epik_Ionization_Penalty_Neutral>  (1115) 
0.076600000000000001

>  <r_epik_State_Penalty>  (1115) 
1.2951999999999999

>  <r_i_docking_score>  (1115) 
-3.7371223145267201

>  <r_i_glide_ecoul>  (1115) 
-5.8276319503784197

>  <r_i_glide_eff_state_penalty>  (1115) 
1.2951999999999999

>  <r_i_glide_einternal>  (1115) 
2.9351825714111301

>  <r_i_glide_emodel>  (1115) 
-63.408959959105502

>  <r_i_glide_energy>  (1115) 
-45.215449333190897

>  <r_i_glide_erotb>  (1115) 
0.62916996232780598

>  <r_i_glide_esite>  (1115) 
-0.15398725272195099

>  <r_i_glide_evdw>  (1115) 
-39.3878173828125

>  <r_i_glide_gscore>  (1115) 
-5.03232231452672

>  <r_i_glide_hbond>  (1115) 
-0.0062103924460693702

>  <r_i_glide_ligand_efficiency>  (1115) 
-0.106774923272192

>  <r_i_glide_ligand_efficiency_ln>  (1115) 
-0.82038128899964502

>  <r_i_glide_ligand_efficiency_sa>  (1115) 
-0.34926785387471598

>  <r_i_glide_lipo>  (1115) 
-1.92819153881904

>  <r_i_glide_metal>  (1115) 
-0

>  <r_i_glide_rewards>  (1115) 
-0.72956743117007705

>  <r_lp_Energy>  (1115) 
18.276425

>  <r_lp_tautomer_probability>  (1115) 
0.99999999991856403

>  <r_qp_ACxDN^.5/SA>  (1115) 
0.0095136999999999999

>  <r_qp_CIQPlogS>  (1115) 
-7.4279999999999999

>  <r_qp_EA(eV)>  (1115) 
0.65800000000000003

>  <r_qp_FISA>  (1115) 
101.66200000000001

>  <r_qp_FOSA>  (1115) 
113.11499999999999

>  <r_qp_IP(eV)>  (1115) 
8.7490000000000006

>  <r_qp_Jm>  (1115) 
0.00091188166726599801

>  <r_qp_PISA>  (1115) 
444.96600000000001

>  <r_qp_PSA>  (1115) 
76.796999999999997

>  <r_qp_PercentHumanOralAbsorption>  (1115) 
100

>  <r_qp_QPPCaco>  (1115) 
268.37599999999998

>  <r_qp_QPPMDCK>  (1115) 
344.59800000000001

>  <r_qp_QPlogBB>  (1115) 
-0.41099999999999998

>  <r_qp_QPlogHERG>  (1115) 
-7.3559999999999999

>  <r_qp_QPlogKhsa>  (1115) 
0.60799999999999998

>  <r_qp_QPlogKp>  (1115) 
-3.024

>  <r_qp_QPlogPC16>  (1115) 
14.65

>  <r_qp_QPlogPo/w>  (1115) 
4.6150000000000002

>  <r_qp_QPlogPoct>  (1115) 
21.797999999999998

>  <r_qp_QPlogPw>  (1115) 
11.609

>  <r_qp_QPlogS>  (1115) 
-5.6909999999999998

>  <r_qp_QPpolrz>  (1115) 
47.688000000000002

>  <r_qp_SASA>  (1115) 
735.78200000000004

>  <r_qp_SAamideO>  (1115) 
0

>  <r_qp_SAfluorine>  (1115) 
76.039000000000001

>  <r_qp_WPSA>  (1115) 
76.039000000000001

>  <r_qp_accptHB>  (1115) 
7

>  <r_qp_dip^2/V>  (1115) 
0.017969800000000001

>  <r_qp_dipole>  (1115) 
4.9859999999999998

>  <r_qp_donorHB>  (1115) 
1

>  <r_qp_glob>  (1115) 
0.81611849999999997

>  <r_qp_mol_MW>  (1115) 
473.48099999999999

>  <r_qp_volume>  (1115) 
1383.585

>  <r_sd_BIOSOLVEIT.INFINISEE\_FTREES\_SIMILARITY>  (1115) 
0.90900000000000003

>  <r_sd_BIOSOLVEIT.LOGP>  (1115) 
4.7921800000000001

>  <r_sd_BIOSOLVEIT.MOLECULAR\_WEIGHT>  (1115) 
474.48899999999998

>  <r_sd_BIOSOLVEIT.TPSA>  (1115) 
84.5

>  <i_epik_Tot_Q>  (1115) 
1

>  <i_epik_Tot_abs_Q>  (1115) 
1

>  <i_f3d_flags>  (1115) 
0

>  <i_i_glide_confnum>  (1115) 
1

>  <i_i_glide_lignum>  (1115) 
1258

>  <i_i_glide_posenum>  (1115) 
6

>  <i_i_glide_rotatable_bonds>  (1115) 
8

>  <i_lp_mmshare_version>  (1115) 
65135

>  <i_m_ct_format>  (1115) 
2

>  <i_m_source_file_index>  (1115) 
2671

>  <i_qp_#NandO>  (1115) 
7

>  <i_qp_#acid>  (1115) 
0

>  <i_qp_#amide>  (1115) 
0

>  <i_qp_#amidine>  (1115) 
0

>  <i_qp_#amine>  (1115) 
1

>  <i_qp_#in34>  (1115) 
0

>  <i_qp_#in56>  (1115) 
24

>  <i_qp_#metab>  (1115) 
2

>  <i_qp_#nonHatm>  (1115) 
35

>  <i_qp_#noncon>  (1115) 
0

>  <i_qp_#ringatoms>  (1115) 
24

>  <i_qp_#rotor>  (1115) 
9

>  <i_qp_#rtvFG>  (1115) 
0

>  <i_qp_#stars>  (1115) 
0

>  <i_qp_CNS>  (1115) 
1

>  <i_qp_HumanOralAbsorption>  (1115) 
3

>  <i_qp_RuleOfFive>  (1115) 
0

>  <i_qp_RuleOfThree>  (1115) 
0

>  <i_sd_BIOSOLVEIT.INFINISEE\_RESULT\_RANK>  (1115) 
49089

>  <i_sd_version>  (1115) 
0

>  <b_lp_Chiralities_Consistent>  (1115) 
1

>  <b_sd_chiral_flag>  (1115) 
0

>  <canonical_id>  (1115) 
ATP-HTVS-B1E26FAB67D9

>  <compound_code>  (1115) 
85443

>  <title>  (1115) 
rxn102c____EMOL982815____EMOL27507560

>  <variant>  (1115) 
85443-3

>  <source_file>  (1115) 
运行/运行/ATP-VSW/ATP-VSW-DOCK_HTVS_1-003_lib/ATP-VSW-DOCK_HTVS_1-003_lib.mae

>  <canonical_smiles>  (1115) 
C[NH+](C)[C@@H](C#N)c1ccc(Nc2nc(Oc3ccc(F)cc3)cc(Oc3ccc(F)cc3)n2)cc1

>  <scaffold>  (1115) 
c1ccc(Nc2nc(Oc3ccccc3)cc(Oc3ccccc3)n2)cc1

>  <molecular_formula>  (1115) 
C26H22F2N5O2+

$$$$
ATP-HTVS-B1FBA11D65B8
     RDKit          3D

 61 64  0  0  0  0  0  0  0  0999 V2000
  196.0624  183.8849  150.4892 Cl  0  0  0  0  0  0  0  0  0  0  0  0
  196.5728  182.9641  151.8607 C   0  0  0  0  0  0  0  0  0  0  0  0
  196.4609  181.5578  151.8681 C   0  0  0  0  0  0  0  0  0  0  0  0
  196.8812  180.8218  152.9979 C   0  0  0  0  0  0  0  0  0  0  0  0
  196.7481  179.4336  152.9666 N   0  0  0  0  0  0  0  0  0  0  0  0
  197.4537  181.4754  154.0933 C   0  0  0  0  0  0  0  0  0  0  0  0
  197.6313  182.8576  153.9429 C   0  0  0  0  0  0  0  0  0  0  0  0
  197.1314  183.6342  152.9225 C   0  0  0  0  0  0  0  0  0  0  0  0
  197.9045  180.7358  155.3655 C   0  0  1  0  0  0  0  0  0  0  0  0
  197.1241  181.0513  156.5807 N   0  0  0  0  0  0  0  0  0  0  0  0
  196.9567  182.2942  157.1438 C   0  0  0  0  0  0  0  0  0  0  0  0
  197.7235  183.3099  156.6593 N   0  0  0  0  0  0  0  0  0  0  0  0
  197.4873  184.6109  157.0233 C   0  0  0  0  0  0  0  0  0  0  0  0
  198.3191  185.5397  156.3552 N   0  0  0  0  0  0  0  0  0  0  0  0
  199.3000  186.3356  157.0687 C   0  0  1  0  0  0  0  0  0  0  0  0
  200.0393  185.7876  158.2923 C   0  0  0  0  0  0  0  0  0  0  0  0
  200.7591  186.6050  159.2152 C   0  0  0  0  0  0  0  0  0  0  0  0
  201.5050  185.9780  160.2458 C   0  0  0  0  0  0  0  0  0  0  0  0
  201.5183  184.5788  160.3878 C   0  0  0  0  0  0  0  0  0  0  0  0
  202.2504  183.9803  161.3441 F   0  0  0  0  0  0  0  0  0  0  0  0
  200.7763  183.7758  159.5281 C   0  0  0  0  0  0  0  0  0  0  0  0
  200.0735  184.3909  158.4987 C   0  0  0  0  0  0  0  0  0  0  0  0
  200.7633  188.1280  159.1136 C   0  0  1  0  0  0  0  0  0  0  0  0
  199.6054  188.8015  159.7839 N   0  0  1  0  0  0  0  0  0  0  0  0
  199.6353  190.2508  159.7393 C   0  0  2  0  0  0  0  0  0  0  0  0
  198.2984  188.3728  159.2649 C   0  0  2  0  0  0  0  0  0  0  0  0
  196.5846  184.8697  158.0369 C   0  0  0  0  0  0  0  0  0  0  0  0
  195.9012  183.7529  158.5788 C   0  0  0  0  0  0  0  0  0  0  0  0
  196.0717  182.4949  158.1085 N   0  0  0  0  0  0  0  0  0  0  0  0
  195.0053  183.9667  159.6380 C   0  0  0  0  0  0  0  0  0  0  0  0
  194.8210  185.2617  160.1579 C   0  0  0  0  0  0  0  0  0  0  0  0
  195.5147  186.3507  159.6258 C   0  0  0  0  0  0  0  0  0  0  0  0
  196.3266  186.1328  158.5002 C   0  0  0  0  0  0  0  0  0  0  0  0
  196.0464  181.0673  151.0184 H   0  0  0  0  0  0  0  0  0  0  0  0
  197.1772  178.8500  153.6784 H   0  0  0  0  0  0  0  0  0  0  0  0
  196.4708  178.9586  152.1180 H   0  0  0  0  0  0  0  0  0  0  0  0
  198.2305  183.4875  154.5853 H   0  0  0  0  0  0  0  0  0  0  0  0
  197.2482  184.7083  152.9905 H   0  0  0  0  0  0  0  0  0  0  0  0
  197.8194  179.6517  155.2175 H   0  0  0  0  0  0  0  0  0  0  0  0
  198.9611  180.9030  155.5470 H   0  0  0  0  0  0  0  0  0  0  0  0
  196.4415  180.3565  156.8521 H   0  0  0  0  0  0  0  0  0  0  0  0
  198.5670  185.4570  155.3756 H   0  0  0  0  0  0  0  0  0  0  0  0
  199.9600  186.9391  156.4568 H   0  0  0  0  0  0  0  0  0  0  0  0
  198.6019  187.1144  157.3536 H   0  0  0  0  0  0  0  0  0  0  0  0
  202.0881  186.5671  160.9268 H   0  0  0  0  0  0  0  0  0  0  0  0
  200.7512  182.7012  159.5767 H   0  0  0  0  0  0  0  0  0  0  0  0
  199.6147  183.7173  157.8380 H   0  0  0  0  0  0  0  0  0  0  0  0
  201.6717  188.5045  159.6094 H   0  0  0  0  0  0  0  0  0  0  0  0
  200.8537  188.4240  158.0685 H   0  0  0  0  0  0  0  0  0  0  0  0
  199.6153  190.6230  158.7109 H   0  0  0  0  0  0  0  0  0  0  0  0
  200.5271  190.6173  160.2489 H   0  0  0  0  0  0  0  0  0  0  0  0
  198.7537  190.6458  160.2580 H   0  0  0  0  0  0  0  0  0  0  0  0
  198.2015  188.7347  158.2438 H   0  0  0  0  0  0  0  0  0  0  0  0
  197.4102  188.7358  159.7712 H   0  0  0  0  0  0  0  0  0  0  0  0
  198.3115  187.3116  159.4203 H   0  0  0  0  0  0  0  0  0  0  0  0
  194.4674  183.1211  160.0213 H   0  0  0  0  0  0  0  0  0  0  0  0
  194.1292  185.4217  160.9457 H   0  0  0  0  0  0  0  0  0  0  0  0
  195.3847  187.3534  160.0100 H   0  0  0  0  0  0  0  0  0  0  0  0
  196.7608  186.9923  158.0073 H   0  0  0  0  0  0  0  0  0  0  0  0
  195.5614  181.7222  158.4608 H   0  0  0  0  0  0  0  0  0  0  0  0
  199.5842  188.4978  160.7414 H   0  0  0  0  0  0  0  0  0  0  0  0
  1  2  1  0
  2  3  2  0
  2  8  1  0
  3  4  1  0
  3 34  1  0
  4  5  1  0
  4  6  2  0
  5 35  1  0
  5 36  1  0
  6  7  1  0
  6  9  1  0
  7  8  2  0
  7 37  1  0
  8 38  1  0
  9 10  1  0
  9 39  1  6
  9 40  1  0
 10 11  1  0
 10 41  1  0
 11 12  1  0
 11 29  2  0
 12 13  2  0
 13 14  1  0
 13 27  1  0
 14 15  1  0
 14 42  1  0
 15 16  1  0
 15 43  1  6
 15 44  1  0
 16 17  2  0
 16 22  1  0
 17 18  1  0
 17 23  1  0
 18 19  2  0
 18 45  1  0
 19 20  1  0
 19 21  1  0
 21 22  2  0
 21 46  1  0
 22 47  1  0
 23 24  1  0
 23 48  1  1
 23 49  1  0
 24 25  1  0
 24 26  1  0
 24 61  1  1
 25 50  1  6
 25 51  1  0
 25 52  1  0
 26 53  1  6
 26 54  1  0
 26 55  1  0
 27 28  1  0
 27 33  2  0
 28 29  1  0
 28 30  2  0
 29 60  1  0
 30 31  1  0
 30 56  1  0
 31 32  2  0
 31 57  1  0
 32 33  1  0
 32 58  1  0
 33 59  1  0
M  CHG  2  24   1  29   1
M  END
>  <s_epik_cmdline>  (1116) 
J2VwaWtfcHl0aG9uJywgJy1waCcsICc3LjAwMDAwMCcsICctcGh0JywgJzIuMDAwMDAwJywgJy1tcycsICcxNicsICctdG4nLCAnOCcsICctbWEnLCAnMjAwJywgJy1pbWFlJywgJzxpbmZpbGUubWFlPicsICctb21hZScsICc8b3V0ZmlsZS5tYWU+Jw==

>  <s_epik_input>  (1116) 
Q2xjMVtjSF1jKFtOSDJdKWMoW2NIXVtjSF0xKVtDSDJdW05IXWMobmMoYzIzKVtjSF1bY0hdW2NIXVtjSF0zKW5jMltOSF1bQ0gyXWM0YyhbQ0gyXU4oW0NIM10pW0NIM10pW2NIXWMoRilbY0hdW2NIXTQ=

>  <s_i_glide_gridfile>  (1116) 
ATP-Grid

>  <s_lp_Force_Field>  (1116) 
OPLS_2005

>  <s_lp_Variant>  (1116) 
m_282030aaa____21896940____22360182____21936774-1

>  <s_lp_label>  (1116) 
1665_sdstereoexpander_1_neutralizer_1_epik_1_stereoizer_1

>  <s_m_source_file>  (1116) 
ATP-VSW-LIGPREP-003-in.maegz

>  <s_sd_BIOSOLVEIT.INFINISEE\_QUERY\_NAME>  (1116) 
Ref-Lig

>  <s_sd_BIOSOLVEIT.INFINISEE\_QUERY\_SMILES>  (1116) 
S(c1nc2c(cc1C[NH2+]Cc3ccc(cc3)C[NH+](C)C)cccc2)Cc4ccccc4

>  <s_sd_BIOSOLVEIT.INFINISEE\_REACTION\_NAME>  (1116) 
m_282030aaa

>  <s_sd_BIOSOLVEIT.INFINISEE\_REAGENT1\_SMILES>  (1116) 
[R1*]NCc1c(cc(F)cc1)CN(C)C

>  <s_sd_BIOSOLVEIT.INFINISEE\_REAGENT2\_SMILES>  (1116) 
[R2*]c1nc([R1*])c2c(n1)cccc2

>  <s_sd_BIOSOLVEIT.INFINISEE\_REAGENT3\_SMILES>  (1116) 
[R2*]NCc1c(N)cc(Cl)cc1

>  <s_sd_BIOSOLVEIT.INFINISEE\_SPACE>  (1116) 
REALSpace_44bn_2023-08

>  <s_vsw_compound_code>  (1116) 
53251

>  <s_vsw_variant>  (1116) 
53251-1

>  <r_epik_Charging_Adjusted_Penalty>  (1116) 
0.12135642364039199

>  <r_epik_Ionization_Penalty>  (1116) 
0.061600000000000002

>  <r_epik_Ionization_Penalty_Charging>  (1116) 
0.0613

>  <r_epik_Ionization_Penalty_Neutral>  (1116) 
0.00029999999999999997

>  <r_epik_State_Penalty>  (1116) 
0.060100000000000001

>  <r_i_docking_score>  (1116) 
-3.8807463109106299

>  <r_i_glide_ecoul>  (1116) 
-5.2407121658325204

>  <r_i_glide_eff_state_penalty>  (1116) 
0.060100000000000001

>  <r_i_glide_einternal>  (1116) 
7.1313934326171902

>  <r_i_glide_emodel>  (1116) 
-52.0941655770037

>  <r_i_glide_energy>  (1116) 
-38.104046821594203

>  <r_i_glide_erotb>  (1116) 
0.64773326217041804

>  <r_i_glide_esite>  (1116) 
-0.29409763442966103

>  <r_i_glide_evdw>  (1116) 
-32.863334655761697

>  <r_i_glide_gscore>  (1116) 
-3.9408463109106302

>  <r_i_glide_hbond>  (1116) 
-0.30520188871209802

>  <r_i_glide_ligand_efficiency>  (1116) 
-0.117598373057898

>  <r_i_glide_ligand_efficiency_ln>  (1116) 
-0.863057886117503

>  <r_i_glide_ligand_efficiency_sa>  (1116) 
-0.377200818295235

>  <r_i_glide_lipo>  (1116) 
-1.33487778545814

>  <r_i_glide_metal>  (1116) 
-0

>  <r_i_glide_rewards>  (1116) 
-0.22512870681818101

>  <r_lp_Energy>  (1116) 
20.521830000000001

>  <r_qp_ACxDN^.5/SA>  (1116) 
0.016263799999999998

>  <r_qp_CIQPlogS>  (1116) 
-6.306

>  <r_qp_EA(eV)>  (1116) 
0.68100000000000005

>  <r_qp_FISA>  (1116) 
93.667000000000002

>  <r_qp_FOSA>  (1116) 
186.09899999999999

>  <r_qp_IP(eV)>  (1116) 
8.1229999999999993

>  <r_qp_Jm>  (1116) 
0.013956517518314599

>  <r_qp_PISA>  (1116) 
304.58100000000002

>  <r_qp_PSA>  (1116) 
70.382000000000005

>  <r_qp_PercentHumanOralAbsorption>  (1116) 
100

>  <r_qp_QPPCaco>  (1116) 
319.56099999999998

>  <r_qp_QPPMDCK>  (1116) 
606.00300000000004

>  <r_qp_QPlogBB>  (1116) 
-0.17999999999999999

>  <r_qp_QPlogHERG>  (1116) 
-6.0979999999999999

>  <r_qp_QPlogKhsa>  (1116) 
0.58499999999999996

>  <r_qp_QPlogKp>  (1116) 
-3.371

>  <r_qp_QPlogPC16>  (1116) 
14.44

>  <r_qp_QPlogPo/w>  (1116) 
4.3840000000000003

>  <r_qp_QPlogPoct>  (1116) 
23.905000000000001

>  <r_qp_QPlogPw>  (1116) 
13.177

>  <r_qp_QPlogS>  (1116) 
-4.1509999999999998

>  <r_qp_QPpolrz>  (1116) 
44.674999999999997

>  <r_qp_SASA>  (1116) 
690.18100000000004

>  <r_qp_SAamideO>  (1116) 
0

>  <r_qp_SAfluorine>  (1116) 
40.043999999999997

>  <r_qp_WPSA>  (1116) 
105.83499999999999

>  <r_qp_accptHB>  (1116) 
6

>  <r_qp_dip^2/V>  (1116) 
0.0215926

>  <r_qp_dipole>  (1116) 
5.383

>  <r_qp_donorHB>  (1116) 
3.5

>  <r_qp_glob>  (1116) 
0.8524389

>  <r_qp_mol_MW>  (1116) 
464.97199999999998

>  <r_qp_volume>  (1116) 
1341.8130000000001

>  <r_sd_BIOSOLVEIT.INFINISEE\_FTREES\_SIMILARITY>  (1116) 
0.90500000000000003

>  <r_sd_BIOSOLVEIT.LOGP>  (1116) 
3.8732000000000002

>  <r_sd_BIOSOLVEIT.MOLECULAR\_WEIGHT>  (1116) 
465.98099999999999

>  <r_sd_BIOSOLVEIT.TPSA>  (1116) 
80.299999999999997

>  <i_epik_Tot_Q>  (1116) 
2

>  <i_epik_Tot_abs_Q>  (1116) 
2

>  <i_f3d_flags>  (1116) 
0

>  <i_i_glide_confnum>  (1116) 
2

>  <i_i_glide_lignum>  (1116) 
631

>  <i_i_glide_posenum>  (1116) 
17

>  <i_i_glide_rotatable_bonds>  (1116) 
8

>  <i_lp_mmshare_version>  (1116) 
65135

>  <i_m_ct_format>  (1116) 
2

>  <i_m_source_file_index>  (1116) 
1665

>  <i_qp_#NandO>  (1116) 
6

>  <i_qp_#acid>  (1116) 
0

>  <i_qp_#amide>  (1116) 
0

>  <i_qp_#amidine>  (1116) 
0

>  <i_qp_#amine>  (1116) 
1

>  <i_qp_#in34>  (1116) 
0

>  <i_qp_#in56>  (1116) 
22

>  <i_qp_#metab>  (1116) 
6

>  <i_qp_#nonHatm>  (1116) 
33

>  <i_qp_#noncon>  (1116) 
0

>  <i_qp_#ringatoms>  (1116) 
22

>  <i_qp_#rotor>  (1116) 
9

>  <i_qp_#rtvFG>  (1116) 
0

>  <i_qp_#stars>  (1116) 
0

>  <i_qp_CNS>  (1116) 
0

>  <i_qp_HumanOralAbsorption>  (1116) 
3

>  <i_qp_RuleOfFive>  (1116) 
0

>  <i_qp_RuleOfThree>  (1116) 
0

>  <i_sd_BIOSOLVEIT.INFINISEE\_REAGENT1\_NAME>  (1116) 
21896940

>  <i_sd_BIOSOLVEIT.INFINISEE\_REAGENT2\_NAME>  (1116) 
22360182

>  <i_sd_BIOSOLVEIT.INFINISEE\_REAGENT3\_NAME>  (1116) 
21936774

>  <i_sd_BIOSOLVEIT.INFINISEE\_RESULT\_RANK>  (1116) 
69670

>  <i_sd_version>  (1116) 
0

>  <b_lp_Chiralities_Consistent>  (1116) 
1

>  <b_sd_chiral_flag>  (1116) 
0

>  <canonical_id>  (1116) 
ATP-HTVS-B1FBA11D65B8

>  <compound_code>  (1116) 
53251

>  <title>  (1116) 
m_282030aaa____21896940____22360182____21936774

>  <variant>  (1116) 
53251-1

>  <source_file>  (1116) 
运行/运行/ATP-VSW/ATP-VSW-DOCK_HTVS_1-003_lib/ATP-VSW-DOCK_HTVS_1-003_lib.mae

>  <canonical_smiles>  (1116) 
C[NH+](C)Cc1cc(F)ccc1CNc1nc(NCc2ccc(Cl)cc2N)[nH+]c2ccccc12

>  <scaffold>  (1116) 
c1ccc(CNc2nc(NCc3ccccc3)c3ccccc3[nH+]2)cc1

>  <molecular_formula>  (1116) 
C25H28ClFN6+2

$$$$
ATP-HTVS-B23516995CCF
     RDKit          3D

 67 70  0  0  0  0  0  0  0  0999 V2000
  194.3627  185.0067  160.2915 O   0  0  0  0  0  0  0  0  0  0  0  0
  195.3385  185.2968  159.3804 C   0  0  0  0  0  0  0  0  0  0  0  0
  195.6863  186.5941  158.9153 C   0  0  0  0  0  0  0  0  0  0  0  0
  196.6712  186.7817  157.9227 C   0  0  0  0  0  0  0  0  0  0  0  0
  197.3790  185.6545  157.4263 C   0  0  0  0  0  0  0  0  0  0  0  0
  197.0955  184.3789  157.9840 C   0  0  0  0  0  0  0  0  0  0  0  0
  196.0539  184.1949  158.8834 C   0  0  0  0  0  0  0  0  0  0  0  0
  198.4581  185.8518  156.3617 C   0  0  1  0  0  0  0  0  0  0  0  0
  198.1907  185.3863  155.0077 N   0  0  0  0  0  0  0  0  0  0  0  0
  197.9053  184.0673  154.6225 C   0  0  0  0  0  0  0  0  0  0  0  0
  197.9800  183.1336  155.5540 N   0  0  0  0  0  0  0  0  0  0  0  0
  197.5992  181.8893  155.3017 C   0  0  0  0  0  0  0  0  0  0  0  0
  197.6680  180.9818  156.3918 N   0  0  0  0  0  0  0  0  0  0  0  0
  198.7730  180.0939  156.5002 C   0  0  1  0  0  0  0  0  0  0  0  0
  200.1820  180.6992  156.5480 C   0  0  0  0  0  0  0  0  0  0  0  0
  201.3600  180.0028  156.1446 C   0  0  0  0  0  0  0  0  0  0  0  0
  202.5978  180.6854  156.1755 C   0  0  0  0  0  0  0  0  0  0  0  0
  202.6902  182.0415  156.5684 C   0  0  0  0  0  0  0  0  0  0  0  0
  201.5278  182.7090  157.0027 C   0  0  0  0  0  0  0  0  0  0  0  0
  200.3219  182.0137  157.0494 C   0  0  0  0  0  0  0  0  0  0  0  0
  201.3361  178.5273  155.7008 C   0  0  1  0  0  0  0  0  0  0  0  0
  201.3074  177.5670  156.8414 N   0  0  1  0  0  0  0  0  0  0  0  0
  200.0936  177.6193  157.6674 C   0  0  2  0  0  0  0  0  0  0  0  0
  201.5794  176.1672  156.4154 C   0  0  2  0  0  0  0  0  0  0  0  0
  197.1942  181.5124  154.0290 C   0  0  0  0  0  0  0  0  0  0  0  0
  197.1418  182.5332  153.0499 C   0  0  0  0  0  0  0  0  0  0  0  0
  197.5064  183.7916  153.4041 N   0  0  0  0  0  0  0  0  0  0  0  0
  196.7238  182.2397  151.7538 C   0  0  0  0  0  0  0  0  0  0  0  0
  196.3621  180.9127  151.4190 C   0  0  0  0  0  0  0  0  0  0  0  0
  196.4160  179.8745  152.3820 C   0  0  0  0  0  0  0  0  0  0  0  0
  196.8252  180.1679  153.6951 C   0  0  0  0  0  0  0  0  0  0  0  0
  193.6608  186.0714  160.8999 C   0  0  1  0  0  0  0  0  0  0  0  0
  194.4625  186.6834  162.0462 C   0  0  1  0  0  0  0  0  0  0  0  0
  193.5351  187.2453  162.9412 O   0  0  0  0  0  0  0  0  0  0  0  0
  195.1816  187.4850  159.2923 H   0  0  0  0  0  0  0  0  0  0  0  0
  196.8881  187.7859  157.5820 H   0  0  0  0  0  0  0  0  0  0  0  0
  197.6469  183.4789  157.7452 H   0  0  0  0  0  0  0  0  0  0  0  0
  195.8208  183.1915  159.2067 H   0  0  0  0  0  0  0  0  0  0  0  0
  198.6555  186.9178  156.2753 H   0  0  0  0  0  0  0  0  0  0  0  0
  199.3931  185.4316  156.7319 H   0  0  0  0  0  0  0  0  0  0  0  0
  198.0999  186.0769  154.2823 H   0  0  0  0  0  0  0  0  0  0  0  0
  196.8137  180.7629  156.8927 H   0  0  0  0  0  0  0  0  0  0  0  0
  198.5936  179.6239  157.4651 H   0  0  0  0  0  0  0  0  0  0  0  0
  198.6709  179.3138  155.7354 H   0  0  0  0  0  0  0  0  0  0  0  0
  203.5221  180.1917  155.8792 H   0  0  0  0  0  0  0  0  0  0  0  0
  203.6310  182.5833  156.5689 H   0  0  0  0  0  0  0  0  0  0  0  0
  201.5432  183.7523  157.2987 H   0  0  0  0  0  0  0  0  0  0  0  0
  199.4720  182.5355  157.4615 H   0  0  0  0  0  0  0  0  0  0  0  0
  200.5232  178.3488  154.9909 H   0  0  0  0  0  0  0  0  0  0  0  0
  202.2509  178.3638  155.1181 H   0  0  0  0  0  0  0  0  0  0  0  0
  199.2340  177.4749  157.0120 H   0  0  0  0  0  0  0  0  0  0  0  0
  200.0158  178.6131  158.1299 H   0  0  0  0  0  0  0  0  0  0  0  0
  200.0437  176.8660  158.4574 H   0  0  0  0  0  0  0  0  0  0  0  0
  200.8043  175.8225  155.7220 H   0  0  0  0  0  0  0  0  0  0  0  0
  201.5574  175.5163  157.2948 H   0  0  0  0  0  0  0  0  0  0  0  0
  202.5605  176.0740  155.9422 H   0  0  0  0  0  0  0  0  0  0  0  0
  196.6819  183.0492  151.0210 H   0  0  0  0  0  0  0  0  0  0  0  0
  196.0331  180.7021  150.4011 H   0  0  0  0  0  0  0  0  0  0  0  0
  196.1316  178.8559  152.1138 H   0  0  0  0  0  0  0  0  0  0  0  0
  196.8634  179.3829  154.4309 H   0  0  0  0  0  0  0  0  0  0  0  0
  193.3550  186.8226  160.1779 H   0  0  0  0  0  0  0  0  0  0  0  0
  192.7356  185.6215  161.2713 H   0  0  0  0  0  0  0  0  0  0  0  0
  195.0521  185.9201  162.5640 H   0  0  0  0  0  0  0  0  0  0  0  0
  195.1711  187.4319  161.6871 H   0  0  0  0  0  0  0  0  0  0  0  0
  193.0408  187.9193  162.4933 H   0  0  0  0  0  0  0  0  0  0  0  0
  197.4037  184.5458  152.6733 H   0  0  0  0  0  0  0  0  0  0  0  0
  202.0870  177.8210  157.4372 H   0  0  0  0  0  0  0  0  0  0  0  0
  1  2  1  0
  1 32  1  0
  2  3  1  0
  2  7  2  0
  3  4  2  0
  3 35  1  0
  4  5  1  0
  4 36  1  0
  5  6  2  0
  5  8  1  0
  6  7  1  0
  6 37  1  0
  7 38  1  0
  8  9  1  0
  8 39  1  6
  8 40  1  0
  9 10  1  0
  9 41  1  0
 10 11  1  0
 10 27  2  0
 11 12  2  0
 12 13  1  0
 12 25  1  0
 13 14  1  0
 13 42  1  0
 14 15  1  0
 14 43  1  1
 14 44  1  0
 15 16  1  0
 15 20  2  0
 16 17  2  0
 16 21  1  0
 17 18  1  0
 17 45  1  0
 18 19  2  0
 18 46  1  0
 19 20  1  0
 19 47  1  0
 20 48  1  0
 21 22  1  0
 21 49  1  6
 21 50  1  0
 22 23  1  0
 22 24  1  0
 22 67  1  1
 23 51  1  6
 23 52  1  0
 23 53  1  0
 24 54  1  6
 24 55  1  0
 24 56  1  0
 25 26  1  0
 25 31  2  0
 26 27  1  0
 26 28  2  0
 27 66  1  0
 28 29  1  0
 28 57  1  0
 29 30  2  0
 29 58  1  0
 30 31  1  0
 30 59  1  0
 31 60  1  0
 32 33  1  0
 32 61  1  6
 32 62  1  0
 33 34  1  0
 33 63  1  1
 33 64  1  0
 34 65  1  0
M  CHG  2  22   1  27   1
M  END
>  <s_epik_cmdline>  (1117) 
J2VwaWtfcHl0aG9uJywgJy1waCcsICc3LjAwMDAwMCcsICctcGh0JywgJzIuMDAwMDAwJywgJy1tcycsICcxNicsICctdG4nLCAnOCcsICctbWEnLCAnMjAwJywgJy1pbWFlJywgJzxpbmZpbGUubWFlPicsICctb21hZScsICc8b3V0ZmlsZS5tYWU+Jw==

>  <s_epik_input>  (1117) 
W09IXVtDSDJdW0NIMl1PYzFbY0hdW2NIXWMoW2NIXVtjSF0xKVtDSDJdW05IXWMobmMoYzIzKVtjSF1bY0hdW2NIXVtjSF0zKW5jMltOSF1bQ0gyXWM0YyhbQ0gyXU4oW0NIM10pW0NIM10pW2NIXVtjSF1bY0hdW2NIXTQ=

>  <s_i_glide_gridfile>  (1117) 
ATP-Grid

>  <s_lp_Force_Field>  (1117) 
OPLS_2005

>  <s_lp_Variant>  (1117) 
m_282030aaa____21933754____22360182____21973156-1

>  <s_lp_label>  (1117) 
1882_sdstereoexpander_1_neutralizer_1_epik_1_stereoizer_1

>  <s_m_source_file>  (1117) 
ATP-VSW-LIGPREP-002-in.maegz

>  <s_sd_BIOSOLVEIT.INFINISEE\_QUERY\_NAME>  (1117) 
Ref-Lig

>  <s_sd_BIOSOLVEIT.INFINISEE\_QUERY\_SMILES>  (1117) 
S(c1nc2c(cc1C[NH2+]Cc3ccc(cc3)C[NH+](C)C)cccc2)Cc4ccccc4

>  <s_sd_BIOSOLVEIT.INFINISEE\_REACTION\_NAME>  (1117) 
m_282030aaa

>  <s_sd_BIOSOLVEIT.INFINISEE\_REAGENT1\_SMILES>  (1117) 
[R1*]NCc1ccc(OCCO)cc1

>  <s_sd_BIOSOLVEIT.INFINISEE\_REAGENT2\_SMILES>  (1117) 
[R2*]c1nc([R1*])c2c(n1)cccc2

>  <s_sd_BIOSOLVEIT.INFINISEE\_REAGENT3\_SMILES>  (1117) 
[R2*]NCc1c(cccc1)CN(C)C

>  <s_sd_BIOSOLVEIT.INFINISEE\_SPACE>  (1117) 
REALSpace_44bn_2023-08

>  <s_vsw_compound_code>  (1117) 
60194

>  <s_vsw_variant>  (1117) 
60194-1

>  <r_epik_Charging_Adjusted_Penalty>  (1117) 
0.11684021110496901

>  <r_epik_Ionization_Penalty>  (1117) 
0.055

>  <r_epik_Ionization_Penalty_Charging>  (1117) 
0.055

>  <r_epik_Ionization_Penalty_Neutral>  (1117) 
0

>  <r_epik_State_Penalty>  (1117) 
0.061800000000000001

>  <r_i_docking_score>  (1117) 
-4.7190851020773001

>  <r_i_glide_ecoul>  (1117) 
-11.886739730835

>  <r_i_glide_eff_state_penalty>  (1117) 
0.061800000000000001

>  <r_i_glide_einternal>  (1117) 
11.956137657165501

>  <r_i_glide_emodel>  (1117) 
-60.174102046591301

>  <r_i_glide_energy>  (1117) 
-45.246908187866197

>  <r_i_glide_erotb>  (1117) 
0.95265848019923105

>  <r_i_glide_esite>  (1117) 
-0.10601933005699

>  <r_i_glide_evdw>  (1117) 
-33.3601684570312

>  <r_i_glide_gscore>  (1117) 
-4.7808851020773

>  <r_i_glide_hbond>  (1117) 
-0.265308867734661

>  <r_i_glide_ligand_efficiency>  (1117) 
-0.13879662064933199

>  <r_i_glide_ligand_efficiency_ln>  (1117) 
-1.04257826490246

>  <r_i_glide_ligand_efficiency_sa>  (1117) 
-0.44964716970447199

>  <r_i_glide_lipo>  (1117) 
-1.4106270474626199

>  <r_i_glide_metal>  (1117) 
-0

>  <r_i_glide_rewards>  (1117) 
-0.50056895454545303

>  <r_lp_Energy>  (1117) 
18.014047999999999

>  <r_lp_tautomer_probability>  (1117) 
1

>  <r_qp_ACxDN^.5/SA>  (1117) 
0.018576800000000001

>  <r_qp_CIQPlogS>  (1117) 
-5.6790000000000003

>  <r_qp_EA(eV)>  (1117) 
0.51900000000000002

>  <r_qp_FISA>  (1117) 
68.400999999999996

>  <r_qp_FOSA>  (1117) 
225.684

>  <r_qp_IP(eV)>  (1117) 
7.9660000000000002

>  <r_qp_Jm>  (1117) 
2.64467776043917

>  <r_qp_PISA>  (1117) 
400.536

>  <r_qp_PSA>  (1117) 
73.688000000000002

>  <r_qp_PercentHumanOralAbsorption>  (1117) 
100

>  <r_qp_QPPCaco>  (1117) 
554.82799999999997

>  <r_qp_QPPMDCK>  (1117) 
289.53100000000001

>  <r_qp_QPlogBB>  (1117) 
-0.372

>  <r_qp_QPlogHERG>  (1117) 
-6.3689999999999998

>  <r_qp_QPlogKhsa>  (1117) 
0.38

>  <r_qp_QPlogKp>  (1117) 
-2.2799999999999998

>  <r_qp_QPlogPC16>  (1117) 
14.965

>  <r_qp_QPlogPo/w>  (1117) 
4.0789999999999997

>  <r_qp_QPlogPoct>  (1117) 
23.518999999999998

>  <r_qp_QPlogPw>  (1117) 
13.664999999999999

>  <r_qp_QPlogS>  (1117) 
-2.9580000000000002

>  <r_qp_QPpolrz>  (1117) 
45.290999999999997

>  <r_qp_SASA>  (1117) 
694.62

>  <r_qp_SAamideO>  (1117) 
0

>  <r_qp_SAfluorine>  (1117) 
0

>  <r_qp_WPSA>  (1117) 
0

>  <r_qp_accptHB>  (1117) 
7.4500000000000002

>  <r_qp_dip^2/V>  (1117) 
0.012307999999999999

>  <r_qp_dipole>  (1117) 
4.125

>  <r_qp_donorHB>  (1117) 
3

>  <r_qp_glob>  (1117) 
0.86399910000000002

>  <r_qp_mol_MW>  (1117) 
457.57400000000001

>  <r_qp_volume>  (1117) 
1382.4290000000001

>  <r_sd_BIOSOLVEIT.INFINISEE\_FTREES\_SIMILARITY>  (1117) 
0.90300000000000002

>  <r_sd_BIOSOLVEIT.LOGP>  (1117) 
2.8696000000000002

>  <r_sd_BIOSOLVEIT.MOLECULAR\_WEIGHT>  (1117) 
458.58300000000003

>  <r_sd_BIOSOLVEIT.TPSA>  (1117) 
83.739999999999995

>  <i_epik_Tot_Q>  (1117) 
2

>  <i_epik_Tot_abs_Q>  (1117) 
2

>  <i_f3d_flags>  (1117) 
0

>  <i_i_glide_confnum>  (1117) 
22

>  <i_i_glide_lignum>  (1117) 
670

>  <i_i_glide_posenum>  (1117) 
4

>  <i_i_glide_rotatable_bonds>  (1117) 
12

>  <i_lp_mmshare_version>  (1117) 
65135

>  <i_m_ct_format>  (1117) 
2

>  <i_m_source_file_index>  (1117) 
1882

>  <i_qp_#NandO>  (1117) 
7

>  <i_qp_#acid>  (1117) 
0

>  <i_qp_#amide>  (1117) 
0

>  <i_qp_#amidine>  (1117) 
0

>  <i_qp_#amine>  (1117) 
1

>  <i_qp_#in34>  (1117) 
0

>  <i_qp_#in56>  (1117) 
22

>  <i_qp_#metab>  (1117) 
7

>  <i_qp_#nonHatm>  (1117) 
34

>  <i_qp_#noncon>  (1117) 
0

>  <i_qp_#ringatoms>  (1117) 
22

>  <i_qp_#rotor>  (1117) 
12

>  <i_qp_#rtvFG>  (1117) 
0

>  <i_qp_#stars>  (1117) 
0

>  <i_qp_CNS>  (1117) 
0

>  <i_qp_HumanOralAbsorption>  (1117) 
3

>  <i_qp_RuleOfFive>  (1117) 
0

>  <i_qp_RuleOfThree>  (1117) 
1

>  <i_sd_BIOSOLVEIT.INFINISEE\_REAGENT1\_NAME>  (1117) 
21933754

>  <i_sd_BIOSOLVEIT.INFINISEE\_REAGENT2\_NAME>  (1117) 
22360182

>  <i_sd_BIOSOLVEIT.INFINISEE\_REAGENT3\_NAME>  (1117) 
21973156

>  <i_sd_BIOSOLVEIT.INFINISEE\_RESULT\_RANK>  (1117) 
83170

>  <i_sd_version>  (1117) 
0

>  <b_lp_Chiralities_Consistent>  (1117) 
1

>  <b_sd_chiral_flag>  (1117) 
0

>  <canonical_id>  (1117) 
ATP-HTVS-B23516995CCF

>  <compound_code>  (1117) 
60194

>  <title>  (1117) 
m_282030aaa____21933754____22360182____21973156

>  <variant>  (1117) 
60194-1

>  <source_file>  (1117) 
运行/运行/ATP-VSW/ATP-VSW-DOCK_HTVS_1-002_lib.maegz

>  <canonical_smiles>  (1117) 
C[NH+](C)Cc1ccccc1CNc1nc(NCc2ccc(OCCO)cc2)[nH+]c2ccccc12

>  <scaffold>  (1117) 
c1ccc(CNc2nc(NCc3ccccc3)c3ccccc3[nH+]2)cc1

>  <molecular_formula>  (1117) 
C27H33N5O2+2

$$$$
ATP-HTVS-B262751D15E7
     RDKit          3D

 52 55  0  0  0  0  0  0  0  0999 V2000
  199.9359  182.4797  157.1338 O   0  0  0  0  0  0  0  0  0  0  0  0
  198.8735  181.9738  156.7763 C   0  0  0  0  0  0  0  0  0  0  0  0
  197.6653  182.2603  157.2849 N   0  0  0  0  0  0  0  0  0  0  0  0
  197.3091  183.2784  158.2197 C   0  0  0  0  0  0  0  0  0  0  0  0
  196.1700  183.0927  159.0460 C   0  0  0  0  0  0  0  0  0  0  0  0
  195.8184  184.0950  159.9746 C   0  0  0  0  0  0  0  0  0  0  0  0
  196.5058  185.3184  160.0208 C   0  0  0  0  0  0  0  0  0  0  0  0
  197.6252  185.5139  159.1934 C   0  0  0  0  0  0  0  0  0  0  0  0
  198.0289  184.4956  158.3073 C   0  0  0  0  0  0  0  0  0  0  0  0
  195.2788  181.8483  158.9398 C   0  0  1  0  0  0  0  0  0  0  0  0
  194.0256  182.0254  158.1381 N   0  0  2  0  0  0  0  0  0  0  0  0
  193.3189  183.3053  158.3270 C   0  0  2  0  0  0  0  0  0  0  0  0
  193.0922  180.8896  158.3027 C   0  0  2  0  0  0  0  0  0  0  0  0
  198.8591  180.8493  155.7863 C   0  0  0  0  0  0  0  0  0  0  0  0
  198.1050  180.8892  154.5802 C   0  0  0  0  0  0  0  0  0  0  0  0
  198.1723  179.7589  153.7196 C   0  0  0  0  0  0  0  0  0  0  0  0
  198.9342  178.6853  154.0060 N   0  0  0  0  0  0  0  0  0  0  0  0
  199.6516  178.6349  155.1479 C   0  0  0  0  0  0  0  0  0  0  0  0
  200.4227  177.3883  155.3726 C   0  0  0  0  0  0  0  0  0  0  0  0
  200.8368  176.9870  156.6673 C   0  0  0  0  0  0  0  0  0  0  0  0
  201.5491  175.8702  156.9277 N   0  0  0  0  0  0  0  0  0  0  0  0
  201.8910  175.0788  155.8944 C   0  0  0  0  0  0  0  0  0  0  0  0
  201.5343  175.3619  154.5659 C   0  0  0  0  0  0  0  0  0  0  0  0
  200.7941  176.5327  154.3060 C   0  0  0  0  0  0  0  0  0  0  0  0
  199.6534  179.7166  156.0502 C   0  0  0  0  0  0  0  0  0  0  0  0
  197.4238  179.7642  152.5224 C   0  0  0  0  0  0  0  0  0  0  0  0
  196.6337  180.8677  152.1595 C   0  0  0  0  0  0  0  0  0  0  0  0
  196.5855  181.9927  152.9999 C   0  0  0  0  0  0  0  0  0  0  0  0
  197.3145  182.0014  154.2039 C   0  0  0  0  0  0  0  0  0  0  0  0
  196.9422  181.6166  157.0049 H   0  0  0  0  0  0  0  0  0  0  0  0
  194.9514  183.9668  160.6011 H   0  0  0  0  0  0  0  0  0  0  0  0
  196.1553  186.1026  160.6778 H   0  0  0  0  0  0  0  0  0  0  0  0
  198.1553  186.4494  159.2341 H   0  0  0  0  0  0  0  0  0  0  0  0
  198.8765  184.6864  157.6676 H   0  0  0  0  0  0  0  0  0  0  0  0
  195.8506  181.0706  158.4950 H   0  0  0  0  0  0  0  0  0  0  0  0
  195.0546  181.4834  159.9391 H   0  0  0  0  0  0  0  0  0  0  0  0
  193.0215  183.4799  159.3606 H   0  0  0  0  0  0  0  0  0  0  0  0
  192.3995  183.2941  157.7358 H   0  0  0  0  0  0  0  0  0  0  0  0
  193.9061  184.1600  157.9805 H   0  0  0  0  0  0  0  0  0  0  0  0
  192.7437  180.8047  159.3277 H   0  0  0  0  0  0  0  0  0  0  0  0
  193.5487  179.9387  158.0794 H   0  0  0  0  0  0  0  0  0  0  0  0
  192.2193  181.0045  157.6684 H   0  0  0  0  0  0  0  0  0  0  0  0
  200.5896  177.5776  157.5394 H   0  0  0  0  0  0  0  0  0  0  0  0
  202.4534  174.1920  156.1360 H   0  0  0  0  0  0  0  0  0  0  0  0
  201.8200  174.6989  153.7659 H   0  0  0  0  0  0  0  0  0  0  0  0
  200.5186  176.7599  153.2880 H   0  0  0  0  0  0  0  0  0  0  0  0
  200.2331  179.6937  156.9588 H   0  0  0  0  0  0  0  0  0  0  0  0
  197.4698  178.9027  151.8737 H   0  0  0  0  0  0  0  0  0  0  0  0
  196.0634  180.8605  151.2428 H   0  0  0  0  0  0  0  0  0  0  0  0
  195.9755  182.8470  152.7416 H   0  0  0  0  0  0  0  0  0  0  0  0
  197.2472  182.8949  154.8091 H   0  0  0  0  0  0  0  0  0  0  0  0
  194.2642  182.0590  157.1509 H   0  0  0  0  0  0  0  0  0  0  0  0
  1  2  2  0
  2  3  1  0
  2 14  1  0
  3  4  1  0
  3 30  1  0
  4  5  1  0
  4  9  2  0
  5  6  2  0
  5 10  1  0
  6  7  1  0
  6 31  1  0
  7  8  2  0
  7 32  1  0
  8  9  1  0
  8 33  1  0
  9 34  1  0
 10 11  1  0
 10 35  1  6
 10 36  1  0
 11 12  1  0
 11 13  1  0
 11 52  1  6
 12 37  1  1
 12 38  1  0
 12 39  1  0
 13 40  1  1
 13 41  1  0
 13 42  1  0
 14 15  1  0
 14 25  2  0
 15 16  1  0
 15 29  2  0
 16 17  1  0
 16 26  2  0
 17 18  2  0
 18 19  1  0
 18 25  1  0
 19 20  2  0
 19 24  1  0
 20 21  1  0
 20 43  1  0
 21 22  2  0
 22 23  1  0
 22 44  1  0
 23 24  2  0
 23 45  1  0
 24 46  1  0
 25 47  1  0
 26 27  1  0
 26 48  1  0
 27 28  2  0
 27 49  1  0
 28 29  1  0
 28 50  1  0
 29 51  1  0
M  CHG  1  11   1
M  END
>  <s_epik_cmdline>  (1118) 
J2VwaWtfcHl0aG9uJywgJy1waCcsICc3LjAwMDAwMCcsICctcGh0JywgJzIuMDAwMDAwJywgJy1tcycsICcxNicsICctdG4nLCAnOCcsICctbWEnLCAnMjAwJywgJy1pbWFlJywgJzxpbmZpbGUubWFlPicsICctb21hZScsICc8b3V0ZmlsZS5tYWU+Jw==

>  <s_epik_input>  (1118) 
W2NIXTFbY0hdW2NIXVtjSF1jKFtDSDJdTihbQ0gzXSlbQ0gzXSljMVtOSF1DKD1PKWMyW2NIXWMobmMoYzIzKVtjSF1bY0hdW2NIXVtjSF0zKS1jNFtjSF1uW2NIXVtjSF1bY0hdNA==

>  <s_i_glide_gridfile>  (1118) 
ATP-Grid

>  <s_lp_Force_Field>  (1118) 
OPLS_2005

>  <s_lp_Variant>  (1118) 
m_22bcb____10638332____24596716-1

>  <s_lp_label>  (1118) 
1398_sdstereoexpander_1_neutralizer_1_epik_1_stereoizer_1

>  <s_m_source_file>  (1118) 
ATP-VSW-LIGPREP-002-in.maegz

>  <s_sd_BIOSOLVEIT.INFINISEE\_QUERY\_NAME>  (1118) 
Ref-Lig

>  <s_sd_BIOSOLVEIT.INFINISEE\_QUERY\_SMILES>  (1118) 
S(c1nc2c(cc1C[NH2+]Cc3ccc(cc3)C[NH+](C)C)cccc2)Cc4ccccc4

>  <s_sd_BIOSOLVEIT.INFINISEE\_REACTION\_NAME>  (1118) 
m_22bcb

>  <s_sd_BIOSOLVEIT.INFINISEE\_REAGENT1\_SMILES>  (1118) 
[R1*]Nc1c(cccc1)CN(C)C

>  <s_sd_BIOSOLVEIT.INFINISEE\_REAGENT2\_SMILES>  (1118) 
[R1*]C(=O)c1c2c(nc(c3cnccc3)c1)cccc2

>  <s_sd_BIOSOLVEIT.INFINISEE\_SPACE>  (1118) 
REALSpace_44bn_2023-08

>  <s_vsw_compound_code>  (1118) 
44706

>  <s_vsw_variant>  (1118) 
44706-1

>  <r_epik_Charging_Adjusted_Penalty>  (1118) 
0.099574096991313796

>  <r_epik_Ionization_Penalty>  (1118) 
0.050500000000000003

>  <r_epik_Ionization_Penalty_Charging>  (1118) 
0.049799999999999997

>  <r_epik_Ionization_Penalty_Neutral>  (1118) 
0.00069999999999999999

>  <r_epik_State_Penalty>  (1118) 
0.049799999999999997

>  <r_i_docking_score>  (1118) 
-4.9502982144635501

>  <r_i_glide_ecoul>  (1118) 
-9.1778316497802699

>  <r_i_glide_eff_state_penalty>  (1118) 
0.049799999999999997

>  <r_i_glide_einternal>  (1118) 
3.4664149284362802

>  <r_i_glide_emodel>  (1118) 
-62.302307003953302

>  <r_i_glide_energy>  (1118) 
-44.303239822387702

>  <r_i_glide_erotb>  (1118) 
0.66076047944921401

>  <r_i_glide_esite>  (1118) 
-0.15358003349122501

>  <r_i_glide_evdw>  (1118) 
-35.125408172607401

>  <r_i_glide_gscore>  (1118) 
-5.0000982144635504

>  <r_i_glide_hbond>  (1118) 
-0.15246374560988599

>  <r_i_glide_ligand_efficiency>  (1118) 
-0.17069993842977799

>  <r_i_glide_ligand_efficiency_ln>  (1118) 
-1.1334927623803499

>  <r_i_glide_ligand_efficiency_sa>  (1118) 
-0.52444429239269097

>  <r_i_glide_lipo>  (1118) 
-1.4273171678051499

>  <r_i_glide_metal>  (1118) 
-0

>  <r_i_glide_rewards>  (1118) 
-0.79455259090909003

>  <r_lp_Energy>  (1118) 
34.820965000000001

>  <r_qp_ACxDN^.5/SA>  (1118) 
0.0099538999999999999

>  <r_qp_CIQPlogS>  (1118) 
-4.4619999999999997

>  <r_qp_EA(eV)>  (1118) 
1.3160000000000001

>  <r_qp_FISA>  (1118) 
64.138000000000005

>  <r_qp_FOSA>  (1118) 
159.32400000000001

>  <r_qp_IP(eV)>  (1118) 
8.9329999999999998

>  <r_qp_Jm>  (1118) 
0.035501836511858398

>  <r_qp_PISA>  (1118) 
479.77999999999997

>  <r_qp_PSA>  (1118) 
58.948

>  <r_qp_PercentHumanOralAbsorption>  (1118) 
100

>  <r_qp_QPPCaco>  (1118) 
608.94299999999998

>  <r_qp_QPPMDCK>  (1118) 
320.17200000000003

>  <r_qp_QPlogBB>  (1118) 
0.001

>  <r_qp_QPlogHERG>  (1118) 
-7.7000000000000002

>  <r_qp_QPlogKhsa>  (1118) 
0.45700000000000002

>  <r_qp_QPlogKp>  (1118) 
-2.5939999999999999

>  <r_qp_QPlogPC16>  (1118) 
14.076000000000001

>  <r_qp_QPlogPo/w>  (1118) 
3.8780000000000001

>  <r_qp_QPlogPoct>  (1118) 
20.707000000000001

>  <r_qp_QPlogPw>  (1118) 
12.368

>  <r_qp_QPlogS>  (1118) 
-4.4379999999999997

>  <r_qp_QPpolrz>  (1118) 
45.909999999999997

>  <r_qp_SASA>  (1118) 
703.24300000000005

>  <r_qp_SAamideO>  (1118) 
0

>  <r_qp_SAfluorine>  (1118) 
0

>  <r_qp_WPSA>  (1118) 
0

>  <r_qp_accptHB>  (1118) 
7

>  <r_qp_dip^2/V>  (1118) 
0.017599699999999999

>  <r_qp_dipole>  (1118) 
4.7220000000000004

>  <r_qp_donorHB>  (1118) 
1

>  <r_qp_glob>  (1118) 
0.80507709999999999

>  <r_qp_mol_MW>  (1118) 
382.464

>  <r_qp_volume>  (1118) 
1266.6790000000001

>  <r_sd_BIOSOLVEIT.INFINISEE\_FTREES\_SIMILARITY>  (1118) 
0.90800000000000003

>  <r_sd_BIOSOLVEIT.LOGP>  (1118) 
3.1936

>  <r_sd_BIOSOLVEIT.MOLECULAR\_WEIGHT>  (1118) 
383.47300000000001

>  <r_sd_BIOSOLVEIT.TPSA>  (1118) 
59.32

>  <i_epik_Tot_Q>  (1118) 
1

>  <i_epik_Tot_abs_Q>  (1118) 
1

>  <i_f3d_flags>  (1118) 
0

>  <i_i_glide_confnum>  (1118) 
5

>  <i_i_glide_lignum>  (1118) 
492

>  <i_i_glide_posenum>  (1118) 
4

>  <i_i_glide_rotatable_bonds>  (1118) 
6

>  <i_lp_mmshare_version>  (1118) 
65135

>  <i_m_ct_format>  (1118) 
2

>  <i_m_source_file_index>  (1118) 
1398

>  <i_qp_#NandO>  (1118) 
5

>  <i_qp_#acid>  (1118) 
0

>  <i_qp_#amide>  (1118) 
0

>  <i_qp_#amidine>  (1118) 
0

>  <i_qp_#amine>  (1118) 
1

>  <i_qp_#in34>  (1118) 
0

>  <i_qp_#in56>  (1118) 
22

>  <i_qp_#metab>  (1118) 
5

>  <i_qp_#nonHatm>  (1118) 
29

>  <i_qp_#noncon>  (1118) 
0

>  <i_qp_#ringatoms>  (1118) 
22

>  <i_qp_#rotor>  (1118) 
5

>  <i_qp_#rtvFG>  (1118) 
0

>  <i_qp_#stars>  (1118) 
1

>  <i_qp_CNS>  (1118) 
1

>  <i_qp_HumanOralAbsorption>  (1118) 
3

>  <i_qp_RuleOfFive>  (1118) 
0

>  <i_qp_RuleOfThree>  (1118) 
0

>  <i_sd_BIOSOLVEIT.INFINISEE\_REAGENT1\_NAME>  (1118) 
10638332

>  <i_sd_BIOSOLVEIT.INFINISEE\_REAGENT2\_NAME>  (1118) 
24596716

>  <i_sd_BIOSOLVEIT.INFINISEE\_RESULT\_RANK>  (1118) 
52485

>  <i_sd_version>  (1118) 
0

>  <b_lp_Chiralities_Consistent>  (1118) 
1

>  <b_sd_chiral_flag>  (1118) 
0

>  <canonical_id>  (1118) 
ATP-HTVS-B262751D15E7

>  <compound_code>  (1118) 
44706

>  <title>  (1118) 
m_22bcb____10638332____24596716

>  <variant>  (1118) 
44706-1

>  <source_file>  (1118) 
运行/运行/ATP-VSW/ATP-VSW-DOCK_HTVS_1-002_lib.maegz

>  <canonical_smiles>  (1118) 
C[NH+](C)Cc1ccccc1NC(=O)c1cc(-c2cccnc2)nc2ccccc12

>  <scaffold>  (1118) 
O=C(Nc1ccccc1)c1cc(-c2cccnc2)nc2ccccc12

>  <molecular_formula>  (1118) 
C24H23N4O+

$$$$
ATP-HTVS-B278BB2953A5
     RDKit          3D

 61 63  0  0  0  0  0  0  0  0999 V2000
  201.1552  178.9739  156.1652 O   0  0  0  0  0  0  0  0  0  0  0  0
  201.4460  180.0469  156.9577 C   0  0  0  0  0  0  0  0  0  0  0  0
  202.1746  180.0161  158.1801 C   0  0  0  0  0  0  0  0  0  0  0  0
  202.4021  181.1038  158.9380 N   0  0  0  0  0  0  0  0  0  0  0  0
  202.0446  182.3172  158.4496 C   0  0  0  0  0  0  0  0  0  0  0  0
  201.4588  182.4642  157.1717 C   0  0  0  0  0  0  0  0  0  0  0  0
  201.0707  181.3216  156.4721 C   0  0  0  0  0  0  0  0  0  0  0  0
  202.3122  183.4948  159.3778 C   0  0  1  0  0  0  0  0  0  0  0  0
  201.0874  184.2290  159.7782 N   0  0  1  0  0  0  0  0  0  0  0  0
  200.4009  184.9130  158.6529 C   0  0  1  0  0  0  0  0  0  0  0  0
  199.1693  185.6224  159.1165 C   0  0  0  0  0  0  0  0  0  0  0  0
  197.9584  184.9041  159.2921 C   0  0  0  0  0  0  0  0  0  0  0  0
  197.9116  183.5016  159.0518 N   0  0  0  0  0  0  0  0  0  0  0  0
  196.6541  182.7706  159.1086 C   0  0  1  0  0  0  0  0  0  0  0  0
  195.7526  183.0377  157.8926 C   0  0  1  0  0  0  0  0  0  0  0  0
  194.3245  182.8180  158.2113 N   0  0  1  0  0  0  0  0  0  0  0  0
  193.9789  181.4329  158.5681 C   0  0  2  0  0  0  0  0  0  0  0  0
  193.7281  183.8364  159.0925 C   0  0  2  0  0  0  0  0  0  0  0  0
  196.8108  185.6354  159.6675 C   0  0  0  0  0  0  0  0  0  0  0  0
  196.8593  187.0315  159.8539 C   0  0  0  0  0  0  0  0  0  0  0  0
  198.0616  187.7300  159.6458 C   0  0  0  0  0  0  0  0  0  0  0  0
  199.2180  187.0239  159.2765 C   0  0  0  0  0  0  0  0  0  0  0  0
  201.2107  177.6675  156.7144 C   0  0  1  0  0  0  0  0  0  0  0  0
  201.5757  176.6441  155.6718 C   0  0  0  0  0  0  0  0  0  0  0  0
  201.6924  176.9938  154.3089 C   0  0  0  0  0  0  0  0  0  0  0  0
  202.0587  176.0178  153.3691 C   0  0  0  0  0  0  0  0  0  0  0  0
  202.3156  174.6991  153.7899 C   0  0  0  0  0  0  0  0  0  0  0  0
  202.2169  174.3572  155.1525 C   0  0  0  0  0  0  0  0  0  0  0  0
  201.8517  175.3315  156.0952 C   0  0  0  0  0  0  0  0  0  0  0  0
  200.4411  183.5764  160.1993 H   0  0  0  0  0  0  0  0  0  0  0  0
  202.6022  179.1054  158.5838 H   0  0  0  0  0  0  0  0  0  0  0  0
  201.2313  183.4272  156.7334 H   0  0  0  0  0  0  0  0  0  0  0  0
  200.5158  181.4091  155.5461 H   0  0  0  0  0  0  0  0  0  0  0  0
  202.7943  183.1493  160.2924 H   0  0  0  0  0  0  0  0  0  0  0  0
  203.0303  184.1556  158.8968 H   0  0  0  0  0  0  0  0  0  0  0  0
  201.0880  185.5884  158.1315 H   0  0  0  0  0  0  0  0  0  0  0  0
  199.9849  184.2516  157.9062 H   0  0  0  0  0  0  0  0  0  0  0  0
  198.6664  183.0026  158.6044 H   0  0  0  0  0  0  0  0  0  0  0  0
  196.8426  181.6971  159.1788 H   0  0  0  0  0  0  0  0  0  0  0  0
  196.1767  183.0152  160.0510 H   0  0  0  0  0  0  0  0  0  0  0  0
  195.8697  184.0479  157.4985 H   0  0  0  0  0  0  0  0  0  0  0  0
  196.0413  182.3973  157.0574 H   0  0  0  0  0  0  0  0  0  0  0  0
  194.4705  181.1644  159.5022 H   0  0  0  0  0  0  0  0  0  0  0  0
  194.3048  180.7531  157.7815 H   0  0  0  0  0  0  0  0  0  0  0  0
  192.9001  181.3053  158.6853 H   0  0  0  0  0  0  0  0  0  0  0  0
  194.1610  183.7822  160.0917 H   0  0  0  0  0  0  0  0  0  0  0  0
  192.6497  183.6982  159.2073 H   0  0  0  0  0  0  0  0  0  0  0  0
  193.9353  184.8314  158.6889 H   0  0  0  0  0  0  0  0  0  0  0  0
  195.8662  185.1536  159.8442 H   0  0  0  0  0  0  0  0  0  0  0  0
  195.9791  187.5568  160.1814 H   0  0  0  0  0  0  0  0  0  0  0  0
  198.1264  188.7978  159.8212 H   0  0  0  0  0  0  0  0  0  0  0  0
  200.1502  187.5445  159.1054 H   0  0  0  0  0  0  0  0  0  0  0  0
  201.9426  177.5211  157.5060 H   0  0  0  0  0  0  0  0  0  0  0  0
  200.2230  177.4626  157.1272 H   0  0  0  0  0  0  0  0  0  0  0  0
  201.5075  178.0060  153.9768 H   0  0  0  0  0  0  0  0  0  0  0  0
  202.1364  176.2890  152.3277 H   0  0  0  0  0  0  0  0  0  0  0  0
  202.5898  173.9502  153.0645 H   0  0  0  0  0  0  0  0  0  0  0  0
  202.4149  173.3456  155.4705 H   0  0  0  0  0  0  0  0  0  0  0  0
  201.7830  175.0763  157.1433 H   0  0  0  0  0  0  0  0  0  0  0  0
  193.9408  182.9507  157.2584 H   0  0  0  0  0  0  0  0  0  0  0  0
  201.3432  184.9097  160.4875 H   0  0  0  0  0  0  0  0  0  0  0  0
  1  2  1  0
  1 23  1  0
  2  3  1  0
  2  7  2  0
  3  4  2  0
  3 31  1  0
  4  5  1  0
  5  6  2  0
  5  8  1  0
  6  7  1  0
  6 32  1  0
  7 33  1  0
  8  9  1  0
  8 34  1  1
  8 35  1  0
  9 10  1  0
  9 30  1  1
  9 61  1  0
 10 11  1  0
 10 36  1  6
 10 37  1  0
 11 12  1  0
 11 22  2  0
 12 13  1  0
 12 19  2  0
 13 14  1  0
 13 38  1  0
 14 15  1  0
 14 39  1  1
 14 40  1  0
 15 16  1  0
 15 41  1  6
 15 42  1  0
 16 17  1  0
 16 18  1  0
 16 60  1  6
 17 43  1  1
 17 44  1  0
 17 45  1  0
 18 46  1  1
 18 47  1  0
 18 48  1  0
 19 20  1  0
 19 49  1  0
 20 21  2  0
 20 50  1  0
 21 22  1  0
 21 51  1  0
 22 52  1  0
 23 24  1  0
 23 53  1  1
 23 54  1  0
 24 25  2  0
 24 29  1  0
 25 26  1  0
 25 55  1  0
 26 27  2  0
 26 56  1  0
 27 28  1  0
 27 57  1  0
 28 29  2  0
 28 58  1  0
 29 59  1  0
M  CHG  2   9   1  16   1
M  END
>  <s_epik_cmdline>  (1119) 
J2VwaWtfcHl0aG9uJywgJy1waCcsICc3LjAwMDAwMCcsICctcGh0JywgJzIuMDAwMDAwJywgJy1tcycsICcxNicsICctdG4nLCAnOCcsICctbWEnLCAnMjAwJywgJy1pbWFlJywgJzxpbmZpbGUubWFlPicsICctb21hZScsICc8b3V0ZmlsZS5tYWU+Jw==

>  <s_epik_input>  (1119) 
W2NIXTFbY0hdW2NIXVtjSF1bY0hdYzFbQ0gyXU9jMltjSF1uYyhbY0hdW2NIXTIpW0NIMl1bTkhdW0NIMl1jM2MoW2NIXVtjSF1bY0hdW2NIXTMpW05IXVtDSDJdW0NIMl1OKFtDSDNdKVtDSDNd

>  <s_i_glide_gridfile>  (1119) 
ATP-Grid

>  <s_lp_Force_Field>  (1119) 
OPLS_2005

>  <s_lp_Variant>  (1119) 
m_270004bbb____25289958____24721296-1

>  <s_lp_label>  (1119) 
1166_sdstereoexpander_1_neutralizer_1_epik_1_stereoizer_1

>  <s_m_source_file>  (1119) 
ATP-VSW-LIGPREP-001-in.maegz

>  <s_sd_BIOSOLVEIT.INFINISEE\_QUERY\_NAME>  (1119) 
Ref-Lig

>  <s_sd_BIOSOLVEIT.INFINISEE\_QUERY\_SMILES>  (1119) 
S(c1nc2c(cc1C[NH2+]Cc3ccc(cc3)C[NH+](C)C)cccc2)Cc4ccccc4

>  <s_sd_BIOSOLVEIT.INFINISEE\_REACTION\_NAME>  (1119) 
m_270004bbb

>  <s_sd_BIOSOLVEIT.INFINISEE\_REAGENT1\_SMILES>  (1119) 
[R1*]NCc1c(NCCN(C)C)cccc1

>  <s_sd_BIOSOLVEIT.INFINISEE\_REAGENT2\_SMILES>  (1119) 
[R1*]Cc1ncc(OCc2ccccc2)cc1

>  <s_sd_BIOSOLVEIT.INFINISEE\_SPACE>  (1119) 
REALSpace_44bn_2023-08

>  <s_vsw_compound_code>  (1119) 
37281

>  <s_vsw_variant>  (1119) 
37281-1

>  <r_epik_Charging_Adjusted_Penalty>  (1119) 
0.16150969318607999

>  <r_epik_Ionization_Penalty>  (1119) 
0.081500000000000003

>  <r_epik_Ionization_Penalty_Charging>  (1119) 
0.0814

>  <r_epik_Ionization_Penalty_Neutral>  (1119) 
0.0001

>  <r_epik_State_Penalty>  (1119) 
0.080100000000000005

>  <r_i_docking_score>  (1119) 
-4.35664288623461

>  <r_i_glide_ecoul>  (1119) 
-11.375002861022899

>  <r_i_glide_eff_state_penalty>  (1119) 
0.080100000000000005

>  <r_i_glide_einternal>  (1119) 
6.7949233055114702

>  <r_i_glide_emodel>  (1119) 
-54.490266450459202

>  <r_i_glide_energy>  (1119) 
-40.440466880798297

>  <r_i_glide_erotb>  (1119) 
1.2672037968318799

>  <r_i_glide_esite>  (1119) 
-0.10000000000000001

>  <r_i_glide_evdw>  (1119) 
-29.065464019775401

>  <r_i_glide_gscore>  (1119) 
-4.4367428862346099

>  <r_i_glide_hbond>  (1119) 
-0.20000000000000001

>  <r_i_glide_ligand_efficiency>  (1119) 
-0.150229065042573

>  <r_i_glide_ligand_efficiency_ln>  (1119) 
-0.99756074601616795

>  <r_i_glide_ligand_efficiency_sa>  (1119) 
-0.46155128371929

>  <r_i_glide_lipo>  (1119) 
-1.51172132565155

>  <r_i_glide_metal>  (1119) 
-0

>  <r_i_glide_rewards>  (1119) 
-0.73270172727272598

>  <r_lp_Energy>  (1119) 
27.778396000000001

>  <r_lp_tautomer_probability>  (1119) 
1

>  <r_qp_ACxDN^.5/SA>  (1119) 
0.0108658

>  <r_qp_CIQPlogS>  (1119) 
-3.593

>  <r_qp_EA(eV)>  (1119) 
0.087999999999999995

>  <r_qp_FISA>  (1119) 
34.241

>  <r_qp_FOSA>  (1119) 
301.69099999999997

>  <r_qp_IP(eV)>  (1119) 
7.8819999999999997

>  <r_qp_Jm>  (1119) 
0.0043793297489081902

>  <r_qp_PISA>  (1119) 
477.51999999999998

>  <r_qp_PSA>  (1119) 
49.948

>  <r_qp_PercentHumanOralAbsorption>  (1119) 
100

>  <r_qp_QPPCaco>  (1119) 
291.73899999999998

>  <r_qp_QPPMDCK>  (1119) 
159.89400000000001

>  <r_qp_QPlogBB>  (1119) 
0.29099999999999998

>  <r_qp_QPlogHERG>  (1119) 
-9.3130000000000006

>  <r_qp_QPlogKhsa>  (1119) 
0.69099999999999995

>  <r_qp_QPlogKp>  (1119) 
-3.5369999999999999

>  <r_qp_QPlogPC16>  (1119) 
15.763

>  <r_qp_QPlogPo/w>  (1119) 
4.6390000000000002

>  <r_qp_QPlogPoct>  (1119) 
21.760999999999999

>  <r_qp_QPlogPw>  (1119) 
11.817

>  <r_qp_QPlogS>  (1119) 
-4.4130000000000003

>  <r_qp_QPpolrz>  (1119) 
48.006

>  <r_qp_SASA>  (1119) 
813.45100000000002

>  <r_qp_SAamideO>  (1119) 
0

>  <r_qp_SAfluorine>  (1119) 
0

>  <r_qp_WPSA>  (1119) 
0

>  <r_qp_accptHB>  (1119) 
6.25

>  <r_qp_dip^2/V>  (1119) 
0.0066217999999999997

>  <r_qp_dipole>  (1119) 
3.0619999999999998

>  <r_qp_donorHB>  (1119) 
2

>  <r_qp_glob>  (1119) 
0.74962810000000002

>  <r_qp_mol_MW>  (1119) 
390.52699999999999

>  <r_qp_volume>  (1119) 
1415.855

>  <r_sd_BIOSOLVEIT.INFINISEE\_FTREES\_SIMILARITY>  (1119) 
0.91200000000000003

>  <r_sd_BIOSOLVEIT.LOGP>  (1119) 
1.4805999999999999

>  <r_sd_BIOSOLVEIT.MOLECULAR\_WEIGHT>  (1119) 
392.54399999999998

>  <r_sd_BIOSOLVEIT.TPSA>  (1119) 
55.200000000000003

>  <i_epik_Tot_Q>  (1119) 
2

>  <i_epik_Tot_abs_Q>  (1119) 
2

>  <i_f3d_flags>  (1119) 
0

>  <i_i_glide_confnum>  (1119) 
6

>  <i_i_glide_lignum>  (1119) 
288

>  <i_i_glide_posenum>  (1119) 
10

>  <i_i_glide_rotatable_bonds>  (1119) 
11

>  <i_lp_mmshare_version>  (1119) 
65135

>  <i_m_ct_format>  (1119) 
2

>  <i_m_source_file_index>  (1119) 
1166

>  <i_qp_#NandO>  (1119) 
5

>  <i_qp_#acid>  (1119) 
0

>  <i_qp_#amide>  (1119) 
0

>  <i_qp_#amidine>  (1119) 
0

>  <i_qp_#amine>  (1119) 
2

>  <i_qp_#in34>  (1119) 
0

>  <i_qp_#in56>  (1119) 
18

>  <i_qp_#metab>  (1119) 
11

>  <i_qp_#nonHatm>  (1119) 
29

>  <i_qp_#noncon>  (1119) 
0

>  <i_qp_#ringatoms>  (1119) 
18

>  <i_qp_#rotor>  (1119) 
11

>  <i_qp_#rtvFG>  (1119) 
0

>  <i_qp_#stars>  (1119) 
4

>  <i_qp_CNS>  (1119) 
1

>  <i_qp_HumanOralAbsorption>  (1119) 
1

>  <i_qp_RuleOfFive>  (1119) 
0

>  <i_qp_RuleOfThree>  (1119) 
1

>  <i_sd_BIOSOLVEIT.INFINISEE\_REAGENT1\_NAME>  (1119) 
25289958

>  <i_sd_BIOSOLVEIT.INFINISEE\_REAGENT2\_NAME>  (1119) 
24721296

>  <i_sd_BIOSOLVEIT.INFINISEE\_RESULT\_RANK>  (1119) 
37915

>  <i_sd_version>  (1119) 
0

>  <b_lp_Chiralities_Consistent>  (1119) 
1

>  <b_sd_chiral_flag>  (1119) 
0

>  <canonical_id>  (1119) 
ATP-HTVS-B278BB2953A5

>  <compound_code>  (1119) 
37281

>  <title>  (1119) 
m_270004bbb____25289958____24721296

>  <variant>  (1119) 
37281-1

>  <source_file>  (1119) 
运行/运行/ATP-VSW/ATP-VSW-DOCK_HTVS_1-001_lib/ATP-VSW-DOCK_HTVS_1-001_lib

>  <canonical_smiles>  (1119) 
C[NH+](C)CCNc1ccccc1C[NH2+]Cc1ccc(OCc2ccccc2)cn1

>  <scaffold>  (1119) 
c1ccc(C[NH2+]Cc2ccc(OCc3ccccc3)cn2)cc1

>  <molecular_formula>  (1119) 
C24H32N4O+2

$$$$
ATP-HTVS-B31ECD8B9A27
     RDKit          3D

 52 55  0  0  0  0  0  0  0  0999 V2000
  199.4439  183.4551  155.3658 O   0  0  0  0  0  0  0  0  0  0  0  0
  198.4777  182.9125  154.8751 C   0  0  0  0  0  0  0  0  0  0  0  0
  197.5324  182.2566  155.5665 N   0  0  0  0  0  0  0  0  0  0  0  0
  197.4832  182.1182  157.0200 C   0  0  1  0  0  0  0  0  0  0  0  0
  196.9113  183.3438  157.7464 C   0  0  0  0  0  0  0  0  0  0  0  0
  195.7845  183.2731  158.6200 C   0  0  0  0  0  0  0  0  0  0  0  0
  195.3135  184.4503  159.2632 C   0  0  0  0  0  0  0  0  0  0  0  0
  195.9384  185.6972  159.0366 C   0  0  0  0  0  0  0  0  0  0  0  0
  197.0440  185.7625  158.1744 C   0  0  0  0  0  0  0  0  0  0  0  0
  197.5485  184.6019  157.5470 C   0  0  0  0  0  0  0  0  0  0  0  0
  195.0689  181.9568  158.9209 C   0  0  1  0  0  0  0  0  0  0  0  0
  194.3430  181.4030  157.7417 N   0  0  1  0  0  0  0  0  0  0  0  0
  192.8970  181.2311  157.9259 C   0  0  2  0  0  0  0  0  0  0  0  0
  198.3043  182.8333  153.3778 C   0  0  0  0  0  0  0  0  0  0  0  0
  198.3064  183.9789  152.5294 C   0  0  0  0  0  0  0  0  0  0  0  0
  198.2890  183.7449  151.1217 C   0  0  0  0  0  0  0  0  0  0  0  0
  198.2613  182.5080  150.5900 N   0  0  0  0  0  0  0  0  0  0  0  0
  198.2409  181.4210  151.3993 C   0  0  0  0  0  0  0  0  0  0  0  0
  198.2067  180.0918  150.7480 C   0  0  0  0  0  0  0  0  0  0  0  0
  198.3725  179.0146  151.5568 N   0  0  0  0  0  0  0  0  0  0  0  0
  198.3515  177.7824  151.0135 C   0  0  0  0  0  0  0  0  0  0  0  0
  198.1272  177.5491  149.6458 C   0  0  0  0  0  0  0  0  0  0  0  0
  197.9305  178.6561  148.8039 C   0  0  0  0  0  0  0  0  0  0  0  0
  197.9745  179.9435  149.3621 C   0  0  0  0  0  0  0  0  0  0  0  0
  198.2466  181.5577  152.7992 C   0  0  0  0  0  0  0  0  0  0  0  0
  198.3222  184.8595  150.2549 C   0  0  0  0  0  0  0  0  0  0  0  0
  198.3487  186.1748  150.7472 C   0  0  0  0  0  0  0  0  0  0  0  0
  198.3631  186.4027  152.1336 C   0  0  0  0  0  0  0  0  0  0  0  0
  198.3374  185.3072  153.0213 C   0  0  0  0  0  0  0  0  0  0  0  0
  194.4264  182.0706  156.9507 H   0  0  0  0  0  0  0  0  0  0  0  0
  196.8409  181.7499  155.0353 H   0  0  0  0  0  0  0  0  0  0  0  0
  196.9241  181.2023  157.1983 H   0  0  0  0  0  0  0  0  0  0  0  0
  198.4718  181.8979  157.4099 H   0  0  0  0  0  0  0  0  0  0  0  0
  194.4678  184.4121  159.9524 H   0  0  0  0  0  0  0  0  0  0  0  0
  195.5933  186.5975  159.5244 H   0  0  0  0  0  0  0  0  0  0  0  0
  197.5415  186.6947  157.9724 H   0  0  0  0  0  0  0  0  0  0  0  0
  198.4155  184.7214  156.9268 H   0  0  0  0  0  0  0  0  0  0  0  0
  195.7786  181.2021  159.2800 H   0  0  0  0  0  0  0  0  0  0  0  0
  194.3620  182.1102  159.7436 H   0  0  0  0  0  0  0  0  0  0  0  0
  192.4636  180.7956  157.0261 H   0  0  0  0  0  0  0  0  0  0  0  0
  192.4204  182.1989  158.0822 H   0  0  0  0  0  0  0  0  0  0  0  0
  192.6994  180.5703  158.7703 H   0  0  0  0  0  0  0  0  0  0  0  0
  198.5014  176.9575  151.6936 H   0  0  0  0  0  0  0  0  0  0  0  0
  198.1034  176.5463  149.2548 H   0  0  0  0  0  0  0  0  0  0  0  0
  197.7523  178.5249  147.7482 H   0  0  0  0  0  0  0  0  0  0  0  0
  197.8344  180.8158  148.7426 H   0  0  0  0  0  0  0  0  0  0  0  0
  198.2880  180.6790  153.4297 H   0  0  0  0  0  0  0  0  0  0  0  0
  198.3083  184.6818  149.1895 H   0  0  0  0  0  0  0  0  0  0  0  0
  198.3447  187.0116  150.0611 H   0  0  0  0  0  0  0  0  0  0  0  0
  198.3554  187.4142  152.5155 H   0  0  0  0  0  0  0  0  0  0  0  0
  198.3331  185.5271  154.0804 H   0  0  0  0  0  0  0  0  0  0  0  0
  194.7576  180.5206  157.5239 H   0  0  0  0  0  0  0  0  0  0  0  0
  1  2  2  0
  2  3  1  0
  2 14  1  0
  3  4  1  0
  3 31  1  0
  4  5  1  0
  4 32  1  6
  4 33  1  0
  5  6  1  0
  5 10  2  0
  6  7  2  0
  6 11  1  0
  7  8  1  0
  7 34  1  0
  8  9  2  0
  8 35  1  0
  9 10  1  0
  9 36  1  0
 10 37  1  0
 11 12  1  0
 11 38  1  1
 11 39  1  0
 12 13  1  0
 12 30  1  6
 12 52  1  0
 13 40  1  6
 13 41  1  0
 13 42  1  0
 14 15  1  0
 14 25  2  0
 15 16  1  0
 15 29  2  0
 16 17  1  0
 16 26  2  0
 17 18  2  0
 18 19  1  0
 18 25  1  0
 19 20  1  0
 19 24  2  0
 20 21  2  0
 21 22  1  0
 21 43  1  0
 22 23  2  0
 22 44  1  0
 23 24  1  0
 23 45  1  0
 24 46  1  0
 25 47  1  0
 26 27  1  0
 26 48  1  0
 27 28  2  0
 27 49  1  0
 28 29  1  0
 28 50  1  0
 29 51  1  0
M  CHG  1  12   1
M  END
>  <s_epik_cmdline>  (1120) 
J2VwaWtfcHl0aG9uJywgJy1waCcsICc3LjAwMDAwMCcsICctcGh0JywgJzIuMDAwMDAwJywgJy1tcycsICcxNicsICctdG4nLCAnOCcsICctbWEnLCAnMjAwJywgJy1pbWFlJywgJzxpbmZpbGUubWFlPicsICctb21hZScsICc8b3V0ZmlsZS5tYWU+Jw==

>  <s_epik_input>  (1120) 
W2NIXTFbY0hdW2NIXVtjSF1jKFtDSDJdW05IXVtDSDNdKWMxW0NIMl1bTkhdQyg9TyljMltjSF1jKG5jKGMyMylbY0hdW2NIXVtjSF1bY0hdMyktYzRuW2NIXVtjSF1bY0hdW2NIXTQ=

>  <s_i_glide_gridfile>  (1120) 
ATP-Grid

>  <s_lp_Force_Field>  (1120) 
OPLS_2005

>  <s_lp_Variant>  (1120) 
m_270006bbb____11732418____8405714-1

>  <s_lp_label>  (1120) 
1926_sdstereoexpander_1_neutralizer_1_epik_1_stereoizer_1

>  <s_m_source_file>  (1120) 
ATP-VSW-LIGPREP-003-in.maegz

>  <s_sd_BIOSOLVEIT.INFINISEE\_QUERY\_NAME>  (1120) 
Ref-Lig

>  <s_sd_BIOSOLVEIT.INFINISEE\_QUERY\_SMILES>  (1120) 
S(c1nc2c(cc1C[NH2+]Cc3ccc(cc3)C[NH+](C)C)cccc2)Cc4ccccc4

>  <s_sd_BIOSOLVEIT.INFINISEE\_REACTION\_NAME>  (1120) 
m_270006bbb

>  <s_sd_BIOSOLVEIT.INFINISEE\_REAGENT1\_SMILES>  (1120) 
[R1*]NCc1c(cccc1)CNC

>  <s_sd_BIOSOLVEIT.INFINISEE\_REAGENT2\_SMILES>  (1120) 
[R1*]C(=O)c1c2c(nc(c3ncccc3)c1)cccc2

>  <s_sd_BIOSOLVEIT.INFINISEE\_SPACE>  (1120) 
REALSpace_44bn_2023-08

>  <s_vsw_compound_code>  (1120) 
61603

>  <s_vsw_variant>  (1120) 
61603-1

>  <r_epik_Charging_Adjusted_Penalty>  (1120) 
0.037005618516229598

>  <r_epik_Ionization_Penalty>  (1120) 
0.019

>  <r_epik_Ionization_Penalty_Charging>  (1120) 
0.018499999999999999

>  <r_epik_Ionization_Penalty_Neutral>  (1120) 
0.00050000000000000001

>  <r_epik_State_Penalty>  (1120) 
0.018499999999999999

>  <r_i_docking_score>  (1120) 
-5.9276623053644597

>  <r_i_glide_ecoul>  (1120) 
-12.077450752258301

>  <r_i_glide_eff_state_penalty>  (1120) 
0.018499999999999999

>  <r_i_glide_einternal>  (1120) 
3.6427760124206499

>  <r_i_glide_emodel>  (1120) 
-64.804205482853703

>  <r_i_glide_energy>  (1120) 
-42.6113443374634

>  <r_i_glide_erotb>  (1120) 
0.55503880273733996

>  <r_i_glide_esite>  (1120) 
-0.12864746900657401

>  <r_i_glide_evdw>  (1120) 
-30.533893585205099

>  <r_i_glide_gscore>  (1120) 
-5.9461623053644601

>  <r_i_glide_hbond>  (1120) 
-0.38495003141331002

>  <r_i_glide_ligand_efficiency>  (1120) 
-0.20440214846084301

>  <r_i_glide_ligand_efficiency_ln>  (1120) 
-1.35728435538172

>  <r_i_glide_ligand_efficiency_sa>  (1120) 
-0.62798815921771201

>  <r_i_glide_lipo>  (1120) 
-1.32473872467383

>  <r_i_glide_metal>  (1120) 
-0

>  <r_i_glide_rewards>  (1120) 
-1.3245525909090901

>  <r_lp_Energy>  (1120) 
23.887778999999998

>  <r_qp_ACxDN^.5/SA>  (1120) 
0.012351600000000001

>  <r_qp_CIQPlogS>  (1120) 
-4.8150000000000004

>  <r_qp_EA(eV)>  (1120) 
1.2649999999999999

>  <r_qp_FISA>  (1120) 
77.293000000000006

>  <r_qp_FOSA>  (1120) 
134.48699999999999

>  <r_qp_IP(eV)>  (1120) 
9.0050000000000008

>  <r_qp_Jm>  (1120) 
0.031406438656242999

>  <r_qp_PISA>  (1120) 
475.19900000000001

>  <r_qp_PSA>  (1120) 
66.748000000000005

>  <r_qp_PercentHumanOralAbsorption>  (1120) 
100

>  <r_qp_QPPCaco>  (1120) 
456.91399999999999

>  <r_qp_QPPMDCK>  (1120) 
234.721

>  <r_qp_QPlogBB>  (1120) 
-0.17899999999999999

>  <r_qp_QPlogHERG>  (1120) 
-7.5519999999999996

>  <r_qp_QPlogKhsa>  (1120) 
0.52700000000000002

>  <r_qp_QPlogKp>  (1120) 
-2.7570000000000001

>  <r_qp_QPlogPC16>  (1120) 
14.106999999999999

>  <r_qp_QPlogPo/w>  (1120) 
3.911

>  <r_qp_QPlogPoct>  (1120) 
21.271999999999998

>  <r_qp_QPlogPw>  (1120) 
12.646000000000001

>  <r_qp_QPlogS>  (1120) 
-4.3289999999999997

>  <r_qp_QPpolrz>  (1120) 
44.189999999999998

>  <r_qp_SASA>  (1120) 
686.97900000000004

>  <r_qp_SAamideO>  (1120) 
0

>  <r_qp_SAfluorine>  (1120) 
0

>  <r_qp_WPSA>  (1120) 
0

>  <r_qp_accptHB>  (1120) 
6

>  <r_qp_dip^2/V>  (1120) 
0.032519800000000001

>  <r_qp_dipole>  (1120) 
6.3520000000000003

>  <r_qp_donorHB>  (1120) 
2

>  <r_qp_glob>  (1120) 
0.81288970000000005

>  <r_qp_mol_MW>  (1120) 
382.464

>  <r_qp_volume>  (1120) 
1240.837

>  <r_sd_BIOSOLVEIT.INFINISEE\_FTREES\_SIMILARITY>  (1120) 
0.90300000000000002

>  <r_sd_BIOSOLVEIT.LOGP>  (1120) 
2.9199999999999999

>  <r_sd_BIOSOLVEIT.MOLECULAR\_WEIGHT>  (1120) 
383.47300000000001

>  <r_sd_BIOSOLVEIT.TPSA>  (1120) 
71.489999999999995

>  <i_epik_Tot_Q>  (1120) 
1

>  <i_epik_Tot_abs_Q>  (1120) 
1

>  <i_f3d_flags>  (1120) 
0

>  <i_i_glide_confnum>  (1120) 
4

>  <i_i_glide_lignum>  (1120) 
734

>  <i_i_glide_posenum>  (1120) 
6

>  <i_i_glide_rotatable_bonds>  (1120) 
7

>  <i_lp_mmshare_version>  (1120) 
65135

>  <i_m_ct_format>  (1120) 
2

>  <i_m_source_file_index>  (1120) 
1926

>  <i_qp_#NandO>  (1120) 
5

>  <i_qp_#acid>  (1120) 
0

>  <i_qp_#amide>  (1120) 
0

>  <i_qp_#amidine>  (1120) 
0

>  <i_qp_#amine>  (1120) 
1

>  <i_qp_#in34>  (1120) 
0

>  <i_qp_#in56>  (1120) 
22

>  <i_qp_#metab>  (1120) 
4

>  <i_qp_#nonHatm>  (1120) 
29

>  <i_qp_#noncon>  (1120) 
0

>  <i_qp_#ringatoms>  (1120) 
22

>  <i_qp_#rotor>  (1120) 
6

>  <i_qp_#rtvFG>  (1120) 
0

>  <i_qp_#stars>  (1120) 
1

>  <i_qp_CNS>  (1120) 
1

>  <i_qp_HumanOralAbsorption>  (1120) 
3

>  <i_qp_RuleOfFive>  (1120) 
0

>  <i_qp_RuleOfThree>  (1120) 
0

>  <i_sd_BIOSOLVEIT.INFINISEE\_REAGENT1\_NAME>  (1120) 
11732418

>  <i_sd_BIOSOLVEIT.INFINISEE\_REAGENT2\_NAME>  (1120) 
8405714

>  <i_sd_BIOSOLVEIT.INFINISEE\_RESULT\_RANK>  (1120) 
86140

>  <i_sd_version>  (1120) 
0

>  <b_lp_Chiralities_Consistent>  (1120) 
1

>  <b_sd_chiral_flag>  (1120) 
0

>  <canonical_id>  (1120) 
ATP-HTVS-B31ECD8B9A27

>  <compound_code>  (1120) 
61603

>  <title>  (1120) 
m_270006bbb____11732418____8405714

>  <variant>  (1120) 
61603-1

>  <source_file>  (1120) 
运行/运行/ATP-VSW/ATP-VSW-DOCK_HTVS_1-003_lib/ATP-VSW-DOCK_HTVS_1-003_lib.mae

>  <canonical_smiles>  (1120) 
C[NH2+]Cc1ccccc1CNC(=O)c1cc(-c2ccccn2)nc2ccccc12

>  <scaffold>  (1120) 
O=C(NCc1ccccc1)c1cc(-c2ccccn2)nc2ccccc12

>  <molecular_formula>  (1120) 
C24H23N4O+

$$$$
ATP-HTVS-B34C30ECDBCB
     RDKit          3D

 53 56  0  0  0  0  0  0  0  0999 V2000
  197.4664  179.6025  150.1920 N   0  0  0  0  0  0  0  0  0  0  0  0
  198.1484  179.1576  151.3034 N   0  0  0  0  0  0  0  0  0  0  0  0
  198.8220  177.9501  151.0461 C   0  0  0  0  0  0  0  0  0  0  0  0
  199.5295  177.3248  152.0058 N   0  0  0  0  0  0  0  0  0  0  0  0
  199.6332  177.9338  153.1986 C   0  0  0  0  0  0  0  0  0  0  0  0
  200.3748  177.2089  154.2543 C   0  0  0  0  0  0  0  0  0  0  0  0
  200.0050  177.3011  155.6194 C   0  0  0  0  0  0  0  0  0  0  0  0
  200.7456  176.6413  156.6226 C   0  0  0  0  0  0  0  0  0  0  0  0
  201.8670  175.8641  156.2739 C   0  0  0  0  0  0  0  0  0  0  0  0
  202.2492  175.7698  154.9240 C   0  0  0  0  0  0  0  0  0  0  0  0
  201.5109  176.4372  153.9294 C   0  0  0  0  0  0  0  0  0  0  0  0
  199.0347  179.1939  153.4950 C   0  0  0  0  0  0  0  0  0  0  0  0
  198.2276  179.7661  152.5332 C   0  0  0  0  0  0  0  0  0  0  0  0
  197.4708  180.9377  152.7285 N   0  0  0  0  0  0  0  0  0  0  0  0
  197.5743  181.7429  153.9355 C   0  0  1  0  0  0  0  0  0  0  0  0
  197.1321  180.9641  155.1930 C   0  0  1  0  0  0  0  0  0  0  0  0
  197.1310  181.8622  156.4154 C   0  0  0  0  0  0  0  0  0  0  0  0
  198.2858  182.5989  156.7792 C   0  0  0  0  0  0  0  0  0  0  0  0
  198.2474  183.3739  157.9753 C   0  0  0  0  0  0  0  0  0  0  0  0
  197.0861  183.3670  158.7816 C   0  0  0  0  0  0  0  0  0  0  0  0
  196.0006  182.5545  158.4340 C   0  0  0  0  0  0  0  0  0  0  0  0
  196.0016  181.8511  157.2235 C   0  0  0  0  0  0  0  0  0  0  0  0
  196.9936  184.2644  160.0210 C   0  0  1  0  0  0  0  0  0  0  0  0
  195.9196  185.2697  160.0051 N   0  0  0  0  0  0  0  0  0  0  0  0
  194.5780  184.7348  159.7933 C   0  0  2  0  0  0  0  0  0  0  0  0
  196.1692  186.2904  158.9944 C   0  0  2  0  0  0  0  0  0  0  0  0
  198.5828  177.6602  149.7363 C   0  0  0  0  0  0  0  0  0  0  0  0
  197.7602  178.7145  149.2675 C   0  0  0  0  0  0  0  0  0  0  0  0
  199.1418  177.8729  155.9403 H   0  0  0  0  0  0  0  0  0  0  0  0
  200.4518  176.7202  157.6624 H   0  0  0  0  0  0  0  0  0  0  0  0
  202.4403  175.3542  157.0323 H   0  0  0  0  0  0  0  0  0  0  0  0
  203.1149  175.1869  154.6427 H   0  0  0  0  0  0  0  0  0  0  0  0
  201.8223  176.3646  152.8986 H   0  0  0  0  0  0  0  0  0  0  0  0
  199.1838  179.6480  154.4497 H   0  0  0  0  0  0  0  0  0  0  0  0
  196.8417  181.2468  152.0040 H   0  0  0  0  0  0  0  0  0  0  0  0
  198.5903  182.1271  154.0373 H   0  0  0  0  0  0  0  0  0  0  0  0
  196.9432  182.6180  153.8063 H   0  0  0  0  0  0  0  0  0  0  0  0
  196.1143  180.5738  155.0272 H   0  0  0  0  0  0  0  0  0  0  0  0
  197.7543  180.1528  155.5007 H   0  0  0  0  0  0  0  0  0  0  0  0
  199.1982  182.5484  156.2068 H   0  0  0  0  0  0  0  0  0  0  0  0
  199.1178  183.9698  158.2430 H   0  0  0  0  0  0  0  0  0  0  0  0
  195.0919  182.4990  159.0519 H   0  0  0  0  0  0  0  0  0  0  0  0
  195.1349  181.2764  156.9323 H   0  0  0  0  0  0  0  0  0  0  0  0
  196.8993  183.6085  160.8845 H   0  0  0  0  0  0  0  0  0  0  0  0
  197.9466  184.7732  160.1495 H   0  0  0  0  0  0  0  0  0  0  0  0
  193.7991  185.4866  159.9640 H   0  0  0  0  0  0  0  0  0  0  0  0
  194.4044  183.9218  160.4935 H   0  0  0  0  0  0  0  0  0  0  0  0
  194.5196  184.2827  158.8100 H   0  0  0  0  0  0  0  0  0  0  0  0
  195.3693  187.0313  159.0060 H   0  0  0  0  0  0  0  0  0  0  0  0
  196.1977  185.8415  158.0023 H   0  0  0  0  0  0  0  0  0  0  0  0
  197.1161  186.8081  159.1703 H   0  0  0  0  0  0  0  0  0  0  0  0
  198.9584  176.8000  149.1918 H   0  0  0  0  0  0  0  0  0  0  0  0
  197.3741  178.8249  148.2615 H   0  0  0  0  0  0  0  0  0  0  0  0
  1  2  1  0
  1 28  2  0
  2  3  1  0
  2 13  1  0
  3  4  1  0
  3 27  2  0
  4  5  2  0
  5  6  1  0
  5 12  1  0
  6  7  2  0
  6 11  1  0
  7  8  1  0
  7 29  1  0
  8  9  2  0
  8 30  1  0
  9 10  1  0
  9 31  1  0
 10 11  2  0
 10 32  1  0
 11 33  1  0
 12 13  2  0
 12 34  1  0
 13 14  1  0
 14 15  1  0
 14 35  1  0
 15 16  1  0
 15 36  1  1
 15 37  1  0
 16 17  1  0
 16 38  1  6
 16 39  1  0
 17 18  1  0
 17 22  2  0
 18 19  2  0
 18 40  1  0
 19 20  1  0
 19 41  1  0
 20 21  2  0
 20 23  1  0
 21 22  1  0
 21 42  1  0
 22 43  1  0
 23 24  1  0
 23 44  1  1
 23 45  1  0
 24 25  1  0
 24 26  1  0
 25 46  1  6
 25 47  1  0
 25 48  1  0
 26 49  1  6
 26 50  1  0
 26 51  1  0
 27 28  1  0
 27 52  1  0
 28 53  1  0
M  END
>  <s_epik_cmdline>  (1121) 
J2VwaWtfcHl0aG9uJywgJy1waCcsICc3LjAwMDAwMCcsICctcGh0JywgJzIuMDAwMDAwJywgJy1tcycsICcxNicsICctdG4nLCAnOCcsICctbWEnLCAnMjAwJywgJy1pbWFlJywgJzxpbmZpbGUubWFlPicsICctb21hZScsICc8b3V0ZmlsZS5tYWU+Jw==

>  <s_epik_input>  (1121) 
W2NIXTFbY0hdW2NIXVtjSF1bY0hdYzEtYyhuYyhuMjMpW2NIXVtjSF1uMilbY0hdYzNbTkhdW0NIMl1bQ0gyXWM0W2NIXVtjSF1jKFtjSF1bY0hdNClbQ0gyXU4oW0NIM10pW0NIM10=

>  <s_i_glide_gridfile>  (1121) 
ATP-Grid

>  <s_lp_Force_Field>  (1121) 
OPLS_2005

>  <s_lp_Variant>  (1121) 
m_27bbd____15775612____11349750-2

>  <s_lp_label>  (1121) 
2098_sdstereoexpander_1_neutralizer_1_epik_2_stereoizer_1

>  <s_m_source_file>  (1121) 
ATP-VSW-LIGPREP-003-in.maegz

>  <s_sd_BIOSOLVEIT.INFINISEE\_QUERY\_NAME>  (1121) 
Ref-Lig

>  <s_sd_BIOSOLVEIT.INFINISEE\_QUERY\_SMILES>  (1121) 
S(c1nc2c(cc1C[NH2+]Cc3ccc(cc3)C[NH+](C)C)cccc2)Cc4ccccc4

>  <s_sd_BIOSOLVEIT.INFINISEE\_REACTION\_NAME>  (1121) 
m_27bbd

>  <s_sd_BIOSOLVEIT.INFINISEE\_REAGENT1\_SMILES>  (1121) 
[R1*]NCCc1ccc(cc1)CN(C)C

>  <s_sd_BIOSOLVEIT.INFINISEE\_REAGENT2\_SMILES>  (1121) 
[R1*]C=1N2N=CC=C2N=C(c3ccccc3)C1

>  <s_sd_BIOSOLVEIT.INFINISEE\_SPACE>  (1121) 
REALSpace_44bn_2023-08

>  <s_vsw_compound_code>  (1121) 
67107

>  <s_vsw_variant>  (1121) 
67107-2

>  <r_epik_Charging_Adjusted_Penalty>  (1121) 
1.6032092271001199

>  <r_epik_Ionization_Penalty>  (1121) 
1.6032

>  <r_epik_Ionization_Penalty_Charging>  (1121) 
0

>  <r_epik_Ionization_Penalty_Neutral>  (1121) 
1.6032

>  <r_epik_State_Penalty>  (1121) 
1.6032

>  <r_i_docking_score>  (1121) 
-1.6964212710603701

>  <r_i_glide_ecoul>  (1121) 
-0.919400215148926

>  <r_i_glide_eff_state_penalty>  (1121) 
1.6032

>  <r_i_glide_einternal>  (1121) 
3.2015452384948699

>  <r_i_glide_emodel>  (1121) 
-39.393447388157298

>  <r_i_glide_energy>  (1121) 
-33.920868873596199

>  <r_i_glide_erotb>  (1121) 
0.83931038048386297

>  <r_i_glide_esite>  (1121) 
0

>  <r_i_glide_evdw>  (1121) 
-33.001468658447301

>  <r_i_glide_gscore>  (1121) 
-3.2996212710603698

>  <r_i_glide_hbond>  (1121) 
0

>  <r_i_glide_ligand_efficiency>  (1121) 
-0.060586473966441901

>  <r_i_glide_ligand_efficiency_ln>  (1121) 
-0.39158383845359301

>  <r_i_glide_ligand_efficiency_sa>  (1121) 
-0.18397621848698101

>  <r_i_glide_lipo>  (1121) 
-1.31488823976935

>  <r_i_glide_metal>  (1121) 
-0

>  <r_i_glide_rewards>  (1121) 
-1.0360599465801801

>  <r_lp_Energy>  (1121) 
24.628294

>  <r_qp_ACxDN^.5/SA>  (1121) 
0.0062367999999999998

>  <r_qp_CIQPlogS>  (1121) 
-5.1769999999999996

>  <r_qp_EA(eV)>  (1121) 
0.66400000000000003

>  <r_qp_FISA>  (1121) 
56.286999999999999

>  <r_qp_FOSA>  (1121) 
241.988

>  <r_qp_IP(eV)>  (1121) 
8.3569999999999993

>  <r_qp_Jm>  (1121) 
0.0052104296571254703

>  <r_qp_PISA>  (1121) 
423.25299999999999

>  <r_qp_PSA>  (1121) 
45.933999999999997

>  <r_qp_PercentHumanOralAbsorption>  (1121) 
100

>  <r_qp_QPPCaco>  (1121) 
722.827

>  <r_qp_QPPMDCK>  (1121) 
385.35700000000003

>  <r_qp_QPlogBB>  (1121) 
-0.064000000000000001

>  <r_qp_QPlogHERG>  (1121) 
-7.702

>  <r_qp_QPlogKhsa>  (1121) 
0.90500000000000003

>  <r_qp_QPlogKp>  (1121) 
-2.456

>  <r_qp_QPlogPC16>  (1121) 
13.749000000000001

>  <r_qp_QPlogPo/w>  (1121) 
4.9800000000000004

>  <r_qp_QPlogPoct>  (1121) 
18.555

>  <r_qp_QPlogPw>  (1121) 
9.0700000000000003

>  <r_qp_QPlogS>  (1121) 
-5.3970000000000002

>  <r_qp_QPpolrz>  (1121) 
44.436

>  <r_qp_SASA>  (1121) 
721.52700000000004

>  <r_qp_SAamideO>  (1121) 
0

>  <r_qp_SAfluorine>  (1121) 
0

>  <r_qp_WPSA>  (1121) 
0

>  <r_qp_accptHB>  (1121) 
4.5

>  <r_qp_dip^2/V>  (1121) 
0.016375799999999999

>  <r_qp_dipole>  (1121) 
4.5700000000000003

>  <r_qp_donorHB>  (1121) 
1

>  <r_qp_glob>  (1121) 
0.78828549999999997

>  <r_qp_mol_MW>  (1121) 
371.48399999999998

>  <r_qp_volume>  (1121) 
1275.4300000000001

>  <r_sd_BIOSOLVEIT.INFINISEE\_FTREES\_SIMILARITY>  (1121) 
0.90100000000000002

>  <r_sd_BIOSOLVEIT.LOGP>  (1121) 
2.6953999999999998

>  <r_sd_BIOSOLVEIT.MOLECULAR\_WEIGHT>  (1121) 
372.49299999999999

>  <r_sd_BIOSOLVEIT.TPSA>  (1121) 
47.18

>  <i_epik_Tot_Q>  (1121) 
0

>  <i_epik_Tot_abs_Q>  (1121) 
0

>  <i_f3d_flags>  (1121) 
0

>  <i_i_glide_confnum>  (1121) 
10

>  <i_i_glide_lignum>  (1121) 
775

>  <i_i_glide_posenum>  (1121) 
12

>  <i_i_glide_rotatable_bonds>  (1121) 
7

>  <i_lp_mmshare_version>  (1121) 
65135

>  <i_m_ct_format>  (1121) 
2

>  <i_m_source_file_index>  (1121) 
2098

>  <i_qp_#NandO>  (1121) 
5

>  <i_qp_#acid>  (1121) 
0

>  <i_qp_#amide>  (1121) 
0

>  <i_qp_#amidine>  (1121) 
0

>  <i_qp_#amine>  (1121) 
1

>  <i_qp_#in34>  (1121) 
0

>  <i_qp_#in56>  (1121) 
21

>  <i_qp_#metab>  (1121) 
3

>  <i_qp_#nonHatm>  (1121) 
28

>  <i_qp_#noncon>  (1121) 
0

>  <i_qp_#ringatoms>  (1121) 
21

>  <i_qp_#rotor>  (1121) 
7

>  <i_qp_#rtvFG>  (1121) 
0

>  <i_qp_#stars>  (1121) 
0

>  <i_qp_CNS>  (1121) 
1

>  <i_qp_HumanOralAbsorption>  (1121) 
3

>  <i_qp_RuleOfFive>  (1121) 
0

>  <i_qp_RuleOfThree>  (1121) 
0

>  <i_sd_BIOSOLVEIT.INFINISEE\_REAGENT1\_NAME>  (1121) 
15775612

>  <i_sd_BIOSOLVEIT.INFINISEE\_REAGENT2\_NAME>  (1121) 
11349750

>  <i_sd_BIOSOLVEIT.INFINISEE\_RESULT\_RANK>  (1121) 
97168

>  <i_sd_version>  (1121) 
0

>  <b_lp_Chiralities_Consistent>  (1121) 
1

>  <b_sd_chiral_flag>  (1121) 
0

>  <canonical_id>  (1121) 
ATP-HTVS-B34C30ECDBCB

>  <compound_code>  (1121) 
67107

>  <title>  (1121) 
m_27bbd____15775612____11349750

>  <variant>  (1121) 
67107-2

>  <source_file>  (1121) 
运行/运行/ATP-VSW/ATP-VSW-DOCK_HTVS_1-003_lib/ATP-VSW-DOCK_HTVS_1-003_lib.mae

>  <canonical_smiles>  (1121) 
CN(C)Cc1ccc(CCNc2cc(-c3ccccc3)nc3ccnn23)cc1

>  <scaffold>  (1121) 
c1ccc(CCNc2cc(-c3ccccc3)nc3ccnn23)cc1

>  <molecular_formula>  (1121) 
C23H25N5

$$$$
ATP-HTVS-B36D0C358EAD
     RDKit          3D

 63 67  0  0  0  0  0  0  0  0999 V2000
  203.0434  178.4343  154.5725 O   0  0  0  0  0  0  0  0  0  0  0  0
  201.8887  178.8597  154.5697 C   0  0  0  0  0  0  0  0  0  0  0  0
  200.8997  178.3365  155.3490 N   0  0  0  0  0  0  0  0  0  0  0  0
  199.5941  178.8600  155.3424 C   0  0  0  0  0  0  0  0  0  0  0  0
  199.2161  179.8850  154.5500 C   0  0  0  0  0  0  0  0  0  0  0  0
  200.1946  180.5146  153.6390 C   0  0  0  0  0  0  0  0  0  0  0  0
  201.5191  180.0067  153.6541 C   0  0  0  0  0  0  0  0  0  0  0  0
  202.5004  180.5773  152.8101 C   0  0  0  0  0  0  0  0  0  0  0  0
  202.1741  181.6489  151.9597 C   0  0  0  0  0  0  0  0  0  0  0  0
  200.8654  182.1581  151.9462 C   0  0  0  0  0  0  0  0  0  0  0  0
  199.8820  181.5973  152.7805 C   0  0  0  0  0  0  0  0  0  0  0  0
  197.8515  180.3817  154.6048 C   0  0  0  0  0  0  0  0  0  0  0  0
  197.0373  180.3365  153.6811 O   0  0  0  0  0  0  0  0  0  0  0  0
  197.5824  180.9169  155.8004 N   0  0  0  0  0  0  0  0  0  0  0  0
  196.2876  181.4471  156.2049 C   0  0  1  0  0  0  0  0  0  0  0  0
  196.3622  182.1042  157.6108 C   0  0  2  0  0  0  0  0  0  0  0  0
  195.0210  182.5388  158.1245 N   0  0  2  0  0  0  0  0  0  0  0  0
  195.0748  183.5126  159.2461 C   0  0  2  0  0  0  0  0  0  0  0  0
  194.1271  181.4097  158.4662 C   0  0  2  0  0  0  0  0  0  0  0  0
  197.3819  183.2459  157.6264 C   0  0  0  0  0  0  0  0  0  0  0  0
  198.2467  183.3943  158.7393 C   0  0  0  0  0  0  0  0  0  0  0  0
  199.1164  184.4969  158.7619 C   0  0  0  0  0  0  0  0  0  0  0  0
  199.9946  184.8669  159.7280 O   0  0  0  0  0  0  0  0  0  0  0  0
  200.5911  186.0532  159.2681 C   0  0  1  0  0  0  0  0  0  0  0  0
  200.0592  186.3799  158.0106 O   0  0  0  0  0  0  0  0  0  0  0  0
  199.1514  185.4112  157.7296 C   0  0  0  0  0  0  0  0  0  0  0  0
  198.3251  185.2841  156.6048 C   0  0  0  0  0  0  0  0  0  0  0  0
  197.4303  184.1931  156.5645 C   0  0  0  0  0  0  0  0  0  0  0  0
  201.1668  177.2010  156.2476 C   0  0  1  0  0  0  0  0  0  0  0  0
  201.5588  175.9014  155.5492 C   0  0  0  0  0  0  0  0  0  0  0  0
  202.3780  174.9786  156.2302 C   0  0  0  0  0  0  0  0  0  0  0  0
  202.7693  173.7747  155.6125 C   0  0  0  0  0  0  0  0  0  0  0  0
  202.3328  173.4767  154.3087 C   0  0  0  0  0  0  0  0  0  0  0  0
  201.5048  174.3866  153.6227 C   0  0  0  0  0  0  0  0  0  0  0  0
  201.1171  175.5918  154.2417 C   0  0  0  0  0  0  0  0  0  0  0  0
  198.9067  178.3730  156.0218 H   0  0  0  0  0  0  0  0  0  0  0  0
  203.5129  180.2009  152.8100 H   0  0  0  0  0  0  0  0  0  0  0  0
  202.9270  182.0821  151.3201 H   0  0  0  0  0  0  0  0  0  0  0  0
  200.6106  182.9854  151.3011 H   0  0  0  0  0  0  0  0  0  0  0  0
  198.8872  182.0146  152.7489 H   0  0  0  0  0  0  0  0  0  0  0  0
  198.3097  180.8862  156.5001 H   0  0  0  0  0  0  0  0  0  0  0  0
  195.9399  182.1473  155.4454 H   0  0  0  0  0  0  0  0  0  0  0  0
  195.5678  180.6381  156.1835 H   0  0  0  0  0  0  0  0  0  0  0  0
  196.7340  181.3430  158.3020 H   0  0  0  0  0  0  0  0  0  0  0  0
  195.6222  183.0922  160.0899 H   0  0  0  0  0  0  0  0  0  0  0  0
  194.0768  183.7759  159.5937 H   0  0  0  0  0  0  0  0  0  0  0  0
  195.5512  184.4496  158.9602 H   0  0  0  0  0  0  0  0  0  0  0  0
  194.5899  180.7649  159.2138 H   0  0  0  0  0  0  0  0  0  0  0  0
  193.8841  180.8098  157.5897 H   0  0  0  0  0  0  0  0  0  0  0  0
  193.1805  181.7708  158.8698 H   0  0  0  0  0  0  0  0  0  0  0  0
  198.2231  182.7014  159.5690 H   0  0  0  0  0  0  0  0  0  0  0  0
  200.3849  186.8636  159.9669 H   0  0  0  0  0  0  0  0  0  0  0  0
  201.6686  185.9135  159.1829 H   0  0  0  0  0  0  0  0  0  0  0  0
  198.3525  186.0099  155.8052 H   0  0  0  0  0  0  0  0  0  0  0  0
  196.7727  184.1129  155.7116 H   0  0  0  0  0  0  0  0  0  0  0  0
  201.9464  177.4864  156.9490 H   0  0  0  0  0  0  0  0  0  0  0  0
  200.3021  176.9754  156.8720 H   0  0  0  0  0  0  0  0  0  0  0  0
  202.7163  175.1916  157.2344 H   0  0  0  0  0  0  0  0  0  0  0  0
  203.4026  173.0757  156.1409 H   0  0  0  0  0  0  0  0  0  0  0  0
  202.6304  172.5487  153.8397 H   0  0  0  0  0  0  0  0  0  0  0  0
  201.1681  174.1624  152.6210 H   0  0  0  0  0  0  0  0  0  0  0  0
  200.4764  176.2746  153.7041 H   0  0  0  0  0  0  0  0  0  0  0  0
  194.5730  183.0040  157.3445 H   0  0  0  0  0  0  0  0  0  0  0  0
  1  2  2  0
  2  3  1  0
  2  7  1  0
  3  4  1  0
  3 29  1  0
  4  5  2  0
  4 36  1  0
  5  6  1  0
  5 12  1  0
  6  7  1  0
  6 11  2  0
  7  8  2  0
  8  9  1  0
  8 37  1  0
  9 10  2  0
  9 38  1  0
 10 11  1  0
 10 39  1  0
 11 40  1  0
 12 13  2  0
 12 14  1  0
 14 15  1  0
 14 41  1  0
 15 16  1  0
 15 42  1  6
 15 43  1  0
 16 17  1  0
 16 20  1  0
 16 44  1  1
 17 18  1  0
 17 19  1  0
 17 63  1  6
 18 45  1  1
 18 46  1  0
 18 47  1  0
 19 48  1  1
 19 49  1  0
 19 50  1  0
 20 21  2  0
 20 28  1  0
 21 22  1  0
 21 51  1  0
 22 23  1  0
 22 26  2  0
 23 24  1  0
 24 25  1  0
 24 52  1  1
 24 53  1  0
 25 26  1  0
 26 27  1  0
 27 28  2  0
 27 54  1  0
 28 55  1  0
 29 30  1  0
 29 56  1  1
 29 57  1  0
 30 31  2  0
 30 35  1  0
 31 32  1  0
 31 58  1  0
 32 33  2  0
 32 59  1  0
 33 34  1  0
 33 60  1  0
 34 35  2  0
 34 61  1  0
 35 62  1  0
M  CHG  1  17   1
M  END
>  <s_epik_Chemistry_Notes>  (1122) 
This compound contains an acetal/aminal-like group ( X-CH(R)-Y where X, Y are N, S, or O) that may be acid/base labile, releasing an aldehyde.

>  <s_epik_cmdline>  (1122) 
J2VwaWtfcHl0aG9uJywgJy1waCcsICc3LjAwMDAwMCcsICctcGh0JywgJzIuMDAwMDAwJywgJy1tcycsICcxNicsICctdG4nLCAnOCcsICctbWEnLCAnMjAwJywgJy1pbWFlJywgJzxpbmZpbGUubWFlPicsICctb21hZScsICc8b3V0ZmlsZS5tYWU+Jw==

>  <s_epik_input>  (1122) 
W2NIXTFbY0hdW2NIXVtjSF1bY0hdYzFbQ0gyXW4oYyg9TyljKGMyMylbY0hdW2NIXVtjSF1bY0hdMylbY0hdYzJDKD1PKVtOSF1bQ0gyXVtDQEhdKE4oW0NIM10pW0NIM10pYyhbY0hdNClbY0hdW2NIXWMoYzQ1KU9bQ0gyXU81

>  <s_i_glide_gridfile>  (1122) 
ATP-Grid

>  <s_lp_Force_Field>  (1122) 
OPLS_2005

>  <s_lp_Variant>  (1122) 
YAS_R001____OTV6666766____OTV7020694045-1

>  <s_lp_label>  (1122) 
136_sdstereoexpander_1_neutralizer_1_epik_1_stereoizer_1

>  <s_m_source_file>  (1122) 
ATP-VSW-LIGPREP-001-in.maegz

>  <s_sd_BIOSOLVEIT.INFINISEE\_QUERY\_NAME>  (1122) 
Ref-Lig

>  <s_sd_BIOSOLVEIT.INFINISEE\_QUERY\_SMILES>  (1122) 
S(c1nc2c(cc1C[NH2+]Cc3ccc(cc3)C[NH+](C)C)cccc2)Cc4ccccc4

>  <s_sd_BIOSOLVEIT.INFINISEE\_REACTION\_NAME>  (1122) 
YAS_R001

>  <s_sd_BIOSOLVEIT.INFINISEE\_REAGENT1\_NAME>  (1122) 
OTV6666766

>  <s_sd_BIOSOLVEIT.INFINISEE\_REAGENT1\_SMILES>  (1122) 
O=C1N(C=C(c2c1cccc2)C(=O)O)Cc3ccccc3

>  <s_sd_BIOSOLVEIT.INFINISEE\_REAGENT2\_NAME>  (1122) 
OTV7020694045

>  <s_sd_BIOSOLVEIT.INFINISEE\_REAGENT2\_SMILES>  (1122) 
O1c2c(OC1)ccc(c2)C(N(C)C)CN

>  <s_sd_BIOSOLVEIT.INFINISEE\_SPACE>  (1122) 
CHEMriya_12bn_2022-01

>  <s_vsw_compound_code>  (1122) 
4321

>  <s_vsw_variant>  (1122) 
4321-1

>  <r_epik_Charging_Adjusted_Penalty>  (1122) 
0.28504579469563202

>  <r_epik_Ionization_Penalty>  (1122) 
0.14249999999999999

>  <r_epik_Ionization_Penalty_Charging>  (1122) 
0.14249999999999999

>  <r_epik_Ionization_Penalty_Neutral>  (1122) 
0

>  <r_epik_State_Penalty>  (1122) 
0.14249999999999999

>  <r_i_docking_score>  (1122) 
-4.1756781909371199

>  <r_i_glide_ecoul>  (1122) 
-8.7651815414428693

>  <r_i_glide_eff_state_penalty>  (1122) 
0.14249999999999999

>  <r_i_glide_einternal>  (1122) 
3.1492328643798801

>  <r_i_glide_emodel>  (1122) 
-58.785439446408397

>  <r_i_glide_energy>  (1122) 
-43.111491203308098

>  <r_i_glide_erotb>  (1122) 
0.54756455654115599

>  <r_i_glide_esite>  (1122) 
-0.17827492398203301

>  <r_i_glide_evdw>  (1122) 
-34.346309661865199

>  <r_i_glide_gscore>  (1122) 
-4.31817819093712

>  <r_i_glide_hbond>  (1122) 
-0.19450550168936401

>  <r_i_glide_ligand_efficiency>  (1122) 
-0.119305091169632

>  <r_i_glide_ligand_efficiency_ln>  (1122) 
-0.91665403709499205

>  <r_i_glide_ligand_efficiency_sa>  (1122) 
-0.39025486389646402

>  <r_i_glide_lipo>  (1122) 
-1.2087819107177999

>  <r_i_glide_metal>  (1122) 
-0

>  <r_i_glide_rewards>  (1122) 
-0.25208769677938803

>  <r_lp_Energy>  (1122) 
51.199815999999998

>  <r_lp_tautomer_probability>  (1122) 
1

>  <r_qp_ACxDN^.5/SA>  (1122) 
0.0132861

>  <r_qp_CIQPlogS>  (1122) 
-5.5199999999999996

>  <r_qp_EA(eV)>  (1122) 
0.57999999999999996

>  <r_qp_FISA>  (1122) 
69.942999999999998

>  <r_qp_FOSA>  (1122) 
230.87799999999999

>  <r_qp_IP(eV)>  (1122) 
8.8719999999999999

>  <r_qp_Jm>  (1122) 
0.77672132931521798

>  <r_qp_PISA>  (1122) 
376.57799999999997

>  <r_qp_PSA>  (1122) 
80.531000000000006

>  <r_qp_PercentHumanOralAbsorption>  (1122) 
96.522999999999996

>  <r_qp_QPPCaco>  (1122) 
536.45299999999997

>  <r_qp_QPPMDCK>  (1122) 
279.18099999999998

>  <r_qp_QPlogBB>  (1122) 
-0.064000000000000001

>  <r_qp_QPlogHERG>  (1122) 
-6.0170000000000003

>  <r_qp_QPlogKhsa>  (1122) 
0.26900000000000002

>  <r_qp_QPlogKp>  (1122) 
-2.8730000000000002

>  <r_qp_QPlogPC16>  (1122) 
14.210000000000001

>  <r_qp_QPlogPo/w>  (1122) 
3.5390000000000001

>  <r_qp_QPlogPoct>  (1122) 
22.597999999999999

>  <r_qp_QPlogPw>  (1122) 
13.172000000000001

>  <r_qp_QPlogS>  (1122) 
-2.9089999999999998

>  <r_qp_QPpolrz>  (1122) 
47.591999999999999

>  <r_qp_SASA>  (1122) 
677.39999999999998

>  <r_qp_SAamideO>  (1122) 
0

>  <r_qp_SAfluorine>  (1122) 
0

>  <r_qp_WPSA>  (1122) 
0

>  <r_qp_accptHB>  (1122) 
9

>  <r_qp_dip^2/V>  (1122) 
0.0239527

>  <r_qp_dipole>  (1122) 
5.7190000000000003

>  <r_qp_donorHB>  (1122) 
1

>  <r_qp_glob>  (1122) 
0.87868080000000004

>  <r_qp_mol_MW>  (1122) 
469.53899999999999

>  <r_qp_volume>  (1122) 
1365.421

>  <r_sd_BIOSOLVEIT.INFINISEE\_FTREES\_SIMILARITY>  (1122) 
0.90400000000000003

>  <r_sd_BIOSOLVEIT.LOGP>  (1122) 
2.3940999999999999

>  <r_sd_BIOSOLVEIT.MOLECULAR\_WEIGHT>  (1122) 
470.54599999999999

>  <i_epik_Tot_Q>  (1122) 
1

>  <i_epik_Tot_abs_Q>  (1122) 
1

>  <i_f3d_flags>  (1122) 
0

>  <i_i_glide_confnum>  (1122) 
3

>  <i_i_glide_lignum>  (1122) 
30

>  <i_i_glide_posenum>  (1122) 
11

>  <i_i_glide_rotatable_bonds>  (1122) 
8

>  <i_lp_mmshare_version>  (1122) 
65135

>  <i_m_ct_format>  (1122) 
2

>  <i_m_source_file_index>  (1122) 
136

>  <i_qp_#NandO>  (1122) 
7

>  <i_qp_#acid>  (1122) 
0

>  <i_qp_#amide>  (1122) 
0

>  <i_qp_#amidine>  (1122) 
0

>  <i_qp_#amine>  (1122) 
1

>  <i_qp_#in34>  (1122) 
0

>  <i_qp_#in56>  (1122) 
25

>  <i_qp_#metab>  (1122) 
3

>  <i_qp_#nonHatm>  (1122) 
35

>  <i_qp_#noncon>  (1122) 
1

>  <i_qp_#ringatoms>  (1122) 
25

>  <i_qp_#rotor>  (1122) 
7

>  <i_qp_#rtvFG>  (1122) 
1

>  <i_qp_#stars>  (1122) 
0

>  <i_qp_CNS>  (1122) 
1

>  <i_qp_HumanOralAbsorption>  (1122) 
3

>  <i_qp_RuleOfFive>  (1122) 
0

>  <i_qp_RuleOfThree>  (1122) 
0

>  <i_sd_BIOSOLVEIT.INFINISEE\_RESULT\_RANK>  (1122) 
77486

>  <i_sd_BIOSOLVEIT.TPSA>  (1122) 
74

>  <i_sd_version>  (1122) 
0

>  <b_lp_Chiralities_Consistent>  (1122) 
1

>  <b_sd_chiral_flag>  (1122) 
0

>  <canonical_id>  (1122) 
ATP-HTVS-B36D0C358EAD

>  <compound_code>  (1122) 
4321

>  <title>  (1122) 
YAS_R001____OTV6666766____OTV7020694045

>  <variant>  (1122) 
4321-1

>  <source_file>  (1122) 
运行/运行/ATP-VSW/ATP-VSW-DOCK_HTVS_1-001_lib/ATP-VSW-DOCK_HTVS_1-001_lib

>  <canonical_smiles>  (1122) 
C[NH+](C)[C@@H](CNC(=O)c1cn(Cc2ccccc2)c(=O)c2ccccc12)c1ccc2c(c1)OCO2

>  <scaffold>  (1122) 
O=C(NCCc1ccc2c(c1)OCO2)c1cn(Cc2ccccc2)c(=O)c2ccccc12

>  <molecular_formula>  (1122) 
C28H28N3O4+

$$$$
ATP-HTVS-B383260168BF
     RDKit          3D

 59 62  0  0  0  0  0  0  0  0999 V2000
  199.7468  184.2010  159.3377 Cl  0  0  0  0  0  0  0  0  0  0  0  0
  198.6561  185.2988  158.5039 C   0  0  0  0  0  0  0  0  0  0  0  0
  197.2379  185.0849  158.4765 C   0  0  0  0  0  0  0  0  0  0  0  0
  196.3797  186.0262  157.8142 C   0  0  0  0  0  0  0  0  0  0  0  0
  196.9601  187.1389  157.1745 C   0  0  0  0  0  0  0  0  0  0  0  0
  198.3526  187.3723  157.1957 C   0  0  0  0  0  0  0  0  0  0  0  0
  198.7969  188.5211  156.5407 N   0  0  0  0  0  0  0  0  0  0  0  0
  199.9177  188.7719  155.8018 C   0  0  0  0  0  0  0  0  0  0  0  0
  199.8702  189.8882  155.0937 N   0  0  0  0  0  0  0  0  0  0  0  0
  200.9785  190.1904  154.4008 C   0  0  0  0  0  0  0  0  0  0  0  0
  200.9309  191.4331  153.6146 C   0  0  0  0  0  0  0  0  0  0  0  0
  202.0600  192.2771  153.5355 C   0  0  0  0  0  0  0  0  0  0  0  0
  202.0203  193.4676  152.7834 C   0  0  0  0  0  0  0  0  0  0  0  0
  200.8499  193.8275  152.0898 C   0  0  0  0  0  0  0  0  0  0  0  0
  199.7195  192.9928  152.1505 C   0  0  0  0  0  0  0  0  0  0  0  0
  199.7652  191.8069  152.9080 C   0  0  0  0  0  0  0  0  0  0  0  0
  202.1144  189.3517  154.4406 C   0  0  0  0  0  0  0  0  0  0  0  0
  202.0407  188.1783  155.2238 C   0  0  0  0  0  0  0  0  0  0  0  0
  200.9135  187.8982  155.8944 N   0  0  0  0  0  0  0  0  0  0  0  0
  203.1491  187.2055  155.3569 C   0  0  0  0  0  0  0  0  0  0  0  0
  204.4885  187.5935  155.1164 C   0  0  0  0  0  0  0  0  0  0  0  0
  205.5487  186.6738  155.2332 C   0  0  0  0  0  0  0  0  0  0  0  0
  205.2885  185.3409  155.5972 C   0  0  0  0  0  0  0  0  0  0  0  0
  203.9651  184.9327  155.8420 C   0  0  0  0  0  0  0  0  0  0  0  0
  202.9089  185.8582  155.7260 C   0  0  0  0  0  0  0  0  0  0  0  0
  199.1864  186.4462  157.8709 C   0  0  0  0  0  0  0  0  0  0  0  0
  196.6104  183.8929  159.2272 C   0  0  1  0  0  0  0  0  0  0  0  0
  195.2888  184.1887  159.8492 N   0  0  0  0  0  0  0  0  0  0  0  0
  194.0707  184.1525  158.9927 C   0  0  2  0  0  0  0  0  0  0  0  0
  195.3300  185.4357  160.6387 C   0  0  2  0  0  0  0  0  0  0  0  0
  196.5218  182.6732  158.2697 C   0  0  1  0  0  0  0  0  0  0  0  0
  196.0518  181.4379  158.9777 N   0  0  2  0  0  0  0  0  0  0  0  0
  195.9576  180.6840  158.2954 H   0  0  0  0  0  0  0  0  0  0  0  0
  195.1353  181.6081  159.3420 H   0  0  0  0  0  0  0  0  0  0  0  0
  195.3426  186.0140  157.7674 H   0  0  0  0  0  0  0  0  0  0  0  0
  196.2534  187.8244  156.7328 H   0  0  0  0  0  0  0  0  0  0  0  0
  198.0555  189.1904  156.3697 H   0  0  0  0  0  0  0  0  0  0  0  0
  202.9637  192.0194  154.0673 H   0  0  0  0  0  0  0  0  0  0  0  0
  202.8893  194.1067  152.7393 H   0  0  0  0  0  0  0  0  0  0  0  0
  200.8218  194.7386  151.5096 H   0  0  0  0  0  0  0  0  0  0  0  0
  198.8204  193.2547  151.6110 H   0  0  0  0  0  0  0  0  0  0  0  0
  198.8961  191.1691  152.9304 H   0  0  0  0  0  0  0  0  0  0  0  0
  202.9946  189.5930  153.8686 H   0  0  0  0  0  0  0  0  0  0  0  0
  204.7224  188.6115  154.8470 H   0  0  0  0  0  0  0  0  0  0  0  0
  206.5634  186.9957  155.0505 H   0  0  0  0  0  0  0  0  0  0  0  0
  206.1014  184.6347  155.6885 H   0  0  0  0  0  0  0  0  0  0  0  0
  203.7597  183.9082  156.1170 H   0  0  0  0  0  0  0  0  0  0  0  0
  201.9009  185.5170  155.9120 H   0  0  0  0  0  0  0  0  0  0  0  0
  200.2563  186.5991  157.9017 H   0  0  0  0  0  0  0  0  0  0  0  0
  197.2718  183.6002  160.0635 H   0  0  0  0  0  0  0  0  0  0  0  0
  193.9854  183.1740  158.4645 H   0  0  0  0  0  0  0  0  0  0  0  0
  194.0510  184.9261  158.2537 H   0  0  0  0  0  0  0  0  0  0  0  0
  193.1603  184.2478  159.6397 H   0  0  0  0  0  0  0  0  0  0  0  0
  196.1816  185.4549  161.3345 H   0  0  0  0  0  0  0  0  0  0  0  0
  194.3871  185.6413  161.1661 H   0  0  0  0  0  0  0  0  0  0  0  0
  195.4854  186.3204  160.0213 H   0  0  0  0  0  0  0  0  0  0  0  0
  195.8889  182.8899  157.4094 H   0  0  0  0  0  0  0  0  0  0  0  0
  197.4950  182.4592  157.8410 H   0  0  0  0  0  0  0  0  0  0  0  0
  196.6916  181.1573  159.6881 H   0  0  0  0  0  0  0  0  0  0  0  0
  1  2  1  0
  2  3  2  0
  2 26  1  0
  3  4  1  0
  3 27  1  0
  4  5  2  0
  4 35  1  0
  5  6  1  0
  5 36  1  0
  6  7  1  0
  6 26  2  0
  7  8  1  0
  7 37  1  0
  8  9  2  0
  8 19  1  0
  9 10  1  0
 10 11  1  0
 10 17  2  0
 11 12  2  0
 11 16  1  0
 12 13  1  0
 12 38  1  0
 13 14  2  0
 13 39  1  0
 14 15  1  0
 14 40  1  0
 15 16  2  0
 15 41  1  0
 16 42  1  0
 17 18  1  0
 17 43  1  0
 18 19  2  0
 18 20  1  0
 20 21  2  0
 20 25  1  0
 21 22  1  0
 21 44  1  0
 22 23  2  0
 22 45  1  0
 23 24  1  0
 23 46  1  0
 24 25  2  0
 24 47  1  0
 25 48  1  0
 26 49  1  0
 27 28  1  0
 27 31  1  0
 27 50  1  1
 28 29  1  0
 28 30  1  0
 29 51  1  6
 29 52  1  0
 29 53  1  0
 30 54  1  1
 30 55  1  0
 30 56  1  0
 31 32  1  0
 31 57  1  6
 31 58  1  0
 32 33  1  6
 32 34  1  0
 32 59  1  0
M  CHG  1  32   1
M  END
>  <s_epik_cmdline>  (1123) 
J2VwaWtfcHl0aG9uJywgJy1waCcsICc3LjAwMDAwMCcsICctcGh0JywgJzIuMDAwMDAwJywgJy1tcycsICcxNicsICctdG4nLCAnOCcsICctbWEnLCAnMjAwJywgJy1pbWFlJywgJzxpbmZpbGUubWFlPicsICctb21hZScsICc8b3V0ZmlsZS5tYWU+Jw==

>  <s_epik_input>  (1123) 
W0NIM11OKFtDSDNdKVtDQEBIXShbQ0gyXVtOSDJdKWMoYzFDbClbY0hdW2NIXWMoW2NIXTEpW05IXWMybmMoLWMzW2NIXVtjSF1bY0hdW2NIXVtjSF0zKVtjSF1jKG4yKS1jNFtjSF1bY0hdW2NIXVtjSF1bY0hdNA==

>  <s_i_glide_gridfile>  (1123) 
ATP-Grid

>  <s_lp_Force_Field>  (1123) 
OPLS_2005

>  <s_lp_Variant>  (1123) 
rxn102c____EMOL331057570____EMOL1127984-1

>  <s_lp_label>  (1123) 
2532_sdstereoexpander_1_neutralizer_1_epik_1_stereoizer_1

>  <s_m_source_file>  (1123) 
ATP-VSW-LIGPREP-001-in.maegz

>  <s_sd_BIOSOLVEIT.INFINISEE\_QUERY\_NAME>  (1123) 
Ref-Lig

>  <s_sd_BIOSOLVEIT.INFINISEE\_QUERY\_SMILES>  (1123) 
S(c1nc2c(cc1C[NH2+]Cc3ccc(cc3)C[NH+](C)C)cccc2)Cc4ccccc4

>  <s_sd_BIOSOLVEIT.INFINISEE\_REACTION\_NAME>  (1123) 
rxn102c

>  <s_sd_BIOSOLVEIT.INFINISEE\_REAGENT1\_NAME>  (1123) 
EMOL331057570

>  <s_sd_BIOSOLVEIT.INFINISEE\_REAGENT1\_SMILES>  (1123) 
Clc1c(ccc(Cl)c1)C(N(C)C)CN

>  <s_sd_BIOSOLVEIT.INFINISEE\_REAGENT2\_NAME>  (1123) 
EMOL1127984

>  <s_sd_BIOSOLVEIT.INFINISEE\_REAGENT2\_SMILES>  (1123) 
n1c(nc(c2ccccc2)cc1c3ccccc3)N

>  <s_sd_BIOSOLVEIT.INFINISEE\_SPACE>  (1123) 
eXplore_7tr_2022-12

>  <s_vsw_compound_code>  (1123) 
80993

>  <s_vsw_variant>  (1123) 
80993-1

>  <r_epik_Charging_Adjusted_Penalty>  (1123) 
0.053475051808162401

>  <r_epik_Ionization_Penalty>  (1123) 
0.015599999999999999

>  <r_epik_Ionization_Penalty_Charging>  (1123) 
0.0080000000000000002

>  <r_epik_Ionization_Penalty_Neutral>  (1123) 
0.0076

>  <r_epik_State_Penalty>  (1123) 
0.045499999999999999

>  <r_i_docking_score>  (1123) 
-4.45475962306661

>  <r_i_glide_ecoul>  (1123) 
-10.3961734771729

>  <r_i_glide_eff_state_penalty>  (1123) 
0.045499999999999999

>  <r_i_glide_einternal>  (1123) 
4.8909668922424299

>  <r_i_glide_emodel>  (1123) 
-44.760782273255401

>  <r_i_glide_energy>  (1123) 
-32.7285251617432

>  <r_i_glide_erotb>  (1123) 
0.50514632217480804

>  <r_i_glide_esite>  (1123) 
-0.10000000000000001

>  <r_i_glide_evdw>  (1123) 
-22.332351684570298

>  <r_i_glide_gscore>  (1123) 
-4.5002596230666096

>  <r_i_glide_hbond>  (1123) 
-0.20000000000000001

>  <r_i_glide_ligand_efficiency>  (1123) 
-0.13921123822083201

>  <r_i_glide_ligand_efficiency_ln>  (1123) 
-0.99754211176566998

>  <r_i_glide_ligand_efficiency_sa>  (1123) 
-0.44196813148450598

>  <r_i_glide_lipo>  (1123) 
-1.41046715178369

>  <r_i_glide_metal>  (1123) 
-0

>  <r_i_glide_rewards>  (1123) 
-0.618895187653281

>  <r_lp_Energy>  (1123) 
30.071270999999999

>  <r_lp_tautomer_probability>  (1123) 
0.99999998763599995

>  <r_qp_ACxDN^.5/SA>  (1123) 
0.0121657

>  <r_qp_CIQPlogS>  (1123) 
-5.2009999999999996

>  <r_qp_EA(eV)>  (1123) 
0.87

>  <r_qp_FISA>  (1123) 
79.468000000000004

>  <r_qp_FOSA>  (1123) 
168.70699999999999

>  <r_qp_IP(eV)>  (1123) 
8.4540000000000006

>  <r_qp_Jm>  (1123) 
0.00024602752270705999

>  <r_qp_PISA>  (1123) 
490.03699999999998

>  <r_qp_PSA>  (1123) 
59.531999999999996

>  <r_qp_PercentHumanOralAbsorption>  (1123) 
90.364999999999995

>  <r_qp_QPPCaco>  (1123) 
108.66800000000001

>  <r_qp_QPPMDCK>  (1123) 
96.792000000000002

>  <r_qp_QPlogBB>  (1123) 
0.111

>  <r_qp_QPlogHERG>  (1123) 
-8.9260000000000002

>  <r_qp_QPlogKhsa>  (1123) 
0.878

>  <r_qp_QPlogKp>  (1123) 
-4.6150000000000002

>  <r_qp_QPlogPC16>  (1123) 
16.494

>  <r_qp_QPlogPo/w>  (1123) 
4.6070000000000002

>  <r_qp_QPlogPoct>  (1123) 
24.193000000000001

>  <r_qp_QPlogPw>  (1123) 
13.539999999999999

>  <r_qp_QPlogS>  (1123) 
-4.641

>  <r_qp_QPpolrz>  (1123) 
49.884999999999998

>  <r_qp_SASA>  (1123) 
783.04499999999996

>  <r_qp_SAamideO>  (1123) 
0

>  <r_qp_SAfluorine>  (1123) 
0

>  <r_qp_WPSA>  (1123) 
44.832000000000001

>  <r_qp_accptHB>  (1123) 
5.5

>  <r_qp_dip^2/V>  (1123) 
0.0077101000000000001

>  <r_qp_dipole>  (1123) 
3.2989999999999999

>  <r_qp_donorHB>  (1123) 
3

>  <r_qp_glob>  (1123) 
0.77721019999999996

>  <r_qp_mol_MW>  (1123) 
443.97800000000001

>  <r_qp_volume>  (1123) 
1411.692

>  <r_sd_BIOSOLVEIT.INFINISEE\_FTREES\_SIMILARITY>  (1123) 
0.91300000000000003

>  <r_sd_BIOSOLVEIT.LOGP>  (1123) 
3.6351

>  <r_sd_BIOSOLVEIT.MOLECULAR\_WEIGHT>  (1123) 
445.995

>  <r_sd_BIOSOLVEIT.TPSA>  (1123) 
69.890000000000001

>  <i_epik_Tot_Q>  (1123) 
1

>  <i_epik_Tot_abs_Q>  (1123) 
1

>  <i_f3d_flags>  (1123) 
0

>  <i_i_glide_confnum>  (1123) 
2

>  <i_i_glide_lignum>  (1123) 
1005

>  <i_i_glide_posenum>  (1123) 
14

>  <i_i_glide_rotatable_bonds>  (1123) 
7

>  <i_lp_mmshare_version>  (1123) 
65135

>  <i_m_ct_format>  (1123) 
2

>  <i_m_source_file_index>  (1123) 
2532

>  <i_qp_#NandO>  (1123) 
5

>  <i_qp_#acid>  (1123) 
0

>  <i_qp_#amide>  (1123) 
0

>  <i_qp_#amidine>  (1123) 
0

>  <i_qp_#amine>  (1123) 
2

>  <i_qp_#in34>  (1123) 
0

>  <i_qp_#in56>  (1123) 
24

>  <i_qp_#metab>  (1123) 
4

>  <i_qp_#nonHatm>  (1123) 
32

>  <i_qp_#noncon>  (1123) 
0

>  <i_qp_#ringatoms>  (1123) 
24

>  <i_qp_#rotor>  (1123) 
8

>  <i_qp_#rtvFG>  (1123) 
0

>  <i_qp_#stars>  (1123) 
1

>  <i_qp_CNS>  (1123) 
1

>  <i_qp_HumanOralAbsorption>  (1123) 
3

>  <i_qp_RuleOfFive>  (1123) 
0

>  <i_qp_RuleOfThree>  (1123) 
0

>  <i_sd_BIOSOLVEIT.INFINISEE\_RESULT\_RANK>  (1123) 
33815

>  <i_sd_version>  (1123) 
0

>  <b_lp_Chiralities_Consistent>  (1123) 
1

>  <b_sd_chiral_flag>  (1123) 
0

>  <canonical_id>  (1123) 
ATP-HTVS-B383260168BF

>  <compound_code>  (1123) 
80993

>  <title>  (1123) 
rxn102c____EMOL331057570____EMOL1127984

>  <variant>  (1123) 
80993-1

>  <source_file>  (1123) 
运行/运行/ATP-VSW/ATP-VSW-DOCK_HTVS_1-001_lib/ATP-VSW-DOCK_HTVS_1-001_lib

>  <canonical_smiles>  (1123) 
CN(C)[C@@H](C[NH3+])c1ccc(Nc2nc(-c3ccccc3)cc(-c3ccccc3)n2)cc1Cl

>  <scaffold>  (1123) 
c1ccc(Nc2nc(-c3ccccc3)cc(-c3ccccc3)n2)cc1

>  <molecular_formula>  (1123) 
C26H27ClN5+

$$$$
ATP-HTVS-B3F47181DC5D
     RDKit          3D

 56 59  0  0  0  0  0  0  0  0999 V2000
  197.7932  183.0732  148.7466 F   0  0  0  0  0  0  0  0  0  0  0  0
  197.7771  183.1071  150.0973 C   0  0  0  0  0  0  0  0  0  0  0  0
  196.7573  183.7961  150.7705 C   0  0  0  0  0  0  0  0  0  0  0  0
  196.7489  183.8273  152.1739 C   0  0  0  0  0  0  0  0  0  0  0  0
  197.7438  183.1733  152.9292 C   0  0  0  0  0  0  0  0  0  0  0  0
  198.7695  182.4842  152.2438 C   0  0  0  0  0  0  0  0  0  0  0  0
  198.7823  182.4522  150.8331 C   0  0  0  0  0  0  0  0  0  0  0  0
  197.7444  183.2483  154.4598 C   0  0  2  0  0  0  0  0  0  0  0  0
  196.7469  182.2986  155.0205 N   0  0  1  0  0  0  0  0  0  0  0  0
  196.9996  181.7669  156.3852 C   0  0  1  0  0  0  0  0  0  0  0  0
  196.4657  182.7330  157.3665 C   0  0  0  0  0  0  0  0  0  0  0  0
  196.0877  183.5975  158.1409 C   0  0  0  0  0  0  0  0  0  0  0  0
  195.6506  184.6772  159.0227 C   0  0  0  0  0  0  0  0  0  0  0  0
  196.3772  185.8750  159.2490 C   0  0  0  0  0  0  0  0  0  0  0  0
  195.8497  186.8411  160.1517 C   0  0  0  0  0  0  0  0  0  0  0  0
  194.6233  186.5583  160.8100 C   0  0  0  0  0  0  0  0  0  0  0  0
  193.9256  185.4383  160.5355 N   0  0  0  0  0  0  0  0  0  0  0  0
  194.4236  184.5224  159.6818 C   0  0  0  0  0  0  0  0  0  0  0  0
  194.1216  187.5392  161.7098 N   0  0  0  0  0  0  0  0  0  0  0  0
  193.1466  187.4483  162.6320 C   0  0  0  0  0  0  0  0  0  0  0  0
  192.7038  186.3924  163.0816 O   0  0  0  0  0  0  0  0  0  0  0  0
  192.7148  188.7744  163.2059 C   0  0  0  0  0  0  0  0  0  0  0  0
  192.2171  188.8465  164.5264 C   0  0  0  0  0  0  0  0  0  0  0  0
  191.8058  190.0804  165.0743 C   0  0  0  0  0  0  0  0  0  0  0  0
  191.3413  190.1453  166.3557 O   0  0  0  0  0  0  0  0  0  0  0  0
  191.8618  191.2523  164.2954 C   0  0  0  0  0  0  0  0  0  0  0  0
  192.3368  191.1894  162.9731 C   0  0  0  0  0  0  0  0  0  0  0  0
  192.7545  189.9614  162.4305 C   0  0  0  0  0  0  0  0  0  0  0  0
  196.5580  188.0491  160.3802 C   0  0  0  0  0  0  0  0  0  0  0  0
  197.7818  188.2947  159.7323 C   0  0  0  0  0  0  0  0  0  0  0  0
  198.3098  187.3393  158.8507 C   0  0  0  0  0  0  0  0  0  0  0  0
  197.6159  186.1399  158.6146 C   0  0  0  0  0  0  0  0  0  0  0  0
  197.5122  184.6956  154.9418 C   0  0  2  0  0  0  0  0  0  0  0  0
  195.8129  182.6931  154.9941 H   0  0  0  0  0  0  0  0  0  0  0  0
  195.9887  184.3045  150.2099 H   0  0  0  0  0  0  0  0  0  0  0  0
  195.9482  184.3657  152.6636 H   0  0  0  0  0  0  0  0  0  0  0  0
  199.5562  181.9865  152.7936 H   0  0  0  0  0  0  0  0  0  0  0  0
  199.5683  181.9295  150.3142 H   0  0  0  0  0  0  0  0  0  0  0  0
  198.7342  182.9253  154.7865 H   0  0  0  0  0  0  0  0  0  0  0  0
  196.4607  180.8305  156.5245 H   0  0  0  0  0  0  0  0  0  0  0  0
  198.0585  181.5838  156.5685 H   0  0  0  0  0  0  0  0  0  0  0  0
  193.8206  183.6411  159.5352 H   0  0  0  0  0  0  0  0  0  0  0  0
  194.4638  188.4718  161.5358 H   0  0  0  0  0  0  0  0  0  0  0  0
  192.1543  187.9476  165.1233 H   0  0  0  0  0  0  0  0  0  0  0  0
  191.4413  189.3321  166.8287 H   0  0  0  0  0  0  0  0  0  0  0  0
  191.5441  192.1990  164.7082 H   0  0  0  0  0  0  0  0  0  0  0  0
  192.3672  192.0833  162.3667 H   0  0  0  0  0  0  0  0  0  0  0  0
  193.0897  189.9571  161.4015 H   0  0  0  0  0  0  0  0  0  0  0  0
  196.2057  188.8122  161.0598 H   0  0  0  0  0  0  0  0  0  0  0  0
  198.3312  189.2050  159.9386 H   0  0  0  0  0  0  0  0  0  0  0  0
  199.2596  187.5151  158.3697 H   0  0  0  0  0  0  0  0  0  0  0  0
  198.0673  185.4143  157.9665 H   0  0  0  0  0  0  0  0  0  0  0  0
  198.2434  185.3878  154.5257 H   0  0  0  0  0  0  0  0  0  0  0  0
  197.6119  184.7735  156.0139 H   0  0  0  0  0  0  0  0  0  0  0  0
  196.5106  185.0532  154.6956 H   0  0  0  0  0  0  0  0  0  0  0  0
  196.7313  181.4996  154.4098 H   0  0  0  0  0  0  0  0  0  0  0  0
  1  2  1  0
  2  3  1  0
  2  7  2  0
  3  4  2  0
  3 35  1  0
  4  5  1  0
  4 36  1  0
  5  6  2  0
  5  8  1  0
  6  7  1  0
  6 37  1  0
  7 38  1  0
  8  9  1  0
  8 33  1  0
  8 39  1  1
  9 10  1  0
  9 34  1  1
  9 56  1  0
 10 11  1  0
 10 40  1  6
 10 41  1  0
 11 12  3  0
 12 13  1  0
 13 14  2  0
 13 18  1  0
 14 15  1  0
 14 32  1  0
 15 16  2  0
 15 29  1  0
 16 17  1  0
 16 19  1  0
 17 18  2  0
 18 42  1  0
 19 20  1  0
 19 43  1  0
 20 21  2  0
 20 22  1  0
 22 23  1  0
 22 28  2  0
 23 24  2  0
 23 44  1  0
 24 25  1  0
 24 26  1  0
 25 45  1  0
 26 27  2  0
 26 46  1  0
 27 28  1  0
 27 47  1  0
 28 48  1  0
 29 30  2  0
 29 49  1  0
 30 31  1  0
 30 50  1  0
 31 32  2  0
 31 51  1  0
 32 52  1  0
 33 53  1  6
 33 54  1  0
 33 55  1  0
M  CHG  1   9   1
M  END
>  <s_epik_cmdline>  (1124) 
J2VwaWtfcHl0aG9uJywgJy1waCcsICc3LjAwMDAwMCcsICctcGh0JywgJzIuMDAwMDAwJywgJy1tcycsICcxNicsICctdG4nLCAnOCcsICctbWEnLCAnMjAwJywgJy1pbWFlJywgJzxpbmZpbGUubWFlPicsICctb21hZScsICc8b3V0ZmlsZS5tYWU+Jw==

>  <s_epik_input>  (1124) 
RmMxW2NIXVtjSF1jKFtjSF1bY0hdMSlbQ0BASF0oW0NIM10pW05IXVtDSDJdQyNDYzJbY0hdbmMoYyhjMjMpW2NIXVtjSF1bY0hdW2NIXTMpW05IXUMoPU8pYzRbY0hdYyhbT0hdKVtjSF1bY0hdW2NIXTQ=

>  <s_i_glide_gridfile>  (1124) 
ATP-Grid

>  <s_lp_Force_Field>  (1124) 
OPLS_2005

>  <s_lp_Variant>  (1124) 
rxn503b____EMOL519605____EMOL7515103____EMOL317506007-3

>  <s_lp_label>  (1124) 
2618_sdstereoexpander_1_neutralizer_1_epik_2_stereoizer_1

>  <s_m_source_file>  (1124) 
ATP-VSW-LIGPREP-002-in.maegz

>  <s_sd_BIOSOLVEIT.INFINISEE\_QUERY\_NAME>  (1124) 
Ref-Lig

>  <s_sd_BIOSOLVEIT.INFINISEE\_QUERY\_SMILES>  (1124) 
S(c1nc2c(cc1C[NH2+]Cc3ccc(cc3)C[NH+](C)C)cccc2)Cc4ccccc4

>  <s_sd_BIOSOLVEIT.INFINISEE\_REACTION\_NAME>  (1124) 
rxn503b

>  <s_sd_BIOSOLVEIT.INFINISEE\_REAGENT1\_NAME>  (1124) 
EMOL519605

>  <s_sd_BIOSOLVEIT.INFINISEE\_REAGENT1\_SMILES>  (1124) 
O=C(O)c1cc(O)ccc1

>  <s_sd_BIOSOLVEIT.INFINISEE\_REAGENT2\_NAME>  (1124) 
EMOL7515103

>  <s_sd_BIOSOLVEIT.INFINISEE\_REAGENT2\_SMILES>  (1124) 
Brc1c2c(c(nc1)N)cccc2

>  <s_sd_BIOSOLVEIT.INFINISEE\_REAGENT3\_NAME>  (1124) 
EMOL317506007

>  <s_sd_BIOSOLVEIT.INFINISEE\_REAGENT3\_SMILES>  (1124) 
Fc1ccc(cc1)C(NCC#C)C

>  <s_sd_BIOSOLVEIT.INFINISEE\_SPACE>  (1124) 
eXplore_7tr_2022-12

>  <s_vsw_compound_code>  (1124) 
83746

>  <s_vsw_variant>  (1124) 
83746-3

>  <r_epik_Charging_Adjusted_Penalty>  (1124) 
1.1625883660222001

>  <r_epik_Ionization_Penalty>  (1124) 
0.58379999999999999

>  <r_epik_Ionization_Penalty_Charging>  (1124) 
0.57879999999999998

>  <r_epik_Ionization_Penalty_Neutral>  (1124) 
0.0050000000000000001

>  <r_epik_State_Penalty>  (1124) 
0.58379999999999999

>  <r_i_docking_score>  (1124) 
-5.7813173308938604

>  <r_i_glide_ecoul>  (1124) 
-9.6338796615600604

>  <r_i_glide_eff_state_penalty>  (1124) 
0.58379999999999999

>  <r_i_glide_einternal>  (1124) 
5.5242938995361301

>  <r_i_glide_emodel>  (1124) 
-75.761608278542298

>  <r_i_glide_energy>  (1124) 
-51.940691947936998

>  <r_i_glide_erotb>  (1124) 
0.72034826401853402

>  <r_i_glide_esite>  (1124) 
-0.056136013781154501

>  <r_i_glide_evdw>  (1124) 
-42.306812286377003

>  <r_i_glide_gscore>  (1124) 
-6.3651173308938596

>  <r_i_glide_hbond>  (1124) 
-0.42056007131675799

>  <r_i_glide_ligand_efficiency>  (1124) 
-0.175191434269511

>  <r_i_glide_ligand_efficiency_ln>  (1124) 
-1.2857350403316901

>  <r_i_glide_ligand_efficiency_sa>  (1124) 
-0.56193253908573004

>  <r_i_glide_lipo>  (1124) 
-2.2482825315527202

>  <r_i_glide_metal>  (1124) 
-0

>  <r_i_glide_rewards>  (1124) 
-0.80006441470890199

>  <r_lp_Energy>  (1124) 
25.573786999999999

>  <r_lp_tautomer_probability>  (1124) 
0.999999999997365

>  <r_qp_ACxDN^.5/SA>  (1124) 
0.0124923

>  <r_qp_CIQPlogS>  (1124) 
-5.9480000000000004

>  <r_qp_EA(eV)>  (1124) 
1.25

>  <r_qp_FISA>  (1124) 
137.584

>  <r_qp_FOSA>  (1124) 
118.274

>  <r_qp_IP(eV)>  (1124) 
8.4459999999999997

>  <r_qp_Jm>  (1124) 
9.8537493227891305e-05

>  <r_qp_PISA>  (1124) 
494.35899999999998

>  <r_qp_PSA>  (1124) 
80.738

>  <r_qp_PercentHumanOralAbsorption>  (1124) 
91.584999999999994

>  <r_qp_QPPCaco>  (1124) 
122.48699999999999

>  <r_qp_QPPMDCK>  (1124) 
102.361

>  <r_qp_QPlogBB>  (1124) 
-0.97499999999999998

>  <r_qp_QPlogHERG>  (1124) 
-8.4280000000000008

>  <r_qp_QPlogKhsa>  (1124) 
0.83399999999999996

>  <r_qp_QPlogKp>  (1124) 
-3.6080000000000001

>  <r_qp_QPlogPC16>  (1124) 
16.417000000000002

>  <r_qp_QPlogPo/w>  (1124) 
4.657

>  <r_qp_QPlogPoct>  (1124) 
25.100000000000001

>  <r_qp_QPlogPw>  (1124) 
14.246

>  <r_qp_QPlogS>  (1124) 
-6.0410000000000004

>  <r_qp_QPpolrz>  (1124) 
50.040999999999997

>  <r_qp_SASA>  (1124) 
797.23699999999997

>  <r_qp_SAamideO>  (1124) 
0

>  <r_qp_SAfluorine>  (1124) 
47.020000000000003

>  <r_qp_WPSA>  (1124) 
47.020000000000003

>  <r_qp_accptHB>  (1124) 
5.75

>  <r_qp_dip^2/V>  (1124) 
0.042401599999999998

>  <r_qp_dipole>  (1124) 
7.7450000000000001

>  <r_qp_donorHB>  (1124) 
3

>  <r_qp_glob>  (1124) 
0.76440660000000005

>  <r_qp_mol_MW>  (1124) 
439.488

>  <r_qp_volume>  (1124) 
1414.556

>  <r_sd_BIOSOLVEIT.INFINISEE\_FTREES\_SIMILARITY>  (1124) 
0.91100000000000003

>  <r_sd_BIOSOLVEIT.LOGP>  (1124) 
4.0079000000000002

>  <r_sd_BIOSOLVEIT.MOLECULAR\_WEIGHT>  (1124) 
440.49599999999998

>  <r_sd_BIOSOLVEIT.TPSA>  (1124) 
78.829999999999998

>  <i_epik_Tot_Q>  (1124) 
1

>  <i_epik_Tot_abs_Q>  (1124) 
1

>  <i_f3d_flags>  (1124) 
0

>  <i_i_glide_confnum>  (1124) 
3

>  <i_i_glide_lignum>  (1124) 
1204

>  <i_i_glide_posenum>  (1124) 
11

>  <i_i_glide_rotatable_bonds>  (1124) 
9

>  <i_lp_mmshare_version>  (1124) 
65135

>  <i_m_ct_format>  (1124) 
2

>  <i_m_source_file_index>  (1124) 
2618

>  <i_qp_#NandO>  (1124) 
5

>  <i_qp_#acid>  (1124) 
0

>  <i_qp_#amide>  (1124) 
0

>  <i_qp_#amidine>  (1124) 
0

>  <i_qp_#amine>  (1124) 
1

>  <i_qp_#in34>  (1124) 
0

>  <i_qp_#in56>  (1124) 
22

>  <i_qp_#metab>  (1124) 
5

>  <i_qp_#nonHatm>  (1124) 
33

>  <i_qp_#noncon>  (1124) 
0

>  <i_qp_#ringatoms>  (1124) 
22

>  <i_qp_#rotor>  (1124) 
8

>  <i_qp_#rtvFG>  (1124) 
0

>  <i_qp_#stars>  (1124) 
1

>  <i_qp_CNS>  (1124) 
-1

>  <i_qp_HumanOralAbsorption>  (1124) 
3

>  <i_qp_RuleOfFive>  (1124) 
0

>  <i_qp_RuleOfThree>  (1124) 
1

>  <i_sd_BIOSOLVEIT.INFINISEE\_RESULT\_RANK>  (1124) 
43228

>  <i_sd_version>  (1124) 
0

>  <b_lp_Chiralities_Consistent>  (1124) 
1

>  <b_sd_chiral_flag>  (1124) 
0

>  <canonical_id>  (1124) 
ATP-HTVS-B3F47181DC5D

>  <compound_code>  (1124) 
83746

>  <title>  (1124) 
rxn503b____EMOL519605____EMOL7515103____EMOL317506007

>  <variant>  (1124) 
83746-3

>  <source_file>  (1124) 
运行/运行/ATP-VSW/ATP-VSW-DOCK_HTVS_1-002_lib.maegz

>  <canonical_smiles>  (1124) 
C[C@@H]([NH2+]CC#Cc1cnc(NC(=O)c2cccc(O)c2)c2ccccc12)c1ccc(F)cc1

>  <scaffold>  (1124) 
O=C(Nc1ncc(C#CC[NH2+]Cc2ccccc2)c2ccccc12)c1ccccc1

>  <molecular_formula>  (1124) 
C27H23FN3O2+

$$$$
ATP-HTVS-B3FE097D1043
     RDKit          3D

 60 63  0  0  0  0  0  0  0  0999 V2000
  203.1854  180.7839  157.6261 S   0  0  0  0  0  0  0  0  0  0  0  0
  203.3556  181.4663  159.2252 C   0  0  0  0  0  0  0  0  0  0  0  0
  202.2323  182.3149  159.5632 C   0  0  0  0  0  0  0  0  0  0  0  0
  202.3124  182.9658  160.8322 C   0  0  0  0  0  0  0  0  0  0  0  0
  203.4084  182.7905  161.7056 C   0  0  0  0  0  0  0  0  0  0  0  0
  204.4706  181.9328  161.3609 C   0  0  0  0  0  0  0  0  0  0  0  0
  204.4324  181.2635  160.1213 C   0  0  0  0  0  0  0  0  0  0  0  0
  201.2323  182.3042  158.4916 C   0  0  0  0  0  0  0  0  0  0  0  0
  200.0102  183.0428  158.5146 N   0  0  0  0  0  0  0  0  0  0  0  0
  199.8015  184.2767  159.2512 C   0  0  1  0  0  0  0  0  0  0  0  0
  198.3960  184.8381  159.1706 C   0  0  0  0  0  0  0  0  0  0  0  0
  197.3103  183.9443  159.3575 C   0  0  0  0  0  0  0  0  0  0  0  0
  195.9764  184.4113  159.1555 C   0  0  0  0  0  0  0  0  0  0  0  0
  195.7562  185.7965  158.9821 C   0  0  0  0  0  0  0  0  0  0  0  0
  196.8332  186.6976  158.9141 C   0  0  0  0  0  0  0  0  0  0  0  0
  198.1583  186.2173  158.9958 C   0  0  0  0  0  0  0  0  0  0  0  0
  194.8257  183.4070  159.1514 C   0  0  1  0  0  0  0  0  0  0  0  0
  194.8620  182.3931  158.0816 N   0  0  1  0  0  0  0  0  0  0  0  0
  196.1613  181.7322  157.8591 C   0  0  2  0  0  0  0  0  0  0  0  0
  193.7609  181.4014  158.1751 C   0  0  2  0  0  0  0  0  0  0  0  0
  201.5793  181.4487  157.4717 C   0  0  0  0  0  0  0  0  0  0  0  0
  200.8982  181.0849  156.2003 C   0  0  0  0  0  0  0  0  0  0  0  0
  200.6006  182.0117  155.4419 O   0  0  0  0  0  0  0  0  0  0  0  0
  200.6050  179.7791  155.9433 N   0  0  0  0  0  0  0  0  0  0  0  0
  200.0956  179.3805  154.6629 C   0  0  0  0  0  0  0  0  0  0  0  0
  198.8926  179.9250  154.1408 C   0  0  0  0  0  0  0  0  0  0  0  0
  198.3995  179.4952  152.8925 C   0  0  0  0  0  0  0  0  0  0  0  0
  197.1650  180.0533  152.3592 C   0  0  0  0  0  0  0  0  0  0  0  0
  196.1869  180.4936  151.9324 N   0  0  0  0  0  0  0  0  0  0  0  0
  199.0926  178.5195  152.1546 C   0  0  0  0  0  0  0  0  0  0  0  0
  200.2803  177.9638  152.6703 C   0  0  0  0  0  0  0  0  0  0  0  0
  200.7773  178.3926  153.9178 C   0  0  0  0  0  0  0  0  0  0  0  0
  200.7273  178.7236  156.9617 C   0  0  2  0  0  0  0  0  0  0  0  0
  201.5413  183.6250  161.1839 H   0  0  0  0  0  0  0  0  0  0  0  0
  203.4202  183.3251  162.6514 H   0  0  0  0  0  0  0  0  0  0  0  0
  205.3065  181.8084  162.0391 H   0  0  0  0  0  0  0  0  0  0  0  0
  205.2388  180.5953  159.8579 H   0  0  0  0  0  0  0  0  0  0  0  0
  199.4422  182.9348  157.6827 H   0  0  0  0  0  0  0  0  0  0  0  0
  199.9391  184.0977  160.3048 H   0  0  0  0  0  0  0  0  0  0  0  0
  200.5320  185.0335  158.9133 H   0  0  0  0  0  0  0  0  0  0  0  0
  197.4754  182.8925  159.5547 H   0  0  0  0  0  0  0  0  0  0  0  0
  194.7458  186.1726  158.8668 H   0  0  0  0  0  0  0  0  0  0  0  0
  196.6564  187.7694  158.7875 H   0  0  0  0  0  0  0  0  0  0  0  0
  199.0010  186.9139  158.9129 H   0  0  0  0  0  0  0  0  0  0  0  0
  194.7865  182.9185  160.1207 H   0  0  0  0  0  0  0  0  0  0  0  0
  193.8919  183.9553  159.0822 H   0  0  0  0  0  0  0  0  0  0  0  0
  196.4682  181.2014  158.7757 H   0  0  0  0  0  0  0  0  0  0  0  0
  196.9701  182.4394  157.6459 H   0  0  0  0  0  0  0  0  0  0  0  0
  196.0815  181.0256  157.0699 H   0  0  0  0  0  0  0  0  0  0  0  0
  193.8274  180.8378  159.1015 H   0  0  0  0  0  0  0  0  0  0  0  0
  193.8197  180.6927  157.3550 H   0  0  0  0  0  0  0  0  0  0  0  0
  192.7796  181.8754  158.1170 H   0  0  0  0  0  0  0  0  0  0  0  0
  198.3463  180.6683  154.7042 H   0  0  0  0  0  0  0  0  0  0  0  0
  198.7228  178.1812  151.1965 H   0  0  0  0  0  0  0  0  0  0  0  0
  200.8115  177.2082  152.1082 H   0  0  0  0  0  0  0  0  0  0  0  0
  201.6856  177.9563  154.3056 H   0  0  0  0  0  0  0  0  0  0  0  0
  200.4557  177.7471  156.5574 H   0  0  0  0  0  0  0  0  0  0  0  0
  200.0066  178.9242  157.7580 H   0  0  0  0  0  0  0  0  0  0  0  0
  201.7240  178.6553  157.3892 H   0  0  0  0  0  0  0  0  0  0  0  0
  194.6500  182.8592  157.1908 H   0  0  0  0  0  0  0  0  0  0  0  0
  1  2  1  0
  1 21  1  0
  2  3  1  0
  2  7  2  0
  3  4  2  0
  3  8  1  0
  4  5  1  0
  4 34  1  0
  5  6  2  0
  5 35  1  0
  6  7  1  0
  6 36  1  0
  7 37  1  0
  8  9  1  0
  8 21  2  0
  9 10  1  0
  9 38  1  0
 10 11  1  0
 10 39  1  1
 10 40  1  0
 11 12  2  0
 11 16  1  0
 12 13  1  0
 12 41  1  0
 13 14  2  0
 13 17  1  0
 14 15  1  0
 14 42  1  0
 15 16  2  0
 15 43  1  0
 16 44  1  0
 17 18  1  0
 17 45  1  1
 17 46  1  0
 18 19  1  0
 18 20  1  0
 18 60  1  6
 19 47  1  1
 19 48  1  0
 19 49  1  0
 20 50  1  1
 20 51  1  0
 20 52  1  0
 21 22  1  0
 22 23  2  0
 22 24  1  0
 24 25  1  0
 24 33  1  0
 25 26  1  0
 25 32  2  0
 26 27  2  0
 26 53  1  0
 27 28  1  0
 27 30  1  0
 28 29  3  0
 30 31  2  0
 30 54  1  0
 31 32  1  0
 31 55  1  0
 32 56  1  0
 33 57  1  6
 33 58  1  0
 33 59  1  0
M  CHG  1  18   1
M  END
>  <s_epik_cmdline>  (1125) 
J2VwaWtfcHl0aG9uJywgJy1waCcsICc3LjAwMDAwMCcsICctcGh0JywgJzIuMDAwMDAwJywgJy1tcycsICcxNicsICctdG4nLCAnOCcsICctbWEnLCAnMjAwJywgJy1pbWFlJywgJzxpbmZpbGUubWFlPicsICctb21hZScsICc8b3V0ZmlsZS5tYWU+Jw==

>  <s_epik_input>  (1125) 
W2NIXTFbY0hdW2NIXWMoQyNOKVtjSF1jMU4oW0NIM10pQyg9TyljKHMyKWMoYyhjMjMpW2NIXVtjSF1bY0hdW2NIXTMpW05IXVtDSDJdYzRbY0hdYyhbY0hdW2NIXVtjSF00KVtDSDJdTihbQ0gzXSlbQ0gzXQ==

>  <s_i_glide_gridfile>  (1125) 
ATP-Grid

>  <s_lp_Force_Field>  (1125) 
OPLS_2005

>  <s_lp_Variant>  (1125) 
rxn512c____EMOL31412115____EMOL523944____EMOL2873214-1

>  <s_lp_label>  (1125) 
2183_sdstereoexpander_1_neutralizer_1_epik_1_stereoizer_1

>  <s_m_source_file>  (1125) 
ATP-VSW-LIGPREP-003-in.maegz

>  <s_sd_BIOSOLVEIT.INFINISEE\_QUERY\_NAME>  (1125) 
Ref-Lig

>  <s_sd_BIOSOLVEIT.INFINISEE\_QUERY\_SMILES>  (1125) 
S(c1nc2c(cc1C[NH2+]Cc3ccc(cc3)C[NH+](C)C)cccc2)Cc4ccccc4

>  <s_sd_BIOSOLVEIT.INFINISEE\_REACTION\_NAME>  (1125) 
rxn512c

>  <s_sd_BIOSOLVEIT.INFINISEE\_REAGENT1\_NAME>  (1125) 
EMOL31412115

>  <s_sd_BIOSOLVEIT.INFINISEE\_REAGENT1\_SMILES>  (1125) 
N#Cc1cc(NC)ccc1

>  <s_sd_BIOSOLVEIT.INFINISEE\_REAGENT2\_NAME>  (1125) 
EMOL523944

>  <s_sd_BIOSOLVEIT.INFINISEE\_REAGENT2\_SMILES>  (1125) 
ClC=1c2c(SC1C(=O)O)cccc2

>  <s_sd_BIOSOLVEIT.INFINISEE\_REAGENT3\_NAME>  (1125) 
EMOL2873214

>  <s_sd_BIOSOLVEIT.INFINISEE\_REAGENT3\_SMILES>  (1125) 
N(Cc1cc(ccc1)CN)(C)C

>  <s_sd_BIOSOLVEIT.INFINISEE\_SPACE>  (1125) 
eXplore_7tr_2022-12

>  <s_vsw_compound_code>  (1125) 
69827

>  <s_vsw_variant>  (1125) 
69827-1

>  <r_epik_Charging_Adjusted_Penalty>  (1125) 
0.086140609825027206

>  <r_epik_Ionization_Penalty>  (1125) 
0.043099999999999999

>  <r_epik_Ionization_Penalty_Charging>  (1125) 
0.043099999999999999

>  <r_epik_Ionization_Penalty_Neutral>  (1125) 
0

>  <r_epik_State_Penalty>  (1125) 
0.043099999999999999

>  <r_i_docking_score>  (1125) 
-4.6862752554022196

>  <r_i_glide_ecoul>  (1125) 
-7.4566087722778303

>  <r_i_glide_eff_state_penalty>  (1125) 
0.043099999999999999

>  <r_i_glide_einternal>  (1125) 
6.0800943374633798

>  <r_i_glide_emodel>  (1125) 
-58.265591582411602

>  <r_i_glide_energy>  (1125) 
-42.803414344787598

>  <r_i_glide_erotb>  (1125) 
0.67752607461633796

>  <r_i_glide_esite>  (1125) 
-0.108069948523172

>  <r_i_glide_evdw>  (1125) 
-35.346805572509801

>  <r_i_glide_gscore>  (1125) 
-4.7293752554022204

>  <r_i_glide_hbond>  (1125) 
-0.188783039628137

>  <r_i_glide_ligand_efficiency>  (1125) 
-0.142008341072794

>  <r_i_glide_ligand_efficiency_ln>  (1125) 
-1.04220335256677

>  <r_i_glide_ligand_efficiency_sa>  (1125) 
-0.45549662860586199

>  <r_i_glide_lipo>  (1125) 
-1.7941850867242899

>  <r_i_glide_metal>  (1125) 
-0

>  <r_i_glide_rewards>  (1125) 
-0.43003166067579301

>  <r_lp_Energy>  (1125) 
47.538192000000002

>  <r_qp_ACxDN^.5/SA>  (1125) 
0

>  <r_qp_CIQPlogS>  (1125) 
-5.8739999999999997

>  <r_qp_EA(eV)>  (1125) 
0.71599999999999997

>  <r_qp_FISA>  (1125) 
101.765

>  <r_qp_FOSA>  (1125) 
270.58499999999998

>  <r_qp_IP(eV)>  (1125) 
8.0470000000000006

>  <r_qp_Jm>  (1125) 
7.0354581021048301e-06

>  <r_qp_PISA>  (1125) 
408.52499999999998

>  <r_qp_PSA>  (1125) 
68.863

>  <r_qp_PercentHumanOralAbsorption>  (1125) 
86.465000000000003

>  <r_qp_QPPCaco>  (1125) 
66.781999999999996

>  <r_qp_QPPMDCK>  (1125) 
45.616999999999997

>  <r_qp_QPlogBB>  (1125) 
-0.18099999999999999

>  <r_qp_QPlogHERG>  (1125) 
-8.5500000000000007

>  <r_qp_QPlogKhsa>  (1125) 
0.82699999999999996

>  <r_qp_QPlogKp>  (1125) 
-5.3129999999999997

>  <r_qp_QPlogPC16>  (1125) 
15.882

>  <r_qp_QPlogPo/w>  (1125) 
4.5880000000000001

>  <r_qp_QPlogPoct>  (1125) 
21.379999999999999

>  <r_qp_QPlogPw>  (1125) 
9.7810000000000006

>  <r_qp_QPlogS>  (1125) 
-5.4969999999999999

>  <r_qp_QPpolrz>  (1125) 
51.716000000000001

>  <r_qp_SASA>  (1125) 
807.78700000000003

>  <r_qp_SAamideO>  (1125) 
0

>  <r_qp_SAfluorine>  (1125) 
0

>  <r_qp_WPSA>  (1125) 
26.911999999999999

>  <r_qp_accptHB>  (1125) 
6.5

>  <r_qp_dip^2/V>  (1125) 
0.041324699999999999

>  <r_qp_dipole>  (1125) 
7.8120000000000003

>  <r_qp_donorHB>  (1125) 
0

>  <r_qp_glob>  (1125) 
0.77642849999999997

>  <r_qp_mol_MW>  (1125) 
454.589

>  <r_qp_volume>  (1125) 
1476.8969999999999

>  <r_sd_BIOSOLVEIT.INFINISEE\_FTREES\_SIMILARITY>  (1125) 
0.93600000000000005

>  <r_sd_BIOSOLVEIT.LOGP>  (1125) 
4.3061800000000003

>  <r_sd_BIOSOLVEIT.MOLECULAR\_WEIGHT>  (1125) 
455.60199999999998

>  <r_sd_BIOSOLVEIT.TPSA>  (1125) 
60.57

>  <i_epik_Tot_Q>  (1125) 
1

>  <i_epik_Tot_abs_Q>  (1125) 
1

>  <i_f3d_flags>  (1125) 
0

>  <i_i_glide_confnum>  (1125) 
6

>  <i_i_glide_lignum>  (1125) 
831

>  <i_i_glide_posenum>  (1125) 
6

>  <i_i_glide_rotatable_bonds>  (1125) 
8

>  <i_lp_mmshare_version>  (1125) 
65135

>  <i_m_ct_format>  (1125) 
2

>  <i_m_source_file_index>  (1125) 
2183

>  <i_qp_#NandO>  (1125) 
5

>  <i_qp_#acid>  (1125) 
0

>  <i_qp_#amide>  (1125) 
0

>  <i_qp_#amidine>  (1125) 
0

>  <i_qp_#amine>  (1125) 
2

>  <i_qp_#in34>  (1125) 
0

>  <i_qp_#in56>  (1125) 
21

>  <i_qp_#metab>  (1125) 
6

>  <i_qp_#nonHatm>  (1125) 
33

>  <i_qp_#noncon>  (1125) 
0

>  <i_qp_#ringatoms>  (1125) 
21

>  <i_qp_#rotor>  (1125) 
8

>  <i_qp_#rtvFG>  (1125) 
0

>  <i_qp_#stars>  (1125) 
0

>  <i_qp_CNS>  (1125) 
1

>  <i_qp_HumanOralAbsorption>  (1125) 
3

>  <i_qp_RuleOfFive>  (1125) 
0

>  <i_qp_RuleOfThree>  (1125) 
0

>  <i_sd_BIOSOLVEIT.INFINISEE\_RESULT\_RANK>  (1125) 
2276

>  <i_sd_version>  (1125) 
0

>  <b_lp_Chiralities_Consistent>  (1125) 
1

>  <b_sd_chiral_flag>  (1125) 
0

>  <canonical_id>  (1125) 
ATP-HTVS-B3FE097D1043

>  <compound_code>  (1125) 
69827

>  <title>  (1125) 
rxn512c____EMOL31412115____EMOL523944____EMOL2873214

>  <variant>  (1125) 
69827-1

>  <source_file>  (1125) 
运行/运行/ATP-VSW/ATP-VSW-DOCK_HTVS_1-003_lib/ATP-VSW-DOCK_HTVS_1-003_lib.mae

>  <canonical_smiles>  (1125) 
CN(C(=O)c1sc2ccccc2c1NCc1cccc(C[NH+](C)C)c1)c1cccc(C#N)c1

>  <scaffold>  (1125) 
O=C(Nc1ccccc1)c1sc2ccccc2c1NCc1ccccc1

>  <molecular_formula>  (1125) 
C27H27N4OS+

$$$$
ATP-HTVS-B41566EF3893
     RDKit          3D

 67 70  0  0  0  0  0  0  0  0999 V2000
  198.1824  180.5908  156.1308 N   0  0  0  0  0  0  0  0  0  0  0  0
  197.0062  181.1525  155.8317 C   0  0  0  0  0  0  0  0  0  0  0  0
  196.4685  181.0806  154.6121 N   0  0  0  0  0  0  0  0  0  0  0  0
  197.0879  180.3823  153.6370 C   0  0  0  0  0  0  0  0  0  0  0  0
  198.3273  179.7522  153.8956 C   0  0  0  0  0  0  0  0  0  0  0  0
  198.8520  179.8893  155.1960 C   0  0  0  0  0  0  0  0  0  0  0  0
  200.1118  179.3533  155.5292 N   0  0  0  0  0  0  0  0  0  0  0  0
  200.7706  179.6889  156.7860 C   0  0  1  0  0  0  0  0  0  0  0  0
  201.3898  181.0975  156.7464 C   0  0  1  0  0  0  0  0  0  0  0  0
  201.8498  181.5706  158.1102 C   0  0  0  0  0  0  0  0  0  0  0  0
  201.1440  182.6011  158.7607 C   0  0  0  0  0  0  0  0  0  0  0  0
  201.5259  183.0242  160.0461 C   0  0  0  0  0  0  0  0  0  0  0  0
  202.6475  182.4461  160.6768 C   0  0  0  0  0  0  0  0  0  0  0  0
  203.3672  181.4263  160.0134 C   0  0  0  0  0  0  0  0  0  0  0  0
  202.9677  180.9850  158.7363 C   0  0  0  0  0  0  0  0  0  0  0  0
  203.0860  182.9242  162.0533 C   0  0  1  0  0  0  0  0  0  0  0  0
  203.2233  184.3985  162.1513 N   0  0  1  0  0  0  0  0  0  0  0  0
  203.5474  184.8337  163.5289 C   0  0  2  0  0  0  0  0  0  0  0  0
  204.1501  184.9853  161.1524 C   0  0  2  0  0  0  0  0  0  0  0  0
  198.9776  179.0376  152.8613 C   0  0  0  0  0  0  0  0  0  0  0  0
  198.3971  178.9725  151.5781 C   0  0  0  0  0  0  0  0  0  0  0  0
  197.1688  179.6161  151.3230 C   0  0  0  0  0  0  0  0  0  0  0  0
  196.5153  180.3218  152.3530 C   0  0  0  0  0  0  0  0  0  0  0  0
  196.3506  181.9182  156.7746 N   0  0  0  0  0  0  0  0  0  0  0  0
  196.7466  181.9848  158.1758 C   0  0  1  0  0  0  0  0  0  0  0  0
  196.3791  183.3004  158.8408 C   0  0  0  0  0  0  0  0  0  0  0  0
  195.0352  183.6417  159.1205 C   0  0  0  0  0  0  0  0  0  0  0  0
  194.7489  184.8808  159.7368 C   0  0  0  0  0  0  0  0  0  0  0  0
  195.7815  185.7771  160.0636 C   0  0  0  0  0  0  0  0  0  0  0  0
  195.4945  186.9836  160.7033 N   0  0  0  0  0  0  0  0  0  0  0  0
  197.1132  185.4464  159.7579 C   0  0  0  0  0  0  0  0  0  0  0  0
  197.4092  184.2082  159.1619 C   0  0  0  0  0  0  0  0  0  0  0  0
  193.8953  182.7023  158.7849 C   0  0  2  0  0  0  0  0  0  0  0  0
  200.6638  178.9055  154.8161 H   0  0  0  0  0  0  0  0  0  0  0  0
  200.0565  179.5870  157.6043 H   0  0  0  0  0  0  0  0  0  0  0  0
  201.5540  178.9552  156.9822 H   0  0  0  0  0  0  0  0  0  0  0  0
  202.2318  181.1126  156.0550 H   0  0  0  0  0  0  0  0  0  0  0  0
  200.6703  181.8150  156.3566 H   0  0  0  0  0  0  0  0  0  0  0  0
  200.3009  183.0620  158.2695 H   0  0  0  0  0  0  0  0  0  0  0  0
  200.9592  183.8059  160.5311 H   0  0  0  0  0  0  0  0  0  0  0  0
  204.2321  180.9723  160.4751 H   0  0  0  0  0  0  0  0  0  0  0  0
  203.5195  180.1983  158.2380 H   0  0  0  0  0  0  0  0  0  0  0  0
  202.3480  182.5922  162.7835 H   0  0  0  0  0  0  0  0  0  0  0  0
  204.0347  182.4558  162.3190 H   0  0  0  0  0  0  0  0  0  0  0  0
  204.5260  184.4641  163.8393 H   0  0  0  0  0  0  0  0  0  0  0  0
  202.8066  184.4701  164.2426 H   0  0  0  0  0  0  0  0  0  0  0  0
  203.5567  185.9220  163.5987 H   0  0  0  0  0  0  0  0  0  0  0  0
  205.1590  184.5879  161.2724 H   0  0  0  0  0  0  0  0  0  0  0  0
  204.1941  186.0698  161.2581 H   0  0  0  0  0  0  0  0  0  0  0  0
  203.8290  184.7829  160.1305 H   0  0  0  0  0  0  0  0  0  0  0  0
  199.9222  178.5398  153.0264 H   0  0  0  0  0  0  0  0  0  0  0  0
  198.8983  178.4351  150.7839 H   0  0  0  0  0  0  0  0  0  0  0  0
  196.7295  179.5651  150.3354 H   0  0  0  0  0  0  0  0  0  0  0  0
  195.5800  180.8170  152.1417 H   0  0  0  0  0  0  0  0  0  0  0  0
  195.4358  182.2743  156.5191 H   0  0  0  0  0  0  0  0  0  0  0  0
  196.2953  181.1553  158.7227 H   0  0  0  0  0  0  0  0  0  0  0  0
  197.8248  181.8565  158.2672 H   0  0  0  0  0  0  0  0  0  0  0  0
  193.7221  185.1426  159.9541 H   0  0  0  0  0  0  0  0  0  0  0  0
  196.2220  187.6326  160.9744 H   0  0  0  0  0  0  0  0  0  0  0  0
  194.5485  187.2428  160.9397 H   0  0  0  0  0  0  0  0  0  0  0  0
  197.9150  186.1300  159.9930 H   0  0  0  0  0  0  0  0  0  0  0  0
  198.4379  183.9632  158.9539 H   0  0  0  0  0  0  0  0  0  0  0  0
  192.9350  183.1698  158.9936 H   0  0  0  0  0  0  0  0  0  0  0  0
  193.9853  181.7564  159.3193 H   0  0  0  0  0  0  0  0  0  0  0  0
  193.8818  182.4564  157.7330 H   0  0  0  0  0  0  0  0  0  0  0  0
  195.5953  181.5745  154.4114 H   0  0  0  0  0  0  0  0  0  0  0  0
  202.3008  184.7652  161.9579 H   0  0  0  0  0  0  0  0  0  0  0  0
  1  2  1  0
  1  6  2  0
  2  3  2  0
  2 24  1  0
  3  4  1  0
  3 66  1  0
  4  5  1  0
  4 23  2  0
  5  6  1  0
  5 20  2  0
  6  7  1  0
  7  8  1  0
  7 34  1  0
  8  9  1  0
  8 35  1  1
  8 36  1  0
  9 10  1  0
  9 37  1  6
  9 38  1  0
 10 11  1  0
 10 15  2  0
 11 12  2  0
 11 39  1  0
 12 13  1  0
 12 40  1  0
 13 14  2  0
 13 16  1  0
 14 15  1  0
 14 41  1  0
 15 42  1  0
 16 17  1  0
 16 43  1  1
 16 44  1  0
 17 18  1  0
 17 19  1  0
 17 67  1  6
 18 45  1  1
 18 46  1  0
 18 47  1  0
 19 48  1  6
 19 49  1  0
 19 50  1  0
 20 21  1  0
 20 51  1  0
 21 22  2  0
 21 52  1  0
 22 23  1  0
 22 53  1  0
 23 54  1  0
 24 25  1  0
 24 55  1  0
 25 26  1  0
 25 56  1  1
 25 57  1  0
 26 27  2  0
 26 32  1  0
 27 28  1  0
 27 33  1  0
 28 29  2  0
 28 58  1  0
 29 30  1  0
 29 31  1  0
 30 59  1  0
 30 60  1  0
 31 32  2  0
 31 61  1  0
 32 62  1  0
 33 63  1  1
 33 64  1  0
 33 65  1  0
M  CHG  2   3   1  17   1
M  END
>  <s_epik_cmdline>  (1126) 
J2VwaWtfcHl0aG9uJywgJy1waCcsICc3LjAwMDAwMCcsICctcGh0JywgJzIuMDAwMDAwJywgJy1tcycsICcxNicsICctdG4nLCAnOCcsICctbWEnLCAnMjAwJywgJy1pbWFlJywgJzxpbmZpbGUubWFlPicsICctb21hZScsICc8b3V0ZmlsZS5tYWU+Jw==

>  <s_epik_input>  (1126) 
W2NIXTFbY0hdYyhbTkgyXSlbY0hdYyhbQ0gzXSljMVtDSDJdW05IXWMobjIpbmMoYyhjMjMpW2NIXVtjSF1bY0hdW2NIXTMpW05IXVtDSDJdW0NIMl1jNFtjSF1bY0hdYyhbY0hdW2NIXTQpW0NIMl1OKFtDSDNdKVtDSDNd

>  <s_i_glide_gridfile>  (1126) 
ATP-Grid

>  <s_lp_Force_Field>  (1126) 
OPLS_2005

>  <s_lp_Variant>  (1126) 
m_282030aaa____21926464____22360182____21977402-1

>  <s_lp_label>  (1126) 
1103_sdstereoexpander_1_neutralizer_1_epik_1_stereoizer_1

>  <s_m_source_file>  (1126) 
ATP-VSW-LIGPREP-003-in.maegz

>  <s_sd_BIOSOLVEIT.INFINISEE\_QUERY\_NAME>  (1126) 
Ref-Lig

>  <s_sd_BIOSOLVEIT.INFINISEE\_QUERY\_SMILES>  (1126) 
S(c1nc2c(cc1C[NH2+]Cc3ccc(cc3)C[NH+](C)C)cccc2)Cc4ccccc4

>  <s_sd_BIOSOLVEIT.INFINISEE\_REACTION\_NAME>  (1126) 
m_282030aaa

>  <s_sd_BIOSOLVEIT.INFINISEE\_REAGENT1\_SMILES>  (1126) 
[R1*]NCCc1ccc(cc1)CN(C)C

>  <s_sd_BIOSOLVEIT.INFINISEE\_REAGENT2\_SMILES>  (1126) 
[R2*]c1nc([R1*])c2c(n1)cccc2

>  <s_sd_BIOSOLVEIT.INFINISEE\_REAGENT3\_SMILES>  (1126) 
[R2*]NCc1c(cc(N)cc1)C

>  <s_sd_BIOSOLVEIT.INFINISEE\_SPACE>  (1126) 
REALSpace_44bn_2023-08

>  <s_vsw_compound_code>  (1126) 
35267

>  <s_vsw_variant>  (1126) 
35267-1

>  <r_epik_Charging_Adjusted_Penalty>  (1126) 
0.13425898926738999

>  <r_epik_Ionization_Penalty>  (1126) 
0.083000000000000004

>  <r_epik_Ionization_Penalty_Charging>  (1126) 
0.054600000000000003

>  <r_epik_Ionization_Penalty_Neutral>  (1126) 
0.028500000000000001

>  <r_epik_State_Penalty>  (1126) 
0.079699999999999993

>  <r_i_docking_score>  (1126) 
-4.7058098789612801

>  <r_i_glide_ecoul>  (1126) 
-5.8292126655578604

>  <r_i_glide_eff_state_penalty>  (1126) 
0.079699999999999993

>  <r_i_glide_einternal>  (1126) 
2.68061351776123

>  <r_i_glide_emodel>  (1126) 
-62.9773895446477

>  <r_i_glide_energy>  (1126) 
-43.269756793975802

>  <r_i_glide_erotb>  (1126) 
0.81614353935777395

>  <r_i_glide_esite>  (1126) 
-0.25027069448215999

>  <r_i_glide_evdw>  (1126) 
-37.440544128417997

>  <r_i_glide_gscore>  (1126) 
-4.78550987896128

>  <r_i_glide_hbond>  (1126) 
-0.16459933181862499

>  <r_i_glide_ligand_efficiency>  (1126) 
-0.14260029936246299

>  <r_i_glide_ligand_efficiency_ln>  (1126) 
-1.0465477517014401

>  <r_i_glide_ligand_efficiency_sa>  (1126) 
-0.45739535513968699

>  <r_i_glide_lipo>  (1126) 
-2.04900424030915

>  <r_i_glide_metal>  (1126) 
-0

>  <r_i_glide_rewards>  (1126) 
-0.39137004545454401

>  <r_lp_Energy>  (1126) 
27.575569999999999

>  <r_qp_ACxDN^.5/SA>  (1126) 
0.0149804

>  <r_qp_CIQPlogS>  (1126) 
-5.8209999999999997

>  <r_qp_EA(eV)>  (1126) 
0.48199999999999998

>  <r_qp_FISA>  (1126) 
90.802999999999997

>  <r_qp_FOSA>  (1126) 
332.88099999999997

>  <r_qp_IP(eV)>  (1126) 
7.8330000000000002

>  <r_qp_Jm>  (1126) 
0.0094671343401167493

>  <r_qp_PISA>  (1126) 
325.62700000000001

>  <r_qp_PSA>  (1126) 
71.763999999999996

>  <r_qp_PercentHumanOralAbsorption>  (1126) 
100

>  <r_qp_QPPCaco>  (1126) 
340.18200000000002

>  <r_qp_QPPMDCK>  (1126) 
170.63399999999999

>  <r_qp_QPlogBB>  (1126) 
-0.54700000000000004

>  <r_qp_QPlogHERG>  (1126) 
-6.7679999999999998

>  <r_qp_QPlogKhsa>  (1126) 
0.72799999999999998

>  <r_qp_QPlogKp>  (1126) 
-3.1480000000000001

>  <r_qp_QPlogPC16>  (1126) 
15.159000000000001

>  <r_qp_QPlogPo/w>  (1126) 
4.5099999999999998

>  <r_qp_QPlogPoct>  (1126) 
24.044

>  <r_qp_QPlogPw>  (1126) 
13.185

>  <r_qp_QPlogS>  (1126) 
-4.5190000000000001

>  <r_qp_QPpolrz>  (1126) 
47.557000000000002

>  <r_qp_SASA>  (1126) 
749.31200000000001

>  <r_qp_SAamideO>  (1126) 
0

>  <r_qp_SAfluorine>  (1126) 
0

>  <r_qp_WPSA>  (1126) 
0

>  <r_qp_accptHB>  (1126) 
6

>  <r_qp_dip^2/V>  (1126) 
0.0057965999999999998

>  <r_qp_dipole>  (1126) 
2.8740000000000001

>  <r_qp_donorHB>  (1126) 
3.5

>  <r_qp_glob>  (1126) 
0.81723610000000002

>  <r_qp_mol_MW>  (1126) 
440.58999999999997

>  <r_qp_volume>  (1126) 
1424.845

>  <r_sd_BIOSOLVEIT.INFINISEE\_FTREES\_SIMILARITY>  (1126) 
0.91300000000000003

>  <r_sd_BIOSOLVEIT.LOGP>  (1126) 
3.4316200000000001

>  <r_sd_BIOSOLVEIT.MOLECULAR\_WEIGHT>  (1126) 
441.60000000000002

>  <r_sd_BIOSOLVEIT.TPSA>  (1126) 
80.299999999999997

>  <i_epik_Tot_Q>  (1126) 
2

>  <i_epik_Tot_abs_Q>  (1126) 
2

>  <i_f3d_flags>  (1126) 
0

>  <i_i_glide_confnum>  (1126) 
4

>  <i_i_glide_lignum>  (1126) 
418

>  <i_i_glide_posenum>  (1126) 
6

>  <i_i_glide_rotatable_bonds>  (1126) 
9

>  <i_lp_mmshare_version>  (1126) 
65135

>  <i_m_ct_format>  (1126) 
2

>  <i_m_source_file_index>  (1126) 
1103

>  <i_qp_#NandO>  (1126) 
6

>  <i_qp_#acid>  (1126) 
0

>  <i_qp_#amide>  (1126) 
0

>  <i_qp_#amidine>  (1126) 
0

>  <i_qp_#amine>  (1126) 
1

>  <i_qp_#in34>  (1126) 
0

>  <i_qp_#in56>  (1126) 
22

>  <i_qp_#metab>  (1126) 
7

>  <i_qp_#nonHatm>  (1126) 
33

>  <i_qp_#noncon>  (1126) 
0

>  <i_qp_#ringatoms>  (1126) 
22

>  <i_qp_#rotor>  (1126) 
10

>  <i_qp_#rtvFG>  (1126) 
0

>  <i_qp_#stars>  (1126) 
1

>  <i_qp_CNS>  (1126) 
0

>  <i_qp_HumanOralAbsorption>  (1126) 
3

>  <i_qp_RuleOfFive>  (1126) 
0

>  <i_qp_RuleOfThree>  (1126) 
1

>  <i_sd_BIOSOLVEIT.INFINISEE\_REAGENT1\_NAME>  (1126) 
21926464

>  <i_sd_BIOSOLVEIT.INFINISEE\_REAGENT2\_NAME>  (1126) 
22360182

>  <i_sd_BIOSOLVEIT.INFINISEE\_REAGENT3\_NAME>  (1126) 
21977402

>  <i_sd_BIOSOLVEIT.INFINISEE\_RESULT\_RANK>  (1126) 
33495

>  <i_sd_version>  (1126) 
0

>  <b_lp_Chiralities_Consistent>  (1126) 
1

>  <b_sd_chiral_flag>  (1126) 
0

>  <canonical_id>  (1126) 
ATP-HTVS-B41566EF3893

>  <compound_code>  (1126) 
35267

>  <title>  (1126) 
m_282030aaa____21926464____22360182____21977402

>  <variant>  (1126) 
35267-1

>  <source_file>  (1126) 
运行/运行/ATP-VSW/ATP-VSW-DOCK_HTVS_1-003_lib/ATP-VSW-DOCK_HTVS_1-003_lib.mae

>  <canonical_smiles>  (1126) 
Cc1cc(N)ccc1CNc1nc(NCCc2ccc(C[NH+](C)C)cc2)c2ccccc2[nH+]1

>  <scaffold>  (1126) 
c1ccc(CCNc2nc(NCc3ccccc3)[nH+]c3ccccc23)cc1

>  <molecular_formula>  (1126) 
C27H34N6+2

$$$$
ATP-HTVS-B46E603BFCD4
     RDKit          3D

 55 57  0  0  0  0  0  0  0  0999 V2000
  196.9934  186.0595  159.5413 Cl  0  0  0  0  0  0  0  0  0  0  0  0
  196.3374  184.4936  159.1669 C   0  0  0  0  0  0  0  0  0  0  0  0
  197.1463  183.3828  158.8189 C   0  0  0  0  0  0  0  0  0  0  0  0
  196.5281  182.1473  158.5409 C   0  0  0  0  0  0  0  0  0  0  0  0
  195.1085  182.0520  158.5317 C   0  0  0  0  0  0  0  0  0  0  0  0
  194.3154  183.1731  158.8220 C   0  0  0  0  0  0  0  0  0  0  0  0
  194.9234  184.3842  159.1730 C   0  0  0  0  0  0  0  0  0  0  0  0
  198.6669  183.5190  158.7084 C   0  0  0  0  0  0  0  0  0  0  0  0
  199.2717  184.0057  159.6644 O   0  0  0  0  0  0  0  0  0  0  0  0
  199.3173  183.1437  157.5779 N   0  0  0  0  0  0  0  0  0  0  0  0
  198.7944  182.2912  156.5607 C   0  0  0  0  0  0  0  0  0  0  0  0
  197.6305  182.5718  155.9450 N   0  0  0  0  0  0  0  0  0  0  0  0
  197.1373  181.6544  155.0663 C   0  0  0  0  0  0  0  0  0  0  0  0
  197.8036  180.4619  154.7238 C   0  0  0  0  0  0  0  0  0  0  0  0
  199.0561  180.2087  155.3002 C   0  0  0  0  0  0  0  0  0  0  0  0
  199.8242  179.0802  155.0032 N   0  0  0  0  0  0  0  0  0  0  0  0
  199.6491  178.3484  153.7564 C   0  0  1  0  0  0  0  0  0  0  0  0
  200.2554  176.9519  153.7753 C   0  0  0  0  0  0  0  0  0  0  0  0
  200.4111  176.2465  152.5630 C   0  0  0  0  0  0  0  0  0  0  0  0
  200.9373  174.9359  152.5721 C   0  0  0  0  0  0  0  0  0  0  0  0
  201.3027  174.3319  153.7971 C   0  0  0  0  0  0  0  0  0  0  0  0
  201.1312  175.0312  155.0037 C   0  0  0  0  0  0  0  0  0  0  0  0
  200.6076  176.3365  154.9949 C   0  0  0  0  0  0  0  0  0  0  0  0
  201.9097  172.9425  153.8334 C   0  0  1  0  0  0  0  0  0  0  0  0
  203.3843  172.9706  153.9646 N   0  0  1  0  0  0  0  0  0  0  0  0
  204.0742  173.4473  152.7456 C   0  0  2  0  0  0  0  0  0  0  0  0
  203.9004  173.6291  155.1910 C   0  0  2  0  0  0  0  0  0  0  0  0
  199.5444  181.1268  156.2543 C   0  0  0  0  0  0  0  0  0  0  0  0
  200.6754  183.6639  157.3680 C   0  0  2  0  0  0  0  0  0  0  0  0
  197.0696  181.2433  158.3683 H   0  0  0  0  0  0  0  0  0  0  0  0
  194.6544  181.1139  158.2333 H   0  0  0  0  0  0  0  0  0  0  0  0
  193.2289  183.0944  158.7488 H   0  0  0  0  0  0  0  0  0  0  0  0
  194.3196  185.2471  159.3759 H   0  0  0  0  0  0  0  0  0  0  0  0
  196.1358  181.8303  154.6915 H   0  0  0  0  0  0  0  0  0  0  0  0
  197.3132  179.7611  154.0582 H   0  0  0  0  0  0  0  0  0  0  0  0
  200.5223  178.7631  155.6521 H   0  0  0  0  0  0  0  0  0  0  0  0
  198.5905  178.2401  153.5157 H   0  0  0  0  0  0  0  0  0  0  0  0
  200.0874  178.9191  152.9386 H   0  0  0  0  0  0  0  0  0  0  0  0
  200.1225  176.7014  151.6274 H   0  0  0  0  0  0  0  0  0  0  0  0
  201.0632  174.4114  151.6351 H   0  0  0  0  0  0  0  0  0  0  0  0
  201.3625  174.5833  155.9552 H   0  0  0  0  0  0  0  0  0  0  0  0
  200.4742  176.8198  155.9505 H   0  0  0  0  0  0  0  0  0  0  0  0
  201.4821  172.3743  154.6623 H   0  0  0  0  0  0  0  0  0  0  0  0
  201.6329  172.3953  152.9335 H   0  0  0  0  0  0  0  0  0  0  0  0
  203.8510  174.4984  152.5439 H   0  0  0  0  0  0  0  0  0  0  0  0
  203.7708  172.8609  151.8761 H   0  0  0  0  0  0  0  0  0  0  0  0
  205.1573  173.3506  152.8459 H   0  0  0  0  0  0  0  0  0  0  0  0
  203.6853  174.7005  155.2089 H   0  0  0  0  0  0  0  0  0  0  0  0
  204.9890  173.5541  155.2598 H   0  0  0  0  0  0  0  0  0  0  0  0
  203.4662  173.1687  156.0823 H   0  0  0  0  0  0  0  0  0  0  0  0
  200.4718  180.9152  156.7695 H   0  0  0  0  0  0  0  0  0  0  0  0
  201.1416  183.2670  156.4654 H   0  0  0  0  0  0  0  0  0  0  0  0
  201.3447  183.4564  158.2118 H   0  0  0  0  0  0  0  0  0  0  0  0
  200.6143  184.7433  157.2347 H   0  0  0  0  0  0  0  0  0  0  0  0
  203.5956  171.9845  154.0525 H   0  0  0  0  0  0  0  0  0  0  0  0
  1  2  1  0
  2  3  1  0
  2  7  2  0
  3  4  2  0
  3  8  1  0
  4  5  1  0
  4 30  1  0
  5  6  2  0
  5 31  1  0
  6  7  1  0
  6 32  1  0
  7 33  1  0
  8  9  2  0
  8 10  1  0
 10 11  1  0
 10 29  1  0
 11 12  1  0
 11 28  2  0
 12 13  2  0
 13 14  1  0
 13 34  1  0
 14 15  2  0
 14 35  1  0
 15 16  1  0
 15 28  1  0
 16 17  1  0
 16 36  1  0
 17 18  1  0
 17 37  1  6
 17 38  1  0
 18 19  1  0
 18 23  2  0
 19 20  2  0
 19 39  1  0
 20 21  1  0
 20 40  1  0
 21 22  2  0
 21 24  1  0
 22 23  1  0
 22 41  1  0
 23 42  1  0
 24 25  1  0
 24 43  1  1
 24 44  1  0
 25 26  1  0
 25 27  1  0
 25 55  1  1
 26 45  1  6
 26 46  1  0
 26 47  1  0
 27 48  1  6
 27 49  1  0
 27 50  1  0
 28 51  1  0
 29 52  1  6
 29 53  1  0
 29 54  1  0
M  CHG  1  25   1
M  END
>  <s_epik_cmdline>  (1127) 
J2VwaWtfcHl0aG9uJywgJy1waCcsICc3LjAwMDAwMCcsICctcGh0JywgJzIuMDAwMDAwJywgJy1tcycsICcxNicsICctdG4nLCAnOCcsICctbWEnLCAnMjAwJywgJy1pbWFlJywgJzxpbmZpbGUubWFlPicsICctb21hZScsICc8b3V0ZmlsZS5tYWU+Jw==

>  <s_epik_input>  (1127) 
W2NIXTFbY0hdW2NIXVtjSF1jKGMxQ2wpQyg9TylOKFtDSDNdKWMybltjSF1bY0hdYyhbY0hdMilbTkhdW0NIMl1jM1tjSF1bY0hdYyhbY0hdW2NIXTMpW0NIMl1OKFtDSDNdKVtDSDNd

>  <s_i_glide_gridfile>  (1127) 
ATP-Grid

>  <s_lp_Force_Field>  (1127) 
OPLS_2005

>  <s_lp_Variant>  (1127) 
rxn502a____EMOL480988____EMOL45981693____EMOL50155899-1

>  <s_lp_label>  (1127) 
2891_sdstereoexpander_1_neutralizer_1_epik_1_stereoizer_1

>  <s_m_source_file>  (1127) 
ATP-VSW-LIGPREP-002-in.maegz

>  <s_sd_BIOSOLVEIT.INFINISEE\_QUERY\_NAME>  (1127) 
Ref-Lig

>  <s_sd_BIOSOLVEIT.INFINISEE\_QUERY\_SMILES>  (1127) 
S(c1nc2c(cc1C[NH2+]Cc3ccc(cc3)C[NH+](C)C)cccc2)Cc4ccccc4

>  <s_sd_BIOSOLVEIT.INFINISEE\_REACTION\_NAME>  (1127) 
rxn502a

>  <s_sd_BIOSOLVEIT.INFINISEE\_REAGENT1\_NAME>  (1127) 
EMOL480988

>  <s_sd_BIOSOLVEIT.INFINISEE\_REAGENT1\_SMILES>  (1127) 
Clc1c(cccc1)C(=O)O

>  <s_sd_BIOSOLVEIT.INFINISEE\_REAGENT2\_NAME>  (1127) 
EMOL45981693

>  <s_sd_BIOSOLVEIT.INFINISEE\_REAGENT2\_SMILES>  (1127) 
Ic1cc(ncc1)NC

>  <s_sd_BIOSOLVEIT.INFINISEE\_REAGENT3\_NAME>  (1127) 
EMOL50155899

>  <s_sd_BIOSOLVEIT.INFINISEE\_REAGENT3\_SMILES>  (1127) 
N(Cc1ccc(cc1)CN)(C)C

>  <s_sd_BIOSOLVEIT.INFINISEE\_SPACE>  (1127) 
eXplore_7tr_2022-12

>  <s_vsw_compound_code>  (1127) 
92482

>  <s_vsw_variant>  (1127) 
92482-1

>  <r_epik_Charging_Adjusted_Penalty>  (1127) 
0.16336861093863

>  <r_epik_Ionization_Penalty>  (1127) 
0.1242

>  <r_epik_Ionization_Penalty_Charging>  (1127) 
0.039199999999999999

>  <r_epik_Ionization_Penalty_Neutral>  (1127) 
0.085000000000000006

>  <r_epik_State_Penalty>  (1127) 
0.1242

>  <r_i_docking_score>  (1127) 
-4.4967466404513399

>  <r_i_glide_ecoul>  (1127) 
-7.8323116302490199

>  <r_i_glide_eff_state_penalty>  (1127) 
0.1242

>  <r_i_glide_einternal>  (1127) 
6.9087395668029803

>  <r_i_glide_emodel>  (1127) 
-54.276187143447203

>  <r_i_glide_energy>  (1127) 
-42.119165420532198

>  <r_i_glide_erotb>  (1127) 
0.82042919597903496

>  <r_i_glide_esite>  (1127) 
-0.117022178509662

>  <r_i_glide_evdw>  (1127) 
-34.286853790283203

>  <r_i_glide_gscore>  (1127) 
-4.62094664045134

>  <r_i_glide_hbond>  (1127) 
-0.20000000000000001

>  <r_i_glide_ligand_efficiency>  (1127) 
-0.15506022898108099

>  <r_i_glide_ligand_efficiency_ln>  (1127) 
-1.02964095300713

>  <r_i_glide_ligand_efficiency_sa>  (1127) 
-0.476394149958555

>  <r_i_glide_lipo>  (1127) 
-1.2921140686888799

>  <r_i_glide_metal>  (1127) 
-0

>  <r_i_glide_rewards>  (1127) 
-0.94305015518031898

>  <r_lp_Energy>  (1127) 
37.015219000000002

>  <r_lp_tautomer_probability>  (1127) 
0.999999106000799

>  <r_qp_ACxDN^.5/SA>  (1127) 
0.0096191999999999996

>  <r_qp_CIQPlogS>  (1127) 
-4.7549999999999999

>  <r_qp_EA(eV)>  (1127) 
0.28000000000000003

>  <r_qp_FISA>  (1127) 
52.055

>  <r_qp_FOSA>  (1127) 
286.37099999999998

>  <r_qp_IP(eV)>  (1127) 
8.6880000000000006

>  <r_qp_Jm>  (1127) 
0.016181281849711501

>  <r_qp_PISA>  (1127) 
343.40800000000002

>  <r_qp_PSA>  (1127) 
56.109999999999999

>  <r_qp_PercentHumanOralAbsorption>  (1127) 
100

>  <r_qp_QPPCaco>  (1127) 
792.79200000000003

>  <r_qp_QPPMDCK>  (1127) 
759.54200000000003

>  <r_qp_QPlogBB>  (1127) 
0.11600000000000001

>  <r_qp_QPlogHERG>  (1127) 
-7.069

>  <r_qp_QPlogKhsa>  (1127) 
0.54300000000000004

>  <r_qp_QPlogKp>  (1127) 
-2.6600000000000001

>  <r_qp_QPlogPC16>  (1127) 
13.949999999999999

>  <r_qp_QPlogPo/w>  (1127) 
4.3819999999999997

>  <r_qp_QPlogPoct>  (1127) 
21.257000000000001

>  <r_qp_QPlogPw>  (1127) 
10.992000000000001

>  <r_qp_QPlogS>  (1127) 
-4.7430000000000003

>  <r_qp_QPpolrz>  (1127) 
45.872999999999998

>  <r_qp_SASA>  (1127) 
727.71100000000001

>  <r_qp_SAamideO>  (1127) 
0

>  <r_qp_SAfluorine>  (1127) 
0

>  <r_qp_WPSA>  (1127) 
45.878

>  <r_qp_accptHB>  (1127) 
7

>  <r_qp_dip^2/V>  (1127) 
0.066261500000000001

>  <r_qp_dipole>  (1127) 
9.3889999999999993

>  <r_qp_donorHB>  (1127) 
1

>  <r_qp_glob>  (1127) 
0.80388340000000003

>  <r_qp_mol_MW>  (1127) 
408.93000000000001

>  <r_qp_volume>  (1127) 
1330.396

>  <r_sd_BIOSOLVEIT.INFINISEE\_FTREES\_SIMILARITY>  (1127) 
0.90400000000000003

>  <r_sd_BIOSOLVEIT.LOGP>  (1127) 
3.2682000000000002

>  <r_sd_BIOSOLVEIT.MOLECULAR\_WEIGHT>  (1127) 
409.93799999999999

>  <r_sd_BIOSOLVEIT.TPSA>  (1127) 
49.670000000000002

>  <i_epik_Tot_Q>  (1127) 
1

>  <i_epik_Tot_abs_Q>  (1127) 
1

>  <i_f3d_flags>  (1127) 
0

>  <i_i_glide_confnum>  (1127) 
8

>  <i_i_glide_lignum>  (1127) 
1432

>  <i_i_glide_posenum>  (1127) 
16

>  <i_i_glide_rotatable_bonds>  (1127) 
8

>  <i_lp_mmshare_version>  (1127) 
65135

>  <i_m_ct_format>  (1127) 
2

>  <i_m_source_file_index>  (1127) 
2891

>  <i_qp_#NandO>  (1127) 
5

>  <i_qp_#acid>  (1127) 
0

>  <i_qp_#amide>  (1127) 
0

>  <i_qp_#amidine>  (1127) 
0

>  <i_qp_#amine>  (1127) 
1

>  <i_qp_#in34>  (1127) 
0

>  <i_qp_#in56>  (1127) 
18

>  <i_qp_#metab>  (1127) 
7

>  <i_qp_#nonHatm>  (1127) 
29

>  <i_qp_#noncon>  (1127) 
0

>  <i_qp_#ringatoms>  (1127) 
18

>  <i_qp_#rotor>  (1127) 
7

>  <i_qp_#rtvFG>  (1127) 
0

>  <i_qp_#stars>  (1127) 
0

>  <i_qp_CNS>  (1127) 
1

>  <i_qp_HumanOralAbsorption>  (1127) 
3

>  <i_qp_RuleOfFive>  (1127) 
0

>  <i_qp_RuleOfThree>  (1127) 
1

>  <i_sd_BIOSOLVEIT.INFINISEE\_RESULT\_RANK>  (1127) 
73737

>  <i_sd_version>  (1127) 
0

>  <b_lp_Chiralities_Consistent>  (1127) 
1

>  <b_sd_chiral_flag>  (1127) 
0

>  <canonical_id>  (1127) 
ATP-HTVS-B46E603BFCD4

>  <compound_code>  (1127) 
92482

>  <title>  (1127) 
rxn502a____EMOL480988____EMOL45981693____EMOL50155899

>  <variant>  (1127) 
92482-1

>  <source_file>  (1127) 
运行/运行/ATP-VSW/ATP-VSW-DOCK_HTVS_1-002_lib.maegz

>  <canonical_smiles>  (1127) 
CN(C(=O)c1ccccc1Cl)c1cc(NCc2ccc(C[NH+](C)C)cc2)ccn1

>  <scaffold>  (1127) 
O=C(Nc1cc(NCc2ccccc2)ccn1)c1ccccc1

>  <molecular_formula>  (1127) 
C23H26ClN4O+

$$$$
ATP-HTVS-B476F40F800C
     RDKit          3D

 55 57  0  0  0  0  0  0  0  0999 V2000
  200.1208  189.4700  156.3473 Cl  0  0  0  0  0  0  0  0  0  0  0  0
  199.6919  187.8493  155.9664 C   0  0  0  0  0  0  0  0  0  0  0  0
  199.1470  187.4995  154.3521 S   0  0  0  0  0  0  0  0  0  0  0  0
  198.9148  185.8140  154.7608 C   0  0  0  0  0  0  0  0  0  0  0  0
  198.4226  184.9406  153.6535 C   0  0  0  0  0  0  0  0  0  0  0  0
  198.7578  185.2234  152.5054 O   0  0  0  0  0  0  0  0  0  0  0  0
  197.6153  183.8756  153.9479 N   0  0  0  0  0  0  0  0  0  0  0  0
  197.2829  182.8463  153.0095 C   0  0  0  0  0  0  0  0  0  0  0  0
  197.2534  181.4826  153.4126 C   0  0  0  0  0  0  0  0  0  0  0  0
  196.8833  180.4666  152.5039 C   0  0  0  0  0  0  0  0  0  0  0  0
  196.5491  180.8039  151.1805 C   0  0  0  0  0  0  0  0  0  0  0  0
  196.1741  179.8146  150.2728 N   0  0  0  0  0  0  0  0  0  0  0  0
  196.5844  182.1488  150.7691 C   0  0  0  0  0  0  0  0  0  0  0  0
  196.9257  183.1684  151.6824 C   0  0  0  0  0  0  0  0  0  0  0  0
  197.1184  183.6515  155.3066 C   0  0  2  0  0  0  0  0  0  0  0  0
  199.3158  185.5659  156.0550 C   0  0  0  0  0  0  0  0  0  0  0  0
  199.7192  186.7376  156.7652 C   0  0  0  0  0  0  0  0  0  0  0  0
  200.1182  186.7077  158.1142 N   0  0  0  0  0  0  0  0  0  0  0  0
  199.6145  185.7234  159.0656 C   0  0  1  0  0  0  0  0  0  0  0  0
  198.1018  185.6721  159.2444 C   0  0  0  0  0  0  0  0  0  0  0  0
  197.4459  184.4274  159.3303 C   0  0  0  0  0  0  0  0  0  0  0  0
  196.0466  184.3581  159.4817 C   0  0  0  0  0  0  0  0  0  0  0  0
  195.3023  185.5511  159.6114 C   0  0  0  0  0  0  0  0  0  0  0  0
  195.9562  186.7993  159.5609 C   0  0  0  0  0  0  0  0  0  0  0  0
  197.3497  186.8642  159.3674 C   0  0  0  0  0  0  0  0  0  0  0  0
  195.3336  183.0155  159.5380 C   0  0  1  0  0  0  0  0  0  0  0  0
  195.0839  182.4048  158.2091 N   0  0  2  0  0  0  0  0  0  0  0  0
  193.9670  181.4469  158.2109 C   0  0  2  0  0  0  0  0  0  0  0  0
  196.3122  181.8008  157.6524 C   0  0  2  0  0  0  0  0  0  0  0  0
  197.4979  181.1856  154.4199 H   0  0  0  0  0  0  0  0  0  0  0  0
  196.8602  179.4368  152.8326 H   0  0  0  0  0  0  0  0  0  0  0  0
  196.0769  180.0357  149.2910 H   0  0  0  0  0  0  0  0  0  0  0  0
  196.2851  178.8396  150.5055 H   0  0  0  0  0  0  0  0  0  0  0  0
  196.3472  182.4250  149.7544 H   0  0  0  0  0  0  0  0  0  0  0  0
  196.8850  184.1898  151.3484 H   0  0  0  0  0  0  0  0  0  0  0  0
  196.2439  182.9947  155.3149 H   0  0  0  0  0  0  0  0  0  0  0  0
  196.8306  184.5724  155.8187 H   0  0  0  0  0  0  0  0  0  0  0  0
  197.8908  183.1374  155.8721 H   0  0  0  0  0  0  0  0  0  0  0  0
  199.3385  184.6000  156.5431 H   0  0  0  0  0  0  0  0  0  0  0  0
  200.4550  187.5756  158.5052 H   0  0  0  0  0  0  0  0  0  0  0  0
  199.9837  184.7319  158.7835 H   0  0  0  0  0  0  0  0  0  0  0  0
  200.0560  185.9395  160.0380 H   0  0  0  0  0  0  0  0  0  0  0  0
  198.0400  183.5301  159.2800 H   0  0  0  0  0  0  0  0  0  0  0  0
  194.2324  185.5192  159.7544 H   0  0  0  0  0  0  0  0  0  0  0  0
  195.3944  187.7135  159.6758 H   0  0  0  0  0  0  0  0  0  0  0  0
  197.8421  187.8270  159.3342 H   0  0  0  0  0  0  0  0  0  0  0  0
  195.9415  182.3192  160.1307 H   0  0  0  0  0  0  0  0  0  0  0  0
  194.3899  183.1511  160.0729 H   0  0  0  0  0  0  0  0  0  0  0  0
  194.1842  180.6292  158.8919 H   0  0  0  0  0  0  0  0  0  0  0  0
  193.8181  181.0423  157.2137 H   0  0  0  0  0  0  0  0  0  0  0  0
  193.0316  181.9145  158.5061 H   0  0  0  0  0  0  0  0  0  0  0  0
  196.6945  181.0328  158.3297 H   0  0  0  0  0  0  0  0  0  0  0  0
  197.1144  182.5273  157.5505 H   0  0  0  0  0  0  0  0  0  0  0  0
  196.1331  181.3905  156.6534 H   0  0  0  0  0  0  0  0  0  0  0  0
  194.7999  183.1337  157.5735 H   0  0  0  0  0  0  0  0  0  0  0  0
  1  2  1  0
  2  3  1  0
  2 17  2  0
  3  4  1  0
  4  5  1  0
  4 16  2  0
  5  6  2  0
  5  7  1  0
  7  8  1  0
  7 15  1  0
  8  9  1  0
  8 14  2  0
  9 10  2  0
  9 30  1  0
 10 11  1  0
 10 31  1  0
 11 12  1  0
 11 13  2  0
 12 32  1  0
 12 33  1  0
 13 14  1  0
 13 34  1  0
 14 35  1  0
 15 36  1  6
 15 37  1  0
 15 38  1  0
 16 17  1  0
 16 39  1  0
 17 18  1  0
 18 19  1  0
 18 40  1  0
 19 20  1  0
 19 41  1  6
 19 42  1  0
 20 21  2  0
 20 25  1  0
 21 22  1  0
 21 43  1  0
 22 23  2  0
 22 26  1  0
 23 24  1  0
 23 44  1  0
 24 25  2  0
 24 45  1  0
 25 46  1  0
 26 27  1  0
 26 47  1  1
 26 48  1  0
 27 28  1  0
 27 29  1  0
 27 55  1  6
 28 49  1  1
 28 50  1  0
 28 51  1  0
 29 52  1  1
 29 53  1  0
 29 54  1  0
M  CHG  1  27   1
M  END
>  <s_epik_cmdline>  (1128) 
J2VwaWtfcHl0aG9uJywgJy1waCcsICc3LjAwMDAwMCcsICctcGh0JywgJzIuMDAwMDAwJywgJy1tcycsICcxNicsICctdG4nLCAnOCcsICctbWEnLCAnMjAwJywgJy1pbWFlJywgJzxpbmZpbGUubWFlPicsICctb21hZScsICc8b3V0ZmlsZS5tYWU+Jw==

>  <s_epik_input>  (1128) 
W2NIXTFbY0hdYyhbTkgyXSlbY0hdW2NIXWMxTihbQ0gzXSlDKD1PKWMoc2MyQ2wpW2NIXWMyW05IXVtDSDJdYzNbY0hdYyhbY0hdW2NIXVtjSF0zKVtDSDJdTihbQ0gzXSlbQ0gzXQ==

>  <s_i_glide_gridfile>  (1128) 
ATP-Grid

>  <s_lp_Force_Field>  (1128) 
OPLS_2005

>  <s_lp_Variant>  (1128) 
rxn512b____EMOL718308____EMOL44846536____EMOL2873214-1

>  <s_lp_label>  (1128) 
2329_sdstereoexpander_1_neutralizer_1_epik_1_stereoizer_1

>  <s_m_source_file>  (1128) 
ATP-VSW-LIGPREP-003-in.maegz

>  <s_sd_BIOSOLVEIT.INFINISEE\_QUERY\_NAME>  (1128) 
Ref-Lig

>  <s_sd_BIOSOLVEIT.INFINISEE\_QUERY\_SMILES>  (1128) 
S(c1nc2c(cc1C[NH2+]Cc3ccc(cc3)C[NH+](C)C)cccc2)Cc4ccccc4

>  <s_sd_BIOSOLVEIT.INFINISEE\_REACTION\_NAME>  (1128) 
rxn512b

>  <s_sd_BIOSOLVEIT.INFINISEE\_REAGENT1\_NAME>  (1128) 
EMOL718308

>  <s_sd_BIOSOLVEIT.INFINISEE\_REAGENT1\_SMILES>  (1128) 
N(c1ccc(N)cc1)C

>  <s_sd_BIOSOLVEIT.INFINISEE\_REAGENT2\_NAME>  (1128) 
EMOL44846536

>  <s_sd_BIOSOLVEIT.INFINISEE\_REAGENT2\_SMILES>  (1128) 
BrC1=C(Cl)SC(C(=O)O)=C1

>  <s_sd_BIOSOLVEIT.INFINISEE\_REAGENT3\_NAME>  (1128) 
EMOL2873214

>  <s_sd_BIOSOLVEIT.INFINISEE\_REAGENT3\_SMILES>  (1128) 
N(Cc1cc(ccc1)CN)(C)C

>  <s_sd_BIOSOLVEIT.INFINISEE\_SPACE>  (1128) 
eXplore_7tr_2022-12

>  <s_vsw_compound_code>  (1128) 
74499

>  <s_vsw_variant>  (1128) 
74499-1

>  <r_epik_Charging_Adjusted_Penalty>  (1128) 
0.086140609825027303

>  <r_epik_Ionization_Penalty>  (1128) 
0.044600000000000001

>  <r_epik_Ionization_Penalty_Charging>  (1128) 
0.043099999999999999

>  <r_epik_Ionization_Penalty_Neutral>  (1128) 
0.0016000000000000001

>  <r_epik_State_Penalty>  (1128) 
0.043099999999999999

>  <r_i_docking_score>  (1128) 
-3.7657886181519999

>  <r_i_glide_ecoul>  (1128) 
-5.0648179054260298

>  <r_i_glide_eff_state_penalty>  (1128) 
0.043099999999999999

>  <r_i_glide_einternal>  (1128) 
2.9808473587036102

>  <r_i_glide_emodel>  (1128) 
-51.035821460169601

>  <r_i_glide_energy>  (1128) 
-38.733068943023703

>  <r_i_glide_erotb>  (1128) 
0.75256507117160198

>  <r_i_glide_esite>  (1128) 
-0.10069483950374

>  <r_i_glide_evdw>  (1128) 
-33.668251037597699

>  <r_i_glide_gscore>  (1128) 
-3.8088886181519999

>  <r_i_glide_hbond>  (1128) 
-0.032037149826171597

>  <r_i_glide_ligand_efficiency>  (1128) 
-0.129854779936276

>  <r_i_glide_ligand_efficiency_ln>  (1128) 
-0.86227010139674098

>  <r_i_glide_ligand_efficiency_sa>  (1128) 
-0.39895502484615297

>  <r_i_glide_lipo>  (1128) 
-1.4832064617298499

>  <r_i_glide_metal>  (1128) 
-0

>  <r_i_glide_rewards>  (1128) 
-0.50238000057005405

>  <r_lp_Energy>  (1128) 
37.633353

>  <r_lp_tautomer_probability>  (1128) 
0.99999274205267796

>  <r_qp_ACxDN^.5/SA>  (1128) 
0.015391200000000001

>  <r_qp_CIQPlogS>  (1128) 
-3.9769999999999999

>  <r_qp_EA(eV)>  (1128) 
0.56499999999999995

>  <r_qp_FISA>  (1128) 
115.974

>  <r_qp_FOSA>  (1128) 
241.83199999999999

>  <r_qp_IP(eV)>  (1128) 
7.992

>  <r_qp_Jm>  (1128) 
0.000119714296008212

>  <r_qp_PISA>  (1128) 
254.626

>  <r_qp_PSA>  (1128) 
72.224999999999994

>  <r_qp_PercentHumanOralAbsorption>  (1128) 
76.096000000000004

>  <r_qp_QPPCaco>  (1128) 
48.969000000000001

>  <r_qp_QPPMDCK>  (1128) 
89.218000000000004

>  <r_qp_QPlogBB>  (1128) 
-0.050000000000000003

>  <r_qp_QPlogHERG>  (1128) 
-7.3360000000000003

>  <r_qp_QPlogKhsa>  (1128) 
0.42099999999999999

>  <r_qp_QPlogKp>  (1128) 
-6.117

>  <r_qp_QPlogPC16>  (1128) 
14.369999999999999

>  <r_qp_QPlogPo/w>  (1128) 
3.2290000000000001

>  <r_qp_QPlogPoct>  (1128) 
22.742999999999999

>  <r_qp_QPlogPw>  (1128) 
12.800000000000001

>  <r_qp_QPlogS>  (1128) 
-3.4369999999999998

>  <r_qp_QPpolrz>  (1128) 
43.656999999999996

>  <r_qp_SASA>  (1128) 
719.10900000000004

>  <r_qp_SAamideO>  (1128) 
0

>  <r_qp_SAfluorine>  (1128) 
0

>  <r_qp_WPSA>  (1128) 
106.678

>  <r_qp_accptHB>  (1128) 
7

>  <r_qp_dip^2/V>  (1128) 
0.039703000000000002

>  <r_qp_dipole>  (1128) 
7.218

>  <r_qp_donorHB>  (1128) 
2.5

>  <r_qp_glob>  (1128) 
0.80608009999999997

>  <r_qp_mol_MW>  (1128) 
428.97899999999998

>  <r_qp_volume>  (1128) 
1312.2370000000001

>  <r_sd_BIOSOLVEIT.INFINISEE\_FTREES\_SIMILARITY>  (1128) 
0.92200000000000004

>  <r_sd_BIOSOLVEIT.LOGP>  (1128) 
3.5169000000000001

>  <r_sd_BIOSOLVEIT.MOLECULAR\_WEIGHT>  (1128) 
429.99200000000002

>  <r_sd_BIOSOLVEIT.TPSA>  (1128) 
62.799999999999997

>  <i_epik_Tot_Q>  (1128) 
1

>  <i_epik_Tot_abs_Q>  (1128) 
1

>  <i_f3d_flags>  (1128) 
0

>  <i_i_glide_confnum>  (1128) 
3

>  <i_i_glide_lignum>  (1128) 
971

>  <i_i_glide_posenum>  (1128) 
15

>  <i_i_glide_rotatable_bonds>  (1128) 
8

>  <i_lp_mmshare_version>  (1128) 
65135

>  <i_m_ct_format>  (1128) 
2

>  <i_m_source_file_index>  (1128) 
2329

>  <i_qp_#NandO>  (1128) 
5

>  <i_qp_#acid>  (1128) 
0

>  <i_qp_#amide>  (1128) 
0

>  <i_qp_#amidine>  (1128) 
0

>  <i_qp_#amine>  (1128) 
2

>  <i_qp_#in34>  (1128) 
0

>  <i_qp_#in56>  (1128) 
17

>  <i_qp_#metab>  (1128) 
7

>  <i_qp_#nonHatm>  (1128) 
29

>  <i_qp_#noncon>  (1128) 
0

>  <i_qp_#ringatoms>  (1128) 
17

>  <i_qp_#rotor>  (1128) 
8

>  <i_qp_#rtvFG>  (1128) 
0

>  <i_qp_#stars>  (1128) 
0

>  <i_qp_CNS>  (1128) 
0

>  <i_qp_HumanOralAbsorption>  (1128) 
2

>  <i_qp_RuleOfFive>  (1128) 
0

>  <i_qp_RuleOfThree>  (1128) 
1

>  <i_sd_BIOSOLVEIT.INFINISEE\_RESULT\_RANK>  (1128) 
13941

>  <i_sd_version>  (1128) 
0

>  <b_lp_Chiralities_Consistent>  (1128) 
1

>  <b_sd_chiral_flag>  (1128) 
0

>  <canonical_id>  (1128) 
ATP-HTVS-B476F40F800C

>  <compound_code>  (1128) 
74499

>  <title>  (1128) 
rxn512b____EMOL718308____EMOL44846536____EMOL2873214

>  <variant>  (1128) 
74499-1

>  <source_file>  (1128) 
运行/运行/ATP-VSW/ATP-VSW-DOCK_HTVS_1-003_lib/ATP-VSW-DOCK_HTVS_1-003_lib.mae

>  <canonical_smiles>  (1128) 
CN(C(=O)c1cc(NCc2cccc(C[NH+](C)C)c2)c(Cl)s1)c1ccc(N)cc1

>  <scaffold>  (1128) 
O=C(Nc1ccccc1)c1cc(NCc2ccccc2)cs1

>  <molecular_formula>  (1128) 
C22H26ClN4OS+

$$$$
ATP-HTVS-B47DAEDE372B
     RDKit          3D

 52 55  0  0  0  0  0  0  0  0999 V2000
  198.0929  186.1402  150.7249 Cl  0  0  0  0  0  0  0  0  0  0  0  0
  199.4430  185.1376  151.1345 C   0  0  0  0  0  0  0  0  0  0  0  0
  199.8975  184.9711  152.4720 C   0  0  0  0  0  0  0  0  0  0  0  0
  201.0231  184.1315  152.7130 C   0  0  0  0  0  0  0  0  0  0  0  0
  201.7160  183.9209  154.2857 Cl  0  0  0  0  0  0  0  0  0  0  0  0
  201.6363  183.4462  151.6474 C   0  0  0  0  0  0  0  0  0  0  0  0
  201.1599  183.5981  150.3349 C   0  0  0  0  0  0  0  0  0  0  0  0
  200.0658  184.4417  150.0831 C   0  0  0  0  0  0  0  0  0  0  0  0
  199.2346  185.7184  153.5972 C   0  0  0  0  0  0  0  0  0  0  0  0
  199.0776  186.9369  153.5242 O   0  0  0  0  0  0  0  0  0  0  0  0
  198.8115  184.9411  154.6108 N   0  0  0  0  0  0  0  0  0  0  0  0
  198.0991  185.2930  155.7976 C   0  0  0  0  0  0  0  0  0  0  0  0
  197.4644  184.2810  156.5660 C   0  0  0  0  0  0  0  0  0  0  0  0
  197.5668  182.8804  156.1490 C   0  0  0  0  0  0  0  0  0  0  0  0
  197.7331  181.7238  155.7881 C   0  0  0  0  0  0  0  0  0  0  0  0
  198.0433  180.3443  155.3690 C   0  0  2  0  0  0  0  0  0  0  0  0
  196.7467  179.6474  155.3354 N   0  0  2  0  0  0  0  0  0  0  0  0
  199.0441  179.6226  156.2965 C   0  0  1  0  0  0  0  0  0  0  0  0
  200.4585  180.1701  156.2029 C   0  0  0  0  0  0  0  0  0  0  0  0
  201.3794  179.5877  155.3069 C   0  0  0  0  0  0  0  0  0  0  0  0
  202.6960  180.0816  155.2199 C   0  0  0  0  0  0  0  0  0  0  0  0
  203.5744  179.5213  154.3537 F   0  0  0  0  0  0  0  0  0  0  0  0
  203.0974  181.1625  156.0284 C   0  0  0  0  0  0  0  0  0  0  0  0
  202.1810  181.7484  156.9236 C   0  0  0  0  0  0  0  0  0  0  0  0
  200.8657  181.2526  157.0112 C   0  0  0  0  0  0  0  0  0  0  0  0
  196.7541  184.6584  157.7432 C   0  0  0  0  0  0  0  0  0  0  0  0
  196.7211  186.0389  158.0991 C   0  0  0  0  0  0  0  0  0  0  0  0
  197.3443  186.9848  157.3737 N   0  0  0  0  0  0  0  0  0  0  0  0
  198.0154  186.6245  156.2666 C   0  0  0  0  0  0  0  0  0  0  0  0
  196.0118  186.4390  159.2489 C   0  0  0  0  0  0  0  0  0  0  0  0
  195.3378  185.5020  160.0478 C   0  0  0  0  0  0  0  0  0  0  0  0
  195.3641  184.1433  159.6958 C   0  0  0  0  0  0  0  0  0  0  0  0
  196.0687  183.7191  158.5546 C   0  0  0  0  0  0  0  0  0  0  0  0
  196.0997  180.1413  154.7385 H   0  0  0  0  0  0  0  0  0  0  0  0
  196.3582  179.5813  156.2835 H   0  0  0  0  0  0  0  0  0  0  0  0
  202.4922  182.8132  151.8362 H   0  0  0  0  0  0  0  0  0  0  0  0
  201.6294  183.0678  149.5198 H   0  0  0  0  0  0  0  0  0  0  0  0
  199.6911  184.5564  149.0777 H   0  0  0  0  0  0  0  0  0  0  0  0
  199.0090  183.9563  154.5074 H   0  0  0  0  0  0  0  0  0  0  0  0
  198.4374  180.3827  154.3524 H   0  0  0  0  0  0  0  0  0  0  0  0
  198.7126  179.6786  157.3338 H   0  0  0  0  0  0  0  0  0  0  0  0
  199.0713  178.5575  156.0589 H   0  0  0  0  0  0  0  0  0  0  0  0
  201.0874  178.7560  154.6834 H   0  0  0  0  0  0  0  0  0  0  0  0
  204.1048  181.5434  155.9553 H   0  0  0  0  0  0  0  0  0  0  0  0
  202.4860  182.5852  157.5355 H   0  0  0  0  0  0  0  0  0  0  0  0
  200.1712  181.7128  157.7001 H   0  0  0  0  0  0  0  0  0  0  0  0
  198.5150  187.4449  155.7815 H   0  0  0  0  0  0  0  0  0  0  0  0
  195.9884  187.4865  159.5122 H   0  0  0  0  0  0  0  0  0  0  0  0
  194.7922  185.8275  160.9208 H   0  0  0  0  0  0  0  0  0  0  0  0
  194.8323  183.4260  160.2991 H   0  0  0  0  0  0  0  0  0  0  0  0
  196.0556  182.6660  158.3134 H   0  0  0  0  0  0  0  0  0  0  0  0
  196.8848  178.6971  155.0190 H   0  0  0  0  0  0  0  0  0  0  0  0
  1  2  1  0
  2  3  1  0
  2  8  2  0
  3  4  2  0
  3  9  1  0
  4  5  1  0
  4  6  1  0
  6  7  2  0
  6 36  1  0
  7  8  1  0
  7 37  1  0
  8 38  1  0
  9 10  2  0
  9 11  1  0
 11 12  1  0
 11 39  1  0
 12 13  2  0
 12 29  1  0
 13 14  1  0
 13 26  1  0
 14 15  3  0
 15 16  1  0
 16 17  1  0
 16 18  1  0
 16 40  1  6
 17 34  1  6
 17 35  1  0
 17 52  1  0
 18 19  1  0
 18 41  1  1
 18 42  1  0
 19 20  1  0
 19 25  2  0
 20 21  2  0
 20 43  1  0
 21 22  1  0
 21 23  1  0
 23 24  2  0
 23 44  1  0
 24 25  1  0
 24 45  1  0
 25 46  1  0
 26 27  1  0
 26 33  2  0
 27 28  1  0
 27 30  2  0
 28 29  2  0
 29 47  1  0
 30 31  1  0
 30 48  1  0
 31 32  2  0
 31 49  1  0
 32 33  1  0
 32 50  1  0
 33 51  1  0
M  CHG  1  17   1
M  END
>  <s_epik_cmdline>  (1129) 
J2VwaWtfcHl0aG9uJywgJy1waCcsICc3LjAwMDAwMCcsICctcGh0JywgJzIuMDAwMDAwJywgJy1tcycsICcxNicsICctdG4nLCAnOCcsICctbWEnLCAnMjAwJywgJy1pbWFlJywgJzxpbmZpbGUubWFlPicsICctb21hZScsICc8b3V0ZmlsZS5tYWU+Jw==

>  <s_epik_input>  (1129) 
W2NIXTFbY0hdW2NIXWMoQ2wpYyhjMUNsKUMoPU8pW05IXWMoW2NIXW5jKGMyMylbY0hdW2NIXVtjSF1bY0hdMyljMkMjQ1tDQEhdKFtOSDJdKVtDSDJdYzRbY0hdYyhGKVtjSF1bY0hdW2NIXTQ=

>  <s_i_glide_gridfile>  (1129) 
ATP-Grid

>  <s_lp_Force_Field>  (1129) 
OPLS_2005

>  <s_lp_Variant>  (1129) 
rxn503b____EMOL500425____EMOL30488121____EMOL313110234-3

>  <s_lp_label>  (1129) 
3066_sdstereoexpander_1_neutralizer_1_epik_2_stereoizer_1

>  <s_m_source_file>  (1129) 
ATP-VSW-LIGPREP-002-in.maegz

>  <s_sd_BIOSOLVEIT.INFINISEE\_QUERY\_NAME>  (1129) 
Ref-Lig

>  <s_sd_BIOSOLVEIT.INFINISEE\_QUERY\_SMILES>  (1129) 
S(c1nc2c(cc1C[NH2+]Cc3ccc(cc3)C[NH+](C)C)cccc2)Cc4ccccc4

>  <s_sd_BIOSOLVEIT.INFINISEE\_REACTION\_NAME>  (1129) 
rxn503b

>  <s_sd_BIOSOLVEIT.INFINISEE\_REAGENT1\_NAME>  (1129) 
EMOL500425

>  <s_sd_BIOSOLVEIT.INFINISEE\_REAGENT1\_SMILES>  (1129) 
Clc1c(c(Cl)ccc1)C(=O)O

>  <s_sd_BIOSOLVEIT.INFINISEE\_REAGENT2\_NAME>  (1129) 
EMOL30488121

>  <s_sd_BIOSOLVEIT.INFINISEE\_REAGENT2\_SMILES>  (1129) 
Brc1c(N)cnc2c1cccc2

>  <s_sd_BIOSOLVEIT.INFINISEE\_REAGENT3\_NAME>  (1129) 
EMOL313110234

>  <s_sd_BIOSOLVEIT.INFINISEE\_REAGENT3\_SMILES>  (1129) 
Fc1cc(ccc1)CC(N)C#C

>  <s_sd_BIOSOLVEIT.INFINISEE\_SPACE>  (1129) 
eXplore_7tr_2022-12

>  <s_vsw_compound_code>  (1129) 
98082

>  <s_vsw_variant>  (1129) 
98082-3

>  <r_epik_Charging_Adjusted_Penalty>  (1129) 
1.22591159016581

>  <r_epik_Ionization_Penalty>  (1129) 
0.61429999999999996

>  <r_epik_Ionization_Penalty_Charging>  (1129) 
0.61299999999999999

>  <r_epik_Ionization_Penalty_Neutral>  (1129) 
0.0012999999999999999

>  <r_epik_State_Penalty>  (1129) 
0.61299999999999999

>  <r_i_docking_score>  (1129) 
-3.3953092719678102

>  <r_i_glide_ecoul>  (1129) 
-8.59539794921875

>  <r_i_glide_eff_state_penalty>  (1129) 
0.61299999999999999

>  <r_i_glide_einternal>  (1129) 
3.8177766799926798

>  <r_i_glide_emodel>  (1129) 
-47.793995083195597

>  <r_i_glide_energy>  (1129) 
-36.220623016357401

>  <r_i_glide_erotb>  (1129) 
0.52932167667218799

>  <r_i_glide_esite>  (1129) 
-0.108751112596867

>  <r_i_glide_evdw>  (1129) 
-27.6252250671387

>  <r_i_glide_gscore>  (1129) 
-4.0083092719678097

>  <r_i_glide_hbond>  (1129) 
-0.20000000000000001

>  <r_i_glide_ligand_efficiency>  (1129) 
-0.1028881597566

>  <r_i_glide_ligand_efficiency_ln>  (1129) 
-0.75509920211509096

>  <r_i_glide_ligand_efficiency_sa>  (1129) 
-0.330017304184755

>  <r_i_glide_lipo>  (1129) 
-1.1915666829282101

>  <r_i_glide_metal>  (1129) 
-0

>  <r_i_glide_rewards>  (1129) 
-0.36674220737517599

>  <r_lp_Energy>  (1129) 
30.104635999999999

>  <r_qp_ACxDN^.5/SA>  (1129) 
0.0117231

>  <r_qp_CIQPlogS>  (1129) 
-7.1959999999999997

>  <r_qp_EA(eV)>  (1129) 
1.23

>  <r_qp_FISA>  (1129) 
102.666

>  <r_qp_FOSA>  (1129) 
47.317999999999998

>  <r_qp_IP(eV)>  (1129) 
8.6999999999999993

>  <r_qp_Jm>  (1129) 
0.0048624483280180399

>  <r_qp_PISA>  (1129) 
396.05799999999999

>  <r_qp_PSA>  (1129) 
69.677000000000007

>  <r_qp_PercentHumanOralAbsorption>  (1129) 
100

>  <r_qp_QPPCaco>  (1129) 
262.553

>  <r_qp_QPPMDCK>  (1129) 
577.22199999999998

>  <r_qp_QPlogBB>  (1129) 
-0.094

>  <r_qp_QPlogHERG>  (1129) 
-6.4130000000000003

>  <r_qp_QPlogKhsa>  (1129) 
0.80300000000000005

>  <r_qp_QPlogKp>  (1129) 
-3.407

>  <r_qp_QPlogPC16>  (1129) 
14.759

>  <r_qp_QPlogPo/w>  (1129) 
4.79

>  <r_qp_QPlogPoct>  (1129) 
23.286000000000001

>  <r_qp_QPlogPw>  (1129) 
12.035

>  <r_qp_QPlogS>  (1129) 
-4.5860000000000003

>  <r_qp_QPpolrz>  (1129) 
44.576999999999998

>  <r_qp_SASA>  (1129) 
664.85799999999995

>  <r_qp_SAamideO>  (1129) 
0

>  <r_qp_SAfluorine>  (1129) 
30.739000000000001

>  <r_qp_WPSA>  (1129) 
118.815

>  <r_qp_accptHB>  (1129) 
4.5

>  <r_qp_dip^2/V>  (1129) 
0.067034399999999994

>  <r_qp_dipole>  (1129) 
9.2829999999999995

>  <r_qp_donorHB>  (1129) 
3

>  <r_qp_glob>  (1129) 
0.8599407

>  <r_qp_mol_MW>  (1129) 
478.35199999999998

>  <r_qp_volume>  (1129) 
1285.4300000000001

>  <r_sd_BIOSOLVEIT.INFINISEE\_FTREES\_SIMILARITY>  (1129) 
0.90200000000000002

>  <r_sd_BIOSOLVEIT.LOGP>  (1129) 
5.1376999999999997

>  <r_sd_BIOSOLVEIT.MOLECULAR\_WEIGHT>  (1129) 
479.36000000000001

>  <r_sd_BIOSOLVEIT.TPSA>  (1129) 
69.629999999999995

>  <i_epik_Tot_Q>  (1129) 
1

>  <i_epik_Tot_abs_Q>  (1129) 
1

>  <i_f3d_flags>  (1129) 
0

>  <i_i_glide_confnum>  (1129) 
4

>  <i_i_glide_lignum>  (1129) 
116

>  <i_i_glide_posenum>  (1129) 
12

>  <i_i_glide_rotatable_bonds>  (1129) 
7

>  <i_lp_mmshare_version>  (1129) 
65135

>  <i_m_ct_format>  (1129) 
2

>  <i_m_source_file_index>  (1129) 
3066

>  <i_qp_#NandO>  (1129) 
4

>  <i_qp_#acid>  (1129) 
0

>  <i_qp_#amide>  (1129) 
0

>  <i_qp_#amidine>  (1129) 
0

>  <i_qp_#amine>  (1129) 
1

>  <i_qp_#in34>  (1129) 
0

>  <i_qp_#in56>  (1129) 
22

>  <i_qp_#metab>  (1129) 
5

>  <i_qp_#nonHatm>  (1129) 
33

>  <i_qp_#noncon>  (1129) 
0

>  <i_qp_#ringatoms>  (1129) 
22

>  <i_qp_#rotor>  (1129) 
7

>  <i_qp_#rtvFG>  (1129) 
0

>  <i_qp_#stars>  (1129) 
0

>  <i_qp_CNS>  (1129) 
0

>  <i_qp_HumanOralAbsorption>  (1129) 
3

>  <i_qp_RuleOfFive>  (1129) 
0

>  <i_qp_RuleOfThree>  (1129) 
0

>  <i_sd_BIOSOLVEIT.INFINISEE\_RESULT\_RANK>  (1129) 
92445

>  <i_sd_version>  (1129) 
0

>  <b_lp_Chiralities_Consistent>  (1129) 
1

>  <b_sd_chiral_flag>  (1129) 
0

>  <canonical_id>  (1129) 
ATP-HTVS-B47DAEDE372B

>  <compound_code>  (1129) 
98082

>  <title>  (1129) 
rxn503b____EMOL500425____EMOL30488121____EMOL313110234

>  <variant>  (1129) 
98082-3

>  <source_file>  (1129) 
运行/运行/ATP-VSW/ATP-VSW-DOCK_HTVS_1-003_lib/ATP-VSW-DOCK_HTVS_1-003_lib.mae

>  <canonical_smiles>  (1129) 
[NH3+][C@@H](C#Cc1c(NC(=O)c2c(Cl)cccc2Cl)cnc2ccccc12)Cc1cccc(F)c1

>  <scaffold>  (1129) 
O=C(Nc1cnc2ccccc2c1C#CCCc1ccccc1)c1ccccc1

>  <molecular_formula>  (1129) 
C26H19Cl2FN3O+

$$$$
ATP-HTVS-B48F3FD049EC
     RDKit          3D

 60 63  0  0  0  0  0  0  0  0999 V2000
  199.9735  184.7533  150.9352 O   0  0  0  0  0  0  0  0  0  0  0  0
  199.2111  184.5070  149.8127 C   0  0  0  0  0  0  0  0  0  0  0  0
  198.1150  185.4052  149.7786 C   0  0  0  0  0  0  0  0  0  0  0  0
  197.2196  185.2858  148.6913 C   0  0  0  0  0  0  0  0  0  0  0  0
  197.4268  184.3143  147.6892 C   0  0  0  0  0  0  0  0  0  0  0  0
  198.5300  183.4362  147.7553 C   0  0  0  0  0  0  0  0  0  0  0  0
  199.4356  183.5291  148.8292 C   0  0  0  0  0  0  0  0  0  0  0  0
  198.2455  186.2320  150.9420 C   0  0  0  0  0  0  0  0  0  0  0  0
  199.3743  185.7970  151.5935 C   0  0  0  0  0  0  0  0  0  0  0  0
  200.0246  186.2392  152.8668 C   0  0  2  0  0  0  0  0  0  0  0  0
  199.1434  185.9460  154.0129 N   0  0  1  0  0  0  0  0  0  0  0  0
  199.6845  186.3472  155.3270 C   0  0  1  0  0  0  0  0  0  0  0  0
  198.9314  185.6968  156.4548 C   0  0  0  0  0  0  0  0  0  0  0  0
  199.3250  184.4329  156.9323 C   0  0  0  0  0  0  0  0  0  0  0  0
  198.6492  183.8653  158.0309 C   0  0  0  0  0  0  0  0  0  0  0  0
  197.5877  184.5562  158.6619 C   0  0  0  0  0  0  0  0  0  0  0  0
  197.2020  185.8264  158.1753 C   0  0  0  0  0  0  0  0  0  0  0  0
  197.8584  186.3884  157.0535 C   0  0  0  0  0  0  0  0  0  0  0  0
  196.8732  183.9154  159.8538 C   0  0  1  0  0  0  0  0  0  0  0  0
  195.4694  183.5448  159.6345 N   0  0  0  0  0  0  0  0  0  0  0  0
  195.3986  182.5135  158.5895 C   0  0  1  0  0  0  0  0  0  0  0  0
  193.9960  181.8989  158.4120 C   0  0  2  0  0  0  0  0  0  0  0  0
  194.5940  184.6887  159.3452 C   0  0  1  0  0  0  0  0  0  0  0  0
  194.7072  185.8265  160.3777 C   0  0  2  0  0  0  0  0  0  0  0  0
  200.4450  187.7061  152.8160 C   0  0  0  0  0  0  0  0  0  0  0  0
  201.7690  187.9379  152.6559 N   0  0  0  0  0  0  0  0  0  0  0  0
  202.1954  189.2150  152.6190 C   0  0  0  0  0  0  0  0  0  0  0  0
  201.3359  190.3203  152.7547 C   0  0  0  0  0  0  0  0  0  0  0  0
  199.9602  190.0800  152.9309 C   0  0  0  0  0  0  0  0  0  0  0  0
  199.5018  188.7485  152.9549 C   0  0  0  0  0  0  0  0  0  0  0  0
  198.2505  186.3953  153.8695 H   0  0  0  0  0  0  0  0  0  0  0  0
  196.3690  185.9457  148.6182 H   0  0  0  0  0  0  0  0  0  0  0  0
  196.7327  184.2437  146.8656 H   0  0  0  0  0  0  0  0  0  0  0  0
  198.6761  182.6939  146.9849 H   0  0  0  0  0  0  0  0  0  0  0  0
  200.2838  182.8652  148.8990 H   0  0  0  0  0  0  0  0  0  0  0  0
  197.5814  187.0334  151.2315 H   0  0  0  0  0  0  0  0  0  0  0  0
  200.9246  185.6447  153.0270 H   0  0  0  0  0  0  0  0  0  0  0  0
  200.7462  186.0882  155.4145 H   0  0  0  0  0  0  0  0  0  0  0  0
  199.6162  187.4332  155.4329 H   0  0  0  0  0  0  0  0  0  0  0  0
  200.1468  183.8959  156.4747 H   0  0  0  0  0  0  0  0  0  0  0  0
  198.9476  182.8984  158.3948 H   0  0  0  0  0  0  0  0  0  0  0  0
  196.4050  186.3995  158.6446 H   0  0  0  0  0  0  0  0  0  0  0  0
  197.5369  187.3554  156.6848 H   0  0  0  0  0  0  0  0  0  0  0  0
  197.4131  183.0132  160.1407 H   0  0  0  0  0  0  0  0  0  0  0  0
  196.9550  184.5732  160.7240 H   0  0  0  0  0  0  0  0  0  0  0  0
  195.7232  182.9060  157.6279 H   0  0  0  0  0  0  0  0  0  0  0  0
  196.0829  181.6978  158.8399 H   0  0  0  0  0  0  0  0  0  0  0  0
  194.0197  181.1139  157.6487 H   0  0  0  0  0  0  0  0  0  0  0  0
  193.2706  182.6360  158.0584 H   0  0  0  0  0  0  0  0  0  0  0  0
  193.6304  181.4510  159.3313 H   0  0  0  0  0  0  0  0  0  0  0  0
  194.7874  185.0531  158.3457 H   0  0  0  0  0  0  0  0  0  0  0  0
  193.5519  184.3492  159.3465 H   0  0  0  0  0  0  0  0  0  0  0  0
  194.0292  186.6613  160.1500 H   0  0  0  0  0  0  0  0  0  0  0  0
  195.7157  186.2332  160.4631 H   0  0  0  0  0  0  0  0  0  0  0  0
  194.3918  185.4544  161.3480 H   0  0  0  0  0  0  0  0  0  0  0  0
  203.2571  189.3647  152.4804 H   0  0  0  0  0  0  0  0  0  0  0  0
  201.7215  191.3270  152.7271 H   0  0  0  0  0  0  0  0  0  0  0  0
  199.2688  190.9024  153.0405 H   0  0  0  0  0  0  0  0  0  0  0  0
  198.4484  188.5460  153.0874 H   0  0  0  0  0  0  0  0  0  0  0  0
  198.9815  184.9440  154.0321 H   0  0  0  0  0  0  0  0  0  0  0  0
  1  2  1  0
  1  9  1  0
  2  3  1  0
  2  7  2  0
  3  4  2  0
  3  8  1  0
  4  5  1  0
  4 32  1  0
  5  6  2  0
  5 33  1  0
  6  7  1  0
  6 34  1  0
  7 35  1  0
  8  9  2  0
  8 36  1  0
  9 10  1  0
 10 11  1  0
 10 25  1  0
 10 37  1  1
 11 12  1  0
 11 31  1  6
 11 60  1  0
 12 13  1  0
 12 38  1  6
 12 39  1  0
 13 14  1  0
 13 18  2  0
 14 15  2  0
 14 40  1  0
 15 16  1  0
 15 41  1  0
 16 17  2  0
 16 19  1  0
 17 18  1  0
 17 42  1  0
 18 43  1  0
 19 20  1  0
 19 44  1  1
 19 45  1  0
 20 21  1  0
 20 23  1  0
 21 22  1  0
 21 46  1  6
 21 47  1  0
 22 48  1  6
 22 49  1  0
 22 50  1  0
 23 24  1  0
 23 51  1  6
 23 52  1  0
 24 53  1  6
 24 54  1  0
 24 55  1  0
 25 26  1  0
 25 30  2  0
 26 27  2  0
 27 28  1  0
 27 56  1  0
 28 29  2  0
 28 57  1  0
 29 30  1  0
 29 58  1  0
 30 59  1  0
M  CHG  1  11   1
M  END
>  <s_epik_cmdline>  (1130) 
J2VwaWtfcHl0aG9uJywgJy1waCcsICc3LjAwMDAwMCcsICctcGh0JywgJzIuMDAwMDAwJywgJy1tcycsICcxNicsICctdG4nLCAnOCcsICctbWEnLCAnMjAwJywgJy1pbWFlJywgJzxpbmZpbGUubWFlPicsICctb21hZScsICc8b3V0ZmlsZS5tYWU+Jw==

>  <s_epik_input>  (1130) 
W2NIXTFbY0hdW2NIXVtjSF1jKGMxMilbY0hdYyhvMilbQ0BASF0oYzNuW2NIXVtjSF1bY0hdW2NIXTMpW05IXVtDSDJdYzRbY0hdW2NIXWMoW2NIXVtjSF00KVtDSDJdTihbQ0gyXVtDSDNdKVtDSDJdW0NIM10=

>  <s_i_glide_gridfile>  (1130) 
ATP-Grid

>  <s_lp_Force_Field>  (1130) 
OPLS_2005

>  <s_lp_Variant>  (1130) 
m_269862bba____7193238____13192834-5

>  <s_lp_label>  (1130) 
750_sdstereoexpander_1_neutralizer_1_epik_3_stereoizer_1

>  <s_m_source_file>  (1130) 
ATP-VSW-LIGPREP-002-in.maegz

>  <s_sd_BIOSOLVEIT.INFINISEE\_QUERY\_NAME>  (1130) 
Ref-Lig

>  <s_sd_BIOSOLVEIT.INFINISEE\_QUERY\_SMILES>  (1130) 
S(c1nc2c(cc1C[NH2+]Cc3ccc(cc3)C[NH+](C)C)cccc2)Cc4ccccc4

>  <s_sd_BIOSOLVEIT.INFINISEE\_REACTION\_NAME>  (1130) 
m_269862bba

>  <s_sd_BIOSOLVEIT.INFINISEE\_REAGENT1\_SMILES>  (1130) 
[R1*]NCc1ccc(cc1)CN(CC)CC

>  <s_sd_BIOSOLVEIT.INFINISEE\_REAGENT2\_SMILES>  (1130) 
[R1*]C(c1ncccc1)C=2Oc3c(cccc3)C2

>  <s_sd_BIOSOLVEIT.INFINISEE\_SPACE>  (1130) 
REALSpace_44bn_2023-08

>  <s_vsw_compound_code>  (1130) 
23970

>  <s_vsw_variant>  (1130) 
23970-5

>  <r_epik_Charging_Adjusted_Penalty>  (1130) 
2.42029716856291

>  <r_epik_Ionization_Penalty>  (1130) 
2.1659000000000002

>  <r_epik_Ionization_Penalty_Charging>  (1130) 
0.21010000000000001

>  <r_epik_Ionization_Penalty_Neutral>  (1130) 
1.9558

>  <r_epik_State_Penalty>  (1130) 
2.2101999999999999

>  <r_i_docking_score>  (1130) 
-1.74699328530656

>  <r_i_glide_ecoul>  (1130) 
-4.308349609375

>  <r_i_glide_eff_state_penalty>  (1130) 
2.2101999999999999

>  <r_i_glide_einternal>  (1130) 
3.0278749465942401

>  <r_i_glide_emodel>  (1130) 
-44.7410944471617

>  <r_i_glide_energy>  (1130) 
-34.113439559936502

>  <r_i_glide_erotb>  (1130) 
0.85543584532918304

>  <r_i_glide_esite>  (1130) 
-4.1768924076601097e-05

>  <r_i_glide_evdw>  (1130) 
-29.805089950561499

>  <r_i_glide_gscore>  (1130) 
-3.9571932853065599

>  <r_i_glide_hbond>  (1130) 
0

>  <r_i_glide_ligand_efficiency>  (1130) 
-0.058233109510218498

>  <r_i_glide_ligand_efficiency_ln>  (1130) 
-0.39693590943807799

>  <r_i_glide_ligand_efficiency_sa>  (1130) 
-0.18094381058778

>  <r_i_glide_lipo>  (1130) 
-1.99791610459552

>  <r_i_glide_metal>  (1130) 
-0

>  <r_i_glide_rewards>  (1130) 
-0.67816431818181699

>  <r_lp_Energy>  (1130) 
14.783512

>  <r_qp_ACxDN^.5/SA>  (1130) 
0.0072221000000000004

>  <r_qp_CIQPlogS>  (1130) 
-4.5019999999999998

>  <r_qp_EA(eV)>  (1130) 
0.26800000000000002

>  <r_qp_FISA>  (1130) 
19.117999999999999

>  <r_qp_FOSA>  (1130) 
249.071

>  <r_qp_IP(eV)>  (1130) 
8.8170000000000002

>  <r_qp_Jm>  (1130) 
0.067278143627824805

>  <r_qp_PISA>  (1130) 
424.13400000000001

>  <r_qp_PSA>  (1130) 
35.698999999999998

>  <r_qp_PercentHumanOralAbsorption>  (1130) 
100

>  <r_qp_QPPCaco>  (1130) 
405.88799999999998

>  <r_qp_QPPMDCK>  (1130) 
228.477

>  <r_qp_QPlogBB>  (1130) 
0.63600000000000001

>  <r_qp_QPlogHERG>  (1130) 
-7.6689999999999996

>  <r_qp_QPlogKhsa>  (1130) 
0.82399999999999995

>  <r_qp_QPlogKp>  (1130) 
-3.6389999999999998

>  <r_qp_QPlogPC16>  (1130) 
13.699

>  <r_qp_QPlogPo/w>  (1130) 
4.7249999999999996

>  <r_qp_QPlogPoct>  (1130) 
18.587

>  <r_qp_QPlogPw>  (1130) 
8.8049999999999997

>  <r_qp_QPlogS>  (1130) 
-3.1349999999999998

>  <r_qp_QPpolrz>  (1130) 
44.466999999999999

>  <r_qp_SASA>  (1130) 
692.322

>  <r_qp_SAamideO>  (1130) 
0

>  <r_qp_SAfluorine>  (1130) 
0

>  <r_qp_WPSA>  (1130) 
0

>  <r_qp_accptHB>  (1130) 
5

>  <r_qp_dip^2/V>  (1130) 
0.0007852

>  <r_qp_dipole>  (1130) 
1.0129999999999999

>  <r_qp_donorHB>  (1130) 
1

>  <r_qp_glob>  (1130) 
0.8354956

>  <r_qp_mol_MW>  (1130) 
399.53500000000003

>  <r_qp_volume>  (1130) 
1308.0709999999999

>  <r_sd_BIOSOLVEIT.INFINISEE\_FTREES\_SIMILARITY>  (1130) 
0.92600000000000005

>  <r_sd_BIOSOLVEIT.LOGP>  (1130) 
3.1055000000000001

>  <r_sd_BIOSOLVEIT.MOLECULAR\_WEIGHT>  (1130) 
401.55099999999999

>  <r_sd_BIOSOLVEIT.TPSA>  (1130) 
47.079999999999998

>  <i_epik_Tot_Q>  (1130) 
1

>  <i_epik_Tot_abs_Q>  (1130) 
1

>  <i_f3d_flags>  (1130) 
0

>  <i_i_glide_confnum>  (1130) 
12

>  <i_i_glide_lignum>  (1130) 
233

>  <i_i_glide_posenum>  (1130) 
8

>  <i_i_glide_rotatable_bonds>  (1130) 
9

>  <i_lp_mmshare_version>  (1130) 
65135

>  <i_m_ct_format>  (1130) 
2

>  <i_m_source_file_index>  (1130) 
750

>  <i_qp_#NandO>  (1130) 
4

>  <i_qp_#acid>  (1130) 
0

>  <i_qp_#amide>  (1130) 
0

>  <i_qp_#amidine>  (1130) 
0

>  <i_qp_#amine>  (1130) 
2

>  <i_qp_#in34>  (1130) 
0

>  <i_qp_#in56>  (1130) 
21

>  <i_qp_#metab>  (1130) 
8

>  <i_qp_#nonHatm>  (1130) 
30

>  <i_qp_#noncon>  (1130) 
0

>  <i_qp_#ringatoms>  (1130) 
21

>  <i_qp_#rotor>  (1130) 
9

>  <i_qp_#rtvFG>  (1130) 
0

>  <i_qp_#stars>  (1130) 
0

>  <i_qp_CNS>  (1130) 
2

>  <i_qp_HumanOralAbsorption>  (1130) 
3

>  <i_qp_RuleOfFive>  (1130) 
0

>  <i_qp_RuleOfThree>  (1130) 
1

>  <i_sd_BIOSOLVEIT.INFINISEE\_REAGENT1\_NAME>  (1130) 
7193238

>  <i_sd_BIOSOLVEIT.INFINISEE\_REAGENT2\_NAME>  (1130) 
13192834

>  <i_sd_BIOSOLVEIT.INFINISEE\_RESULT\_RANK>  (1130) 
7814

>  <i_sd_version>  (1130) 
0

>  <b_lp_Chiralities_Consistent>  (1130) 
1

>  <b_sd_chiral_flag>  (1130) 
0

>  <canonical_id>  (1130) 
ATP-HTVS-B48F3FD049EC

>  <compound_code>  (1130) 
23970

>  <title>  (1130) 
m_269862bba____7193238____13192834

>  <variant>  (1130) 
23970-5

>  <source_file>  (1130) 
运行/运行/ATP-VSW/ATP-VSW-DOCK_HTVS_1-002_lib.maegz

>  <canonical_smiles>  (1130) 
CCN(CC)Cc1ccc(C[NH2+][C@H](c2ccccn2)c2cc3ccccc3o2)cc1

>  <scaffold>  (1130) 
c1ccc(C[NH2+]C(c2ccccn2)c2cc3ccccc3o2)cc1

>  <molecular_formula>  (1130) 
C26H30N3O+

$$$$
ATP-HTVS-B4E8E29A2CD9
     RDKit          3D

 62 65  0  0  0  0  0  0  0  0999 V2000
  200.9753  181.1225  156.3364 O   0  0  0  0  0  0  0  0  0  0  0  0
  199.8050  180.9577  156.6820 C   0  0  0  0  0  0  0  0  0  0  0  0
  198.9830  181.9202  157.1342 N   0  0  0  0  0  0  0  0  0  0  0  0
  199.2748  183.2671  157.5027 C   0  0  0  0  0  0  0  0  0  0  0  0
  198.3282  183.9722  158.2894 C   0  0  0  0  0  0  0  0  0  0  0  0
  198.5641  185.3207  158.6355 C   0  0  0  0  0  0  0  0  0  0  0  0
  199.7372  185.9748  158.2295 C   0  0  0  0  0  0  0  0  0  0  0  0
  200.6903  185.2776  157.4678 C   0  0  0  0  0  0  0  0  0  0  0  0
  200.4626  183.9342  157.1006 C   0  0  0  0  0  0  0  0  0  0  0  0
  197.0283  183.3351  158.7718 C   0  0  1  0  0  0  0  0  0  0  0  0
  195.9553  183.2977  157.6662 C   0  0  1  0  0  0  0  0  0  0  0  0
  194.5788  183.0602  158.1605 N   0  0  2  0  0  0  0  0  0  0  0  0
  194.1782  183.9963  159.2419 C   0  0  2  0  0  0  0  0  0  0  0  0
  194.3076  181.6548  158.5000 C   0  0  2  0  0  0  0  0  0  0  0  0
  199.2052  179.7554  156.6668 N   0  0  0  0  0  0  0  0  0  0  0  0
  199.8656  178.5264  156.2553 C   0  0  1  0  0  0  0  0  0  0  0  0
  199.7826  178.3152  154.7671 C   0  0  0  0  0  0  0  0  0  0  0  0
  200.5942  177.4979  153.9277 C   0  0  0  0  0  0  0  0  0  0  0  0
  200.2139  177.5683  152.6628 N   0  0  0  0  0  0  0  0  0  0  0  0
  199.1517  178.4058  152.6331 N   0  0  0  0  0  0  0  0  0  0  0  0
  198.4714  178.6784  151.4185 C   0  0  0  0  0  0  0  0  0  0  0  0
  197.3883  179.5870  151.3912 C   0  0  0  0  0  0  0  0  0  0  0  0
  196.7138  179.8575  150.1859 C   0  0  0  0  0  0  0  0  0  0  0  0
  197.1110  179.2192  148.9971 C   0  0  0  0  0  0  0  0  0  0  0  0
  198.1883  178.3135  149.0107 C   0  0  0  0  0  0  0  0  0  0  0  0
  198.8650  178.0402  150.2167 C   0  0  0  0  0  0  0  0  0  0  0  0
  198.8870  178.8837  153.9011 C   0  0  0  0  0  0  0  0  0  0  0  0
  201.7301  176.6420  154.2815 C   0  0  0  0  0  0  0  0  0  0  0  0
  202.8667  176.5808  153.4498 C   0  0  0  0  0  0  0  0  0  0  0  0
  203.9339  175.7396  153.8192 C   0  0  0  0  0  0  0  0  0  0  0  0
  203.9277  174.9841  154.9350 N   0  0  0  0  0  0  0  0  0  0  0  0
  202.8365  175.0440  155.7307 C   0  0  0  0  0  0  0  0  0  0  0  0
  201.7190  175.8547  155.4538 C   0  0  0  0  0  0  0  0  0  0  0  0
  198.0724  181.5926  157.4127 H   0  0  0  0  0  0  0  0  0  0  0  0
  197.8364  185.8682  159.2148 H   0  0  0  0  0  0  0  0  0  0  0  0
  199.8998  187.0120  158.4995 H   0  0  0  0  0  0  0  0  0  0  0  0
  201.5930  185.7808  157.1463 H   0  0  0  0  0  0  0  0  0  0  0  0
  201.2250  183.4559  156.5058 H   0  0  0  0  0  0  0  0  0  0  0  0
  197.2295  182.3377  159.1666 H   0  0  0  0  0  0  0  0  0  0  0  0
  196.6665  183.9215  159.6297 H   0  0  0  0  0  0  0  0  0  0  0  0
  195.9754  184.2397  157.1315 H   0  0  0  0  0  0  0  0  0  0  0  0
  196.1972  182.5430  156.9208 H   0  0  0  0  0  0  0  0  0  0  0  0
  194.7949  183.8431  160.1329 H   0  0  0  0  0  0  0  0  0  0  0  0
  193.1199  183.8784  159.5071 H   0  0  0  0  0  0  0  0  0  0  0  0
  194.3190  185.0338  158.9383 H   0  0  0  0  0  0  0  0  0  0  0  0
  194.9637  181.2934  159.2901 H   0  0  0  0  0  0  0  0  0  0  0  0
  194.4485  181.0381  157.6097 H   0  0  0  0  0  0  0  0  0  0  0  0
  193.2723  181.5324  158.8212 H   0  0  0  0  0  0  0  0  0  0  0  0
  198.2559  179.6441  156.9965 H   0  0  0  0  0  0  0  0  0  0  0  0
  200.9038  178.5278  156.5994 H   0  0  0  0  0  0  0  0  0  0  0  0
  199.3848  177.7098  156.7902 H   0  0  0  0  0  0  0  0  0  0  0  0
  197.0570  180.0901  152.2886 H   0  0  0  0  0  0  0  0  0  0  0  0
  195.8985  180.5635  150.1800 H   0  0  0  0  0  0  0  0  0  0  0  0
  196.5986  179.4322  148.0689 H   0  0  0  0  0  0  0  0  0  0  0  0
  198.4992  177.8324  148.0955 H   0  0  0  0  0  0  0  0  0  0  0  0
  199.6831  177.3386  150.1985 H   0  0  0  0  0  0  0  0  0  0  0  0
  198.0798  179.5688  154.1081 H   0  0  0  0  0  0  0  0  0  0  0  0
  202.9217  177.1652  152.5446 H   0  0  0  0  0  0  0  0  0  0  0  0
  204.8169  175.6754  153.1990 H   0  0  0  0  0  0  0  0  0  0  0  0
  202.8605  174.4340  156.6215 H   0  0  0  0  0  0  0  0  0  0  0  0
  200.8760  175.8652  156.1292 H   0  0  0  0  0  0  0  0  0  0  0  0
  193.9916  183.2251  157.3660 H   0  0  0  0  0  0  0  0  0  0  0  0
  1  2  2  0
  2  3  1  0
  2 15  1  0
  3  4  1  0
  3 34  1  0
  4  5  1  0
  4  9  2  0
  5  6  2  0
  5 10  1  0
  6  7  1  0
  6 35  1  0
  7  8  2  0
  7 36  1  0
  8  9  1  0
  8 37  1  0
  9 38  1  0
 10 11  1  0
 10 39  1  1
 10 40  1  0
 11 12  1  0
 11 41  1  6
 11 42  1  0
 12 13  1  0
 12 14  1  0
 12 62  1  6
 13 43  1  1
 13 44  1  0
 13 45  1  0
 14 46  1  1
 14 47  1  0
 14 48  1  0
 15 16  1  0
 15 49  1  0
 16 17  1  0
 16 50  1  1
 16 51  1  0
 17 18  1  0
 17 27  2  0
 18 19  2  0
 18 28  1  0
 19 20  1  0
 20 21  1  0
 20 27  1  0
 21 22  2  0
 21 26  1  0
 22 23  1  0
 22 52  1  0
 23 24  2  0
 23 53  1  0
 24 25  1  0
 24 54  1  0
 25 26  2  0
 25 55  1  0
 26 56  1  0
 27 57  1  0
 28 29  2  0
 28 33  1  0
 29 30  1  0
 29 58  1  0
 30 31  2  0
 30 59  1  0
 31 32  1  0
 32 33  2  0
 32 60  1  0
 33 61  1  0
M  CHG  1  12   1
M  END
>  <s_epik_cmdline>  (1131) 
J2VwaWtfcHl0aG9uJywgJy1waCcsICc3LjAwMDAwMCcsICctcGh0JywgJzIuMDAwMDAwJywgJy1tcycsICcxNicsICctdG4nLCAnOCcsICctbWEnLCAnMjAwJywgJy1pbWFlJywgJzxpbmZpbGUubWFlPicsICctb21hZScsICc8b3V0ZmlsZS5tYWU+Jw==

>  <s_epik_input>  (1131) 
W2NIXTFbY0hdW2NIXVtjSF1jKFtDSDJdW0NIMl1OKFtDSDNdKVtDSDNdKWMxW05IXUMoPU8pW05IXVtDSDJdYzJjKC1jM1tjSF1bY0hdbltjSF1bY0hdMylubihbY0hdMiktYzRbY0hdW2NIXVtjSF1bY0hdW2NIXTQ=

>  <s_i_glide_gridfile>  (1131) 
ATP-Grid

>  <s_lp_Force_Field>  (1131) 
OPLS_2005

>  <s_lp_Variant>  (1131) 
m_2430dbb____9142264____2308808-1

>  <s_lp_label>  (1131) 
1943_sdstereoexpander_1_neutralizer_1_epik_1_stereoizer_1

>  <s_m_source_file>  (1131) 
ATP-VSW-LIGPREP-003-in.maegz

>  <s_sd_BIOSOLVEIT.INFINISEE\_QUERY\_NAME>  (1131) 
Ref-Lig

>  <s_sd_BIOSOLVEIT.INFINISEE\_QUERY\_SMILES>  (1131) 
S(c1nc2c(cc1C[NH2+]Cc3ccc(cc3)C[NH+](C)C)cccc2)Cc4ccccc4

>  <s_sd_BIOSOLVEIT.INFINISEE\_REACTION\_NAME>  (1131) 
m_2430dbb

>  <s_sd_BIOSOLVEIT.INFINISEE\_REAGENT1\_SMILES>  (1131) 
[R1*]C(=O)Nc1c(cccc1)CCN(C)C

>  <s_sd_BIOSOLVEIT.INFINISEE\_REAGENT2\_SMILES>  (1131) 
[R1*]NCC=1C(=NN(c2ccccc2)C1)c3ccncc3

>  <s_sd_BIOSOLVEIT.INFINISEE\_SPACE>  (1131) 
REALSpace_44bn_2023-08

>  <s_vsw_compound_code>  (1131) 
62147

>  <s_vsw_variant>  (1131) 
62147-1

>  <r_epik_Charging_Adjusted_Penalty>  (1131) 
0.0041893016204164503

>  <r_epik_Ionization_Penalty>  (1131) 
0.0088999999999999999

>  <r_epik_Ionization_Penalty_Charging>  (1131) 
0.0041999999999999997

>  <r_epik_Ionization_Penalty_Neutral>  (1131) 
0.0047000000000000002

>  <r_epik_State_Penalty>  (1131) 
-0

>  <r_i_docking_score>  (1131) 
-4.5674968213852001

>  <r_i_glide_ecoul>  (1131) 
-11.2099552154541

>  <r_i_glide_eff_state_penalty>  (1131) 
-0

>  <r_i_glide_einternal>  (1131) 
3.9246840476989702

>  <r_i_glide_emodel>  (1131) 
-56.880780295023698

>  <r_i_glide_energy>  (1131) 
-42.073577880859403

>  <r_i_glide_erotb>  (1131) 
0.92213309388596298

>  <r_i_glide_esite>  (1131) 
-0.202472448008715

>  <r_i_glide_evdw>  (1131) 
-30.863622665405298

>  <r_i_glide_gscore>  (1131) 
-4.5674968213852001

>  <r_i_glide_hbond>  (1131) 
-0.41551617795004298

>  <r_i_glide_ligand_efficiency>  (1131) 
-0.13840899458743

>  <r_i_glide_ligand_efficiency_ln>  (1131) 
-1.0157876438432101

>  <r_i_glide_ligand_efficiency_sa>  (1131) 
-0.44395160120196298

>  <r_i_glide_lipo>  (1131) 
-1.2359236058474801

>  <r_i_glide_metal>  (1131) 
-0

>  <r_i_glide_rewards>  (1131) 
-0.41104326787654499

>  <r_lp_Energy>  (1131) 
23.304001

>  <r_lp_tautomer_probability>  (1131) 
1

>  <r_qp_ACxDN^.5/SA>  (1131) 
0.0122103

>  <r_qp_CIQPlogS>  (1131) 
-5.2030000000000003

>  <r_qp_EA(eV)>  (1131) 
0.66900000000000004

>  <r_qp_FISA>  (1131) 
66.754000000000005

>  <r_qp_FOSA>  (1131) 
203.233

>  <r_qp_IP(eV)>  (1131) 
8.5839999999999996

>  <r_qp_Jm>  (1131) 
0.032542207025479802

>  <r_qp_PISA>  (1131) 
482.85000000000002

>  <r_qp_PSA>  (1131) 
75.304000000000002

>  <r_qp_PercentHumanOralAbsorption>  (1131) 
100

>  <r_qp_QPPCaco>  (1131) 
389.24900000000002

>  <r_qp_QPPMDCK>  (1131) 
301.00099999999998

>  <r_qp_QPlogBB>  (1131) 
-0.081000000000000003

>  <r_qp_QPlogHERG>  (1131) 
-6.2939999999999996

>  <r_qp_QPlogKhsa>  (1131) 
0.55800000000000005

>  <r_qp_QPlogKp>  (1131) 
-2.5350000000000001

>  <r_qp_QPlogPC16>  (1131) 
15.661

>  <r_qp_QPlogPo/w>  (1131) 
4.2249999999999996

>  <r_qp_QPlogPoct>  (1131) 
23.687000000000001

>  <r_qp_QPlogPw>  (1131) 
14.853999999999999

>  <r_qp_QPlogS>  (1131) 
-4.5960000000000001

>  <r_qp_QPpolrz>  (1131) 
51.054000000000002

>  <r_qp_SASA>  (1131) 
752.83799999999997

>  <r_qp_SAamideO>  (1131) 
21.298999999999999

>  <r_qp_SAfluorine>  (1131) 
0

>  <r_qp_WPSA>  (1131) 
0

>  <r_qp_accptHB>  (1131) 
6.5

>  <r_qp_dip^2/V>  (1131) 
0.0137357

>  <r_qp_dipole>  (1131) 
4.4020000000000001

>  <r_qp_donorHB>  (1131) 
2

>  <r_qp_glob>  (1131) 
0.8079518

>  <r_qp_mol_MW>  (1131) 
440.54700000000003

>  <r_qp_volume>  (1131) 
1410.5309999999999

>  <r_sd_BIOSOLVEIT.INFINISEE\_FTREES\_SIMILARITY>  (1131) 
0.90200000000000002

>  <r_sd_BIOSOLVEIT.LOGP>  (1131) 
2.9430000000000001

>  <r_sd_BIOSOLVEIT.MOLECULAR\_WEIGHT>  (1131) 
441.55599999999998

>  <r_sd_BIOSOLVEIT.TPSA>  (1131) 
76.280000000000001

>  <i_epik_Tot_Q>  (1131) 
1

>  <i_epik_Tot_abs_Q>  (1131) 
1

>  <i_f3d_flags>  (1131) 
0

>  <i_i_glide_confnum>  (1131) 
9

>  <i_i_glide_lignum>  (1131) 
736

>  <i_i_glide_posenum>  (1131) 
18

>  <i_i_glide_rotatable_bonds>  (1131) 
10

>  <i_lp_mmshare_version>  (1131) 
65135

>  <i_m_ct_format>  (1131) 
2

>  <i_m_source_file_index>  (1131) 
1943

>  <i_qp_#NandO>  (1131) 
7

>  <i_qp_#acid>  (1131) 
0

>  <i_qp_#amide>  (1131) 
1

>  <i_qp_#amidine>  (1131) 
0

>  <i_qp_#amine>  (1131) 
1

>  <i_qp_#in34>  (1131) 
0

>  <i_qp_#in56>  (1131) 
23

>  <i_qp_#metab>  (1131) 
6

>  <i_qp_#nonHatm>  (1131) 
33

>  <i_qp_#noncon>  (1131) 
0

>  <i_qp_#ringatoms>  (1131) 
23

>  <i_qp_#rotor>  (1131) 
6

>  <i_qp_#rtvFG>  (1131) 
0

>  <i_qp_#stars>  (1131) 
1

>  <i_qp_CNS>  (1131) 
1

>  <i_qp_HumanOralAbsorption>  (1131) 
3

>  <i_qp_RuleOfFive>  (1131) 
0

>  <i_qp_RuleOfThree>  (1131) 
0

>  <i_sd_BIOSOLVEIT.INFINISEE\_REAGENT1\_NAME>  (1131) 
9142264

>  <i_sd_BIOSOLVEIT.INFINISEE\_REAGENT2\_NAME>  (1131) 
2308808

>  <i_sd_BIOSOLVEIT.INFINISEE\_RESULT\_RANK>  (1131) 
87113

>  <i_sd_version>  (1131) 
0

>  <b_lp_Chiralities_Consistent>  (1131) 
1

>  <b_sd_chiral_flag>  (1131) 
0

>  <canonical_id>  (1131) 
ATP-HTVS-B4E8E29A2CD9

>  <compound_code>  (1131) 
62147

>  <title>  (1131) 
m_2430dbb____9142264____2308808

>  <variant>  (1131) 
62147-1

>  <source_file>  (1131) 
运行/运行/ATP-VSW/ATP-VSW-DOCK_HTVS_1-003_lib/ATP-VSW-DOCK_HTVS_1-003_lib.mae

>  <canonical_smiles>  (1131) 
C[NH+](C)CCc1ccccc1NC(=O)NCc1cn(-c2ccccc2)nc1-c1ccncc1

>  <scaffold>  (1131) 
O=C(NCc1cn(-c2ccccc2)nc1-c1ccncc1)Nc1ccccc1

>  <molecular_formula>  (1131) 
C26H29N6O+

$$$$
ATP-HTVS-B4F34B52DEEF
     RDKit          3D

 59 62  0  0  0  0  0  0  0  0999 V2000
  197.0366  181.9710  150.1370 O   0  0  0  0  0  0  0  0  0  0  0  0
  196.7598  181.6864  151.3024 C   0  0  0  0  0  0  0  0  0  0  0  0
  196.7415  182.5745  152.3147 N   0  0  0  0  0  0  0  0  0  0  0  0
  197.3699  183.8560  152.3757 C   0  0  0  0  0  0  0  0  0  0  0  0
  197.7920  184.3946  153.6145 C   0  0  0  0  0  0  0  0  0  0  0  0
  197.5947  183.6136  154.8222 C   0  0  0  0  0  0  0  0  0  0  0  0
  197.3848  182.8917  155.7803 C   0  0  0  0  0  0  0  0  0  0  0  0
  197.2213  182.1588  157.0671 C   0  0  1  0  0  0  0  0  0  0  0  0
  195.7509  181.7995  157.1237 N   0  0  1  0  0  0  0  0  0  0  0  0
  195.1372  181.8447  158.4845 C   0  0  1  0  0  0  0  0  0  0  0  0
  195.2980  183.1895  159.2069 C   0  0  0  0  0  0  0  0  0  0  0  0
  196.5678  183.6343  159.6584 C   0  0  0  0  0  0  0  0  0  0  0  0
  196.7427  184.9262  160.1231 C   0  0  0  0  0  0  0  0  0  0  0  0
  195.6198  185.7383  160.4400 C   0  0  0  0  0  0  0  0  0  0  0  0
  194.3400  185.2512  160.1283 C   0  0  0  0  0  0  0  0  0  0  0  0
  194.1790  184.0308  159.4618 C   0  0  0  0  0  0  0  0  0  0  0  0
  193.6604  181.4168  158.3570 C   0  0  2  0  0  0  0  0  0  0  0  0
  198.3998  185.6724  153.6667 C   0  0  0  0  0  0  0  0  0  0  0  0
  198.5538  186.3753  152.4434 C   0  0  0  0  0  0  0  0  0  0  0  0
  198.1482  185.8658  151.2631 N   0  0  0  0  0  0  0  0  0  0  0  0
  197.5786  184.6485  151.2326 C   0  0  0  0  0  0  0  0  0  0  0  0
  199.1498  187.6505  152.4653 C   0  0  0  0  0  0  0  0  0  0  0  0
  199.5883  188.2368  153.6644 C   0  0  0  0  0  0  0  0  0  0  0  0
  199.4363  187.5403  154.8734 C   0  0  0  0  0  0  0  0  0  0  0  0
  198.8465  186.2642  154.8780 C   0  0  0  0  0  0  0  0  0  0  0  0
  196.3793  180.2414  151.6735 C   0  0  1  0  0  0  0  0  0  0  0  0
  196.3396  179.4320  150.5154 O   0  0  0  0  0  0  0  0  0  0  0  0
  197.3492  179.7173  152.7256 C   0  0  0  0  0  0  0  0  0  0  0  0
  198.5712  179.1242  152.3391 C   0  0  0  0  0  0  0  0  0  0  0  0
  199.4704  178.6416  153.3100 C   0  0  0  0  0  0  0  0  0  0  0  0
  199.1541  178.7514  154.6771 C   0  0  0  0  0  0  0  0  0  0  0  0
  197.9444  179.3498  155.0698 C   0  0  0  0  0  0  0  0  0  0  0  0
  197.0481  179.8492  154.1002 C   0  0  0  0  0  0  0  0  0  0  0  0
  195.2142  182.4694  156.5295 H   0  0  0  0  0  0  0  0  0  0  0  0
  196.4012  182.2215  153.1975 H   0  0  0  0  0  0  0  0  0  0  0  0
  197.8712  181.2412  157.1325 H   0  0  0  0  0  0  0  0  0  0  0  0
  197.5959  182.8960  157.7253 H   0  0  0  0  0  0  0  0  0  0  0  0
  195.6404  181.0839  159.0917 H   0  0  0  0  0  0  0  0  0  0  0  0
  197.4493  183.0234  159.5632 H   0  0  0  0  0  0  0  0  0  0  0  0
  197.7391  185.2639  160.3989 H   0  0  0  0  0  0  0  0  0  0  0  0
  195.7635  186.6860  160.9345 H   0  0  0  0  0  0  0  0  0  0  0  0
  193.4746  185.8500  160.3543 H   0  0  0  0  0  0  0  0  0  0  0  0
  193.1680  183.7205  159.2206 H   0  0  0  0  0  0  0  0  0  0  0  0
  193.1722  181.3830  159.3257 H   0  0  0  0  0  0  0  0  0  0  0  0
  193.5505  180.4228  157.9159 H   0  0  0  0  0  0  0  0  0  0  0  0
  193.0845  182.1063  157.7369 H   0  0  0  0  0  0  0  0  0  0  0  0
  197.2536  184.3341  150.2568 H   0  0  0  0  0  0  0  0  0  0  0  0
  199.2696  188.1918  151.5404 H   0  0  0  0  0  0  0  0  0  0  0  0
  200.0425  189.2172  153.6555 H   0  0  0  0  0  0  0  0  0  0  0  0
  199.7741  187.9850  155.7978 H   0  0  0  0  0  0  0  0  0  0  0  0
  198.7480  185.7612  155.8286 H   0  0  0  0  0  0  0  0  0  0  0  0
  195.3701  180.2388  152.0889 H   0  0  0  0  0  0  0  0  0  0  0  0
  197.2059  179.4334  150.1373 H   0  0  0  0  0  0  0  0  0  0  0  0
  198.8296  179.0348  151.2944 H   0  0  0  0  0  0  0  0  0  0  0  0
  200.3932  178.1723  153.0041 H   0  0  0  0  0  0  0  0  0  0  0  0
  199.8349  178.3658  155.4230 H   0  0  0  0  0  0  0  0  0  0  0  0
  197.6972  179.4016  156.1197 H   0  0  0  0  0  0  0  0  0  0  0  0
  196.1180  180.2887  154.4197 H   0  0  0  0  0  0  0  0  0  0  0  0
  195.6353  180.8672  156.7759 H   0  0  0  0  0  0  0  0  0  0  0  0
  1  2  2  0
  2  3  1  0
  2 26  1  0
  3  4  1  0
  3 35  1  0
  4  5  2  0
  4 21  1  0
  5  6  1  0
  5 18  1  0
  6  7  3  0
  7  8  1  0
  8  9  1  0
  8 36  1  6
  8 37  1  0
  9 10  1  0
  9 34  1  6
  9 59  1  0
 10 11  1  0
 10 17  1  0
 10 38  1  1
 11 12  2  0
 11 16  1  0
 12 13  1  0
 12 39  1  0
 13 14  2  0
 13 40  1  0
 14 15  1  0
 14 41  1  0
 15 16  2  0
 15 42  1  0
 16 43  1  0
 17 44  1  1
 17 45  1  0
 17 46  1  0
 18 19  1  0
 18 25  2  0
 19 20  1  0
 19 22  2  0
 20 21  2  0
 21 47  1  0
 22 23  1  0
 22 48  1  0
 23 24  2  0
 23 49  1  0
 24 25  1  0
 24 50  1  0
 25 51  1  0
 26 27  1  0
 26 28  1  0
 26 52  1  1
 27 53  1  0
 28 29  2  0
 28 33  1  0
 29 30  1  0
 29 54  1  0
 30 31  2  0
 30 55  1  0
 31 32  1  0
 31 56  1  0
 32 33  2  0
 32 57  1  0
 33 58  1  0
M  CHG  1   9   1
M  END
>  <s_epik_cmdline>  (1132) 
J2VwaWtfcHl0aG9uJywgJy1waCcsICc3LjAwMDAwMCcsICctcGh0JywgJzIuMDAwMDAwJywgJy1tcycsICcxNicsICctdG4nLCAnOCcsICctbWEnLCAnMjAwJywgJy1pbWFlJywgJzxpbmZpbGUubWFlPicsICctb21hZScsICc8b3V0ZmlsZS5tYWU+Jw==

>  <s_epik_input>  (1132) 
W2NIXTFbY0hdW2NIXVtjSF1bY0hdYzFbQ0BIXShbT0hdKUMoPU8pW05IXWMoW2NIXW5jKGMyMylbY0hdW2NIXVtjSF1bY0hdMyljMkMjQ1tDSDJdW05IXVtDQEhdKFtDSDNdKWM0W2NIXVtjSF1bY0hdW2NIXVtjSF00

>  <s_i_glide_gridfile>  (1132) 
ATP-Grid

>  <s_lp_Force_Field>  (1132) 
OPLS_2005

>  <s_lp_Variant>  (1132) 
rxn503c____EMOL300009321____EMOL44472687____EMOL1468452-7

>  <s_lp_label>  (1132) 
2417_sdstereoexpander_3_neutralizer_1_epik_2_stereoizer_1

>  <s_m_source_file>  (1132) 
ATP-VSW-LIGPREP-001-in.maegz

>  <s_sd_BIOSOLVEIT.INFINISEE\_QUERY\_NAME>  (1132) 
Ref-Lig

>  <s_sd_BIOSOLVEIT.INFINISEE\_QUERY\_SMILES>  (1132) 
S(c1nc2c(cc1C[NH2+]Cc3ccc(cc3)C[NH+](C)C)cccc2)Cc4ccccc4

>  <s_sd_BIOSOLVEIT.INFINISEE\_REACTION\_NAME>  (1132) 
rxn503c

>  <s_sd_BIOSOLVEIT.INFINISEE\_REAGENT1\_NAME>  (1132) 
EMOL300009321

>  <s_sd_BIOSOLVEIT.INFINISEE\_REAGENT1\_SMILES>  (1132) 
O=C(O)C(O)c1ccccc1

>  <s_sd_BIOSOLVEIT.INFINISEE\_REAGENT2\_NAME>  (1132) 
EMOL44472687

>  <s_sd_BIOSOLVEIT.INFINISEE\_REAGENT2\_SMILES>  (1132) 
Clc1c(N)cnc2c1cccc2

>  <s_sd_BIOSOLVEIT.INFINISEE\_REAGENT3\_NAME>  (1132) 
EMOL1468452

>  <s_sd_BIOSOLVEIT.INFINISEE\_REAGENT3\_SMILES>  (1132) 
N(C(c1ccccc1)C)CC#C

>  <s_sd_BIOSOLVEIT.INFINISEE\_SPACE>  (1132) 
eXplore_7tr_2022-12

>  <s_vsw_compound_code>  (1132) 
77313

>  <s_vsw_variant>  (1132) 
77313-7

>  <r_epik_Charging_Adjusted_Penalty>  (1132) 
1.1372904760564899

>  <r_epik_Ionization_Penalty>  (1132) 
0.56899999999999995

>  <r_epik_Ionization_Penalty_Charging>  (1132) 
0.56859999999999999

>  <r_epik_Ionization_Penalty_Neutral>  (1132) 
0.00040000000000000002

>  <r_epik_State_Penalty>  (1132) 
0.56859999999999999

>  <r_i_docking_score>  (1132) 
-5.18852571458463

>  <r_i_glide_ecoul>  (1132) 
-11.631151199340801

>  <r_i_glide_eff_state_penalty>  (1132) 
0.56859999999999999

>  <r_i_glide_einternal>  (1132) 
11.390724182128899

>  <r_i_glide_emodel>  (1132) 
-73.557069740378694

>  <r_i_glide_energy>  (1132) 
-52.407117843627901

>  <r_i_glide_erotb>  (1132) 
0.73225972538924

>  <r_i_glide_esite>  (1132) 
-0.13967710044748299

>  <r_i_glide_evdw>  (1132) 
-40.775966644287102

>  <r_i_glide_gscore>  (1132) 
-5.75712571458463

>  <r_i_glide_hbond>  (1132) 
-0.309050888571752

>  <r_i_glide_ligand_efficiency>  (1132) 
-0.15722805195711001

>  <r_i_glide_ligand_efficiency_ln>  (1132) 
-1.15390125417524

>  <r_i_glide_ligand_efficiency_sa>  (1132) 
-0.50431437370301802

>  <r_i_glide_lipo>  (1132) 
-1.5097754625278801

>  <r_i_glide_metal>  (1132) 
-0

>  <r_i_glide_rewards>  (1132) 
-0.74741097631127895

>  <r_lp_Energy>  (1132) 
29.885947000000002

>  <r_qp_ACxDN^.5/SA>  (1132) 
0.015342400000000001

>  <r_qp_CIQPlogS>  (1132) 
-5.5199999999999996

>  <r_qp_EA(eV)>  (1132) 
1.21

>  <r_qp_FISA>  (1132) 
98.638999999999996

>  <r_qp_FOSA>  (1132) 
111.09399999999999

>  <r_qp_IP(eV)>  (1132) 
8.6829999999999998

>  <r_qp_Jm>  (1132) 
0.0219840816828447

>  <r_qp_PISA>  (1132) 
546.64999999999998

>  <r_qp_PSA>  (1132) 
77.811999999999998

>  <r_qp_PercentHumanOralAbsorption>  (1132) 
96.686999999999998

>  <r_qp_QPPCaco>  (1132) 
286.68799999999999

>  <r_qp_QPPMDCK>  (1132) 
141.82499999999999

>  <r_qp_QPlogBB>  (1132) 
-0.60399999999999998

>  <r_qp_QPlogHERG>  (1132) 
-8.0779999999999994

>  <r_qp_QPlogKhsa>  (1132) 
0.629

>  <r_qp_QPlogKp>  (1132) 
-2.6099999999999999

>  <r_qp_QPlogPC16>  (1132) 
16.521999999999998

>  <r_qp_QPlogPo/w>  (1132) 
4.399

>  <r_qp_QPlogPoct>  (1132) 
25.120000000000001

>  <r_qp_QPlogPw>  (1132) 
14.936999999999999

>  <r_qp_QPlogS>  (1132) 
-4.6870000000000003

>  <r_qp_QPpolrz>  (1132) 
49.451000000000001

>  <r_qp_SASA>  (1132) 
756.38300000000004

>  <r_qp_SAamideO>  (1132) 
0

>  <r_qp_SAfluorine>  (1132) 
0

>  <r_qp_WPSA>  (1132) 
0

>  <r_qp_accptHB>  (1132) 
6.7000000000000002

>  <r_qp_dip^2/V>  (1132) 
0.035853500000000003

>  <r_qp_dipole>  (1132) 
7.093

>  <r_qp_donorHB>  (1132) 
3

>  <r_qp_glob>  (1132) 
0.80144539999999997

>  <r_qp_mol_MW>  (1132) 
435.524

>  <r_qp_volume>  (1132) 
1403.3820000000001

>  <r_sd_BIOSOLVEIT.INFINISEE\_FTREES\_SIMILARITY>  (1132) 
0.91700000000000004

>  <r_sd_BIOSOLVEIT.LOGP>  (1132) 
3.5830000000000002

>  <r_sd_BIOSOLVEIT.MOLECULAR\_WEIGHT>  (1132) 
436.53199999999998

>  <r_sd_BIOSOLVEIT.TPSA>  (1132) 
78.829999999999998

>  <i_epik_Tot_Q>  (1132) 
1

>  <i_epik_Tot_abs_Q>  (1132) 
1

>  <i_f3d_flags>  (1132) 
0

>  <i_i_glide_confnum>  (1132) 
1

>  <i_i_glide_lignum>  (1132) 
926

>  <i_i_glide_posenum>  (1132) 
2

>  <i_i_glide_rotatable_bonds>  (1132) 
10

>  <i_lp_mmshare_version>  (1132) 
65135

>  <i_m_ct_format>  (1132) 
2

>  <i_m_source_file_index>  (1132) 
2417

>  <i_qp_#NandO>  (1132) 
5

>  <i_qp_#acid>  (1132) 
0

>  <i_qp_#amide>  (1132) 
0

>  <i_qp_#amidine>  (1132) 
0

>  <i_qp_#amine>  (1132) 
1

>  <i_qp_#in34>  (1132) 
0

>  <i_qp_#in56>  (1132) 
22

>  <i_qp_#metab>  (1132) 
7

>  <i_qp_#nonHatm>  (1132) 
33

>  <i_qp_#noncon>  (1132) 
0

>  <i_qp_#ringatoms>  (1132) 
22

>  <i_qp_#rotor>  (1132) 
9

>  <i_qp_#rtvFG>  (1132) 
0

>  <i_qp_#stars>  (1132) 
1

>  <i_qp_CNS>  (1132) 
0

>  <i_qp_HumanOralAbsorption>  (1132) 
3

>  <i_qp_RuleOfFive>  (1132) 
0

>  <i_qp_RuleOfThree>  (1132) 
1

>  <i_sd_BIOSOLVEIT.INFINISEE\_RESULT\_RANK>  (1132) 
22155

>  <i_sd_version>  (1132) 
0

>  <b_lp_Chiralities_Consistent>  (1132) 
1

>  <b_sd_chiral_flag>  (1132) 
0

>  <canonical_id>  (1132) 
ATP-HTVS-B4F34B52DEEF

>  <compound_code>  (1132) 
77313

>  <title>  (1132) 
rxn503c____EMOL300009321____EMOL44472687____EMOL1468452

>  <variant>  (1132) 
77313-7

>  <source_file>  (1132) 
运行/运行/ATP-VSW/ATP-VSW-DOCK_HTVS_1-001_lib/ATP-VSW-DOCK_HTVS_1-001_lib

>  <canonical_smiles>  (1132) 
C[C@@H]([NH2+]CC#Cc1c(NC(=O)[C@@H](O)c2ccccc2)cnc2ccccc12)c1ccccc1

>  <scaffold>  (1132) 
O=C(Cc1ccccc1)Nc1cnc2ccccc2c1C#CC[NH2+]Cc1ccccc1

>  <molecular_formula>  (1132) 
C28H26N3O2+

$$$$
ATP-HTVS-B4FC20780B21
     RDKit          3D

 56 58  0  0  0  0  0  0  0  0999 V2000
  197.1359  185.4292  149.3305 Br  0  0  0  0  0  0  0  0  0  0  0  0
  197.6522  183.6382  149.7325 C   0  0  0  0  0  0  0  0  0  0  0  0
  197.4155  183.0995  151.0108 C   0  0  0  0  0  0  0  0  0  0  0  0
  197.8041  181.7746  151.3176 C   0  0  0  0  0  0  0  0  0  0  0  0
  198.4358  180.9778  150.3237 C   0  0  0  0  0  0  0  0  0  0  0  0
  198.8256  179.6954  150.6569 O   0  0  0  0  0  0  0  0  0  0  0  0
  199.4474  178.8859  149.6704 C   0  0  2  0  0  0  0  0  0  0  0  0
  198.6573  181.5324  149.0362 C   0  0  0  0  0  0  0  0  0  0  0  0
  198.2726  182.8539  148.7470 C   0  0  0  0  0  0  0  0  0  0  0  0
  197.5508  181.2759  152.6744 C   0  0  0  0  0  0  0  0  0  0  0  0
  197.0275  179.6212  152.9804 S   0  0  0  0  0  0  0  0  0  0  0  0
  196.9460  179.9799  154.6828 C   0  0  0  0  0  0  0  0  0  0  0  0
  197.2635  181.2832  154.9435 C   0  0  0  0  0  0  0  0  0  0  0  0
  197.6161  182.0071  153.7967 N   0  0  0  0  0  0  0  0  0  0  0  0
  197.2704  181.9441  156.2864 C   0  0  1  0  0  0  0  0  0  0  0  0
  195.9451  181.8077  156.9228 N   0  0  1  0  0  0  0  0  0  0  0  0
  195.8694  182.1901  158.3629 C   0  0  1  0  0  0  0  0  0  0  0  0
  196.5065  183.5606  158.6444 C   0  0  0  0  0  0  0  0  0  0  0  0
  197.8891  183.6406  158.9665 C   0  0  0  0  0  0  0  0  0  0  0  0
  198.4901  184.9184  159.1395 C   0  0  0  0  0  0  0  0  0  0  0  0
  197.7546  186.0798  158.9173 C   0  0  0  0  0  0  0  0  0  0  0  0
  196.3963  185.9580  158.5262 C   0  0  0  0  0  0  0  0  0  0  0  0
  195.7669  184.7229  158.4695 C   0  0  0  0  0  0  0  0  0  0  0  0
  198.3562  187.4678  159.1641 C   0  0  1  0  0  0  0  0  0  0  0  0
  197.4103  188.4943  159.7241 N   0  0  1  0  0  0  0  0  0  0  0  0
  196.9340  189.3902  158.6362 C   0  0  2  0  0  0  0  0  0  0  0  0
  196.2897  188.0183  160.6135 C   0  0  2  0  0  0  0  0  0  0  0  0
  194.4067  182.1453  158.8411 C   0  0  2  0  0  0  0  0  0  0  0  0
  195.2537  182.3543  156.3995 H   0  0  0  0  0  0  0  0  0  0  0  0
  196.9306  183.7084  151.7598 H   0  0  0  0  0  0  0  0  0  0  0  0
  199.7007  177.9217  150.1126 H   0  0  0  0  0  0  0  0  0  0  0  0
  200.3747  179.3408  149.3175 H   0  0  0  0  0  0  0  0  0  0  0  0
  198.7818  178.6995  148.8246 H   0  0  0  0  0  0  0  0  0  0  0  0
  199.1410  180.9700  148.2531 H   0  0  0  0  0  0  0  0  0  0  0  0
  198.4585  183.2659  147.7666 H   0  0  0  0  0  0  0  0  0  0  0  0
  196.6484  179.2071  155.3845 H   0  0  0  0  0  0  0  0  0  0  0  0
  198.0236  181.4796  156.9276 H   0  0  0  0  0  0  0  0  0  0  0  0
  197.5395  183.0006  156.1834 H   0  0  0  0  0  0  0  0  0  0  0  0
  196.4382  181.4494  158.9363 H   0  0  0  0  0  0  0  0  0  0  0  0
  198.4976  182.7474  159.0375 H   0  0  0  0  0  0  0  0  0  0  0  0
  199.5452  184.9716  159.3951 H   0  0  0  0  0  0  0  0  0  0  0  0
  195.7769  186.8283  158.2721 H   0  0  0  0  0  0  0  0  0  0  0  0
  194.7138  184.7240  158.2690 H   0  0  0  0  0  0  0  0  0  0  0  0
  199.2052  187.3788  159.8452 H   0  0  0  0  0  0  0  0  0  0  0  0
  198.8068  187.7773  158.2239 H   0  0  0  0  0  0  0  0  0  0  0  0
  196.3943  188.8282  157.8708 H   0  0  0  0  0  0  0  0  0  0  0  0
  197.7474  189.9113  158.1245 H   0  0  0  0  0  0  0  0  0  0  0  0
  196.2622  190.1514  159.0343 H   0  0  0  0  0  0  0  0  0  0  0  0
  195.5592  187.4252  160.1901 H   0  0  0  0  0  0  0  0  0  0  0  0
  195.7678  188.8919  161.0703 H   0  0  0  0  0  0  0  0  0  0  0  0
  196.7470  187.3858  161.4035 H   0  0  0  0  0  0  0  0  0  0  0  0
  194.3568  182.4206  159.8898 H   0  0  0  0  0  0  0  0  0  0  0  0
  193.9806  181.1525  158.7174 H   0  0  0  0  0  0  0  0  0  0  0  0
  193.7554  182.8370  158.3035 H   0  0  0  0  0  0  0  0  0  0  0  0
  198.0233  189.1077  160.2911 H   0  0  0  0  0  0  0  0  0  0  0  0
  195.6789  180.8508  156.9091 H   0  0  0  0  0  0  0  0  0  0  0  0
  1  2  1  0
  2  3  2  0
  2  9  1  0
  3  4  1  0
  3 30  1  0
  4  5  2  0
  4 10  1  0
  5  6  1  0
  5  8  1  0
  6  7  1  0
  7 31  1  1
  7 32  1  0
  7 33  1  0
  8  9  2  0
  8 34  1  0
  9 35  1  0
 10 11  1  0
 10 14  2  0
 11 12  1  0
 12 13  2  0
 12 36  1  0
 13 14  1  0
 13 15  1  0
 15 16  1  0
 15 37  1  1
 15 38  1  0
 16 17  1  0
 16 29  1  6
 16 56  1  0
 17 18  1  0
 17 28  1  0
 17 39  1  1
 18 19  1  0
 18 23  2  0
 19 20  2  0
 19 40  1  0
 20 21  1  0
 20 41  1  0
 21 22  2  0
 21 24  1  0
 22 23  1  0
 22 42  1  0
 23 43  1  0
 24 25  1  0
 24 44  1  1
 24 45  1  0
 25 26  1  0
 25 27  1  0
 25 55  1  1
 26 46  1  6
 26 47  1  0
 26 48  1  0
 27 49  1  6
 27 50  1  0
 27 51  1  0
 28 52  1  1
 28 53  1  0
 28 54  1  0
M  CHG  2  16   1  25   1
M  END
>  <s_epik_cmdline>  (1133) 
J2VwaWtfcHl0aG9uJywgJy1waCcsICc3LjAwMDAwMCcsICctcGh0JywgJzIuMDAwMDAwJywgJy1tcycsICcxNicsICctdG4nLCAnOCcsICctbWEnLCAnMjAwJywgJy1pbWFlJywgJzxpbmZpbGUubWFlPicsICctb21hZScsICc8b3V0ZmlsZS5tYWU+Jw==

>  <s_epik_input>  (1133) 
QnJjMVtjSF1jKGMoT1tDSDNdKVtjSF1bY0hdMSktYzJzW2NIXWMobjIpW0NIMl1bTkhdW0NASF0oW0NIM10pYzNbY0hdW2NIXWMoW2NIXVtjSF0zKVtDSDJdTihbQ0gzXSlbQ0gzXQ==

>  <s_i_glide_gridfile>  (1133) 
ATP-Grid

>  <s_lp_Force_Field>  (1133) 
OPLS_2005

>  <s_lp_Variant>  (1133) 
m_2230bbb____22404674____681770-1

>  <s_lp_label>  (1133) 
1164_sdstereoexpander_1_neutralizer_1_epik_1_stereoizer_1

>  <s_m_source_file>  (1133) 
ATP-VSW-LIGPREP-003-in.maegz

>  <s_sd_BIOSOLVEIT.INFINISEE\_QUERY\_NAME>  (1133) 
Ref-Lig

>  <s_sd_BIOSOLVEIT.INFINISEE\_QUERY\_SMILES>  (1133) 
S(c1nc2c(cc1C[NH2+]Cc3ccc(cc3)C[NH+](C)C)cccc2)Cc4ccccc4

>  <s_sd_BIOSOLVEIT.INFINISEE\_REACTION\_NAME>  (1133) 
m_2230bbb

>  <s_sd_BIOSOLVEIT.INFINISEE\_REAGENT1\_SMILES>  (1133) 
[R1*]NC(c1ccc(cc1)CN(C)C)C

>  <s_sd_BIOSOLVEIT.INFINISEE\_REAGENT2\_SMILES>  (1133) 
[R1*]CC=1N=C(SC1)c2c(OC)ccc(Br)c2

>  <s_sd_BIOSOLVEIT.INFINISEE\_SPACE>  (1133) 
REALSpace_44bn_2023-08

>  <s_vsw_compound_code>  (1133) 
37219

>  <s_vsw_variant>  (1133) 
37219-1

>  <r_epik_Charging_Adjusted_Penalty>  (1133) 
0.42171508261021601

>  <r_epik_Ionization_Penalty>  (1133) 
0.21110000000000001

>  <r_epik_Ionization_Penalty_Charging>  (1133) 
0.21110000000000001

>  <r_epik_Ionization_Penalty_Neutral>  (1133) 
0

>  <r_epik_State_Penalty>  (1133) 
0.21060000000000001

>  <r_i_docking_score>  (1133) 
-5.33877522679831

>  <r_i_glide_ecoul>  (1133) 
-13.4540462493896

>  <r_i_glide_eff_state_penalty>  (1133) 
0.21060000000000001

>  <r_i_glide_einternal>  (1133) 
8.37139892578125

>  <r_i_glide_emodel>  (1133) 
-67.478102096749694

>  <r_i_glide_energy>  (1133) 
-44.894069671630902

>  <r_i_glide_erotb>  (1133) 
0.56516256456561098

>  <r_i_glide_esite>  (1133) 
-0.10000000000000001

>  <r_i_glide_evdw>  (1133) 
-31.4400234222412

>  <r_i_glide_gscore>  (1133) 
-5.5493752267983103

>  <r_i_glide_hbond>  (1133) 
-0.396005759162528

>  <r_i_glide_ligand_efficiency>  (1133) 
-0.19067054381422499

>  <r_i_glide_ligand_efficiency_ln>  (1133) 
-1.2323460755970601

>  <r_i_glide_ligand_efficiency_sa>  (1133) 
-0.57898806996470997

>  <r_i_glide_lipo>  (1133) 
-1.5473822418627099

>  <r_i_glide_metal>  (1133) 
-0

>  <r_i_glide_rewards>  (1133) 
-0.48104168181818202

>  <r_lp_Energy>  (1133) 
16.017122000000001

>  <r_lp_tautomer_probability>  (1133) 
1

>  <r_qp_ACxDN^.5/SA>  (1133) 
0.0089803000000000001

>  <r_qp_CIQPlogS>  (1133) 
-5.2069999999999999

>  <r_qp_EA(eV)>  (1133) 
0.84799999999999998

>  <r_qp_FISA>  (1133) 
18.933

>  <r_qp_FOSA>  (1133) 
342.23500000000001

>  <r_qp_IP(eV)>  (1133) 
8.8599999999999994

>  <r_qp_Jm>  (1133) 
0.017761125874424102

>  <r_qp_PISA>  (1133) 
175.352

>  <r_qp_PSA>  (1133) 
31.102

>  <r_qp_PercentHumanOralAbsorption>  (1133) 
100

>  <r_qp_QPPCaco>  (1133) 
407.53199999999998

>  <r_qp_QPPMDCK>  (1133) 
849.58100000000002

>  <r_qp_QPlogBB>  (1133) 
1.0289999999999999

>  <r_qp_QPlogHERG>  (1133) 
-5.8090000000000002

>  <r_qp_QPlogKhsa>  (1133) 
0.62

>  <r_qp_QPlogKp>  (1133) 
-4.7039999999999997

>  <r_qp_QPlogPC16>  (1133) 
12.189

>  <r_qp_QPlogPo/w>  (1133) 
4.173

>  <r_qp_QPlogPoct>  (1133) 
18.218

>  <r_qp_QPlogPw>  (1133) 
8.202

>  <r_qp_QPlogS>  (1133) 
-2.71

>  <r_qp_QPpolrz>  (1133) 
41.106000000000002

>  <r_qp_SASA>  (1133) 
640.29200000000003

>  <r_qp_SAamideO>  (1133) 
0

>  <r_qp_SAfluorine>  (1133) 
0

>  <r_qp_WPSA>  (1133) 
103.77200000000001

>  <r_qp_accptHB>  (1133) 
5.75

>  <r_qp_dip^2/V>  (1133) 
0.0072478000000000004

>  <r_qp_dipole>  (1133) 
3.012

>  <r_qp_donorHB>  (1133) 
1

>  <r_qp_glob>  (1133) 
0.87708759999999997

>  <r_qp_mol_MW>  (1133) 
460.43099999999998

>  <r_qp_volume>  (1133) 
1251.366

>  <r_sd_BIOSOLVEIT.INFINISEE\_FTREES\_SIMILARITY>  (1133) 
0.91200000000000003

>  <r_sd_BIOSOLVEIT.LOGP>  (1133) 
3.0503

>  <r_sd_BIOSOLVEIT.MOLECULAR\_WEIGHT>  (1133) 
462.452

>  <r_sd_BIOSOLVEIT.TPSA>  (1133) 
43.170000000000002

>  <i_epik_Tot_Q>  (1133) 
2

>  <i_epik_Tot_abs_Q>  (1133) 
2

>  <i_f3d_flags>  (1133) 
0

>  <i_i_glide_confnum>  (1133) 
3

>  <i_i_glide_lignum>  (1133) 
453

>  <i_i_glide_posenum>  (1133) 
14

>  <i_i_glide_rotatable_bonds>  (1133) 
8

>  <i_lp_mmshare_version>  (1133) 
65135

>  <i_m_ct_format>  (1133) 
2

>  <i_m_source_file_index>  (1133) 
1164

>  <i_qp_#NandO>  (1133) 
4

>  <i_qp_#acid>  (1133) 
0

>  <i_qp_#amide>  (1133) 
0

>  <i_qp_#amidine>  (1133) 
0

>  <i_qp_#amine>  (1133) 
2

>  <i_qp_#in34>  (1133) 
0

>  <i_qp_#in56>  (1133) 
17

>  <i_qp_#metab>  (1133) 
7

>  <i_qp_#nonHatm>  (1133) 
28

>  <i_qp_#noncon>  (1133) 
0

>  <i_qp_#ringatoms>  (1133) 
17

>  <i_qp_#rotor>  (1133) 
7

>  <i_qp_#rtvFG>  (1133) 
0

>  <i_qp_#stars>  (1133) 
0

>  <i_qp_CNS>  (1133) 
2

>  <i_qp_HumanOralAbsorption>  (1133) 
3

>  <i_qp_RuleOfFive>  (1133) 
0

>  <i_qp_RuleOfThree>  (1133) 
1

>  <i_sd_BIOSOLVEIT.INFINISEE\_REAGENT1\_NAME>  (1133) 
22404674

>  <i_sd_BIOSOLVEIT.INFINISEE\_REAGENT2\_NAME>  (1133) 
681770

>  <i_sd_BIOSOLVEIT.INFINISEE\_RESULT\_RANK>  (1133) 
37811

>  <i_sd_version>  (1133) 
0

>  <b_lp_Chiralities_Consistent>  (1133) 
1

>  <b_sd_chiral_flag>  (1133) 
0

>  <canonical_id>  (1133) 
ATP-HTVS-B4FC20780B21

>  <compound_code>  (1133) 
37219

>  <title>  (1133) 
m_2230bbb____22404674____681770

>  <variant>  (1133) 
37219-1

>  <source_file>  (1133) 
运行/运行/ATP-VSW/ATP-VSW-DOCK_HTVS_1-003_lib/ATP-VSW-DOCK_HTVS_1-003_lib.mae

>  <canonical_smiles>  (1133) 
COc1ccc(Br)cc1-c1nc(C[NH2+][C@H](C)c2ccc(C[NH+](C)C)cc2)cs1

>  <scaffold>  (1133) 
c1ccc(C[NH2+]Cc2csc(-c3ccccc3)n2)cc1

>  <molecular_formula>  (1133) 
C22H28BrN3OS+2

$$$$
ATP-HTVS-B51F80196405
     RDKit          3D

 52 55  0  0  0  0  0  0  0  0999 V2000
  199.0357  187.8607  155.4056 Br  0  0  0  0  0  0  0  0  0  0  0  0
  198.5505  186.2639  154.5061 C   0  0  0  0  0  0  0  0  0  0  0  0
  198.3710  185.0824  155.2597 C   0  0  0  0  0  0  0  0  0  0  0  0
  198.0043  183.8646  154.6451 C   0  0  0  0  0  0  0  0  0  0  0  0
  197.7993  183.8546  153.2305 C   0  0  0  0  0  0  0  0  0  0  0  0
  197.4183  182.6814  152.5363 N   0  0  0  0  0  0  0  0  0  0  0  0
  197.9146  181.4524  152.7576 C   0  0  0  0  0  0  0  0  0  0  0  0
  197.4855  180.4626  152.1954 O   0  0  0  0  0  0  0  0  0  0  0  0
  199.0916  181.3281  153.7630 C   0  0  1  0  0  0  0  0  0  0  0  0
  198.7390  181.4928  155.2132 N   0  0  0  0  0  0  0  0  0  0  0  0
  197.7649  182.5804  155.4699 C   0  0  1  0  0  0  0  0  0  0  0  0
  197.6853  182.9040  156.9654 C   0  0  0  0  0  0  0  0  0  0  0  0
  196.4269  183.0660  157.6026 C   0  0  0  0  0  0  0  0  0  0  0  0
  196.3727  183.4094  158.9688 C   0  0  0  0  0  0  0  0  0  0  0  0
  197.5661  183.5955  159.6989 C   0  0  0  0  0  0  0  0  0  0  0  0
  198.8151  183.4369  159.0702 C   0  0  0  0  0  0  0  0  0  0  0  0
  198.8607  183.0768  157.7047 C   0  0  0  0  0  0  0  0  0  0  0  0
  198.2527  180.2569  155.8647 C   0  0  1  0  0  0  0  0  0  0  0  0
  199.1917  179.0636  155.7291 C   0  0  0  0  0  0  0  0  0  0  0  0
  199.1456  178.3137  154.5569 C   0  0  0  0  0  0  0  0  0  0  0  0
  200.0152  177.1907  154.3870 C   0  0  0  0  0  0  0  0  0  0  0  0
  200.9053  176.8345  155.4064 C   0  0  0  0  0  0  0  0  0  0  0  0
  200.9489  177.6091  156.5979 C   0  0  0  0  0  0  0  0  0  0  0  0
  200.0968  178.7159  156.7566 C   0  0  0  0  0  0  0  0  0  0  0  0
  201.8181  175.6627  155.1925 C   0  0  0  0  0  0  0  0  0  0  0  0
  202.0282  175.2098  154.0585 O   0  0  0  0  0  0  0  0  0  0  0  0
  202.3361  175.1215  156.2998 N   0  0  0  0  0  0  0  0  0  0  0  0
  203.2219  173.9781  156.3074 C   0  0  2  0  0  0  0  0  0  0  0  0
  197.9709  185.0386  152.4876 C   0  0  0  0  0  0  0  0  0  0  0  0
  198.3475  186.2367  153.1198 C   0  0  0  0  0  0  0  0  0  0  0  0
  198.5186  185.1996  156.3227 H   0  0  0  0  0  0  0  0  0  0  0  0
  196.7983  182.7836  151.7425 H   0  0  0  0  0  0  0  0  0  0  0  0
  199.6366  180.3893  153.5737 H   0  0  0  0  0  0  0  0  0  0  0  0
  199.8136  182.1209  153.5156 H   0  0  0  0  0  0  0  0  0  0  0  0
  196.7796  182.2246  155.1764 H   0  0  0  0  0  0  0  0  0  0  0  0
  195.5123  182.9473  157.0381 H   0  0  0  0  0  0  0  0  0  0  0  0
  195.4137  183.5373  159.4543 H   0  0  0  0  0  0  0  0  0  0  0  0
  197.5263  183.8474  160.7438 H   0  0  0  0  0  0  0  0  0  0  0  0
  199.7393  183.5839  159.6114 H   0  0  0  0  0  0  0  0  0  0  0  0
  199.8199  182.9633  157.2187 H   0  0  0  0  0  0  0  0  0  0  0  0
  198.1520  180.4272  156.9396 H   0  0  0  0  0  0  0  0  0  0  0  0
  197.2525  179.9678  155.5313 H   0  0  0  0  0  0  0  0  0  0  0  0
  198.4243  178.5182  153.8006 H   0  0  0  0  0  0  0  0  0  0  0  0
  199.9604  176.6457  153.4625 H   0  0  0  0  0  0  0  0  0  0  0  0
  201.6451  177.3828  157.3964 H   0  0  0  0  0  0  0  0  0  0  0  0
  200.1387  179.3018  157.6678 H   0  0  0  0  0  0  0  0  0  0  0  0
  202.1073  175.5643  157.1756 H   0  0  0  0  0  0  0  0  0  0  0  0
  203.5638  173.7991  157.3281 H   0  0  0  0  0  0  0  0  0  0  0  0
  204.0956  174.1612  155.6813 H   0  0  0  0  0  0  0  0  0  0  0  0
  202.7118  173.0846  155.9461 H   0  0  0  0  0  0  0  0  0  0  0  0
  197.8227  185.0355  151.4143 H   0  0  0  0  0  0  0  0  0  0  0  0
  198.4748  187.1533  152.5536 H   0  0  0  0  0  0  0  0  0  0  0  0
  1  2  1  0
  2  3  2  0
  2 30  1  0
  3  4  1  0
  3 31  1  0
  4  5  2  0
  4 11  1  0
  5  6  1  0
  5 29  1  0
  6  7  1  0
  6 32  1  0
  7  8  2  0
  7  9  1  0
  9 10  1  0
  9 33  1  1
  9 34  1  0
 10 11  1  0
 10 18  1  0
 11 12  1  0
 11 35  1  6
 12 13  2  0
 12 17  1  0
 13 14  1  0
 13 36  1  0
 14 15  2  0
 14 37  1  0
 15 16  1  0
 15 38  1  0
 16 17  2  0
 16 39  1  0
 17 40  1  0
 18 19  1  0
 18 41  1  1
 18 42  1  0
 19 20  1  0
 19 24  2  0
 20 21  2  0
 20 43  1  0
 21 22  1  0
 21 44  1  0
 22 23  2  0
 22 25  1  0
 23 24  1  0
 23 45  1  0
 24 46  1  0
 25 26  2  0
 25 27  1  0
 27 28  1  0
 27 47  1  0
 28 48  1  1
 28 49  1  0
 28 50  1  0
 29 30  2  0
 29 51  1  0
 30 52  1  0
M  END
>  <s_epik_cmdline>  (1134) 
J2VwaWtfcHl0aG9uJywgJy1waCcsICc3LjAwMDAwMCcsICctcGh0JywgJzIuMDAwMDAwJywgJy1tcycsICcxNicsICctdG4nLCAnOCcsICctbWEnLCAnMjAwJywgJy1pbWFlJywgJzxpbmZpbGUubWFlPicsICctb21hZScsICc8b3V0ZmlsZS5tYWU+Jw==

>  <s_epik_input>  (1134) 
QnJjKFtjSF0xKVtjSF1bY0hdYyhjMTIpW05IXUMoPU8pW0NIMl1OKFtDQEhdMmMzW2NIXVtjSF1bY0hdW2NIXVtjSF0zKVtDSDJdYzRbY0hdW2NIXWMoW2NIXVtjSF00KUMoPU8pW05IXVtDSDNd

>  <s_i_glide_gridfile>  (1134) 
ATP-Grid

>  <s_lp_Force_Field>  (1134) 
OPLS_2005

>  <s_lp_Variant>  (1134) 
m_2230bdc____17626620____4433608-2

>  <s_lp_label>  (1134) 
1756_sdstereoexpander_3_neutralizer_1_epik_1_stereoizer_1

>  <s_m_source_file>  (1134) 
ATP-VSW-LIGPREP-003-in.maegz

>  <s_sd_BIOSOLVEIT.INFINISEE\_QUERY\_NAME>  (1134) 
Ref-Lig

>  <s_sd_BIOSOLVEIT.INFINISEE\_QUERY\_SMILES>  (1134) 
S(c1nc2c(cc1C[NH2+]Cc3ccc(cc3)C[NH+](C)C)cccc2)Cc4ccccc4

>  <s_sd_BIOSOLVEIT.INFINISEE\_REACTION\_NAME>  (1134) 
m_2230bdc

>  <s_sd_BIOSOLVEIT.INFINISEE\_REAGENT1\_SMILES>  (1134) 
[R1*]N1C(c2c(NC(=O)C1)ccc(Br)c2)c3ccccc3

>  <s_sd_BIOSOLVEIT.INFINISEE\_REAGENT2\_SMILES>  (1134) 
[R1*]Cc1ccc(cc1)C(=O)NC

>  <s_sd_BIOSOLVEIT.INFINISEE\_SPACE>  (1134) 
REALSpace_44bn_2023-08

>  <s_vsw_compound_code>  (1134) 
56163

>  <s_vsw_variant>  (1134) 
56163-2

>  <r_epik_Charging_Adjusted_Penalty>  (1134) 
0.0073316794013014502

>  <r_epik_Ionization_Penalty>  (1134) 
0.0073000000000000001

>  <r_epik_Ionization_Penalty_Charging>  (1134) 
0

>  <r_epik_Ionization_Penalty_Neutral>  (1134) 
0.0073000000000000001

>  <r_epik_State_Penalty>  (1134) 
0.0073000000000000001

>  <r_i_docking_score>  (1134) 
-0.684467516068333

>  <r_i_glide_ecoul>  (1134) 
-0.55927157402038596

>  <r_i_glide_eff_state_penalty>  (1134) 
0.0073000000000000001

>  <r_i_glide_einternal>  (1134) 
2.5982761383056601

>  <r_i_glide_emodel>  (1134) 
-35.405393050327703

>  <r_i_glide_energy>  (1134) 
-35.060320615768397

>  <r_i_glide_erotb>  (1134) 
0.37395955071778397

>  <r_i_glide_esite>  (1134) 
-0.016898361348856701

>  <r_i_glide_evdw>  (1134) 
-34.501049041747997

>  <r_i_glide_gscore>  (1134) 
-0.69176751606833298

>  <r_i_glide_hbond>  (1134) 
0

>  <r_i_glide_ligand_efficiency>  (1134) 
-0.022815583868944399

>  <r_i_glide_ligand_efficiency_ln>  (1134) 
-0.155518477521641

>  <r_i_glide_ligand_efficiency_sa>  (1134) 
-0.070893323759526505

>  <r_i_glide_lipo>  (1134) 
-0.89819944933221396

>  <r_i_glide_metal>  (1134) 
-0

>  <r_i_glide_rewards>  (1134) 
1.6583139320854099

>  <r_lp_Energy>  (1134) 
55.648212000000001

>  <r_qp_ACxDN^.5/SA>  (1134) 
0.013883

>  <r_qp_CIQPlogS>  (1134) 
-5.7000000000000002

>  <r_qp_EA(eV)>  (1134) 
0.47199999999999998

>  <r_qp_FISA>  (1134) 
124.867

>  <r_qp_FOSA>  (1134) 
138.81299999999999

>  <r_qp_IP(eV)>  (1134) 
9.6270000000000007

>  <r_qp_Jm>  (1134) 
0.00012709774376851

>  <r_qp_PISA>  (1134) 
372.10000000000002

>  <r_qp_PSA>  (1134) 
81.811999999999998

>  <r_qp_PercentHumanOralAbsorption>  (1134) 
87.924999999999997

>  <r_qp_QPPCaco>  (1134) 
161.69200000000001

>  <r_qp_QPPMDCK>  (1134) 
202.43899999999999

>  <r_qp_QPlogBB>  (1134) 
-0.317

>  <r_qp_QPlogHERG>  (1134) 
-7.2030000000000003

>  <r_qp_QPlogKhsa>  (1134) 
0.59799999999999998

>  <r_qp_QPlogKp>  (1134) 
-4.2850000000000001

>  <r_qp_QPlogPC16>  (1134) 
14.746

>  <r_qp_QPlogPo/w>  (1134) 
3.6629999999999998

>  <r_qp_QPlogPoct>  (1134) 
23.881

>  <r_qp_QPlogPw>  (1134) 
14.005000000000001

>  <r_qp_QPlogS>  (1134) 
-5.2779999999999996

>  <r_qp_QPpolrz>  (1134) 
47.134

>  <r_qp_SASA>  (1134) 
713.06700000000001

>  <r_qp_SAamideO>  (1134) 
0

>  <r_qp_SAfluorine>  (1134) 
0

>  <r_qp_WPSA>  (1134) 
77.287000000000006

>  <r_qp_accptHB>  (1134) 
7

>  <r_qp_dip^2/V>  (1134) 
0.069456199999999996

>  <r_qp_dipole>  (1134) 
9.4689999999999994

>  <r_qp_donorHB>  (1134) 
2

>  <r_qp_glob>  (1134) 
0.80406049999999996

>  <r_qp_mol_MW>  (1134) 
464.36099999999999

>  <r_qp_volume>  (1134) 
1290.864

>  <r_sd_BIOSOLVEIT.INFINISEE\_FTREES\_SIMILARITY>  (1134) 
0.90400000000000003

>  <r_sd_BIOSOLVEIT.LOGP>  (1134) 
2.9352999999999998

>  <r_sd_BIOSOLVEIT.MOLECULAR\_WEIGHT>  (1134) 
465.36900000000003

>  <r_sd_BIOSOLVEIT.TPSA>  (1134) 
62.640000000000001

>  <i_epik_Tot_Q>  (1134) 
0

>  <i_epik_Tot_abs_Q>  (1134) 
0

>  <i_f3d_flags>  (1134) 
0

>  <i_i_glide_confnum>  (1134) 
2

>  <i_i_glide_lignum>  (1134) 
653

>  <i_i_glide_posenum>  (1134) 
5

>  <i_i_glide_rotatable_bonds>  (1134) 
5

>  <i_lp_mmshare_version>  (1134) 
65135

>  <i_m_ct_format>  (1134) 
2

>  <i_m_source_file_index>  (1134) 
1756

>  <i_qp_#NandO>  (1134) 
5

>  <i_qp_#acid>  (1134) 
0

>  <i_qp_#amide>  (1134) 
0

>  <i_qp_#amidine>  (1134) 
0

>  <i_qp_#amine>  (1134) 
1

>  <i_qp_#in34>  (1134) 
0

>  <i_qp_#in56>  (1134) 
18

>  <i_qp_#metab>  (1134) 
6

>  <i_qp_#nonHatm>  (1134) 
30

>  <i_qp_#noncon>  (1134) 
2

>  <i_qp_#ringatoms>  (1134) 
23

>  <i_qp_#rotor>  (1134) 
3

>  <i_qp_#rtvFG>  (1134) 
0

>  <i_qp_#stars>  (1134) 
0

>  <i_qp_CNS>  (1134) 
1

>  <i_qp_HumanOralAbsorption>  (1134) 
3

>  <i_qp_RuleOfFive>  (1134) 
0

>  <i_qp_RuleOfThree>  (1134) 
0

>  <i_sd_BIOSOLVEIT.INFINISEE\_REAGENT1\_NAME>  (1134) 
17626620

>  <i_sd_BIOSOLVEIT.INFINISEE\_REAGENT2\_NAME>  (1134) 
4433608

>  <i_sd_BIOSOLVEIT.INFINISEE\_RESULT\_RANK>  (1134) 
75014

>  <i_sd_version>  (1134) 
0

>  <b_lp_Chiralities_Consistent>  (1134) 
1

>  <b_sd_chiral_flag>  (1134) 
0

>  <canonical_id>  (1134) 
ATP-HTVS-B51F80196405

>  <compound_code>  (1134) 
56163

>  <title>  (1134) 
m_2230bdc____17626620____4433608

>  <variant>  (1134) 
56163-2

>  <source_file>  (1134) 
运行/运行/ATP-VSW/ATP-VSW-DOCK_HTVS_1-003_lib/ATP-VSW-DOCK_HTVS_1-003_lib.mae

>  <canonical_smiles>  (1134) 
CNC(=O)c1ccc(CN2CC(=O)Nc3ccc(Br)cc3[C@@H]2c2ccccc2)cc1

>  <scaffold>  (1134) 
O=C1CN(Cc2ccccc2)C(c2ccccc2)c2ccccc2N1

>  <molecular_formula>  (1134) 
C24H22BrN3O2

$$$$
ATP-HTVS-B56D8AC3A406
     RDKit          3D

 54 56  0  0  0  0  0  0  0  0999 V2000
  197.1150  179.2502  152.6694 F   0  0  0  0  0  0  0  0  0  0  0  0
  197.2920  180.5899  152.5282 C   0  0  0  0  0  0  0  0  0  0  0  0
  197.1386  181.4600  153.6296 C   0  0  0  0  0  0  0  0  0  0  0  0
  196.7957  180.9144  154.8838 N   0  0  0  0  0  0  0  0  0  0  0  0
  197.6635  181.1564  156.0367 C   0  0  1  0  0  0  0  0  0  0  0  0
  199.1006  180.6975  155.8689 C   0  0  0  0  0  0  0  0  0  0  0  0
  199.4857  179.4631  156.4137 C   0  0  0  0  0  0  0  0  0  0  0  0
  200.8156  179.0050  156.2919 C   0  0  0  0  0  0  0  0  0  0  0  0
  201.7655  179.7977  155.6126 C   0  0  0  0  0  0  0  0  0  0  0  0
  201.3809  181.0343  155.0535 C   0  0  0  0  0  0  0  0  0  0  0  0
  200.0532  181.4877  155.1843 C   0  0  0  0  0  0  0  0  0  0  0  0
  201.1949  177.6501  156.8671 C   0  0  1  0  0  0  0  0  0  0  0  0
  201.7212  176.7176  155.8365 N   0  0  1  0  0  0  0  0  0  0  0  0
  202.0498  175.3936  156.4086 C   0  0  2  0  0  0  0  0  0  0  0  0
  200.8705  176.5982  154.6243 C   0  0  2  0  0  0  0  0  0  0  0  0
  197.3411  182.8521  153.4162 C   0  0  0  0  0  0  0  0  0  0  0  0
  197.1523  183.7384  154.5048 N   0  0  0  0  0  0  0  0  0  0  0  0
  197.6077  184.9895  154.6809 C   0  0  0  0  0  0  0  0  0  0  0  0
  198.2652  185.6427  153.8753 O   0  0  0  0  0  0  0  0  0  0  0  0
  197.2925  185.5217  155.9859 C   0  0  0  0  0  0  0  0  0  0  0  0
  197.0124  185.9533  157.0940 C   0  0  0  0  0  0  0  0  0  0  0  0
  196.6528  186.4820  158.4012 C   0  0  0  0  0  0  0  0  0  0  0  0
  197.2506  187.6709  158.8711 C   0  0  0  0  0  0  0  0  0  0  0  0
  196.8992  188.1878  160.1330 C   0  0  0  0  0  0  0  0  0  0  0  0
  195.9448  187.5187  160.9259 C   0  0  0  0  0  0  0  0  0  0  0  0
  195.3500  186.3303  160.4618 C   0  0  0  0  0  0  0  0  0  0  0  0
  195.7047  185.8106  159.2011 C   0  0  0  0  0  0  0  0  0  0  0  0
  197.6769  183.2879  152.1106 C   0  0  0  0  0  0  0  0  0  0  0  0
  197.8449  182.4519  151.0628 N   0  0  0  0  0  0  0  0  0  0  0  0
  197.6574  181.1320  151.2790 C   0  0  0  0  0  0  0  0  0  0  0  0
  196.4419  179.9641  154.8511 H   0  0  0  0  0  0  0  0  0  0  0  0
  197.6913  182.2031  156.3180 H   0  0  0  0  0  0  0  0  0  0  0  0
  197.2179  180.6519  156.9003 H   0  0  0  0  0  0  0  0  0  0  0  0
  198.7485  178.8703  156.9306 H   0  0  0  0  0  0  0  0  0  0  0  0
  202.7832  179.4554  155.5020 H   0  0  0  0  0  0  0  0  0  0  0  0
  202.1053  181.6321  154.5153 H   0  0  0  0  0  0  0  0  0  0  0  0
  199.7740  182.4429  154.7639 H   0  0  0  0  0  0  0  0  0  0  0  0
  201.9428  177.8076  157.6473 H   0  0  0  0  0  0  0  0  0  0  0  0
  200.3196  177.2066  157.3519 H   0  0  0  0  0  0  0  0  0  0  0  0
  201.1480  174.8981  156.7649 H   0  0  0  0  0  0  0  0  0  0  0  0
  202.7449  175.4836  157.2444 H   0  0  0  0  0  0  0  0  0  0  0  0
  202.5175  174.7540  155.6632 H   0  0  0  0  0  0  0  0  0  0  0  0
  199.8756  176.2330  154.8812 H   0  0  0  0  0  0  0  0  0  0  0  0
  201.3179  175.9094  153.9067 H   0  0  0  0  0  0  0  0  0  0  0  0
  200.7540  177.5490  154.1069 H   0  0  0  0  0  0  0  0  0  0  0  0
  196.6374  183.3332  155.2732 H   0  0  0  0  0  0  0  0  0  0  0  0
  197.9829  188.1919  158.2673 H   0  0  0  0  0  0  0  0  0  0  0  0
  197.3649  189.0921  160.4982 H   0  0  0  0  0  0  0  0  0  0  0  0
  195.6762  187.9202  161.8896 H   0  0  0  0  0  0  0  0  0  0  0  0
  194.6177  185.8193  161.0696 H   0  0  0  0  0  0  0  0  0  0  0  0
  195.2392  184.9027  158.8465 H   0  0  0  0  0  0  0  0  0  0  0  0
  197.8187  184.3285  151.8714 H   0  0  0  0  0  0  0  0  0  0  0  0
  197.7946  180.4935  150.4146 H   0  0  0  0  0  0  0  0  0  0  0  0
  202.5971  177.1268  155.5415 H   0  0  0  0  0  0  0  0  0  0  0  0
  1  2  1  0
  2  3  2  0
  2 30  1  0
  3  4  1  0
  3 16  1  0
  4  5  1  0
  4 31  1  0
  5  6  1  0
  5 32  1  1
  5 33  1  0
  6  7  2  0
  6 11  1  0
  7  8  1  0
  7 34  1  0
  8  9  2  0
  8 12  1  0
  9 10  1  0
  9 35  1  0
 10 11  2  0
 10 36  1  0
 11 37  1  0
 12 13  1  0
 12 38  1  1
 12 39  1  0
 13 14  1  0
 13 15  1  0
 13 54  1  6
 14 40  1  1
 14 41  1  0
 14 42  1  0
 15 43  1  1
 15 44  1  0
 15 45  1  0
 16 17  1  0
 16 28  2  0
 17 18  1  0
 17 46  1  0
 18 19  2  0
 18 20  1  0
 20 21  3  0
 21 22  1  0
 22 23  2  0
 22 27  1  0
 23 24  1  0
 23 47  1  0
 24 25  2  0
 24 48  1  0
 25 26  1  0
 25 49  1  0
 26 27  2  0
 26 50  1  0
 27 51  1  0
 28 29  1  0
 28 52  1  0
 29 30  2  0
 30 53  1  0
M  CHG  1  13   1
M  END
>  <s_epik_cmdline>  (1135) 
J2VwaWtfcHl0aG9uJywgJy1waCcsICc3LjAwMDAwMCcsICctcGh0JywgJzIuMDAwMDAwJywgJy1tcycsICcxNicsICctdG4nLCAnOCcsICctbWEnLCAnMjAwJywgJy1pbWFlJywgJzxpbmZpbGUubWFlPicsICctb21hZScsICc8b3V0ZmlsZS5tYWU+Jw==

>  <s_epik_input>  (1135) 
W2NIXTFbY0hdW2NIXWMoW0NIMl1OKFtDSDNdKVtDSDNdKVtjSF1jMVtDSDJdW05IXWMoYzJGKWMoW2NIXW5bY0hdMilbTkhdQyg9TylDI0NjM1tjSF1bY0hdW2NIXVtjSF1bY0hdMw==

>  <s_i_glide_gridfile>  (1135) 
ATP-Grid

>  <s_lp_Force_Field>  (1135) 
OPLS_2005

>  <s_lp_Variant>  (1135) 
rxn502a____EMOL530803____EMOL50277192____EMOL2873214-1

>  <s_lp_label>  (1135) 
2821_sdstereoexpander_1_neutralizer_1_epik_1_stereoizer_1

>  <s_m_source_file>  (1135) 
ATP-VSW-LIGPREP-001-in.maegz

>  <s_sd_BIOSOLVEIT.INFINISEE\_QUERY\_NAME>  (1135) 
Ref-Lig

>  <s_sd_BIOSOLVEIT.INFINISEE\_QUERY\_SMILES>  (1135) 
S(c1nc2c(cc1C[NH2+]Cc3ccc(cc3)C[NH+](C)C)cccc2)Cc4ccccc4

>  <s_sd_BIOSOLVEIT.INFINISEE\_REACTION\_NAME>  (1135) 
rxn502a

>  <s_sd_BIOSOLVEIT.INFINISEE\_REAGENT1\_NAME>  (1135) 
EMOL530803

>  <s_sd_BIOSOLVEIT.INFINISEE\_REAGENT1\_SMILES>  (1135) 
O=C(O)C#Cc1ccccc1

>  <s_sd_BIOSOLVEIT.INFINISEE\_REAGENT2\_NAME>  (1135) 
EMOL50277192

>  <s_sd_BIOSOLVEIT.INFINISEE\_REAGENT2\_SMILES>  (1135) 
Ic1c(F)cncc1N

>  <s_sd_BIOSOLVEIT.INFINISEE\_REAGENT3\_NAME>  (1135) 
EMOL2873214

>  <s_sd_BIOSOLVEIT.INFINISEE\_REAGENT3\_SMILES>  (1135) 
N(Cc1cc(ccc1)CN)(C)C

>  <s_sd_BIOSOLVEIT.INFINISEE\_SPACE>  (1135) 
eXplore_7tr_2022-12

>  <s_vsw_compound_code>  (1135) 
90241

>  <s_vsw_variant>  (1135) 
90241-1

>  <r_epik_Charging_Adjusted_Penalty>  (1135) 
0.21236000206293501

>  <r_epik_Ionization_Penalty>  (1135) 
0.16830000000000001

>  <r_epik_Ionization_Penalty_Charging>  (1135) 
0.0441

>  <r_epik_Ionization_Penalty_Neutral>  (1135) 
0.1242

>  <r_epik_State_Penalty>  (1135) 
0.16830000000000001

>  <r_i_docking_score>  (1135) 
-4.7216748883365698

>  <r_i_glide_ecoul>  (1135) 
-6.4188609123229998

>  <r_i_glide_eff_state_penalty>  (1135) 
0.16830000000000001

>  <r_i_glide_einternal>  (1135) 
3.73246097564697

>  <r_i_glide_emodel>  (1135) 
-53.200455615959797

>  <r_i_glide_energy>  (1135) 
-39.159205913543701

>  <r_i_glide_erotb>  (1135) 
0.84425855915255898

>  <r_i_glide_esite>  (1135) 
-0.073375240933284999

>  <r_i_glide_evdw>  (1135) 
-32.740345001220703

>  <r_i_glide_gscore>  (1135) 
-4.8899748883365701

>  <r_i_glide_hbond>  (1135) 
0

>  <r_i_glide_ligand_efficiency>  (1135) 
-0.15738916294455199

>  <r_i_glide_ligand_efficiency_ln>  (1135) 
-1.0728159813985401

>  <r_i_glide_ligand_efficiency_sa>  (1135) 
-0.48904472263173498

>  <r_i_glide_lipo>  (1135) 
-1.9133552569615899

>  <r_i_glide_metal>  (1135) 
-0

>  <r_i_glide_rewards>  (1135) 
-1.1476565626847599

>  <r_lp_Energy>  (1135) 
22.332471999999999

>  <r_lp_tautomer_probability>  (1135) 
0.999999106000799

>  <r_qp_ACxDN^.5/SA>  (1135) 
0.0128932

>  <r_qp_CIQPlogS>  (1135) 
-4.5949999999999998

>  <r_qp_EA(eV)>  (1135) 
0.84099999999999997

>  <r_qp_FISA>  (1135) 
103.494

>  <r_qp_FOSA>  (1135) 
219.74100000000001

>  <r_qp_IP(eV)>  (1135) 
8.9469999999999992

>  <r_qp_Jm>  (1135) 
0.0015100532601400899

>  <r_qp_PISA>  (1135) 
418.58800000000002

>  <r_qp_PSA>  (1135) 
70.228999999999999

>  <r_qp_PercentHumanOralAbsorption>  (1135) 
93.441000000000003

>  <r_qp_QPPCaco>  (1135) 
257.85000000000002

>  <r_qp_QPPMDCK>  (1135) 
175.518

>  <r_qp_QPlogBB>  (1135) 
-0.627

>  <r_qp_QPlogHERG>  (1135) 
-8.0109999999999992

>  <r_qp_QPlogKhsa>  (1135) 
0.503

>  <r_qp_QPlogKp>  (1135) 
-3.2469999999999999

>  <r_qp_QPlogPC16>  (1135) 
14.874000000000001

>  <r_qp_QPlogPo/w>  (1135) 
3.9860000000000002

>  <r_qp_QPlogPoct>  (1135) 
22.870000000000001

>  <r_qp_QPlogPw>  (1135) 
13.186999999999999

>  <r_qp_QPlogS>  (1135) 
-5.1790000000000003

>  <r_qp_QPpolrz>  (1135) 
46.573999999999998

>  <r_qp_SASA>  (1135) 
767.80600000000004

>  <r_qp_SAamideO>  (1135) 
0

>  <r_qp_SAfluorine>  (1135) 
25.983000000000001

>  <r_qp_WPSA>  (1135) 
25.983000000000001

>  <r_qp_accptHB>  (1135) 
7

>  <r_qp_dip^2/V>  (1135) 
0.0541757

>  <r_qp_dipole>  (1135) 
8.5389999999999997

>  <r_qp_donorHB>  (1135) 
2

>  <r_qp_glob>  (1135) 
0.76785939999999997

>  <r_qp_mol_MW>  (1135) 
402.47000000000003

>  <r_qp_volume>  (1135) 
1346.0219999999999

>  <r_sd_BIOSOLVEIT.INFINISEE\_FTREES\_SIMILARITY>  (1135) 
0.90600000000000003

>  <r_sd_BIOSOLVEIT.LOGP>  (1135) 
2.4674999999999998

>  <r_sd_BIOSOLVEIT.MOLECULAR\_WEIGHT>  (1135) 
403.47899999999998

>  <r_sd_BIOSOLVEIT.TPSA>  (1135) 
58.460000000000001

>  <i_epik_Tot_Q>  (1135) 
1

>  <i_epik_Tot_abs_Q>  (1135) 
1

>  <i_f3d_flags>  (1135) 
0

>  <i_i_glide_confnum>  (1135) 
5

>  <i_i_glide_lignum>  (1135) 
1288

>  <i_i_glide_posenum>  (1135) 
3

>  <i_i_glide_rotatable_bonds>  (1135) 
9

>  <i_lp_mmshare_version>  (1135) 
65135

>  <i_m_ct_format>  (1135) 
2

>  <i_m_source_file_index>  (1135) 
2821

>  <i_qp_#NandO>  (1135) 
5

>  <i_qp_#acid>  (1135) 
0

>  <i_qp_#amide>  (1135) 
0

>  <i_qp_#amidine>  (1135) 
0

>  <i_qp_#amine>  (1135) 
1

>  <i_qp_#in34>  (1135) 
0

>  <i_qp_#in56>  (1135) 
18

>  <i_qp_#metab>  (1135) 
8

>  <i_qp_#nonHatm>  (1135) 
30

>  <i_qp_#noncon>  (1135) 
0

>  <i_qp_#ringatoms>  (1135) 
18

>  <i_qp_#rotor>  (1135) 
8

>  <i_qp_#rtvFG>  (1135) 
0

>  <i_qp_#stars>  (1135) 
0

>  <i_qp_CNS>  (1135) 
1

>  <i_qp_HumanOralAbsorption>  (1135) 
3

>  <i_qp_RuleOfFive>  (1135) 
0

>  <i_qp_RuleOfThree>  (1135) 
1

>  <i_sd_BIOSOLVEIT.INFINISEE\_RESULT\_RANK>  (1135) 
65684

>  <i_sd_version>  (1135) 
0

>  <b_lp_Chiralities_Consistent>  (1135) 
1

>  <b_sd_chiral_flag>  (1135) 
0

>  <canonical_id>  (1135) 
ATP-HTVS-B56D8AC3A406

>  <compound_code>  (1135) 
90241

>  <title>  (1135) 
rxn502a____EMOL530803____EMOL50277192____EMOL2873214

>  <variant>  (1135) 
90241-1

>  <source_file>  (1135) 
运行/运行/ATP-VSW/ATP-VSW-DOCK_HTVS_1-001_lib/ATP-VSW-DOCK_HTVS_1-001_lib

>  <canonical_smiles>  (1135) 
C[NH+](C)Cc1cccc(CNc2c(F)cncc2NC(=O)C#Cc2ccccc2)c1

>  <scaffold>  (1135) 
O=C(C#Cc1ccccc1)Nc1cnccc1NCc1ccccc1

>  <molecular_formula>  (1135) 
C24H24FN4O+

$$$$
ATP-HTVS-B586963EE7FB
     RDKit          3D

 64 67  0  0  0  0  0  0  0  0999 V2000
  198.3829  185.3226  158.6159 N   0  0  0  0  0  0  0  0  0  0  0  0
  197.4637  186.1944  159.0325 C   0  0  0  0  0  0  0  0  0  0  0  0
  196.1740  185.8723  159.1844 N   0  0  0  0  0  0  0  0  0  0  0  0
  195.7645  184.6138  158.9239 C   0  0  0  0  0  0  0  0  0  0  0  0
  196.6940  183.6352  158.4910 C   0  0  0  0  0  0  0  0  0  0  0  0
  198.0324  184.0535  158.3437 C   0  0  0  0  0  0  0  0  0  0  0  0
  199.0360  183.1745  157.9024 N   0  0  0  0  0  0  0  0  0  0  0  0
  200.4430  183.5423  157.9722 C   0  0  1  0  0  0  0  0  0  0  0  0
  201.3832  182.4869  157.4195 C   0  0  0  0  0  0  0  0  0  0  0  0
  201.1106  181.8759  156.1770 C   0  0  0  0  0  0  0  0  0  0  0  0
  201.9827  180.8960  155.6667 C   0  0  0  0  0  0  0  0  0  0  0  0
  201.7239  180.2994  154.4346 N   0  0  0  0  0  0  0  0  0  0  0  0
  203.1283  180.5287  156.3958 C   0  0  0  0  0  0  0  0  0  0  0  0
  203.4122  181.1406  157.6327 C   0  0  0  0  0  0  0  0  0  0  0  0
  202.5410  182.1251  158.1408 C   0  0  0  0  0  0  0  0  0  0  0  0
  204.6482  180.7307  158.4079 C   0  0  2  0  0  0  0  0  0  0  0  0
  196.2550  182.3230  158.2265 C   0  0  0  0  0  0  0  0  0  0  0  0
  194.8938  182.0095  158.3775 C   0  0  0  0  0  0  0  0  0  0  0  0
  193.9687  182.9863  158.7866 C   0  0  0  0  0  0  0  0  0  0  0  0
  194.4053  184.2880  159.0873 C   0  0  0  0  0  0  0  0  0  0  0  0
  197.8557  187.4757  159.3351 N   0  0  0  0  0  0  0  0  0  0  0  0
  199.2451  187.9272  159.3301 C   0  0  1  0  0  0  0  0  0  0  0  0
  199.5553  188.9312  158.2189 C   0  0  0  0  0  0  0  0  0  0  0  0
  200.1569  190.1971  158.4725 C   0  0  0  0  0  0  0  0  0  0  0  0
  200.4241  191.0654  157.3892 C   0  0  0  0  0  0  0  0  0  0  0  0
  200.0999  190.7027  156.0700 C   0  0  0  0  0  0  0  0  0  0  0  0
  199.5029  189.4571  155.8182 C   0  0  0  0  0  0  0  0  0  0  0  0
  199.2356  188.5790  156.8851 C   0  0  0  0  0  0  0  0  0  0  0  0
  200.4875  190.6810  159.8833 C   0  0  1  0  0  0  0  0  0  0  0  0
  199.3734  191.4404  160.5200 N   0  0  2  0  0  0  0  0  0  0  0  0
  198.0042  190.9084  160.2978 C   0  0  2  0  0  0  0  0  0  0  0  0
  199.4355  192.8936  160.2413 C   0  0  2  0  0  0  0  0  0  0  0  0
  198.8090  182.2109  157.7237 H   0  0  0  0  0  0  0  0  0  0  0  0
  200.6068  184.4714  157.4192 H   0  0  0  0  0  0  0  0  0  0  0  0
  200.7002  183.7576  159.0116 H   0  0  0  0  0  0  0  0  0  0  0  0
  200.2316  182.1599  155.6150 H   0  0  0  0  0  0  0  0  0  0  0  0
  202.3765  179.6449  154.0255 H   0  0  0  0  0  0  0  0  0  0  0  0
  200.9651  180.6124  153.8454 H   0  0  0  0  0  0  0  0  0  0  0  0
  203.7950  179.7707  156.0119 H   0  0  0  0  0  0  0  0  0  0  0  0
  202.7611  182.5974  159.0877 H   0  0  0  0  0  0  0  0  0  0  0  0
  204.9800  181.5261  159.0756 H   0  0  0  0  0  0  0  0  0  0  0  0
  205.4723  180.4884  157.7350 H   0  0  0  0  0  0  0  0  0  0  0  0
  204.4275  179.8458  159.0032 H   0  0  0  0  0  0  0  0  0  0  0  0
  196.9240  181.5446  157.8901 H   0  0  0  0  0  0  0  0  0  0  0  0
  194.5405  181.0158  158.1453 H   0  0  0  0  0  0  0  0  0  0  0  0
  192.9220  182.7317  158.8600 H   0  0  0  0  0  0  0  0  0  0  0  0
  193.6801  185.0278  159.3913 H   0  0  0  0  0  0  0  0  0  0  0  0
  197.1687  188.0542  159.7954 H   0  0  0  0  0  0  0  0  0  0  0  0
  199.4341  188.3238  160.3275 H   0  0  0  0  0  0  0  0  0  0  0  0
  199.9495  187.0942  159.2200 H   0  0  0  0  0  0  0  0  0  0  0  0
  200.8754  192.0338  157.5682 H   0  0  0  0  0  0  0  0  0  0  0  0
  200.2894  191.3913  155.2582 H   0  0  0  0  0  0  0  0  0  0  0  0
  199.2383  189.1807  154.8058 H   0  0  0  0  0  0  0  0  0  0  0  0
  198.7708  187.6291  156.6641 H   0  0  0  0  0  0  0  0  0  0  0  0
  200.7843  189.8508  160.5231 H   0  0  0  0  0  0  0  0  0  0  0  0
  201.3864  191.3043  159.8473 H   0  0  0  0  0  0  0  0  0  0  0  0
  197.7255  190.9374  159.2439 H   0  0  0  0  0  0  0  0  0  0  0  0
  197.2583  191.4880  160.8379 H   0  0  0  0  0  0  0  0  0  0  0  0
  197.9235  189.8892  160.6638 H   0  0  0  0  0  0  0  0  0  0  0  0
  199.2962  193.0868  159.1761 H   0  0  0  0  0  0  0  0  0  0  0  0
  200.3920  193.3239  160.5445 H   0  0  0  0  0  0  0  0  0  0  0  0
  198.6479  193.4297  160.7764 H   0  0  0  0  0  0  0  0  0  0  0  0
  195.4736  186.5528  159.4772 H   0  0  0  0  0  0  0  0  0  0  0  0
  199.5478  191.2901  161.5056 H   0  0  0  0  0  0  0  0  0  0  0  0
  1  2  1  0
  1  6  2  0
  2  3  2  0
  2 21  1  0
  3  4  1  0
  3 63  1  0
  4  5  1  0
  4 20  2  0
  5  6  1  0
  5 17  2  0
  6  7  1  0
  7  8  1  0
  7 33  1  0
  8  9  1  0
  8 34  1  6
  8 35  1  0
  9 10  2  0
  9 15  1  0
 10 11  1  0
 10 36  1  0
 11 12  1  0
 11 13  2  0
 12 37  1  0
 12 38  1  0
 13 14  1  0
 13 39  1  0
 14 15  2  0
 14 16  1  0
 15 40  1  0
 16 41  1  1
 16 42  1  0
 16 43  1  0
 17 18  1  0
 17 44  1  0
 18 19  2  0
 18 45  1  0
 19 20  1  0
 19 46  1  0
 20 47  1  0
 21 22  1  0
 21 48  1  0
 22 23  1  0
 22 49  1  1
 22 50  1  0
 23 24  1  0
 23 28  2  0
 24 25  2  0
 24 29  1  0
 25 26  1  0
 25 51  1  0
 26 27  2  0
 26 52  1  0
 27 28  1  0
 27 53  1  0
 28 54  1  0
 29 30  1  0
 29 55  1  1
 29 56  1  0
 30 31  1  0
 30 32  1  0
 30 64  1  1
 31 57  1  6
 31 58  1  0
 31 59  1  0
 32 60  1  6
 32 61  1  0
 32 62  1  0
M  CHG  2   3   1  30   1
M  END
>  <s_epik_cmdline>  (1136) 
J2VwaWtfcHl0aG9uJywgJy1waCcsICc3LjAwMDAwMCcsICctcGh0JywgJzIuMDAwMDAwJywgJy1tcycsICcxNicsICctdG4nLCAnOCcsICctbWEnLCAnMjAwJywgJy1pbWFlJywgJzxpbmZpbGUubWFlPicsICctb21hZScsICc8b3V0ZmlsZS5tYWU+Jw==

>  <s_epik_input>  (1136) 
W2NIXTFbY0hdW2NIXVtjSF1jKFtDSDJdTihbQ0gzXSlbQ0gzXSljMVtDSDJdW05IXWMobjIpbmMoYyhjMjMpW2NIXVtjSF1bY0hdW2NIXTMpW05IXVtDSDJdYzRbY0hdYyhbTkgyXSlbY0hdYyhbY0hdNClbQ0gzXQ==

>  <s_i_glide_gridfile>  (1136) 
ATP-Grid

>  <s_lp_Force_Field>  (1136) 
OPLS_2005

>  <s_lp_Variant>  (1136) 
m_282030aaa____21905082____22360182____21973156-1

>  <s_lp_label>  (1136) 
1923_sdstereoexpander_1_neutralizer_1_epik_1_stereoizer_1

>  <s_m_source_file>  (1136) 
ATP-VSW-LIGPREP-002-in.maegz

>  <s_sd_BIOSOLVEIT.INFINISEE\_QUERY\_NAME>  (1136) 
Ref-Lig

>  <s_sd_BIOSOLVEIT.INFINISEE\_QUERY\_SMILES>  (1136) 
S(c1nc2c(cc1C[NH2+]Cc3ccc(cc3)C[NH+](C)C)cccc2)Cc4ccccc4

>  <s_sd_BIOSOLVEIT.INFINISEE\_REACTION\_NAME>  (1136) 
m_282030aaa

>  <s_sd_BIOSOLVEIT.INFINISEE\_REAGENT1\_SMILES>  (1136) 
[R1*]NCc1cc(N)cc(c1)C

>  <s_sd_BIOSOLVEIT.INFINISEE\_REAGENT2\_SMILES>  (1136) 
[R2*]c1nc([R1*])c2c(n1)cccc2

>  <s_sd_BIOSOLVEIT.INFINISEE\_REAGENT3\_SMILES>  (1136) 
[R2*]NCc1c(cccc1)CN(C)C

>  <s_sd_BIOSOLVEIT.INFINISEE\_SPACE>  (1136) 
REALSpace_44bn_2023-08

>  <s_vsw_compound_code>  (1136) 
61506

>  <s_vsw_variant>  (1136) 
61506-1

>  <r_epik_Charging_Adjusted_Penalty>  (1136) 
0.11625134840043801

>  <r_epik_Ionization_Penalty>  (1136) 
0.059999999999999998

>  <r_epik_Ionization_Penalty_Charging>  (1136) 
0.055

>  <r_epik_Ionization_Penalty_Neutral>  (1136) 
0.0050000000000000001

>  <r_epik_State_Penalty>  (1136) 
0.061199999999999997

>  <r_i_docking_score>  (1136) 
-2.9815107457566898

>  <r_i_glide_ecoul>  (1136) 
-7.94454145431519

>  <r_i_glide_eff_state_penalty>  (1136) 
0.061199999999999997

>  <r_i_glide_einternal>  (1136) 
4.53936719894409

>  <r_i_glide_emodel>  (1136) 
-40.7638919754841

>  <r_i_glide_energy>  (1136) 
-32.566976070404102

>  <r_i_glide_erotb>  (1136) 
0.75706870877358701

>  <r_i_glide_esite>  (1136) 
-0.074477354376484201

>  <r_i_glide_evdw>  (1136) 
-24.622434616088899

>  <r_i_glide_gscore>  (1136) 
-3.0427107457566902

>  <r_i_glide_hbond>  (1136) 
-0.11018058186919

>  <r_i_glide_ligand_efficiency>  (1136) 
-0.093172210804896696

>  <r_i_glide_ligand_efficiency_ln>  (1136) 
-0.66764152888832495

>  <r_i_glide_ligand_efficiency_sa>  (1136) 
-0.29580333055006602

>  <r_i_glide_lipo>  (1136) 
-0.51638052647491095

>  <r_i_glide_metal>  (1136) 
-0

>  <r_i_glide_rewards>  (1136) 
-0.67593804285797499

>  <r_lp_Energy>  (1136) 
19.806258

>  <r_qp_ACxDN^.5/SA>  (1136) 
0.0157378

>  <r_qp_CIQPlogS>  (1136) 
-5.5439999999999996

>  <r_qp_EA(eV)>  (1136) 
0.53000000000000003

>  <r_qp_FISA>  (1136) 
103.72

>  <r_qp_FOSA>  (1136) 
224.172

>  <r_qp_IP(eV)>  (1136) 
7.9349999999999996

>  <r_qp_Jm>  (1136) 
0.019204860636176501

>  <r_qp_PISA>  (1136) 
385.35700000000003

>  <r_qp_PSA>  (1136) 
72.515000000000001

>  <r_qp_PercentHumanOralAbsorption>  (1136) 
94.275000000000006

>  <r_qp_QPPCaco>  (1136) 
256.58199999999999

>  <r_qp_QPPMDCK>  (1136) 
125.798

>  <r_qp_QPlogBB>  (1136) 
-0.57399999999999995

>  <r_qp_QPlogHERG>  (1136) 
-6.7750000000000004

>  <r_qp_QPlogKhsa>  (1136) 
0.63

>  <r_qp_QPlogKp>  (1136) 
-3.2719999999999998

>  <r_qp_QPlogPC16>  (1136) 
15.1

>  <r_qp_QPlogPo/w>  (1136) 
4.1349999999999998

>  <r_qp_QPlogPoct>  (1136) 
23.966000000000001

>  <r_qp_QPlogPw>  (1136) 
13.813000000000001

>  <r_qp_QPlogS>  (1136) 
-4.0750000000000002

>  <r_qp_QPpolrz>  (1136) 
46.383000000000003

>  <r_qp_SASA>  (1136) 
713.24800000000005

>  <r_qp_SAamideO>  (1136) 
0

>  <r_qp_SAfluorine>  (1136) 
0

>  <r_qp_WPSA>  (1136) 
0

>  <r_qp_accptHB>  (1136) 
6

>  <r_qp_dip^2/V>  (1136) 
0.012186300000000001

>  <r_qp_dipole>  (1136) 
4.0789999999999997

>  <r_qp_donorHB>  (1136) 
3.5

>  <r_qp_glob>  (1136) 
0.83443389999999995

>  <r_qp_mol_MW>  (1136) 
426.56299999999999

>  <r_qp_volume>  (1136) 
1365.2159999999999

>  <r_sd_BIOSOLVEIT.INFINISEE\_FTREES\_SIMILARITY>  (1136) 
0.90300000000000002

>  <r_sd_BIOSOLVEIT.LOGP>  (1136) 
3.3891200000000001

>  <r_sd_BIOSOLVEIT.MOLECULAR\_WEIGHT>  (1136) 
427.57299999999998

>  <r_sd_BIOSOLVEIT.TPSA>  (1136) 
80.299999999999997

>  <i_epik_Tot_Q>  (1136) 
2

>  <i_epik_Tot_abs_Q>  (1136) 
2

>  <i_f3d_flags>  (1136) 
0

>  <i_i_glide_confnum>  (1136) 
2

>  <i_i_glide_lignum>  (1136) 
689

>  <i_i_glide_posenum>  (1136) 
2

>  <i_i_glide_rotatable_bonds>  (1136) 
8

>  <i_lp_mmshare_version>  (1136) 
65135

>  <i_m_ct_format>  (1136) 
2

>  <i_m_source_file_index>  (1136) 
1923

>  <i_qp_#NandO>  (1136) 
6

>  <i_qp_#acid>  (1136) 
0

>  <i_qp_#amide>  (1136) 
0

>  <i_qp_#amidine>  (1136) 
0

>  <i_qp_#amine>  (1136) 
1

>  <i_qp_#in34>  (1136) 
0

>  <i_qp_#in56>  (1136) 
22

>  <i_qp_#metab>  (1136) 
8

>  <i_qp_#nonHatm>  (1136) 
32

>  <i_qp_#noncon>  (1136) 
0

>  <i_qp_#ringatoms>  (1136) 
22

>  <i_qp_#rotor>  (1136) 
9

>  <i_qp_#rtvFG>  (1136) 
0

>  <i_qp_#stars>  (1136) 
0

>  <i_qp_CNS>  (1136) 
0

>  <i_qp_HumanOralAbsorption>  (1136) 
3

>  <i_qp_RuleOfFive>  (1136) 
0

>  <i_qp_RuleOfThree>  (1136) 
1

>  <i_sd_BIOSOLVEIT.INFINISEE\_REAGENT1\_NAME>  (1136) 
21905082

>  <i_sd_BIOSOLVEIT.INFINISEE\_REAGENT2\_NAME>  (1136) 
22360182

>  <i_sd_BIOSOLVEIT.INFINISEE\_REAGENT3\_NAME>  (1136) 
21973156

>  <i_sd_BIOSOLVEIT.INFINISEE\_RESULT\_RANK>  (1136) 
85980

>  <i_sd_version>  (1136) 
0

>  <b_lp_Chiralities_Consistent>  (1136) 
1

>  <b_sd_chiral_flag>  (1136) 
0

>  <canonical_id>  (1136) 
ATP-HTVS-B586963EE7FB

>  <compound_code>  (1136) 
61506

>  <title>  (1136) 
m_282030aaa____21905082____22360182____21973156

>  <variant>  (1136) 
61506-1

>  <source_file>  (1136) 
运行/运行/ATP-VSW/ATP-VSW-DOCK_HTVS_1-002_lib.maegz

>  <canonical_smiles>  (1136) 
Cc1cc(N)cc(CNc2nc(NCc3ccccc3C[NH+](C)C)[nH+]c3ccccc23)c1

>  <scaffold>  (1136) 
c1ccc(CNc2nc(NCc3ccccc3)c3ccccc3[nH+]2)cc1

>  <molecular_formula>  (1136) 
C26H32N6+2

$$$$
ATP-HTVS-B5A4F958CC31
     RDKit          3D

 58 61  0  0  0  0  0  0  0  0999 V2000
  200.4921  177.5177  152.8175 S   0  0  0  0  0  0  0  0  0  0  0  0
  201.0398  176.6626  154.2570 C   0  0  0  0  0  0  0  0  0  0  0  0
  200.4104  177.2030  155.4180 C   0  0  0  0  0  0  0  0  0  0  0  0
  200.7455  176.6284  156.6617 C   0  0  0  0  0  0  0  0  0  0  0  0
  201.6530  175.5557  156.7545 C   0  0  0  0  0  0  0  0  0  0  0  0
  202.2677  175.0397  155.6008 C   0  0  0  0  0  0  0  0  0  0  0  0
  201.9593  175.5940  154.3448 C   0  0  0  0  0  0  0  0  0  0  0  0
  199.4976  178.2747  155.1057 C   0  0  0  0  0  0  0  0  0  0  0  0
  199.4399  178.5507  153.7545 C   0  0  0  0  0  0  0  0  0  0  0  0
  198.5993  179.5945  153.0486 C   0  0  1  0  0  0  0  0  0  0  0  0
  197.7904  178.9971  151.9917 N   0  0  0  0  0  0  0  0  0  0  0  0
  197.7428  179.8046  150.7769 C   0  0  1  0  0  0  0  0  0  0  0  0
  197.1568  179.0902  149.5530 C   0  0  0  0  0  0  0  0  0  0  0  0
  196.0613  179.4471  149.1131 O   0  0  0  0  0  0  0  0  0  0  0  0
  197.9711  178.0224  148.9162 C   0  0  0  0  0  0  0  0  0  0  0  0
  198.2826  178.0771  147.5390 C   0  0  0  0  0  0  0  0  0  0  0  0
  199.0467  177.0506  146.9452 C   0  0  0  0  0  0  0  0  0  0  0  0
  199.4697  175.9482  147.7142 C   0  0  0  0  0  0  0  0  0  0  0  0
  199.1269  175.8710  149.0749 C   0  0  0  0  0  0  0  0  0  0  0  0
  198.3776  176.8978  149.6711 C   0  0  0  0  0  0  0  0  0  0  0  0
  197.7364  180.3740  153.9601 C   0  0  0  0  0  0  0  0  0  0  0  0
  197.0365  180.9824  154.7597 C   0  0  0  0  0  0  0  0  0  0  0  0
  196.1662  181.7239  155.6760 C   0  0  1  0  0  0  0  0  0  0  0  0
  196.3988  181.4385  157.0881 N   0  0  0  0  0  0  0  0  0  0  0  0
  195.5919  182.3095  157.9480 C   0  0  2  0  0  0  0  0  0  0  0  0
  196.3725  183.4856  158.5242 C   0  0  0  0  0  0  0  0  0  0  0  0
  195.6982  184.6751  158.8694 C   0  0  0  0  0  0  0  0  0  0  0  0
  196.4060  185.7566  159.4312 C   0  0  0  0  0  0  0  0  0  0  0  0
  197.7922  185.6525  159.6540 C   0  0  0  0  0  0  0  0  0  0  0  0
  198.4691  184.4652  159.3237 C   0  0  0  0  0  0  0  0  0  0  0  0
  197.7617  183.3877  158.7602 C   0  0  0  0  0  0  0  0  0  0  0  0
  194.9827  181.4532  159.0711 C   0  0  2  0  0  0  0  0  0  0  0  0
  196.8487  178.9021  152.3461 H   0  0  0  0  0  0  0  0  0  0  0  0
  196.1421  180.4610  157.3277 H   0  0  0  0  0  0  0  0  0  0  0  0
  200.2617  177.0043  157.5528 H   0  0  0  0  0  0  0  0  0  0  0  0
  201.8674  175.1087  157.7150 H   0  0  0  0  0  0  0  0  0  0  0  0
  202.9658  174.2182  155.6867 H   0  0  0  0  0  0  0  0  0  0  0  0
  202.4288  175.2041  153.4526 H   0  0  0  0  0  0  0  0  0  0  0  0
  198.9326  178.7618  155.8873 H   0  0  0  0  0  0  0  0  0  0  0  0
  199.2982  180.3155  152.6221 H   0  0  0  0  0  0  0  0  0  0  0  0
  197.1554  180.6998  150.9813 H   0  0  0  0  0  0  0  0  0  0  0  0
  198.7418  180.1335  150.4966 H   0  0  0  0  0  0  0  0  0  0  0  0
  197.9506  178.9096  146.9320 H   0  0  0  0  0  0  0  0  0  0  0  0
  199.3156  177.0993  145.8998 H   0  0  0  0  0  0  0  0  0  0  0  0
  200.0586  175.1611  147.2636 H   0  0  0  0  0  0  0  0  0  0  0  0
  199.4335  175.0232  149.6676 H   0  0  0  0  0  0  0  0  0  0  0  0
  198.1008  176.8000  150.7073 H   0  0  0  0  0  0  0  0  0  0  0  0
  196.3158  182.7750  155.4676 H   0  0  0  0  0  0  0  0  0  0  0  0
  195.1519  181.4366  155.4148 H   0  0  0  0  0  0  0  0  0  0  0  0
  194.7691  182.7170  157.3629 H   0  0  0  0  0  0  0  0  0  0  0  0
  194.6344  184.7693  158.7043 H   0  0  0  0  0  0  0  0  0  0  0  0
  195.8939  186.6717  159.6912 H   0  0  0  0  0  0  0  0  0  0  0  0
  198.3391  186.4785  160.0829 H   0  0  0  0  0  0  0  0  0  0  0  0
  199.5303  184.3709  159.4989 H   0  0  0  0  0  0  0  0  0  0  0  0
  198.2894  182.4800  158.5150 H   0  0  0  0  0  0  0  0  0  0  0  0
  194.3640  182.0603  159.7208 H   0  0  0  0  0  0  0  0  0  0  0  0
  195.7651  181.0082  159.6852 H   0  0  0  0  0  0  0  0  0  0  0  0
  194.3394  180.6616  158.6912 H   0  0  0  0  0  0  0  0  0  0  0  0
  1  2  1  0
  1  9  1  0
  2  3  1  0
  2  7  2  0
  3  4  2  0
  3  8  1  0
  4  5  1  0
  4 35  1  0
  5  6  2  0
  5 36  1  0
  6  7  1  0
  6 37  1  0
  7 38  1  0
  8  9  2  0
  8 39  1  0
  9 10  1  0
 10 11  1  0
 10 21  1  0
 10 40  1  6
 11 12  1  0
 11 33  1  0
 12 13  1  0
 12 41  1  1
 12 42  1  0
 13 14  2  0
 13 15  1  0
 15 16  2  0
 15 20  1  0
 16 17  1  0
 16 43  1  0
 17 18  2  0
 17 44  1  0
 18 19  1  0
 18 45  1  0
 19 20  2  0
 19 46  1  0
 20 47  1  0
 21 22  3  0
 22 23  1  0
 23 24  1  0
 23 48  1  1
 23 49  1  0
 24 25  1  0
 24 34  1  0
 25 26  1  0
 25 32  1  0
 25 50  1  6
 26 27  2  0
 26 31  1  0
 27 28  1  0
 27 51  1  0
 28 29  2  0
 28 52  1  0
 29 30  1  0
 29 53  1  0
 30 31  2  0
 30 54  1  0
 31 55  1  0
 32 56  1  1
 32 57  1  0
 32 58  1  0
M  END
>  <s_epik_cmdline>  (1137) 
J2VwaWtfcHl0aG9uJywgJy1waCcsICc3LjAwMDAwMCcsICctcGh0JywgJzIuMDAwMDAwJywgJy1tcycsICcxNicsICctdG4nLCAnOCcsICctbWEnLCAnMjAwJywgJy1pbWFlJywgJzxpbmZpbGUubWFlPicsICctb21hZScsICc8b3V0ZmlsZS5tYWU+Jw==

>  <s_epik_input>  (1137) 
W2NIXTFbY0hdW2NIXVtjSF1bY0hdYzFDKD1PKVtDSDJdW05IXVtDQEhdKGMoczIpW2NIXWMoYzIzKVtjSF1bY0hdW2NIXVtjSF0zKUMjQ1tDSDJdW05IXVtDQEBIXShbQ0gzXSljNFtjSF1bY0hdW2NIXVtjSF1bY0hdNA==

>  <s_i_glide_gridfile>  (1137) 
ATP-Grid

>  <s_lp_Force_Field>  (1137) 
OPLS_2005

>  <s_lp_Variant>  (1137) 
rxn403____EMOL530587____EMOL720244____EMOL1468452-4

>  <s_lp_label>  (1137) 
2842_sdstereoexpander_4_neutralizer_1_epik_1_stereoizer_1

>  <s_m_source_file>  (1137) 
ATP-VSW-LIGPREP-003-in.maegz

>  <s_sd_BIOSOLVEIT.INFINISEE\_QUERY\_NAME>  (1137) 
Ref-Lig

>  <s_sd_BIOSOLVEIT.INFINISEE\_QUERY\_SMILES>  (1137) 
S(c1nc2c(cc1C[NH2+]Cc3ccc(cc3)C[NH+](C)C)cccc2)Cc4ccccc4

>  <s_sd_BIOSOLVEIT.INFINISEE\_REACTION\_NAME>  (1137) 
rxn403

>  <s_sd_BIOSOLVEIT.INFINISEE\_REAGENT1\_NAME>  (1137) 
EMOL530587

>  <s_sd_BIOSOLVEIT.INFINISEE\_REAGENT1\_SMILES>  (1137) 
O=C(c1ccccc1)CN

>  <s_sd_BIOSOLVEIT.INFINISEE\_REAGENT2\_NAME>  (1137) 
EMOL720244

>  <s_sd_BIOSOLVEIT.INFINISEE\_REAGENT2\_SMILES>  (1137) 
S1c2c(cccc2)C=C1C=O

>  <s_sd_BIOSOLVEIT.INFINISEE\_REAGENT3\_NAME>  (1137) 
EMOL1468452

>  <s_sd_BIOSOLVEIT.INFINISEE\_REAGENT3\_SMILES>  (1137) 
N(C(c1ccccc1)C)CC#C

>  <s_sd_BIOSOLVEIT.INFINISEE\_SPACE>  (1137) 
eXplore_7tr_2022-12

>  <s_vsw_compound_code>  (1137) 
90915

>  <s_vsw_variant>  (1137) 
90915-4

>  <r_epik_Charging_Adjusted_Penalty>  (1137) 
0.34271087845602999

>  <r_epik_Ionization_Penalty>  (1137) 
0.34549999999999997

>  <r_epik_Ionization_Penalty_Charging>  (1137) 
0

>  <r_epik_Ionization_Penalty_Neutral>  (1137) 
0.34549999999999997

>  <r_epik_State_Penalty>  (1137) 
0.3427

>  <r_i_docking_score>  (1137) 
-4.6187191169358703

>  <r_i_glide_ecoul>  (1137) 
-7.3983640670776403

>  <r_i_glide_eff_state_penalty>  (1137) 
0.3427

>  <r_i_glide_einternal>  (1137) 
11.4594974517822

>  <r_i_glide_emodel>  (1137) 
-51.595392489035603

>  <r_i_glide_energy>  (1137) 
-42.907805442810101

>  <r_i_glide_erotb>  (1137) 
0.72603303807073605

>  <r_i_glide_esite>  (1137) 
0

>  <r_i_glide_evdw>  (1137) 
-35.509441375732401

>  <r_i_glide_gscore>  (1137) 
-4.9614191169358701

>  <r_i_glide_hbond>  (1137) 
-0.15070950862030399

>  <r_i_glide_ligand_efficiency>  (1137) 
-0.144334972404246

>  <r_i_glide_ligand_efficiency_ln>  (1137) 
-1.0342571118099999

>  <r_i_glide_ligand_efficiency_sa>  (1137) 
-0.458234973531228

>  <r_i_glide_lipo>  (1137) 
-2.0789190970431299

>  <r_i_glide_metal>  (1137) 
-0

>  <r_i_glide_rewards>  (1137) 
-0.57259687049490204

>  <r_lp_Energy>  (1137) 
27.812919000000001

>  <r_lp_tautomer_probability>  (1137) 
0.99990000499974996

>  <r_qp_ACxDN^.5/SA>  (1137) 
0.010252000000000001

>  <r_qp_CIQPlogS>  (1137) 
-5.2140000000000004

>  <r_qp_EA(eV)>  (1137) 
0.69199999999999995

>  <r_qp_FISA>  (1137) 
64.146000000000001

>  <r_qp_FOSA>  (1137) 
157.88

>  <r_qp_IP(eV)>  (1137) 
8.5280000000000005

>  <r_qp_Jm>  (1137) 
0.024555042557630701

>  <r_qp_PISA>  (1137) 
441.22800000000001

>  <r_qp_PSA>  (1137) 
49.061999999999998

>  <r_qp_PercentHumanOralAbsorption>  (1137) 
93.364000000000004

>  <r_qp_QPPCaco>  (1137) 
151.846

>  <r_qp_QPPMDCK>  (1137) 
110.23

>  <r_qp_QPlogBB>  (1137) 
0.24299999999999999

>  <r_qp_QPlogHERG>  (1137) 
-7.3760000000000003

>  <r_qp_QPlogKhsa>  (1137) 
0.86499999999999999

>  <r_qp_QPlogKp>  (1137) 
-4.3120000000000003

>  <r_qp_QPlogPC16>  (1137) 
14.949

>  <r_qp_QPlogPo/w>  (1137) 
4.6749999999999998

>  <r_qp_QPlogPoct>  (1137) 
21.244

>  <r_qp_QPlogPw>  (1137) 
10.474

>  <r_qp_QPlogS>  (1137) 
-2.9390000000000001

>  <r_qp_QPpolrz>  (1137) 
45.869999999999997

>  <r_qp_SASA>  (1137) 
689.72299999999996

>  <r_qp_SAamideO>  (1137) 
0

>  <r_qp_SAfluorine>  (1137) 
0

>  <r_qp_WPSA>  (1137) 
26.469000000000001

>  <r_qp_accptHB>  (1137) 
5

>  <r_qp_dip^2/V>  (1137) 
0.0189223

>  <r_qp_dipole>  (1137) 
5.0640000000000001

>  <r_qp_donorHB>  (1137) 
2

>  <r_qp_glob>  (1137) 
0.85862439999999995

>  <r_qp_mol_MW>  (1137) 
438.58600000000001

>  <r_qp_volume>  (1137) 
1355.0930000000001

>  <r_sd_BIOSOLVEIT.INFINISEE\_FTREES\_SIMILARITY>  (1137) 
0.90500000000000003

>  <r_sd_BIOSOLVEIT.LOGP>  (1137) 
3.7166999999999999

>  <r_sd_BIOSOLVEIT.MOLECULAR\_WEIGHT>  (1137) 
440.60700000000003

>  <r_sd_BIOSOLVEIT.TPSA>  (1137) 
50.289999999999999

>  <i_epik_Tot_Q>  (1137) 
0

>  <i_epik_Tot_abs_Q>  (1137) 
0

>  <i_f3d_flags>  (1137) 
0

>  <i_i_glide_confnum>  (1137) 
3

>  <i_i_glide_lignum>  (1137) 
1367

>  <i_i_glide_posenum>  (1137) 
2

>  <i_i_glide_rotatable_bonds>  (1137) 
10

>  <i_lp_mmshare_version>  (1137) 
65135

>  <i_m_ct_format>  (1137) 
2

>  <i_m_source_file_index>  (1137) 
2842

>  <i_qp_#NandO>  (1137) 
3

>  <i_qp_#acid>  (1137) 
0

>  <i_qp_#amide>  (1137) 
0

>  <i_qp_#amidine>  (1137) 
0

>  <i_qp_#amine>  (1137) 
2

>  <i_qp_#in34>  (1137) 
0

>  <i_qp_#in56>  (1137) 
21

>  <i_qp_#metab>  (1137) 
8

>  <i_qp_#nonHatm>  (1137) 
32

>  <i_qp_#noncon>  (1137) 
0

>  <i_qp_#ringatoms>  (1137) 
21

>  <i_qp_#rotor>  (1137) 
10

>  <i_qp_#rtvFG>  (1137) 
0

>  <i_qp_#stars>  (1137) 
0

>  <i_qp_CNS>  (1137) 
1

>  <i_qp_HumanOralAbsorption>  (1137) 
3

>  <i_qp_RuleOfFive>  (1137) 
0

>  <i_qp_RuleOfThree>  (1137) 
1

>  <i_sd_BIOSOLVEIT.INFINISEE\_RESULT\_RANK>  (1137) 
67944

>  <i_sd_version>  (1137) 
0

>  <b_lp_Chiralities_Consistent>  (1137) 
1

>  <b_sd_chiral_flag>  (1137) 
0

>  <canonical_id>  (1137) 
ATP-HTVS-B5A4F958CC31

>  <compound_code>  (1137) 
90915

>  <title>  (1137) 
rxn403____EMOL530587____EMOL720244____EMOL1468452

>  <variant>  (1137) 
90915-4

>  <source_file>  (1137) 
运行/运行/ATP-VSW/ATP-VSW-DOCK_HTVS_1-003_lib/ATP-VSW-DOCK_HTVS_1-003_lib.mae

>  <canonical_smiles>  (1137) 
C[C@H](NCC#C[C@H](NCC(=O)c1ccccc1)c1cc2ccccc2s1)c1ccccc1

>  <scaffold>  (1137) 
O=C(CNC(C#CCNCc1ccccc1)c1cc2ccccc2s1)c1ccccc1

>  <molecular_formula>  (1137) 
C28H26N2OS

$$$$
ATP-HTVS-B612A35BE18C
     RDKit          3D

 52 55  0  0  0  0  0  0  0  0999 V2000
  198.2048  183.6358  160.2818 F   0  0  0  0  0  0  0  0  0  0  0  0
  197.4344  184.4670  159.5750 C   0  0  1  0  0  0  0  0  0  0  0  0
  198.0872  184.8479  158.4775 F   0  0  0  0  0  0  0  0  0  0  0  0
  196.1034  183.8339  159.2101 C   0  0  0  0  0  0  0  0  0  0  0  0
  195.9866  182.5607  158.6000 C   0  0  0  0  0  0  0  0  0  0  0  0
  194.7156  182.0394  158.2917 C   0  0  0  0  0  0  0  0  0  0  0  0
  193.5638  182.8059  158.5340 C   0  0  0  0  0  0  0  0  0  0  0  0
  193.6710  184.0528  159.1613 C   0  0  0  0  0  0  0  0  0  0  0  0
  194.9308  184.5753  159.4843 C   0  0  0  0  0  0  0  0  0  0  0  0
  197.1811  181.7139  158.2527 C   0  0  1  0  0  0  0  0  0  0  0  0
  197.2160  181.3508  156.8354 N   0  0  1  0  0  0  0  0  0  0  0  0
  198.3924  180.5300  156.4590 C   0  0  1  0  0  0  0  0  0  0  0  0
  198.0158  179.4152  155.4626 C   0  0  1  0  0  0  0  0  0  0  0  0
  197.7814  179.9696  154.1103 N   0  0  0  0  0  0  0  0  0  0  0  0
  198.6723  179.5045  153.1996 C   0  0  0  0  0  0  0  0  0  0  0  0
  198.7195  179.7237  151.9937 O   0  0  0  0  0  0  0  0  0  0  0  0
  199.5649  178.5647  153.9124 C   0  0  0  0  0  0  0  0  0  0  0  0
  199.1820  178.4747  155.2341 C   0  0  0  0  0  0  0  0  0  0  0  0
  199.8312  177.5973  156.1259 C   0  0  0  0  0  0  0  0  0  0  0  0
  200.8891  176.8086  155.6215 C   0  0  0  0  0  0  0  0  0  0  0  0
  201.2852  176.9135  154.2652 C   0  0  0  0  0  0  0  0  0  0  0  0
  200.6155  177.7969  153.3881 C   0  0  0  0  0  0  0  0  0  0  0  0
  196.5400  180.6759  153.7768 C   0  0  1  0  0  0  0  0  0  0  0  0
  196.7483  181.9314  152.9515 C   0  0  0  0  0  0  0  0  0  0  0  0
  196.4568  181.9034  151.5694 C   0  0  0  0  0  0  0  0  0  0  0  0
  196.6460  183.0511  150.7792 C   0  0  0  0  0  0  0  0  0  0  0  0
  197.1264  184.2351  151.3643 C   0  0  0  0  0  0  0  0  0  0  0  0
  197.4043  184.2771  152.7479 C   0  0  0  0  0  0  0  0  0  0  0  0
  197.2224  183.1243  153.5345 C   0  0  0  0  0  0  0  0  0  0  0  0
  196.3831  180.8095  156.6719 H   0  0  0  0  0  0  0  0  0  0  0  0
  197.2652  185.3638  160.1781 H   0  0  0  0  0  0  0  0  0  0  0  0
  194.5826  181.0728  157.8208 H   0  0  0  0  0  0  0  0  0  0  0  0
  192.6243  182.4455  158.1418 H   0  0  0  0  0  0  0  0  0  0  0  0
  192.7796  184.6241  159.3419 H   0  0  0  0  0  0  0  0  0  0  0  0
  195.0046  185.5669  159.9014 H   0  0  0  0  0  0  0  0  0  0  0  0
  198.1113  182.2358  158.4366 H   0  0  0  0  0  0  0  0  0  0  0  0
  197.1314  180.8106  158.8529 H   0  0  0  0  0  0  0  0  0  0  0  0
  199.1854  181.1593  156.0495 H   0  0  0  0  0  0  0  0  0  0  0  0
  198.8221  180.0621  157.3426 H   0  0  0  0  0  0  0  0  0  0  0  0
  197.1579  178.8368  155.8084 H   0  0  0  0  0  0  0  0  0  0  0  0
  199.5360  177.5115  157.1637 H   0  0  0  0  0  0  0  0  0  0  0  0
  201.4019  176.1208  156.2765 H   0  0  0  0  0  0  0  0  0  0  0  0
  202.1025  176.3111  153.8982 H   0  0  0  0  0  0  0  0  0  0  0  0
  200.8989  177.8776  152.3504 H   0  0  0  0  0  0  0  0  0  0  0  0
  195.9078  179.9797  153.2313 H   0  0  0  0  0  0  0  0  0  0  0  0
  195.9614  180.9473  154.6588 H   0  0  0  0  0  0  0  0  0  0  0  0
  196.1016  180.9919  151.1167 H   0  0  0  0  0  0  0  0  0  0  0  0
  196.4333  183.0163  149.7199 H   0  0  0  0  0  0  0  0  0  0  0  0
  197.2699  185.1196  150.7561 H   0  0  0  0  0  0  0  0  0  0  0  0
  197.7600  185.1963  153.1951 H   0  0  0  0  0  0  0  0  0  0  0  0
  197.4406  183.1715  154.5922 H   0  0  0  0  0  0  0  0  0  0  0  0
  197.1877  182.2028  156.2860 H   0  0  0  0  0  0  0  0  0  0  0  0
  1  2  1  0
  2  3  1  0
  2  4  1  0
  2 31  1  1
  4  5  1  0
  4  9  2  0
  5  6  2  0
  5 10  1  0
  6  7  1  0
  6 32  1  0
  7  8  2  0
  7 33  1  0
  8  9  1  0
  8 34  1  0
  9 35  1  0
 10 11  1  0
 10 36  1  1
 10 37  1  0
 11 12  1  0
 11 30  1  6
 11 52  1  0
 12 13  1  0
 12 38  1  6
 12 39  1  0
 13 14  1  0
 13 18  1  0
 13 40  1  1
 14 15  1  0
 14 23  1  0
 15 16  2  0
 15 17  1  0
 17 18  1  0
 17 22  2  0
 18 19  2  0
 19 20  1  0
 19 41  1  0
 20 21  2  0
 20 42  1  0
 21 22  1  0
 21 43  1  0
 22 44  1  0
 23 24  1  0
 23 45  1  6
 23 46  1  0
 24 25  2  0
 24 29  1  0
 25 26  1  0
 25 47  1  0
 26 27  2  0
 26 48  1  0
 27 28  1  0
 27 49  1  0
 28 29  2  0
 28 50  1  0
 29 51  1  0
M  CHG  1  11   1
M  END
>  <s_epik_cmdline>  (1138) 
J2VwaWtfcHl0aG9uJywgJy1waCcsICc3LjAwMDAwMCcsICctcGh0JywgJzIuMDAwMDAwJywgJy1tcycsICcxNicsICctdG4nLCAnOCcsICctbWEnLCAnMjAwJywgJy1pbWFlJywgJzxpbmZpbGUubWFlPicsICctb21hZScsICc8b3V0ZmlsZS5tYWU+Jw==

>  <s_epik_input>  (1138) 
W2NIXTFbY0hdW2NIXVtjSF1jKGMxW0NIXShGKUYpW0NIMl1bTkhdW0NIMl1bQ0BIXShjKGMyMylbY0hdW2NIXVtjSF1bY0hdMylOKEMyPU8pW0NIMl1jNFtjSF1bY0hdW2NIXVtjSF1bY0hdNA==

>  <s_i_glide_gridfile>  (1138) 
ATP-Grid

>  <s_lp_Force_Field>  (1138) 
OPLS_2005

>  <s_lp_Variant>  (1138) 
m_270004bbb____12219716____14937976-2

>  <s_lp_label>  (1138) 
1133_sdstereoexpander_2_neutralizer_1_epik_1_stereoizer_1

>  <s_m_source_file>  (1138) 
ATP-VSW-LIGPREP-003-in.maegz

>  <s_sd_BIOSOLVEIT.INFINISEE\_QUERY\_NAME>  (1138) 
Ref-Lig

>  <s_sd_BIOSOLVEIT.INFINISEE\_QUERY\_SMILES>  (1138) 
S(c1nc2c(cc1C[NH2+]Cc3ccc(cc3)C[NH+](C)C)cccc2)Cc4ccccc4

>  <s_sd_BIOSOLVEIT.INFINISEE\_REACTION\_NAME>  (1138) 
m_270004bbb

>  <s_sd_BIOSOLVEIT.INFINISEE\_REAGENT1\_SMILES>  (1138) 
[R1*]NCC1N(C(=O)c2c1cccc2)Cc3ccccc3

>  <s_sd_BIOSOLVEIT.INFINISEE\_REAGENT2\_SMILES>  (1138) 
[R1*]Cc1c(cccc1)C(F)F

>  <s_sd_BIOSOLVEIT.INFINISEE\_SPACE>  (1138) 
REALSpace_44bn_2023-08

>  <s_vsw_compound_code>  (1138) 
36227

>  <s_vsw_variant>  (1138) 
36227-2

>  <r_epik_Charging_Adjusted_Penalty>  (1138) 
0.157335111897215

>  <r_epik_Ionization_Penalty>  (1138) 
0.078700000000000006

>  <r_epik_Ionization_Penalty_Charging>  (1138) 
0.078700000000000006

>  <r_epik_Ionization_Penalty_Neutral>  (1138) 
0

>  <r_epik_State_Penalty>  (1138) 
0.078700000000000006

>  <r_i_docking_score>  (1138) 
-4.3596399806337898

>  <r_i_glide_ecoul>  (1138) 
-8.4933853149414098

>  <r_i_glide_eff_state_penalty>  (1138) 
0.078700000000000006

>  <r_i_glide_einternal>  (1138) 
12.371365547180201

>  <r_i_glide_emodel>  (1138) 
-50.419753864878103

>  <r_i_glide_energy>  (1138) 
-40.557178497314503

>  <r_i_glide_erotb>  (1138) 
0.75715808499747195

>  <r_i_glide_esite>  (1138) 
-0.115009356577695

>  <r_i_glide_evdw>  (1138) 
-32.063793182372997

>  <r_i_glide_gscore>  (1138) 
-4.4383399806337902

>  <r_i_glide_hbond>  (1138) 
-0.075584770031030202

>  <r_i_glide_ligand_efficiency>  (1138) 
-0.15033241312530299

>  <r_i_glide_ligand_efficiency_ln>  (1138) 
-0.99824700463382299

>  <r_i_glide_ligand_efficiency_sa>  (1138) 
-0.46186880177240802

>  <r_i_glide_lipo>  (1138) 
-0.95010659395619002

>  <r_i_glide_metal>  (1138) 
-0

>  <r_i_glide_rewards>  (1138) 
-1.17759988870648

>  <r_lp_Energy>  (1138) 
39.797685999999999

>  <r_qp_ACxDN^.5/SA>  (1138) 
0.0067949999999999998

>  <r_qp_CIQPlogS>  (1138) 
-5.5410000000000004

>  <r_qp_EA(eV)>  (1138) 
0.28000000000000003

>  <r_qp_FISA>  (1138) 
52.246000000000002

>  <r_qp_FOSA>  (1138) 
94.272000000000006

>  <r_qp_IP(eV)>  (1138) 
9.4749999999999996

>  <r_qp_Jm>  (1138) 
0.028065114605003098

>  <r_qp_PISA>  (1138) 
452.11599999999999

>  <r_qp_PSA>  (1138) 
39.218000000000004

>  <r_qp_PercentHumanOralAbsorption>  (1138) 
100

>  <r_qp_QPPCaco>  (1138) 
789.50199999999995

>  <r_qp_QPPMDCK>  (1138) 
945.774

>  <r_qp_QPlogBB>  (1138) 
0.254

>  <r_qp_QPlogHERG>  (1138) 
-7.1280000000000001

>  <r_qp_QPlogKhsa>  (1138) 
0.80200000000000005

>  <r_qp_QPlogKp>  (1138) 
-2.3759999999999999

>  <r_qp_QPlogPC16>  (1138) 
12.888999999999999

>  <r_qp_QPlogPo/w>  (1138) 
4.9269999999999996

>  <r_qp_QPlogPoct>  (1138) 
18.606000000000002

>  <r_qp_QPlogPw>  (1138) 
9.3390000000000004

>  <r_qp_QPlogS>  (1138) 
-4.7690000000000001

>  <r_qp_QPpolrz>  (1138) 
43.003999999999998

>  <r_qp_SASA>  (1138) 
662.25400000000002

>  <r_qp_SAamideO>  (1138) 
0

>  <r_qp_SAfluorine>  (1138) 
63.619

>  <r_qp_WPSA>  (1138) 
63.619

>  <r_qp_accptHB>  (1138) 
4.5

>  <r_qp_dip^2/V>  (1138) 
0.017048000000000001

>  <r_qp_dipole>  (1138) 
4.5540000000000003

>  <r_qp_donorHB>  (1138) 
1

>  <r_qp_glob>  (1138) 
0.83227799999999996

>  <r_qp_mol_MW>  (1138) 
392.447

>  <r_qp_volume>  (1138) 
1216.723

>  <r_sd_BIOSOLVEIT.INFINISEE\_FTREES\_SIMILARITY>  (1138) 
0.91300000000000003

>  <r_sd_BIOSOLVEIT.LOGP>  (1138) 
4.0849000000000002

>  <r_sd_BIOSOLVEIT.MOLECULAR\_WEIGHT>  (1138) 
393.45499999999998

>  <r_sd_BIOSOLVEIT.TPSA>  (1138) 
36.920000000000002

>  <i_epik_Tot_Q>  (1138) 
1

>  <i_epik_Tot_abs_Q>  (1138) 
1

>  <i_f3d_flags>  (1138) 
0

>  <i_i_glide_confnum>  (1138) 
6

>  <i_i_glide_lignum>  (1138) 
441

>  <i_i_glide_posenum>  (1138) 
2

>  <i_i_glide_rotatable_bonds>  (1138) 
7

>  <i_lp_mmshare_version>  (1138) 
65135

>  <i_m_ct_format>  (1138) 
2

>  <i_m_source_file_index>  (1138) 
1133

>  <i_qp_#NandO>  (1138) 
3

>  <i_qp_#acid>  (1138) 
0

>  <i_qp_#amide>  (1138) 
0

>  <i_qp_#amidine>  (1138) 
0

>  <i_qp_#amine>  (1138) 
1

>  <i_qp_#in34>  (1138) 
0

>  <i_qp_#in56>  (1138) 
21

>  <i_qp_#metab>  (1138) 
6

>  <i_qp_#nonHatm>  (1138) 
29

>  <i_qp_#noncon>  (1138) 
1

>  <i_qp_#ringatoms>  (1138) 
21

>  <i_qp_#rotor>  (1138) 
6

>  <i_qp_#rtvFG>  (1138) 
0

>  <i_qp_#stars>  (1138) 
1

>  <i_qp_CNS>  (1138) 
1

>  <i_qp_HumanOralAbsorption>  (1138) 
3

>  <i_qp_RuleOfFive>  (1138) 
0

>  <i_qp_RuleOfThree>  (1138) 
0

>  <i_sd_BIOSOLVEIT.INFINISEE\_REAGENT1\_NAME>  (1138) 
12219716

>  <i_sd_BIOSOLVEIT.INFINISEE\_REAGENT2\_NAME>  (1138) 
14937976

>  <i_sd_BIOSOLVEIT.INFINISEE\_RESULT\_RANK>  (1138) 
35643

>  <i_sd_version>  (1138) 
0

>  <b_lp_Chiralities_Consistent>  (1138) 
1

>  <b_sd_chiral_flag>  (1138) 
0

>  <canonical_id>  (1138) 
ATP-HTVS-B612A35BE18C

>  <compound_code>  (1138) 
36227

>  <title>  (1138) 
m_270004bbb____12219716____14937976

>  <variant>  (1138) 
36227-2

>  <source_file>  (1138) 
运行/运行/ATP-VSW/ATP-VSW-DOCK_HTVS_1-003_lib/ATP-VSW-DOCK_HTVS_1-003_lib.mae

>  <canonical_smiles>  (1138) 
O=C1c2ccccc2[C@@H](C[NH2+]Cc2ccccc2C(F)F)N1Cc1ccccc1

>  <scaffold>  (1138) 
O=C1c2ccccc2C(C[NH2+]Cc2ccccc2)N1Cc1ccccc1

>  <molecular_formula>  (1138) 
C24H23F2N2O+

$$$$
ATP-HTVS-B6233BB79AF7
     RDKit          3D

 64 67  0  0  0  0  0  0  0  0999 V2000
  196.7741  184.2502  149.2495 Cl  0  0  0  0  0  0  0  0  0  0  0  0
  197.4623  184.7088  150.7836 C   0  0  0  0  0  0  0  0  0  0  0  0
  198.3862  185.7626  150.9398 C   0  0  0  0  0  0  0  0  0  0  0  0
  198.8914  186.1110  152.2173 C   0  0  0  0  0  0  0  0  0  0  0  0
  199.7809  187.1805  152.3054 N   0  0  0  0  0  0  0  0  0  0  0  0
  198.4653  185.3829  153.3801 C   0  0  0  0  0  0  0  0  0  0  0  0
  197.4576  184.3575  153.2279 C   0  0  0  0  0  0  0  0  0  0  0  0
  196.9917  184.0522  151.9404 C   0  0  0  0  0  0  0  0  0  0  0  0
  199.0287  185.6778  154.7806 C   0  0  1  0  0  0  0  0  0  0  0  0
  198.1643  185.4599  155.9547 N   0  0  0  0  0  0  0  0  0  0  0  0
  197.7694  184.1948  156.3816 C   0  0  0  0  0  0  0  0  0  0  0  0
  198.1454  183.0933  155.6910 N   0  0  0  0  0  0  0  0  0  0  0  0
  197.6000  181.9269  155.9119 C   0  0  0  0  0  0  0  0  0  0  0  0
  196.6324  181.7543  156.8575 N   0  0  0  0  0  0  0  0  0  0  0  0
  196.2552  182.7675  157.6402 C   0  0  0  0  0  0  0  0  0  0  0  0
  196.8112  184.0583  157.4272 C   0  0  0  0  0  0  0  0  0  0  0  0
  196.3671  185.1557  158.2212 C   0  0  0  0  0  0  0  0  0  0  0  0
  195.5115  184.9199  159.3180 C   0  0  0  0  0  0  0  0  0  0  0  0
  195.0326  183.6230  159.5703 C   0  0  0  0  0  0  0  0  0  0  0  0
  195.3819  182.5520  158.7236 C   0  0  0  0  0  0  0  0  0  0  0  0
  197.8181  180.8721  155.0076 N   0  0  0  0  0  0  0  0  0  0  0  0
  198.7962  180.9909  153.9138 C   0  0  1  0  0  0  0  0  0  0  0  0
  198.5239  180.1529  152.6527 C   0  0  0  0  0  0  0  0  0  0  0  0
  197.6963  180.6920  151.6401 C   0  0  0  0  0  0  0  0  0  0  0  0
  197.3749  179.9478  150.4820 C   0  0  0  0  0  0  0  0  0  0  0  0
  197.8953  178.6515  150.3193 C   0  0  0  0  0  0  0  0  0  0  0  0
  198.7279  178.1117  151.3261 C   0  0  0  0  0  0  0  0  0  0  0  0
  199.0544  178.8579  152.4792 C   0  0  0  0  0  0  0  0  0  0  0  0
  197.5671  177.8676  149.0651 C   0  0  1  0  0  0  0  0  0  0  0  0
  198.6277  177.9932  148.0405 N   0  0  1  0  0  0  0  0  0  0  0  0
  198.4007  177.0581  146.9215 C   0  0  2  0  0  0  0  0  0  0  0  0
  198.8482  179.3811  147.5650 C   0  0  2  0  0  0  0  0  0  0  0  0
  197.3586  179.5277  155.3364 C   0  0  2  0  0  0  0  0  0  0  0  0
  198.6559  186.3293  150.0437 H   0  0  0  0  0  0  0  0  0  0  0  0
  200.0185  187.5942  153.2048 H   0  0  0  0  0  0  0  0  0  0  0  0
  199.8752  187.8116  151.4983 H   0  0  0  0  0  0  0  0  0  0  0  0
  197.0000  183.8043  153.9887 H   0  0  0  0  0  0  0  0  0  0  0  0
  196.2247  183.3000  151.9152 H   0  0  0  0  0  0  0  0  0  0  0  0
  199.9426  185.1094  154.9594 H   0  0  0  0  0  0  0  0  0  0  0  0
  199.3400  186.7282  154.8358 H   0  0  0  0  0  0  0  0  0  0  0  0
  197.8945  186.2739  156.4748 H   0  0  0  0  0  0  0  0  0  0  0  0
  196.7405  186.1562  158.0660 H   0  0  0  0  0  0  0  0  0  0  0  0
  195.2390  185.7361  159.9813 H   0  0  0  0  0  0  0  0  0  0  0  0
  194.3784  183.4509  160.4061 H   0  0  0  0  0  0  0  0  0  0  0  0
  195.0255  181.5379  158.9121 H   0  0  0  0  0  0  0  0  0  0  0  0
  198.9101  182.0282  153.5949 H   0  0  0  0  0  0  0  0  0  0  0  0
  199.7636  180.6961  154.3116 H   0  0  0  0  0  0  0  0  0  0  0  0
  197.2914  181.6812  151.7549 H   0  0  0  0  0  0  0  0  0  0  0  0
  196.7462  180.4209  149.7308 H   0  0  0  0  0  0  0  0  0  0  0  0
  199.1144  177.1207  151.2238 H   0  0  0  0  0  0  0  0  0  0  0  0
  199.6638  178.4272  153.2659 H   0  0  0  0  0  0  0  0  0  0  0  0
  197.4545  176.8284  149.3616 H   0  0  0  0  0  0  0  0  0  0  0  0
  196.6078  178.2022  148.6659 H   0  0  0  0  0  0  0  0  0  0  0  0
  197.4797  177.2998  146.3885 H   0  0  0  0  0  0  0  0  0  0  0  0
  198.3318  176.0301  147.2800 H   0  0  0  0  0  0  0  0  0  0  0  0
  199.2226  177.1053  146.2080 H   0  0  0  0  0  0  0  0  0  0  0  0
  197.9452  179.7911  147.1145 H   0  0  0  0  0  0  0  0  0  0  0  0
  199.6411  179.4118  146.8169 H   0  0  0  0  0  0  0  0  0  0  0  0
  199.1539  180.0423  148.3759 H   0  0  0  0  0  0  0  0  0  0  0  0
  196.2722  179.4784  155.4662 H   0  0  0  0  0  0  0  0  0  0  0  0
  197.8460  179.2005  156.2604 H   0  0  0  0  0  0  0  0  0  0  0  0
  197.6001  178.7755  154.5846 H   0  0  0  0  0  0  0  0  0  0  0  0
  196.1850  180.8204  157.0239 H   0  0  0  0  0  0  0  0  0  0  0  0
  199.4868  177.7063  148.4878 H   0  0  0  0  0  0  0  0  0  0  0  0
  1  2  1  0
  2  3  2  0
  2  8  1  0
  3  4  1  0
  3 34  1  0
  4  5  1  0
  4  6  2  0
  5 35  1  0
  5 36  1  0
  6  7  1  0
  6  9  1  0
  7  8  2  0
  7 37  1  0
  8 38  1  0
  9 10  1  0
  9 39  1  1
  9 40  1  0
 10 11  1  0
 10 41  1  0
 11 12  2  0
 11 16  1  0
 12 13  1  0
 13 14  2  0
 13 21  1  0
 14 15  1  0
 14 63  1  0
 15 16  1  0
 15 20  2  0
 16 17  2  0
 17 18  1  0
 17 42  1  0
 18 19  2  0
 18 43  1  0
 19 20  1  0
 19 44  1  0
 20 45  1  0
 21 22  1  0
 21 33  1  0
 22 23  1  0
 22 46  1  6
 22 47  1  0
 23 24  1  0
 23 28  2  0
 24 25  2  0
 24 48  1  0
 25 26  1  0
 25 49  1  0
 26 27  2  0
 26 29  1  0
 27 28  1  0
 27 50  1  0
 28 51  1  0
 29 30  1  0
 29 52  1  1
 29 53  1  0
 30 31  1  0
 30 32  1  0
 30 64  1  1
 31 54  1  6
 31 55  1  0
 31 56  1  0
 32 57  1  6
 32 58  1  0
 32 59  1  0
 33 60  1  1
 33 61  1  0
 33 62  1  0
M  CHG  2  14   1  30   1
M  END
>  <s_epik_cmdline>  (1139) 
J2VwaWtfcHl0aG9uJywgJy1waCcsICc3LjAwMDAwMCcsICctcGh0JywgJzIuMDAwMDAwJywgJy1tcycsICcxNicsICctdG4nLCAnOCcsICctbWEnLCAnMjAwJywgJy1pbWFlJywgJzxpbmZpbGUubWFlPicsICctb21hZScsICc8b3V0ZmlsZS5tYWU+Jw==

>  <s_epik_input>  (1139) 
Q2xjMVtjSF1jKFtOSDJdKWMoW2NIXVtjSF0xKVtDSDJdW05IXWMoYyhjMjMpW2NIXVtjSF1bY0hdW2NIXTMpbmMobjIpTihbQ0gzXSlbQ0gyXWM0W2NIXVtjSF1jKFtjSF1bY0hdNClbQ0gyXU4oW0NIM10pW0NIM10=

>  <s_i_glide_gridfile>  (1139) 
ATP-Grid

>  <s_lp_Force_Field>  (1139) 
OPLS_2005

>  <s_lp_Variant>  (1139) 
m_282030aaa____21933634____22360182____21936774-1

>  <s_lp_label>  (1139) 
1819_sdstereoexpander_1_neutralizer_1_epik_1_stereoizer_1

>  <s_m_source_file>  (1139) 
ATP-VSW-LIGPREP-003-in.maegz

>  <s_sd_BIOSOLVEIT.INFINISEE\_QUERY\_NAME>  (1139) 
Ref-Lig

>  <s_sd_BIOSOLVEIT.INFINISEE\_QUERY\_SMILES>  (1139) 
S(c1nc2c(cc1C[NH2+]Cc3ccc(cc3)C[NH+](C)C)cccc2)Cc4ccccc4

>  <s_sd_BIOSOLVEIT.INFINISEE\_REACTION\_NAME>  (1139) 
m_282030aaa

>  <s_sd_BIOSOLVEIT.INFINISEE\_REAGENT1\_SMILES>  (1139) 
[R1*]N(Cc1ccc(cc1)CN(C)C)C

>  <s_sd_BIOSOLVEIT.INFINISEE\_REAGENT2\_SMILES>  (1139) 
[R2*]c1nc([R1*])c2c(n1)cccc2

>  <s_sd_BIOSOLVEIT.INFINISEE\_REAGENT3\_SMILES>  (1139) 
[R2*]NCc1c(N)cc(Cl)cc1

>  <s_sd_BIOSOLVEIT.INFINISEE\_SPACE>  (1139) 
REALSpace_44bn_2023-08

>  <s_vsw_compound_code>  (1139) 
58179

>  <s_vsw_variant>  (1139) 
58179-1

>  <r_epik_Charging_Adjusted_Penalty>  (1139) 
0.086278089617868606

>  <r_epik_Ionization_Penalty>  (1139) 
0.043700000000000003

>  <r_epik_Ionization_Penalty_Charging>  (1139) 
0.043299999999999998

>  <r_epik_Ionization_Penalty_Neutral>  (1139) 
0.00029999999999999997

>  <r_epik_State_Penalty>  (1139) 
0.042900000000000001

>  <r_i_docking_score>  (1139) 
-3.4328409397718298

>  <r_i_glide_ecoul>  (1139) 
-3.00336790084839

>  <r_i_glide_eff_state_penalty>  (1139) 
0.042900000000000001

>  <r_i_glide_einternal>  (1139) 
2.00820755958557

>  <r_i_glide_emodel>  (1139) 
-51.037154390858397

>  <r_i_glide_energy>  (1139) 
-37.829696178436301

>  <r_i_glide_erotb>  (1139) 
0.657877856987375

>  <r_i_glide_esite>  (1139) 
-0.15554934734923401

>  <r_i_glide_evdw>  (1139) 
-34.826328277587898

>  <r_i_glide_gscore>  (1139) 
-3.4757409397718302

>  <r_i_glide_hbond>  (1139) 
-0.20000000000000001

>  <r_i_glide_ligand_efficiency>  (1139) 
-0.104025483023389

>  <r_i_glide_ligand_efficiency_ln>  (1139) 
-0.76344605070612903

>  <r_i_glide_ligand_efficiency_sa>  (1139) 
-0.33366530760302998

>  <r_i_glide_lipo>  (1139) 
-1.33409266858514

>  <r_i_glide_metal>  (1139) 
-0

>  <r_i_glide_rewards>  (1139) 
-0.25215518181818097

>  <r_lp_Energy>  (1139) 
16.272307999999999

>  <r_lp_tautomer_probability>  (1139) 
0.99350799999861505

>  <r_qp_ACxDN^.5/SA>  (1139) 
0.0133545

>  <r_qp_CIQPlogS>  (1139) 
-6.3410000000000002

>  <r_qp_EA(eV)>  (1139) 
0.57899999999999996

>  <r_qp_FISA>  (1139) 
58.052999999999997

>  <r_qp_FOSA>  (1139) 
293.19

>  <r_qp_IP(eV)>  (1139) 
7.976

>  <r_qp_Jm>  (1139) 
0.052139218935289097

>  <r_qp_PISA>  (1139) 
328.666

>  <r_qp_PSA>  (1139) 
57.125

>  <r_qp_PercentHumanOralAbsorption>  (1139) 
100

>  <r_qp_QPPCaco>  (1139) 
695.48099999999999

>  <r_qp_QPPMDCK>  (1139) 
542.87

>  <r_qp_QPlogBB>  (1139) 
-0.050999999999999997

>  <r_qp_QPlogHERG>  (1139) 
-6.3760000000000003

>  <r_qp_QPlogKhsa>  (1139) 
0.74399999999999999

>  <r_qp_QPlogKp>  (1139) 
-2.6299999999999999

>  <r_qp_QPlogPC16>  (1139) 
14.452999999999999

>  <r_qp_QPlogPo/w>  (1139) 
4.7679999999999998

>  <r_qp_QPlogPoct>  (1139) 
22.462

>  <r_qp_QPlogPw>  (1139) 
11.656000000000001

>  <r_qp_QPlogS>  (1139) 
-4.3159999999999998

>  <r_qp_QPpolrz>  (1139) 
46.287999999999997

>  <r_qp_SASA>  (1139) 
710.38300000000004

>  <r_qp_SAamideO>  (1139) 
0

>  <r_qp_SAfluorine>  (1139) 
0

>  <r_qp_WPSA>  (1139) 
30.474

>  <r_qp_accptHB>  (1139) 
6

>  <r_qp_dip^2/V>  (1139) 
0.02044

>  <r_qp_dipole>  (1139) 
5.3040000000000003

>  <r_qp_donorHB>  (1139) 
2.5

>  <r_qp_glob>  (1139) 
0.8423543

>  <r_qp_mol_MW>  (1139) 
461.00799999999998

>  <r_qp_volume>  (1139) 
1376.364

>  <r_sd_BIOSOLVEIT.INFINISEE\_FTREES\_SIMILARITY>  (1139) 
0.90400000000000003

>  <r_sd_BIOSOLVEIT.LOGP>  (1139) 
3.7584

>  <r_sd_BIOSOLVEIT.MOLECULAR\_WEIGHT>  (1139) 
462.01799999999997

>  <r_sd_BIOSOLVEIT.TPSA>  (1139) 
71.510000000000005

>  <i_epik_Tot_Q>  (1139) 
2

>  <i_epik_Tot_abs_Q>  (1139) 
2

>  <i_f3d_flags>  (1139) 
0

>  <i_i_glide_confnum>  (1139) 
2

>  <i_i_glide_lignum>  (1139) 
674

>  <i_i_glide_posenum>  (1139) 
6

>  <i_i_glide_rotatable_bonds>  (1139) 
8

>  <i_lp_mmshare_version>  (1139) 
65135

>  <i_m_ct_format>  (1139) 
2

>  <i_m_source_file_index>  (1139) 
1819

>  <i_qp_#NandO>  (1139) 
6

>  <i_qp_#acid>  (1139) 
0

>  <i_qp_#amide>  (1139) 
0

>  <i_qp_#amidine>  (1139) 
0

>  <i_qp_#amine>  (1139) 
1

>  <i_qp_#in34>  (1139) 
0

>  <i_qp_#in56>  (1139) 
22

>  <i_qp_#metab>  (1139) 
7

>  <i_qp_#nonHatm>  (1139) 
33

>  <i_qp_#noncon>  (1139) 
0

>  <i_qp_#ringatoms>  (1139) 
22

>  <i_qp_#rotor>  (1139) 
9

>  <i_qp_#rtvFG>  (1139) 
0

>  <i_qp_#stars>  (1139) 
0

>  <i_qp_CNS>  (1139) 
0

>  <i_qp_HumanOralAbsorption>  (1139) 
3

>  <i_qp_RuleOfFive>  (1139) 
0

>  <i_qp_RuleOfThree>  (1139) 
1

>  <i_sd_BIOSOLVEIT.INFINISEE\_REAGENT1\_NAME>  (1139) 
21933634

>  <i_sd_BIOSOLVEIT.INFINISEE\_REAGENT2\_NAME>  (1139) 
22360182

>  <i_sd_BIOSOLVEIT.INFINISEE\_REAGENT3\_NAME>  (1139) 
21936774

>  <i_sd_BIOSOLVEIT.INFINISEE\_RESULT\_RANK>  (1139) 
79033

>  <i_sd_version>  (1139) 
0

>  <b_lp_Chiralities_Consistent>  (1139) 
1

>  <b_sd_chiral_flag>  (1139) 
0

>  <canonical_id>  (1139) 
ATP-HTVS-B6233BB79AF7

>  <compound_code>  (1139) 
58179

>  <title>  (1139) 
m_282030aaa____21933634____22360182____21936774

>  <variant>  (1139) 
58179-1

>  <source_file>  (1139) 
运行/运行/ATP-VSW/ATP-VSW-DOCK_HTVS_1-003_lib/ATP-VSW-DOCK_HTVS_1-003_lib.mae

>  <canonical_smiles>  (1139) 
CN(Cc1ccc(C[NH+](C)C)cc1)c1nc(NCc2ccc(Cl)cc2N)c2ccccc2[nH+]1

>  <scaffold>  (1139) 
c1ccc(CNc2nc(NCc3ccccc3)c3ccccc3[nH+]2)cc1

>  <molecular_formula>  (1139) 
C26H31ClN6+2

$$$$
ATP-HTVS-B64EA431F59B
     RDKit          3D

 59 62  0  0  0  0  0  0  0  0999 V2000
  195.8593  182.1932  159.0645 O   0  0  0  0  0  0  0  0  0  0  0  0
  196.1351  182.4268  157.8899 C   0  0  0  0  0  0  0  0  0  0  0  0
  196.4517  183.6312  157.3745 N   0  0  0  0  0  0  0  0  0  0  0  0
  196.7457  184.8732  157.9784 C   0  0  0  0  0  0  0  0  0  0  0  0
  197.4412  185.8631  157.2171 C   0  0  0  0  0  0  0  0  0  0  0  0
  197.7381  187.1037  157.8155 C   0  0  0  0  0  0  0  0  0  0  0  0
  197.3431  187.3679  159.1477 C   0  0  0  0  0  0  0  0  0  0  0  0
  196.6316  186.3987  159.8806 C   0  0  0  0  0  0  0  0  0  0  0  0
  196.3258  185.1681  159.2945 C   0  0  0  0  0  0  0  0  0  0  0  0
  197.8954  185.6394  155.7687 C   0  0  1  0  0  0  0  0  0  0  0  0
  199.3217  185.3403  155.6291 N   0  0  0  0  0  0  0  0  0  0  0  0
  199.6878  185.3029  154.2171 C   0  0  2  0  0  0  0  0  0  0  0  0
  199.6508  184.0487  156.2217 C   0  0  2  0  0  0  0  0  0  0  0  0
  196.1509  181.4471  156.9763 N   0  0  0  0  0  0  0  0  0  0  0  0
  196.3761  181.5291  155.5334 C   0  0  1  0  0  0  0  0  0  0  0  0
  197.4250  180.5994  155.0217 C   0  0  0  0  0  0  0  0  0  0  0  0
  197.9313  180.5003  153.6908 C   0  0  0  0  0  0  0  0  0  0  0  0
  198.8607  179.5547  153.6132 N   0  0  0  0  0  0  0  0  0  0  0  0
  198.9904  179.0368  154.8577 N   0  0  0  0  0  0  0  0  0  0  0  0
  199.8949  177.9757  155.1235 C   0  0  0  0  0  0  0  0  0  0  0  0
  200.5336  177.2903  154.0628 C   0  0  0  0  0  0  0  0  0  0  0  0
  201.4170  176.2275  154.3305 C   0  0  0  0  0  0  0  0  0  0  0  0
  201.6717  175.8410  155.6588 C   0  0  0  0  0  0  0  0  0  0  0  0
  201.0446  176.5222  156.7173 C   0  0  0  0  0  0  0  0  0  0  0  0
  200.1570  177.5800  156.4547 C   0  0  0  0  0  0  0  0  0  0  0  0
  198.1393  179.6778  155.7350 C   0  0  0  0  0  0  0  0  0  0  0  0
  197.5716  181.2734  152.4812 C   0  0  0  0  0  0  0  0  0  0  0  0
  196.9454  182.5472  152.5391 C   0  0  0  0  0  0  0  0  0  0  0  0
  196.5932  183.2658  151.3945 C   0  0  0  0  0  0  0  0  0  0  0  0
  196.8796  182.7376  150.1315 C   0  0  0  0  0  0  0  0  0  0  0  0
  197.5073  181.4787  150.0349 C   0  0  0  0  0  0  0  0  0  0  0  0
  197.8458  180.7485  151.1973 C   0  0  0  0  0  0  0  0  0  0  0  0
  196.6018  183.6164  156.3879 H   0  0  0  0  0  0  0  0  0  0  0  0
  198.2813  187.8569  157.2621 H   0  0  0  0  0  0  0  0  0  0  0  0
  197.5815  188.3158  159.6135 H   0  0  0  0  0  0  0  0  0  0  0  0
  196.3193  186.5777  160.8944 H   0  0  0  0  0  0  0  0  0  0  0  0
  195.7569  184.4641  159.8765 H   0  0  0  0  0  0  0  0  0  0  0  0
  197.3040  184.8729  155.2675 H   0  0  0  0  0  0  0  0  0  0  0  0
  197.6929  186.5601  155.2129 H   0  0  0  0  0  0  0  0  0  0  0  0
  200.7541  185.1002  154.0995 H   0  0  0  0  0  0  0  0  0  0  0  0
  199.4838  186.2621  153.7388 H   0  0  0  0  0  0  0  0  0  0  0  0
  199.1354  184.5290  153.6815 H   0  0  0  0  0  0  0  0  0  0  0  0
  200.7116  183.8255  156.0994 H   0  0  0  0  0  0  0  0  0  0  0  0
  199.0800  183.2398  155.7626 H   0  0  0  0  0  0  0  0  0  0  0  0
  199.4447  184.0478  157.2921 H   0  0  0  0  0  0  0  0  0  0  0  0
  195.9378  180.4964  157.3365 H   0  0  0  0  0  0  0  0  0  0  0  0
  195.4293  181.4193  155.0102 H   0  0  0  0  0  0  0  0  0  0  0  0
  196.7189  182.5212  155.2872 H   0  0  0  0  0  0  0  0  0  0  0  0
  200.3487  177.5731  153.0368 H   0  0  0  0  0  0  0  0  0  0  0  0
  201.8995  175.7108  153.5158 H   0  0  0  0  0  0  0  0  0  0  0  0
  202.3459  175.0247  155.8698 H   0  0  0  0  0  0  0  0  0  0  0  0
  201.2282  176.2238  157.7359 H   0  0  0  0  0  0  0  0  0  0  0  0
  199.6791  178.0700  157.2904 H   0  0  0  0  0  0  0  0  0  0  0  0
  198.0839  179.4358  156.7845 H   0  0  0  0  0  0  0  0  0  0  0  0
  196.7021  183.0760  153.4338 H   0  0  0  0  0  0  0  0  0  0  0  0
  196.1096  184.2205  151.5236 H   0  0  0  0  0  0  0  0  0  0  0  0
  196.6169  183.3030  149.2504 H   0  0  0  0  0  0  0  0  0  0  0  0
  197.7329  181.0684  149.0587 H   0  0  0  0  0  0  0  0  0  0  0  0
  198.3296  179.7859  151.0899 H   0  0  0  0  0  0  0  0  0  0  0  0
  1  2  2  0
  2  3  1  0
  2 14  1  0
  3  4  1  0
  3 33  1  0
  4  5  1  0
  4  9  2  0
  5  6  2  0
  5 10  1  0
  6  7  1  0
  6 34  1  0
  7  8  2  0
  7 35  1  0
  8  9  1  0
  8 36  1  0
  9 37  1  0
 10 11  1  0
 10 38  1  6
 10 39  1  0
 11 12  1  0
 11 13  1  0
 12 40  1  1
 12 41  1  0
 12 42  1  0
 13 43  1  1
 13 44  1  0
 13 45  1  0
 14 15  1  0
 14 46  1  0
 15 16  1  0
 15 47  1  6
 15 48  1  0
 16 17  1  0
 16 26  2  0
 17 18  2  0
 17 27  1  0
 18 19  1  0
 19 20  1  0
 19 26  1  0
 20 21  2  0
 20 25  1  0
 21 22  1  0
 21 49  1  0
 22 23  2  0
 22 50  1  0
 23 24  1  0
 23 51  1  0
 24 25  2  0
 24 52  1  0
 25 53  1  0
 26 54  1  0
 27 28  2  0
 27 32  1  0
 28 29  1  0
 28 55  1  0
 29 30  2  0
 29 56  1  0
 30 31  1  0
 30 57  1  0
 31 32  2  0
 31 58  1  0
 32 59  1  0
M  END
>  <s_epik_cmdline>  (1140) 
J2VwaWtfcHl0aG9uJywgJy1waCcsICc3LjAwMDAwMCcsICctcGh0JywgJzIuMDAwMDAwJywgJy1tcycsICcxNicsICctdG4nLCAnOCcsICctbWEnLCAnMjAwJywgJy1pbWFlJywgJzxpbmZpbGUubWFlPicsICctb21hZScsICc8b3V0ZmlsZS5tYWU+Jw==

>  <s_epik_input>  (1140) 
W2NIXTFbY0hdW2NIXVtjSF1jKFtDSDJdTihbQ0gzXSlbQ0gzXSljMVtOSF1DKD1PKVtOSF1bQ0gyXWMyYygtYzNbY0hdW2NIXVtjSF1bY0hdW2NIXTMpbm4oW2NIXTIpLWM0W2NIXVtjSF1bY0hdW2NIXVtjSF00

>  <s_i_glide_gridfile>  (1140) 
ATP-Grid

>  <s_lp_Force_Field>  (1140) 
OPLS_2005

>  <s_lp_Variant>  (1140) 
m_2430bbb____22523280____742118-2

>  <s_lp_label>  (1140) 
1497_sdstereoexpander_1_neutralizer_1_epik_2_stereoizer_1

>  <s_m_source_file>  (1140) 
ATP-VSW-LIGPREP-001-in.maegz

>  <s_sd_BIOSOLVEIT.INFINISEE\_QUERY\_NAME>  (1140) 
Ref-Lig

>  <s_sd_BIOSOLVEIT.INFINISEE\_QUERY\_SMILES>  (1140) 
S(c1nc2c(cc1C[NH2+]Cc3ccc(cc3)C[NH+](C)C)cccc2)Cc4ccccc4

>  <s_sd_BIOSOLVEIT.INFINISEE\_REACTION\_NAME>  (1140) 
m_2430bbb

>  <s_sd_BIOSOLVEIT.INFINISEE\_REAGENT1\_SMILES>  (1140) 
[R1*]C(=O)Nc1c(cccc1)CN(C)C

>  <s_sd_BIOSOLVEIT.INFINISEE\_REAGENT2\_SMILES>  (1140) 
[R1*]NCC=1C(=NN(c2ccccc2)C1)c3ccccc3

>  <s_sd_BIOSOLVEIT.INFINISEE\_SPACE>  (1140) 
REALSpace_44bn_2023-08

>  <s_vsw_compound_code>  (1140) 
47873

>  <s_vsw_variant>  (1140) 
47873-2

>  <r_epik_Charging_Adjusted_Penalty>  (1140) 
1.61674938877301

>  <r_epik_Ionization_Penalty>  (1140) 
1.6168

>  <r_epik_Ionization_Penalty_Charging>  (1140) 
0

>  <r_epik_Ionization_Penalty_Neutral>  (1140) 
1.6168

>  <r_epik_State_Penalty>  (1140) 
1.6167

>  <r_i_docking_score>  (1140) 
-2.52173005455312

>  <r_i_glide_ecoul>  (1140) 
-6.6880044937133798

>  <r_i_glide_eff_state_penalty>  (1140) 
1.6167

>  <r_i_glide_einternal>  (1140) 
12.984565734863301

>  <r_i_glide_emodel>  (1140) 
-45.615435782739503

>  <r_i_glide_energy>  (1140) 
-40.219357490539601

>  <r_i_glide_erotb>  (1140) 
0.87646932989534398

>  <r_i_glide_esite>  (1140) 
-0.22982574959034699

>  <r_i_glide_evdw>  (1140) 
-33.5313529968262

>  <r_i_glide_gscore>  (1140) 
-4.1384300545531199

>  <r_i_glide_hbond>  (1140) 
-0.14175312492014899

>  <r_i_glide_ligand_efficiency>  (1140) 
-0.078804064204784904

>  <r_i_glide_ligand_efficiency_ln>  (1140) 
-0.56468409897955596

>  <r_i_glide_ligand_efficiency_sa>  (1140) 
-0.250187308547062

>  <r_i_glide_lipo>  (1140) 
-1.4557713678578299

>  <r_i_glide_metal>  (1140) 
-0

>  <r_i_glide_rewards>  (1140) 
-0.50778081818181697

>  <r_lp_Energy>  (1140) 
26.820774

>  <r_lp_tautomer_probability>  (1140) 
1

>  <r_qp_ACxDN^.5/SA>  (1140) 
0.0095568000000000007

>  <r_qp_CIQPlogS>  (1140) 
-5.476

>  <r_qp_EA(eV)>  (1140) 
0.59599999999999997

>  <r_qp_FISA>  (1140) 
66.411000000000001

>  <r_qp_FOSA>  (1140) 
151.00399999999999

>  <r_qp_IP(eV)>  (1140) 
8.6820000000000004

>  <r_qp_Jm>  (1140) 
0.0135303284722917

>  <r_qp_PISA>  (1140) 
522.48500000000001

>  <r_qp_PSA>  (1140) 
64.822999999999993

>  <r_qp_PercentHumanOralAbsorption>  (1140) 
100

>  <r_qp_QPPCaco>  (1140) 
387.48399999999998

>  <r_qp_QPPMDCK>  (1140) 
303.452

>  <r_qp_QPlogBB>  (1140) 
-0.017999999999999999

>  <r_qp_QPlogHERG>  (1140) 
-6.4859999999999998

>  <r_qp_QPlogKhsa>  (1140) 
0.78000000000000003

>  <r_qp_QPlogKp>  (1140) 
-2.4849999999999999

>  <r_qp_QPlogPC16>  (1140) 
15.605

>  <r_qp_QPlogPo/w>  (1140) 
4.6470000000000002

>  <r_qp_QPlogPoct>  (1140) 
23.148

>  <r_qp_QPlogPw>  (1140) 
13.882

>  <r_qp_QPlogS>  (1140) 
-5.0119999999999996

>  <r_qp_QPpolrz>  (1140) 
50.606000000000002

>  <r_qp_SASA>  (1140) 
739.89999999999998

>  <r_qp_SAamideO>  (1140) 
21.956

>  <r_qp_SAfluorine>  (1140) 
0

>  <r_qp_WPSA>  (1140) 
0

>  <r_qp_accptHB>  (1140) 
5

>  <r_qp_dip^2/V>  (1140) 
0.038997900000000002

>  <r_qp_dipole>  (1140) 
7.3200000000000003

>  <r_qp_donorHB>  (1140) 
2

>  <r_qp_glob>  (1140) 
0.80775699999999995

>  <r_qp_mol_MW>  (1140) 
425.53199999999998

>  <r_qp_volume>  (1140) 
1373.829

>  <r_sd_BIOSOLVEIT.INFINISEE\_FTREES\_SIMILARITY>  (1140) 
0.90700000000000003

>  <r_sd_BIOSOLVEIT.LOGP>  (1140) 
3.5055000000000001

>  <r_sd_BIOSOLVEIT.MOLECULAR\_WEIGHT>  (1140) 
426.541

>  <r_sd_BIOSOLVEIT.TPSA>  (1140) 
63.390000000000001

>  <i_epik_Tot_Q>  (1140) 
0

>  <i_epik_Tot_abs_Q>  (1140) 
0

>  <i_f3d_flags>  (1140) 
0

>  <i_i_glide_confnum>  (1140) 
11

>  <i_i_glide_lignum>  (1140) 
385

>  <i_i_glide_posenum>  (1140) 
3

>  <i_i_glide_rotatable_bonds>  (1140) 
9

>  <i_lp_mmshare_version>  (1140) 
65135

>  <i_m_ct_format>  (1140) 
2

>  <i_m_source_file_index>  (1140) 
1497

>  <i_qp_#NandO>  (1140) 
6

>  <i_qp_#acid>  (1140) 
0

>  <i_qp_#amide>  (1140) 
1

>  <i_qp_#amidine>  (1140) 
0

>  <i_qp_#amine>  (1140) 
1

>  <i_qp_#in34>  (1140) 
0

>  <i_qp_#in56>  (1140) 
23

>  <i_qp_#metab>  (1140) 
4

>  <i_qp_#nonHatm>  (1140) 
32

>  <i_qp_#noncon>  (1140) 
0

>  <i_qp_#ringatoms>  (1140) 
23

>  <i_qp_#rotor>  (1140) 
5

>  <i_qp_#rtvFG>  (1140) 
0

>  <i_qp_#stars>  (1140) 
1

>  <i_qp_CNS>  (1140) 
1

>  <i_qp_HumanOralAbsorption>  (1140) 
3

>  <i_qp_RuleOfFive>  (1140) 
0

>  <i_qp_RuleOfThree>  (1140) 
0

>  <i_sd_BIOSOLVEIT.INFINISEE\_REAGENT1\_NAME>  (1140) 
22523280

>  <i_sd_BIOSOLVEIT.INFINISEE\_REAGENT2\_NAME>  (1140) 
742118

>  <i_sd_BIOSOLVEIT.INFINISEE\_RESULT\_RANK>  (1140) 
59159

>  <i_sd_version>  (1140) 
0

>  <b_lp_Chiralities_Consistent>  (1140) 
1

>  <b_sd_chiral_flag>  (1140) 
0

>  <canonical_id>  (1140) 
ATP-HTVS-B64EA431F59B

>  <compound_code>  (1140) 
47873

>  <title>  (1140) 
m_2430bbb____22523280____742118

>  <variant>  (1140) 
47873-2

>  <source_file>  (1140) 
运行/运行/ATP-VSW/ATP-VSW-DOCK_HTVS_1-001_lib/ATP-VSW-DOCK_HTVS_1-001_lib

>  <canonical_smiles>  (1140) 
CN(C)Cc1ccccc1NC(=O)NCc1cn(-c2ccccc2)nc1-c1ccccc1

>  <scaffold>  (1140) 
O=C(NCc1cn(-c2ccccc2)nc1-c1ccccc1)Nc1ccccc1

>  <molecular_formula>  (1140) 
C26H27N5O

$$$$
ATP-HTVS-B64FB026F9D3
     RDKit          3D

 66 69  0  0  0  0  0  0  0  0999 V2000
  198.3260  177.4798  151.0576 O   0  0  0  0  0  0  0  0  0  0  0  0
  199.0829  176.5388  150.8962 C   0  0  0  0  0  0  0  0  0  0  0  0
  199.0680  175.7798  149.7696 O   0  0  0  0  0  0  0  0  0  0  0  0
  200.2047  175.0371  149.3540 C   0  0  2  0  0  0  0  0  0  0  0  0
  200.0186  176.0436  151.8119 N   0  0  0  0  0  0  0  0  0  0  0  0
  200.5060  176.6766  152.9952 C   0  0  0  0  0  0  0  0  0  0  0  0
  200.4571  178.0690  153.1923 C   0  0  0  0  0  0  0  0  0  0  0  0
  201.0083  178.6416  154.3594 C   0  0  0  0  0  0  0  0  0  0  0  0
  201.6321  177.7887  155.3115 C   0  0  0  0  0  0  0  0  0  0  0  0
  201.6819  176.3961  155.1038 C   0  0  0  0  0  0  0  0  0  0  0  0
  201.1355  175.8432  153.9397 C   0  0  0  0  0  0  0  0  0  0  0  0
  200.9377  180.1349  154.5505 C   0  0  0  0  0  0  0  0  0  0  0  0
  200.5960  180.8775  153.6312 O   0  0  0  0  0  0  0  0  0  0  0  0
  201.2506  180.5393  155.7943 N   0  0  0  0  0  0  0  0  0  0  0  0
  201.2078  181.8345  156.3777 C   0  0  0  0  0  0  0  0  0  0  0  0
  200.6233  182.8879  155.7567 N   0  0  0  0  0  0  0  0  0  0  0  0
  200.6080  184.0909  156.3563 C   0  0  0  0  0  0  0  0  0  0  0  0
  201.1689  184.3410  157.6189 C   0  0  0  0  0  0  0  0  0  0  0  0
  201.1240  185.6432  158.1655 N   0  0  0  0  0  0  0  0  0  0  0  0
  200.2454  185.9394  159.3011 C   0  0  1  0  0  0  0  0  0  0  0  0
  198.8550  185.3139  159.2979 C   0  0  0  0  0  0  0  0  0  0  0  0
  198.7077  183.9504  159.6149 C   0  0  0  0  0  0  0  0  0  0  0  0
  197.4271  183.3629  159.6112 C   0  0  0  0  0  0  0  0  0  0  0  0
  196.2962  184.1153  159.2672 C   0  0  0  0  0  0  0  0  0  0  0  0
  196.4380  185.4991  158.9965 C   0  0  0  0  0  0  0  0  0  0  0  0
  197.7164  186.0939  159.0087 C   0  0  0  0  0  0  0  0  0  0  0  0
  194.9450  183.4224  159.1714 C   0  0  1  0  0  0  0  0  0  0  0  0
  194.7811  182.4624  158.0288 N   0  0  1  0  0  0  0  0  0  0  0  0
  196.0052  181.7860  157.5484 C   0  0  2  0  0  0  0  0  0  0  0  0
  193.6987  181.4894  158.2672 C   0  0  2  0  0  0  0  0  0  0  0  0
  201.7766  183.2451  158.2944 C   0  0  0  0  0  0  0  0  0  0  0  0
  201.7938  181.9658  157.6679 C   0  0  0  0  0  0  0  0  0  0  0  0
  202.4059  180.8780  158.3469 C   0  0  0  0  0  0  0  0  0  0  0  0
  202.9768  181.0551  159.6205 C   0  0  0  0  0  0  0  0  0  0  0  0
  202.9517  182.3187  160.2336 C   0  0  0  0  0  0  0  0  0  0  0  0
  202.3685  183.4068  159.5639 C   0  0  0  0  0  0  0  0  0  0  0  0
  199.9708  174.4433  148.4607 H   0  0  0  0  0  0  0  0  0  0  0  0
  200.5646  174.3319  150.1101 H   0  0  0  0  0  0  0  0  0  0  0  0
  201.0200  175.7249  149.1002 H   0  0  0  0  0  0  0  0  0  0  0  0
  200.4082  175.1483  151.6117 H   0  0  0  0  0  0  0  0  0  0  0  0
  200.0229  178.7166  152.4404 H   0  0  0  0  0  0  0  0  0  0  0  0
  202.0899  178.1636  156.2166 H   0  0  0  0  0  0  0  0  0  0  0  0
  202.1567  175.7666  155.8399 H   0  0  0  0  0  0  0  0  0  0  0  0
  201.1938  174.7796  153.7831 H   0  0  0  0  0  0  0  0  0  0  0  0
  201.5679  179.8087  156.4043 H   0  0  0  0  0  0  0  0  0  0  0  0
  200.1171  184.8818  155.8038 H   0  0  0  0  0  0  0  0  0  0  0  0
  201.2640  186.4206  157.5212 H   0  0  0  0  0  0  0  0  0  0  0  0
  200.7164  185.6325  160.2316 H   0  0  0  0  0  0  0  0  0  0  0  0
  200.1265  187.0235  159.3716 H   0  0  0  0  0  0  0  0  0  0  0  0
  199.5611  183.3261  159.8210 H   0  0  0  0  0  0  0  0  0  0  0  0
  197.3497  182.3077  159.7641 H   0  0  0  0  0  0  0  0  0  0  0  0
  195.5723  186.0965  158.7346 H   0  0  0  0  0  0  0  0  0  0  0  0
  197.8279  187.1487  158.7858 H   0  0  0  0  0  0  0  0  0  0  0  0
  194.7798  182.9206  160.1218 H   0  0  0  0  0  0  0  0  0  0  0  0
  194.1466  184.1614  159.1006 H   0  0  0  0  0  0  0  0  0  0  0  0
  196.4244  181.1466  158.3300 H   0  0  0  0  0  0  0  0  0  0  0  0
  196.7697  182.4770  157.2151 H   0  0  0  0  0  0  0  0  0  0  0  0
  195.7732  181.1510  156.6683 H   0  0  0  0  0  0  0  0  0  0  0  0
  193.9305  180.8374  159.1090 H   0  0  0  0  0  0  0  0  0  0  0  0
  193.5588  180.8630  157.3871 H   0  0  0  0  0  0  0  0  0  0  0  0
  192.7529  181.9957  158.4566 H   0  0  0  0  0  0  0  0  0  0  0  0
  202.4667  179.8876  157.9196 H   0  0  0  0  0  0  0  0  0  0  0  0
  203.4459  180.2259  160.1306 H   0  0  0  0  0  0  0  0  0  0  0  0
  203.3926  182.4642  161.2088 H   0  0  0  0  0  0  0  0  0  0  0  0
  202.3925  184.3741  160.0387 H   0  0  0  0  0  0  0  0  0  0  0  0
  194.4617  182.9888  157.2256 H   0  0  0  0  0  0  0  0  0  0  0  0
  1  2  2  0
  2  3  1  0
  2  5  1  0
  3  4  1  0
  4 37  1  6
  4 38  1  0
  4 39  1  0
  5  6  1  0
  5 40  1  0
  6  7  1  0
  6 11  2  0
  7  8  2  0
  7 41  1  0
  8  9  1  0
  8 12  1  0
  9 10  2  0
  9 42  1  0
 10 11  1  0
 10 43  1  0
 11 44  1  0
 12 13  2  0
 12 14  1  0
 14 15  1  0
 14 45  1  0
 15 16  1  0
 15 32  2  0
 16 17  2  0
 17 18  1  0
 17 46  1  0
 18 19  1  0
 18 31  2  0
 19 20  1  0
 19 47  1  0
 20 21  1  0
 20 48  1  1
 20 49  1  0
 21 22  1  0
 21 26  2  0
 22 23  2  0
 22 50  1  0
 23 24  1  0
 23 51  1  0
 24 25  2  0
 24 27  1  0
 25 26  1  0
 25 52  1  0
 26 53  1  0
 27 28  1  0
 27 54  1  1
 27 55  1  0
 28 29  1  0
 28 30  1  0
 28 66  1  6
 29 56  1  1
 29 57  1  0
 29 58  1  0
 30 59  1  1
 30 60  1  0
 30 61  1  0
 31 32  1  0
 31 36  1  0
 32 33  1  0
 33 34  2  0
 33 62  1  0
 34 35  1  0
 34 63  1  0
 35 36  2  0
 35 64  1  0
 36 65  1  0
M  CHG  1  28   1
M  END
>  <s_epik_Chemistry_Notes>  (1141) 
This compound has an ester and may undergo hydrolysis at high or low pH.

>  <s_epik_cmdline>  (1141) 
J2VwaWtfcHl0aG9uJywgJy1waCcsICc3LjAwMDAwMCcsICctcGh0JywgJzIuMDAwMDAwJywgJy1tcycsICcxNicsICctdG4nLCAnOCcsICctbWEnLCAnMjAwJywgJy1pbWFlJywgJzxpbmZpbGUubWFlPicsICctb21hZScsICc8b3V0ZmlsZS5tYWU+Jw==

>  <s_epik_input>  (1141) 
W0NIM11PQyg9TylbTkhdYzFbY0hdYyhbY0hdW2NIXVtjSF0xKUMoPU8pW05IXWMoYyhjMjMpW2NIXVtjSF1bY0hdW2NIXTMpbltjSF1jMltOSF1bQ0gyXWM0W2NIXVtjSF1jKFtjSF1bY0hdNClbQ0gyXU4oW0NIM10pW0NIM10=

>  <s_i_glide_gridfile>  (1141) 
ATP-Grid

>  <s_lp_Force_Field>  (1141) 
OPLS_2005

>  <s_lp_Variant>  (1141) 
rxn502b____EMOL32441976____EMOL7515103____EMOL50155899-1

>  <s_lp_label>  (1141) 
2515_sdstereoexpander_1_neutralizer_1_epik_1_stereoizer_1

>  <s_m_source_file>  (1141) 
ATP-VSW-LIGPREP-001-in.maegz

>  <s_sd_BIOSOLVEIT.INFINISEE\_QUERY\_NAME>  (1141) 
Ref-Lig

>  <s_sd_BIOSOLVEIT.INFINISEE\_QUERY\_SMILES>  (1141) 
S(c1nc2c(cc1C[NH2+]Cc3ccc(cc3)C[NH+](C)C)cccc2)Cc4ccccc4

>  <s_sd_BIOSOLVEIT.INFINISEE\_REACTION\_NAME>  (1141) 
rxn502b

>  <s_sd_BIOSOLVEIT.INFINISEE\_REAGENT1\_NAME>  (1141) 
EMOL32441976

>  <s_sd_BIOSOLVEIT.INFINISEE\_REAGENT1\_SMILES>  (1141) 
O=C(OC)Nc1cc(ccc1)C(=O)O

>  <s_sd_BIOSOLVEIT.INFINISEE\_REAGENT2\_NAME>  (1141) 
EMOL7515103

>  <s_sd_BIOSOLVEIT.INFINISEE\_REAGENT2\_SMILES>  (1141) 
Brc1c2c(c(nc1)N)cccc2

>  <s_sd_BIOSOLVEIT.INFINISEE\_REAGENT3\_NAME>  (1141) 
EMOL50155899

>  <s_sd_BIOSOLVEIT.INFINISEE\_REAGENT3\_SMILES>  (1141) 
N(Cc1ccc(cc1)CN)(C)C

>  <s_sd_BIOSOLVEIT.INFINISEE\_SPACE>  (1141) 
eXplore_7tr_2022-12

>  <s_vsw_compound_code>  (1141) 
80449

>  <s_vsw_variant>  (1141) 
80449-1

>  <r_epik_Charging_Adjusted_Penalty>  (1141) 
0.078407994868761793

>  <r_epik_Ionization_Penalty>  (1141) 
0.039300000000000002

>  <r_epik_Ionization_Penalty_Charging>  (1141) 
0.039199999999999999

>  <r_epik_Ionization_Penalty_Neutral>  (1141) 
0.0001

>  <r_epik_State_Penalty>  (1141) 
0.039199999999999999

>  <r_i_docking_score>  (1141) 
-4.4502907926242798

>  <r_i_glide_ecoul>  (1141) 
-10.2194910049438

>  <r_i_glide_eff_state_penalty>  (1141) 
0.039199999999999999

>  <r_i_glide_einternal>  (1141) 
16.2178134918213

>  <r_i_glide_emodel>  (1141) 
-51.533475681063599

>  <r_i_glide_energy>  (1141) 
-42.683983802795403

>  <r_i_glide_erotb>  (1141) 
0.77842426714859003

>  <r_i_glide_esite>  (1141) 
-0.10019587199079601

>  <r_i_glide_evdw>  (1141) 
-32.464492797851598

>  <r_i_glide_gscore>  (1141) 
-4.48949079262428

>  <r_i_glide_hbond>  (1141) 
-0.17736097138599

>  <r_i_glide_ligand_efficiency>  (1141) 
-0.12361918868400799

>  <r_i_glide_ligand_efficiency_ln>  (1141) 
-0.97093321798803101

>  <r_i_glide_ligand_efficiency_sa>  (1141) 
-0.40818156711439602

>  <r_i_glide_lipo>  (1141) 
-1.50798356476192

>  <r_i_glide_metal>  (1141) 
-0

>  <r_i_glide_rewards>  (1141) 
-0.32622636100000701

>  <r_lp_Energy>  (1141) 
30.894525999999999

>  <r_qp_ACxDN^.5/SA>  (1141) 
0.017896200000000001

>  <r_qp_CIQPlogS>  (1141) 
-5.6109999999999998

>  <r_qp_EA(eV)>  (1141) 
0.71499999999999997

>  <r_qp_FISA>  (1141) 
137.066

>  <r_qp_FOSA>  (1141) 
314.87099999999998

>  <r_qp_IP(eV)>  (1141) 
7.5999999999999996

>  <r_qp_Jm>  (1141) 
5.5894198284414797e-05

>  <r_qp_PISA>  (1141) 
419.11000000000001

>  <r_qp_PSA>  (1141) 
109.602

>  <r_qp_PercentHumanOralAbsorption>  (1141) 
88.137

>  <r_qp_QPPCaco>  (1141) 
123.881

>  <r_qp_QPPMDCK>  (1141) 
57.262999999999998

>  <r_qp_QPlogBB>  (1141) 
-1.147

>  <r_qp_QPlogHERG>  (1141) 
-8.3109999999999999

>  <r_qp_QPlogKhsa>  (1141) 
0.64500000000000002

>  <r_qp_QPlogKp>  (1141) 
-3.8639999999999999

>  <r_qp_QPlogPC16>  (1141) 
17.763000000000002

>  <r_qp_QPlogPo/w>  (1141) 
4.0529999999999999

>  <r_qp_QPlogPoct>  (1141) 
28.234000000000002

>  <r_qp_QPlogPw>  (1141) 
17.093

>  <r_qp_QPlogS>  (1141) 
-6.0730000000000004

>  <r_qp_QPpolrz>  (1141) 
55.475000000000001

>  <r_qp_SASA>  (1141) 
871.04700000000003

>  <r_qp_SAamideO>  (1141) 
0

>  <r_qp_SAfluorine>  (1141) 
0

>  <r_qp_WPSA>  (1141) 
0

>  <r_qp_accptHB>  (1141) 
9

>  <r_qp_dip^2/V>  (1141) 
0.032936800000000002

>  <r_qp_dipole>  (1141) 
7.1870000000000003

>  <r_qp_donorHB>  (1141) 
3

>  <r_qp_glob>  (1141) 
0.74944960000000005

>  <r_qp_mol_MW>  (1141) 
483.56900000000002

>  <r_qp_volume>  (1141) 
1568.297

>  <r_sd_BIOSOLVEIT.INFINISEE\_FTREES\_SIMILARITY>  (1141) 
0.91400000000000003

>  <r_sd_BIOSOLVEIT.LOGP>  (1141) 
3.9220000000000002

>  <r_sd_BIOSOLVEIT.MOLECULAR\_WEIGHT>  (1141) 
484.577

>  <r_sd_BIOSOLVEIT.TPSA>  (1141) 
96.790000000000006

>  <i_epik_Tot_Q>  (1141) 
1

>  <i_epik_Tot_abs_Q>  (1141) 
1

>  <i_f3d_flags>  (1141) 
0

>  <i_i_glide_confnum>  (1141) 
2

>  <i_i_glide_lignum>  (1141) 
990

>  <i_i_glide_posenum>  (1141) 
11

>  <i_i_glide_rotatable_bonds>  (1141) 
11

>  <i_lp_mmshare_version>  (1141) 
65135

>  <i_m_ct_format>  (1141) 
2

>  <i_m_source_file_index>  (1141) 
2515

>  <i_qp_#NandO>  (1141) 
8

>  <i_qp_#acid>  (1141) 
0

>  <i_qp_#amide>  (1141) 
0

>  <i_qp_#amidine>  (1141) 
0

>  <i_qp_#amine>  (1141) 
1

>  <i_qp_#in34>  (1141) 
0

>  <i_qp_#in56>  (1141) 
22

>  <i_qp_#metab>  (1141) 
8

>  <i_qp_#nonHatm>  (1141) 
36

>  <i_qp_#noncon>  (1141) 
0

>  <i_qp_#ringatoms>  (1141) 
22

>  <i_qp_#rotor>  (1141) 
8

>  <i_qp_#rtvFG>  (1141) 
0

>  <i_qp_#stars>  (1141) 
2

>  <i_qp_CNS>  (1141) 
-2

>  <i_qp_HumanOralAbsorption>  (1141) 
3

>  <i_qp_RuleOfFive>  (1141) 
0

>  <i_qp_RuleOfThree>  (1141) 
2

>  <i_sd_BIOSOLVEIT.INFINISEE\_RESULT\_RANK>  (1141) 
32229

>  <i_sd_version>  (1141) 
0

>  <b_lp_Chiralities_Consistent>  (1141) 
1

>  <b_sd_chiral_flag>  (1141) 
0

>  <canonical_id>  (1141) 
ATP-HTVS-B64FB026F9D3

>  <compound_code>  (1141) 
80449

>  <title>  (1141) 
rxn502b____EMOL32441976____EMOL7515103____EMOL50155899

>  <variant>  (1141) 
80449-1

>  <source_file>  (1141) 
运行/运行/ATP-VSW/ATP-VSW-DOCK_HTVS_1-001_lib/ATP-VSW-DOCK_HTVS_1-001_lib

>  <canonical_smiles>  (1141) 
COC(=O)Nc1cccc(C(=O)Nc2ncc(NCc3ccc(C[NH+](C)C)cc3)c3ccccc23)c1

>  <scaffold>  (1141) 
O=C(Nc1ncc(NCc2ccccc2)c2ccccc12)c1ccccc1

>  <molecular_formula>  (1141) 
C28H30N5O3+

$$$$
ATP-HTVS-B6843249DE88
     RDKit          3D

 55 57  0  0  0  0  0  0  0  0999 V2000
  197.9169  185.9772  158.5059 S   0  0  0  0  0  0  0  0  0  0  0  0
  196.7734  184.6472  158.6656 C   0  0  0  0  0  0  0  0  0  0  0  0
  195.4322  184.9030  159.0069 C   0  0  0  0  0  0  0  0  0  0  0  0
  194.5206  183.8350  159.1280 C   0  0  0  0  0  0  0  0  0  0  0  0
  194.9543  182.5107  158.9098 C   0  0  0  0  0  0  0  0  0  0  0  0
  196.2944  182.2578  158.5634 C   0  0  0  0  0  0  0  0  0  0  0  0
  197.2054  183.3253  158.4380 C   0  0  0  0  0  0  0  0  0  0  0  0
  197.3422  186.9084  157.0647 C   0  0  1  0  0  0  0  0  0  0  0  0
  198.5339  187.5201  156.3454 C   0  0  0  0  0  0  0  0  0  0  0  0
  199.1377  187.1863  155.1495 C   0  0  0  0  0  0  0  0  0  0  0  0
  200.2000  188.0184  154.9014 O   0  0  0  0  0  0  0  0  0  0  0  0
  200.2838  188.8802  155.9394 C   0  0  0  0  0  0  0  0  0  0  0  0
  199.2991  188.6197  156.8500 C   0  0  0  0  0  0  0  0  0  0  0  0
  198.8677  186.1370  154.1223 C   0  0  0  0  0  0  0  0  0  0  0  0
  199.5945  186.0099  153.1465 O   0  0  0  0  0  0  0  0  0  0  0  0
  197.7710  185.3924  154.3373 N   0  0  0  0  0  0  0  0  0  0  0  0
  197.2420  184.3545  153.4652 C   0  0  1  0  0  0  0  0  0  0  0  0
  197.5939  182.9702  153.9624 C   0  0  0  0  0  0  0  0  0  0  0  0
  198.7213  182.3128  153.4293 C   0  0  0  0  0  0  0  0  0  0  0  0
  199.0627  181.0186  153.8737 C   0  0  0  0  0  0  0  0  0  0  0  0
  198.2710  180.3849  154.8575 C   0  0  0  0  0  0  0  0  0  0  0  0
  197.1469  181.0388  155.3918 C   0  0  0  0  0  0  0  0  0  0  0  0
  196.8139  182.3323  154.9550 C   0  0  0  0  0  0  0  0  0  0  0  0
  198.6206  178.9911  155.3212 C   0  0  1  0  0  0  0  0  0  0  0  0
  199.6553  178.9958  156.4646 C   0  0  1  0  0  0  0  0  0  0  0  0
  199.9447  177.6350  156.9825 N   0  0  1  0  0  0  0  0  0  0  0  0
  200.4131  176.6758  155.9472 C   0  0  2  0  0  0  0  0  0  0  0  0
  200.8802  177.6582  158.1263 C   0  0  2  0  0  0  0  0  0  0  0  0
  195.0920  185.9141  159.1734 H   0  0  0  0  0  0  0  0  0  0  0  0
  193.4903  184.0268  159.3888 H   0  0  0  0  0  0  0  0  0  0  0  0
  194.2631  181.6829  158.9951 H   0  0  0  0  0  0  0  0  0  0  0  0
  196.6231  181.2397  158.3980 H   0  0  0  0  0  0  0  0  0  0  0  0
  198.2296  183.1266  158.1614 H   0  0  0  0  0  0  0  0  0  0  0  0
  196.7683  186.2232  156.4458 H   0  0  0  0  0  0  0  0  0  0  0  0
  196.6534  187.6982  157.3631 H   0  0  0  0  0  0  0  0  0  0  0  0
  201.0934  189.5946  155.8851 H   0  0  0  0  0  0  0  0  0  0  0  0
  199.1576  189.1552  157.7730 H   0  0  0  0  0  0  0  0  0  0  0  0
  197.2339  185.5853  155.1583 H   0  0  0  0  0  0  0  0  0  0  0  0
  196.1627  184.4706  153.4577 H   0  0  0  0  0  0  0  0  0  0  0  0
  197.5623  184.4779  152.4323 H   0  0  0  0  0  0  0  0  0  0  0  0
  199.3320  182.8000  152.6813 H   0  0  0  0  0  0  0  0  0  0  0  0
  199.9210  180.5163  153.4487 H   0  0  0  0  0  0  0  0  0  0  0  0
  196.5311  180.5394  156.1318 H   0  0  0  0  0  0  0  0  0  0  0  0
  195.9461  182.8187  155.3902 H   0  0  0  0  0  0  0  0  0  0  0  0
  197.7174  178.4622  155.6316 H   0  0  0  0  0  0  0  0  0  0  0  0
  199.0037  178.4856  154.4364 H   0  0  0  0  0  0  0  0  0  0  0  0
  200.5816  179.4792  156.1492 H   0  0  0  0  0  0  0  0  0  0  0  0
  199.2571  179.5878  157.2956 H   0  0  0  0  0  0  0  0  0  0  0  0
  201.3269  177.0445  155.4877 H   0  0  0  0  0  0  0  0  0  0  0  0
  199.6758  176.5105  155.1666 H   0  0  0  0  0  0  0  0  0  0  0  0
  200.6340  175.7032  156.3815 H   0  0  0  0  0  0  0  0  0  0  0  0
  201.8491  178.0809  157.8521 H   0  0  0  0  0  0  0  0  0  0  0  0
  201.0452  176.6491  158.5013 H   0  0  0  0  0  0  0  0  0  0  0  0
  200.4733  178.2436  158.9481 H   0  0  0  0  0  0  0  0  0  0  0  0
  199.0421  177.3399  157.3595 H   0  0  0  0  0  0  0  0  0  0  0  0
  1  2  1  0
  1  8  1  0
  2  3  2  0
  2  7  1  0
  3  4  1  0
  3 29  1  0
  4  5  2  0
  4 30  1  0
  5  6  1  0
  5 31  1  0
  6  7  2  0
  6 32  1  0
  7 33  1  0
  8  9  1  0
  8 34  1  6
  8 35  1  0
  9 10  2  0
  9 13  1  0
 10 11  1  0
 10 14  1  0
 11 12  1  0
 12 13  2  0
 12 36  1  0
 13 37  1  0
 14 15  2  0
 14 16  1  0
 16 17  1  0
 16 38  1  0
 17 18  1  0
 17 39  1  6
 17 40  1  0
 18 19  1  0
 18 23  2  0
 19 20  2  0
 19 41  1  0
 20 21  1  0
 20 42  1  0
 21 22  2  0
 21 24  1  0
 22 23  1  0
 22 43  1  0
 23 44  1  0
 24 25  1  0
 24 45  1  1
 24 46  1  0
 25 26  1  0
 25 47  1  6
 25 48  1  0
 26 27  1  0
 26 28  1  0
 26 55  1  1
 27 49  1  6
 27 50  1  0
 27 51  1  0
 28 52  1  6
 28 53  1  0
 28 54  1  0
M  CHG  1  26   1
M  END
>  <s_epik_cmdline>  (1142) 
J2VwaWtfcHl0aG9uJywgJy1waCcsICc3LjAwMDAwMCcsICctcGh0JywgJzIuMDAwMDAwJywgJy1tcycsICcxNicsICctdG4nLCAnOCcsICctbWEnLCAnMjAwJywgJy1pbWFlJywgJzxpbmZpbGUubWFlPicsICctb21hZScsICc8b3V0ZmlsZS5tYWU+Jw==

>  <s_epik_input>  (1142) 
W2NIXTFbY0hdW2NIXVtjSF1bY0hdYzFTW0NIMl1jMmMob1tjSF1bY0hdMilDKD1PKVtOSF1bQ0gyXWMzW2NIXVtjSF1jKFtjSF1bY0hdMylbQ0gyXVtDSDJdTihbQ0gzXSlbQ0gzXQ==

>  <s_i_glide_gridfile>  (1142) 
ATP-Grid

>  <s_lp_Force_Field>  (1142) 
OPLS_2005

>  <s_lp_Variant>  (1142) 
m_527bbb____9173210____159332-1

>  <s_lp_label>  (1142) 
1881_sdstereoexpander_1_neutralizer_1_epik_1_stereoizer_1

>  <s_m_source_file>  (1142) 
ATP-VSW-LIGPREP-002-in.maegz

>  <s_sd_BIOSOLVEIT.INFINISEE\_QUERY\_NAME>  (1142) 
Ref-Lig

>  <s_sd_BIOSOLVEIT.INFINISEE\_QUERY\_SMILES>  (1142) 
S(c1nc2c(cc1C[NH2+]Cc3ccc(cc3)C[NH+](C)C)cccc2)Cc4ccccc4

>  <s_sd_BIOSOLVEIT.INFINISEE\_REACTION\_NAME>  (1142) 
m_527bbb

>  <s_sd_BIOSOLVEIT.INFINISEE\_REAGENT1\_SMILES>  (1142) 
[R1*]NCc1ccc(cc1)CCN(C)C

>  <s_sd_BIOSOLVEIT.INFINISEE\_REAGENT2\_SMILES>  (1142) 
[R1*]C(=O)C=1OC=CC1CSc2ccccc2

>  <s_sd_BIOSOLVEIT.INFINISEE\_SPACE>  (1142) 
REALSpace_44bn_2023-08

>  <s_vsw_compound_code>  (1142) 
60162

>  <s_vsw_variant>  (1142) 
60162-1

>  <r_epik_Charging_Adjusted_Penalty>  (1142) 
0.0083786032408328607

>  <r_epik_Ionization_Penalty>  (1142) 
0.0041999999999999997

>  <r_epik_Ionization_Penalty_Charging>  (1142) 
0.0041999999999999997

>  <r_epik_Ionization_Penalty_Neutral>  (1142) 
0

>  <r_epik_State_Penalty>  (1142) 
0.0041999999999999997

>  <r_i_docking_score>  (1142) 
-3.8096467400680698

>  <r_i_glide_ecoul>  (1142) 
-8.8936204910278303

>  <r_i_glide_eff_state_penalty>  (1142) 
0.0041999999999999997

>  <r_i_glide_einternal>  (1142) 
2.6460325717925999

>  <r_i_glide_emodel>  (1142) 
-54.066557913173398

>  <r_i_glide_energy>  (1142) 
-41.422692298889203

>  <r_i_glide_erotb>  (1142) 
1.12497293535439

>  <r_i_glide_esite>  (1142) 
-0.104439216618035

>  <r_i_glide_evdw>  (1142) 
-32.5290718078613

>  <r_i_glide_gscore>  (1142) 
-3.8138467400680698

>  <r_i_glide_hbond>  (1142) 
-0.20000000000000001

>  <r_i_glide_ligand_efficiency>  (1142) 
-0.13605881214528801

>  <r_i_glide_ligand_efficiency_ln>  (1142) 
-0.87937832369644897

>  <r_i_glide_ligand_efficiency_sa>  (1142) 
-0.413154688027979

>  <r_i_glide_lipo>  (1142) 
-0.961647522029903

>  <r_i_glide_metal>  (1142) 
-0

>  <r_i_glide_rewards>  (1142) 
-0.71223627272727097

>  <r_lp_Energy>  (1142) 
14.013342

>  <r_qp_ACxDN^.5/SA>  (1142) 
0.0083046000000000005

>  <r_qp_CIQPlogS>  (1142) 
-5.0069999999999997

>  <r_qp_EA(eV)>  (1142) 
0.34699999999999998

>  <r_qp_FISA>  (1142) 
34.576000000000001

>  <r_qp_FOSA>  (1142) 
281.40699999999998

>  <r_qp_IP(eV)>  (1142) 
8.6549999999999994

>  <r_qp_Jm>  (1142) 
0.35499494364144801

>  <r_qp_PISA>  (1142) 
310.89299999999997

>  <r_qp_PSA>  (1142) 
47.737000000000002

>  <r_qp_PercentHumanOralAbsorption>  (1142) 
100

>  <r_qp_QPPCaco>  (1142) 
1161.222

>  <r_qp_QPPMDCK>  (1142) 
1005.423

>  <r_qp_QPlogBB>  (1142) 
0.185

>  <r_qp_QPlogHERG>  (1142) 
-6.218

>  <r_qp_QPlogKhsa>  (1142) 
0.56599999999999995

>  <r_qp_QPlogKp>  (1142) 
-2.2599999999999998

>  <r_qp_QPlogPC16>  (1142) 
12.725

>  <r_qp_QPlogPo/w>  (1142) 
4.5659999999999998

>  <r_qp_QPlogPoct>  (1142) 
18.029

>  <r_qp_QPlogPw>  (1142) 
8.5719999999999992

>  <r_qp_QPlogS>  (1142) 
-3.786

>  <r_qp_QPpolrz>  (1142) 
41.020000000000003

>  <r_qp_SASA>  (1142) 
662.28099999999995

>  <r_qp_SAamideO>  (1142) 
0

>  <r_qp_SAfluorine>  (1142) 
0

>  <r_qp_WPSA>  (1142) 
35.405999999999999

>  <r_qp_accptHB>  (1142) 
5.5

>  <r_qp_dip^2/V>  (1142) 
0.0217947

>  <r_qp_dipole>  (1142) 
5.2169999999999996

>  <r_qp_donorHB>  (1142) 
1

>  <r_qp_glob>  (1142) 
0.84688810000000003

>  <r_qp_mol_MW>  (1142) 
394.53100000000001

>  <r_qp_volume>  (1142) 
1248.979

>  <r_sd_BIOSOLVEIT.INFINISEE\_FTREES\_SIMILARITY>  (1142) 
0.90300000000000002

>  <r_sd_BIOSOLVEIT.LOGP>  (1142) 
3.1888999999999998

>  <r_sd_BIOSOLVEIT.MOLECULAR\_WEIGHT>  (1142) 
395.54300000000001

>  <r_sd_BIOSOLVEIT.TPSA>  (1142) 
46.68

>  <i_epik_Tot_Q>  (1142) 
1

>  <i_epik_Tot_abs_Q>  (1142) 
1

>  <i_f3d_flags>  (1142) 
0

>  <i_i_glide_confnum>  (1142) 
10

>  <i_i_glide_lignum>  (1142) 
669

>  <i_i_glide_posenum>  (1142) 
9

>  <i_i_glide_rotatable_bonds>  (1142) 
10

>  <i_lp_mmshare_version>  (1142) 
65135

>  <i_m_ct_format>  (1142) 
2

>  <i_m_source_file_index>  (1142) 
1881

>  <i_qp_#NandO>  (1142) 
4

>  <i_qp_#acid>  (1142) 
0

>  <i_qp_#amide>  (1142) 
0

>  <i_qp_#amidine>  (1142) 
0

>  <i_qp_#amine>  (1142) 
1

>  <i_qp_#in34>  (1142) 
0

>  <i_qp_#in56>  (1142) 
17

>  <i_qp_#metab>  (1142) 
5

>  <i_qp_#nonHatm>  (1142) 
28

>  <i_qp_#noncon>  (1142) 
0

>  <i_qp_#ringatoms>  (1142) 
17

>  <i_qp_#rotor>  (1142) 
9

>  <i_qp_#rtvFG>  (1142) 
0

>  <i_qp_#stars>  (1142) 
0

>  <i_qp_CNS>  (1142) 
1

>  <i_qp_HumanOralAbsorption>  (1142) 
3

>  <i_qp_RuleOfFive>  (1142) 
0

>  <i_qp_RuleOfThree>  (1142) 
0

>  <i_sd_BIOSOLVEIT.INFINISEE\_REAGENT1\_NAME>  (1142) 
9173210

>  <i_sd_BIOSOLVEIT.INFINISEE\_REAGENT2\_NAME>  (1142) 
159332

>  <i_sd_BIOSOLVEIT.INFINISEE\_RESULT\_RANK>  (1142) 
83110

>  <i_sd_version>  (1142) 
0

>  <b_lp_Chiralities_Consistent>  (1142) 
1

>  <b_sd_chiral_flag>  (1142) 
0

>  <canonical_id>  (1142) 
ATP-HTVS-B6843249DE88

>  <compound_code>  (1142) 
60162

>  <title>  (1142) 
m_527bbb____9173210____159332

>  <variant>  (1142) 
60162-1

>  <source_file>  (1142) 
运行/运行/ATP-VSW/ATP-VSW-DOCK_HTVS_1-002_lib.maegz

>  <canonical_smiles>  (1142) 
C[NH+](C)CCc1ccc(CNC(=O)c2occc2CSc2ccccc2)cc1

>  <scaffold>  (1142) 
O=C(NCc1ccccc1)c1occc1CSc1ccccc1

>  <molecular_formula>  (1142) 
C23H27N2O2S+

$$$$
ATP-HTVS-B685FDB22E51
     RDKit          3D

 65 68  0  0  0  0  0  0  0  0999 V2000
  201.0861  181.6248  149.3009 O   0  0  0  0  0  0  0  0  0  0  0  0
  200.1210  181.4065  150.0423 C   0  0  0  0  0  0  0  0  0  0  0  0
  199.2032  182.3497  150.3476 N   0  0  0  0  0  0  0  0  0  0  0  0
  198.1939  182.1892  151.3126 N   0  0  0  0  0  0  0  0  0  0  0  0
  198.0192  181.1062  152.0008 C   0  0  0  0  0  0  0  0  0  0  0  0
  198.9082  179.9477  151.7373 C   0  0  0  0  0  0  0  0  0  0  0  0
  199.9215  180.0785  150.7215 C   0  0  0  0  0  0  0  0  0  0  0  0
  200.7032  178.9648  150.3948 C   0  0  0  0  0  0  0  0  0  0  0  0
  200.5978  177.7364  151.0896 C   0  0  0  0  0  0  0  0  0  0  0  0
  199.6309  177.6302  152.1163 C   0  0  0  0  0  0  0  0  0  0  0  0
  198.7770  178.7051  152.4126 C   0  0  0  0  0  0  0  0  0  0  0  0
  196.8766  181.0487  153.0199 C   0  0  1  0  0  0  0  0  0  0  0  0
  197.3299  180.9880  154.5012 C   0  0  0  0  0  0  0  0  0  0  0  0
  197.4081  179.8872  155.0361 O   0  0  0  0  0  0  0  0  0  0  0  0
  197.6512  182.1262  155.1613 N   0  0  0  0  0  0  0  0  0  0  0  0
  198.1960  182.1127  156.5269 C   0  0  1  0  0  0  0  0  0  0  0  0
  197.2562  182.6495  157.6100 C   0  0  0  0  0  0  0  0  0  0  0  0
  197.7188  183.4233  158.7109 C   0  0  0  0  0  0  0  0  0  0  0  0
  196.8062  183.8327  159.7103 C   0  0  0  0  0  0  0  0  0  0  0  0
  195.4436  183.5041  159.6212 C   0  0  0  0  0  0  0  0  0  0  0  0
  194.9833  182.7481  158.5342 C   0  0  0  0  0  0  0  0  0  0  0  0
  195.8867  182.3193  157.5423 C   0  0  0  0  0  0  0  0  0  0  0  0
  199.1736  183.8454  158.8664 C   0  0  1  0  0  0  0  0  0  0  0  0
  199.4624  185.1147  158.1471 N   0  0  1  0  0  0  0  0  0  0  0  0
  198.7118  186.2839  158.6705 C   0  0  2  0  0  0  0  0  0  0  0  0
  200.9151  185.3913  158.0753 C   0  0  2  0  0  0  0  0  0  0  0  0
  197.4280  183.4512  154.5804 C   0  0  2  0  0  0  0  0  0  0  0  0
  199.3067  183.7004  149.7938 C   0  0  1  0  0  0  0  0  0  0  0  0
  198.8724  183.8847  148.3265 C   0  0  0  0  0  0  0  0  0  0  0  0
  197.9318  184.9079  148.0206 C   0  0  0  0  0  0  0  0  0  0  0  0
  197.5033  185.1066  146.6740 C   0  0  0  0  0  0  0  0  0  0  0  0
  198.0059  184.2741  145.6370 C   0  0  0  0  0  0  0  0  0  0  0  0
  198.9513  183.2804  145.9661 C   0  0  0  0  0  0  0  0  0  0  0  0
  199.4114  183.0708  147.2831 C   0  0  0  0  0  0  0  0  0  0  0  0
  201.4411  179.0594  149.6217 H   0  0  0  0  0  0  0  0  0  0  0  0
  201.2652  176.9270  150.8458 H   0  0  0  0  0  0  0  0  0  0  0  0
  199.5525  176.7052  152.6725 H   0  0  0  0  0  0  0  0  0  0  0  0
  198.0308  178.5682  153.1808 H   0  0  0  0  0  0  0  0  0  0  0  0
  196.1664  181.8878  152.8690 H   0  0  0  0  0  0  0  0  0  0  0  0
  196.2824  180.1667  152.8150 H   0  0  0  0  0  0  0  0  0  0  0  0
  198.4932  181.1072  156.8540 H   0  0  0  0  0  0  0  0  0  0  0  0
  199.1000  182.6960  156.4413 H   0  0  0  0  0  0  0  0  0  0  0  0
  197.1482  184.4072  160.5572 H   0  0  0  0  0  0  0  0  0  0  0  0
  194.7547  183.8176  160.3934 H   0  0  0  0  0  0  0  0  0  0  0  0
  193.9418  182.4787  158.4494 H   0  0  0  0  0  0  0  0  0  0  0  0
  195.5122  181.7239  156.7235 H   0  0  0  0  0  0  0  0  0  0  0  0
  199.4051  183.9614  159.9262 H   0  0  0  0  0  0  0  0  0  0  0  0
  199.8325  183.0465  158.5218 H   0  0  0  0  0  0  0  0  0  0  0  0
  198.9296  186.4465  159.7272 H   0  0  0  0  0  0  0  0  0  0  0  0
  197.6357  186.1558  158.5610 H   0  0  0  0  0  0  0  0  0  0  0  0
  198.9688  187.1943  158.1258 H   0  0  0  0  0  0  0  0  0  0  0  0
  201.3358  185.5376  159.0713 H   0  0  0  0  0  0  0  0  0  0  0  0
  201.1116  186.2923  157.4933 H   0  0  0  0  0  0  0  0  0  0  0  0
  201.4489  184.5689  157.5971 H   0  0  0  0  0  0  0  0  0  0  0  0
  197.9069  183.5588  153.6067 H   0  0  0  0  0  0  0  0  0  0  0  0
  197.8371  184.2486  155.2049 H   0  0  0  0  0  0  0  0  0  0  0  0
  196.3578  183.6167  154.4586 H   0  0  0  0  0  0  0  0  0  0  0  0
  198.7529  184.3875  150.4132 H   0  0  0  0  0  0  0  0  0  0  0  0
  200.3301  184.0688  149.9151 H   0  0  0  0  0  0  0  0  0  0  0  0
  197.5222  185.5705  148.7872 H   0  0  0  0  0  0  0  0  0  0  0  0
  196.7830  185.8738  146.4355 H   0  0  0  0  0  0  0  0  0  0  0  0
  197.6735  184.4014  144.6068 H   0  0  0  0  0  0  0  0  0  0  0  0
  199.3393  182.6418  145.1845 H   0  0  0  0  0  0  0  0  0  0  0  0
  200.1483  182.3121  147.4497 H   0  0  0  0  0  0  0  0  0  0  0  0
  199.1456  184.9794  157.1968 H   0  0  0  0  0  0  0  0  0  0  0  0
  1  2  2  0
  2  3  1  0
  2  7  1  0
  3  4  1  0
  3 28  1  0
  4  5  2  0
  5  6  1  0
  5 12  1  0
  6  7  1  0
  6 11  2  0
  7  8  2  0
  8  9  1  0
  8 35  1  0
  9 10  2  0
  9 36  1  0
 10 11  1  0
 10 37  1  0
 11 38  1  0
 12 13  1  0
 12 39  1  1
 12 40  1  0
 13 14  2  0
 13 15  1  0
 15 16  1  0
 15 27  1  0
 16 17  1  0
 16 41  1  1
 16 42  1  0
 17 18  1  0
 17 22  2  0
 18 19  2  0
 18 23  1  0
 19 20  1  0
 19 43  1  0
 20 21  2  0
 20 44  1  0
 21 22  1  0
 21 45  1  0
 22 46  1  0
 23 24  1  0
 23 47  1  1
 23 48  1  0
 24 25  1  0
 24 26  1  0
 24 65  1  6
 25 49  1  1
 25 50  1  0
 25 51  1  0
 26 52  1  1
 26 53  1  0
 26 54  1  0
 27 55  1  6
 27 56  1  0
 27 57  1  0
 28 29  1  0
 28 58  1  1
 28 59  1  0
 29 30  2  0
 29 34  1  0
 30 31  1  0
 30 60  1  0
 31 32  2  0
 31 61  1  0
 32 33  1  0
 32 62  1  0
 33 34  2  0
 33 63  1  0
 34 64  1  0
M  CHG  1  24   1
M  END
>  <s_epik_cmdline>  (1143) 
J2VwaWtfcHl0aG9uJywgJy1waCcsICc3LjAwMDAwMCcsICctcGh0JywgJzIuMDAwMDAwJywgJy1tcycsICcxNicsICctdG4nLCAnOCcsICctbWEnLCAnMjAwJywgJy1pbWFlJywgJzxpbmZpbGUubWFlPicsICctb21hZScsICc8b3V0ZmlsZS5tYWU+Jw==

>  <s_epik_input>  (1143) 
W2NIXTFbY0hdW2NIXVtjSF1bY0hdYzFbQ0gyXW4oYyg9TyljKGMyMylbY0hdW2NIXVtjSF1bY0hdMyluYzJbQ0gyXUMoPU8pTihbQ0gzXSlbQ0gyXWM0YyhbQ0gyXU4oW0NIM10pW0NIM10pW2NIXVtjSF1bY0hdW2NIXTQ=

>  <s_i_glide_gridfile>  (1143) 
ATP-Grid

>  <s_lp_Force_Field>  (1143) 
OPLS_2005

>  <s_lp_Variant>  (1143) 
a1____400656____398704-1

>  <s_lp_label>  (1143) 
203_sdstereoexpander_1_neutralizer_1_epik_1_stereoizer_1

>  <s_m_source_file>  (1143) 
ATP-VSW-LIGPREP-002-in.maegz

>  <s_sd_BIOSOLVEIT.INFINISEE\_QUERY\_NAME>  (1143) 
Ref-Lig

>  <s_sd_BIOSOLVEIT.INFINISEE\_QUERY\_SMILES>  (1143) 
S(c1nc2c(cc1C[NH2+]Cc3ccc(cc3)C[NH+](C)C)cccc2)Cc4ccccc4

>  <s_sd_BIOSOLVEIT.INFINISEE\_REACTION\_NAME>  (1143) 
a1

>  <s_sd_BIOSOLVEIT.INFINISEE\_REAGENT1\_SMILES>  (1143) 
[R1*]N(Cc1c(cccc1)CN(C)C)C

>  <s_sd_BIOSOLVEIT.INFINISEE\_REAGENT2\_SMILES>  (1143) 
[R1*]C(=O)CC1=NN(C(=O)c2c1cccc2)Cc3ccccc3

>  <s_sd_BIOSOLVEIT.INFINISEE\_SPACE>  (1143) 
FreedomSpace_5bn_2023-06

>  <s_vsw_compound_code>  (1143) 
6466

>  <s_vsw_variant>  (1143) 
6466-1

>  <r_epik_Charging_Adjusted_Penalty>  (1143) 
0.089106888626511699

>  <r_epik_Ionization_Penalty>  (1143) 
0.044600000000000001

>  <r_epik_Ionization_Penalty_Charging>  (1143) 
0.044600000000000001

>  <r_epik_Ionization_Penalty_Neutral>  (1143) 
0

>  <r_epik_State_Penalty>  (1143) 
0.044600000000000001

>  <r_i_docking_score>  (1143) 
-2.43146582223229

>  <r_i_glide_ecoul>  (1143) 
-1.20826947689056

>  <r_i_glide_eff_state_penalty>  (1143) 
0.044600000000000001

>  <r_i_glide_einternal>  (1143) 
2.6431980133056601

>  <r_i_glide_emodel>  (1143) 
-38.137961611909397

>  <r_i_glide_energy>  (1143) 
-32.641428351402297

>  <r_i_glide_erotb>  (1143) 
0.77439018997812004

>  <r_i_glide_esite>  (1143) 
-0.050300458550505002

>  <r_i_glide_evdw>  (1143) 
-31.433158874511701

>  <r_i_glide_gscore>  (1143) 
-2.47606582223229

>  <r_i_glide_hbond>  (1143) 
0

>  <r_i_glide_ligand_efficiency>  (1143) 
-0.071513700653890899

>  <r_i_glide_ligand_efficiency_ln>  (1143) 
-0.53717900043732802

>  <r_i_glide_ligand_efficiency_sa>  (1143) 
-0.23167662831904501

>  <r_i_glide_lipo>  (1143) 
-1.1443345065825501

>  <r_i_glide_metal>  (1143) 
-0

>  <r_i_glide_rewards>  (1143) 
-0.30292268181818099

>  <r_lp_Energy>  (1143) 
37.203066999999997

>  <r_qp_ACxDN^.5/SA>  (1143) 
0

>  <r_qp_CIQPlogS>  (1143) 
-5.109

>  <r_qp_EA(eV)>  (1143) 
0.67600000000000005

>  <r_qp_FISA>  (1143) 
73.281000000000006

>  <r_qp_FOSA>  (1143) 
247.66999999999999

>  <r_qp_IP(eV)>  (1143) 
9.0259999999999998

>  <r_qp_Jm>  (1143) 
20.069884441895599

>  <r_qp_PISA>  (1143) 
333.67399999999998

>  <r_qp_PSA>  (1143) 
65.209999999999994

>  <r_qp_PercentHumanOralAbsorption>  (1143) 
90.183000000000007

>  <r_qp_QPPCaco>  (1143) 
275.87

>  <r_qp_QPPMDCK>  (1143) 
258.03100000000001

>  <r_qp_QPlogBB>  (1143) 
-0.128

>  <r_qp_QPlogHERG>  (1143) 
-4.149

>  <r_qp_QPlogKhsa>  (1143) 
-0.035000000000000003

>  <r_qp_QPlogKp>  (1143) 
-2.9889999999999999

>  <r_qp_QPlogPC16>  (1143) 
13.484999999999999

>  <r_qp_QPlogPo/w>  (1143) 
3.339

>  <r_qp_QPlogPoct>  (1143) 
19.553000000000001

>  <r_qp_QPlogPw>  (1143) 
11.584

>  <r_qp_QPlogS>  (1143) 
-1.3660000000000001

>  <r_qp_QPpolrz>  (1143) 
45.401000000000003

>  <r_qp_SASA>  (1143) 
654.625

>  <r_qp_SAamideO>  (1143) 
32.308

>  <r_qp_SAfluorine>  (1143) 
0

>  <r_qp_WPSA>  (1143) 
0

>  <r_qp_accptHB>  (1143) 
7

>  <r_qp_dip^2/V>  (1143) 
0.045111199999999997

>  <r_qp_dipole>  (1143) 
7.766

>  <r_qp_donorHB>  (1143) 
0

>  <r_qp_glob>  (1143) 
0.89657540000000002

>  <r_qp_mol_MW>  (1143) 
454.57100000000003

>  <r_qp_volume>  (1143) 
1336.97

>  <r_sd_BIOSOLVEIT.INFINISEE\_FTREES\_SIMILARITY>  (1143) 
0.92200000000000004

>  <r_sd_BIOSOLVEIT.LOGP>  (1143) 
2.2904

>  <r_sd_BIOSOLVEIT.MOLECULAR\_WEIGHT>  (1143) 
455.57900000000001

>  <r_sd_BIOSOLVEIT.TPSA>  (1143) 
59.640000000000001

>  <i_epik_Tot_Q>  (1143) 
1

>  <i_epik_Tot_abs_Q>  (1143) 
1

>  <i_f3d_flags>  (1143) 
0

>  <i_i_glide_confnum>  (1143) 
1

>  <i_i_glide_lignum>  (1143) 
147

>  <i_i_glide_posenum>  (1143) 
19

>  <i_i_glide_rotatable_bonds>  (1143) 
9

>  <i_lp_mmshare_version>  (1143) 
65135

>  <i_m_ct_format>  (1143) 
2

>  <i_m_source_file_index>  (1143) 
203

>  <i_qp_#NandO>  (1143) 
6

>  <i_qp_#acid>  (1143) 
0

>  <i_qp_#amide>  (1143) 
1

>  <i_qp_#amidine>  (1143) 
0

>  <i_qp_#amine>  (1143) 
1

>  <i_qp_#in34>  (1143) 
0

>  <i_qp_#in56>  (1143) 
22

>  <i_qp_#metab>  (1143) 
5

>  <i_qp_#nonHatm>  (1143) 
34

>  <i_qp_#noncon>  (1143) 
0

>  <i_qp_#ringatoms>  (1143) 
22

>  <i_qp_#rotor>  (1143) 
8

>  <i_qp_#rtvFG>  (1143) 
0

>  <i_qp_#stars>  (1143) 
0

>  <i_qp_CNS>  (1143) 
1

>  <i_qp_HumanOralAbsorption>  (1143) 
3

>  <i_qp_RuleOfFive>  (1143) 
0

>  <i_qp_RuleOfThree>  (1143) 
0

>  <i_sd_BIOSOLVEIT.INFINISEE\_REAGENT1\_NAME>  (1143) 
400656

>  <i_sd_BIOSOLVEIT.INFINISEE\_REAGENT2\_NAME>  (1143) 
398704

>  <i_sd_BIOSOLVEIT.INFINISEE\_RESULT\_RANK>  (1143) 
13772

>  <i_sd_version>  (1143) 
0

>  <b_lp_Chiralities_Consistent>  (1143) 
1

>  <b_sd_chiral_flag>  (1143) 
0

>  <canonical_id>  (1143) 
ATP-HTVS-B685FDB22E51

>  <compound_code>  (1143) 
6466

>  <title>  (1143) 
a1____400656____398704

>  <variant>  (1143) 
6466-1

>  <source_file>  (1143) 
运行/运行/ATP-VSW/ATP-VSW-DOCK_HTVS_1-002_lib.maegz

>  <canonical_smiles>  (1143) 
CN(Cc1ccccc1C[NH+](C)C)C(=O)Cc1nn(Cc2ccccc2)c(=O)c2ccccc12

>  <scaffold>  (1143) 
O=C(Cc1nn(Cc2ccccc2)c(=O)c2ccccc12)NCc1ccccc1

>  <molecular_formula>  (1143) 
C28H31N4O2+

$$$$
ATP-HTVS-B699C037922C
     RDKit          3D

 52 54  0  0  0  0  0  0  0  0999 V2000
  196.5614  189.0852  160.9071 S   0  0  0  0  0  0  0  0  0  0  0  0
  196.2607  187.4615  160.3200 C   0  0  0  0  0  0  0  0  0  0  0  0
  195.1500  186.7063  160.9478 C   0  0  0  0  0  0  0  0  0  0  0  0
  195.1437  185.4767  160.9259 O   0  0  0  0  0  0  0  0  0  0  0  0
  194.1472  187.4254  161.4744 N   0  0  0  0  0  0  0  0  0  0  0  0
  192.9333  186.8779  162.0632 C   0  0  1  0  0  0  0  0  0  0  0  0
  191.9004  187.9376  162.4204 C   0  0  0  0  0  0  0  0  0  0  0  0
  191.0483  188.4584  161.4213 C   0  0  0  0  0  0  0  0  0  0  0  0
  191.1586  188.0170  160.1471 F   0  0  0  0  0  0  0  0  0  0  0  0
  190.0776  189.4294  161.7488 C   0  0  0  0  0  0  0  0  0  0  0  0
  189.9538  189.8854  163.0753 C   0  0  0  0  0  0  0  0  0  0  0  0
  190.8082  189.3712  164.0724 C   0  0  0  0  0  0  0  0  0  0  0  0
  191.7741  188.4009  163.7455 C   0  0  0  0  0  0  0  0  0  0  0  0
  197.1832  187.1087  159.3519 C   0  0  0  0  0  0  0  0  0  0  0  0
  197.2177  185.8767  158.6699 N   0  0  0  0  0  0  0  0  0  0  0  0
  198.3100  185.4655  157.7967 C   0  0  1  0  0  0  0  0  0  0  0  0
  197.8978  184.3926  156.8134 C   0  0  0  0  0  0  0  0  0  0  0  0
  197.4699  183.1343  157.2829 C   0  0  0  0  0  0  0  0  0  0  0  0
  197.0620  182.1360  156.3627 C   0  0  0  0  0  0  0  0  0  0  0  0
  197.1263  182.3898  154.9823 C   0  0  0  0  0  0  0  0  0  0  0  0
  197.5496  183.6535  154.5158 C   0  0  0  0  0  0  0  0  0  0  0  0
  197.9304  184.6573  155.4307 C   0  0  0  0  0  0  0  0  0  0  0  0
  196.7264  181.3035  153.9968 C   0  0  1  0  0  0  0  0  0  0  0  0
  197.6676  180.1856  153.8931 N   0  0  0  0  0  0  0  0  0  0  0  0
  197.6711  179.3783  155.1064 C   0  0  2  0  0  0  0  0  0  0  0  0
  197.3008  179.3275  152.7727 C   0  0  2  0  0  0  0  0  0  0  0  0
  198.1281  188.1492  159.0867 C   0  0  0  0  0  0  0  0  0  0  0  0
  197.9192  189.2723  159.8370 C   0  0  0  0  0  0  0  0  0  0  0  0
  194.1876  188.4292  161.3742 H   0  0  0  0  0  0  0  0  0  0  0  0
  192.4818  186.1741  161.3585 H   0  0  0  0  0  0  0  0  0  0  0  0
  193.1898  186.2959  162.9549 H   0  0  0  0  0  0  0  0  0  0  0  0
  189.4128  189.8082  160.9868 H   0  0  0  0  0  0  0  0  0  0  0  0
  189.1983  190.6147  163.3272 H   0  0  0  0  0  0  0  0  0  0  0  0
  190.7030  189.7113  165.0923 H   0  0  0  0  0  0  0  0  0  0  0  0
  192.4085  188.0011  164.5249 H   0  0  0  0  0  0  0  0  0  0  0  0
  196.5163  185.1853  158.8968 H   0  0  0  0  0  0  0  0  0  0  0  0
  198.6883  186.3136  157.2248 H   0  0  0  0  0  0  0  0  0  0  0  0
  199.1330  185.0952  158.4060 H   0  0  0  0  0  0  0  0  0  0  0  0
  197.4585  182.9231  158.3454 H   0  0  0  0  0  0  0  0  0  0  0  0
  196.7314  181.1766  156.7175 H   0  0  0  0  0  0  0  0  0  0  0  0
  197.5805  183.8659  153.4574 H   0  0  0  0  0  0  0  0  0  0  0  0
  198.2331  185.6273  155.0641 H   0  0  0  0  0  0  0  0  0  0  0  0
  195.7402  180.9305  154.2780 H   0  0  0  0  0  0  0  0  0  0  0  0
  196.6031  181.7651  153.0171 H   0  0  0  0  0  0  0  0  0  0  0  0
  198.3160  178.5003  154.9976 H   0  0  0  0  0  0  0  0  0  0  0  0
  196.6741  179.0218  155.3349 H   0  0  0  0  0  0  0  0  0  0  0  0
  197.9894  179.9700  155.9796 H   0  0  0  0  0  0  0  0  0  0  0  0
  197.9933  178.4902  152.7011 H   0  0  0  0  0  0  0  0  0  0  0  0
  197.3493  179.8581  151.8226 H   0  0  0  0  0  0  0  0  0  0  0  0
  196.2930  178.9287  152.8880 H   0  0  0  0  0  0  0  0  0  0  0  0
  198.9335  188.0561  158.3717 H   0  0  0  0  0  0  0  0  0  0  0  0
  198.4962  190.1837  159.8442 H   0  0  0  0  0  0  0  0  0  0  0  0
  1  2  1  0
  1 28  1  0
  2  3  1  0
  2 14  2  0
  3  4  2  0
  3  5  1  0
  5  6  1  0
  5 29  1  0
  6  7  1  0
  6 30  1  6
  6 31  1  0
  7  8  1  0
  7 13  2  0
  8  9  1  0
  8 10  2  0
 10 11  1  0
 10 32  1  0
 11 12  2  0
 11 33  1  0
 12 13  1  0
 12 34  1  0
 13 35  1  0
 14 15  1  0
 14 27  1  0
 15 16  1  0
 15 36  1  0
 16 17  1  0
 16 37  1  6
 16 38  1  0
 17 18  1  0
 17 22  2  0
 18 19  2  0
 18 39  1  0
 19 20  1  0
 19 40  1  0
 20 21  2  0
 20 23  1  0
 21 22  1  0
 21 41  1  0
 22 42  1  0
 23 24  1  0
 23 43  1  1
 23 44  1  0
 24 25  1  0
 24 26  1  0
 25 45  1  6
 25 46  1  0
 25 47  1  0
 26 48  1  6
 26 49  1  0
 26 50  1  0
 27 28  2  0
 27 51  1  0
 28 52  1  0
M  END
>  <s_epik_cmdline>  (1144) 
J2VwaWtfcHl0aG9uJywgJy1waCcsICc3LjAwMDAwMCcsICctcGh0JywgJzIuMDAwMDAwJywgJy1tcycsICcxNicsICctdG4nLCAnOCcsICctbWEnLCAnMjAwJywgJy1pbWFlJywgJzxpbmZpbGUubWFlPicsICctb21hZScsICc8b3V0ZmlsZS5tYWU+Jw==

>  <s_epik_input>  (1144) 
W2NIXTFbY0hdW2NIXVtjSF1jKEYpYzFbQ0gyXVtOSF1DKD1PKWMyc1tjSF1bY0hdYzJbTkhdW0NIMl1jM1tjSF1bY0hdYyhbY0hdW2NIXTMpW0NIMl1OKFtDSDNdKVtDSDNd

>  <s_i_glide_gridfile>  (1144) 
ATP-Grid

>  <s_lp_Force_Field>  (1144) 
OPLS_2005

>  <s_lp_Variant>  (1144) 
rxn512b____EMOL484455____EMOL525138____EMOL50155899-2

>  <s_lp_label>  (1144) 
2798_sdstereoexpander_1_neutralizer_1_epik_2_stereoizer_1

>  <s_m_source_file>  (1144) 
ATP-VSW-LIGPREP-002-in.maegz

>  <s_sd_BIOSOLVEIT.INFINISEE\_QUERY\_NAME>  (1144) 
Ref-Lig

>  <s_sd_BIOSOLVEIT.INFINISEE\_QUERY\_SMILES>  (1144) 
S(c1nc2c(cc1C[NH2+]Cc3ccc(cc3)C[NH+](C)C)cccc2)Cc4ccccc4

>  <s_sd_BIOSOLVEIT.INFINISEE\_REACTION\_NAME>  (1144) 
rxn512b

>  <s_sd_BIOSOLVEIT.INFINISEE\_REAGENT1\_NAME>  (1144) 
EMOL484455

>  <s_sd_BIOSOLVEIT.INFINISEE\_REAGENT1\_SMILES>  (1144) 
Fc1c(cccc1)CN

>  <s_sd_BIOSOLVEIT.INFINISEE\_REAGENT2\_NAME>  (1144) 
EMOL525138

>  <s_sd_BIOSOLVEIT.INFINISEE\_REAGENT2\_SMILES>  (1144) 
BrC1=C(SC=C1)C(=O)O

>  <s_sd_BIOSOLVEIT.INFINISEE\_REAGENT3\_NAME>  (1144) 
EMOL50155899

>  <s_sd_BIOSOLVEIT.INFINISEE\_REAGENT3\_SMILES>  (1144) 
N(Cc1ccc(cc1)CN)(C)C

>  <s_sd_BIOSOLVEIT.INFINISEE\_SPACE>  (1144) 
eXplore_7tr_2022-12

>  <s_vsw_compound_code>  (1144) 
89506

>  <s_vsw_variant>  (1144) 
89506-2

>  <r_epik_Charging_Adjusted_Penalty>  (1144) 
1.6155483608401799

>  <r_epik_Ionization_Penalty>  (1144) 
1.6155999999999999

>  <r_epik_Ionization_Penalty_Charging>  (1144) 
0

>  <r_epik_Ionization_Penalty_Neutral>  (1144) 
1.6155999999999999

>  <r_epik_State_Penalty>  (1144) 
1.6154999999999999

>  <r_i_docking_score>  (1144) 
-3.0347001656384101

>  <r_i_glide_ecoul>  (1144) 
-2.2083382606506299

>  <r_i_glide_eff_state_penalty>  (1144) 
1.6154999999999999

>  <r_i_glide_einternal>  (1144) 
5.2307109832763699

>  <r_i_glide_emodel>  (1144) 
-50.6741532363122

>  <r_i_glide_energy>  (1144) 
-41.572866916656501

>  <r_i_glide_erotb>  (1144) 
0.86719051808005598

>  <r_i_glide_esite>  (1144) 
-0.0099215088432548105

>  <r_i_glide_evdw>  (1144) 
-39.364528656005902

>  <r_i_glide_gscore>  (1144) 
-4.6502001656384104

>  <r_i_glide_hbond>  (1144) 
-0.019637488392611702

>  <r_i_glide_ligand_efficiency>  (1144) 
-0.1083821487728

>  <r_i_glide_ligand_efficiency_ln>  (1144) 
-0.70049790089796204

>  <r_i_glide_ligand_efficiency_sa>  (1144) 
-0.32911203734611699

>  <r_i_glide_lipo>  (1144) 
-2.0931720933392302

>  <r_i_glide_metal>  (1144) 
-0

>  <r_i_glide_rewards>  (1144) 
-1.0951824212454899

>  <r_lp_Energy>  (1144) 
24.544830999999999

>  <r_lp_tautomer_probability>  (1144) 
0.99999274205267796

>  <r_qp_ACxDN^.5/SA>  (1144) 
0.0060006

>  <r_qp_CIQPlogS>  (1144) 
-4.4219999999999997

>  <r_qp_EA(eV)>  (1144) 
0.504

>  <r_qp_FISA>  (1144) 
50.061999999999998

>  <r_qp_FOSA>  (1144) 
248.959

>  <r_qp_IP(eV)>  (1144) 
8.1790000000000003

>  <r_qp_Jm>  (1144) 
0.00018610820524711801

>  <r_qp_PISA>  (1144) 
376.08699999999999

>  <r_qp_PSA>  (1144) 
52.482999999999997

>  <r_qp_PercentHumanOralAbsorption>  (1144) 
100

>  <r_qp_QPPCaco>  (1144) 
206.51900000000001

>  <r_qp_QPPMDCK>  (1144) 
282.84199999999998

>  <r_qp_QPlogBB>  (1144) 
0.502

>  <r_qp_QPlogHERG>  (1144) 
-8.468

>  <r_qp_QPlogKhsa>  (1144) 
0.95199999999999996

>  <r_qp_QPlogKp>  (1144) 
-4.4740000000000002

>  <r_qp_QPlogPC16>  (1144) 
13.779

>  <r_qp_QPlogPo/w>  (1144) 
4.9400000000000004

>  <r_qp_QPlogPoct>  (1144) 
18.736999999999998

>  <r_qp_QPlogPw>  (1144) 
8.5809999999999995

>  <r_qp_QPlogS>  (1144) 
-4.8550000000000004

>  <r_qp_QPpolrz>  (1144) 
44.713999999999999

>  <r_qp_SASA>  (1144) 
749.93100000000004

>  <r_qp_SAamideO>  (1144) 
0

>  <r_qp_SAfluorine>  (1144) 
38.082000000000001

>  <r_qp_WPSA>  (1144) 
74.822999999999993

>  <r_qp_accptHB>  (1144) 
4.5

>  <r_qp_dip^2/V>  (1144) 
0.0106201

>  <r_qp_dipole>  (1144) 
3.7290000000000001

>  <r_qp_donorHB>  (1144) 
1

>  <r_qp_glob>  (1144) 
0.77194669999999999

>  <r_qp_mol_MW>  (1144) 
397.50900000000001

>  <r_qp_volume>  (1144) 
1309.6800000000001

>  <r_sd_BIOSOLVEIT.INFINISEE\_FTREES\_SIMILARITY>  (1144) 
0.90600000000000003

>  <r_sd_BIOSOLVEIT.LOGP>  (1144) 
3.0737999999999999

>  <r_sd_BIOSOLVEIT.MOLECULAR\_WEIGHT>  (1144) 
398.52300000000002

>  <r_sd_BIOSOLVEIT.TPSA>  (1144) 
45.57

>  <i_epik_Tot_Q>  (1144) 
0

>  <i_epik_Tot_abs_Q>  (1144) 
0

>  <i_f3d_flags>  (1144) 
0

>  <i_i_glide_confnum>  (1144) 
2

>  <i_i_glide_lignum>  (1144) 
1356

>  <i_i_glide_posenum>  (1144) 
8

>  <i_i_glide_rotatable_bonds>  (1144) 
9

>  <i_lp_mmshare_version>  (1144) 
65135

>  <i_m_ct_format>  (1144) 
2

>  <i_m_source_file_index>  (1144) 
2798

>  <i_qp_#NandO>  (1144) 
4

>  <i_qp_#acid>  (1144) 
0

>  <i_qp_#amide>  (1144) 
0

>  <i_qp_#amidine>  (1144) 
0

>  <i_qp_#amine>  (1144) 
2

>  <i_qp_#in34>  (1144) 
0

>  <i_qp_#in56>  (1144) 
17

>  <i_qp_#metab>  (1144) 
6

>  <i_qp_#nonHatm>  (1144) 
28

>  <i_qp_#noncon>  (1144) 
0

>  <i_qp_#ringatoms>  (1144) 
17

>  <i_qp_#rotor>  (1144) 
8

>  <i_qp_#rtvFG>  (1144) 
0

>  <i_qp_#stars>  (1144) 
0

>  <i_qp_CNS>  (1144) 
2

>  <i_qp_HumanOralAbsorption>  (1144) 
3

>  <i_qp_RuleOfFive>  (1144) 
0

>  <i_qp_RuleOfThree>  (1144) 
0

>  <i_sd_BIOSOLVEIT.INFINISEE\_RESULT\_RANK>  (1144) 
63563

>  <i_sd_version>  (1144) 
0

>  <b_lp_Chiralities_Consistent>  (1144) 
1

>  <b_sd_chiral_flag>  (1144) 
0

>  <canonical_id>  (1144) 
ATP-HTVS-B699C037922C

>  <compound_code>  (1144) 
89506

>  <title>  (1144) 
rxn512b____EMOL484455____EMOL525138____EMOL50155899

>  <variant>  (1144) 
89506-2

>  <source_file>  (1144) 
运行/运行/ATP-VSW/ATP-VSW-DOCK_HTVS_1-002_lib.maegz

>  <canonical_smiles>  (1144) 
CN(C)Cc1ccc(CNc2ccsc2C(=O)NCc2ccccc2F)cc1

>  <scaffold>  (1144) 
O=C(NCc1ccccc1)c1sccc1NCc1ccccc1

>  <molecular_formula>  (1144) 
C22H24FN3OS

$$$$
ATP-HTVS-B6BB4D9D6C90
     RDKit          3D

 57 60  0  0  0  0  0  0  0  0999 V2000
  201.2870  180.1924  155.8399 O   0  0  0  0  0  0  0  0  0  0  0  0
  200.1476  180.0679  156.2901 C   0  0  0  0  0  0  0  0  0  0  0  0
  199.5385  178.8820  156.4620 N   0  0  0  0  0  0  0  0  0  0  0  0
  200.0813  177.6064  156.0470 C   0  0  1  0  0  0  0  0  0  0  0  0
  200.1807  177.4502  154.5427 C   0  0  0  0  0  0  0  0  0  0  0  0
  200.8777  176.4552  153.7908 C   0  0  0  0  0  0  0  0  0  0  0  0
  200.7155  176.6346  152.4826 N   0  0  0  0  0  0  0  0  0  0  0  0
  199.9434  177.7335  152.3433 N   0  0  0  0  0  0  0  0  0  0  0  0
  199.5707  178.2139  151.0593 C   0  0  0  0  0  0  0  0  0  0  0  0
  199.7488  177.4104  149.9083 C   0  0  0  0  0  0  0  0  0  0  0  0
  199.3766  177.8911  148.6380 C   0  0  0  0  0  0  0  0  0  0  0  0
  198.8233  179.1781  148.5049 C   0  0  0  0  0  0  0  0  0  0  0  0
  198.6425  179.9851  149.6433 C   0  0  0  0  0  0  0  0  0  0  0  0
  199.0140  179.5065  150.9149 C   0  0  0  0  0  0  0  0  0  0  0  0
  199.6083  178.2385  153.5809 C   0  0  0  0  0  0  0  0  0  0  0  0
  201.6989  175.3231  154.2606 C   0  0  0  0  0  0  0  0  0  0  0  0
  201.9209  174.1953  153.4431 C   0  0  0  0  0  0  0  0  0  0  0  0
  202.7061  173.1352  153.9406 C   0  0  0  0  0  0  0  0  0  0  0  0
  203.2645  173.1344  155.1696 N   0  0  0  0  0  0  0  0  0  0  0  0
  203.0541  174.2061  155.9482 C   0  0  0  0  0  0  0  0  0  0  0  0
  202.2968  175.3167  155.5440 C   0  0  0  0  0  0  0  0  0  0  0  0
  199.3345  181.2635  156.6761 C   0  0  0  0  0  0  0  0  0  0  0  0
  197.9247  181.2057  156.6298 C   0  0  0  0  0  0  0  0  0  0  0  0
  197.1543  182.3327  156.9636 C   0  0  0  0  0  0  0  0  0  0  0  0
  197.7885  183.5336  157.3370 C   0  0  0  0  0  0  0  0  0  0  0  0
  199.1930  183.6025  157.3759 C   0  0  0  0  0  0  0  0  0  0  0  0
  199.9656  182.4736  157.0424 C   0  0  0  0  0  0  0  0  0  0  0  0
  195.6434  182.2426  156.9363 C   0  0  1  0  0  0  0  0  0  0  0  0
  195.0588  181.4383  158.0334 N   0  0  2  0  0  0  0  0  0  0  0  0
  193.5835  181.4633  158.0428 C   0  0  2  0  0  0  0  0  0  0  0  0
  195.6293  181.7770  159.3502 C   0  0  2  0  0  0  0  0  0  0  0  0
  198.6293  178.8462  156.9161 H   0  0  0  0  0  0  0  0  0  0  0  0
  201.0455  177.5755  156.5354 H   0  0  0  0  0  0  0  0  0  0  0  0
  199.4767  176.8063  156.4802 H   0  0  0  0  0  0  0  0  0  0  0  0
  200.1706  176.4189  149.9868 H   0  0  0  0  0  0  0  0  0  0  0  0
  199.5185  177.2713  147.7649 H   0  0  0  0  0  0  0  0  0  0  0  0
  198.5415  179.5464  147.5292 H   0  0  0  0  0  0  0  0  0  0  0  0
  198.2228  180.9750  149.5417 H   0  0  0  0  0  0  0  0  0  0  0  0
  198.8735  180.1514  151.7689 H   0  0  0  0  0  0  0  0  0  0  0  0
  198.9849  179.1124  153.6970 H   0  0  0  0  0  0  0  0  0  0  0  0
  201.5034  174.1385  152.4451 H   0  0  0  0  0  0  0  0  0  0  0  0
  202.8932  172.2673  153.3308 H   0  0  0  0  0  0  0  0  0  0  0  0
  203.5017  174.2042  156.9315 H   0  0  0  0  0  0  0  0  0  0  0  0
  202.2340  176.1286  156.2310 H   0  0  0  0  0  0  0  0  0  0  0  0
  197.4197  180.2900  156.3509 H   0  0  0  0  0  0  0  0  0  0  0  0
  197.2010  184.4025  157.5938 H   0  0  0  0  0  0  0  0  0  0  0  0
  199.6775  184.5256  157.6557 H   0  0  0  0  0  0  0  0  0  0  0  0
  201.0436  182.5453  157.0658 H   0  0  0  0  0  0  0  0  0  0  0  0
  195.2245  183.2497  156.9490 H   0  0  0  0  0  0  0  0  0  0  0  0
  195.3926  181.7811  155.9815 H   0  0  0  0  0  0  0  0  0  0  0  0
  193.2158  182.4762  158.2177 H   0  0  0  0  0  0  0  0  0  0  0  0
  193.1956  180.8108  158.8249 H   0  0  0  0  0  0  0  0  0  0  0  0
  193.1825  181.1084  157.0933 H   0  0  0  0  0  0  0  0  0  0  0  0
  195.4460  182.8203  159.6092 H   0  0  0  0  0  0  0  0  0  0  0  0
  196.7050  181.6068  159.3428 H   0  0  0  0  0  0  0  0  0  0  0  0
  195.2049  181.1340  160.1206 H   0  0  0  0  0  0  0  0  0  0  0  0
  195.3363  180.4616  157.8568 H   0  0  0  0  0  0  0  0  0  0  0  0
  1  2  2  0
  2  3  1  0
  2 22  1  0
  3  4  1  0
  3 32  1  0
  4  5  1  0
  4 33  1  1
  4 34  1  0
  5  6  1  0
  5 15  2  0
  6  7  2  0
  6 16  1  0
  7  8  1  0
  8  9  1  0
  8 15  1  0
  9 10  2  0
  9 14  1  0
 10 11  1  0
 10 35  1  0
 11 12  2  0
 11 36  1  0
 12 13  1  0
 12 37  1  0
 13 14  2  0
 13 38  1  0
 14 39  1  0
 15 40  1  0
 16 17  2  0
 16 21  1  0
 17 18  1  0
 17 41  1  0
 18 19  2  0
 18 42  1  0
 19 20  1  0
 20 21  2  0
 20 43  1  0
 21 44  1  0
 22 23  2  0
 22 27  1  0
 23 24  1  0
 23 45  1  0
 24 25  2  0
 24 28  1  0
 25 26  1  0
 25 46  1  0
 26 27  2  0
 26 47  1  0
 27 48  1  0
 28 29  1  0
 28 49  1  6
 28 50  1  0
 29 30  1  0
 29 31  1  0
 29 57  1  6
 30 51  1  1
 30 52  1  0
 30 53  1  0
 31 54  1  1
 31 55  1  0
 31 56  1  0
M  CHG  1  29   1
M  END
>  <s_epik_cmdline>  (1145) 
J2VwaWtfcHl0aG9uJywgJy1waCcsICc3LjAwMDAwMCcsICctcGh0JywgJzIuMDAwMDAwJywgJy1tcycsICcxNicsICctdG4nLCAnOCcsICctbWEnLCAnMjAwJywgJy1pbWFlJywgJzxpbmZpbGUubWFlPicsICctb21hZScsICc8b3V0ZmlsZS5tYWU+Jw==

>  <s_epik_input>  (1145) 
W2NIXTFbY0hdW2NIXWMoW0NIMl1OKFtDSDNdKVtDSDNdKVtjSF1jMUMoPU8pW05IXVtDSDJdYzJjKC1jM1tjSF1bY0hdbltjSF1bY0hdMylubihbY0hdMiktYzRbY0hdW2NIXVtjSF1bY0hdW2NIXTQ=

>  <s_i_glide_gridfile>  (1145) 
ATP-Grid

>  <s_lp_Force_Field>  (1145) 
OPLS_2005

>  <s_lp_Variant>  (1145) 
a1____269872____222288-1

>  <s_lp_label>  (1145) 
557_sdstereoexpander_1_neutralizer_1_epik_1_stereoizer_1

>  <s_m_source_file>  (1145) 
ATP-VSW-LIGPREP-001-in.maegz

>  <s_sd_BIOSOLVEIT.INFINISEE\_QUERY\_NAME>  (1145) 
Ref-Lig

>  <s_sd_BIOSOLVEIT.INFINISEE\_QUERY\_SMILES>  (1145) 
S(c1nc2c(cc1C[NH2+]Cc3ccc(cc3)C[NH+](C)C)cccc2)Cc4ccccc4

>  <s_sd_BIOSOLVEIT.INFINISEE\_REACTION\_NAME>  (1145) 
a1

>  <s_sd_BIOSOLVEIT.INFINISEE\_REAGENT1\_SMILES>  (1145) 
[R1*]NCC=1C(=NN(c2ccccc2)C1)c3ccncc3

>  <s_sd_BIOSOLVEIT.INFINISEE\_REAGENT2\_SMILES>  (1145) 
[R1*]C(=O)c1cc(ccc1)CN(C)C

>  <s_sd_BIOSOLVEIT.INFINISEE\_SPACE>  (1145) 
FreedomSpace_5bn_2023-06

>  <s_vsw_compound_code>  (1145) 
17793

>  <s_vsw_variant>  (1145) 
17793-1

>  <r_epik_Charging_Adjusted_Penalty>  (1145) 
0.11081734857166101

>  <r_epik_Ionization_Penalty>  (1145) 
0.057799999999999997

>  <r_epik_Ionization_Penalty_Charging>  (1145) 
0.053100000000000001

>  <r_epik_Ionization_Penalty_Neutral>  (1145) 
0.0047000000000000002

>  <r_epik_State_Penalty>  (1145) 
0.057799999999999997

>  <r_i_docking_score>  (1145) 
-4.9301531168586701

>  <r_i_glide_ecoul>  (1145) 
-16.596204757690401

>  <r_i_glide_eff_state_penalty>  (1145) 
0.057799999999999997

>  <r_i_glide_einternal>  (1145) 
1.4333639144897501

>  <r_i_glide_emodel>  (1145) 
-59.7028951065694

>  <r_i_glide_energy>  (1145) 
-41.560878753662102

>  <r_i_glide_erotb>  (1145) 
0.81121001595873299

>  <r_i_glide_esite>  (1145) 
-0.207727960379502

>  <r_i_glide_evdw>  (1145) 
-24.964673995971701

>  <r_i_glide_gscore>  (1145) 
-4.9879531168586704

>  <r_i_glide_hbond>  (1145) 
-0.26561139478349699

>  <r_i_glide_ligand_efficiency>  (1145) 
-0.15903719731802199

>  <r_i_glide_ligand_efficiency_ln>  (1145) 
-1.1119006188993099

>  <r_i_glide_ligand_efficiency_sa>  (1145) 
-0.49959637409351598

>  <r_i_glide_lipo>  (1145) 
-0.74233302150449498

>  <r_i_glide_metal>  (1145) 
-0

>  <r_i_glide_rewards>  (1145) 
-0.84582634269776202

>  <r_lp_Energy>  (1145) 
19.855568999999999

>  <r_lp_tautomer_probability>  (1145) 
1

>  <r_qp_ACxDN^.5/SA>  (1145) 
0.0088473000000000006

>  <r_qp_CIQPlogS>  (1145) 
-5.1070000000000002

>  <r_qp_EA(eV)>  (1145) 
0.879

>  <r_qp_FISA>  (1145) 
87.454999999999998

>  <r_qp_FOSA>  (1145) 
204.20699999999999

>  <r_qp_IP(eV)>  (1145) 
9.0869999999999997

>  <r_qp_Jm>  (1145) 
0.00046313633160467699

>  <r_qp_PISA>  (1145) 
499.53899999999999

>  <r_qp_PSA>  (1145) 
69.334999999999994

>  <r_qp_PercentHumanOralAbsorption>  (1145) 
100

>  <r_qp_QPPCaco>  (1145) 
365.983

>  <r_qp_QPPMDCK>  (1145) 
184.66399999999999

>  <r_qp_QPlogBB>  (1145) 
-0.33900000000000002

>  <r_qp_QPlogHERG>  (1145) 
-8.4629999999999992

>  <r_qp_QPlogKhsa>  (1145) 
0.78700000000000003

>  <r_qp_QPlogKp>  (1145) 
-2.9540000000000002

>  <r_qp_QPlogPC16>  (1145) 
15.785

>  <r_qp_QPlogPo/w>  (1145) 
4.5439999999999996

>  <r_qp_QPlogPoct>  (1145) 
23.184999999999999

>  <r_qp_QPlogPw>  (1145) 
12.872999999999999

>  <r_qp_QPlogS>  (1145) 
-5.9950000000000001

>  <r_qp_QPpolrz>  (1145) 
51.304000000000002

>  <r_qp_SASA>  (1145) 
791.20100000000002

>  <r_qp_SAamideO>  (1145) 
0

>  <r_qp_SAfluorine>  (1145) 
0

>  <r_qp_WPSA>  (1145) 
0

>  <r_qp_accptHB>  (1145) 
7

>  <r_qp_dip^2/V>  (1145) 
0.0612539

>  <r_qp_dipole>  (1145) 
9.25

>  <r_qp_donorHB>  (1145) 
1

>  <r_qp_glob>  (1145) 
0.76375859999999995

>  <r_qp_mol_MW>  (1145) 
411.505

>  <r_qp_volume>  (1145) 
1396.7449999999999

>  <r_sd_BIOSOLVEIT.INFINISEE\_FTREES\_SIMILARITY>  (1145) 
0.90200000000000002

>  <r_sd_BIOSOLVEIT.LOGP>  (1145) 
2.5087999999999999

>  <r_sd_BIOSOLVEIT.MOLECULAR\_WEIGHT>  (1145) 
412.51400000000001

>  <r_sd_BIOSOLVEIT.TPSA>  (1145) 
64.25

>  <i_epik_Tot_Q>  (1145) 
1

>  <i_epik_Tot_abs_Q>  (1145) 
1

>  <i_f3d_flags>  (1145) 
0

>  <i_i_glide_confnum>  (1145) 
10

>  <i_i_glide_lignum>  (1145) 
60

>  <i_i_glide_posenum>  (1145) 
18

>  <i_i_glide_rotatable_bonds>  (1145) 
8

>  <i_lp_mmshare_version>  (1145) 
65135

>  <i_m_ct_format>  (1145) 
2

>  <i_m_source_file_index>  (1145) 
557

>  <i_qp_#NandO>  (1145) 
6

>  <i_qp_#acid>  (1145) 
0

>  <i_qp_#amide>  (1145) 
0

>  <i_qp_#amidine>  (1145) 
0

>  <i_qp_#amine>  (1145) 
1

>  <i_qp_#in34>  (1145) 
0

>  <i_qp_#in56>  (1145) 
23

>  <i_qp_#metab>  (1145) 
5

>  <i_qp_#nonHatm>  (1145) 
31

>  <i_qp_#noncon>  (1145) 
0

>  <i_qp_#ringatoms>  (1145) 
23

>  <i_qp_#rotor>  (1145) 
5

>  <i_qp_#rtvFG>  (1145) 
0

>  <i_qp_#stars>  (1145) 
1

>  <i_qp_CNS>  (1145) 
1

>  <i_qp_HumanOralAbsorption>  (1145) 
3

>  <i_qp_RuleOfFive>  (1145) 
0

>  <i_qp_RuleOfThree>  (1145) 
1

>  <i_sd_BIOSOLVEIT.INFINISEE\_REAGENT1\_NAME>  (1145) 
269872

>  <i_sd_BIOSOLVEIT.INFINISEE\_REAGENT2\_NAME>  (1145) 
222288

>  <i_sd_BIOSOLVEIT.INFINISEE\_RESULT\_RANK>  (1145) 
86624

>  <i_sd_version>  (1145) 
0

>  <b_lp_Chiralities_Consistent>  (1145) 
1

>  <b_sd_chiral_flag>  (1145) 
0

>  <canonical_id>  (1145) 
ATP-HTVS-B6BB4D9D6C90

>  <compound_code>  (1145) 
17793

>  <title>  (1145) 
a1____269872____222288

>  <variant>  (1145) 
17793-1

>  <source_file>  (1145) 
运行/运行/ATP-VSW/ATP-VSW-DOCK_HTVS_1-001_lib/ATP-VSW-DOCK_HTVS_1-001_lib

>  <canonical_smiles>  (1145) 
C[NH+](C)Cc1cccc(C(=O)NCc2cn(-c3ccccc3)nc2-c2ccncc2)c1

>  <scaffold>  (1145) 
O=C(NCc1cn(-c2ccccc2)nc1-c1ccncc1)c1ccccc1

>  <molecular_formula>  (1145) 
C25H26N5O+

$$$$
ATP-HTVS-B6C483C4EE45
     RDKit          3D

 59 61  0  0  0  0  0  0  0  0999 V2000
  198.7431  176.6328  150.5288 Cl  0  0  0  0  0  0  0  0  0  0  0  0
  198.3103  178.2472  150.9780 C   0  0  0  0  0  0  0  0  0  0  0  0
  198.9736  178.8897  152.0477 C   0  0  0  0  0  0  0  0  0  0  0  0
  198.6324  180.1940  152.4187 C   0  0  0  0  0  0  0  0  0  0  0  0
  197.5526  180.8588  151.7780 C   0  0  0  0  0  0  0  0  0  0  0  0
  197.1514  182.1426  152.2551 N   0  0  0  0  0  0  0  0  0  0  0  0
  196.8195  183.1333  151.3754 C   0  0  0  0  0  0  0  0  0  0  0  0
  195.8881  183.0291  150.5813 O   0  0  0  0  0  0  0  0  0  0  0  0
  197.6466  184.3702  151.3147 C   0  0  0  0  0  0  0  0  0  0  0  0
  198.0510  184.8698  149.6865 S   0  0  0  0  0  0  0  0  0  0  0  0
  198.9531  186.2290  150.2828 C   0  0  0  0  0  0  0  0  0  0  0  0
  198.8968  186.3194  151.6517 C   0  0  0  0  0  0  0  0  0  0  0  0
  198.1290  185.2595  152.2391 C   0  0  0  0  0  0  0  0  0  0  0  0
  197.9070  185.1811  153.6224 N   0  0  0  0  0  0  0  0  0  0  0  0
  198.3461  186.1595  154.5896 C   0  0  1  0  0  0  0  0  0  0  0  0
  197.8102  185.9089  155.9852 C   0  0  0  0  0  0  0  0  0  0  0  0
  198.2752  184.8195  156.7509 C   0  0  0  0  0  0  0  0  0  0  0  0
  197.8137  184.6416  158.0688 C   0  0  0  0  0  0  0  0  0  0  0  0
  196.8396  185.5111  158.6145 C   0  0  0  0  0  0  0  0  0  0  0  0
  196.3682  186.5894  157.8351 C   0  0  0  0  0  0  0  0  0  0  0  0
  196.8495  186.7834  156.5271 C   0  0  0  0  0  0  0  0  0  0  0  0
  196.3065  185.2925  160.0277 C   0  0  1  0  0  0  0  0  0  0  0  0
  195.2724  184.2249  160.1150 N   0  0  1  0  0  0  0  0  0  0  0  0
  193.9555  184.6357  159.5906 C   0  0  2  0  0  0  0  0  0  0  0  0
  195.6966  182.9188  159.5615 C   0  0  2  0  0  0  0  0  0  0  0  0
  197.0683  182.3514  153.7136 C   0  0  1  0  0  0  0  0  0  0  0  0
  196.6757  181.0967  154.5420 C   0  0  1  0  0  0  0  0  0  0  0  0
  196.2951  181.4342  155.9254 N   0  0  2  0  0  0  0  0  0  0  0  0
  196.8921  180.2093  150.7100 C   0  0  0  0  0  0  0  0  0  0  0  0
  197.2777  178.9179  150.3016 C   0  0  0  0  0  0  0  0  0  0  0  0
  196.0865  180.5821  156.4411 H   0  0  0  0  0  0  0  0  0  0  0  0
  195.4610  182.0253  155.9405 H   0  0  0  0  0  0  0  0  0  0  0  0
  199.7528  178.3634  152.5875 H   0  0  0  0  0  0  0  0  0  0  0  0
  199.1830  180.6851  153.2145 H   0  0  0  0  0  0  0  0  0  0  0  0
  199.4468  186.8841  149.5797 H   0  0  0  0  0  0  0  0  0  0  0  0
  199.3702  187.1004  152.2270 H   0  0  0  0  0  0  0  0  0  0  0  0
  197.3149  184.4330  153.9651 H   0  0  0  0  0  0  0  0  0  0  0  0
  199.4381  186.1358  154.6294 H   0  0  0  0  0  0  0  0  0  0  0  0
  198.0592  187.1615  154.2622 H   0  0  0  0  0  0  0  0  0  0  0  0
  198.9950  184.1224  156.3409 H   0  0  0  0  0  0  0  0  0  0  0  0
  198.2107  183.8300  158.6626 H   0  0  0  0  0  0  0  0  0  0  0  0
  195.6288  187.2725  158.2332 H   0  0  0  0  0  0  0  0  0  0  0  0
  196.4767  187.5992  155.9329 H   0  0  0  0  0  0  0  0  0  0  0  0
  197.1486  185.0431  160.6730 H   0  0  0  0  0  0  0  0  0  0  0  0
  195.9008  186.2262  160.4222 H   0  0  0  0  0  0  0  0  0  0  0  0
  194.0307  184.8625  158.5276 H   0  0  0  0  0  0  0  0  0  0  0  0
  193.5842  185.5082  160.1278 H   0  0  0  0  0  0  0  0  0  0  0  0
  193.2182  183.8360  159.7072 H   0  0  0  0  0  0  0  0  0  0  0  0
  195.8348  182.9588  158.4787 H   0  0  0  0  0  0  0  0  0  0  0  0
  194.9670  182.1340  159.7516 H   0  0  0  0  0  0  0  0  0  0  0  0
  196.6396  182.6315  160.0222 H   0  0  0  0  0  0  0  0  0  0  0  0
  198.0361  182.6999  154.0724 H   0  0  0  0  0  0  0  0  0  0  0  0
  196.3517  183.1426  153.9048 H   0  0  0  0  0  0  0  0  0  0  0  0
  195.8539  180.5545  154.0623 H   0  0  0  0  0  0  0  0  0  0  0  0
  197.5366  180.4265  154.6250 H   0  0  0  0  0  0  0  0  0  0  0  0
  196.0401  180.6599  150.2009 H   0  0  0  0  0  0  0  0  0  0  0  0
  196.7504  178.4334  149.4949 H   0  0  0  0  0  0  0  0  0  0  0  0
  197.0518  181.9038  156.3903 H   0  0  0  0  0  0  0  0  0  0  0  0
  195.1364  184.0695  161.1048 H   0  0  0  0  0  0  0  0  0  0  0  0
  1  2  1  0
  2  3  1  0
  2 30  2  0
  3  4  2  0
  3 33  1  0
  4  5  1  0
  4 34  1  0
  5  6  1  0
  5 29  2  0
  6  7  1  0
  6 26  1  0
  7  8  2  0
  7  9  1  0
  9 10  1  0
  9 13  2  0
 10 11  1  0
 11 12  2  0
 11 35  1  0
 12 13  1  0
 12 36  1  0
 13 14  1  0
 14 15  1  0
 14 37  1  0
 15 16  1  0
 15 38  1  1
 15 39  1  0
 16 17  1  0
 16 21  2  0
 17 18  2  0
 17 40  1  0
 18 19  1  0
 18 41  1  0
 19 20  2  0
 19 22  1  0
 20 21  1  0
 20 42  1  0
 21 43  1  0
 22 23  1  0
 22 44  1  1
 22 45  1  0
 23 24  1  0
 23 25  1  0
 23 59  1  1
 24 46  1  6
 24 47  1  0
 24 48  1  0
 25 49  1  6
 25 50  1  0
 25 51  1  0
 26 27  1  0
 26 52  1  1
 26 53  1  0
 27 28  1  0
 27 54  1  6
 27 55  1  0
 28 31  1  1
 28 32  1  0
 28 58  1  0
 29 30  1  0
 29 56  1  0
 30 57  1  0
M  CHG  2  23   1  28   1
M  END
>  <s_epik_cmdline>  (1146) 
J2VwaWtfcHl0aG9uJywgJy1waCcsICc3LjAwMDAwMCcsICctcGh0JywgJzIuMDAwMDAwJywgJy1tcycsICcxNicsICctdG4nLCAnOCcsICctbWEnLCAnMjAwJywgJy1pbWFlJywgJzxpbmZpbGUubWFlPicsICctb21hZScsICc8b3V0ZmlsZS5tYWU+Jw==

>  <s_epik_input>  (1146) 
Q2xjMVtjSF1bY0hdYyhbY0hdW2NIXTEpTihbQ0gyXVtDSDJdW05IMl0pQyg9TyljMnNbY0hdW2NIXWMyW05IXVtDSDJdYzNbY0hdW2NIXWMoW2NIXVtjSF0zKVtDSDJdTihbQ0gzXSlbQ0gzXQ==

>  <s_i_glide_gridfile>  (1146) 
ATP-Grid

>  <s_lp_Force_Field>  (1146) 
OPLS_2005

>  <s_lp_Variant>  (1146) 
rxn512b____EMOL49832880____EMOL525138____EMOL50155899-1

>  <s_lp_label>  (1146) 
2545_sdstereoexpander_1_neutralizer_1_epik_1_stereoizer_1

>  <s_m_source_file>  (1146) 
ATP-VSW-LIGPREP-002-in.maegz

>  <s_sd_BIOSOLVEIT.INFINISEE\_QUERY\_NAME>  (1146) 
Ref-Lig

>  <s_sd_BIOSOLVEIT.INFINISEE\_QUERY\_SMILES>  (1146) 
S(c1nc2c(cc1C[NH2+]Cc3ccc(cc3)C[NH+](C)C)cccc2)Cc4ccccc4

>  <s_sd_BIOSOLVEIT.INFINISEE\_REACTION\_NAME>  (1146) 
rxn512b

>  <s_sd_BIOSOLVEIT.INFINISEE\_REAGENT1\_NAME>  (1146) 
EMOL49832880

>  <s_sd_BIOSOLVEIT.INFINISEE\_REAGENT1\_SMILES>  (1146) 
Clc1ccc(NCCN)cc1

>  <s_sd_BIOSOLVEIT.INFINISEE\_REAGENT2\_NAME>  (1146) 
EMOL525138

>  <s_sd_BIOSOLVEIT.INFINISEE\_REAGENT2\_SMILES>  (1146) 
BrC1=C(SC=C1)C(=O)O

>  <s_sd_BIOSOLVEIT.INFINISEE\_REAGENT3\_NAME>  (1146) 
EMOL50155899

>  <s_sd_BIOSOLVEIT.INFINISEE\_REAGENT3\_SMILES>  (1146) 
N(Cc1ccc(cc1)CN)(C)C

>  <s_sd_BIOSOLVEIT.INFINISEE\_SPACE>  (1146) 
eXplore_7tr_2022-12

>  <s_vsw_compound_code>  (1146) 
81410

>  <s_vsw_variant>  (1146) 
81410-1

>  <r_epik_Charging_Adjusted_Penalty>  (1146) 
0.092659681256428206

>  <r_epik_Ionization_Penalty>  (1146) 
0.046399999999999997

>  <r_epik_Ionization_Penalty_Charging>  (1146) 
0.046300000000000001

>  <r_epik_Ionization_Penalty_Neutral>  (1146) 
0

>  <r_epik_State_Penalty>  (1146) 
0.046300000000000001

>  <r_i_docking_score>  (1146) 
-5.34115308557005

>  <r_i_glide_ecoul>  (1146) 
-11.0741519927979

>  <r_i_glide_eff_state_penalty>  (1146) 
0.046300000000000001

>  <r_i_glide_einternal>  (1146) 
18.160619735717798

>  <r_i_glide_emodel>  (1146) 
-61.978701740774397

>  <r_i_glide_energy>  (1146) 
-46.010595321655302

>  <r_i_glide_erotb>  (1146) 
0.80809397529168503

>  <r_i_glide_esite>  (1146) 
-0.079765913178891895

>  <r_i_glide_evdw>  (1146) 
-34.936443328857401

>  <r_i_glide_gscore>  (1146) 
-5.3874530855700504

>  <r_i_glide_hbond>  (1146) 
-0.39439963093483599

>  <r_i_glide_ligand_efficiency>  (1146) 
-0.178038436185668

>  <r_i_glide_ligand_efficiency_ln>  (1146) 
-1.21356817756556

>  <r_i_glide_ligand_efficiency_sa>  (1146) 
-0.55320681559811202

>  <r_i_glide_lipo>  (1146) 
-1.9385815059309099

>  <r_i_glide_metal>  (1146) 
-0

>  <r_i_glide_rewards>  (1146) 
-0.37485504545454401

>  <r_lp_Energy>  (1146) 
47.357269000000002

>  <r_lp_tautomer_probability>  (1146) 
0.99999274205267796

>  <r_qp_ACxDN^.5/SA>  (1146) 
0.011276700000000001

>  <r_qp_CIQPlogS>  (1146) 
-3.6299999999999999

>  <r_qp_EA(eV)>  (1146) 
0.40600000000000003

>  <r_qp_FISA>  (1146) 
96.391000000000005

>  <r_qp_FOSA>  (1146) 
258.38999999999999

>  <r_qp_IP(eV)>  (1146) 
8.4030000000000005

>  <r_qp_Jm>  (1146) 
0.0022641319153972801

>  <r_qp_PISA>  (1146) 
288.69299999999998

>  <r_qp_PSA>  (1146) 
69.021000000000001

>  <r_qp_PercentHumanOralAbsorption>  (1146) 
71.900999999999996

>  <r_qp_QPPCaco>  (1146) 
18.728999999999999

>  <r_qp_QPPMDCK>  (1146) 
35.960999999999999

>  <r_qp_QPlogBB>  (1146) 
0.014

>  <r_qp_QPlogHERG>  (1146) 
-8.3719999999999999

>  <r_qp_QPlogKhsa>  (1146) 
0.71699999999999997

>  <r_qp_QPlogKp>  (1146) 
-5.444

>  <r_qp_QPlogPC16>  (1146) 
15.039

>  <r_qp_QPlogPo/w>  (1146) 
3.7879999999999998

>  <r_qp_QPlogPoct>  (1146) 
22.140000000000001

>  <r_qp_QPlogPw>  (1146) 
10.821

>  <r_qp_QPlogS>  (1146) 
-2.847

>  <r_qp_QPpolrz>  (1146) 
45.444000000000003

>  <r_qp_SASA>  (1146) 
752.46400000000006

>  <r_qp_SAamideO>  (1146) 
0

>  <r_qp_SAfluorine>  (1146) 
0

>  <r_qp_WPSA>  (1146) 
108.98999999999999

>  <r_qp_accptHB>  (1146) 
6

>  <r_qp_dip^2/V>  (1146) 
0.050859399999999999

>  <r_qp_dipole>  (1146) 
8.3800000000000008

>  <r_qp_donorHB>  (1146) 
2

>  <r_qp_glob>  (1146) 
0.79698060000000004

>  <r_qp_mol_MW>  (1146) 
443.005

>  <r_qp_volume>  (1146) 
1380.8689999999999

>  <r_sd_BIOSOLVEIT.INFINISEE\_FTREES\_SIMILARITY>  (1146) 
0.91300000000000003

>  <r_sd_BIOSOLVEIT.LOGP>  (1146) 
2.5468000000000002

>  <r_sd_BIOSOLVEIT.MOLECULAR\_WEIGHT>  (1146) 
445.02699999999999

>  <r_sd_BIOSOLVEIT.TPSA>  (1146) 
64.420000000000002

>  <i_epik_Tot_Q>  (1146) 
2

>  <i_epik_Tot_abs_Q>  (1146) 
2

>  <i_f3d_flags>  (1146) 
0

>  <i_i_glide_confnum>  (1146) 
11

>  <i_i_glide_lignum>  (1146) 
1129

>  <i_i_glide_posenum>  (1146) 
16

>  <i_i_glide_rotatable_bonds>  (1146) 
10

>  <i_lp_mmshare_version>  (1146) 
65135

>  <i_m_ct_format>  (1146) 
2

>  <i_m_source_file_index>  (1146) 
2545

>  <i_qp_#NandO>  (1146) 
5

>  <i_qp_#acid>  (1146) 
0

>  <i_qp_#amide>  (1146) 
0

>  <i_qp_#amidine>  (1146) 
0

>  <i_qp_#amine>  (1146) 
3

>  <i_qp_#in34>  (1146) 
0

>  <i_qp_#in56>  (1146) 
17

>  <i_qp_#metab>  (1146) 
7

>  <i_qp_#nonHatm>  (1146) 
30

>  <i_qp_#noncon>  (1146) 
0

>  <i_qp_#ringatoms>  (1146) 
17

>  <i_qp_#rotor>  (1146) 
10

>  <i_qp_#rtvFG>  (1146) 
0

>  <i_qp_#stars>  (1146) 
0

>  <i_qp_CNS>  (1146) 
1

>  <i_qp_HumanOralAbsorption>  (1146) 
2

>  <i_qp_RuleOfFive>  (1146) 
0

>  <i_qp_RuleOfThree>  (1146) 
2

>  <i_sd_BIOSOLVEIT.INFINISEE\_RESULT\_RANK>  (1146) 
35132

>  <i_sd_version>  (1146) 
0

>  <b_lp_Chiralities_Consistent>  (1146) 
1

>  <b_sd_chiral_flag>  (1146) 
0

>  <canonical_id>  (1146) 
ATP-HTVS-B6C483C4EE45

>  <compound_code>  (1146) 
81410

>  <title>  (1146) 
rxn512b____EMOL49832880____EMOL525138____EMOL50155899

>  <variant>  (1146) 
81410-1

>  <source_file>  (1146) 
运行/运行/ATP-VSW/ATP-VSW-DOCK_HTVS_1-002_lib.maegz

>  <canonical_smiles>  (1146) 
C[NH+](C)Cc1ccc(CNc2ccsc2C(=O)N(CC[NH3+])c2ccc(Cl)cc2)cc1

>  <scaffold>  (1146) 
O=C(Nc1ccccc1)c1sccc1NCc1ccccc1

>  <molecular_formula>  (1146) 
C23H29ClN4OS+2

$$$$
ATP-HTVS-B7334B97F240
     RDKit          3D

 61 64  0  0  0  0  0  0  0  0999 V2000
  196.3453  181.6835  152.8260 O   0  0  0  0  0  0  0  0  0  0  0  0
  197.3923  181.9912  152.2702 C   0  0  0  0  0  0  0  0  0  0  0  0
  198.6610  181.4567  152.4562 N   0  0  0  0  0  0  0  0  0  0  0  0
  198.9755  180.6906  153.4608 C   0  0  0  0  0  0  0  0  0  0  0  0
  198.0627  180.2760  154.4461 N   0  0  0  0  0  0  0  0  0  0  0  0
  198.4102  179.4452  155.5026 C   0  0  0  0  0  0  0  0  0  0  0  0
  199.6600  179.0032  155.7020 C   0  0  0  0  0  0  0  0  0  0  0  0
  199.9500  178.1246  156.7355 N   0  0  0  0  0  0  0  0  0  0  0  0
  201.1763  177.3920  156.9510 C   0  0  1  0  0  0  0  0  0  0  0  0
  201.3937  176.2069  156.0122 C   0  0  0  0  0  0  0  0  0  0  0  0
  200.9071  176.1931  154.6808 C   0  0  0  0  0  0  0  0  0  0  0  0
  201.1498  175.0960  153.8499 C   0  0  0  0  0  0  0  0  0  0  0  0
  201.8262  173.9654  154.3451 C   0  0  0  0  0  0  0  0  0  0  0  0
  202.2717  173.9576  155.6877 C   0  0  0  0  0  0  0  0  0  0  0  0
  202.1072  175.0862  156.4919 C   0  0  0  0  0  0  0  0  0  0  0  0
  202.0829  172.7733  153.4392 C   0  0  1  0  0  0  0  0  0  0  0  0
  203.4921  172.6863  152.9724 N   0  0  2  0  0  0  0  0  0  0  0  0
  204.5511  172.8933  153.9961 C   0  0  2  0  0  0  0  0  0  0  0  0
  203.7704  173.4423  151.7432 C   0  0  2  0  0  0  0  0  0  0  0  0
  200.6565  179.4192  154.7191 C   0  0  0  0  0  0  0  0  0  0  0  0
  200.3467  180.1830  153.6478 C   0  0  0  0  0  0  0  0  0  0  0  0
  201.3975  180.4883  152.7220 N   0  0  0  0  0  0  0  0  0  0  0  0
  201.5762  181.7050  152.0883 C   0  0  0  0  0  0  0  0  0  0  0  0
  202.6745  181.5652  151.2913 C   0  0  0  0  0  0  0  0  0  0  0  0
  203.1873  180.2409  151.4627 C   0  0  0  0  0  0  0  0  0  0  0  0
  202.3854  179.5848  152.3573 C   0  0  0  0  0  0  0  0  0  0  0  0
  197.3732  183.0899  151.2421 C   0  0  0  0  0  0  0  0  0  0  0  0
  197.6064  184.4519  151.5828 C   0  0  0  0  0  0  0  0  0  0  0  0
  197.8573  184.8868  152.9536 C   0  0  0  0  0  0  0  0  0  0  0  0
  198.0580  185.2350  154.0371 N   0  0  0  0  0  0  0  0  0  0  0  0
  197.6015  185.4302  150.5646 C   0  0  0  0  0  0  0  0  0  0  0  0
  197.3598  185.0737  149.2259 C   0  0  0  0  0  0  0  0  0  0  0  0
  197.1491  183.7257  148.8913 C   0  0  0  0  0  0  0  0  0  0  0  0
  197.1528  182.7410  149.8941 C   0  0  0  0  0  0  0  0  0  0  0  0
  197.5825  179.1519  156.1347 H   0  0  0  0  0  0  0  0  0  0  0  0
  199.1523  177.8471  157.3308 H   0  0  0  0  0  0  0  0  0  0  0  0
  202.0169  178.0862  156.8765 H   0  0  0  0  0  0  0  0  0  0  0  0
  201.1805  177.0372  157.9834 H   0  0  0  0  0  0  0  0  0  0  0  0
  200.3471  176.9989  154.2452 H   0  0  0  0  0  0  0  0  0  0  0  0
  200.7827  175.1251  152.8274 H   0  0  0  0  0  0  0  0  0  0  0  0
  202.7433  173.0786  156.1131 H   0  0  0  0  0  0  0  0  0  0  0  0
  202.5187  175.0519  157.4892 H   0  0  0  0  0  0  0  0  0  0  0  0
  201.7871  171.8598  153.9671 H   0  0  0  0  0  0  0  0  0  0  0  0
  201.4063  172.8306  152.5762 H   0  0  0  0  0  0  0  0  0  0  0  0
  204.5615  173.9277  154.3636 H   0  0  0  0  0  0  0  0  0  0  0  0
  205.5442  172.6798  153.6099 H   0  0  0  0  0  0  0  0  0  0  0  0
  204.3796  172.2229  154.8416 H   0  0  0  0  0  0  0  0  0  0  0  0
  203.6685  174.5166  151.9075 H   0  0  0  0  0  0  0  0  0  0  0  0
  203.1015  173.1568  150.9323 H   0  0  0  0  0  0  0  0  0  0  0  0
  204.7859  173.2545  151.4063 H   0  0  0  0  0  0  0  0  0  0  0  0
  201.6748  179.0696  154.8437 H   0  0  0  0  0  0  0  0  0  0  0  0
  200.9281  182.5543  152.2499 H   0  0  0  0  0  0  0  0  0  0  0  0
  203.0767  182.3412  150.6546 H   0  0  0  0  0  0  0  0  0  0  0  0
  204.0605  179.8225  150.9841 H   0  0  0  0  0  0  0  0  0  0  0  0
  202.4311  178.5782  152.7451 H   0  0  0  0  0  0  0  0  0  0  0  0
  197.7672  186.4712  150.8092 H   0  0  0  0  0  0  0  0  0  0  0  0
  197.3388  185.8329  148.4550 H   0  0  0  0  0  0  0  0  0  0  0  0
  196.9673  183.4497  147.8628 H   0  0  0  0  0  0  0  0  0  0  0  0
  196.9959  181.7069  149.6247 H   0  0  0  0  0  0  0  0  0  0  0  0
  197.0917  180.5491  154.4088 H   0  0  0  0  0  0  0  0  0  0  0  0
  203.5603  171.6782  152.7637 H   0  0  0  0  0  0  0  0  0  0  0  0
  1  2  2  0
  2  3  1  0
  2 27  1  0
  3  4  2  0
  4  5  1  0
  4 21  1  0
  5  6  1  0
  5 60  1  0
  6  7  2  0
  6 35  1  0
  7  8  1  0
  7 20  1  0
  8  9  1  0
  8 36  1  0
  9 10  1  0
  9 37  1  1
  9 38  1  0
 10 11  1  0
 10 15  2  0
 11 12  2  0
 11 39  1  0
 12 13  1  0
 12 40  1  0
 13 14  2  0
 13 16  1  0
 14 15  1  0
 14 41  1  0
 15 42  1  0
 16 17  1  0
 16 43  1  1
 16 44  1  0
 17 18  1  0
 17 19  1  0
 17 61  1  6
 18 45  1  1
 18 46  1  0
 18 47  1  0
 19 48  1  1
 19 49  1  0
 19 50  1  0
 20 21  2  0
 20 51  1  0
 21 22  1  0
 22 23  1  0
 22 26  1  0
 23 24  2  0
 23 52  1  0
 24 25  1  0
 24 53  1  0
 25 26  2  0
 25 54  1  0
 26 55  1  0
 27 28  1  0
 27 34  2  0
 28 29  1  0
 28 31  2  0
 29 30  3  0
 31 32  1  0
 31 56  1  0
 32 33  2  0
 32 57  1  0
 33 34  1  0
 33 58  1  0
 34 59  1  0
M  CHG  1  17   1
M  END
>  <s_epik_cmdline>  (1147) 
J2VwaWtfcHl0aG9uJywgJy1waCcsICc3LjAwMDAwMCcsICctcGh0JywgJzIuMDAwMDAwJywgJy1tcycsICcxNicsICctdG4nLCAnOCcsICctbWEnLCAnMjAwJywgJy1pbWFlJywgJzxpbmZpbGUubWFlPicsICctb21hZScsICc8b3V0ZmlsZS5tYWU+Jw==

>  <s_epik_input>  (1147) 
W2NIXTFbY0hdW2NIXVtjSF1jKEMjTiljMUMoPU8pW05IXWMybltjSF1jKFtjSF1jMi1uM1tjSF1bY0hdW2NIXVtjSF0zKVtOSF1bQ0gyXWM0W2NIXVtjSF1jKFtjSF1bY0hdNClbQ0gyXU4oW0NIM10pW0NIM10=

>  <s_i_glide_gridfile>  (1147) 
ATP-Grid

>  <s_lp_Force_Field>  (1147) 
OPLS_2005

>  <s_lp_Variant>  (1147) 
rxn502b____EMOL43467976____EMOL4363915____EMOL50155899-1

>  <s_lp_label>  (1147) 
2383_sdstereoexpander_1_neutralizer_1_epik_1_stereoizer_1

>  <s_m_source_file>  (1147) 
ATP-VSW-LIGPREP-002-in.maegz

>  <s_sd_BIOSOLVEIT.INFINISEE\_QUERY\_NAME>  (1147) 
Ref-Lig

>  <s_sd_BIOSOLVEIT.INFINISEE\_QUERY\_SMILES>  (1147) 
S(c1nc2c(cc1C[NH2+]Cc3ccc(cc3)C[NH+](C)C)cccc2)Cc4ccccc4

>  <s_sd_BIOSOLVEIT.INFINISEE\_REACTION\_NAME>  (1147) 
rxn502b

>  <s_sd_BIOSOLVEIT.INFINISEE\_REAGENT1\_NAME>  (1147) 
EMOL43467976

>  <s_sd_BIOSOLVEIT.INFINISEE\_REAGENT1\_SMILES>  (1147) 
ClC(=O)c1c(C#N)cccc1

>  <s_sd_BIOSOLVEIT.INFINISEE\_REAGENT2\_NAME>  (1147) 
EMOL4363915

>  <s_sd_BIOSOLVEIT.INFINISEE\_REAGENT2\_SMILES>  (1147) 
Brc1cnc(N)c(N2C=CC=C2)c1

>  <s_sd_BIOSOLVEIT.INFINISEE\_REAGENT3\_NAME>  (1147) 
EMOL50155899

>  <s_sd_BIOSOLVEIT.INFINISEE\_REAGENT3\_SMILES>  (1147) 
N(Cc1ccc(cc1)CN)(C)C

>  <s_sd_BIOSOLVEIT.INFINISEE\_SPACE>  (1147) 
eXplore_7tr_2022-12

>  <s_vsw_compound_code>  (1147) 
76226

>  <s_vsw_variant>  (1147) 
76226-1

>  <r_epik_Charging_Adjusted_Penalty>  (1147) 
0.24370397602261801

>  <r_epik_Ionization_Penalty>  (1147) 
0.084199999999999997

>  <r_epik_Ionization_Penalty_Charging>  (1147) 
0.084199999999999997

>  <r_epik_Ionization_Penalty_Neutral>  (1147) 
0

>  <r_epik_State_Penalty>  (1147) 
0.1595

>  <r_i_docking_score>  (1147) 
-5.1405515645242401

>  <r_i_glide_ecoul>  (1147) 
-10.120892524719199

>  <r_i_glide_eff_state_penalty>  (1147) 
0.1595

>  <r_i_glide_einternal>  (1147) 
6.4637575149536097

>  <r_i_glide_emodel>  (1147) 
-56.7211414978634

>  <r_i_glide_energy>  (1147) 
-41.3271036148071

>  <r_i_glide_erotb>  (1147) 
0.68862984852775999

>  <r_i_glide_esite>  (1147) 
-0.21540161095865401

>  <r_i_glide_evdw>  (1147) 
-31.206211090087901

>  <r_i_glide_gscore>  (1147) 
-5.3000515645242396

>  <r_i_glide_hbond>  (1147) 
-0.27265012003625799

>  <r_i_glide_ligand_efficiency>  (1147) 
-0.15119269307424199

>  <r_i_glide_ligand_efficiency_ln>  (1147) 
-1.13569202819083

>  <r_i_glide_ligand_efficiency_sa>  (1147) 
-0.48980563217449602

>  <r_i_glide_lipo>  (1147) 
-1.8667957942993501

>  <r_i_glide_metal>  (1147) 
-0

>  <r_i_glide_rewards>  (1147) 
-0.55538945454545297

>  <r_lp_Energy>  (1147) 
47.055402000000001

>  <r_qp_ACxDN^.5/SA>  (1147) 
0.0084604999999999993

>  <r_qp_CIQPlogS>  (1147) 
-6.9000000000000004

>  <r_qp_EA(eV)>  (1147) 
0.96999999999999997

>  <r_qp_FISA>  (1147) 
127.926

>  <r_qp_FOSA>  (1147) 
221.488

>  <r_qp_IP(eV)>  (1147) 
8.1340000000000003

>  <r_qp_Jm>  (1147) 
1.8689775037044901e-05

>  <r_qp_PISA>  (1147) 
477.96100000000001

>  <r_qp_PSA>  (1147) 
87.775000000000006

>  <r_qp_PercentHumanOralAbsorption>  (1147) 
94.290000000000006

>  <r_qp_QPPCaco>  (1147) 
151.245

>  <r_qp_QPPMDCK>  (1147) 
71.049999999999997

>  <r_qp_QPlogBB>  (1147) 
-1.0449999999999999

>  <r_qp_QPlogHERG>  (1147) 
-8.3719999999999999

>  <r_qp_QPlogKhsa>  (1147) 
0.875

>  <r_qp_QPlogKp>  (1147) 
-3.3919999999999999

>  <r_qp_QPlogPC16>  (1147) 
16.821999999999999

>  <r_qp_QPlogPo/w>  (1147) 
4.8390000000000004

>  <r_qp_QPlogPoct>  (1147) 
23.451000000000001

>  <r_qp_QPlogPw>  (1147) 
12.206

>  <r_qp_QPlogS>  (1147) 
-6.9900000000000002

>  <r_qp_QPpolrz>  (1147) 
52.319000000000003

>  <r_qp_SASA>  (1147) 
827.375

>  <r_qp_SAamideO>  (1147) 
0

>  <r_qp_SAfluorine>  (1147) 
0

>  <r_qp_WPSA>  (1147) 
0

>  <r_qp_accptHB>  (1147) 
7

>  <r_qp_dip^2/V>  (1147) 
0.050570799999999999

>  <r_qp_dipole>  (1147) 
8.6850000000000005

>  <r_qp_donorHB>  (1147) 
1

>  <r_qp_glob>  (1147) 
0.76301099999999999

>  <r_qp_mol_MW>  (1147) 
450.54199999999997

>  <r_qp_volume>  (1147) 
1491.4269999999999

>  <r_sd_BIOSOLVEIT.INFINISEE\_FTREES\_SIMILARITY>  (1147) 
0.91900000000000004

>  <r_sd_BIOSOLVEIT.LOGP>  (1147) 
3.2528800000000002

>  <r_sd_BIOSOLVEIT.MOLECULAR\_WEIGHT>  (1147) 
451.55099999999999

>  <r_sd_BIOSOLVEIT.TPSA>  (1147) 
87.180000000000007

>  <i_epik_Tot_Q>  (1147) 
1

>  <i_epik_Tot_abs_Q>  (1147) 
1

>  <i_f3d_flags>  (1147) 
0

>  <i_i_glide_confnum>  (1147) 
2

>  <i_i_glide_lignum>  (1147) 
989

>  <i_i_glide_posenum>  (1147) 
12

>  <i_i_glide_rotatable_bonds>  (1147) 
8

>  <i_lp_mmshare_version>  (1147) 
65135

>  <i_m_ct_format>  (1147) 
2

>  <i_m_source_file_index>  (1147) 
2383

>  <i_qp_#NandO>  (1147) 
7

>  <i_qp_#acid>  (1147) 
0

>  <i_qp_#amide>  (1147) 
0

>  <i_qp_#amidine>  (1147) 
0

>  <i_qp_#amine>  (1147) 
1

>  <i_qp_#in34>  (1147) 
0

>  <i_qp_#in56>  (1147) 
23

>  <i_qp_#metab>  (1147) 
5

>  <i_qp_#nonHatm>  (1147) 
34

>  <i_qp_#noncon>  (1147) 
0

>  <i_qp_#ringatoms>  (1147) 
23

>  <i_qp_#rotor>  (1147) 
9

>  <i_qp_#rtvFG>  (1147) 
0

>  <i_qp_#stars>  (1147) 
2

>  <i_qp_CNS>  (1147) 
-2

>  <i_qp_HumanOralAbsorption>  (1147) 
1

>  <i_qp_RuleOfFive>  (1147) 
0

>  <i_qp_RuleOfThree>  (1147) 
1

>  <i_sd_BIOSOLVEIT.INFINISEE\_RESULT\_RANK>  (1147) 
18642

>  <i_sd_version>  (1147) 
0

>  <b_lp_Chiralities_Consistent>  (1147) 
1

>  <b_sd_chiral_flag>  (1147) 
0

>  <canonical_id>  (1147) 
ATP-HTVS-B7334B97F240

>  <compound_code>  (1147) 
76226

>  <title>  (1147) 
rxn502b____EMOL43467976____EMOL4363915____EMOL50155899

>  <variant>  (1147) 
76226-1

>  <source_file>  (1147) 
运行/运行/ATP-VSW/ATP-VSW-DOCK_HTVS_1-002_lib.maegz

>  <canonical_smiles>  (1147) 
C[NH+](C)Cc1ccc(CNc2c[nH]/c(=N\C(=O)c3ccccc3C#N)c(-n3cccc3)c2)cc1

>  <scaffold>  (1147) 
O=C(N=c1[nH]cc(NCc2ccccc2)cc1-n1cccc1)c1ccccc1

>  <molecular_formula>  (1147) 
C27H27N6O+

$$$$
ATP-HTVS-B7368E70BBC8
     RDKit          3D

 59 61  0  0  0  0  0  0  0  0999 V2000
  194.7515  186.6155  161.1957 Cl  0  0  0  0  0  0  0  0  0  0  0  0
  195.4997  185.5641  160.0488 C   0  0  0  0  0  0  0  0  0  0  0  0
  194.7403  184.5817  159.3845 C   0  0  0  0  0  0  0  0  0  0  0  0
  195.3508  183.7263  158.4469 C   0  0  0  0  0  0  0  0  0  0  0  0
  196.7336  183.8396  158.1736 C   0  0  0  0  0  0  0  0  0  0  0  0
  197.4898  184.8201  158.8524 C   0  0  0  0  0  0  0  0  0  0  0  0
  196.8754  185.6854  159.7763 C   0  0  0  0  0  0  0  0  0  0  0  0
  197.4112  182.9253  157.1539 C   0  0  2  0  0  0  0  0  0  0  0  0
  197.0926  183.3744  155.6993 C   0  0  1  0  0  0  0  0  0  0  0  0
  197.5173  184.7599  155.3596 N   0  0  1  0  0  0  0  0  0  0  0  0
  198.9780  184.9774  155.5066 C   0  0  2  0  0  0  0  0  0  0  0  0
  197.0665  185.1360  153.9971 C   0  0  2  0  0  0  0  0  0  0  0  0
  197.0350  181.4456  157.3850 C   0  0  1  0  0  0  0  0  0  0  0  0
  197.9393  180.5161  156.6684 N   0  0  1  0  0  0  0  0  0  0  0  0
  197.3705  179.8774  155.4678 C   0  0  1  0  0  0  0  0  0  0  0  0
  198.4793  179.1448  154.7509 C   0  0  0  0  0  0  0  0  0  0  0  0
  198.7723  179.6060  153.5205 N   0  0  0  0  0  0  0  0  0  0  0  0
  199.7510  178.9890  152.8285 C   0  0  0  0  0  0  0  0  0  0  0  0
  200.5087  177.9087  153.3435 C   0  0  0  0  0  0  0  0  0  0  0  0
  201.4993  177.2479  152.6454 O   0  0  0  0  0  0  0  0  0  0  0  0
  201.6720  177.5221  151.2561 C   0  0  1  0  0  0  0  0  0  0  0  0
  200.5153  177.0496  150.3729 C   0  0  0  0  0  0  0  0  0  0  0  0
  200.5094  177.3766  148.9979 C   0  0  0  0  0  0  0  0  0  0  0  0
  199.4441  176.9756  148.1633 C   0  0  0  0  0  0  0  0  0  0  0  0
  198.3721  176.2527  148.7093 C   0  0  0  0  0  0  0  0  0  0  0  0
  198.3723  175.9082  150.0760 C   0  0  0  0  0  0  0  0  0  0  0  0
  199.4457  176.2872  150.9016 C   0  0  0  0  0  0  0  0  0  0  0  0
  200.2005  177.4526  154.6436 C   0  0  0  0  0  0  0  0  0  0  0  0
  199.1637  178.0778  155.3613 C   0  0  0  0  0  0  0  0  0  0  0  0
  198.8100  180.9687  156.4528 H   0  0  0  0  0  0  0  0  0  0  0  0
  193.6819  184.4869  159.5861 H   0  0  0  0  0  0  0  0  0  0  0  0
  194.7396  182.9994  157.9326 H   0  0  0  0  0  0  0  0  0  0  0  0
  198.5491  184.9256  158.6674 H   0  0  0  0  0  0  0  0  0  0  0  0
  197.4631  186.4356  160.2837 H   0  0  0  0  0  0  0  0  0  0  0  0
  198.4859  182.9852  157.3372 H   0  0  0  0  0  0  0  0  0  0  0  0
  197.5580  182.7104  154.9693 H   0  0  0  0  0  0  0  0  0  0  0  0
  196.0167  183.2867  155.5510 H   0  0  0  0  0  0  0  0  0  0  0  0
  199.5409  184.2903  154.8729 H   0  0  0  0  0  0  0  0  0  0  0  0
  199.3163  184.8377  156.5335 H   0  0  0  0  0  0  0  0  0  0  0  0
  199.2468  185.9938  155.2116 H   0  0  0  0  0  0  0  0  0  0  0  0
  197.5147  184.4901  153.2390 H   0  0  0  0  0  0  0  0  0  0  0  0
  197.3581  186.1615  153.7662 H   0  0  0  0  0  0  0  0  0  0  0  0
  195.9837  185.0652  153.8826 H   0  0  0  0  0  0  0  0  0  0  0  0
  197.1446  181.2025  158.4438 H   0  0  0  0  0  0  0  0  0  0  0  0
  195.9933  181.2517  157.1244 H   0  0  0  0  0  0  0  0  0  0  0  0
  196.5858  179.1659  155.7319 H   0  0  0  0  0  0  0  0  0  0  0  0
  196.9283  180.6273  154.8079 H   0  0  0  0  0  0  0  0  0  0  0  0
  199.8965  179.3694  151.8315 H   0  0  0  0  0  0  0  0  0  0  0  0
  201.8600  178.5830  151.0880 H   0  0  0  0  0  0  0  0  0  0  0  0
  202.5750  176.9984  150.9354 H   0  0  0  0  0  0  0  0  0  0  0  0
  201.3228  177.9450  148.5755 H   0  0  0  0  0  0  0  0  0  0  0  0
  199.4421  177.2311  147.1149 H   0  0  0  0  0  0  0  0  0  0  0  0
  197.5507  175.9477  148.0806 H   0  0  0  0  0  0  0  0  0  0  0  0
  197.5508  175.3583  150.5047 H   0  0  0  0  0  0  0  0  0  0  0  0
  199.4142  175.9865  151.9377 H   0  0  0  0  0  0  0  0  0  0  0  0
  200.7262  176.6093  155.0709 H   0  0  0  0  0  0  0  0  0  0  0  0
  198.8872  177.7219  156.3468 H   0  0  0  0  0  0  0  0  0  0  0  0
  197.0499  185.3846  156.0041 H   0  0  0  0  0  0  0  0  0  0  0  0
  198.1306  179.7561  157.3047 H   0  0  0  0  0  0  0  0  0  0  0  0
  1  2  1  0
  2  3  1  0
  2  7  2  0
  3  4  2  0
  3 31  1  0
  4  5  1  0
  4 32  1  0
  5  6  2  0
  5  8  1  0
  6  7  1  0
  6 33  1  0
  7 34  1  0
  8  9  1  0
  8 13  1  0
  8 35  1  1
  9 10  1  0
  9 36  1  6
  9 37  1  0
 10 11  1  0
 10 12  1  0
 10 58  1  1
 11 38  1  6
 11 39  1  0
 11 40  1  0
 12 41  1  6
 12 42  1  0
 12 43  1  0
 13 14  1  0
 13 44  1  1
 13 45  1  0
 14 15  1  0
 14 30  1  6
 14 59  1  0
 15 16  1  0
 15 46  1  1
 15 47  1  0
 16 17  1  0
 16 29  2  0
 17 18  2  0
 18 19  1  0
 18 48  1  0
 19 20  1  0
 19 28  2  0
 20 21  1  0
 21 22  1  0
 21 49  1  1
 21 50  1  0
 22 23  2  0
 22 27  1  0
 23 24  1  0
 23 51  1  0
 24 25  2  0
 24 52  1  0
 25 26  1  0
 25 53  1  0
 26 27  2  0
 26 54  1  0
 27 55  1  0
 28 29  1  0
 28 56  1  0
 29 57  1  0
M  CHG  2  10   1  14   1
M  END
>  <s_epik_cmdline>  (1148) 
J2VwaWtfcHl0aG9uJywgJy1waCcsICc3LjAwMDAwMCcsICctcGh0JywgJzIuMDAwMDAwJywgJy1tcycsICcxNicsICctdG4nLCAnOCcsICctbWEnLCAnMjAwJywgJy1pbWFlJywgJzxpbmZpbGUubWFlPicsICctb21hZScsICc8b3V0ZmlsZS5tYWU+Jw==

>  <s_epik_input>  (1148) 
Q2xjMVtjSF1bY0hdYyhbY0hdW2NIXTEpW0NASF0oW0NIMl1OKFtDSDNdKVtDSDNdKVtDSDJdW05IXVtDSDJdYzJuW2NIXWMoW2NIXVtjSF0yKU9bQ0gyXWMzW2NIXVtjSF1bY0hdW2NIXVtjSF0z

>  <s_i_glide_gridfile>  (1148) 
ATP-Grid

>  <s_lp_Force_Field>  (1148) 
OPLS_2005

>  <s_lp_Variant>  (1148) 
m_270004bbb____23846716____24721296-2

>  <s_lp_label>  (1148) 
851_sdstereoexpander_2_neutralizer_1_epik_1_stereoizer_1

>  <s_m_source_file>  (1148) 
ATP-VSW-LIGPREP-001-in.maegz

>  <s_sd_BIOSOLVEIT.INFINISEE\_QUERY\_NAME>  (1148) 
Ref-Lig

>  <s_sd_BIOSOLVEIT.INFINISEE\_QUERY\_SMILES>  (1148) 
S(c1nc2c(cc1C[NH2+]Cc3ccc(cc3)C[NH+](C)C)cccc2)Cc4ccccc4

>  <s_sd_BIOSOLVEIT.INFINISEE\_REACTION\_NAME>  (1148) 
m_270004bbb

>  <s_sd_BIOSOLVEIT.INFINISEE\_REAGENT1\_SMILES>  (1148) 
[R1*]NCC(c1ccc(Cl)cc1)CN(C)C

>  <s_sd_BIOSOLVEIT.INFINISEE\_REAGENT2\_SMILES>  (1148) 
[R1*]Cc1ncc(OCc2ccccc2)cc1

>  <s_sd_BIOSOLVEIT.INFINISEE\_SPACE>  (1148) 
REALSpace_44bn_2023-08

>  <s_vsw_compound_code>  (1148) 
27201

>  <s_vsw_variant>  (1148) 
27201-2

>  <r_epik_Charging_Adjusted_Penalty>  (1148) 
0.41878761294866201

>  <r_epik_Ionization_Penalty>  (1148) 
0.21279999999999999

>  <r_epik_Ionization_Penalty_Charging>  (1148) 
0.2127

>  <r_epik_Ionization_Penalty_Neutral>  (1148) 
0.0001

>  <r_epik_State_Penalty>  (1148) 
0.20610000000000001

>  <r_i_docking_score>  (1148) 
-5.4259679879734897

>  <r_i_glide_ecoul>  (1148) 
-12.610559463501

>  <r_i_glide_eff_state_penalty>  (1148) 
0.20610000000000001

>  <r_i_glide_einternal>  (1148) 
6.0267853736877397

>  <r_i_glide_emodel>  (1148) 
-66.465414415047107

>  <r_i_glide_energy>  (1148) 
-43.988531112670898

>  <r_i_glide_erotb>  (1148) 
0.92929006361901001

>  <r_i_glide_esite>  (1148) 
-0.10000000000000001

>  <r_i_glide_evdw>  (1148) 
-31.377971649169901

>  <r_i_glide_gscore>  (1148) 
-5.6320679879734898

>  <r_i_glide_hbond>  (1148) 
-0.082759042879494094

>  <r_i_glide_ligand_efficiency>  (1148) 
-0.18710234441287901

>  <r_i_glide_ligand_efficiency_ln>  (1148) 
-1.2424090785694

>  <r_i_glide_ligand_efficiency_sa>  (1148) 
-0.57483768021974002

>  <r_i_glide_lipo>  (1148) 
-1.86789287036572

>  <r_i_glide_metal>  (1148) 
-0

>  <r_i_glide_rewards>  (1148) 
-1.0502236363636299

>  <r_lp_Energy>  (1148) 
32.918143000000001

>  <r_lp_tautomer_probability>  (1148) 
1

>  <r_qp_ACxDN^.5/SA>  (1148) 
0.0075211000000000002

>  <r_qp_CIQPlogS>  (1148) 
-4.4349999999999996

>  <r_qp_EA(eV)>  (1148) 
0.192

>  <r_qp_FISA>  (1148) 
28.222999999999999

>  <r_qp_FOSA>  (1148) 
257.12200000000001

>  <r_qp_IP(eV)>  (1148) 
9.0839999999999996

>  <r_qp_Jm>  (1148) 
0.030860691073339601

>  <r_qp_PISA>  (1148) 
362.81700000000001

>  <r_qp_PSA>  (1148) 
35.557000000000002

>  <r_qp_PercentHumanOralAbsorption>  (1148) 
100

>  <r_qp_QPPCaco>  (1148) 
332.709

>  <r_qp_QPPMDCK>  (1148) 
345.72000000000003

>  <r_qp_QPlogBB>  (1148) 
0.60899999999999999

>  <r_qp_QPlogHERG>  (1148) 
-7.4180000000000001

>  <r_qp_QPlogKhsa>  (1148) 
0.75700000000000001

>  <r_qp_QPlogKp>  (1148) 
-3.927

>  <r_qp_QPlogPC16>  (1148) 
13.776

>  <r_qp_QPlogPo/w>  (1148) 
4.7380000000000004

>  <r_qp_QPlogPoct>  (1148) 
18.606999999999999

>  <r_qp_QPlogPw>  (1148) 
8.5060000000000002

>  <r_qp_QPlogS>  (1148) 
-3.1970000000000001

>  <r_qp_QPpolrz>  (1148) 
43.643000000000001

>  <r_qp_SASA>  (1148) 
698.03599999999994

>  <r_qp_SAamideO>  (1148) 
0

>  <r_qp_SAfluorine>  (1148) 
0

>  <r_qp_WPSA>  (1148) 
49.872999999999998

>  <r_qp_accptHB>  (1148) 
5.25

>  <r_qp_dip^2/V>  (1148) 
0.0022336000000000001

>  <r_qp_dipole>  (1148) 
1.716

>  <r_qp_donorHB>  (1148) 
1

>  <r_qp_glob>  (1148) 
0.83291369999999998

>  <r_qp_mol_MW>  (1148) 
409.95800000000003

>  <r_qp_volume>  (1148) 
1318.162

>  <r_sd_BIOSOLVEIT.INFINISEE\_FTREES\_SIMILARITY>  (1148) 
0.92100000000000004

>  <r_sd_BIOSOLVEIT.LOGP>  (1148) 
2.3056999999999999

>  <r_sd_BIOSOLVEIT.MOLECULAR\_WEIGHT>  (1148) 
411.97399999999999

>  <r_sd_BIOSOLVEIT.TPSA>  (1148) 
43.170000000000002

>  <i_epik_Tot_Q>  (1148) 
2

>  <i_epik_Tot_abs_Q>  (1148) 
2

>  <i_f3d_flags>  (1148) 
0

>  <i_i_glide_confnum>  (1148) 
3

>  <i_i_glide_lignum>  (1148) 
143

>  <i_i_glide_posenum>  (1148) 
16

>  <i_i_glide_rotatable_bonds>  (1148) 
10

>  <i_lp_mmshare_version>  (1148) 
65135

>  <i_m_ct_format>  (1148) 
2

>  <i_m_source_file_index>  (1148) 
851

>  <i_qp_#NandO>  (1148) 
4

>  <i_qp_#acid>  (1148) 
0

>  <i_qp_#amide>  (1148) 
0

>  <i_qp_#amidine>  (1148) 
0

>  <i_qp_#amine>  (1148) 
2

>  <i_qp_#in34>  (1148) 
0

>  <i_qp_#in56>  (1148) 
18

>  <i_qp_#metab>  (1148) 
7

>  <i_qp_#nonHatm>  (1148) 
29

>  <i_qp_#noncon>  (1148) 
0

>  <i_qp_#ringatoms>  (1148) 
18

>  <i_qp_#rotor>  (1148) 
10

>  <i_qp_#rtvFG>  (1148) 
0

>  <i_qp_#stars>  (1148) 
0

>  <i_qp_CNS>  (1148) 
2

>  <i_qp_HumanOralAbsorption>  (1148) 
3

>  <i_qp_RuleOfFive>  (1148) 
0

>  <i_qp_RuleOfThree>  (1148) 
1

>  <i_sd_BIOSOLVEIT.INFINISEE\_REAGENT1\_NAME>  (1148) 
23846716

>  <i_sd_BIOSOLVEIT.INFINISEE\_REAGENT2\_NAME>  (1148) 
24721296

>  <i_sd_BIOSOLVEIT.INFINISEE\_RESULT\_RANK>  (1148) 
15031

>  <i_sd_version>  (1148) 
0

>  <b_lp_Chiralities_Consistent>  (1148) 
1

>  <b_sd_chiral_flag>  (1148) 
0

>  <canonical_id>  (1148) 
ATP-HTVS-B7368E70BBC8

>  <compound_code>  (1148) 
27201

>  <title>  (1148) 
m_270004bbb____23846716____24721296

>  <variant>  (1148) 
27201-2

>  <source_file>  (1148) 
运行/运行/ATP-VSW/ATP-VSW-DOCK_HTVS_1-001_lib/ATP-VSW-DOCK_HTVS_1-001_lib

>  <canonical_smiles>  (1148) 
C[NH+](C)C[C@H](C[NH2+]Cc1ccc(OCc2ccccc2)cn1)c1ccc(Cl)cc1

>  <scaffold>  (1148) 
c1ccc(CC[NH2+]Cc2ccc(OCc3ccccc3)cn2)cc1

>  <molecular_formula>  (1148) 
C24H30ClN3O+2

$$$$
ATP-HTVS-B7604789CEBF
     RDKit          3D

 52 54  0  0  0  0  0  0  0  0999 V2000
  196.7561  181.8027  151.0607 Cl  0  0  0  0  0  0  0  0  0  0  0  0
  197.2743  183.4020  150.6513 C   0  0  0  0  0  0  0  0  0  0  0  0
  197.8150  184.2699  151.6268 C   0  0  0  0  0  0  0  0  0  0  0  0
  197.9809  183.8603  152.9506 N   0  0  0  0  0  0  0  0  0  0  0  0
  199.0596  183.1265  153.3027 N   0  0  0  0  0  0  0  0  0  0  0  0
  198.9614  182.9054  154.5758 N   0  0  0  0  0  0  0  0  0  0  0  0
  197.7712  183.4640  155.0445 C   0  0  0  0  0  0  0  0  0  0  0  0
  197.1506  184.1063  154.0174 C   0  0  0  0  0  0  0  0  0  0  0  0
  197.3512  183.3242  156.4742 C   0  0  1  0  0  0  0  0  0  0  0  0
  196.3440  182.2418  156.6836 N   0  0  2  0  0  0  0  0  0  0  0  0
  195.9875  181.9946  158.1130 C   0  0  1  0  0  0  0  0  0  0  0  0
  195.8357  183.2602  158.9483 C   0  0  0  0  0  0  0  0  0  0  0  0
  196.9860  183.8896  159.4619 C   0  0  0  0  0  0  0  0  0  0  0  0
  196.8693  185.1103  160.1464 C   0  0  0  0  0  0  0  0  0  0  0  0
  195.6118  185.6924  160.3951 C   0  0  0  0  0  0  0  0  0  0  0  0
  194.4527  185.0210  159.9448 C   0  0  0  0  0  0  0  0  0  0  0  0
  194.5646  183.8220  159.2075 C   0  0  0  0  0  0  0  0  0  0  0  0
  195.5064  186.9977  161.1822 C   0  0  1  0  0  0  0  0  0  0  0  0
  195.9479  188.2127  160.4308 N   0  0  2  0  0  0  0  0  0  0  0  0
  197.2760  188.1161  159.7597 C   0  0  2  0  0  0  0  0  0  0  0  0
  195.8956  189.4240  161.2727 C   0  0  2  0  0  0  0  0  0  0  0  0
  196.7227  180.9731  156.0197 C   0  0  2  0  0  0  0  0  0  0  0  0
  198.2014  185.5800  151.2864 C   0  0  0  0  0  0  0  0  0  0  0  0
  198.0610  186.0256  149.9643 C   0  0  0  0  0  0  0  0  0  0  0  0
  197.5387  185.1630  148.9795 C   0  0  0  0  0  0  0  0  0  0  0  0
  197.1458  183.8535  149.3231 C   0  0  0  0  0  0  0  0  0  0  0  0
  196.2290  184.6765  153.9443 H   0  0  0  0  0  0  0  0  0  0  0  0
  198.2373  183.1174  157.0747 H   0  0  0  0  0  0  0  0  0  0  0  0
  196.9462  184.2830  156.8021 H   0  0  0  0  0  0  0  0  0  0  0  0
  195.0568  181.4287  158.1451 H   0  0  0  0  0  0  0  0  0  0  0  0
  196.7438  181.3761  158.5980 H   0  0  0  0  0  0  0  0  0  0  0  0
  197.9749  183.4766  159.3123 H   0  0  0  0  0  0  0  0  0  0  0  0
  197.7713  185.5500  160.5362 H   0  0  0  0  0  0  0  0  0  0  0  0
  193.4715  185.4380  160.1353 H   0  0  0  0  0  0  0  0  0  0  0  0
  193.6733  183.3497  158.8156 H   0  0  0  0  0  0  0  0  0  0  0  0
  194.4636  187.1507  161.4717 H   0  0  0  0  0  0  0  0  0  0  0  0
  196.0397  186.8919  162.1255 H   0  0  0  0  0  0  0  0  0  0  0  0
  198.0537  187.8914  160.4899 H   0  0  0  0  0  0  0  0  0  0  0  0
  197.5510  189.0554  159.2756 H   0  0  0  0  0  0  0  0  0  0  0  0
  197.2858  187.3430  158.9865 H   0  0  0  0  0  0  0  0  0  0  0  0
  196.6006  189.3681  162.1042 H   0  0  0  0  0  0  0  0  0  0  0  0
  194.8908  189.5745  161.6702 H   0  0  0  0  0  0  0  0  0  0  0  0
  196.1499  190.3023  160.6785 H   0  0  0  0  0  0  0  0  0  0  0  0
  197.6386  180.5624  156.4543 H   0  0  0  0  0  0  0  0  0  0  0  0
  196.8664  181.0842  154.9382 H   0  0  0  0  0  0  0  0  0  0  0  0
  195.9452  180.2321  156.1293 H   0  0  0  0  0  0  0  0  0  0  0  0
  198.6040  186.2401  152.0417 H   0  0  0  0  0  0  0  0  0  0  0  0
  198.3588  187.0347  149.7292 H   0  0  0  0  0  0  0  0  0  0  0  0
  197.4358  185.5031  147.9608 H   0  0  0  0  0  0  0  0  0  0  0  0
  196.7454  183.1983  148.5634 H   0  0  0  0  0  0  0  0  0  0  0  0
  195.2749  188.3652  159.6944 H   0  0  0  0  0  0  0  0  0  0  0  0
  195.4831  182.5491  156.2388 H   0  0  0  0  0  0  0  0  0  0  0  0
  1  2  1  0
  2  3  1  0
  2 26  2  0
  3  4  1  0
  3 23  2  0
  4  5  1  0
  4  8  1  0
  5  6  2  0
  6  7  1  0
  7  8  2  0
  7  9  1  0
  8 27  1  0
  9 10  1  0
  9 28  1  1
  9 29  1  0
 10 11  1  0
 10 22  1  0
 10 52  1  6
 11 12  1  0
 11 30  1  6
 11 31  1  0
 12 13  1  0
 12 17  2  0
 13 14  2  0
 13 32  1  0
 14 15  1  0
 14 33  1  0
 15 16  2  0
 15 18  1  0
 16 17  1  0
 16 34  1  0
 17 35  1  0
 18 19  1  0
 18 36  1  1
 18 37  1  0
 19 20  1  0
 19 21  1  0
 19 51  1  6
 20 38  1  1
 20 39  1  0
 20 40  1  0
 21 41  1  1
 21 42  1  0
 21 43  1  0
 22 44  1  1
 22 45  1  0
 22 46  1  0
 23 24  1  0
 23 47  1  0
 24 25  2  0
 24 48  1  0
 25 26  1  0
 25 49  1  0
 26 50  1  0
M  CHG  2  10   1  19   1
M  END
>  <s_epik_cmdline>  (1149) 
J2VwaWtfcHl0aG9uJywgJy1waCcsICc3LjAwMDAwMCcsICctcGh0JywgJzIuMDAwMDAwJywgJy1tcycsICcxNicsICctdG4nLCAnOCcsICctbWEnLCAnMjAwJywgJy1pbWFlJywgJzxpbmZpbGUubWFlPicsICctb21hZScsICc8b3V0ZmlsZS5tYWU+Jw==

>  <s_epik_input>  (1149) 
W2NIXTFbY0hdW2NIXVtjSF1jKGMxQ2wpLW4ybm5jKFtjSF0yKVtDSDJdTihbQ0gzXSlbQ0gyXWMzW2NIXVtjSF1jKFtjSF1bY0hdMylbQ0gyXU4oW0NIM10pW0NIM10=

>  <s_i_glide_gridfile>  (1149) 
ATP-Grid

>  <s_lp_Force_Field>  (1149) 
OPLS_2005

>  <s_lp_Variant>  (1149) 
m_274952bba____12996510____12611784____19964966-3

>  <s_lp_label>  (1149) 
1830_sdstereoexpander_1_neutralizer_1_epik_2_stereoizer_2

>  <s_m_source_file>  (1149) 
ATP-VSW-LIGPREP-002-in.maegz

>  <s_sd_BIOSOLVEIT.INFINISEE\_QUERY\_NAME>  (1149) 
Ref-Lig

>  <s_sd_BIOSOLVEIT.INFINISEE\_QUERY\_SMILES>  (1149) 
S(c1nc2c(cc1C[NH2+]Cc3ccc(cc3)C[NH+](C)C)cccc2)Cc4ccccc4

>  <s_sd_BIOSOLVEIT.INFINISEE\_REACTION\_NAME>  (1149) 
m_274952bba

>  <s_sd_BIOSOLVEIT.INFINISEE\_REAGENT1\_SMILES>  (1149) 
[R1*]N(Cc1ccc(cc1)CN(C)C)C

>  <s_sd_BIOSOLVEIT.INFINISEE\_REAGENT2\_SMILES>  (1149) 
[R2*]C(=C[R3*])C[R1*]

>  <s_sd_BIOSOLVEIT.INFINISEE\_REAGENT3\_SMILES>  (1149) 
[R2*]N=NN([R3*])c1c(Cl)cccc1

>  <s_sd_BIOSOLVEIT.INFINISEE\_SPACE>  (1149) 
REALSpace_44bn_2023-08

>  <s_vsw_compound_code>  (1149) 
58530

>  <s_vsw_variant>  (1149) 
58530-3

>  <r_epik_Charging_Adjusted_Penalty>  (1149) 
1.3767577133437701

>  <r_epik_Ionization_Penalty>  (1149) 
0.69099999999999995

>  <r_epik_Ionization_Penalty_Charging>  (1149) 
0.69099999999999995

>  <r_epik_Ionization_Penalty_Neutral>  (1149) 
0

>  <r_epik_State_Penalty>  (1149) 
0.68579999999999997

>  <r_i_docking_score>  (1149) 
-4.9278895323099503

>  <r_i_glide_ecoul>  (1149) 
-10.033932685852101

>  <r_i_glide_eff_state_penalty>  (1149) 
0.68579999999999997

>  <r_i_glide_einternal>  (1149) 
5.0260715484619096

>  <r_i_glide_emodel>  (1149) 
-62.567445403507499

>  <r_i_glide_energy>  (1149) 
-41.381503105163603

>  <r_i_glide_erotb>  (1149) 
0.83758195891187004

>  <r_i_glide_esite>  (1149) 
-0.086149835308652695

>  <r_i_glide_evdw>  (1149) 
-31.347570419311499

>  <r_i_glide_gscore>  (1149) 
-5.6136895323099498

>  <r_i_glide_hbond>  (1149) 
-0.20000000000000001

>  <r_i_glide_ligand_efficiency>  (1149) 
-0.18953421278115201

>  <r_i_glide_ligand_efficiency_ln>  (1149) 
-1.15729868693857

>  <r_i_glide_ligand_efficiency_sa>  (1149) 
-0.56149435958304805

>  <r_i_glide_lipo>  (1149) 
-2.21928941388797

>  <r_i_glide_metal>  (1149) 
-0

>  <r_i_glide_rewards>  (1149) 
-0.87336381818181696

>  <r_lp_Energy>  (1149) 
19.946159000000002

>  <r_lp_tautomer_probability>  (1149) 
1

>  <r_qp_ACxDN^.5/SA>  (1149) 
0

>  <r_qp_CIQPlogS>  (1149) 
-3.0680000000000001

>  <r_qp_EA(eV)>  (1149) 
0.79100000000000004

>  <r_qp_FISA>  (1149) 
50.561

>  <r_qp_FOSA>  (1149) 
298.846

>  <r_qp_IP(eV)>  (1149) 
9.0329999999999995

>  <r_qp_Jm>  (1149) 
0.0033947301481143202

>  <r_qp_PISA>  (1149) 
299.24400000000003

>  <r_qp_PSA>  (1149) 
42.417999999999999

>  <r_qp_PercentHumanOralAbsorption>  (1149) 
89.742000000000004

>  <r_qp_QPPCaco>  (1149) 
204.28

>  <r_qp_QPPMDCK>  (1149) 
201.499

>  <r_qp_QPlogBB>  (1149) 
0.59799999999999998

>  <r_qp_QPlogHERG>  (1149) 
-7.5720000000000001

>  <r_qp_QPlogKhsa>  (1149) 
0.38800000000000001

>  <r_qp_QPlogKp>  (1149) 
-4.9459999999999997

>  <r_qp_QPlogPC16>  (1149) 
12.670999999999999

>  <r_qp_QPlogPo/w>  (1149) 
3.6629999999999998

>  <r_qp_QPlogPoct>  (1149) 
17.535

>  <r_qp_QPlogPw>  (1149) 
8.3810000000000002

>  <r_qp_QPlogS>  (1149) 
-3.0910000000000002

>  <r_qp_QPpolrz>  (1149) 
42.887999999999998

>  <r_qp_SASA>  (1149) 
697.52499999999998

>  <r_qp_SAamideO>  (1149) 
0

>  <r_qp_SAfluorine>  (1149) 
0

>  <r_qp_WPSA>  (1149) 
48.872999999999998

>  <r_qp_accptHB>  (1149) 
6

>  <r_qp_dip^2/V>  (1149) 
0.0204072

>  <r_qp_dipole>  (1149) 
5.0510000000000002

>  <r_qp_donorHB>  (1149) 
0

>  <r_qp_glob>  (1149) 
0.80466760000000004

>  <r_qp_mol_MW>  (1149) 
369.89600000000002

>  <r_qp_volume>  (1149) 
1250.307

>  <r_sd_BIOSOLVEIT.INFINISEE\_FTREES\_SIMILARITY>  (1149) 
0.90300000000000002

>  <r_sd_BIOSOLVEIT.LOGP>  (1149) 
0.78010000000000002

>  <r_sd_BIOSOLVEIT.MOLECULAR\_WEIGHT>  (1149) 
371.91300000000001

>  <r_sd_BIOSOLVEIT.TPSA>  (1149) 
39.590000000000003

>  <i_epik_Tot_Q>  (1149) 
2

>  <i_epik_Tot_abs_Q>  (1149) 
2

>  <i_f3d_flags>  (1149) 
0

>  <i_i_glide_confnum>  (1149) 
6

>  <i_i_glide_lignum>  (1149) 
649

>  <i_i_glide_posenum>  (1149) 
10

>  <i_i_glide_rotatable_bonds>  (1149) 
7

>  <i_lp_mmshare_version>  (1149) 
65135

>  <i_m_ct_format>  (1149) 
2

>  <i_m_source_file_index>  (1149) 
1830

>  <i_qp_#NandO>  (1149) 
5

>  <i_qp_#acid>  (1149) 
0

>  <i_qp_#amide>  (1149) 
0

>  <i_qp_#amidine>  (1149) 
0

>  <i_qp_#amine>  (1149) 
2

>  <i_qp_#in34>  (1149) 
0

>  <i_qp_#in56>  (1149) 
17

>  <i_qp_#metab>  (1149) 
5

>  <i_qp_#nonHatm>  (1149) 
26

>  <i_qp_#noncon>  (1149) 
0

>  <i_qp_#ringatoms>  (1149) 
17

>  <i_qp_#rotor>  (1149) 
6

>  <i_qp_#rtvFG>  (1149) 
0

>  <i_qp_#stars>  (1149) 
0

>  <i_qp_CNS>  (1149) 
2

>  <i_qp_HumanOralAbsorption>  (1149) 
3

>  <i_qp_RuleOfFive>  (1149) 
0

>  <i_qp_RuleOfThree>  (1149) 
0

>  <i_sd_BIOSOLVEIT.INFINISEE\_REAGENT1\_NAME>  (1149) 
12996510

>  <i_sd_BIOSOLVEIT.INFINISEE\_REAGENT2\_NAME>  (1149) 
12611784

>  <i_sd_BIOSOLVEIT.INFINISEE\_REAGENT3\_NAME>  (1149) 
19964966

>  <i_sd_BIOSOLVEIT.INFINISEE\_RESULT\_RANK>  (1149) 
79824

>  <i_sd_version>  (1149) 
0

>  <b_lp_Chiralities_Consistent>  (1149) 
1

>  <b_sd_chiral_flag>  (1149) 
0

>  <canonical_id>  (1149) 
ATP-HTVS-B7604789CEBF

>  <compound_code>  (1149) 
58530

>  <title>  (1149) 
m_274952bba____12996510____12611784____19964966

>  <variant>  (1149) 
58530-3

>  <source_file>  (1149) 
运行/运行/ATP-VSW/ATP-VSW-DOCK_HTVS_1-002_lib.maegz

>  <canonical_smiles>  (1149) 
C[NH+](C)Cc1ccc(C[N@H+](C)Cc2cn(-c3ccccc3Cl)nn2)cc1

>  <scaffold>  (1149) 
c1ccc(C[NH2+]Cc2cn(-c3ccccc3)nn2)cc1

>  <molecular_formula>  (1149) 
C20H26ClN5+2

$$$$
ATP-HTVS-B77025854F9D
     RDKit          3D

 53 56  0  0  0  0  0  0  0  0999 V2000
  197.6447  182.9053  159.0874 O   0  0  0  0  0  0  0  0  0  0  0  0
  197.7090  183.3181  157.9332 C   0  0  0  0  0  0  0  0  0  0  0  0
  197.7693  184.6171  157.5684 N   0  0  0  0  0  0  0  0  0  0  0  0
  197.7951  184.7029  156.1798 C   0  0  0  0  0  0  0  0  0  0  0  0
  197.7535  183.4265  155.6463 C   0  0  0  0  0  0  0  0  0  0  0  0
  197.8172  183.3240  154.2398 C   0  0  0  0  0  0  0  0  0  0  0  0
  197.9248  184.4243  153.3941 C   0  0  0  0  0  0  0  0  0  0  0  0
  197.9558  185.6985  153.9559 C   0  0  0  0  0  0  0  0  0  0  0  0
  197.8828  185.8565  155.3607 C   0  0  0  0  0  0  0  0  0  0  0  0
  197.7018  182.3690  156.7311 C   0  0  2  0  0  0  0  0  0  0  0  0
  196.5121  181.4752  156.6940 N   0  0  1  0  0  0  0  0  0  0  0  0
  196.3732  180.6350  155.4772 C   0  0  1  0  0  0  0  0  0  0  0  0
  197.6913  180.3112  154.7320 C   0  0  1  0  0  0  0  0  0  0  0  0
  198.4034  179.3256  155.4194 O   0  0  0  0  0  0  0  0  0  0  0  0
  197.4408  180.0320  153.2504 C   0  0  0  0  0  0  0  0  0  0  0  0
  196.5442  180.8070  152.4494 C   0  0  0  0  0  0  0  0  0  0  0  0
  196.3451  180.5025  151.0931 C   0  0  0  0  0  0  0  0  0  0  0  0
  197.0413  179.4368  150.5133 C   0  0  0  0  0  0  0  0  0  0  0  0
  197.9598  178.6902  151.2837 C   0  0  0  0  0  0  0  0  0  0  0  0
  198.1751  179.0296  152.6317 C   0  0  0  0  0  0  0  0  0  0  0  0
  196.8131  179.0735  149.0658 C   0  0  2  0  0  0  0  0  0  0  0  0
  197.7405  185.7815  158.4620 C   0  0  1  0  0  0  0  0  0  0  0  0
  196.4899  185.9293  159.3173 C   0  0  0  0  0  0  0  0  0  0  0  0
  196.3683  187.0656  160.1514 C   0  0  0  0  0  0  0  0  0  0  0  0
  195.2370  187.2174  160.9671 C   0  0  0  0  0  0  0  0  0  0  0  0
  194.2213  186.2419  160.9685 C   0  0  0  0  0  0  0  0  0  0  0  0
  194.3251  185.1203  160.1100 C   0  0  0  0  0  0  0  0  0  0  0  0
  195.4443  184.9747  159.3153 C   0  0  0  0  0  0  0  0  0  0  0  0
  196.5190  180.8237  157.4757 H   0  0  0  0  0  0  0  0  0  0  0  0
  197.8298  182.4476  153.6567 H   0  0  0  0  0  0  0  0  0  0  0  0
  197.9918  184.2314  152.3381 H   0  0  0  0  0  0  0  0  0  0  0  0
  198.0223  186.5548  153.2795 H   0  0  0  0  0  0  0  0  0  0  0  0
  197.9012  186.8538  155.7692 H   0  0  0  0  0  0  0  0  0  0  0  0
  198.6245  181.7875  156.8285 H   0  0  0  0  0  0  0  0  0  0  0  0
  195.8969  179.6686  155.7348 H   0  0  0  0  0  0  0  0  0  0  0  0
  195.6279  181.1539  154.8611 H   0  0  0  0  0  0  0  0  0  0  0  0
  198.4655  181.0650  154.7828 H   0  0  0  0  0  0  0  0  0  0  0  0
  198.1398  179.3249  156.3285 H   0  0  0  0  0  0  0  0  0  0  0  0
  196.0046  181.6549  152.8363 H   0  0  0  0  0  0  0  0  0  0  0  0
  195.6533  181.0955  150.5127 H   0  0  0  0  0  0  0  0  0  0  0  0
  198.5007  177.8532  150.8646 H   0  0  0  0  0  0  0  0  0  0  0  0
  198.8763  178.4362  153.2146 H   0  0  0  0  0  0  0  0  0  0  0  0
  197.1690  178.0651  148.8564 H   0  0  0  0  0  0  0  0  0  0  0  0
  197.3516  179.7738  148.4301 H   0  0  0  0  0  0  0  0  0  0  0  0
  195.7515  179.1233  148.8283 H   0  0  0  0  0  0  0  0  0  0  0  0
  198.6252  185.7368  159.0948 H   0  0  0  0  0  0  0  0  0  0  0  0
  197.8437  186.6964  157.8829 H   0  0  0  0  0  0  0  0  0  0  0  0
  197.1432  187.8193  160.1576 H   0  0  0  0  0  0  0  0  0  0  0  0
  195.1418  188.0923  161.5987 H   0  0  0  0  0  0  0  0  0  0  0  0
  193.3434  186.3606  161.5921 H   0  0  0  0  0  0  0  0  0  0  0  0
  193.5662  184.3554  160.1299 H   0  0  0  0  0  0  0  0  0  0  0  0
  195.4403  184.1020  158.6955 H   0  0  0  0  0  0  0  0  0  0  0  0
  195.6689  182.0321  156.7751 H   0  0  0  0  0  0  0  0  0  0  0  0
  1  2  2  0
  2  3  1  0
  2 10  1  0
  3  4  1  0
  3 22  1  0
  4  5  1  0
  4  9  2  0
  5  6  2  0
  5 10  1  0
  6  7  1  0
  6 30  1  0
  7  8  2  0
  7 31  1  0
  8  9  1  0
  8 32  1  0
  9 33  1  0
 10 11  1  0
 10 34  1  1
 11 12  1  0
 11 29  1  1
 11 53  1  0
 12 13  1  0
 12 35  1  1
 12 36  1  0
 13 14  1  0
 13 15  1  0
 13 37  1  6
 14 38  1  0
 15 16  1  0
 15 20  2  0
 16 17  2  0
 16 39  1  0
 17 18  1  0
 17 40  1  0
 18 19  2  0
 18 21  1  0
 19 20  1  0
 19 41  1  0
 20 42  1  0
 21 43  1  1
 21 44  1  0
 21 45  1  0
 22 23  1  0
 22 46  1  1
 22 47  1  0
 23 24  2  0
 23 28  1  0
 24 25  1  0
 24 48  1  0
 25 26  2  0
 25 49  1  0
 26 27  1  0
 26 50  1  0
 27 28  2  0
 27 51  1  0
 28 52  1  0
M  CHG  1  11   1
M  END
>  <s_epik_cmdline>  (1150) 
J2VwaWtfcHl0aG9uJywgJy1waCcsICc3LjAwMDAwMCcsICctcGh0JywgJzIuMDAwMDAwJywgJy1tcycsICcxNicsICctdG4nLCAnOCcsICctbWEnLCAnMjAwJywgJy1pbWFlJywgJzxpbmZpbGUubWFlPicsICctb21hZScsICc8b3V0ZmlsZS5tYWU+Jw==

>  <s_epik_input>  (1150) 
W2NIXTFbY0hdW2NIXVtjSF1bY0hdYzFbQ0gyXU4yQyg9TylbQ0BIXShjKGMyMylbY0hdW2NIXVtjSF1bY0hdMylbTkhdW0NIMl1bQ0BASF0oW09IXSljNFtjSF1bY0hdYyhbQ0gzXSlbY0hdW2NIXTQ=

>  <s_i_glide_gridfile>  (1150) 
ATP-Grid

>  <s_lp_Force_Field>  (1150) 
OPLS_2005

>  <s_lp_Variant>  (1150) 
rxn207____EMOL952557____EMOL42769518-4

>  <s_lp_label>  (1150) 
2219_sdstereoexpander_4_neutralizer_1_epik_1_stereoizer_1

>  <s_m_source_file>  (1150) 
ATP-VSW-LIGPREP-003-in.maegz

>  <s_sd_BIOSOLVEIT.INFINISEE\_QUERY\_NAME>  (1150) 
Ref-Lig

>  <s_sd_BIOSOLVEIT.INFINISEE\_QUERY\_SMILES>  (1150) 
S(c1nc2c(cc1C[NH2+]Cc3ccc(cc3)C[NH+](C)C)cccc2)Cc4ccccc4

>  <s_sd_BIOSOLVEIT.INFINISEE\_REACTION\_NAME>  (1150) 
rxn207

>  <s_sd_BIOSOLVEIT.INFINISEE\_REAGENT1\_NAME>  (1150) 
EMOL952557

>  <s_sd_BIOSOLVEIT.INFINISEE\_REAGENT1\_SMILES>  (1150) 
O=C1N(c2c(cccc2)C1=O)Cc3ccccc3

>  <s_sd_BIOSOLVEIT.INFINISEE\_REAGENT2\_NAME>  (1150) 
EMOL42769518

>  <s_sd_BIOSOLVEIT.INFINISEE\_REAGENT2\_SMILES>  (1150) 
OC(c1ccc(cc1)C)CN

>  <s_sd_BIOSOLVEIT.INFINISEE\_SPACE>  (1150) 
eXplore_7tr_2022-12

>  <s_vsw_compound_code>  (1150) 
70979

>  <s_vsw_variant>  (1150) 
70979-4

>  <r_epik_Charging_Adjusted_Penalty>  (1150) 
0.75738181893249101

>  <r_epik_Ionization_Penalty>  (1150) 
0.37869999999999998

>  <r_epik_Ionization_Penalty_Charging>  (1150) 
0.37869999999999998

>  <r_epik_Ionization_Penalty_Neutral>  (1150) 
0

>  <r_epik_State_Penalty>  (1150) 
0.37869999999999998

>  <r_i_docking_score>  (1150) 
-5.1806379097778201

>  <r_i_glide_ecoul>  (1150) 
-10.016170501709

>  <r_i_glide_eff_state_penalty>  (1150) 
0.37869999999999998

>  <r_i_glide_einternal>  (1150) 
9.3263072967529297

>  <r_i_glide_emodel>  (1150) 
-59.0172234472535

>  <r_i_glide_energy>  (1150) 
-41.453187942504897

>  <r_i_glide_erotb>  (1150) 
0.83133171110677595

>  <r_i_glide_esite>  (1150) 
-0.11370276648421999

>  <r_i_glide_evdw>  (1150) 
-31.437017440795898

>  <r_i_glide_gscore>  (1150) 
-5.5593379097778204

>  <r_i_glide_hbond>  (1150) 
-0.13626967363692899

>  <r_i_glide_ligand_efficiency>  (1150) 
-0.185022782492065

>  <r_i_glide_ligand_efficiency_ln>  (1150) 
-1.1958433397153501

>  <r_i_glide_ligand_efficiency_sa>  (1150) 
-0.56183814023709999

>  <r_i_glide_lipo>  (1150) 
-1.9677576523297999

>  <r_i_glide_metal>  (1150) 
-0

>  <r_i_glide_rewards>  (1150) 
-1.0986630811375

>  <r_lp_Energy>  (1150) 
33.316457

>  <r_qp_ACxDN^.5/SA>  (1150) 
0.012398599999999999

>  <r_qp_CIQPlogS>  (1150) 
-4.4180000000000001

>  <r_qp_EA(eV)>  (1150) 
0.122

>  <r_qp_FISA>  (1150) 
84.162999999999997

>  <r_qp_FOSA>  (1150) 
165.465

>  <r_qp_IP(eV)>  (1150) 
8.8170000000000002

>  <r_qp_Jm>  (1150) 
0.018733332954269301

>  <r_qp_PISA>  (1150) 
457.56099999999998

>  <r_qp_PSA>  (1150) 
60.325000000000003

>  <r_qp_PercentHumanOralAbsorption>  (1150) 
95.828999999999994

>  <r_qp_QPPCaco>  (1150) 
393.26499999999999

>  <r_qp_QPPMDCK>  (1150) 
199.58699999999999

>  <r_qp_QPlogBB>  (1150) 
-0.34699999999999998

>  <r_qp_QPlogHERG>  (1150) 
-7.7539999999999996

>  <r_qp_QPlogKhsa>  (1150) 
0.47099999999999997

>  <r_qp_QPlogKp>  (1150) 
-2.8490000000000002

>  <r_qp_QPlogPC16>  (1150) 
14.19

>  <r_qp_QPlogPo/w>  (1150) 
3.8330000000000002

>  <r_qp_QPlogPoct>  (1150) 
20.978999999999999

>  <r_qp_QPlogPw>  (1150) 
12.598000000000001

>  <r_qp_QPlogS>  (1150) 
-4.4489999999999998

>  <r_qp_QPpolrz>  (1150) 
43.905000000000001

>  <r_qp_SASA>  (1150) 
707.18899999999996

>  <r_qp_SAamideO>  (1150) 
0

>  <r_qp_SAfluorine>  (1150) 
0

>  <r_qp_WPSA>  (1150) 
0

>  <r_qp_accptHB>  (1150) 
6.2000000000000002

>  <r_qp_dip^2/V>  (1150) 
0.017786

>  <r_qp_dipole>  (1150) 
4.7229999999999999

>  <r_qp_donorHB>  (1150) 
2

>  <r_qp_glob>  (1150) 
0.79521730000000002

>  <r_qp_mol_MW>  (1150) 
372.46600000000001

>  <r_qp_volume>  (1150) 
1253.962

>  <r_sd_BIOSOLVEIT.INFINISEE\_FTREES\_SIMILARITY>  (1150) 
0.92900000000000005

>  <r_sd_BIOSOLVEIT.LOGP>  (1150) 
2.8799199999999998

>  <r_sd_BIOSOLVEIT.MOLECULAR\_WEIGHT>  (1150) 
373.47399999999999

>  <r_sd_BIOSOLVEIT.TPSA>  (1150) 
57.149999999999999

>  <i_epik_Tot_Q>  (1150) 
1

>  <i_epik_Tot_abs_Q>  (1150) 
1

>  <i_f3d_flags>  (1150) 
0

>  <i_i_glide_confnum>  (1150) 
6

>  <i_i_glide_lignum>  (1150) 
882

>  <i_i_glide_posenum>  (1150) 
3

>  <i_i_glide_rotatable_bonds>  (1150) 
7

>  <i_lp_mmshare_version>  (1150) 
65135

>  <i_m_ct_format>  (1150) 
2

>  <i_m_source_file_index>  (1150) 
2219

>  <i_qp_#NandO>  (1150) 
4

>  <i_qp_#acid>  (1150) 
0

>  <i_qp_#amide>  (1150) 
0

>  <i_qp_#amidine>  (1150) 
0

>  <i_qp_#amine>  (1150) 
1

>  <i_qp_#in34>  (1150) 
0

>  <i_qp_#in56>  (1150) 
21

>  <i_qp_#metab>  (1150) 
5

>  <i_qp_#nonHatm>  (1150) 
28

>  <i_qp_#noncon>  (1150) 
1

>  <i_qp_#ringatoms>  (1150) 
21

>  <i_qp_#rotor>  (1150) 
7

>  <i_qp_#rtvFG>  (1150) 
0

>  <i_qp_#stars>  (1150) 
1

>  <i_qp_CNS>  (1150) 
1

>  <i_qp_HumanOralAbsorption>  (1150) 
3

>  <i_qp_RuleOfFive>  (1150) 
0

>  <i_qp_RuleOfThree>  (1150) 
0

>  <i_sd_BIOSOLVEIT.INFINISEE\_RESULT\_RANK>  (1150) 
5124

>  <i_sd_version>  (1150) 
0

>  <b_lp_Chiralities_Consistent>  (1150) 
1

>  <b_sd_chiral_flag>  (1150) 
0

>  <canonical_id>  (1150) 
ATP-HTVS-B77025854F9D

>  <compound_code>  (1150) 
70979

>  <title>  (1150) 
rxn207____EMOL952557____EMOL42769518

>  <variant>  (1150) 
70979-4

>  <source_file>  (1150) 
运行/运行/ATP-VSW/ATP-VSW-DOCK_HTVS_1-003_lib/ATP-VSW-DOCK_HTVS_1-003_lib.mae

>  <canonical_smiles>  (1150) 
Cc1ccc([C@H](O)C[NH2+][C@@H]2C(=O)N(Cc3ccccc3)c3ccccc32)cc1

>  <scaffold>  (1150) 
O=C1C([NH2+]CCc2ccccc2)c2ccccc2N1Cc1ccccc1

>  <molecular_formula>  (1150) 
C24H25N2O2+

$$$$
ATP-HTVS-B798CBAC6C44
     RDKit          3D

 47 50  0  0  0  0  0  0  0  0999 V2000
  201.1700  174.7325  155.2490 Cl  0  0  0  0  0  0  0  0  0  0  0  0
  200.8681  176.3794  155.6517 C   0  0  0  0  0  0  0  0  0  0  0  0
  200.3640  177.2701  154.6841 C   0  0  0  0  0  0  0  0  0  0  0  0
  200.1214  178.6198  155.0208 C   0  0  0  0  0  0  0  0  0  0  0  0
  200.3732  179.0922  156.3324 C   0  0  0  0  0  0  0  0  0  0  0  0
  200.1901  180.4689  156.7057 N   0  0  0  0  0  0  0  0  0  0  0  0
  199.0349  181.1411  156.3751 C   0  0  0  0  0  0  0  0  0  0  0  0
  198.1552  180.6727  155.6650 O   0  0  0  0  0  0  0  0  0  0  0  0
  198.8309  182.5423  156.9037 C   0  0  0  0  0  0  0  0  0  0  0  0
  197.6499  182.9435  157.6173 C   0  0  0  0  0  0  0  0  0  0  0  0
  197.5634  184.2843  158.0922 C   0  0  0  0  0  0  0  0  0  0  0  0
  198.6477  185.1603  157.8256 C   0  0  0  0  0  0  0  0  0  0  0  0
  199.7166  184.7797  157.0822 N   0  0  0  0  0  0  0  0  0  0  0  0
  199.8043  183.5205  156.6469 C   0  0  0  0  0  0  0  0  0  0  0  0
  198.6688  186.5029  158.2580 N   0  0  0  0  0  0  0  0  0  0  0  0
  197.6821  187.3016  157.8236 C   0  0  0  0  0  0  0  0  0  0  0  0
  196.7786  187.9351  157.4726 N   0  0  0  0  0  0  0  0  0  0  0  0
  199.7802  187.0503  158.9468 C   0  0  0  0  0  0  0  0  0  0  0  0
  199.9408  188.4559  159.0324 C   0  0  0  0  0  0  0  0  0  0  0  0
  201.0247  189.0133  159.7373 C   0  0  0  0  0  0  0  0  0  0  0  0
  201.9695  188.1785  160.3615 C   0  0  0  0  0  0  0  0  0  0  0  0
  201.8280  186.7816  160.2847 C   0  0  0  0  0  0  0  0  0  0  0  0
  200.7404  186.2254  159.5892 C   0  0  0  0  0  0  0  0  0  0  0  0
  196.4028  184.7156  158.7911 C   0  0  0  0  0  0  0  0  0  0  0  0
  195.3263  183.8423  159.0014 C   0  0  0  0  0  0  0  0  0  0  0  0
  195.4096  182.5157  158.5487 C   0  0  0  0  0  0  0  0  0  0  0  0
  196.5688  182.0662  157.8823 C   0  0  0  0  0  0  0  0  0  0  0  0
  201.2487  181.0765  157.5480 C   0  0  2  0  0  0  0  0  0  0  0  0
  200.8701  178.1767  157.2929 C   0  0  0  0  0  0  0  0  0  0  0  0
  201.1245  176.8365  156.9535 C   0  0  0  0  0  0  0  0  0  0  0  0
  200.1714  176.9203  153.6792 H   0  0  0  0  0  0  0  0  0  0  0  0
  199.7590  179.2882  154.2487 H   0  0  0  0  0  0  0  0  0  0  0  0
  200.7042  183.2755  156.0834 H   0  0  0  0  0  0  0  0  0  0  0  0
  199.2289  189.1262  158.5718 H   0  0  0  0  0  0  0  0  0  0  0  0
  201.1177  190.0857  159.8106 H   0  0  0  0  0  0  0  0  0  0  0  0
  202.7964  188.6081  160.9073 H   0  0  0  0  0  0  0  0  0  0  0  0
  202.5477  186.1302  160.7581 H   0  0  0  0  0  0  0  0  0  0  0  0
  200.6611  185.1491  159.5710 H   0  0  0  0  0  0  0  0  0  0  0  0
  196.3179  185.7264  159.1653 H   0  0  0  0  0  0  0  0  0  0  0  0
  194.4454  184.1995  159.5140 H   0  0  0  0  0  0  0  0  0  0  0  0
  194.5874  181.8349  158.7141 H   0  0  0  0  0  0  0  0  0  0  0  0
  196.5733  181.0373  157.5596 H   0  0  0  0  0  0  0  0  0  0  0  0
  200.8362  181.2886  158.5412 H   0  0  0  0  0  0  0  0  0  0  0  0
  201.6503  181.9722  157.1061 H   0  0  0  0  0  0  0  0  0  0  0  0
  202.0738  180.3620  157.7087 H   0  0  0  0  0  0  0  0  0  0  0  0
  201.0830  178.4981  158.2998 H   0  0  0  0  0  0  0  0  0  0  0  0
  201.5178  176.1631  157.7000 H   0  0  0  0  0  0  0  0  0  0  0  0
  1  2  1  0
  2  3  1  0
  2 30  2  0
  3  4  2  0
  3 31  1  0
  4  5  1  0
  4 32  1  0
  5  6  1  0
  5 29  2  0
  6  7  1  0
  6 28  1  0
  7  8  2  0
  7  9  1  0
  9 10  2  0
  9 14  1  0
 10 11  1  0
 10 27  1  0
 11 12  2  0
 11 24  1  0
 12 13  1  0
 12 15  1  0
 13 14  2  0
 14 33  1  0
 15 16  1  0
 15 18  1  0
 16 17  3  0
 18 19  2  0
 18 23  1  0
 19 20  1  0
 19 34  1  0
 20 21  2  0
 20 35  1  0
 21 22  1  0
 21 36  1  0
 22 23  2  0
 22 37  1  0
 23 38  1  0
 24 25  2  0
 24 39  1  0
 25 26  1  0
 25 40  1  0
 26 27  2  0
 26 41  1  0
 27 42  1  0
 28 43  1  1
 28 44  1  0
 28 45  1  0
 29 30  1  0
 29 46  1  0
 30 47  1  0
M  END
>  <s_epik_cmdline>  (1151) 
J2VwaWtfcHl0aG9uJywgJy1waCcsICc3LjAwMDAwMCcsICctcGh0JywgJzIuMDAwMDAwJywgJy1tcycsICcxNicsICctdG4nLCAnOCcsICctbWEnLCAnMjAwJywgJy1pbWFlJywgJzxpbmZpbGUubWFlPicsICctb21hZScsICc8b3V0ZmlsZS5tYWU+Jw==

>  <s_epik_input>  (1151) 
Q2xjMVtjSF1bY0hdYyhbY0hdW2NIXTEpTihbQ0gzXSlDKD1PKWMyW2NIXW5jKGMoYzIzKVtjSF1bY0hdW2NIXVtjSF0zKU4oQyNOKWM0W2NIXVtjSF1bY0hdW2NIXVtjSF00

>  <s_i_glide_gridfile>  (1151) 
ATP-Grid

>  <s_lp_Force_Field>  (1151) 
OPLS_2005

>  <s_lp_Variant>  (1151) 
rxn102c____EMOL2797927____EMOL36822768-1

>  <s_lp_label>  (1151) 
3019_sdstereoexpander_1_neutralizer_1_epik_1_stereoizer_1

>  <s_m_source_file>  (1151) 
ATP-VSW-LIGPREP-001-in.maegz

>  <s_sd_BIOSOLVEIT.INFINISEE\_QUERY\_NAME>  (1151) 
Ref-Lig

>  <s_sd_BIOSOLVEIT.INFINISEE\_QUERY\_SMILES>  (1151) 
S(c1nc2c(cc1C[NH2+]Cc3ccc(cc3)C[NH+](C)C)cccc2)Cc4ccccc4

>  <s_sd_BIOSOLVEIT.INFINISEE\_REACTION\_NAME>  (1151) 
rxn102c

>  <s_sd_BIOSOLVEIT.INFINISEE\_REAGENT1\_NAME>  (1151) 
EMOL2797927

>  <s_sd_BIOSOLVEIT.INFINISEE\_REAGENT1\_SMILES>  (1151) 
Clc1ncc(c2c1cccc2)C(=O)N(c3ccc(Cl)cc3)C

>  <s_sd_BIOSOLVEIT.INFINISEE\_REAGENT2\_NAME>  (1151) 
EMOL36822768

>  <s_sd_BIOSOLVEIT.INFINISEE\_REAGENT2\_SMILES>  (1151) 
N#CNc1ccccc1

>  <s_sd_BIOSOLVEIT.INFINISEE\_SPACE>  (1151) 
eXplore_7tr_2022-12

>  <s_vsw_compound_code>  (1151) 
96577

>  <s_vsw_variant>  (1151) 
96577-1

>  <r_epik_Charging_Adjusted_Penalty>  (1151) 
0

>  <r_epik_Ionization_Penalty>  (1151) 
0

>  <r_epik_Ionization_Penalty_Charging>  (1151) 
0

>  <r_epik_Ionization_Penalty_Neutral>  (1151) 
0

>  <r_epik_State_Penalty>  (1151) 
-0

>  <r_i_docking_score>  (1151) 
-2.9471002995100499

>  <r_i_glide_ecoul>  (1151) 
0.135288551449776

>  <r_i_glide_eff_state_penalty>  (1151) 
-0

>  <r_i_glide_einternal>  (1151) 
2.0421795845031698

>  <r_i_glide_emodel>  (1151) 
-37.704852211283402

>  <r_i_glide_energy>  (1151) 
-32.888930961489699

>  <r_i_glide_erotb>  (1151) 
0.57851440092583595

>  <r_i_glide_esite>  (1151) 
-0.043331589881547103

>  <r_i_glide_evdw>  (1151) 
-33.024219512939503

>  <r_i_glide_gscore>  (1151) 
-2.9471002995100499

>  <r_i_glide_hbond>  (1151) 
0

>  <r_i_glide_ligand_efficiency>  (1151) 
-0.098236676650335003

>  <r_i_glide_ligand_efficiency_ln>  (1151) 
-0.669613299278354

>  <r_i_glide_ligand_efficiency_sa>  (1151) 
-0.30524419461873398

>  <r_i_glide_lipo>  (1151) 
-1.1260918707630501

>  <r_i_glide_metal>  (1151) 
-0

>  <r_i_glide_rewards>  (1151) 
-0.72527354686178702

>  <r_lp_Energy>  (1151) 
47.565143999999997

>  <r_lp_tautomer_probability>  (1151) 
1

>  <r_qp_ACxDN^.5/SA>  (1151) 
0

>  <r_qp_CIQPlogS>  (1151) 
-6.3769999999999998

>  <r_qp_EA(eV)>  (1151) 
1.5940000000000001

>  <r_qp_FISA>  (1151) 
104.879

>  <r_qp_FOSA>  (1151) 
73.417000000000002

>  <r_qp_IP(eV)>  (1151) 
8.6690000000000005

>  <r_qp_Jm>  (1151) 
0.050086909909852199

>  <r_qp_PISA>  (1151) 
429.98599999999999

>  <r_qp_PSA>  (1151) 
65.117999999999995

>  <r_qp_PercentHumanOralAbsorption>  (1151) 
100

>  <r_qp_QPPCaco>  (1151) 
1003.069

>  <r_qp_QPPMDCK>  (1151) 
1225.289

>  <r_qp_QPlogBB>  (1151) 
-0.59799999999999998

>  <r_qp_QPlogHERG>  (1151) 
-6.4690000000000003

>  <r_qp_QPlogKhsa>  (1151) 
0.40500000000000003

>  <r_qp_QPlogKp>  (1151) 
-1.458

>  <r_qp_QPlogPC16>  (1151) 
14.029

>  <r_qp_QPlogPo/w>  (1151) 
4.5229999999999997

>  <r_qp_QPlogPoct>  (1151) 
18.669

>  <r_qp_QPlogPw>  (1151) 
9.8260000000000005

>  <r_qp_QPlogS>  (1151) 
-5.4580000000000002

>  <r_qp_QPpolrz>  (1151) 
44.424999999999997

>  <r_qp_SASA>  (1151) 
679.92399999999998

>  <r_qp_SAamideO>  (1151) 
0

>  <r_qp_SAfluorine>  (1151) 
0

>  <r_qp_WPSA>  (1151) 
71.641000000000005

>  <r_qp_accptHB>  (1151) 
6

>  <r_qp_dip^2/V>  (1151) 
0.0130606

>  <r_qp_dipole>  (1151) 
4.0270000000000001

>  <r_qp_donorHB>  (1151) 
0

>  <r_qp_glob>  (1151) 
0.82160010000000006

>  <r_qp_mol_MW>  (1151) 
412.87700000000001

>  <r_qp_volume>  (1151) 
1241.462

>  <r_sd_BIOSOLVEIT.INFINISEE\_FTREES\_SIMILARITY>  (1151) 
0.90200000000000002

>  <r_sd_BIOSOLVEIT.LOGP>  (1151) 
5.7839799999999997

>  <r_sd_BIOSOLVEIT.MOLECULAR\_WEIGHT>  (1151) 
412.87799999999999

>  <r_sd_BIOSOLVEIT.TPSA>  (1151) 
60.229999999999997

>  <i_epik_Tot_Q>  (1151) 
0

>  <i_epik_Tot_abs_Q>  (1151) 
0

>  <i_f3d_flags>  (1151) 
0

>  <i_i_glide_confnum>  (1151) 
2

>  <i_i_glide_lignum>  (1151) 
3

>  <i_i_glide_posenum>  (1151) 
18

>  <i_i_glide_rotatable_bonds>  (1151) 
5

>  <i_lp_mmshare_version>  (1151) 
65135

>  <i_m_ct_format>  (1151) 
2

>  <i_m_source_file_index>  (1151) 
3019

>  <i_qp_#NandO>  (1151) 
5

>  <i_qp_#acid>  (1151) 
0

>  <i_qp_#amide>  (1151) 
0

>  <i_qp_#amidine>  (1151) 
0

>  <i_qp_#amine>  (1151) 
0

>  <i_qp_#in34>  (1151) 
0

>  <i_qp_#in56>  (1151) 
22

>  <i_qp_#metab>  (1151) 
2

>  <i_qp_#nonHatm>  (1151) 
30

>  <i_qp_#noncon>  (1151) 
0

>  <i_qp_#ringatoms>  (1151) 
22

>  <i_qp_#rotor>  (1151) 
5

>  <i_qp_#rtvFG>  (1151) 
0

>  <i_qp_#stars>  (1151) 
0

>  <i_qp_CNS>  (1151) 
0

>  <i_qp_HumanOralAbsorption>  (1151) 
3

>  <i_qp_RuleOfFive>  (1151) 
0

>  <i_qp_RuleOfThree>  (1151) 
0

>  <i_sd_BIOSOLVEIT.INFINISEE\_RESULT\_RANK>  (1151) 
87972

>  <i_sd_version>  (1151) 
0

>  <b_lp_Chiralities_Consistent>  (1151) 
1

>  <b_sd_chiral_flag>  (1151) 
0

>  <canonical_id>  (1151) 
ATP-HTVS-B798CBAC6C44

>  <compound_code>  (1151) 
96577

>  <title>  (1151) 
rxn102c____EMOL2797927____EMOL36822768

>  <variant>  (1151) 
96577-1

>  <source_file>  (1151) 
运行/运行/ATP-VSW/ATP-VSW-DOCK_HTVS_1-002_lib.maegz

>  <canonical_smiles>  (1151) 
CN(C(=O)c1cnc(N(C#N)c2ccccc2)c2ccccc12)c1ccc(Cl)cc1

>  <scaffold>  (1151) 
O=C(Nc1ccccc1)c1cnc(Nc2ccccc2)c2ccccc12

>  <molecular_formula>  (1151) 
C24H17ClN4O

$$$$
ATP-HTVS-B7AB07A15A31
     RDKit          3D

 63 66  0  0  0  0  0  0  0  0999 V2000
  199.6153  186.2986  154.7439 O   0  0  0  0  0  0  0  0  0  0  0  0
  198.8134  185.4448  154.3556 C   0  0  0  0  0  0  0  0  0  0  0  0
  198.5170  185.1791  153.0761 N   0  0  0  0  0  0  0  0  0  0  0  0
  199.1992  185.5481  151.8728 C   0  0  0  0  0  0  0  0  0  0  0  0
  200.2784  186.3661  151.9115 N   0  0  0  0  0  0  0  0  0  0  0  0
  200.9278  186.6785  150.7778 C   0  0  0  0  0  0  0  0  0  0  0  0
  200.5402  186.1972  149.5227 C   0  0  0  0  0  0  0  0  0  0  0  0
  199.4277  185.3351  149.4263 C   0  0  0  0  0  0  0  0  0  0  0  0
  198.7364  185.0001  150.6352 C   0  0  0  0  0  0  0  0  0  0  0  0
  197.5451  184.0795  150.6129 C   0  0  0  0  0  0  0  0  0  0  0  0
  196.4565  184.4398  150.1637 O   0  0  0  0  0  0  0  0  0  0  0  0
  197.7035  182.7407  151.2470 C   0  0  0  0  0  0  0  0  0  0  0  0
  196.5402  182.0197  151.6019 C   0  0  0  0  0  0  0  0  0  0  0  0
  196.6336  180.7706  152.2417 C   0  0  0  0  0  0  0  0  0  0  0  0
  197.8974  180.2296  152.5369 C   0  0  0  0  0  0  0  0  0  0  0  0
  199.0652  180.9331  152.1821 C   0  0  0  0  0  0  0  0  0  0  0  0
  198.9721  182.1814  151.5328 C   0  0  0  0  0  0  0  0  0  0  0  0
  199.0451  184.8414  148.0786 C   0  0  0  0  0  0  0  0  0  0  0  0
  199.9211  184.0541  147.2720 C   0  0  0  0  0  0  0  0  0  0  0  0
  199.5247  183.5758  146.0072 C   0  0  0  0  0  0  0  0  0  0  0  0
  200.4337  182.8071  145.3052 O   0  0  0  0  0  0  0  0  0  0  0  0
  200.0158  182.3052  144.0319 C   0  0  2  0  0  0  0  0  0  0  0  0
  198.2193  183.9035  145.5427 C   0  0  0  0  0  0  0  0  0  0  0  0
  197.3672  184.6908  146.3152 C   0  0  0  0  0  0  0  0  0  0  0  0
  197.7798  185.1772  147.5497 C   0  0  0  0  0  0  0  0  0  0  0  0
  197.9959  184.6645  155.3519 C   0  0  0  0  0  0  0  0  0  0  0  0
  197.7358  185.1989  156.6344 C   0  0  0  0  0  0  0  0  0  0  0  0
  197.0161  184.4595  157.5944 C   0  0  0  0  0  0  0  0  0  0  0  0
  196.5519  183.1656  157.2838 C   0  0  0  0  0  0  0  0  0  0  0  0
  196.8206  182.6137  156.0177 C   0  0  0  0  0  0  0  0  0  0  0  0
  197.5501  183.3477  155.0665 C   0  0  0  0  0  0  0  0  0  0  0  0
  195.7832  182.3488  158.3069 C   0  0  1  0  0  0  0  0  0  0  0  0
  194.3182  182.4994  158.1361 N   0  0  2  0  0  0  0  0  0  0  0  0
  193.7813  183.6974  158.8176 C   0  0  2  0  0  0  0  0  0  0  0  0
  193.5834  181.2723  158.4920 C   0  0  2  0  0  0  0  0  0  0  0  0
  197.7795  184.4990  152.9617 H   0  0  0  0  0  0  0  0  0  0  0  0
  201.7662  187.3510  150.8809 H   0  0  0  0  0  0  0  0  0  0  0  0
  201.0786  186.5145  148.6403 H   0  0  0  0  0  0  0  0  0  0  0  0
  195.5611  182.4348  151.4079 H   0  0  0  0  0  0  0  0  0  0  0  0
  195.7337  180.2373  152.5152 H   0  0  0  0  0  0  0  0  0  0  0  0
  197.9696  179.2748  153.0365 H   0  0  0  0  0  0  0  0  0  0  0  0
  200.0366  180.5185  152.4130 H   0  0  0  0  0  0  0  0  0  0  0  0
  199.8861  182.7004  151.2783 H   0  0  0  0  0  0  0  0  0  0  0  0
  200.9135  183.8043  147.6470 H   0  0  0  0  0  0  0  0  0  0  0  0
  200.7876  181.7144  143.5239 H   0  0  0  0  0  0  0  0  0  0  0  0
  199.7554  183.1311  143.3623 H   0  0  0  0  0  0  0  0  0  0  0  0
  199.1395  181.6592  144.1489 H   0  0  0  0  0  0  0  0  0  0  0  0
  197.7913  183.5718  144.6007 H   0  0  0  0  0  0  0  0  0  0  0  0
  196.3737  184.9086  145.9444 H   0  0  0  0  0  0  0  0  0  0  0  0
  197.0964  185.8015  148.1014 H   0  0  0  0  0  0  0  0  0  0  0  0
  198.0924  186.1911  156.8772 H   0  0  0  0  0  0  0  0  0  0  0  0
  196.8299  184.8900  158.5666 H   0  0  0  0  0  0  0  0  0  0  0  0
  196.4804  181.6161  155.7707 H   0  0  0  0  0  0  0  0  0  0  0  0
  197.7504  182.8715  154.1185 H   0  0  0  0  0  0  0  0  0  0  0  0
  196.0942  181.3127  158.1694 H   0  0  0  0  0  0  0  0  0  0  0  0
  196.0962  182.5978  159.3226 H   0  0  0  0  0  0  0  0  0  0  0  0
  193.9642  183.6610  159.8903 H   0  0  0  0  0  0  0  0  0  0  0  0
  192.7067  183.7905  158.6595 H   0  0  0  0  0  0  0  0  0  0  0  0
  194.2476  184.6084  158.4379 H   0  0  0  0  0  0  0  0  0  0  0  0
  193.7392  181.0333  159.5402 H   0  0  0  0  0  0  0  0  0  0  0  0
  193.9306  180.4300  157.8960 H   0  0  0  0  0  0  0  0  0  0  0  0
  192.5179  181.3676  158.2835 H   0  0  0  0  0  0  0  0  0  0  0  0
  194.1276  182.6289  157.1348 H   0  0  0  0  0  0  0  0  0  0  0  0
  1  2  2  0
  2  3  1  0
  2 26  1  0
  3  4  1  0
  3 36  1  0
  4  5  1  0
  4  9  2  0
  5  6  2  0
  6  7  1  0
  6 37  1  0
  7  8  2  0
  7 38  1  0
  8  9  1  0
  8 18  1  0
  9 10  1  0
 10 11  2  0
 10 12  1  0
 12 13  2  0
 12 17  1  0
 13 14  1  0
 13 39  1  0
 14 15  2  0
 14 40  1  0
 15 16  1  0
 15 41  1  0
 16 17  2  0
 16 42  1  0
 17 43  1  0
 18 19  1  0
 18 25  2  0
 19 20  2  0
 19 44  1  0
 20 21  1  0
 20 23  1  0
 21 22  1  0
 22 45  1  6
 22 46  1  0
 22 47  1  0
 23 24  2  0
 23 48  1  0
 24 25  1  0
 24 49  1  0
 25 50  1  0
 26 27  1  0
 26 31  2  0
 27 28  2  0
 27 51  1  0
 28 29  1  0
 28 52  1  0
 29 30  2  0
 29 32  1  0
 30 31  1  0
 30 53  1  0
 31 54  1  0
 32 33  1  0
 32 55  1  6
 32 56  1  0
 33 34  1  0
 33 35  1  0
 33 63  1  6
 34 57  1  1
 34 58  1  0
 34 59  1  0
 35 60  1  1
 35 61  1  0
 35 62  1  0
M  CHG  1  33   1
M  END
>  <s_epik_cmdline>  (1152) 
J2VwaWtfcHl0aG9uJywgJy1waCcsICc3LjAwMDAwMCcsICctcGh0JywgJzIuMDAwMDAwJywgJy1tcycsICcxNicsICctdG4nLCAnOCcsICctbWEnLCAnMjAwJywgJy1pbWFlJywgJzxpbmZpbGUubWFlPicsICctb21hZScsICc8b3V0ZmlsZS5tYWU+Jw==

>  <s_epik_input>  (1152) 
W0NIM11OKFtDSDNdKVtDSDJdYyhbY0hdW2NIXTEpW2NIXVtjSF1jMUMoPU8pW05IXWMybltjSF1bY0hdYygtYzNbY0hdYyhPW0NIM10pW2NIXVtjSF1bY0hdMyljMkMoPU8pYzRbY0hdW2NIXVtjSF1bY0hdW2NIXTQ=

>  <s_i_glide_gridfile>  (1152) 
ATP-Grid

>  <s_lp_Force_Field>  (1152) 
OPLS_2005

>  <s_lp_Variant>  (1152) 
rxn501c____EMOL18624763____EMOL36251210____EMOL508369-1

>  <s_lp_label>  (1152) 
2452_sdstereoexpander_1_neutralizer_1_epik_1_stereoizer_1

>  <s_m_source_file>  (1152) 
ATP-VSW-LIGPREP-003-in.maegz

>  <s_sd_BIOSOLVEIT.INFINISEE\_QUERY\_NAME>  (1152) 
Ref-Lig

>  <s_sd_BIOSOLVEIT.INFINISEE\_QUERY\_SMILES>  (1152) 
S(c1nc2c(cc1C[NH2+]Cc3ccc(cc3)C[NH+](C)C)cccc2)Cc4ccccc4

>  <s_sd_BIOSOLVEIT.INFINISEE\_REACTION\_NAME>  (1152) 
rxn501c

>  <s_sd_BIOSOLVEIT.INFINISEE\_REAGENT1\_NAME>  (1152) 
EMOL18624763

>  <s_sd_BIOSOLVEIT.INFINISEE\_REAGENT1\_SMILES>  (1152) 
O=C(O)c1ccc(cc1)CN(C)C

>  <s_sd_BIOSOLVEIT.INFINISEE\_REAGENT2\_NAME>  (1152) 
EMOL36251210

>  <s_sd_BIOSOLVEIT.INFINISEE\_REAGENT2\_SMILES>  (1152) 
Clc1c(c(ncc1)N)C(=O)c2ccccc2

>  <s_sd_BIOSOLVEIT.INFINISEE\_REAGENT3\_NAME>  (1152) 
EMOL508369

>  <s_sd_BIOSOLVEIT.INFINISEE\_REAGENT3\_SMILES>  (1152) 
O(c1cc(ccc1)B(O)O)C

>  <s_sd_BIOSOLVEIT.INFINISEE\_SPACE>  (1152) 
eXplore_7tr_2022-12

>  <s_vsw_compound_code>  (1152) 
78435

>  <s_vsw_variant>  (1152) 
78435-1

>  <r_epik_Charging_Adjusted_Penalty>  (1152) 
0.10433640840748

>  <r_epik_Ionization_Penalty>  (1152) 
0.052600000000000001

>  <r_epik_Ionization_Penalty_Charging>  (1152) 
0.052200000000000003

>  <r_epik_Ionization_Penalty_Neutral>  (1152) 
0.00050000000000000001

>  <r_epik_State_Penalty>  (1152) 
0.052200000000000003

>  <r_i_docking_score>  (1152) 
-4.0367274326464297

>  <r_i_glide_ecoul>  (1152) 
-10.304175376892101

>  <r_i_glide_eff_state_penalty>  (1152) 
0.052200000000000003

>  <r_i_glide_einternal>  (1152) 
5.4158406257629403

>  <r_i_glide_emodel>  (1152) 
-56.341604634702101

>  <r_i_glide_energy>  (1152) 
-43.593642234802203

>  <r_i_glide_erotb>  (1152) 
0.64882283328308199

>  <r_i_glide_esite>  (1152) 
-0.10000000000000001

>  <r_i_glide_evdw>  (1152) 
-33.289466857910199

>  <r_i_glide_gscore>  (1152) 
-4.0889274326464298

>  <r_i_glide_hbond>  (1152) 
-0.20000000000000001

>  <r_i_glide_ligand_efficiency>  (1152) 
-0.115335069504184

>  <r_i_glide_ligand_efficiency_ln>  (1152) 
-0.88615126180425896

>  <r_i_glide_ligand_efficiency_sa>  (1152) 
-0.37726865979128699

>  <r_i_glide_lipo>  (1152) 
-0.86085562922686498

>  <r_i_glide_metal>  (1152) 
-0

>  <r_i_glide_rewards>  (1152) 
-0.36679498727332399

>  <r_lp_Energy>  (1152) 
42.616442999999997

>  <r_lp_tautomer_probability>  (1152) 
1

>  <r_qp_ACxDN^.5/SA>  (1152) 
0

>  <r_qp_CIQPlogS>  (1152) 
-5.9870000000000001

>  <r_qp_EA(eV)>  (1152) 
0.84399999999999997

>  <r_qp_FISA>  (1152) 
79.930999999999997

>  <r_qp_FOSA>  (1152) 
263.673

>  <r_qp_IP(eV)>  (1152) 
9.1110000000000007

>  <r_qp_Jm>  (1152) 
0.0086231731450196695

>  <r_qp_PISA>  (1152) 
455.98700000000002

>  <r_qp_PSA>  (1152) 
80.578000000000003

>  <r_qp_PercentHumanOralAbsorption>  (1152) 
100

>  <r_qp_QPPCaco>  (1152) 
431.334

>  <r_qp_QPPMDCK>  (1152) 
220.55000000000001

>  <r_qp_QPlogBB>  (1152) 
-0.375

>  <r_qp_QPlogHERG>  (1152) 
-7.8369999999999997

>  <r_qp_QPlogKhsa>  (1152) 
0.66900000000000004

>  <r_qp_QPlogKp>  (1152) 
-2.681

>  <r_qp_QPlogPC16>  (1152) 
15.93

>  <r_qp_QPlogPo/w>  (1152) 
4.9500000000000002

>  <r_qp_QPlogPoct>  (1152) 
21.881

>  <r_qp_QPlogPw>  (1152) 
10.664999999999999

>  <r_qp_QPlogS>  (1152) 
-5.0510000000000002

>  <r_qp_QPpolrz>  (1152) 
52.762999999999998

>  <r_qp_SASA>  (1152) 
799.59100000000001

>  <r_qp_SAamideO>  (1152) 
0

>  <r_qp_SAfluorine>  (1152) 
0

>  <r_qp_WPSA>  (1152) 
0

>  <r_qp_accptHB>  (1152) 
7.25

>  <r_qp_dip^2/V>  (1152) 
0.028386000000000002

>  <r_qp_dipole>  (1152) 
6.5069999999999997

>  <r_qp_donorHB>  (1152) 
0

>  <r_qp_glob>  (1152) 
0.78962900000000003

>  <r_qp_mol_MW>  (1152) 
465.55099999999999

>  <r_qp_volume>  (1152) 
1491.7270000000001

>  <r_sd_BIOSOLVEIT.INFINISEE\_FTREES\_SIMILARITY>  (1152) 
0.91600000000000004

>  <r_sd_BIOSOLVEIT.LOGP>  (1152) 
3.8849999999999998

>  <r_sd_BIOSOLVEIT.MOLECULAR\_WEIGHT>  (1152) 
466.55799999999999

>  <r_sd_BIOSOLVEIT.TPSA>  (1152) 
72.730000000000004

>  <i_epik_Tot_Q>  (1152) 
1

>  <i_epik_Tot_abs_Q>  (1152) 
1

>  <i_f3d_flags>  (1152) 
0

>  <i_i_glide_confnum>  (1152) 
8

>  <i_i_glide_lignum>  (1152) 
1055

>  <i_i_glide_posenum>  (1152) 
1

>  <i_i_glide_rotatable_bonds>  (1152) 
9

>  <i_lp_mmshare_version>  (1152) 
65135

>  <i_m_ct_format>  (1152) 
2

>  <i_m_source_file_index>  (1152) 
2452

>  <i_qp_#NandO>  (1152) 
6

>  <i_qp_#acid>  (1152) 
0

>  <i_qp_#amide>  (1152) 
0

>  <i_qp_#amidine>  (1152) 
0

>  <i_qp_#amine>  (1152) 
1

>  <i_qp_#in34>  (1152) 
0

>  <i_qp_#in56>  (1152) 
24

>  <i_qp_#metab>  (1152) 
4

>  <i_qp_#nonHatm>  (1152) 
35

>  <i_qp_#noncon>  (1152) 
0

>  <i_qp_#ringatoms>  (1152) 
24

>  <i_qp_#rotor>  (1152) 
8

>  <i_qp_#rtvFG>  (1152) 
0

>  <i_qp_#stars>  (1152) 
1

>  <i_qp_CNS>  (1152) 
1

>  <i_qp_HumanOralAbsorption>  (1152) 
3

>  <i_qp_RuleOfFive>  (1152) 
0

>  <i_qp_RuleOfThree>  (1152) 
0

>  <i_sd_BIOSOLVEIT.INFINISEE\_RESULT\_RANK>  (1152) 
25762

>  <i_sd_version>  (1152) 
0

>  <b_lp_Chiralities_Consistent>  (1152) 
1

>  <b_sd_chiral_flag>  (1152) 
0

>  <canonical_id>  (1152) 
ATP-HTVS-B7AB07A15A31

>  <compound_code>  (1152) 
78435

>  <title>  (1152) 
rxn501c____EMOL18624763____EMOL36251210____EMOL508369

>  <variant>  (1152) 
78435-1

>  <source_file>  (1152) 
运行/运行/ATP-VSW/ATP-VSW-DOCK_HTVS_1-003_lib/ATP-VSW-DOCK_HTVS_1-003_lib.mae

>  <canonical_smiles>  (1152) 
COc1cccc(-c2ccnc(NC(=O)c3ccc(C[NH+](C)C)cc3)c2C(=O)c2ccccc2)c1

>  <scaffold>  (1152) 
O=C(Nc1nccc(-c2ccccc2)c1C(=O)c1ccccc1)c1ccccc1

>  <molecular_formula>  (1152) 
C29H28N3O3+

$$$$
ATP-HTVS-B7C68EF5FFDC
     RDKit          3D

 58 61  0  0  0  0  0  0  0  0999 V2000
  198.1531  184.8585  146.6473 Cl  0  0  0  0  0  0  0  0  0  0  0  0
  197.8437  184.0998  148.1638 C   0  0  0  0  0  0  0  0  0  0  0  0
  196.7701  184.5348  148.9583 C   0  0  0  0  0  0  0  0  0  0  0  0
  196.5058  183.9111  150.1947 C   0  0  0  0  0  0  0  0  0  0  0  0
  197.3193  182.8618  150.6828 C   0  0  0  0  0  0  0  0  0  0  0  0
  198.4093  182.4567  149.8707 C   0  0  0  0  0  0  0  0  0  0  0  0
  198.6646  183.0548  148.6210 C   0  0  0  0  0  0  0  0  0  0  0  0
  197.0476  182.2574  152.0332 C   0  0  1  0  0  0  0  0  0  0  0  0
  197.5063  180.8406  152.1687 N   0  0  0  0  0  0  0  0  0  0  0  0
  197.4024  180.3037  153.5193 C   0  0  2  0  0  0  0  0  0  0  0  0
  196.7709  179.9416  151.2872 C   0  0  2  0  0  0  0  0  0  0  0  0
  197.6438  183.2840  153.0466 C   0  0  0  0  0  0  0  0  0  0  0  0
  198.5310  184.0755  152.7161 O   0  0  0  0  0  0  0  0  0  0  0  0
  197.1467  183.2537  154.2962 N   0  0  0  0  0  0  0  0  0  0  0  0
  197.2535  184.2739  155.2734 C   0  0  0  0  0  0  0  0  0  0  0  0
  197.3380  183.9527  156.6501 C   0  0  0  0  0  0  0  0  0  0  0  0
  197.3956  182.6037  157.0700 N   0  0  0  0  0  0  0  0  0  0  0  0
  198.5135  181.7632  156.8627 C   0  0  0  0  0  0  0  0  0  0  0  0
  198.3829  180.3733  156.6233 C   0  0  0  0  0  0  0  0  0  0  0  0
  199.5171  179.5659  156.4100 C   0  0  0  0  0  0  0  0  0  0  0  0
  200.8030  180.1331  156.4407 C   0  0  0  0  0  0  0  0  0  0  0  0
  200.9489  181.5116  156.6754 C   0  0  0  0  0  0  0  0  0  0  0  0
  199.8150  182.3186  156.8832 C   0  0  0  0  0  0  0  0  0  0  0  0
  196.1088  181.9720  157.3970 C   0  0  1  0  0  0  0  0  0  0  0  0
  195.2442  182.7624  158.2921 C   0  0  0  0  0  0  0  0  0  0  0  0
  194.5629  183.3733  159.0005 N   0  0  0  0  0  0  0  0  0  0  0  0
  197.3783  185.0230  157.5746 C   0  0  0  0  0  0  0  0  0  0  0  0
  197.3068  186.3623  157.0912 C   0  0  0  0  0  0  0  0  0  0  0  0
  197.2253  186.6416  155.7796 N   0  0  0  0  0  0  0  0  0  0  0  0
  197.1905  185.6313  154.9018 C   0  0  0  0  0  0  0  0  0  0  0  0
  197.3123  187.4313  158.0042 C   0  0  0  0  0  0  0  0  0  0  0  0
  197.4001  187.1954  159.3818 C   0  0  0  0  0  0  0  0  0  0  0  0
  197.4673  185.8728  159.8572 C   0  0  0  0  0  0  0  0  0  0  0  0
  197.4832  184.7913  158.9638 C   0  0  0  0  0  0  0  0  0  0  0  0
  196.1617  185.3642  148.6318 H   0  0  0  0  0  0  0  0  0  0  0  0
  195.6810  184.2579  150.7995 H   0  0  0  0  0  0  0  0  0  0  0  0
  199.0696  181.6722  150.2140 H   0  0  0  0  0  0  0  0  0  0  0  0
  199.5102  182.7216  148.0348 H   0  0  0  0  0  0  0  0  0  0  0  0
  195.9679  182.2712  152.2001 H   0  0  0  0  0  0  0  0  0  0  0  0
  197.7199  179.2636  153.5851 H   0  0  0  0  0  0  0  0  0  0  0  0
  196.3846  180.3652  153.9114 H   0  0  0  0  0  0  0  0  0  0  0  0
  198.0787  180.8640  154.1514 H   0  0  0  0  0  0  0  0  0  0  0  0
  197.1524  178.9224  151.3791 H   0  0  0  0  0  0  0  0  0  0  0  0
  196.8827  180.2225  150.2404 H   0  0  0  0  0  0  0  0  0  0  0  0
  195.7064  179.9335  151.5305 H   0  0  0  0  0  0  0  0  0  0  0  0
  196.5835  182.4548  154.5549 H   0  0  0  0  0  0  0  0  0  0  0  0
  197.4178  179.8953  156.5581 H   0  0  0  0  0  0  0  0  0  0  0  0
  199.3840  178.5111  156.2210 H   0  0  0  0  0  0  0  0  0  0  0  0
  201.6702  179.5099  156.2766 H   0  0  0  0  0  0  0  0  0  0  0  0
  201.9335  181.9503  156.6966 H   0  0  0  0  0  0  0  0  0  0  0  0
  199.9447  183.3783  157.0511 H   0  0  0  0  0  0  0  0  0  0  0  0
  195.5537  181.7443  156.4851 H   0  0  0  0  0  0  0  0  0  0  0  0
  196.2675  181.0419  157.9418 H   0  0  0  0  0  0  0  0  0  0  0  0
  197.0806  185.9229  153.8706 H   0  0  0  0  0  0  0  0  0  0  0  0
  197.2627  188.4443  157.6292 H   0  0  0  0  0  0  0  0  0  0  0  0
  197.4232  188.0201  160.0779 H   0  0  0  0  0  0  0  0  0  0  0  0
  197.5244  185.6934  160.9152 H   0  0  0  0  0  0  0  0  0  0  0  0
  197.5592  183.7878  159.3540 H   0  0  0  0  0  0  0  0  0  0  0  0
  1  2  1  0
  2  3  1  0
  2  7  2  0
  3  4  2  0
  3 35  1  0
  4  5  1  0
  4 36  1  0
  5  6  2  0
  5  8  1  0
  6  7  1  0
  6 37  1  0
  7 38  1  0
  8  9  1  0
  8 12  1  0
  8 39  1  1
  9 10  1  0
  9 11  1  0
 10 40  1  6
 10 41  1  0
 10 42  1  0
 11 43  1  6
 11 44  1  0
 11 45  1  0
 12 13  2  0
 12 14  1  0
 14 15  1  0
 14 46  1  0
 15 16  2  0
 15 30  1  0
 16 17  1  0
 16 27  1  0
 17 18  1  0
 17 24  1  0
 18 19  2  0
 18 23  1  0
 19 20  1  0
 19 47  1  0
 20 21  2  0
 20 48  1  0
 21 22  1  0
 21 49  1  0
 22 23  2  0
 22 50  1  0
 23 51  1  0
 24 25  1  0
 24 52  1  6
 24 53  1  0
 25 26  3  0
 27 28  1  0
 27 34  2  0
 28 29  1  0
 28 31  2  0
 29 30  2  0
 30 54  1  0
 31 32  1  0
 31 55  1  0
 32 33  2  0
 32 56  1  0
 33 34  1  0
 33 57  1  0
 34 58  1  0
M  END
>  <s_epik_cmdline>  (1153) 
J2VwaWtfcHl0aG9uJywgJy1waCcsICc3LjAwMDAwMCcsICctcGh0JywgJzIuMDAwMDAwJywgJy1tcycsICcxNicsICctdG4nLCAnOCcsICctbWEnLCAnMjAwJywgJy1pbWFlJywgJzxpbmZpbGUubWFlPicsICctb21hZScsICc8b3V0ZmlsZS5tYWU+Jw==

>  <s_epik_input>  (1153) 
Q2xjMVtjSF1bY0hdYyhbY0hdW2NIXTEpW0NAQEhdKE4oW0NIM10pW0NIM10pQyg9TylbTkhdYyhbY0hdbmMoYzIzKVtjSF1bY0hdW2NIXVtjSF0zKWMyTihbQ0gyXUMjTiljNFtjSF1bY0hdW2NIXVtjSF1bY0hdNA==

>  <s_i_glide_gridfile>  (1153) 
ATP-Grid

>  <s_lp_Force_Field>  (1153) 
OPLS_2005

>  <s_lp_Variant>  (1153) 
rxn502b____EMOL331054254____EMOL30488121____EMOL712348-1

>  <s_lp_label>  (1153) 
2587_sdstereoexpander_1_neutralizer_1_epik_1_stereoizer_1

>  <s_m_source_file>  (1153) 
ATP-VSW-LIGPREP-003-in.maegz

>  <s_sd_BIOSOLVEIT.INFINISEE\_QUERY\_NAME>  (1153) 
Ref-Lig

>  <s_sd_BIOSOLVEIT.INFINISEE\_QUERY\_SMILES>  (1153) 
S(c1nc2c(cc1C[NH2+]Cc3ccc(cc3)C[NH+](C)C)cccc2)Cc4ccccc4

>  <s_sd_BIOSOLVEIT.INFINISEE\_REACTION\_NAME>  (1153) 
rxn502b

>  <s_sd_BIOSOLVEIT.INFINISEE\_REAGENT1\_NAME>  (1153) 
EMOL331054254

>  <s_sd_BIOSOLVEIT.INFINISEE\_REAGENT1\_SMILES>  (1153) 
Clc1ccc(cc1)C(N(C)C)C(=O)O

>  <s_sd_BIOSOLVEIT.INFINISEE\_REAGENT2\_NAME>  (1153) 
EMOL30488121

>  <s_sd_BIOSOLVEIT.INFINISEE\_REAGENT2\_SMILES>  (1153) 
Brc1c(N)cnc2c1cccc2

>  <s_sd_BIOSOLVEIT.INFINISEE\_REAGENT3\_NAME>  (1153) 
EMOL712348

>  <s_sd_BIOSOLVEIT.INFINISEE\_REAGENT3\_SMILES>  (1153) 
N#CCNc1ccccc1

>  <s_sd_BIOSOLVEIT.INFINISEE\_SPACE>  (1153) 
eXplore_7tr_2022-12

>  <s_vsw_compound_code>  (1153) 
82755

>  <s_vsw_variant>  (1153) 
82755-1

>  <r_epik_Charging_Adjusted_Penalty>  (1153) 
0.15349758425732499

>  <r_epik_Ionization_Penalty>  (1153) 
0.16170000000000001

>  <r_epik_Ionization_Penalty_Charging>  (1153) 
0

>  <r_epik_Ionization_Penalty_Neutral>  (1153) 
0.16170000000000001

>  <r_epik_State_Penalty>  (1153) 
0.1535

>  <r_i_docking_score>  (1153) 
-4.1867519522841299

>  <r_i_glide_ecoul>  (1153) 
-5.6259922981262198

>  <r_i_glide_eff_state_penalty>  (1153) 
0.1535

>  <r_i_glide_einternal>  (1153) 
7.3937864303588903

>  <r_i_glide_emodel>  (1153) 
-50.8794989414612

>  <r_i_glide_energy>  (1153) 
-42.279068470001199

>  <r_i_glide_erotb>  (1153) 
0.457322200197392

>  <r_i_glide_esite>  (1153) 
-0.14354360929141999

>  <r_i_glide_evdw>  (1153) 
-36.653076171875

>  <r_i_glide_gscore>  (1153) 
-4.3402519522841301

>  <r_i_glide_hbond>  (1153) 
0

>  <r_i_glide_ligand_efficiency>  (1153) 
-0.123139763302474

>  <r_i_glide_ligand_efficiency_ln>  (1153) 
-0.92497094067405705

>  <r_i_glide_ligand_efficiency_sa>  (1153) 
-0.39892502993229401

>  <r_i_glide_lipo>  (1153) 
-1.7726942080592401

>  <r_i_glide_metal>  (1153) 
-0

>  <r_i_glide_rewards>  (1153) 
-0.20478368181818099

>  <r_lp_Energy>  (1153) 
36.329427000000003

>  <r_qp_ACxDN^.5/SA>  (1153) 
0.010571199999999999

>  <r_qp_CIQPlogS>  (1153) 
-7.0309999999999997

>  <r_qp_EA(eV)>  (1153) 
1.3169999999999999

>  <r_qp_FISA>  (1153) 
104.742

>  <r_qp_FOSA>  (1153) 
165.102

>  <r_qp_IP(eV)>  (1153) 
8.7870000000000008

>  <r_qp_Jm>  (1153) 
0.0015236281531919001

>  <r_qp_PISA>  (1153) 
385.64400000000001

>  <r_qp_PSA>  (1153) 
73.108000000000004

>  <r_qp_PercentHumanOralAbsorption>  (1153) 
94.343000000000004

>  <r_qp_QPPCaco>  (1153) 
250.91499999999999

>  <r_qp_QPPMDCK>  (1153) 
242.62100000000001

>  <r_qp_QPlogBB>  (1153) 
-0.372

>  <r_qp_QPlogHERG>  (1153) 
-6.6520000000000001

>  <r_qp_QPlogKhsa>  (1153) 
0.53200000000000003

>  <r_qp_QPlogKp>  (1153) 
-3.3860000000000001

>  <r_qp_QPlogPC16>  (1153) 
14.981

>  <r_qp_QPlogPo/w>  (1153) 
4.1760000000000002

>  <r_qp_QPlogPoct>  (1153) 
21.998000000000001

>  <r_qp_QPlogPw>  (1153) 
11.868

>  <r_qp_QPlogS>  (1153) 
-5.1029999999999998

>  <r_qp_QPpolrz>  (1153) 
47.345999999999997

>  <r_qp_SASA>  (1153) 
709.47500000000002

>  <r_qp_SAamideO>  (1153) 
0

>  <r_qp_SAfluorine>  (1153) 
0

>  <r_qp_WPSA>  (1153) 
53.987000000000002

>  <r_qp_accptHB>  (1153) 
7.5

>  <r_qp_dip^2/V>  (1153) 
0.025156999999999999

>  <r_qp_dipole>  (1153) 
5.8769999999999998

>  <r_qp_donorHB>  (1153) 
1

>  <r_qp_glob>  (1153) 
0.84212710000000002

>  <r_qp_mol_MW>  (1153) 
469.97199999999998

>  <r_qp_volume>  (1153) 
1373.171

>  <r_sd_BIOSOLVEIT.INFINISEE\_FTREES\_SIMILARITY>  (1153) 
0.91100000000000003

>  <r_sd_BIOSOLVEIT.LOGP>  (1153) 
4.37418

>  <r_sd_BIOSOLVEIT.MOLECULAR\_WEIGHT>  (1153) 
470.98200000000003

>  <r_sd_BIOSOLVEIT.TPSA>  (1153) 
73.459999999999994

>  <i_epik_Tot_Q>  (1153) 
0

>  <i_epik_Tot_abs_Q>  (1153) 
0

>  <i_f3d_flags>  (1153) 
0

>  <i_i_glide_confnum>  (1153) 
1

>  <i_i_glide_lignum>  (1153) 
1166

>  <i_i_glide_posenum>  (1153) 
5

>  <i_i_glide_rotatable_bonds>  (1153) 
8

>  <i_lp_mmshare_version>  (1153) 
65135

>  <i_m_ct_format>  (1153) 
2

>  <i_m_source_file_index>  (1153) 
2587

>  <i_qp_#NandO>  (1153) 
6

>  <i_qp_#acid>  (1153) 
0

>  <i_qp_#amide>  (1153) 
0

>  <i_qp_#amidine>  (1153) 
0

>  <i_qp_#amine>  (1153) 
1

>  <i_qp_#in34>  (1153) 
0

>  <i_qp_#in56>  (1153) 
22

>  <i_qp_#metab>  (1153) 
6

>  <i_qp_#nonHatm>  (1153) 
34

>  <i_qp_#noncon>  (1153) 
0

>  <i_qp_#ringatoms>  (1153) 
22

>  <i_qp_#rotor>  (1153) 
8

>  <i_qp_#rtvFG>  (1153) 
0

>  <i_qp_#stars>  (1153) 
0

>  <i_qp_CNS>  (1153) 
1

>  <i_qp_HumanOralAbsorption>  (1153) 
3

>  <i_qp_RuleOfFive>  (1153) 
0

>  <i_qp_RuleOfThree>  (1153) 
0

>  <i_sd_BIOSOLVEIT.INFINISEE\_RESULT\_RANK>  (1153) 
40177

>  <i_sd_version>  (1153) 
0

>  <b_lp_Chiralities_Consistent>  (1153) 
1

>  <b_sd_chiral_flag>  (1153) 
0

>  <canonical_id>  (1153) 
ATP-HTVS-B7C68EF5FFDC

>  <compound_code>  (1153) 
82755

>  <title>  (1153) 
rxn502b____EMOL331054254____EMOL30488121____EMOL712348

>  <variant>  (1153) 
82755-1

>  <source_file>  (1153) 
运行/运行/ATP-VSW/ATP-VSW-DOCK_HTVS_1-003_lib/ATP-VSW-DOCK_HTVS_1-003_lib.mae

>  <canonical_smiles>  (1153) 
CN(C)[C@@H](C(=O)Nc1cnc2ccccc2c1N(CC#N)c1ccccc1)c1ccc(Cl)cc1

>  <scaffold>  (1153) 
O=C(Cc1ccccc1)Nc1cnc2ccccc2c1Nc1ccccc1

>  <molecular_formula>  (1153) 
C27H24ClN5O

$$$$
ATP-HTVS-B7CF3B4EBACD
     RDKit          3D

 65 69  0  0  0  0  0  0  0  0999 V2000
  202.4302  183.5901  158.4397 F   0  0  0  0  0  0  0  0  0  0  0  0
  201.0868  183.5124  158.2719 C   0  0  0  0  0  0  0  0  0  0  0  0
  200.2138  183.9610  159.2791 C   0  0  0  0  0  0  0  0  0  0  0  0
  198.8244  183.8289  159.1206 C   0  0  0  0  0  0  0  0  0  0  0  0
  198.2700  183.3358  157.9095 C   0  0  0  0  0  0  0  0  0  0  0  0
  199.1709  182.9155  156.8975 C   0  0  0  0  0  0  0  0  0  0  0  0
  200.5590  182.9682  157.0895 C   0  0  0  0  0  0  0  0  0  0  0  0
  196.7436  183.2272  157.6893 C   0  0  2  0  0  0  0  0  0  0  0  0
  195.9352  183.7262  158.8168 N   0  0  0  0  0  0  0  0  0  0  0  0
  194.4986  183.5256  158.6163 C   0  0  1  0  0  0  0  0  0  0  0  0
  193.8524  184.4253  159.6520 C   0  0  1  0  0  0  0  0  0  0  0  0
  194.8852  185.5158  159.9306 C   0  0  1  0  0  0  0  0  0  0  0  0
  196.0241  185.1812  158.9828 C   0  0  1  0  0  0  0  0  0  0  0  0
  196.3408  181.7750  157.2829 C   0  0  1  0  0  0  0  0  0  0  0  0
  196.6996  181.4664  155.8809 N   0  0  1  0  0  0  0  0  0  0  0  0
  196.8543  180.0197  155.6227 C   0  0  1  0  0  0  0  0  0  0  0  0
  197.5107  179.7801  154.2916 C   0  0  0  0  0  0  0  0  0  0  0  0
  198.6577  179.0521  153.8710 C   0  0  0  0  0  0  0  0  0  0  0  0
  198.8189  179.1107  152.5409 N   0  0  0  0  0  0  0  0  0  0  0  0
  197.7972  179.8720  152.0813 N   0  0  0  0  0  0  0  0  0  0  0  0
  196.9797  180.2181  153.1306 C   0  0  0  0  0  0  0  0  0  0  0  0
  197.7008  180.1653  150.6465 C   0  0  1  0  0  0  0  0  0  0  0  0
  197.4055  181.6375  150.3341 C   0  0  0  0  0  0  0  0  0  0  0  0
  198.1234  182.2982  149.3065 C   0  0  0  0  0  0  0  0  0  0  0  0
  197.8562  183.6682  149.0313 C   0  0  0  0  0  0  0  0  0  0  0  0
  196.9118  184.3884  149.8125 C   0  0  0  0  0  0  0  0  0  0  0  0
  196.2146  183.7184  150.8285 C   0  0  0  0  0  0  0  0  0  0  0  0
  196.4123  182.3616  151.0324 C   0  0  0  0  0  0  0  0  0  0  0  0
  199.6086  178.2573  154.6762 C   0  0  0  0  0  0  0  0  0  0  0  0
  200.4958  177.3431  154.0529 C   0  0  0  0  0  0  0  0  0  0  0  0
  201.3913  176.5771  154.7327 N   0  0  0  0  0  0  0  0  0  0  0  0
  201.3901  176.6906  156.0848 C   0  0  0  0  0  0  0  0  0  0  0  0
  200.5384  177.5532  156.8002 C   0  0  0  0  0  0  0  0  0  0  0  0
  199.6651  178.3606  156.0835 C   0  0  0  0  0  0  0  0  0  0  0  0
  196.0199  181.9052  155.2581 H   0  0  0  0  0  0  0  0  0  0  0  0
  200.6055  184.3882  160.1884 H   0  0  0  0  0  0  0  0  0  0  0  0
  198.2217  184.1253  159.9630 H   0  0  0  0  0  0  0  0  0  0  0  0
  198.8611  182.5207  155.9455 H   0  0  0  0  0  0  0  0  0  0  0  0
  201.2084  182.5971  156.3098 H   0  0  0  0  0  0  0  0  0  0  0  0
  196.4971  183.8675  156.8392 H   0  0  0  0  0  0  0  0  0  0  0  0
  194.2034  183.8419  157.6204 H   0  0  0  0  0  0  0  0  0  0  0  0
  194.1694  182.4926  158.7755 H   0  0  0  0  0  0  0  0  0  0  0  0
  192.8762  184.7945  159.3305 H   0  0  0  0  0  0  0  0  0  0  0  0
  193.6844  183.8443  160.5253 H   0  0  0  0  0  0  0  0  0  0  0  0
  194.4968  186.5155  159.7412 H   0  0  0  0  0  0  0  0  0  0  0  0
  195.2183  185.4614  160.9723 H   0  0  0  0  0  0  0  0  0  0  0  0
  196.9463  185.5613  159.4064 H   0  0  0  0  0  0  0  0  0  0  0  0
  195.8894  185.6777  158.0225 H   0  0  0  0  0  0  0  0  0  0  0  0
  196.7860  181.0748  157.9954 H   0  0  0  0  0  0  0  0  0  0  0  0
  195.2727  181.5742  157.2763 H   0  0  0  0  0  0  0  0  0  0  0  0
  197.3712  179.6275  156.4756 H   0  0  0  0  0  0  0  0  0  0  0  0
  195.8996  179.5258  155.6663 H   0  0  0  0  0  0  0  0  0  0  0  0
  196.0593  180.7521  153.1050 H   0  0  0  0  0  0  0  0  0  0  0  0
  198.6380  179.8629  150.1563 H   0  0  0  0  0  0  0  0  0  0  0  0
  196.9317  179.5321  150.2038 H   0  0  0  0  0  0  0  0  0  0  0  0
  198.8528  181.7674  148.6918 H   0  0  0  0  0  0  0  0  0  0  0  0
  198.3761  184.1785  148.2198 H   0  0  0  0  0  0  0  0  0  0  0  0
  196.6990  185.4360  149.6121 H   0  0  0  0  0  0  0  0  0  0  0  0
  195.4924  184.2243  151.4438 H   0  0  0  0  0  0  0  0  0  0  0  0
  195.7392  181.9492  151.7148 H   0  0  0  0  0  0  0  0  0  0  0  0
  200.5166  177.2335  152.9665 H   0  0  0  0  0  0  0  0  0  0  0  0
  202.1095  176.0911  156.6289 H   0  0  0  0  0  0  0  0  0  0  0  0
  200.5511  177.6327  157.8741 H   0  0  0  0  0  0  0  0  0  0  0  0
  199.1280  179.0389  156.6798 H   0  0  0  0  0  0  0  0  0  0  0  0
  197.6028  181.8869  155.7228 H   0  0  0  0  0  0  0  0  0  0  0  0
  1  2  1  0
  2  3  1  0
  2  7  2  0
  3  4  2  0
  3 36  1  0
  4  5  1  0
  4 37  1  0
  5  6  2  0
  5  8  1  0
  6  7  1  0
  6 38  1  0
  7 39  1  0
  8  9  1  0
  8 14  1  0
  8 40  1  6
  9 10  1  0
  9 13  1  0
 10 11  1  0
 10 41  1  6
 10 42  1  0
 11 12  1  0
 11 43  1  6
 11 44  1  0
 12 13  1  0
 12 45  1  6
 12 46  1  0
 13 47  1  1
 13 48  1  0
 14 15  1  0
 14 49  1  1
 14 50  1  0
 15 16  1  0
 15 35  1  6
 15 65  1  0
 16 17  1  0
 16 51  1  1
 16 52  1  0
 17 18  1  0
 17 21  2  0
 18 19  2  0
 18 29  1  0
 19 20  1  0
 20 21  1  0
 20 22  1  0
 21 53  1  0
 22 23  1  0
 22 54  1  6
 22 55  1  0
 23 24  2  0
 23 28  1  0
 24 25  1  0
 24 56  1  0
 25 26  2  0
 25 57  1  0
 26 27  1  0
 26 58  1  0
 27 28  2  0
 27 59  1  0
 28 60  1  0
 29 30  2  0
 29 34  1  0
 30 31  1  0
 30 61  1  0
 31 32  2  0
 32 33  1  0
 32 62  1  0
 33 34  2  0
 33 63  1  0
 34 64  1  0
M  CHG  1  15   1
M  END
>  <s_epik_cmdline>  (1154) 
J2VwaWtfcHl0aG9uJywgJy1waCcsICc3LjAwMDAwMCcsICctcGh0JywgJzIuMDAwMDAwJywgJy1tcycsICcxNicsICctdG4nLCAnOCcsICctbWEnLCAnMjAwJywgJy1pbWFlJywgJzxpbmZpbGUubWFlPicsICctb21hZScsICc8b3V0ZmlsZS5tYWU+Jw==

>  <s_epik_input>  (1154) 
RmMxW2NIXVtjSF1jKFtjSF1bY0hdMSlbQ0BIXShOMltDSDJdW0NIMl1bQ0gyXVtDSDJdMilbQ0gyXVtOSF1bQ0gyXWMzYygtYzRbY0hdbltjSF1bY0hdW2NIXTQpbm4oW2NIXTMpW0NIMl1jNVtjSF1bY0hdW2NIXVtjSF1bY0hdNQ==

>  <s_i_glide_gridfile>  (1154) 
ATP-Grid

>  <s_lp_Force_Field>  (1154) 
OPLS_2005

>  <s_lp_Variant>  (1154) 
m_270004bbb____18360870____7547868-2

>  <s_lp_label>  (1154) 
1688_sdstereoexpander_2_neutralizer_1_epik_1_stereoizer_1

>  <s_m_source_file>  (1154) 
ATP-VSW-LIGPREP-002-in.maegz

>  <s_sd_BIOSOLVEIT.INFINISEE\_QUERY\_NAME>  (1154) 
Ref-Lig

>  <s_sd_BIOSOLVEIT.INFINISEE\_QUERY\_SMILES>  (1154) 
S(c1nc2c(cc1C[NH2+]Cc3ccc(cc3)C[NH+](C)C)cccc2)Cc4ccccc4

>  <s_sd_BIOSOLVEIT.INFINISEE\_REACTION\_NAME>  (1154) 
m_270004bbb

>  <s_sd_BIOSOLVEIT.INFINISEE\_REAGENT1\_SMILES>  (1154) 
[R1*]NCC(N1CCCC1)c2ccc(F)cc2

>  <s_sd_BIOSOLVEIT.INFINISEE\_REAGENT2\_SMILES>  (1154) 
[R1*]CC=1C(=NN(C1)Cc2ccccc2)c3cnccc3

>  <s_sd_BIOSOLVEIT.INFINISEE\_SPACE>  (1154) 
REALSpace_44bn_2023-08

>  <s_vsw_compound_code>  (1154) 
53986

>  <s_vsw_variant>  (1154) 
53986-2

>  <r_epik_Charging_Adjusted_Penalty>  (1154) 
0.44058436247451999

>  <r_epik_Ionization_Penalty>  (1154) 
0.058000000000000003

>  <r_epik_Ionization_Penalty_Charging>  (1154) 
0.019599999999999999

>  <r_epik_Ionization_Penalty_Neutral>  (1154) 
0.038399999999999997

>  <r_epik_State_Penalty>  (1154) 
0.42099999999999999

>  <r_i_docking_score>  (1154) 
-4.14533704989545

>  <r_i_glide_ecoul>  (1154) 
-9.0985088348388707

>  <r_i_glide_eff_state_penalty>  (1154) 
0.42099999999999999

>  <r_i_glide_einternal>  (1154) 
11.6027221679688

>  <r_i_glide_emodel>  (1154) 
-57.278203034836103

>  <r_i_glide_energy>  (1154) 
-44.880834579467802

>  <r_i_glide_erotb>  (1154) 
0.867697197366472

>  <r_i_glide_esite>  (1154) 
-0.061178832407493798

>  <r_i_glide_evdw>  (1154) 
-35.782325744628899

>  <r_i_glide_gscore>  (1154) 
-4.5663370498954503

>  <r_i_glide_hbond>  (1154) 
0

>  <r_i_glide_ligand_efficiency>  (1154) 
-0.121921677938102

>  <r_i_glide_ligand_efficiency_ln>  (1154) 
-0.91582122708773395

>  <r_i_glide_ligand_efficiency_sa>  (1154) 
-0.39497890621554699

>  <r_i_glide_lipo>  (1154) 
-1.6282555768439499

>  <r_i_glide_metal>  (1154) 
-0

>  <r_i_glide_rewards>  (1154) 
-0.59070722555321098

>  <r_lp_Energy>  (1154) 
38.363670999999997

>  <r_lp_tautomer_probability>  (1154) 
1

>  <r_qp_ACxDN^.5/SA>  (1154) 
0.0085465000000000003

>  <r_qp_CIQPlogS>  (1154) 
-5.2000000000000002

>  <r_qp_EA(eV)>  (1154) 
0.27400000000000002

>  <r_qp_FISA>  (1154) 
34.246000000000002

>  <r_qp_FOSA>  (1154) 
272.10399999999998

>  <r_qp_IP(eV)>  (1154) 
8.9339999999999993

>  <r_qp_Jm>  (1154) 
0.0034482982395016501

>  <r_qp_PISA>  (1154) 
419.21100000000001

>  <r_qp_PSA>  (1154) 
42.802999999999997

>  <r_qp_PercentHumanOralAbsorption>  (1154) 
100

>  <r_qp_QPPCaco>  (1154) 
291.70600000000002

>  <r_qp_QPPMDCK>  (1154) 
248.55600000000001

>  <r_qp_QPlogBB>  (1154) 
0.61699999999999999

>  <r_qp_QPlogHERG>  (1154) 
-8.0370000000000008

>  <r_qp_QPlogKhsa>  (1154) 
0.90900000000000003

>  <r_qp_QPlogKp>  (1154) 
-4.0309999999999997

>  <r_qp_QPlogPC16>  (1154) 
14.792

>  <r_qp_QPlogPo/w>  (1154) 
4.944

>  <r_qp_QPlogPoct>  (1154) 
22.353999999999999

>  <r_qp_QPlogPw>  (1154) 
10.747999999999999

>  <r_qp_QPlogS>  (1154) 
-4.0899999999999999

>  <r_qp_QPpolrz>  (1154) 
50.387999999999998

>  <r_qp_SASA>  (1154) 
760.54499999999996

>  <r_qp_SAamideO>  (1154) 
0

>  <r_qp_SAfluorine>  (1154) 
34.984000000000002

>  <r_qp_WPSA>  (1154) 
34.984000000000002

>  <r_qp_accptHB>  (1154) 
6.5

>  <r_qp_dip^2/V>  (1154) 
0.049051999999999998

>  <r_qp_dipole>  (1154) 
8.4079999999999995

>  <r_qp_donorHB>  (1154) 
1

>  <r_qp_glob>  (1154) 
0.81130029999999997

>  <r_qp_mol_MW>  (1154) 
455.577

>  <r_qp_volume>  (1154) 
1441.1610000000001

>  <r_sd_BIOSOLVEIT.INFINISEE\_FTREES\_SIMILARITY>  (1154) 
0.90500000000000003

>  <r_sd_BIOSOLVEIT.LOGP>  (1154) 
2.6158999999999999

>  <r_sd_BIOSOLVEIT.MOLECULAR\_WEIGHT>  (1154) 
457.59399999999999

>  <r_sd_BIOSOLVEIT.TPSA>  (1154) 
51.759999999999998

>  <i_epik_Tot_Q>  (1154) 
1

>  <i_epik_Tot_abs_Q>  (1154) 
1

>  <i_f3d_flags>  (1154) 
0

>  <i_i_glide_confnum>  (1154) 
2

>  <i_i_glide_lignum>  (1154) 
588

>  <i_i_glide_posenum>  (1154) 
18

>  <i_i_glide_rotatable_bonds>  (1154) 
9

>  <i_lp_mmshare_version>  (1154) 
65135

>  <i_m_ct_format>  (1154) 
2

>  <i_m_source_file_index>  (1154) 
1688

>  <i_qp_#NandO>  (1154) 
5

>  <i_qp_#acid>  (1154) 
0

>  <i_qp_#amide>  (1154) 
0

>  <i_qp_#amidine>  (1154) 
0

>  <i_qp_#amine>  (1154) 
2

>  <i_qp_#in34>  (1154) 
0

>  <i_qp_#in56>  (1154) 
28

>  <i_qp_#metab>  (1154) 
7

>  <i_qp_#nonHatm>  (1154) 
34

>  <i_qp_#noncon>  (1154) 
4

>  <i_qp_#ringatoms>  (1154) 
28

>  <i_qp_#rotor>  (1154) 
8

>  <i_qp_#rtvFG>  (1154) 
0

>  <i_qp_#stars>  (1154) 
0

>  <i_qp_CNS>  (1154) 
2

>  <i_qp_HumanOralAbsorption>  (1154) 
3

>  <i_qp_RuleOfFive>  (1154) 
0

>  <i_qp_RuleOfThree>  (1154) 
1

>  <i_sd_BIOSOLVEIT.INFINISEE\_REAGENT1\_NAME>  (1154) 
18360870

>  <i_sd_BIOSOLVEIT.INFINISEE\_REAGENT2\_NAME>  (1154) 
7547868

>  <i_sd_BIOSOLVEIT.INFINISEE\_RESULT\_RANK>  (1154) 
71029

>  <i_sd_version>  (1154) 
0

>  <b_lp_Chiralities_Consistent>  (1154) 
1

>  <b_sd_chiral_flag>  (1154) 
0

>  <canonical_id>  (1154) 
ATP-HTVS-B7CF3B4EBACD

>  <compound_code>  (1154) 
53986

>  <title>  (1154) 
m_270004bbb____18360870____7547868

>  <variant>  (1154) 
53986-2

>  <source_file>  (1154) 
运行/运行/ATP-VSW/ATP-VSW-DOCK_HTVS_1-002_lib.maegz

>  <canonical_smiles>  (1154) 
Fc1ccc([C@@H](C[NH2+]Cc2cn(Cc3ccccc3)nc2-c2cccnc2)N2CCCC2)cc1

>  <scaffold>  (1154) 
c1ccc(Cn2cc(C[NH2+]CC(c3ccccc3)N3CCCC3)c(-c3cccnc3)n2)cc1

>  <molecular_formula>  (1154) 
C28H31FN5+

$$$$
ATP-HTVS-B7FF2C0C64E6
     RDKit          3D

 56 58  0  0  0  0  0  0  0  0999 V2000
  196.3566  180.2413  150.4543 S   0  0  0  0  0  0  0  0  0  0  0  0
  196.6775  181.7433  151.3109 C   0  0  0  0  0  0  0  0  0  0  0  0
  196.4536  183.0003  150.5486 C   0  0  0  0  0  0  0  0  0  0  0  0
  195.5648  183.7735  150.8958 O   0  0  0  0  0  0  0  0  0  0  0  0
  197.2455  183.2485  149.4617 N   0  0  0  0  0  0  0  0  0  0  0  0
  196.9462  184.3844  148.5592 C   0  0  1  0  0  0  0  0  0  0  0  0
  198.1794  185.1182  148.0607 C   0  0  0  0  0  0  0  0  0  0  0  0
  198.4262  185.2334  146.6781 C   0  0  0  0  0  0  0  0  0  0  0  0
  199.6136  185.8457  146.2255 C   0  0  0  0  0  0  0  0  0  0  0  0
  199.8544  185.9473  144.8978 F   0  0  0  0  0  0  0  0  0  0  0  0
  200.5599  186.3226  147.1516 C   0  0  0  0  0  0  0  0  0  0  0  0
  200.3237  186.1898  148.5347 C   0  0  0  0  0  0  0  0  0  0  0  0
  199.1365  185.5911  148.9868 C   0  0  0  0  0  0  0  0  0  0  0  0
  198.3736  182.3735  149.0683 C   0  0  2  0  0  0  0  0  0  0  0  0
  196.9913  181.4952  152.6307 C   0  0  0  0  0  0  0  0  0  0  0  0
  197.2241  182.4673  153.6221 N   0  0  0  0  0  0  0  0  0  0  0  0
  198.1725  182.2571  154.7096 C   0  0  1  0  0  0  0  0  0  0  0  0
  197.7739  182.9123  156.0125 C   0  0  0  0  0  0  0  0  0  0  0  0
  198.4447  184.0640  156.4715 C   0  0  0  0  0  0  0  0  0  0  0  0
  198.0898  184.6382  157.7039 C   0  0  0  0  0  0  0  0  0  0  0  0
  197.0387  184.0873  158.4764 C   0  0  0  0  0  0  0  0  0  0  0  0
  196.3741  182.9324  158.0185 C   0  0  0  0  0  0  0  0  0  0  0  0
  196.7473  182.3433  156.7944 C   0  0  0  0  0  0  0  0  0  0  0  0
  196.6076  184.7611  159.7697 C   0  0  1  0  0  0  0  0  0  0  0  0
  195.5841  185.8243  159.5674 N   0  0  2  0  0  0  0  0  0  0  0  0
  195.9206  186.7999  158.4992 C   0  0  2  0  0  0  0  0  0  0  0  0
  195.2523  186.5180  160.8331 C   0  0  2  0  0  0  0  0  0  0  0  0
  197.0952  180.0957  152.9104 C   0  0  0  0  0  0  0  0  0  0  0  0
  196.8568  179.3078  151.8244 C   0  0  0  0  0  0  0  0  0  0  0  0
  196.3549  184.0122  147.7229 H   0  0  0  0  0  0  0  0  0  0  0  0
  196.3310  185.1553  149.0256 H   0  0  0  0  0  0  0  0  0  0  0  0
  197.7197  184.8433  145.9606 H   0  0  0  0  0  0  0  0  0  0  0  0
  201.4775  186.7709  146.8036 H   0  0  0  0  0  0  0  0  0  0  0  0
  201.0592  186.5301  149.2475 H   0  0  0  0  0  0  0  0  0  0  0  0
  198.9620  185.4691  150.0471 H   0  0  0  0  0  0  0  0  0  0  0  0
  198.7765  181.8172  149.9126 H   0  0  0  0  0  0  0  0  0  0  0  0
  199.2411  182.8841  148.6653 H   0  0  0  0  0  0  0  0  0  0  0  0
  198.0460  181.6565  148.3156 H   0  0  0  0  0  0  0  0  0  0  0  0
  197.0204  183.4282  153.3803 H   0  0  0  0  0  0  0  0  0  0  0  0
  198.3428  181.2142  154.9308 H   0  0  0  0  0  0  0  0  0  0  0  0
  199.1389  182.6548  154.3889 H   0  0  0  0  0  0  0  0  0  0  0  0
  199.2310  184.5072  155.8790 H   0  0  0  0  0  0  0  0  0  0  0  0
  198.6027  185.5299  158.0367 H   0  0  0  0  0  0  0  0  0  0  0  0
  195.5734  182.4879  158.5915 H   0  0  0  0  0  0  0  0  0  0  0  0
  196.2299  181.4562  156.4535 H   0  0  0  0  0  0  0  0  0  0  0  0
  196.2075  184.0080  160.4515 H   0  0  0  0  0  0  0  0  0  0  0  0
  197.4902  185.1796  160.2561 H   0  0  0  0  0  0  0  0  0  0  0  0
  196.8621  187.3090  158.7136 H   0  0  0  0  0  0  0  0  0  0  0  0
  195.1487  187.5463  158.4089 H   0  0  0  0  0  0  0  0  0  0  0  0
  195.9915  186.3224  157.5179 H   0  0  0  0  0  0  0  0  0  0  0  0
  196.1193  187.0555  161.2240 H   0  0  0  0  0  0  0  0  0  0  0  0
  194.9182  185.8242  161.5999 H   0  0  0  0  0  0  0  0  0  0  0  0
  194.4527  187.2439  160.6819 H   0  0  0  0  0  0  0  0  0  0  0  0
  197.3326  179.7004  153.8865 H   0  0  0  0  0  0  0  0  0  0  0  0
  196.9129  178.2364  151.7725 H   0  0  0  0  0  0  0  0  0  0  0  0
  194.7418  185.3577  159.2544 H   0  0  0  0  0  0  0  0  0  0  0  0
  1  2  1  0
  1 29  1  0
  2  3  1  0
  2 15  2  0
  3  4  2  0
  3  5  1  0
  5  6  1  0
  5 14  1  0
  6  7  1  0
  6 30  1  6
  6 31  1  0
  7  8  1  0
  7 13  2  0
  8  9  2  0
  8 32  1  0
  9 10  1  0
  9 11  1  0
 11 12  2  0
 11 33  1  0
 12 13  1  0
 12 34  1  0
 13 35  1  0
 14 36  1  1
 14 37  1  0
 14 38  1  0
 15 16  1  0
 15 28  1  0
 16 17  1  0
 16 39  1  0
 17 18  1  0
 17 40  1  1
 17 41  1  0
 18 19  1  0
 18 23  2  0
 19 20  2  0
 19 42  1  0
 20 21  1  0
 20 43  1  0
 21 22  2  0
 21 24  1  0
 22 23  1  0
 22 44  1  0
 23 45  1  0
 24 25  1  0
 24 46  1  1
 24 47  1  0
 25 26  1  0
 25 27  1  0
 25 56  1  6
 26 48  1  1
 26 49  1  0
 26 50  1  0
 27 51  1  1
 27 52  1  0
 27 53  1  0
 28 29  2  0
 28 54  1  0
 29 55  1  0
M  CHG  1  25   1
M  END
>  <s_epik_cmdline>  (1155) 
J2VwaWtfcHl0aG9uJywgJy1waCcsICc3LjAwMDAwMCcsICctcGh0JywgJzIuMDAwMDAwJywgJy1tcycsICcxNicsICctdG4nLCAnOCcsICctbWEnLCAnMjAwJywgJy1pbWFlJywgJzxpbmZpbGUubWFlPicsICctb21hZScsICc8b3V0ZmlsZS5tYWU+Jw==

>  <s_epik_input>  (1155) 
W2NIXTFbY0hdW2NIXWMoRilbY0hdYzFbQ0gyXU4oW0NIM10pQyg9TyljMnNbY0hdW2NIXWMyW05IXVtDSDJdYzNbY0hdW2NIXWMoW2NIXVtjSF0zKVtDSDJdTihbQ0gzXSlbQ0gzXQ==

>  <s_i_glide_gridfile>  (1155) 
ATP-Grid

>  <s_lp_Force_Field>  (1155) 
OPLS_2005

>  <s_lp_Variant>  (1155) 
rxn512b____EMOL525080____EMOL525138____EMOL50155899-1

>  <s_lp_label>  (1155) 
2322_sdstereoexpander_1_neutralizer_1_epik_1_stereoizer_1

>  <s_m_source_file>  (1155) 
ATP-VSW-LIGPREP-003-in.maegz

>  <s_sd_BIOSOLVEIT.INFINISEE\_QUERY\_NAME>  (1155) 
Ref-Lig

>  <s_sd_BIOSOLVEIT.INFINISEE\_QUERY\_SMILES>  (1155) 
S(c1nc2c(cc1C[NH2+]Cc3ccc(cc3)C[NH+](C)C)cccc2)Cc4ccccc4

>  <s_sd_BIOSOLVEIT.INFINISEE\_REACTION\_NAME>  (1155) 
rxn512b

>  <s_sd_BIOSOLVEIT.INFINISEE\_REAGENT1\_NAME>  (1155) 
EMOL525080

>  <s_sd_BIOSOLVEIT.INFINISEE\_REAGENT1\_SMILES>  (1155) 
Fc1cc(ccc1)CNC

>  <s_sd_BIOSOLVEIT.INFINISEE\_REAGENT2\_NAME>  (1155) 
EMOL525138

>  <s_sd_BIOSOLVEIT.INFINISEE\_REAGENT2\_SMILES>  (1155) 
BrC1=C(SC=C1)C(=O)O

>  <s_sd_BIOSOLVEIT.INFINISEE\_REAGENT3\_NAME>  (1155) 
EMOL50155899

>  <s_sd_BIOSOLVEIT.INFINISEE\_REAGENT3\_SMILES>  (1155) 
N(Cc1ccc(cc1)CN)(C)C

>  <s_sd_BIOSOLVEIT.INFINISEE\_SPACE>  (1155) 
eXplore_7tr_2022-12

>  <s_vsw_compound_code>  (1155) 
74275

>  <s_vsw_variant>  (1155) 
74275-1

>  <r_epik_Charging_Adjusted_Penalty>  (1155) 
0.080189274810459593

>  <r_epik_Ionization_Penalty>  (1155) 
0.0402

>  <r_epik_Ionization_Penalty_Charging>  (1155) 
0.040099999999999997

>  <r_epik_Ionization_Penalty_Neutral>  (1155) 
0.0001

>  <r_epik_State_Penalty>  (1155) 
0.040099999999999997

>  <r_i_docking_score>  (1155) 
-4.5158051998809201

>  <r_i_glide_ecoul>  (1155) 
-3.0849351882934601

>  <r_i_glide_eff_state_penalty>  (1155) 
0.040099999999999997

>  <r_i_glide_einternal>  (1155) 
7.20639848709106

>  <r_i_glide_emodel>  (1155) 
-51.549781898098601

>  <r_i_glide_energy>  (1155) 
-39.333317756652797

>  <r_i_glide_erotb>  (1155) 
0.81107677863442396

>  <r_i_glide_esite>  (1155) 
-0.026012729483280098

>  <r_i_glide_evdw>  (1155) 
-36.248382568359403

>  <r_i_glide_gscore>  (1155) 
-4.5559051998809199

>  <r_i_glide_hbond>  (1155) 
-0.17385019382936201

>  <r_i_glide_ligand_efficiency>  (1155) 
-0.155717420685549

>  <r_i_glide_ligand_efficiency_ln>  (1155) 
-1.0340048798331301

>  <r_i_glide_ligand_efficiency_sa>  (1155) 
-0.478413251087627

>  <r_i_glide_lipo>  (1155) 
-2.13180306083121

>  <r_i_glide_metal>  (1155) 
-0

>  <r_i_glide_rewards>  (1155) 
-0.76015658770950401

>  <r_lp_Energy>  (1155) 
26.859383000000001

>  <r_lp_tautomer_probability>  (1155) 
0.99999274205267796

>  <r_qp_ACxDN^.5/SA>  (1155) 
0

>  <r_qp_CIQPlogS>  (1155) 
-4.4160000000000004

>  <r_qp_EA(eV)>  (1155) 
0.442

>  <r_qp_FISA>  (1155) 
40.472000000000001

>  <r_qp_FOSA>  (1155) 
308.31799999999998

>  <r_qp_IP(eV)>  (1155) 
8.4220000000000006

>  <r_qp_Jm>  (1155) 
0.00371968383748476

>  <r_qp_PISA>  (1155) 
278.834

>  <r_qp_PSA>  (1155) 
40.933999999999997

>  <r_qp_PercentHumanOralAbsorption>  (1155) 
100

>  <r_qp_QPPCaco>  (1155) 
254.62799999999999

>  <r_qp_QPPMDCK>  (1155) 
337.51799999999997

>  <r_qp_QPlogBB>  (1155) 
0.65700000000000003

>  <r_qp_QPlogHERG>  (1155) 
-7.1269999999999998

>  <r_qp_QPlogKhsa>  (1155) 
0.72499999999999998

>  <r_qp_QPlogKp>  (1155) 
-4.6399999999999997

>  <r_qp_QPlogPC16>  (1155) 
12.702999999999999

>  <r_qp_QPlogPo/w>  (1155) 
4.6269999999999998

>  <r_qp_QPlogPoct>  (1155) 
17.350999999999999

>  <r_qp_QPlogPw>  (1155) 
6.7569999999999997

>  <r_qp_QPlogS>  (1155) 
-3.4039999999999999

>  <r_qp_QPpolrz>  (1155) 
43.537999999999997

>  <r_qp_SASA>  (1155) 
698.51300000000003

>  <r_qp_SAamideO>  (1155) 
0

>  <r_qp_SAfluorine>  (1155) 
26.949999999999999

>  <r_qp_WPSA>  (1155) 
70.888999999999996

>  <r_qp_accptHB>  (1155) 
5

>  <r_qp_dip^2/V>  (1155) 
0.024702600000000002

>  <r_qp_dipole>  (1155) 
5.6740000000000004

>  <r_qp_donorHB>  (1155) 
0

>  <r_qp_glob>  (1155) 
0.82616140000000005

>  <r_qp_mol_MW>  (1155) 
411.536

>  <r_qp_volume>  (1155) 
1303.5029999999999

>  <r_sd_BIOSOLVEIT.INFINISEE\_FTREES\_SIMILARITY>  (1155) 
0.92200000000000004

>  <r_sd_BIOSOLVEIT.LOGP>  (1155) 
3.4159999999999999

>  <r_sd_BIOSOLVEIT.MOLECULAR\_WEIGHT>  (1155) 
412.54899999999998

>  <r_sd_BIOSOLVEIT.TPSA>  (1155) 
36.780000000000001

>  <i_epik_Tot_Q>  (1155) 
1

>  <i_epik_Tot_abs_Q>  (1155) 
1

>  <i_f3d_flags>  (1155) 
0

>  <i_i_glide_confnum>  (1155) 
3

>  <i_i_glide_lignum>  (1155) 
961

>  <i_i_glide_posenum>  (1155) 
17

>  <i_i_glide_rotatable_bonds>  (1155) 
9

>  <i_lp_mmshare_version>  (1155) 
65135

>  <i_m_ct_format>  (1155) 
2

>  <i_m_source_file_index>  (1155) 
2322

>  <i_qp_#NandO>  (1155) 
4

>  <i_qp_#acid>  (1155) 
0

>  <i_qp_#amide>  (1155) 
0

>  <i_qp_#amidine>  (1155) 
0

>  <i_qp_#amine>  (1155) 
2

>  <i_qp_#in34>  (1155) 
0

>  <i_qp_#in56>  (1155) 
17

>  <i_qp_#metab>  (1155) 
6

>  <i_qp_#nonHatm>  (1155) 
29

>  <i_qp_#noncon>  (1155) 
0

>  <i_qp_#ringatoms>  (1155) 
17

>  <i_qp_#rotor>  (1155) 
8

>  <i_qp_#rtvFG>  (1155) 
0

>  <i_qp_#stars>  (1155) 
0

>  <i_qp_CNS>  (1155) 
2

>  <i_qp_HumanOralAbsorption>  (1155) 
3

>  <i_qp_RuleOfFive>  (1155) 
0

>  <i_qp_RuleOfThree>  (1155) 
0

>  <i_sd_BIOSOLVEIT.INFINISEE\_RESULT\_RANK>  (1155) 
13491

>  <i_sd_version>  (1155) 
0

>  <b_lp_Chiralities_Consistent>  (1155) 
1

>  <b_sd_chiral_flag>  (1155) 
0

>  <canonical_id>  (1155) 
ATP-HTVS-B7FF2C0C64E6

>  <compound_code>  (1155) 
74275

>  <title>  (1155) 
rxn512b____EMOL525080____EMOL525138____EMOL50155899

>  <variant>  (1155) 
74275-1

>  <source_file>  (1155) 
运行/运行/ATP-VSW/ATP-VSW-DOCK_HTVS_1-003_lib/ATP-VSW-DOCK_HTVS_1-003_lib.mae

>  <canonical_smiles>  (1155) 
CN(Cc1cccc(F)c1)C(=O)c1sccc1NCc1ccc(C[NH+](C)C)cc1

>  <scaffold>  (1155) 
O=C(NCc1ccccc1)c1sccc1NCc1ccccc1

>  <molecular_formula>  (1155) 
C23H27FN3OS+

$$$$
ATP-HTVS-B8017292FA6C
     RDKit          3D

 51 54  0  0  0  0  0  0  0  0999 V2000
  203.5784  180.0249  152.9174 Cl  0  0  0  0  0  0  0  0  0  0  0  0
  202.5531  179.7288  154.2873 C   0  0  0  0  0  0  0  0  0  0  0  0
  202.3903  178.3889  154.7156 C   0  0  0  0  0  0  0  0  0  0  0  0
  203.2422  177.0969  153.9411 Cl  0  0  0  0  0  0  0  0  0  0  0  0
  201.5430  178.0786  155.7917 C   0  0  0  0  0  0  0  0  0  0  0  0
  200.8435  179.1013  156.4496 C   0  0  0  0  0  0  0  0  0  0  0  0
  201.0085  180.4377  156.0445 C   0  0  0  0  0  0  0  0  0  0  0  0
  201.8378  180.7747  154.9445 C   0  0  0  0  0  0  0  0  0  0  0  0
  201.9699  182.2232  154.5206 C   0  0  0  0  0  0  0  0  0  0  0  0
  203.0306  182.6838  154.0950 O   0  0  0  0  0  0  0  0  0  0  0  0
  200.8299  182.9314  154.6369 N   0  0  0  0  0  0  0  0  0  0  0  0
  200.5498  184.2785  154.2544 C   0  0  0  0  0  0  0  0  0  0  0  0
  201.4518  185.0419  153.5881 N   0  0  0  0  0  0  0  0  0  0  0  0
  201.1453  186.2988  153.2133 C   0  0  0  0  0  0  0  0  0  0  0  0
  199.8818  186.8752  153.4956 C   0  0  0  0  0  0  0  0  0  0  0  0
  198.9313  186.1050  154.1955 C   0  0  0  0  0  0  0  0  0  0  0  0
  199.2567  184.7897  154.5779 C   0  0  0  0  0  0  0  0  0  0  0  0
  198.2639  184.0104  155.3006 C   0  0  0  0  0  0  0  0  0  0  0  0
  197.4654  183.3159  155.9062 C   0  0  0  0  0  0  0  0  0  0  0  0
  196.5850  182.4021  156.6539 C   0  0  1  0  0  0  0  0  0  0  0  0
  196.7839  181.0659  156.1322 N   0  0  0  0  0  0  0  0  0  0  0  0
  196.8078  182.4073  158.1755 C   0  0  1  0  0  0  0  0  0  0  0  0
  196.3886  183.6935  158.8575 C   0  0  0  0  0  0  0  0  0  0  0  0
  197.2926  184.7695  158.9757 C   0  0  0  0  0  0  0  0  0  0  0  0
  196.9049  185.9644  159.6167 C   0  0  0  0  0  0  0  0  0  0  0  0
  197.7779  186.9947  159.7091 F   0  0  0  0  0  0  0  0  0  0  0  0
  195.6139  186.0880  160.1560 C   0  0  0  0  0  0  0  0  0  0  0  0
  194.7063  185.0184  160.0464 C   0  0  0  0  0  0  0  0  0  0  0  0
  195.0903  183.8241  159.3969 C   0  0  0  0  0  0  0  0  0  0  0  0
  199.5817  188.1890  153.0855 C   0  0  0  0  0  0  0  0  0  0  0  0
  200.5491  188.9424  152.3930 C   0  0  0  0  0  0  0  0  0  0  0  0
  201.8068  188.3778  152.1060 C   0  0  0  0  0  0  0  0  0  0  0  0
  202.0948  187.0631  152.5151 C   0  0  0  0  0  0  0  0  0  0  0  0
  196.2163  180.3876  156.6792 H   0  0  0  0  0  0  0  0  0  0  0  0
  196.4599  181.0264  155.1806 H   0  0  0  0  0  0  0  0  0  0  0  0
  201.4438  177.0513  156.1194 H   0  0  0  0  0  0  0  0  0  0  0  0
  200.2127  178.8620  157.2925 H   0  0  0  0  0  0  0  0  0  0  0  0
  200.4491  181.1826  156.5892 H   0  0  0  0  0  0  0  0  0  0  0  0
  200.0474  182.4433  155.0426 H   0  0  0  0  0  0  0  0  0  0  0  0
  197.9540  186.5175  154.4161 H   0  0  0  0  0  0  0  0  0  0  0  0
  195.5526  182.7137  156.4575 H   0  0  0  0  0  0  0  0  0  0  0  0
  196.2540  181.5818  158.6347 H   0  0  0  0  0  0  0  0  0  0  0  0
  197.8531  182.2222  158.3969 H   0  0  0  0  0  0  0  0  0  0  0  0
  198.2898  184.6890  158.5650 H   0  0  0  0  0  0  0  0  0  0  0  0
  195.3224  186.9974  160.6478 H   0  0  0  0  0  0  0  0  0  0  0  0
  193.7089  185.1082  160.4566 H   0  0  0  0  0  0  0  0  0  0  0  0
  194.3823  183.0077  159.3082 H   0  0  0  0  0  0  0  0  0  0  0  0
  198.6163  188.6230  153.3065 H   0  0  0  0  0  0  0  0  0  0  0  0
  200.3311  189.9539  152.0806 H   0  0  0  0  0  0  0  0  0  0  0  0
  202.5534  188.9532  151.5751 H   0  0  0  0  0  0  0  0  0  0  0  0
  203.0578  186.6245  152.2973 H   0  0  0  0  0  0  0  0  0  0  0  0
  1  2  1  0
  2  3  2  0
  2  8  1  0
  3  4  1  0
  3  5  1  0
  5  6  2  0
  5 36  1  0
  6  7  1  0
  6 37  1  0
  7  8  2  0
  7 38  1  0
  8  9  1  0
  9 10  2  0
  9 11  1  0
 11 12  1  0
 11 39  1  0
 12 13  2  0
 12 17  1  0
 13 14  1  0
 14 15  1  0
 14 33  2  0
 15 16  1  0
 15 30  2  0
 16 17  2  0
 16 40  1  0
 17 18  1  0
 18 19  3  0
 19 20  1  0
 20 21  1  0
 20 22  1  0
 20 41  1  1
 21 34  1  0
 21 35  1  0
 22 23  1  0
 22 42  1  1
 22 43  1  0
 23 24  1  0
 23 29  2  0
 24 25  2  0
 24 44  1  0
 25 26  1  0
 25 27  1  0
 27 28  2  0
 27 45  1  0
 28 29  1  0
 28 46  1  0
 29 47  1  0
 30 31  1  0
 30 48  1  0
 31 32  2  0
 31 49  1  0
 32 33  1  0
 32 50  1  0
 33 51  1  0
M  END
>  <s_epik_cmdline>  (1156) 
J2VwaWtfcHl0aG9uJywgJy1waCcsICc3LjAwMDAwMCcsICctcGh0JywgJzIuMDAwMDAwJywgJy1tcycsICcxNicsICctdG4nLCAnOCcsICctbWEnLCAnMjAwJywgJy1pbWFlJywgJzxpbmZpbGUubWFlPicsICctb21hZScsICc8b3V0ZmlsZS5tYWU+Jw==

>  <s_epik_input>  (1156) 
Q2xjMWMoQ2wpW2NIXVtjSF1bY0hdYzFDKD1PKVtOSF1jKG4yKWMoW2NIXWMoYzIzKVtjSF1bY0hdW2NIXVtjSF0zKUMjQ1tDQEBIXShbTkgyXSlbQ0gyXWM0W2NIXWMoRilbY0hdW2NIXVtjSF00

>  <s_i_glide_gridfile>  (1156) 
ATP-Grid

>  <s_lp_Force_Field>  (1156) 
OPLS_2005

>  <s_lp_Variant>  (1156) 
rxn503b____EMOL489760____EMOL44466703____EMOL313110234-2

>  <s_lp_label>  (1156) 
3066_sdstereoexpander_2_neutralizer_1_epik_1_stereoizer_1

>  <s_m_source_file>  (1156) 
ATP-VSW-LIGPREP-001-in.maegz

>  <s_sd_BIOSOLVEIT.INFINISEE\_QUERY\_NAME>  (1156) 
Ref-Lig

>  <s_sd_BIOSOLVEIT.INFINISEE\_QUERY\_SMILES>  (1156) 
S(c1nc2c(cc1C[NH2+]Cc3ccc(cc3)C[NH+](C)C)cccc2)Cc4ccccc4

>  <s_sd_BIOSOLVEIT.INFINISEE\_REACTION\_NAME>  (1156) 
rxn503b

>  <s_sd_BIOSOLVEIT.INFINISEE\_REAGENT1\_NAME>  (1156) 
EMOL489760

>  <s_sd_BIOSOLVEIT.INFINISEE\_REAGENT1\_SMILES>  (1156) 
Clc1c(Cl)cccc1C(=O)O

>  <s_sd_BIOSOLVEIT.INFINISEE\_REAGENT2\_NAME>  (1156) 
EMOL44466703

>  <s_sd_BIOSOLVEIT.INFINISEE\_REAGENT2\_SMILES>  (1156) 
Brc1c(nc2c(c1)cccc2)N

>  <s_sd_BIOSOLVEIT.INFINISEE\_REAGENT3\_NAME>  (1156) 
EMOL313110234

>  <s_sd_BIOSOLVEIT.INFINISEE\_REAGENT3\_SMILES>  (1156) 
Fc1cc(ccc1)CC(N)C#C

>  <s_sd_BIOSOLVEIT.INFINISEE\_SPACE>  (1156) 
eXplore_7tr_2022-12

>  <s_vsw_compound_code>  (1156) 
98081

>  <s_vsw_variant>  (1156) 
98081-2

>  <r_epik_Charging_Adjusted_Penalty>  (1156) 
0.26016307076515699

>  <r_epik_Ionization_Penalty>  (1156) 
0.26050000000000001

>  <r_epik_Ionization_Penalty_Charging>  (1156) 
0

>  <r_epik_Ionization_Penalty_Neutral>  (1156) 
0.26050000000000001

>  <r_epik_State_Penalty>  (1156) 
0.26019999999999999

>  <r_i_docking_score>  (1156) 
-2.87306696057149

>  <r_i_glide_ecoul>  (1156) 
-5.02158546447754

>  <r_i_glide_eff_state_penalty>  (1156) 
0.26019999999999999

>  <r_i_glide_einternal>  (1156) 
2.55943727493286

>  <r_i_glide_emodel>  (1156) 
-36.664787441542899

>  <r_i_glide_energy>  (1156) 
-31.4604377746582

>  <r_i_glide_erotb>  (1156) 
0.53136147991428195

>  <r_i_glide_esite>  (1156) 
0

>  <r_i_glide_evdw>  (1156) 
-26.4388523101807

>  <r_i_glide_gscore>  (1156) 
-3.1332669605714898

>  <r_i_glide_hbond>  (1156) 
-0.16

>  <r_i_glide_ligand_efficiency>  (1156) 
-0.087062635168832905

>  <r_i_glide_ligand_efficiency_ln>  (1156) 
-0.63895521608651995

>  <r_i_glide_ligand_efficiency_sa>  (1156) 
-0.27925639083845899

>  <r_i_glide_lipo>  (1156) 
-1.1866571541659501

>  <r_i_glide_metal>  (1156) 
-0

>  <r_i_glide_rewards>  (1156) 
-0.242790851139149

>  <r_lp_Energy>  (1156) 
27.612902999999999

>  <r_qp_ACxDN^.5/SA>  (1156) 
0.0119563

>  <r_qp_CIQPlogS>  (1156) 
-7.1959999999999997

>  <r_qp_EA(eV)>  (1156) 
1.081

>  <r_qp_FISA>  (1156) 
75.159999999999997

>  <r_qp_FOSA>  (1156) 
66.072999999999993

>  <r_qp_IP(eV)>  (1156) 
8.7409999999999997

>  <r_qp_Jm>  (1156) 
0.0362797184614485

>  <r_qp_PISA>  (1156) 
411.93799999999999

>  <r_qp_PSA>  (1156) 
67.207999999999998

>  <r_qp_PercentHumanOralAbsorption>  (1156) 
100

>  <r_qp_QPPCaco>  (1156) 
478.69

>  <r_qp_QPPMDCK>  (1156) 
857.45000000000005

>  <r_qp_QPlogBB>  (1156) 
0.129

>  <r_qp_QPlogHERG>  (1156) 
-6.2350000000000003

>  <r_qp_QPlogKhsa>  (1156) 
0.80400000000000005

>  <r_qp_QPlogKp>  (1156) 
-2.8439999999999999

>  <r_qp_QPlogPC16>  (1156) 
14.547000000000001

>  <r_qp_QPlogPo/w>  (1156) 
4.9119999999999999

>  <r_qp_QPlogPoct>  (1156) 
22.634

>  <r_qp_QPlogPw>  (1156) 
11.917999999999999

>  <r_qp_QPlogS>  (1156) 
-4.2759999999999998

>  <r_qp_QPpolrz>  (1156) 
44.604999999999997

>  <r_qp_SASA>  (1156) 
651.89499999999998

>  <r_qp_SAamideO>  (1156) 
0

>  <r_qp_SAfluorine>  (1156) 
28.885999999999999

>  <r_qp_WPSA>  (1156) 
98.722999999999999

>  <r_qp_accptHB>  (1156) 
4.5

>  <r_qp_dip^2/V>  (1156) 
0.029944599999999998

>  <r_qp_dipole>  (1156) 
6.1970000000000001

>  <r_qp_donorHB>  (1156) 
3

>  <r_qp_glob>  (1156) 
0.87564370000000002

>  <r_qp_mol_MW>  (1156) 
478.35199999999998

>  <r_qp_volume>  (1156) 
1282.3589999999999

>  <r_sd_BIOSOLVEIT.INFINISEE\_FTREES\_SIMILARITY>  (1156) 
0.90200000000000002

>  <r_sd_BIOSOLVEIT.LOGP>  (1156) 
5.1376999999999997

>  <r_sd_BIOSOLVEIT.MOLECULAR\_WEIGHT>  (1156) 
479.36000000000001

>  <r_sd_BIOSOLVEIT.TPSA>  (1156) 
69.629999999999995

>  <i_epik_Tot_Q>  (1156) 
0

>  <i_epik_Tot_abs_Q>  (1156) 
0

>  <i_f3d_flags>  (1156) 
0

>  <i_i_glide_confnum>  (1156) 
3

>  <i_i_glide_lignum>  (1156) 
36

>  <i_i_glide_posenum>  (1156) 
11

>  <i_i_glide_rotatable_bonds>  (1156) 
7

>  <i_lp_mmshare_version>  (1156) 
65135

>  <i_m_ct_format>  (1156) 
2

>  <i_m_source_file_index>  (1156) 
3066

>  <i_qp_#NandO>  (1156) 
4

>  <i_qp_#acid>  (1156) 
0

>  <i_qp_#amide>  (1156) 
0

>  <i_qp_#amidine>  (1156) 
0

>  <i_qp_#amine>  (1156) 
1

>  <i_qp_#in34>  (1156) 
0

>  <i_qp_#in56>  (1156) 
22

>  <i_qp_#metab>  (1156) 
4

>  <i_qp_#nonHatm>  (1156) 
33

>  <i_qp_#noncon>  (1156) 
0

>  <i_qp_#ringatoms>  (1156) 
22

>  <i_qp_#rotor>  (1156) 
7

>  <i_qp_#rtvFG>  (1156) 
0

>  <i_qp_#stars>  (1156) 
0

>  <i_qp_CNS>  (1156) 
1

>  <i_qp_HumanOralAbsorption>  (1156) 
3

>  <i_qp_RuleOfFive>  (1156) 
0

>  <i_qp_RuleOfThree>  (1156) 
0

>  <i_sd_BIOSOLVEIT.INFINISEE\_RESULT\_RANK>  (1156) 
92444

>  <i_sd_version>  (1156) 
0

>  <b_lp_Chiralities_Consistent>  (1156) 
1

>  <b_sd_chiral_flag>  (1156) 
0

>  <canonical_id>  (1156) 
ATP-HTVS-B8017292FA6C

>  <compound_code>  (1156) 
98081

>  <title>  (1156) 
rxn503b____EMOL489760____EMOL44466703____EMOL313110234

>  <variant>  (1156) 
98081-2

>  <source_file>  (1156) 
运行/运行/ATP-VSW/ATP-VSW-DOCK_HTVS_1-002_lib.maegz

>  <canonical_smiles>  (1156) 
N[C@H](C#Cc1cc2ccccc2nc1NC(=O)c1cccc(Cl)c1Cl)Cc1cccc(F)c1

>  <scaffold>  (1156) 
O=C(Nc1nc2ccccc2cc1C#CCCc1ccccc1)c1ccccc1

>  <molecular_formula>  (1156) 
C26H18Cl2FN3O

$$$$
ATP-HTVS-B8459B836830
     RDKit          3D

 74 77  0  0  0  0  0  0  0  0999 V2000
  201.8001  175.3131  154.8976 O   0  0  0  0  0  0  0  0  0  0  0  0
  201.3032  176.6266  155.0816 C   0  0  1  0  0  0  0  0  0  0  0  0
  200.0316  176.6299  155.9666 C   0  0  1  0  0  0  0  0  0  0  0  0
  199.5609  177.9946  156.2892 N   0  0  2  0  0  0  0  0  0  0  0  0
  199.1239  178.7340  155.0676 C   0  0  1  0  0  0  0  0  0  0  0  0
  198.6055  180.1265  155.3361 C   0  0  0  0  0  0  0  0  0  0  0  0
  197.2208  180.3823  155.3240 C   0  0  0  0  0  0  0  0  0  0  0  0
  196.7488  181.6616  155.6632 C   0  0  0  0  0  0  0  0  0  0  0  0
  197.6515  182.6744  156.0430 C   0  0  0  0  0  0  0  0  0  0  0  0
  199.0343  182.4354  155.9993 C   0  0  0  0  0  0  0  0  0  0  0  0
  199.5097  181.1731  155.6277 C   0  0  0  0  0  0  0  0  0  0  0  0
  197.1464  183.9903  156.6371 C   0  0  1  0  0  0  0  0  0  0  0  0
  196.5394  183.8477  157.9783 N   0  0  0  0  0  0  0  0  0  0  0  0
  196.9332  184.9758  158.8577 C   0  0  1  0  0  0  0  0  0  0  0  0
  198.4405  185.0584  159.1594 C   0  0  0  0  0  0  0  0  0  0  0  0
  199.2827  186.2191  159.2677 C   0  0  0  0  0  0  0  0  0  0  0  0
  200.5420  185.9116  159.6051 N   0  0  0  0  0  0  0  0  0  0  0  0
  200.5393  184.5571  159.7176 N   0  0  0  0  0  0  0  0  0  0  0  0
  201.6943  183.8249  160.1370 C   0  0  0  0  0  0  0  0  0  0  0  0
  202.6857  184.4744  160.9237 C   0  0  0  0  0  0  0  0  0  0  0  0
  203.7847  183.7422  161.3815 C   0  0  0  0  0  0  0  0  0  0  0  0
  203.9206  182.3734  161.0820 C   0  0  0  0  0  0  0  0  0  0  0  0
  202.9305  181.7232  160.3149 C   0  0  0  0  0  0  0  0  0  0  0  0
  201.8242  182.4598  159.8522 C   0  0  0  0  0  0  0  0  0  0  0  0
  199.3317  184.0549  159.4615 C   0  0  0  0  0  0  0  0  0  0  0  0
  198.9470  187.6536  159.1000 C   0  0  0  0  0  0  0  0  0  0  0  0
  197.8502  188.0818  158.3084 C   0  0  0  0  0  0  0  0  0  0  0  0
  197.5821  189.4676  158.2335 C   0  0  0  0  0  0  0  0  0  0  0  0
  198.3338  190.4161  158.8303 N   0  0  0  0  0  0  0  0  0  0  0  0
  199.3904  189.9965  159.5529 C   0  0  0  0  0  0  0  0  0  0  0  0
  199.7319  188.6437  159.7276 C   0  0  0  0  0  0  0  0  0  0  0  0
  196.7943  182.5741  158.6260 C   0  0  2  0  0  0  0  0  0  0  0  0
  200.4793  178.7555  157.1686 C   0  0  1  0  0  0  0  0  0  0  0  0
  200.9301  178.0033  158.4186 C   0  0  2  0  0  0  0  0  0  0  0  0
  202.4215  174.7875  156.0586 C   0  0  1  0  0  0  0  0  0  0  0  0
  203.0780  173.4512  155.7367 C   0  0  2  0  0  0  0  0  0  0  0  0
  202.0873  177.2652  155.4932 H   0  0  0  0  0  0  0  0  0  0  0  0
  201.0694  177.0255  154.0932 H   0  0  0  0  0  0  0  0  0  0  0  0
  199.2431  176.0473  155.4938 H   0  0  0  0  0  0  0  0  0  0  0  0
  200.2132  176.1121  156.9034 H   0  0  0  0  0  0  0  0  0  0  0  0
  199.9434  178.8362  154.3558 H   0  0  0  0  0  0  0  0  0  0  0  0
  198.3499  178.1703  154.5553 H   0  0  0  0  0  0  0  0  0  0  0  0
  196.5212  179.5759  155.1366 H   0  0  0  0  0  0  0  0  0  0  0  0
  195.6801  181.8187  155.7495 H   0  0  0  0  0  0  0  0  0  0  0  0
  199.7357  183.1832  156.3475 H   0  0  0  0  0  0  0  0  0  0  0  0
  200.5782  180.9918  155.6469 H   0  0  0  0  0  0  0  0  0  0  0  0
  197.9921  184.6804  156.6513 H   0  0  0  0  0  0  0  0  0  0  0  0
  196.4312  184.4169  155.9302 H   0  0  0  0  0  0  0  0  0  0  0  0
  196.5193  185.8642  158.4146 H   0  0  0  0  0  0  0  0  0  0  0  0
  196.3789  184.8901  159.7995 H   0  0  0  0  0  0  0  0  0  0  0  0
  202.5705  185.5137  161.1639 H   0  0  0  0  0  0  0  0  0  0  0  0
  204.5372  184.2510  161.9723 H   0  0  0  0  0  0  0  0  0  0  0  0
  204.7760  181.8284  161.4384 H   0  0  0  0  0  0  0  0  0  0  0  0
  203.0368  180.6709  160.0867 H   0  0  0  0  0  0  0  0  0  0  0  0
  201.0823  181.9147  159.2650 H   0  0  0  0  0  0  0  0  0  0  0  0
  199.2085  182.9763  159.5685 H   0  0  0  0  0  0  0  0  0  0  0  0
  197.2337  187.4209  157.7422 H   0  0  0  0  0  0  0  0  0  0  0  0
  196.7455  189.7919  157.6441 H   0  0  0  0  0  0  0  0  0  0  0  0
  199.9858  190.7754  160.0126 H   0  0  0  0  0  0  0  0  0  0  0  0
  200.5870  188.3807  160.3406 H   0  0  0  0  0  0  0  0  0  0  0  0
  196.4328  182.5549  159.6533 H   0  0  0  0  0  0  0  0  0  0  0  0
  197.8473  182.4009  158.5878 H   0  0  0  0  0  0  0  0  0  0  0  0
  196.3639  181.7304  158.0913 H   0  0  0  0  0  0  0  0  0  0  0  0
  201.3501  179.0845  156.5927 H   0  0  0  0  0  0  0  0  0  0  0  0
  199.9798  179.6473  157.5446 H   0  0  0  0  0  0  0  0  0  0  0  0
  201.5421  178.6447  159.0407 H   0  0  0  0  0  0  0  0  0  0  0  0
  201.5383  177.1325  158.1769 H   0  0  0  0  0  0  0  0  0  0  0  0
  200.0578  177.6947  158.9983 H   0  0  0  0  0  0  0  0  0  0  0  0
  203.1542  175.4956  156.4368 H   0  0  0  0  0  0  0  0  0  0  0  0
  201.6926  174.6400  156.8463 H   0  0  0  0  0  0  0  0  0  0  0  0
  203.5275  173.0377  156.6370 H   0  0  0  0  0  0  0  0  0  0  0  0
  203.8581  173.5573  154.9856 H   0  0  0  0  0  0  0  0  0  0  0  0
  202.3448  172.7348  155.3683 H   0  0  0  0  0  0  0  0  0  0  0  0
  198.6993  177.8650  156.8521 H   0  0  0  0  0  0  0  0  0  0  0  0
  1  2  1  0
  1 35  1  0
  2  3  1  0
  2 37  1  1
  2 38  1  0
  3  4  1  0
  3 39  1  6
  3 40  1  0
  4  5  1  0
  4 33  1  0
  4 74  1  1
  5  6  1  0
  5 41  1  6
  5 42  1  0
  6  7  1  0
  6 11  2  0
  7  8  2  0
  7 43  1  0
  8  9  1  0
  8 44  1  0
  9 10  2  0
  9 12  1  0
 10 11  1  0
 10 45  1  0
 11 46  1  0
 12 13  1  0
 12 47  1  1
 12 48  1  0
 13 14  1  0
 13 32  1  0
 14 15  1  0
 14 49  1  6
 14 50  1  0
 15 16  1  0
 15 25  2  0
 16 17  2  0
 16 26  1  0
 17 18  1  0
 18 19  1  0
 18 25  1  0
 19 20  2  0
 19 24  1  0
 20 21  1  0
 20 51  1  0
 21 22  2  0
 21 52  1  0
 22 23  1  0
 22 53  1  0
 23 24  2  0
 23 54  1  0
 24 55  1  0
 25 56  1  0
 26 27  2  0
 26 31  1  0
 27 28  1  0
 27 57  1  0
 28 29  2  0
 28 58  1  0
 29 30  1  0
 30 31  2  0
 30 59  1  0
 31 60  1  0
 32 61  1  1
 32 62  1  0
 32 63  1  0
 33 34  1  0
 33 64  1  6
 33 65  1  0
 34 66  1  1
 34 67  1  0
 34 68  1  0
 35 36  1  0
 35 69  1  1
 35 70  1  0
 36 71  1  1
 36 72  1  0
 36 73  1  0
M  CHG  1   4   1
M  END
>  <s_epik_cmdline>  (1157) 
J2VwaWtfcHl0aG9uJywgJy1waCcsICc3LjAwMDAwMCcsICctcGh0JywgJzIuMDAwMDAwJywgJy1tcycsICcxNicsICctdG4nLCAnOCcsICctbWEnLCAnMjAwJywgJy1pbWFlJywgJzxpbmZpbGUubWFlPicsICctb21hZScsICc8b3V0ZmlsZS5tYWU+Jw==

>  <s_epik_input>  (1157) 
W0NIM11bQ0gyXU9bQ0gyXVtDSDJdTihbQ0gyXVtDSDNdKVtDSDJdYzFbY0hdW2NIXWMoW2NIXVtjSF0xKVtDSDJdTihbQ0gzXSlbQ0gyXWMyYygtYzNbY0hdW2NIXW5bY0hdW2NIXTMpbm4oW2NIXTIpLWM0W2NIXVtjSF1bY0hdW2NIXVtjSF00

>  <s_i_glide_gridfile>  (1157) 
ATP-Grid

>  <s_lp_Force_Field>  (1157) 
OPLS_2005

>  <s_lp_Variant>  (1157) 
m_270004bca____18336990____7547806-6

>  <s_lp_label>  (1157) 
2097_sdstereoexpander_1_neutralizer_1_epik_2_stereoizer_2

>  <s_m_source_file>  (1157) 
ATP-VSW-LIGPREP-002-in.maegz

>  <s_sd_BIOSOLVEIT.INFINISEE\_QUERY\_NAME>  (1157) 
Ref-Lig

>  <s_sd_BIOSOLVEIT.INFINISEE\_QUERY\_SMILES>  (1157) 
S(c1nc2c(cc1C[NH2+]Cc3ccc(cc3)C[NH+](C)C)cccc2)Cc4ccccc4

>  <s_sd_BIOSOLVEIT.INFINISEE\_REACTION\_NAME>  (1157) 
m_270004bca

>  <s_sd_BIOSOLVEIT.INFINISEE\_REAGENT1\_SMILES>  (1157) 
[R1*]N(Cc1ccc(cc1)CN(CCOCC)CC)C

>  <s_sd_BIOSOLVEIT.INFINISEE\_REAGENT2\_SMILES>  (1157) 
[R1*]CC=1C(=NN(c2ccccc2)C1)c3ccncc3

>  <s_sd_BIOSOLVEIT.INFINISEE\_SPACE>  (1157) 
REALSpace_44bn_2023-08

>  <s_vsw_compound_code>  (1157) 
67074

>  <s_vsw_variant>  (1157) 
67074-6

>  <r_epik_Charging_Adjusted_Penalty>  (1157) 
0.81055880546584402

>  <r_epik_Ionization_Penalty>  (1157) 
0.74229999999999996

>  <r_epik_Ionization_Penalty_Charging>  (1157) 
0.0654

>  <r_epik_Ionization_Penalty_Neutral>  (1157) 
0.67689999999999995

>  <r_epik_State_Penalty>  (1157) 
0.74509999999999998

>  <r_i_docking_score>  (1157) 
-3.6689567085857999

>  <r_i_glide_ecoul>  (1157) 
-7.4123897552490199

>  <r_i_glide_eff_state_penalty>  (1157) 
0.74509999999999998

>  <r_i_glide_einternal>  (1157) 
16.636894226074201

>  <r_i_glide_emodel>  (1157) 
-53.737364297399097

>  <r_i_glide_energy>  (1157) 
-45.341936111450202

>  <r_i_glide_erotb>  (1157) 
0.95109826122685304

>  <r_i_glide_esite>  (1157) 
-0.097528742741846502

>  <r_i_glide_evdw>  (1157) 
-37.9295463562012

>  <r_i_glide_gscore>  (1157) 
-4.4140567085858002

>  <r_i_glide_hbond>  (1157) 
-0.20000000000000001

>  <r_i_glide_ligand_efficiency>  (1157) 
-0.101915464127383

>  <r_i_glide_ligand_efficiency_ln>  (1157) 
-0.80046723005831599

>  <r_i_glide_ligand_efficiency_sa>  (1157) 
-0.33651744768397701

>  <r_i_glide_lipo>  (1157) 
-1.7711081611231401

>  <r_i_glide_metal>  (1157) 
-0

>  <r_i_glide_rewards>  (1157) 
-0.28818228485025399

>  <r_lp_Energy>  (1157) 
23.452141000000001

>  <r_lp_tautomer_probability>  (1157) 
1

>  <r_qp_ACxDN^.5/SA>  (1157) 
0

>  <r_qp_CIQPlogS>  (1157) 
-4.8230000000000004

>  <r_qp_EA(eV)>  (1157) 
0.67800000000000005

>  <r_qp_FISA>  (1157) 
33.658000000000001

>  <r_qp_FOSA>  (1157) 
386.666

>  <r_qp_IP(eV)>  (1157) 
8.8300000000000001

>  <r_qp_Jm>  (1157) 
0.312257398985687

>  <r_qp_PISA>  (1157) 
344.98099999999999

>  <r_qp_PSA>  (1157) 
42.249000000000002

>  <r_qp_PercentHumanOralAbsorption>  (1157) 
100

>  <r_qp_QPPCaco>  (1157) 
295.47800000000001

>  <r_qp_QPPMDCK>  (1157) 
162.11000000000001

>  <r_qp_QPlogBB>  (1157) 
0.39000000000000001

>  <r_qp_QPlogHERG>  (1157) 
-6.992

>  <r_qp_QPlogKhsa>  (1157) 
0.51800000000000002

>  <r_qp_QPlogKp>  (1157) 
-3.9940000000000002

>  <r_qp_QPlogPC16>  (1157) 
15.242000000000001

>  <r_qp_QPlogPo/w>  (1157) 
4.6689999999999996

>  <r_qp_QPlogPoct>  (1157) 
22.099

>  <r_qp_QPlogPw>  (1157) 
9.7870000000000008

>  <r_qp_QPlogS>  (1157) 
-2.1960000000000002

>  <r_qp_QPpolrz>  (1157) 
52.953000000000003

>  <r_qp_SASA>  (1157) 
765.30399999999997

>  <r_qp_SAamideO>  (1157) 
0

>  <r_qp_SAfluorine>  (1157) 
0

>  <r_qp_WPSA>  (1157) 
0

>  <r_qp_accptHB>  (1157) 
8.1999999999999993

>  <r_qp_dip^2/V>  (1157) 
0.014285600000000001

>  <r_qp_dipole>  (1157) 
4.7380000000000004

>  <r_qp_donorHB>  (1157) 
0

>  <r_qp_glob>  (1157) 
0.8540181

>  <r_qp_mol_MW>  (1157) 
483.65499999999997

>  <r_qp_volume>  (1157) 
1571.0999999999999

>  <r_sd_BIOSOLVEIT.INFINISEE\_FTREES\_SIMILARITY>  (1157) 
0.90100000000000002

>  <r_sd_BIOSOLVEIT.LOGP>  (1157) 
2.5905

>  <r_sd_BIOSOLVEIT.MOLECULAR\_WEIGHT>  (1157) 
485.67200000000003

>  <r_sd_BIOSOLVEIT.TPSA>  (1157) 
48.82

>  <i_epik_Tot_Q>  (1157) 
1

>  <i_epik_Tot_abs_Q>  (1157) 
1

>  <i_f3d_flags>  (1157) 
0

>  <i_i_glide_confnum>  (1157) 
16

>  <i_i_glide_lignum>  (1157) 
749

>  <i_i_glide_posenum>  (1157) 
3

>  <i_i_glide_rotatable_bonds>  (1157) 
13

>  <i_lp_mmshare_version>  (1157) 
65135

>  <i_m_ct_format>  (1157) 
2

>  <i_m_source_file_index>  (1157) 
2097

>  <i_qp_#NandO>  (1157) 
6

>  <i_qp_#acid>  (1157) 
0

>  <i_qp_#amide>  (1157) 
0

>  <i_qp_#amidine>  (1157) 
0

>  <i_qp_#amine>  (1157) 
2

>  <i_qp_#in34>  (1157) 
0

>  <i_qp_#in56>  (1157) 
23

>  <i_qp_#metab>  (1157) 
8

>  <i_qp_#nonHatm>  (1157) 
36

>  <i_qp_#noncon>  (1157) 
0

>  <i_qp_#ringatoms>  (1157) 
23

>  <i_qp_#rotor>  (1157) 
11

>  <i_qp_#rtvFG>  (1157) 
0

>  <i_qp_#stars>  (1157) 
0

>  <i_qp_CNS>  (1157) 
1

>  <i_qp_HumanOralAbsorption>  (1157) 
3

>  <i_qp_RuleOfFive>  (1157) 
0

>  <i_qp_RuleOfThree>  (1157) 
1

>  <i_sd_BIOSOLVEIT.INFINISEE\_REAGENT1\_NAME>  (1157) 
18336990

>  <i_sd_BIOSOLVEIT.INFINISEE\_REAGENT2\_NAME>  (1157) 
7547806

>  <i_sd_BIOSOLVEIT.INFINISEE\_RESULT\_RANK>  (1157) 
97110

>  <i_sd_version>  (1157) 
0

>  <b_lp_Chiralities_Consistent>  (1157) 
1

>  <b_sd_chiral_flag>  (1157) 
0

>  <canonical_id>  (1157) 
ATP-HTVS-B8459B836830

>  <compound_code>  (1157) 
67074

>  <title>  (1157) 
m_270004bca____18336990____7547806

>  <variant>  (1157) 
67074-6

>  <source_file>  (1157) 
运行/运行/ATP-VSW/ATP-VSW-DOCK_HTVS_1-002_lib.maegz

>  <canonical_smiles>  (1157) 
CCOCC[N@@H+](CC)Cc1ccc(CN(C)Cc2cn(-c3ccccc3)nc2-c2ccncc2)cc1

>  <scaffold>  (1157) 
c1ccc(CNCc2cn(-c3ccccc3)nc2-c2ccncc2)cc1

>  <molecular_formula>  (1157) 
C30H38N5O+

$$$$
ATP-HTVS-B847417F307C
     RDKit          3D

 48 51  0  0  0  0  0  0  0  0999 V2000
  195.8225  186.8591  160.7047 F   0  0  0  0  0  0  0  0  0  0  0  0
  195.9413  185.6692  160.0682 C   0  0  0  0  0  0  0  0  0  0  0  0
  194.7901  184.9295  159.7400 C   0  0  0  0  0  0  0  0  0  0  0  0
  194.9125  183.6921  159.0825 C   0  0  0  0  0  0  0  0  0  0  0  0
  196.1911  183.1859  158.7589 C   0  0  0  0  0  0  0  0  0  0  0  0
  197.3422  183.9222  159.1044 C   0  0  0  0  0  0  0  0  0  0  0  0
  197.2148  185.1719  159.7370 C   0  0  0  0  0  0  0  0  0  0  0  0
  196.3256  181.8568  158.0347 C   0  0  1  0  0  0  0  0  0  0  0  0
  196.8380  181.9988  156.5948 C   0  0  0  0  0  0  0  0  0  0  0  0
  197.1237  183.0989  156.1161 O   0  0  0  0  0  0  0  0  0  0  0  0
  196.9774  180.8516  155.9152 N   0  0  0  0  0  0  0  0  0  0  0  0
  197.1860  180.7353  154.5140 C   0  0  0  0  0  0  0  0  0  0  0  0
  198.0844  179.7807  153.9805 C   0  0  0  0  0  0  0  0  0  0  0  0
  198.8907  178.9573  154.8915 C   0  0  0  0  0  0  0  0  0  0  0  0
  199.5769  178.2670  155.6333 C   0  0  0  0  0  0  0  0  0  0  0  0
  200.4681  177.3690  156.4048 C   0  0  0  0  0  0  0  0  0  0  0  0
  200.6805  177.5979  157.5977 O   0  0  0  0  0  0  0  0  0  0  0  0
  201.0873  176.2281  155.6529 C   0  0  0  0  0  0  0  0  0  0  0  0
  202.0521  175.4135  156.2999 C   0  0  0  0  0  0  0  0  0  0  0  0
  202.6550  174.3305  155.6210 C   0  0  0  0  0  0  0  0  0  0  0  0
  202.3037  174.0464  154.2893 C   0  0  0  0  0  0  0  0  0  0  0  0
  201.3518  174.8448  153.6349 C   0  0  0  0  0  0  0  0  0  0  0  0
  200.7473  175.9173  154.3108 C   0  0  0  0  0  0  0  0  0  0  0  0
  198.1782  179.6775  152.5597 C   0  0  0  0  0  0  0  0  0  0  0  0
  197.3482  180.5099  151.7513 C   0  0  0  0  0  0  0  0  0  0  0  0
  196.4929  181.4051  152.2831 N   0  0  0  0  0  0  0  0  0  0  0  0
  196.4265  181.5216  153.6229 C   0  0  0  0  0  0  0  0  0  0  0  0
  197.4270  180.4094  150.3461 C   0  0  0  0  0  0  0  0  0  0  0  0
  198.3199  179.5157  149.7264 C   0  0  0  0  0  0  0  0  0  0  0  0
  199.1378  178.6936  150.5185 C   0  0  0  0  0  0  0  0  0  0  0  0
  199.0677  178.7759  151.9220 C   0  0  0  0  0  0  0  0  0  0  0  0
  193.8122  185.3211  159.9797 H   0  0  0  0  0  0  0  0  0  0  0  0
  194.0222  183.1376  158.8164 H   0  0  0  0  0  0  0  0  0  0  0  0
  198.3205  183.5386  158.8557 H   0  0  0  0  0  0  0  0  0  0  0  0
  198.1000  185.7407  159.9848 H   0  0  0  0  0  0  0  0  0  0  0  0
  196.9730  181.1894  158.6074 H   0  0  0  0  0  0  0  0  0  0  0  0
  195.3396  181.3997  158.0016 H   0  0  0  0  0  0  0  0  0  0  0  0
  196.8726  179.9915  156.4527 H   0  0  0  0  0  0  0  0  0  0  0  0
  202.3333  175.6174  157.3241 H   0  0  0  0  0  0  0  0  0  0  0  0
  203.3817  173.7129  156.1257 H   0  0  0  0  0  0  0  0  0  0  0  0
  202.7580  173.2075  153.7709 H   0  0  0  0  0  0  0  0  0  0  0  0
  201.0721  174.6339  152.6171 H   0  0  0  0  0  0  0  0  0  0  0  0
  200.0034  176.4783  153.7663 H   0  0  0  0  0  0  0  0  0  0  0  0
  195.7043  182.2314  153.9982 H   0  0  0  0  0  0  0  0  0  0  0  0
  196.8128  181.0512  149.7298 H   0  0  0  0  0  0  0  0  0  0  0  0
  198.3842  179.4602  148.6466 H   0  0  0  0  0  0  0  0  0  0  0  0
  199.8326  178.0101  150.0533 H   0  0  0  0  0  0  0  0  0  0  0  0
  199.7289  178.1480  152.4926 H   0  0  0  0  0  0  0  0  0  0  0  0
  1  2  1  0
  2  3  1  0
  2  7  2  0
  3  4  2  0
  3 32  1  0
  4  5  1  0
  4 33  1  0
  5  6  2  0
  5  8  1  0
  6  7  1  0
  6 34  1  0
  7 35  1  0
  8  9  1  0
  8 36  1  1
  8 37  1  0
  9 10  2  0
  9 11  1  0
 11 12  1  0
 11 38  1  0
 12 13  2  0
 12 27  1  0
 13 14  1  0
 13 24  1  0
 14 15  3  0
 15 16  1  0
 16 17  2  0
 16 18  1  0
 18 19  2  0
 18 23  1  0
 19 20  1  0
 19 39  1  0
 20 21  2  0
 20 40  1  0
 21 22  1  0
 21 41  1  0
 22 23  2  0
 22 42  1  0
 23 43  1  0
 24 25  1  0
 24 31  2  0
 25 26  1  0
 25 28  2  0
 26 27  2  0
 27 44  1  0
 28 29  1  0
 28 45  1  0
 29 30  2  0
 29 46  1  0
 30 31  1  0
 30 47  1  0
 31 48  1  0
M  END
>  <s_epik_cmdline>  (1158) 
J2VwaWtfcHl0aG9uJywgJy1waCcsICc3LjAwMDAwMCcsICctcGh0JywgJzIuMDAwMDAwJywgJy1tcycsICcxNicsICctdG4nLCAnOCcsICctbWEnLCAnMjAwJywgJy1pbWFlJywgJzxpbmZpbGUubWFlPicsICctb21hZScsICc8b3V0ZmlsZS5tYWU+Jw==

>  <s_epik_input>  (1158) 
RmMxW2NIXVtjSF1jKFtjSF1bY0hdMSlbQ0gyXUMoPU8pW05IXWMoW2NIXW5jKGMyMylbY0hdW2NIXVtjSF1bY0hdMyljMkMjQ0MoPU8pYzRbY0hdW2NIXVtjSF1bY0hdW2NIXTQ=

>  <s_i_glide_gridfile>  (1158) 
ATP-Grid

>  <s_lp_Force_Field>  (1158) 
OPLS_2005

>  <s_lp_Variant>  (1158) 
rxn503b____EMOL512495____EMOL30488121____EMOL979173-1

>  <s_lp_label>  (1158) 
2681_sdstereoexpander_1_neutralizer_1_epik_1_stereoizer_1

>  <s_m_source_file>  (1158) 
ATP-VSW-LIGPREP-001-in.maegz

>  <s_sd_BIOSOLVEIT.INFINISEE\_QUERY\_NAME>  (1158) 
Ref-Lig

>  <s_sd_BIOSOLVEIT.INFINISEE\_QUERY\_SMILES>  (1158) 
S(c1nc2c(cc1C[NH2+]Cc3ccc(cc3)C[NH+](C)C)cccc2)Cc4ccccc4

>  <s_sd_BIOSOLVEIT.INFINISEE\_REACTION\_NAME>  (1158) 
rxn503b

>  <s_sd_BIOSOLVEIT.INFINISEE\_REAGENT1\_NAME>  (1158) 
EMOL512495

>  <s_sd_BIOSOLVEIT.INFINISEE\_REAGENT1\_SMILES>  (1158) 
Fc1ccc(cc1)CC(=O)O

>  <s_sd_BIOSOLVEIT.INFINISEE\_REAGENT2\_NAME>  (1158) 
EMOL30488121

>  <s_sd_BIOSOLVEIT.INFINISEE\_REAGENT2\_SMILES>  (1158) 
Brc1c(N)cnc2c1cccc2

>  <s_sd_BIOSOLVEIT.INFINISEE\_REAGENT3\_NAME>  (1158) 
EMOL979173

>  <s_sd_BIOSOLVEIT.INFINISEE\_REAGENT3\_SMILES>  (1158) 
O=C(C#C)c1ccccc1

>  <s_sd_BIOSOLVEIT.INFINISEE\_SPACE>  (1158) 
eXplore_7tr_2022-12

>  <s_vsw_compound_code>  (1158) 
85761

>  <s_vsw_variant>  (1158) 
85761-1

>  <r_epik_Charging_Adjusted_Penalty>  (1158) 
0

>  <r_epik_Ionization_Penalty>  (1158) 
0

>  <r_epik_Ionization_Penalty_Charging>  (1158) 
0

>  <r_epik_Ionization_Penalty_Neutral>  (1158) 
0

>  <r_epik_State_Penalty>  (1158) 
-0

>  <r_i_docking_score>  (1158) 
-5.4575291712439702

>  <r_i_glide_ecoul>  (1158) 
-4.3253846168518102

>  <r_i_glide_eff_state_penalty>  (1158) 
-0

>  <r_i_glide_einternal>  (1158) 
8.0821046829223597

>  <r_i_glide_emodel>  (1158) 
-58.385609625529902

>  <r_i_glide_energy>  (1158) 
-45.612112522125202

>  <r_i_glide_erotb>  (1158) 
0.58992826836414203

>  <r_i_glide_esite>  (1158) 
-0.18208144986725

>  <r_i_glide_evdw>  (1158) 
-41.286727905273402

>  <r_i_glide_gscore>  (1158) 
-5.4575291712439702

>  <r_i_glide_hbond>  (1158) 
-0.13620890649818601

>  <r_i_glide_ligand_efficiency>  (1158) 
-0.17604932810464399

>  <r_i_glide_ligand_efficiency_ln>  (1158) 
-1.2308400812982701

>  <r_i_glide_ligand_efficiency_sa>  (1158) 
-0.55303795254139199

>  <r_i_glide_lipo>  (1158) 
-2.0379896158653099

>  <r_i_glide_metal>  (1158) 
-0

>  <r_i_glide_rewards>  (1158) 
-0.97803337958592196

>  <r_lp_Energy>  (1158) 
26.479434000000001

>  <r_lp_tautomer_probability>  (1158) 
1

>  <r_qp_ACxDN^.5/SA>  (1158) 
0.0086207999999999996

>  <r_qp_CIQPlogS>  (1158) 
-6.6390000000000002

>  <r_qp_EA(eV)>  (1158) 
1.405

>  <r_qp_FISA>  (1158) 
105.517

>  <r_qp_FOSA>  (1158) 
42.893999999999998

>  <r_qp_IP(eV)>  (1158) 
8.8900000000000006

>  <r_qp_Jm>  (1158) 
0.23031900940337499

>  <r_qp_PISA>  (1158) 
467.41500000000002

>  <r_qp_PSA>  (1158) 
75.352000000000004

>  <r_qp_PercentHumanOralAbsorption>  (1158) 
100

>  <r_qp_QPPCaco>  (1158) 
989.202

>  <r_qp_QPPMDCK>  (1158) 
646.63800000000003

>  <r_qp_QPlogBB>  (1158) 
-0.69099999999999995

>  <r_qp_QPlogHERG>  (1158) 
-6

>  <r_qp_QPlogKhsa>  (1158) 
0.59899999999999998

>  <r_qp_QPlogKp>  (1158) 
-1.242

>  <r_qp_QPlogPC16>  (1158) 
13.614000000000001

>  <r_qp_QPlogPo/w>  (1158) 
4.5069999999999997

>  <r_qp_QPlogPoct>  (1158) 
19.219000000000001

>  <r_qp_QPlogPw>  (1158) 
10.718

>  <r_qp_QPlogS>  (1158) 
-5.0069999999999997

>  <r_qp_QPpolrz>  (1158) 
42.956000000000003

>  <r_qp_SASA>  (1158) 
637.98900000000003

>  <r_qp_SAamideO>  (1158) 
0

>  <r_qp_SAfluorine>  (1158) 
22.163

>  <r_qp_WPSA>  (1158) 
22.163

>  <r_qp_accptHB>  (1158) 
5.5

>  <r_qp_dip^2/V>  (1158) 
0.0094941999999999995

>  <r_qp_dipole>  (1158) 
3.3919999999999999

>  <r_qp_donorHB>  (1158) 
1

>  <r_qp_glob>  (1158) 
0.86162510000000003

>  <r_qp_mol_MW>  (1158) 
408.43099999999998

>  <r_qp_volume>  (1158) 
1211.8530000000001

>  <r_sd_BIOSOLVEIT.INFINISEE\_FTREES\_SIMILARITY>  (1158) 
0.90900000000000003

>  <r_sd_BIOSOLVEIT.LOGP>  (1158) 
4.7895000000000003

>  <r_sd_BIOSOLVEIT.MOLECULAR\_WEIGHT>  (1158) 
408.43000000000001

>  <r_sd_BIOSOLVEIT.TPSA>  (1158) 
59.060000000000002

>  <i_epik_Tot_Q>  (1158) 
0

>  <i_epik_Tot_abs_Q>  (1158) 
0

>  <i_f3d_flags>  (1158) 
0

>  <i_i_glide_confnum>  (1158) 
6

>  <i_i_glide_lignum>  (1158) 
1184

>  <i_i_glide_posenum>  (1158) 
12

>  <i_i_glide_rotatable_bonds>  (1158) 
7

>  <i_lp_mmshare_version>  (1158) 
65135

>  <i_m_ct_format>  (1158) 
2

>  <i_m_source_file_index>  (1158) 
2681

>  <i_qp_#NandO>  (1158) 
4

>  <i_qp_#acid>  (1158) 
0

>  <i_qp_#amide>  (1158) 
0

>  <i_qp_#amidine>  (1158) 
0

>  <i_qp_#amine>  (1158) 
0

>  <i_qp_#in34>  (1158) 
0

>  <i_qp_#in56>  (1158) 
22

>  <i_qp_#metab>  (1158) 
2

>  <i_qp_#nonHatm>  (1158) 
31

>  <i_qp_#noncon>  (1158) 
0

>  <i_qp_#ringatoms>  (1158) 
22

>  <i_qp_#rotor>  (1158) 
6

>  <i_qp_#rtvFG>  (1158) 
0

>  <i_qp_#stars>  (1158) 
1

>  <i_qp_CNS>  (1158) 
0

>  <i_qp_HumanOralAbsorption>  (1158) 
3

>  <i_qp_RuleOfFive>  (1158) 
0

>  <i_qp_RuleOfThree>  (1158) 
0

>  <i_sd_BIOSOLVEIT.INFINISEE\_RESULT\_RANK>  (1158) 
50278

>  <i_sd_version>  (1158) 
0

>  <b_lp_Chiralities_Consistent>  (1158) 
1

>  <b_sd_chiral_flag>  (1158) 
0

>  <canonical_id>  (1158) 
ATP-HTVS-B847417F307C

>  <compound_code>  (1158) 
85761

>  <title>  (1158) 
rxn503b____EMOL512495____EMOL30488121____EMOL979173

>  <variant>  (1158) 
85761-1

>  <source_file>  (1158) 
运行/运行/ATP-VSW/ATP-VSW-DOCK_HTVS_1-001_lib/ATP-VSW-DOCK_HTVS_1-001_lib

>  <canonical_smiles>  (1158) 
O=C(Cc1ccc(F)cc1)Nc1cnc2ccccc2c1C#CC(=O)c1ccccc1

>  <scaffold>  (1158) 
O=C(Cc1ccccc1)Nc1cnc2ccccc2c1C#CC(=O)c1ccccc1

>  <molecular_formula>  (1158) 
C26H17FN2O2

$$$$
ATP-HTVS-B860A68943EF
     RDKit          3D

 54 57  0  0  0  0  0  0  0  0999 V2000
  204.2731  178.7684  153.2604 O   0  0  0  0  0  0  0  0  0  0  0  0
  203.1074  178.3989  153.1590 C   0  0  0  0  0  0  0  0  0  0  0  0
  202.6706  178.0204  151.9375 N   0  0  0  0  0  0  0  0  0  0  0  0
  201.4781  177.4226  151.4313 C   0  0  0  0  0  0  0  0  0  0  0  0
  200.4698  176.7705  152.2002 C   0  0  0  0  0  0  0  0  0  0  0  0
  199.3739  176.1560  151.5409 C   0  0  0  0  0  0  0  0  0  0  0  0
  199.2707  176.1673  150.1373 C   0  0  0  0  0  0  0  0  0  0  0  0
  200.2791  176.7802  149.3753 C   0  0  0  0  0  0  0  0  0  0  0  0
  201.3676  177.3979  150.0216 C   0  0  0  0  0  0  0  0  0  0  0  0
  200.5618  176.6732  153.7098 C   0  0  2  0  0  0  0  0  0  0  0  0
  200.8726  177.9562  154.3171 N   0  0  0  0  0  0  0  0  0  0  0  0
  199.8380  178.9138  154.5138 C   0  0  0  0  0  0  0  0  0  0  0  0
  199.9293  179.7840  155.6167 C   0  0  0  0  0  0  0  0  0  0  0  0
  198.9472  180.7653  155.8509 C   0  0  0  0  0  0  0  0  0  0  0  0
  197.8027  180.8243  155.0301 C   0  0  0  0  0  0  0  0  0  0  0  0
  197.6991  179.9615  153.9200 C   0  0  0  0  0  0  0  0  0  0  0  0
  198.7244  179.0234  153.6450 C   0  0  0  0  0  0  0  0  0  0  0  0
  196.6847  181.8260  155.3333 C   0  0  1  0  0  0  0  0  0  0  0  0
  195.9417  181.4776  156.5679 N   0  0  1  0  0  0  0  0  0  0  0  0
  196.5232  181.8486  157.8825 C   0  0  2  0  0  0  0  0  0  0  0  0
  197.1886  183.2754  155.2879 C   0  0  2  0  0  0  0  0  0  0  0  0
  202.2649  178.3877  154.4601 C   0  0  1  0  0  0  0  0  0  0  0  0
  201.5322  175.5713  154.1459 C   0  0  0  0  0  0  0  0  0  0  0  0
  202.3098  174.8356  153.2119 C   0  0  0  0  0  0  0  0  0  0  0  0
  203.2940  173.9285  153.6453 C   0  0  0  0  0  0  0  0  0  0  0  0
  203.4957  173.7132  155.0188 C   0  0  0  0  0  0  0  0  0  0  0  0
  202.7181  174.4123  155.9602 C   0  0  0  0  0  0  0  0  0  0  0  0
  201.7325  175.3259  155.5247 C   0  0  0  0  0  0  0  0  0  0  0  0
  195.0275  181.9122  156.4575 H   0  0  0  0  0  0  0  0  0  0  0  0
  203.3858  178.1237  151.2437 H   0  0  0  0  0  0  0  0  0  0  0  0
  198.6172  175.6420  152.1105 H   0  0  0  0  0  0  0  0  0  0  0  0
  198.4436  175.6669  149.6495 H   0  0  0  0  0  0  0  0  0  0  0  0
  200.2342  176.7460  148.2962 H   0  0  0  0  0  0  0  0  0  0  0  0
  202.1621  177.8142  149.4145 H   0  0  0  0  0  0  0  0  0  0  0  0
  199.5698  176.3831  154.0873 H   0  0  0  0  0  0  0  0  0  0  0  0
  200.7427  179.7041  156.3162 H   0  0  0  0  0  0  0  0  0  0  0  0
  199.0809  181.4296  156.6916 H   0  0  0  0  0  0  0  0  0  0  0  0
  196.8489  180.0104  153.2536 H   0  0  0  0  0  0  0  0  0  0  0  0
  198.5976  178.4238  152.7606 H   0  0  0  0  0  0  0  0  0  0  0  0
  195.9599  181.7364  154.5200 H   0  0  0  0  0  0  0  0  0  0  0  0
  195.8102  181.5951  158.6834 H   0  0  0  0  0  0  0  0  0  0  0  0
  196.7199  182.9290  157.9551 H   0  0  0  0  0  0  0  0  0  0  0  0
  197.4456  181.2995  158.0534 H   0  0  0  0  0  0  0  0  0  0  0  0
  197.6861  183.5070  154.3386 H   0  0  0  0  0  0  0  0  0  0  0  0
  197.9162  183.4853  156.0801 H   0  0  0  0  0  0  0  0  0  0  0  0
  196.3619  183.9778  155.3963 H   0  0  0  0  0  0  0  0  0  0  0  0
  202.7900  177.7217  155.1622 H   0  0  0  0  0  0  0  0  0  0  0  0
  202.3631  179.3771  154.8998 H   0  0  0  0  0  0  0  0  0  0  0  0
  202.2361  174.9990  152.1413 H   0  0  0  0  0  0  0  0  0  0  0  0
  203.9143  173.4443  152.9081 H   0  0  0  0  0  0  0  0  0  0  0  0
  204.2645  173.0202  155.3427 H   0  0  0  0  0  0  0  0  0  0  0  0
  202.9062  174.2917  157.0158 H   0  0  0  0  0  0  0  0  0  0  0  0
  201.1575  175.8816  156.2575 H   0  0  0  0  0  0  0  0  0  0  0  0
  195.7887  180.4625  156.6349 H   0  0  0  0  0  0  0  0  0  0  0  0
  1  2  2  0
  2  3  1  0
  2 22  1  0
  3  4  1  0
  3 30  1  0
  4  5  1  0
  4  9  2  0
  5  6  2  0
  5 10  1  0
  6  7  1  0
  6 31  1  0
  7  8  2  0
  7 32  1  0
  8  9  1  0
  8 33  1  0
  9 34  1  0
 10 11  1  0
 10 23  1  0
 10 35  1  1
 11 12  1  0
 11 22  1  0
 12 13  1  0
 12 17  2  0
 13 14  2  0
 13 36  1  0
 14 15  1  0
 14 37  1  0
 15 16  2  0
 15 18  1  0
 16 17  1  0
 16 38  1  0
 17 39  1  0
 18 19  1  0
 18 21  1  0
 18 40  1  6
 19 20  1  0
 19 29  1  6
 19 54  1  0
 20 41  1  1
 20 42  1  0
 20 43  1  0
 21 44  1  6
 21 45  1  0
 21 46  1  0
 22 47  1  1
 22 48  1  0
 23 24  2  0
 23 28  1  0
 24 25  1  0
 24 49  1  0
 25 26  2  0
 25 50  1  0
 26 27  1  0
 26 51  1  0
 27 28  2  0
 27 52  1  0
 28 53  1  0
M  CHG  1  19   1
M  END
>  <s_epik_cmdline>  (1159) 
J2VwaWtfcHl0aG9uJywgJy1waCcsICc3LjAwMDAwMCcsICctcGh0JywgJzIuMDAwMDAwJywgJy1tcycsICcxNicsICctdG4nLCAnOCcsICctbWEnLCAnMjAwJywgJy1pbWFlJywgJzxpbmZpbGUubWFlPicsICctb21hZScsICc8b3V0ZmlsZS5tYWU+Jw==

>  <s_epik_input>  (1159) 
W2NIXTFbY0hdW2NIXVtjSF1bY0hdYzFbQ0BIXShjKGMyMylbY0hdW2NIXVtjSF1bY0hdMylOKFtDSDJdQyg9TylbTkhdMiljNFtjSF1bY0hdYyhbY0hdW2NIXTQpW0NASF0oW0NIM10pW05IXVtDSDNd

>  <s_i_glide_gridfile>  (1159) 
ATP-Grid

>  <s_lp_Force_Field>  (1159) 
OPLS_2005

>  <s_lp_Variant>  (1159) 
rxn102c____EMOL109726771____EMOL6185419-3

>  <s_lp_label>  (1159) 
2622_sdstereoexpander_3_neutralizer_1_epik_1_stereoizer_1

>  <s_m_source_file>  (1159) 
ATP-VSW-LIGPREP-002-in.maegz

>  <s_sd_BIOSOLVEIT.INFINISEE\_QUERY\_NAME>  (1159) 
Ref-Lig

>  <s_sd_BIOSOLVEIT.INFINISEE\_QUERY\_SMILES>  (1159) 
S(c1nc2c(cc1C[NH2+]Cc3ccc(cc3)C[NH+](C)C)cccc2)Cc4ccccc4

>  <s_sd_BIOSOLVEIT.INFINISEE\_REACTION\_NAME>  (1159) 
rxn102c

>  <s_sd_BIOSOLVEIT.INFINISEE\_REAGENT1\_NAME>  (1159) 
EMOL109726771

>  <s_sd_BIOSOLVEIT.INFINISEE\_REAGENT1\_SMILES>  (1159) 
Clc1ccc(cc1)C(NC)C

>  <s_sd_BIOSOLVEIT.INFINISEE\_REAGENT2\_NAME>  (1159) 
EMOL6185419

>  <s_sd_BIOSOLVEIT.INFINISEE\_REAGENT2\_SMILES>  (1159) 
O=C1Nc2c(cccc2)C(NC1)c3ccccc3

>  <s_sd_BIOSOLVEIT.INFINISEE\_SPACE>  (1159) 
eXplore_7tr_2022-12

>  <s_vsw_compound_code>  (1159) 
83874

>  <s_vsw_variant>  (1159) 
83874-3

>  <r_epik_Charging_Adjusted_Penalty>  (1159) 
0.035712003608012098

>  <r_epik_Ionization_Penalty>  (1159) 
0.017899999999999999

>  <r_epik_Ionization_Penalty_Charging>  (1159) 
0.017899999999999999

>  <r_epik_Ionization_Penalty_Neutral>  (1159) 
0

>  <r_epik_State_Penalty>  (1159) 
0.017899999999999999

>  <r_i_docking_score>  (1159) 
-3.53485465298697

>  <r_i_glide_ecoul>  (1159) 
-9.8662405014038104

>  <r_i_glide_eff_state_penalty>  (1159) 
0.017899999999999999

>  <r_i_glide_einternal>  (1159) 
2.2020351886749299

>  <r_i_glide_emodel>  (1159) 
-45.571702248716697

>  <r_i_glide_energy>  (1159) 
-34.4531412124634

>  <r_i_glide_erotb>  (1159) 
0.41763341320905001

>  <r_i_glide_esite>  (1159) 
-0.097888483575876498

>  <r_i_glide_evdw>  (1159) 
-24.586900711059599

>  <r_i_glide_gscore>  (1159) 
-3.55275465298697

>  <r_i_glide_hbond>  (1159) 
-0.37472486983855002

>  <r_i_glide_ligand_efficiency>  (1159) 
-0.12624480903524901

>  <r_i_glide_ligand_efficiency_ln>  (1159) 
-0.81594824175186897

>  <r_i_glide_ligand_efficiency_sa>  (1159) 
-0.38335359444718198

>  <r_i_glide_lipo>  (1159) 
-1.02290997852334

>  <r_i_glide_metal>  (1159) 
-0

>  <r_i_glide_rewards>  (1159) 
0.23441637650529201

>  <r_lp_Energy>  (1159) 
53.838413000000003

>  <r_qp_ACxDN^.5/SA>  (1159) 
0.010567500000000001

>  <r_qp_CIQPlogS>  (1159) 
-4.5990000000000002

>  <r_qp_EA(eV)>  (1159) 
0.13700000000000001

>  <r_qp_FISA>  (1159) 
85.653000000000006

>  <r_qp_FOSA>  (1159) 
199.03700000000001

>  <r_qp_IP(eV)>  (1159) 
9.1829999999999998

>  <r_qp_Jm>  (1159) 
0.00092947098518447702

>  <r_qp_PISA>  (1159) 
384.44299999999998

>  <r_qp_PSA>  (1159) 
56.341000000000001

>  <r_qp_PercentHumanOralAbsorption>  (1159) 
96.981999999999999

>  <r_qp_QPPCaco>  (1159) 
380.67000000000002

>  <r_qp_QPPMDCK>  (1159) 
192.68700000000001

>  <r_qp_QPlogBB>  (1159) 
0.01

>  <r_qp_QPlogHERG>  (1159) 
-6.859

>  <r_qp_QPlogKhsa>  (1159) 
0.84999999999999998

>  <r_qp_QPlogKp>  (1159) 
-3.6139999999999999

>  <r_qp_QPlogPC16>  (1159) 
13.395

>  <r_qp_QPlogPo/w>  (1159) 
4.0730000000000004

>  <r_qp_QPlogPoct>  (1159) 
21.204000000000001

>  <r_qp_QPlogPw>  (1159) 
11.94

>  <r_qp_QPlogS>  (1159) 
-4.9870000000000001

>  <r_qp_QPpolrz>  (1159) 
45.392000000000003

>  <r_qp_SASA>  (1159) 
669.13300000000004

>  <r_qp_SAamideO>  (1159) 
0

>  <r_qp_SAfluorine>  (1159) 
0

>  <r_qp_WPSA>  (1159) 
0

>  <r_qp_accptHB>  (1159) 
5

>  <r_qp_dip^2/V>  (1159) 
0.029622200000000001

>  <r_qp_dipole>  (1159) 
6.032

>  <r_qp_donorHB>  (1159) 
2

>  <r_qp_glob>  (1159) 
0.82895830000000004

>  <r_qp_mol_MW>  (1159) 
371.48099999999999

>  <r_qp_volume>  (1159) 
1228.345

>  <r_sd_BIOSOLVEIT.INFINISEE\_FTREES\_SIMILARITY>  (1159) 
0.91100000000000003

>  <r_sd_BIOSOLVEIT.LOGP>  (1159) 
3.4889000000000001

>  <r_sd_BIOSOLVEIT.MOLECULAR\_WEIGHT>  (1159) 
372.48899999999998

>  <r_sd_BIOSOLVEIT.TPSA>  (1159) 
48.950000000000003

>  <i_epik_Tot_Q>  (1159) 
1

>  <i_epik_Tot_abs_Q>  (1159) 
1

>  <i_f3d_flags>  (1159) 
0

>  <i_i_glide_confnum>  (1159) 
5

>  <i_i_glide_lignum>  (1159) 
1213

>  <i_i_glide_posenum>  (1159) 
8

>  <i_i_glide_rotatable_bonds>  (1159) 
4

>  <i_lp_mmshare_version>  (1159) 
65135

>  <i_m_ct_format>  (1159) 
2

>  <i_m_source_file_index>  (1159) 
2622

>  <i_qp_#NandO>  (1159) 
4

>  <i_qp_#acid>  (1159) 
0

>  <i_qp_#amide>  (1159) 
0

>  <i_qp_#amidine>  (1159) 
0

>  <i_qp_#amine>  (1159) 
1

>  <i_qp_#in34>  (1159) 
0

>  <i_qp_#in56>  (1159) 
18

>  <i_qp_#metab>  (1159) 
7

>  <i_qp_#nonHatm>  (1159) 
28

>  <i_qp_#noncon>  (1159) 
2

>  <i_qp_#ringatoms>  (1159) 
23

>  <i_qp_#rotor>  (1159) 
2

>  <i_qp_#rtvFG>  (1159) 
0

>  <i_qp_#stars>  (1159) 
0

>  <i_qp_CNS>  (1159) 
1

>  <i_qp_HumanOralAbsorption>  (1159) 
3

>  <i_qp_RuleOfFive>  (1159) 
0

>  <i_qp_RuleOfThree>  (1159) 
1

>  <i_sd_BIOSOLVEIT.INFINISEE\_RESULT\_RANK>  (1159) 
43652

>  <i_sd_version>  (1159) 
0

>  <b_lp_Chiralities_Consistent>  (1159) 
1

>  <b_sd_chiral_flag>  (1159) 
0

>  <canonical_id>  (1159) 
ATP-HTVS-B860A68943EF

>  <compound_code>  (1159) 
83874

>  <title>  (1159) 
rxn102c____EMOL109726771____EMOL6185419

>  <variant>  (1159) 
83874-3

>  <source_file>  (1159) 
运行/运行/ATP-VSW/ATP-VSW-DOCK_HTVS_1-002_lib.maegz

>  <canonical_smiles>  (1159) 
C[NH2+][C@@H](C)c1ccc(N2CC(=O)Nc3ccccc3[C@H]2c2ccccc2)cc1

>  <scaffold>  (1159) 
O=C1CN(c2ccccc2)C(c2ccccc2)c2ccccc2N1

>  <molecular_formula>  (1159) 
C24H26N3O+

$$$$
ATP-HTVS-B88C39A42AA7
     RDKit          3D

 55 58  0  0  0  0  0  0  0  0999 V2000
  200.9982  177.9266  157.1182 O   0  0  0  0  0  0  0  0  0  0  0  0
  200.6690  177.5535  155.9904 C   0  0  0  0  0  0  0  0  0  0  0  0
  199.7914  178.1850  155.1863 N   0  0  0  0  0  0  0  0  0  0  0  0
  199.0766  179.3960  155.3991 C   0  0  0  0  0  0  0  0  0  0  0  0
  199.2208  180.0985  156.5440 N   0  0  0  0  0  0  0  0  0  0  0  0
  198.4684  181.1961  156.7581 C   0  0  0  0  0  0  0  0  0  0  0  0
  197.5538  181.7307  155.8191 C   0  0  0  0  0  0  0  0  0  0  0  0
  196.8457  182.9101  156.0722 N   0  0  0  0  0  0  0  0  0  0  0  0
  196.9946  183.8149  157.1408 C   0  0  0  0  0  0  0  0  0  0  0  0
  197.1620  185.1988  156.8929 C   0  0  0  0  0  0  0  0  0  0  0  0
  197.2817  186.0941  157.9961 C   0  0  0  0  0  0  0  0  0  0  0  0
  197.3078  185.6087  159.3177 C   0  0  0  0  0  0  0  0  0  0  0  0
  197.1771  184.2334  159.5580 C   0  0  0  0  0  0  0  0  0  0  0  0
  196.9927  183.3375  158.4789 C   0  0  0  0  0  0  0  0  0  0  0  0
  197.1446  185.7865  155.4795 C   0  0  1  0  0  0  0  0  0  0  0  0
  198.4646  185.7457  154.7827 N   0  0  1  0  0  0  0  0  0  0  0  0
  199.4920  186.5775  155.4507 C   0  0  2  0  0  0  0  0  0  0  0  0
  198.9673  184.3795  154.5304 C   0  0  2  0  0  0  0  0  0  0  0  0
  197.4593  181.0410  154.5766 C   0  0  0  0  0  0  0  0  0  0  0  0
  198.2227  179.8546  154.3595 C   0  0  0  0  0  0  0  0  0  0  0  0
  198.1316  179.1880  153.1115 C   0  0  0  0  0  0  0  0  0  0  0  0
  197.3073  179.6863  152.0863 C   0  0  0  0  0  0  0  0  0  0  0  0
  196.5897  180.8792  152.2884 C   0  0  0  0  0  0  0  0  0  0  0  0
  196.6672  181.5529  153.5214 C   0  0  0  0  0  0  0  0  0  0  0  0
  201.2462  176.2858  155.4185 C   0  0  0  0  0  0  0  0  0  0  0  0
  201.9911  175.4195  156.2488 C   0  0  0  0  0  0  0  0  0  0  0  0
  202.5574  174.2352  155.7309 C   0  0  0  0  0  0  0  0  0  0  0  0
  202.3663  173.8929  154.3800 C   0  0  0  0  0  0  0  0  0  0  0  0
  201.6317  174.7481  153.5407 C   0  0  0  0  0  0  0  0  0  0  0  0
  201.0795  175.9411  154.0522 C   0  0  0  0  0  0  0  0  0  0  0  0
  199.6227  177.7350  154.3026 H   0  0  0  0  0  0  0  0  0  0  0  0
  198.6777  181.6725  157.7042 H   0  0  0  0  0  0  0  0  0  0  0  0
  196.1333  183.1608  155.3854 H   0  0  0  0  0  0  0  0  0  0  0  0
  197.3612  187.1541  157.8237 H   0  0  0  0  0  0  0  0  0  0  0  0
  197.4099  186.2996  160.1417 H   0  0  0  0  0  0  0  0  0  0  0  0
  197.2088  183.8479  160.5630 H   0  0  0  0  0  0  0  0  0  0  0  0
  196.8579  182.2905  158.6936 H   0  0  0  0  0  0  0  0  0  0  0  0
  196.3835  185.2845  154.8624 H   0  0  0  0  0  0  0  0  0  0  0  0
  196.8178  186.8101  155.5359 H   0  0  0  0  0  0  0  0  0  0  0  0
  199.7074  186.2074  156.4500 H   0  0  0  0  0  0  0  0  0  0  0  0
  199.1742  187.6169  155.5225 H   0  0  0  0  0  0  0  0  0  0  0  0
  200.4216  186.5457  154.8829 H   0  0  0  0  0  0  0  0  0  0  0  0
  199.1413  183.8544  155.4652 H   0  0  0  0  0  0  0  0  0  0  0  0
  199.9063  184.3962  153.9449 H   0  0  0  0  0  0  0  0  0  0  0  0
  198.2396  183.8281  153.9518 H   0  0  0  0  0  0  0  0  0  0  0  0
  198.6808  178.2836  152.9097 H   0  0  0  0  0  0  0  0  0  0  0  0
  197.2213  179.1484  151.1541 H   0  0  0  0  0  0  0  0  0  0  0  0
  195.9588  181.2655  151.4954 H   0  0  0  0  0  0  0  0  0  0  0  0
  196.1054  182.4681  153.6320 H   0  0  0  0  0  0  0  0  0  0  0  0
  202.1493  175.6610  157.2896 H   0  0  0  0  0  0  0  0  0  0  0  0
  203.1266  173.5839  156.3781 H   0  0  0  0  0  0  0  0  0  0  0  0
  202.7821  172.9754  153.9902 H   0  0  0  0  0  0  0  0  0  0  0  0
  201.4872  174.4965  152.5013 H   0  0  0  0  0  0  0  0  0  0  0  0
  200.5367  176.5718  153.3651 H   0  0  0  0  0  0  0  0  0  0  0  0
  198.2951  186.1702  153.8832 H   0  0  0  0  0  0  0  0  0  0  0  0
  1  2  2  0
  2  3  1  0
  2 25  1  0
  3  4  1  0
  3 31  1  0
  4  5  1  0
  4 20  2  0
  5  6  2  0
  6  7  1  0
  6 32  1  0
  7  8  1  0
  7 19  2  0
  8  9  1  0
  8 33  1  0
  9 10  1  0
  9 14  2  0
 10 11  2  0
 10 15  1  0
 11 12  1  0
 11 34  1  0
 12 13  2  0
 12 35  1  0
 13 14  1  0
 13 36  1  0
 14 37  1  0
 15 16  1  0
 15 38  1  6
 15 39  1  0
 16 17  1  0
 16 18  1  0
 16 55  1  6
 17 40  1  1
 17 41  1  0
 17 42  1  0
 18 43  1  1
 18 44  1  0
 18 45  1  0
 19 20  1  0
 19 24  1  0
 20 21  1  0
 21 22  2  0
 21 46  1  0
 22 23  1  0
 22 47  1  0
 23 24  2  0
 23 48  1  0
 24 49  1  0
 25 26  2  0
 25 30  1  0
 26 27  1  0
 26 50  1  0
 27 28  2  0
 27 51  1  0
 28 29  1  0
 28 52  1  0
 29 30  2  0
 29 53  1  0
 30 54  1  0
M  CHG  1  16   1
M  END
>  <s_epik_cmdline>  (1160) 
J2VwaWtfcHl0aG9uJywgJy1waCcsICc3LjAwMDAwMCcsICctcGh0JywgJzIuMDAwMDAwJywgJy1tcycsICcxNicsICctdG4nLCAnOCcsICctbWEnLCAnMjAwJywgJy1pbWFlJywgJzxpbmZpbGUubWFlPicsICctb21hZScsICc8b3V0ZmlsZS5tYWU+Jw==

>  <s_epik_input>  (1160) 
W2NIXTFbY0hdW2NIXVtjSF1bY0hdYzFDKD1PKVtOSF1jKGMoYzIzKVtjSF1bY0hdW2NIXVtjSF0zKW5bY0hdYzJbTkhdYzRjKFtDSDJdTihbQ0gzXSlbQ0gzXSlbY0hdW2NIXVtjSF1bY0hdNA==

>  <s_i_glide_gridfile>  (1160) 
ATP-Grid

>  <s_lp_Force_Field>  (1160) 
OPLS_2005

>  <s_lp_Variant>  (1160) 
rxn502c____EMOL478180____EMOL29936549____EMOL44691345-1

>  <s_lp_label>  (1160) 
2222_sdstereoexpander_1_neutralizer_1_epik_1_stereoizer_1

>  <s_m_source_file>  (1160) 
ATP-VSW-LIGPREP-003-in.maegz

>  <s_sd_BIOSOLVEIT.INFINISEE\_QUERY\_NAME>  (1160) 
Ref-Lig

>  <s_sd_BIOSOLVEIT.INFINISEE\_QUERY\_SMILES>  (1160) 
S(c1nc2c(cc1C[NH2+]Cc3ccc(cc3)C[NH+](C)C)cccc2)Cc4ccccc4

>  <s_sd_BIOSOLVEIT.INFINISEE\_REACTION\_NAME>  (1160) 
rxn502c

>  <s_sd_BIOSOLVEIT.INFINISEE\_REAGENT1\_NAME>  (1160) 
EMOL478180

>  <s_sd_BIOSOLVEIT.INFINISEE\_REAGENT1\_SMILES>  (1160) 
[O-]C(=O)c1ccccc1

>  <s_sd_BIOSOLVEIT.INFINISEE\_REAGENT2\_NAME>  (1160) 
EMOL29936549

>  <s_sd_BIOSOLVEIT.INFINISEE\_REAGENT2\_SMILES>  (1160) 
Clc1c2c(c(nc1)N)cccc2

>  <s_sd_BIOSOLVEIT.INFINISEE\_REAGENT3\_NAME>  (1160) 
EMOL44691345

>  <s_sd_BIOSOLVEIT.INFINISEE\_REAGENT3\_SMILES>  (1160) 
N(Cc1c(N)cccc1)(C)C

>  <s_sd_BIOSOLVEIT.INFINISEE\_SPACE>  (1160) 
eXplore_7tr_2022-12

>  <s_vsw_compound_code>  (1160) 
71075

>  <s_vsw_variant>  (1160) 
71075-1

>  <r_epik_Charging_Adjusted_Penalty>  (1160) 
0.074139713783215794

>  <r_epik_Ionization_Penalty>  (1160) 
0.037199999999999997

>  <r_epik_Ionization_Penalty_Charging>  (1160) 
0.037100000000000001

>  <r_epik_Ionization_Penalty_Neutral>  (1160) 
0.0001

>  <r_epik_State_Penalty>  (1160) 
0.037100000000000001

>  <r_i_docking_score>  (1160) 
-3.76935999597459

>  <r_i_glide_ecoul>  (1160) 
-2.5227391719818102

>  <r_i_glide_eff_state_penalty>  (1160) 
0.037100000000000001

>  <r_i_glide_einternal>  (1160) 
4.1866874694824201

>  <r_i_glide_emodel>  (1160) 
-48.547569129054203

>  <r_i_glide_energy>  (1160) 
-37.724193334579503

>  <r_i_glide_erotb>  (1160) 
0.74336557954494098

>  <r_i_glide_esite>  (1160) 
-0.081276858581103506

>  <r_i_glide_evdw>  (1160) 
-35.201454162597699

>  <r_i_glide_gscore>  (1160) 
-3.8064599959745902

>  <r_i_glide_hbond>  (1160) 
0

>  <r_i_glide_ligand_efficiency>  (1160) 
-0.125645333199153

>  <r_i_glide_ligand_efficiency_ln>  (1160) 
-0.85643966155206797

>  <r_i_glide_ligand_efficiency_sa>  (1160) 
-0.39040926309519203

>  <r_i_glide_lipo>  (1160) 
-1.6311483148294501

>  <r_i_glide_metal>  (1160) 
-0

>  <r_i_glide_rewards>  (1160) 
-0.69891681818181695

>  <r_lp_Energy>  (1160) 
31.855464000000001

>  <r_qp_ACxDN^.5/SA>  (1160) 
0.0116569

>  <r_qp_CIQPlogS>  (1160) 
-5.0940000000000003

>  <r_qp_EA(eV)>  (1160) 
1.069

>  <r_qp_FISA>  (1160) 
64.498999999999995

>  <r_qp_FOSA>  (1160) 
151.67099999999999

>  <r_qp_IP(eV)>  (1160) 
7.7080000000000002

>  <r_qp_Jm>  (1160) 
0.0148183212345283

>  <r_qp_PISA>  (1160) 
511.75

>  <r_qp_PSA>  (1160) 
57.567

>  <r_qp_PercentHumanOralAbsorption>  (1160) 
100

>  <r_qp_QPPCaco>  (1160) 
604.16099999999994

>  <r_qp_QPPMDCK>  (1160) 
317.45499999999998

>  <r_qp_QPlogBB>  (1160) 
-0.078

>  <r_qp_QPlogHERG>  (1160) 
-8

>  <r_qp_QPlogKhsa>  (1160) 
0.70099999999999996

>  <r_qp_QPlogKp>  (1160) 
-2.3919999999999999

>  <r_qp_QPlogPC16>  (1160) 
14.975

>  <r_qp_QPlogPo/w>  (1160) 
4.4720000000000004

>  <r_qp_QPlogPoct>  (1160) 
22.544

>  <r_qp_QPlogPw>  (1160) 
12.906000000000001

>  <r_qp_QPlogS>  (1160) 
-5.0350000000000001

>  <r_qp_QPpolrz>  (1160) 
47.362000000000002

>  <r_qp_SASA>  (1160) 
727.91999999999996

>  <r_qp_SAamideO>  (1160) 
0

>  <r_qp_SAfluorine>  (1160) 
0

>  <r_qp_WPSA>  (1160) 
0

>  <r_qp_accptHB>  (1160) 
6

>  <r_qp_dip^2/V>  (1160) 
0.048268499999999999

>  <r_qp_dipole>  (1160) 
7.9560000000000004

>  <r_qp_donorHB>  (1160) 
2

>  <r_qp_glob>  (1160) 
0.79597790000000002

>  <r_qp_mol_MW>  (1160) 
396.49099999999999

>  <r_qp_volume>  (1160) 
1311.383

>  <r_sd_BIOSOLVEIT.INFINISEE\_FTREES\_SIMILARITY>  (1160) 
0.92900000000000005

>  <r_sd_BIOSOLVEIT.LOGP>  (1160) 
3.8752

>  <r_sd_BIOSOLVEIT.MOLECULAR\_WEIGHT>  (1160) 
397.5

>  <r_sd_BIOSOLVEIT.TPSA>  (1160) 
58.460000000000001

>  <i_epik_Tot_Q>  (1160) 
1

>  <i_epik_Tot_abs_Q>  (1160) 
1

>  <i_f3d_flags>  (1160) 
0

>  <i_i_glide_confnum>  (1160) 
7

>  <i_i_glide_lignum>  (1160) 
889

>  <i_i_glide_posenum>  (1160) 
13

>  <i_i_glide_rotatable_bonds>  (1160) 
7

>  <i_lp_mmshare_version>  (1160) 
65135

>  <i_m_ct_format>  (1160) 
2

>  <i_m_source_file_index>  (1160) 
2222

>  <i_qp_#NandO>  (1160) 
5

>  <i_qp_#acid>  (1160) 
0

>  <i_qp_#amide>  (1160) 
0

>  <i_qp_#amidine>  (1160) 
0

>  <i_qp_#amine>  (1160) 
1

>  <i_qp_#in34>  (1160) 
0

>  <i_qp_#in56>  (1160) 
22

>  <i_qp_#metab>  (1160) 
6

>  <i_qp_#nonHatm>  (1160) 
30

>  <i_qp_#noncon>  (1160) 
0

>  <i_qp_#ringatoms>  (1160) 
22

>  <i_qp_#rotor>  (1160) 
6

>  <i_qp_#rtvFG>  (1160) 
0

>  <i_qp_#stars>  (1160) 
2

>  <i_qp_CNS>  (1160) 
1

>  <i_qp_HumanOralAbsorption>  (1160) 
3

>  <i_qp_RuleOfFive>  (1160) 
0

>  <i_qp_RuleOfThree>  (1160) 
0

>  <i_sd_BIOSOLVEIT.INFINISEE\_RESULT\_RANK>  (1160) 
5301

>  <i_sd_version>  (1160) 
0

>  <b_lp_Chiralities_Consistent>  (1160) 
1

>  <b_sd_chiral_flag>  (1160) 
0

>  <canonical_id>  (1160) 
ATP-HTVS-B88C39A42AA7

>  <compound_code>  (1160) 
71075

>  <title>  (1160) 
rxn502c____EMOL478180____EMOL29936549____EMOL44691345

>  <variant>  (1160) 
71075-1

>  <source_file>  (1160) 
运行/运行/ATP-VSW/ATP-VSW-DOCK_HTVS_1-003_lib/ATP-VSW-DOCK_HTVS_1-003_lib.mae

>  <canonical_smiles>  (1160) 
C[NH+](C)Cc1ccccc1Nc1cnc(NC(=O)c2ccccc2)c2ccccc12

>  <scaffold>  (1160) 
O=C(Nc1ncc(Nc2ccccc2)c2ccccc12)c1ccccc1

>  <molecular_formula>  (1160) 
C25H25N4O+

$$$$
ATP-HTVS-B8A979A70D7E
     RDKit          3D

 71 74  0  0  0  0  0  0  0  0999 V2000
  199.7282  179.3894  152.9917 O   0  0  0  0  0  0  0  0  0  0  0  0
  198.7304  179.1331  152.3226 C   0  0  0  0  0  0  0  0  0  0  0  0
  197.4888  179.6709  152.5881 N   0  0  0  0  0  0  0  0  0  0  0  0
  197.3588  180.6656  153.5610 C   0  0  0  0  0  0  0  0  0  0  0  0
  197.3568  182.0015  153.2751 C   0  0  0  0  0  0  0  0  0  0  0  0
  197.4649  182.5144  151.9739 N   0  0  0  0  0  0  0  0  0  0  0  0
  198.6563  183.2908  151.5856 C   0  0  1  0  0  0  0  0  0  0  0  0
  198.6124  183.9888  150.2276 C   0  0  0  0  0  0  0  0  0  0  0  0
  197.4408  184.6195  149.7936 C   0  0  0  0  0  0  0  0  0  0  0  0
  197.3419  185.0950  148.4773 C   0  0  0  0  0  0  0  0  0  0  0  0
  198.4572  185.0911  147.6314 C   0  0  0  0  0  0  0  0  0  0  0  0
  199.6823  184.5615  148.0928 C   0  0  0  0  0  0  0  0  0  0  0  0
  199.7471  184.0034  149.3817 C   0  0  0  0  0  0  0  0  0  0  0  0
  196.5617  182.0506  150.9160 C   0  0  2  0  0  0  0  0  0  0  0  0
  197.2010  183.0020  154.3605 C   0  0  0  0  0  0  0  0  0  0  0  0
  197.1472  184.2101  154.1541 O   0  0  0  0  0  0  0  0  0  0  0  0
  197.0832  182.4774  155.6364 N   0  0  0  0  0  0  0  0  0  0  0  0
  197.0313  181.1244  155.9080 N   0  0  0  0  0  0  0  0  0  0  0  0
  197.1525  180.2681  154.9541 C   0  0  0  0  0  0  0  0  0  0  0  0
  196.9519  183.3481  156.7724 C   0  0  0  0  0  0  0  0  0  0  0  0
  197.8376  184.4326  156.9820 C   0  0  0  0  0  0  0  0  0  0  0  0
  197.7023  185.2642  158.1078 C   0  0  0  0  0  0  0  0  0  0  0  0
  196.6900  185.0139  159.0541 C   0  0  0  0  0  0  0  0  0  0  0  0
  195.8149  183.9235  158.8715 C   0  0  0  0  0  0  0  0  0  0  0  0
  195.9458  183.0933  157.7432 C   0  0  0  0  0  0  0  0  0  0  0  0
  196.5444  185.9137  160.2616 C   0  0  2  0  0  0  0  0  0  0  0  0
  196.2376  179.1076  152.0412 C   0  0  2  0  0  0  0  0  0  0  0  0
  198.8357  178.1978  151.1554 C   0  0  0  0  0  0  0  0  0  0  0  0
  199.3732  176.8960  151.3400 C   0  0  0  0  0  0  0  0  0  0  0  0
  199.4390  175.9988  150.2607 C   0  0  0  0  0  0  0  0  0  0  0  0
  199.0669  176.3998  148.9636 C   0  0  0  0  0  0  0  0  0  0  0  0
  198.5522  177.7040  148.7698 C   0  0  0  0  0  0  0  0  0  0  0  0
  198.4646  178.5895  149.8487 C   0  0  0  0  0  0  0  0  0  0  0  0
  199.2098  175.4440  147.7827 C   0  0  1  0  0  0  0  0  0  0  0  0
  200.6232  175.2762  147.3324 N   0  0  1  0  0  0  0  0  0  0  0  0
  201.5520  174.7788  148.3801 C   0  0  2  0  0  0  0  0  0  0  0  0
  200.7193  174.4461  146.1077 C   0  0  2  0  0  0  0  0  0  0  0  0
  198.8965  184.0635  152.3217 H   0  0  0  0  0  0  0  0  0  0  0  0
  199.5117  182.6129  151.6078 H   0  0  0  0  0  0  0  0  0  0  0  0
  196.5633  184.6562  150.4559 H   0  0  0  0  0  0  0  0  0  0  0  0
  196.3908  185.4735  148.1384 H   0  0  0  0  0  0  0  0  0  0  0  0
  198.3925  185.5049  146.6243 H   0  0  0  0  0  0  0  0  0  0  0  0
  200.5628  184.5912  147.4660 H   0  0  0  0  0  0  0  0  0  0  0  0
  200.6771  183.5447  149.7207 H   0  0  0  0  0  0  0  0  0  0  0  0
  195.7751  181.4803  151.3625 H   0  0  0  0  0  0  0  0  0  0  0  0
  197.1148  181.4051  150.2358 H   0  0  0  0  0  0  0  0  0  0  0  0
  196.0777  182.8475  150.3751 H   0  0  0  0  0  0  0  0  0  0  0  0
  197.0984  179.1920  155.1424 H   0  0  0  0  0  0  0  0  0  0  0  0
  198.6248  184.6392  156.2711 H   0  0  0  0  0  0  0  0  0  0  0  0
  198.3783  186.0959  158.2404 H   0  0  0  0  0  0  0  0  0  0  0  0
  195.0325  183.7240  159.5891 H   0  0  0  0  0  0  0  0  0  0  0  0
  195.2624  182.2701  157.6055 H   0  0  0  0  0  0  0  0  0  0  0  0
  196.1691  185.3419  161.1078 H   0  0  0  0  0  0  0  0  0  0  0  0
  195.8404  186.7205  160.0550 H   0  0  0  0  0  0  0  0  0  0  0  0
  197.5055  186.3494  160.5346 H   0  0  0  0  0  0  0  0  0  0  0  0
  195.3710  179.7367  152.2593 H   0  0  0  0  0  0  0  0  0  0  0  0
  195.9914  178.1665  152.5044 H   0  0  0  0  0  0  0  0  0  0  0  0
  196.2534  178.9401  150.9609 H   0  0  0  0  0  0  0  0  0  0  0  0
  199.7188  176.5898  152.3143 H   0  0  0  0  0  0  0  0  0  0  0  0
  199.8185  174.9912  150.4423 H   0  0  0  0  0  0  0  0  0  0  0  0
  198.2517  178.0355  147.7864 H   0  0  0  0  0  0  0  0  0  0  0  0
  198.0849  179.5867  149.6737 H   0  0  0  0  0  0  0  0  0  0  0  0
  198.7748  174.4794  148.0474 H   0  0  0  0  0  0  0  0  0  0  0  0
  198.6063  175.8265  146.9533 H   0  0  0  0  0  0  0  0  0  0  0  0
  201.1998  173.8187  148.7524 H   0  0  0  0  0  0  0  0  0  0  0  0
  201.6081  175.4717  149.2207 H   0  0  0  0  0  0  0  0  0  0  0  0
  202.5569  174.6303  147.9759 H   0  0  0  0  0  0  0  0  0  0  0  0
  200.3179  173.4439  146.2791 H   0  0  0  0  0  0  0  0  0  0  0  0
  201.7621  174.3364  145.8043 H   0  0  0  0  0  0  0  0  0  0  0  0
  200.1914  174.8897  145.2610 H   0  0  0  0  0  0  0  0  0  0  0  0
  200.9453  176.1972  147.0707 H   0  0  0  0  0  0  0  0  0  0  0  0
  1  2  2  0
  2  3  1  0
  2 28  1  0
  3  4  1  0
  3 27  1  0
  4  5  2  0
  4 19  1  0
  5  6  1  0
  5 15  1  0
  6  7  1  0
  6 14  1  0
  7  8  1  0
  7 38  1  1
  7 39  1  0
  8  9  2  0
  8 13  1  0
  9 10  1  0
  9 40  1  0
 10 11  2  0
 10 41  1  0
 11 12  1  0
 11 42  1  0
 12 13  2  0
 12 43  1  0
 13 44  1  0
 14 45  1  1
 14 46  1  0
 14 47  1  0
 15 16  2  0
 15 17  1  0
 17 18  1  0
 17 20  1  0
 18 19  2  0
 19 48  1  0
 20 21  1  0
 20 25  2  0
 21 22  2  0
 21 49  1  0
 22 23  1  0
 22 50  1  0
 23 24  2  0
 23 26  1  0
 24 25  1  0
 24 51  1  0
 25 52  1  0
 26 53  1  1
 26 54  1  0
 26 55  1  0
 27 56  1  6
 27 57  1  0
 27 58  1  0
 28 29  1  0
 28 33  2  0
 29 30  2  0
 29 59  1  0
 30 31  1  0
 30 60  1  0
 31 32  2  0
 31 34  1  0
 32 33  1  0
 32 61  1  0
 33 62  1  0
 34 35  1  0
 34 63  1  1
 34 64  1  0
 35 36  1  0
 35 37  1  0
 35 71  1  6
 36 65  1  1
 36 66  1  0
 36 67  1  0
 37 68  1  1
 37 69  1  0
 37 70  1  0
M  CHG  1  35   1
M  END
>  <s_epik_cmdline>  (1161) 
J2VwaWtfcHl0aG9uJywgJy1waCcsICc3LjAwMDAwMCcsICctcGh0JywgJzIuMDAwMDAwJywgJy1tcycsICcxNicsICctdG4nLCAnOCcsICctbWEnLCAnMjAwJywgJy1pbWFlJywgJzxpbmZpbGUubWFlPicsICctb21hZScsICc8b3V0ZmlsZS5tYWU+Jw==

>  <s_epik_input>  (1161) 
W0NIM11OKFtDSDNdKVtDSDJdYyhbY0hdW2NIXTEpW2NIXVtjSF1jMUMoPU8pTihbQ0gzXSljMmMoTihbQ0gzXSlbQ0gyXWMzW2NIXVtjSF1bY0hdW2NIXVtjSF0zKWMoPU8pbihuW2NIXTIpLWM0W2NIXVtjSF1jKFtDSDNdKVtjSF1bY0hdNA==

>  <s_i_glide_gridfile>  (1161) 
ATP-Grid

>  <s_lp_Force_Field>  (1161) 
OPLS_2005

>  <s_lp_Variant>  (1161) 
rxn502c____EMOL18624763____EMOL42620711____EMOL480996-1

>  <s_lp_label>  (1161) 
2684_sdstereoexpander_1_neutralizer_1_epik_1_stereoizer_1

>  <s_m_source_file>  (1161) 
ATP-VSW-LIGPREP-003-in.maegz

>  <s_sd_BIOSOLVEIT.INFINISEE\_QUERY\_NAME>  (1161) 
Ref-Lig

>  <s_sd_BIOSOLVEIT.INFINISEE\_QUERY\_SMILES>  (1161) 
S(c1nc2c(cc1C[NH2+]Cc3ccc(cc3)C[NH+](C)C)cccc2)Cc4ccccc4

>  <s_sd_BIOSOLVEIT.INFINISEE\_REACTION\_NAME>  (1161) 
rxn502c

>  <s_sd_BIOSOLVEIT.INFINISEE\_REAGENT1\_NAME>  (1161) 
EMOL18624763

>  <s_sd_BIOSOLVEIT.INFINISEE\_REAGENT1\_SMILES>  (1161) 
O=C(O)c1ccc(cc1)CN(C)C

>  <s_sd_BIOSOLVEIT.INFINISEE\_REAGENT2\_NAME>  (1161) 
EMOL42620711

>  <s_sd_BIOSOLVEIT.INFINISEE\_REAGENT2\_SMILES>  (1161) 
ClC=1C(=O)N(N=CC1NC)c2ccc(cc2)C

>  <s_sd_BIOSOLVEIT.INFINISEE\_REAGENT3\_NAME>  (1161) 
EMOL480996

>  <s_sd_BIOSOLVEIT.INFINISEE\_REAGENT3\_SMILES>  (1161) 
N(Cc1ccccc1)C

>  <s_sd_BIOSOLVEIT.INFINISEE\_SPACE>  (1161) 
eXplore_7tr_2022-12

>  <s_vsw_compound_code>  (1161) 
85859

>  <s_vsw_variant>  (1161) 
85859-1

>  <r_epik_Charging_Adjusted_Penalty>  (1161) 
0.106078432195006

>  <r_epik_Ionization_Penalty>  (1161) 
0.052999999999999999

>  <r_epik_Ionization_Penalty_Charging>  (1161) 
0.052999999999999999

>  <r_epik_Ionization_Penalty_Neutral>  (1161) 
0

>  <r_epik_State_Penalty>  (1161) 
0.052999999999999999

>  <r_i_docking_score>  (1161) 
-4.3439742399291097

>  <r_i_glide_ecoul>  (1161) 
-4.8046431541442898

>  <r_i_glide_eff_state_penalty>  (1161) 
0.052999999999999999

>  <r_i_glide_einternal>  (1161) 
10.673748970031699

>  <r_i_glide_emodel>  (1161) 
-55.719635536247097

>  <r_i_glide_energy>  (1161) 
-44.677567958831801

>  <r_i_glide_erotb>  (1161) 
0.66149845489905101

>  <r_i_glide_esite>  (1161) 
-0.045359215662540302

>  <r_i_glide_evdw>  (1161) 
-39.8729248046875

>  <r_i_glide_gscore>  (1161) 
-4.3969742399291096

>  <r_i_glide_hbond>  (1161) 
0

>  <r_i_glide_ligand_efficiency>  (1161) 
-0.117404709187273

>  <r_i_glide_ligand_efficiency_ln>  (1161) 
-0.94210617543567898

>  <r_i_glide_ligand_efficiency_sa>  (1161) 
-0.39121853696908498

>  <r_i_glide_lipo>  (1161) 
-2.1270727800446898

>  <r_i_glide_metal>  (1161) 
-0

>  <r_i_glide_rewards>  (1161) 
-0.17169798576491499

>  <r_lp_Energy>  (1161) 
76.980017000000004

>  <r_lp_tautomer_probability>  (1161) 
1

>  <r_qp_ACxDN^.5/SA>  (1161) 
0

>  <r_qp_CIQPlogS>  (1161) 
-6.0460000000000003

>  <r_qp_EA(eV)>  (1161) 
0.873

>  <r_qp_FISA>  (1161) 
62.700000000000003

>  <r_qp_FOSA>  (1161) 
373.05900000000003

>  <r_qp_IP(eV)>  (1161) 
8.4429999999999996

>  <r_qp_Jm>  (1161) 
0.027772535740333101

>  <r_qp_PISA>  (1161) 
357.85899999999998

>  <r_qp_PSA>  (1161) 
67.899000000000001

>  <r_qp_PercentHumanOralAbsorption>  (1161) 
100

>  <r_qp_QPPCaco>  (1161) 
628.36699999999996

>  <r_qp_QPPMDCK>  (1161) 
331.22399999999999

>  <r_qp_QPlogBB>  (1161) 
-0.085000000000000006

>  <r_qp_QPlogHERG>  (1161) 
-6.9119999999999999

>  <r_qp_QPlogKhsa>  (1161) 
0.56100000000000005

>  <r_qp_QPlogKp>  (1161) 
-2.8050000000000002

>  <r_qp_QPlogPC16>  (1161) 
15.532

>  <r_qp_QPlogPo/w>  (1161) 
4.758

>  <r_qp_QPlogPoct>  (1161) 
23.32

>  <r_qp_QPlogPw>  (1161) 
11.318

>  <r_qp_QPlogS>  (1161) 
-4.4470000000000001

>  <r_qp_QPpolrz>  (1161) 
54.996000000000002

>  <r_qp_SASA>  (1161) 
793.61800000000005

>  <r_qp_SAamideO>  (1161) 
0

>  <r_qp_SAfluorine>  (1161) 
0

>  <r_qp_WPSA>  (1161) 
0

>  <r_qp_accptHB>  (1161) 
8.5

>  <r_qp_dip^2/V>  (1161) 
0.030377999999999999

>  <r_qp_dipole>  (1161) 
6.8730000000000002

>  <r_qp_donorHB>  (1161) 
0

>  <r_qp_glob>  (1161) 
0.81787580000000004

>  <r_qp_mol_MW>  (1161) 
495.62299999999999

>  <r_qp_volume>  (1161) 
1554.895

>  <r_sd_BIOSOLVEIT.INFINISEE\_FTREES\_SIMILARITY>  (1161) 
0.90900000000000003

>  <r_sd_BIOSOLVEIT.LOGP>  (1161) 
3.09842

>  <r_sd_BIOSOLVEIT.MOLECULAR\_WEIGHT>  (1161) 
496.63200000000001

>  <r_sd_BIOSOLVEIT.TPSA>  (1161) 
62.880000000000003

>  <i_epik_Tot_Q>  (1161) 
1

>  <i_epik_Tot_abs_Q>  (1161) 
1

>  <i_f3d_flags>  (1161) 
0

>  <i_i_glide_confnum>  (1161) 
2

>  <i_i_glide_lignum>  (1161) 
1268

>  <i_i_glide_posenum>  (1161) 
6

>  <i_i_glide_rotatable_bonds>  (1161) 
9

>  <i_lp_mmshare_version>  (1161) 
65135

>  <i_m_ct_format>  (1161) 
2

>  <i_m_source_file_index>  (1161) 
2684

>  <i_qp_#NandO>  (1161) 
7

>  <i_qp_#acid>  (1161) 
0

>  <i_qp_#amide>  (1161) 
0

>  <i_qp_#amidine>  (1161) 
0

>  <i_qp_#amine>  (1161) 
1

>  <i_qp_#in34>  (1161) 
0

>  <i_qp_#in56>  (1161) 
24

>  <i_qp_#metab>  (1161) 
6

>  <i_qp_#nonHatm>  (1161) 
37

>  <i_qp_#noncon>  (1161) 
0

>  <i_qp_#ringatoms>  (1161) 
24

>  <i_qp_#rotor>  (1161) 
7

>  <i_qp_#rtvFG>  (1161) 
0

>  <i_qp_#stars>  (1161) 
0

>  <i_qp_CNS>  (1161) 
1

>  <i_qp_HumanOralAbsorption>  (1161) 
3

>  <i_qp_RuleOfFive>  (1161) 
0

>  <i_qp_RuleOfThree>  (1161) 
0

>  <i_sd_BIOSOLVEIT.INFINISEE\_RESULT\_RANK>  (1161) 
50776

>  <i_sd_version>  (1161) 
0

>  <b_lp_Chiralities_Consistent>  (1161) 
1

>  <b_sd_chiral_flag>  (1161) 
0

>  <canonical_id>  (1161) 
ATP-HTVS-B8A979A70D7E

>  <compound_code>  (1161) 
85859

>  <title>  (1161) 
rxn502c____EMOL18624763____EMOL42620711____EMOL480996

>  <variant>  (1161) 
85859-1

>  <source_file>  (1161) 
运行/运行/ATP-VSW/ATP-VSW-DOCK_HTVS_1-003_lib/ATP-VSW-DOCK_HTVS_1-003_lib.mae

>  <canonical_smiles>  (1161) 
Cc1ccc(-n2ncc(N(C)C(=O)c3ccc(C[NH+](C)C)cc3)c(N(C)Cc3ccccc3)c2=O)cc1

>  <scaffold>  (1161) 
O=C(Nc1cnn(-c2ccccc2)c(=O)c1NCc1ccccc1)c1ccccc1

>  <molecular_formula>  (1161) 
C30H34N5O2+

$$$$
ATP-HTVS-B8D4F4CA2980
     RDKit          3D

 56 58  0  0  0  0  0  0  0  0999 V2000
  197.0565  183.4751  159.2588 S   0  0  0  0  0  0  0  0  0  0  0  0
  197.1203  184.3188  157.7093 C   0  0  0  0  0  0  0  0  0  0  0  0
  196.9948  183.4761  156.6756 N   0  0  0  0  0  0  0  0  0  0  0  0
  196.7975  182.1350  157.0657 C   0  0  0  0  0  0  0  0  0  0  0  0
  196.7486  181.9640  158.4226 C   0  0  0  0  0  0  0  0  0  0  0  0
  196.6902  181.1147  155.9962 C   0  0  1  0  0  0  0  0  0  0  0  0
  197.8467  180.1942  156.0777 N   0  0  1  0  0  0  0  0  0  0  0  0
  198.1353  179.4559  154.8376 C   0  0  1  0  0  0  0  0  0  0  0  0
  199.2920  178.4765  155.0256 C   0  0  0  0  0  0  0  0  0  0  0  0
  199.7045  178.0701  156.3099 C   0  0  0  0  0  0  0  0  0  0  0  0
  200.7652  177.1545  156.4733 C   0  0  0  0  0  0  0  0  0  0  0  0
  201.4352  176.6505  155.3379 C   0  0  0  0  0  0  0  0  0  0  0  0
  201.0439  177.0674  154.0559 C   0  0  0  0  0  0  0  0  0  0  0  0
  199.9620  177.9658  153.8895 C   0  0  0  0  0  0  0  0  0  0  0  0
  202.5748  175.6668  155.5140 C   0  0  1  0  0  0  0  0  0  0  0  0
  202.1387  174.2492  155.4031 N   0  0  2  0  0  0  0  0  0  0  0  0
  203.1905  173.2968  155.8172 C   0  0  2  0  0  0  0  0  0  0  0  0
  201.5973  173.8979  154.0658 C   0  0  2  0  0  0  0  0  0  0  0  0
  197.3172  185.7461  157.5067 N   0  0  0  0  0  0  0  0  0  0  0  0
  196.9847  186.5564  158.6652 C   0  0  0  0  0  0  0  0  0  0  0  0
  195.8075  186.3175  159.4032 C   0  0  0  0  0  0  0  0  0  0  0  0
  195.5017  187.1024  160.5504 C   0  0  0  0  0  0  0  0  0  0  0  0
  196.3431  188.1732  160.9105 C   0  0  0  0  0  0  0  0  0  0  0  0
  197.4997  188.4321  160.1765 C   0  0  0  0  0  0  0  0  0  0  0  0
  197.8475  187.6034  159.0753 C   0  0  0  0  0  0  0  0  0  0  0  0
  197.7399  186.2762  156.3203 C   0  0  0  0  0  0  0  0  0  0  0  0
  198.0965  185.5943  155.3613 O   0  0  0  0  0  0  0  0  0  0  0  0
  197.8543  187.7913  156.1378 C   0  0  2  0  0  0  0  0  0  0  0  0
  198.6656  180.7354  156.3243 H   0  0  0  0  0  0  0  0  0  0  0  0
  196.5922  181.0495  158.9724 H   0  0  0  0  0  0  0  0  0  0  0  0
  195.7768  180.5390  156.1211 H   0  0  0  0  0  0  0  0  0  0  0  0
  196.6507  181.5827  155.0099 H   0  0  0  0  0  0  0  0  0  0  0  0
  197.2423  178.9169  154.5137 H   0  0  0  0  0  0  0  0  0  0  0  0
  198.3950  180.1536  154.0436 H   0  0  0  0  0  0  0  0  0  0  0  0
  199.2223  178.4252  157.2002 H   0  0  0  0  0  0  0  0  0  0  0  0
  201.0444  176.8593  157.4738 H   0  0  0  0  0  0  0  0  0  0  0  0
  201.5425  176.6932  153.1799 H   0  0  0  0  0  0  0  0  0  0  0  0
  199.6530  178.2474  152.8938 H   0  0  0  0  0  0  0  0  0  0  0  0
  203.3577  175.8821  154.7820 H   0  0  0  0  0  0  0  0  0  0  0  0
  203.0216  175.8331  156.4974 H   0  0  0  0  0  0  0  0  0  0  0  0
  204.0780  173.3962  155.1890 H   0  0  0  0  0  0  0  0  0  0  0  0
  202.8380  172.2680  155.7326 H   0  0  0  0  0  0  0  0  0  0  0  0
  203.4890  173.4550  156.8548 H   0  0  0  0  0  0  0  0  0  0  0  0
  202.3572  174.0389  153.2981 H   0  0  0  0  0  0  0  0  0  0  0  0
  200.7331  174.5041  153.8031 H   0  0  0  0  0  0  0  0  0  0  0  0
  201.2651  172.8581  154.0345 H   0  0  0  0  0  0  0  0  0  0  0  0
  195.1112  185.5513  159.1320 H   0  0  0  0  0  0  0  0  0  0  0  0
  194.6172  186.8799  161.1269 H   0  0  0  0  0  0  0  0  0  0  0  0
  196.0907  188.7877  161.7583 H   0  0  0  0  0  0  0  0  0  0  0  0
  198.1387  189.2516  160.4540 H   0  0  0  0  0  0  0  0  0  0  0  0
  198.7763  187.8061  158.5384 H   0  0  0  0  0  0  0  0  0  0  0  0
  198.7603  188.1521  156.6215 H   0  0  0  0  0  0  0  0  0  0  0  0
  197.0062  188.3206  156.5497 H   0  0  0  0  0  0  0  0  0  0  0  0
  197.9159  188.0471  155.0701 H   0  0  0  0  0  0  0  0  0  0  0  0
  201.3764  174.1415  156.0592 H   0  0  0  0  0  0  0  0  0  0  0  0
  197.6395  179.5450  156.8070 H   0  0  0  0  0  0  0  0  0  0  0  0
  1  2  1  0
  1  5  1  0
  2  3  2  0
  2 19  1  0
  3  4  1  0
  4  5  2  0
  4  6  1  0
  5 30  1  0
  6  7  1  0
  6 31  1  1
  6 32  1  0
  7  8  1  0
  7 29  1  1
  7 56  1  0
  8  9  1  0
  8 33  1  6
  8 34  1  0
  9 10  1  0
  9 14  2  0
 10 11  2  0
 10 35  1  0
 11 12  1  0
 11 36  1  0
 12 13  2  0
 12 15  1  0
 13 14  1  0
 13 37  1  0
 14 38  1  0
 15 16  1  0
 15 39  1  6
 15 40  1  0
 16 17  1  0
 16 18  1  0
 16 55  1  1
 17 41  1  6
 17 42  1  0
 17 43  1  0
 18 44  1  6
 18 45  1  0
 18 46  1  0
 19 20  1  0
 19 26  1  0
 20 21  2  0
 20 25  1  0
 21 22  1  0
 21 47  1  0
 22 23  2  0
 22 48  1  0
 23 24  1  0
 23 49  1  0
 24 25  2  0
 24 50  1  0
 25 51  1  0
 26 27  2  0
 26 28  1  0
 28 52  1  1
 28 53  1  0
 28 54  1  0
M  CHG  2   7   1  16   1
M  END
>  <s_epik_cmdline>  (1162) 
J2VwaWtfcHl0aG9uJywgJy1waCcsICc3LjAwMDAwMCcsICctcGh0JywgJzIuMDAwMDAwJywgJy1tcycsICcxNicsICctdG4nLCAnOCcsICctbWEnLCAnMjAwJywgJy1pbWFlJywgJzxpbmZpbGUubWFlPicsICctb21hZScsICc8b3V0ZmlsZS5tYWU+Jw==

>  <s_epik_input>  (1162) 
W2NIXTFbY0hdW2NIXVtjSF1bY0hdYzFOKEMoPU8pW0NIM10pYzJzW2NIXWMobjIpW0NIMl1bTkhdW0NIMl1jM1tjSF1bY0hdYyhbY0hdW2NIXTMpW0NIMl1OKFtDSDNdKVtDSDNd

>  <s_i_glide_gridfile>  (1162) 
ATP-Grid

>  <s_lp_Force_Field>  (1162) 
OPLS_2005

>  <s_lp_Variant>  (1162) 
m_270004bbb____8288884____12209754-1

>  <s_lp_label>  (1162) 
790_sdstereoexpander_1_neutralizer_1_epik_1_stereoizer_1

>  <s_m_source_file>  (1162) 
ATP-VSW-LIGPREP-001-in.maegz

>  <s_sd_BIOSOLVEIT.INFINISEE\_QUERY\_NAME>  (1162) 
Ref-Lig

>  <s_sd_BIOSOLVEIT.INFINISEE\_QUERY\_SMILES>  (1162) 
S(c1nc2c(cc1C[NH2+]Cc3ccc(cc3)C[NH+](C)C)cccc2)Cc4ccccc4

>  <s_sd_BIOSOLVEIT.INFINISEE\_REACTION\_NAME>  (1162) 
m_270004bbb

>  <s_sd_BIOSOLVEIT.INFINISEE\_REAGENT1\_SMILES>  (1162) 
[R1*]NCc1ccc(cc1)CN(C)C

>  <s_sd_BIOSOLVEIT.INFINISEE\_REAGENT2\_SMILES>  (1162) 
[R1*]CC=1N=C(SC1)N(c2ccccc2)C(=O)C

>  <s_sd_BIOSOLVEIT.INFINISEE\_SPACE>  (1162) 
REALSpace_44bn_2023-08

>  <s_vsw_compound_code>  (1162) 
25249

>  <s_vsw_variant>  (1162) 
25249-1

>  <r_epik_Charging_Adjusted_Penalty>  (1162) 
0.42435712099276002

>  <r_epik_Ionization_Penalty>  (1162) 
0.21249999999999999

>  <r_epik_Ionization_Penalty_Charging>  (1162) 
0.21249999999999999

>  <r_epik_Ionization_Penalty_Neutral>  (1162) 
0

>  <r_epik_State_Penalty>  (1162) 
0.21190000000000001

>  <r_i_docking_score>  (1162) 
-5.2164654059207702

>  <r_i_glide_ecoul>  (1162) 
-11.8857421875

>  <r_i_glide_eff_state_penalty>  (1162) 
0.21190000000000001

>  <r_i_glide_einternal>  (1162) 
6.2836813926696804

>  <r_i_glide_emodel>  (1162) 
-68.626383616133694

>  <r_i_glide_energy>  (1162) 
-46.446872711181598

>  <r_i_glide_erotb>  (1162) 
0.87097029129834402

>  <r_i_glide_esite>  (1162) 
-0.098261938533681301

>  <r_i_glide_evdw>  (1162) 
-34.561130523681598

>  <r_i_glide_gscore>  (1162) 
-5.4283654059207702

>  <r_i_glide_hbond>  (1162) 
-0.16975253505681401

>  <r_i_glide_ligand_efficiency>  (1162) 
-0.186302335925742

>  <r_i_glide_ligand_efficiency_ln>  (1162) 
-1.2041133777661399

>  <r_i_glide_ligand_efficiency_sa>  (1162) 
-0.56572361807841298

>  <r_i_glide_lipo>  (1162) 
-1.4799367056485599

>  <r_i_glide_metal>  (1162) 
-0

>  <r_i_glide_rewards>  (1162) 
-1.0404666636709701

>  <r_lp_Energy>  (1162) 
31.287002000000001

>  <r_lp_tautomer_probability>  (1162) 
1

>  <r_qp_ACxDN^.5/SA>  (1162) 
0.0114185

>  <r_qp_CIQPlogS>  (1162) 
-2.9550000000000001

>  <r_qp_EA(eV)>  (1162) 
0.879

>  <r_qp_FISA>  (1162) 
70.539000000000001

>  <r_qp_FOSA>  (1162) 
325.916

>  <r_qp_IP(eV)>  (1162) 
9.0359999999999996

>  <r_qp_Jm>  (1162) 
0.0076432189014589303

>  <r_qp_PISA>  (1162) 
265.57100000000003

>  <r_qp_PSA>  (1162) 
58.947000000000003

>  <r_qp_PercentHumanOralAbsorption>  (1162) 
83.244

>  <r_qp_QPPCaco>  (1162) 
132.06100000000001

>  <r_qp_QPPMDCK>  (1162) 
110.449

>  <r_qp_QPlogBB>  (1162) 
0.29099999999999998

>  <r_qp_QPlogHERG>  (1162) 
-6.9930000000000003

>  <r_qp_QPlogKhsa>  (1162) 
0.28000000000000003

>  <r_qp_QPlogKp>  (1162) 
-5.2409999999999997

>  <r_qp_QPlogPC16>  (1162) 
13.327

>  <r_qp_QPlogPo/w>  (1162) 
3.1320000000000001

>  <r_qp_QPlogPoct>  (1162) 
20.588999999999999

>  <r_qp_QPlogPw>  (1162) 
11.285

>  <r_qp_QPlogS>  (1162) 
-2.472

>  <r_qp_QPpolrz>  (1162) 
44.064999999999998

>  <r_qp_SASA>  (1162) 
700.61599999999999

>  <r_qp_SAamideO>  (1162) 
0

>  <r_qp_SAfluorine>  (1162) 
0

>  <r_qp_WPSA>  (1162) 
38.588999999999999

>  <r_qp_accptHB>  (1162) 
8

>  <r_qp_dip^2/V>  (1162) 
0.0238225

>  <r_qp_dipole>  (1162) 
5.6070000000000002

>  <r_qp_donorHB>  (1162) 
1

>  <r_qp_glob>  (1162) 
0.83054879999999998

>  <r_qp_mol_MW>  (1162) 
394.53399999999999

>  <r_qp_volume>  (1162) 
1319.836

>  <r_sd_BIOSOLVEIT.INFINISEE\_FTREES\_SIMILARITY>  (1162) 
0.92400000000000004

>  <r_sd_BIOSOLVEIT.LOGP>  (1162) 
1.7358

>  <r_sd_BIOSOLVEIT.MOLECULAR\_WEIGHT>  (1162) 
396.55500000000001

>  <r_sd_BIOSOLVEIT.TPSA>  (1162) 
54.25

>  <i_epik_Tot_Q>  (1162) 
2

>  <i_epik_Tot_abs_Q>  (1162) 
2

>  <i_f3d_flags>  (1162) 
0

>  <i_i_glide_confnum>  (1162) 
5

>  <i_i_glide_lignum>  (1162) 
122

>  <i_i_glide_posenum>  (1162) 
20

>  <i_i_glide_rotatable_bonds>  (1162) 
9

>  <i_lp_mmshare_version>  (1162) 
65135

>  <i_m_ct_format>  (1162) 
2

>  <i_m_source_file_index>  (1162) 
790

>  <i_qp_#NandO>  (1162) 
5

>  <i_qp_#acid>  (1162) 
0

>  <i_qp_#amide>  (1162) 
0

>  <i_qp_#amidine>  (1162) 
0

>  <i_qp_#amine>  (1162) 
2

>  <i_qp_#in34>  (1162) 
0

>  <i_qp_#in56>  (1162) 
17

>  <i_qp_#metab>  (1162) 
7

>  <i_qp_#nonHatm>  (1162) 
28

>  <i_qp_#noncon>  (1162) 
0

>  <i_qp_#ringatoms>  (1162) 
17

>  <i_qp_#rotor>  (1162) 
8

>  <i_qp_#rtvFG>  (1162) 
0

>  <i_qp_#stars>  (1162) 
0

>  <i_qp_CNS>  (1162) 
1

>  <i_qp_HumanOralAbsorption>  (1162) 
2

>  <i_qp_RuleOfFive>  (1162) 
0

>  <i_qp_RuleOfThree>  (1162) 
1

>  <i_sd_BIOSOLVEIT.INFINISEE\_REAGENT1\_NAME>  (1162) 
8288884

>  <i_sd_BIOSOLVEIT.INFINISEE\_REAGENT2\_NAME>  (1162) 
12209754

>  <i_sd_BIOSOLVEIT.INFINISEE\_RESULT\_RANK>  (1162) 
10585

>  <i_sd_version>  (1162) 
0

>  <b_lp_Chiralities_Consistent>  (1162) 
1

>  <b_sd_chiral_flag>  (1162) 
0

>  <canonical_id>  (1162) 
ATP-HTVS-B8D4F4CA2980

>  <compound_code>  (1162) 
25249

>  <title>  (1162) 
m_270004bbb____8288884____12209754

>  <variant>  (1162) 
25249-1

>  <source_file>  (1162) 
运行/运行/ATP-VSW/ATP-VSW-DOCK_HTVS_1-001_lib/ATP-VSW-DOCK_HTVS_1-001_lib

>  <canonical_smiles>  (1162) 
CC(=O)N(c1ccccc1)c1nc(C[NH2+]Cc2ccc(C[NH+](C)C)cc2)cs1

>  <scaffold>  (1162) 
c1ccc(C[NH2+]Cc2csc(Nc3ccccc3)n2)cc1

>  <molecular_formula>  (1162) 
C22H28N4OS+2

$$$$
ATP-HTVS-B976229D01A0
     RDKit          3D

 57 60  0  0  0  0  0  0  0  0999 V2000
  198.9924  186.6727  151.9462 Cl  0  0  0  0  0  0  0  0  0  0  0  0
  199.3961  187.5815  153.3710 C   0  0  0  0  0  0  0  0  0  0  0  0
  200.2631  188.6925  153.3017 C   0  0  0  0  0  0  0  0  0  0  0  0
  200.7991  189.0502  152.0927 O   0  0  0  0  0  0  0  0  0  0  0  0
  200.5761  189.4392  154.4698 C   0  0  0  0  0  0  0  0  0  0  0  0
  200.0013  189.0669  155.7156 C   0  0  0  0  0  0  0  0  0  0  0  0
  200.3232  189.7999  156.8847 C   0  0  0  0  0  0  0  0  0  0  0  0
  201.2038  190.8892  156.8192 C   0  0  0  0  0  0  0  0  0  0  0  0
  201.7708  191.2612  155.5876 C   0  0  0  0  0  0  0  0  0  0  0  0
  201.4601  190.5371  154.4204 C   0  0  0  0  0  0  0  0  0  0  0  0
  199.1346  187.9621  155.7635 C   0  0  0  0  0  0  0  0  0  0  0  0
  198.5099  187.5512  157.0764 N   0  0  1  0  0  0  0  0  0  0  0  0
  197.1458  188.0524  157.3181 C   0  0  1  0  0  0  0  0  0  0  0  0
  196.5564  187.4264  158.5685 C   0  0  0  0  0  0  0  0  0  0  0  0
  195.9710  186.1453  158.5090 C   0  0  0  0  0  0  0  0  0  0  0  0
  195.3605  185.5697  159.6494 C   0  0  0  0  0  0  0  0  0  0  0  0
  195.3628  186.2822  160.8617 C   0  0  0  0  0  0  0  0  0  0  0  0
  195.9550  187.5560  160.9263 C   0  0  0  0  0  0  0  0  0  0  0  0
  196.5592  188.1266  159.7905 C   0  0  0  0  0  0  0  0  0  0  0  0
  194.6796  184.2055  159.5862 C   0  0  1  0  0  0  0  0  0  0  0  0
  195.2515  183.3071  158.5868 N   0  0  0  0  0  0  0  0  0  0  0  0
  196.5953  182.8626  158.9514 C   0  0  2  0  0  0  0  0  0  0  0  0
  194.4354  182.1103  158.4285 C   0  0  2  0  0  0  0  0  0  0  0  0
  198.8278  187.2048  154.6087 C   0  0  0  0  0  0  0  0  0  0  0  0
  197.9551  186.1099  154.6774 N   0  0  0  0  0  0  0  0  0  0  0  0
  198.1928  184.9065  155.3347 C   0  0  0  0  0  0  0  0  0  0  0  0
  197.2589  183.8494  155.1597 C   0  0  0  0  0  0  0  0  0  0  0  0
  197.4207  182.6344  155.8462 C   0  0  0  0  0  0  0  0  0  0  0  0
  198.5294  182.4597  156.7092 C   0  0  0  0  0  0  0  0  0  0  0  0
  199.4441  183.4795  156.8730 C   0  0  0  0  0  0  0  0  0  0  0  0
  199.2986  184.6996  156.1803 C   0  0  0  0  0  0  0  0  0  0  0  0
  198.4275  186.5504  157.0721 H   0  0  0  0  0  0  0  0  0  0  0  0
  199.9097  189.5319  157.8452 H   0  0  0  0  0  0  0  0  0  0  0  0
  201.4367  191.4420  157.7172 H   0  0  0  0  0  0  0  0  0  0  0  0
  202.4407  192.1055  155.5377 H   0  0  0  0  0  0  0  0  0  0  0  0
  201.9090  190.8347  153.4836 H   0  0  0  0  0  0  0  0  0  0  0  0
  197.1755  189.1381  157.4090 H   0  0  0  0  0  0  0  0  0  0  0  0
  196.5061  187.8037  156.4652 H   0  0  0  0  0  0  0  0  0  0  0  0
  195.9812  185.6214  157.5667 H   0  0  0  0  0  0  0  0  0  0  0  0
  194.8995  185.8426  161.7327 H   0  0  0  0  0  0  0  0  0  0  0  0
  195.9378  188.1029  161.8512 H   0  0  0  0  0  0  0  0  0  0  0  0
  197.0031  189.1075  159.8651 H   0  0  0  0  0  0  0  0  0  0  0  0
  194.7708  183.7084  160.5535 H   0  0  0  0  0  0  0  0  0  0  0  0
  193.6108  184.3701  159.3900 H   0  0  0  0  0  0  0  0  0  0  0  0
  196.9290  182.1161  158.2215 H   0  0  0  0  0  0  0  0  0  0  0  0
  196.6114  182.5163  160.0040 H   0  0  0  0  0  0  0  0  0  0  0  0
  197.2688  183.7107  158.8838 H   0  0  0  0  0  0  0  0  0  0  0  0
  194.8403  181.4828  157.6325 H   0  0  0  0  0  0  0  0  0  0  0  0
  193.4050  182.3442  158.1471 H   0  0  0  0  0  0  0  0  0  0  0  0
  194.4395  181.5175  159.3439 H   0  0  0  0  0  0  0  0  0  0  0  0
  197.2834  186.0797  153.9177 H   0  0  0  0  0  0  0  0  0  0  0  0
  196.3568  184.0154  154.5822 H   0  0  0  0  0  0  0  0  0  0  0  0
  196.6952  181.8501  155.7222 H   0  0  0  0  0  0  0  0  0  0  0  0
  198.7050  181.4832  157.1742 H   0  0  0  0  0  0  0  0  0  0  0  0
  200.2634  183.3871  157.5793 H   0  0  0  0  0  0  0  0  0  0  0  0
  200.0154  185.4829  156.3831 H   0  0  0  0  0  0  0  0  0  0  0  0
  199.1010  187.8111  157.8570 H   0  0  0  0  0  0  0  0  0  0  0  0
  1  2  1  0
  2  3  2  0
  2 24  1  0
  3  4  1  0
  3  5  1  0
  5  6  1  0
  5 10  2  0
  6  7  2  0
  6 11  1  0
  7  8  1  0
  7 33  1  0
  8  9  2  0
  8 34  1  0
  9 10  1  0
  9 35  1  0
 10 36  1  0
 11 12  1  0
 11 24  2  0
 12 13  1  0
 12 32  1  6
 12 57  1  0
 13 14  1  0
 13 37  1  1
 13 38  1  0
 14 15  1  0
 14 19  2  0
 15 16  2  0
 15 39  1  0
 16 17  1  0
 16 20  1  0
 17 18  2  0
 17 40  1  0
 18 19  1  0
 18 41  1  0
 19 42  1  0
 20 21  1  0
 20 43  1  1
 20 44  1  0
 21 22  1  0
 21 23  1  0
 22 45  1  6
 22 46  1  0
 22 47  1  0
 23 48  1  6
 23 49  1  0
 23 50  1  0
 24 25  1  0
 25 26  1  0
 25 51  1  0
 26 27  2  0
 26 31  1  0
 27 28  1  0
 27 52  1  0
 28 29  2  0
 28 53  1  0
 29 30  1  0
 29 54  1  0
 30 31  2  0
 30 55  1  0
 31 56  1  0
M  CHG  2   4  -1  12   1
M  END
>  <s_epik_cmdline>  (1163) 
J2VwaWtfcHl0aG9uJywgJy1waCcsICc3LjAwMDAwMCcsICctcGh0JywgJzIuMDAwMDAwJywgJy1tcycsICcxNicsICctdG4nLCAnOCcsICctbWEnLCAnMjAwJywgJy1pbWFlJywgJzxpbmZpbGUubWFlPicsICctb21hZScsICc8b3V0ZmlsZS5tYWU+Jw==

>  <s_epik_input>  (1163) 
W2NIXTFbY0hdW2NIXVtjSF1bY0hdYzFbTkhdQyg9QyhDbClDMj1PKVtDQEhdKGMoYzIzKVtjSF1bY0hdW2NIXVtjSF0zKVtOSF1bQ0gyXWM0W2NIXWMoW2NIXVtjSF1bY0hdNClbQ0gyXU4oW0NIM10pW0NIM10=

>  <s_i_glide_gridfile>  (1163) 
ATP-Grid

>  <s_lp_Force_Field>  (1163) 
OPLS_2005

>  <s_lp_Variant>  (1163) 
rxn207____EMOL630614____EMOL2873214-5

>  <s_lp_label>  (1163) 
2153_sdstereoexpander_2_neutralizer_1_epik_5_stereoizer_1

>  <s_m_source_file>  (1163) 
ATP-VSW-LIGPREP-002-in.maegz

>  <s_sd_BIOSOLVEIT.INFINISEE\_QUERY\_NAME>  (1163) 
Ref-Lig

>  <s_sd_BIOSOLVEIT.INFINISEE\_QUERY\_SMILES>  (1163) 
S(c1nc2c(cc1C[NH2+]Cc3ccc(cc3)C[NH+](C)C)cccc2)Cc4ccccc4

>  <s_sd_BIOSOLVEIT.INFINISEE\_REACTION\_NAME>  (1163) 
rxn207

>  <s_sd_BIOSOLVEIT.INFINISEE\_REAGENT1\_NAME>  (1163) 
EMOL630614

>  <s_sd_BIOSOLVEIT.INFINISEE\_REAGENT1\_SMILES>  (1163) 
ClC=1C(=O)c2c(cccc2)C(=O)C1Nc3ccccc3

>  <s_sd_BIOSOLVEIT.INFINISEE\_REAGENT2\_NAME>  (1163) 
EMOL2873214

>  <s_sd_BIOSOLVEIT.INFINISEE\_REAGENT2\_SMILES>  (1163) 
N(Cc1cc(ccc1)CN)(C)C

>  <s_sd_BIOSOLVEIT.INFINISEE\_SPACE>  (1163) 
eXplore_7tr_2022-12

>  <s_vsw_compound_code>  (1163) 
68866

>  <s_vsw_variant>  (1163) 
68866-5

>  <r_epik_Charging_Adjusted_Penalty>  (1163) 
2.2315927420031598

>  <r_epik_Ionization_Penalty>  (1163) 
1.6008

>  <r_epik_Ionization_Penalty_Charging>  (1163) 
0.15909999999999999

>  <r_epik_Ionization_Penalty_Neutral>  (1163) 
1.4418

>  <r_epik_State_Penalty>  (1163) 
2.0724999999999998

>  <r_i_docking_score>  (1163) 
-1.5185616239566599

>  <r_i_glide_ecoul>  (1163) 
-2.24250459671021

>  <r_i_glide_eff_state_penalty>  (1163) 
2.0724999999999998

>  <r_i_glide_einternal>  (1163) 
1.3540524244308501

>  <r_i_glide_emodel>  (1163) 
-40.470244412041801

>  <r_i_glide_energy>  (1163) 
-32.911877155303998

>  <r_i_glide_erotb>  (1163) 
0.63973569255199803

>  <r_i_glide_esite>  (1163) 
-0.0049089044909632002

>  <r_i_glide_evdw>  (1163) 
-30.6693725585938

>  <r_i_glide_gscore>  (1163) 
-3.59106162395666

>  <r_i_glide_hbond>  (1163) 
-0.018532638909034199

>  <r_i_glide_ligand_efficiency>  (1163) 
-0.048985858837311602

>  <r_i_glide_ligand_efficiency_ln>  (1163) 
-0.34248218452696

>  <r_i_glide_ligand_efficiency_sa>  (1163) 
-0.153883229016162

>  <r_i_glide_lipo>  (1163) 
-1.8735808193088099

>  <r_i_glide_metal>  (1163) 
-0

>  <r_i_glide_rewards>  (1163) 
-0.46393063636363602

>  <r_lp_Energy>  (1163) 
24.697710000000001

>  <r_qp_ACxDN^.5/SA>  (1163) 
0.010813700000000001

>  <r_qp_CIQPlogS>  (1163) 
-6.3460000000000001

>  <r_qp_EA(eV)>  (1163) 
0.92100000000000004

>  <r_qp_FISA>  (1163) 
58.607999999999997

>  <r_qp_FOSA>  (1163) 
168.155

>  <r_qp_IP(eV)>  (1163) 
8.016

>  <r_qp_Jm>  (1163) 
0.072414005766653106

>  <r_qp_PISA>  (1163) 
424.19200000000001

>  <r_qp_PSA>  (1163) 
42.802

>  <r_qp_PercentHumanOralAbsorption>  (1163) 
100

>  <r_qp_QPPCaco>  (1163) 
687.09299999999996

>  <r_qp_QPPMDCK>  (1163) 
531.08399999999995

>  <r_qp_QPlogBB>  (1163) 
0.0060000000000000001

>  <r_qp_QPlogHERG>  (1163) 
-6.7800000000000002

>  <r_qp_QPlogKhsa>  (1163) 
0.82599999999999996

>  <r_qp_QPlogKp>  (1163) 
-2.3999999999999999

>  <r_qp_QPlogPC16>  (1163) 
14.550000000000001

>  <r_qp_QPlogPo/w>  (1163) 
4.9550000000000001

>  <r_qp_QPlogPoct>  (1163) 
21.771000000000001

>  <r_qp_QPlogPw>  (1163) 
11.467000000000001

>  <r_qp_QPlogS>  (1163) 
-4.3760000000000003

>  <r_qp_QPpolrz>  (1163) 
44.726999999999997

>  <r_qp_SASA>  (1163) 
680.73000000000002

>  <r_qp_SAamideO>  (1163) 
0

>  <r_qp_SAfluorine>  (1163) 
0

>  <r_qp_WPSA>  (1163) 
29.774000000000001

>  <r_qp_accptHB>  (1163) 
4.25

>  <r_qp_dip^2/V>  (1163) 
0.013610300000000001

>  <r_qp_dipole>  (1163) 
4.2039999999999997

>  <r_qp_donorHB>  (1163) 
3

>  <r_qp_glob>  (1163) 
0.84558100000000003

>  <r_qp_mol_MW>  (1163) 
431.964

>  <r_qp_volume>  (1163) 
1298.5170000000001

>  <r_sd_BIOSOLVEIT.INFINISEE\_FTREES\_SIMILARITY>  (1163) 
0.94699999999999995

>  <r_sd_BIOSOLVEIT.LOGP>  (1163) 
2.8946000000000001

>  <r_sd_BIOSOLVEIT.MOLECULAR\_WEIGHT>  (1163) 
433.98000000000002

>  <r_sd_BIOSOLVEIT.TPSA>  (1163) 
50.149999999999999

>  <i_epik_Tot_Q>  (1163) 
0

>  <i_epik_Tot_abs_Q>  (1163) 
2

>  <i_f3d_flags>  (1163) 
0

>  <i_i_glide_confnum>  (1163) 
1

>  <i_i_glide_lignum>  (1163) 
790

>  <i_i_glide_posenum>  (1163) 
11

>  <i_i_glide_rotatable_bonds>  (1163) 
7

>  <i_lp_mmshare_version>  (1163) 
65135

>  <i_m_ct_format>  (1163) 
2

>  <i_m_source_file_index>  (1163) 
2153

>  <i_qp_#NandO>  (1163) 
4

>  <i_qp_#acid>  (1163) 
0

>  <i_qp_#amide>  (1163) 
0

>  <i_qp_#amidine>  (1163) 
0

>  <i_qp_#amine>  (1163) 
1

>  <i_qp_#in34>  (1163) 
0

>  <i_qp_#in56>  (1163) 
22

>  <i_qp_#metab>  (1163) 
8

>  <i_qp_#nonHatm>  (1163) 
31

>  <i_qp_#noncon>  (1163) 
0

>  <i_qp_#ringatoms>  (1163) 
22

>  <i_qp_#rotor>  (1163) 
8

>  <i_qp_#rtvFG>  (1163) 
0

>  <i_qp_#stars>  (1163) 
0

>  <i_qp_CNS>  (1163) 
1

>  <i_qp_HumanOralAbsorption>  (1163) 
3

>  <i_qp_RuleOfFive>  (1163) 
0

>  <i_qp_RuleOfThree>  (1163) 
1

>  <i_sd_BIOSOLVEIT.INFINISEE\_RESULT\_RANK>  (1163) 
416

>  <i_sd_version>  (1163) 
0

>  <b_lp_Chiralities_Consistent>  (1163) 
1

>  <b_sd_chiral_flag>  (1163) 
0

>  <canonical_id>  (1163) 
ATP-HTVS-B976229D01A0

>  <compound_code>  (1163) 
68866

>  <title>  (1163) 
rxn207____EMOL630614____EMOL2873214

>  <variant>  (1163) 
68866-5

>  <source_file>  (1163) 
运行/运行/ATP-VSW/ATP-VSW-DOCK_HTVS_1-002_lib.maegz

>  <canonical_smiles>  (1163) 
CN(C)Cc1cccc(C[NH2+]c2c(Nc3ccccc3)c(Cl)c([O-])c3ccccc23)c1

>  <scaffold>  (1163) 
c1ccc(C[NH2+]c2c(Nc3ccccc3)ccc3ccccc23)cc1

>  <molecular_formula>  (1163) 
C26H26ClN3O

$$$$
ATP-HTVS-B989B97EF6F5
     RDKit          3D

 63 65  0  0  0  0  0  0  0  0999 V2000
  199.0732  186.7626  152.1677 Cl  0  0  0  0  0  0  0  0  0  0  0  0
  198.3452  185.6458  151.0697 C   0  0  0  0  0  0  0  0  0  0  0  0
  197.4680  184.6304  151.5282 C   0  0  0  0  0  0  0  0  0  0  0  0
  196.8823  183.7370  150.6007 C   0  0  0  0  0  0  0  0  0  0  0  0
  195.9795  182.7881  151.0269 O   0  0  0  0  0  0  0  0  0  0  0  0
  196.4237  181.4357  151.0027 C   0  0  1  0  0  0  0  0  0  0  0  0
  197.1918  181.1737  152.2594 C   0  0  0  0  0  0  0  0  0  0  0  0
  196.4587  180.9806  153.3978 O   0  0  0  0  0  0  0  0  0  0  0  0
  197.3568  180.7834  154.4088 C   0  0  0  0  0  0  0  0  0  0  0  0
  198.6266  180.8228  153.9331 C   0  0  0  0  0  0  0  0  0  0  0  0
  198.5247  181.0649  152.5362 C   0  0  0  0  0  0  0  0  0  0  0  0
  196.8254  180.6113  155.7758 C   0  0  1  0  0  0  0  0  0  0  0  0
  196.3318  181.8717  156.3648 N   0  0  1  0  0  0  0  0  0  0  0  0
  195.8840  181.7768  157.7684 C   0  0  1  0  0  0  0  0  0  0  0  0
  195.9126  183.1026  158.5109 C   0  0  0  0  0  0  0  0  0  0  0  0
  194.7280  183.7140  158.9359 C   0  0  0  0  0  0  0  0  0  0  0  0
  194.7677  184.9356  159.6409 C   0  0  0  0  0  0  0  0  0  0  0  0
  195.9994  185.5410  159.9299 C   0  0  0  0  0  0  0  0  0  0  0  0
  197.1805  184.9011  159.5360 C   0  0  0  0  0  0  0  0  0  0  0  0
  197.1547  183.6786  158.8348 C   0  0  0  0  0  0  0  0  0  0  0  0
  196.0152  186.9572  160.4979 C   0  0  1  0  0  0  0  0  0  0  0  0
  196.3877  188.0467  159.5517 N   0  0  1  0  0  0  0  0  0  0  0  0
  196.9823  189.2195  160.2544 C   0  0  1  0  0  0  0  0  0  0  0  0
  195.9680  189.9613  161.1387 C   0  0  2  0  0  0  0  0  0  0  0  0
  197.1961  187.6277  158.3571 C   0  0  1  0  0  0  0  0  0  0  0  0
  196.4227  186.7363  157.3271 C   0  0  2  0  0  0  0  0  0  0  0  0
  197.1826  183.8652  149.2257 C   0  0  0  0  0  0  0  0  0  0  0  0
  198.0443  184.8813  148.7757 C   0  0  0  0  0  0  0  0  0  0  0  0
  198.6230  185.7684  149.6965 C   0  0  0  0  0  0  0  0  0  0  0  0
  197.1567  184.5262  153.0127 C   0  0  2  0  0  0  0  0  0  0  0  0
  197.1118  182.4999  156.3223 H   0  0  0  0  0  0  0  0  0  0  0  0
  195.5556  180.7756  150.9629 H   0  0  0  0  0  0  0  0  0  0  0  0
  197.0271  181.2204  150.1222 H   0  0  0  0  0  0  0  0  0  0  0  0
  199.5286  180.7016  154.5176 H   0  0  0  0  0  0  0  0  0  0  0  0
  199.3286  181.1697  151.8222 H   0  0  0  0  0  0  0  0  0  0  0  0
  196.0727  179.8259  155.7333 H   0  0  0  0  0  0  0  0  0  0  0  0
  197.5395  180.1354  156.4229 H   0  0  0  0  0  0  0  0  0  0  0  0
  194.8797  181.3580  157.8106 H   0  0  0  0  0  0  0  0  0  0  0  0
  196.5339  181.1056  158.3233 H   0  0  0  0  0  0  0  0  0  0  0  0
  193.7632  183.3074  158.6579 H   0  0  0  0  0  0  0  0  0  0  0  0
  193.8493  185.4477  159.8603 H   0  0  0  0  0  0  0  0  0  0  0  0
  198.1569  185.3374  159.7426 H   0  0  0  0  0  0  0  0  0  0  0  0
  198.0718  183.2796  158.4401 H   0  0  0  0  0  0  0  0  0  0  0  0
  195.0734  187.1838  160.9695 H   0  0  0  0  0  0  0  0  0  0  0  0
  196.7458  186.9475  161.3059 H   0  0  0  0  0  0  0  0  0  0  0  0
  197.8450  188.9204  160.8504 H   0  0  0  0  0  0  0  0  0  0  0  0
  197.3679  189.9433  159.5342 H   0  0  0  0  0  0  0  0  0  0  0  0
  196.4288  190.8060  161.6547 H   0  0  0  0  0  0  0  0  0  0  0  0
  195.5425  189.3114  161.9004 H   0  0  0  0  0  0  0  0  0  0  0  0
  195.1515  190.3584  160.5365 H   0  0  0  0  0  0  0  0  0  0  0  0
  197.5412  188.5341  157.8266 H   0  0  0  0  0  0  0  0  0  0  0  0
  198.1332  187.1760  158.7195 H   0  0  0  0  0  0  0  0  0  0  0  0
  197.1165  186.3948  156.5458 H   0  0  0  0  0  0  0  0  0  0  0  0
  195.5507  187.2635  156.9221 H   0  0  0  0  0  0  0  0  0  0  0  0
  196.0311  185.8057  157.7518 H   0  0  0  0  0  0  0  0  0  0  0  0
  196.7396  183.2018  148.5019 H   0  0  0  0  0  0  0  0  0  0  0  0
  198.2597  184.9817  147.7226 H   0  0  0  0  0  0  0  0  0  0  0  0
  199.2893  186.5455  149.3491 H   0  0  0  0  0  0  0  0  0  0  0  0
  196.3516  183.8229  153.2204 H   0  0  0  0  0  0  0  0  0  0  0  0
  196.8530  185.4933  153.4144 H   0  0  0  0  0  0  0  0  0  0  0  0
  198.0414  184.1855  153.5489 H   0  0  0  0  0  0  0  0  0  0  0  0
  195.5206  188.3890  159.1810 H   0  0  0  0  0  0  0  0  0  0  0  0
  195.5661  182.2361  155.8083 H   0  0  0  0  0  0  0  0  0  0  0  0
  1  2  1  0
  2  3  2  0
  2 29  1  0
  3  4  1  0
  3 30  1  0
  4  5  1  0
  4 27  2  0
  5  6  1  0
  6  7  1  0
  6 32  1  1
  6 33  1  0
  7  8  1  0
  7 11  2  0
  8  9  1  0
  9 10  2  0
  9 12  1  0
 10 11  1  0
 10 34  1  0
 11 35  1  0
 12 13  1  0
 12 36  1  6
 12 37  1  0
 13 14  1  0
 13 31  1  1
 13 63  1  0
 14 15  1  0
 14 38  1  6
 14 39  1  0
 15 16  1  0
 15 20  2  0
 16 17  2  0
 16 40  1  0
 17 18  1  0
 17 41  1  0
 18 19  2  0
 18 21  1  0
 19 20  1  0
 19 42  1  0
 20 43  1  0
 21 22  1  0
 21 44  1  1
 21 45  1  0
 22 23  1  0
 22 25  1  0
 22 62  1  6
 23 24  1  0
 23 46  1  1
 23 47  1  0
 24 48  1  1
 24 49  1  0
 24 50  1  0
 25 26  1  0
 25 51  1  6
 25 52  1  0
 26 53  1  6
 26 54  1  0
 26 55  1  0
 27 28  1  0
 27 56  1  0
 28 29  2  0
 28 57  1  0
 29 58  1  0
 30 59  1  6
 30 60  1  0
 30 61  1  0
M  CHG  2  13   1  22   1
M  END
>  <s_epik_cmdline>  (1164) 
J2VwaWtfcHl0aG9uJywgJy1waCcsICc3LjAwMDAwMCcsICctcGh0JywgJzIuMDAwMDAwJywgJy1tcycsICcxNicsICctdG4nLCAnOCcsICctbWEnLCAnMjAwJywgJy1pbWFlJywgJzxpbmZpbGUubWFlPicsICctb21hZScsICc8b3V0ZmlsZS5tYWU+Jw==

>  <s_epik_input>  (1164) 
Q2xjMWMoW0NIM10pYyhbY0hdW2NIXVtjSF0xKU9bQ0gyXWMyb2MoW2NIXVtjSF0yKVtDSDJdW05IXVtDSDJdYzNbY0hdW2NIXWMoW2NIXVtjSF0zKVtDSDJdTihbQ0gyXVtDSDNdKVtDSDJdW0NIM10=

>  <s_i_glide_gridfile>  (1164) 
ATP-Grid

>  <s_lp_Force_Field>  (1164) 
OPLS_2005

>  <s_lp_Variant>  (1164) 
m_270004bbb____8288962____24714512-1

>  <s_lp_label>  (1164) 
1126_sdstereoexpander_1_neutralizer_1_epik_1_stereoizer_1

>  <s_m_source_file>  (1164) 
ATP-VSW-LIGPREP-002-in.maegz

>  <s_sd_BIOSOLVEIT.INFINISEE\_QUERY\_NAME>  (1164) 
Ref-Lig

>  <s_sd_BIOSOLVEIT.INFINISEE\_QUERY\_SMILES>  (1164) 
S(c1nc2c(cc1C[NH2+]Cc3ccc(cc3)C[NH+](C)C)cccc2)Cc4ccccc4

>  <s_sd_BIOSOLVEIT.INFINISEE\_REACTION\_NAME>  (1164) 
m_270004bbb

>  <s_sd_BIOSOLVEIT.INFINISEE\_REAGENT1\_SMILES>  (1164) 
[R1*]NCc1ccc(cc1)CN(CC)CC

>  <s_sd_BIOSOLVEIT.INFINISEE\_REAGENT2\_SMILES>  (1164) 
[R1*]CC=1OC(=CC1)COc2c(c(Cl)ccc2)C

>  <s_sd_BIOSOLVEIT.INFINISEE\_SPACE>  (1164) 
REALSpace_44bn_2023-08

>  <s_vsw_compound_code>  (1164) 
36002

>  <s_vsw_variant>  (1164) 
36002-1

>  <r_epik_Charging_Adjusted_Penalty>  (1164) 
0.11326414716883999

>  <r_epik_Ionization_Penalty>  (1164) 
0.056599999999999998

>  <r_epik_Ionization_Penalty_Charging>  (1164) 
0.056599999999999998

>  <r_epik_Ionization_Penalty_Neutral>  (1164) 
0

>  <r_epik_State_Penalty>  (1164) 
0.056599999999999998

>  <r_i_docking_score>  (1164) 
-5.9856653000256603

>  <r_i_glide_ecoul>  (1164) 
-11.9848880767822

>  <r_i_glide_eff_state_penalty>  (1164) 
0.056599999999999998

>  <r_i_glide_einternal>  (1164) 
10.3739261627197

>  <r_i_glide_emodel>  (1164) 
-74.386325420245598

>  <r_i_glide_energy>  (1164) 
-50.596948623657198

>  <r_i_glide_erotb>  (1164) 
0.97164106095005898

>  <r_i_glide_esite>  (1164) 
-0.0878538412544492

>  <r_i_glide_evdw>  (1164) 
-38.612060546875

>  <r_i_glide_gscore>  (1164) 
-6.0422653000256599

>  <r_i_glide_hbond>  (1164) 
-0.20000000000000001

>  <r_i_glide_ligand_efficiency>  (1164) 
-0.19952217666752201

>  <r_i_glide_ligand_efficiency_ln>  (1164) 
-1.36000837521291

>  <r_i_glide_ligand_efficiency_sa>  (1164) 
-0.61996179229712201

>  <r_i_glide_lipo>  (1164) 
-2.5135873263147301

>  <r_i_glide_metal>  (1164) 
-0

>  <r_i_glide_rewards>  (1164) 
-0.48412895454545302

>  <r_lp_Energy>  (1164) 
16.222718

>  <r_lp_tautomer_probability>  (1164) 
1

>  <r_qp_ACxDN^.5/SA>  (1164) 
0.0071289999999999999

>  <r_qp_CIQPlogS>  (1164) 
-4.9269999999999996

>  <r_qp_EA(eV)>  (1164) 
0.13800000000000001

>  <r_qp_FISA>  (1164) 
22.359999999999999

>  <r_qp_FOSA>  (1164) 
349.13999999999999

>  <r_qp_IP(eV)>  (1164) 
8.9939999999999998

>  <r_qp_Jm>  (1164) 
0.069491896883894497

>  <r_qp_PISA>  (1164) 
245.465

>  <r_qp_PSA>  (1164) 
28.696999999999999

>  <r_qp_PercentHumanOralAbsorption>  (1164) 
100

>  <r_qp_QPPCaco>  (1164) 
378.14699999999999

>  <r_qp_QPPMDCK>  (1164) 
394.28199999999998

>  <r_qp_QPlogBB>  (1164) 
0.623

>  <r_qp_QPlogHERG>  (1164) 
-6.2220000000000004

>  <r_qp_QPlogKhsa>  (1164) 
0.82899999999999996

>  <r_qp_QPlogKp>  (1164) 
-4.1360000000000001

>  <r_qp_QPlogPC16>  (1164) 
12.887

>  <r_qp_QPlogPo/w>  (1164) 
4.8600000000000003

>  <r_qp_QPlogPoct>  (1164) 
17.678999999999998

>  <r_qp_QPlogPw>  (1164) 
6.8780000000000001

>  <r_qp_QPlogS>  (1164) 
-2.6520000000000001

>  <r_qp_QPpolrz>  (1164) 
41.850999999999999

>  <r_qp_SASA>  (1164) 
666.28899999999999

>  <r_qp_SAamideO>  (1164) 
0

>  <r_qp_SAfluorine>  (1164) 
0

>  <r_qp_WPSA>  (1164) 
49.323999999999998

>  <r_qp_accptHB>  (1164) 
4.75

>  <r_qp_dip^2/V>  (1164) 
0.0072916999999999999

>  <r_qp_dipole>  (1164) 
3.0990000000000002

>  <r_qp_donorHB>  (1164) 
1

>  <r_qp_glob>  (1164) 
0.87227710000000003

>  <r_qp_mol_MW>  (1164) 
426.98500000000001

>  <r_qp_volume>  (1164) 
1317.431

>  <r_sd_BIOSOLVEIT.INFINISEE\_FTREES\_SIMILARITY>  (1164) 
0.91300000000000003

>  <r_sd_BIOSOLVEIT.LOGP>  (1164) 
3.5087199999999998

>  <r_sd_BIOSOLVEIT.MOLECULAR\_WEIGHT>  (1164) 
429.00099999999998

>  <r_sd_BIOSOLVEIT.TPSA>  (1164) 
43.420000000000002

>  <i_epik_Tot_Q>  (1164) 
2

>  <i_epik_Tot_abs_Q>  (1164) 
2

>  <i_f3d_flags>  (1164) 
0

>  <i_i_glide_confnum>  (1164) 
1

>  <i_i_glide_lignum>  (1164) 
379

>  <i_i_glide_posenum>  (1164) 
14

>  <i_i_glide_rotatable_bonds>  (1164) 
11

>  <i_lp_mmshare_version>  (1164) 
65135

>  <i_m_ct_format>  (1164) 
2

>  <i_m_source_file_index>  (1164) 
1126

>  <i_qp_#NandO>  (1164) 
4

>  <i_qp_#acid>  (1164) 
0

>  <i_qp_#amide>  (1164) 
0

>  <i_qp_#amidine>  (1164) 
0

>  <i_qp_#amine>  (1164) 
2

>  <i_qp_#in34>  (1164) 
0

>  <i_qp_#in56>  (1164) 
17

>  <i_qp_#metab>  (1164) 
9

>  <i_qp_#nonHatm>  (1164) 
30

>  <i_qp_#noncon>  (1164) 
0

>  <i_qp_#ringatoms>  (1164) 
17

>  <i_qp_#rotor>  (1164) 
11

>  <i_qp_#rtvFG>  (1164) 
0

>  <i_qp_#stars>  (1164) 
1

>  <i_qp_CNS>  (1164) 
2

>  <i_qp_HumanOralAbsorption>  (1164) 
3

>  <i_qp_RuleOfFive>  (1164) 
0

>  <i_qp_RuleOfThree>  (1164) 
1

>  <i_sd_BIOSOLVEIT.INFINISEE\_REAGENT1\_NAME>  (1164) 
8288962

>  <i_sd_BIOSOLVEIT.INFINISEE\_REAGENT2\_NAME>  (1164) 
24714512

>  <i_sd_BIOSOLVEIT.INFINISEE\_RESULT\_RANK>  (1164) 
35113

>  <i_sd_version>  (1164) 
0

>  <b_lp_Chiralities_Consistent>  (1164) 
1

>  <b_sd_chiral_flag>  (1164) 
0

>  <canonical_id>  (1164) 
ATP-HTVS-B989B97EF6F5

>  <compound_code>  (1164) 
36002

>  <title>  (1164) 
m_270004bbb____8288962____24714512

>  <variant>  (1164) 
36002-1

>  <source_file>  (1164) 
运行/运行/ATP-VSW/ATP-VSW-DOCK_HTVS_1-002_lib.maegz

>  <canonical_smiles>  (1164) 
CC[NH+](CC)Cc1ccc(C[NH2+]Cc2ccc(COc3cccc(Cl)c3C)o2)cc1

>  <scaffold>  (1164) 
c1ccc(C[NH2+]Cc2ccc(COc3ccccc3)o2)cc1

>  <molecular_formula>  (1164) 
C25H33ClN2O2+2

$$$$
ATP-HTVS-B99F6A8D80C4
     RDKit          3D

 58 61  0  0  0  0  0  0  0  0999 V2000
  196.3015  180.0594  150.7532 S   0  0  0  0  0  0  0  0  0  0  0  0
  196.7626  181.7245  151.0779 C   0  0  0  0  0  0  0  0  0  0  0  0
  196.9800  181.9386  152.4807 C   0  0  0  0  0  0  0  0  0  0  0  0
  197.3796  183.2479  152.8521 C   0  0  0  0  0  0  0  0  0  0  0  0
  197.5468  184.2816  151.9177 C   0  0  0  0  0  0  0  0  0  0  0  0
  197.3304  184.0368  150.5521 C   0  0  0  0  0  0  0  0  0  0  0  0
  196.9421  182.7545  150.1342 C   0  0  0  0  0  0  0  0  0  0  0  0
  196.7613  180.7257  153.2617 C   0  0  0  0  0  0  0  0  0  0  0  0
  196.3648  179.6863  152.4470 C   0  0  0  0  0  0  0  0  0  0  0  0
  196.9524  180.5612  154.7496 C   0  0  2  0  0  0  0  0  0  0  0  0
  196.9740  181.7444  155.6014 N   0  0  0  0  0  0  0  0  0  0  0  0
  196.8773  181.4524  157.0291 C   0  0  1  0  0  0  0  0  0  0  0  0
  197.2906  182.6372  157.8984 C   0  0  0  0  0  0  0  0  0  0  0  0
  198.4896  182.9179  157.9691 O   0  0  0  0  0  0  0  0  0  0  0  0
  196.2632  183.4110  158.6301 C   0  0  0  0  0  0  0  0  0  0  0  0
  194.8830  183.1133  158.5342 C   0  0  0  0  0  0  0  0  0  0  0  0
  193.9410  183.8713  159.2345 C   0  0  0  0  0  0  0  0  0  0  0  0
  194.3475  184.9452  160.0511 C   0  0  0  0  0  0  0  0  0  0  0  0
  195.7131  185.2612  160.1537 C   0  0  0  0  0  0  0  0  0  0  0  0
  196.6679  184.4912  159.4543 C   0  0  0  0  0  0  0  0  0  0  0  0
  198.1558  179.7402  154.9843 C   0  0  0  0  0  0  0  0  0  0  0  0
  199.1558  179.1120  155.2817 C   0  0  0  0  0  0  0  0  0  0  0  0
  200.3886  178.4178  155.6945 C   0  0  1  0  0  0  0  0  0  0  0  0
  200.3598  177.0224  155.2596 N   0  0  0  0  0  0  0  0  0  0  0  0
  201.6709  176.3997  155.4076 C   0  0  2  0  0  0  0  0  0  0  0  0
  201.8615  175.2827  154.3891 C   0  0  0  0  0  0  0  0  0  0  0  0
  202.7659  175.4409  153.3144 C   0  0  0  0  0  0  0  0  0  0  0  0
  202.9708  174.3894  152.3977 C   0  0  0  0  0  0  0  0  0  0  0  0
  202.2715  173.1803  152.5410 C   0  0  0  0  0  0  0  0  0  0  0  0
  202.4670  172.1730  151.6560 F   0  0  0  0  0  0  0  0  0  0  0  0
  201.3622  173.0181  153.6006 C   0  0  0  0  0  0  0  0  0  0  0  0
  201.1497  174.0672  154.5139 C   0  0  0  0  0  0  0  0  0  0  0  0
  201.8755  175.9046  156.8385 C   0  0  2  0  0  0  0  0  0  0  0  0
  196.1918  182.3386  155.3389 H   0  0  0  0  0  0  0  0  0  0  0  0
  199.7047  176.5823  155.8903 H   0  0  0  0  0  0  0  0  0  0  0  0
  197.5763  183.4876  153.8871 H   0  0  0  0  0  0  0  0  0  0  0  0
  197.8486  185.2609  152.2606 H   0  0  0  0  0  0  0  0  0  0  0  0
  197.4763  184.8295  149.8333 H   0  0  0  0  0  0  0  0  0  0  0  0
  196.7892  182.5529  149.0839 H   0  0  0  0  0  0  0  0  0  0  0  0
  196.1396  178.6740  152.7596 H   0  0  0  0  0  0  0  0  0  0  0  0
  196.1210  179.9594  155.1130 H   0  0  0  0  0  0  0  0  0  0  0  0
  195.8890  181.0601  157.2039 H   0  0  0  0  0  0  0  0  0  0  0  0
  197.5602  180.6525  157.3257 H   0  0  0  0  0  0  0  0  0  0  0  0
  194.4826  182.3349  157.9031 H   0  0  0  0  0  0  0  0  0  0  0  0
  192.8925  183.6349  159.1206 H   0  0  0  0  0  0  0  0  0  0  0  0
  193.5972  185.5306  160.5659 H   0  0  0  0  0  0  0  0  0  0  0  0
  196.0299  186.0948  160.7722 H   0  0  0  0  0  0  0  0  0  0  0  0
  197.7149  184.7544  159.5511 H   0  0  0  0  0  0  0  0  0  0  0  0
  201.2140  178.9576  155.2285 H   0  0  0  0  0  0  0  0  0  0  0  0
  200.4992  178.4913  156.7727 H   0  0  0  0  0  0  0  0  0  0  0  0
  202.4358  177.1471  155.1741 H   0  0  0  0  0  0  0  0  0  0  0  0
  203.3101  176.3686  153.1922 H   0  0  0  0  0  0  0  0  0  0  0  0
  203.6747  174.5088  151.5814 H   0  0  0  0  0  0  0  0  0  0  0  0
  200.8295  172.0858  153.7169 H   0  0  0  0  0  0  0  0  0  0  0  0
  200.4444  173.9280  155.3214 H   0  0  0  0  0  0  0  0  0  0  0  0
  202.8605  175.4463  156.9397 H   0  0  0  0  0  0  0  0  0  0  0  0
  201.1471  175.1478  157.1283 H   0  0  0  0  0  0  0  0  0  0  0  0
  201.8111  176.7153  157.5665 H   0  0  0  0  0  0  0  0  0  0  0  0
  1  2  1  0
  1  9  1  0
  2  3  1  0
  2  7  2  0
  3  4  2  0
  3  8  1  0
  4  5  1  0
  4 36  1  0
  5  6  2  0
  5 37  1  0
  6  7  1  0
  6 38  1  0
  7 39  1  0
  8  9  2  0
  8 10  1  0
  9 40  1  0
 10 11  1  0
 10 21  1  0
 10 41  1  1
 11 12  1  0
 11 34  1  0
 12 13  1  0
 12 42  1  1
 12 43  1  0
 13 14  2  0
 13 15  1  0
 15 16  2  0
 15 20  1  0
 16 17  1  0
 16 44  1  0
 17 18  2  0
 17 45  1  0
 18 19  1  0
 18 46  1  0
 19 20  2  0
 19 47  1  0
 20 48  1  0
 21 22  3  0
 22 23  1  0
 23 24  1  0
 23 49  1  6
 23 50  1  0
 24 25  1  0
 24 35  1  0
 25 26  1  0
 25 33  1  0
 25 51  1  6
 26 27  1  0
 26 32  2  0
 27 28  2  0
 27 52  1  0
 28 29  1  0
 28 53  1  0
 29 30  1  0
 29 31  2  0
 31 32  1  0
 31 54  1  0
 32 55  1  0
 33 56  1  6
 33 57  1  0
 33 58  1  0
M  END
>  <s_epik_cmdline>  (1165) 
J2VwaWtfcHl0aG9uJywgJy1waCcsICc3LjAwMDAwMCcsICctcGh0JywgJzIuMDAwMDAwJywgJy1tcycsICcxNicsICctdG4nLCAnOCcsICctbWEnLCAnMjAwJywgJy1pbWFlJywgJzxpbmZpbGUubWFlPicsICctb21hZScsICc8b3V0ZmlsZS5tYWU+Jw==

>  <s_epik_input>  (1165) 
W2NIXTFbY0hdW2NIXVtjSF1bY0hdYzFDKD1PKVtDSDJdW05IXVtDQEBIXShjKFtjSF1zMiljKGMyMylbY0hdW2NIXVtjSF1bY0hdMylDI0NbQ0gyXVtOSF1bQ0BASF0oW0NIM10pYzRbY0hdW2NIXWMoRilbY0hdW2NIXTQ=

>  <s_i_glide_gridfile>  (1165) 
ATP-Grid

>  <s_lp_Force_Field>  (1165) 
OPLS_2005

>  <s_lp_Variant>  (1165) 
rxn403____EMOL530587____EMOL514874____EMOL317506007-3

>  <s_lp_label>  (1165) 
2588_sdstereoexpander_3_neutralizer_1_epik_1_stereoizer_1

>  <s_m_source_file>  (1165) 
ATP-VSW-LIGPREP-002-in.maegz

>  <s_sd_BIOSOLVEIT.INFINISEE\_QUERY\_NAME>  (1165) 
Ref-Lig

>  <s_sd_BIOSOLVEIT.INFINISEE\_QUERY\_SMILES>  (1165) 
S(c1nc2c(cc1C[NH2+]Cc3ccc(cc3)C[NH+](C)C)cccc2)Cc4ccccc4

>  <s_sd_BIOSOLVEIT.INFINISEE\_REACTION\_NAME>  (1165) 
rxn403

>  <s_sd_BIOSOLVEIT.INFINISEE\_REAGENT1\_NAME>  (1165) 
EMOL530587

>  <s_sd_BIOSOLVEIT.INFINISEE\_REAGENT1\_SMILES>  (1165) 
O=C(c1ccccc1)CN

>  <s_sd_BIOSOLVEIT.INFINISEE\_REAGENT2\_NAME>  (1165) 
EMOL514874

>  <s_sd_BIOSOLVEIT.INFINISEE\_REAGENT2\_SMILES>  (1165) 
S1c2c(cccc2)C(=C1)C=O

>  <s_sd_BIOSOLVEIT.INFINISEE\_REAGENT3\_NAME>  (1165) 
EMOL317506007

>  <s_sd_BIOSOLVEIT.INFINISEE\_REAGENT3\_SMILES>  (1165) 
Fc1ccc(cc1)C(NCC#C)C

>  <s_sd_BIOSOLVEIT.INFINISEE\_SPACE>  (1165) 
eXplore_7tr_2022-12

>  <s_vsw_compound_code>  (1165) 
82786

>  <s_vsw_variant>  (1165) 
82786-3

>  <r_epik_Charging_Adjusted_Penalty>  (1165) 
0.28118642477926198

>  <r_epik_Ionization_Penalty>  (1165) 
0.28110000000000002

>  <r_epik_Ionization_Penalty_Charging>  (1165) 
0

>  <r_epik_Ionization_Penalty_Neutral>  (1165) 
0.28110000000000002

>  <r_epik_State_Penalty>  (1165) 
0.28120000000000001

>  <r_i_docking_score>  (1165) 
-3.96977830419514

>  <r_i_glide_ecoul>  (1165) 
-3.0087513923645002

>  <r_i_glide_eff_state_penalty>  (1165) 
0.28120000000000001

>  <r_i_glide_einternal>  (1165) 
6.8668661117553702

>  <r_i_glide_emodel>  (1165) 
-56.8134182093237

>  <r_i_glide_energy>  (1165) 
-46.788891315460198

>  <r_i_glide_erotb>  (1165) 
0.67488189414781397

>  <r_i_glide_esite>  (1165) 
-0.090553712794741906

>  <r_i_glide_evdw>  (1165) 
-43.780139923095703

>  <r_i_glide_gscore>  (1165) 
-4.2509783041951401

>  <r_i_glide_hbond>  (1165) 
0

>  <r_i_glide_ligand_efficiency>  (1165) 
-0.12029631224833801

>  <r_i_glide_ligand_efficiency_ln>  (1165) 
-0.88285814044098798

>  <r_i_glide_ligand_efficiency_sa>  (1165) 
-0.385854550858726

>  <r_i_glide_lipo>  (1165) 
-1.8989093009933

>  <r_i_glide_metal>  (1165) 
-0

>  <r_i_glide_rewards>  (1165) 
-0.29607747954545399

>  <r_lp_Energy>  (1165) 
27.198291000000001

>  <r_lp_tautomer_probability>  (1165) 
0.99990000499974996

>  <r_qp_ACxDN^.5/SA>  (1165) 
0.0097873999999999999

>  <r_qp_CIQPlogS>  (1165) 
-5.5800000000000001

>  <r_qp_EA(eV)>  (1165) 
0.65800000000000003

>  <r_qp_FISA>  (1165) 
73.028999999999996

>  <r_qp_FOSA>  (1165) 
154.03

>  <r_qp_IP(eV)>  (1165) 
8.7810000000000006

>  <r_qp_Jm>  (1165) 
0.00319338233445138

>  <r_qp_PISA>  (1165) 
435.54899999999998

>  <r_qp_PSA>  (1165) 
52.869999999999997

>  <r_qp_PercentHumanOralAbsorption>  (1165) 
93.474999999999994

>  <r_qp_QPPCaco>  (1165) 
125.075

>  <r_qp_QPPMDCK>  (1165) 
136.19900000000001

>  <r_qp_QPlogBB>  (1165) 
0.20499999999999999

>  <r_qp_QPlogHERG>  (1165) 
-7.742

>  <r_qp_QPlogKhsa>  (1165) 
0.94999999999999996

>  <r_qp_QPlogKp>  (1165) 
-4.4960000000000004

>  <r_qp_QPlogPC16>  (1165) 
15.276

>  <r_qp_QPlogPo/w>  (1165) 
4.952

>  <r_qp_QPlogPoct>  (1165) 
21.611000000000001

>  <r_qp_QPlogPw>  (1165) 
10.586

>  <r_qp_QPlogS>  (1165) 
-3.6589999999999998

>  <r_qp_QPpolrz>  (1165) 
47.274000000000001

>  <r_qp_SASA>  (1165) 
722.46799999999996

>  <r_qp_SAamideO>  (1165) 
0

>  <r_qp_SAfluorine>  (1165) 
20.353999999999999

>  <r_qp_WPSA>  (1165) 
59.860999999999997

>  <r_qp_accptHB>  (1165) 
5

>  <r_qp_dip^2/V>  (1165) 
0.0012599

>  <r_qp_dipole>  (1165) 
1.3240000000000001

>  <r_qp_donorHB>  (1165) 
2

>  <r_qp_glob>  (1165) 
0.83433729999999995

>  <r_qp_mol_MW>  (1165) 
456.577

>  <r_qp_volume>  (1165) 
1391.5319999999999

>  <r_sd_BIOSOLVEIT.INFINISEE\_FTREES\_SIMILARITY>  (1165) 
0.91100000000000003

>  <r_sd_BIOSOLVEIT.LOGP>  (1165) 
3.8557999999999999

>  <r_sd_BIOSOLVEIT.MOLECULAR\_WEIGHT>  (1165) 
458.59699999999998

>  <r_sd_BIOSOLVEIT.TPSA>  (1165) 
50.289999999999999

>  <i_epik_Tot_Q>  (1165) 
0

>  <i_epik_Tot_abs_Q>  (1165) 
0

>  <i_f3d_flags>  (1165) 
0

>  <i_i_glide_confnum>  (1165) 
9

>  <i_i_glide_lignum>  (1165) 
1167

>  <i_i_glide_posenum>  (1165) 
7

>  <i_i_glide_rotatable_bonds>  (1165) 
10

>  <i_lp_mmshare_version>  (1165) 
65135

>  <i_m_ct_format>  (1165) 
2

>  <i_m_source_file_index>  (1165) 
2588

>  <i_qp_#NandO>  (1165) 
3

>  <i_qp_#acid>  (1165) 
0

>  <i_qp_#amide>  (1165) 
0

>  <i_qp_#amidine>  (1165) 
0

>  <i_qp_#amine>  (1165) 
2

>  <i_qp_#in34>  (1165) 
0

>  <i_qp_#in56>  (1165) 
21

>  <i_qp_#metab>  (1165) 
7

>  <i_qp_#nonHatm>  (1165) 
33

>  <i_qp_#noncon>  (1165) 
0

>  <i_qp_#ringatoms>  (1165) 
21

>  <i_qp_#rotor>  (1165) 
10

>  <i_qp_#rtvFG>  (1165) 
0

>  <i_qp_#stars>  (1165) 
0

>  <i_qp_CNS>  (1165) 
1

>  <i_qp_HumanOralAbsorption>  (1165) 
3

>  <i_qp_RuleOfFive>  (1165) 
0

>  <i_qp_RuleOfThree>  (1165) 
1

>  <i_sd_BIOSOLVEIT.INFINISEE\_RESULT\_RANK>  (1165) 
40274

>  <i_sd_version>  (1165) 
0

>  <b_lp_Chiralities_Consistent>  (1165) 
1

>  <b_sd_chiral_flag>  (1165) 
0

>  <canonical_id>  (1165) 
ATP-HTVS-B99F6A8D80C4

>  <compound_code>  (1165) 
82786

>  <title>  (1165) 
rxn403____EMOL530587____EMOL514874____EMOL317506007

>  <variant>  (1165) 
82786-3

>  <source_file>  (1165) 
运行/运行/ATP-VSW/ATP-VSW-DOCK_HTVS_1-002_lib.maegz

>  <canonical_smiles>  (1165) 
C[C@H](NCC#C[C@@H](NCC(=O)c1ccccc1)c1csc2ccccc12)c1ccc(F)cc1

>  <scaffold>  (1165) 
O=C(CNC(C#CCNCc1ccccc1)c1csc2ccccc12)c1ccccc1

>  <molecular_formula>  (1165) 
C28H25FN2OS

$$$$
ATP-HTVS-B9C46F2E092C
     RDKit          3D

 58 61  0  0  0  0  0  0  0  0999 V2000
  197.5447  177.8554  148.5062 Cl  0  0  0  0  0  0  0  0  0  0  0  0
  197.4258  178.8104  149.9391 C   0  0  0  0  0  0  0  0  0  0  0  0
  198.2663  178.5474  151.0350 C   0  0  0  0  0  0  0  0  0  0  0  0
  198.1548  179.3163  152.2086 C   0  0  0  0  0  0  0  0  0  0  0  0
  197.2089  180.3630  152.3021 C   0  0  0  0  0  0  0  0  0  0  0  0
  196.3526  180.6070  151.2042 C   0  0  0  0  0  0  0  0  0  0  0  0
  196.4649  179.8358  150.0276 C   0  0  0  0  0  0  0  0  0  0  0  0
  197.1159  181.1962  153.5238 C   0  0  0  0  0  0  0  0  0  0  0  0
  197.9127  181.1019  154.5132 N   0  0  0  0  0  0  0  0  0  0  0  0
  197.7423  181.8523  155.6880 N   0  0  0  0  0  0  0  0  0  0  0  0
  198.7612  182.1359  156.5170 C   0  0  0  0  0  0  0  0  0  0  0  0
  198.2404  182.8023  157.5484 N   0  0  0  0  0  0  0  0  0  0  0  0
  196.8973  182.9415  157.3671 C   0  0  0  0  0  0  0  0  0  0  0  0
  196.0450  183.6544  158.3225 C   0  0  0  0  0  0  0  0  0  0  0  0
  194.6744  183.3423  158.4177 C   0  0  0  0  0  0  0  0  0  0  0  0
  193.8399  184.0280  159.3111 C   0  0  0  0  0  0  0  0  0  0  0  0
  194.3671  185.0415  160.1319 C   0  0  0  0  0  0  0  0  0  0  0  0
  195.7356  185.3537  160.0678 C   0  0  0  0  0  0  0  0  0  0  0  0
  196.5657  184.6705  159.1603 C   0  0  0  0  0  0  0  0  0  0  0  0
  196.5527  182.3082  156.1938 C   0  0  0  0  0  0  0  0  0  0  0  0
  200.0397  181.7874  156.3634 N   0  0  0  0  0  0  0  0  0  0  0  0
  200.9952  181.6610  157.3839 C   0  0  0  0  0  0  0  0  0  0  0  0
  201.7267  180.4588  157.5153 C   0  0  0  0  0  0  0  0  0  0  0  0
  202.6882  180.3437  158.5483 C   0  0  0  0  0  0  0  0  0  0  0  0
  202.9269  181.4079  159.4374 C   0  0  0  0  0  0  0  0  0  0  0  0
  202.1967  182.6001  159.3053 C   0  0  0  0  0  0  0  0  0  0  0  0
  201.2376  182.7258  158.2836 C   0  0  0  0  0  0  0  0  0  0  0  0
  201.5284  179.2969  156.5376 C   0  0  1  0  0  0  0  0  0  0  0  0
  202.7462  179.0461  155.7209 N   0  0  2  0  0  0  0  0  0  0  0  0
  203.3299  180.2752  155.1161 C   0  0  2  0  0  0  0  0  0  0  0  0
  202.5620  177.9899  154.6988 C   0  0  2  0  0  0  0  0  0  0  0  0
  201.1797  178.0437  157.2277 C   0  0  0  0  0  0  0  0  0  0  0  0
  200.9102  177.0532  157.7618 N   0  0  0  0  0  0  0  0  0  0  0  0
  198.9925  177.7512  150.9743 H   0  0  0  0  0  0  0  0  0  0  0  0
  198.8150  179.0911  153.0323 H   0  0  0  0  0  0  0  0  0  0  0  0
  195.6188  181.3982  151.2514 H   0  0  0  0  0  0  0  0  0  0  0  0
  195.8176  180.0242  149.1841 H   0  0  0  0  0  0  0  0  0  0  0  0
  196.3018  181.9246  153.5393 H   0  0  0  0  0  0  0  0  0  0  0  0
  194.2433  182.5868  157.7713 H   0  0  0  0  0  0  0  0  0  0  0  0
  192.7814  183.8059  159.3371 H   0  0  0  0  0  0  0  0  0  0  0  0
  193.7168  185.5730  160.8102 H   0  0  0  0  0  0  0  0  0  0  0  0
  196.1443  186.1336  160.6964 H   0  0  0  0  0  0  0  0  0  0  0  0
  197.6088  184.9433  159.1006 H   0  0  0  0  0  0  0  0  0  0  0  0
  195.5883  182.1762  155.7190 H   0  0  0  0  0  0  0  0  0  0  0  0
  200.2628  181.3000  155.5102 H   0  0  0  0  0  0  0  0  0  0  0  0
  203.2777  179.4424  158.6406 H   0  0  0  0  0  0  0  0  0  0  0  0
  203.6923  181.3299  160.2007 H   0  0  0  0  0  0  0  0  0  0  0  0
  202.3910  183.4316  159.9666 H   0  0  0  0  0  0  0  0  0  0  0  0
  200.7291  183.6724  158.1738 H   0  0  0  0  0  0  0  0  0  0  0  0
  202.6275  180.7127  154.4063 H   0  0  0  0  0  0  0  0  0  0  0  0
  204.2524  180.0497  154.5840 H   0  0  0  0  0  0  0  0  0  0  0  0
  203.5869  181.0467  155.8390 H   0  0  0  0  0  0  0  0  0  0  0  0
  201.8062  178.2814  153.9664 H   0  0  0  0  0  0  0  0  0  0  0  0
  202.2659  177.0364  155.1353 H   0  0  0  0  0  0  0  0  0  0  0  0
  203.4953  177.8146  154.1682 H   0  0  0  0  0  0  0  0  0  0  0  0
  200.6928  179.4639  155.8522 H   0  0  0  0  0  0  0  0  0  0  0  0
  198.7576  183.1405  158.3482 H   0  0  0  0  0  0  0  0  0  0  0  0
  203.4313  178.6676  156.3761 H   0  0  0  0  0  0  0  0  0  0  0  0
  1  2  1  0
  2  3  1  0
  2  7  2  0
  3  4  2  0
  3 34  1  0
  4  5  1  0
  4 35  1  0
  5  6  2  0
  5  8  1  0
  6  7  1  0
  6 36  1  0
  7 37  1  0
  8  9  2  0
  8 38  1  0
  9 10  1  0
 10 11  1  0
 10 20  1  0
 11 12  2  0
 11 21  1  0
 12 13  1  0
 12 57  1  0
 13 14  1  0
 13 20  2  0
 14 15  2  0
 14 19  1  0
 15 16  1  0
 15 39  1  0
 16 17  2  0
 16 40  1  0
 17 18  1  0
 17 41  1  0
 18 19  2  0
 18 42  1  0
 19 43  1  0
 20 44  1  0
 21 22  1  0
 21 45  1  0
 22 23  1  0
 22 27  2  0
 23 24  2  0
 23 28  1  0
 24 25  1  0
 24 46  1  0
 25 26  2  0
 25 47  1  0
 26 27  1  0
 26 48  1  0
 27 49  1  0
 28 29  1  0
 28 32  1  0
 28 56  1  6
 29 30  1  0
 29 31  1  0
 29 58  1  1
 30 50  1  6
 30 51  1  0
 30 52  1  0
 31 53  1  6
 31 54  1  0
 31 55  1  0
 32 33  3  0
M  CHG  2  12   1  29   1
M  END
>  <s_epik_Chemistry_Notes>  (1166) 
This compound has an imine and may undergo hydrolysis.

>  <s_epik_cmdline>  (1166) 
J2VwaWtfcHl0aG9uJywgJy1waCcsICc3LjAwMDAwMCcsICctcGh0JywgJzIuMDAwMDAwJywgJy1tcycsICcxNicsICctdG4nLCAnOCcsICctbWEnLCAnMjAwJywgJy1pbWFlJywgJzxpbmZpbGUubWFlPicsICctb21hZScsICc8b3V0ZmlsZS5tYWU+Jw==

>  <s_epik_input>  (1166) 
Q2xjMVtjSF1bY0hdYyhbY0hdW2NIXTEpL1tDSF09Ti9uMmMoW05IXWMzYyhbQ0BIXShDI04pTihbQ0gzXSlbQ0gzXSlbY0hdW2NIXVtjSF1bY0hdMyluYyhbY0hdMiktYzRbY0hdW2NIXVtjSF1bY0hdW2NIXTQ=

>  <s_i_glide_gridfile>  (1166) 
ATP-Grid

>  <s_lp_Force_Field>  (1166) 
OPLS_2005

>  <s_lp_Variant>  (1166) 
rxn102c____EMOL3728737____EMOL50763906-5

>  <s_lp_label>  (1166) 
2506_sdstereoexpander_1_neutralizer_1_epik_3_stereoizer_1

>  <s_m_source_file>  (1166) 
ATP-VSW-LIGPREP-003-in.maegz

>  <s_sd_BIOSOLVEIT.INFINISEE\_QUERY\_NAME>  (1166) 
Ref-Lig

>  <s_sd_BIOSOLVEIT.INFINISEE\_QUERY\_SMILES>  (1166) 
S(c1nc2c(cc1C[NH2+]Cc3ccc(cc3)C[NH+](C)C)cccc2)Cc4ccccc4

>  <s_sd_BIOSOLVEIT.INFINISEE\_REACTION\_NAME>  (1166) 
rxn102c

>  <s_sd_BIOSOLVEIT.INFINISEE\_REAGENT1\_NAME>  (1166) 
EMOL3728737

>  <s_sd_BIOSOLVEIT.INFINISEE\_REAGENT1\_SMILES>  (1166) 
Clc1c(cccc1)C(N(C)C)C#N

>  <s_sd_BIOSOLVEIT.INFINISEE\_REAGENT2\_NAME>  (1166) 
EMOL50763906

>  <s_sd_BIOSOLVEIT.INFINISEE\_REAGENT2\_SMILES>  (1166) 
Clc1ccc(cc1)C=NN2C(=NC(c3ccccc3)=C2)N

>  <s_sd_BIOSOLVEIT.INFINISEE\_SPACE>  (1166) 
eXplore_7tr_2022-12

>  <s_vsw_compound_code>  (1166) 
80163

>  <s_vsw_variant>  (1166) 
80163-5

>  <r_epik_Charging_Adjusted_Penalty>  (1166) 
3.0976700076955499

>  <r_epik_Ionization_Penalty>  (1166) 
1.7562

>  <r_epik_Ionization_Penalty_Charging>  (1166) 
1.4306000000000001

>  <r_epik_Ionization_Penalty_Neutral>  (1166) 
0.3256

>  <r_epik_State_Penalty>  (1166) 
1.6671

>  <r_i_docking_score>  (1166) 
-3.6732833036651802

>  <r_i_glide_ecoul>  (1166) 
-11.470827102661101

>  <r_i_glide_eff_state_penalty>  (1166) 
1.6671

>  <r_i_glide_einternal>  (1166) 
5.7091264724731401

>  <r_i_glide_emodel>  (1166) 
-67.187426248152804

>  <r_i_glide_energy>  (1166) 
-46.405603408813498

>  <r_i_glide_erotb>  (1166) 
0.57756189636664401

>  <r_i_glide_esite>  (1166) 
-0.101858237561232

>  <r_i_glide_evdw>  (1166) 
-34.934776306152301

>  <r_i_glide_gscore>  (1166) 
-5.3403833036651802

>  <r_i_glide_hbond>  (1166) 
0

>  <r_i_glide_ligand_efficiency>  (1166) 
-0.111311615262581

>  <r_i_glide_ligand_efficiency_ln>  (1166) 
-0.81691918749207904

>  <r_i_glide_ligand_efficiency_sa>  (1166) 
-0.35703582686589103

>  <r_i_glide_lipo>  (1166) 
-1.52713437411899

>  <r_i_glide_metal>  (1166) 
-0

>  <r_i_glide_rewards>  (1166) 
-0.82158970764482198

>  <r_lp_Energy>  (1166) 
41.914414999999998

>  <r_qp_ACxDN^.5/SA>  (1166) 
0.0091658

>  <r_qp_CIQPlogS>  (1166) 
-6.9900000000000002

>  <r_qp_EA(eV)>  (1166) 
1.127

>  <r_qp_FISA>  (1166) 
80.926000000000002

>  <r_qp_FOSA>  (1166) 
134.345

>  <r_qp_IP(eV)>  (1166) 
8.1010000000000009

>  <r_qp_Jm>  (1166) 
0.00050426977390006405

>  <r_qp_PISA>  (1166) 
476.774

>  <r_qp_PSA>  (1166) 
62.545000000000002

>  <r_qp_PercentHumanOralAbsorption>  (1166) 
100

>  <r_qp_QPPCaco>  (1166) 
422.06599999999997

>  <r_qp_QPPMDCK>  (1166) 
531.96299999999997

>  <r_qp_QPlogBB>  (1166) 
-0.193

>  <r_qp_QPlogHERG>  (1166) 
-7.8109999999999999

>  <r_qp_QPlogKhsa>  (1166) 
0.72099999999999997

>  <r_qp_QPlogKp>  (1166) 
-2.6259999999999999

>  <r_qp_QPlogPC16>  (1166) 
16.059999999999999

>  <r_qp_QPlogPo/w>  (1166) 
4.9560000000000004

>  <r_qp_QPlogPoct>  (1166) 
22.434999999999999

>  <r_qp_QPlogPw>  (1166) 
11.970000000000001

>  <r_qp_QPlogS>  (1166) 
-6.3289999999999997

>  <r_qp_QPpolrz>  (1166) 
49.810000000000002

>  <r_qp_SASA>  (1166) 
763.70799999999997

>  <r_qp_SAamideO>  (1166) 
0

>  <r_qp_SAfluorine>  (1166) 
0

>  <r_qp_WPSA>  (1166) 
71.662999999999997

>  <r_qp_accptHB>  (1166) 
7

>  <r_qp_dip^2/V>  (1166) 
0.0186109

>  <r_qp_dipole>  (1166) 
5.1280000000000001

>  <r_qp_donorHB>  (1166) 
1

>  <r_qp_glob>  (1166) 
0.797377

>  <r_qp_mol_MW>  (1166) 
454.96100000000001

>  <r_qp_volume>  (1166) 
1412.989

>  <r_sd_BIOSOLVEIT.INFINISEE\_FTREES\_SIMILARITY>  (1166) 
0.91400000000000003

>  <r_sd_BIOSOLVEIT.LOGP>  (1166) 
4.5384799999999998

>  <r_sd_BIOSOLVEIT.MOLECULAR\_WEIGHT>  (1166) 
455.971

>  <r_sd_BIOSOLVEIT.TPSA>  (1166) 
70.439999999999998

>  <i_epik_Tot_Q>  (1166) 
2

>  <i_epik_Tot_abs_Q>  (1166) 
2

>  <i_f3d_flags>  (1166) 
0

>  <i_i_glide_confnum>  (1166) 
3

>  <i_i_glide_lignum>  (1166) 
1090

>  <i_i_glide_posenum>  (1166) 
1

>  <i_i_glide_rotatable_bonds>  (1166) 
7

>  <i_lp_mmshare_version>  (1166) 
65135

>  <i_m_ct_format>  (1166) 
2

>  <i_m_source_file_index>  (1166) 
2506

>  <i_qp_#NandO>  (1166) 
6

>  <i_qp_#acid>  (1166) 
0

>  <i_qp_#amide>  (1166) 
0

>  <i_qp_#amidine>  (1166) 
0

>  <i_qp_#amine>  (1166) 
1

>  <i_qp_#in34>  (1166) 
0

>  <i_qp_#in56>  (1166) 
23

>  <i_qp_#metab>  (1166) 
4

>  <i_qp_#nonHatm>  (1166) 
33

>  <i_qp_#noncon>  (1166) 
0

>  <i_qp_#ringatoms>  (1166) 
23

>  <i_qp_#rotor>  (1166) 
8

>  <i_qp_#rtvFG>  (1166) 
0

>  <i_qp_#stars>  (1166) 
1

>  <i_qp_CNS>  (1166) 
1

>  <i_qp_HumanOralAbsorption>  (1166) 
1

>  <i_qp_RuleOfFive>  (1166) 
0

>  <i_qp_RuleOfThree>  (1166) 
1

>  <i_sd_BIOSOLVEIT.INFINISEE\_RESULT\_RANK>  (1166) 
31327

>  <i_sd_version>  (1166) 
0

>  <b_lp_Chiralities_Consistent>  (1166) 
1

>  <b_sd_chiral_flag>  (1166) 
0

>  <canonical_id>  (1166) 
ATP-HTVS-B9C46F2E092C

>  <compound_code>  (1166) 
80163

>  <title>  (1166) 
rxn102c____EMOL3728737____EMOL50763906

>  <variant>  (1166) 
80163-5

>  <source_file>  (1166) 
运行/运行/ATP-VSW/ATP-VSW-DOCK_HTVS_1-003_lib/ATP-VSW-DOCK_HTVS_1-003_lib.mae

>  <canonical_smiles>  (1166) 
C[NH+](C)[C@@H](C#N)c1ccccc1Nc1[nH+]c(-c2ccccc2)cn1/N=C/c1ccc(Cl)cc1

>  <scaffold>  (1166) 
C(=Nn1cc(-c2ccccc2)[nH+]c1Nc1ccccc1)c1ccccc1

>  <molecular_formula>  (1166) 
C26H25ClN6+2

$$$$
ATP-HTVS-B9E16686FC4A
     RDKit          3D

 67 70  0  0  0  0  0  0  0  0999 V2000
  196.2927  179.8536  150.1137 O   0  0  0  0  0  0  0  0  0  0  0  0
  197.2972  179.2012  150.4010 C   0  0  0  0  0  0  0  0  0  0  0  0
  197.9418  179.2454  151.5852 N   0  0  0  0  0  0  0  0  0  0  0  0
  197.6817  180.0249  152.7431 C   0  0  0  0  0  0  0  0  0  0  0  0
  196.8068  181.0531  152.7197 N   0  0  0  0  0  0  0  0  0  0  0  0
  196.6831  181.8456  153.8039 C   0  0  0  0  0  0  0  0  0  0  0  0
  197.4134  181.6878  155.0013 C   0  0  0  0  0  0  0  0  0  0  0  0
  197.2165  182.6191  156.0443 N   0  0  0  0  0  0  0  0  0  0  0  0
  196.6946  182.0630  157.3061 C   0  0  1  0  0  0  0  0  0  0  0  0
  196.0609  183.0656  158.2262 C   0  0  0  0  0  0  0  0  0  0  0  0
  196.8450  184.0931  158.8181 C   0  0  0  0  0  0  0  0  0  0  0  0
  196.2403  185.0813  159.6368 C   0  0  0  0  0  0  0  0  0  0  0  0
  194.8612  184.9685  159.9348 C   0  0  0  0  0  0  0  0  0  0  0  0
  194.0995  183.9110  159.4065 C   0  0  0  0  0  0  0  0  0  0  0  0
  194.6950  182.9623  158.5561 C   0  0  0  0  0  0  0  0  0  0  0  0
  197.0605  186.2597  160.1684 C   0  0  1  0  0  0  0  0  0  0  0  0
  196.8205  187.5288  159.4701 N   0  0  0  0  0  0  0  0  0  0  0  0
  197.2992  187.4819  158.0830 C   0  0  1  0  0  0  0  0  0  0  0  0
  196.3514  186.7099  157.1183 C   0  0  2  0  0  0  0  0  0  0  0  0
  197.5080  188.6085  160.2068 C   0  0  1  0  0  0  0  0  0  0  0  0
  197.1418  190.0303  159.7233 C   0  0  2  0  0  0  0  0  0  0  0  0
  198.2992  180.5806  155.0624 C   0  0  0  0  0  0  0  0  0  0  0  0
  198.4375  179.7290  153.9218 C   0  0  0  0  0  0  0  0  0  0  0  0
  199.3416  178.6308  153.9798 C   0  0  0  0  0  0  0  0  0  0  0  0
  200.0885  178.3675  155.1501 C   0  0  0  0  0  0  0  0  0  0  0  0
  199.9515  179.2184  156.2650 C   0  0  0  0  0  0  0  0  0  0  0  0
  199.0901  180.3304  156.2135 C   0  0  0  0  0  0  0  0  0  0  0  0
  197.9265  178.2884  149.3806 C   0  0  0  0  0  0  0  0  0  0  0  0
  198.4623  177.0201  149.7375 C   0  0  0  0  0  0  0  0  0  0  0  0
  198.3860  176.6217  151.0589 O   0  0  0  0  0  0  0  0  0  0  0  0
  199.0156  175.4147  151.4470 C   0  0  2  0  0  0  0  0  0  0  0  0
  199.0428  176.2115  148.7275 C   0  0  0  0  0  0  0  0  0  0  0  0
  199.0808  176.6468  147.3898 C   0  0  0  0  0  0  0  0  0  0  0  0
  198.5315  177.8921  147.0401 C   0  0  0  0  0  0  0  0  0  0  0  0
  197.9571  178.7043  148.0325 C   0  0  0  0  0  0  0  0  0  0  0  0
  198.7195  178.6040  151.6629 H   0  0  0  0  0  0  0  0  0  0  0  0
  195.9671  182.6421  153.6856 H   0  0  0  0  0  0  0  0  0  0  0  0
  196.7799  183.4791  155.7517 H   0  0  0  0  0  0  0  0  0  0  0  0
  195.9909  181.2576  157.0621 H   0  0  0  0  0  0  0  0  0  0  0  0
  197.5047  181.6357  157.8861 H   0  0  0  0  0  0  0  0  0  0  0  0
  197.8991  184.1632  158.5830 H   0  0  0  0  0  0  0  0  0  0  0  0
  194.3744  185.7248  160.5221 H   0  0  0  0  0  0  0  0  0  0  0  0
  193.0321  183.8754  159.5464 H   0  0  0  0  0  0  0  0  0  0  0  0
  194.1054  182.2003  158.0695 H   0  0  0  0  0  0  0  0  0  0  0  0
  196.8442  186.3414  161.2442 H   0  0  0  0  0  0  0  0  0  0  0  0
  198.1264  186.0012  160.1005 H   0  0  0  0  0  0  0  0  0  0  0  0
  197.4064  188.4741  157.6986 H   0  0  0  0  0  0  0  0  0  0  0  0
  198.2959  187.0579  158.0923 H   0  0  0  0  0  0  0  0  0  0  0  0
  196.7580  186.7931  156.1103 H   0  0  0  0  0  0  0  0  0  0  0  0
  195.3775  187.2219  157.1034 H   0  0  0  0  0  0  0  0  0  0  0  0
  196.2088  185.6988  157.3438 H   0  0  0  0  0  0  0  0  0  0  0  0
  197.2703  188.5621  161.2735 H   0  0  0  0  0  0  0  0  0  0  0  0
  198.5836  188.4520  160.1499 H   0  0  0  0  0  0  0  0  0  0  0  0
  197.7580  190.7764  160.2267 H   0  0  0  0  0  0  0  0  0  0  0  0
  196.1011  190.2553  159.9516 H   0  0  0  0  0  0  0  0  0  0  0  0
  197.2897  190.1778  158.6567 H   0  0  0  0  0  0  0  0  0  0  0  0
  199.4912  177.9550  153.1436 H   0  0  0  0  0  0  0  0  0  0  0  0
  200.7728  177.5279  155.2002 H   0  0  0  0  0  0  0  0  0  0  0  0
  200.5130  179.0310  157.1671 H   0  0  0  0  0  0  0  0  0  0  0  0
  199.0481  180.9780  157.0614 H   0  0  0  0  0  0  0  0  0  0  0  0
  198.8837  175.2780  152.5189 H   0  0  0  0  0  0  0  0  0  0  0  0
  200.0891  175.4320  151.2477 H   0  0  0  0  0  0  0  0  0  0  0  0
  198.5600  174.5632  150.9463 H   0  0  0  0  0  0  0  0  0  0  0  0
  199.4697  175.2427  148.9455 H   0  0  0  0  0  0  0  0  0  0  0  0
  199.5354  176.0304  146.6278 H   0  0  0  0  0  0  0  0  0  0  0  0
  198.5568  178.2289  146.0140 H   0  0  0  0  0  0  0  0  0  0  0  0
  197.5476  179.6646  147.7577 H   0  0  0  0  0  0  0  0  0  0  0  0
  1  2  2  0
  2  3  1  0
  2 28  1  0
  3  4  1  0
  3 36  1  0
  4  5  1  0
  4 23  2  0
  5  6  2  0
  6  7  1  0
  6 37  1  0
  7  8  1  0
  7 22  2  0
  8  9  1  0
  8 38  1  0
  9 10  1  0
  9 39  1  6
  9 40  1  0
 10 11  2  0
 10 15  1  0
 11 12  1  0
 11 41  1  0
 12 13  2  0
 12 16  1  0
 13 14  1  0
 13 42  1  0
 14 15  2  0
 14 43  1  0
 15 44  1  0
 16 17  1  0
 16 45  1  1
 16 46  1  0
 17 18  1  0
 17 20  1  0
 18 19  1  0
 18 47  1  6
 18 48  1  0
 19 49  1  6
 19 50  1  0
 19 51  1  0
 20 21  1  0
 20 52  1  1
 20 53  1  0
 21 54  1  1
 21 55  1  0
 21 56  1  0
 22 23  1  0
 22 27  1  0
 23 24  1  0
 24 25  2  0
 24 57  1  0
 25 26  1  0
 25 58  1  0
 26 27  2  0
 26 59  1  0
 27 60  1  0
 28 29  1  0
 28 35  2  0
 29 30  1  0
 29 32  2  0
 30 31  1  0
 31 61  1  1
 31 62  1  0
 31 63  1  0
 32 33  1  0
 32 64  1  0
 33 34  2  0
 33 65  1  0
 34 35  1  0
 34 66  1  0
 35 67  1  0
M  END
>  <s_epik_cmdline>  (1167) 
J2VwaWtfcHl0aG9uJywgJy1waCcsICc3LjAwMDAwMCcsICctcGh0JywgJzIuMDAwMDAwJywgJy1tcycsICcxNicsICctdG4nLCAnOCcsICctbWEnLCAnMjAwJywgJy1pbWFlJywgJzxpbmZpbGUubWFlPicsICctb21hZScsICc8b3V0ZmlsZS5tYWU+Jw==

>  <s_epik_input>  (1167) 
W2NIXTFbY0hdW2NIXVtjSF1jKE9bQ0gzXSljMUMoPU8pW05IXWMoYyhjMjMpW2NIXVtjSF1bY0hdW2NIXTMpbltjSF1jMltOSF1bQ0gyXWM0W2NIXWMoW2NIXVtjSF1bY0hdNClbQ0gyXU4oW0NIMl1bQ0gzXSlbQ0gyXVtDSDNd

>  <s_i_glide_gridfile>  (1167) 
ATP-Grid

>  <s_lp_Force_Field>  (1167) 
OPLS_2005

>  <s_lp_Variant>  (1167) 
rxn502b____EMOL485008____EMOL7515103____EMOL44153840-2

>  <s_lp_label>  (1167) 
2469_sdstereoexpander_1_neutralizer_1_epik_2_stereoizer_1

>  <s_m_source_file>  (1167) 
ATP-VSW-LIGPREP-001-in.maegz

>  <s_sd_BIOSOLVEIT.INFINISEE\_QUERY\_NAME>  (1167) 
Ref-Lig

>  <s_sd_BIOSOLVEIT.INFINISEE\_QUERY\_SMILES>  (1167) 
S(c1nc2c(cc1C[NH2+]Cc3ccc(cc3)C[NH+](C)C)cccc2)Cc4ccccc4

>  <s_sd_BIOSOLVEIT.INFINISEE\_REACTION\_NAME>  (1167) 
rxn502b

>  <s_sd_BIOSOLVEIT.INFINISEE\_REAGENT1\_NAME>  (1167) 
EMOL485008

>  <s_sd_BIOSOLVEIT.INFINISEE\_REAGENT1\_SMILES>  (1167) 
O=C(O)c1c(OC)cccc1

>  <s_sd_BIOSOLVEIT.INFINISEE\_REAGENT2\_NAME>  (1167) 
EMOL7515103

>  <s_sd_BIOSOLVEIT.INFINISEE\_REAGENT2\_SMILES>  (1167) 
Brc1c2c(c(nc1)N)cccc2

>  <s_sd_BIOSOLVEIT.INFINISEE\_REAGENT3\_NAME>  (1167) 
EMOL44153840

>  <s_sd_BIOSOLVEIT.INFINISEE\_REAGENT3\_SMILES>  (1167) 
N(Cc1cc(ccc1)CN)(CC)CC

>  <s_sd_BIOSOLVEIT.INFINISEE\_SPACE>  (1167) 
eXplore_7tr_2022-12

>  <s_vsw_compound_code>  (1167) 
78977

>  <s_vsw_variant>  (1167) 
78977-2

>  <r_epik_Charging_Adjusted_Penalty>  (1167) 
2.0806950681414502

>  <r_epik_Ionization_Penalty>  (1167) 
2.0808

>  <r_epik_Ionization_Penalty_Charging>  (1167) 
0

>  <r_epik_Ionization_Penalty_Neutral>  (1167) 
2.0808

>  <r_epik_State_Penalty>  (1167) 
2.0807000000000002

>  <r_i_docking_score>  (1167) 
-1.96871524107972

>  <r_i_glide_ecoul>  (1167) 
-0.0080325277522206306

>  <r_i_glide_eff_state_penalty>  (1167) 
2.0807000000000002

>  <r_i_glide_einternal>  (1167) 
5.3139214515686

>  <r_i_glide_emodel>  (1167) 
-55.187286061156598

>  <r_i_glide_energy>  (1167) 
-45.311743465252199

>  <r_i_glide_erotb>  (1167) 
0.73563751996300997

>  <r_i_glide_esite>  (1167) 
-0.031856001933467

>  <r_i_glide_evdw>  (1167) 
-45.3037109375

>  <r_i_glide_gscore>  (1167) 
-4.0494152410797204

>  <r_i_glide_hbond>  (1167) 
0

>  <r_i_glide_ligand_efficiency>  (1167) 
-0.056249006887991997

>  <r_i_glide_ligand_efficiency_ln>  (1167) 
-0.43217668869764297

>  <r_i_glide_ligand_efficiency_sa>  (1167) 
-0.183994231194822

>  <r_i_glide_lipo>  (1167) 
-2.1459980743542801

>  <r_i_glide_metal>  (1167) 
-0

>  <r_i_glide_rewards>  (1167) 
-0.34080825871715198

>  <r_lp_Energy>  (1167) 
40.605898000000003

>  <r_lp_tautomer_probability>  (1167) 
1

>  <r_qp_ACxDN^.5/SA>  (1167) 
0.014383699999999999

>  <r_qp_CIQPlogS>  (1167) 
-6.0570000000000004

>  <r_qp_EA(eV)>  (1167) 
0.94799999999999995

>  <r_qp_FISA>  (1167) 
56.636000000000003

>  <r_qp_FOSA>  (1167) 
241.66900000000001

>  <r_qp_IP(eV)>  (1167) 
7.9429999999999996

>  <r_qp_Jm>  (1167) 
0.56103115777540602

>  <r_qp_PISA>  (1167) 
414.51999999999998

>  <r_qp_PSA>  (1167) 
62.856000000000002

>  <r_qp_PercentHumanOralAbsorption>  (1167) 
100

>  <r_qp_QPPCaco>  (1167) 
717.32899999999995

>  <r_qp_QPPMDCK>  (1167) 
382.18900000000002

>  <r_qp_QPlogBB>  (1167) 
-0.154

>  <r_qp_QPlogHERG>  (1167) 
-6.5380000000000003

>  <r_qp_QPlogKhsa>  (1167) 
0.63500000000000001

>  <r_qp_QPlogKp>  (1167) 
-2.206

>  <r_qp_QPlogPC16>  (1167) 
15.089

>  <r_qp_QPlogPo/w>  (1167) 
4.6420000000000003

>  <r_qp_QPlogPoct>  (1167) 
23.300000000000001

>  <r_qp_QPlogPw>  (1167) 
12.504

>  <r_qp_QPlogS>  (1167) 
-3.7160000000000002

>  <r_qp_QPpolrz>  (1167) 
48.267000000000003

>  <r_qp_SASA>  (1167) 
712.82600000000002

>  <r_qp_SAamideO>  (1167) 
0

>  <r_qp_SAfluorine>  (1167) 
0

>  <r_qp_WPSA>  (1167) 
0

>  <r_qp_accptHB>  (1167) 
7.25

>  <r_qp_dip^2/V>  (1167) 
0.032432200000000001

>  <r_qp_dipole>  (1167) 
6.79

>  <r_qp_donorHB>  (1167) 
2

>  <r_qp_glob>  (1167) 
0.8576705

>  <r_qp_mol_MW>  (1167) 
468.59699999999998

>  <r_qp_volume>  (1167) 
1421.373

>  <r_sd_BIOSOLVEIT.INFINISEE\_FTREES\_SIMILARITY>  (1167) 
0.91500000000000004

>  <r_sd_BIOSOLVEIT.LOGP>  (1167) 
4.5324999999999998

>  <r_sd_BIOSOLVEIT.MOLECULAR\_WEIGHT>  (1167) 
469.60599999999999

>  <r_sd_BIOSOLVEIT.TPSA>  (1167) 
67.689999999999998

>  <i_epik_Tot_Q>  (1167) 
0

>  <i_epik_Tot_abs_Q>  (1167) 
0

>  <i_f3d_flags>  (1167) 
0

>  <i_i_glide_confnum>  (1167) 
10

>  <i_i_glide_lignum>  (1167) 
965

>  <i_i_glide_posenum>  (1167) 
15

>  <i_i_glide_rotatable_bonds>  (1167) 
11

>  <i_lp_mmshare_version>  (1167) 
65135

>  <i_m_ct_format>  (1167) 
2

>  <i_m_source_file_index>  (1167) 
2469

>  <i_qp_#NandO>  (1167) 
6

>  <i_qp_#acid>  (1167) 
0

>  <i_qp_#amide>  (1167) 
0

>  <i_qp_#amidine>  (1167) 
0

>  <i_qp_#amine>  (1167) 
1

>  <i_qp_#in34>  (1167) 
0

>  <i_qp_#in56>  (1167) 
22

>  <i_qp_#metab>  (1167) 
8

>  <i_qp_#nonHatm>  (1167) 
35

>  <i_qp_#noncon>  (1167) 
0

>  <i_qp_#ringatoms>  (1167) 
22

>  <i_qp_#rotor>  (1167) 
10

>  <i_qp_#rtvFG>  (1167) 
0

>  <i_qp_#stars>  (1167) 
0

>  <i_qp_CNS>  (1167) 
1

>  <i_qp_HumanOralAbsorption>  (1167) 
3

>  <i_qp_RuleOfFive>  (1167) 
0

>  <i_qp_RuleOfThree>  (1167) 
1

>  <i_sd_BIOSOLVEIT.INFINISEE\_RESULT\_RANK>  (1167) 
27761

>  <i_sd_version>  (1167) 
0

>  <b_lp_Chiralities_Consistent>  (1167) 
1

>  <b_sd_chiral_flag>  (1167) 
0

>  <canonical_id>  (1167) 
ATP-HTVS-B9E16686FC4A

>  <compound_code>  (1167) 
78977

>  <title>  (1167) 
rxn502b____EMOL485008____EMOL7515103____EMOL44153840

>  <variant>  (1167) 
78977-2

>  <source_file>  (1167) 
运行/运行/ATP-VSW/ATP-VSW-DOCK_HTVS_1-001_lib/ATP-VSW-DOCK_HTVS_1-001_lib

>  <canonical_smiles>  (1167) 
CCN(CC)Cc1cccc(CNc2cnc(NC(=O)c3ccccc3OC)c3ccccc23)c1

>  <scaffold>  (1167) 
O=C(Nc1ncc(NCc2ccccc2)c2ccccc12)c1ccccc1

>  <molecular_formula>  (1167) 
C29H32N4O2

$$$$
ATP-HTVS-BA05F8BAE026
     RDKit          3D

 59 62  0  0  0  0  0  0  0  0999 V2000
  200.2105  187.4336  158.9185 Cl  0  0  0  0  0  0  0  0  0  0  0  0
  199.1847  186.0462  158.7215 C   0  0  0  0  0  0  0  0  0  0  0  0
  199.6167  184.8942  158.0508 C   0  0  0  0  0  0  0  0  0  0  0  0
  198.7926  183.7656  157.9310 C   0  0  0  0  0  0  0  0  0  0  0  0
  199.2944  182.6571  157.2332 N   0  0  0  0  0  0  0  0  0  0  0  0
  200.3960  181.8571  157.4672 C   0  0  0  0  0  0  0  0  0  0  0  0
  201.2527  182.2958  158.3757 N   0  0  0  0  0  0  0  0  0  0  0  0
  202.3388  181.5473  158.6212 C   0  0  0  0  0  0  0  0  0  0  0  0
  203.2999  182.1067  159.5975 C   0  0  0  0  0  0  0  0  0  0  0  0
  204.6826  181.8578  159.4620 C   0  0  0  0  0  0  0  0  0  0  0  0
  205.6082  182.3804  160.3857 C   0  0  0  0  0  0  0  0  0  0  0  0
  205.1614  183.1669  161.4627 C   0  0  0  0  0  0  0  0  0  0  0  0
  203.7877  183.4318  161.6121 C   0  0  0  0  0  0  0  0  0  0  0  0
  202.8654  182.9078  160.6833 C   0  0  0  0  0  0  0  0  0  0  0  0
  202.5130  180.3245  157.9383 C   0  0  0  0  0  0  0  0  0  0  0  0
  201.5132  179.9258  157.0266 C   0  0  0  0  0  0  0  0  0  0  0  0
  200.4429  180.7164  156.7802 N   0  0  0  0  0  0  0  0  0  0  0  0
  201.5771  178.6617  156.2741 C   0  0  0  0  0  0  0  0  0  0  0  0
  201.0668  177.4664  156.8259 C   0  0  0  0  0  0  0  0  0  0  0  0
  201.1520  176.2509  156.1145 C   0  0  0  0  0  0  0  0  0  0  0  0
  201.7558  176.2137  154.8445 C   0  0  0  0  0  0  0  0  0  0  0  0
  202.2827  177.3941  154.2910 C   0  0  0  0  0  0  0  0  0  0  0  0
  202.1976  178.6090  155.0047 C   0  0  0  0  0  0  0  0  0  0  0  0
  197.4798  183.7573  158.5398 C   0  0  0  0  0  0  0  0  0  0  0  0
  197.0900  184.8892  159.3315 C   0  0  0  0  0  0  0  0  0  0  0  0
  197.8931  186.0330  159.3323 C   0  0  0  0  0  0  0  0  0  0  0  0
  196.5274  182.5545  158.3604 C   0  0  1  0  0  0  0  0  0  0  0  0
  195.2698  182.6202  159.1585 N   0  0  0  0  0  0  0  0  0  0  0  0
  194.3084  183.6946  158.8261 C   0  0  2  0  0  0  0  0  0  0  0  0
  194.5419  181.3428  159.0839 C   0  0  2  0  0  0  0  0  0  0  0  0
  196.2222  182.2473  156.8488 C   0  0  1  0  0  0  0  0  0  0  0  0
  196.8917  181.0178  156.3625 N   0  0  2  0  0  0  0  0  0  0  0  0
  196.6370  180.8708  155.3982 H   0  0  0  0  0  0  0  0  0  0  0  0
  196.5786  180.2096  156.9075 H   0  0  0  0  0  0  0  0  0  0  0  0
  200.6183  184.8819  157.6294 H   0  0  0  0  0  0  0  0  0  0  0  0
  198.7249  182.3400  156.4764 H   0  0  0  0  0  0  0  0  0  0  0  0
  205.0437  181.2656  158.6353 H   0  0  0  0  0  0  0  0  0  0  0  0
  206.6608  182.1758  160.2632 H   0  0  0  0  0  0  0  0  0  0  0  0
  205.8734  183.5677  162.1696 H   0  0  0  0  0  0  0  0  0  0  0  0
  203.4402  184.0368  162.4374 H   0  0  0  0  0  0  0  0  0  0  0  0
  201.8144  183.1259  160.8165 H   0  0  0  0  0  0  0  0  0  0  0  0
  203.3861  179.7204  158.1250 H   0  0  0  0  0  0  0  0  0  0  0  0
  200.6087  177.4783  157.8042 H   0  0  0  0  0  0  0  0  0  0  0  0
  200.7516  175.3446  156.5406 H   0  0  0  0  0  0  0  0  0  0  0  0
  201.8133  175.2812  154.2973 H   0  0  0  0  0  0  0  0  0  0  0  0
  202.7496  177.3649  153.3174 H   0  0  0  0  0  0  0  0  0  0  0  0
  202.6216  179.5042  154.5739 H   0  0  0  0  0  0  0  0  0  0  0  0
  196.2124  184.9315  159.9085 H   0  0  0  0  0  0  0  0  0  0  0  0
  197.5373  186.8961  159.8712 H   0  0  0  0  0  0  0  0  0  0  0  0
  197.0909  181.6916  158.7580 H   0  0  0  0  0  0  0  0  0  0  0  0
  193.4058  183.5202  159.4540 H   0  0  0  0  0  0  0  0  0  0  0  0
  194.0481  183.5866  157.7570 H   0  0  0  0  0  0  0  0  0  0  0  0
  194.6445  184.6897  159.0058 H   0  0  0  0  0  0  0  0  0  0  0  0
  193.6685  181.3328  159.7413 H   0  0  0  0  0  0  0  0  0  0  0  0
  195.1755  180.4809  159.3482 H   0  0  0  0  0  0  0  0  0  0  0  0
  194.1055  181.1389  158.0973 H   0  0  0  0  0  0  0  0  0  0  0  0
  195.1691  182.0464  156.6393 H   0  0  0  0  0  0  0  0  0  0  0  0
  196.4613  183.1145  156.2318 H   0  0  0  0  0  0  0  0  0  0  0  0
  197.8945  181.0575  156.4419 H   0  0  0  0  0  0  0  0  0  0  0  0
  1  2  1  0
  2  3  2  0
  2 26  1  0
  3  4  1  0
  3 35  1  0
  4  5  1  0
  4 24  2  0
  5  6  1  0
  5 36  1  0
  6  7  2  0
  6 17  1  0
  7  8  1  0
  8  9  1  0
  8 15  2  0
  9 10  2  0
  9 14  1  0
 10 11  1  0
 10 37  1  0
 11 12  2  0
 11 38  1  0
 12 13  1  0
 12 39  1  0
 13 14  2  0
 13 40  1  0
 14 41  1  0
 15 16  1  0
 15 42  1  0
 16 17  2  0
 16 18  1  0
 18 19  2  0
 18 23  1  0
 19 20  1  0
 19 43  1  0
 20 21  2  0
 20 44  1  0
 21 22  1  0
 21 45  1  0
 22 23  2  0
 22 46  1  0
 23 47  1  0
 24 25  1  0
 24 27  1  0
 25 26  2  0
 25 48  1  0
 26 49  1  0
 27 28  1  0
 27 31  1  0
 27 50  1  1
 28 29  1  0
 28 30  1  0
 29 51  1  1
 29 52  1  0
 29 53  1  0
 30 54  1  1
 30 55  1  0
 30 56  1  0
 31 32  1  0
 31 57  1  1
 31 58  1  0
 32 33  1  6
 32 34  1  0
 32 59  1  0
M  CHG  1  32   1
M  END
>  <s_epik_cmdline>  (1168) 
J2VwaWtfcHl0aG9uJywgJy1waCcsICc3LjAwMDAwMCcsICctcGh0JywgJzIuMDAwMDAwJywgJy1tcycsICcxNicsICctdG4nLCAnOCcsICctbWEnLCAnMjAwJywgJy1pbWFlJywgJzxpbmZpbGUubWFlPicsICctb21hZScsICc8b3V0ZmlsZS5tYWU+Jw==

>  <s_epik_input>  (1168) 
W0NIM11OKFtDSDNdKVtDQEBIXShbQ0gyXVtOSDJdKWMoW2NIXVtjSF0xKWMoW2NIXWMxQ2wpW05IXWMybmMoLWMzW2NIXVtjSF1bY0hdW2NIXVtjSF0zKVtjSF1jKG4yKS1jNFtjSF1bY0hdW2NIXVtjSF1bY0hdNA==

>  <s_i_glide_gridfile>  (1168) 
ATP-Grid

>  <s_lp_Force_Field>  (1168) 
OPLS_2005

>  <s_lp_Variant>  (1168) 
rxn102c____EMOL331057570____EMOL1127984-1

>  <s_lp_label>  (1168) 
2532_sdstereoexpander_1_neutralizer_1_epik_1_stereoizer_1

>  <s_m_source_file>  (1168) 
ATP-VSW-LIGPREP-002-in.maegz

>  <s_sd_BIOSOLVEIT.INFINISEE\_QUERY\_NAME>  (1168) 
Ref-Lig

>  <s_sd_BIOSOLVEIT.INFINISEE\_QUERY\_SMILES>  (1168) 
S(c1nc2c(cc1C[NH2+]Cc3ccc(cc3)C[NH+](C)C)cccc2)Cc4ccccc4

>  <s_sd_BIOSOLVEIT.INFINISEE\_REACTION\_NAME>  (1168) 
rxn102c

>  <s_sd_BIOSOLVEIT.INFINISEE\_REAGENT1\_NAME>  (1168) 
EMOL331057570

>  <s_sd_BIOSOLVEIT.INFINISEE\_REAGENT1\_SMILES>  (1168) 
Clc1c(ccc(Cl)c1)C(N(C)C)CN

>  <s_sd_BIOSOLVEIT.INFINISEE\_REAGENT2\_NAME>  (1168) 
EMOL1127984

>  <s_sd_BIOSOLVEIT.INFINISEE\_REAGENT2\_SMILES>  (1168) 
n1c(nc(c2ccccc2)cc1c3ccccc3)N

>  <s_sd_BIOSOLVEIT.INFINISEE\_SPACE>  (1168) 
eXplore_7tr_2022-12

>  <s_vsw_compound_code>  (1168) 
80994

>  <s_vsw_variant>  (1168) 
80994-1

>  <r_epik_Charging_Adjusted_Penalty>  (1168) 
0.046591792459685803

>  <r_epik_Ionization_Penalty>  (1168) 
0.014

>  <r_epik_Ionization_Penalty_Charging>  (1168) 
0.0064000000000000003

>  <r_epik_Ionization_Penalty_Neutral>  (1168) 
0.0076

>  <r_epik_State_Penalty>  (1168) 
0.0402

>  <r_i_docking_score>  (1168) 
-4.5460470962559896

>  <r_i_glide_ecoul>  (1168) 
-10.557126998901399

>  <r_i_glide_eff_state_penalty>  (1168) 
0.0402

>  <r_i_glide_einternal>  (1168) 
12.185814857482899

>  <r_i_glide_emodel>  (1168) 
-47.826997921536901

>  <r_i_glide_energy>  (1168) 
-37.485391616821303

>  <r_i_glide_erotb>  (1168) 
0.50514632217480804

>  <r_i_glide_esite>  (1168) 
-0.0984782045866541

>  <r_i_glide_evdw>  (1168) 
-26.928264617919901

>  <r_i_glide_gscore>  (1168) 
-4.58624709625599

>  <r_i_glide_hbond>  (1168) 
-0.20000000000000001

>  <r_i_glide_ligand_efficiency>  (1168) 
-0.14206397175800001

>  <r_i_glide_ligand_efficiency_ln>  (1168) 
-1.0179838654153099

>  <r_i_glide_ligand_efficiency_sa>  (1168) 
-0.45102499590981399

>  <r_i_glide_lipo>  (1168) 
-1.26196950164711

>  <r_i_glide_metal>  (1168) 
-0

>  <r_i_glide_rewards>  (1168) 
-0.60096343146583298

>  <r_lp_Energy>  (1168) 
27.137753

>  <r_lp_tautomer_probability>  (1168) 
0.99999998763599995

>  <r_qp_ACxDN^.5/SA>  (1168) 
0.0125427

>  <r_qp_CIQPlogS>  (1168) 
-5.2009999999999996

>  <r_qp_EA(eV)>  (1168) 
0.82799999999999996

>  <r_qp_FISA>  (1168) 
66.191999999999993

>  <r_qp_FOSA>  (1168) 
141.49000000000001

>  <r_qp_IP(eV)>  (1168) 
8.7940000000000005

>  <r_qp_Jm>  (1168) 
0.00078080145339838797

>  <r_qp_PISA>  (1168) 
480.20100000000002

>  <r_qp_PSA>  (1168) 
58.680999999999997

>  <r_qp_PercentHumanOralAbsorption>  (1168) 
93.010000000000005

>  <r_qp_QPPCaco>  (1168) 
145.21299999999999

>  <r_qp_QPPMDCK>  (1168) 
185.65700000000001

>  <r_qp_QPlogBB>  (1168) 
0.35299999999999998

>  <r_qp_QPlogHERG>  (1168) 
-8.6140000000000008

>  <r_qp_QPlogKhsa>  (1168) 
0.83599999999999997

>  <r_qp_QPlogKp>  (1168) 
-4.4050000000000002

>  <r_qp_QPlogPC16>  (1168) 
16.251000000000001

>  <r_qp_QPlogPo/w>  (1168) 
4.6740000000000004

>  <r_qp_QPlogPoct>  (1168) 
23.963000000000001

>  <r_qp_QPlogPw>  (1168) 
13.335000000000001

>  <r_qp_QPlogS>  (1168) 
-4.3499999999999996

>  <r_qp_QPpolrz>  (1168) 
48.978999999999999

>  <r_qp_SASA>  (1168) 
759.50999999999999

>  <r_qp_SAamideO>  (1168) 
0

>  <r_qp_SAfluorine>  (1168) 
0

>  <r_qp_WPSA>  (1168) 
71.626999999999995

>  <r_qp_accptHB>  (1168) 
5.5

>  <r_qp_dip^2/V>  (1168) 
0.0050347999999999999

>  <r_qp_dipole>  (1168) 
2.6469999999999998

>  <r_qp_donorHB>  (1168) 
3

>  <r_qp_glob>  (1168) 
0.7935989

>  <r_qp_mol_MW>  (1168) 
443.97800000000001

>  <r_qp_volume>  (1168) 
1391.4059999999999

>  <r_sd_BIOSOLVEIT.INFINISEE\_FTREES\_SIMILARITY>  (1168) 
0.91300000000000003

>  <r_sd_BIOSOLVEIT.LOGP>  (1168) 
3.6351

>  <r_sd_BIOSOLVEIT.MOLECULAR\_WEIGHT>  (1168) 
445.995

>  <r_sd_BIOSOLVEIT.TPSA>  (1168) 
69.890000000000001

>  <i_epik_Tot_Q>  (1168) 
1

>  <i_epik_Tot_abs_Q>  (1168) 
1

>  <i_f3d_flags>  (1168) 
0

>  <i_i_glide_confnum>  (1168) 
5

>  <i_i_glide_lignum>  (1168) 
1113

>  <i_i_glide_posenum>  (1168) 
10

>  <i_i_glide_rotatable_bonds>  (1168) 
7

>  <i_lp_mmshare_version>  (1168) 
65135

>  <i_m_ct_format>  (1168) 
2

>  <i_m_source_file_index>  (1168) 
2532

>  <i_qp_#NandO>  (1168) 
5

>  <i_qp_#acid>  (1168) 
0

>  <i_qp_#amide>  (1168) 
0

>  <i_qp_#amidine>  (1168) 
0

>  <i_qp_#amine>  (1168) 
2

>  <i_qp_#in34>  (1168) 
0

>  <i_qp_#in56>  (1168) 
24

>  <i_qp_#metab>  (1168) 
5

>  <i_qp_#nonHatm>  (1168) 
32

>  <i_qp_#noncon>  (1168) 
0

>  <i_qp_#ringatoms>  (1168) 
24

>  <i_qp_#rotor>  (1168) 
8

>  <i_qp_#rtvFG>  (1168) 
0

>  <i_qp_#stars>  (1168) 
1

>  <i_qp_CNS>  (1168) 
1

>  <i_qp_HumanOralAbsorption>  (1168) 
3

>  <i_qp_RuleOfFive>  (1168) 
0

>  <i_qp_RuleOfThree>  (1168) 
0

>  <i_sd_BIOSOLVEIT.INFINISEE\_RESULT\_RANK>  (1168) 
33816

>  <i_sd_version>  (1168) 
0

>  <b_lp_Chiralities_Consistent>  (1168) 
1

>  <b_sd_chiral_flag>  (1168) 
0

>  <canonical_id>  (1168) 
ATP-HTVS-BA05F8BAE026

>  <compound_code>  (1168) 
80994

>  <title>  (1168) 
rxn102c____EMOL331057570____EMOL1127984

>  <variant>  (1168) 
80994-1

>  <source_file>  (1168) 
运行/运行/ATP-VSW/ATP-VSW-DOCK_HTVS_1-002_lib.maegz

>  <canonical_smiles>  (1168) 
CN(C)[C@@H](C[NH3+])c1ccc(Cl)cc1Nc1nc(-c2ccccc2)cc(-c2ccccc2)n1

>  <scaffold>  (1168) 
c1ccc(Nc2nc(-c3ccccc3)cc(-c3ccccc3)n2)cc1

>  <molecular_formula>  (1168) 
C26H27ClN5+

$$$$
ATP-HTVS-BA0E3BFA8388
     RDKit          3D

 64 67  0  0  0  0  0  0  0  0999 V2000
  201.6626  183.1360  156.4819 O   0  0  0  0  0  0  0  0  0  0  0  0
  201.1066  182.0815  156.1930 C   0  0  0  0  0  0  0  0  0  0  0  0
  199.8408  181.7670  156.5356 N   0  0  0  0  0  0  0  0  0  0  0  0
  198.9073  182.5030  157.3291 C   0  0  0  0  0  0  0  0  0  0  0  0
  197.5464  182.0882  157.3046 C   0  0  0  0  0  0  0  0  0  0  0  0
  197.1565  181.0283  156.4766 N   0  0  0  0  0  0  0  0  0  0  0  0
  196.6736  181.4467  155.1593 C   0  0  1  0  0  0  0  0  0  0  0  0
  197.1795  180.5957  153.9974 C   0  0  0  0  0  0  0  0  0  0  0  0
  196.5164  180.6157  152.7529 C   0  0  0  0  0  0  0  0  0  0  0  0
  196.9946  179.8286  151.6794 C   0  0  0  0  0  0  0  0  0  0  0  0
  196.2958  179.8502  150.4744 N   0  0  0  0  0  0  0  0  0  0  0  0
  196.8023  179.1040  149.3315 C   0  0  2  0  0  0  0  0  0  0  0  0
  198.1631  179.0515  151.8447 C   0  0  0  0  0  0  0  0  0  0  0  0
  198.8470  179.0508  153.0773 C   0  0  0  0  0  0  0  0  0  0  0  0
  198.3322  179.8060  154.1483 C   0  0  0  0  0  0  0  0  0  0  0  0
  196.6095  182.7769  158.1247 C   0  0  0  0  0  0  0  0  0  0  0  0
  197.0488  183.8559  158.9409 C   0  0  0  0  0  0  0  0  0  0  0  0
  198.3571  184.2057  158.9212 N   0  0  0  0  0  0  0  0  0  0  0  0
  199.2786  183.5789  158.1656 C   0  0  0  0  0  0  0  0  0  0  0  0
  196.1406  184.5666  159.7474 C   0  0  0  0  0  0  0  0  0  0  0  0
  194.7774  184.2195  159.7388 C   0  0  0  0  0  0  0  0  0  0  0  0
  194.3276  183.1504  158.9308 C   0  0  0  0  0  0  0  0  0  0  0  0
  195.2328  182.4301  158.1366 C   0  0  0  0  0  0  0  0  0  0  0  0
  201.8065  181.0676  155.3168 C   0  0  0  0  0  0  0  0  0  0  0  0
  201.9709  179.6968  155.7004 C   0  0  0  0  0  0  0  0  0  0  0  0
  202.6608  178.8156  154.8366 C   0  0  0  0  0  0  0  0  0  0  0  0
  203.1239  179.2646  153.5731 C   0  0  0  0  0  0  0  0  0  0  0  0
  202.9653  180.6064  153.1950 C   0  0  0  0  0  0  0  0  0  0  0  0
  202.3314  181.5064  154.0761 C   0  0  0  0  0  0  0  0  0  0  0  0
  201.4684  179.1068  157.0305 C   0  0  1  0  0  0  0  0  0  0  0  0
  200.3209  178.1648  156.9215 N   0  0  2  0  0  0  0  0  0  0  0  0
  200.2128  177.3229  158.1061 C   0  0  2  0  0  0  0  0  0  0  0  0
  200.2684  177.3371  155.6929 C   0  0  2  0  0  0  0  0  0  0  0  0
  199.4599  180.9213  156.1459 H   0  0  0  0  0  0  0  0  0  0  0  0
  196.4968  180.3880  156.9364 H   0  0  0  0  0  0  0  0  0  0  0  0
  195.5824  181.4403  155.1765 H   0  0  0  0  0  0  0  0  0  0  0  0
  196.9415  182.4941  154.9655 H   0  0  0  0  0  0  0  0  0  0  0  0
  195.6438  181.2484  152.6178 H   0  0  0  0  0  0  0  0  0  0  0  0
  195.4278  180.3671  150.3884 H   0  0  0  0  0  0  0  0  0  0  0  0
  196.1250  179.2012  148.4798 H   0  0  0  0  0  0  0  0  0  0  0  0
  196.8973  178.0376  149.5619 H   0  0  0  0  0  0  0  0  0  0  0  0
  197.7897  179.4616  149.0199 H   0  0  0  0  0  0  0  0  0  0  0  0
  198.5577  178.4437  151.0492 H   0  0  0  0  0  0  0  0  0  0  0  0
  199.7555  178.4760  153.1724 H   0  0  0  0  0  0  0  0  0  0  0  0
  198.8573  179.7634  155.0866 H   0  0  0  0  0  0  0  0  0  0  0  0
  200.2890  183.9491  158.2793 H   0  0  0  0  0  0  0  0  0  0  0  0
  196.4777  185.3876  160.3618 H   0  0  0  0  0  0  0  0  0  0  0  0
  194.0733  184.7651  160.3443 H   0  0  0  0  0  0  0  0  0  0  0  0
  193.2809  182.8864  158.9164 H   0  0  0  0  0  0  0  0  0  0  0  0
  194.8503  181.6245  157.5265 H   0  0  0  0  0  0  0  0  0  0  0  0
  202.8111  177.7775  155.1262 H   0  0  0  0  0  0  0  0  0  0  0  0
  203.5676  178.5634  152.8791 H   0  0  0  0  0  0  0  0  0  0  0  0
  203.3159  180.9488  152.2253 H   0  0  0  0  0  0  0  0  0  0  0  0
  202.2263  182.5434  153.7815 H   0  0  0  0  0  0  0  0  0  0  0  0
  202.3140  178.6215  157.5044 H   0  0  0  0  0  0  0  0  0  0  0  0
  201.1723  179.8754  157.7539 H   0  0  0  0  0  0  0  0  0  0  0  0
  201.0332  176.6150  158.1467 H   0  0  0  0  0  0  0  0  0  0  0  0
  199.2711  176.8189  157.9797 H   0  0  0  0  0  0  0  0  0  0  0  0
  200.1401  177.8530  159.0432 H   0  0  0  0  0  0  0  0  0  0  0  0
  201.1617  176.6975  155.6064 H   0  0  0  0  0  0  0  0  0  0  0  0
  200.2247  177.9548  154.8203 H   0  0  0  0  0  0  0  0  0  0  0  0
  199.3491  176.7280  155.6365 H   0  0  0  0  0  0  0  0  0  0  0  0
  199.4582  178.6834  156.9215 H   0  0  0  0  0  0  0  0  0  0  0  0
  198.6558  184.9780  159.5125 H   0  0  0  0  0  0  0  0  0  0  0  0
  1  2  2  0
  2  3  1  0
  2 24  1  0
  3  4  1  0
  3 34  1  0
  4  5  2  0
  4 19  1  0
  5  6  1  0
  5 16  1  0
  6  7  1  0
  6 35  1  0
  7  8  1  0
  7 36  1  1
  7 37  1  0
  8  9  1  0
  8 15  2  0
  9 10  2  0
  9 38  1  0
 10 11  1  0
 10 13  1  0
 11 12  1  0
 11 39  1  0
 12 40  1  6
 12 41  1  0
 12 42  1  0
 13 14  2  0
 13 43  1  0
 14 15  1  0
 14 44  1  0
 15 45  1  0
 16 17  1  0
 16 23  2  0
 17 18  1  0
 17 20  2  0
 18 19  2  0
 18 64  1  0
 19 46  1  0
 20 21  1  0
 20 47  1  0
 21 22  2  0
 21 48  1  0
 22 23  1  0
 22 49  1  0
 23 50  1  0
 24 25  1  0
 24 29  2  0
 25 26  2  0
 25 30  1  0
 26 27  1  0
 26 51  1  0
 27 28  2  0
 27 52  1  0
 28 29  1  0
 28 53  1  0
 29 54  1  0
 30 31  1  0
 30 55  1  1
 30 56  1  0
 31 32  1  0
 31 33  1  0
 31 63  1  6
 32 57  1  1
 32 58  1  0
 32 59  1  0
 33 60  1  6
 33 61  1  0
 33 62  1  0
M  CHG  2  18   1  31   1
M  END
>  <s_epik_cmdline>  (1169) 
J2VwaWtfcHl0aG9uJywgJy1waCcsICc3LjAwMDAwMCcsICctcGh0JywgJzIuMDAwMDAwJywgJy1tcycsICcxNicsICctdG4nLCAnOCcsICctbWEnLCAnMjAwJywgJy1pbWFlJywgJzxpbmZpbGUubWFlPicsICctb21hZScsICc8b3V0ZmlsZS5tYWU+Jw==

>  <s_epik_input>  (1169) 
W2NIXTFbY0hdW2NIXVtjSF1jKFtDSDJdTihbQ0gzXSlbQ0gzXSljMUMoPU8pW05IXWMoW2NIXW5jKGMyMylbY0hdW2NIXVtjSF1bY0hdMyljMltOSF1bQ0gyXWM0W2NIXWMoW05IXVtDSDNdKVtjSF1bY0hdW2NIXTQ=

>  <s_i_glide_gridfile>  (1169) 
ATP-Grid

>  <s_lp_Force_Field>  (1169) 
OPLS_2005

>  <s_lp_Variant>  (1169) 
rxn502b____EMOL5415347____EMOL30488121____EMOL45491381-1

>  <s_lp_label>  (1169) 
2992_sdstereoexpander_1_neutralizer_1_epik_1_stereoizer_1

>  <s_m_source_file>  (1169) 
ATP-VSW-LIGPREP-001-in.maegz

>  <s_sd_BIOSOLVEIT.INFINISEE\_QUERY\_NAME>  (1169) 
Ref-Lig

>  <s_sd_BIOSOLVEIT.INFINISEE\_QUERY\_SMILES>  (1169) 
S(c1nc2c(cc1C[NH2+]Cc3ccc(cc3)C[NH+](C)C)cccc2)Cc4ccccc4

>  <s_sd_BIOSOLVEIT.INFINISEE\_REACTION\_NAME>  (1169) 
rxn502b

>  <s_sd_BIOSOLVEIT.INFINISEE\_REAGENT1\_NAME>  (1169) 
EMOL5415347

>  <s_sd_BIOSOLVEIT.INFINISEE\_REAGENT1\_SMILES>  (1169) 
O=C(O)c1c(cccc1)CN(C)C

>  <s_sd_BIOSOLVEIT.INFINISEE\_REAGENT2\_NAME>  (1169) 
EMOL30488121

>  <s_sd_BIOSOLVEIT.INFINISEE\_REAGENT2\_SMILES>  (1169) 
Brc1c(N)cnc2c1cccc2

>  <s_sd_BIOSOLVEIT.INFINISEE\_REAGENT3\_NAME>  (1169) 
EMOL45491381

>  <s_sd_BIOSOLVEIT.INFINISEE\_REAGENT3\_SMILES>  (1169) 
N(c1cc(ccc1)CN)C

>  <s_sd_BIOSOLVEIT.INFINISEE\_SPACE>  (1169) 
eXplore_7tr_2022-12

>  <s_vsw_compound_code>  (1169) 
95713

>  <s_vsw_variant>  (1169) 
95713-1

>  <r_epik_Charging_Adjusted_Penalty>  (1169) 
0.28690863684906898

>  <r_epik_Ionization_Penalty>  (1169) 
0.14879999999999999

>  <r_epik_Ionization_Penalty_Charging>  (1169) 
0.1434

>  <r_epik_Ionization_Penalty_Neutral>  (1169) 
0.0054000000000000003

>  <r_epik_State_Penalty>  (1169) 
0.14349999999999999

>  <r_i_docking_score>  (1169) 
-5.0869323244943896

>  <r_i_glide_ecoul>  (1169) 
-15.307014465331999

>  <r_i_glide_eff_state_penalty>  (1169) 
0.14349999999999999

>  <r_i_glide_einternal>  (1169) 
8.9540624618530291

>  <r_i_glide_emodel>  (1169) 
-66.732169837005799

>  <r_i_glide_energy>  (1169) 
-47.347087860107401

>  <r_i_glide_erotb>  (1169) 
0.71715601208885305

>  <r_i_glide_esite>  (1169) 
-0.15539195522309901

>  <r_i_glide_evdw>  (1169) 
-32.040073394775398

>  <r_i_glide_gscore>  (1169) 
-5.2304323244943998

>  <r_i_glide_hbond>  (1169) 
-0.16

>  <r_i_glide_ligand_efficiency>  (1169) 
-0.15414946437861801

>  <r_i_glide_ligand_efficiency_ln>  (1169) 
-1.1313074102416001

>  <r_i_glide_ligand_efficiency_sa>  (1169) 
-0.49443969836861501

>  <r_i_glide_lipo>  (1169) 
-1.1107401327306701

>  <r_i_glide_metal>  (1169) 
-0

>  <r_i_glide_rewards>  (1169) 
-0.62340040909090799

>  <r_lp_Energy>  (1169) 
46.396568000000002

>  <r_qp_ACxDN^.5/SA>  (1169) 
0.016221200000000002

>  <r_qp_CIQPlogS>  (1169) 
-5.306

>  <r_qp_EA(eV)>  (1169) 
0.997

>  <r_qp_FISA>  (1169) 
75.953999999999994

>  <r_qp_FOSA>  (1169) 
260.815

>  <r_qp_IP(eV)>  (1169) 
8.3059999999999992

>  <r_qp_Jm>  (1169) 
0.0050492439232168503

>  <r_qp_PISA>  (1169) 
464.05900000000003

>  <r_qp_PSA>  (1169) 
69.459000000000003

>  <r_qp_PercentHumanOralAbsorption>  (1169) 
100

>  <r_qp_QPPCaco>  (1169) 
470.46100000000001

>  <r_qp_QPPMDCK>  (1169) 
242.25200000000001

>  <r_qp_QPlogBB>  (1169) 
-0.35899999999999999

>  <r_qp_QPlogHERG>  (1169) 
-8.0809999999999995

>  <r_qp_QPlogKhsa>  (1169) 
0.65700000000000003

>  <r_qp_QPlogKp>  (1169) 
-2.5790000000000002

>  <r_qp_QPlogPC16>  (1169) 
16.416

>  <r_qp_QPlogPo/w>  (1169) 
4.4729999999999999

>  <r_qp_QPlogPoct>  (1169) 
26.280000000000001

>  <r_qp_QPlogPw>  (1169) 
15.336

>  <r_qp_QPlogS>  (1169) 
-5.3609999999999998

>  <r_qp_QPpolrz>  (1169) 
51.539999999999999

>  <r_qp_SASA>  (1169) 
800.82899999999995

>  <r_qp_SAamideO>  (1169) 
0

>  <r_qp_SAfluorine>  (1169) 
0

>  <r_qp_WPSA>  (1169) 
0

>  <r_qp_accptHB>  (1169) 
7.5

>  <r_qp_dip^2/V>  (1169) 
0.058476100000000003

>  <r_qp_dipole>  (1169) 
9.2370000000000001

>  <r_qp_donorHB>  (1169) 
3

>  <r_qp_glob>  (1169) 
0.77692349999999999

>  <r_qp_mol_MW>  (1169) 
439.55900000000003

>  <r_qp_volume>  (1169) 
1459.248

>  <r_sd_BIOSOLVEIT.INFINISEE\_FTREES\_SIMILARITY>  (1169) 
0.90300000000000002

>  <r_sd_BIOSOLVEIT.LOGP>  (1169) 
3.7854000000000001

>  <r_sd_BIOSOLVEIT.MOLECULAR\_WEIGHT>  (1169) 
440.56799999999998

>  <r_sd_BIOSOLVEIT.TPSA>  (1169) 
70.489999999999995

>  <i_epik_Tot_Q>  (1169) 
2

>  <i_epik_Tot_abs_Q>  (1169) 
2

>  <i_f3d_flags>  (1169) 
0

>  <i_i_glide_confnum>  (1169) 
6

>  <i_i_glide_lignum>  (1169) 
1434

>  <i_i_glide_posenum>  (1169) 
17

>  <i_i_glide_rotatable_bonds>  (1169) 
9

>  <i_lp_mmshare_version>  (1169) 
65135

>  <i_m_ct_format>  (1169) 
2

>  <i_m_source_file_index>  (1169) 
2992

>  <i_qp_#NandO>  (1169) 
6

>  <i_qp_#acid>  (1169) 
0

>  <i_qp_#amide>  (1169) 
0

>  <i_qp_#amidine>  (1169) 
0

>  <i_qp_#amine>  (1169) 
1

>  <i_qp_#in34>  (1169) 
0

>  <i_qp_#in56>  (1169) 
22

>  <i_qp_#metab>  (1169) 
9

>  <i_qp_#nonHatm>  (1169) 
33

>  <i_qp_#noncon>  (1169) 
0

>  <i_qp_#ringatoms>  (1169) 
22

>  <i_qp_#rotor>  (1169) 
8

>  <i_qp_#rtvFG>  (1169) 
0

>  <i_qp_#stars>  (1169) 
2

>  <i_qp_CNS>  (1169) 
0

>  <i_qp_HumanOralAbsorption>  (1169) 
3

>  <i_qp_RuleOfFive>  (1169) 
0

>  <i_qp_RuleOfThree>  (1169) 
1

>  <i_sd_BIOSOLVEIT.INFINISEE\_RESULT\_RANK>  (1169) 
84987

>  <i_sd_version>  (1169) 
0

>  <b_lp_Chiralities_Consistent>  (1169) 
1

>  <b_sd_chiral_flag>  (1169) 
0

>  <canonical_id>  (1169) 
ATP-HTVS-BA0E3BFA8388

>  <compound_code>  (1169) 
95713

>  <title>  (1169) 
rxn502b____EMOL5415347____EMOL30488121____EMOL45491381

>  <variant>  (1169) 
95713-1

>  <source_file>  (1169) 
运行/运行/ATP-VSW/ATP-VSW-DOCK_HTVS_1-001_lib/ATP-VSW-DOCK_HTVS_1-001_lib

>  <canonical_smiles>  (1169) 
CNc1cccc(CNc2c(NC(=O)c3ccccc3C[NH+](C)C)c[nH+]c3ccccc23)c1

>  <scaffold>  (1169) 
O=C(Nc1c[nH+]c2ccccc2c1NCc1ccccc1)c1ccccc1

>  <molecular_formula>  (1169) 
C27H31N5O+2

$$$$
ATP-HTVS-BAB35535B111
     RDKit          3D

 58 60  0  0  0  0  0  0  0  0999 V2000
  200.9410  178.0675  158.4786 O   0  0  0  0  0  0  0  0  0  0  0  0
  200.8121  178.4286  157.3104 C   0  0  0  0  0  0  0  0  0  0  0  0
  201.2561  179.6316  156.8354 N   0  0  0  0  0  0  0  0  0  0  0  0
  201.6617  180.6945  157.7225 C   0  0  0  0  0  0  0  0  0  0  0  0
  201.1126  182.0036  157.6275 C   0  0  0  0  0  0  0  0  0  0  0  0
  200.1166  182.3024  156.6754 N   0  0  0  0  0  0  0  0  0  0  0  0
  199.3809  183.5611  156.6570 C   0  0  1  0  0  0  0  0  0  0  0  0
  198.3572  183.6641  157.7642 C   0  0  0  0  0  0  0  0  0  0  0  0
  197.3372  182.6976  157.8833 C   0  0  0  0  0  0  0  0  0  0  0  0
  196.4100  182.7760  158.9425 C   0  0  0  0  0  0  0  0  0  0  0  0
  196.4913  183.8392  159.8628 C   0  0  0  0  0  0  0  0  0  0  0  0
  197.4917  184.8216  159.7282 C   0  0  0  0  0  0  0  0  0  0  0  0
  198.4329  184.7261  158.6877 C   0  0  0  0  0  0  0  0  0  0  0  0
  195.3310  181.7231  159.1013 C   0  0  1  0  0  0  0  0  0  0  0  0
  194.1629  181.9524  158.2067 N   0  0  2  0  0  0  0  0  0  0  0  0
  193.5577  183.2899  158.3966 C   0  0  2  0  0  0  0  0  0  0  0  0
  193.1422  180.8912  158.3236 C   0  0  2  0  0  0  0  0  0  0  0  0
  201.5928  182.9812  158.5429 C   0  0  0  0  0  0  0  0  0  0  0  0
  202.5171  182.7398  159.4927 N   0  0  0  0  0  0  0  0  0  0  0  0
  203.0281  181.5013  159.5729 C   0  0  0  0  0  0  0  0  0  0  0  0
  202.6649  180.4609  158.6922 C   0  0  0  0  0  0  0  0  0  0  0  0
  201.3511  179.8920  155.3865 C   0  0  2  0  0  0  0  0  0  0  0  0
  200.0988  177.4356  156.3779 C   0  0  1  0  0  0  0  0  0  0  0  0
  201.0943  176.5361  155.6609 C   0  0  0  0  0  0  0  0  0  0  0  0
  201.4081  176.7685  154.3076 C   0  0  0  0  0  0  0  0  0  0  0  0
  202.3282  175.9411  153.6360 C   0  0  0  0  0  0  0  0  0  0  0  0
  202.9146  174.8518  154.3097 C   0  0  0  0  0  0  0  0  0  0  0  0
  202.5977  174.6039  155.6596 C   0  0  0  0  0  0  0  0  0  0  0  0
  201.6918  175.4478  156.3343 C   0  0  0  0  0  0  0  0  0  0  0  0
  199.7655  181.5570  156.0964 H   0  0  0  0  0  0  0  0  0  0  0  0
  200.0701  184.4058  156.6854 H   0  0  0  0  0  0  0  0  0  0  0  0
  198.8657  183.6458  155.6989 H   0  0  0  0  0  0  0  0  0  0  0  0
  197.2853  181.8800  157.1778 H   0  0  0  0  0  0  0  0  0  0  0  0
  195.7846  183.9090  160.6771 H   0  0  0  0  0  0  0  0  0  0  0  0
  197.5473  185.6303  160.4436 H   0  0  0  0  0  0  0  0  0  0  0  0
  199.2136  185.4673  158.6073 H   0  0  0  0  0  0  0  0  0  0  0  0
  195.8246  180.7686  158.9632 H   0  0  0  0  0  0  0  0  0  0  0  0
  194.9790  181.6904  160.1294 H   0  0  0  0  0  0  0  0  0  0  0  0
  193.2225  183.4579  159.4188 H   0  0  0  0  0  0  0  0  0  0  0  0
  192.6914  183.3893  157.7505 H   0  0  0  0  0  0  0  0  0  0  0  0
  194.2431  184.0981  158.1365 H   0  0  0  0  0  0  0  0  0  0  0  0
  192.7360  180.8526  159.3251 H   0  0  0  0  0  0  0  0  0  0  0  0
  193.5411  179.9042  158.1317 H   0  0  0  0  0  0  0  0  0  0  0  0
  192.3196  181.0549  157.6262 H   0  0  0  0  0  0  0  0  0  0  0  0
  201.2392  183.9998  158.5190 H   0  0  0  0  0  0  0  0  0  0  0  0
  203.7479  181.3187  160.3563 H   0  0  0  0  0  0  0  0  0  0  0  0
  203.1230  179.4944  158.7897 H   0  0  0  0  0  0  0  0  0  0  0  0
  201.6671  180.9064  155.1388 H   0  0  0  0  0  0  0  0  0  0  0  0
  200.4084  179.7285  154.8581 H   0  0  0  0  0  0  0  0  0  0  0  0
  202.1283  179.2641  154.9537 H   0  0  0  0  0  0  0  0  0  0  0  0
  199.4499  176.8095  156.9923 H   0  0  0  0  0  0  0  0  0  0  0  0
  199.4198  177.9371  155.6896 H   0  0  0  0  0  0  0  0  0  0  0  0
  200.9567  177.5928  153.7776 H   0  0  0  0  0  0  0  0  0  0  0  0
  202.5674  176.1420  152.6013 H   0  0  0  0  0  0  0  0  0  0  0  0
  203.6041  174.2055  153.7853 H   0  0  0  0  0  0  0  0  0  0  0  0
  203.0387  173.7615  156.1735 H   0  0  0  0  0  0  0  0  0  0  0  0
  201.4536  175.2563  157.3697 H   0  0  0  0  0  0  0  0  0  0  0  0
  194.4672  181.9515  157.2408 H   0  0  0  0  0  0  0  0  0  0  0  0
  1  2  2  0
  2  3  1  0
  2 23  1  0
  3  4  1  0
  3 22  1  0
  4  5  1  0
  4 21  2  0
  5  6  1  0
  5 18  2  0
  6  7  1  0
  6 30  1  0
  7  8  1  0
  7 31  1  1
  7 32  1  0
  8  9  2  0
  8 13  1  0
  9 10  1  0
  9 33  1  0
 10 11  2  0
 10 14  1  0
 11 12  1  0
 11 34  1  0
 12 13  2  0
 12 35  1  0
 13 36  1  0
 14 15  1  0
 14 37  1  6
 14 38  1  0
 15 16  1  0
 15 17  1  0
 15 58  1  6
 16 39  1  1
 16 40  1  0
 16 41  1  0
 17 42  1  1
 17 43  1  0
 17 44  1  0
 18 19  1  0
 18 45  1  0
 19 20  2  0
 20 21  1  0
 20 46  1  0
 21 47  1  0
 22 48  1  1
 22 49  1  0
 22 50  1  0
 23 24  1  0
 23 51  1  1
 23 52  1  0
 24 25  2  0
 24 29  1  0
 25 26  1  0
 25 53  1  0
 26 27  2  0
 26 54  1  0
 27 28  1  0
 27 55  1  0
 28 29  2  0
 28 56  1  0
 29 57  1  0
M  CHG  1  15   1
M  END
>  <s_epik_cmdline>  (1170) 
J2VwaWtfcHl0aG9uJywgJy1waCcsICc3LjAwMDAwMCcsICctcGh0JywgJzIuMDAwMDAwJywgJy1tcycsICcxNicsICctdG4nLCAnOCcsICctbWEnLCAnMjAwJywgJy1pbWFlJywgJzxpbmZpbGUubWFlPicsICctb21hZScsICc8b3V0ZmlsZS5tYWU+Jw==

>  <s_epik_input>  (1170) 
W2NIXTFbY0hdW2NIXVtjSF1bY0hdYzFbQ0gyXUMoPU8pTihbQ0gzXSljMmMoW2NIXW5bY0hdW2NIXTIpW05IXVtDSDJdYzNbY0hdYyhbY0hdW2NIXVtjSF0zKVtDSDJdTihbQ0gzXSlbQ0gzXQ==

>  <s_i_glide_gridfile>  (1170) 
ATP-Grid

>  <s_lp_Force_Field>  (1170) 
OPLS_2005

>  <s_lp_Variant>  (1170) 
rxn502a____EMOL530620____EMOL81846330____EMOL2873214-1

>  <s_lp_label>  (1170) 
2559_sdstereoexpander_1_neutralizer_1_epik_1_stereoizer_1

>  <s_m_source_file>  (1170) 
ATP-VSW-LIGPREP-003-in.maegz

>  <s_sd_BIOSOLVEIT.INFINISEE\_QUERY\_NAME>  (1170) 
Ref-Lig

>  <s_sd_BIOSOLVEIT.INFINISEE\_QUERY\_SMILES>  (1170) 
S(c1nc2c(cc1C[NH2+]Cc3ccc(cc3)C[NH+](C)C)cccc2)Cc4ccccc4

>  <s_sd_BIOSOLVEIT.INFINISEE\_REACTION\_NAME>  (1170) 
rxn502a

>  <s_sd_BIOSOLVEIT.INFINISEE\_REAGENT1\_NAME>  (1170) 
EMOL530620

>  <s_sd_BIOSOLVEIT.INFINISEE\_REAGENT1\_SMILES>  (1170) 
ClC(=O)Cc1ccccc1

>  <s_sd_BIOSOLVEIT.INFINISEE\_REAGENT2\_NAME>  (1170) 
EMOL81846330

>  <s_sd_BIOSOLVEIT.INFINISEE\_REAGENT2\_SMILES>  (1170) 
Ic1c(NC)ccnc1

>  <s_sd_BIOSOLVEIT.INFINISEE\_REAGENT3\_NAME>  (1170) 
EMOL2873214

>  <s_sd_BIOSOLVEIT.INFINISEE\_REAGENT3\_SMILES>  (1170) 
N(Cc1cc(ccc1)CN)(C)C

>  <s_sd_BIOSOLVEIT.INFINISEE\_SPACE>  (1170) 
eXplore_7tr_2022-12

>  <s_vsw_compound_code>  (1170) 
81859

>  <s_vsw_variant>  (1170) 
81859-1

>  <r_epik_Charging_Adjusted_Penalty>  (1170) 
0.12439414084963001

>  <r_epik_Ionization_Penalty>  (1170) 
0.080299999999999996

>  <r_epik_Ionization_Penalty_Charging>  (1170) 
0.0441

>  <r_epik_Ionization_Penalty_Neutral>  (1170) 
0.036200000000000003

>  <r_epik_State_Penalty>  (1170) 
0.080299999999999996

>  <r_i_docking_score>  (1170) 
-4.2115485873440397

>  <r_i_glide_ecoul>  (1170) 
-7.2339797019958496

>  <r_i_glide_eff_state_penalty>  (1170) 
0.080299999999999996

>  <r_i_glide_einternal>  (1170) 
6.8328371047973597

>  <r_i_glide_emodel>  (1170) 
-51.579130577294002

>  <r_i_glide_energy>  (1170) 
-38.882150173187298

>  <r_i_glide_erotb>  (1170) 
0.89945080978840697

>  <r_i_glide_esite>  (1170) 
-0.100585626043992

>  <r_i_glide_evdw>  (1170) 
-31.648170471191399

>  <r_i_glide_gscore>  (1170) 
-4.29184858734404

>  <r_i_glide_hbond>  (1170) 
-0.114019894525254

>  <r_i_glide_ligand_efficiency>  (1170) 
-0.14522581335669099

>  <r_i_glide_ligand_efficiency_ln>  (1170) 
-0.964337830844192

>  <r_i_glide_ligand_efficiency_sa>  (1170) 
-0.44617970939886797

>  <r_i_glide_lipo>  (1170) 
-1.44887803913943

>  <r_i_glide_metal>  (1170) 
-0

>  <r_i_glide_rewards>  (1170) 
-0.86031035856483096

>  <r_lp_Energy>  (1170) 
36.560422000000003

>  <r_lp_tautomer_probability>  (1170) 
0.999999999999999

>  <r_qp_ACxDN^.5/SA>  (1170) 
0.010644799999999999

>  <r_qp_CIQPlogS>  (1170) 
-4.1429999999999998

>  <r_qp_EA(eV)>  (1170) 
0.070999999999999994

>  <r_qp_FISA>  (1170) 
62.765999999999998

>  <r_qp_FOSA>  (1170) 
248.12100000000001

>  <r_qp_IP(eV)>  (1170) 
8.5289999999999999

>  <r_qp_Jm>  (1170) 
0.16716184870140699

>  <r_qp_PISA>  (1170) 
393.68000000000001

>  <r_qp_PSA>  (1170) 
56.569000000000003

>  <r_qp_PercentHumanOralAbsorption>  (1170) 
100

>  <r_qp_QPPCaco>  (1170) 
627.47199999999998

>  <r_qp_QPPMDCK>  (1170) 
330.714

>  <r_qp_QPlogBB>  (1170) 
-0.14399999999999999

>  <r_qp_QPlogHERG>  (1170) 
-7.0640000000000001

>  <r_qp_QPlogKhsa>  (1170) 
0.33300000000000002

>  <r_qp_QPlogKp>  (1170) 
-2.5840000000000001

>  <r_qp_QPlogPC16>  (1170) 
13.773

>  <r_qp_QPlogPo/w>  (1170) 
3.8180000000000001

>  <r_qp_QPlogPoct>  (1170) 
20.690000000000001

>  <r_qp_QPlogPw>  (1170) 
11.606999999999999

>  <r_qp_QPlogS>  (1170) 
-3.782

>  <r_qp_QPpolrz>  (1170) 
44.631

>  <r_qp_SASA>  (1170) 
704.56600000000003

>  <r_qp_SAamideO>  (1170) 
0

>  <r_qp_SAfluorine>  (1170) 
0

>  <r_qp_WPSA>  (1170) 
0

>  <r_qp_accptHB>  (1170) 
7.5

>  <r_qp_dip^2/V>  (1170) 
0.042057499999999998

>  <r_qp_dipole>  (1170) 
7.4039999999999999

>  <r_qp_donorHB>  (1170) 
1

>  <r_qp_glob>  (1170) 
0.81901990000000002

>  <r_qp_mol_MW>  (1170) 
388.51100000000002

>  <r_qp_volume>  (1170) 
1303.3979999999999

>  <r_sd_BIOSOLVEIT.INFINISEE\_FTREES\_SIMILARITY>  (1170) 
0.91200000000000003

>  <r_sd_BIOSOLVEIT.LOGP>  (1170) 
2.5436999999999999

>  <r_sd_BIOSOLVEIT.MOLECULAR\_WEIGHT>  (1170) 
389.51999999999998

>  <r_sd_BIOSOLVEIT.TPSA>  (1170) 
49.670000000000002

>  <i_epik_Tot_Q>  (1170) 
1

>  <i_epik_Tot_abs_Q>  (1170) 
1

>  <i_f3d_flags>  (1170) 
0

>  <i_i_glide_confnum>  (1170) 
9

>  <i_i_glide_lignum>  (1170) 
1127

>  <i_i_glide_posenum>  (1170) 
8

>  <i_i_glide_rotatable_bonds>  (1170) 
9

>  <i_lp_mmshare_version>  (1170) 
65135

>  <i_m_ct_format>  (1170) 
2

>  <i_m_source_file_index>  (1170) 
2559

>  <i_qp_#NandO>  (1170) 
5

>  <i_qp_#acid>  (1170) 
0

>  <i_qp_#amide>  (1170) 
0

>  <i_qp_#amidine>  (1170) 
0

>  <i_qp_#amine>  (1170) 
1

>  <i_qp_#in34>  (1170) 
0

>  <i_qp_#in56>  (1170) 
18

>  <i_qp_#metab>  (1170) 
9

>  <i_qp_#nonHatm>  (1170) 
29

>  <i_qp_#noncon>  (1170) 
0

>  <i_qp_#ringatoms>  (1170) 
18

>  <i_qp_#rotor>  (1170) 
8

>  <i_qp_#rtvFG>  (1170) 
0

>  <i_qp_#stars>  (1170) 
1

>  <i_qp_CNS>  (1170) 
1

>  <i_qp_HumanOralAbsorption>  (1170) 
3

>  <i_qp_RuleOfFive>  (1170) 
0

>  <i_qp_RuleOfThree>  (1170) 
1

>  <i_sd_BIOSOLVEIT.INFINISEE\_RESULT\_RANK>  (1170) 
36798

>  <i_sd_version>  (1170) 
0

>  <b_lp_Chiralities_Consistent>  (1170) 
1

>  <b_sd_chiral_flag>  (1170) 
0

>  <canonical_id>  (1170) 
ATP-HTVS-BAB35535B111

>  <compound_code>  (1170) 
81859

>  <title>  (1170) 
rxn502a____EMOL530620____EMOL81846330____EMOL2873214

>  <variant>  (1170) 
81859-1

>  <source_file>  (1170) 
运行/运行/ATP-VSW/ATP-VSW-DOCK_HTVS_1-003_lib/ATP-VSW-DOCK_HTVS_1-003_lib.mae

>  <canonical_smiles>  (1170) 
CN(C(=O)Cc1ccccc1)c1ccncc1NCc1cccc(C[NH+](C)C)c1

>  <scaffold>  (1170) 
O=C(Cc1ccccc1)Nc1ccncc1NCc1ccccc1

>  <molecular_formula>  (1170) 
C24H29N4O+

$$$$
ATP-HTVS-BAD00D53E534
     RDKit          3D

 55 58  0  0  0  0  0  0  0  0999 V2000
  197.3600  181.4448  151.2954 F   0  0  0  0  0  0  0  0  0  0  0  0
  197.4826  181.1505  152.6137 C   0  0  0  0  0  0  0  0  0  0  0  0
  197.7891  179.8502  153.0565 C   0  0  0  0  0  0  0  0  0  0  0  0
  198.0041  178.7986  152.0894 C   0  0  0  0  0  0  0  0  0  0  0  0
  198.1797  177.9604  151.3125 N   0  0  0  0  0  0  0  0  0  0  0  0
  197.9123  179.5660  154.4370 C   0  0  0  0  0  0  0  0  0  0  0  0
  197.7041  180.5858  155.3830 C   0  0  0  0  0  0  0  0  0  0  0  0
  197.3497  181.8774  154.9417 C   0  0  0  0  0  0  0  0  0  0  0  0
  197.2751  182.1635  153.5564 C   0  0  0  0  0  0  0  0  0  0  0  0
  197.0941  183.0015  155.8909 C   0  0  0  0  0  0  0  0  0  0  0  0
  197.2441  184.1528  155.5251 O   0  0  0  0  0  0  0  0  0  0  0  0
  196.5706  182.6523  157.0869 N   0  0  0  0  0  0  0  0  0  0  0  0
  195.9742  183.5258  158.0501 C   0  0  0  0  0  0  0  0  0  0  0  0
  196.6177  184.6581  158.6093 C   0  0  0  0  0  0  0  0  0  0  0  0
  198.0061  184.9964  158.2424 C   0  0  0  0  0  0  0  0  0  0  0  0
  199.1632  185.1762  157.9673 C   0  0  0  0  0  0  0  0  0  0  0  0
  200.5649  185.1924  157.5229 C   0  0  1  0  0  0  0  0  0  0  0  0
  201.2901  183.9958  157.9418 N   0  0  0  0  0  0  0  0  0  0  0  0
  201.5464  183.8937  159.3813 C   0  0  2  0  0  0  0  0  0  0  0  0
  202.6351  182.8818  159.6925 C   0  0  0  0  0  0  0  0  0  0  0  0
  203.4725  183.1005  160.8053 C   0  0  0  0  0  0  0  0  0  0  0  0
  204.4461  182.1467  161.1698 C   0  0  0  0  0  0  0  0  0  0  0  0
  205.2430  182.3653  162.2457 F   0  0  0  0  0  0  0  0  0  0  0  0
  204.5926  180.9674  160.4156 C   0  0  0  0  0  0  0  0  0  0  0  0
  203.7591  180.7364  159.3047 C   0  0  0  0  0  0  0  0  0  0  0  0
  202.7857  181.6928  158.9414 C   0  0  0  0  0  0  0  0  0  0  0  0
  200.2679  183.5680  160.1754 C   0  0  2  0  0  0  0  0  0  0  0  0
  195.9411  185.4137  159.6158 C   0  0  0  0  0  0  0  0  0  0  0  0
  194.6044  185.0442  159.9515 C   0  0  0  0  0  0  0  0  0  0  0  0
  193.9929  183.9998  159.3784 N   0  0  0  0  0  0  0  0  0  0  0  0
  194.6586  183.2559  158.4678 C   0  0  0  0  0  0  0  0  0  0  0  0
  193.9112  185.8472  160.9030 C   0  0  0  0  0  0  0  0  0  0  0  0
  194.5211  186.9344  161.5330 C   0  0  0  0  0  0  0  0  0  0  0  0
  195.8552  187.2667  161.2243 C   0  0  0  0  0  0  0  0  0  0  0  0
  196.5501  186.4992  160.2761 C   0  0  0  0  0  0  0  0  0  0  0  0
  200.8307  183.1700  157.5732 H   0  0  0  0  0  0  0  0  0  0  0  0
  198.1434  178.5763  154.7918 H   0  0  0  0  0  0  0  0  0  0  0  0
  197.7984  180.3656  156.4413 H   0  0  0  0  0  0  0  0  0  0  0  0
  197.0394  183.1644  153.2275 H   0  0  0  0  0  0  0  0  0  0  0  0
  196.3734  181.6660  157.2217 H   0  0  0  0  0  0  0  0  0  0  0  0
  200.6320  185.3144  156.4214 H   0  0  0  0  0  0  0  0  0  0  0  0
  200.9864  186.0964  157.9612 H   0  0  0  0  0  0  0  0  0  0  0  0
  201.9311  184.8641  159.6962 H   0  0  0  0  0  0  0  0  0  0  0  0
  203.3523  183.9881  161.4110 H   0  0  0  0  0  0  0  0  0  0  0  0
  205.3416  180.2435  160.6861 H   0  0  0  0  0  0  0  0  0  0  0  0
  203.8650  179.8331  158.7209 H   0  0  0  0  0  0  0  0  0  0  0  0
  202.1391  181.4827  158.0994 H   0  0  0  0  0  0  0  0  0  0  0  0
  200.5281  183.3741  161.2470 H   0  0  0  0  0  0  0  0  0  0  0  0
  199.8427  182.6481  159.7924 H   0  0  0  0  0  0  0  0  0  0  0  0
  199.5355  184.3445  160.0724 H   0  0  0  0  0  0  0  0  0  0  0  0
  194.1020  182.4535  158.0279 H   0  0  0  0  0  0  0  0  0  0  0  0
  192.8838  185.6084  161.1376 H   0  0  0  0  0  0  0  0  0  0  0  0
  193.9864  187.5249  162.2679 H   0  0  0  0  0  0  0  0  0  0  0  0
  196.3562  188.0946  161.7019 H   0  0  0  0  0  0  0  0  0  0  0  0
  197.5716  186.7808  160.0724 H   0  0  0  0  0  0  0  0  0  0  0  0
  1  2  1  0
  2  3  2  0
  2  9  1  0
  3  4  1  0
  3  6  1  0
  4  5  3  0
  6  7  2  0
  6 37  1  0
  7  8  1  0
  7 38  1  0
  8  9  2  0
  8 10  1  0
  9 39  1  0
 10 11  2  0
 10 12  1  0
 12 13  1  0
 12 40  1  0
 13 14  2  0
 13 31  1  0
 14 15  1  0
 14 28  1  0
 15 16  3  0
 16 17  1  0
 17 18  1  0
 17 41  1  6
 17 42  1  0
 18 19  1  0
 18 36  1  0
 19 20  1  0
 19 27  1  0
 19 43  1  1
 20 21  1  0
 20 26  2  0
 21 22  2  0
 21 44  1  0
 22 23  1  0
 22 24  1  0
 24 25  2  0
 24 45  1  0
 25 26  1  0
 25 46  1  0
 26 47  1  0
 27 48  1  1
 27 49  1  0
 27 50  1  0
 28 29  1  0
 28 35  2  0
 29 30  1  0
 29 32  2  0
 30 31  2  0
 31 51  1  0
 32 33  1  0
 32 52  1  0
 33 34  2  0
 33 53  1  0
 34 35  1  0
 34 54  1  0
 35 55  1  0
M  END
>  <s_epik_cmdline>  (1171) 
J2VwaWtfcHl0aG9uJywgJy1waCcsICc3LjAwMDAwMCcsICctcGh0JywgJzIuMDAwMDAwJywgJy1tcycsICcxNicsICctdG4nLCAnOCcsICctbWEnLCAnMjAwJywgJy1pbWFlJywgJzxpbmZpbGUubWFlPicsICctb21hZScsICc8b3V0ZmlsZS5tYWU+Jw==

>  <s_epik_input>  (1171) 
RmMxYyhDI04pW2NIXVtjSF1jKFtjSF0xKUMoPU8pW05IXWMoW2NIXW5jKGMyMylbY0hdW2NIXVtjSF1bY0hdMyljMkMjQ1tDSDJdW05IXVtDQEBIXShbQ0gzXSljNFtjSF1jKEYpW2NIXVtjSF1bY0hdNA==

>  <s_i_glide_gridfile>  (1171) 
ATP-Grid

>  <s_lp_Force_Field>  (1171) 
OPLS_2005

>  <s_lp_Variant>  (1171) 
rxn503b____EMOL911931____EMOL30488121____EMOL317509042-2

>  <s_lp_label>  (1171) 
3060_sdstereoexpander_2_neutralizer_1_epik_1_stereoizer_1

>  <s_m_source_file>  (1171) 
ATP-VSW-LIGPREP-001-in.maegz

>  <s_sd_BIOSOLVEIT.INFINISEE\_QUERY\_NAME>  (1171) 
Ref-Lig

>  <s_sd_BIOSOLVEIT.INFINISEE\_QUERY\_SMILES>  (1171) 
S(c1nc2c(cc1C[NH2+]Cc3ccc(cc3)C[NH+](C)C)cccc2)Cc4ccccc4

>  <s_sd_BIOSOLVEIT.INFINISEE\_REACTION\_NAME>  (1171) 
rxn503b

>  <s_sd_BIOSOLVEIT.INFINISEE\_REAGENT1\_NAME>  (1171) 
EMOL911931

>  <s_sd_BIOSOLVEIT.INFINISEE\_REAGENT1\_SMILES>  (1171) 
Fc1c(C#N)ccc(c1)C(=O)O

>  <s_sd_BIOSOLVEIT.INFINISEE\_REAGENT2\_NAME>  (1171) 
EMOL30488121

>  <s_sd_BIOSOLVEIT.INFINISEE\_REAGENT2\_SMILES>  (1171) 
Brc1c(N)cnc2c1cccc2

>  <s_sd_BIOSOLVEIT.INFINISEE\_REAGENT3\_NAME>  (1171) 
EMOL317509042

>  <s_sd_BIOSOLVEIT.INFINISEE\_REAGENT3\_SMILES>  (1171) 
Fc1cc(ccc1)C(NCC#C)C

>  <s_sd_BIOSOLVEIT.INFINISEE\_SPACE>  (1171) 
eXplore_7tr_2022-12

>  <s_vsw_compound_code>  (1171) 
97889

>  <s_vsw_variant>  (1171) 
97889-2

>  <r_epik_Charging_Adjusted_Penalty>  (1171) 
0.25225277160849602

>  <r_epik_Ionization_Penalty>  (1171) 
0.25430000000000003

>  <r_epik_Ionization_Penalty_Charging>  (1171) 
0

>  <r_epik_Ionization_Penalty_Neutral>  (1171) 
0.25430000000000003

>  <r_epik_State_Penalty>  (1171) 
0.25230000000000002

>  <r_i_docking_score>  (1171) 
-3.9222753083836399

>  <r_i_glide_ecoul>  (1171) 
-4.5346198081970197

>  <r_i_glide_eff_state_penalty>  (1171) 
0.25230000000000002

>  <r_i_glide_einternal>  (1171) 
14.1089029312134

>  <r_i_glide_emodel>  (1171) 
-45.031422600182601

>  <r_i_glide_energy>  (1171) 
-40.7282423973083

>  <r_i_glide_erotb>  (1171) 
0.64899914952470195

>  <r_i_glide_esite>  (1171) 
-0.086962567892833395

>  <r_i_glide_evdw>  (1171) 
-36.1936225891113

>  <r_i_glide_gscore>  (1171) 
-4.1745753083836297

>  <r_i_glide_hbond>  (1171) 
0

>  <r_i_glide_ligand_efficiency>  (1171) 
-0.112065008810961

>  <r_i_glide_ligand_efficiency_ln>  (1171) 
-0.86102648040053598

>  <r_i_glide_ligand_efficiency_sa>  (1171) 
-0.36657207443809198

>  <r_i_glide_lipo>  (1171) 
-1.8287588442998799

>  <r_i_glide_metal>  (1171) 
-0

>  <r_i_glide_rewards>  (1171) 
-0.41797894503050798

>  <r_lp_Energy>  (1171) 
31.776516000000001

>  <r_qp_ACxDN^.5/SA>  (1171) 
0.012313299999999999

>  <r_qp_CIQPlogS>  (1171) 
-7.3070000000000004

>  <r_qp_EA(eV)>  (1171) 
1.524

>  <r_qp_FISA>  (1171) 
132.029

>  <r_qp_FOSA>  (1171) 
123.318

>  <r_qp_IP(eV)>  (1171) 
8.8580000000000005

>  <r_qp_Jm>  (1171) 
3.8712713837223298e-05

>  <r_qp_PISA>  (1171) 
402.70400000000001

>  <r_qp_PSA>  (1171) 
84.718000000000004

>  <r_qp_PercentHumanOralAbsorption>  (1171) 
92.359999999999999

>  <r_qp_QPPCaco>  (1171) 
138.28200000000001

>  <r_qp_QPPMDCK>  (1171) 
196.90600000000001

>  <r_qp_QPlogBB>  (1171) 
-0.63200000000000001

>  <r_qp_QPlogHERG>  (1171) 
-7.194

>  <r_qp_QPlogKhsa>  (1171) 
0.79100000000000004

>  <r_qp_QPlogKp>  (1171) 
-3.8290000000000002

>  <r_qp_QPlogPC16>  (1171) 
14.936999999999999

>  <r_qp_QPlogPo/w>  (1171) 
4.6280000000000001

>  <r_qp_QPlogPoct>  (1171) 
24.018000000000001

>  <r_qp_QPlogPw>  (1171) 
12.750999999999999

>  <r_qp_QPlogS>  (1171) 
-6.2519999999999998

>  <r_qp_QPpolrz>  (1171) 
48.890999999999998

>  <r_qp_SASA>  (1171) 
746.54300000000001

>  <r_qp_SAamideO>  (1171) 
0

>  <r_qp_SAfluorine>  (1171) 
88.492000000000004

>  <r_qp_WPSA>  (1171) 
88.492000000000004

>  <r_qp_accptHB>  (1171) 
6.5

>  <r_qp_dip^2/V>  (1171) 
0.049962399999999997

>  <r_qp_dipole>  (1171) 
8.3859999999999992

>  <r_qp_donorHB>  (1171) 
2

>  <r_qp_glob>  (1171) 
0.81367140000000004

>  <r_qp_mol_MW>  (1171) 
466.48899999999998

>  <r_qp_volume>  (1171) 
1407.6949999999999

>  <r_sd_BIOSOLVEIT.INFINISEE\_FTREES\_SIMILARITY>  (1171) 
0.90200000000000002

>  <r_sd_BIOSOLVEIT.LOGP>  (1171) 
4.3130800000000002

>  <r_sd_BIOSOLVEIT.MOLECULAR\_WEIGHT>  (1171) 
467.49700000000001

>  <r_sd_BIOSOLVEIT.TPSA>  (1171) 
82.390000000000001

>  <i_epik_Tot_Q>  (1171) 
0

>  <i_epik_Tot_abs_Q>  (1171) 
0

>  <i_f3d_flags>  (1171) 
0

>  <i_i_glide_confnum>  (1171) 
8

>  <i_i_glide_lignum>  (1171) 
31

>  <i_i_glide_posenum>  (1171) 
18

>  <i_i_glide_rotatable_bonds>  (1171) 
8

>  <i_lp_mmshare_version>  (1171) 
65135

>  <i_m_ct_format>  (1171) 
2

>  <i_m_source_file_index>  (1171) 
3060

>  <i_qp_#NandO>  (1171) 
5

>  <i_qp_#acid>  (1171) 
0

>  <i_qp_#amide>  (1171) 
0

>  <i_qp_#amidine>  (1171) 
0

>  <i_qp_#amine>  (1171) 
1

>  <i_qp_#in34>  (1171) 
0

>  <i_qp_#in56>  (1171) 
22

>  <i_qp_#metab>  (1171) 
5

>  <i_qp_#nonHatm>  (1171) 
35

>  <i_qp_#noncon>  (1171) 
0

>  <i_qp_#ringatoms>  (1171) 
22

>  <i_qp_#rotor>  (1171) 
8

>  <i_qp_#rtvFG>  (1171) 
0

>  <i_qp_#stars>  (1171) 
0

>  <i_qp_CNS>  (1171) 
1

>  <i_qp_HumanOralAbsorption>  (1171) 
1

>  <i_qp_RuleOfFive>  (1171) 
0

>  <i_qp_RuleOfThree>  (1171) 
1

>  <i_sd_BIOSOLVEIT.INFINISEE\_RESULT\_RANK>  (1171) 
91890

>  <i_sd_version>  (1171) 
0

>  <b_lp_Chiralities_Consistent>  (1171) 
1

>  <b_sd_chiral_flag>  (1171) 
0

>  <canonical_id>  (1171) 
ATP-HTVS-BAD00D53E534

>  <compound_code>  (1171) 
97889

>  <title>  (1171) 
rxn503b____EMOL911931____EMOL30488121____EMOL317509042

>  <variant>  (1171) 
97889-2

>  <source_file>  (1171) 
运行/运行/ATP-VSW/ATP-VSW-DOCK_HTVS_1-002_lib.maegz

>  <canonical_smiles>  (1171) 
C[C@H](NCC#Cc1c(NC(=O)c2ccc(C#N)c(F)c2)cnc2ccccc12)c1cccc(F)c1

>  <scaffold>  (1171) 
O=C(Nc1cnc2ccccc2c1C#CCNCc1ccccc1)c1ccccc1

>  <molecular_formula>  (1171) 
C28H20F2N4O

$$$$
ATP-HTVS-BAE9605F8CCC
     RDKit          3D

 52 54  0  0  0  0  0  0  0  0999 V2000
  195.1423  186.2385  160.9215 Cl  0  0  0  0  0  0  0  0  0  0  0  0
  196.1809  185.7521  159.6344 C   0  0  0  0  0  0  0  0  0  0  0  0
  197.3793  186.4459  159.3865 C   0  0  0  0  0  0  0  0  0  0  0  0
  198.2163  186.0450  158.3284 C   0  0  0  0  0  0  0  0  0  0  0  0
  197.8620  184.9628  157.4953 C   0  0  0  0  0  0  0  0  0  0  0  0
  198.7039  184.7082  156.4319 O   0  0  0  0  0  0  0  0  0  0  0  0
  198.3065  183.7845  155.4152 C   0  0  1  0  0  0  0  0  0  0  0  0
  198.7500  182.4228  155.8227 C   0  0  0  0  0  0  0  0  0  0  0  0
  197.6134  181.1144  156.1134 S   0  0  0  0  0  0  0  0  0  0  0  0
  198.9585  180.0753  156.5213 C   0  0  0  0  0  0  0  0  0  0  0  0
  200.1680  180.7101  156.3606 C   0  0  0  0  0  0  0  0  0  0  0  0
  200.0288  182.0454  155.9697 N   0  0  0  0  0  0  0  0  0  0  0  0
  201.5445  180.1438  156.5695 C   0  0  1  0  0  0  0  0  0  0  0  0
  201.9382  178.8979  155.9358 N   0  0  0  0  0  0  0  0  0  0  0  0
  201.1976  177.7916  156.5409 C   0  0  1  0  0  0  0  0  0  0  0  0
  201.3774  176.5097  155.7643 C   0  0  0  0  0  0  0  0  0  0  0  0
  200.8117  176.3883  154.4786 C   0  0  0  0  0  0  0  0  0  0  0  0
  200.9428  175.1793  153.7725 C   0  0  0  0  0  0  0  0  0  0  0  0
  201.6207  174.0866  154.3603 C   0  0  0  0  0  0  0  0  0  0  0  0
  202.1677  174.2289  155.6556 C   0  0  0  0  0  0  0  0  0  0  0  0
  202.0642  175.4340  156.3465 C   0  0  0  0  0  0  0  0  0  0  0  0
  201.7982  172.7843  153.5965 C   0  0  1  0  0  0  0  0  0  0  0  0
  203.1429  172.6531  152.9689 N   0  0  2  0  0  0  0  0  0  0  0  0
  204.2821  172.8860  153.8905 C   0  0  2  0  0  0  0  0  0  0  0  0
  203.2798  173.4434  151.7234 C   0  0  2  0  0  0  0  0  0  0  0  0
  196.6687  184.2489  157.7736 C   0  0  0  0  0  0  0  0  0  0  0  0
  195.8295  184.6519  158.8299 C   0  0  0  0  0  0  0  0  0  0  0  0
  202.9228  178.7572  156.1116 H   0  0  0  0  0  0  0  0  0  0  0  0
  197.6541  187.2928  159.9961 H   0  0  0  0  0  0  0  0  0  0  0  0
  199.1305  186.5867  158.1292 H   0  0  0  0  0  0  0  0  0  0  0  0
  197.2272  183.7775  155.2309 H   0  0  0  0  0  0  0  0  0  0  0  0
  198.7947  184.0441  154.4729 H   0  0  0  0  0  0  0  0  0  0  0  0
  198.7577  179.0723  156.8461 H   0  0  0  0  0  0  0  0  0  0  0  0
  202.2792  180.8663  156.2260 H   0  0  0  0  0  0  0  0  0  0  0  0
  201.7542  180.0442  157.6299 H   0  0  0  0  0  0  0  0  0  0  0  0
  201.5563  177.6585  157.5714 H   0  0  0  0  0  0  0  0  0  0  0  0
  200.1431  177.9570  156.5379 H   0  0  0  0  0  0  0  0  0  0  0  0
  200.2664  177.2081  154.0576 H   0  0  0  0  0  0  0  0  0  0  0  0
  200.5007  175.0886  152.7907 H   0  0  0  0  0  0  0  0  0  0  0  0
  202.6723  173.4052  156.1352 H   0  0  0  0  0  0  0  0  0  0  0  0
  202.5032  175.5296  157.3302 H   0  0  0  0  0  0  0  0  0  0  0  0
  201.6312  171.9473  154.2777 H   0  0  0  0  0  0  0  0  0  0  0  0
  201.0240  172.6928  152.8274 H   0  0  0  0  0  0  0  0  0  0  0  0
  204.3285  173.9241  154.2244 H   0  0  0  0  0  0  0  0  0  0  0  0
  205.2401  172.6647  153.4129 H   0  0  0  0  0  0  0  0  0  0  0  0
  204.1952  172.2369  154.7630 H   0  0  0  0  0  0  0  0  0  0  0  0
  203.1559  174.5106  151.9182 H   0  0  0  0  0  0  0  0  0  0  0  0
  202.5373  173.1484  150.9813 H   0  0  0  0  0  0  0  0  0  0  0  0
  204.2676  173.3044  151.2819 H   0  0  0  0  0  0  0  0  0  0  0  0
  196.3463  183.4059  157.1822 H   0  0  0  0  0  0  0  0  0  0  0  0
  194.9032  184.1217  159.0039 H   0  0  0  0  0  0  0  0  0  0  0  0
  203.2017  171.6660  152.7529 H   0  0  0  0  0  0  0  0  0  0  0  0
  1  2  1  0
  2  3  1  0
  2 27  2  0
  3  4  2  0
  3 29  1  0
  4  5  1  0
  4 30  1  0
  5  6  1  0
  5 26  2  0
  6  7  1  0
  7  8  1  0
  7 31  1  6
  7 32  1  0
  8  9  1  0
  8 12  2  0
  9 10  1  0
 10 11  2  0
 10 33  1  0
 11 12  1  0
 11 13  1  0
 13 14  1  0
 13 34  1  6
 13 35  1  0
 14 15  1  0
 14 28  1  0
 15 16  1  0
 15 36  1  1
 15 37  1  0
 16 17  1  0
 16 21  2  0
 17 18  2  0
 17 38  1  0
 18 19  1  0
 18 39  1  0
 19 20  2  0
 19 22  1  0
 20 21  1  0
 20 40  1  0
 21 41  1  0
 22 23  1  0
 22 42  1  1
 22 43  1  0
 23 24  1  0
 23 25  1  0
 23 52  1  6
 24 44  1  1
 24 45  1  0
 24 46  1  0
 25 47  1  1
 25 48  1  0
 25 49  1  0
 26 27  1  0
 26 50  1  0
 27 51  1  0
M  CHG  1  23   1
M  END
>  <s_epik_cmdline>  (1172) 
J2VwaWtfcHl0aG9uJywgJy1waCcsICc3LjAwMDAwMCcsICctcGh0JywgJzIuMDAwMDAwJywgJy1tcycsICcxNicsICctdG4nLCAnOCcsICctbWEnLCAnMjAwJywgJy1pbWFlJywgJzxpbmZpbGUubWFlPicsICctb21hZScsICc8b3V0ZmlsZS5tYWU+Jw==

>  <s_epik_input>  (1172) 
Q2xjMVtjSF1bY0hdYyhbY0hdW2NIXTEpT1tDSDJdYzJzW2NIXWMobjIpW0NIMl1bTkhdW0NIMl1jM1tjSF1bY0hdYyhbY0hdW2NIXTMpW0NIMl1OKFtDSDNdKVtDSDNd

>  <s_i_glide_gridfile>  (1172) 
ATP-Grid

>  <s_lp_Force_Field>  (1172) 
OPLS_2005

>  <s_lp_Variant>  (1172) 
m_270004bbb____8288884____7548984-2

>  <s_lp_label>  (1172) 
775_sdstereoexpander_1_neutralizer_1_epik_2_stereoizer_1

>  <s_m_source_file>  (1172) 
ATP-VSW-LIGPREP-001-in.maegz

>  <s_sd_BIOSOLVEIT.INFINISEE\_QUERY\_NAME>  (1172) 
Ref-Lig

>  <s_sd_BIOSOLVEIT.INFINISEE\_QUERY\_SMILES>  (1172) 
S(c1nc2c(cc1C[NH2+]Cc3ccc(cc3)C[NH+](C)C)cccc2)Cc4ccccc4

>  <s_sd_BIOSOLVEIT.INFINISEE\_REACTION\_NAME>  (1172) 
m_270004bbb

>  <s_sd_BIOSOLVEIT.INFINISEE\_REAGENT1\_SMILES>  (1172) 
[R1*]NCc1ccc(cc1)CN(C)C

>  <s_sd_BIOSOLVEIT.INFINISEE\_REAGENT2\_SMILES>  (1172) 
[R1*]CC=1N=C(SC1)COc2ccc(Cl)cc2

>  <s_sd_BIOSOLVEIT.INFINISEE\_SPACE>  (1172) 
REALSpace_44bn_2023-08

>  <s_vsw_compound_code>  (1172) 
24769

>  <s_vsw_variant>  (1172) 
24769-2

>  <r_epik_Charging_Adjusted_Penalty>  (1172) 
0.94652060944253502

>  <r_epik_Ionization_Penalty>  (1172) 
0.90359999999999996

>  <r_epik_Ionization_Penalty_Charging>  (1172) 
0.043299999999999998

>  <r_epik_Ionization_Penalty_Neutral>  (1172) 
0.86029999999999995

>  <r_epik_State_Penalty>  (1172) 
0.9032

>  <r_i_docking_score>  (1172) 
-4.4117354662679702

>  <r_i_glide_ecoul>  (1172) 
-10.068428993225099

>  <r_i_glide_eff_state_penalty>  (1172) 
0.9032

>  <r_i_glide_einternal>  (1172) 
2.86191034317017

>  <r_i_glide_emodel>  (1172) 
-56.3373500010158

>  <r_i_glide_energy>  (1172) 
-39.670226097106898

>  <r_i_glide_erotb>  (1172) 
0.96707012786204705

>  <r_i_glide_esite>  (1172) 
-0.10000000000000001

>  <r_i_glide_evdw>  (1172) 
-29.6017971038818

>  <r_i_glide_gscore>  (1172) 
-5.3149354662679702

>  <r_i_glide_hbond>  (1172) 
-0.33885045031757199

>  <r_i_glide_ligand_efficiency>  (1172) 
-0.16339760986177701

>  <r_i_glide_ligand_efficiency_ln>  (1172) 
-1.02697928340362

>  <r_i_glide_ligand_efficiency_sa>  (1172) 
-0.49019282904679901

>  <r_i_glide_lipo>  (1172) 
-1.9661741214527699

>  <r_i_glide_metal>  (1172) 
-0

>  <r_i_glide_rewards>  (1172) 
-0.88662681818181699

>  <r_lp_Energy>  (1172) 
18.172581000000001

>  <r_lp_tautomer_probability>  (1172) 
1

>  <r_qp_ACxDN^.5/SA>  (1172) 
0.0074174999999999996

>  <r_qp_CIQPlogS>  (1172) 
-4.0099999999999998

>  <r_qp_EA(eV)>  (1172) 
0.78400000000000003

>  <r_qp_FISA>  (1172) 
33.497999999999998

>  <r_qp_FOSA>  (1172) 
285.62599999999998

>  <r_qp_IP(eV)>  (1172) 
9.048

>  <r_qp_Jm>  (1172) 
0.00035237734332894298

>  <r_qp_PISA>  (1172) 
337.61200000000002

>  <r_qp_PSA>  (1172) 
39.259

>  <r_qp_PercentHumanOralAbsorption>  (1172) 
100

>  <r_qp_QPPCaco>  (1172) 
296.512

>  <r_qp_QPPMDCK>  (1172) 
725.06799999999998

>  <r_qp_QPlogBB>  (1172) 
0.71799999999999997

>  <r_qp_QPlogHERG>  (1172) 
-8.5370000000000008

>  <r_qp_QPlogKhsa>  (1172) 
0.70999999999999996

>  <r_qp_QPlogKp>  (1172) 
-4.2089999999999996

>  <r_qp_QPlogPC16>  (1172) 
14.542

>  <r_qp_QPlogPo/w>  (1172) 
4.7939999999999996

>  <r_qp_QPlogPoct>  (1172) 
19.289000000000001

>  <r_qp_QPlogPw>  (1172) 
9.2940000000000005

>  <r_qp_QPlogS>  (1172) 
-4.8490000000000002

>  <r_qp_QPpolrz>  (1172) 
44.713000000000001

>  <r_qp_SASA>  (1172) 
775.197

>  <r_qp_SAamideO>  (1172) 
0

>  <r_qp_SAfluorine>  (1172) 
0

>  <r_qp_WPSA>  (1172) 
118.461

>  <r_qp_accptHB>  (1172) 
5.75

>  <r_qp_dip^2/V>  (1172) 
0.0040730000000000002

>  <r_qp_dipole>  (1172) 
2.3319999999999999

>  <r_qp_donorHB>  (1172) 
1

>  <r_qp_glob>  (1172) 
0.75633479999999997

>  <r_qp_mol_MW>  (1172) 
401.95299999999997

>  <r_qp_volume>  (1172) 
1334.8779999999999

>  <r_sd_BIOSOLVEIT.INFINISEE\_FTREES\_SIMILARITY>  (1172) 
0.92400000000000004

>  <r_sd_BIOSOLVEIT.LOGP>  (1172) 
2.2835999999999999

>  <r_sd_BIOSOLVEIT.MOLECULAR\_WEIGHT>  (1172) 
403.97399999999999

>  <r_sd_BIOSOLVEIT.TPSA>  (1172) 
43.170000000000002

>  <i_epik_Tot_Q>  (1172) 
1

>  <i_epik_Tot_abs_Q>  (1172) 
1

>  <i_f3d_flags>  (1172) 
0

>  <i_i_glide_confnum>  (1172) 
7

>  <i_i_glide_lignum>  (1172) 
118

>  <i_i_glide_posenum>  (1172) 
2

>  <i_i_glide_rotatable_bonds>  (1172) 
9

>  <i_lp_mmshare_version>  (1172) 
65135

>  <i_m_ct_format>  (1172) 
2

>  <i_m_source_file_index>  (1172) 
775

>  <i_qp_#NandO>  (1172) 
4

>  <i_qp_#acid>  (1172) 
0

>  <i_qp_#amide>  (1172) 
0

>  <i_qp_#amidine>  (1172) 
0

>  <i_qp_#amine>  (1172) 
2

>  <i_qp_#in34>  (1172) 
0

>  <i_qp_#in56>  (1172) 
17

>  <i_qp_#metab>  (1172) 
8

>  <i_qp_#nonHatm>  (1172) 
27

>  <i_qp_#noncon>  (1172) 
0

>  <i_qp_#ringatoms>  (1172) 
17

>  <i_qp_#rotor>  (1172) 
9

>  <i_qp_#rtvFG>  (1172) 
0

>  <i_qp_#stars>  (1172) 
0

>  <i_qp_CNS>  (1172) 
2

>  <i_qp_HumanOralAbsorption>  (1172) 
3

>  <i_qp_RuleOfFive>  (1172) 
0

>  <i_qp_RuleOfThree>  (1172) 
1

>  <i_sd_BIOSOLVEIT.INFINISEE\_REAGENT1\_NAME>  (1172) 
8288884

>  <i_sd_BIOSOLVEIT.INFINISEE\_REAGENT2\_NAME>  (1172) 
7548984

>  <i_sd_BIOSOLVEIT.INFINISEE\_RESULT\_RANK>  (1172) 
9583

>  <i_sd_version>  (1172) 
0

>  <b_lp_Chiralities_Consistent>  (1172) 
1

>  <b_sd_chiral_flag>  (1172) 
0

>  <canonical_id>  (1172) 
ATP-HTVS-BAE9605F8CCC

>  <compound_code>  (1172) 
24769

>  <title>  (1172) 
m_270004bbb____8288884____7548984

>  <variant>  (1172) 
24769-2

>  <source_file>  (1172) 
运行/运行/ATP-VSW/ATP-VSW-DOCK_HTVS_1-001_lib/ATP-VSW-DOCK_HTVS_1-001_lib

>  <canonical_smiles>  (1172) 
C[NH+](C)Cc1ccc(CNCc2csc(COc3ccc(Cl)cc3)n2)cc1

>  <scaffold>  (1172) 
c1ccc(CNCc2csc(COc3ccccc3)n2)cc1

>  <molecular_formula>  (1172) 
C21H25ClN3OS+

$$$$
ATP-HTVS-BAF1AE5D2B14
     RDKit          3D

 55 58  0  0  0  0  0  0  0  0999 V2000
  189.5427  190.2334  163.8924 F   0  0  0  0  0  0  0  0  0  0  0  0
  189.2338  190.3637  162.6028 C   0  0  1  0  0  0  0  0  0  0  0  0
  190.4930  190.6703  161.7925 C   0  0  1  0  0  0  0  0  0  0  0  0
  191.3346  189.4884  161.6603 N   0  0  0  0  0  0  0  0  0  0  0  0
  192.4709  189.2720  162.3442 C   0  0  0  0  0  0  0  0  0  0  0  0
  192.8702  189.9901  163.2648 O   0  0  0  0  0  0  0  0  0  0  0  0
  193.3155  188.1422  161.8448 C   0  0  0  0  0  0  0  0  0  0  0  0
  194.7125  188.3147  161.7288 C   0  0  0  0  0  0  0  0  0  0  0  0
  195.5379  187.2780  161.2620 C   0  0  0  0  0  0  0  0  0  0  0  0
  194.9629  186.0514  160.8783 C   0  0  0  0  0  0  0  0  0  0  0  0
  193.5652  185.9011  160.9395 C   0  0  0  0  0  0  0  0  0  0  0  0
  192.7418  186.9261  161.4275 C   0  0  0  0  0  0  0  0  0  0  0  0
  195.8616  184.9074  160.4368 C   0  0  1  0  0  0  0  0  0  0  0  0
  195.8295  184.6894  158.9800 N   0  0  0  0  0  0  0  0  0  0  0  0
  197.1838  184.4019  158.4667 C   0  0  1  0  0  0  0  0  0  0  0  0
  197.2351  183.9490  156.9946 C   0  0  0  0  0  0  0  0  0  0  0  0
  196.7059  182.6831  156.6236 C   0  0  0  0  0  0  0  0  0  0  0  0
  196.0519  181.8456  157.5632 N   0  0  0  0  0  0  0  0  0  0  0  0
  195.2133  182.2356  158.5359 C   0  0  0  0  0  0  0  0  0  0  0  0
  194.7367  181.4428  159.3360 O   0  0  0  0  0  0  0  0  0  0  0  0
  194.7832  183.6889  158.6357 C   0  0  1  0  0  0  0  0  0  0  0  0
  196.8315  182.2354  155.2876 C   0  0  0  0  0  0  0  0  0  0  0  0
  197.4565  183.0400  154.3118 C   0  0  0  0  0  0  0  0  0  0  0  0
  197.9718  184.2970  154.6705 C   0  0  0  0  0  0  0  0  0  0  0  0
  197.8656  184.7469  155.9942 C   0  0  0  0  0  0  0  0  0  0  0  0
  198.1270  185.5839  158.7096 C   0  0  0  0  0  0  0  0  0  0  0  0
  199.4675  185.3698  159.0809 C   0  0  0  0  0  0  0  0  0  0  0  0
  200.3316  186.4686  159.2823 C   0  0  0  0  0  0  0  0  0  0  0  0
  199.8524  187.7838  159.1063 C   0  0  0  0  0  0  0  0  0  0  0  0
  198.5112  188.0046  158.7375 C   0  0  0  0  0  0  0  0  0  0  0  0
  197.6573  186.9079  158.5317 C   0  0  0  0  0  0  0  0  0  0  0  0
  188.7444  189.4502  162.2690 H   0  0  0  0  0  0  0  0  0  0  0  0
  188.5156  191.1757  162.5208 H   0  0  0  0  0  0  0  0  0  0  0  0
  190.2159  190.9989  160.7897 H   0  0  0  0  0  0  0  0  0  0  0  0
  191.0329  191.5092  162.2358 H   0  0  0  0  0  0  0  0  0  0  0  0
  191.1113  188.8526  160.9080 H   0  0  0  0  0  0  0  0  0  0  0  0
  195.1695  189.2540  162.0213 H   0  0  0  0  0  0  0  0  0  0  0  0
  196.6063  187.4310  161.2110 H   0  0  0  0  0  0  0  0  0  0  0  0
  193.1095  184.9701  160.6559 H   0  0  0  0  0  0  0  0  0  0  0  0
  191.6741  186.7709  161.4707 H   0  0  0  0  0  0  0  0  0  0  0  0
  196.8528  185.1414  160.8215 H   0  0  0  0  0  0  0  0  0  0  0  0
  195.6053  183.9818  160.9552 H   0  0  0  0  0  0  0  0  0  0  0  0
  197.5779  183.5641  159.0518 H   0  0  0  0  0  0  0  0  0  0  0  0
  196.1135  180.8248  157.4346 H   0  0  0  0  0  0  0  0  0  0  0  0
  193.9287  183.7256  159.3038 H   0  0  0  0  0  0  0  0  0  0  0  0
  194.3274  183.9528  157.6957 H   0  0  0  0  0  0  0  0  0  0  0  0
  196.4117  181.2838  155.0002 H   0  0  0  0  0  0  0  0  0  0  0  0
  197.5335  182.7045  153.2866 H   0  0  0  0  0  0  0  0  0  0  0  0
  198.4574  184.9279  153.9424 H   0  0  0  0  0  0  0  0  0  0  0  0
  198.3012  185.7155  156.2024 H   0  0  0  0  0  0  0  0  0  0  0  0
  199.8388  184.3614  159.2049 H   0  0  0  0  0  0  0  0  0  0  0  0
  201.3622  186.3004  159.5610 H   0  0  0  0  0  0  0  0  0  0  0  0
  200.5070  188.6281  159.2620 H   0  0  0  0  0  0  0  0  0  0  0  0
  198.1316  189.0102  158.5994 H   0  0  0  0  0  0  0  0  0  0  0  0
  196.6338  187.0788  158.2355 H   0  0  0  0  0  0  0  0  0  0  0  0
  1  2  1  0
  2  3  1  0
  2 32  1  6
  2 33  1  0
  3  4  1  0
  3 34  1  6
  3 35  1  0
  4  5  1  0
  4 36  1  0
  5  6  2  0
  5  7  1  0
  7  8  1  0
  7 12  2  0
  8  9  2  0
  8 37  1  0
  9 10  1  0
  9 38  1  0
 10 11  2  0
 10 13  1  0
 11 12  1  0
 11 39  1  0
 12 40  1  0
 13 14  1  0
 13 41  1  1
 13 42  1  0
 14 15  1  0
 14 21  1  0
 15 16  1  0
 15 26  1  0
 15 43  1  1
 16 17  1  0
 16 25  2  0
 17 18  1  0
 17 22  2  0
 18 19  1  0
 18 44  1  0
 19 20  2  0
 19 21  1  0
 21 45  1  1
 21 46  1  0
 22 23  1  0
 22 47  1  0
 23 24  2  0
 23 48  1  0
 24 25  1  0
 24 49  1  0
 25 50  1  0
 26 27  2  0
 26 31  1  0
 27 28  1  0
 27 51  1  0
 28 29  2  0
 28 52  1  0
 29 30  1  0
 29 53  1  0
 30 31  2  0
 30 54  1  0
 31 55  1  0
M  END
>  <s_epik_cmdline>  (1173) 
J2VwaWtfcHl0aG9uJywgJy1waCcsICc3LjAwMDAwMCcsICctcGh0JywgJzIuMDAwMDAwJywgJy1tcycsICcxNicsICctdG4nLCAnOCcsICctbWEnLCAnMjAwJywgJy1pbWFlJywgJzxpbmZpbGUubWFlPicsICctb21hZScsICc8b3V0ZmlsZS5tYWU+Jw==

>  <s_epik_input>  (1173) 
RltDSDJdW0NIMl1bTkhdQyg9TyljMVtjSF1bY0hdYyhbY0hdW2NIXTEpW0NIMl1OKFtDQEBIXTJjM1tjSF1bY0hdW2NIXVtjSF1bY0hdMylbQ0gyXUMoPU8pW05IXWMoYzI0KVtjSF1bY0hdW2NIXVtjSF00

>  <s_i_glide_gridfile>  (1173) 
ATP-Grid

>  <s_lp_Force_Field>  (1173) 
OPLS_2005

>  <s_lp_Variant>  (1173) 
rxn512c____EMOL507327____EMOL493239____EMOL6185419-1

>  <s_lp_label>  (1173) 
2316_sdstereoexpander_1_neutralizer_1_epik_1_stereoizer_1

>  <s_m_source_file>  (1173) 
ATP-VSW-LIGPREP-002-in.maegz

>  <s_sd_BIOSOLVEIT.INFINISEE\_QUERY\_NAME>  (1173) 
Ref-Lig

>  <s_sd_BIOSOLVEIT.INFINISEE\_QUERY\_SMILES>  (1173) 
S(c1nc2c(cc1C[NH2+]Cc3ccc(cc3)C[NH+](C)C)cccc2)Cc4ccccc4

>  <s_sd_BIOSOLVEIT.INFINISEE\_REACTION\_NAME>  (1173) 
rxn512c

>  <s_sd_BIOSOLVEIT.INFINISEE\_REAGENT1\_NAME>  (1173) 
EMOL507327

>  <s_sd_BIOSOLVEIT.INFINISEE\_REAGENT1\_SMILES>  (1173) 
FCCN

>  <s_sd_BIOSOLVEIT.INFINISEE\_REAGENT2\_NAME>  (1173) 
EMOL493239

>  <s_sd_BIOSOLVEIT.INFINISEE\_REAGENT2\_SMILES>  (1173) 
ClCc1ccc(cc1)C(=O)O

>  <s_sd_BIOSOLVEIT.INFINISEE\_REAGENT3\_NAME>  (1173) 
EMOL6185419

>  <s_sd_BIOSOLVEIT.INFINISEE\_REAGENT3\_SMILES>  (1173) 
O=C1Nc2c(cccc2)C(NC1)c3ccccc3

>  <s_sd_BIOSOLVEIT.INFINISEE\_SPACE>  (1173) 
eXplore_7tr_2022-12

>  <s_vsw_compound_code>  (1173) 
74082

>  <s_vsw_variant>  (1173) 
74082-1

>  <r_epik_Charging_Adjusted_Penalty>  (1173) 
0.0087634984339075902

>  <r_epik_Ionization_Penalty>  (1173) 
0.0088000000000000005

>  <r_epik_Ionization_Penalty_Charging>  (1173) 
0

>  <r_epik_Ionization_Penalty_Neutral>  (1173) 
0.0088000000000000005

>  <r_epik_State_Penalty>  (1173) 
0.0088000000000000005

>  <r_i_docking_score>  (1173) 
-4.3800197758133503

>  <r_i_glide_ecoul>  (1173) 
-4.8117871284484899

>  <r_i_glide_eff_state_penalty>  (1173) 
0.0088000000000000005

>  <r_i_glide_einternal>  (1173) 
6.0503311157226598

>  <r_i_glide_emodel>  (1173) 
-45.843838864292898

>  <r_i_glide_energy>  (1173) 
-38.167664051055901

>  <r_i_glide_erotb>  (1173) 
0.68045092043761302

>  <r_i_glide_esite>  (1173) 
-0.202744495199182

>  <r_i_glide_evdw>  (1173) 
-33.355876922607401

>  <r_i_glide_gscore>  (1173) 
-4.3888197758133503

>  <r_i_glide_hbond>  (1173) 
-0.16

>  <r_i_glide_ligand_efficiency>  (1173) 
-0.141290960510108

>  <r_i_glide_ligand_efficiency_ln>  (1173) 
-0.98782869093144798

>  <r_i_glide_ligand_efficiency_sa>  (1173) 
-0.44384868919619302

>  <r_i_glide_lipo>  (1173) 
-1.52063989405845

>  <r_i_glide_metal>  (1173) 
-0

>  <r_i_glide_rewards>  (1173) 
-0.79632439159568902

>  <r_lp_Energy>  (1173) 
40.115208000000003

>  <r_qp_ACxDN^.5/SA>  (1173) 
0.013374199999999999

>  <r_qp_CIQPlogS>  (1173) 
-4.7629999999999999

>  <r_qp_EA(eV)>  (1173) 
0.44700000000000001

>  <r_qp_FISA>  (1173) 
112.56

>  <r_qp_FOSA>  (1173) 
151.565

>  <r_qp_IP(eV)>  (1173) 
9.1389999999999993

>  <r_qp_Jm>  (1173) 
0.00025677281157607701

>  <r_qp_PISA>  (1173) 
428.61900000000003

>  <r_qp_PSA>  (1173) 
77.912000000000006

>  <r_qp_PercentHumanOralAbsorption>  (1173) 
91.256

>  <r_qp_QPPCaco>  (1173) 
211.53899999999999

>  <r_qp_QPPMDCK>  (1173) 
185.76900000000001

>  <r_qp_QPlogBB>  (1173) 
-0.375

>  <r_qp_QPlogHERG>  (1173) 
-7.7549999999999999

>  <r_qp_QPlogKhsa>  (1173) 
0.621

>  <r_qp_QPlogKp>  (1173) 
-3.7629999999999999

>  <r_qp_QPlogPC16>  (1173) 
14.544

>  <r_qp_QPlogPo/w>  (1173) 
3.875

>  <r_qp_QPlogPoct>  (1173) 
23.927

>  <r_qp_QPlogPw>  (1173) 
14.140000000000001

>  <r_qp_QPlogS>  (1173) 
-5.4480000000000004

>  <r_qp_QPpolrz>  (1173) 
48.240000000000002

>  <r_qp_SASA>  (1173) 
740.19100000000003

>  <r_qp_SAamideO>  (1173) 
0

>  <r_qp_SAfluorine>  (1173) 
47.447000000000003

>  <r_qp_WPSA>  (1173) 
47.447000000000003

>  <r_qp_accptHB>  (1173) 
7

>  <r_qp_dip^2/V>  (1173) 
0.060655100000000003

>  <r_qp_dipole>  (1173) 
8.952

>  <r_qp_donorHB>  (1173) 
2

>  <r_qp_glob>  (1173) 
0.78663490000000003

>  <r_qp_mol_MW>  (1173) 
417.48200000000003

>  <r_qp_volume>  (1173) 
1321.077

>  <r_sd_BIOSOLVEIT.INFINISEE\_FTREES\_SIMILARITY>  (1173) 
0.92200000000000004

>  <r_sd_BIOSOLVEIT.LOGP>  (1173) 
2.5125000000000002

>  <r_sd_BIOSOLVEIT.MOLECULAR\_WEIGHT>  (1173) 
418.49000000000001

>  <r_sd_BIOSOLVEIT.TPSA>  (1173) 
62.640000000000001

>  <i_epik_Tot_Q>  (1173) 
0

>  <i_epik_Tot_abs_Q>  (1173) 
0

>  <i_f3d_flags>  (1173) 
0

>  <i_i_glide_confnum>  (1173) 
2

>  <i_i_glide_lignum>  (1173) 
931

>  <i_i_glide_posenum>  (1173) 
20

>  <i_i_glide_rotatable_bonds>  (1173) 
7

>  <i_lp_mmshare_version>  (1173) 
65135

>  <i_m_ct_format>  (1173) 
2

>  <i_m_source_file_index>  (1173) 
2316

>  <i_qp_#NandO>  (1173) 
5

>  <i_qp_#acid>  (1173) 
0

>  <i_qp_#amide>  (1173) 
0

>  <i_qp_#amidine>  (1173) 
0

>  <i_qp_#amine>  (1173) 
1

>  <i_qp_#in34>  (1173) 
0

>  <i_qp_#in56>  (1173) 
18

>  <i_qp_#metab>  (1173) 
7

>  <i_qp_#nonHatm>  (1173) 
31

>  <i_qp_#noncon>  (1173) 
2

>  <i_qp_#ringatoms>  (1173) 
23

>  <i_qp_#rotor>  (1173) 
4

>  <i_qp_#rtvFG>  (1173) 
0

>  <i_qp_#stars>  (1173) 
0

>  <i_qp_CNS>  (1173) 
1

>  <i_qp_HumanOralAbsorption>  (1173) 
3

>  <i_qp_RuleOfFive>  (1173) 
0

>  <i_qp_RuleOfThree>  (1173) 
1

>  <i_sd_BIOSOLVEIT.INFINISEE\_RESULT\_RANK>  (1173) 
13039

>  <i_sd_version>  (1173) 
0

>  <b_lp_Chiralities_Consistent>  (1173) 
1

>  <b_sd_chiral_flag>  (1173) 
0

>  <canonical_id>  (1173) 
ATP-HTVS-BAF1AE5D2B14

>  <compound_code>  (1173) 
74082

>  <title>  (1173) 
rxn512c____EMOL507327____EMOL493239____EMOL6185419

>  <variant>  (1173) 
74082-1

>  <source_file>  (1173) 
运行/运行/ATP-VSW/ATP-VSW-DOCK_HTVS_1-002_lib.maegz

>  <canonical_smiles>  (1173) 
O=C1CN(Cc2ccc(C(=O)NCCF)cc2)[C@H](c2ccccc2)c2ccccc2N1

>  <scaffold>  (1173) 
O=C1CN(Cc2ccccc2)C(c2ccccc2)c2ccccc2N1

>  <molecular_formula>  (1173) 
C25H24FN3O2

$$$$
ATP-HTVS-BAFA4202ACED
     RDKit          3D

 62 65  0  0  0  0  0  0  0  0999 V2000
  196.5237  186.6644  158.6096 S   0  0  0  0  0  0  0  0  0  0  0  0
  196.1278  184.9533  158.5213 C   0  0  0  0  0  0  0  0  0  0  0  0
  196.8258  184.3076  157.4184 C   0  0  0  0  0  0  0  0  0  0  0  0
  196.5505  182.9270  157.2330 C   0  0  0  0  0  0  0  0  0  0  0  0
  195.5722  182.2601  157.9971 C   0  0  0  0  0  0  0  0  0  0  0  0
  194.9470  182.8922  159.0849 C   0  0  0  0  0  0  0  0  0  0  0  0
  195.2488  184.2341  159.3784 C   0  0  0  0  0  0  0  0  0  0  0  0
  197.7156  185.2639  156.7300 C   0  0  0  0  0  0  0  0  0  0  0  0
  198.5783  184.9667  155.6266 N   0  0  0  0  0  0  0  0  0  0  0  0
  198.7533  183.7226  154.8759 C   0  0  1  0  0  0  0  0  0  0  0  0
  198.0489  183.6961  153.5365 C   0  0  0  0  0  0  0  0  0  0  0  0
  197.2063  182.6222  153.1073 C   0  0  0  0  0  0  0  0  0  0  0  0
  196.5719  182.6607  151.8459 C   0  0  0  0  0  0  0  0  0  0  0  0
  196.7691  183.7340  150.9633 C   0  0  0  0  0  0  0  0  0  0  0  0
  197.6057  184.7971  151.3573 C   0  0  0  0  0  0  0  0  0  0  0  0
  198.2008  184.7849  152.6252 C   0  0  0  0  0  0  0  0  0  0  0  0
  196.8906  181.4196  153.9958 C   0  0  2  0  0  0  0  0  0  0  0  0
  200.2399  183.4617  154.5667 C   0  0  0  0  0  0  0  0  0  0  0  0
  200.8181  182.4290  154.9069 O   0  0  0  0  0  0  0  0  0  0  0  0
  200.8143  184.4973  153.9214 O   0  0  0  0  0  0  0  0  0  0  0  0
  202.1514  184.3973  153.4798 C   0  0  2  0  0  0  0  0  0  0  0  0
  197.6874  186.4991  157.3217 C   0  0  0  0  0  0  0  0  0  0  0  0
  198.4776  187.7279  157.0836 C   0  0  0  0  0  0  0  0  0  0  0  0
  197.9529  188.6353  156.4465 O   0  0  0  0  0  0  0  0  0  0  0  0
  199.7513  187.8095  157.5966 N   0  0  0  0  0  0  0  0  0  0  0  0
  200.5202  186.7072  158.1210 C   0  0  0  0  0  0  0  0  0  0  0  0
  201.9049  186.5631  157.7891 C   0  0  0  0  0  0  0  0  0  0  0  0
  202.6754  185.5085  158.3093 C   0  0  0  0  0  0  0  0  0  0  0  0
  202.0948  184.5275  159.1479 C   0  0  0  0  0  0  0  0  0  0  0  0
  200.7270  184.6639  159.4908 C   0  0  0  0  0  0  0  0  0  0  0  0
  199.9707  185.7420  159.0349 C   0  0  0  0  0  0  0  0  0  0  0  0
  200.3618  189.1682  157.6267 C   0  0  1  0  0  0  0  0  0  0  0  0
  199.9840  189.9293  158.9140 C   0  0  1  0  0  0  0  0  0  0  0  0
  200.2151  189.1019  160.0910 N   0  0  2  0  0  0  0  0  0  0  0  0
  199.9543  189.5533  160.9894 H   0  0  0  0  0  0  0  0  0  0  0  0
  201.1858  188.8392  160.1953 H   0  0  0  0  0  0  0  0  0  0  0  0
  197.0249  182.3293  156.4921 H   0  0  0  0  0  0  0  0  0  0  0  0
  195.3042  181.2519  157.7253 H   0  0  0  0  0  0  0  0  0  0  0  0
  194.2395  182.3172  159.6723 H   0  0  0  0  0  0  0  0  0  0  0  0
  194.7903  184.7154  160.2258 H   0  0  0  0  0  0  0  0  0  0  0  0
  199.0773  185.7447  155.2178 H   0  0  0  0  0  0  0  0  0  0  0  0
  198.4913  182.8735  155.4807 H   0  0  0  0  0  0  0  0  0  0  0  0
  195.9146  181.8528  151.5632 H   0  0  0  0  0  0  0  0  0  0  0  0
  196.2879  183.7467  149.9983 H   0  0  0  0  0  0  0  0  0  0  0  0
  197.7939  185.6255  150.6806 H   0  0  0  0  0  0  0  0  0  0  0  0
  198.8257  185.6279  152.8897 H   0  0  0  0  0  0  0  0  0  0  0  0
  196.3786  180.6270  153.4159 H   0  0  0  0  0  0  0  0  0  0  0  0
  196.2174  181.7151  154.7657 H   0  0  0  0  0  0  0  0  0  0  0  0
  197.8154  180.9724  154.3887 H   0  0  0  0  0  0  0  0  0  0  0  0
  202.3884  185.2894  152.9012 H   0  0  0  0  0  0  0  0  0  0  0  0
  202.3017  183.5259  152.8366 H   0  0  0  0  0  0  0  0  0  0  0  0
  202.8268  184.3411  154.3350 H   0  0  0  0  0  0  0  0  0  0  0  0
  202.4057  187.2653  157.1230 H   0  0  0  0  0  0  0  0  0  0  0  0
  203.7302  185.4280  158.0622 H   0  0  0  0  0  0  0  0  0  0  0  0
  202.6662  183.6941  159.5328 H   0  0  0  0  0  0  0  0  0  0  0  0
  200.2457  183.9237  160.1198 H   0  0  0  0  0  0  0  0  0  0  0  0
  198.9506  185.8037  159.4068 H   0  0  0  0  0  0  0  0  0  0  0  0
  201.4460  189.1262  157.5957 H   0  0  0  0  0  0  0  0  0  0  0  0
  200.1061  189.7597  156.7484 H   0  0  0  0  0  0  0  0  0  0  0  0
  200.5797  190.8419  158.9951 H   0  0  0  0  0  0  0  0  0  0  0  0
  198.9325  190.2198  158.8845 H   0  0  0  0  0  0  0  0  0  0  0  0
  199.6459  188.2685  160.0650 H   0  0  0  0  0  0  0  0  0  0  0  0
  1  2  1  0
  1 22  1  0
  2  3  1  0
  2  7  2  0
  3  4  2  0
  3  8  1  0
  4  5  1  0
  4 37  1  0
  5  6  2  0
  5 38  1  0
  6  7  1  0
  6 39  1  0
  7 40  1  0
  8  9  1  0
  8 22  2  0
  9 10  1  0
  9 41  1  0
 10 11  1  0
 10 18  1  0
 10 42  1  1
 11 12  1  0
 11 16  2  0
 12 13  2  0
 12 17  1  0
 13 14  1  0
 13 43  1  0
 14 15  2  0
 14 44  1  0
 15 16  1  0
 15 45  1  0
 16 46  1  0
 17 47  1  6
 17 48  1  0
 17 49  1  0
 18 19  2  0
 18 20  1  0
 20 21  1  0
 21 50  1  6
 21 51  1  0
 21 52  1  0
 22 23  1  0
 23 24  2  0
 23 25  1  0
 25 26  1  0
 25 32  1  0
 26 27  2  0
 26 31  1  0
 27 28  1  0
 27 53  1  0
 28 29  2  0
 28 54  1  0
 29 30  1  0
 29 55  1  0
 30 31  2  0
 30 56  1  0
 31 57  1  0
 32 33  1  0
 32 58  1  1
 32 59  1  0
 33 34  1  0
 33 60  1  1
 33 61  1  0
 34 35  1  1
 34 36  1  0
 34 62  1  0
M  CHG  1  34   1
M  END
>  <s_epik_Chemistry_Notes>  (1174) 
This compound has an ester and may undergo hydrolysis at high or low pH.

>  <s_epik_cmdline>  (1174) 
J2VwaWtfcHl0aG9uJywgJy1waCcsICc3LjAwMDAwMCcsICctcGh0JywgJzIuMDAwMDAwJywgJy1tcycsICcxNicsICctdG4nLCAnOCcsICctbWEnLCAnMjAwJywgJy1pbWFlJywgJzxpbmZpbGUubWFlPicsICctb21hZScsICc8b3V0ZmlsZS5tYWU+Jw==

>  <s_epik_input>  (1174) 
W2NIXTFbY0hdW2NIXVtjSF1bY0hdYzFOKFtDSDJdW0NIMl1bTkgyXSlDKD1PKWMoczIpYyhjKGMyMylbY0hdW2NIXVtjSF1bY0hdMylbTkhdW0NASF0oQyg9TylPW0NIM10pYzRjKFtDSDNdKVtjSF1bY0hdW2NIXVtjSF00

>  <s_i_glide_gridfile>  (1174) 
ATP-Grid

>  <s_lp_Force_Field>  (1174) 
OPLS_2005

>  <s_lp_Variant>  (1174) 
rxn512c____EMOL530647____EMOL523944____EMOL14063112-2

>  <s_lp_label>  (1174) 
3011_sdstereoexpander_2_neutralizer_1_epik_1_stereoizer_1

>  <s_m_source_file>  (1174) 
ATP-VSW-LIGPREP-001-in.maegz

>  <s_sd_BIOSOLVEIT.INFINISEE\_QUERY\_NAME>  (1174) 
Ref-Lig

>  <s_sd_BIOSOLVEIT.INFINISEE\_QUERY\_SMILES>  (1174) 
S(c1nc2c(cc1C[NH2+]Cc3ccc(cc3)C[NH+](C)C)cccc2)Cc4ccccc4

>  <s_sd_BIOSOLVEIT.INFINISEE\_REACTION\_NAME>  (1174) 
rxn512c

>  <s_sd_BIOSOLVEIT.INFINISEE\_REAGENT1\_NAME>  (1174) 
EMOL530647

>  <s_sd_BIOSOLVEIT.INFINISEE\_REAGENT1\_SMILES>  (1174) 
N(c1ccccc1)CCN

>  <s_sd_BIOSOLVEIT.INFINISEE\_REAGENT2\_NAME>  (1174) 
EMOL523944

>  <s_sd_BIOSOLVEIT.INFINISEE\_REAGENT2\_SMILES>  (1174) 
ClC=1c2c(SC1C(=O)O)cccc2

>  <s_sd_BIOSOLVEIT.INFINISEE\_REAGENT3\_NAME>  (1174) 
EMOL14063112

>  <s_sd_BIOSOLVEIT.INFINISEE\_REAGENT3\_SMILES>  (1174) 
O=C(OC)C(N)c1c(cccc1)C

>  <s_sd_BIOSOLVEIT.INFINISEE\_SPACE>  (1174) 
eXplore_7tr_2022-12

>  <s_vsw_compound_code>  (1174) 
96321

>  <s_vsw_variant>  (1174) 
96321-2

>  <r_epik_Charging_Adjusted_Penalty>  (1174) 
0.011847017788720601

>  <r_epik_Ionization_Penalty>  (1174) 
0.0061000000000000004

>  <r_epik_Ionization_Penalty_Charging>  (1174) 
0.0058999999999999999

>  <r_epik_Ionization_Penalty_Neutral>  (1174) 
0.00020000000000000001

>  <r_epik_State_Penalty>  (1174) 
0.0058999999999999999

>  <r_i_docking_score>  (1174) 
-3.1428967328357098

>  <r_i_glide_ecoul>  (1174) 
-6.1467409133911097

>  <r_i_glide_eff_state_penalty>  (1174) 
0.0058999999999999999

>  <r_i_glide_einternal>  (1174) 
13.9383296966553

>  <r_i_glide_emodel>  (1174) 
-37.165280243404503

>  <r_i_glide_energy>  (1174) 
-35.268740653991699

>  <r_i_glide_erotb>  (1174) 
0.71873732917270905

>  <r_i_glide_esite>  (1174) 
-0.072675964951280106

>  <r_i_glide_evdw>  (1174) 
-29.1219997406006

>  <r_i_glide_gscore>  (1174) 
-3.1487967328357098

>  <r_i_glide_hbond>  (1174) 
-0.21196497070540801

>  <r_i_glide_ligand_efficiency>  (1174) 
-0.092438139201050401

>  <r_i_glide_ligand_efficiency_ln>  (1174) 
-0.69435404355074704

>  <r_i_glide_ligand_efficiency_sa>  (1174) 
-0.299463686291848

>  <r_i_glide_lipo>  (1174) 
-0.96069169766556595

>  <r_i_glide_metal>  (1174) 
-0

>  <r_i_glide_rewards>  (1174) 
-0.244090304647472

>  <r_lp_Energy>  (1174) 
52.835863000000003

>  <r_qp_ACxDN^.5/SA>  (1174) 
0.0107758

>  <r_qp_CIQPlogS>  (1174) 
-5.5369999999999999

>  <r_qp_EA(eV)>  (1174) 
0.61599999999999999

>  <r_qp_FISA>  (1174) 
117.74299999999999

>  <r_qp_FOSA>  (1174) 
215.881

>  <r_qp_IP(eV)>  (1174) 
8.0210000000000008

>  <r_qp_Jm>  (1174) 
5.5764834189835701e-05

>  <r_qp_PISA>  (1174) 
427.20800000000003

>  <r_qp_PSA>  (1174) 
91.019000000000005

>  <r_qp_PercentHumanOralAbsorption>  (1174) 
83.668000000000006

>  <r_qp_QPPCaco>  (1174) 
47.113

>  <r_qp_QPPMDCK>  (1174) 
31.167000000000002

>  <r_qp_QPlogBB>  (1174) 
-0.36199999999999999

>  <r_qp_QPlogHERG>  (1174) 
-8.3559999999999999

>  <r_qp_QPlogKhsa>  (1174) 
0.995

>  <r_qp_QPlogKp>  (1174) 
-5.4459999999999997

>  <r_qp_QPlogPC16>  (1174) 
16.413

>  <r_qp_QPlogPo/w>  (1174) 
4.5730000000000004

>  <r_qp_QPlogPoct>  (1174) 
24.106999999999999

>  <r_qp_QPlogPw>  (1174) 
12.183999999999999

>  <r_qp_QPlogS>  (1174) 
-4.4829999999999997

>  <r_qp_QPpolrz>  (1174) 
50.968000000000004

>  <r_qp_SASA>  (1174) 
787.44100000000003

>  <r_qp_SAamideO>  (1174) 
0

>  <r_qp_SAfluorine>  (1174) 
0

>  <r_qp_WPSA>  (1174) 
26.609000000000002

>  <r_qp_accptHB>  (1174) 
6

>  <r_qp_dip^2/V>  (1174) 
0.055212700000000003

>  <r_qp_dipole>  (1174) 
9.0079999999999991

>  <r_qp_donorHB>  (1174) 
2

>  <r_qp_glob>  (1174) 
0.79393259999999999

>  <r_qp_mol_MW>  (1174) 
473.589

>  <r_qp_volume>  (1174) 
1469.79

>  <r_sd_BIOSOLVEIT.INFINISEE\_FTREES\_SIMILARITY>  (1174) 
0.90200000000000002

>  <r_sd_BIOSOLVEIT.LOGP>  (1174) 
4.42462

>  <r_sd_BIOSOLVEIT.MOLECULAR\_WEIGHT>  (1174) 
474.601

>  <r_sd_BIOSOLVEIT.TPSA>  (1174) 
86.280000000000001

>  <i_epik_Tot_Q>  (1174) 
1

>  <i_epik_Tot_abs_Q>  (1174) 
1

>  <i_f3d_flags>  (1174) 
0

>  <i_i_glide_confnum>  (1174) 
8

>  <i_i_glide_lignum>  (1174) 
1456

>  <i_i_glide_posenum>  (1174) 
18

>  <i_i_glide_rotatable_bonds>  (1174) 
10

>  <i_lp_mmshare_version>  (1174) 
65135

>  <i_m_ct_format>  (1174) 
2

>  <i_m_source_file_index>  (1174) 
3011

>  <i_qp_#NandO>  (1174) 
6

>  <i_qp_#acid>  (1174) 
0

>  <i_qp_#amide>  (1174) 
0

>  <i_qp_#amidine>  (1174) 
0

>  <i_qp_#amine>  (1174) 
2

>  <i_qp_#in34>  (1174) 
0

>  <i_qp_#in56>  (1174) 
21

>  <i_qp_#metab>  (1174) 
8

>  <i_qp_#nonHatm>  (1174) 
34

>  <i_qp_#noncon>  (1174) 
0

>  <i_qp_#ringatoms>  (1174) 
21

>  <i_qp_#rotor>  (1174) 
9

>  <i_qp_#rtvFG>  (1174) 
1

>  <i_qp_#stars>  (1174) 
0

>  <i_qp_CNS>  (1174) 
1

>  <i_qp_HumanOralAbsorption>  (1174) 
2

>  <i_qp_RuleOfFive>  (1174) 
0

>  <i_qp_RuleOfThree>  (1174) 
1

>  <i_sd_BIOSOLVEIT.INFINISEE\_RESULT\_RANK>  (1174) 
86863

>  <i_sd_version>  (1174) 
0

>  <b_lp_Chiralities_Consistent>  (1174) 
1

>  <b_sd_chiral_flag>  (1174) 
0

>  <canonical_id>  (1174) 
ATP-HTVS-BAFA4202ACED

>  <compound_code>  (1174) 
96321

>  <title>  (1174) 
rxn512c____EMOL530647____EMOL523944____EMOL14063112

>  <variant>  (1174) 
96321-2

>  <source_file>  (1174) 
运行/运行/ATP-VSW/ATP-VSW-DOCK_HTVS_1-001_lib/ATP-VSW-DOCK_HTVS_1-001_lib

>  <canonical_smiles>  (1174) 
COC(=O)[C@@H](Nc1c(C(=O)N(CC[NH3+])c2ccccc2)sc2ccccc12)c1ccccc1C

>  <scaffold>  (1174) 
O=C(Nc1ccccc1)c1sc2ccccc2c1NCc1ccccc1

>  <molecular_formula>  (1174) 
C27H28N3O3S+

$$$$
ATP-HTVS-BB0F51DCED8B
     RDKit          3D

 72 75  0  0  0  0  0  0  0  0999 V2000
  196.3843  181.2093  154.6430 O   0  0  0  0  0  0  0  0  0  0  0  0
  197.5205  181.6436  154.8239 C   0  0  0  0  0  0  0  0  0  0  0  0
  197.8405  182.5342  155.7870 N   0  0  0  0  0  0  0  0  0  0  0  0
  197.0342  183.0544  156.8423 C   0  0  0  0  0  0  0  0  0  0  0  0
  197.3047  184.3669  157.3474 C   0  0  0  0  0  0  0  0  0  0  0  0
  198.3602  185.1396  156.8221 N   0  0  0  0  0  0  0  0  0  0  0  0
  198.0645  186.2432  155.8691 C   0  0  1  0  0  0  0  0  0  0  0  0
  197.5564  187.4491  156.5636 C   0  0  0  0  0  0  0  0  0  0  0  0
  197.1760  188.3734  157.1004 N   0  0  0  0  0  0  0  0  0  0  0  0
  199.2203  186.6788  154.9763 C   0  0  0  0  0  0  0  0  0  0  0  0
  199.1484  186.4330  153.5963 C   0  0  0  0  0  0  0  0  0  0  0  0
  200.2117  186.8134  152.7452 C   0  0  0  0  0  0  0  0  0  0  0  0
  201.3483  187.4465  153.2847 C   0  0  0  0  0  0  0  0  0  0  0  0
  201.4233  187.7139  154.6618 C   0  0  0  0  0  0  0  0  0  0  0  0
  200.3540  187.3507  155.5042 C   0  0  0  0  0  0  0  0  0  0  0  0
  199.7075  184.6860  157.1436 C   0  0  2  0  0  0  0  0  0  0  0  0
  196.5325  184.8551  158.4443 C   0  0  0  0  0  0  0  0  0  0  0  0
  195.4921  184.0272  158.9707 C   0  0  0  0  0  0  0  0  0  0  0  0
  195.2974  182.7716  158.4775 N   0  0  0  0  0  0  0  0  0  0  0  0
  196.0261  182.2655  157.4600 C   0  0  0  0  0  0  0  0  0  0  0  0
  194.6675  184.4927  160.0247 C   0  0  0  0  0  0  0  0  0  0  0  0
  194.8567  185.8038  160.5215 C   0  0  0  0  0  0  0  0  0  0  0  0
  195.9070  186.5994  160.0097 C   0  0  0  0  0  0  0  0  0  0  0  0
  196.7658  186.1092  159.0338 C   0  0  0  0  0  0  0  0  0  0  0  0
  198.6693  181.2084  153.8813 C   0  0  2  0  0  0  0  0  0  0  0  0
  198.2198  180.4250  152.6869 N   0  0  1  0  0  0  0  0  0  0  0  0
  199.1062  180.6207  151.5124 C   0  0  1  0  0  0  0  0  0  0  0  0
  198.5646  179.9295  150.2365 C   0  0  1  0  0  0  0  0  0  0  0  0
  197.1775  180.4332  149.7733 C   0  0  1  0  0  0  0  0  0  0  0  0
  195.9716  180.1462  150.7077 C   0  0  2  0  0  0  0  0  0  0  0  0
  197.8705  179.0054  152.9259 C   0  0  2  0  0  0  0  0  0  0  0  0
  199.6528  180.4537  154.7286 C   0  0  0  0  0  0  0  0  0  0  0  0
  199.2621  179.3899  155.5912 C   0  0  0  0  0  0  0  0  0  0  0  0
  200.1861  178.6466  156.3268 C   0  0  0  0  0  0  0  0  0  0  0  0
  201.5509  178.9739  156.2542 C   0  0  0  0  0  0  0  0  0  0  0  0
  201.9778  180.0249  155.4239 C   0  0  0  0  0  0  0  0  0  0  0  0
  201.0381  180.7542  154.6657 C   0  0  0  0  0  0  0  0  0  0  0  0
  198.7775  182.9110  155.7314 H   0  0  0  0  0  0  0  0  0  0  0  0
  197.2397  185.9442  155.2293 H   0  0  0  0  0  0  0  0  0  0  0  0
  198.2754  185.9454  153.1817 H   0  0  0  0  0  0  0  0  0  0  0  0
  200.1438  186.6194  151.6879 H   0  0  0  0  0  0  0  0  0  0  0  0
  202.1687  187.7248  152.6358 H   0  0  0  0  0  0  0  0  0  0  0  0
  202.3037  188.1846  155.0802 H   0  0  0  0  0  0  0  0  0  0  0  0
  200.4195  187.5794  156.5589 H   0  0  0  0  0  0  0  0  0  0  0  0
  199.7661  184.4071  158.1961 H   0  0  0  0  0  0  0  0  0  0  0  0
  200.4695  185.4444  156.9964 H   0  0  0  0  0  0  0  0  0  0  0  0
  200.0092  183.8241  156.5452 H   0  0  0  0  0  0  0  0  0  0  0  0
  195.7826  181.2430  157.1755 H   0  0  0  0  0  0  0  0  0  0  0  0
  193.9139  183.8533  160.4624 H   0  0  0  0  0  0  0  0  0  0  0  0
  194.2363  186.1665  161.3371 H   0  0  0  0  0  0  0  0  0  0  0  0
  196.0371  187.5999  160.3992 H   0  0  0  0  0  0  0  0  0  0  0  0
  197.6153  186.7527  158.7051 H   0  0  0  0  0  0  0  0  0  0  0  0
  199.1133  182.1470  153.5483 H   0  0  0  0  0  0  0  0  0  0  0  0
  199.2155  181.6839  151.3047 H   0  0  0  0  0  0  0  0  0  0  0  0
  200.1177  180.2587  151.7394 H   0  0  0  0  0  0  0  0  0  0  0  0
  199.2904  180.1007  149.4365 H   0  0  0  0  0  0  0  0  0  0  0  0
  198.5730  178.8447  150.3495 H   0  0  0  0  0  0  0  0  0  0  0  0
  197.2440  181.5062  149.5722 H   0  0  0  0  0  0  0  0  0  0  0  0
  196.9720  179.9661  148.8074 H   0  0  0  0  0  0  0  0  0  0  0  0
  195.0658  180.5417  150.2513 H   0  0  0  0  0  0  0  0  0  0  0  0
  196.0896  180.6202  151.6881 H   0  0  0  0  0  0  0  0  0  0  0  0
  195.8684  179.0624  150.8676 H   0  0  0  0  0  0  0  0  0  0  0  0
  198.7641  178.3978  153.1521 H   0  0  0  0  0  0  0  0  0  0  0  0
  197.3326  178.5441  152.0911 H   0  0  0  0  0  0  0  0  0  0  0  0
  197.1899  178.9329  153.7744 H   0  0  0  0  0  0  0  0  0  0  0  0
  198.2268  179.0882  155.6718 H   0  0  0  0  0  0  0  0  0  0  0  0
  199.8473  177.8311  156.9542 H   0  0  0  0  0  0  0  0  0  0  0  0
  202.2715  178.4273  156.8402 H   0  0  0  0  0  0  0  0  0  0  0  0
  203.0259  180.2768  155.3650 H   0  0  0  0  0  0  0  0  0  0  0  0
  201.3849  181.5399  154.0131 H   0  0  0  0  0  0  0  0  0  0  0  0
  194.5864  182.1707  158.8886 H   0  0  0  0  0  0  0  0  0  0  0  0
  197.3377  180.9007  152.4286 H   0  0  0  0  0  0  0  0  0  0  0  0
  1  2  2  0
  2  3  1  0
  2 25  1  0
  3  4  1  0
  3 38  1  0
  4  5  2  0
  4 20  1  0
  5  6  1  0
  5 17  1  0
  6  7  1  0
  6 16  1  0
  7  8  1  0
  7 10  1  0
  7 39  1  6
  8  9  3  0
 10 11  2  0
 10 15  1  0
 11 12  1  0
 11 40  1  0
 12 13  2  0
 12 41  1  0
 13 14  1  0
 13 42  1  0
 14 15  2  0
 14 43  1  0
 15 44  1  0
 16 45  1  1
 16 46  1  0
 16 47  1  0
 17 18  1  0
 17 24  2  0
 18 19  1  0
 18 21  2  0
 19 20  2  0
 19 71  1  0
 20 48  1  0
 21 22  1  0
 21 49  1  0
 22 23  2  0
 22 50  1  0
 23 24  1  0
 23 51  1  0
 24 52  1  0
 25 26  1  0
 25 32  1  0
 25 53  1  6
 26 27  1  0
 26 31  1  0
 26 72  1  6
 27 28  1  0
 27 54  1  6
 27 55  1  0
 28 29  1  0
 28 56  1  6
 28 57  1  0
 29 30  1  0
 29 58  1  6
 29 59  1  0
 30 60  1  6
 30 61  1  0
 30 62  1  0
 31 63  1  1
 31 64  1  0
 31 65  1  0
 32 33  2  0
 32 37  1  0
 33 34  1  0
 33 66  1  0
 34 35  2  0
 34 67  1  0
 35 36  1  0
 35 68  1  0
 36 37  2  0
 36 69  1  0
 37 70  1  0
M  CHG  2  19   1  26   1
M  END
>  <s_epik_cmdline>  (1175) 
J2VwaWtfcHl0aG9uJywgJy1waCcsICc3LjAwMDAwMCcsICctcGh0JywgJzIuMDAwMDAwJywgJy1tcycsICcxNicsICctdG4nLCAnOCcsICctbWEnLCAnMjAwJywgJy1pbWFlJywgJzxpbmZpbGUubWFlPicsICctb21hZScsICc8b3V0ZmlsZS5tYWU+Jw==

>  <s_epik_input>  (1175) 
W2NIXTFbY0hdW2NIXVtjSF1bY0hdYzFbQ0BASF0oTihbQ0gzXSlbQ0gyXVtDSDJdW0NIMl1bQ0gzXSlDKD1PKVtOSF1jKFtjSF1uYyhjMjMpW2NIXVtjSF1bY0hdW2NIXTMpYzJOKFtDSDNdKVtDQEBIXShDI04pYzRbY0hdW2NIXVtjSF1bY0hdW2NIXTQ=

>  <s_i_glide_gridfile>  (1175) 
ATP-Grid

>  <s_lp_Force_Field>  (1175) 
OPLS_2005

>  <s_lp_Variant>  (1175) 
rxn502b____EMOL331054767____EMOL30488121____EMOL24630243-8

>  <s_lp_label>  (1175) 
2738_sdstereoexpander_1_neutralizer_1_epik_2_stereoizer_1

>  <s_m_source_file>  (1175) 
ATP-VSW-LIGPREP-003-in.maegz

>  <s_sd_BIOSOLVEIT.INFINISEE\_QUERY\_NAME>  (1175) 
Ref-Lig

>  <s_sd_BIOSOLVEIT.INFINISEE\_QUERY\_SMILES>  (1175) 
S(c1nc2c(cc1C[NH2+]Cc3ccc(cc3)C[NH+](C)C)cccc2)Cc4ccccc4

>  <s_sd_BIOSOLVEIT.INFINISEE\_REACTION\_NAME>  (1175) 
rxn502b

>  <s_sd_BIOSOLVEIT.INFINISEE\_REAGENT1\_NAME>  (1175) 
EMOL331054767

>  <s_sd_BIOSOLVEIT.INFINISEE\_REAGENT1\_SMILES>  (1175) 
O=C(O)C(N(CCCC)C)c1ccccc1

>  <s_sd_BIOSOLVEIT.INFINISEE\_REAGENT2\_NAME>  (1175) 
EMOL30488121

>  <s_sd_BIOSOLVEIT.INFINISEE\_REAGENT2\_SMILES>  (1175) 
Brc1c(N)cnc2c1cccc2

>  <s_sd_BIOSOLVEIT.INFINISEE\_REAGENT3\_NAME>  (1175) 
EMOL24630243

>  <s_sd_BIOSOLVEIT.INFINISEE\_REAGENT3\_SMILES>  (1175) 
N#CC(NC)c1ccccc1

>  <s_sd_BIOSOLVEIT.INFINISEE\_SPACE>  (1175) 
eXplore_7tr_2022-12

>  <s_vsw_compound_code>  (1175) 
87587

>  <s_vsw_variant>  (1175) 
87587-8

>  <r_epik_Charging_Adjusted_Penalty>  (1175) 
2.2545778040858901

>  <r_epik_Ionization_Penalty>  (1175) 
1.1117999999999999

>  <r_epik_Ionization_Penalty_Charging>  (1175) 
1.1116999999999999

>  <r_epik_Ionization_Penalty_Neutral>  (1175) 
0.0001

>  <r_epik_State_Penalty>  (1175) 
1.1429

>  <r_i_docking_score>  (1175) 
-2.81848001304951

>  <r_i_glide_ecoul>  (1175) 
-7.5048570632934597

>  <r_i_glide_eff_state_penalty>  (1175) 
1.1429

>  <r_i_glide_einternal>  (1175) 
7.1130056381225604

>  <r_i_glide_emodel>  (1175) 
-51.254261891856302

>  <r_i_glide_energy>  (1175) 
-39.845124244689899

>  <r_i_glide_erotb>  (1175) 
0.75243859768603805

>  <r_i_glide_esite>  (1175) 
-0.088157535865805894

>  <r_i_glide_evdw>  (1175) 
-32.340267181396499

>  <r_i_glide_gscore>  (1175) 
-3.96138001304951

>  <r_i_glide_hbond>  (1175) 
-0.022528233162854999

>  <r_i_glide_ligand_efficiency>  (1175) 
-0.076175135487824605

>  <r_i_glide_ligand_efficiency_ln>  (1175) 
-0.61126224028421206

>  <r_i_glide_ligand_efficiency_sa>  (1175) 
-0.25383245071909799

>  <r_i_glide_lipo>  (1175) 
-1.47688059662315

>  <r_i_glide_metal>  (1175) 
-0

>  <r_i_glide_rewards>  (1175) 
-0.38351032651990002

>  <r_lp_Energy>  (1175) 
49.123361000000003

>  <r_qp_ACxDN^.5/SA>  (1175) 
0.0102845

>  <r_qp_CIQPlogS>  (1175) 
-7.2670000000000003

>  <r_qp_EA(eV)>  (1175) 
1.0640000000000001

>  <r_qp_FISA>  (1175) 
100.306

>  <r_qp_FOSA>  (1175) 
295.06400000000002

>  <r_qp_IP(eV)>  (1175) 
8.7300000000000004

>  <r_qp_Jm>  (1175) 
0.0019024961117037099

>  <r_qp_PISA>  (1175) 
382.49700000000001

>  <r_qp_PSA>  (1175) 
70.198999999999998

>  <r_qp_PercentHumanOralAbsorption>  (1175) 
100

>  <r_qp_QPPCaco>  (1175) 
276.44099999999997

>  <r_qp_QPPMDCK>  (1175) 
136.35400000000001

>  <r_qp_QPlogBB>  (1175) 
-0.67000000000000004

>  <r_qp_QPlogHERG>  (1175) 
-6.8230000000000004

>  <r_qp_QPlogKhsa>  (1175) 
0.755

>  <r_qp_QPlogKp>  (1175) 
-3.0270000000000001

>  <r_qp_QPlogPC16>  (1175) 
16.053000000000001

>  <r_qp_QPlogPo/w>  (1175) 
4.8570000000000002

>  <r_qp_QPlogPoct>  (1175) 
23.57

>  <r_qp_QPlogPw>  (1175) 
11.792999999999999

>  <r_qp_QPlogS>  (1175) 
-5.3849999999999998

>  <r_qp_QPpolrz>  (1175) 
52.235999999999997

>  <r_qp_SASA>  (1175) 
777.86699999999996

>  <r_qp_SAamideO>  (1175) 
0

>  <r_qp_SAfluorine>  (1175) 
0

>  <r_qp_WPSA>  (1175) 
0

>  <r_qp_accptHB>  (1175) 
8

>  <r_qp_dip^2/V>  (1175) 
0.0219168

>  <r_qp_dipole>  (1175) 
5.8179999999999996

>  <r_qp_donorHB>  (1175) 
1

>  <r_qp_glob>  (1175) 
0.83062060000000004

>  <r_qp_mol_MW>  (1175) 
491.63499999999999

>  <r_qp_volume>  (1175) 
1544.239

>  <r_sd_BIOSOLVEIT.INFINISEE\_FTREES\_SIMILARITY>  (1175) 
0.90800000000000003

>  <r_sd_BIOSOLVEIT.LOGP>  (1175) 
4.9304800000000002

>  <r_sd_BIOSOLVEIT.MOLECULAR\_WEIGHT>  (1175) 
492.64400000000001

>  <r_sd_BIOSOLVEIT.TPSA>  (1175) 
73.459999999999994

>  <i_epik_Tot_Q>  (1175) 
2

>  <i_epik_Tot_abs_Q>  (1175) 
2

>  <i_f3d_flags>  (1175) 
0

>  <i_i_glide_confnum>  (1175) 
7

>  <i_i_glide_lignum>  (1175) 
1296

>  <i_i_glide_posenum>  (1175) 
5

>  <i_i_glide_rotatable_bonds>  (1175) 
11

>  <i_lp_mmshare_version>  (1175) 
65135

>  <i_m_ct_format>  (1175) 
2

>  <i_m_source_file_index>  (1175) 
2738

>  <i_qp_#NandO>  (1175) 
6

>  <i_qp_#acid>  (1175) 
0

>  <i_qp_#amide>  (1175) 
0

>  <i_qp_#amidine>  (1175) 
0

>  <i_qp_#amine>  (1175) 
1

>  <i_qp_#in34>  (1175) 
0

>  <i_qp_#in56>  (1175) 
22

>  <i_qp_#metab>  (1175) 
7

>  <i_qp_#nonHatm>  (1175) 
37

>  <i_qp_#noncon>  (1175) 
0

>  <i_qp_#ringatoms>  (1175) 
22

>  <i_qp_#rotor>  (1175) 
11

>  <i_qp_#rtvFG>  (1175) 
0

>  <i_qp_#stars>  (1175) 
0

>  <i_qp_CNS>  (1175) 
1

>  <i_qp_HumanOralAbsorption>  (1175) 
3

>  <i_qp_RuleOfFive>  (1175) 
0

>  <i_qp_RuleOfThree>  (1175) 
1

>  <i_sd_BIOSOLVEIT.INFINISEE\_RESULT\_RANK>  (1175) 
56796

>  <i_sd_version>  (1175) 
0

>  <b_lp_Chiralities_Consistent>  (1175) 
1

>  <b_sd_chiral_flag>  (1175) 
0

>  <canonical_id>  (1175) 
ATP-HTVS-BB0F51DCED8B

>  <compound_code>  (1175) 
87587

>  <title>  (1175) 
rxn502b____EMOL331054767____EMOL30488121____EMOL24630243

>  <variant>  (1175) 
87587-8

>  <source_file>  (1175) 
运行/运行/ATP-VSW/ATP-VSW-DOCK_HTVS_1-003_lib/ATP-VSW-DOCK_HTVS_1-003_lib.mae

>  <canonical_smiles>  (1175) 
CCCC[N@@H+](C)[C@@H](C(=O)Nc1c[nH+]c2ccccc2c1N(C)[C@@H](C#N)c1ccccc1)c1ccccc1

>  <scaffold>  (1175) 
O=C(Cc1ccccc1)Nc1c[nH+]c2ccccc2c1NCc1ccccc1

>  <molecular_formula>  (1175) 
C31H35N5O+2

$$$$
ATP-HTVS-BB2B7EB3D06A
     RDKit          3D

 61 64  0  0  0  0  0  0  0  0999 V2000
  196.3516  187.8382  156.8008 F   0  0  0  0  0  0  0  0  0  0  0  0
  196.8113  186.5898  157.0547 C   0  0  0  0  0  0  0  0  0  0  0  0
  196.3181  185.8621  158.1547 C   0  0  0  0  0  0  0  0  0  0  0  0
  196.7802  184.5527  158.3990 C   0  0  0  0  0  0  0  0  0  0  0  0
  197.7404  183.9652  157.5478 C   0  0  0  0  0  0  0  0  0  0  0  0
  198.1928  182.6926  157.8037 O   0  0  0  0  0  0  0  0  0  0  0  0
  198.1339  181.7456  156.8109 C   0  0  0  0  0  0  0  0  0  0  0  0
  199.0452  180.7591  156.9242 N   0  0  0  0  0  0  0  0  0  0  0  0
  199.0262  179.8167  155.9906 C   0  0  0  0  0  0  0  0  0  0  0  0
  198.2136  179.7511  154.9348 N   0  0  0  0  0  0  0  0  0  0  0  0
  197.2824  180.7217  154.8258 C   0  0  0  0  0  0  0  0  0  0  0  0
  196.4019  180.6525  153.7715 O   0  0  0  0  0  0  0  0  0  0  0  0
  196.9010  180.5987  152.4940 C   0  0  0  0  0  0  0  0  0  0  0  0
  196.6874  181.6842  151.6226 C   0  0  0  0  0  0  0  0  0  0  0  0
  197.1696  181.6336  150.2982 C   0  0  0  0  0  0  0  0  0  0  0  0
  197.8722  180.5015  149.8415 C   0  0  0  0  0  0  0  0  0  0  0  0
  198.3465  180.4606  148.5743 F   0  0  0  0  0  0  0  0  0  0  0  0
  198.0831  179.4123  150.7050 C   0  0  0  0  0  0  0  0  0  0  0  0
  197.5905  179.4601  152.0223 C   0  0  0  0  0  0  0  0  0  0  0  0
  197.2002  181.7712  155.7540 C   0  0  0  0  0  0  0  0  0  0  0  0
  199.9662  178.8265  156.1315 N   0  0  0  0  0  0  0  0  0  0  0  0
  200.3836  177.8134  155.2653 C   0  0  0  0  0  0  0  0  0  0  0  0
  200.5785  176.5144  155.7741 C   0  0  0  0  0  0  0  0  0  0  0  0
  201.0269  175.4946  154.9113 C   0  0  0  0  0  0  0  0  0  0  0  0
  201.3463  175.7687  153.5437 C   0  0  0  0  0  0  0  0  0  0  0  0
  201.2307  177.1038  153.0576 C   0  0  0  0  0  0  0  0  0  0  0  0
  200.6922  178.0909  153.9122 C   0  0  0  0  0  0  0  0  0  0  0  0
  201.7825  174.6371  152.5807 C   0  0  2  0  0  0  0  0  0  0  0  0
  200.9097  174.4628  151.3925 N   0  0  0  0  0  0  0  0  0  0  0  0
  199.4995  174.3498  151.7618 C   0  0  2  0  0  0  0  0  0  0  0  0
  201.0231  175.4892  150.3482 C   0  0  2  0  0  0  0  0  0  0  0  0
  201.9569  173.2747  153.3259 C   0  0  1  0  0  0  0  0  0  0  0  0
  202.6316  172.2316  152.5241 N   0  0  2  0  0  0  0  0  0  0  0  0
  198.2442  184.7143  156.4590 C   0  0  0  0  0  0  0  0  0  0  0  0
  197.7722  186.0159  156.2046 C   0  0  0  0  0  0  0  0  0  0  0  0
  202.7711  171.3889  153.0829 H   0  0  0  0  0  0  0  0  0  0  0  0
  203.5440  172.5549  152.2351 H   0  0  0  0  0  0  0  0  0  0  0  0
  195.5652  186.3002  158.7943 H   0  0  0  0  0  0  0  0  0  0  0  0
  196.3949  183.9950  159.2395 H   0  0  0  0  0  0  0  0  0  0  0  0
  196.1398  182.5493  151.9670 H   0  0  0  0  0  0  0  0  0  0  0  0
  197.0026  182.4626  149.6283 H   0  0  0  0  0  0  0  0  0  0  0  0
  198.6275  178.5441  150.3623 H   0  0  0  0  0  0  0  0  0  0  0  0
  197.7585  178.6206  152.6764 H   0  0  0  0  0  0  0  0  0  0  0  0
  196.4496  182.5411  155.6691 H   0  0  0  0  0  0  0  0  0  0  0  0
  200.3041  178.7485  157.0785 H   0  0  0  0  0  0  0  0  0  0  0  0
  200.3912  176.2755  156.8162 H   0  0  0  0  0  0  0  0  0  0  0  0
  201.1048  174.5148  155.3645 H   0  0  0  0  0  0  0  0  0  0  0  0
  201.4973  177.3652  152.0488 H   0  0  0  0  0  0  0  0  0  0  0  0
  200.5453  179.0898  153.5287 H   0  0  0  0  0  0  0  0  0  0  0  0
  202.7734  174.9194  152.2117 H   0  0  0  0  0  0  0  0  0  0  0  0
  198.8791  174.2465  150.8725 H   0  0  0  0  0  0  0  0  0  0  0  0
  199.1437  175.2635  152.2298 H   0  0  0  0  0  0  0  0  0  0  0  0
  199.2898  173.5049  152.4306 H   0  0  0  0  0  0  0  0  0  0  0  0
  200.3826  175.2093  149.4863 H   0  0  0  0  0  0  0  0  0  0  0  0
  202.0510  175.5072  149.9611 H   0  0  0  0  0  0  0  0  0  0  0  0
  200.7307  176.4554  150.7087 H   0  0  0  0  0  0  0  0  0  0  0  0
  202.6258  173.3832  154.1664 H   0  0  0  0  0  0  0  0  0  0  0  0
  201.0065  172.8573  153.6895 H   0  0  0  0  0  0  0  0  0  0  0  0
  198.9904  184.2896  155.8060 H   0  0  0  0  0  0  0  0  0  0  0  0
  198.1383  186.5775  155.3565 H   0  0  0  0  0  0  0  0  0  0  0  0
  202.0656  172.0398  151.7173 H   0  0  0  0  0  0  0  0  0  0  0  0
  1  2  1  0
  2  3  1  0
  2 35  2  0
  3  4  2  0
  3 38  1  0
  4  5  1  0
  4 39  1  0
  5  6  1  0
  5 34  2  0
  6  7  1  0
  7  8  2  0
  7 20  1  0
  8  9  1  0
  9 10  2  0
  9 21  1  0
 10 11  1  0
 11 12  1  0
 11 20  2  0
 12 13  1  0
 13 14  1  0
 13 19  2  0
 14 15  2  0
 14 40  1  0
 15 16  1  0
 15 41  1  0
 16 17  1  0
 16 18  2  0
 18 19  1  0
 18 42  1  0
 19 43  1  0
 20 44  1  0
 21 22  1  0
 21 45  1  0
 22 23  1  0
 22 27  2  0
 23 24  2  0
 23 46  1  0
 24 25  1  0
 24 47  1  0
 25 26  2  0
 25 28  1  0
 26 27  1  0
 26 48  1  0
 27 49  1  0
 28 29  1  0
 28 32  1  0
 28 50  1  6
 29 30  1  0
 29 31  1  0
 30 51  1  6
 30 52  1  0
 30 53  1  0
 31 54  1  6
 31 55  1  0
 31 56  1  0
 32 33  1  0
 32 57  1  1
 32 58  1  0
 33 36  1  1
 33 37  1  0
 33 61  1  0
 34 35  1  0
 34 59  1  0
 35 60  1  0
M  CHG  1  33   1
M  END
>  <s_epik_cmdline>  (1176) 
J2VwaWtfcHl0aG9uJywgJy1waCcsICc3LjAwMDAwMCcsICctcGh0JywgJzIuMDAwMDAwJywgJy1tcycsICcxNicsICctdG4nLCAnOCcsICctbWEnLCAnMjAwJywgJy1pbWFlJywgJzxpbmZpbGUubWFlPicsICctb21hZScsICc8b3V0ZmlsZS5tYWU+Jw==

>  <s_epik_input>  (1176) 
RmMxW2NIXVtjSF1jKFtjSF1bY0hdMSlPYzJuYyhbTkhdYzNbY0hdW2NIXWMoW2NIXVtjSF0zKVtDQEhdKE4oW0NIM10pW0NIM10pW0NIMl1bTkgyXSluYyhbY0hdMilPYzRbY0hdW2NIXWMoRilbY0hdW2NIXTQ=

>  <s_i_glide_gridfile>  (1176) 
ATP-Grid

>  <s_lp_Force_Field>  (1176) 
OPLS_2005

>  <s_lp_Variant>  (1176) 
rxn102c____EMOL13081280____EMOL27507560-2

>  <s_lp_label>  (1176) 
2671_sdstereoexpander_2_neutralizer_1_epik_1_stereoizer_1

>  <s_m_source_file>  (1176) 
ATP-VSW-LIGPREP-002-in.maegz

>  <s_sd_BIOSOLVEIT.INFINISEE\_QUERY\_NAME>  (1176) 
Ref-Lig

>  <s_sd_BIOSOLVEIT.INFINISEE\_QUERY\_SMILES>  (1176) 
S(c1nc2c(cc1C[NH2+]Cc3ccc(cc3)C[NH+](C)C)cccc2)Cc4ccccc4

>  <s_sd_BIOSOLVEIT.INFINISEE\_REACTION\_NAME>  (1176) 
rxn102c

>  <s_sd_BIOSOLVEIT.INFINISEE\_REAGENT1\_NAME>  (1176) 
EMOL13081280

>  <s_sd_BIOSOLVEIT.INFINISEE\_REAGENT1\_SMILES>  (1176) 
Clc1ccc(cc1)C(N(C)C)CN

>  <s_sd_BIOSOLVEIT.INFINISEE\_REAGENT2\_NAME>  (1176) 
EMOL27507560

>  <s_sd_BIOSOLVEIT.INFINISEE\_REAGENT2\_SMILES>  (1176) 
Fc1ccc(Oc2nc(nc(Oc3ccc(F)cc3)c2)N)cc1

>  <s_sd_BIOSOLVEIT.INFINISEE\_SPACE>  (1176) 
eXplore_7tr_2022-12

>  <s_vsw_compound_code>  (1176) 
85442

>  <s_vsw_variant>  (1176) 
85442-2

>  <r_epik_Charging_Adjusted_Penalty>  (1176) 
0.042882470157395401

>  <r_epik_Ionization_Penalty>  (1176) 
0.013100000000000001

>  <r_epik_Ionization_Penalty_Charging>  (1176) 
0.0054999999999999997

>  <r_epik_Ionization_Penalty_Neutral>  (1176) 
0.0076

>  <r_epik_State_Penalty>  (1176) 
0.0373

>  <r_i_docking_score>  (1176) 
-4.6286329288577699

>  <r_i_glide_ecoul>  (1176) 
-8.6309041976928693

>  <r_i_glide_eff_state_penalty>  (1176) 
0.0373

>  <r_i_glide_einternal>  (1176) 
16.056491851806602

>  <r_i_glide_emodel>  (1176) 
-49.634571736642997

>  <r_i_glide_energy>  (1176) 
-41.885397911071799

>  <r_i_glide_erotb>  (1176) 
0.61952098774212105

>  <r_i_glide_esite>  (1176) 
-0.19756084395878601

>  <r_i_glide_evdw>  (1176) 
-33.254493713378899

>  <r_i_glide_gscore>  (1176) 
-4.66593292885777

>  <r_i_glide_hbond>  (1176) 
-0.20000000000000001

>  <r_i_glide_ligand_efficiency>  (1176) 
-0.13224665511022199

>  <r_i_glide_ligand_efficiency_ln>  (1176) 
-1.0160876548573501

>  <r_i_glide_ligand_efficiency_sa>  (1176) 
-0.43258757765351002

>  <r_i_glide_lipo>  (1176) 
-1.33416579463541

>  <r_i_glide_metal>  (1176) 
-0

>  <r_i_glide_rewards>  (1176) 
-0.59636696268282097

>  <r_lp_Energy>  (1176) 
27.75104

>  <r_lp_tautomer_probability>  (1176) 
0.99999999991856403

>  <r_qp_ACxDN^.5/SA>  (1176) 
0.0135756

>  <r_qp_CIQPlogS>  (1176) 
-5.5010000000000003

>  <r_qp_EA(eV)>  (1176) 
0.59299999999999997

>  <r_qp_FISA>  (1176) 
72.602999999999994

>  <r_qp_FOSA>  (1176) 
179.108

>  <r_qp_IP(eV)>  (1176) 
8.5299999999999994

>  <r_qp_Jm>  (1176) 
0.000216500022832566

>  <r_qp_PISA>  (1176) 
483.56299999999999

>  <r_qp_PSA>  (1176) 
75.420000000000002

>  <r_qp_PercentHumanOralAbsorption>  (1176) 
92.715999999999994

>  <r_qp_QPPCaco>  (1176) 
126.24299999999999

>  <r_qp_QPPMDCK>  (1176) 
211.71299999999999

>  <r_qp_QPlogBB>  (1176) 
0.13900000000000001

>  <r_qp_QPlogHERG>  (1176) 
-9.2560000000000002

>  <r_qp_QPlogKhsa>  (1176) 
0.76500000000000001

>  <r_qp_QPlogKp>  (1176) 
-4.319

>  <r_qp_QPlogPC16>  (1176) 
16.202000000000002

>  <r_qp_QPlogPo/w>  (1176) 
4.8099999999999996

>  <r_qp_QPlogPoct>  (1176) 
25.065999999999999

>  <r_qp_QPlogPw>  (1176) 
14.121

>  <r_qp_QPlogS>  (1176) 
-5.024

>  <r_qp_QPpolrz>  (1176) 
50.988999999999997

>  <r_qp_SASA>  (1176) 
829.30799999999999

>  <r_qp_SAamideO>  (1176) 
0

>  <r_qp_SAfluorine>  (1176) 
94.034999999999997

>  <r_qp_WPSA>  (1176) 
94.034999999999997

>  <r_qp_accptHB>  (1176) 
6.5

>  <r_qp_dip^2/V>  (1176) 
0.0012788000000000001

>  <r_qp_dipole>  (1176) 
1.3720000000000001

>  <r_qp_donorHB>  (1176) 
3

>  <r_qp_glob>  (1176) 
0.75491580000000003

>  <r_qp_mol_MW>  (1176) 
477.51299999999998

>  <r_qp_volume>  (1176) 
1472.903

>  <r_sd_BIOSOLVEIT.INFINISEE\_FTREES\_SIMILARITY>  (1176) 
0.90900000000000003

>  <r_sd_BIOSOLVEIT.LOGP>  (1176) 
3.5105

>  <r_sd_BIOSOLVEIT.MOLECULAR\_WEIGHT>  (1176) 
479.52800000000002

>  <r_sd_BIOSOLVEIT.TPSA>  (1176) 
88.349999999999994

>  <i_epik_Tot_Q>  (1176) 
1

>  <i_epik_Tot_abs_Q>  (1176) 
1

>  <i_f3d_flags>  (1176) 
0

>  <i_i_glide_confnum>  (1176) 
9

>  <i_i_glide_lignum>  (1176) 
1287

>  <i_i_glide_posenum>  (1176) 
1

>  <i_i_glide_rotatable_bonds>  (1176) 
9

>  <i_lp_mmshare_version>  (1176) 
65135

>  <i_m_ct_format>  (1176) 
2

>  <i_m_source_file_index>  (1176) 
2671

>  <i_qp_#NandO>  (1176) 
7

>  <i_qp_#acid>  (1176) 
0

>  <i_qp_#amide>  (1176) 
0

>  <i_qp_#amidine>  (1176) 
0

>  <i_qp_#amine>  (1176) 
2

>  <i_qp_#in34>  (1176) 
0

>  <i_qp_#in56>  (1176) 
24

>  <i_qp_#metab>  (1176) 
4

>  <i_qp_#nonHatm>  (1176) 
35

>  <i_qp_#noncon>  (1176) 
0

>  <i_qp_#ringatoms>  (1176) 
24

>  <i_qp_#rotor>  (1176) 
10

>  <i_qp_#rtvFG>  (1176) 
0

>  <i_qp_#stars>  (1176) 
1

>  <i_qp_CNS>  (1176) 
1

>  <i_qp_HumanOralAbsorption>  (1176) 
3

>  <i_qp_RuleOfFive>  (1176) 
0

>  <i_qp_RuleOfThree>  (1176) 
0

>  <i_sd_BIOSOLVEIT.INFINISEE\_RESULT\_RANK>  (1176) 
49088

>  <i_sd_version>  (1176) 
0

>  <b_lp_Chiralities_Consistent>  (1176) 
1

>  <b_sd_chiral_flag>  (1176) 
0

>  <canonical_id>  (1176) 
ATP-HTVS-BB2B7EB3D06A

>  <compound_code>  (1176) 
85442

>  <title>  (1176) 
rxn102c____EMOL13081280____EMOL27507560

>  <variant>  (1176) 
85442-2

>  <source_file>  (1176) 
运行/运行/ATP-VSW/ATP-VSW-DOCK_HTVS_1-002_lib.maegz

>  <canonical_smiles>  (1176) 
CN(C)[C@H](C[NH3+])c1ccc(Nc2nc(Oc3ccc(F)cc3)cc(Oc3ccc(F)cc3)n2)cc1

>  <scaffold>  (1176) 
c1ccc(Nc2nc(Oc3ccccc3)cc(Oc3ccccc3)n2)cc1

>  <molecular_formula>  (1176) 
C26H26F2N5O2+

$$$$
ATP-HTVS-BB30DC3CF26F
     RDKit          3D

 60 63  0  0  0  0  0  0  0  0999 V2000
  198.0445  183.3812  159.1057 O   0  0  0  0  0  0  0  0  0  0  0  0
  197.5813  183.4346  157.9558 C   0  0  0  0  0  0  0  0  0  0  0  0
  196.3170  183.7860  157.6664 N   0  0  0  0  0  0  0  0  0  0  0  0
  195.3282  184.1824  158.6610 C   0  0  1  0  0  0  0  0  0  0  0  0
  195.6034  185.5146  159.3569 C   0  0  0  0  0  0  0  0  0  0  0  0
  196.5411  186.4525  158.8654 C   0  0  0  0  0  0  0  0  0  0  0  0
  196.7602  187.6739  159.5387 C   0  0  0  0  0  0  0  0  0  0  0  0
  196.0317  187.9677  160.7093 C   0  0  0  0  0  0  0  0  0  0  0  0
  195.0973  187.0429  161.2058 C   0  0  0  0  0  0  0  0  0  0  0  0
  194.8824  185.8264  160.5323 C   0  0  0  0  0  0  0  0  0  0  0  0
  197.7556  188.6812  158.9948 C   0  0  1  0  0  0  0  0  0  0  0  0
  199.0376  188.6726  159.7514 N   0  0  1  0  0  0  0  0  0  0  0  0
  199.8680  187.4776  159.4600 C   0  0  2  0  0  0  0  0  0  0  0  0
  199.7976  189.9256  159.5562 C   0  0  2  0  0  0  0  0  0  0  0  0
  198.4625  183.1712  156.7665 C   0  0  0  0  0  0  0  0  0  0  0  0
  199.8327  182.7566  156.7558 C   0  0  0  0  0  0  0  0  0  0  0  0
  200.2368  182.6046  155.4994 N   0  0  0  0  0  0  0  0  0  0  0  0
  199.1789  182.9172  154.7136 N   0  0  0  0  0  0  0  0  0  0  0  0
  198.0851  183.2913  155.4579 C   0  0  0  0  0  0  0  0  0  0  0  0
  199.2908  182.8253  153.2671 C   0  0  1  0  0  0  0  0  0  0  0  0
  198.4767  181.6602  152.7281 C   0  0  0  0  0  0  0  0  0  0  0  0
  197.1042  181.8215  152.4369 C   0  0  0  0  0  0  0  0  0  0  0  0
  196.3529  180.7337  151.9504 C   0  0  0  0  0  0  0  0  0  0  0  0
  196.9661  179.4821  151.7545 C   0  0  0  0  0  0  0  0  0  0  0  0
  198.3341  179.3168  152.0416 C   0  0  0  0  0  0  0  0  0  0  0  0
  199.0878  180.4035  152.5273 C   0  0  0  0  0  0  0  0  0  0  0  0
  200.7979  182.4989  157.8372 C   0  0  0  0  0  0  0  0  0  0  0  0
  200.7773  183.2561  159.0317 C   0  0  0  0  0  0  0  0  0  0  0  0
  201.6074  183.0246  160.0798 N   0  0  0  0  0  0  0  0  0  0  0  0
  202.5141  182.0308  159.9643 C   0  0  0  0  0  0  0  0  0  0  0  0
  202.6503  181.2441  158.8027 C   0  0  0  0  0  0  0  0  0  0  0  0
  201.7712  181.4798  157.7258 C   0  0  0  0  0  0  0  0  0  0  0  0
  196.0058  183.7570  156.7081 H   0  0  0  0  0  0  0  0  0  0  0  0
  194.3551  184.2364  158.1744 H   0  0  0  0  0  0  0  0  0  0  0  0
  195.2588  183.3918  159.4095 H   0  0  0  0  0  0  0  0  0  0  0  0
  197.1026  186.2462  157.9667 H   0  0  0  0  0  0  0  0  0  0  0  0
  196.1739  188.9084  161.2192 H   0  0  0  0  0  0  0  0  0  0  0  0
  194.5296  187.2742  162.0946 H   0  0  0  0  0  0  0  0  0  0  0  0
  194.1525  185.1259  160.9090 H   0  0  0  0  0  0  0  0  0  0  0  0
  197.9386  188.5000  157.9342 H   0  0  0  0  0  0  0  0  0  0  0  0
  197.2896  189.6654  159.0545 H   0  0  0  0  0  0  0  0  0  0  0  0
  200.1390  187.4246  158.4047 H   0  0  0  0  0  0  0  0  0  0  0  0
  199.3477  186.5547  159.7195 H   0  0  0  0  0  0  0  0  0  0  0  0
  200.7905  187.5045  160.0406 H   0  0  0  0  0  0  0  0  0  0  0  0
  200.0985  190.0498  158.5157 H   0  0  0  0  0  0  0  0  0  0  0  0
  200.6928  189.9297  160.1797 H   0  0  0  0  0  0  0  0  0  0  0  0
  199.1961  190.7878  159.8464 H   0  0  0  0  0  0  0  0  0  0  0  0
  197.1595  183.5916  154.9928 H   0  0  0  0  0  0  0  0  0  0  0  0
  198.9420  183.7581  152.8203 H   0  0  0  0  0  0  0  0  0  0  0  0
  200.3389  182.7117  152.9806 H   0  0  0  0  0  0  0  0  0  0  0  0
  196.6199  182.7744  152.5949 H   0  0  0  0  0  0  0  0  0  0  0  0
  195.3027  180.8557  151.7337 H   0  0  0  0  0  0  0  0  0  0  0  0
  196.3861  178.6483  151.3879 H   0  0  0  0  0  0  0  0  0  0  0  0
  198.8055  178.3564  151.8923 H   0  0  0  0  0  0  0  0  0  0  0  0
  200.1354  180.2676  152.7530 H   0  0  0  0  0  0  0  0  0  0  0  0
  200.0446  184.0556  159.1576 H   0  0  0  0  0  0  0  0  0  0  0  0
  203.1598  181.8781  160.8170 H   0  0  0  0  0  0  0  0  0  0  0  0
  203.4134  180.4789  158.7392 H   0  0  0  0  0  0  0  0  0  0  0  0
  201.8474  180.8800  156.8317 H   0  0  0  0  0  0  0  0  0  0  0  0
  198.8127  188.6580  160.7345 H   0  0  0  0  0  0  0  0  0  0  0  0
  1  2  2  0
  2  3  1  0
  2 15  1  0
  3  4  1  0
  3 33  1  0
  4  5  1  0
  4 34  1  6
  4 35  1  0
  5  6  2  0
  5 10  1  0
  6  7  1  0
  6 36  1  0
  7  8  2  0
  7 11  1  0
  8  9  1  0
  8 37  1  0
  9 10  2  0
  9 38  1  0
 10 39  1  0
 11 12  1  0
 11 40  1  6
 11 41  1  0
 12 13  1  0
 12 14  1  0
 12 60  1  1
 13 42  1  6
 13 43  1  0
 13 44  1  0
 14 45  1  6
 14 46  1  0
 14 47  1  0
 15 16  1  0
 15 19  2  0
 16 17  2  0
 16 27  1  0
 17 18  1  0
 18 19  1  0
 18 20  1  0
 19 48  1  0
 20 21  1  0
 20 49  1  6
 20 50  1  0
 21 22  2  0
 21 26  1  0
 22 23  1  0
 22 51  1  0
 23 24  2  0
 23 52  1  0
 24 25  1  0
 24 53  1  0
 25 26  2  0
 25 54  1  0
 26 55  1  0
 27 28  2  0
 27 32  1  0
 28 29  1  0
 28 56  1  0
 29 30  2  0
 30 31  1  0
 30 57  1  0
 31 32  2  0
 31 58  1  0
 32 59  1  0
M  CHG  1  12   1
M  END
>  <s_epik_cmdline>  (1177) 
J2VwaWtfcHl0aG9uJywgJy1waCcsICc3LjAwMDAwMCcsICctcGh0JywgJzIuMDAwMDAwJywgJy1tcycsICcxNicsICctdG4nLCAnOCcsICctbWEnLCAnMjAwJywgJy1pbWFlJywgJzxpbmZpbGUubWFlPicsICctb21hZScsICc8b3V0ZmlsZS5tYWU+Jw==

>  <s_epik_input>  (1177) 
W2NIXTFbY0hdW2NIXWMoW0NIMl1OKFtDSDNdKVtDSDNdKVtjSF1jMVtDSDJdW05IXUMoPU8pYzJjKC1jM1tjSF1uW2NIXVtjSF1bY0hdMylubihbY0hdMilbQ0gyXWM0W2NIXVtjSF1bY0hdW2NIXVtjSF00

>  <s_i_glide_gridfile>  (1177) 
ATP-Grid

>  <s_lp_Force_Field>  (1177) 
OPLS_2005

>  <s_lp_Variant>  (1177) 
m_22bbg____323828____134270-1

>  <s_lp_label>  (1177) 
2120_sdstereoexpander_1_neutralizer_1_epik_1_stereoizer_1

>  <s_m_source_file>  (1177) 
ATP-VSW-LIGPREP-002-in.maegz

>  <s_sd_BIOSOLVEIT.INFINISEE\_QUERY\_NAME>  (1177) 
Ref-Lig

>  <s_sd_BIOSOLVEIT.INFINISEE\_QUERY\_SMILES>  (1177) 
S(c1nc2c(cc1C[NH2+]Cc3ccc(cc3)C[NH+](C)C)cccc2)Cc4ccccc4

>  <s_sd_BIOSOLVEIT.INFINISEE\_REACTION\_NAME>  (1177) 
m_22bbg

>  <s_sd_BIOSOLVEIT.INFINISEE\_REAGENT1\_SMILES>  (1177) 
[R1*]NCc1cc(ccc1)CN(C)C

>  <s_sd_BIOSOLVEIT.INFINISEE\_REAGENT2\_SMILES>  (1177) 
[R1*]C(=O)C=1C(=NN(C1)Cc2ccccc2)c3cnccc3

>  <s_sd_BIOSOLVEIT.INFINISEE\_SPACE>  (1177) 
REALSpace_44bn_2023-08

>  <s_vsw_compound_code>  (1177) 
67810

>  <s_vsw_variant>  (1177) 
67810-1

>  <r_epik_Charging_Adjusted_Penalty>  (1177) 
0.090499947298345707

>  <r_epik_Ionization_Penalty>  (1177) 
0.048300000000000003

>  <r_epik_Ionization_Penalty_Charging>  (1177) 
0.045199999999999997

>  <r_epik_Ionization_Penalty_Neutral>  (1177) 
0.0030999999999999999

>  <r_epik_State_Penalty>  (1177) 
0.045199999999999997

>  <r_i_docking_score>  (1177) 
-4.2418203706985098

>  <r_i_glide_ecoul>  (1177) 
-4.9312238693237296

>  <r_i_glide_eff_state_penalty>  (1177) 
0.045199999999999997

>  <r_i_glide_einternal>  (1177) 
0.81194436550140403

>  <r_i_glide_emodel>  (1177) 
-54.333752175869698

>  <r_i_glide_energy>  (1177) 
-38.544394493102999

>  <r_i_glide_erotb>  (1177) 
0.87272429201832702

>  <r_i_glide_esite>  (1177) 
-0.107478861560656

>  <r_i_glide_evdw>  (1177) 
-33.613170623779297

>  <r_i_glide_gscore>  (1177) 
-4.2870203706985102

>  <r_i_glide_hbond>  (1177) 
-0.12736452538146001

>  <r_i_glide_ligand_efficiency>  (1177) 
-0.13255688658432899

>  <r_i_glide_ligand_efficiency_ln>  (1177) 
-0.94985920865565898

>  <r_i_glide_ligand_efficiency_sa>  (1177) 
-0.42084188193300898

>  <r_i_glide_lipo>  (1177) 
-2.0036506641871998

>  <r_i_glide_metal>  (1177) 
-0

>  <r_i_glide_rewards>  (1177) 
-0.50090849999999898

>  <r_lp_Energy>  (1177) 
21.339672

>  <r_lp_tautomer_probability>  (1177) 
1

>  <r_qp_ACxDN^.5/SA>  (1177) 
0.010020599999999999

>  <r_qp_CIQPlogS>  (1177) 
-5.1879999999999997

>  <r_qp_EA(eV)>  (1177) 
0.33600000000000002

>  <r_qp_FISA>  (1177) 
53.220999999999997

>  <r_qp_FOSA>  (1177) 
233.71100000000001

>  <r_qp_IP(eV)>  (1177) 
8.8200000000000003

>  <r_qp_Jm>  (1177) 
0.044611291067636998

>  <r_qp_PISA>  (1177) 
461.52300000000002

>  <r_qp_PSA>  (1177) 
65.977000000000004

>  <r_qp_PercentHumanOralAbsorption>  (1177) 
100

>  <r_qp_QPPCaco>  (1177) 
772.86599999999999

>  <r_qp_QPPMDCK>  (1177) 
414.26999999999998

>  <r_qp_QPlogBB>  (1177) 
-0.0040000000000000001

>  <r_qp_QPlogHERG>  (1177) 
-7.577

>  <r_qp_QPlogKhsa>  (1177) 
0.61899999999999999

>  <r_qp_QPlogKp>  (1177) 
-2.2650000000000001

>  <r_qp_QPlogPC16>  (1177) 
15.063000000000001

>  <r_qp_QPlogPo/w>  (1177) 
4.5430000000000001

>  <r_qp_QPlogPoct>  (1177) 
22.683

>  <r_qp_QPlogPw>  (1177) 
12.33

>  <r_qp_QPlogS>  (1177) 
-4.7140000000000004

>  <r_qp_QPpolrz>  (1177) 
49.646999999999998

>  <r_qp_SASA>  (1177) 
748.45600000000002

>  <r_qp_SAamideO>  (1177) 
0

>  <r_qp_SAfluorine>  (1177) 
0

>  <r_qp_WPSA>  (1177) 
0

>  <r_qp_accptHB>  (1177) 
7.5

>  <r_qp_dip^2/V>  (1177) 
0.053529599999999997

>  <r_qp_dipole>  (1177) 
8.6460000000000008

>  <r_qp_donorHB>  (1177) 
1

>  <r_qp_glob>  (1177) 
0.8072897

>  <r_qp_mol_MW>  (1177) 
425.53199999999998

>  <r_qp_volume>  (1177) 
1396.5160000000001

>  <r_sd_BIOSOLVEIT.INFINISEE\_FTREES\_SIMILARITY>  (1177) 
0.90100000000000002

>  <r_sd_BIOSOLVEIT.LOGP>  (1177) 
2.5678999999999998

>  <r_sd_BIOSOLVEIT.MOLECULAR\_WEIGHT>  (1177) 
426.541

>  <r_sd_BIOSOLVEIT.TPSA>  (1177) 
64.25

>  <i_epik_Tot_Q>  (1177) 
1

>  <i_epik_Tot_abs_Q>  (1177) 
1

>  <i_f3d_flags>  (1177) 
0

>  <i_i_glide_confnum>  (1177) 
1

>  <i_i_glide_lignum>  (1177) 
765

>  <i_i_glide_posenum>  (1177) 
20

>  <i_i_glide_rotatable_bonds>  (1177) 
9

>  <i_lp_mmshare_version>  (1177) 
65135

>  <i_m_ct_format>  (1177) 
2

>  <i_m_source_file_index>  (1177) 
2120

>  <i_qp_#NandO>  (1177) 
6

>  <i_qp_#acid>  (1177) 
0

>  <i_qp_#amide>  (1177) 
0

>  <i_qp_#amidine>  (1177) 
0

>  <i_qp_#amine>  (1177) 
1

>  <i_qp_#in34>  (1177) 
0

>  <i_qp_#in56>  (1177) 
23

>  <i_qp_#metab>  (1177) 
6

>  <i_qp_#nonHatm>  (1177) 
32

>  <i_qp_#noncon>  (1177) 
0

>  <i_qp_#ringatoms>  (1177) 
23

>  <i_qp_#rotor>  (1177) 
7

>  <i_qp_#rtvFG>  (1177) 
0

>  <i_qp_#stars>  (1177) 
1

>  <i_qp_CNS>  (1177) 
1

>  <i_qp_HumanOralAbsorption>  (1177) 
3

>  <i_qp_RuleOfFive>  (1177) 
0

>  <i_qp_RuleOfThree>  (1177) 
0

>  <i_sd_BIOSOLVEIT.INFINISEE\_REAGENT1\_NAME>  (1177) 
323828

>  <i_sd_BIOSOLVEIT.INFINISEE\_REAGENT2\_NAME>  (1177) 
134270

>  <i_sd_BIOSOLVEIT.INFINISEE\_RESULT\_RANK>  (1177) 
98474

>  <i_sd_version>  (1177) 
0

>  <b_lp_Chiralities_Consistent>  (1177) 
1

>  <b_sd_chiral_flag>  (1177) 
0

>  <canonical_id>  (1177) 
ATP-HTVS-BB30DC3CF26F

>  <compound_code>  (1177) 
67810

>  <title>  (1177) 
m_22bbg____323828____134270

>  <variant>  (1177) 
67810-1

>  <source_file>  (1177) 
运行/运行/ATP-VSW/ATP-VSW-DOCK_HTVS_1-002_lib.maegz

>  <canonical_smiles>  (1177) 
C[NH+](C)Cc1cccc(CNC(=O)c2cn(Cc3ccccc3)nc2-c2cccnc2)c1

>  <scaffold>  (1177) 
O=C(NCc1ccccc1)c1cn(Cc2ccccc2)nc1-c1cccnc1

>  <molecular_formula>  (1177) 
C26H28N5O+

$$$$
ATP-HTVS-BB3EB03EB4C6
     RDKit          3D

 56 59  0  0  0  0  0  0  0  0999 V2000
  194.2976  187.3614  161.7392 O   0  0  0  0  0  0  0  0  0  0  0  0
  195.2890  186.9620  161.0874 C   0  0  0  0  0  0  0  0  0  0  0  0
  196.3342  187.6368  160.9305 O   0  0  0  0  0  0  0  0  0  0  0  0
  195.2235  185.6182  160.4497 C   0  0  0  0  0  0  0  0  0  0  0  0
  193.9704  185.0691  160.1291 C   0  0  0  0  0  0  0  0  0  0  0  0
  193.8911  183.8775  159.3965 C   0  0  0  0  0  0  0  0  0  0  0  0
  195.0589  183.1359  159.1151 C   0  0  0  0  0  0  0  0  0  0  0  0
  196.3136  183.6530  159.5139 C   0  0  0  0  0  0  0  0  0  0  0  0
  196.3985  184.9123  160.1314 C   0  0  0  0  0  0  0  0  0  0  0  0
  194.9691  181.7812  158.4213 C   0  0  2  0  0  0  0  0  0  0  0  0
  195.5472  181.8322  157.0664 N   0  0  1  0  0  0  0  0  0  0  0  0
  197.0267  181.8637  157.0094 C   0  0  1  0  0  0  0  0  0  0  0  0
  197.5244  181.2541  155.7178 C   0  0  0  0  0  0  0  0  0  0  0  0
  197.1880  181.8699  154.4943 C   0  0  0  0  0  0  0  0  0  0  0  0
  197.6508  181.3372  153.2734 C   0  0  0  0  0  0  0  0  0  0  0  0
  197.3760  181.9199  152.0549 O   0  0  0  0  0  0  0  0  0  0  0  0
  196.7226  183.1886  151.9797 C   0  0  1  0  0  0  0  0  0  0  0  0
  197.4328  184.0961  151.0061 C   0  0  0  0  0  0  0  0  0  0  0  0
  197.0649  184.1203  149.6472 C   0  0  0  0  0  0  0  0  0  0  0  0
  197.7158  184.9994  148.7585 C   0  0  0  0  0  0  0  0  0  0  0  0
  198.7489  185.8316  149.2300 C   0  0  0  0  0  0  0  0  0  0  0  0
  199.1206  185.8106  150.5881 C   0  0  0  0  0  0  0  0  0  0  0  0
  198.4653  184.9342  151.4715 C   0  0  0  0  0  0  0  0  0  0  0  0
  198.4403  180.1555  153.2962 C   0  0  0  0  0  0  0  0  0  0  0  0
  198.7727  179.5383  154.5322 C   0  0  0  0  0  0  0  0  0  0  0  0
  198.3161  180.0885  155.7428 C   0  0  0  0  0  0  0  0  0  0  0  0
  199.5616  178.3695  154.5600 C   0  0  0  0  0  0  0  0  0  0  0  0
  200.0252  177.8023  153.3585 C   0  0  0  0  0  0  0  0  0  0  0  0
  199.6992  178.4029  152.1265 C   0  0  0  0  0  0  0  0  0  0  0  0
  198.9133  179.5737  152.0954 C   0  0  0  0  0  0  0  0  0  0  0  0
  193.5402  181.2100  158.3297 C   0  0  2  0  0  0  0  0  0  0  0  0
  195.2882  180.9568  156.6480 H   0  0  0  0  0  0  0  0  0  0  0  0
  193.0654  185.6035  160.3487 H   0  0  0  0  0  0  0  0  0  0  0  0
  192.9036  183.5570  159.1132 H   0  0  0  0  0  0  0  0  0  0  0  0
  197.2274  183.0992  159.3694 H   0  0  0  0  0  0  0  0  0  0  0  0
  197.3633  185.3324  160.3793 H   0  0  0  0  0  0  0  0  0  0  0  0
  195.5216  181.0493  159.0216 H   0  0  0  0  0  0  0  0  0  0  0  0
  197.3827  182.8899  157.0629 H   0  0  0  0  0  0  0  0  0  0  0  0
  197.4713  181.3046  157.8387 H   0  0  0  0  0  0  0  0  0  0  0  0
  196.5678  182.7523  154.5117 H   0  0  0  0  0  0  0  0  0  0  0  0
  195.7007  183.0113  151.6507 H   0  0  0  0  0  0  0  0  0  0  0  0
  196.6686  183.7442  152.9245 H   0  0  0  0  0  0  0  0  0  0  0  0
  196.2803  183.4756  149.2838 H   0  0  0  0  0  0  0  0  0  0  0  0
  197.4241  185.0268  147.7150 H   0  0  0  0  0  0  0  0  0  0  0  0
  199.2640  186.4999  148.5487 H   0  0  0  0  0  0  0  0  0  0  0  0
  199.9082  186.4594  150.9513 H   0  0  0  0  0  0  0  0  0  0  0  0
  198.7471  184.9142  152.5137 H   0  0  0  0  0  0  0  0  0  0  0  0
  198.5670  179.6087  156.6821 H   0  0  0  0  0  0  0  0  0  0  0  0
  199.8072  177.9057  155.5070 H   0  0  0  0  0  0  0  0  0  0  0  0
  200.6270  176.9042  153.3865 H   0  0  0  0  0  0  0  0  0  0  0  0
  200.0554  177.9639  151.2065 H   0  0  0  0  0  0  0  0  0  0  0  0
  198.6804  180.0186  151.1386 H   0  0  0  0  0  0  0  0  0  0  0  0
  193.1063  181.0730  159.3261 H   0  0  0  0  0  0  0  0  0  0  0  0
  193.5372  180.2352  157.8490 H   0  0  0  0  0  0  0  0  0  0  0  0
  192.8801  181.8327  157.7223 H   0  0  0  0  0  0  0  0  0  0  0  0
  195.0973  182.5730  156.5309 H   0  0  0  0  0  0  0  0  0  0  0  0
  1  2  1  0
  2  3  2  0
  2  4  1  0
  4  5  1  0
  4  9  2  0
  5  6  2  0
  5 33  1  0
  6  7  1  0
  6 34  1  0
  7  8  2  0
  7 10  1  0
  8  9  1  0
  8 35  1  0
  9 36  1  0
 10 11  1  0
 10 31  1  0
 10 37  1  1
 11 12  1  0
 11 32  1  6
 11 56  1  0
 12 13  1  0
 12 38  1  1
 12 39  1  0
 13 14  1  0
 13 26  2  0
 14 15  2  0
 14 40  1  0
 15 16  1  0
 15 24  1  0
 16 17  1  0
 17 18  1  0
 17 41  1  6
 17 42  1  0
 18 19  2  0
 18 23  1  0
 19 20  1  0
 19 43  1  0
 20 21  2  0
 20 44  1  0
 21 22  1  0
 21 45  1  0
 22 23  2  0
 22 46  1  0
 23 47  1  0
 24 25  1  0
 24 30  2  0
 25 26  1  0
 25 27  2  0
 26 48  1  0
 27 28  1  0
 27 49  1  0
 28 29  2  0
 28 50  1  0
 29 30  1  0
 29 51  1  0
 30 52  1  0
 31 53  1  1
 31 54  1  0
 31 55  1  0
M  CHG  2   1  -1  11   1
M  END
>  <s_epik_cmdline>  (1178) 
J2VwaWtfcHl0aG9uJywgJy1waCcsICc3LjAwMDAwMCcsICctcGh0JywgJzIuMDAwMDAwJywgJy1tcycsICcxNicsICctdG4nLCAnOCcsICctbWEnLCAnMjAwJywgJy1pbWFlJywgJzxpbmZpbGUubWFlPicsICctb21hZScsICc8b3V0ZmlsZS5tYWU+Jw==

>  <s_epik_input>  (1178) 
W09IXUMoPU8pYzFbY0hdW2NIXWMoW2NIXVtjSF0xKVtDQEBIXShbQ0gzXSlbTkhdW0NIMl1jKFtjSF1jKGMyMylbY0hdW2NIXVtjSF1bY0hdMylbY0hdYzJPW0NIMl1jNFtjSF1bY0hdW2NIXVtjSF1bY0hdNA==

>  <s_i_glide_gridfile>  (1178) 
ATP-Grid

>  <s_lp_Force_Field>  (1178) 
OPLS_2005

>  <s_lp_Variant>  (1178) 
m_271304bba____16969956____13059962-1

>  <s_lp_label>  (1178) 
1804_sdstereoexpander_1_neutralizer_1_epik_1_stereoizer_1

>  <s_m_source_file>  (1178) 
ATP-VSW-LIGPREP-003-in.maegz

>  <s_sd_BIOSOLVEIT.INFINISEE\_QUERY\_NAME>  (1178) 
Ref-Lig

>  <s_sd_BIOSOLVEIT.INFINISEE\_QUERY\_SMILES>  (1178) 
S(c1nc2c(cc1C[NH2+]Cc3ccc(cc3)C[NH+](C)C)cccc2)Cc4ccccc4

>  <s_sd_BIOSOLVEIT.INFINISEE\_REACTION\_NAME>  (1178) 
m_271304bba

>  <s_sd_BIOSOLVEIT.INFINISEE\_REAGENT1\_SMILES>  (1178) 
[R1*]NC(c1ccc(cc1)C(=O)O)C

>  <s_sd_BIOSOLVEIT.INFINISEE\_REAGENT2\_SMILES>  (1178) 
[R1*]Cc1cc(OCc2ccccc2)c3c(c1)cccc3

>  <s_sd_BIOSOLVEIT.INFINISEE\_SPACE>  (1178) 
REALSpace_44bn_2023-08

>  <s_vsw_compound_code>  (1178) 
57699

>  <s_vsw_variant>  (1178) 
57699-1

>  <r_epik_Charging_Adjusted_Penalty>  (1178) 
0.096526089206237398

>  <r_epik_Ionization_Penalty>  (1178) 
0.048399999999999999

>  <r_epik_Ionization_Penalty_Charging>  (1178) 
0.048399999999999999

>  <r_epik_Ionization_Penalty_Neutral>  (1178) 
0

>  <r_epik_State_Penalty>  (1178) 
0.048099999999999997

>  <r_i_docking_score>  (1178) 
-4.8451086700618502

>  <r_i_glide_ecoul>  (1178) 
-8.3364133834838903

>  <r_i_glide_eff_state_penalty>  (1178) 
0.048099999999999997

>  <r_i_glide_einternal>  (1178) 
7.9951739311218297

>  <r_i_glide_emodel>  (1178) 
-57.327720686130199

>  <r_i_glide_energy>  (1178) 
-43.218585014343297

>  <r_i_glide_erotb>  (1178) 
0.81482305980982905

>  <r_i_glide_esite>  (1178) 
-0.10000000000000001

>  <r_i_glide_evdw>  (1178) 
-34.882171630859403

>  <r_i_glide_gscore>  (1178) 
-4.89320867006185

>  <r_i_glide_hbond>  (1178) 
-0.201875099763974

>  <r_i_glide_ligand_efficiency>  (1178) 
-0.15629382806651099

>  <r_i_glide_ligand_efficiency_ln>  (1178) 
-1.0927204898473399

>  <r_i_glide_ligand_efficiency_sa>  (1178) 
-0.49097840701432099

>  <r_i_glide_lipo>  (1178) 
-1.4910954073096701

>  <r_i_glide_metal>  (1178) 
-0

>  <r_i_glide_rewards>  (1178) 
-0.92049063373248097

>  <r_lp_Energy>  (1178) 
19.289269999999998

>  <r_qp_ACxDN^.5/SA>  (1178) 
0.0077121000000000004

>  <r_qp_CIQPlogS>  (1178) 
-6.0570000000000004

>  <r_qp_EA(eV)>  (1178) 
0.82199999999999995

>  <r_qp_FISA>  (1178) 
113.358

>  <r_qp_FOSA>  (1178) 
142.15799999999999

>  <r_qp_IP(eV)>  (1178) 
8.3119999999999994

>  <r_qp_Jm>  (1178) 
4.8473365460943898e-05

>  <r_qp_PISA>  (1178) 
523.83199999999999

>  <r_qp_PSA>  (1178) 
68.274000000000001

>  <r_qp_PercentHumanOralAbsorption>  (1178) 
80.704999999999998

>  <r_qp_QPPCaco>  (1178) 
52.652999999999999

>  <r_qp_QPPMDCK>  (1178) 
28.885000000000002

>  <r_qp_QPlogBB>  (1178) 
-0.79700000000000004

>  <r_qp_QPlogHERG>  (1178) 
-6.6790000000000003

>  <r_qp_QPlogKhsa>  (1178) 
0.95399999999999996

>  <r_qp_QPlogKp>  (1178) 
-3.0579999999999998

>  <r_qp_QPlogPC16>  (1178) 
16.178999999999998

>  <r_qp_QPlogPo/w>  (1178) 
3.9199999999999999

>  <r_qp_QPlogPoct>  (1178) 
21.922000000000001

>  <r_qp_QPlogPw>  (1178) 
11.279999999999999

>  <r_qp_QPlogS>  (1178) 
-6.8710000000000004

>  <r_qp_QPpolrz>  (1178) 
48.970999999999997

>  <r_qp_SASA>  (1178) 
779.34900000000005

>  <r_qp_SAamideO>  (1178) 
0

>  <r_qp_SAfluorine>  (1178) 
0

>  <r_qp_WPSA>  (1178) 
0

>  <r_qp_accptHB>  (1178) 
4.25

>  <r_qp_dip^2/V>  (1178) 
0.024201400000000001

>  <r_qp_dipole>  (1178) 
5.7809999999999997

>  <r_qp_donorHB>  (1178) 
2

>  <r_qp_glob>  (1178) 
0.76945989999999997

>  <r_qp_mol_MW>  (1178) 
411.49900000000002

>  <r_qp_volume>  (1178) 
1380.7940000000001

>  <r_sd_BIOSOLVEIT.INFINISEE\_FTREES\_SIMILARITY>  (1178) 
0.90400000000000003

>  <r_sd_BIOSOLVEIT.LOGP>  (1178) 
3.6069

>  <r_sd_BIOSOLVEIT.MOLECULAR\_WEIGHT>  (1178) 
411.49900000000002

>  <r_sd_BIOSOLVEIT.TPSA>  (1178) 
65.969999999999999

>  <i_epik_Tot_Q>  (1178) 
0

>  <i_epik_Tot_abs_Q>  (1178) 
2

>  <i_f3d_flags>  (1178) 
0

>  <i_i_glide_confnum>  (1178) 
7

>  <i_i_glide_lignum>  (1178) 
669

>  <i_i_glide_posenum>  (1178) 
14

>  <i_i_glide_rotatable_bonds>  (1178) 
8

>  <i_lp_mmshare_version>  (1178) 
65135

>  <i_m_ct_format>  (1178) 
2

>  <i_m_source_file_index>  (1178) 
1804

>  <i_qp_#NandO>  (1178) 
4

>  <i_qp_#acid>  (1178) 
1

>  <i_qp_#amide>  (1178) 
0

>  <i_qp_#amidine>  (1178) 
0

>  <i_qp_#amine>  (1178) 
1

>  <i_qp_#in34>  (1178) 
0

>  <i_qp_#in56>  (1178) 
22

>  <i_qp_#metab>  (1178) 
5

>  <i_qp_#nonHatm>  (1178) 
31

>  <i_qp_#noncon>  (1178) 
0

>  <i_qp_#ringatoms>  (1178) 
22

>  <i_qp_#rotor>  (1178) 
8

>  <i_qp_#rtvFG>  (1178) 
0

>  <i_qp_#stars>  (1178) 
2

>  <i_qp_CNS>  (1178) 
-1

>  <i_qp_HumanOralAbsorption>  (1178) 
1

>  <i_qp_RuleOfFive>  (1178) 
0

>  <i_qp_RuleOfThree>  (1178) 
1

>  <i_sd_BIOSOLVEIT.INFINISEE\_REAGENT1\_NAME>  (1178) 
16969956

>  <i_sd_BIOSOLVEIT.INFINISEE\_REAGENT2\_NAME>  (1178) 
13059962

>  <i_sd_BIOSOLVEIT.INFINISEE\_RESULT\_RANK>  (1178) 
78091

>  <i_sd_version>  (1178) 
0

>  <b_lp_Chiralities_Consistent>  (1178) 
1

>  <b_sd_chiral_flag>  (1178) 
0

>  <canonical_id>  (1178) 
ATP-HTVS-BB3EB03EB4C6

>  <compound_code>  (1178) 
57699

>  <title>  (1178) 
m_271304bba____16969956____13059962

>  <variant>  (1178) 
57699-1

>  <source_file>  (1178) 
运行/运行/ATP-VSW/ATP-VSW-DOCK_HTVS_1-003_lib/ATP-VSW-DOCK_HTVS_1-003_lib.mae

>  <canonical_smiles>  (1178) 
C[C@@H]([NH2+]Cc1cc(OCc2ccccc2)c2ccccc2c1)c1ccc(C(=O)[O-])cc1

>  <scaffold>  (1178) 
c1ccc(C[NH2+]Cc2cc(OCc3ccccc3)c3ccccc3c2)cc1

>  <molecular_formula>  (1178) 
C27H25NO3

$$$$
ATP-HTVS-BB81D0256EE3
     RDKit          3D

 57 60  0  0  0  0  0  0  0  0999 V2000
  199.5017  187.6814  153.8972 S   0  0  0  0  0  0  0  0  0  0  0  0
  199.7036  186.7462  152.4430 C   0  0  0  0  0  0  0  0  0  0  0  0
  198.9537  185.5082  152.5016 C   0  0  0  0  0  0  0  0  0  0  0  0
  199.0968  184.6878  151.3324 C   0  0  0  0  0  0  0  0  0  0  0  0
  199.8646  185.0720  150.2072 C   0  0  0  0  0  0  0  0  0  0  0  0
  200.5689  186.2705  150.2044 C   0  0  0  0  0  0  0  0  0  0  0  0
  201.3295  186.6083  149.1328 F   0  0  0  0  0  0  0  0  0  0  0  0
  200.4981  187.1155  151.3292 C   0  0  0  0  0  0  0  0  0  0  0  0
  198.1969  185.4034  153.7823 C   0  0  0  0  0  0  0  0  0  0  0  0
  197.3093  184.3575  154.1224 N   0  0  0  0  0  0  0  0  0  0  0  0
  197.0098  183.1819  153.3383 C   0  0  1  0  0  0  0  0  0  0  0  0
  197.5932  181.9043  153.8765 C   0  0  0  0  0  0  0  0  0  0  0  0
  198.9314  181.5663  153.5942 C   0  0  0  0  0  0  0  0  0  0  0  0
  199.4574  180.3474  154.0547 C   0  0  0  0  0  0  0  0  0  0  0  0
  198.6444  179.4784  154.8183 C   0  0  0  0  0  0  0  0  0  0  0  0
  197.3066  179.8231  155.1038 C   0  0  0  0  0  0  0  0  0  0  0  0
  196.7812  181.0319  154.6389 C   0  0  0  0  0  0  0  0  0  0  0  0
  199.2393  178.2054  155.4085 C   0  0  1  0  0  0  0  0  0  0  0  0
  199.6866  178.3464  156.8144 N   0  0  2  0  0  0  0  0  0  0  0  0
  200.4705  179.5768  157.0853 C   0  0  2  0  0  0  0  0  0  0  0  0
  200.3979  177.1373  157.2773 C   0  0  2  0  0  0  0  0  0  0  0  0
  198.4466  186.4994  154.6092 C   0  0  0  0  0  0  0  0  0  0  0  0
  197.9412  186.8702  155.9650 C   0  0  0  0  0  0  0  0  0  0  0  0
  198.0947  188.0122  156.4144 O   0  0  0  0  0  0  0  0  0  0  0  0
  197.3645  185.8674  156.6528 N   0  0  0  0  0  0  0  0  0  0  0  0
  196.7504  185.8422  157.9496 C   0  0  0  0  0  0  0  0  0  0  0  0
  196.5188  184.5895  158.5884 C   0  0  0  0  0  0  0  0  0  0  0  0
  196.8847  183.3176  157.9865 C   0  0  0  0  0  0  0  0  0  0  0  0
  197.1841  182.3036  157.5129 N   0  0  0  0  0  0  0  0  0  0  0  0
  195.9417  184.5501  159.8750 C   0  0  0  0  0  0  0  0  0  0  0  0
  195.5842  185.7422  160.5325 C   0  0  0  0  0  0  0  0  0  0  0  0
  195.7926  186.9759  159.8987 C   0  0  0  0  0  0  0  0  0  0  0  0
  196.3477  187.0248  158.6094 C   0  0  0  0  0  0  0  0  0  0  0  0
  198.6560  183.7021  151.1876 H   0  0  0  0  0  0  0  0  0  0  0  0
  199.8982  184.3903  149.3706 H   0  0  0  0  0  0  0  0  0  0  0  0
  201.0480  188.0408  151.3345 H   0  0  0  0  0  0  0  0  0  0  0  0
  196.5658  184.5779  154.7848 H   0  0  0  0  0  0  0  0  0  0  0  0
  195.9306  183.0337  153.3920 H   0  0  0  0  0  0  0  0  0  0  0  0
  197.1371  183.2578  152.2631 H   0  0  0  0  0  0  0  0  0  0  0  0
  199.5435  182.2454  153.0169 H   0  0  0  0  0  0  0  0  0  0  0  0
  200.4915  180.1084  153.8454 H   0  0  0  0  0  0  0  0  0  0  0  0
  196.6976  179.1829  155.7174 H   0  0  0  0  0  0  0  0  0  0  0  0
  195.7770  181.3197  154.8821 H   0  0  0  0  0  0  0  0  0  0  0  0
  198.4823  177.4278  155.3620 H   0  0  0  0  0  0  0  0  0  0  0  0
  200.0664  177.8962  154.7662 H   0  0  0  0  0  0  0  0  0  0  0  0
  201.3698  179.6093  156.4840 H   0  0  0  0  0  0  0  0  0  0  0  0
  200.7871  179.6039  158.1309 H   0  0  0  0  0  0  0  0  0  0  0  0
  199.8955  180.4821  156.9289 H   0  0  0  0  0  0  0  0  0  0  0  0
  201.3284  176.9826  156.7310 H   0  0  0  0  0  0  0  0  0  0  0  0
  199.7735  176.2554  157.1294 H   0  0  0  0  0  0  0  0  0  0  0  0
  200.6346  177.2042  158.3381 H   0  0  0  0  0  0  0  0  0  0  0  0
  197.4313  184.9786  156.1817 H   0  0  0  0  0  0  0  0  0  0  0  0
  195.7891  183.5999  160.3724 H   0  0  0  0  0  0  0  0  0  0  0  0
  195.1562  185.7158  161.5225 H   0  0  0  0  0  0  0  0  0  0  0  0
  195.5268  187.9018  160.3890 H   0  0  0  0  0  0  0  0  0  0  0  0
  196.4507  188.0010  158.1637 H   0  0  0  0  0  0  0  0  0  0  0  0
  198.8264  178.3609  157.3668 H   0  0  0  0  0  0  0  0  0  0  0  0
  1  2  1  0
  1 22  1  0
  2  3  1  0
  2  8  2  0
  3  4  2  0
  3  9  1  0
  4  5  1  0
  4 34  1  0
  5  6  2  0
  5 35  1  0
  6  7  1  0
  6  8  1  0
  8 36  1  0
  9 10  1  0
  9 22  2  0
 10 11  1  0
 10 37  1  0
 11 12  1  0
 11 38  1  6
 11 39  1  0
 12 13  1  0
 12 17  2  0
 13 14  2  0
 13 40  1  0
 14 15  1  0
 14 41  1  0
 15 16  2  0
 15 18  1  0
 16 17  1  0
 16 42  1  0
 17 43  1  0
 18 19  1  0
 18 44  1  1
 18 45  1  0
 19 20  1  0
 19 21  1  0
 19 57  1  1
 20 46  1  6
 20 47  1  0
 20 48  1  0
 21 49  1  6
 21 50  1  0
 21 51  1  0
 22 23  1  0
 23 24  2  0
 23 25  1  0
 25 26  1  0
 25 52  1  0
 26 27  1  0
 26 33  2  0
 27 28  1  0
 27 30  2  0
 28 29  3  0
 30 31  1  0
 30 53  1  0
 31 32  2  0
 31 54  1  0
 32 33  1  0
 32 55  1  0
 33 56  1  0
M  CHG  1  19   1
M  END
>  <s_epik_cmdline>  (1179) 
J2VwaWtfcHl0aG9uJywgJy1waCcsICc3LjAwMDAwMCcsICctcGh0JywgJzIuMDAwMDAwJywgJy1tcycsICcxNicsICctdG4nLCAnOCcsICctbWEnLCAnMjAwJywgJy1pbWFlJywgJzxpbmZpbGUubWFlPicsICctb21hZScsICc8b3V0ZmlsZS5tYWU+Jw==

>  <s_epik_input>  (1179) 
W2NIXTFbY0hdW2NIXVtjSF1jKEMjTiljMVtOSF1DKD1PKWMoczIpYyhjKGMyMylbY0hdW2NIXWMoRilbY0hdMylbTkhdW0NIMl1jNFtjSF1bY0hdYyhbY0hdW2NIXTQpW0NIMl1OKFtDSDNdKVtDSDNd

>  <s_i_glide_gridfile>  (1179) 
ATP-Grid

>  <s_lp_Force_Field>  (1179) 
OPLS_2005

>  <s_lp_Variant>  (1179) 
rxn512c____EMOL476547____EMOL526741____EMOL50155899-1

>  <s_lp_label>  (1179) 
2521_sdstereoexpander_1_neutralizer_1_epik_1_stereoizer_1

>  <s_m_source_file>  (1179) 
ATP-VSW-LIGPREP-001-in.maegz

>  <s_sd_BIOSOLVEIT.INFINISEE\_QUERY\_NAME>  (1179) 
Ref-Lig

>  <s_sd_BIOSOLVEIT.INFINISEE\_QUERY\_SMILES>  (1179) 
S(c1nc2c(cc1C[NH2+]Cc3ccc(cc3)C[NH+](C)C)cccc2)Cc4ccccc4

>  <s_sd_BIOSOLVEIT.INFINISEE\_REACTION\_NAME>  (1179) 
rxn512c

>  <s_sd_BIOSOLVEIT.INFINISEE\_REAGENT1\_NAME>  (1179) 
EMOL476547

>  <s_sd_BIOSOLVEIT.INFINISEE\_REAGENT1\_SMILES>  (1179) 
N#Cc1c(N)cccc1

>  <s_sd_BIOSOLVEIT.INFINISEE\_REAGENT2\_NAME>  (1179) 
EMOL526741

>  <s_sd_BIOSOLVEIT.INFINISEE\_REAGENT2\_SMILES>  (1179) 
ClC=1c2c(SC1C(=O)O)cc(F)cc2

>  <s_sd_BIOSOLVEIT.INFINISEE\_REAGENT3\_NAME>  (1179) 
EMOL50155899

>  <s_sd_BIOSOLVEIT.INFINISEE\_REAGENT3\_SMILES>  (1179) 
N(Cc1ccc(cc1)CN)(C)C

>  <s_sd_BIOSOLVEIT.INFINISEE\_SPACE>  (1179) 
eXplore_7tr_2022-12

>  <s_vsw_compound_code>  (1179) 
80641

>  <s_vsw_variant>  (1179) 
80641-1

>  <r_epik_Charging_Adjusted_Penalty>  (1179) 
0.080189274810459593

>  <r_epik_Ionization_Penalty>  (1179) 
0.0402

>  <r_epik_Ionization_Penalty_Charging>  (1179) 
0.040099999999999997

>  <r_epik_Ionization_Penalty_Neutral>  (1179) 
0.0001

>  <r_epik_State_Penalty>  (1179) 
0.040099999999999997

>  <r_i_docking_score>  (1179) 
-4.0859523014629797

>  <r_i_glide_ecoul>  (1179) 
-7.2899875640869096

>  <r_i_glide_eff_state_penalty>  (1179) 
0.040099999999999997

>  <r_i_glide_einternal>  (1179) 
3.1953639984130899

>  <r_i_glide_emodel>  (1179) 
-55.9617671574063

>  <r_i_glide_energy>  (1179) 
-42.484090805053697

>  <r_i_glide_erotb>  (1179) 
0.66692398805288999

>  <r_i_glide_esite>  (1179) 
-0.142924791773552

>  <r_i_glide_evdw>  (1179) 
-35.194103240966797

>  <r_i_glide_gscore>  (1179) 
-4.1260523014629804

>  <r_i_glide_hbond>  (1179) 
-0.20000000000000001

>  <r_i_glide_ligand_efficiency>  (1179) 
-0.123816736407969

>  <r_i_glide_ligand_efficiency_ln>  (1179) 
-0.90869463591659205

>  <r_i_glide_ligand_efficiency_sa>  (1179) 
-0.39714643219373003

>  <r_i_glide_lipo>  (1179) 
-1.2262634672114301

>  <r_i_glide_metal>  (1179) 
-0

>  <r_i_glide_rewards>  (1179) 
-0.37058473386951801

>  <r_lp_Energy>  (1179) 
39.202706999999997

>  <r_qp_ACxDN^.5/SA>  (1179) 
0.0073555000000000001

>  <r_qp_CIQPlogS>  (1179) 
-6.306

>  <r_qp_EA(eV)>  (1179) 
1.0720000000000001

>  <r_qp_FISA>  (1179) 
104.078

>  <r_qp_FOSA>  (1179) 
203.33699999999999

>  <r_qp_IP(eV)>  (1179) 
8.2769999999999992

>  <r_qp_Jm>  (1179) 
8.90328826207532e-07

>  <r_qp_PISA>  (1179) 
434.452

>  <r_qp_PSA>  (1179) 
75.825999999999993

>  <r_qp_PercentHumanOralAbsorption>  (1179) 
87.712000000000003

>  <r_qp_QPPCaco>  (1179) 
63.493000000000002

>  <r_qp_QPPMDCK>  (1179) 
78.075999999999993

>  <r_qp_QPlogBB>  (1179) 
-0.14499999999999999

>  <r_qp_QPlogHERG>  (1179) 
-8.9540000000000006

>  <r_qp_QPlogKhsa>  (1179) 
1.014

>  <r_qp_QPlogKp>  (1179) 
-5.2640000000000002

>  <r_qp_QPlogPC16>  (1179) 
15.855

>  <r_qp_QPlogPo/w>  (1179) 
4.8680000000000003

>  <r_qp_QPlogPoct>  (1179) 
22.361999999999998

>  <r_qp_QPlogPw>  (1179) 
10.981

>  <r_qp_QPlogS>  (1179) 
-6.4470000000000001

>  <r_qp_QPpolrz>  (1179) 
50.840000000000003

>  <r_qp_SASA>  (1179) 
815.71199999999999

>  <r_qp_SAamideO>  (1179) 
0

>  <r_qp_SAfluorine>  (1179) 
47.106999999999999

>  <r_qp_WPSA>  (1179) 
73.844999999999999

>  <r_qp_accptHB>  (1179) 
6

>  <r_qp_dip^2/V>  (1179) 
0.0353797

>  <r_qp_dipole>  (1179) 
7.1600000000000001

>  <r_qp_donorHB>  (1179) 
1

>  <r_qp_glob>  (1179) 
0.75911030000000002

>  <r_qp_mol_MW>  (1179) 
458.55200000000002

>  <r_qp_volume>  (1179) 
1448.8230000000001

>  <r_sd_BIOSOLVEIT.INFINISEE\_FTREES\_SIMILARITY>  (1179) 
0.91300000000000003

>  <r_sd_BIOSOLVEIT.LOGP>  (1179) 
4.4209800000000001

>  <r_sd_BIOSOLVEIT.MOLECULAR\_WEIGHT>  (1179) 
459.56599999999997

>  <r_sd_BIOSOLVEIT.TPSA>  (1179) 
69.359999999999999

>  <i_epik_Tot_Q>  (1179) 
1

>  <i_epik_Tot_abs_Q>  (1179) 
1

>  <i_f3d_flags>  (1179) 
0

>  <i_i_glide_confnum>  (1179) 
6

>  <i_i_glide_lignum>  (1179) 
999

>  <i_i_glide_posenum>  (1179) 
19

>  <i_i_glide_rotatable_bonds>  (1179) 
8

>  <i_lp_mmshare_version>  (1179) 
65135

>  <i_m_ct_format>  (1179) 
2

>  <i_m_source_file_index>  (1179) 
2521

>  <i_qp_#NandO>  (1179) 
5

>  <i_qp_#acid>  (1179) 
0

>  <i_qp_#amide>  (1179) 
0

>  <i_qp_#amidine>  (1179) 
0

>  <i_qp_#amine>  (1179) 
2

>  <i_qp_#in34>  (1179) 
0

>  <i_qp_#in56>  (1179) 
21

>  <i_qp_#metab>  (1179) 
6

>  <i_qp_#nonHatm>  (1179) 
33

>  <i_qp_#noncon>  (1179) 
0

>  <i_qp_#ringatoms>  (1179) 
21

>  <i_qp_#rotor>  (1179) 
8

>  <i_qp_#rtvFG>  (1179) 
0

>  <i_qp_#stars>  (1179) 
0

>  <i_qp_CNS>  (1179) 
1

>  <i_qp_HumanOralAbsorption>  (1179) 
1

>  <i_qp_RuleOfFive>  (1179) 
0

>  <i_qp_RuleOfThree>  (1179) 
1

>  <i_sd_BIOSOLVEIT.INFINISEE\_RESULT\_RANK>  (1179) 
32900

>  <i_sd_version>  (1179) 
0

>  <b_lp_Chiralities_Consistent>  (1179) 
1

>  <b_sd_chiral_flag>  (1179) 
0

>  <canonical_id>  (1179) 
ATP-HTVS-BB81D0256EE3

>  <compound_code>  (1179) 
80641

>  <title>  (1179) 
rxn512c____EMOL476547____EMOL526741____EMOL50155899

>  <variant>  (1179) 
80641-1

>  <source_file>  (1179) 
运行/运行/ATP-VSW/ATP-VSW-DOCK_HTVS_1-001_lib/ATP-VSW-DOCK_HTVS_1-001_lib

>  <canonical_smiles>  (1179) 
C[NH+](C)Cc1ccc(CNc2c(C(=O)Nc3ccccc3C#N)sc3cc(F)ccc23)cc1

>  <scaffold>  (1179) 
O=C(Nc1ccccc1)c1sc2ccccc2c1NCc1ccccc1

>  <molecular_formula>  (1179) 
C26H24FN4OS+

$$$$
ATP-HTVS-BBA3AD223423
     RDKit          3D

 45 48  0  0  0  0  0  0  0  0999 V2000
  195.0828  186.4368  161.0671 Br  0  0  0  0  0  0  0  0  0  0  0  0
  196.4415  187.4281  160.1651 C   0  0  0  0  0  0  0  0  0  0  0  0
  197.5596  186.7996  159.5697 C   0  0  0  0  0  0  0  0  0  0  0  0
  198.5392  187.6097  158.9536 C   0  0  0  0  0  0  0  0  0  0  0  0
  198.4001  188.9983  158.8545 C   0  0  0  0  0  0  0  0  0  0  0  0
  197.2911  189.6220  159.4368 C   0  0  0  0  0  0  0  0  0  0  0  0
  197.1331  190.9617  159.3561 F   0  0  0  0  0  0  0  0  0  0  0  0
  196.3433  188.8402  160.1248 C   0  0  0  0  0  0  0  0  0  0  0  0
  197.7957  185.3005  159.6735 C   0  0  1  0  0  0  0  0  0  0  0  0
  197.8223  184.6164  158.3786 N   0  0  0  0  0  0  0  0  0  0  0  0
  198.7508  183.4622  158.3988 C   0  0  1  0  0  0  0  0  0  0  0  0
  198.6686  182.5875  157.1325 C   0  0  0  0  0  0  0  0  0  0  0  0
  197.5002  181.8028  156.8932 C   0  0  0  0  0  0  0  0  0  0  0  0
  196.3700  181.8382  157.7634 N   0  0  0  0  0  0  0  0  0  0  0  0
  195.8476  182.9327  158.3488 C   0  0  0  0  0  0  0  0  0  0  0  0
  194.9201  182.8767  159.1390 O   0  0  0  0  0  0  0  0  0  0  0  0
  196.4265  184.3204  157.9553 C   0  0  1  0  0  0  0  0  0  0  0  0
  197.4745  180.9048  155.8075 C   0  0  0  0  0  0  0  0  0  0  0  0
  198.5699  180.7993  154.9282 C   0  0  0  0  0  0  0  0  0  0  0  0
  199.7119  181.5832  155.1386 C   0  0  0  0  0  0  0  0  0  0  0  0
  199.7608  182.4667  156.2355 C   0  0  0  0  0  0  0  0  0  0  0  0
  200.2032  183.8984  158.6463 C   0  0  0  0  0  0  0  0  0  0  0  0
  201.0714  183.1389  159.4763 C   0  0  0  0  0  0  0  0  0  0  0  0
  202.3988  183.5619  159.6843 C   0  0  0  0  0  0  0  0  0  0  0  0
  202.8655  184.7511  159.0874 C   0  0  0  0  0  0  0  0  0  0  0  0
  202.0178  185.4991  158.2519 C   0  0  0  0  0  0  0  0  0  0  0  0
  200.7144  185.0355  157.9875 C   0  0  0  0  0  0  0  0  0  0  0  0
  199.4614  187.1970  158.5533 H   0  0  0  0  0  0  0  0  0  0  0  0
  199.1547  189.5798  158.3564 H   0  0  0  0  0  0  0  0  0  0  0  0
  195.4899  189.3174  160.5851 H   0  0  0  0  0  0  0  0  0  0  0  0
  198.7810  185.2762  160.1253 H   0  0  0  0  0  0  0  0  0  0  0  0
  197.1427  184.7788  160.3707 H   0  0  0  0  0  0  0  0  0  0  0  0
  198.4541  182.8388  159.2333 H   0  0  0  0  0  0  0  0  0  0  0  0
  195.9178  180.9409  157.8911 H   0  0  0  0  0  0  0  0  0  0  0  0
  195.7412  185.1103  158.2841 H   0  0  0  0  0  0  0  0  0  0  0  0
  196.4098  184.3680  156.8792 H   0  0  0  0  0  0  0  0  0  0  0  0
  196.6039  180.2838  155.6526 H   0  0  0  0  0  0  0  0  0  0  0  0
  198.5466  180.1145  154.0956 H   0  0  0  0  0  0  0  0  0  0  0  0
  200.5678  181.5204  154.4918 H   0  0  0  0  0  0  0  0  0  0  0  0
  200.6836  183.0036  156.3395 H   0  0  0  0  0  0  0  0  0  0  0  0
  200.7164  182.2248  159.9319 H   0  0  0  0  0  0  0  0  0  0  0  0
  203.0551  182.9627  160.2868 H   0  0  0  0  0  0  0  0  0  0  0  0
  203.8815  185.0798  159.2442 H   0  0  0  0  0  0  0  0  0  0  0  0
  202.3579  186.4122  157.7823 H   0  0  0  0  0  0  0  0  0  0  0  0
  200.0883  185.5454  157.2731 H   0  0  0  0  0  0  0  0  0  0  0  0
  1  2  1  0
  2  3  2  0
  2  8  1  0
  3  4  1  0
  3  9  1  0
  4  5  2  0
  4 28  1  0
  5  6  1  0
  5 29  1  0
  6  7  1  0
  6  8  2  0
  8 30  1  0
  9 10  1  0
  9 31  1  1
  9 32  1  0
 10 11  1  0
 10 17  1  0
 11 12  1  0
 11 22  1  0
 11 33  1  1
 12 13  1  0
 12 21  2  0
 13 14  1  0
 13 18  2  0
 14 15  1  0
 14 34  1  0
 15 16  2  0
 15 17  1  0
 17 35  1  1
 17 36  1  0
 18 19  1  0
 18 37  1  0
 19 20  2  0
 19 38  1  0
 20 21  1  0
 20 39  1  0
 21 40  1  0
 22 23  2  0
 22 27  1  0
 23 24  1  0
 23 41  1  0
 24 25  2  0
 24 42  1  0
 25 26  1  0
 25 43  1  0
 26 27  2  0
 26 44  1  0
 27 45  1  0
M  END
>  <s_epik_cmdline>  (1180) 
J2VwaWtfcHl0aG9uJywgJy1waCcsICc3LjAwMDAwMCcsICctcGh0JywgJzIuMDAwMDAwJywgJy1tcycsICcxNicsICctdG4nLCAnOCcsICctbWEnLCAnMjAwJywgJy1pbWFlJywgJzxpbmZpbGUubWFlPicsICctb21hZScsICc8b3V0ZmlsZS5tYWU+Jw==

>  <s_epik_input>  (1180) 
W2NIXTFbY0hdW2NIXVtjSF1bY0hdYzFbQ0BIXTJOKFtDSDJdYyhjM0JyKVtjSF1bY0hdYyhGKVtjSF0zKVtDSDJdQyg9TylbTkhdYyhjMjQpW2NIXVtjSF1bY0hdW2NIXTQ=

>  <s_i_glide_gridfile>  (1180) 
ATP-Grid

>  <s_lp_Force_Field>  (1180) 
OPLS_2005

>  <s_lp_Variant>  (1180) 
m_2230bdc____17849930____666246-1

>  <s_lp_label>  (1180) 
877_sdstereoexpander_1_neutralizer_1_epik_1_stereoizer_1

>  <s_m_source_file>  (1180) 
ATP-VSW-LIGPREP-003-in.maegz

>  <s_sd_BIOSOLVEIT.INFINISEE\_QUERY\_NAME>  (1180) 
Ref-Lig

>  <s_sd_BIOSOLVEIT.INFINISEE\_QUERY\_SMILES>  (1180) 
S(c1nc2c(cc1C[NH2+]Cc3ccc(cc3)C[NH+](C)C)cccc2)Cc4ccccc4

>  <s_sd_BIOSOLVEIT.INFINISEE\_REACTION\_NAME>  (1180) 
m_2230bdc

>  <s_sd_BIOSOLVEIT.INFINISEE\_REAGENT1\_SMILES>  (1180) 
[R1*]N1C(c2c(NC(=O)C1)cccc2)c3ccccc3

>  <s_sd_BIOSOLVEIT.INFINISEE\_REAGENT2\_SMILES>  (1180) 
[R1*]Cc1c(Br)cc(F)cc1

>  <s_sd_BIOSOLVEIT.INFINISEE\_SPACE>  (1180) 
REALSpace_44bn_2023-08

>  <s_vsw_compound_code>  (1180) 
28035

>  <s_vsw_variant>  (1180) 
28035-1

>  <r_epik_Charging_Adjusted_Penalty>  (1180) 
0.0087634984339075902

>  <r_epik_Ionization_Penalty>  (1180) 
0.0088000000000000005

>  <r_epik_Ionization_Penalty_Charging>  (1180) 
0

>  <r_epik_Ionization_Penalty_Neutral>  (1180) 
0.0088000000000000005

>  <r_epik_State_Penalty>  (1180) 
0.0088000000000000005

>  <r_i_docking_score>  (1180) 
-1.6918802493948799

>  <r_i_glide_ecoul>  (1180) 
-3.8495621681213401

>  <r_i_glide_eff_state_penalty>  (1180) 
0.0088000000000000005

>  <r_i_glide_einternal>  (1180) 
1.9512089490890501

>  <r_i_glide_emodel>  (1180) 
-37.253794056520199

>  <r_i_glide_energy>  (1180) 
-34.457132816314697

>  <r_i_glide_erotb>  (1180) 
0.329000474660881

>  <r_i_glide_esite>  (1180) 
-0.13833059201026801

>  <r_i_glide_evdw>  (1180) 
-30.607570648193398

>  <r_i_glide_gscore>  (1180) 
-1.7006802493948801

>  <r_i_glide_hbond>  (1180) 
-0.16

>  <r_i_glide_ligand_efficiency>  (1180) 
-0.062662231459069601

>  <r_i_glide_ligand_efficiency_ln>  (1180) 
-0.39384182923327399

>  <r_i_glide_ligand_efficiency_sa>  (1180) 
-0.187986694170684

>  <r_i_glide_lipo>  (1180) 
-1.1758006621285

>  <r_i_glide_metal>  (1180) 
-0

>  <r_i_glide_rewards>  (1180) 
1.55226338771088

>  <r_lp_Energy>  (1180) 
38.118599000000003

>  <r_qp_ACxDN^.5/SA>  (1180) 
0.0071602999999999997

>  <r_qp_CIQPlogS>  (1180) 
-5.9720000000000004

>  <r_qp_EA(eV)>  (1180) 
0.442

>  <r_qp_FISA>  (1180) 
52.609000000000002

>  <r_qp_FOSA>  (1180) 
44.045999999999999

>  <r_qp_IP(eV)>  (1180) 
8.9860000000000007

>  <r_qp_Jm>  (1180) 
0.0067728543240805602

>  <r_qp_PISA>  (1180) 
433.84699999999998

>  <r_qp_PSA>  (1180) 
40.018000000000001

>  <r_qp_PercentHumanOralAbsorption>  (1180) 
100

>  <r_qp_QPPCaco>  (1180) 
783.26400000000001

>  <r_qp_QPPMDCK>  (1180) 
1446.173

>  <r_qp_QPlogBB>  (1180) 
0.58199999999999996

>  <r_qp_QPlogHERG>  (1180) 
-6.9489999999999998

>  <r_qp_QPlogKhsa>  (1180) 
0.754

>  <r_qp_QPlogKp>  (1180) 
-2.831

>  <r_qp_QPlogPC16>  (1180) 
12.486000000000001

>  <r_qp_QPlogPo/w>  (1180) 
4.5259999999999998

>  <r_qp_QPlogPoct>  (1180) 
18.829999999999998

>  <r_qp_QPlogPw>  (1180) 
10.031000000000001

>  <r_qp_QPlogS>  (1180) 
-4.9669999999999996

>  <r_qp_QPpolrz>  (1180) 
42.185000000000002

>  <r_qp_SASA>  (1180) 
628.46900000000005

>  <r_qp_SAamideO>  (1180) 
0

>  <r_qp_SAfluorine>  (1180) 
47.018999999999998

>  <r_qp_WPSA>  (1180) 
97.966999999999999

>  <r_qp_accptHB>  (1180) 
4.5

>  <r_qp_dip^2/V>  (1180) 
0.034527000000000002

>  <r_qp_dipole>  (1180) 
6.2640000000000002

>  <r_qp_donorHB>  (1180) 
1

>  <r_qp_glob>  (1180) 
0.83799650000000003

>  <r_qp_mol_MW>  (1180) 
425.29899999999998

>  <r_qp_volume>  (1180) 
1136.4280000000001

>  <r_sd_BIOSOLVEIT.INFINISEE\_FTREES\_SIMILARITY>  (1180) 
0.92000000000000004

>  <r_sd_BIOSOLVEIT.LOGP>  (1180) 
3.7147999999999999

>  <r_sd_BIOSOLVEIT.MOLECULAR\_WEIGHT>  (1180) 
426.30700000000002

>  <r_sd_BIOSOLVEIT.TPSA>  (1180) 
33.539999999999999

>  <i_epik_Tot_Q>  (1180) 
0

>  <i_epik_Tot_abs_Q>  (1180) 
0

>  <i_f3d_flags>  (1180) 
0

>  <i_i_glide_confnum>  (1180) 
6

>  <i_i_glide_lignum>  (1180) 
348

>  <i_i_glide_posenum>  (1180) 
17

>  <i_i_glide_rotatable_bonds>  (1180) 
3

>  <i_lp_mmshare_version>  (1180) 
65135

>  <i_m_ct_format>  (1180) 
2

>  <i_m_source_file_index>  (1180) 
877

>  <i_qp_#NandO>  (1180) 
3

>  <i_qp_#acid>  (1180) 
0

>  <i_qp_#amide>  (1180) 
0

>  <i_qp_#amidine>  (1180) 
0

>  <i_qp_#amine>  (1180) 
1

>  <i_qp_#in34>  (1180) 
0

>  <i_qp_#in56>  (1180) 
18

>  <i_qp_#metab>  (1180) 
7

>  <i_qp_#nonHatm>  (1180) 
27

>  <i_qp_#noncon>  (1180) 
2

>  <i_qp_#ringatoms>  (1180) 
23

>  <i_qp_#rotor>  (1180) 
2

>  <i_qp_#rtvFG>  (1180) 
0

>  <i_qp_#stars>  (1180) 
0

>  <i_qp_CNS>  (1180) 
2

>  <i_qp_HumanOralAbsorption>  (1180) 
3

>  <i_qp_RuleOfFive>  (1180) 
0

>  <i_qp_RuleOfThree>  (1180) 
1

>  <i_sd_BIOSOLVEIT.INFINISEE\_REAGENT1\_NAME>  (1180) 
17849930

>  <i_sd_BIOSOLVEIT.INFINISEE\_REAGENT2\_NAME>  (1180) 
666246

>  <i_sd_BIOSOLVEIT.INFINISEE\_RESULT\_RANK>  (1180) 
16979

>  <i_sd_version>  (1180) 
0

>  <b_lp_Chiralities_Consistent>  (1180) 
1

>  <b_sd_chiral_flag>  (1180) 
0

>  <canonical_id>  (1180) 
ATP-HTVS-BBA3AD223423

>  <compound_code>  (1180) 
28035

>  <title>  (1180) 
m_2230bdc____17849930____666246

>  <variant>  (1180) 
28035-1

>  <source_file>  (1180) 
运行/运行/ATP-VSW/ATP-VSW-DOCK_HTVS_1-003_lib/ATP-VSW-DOCK_HTVS_1-003_lib.mae

>  <canonical_smiles>  (1180) 
O=C1CN(Cc2ccc(F)cc2Br)[C@H](c2ccccc2)c2ccccc2N1

>  <scaffold>  (1180) 
O=C1CN(Cc2ccccc2)C(c2ccccc2)c2ccccc2N1

>  <molecular_formula>  (1180) 
C22H18BrFN2O

$$$$
ATP-HTVS-BBB01994AF2B
     RDKit          3D

 63 66  0  0  0  0  0  0  0  0999 V2000
  199.5456  183.1673  157.5393 O   0  0  0  0  0  0  0  0  0  0  0  0
  198.4897  182.5624  157.3689 C   0  0  0  0  0  0  0  0  0  0  0  0
  198.3755  181.4589  156.6054 N   0  0  0  0  0  0  0  0  0  0  0  0
  199.4182  180.6742  156.0377 C   0  0  0  0  0  0  0  0  0  0  0  0
  200.6531  180.6570  156.5881 N   0  0  0  0  0  0  0  0  0  0  0  0
  201.6108  179.8785  156.0626 C   0  0  0  0  0  0  0  0  0  0  0  0
  201.3738  179.0491  154.9467 C   0  0  0  0  0  0  0  0  0  0  0  0
  200.0975  179.0042  154.3420 C   0  0  0  0  0  0  0  0  0  0  0  0
  199.1076  179.8861  154.8884 C   0  0  0  0  0  0  0  0  0  0  0  0
  197.7077  179.9630  154.3496 C   0  0  0  0  0  0  0  0  0  0  0  0
  196.7834  179.4996  154.9902 O   0  0  0  0  0  0  0  0  0  0  0  0
  197.5193  180.5138  152.9862 C   0  0  0  0  0  0  0  0  0  0  0  0
  196.4140  180.1350  152.2150 C   0  0  0  0  0  0  0  0  0  0  0  0
  196.3366  180.5024  150.8592 C   0  0  0  0  0  0  0  0  0  0  0  0
  197.3058  181.3226  150.2906 C   0  0  0  0  0  0  0  0  0  0  0  0
  198.3763  181.7954  151.0695 C   0  0  0  0  0  0  0  0  0  0  0  0
  198.4780  181.4403  152.4202 C   0  0  0  0  0  0  0  0  0  0  0  0
  199.9052  178.0840  153.1826 C   0  0  0  0  0  0  0  0  0  0  0  0
  200.2321  176.6976  153.2745 C   0  0  0  0  0  0  0  0  0  0  0  0
  200.0151  175.8561  152.1406 C   0  0  0  0  0  0  0  0  0  0  0  0
  199.4453  176.3568  150.9445 C   0  0  0  0  0  0  0  0  0  0  0  0
  199.2261  175.5990  149.8240 O   0  0  0  0  0  0  0  0  0  0  0  0
  199.1345  177.7292  150.8735 C   0  0  0  0  0  0  0  0  0  0  0  0
  199.4190  178.5952  151.9395 C   0  0  0  0  0  0  0  0  0  0  0  0
  200.4003  174.4026  152.2339 C   0  0  2  0  0  0  0  0  0  0  0  0
  197.1818  183.0579  157.9424 C   0  0  0  0  0  0  0  0  0  0  0  0
  196.8231  184.4436  158.0124 C   0  0  0  0  0  0  0  0  0  0  0  0
  195.5650  184.8070  158.5506 C   0  0  0  0  0  0  0  0  0  0  0  0
  194.6599  183.8321  159.0111 C   0  0  0  0  0  0  0  0  0  0  0  0
  195.0088  182.4738  158.9447 C   0  0  0  0  0  0  0  0  0  0  0  0
  196.2549  182.1001  158.4107 C   0  0  0  0  0  0  0  0  0  0  0  0
  197.7118  185.5801  157.4866 C   0  0  1  0  0  0  0  0  0  0  0  0
  197.4701  185.8917  156.0483 N   0  0  2  0  0  0  0  0  0  0  0  0
  197.6009  184.7240  155.1419 C   0  0  2  0  0  0  0  0  0  0  0  0
  198.2973  187.0258  155.5788 C   0  0  2  0  0  0  0  0  0  0  0  0
  197.4326  181.1353  156.4290 H   0  0  0  0  0  0  0  0  0  0  0  0
  202.5863  179.9106  156.5261 H   0  0  0  0  0  0  0  0  0  0  0  0
  202.1860  178.4474  154.5632 H   0  0  0  0  0  0  0  0  0  0  0  0
  195.7274  179.3896  152.5848 H   0  0  0  0  0  0  0  0  0  0  0  0
  195.5122  180.1355  150.2517 H   0  0  0  0  0  0  0  0  0  0  0  0
  197.2782  181.5547  149.2357 H   0  0  0  0  0  0  0  0  0  0  0  0
  199.2206  182.2609  150.5938 H   0  0  0  0  0  0  0  0  0  0  0  0
  199.3580  181.6798  152.9712 H   0  0  0  0  0  0  0  0  0  0  0  0
  200.6516  176.3142  154.2175 H   0  0  0  0  0  0  0  0  0  0  0  0
  199.5530  174.7192  149.9720 H   0  0  0  0  0  0  0  0  0  0  0  0
  198.7223  178.1775  149.9895 H   0  0  0  0  0  0  0  0  0  0  0  0
  199.3544  179.5883  151.6879 H   0  0  0  0  0  0  0  0  0  0  0  0
  201.1518  174.2235  151.4789 H   0  0  0  0  0  0  0  0  0  0  0  0
  199.5060  173.8268  152.0516 H   0  0  0  0  0  0  0  0  0  0  0  0
  200.7912  174.2091  153.2206 H   0  0  0  0  0  0  0  0  0  0  0  0
  195.2620  185.8462  158.5976 H   0  0  0  0  0  0  0  0  0  0  0  0
  193.6984  184.1187  159.4127 H   0  0  0  0  0  0  0  0  0  0  0  0
  194.3320  181.7075  159.2885 H   0  0  0  0  0  0  0  0  0  0  0  0
  196.4933  181.0473  158.3714 H   0  0  0  0  0  0  0  0  0  0  0  0
  197.5135  186.4758  158.0848 H   0  0  0  0  0  0  0  0  0  0  0  0
  198.7692  185.3960  157.6588 H   0  0  0  0  0  0  0  0  0  0  0  0
  198.6201  184.3300  155.1703 H   0  0  0  0  0  0  0  0  0  0  0  0
  197.3584  184.9782  154.1104 H   0  0  0  0  0  0  0  0  0  0  0  0
  196.9061  183.9292  155.4149 H   0  0  0  0  0  0  0  0  0  0  0  0
  199.3618  186.7979  155.6495 H   0  0  0  0  0  0  0  0  0  0  0  0
  198.0989  187.9267  156.1580 H   0  0  0  0  0  0  0  0  0  0  0  0
  198.0761  187.2482  154.5360 H   0  0  0  0  0  0  0  0  0  0  0  0
  196.5058  186.1868  155.9779 H   0  0  0  0  0  0  0  0  0  0  0  0
  1  2  2  0
  2  3  1  0
  2 26  1  0
  3  4  1  0
  3 36  1  0
  4  5  1  0
  4  9  2  0
  5  6  2  0
  6  7  1  0
  6 37  1  0
  7  8  2  0
  7 38  1  0
  8  9  1  0
  8 18  1  0
  9 10  1  0
 10 11  2  0
 10 12  1  0
 12 13  2  0
 12 17  1  0
 13 14  1  0
 13 39  1  0
 14 15  2  0
 14 40  1  0
 15 16  1  0
 15 41  1  0
 16 17  2  0
 16 42  1  0
 17 43  1  0
 18 19  2  0
 18 24  1  0
 19 20  1  0
 19 44  1  0
 20 21  2  0
 20 25  1  0
 21 22  1  0
 21 23  1  0
 22 45  1  0
 23 24  2  0
 23 46  1  0
 24 47  1  0
 25 48  1  6
 25 49  1  0
 25 50  1  0
 26 27  1  0
 26 31  2  0
 27 28  2  0
 27 32  1  0
 28 29  1  0
 28 51  1  0
 29 30  2  0
 29 52  1  0
 30 31  1  0
 30 53  1  0
 31 54  1  0
 32 33  1  0
 32 55  1  1
 32 56  1  0
 33 34  1  0
 33 35  1  0
 33 63  1  1
 34 57  1  6
 34 58  1  0
 34 59  1  0
 35 60  1  6
 35 61  1  0
 35 62  1  0
M  CHG  1  33   1
M  END
>  <s_epik_cmdline>  (1181) 
J2VwaWtfcHl0aG9uJywgJy1waCcsICc3LjAwMDAwMCcsICctcGh0JywgJzIuMDAwMDAwJywgJy1tcycsICcxNicsICctdG4nLCAnOCcsICctbWEnLCAnMjAwJywgJy1pbWFlJywgJzxpbmZpbGUubWFlPicsICctb21hZScsICc8b3V0ZmlsZS5tYWU+Jw==

>  <s_epik_input>  (1181) 
W2NIXTFbY0hdW2NIXVtjSF1jKFtDSDJdTihbQ0gzXSlbQ0gzXSljMUMoPU8pW05IXWMybltjSF1bY0hdYygtYzNbY0hdYyhbQ0gzXSljKFtPSF0pW2NIXVtjSF0zKWMyQyg9TyljNFtjSF1bY0hdW2NIXVtjSF1bY0hdNA==

>  <s_i_glide_gridfile>  (1181) 
ATP-Grid

>  <s_lp_Force_Field>  (1181) 
OPLS_2005

>  <s_lp_Variant>  (1181) 
rxn501c____EMOL5415347____EMOL36251210____EMOL32273941-1

>  <s_lp_label>  (1181) 
2519_sdstereoexpander_1_neutralizer_1_epik_1_stereoizer_1

>  <s_m_source_file>  (1181) 
ATP-VSW-LIGPREP-002-in.maegz

>  <s_sd_BIOSOLVEIT.INFINISEE\_QUERY\_NAME>  (1181) 
Ref-Lig

>  <s_sd_BIOSOLVEIT.INFINISEE\_QUERY\_SMILES>  (1181) 
S(c1nc2c(cc1C[NH2+]Cc3ccc(cc3)C[NH+](C)C)cccc2)Cc4ccccc4

>  <s_sd_BIOSOLVEIT.INFINISEE\_REACTION\_NAME>  (1181) 
rxn501c

>  <s_sd_BIOSOLVEIT.INFINISEE\_REAGENT1\_NAME>  (1181) 
EMOL5415347

>  <s_sd_BIOSOLVEIT.INFINISEE\_REAGENT1\_SMILES>  (1181) 
O=C(O)c1c(cccc1)CN(C)C

>  <s_sd_BIOSOLVEIT.INFINISEE\_REAGENT2\_NAME>  (1181) 
EMOL36251210

>  <s_sd_BIOSOLVEIT.INFINISEE\_REAGENT2\_SMILES>  (1181) 
Clc1c(c(ncc1)N)C(=O)c2ccccc2

>  <s_sd_BIOSOLVEIT.INFINISEE\_REAGENT3\_NAME>  (1181) 
EMOL32273941

>  <s_sd_BIOSOLVEIT.INFINISEE\_REAGENT3\_SMILES>  (1181) 
Oc1c(cc(cc1)B(O)O)C

>  <s_sd_BIOSOLVEIT.INFINISEE\_SPACE>  (1181) 
eXplore_7tr_2022-12

>  <s_vsw_compound_code>  (1181) 
80578

>  <s_vsw_variant>  (1181) 
80578-1

>  <r_epik_Charging_Adjusted_Penalty>  (1181) 
0.135017715478744

>  <r_epik_Ionization_Penalty>  (1181) 
0.062600000000000003

>  <r_epik_Ionization_Penalty_Charging>  (1181) 
0.060100000000000001

>  <r_epik_Ionization_Penalty_Neutral>  (1181) 
0.0025000000000000001

>  <r_epik_State_Penalty>  (1181) 
0.074999999999999997

>  <r_i_docking_score>  (1181) 
-3.84304552480272

>  <r_i_glide_ecoul>  (1181) 
-5.8539876937866202

>  <r_i_glide_eff_state_penalty>  (1181) 
0.074999999999999997

>  <r_i_glide_einternal>  (1181) 
2.2686278820037802

>  <r_i_glide_emodel>  (1181) 
-56.5429268644126

>  <r_i_glide_energy>  (1181) 
-42.974749565124498

>  <r_i_glide_erotb>  (1181) 
0.64882283328308199

>  <r_i_glide_esite>  (1181) 
-0.084910001577962205

>  <r_i_glide_evdw>  (1181) 
-37.120761871337898

>  <r_i_glide_gscore>  (1181) 
-3.9180455248027202

>  <r_i_glide_hbond>  (1181) 
-0.068248262863523507

>  <r_i_glide_ligand_efficiency>  (1181) 
-0.10980130070864901

>  <r_i_glide_ligand_efficiency_ln>  (1181) 
-0.843633784494219

>  <r_i_glide_ligand_efficiency_sa>  (1181) 
-0.35916733513729299

>  <r_i_glide_lipo>  (1181) 
-1.4515119369185201

>  <r_i_glide_metal>  (1181) 
-0

>  <r_i_glide_rewards>  (1181) 
-0.22806190909090801

>  <r_lp_Energy>  (1181) 
39.494191999999998

>  <r_lp_tautomer_probability>  (1181) 
0.999999999997365

>  <r_qp_ACxDN^.5/SA>  (1181) 
0.0093468000000000006

>  <r_qp_CIQPlogS>  (1181) 
-6.1630000000000003

>  <r_qp_EA(eV)>  (1181) 
0.69999999999999996

>  <r_qp_FISA>  (1181) 
101.58199999999999

>  <r_qp_FOSA>  (1181) 
229.89400000000001

>  <r_qp_IP(eV)>  (1181) 
8.9420000000000002

>  <r_qp_Jm>  (1181) 
0.0026044535722099999

>  <r_qp_PISA>  (1181) 
444.19299999999998

>  <r_qp_PSA>  (1181) 
88.715000000000003

>  <r_qp_PercentHumanOralAbsorption>  (1181) 
100

>  <r_qp_QPPCaco>  (1181) 
268.84199999999998

>  <r_qp_QPPMDCK>  (1181) 
132.30699999999999

>  <r_qp_QPlogBB>  (1181) 
-0.54500000000000004

>  <r_qp_QPlogHERG>  (1181) 
-7.4029999999999996

>  <r_qp_QPlogKhsa>  (1181) 
0.88200000000000001

>  <r_qp_QPlogKp>  (1181) 
-3.121

>  <r_qp_QPlogPC16>  (1181) 
16.087

>  <r_qp_QPlogPo/w>  (1181) 
4.883

>  <r_qp_QPlogPoct>  (1181) 
23.460000000000001

>  <r_qp_QPlogPw>  (1181) 
12.138999999999999

>  <r_qp_QPlogS>  (1181) 
-5.1310000000000002

>  <r_qp_QPpolrz>  (1181) 
52.536999999999999

>  <r_qp_SASA>  (1181) 
775.66899999999998

>  <r_qp_SAamideO>  (1181) 
0

>  <r_qp_SAfluorine>  (1181) 
0

>  <r_qp_WPSA>  (1181) 
0

>  <r_qp_accptHB>  (1181) 
7.25

>  <r_qp_dip^2/V>  (1181) 
0.028576600000000001

>  <r_qp_dipole>  (1181) 
6.5229999999999997

>  <r_qp_donorHB>  (1181) 
1

>  <r_qp_glob>  (1181) 
0.81294889999999997

>  <r_qp_mol_MW>  (1181) 
465.55099999999999

>  <r_qp_volume>  (1181) 
1488.8879999999999

>  <r_sd_BIOSOLVEIT.INFINISEE\_FTREES\_SIMILARITY>  (1181) 
0.91400000000000003

>  <r_sd_BIOSOLVEIT.LOGP>  (1181) 
3.8904200000000002

>  <r_sd_BIOSOLVEIT.MOLECULAR\_WEIGHT>  (1181) 
466.55799999999999

>  <r_sd_BIOSOLVEIT.TPSA>  (1181) 
83.730000000000004

>  <i_epik_Tot_Q>  (1181) 
1

>  <i_epik_Tot_abs_Q>  (1181) 
1

>  <i_f3d_flags>  (1181) 
0

>  <i_i_glide_confnum>  (1181) 
7

>  <i_i_glide_lignum>  (1181) 
1102

>  <i_i_glide_posenum>  (1181) 
8

>  <i_i_glide_rotatable_bonds>  (1181) 
9

>  <i_lp_mmshare_version>  (1181) 
65135

>  <i_m_ct_format>  (1181) 
2

>  <i_m_source_file_index>  (1181) 
2519

>  <i_qp_#NandO>  (1181) 
6

>  <i_qp_#acid>  (1181) 
0

>  <i_qp_#amide>  (1181) 
0

>  <i_qp_#amidine>  (1181) 
0

>  <i_qp_#amine>  (1181) 
1

>  <i_qp_#in34>  (1181) 
0

>  <i_qp_#in56>  (1181) 
24

>  <i_qp_#metab>  (1181) 
5

>  <i_qp_#nonHatm>  (1181) 
35

>  <i_qp_#noncon>  (1181) 
0

>  <i_qp_#ringatoms>  (1181) 
24

>  <i_qp_#rotor>  (1181) 
8

>  <i_qp_#rtvFG>  (1181) 
0

>  <i_qp_#stars>  (1181) 
0

>  <i_qp_CNS>  (1181) 
1

>  <i_qp_HumanOralAbsorption>  (1181) 
3

>  <i_qp_RuleOfFive>  (1181) 
0

>  <i_qp_RuleOfThree>  (1181) 
0

>  <i_sd_BIOSOLVEIT.INFINISEE\_RESULT\_RANK>  (1181) 
32720

>  <i_sd_version>  (1181) 
0

>  <b_lp_Chiralities_Consistent>  (1181) 
1

>  <b_sd_chiral_flag>  (1181) 
0

>  <canonical_id>  (1181) 
ATP-HTVS-BBB01994AF2B

>  <compound_code>  (1181) 
80578

>  <title>  (1181) 
rxn501c____EMOL5415347____EMOL36251210____EMOL32273941

>  <variant>  (1181) 
80578-1

>  <source_file>  (1181) 
运行/运行/ATP-VSW/ATP-VSW-DOCK_HTVS_1-002_lib.maegz

>  <canonical_smiles>  (1181) 
Cc1cc(-c2ccnc(NC(=O)c3ccccc3C[NH+](C)C)c2C(=O)c2ccccc2)ccc1O

>  <scaffold>  (1181) 
O=C(Nc1nccc(-c2ccccc2)c1C(=O)c1ccccc1)c1ccccc1

>  <molecular_formula>  (1181) 
C29H28N3O3+

$$$$
ATP-HTVS-BBE6E61B6745
     RDKit          3D

 57 60  0  0  0  0  0  0  0  0999 V2000
  198.8974  178.3463  152.0026 S   0  0  0  0  0  0  0  0  0  0  0  0
  199.8920  178.0234  153.4139 C   0  0  0  0  0  0  0  0  0  0  0  0
  199.3880  178.7132  154.5649 C   0  0  0  0  0  0  0  0  0  0  0  0
  200.1238  178.5515  155.7666 C   0  0  0  0  0  0  0  0  0  0  0  0
  201.2587  177.7245  155.8409 C   0  0  0  0  0  0  0  0  0  0  0  0
  201.7098  177.0414  154.6982 C   0  0  0  0  0  0  0  0  0  0  0  0
  201.0322  177.2046  153.4779 C   0  0  0  0  0  0  0  0  0  0  0  0
  198.1958  179.4851  154.2495 C   0  0  0  0  0  0  0  0  0  0  0  0
  197.6002  180.2872  155.2612 C   0  0  0  0  0  0  0  0  0  0  0  0
  197.1592  181.0114  156.1384 C   0  0  0  0  0  0  0  0  0  0  0  0
  196.5849  181.8130  157.2409 C   0  0  2  0  0  0  0  0  0  0  0  0
  195.1791  181.4376  157.2672 N   0  0  2  0  0  0  0  0  0  0  0  0
  196.7564  183.3378  157.0876 C   0  0  1  0  0  0  0  0  0  0  0  0
  196.1409  184.1473  158.2362 C   0  0  0  0  0  0  0  0  0  0  0  0
  196.9030  185.1829  158.8265 C   0  0  0  0  0  0  0  0  0  0  0  0
  196.3549  185.9510  159.8807 C   0  0  0  0  0  0  0  0  0  0  0  0
  197.0671  186.9704  160.4248 F   0  0  0  0  0  0  0  0  0  0  0  0
  195.0619  185.6703  160.3734 C   0  0  0  0  0  0  0  0  0  0  0  0
  194.3073  184.6422  159.7798 C   0  0  0  0  0  0  0  0  0  0  0  0
  194.8164  183.9100  158.7010 C   0  0  0  0  0  0  0  0  0  0  0  0
  197.8327  179.3786  152.9212 C   0  0  0  0  0  0  0  0  0  0  0  0
  196.6649  180.0300  152.2287 C   0  0  1  0  0  0  0  0  0  0  0  0
  197.0094  180.6400  150.9356 N   0  0  0  0  0  0  0  0  0  0  0  0
  197.5113  181.8931  150.7686 C   0  0  0  0  0  0  0  0  0  0  0  0
  197.4845  182.4667  149.6829 O   0  0  0  0  0  0  0  0  0  0  0  0
  198.1412  182.5955  151.9376 C   0  0  0  0  0  0  0  0  0  0  0  0
  197.7036  183.8906  152.3122 C   0  0  0  0  0  0  0  0  0  0  0  0
  198.3066  184.5399  153.4127 C   0  0  0  0  0  0  0  0  0  0  0  0
  197.9137  185.7925  153.7823 O   0  0  0  0  0  0  0  0  0  0  0  0
  199.3275  183.9034  154.1473 C   0  0  0  0  0  0  0  0  0  0  0  0
  199.7661  182.6212  153.7674 C   0  0  0  0  0  0  0  0  0  0  0  0
  199.2025  181.9934  152.6462 C   0  0  0  0  0  0  0  0  0  0  0  0
  196.6989  179.8310  149.7509 C   0  0  2  0  0  0  0  0  0  0  0  0
  195.1883  180.4169  157.3435 H   0  0  0  0  0  0  0  0  0  0  0  0
  194.6814  181.7400  156.4343 H   0  0  0  0  0  0  0  0  0  0  0  0
  199.7899  179.0546  156.6634 H   0  0  0  0  0  0  0  0  0  0  0  0
  201.7796  177.5950  156.7799 H   0  0  0  0  0  0  0  0  0  0  0  0
  202.5711  176.3918  154.7585 H   0  0  0  0  0  0  0  0  0  0  0  0
  201.3680  176.6839  152.5941 H   0  0  0  0  0  0  0  0  0  0  0  0
  197.0573  181.4696  158.1660 H   0  0  0  0  0  0  0  0  0  0  0  0
  197.8192  183.5561  157.0010 H   0  0  0  0  0  0  0  0  0  0  0  0
  196.3134  183.6528  156.1474 H   0  0  0  0  0  0  0  0  0  0  0  0
  197.8988  185.4227  158.4597 H   0  0  0  0  0  0  0  0  0  0  0  0
  194.6286  186.2486  161.1816 H   0  0  0  0  0  0  0  0  0  0  0  0
  193.3107  184.4140  160.1215 H   0  0  0  0  0  0  0  0  0  0  0  0
  194.1352  183.1946  158.2578 H   0  0  0  0  0  0  0  0  0  0  0  0
  195.8634  179.2963  152.0935 H   0  0  0  0  0  0  0  0  0  0  0  0
  196.2227  180.7902  152.8690 H   0  0  0  0  0  0  0  0  0  0  0  0
  196.9265  184.3841  151.7393 H   0  0  0  0  0  0  0  0  0  0  0  0
  197.1471  186.1009  153.3225 H   0  0  0  0  0  0  0  0  0  0  0  0
  199.7752  184.3878  155.0051 H   0  0  0  0  0  0  0  0  0  0  0  0
  200.5249  182.1067  154.3360 H   0  0  0  0  0  0  0  0  0  0  0  0
  199.5971  181.0340  152.3346 H   0  0  0  0  0  0  0  0  0  0  0  0
  195.8417  180.2217  149.2108 H   0  0  0  0  0  0  0  0  0  0  0  0
  196.4769  178.7938  149.9955 H   0  0  0  0  0  0  0  0  0  0  0  0
  197.5440  179.8187  149.0597 H   0  0  0  0  0  0  0  0  0  0  0  0
  194.7430  181.8799  158.0854 H   0  0  0  0  0  0  0  0  0  0  0  0
  1  2  1  0
  1 21  1  0
  2  3  1  0
  2  7  2  0
  3  4  2  0
  3  8  1  0
  4  5  1  0
  4 36  1  0
  5  6  2  0
  5 37  1  0
  6  7  1  0
  6 38  1  0
  7 39  1  0
  8  9  1  0
  8 21  2  0
  9 10  3  0
 10 11  1  0
 11 12  1  0
 11 13  1  0
 11 40  1  1
 12 34  1  1
 12 35  1  0
 12 57  1  0
 13 14  1  0
 13 41  1  6
 13 42  1  0
 14 15  1  0
 14 20  2  0
 15 16  2  0
 15 43  1  0
 16 17  1  0
 16 18  1  0
 18 19  2  0
 18 44  1  0
 19 20  1  0
 19 45  1  0
 20 46  1  0
 21 22  1  0
 22 23  1  0
 22 47  1  6
 22 48  1  0
 23 24  1  0
 23 33  1  0
 24 25  2  0
 24 26  1  0
 26 27  1  0
 26 32  2  0
 27 28  2  0
 27 49  1  0
 28 29  1  0
 28 30  1  0
 29 50  1  0
 30 31  2  0
 30 51  1  0
 31 32  1  0
 31 52  1  0
 32 53  1  0
 33 54  1  6
 33 55  1  0
 33 56  1  0
M  CHG  1  12   1
M  END
>  <s_epik_cmdline>  (1182) 
J2VwaWtfcHl0aG9uJywgJy1waCcsICc3LjAwMDAwMCcsICctcGh0JywgJzIuMDAwMDAwJywgJy1tcycsICcxNicsICctdG4nLCAnOCcsICctbWEnLCAnMjAwJywgJy1pbWFlJywgJzxpbmZpbGUubWFlPicsICctb21hZScsICc8b3V0ZmlsZS5tYWU+Jw==

>  <s_epik_input>  (1182) 
W2NIXTFbY0hdW2NIXWMoW09IXSlbY0hdYzFDKD1PKU4oW0NIM10pW0NIMl1jKHMyKWMoYyhjMjMpW2NIXVtjSF1bY0hdW2NIXTMpQyNDW0NASF0oW05IMl0pW0NIMl1jNFtjSF1jKEYpW2NIXVtjSF1bY0hdNA==

>  <s_i_glide_gridfile>  (1182) 
ATP-Grid

>  <s_lp_Force_Field>  (1182) 
OPLS_2005

>  <s_lp_Variant>  (1182) 
rxn503c____EMOL519605____EMOL49259969____EMOL313110234-3

>  <s_lp_label>  (1182) 
2644_sdstereoexpander_1_neutralizer_1_epik_2_stereoizer_1

>  <s_m_source_file>  (1182) 
ATP-VSW-LIGPREP-002-in.maegz

>  <s_sd_BIOSOLVEIT.INFINISEE\_QUERY\_NAME>  (1182) 
Ref-Lig

>  <s_sd_BIOSOLVEIT.INFINISEE\_QUERY\_SMILES>  (1182) 
S(c1nc2c(cc1C[NH2+]Cc3ccc(cc3)C[NH+](C)C)cccc2)Cc4ccccc4

>  <s_sd_BIOSOLVEIT.INFINISEE\_REACTION\_NAME>  (1182) 
rxn503c

>  <s_sd_BIOSOLVEIT.INFINISEE\_REAGENT1\_NAME>  (1182) 
EMOL519605

>  <s_sd_BIOSOLVEIT.INFINISEE\_REAGENT1\_SMILES>  (1182) 
O=C(O)c1cc(O)ccc1

>  <s_sd_BIOSOLVEIT.INFINISEE\_REAGENT2\_NAME>  (1182) 
EMOL49259969

>  <s_sd_BIOSOLVEIT.INFINISEE\_REAGENT2\_SMILES>  (1182) 
ClC=1c2c(SC1CNC)cccc2

>  <s_sd_BIOSOLVEIT.INFINISEE\_REAGENT3\_NAME>  (1182) 
EMOL313110234

>  <s_sd_BIOSOLVEIT.INFINISEE\_REAGENT3\_SMILES>  (1182) 
Fc1cc(ccc1)CC(N)C#C

>  <s_sd_BIOSOLVEIT.INFINISEE\_SPACE>  (1182) 
eXplore_7tr_2022-12

>  <s_vsw_compound_code>  (1182) 
84578

>  <s_vsw_variant>  (1182) 
84578-3

>  <r_epik_Charging_Adjusted_Penalty>  (1182) 
1.1645996003725401

>  <r_epik_Ionization_Penalty>  (1182) 
0.58430000000000004

>  <r_epik_Ionization_Penalty_Charging>  (1182) 
0.58030000000000004

>  <r_epik_Ionization_Penalty_Neutral>  (1182) 
0.0040000000000000001

>  <r_epik_State_Penalty>  (1182) 
0.58430000000000004

>  <r_i_docking_score>  (1182) 
-5.5865150516642901

>  <r_i_glide_ecoul>  (1182) 
-17.521375656127901

>  <r_i_glide_eff_state_penalty>  (1182) 
0.58430000000000004

>  <r_i_glide_einternal>  (1182) 
5.4815039634704599

>  <r_i_glide_emodel>  (1182) 
-71.606354787646794

>  <r_i_glide_energy>  (1182) 
-48.3552055358887

>  <r_i_glide_erotb>  (1182) 
0.666932710363489

>  <r_i_glide_esite>  (1182) 
-0.10000000000000001

>  <r_i_glide_evdw>  (1182) 
-30.8338298797607

>  <r_i_glide_gscore>  (1182) 
-6.1708150516642899

>  <r_i_glide_hbond>  (1182) 
-0.43977057409373099

>  <r_i_glide_ligand_efficiency>  (1182) 
-0.16928833489891801

>  <r_i_glide_ligand_efficiency_ln>  (1182) 
-1.24241202206326

>  <r_i_glide_ligand_efficiency_sa>  (1182) 
-0.54299814522324397

>  <r_i_glide_lipo>  (1182) 
-1.42153601586092

>  <r_i_glide_metal>  (1182) 
-0

>  <r_i_glide_rewards>  (1182) 
-0.70654332966589595

>  <r_lp_Energy>  (1182) 
25.847715999999998

>  <r_lp_tautomer_probability>  (1182) 
0.999999999997365

>  <r_qp_ACxDN^.5/SA>  (1182) 
0.0119582

>  <r_qp_CIQPlogS>  (1182) 
-6.6399999999999997

>  <r_qp_EA(eV)>  (1182) 
0.90800000000000003

>  <r_qp_FISA>  (1182) 
120.602

>  <r_qp_FOSA>  (1182) 
129.834

>  <r_qp_IP(eV)>  (1182) 
8.6769999999999996

>  <r_qp_Jm>  (1182) 
0.0052460086666585399

>  <r_qp_PISA>  (1182) 
378.09500000000003

>  <r_qp_PSA>  (1182) 
74.831000000000003

>  <r_qp_PercentHumanOralAbsorption>  (1182) 
94.573999999999998

>  <r_qp_QPPCaco>  (1182) 
177.47300000000001

>  <r_qp_QPPMDCK>  (1182) 
178.815

>  <r_qp_QPlogBB>  (1182) 
-0.53400000000000003

>  <r_qp_QPlogHERG>  (1182) 
-6.4050000000000002

>  <r_qp_QPlogKhsa>  (1182) 
0.82499999999999996

>  <r_qp_QPlogKp>  (1182) 
-3.609

>  <r_qp_QPlogPC16>  (1182) 
14.795

>  <r_qp_QPlogPo/w>  (1182) 
4.6749999999999998

>  <r_qp_QPlogPoct>  (1182) 
22.73

>  <r_qp_QPlogPw>  (1182) 
11.875

>  <r_qp_QPlogS>  (1182) 
-4.3330000000000002

>  <r_qp_QPpolrz>  (1182) 
45.380000000000003

>  <r_qp_SASA>  (1182) 
688

>  <r_qp_SAamideO>  (1182) 
0

>  <r_qp_SAfluorine>  (1182) 
33.500999999999998

>  <r_qp_WPSA>  (1182) 
59.469000000000001

>  <r_qp_accptHB>  (1182) 
4.75

>  <r_qp_dip^2/V>  (1182) 
0.017655799999999999

>  <r_qp_dipole>  (1182) 
4.867

>  <r_qp_donorHB>  (1182) 
3

>  <r_qp_glob>  (1182) 
0.85517430000000005

>  <r_qp_mol_MW>  (1182) 
458.54899999999998

>  <r_qp_volume>  (1182) 
1341.8900000000001

>  <r_sd_BIOSOLVEIT.INFINISEE\_FTREES\_SIMILARITY>  (1182) 
0.91000000000000003

>  <r_sd_BIOSOLVEIT.LOGP>  (1182) 
4.2229000000000001

>  <r_sd_BIOSOLVEIT.MOLECULAR\_WEIGHT>  (1182) 
459.56200000000001

>  <r_sd_BIOSOLVEIT.TPSA>  (1182) 
68.180000000000007

>  <i_epik_Tot_Q>  (1182) 
1

>  <i_epik_Tot_abs_Q>  (1182) 
1

>  <i_f3d_flags>  (1182) 
0

>  <i_i_glide_confnum>  (1182) 
8

>  <i_i_glide_lignum>  (1182) 
1235

>  <i_i_glide_posenum>  (1182) 
17

>  <i_i_glide_rotatable_bonds>  (1182) 
9

>  <i_lp_mmshare_version>  (1182) 
65135

>  <i_m_ct_format>  (1182) 
2

>  <i_m_source_file_index>  (1182) 
2644

>  <i_qp_#NandO>  (1182) 
4

>  <i_qp_#acid>  (1182) 
0

>  <i_qp_#amide>  (1182) 
0

>  <i_qp_#amidine>  (1182) 
0

>  <i_qp_#amine>  (1182) 
1

>  <i_qp_#in34>  (1182) 
0

>  <i_qp_#in56>  (1182) 
21

>  <i_qp_#metab>  (1182) 
7

>  <i_qp_#nonHatm>  (1182) 
33

>  <i_qp_#noncon>  (1182) 
0

>  <i_qp_#ringatoms>  (1182) 
21

>  <i_qp_#rotor>  (1182) 
9

>  <i_qp_#rtvFG>  (1182) 
0

>  <i_qp_#stars>  (1182) 
0

>  <i_qp_CNS>  (1182) 
0

>  <i_qp_HumanOralAbsorption>  (1182) 
3

>  <i_qp_RuleOfFive>  (1182) 
0

>  <i_qp_RuleOfThree>  (1182) 
1

>  <i_sd_BIOSOLVEIT.INFINISEE\_RESULT\_RANK>  (1182) 
45596

>  <i_sd_version>  (1182) 
0

>  <b_lp_Chiralities_Consistent>  (1182) 
1

>  <b_sd_chiral_flag>  (1182) 
0

>  <canonical_id>  (1182) 
ATP-HTVS-BBE6E61B6745

>  <compound_code>  (1182) 
84578

>  <title>  (1182) 
rxn503c____EMOL519605____EMOL49259969____EMOL313110234

>  <variant>  (1182) 
84578-3

>  <source_file>  (1182) 
运行/运行/ATP-VSW/ATP-VSW-DOCK_HTVS_1-002_lib.maegz

>  <canonical_smiles>  (1182) 
CN(Cc1sc2ccccc2c1C#C[C@H]([NH3+])Cc1cccc(F)c1)C(=O)c1cccc(O)c1

>  <scaffold>  (1182) 
O=C(NCc1sc2ccccc2c1C#CCCc1ccccc1)c1ccccc1

>  <molecular_formula>  (1182) 
C27H24FN2O2S+

$$$$
ATP-HTVS-BBF7556FA5C3
     RDKit          3D

 62 65  0  0  0  0  0  0  0  0999 V2000
  199.2732  182.3732  156.1940 N   0  0  0  0  0  0  0  0  0  0  0  0
  197.9761  182.0469  156.4069 C   0  0  0  0  0  0  0  0  0  0  0  0
  197.2778  181.4784  155.3405 N   0  0  0  0  0  0  0  0  0  0  0  0
  198.0389  180.6954  154.3827 C   0  0  1  0  0  0  0  0  0  0  0  0
  197.4418  180.6296  152.9933 C   0  0  0  0  0  0  0  0  0  0  0  0
  196.8452  181.7457  152.3325 C   0  0  0  0  0  0  0  0  0  0  0  0
  196.3827  181.5787  151.0098 C   0  0  0  0  0  0  0  0  0  0  0  0
  196.4953  180.3418  150.3494 C   0  0  0  0  0  0  0  0  0  0  0  0
  197.0893  179.2495  151.0025 C   0  0  0  0  0  0  0  0  0  0  0  0
  197.5598  179.4010  152.3167 C   0  0  0  0  0  0  0  0  0  0  0  0
  196.6980  183.1348  152.9623 C   0  0  1  0  0  0  0  0  0  0  0  0
  197.9763  183.8904  153.0138 N   0  0  1  0  0  0  0  0  0  0  0  0
  198.5616  184.1538  151.6753 C   0  0  2  0  0  0  0  0  0  0  0  0
  197.8395  185.1338  153.8046 C   0  0  2  0  0  0  0  0  0  0  0  0
  197.3436  182.3601  157.6191 C   0  0  0  0  0  0  0  0  0  0  0  0
  198.0457  182.9287  158.6269 N   0  0  0  0  0  0  0  0  0  0  0  0
  199.3350  183.2080  158.4522 C   0  0  0  0  0  0  0  0  0  0  0  0
  199.9691  182.9087  157.2241 C   0  0  0  0  0  0  0  0  0  0  0  0
  201.3553  183.1701  157.0835 C   0  0  0  0  0  0  0  0  0  0  0  0
  202.0973  183.7352  158.1439 C   0  0  0  0  0  0  0  0  0  0  0  0
  201.4442  184.0615  159.3497 C   0  0  0  0  0  0  0  0  0  0  0  0
  200.0698  183.7850  159.4989 C   0  0  0  0  0  0  0  0  0  0  0  0
  195.9534  182.2030  157.7634 N   0  0  0  0  0  0  0  0  0  0  0  0
  195.3362  182.2623  159.0676 C   0  0  1  0  0  0  0  0  0  0  0  0
  195.2700  183.6493  159.6909 C   0  0  0  0  0  0  0  0  0  0  0  0
  195.9688  184.7251  159.2781 C   0  0  0  0  0  0  0  0  0  0  0  0
  196.0209  186.0411  159.8938 C   0  0  0  0  0  0  0  0  0  0  0  0
  197.0784  186.9042  159.5214 C   0  0  0  0  0  0  0  0  0  0  0  0
  197.1528  188.2116  160.0329 C   0  0  0  0  0  0  0  0  0  0  0  0
  196.1722  188.6438  160.9454 C   0  0  0  0  0  0  0  0  0  0  0  0
  195.1449  187.7678  161.3796 C   0  0  0  0  0  0  0  0  0  0  0  0
  195.0856  186.4593  160.8618 C   0  0  0  0  0  0  0  0  0  0  0  0
  196.3689  181.1064  155.5775 H   0  0  0  0  0  0  0  0  0  0  0  0
  199.0529  181.0658  154.2331 H   0  0  0  0  0  0  0  0  0  0  0  0
  198.1574  179.6818  154.7900 H   0  0  0  0  0  0  0  0  0  0  0  0
  195.9411  182.4132  150.4874 H   0  0  0  0  0  0  0  0  0  0  0  0
  196.1305  180.2277  149.3397 H   0  0  0  0  0  0  0  0  0  0  0  0
  197.1920  178.2994  150.4980 H   0  0  0  0  0  0  0  0  0  0  0  0
  198.0425  178.5676  152.8079 H   0  0  0  0  0  0  0  0  0  0  0  0
  195.9769  183.7145  152.3750 H   0  0  0  0  0  0  0  0  0  0  0  0
  196.2814  183.0593  153.9611 H   0  0  0  0  0  0  0  0  0  0  0  0
  197.8597  184.7115  151.0522 H   0  0  0  0  0  0  0  0  0  0  0  0
  198.8053  183.2236  151.1592 H   0  0  0  0  0  0  0  0  0  0  0  0
  199.4850  184.7334  151.7490 H   0  0  0  0  0  0  0  0  0  0  0  0
  197.0937  185.7955  153.3628 H   0  0  0  0  0  0  0  0  0  0  0  0
  198.7841  185.6772  153.8608 H   0  0  0  0  0  0  0  0  0  0  0  0
  197.5287  184.9082  154.8249 H   0  0  0  0  0  0  0  0  0  0  0  0
  201.8576  182.9151  156.1642 H   0  0  0  0  0  0  0  0  0  0  0  0
  203.1607  183.8972  158.0455 H   0  0  0  0  0  0  0  0  0  0  0  0
  201.9900  184.5083  160.1701 H   0  0  0  0  0  0  0  0  0  0  0  0
  199.5619  184.0455  160.4124 H   0  0  0  0  0  0  0  0  0  0  0  0
  195.4474  181.6749  157.0722 H   0  0  0  0  0  0  0  0  0  0  0  0
  194.3261  181.8575  158.9901 H   0  0  0  0  0  0  0  0  0  0  0  0
  195.8797  181.5829  159.7249 H   0  0  0  0  0  0  0  0  0  0  0  0
  194.6123  183.6951  160.5334 H   0  0  0  0  0  0  0  0  0  0  0  0
  196.5777  184.6388  158.3943 H   0  0  0  0  0  0  0  0  0  0  0  0
  197.8283  186.5676  158.8270 H   0  0  0  0  0  0  0  0  0  0  0  0
  197.9429  188.8751  159.7143 H   0  0  0  0  0  0  0  0  0  0  0  0
  196.2090  189.6553  161.3284 H   0  0  0  0  0  0  0  0  0  0  0  0
  194.3876  188.1023  162.0678 H   0  0  0  0  0  0  0  0  0  0  0  0
  194.2888  185.8014  161.1736 H   0  0  0  0  0  0  0  0  0  0  0  0
  198.6348  183.3091  153.5148 H   0  0  0  0  0  0  0  0  0  0  0  0
  1  2  2  0
  1 18  1  0
  2  3  1  0
  2 15  1  0
  3  4  1  0
  3 33  1  0
  4  5  1  0
  4 34  1  6
  4 35  1  0
  5  6  1  0
  5 10  2  0
  6  7  2  0
  6 11  1  0
  7  8  1  0
  7 36  1  0
  8  9  2  0
  8 37  1  0
  9 10  1  0
  9 38  1  0
 10 39  1  0
 11 12  1  0
 11 40  1  6
 11 41  1  0
 12 13  1  0
 12 14  1  0
 12 62  1  1
 13 42  1  6
 13 43  1  0
 13 44  1  0
 14 45  1  6
 14 46  1  0
 14 47  1  0
 15 16  2  0
 15 23  1  0
 16 17  1  0
 17 18  1  0
 17 22  2  0
 18 19  2  0
 19 20  1  0
 19 48  1  0
 20 21  2  0
 20 49  1  0
 21 22  1  0
 21 50  1  0
 22 51  1  0
 23 24  1  0
 23 52  1  0
 24 25  1  0
 24 53  1  6
 24 54  1  0
 25 26  2  0
 25 55  1  0
 26 27  1  0
 26 56  1  0
 27 28  2  0
 27 32  1  0
 28 29  1  0
 28 57  1  0
 29 30  2  0
 29 58  1  0
 30 31  1  0
 30 59  1  0
 31 32  2  0
 31 60  1  0
 32 61  1  0
M  CHG  1  12   1
M  END
>  <s_epik_cmdline>  (1183) 
J2VwaWtfcHl0aG9uJywgJy1waCcsICc3LjAwMDAwMCcsICctcGh0JywgJzIuMDAwMDAwJywgJy1tcycsICcxNicsICctdG4nLCAnOCcsICctbWEnLCAnMjAwJywgJy1pbWFlJywgJzxpbmZpbGUubWFlPicsICctb21hZScsICc8b3V0ZmlsZS5tYWU+Jw==

>  <s_epik_input>  (1183) 
W2NIXTFbY0hdW2NIXVtjSF1jKFtDSDJdTihbQ0gzXSlbQ0gzXSljMVtDSDJdW05IXWMobmMoYzIzKVtjSF1bY0hdW2NIXVtjSF0zKWMobjIpW05IXVtDSDJdL1tDSF09W0NIXS9jNFtjSF1bY0hdW2NIXVtjSF1bY0hdNA==

>  <s_i_glide_gridfile>  (1183) 
ATP-Grid

>  <s_lp_Force_Field>  (1183) 
OPLS_2005

>  <s_lp_Variant>  (1183) 
m_282030aaa____21923044____23157418____21973156-1

>  <s_lp_label>  (1183) 
1394_sdstereoexpander_1_neutralizer_1_epik_1_stereoizer_1

>  <s_m_source_file>  (1183) 
ATP-VSW-LIGPREP-003-in.maegz

>  <s_sd_BIOSOLVEIT.INFINISEE\_QUERY\_NAME>  (1183) 
Ref-Lig

>  <s_sd_BIOSOLVEIT.INFINISEE\_QUERY\_SMILES>  (1183) 
S(c1nc2c(cc1C[NH2+]Cc3ccc(cc3)C[NH+](C)C)cccc2)Cc4ccccc4

>  <s_sd_BIOSOLVEIT.INFINISEE\_REACTION\_NAME>  (1183) 
m_282030aaa

>  <s_sd_BIOSOLVEIT.INFINISEE\_REAGENT1\_SMILES>  (1183) 
[R1*]NCC=Cc1ccccc1

>  <s_sd_BIOSOLVEIT.INFINISEE\_REAGENT2\_SMILES>  (1183) 
[R1*]c1nc2c(nc1[R2*])cccc2

>  <s_sd_BIOSOLVEIT.INFINISEE\_REAGENT3\_SMILES>  (1183) 
[R2*]NCc1c(cccc1)CN(C)C

>  <s_sd_BIOSOLVEIT.INFINISEE\_SPACE>  (1183) 
REALSpace_44bn_2023-08

>  <s_vsw_compound_code>  (1183) 
44579

>  <s_vsw_variant>  (1183) 
44579-1

>  <r_epik_Charging_Adjusted_Penalty>  (1183) 
0.076612674508475406

>  <r_epik_Ionization_Penalty>  (1183) 
0.038699999999999998

>  <r_epik_Ionization_Penalty_Charging>  (1183) 
0.038300000000000001

>  <r_epik_Ionization_Penalty_Neutral>  (1183) 
0.00040000000000000002

>  <r_epik_State_Penalty>  (1183) 
0.038300000000000001

>  <r_i_docking_score>  (1183) 
-4.3475111152867099

>  <r_i_glide_ecoul>  (1183) 
-3.61328125

>  <r_i_glide_eff_state_penalty>  (1183) 
0.038300000000000001

>  <r_i_glide_einternal>  (1183) 
5.3186764717102104

>  <r_i_glide_emodel>  (1183) 
-49.250265766081299

>  <r_i_glide_energy>  (1183) 
-37.609745025634801

>  <r_i_glide_erotb>  (1183) 
0.77006745357267903

>  <r_i_glide_esite>  (1183) 
-0.13261587179342399

>  <r_i_glide_evdw>  (1183) 
-33.996463775634801

>  <r_i_glide_gscore>  (1183) 
-4.3858111152867103

>  <r_i_glide_hbond>  (1183) 
0

>  <r_i_glide_ligand_efficiency>  (1183) 
-0.13585972235270999

>  <r_i_glide_ligand_efficiency_ln>  (1183) 
-0.97352624738984295

>  <r_i_glide_ligand_efficiency_sa>  (1183) 
-0.431327731867308

>  <r_i_glide_lipo>  (1183) 
-2.2670877753296801

>  <r_i_glide_metal>  (1183) 
-0

>  <r_i_glide_rewards>  (1183) 
-0.51435954545454399

>  <r_lp_Energy>  (1183) 
22.910207

>  <r_qp_ACxDN^.5/SA>  (1183) 
0.0109497

>  <r_qp_CIQPlogS>  (1183) 
-6.0170000000000003

>  <r_qp_EA(eV)>  (1183) 
0.77700000000000002

>  <r_qp_FISA>  (1183) 
42.802

>  <r_qp_FOSA>  (1183) 
190.51400000000001

>  <r_qp_IP(eV)>  (1183) 
8.3130000000000006

>  <r_qp_Jm>  (1183) 
1.3482429207955

>  <r_qp_PISA>  (1183) 
412.459

>  <r_qp_PSA>  (1183) 
42.912999999999997

>  <r_qp_PercentHumanOralAbsorption>  (1183) 
100

>  <r_qp_QPPCaco>  (1183) 
970.30499999999995

>  <r_qp_QPPMDCK>  (1183) 
529.75999999999999

>  <r_qp_QPlogBB>  (1183) 
0.057000000000000002

>  <r_qp_QPlogHERG>  (1183) 
-6.0419999999999998

>  <r_qp_QPlogKhsa>  (1183) 
0.75

>  <r_qp_QPlogKp>  (1183) 
-2.0539999999999998

>  <r_qp_QPlogPC16>  (1183) 
13.875999999999999

>  <r_qp_QPlogPo/w>  (1183) 
4.8250000000000002

>  <r_qp_QPlogPoct>  (1183) 
20.152999999999999

>  <r_qp_QPlogPw>  (1183) 
10.239000000000001

>  <r_qp_QPlogS>  (1183) 
-3.4430000000000001

>  <r_qp_QPpolrz>  (1183) 
43.654000000000003

>  <r_qp_SASA>  (1183) 
645.774

>  <r_qp_SAamideO>  (1183) 
0

>  <r_qp_SAfluorine>  (1183) 
0

>  <r_qp_WPSA>  (1183) 
0

>  <r_qp_accptHB>  (1183) 
5

>  <r_qp_dip^2/V>  (1183) 
0.0084388999999999992

>  <r_qp_dipole>  (1183) 
3.2999999999999998

>  <r_qp_donorHB>  (1183) 
2

>  <r_qp_glob>  (1183) 
0.88770389999999999

>  <r_qp_mol_MW>  (1183) 
423.56

>  <r_qp_volume>  (1183) 
1290.5530000000001

>  <r_sd_BIOSOLVEIT.INFINISEE\_FTREES\_SIMILARITY>  (1183) 
0.90900000000000003

>  <r_sd_BIOSOLVEIT.LOGP>  (1183) 
4.0117000000000003

>  <r_sd_BIOSOLVEIT.MOLECULAR\_WEIGHT>  (1183) 
424.56900000000002

>  <r_sd_BIOSOLVEIT.TPSA>  (1183) 
54.280000000000001

>  <i_epik_Tot_Q>  (1183) 
1

>  <i_epik_Tot_abs_Q>  (1183) 
1

>  <i_f3d_flags>  (1183) 
0

>  <i_i_glide_confnum>  (1183) 
9

>  <i_i_glide_lignum>  (1183) 
543

>  <i_i_glide_posenum>  (1183) 
19

>  <i_i_glide_rotatable_bonds>  (1183) 
9

>  <i_lp_mmshare_version>  (1183) 
65135

>  <i_m_ct_format>  (1183) 
2

>  <i_m_source_file_index>  (1183) 
1394

>  <i_qp_#NandO>  (1183) 
5

>  <i_qp_#acid>  (1183) 
0

>  <i_qp_#amide>  (1183) 
0

>  <i_qp_#amidine>  (1183) 
0

>  <i_qp_#amine>  (1183) 
1

>  <i_qp_#in34>  (1183) 
0

>  <i_qp_#in56>  (1183) 
22

>  <i_qp_#metab>  (1183) 
4

>  <i_qp_#nonHatm>  (1183) 
32

>  <i_qp_#noncon>  (1183) 
0

>  <i_qp_#ringatoms>  (1183) 
22

>  <i_qp_#rotor>  (1183) 
9

>  <i_qp_#rtvFG>  (1183) 
0

>  <i_qp_#stars>  (1183) 
0

>  <i_qp_CNS>  (1183) 
1

>  <i_qp_HumanOralAbsorption>  (1183) 
3

>  <i_qp_RuleOfFive>  (1183) 
0

>  <i_qp_RuleOfThree>  (1183) 
0

>  <i_sd_BIOSOLVEIT.INFINISEE\_REAGENT1\_NAME>  (1183) 
21923044

>  <i_sd_BIOSOLVEIT.INFINISEE\_REAGENT2\_NAME>  (1183) 
23157418

>  <i_sd_BIOSOLVEIT.INFINISEE\_REAGENT3\_NAME>  (1183) 
21973156

>  <i_sd_BIOSOLVEIT.INFINISEE\_RESULT\_RANK>  (1183) 
52272

>  <i_sd_version>  (1183) 
0

>  <b_lp_Chiralities_Consistent>  (1183) 
1

>  <b_sd_chiral_flag>  (1183) 
0

>  <canonical_id>  (1183) 
ATP-HTVS-BBF7556FA5C3

>  <compound_code>  (1183) 
44579

>  <title>  (1183) 
m_282030aaa____21923044____23157418____21973156

>  <variant>  (1183) 
44579-1

>  <source_file>  (1183) 
运行/运行/ATP-VSW/ATP-VSW-DOCK_HTVS_1-003_lib/ATP-VSW-DOCK_HTVS_1-003_lib.mae

>  <canonical_smiles>  (1183) 
C[NH+](C)Cc1ccccc1CNc1nc2ccccc2nc1NC/C=C/c1ccccc1

>  <scaffold>  (1183) 
C(=Cc1ccccc1)CNc1nc2ccccc2nc1NCc1ccccc1

>  <molecular_formula>  (1183) 
C27H30N5+

$$$$
ATP-HTVS-BC2B8699145A
     RDKit          3D

 60 63  0  0  0  0  0  0  0  0999 V2000
  201.0793  179.7560  153.0554 O   0  0  0  0  0  0  0  0  0  0  0  0
  199.8901  179.5607  153.3085 C   0  0  0  0  0  0  0  0  0  0  0  0
  199.4542  178.5055  154.0071 N   0  0  0  0  0  0  0  0  0  0  0  0
  200.2721  177.6394  154.7738 C   0  0  0  0  0  0  0  0  0  0  0  0
  200.5698  177.9705  156.1248 C   0  0  0  0  0  0  0  0  0  0  0  0
  200.0255  179.1111  156.7602 N   0  0  0  0  0  0  0  0  0  0  0  0
  200.5613  180.4545  156.5230 C   0  0  1  0  0  0  0  0  0  0  0  0
  199.6060  181.5775  156.9339 C   0  0  0  0  0  0  0  0  0  0  0  0
  198.2046  181.3829  156.8183 C   0  0  0  0  0  0  0  0  0  0  0  0
  197.3312  182.4580  157.1063 C   0  0  0  0  0  0  0  0  0  0  0  0
  197.8458  183.6825  157.6015 C   0  0  0  0  0  0  0  0  0  0  0  0
  199.2349  183.8422  157.7920 C   0  0  0  0  0  0  0  0  0  0  0  0
  200.1196  182.7976  157.4346 C   0  0  0  0  0  0  0  0  0  0  0  0
  195.8187  182.2768  156.9612 C   0  0  1  0  0  0  0  0  0  0  0  0
  195.2200  181.4624  158.0384 N   0  0  2  0  0  0  0  0  0  0  0  0
  193.7468  181.4367  158.0077 C   0  0  2  0  0  0  0  0  0  0  0  0
  195.7318  181.8022  159.3673 C   0  0  2  0  0  0  0  0  0  0  0  0
  201.3592  177.0724  156.8732 C   0  0  0  0  0  0  0  0  0  0  0  0
  201.7687  175.8951  156.3293 N   0  0  0  0  0  0  0  0  0  0  0  0
  201.4548  175.5105  155.0779 C   0  0  0  0  0  0  0  0  0  0  0  0
  200.6910  176.3748  154.2526 C   0  0  0  0  0  0  0  0  0  0  0  0
  200.3308  175.9210  152.9586 C   0  0  0  0  0  0  0  0  0  0  0  0
  200.7362  174.6449  152.5005 C   0  0  0  0  0  0  0  0  0  0  0  0
  201.5237  173.8130  153.3173 C   0  0  0  0  0  0  0  0  0  0  0  0
  201.8796  174.2447  154.6084 C   0  0  0  0  0  0  0  0  0  0  0  0
  198.8215  180.5195  152.8457 C   0  0  0  0  0  0  0  0  0  0  0  0
  198.9958  181.2661  151.6501 C   0  0  0  0  0  0  0  0  0  0  0  0
  198.0278  182.2224  151.2453 C   0  0  0  0  0  0  0  0  0  0  0  0
  196.9065  182.4736  152.0834 C   0  0  0  0  0  0  0  0  0  0  0  0
  195.9636  183.3981  151.7356 O   0  0  0  0  0  0  0  0  0  0  0  0
  196.7540  181.7342  153.2757 C   0  0  0  0  0  0  0  0  0  0  0  0
  197.6724  180.7326  153.6691 C   0  0  0  0  0  0  0  0  0  0  0  0
  198.4569  178.3734  154.0980 H   0  0  0  0  0  0  0  0  0  0  0  0
  199.7510  178.9644  157.7195 H   0  0  0  0  0  0  0  0  0  0  0  0
  201.5169  180.5719  157.0225 H   0  0  0  0  0  0  0  0  0  0  0  0
  200.8092  180.6327  155.4715 H   0  0  0  0  0  0  0  0  0  0  0  0
  197.8141  180.4252  156.5157 H   0  0  0  0  0  0  0  0  0  0  0  0
  197.1718  184.4764  157.8969 H   0  0  0  0  0  0  0  0  0  0  0  0
  199.6102  184.7533  158.2351 H   0  0  0  0  0  0  0  0  0  0  0  0
  201.1881  182.9467  157.5701 H   0  0  0  0  0  0  0  0  0  0  0  0
  195.3522  183.2654  156.9414 H   0  0  0  0  0  0  0  0  0  0  0  0
  195.5807  181.7908  156.0152 H   0  0  0  0  0  0  0  0  0  0  0  0
  193.3282  182.4384  158.1421 H   0  0  0  0  0  0  0  0  0  0  0  0
  193.3635  180.7972  158.8024 H   0  0  0  0  0  0  0  0  0  0  0  0
  193.3665  181.0365  157.0673 H   0  0  0  0  0  0  0  0  0  0  0  0
  195.4787  182.8329  159.6436 H   0  0  0  0  0  0  0  0  0  0  0  0
  196.8134  181.6951  159.3751 H   0  0  0  0  0  0  0  0  0  0  0  0
  195.3414  181.1073  160.1109 H   0  0  0  0  0  0  0  0  0  0  0  0
  201.6712  177.2230  157.9016 H   0  0  0  0  0  0  0  0  0  0  0  0
  199.7027  176.5227  152.3163 H   0  0  0  0  0  0  0  0  0  0  0  0
  200.4354  174.2894  151.5224 H   0  0  0  0  0  0  0  0  0  0  0  0
  201.8480  172.8418  152.9668 H   0  0  0  0  0  0  0  0  0  0  0  0
  202.4812  173.5841  155.2182 H   0  0  0  0  0  0  0  0  0  0  0  0
  199.8755  181.1048  151.0310 H   0  0  0  0  0  0  0  0  0  0  0  0
  198.1300  182.7520  150.3182 H   0  0  0  0  0  0  0  0  0  0  0  0
  195.2892  183.4992  152.4199 H   0  0  0  0  0  0  0  0  0  0  0  0
  195.9029  181.9642  153.9074 H   0  0  0  0  0  0  0  0  0  0  0  0
  197.5178  180.1969  154.5829 H   0  0  0  0  0  0  0  0  0  0  0  0
  195.5227  180.4902  157.8804 H   0  0  0  0  0  0  0  0  0  0  0  0
  202.3249  175.2551  156.8971 H   0  0  0  0  0  0  0  0  0  0  0  0
  1  2  2  0
  2  3  1  0
  2 26  1  0
  3  4  1  0
  3 33  1  0
  4  5  2  0
  4 21  1  0
  5  6  1  0
  5 18  1  0
  6  7  1  0
  6 34  1  0
  7  8  1  0
  7 35  1  1
  7 36  1  0
  8  9  2  0
  8 13  1  0
  9 10  1  0
  9 37  1  0
 10 11  2  0
 10 14  1  0
 11 12  1  0
 11 38  1  0
 12 13  2  0
 12 39  1  0
 13 40  1  0
 14 15  1  0
 14 41  1  6
 14 42  1  0
 15 16  1  0
 15 17  1  0
 15 59  1  6
 16 43  1  1
 16 44  1  0
 16 45  1  0
 17 46  1  1
 17 47  1  0
 17 48  1  0
 18 19  2  0
 18 49  1  0
 19 20  1  0
 19 60  1  0
 20 21  1  0
 20 25  2  0
 21 22  2  0
 22 23  1  0
 22 50  1  0
 23 24  2  0
 23 51  1  0
 24 25  1  0
 24 52  1  0
 25 53  1  0
 26 27  1  0
 26 32  2  0
 27 28  2  0
 27 54  1  0
 28 29  1  0
 28 55  1  0
 29 30  1  0
 29 31  2  0
 30 56  1  0
 31 32  1  0
 31 57  1  0
 32 58  1  0
M  CHG  2  15   1  19   1
M  END
>  <s_epik_cmdline>  (1184) 
J2VwaWtfcHl0aG9uJywgJy1waCcsICc3LjAwMDAwMCcsICctcGh0JywgJzIuMDAwMDAwJywgJy1tcycsICcxNicsICctdG4nLCAnOCcsICctbWEnLCAnMjAwJywgJy1pbWFlJywgJzxpbmZpbGUubWFlPicsICctb21hZScsICc8b3V0ZmlsZS5tYWU+Jw==

>  <s_epik_input>  (1184) 
W2NIXTFbY0hdYyhbT0hdKVtjSF1bY0hdYzFDKD1PKVtOSF1jKGMoYzIzKVtjSF1bY0hdW2NIXVtjSF0zKWMoW2NIXW4yKVtOSF1bQ0gyXWM0W2NIXWMoW2NIXVtjSF1bY0hdNClbQ0gyXU4oW0NIM10pW0NIM10=

>  <s_i_glide_gridfile>  (1184) 
ATP-Grid

>  <s_lp_Force_Field>  (1184) 
OPLS_2005

>  <s_lp_Variant>  (1184) 
rxn502b____EMOL490868____EMOL13728749____EMOL2873214-3

>  <s_lp_label>  (1184) 
2206_sdstereoexpander_1_neutralizer_1_epik_3_stereoizer_1

>  <s_m_source_file>  (1184) 
ATP-VSW-LIGPREP-001-in.maegz

>  <s_sd_BIOSOLVEIT.INFINISEE\_QUERY\_NAME>  (1184) 
Ref-Lig

>  <s_sd_BIOSOLVEIT.INFINISEE\_QUERY\_SMILES>  (1184) 
S(c1nc2c(cc1C[NH2+]Cc3ccc(cc3)C[NH+](C)C)cccc2)Cc4ccccc4

>  <s_sd_BIOSOLVEIT.INFINISEE\_REACTION\_NAME>  (1184) 
rxn502b

>  <s_sd_BIOSOLVEIT.INFINISEE\_REAGENT1\_NAME>  (1184) 
EMOL490868

>  <s_sd_BIOSOLVEIT.INFINISEE\_REAGENT1\_SMILES>  (1184) 
O=C(O)c1ccc(O)cc1

>  <s_sd_BIOSOLVEIT.INFINISEE\_REAGENT2\_NAME>  (1184) 
EMOL13728749

>  <s_sd_BIOSOLVEIT.INFINISEE\_REAGENT2\_SMILES>  (1184) 
Brc1c(N)c2c(nc1)cccc2

>  <s_sd_BIOSOLVEIT.INFINISEE\_REAGENT3\_NAME>  (1184) 
EMOL2873214

>  <s_sd_BIOSOLVEIT.INFINISEE\_REAGENT3\_SMILES>  (1184) 
N(Cc1cc(ccc1)CN)(C)C

>  <s_sd_BIOSOLVEIT.INFINISEE\_SPACE>  (1184) 
eXplore_7tr_2022-12

>  <s_vsw_compound_code>  (1184) 
70561

>  <s_vsw_variant>  (1184) 
70561-3

>  <r_epik_Charging_Adjusted_Penalty>  (1184) 
3.3599237499067001

>  <r_epik_Ionization_Penalty>  (1184) 
1.7003999999999999

>  <r_epik_Ionization_Penalty_Charging>  (1184) 
1.6720999999999999

>  <r_epik_Ionization_Penalty_Neutral>  (1184) 
0.028299999999999999

>  <r_epik_State_Penalty>  (1184) 
1.6878

>  <r_i_docking_score>  (1184) 
-4.37742163323633

>  <r_i_glide_ecoul>  (1184) 
-23.041812896728501

>  <r_i_glide_eff_state_penalty>  (1184) 
1.6878

>  <r_i_glide_einternal>  (1184) 
11.0421285629272

>  <r_i_glide_emodel>  (1184) 
-72.5943915871988

>  <r_i_glide_energy>  (1184) 
-47.866481781005902

>  <r_i_glide_erotb>  (1184) 
0.75721702601886398

>  <r_i_glide_esite>  (1184) 
-0.16541625598548601

>  <r_i_glide_evdw>  (1184) 
-24.824668884277301

>  <r_i_glide_gscore>  (1184) 
-6.0652216332363302

>  <r_i_glide_hbond>  (1184) 
-0.282680306976208

>  <r_i_glide_ligand_efficiency>  (1184) 
-0.13679442603863501

>  <r_i_glide_ligand_efficiency_ln>  (1184) 
-0.98022402768868899

>  <r_i_glide_ligand_efficiency_sa>  (1184) 
-0.434295231092514

>  <r_i_glide_lipo>  (1184) 
-0.73951480847945095

>  <r_i_glide_metal>  (1184) 
-0

>  <r_i_glide_rewards>  (1184) 
-0.93732190909090796

>  <r_lp_Energy>  (1184) 
42.854104

>  <r_lp_tautomer_probability>  (1184) 
0.999999999997365

>  <r_qp_ACxDN^.5/SA>  (1184) 
0.0179816

>  <r_qp_CIQPlogS>  (1184) 
-5.1429999999999998

>  <r_qp_EA(eV)>  (1184) 
0.78900000000000003

>  <r_qp_FISA>  (1184) 
109.175

>  <r_qp_FOSA>  (1184) 
206.428

>  <r_qp_IP(eV)>  (1184) 
8.1159999999999997

>  <r_qp_Jm>  (1184) 
0.026706146420117802

>  <r_qp_PISA>  (1184) 
382.74299999999999

>  <r_qp_PSA>  (1184) 
77.096999999999994

>  <r_qp_PercentHumanOralAbsorption>  (1184) 
89.426000000000002

>  <r_qp_QPPCaco>  (1184) 
227.767

>  <r_qp_QPPMDCK>  (1184) 
110.59999999999999

>  <r_qp_QPlogBB>  (1184) 
-0.56399999999999995

>  <r_qp_QPlogHERG>  (1184) 
-6.7539999999999996

>  <r_qp_QPlogKhsa>  (1184) 
0.40799999999999997

>  <r_qp_QPlogKp>  (1184) 
-3.4780000000000002

>  <r_qp_QPlogPC16>  (1184) 
14.638

>  <r_qp_QPlogPo/w>  (1184) 
3.4649999999999999

>  <r_qp_QPlogPoct>  (1184) 
23.899999999999999

>  <r_qp_QPlogPw>  (1184) 
14.516

>  <r_qp_QPlogS>  (1184) 
-3.7250000000000001

>  <r_qp_QPpolrz>  (1184) 
45.344000000000001

>  <r_qp_SASA>  (1184) 
698.346

>  <r_qp_SAamideO>  (1184) 
0

>  <r_qp_SAfluorine>  (1184) 
0

>  <r_qp_WPSA>  (1184) 
0

>  <r_qp_accptHB>  (1184) 
7.25

>  <r_qp_dip^2/V>  (1184) 
0.034733

>  <r_qp_dipole>  (1184) 
6.7809999999999997

>  <r_qp_donorHB>  (1184) 
3

>  <r_qp_glob>  (1184) 
0.83493289999999998

>  <r_qp_mol_MW>  (1184) 
426.517

>  <r_qp_volume>  (1184) 
1323.8409999999999

>  <r_sd_BIOSOLVEIT.INFINISEE\_FTREES\_SIMILARITY>  (1184) 
0.93100000000000005

>  <r_sd_BIOSOLVEIT.LOGP>  (1184) 
3.4493

>  <r_sd_BIOSOLVEIT.MOLECULAR\_WEIGHT>  (1184) 
427.52499999999998

>  <r_sd_BIOSOLVEIT.TPSA>  (1184) 
78.689999999999998

>  <i_epik_Tot_Q>  (1184) 
2

>  <i_epik_Tot_abs_Q>  (1184) 
2

>  <i_f3d_flags>  (1184) 
0

>  <i_i_glide_confnum>  (1184) 
8

>  <i_i_glide_lignum>  (1184) 
733

>  <i_i_glide_posenum>  (1184) 
13

>  <i_i_glide_rotatable_bonds>  (1184) 
9

>  <i_lp_mmshare_version>  (1184) 
65135

>  <i_m_ct_format>  (1184) 
2

>  <i_m_source_file_index>  (1184) 
2206

>  <i_qp_#NandO>  (1184) 
6

>  <i_qp_#acid>  (1184) 
0

>  <i_qp_#amide>  (1184) 
0

>  <i_qp_#amidine>  (1184) 
0

>  <i_qp_#amine>  (1184) 
1

>  <i_qp_#in34>  (1184) 
0

>  <i_qp_#in56>  (1184) 
22

>  <i_qp_#metab>  (1184) 
7

>  <i_qp_#nonHatm>  (1184) 
32

>  <i_qp_#noncon>  (1184) 
0

>  <i_qp_#ringatoms>  (1184) 
22

>  <i_qp_#rotor>  (1184) 
8

>  <i_qp_#rtvFG>  (1184) 
0

>  <i_qp_#stars>  (1184) 
0

>  <i_qp_CNS>  (1184) 
0

>  <i_qp_HumanOralAbsorption>  (1184) 
3

>  <i_qp_RuleOfFive>  (1184) 
0

>  <i_qp_RuleOfThree>  (1184) 
1

>  <i_sd_BIOSOLVEIT.INFINISEE\_RESULT\_RANK>  (1184) 
4184

>  <i_sd_version>  (1184) 
0

>  <b_lp_Chiralities_Consistent>  (1184) 
1

>  <b_sd_chiral_flag>  (1184) 
0

>  <canonical_id>  (1184) 
ATP-HTVS-BC2B8699145A

>  <compound_code>  (1184) 
70561

>  <title>  (1184) 
rxn502b____EMOL490868____EMOL13728749____EMOL2873214

>  <variant>  (1184) 
70561-3

>  <source_file>  (1184) 
运行/运行/ATP-VSW/ATP-VSW-DOCK_HTVS_1-001_lib/ATP-VSW-DOCK_HTVS_1-001_lib

>  <canonical_smiles>  (1184) 
C[NH+](C)Cc1cccc(CNc2c[nH+]c3ccccc3c2NC(=O)c2ccc(O)cc2)c1

>  <scaffold>  (1184) 
O=C(Nc1c(NCc2ccccc2)c[nH+]c2ccccc12)c1ccccc1

>  <molecular_formula>  (1184) 
C26H28N4O2+2

$$$$
ATP-HTVS-BCAE8AB499DF
     RDKit          3D

 56 58  0  0  0  0  0  0  0  0999 V2000
  194.4350  186.4694  160.9874 Cl  0  0  0  0  0  0  0  0  0  0  0  0
  195.0865  185.2612  159.9363 C   0  0  0  0  0  0  0  0  0  0  0  0
  196.4506  185.2971  159.5781 C   0  0  0  0  0  0  0  0  0  0  0  0
  196.9828  184.3036  158.7245 C   0  0  0  0  0  0  0  0  0  0  0  0
  198.3601  184.3526  158.3815 N   0  0  0  0  0  0  0  0  0  0  0  0
  198.8585  185.2213  157.4931 C   0  0  0  0  0  0  0  0  0  0  0  0
  199.5826  186.1689  157.8385 O   0  0  0  0  0  0  0  0  0  0  0  0
  198.6158  184.9326  156.0523 C   0  0  0  0  0  0  0  0  0  0  0  0
  199.9499  185.1697  154.9506 S   0  0  0  0  0  0  0  0  0  0  0  0
  199.0257  184.5427  153.6126 C   0  0  0  0  0  0  0  0  0  0  0  0
  197.7576  184.1904  153.9963 C   0  0  0  0  0  0  0  0  0  0  0  0
  196.7514  183.6262  153.1857 N   0  0  0  0  0  0  0  0  0  0  0  0
  196.9871  182.3681  152.4737 C   0  0  1  0  0  0  0  0  0  0  0  0
  197.6251  181.2397  153.2792 C   0  0  0  0  0  0  0  0  0  0  0  0
  198.8387  180.6645  152.8510 C   0  0  0  0  0  0  0  0  0  0  0  0
  199.4403  179.6296  153.5973 C   0  0  0  0  0  0  0  0  0  0  0  0
  198.8348  179.1621  154.7858 C   0  0  0  0  0  0  0  0  0  0  0  0
  197.6061  179.7160  155.2052 C   0  0  0  0  0  0  0  0  0  0  0  0
  196.9962  180.7329  154.4397 C   0  0  0  0  0  0  0  0  0  0  0  0
  199.5031  178.0725  155.6096 C   0  0  1  0  0  0  0  0  0  0  0  0
  199.9451  178.5511  156.9418 N   0  0  2  0  0  0  0  0  0  0  0  0
  200.8819  179.7036  156.8788 C   0  0  2  0  0  0  0  0  0  0  0  0
  200.4874  177.4561  157.7743 C   0  0  2  0  0  0  0  0  0  0  0  0
  197.4941  184.4453  155.4000 C   0  0  0  0  0  0  0  0  0  0  0  0
  199.2769  183.5420  159.1913 C   0  0  2  0  0  0  0  0  0  0  0  0
  196.1556  183.2638  158.2516 C   0  0  0  0  0  0  0  0  0  0  0  0
  194.7852  183.2565  158.5862 C   0  0  0  0  0  0  0  0  0  0  0  0
  194.2540  184.2481  159.4296 C   0  0  0  0  0  0  0  0  0  0  0  0
  196.6797  182.1580  157.3684 C   0  0  2  0  0  0  0  0  0  0  0  0
  197.0797  186.0794  159.9857 H   0  0  0  0  0  0  0  0  0  0  0  0
  199.4601  184.4797  152.6207 H   0  0  0  0  0  0  0  0  0  0  0  0
  195.7900  183.7231  153.4991 H   0  0  0  0  0  0  0  0  0  0  0  0
  196.0237  182.0160  152.1157 H   0  0  0  0  0  0  0  0  0  0  0  0
  197.5965  182.5814  151.6023 H   0  0  0  0  0  0  0  0  0  0  0  0
  199.3102  181.0143  151.9444 H   0  0  0  0  0  0  0  0  0  0  0  0
  200.3736  179.2059  153.2531 H   0  0  0  0  0  0  0  0  0  0  0  0
  197.1463  179.3731  156.1286 H   0  0  0  0  0  0  0  0  0  0  0  0
  196.0458  181.1495  154.7419 H   0  0  0  0  0  0  0  0  0  0  0  0
  198.7867  177.2581  155.7415 H   0  0  0  0  0  0  0  0  0  0  0  0
  200.3529  177.6609  155.0658 H   0  0  0  0  0  0  0  0  0  0  0  0
  201.7838  179.4441  156.3195 H   0  0  0  0  0  0  0  0  0  0  0  0
  201.1882  180.0135  157.8792 H   0  0  0  0  0  0  0  0  0  0  0  0
  200.4252  180.5702  156.4005 H   0  0  0  0  0  0  0  0  0  0  0  0
  201.3899  177.0306  157.3330 H   0  0  0  0  0  0  0  0  0  0  0  0
  199.7464  176.6622  157.8775 H   0  0  0  0  0  0  0  0  0  0  0  0
  200.7326  177.8127  158.7764 H   0  0  0  0  0  0  0  0  0  0  0  0
  196.5457  184.2778  155.8196 H   0  0  0  0  0  0  0  0  0  0  0  0
  199.8276  182.8522  158.5531 H   0  0  0  0  0  0  0  0  0  0  0  0
  198.7281  182.9484  159.9171 H   0  0  0  0  0  0  0  0  0  0  0  0
  200.0011  184.1507  159.7410 H   0  0  0  0  0  0  0  0  0  0  0  0
  194.1338  182.4974  158.1848 H   0  0  0  0  0  0  0  0  0  0  0  0
  193.1991  184.2373  159.6743 H   0  0  0  0  0  0  0  0  0  0  0  0
  195.8531  181.8366  156.7356 H   0  0  0  0  0  0  0  0  0  0  0  0
  197.0075  181.2846  157.9594 H   0  0  0  0  0  0  0  0  0  0  0  0
  197.4879  182.5242  156.6925 H   0  0  0  0  0  0  0  0  0  0  0  0
  199.0974  178.8421  157.4045 H   0  0  0  0  0  0  0  0  0  0  0  0
  1  2  1  0
  2  3  2  0
  2 28  1  0
  3  4  1  0
  3 30  1  0
  4  5  1  0
  4 26  2  0
  5  6  1  0
  5 25  1  0
  6  7  2  0
  6  8  1  0
  8  9  1  0
  8 24  2  0
  9 10  1  0
 10 11  2  0
 10 31  1  0
 11 12  1  0
 11 24  1  0
 12 13  1  0
 12 32  1  0
 13 14  1  0
 13 33  1  6
 13 34  1  0
 14 15  1  0
 14 19  2  0
 15 16  2  0
 15 35  1  0
 16 17  1  0
 16 36  1  0
 17 18  2  0
 17 20  1  0
 18 19  1  0
 18 37  1  0
 19 38  1  0
 20 21  1  0
 20 39  1  1
 20 40  1  0
 21 22  1  0
 21 23  1  0
 21 56  1  1
 22 41  1  6
 22 42  1  0
 22 43  1  0
 23 44  1  6
 23 45  1  0
 23 46  1  0
 24 47  1  0
 25 48  1  6
 25 49  1  0
 25 50  1  0
 26 27  1  0
 26 29  1  0
 27 28  2  0
 27 51  1  0
 28 52  1  0
 29 53  1  6
 29 54  1  0
 29 55  1  0
M  CHG  1  21   1
M  END
>  <s_epik_cmdline>  (1185) 
J2VwaWtfcHl0aG9uJywgJy1waCcsICc3LjAwMDAwMCcsICctcGh0JywgJzIuMDAwMDAwJywgJy1tcycsICcxNicsICctdG4nLCAnOCcsICctbWEnLCAnMjAwJywgJy1pbWFlJywgJzxpbmZpbGUubWFlPicsICctb21hZScsICc8b3V0ZmlsZS5tYWU+Jw==

>  <s_epik_input>  (1185) 
Q2xjMVtjSF1jKGMoW0NIM10pW2NIXVtjSF0xKU4oW0NIM10pQyg9TyljMnNbY0hdYyhbY0hdMilbTkhdW0NIMl1jM1tjSF1bY0hdYyhbY0hdW2NIXTMpW0NIMl1OKFtDSDNdKVtDSDNd

>  <s_i_glide_gridfile>  (1185) 
ATP-Grid

>  <s_lp_Force_Field>  (1185) 
OPLS_2005

>  <s_lp_Variant>  (1185) 
rxn512b____EMOL30099731____EMOL720738____EMOL50155899-1

>  <s_lp_label>  (1185) 
2591_sdstereoexpander_1_neutralizer_1_epik_1_stereoizer_1

>  <s_m_source_file>  (1185) 
ATP-VSW-LIGPREP-001-in.maegz

>  <s_sd_BIOSOLVEIT.INFINISEE\_QUERY\_NAME>  (1185) 
Ref-Lig

>  <s_sd_BIOSOLVEIT.INFINISEE\_QUERY\_SMILES>  (1185) 
S(c1nc2c(cc1C[NH2+]Cc3ccc(cc3)C[NH+](C)C)cccc2)Cc4ccccc4

>  <s_sd_BIOSOLVEIT.INFINISEE\_REACTION\_NAME>  (1185) 
rxn512b

>  <s_sd_BIOSOLVEIT.INFINISEE\_REAGENT1\_NAME>  (1185) 
EMOL30099731

>  <s_sd_BIOSOLVEIT.INFINISEE\_REAGENT1\_SMILES>  (1185) 
Clc1cc(NC)c(cc1)C

>  <s_sd_BIOSOLVEIT.INFINISEE\_REAGENT2\_NAME>  (1185) 
EMOL720738

>  <s_sd_BIOSOLVEIT.INFINISEE\_REAGENT2\_SMILES>  (1185) 
BrC1=CSC(C(=O)O)=C1

>  <s_sd_BIOSOLVEIT.INFINISEE\_REAGENT3\_NAME>  (1185) 
EMOL50155899

>  <s_sd_BIOSOLVEIT.INFINISEE\_REAGENT3\_SMILES>  (1185) 
N(Cc1ccc(cc1)CN)(C)C

>  <s_sd_BIOSOLVEIT.INFINISEE\_SPACE>  (1185) 
eXplore_7tr_2022-12

>  <s_vsw_compound_code>  (1185) 
82881

>  <s_vsw_variant>  (1185) 
82881-1

>  <r_epik_Charging_Adjusted_Penalty>  (1185) 
0.080189274810459593

>  <r_epik_Ionization_Penalty>  (1185) 
0.040099999999999997

>  <r_epik_Ionization_Penalty_Charging>  (1185) 
0.040099999999999997

>  <r_epik_Ionization_Penalty_Neutral>  (1185) 
0

>  <r_epik_State_Penalty>  (1185) 
0.040099999999999997

>  <r_i_docking_score>  (1185) 
-4.6736257888982804

>  <r_i_glide_ecoul>  (1185) 
-10.166638374328601

>  <r_i_glide_eff_state_penalty>  (1185) 
0.040099999999999997

>  <r_i_glide_einternal>  (1185) 
18.950761795043899

>  <r_i_glide_emodel>  (1185) 
-54.888144664366997

>  <r_i_glide_energy>  (1185) 
-45.577229499816902

>  <r_i_glide_erotb>  (1185) 
0.75570723507794701

>  <r_i_glide_esite>  (1185) 
-0.166976718915572

>  <r_i_glide_evdw>  (1185) 
-35.410591125488303

>  <r_i_glide_gscore>  (1185) 
-4.7137257888982802

>  <r_i_glide_hbond>  (1185) 
-0.26581692525202399

>  <r_i_glide_ligand_efficiency>  (1185) 
-0.16115950996201001

>  <r_i_glide_ligand_efficiency_ln>  (1185) 
-1.0701417927332799

>  <r_i_glide_ligand_efficiency_sa>  (1185) 
-0.495133073519815

>  <r_i_glide_lipo>  (1185) 
-1.20327237041402

>  <r_i_glide_metal>  (1185) 
-0

>  <r_i_glide_rewards>  (1185) 
-0.537841696970908

>  <r_lp_Energy>  (1185) 
35.081161000000002

>  <r_lp_tautomer_probability>  (1185) 
0.99999274205267796

>  <r_qp_ACxDN^.5/SA>  (1185) 
0.0096357999999999999

>  <r_qp_CIQPlogS>  (1185) 
-4.4400000000000004

>  <r_qp_EA(eV)>  (1185) 
0.33800000000000002

>  <r_qp_FISA>  (1185) 
58.198

>  <r_qp_FOSA>  (1185) 
295.32900000000001

>  <r_qp_IP(eV)>  (1185) 
8.298

>  <r_qp_Jm>  (1185) 
0.010424627496988701

>  <r_qp_PISA>  (1185) 
185.666

>  <r_qp_PSA>  (1185) 
42.908999999999999

>  <r_qp_PercentHumanOralAbsorption>  (1185) 
88.805000000000007

>  <r_qp_QPPCaco>  (1185) 
172.905

>  <r_qp_QPPMDCK>  (1185) 
260.36700000000002

>  <r_qp_QPlogBB>  (1185) 
0.66500000000000004

>  <r_qp_QPlogHERG>  (1185) 
-5.4800000000000004

>  <r_qp_QPlogKhsa>  (1185) 
0.57299999999999995

>  <r_qp_QPlogKp>  (1185) 
-5.391

>  <r_qp_QPlogPC16>  (1185) 
12.417

>  <r_qp_QPlogPo/w>  (1185) 
3.7240000000000002

>  <r_qp_QPlogPoct>  (1185) 
18.905000000000001

>  <r_qp_QPlogPw>  (1185) 
8.7360000000000007

>  <r_qp_QPlogS>  (1185) 
-2.222

>  <r_qp_QPpolrz>  (1185) 
41.085999999999999

>  <r_qp_SASA>  (1185) 
622.67499999999995

>  <r_qp_SAamideO>  (1185) 
0

>  <r_qp_SAfluorine>  (1185) 
0

>  <r_qp_WPSA>  (1185) 
83.483000000000004

>  <r_qp_accptHB>  (1185) 
6

>  <r_qp_dip^2/V>  (1185) 
0.034042700000000002

>  <r_qp_dipole>  (1185) 
6.5190000000000001

>  <r_qp_donorHB>  (1185) 
1

>  <r_qp_glob>  (1185) 
0.90048249999999996

>  <r_qp_mol_MW>  (1185) 
427.99099999999999

>  <r_qp_volume>  (1185) 
1248.412

>  <r_sd_BIOSOLVEIT.INFINISEE\_FTREES\_SIMILARITY>  (1185) 
0.91100000000000003

>  <r_sd_BIOSOLVEIT.LOGP>  (1185) 
4.2431200000000002

>  <r_sd_BIOSOLVEIT.MOLECULAR\_WEIGHT>  (1185) 
429.00400000000002

>  <r_sd_BIOSOLVEIT.TPSA>  (1185) 
36.780000000000001

>  <i_epik_Tot_Q>  (1185) 
1

>  <i_epik_Tot_abs_Q>  (1185) 
1

>  <i_f3d_flags>  (1185) 
0

>  <i_i_glide_confnum>  (1185) 
6

>  <i_i_glide_lignum>  (1185) 
1073

>  <i_i_glide_posenum>  (1185) 
1

>  <i_i_glide_rotatable_bonds>  (1185) 
8

>  <i_lp_mmshare_version>  (1185) 
65135

>  <i_m_ct_format>  (1185) 
2

>  <i_m_source_file_index>  (1185) 
2591

>  <i_qp_#NandO>  (1185) 
4

>  <i_qp_#acid>  (1185) 
0

>  <i_qp_#amide>  (1185) 
0

>  <i_qp_#amidine>  (1185) 
0

>  <i_qp_#amine>  (1185) 
2

>  <i_qp_#in34>  (1185) 
0

>  <i_qp_#in56>  (1185) 
17

>  <i_qp_#metab>  (1185) 
7

>  <i_qp_#nonHatm>  (1185) 
29

>  <i_qp_#noncon>  (1185) 
0

>  <i_qp_#ringatoms>  (1185) 
17

>  <i_qp_#rotor>  (1185) 
7

>  <i_qp_#rtvFG>  (1185) 
0

>  <i_qp_#stars>  (1185) 
0

>  <i_qp_CNS>  (1185) 
2

>  <i_qp_HumanOralAbsorption>  (1185) 
3

>  <i_qp_RuleOfFive>  (1185) 
0

>  <i_qp_RuleOfThree>  (1185) 
1

>  <i_sd_BIOSOLVEIT.INFINISEE\_RESULT\_RANK>  (1185) 
40568

>  <i_sd_version>  (1185) 
0

>  <b_lp_Chiralities_Consistent>  (1185) 
1

>  <b_sd_chiral_flag>  (1185) 
0

>  <canonical_id>  (1185) 
ATP-HTVS-BCAE8AB499DF

>  <compound_code>  (1185) 
82881

>  <title>  (1185) 
rxn512b____EMOL30099731____EMOL720738____EMOL50155899

>  <variant>  (1185) 
82881-1

>  <source_file>  (1185) 
运行/运行/ATP-VSW/ATP-VSW-DOCK_HTVS_1-001_lib/ATP-VSW-DOCK_HTVS_1-001_lib

>  <canonical_smiles>  (1185) 
Cc1ccc(Cl)cc1N(C)C(=O)c1cc(NCc2ccc(C[NH+](C)C)cc2)cs1

>  <scaffold>  (1185) 
O=C(Nc1ccccc1)c1cc(NCc2ccccc2)cs1

>  <molecular_formula>  (1185) 
C23H27ClN3OS+

$$$$
ATP-HTVS-BCB25216F396
     RDKit          3D

 54 57  0  0  0  0  0  0  0  0999 V2000
  195.9266  187.5121  156.1214 O   0  0  0  0  0  0  0  0  0  0  0  0
  196.8556  187.0145  156.7628 C   0  0  0  0  0  0  0  0  0  0  0  0
  197.4538  185.9234  156.2324 N   0  0  0  0  0  0  0  0  0  0  0  0
  198.4440  185.0287  156.7312 C   0  0  0  0  0  0  0  0  0  0  0  0
  198.8312  184.8703  158.1040 C   0  0  0  0  0  0  0  0  0  0  0  0
  199.7361  183.8436  158.4570 C   0  0  0  0  0  0  0  0  0  0  0  0
  200.2108  182.9477  157.4837 C   0  0  0  0  0  0  0  0  0  0  0  0
  199.7973  183.0803  156.1470 C   0  0  0  0  0  0  0  0  0  0  0  0
  198.9243  184.1175  155.7758 C   0  0  0  0  0  0  0  0  0  0  0  0
  198.2816  185.7587  159.2218 C   0  0  1  0  0  0  0  0  0  0  0  0
  198.3103  187.1853  158.8615 N   0  0  0  0  0  0  0  0  0  0  0  0
  199.5250  187.9176  159.0138 C   0  0  0  0  0  0  0  0  0  0  0  0
  199.5144  189.2848  159.4369 C   0  0  0  0  0  0  0  0  0  0  0  0
  200.7639  189.9264  159.6791 C   0  0  0  0  0  0  0  0  0  0  0  0
  202.0049  189.3003  159.4557 C   0  0  0  0  0  0  0  0  0  0  0  0
  202.0129  187.9709  158.9992 C   0  0  0  0  0  0  0  0  0  0  0  0
  200.7938  187.3070  158.7794 C   0  0  0  0  0  0  0  0  0  0  0  0
  198.2067  190.0447  159.7587 C   0  0  1  0  0  0  0  0  0  0  0  0
  197.5394  189.3912  160.8982 N   0  0  1  0  0  0  0  0  0  0  0  0
  196.2288  189.9134  161.2922 C   0  0  2  0  0  0  0  0  0  0  0  0
  198.3929  191.5594  159.9779 C   0  0  2  0  0  0  0  0  0  0  0  0
  197.2341  187.7454  158.0407 C   0  0  1  0  0  0  0  0  0  0  0  0
  196.8682  185.3046  159.6172 C   0  0  0  0  0  0  0  0  0  0  0  0
  196.1435  186.0640  160.5732 C   0  0  0  0  0  0  0  0  0  0  0  0
  194.7891  185.8312  160.8266 C   0  0  0  0  0  0  0  0  0  0  0  0
  194.1358  184.7858  160.1155 C   0  0  0  0  0  0  0  0  0  0  0  0
  194.8267  184.0025  159.2029 C   0  0  0  0  0  0  0  0  0  0  0  0
  196.1904  184.2400  158.9632 C   0  0  0  0  0  0  0  0  0  0  0  0
  197.4716  188.4102  160.6904 H   0  0  0  0  0  0  0  0  0  0  0  0
  197.1063  185.7059  155.2975 H   0  0  0  0  0  0  0  0  0  0  0  0
  200.0145  183.6950  159.4933 H   0  0  0  0  0  0  0  0  0  0  0  0
  200.8754  182.1431  157.7634 H   0  0  0  0  0  0  0  0  0  0  0  0
  200.1452  182.3982  155.3918 H   0  0  0  0  0  0  0  0  0  0  0  0
  198.5557  184.1871  154.7612 H   0  0  0  0  0  0  0  0  0  0  0  0
  198.9084  185.6152  160.1281 H   0  0  0  0  0  0  0  0  0  0  0  0
  200.8483  190.9384  160.0596 H   0  0  0  0  0  0  0  0  0  0  0  0
  202.9245  189.8489  159.6376 H   0  0  0  0  0  0  0  0  0  0  0  0
  202.9732  187.4881  158.8266 H   0  0  0  0  0  0  0  0  0  0  0  0
  200.9097  186.2863  158.4459 H   0  0  0  0  0  0  0  0  0  0  0  0
  197.4882  190.0443  158.9502 H   0  0  0  0  0  0  0  0  0  0  0  0
  195.7905  189.3463  162.1148 H   0  0  0  0  0  0  0  0  0  0  0  0
  195.5541  189.8512  160.4388 H   0  0  0  0  0  0  0  0  0  0  0  0
  196.2857  190.9514  161.6183 H   0  0  0  0  0  0  0  0  0  0  0  0
  198.8780  191.9422  159.0743 H   0  0  0  0  0  0  0  0  0  0  0  0
  198.9756  191.8397  160.8797 H   0  0  0  0  0  0  0  0  0  0  0  0
  197.4163  192.0574  160.0084 H   0  0  0  0  0  0  0  0  0  0  0  0
  197.4886  188.7098  157.6095 H   0  0  0  0  0  0  0  0  0  0  0  0
  196.3108  187.8289  158.6270 H   0  0  0  0  0  0  0  0  0  0  0  0
  196.6186  186.8821  161.0867 H   0  0  0  0  0  0  0  0  0  0  0  0
  194.2407  186.4238  161.5401 H   0  0  0  0  0  0  0  0  0  0  0  0
  193.1208  184.5541  160.3316 H   0  0  0  0  0  0  0  0  0  0  0  0
  194.3428  183.2013  158.6332 H   0  0  0  0  0  0  0  0  0  0  0  0
  196.6241  183.6640  158.1649 H   0  0  0  0  0  0  0  0  0  0  0  0
  198.1893  189.4590  161.7130 H   0  0  0  0  0  0  0  0  0  0  0  0
  1  2  2  0
  2  3  1  0
  2 22  1  0
  3  4  1  0
  3 30  1  0
  4  5  1  0
  4  9  2  0
  5  6  2  0
  5 10  1  0
  6  7  1  0
  6 31  1  0
  7  8  2  0
  7 32  1  0
  8  9  1  0
  8 33  1  0
  9 34  1  0
 10 11  1  0
 10 23  1  0
 10 35  1  1
 11 12  1  0
 11 22  1  0
 12 13  1  0
 12 17  2  0
 13 14  2  0
 13 18  1  0
 14 15  1  0
 14 36  1  0
 15 16  2  0
 15 37  1  0
 16 17  1  0
 16 38  1  0
 17 39  1  0
 18 19  1  0
 18 21  1  0
 18 40  1  6
 19 20  1  0
 19 29  1  6
 19 54  1  0
 20 41  1  1
 20 42  1  0
 20 43  1  0
 21 44  1  6
 21 45  1  0
 21 46  1  0
 22 47  1  6
 22 48  1  0
 23 24  2  0
 23 28  1  0
 24 25  1  0
 24 49  1  0
 25 26  2  0
 25 50  1  0
 26 27  1  0
 26 51  1  0
 27 28  2  0
 27 52  1  0
 28 53  1  0
M  CHG  1  19   1
M  END
>  <s_epik_cmdline>  (1186) 
J2VwaWtfcHl0aG9uJywgJy1waCcsICc3LjAwMDAwMCcsICctcGh0JywgJzIuMDAwMDAwJywgJy1tcycsICcxNicsICctdG4nLCAnOCcsICctbWEnLCAnMjAwJywgJy1pbWFlJywgJzxpbmZpbGUubWFlPicsICctb21hZScsICc8b3V0ZmlsZS5tYWU+Jw==

>  <s_epik_input>  (1186) 
W2NIXTFbY0hdW2NIXVtjSF1jKFtDQEhdKFtDSDNdKVtOSF1bQ0gzXSljMU4oW0NIMl1DKD1PKVtOSF0yKVtDQEhdKGMoYzIzKVtjSF1bY0hdW2NIXVtjSF0zKWM0W2NIXVtjSF1bY0hdW2NIXVtjSF00

>  <s_i_glide_gridfile>  (1186) 
ATP-Grid

>  <s_lp_Force_Field>  (1186) 
OPLS_2005

>  <s_lp_Variant>  (1186) 
rxn102c____EMOL31407338____EMOL6185419-4

>  <s_lp_label>  (1186) 
2622_sdstereoexpander_4_neutralizer_1_epik_1_stereoizer_1

>  <s_m_source_file>  (1186) 
ATP-VSW-LIGPREP-003-in.maegz

>  <s_sd_BIOSOLVEIT.INFINISEE\_QUERY\_NAME>  (1186) 
Ref-Lig

>  <s_sd_BIOSOLVEIT.INFINISEE\_QUERY\_SMILES>  (1186) 
S(c1nc2c(cc1C[NH2+]Cc3ccc(cc3)C[NH+](C)C)cccc2)Cc4ccccc4

>  <s_sd_BIOSOLVEIT.INFINISEE\_REACTION\_NAME>  (1186) 
rxn102c

>  <s_sd_BIOSOLVEIT.INFINISEE\_REAGENT1\_NAME>  (1186) 
EMOL31407338

>  <s_sd_BIOSOLVEIT.INFINISEE\_REAGENT1\_SMILES>  (1186) 
Clc1c(cccc1)C(NC)C

>  <s_sd_BIOSOLVEIT.INFINISEE\_REAGENT2\_NAME>  (1186) 
EMOL6185419

>  <s_sd_BIOSOLVEIT.INFINISEE\_REAGENT2\_SMILES>  (1186) 
O=C1Nc2c(cccc2)C(NC1)c3ccccc3

>  <s_sd_BIOSOLVEIT.INFINISEE\_SPACE>  (1186) 
eXplore_7tr_2022-12

>  <s_vsw_compound_code>  (1186) 
83875

>  <s_vsw_variant>  (1186) 
83875-4

>  <r_epik_Charging_Adjusted_Penalty>  (1186) 
0.034494142278650497

>  <r_epik_Ionization_Penalty>  (1186) 
0.0172

>  <r_epik_Ionization_Penalty_Charging>  (1186) 
0.0172

>  <r_epik_Ionization_Penalty_Neutral>  (1186) 
0

>  <r_epik_State_Penalty>  (1186) 
0.0172

>  <r_i_docking_score>  (1186) 
-3.79590351023867

>  <r_i_glide_ecoul>  (1186) 
-8.8990631103515607

>  <r_i_glide_eff_state_penalty>  (1186) 
0.0172

>  <r_i_glide_einternal>  (1186) 
3.6072826385497998

>  <r_i_glide_emodel>  (1186) 
-40.9897187612995

>  <r_i_glide_energy>  (1186) 
-31.4484043121338

>  <r_i_glide_erotb>  (1186) 
0.41763341320905001

>  <r_i_glide_esite>  (1186) 
-0.10000000000000001

>  <r_i_glide_evdw>  (1186) 
-22.549341201782202

>  <r_i_glide_gscore>  (1186) 
-3.8131035102386699

>  <r_i_glide_hbond>  (1186) 
-0.48910200101116902

>  <r_i_glide_ligand_efficiency>  (1186) 
-0.135567982508524

>  <r_i_glide_ligand_efficiency_ln>  (1186) 
-0.87620598273306205

>  <r_i_glide_ligand_efficiency_sa>  (1186) 
-0.41166424016756697

>  <r_i_glide_lipo>  (1186) 
-1.39704521975395

>  <r_i_glide_metal>  (1186) 
-0

>  <r_i_glide_rewards>  (1186) 
0.21773682395924299

>  <r_lp_Energy>  (1186) 
53.490752999999998

>  <r_qp_ACxDN^.5/SA>  (1186) 
0.011517700000000001

>  <r_qp_CIQPlogS>  (1186) 
-4.5990000000000002

>  <r_qp_EA(eV)>  (1186) 
0.11899999999999999

>  <r_qp_FISA>  (1186) 
65.010999999999996

>  <r_qp_FOSA>  (1186) 
154.75200000000001

>  <r_qp_IP(eV)>  (1186) 
9.0050000000000008

>  <r_qp_Jm>  (1186) 
0.0215809801731866

>  <r_qp_PISA>  (1186) 
394.16399999999999

>  <r_qp_PSA>  (1186) 
50.729999999999997

>  <r_qp_PercentHumanOralAbsorption>  (1186) 
100

>  <r_qp_QPPCaco>  (1186) 
597.44399999999996

>  <r_qp_QPPMDCK>  (1186) 
313.64100000000002

>  <r_qp_QPlogBB>  (1186) 
0.27900000000000003

>  <r_qp_QPlogHERG>  (1186) 
-6.1200000000000001

>  <r_qp_QPlogKhsa>  (1186) 
0.73899999999999999

>  <r_qp_QPlogKp>  (1186) 
-3.2000000000000002

>  <r_qp_QPlogPC16>  (1186) 
12.890000000000001

>  <r_qp_QPlogPo/w>  (1186) 
3.9260000000000002

>  <r_qp_QPlogPoct>  (1186) 
20.510999999999999

>  <r_qp_QPlogPw>  (1186) 
11.733000000000001

>  <r_qp_QPlogS>  (1186) 
-4.0359999999999996

>  <r_qp_QPpolrz>  (1186) 
43.377000000000002

>  <r_qp_SASA>  (1186) 
613.928

>  <r_qp_SAamideO>  (1186) 
0

>  <r_qp_SAfluorine>  (1186) 
0

>  <r_qp_WPSA>  (1186) 
0

>  <r_qp_accptHB>  (1186) 
5

>  <r_qp_dip^2/V>  (1186) 
0.0251814

>  <r_qp_dipole>  (1186) 
5.4409999999999998

>  <r_qp_donorHB>  (1186) 
2

>  <r_qp_glob>  (1186) 
0.87748400000000004

>  <r_qp_mol_MW>  (1186) 
371.48099999999999

>  <r_qp_volume>  (1186) 
1175.675

>  <r_sd_BIOSOLVEIT.INFINISEE\_FTREES\_SIMILARITY>  (1186) 
0.91100000000000003

>  <r_sd_BIOSOLVEIT.LOGP>  (1186) 
3.4889000000000001

>  <r_sd_BIOSOLVEIT.MOLECULAR\_WEIGHT>  (1186) 
372.48899999999998

>  <r_sd_BIOSOLVEIT.TPSA>  (1186) 
48.950000000000003

>  <i_epik_Tot_Q>  (1186) 
1

>  <i_epik_Tot_abs_Q>  (1186) 
1

>  <i_f3d_flags>  (1186) 
0

>  <i_i_glide_confnum>  (1186) 
5

>  <i_i_glide_lignum>  (1186) 
1198

>  <i_i_glide_posenum>  (1186) 
10

>  <i_i_glide_rotatable_bonds>  (1186) 
4

>  <i_lp_mmshare_version>  (1186) 
65135

>  <i_m_ct_format>  (1186) 
2

>  <i_m_source_file_index>  (1186) 
2622

>  <i_qp_#NandO>  (1186) 
4

>  <i_qp_#acid>  (1186) 
0

>  <i_qp_#amide>  (1186) 
0

>  <i_qp_#amidine>  (1186) 
0

>  <i_qp_#amine>  (1186) 
1

>  <i_qp_#in34>  (1186) 
0

>  <i_qp_#in56>  (1186) 
18

>  <i_qp_#metab>  (1186) 
8

>  <i_qp_#nonHatm>  (1186) 
28

>  <i_qp_#noncon>  (1186) 
2

>  <i_qp_#ringatoms>  (1186) 
23

>  <i_qp_#rotor>  (1186) 
2

>  <i_qp_#rtvFG>  (1186) 
0

>  <i_qp_#stars>  (1186) 
0

>  <i_qp_CNS>  (1186) 
1

>  <i_qp_HumanOralAbsorption>  (1186) 
3

>  <i_qp_RuleOfFive>  (1186) 
0

>  <i_qp_RuleOfThree>  (1186) 
1

>  <i_sd_BIOSOLVEIT.INFINISEE\_RESULT\_RANK>  (1186) 
43653

>  <i_sd_version>  (1186) 
0

>  <b_lp_Chiralities_Consistent>  (1186) 
1

>  <b_sd_chiral_flag>  (1186) 
0

>  <canonical_id>  (1186) 
ATP-HTVS-BCB25216F396

>  <compound_code>  (1186) 
83875

>  <title>  (1186) 
rxn102c____EMOL31407338____EMOL6185419

>  <variant>  (1186) 
83875-4

>  <source_file>  (1186) 
运行/运行/ATP-VSW/ATP-VSW-DOCK_HTVS_1-003_lib/ATP-VSW-DOCK_HTVS_1-003_lib.mae

>  <canonical_smiles>  (1186) 
C[NH2+][C@@H](C)c1ccccc1N1CC(=O)Nc2ccccc2[C@@H]1c1ccccc1

>  <scaffold>  (1186) 
O=C1CN(c2ccccc2)C(c2ccccc2)c2ccccc2N1

>  <molecular_formula>  (1186) 
C24H26N3O+

$$$$
ATP-HTVS-BCB37E169801
     RDKit          3D

 53 56  0  0  0  0  0  0  0  0999 V2000
  201.7429  174.5380  155.2839 Cl  0  0  0  0  0  0  0  0  0  0  0  0
  201.3255  176.2105  155.2673 C   0  0  0  0  0  0  0  0  0  0  0  0
  202.2985  177.1942  155.0034 C   0  0  0  0  0  0  0  0  0  0  0  0
  201.9444  178.5617  155.0391 C   0  0  0  0  0  0  0  0  0  0  0  0
  200.6166  178.9559  155.3174 C   0  0  0  0  0  0  0  0  0  0  0  0
  199.6255  177.9588  155.5247 C   0  0  0  0  0  0  0  0  0  0  0  0
  199.9966  176.6048  155.5226 C   0  0  0  0  0  0  0  0  0  0  0  0
  200.2957  180.4415  155.4084 C   0  0  2  0  0  0  0  0  0  0  0  0
  199.3260  180.7767  156.5695 C   0  0  1  0  0  0  0  0  0  0  0  0
  197.9575  180.2575  156.3667 N   0  0  1  0  0  0  0  0  0  0  0  0
  196.8256  181.1598  156.5584 C   0  0  1  0  0  0  0  0  0  0  0  0
  197.0362  182.4831  155.8605 C   0  0  0  0  0  0  0  0  0  0  0  0
  197.0567  182.7708  154.4594 C   0  0  0  0  0  0  0  0  0  0  0  0
  197.4369  184.0210  154.2580 N   0  0  0  0  0  0  0  0  0  0  0  0
  197.6093  184.5865  155.4803 N   0  0  0  0  0  0  0  0  0  0  0  0
  198.0253  185.9341  155.6266 C   0  0  0  0  0  0  0  0  0  0  0  0
  197.6845  186.6606  156.7928 C   0  0  0  0  0  0  0  0  0  0  0  0
  198.0702  188.0063  156.9291 C   0  0  0  0  0  0  0  0  0  0  0  0
  198.8038  188.6373  155.9057 C   0  0  0  0  0  0  0  0  0  0  0  0
  199.1580  187.9187  154.7451 C   0  0  0  0  0  0  0  0  0  0  0  0
  198.7661  186.5741  154.6063 C   0  0  0  0  0  0  0  0  0  0  0  0
  197.3477  183.6702  156.4677 C   0  0  0  0  0  0  0  0  0  0  0  0
  196.8261  181.8922  153.2899 C   0  0  0  0  0  0  0  0  0  0  0  0
  196.6419  180.4848  153.4203 C   0  0  0  0  0  0  0  0  0  0  0  0
  196.4600  179.7126  152.2655 C   0  0  0  0  0  0  0  0  0  0  0  0
  196.4531  180.2086  151.0064 N   0  0  0  0  0  0  0  0  0  0  0  0
  196.6513  181.5355  150.8735 C   0  0  0  0  0  0  0  0  0  0  0  0
  196.8367  182.4055  151.9722 C   0  0  0  0  0  0  0  0  0  0  0  0
  199.7957  180.9324  154.0274 C   0  0  2  0  0  0  0  0  0  0  0  0
  197.9166  179.9645  155.3917 H   0  0  0  0  0  0  0  0  0  0  0  0
  203.3212  176.9046  154.8090 H   0  0  0  0  0  0  0  0  0  0  0  0
  202.7036  179.3079  154.8580 H   0  0  0  0  0  0  0  0  0  0  0  0
  198.5742  178.1724  155.7092 H   0  0  0  0  0  0  0  0  0  0  0  0
  199.2392  175.8590  155.7425 H   0  0  0  0  0  0  0  0  0  0  0  0
  201.2293  180.9622  155.6284 H   0  0  0  0  0  0  0  0  0  0  0  0
  199.7376  180.3542  157.4930 H   0  0  0  0  0  0  0  0  0  0  0  0
  199.3451  181.8750  156.7411 H   0  0  0  0  0  0  0  0  0  0  0  0
  195.9042  180.6963  156.2018 H   0  0  0  0  0  0  0  0  0  0  0  0
  196.6538  181.3218  157.6380 H   0  0  0  0  0  0  0  0  0  0  0  0
  197.1151  186.1925  157.5818 H   0  0  0  0  0  0  0  0  0  0  0  0
  197.8005  188.5583  157.8173 H   0  0  0  0  0  0  0  0  0  0  0  0
  199.0922  189.6728  156.0077 H   0  0  0  0  0  0  0  0  0  0  0  0
  199.7157  188.4031  153.9558 H   0  0  0  0  0  0  0  0  0  0  0  0
  199.0348  186.0357  153.7093 H   0  0  0  0  0  0  0  0  0  0  0  0
  197.4548  183.9047  157.5190 H   0  0  0  0  0  0  0  0  0  0  0  0
  196.5702  179.9779  154.3863 H   0  0  0  0  0  0  0  0  0  0  0  0
  196.3395  178.6390  152.3670 H   0  0  0  0  0  0  0  0  0  0  0  0
  196.6755  181.9077  149.8564 H   0  0  0  0  0  0  0  0  0  0  0  0
  197.0239  183.4502  151.7829 H   0  0  0  0  0  0  0  0  0  0  0  0
  200.5813  180.8092  153.2501 H   0  0  0  0  0  0  0  0  0  0  0  0
  199.6019  182.0140  154.0545 H   0  0  0  0  0  0  0  0  0  0  0  0
  198.8865  180.4068  153.7205 H   0  0  0  0  0  0  0  0  0  0  0  0
  197.7858  179.4407  156.9666 H   0  0  0  0  0  0  0  0  0  0  0  0
  1  2  1  0
  2  3  1  0
  2  7  2  0
  3  4  2  0
  3 31  1  0
  4  5  1  0
  4 32  1  0
  5  6  2  0
  5  8  1  0
  6  7  1  0
  6 33  1  0
  7 34  1  0
  8  9  1  0
  8 29  1  0
  8 35  1  1
  9 10  1  0
  9 36  1  1
  9 37  1  0
 10 11  1  0
 10 30  1  6
 10 53  1  0
 11 12  1  0
 11 38  1  6
 11 39  1  0
 12 13  1  0
 12 22  2  0
 13 14  2  0
 13 23  1  0
 14 15  1  0
 15 16  1  0
 15 22  1  0
 16 17  2  0
 16 21  1  0
 17 18  1  0
 17 40  1  0
 18 19  2  0
 18 41  1  0
 19 20  1  0
 19 42  1  0
 20 21  2  0
 20 43  1  0
 21 44  1  0
 22 45  1  0
 23 24  2  0
 23 28  1  0
 24 25  1  0
 24 46  1  0
 25 26  2  0
 25 47  1  0
 26 27  1  0
 27 28  2  0
 27 48  1  0
 28 49  1  0
 29 50  1  6
 29 51  1  0
 29 52  1  0
M  CHG  1  10   1
M  END
>  <s_epik_cmdline>  (1187) 
J2VwaWtfcHl0aG9uJywgJy1waCcsICc3LjAwMDAwMCcsICctcGh0JywgJzIuMDAwMDAwJywgJy1tcycsICcxNicsICctdG4nLCAnOCcsICctbWEnLCAnMjAwJywgJy1pbWFlJywgJzxpbmZpbGUubWFlPicsICctb21hZScsICc8b3V0ZmlsZS5tYWU+Jw==

>  <s_epik_input>  (1187) 
Q2xjMVtjSF1bY0hdYyhbY0hdW2NIXTEpW0NAQEhdKFtDSDNdKVtDSDJdW05IXVtDSDJdYzJjKC1jM1tjSF1bY0hdbltjSF1bY0hdMylubihbY0hdMiktYzRbY0hdW2NIXVtjSF1bY0hdW2NIXTQ=

>  <s_i_glide_gridfile>  (1187) 
ATP-Grid

>  <s_lp_Force_Field>  (1187) 
OPLS_2005

>  <s_lp_Variant>  (1187) 
m_270004bbb____23845862____7547806-1

>  <s_lp_label>  (1187) 
2090_sdstereoexpander_1_neutralizer_1_epik_1_stereoizer_1

>  <s_m_source_file>  (1187) 
ATP-VSW-LIGPREP-003-in.maegz

>  <s_sd_BIOSOLVEIT.INFINISEE\_QUERY\_NAME>  (1187) 
Ref-Lig

>  <s_sd_BIOSOLVEIT.INFINISEE\_QUERY\_SMILES>  (1187) 
S(c1nc2c(cc1C[NH2+]Cc3ccc(cc3)C[NH+](C)C)cccc2)Cc4ccccc4

>  <s_sd_BIOSOLVEIT.INFINISEE\_REACTION\_NAME>  (1187) 
m_270004bbb

>  <s_sd_BIOSOLVEIT.INFINISEE\_REAGENT1\_SMILES>  (1187) 
[R1*]NCC(c1ccc(Cl)cc1)C

>  <s_sd_BIOSOLVEIT.INFINISEE\_REAGENT2\_SMILES>  (1187) 
[R1*]CC=1C(=NN(c2ccccc2)C1)c3ccncc3

>  <s_sd_BIOSOLVEIT.INFINISEE\_SPACE>  (1187) 
REALSpace_44bn_2023-08

>  <s_vsw_compound_code>  (1187) 
66851

>  <s_vsw_variant>  (1187) 
66851-1

>  <r_epik_Charging_Adjusted_Penalty>  (1187) 
0.0043383734044925796

>  <r_epik_Ionization_Penalty>  (1187) 
0.0089999999999999993

>  <r_epik_Ionization_Penalty_Charging>  (1187) 
0.0043

>  <r_epik_Ionization_Penalty_Neutral>  (1187) 
0.0047000000000000002

>  <r_epik_State_Penalty>  (1187) 
-0

>  <r_i_docking_score>  (1187) 
-4.1687085674687596

>  <r_i_glide_ecoul>  (1187) 
-7.3786439895629901

>  <r_i_glide_eff_state_penalty>  (1187) 
-0

>  <r_i_glide_einternal>  (1187) 
9.0037803649902308

>  <r_i_glide_emodel>  (1187) 
-47.947261293033201

>  <r_i_glide_energy>  (1187) 
-37.4115438461304

>  <r_i_glide_erotb>  (1187) 
0.72218272188883903

>  <r_i_glide_esite>  (1187) 
-0.10000000000000001

>  <r_i_glide_evdw>  (1187) 
-30.032899856567401

>  <r_i_glide_gscore>  (1187) 
-4.1687085674687596

>  <r_i_glide_hbond>  (1187) 
-0.217417122326198

>  <r_i_glide_ligand_efficiency>  (1187) 
-0.14374857129202601

>  <r_i_glide_ligand_efficiency_ln>  (1187) 
-0.95452855262192604

>  <r_i_glide_ligand_efficiency_sa>  (1187) 
-0.44164115375308199

>  <r_i_glide_lipo>  (1187) 
-1.06167645880088

>  <r_i_glide_metal>  (1187) 
-0

>  <r_i_glide_rewards>  (1187) 
-0.90335611696770302

>  <r_lp_Energy>  (1187) 
14.660348000000001

>  <r_lp_tautomer_probability>  (1187) 
1

>  <r_qp_ACxDN^.5/SA>  (1187) 
0.0064025999999999996

>  <r_qp_CIQPlogS>  (1187) 
-6.1420000000000003

>  <r_qp_EA(eV)>  (1187) 
0.626

>  <r_qp_FISA>  (1187) 
50.527000000000001

>  <r_qp_FOSA>  (1187) 
149.97399999999999

>  <r_qp_IP(eV)>  (1187) 
8.8610000000000007

>  <r_qp_Jm>  (1187) 
0.0314464413171349

>  <r_qp_PISA>  (1187) 
373.21199999999999

>  <r_qp_PSA>  (1187) 
37.927

>  <r_qp_PercentHumanOralAbsorption>  (1187) 
100

>  <r_qp_QPPCaco>  (1187) 
819.68799999999999

>  <r_qp_QPPMDCK>  (1187) 
840.33399999999995

>  <r_qp_QPlogBB>  (1187) 
0.34799999999999998

>  <r_qp_QPlogHERG>  (1187) 
-6.0300000000000002

>  <r_qp_QPlogKhsa>  (1187) 
0.92900000000000005

>  <r_qp_QPlogKp>  (1187) 
-2.7189999999999999

>  <r_qp_QPlogPC16>  (1187) 
13.036

>  <r_qp_QPlogPo/w>  (1187) 
4.952

>  <r_qp_QPlogPoct>  (1187) 
18.399000000000001

>  <r_qp_QPlogPw>  (1187) 
8.4239999999999995

>  <r_qp_QPlogS>  (1187) 
-4.3890000000000002

>  <r_qp_QPpolrz>  (1187) 
42.453000000000003

>  <r_qp_SASA>  (1187) 
624.74599999999998

>  <r_qp_SAamideO>  (1187) 
0

>  <r_qp_SAfluorine>  (1187) 
0

>  <r_qp_WPSA>  (1187) 
51.033000000000001

>  <r_qp_accptHB>  (1187) 
4

>  <r_qp_dip^2/V>  (1187) 
0.035887599999999999

>  <r_qp_dipole>  (1187) 
6.5780000000000003

>  <r_qp_donorHB>  (1187) 
1

>  <r_qp_glob>  (1187) 
0.87691790000000003

>  <r_qp_mol_MW>  (1187) 
402.92500000000001

>  <r_qp_volume>  (1187) 
1205.72

>  <r_sd_BIOSOLVEIT.INFINISEE\_FTREES\_SIMILARITY>  (1187) 
0.90100000000000002

>  <r_sd_BIOSOLVEIT.LOGP>  (1187) 
4.4547999999999996

>  <r_sd_BIOSOLVEIT.MOLECULAR\_WEIGHT>  (1187) 
403.935

>  <r_sd_BIOSOLVEIT.TPSA>  (1187) 
47.32

>  <i_epik_Tot_Q>  (1187) 
1

>  <i_epik_Tot_abs_Q>  (1187) 
1

>  <i_f3d_flags>  (1187) 
0

>  <i_i_glide_confnum>  (1187) 
5

>  <i_i_glide_lignum>  (1187) 
774

>  <i_i_glide_posenum>  (1187) 
6

>  <i_i_glide_rotatable_bonds>  (1187) 
7

>  <i_lp_mmshare_version>  (1187) 
65135

>  <i_m_ct_format>  (1187) 
2

>  <i_m_source_file_index>  (1187) 
2090

>  <i_qp_#NandO>  (1187) 
4

>  <i_qp_#acid>  (1187) 
0

>  <i_qp_#amide>  (1187) 
0

>  <i_qp_#amidine>  (1187) 
0

>  <i_qp_#amine>  (1187) 
1

>  <i_qp_#in34>  (1187) 
0

>  <i_qp_#in56>  (1187) 
23

>  <i_qp_#metab>  (1187) 
5

>  <i_qp_#nonHatm>  (1187) 
29

>  <i_qp_#noncon>  (1187) 
0

>  <i_qp_#ringatoms>  (1187) 
23

>  <i_qp_#rotor>  (1187) 
5

>  <i_qp_#rtvFG>  (1187) 
0

>  <i_qp_#stars>  (1187) 
0

>  <i_qp_CNS>  (1187) 
1

>  <i_qp_HumanOralAbsorption>  (1187) 
3

>  <i_qp_RuleOfFive>  (1187) 
0

>  <i_qp_RuleOfThree>  (1187) 
0

>  <i_sd_BIOSOLVEIT.INFINISEE\_REAGENT1\_NAME>  (1187) 
23845862

>  <i_sd_BIOSOLVEIT.INFINISEE\_REAGENT2\_NAME>  (1187) 
7547806

>  <i_sd_BIOSOLVEIT.INFINISEE\_RESULT\_RANK>  (1187) 
96686

>  <i_sd_version>  (1187) 
0

>  <b_lp_Chiralities_Consistent>  (1187) 
1

>  <b_sd_chiral_flag>  (1187) 
0

>  <canonical_id>  (1187) 
ATP-HTVS-BCB37E169801

>  <compound_code>  (1187) 
66851

>  <title>  (1187) 
m_270004bbb____23845862____7547806

>  <variant>  (1187) 
66851-1

>  <source_file>  (1187) 
运行/运行/ATP-VSW/ATP-VSW-DOCK_HTVS_1-003_lib/ATP-VSW-DOCK_HTVS_1-003_lib.mae

>  <canonical_smiles>  (1187) 
C[C@@H](C[NH2+]Cc1cn(-c2ccccc2)nc1-c1ccncc1)c1ccc(Cl)cc1

>  <scaffold>  (1187) 
c1ccc(CC[NH2+]Cc2cn(-c3ccccc3)nc2-c2ccncc2)cc1

>  <molecular_formula>  (1187) 
C24H24ClN4+

$$$$
ATP-HTVS-BCEA86BEEC0A
     RDKit          3D

 51 53  0  0  0  0  0  0  0  0999 V2000
  197.7768  185.1804  159.2551 S   0  0  0  0  0  0  0  0  0  0  0  0
  196.4002  184.1242  158.9059 C   0  0  0  0  0  0  0  0  0  0  0  0
  195.2738  184.5323  159.5328 N   0  0  0  0  0  0  0  0  0  0  0  0
  194.1389  183.8399  159.3313 C   0  0  0  0  0  0  0  0  0  0  0  0
  194.0784  182.6878  158.5364 C   0  0  0  0  0  0  0  0  0  0  0  0
  195.2514  182.2603  157.8947 C   0  0  0  0  0  0  0  0  0  0  0  0
  196.4604  182.9775  158.0605 C   0  0  0  0  0  0  0  0  0  0  0  0
  197.7037  182.5313  157.3218 C   0  0  0  0  0  0  0  0  0  0  0  0
  198.6195  183.3083  157.0646 O   0  0  0  0  0  0  0  0  0  0  0  0
  197.7111  181.2273  156.9844 N   0  0  0  0  0  0  0  0  0  0  0  0
  198.7470  180.4730  156.3877 C   0  0  0  0  0  0  0  0  0  0  0  0
  200.1249  180.7711  156.5128 C   0  0  0  0  0  0  0  0  0  0  0  0
  201.0911  179.9056  155.9619 C   0  0  0  0  0  0  0  0  0  0  0  0
  200.6901  178.7354  155.2827 C   0  0  0  0  0  0  0  0  0  0  0  0
  199.3153  178.4572  155.1366 C   0  0  0  0  0  0  0  0  0  0  0  0
  198.3560  179.3116  155.6995 C   0  0  0  0  0  0  0  0  0  0  0  0
  201.7106  177.7549  154.7373 C   0  0  1  0  0  0  0  0  0  0  0  0
  202.0533  176.6636  155.6908 N   0  0  1  0  0  0  0  0  0  0  0  0
  200.8837  175.9115  156.2074 C   0  0  2  0  0  0  0  0  0  0  0  0
  203.0744  175.7469  155.1361 C   0  0  2  0  0  0  0  0  0  0  0  0
  197.0888  186.8492  159.5245 C   0  0  1  0  0  0  0  0  0  0  0  0
  197.8541  187.8636  158.7024 C   0  0  0  0  0  0  0  0  0  0  0  0
  198.6534  188.8341  159.3385 C   0  0  0  0  0  0  0  0  0  0  0  0
  199.3396  189.7980  158.5757 C   0  0  0  0  0  0  0  0  0  0  0  0
  199.2305  189.7926  157.1703 C   0  0  0  0  0  0  0  0  0  0  0  0
  198.4394  188.8188  156.5295 C   0  0  0  0  0  0  0  0  0  0  0  0
  197.7493  187.8584  157.2941 C   0  0  0  0  0  0  0  0  0  0  0  0
  193.2550  184.2025  159.8356 H   0  0  0  0  0  0  0  0  0  0  0  0
  193.1602  182.1437  158.3994 H   0  0  0  0  0  0  0  0  0  0  0  0
  195.1844  181.3947  157.2516 H   0  0  0  0  0  0  0  0  0  0  0  0
  196.8609  180.7006  157.1661 H   0  0  0  0  0  0  0  0  0  0  0  0
  200.4544  181.6324  157.0760 H   0  0  0  0  0  0  0  0  0  0  0  0
  202.1435  180.1197  156.1122 H   0  0  0  0  0  0  0  0  0  0  0  0
  198.9892  177.5589  154.6405 H   0  0  0  0  0  0  0  0  0  0  0  0
  197.3054  179.0473  155.6438 H   0  0  0  0  0  0  0  0  0  0  0  0
  201.3333  177.3274  153.8042 H   0  0  0  0  0  0  0  0  0  0  0  0
  202.6162  178.3050  154.4709 H   0  0  0  0  0  0  0  0  0  0  0  0
  200.3479  175.4331  155.3855 H   0  0  0  0  0  0  0  0  0  0  0  0
  200.1831  176.5502  156.7475 H   0  0  0  0  0  0  0  0  0  0  0  0
  201.1935  175.1303  156.9031 H   0  0  0  0  0  0  0  0  0  0  0  0
  202.7187  175.2624  154.2246 H   0  0  0  0  0  0  0  0  0  0  0  0
  203.3197  174.9646  155.8552 H   0  0  0  0  0  0  0  0  0  0  0  0
  203.9948  176.2833  154.9010 H   0  0  0  0  0  0  0  0  0  0  0  0
  196.0434  186.9254  159.2230 H   0  0  0  0  0  0  0  0  0  0  0  0
  197.1367  187.0881  160.5875 H   0  0  0  0  0  0  0  0  0  0  0  0
  198.7399  188.8498  160.4158 H   0  0  0  0  0  0  0  0  0  0  0  0
  199.9454  190.5435  159.0731 H   0  0  0  0  0  0  0  0  0  0  0  0
  199.7563  190.5343  156.5862 H   0  0  0  0  0  0  0  0  0  0  0  0
  198.3553  188.8146  155.4514 H   0  0  0  0  0  0  0  0  0  0  0  0
  197.1367  187.1207  156.7955 H   0  0  0  0  0  0  0  0  0  0  0  0
  202.4936  177.1147  156.4842 H   0  0  0  0  0  0  0  0  0  0  0  0
  1  2  1  0
  1 21  1  0
  2  3  1  0
  2  7  2  0
  3  4  2  0
  4  5  1  0
  4 28  1  0
  5  6  2  0
  5 29  1  0
  6  7  1  0
  6 30  1  0
  7  8  1  0
  8  9  2  0
  8 10  1  0
 10 11  1  0
 10 31  1  0
 11 12  1  0
 11 16  2  0
 12 13  2  0
 12 32  1  0
 13 14  1  0
 13 33  1  0
 14 15  2  0
 14 17  1  0
 15 16  1  0
 15 34  1  0
 16 35  1  0
 17 18  1  0
 17 36  1  6
 17 37  1  0
 18 19  1  0
 18 20  1  0
 18 51  1  1
 19 38  1  6
 19 39  1  0
 19 40  1  0
 20 41  1  6
 20 42  1  0
 20 43  1  0
 21 22  1  0
 21 44  1  6
 21 45  1  0
 22 23  2  0
 22 27  1  0
 23 24  1  0
 23 46  1  0
 24 25  2  0
 24 47  1  0
 25 26  1  0
 25 48  1  0
 26 27  2  0
 26 49  1  0
 27 50  1  0
M  CHG  1  18   1
M  END
>  <s_epik_cmdline>  (1188) 
J2VwaWtfcHl0aG9uJywgJy1waCcsICc3LjAwMDAwMCcsICctcGh0JywgJzIuMDAwMDAwJywgJy1tcycsICcxNicsICctdG4nLCAnOCcsICctbWEnLCAnMjAwJywgJy1pbWFlJywgJzxpbmZpbGUubWFlPicsICctb21hZScsICc8b3V0ZmlsZS5tYWU+Jw==

>  <s_epik_input>  (1188) 
W2NIXTFbY0hdW2NIXVtjSF1bY0hdYzFbQ0gyXVNjMm5bY0hdW2NIXVtjSF1jMkMoPU8pW05IXWMzW2NIXVtjSF1jKFtjSF1bY0hdMylbQ0gyXU4oW0NIM10pW0NIM10=

>  <s_i_glide_gridfile>  (1188) 
ATP-Grid

>  <s_lp_Force_Field>  (1188) 
OPLS_2005

>  <s_lp_Variant>  (1188) 
WXVL021____AG0443____SC0838-1

>  <s_lp_label>  (1188) 
634_sdstereoexpander_1_neutralizer_1_epik_1_stereoizer_1

>  <s_m_source_file>  (1188) 
ATP-VSW-LIGPREP-002-in.maegz

>  <s_sd_BIOSOLVEIT.INFINISEE\_QUERY\_NAME>  (1188) 
Ref-Lig

>  <s_sd_BIOSOLVEIT.INFINISEE\_QUERY\_SMILES>  (1188) 
S(c1nc2c(cc1C[NH2+]Cc3ccc(cc3)C[NH+](C)C)cccc2)Cc4ccccc4

>  <s_sd_BIOSOLVEIT.INFINISEE\_REACTION\_NAME>  (1188) 
WXVL021

>  <s_sd_BIOSOLVEIT.INFINISEE\_REAGENT1\_NAME>  (1188) 
AG0443

>  <s_sd_BIOSOLVEIT.INFINISEE\_REAGENT1\_SMILES>  (1188) 
N(Cc1ccc(N)cc1)(C)C

>  <s_sd_BIOSOLVEIT.INFINISEE\_REAGENT2\_NAME>  (1188) 
SC0838

>  <s_sd_BIOSOLVEIT.INFINISEE\_REAGENT2\_SMILES>  (1188) 
S(c1ncccc1C(=O)O)Cc2ccccc2

>  <s_sd_BIOSOLVEIT.INFINISEE\_SPACE>  (1188) 
GalaXi_12bn_2023-03

>  <s_vsw_compound_code>  (1188) 
20258

>  <s_vsw_variant>  (1188) 
20258-1

>  <r_epik_Charging_Adjusted_Penalty>  (1188) 
0.090974180800720894

>  <r_epik_Ionization_Penalty>  (1188) 
0.045999999999999999

>  <r_epik_Ionization_Penalty_Charging>  (1188) 
0.045499999999999999

>  <r_epik_Ionization_Penalty_Neutral>  (1188) 
0.00050000000000000001

>  <r_epik_State_Penalty>  (1188) 
0.045499999999999999

>  <r_i_docking_score>  (1188) 
-4.1929999182743902

>  <r_i_glide_ecoul>  (1188) 
-9.0613784790039098

>  <r_i_glide_eff_state_penalty>  (1188) 
0.045499999999999999

>  <r_i_glide_einternal>  (1188) 
3.8557226657867401

>  <r_i_glide_emodel>  (1188) 
-53.777955004558201

>  <r_i_glide_energy>  (1188) 
-41.539463043212898

>  <r_i_glide_erotb>  (1188) 
0.94687521360846605

>  <r_i_glide_esite>  (1188) 
-0.12520689652768699

>  <r_i_glide_evdw>  (1188) 
-32.478084564208999

>  <r_i_glide_gscore>  (1188) 
-4.2384999182743899

>  <r_i_glide_hbond>  (1188) 
0

>  <r_i_glide_ligand_efficiency>  (1188) 
-0.15529629326942199

>  <r_i_glide_ligand_efficiency_ln>  (1188) 
-0.97606125396805599

>  <r_i_glide_ligand_efficiency_sa>  (1188) 
-0.46588887929643402

>  <r_i_glide_lipo>  (1188) 
-1.02372628074868

>  <r_i_glide_metal>  (1188) 
-0

>  <r_i_glide_rewards>  (1188) 
-1.0533309545454499

>  <r_lp_Energy>  (1188) 
22.556224

>  <r_lp_tautomer_probability>  (1188) 
1

>  <r_qp_ACxDN^.5/SA>  (1188) 
0.0088254000000000006

>  <r_qp_CIQPlogS>  (1188) 
-4.7210000000000001

>  <r_qp_EA(eV)>  (1188) 
0.95599999999999996

>  <r_qp_FISA>  (1188) 
45.033999999999999

>  <r_qp_FOSA>  (1188) 
206.59899999999999

>  <r_qp_IP(eV)>  (1188) 
8.6969999999999992

>  <r_qp_Jm>  (1188) 
0.42931674642937001

>  <r_qp_PISA>  (1188) 
340.54399999999998

>  <r_qp_PSA>  (1188) 
47.237000000000002

>  <r_qp_PercentHumanOralAbsorption>  (1188) 
100

>  <r_qp_QPPCaco>  (1188) 
924.14999999999998

>  <r_qp_QPPMDCK>  (1188) 
743.27200000000005

>  <r_qp_QPlogBB>  (1188) 
0.218

>  <r_qp_QPlogHERG>  (1188) 
-6.0099999999999998

>  <r_qp_QPlogKhsa>  (1188) 
0.48499999999999999

>  <r_qp_QPlogKp>  (1188) 
-2.54

>  <r_qp_QPlogPC16>  (1188) 
12.417999999999999

>  <r_qp_QPlogPo/w>  (1188) 
4.1109999999999998

>  <r_qp_QPlogPoct>  (1188) 
18.091000000000001

>  <r_qp_QPlogPw>  (1188) 
9.1899999999999995

>  <r_qp_QPlogS>  (1188) 
-3.4039999999999999

>  <r_qp_QPpolrz>  (1188) 
39.985999999999997

>  <r_qp_SASA>  (1188) 
623.20100000000002

>  <r_qp_SAamideO>  (1188) 
0

>  <r_qp_SAfluorine>  (1188) 
0

>  <r_qp_WPSA>  (1188) 
31.023

>  <r_qp_accptHB>  (1188) 
5.5

>  <r_qp_dip^2/V>  (1188) 
0.038258199999999999

>  <r_qp_dipole>  (1188) 
6.7300000000000004

>  <r_qp_donorHB>  (1188) 
1

>  <r_qp_glob>  (1188) 
0.86848970000000003

>  <r_qp_mol_MW>  (1188) 
377.50299999999999

>  <r_qp_volume>  (1188) 
1183.971

>  <r_sd_BIOSOLVEIT.INFINISEE\_FTREES\_SIMILARITY>  (1188) 
0.90700000000000003

>  <r_sd_BIOSOLVEIT.LOGP>  (1188) 
3.2707000000000002

>  <r_sd_BIOSOLVEIT.MOLECULAR\_WEIGHT>  (1188) 
378.517

>  <r_sd_BIOSOLVEIT.TPSA>  (1188) 
46.43

>  <i_epik_Tot_Q>  (1188) 
1

>  <i_epik_Tot_abs_Q>  (1188) 
1

>  <i_f3d_flags>  (1188) 
0

>  <i_i_glide_confnum>  (1188) 
2

>  <i_i_glide_lignum>  (1188) 
185

>  <i_i_glide_posenum>  (1188) 
14

>  <i_i_glide_rotatable_bonds>  (1188) 
8

>  <i_lp_mmshare_version>  (1188) 
65135

>  <i_m_ct_format>  (1188) 
2

>  <i_m_source_file_index>  (1188) 
634

>  <i_qp_#NandO>  (1188) 
4

>  <i_qp_#acid>  (1188) 
0

>  <i_qp_#amide>  (1188) 
0

>  <i_qp_#amidine>  (1188) 
0

>  <i_qp_#amine>  (1188) 
1

>  <i_qp_#in34>  (1188) 
0

>  <i_qp_#in56>  (1188) 
18

>  <i_qp_#metab>  (1188) 
4

>  <i_qp_#nonHatm>  (1188) 
27

>  <i_qp_#noncon>  (1188) 
0

>  <i_qp_#ringatoms>  (1188) 
18

>  <i_qp_#rotor>  (1188) 
7

>  <i_qp_#rtvFG>  (1188) 
0

>  <i_qp_#stars>  (1188) 
0

>  <i_qp_CNS>  (1188) 
1

>  <i_qp_HumanOralAbsorption>  (1188) 
3

>  <i_qp_RuleOfFive>  (1188) 
0

>  <i_qp_RuleOfThree>  (1188) 
0

>  <i_sd_BIOSOLVEIT.INFINISEE\_RESULT\_RANK>  (1188) 
57401

>  <i_sd_version>  (1188) 
0

>  <b_lp_Chiralities_Consistent>  (1188) 
1

>  <b_sd_chiral_flag>  (1188) 
0

>  <canonical_id>  (1188) 
ATP-HTVS-BCEA86BEEC0A

>  <compound_code>  (1188) 
20258

>  <title>  (1188) 
WXVL021____AG0443____SC0838

>  <variant>  (1188) 
20258-1

>  <source_file>  (1188) 
运行/运行/ATP-VSW/ATP-VSW-DOCK_HTVS_1-002_lib.maegz

>  <canonical_smiles>  (1188) 
C[NH+](C)Cc1ccc(NC(=O)c2cccnc2SCc2ccccc2)cc1

>  <scaffold>  (1188) 
O=C(Nc1ccccc1)c1cccnc1SCc1ccccc1

>  <molecular_formula>  (1188) 
C22H24N3OS+

$$$$
ATP-HTVS-BD03C735BC89
     RDKit          3D

 67 70  0  0  0  0  0  0  0  0999 V2000
  196.3564  179.1168  152.2746 O   0  0  0  0  0  0  0  0  0  0  0  0
  197.3985  179.6682  151.9353 C   0  0  0  0  0  0  0  0  0  0  0  0
  198.0051  180.6377  152.6475 N   0  0  0  0  0  0  0  0  0  0  0  0
  197.6471  181.0922  153.9608 C   0  0  0  0  0  0  0  0  0  0  0  0
  197.9391  182.4271  154.3710 C   0  0  0  0  0  0  0  0  0  0  0  0
  198.5915  183.3201  153.4894 N   0  0  0  0  0  0  0  0  0  0  0  0
  197.8487  184.5193  153.0845 C   0  0  1  0  0  0  0  0  0  0  0  0
  198.3370  185.7479  153.7322 C   0  0  0  0  0  0  0  0  0  0  0  0
  198.7378  186.7327  154.2086 N   0  0  0  0  0  0  0  0  0  0  0  0
  197.8297  184.7504  151.5774 C   0  0  0  0  0  0  0  0  0  0  0  0
  196.7895  184.2102  150.8014 C   0  0  0  0  0  0  0  0  0  0  0  0
  196.7476  184.4682  149.4178 C   0  0  0  0  0  0  0  0  0  0  0  0
  197.7433  185.2582  148.8092 C   0  0  0  0  0  0  0  0  0  0  0  0
  198.7822  185.8000  149.5889 C   0  0  0  0  0  0  0  0  0  0  0  0
  198.8247  185.5429  150.9683 C   0  0  0  0  0  0  0  0  0  0  0  0
  200.0335  183.4294  153.7216 C   0  0  2  0  0  0  0  0  0  0  0  0
  197.5960  182.8239  155.7030 C   0  0  0  0  0  0  0  0  0  0  0  0
  196.9653  181.8911  156.5689 C   0  0  0  0  0  0  0  0  0  0  0  0
  196.7466  180.6377  156.1336 N   0  0  0  0  0  0  0  0  0  0  0  0
  197.0404  180.2168  154.8966 C   0  0  0  0  0  0  0  0  0  0  0  0
  196.6044  182.2469  157.8926 C   0  0  0  0  0  0  0  0  0  0  0  0
  196.8313  183.5559  158.3634 C   0  0  0  0  0  0  0  0  0  0  0  0
  197.4603  184.4838  157.5106 C   0  0  0  0  0  0  0  0  0  0  0  0
  197.8919  184.1239  156.2079 C   0  0  0  0  0  0  0  0  0  0  0  0
  198.0464  179.3397  150.6227 C   0  0  0  0  0  0  0  0  0  0  0  0
  198.4770  178.0193  150.3167 C   0  0  0  0  0  0  0  0  0  0  0  0
  198.3296  177.0399  151.2767 O   0  0  0  0  0  0  0  0  0  0  0  0
  198.7304  175.7081  150.9893 C   0  0  1  0  0  0  0  0  0  0  0  0
  200.2689  175.6120  151.1143 C   0  0  1  0  0  0  0  0  0  0  0  0
  200.7662  174.2195  151.0887 N   0  0  2  0  0  0  0  0  0  0  0  0
  200.4977  173.4925  152.3507 C   0  0  2  0  0  0  0  0  0  0  0  0
  202.1991  174.1659  150.7226 C   0  0  2  0  0  0  0  0  0  0  0  0
  199.0657  177.7726  149.0490 C   0  0  0  0  0  0  0  0  0  0  0  0
  199.2527  178.8099  148.1258 C   0  0  0  0  0  0  0  0  0  0  0  0
  198.8130  180.1075  148.4287 C   0  0  0  0  0  0  0  0  0  0  0  0
  198.2058  180.3687  149.6702 C   0  0  0  0  0  0  0  0  0  0  0  0
  198.7647  181.1228  152.1913 H   0  0  0  0  0  0  0  0  0  0  0  0
  196.8109  184.4175  153.4029 H   0  0  0  0  0  0  0  0  0  0  0  0
  196.0110  183.6220  151.2644 H   0  0  0  0  0  0  0  0  0  0  0  0
  195.9630  184.0714  148.8096 H   0  0  0  0  0  0  0  0  0  0  0  0
  197.7123  185.4488  147.7452 H   0  0  0  0  0  0  0  0  0  0  0  0
  199.5471  186.4205  149.1318 H   0  0  0  0  0  0  0  0  0  0  0  0
  199.6204  185.9836  151.5495 H   0  0  0  0  0  0  0  0  0  0  0  0
  200.4292  182.5632  154.2475 H   0  0  0  0  0  0  0  0  0  0  0  0
  200.2645  184.2965  154.3371 H   0  0  0  0  0  0  0  0  0  0  0  0
  200.5826  183.5364  152.7839 H   0  0  0  0  0  0  0  0  0  0  0  0
  196.8088  179.1732  154.7171 H   0  0  0  0  0  0  0  0  0  0  0  0
  196.1426  181.5095  158.5548 H   0  0  0  0  0  0  0  0  0  0  0  0
  196.5639  183.8572  159.3715 H   0  0  0  0  0  0  0  0  0  0  0  0
  197.6593  185.4918  157.8267 H   0  0  0  0  0  0  0  0  0  0  0  0
  198.4519  184.8712  155.6371 H   0  0  0  0  0  0  0  0  0  0  0  0
  198.2333  175.0726  151.7232 H   0  0  0  0  0  0  0  0  0  0  0  0
  198.3576  175.3591  150.0256 H   0  0  0  0  0  0  0  0  0  0  0  0
  200.7504  176.1429  150.2918 H   0  0  0  0  0  0  0  0  0  0  0  0
  200.6080  176.1231  152.0190 H   0  0  0  0  0  0  0  0  0  0  0  0
  200.9512  174.0052  153.2011 H   0  0  0  0  0  0  0  0  0  0  0  0
  200.8988  172.4805  152.3044 H   0  0  0  0  0  0  0  0  0  0  0  0
  199.4287  173.4067  152.5388 H   0  0  0  0  0  0  0  0  0  0  0  0
  202.8080  174.6967  151.4573 H   0  0  0  0  0  0  0  0  0  0  0  0
  202.3717  174.6245  149.7467 H   0  0  0  0  0  0  0  0  0  0  0  0
  202.5450  173.1348  150.6674 H   0  0  0  0  0  0  0  0  0  0  0  0
  199.4215  176.8021  148.7453 H   0  0  0  0  0  0  0  0  0  0  0  0
  199.7381  178.5943  147.1852 H   0  0  0  0  0  0  0  0  0  0  0  0
  198.9350  180.8925  147.7002 H   0  0  0  0  0  0  0  0  0  0  0  0
  197.8489  181.3661  149.8820 H   0  0  0  0  0  0  0  0  0  0  0  0
  200.2701  173.7254  150.3513 H   0  0  0  0  0  0  0  0  0  0  0  0
  196.2993  179.9644  156.7931 H   0  0  0  0  0  0  0  0  0  0  0  0
  1  2  2  0
  2  3  1  0
  2 25  1  0
  3  4  1  0
  3 37  1  0
  4  5  2  0
  4 20  1  0
  5  6  1  0
  5 17  1  0
  6  7  1  0
  6 16  1  0
  7  8  1  0
  7 10  1  0
  7 38  1  1
  8  9  3  0
 10 11  2  0
 10 15  1  0
 11 12  1  0
 11 39  1  0
 12 13  2  0
 12 40  1  0
 13 14  1  0
 13 41  1  0
 14 15  2  0
 14 42  1  0
 15 43  1  0
 16 44  1  1
 16 45  1  0
 16 46  1  0
 17 18  1  0
 17 24  2  0
 18 19  1  0
 18 21  2  0
 19 20  2  0
 19 67  1  0
 20 47  1  0
 21 22  1  0
 21 48  1  0
 22 23  2  0
 22 49  1  0
 23 24  1  0
 23 50  1  0
 24 51  1  0
 25 26  1  0
 25 36  2  0
 26 27  1  0
 26 33  2  0
 27 28  1  0
 28 29  1  0
 28 52  1  1
 28 53  1  0
 29 30  1  0
 29 54  1  6
 29 55  1  0
 30 31  1  0
 30 32  1  0
 30 66  1  6
 31 56  1  1
 31 57  1  0
 31 58  1  0
 32 59  1  1
 32 60  1  0
 32 61  1  0
 33 34  1  0
 33 62  1  0
 34 35  2  0
 34 63  1  0
 35 36  1  0
 35 64  1  0
 36 65  1  0
M  CHG  2  19   1  30   1
M  END
>  <s_epik_cmdline>  (1189) 
J2VwaWtfcHl0aG9uJywgJy1waCcsICc3LjAwMDAwMCcsICctcGh0JywgJzIuMDAwMDAwJywgJy1tcycsICcxNicsICctdG4nLCAnOCcsICctbWEnLCAnMjAwJywgJy1pbWFlJywgJzxpbmZpbGUubWFlPicsICctb21hZScsICc8b3V0ZmlsZS5tYWU+Jw==

>  <s_epik_input>  (1189) 
W0NIM11OKFtDSDNdKVtDSDJdW0NIMl1PYyhbY0hdW2NIXVtjSF1bY0hdMSljMUMoPU8pW05IXWMoW2NIXW5jKGMyMylbY0hdW2NIXVtjSF1bY0hdMyljMk4oW0NIM10pW0NAQEhdKEMjTiljNFtjSF1bY0hdW2NIXVtjSF1bY0hdNA==

>  <s_i_glide_gridfile>  (1189) 
ATP-Grid

>  <s_lp_Force_Field>  (1189) 
OPLS_2005

>  <s_lp_Variant>  (1189) 
rxn502b____EMOL1542108____EMOL30488121____EMOL24630243-1

>  <s_lp_label>  (1189) 
2627_sdstereoexpander_1_neutralizer_1_epik_1_stereoizer_1

>  <s_m_source_file>  (1189) 
ATP-VSW-LIGPREP-003-in.maegz

>  <s_sd_BIOSOLVEIT.INFINISEE\_QUERY\_NAME>  (1189) 
Ref-Lig

>  <s_sd_BIOSOLVEIT.INFINISEE\_QUERY\_SMILES>  (1189) 
S(c1nc2c(cc1C[NH2+]Cc3ccc(cc3)C[NH+](C)C)cccc2)Cc4ccccc4

>  <s_sd_BIOSOLVEIT.INFINISEE\_REACTION\_NAME>  (1189) 
rxn502b

>  <s_sd_BIOSOLVEIT.INFINISEE\_REAGENT1\_NAME>  (1189) 
EMOL1542108

>  <s_sd_BIOSOLVEIT.INFINISEE\_REAGENT1\_SMILES>  (1189) 
O=C(O)c1c(OCCN(C)C)cccc1

>  <s_sd_BIOSOLVEIT.INFINISEE\_REAGENT2\_NAME>  (1189) 
EMOL30488121

>  <s_sd_BIOSOLVEIT.INFINISEE\_REAGENT2\_SMILES>  (1189) 
Brc1c(N)cnc2c1cccc2

>  <s_sd_BIOSOLVEIT.INFINISEE\_REAGENT3\_NAME>  (1189) 
EMOL24630243

>  <s_sd_BIOSOLVEIT.INFINISEE\_REAGENT3\_SMILES>  (1189) 
N#CC(NC)c1ccccc1

>  <s_sd_BIOSOLVEIT.INFINISEE\_SPACE>  (1189) 
eXplore_7tr_2022-12

>  <s_vsw_compound_code>  (1189) 
84035

>  <s_vsw_variant>  (1189) 
84035-1

>  <r_epik_Charging_Adjusted_Penalty>  (1189) 
0.296728913857356

>  <r_epik_Ionization_Penalty>  (1189) 
0.1484

>  <r_epik_Ionization_Penalty_Charging>  (1189) 
0.1484

>  <r_epik_Ionization_Penalty_Neutral>  (1189) 
0

>  <r_epik_State_Penalty>  (1189) 
0.1484

>  <r_i_docking_score>  (1189) 
-5.0301969935388096

>  <r_i_glide_ecoul>  (1189) 
-13.9619445800781

>  <r_i_glide_eff_state_penalty>  (1189) 
0.1484

>  <r_i_glide_einternal>  (1189) 
6.3632683753967303

>  <r_i_glide_emodel>  (1189) 
-69.837486163614699

>  <r_i_glide_energy>  (1189) 
-49.202785491943402

>  <r_i_glide_erotb>  (1189) 
0.78725654514551402

>  <r_i_glide_esite>  (1189) 
-0.100550305102375

>  <r_i_glide_evdw>  (1189) 
-35.240840911865199

>  <r_i_glide_gscore>  (1189) 
-5.1785969935388101

>  <r_i_glide_hbond>  (1189) 
-0.163468701840254

>  <r_i_glide_ligand_efficiency>  (1189) 
-0.13972769426496701

>  <r_i_glide_ligand_efficiency_ln>  (1189) 
-1.09745308377261

>  <r_i_glide_ligand_efficiency_sa>  (1189) 
-0.461370680567602

>  <r_i_glide_lipo>  (1189) 
-1.3575856551711101

>  <r_i_glide_metal>  (1189) 
-0

>  <r_i_glide_rewards>  (1189) 
-0.48791514396560898

>  <r_lp_Energy>  (1189) 
54.712212000000001

>  <r_lp_tautomer_probability>  (1189) 
1

>  <r_qp_ACxDN^.5/SA>  (1189) 
0.010858700000000001

>  <r_qp_CIQPlogS>  (1189) 
-6.7110000000000003

>  <r_qp_EA(eV)>  (1189) 
1.0429999999999999

>  <r_qp_FISA>  (1189) 
94.641000000000005

>  <r_qp_FOSA>  (1189) 
269.721

>  <r_qp_IP(eV)>  (1189) 
8.7219999999999995

>  <r_qp_Jm>  (1189) 
0.00134179110013957

>  <r_qp_PISA>  (1189) 
441.44099999999997

>  <r_qp_PSA>  (1189) 
79.466999999999999

>  <r_qp_PercentHumanOralAbsorption>  (1189) 
100

>  <r_qp_QPPCaco>  (1189) 
312.83800000000002

>  <r_qp_QPPMDCK>  (1189) 
155.858

>  <r_qp_QPlogBB>  (1189) 
-0.64200000000000002

>  <r_qp_QPlogHERG>  (1189) 
-7.7009999999999996

>  <r_qp_QPlogKhsa>  (1189) 
0.55400000000000005

>  <r_qp_QPlogKp>  (1189) 
-2.8109999999999999

>  <r_qp_QPlogPC16>  (1189) 
16.398

>  <r_qp_QPlogPo/w>  (1189) 
4.4729999999999999

>  <r_qp_QPlogPoct>  (1189) 
23.84

>  <r_qp_QPlogPw>  (1189) 
13.182

>  <r_qp_QPlogS>  (1189) 
-5.742

>  <r_qp_QPpolrz>  (1189) 
52.505000000000003

>  <r_qp_SASA>  (1189) 
805.803

>  <r_qp_SAamideO>  (1189) 
0

>  <r_qp_SAfluorine>  (1189) 
0

>  <r_qp_WPSA>  (1189) 
0

>  <r_qp_accptHB>  (1189) 
8.75

>  <r_qp_dip^2/V>  (1189) 
0.0116127

>  <r_qp_dipole>  (1189) 
4.2030000000000003

>  <r_qp_donorHB>  (1189) 
1

>  <r_qp_glob>  (1189) 
0.79370940000000001

>  <r_qp_mol_MW>  (1189) 
479.57999999999998

>  <r_qp_volume>  (1189) 
1520.856

>  <r_sd_BIOSOLVEIT.INFINISEE\_FTREES\_SIMILARITY>  (1189) 
0.91000000000000003

>  <r_sd_BIOSOLVEIT.LOGP>  (1189) 
3.7114799999999999

>  <r_sd_BIOSOLVEIT.MOLECULAR\_WEIGHT>  (1189) 
480.589

>  <r_sd_BIOSOLVEIT.TPSA>  (1189) 
82.689999999999998

>  <i_epik_Tot_Q>  (1189) 
2

>  <i_epik_Tot_abs_Q>  (1189) 
2

>  <i_f3d_flags>  (1189) 
0

>  <i_i_glide_confnum>  (1189) 
12

>  <i_i_glide_lignum>  (1189) 
1203

>  <i_i_glide_posenum>  (1189) 
3

>  <i_i_glide_rotatable_bonds>  (1189) 
10

>  <i_lp_mmshare_version>  (1189) 
65135

>  <i_m_ct_format>  (1189) 
2

>  <i_m_source_file_index>  (1189) 
2627

>  <i_qp_#NandO>  (1189) 
7

>  <i_qp_#acid>  (1189) 
0

>  <i_qp_#amide>  (1189) 
0

>  <i_qp_#amidine>  (1189) 
0

>  <i_qp_#amine>  (1189) 
1

>  <i_qp_#in34>  (1189) 
0

>  <i_qp_#in56>  (1189) 
22

>  <i_qp_#metab>  (1189) 
6

>  <i_qp_#nonHatm>  (1189) 
36

>  <i_qp_#noncon>  (1189) 
0

>  <i_qp_#ringatoms>  (1189) 
22

>  <i_qp_#rotor>  (1189) 
10

>  <i_qp_#rtvFG>  (1189) 
0

>  <i_qp_#stars>  (1189) 
0

>  <i_qp_CNS>  (1189) 
1

>  <i_qp_HumanOralAbsorption>  (1189) 
3

>  <i_qp_RuleOfFive>  (1189) 
0

>  <i_qp_RuleOfThree>  (1189) 
1

>  <i_sd_BIOSOLVEIT.INFINISEE\_RESULT\_RANK>  (1189) 
44029

>  <i_sd_version>  (1189) 
0

>  <b_lp_Chiralities_Consistent>  (1189) 
1

>  <b_sd_chiral_flag>  (1189) 
0

>  <canonical_id>  (1189) 
ATP-HTVS-BD03C735BC89

>  <compound_code>  (1189) 
84035

>  <title>  (1189) 
rxn502b____EMOL1542108____EMOL30488121____EMOL24630243

>  <variant>  (1189) 
84035-1

>  <source_file>  (1189) 
运行/运行/ATP-VSW/ATP-VSW-DOCK_HTVS_1-003_lib/ATP-VSW-DOCK_HTVS_1-003_lib.mae

>  <canonical_smiles>  (1189) 
CN(c1c(NC(=O)c2ccccc2OCC[NH+](C)C)c[nH+]c2ccccc12)[C@@H](C#N)c1ccccc1

>  <scaffold>  (1189) 
O=C(Nc1c[nH+]c2ccccc2c1NCc1ccccc1)c1ccccc1

>  <molecular_formula>  (1189) 
C29H31N5O2+2

$$$$
ATP-HTVS-BD0B30D0980B
     RDKit          3D

 59 62  0  0  0  0  0  0  0  0999 V2000
  201.6610  176.6096  153.9423 F   0  0  0  0  0  0  0  0  0  0  0  0
  200.5988  177.4477  153.9083 C   0  0  0  0  0  0  0  0  0  0  0  0
  199.8216  177.6407  155.0640 C   0  0  0  0  0  0  0  0  0  0  0  0
  198.7378  178.5460  155.0279 C   0  0  0  0  0  0  0  0  0  0  0  0
  198.4601  179.2862  153.8638 C   0  0  0  0  0  0  0  0  0  0  0  0
  199.2528  179.0981  152.7091 C   0  0  0  0  0  0  0  0  0  0  0  0
  200.3151  178.1698  152.7345 C   0  0  0  0  0  0  0  0  0  0  0  0
  197.3239  180.2889  153.8800 C   0  0  1  0  0  0  0  0  0  0  0  0
  197.6675  181.4740  154.6887 N   0  0  1  0  0  0  0  0  0  0  0  0
  196.5836  182.4699  154.7663 C   0  0  1  0  0  0  0  0  0  0  0  0
  197.1343  183.8222  155.1657 C   0  0  0  0  0  0  0  0  0  0  0  0
  197.1531  184.2093  156.5042 N   0  0  0  0  0  0  0  0  0  0  0  0
  197.7103  185.5062  156.5534 C   0  0  0  0  0  0  0  0  0  0  0  0
  198.0271  185.8995  155.3247 N   0  0  0  0  0  0  0  0  0  0  0  0
  197.6689  184.8786  154.4403 C   0  0  0  0  0  0  0  0  0  0  0  0
  197.9052  185.0565  152.9857 C   0  0  0  0  0  0  0  0  0  0  0  0
  198.8255  186.0485  152.5192 C   0  0  0  0  0  0  0  0  0  0  0  0
  199.0613  186.2314  151.1342 C   0  0  0  0  0  0  0  0  0  0  0  0
  198.4009  185.4187  150.1854 C   0  0  0  0  0  0  0  0  0  0  0  0
  198.6128  185.5861  148.8539 F   0  0  0  0  0  0  0  0  0  0  0  0
  197.4935  184.4383  150.6392 C   0  0  0  0  0  0  0  0  0  0  0  0
  197.2283  184.2787  152.0040 C   0  0  0  0  0  0  0  0  0  0  0  0
  197.8292  186.1273  157.8330 C   0  0  0  0  0  0  0  0  0  0  0  0
  197.4138  185.4607  158.9639 C   0  0  0  0  0  0  0  0  0  0  0  0
  196.8625  184.1617  158.8624 C   0  0  0  0  0  0  0  0  0  0  0  0
  196.7433  183.5567  157.6333 C   0  0  0  0  0  0  0  0  0  0  0  0
  196.3913  183.4371  160.1042 C   0  0  2  0  0  0  0  0  0  0  0  0
  200.1606  176.9384  156.3684 C   0  0  1  0  0  0  0  0  0  0  0  0
  200.9574  177.7647  157.3318 N   0  0  2  0  0  0  0  0  0  0  0  0
  200.6063  177.4362  158.7258 C   0  0  2  0  0  0  0  0  0  0  0  0
  200.9317  179.2367  157.1265 C   0  0  2  0  0  0  0  0  0  0  0  0
  197.8988  181.1717  155.6282 H   0  0  0  0  0  0  0  0  0  0  0  0
  198.1277  178.6921  155.9095 H   0  0  0  0  0  0  0  0  0  0  0  0
  199.0486  179.6431  151.7971 H   0  0  0  0  0  0  0  0  0  0  0  0
  200.9280  178.0217  151.8591 H   0  0  0  0  0  0  0  0  0  0  0  0
  197.0959  180.5943  152.8566 H   0  0  0  0  0  0  0  0  0  0  0  0
  196.4237  179.8198  154.2813 H   0  0  0  0  0  0  0  0  0  0  0  0
  196.0147  182.4881  153.8327 H   0  0  0  0  0  0  0  0  0  0  0  0
  195.8604  182.1154  155.5125 H   0  0  0  0  0  0  0  0  0  0  0  0
  199.3562  186.6887  153.2213 H   0  0  0  0  0  0  0  0  0  0  0  0
  199.7569  186.9918  150.7894 H   0  0  0  0  0  0  0  0  0  0  0  0
  196.9611  183.8160  149.9378 H   0  0  0  0  0  0  0  0  0  0  0  0
  196.4466  183.5553  152.2229 H   0  0  0  0  0  0  0  0  0  0  0  0
  198.2558  187.1261  157.9034 H   0  0  0  0  0  0  0  0  0  0  0  0
  197.5109  185.9351  159.9369 H   0  0  0  0  0  0  0  0  0  0  0  0
  196.3073  182.5704  157.5154 H   0  0  0  0  0  0  0  0  0  0  0  0
  196.3395  182.3643  159.9221 H   0  0  0  0  0  0  0  0  0  0  0  0
  195.3953  183.7802  160.3834 H   0  0  0  0  0  0  0  0  0  0  0  0
  197.0759  183.6181  160.9333 H   0  0  0  0  0  0  0  0  0  0  0  0
  199.2110  176.6269  156.8080 H   0  0  0  0  0  0  0  0  0  0  0  0
  200.7185  176.0164  156.1826 H   0  0  0  0  0  0  0  0  0  0  0  0
  199.5603  177.6681  158.9225 H   0  0  0  0  0  0  0  0  0  0  0  0
  201.2120  177.9967  159.4324 H   0  0  0  0  0  0  0  0  0  0  0  0
  200.7455  176.3779  158.9252 H   0  0  0  0  0  0  0  0  0  0  0  0
  199.9148  179.6173  157.2203 H   0  0  0  0  0  0  0  0  0  0  0  0
  201.3300  179.4966  156.1449 H   0  0  0  0  0  0  0  0  0  0  0  0
  201.5369  179.7709  157.8617 H   0  0  0  0  0  0  0  0  0  0  0  0
  201.9248  177.4986  157.1994 H   0  0  0  0  0  0  0  0  0  0  0  0
  198.4919  181.9034  154.2882 H   0  0  0  0  0  0  0  0  0  0  0  0
  1  2  1  0
  2  3  2  0
  2  7  1  0
  3  4  1  0
  3 28  1  0
  4  5  2  0
  4 33  1  0
  5  6  1  0
  5  8  1  0
  6  7  2  0
  6 34  1  0
  7 35  1  0
  8  9  1  0
  8 36  1  6
  8 37  1  0
  9 10  1  0
  9 32  1  1
  9 59  1  0
 10 11  1  0
 10 38  1  6
 10 39  1  0
 11 12  1  0
 11 15  2  0
 12 13  1  0
 12 26  1  0
 13 14  2  0
 13 23  1  0
 14 15  1  0
 15 16  1  0
 16 17  1  0
 16 22  2  0
 17 18  2  0
 17 40  1  0
 18 19  1  0
 18 41  1  0
 19 20  1  0
 19 21  2  0
 21 22  1  0
 21 42  1  0
 22 43  1  0
 23 24  2  0
 23 44  1  0
 24 25  1  0
 24 45  1  0
 25 26  2  0
 25 27  1  0
 26 46  1  0
 27 47  1  6
 27 48  1  0
 27 49  1  0
 28 29  1  0
 28 50  1  1
 28 51  1  0
 29 30  1  0
 29 31  1  0
 29 58  1  1
 30 52  1  1
 30 53  1  0
 30 54  1  0
 31 55  1  6
 31 56  1  0
 31 57  1  0
M  CHG  2   9   1  29   1
M  END
>  <s_epik_cmdline>  (1190) 
J2VwaWtfcHl0aG9uJywgJy1waCcsICc3LjAwMDAwMCcsICctcGh0JywgJzIuMDAwMDAwJywgJy1tcycsICcxNicsICctdG4nLCAnOCcsICctbWEnLCAnMjAwJywgJy1pbWFlJywgJzxpbmZpbGUubWFlPicsICctb21hZScsICc8b3V0ZmlsZS5tYWU+Jw==

>  <s_epik_input>  (1190) 
W0NIM11OKFtDSDNdKVtDSDJdYyhjMUYpW2NIXWMoW2NIXVtjSF0xKVtDSDJdW05IXVtDSDJdYzJjKG5jKG4yMylbY0hdW2NIXWMoW2NIXTMpW0NIM10pLWM0W2NIXVtjSF1jKEYpW2NIXVtjSF00

>  <s_i_glide_gridfile>  (1190) 
ATP-Grid

>  <s_lp_Force_Field>  (1190) 
OPLS_2005

>  <s_lp_Variant>  (1190) 
m_207bba____22314892____13441678-1

>  <s_lp_label>  (1190) 
1978_sdstereoexpander_1_neutralizer_1_epik_1_stereoizer_1

>  <s_m_source_file>  (1190) 
ATP-VSW-LIGPREP-003-in.maegz

>  <s_sd_BIOSOLVEIT.INFINISEE\_QUERY\_NAME>  (1190) 
Ref-Lig

>  <s_sd_BIOSOLVEIT.INFINISEE\_QUERY\_SMILES>  (1190) 
S(c1nc2c(cc1C[NH2+]Cc3ccc(cc3)C[NH+](C)C)cccc2)Cc4ccccc4

>  <s_sd_BIOSOLVEIT.INFINISEE\_REACTION\_NAME>  (1190) 
m_207bba

>  <s_sd_BIOSOLVEIT.INFINISEE\_REAGENT1\_SMILES>  (1190) 
[R1*]NCc1cc(c(F)cc1)CN(C)C

>  <s_sd_BIOSOLVEIT.INFINISEE\_REAGENT2\_SMILES>  (1190) 
[R1*]CC=1N2C(=NC1c3ccc(F)cc3)C=CC(=C2)C

>  <s_sd_BIOSOLVEIT.INFINISEE\_SPACE>  (1190) 
REALSpace_44bn_2023-08

>  <s_vsw_compound_code>  (1190) 
63267

>  <s_vsw_variant>  (1190) 
63267-1

>  <r_epik_Charging_Adjusted_Penalty>  (1190) 
0.89669643726448001

>  <r_epik_Ionization_Penalty>  (1190) 
0.42580000000000001

>  <r_epik_Ionization_Penalty_Charging>  (1190) 
0.42580000000000001

>  <r_epik_Ionization_Penalty_Neutral>  (1190) 
0

>  <r_epik_State_Penalty>  (1190) 
0.47089999999999999

>  <r_i_docking_score>  (1190) 
-4.1522229427160697

>  <r_i_glide_ecoul>  (1190) 
-11.430366516113301

>  <r_i_glide_eff_state_penalty>  (1190) 
0.47089999999999999

>  <r_i_glide_einternal>  (1190) 
4.8489890098571804

>  <r_i_glide_emodel>  (1190) 
-60.204507200302302

>  <r_i_glide_energy>  (1190) 
-43.038042068481403

>  <r_i_glide_erotb>  (1190) 
0.66585454230110996

>  <r_i_glide_esite>  (1190) 
-0.031838309064278203

>  <r_i_glide_evdw>  (1190) 
-31.6076755523682

>  <r_i_glide_gscore>  (1190) 
-4.62312294271607

>  <r_i_glide_hbond>  (1190) 
0

>  <r_i_glide_ligand_efficiency>  (1190) 
-0.13394267557148601

>  <r_i_glide_ligand_efficiency_ln>  (1190) 
-0.93645352393347803

>  <r_i_glide_ligand_efficiency_sa>  (1190) 
-0.42076492908816998

>  <r_i_glide_lipo>  (1190) 
-0.96631970296951497

>  <r_i_glide_metal>  (1190) 
-0

>  <r_i_glide_rewards>  (1190) 
-0.99588071794798205

>  <r_lp_Energy>  (1190) 
21.472569

>  <r_qp_ACxDN^.5/SA>  (1190) 
0.0070549999999999996

>  <r_qp_CIQPlogS>  (1190) 
-4.9320000000000004

>  <r_qp_EA(eV)>  (1190) 
0.71799999999999997

>  <r_qp_FISA>  (1190) 
33.524000000000001

>  <r_qp_FOSA>  (1190) 
314.61200000000002

>  <r_qp_IP(eV)>  (1190) 
8.8300000000000001

>  <r_qp_Jm>  (1190) 
0.00054061302145170696

>  <r_qp_PISA>  (1190) 
289.87

>  <r_qp_PSA>  (1190) 
33.368000000000002

>  <r_qp_PercentHumanOralAbsorption>  (1190) 
100

>  <r_qp_QPPCaco>  (1190) 
296.34199999999998

>  <r_qp_QPPMDCK>  (1190) 
396.78500000000003

>  <r_qp_QPlogBB>  (1190) 
0.84299999999999997

>  <r_qp_QPlogHERG>  (1190) 
-7.21

>  <r_qp_QPlogKhsa>  (1190) 
1.0009999999999999

>  <r_qp_QPlogKp>  (1190) 
-4.665

>  <r_qp_QPlogPC16>  (1190) 
12.587

>  <r_qp_QPlogPo/w>  (1190) 
4.8570000000000002

>  <r_qp_QPlogPoct>  (1190) 
19.742999999999999

>  <r_qp_QPlogPw>  (1190) 
8.7149999999999999

>  <r_qp_QPlogS>  (1190) 
-4.226

>  <r_qp_QPpolrz>  (1190) 
45.890999999999998

>  <r_qp_SASA>  (1190) 
708.721

>  <r_qp_SAamideO>  (1190) 
0

>  <r_qp_SAfluorine>  (1190) 
70.715000000000003

>  <r_qp_WPSA>  (1190) 
70.715000000000003

>  <r_qp_accptHB>  (1190) 
5

>  <r_qp_dip^2/V>  (1190) 
0.029293199999999998

>  <r_qp_dipole>  (1190) 
6.2359999999999998

>  <r_qp_donorHB>  (1190) 
1

>  <r_qp_glob>  (1190) 
0.82425459999999995

>  <r_qp_mol_MW>  (1190) 
420.50400000000002

>  <r_qp_volume>  (1190) 
1327.5699999999999

>  <r_sd_BIOSOLVEIT.INFINISEE\_FTREES\_SIMILARITY>  (1190) 
0.90200000000000002

>  <r_sd_BIOSOLVEIT.LOGP>  (1190) 
2.4960200000000001

>  <r_sd_BIOSOLVEIT.MOLECULAR\_WEIGHT>  (1190) 
422.51999999999998

>  <r_sd_BIOSOLVEIT.TPSA>  (1190) 
38.869999999999997

>  <i_epik_Tot_Q>  (1190) 
2

>  <i_epik_Tot_abs_Q>  (1190) 
2

>  <i_f3d_flags>  (1190) 
0

>  <i_i_glide_confnum>  (1190) 
5

>  <i_i_glide_lignum>  (1190) 
746

>  <i_i_glide_posenum>  (1190) 
16

>  <i_i_glide_rotatable_bonds>  (1190) 
7

>  <i_lp_mmshare_version>  (1190) 
65135

>  <i_m_ct_format>  (1190) 
2

>  <i_m_source_file_index>  (1190) 
1978

>  <i_qp_#NandO>  (1190) 
4

>  <i_qp_#acid>  (1190) 
0

>  <i_qp_#amide>  (1190) 
0

>  <i_qp_#amidine>  (1190) 
0

>  <i_qp_#amine>  (1190) 
2

>  <i_qp_#in34>  (1190) 
0

>  <i_qp_#in56>  (1190) 
21

>  <i_qp_#metab>  (1190) 
6

>  <i_qp_#nonHatm>  (1190) 
31

>  <i_qp_#noncon>  (1190) 
0

>  <i_qp_#ringatoms>  (1190) 
21

>  <i_qp_#rotor>  (1190) 
6

>  <i_qp_#rtvFG>  (1190) 
0

>  <i_qp_#stars>  (1190) 
0

>  <i_qp_CNS>  (1190) 
2

>  <i_qp_HumanOralAbsorption>  (1190) 
3

>  <i_qp_RuleOfFive>  (1190) 
0

>  <i_qp_RuleOfThree>  (1190) 
0

>  <i_sd_BIOSOLVEIT.INFINISEE\_REAGENT1\_NAME>  (1190) 
22314892

>  <i_sd_BIOSOLVEIT.INFINISEE\_REAGENT2\_NAME>  (1190) 
13441678

>  <i_sd_BIOSOLVEIT.INFINISEE\_RESULT\_RANK>  (1190) 
89212

>  <i_sd_version>  (1190) 
0

>  <b_lp_Chiralities_Consistent>  (1190) 
1

>  <b_sd_chiral_flag>  (1190) 
0

>  <canonical_id>  (1190) 
ATP-HTVS-BD0B30D0980B

>  <compound_code>  (1190) 
63267

>  <title>  (1190) 
m_207bba____22314892____13441678

>  <variant>  (1190) 
63267-1

>  <source_file>  (1190) 
运行/运行/ATP-VSW/ATP-VSW-DOCK_HTVS_1-003_lib/ATP-VSW-DOCK_HTVS_1-003_lib.mae

>  <canonical_smiles>  (1190) 
Cc1ccc2nc(-c3ccc(F)cc3)c(C[NH2+]Cc3ccc(F)c(C[NH+](C)C)c3)n2c1

>  <scaffold>  (1190) 
c1ccc(C[NH2+]Cc2c(-c3ccccc3)nc3ccccn23)cc1

>  <molecular_formula>  (1190) 
C25H28F2N4+2

$$$$
ATP-HTVS-BD172DBF0B92
     RDKit          3D

 52 55  0  0  0  0  0  0  0  0999 V2000
  196.7018  185.8166  159.8002 S   0  0  0  0  0  0  0  0  0  0  0  0
  195.9309  184.2842  159.3813 C   0  0  0  0  0  0  0  0  0  0  0  0
  196.6886  183.1372  159.2737 C   0  0  0  0  0  0  0  0  0  0  0  0
  198.0527  183.1908  159.3129 F   0  0  0  0  0  0  0  0  0  0  0  0
  196.0534  181.9109  159.0094 C   0  0  0  0  0  0  0  0  0  0  0  0
  194.6758  181.8604  158.6309 C   0  0  0  0  0  0  0  0  0  0  0  0
  193.9389  183.0151  158.7594 C   0  0  0  0  0  0  0  0  0  0  0  0
  194.5441  184.2281  159.1627 C   0  0  0  0  0  0  0  0  0  0  0  0
  196.0713  187.0135  158.6076 C   0  0  1  0  0  0  0  0  0  0  0  0
  197.0996  188.0762  158.3805 C   0  0  0  0  0  0  0  0  0  0  0  0
  197.2874  189.2471  159.1871 C   0  0  0  0  0  0  0  0  0  0  0  0
  198.3628  189.9599  158.6090 C   0  0  0  0  0  0  0  0  0  0  0  0
  198.8269  189.2633  157.5130 O   0  0  0  0  0  0  0  0  0  0  0  0
  198.0565  188.1299  157.3845 C   0  0  0  0  0  0  0  0  0  0  0  0
  198.3920  187.1979  156.2837 C   0  0  0  0  0  0  0  0  0  0  0  0
  199.5307  187.1399  155.8230 O   0  0  0  0  0  0  0  0  0  0  0  0
  197.3770  186.4685  155.8045 N   0  0  0  0  0  0  0  0  0  0  0  0
  197.4540  185.5722  154.6613 C   0  0  1  0  0  0  0  0  0  0  0  0
  197.7884  184.1495  155.0422 C   0  0  0  0  0  0  0  0  0  0  0  0
  197.2090  183.5737  156.1998 C   0  0  0  0  0  0  0  0  0  0  0  0
  197.5298  182.2599  156.4751 C   0  0  0  0  0  0  0  0  0  0  0  0
  198.3635  181.4553  155.7644 C   0  0  0  0  0  0  0  0  0  0  0  0
  198.9458  182.0075  154.6015 C   0  0  0  0  0  0  0  0  0  0  0  0
  198.6461  183.3437  154.2559 C   0  0  0  0  0  0  0  0  0  0  0  0
  198.6206  180.0114  156.2135 C   0  0  1  0  0  0  0  0  0  0  0  0
  197.5589  179.1166  155.7268 N   0  0  2  0  0  0  0  0  0  0  0  0
  198.8384  191.1804  159.1171 C   0  0  0  0  0  0  0  0  0  0  0  0
  198.2233  191.7229  160.2607 C   0  0  0  0  0  0  0  0  0  0  0  0
  197.1520  191.0451  160.8701 C   0  0  0  0  0  0  0  0  0  0  0  0
  196.6888  189.8132  160.3388 C   0  0  0  0  0  0  0  0  0  0  0  0
  197.7488  178.1722  156.0410 H   0  0  0  0  0  0  0  0  0  0  0  0
  197.5199  179.1575  154.7228 H   0  0  0  0  0  0  0  0  0  0  0  0
  196.6367  181.0048  158.8535 H   0  0  0  0  0  0  0  0  0  0  0  0
  194.2803  180.9472  158.2536 H   0  0  0  0  0  0  0  0  0  0  0  0
  192.8709  182.9702  158.5924 H   0  0  0  0  0  0  0  0  0  0  0  0
  193.9295  185.1087  159.3192 H   0  0  0  0  0  0  0  0  0  0  0  0
  195.8165  186.4856  157.6954 H   0  0  0  0  0  0  0  0  0  0  0  0
  195.1427  187.4366  158.9744 H   0  0  0  0  0  0  0  0  0  0  0  0
  196.4826  186.5503  156.2643 H   0  0  0  0  0  0  0  0  0  0  0  0
  196.4881  185.5503  154.1661 H   0  0  0  0  0  0  0  0  0  0  0  0
  198.1906  185.9103  153.9554 H   0  0  0  0  0  0  0  0  0  0  0  0
  196.5288  184.1551  156.8299 H   0  0  0  0  0  0  0  0  0  0  0  0
  197.1498  181.7330  157.2478 H   0  0  0  0  0  0  0  0  0  0  0  0
  199.5987  181.3734  154.0196 H   0  0  0  0  0  0  0  0  0  0  0  0
  199.0823  183.7378  153.3896 H   0  0  0  0  0  0  0  0  0  0  0  0
  199.5784  179.6823  155.8383 H   0  0  0  0  0  0  0  0  0  0  0  0
  198.6626  179.9332  157.3153 H   0  0  0  0  0  0  0  0  0  0  0  0
  199.6645  191.6893  158.6421 H   0  0  0  0  0  0  0  0  0  0  0  0
  198.5724  192.6566  160.6744 H   0  0  0  0  0  0  0  0  0  0  0  0
  196.6757  191.4483  161.7463 H   0  0  0  0  0  0  0  0  0  0  0  0
  195.8640  189.2994  160.8142 H   0  0  0  0  0  0  0  0  0  0  0  0
  196.6651  179.3856  156.1326 H   0  0  0  0  0  0  0  0  0  0  0  0
  1  2  1  0
  1  9  1  0
  2  3  1  0
  2  8  2  0
  3  4  1  0
  3  5  2  0
  5  6  1  0
  5 33  1  0
  6  7  2  0
  6 34  1  0
  7  8  1  0
  7 35  1  0
  8 36  1  0
  9 10  1  0
  9 37  1  6
  9 38  1  0
 10 11  1  0
 10 14  2  0
 11 12  1  0
 11 30  2  0
 12 13  1  0
 12 27  2  0
 13 14  1  0
 14 15  1  0
 15 16  2  0
 15 17  1  0
 17 18  1  0
 17 39  1  0
 18 19  1  0
 18 40  1  6
 18 41  1  0
 19 20  1  0
 19 24  2  0
 20 21  2  0
 20 42  1  0
 21 22  1  0
 21 43  1  0
 22 23  2  0
 22 25  1  0
 23 24  1  0
 23 44  1  0
 24 45  1  0
 25 26  1  0
 25 46  1  6
 25 47  1  0
 26 31  1  6
 26 32  1  0
 26 52  1  0
 27 28  1  0
 27 48  1  0
 28 29  2  0
 28 49  1  0
 29 30  1  0
 29 50  1  0
 30 51  1  0
M  CHG  1  26   1
M  END
>  <s_epik_cmdline>  (1191) 
J2VwaWtfcHl0aG9uJywgJy1waCcsICc3LjAwMDAwMCcsICctcGh0JywgJzIuMDAwMDAwJywgJy1tcycsICcxNicsICctdG4nLCAnOCcsICctbWEnLCAnMjAwJywgJy1pbWFlJywgJzxpbmZpbGUubWFlPicsICctb21hZScsICc8b3V0ZmlsZS5tYWU+Jw==

>  <s_epik_input>  (1191) 
W2NIXTFbY0hdW2NIXVtjSF1jKEYpYzFTW0NIMl1jMmMob2MoYzIzKVtjSF1bY0hdW2NIXVtjSF0zKUMoPU8pW05IXVtDSDJdYzRbY0hdW2NIXWMoW2NIXVtjSF00KVtDSDJdW05IMl0=

>  <s_i_glide_gridfile>  (1191) 
ATP-Grid

>  <s_lp_Force_Field>  (1191) 
OPLS_2005

>  <s_lp_Variant>  (1191) 
m_272430bbb____11579062____10044804-1

>  <s_lp_label>  (1191) 
1946_sdstereoexpander_1_neutralizer_1_epik_1_stereoizer_1

>  <s_m_source_file>  (1191) 
ATP-VSW-LIGPREP-003-in.maegz

>  <s_sd_BIOSOLVEIT.INFINISEE\_QUERY\_NAME>  (1191) 
Ref-Lig

>  <s_sd_BIOSOLVEIT.INFINISEE\_QUERY\_SMILES>  (1191) 
S(c1nc2c(cc1C[NH2+]Cc3ccc(cc3)C[NH+](C)C)cccc2)Cc4ccccc4

>  <s_sd_BIOSOLVEIT.INFINISEE\_REACTION\_NAME>  (1191) 
m_272430bbb

>  <s_sd_BIOSOLVEIT.INFINISEE\_REAGENT1\_SMILES>  (1191) 
[R1*]NCc1ccc(cc1)CN

>  <s_sd_BIOSOLVEIT.INFINISEE\_REAGENT2\_SMILES>  (1191) 
[R1*]C(=O)C=1Oc2c(cccc2)C1CSc3c(F)cccc3

>  <s_sd_BIOSOLVEIT.INFINISEE\_SPACE>  (1191) 
REALSpace_44bn_2023-08

>  <s_vsw_compound_code>  (1191) 
62243

>  <s_vsw_variant>  (1191) 
62243-1

>  <r_epik_Charging_Adjusted_Penalty>  (1191) 
0.054846296518064198

>  <r_epik_Ionization_Penalty>  (1191) 
0.027400000000000001

>  <r_epik_Ionization_Penalty_Charging>  (1191) 
0.027400000000000001

>  <r_epik_Ionization_Penalty_Neutral>  (1191) 
0

>  <r_epik_State_Penalty>  (1191) 
0.027400000000000001

>  <r_i_docking_score>  (1191) 
-4.7656216218384397

>  <r_i_glide_ecoul>  (1191) 
-9.3909978866577095

>  <r_i_glide_eff_state_penalty>  (1191) 
0.027400000000000001

>  <r_i_glide_einternal>  (1191) 
1.40263104438782

>  <r_i_glide_emodel>  (1191) 
-62.8178645939904

>  <r_i_glide_energy>  (1191) 
-44.453307151794398

>  <r_i_glide_erotb>  (1191) 
0.78018423984505403

>  <r_i_glide_esite>  (1191) 
-0.10000000000000001

>  <r_i_glide_evdw>  (1191) 
-35.062309265136697

>  <r_i_glide_gscore>  (1191) 
-4.7930216218384398

>  <r_i_glide_hbond>  (1191) 
-0.200547498047846

>  <r_i_glide_ligand_efficiency>  (1191) 
-0.158854054061281

>  <r_i_glide_ligand_efficiency_ln>  (1191) 
-1.08280115808818

>  <r_i_glide_ligand_efficiency_sa>  (1191) 
-0.49359647992215899

>  <r_i_glide_lipo>  (1191) 
-1.3609890131257301

>  <r_i_glide_metal>  (1191) 
-0

>  <r_i_glide_rewards>  (1191) 
-0.74990420425443005

>  <r_lp_Energy>  (1191) 
15.598455

>  <r_qp_ACxDN^.5/SA>  (1191) 
0.010354800000000001

>  <r_qp_CIQPlogS>  (1191) 
-5.9630000000000001

>  <r_qp_EA(eV)>  (1191) 
0.85999999999999999

>  <r_qp_FISA>  (1191) 
87.861000000000004

>  <r_qp_FOSA>  (1191) 
121.657

>  <r_qp_IP(eV)>  (1191) 
8.7739999999999991

>  <r_qp_Jm>  (1191) 
0.0017146089247890399

>  <r_qp_PISA>  (1191) 
487.82400000000001

>  <r_qp_PSA>  (1191) 
71.962999999999994

>  <r_qp_PercentHumanOralAbsorption>  (1191) 
100

>  <r_qp_QPPCaco>  (1191) 
362.75400000000002

>  <r_qp_QPPMDCK>  (1191) 
367.767

>  <r_qp_QPlogBB>  (1191) 
-0.36599999999999999

>  <r_qp_QPlogHERG>  (1191) 
-8.2680000000000007

>  <r_qp_QPlogKhsa>  (1191) 
0.79500000000000004

>  <r_qp_QPlogKp>  (1191) 
-2.7149999999999999

>  <r_qp_QPlogPC16>  (1191) 
15.375999999999999

>  <r_qp_QPlogPo/w>  (1191) 
4.9089999999999998

>  <r_qp_QPlogPoct>  (1191) 
22.515000000000001

>  <r_qp_QPlogPw>  (1191) 
12.528

>  <r_qp_QPlogS>  (1191) 
-5.6749999999999998

>  <r_qp_QPpolrz>  (1191) 
46.115000000000002

>  <r_qp_SASA>  (1191) 
752.71799999999996

>  <r_qp_SAamideO>  (1191) 
0

>  <r_qp_SAfluorine>  (1191) 
27.193000000000001

>  <r_qp_WPSA>  (1191) 
55.375999999999998

>  <r_qp_accptHB>  (1191) 
4.5

>  <r_qp_dip^2/V>  (1191) 
0.018159399999999999

>  <r_qp_dipole>  (1191) 
4.8920000000000003

>  <r_qp_donorHB>  (1191) 
3

>  <r_qp_glob>  (1191) 
0.77235140000000002

>  <r_qp_mol_MW>  (1191) 
420.5

>  <r_qp_volume>  (1191) 
1318.0239999999999

>  <r_sd_BIOSOLVEIT.INFINISEE\_FTREES\_SIMILARITY>  (1191) 
0.90200000000000002

>  <r_sd_BIOSOLVEIT.LOGP>  (1191) 
4.5361000000000002

>  <r_sd_BIOSOLVEIT.MOLECULAR\_WEIGHT>  (1191) 
421.51299999999998

>  <r_sd_BIOSOLVEIT.TPSA>  (1191) 
69.879999999999995

>  <i_epik_Tot_Q>  (1191) 
1

>  <i_epik_Tot_abs_Q>  (1191) 
1

>  <i_f3d_flags>  (1191) 
0

>  <i_i_glide_confnum>  (1191) 
4

>  <i_i_glide_lignum>  (1191) 
740

>  <i_i_glide_posenum>  (1191) 
9

>  <i_i_glide_rotatable_bonds>  (1191) 
8

>  <i_lp_mmshare_version>  (1191) 
65135

>  <i_m_ct_format>  (1191) 
2

>  <i_m_source_file_index>  (1191) 
1946

>  <i_qp_#NandO>  (1191) 
4

>  <i_qp_#acid>  (1191) 
0

>  <i_qp_#amide>  (1191) 
0

>  <i_qp_#amidine>  (1191) 
0

>  <i_qp_#amine>  (1191) 
1

>  <i_qp_#in34>  (1191) 
0

>  <i_qp_#in56>  (1191) 
21

>  <i_qp_#metab>  (1191) 
6

>  <i_qp_#nonHatm>  (1191) 
30

>  <i_qp_#noncon>  (1191) 
0

>  <i_qp_#ringatoms>  (1191) 
21

>  <i_qp_#rotor>  (1191) 
8

>  <i_qp_#rtvFG>  (1191) 
0

>  <i_qp_#stars>  (1191) 
1

>  <i_qp_CNS>  (1191) 
0

>  <i_qp_HumanOralAbsorption>  (1191) 
3

>  <i_qp_RuleOfFive>  (1191) 
0

>  <i_qp_RuleOfThree>  (1191) 
0

>  <i_sd_BIOSOLVEIT.INFINISEE\_REAGENT1\_NAME>  (1191) 
11579062

>  <i_sd_BIOSOLVEIT.INFINISEE\_REAGENT2\_NAME>  (1191) 
10044804

>  <i_sd_BIOSOLVEIT.INFINISEE\_RESULT\_RANK>  (1191) 
87305

>  <i_sd_version>  (1191) 
0

>  <b_lp_Chiralities_Consistent>  (1191) 
1

>  <b_sd_chiral_flag>  (1191) 
0

>  <canonical_id>  (1191) 
ATP-HTVS-BD172DBF0B92

>  <compound_code>  (1191) 
62243

>  <title>  (1191) 
m_272430bbb____11579062____10044804

>  <variant>  (1191) 
62243-1

>  <source_file>  (1191) 
运行/运行/ATP-VSW/ATP-VSW-DOCK_HTVS_1-003_lib/ATP-VSW-DOCK_HTVS_1-003_lib.mae

>  <canonical_smiles>  (1191) 
[NH3+]Cc1ccc(CNC(=O)c2oc3ccccc3c2CSc2ccccc2F)cc1

>  <scaffold>  (1191) 
O=C(NCc1ccccc1)c1oc2ccccc2c1CSc1ccccc1

>  <molecular_formula>  (1191) 
C24H22FN2O2S+

$$$$
ATP-HTVS-BD1ED4B7B841
     RDKit          3D

 51 54  0  0  0  0  0  0  0  0999 V2000
  201.8292  187.8886  160.4899 F   0  0  0  0  0  0  0  0  0  0  0  0
  201.2407  186.7867  159.9780 C   0  0  0  0  0  0  0  0  0  0  0  0
  201.4918  185.5180  160.5348 C   0  0  0  0  0  0  0  0  0  0  0  0
  200.8708  184.3716  160.0068 C   0  0  0  0  0  0  0  0  0  0  0  0
  200.0815  184.4802  158.8499 C   0  0  0  0  0  0  0  0  0  0  0  0
  200.0672  185.7287  158.1525 C   0  0  0  0  0  0  0  0  0  0  0  0
  200.4288  186.9012  158.8402 C   0  0  0  0  0  0  0  0  0  0  0  0
  199.3660  183.2348  158.3251 C   0  0  1  0  0  0  0  0  0  0  0  0
  198.2704  183.4960  157.4055 N   0  0  0  0  0  0  0  0  0  0  0  0
  196.9884  183.5703  157.9812 C   0  0  0  0  0  0  0  0  0  0  0  0
  196.0502  182.5439  157.7099 C   0  0  0  0  0  0  0  0  0  0  0  0
  196.4157  181.4687  156.8995 N   0  0  0  0  0  0  0  0  0  0  0  0
  196.9161  181.4472  155.6494 C   0  0  0  0  0  0  0  0  0  0  0  0
  197.1543  182.4828  155.0181 O   0  0  0  0  0  0  0  0  0  0  0  0
  197.2277  180.0911  155.0220 C   0  0  1  0  0  0  0  0  0  0  0  0
  198.7250  179.8350  154.9179 C   0  0  0  0  0  0  0  0  0  0  0  0
  199.4979  180.4978  153.9393 C   0  0  0  0  0  0  0  0  0  0  0  0
  200.8805  180.2485  153.8372 C   0  0  0  0  0  0  0  0  0  0  0  0
  201.4977  179.3316  154.7099 C   0  0  0  0  0  0  0  0  0  0  0  0
  200.7316  178.6637  155.6848 C   0  0  0  0  0  0  0  0  0  0  0  0
  199.3492  178.9144  155.7859 C   0  0  0  0  0  0  0  0  0  0  0  0
  194.7751  182.6044  158.3360 C   0  0  0  0  0  0  0  0  0  0  0  0
  194.4632  183.6425  159.1416 N   0  0  0  0  0  0  0  0  0  0  0  0
  195.3022  184.6440  159.4135 C   0  0  0  0  0  0  0  0  0  0  0  0
  196.5654  184.6185  158.8417 C   0  0  0  0  0  0  0  0  0  0  0  0
  197.3110  185.7167  159.1832 C   0  0  0  0  0  0  0  0  0  0  0  0
  197.0460  186.7959  159.9840 C   0  0  0  0  0  0  0  0  0  0  0  0
  195.7908  186.7723  160.5426 C   0  0  0  0  0  0  0  0  0  0  0  0
  194.9155  185.7035  160.2622 C   0  0  0  0  0  0  0  0  0  0  0  0
  200.3776  182.3886  157.6741 C   0  0  0  0  0  0  0  0  0  0  0  0
  201.1839  181.7326  157.1699 N   0  0  0  0  0  0  0  0  0  0  0  0
  202.1514  185.4258  161.3776 H   0  0  0  0  0  0  0  0  0  0  0  0
  201.0619  183.4012  160.4383 H   0  0  0  0  0  0  0  0  0  0  0  0
  199.2774  185.8640  157.3916 H   0  0  0  0  0  0  0  0  0  0  0  0
  200.1757  187.8742  158.4312 H   0  0  0  0  0  0  0  0  0  0  0  0
  198.9780  182.6405  159.1593 H   0  0  0  0  0  0  0  0  0  0  0  0
  198.2883  182.8650  156.6008 H   0  0  0  0  0  0  0  0  0  0  0  0
  196.3389  180.5108  157.3337 H   0  0  0  0  0  0  0  0  0  0  0  0
  196.7544  179.3071  155.6138 H   0  0  0  0  0  0  0  0  0  0  0  0
  196.7866  180.0453  154.0267 H   0  0  0  0  0  0  0  0  0  0  0  0
  199.0319  181.2021  153.2658 H   0  0  0  0  0  0  0  0  0  0  0  0
  201.4673  180.7594  153.0881 H   0  0  0  0  0  0  0  0  0  0  0  0
  202.5579  179.1411  154.6319 H   0  0  0  0  0  0  0  0  0  0  0  0
  201.2052  177.9607  156.3549 H   0  0  0  0  0  0  0  0  0  0  0  0
  198.7664  178.3963  156.5314 H   0  0  0  0  0  0  0  0  0  0  0  0
  193.9877  181.8701  158.2210 H   0  0  0  0  0  0  0  0  0  0  0  0
  198.1444  185.7830  158.8049 H   0  0  0  0  0  0  0  0  0  0  0  0
  197.7701  187.5882  160.1505 H   0  0  0  0  0  0  0  0  0  0  0  0
  195.5023  187.5777  161.1778 H   0  0  0  0  0  0  0  0  0  0  0  0
  193.9344  185.7114  160.6973 H   0  0  0  0  0  0  0  0  0  0  0  0
  193.5408  183.6736  159.5690 H   0  0  0  0  0  0  0  0  0  0  0  0
  1  2  1  0
  2  3  1  0
  2  7  2  0
  3  4  2  0
  3 32  1  0
  4  5  1  0
  4 33  1  0
  5  6  2  0
  5  8  1  0
  6  7  1  0
  6 34  1  0
  7 35  1  0
  8  9  1  0
  8 30  1  0
  8 36  1  1
  9 10  1  0
  9 37  1  0
 10 11  2  0
 10 25  1  0
 11 12  1  0
 11 22  1  0
 12 13  1  0
 12 38  1  0
 13 14  2  0
 13 15  1  0
 15 16  1  0
 15 39  1  1
 15 40  1  0
 16 17  2  0
 16 21  1  0
 17 18  1  0
 17 41  1  0
 18 19  2  0
 18 42  1  0
 19 20  1  0
 19 43  1  0
 20 21  2  0
 20 44  1  0
 21 45  1  0
 22 23  2  0
 22 46  1  0
 23 24  1  0
 23 51  1  0
 24 25  1  0
 24 29  2  0
 25 26  2  0
 26 27  1  0
 26 47  1  0
 27 28  2  0
 27 48  1  0
 28 29  1  0
 28 49  1  0
 29 50  1  0
 30 31  3  0
M  CHG  1  23   1
M  END
>  <s_epik_cmdline>  (1192) 
J2VwaWtfcHl0aG9uJywgJy1waCcsICc3LjAwMDAwMCcsICctcGh0JywgJzIuMDAwMDAwJywgJy1tcycsICcxNicsICctdG4nLCAnOCcsICctbWEnLCAnMjAwJywgJy1pbWFlJywgJzxpbmZpbGUubWFlPicsICctb21hZScsICc8b3V0ZmlsZS5tYWU+Jw==

>  <s_epik_input>  (1192) 
RmMxW2NIXVtjSF1jKFtjSF1bY0hdMSlbQ0BIXShDI04pW05IXWMoYyhjMjMpW2NIXVtjSF1bY0hdW2NIXTMpYyhbY0hdbjIpW05IXUMoPU8pW0NIMl1jNFtjSF1bY0hdW2NIXVtjSF1bY0hdNA==

>  <s_i_glide_gridfile>  (1192) 
ATP-Grid

>  <s_lp_Force_Field>  (1192) 
OPLS_2005

>  <s_lp_Variant>  (1192) 
rxn502b____EMOL530620____EMOL30488121____EMOL906257-1

>  <s_lp_label>  (1192) 
2869_sdstereoexpander_1_neutralizer_1_epik_1_stereoizer_1

>  <s_m_source_file>  (1192) 
ATP-VSW-LIGPREP-003-in.maegz

>  <s_sd_BIOSOLVEIT.INFINISEE\_QUERY\_NAME>  (1192) 
Ref-Lig

>  <s_sd_BIOSOLVEIT.INFINISEE\_QUERY\_SMILES>  (1192) 
S(c1nc2c(cc1C[NH2+]Cc3ccc(cc3)C[NH+](C)C)cccc2)Cc4ccccc4

>  <s_sd_BIOSOLVEIT.INFINISEE\_REACTION\_NAME>  (1192) 
rxn502b

>  <s_sd_BIOSOLVEIT.INFINISEE\_REAGENT1\_NAME>  (1192) 
EMOL530620

>  <s_sd_BIOSOLVEIT.INFINISEE\_REAGENT1\_SMILES>  (1192) 
ClC(=O)Cc1ccccc1

>  <s_sd_BIOSOLVEIT.INFINISEE\_REAGENT2\_NAME>  (1192) 
EMOL30488121

>  <s_sd_BIOSOLVEIT.INFINISEE\_REAGENT2\_SMILES>  (1192) 
Brc1c(N)cnc2c1cccc2

>  <s_sd_BIOSOLVEIT.INFINISEE\_REAGENT3\_NAME>  (1192) 
EMOL906257

>  <s_sd_BIOSOLVEIT.INFINISEE\_REAGENT3\_SMILES>  (1192) 
Fc1ccc(cc1)C(N)C#N

>  <s_sd_BIOSOLVEIT.INFINISEE\_SPACE>  (1192) 
eXplore_7tr_2022-12

>  <s_vsw_compound_code>  (1192) 
91779

>  <s_vsw_variant>  (1192) 
91779-1

>  <r_epik_Charging_Adjusted_Penalty>  (1192) 
0.295783081839947

>  <r_epik_Ionization_Penalty>  (1192) 
0.095600000000000004

>  <r_epik_Ionization_Penalty_Charging>  (1192) 
0.095100000000000004

>  <r_epik_Ionization_Penalty_Neutral>  (1192) 
0.00050000000000000001

>  <r_epik_State_Penalty>  (1192) 
0.20069999999999999

>  <r_i_docking_score>  (1192) 
-4.92262054324652

>  <r_i_glide_ecoul>  (1192) 
-10.685681343078601

>  <r_i_glide_eff_state_penalty>  (1192) 
0.20069999999999999

>  <r_i_glide_einternal>  (1192) 
7.0881705284118697

>  <r_i_glide_emodel>  (1192) 
-55.853096469673801

>  <r_i_glide_energy>  (1192) 
-41.600337028503397

>  <r_i_glide_erotb>  (1192) 
0.69854657114074303

>  <r_i_glide_esite>  (1192) 
-0.175223426619004

>  <r_i_glide_evdw>  (1192) 
-30.914655685424801

>  <r_i_glide_gscore>  (1192) 
-5.1233205432465203

>  <r_i_glide_hbond>  (1192) 
-0.16

>  <r_i_glide_ligand_efficiency>  (1192) 
-0.15879421107246799

>  <r_i_glide_ligand_efficiency_ln>  (1192) 
-1.1102017927041199

>  <r_i_glide_ligand_efficiency_sa>  (1192) 
-0.49883306180381198

>  <r_i_glide_lipo>  (1192) 
-1.50652398900384

>  <r_i_glide_metal>  (1192) 
-0

>  <r_i_glide_rewards>  (1192) 
-0.83153471303138504

>  <r_lp_Energy>  (1192) 
32.559489999999997

>  <r_qp_ACxDN^.5/SA>  (1192) 
0.013063200000000001

>  <r_qp_CIQPlogS>  (1192) 
-7.4199999999999999

>  <r_qp_EA(eV)>  (1192) 
1.23

>  <r_qp_FISA>  (1192) 
106.991

>  <r_qp_FOSA>  (1192) 
45.947000000000003

>  <r_qp_IP(eV)>  (1192) 
8.8119999999999994

>  <r_qp_Jm>  (1192) 
0.026610113139071301

>  <r_qp_PISA>  (1192) 
449.58999999999997

>  <r_qp_PSA>  (1192) 
80.088999999999999

>  <r_qp_PercentHumanOralAbsorption>  (1192) 
100

>  <r_qp_QPPCaco>  (1192) 
957.87199999999996

>  <r_qp_QPPMDCK>  (1192) 
854.625

>  <r_qp_QPlogBB>  (1192) 
-0.72599999999999998

>  <r_qp_QPlogHERG>  (1192) 
-6.0720000000000001

>  <r_qp_QPlogKhsa>  (1192) 
0.46600000000000003

>  <r_qp_QPlogKp>  (1192) 
-1.2350000000000001

>  <r_qp_QPlogPC16>  (1192) 
13.664

>  <r_qp_QPlogPo/w>  (1192) 
4.3029999999999999

>  <r_qp_QPlogPoct>  (1192) 
21.234000000000002

>  <r_qp_QPlogPw>  (1192) 
12.380000000000001

>  <r_qp_QPlogS>  (1192) 
-5.9530000000000003

>  <r_qp_QPpolrz>  (1192) 
42.628

>  <r_qp_SASA>  (1192) 
649.55799999999999

>  <r_qp_SAamideO>  (1192) 
0

>  <r_qp_SAfluorine>  (1192) 
47.030000000000001

>  <r_qp_WPSA>  (1192) 
47.030000000000001

>  <r_qp_accptHB>  (1192) 
6

>  <r_qp_dip^2/V>  (1192) 
0.0363799

>  <r_qp_dipole>  (1192) 
6.673

>  <r_qp_donorHB>  (1192) 
2

>  <r_qp_glob>  (1192) 
0.85191499999999998

>  <r_qp_mol_MW>  (1192) 
410.44999999999999

>  <r_qp_volume>  (1192) 
1223.9770000000001

>  <r_sd_BIOSOLVEIT.INFINISEE\_FTREES\_SIMILARITY>  (1192) 
0.90500000000000003

>  <r_sd_BIOSOLVEIT.LOGP>  (1192) 
5.2318800000000003

>  <r_sd_BIOSOLVEIT.MOLECULAR\_WEIGHT>  (1192) 
410.44999999999999

>  <r_sd_BIOSOLVEIT.TPSA>  (1192) 
77.810000000000002

>  <i_epik_Tot_Q>  (1192) 
1

>  <i_epik_Tot_abs_Q>  (1192) 
1

>  <i_f3d_flags>  (1192) 
0

>  <i_i_glide_confnum>  (1192) 
4

>  <i_i_glide_lignum>  (1192) 
1392

>  <i_i_glide_posenum>  (1192) 
7

>  <i_i_glide_rotatable_bonds>  (1192) 
7

>  <i_lp_mmshare_version>  (1192) 
65135

>  <i_m_ct_format>  (1192) 
2

>  <i_m_source_file_index>  (1192) 
2869

>  <i_qp_#NandO>  (1192) 
5

>  <i_qp_#acid>  (1192) 
0

>  <i_qp_#amide>  (1192) 
0

>  <i_qp_#amidine>  (1192) 
0

>  <i_qp_#amine>  (1192) 
0

>  <i_qp_#in34>  (1192) 
0

>  <i_qp_#in56>  (1192) 
22

>  <i_qp_#metab>  (1192) 
5

>  <i_qp_#nonHatm>  (1192) 
31

>  <i_qp_#noncon>  (1192) 
0

>  <i_qp_#ringatoms>  (1192) 
22

>  <i_qp_#rotor>  (1192) 
7

>  <i_qp_#rtvFG>  (1192) 
0

>  <i_qp_#stars>  (1192) 
0

>  <i_qp_CNS>  (1192) 
-1

>  <i_qp_HumanOralAbsorption>  (1192) 
3

>  <i_qp_RuleOfFive>  (1192) 
0

>  <i_qp_RuleOfThree>  (1192) 
1

>  <i_sd_BIOSOLVEIT.INFINISEE\_RESULT\_RANK>  (1192) 
71188

>  <i_sd_version>  (1192) 
0

>  <b_lp_Chiralities_Consistent>  (1192) 
1

>  <b_sd_chiral_flag>  (1192) 
0

>  <canonical_id>  (1192) 
ATP-HTVS-BD1ED4B7B841

>  <compound_code>  (1192) 
91779

>  <title>  (1192) 
rxn502b____EMOL530620____EMOL30488121____EMOL906257

>  <variant>  (1192) 
91779-1

>  <source_file>  (1192) 
运行/运行/ATP-VSW/ATP-VSW-DOCK_HTVS_1-003_lib/ATP-VSW-DOCK_HTVS_1-003_lib.mae

>  <canonical_smiles>  (1192) 
N#C[C@H](Nc1c(NC(=O)Cc2ccccc2)c[nH+]c2ccccc12)c1ccc(F)cc1

>  <scaffold>  (1192) 
O=C(Cc1ccccc1)Nc1c[nH+]c2ccccc2c1NCc1ccccc1

>  <molecular_formula>  (1192) 
C25H20FN4O+

$$$$
ATP-HTVS-BD741E539D0D
     RDKit          3D

 61 64  0  0  0  0  0  0  0  0999 V2000
  196.7415  183.4076  150.1340 Cl  0  0  0  0  0  0  0  0  0  0  0  0
  196.8466  182.6313  151.6858 C   0  0  0  0  0  0  0  0  0  0  0  0
  197.1130  183.4066  152.8375 C   0  0  0  0  0  0  0  0  0  0  0  0
  197.1287  182.8200  154.1098 C   0  0  0  0  0  0  0  0  0  0  0  0
  196.9525  181.4243  154.2559 C   0  0  0  0  0  0  0  0  0  0  0  0
  196.6938  180.6383  153.0979 C   0  0  0  0  0  0  0  0  0  0  0  0
  196.6262  181.2401  151.8164 C   0  0  0  0  0  0  0  0  0  0  0  0
  196.9905  180.7680  155.6379 C   0  0  1  0  0  0  0  0  0  0  0  0
  198.3425  180.7354  156.1897 N   0  0  0  0  0  0  0  0  0  0  0  0
  199.2509  179.6837  156.0339 C   0  0  0  0  0  0  0  0  0  0  0  0
  200.4243  180.1103  156.7129 C   0  0  0  0  0  0  0  0  0  0  0  0
  200.2594  181.3692  157.2606 N   0  0  0  0  0  0  0  0  0  0  0  0
  198.9953  181.6772  156.9358 C   0  0  0  0  0  0  0  0  0  0  0  0
  198.3694  182.9666  157.3963 C   0  0  1  0  0  0  0  0  0  0  0  0
  197.2560  182.7677  158.3197 N   0  0  0  0  0  0  0  0  0  0  0  0
  196.1109  183.6301  158.0252 C   0  0  2  0  0  0  0  0  0  0  0  0
  196.2372  185.0295  158.6092 C   0  0  0  0  0  0  0  0  0  0  0  0
  196.1369  185.2428  159.9969 C   0  0  0  0  0  0  0  0  0  0  0  0
  196.2008  186.5460  160.5259 C   0  0  0  0  0  0  0  0  0  0  0  0
  196.3930  187.6556  159.6739 C   0  0  0  0  0  0  0  0  0  0  0  0
  196.4574  187.4439  158.2699 C   0  0  0  0  0  0  0  0  0  0  0  0
  196.4214  186.1402  157.7497 C   0  0  0  0  0  0  0  0  0  0  0  0
  196.5273  189.0665  160.2327 C   0  0  1  0  0  0  0  0  0  0  0  0
  197.9064  189.6414  160.1273 N   0  0  1  0  0  0  0  0  0  0  0  0
  198.5200  189.5740  158.7727 C   0  0  2  0  0  0  0  0  0  0  0  0
  197.9548  191.0194  160.6560 C   0  0  2  0  0  0  0  0  0  0  0  0
  194.8358  182.9430  158.5287 C   0  0  2  0  0  0  0  0  0  0  0  0
  201.5368  179.2383  156.7511 C   0  0  0  0  0  0  0  0  0  0  0  0
  201.4831  177.9780  156.1167 C   0  0  0  0  0  0  0  0  0  0  0  0
  200.3185  177.5755  155.4349 C   0  0  0  0  0  0  0  0  0  0  0  0
  199.1962  178.4312  155.3892 C   0  0  0  0  0  0  0  0  0  0  0  0
  196.9623  181.7915  158.3933 H   0  0  0  0  0  0  0  0  0  0  0  0
  197.2532  184.4739  152.7488 H   0  0  0  0  0  0  0  0  0  0  0  0
  197.2230  183.4874  154.9386 H   0  0  0  0  0  0  0  0  0  0  0  0
  196.5088  179.5650  153.1926 H   0  0  0  0  0  0  0  0  0  0  0  0
  196.3951  180.6448  150.9415 H   0  0  0  0  0  0  0  0  0  0  0  0
  196.3121  181.2776  156.3174 H   0  0  0  0  0  0  0  0  0  0  0  0
  196.6162  179.7444  155.5910 H   0  0  0  0  0  0  0  0  0  0  0  0
  199.1432  183.5662  157.9034 H   0  0  0  0  0  0  0  0  0  0  0  0
  198.0924  183.5416  156.5531 H   0  0  0  0  0  0  0  0  0  0  0  0
  195.9990  183.7141  156.9456 H   0  0  0  0  0  0  0  0  0  0  0  0
  195.9985  184.3958  160.6660 H   0  0  0  0  0  0  0  0  0  0  0  0
  196.1363  186.6755  161.5973 H   0  0  0  0  0  0  0  0  0  0  0  0
  196.5274  188.2834  157.5883 H   0  0  0  0  0  0  0  0  0  0  0  0
  196.5367  186.0006  156.6905 H   0  0  0  0  0  0  0  0  0  0  0  0
  195.8065  189.7225  159.7502 H   0  0  0  0  0  0  0  0  0  0  0  0
  196.2502  189.0415  161.2919 H   0  0  0  0  0  0  0  0  0  0  0  0
  197.8760  190.0895  158.0565 H   0  0  0  0  0  0  0  0  0  0  0  0
  198.6260  188.5397  158.4351 H   0  0  0  0  0  0  0  0  0  0  0  0
  199.4871  190.0906  158.7515 H   0  0  0  0  0  0  0  0  0  0  0  0
  197.2923  191.6840  160.1002 H   0  0  0  0  0  0  0  0  0  0  0  0
  198.9694  191.4111  160.5729 H   0  0  0  0  0  0  0  0  0  0  0  0
  197.6768  191.0491  161.7113 H   0  0  0  0  0  0  0  0  0  0  0  0
  193.9583  183.5497  158.2922 H   0  0  0  0  0  0  0  0  0  0  0  0
  194.8622  182.7942  159.6078 H   0  0  0  0  0  0  0  0  0  0  0  0
  194.7013  181.9700  158.0599 H   0  0  0  0  0  0  0  0  0  0  0  0
  202.4311  179.5348  157.2800 H   0  0  0  0  0  0  0  0  0  0  0  0
  202.3449  177.3247  156.1605 H   0  0  0  0  0  0  0  0  0  0  0  0
  200.2877  176.6025  154.9628 H   0  0  0  0  0  0  0  0  0  0  0  0
  198.2954  178.1123  154.8885 H   0  0  0  0  0  0  0  0  0  0  0  0
  198.4991  189.1055  160.7530 H   0  0  0  0  0  0  0  0  0  0  0  0
  1  2  1  0
  2  3  1  0
  2  7  2  0
  3  4  2  0
  3 33  1  0
  4  5  1  0
  4 34  1  0
  5  6  2  0
  5  8  1  0
  6  7  1  0
  6 35  1  0
  7 36  1  0
  8  9  1  0
  8 37  1  1
  8 38  1  0
  9 10  1  0
  9 13  1  0
 10 11  1  0
 10 31  2  0
 11 12  1  0
 11 28  2  0
 12 13  2  0
 13 14  1  0
 14 15  1  0
 14 39  1  1
 14 40  1  0
 15 16  1  0
 15 32  1  0
 16 17  1  0
 16 27  1  0
 16 41  1  6
 17 18  1  0
 17 22  2  0
 18 19  2  0
 18 42  1  0
 19 20  1  0
 19 43  1  0
 20 21  2  0
 20 23  1  0
 21 22  1  0
 21 44  1  0
 22 45  1  0
 23 24  1  0
 23 46  1  6
 23 47  1  0
 24 25  1  0
 24 26  1  0
 24 61  1  1
 25 48  1  6
 25 49  1  0
 25 50  1  0
 26 51  1  6
 26 52  1  0
 26 53  1  0
 27 54  1  1
 27 55  1  0
 27 56  1  0
 28 29  1  0
 28 57  1  0
 29 30  2  0
 29 58  1  0
 30 31  1  0
 30 59  1  0
 31 60  1  0
M  CHG  1  24   1
M  END
>  <s_epik_cmdline>  (1193) 
J2VwaWtfcHl0aG9uJywgJy1waCcsICc3LjAwMDAwMCcsICctcGh0JywgJzIuMDAwMDAwJywgJy1tcycsICcxNicsICctdG4nLCAnOCcsICctbWEnLCAnMjAwJywgJy1pbWFlJywgJzxpbmZpbGUubWFlPicsICctb21hZScsICc8b3V0ZmlsZS5tYWU+Jw==

>  <s_epik_input>  (1193) 
Q2xjMVtjSF1bY0hdYyhbY0hdW2NIXTEpW0NIMl1uMmMobmMoYzIzKVtjSF1bY0hdW2NIXVtjSF0zKVtDSDJdW05IXVtDQEBIXShbQ0gzXSljNFtjSF1bY0hdYyhbY0hdW2NIXTQpW0NIMl1OKFtDSDNdKVtDSDNd

>  <s_i_glide_gridfile>  (1193) 
ATP-Grid

>  <s_lp_Force_Field>  (1193) 
OPLS_2005

>  <s_lp_Variant>  (1193) 
m_270004beb____23853920____7549102-2

>  <s_lp_label>  (1193) 
727_sdstereoexpander_2_neutralizer_1_epik_1_stereoizer_1

>  <s_m_source_file>  (1193) 
ATP-VSW-LIGPREP-003-in.maegz

>  <s_sd_BIOSOLVEIT.INFINISEE\_QUERY\_NAME>  (1193) 
Ref-Lig

>  <s_sd_BIOSOLVEIT.INFINISEE\_QUERY\_SMILES>  (1193) 
S(c1nc2c(cc1C[NH2+]Cc3ccc(cc3)C[NH+](C)C)cccc2)Cc4ccccc4

>  <s_sd_BIOSOLVEIT.INFINISEE\_REACTION\_NAME>  (1193) 
m_270004beb

>  <s_sd_BIOSOLVEIT.INFINISEE\_REAGENT1\_SMILES>  (1193) 
[R1*]NC(c1ccc(cc1)CN(C)C)C

>  <s_sd_BIOSOLVEIT.INFINISEE\_REAGENT2\_SMILES>  (1193) 
[R1*]CC1=Nc2c(N1Cc3ccc(Cl)cc3)cccc2

>  <s_sd_BIOSOLVEIT.INFINISEE\_SPACE>  (1193) 
REALSpace_44bn_2023-08

>  <s_vsw_compound_code>  (1193) 
23235

>  <s_vsw_variant>  (1193) 
23235-2

>  <r_epik_Charging_Adjusted_Penalty>  (1193) 
0.51583688236211001

>  <r_epik_Ionization_Penalty>  (1193) 
0.52539999999999998

>  <r_epik_Ionization_Penalty_Charging>  (1193) 
0.042000000000000003

>  <r_epik_Ionization_Penalty_Neutral>  (1193) 
0.4834

>  <r_epik_State_Penalty>  (1193) 
0.4738

>  <r_i_docking_score>  (1193) 
-3.8453733869727702

>  <r_i_glide_ecoul>  (1193) 
-6.9461817741393999

>  <r_i_glide_eff_state_penalty>  (1193) 
0.4738

>  <r_i_glide_einternal>  (1193) 
4.2768220901489302

>  <r_i_glide_emodel>  (1193) 
-56.598680368007699

>  <r_i_glide_energy>  (1193) 
-43.720546245575001

>  <r_i_glide_erotb>  (1193) 
0.74001508897049195

>  <r_i_glide_esite>  (1193) 
-0.14986776002702901

>  <r_i_glide_evdw>  (1193) 
-36.774364471435497

>  <r_i_glide_gscore>  (1193) 
-4.3191733869727704

>  <r_i_glide_hbond>  (1193) 
-0.113774413315285

>  <r_i_glide_ligand_efficiency>  (1193) 
-0.12404430280557301

>  <r_i_glide_ligand_efficiency_ln>  (1193) 
-0.86724954530383602

>  <r_i_glide_ligand_efficiency_sa>  (1193) 
-0.389670372426766

>  <r_i_glide_lipo>  (1193) 
-1.4648728583627999

>  <r_i_glide_metal>  (1193) 
-0

>  <r_i_glide_rewards>  (1193) 
-0.45002795454545302

>  <r_lp_Energy>  (1193) 
14.566426999999999

>  <r_qp_ACxDN^.5/SA>  (1193) 
0.0077148

>  <r_qp_CIQPlogS>  (1193) 
-5.1890000000000001

>  <r_qp_EA(eV)>  (1193) 
0.375

>  <r_qp_FISA>  (1193) 
18.837

>  <r_qp_FOSA>  (1193) 
259.71300000000002

>  <r_qp_IP(eV)>  (1193) 
8.4299999999999997

>  <r_qp_Jm>  (1193) 
0.043733900419480498

>  <r_qp_PISA>  (1193) 
297.90699999999998

>  <r_qp_PSA>  (1193) 
29.210999999999999

>  <r_qp_PercentHumanOralAbsorption>  (1193) 
100

>  <r_qp_QPPCaco>  (1193) 
408.38400000000001

>  <r_qp_QPPMDCK>  (1193) 
567.83199999999999

>  <r_qp_QPlogBB>  (1193) 
0.89800000000000002

>  <r_qp_QPlogHERG>  (1193) 
-6.093

>  <r_qp_QPlogKhsa>  (1193) 
0.90800000000000003

>  <r_qp_QPlogKp>  (1193) 
-4.1740000000000004

>  <r_qp_QPlogPC16>  (1193) 
13.397

>  <r_qp_QPlogPo/w>  (1193) 
4.9199999999999999

>  <r_qp_QPlogPoct>  (1193) 
19.058

>  <r_qp_QPlogPw>  (1193) 
8.0830000000000002

>  <r_qp_QPlogS>  (1193) 
-2.8210000000000002

>  <r_qp_QPpolrz>  (1193) 
44.183999999999997

>  <r_qp_SASA>  (1193) 
648.10699999999997

>  <r_qp_SAamideO>  (1193) 
0

>  <r_qp_SAfluorine>  (1193) 
0

>  <r_qp_WPSA>  (1193) 
71.650000000000006

>  <r_qp_accptHB>  (1193) 
5

>  <r_qp_dip^2/V>  (1193) 
0.0119066

>  <r_qp_dipole>  (1193) 
3.9569999999999999

>  <r_qp_donorHB>  (1193) 
1

>  <r_qp_glob>  (1193) 
0.89568700000000001

>  <r_qp_mol_MW>  (1193) 
432.995

>  <r_qp_volume>  (1193) 
1315.0940000000001

>  <r_sd_BIOSOLVEIT.INFINISEE\_FTREES\_SIMILARITY>  (1193) 
0.92800000000000005

>  <r_sd_BIOSOLVEIT.LOGP>  (1193) 
3.2071000000000001

>  <r_sd_BIOSOLVEIT.MOLECULAR\_WEIGHT>  (1193) 
435.012

>  <r_sd_BIOSOLVEIT.TPSA>  (1193) 
38.869999999999997

>  <i_epik_Tot_Q>  (1193) 
1

>  <i_epik_Tot_abs_Q>  (1193) 
1

>  <i_f3d_flags>  (1193) 
0

>  <i_i_glide_confnum>  (1193) 
8

>  <i_i_glide_lignum>  (1193) 
307

>  <i_i_glide_posenum>  (1193) 
7

>  <i_i_glide_rotatable_bonds>  (1193) 
8

>  <i_lp_mmshare_version>  (1193) 
65135

>  <i_m_ct_format>  (1193) 
2

>  <i_m_source_file_index>  (1193) 
727

>  <i_qp_#NandO>  (1193) 
4

>  <i_qp_#acid>  (1193) 
0

>  <i_qp_#amide>  (1193) 
0

>  <i_qp_#amidine>  (1193) 
0

>  <i_qp_#amine>  (1193) 
2

>  <i_qp_#in34>  (1193) 
0

>  <i_qp_#in56>  (1193) 
21

>  <i_qp_#metab>  (1193) 
6

>  <i_qp_#nonHatm>  (1193) 
31

>  <i_qp_#noncon>  (1193) 
0

>  <i_qp_#ringatoms>  (1193) 
21

>  <i_qp_#rotor>  (1193) 
8

>  <i_qp_#rtvFG>  (1193) 
0

>  <i_qp_#stars>  (1193) 
0

>  <i_qp_CNS>  (1193) 
2

>  <i_qp_HumanOralAbsorption>  (1193) 
3

>  <i_qp_RuleOfFive>  (1193) 
0

>  <i_qp_RuleOfThree>  (1193) 
0

>  <i_sd_BIOSOLVEIT.INFINISEE\_REAGENT1\_NAME>  (1193) 
23853920

>  <i_sd_BIOSOLVEIT.INFINISEE\_REAGENT2\_NAME>  (1193) 
7549102

>  <i_sd_BIOSOLVEIT.INFINISEE\_RESULT\_RANK>  (1193) 
6262

>  <i_sd_version>  (1193) 
0

>  <b_lp_Chiralities_Consistent>  (1193) 
1

>  <b_sd_chiral_flag>  (1193) 
0

>  <canonical_id>  (1193) 
ATP-HTVS-BD741E539D0D

>  <compound_code>  (1193) 
23235

>  <title>  (1193) 
m_270004beb____23853920____7549102

>  <variant>  (1193) 
23235-2

>  <source_file>  (1193) 
运行/运行/ATP-VSW/ATP-VSW-DOCK_HTVS_1-003_lib/ATP-VSW-DOCK_HTVS_1-003_lib.mae

>  <canonical_smiles>  (1193) 
C[C@H](NCc1nc2ccccc2n1Cc1ccc(Cl)cc1)c1ccc(C[NH+](C)C)cc1

>  <scaffold>  (1193) 
c1ccc(CNCc2nc3ccccc3n2Cc2ccccc2)cc1

>  <molecular_formula>  (1193) 
C26H30ClN4+

$$$$
ATP-HTVS-BD9D807D92EC
     RDKit          3D

 60 63  0  0  0  0  0  0  0  0999 V2000
  195.0930  183.0280  158.3883 O   0  0  0  0  0  0  0  0  0  0  0  0
  195.9433  183.8625  158.6931 C   0  0  0  0  0  0  0  0  0  0  0  0
  197.2469  183.7938  158.3831 N   0  0  0  0  0  0  0  0  0  0  0  0
  197.9271  182.9457  157.4591 C   0  0  0  0  0  0  0  0  0  0  0  0
  197.2470  182.1774  156.5676 N   0  0  0  0  0  0  0  0  0  0  0  0
  197.9149  181.3781  155.7120 C   0  0  0  0  0  0  0  0  0  0  0  0
  199.3336  181.3451  155.6962 C   0  0  0  0  0  0  0  0  0  0  0  0
  200.0407  182.2007  156.5416 C   0  0  0  0  0  0  0  0  0  0  0  0
  199.3601  182.9680  157.5022 C   0  0  0  0  0  0  0  0  0  0  0  0
  200.0870  183.7236  158.4552 N   0  0  0  0  0  0  0  0  0  0  0  0
  199.8887  185.0564  158.5043 C   0  0  0  0  0  0  0  0  0  0  0  0
  199.7727  186.2113  158.5127 N   0  0  0  0  0  0  0  0  0  0  0  0
  201.1115  183.1415  159.2751 C   0  0  0  0  0  0  0  0  0  0  0  0
  201.5310  183.8514  160.4356 C   0  0  0  0  0  0  0  0  0  0  0  0
  202.5621  183.3390  161.2776 C   0  0  0  0  0  0  0  0  0  0  0  0
  203.2051  182.1215  160.9401 C   0  0  0  0  0  0  0  0  0  0  0  0
  202.7851  181.4295  159.7822 C   0  0  0  0  0  0  0  0  0  0  0  0
  201.7448  181.9045  158.9888 C   0  0  0  0  0  0  0  0  0  0  0  0
  200.0239  180.4425  154.8606 C   0  0  0  0  0  0  0  0  0  0  0  0
  199.3184  179.6137  153.9624 C   0  0  0  0  0  0  0  0  0  0  0  0
  197.9115  179.6972  153.9229 C   0  0  0  0  0  0  0  0  0  0  0  0
  197.2099  180.5543  154.7970 C   0  0  0  0  0  0  0  0  0  0  0  0
  195.5797  185.0538  159.5592 C   0  0  0  0  0  0  0  0  0  0  0  0
  194.3010  185.1242  160.1710 C   0  0  0  0  0  0  0  0  0  0  0  0
  193.9652  186.2464  160.9642 C   0  0  0  0  0  0  0  0  0  0  0  0
  194.8910  187.2975  161.1740 C   0  0  0  0  0  0  0  0  0  0  0  0
  194.5213  188.3996  161.9249 O   0  0  0  0  0  0  0  0  0  0  0  0
  195.1586  189.6370  161.6082 C   0  0  1  0  0  0  0  0  0  0  0  0
  194.2295  190.7760  162.0411 C   0  0  1  0  0  0  0  0  0  0  0  0
  192.9135  190.7180  161.3468 N   0  0  1  0  0  0  0  0  0  0  0  0
  191.9523  189.7804  161.9870 C   0  0  2  0  0  0  0  0  0  0  0  0
  192.3005  192.0462  161.1471 C   0  0  2  0  0  0  0  0  0  0  0  0
  196.1567  187.2087  160.5724 C   0  0  0  0  0  0  0  0  0  0  0  0
  196.5107  186.1151  159.7507 C   0  0  0  0  0  0  0  0  0  0  0  0
  197.8594  184.4836  158.8000 H   0  0  0  0  0  0  0  0  0  0  0  0
  201.1325  182.2273  156.4637 H   0  0  0  0  0  0  0  0  0  0  0  0
  201.0674  184.7848  160.7368 H   0  0  0  0  0  0  0  0  0  0  0  0
  202.8306  183.8684  162.1906 H   0  0  0  0  0  0  0  0  0  0  0  0
  203.9837  181.7108  161.5809 H   0  0  0  0  0  0  0  0  0  0  0  0
  203.2656  180.4945  159.5191 H   0  0  0  0  0  0  0  0  0  0  0  0
  201.4563  181.2641  158.1438 H   0  0  0  0  0  0  0  0  0  0  0  0
  201.0994  180.3769  154.9055 H   0  0  0  0  0  0  0  0  0  0  0  0
  199.8591  178.9493  153.3036 H   0  0  0  0  0  0  0  0  0  0  0  0
  197.3647  179.0867  153.2121 H   0  0  0  0  0  0  0  0  0  0  0  0
  196.1330  180.6187  154.7708 H   0  0  0  0  0  0  0  0  0  0  0  0
  193.5605  184.3449  159.9850 H   0  0  0  0  0  0  0  0  0  0  0  0
  192.9697  186.3082  161.4030 H   0  0  0  0  0  0  0  0  0  0  0  0
  196.1123  189.7130  162.1338 H   0  0  0  0  0  0  0  0  0  0  0  0
  195.3785  189.7485  160.5401 H   0  0  0  0  0  0  0  0  0  0  0  0
  194.0914  190.7799  163.1232 H   0  0  0  0  0  0  0  0  0  0  0  0
  194.7436  191.7062  161.7947 H   0  0  0  0  0  0  0  0  0  0  0  0
  191.7437  190.0964  163.0126 H   0  0  0  0  0  0  0  0  0  0  0  0
  192.2994  188.7520  162.0346 H   0  0  0  0  0  0  0  0  0  0  0  0
  191.0188  189.7299  161.4232 H   0  0  0  0  0  0  0  0  0  0  0  0
  192.1093  192.5299  162.1085 H   0  0  0  0  0  0  0  0  0  0  0  0
  191.3418  191.9574  160.6325 H   0  0  0  0  0  0  0  0  0  0  0  0
  192.9364  192.6997  160.5469 H   0  0  0  0  0  0  0  0  0  0  0  0
  196.9151  187.9662  160.6985 H   0  0  0  0  0  0  0  0  0  0  0  0
  197.4948  186.1304  159.2984 H   0  0  0  0  0  0  0  0  0  0  0  0
  193.1204  190.3337  160.4145 H   0  0  0  0  0  0  0  0  0  0  0  0
  1  2  2  0
  2  3  1  0
  2 23  1  0
  3  4  1  0
  3 35  1  0
  4  5  2  0
  4  9  1  0
  5  6  1  0
  6  7  1  0
  6 22  2  0
  7  8  1  0
  7 19  2  0
  8  9  2  0
  8 36  1  0
  9 10  1  0
 10 11  1  0
 10 13  1  0
 11 12  3  0
 13 14  2  0
 13 18  1  0
 14 15  1  0
 14 37  1  0
 15 16  2  0
 15 38  1  0
 16 17  1  0
 16 39  1  0
 17 18  2  0
 17 40  1  0
 18 41  1  0
 19 20  1  0
 19 42  1  0
 20 21  2  0
 20 43  1  0
 21 22  1  0
 21 44  1  0
 22 45  1  0
 23 24  1  0
 23 34  2  0
 24 25  2  0
 24 46  1  0
 25 26  1  0
 25 47  1  0
 26 27  1  0
 26 33  2  0
 27 28  1  0
 28 29  1  0
 28 48  1  1
 28 49  1  0
 29 30  1  0
 29 50  1  1
 29 51  1  0
 30 31  1  0
 30 32  1  0
 30 60  1  6
 31 52  1  1
 31 53  1  0
 31 54  1  0
 32 55  1  1
 32 56  1  0
 32 57  1  0
 33 34  1  0
 33 58  1  0
 34 59  1  0
M  CHG  1  30   1
M  END
>  <s_epik_cmdline>  (1194) 
J2VwaWtfcHl0aG9uJywgJy1waCcsICc3LjAwMDAwMCcsICctcGh0JywgJzIuMDAwMDAwJywgJy1tcycsICcxNicsICctdG4nLCAnOCcsICctbWEnLCAnMjAwJywgJy1pbWFlJywgJzxpbmZpbGUubWFlPicsICctb21hZScsICc8b3V0ZmlsZS5tYWU+Jw==

>  <s_epik_input>  (1194) 
W0NIM11OKFtDSDNdKVtDSDJdW0NIMl1PYyhbY0hdW2NIXTEpW2NIXVtjSF1jMUMoPU8pW05IXWMobjIpYyhbY0hdYyhjMjMpW2NIXVtjSF1bY0hdW2NIXTMpTihDI04pYzRbY0hdW2NIXVtjSF1bY0hdW2NIXTQ=

>  <s_i_glide_gridfile>  (1194) 
ATP-Grid

>  <s_lp_Force_Field>  (1194) 
OPLS_2005

>  <s_lp_Variant>  (1194) 
rxn502b____EMOL70144015____EMOL44466703____EMOL36822768-1

>  <s_lp_label>  (1194) 
2948_sdstereoexpander_1_neutralizer_1_epik_1_stereoizer_1

>  <s_m_source_file>  (1194) 
ATP-VSW-LIGPREP-001-in.maegz

>  <s_sd_BIOSOLVEIT.INFINISEE\_QUERY\_NAME>  (1194) 
Ref-Lig

>  <s_sd_BIOSOLVEIT.INFINISEE\_QUERY\_SMILES>  (1194) 
S(c1nc2c(cc1C[NH2+]Cc3ccc(cc3)C[NH+](C)C)cccc2)Cc4ccccc4

>  <s_sd_BIOSOLVEIT.INFINISEE\_REACTION\_NAME>  (1194) 
rxn502b

>  <s_sd_BIOSOLVEIT.INFINISEE\_REAGENT1\_NAME>  (1194) 
EMOL70144015

>  <s_sd_BIOSOLVEIT.INFINISEE\_REAGENT1\_SMILES>  (1194) 
O=C(O)c1ccc(OCCN(C)C)cc1

>  <s_sd_BIOSOLVEIT.INFINISEE\_REAGENT2\_NAME>  (1194) 
EMOL44466703

>  <s_sd_BIOSOLVEIT.INFINISEE\_REAGENT2\_SMILES>  (1194) 
Brc1c(nc2c(c1)cccc2)N

>  <s_sd_BIOSOLVEIT.INFINISEE\_REAGENT3\_NAME>  (1194) 
EMOL36822768

>  <s_sd_BIOSOLVEIT.INFINISEE\_REAGENT3\_SMILES>  (1194) 
N#CNc1ccccc1

>  <s_sd_BIOSOLVEIT.INFINISEE\_SPACE>  (1194) 
eXplore_7tr_2022-12

>  <s_vsw_compound_code>  (1194) 
94305

>  <s_vsw_variant>  (1194) 
94305-1

>  <r_epik_Charging_Adjusted_Penalty>  (1194) 
0.049611777781538503

>  <r_epik_Ionization_Penalty>  (1194) 
0.024799999999999999

>  <r_epik_Ionization_Penalty_Charging>  (1194) 
0.024799999999999999

>  <r_epik_Ionization_Penalty_Neutral>  (1194) 
0

>  <r_epik_State_Penalty>  (1194) 
0.024799999999999999

>  <r_i_docking_score>  (1194) 
-4.1892668122636403

>  <r_i_glide_ecoul>  (1194) 
-5.3829154968261701

>  <r_i_glide_eff_state_penalty>  (1194) 
0.024799999999999999

>  <r_i_glide_einternal>  (1194) 
10.7365064620972

>  <r_i_glide_emodel>  (1194) 
-51.8584247311165

>  <r_i_glide_energy>  (1194) 
-42.270755767822301

>  <r_i_glide_erotb>  (1194) 
0.78389329969259403

>  <r_i_glide_esite>  (1194) 
-0.040317753020194698

>  <r_i_glide_evdw>  (1194) 
-36.887840270996101

>  <r_i_glide_gscore>  (1194) 
-4.2140668122636402

>  <r_i_glide_hbond>  (1194) 
-0.0139124497185608

>  <r_i_glide_ligand_efficiency>  (1194) 
-0.12321372977246001

>  <r_i_glide_ligand_efficiency_ln>  (1194) 
-0.92552654378296395

>  <r_i_glide_ligand_efficiency_sa>  (1194) 
-0.39916465258107697

>  <r_i_glide_lipo>  (1194) 
-1.8265593580355699

>  <r_i_glide_metal>  (1194) 
-0

>  <r_i_glide_rewards>  (1194) 
-0.465341213108176

>  <r_lp_Energy>  (1194) 
43.028365999999998

>  <r_lp_tautomer_probability>  (1194) 
1

>  <r_qp_ACxDN^.5/SA>  (1194) 
0.0099663000000000009

>  <r_qp_CIQPlogS>  (1194) 
-5.3479999999999999

>  <r_qp_EA(eV)>  (1194) 
1.252

>  <r_qp_FISA>  (1194) 
103.003

>  <r_qp_FOSA>  (1194) 
221.392

>  <r_qp_IP(eV)>  (1194) 
8.8409999999999993

>  <r_qp_Jm>  (1194) 
0.0020777387088408198

>  <r_qp_PISA>  (1194) 
503.39400000000001

>  <r_qp_PSA>  (1194) 
84.590999999999994

>  <r_qp_PercentHumanOralAbsorption>  (1194) 
96.132000000000005

>  <r_qp_QPPCaco>  (1194) 
260.62700000000001

>  <r_qp_QPPMDCK>  (1194) 
127.943

>  <r_qp_QPlogBB>  (1194) 
-0.77200000000000002

>  <r_qp_QPlogHERG>  (1194) 
-8.5579999999999998

>  <r_qp_QPlogKhsa>  (1194) 
0.57599999999999996

>  <r_qp_QPlogKp>  (1194) 
-2.843

>  <r_qp_QPlogPC16>  (1194) 
16.756

>  <r_qp_QPlogPo/w>  (1194) 
4.431

>  <r_qp_QPlogPoct>  (1194) 
23.672000000000001

>  <r_qp_QPlogPw>  (1194) 
13.442

>  <r_qp_QPlogS>  (1194) 
-5.4939999999999998

>  <r_qp_QPpolrz>  (1194) 
52.143000000000001

>  <r_qp_SASA>  (1194) 
827.78899999999999

>  <r_qp_SAamideO>  (1194) 
0

>  <r_qp_SAfluorine>  (1194) 
0

>  <r_qp_WPSA>  (1194) 
0

>  <r_qp_accptHB>  (1194) 
8.25

>  <r_qp_dip^2/V>  (1194) 
0.029798600000000001

>  <r_qp_dipole>  (1194) 
6.6429999999999998

>  <r_qp_donorHB>  (1194) 
1

>  <r_qp_glob>  (1194) 
0.75905840000000002

>  <r_qp_mol_MW>  (1194) 
451.52699999999999

>  <r_qp_volume>  (1194) 
1480.9649999999999

>  <r_sd_BIOSOLVEIT.INFINISEE\_FTREES\_SIMILARITY>  (1194) 
0.90300000000000002

>  <r_sd_BIOSOLVEIT.LOGP>  (1194) 
3.6295799999999998

>  <r_sd_BIOSOLVEIT.MOLECULAR\_WEIGHT>  (1194) 
452.53500000000003

>  <r_sd_BIOSOLVEIT.TPSA>  (1194) 
82.689999999999998

>  <i_epik_Tot_Q>  (1194) 
1

>  <i_epik_Tot_abs_Q>  (1194) 
1

>  <i_f3d_flags>  (1194) 
0

>  <i_i_glide_confnum>  (1194) 
7

>  <i_i_glide_lignum>  (1194) 
1395

>  <i_i_glide_posenum>  (1194) 
16

>  <i_i_glide_rotatable_bonds>  (1194) 
9

>  <i_lp_mmshare_version>  (1194) 
65135

>  <i_m_ct_format>  (1194) 
2

>  <i_m_source_file_index>  (1194) 
2948

>  <i_qp_#NandO>  (1194) 
7

>  <i_qp_#acid>  (1194) 
0

>  <i_qp_#amide>  (1194) 
0

>  <i_qp_#amidine>  (1194) 
0

>  <i_qp_#amine>  (1194) 
1

>  <i_qp_#in34>  (1194) 
0

>  <i_qp_#in56>  (1194) 
22

>  <i_qp_#metab>  (1194) 
3

>  <i_qp_#nonHatm>  (1194) 
34

>  <i_qp_#noncon>  (1194) 
0

>  <i_qp_#ringatoms>  (1194) 
22

>  <i_qp_#rotor>  (1194) 
9

>  <i_qp_#rtvFG>  (1194) 
0

>  <i_qp_#stars>  (1194) 
1

>  <i_qp_CNS>  (1194) 
0

>  <i_qp_HumanOralAbsorption>  (1194) 
3

>  <i_qp_RuleOfFive>  (1194) 
0

>  <i_qp_RuleOfThree>  (1194) 
0

>  <i_sd_BIOSOLVEIT.INFINISEE\_RESULT\_RANK>  (1194) 
79950

>  <i_sd_version>  (1194) 
0

>  <b_lp_Chiralities_Consistent>  (1194) 
1

>  <b_sd_chiral_flag>  (1194) 
0

>  <canonical_id>  (1194) 
ATP-HTVS-BD9D807D92EC

>  <compound_code>  (1194) 
94305

>  <title>  (1194) 
rxn502b____EMOL70144015____EMOL44466703____EMOL36822768

>  <variant>  (1194) 
94305-1

>  <source_file>  (1194) 
运行/运行/ATP-VSW/ATP-VSW-DOCK_HTVS_1-001_lib/ATP-VSW-DOCK_HTVS_1-001_lib

>  <canonical_smiles>  (1194) 
C[NH+](C)CCOc1ccc(C(=O)Nc2nc3ccccc3cc2N(C#N)c2ccccc2)cc1

>  <scaffold>  (1194) 
O=C(Nc1nc2ccccc2cc1Nc1ccccc1)c1ccccc1

>  <molecular_formula>  (1194) 
C27H26N5O2+

$$$$
ATP-HTVS-BDB37C4B0D07
     RDKit          3D

 64 66  0  0  0  0  0  0  0  0999 V2000
  197.7904  183.9167  159.0434 O   0  0  0  0  0  0  0  0  0  0  0  0
  196.4280  184.0930  159.2368 C   0  0  0  0  0  0  0  0  0  0  0  0
  195.8544  185.1851  159.9640 C   0  0  0  0  0  0  0  0  0  0  0  0
  196.6698  186.1409  160.5211 O   0  0  0  0  0  0  0  0  0  0  0  0
  196.1270  187.3572  160.9363 C   0  0  2  0  0  0  0  0  0  0  0  0
  194.4417  185.2303  160.1287 C   0  0  0  0  0  0  0  0  0  0  0  0
  193.6148  184.2234  159.5602 C   0  0  0  0  0  0  0  0  0  0  0  0
  194.1799  183.1716  158.8646 C   0  0  0  0  0  0  0  0  0  0  0  0
  195.5810  183.0899  158.7074 C   0  0  0  0  0  0  0  0  0  0  0  0
  196.1456  181.9137  157.9380 C   0  0  1  0  0  0  0  0  0  0  0  0
  196.3101  182.2657  156.5190 N   0  0  1  0  0  0  0  0  0  0  0  0
  196.8183  181.1717  155.6633 C   0  0  1  0  0  0  0  0  0  0  0  0
  196.8796  181.5859  154.1635 C   0  0  2  0  0  0  0  0  0  0  0  0
  197.3675  180.4158  153.3333 C   0  0  0  0  0  0  0  0  0  0  0  0
  198.6141  179.8256  153.5906 C   0  0  0  0  0  0  0  0  0  0  0  0
  199.1277  178.8163  152.7572 C   0  0  0  0  0  0  0  0  0  0  0  0
  198.3899  178.4067  151.6293 C   0  0  0  0  0  0  0  0  0  0  0  0
  197.1435  179.0084  151.3569 C   0  0  0  0  0  0  0  0  0  0  0  0
  196.6019  179.9685  152.2137 C   0  0  0  0  0  0  0  0  0  0  0  0
  197.7500  182.8545  153.9156 C   0  0  1  0  0  0  0  0  0  0  0  0
  197.7245  183.4453  152.5445 N   0  0  1  0  0  0  0  0  0  0  0  0
  198.4409  182.6732  151.4904 C   0  0  2  0  0  0  0  0  0  0  0  0
  196.3793  183.8920  152.1260 C   0  0  2  0  0  0  0  0  0  0  0  0
  198.7173  185.0232  159.0255 C   0  0  1  0  0  0  0  0  0  0  0  0
  198.5531  185.9296  157.8074 C   0  0  0  0  0  0  0  0  0  0  0  0
  198.9275  187.2841  157.8903 C   0  0  0  0  0  0  0  0  0  0  0  0
  198.8315  188.1238  156.7624 C   0  0  0  0  0  0  0  0  0  0  0  0
  198.3572  187.6125  155.5377 C   0  0  0  0  0  0  0  0  0  0  0  0
  197.9674  186.2608  155.4459 C   0  0  0  0  0  0  0  0  0  0  0  0
  198.0764  185.4233  156.5790 C   0  0  0  0  0  0  0  0  0  0  0  0
  195.3958  182.5671  156.1649 H   0  0  0  0  0  0  0  0  0  0  0  0
  196.9281  187.9850  161.2989 H   0  0  0  0  0  0  0  0  0  0  0  0
  195.3991  187.2999  161.7594 H   0  0  0  0  0  0  0  0  0  0  0  0
  195.6659  187.9027  160.1041 H   0  0  0  0  0  0  0  0  0  0  0  0
  193.9500  186.0191  160.6769 H   0  0  0  0  0  0  0  0  0  0  0  0
  192.5501  184.2919  159.6900 H   0  0  0  0  0  0  0  0  0  0  0  0
  193.5379  182.3962  158.4518 H   0  0  0  0  0  0  0  0  0  0  0  0
  197.1025  181.5793  158.3498 H   0  0  0  0  0  0  0  0  0  0  0  0
  195.4434  181.0824  158.0111 H   0  0  0  0  0  0  0  0  0  0  0  0
  197.8016  180.8819  156.0316 H   0  0  0  0  0  0  0  0  0  0  0  0
  196.1606  180.3086  155.7732 H   0  0  0  0  0  0  0  0  0  0  0  0
  195.8501  181.8085  153.8945 H   0  0  0  0  0  0  0  0  0  0  0  0
  199.2368  180.1844  154.3978 H   0  0  0  0  0  0  0  0  0  0  0  0
  200.1061  178.4113  152.9380 H   0  0  0  0  0  0  0  0  0  0  0  0
  198.7989  177.6724  150.9588 H   0  0  0  0  0  0  0  0  0  0  0  0
  196.6117  178.7259  150.4585 H   0  0  0  0  0  0  0  0  0  0  0  0
  195.6485  180.4122  151.9930 H   0  0  0  0  0  0  0  0  0  0  0  0
  197.3378  183.6355  154.5393 H   0  0  0  0  0  0  0  0  0  0  0  0
  198.7791  182.7124  154.2579 H   0  0  0  0  0  0  0  0  0  0  0  0
  197.9427  181.7534  151.2578 H   0  0  0  0  0  0  0  0  0  0  0  0
  199.4668  182.4474  151.8360 H   0  0  0  0  0  0  0  0  0  0  0  0
  198.5130  183.2445  150.5597 H   0  0  0  0  0  0  0  0  0  0  0  0
  195.6822  183.0572  152.0545 H   0  0  0  0  0  0  0  0  0  0  0  0
  196.4130  184.3610  151.1456 H   0  0  0  0  0  0  0  0  0  0  0  0
  195.9616  184.6203  152.8208 H   0  0  0  0  0  0  0  0  0  0  0  0
  198.7473  185.5956  159.9431 H   0  0  0  0  0  0  0  0  0  0  0  0
  199.7151  184.5760  158.9705 H   0  0  0  0  0  0  0  0  0  0  0  0
  199.3022  187.6767  158.8247 H   0  0  0  0  0  0  0  0  0  0  0  0
  199.1301  189.1625  156.8337 H   0  0  0  0  0  0  0  0  0  0  0  0
  198.2880  188.2567  154.6676 H   0  0  0  0  0  0  0  0  0  0  0  0
  197.5941  185.8929  154.4985 H   0  0  0  0  0  0  0  0  0  0  0  0
  197.8096  184.3885  156.5241 H   0  0  0  0  0  0  0  0  0  0  0  0
  198.2478  184.3064  152.6515 H   0  0  0  0  0  0  0  0  0  0  0  0
  196.9509  183.0347  156.4884 H   0  0  0  0  0  0  0  0  0  0  0  0
  1  2  1  0
  1 24  1  0
  2  3  2  0
  2  9  1  0
  3  4  1  0
  3  6  1  0
  4  5  1  0
  5 32  1  1
  5 33  1  0
  5 34  1  0
  6  7  2  0
  6 35  1  0
  7  8  1  0
  7 36  1  0
  8  9  2  0
  8 37  1  0
  9 10  1  0
 10 11  1  0
 10 38  1  1
 10 39  1  0
 11 12  1  0
 11 31  1  6
 11 64  1  0
 12 13  1  0
 12 40  1  1
 12 41  1  0
 13 14  1  0
 13 20  1  0
 13 42  1  6
 14 15  2  0
 14 19  1  0
 15 16  1  0
 15 43  1  0
 16 17  2  0
 16 44  1  0
 17 18  1  0
 17 45  1  0
 18 19  2  0
 18 46  1  0
 19 47  1  0
 20 21  1  0
 20 48  1  1
 20 49  1  0
 21 22  1  0
 21 23  1  0
 21 63  1  1
 22 50  1  6
 22 51  1  0
 22 52  1  0
 23 53  1  6
 23 54  1  0
 23 55  1  0
 24 25  1  0
 24 56  1  1
 24 57  1  0
 25 26  2  0
 25 30  1  0
 26 27  1  0
 26 58  1  0
 27 28  2  0
 27 59  1  0
 28 29  1  0
 28 60  1  0
 29 30  2  0
 29 61  1  0
 30 62  1  0
M  CHG  2  11   1  21   1
M  END
>  <s_epik_cmdline>  (1195) 
J2VwaWtfcHl0aG9uJywgJy1waCcsICc3LjAwMDAwMCcsICctcGh0JywgJzIuMDAwMDAwJywgJy1tcycsICcxNicsICctdG4nLCAnOCcsICctbWEnLCAnMjAwJywgJy1pbWFlJywgJzxpbmZpbGUubWFlPicsICctb21hZScsICc8b3V0ZmlsZS5tYWU+Jw==

>  <s_epik_input>  (1195) 
W2NIXTFbY0hdW2NIXVtjSF1bY0hdYzFbQ0gyXU9jMmMoT1tDSDNdKVtjSF1bY0hdW2NIXWMyW0NIMl1bTkhdW0NIMl1bQ0BASF0oW0NIMl1OKFtDSDNdKVtDSDNdKWMzW2NIXVtjSF1bY0hdW2NIXVtjSF0z

>  <s_i_glide_gridfile>  (1195) 
ATP-Grid

>  <s_lp_Force_Field>  (1195) 
OPLS_2005

>  <s_lp_Variant>  (1195) 
m_270004bbb____23846038____24720332-2

>  <s_lp_label>  (1195) 
1660_sdstereoexpander_2_neutralizer_1_epik_1_stereoizer_1

>  <s_m_source_file>  (1195) 
ATP-VSW-LIGPREP-002-in.maegz

>  <s_sd_BIOSOLVEIT.INFINISEE\_QUERY\_NAME>  (1195) 
Ref-Lig

>  <s_sd_BIOSOLVEIT.INFINISEE\_QUERY\_SMILES>  (1195) 
S(c1nc2c(cc1C[NH2+]Cc3ccc(cc3)C[NH+](C)C)cccc2)Cc4ccccc4

>  <s_sd_BIOSOLVEIT.INFINISEE\_REACTION\_NAME>  (1195) 
m_270004bbb

>  <s_sd_BIOSOLVEIT.INFINISEE\_REAGENT1\_SMILES>  (1195) 
[R1*]NCC(c1ccccc1)CN(C)C

>  <s_sd_BIOSOLVEIT.INFINISEE\_REAGENT2\_SMILES>  (1195) 
[R1*]Cc1c(OCc2ccccc2)c(OC)ccc1

>  <s_sd_BIOSOLVEIT.INFINISEE\_SPACE>  (1195) 
REALSpace_44bn_2023-08

>  <s_vsw_compound_code>  (1195) 
53090

>  <s_vsw_variant>  (1195) 
53090-2

>  <r_epik_Charging_Adjusted_Penalty>  (1195) 
0.25793759394190002

>  <r_epik_Ionization_Penalty>  (1195) 
0.1246

>  <r_epik_Ionization_Penalty_Charging>  (1195) 
0.1246

>  <r_epik_Ionization_Penalty_Neutral>  (1195) 
0

>  <r_epik_State_Penalty>  (1195) 
0.1333

>  <r_i_docking_score>  (1195) 
-4.5199901885076503

>  <r_i_glide_ecoul>  (1195) 
-12.0989627838135

>  <r_i_glide_eff_state_penalty>  (1195) 
0.1333

>  <r_i_glide_einternal>  (1195) 
2.94236040115356

>  <r_i_glide_emodel>  (1195) 
-59.776811781120202

>  <r_i_glide_energy>  (1195) 
-41.800245285034201

>  <r_i_glide_erotb>  (1195) 
0.95169949150544197

>  <r_i_glide_esite>  (1195) 
-0.095971651540259204

>  <r_i_glide_evdw>  (1195) 
-29.7012825012207

>  <r_i_glide_gscore>  (1195) 
-4.6532901885076496

>  <r_i_glide_hbond>  (1195) 
-0.20000000000000001

>  <r_i_glide_ligand_efficiency>  (1195) 
-0.150666339616922

>  <r_i_glide_ligand_efficiency_ln>  (1195) 
-1.0269910200665999

>  <r_i_glide_ligand_efficiency_sa>  (1195) 
-0.46815534748002002

>  <r_i_glide_lipo>  (1195) 
-1.37202103129432

>  <r_i_glide_metal>  (1195) 
-0

>  <r_i_glide_rewards>  (1195) 
-0.63708845454545304

>  <r_lp_Energy>  (1195) 
38.097994

>  <r_lp_tautomer_probability>  (1195) 
1

>  <r_qp_ACxDN^.5/SA>  (1195) 
0.0076163000000000003

>  <r_qp_CIQPlogS>  (1195) 
-4.4249999999999998

>  <r_qp_EA(eV)>  (1195) 
-0.221

>  <r_qp_FISA>  (1195) 
7.1289999999999996

>  <r_qp_FOSA>  (1195) 
325.15899999999999

>  <r_qp_IP(eV)>  (1195) 
8.6959999999999997

>  <r_qp_Jm>  (1195) 
0.72356435003936104

>  <r_qp_PISA>  (1195) 
324.202

>  <r_qp_PSA>  (1195) 
26.16

>  <r_qp_PercentHumanOralAbsorption>  (1195) 
100

>  <r_qp_QPPCaco>  (1195) 
527.351

>  <r_qp_QPPMDCK>  (1195) 
303.202

>  <r_qp_QPlogBB>  (1195) 
0.63600000000000001

>  <r_qp_QPlogHERG>  (1195) 
-6.4610000000000003

>  <r_qp_QPlogKhsa>  (1195) 
0.754

>  <r_qp_QPlogKp>  (1195) 
-3.5779999999999998

>  <r_qp_QPlogPC16>  (1195) 
12.907

>  <r_qp_QPlogPo/w>  (1195) 
4.7030000000000003

>  <r_qp_QPlogPoct>  (1195) 
17.699000000000002

>  <r_qp_QPlogPw>  (1195) 
7.516

>  <r_qp_QPlogS>  (1195) 
-2.1699999999999999

>  <r_qp_QPpolrz>  (1195) 
42.192999999999998

>  <r_qp_SASA>  (1195) 
656.48900000000003

>  <r_qp_SAamideO>  (1195) 
0

>  <r_qp_SAfluorine>  (1195) 
0

>  <r_qp_WPSA>  (1195) 
0

>  <r_qp_accptHB>  (1195) 
5

>  <r_qp_dip^2/V>  (1195) 
0.0022667999999999998

>  <r_qp_dipole>  (1195) 
1.7210000000000001

>  <r_qp_donorHB>  (1195) 
1

>  <r_qp_glob>  (1195) 
0.88070899999999996

>  <r_qp_mol_MW>  (1195) 
404.55099999999999

>  <r_qp_volume>  (1195) 
1307.201

>  <r_sd_BIOSOLVEIT.INFINISEE\_FTREES\_SIMILARITY>  (1195) 
0.90500000000000003

>  <r_sd_BIOSOLVEIT.LOGP>  (1195) 
2.2658999999999998

>  <r_sd_BIOSOLVEIT.MOLECULAR\_WEIGHT>  (1195) 
406.56700000000001

>  <r_sd_BIOSOLVEIT.TPSA>  (1195) 
39.509999999999998

>  <i_epik_Tot_Q>  (1195) 
2

>  <i_epik_Tot_abs_Q>  (1195) 
2

>  <i_f3d_flags>  (1195) 
0

>  <i_i_glide_confnum>  (1195) 
4

>  <i_i_glide_lignum>  (1195) 
572

>  <i_i_glide_posenum>  (1195) 
7

>  <i_i_glide_rotatable_bonds>  (1195) 
11

>  <i_lp_mmshare_version>  (1195) 
65135

>  <i_m_ct_format>  (1195) 
2

>  <i_m_source_file_index>  (1195) 
1660

>  <i_qp_#NandO>  (1195) 
4

>  <i_qp_#acid>  (1195) 
0

>  <i_qp_#amide>  (1195) 
0

>  <i_qp_#amidine>  (1195) 
0

>  <i_qp_#amine>  (1195) 
2

>  <i_qp_#in34>  (1195) 
0

>  <i_qp_#in56>  (1195) 
18

>  <i_qp_#metab>  (1195) 
8

>  <i_qp_#nonHatm>  (1195) 
30

>  <i_qp_#noncon>  (1195) 
0

>  <i_qp_#ringatoms>  (1195) 
18

>  <i_qp_#rotor>  (1195) 
11

>  <i_qp_#rtvFG>  (1195) 
0

>  <i_qp_#stars>  (1195) 
0

>  <i_qp_CNS>  (1195) 
2

>  <i_qp_HumanOralAbsorption>  (1195) 
3

>  <i_qp_RuleOfFive>  (1195) 
0

>  <i_qp_RuleOfThree>  (1195) 
1

>  <i_sd_BIOSOLVEIT.INFINISEE\_REAGENT1\_NAME>  (1195) 
23846038

>  <i_sd_BIOSOLVEIT.INFINISEE\_REAGENT2\_NAME>  (1195) 
24720332

>  <i_sd_BIOSOLVEIT.INFINISEE\_RESULT\_RANK>  (1195) 
69418

>  <i_sd_version>  (1195) 
0

>  <b_lp_Chiralities_Consistent>  (1195) 
1

>  <b_sd_chiral_flag>  (1195) 
0

>  <canonical_id>  (1195) 
ATP-HTVS-BDB37C4B0D07

>  <compound_code>  (1195) 
53090

>  <title>  (1195) 
m_270004bbb____23846038____24720332

>  <variant>  (1195) 
53090-2

>  <source_file>  (1195) 
运行/运行/ATP-VSW/ATP-VSW-DOCK_HTVS_1-002_lib.maegz

>  <canonical_smiles>  (1195) 
COc1cccc(C[NH2+]C[C@@H](C[NH+](C)C)c2ccccc2)c1OCc1ccccc1

>  <scaffold>  (1195) 
c1ccc(CC[NH2+]Cc2ccccc2OCc2ccccc2)cc1

>  <molecular_formula>  (1195) 
C26H34N2O2+2

$$$$
ATP-HTVS-BDBBABCD42A1
     RDKit          3D

 62 65  0  0  0  0  0  0  0  0999 V2000
  195.9504  179.9915  149.7500 F   0  0  0  0  0  0  0  0  0  0  0  0
  196.7339  179.7595  150.8285 C   0  0  0  0  0  0  0  0  0  0  0  0
  197.9162  178.9965  150.7089 C   0  0  0  0  0  0  0  0  0  0  0  0
  198.7214  178.8002  151.8508 C   0  0  0  0  0  0  0  0  0  0  0  0
  198.3419  179.3344  153.0993 C   0  0  0  0  0  0  0  0  0  0  0  0
  197.1528  180.0902  153.2161 C   0  0  0  0  0  0  0  0  0  0  0  0
  196.3559  180.2989  152.0714 C   0  0  0  0  0  0  0  0  0  0  0  0
  196.7227  180.6849  154.5465 C   0  0  1  0  0  0  0  0  0  0  0  0
  197.8376  181.1951  155.3277 N   0  0  0  0  0  0  0  0  0  0  0  0
  197.6235  181.9843  156.4696 C   0  0  0  0  0  0  0  0  0  0  0  0
  196.3516  182.2337  156.8484 N   0  0  0  0  0  0  0  0  0  0  0  0
  196.1463  183.0290  157.9255 C   0  0  0  0  0  0  0  0  0  0  0  0
  197.2483  183.5793  158.6418 C   0  0  0  0  0  0  0  0  0  0  0  0
  198.5225  183.3077  158.2735 N   0  0  0  0  0  0  0  0  0  0  0  0
  198.7193  182.5192  157.1904 C   0  0  0  0  0  0  0  0  0  0  0  0
  200.0374  182.2292  156.7971 N   0  0  0  0  0  0  0  0  0  0  0  0
  201.1399  182.9416  157.4238 C   0  0  1  0  0  0  0  0  0  0  0  0
  202.4965  182.5469  156.8574 C   0  0  0  0  0  0  0  0  0  0  0  0
  203.0284  181.2383  157.0224 C   0  0  0  0  0  0  0  0  0  0  0  0
  204.2892  180.9331  156.4608 C   0  0  0  0  0  0  0  0  0  0  0  0
  205.0115  181.8984  155.7359 C   0  0  0  0  0  0  0  0  0  0  0  0
  204.4820  183.1896  155.5722 C   0  0  0  0  0  0  0  0  0  0  0  0
  203.2356  183.5112  156.1360 C   0  0  0  0  0  0  0  0  0  0  0  0
  202.2761  180.1311  157.7641 C   0  0  1  0  0  0  0  0  0  0  0  0
  201.3250  179.3772  156.9005 N   0  0  2  0  0  0  0  0  0  0  0  0
  200.7093  178.2372  157.6151 C   0  0  2  0  0  0  0  0  0  0  0  0
  201.8794  178.9547  155.5882 C   0  0  2  0  0  0  0  0  0  0  0  0
  196.9958  184.4331  159.7347 C   0  0  0  0  0  0  0  0  0  0  0  0
  195.6802  184.7354  160.1338 C   0  0  0  0  0  0  0  0  0  0  0  0
  194.5936  184.1887  159.4326 C   0  0  0  0  0  0  0  0  0  0  0  0
  194.8334  183.3383  158.3353 C   0  0  0  0  0  0  0  0  0  0  0  0
  198.3468  178.4133  149.3693 C   0  0  1  0  0  0  0  0  0  0  0  0
  197.3036  177.7847  148.6482 O   0  0  0  0  0  0  0  0  0  0  0  0
  199.6366  178.2292  151.7779 H   0  0  0  0  0  0  0  0  0  0  0  0
  198.9638  179.1476  153.9636 H   0  0  0  0  0  0  0  0  0  0  0  0
  195.4493  180.8822  152.1349 H   0  0  0  0  0  0  0  0  0  0  0  0
  196.0096  181.4915  154.3610 H   0  0  0  0  0  0  0  0  0  0  0  0
  196.2029  179.9232  155.1303 H   0  0  0  0  0  0  0  0  0  0  0  0
  198.7684  180.9963  155.0007 H   0  0  0  0  0  0  0  0  0  0  0  0
  200.1642  181.9628  155.8335 H   0  0  0  0  0  0  0  0  0  0  0  0
  200.9901  184.0144  157.2824 H   0  0  0  0  0  0  0  0  0  0  0  0
  201.1385  182.7625  158.5008 H   0  0  0  0  0  0  0  0  0  0  0  0
  204.7093  179.9455  156.5735 H   0  0  0  0  0  0  0  0  0  0  0  0
  205.9569  181.6401  155.2827 H   0  0  0  0  0  0  0  0  0  0  0  0
  205.0239  183.9281  155.0021 H   0  0  0  0  0  0  0  0  0  0  0  0
  202.8316  184.5035  155.9913 H   0  0  0  0  0  0  0  0  0  0  0  0
  203.0126  179.4571  158.2031 H   0  0  0  0  0  0  0  0  0  0  0  0
  201.7205  180.5494  158.6044 H   0  0  0  0  0  0  0  0  0  0  0  0
  201.4590  177.4924  157.8783 H   0  0  0  0  0  0  0  0  0  0  0  0
  199.9554  177.7528  156.9971 H   0  0  0  0  0  0  0  0  0  0  0  0
  200.2176  178.5585  158.5303 H   0  0  0  0  0  0  0  0  0  0  0  0
  202.7252  178.2794  155.7228 H   0  0  0  0  0  0  0  0  0  0  0  0
  202.2120  179.8002  154.9821 H   0  0  0  0  0  0  0  0  0  0  0  0
  201.1284  178.4272  155.0010 H   0  0  0  0  0  0  0  0  0  0  0  0
  197.8327  184.8707  160.2572 H   0  0  0  0  0  0  0  0  0  0  0  0
  195.5091  185.3943  160.9728 H   0  0  0  0  0  0  0  0  0  0  0  0
  193.5791  184.4313  159.7146 H   0  0  0  0  0  0  0  0  0  0  0  0
  194.0033  182.9324  157.7688 H   0  0  0  0  0  0  0  0  0  0  0  0
  198.7757  179.2113  148.7625 H   0  0  0  0  0  0  0  0  0  0  0  0
  199.1370  177.6775  149.5257 H   0  0  0  0  0  0  0  0  0  0  0  0
  197.6447  177.4540  147.8294 H   0  0  0  0  0  0  0  0  0  0  0  0
  200.5751  180.0304  156.7087 H   0  0  0  0  0  0  0  0  0  0  0  0
  1  2  1  0
  2  3  2  0
  2  7  1  0
  3  4  1  0
  3 32  1  0
  4  5  2  0
  4 34  1  0
  5  6  1  0
  5 35  1  0
  6  7  2  0
  6  8  1  0
  7 36  1  0
  8  9  1  0
  8 37  1  6
  8 38  1  0
  9 10  1  0
  9 39  1  0
 10 11  2  0
 10 15  1  0
 11 12  1  0
 12 13  1  0
 12 31  2  0
 13 14  1  0
 13 28  2  0
 14 15  2  0
 15 16  1  0
 16 17  1  0
 16 40  1  0
 17 18  1  0
 17 41  1  1
 17 42  1  0
 18 19  1  0
 18 23  2  0
 19 20  2  0
 19 24  1  0
 20 21  1  0
 20 43  1  0
 21 22  2  0
 21 44  1  0
 22 23  1  0
 22 45  1  0
 23 46  1  0
 24 25  1  0
 24 47  1  1
 24 48  1  0
 25 26  1  0
 25 27  1  0
 25 62  1  6
 26 49  1  1
 26 50  1  0
 26 51  1  0
 27 52  1  1
 27 53  1  0
 27 54  1  0
 28 29  1  0
 28 55  1  0
 29 30  2  0
 29 56  1  0
 30 31  1  0
 30 57  1  0
 31 58  1  0
 32 33  1  0
 32 59  1  6
 32 60  1  0
 33 61  1  0
M  CHG  1  25   1
M  END
>  <s_epik_cmdline>  (1196) 
J2VwaWtfcHl0aG9uJywgJy1waCcsICc3LjAwMDAwMCcsICctcGh0JywgJzIuMDAwMDAwJywgJy1tcycsICcxNicsICctdG4nLCAnOCcsICctbWEnLCAnMjAwJywgJy1pbWFlJywgJzxpbmZpbGUubWFlPicsICctb21hZScsICc8b3V0ZmlsZS5tYWU+Jw==

>  <s_epik_input>  (1196) 
RmMxYyhbQ0gyXVtPSF0pW2NIXVtjSF1jKFtjSF0xKVtDSDJdW05IXWMobjIpYyhuYyhjMjMpW2NIXVtjSF1bY0hdW2NIXTMpW05IXVtDSDJdYzRjKFtDSDJdTihbQ0gzXSlbQ0gzXSlbY0hdW2NIXVtjSF1bY0hdNA==

>  <s_i_glide_gridfile>  (1196) 
ATP-Grid

>  <s_lp_Force_Field>  (1196) 
OPLS_2005

>  <s_lp_Variant>  (1196) 
m_282030aaa____21912298____23157418____21973156-1

>  <s_lp_label>  (1196) 
1567_sdstereoexpander_1_neutralizer_1_epik_1_stereoizer_1

>  <s_m_source_file>  (1196) 
ATP-VSW-LIGPREP-002-in.maegz

>  <s_sd_BIOSOLVEIT.INFINISEE\_QUERY\_NAME>  (1196) 
Ref-Lig

>  <s_sd_BIOSOLVEIT.INFINISEE\_QUERY\_SMILES>  (1196) 
S(c1nc2c(cc1C[NH2+]Cc3ccc(cc3)C[NH+](C)C)cccc2)Cc4ccccc4

>  <s_sd_BIOSOLVEIT.INFINISEE\_REACTION\_NAME>  (1196) 
m_282030aaa

>  <s_sd_BIOSOLVEIT.INFINISEE\_REAGENT1\_SMILES>  (1196) 
[R1*]NCc1cc(F)c(cc1)CO

>  <s_sd_BIOSOLVEIT.INFINISEE\_REAGENT2\_SMILES>  (1196) 
[R1*]c1nc2c(nc1[R2*])cccc2

>  <s_sd_BIOSOLVEIT.INFINISEE\_REAGENT3\_SMILES>  (1196) 
[R2*]NCc1c(cccc1)CN(C)C

>  <s_sd_BIOSOLVEIT.INFINISEE\_SPACE>  (1196) 
REALSpace_44bn_2023-08

>  <s_vsw_compound_code>  (1196) 
50114

>  <s_vsw_variant>  (1196) 
50114-1

>  <r_epik_Charging_Adjusted_Penalty>  (1196) 
0.076612674508475406

>  <r_epik_Ionization_Penalty>  (1196) 
0.038699999999999998

>  <r_epik_Ionization_Penalty_Charging>  (1196) 
0.038300000000000001

>  <r_epik_Ionization_Penalty_Neutral>  (1196) 
0.00040000000000000002

>  <r_epik_State_Penalty>  (1196) 
0.038300000000000001

>  <r_i_docking_score>  (1196) 
-3.81030635408713

>  <r_i_glide_ecoul>  (1196) 
-5.7657794952392596

>  <r_i_glide_eff_state_penalty>  (1196) 
0.038300000000000001

>  <r_i_glide_einternal>  (1196) 
1.65557837486267

>  <r_i_glide_emodel>  (1196) 
-50.326809897585399

>  <r_i_glide_energy>  (1196) 
-39.173215866088903

>  <r_i_glide_erotb>  (1196) 
0.80310840242159398

>  <r_i_glide_esite>  (1196) 
-0.034238390448122102

>  <r_i_glide_evdw>  (1196) 
-33.407436370849602

>  <r_i_glide_gscore>  (1196) 
-3.84860635408713

>  <r_i_glide_hbond>  (1196) 
0

>  <r_i_glide_ligand_efficiency>  (1196) 
-0.115463828911731

>  <r_i_glide_ligand_efficiency_ln>  (1196) 
-0.84739240443853403

>  <r_i_glide_ligand_efficiency_sa>  (1196) 
-0.37035419467549402

>  <r_i_glide_lipo>  (1196) 
-1.32320142315386

>  <r_i_glide_metal>  (1196) 
-0

>  <r_i_glide_rewards>  (1196) 
-0.75903620007837203

>  <r_lp_Energy>  (1196) 
27.988240000000001

>  <r_qp_ACxDN^.5/SA>  (1196) 
0.013937099999999999

>  <r_qp_CIQPlogS>  (1196) 
-5.718

>  <r_qp_EA(eV)>  (1196) 
0.83999999999999997

>  <r_qp_FISA>  (1196) 
74.724999999999994

>  <r_qp_FOSA>  (1196) 
259.11599999999999

>  <r_qp_IP(eV)>  (1196) 
8.1479999999999997

>  <r_qp_Jm>  (1196) 
0.0019330484721213699

>  <r_qp_PISA>  (1196) 
461.767

>  <r_qp_PSA>  (1196) 
69.822999999999993

>  <r_qp_PercentHumanOralAbsorption>  (1196) 
100

>  <r_qp_QPPCaco>  (1196) 
483.25799999999998

>  <r_qp_QPPMDCK>  (1196) 
397.90499999999997

>  <r_qp_QPlogBB>  (1196) 
-0.433

>  <r_qp_QPlogHERG>  (1196) 
-8.4890000000000008

>  <r_qp_QPlogKhsa>  (1196) 
0.71999999999999997

>  <r_qp_QPlogKp>  (1196) 
-2.3730000000000002

>  <r_qp_QPlogPC16>  (1196) 
16.440000000000001

>  <r_qp_QPlogPo/w>  (1196) 
4.9809999999999999

>  <r_qp_QPlogPoct>  (1196) 
24.806000000000001

>  <r_qp_QPlogPw>  (1196) 
14.173

>  <r_qp_QPlogS>  (1196) 
-5.9900000000000002

>  <r_qp_QPpolrz>  (1196) 
50.679000000000002

>  <r_qp_SASA>  (1196) 
832.64999999999998

>  <r_qp_SAamideO>  (1196) 
0

>  <r_qp_SAfluorine>  (1196) 
37.042000000000002

>  <r_qp_WPSA>  (1196) 
37.042000000000002

>  <r_qp_accptHB>  (1196) 
6.7000000000000002

>  <r_qp_dip^2/V>  (1196) 
0.0064048999999999998

>  <r_qp_dipole>  (1196) 
3.069

>  <r_qp_donorHB>  (1196) 
3

>  <r_qp_glob>  (1196) 
0.75102230000000003

>  <r_qp_mol_MW>  (1196) 
445.53800000000001

>  <r_qp_volume>  (1196) 
1470.367

>  <r_sd_BIOSOLVEIT.INFINISEE\_FTREES\_SIMILARITY>  (1196) 
0.90600000000000003

>  <r_sd_BIOSOLVEIT.LOGP>  (1196) 
3.1299000000000001

>  <r_sd_BIOSOLVEIT.MOLECULAR\_WEIGHT>  (1196) 
446.54700000000003

>  <r_sd_BIOSOLVEIT.TPSA>  (1196) 
74.510000000000005

>  <i_epik_Tot_Q>  (1196) 
1

>  <i_epik_Tot_abs_Q>  (1196) 
1

>  <i_f3d_flags>  (1196) 
0

>  <i_i_glide_confnum>  (1196) 
5

>  <i_i_glide_lignum>  (1196) 
542

>  <i_i_glide_posenum>  (1196) 
12

>  <i_i_glide_rotatable_bonds>  (1196) 
10

>  <i_lp_mmshare_version>  (1196) 
65135

>  <i_m_ct_format>  (1196) 
2

>  <i_m_source_file_index>  (1196) 
1567

>  <i_qp_#NandO>  (1196) 
6

>  <i_qp_#acid>  (1196) 
0

>  <i_qp_#amide>  (1196) 
0

>  <i_qp_#amidine>  (1196) 
0

>  <i_qp_#amine>  (1196) 
1

>  <i_qp_#in34>  (1196) 
0

>  <i_qp_#in56>  (1196) 
22

>  <i_qp_#metab>  (1196) 
5

>  <i_qp_#nonHatm>  (1196) 
33

>  <i_qp_#noncon>  (1196) 
0

>  <i_qp_#ringatoms>  (1196) 
22

>  <i_qp_#rotor>  (1196) 
10

>  <i_qp_#rtvFG>  (1196) 
0

>  <i_qp_#stars>  (1196) 
1

>  <i_qp_CNS>  (1196) 
0

>  <i_qp_HumanOralAbsorption>  (1196) 
3

>  <i_qp_RuleOfFive>  (1196) 
0

>  <i_qp_RuleOfThree>  (1196) 
1

>  <i_sd_BIOSOLVEIT.INFINISEE\_REAGENT1\_NAME>  (1196) 
21912298

>  <i_sd_BIOSOLVEIT.INFINISEE\_REAGENT2\_NAME>  (1196) 
23157418

>  <i_sd_BIOSOLVEIT.INFINISEE\_REAGENT3\_NAME>  (1196) 
21973156

>  <i_sd_BIOSOLVEIT.INFINISEE\_RESULT\_RANK>  (1196) 
63491

>  <i_sd_version>  (1196) 
0

>  <b_lp_Chiralities_Consistent>  (1196) 
1

>  <b_sd_chiral_flag>  (1196) 
0

>  <canonical_id>  (1196) 
ATP-HTVS-BDBBABCD42A1

>  <compound_code>  (1196) 
50114

>  <title>  (1196) 
m_282030aaa____21912298____23157418____21973156

>  <variant>  (1196) 
50114-1

>  <source_file>  (1196) 
运行/运行/ATP-VSW/ATP-VSW-DOCK_HTVS_1-002_lib.maegz

>  <canonical_smiles>  (1196) 
C[NH+](C)Cc1ccccc1CNc1nc2ccccc2nc1NCc1ccc(CO)c(F)c1

>  <scaffold>  (1196) 
c1ccc(CNc2nc3ccccc3nc2NCc2ccccc2)cc1

>  <molecular_formula>  (1196) 
C26H29FN5O+

$$$$
ATP-HTVS-BDBFEED18423
     RDKit          3D

 60 63  0  0  0  0  0  0  0  0999 V2000
  198.9080  183.8386  159.2542 Br  0  0  0  0  0  0  0  0  0  0  0  0
  197.0396  183.5274  159.0392 C   0  0  0  0  0  0  0  0  0  0  0  0
  196.5451  182.4524  158.2643 C   0  0  0  0  0  0  0  0  0  0  0  0
  195.1445  182.2948  158.1761 C   0  0  0  0  0  0  0  0  0  0  0  0
  194.3086  183.2204  158.8277 C   0  0  0  0  0  0  0  0  0  0  0  0
  194.7803  184.2390  159.5717 N   0  0  0  0  0  0  0  0  0  0  0  0
  196.1156  184.3849  159.6651 C   0  0  0  0  0  0  0  0  0  0  0  0
  197.4690  181.4693  157.5417 C   0  0  1  0  0  0  0  0  0  0  0  0
  197.0146  181.0806  156.2135 N   0  0  0  0  0  0  0  0  0  0  0  0
  197.2028  181.9351  155.1103 C   0  0  0  0  0  0  0  0  0  0  0  0
  197.5853  183.2031  155.3601 N   0  0  0  0  0  0  0  0  0  0  0  0
  197.8069  184.0253  154.3158 C   0  0  0  0  0  0  0  0  0  0  0  0
  197.6866  183.5563  152.9760 C   0  0  0  0  0  0  0  0  0  0  0  0
  197.3256  182.2788  152.7216 N   0  0  0  0  0  0  0  0  0  0  0  0
  197.0677  181.4635  153.7723 C   0  0  0  0  0  0  0  0  0  0  0  0
  196.7065  180.1353  153.4858 N   0  0  0  0  0  0  0  0  0  0  0  0
  196.7494  179.6217  152.1193 C   0  0  1  0  0  0  0  0  0  0  0  0
  198.1828  179.3528  151.6127 C   0  0  1  0  0  0  0  0  0  0  0  0
  198.1809  178.9995  150.1393 C   0  0  0  0  0  0  0  0  0  0  0  0
  198.3316  180.0115  149.1739 C   0  0  0  0  0  0  0  0  0  0  0  0
  198.3450  179.6865  147.8007 C   0  0  0  0  0  0  0  0  0  0  0  0
  198.1764  178.3459  147.3767 C   0  0  0  0  0  0  0  0  0  0  0  0
  198.0276  177.3389  148.3553 C   0  0  0  0  0  0  0  0  0  0  0  0
  198.0485  177.6613  149.7273 C   0  0  0  0  0  0  0  0  0  0  0  0
  198.2025  177.9867  145.8887 C   0  0  1  0  0  0  0  0  0  0  0  0
  199.5796  177.8270  145.3365 N   0  0  2  0  0  0  0  0  0  0  0  0
  200.4125  176.8298  146.0541 C   0  0  2  0  0  0  0  0  0  0  0  0
  200.2922  179.1130  145.1434 C   0  0  2  0  0  0  0  0  0  0  0  0
  197.9265  184.4290  151.9026 C   0  0  0  0  0  0  0  0  0  0  0  0
  198.2648  185.7721  152.1398 C   0  0  0  0  0  0  0  0  0  0  0  0
  198.3729  186.2397  153.4603 C   0  0  0  0  0  0  0  0  0  0  0  0
  198.1508  185.3739  154.5416 C   0  0  0  0  0  0  0  0  0  0  0  0
  194.7180  181.4939  157.5881 H   0  0  0  0  0  0  0  0  0  0  0  0
  193.2345  183.1351  158.7437 H   0  0  0  0  0  0  0  0  0  0  0  0
  196.4705  185.2148  160.2598 H   0  0  0  0  0  0  0  0  0  0  0  0
  198.4891  181.8558  157.4918 H   0  0  0  0  0  0  0  0  0  0  0  0
  197.5404  180.5538  158.1199 H   0  0  0  0  0  0  0  0  0  0  0  0
  196.4229  180.2515  156.2080 H   0  0  0  0  0  0  0  0  0  0  0  0
  196.3026  179.5945  154.2323 H   0  0  0  0  0  0  0  0  0  0  0  0
  196.1783  178.6945  152.1038 H   0  0  0  0  0  0  0  0  0  0  0  0
  196.2256  180.2982  151.4465 H   0  0  0  0  0  0  0  0  0  0  0  0
  198.8271  180.2216  151.7423 H   0  0  0  0  0  0  0  0  0  0  0  0
  198.6488  178.5550  152.1822 H   0  0  0  0  0  0  0  0  0  0  0  0
  198.4435  181.0419  149.4739 H   0  0  0  0  0  0  0  0  0  0  0  0
  198.4360  180.4815  147.0715 H   0  0  0  0  0  0  0  0  0  0  0  0
  197.9171  176.3005  148.0562 H   0  0  0  0  0  0  0  0  0  0  0  0
  197.9514  176.8734  150.4633 H   0  0  0  0  0  0  0  0  0  0  0  0
  197.6274  177.0737  145.7482 H   0  0  0  0  0  0  0  0  0  0  0  0
  197.6549  178.7442  145.3268 H   0  0  0  0  0  0  0  0  0  0  0  0
  200.5833  177.1121  147.0944 H   0  0  0  0  0  0  0  0  0  0  0  0
  201.3935  176.7350  145.5841 H   0  0  0  0  0  0  0  0  0  0  0  0
  199.9474  175.8480  146.0451 H   0  0  0  0  0  0  0  0  0  0  0  0
  200.4976  179.6105  146.0943 H   0  0  0  0  0  0  0  0  0  0  0  0
  199.7070  179.7920  144.5159 H   0  0  0  0  0  0  0  0  0  0  0  0
  201.2509  178.9537  144.6469 H   0  0  0  0  0  0  0  0  0  0  0  0
  197.8169  184.0539  150.8928 H   0  0  0  0  0  0  0  0  0  0  0  0
  198.4259  186.4380  151.3043 H   0  0  0  0  0  0  0  0  0  0  0  0
  198.6072  187.2765  153.6421 H   0  0  0  0  0  0  0  0  0  0  0  0
  198.2120  185.7362  155.5513 H   0  0  0  0  0  0  0  0  0  0  0  0
  199.4626  177.4518  144.3794 H   0  0  0  0  0  0  0  0  0  0  0  0
  1  2  1  0
  2  3  1  0
  2  7  2  0
  3  4  2  0
  3  8  1  0
  4  5  1  0
  4 33  1  0
  5  6  2  0
  5 34  1  0
  6  7  1  0
  7 35  1  0
  8  9  1  0
  8 36  1  6
  8 37  1  0
  9 10  1  0
  9 38  1  0
 10 11  2  0
 10 15  1  0
 11 12  1  0
 12 13  1  0
 12 32  2  0
 13 14  1  0
 13 29  2  0
 14 15  2  0
 15 16  1  0
 16 17  1  0
 16 39  1  0
 17 18  1  0
 17 40  1  1
 17 41  1  0
 18 19  1  0
 18 42  1  6
 18 43  1  0
 19 20  1  0
 19 24  2  0
 20 21  2  0
 20 44  1  0
 21 22  1  0
 21 45  1  0
 22 23  2  0
 22 25  1  0
 23 24  1  0
 23 46  1  0
 24 47  1  0
 25 26  1  0
 25 48  1  1
 25 49  1  0
 26 27  1  0
 26 28  1  0
 26 60  1  6
 27 50  1  1
 27 51  1  0
 27 52  1  0
 28 53  1  1
 28 54  1  0
 28 55  1  0
 29 30  1  0
 29 56  1  0
 30 31  2  0
 30 57  1  0
 31 32  1  0
 31 58  1  0
 32 59  1  0
M  CHG  1  26   1
M  END
>  <s_epik_cmdline>  (1197) 
J2VwaWtfcHl0aG9uJywgJy1waCcsICc3LjAwMDAwMCcsICctcGh0JywgJzIuMDAwMDAwJywgJy1tcycsICcxNicsICctdG4nLCAnOCcsICctbWEnLCAnMjAwJywgJy1pbWFlJywgJzxpbmZpbGUubWFlPicsICctb21hZScsICc8b3V0ZmlsZS5tYWU+Jw==

>  <s_epik_input>  (1197) 
W2NIXTFuW2NIXVtjSF1jKGMxQnIpW0NIMl1bTkhdYyhuMiljKG5jKGMyMylbY0hdW2NIXVtjSF1bY0hdMylbTkhdW0NIMl1bQ0gyXWM0W2NIXVtjSF1jKFtjSF1bY0hdNClbQ0gyXU4oW0NIM10pW0NIM10=

>  <s_i_glide_gridfile>  (1197) 
ATP-Grid

>  <s_lp_Force_Field>  (1197) 
OPLS_2005

>  <s_lp_Variant>  (1197) 
m_282030aaa____21926464____23157418____21972246-1

>  <s_lp_label>  (1197) 
1929_sdstereoexpander_1_neutralizer_1_epik_1_stereoizer_1

>  <s_m_source_file>  (1197) 
ATP-VSW-LIGPREP-002-in.maegz

>  <s_sd_BIOSOLVEIT.INFINISEE\_QUERY\_NAME>  (1197) 
Ref-Lig

>  <s_sd_BIOSOLVEIT.INFINISEE\_QUERY\_SMILES>  (1197) 
S(c1nc2c(cc1C[NH2+]Cc3ccc(cc3)C[NH+](C)C)cccc2)Cc4ccccc4

>  <s_sd_BIOSOLVEIT.INFINISEE\_REACTION\_NAME>  (1197) 
m_282030aaa

>  <s_sd_BIOSOLVEIT.INFINISEE\_REAGENT1\_SMILES>  (1197) 
[R1*]NCCc1ccc(cc1)CN(C)C

>  <s_sd_BIOSOLVEIT.INFINISEE\_REAGENT2\_SMILES>  (1197) 
[R1*]c1nc2c(nc1[R2*])cccc2

>  <s_sd_BIOSOLVEIT.INFINISEE\_REAGENT3\_SMILES>  (1197) 
[R2*]NCc1c(Br)cncc1

>  <s_sd_BIOSOLVEIT.INFINISEE\_SPACE>  (1197) 
REALSpace_44bn_2023-08

>  <s_vsw_compound_code>  (1197) 
61698

>  <s_vsw_variant>  (1197) 
61698-1

>  <r_epik_Charging_Adjusted_Penalty>  (1197) 
0.081936508424468604

>  <r_epik_Ionization_Penalty>  (1197) 
0.044900000000000002

>  <r_epik_Ionization_Penalty_Charging>  (1197) 
0.041000000000000002

>  <r_epik_Ionization_Penalty_Neutral>  (1197) 
0.0040000000000000001

>  <r_epik_State_Penalty>  (1197) 
0.041000000000000002

>  <r_i_docking_score>  (1197) 
-4.4342490784288104

>  <r_i_glide_ecoul>  (1197) 
-8.1704425811767596

>  <r_i_glide_eff_state_penalty>  (1197) 
0.041000000000000002

>  <r_i_glide_einternal>  (1197) 
6.11020755767822

>  <r_i_glide_emodel>  (1197) 
-60.568594937855103

>  <r_i_glide_energy>  (1197) 
-46.428609848022496

>  <r_i_glide_erotb>  (1197) 
0.67184336593084304

>  <r_i_glide_esite>  (1197) 
-0.18691914771236001

>  <r_i_glide_evdw>  (1197) 
-38.258167266845703

>  <r_i_glide_gscore>  (1197) 
-4.4752490784288099

>  <r_i_glide_hbond>  (1197) 
-0.28478930144443498

>  <r_i_glide_ligand_efficiency>  (1197) 
-0.13857028370089999

>  <r_i_glide_ligand_efficiency_ln>  (1197) 
-0.99294924172493504

>  <r_i_glide_ligand_efficiency_sa>  (1197) 
-0.439933227728451

>  <r_i_glide_lipo>  (1197) 
-1.26032301741133

>  <r_i_glide_metal>  (1197) 
-0

>  <r_i_glide_rewards>  (1197) 
-0.27658622727272703

>  <r_lp_Energy>  (1197) 
23.26005

>  <r_qp_ACxDN^.5/SA>  (1197) 
0.013769399999999999

>  <r_qp_CIQPlogS>  (1197) 
-6.8120000000000003

>  <r_qp_EA(eV)>  (1197) 
0.87

>  <r_qp_FISA>  (1197) 
48.356999999999999

>  <r_qp_FOSA>  (1197) 
218.56200000000001

>  <r_qp_IP(eV)>  (1197) 
8.2590000000000003

>  <r_qp_Jm>  (1197) 
0.57958675217216704

>  <r_qp_PISA>  (1197) 
352.79700000000003

>  <r_qp_PSA>  (1197) 
56.679000000000002

>  <r_qp_PercentHumanOralAbsorption>  (1197) 
100

>  <r_qp_QPPCaco>  (1197) 
859.47699999999998

>  <r_qp_QPPMDCK>  (1197) 
850.01999999999998

>  <r_qp_QPlogBB>  (1197) 
0.115

>  <r_qp_QPlogHERG>  (1197) 
-5.9850000000000003

>  <r_qp_QPlogKhsa>  (1197) 
0.56999999999999995

>  <r_qp_QPlogKp>  (1197) 
-2.3660000000000001

>  <r_qp_QPlogPC16>  (1197) 
14.105

>  <r_qp_QPlogPo/w>  (1197) 
4.5149999999999997

>  <r_qp_QPlogPoct>  (1197) 
21.373999999999999

>  <r_qp_QPlogPw>  (1197) 
11.417999999999999

>  <r_qp_QPlogS>  (1197) 
-3.5619999999999998

>  <r_qp_QPpolrz>  (1197) 
44.441000000000003

>  <r_qp_SASA>  (1197) 
667.59500000000003

>  <r_qp_SAamideO>  (1197) 
0

>  <r_qp_SAfluorine>  (1197) 
0

>  <r_qp_WPSA>  (1197) 
47.880000000000003

>  <r_qp_accptHB>  (1197) 
6.5

>  <r_qp_dip^2/V>  (1197) 
0.0086140000000000001

>  <r_qp_dipole>  (1197) 
3.3780000000000001

>  <r_qp_donorHB>  (1197) 
2

>  <r_qp_glob>  (1197) 
0.87365910000000002

>  <r_qp_mol_MW>  (1197) 
491.43200000000002

>  <r_qp_volume>  (1197) 
1324.4480000000001

>  <r_sd_BIOSOLVEIT.INFINISEE\_FTREES\_SIMILARITY>  (1197) 
0.90300000000000002

>  <r_sd_BIOSOLVEIT.LOGP>  (1197) 
3.6985000000000001

>  <r_sd_BIOSOLVEIT.MOLECULAR\_WEIGHT>  (1197) 
492.44200000000001

>  <r_sd_BIOSOLVEIT.TPSA>  (1197) 
67.170000000000002

>  <i_epik_Tot_Q>  (1197) 
1

>  <i_epik_Tot_abs_Q>  (1197) 
1

>  <i_f3d_flags>  (1197) 
0

>  <i_i_glide_confnum>  (1197) 
11

>  <i_i_glide_lignum>  (1197) 
699

>  <i_i_glide_posenum>  (1197) 
19

>  <i_i_glide_rotatable_bonds>  (1197) 
9

>  <i_lp_mmshare_version>  (1197) 
65135

>  <i_m_ct_format>  (1197) 
2

>  <i_m_source_file_index>  (1197) 
1929

>  <i_qp_#NandO>  (1197) 
6

>  <i_qp_#acid>  (1197) 
0

>  <i_qp_#amide>  (1197) 
0

>  <i_qp_#amidine>  (1197) 
0

>  <i_qp_#amine>  (1197) 
1

>  <i_qp_#in34>  (1197) 
0

>  <i_qp_#in56>  (1197) 
22

>  <i_qp_#metab>  (1197) 
6

>  <i_qp_#nonHatm>  (1197) 
32

>  <i_qp_#noncon>  (1197) 
0

>  <i_qp_#ringatoms>  (1197) 
22

>  <i_qp_#rotor>  (1197) 
9

>  <i_qp_#rtvFG>  (1197) 
0

>  <i_qp_#stars>  (1197) 
0

>  <i_qp_CNS>  (1197) 
1

>  <i_qp_HumanOralAbsorption>  (1197) 
3

>  <i_qp_RuleOfFive>  (1197) 
0

>  <i_qp_RuleOfThree>  (1197) 
0

>  <i_sd_BIOSOLVEIT.INFINISEE\_REAGENT1\_NAME>  (1197) 
21926464

>  <i_sd_BIOSOLVEIT.INFINISEE\_REAGENT2\_NAME>  (1197) 
23157418

>  <i_sd_BIOSOLVEIT.INFINISEE\_REAGENT3\_NAME>  (1197) 
21972246

>  <i_sd_BIOSOLVEIT.INFINISEE\_RESULT\_RANK>  (1197) 
86296

>  <i_sd_version>  (1197) 
0

>  <b_lp_Chiralities_Consistent>  (1197) 
1

>  <b_sd_chiral_flag>  (1197) 
0

>  <canonical_id>  (1197) 
ATP-HTVS-BDBFEED18423

>  <compound_code>  (1197) 
61698

>  <title>  (1197) 
m_282030aaa____21926464____23157418____21972246

>  <variant>  (1197) 
61698-1

>  <source_file>  (1197) 
运行/运行/ATP-VSW/ATP-VSW-DOCK_HTVS_1-002_lib.maegz

>  <canonical_smiles>  (1197) 
C[NH+](C)Cc1ccc(CCNc2nc3ccccc3nc2NCc2ccncc2Br)cc1

>  <scaffold>  (1197) 
c1ccc(CCNc2nc3ccccc3nc2NCc2ccncc2)cc1

>  <molecular_formula>  (1197) 
C25H28BrN6+

$$$$
ATP-HTVS-BDC9F9AD9B20
     RDKit          3D

 65 69  0  0  0  0  0  0  0  0999 V2000
  198.6362  183.9606  153.4224 N   0  0  0  0  0  0  0  0  0  0  0  0
  198.1586  184.2459  152.1562 C   0  0  0  0  0  0  0  0  0  0  0  0
  197.3161  183.1982  151.6809 C   0  0  0  0  0  0  0  0  0  0  0  0
  197.3263  182.2333  152.6909 N   0  0  0  0  0  0  0  0  0  0  0  0
  198.1084  182.7589  153.6695 C   0  0  0  0  0  0  0  0  0  0  0  0
  198.3358  182.0700  154.9781 C   0  0  1  0  0  0  0  0  0  0  0  0
  197.0724  182.3076  155.7117 N   0  0  1  0  0  0  0  0  0  0  0  0
  197.1993  182.0941  157.1656 C   0  0  1  0  0  0  0  0  0  0  0  0
  196.0336  182.7534  157.9007 C   0  0  0  0  0  0  0  0  0  0  0  0
  196.0337  184.1045  158.3623 C   0  0  0  0  0  0  0  0  0  0  0  0
  197.1338  184.9437  158.2043 N   0  0  0  0  0  0  0  0  0  0  0  0
  197.0237  186.2316  157.5110 C   0  0  1  0  0  0  0  0  0  0  0  0
  197.5918  187.3675  158.3857 C   0  0  1  0  0  0  0  0  0  0  0  0
  198.9320  187.0139  158.9281 N   0  0  2  0  0  0  0  0  0  0  0  0
  198.9323  185.7395  159.6823 C   0  0  1  0  0  0  0  0  0  0  0  0
  198.4146  184.5961  158.8133 C   0  0  1  0  0  0  0  0  0  0  0  0
  199.5311  188.1285  159.7119 C   0  0  2  0  0  0  0  0  0  0  0  0
  194.8479  184.6307  158.9501 C   0  0  0  0  0  0  0  0  0  0  0  0
  193.6761  183.8398  159.0290 C   0  0  0  0  0  0  0  0  0  0  0  0
  193.6827  182.5283  158.5370 C   0  0  0  0  0  0  0  0  0  0  0  0
  194.8505  181.9997  158.0056 C   0  0  0  0  0  0  0  0  0  0  0  0
  196.6020  180.9586  152.6939 C   0  0  1  0  0  0  0  0  0  0  0  0
  197.1564  179.9706  151.6857 C   0  0  0  0  0  0  0  0  0  0  0  0
  196.5791  179.8695  150.4013 C   0  0  0  0  0  0  0  0  0  0  0  0
  197.1456  179.0276  149.4290 C   0  0  0  0  0  0  0  0  0  0  0  0
  198.2331  178.1990  149.7662 C   0  0  0  0  0  0  0  0  0  0  0  0
  198.7653  178.2372  151.0726 C   0  0  0  0  0  0  0  0  0  0  0  0
  198.2401  179.1333  152.0279 C   0  0  0  0  0  0  0  0  0  0  0  0
  196.6859  183.2955  150.4258 C   0  0  0  0  0  0  0  0  0  0  0  0
  196.9265  184.4061  149.6000 C   0  0  0  0  0  0  0  0  0  0  0  0
  197.7655  185.4465  150.0443 C   0  0  0  0  0  0  0  0  0  0  0  0
  198.3690  185.3734  151.3226 C   0  0  0  0  0  0  0  0  0  0  0  0
  196.8017  183.2654  155.5326 H   0  0  0  0  0  0  0  0  0  0  0  0
  198.5643  181.0112  154.8537 H   0  0  0  0  0  0  0  0  0  0  0  0
  199.1955  182.5371  155.4672 H   0  0  0  0  0  0  0  0  0  0  0  0
  197.2256  181.0295  157.4106 H   0  0  0  0  0  0  0  0  0  0  0  0
  198.1714  182.4867  157.4630 H   0  0  0  0  0  0  0  0  0  0  0  0
  197.5836  186.1326  156.5880 H   0  0  0  0  0  0  0  0  0  0  0  0
  195.9944  186.4590  157.2175 H   0  0  0  0  0  0  0  0  0  0  0  0
  197.6312  188.2970  157.8094 H   0  0  0  0  0  0  0  0  0  0  0  0
  196.9070  187.5366  159.2152 H   0  0  0  0  0  0  0  0  0  0  0  0
  199.9308  185.4829  160.0461 H   0  0  0  0  0  0  0  0  0  0  0  0
  198.2646  185.8235  160.5315 H   0  0  0  0  0  0  0  0  0  0  0  0
  198.2982  183.6953  159.4193 H   0  0  0  0  0  0  0  0  0  0  0  0
  199.1494  184.4114  158.0361 H   0  0  0  0  0  0  0  0  0  0  0  0
  198.8831  188.3832  160.5414 H   0  0  0  0  0  0  0  0  0  0  0  0
  199.6528  189.0250  159.0985 H   0  0  0  0  0  0  0  0  0  0  0  0
  200.5166  187.8561  160.1039 H   0  0  0  0  0  0  0  0  0  0  0  0
  194.8082  185.6573  159.3043 H   0  0  0  0  0  0  0  0  0  0  0  0
  192.7709  184.2597  159.4404 H   0  0  0  0  0  0  0  0  0  0  0  0
  192.7874  181.9302  158.5256 H   0  0  0  0  0  0  0  0  0  0  0  0
  194.7933  181.0414  157.5676 H   0  0  0  0  0  0  0  0  0  0  0  0
  196.6117  180.4933  153.6814 H   0  0  0  0  0  0  0  0  0  0  0  0
  195.5600  181.1650  152.4637 H   0  0  0  0  0  0  0  0  0  0  0  0
  195.6996  180.4379  150.1422 H   0  0  0  0  0  0  0  0  0  0  0  0
  196.7345  179.0079  148.4309 H   0  0  0  0  0  0  0  0  0  0  0  0
  198.6420  177.5225  149.0279 H   0  0  0  0  0  0  0  0  0  0  0  0
  199.5818  177.5785  151.3408 H   0  0  0  0  0  0  0  0  0  0  0  0
  198.6621  179.1606  153.0254 H   0  0  0  0  0  0  0  0  0  0  0  0
  196.0166  182.5282  150.0782 H   0  0  0  0  0  0  0  0  0  0  0  0
  196.4643  184.4572  148.6243 H   0  0  0  0  0  0  0  0  0  0  0  0
  197.9312  186.3027  149.4011 H   0  0  0  0  0  0  0  0  0  0  0  0
  199.0009  186.1832  151.6664 H   0  0  0  0  0  0  0  0  0  0  0  0
  199.5361  186.8720  158.1407 H   0  0  0  0  0  0  0  0  0  0  0  0
  196.3322  181.7212  155.3476 H   0  0  0  0  0  0  0  0  0  0  0  0
  1  2  1  0
  1  5  2  0
  2  3  1  0
  2 32  2  0
  3  4  1  0
  3 29  2  0
  4  5  1  0
  4 22  1  0
  5  6  1  0
  6  7  1  0
  6 34  1  6
  6 35  1  0
  7  8  1  0
  7 33  1  1
  7 65  1  0
  8  9  1  0
  8 36  1  6
  8 37  1  0
  9 10  1  0
  9 21  2  0
 10 11  1  0
 10 18  2  0
 11 12  1  0
 11 16  1  0
 12 13  1  0
 12 38  1  6
 12 39  1  0
 13 14  1  0
 13 40  1  6
 13 41  1  0
 14 15  1  0
 14 17  1  0
 14 64  1  6
 15 16  1  0
 15 42  1  1
 15 43  1  0
 16 44  1  1
 16 45  1  0
 17 46  1  1
 17 47  1  0
 17 48  1  0
 18 19  1  0
 18 49  1  0
 19 20  2  0
 19 50  1  0
 20 21  1  0
 20 51  1  0
 21 52  1  0
 22 23  1  0
 22 53  1  1
 22 54  1  0
 23 24  2  0
 23 28  1  0
 24 25  1  0
 24 55  1  0
 25 26  2  0
 25 56  1  0
 26 27  1  0
 26 57  1  0
 27 28  2  0
 27 58  1  0
 28 59  1  0
 29 30  1  0
 29 60  1  0
 30 31  2  0
 30 61  1  0
 31 32  1  0
 31 62  1  0
 32 63  1  0
M  CHG  2   7   1  14   1
M  END
>  <s_epik_cmdline>  (1198) 
J2VwaWtfcHl0aG9uJywgJy1waCcsICc3LjAwMDAwMCcsICctcGh0JywgJzIuMDAwMDAwJywgJy1tcycsICcxNicsICctdG4nLCAnOCcsICctbWEnLCAnMjAwJywgJy1pbWFlJywgJzxpbmZpbGUubWFlPicsICctb21hZScsICc8b3V0ZmlsZS5tYWU+Jw==

>  <s_epik_input>  (1198) 
W2NIXTFbY0hdW2NIXVtjSF1bY0hdYzFbQ0gyXW4oYyhjMjMpW2NIXVtjSF1bY0hdW2NIXTMpYyhuMilbQ0gyXVtOSF1bQ0gyXWM0YyhbY0hdW2NIXVtjSF1bY0hdNClONVtDSDJdW0NIMl1OKFtDSDNdKVtDSDJdW0NIMl01

>  <s_i_glide_gridfile>  (1198) 
ATP-Grid

>  <s_lp_Force_Field>  (1198) 
OPLS_2005

>  <s_lp_Variant>  (1198) 
m_270004bbb____8334716____24720860-1

>  <s_lp_label>  (1198) 
1041_sdstereoexpander_1_neutralizer_1_epik_1_stereoizer_1

>  <s_m_source_file>  (1198) 
ATP-VSW-LIGPREP-001-in.maegz

>  <s_sd_BIOSOLVEIT.INFINISEE\_QUERY\_NAME>  (1198) 
Ref-Lig

>  <s_sd_BIOSOLVEIT.INFINISEE\_QUERY\_SMILES>  (1198) 
S(c1nc2c(cc1C[NH2+]Cc3ccc(cc3)C[NH+](C)C)cccc2)Cc4ccccc4

>  <s_sd_BIOSOLVEIT.INFINISEE\_REACTION\_NAME>  (1198) 
m_270004bbb

>  <s_sd_BIOSOLVEIT.INFINISEE\_REAGENT1\_SMILES>  (1198) 
[R1*]NCc1c(N2CCN(CC2)C)cccc1

>  <s_sd_BIOSOLVEIT.INFINISEE\_REAGENT2\_SMILES>  (1198) 
[R1*]CC1=Nc2c(N1Cc3ccccc3)cccc2

>  <s_sd_BIOSOLVEIT.INFINISEE\_SPACE>  (1198) 
REALSpace_44bn_2023-08

>  <s_vsw_compound_code>  (1198) 
33281

>  <s_vsw_variant>  (1198) 
33281-1

>  <r_epik_Charging_Adjusted_Penalty>  (1198) 
0.927066788669348

>  <r_epik_Ionization_Penalty>  (1198) 
0.4456

>  <r_epik_Ionization_Penalty_Charging>  (1198) 
0.44490000000000002

>  <r_epik_Ionization_Penalty_Neutral>  (1198) 
0.00080000000000000004

>  <r_epik_State_Penalty>  (1198) 
0.48220000000000002

>  <r_i_docking_score>  (1198) 
-4.1816979444879898

>  <r_i_glide_ecoul>  (1198) 
-9.2167634963989293

>  <r_i_glide_eff_state_penalty>  (1198) 
0.48220000000000002

>  <r_i_glide_einternal>  (1198) 
2.2293002605438201

>  <r_i_glide_emodel>  (1198) 
-62.272013091942597

>  <r_i_glide_energy>  (1198) 
-41.524895668029799

>  <r_i_glide_erotb>  (1198) 
0.760239253932252

>  <r_i_glide_esite>  (1198) 
-0.057212757888431699

>  <r_i_glide_evdw>  (1198) 
-32.308132171630902

>  <r_i_glide_gscore>  (1198) 
-4.6638979444879904

>  <r_i_glide_hbond>  (1198) 
0

>  <r_i_glide_ligand_efficiency>  (1198) 
-0.13067806076524999

>  <r_i_glide_ligand_efficiency_ln>  (1198) 
-0.93639615855168201

>  <r_i_glide_ligand_efficiency_sa>  (1198) 
-0.41487698177655902

>  <r_i_glide_lipo>  (1198) 
-1.7900632539449

>  <r_i_glide_metal>  (1198) 
-0

>  <r_i_glide_rewards>  (1198) 
-0.57894005354552602

>  <r_lp_Energy>  (1198) 
40.297167000000002

>  <r_qp_ACxDN^.5/SA>  (1198) 
0.0085865000000000004

>  <r_qp_CIQPlogS>  (1198) 
-4.7309999999999999

>  <r_qp_EA(eV)>  (1198) 
0.27800000000000002

>  <r_qp_FISA>  (1198) 
19.140999999999998

>  <r_qp_FOSA>  (1198) 
279.32299999999998

>  <r_qp_IP(eV)>  (1198) 
8.3729999999999993

>  <r_qp_Jm>  (1198) 
0.018175713755902

>  <r_qp_PISA>  (1198) 
400.30799999999999

>  <r_qp_PSA>  (1198) 
29.521999999999998

>  <r_qp_PercentHumanOralAbsorption>  (1198) 
100

>  <r_qp_QPPCaco>  (1198) 
405.67899999999997

>  <r_qp_QPPMDCK>  (1198) 
228.34999999999999

>  <r_qp_QPlogBB>  (1198) 
0.82199999999999995

>  <r_qp_QPlogHERG>  (1198) 
-7.3360000000000003

>  <r_qp_QPlogKhsa>  (1198) 
0.89000000000000001

>  <r_qp_QPlogKp>  (1198) 
-4.0110000000000001

>  <r_qp_QPlogPC16>  (1198) 
13.967000000000001

>  <r_qp_QPlogPo/w>  (1198) 
4.601

>  <r_qp_QPlogPoct>  (1198) 
20.850999999999999

>  <r_qp_QPlogPw>  (1198) 
10.305

>  <r_qp_QPlogS>  (1198) 
-3.3580000000000001

>  <r_qp_QPpolrz>  (1198) 
48.192999999999998

>  <r_qp_SASA>  (1198) 
698.77200000000005

>  <r_qp_SAamideO>  (1198) 
0

>  <r_qp_SAfluorine>  (1198) 
0

>  <r_qp_WPSA>  (1198) 
0

>  <r_qp_accptHB>  (1198) 
6

>  <r_qp_dip^2/V>  (1198) 
0.0212006

>  <r_qp_dipole>  (1198) 
5.367

>  <r_qp_donorHB>  (1198) 
1

>  <r_qp_glob>  (1198) 
0.84902520000000004

>  <r_qp_mol_MW>  (1198) 
425.57499999999999

>  <r_qp_volume>  (1198) 
1358.74

>  <r_sd_BIOSOLVEIT.INFINISEE\_FTREES\_SIMILARITY>  (1198) 
0.91500000000000004

>  <r_sd_BIOSOLVEIT.LOGP>  (1198) 
1.6829000000000001

>  <r_sd_BIOSOLVEIT.MOLECULAR\_WEIGHT>  (1198) 
427.59300000000002

>  <r_sd_BIOSOLVEIT.TPSA>  (1198) 
42.109999999999999

>  <i_epik_Tot_Q>  (1198) 
2

>  <i_epik_Tot_abs_Q>  (1198) 
2

>  <i_f3d_flags>  (1198) 
0

>  <i_i_glide_confnum>  (1198) 
1

>  <i_i_glide_lignum>  (1198) 
229

>  <i_i_glide_posenum>  (1198) 
5

>  <i_i_glide_rotatable_bonds>  (1198) 
7

>  <i_lp_mmshare_version>  (1198) 
65135

>  <i_m_ct_format>  (1198) 
2

>  <i_m_source_file_index>  (1198) 
1041

>  <i_qp_#NandO>  (1198) 
5

>  <i_qp_#acid>  (1198) 
0

>  <i_qp_#amide>  (1198) 
0

>  <i_qp_#amidine>  (1198) 
0

>  <i_qp_#amine>  (1198) 
2

>  <i_qp_#in34>  (1198) 
0

>  <i_qp_#in56>  (1198) 
27

>  <i_qp_#metab>  (1198) 
5

>  <i_qp_#nonHatm>  (1198) 
32

>  <i_qp_#noncon>  (1198) 
4

>  <i_qp_#ringatoms>  (1198) 
27

>  <i_qp_#rotor>  (1198) 
6

>  <i_qp_#rtvFG>  (1198) 
0

>  <i_qp_#stars>  (1198) 
0

>  <i_qp_CNS>  (1198) 
2

>  <i_qp_HumanOralAbsorption>  (1198) 
3

>  <i_qp_RuleOfFive>  (1198) 
0

>  <i_qp_RuleOfThree>  (1198) 
0

>  <i_sd_BIOSOLVEIT.INFINISEE\_REAGENT1\_NAME>  (1198) 
8334716

>  <i_sd_BIOSOLVEIT.INFINISEE\_REAGENT2\_NAME>  (1198) 
24720860

>  <i_sd_BIOSOLVEIT.INFINISEE\_RESULT\_RANK>  (1198) 
29002

>  <i_sd_version>  (1198) 
0

>  <b_lp_Chiralities_Consistent>  (1198) 
1

>  <b_sd_chiral_flag>  (1198) 
0

>  <canonical_id>  (1198) 
ATP-HTVS-BDC9F9AD9B20

>  <compound_code>  (1198) 
33281

>  <title>  (1198) 
m_270004bbb____8334716____24720860

>  <variant>  (1198) 
33281-1

>  <source_file>  (1198) 
运行/运行/ATP-VSW/ATP-VSW-DOCK_HTVS_1-001_lib/ATP-VSW-DOCK_HTVS_1-001_lib

>  <canonical_smiles>  (1198) 
C[NH+]1CCN(c2ccccc2C[NH2+]Cc2nc3ccccc3n2Cc2ccccc2)CC1

>  <scaffold>  (1198) 
c1ccc(Cn2c(C[NH2+]Cc3ccccc3N3CC[NH2+]CC3)nc3ccccc32)cc1

>  <molecular_formula>  (1198) 
C27H33N5+2

$$$$
ATP-HTVS-BDD1C4453981
     RDKit          3D

 59 61  0  0  0  0  0  0  0  0999 V2000
  194.3449  184.2412  159.6836 S   0  0  0  0  0  0  0  0  0  0  0  0
  195.8081  184.9619  159.0175 C   0  0  0  0  0  0  0  0  0  0  0  0
  196.4128  184.1581  158.1259 N   0  0  0  0  0  0  0  0  0  0  0  0
  195.7539  182.9316  157.9573 C   0  0  0  0  0  0  0  0  0  0  0  0
  194.6325  182.8049  158.7416 C   0  0  0  0  0  0  0  0  0  0  0  0
  196.2890  181.9190  157.0019 C   0  0  1  0  0  0  0  0  0  0  0  0
  196.3717  182.4833  155.6390 N   0  0  1  0  0  0  0  0  0  0  0  0
  196.8204  181.5857  154.5605 C   0  0  2  0  0  0  0  0  0  0  0  0
  198.1255  180.9200  154.9515 C   0  0  0  0  0  0  0  0  0  0  0  0
  198.0398  179.7011  155.6439 C   0  0  0  0  0  0  0  0  0  0  0  0
  199.1825  179.0356  156.0222 C   0  0  0  0  0  0  0  0  0  0  0  0
  200.4703  179.5657  155.7782 C   0  0  0  0  0  0  0  0  0  0  0  0
  200.5798  180.7909  155.0660 C   0  0  0  0  0  0  0  0  0  0  0  0
  199.4032  181.4543  154.6532 C   0  0  0  0  0  0  0  0  0  0  0  0
  201.7452  178.8732  156.2569 C   0  0  1  0  0  0  0  0  0  0  0  0
  201.4677  177.5437  156.8891 N   0  0  1  0  0  0  0  0  0  0  0  0
  200.8132  177.6064  158.2276 C   0  0  2  0  0  0  0  0  0  0  0  0
  201.0098  176.5171  155.9067 C   0  0  2  0  0  0  0  0  0  0  0  0
  196.9630  182.3154  153.2235 C   0  0  2  0  0  0  0  0  0  0  0  0
  196.3284  186.2607  159.3556 N   0  0  0  0  0  0  0  0  0  0  0  0
  197.3159  186.7595  158.4449 C   0  0  0  0  0  0  0  0  0  0  0  0
  198.6899  186.7172  158.7843 C   0  0  0  0  0  0  0  0  0  0  0  0
  199.6669  187.1956  157.8854 C   0  0  0  0  0  0  0  0  0  0  0  0
  199.2791  187.7254  156.6405 C   0  0  0  0  0  0  0  0  0  0  0  0
  200.2167  188.1926  155.7809 F   0  0  0  0  0  0  0  0  0  0  0  0
  197.9161  187.7695  156.2922 C   0  0  0  0  0  0  0  0  0  0  0  0
  196.9352  187.2920  157.1903 C   0  0  0  0  0  0  0  0  0  0  0  0
  195.9497  186.9613  160.4646 C   0  0  0  0  0  0  0  0  0  0  0  0
  195.1760  186.5353  161.3232 O   0  0  0  0  0  0  0  0  0  0  0  0
  196.5103  188.3627  160.7009 C   0  0  2  0  0  0  0  0  0  0  0  0
  195.4153  182.7421  155.4079 H   0  0  0  0  0  0  0  0  0  0  0  0
  193.9495  181.9623  158.8161 H   0  0  0  0  0  0  0  0  0  0  0  0
  197.2777  181.6250  157.3597 H   0  0  0  0  0  0  0  0  0  0  0  0
  195.6478  181.0380  156.9883 H   0  0  0  0  0  0  0  0  0  0  0  0
  196.0774  180.7900  154.4494 H   0  0  0  0  0  0  0  0  0  0  0  0
  197.1023  179.2501  155.9422 H   0  0  0  0  0  0  0  0  0  0  0  0
  198.9630  178.1139  156.5391 H   0  0  0  0  0  0  0  0  0  0  0  0
  201.5561  181.2140  154.8103 H   0  0  0  0  0  0  0  0  0  0  0  0
  199.5131  182.3740  154.0953 H   0  0  0  0  0  0  0  0  0  0  0  0
  202.4362  178.7524  155.4144 H   0  0  0  0  0  0  0  0  0  0  0  0
  202.2984  179.5024  156.9592 H   0  0  0  0  0  0  0  0  0  0  0  0
  199.8138  178.0544  158.2220 H   0  0  0  0  0  0  0  0  0  0  0  0
  201.4205  178.1938  158.9305 H   0  0  0  0  0  0  0  0  0  0  0  0
  200.6961  176.5949  158.6196 H   0  0  0  0  0  0  0  0  0  0  0  0
  200.0333  176.7323  155.4565 H   0  0  0  0  0  0  0  0  0  0  0  0
  200.9127  175.5314  156.3840 H   0  0  0  0  0  0  0  0  0  0  0  0
  201.6912  176.4363  155.0392 H   0  0  0  0  0  0  0  0  0  0  0  0
  197.3113  181.6255  152.4558 H   0  0  0  0  0  0  0  0  0  0  0  0
  197.6769  183.1315  153.2927 H   0  0  0  0  0  0  0  0  0  0  0  0
  196.0143  182.7343  152.9137 H   0  0  0  0  0  0  0  0  0  0  0  0
  198.9997  186.3049  159.7317 H   0  0  0  0  0  0  0  0  0  0  0  0
  200.7141  187.1620  158.1530 H   0  0  0  0  0  0  0  0  0  0  0  0
  197.6281  188.1780  155.3329 H   0  0  0  0  0  0  0  0  0  0  0  0
  195.8943  187.3239  156.8991 H   0  0  0  0  0  0  0  0  0  0  0  0
  197.5753  188.4342  160.4868 H   0  0  0  0  0  0  0  0  0  0  0  0
  196.3861  188.6065  161.7536 H   0  0  0  0  0  0  0  0  0  0  0  0
  195.9515  189.0930  160.1135 H   0  0  0  0  0  0  0  0  0  0  0  0
  202.4317  177.2345  157.0964 H   0  0  0  0  0  0  0  0  0  0  0  0
  196.9523  183.3038  155.6671 H   0  0  0  0  0  0  0  0  0  0  0  0
  1  2  1  0
  1  5  1  0
  2  3  2  0
  2 20  1  0
  3  4  1  0
  4  5  2  0
  4  6  1  0
  5 32  1  0
  6  7  1  0
  6 33  1  1
  6 34  1  0
  7  8  1  0
  7 31  1  6
  7 59  1  0
  8  9  1  0
  8 19  1  0
  8 35  1  6
  9 10  1  0
  9 14  2  0
 10 11  2  0
 10 36  1  0
 11 12  1  0
 11 37  1  0
 12 13  2  0
 12 15  1  0
 13 14  1  0
 13 38  1  0
 14 39  1  0
 15 16  1  0
 15 40  1  6
 15 41  1  0
 16 17  1  0
 16 18  1  0
 16 58  1  1
 17 42  1  6
 17 43  1  0
 17 44  1  0
 18 45  1  6
 18 46  1  0
 18 47  1  0
 19 48  1  6
 19 49  1  0
 19 50  1  0
 20 21  1  0
 20 28  1  0
 21 22  1  0
 21 27  2  0
 22 23  2  0
 22 51  1  0
 23 24  1  0
 23 52  1  0
 24 25  1  0
 24 26  2  0
 26 27  1  0
 26 53  1  0
 27 54  1  0
 28 29  2  0
 28 30  1  0
 30 55  1  6
 30 56  1  0
 30 57  1  0
M  CHG  2   7   1  16   1
M  END
>  <s_epik_cmdline>  (1199) 
J2VwaWtfcHl0aG9uJywgJy1waCcsICc3LjAwMDAwMCcsICctcGh0JywgJzIuMDAwMDAwJywgJy1tcycsICcxNicsICctdG4nLCAnOCcsICctbWEnLCAnMjAwJywgJy1pbWFlJywgJzxpbmZpbGUubWFlPicsICctb21hZScsICc8b3V0ZmlsZS5tYWU+Jw==

>  <s_epik_input>  (1199) 
W2NIXTFbY0hdYyhGKVtjSF1bY0hdYzFOKEMoPU8pW0NIM10pYzJzW2NIXWMobjIpW0NIMl1bTkhdW0NAQEhdKFtDSDNdKWMzW2NIXVtjSF1jKFtjSF1bY0hdMylbQ0gyXU4oW0NIM10pW0NIM10=

>  <s_i_glide_gridfile>  (1199) 
ATP-Grid

>  <s_lp_Force_Field>  (1199) 
OPLS_2005

>  <s_lp_Variant>  (1199) 
m_2230cbb____22404674____7471122-2

>  <s_lp_label>  (1199) 
1193_sdstereoexpander_2_neutralizer_1_epik_1_stereoizer_1

>  <s_m_source_file>  (1199) 
ATP-VSW-LIGPREP-003-in.maegz

>  <s_sd_BIOSOLVEIT.INFINISEE\_QUERY\_NAME>  (1199) 
Ref-Lig

>  <s_sd_BIOSOLVEIT.INFINISEE\_QUERY\_SMILES>  (1199) 
S(c1nc2c(cc1C[NH2+]Cc3ccc(cc3)C[NH+](C)C)cccc2)Cc4ccccc4

>  <s_sd_BIOSOLVEIT.INFINISEE\_REACTION\_NAME>  (1199) 
m_2230cbb

>  <s_sd_BIOSOLVEIT.INFINISEE\_REAGENT1\_SMILES>  (1199) 
[R1*]NC(c1ccc(cc1)CN(C)C)C

>  <s_sd_BIOSOLVEIT.INFINISEE\_REAGENT2\_SMILES>  (1199) 
[R1*]CC=1N=C(SC1)N(c2ccc(F)cc2)C(=O)C

>  <s_sd_BIOSOLVEIT.INFINISEE\_SPACE>  (1199) 
REALSpace_44bn_2023-08

>  <s_vsw_compound_code>  (1199) 
38147

>  <s_vsw_variant>  (1199) 
38147-2

>  <r_epik_Charging_Adjusted_Penalty>  (1199) 
0.42171508261021601

>  <r_epik_Ionization_Penalty>  (1199) 
0.21110000000000001

>  <r_epik_Ionization_Penalty_Charging>  (1199) 
0.21110000000000001

>  <r_epik_Ionization_Penalty_Neutral>  (1199) 
0

>  <r_epik_State_Penalty>  (1199) 
0.21060000000000001

>  <r_i_docking_score>  (1199) 
-5.8865284089926098

>  <r_i_glide_ecoul>  (1199) 
-16.4365749359131

>  <r_i_glide_eff_state_penalty>  (1199) 
0.21060000000000001

>  <r_i_glide_einternal>  (1199) 
12.3760166168213

>  <r_i_glide_emodel>  (1199) 
-79.018853724477296

>  <r_i_glide_energy>  (1199) 
-54.042802810668903

>  <r_i_glide_erotb>  (1199) 
0.75708635674490798

>  <r_i_glide_esite>  (1199) 
-0.088542357740621094

>  <r_i_glide_evdw>  (1199) 
-37.606227874755902

>  <r_i_glide_gscore>  (1199) 
-6.0971284089926101

>  <r_i_glide_hbond>  (1199) 
-0.20000000000000001

>  <r_i_glide_ligand_efficiency>  (1199) 
-0.19621761363308701

>  <r_i_glide_ligand_efficiency_ln>  (1199) 
-1.3374833933872601

>  <r_i_glide_ligand_efficiency_sa>  (1199) 
-0.60969374663019305

>  <r_i_glide_lipo>  (1199) 
-1.17220744060784

>  <r_i_glide_metal>  (1199) 
-0

>  <r_i_glide_rewards>  (1199) 
-1.0476673332643001

>  <r_lp_Energy>  (1199) 
33.562151999999998

>  <r_lp_tautomer_probability>  (1199) 
1

>  <r_qp_ACxDN^.5/SA>  (1199) 
0.010272699999999999

>  <r_qp_CIQPlogS>  (1199) 
-3.5979999999999999

>  <r_qp_EA(eV)>  (1199) 
0.84199999999999997

>  <r_qp_FISA>  (1199) 
64.876000000000005

>  <r_qp_FOSA>  (1199) 
377.57999999999998

>  <r_qp_IP(eV)>  (1199) 
9.1289999999999996

>  <r_qp_Jm>  (1199) 
0.00025547989595726403

>  <r_qp_PISA>  (1199) 
251.91499999999999

>  <r_qp_PSA>  (1199) 
59.277000000000001

>  <r_qp_PercentHumanOralAbsorption>  (1199) 
87.828999999999994

>  <r_qp_QPPCaco>  (1199) 
149.44499999999999

>  <r_qp_QPPMDCK>  (1199) 
224.97499999999999

>  <r_qp_QPlogBB>  (1199) 
0.36399999999999999

>  <r_qp_QPlogHERG>  (1199) 
-7.8390000000000004

>  <r_qp_QPlogKhsa>  (1199) 
0.441

>  <r_qp_QPlogKp>  (1199) 
-5.1849999999999996

>  <r_qp_QPlogPC16>  (1199) 
13.733000000000001

>  <r_qp_QPlogPo/w>  (1199) 
3.7509999999999999

>  <r_qp_QPlogPoct>  (1199) 
21.251000000000001

>  <r_qp_QPlogPw>  (1199) 
11.358000000000001

>  <r_qp_QPlogS>  (1199) 
-4.0380000000000003

>  <r_qp_QPpolrz>  (1199) 
46.829000000000001

>  <r_qp_SASA>  (1199) 
778.76599999999996

>  <r_qp_SAamideO>  (1199) 
0

>  <r_qp_SAfluorine>  (1199) 
47.011000000000003

>  <r_qp_WPSA>  (1199) 
84.394999999999996

>  <r_qp_accptHB>  (1199) 
8

>  <r_qp_dip^2/V>  (1199) 
0.0055315

>  <r_qp_dipole>  (1199) 
2.7749999999999999

>  <r_qp_donorHB>  (1199) 
1

>  <r_qp_glob>  (1199) 
0.77424910000000002

>  <r_qp_mol_MW>  (1199) 
426.55099999999999

>  <r_qp_volume>  (1199) 
1392.144

>  <r_sd_BIOSOLVEIT.INFINISEE\_FTREES\_SIMILARITY>  (1199) 
0.91100000000000003

>  <r_sd_BIOSOLVEIT.LOGP>  (1199) 
2.4359000000000002

>  <r_sd_BIOSOLVEIT.MOLECULAR\_WEIGHT>  (1199) 
428.572

>  <r_sd_BIOSOLVEIT.TPSA>  (1199) 
54.25

>  <i_epik_Tot_Q>  (1199) 
2

>  <i_epik_Tot_abs_Q>  (1199) 
2

>  <i_f3d_flags>  (1199) 
0

>  <i_i_glide_confnum>  (1199) 
8

>  <i_i_glide_lignum>  (1199) 
481

>  <i_i_glide_posenum>  (1199) 
4

>  <i_i_glide_rotatable_bonds>  (1199) 
9

>  <i_lp_mmshare_version>  (1199) 
65135

>  <i_m_ct_format>  (1199) 
2

>  <i_m_source_file_index>  (1199) 
1193

>  <i_qp_#NandO>  (1199) 
5

>  <i_qp_#acid>  (1199) 
0

>  <i_qp_#amide>  (1199) 
0

>  <i_qp_#amidine>  (1199) 
0

>  <i_qp_#amine>  (1199) 
2

>  <i_qp_#in34>  (1199) 
0

>  <i_qp_#in56>  (1199) 
17

>  <i_qp_#metab>  (1199) 
6

>  <i_qp_#nonHatm>  (1199) 
30

>  <i_qp_#noncon>  (1199) 
0

>  <i_qp_#ringatoms>  (1199) 
17

>  <i_qp_#rotor>  (1199) 
8

>  <i_qp_#rtvFG>  (1199) 
0

>  <i_qp_#stars>  (1199) 
0

>  <i_qp_CNS>  (1199) 
1

>  <i_qp_HumanOralAbsorption>  (1199) 
3

>  <i_qp_RuleOfFive>  (1199) 
0

>  <i_qp_RuleOfThree>  (1199) 
0

>  <i_sd_BIOSOLVEIT.INFINISEE\_REAGENT1\_NAME>  (1199) 
22404674

>  <i_sd_BIOSOLVEIT.INFINISEE\_REAGENT2\_NAME>  (1199) 
7471122

>  <i_sd_BIOSOLVEIT.INFINISEE\_RESULT\_RANK>  (1199) 
39703

>  <i_sd_version>  (1199) 
0

>  <b_lp_Chiralities_Consistent>  (1199) 
1

>  <b_sd_chiral_flag>  (1199) 
0

>  <canonical_id>  (1199) 
ATP-HTVS-BDD1C4453981

>  <compound_code>  (1199) 
38147

>  <title>  (1199) 
m_2230cbb____22404674____7471122

>  <variant>  (1199) 
38147-2

>  <source_file>  (1199) 
运行/运行/ATP-VSW/ATP-VSW-DOCK_HTVS_1-003_lib/ATP-VSW-DOCK_HTVS_1-003_lib.mae

>  <canonical_smiles>  (1199) 
CC(=O)N(c1ccc(F)cc1)c1nc(C[NH2+][C@@H](C)c2ccc(C[NH+](C)C)cc2)cs1

>  <scaffold>  (1199) 
c1ccc(C[NH2+]Cc2csc(Nc3ccccc3)n2)cc1

>  <molecular_formula>  (1199) 
C23H29FN4OS+2

$$$$
ATP-HTVS-BE0949FFEA46
     RDKit          3D

 55 58  0  0  0  0  0  0  0  0999 V2000
  201.3846  179.0476  152.0348 O   0  0  0  0  0  0  0  0  0  0  0  0
  200.3914  179.3265  152.7108 C   0  0  0  0  0  0  0  0  0  0  0  0
  199.1579  179.5876  152.1855 N   0  0  0  0  0  0  0  0  0  0  0  0
  198.0293  179.8144  152.9533 N   0  0  0  0  0  0  0  0  0  0  0  0
  198.0484  179.8654  154.2467 C   0  0  0  0  0  0  0  0  0  0  0  0
  199.3183  179.6436  154.9762 C   0  0  0  0  0  0  0  0  0  0  0  0
  200.4854  179.3926  154.2134 C   0  0  0  0  0  0  0  0  0  0  0  0
  201.7258  179.1985  154.8643 C   0  0  0  0  0  0  0  0  0  0  0  0
  201.8005  179.2664  156.2644 C   0  0  0  0  0  0  0  0  0  0  0  0
  200.6494  179.4978  157.0275 C   0  0  0  0  0  0  0  0  0  0  0  0
  199.4102  179.6785  156.3896 C   0  0  0  0  0  0  0  0  0  0  0  0
  196.7469  180.1548  154.9523 C   0  0  1  0  0  0  0  0  0  0  0  0
  196.7599  181.4908  155.7201 C   0  0  0  0  0  0  0  0  0  0  0  0
  197.2065  182.5012  155.1921 O   0  0  0  0  0  0  0  0  0  0  0  0
  196.2806  181.4443  156.9891 N   0  0  0  0  0  0  0  0  0  0  0  0
  196.1947  182.5551  157.9021 C   0  0  0  0  0  0  0  0  0  0  0  0
  197.3310  183.3016  158.3236 C   0  0  0  0  0  0  0  0  0  0  0  0
  198.5934  183.0052  157.7800 N   0  0  0  0  0  0  0  0  0  0  0  0
  199.7790  183.8375  157.9411 C   0  0  2  0  0  0  0  0  0  0  0  0
  200.3705  183.6958  159.3618 C   0  0  2  0  0  0  0  0  0  0  0  0
  199.5668  185.2896  157.4281 C   0  0  2  0  0  0  0  0  0  0  0  0
  197.1513  184.3461  159.2659 C   0  0  0  0  0  0  0  0  0  0  0  0
  195.8758  184.6416  159.7642 C   0  0  0  0  0  0  0  0  0  0  0  0
  194.7590  183.8870  159.3692 C   0  0  0  0  0  0  0  0  0  0  0  0
  194.9241  182.8146  158.4599 C   0  0  0  0  0  0  0  0  0  0  0  0
  198.9877  179.6095  150.7746 C   0  0  0  0  0  0  0  0  0  0  0  0
  199.6664  180.5589  149.9749 C   0  0  0  0  0  0  0  0  0  0  0  0
  199.4525  180.5946  148.5825 C   0  0  0  0  0  0  0  0  0  0  0  0
  198.5567  179.6870  147.9837 C   0  0  0  0  0  0  0  0  0  0  0  0
  197.8675  178.7493  148.7770 C   0  0  0  0  0  0  0  0  0  0  0  0
  198.0786  178.7141  150.1690 C   0  0  0  0  0  0  0  0  0  0  0  0
  202.6249  179.0038  154.2971 H   0  0  0  0  0  0  0  0  0  0  0  0
  202.7339  179.1203  156.7625 H   0  0  0  0  0  0  0  0  0  0  0  0
  200.7088  179.5349  158.1048 H   0  0  0  0  0  0  0  0  0  0  0  0
  198.5398  179.8339  157.0106 H   0  0  0  0  0  0  0  0  0  0  0  0
  195.9378  180.2304  154.2202 H   0  0  0  0  0  0  0  0  0  0  0  0
  196.4968  179.3375  155.6233 H   0  0  0  0  0  0  0  0  0  0  0  0
  195.9168  180.5386  157.3170 H   0  0  0  0  0  0  0  0  0  0  0  0
  198.6074  182.3591  156.9991 H   0  0  0  0  0  0  0  0  0  0  0  0
  200.5061  183.3784  157.2870 H   0  0  0  0  0  0  0  0  0  0  0  0
  201.2859  184.2777  159.4688 H   0  0  0  0  0  0  0  0  0  0  0  0
  200.6149  182.6463  159.5633 H   0  0  0  0  0  0  0  0  0  0  0  0
  199.6878  184.0010  160.1516 H   0  0  0  0  0  0  0  0  0  0  0  0
  200.5085  185.8425  157.4738 H   0  0  0  0  0  0  0  0  0  0  0  0
  198.8130  185.8362  157.9694 H   0  0  0  0  0  0  0  0  0  0  0  0
  199.3016  185.2743  156.3655 H   0  0  0  0  0  0  0  0  0  0  0  0
  197.9683  184.9531  159.6253 H   0  0  0  0  0  0  0  0  0  0  0  0
  195.7570  185.4650  160.4388 H   0  0  0  0  0  0  0  0  0  0  0  0
  193.7774  184.1036  159.7730 H   0  0  0  0  0  0  0  0  0  0  0  0
  194.0768  182.1950  158.1667 H   0  0  0  0  0  0  0  0  0  0  0  0
  200.3493  181.2645  150.4267 H   0  0  0  0  0  0  0  0  0  0  0  0
  199.9716  181.3207  147.9720 H   0  0  0  0  0  0  0  0  0  0  0  0
  198.3933  179.7163  146.9156 H   0  0  0  0  0  0  0  0  0  0  0  0
  197.1758  178.0602  148.3151 H   0  0  0  0  0  0  0  0  0  0  0  0
  197.5478  177.9974  150.7755 H   0  0  0  0  0  0  0  0  0  0  0  0
  1  2  2  0
  2  3  1  0
  2  7  1  0
  3  4  1  0
  3 26  1  0
  4  5  2  0
  5  6  1  0
  5 12  1  0
  6  7  1  0
  6 11  2  0
  7  8  2  0
  8  9  1  0
  8 32  1  0
  9 10  2  0
  9 33  1  0
 10 11  1  0
 10 34  1  0
 11 35  1  0
 12 13  1  0
 12 36  1  6
 12 37  1  0
 13 14  2  0
 13 15  1  0
 15 16  1  0
 15 38  1  0
 16 17  1  0
 16 25  2  0
 17 18  1  0
 17 22  2  0
 18 19  1  0
 18 39  1  0
 19 20  1  0
 19 21  1  0
 19 40  1  6
 20 41  1  6
 20 42  1  0
 20 43  1  0
 21 44  1  6
 21 45  1  0
 21 46  1  0
 22 23  1  0
 22 47  1  0
 23 24  2  0
 23 48  1  0
 24 25  1  0
 24 49  1  0
 25 50  1  0
 26 27  2  0
 26 31  1  0
 27 28  1  0
 27 51  1  0
 28 29  2  0
 28 52  1  0
 29 30  1  0
 29 53  1  0
 30 31  2  0
 30 54  1  0
 31 55  1  0
M  END
>  <s_epik_cmdline>  (1200) 
J2VwaWtfcHl0aG9uJywgJy1waCcsICc3LjAwMDAwMCcsICctcGh0JywgJzIuMDAwMDAwJywgJy1tcycsICcxNicsICctdG4nLCAnOCcsICctbWEnLCAnMjAwJywgJy1pbWFlJywgJzxpbmZpbGUubWFlPicsICctb21hZScsICc8b3V0ZmlsZS5tYWU+Jw==

>  <s_epik_input>  (1200) 
W2NIXTFbY0hdW2NIXVtjSF1jKGMxMiljKD1PKW4oLWMzW2NIXVtjSF1bY0hdW2NIXVtjSF0zKW5jMltDSDJdQyg9TylbTkhdYzRjKFtOSF1bQ0hdKFtDSDNdKVtDSDNdKVtjSF1bY0hdW2NIXVtjSF00

>  <s_i_glide_gridfile>  (1200) 
ATP-Grid

>  <s_lp_Force_Field>  (1200) 
OPLS_2005

>  <s_lp_Variant>  (1200) 
rxn101____EMOL108753642____EMOL32175678-1

>  <s_lp_label>  (1200) 
2641_sdstereoexpander_1_neutralizer_1_epik_1_stereoizer_1

>  <s_m_source_file>  (1200) 
ATP-VSW-LIGPREP-003-in.maegz

>  <s_sd_BIOSOLVEIT.INFINISEE\_QUERY\_NAME>  (1200) 
Ref-Lig

>  <s_sd_BIOSOLVEIT.INFINISEE\_QUERY\_SMILES>  (1200) 
S(c1nc2c(cc1C[NH2+]Cc3ccc(cc3)C[NH+](C)C)cccc2)Cc4ccccc4

>  <s_sd_BIOSOLVEIT.INFINISEE\_REACTION\_NAME>  (1200) 
rxn101

>  <s_sd_BIOSOLVEIT.INFINISEE\_REAGENT1\_NAME>  (1200) 
EMOL108753642

>  <s_sd_BIOSOLVEIT.INFINISEE\_REAGENT1\_SMILES>  (1200) 
N(c1c(N)cccc1)C(C)C

>  <s_sd_BIOSOLVEIT.INFINISEE\_REAGENT2\_NAME>  (1200) 
EMOL32175678

>  <s_sd_BIOSOLVEIT.INFINISEE\_REAGENT2\_SMILES>  (1200) 
O=C(O)CC1=NN(c2ccccc2)C(=O)c3c1cccc3

>  <s_sd_BIOSOLVEIT.INFINISEE\_SPACE>  (1200) 
eXplore_7tr_2022-12

>  <s_vsw_compound_code>  (1200) 
84483

>  <s_vsw_variant>  (1200) 
84483-1

>  <r_epik_Charging_Adjusted_Penalty>  (1200) 
0.0134990220113808

>  <r_epik_Ionization_Penalty>  (1200) 
0.0135

>  <r_epik_Ionization_Penalty_Charging>  (1200) 
0

>  <r_epik_Ionization_Penalty_Neutral>  (1200) 
0.0135

>  <r_epik_State_Penalty>  (1200) 
0.0135

>  <r_i_docking_score>  (1200) 
-3.6871699569075802

>  <r_i_glide_ecoul>  (1200) 
-7.3201999664306596

>  <r_i_glide_eff_state_penalty>  (1200) 
0.0135

>  <r_i_glide_einternal>  (1200) 
6.0772027969360396

>  <r_i_glide_emodel>  (1200) 
-43.431107021499599

>  <r_i_glide_energy>  (1200) 
-36.944503784179702

>  <r_i_glide_erotb>  (1200) 
0.69539339701561398

>  <r_i_glide_esite>  (1200) 
-0.16521914110987501

>  <r_i_glide_evdw>  (1200) 
-29.624303817748999

>  <r_i_glide_gscore>  (1200) 
-3.7006699569075798

>  <r_i_glide_hbond>  (1200) 
-0.15840394908873101

>  <r_i_glide_ligand_efficiency>  (1200) 
-0.118940966351857

>  <r_i_glide_ligand_efficiency_ln>  (1200) 
-0.83156982347126995

>  <r_i_glide_ligand_efficiency_sa>  (1200) 
-0.37363885004677

>  <r_i_glide_lipo>  (1200) 
-0.89649275969072195

>  <r_i_glide_metal>  (1200) 
-0

>  <r_i_glide_rewards>  (1200) 
-0.59670231818181596

>  <r_lp_Energy>  (1200) 
46.332836999999998

>  <r_qp_ACxDN^.5/SA>  (1200) 
0.011306099999999999

>  <r_qp_CIQPlogS>  (1200) 
-6.6509999999999998

>  <r_qp_EA(eV)>  (1200) 
0.94099999999999995

>  <r_qp_FISA>  (1200) 
76.438000000000002

>  <r_qp_FOSA>  (1200) 
157.905

>  <r_qp_IP(eV)>  (1200) 
8.1050000000000004

>  <r_qp_Jm>  (1200) 
0.075492331502080498

>  <r_qp_PISA>  (1200) 
453.62299999999999

>  <r_qp_PSA>  (1200) 
83.674999999999997

>  <r_qp_PercentHumanOralAbsorption>  (1200) 
100

>  <r_qp_QPPCaco>  (1200) 
1866.5640000000001

>  <r_qp_QPPMDCK>  (1200) 
971.21500000000003

>  <r_qp_QPlogBB>  (1200) 
-0.47099999999999997

>  <r_qp_QPlogHERG>  (1200) 
-6.3819999999999997

>  <r_qp_QPlogKhsa>  (1200) 
0.80600000000000005

>  <r_qp_QPlogKp>  (1200) 
-0.84999999999999998

>  <r_qp_QPlogPC16>  (1200) 
14.396000000000001

>  <r_qp_QPlogPo/w>  (1200) 
4.9500000000000002

>  <r_qp_QPlogPoct>  (1200) 
21.667000000000002

>  <r_qp_QPlogPw>  (1200) 
12.224

>  <r_qp_QPlogS>  (1200) 
-5.8869999999999996

>  <r_qp_QPpolrz>  (1200) 
46.677999999999997

>  <r_qp_SASA>  (1200) 
687.96500000000003

>  <r_qp_SAamideO>  (1200) 
0

>  <r_qp_SAfluorine>  (1200) 
0

>  <r_qp_WPSA>  (1200) 
0

>  <r_qp_accptHB>  (1200) 
5.5

>  <r_qp_dip^2/V>  (1200) 
0.0101183

>  <r_qp_dipole>  (1200) 
3.6160000000000001

>  <r_qp_donorHB>  (1200) 
2

>  <r_qp_glob>  (1200) 
0.83394029999999997

>  <r_qp_mol_MW>  (1200) 
412.49000000000001

>  <r_qp_volume>  (1200) 
1292.125

>  <r_sd_BIOSOLVEIT.INFINISEE\_FTREES\_SIMILARITY>  (1200) 
0.91000000000000003

>  <r_sd_BIOSOLVEIT.LOGP>  (1200) 
4.3872

>  <r_sd_BIOSOLVEIT.MOLECULAR\_WEIGHT>  (1200) 
412.49099999999999

>  <r_sd_BIOSOLVEIT.TPSA>  (1200) 
76.019999999999996

>  <i_epik_Tot_Q>  (1200) 
0

>  <i_epik_Tot_abs_Q>  (1200) 
0

>  <i_f3d_flags>  (1200) 
0

>  <i_i_glide_confnum>  (1200) 
6

>  <i_i_glide_lignum>  (1200) 
1217

>  <i_i_glide_posenum>  (1200) 
17

>  <i_i_glide_rotatable_bonds>  (1200) 
7

>  <i_lp_mmshare_version>  (1200) 
65135

>  <i_m_ct_format>  (1200) 
2

>  <i_m_source_file_index>  (1200) 
2641

>  <i_qp_#NandO>  (1200) 
6

>  <i_qp_#acid>  (1200) 
0

>  <i_qp_#amide>  (1200) 
0

>  <i_qp_#amidine>  (1200) 
0

>  <i_qp_#amine>  (1200) 
0

>  <i_qp_#in34>  (1200) 
0

>  <i_qp_#in56>  (1200) 
22

>  <i_qp_#metab>  (1200) 
5

>  <i_qp_#nonHatm>  (1200) 
31

>  <i_qp_#noncon>  (1200) 
0

>  <i_qp_#ringatoms>  (1200) 
22

>  <i_qp_#rotor>  (1200) 
5

>  <i_qp_#rtvFG>  (1200) 
0

>  <i_qp_#stars>  (1200) 
1

>  <i_qp_CNS>  (1200) 
0

>  <i_qp_HumanOralAbsorption>  (1200) 
3

>  <i_qp_RuleOfFive>  (1200) 
0

>  <i_qp_RuleOfThree>  (1200) 
1

>  <i_sd_BIOSOLVEIT.INFINISEE\_RESULT\_RANK>  (1200) 
45285

>  <i_sd_version>  (1200) 
0

>  <b_lp_Chiralities_Consistent>  (1200) 
1

>  <b_sd_chiral_flag>  (1200) 
0

>  <canonical_id>  (1200) 
ATP-HTVS-BE0949FFEA46

>  <compound_code>  (1200) 
84483

>  <title>  (1200) 
rxn101____EMOL108753642____EMOL32175678

>  <variant>  (1200) 
84483-1

>  <source_file>  (1200) 
运行/运行/ATP-VSW/ATP-VSW-DOCK_HTVS_1-003_lib/ATP-VSW-DOCK_HTVS_1-003_lib.mae

>  <canonical_smiles>  (1200) 
CC(C)Nc1ccccc1NC(=O)Cc1nn(-c2ccccc2)c(=O)c2ccccc12

>  <scaffold>  (1200) 
O=C(Cc1nn(-c2ccccc2)c(=O)c2ccccc12)Nc1ccccc1

>  <molecular_formula>  (1200) 
C25H24N4O2

$$$$
ATP-HTVS-BE25F64FE980
     RDKit          3D

 65 68  0  0  0  0  0  0  0  0999 V2000
  199.5736  190.1549  155.7200 S   0  0  0  0  0  0  0  0  0  0  0  0
  199.9338  188.8246  156.8262 C   0  0  0  0  0  0  0  0  0  0  0  0
  200.3351  187.5614  156.3476 C   0  0  0  0  0  0  0  0  0  0  0  0
  200.6255  186.5231  157.2530 C   0  0  0  0  0  0  0  0  0  0  0  0
  200.5031  186.7319  158.6439 C   0  0  0  0  0  0  0  0  0  0  0  0
  200.1165  188.0054  159.1195 C   0  0  0  0  0  0  0  0  0  0  0  0
  199.8308  189.0457  158.2137 C   0  0  0  0  0  0  0  0  0  0  0  0
  200.7991  185.6041  159.6265 C   0  0  1  0  0  0  0  0  0  0  0  0
  200.3585  184.2859  159.1685 N   0  0  0  0  0  0  0  0  0  0  0  0
  199.0406  183.9758  158.9359 C   0  0  0  0  0  0  0  0  0  0  0  0
  198.8230  183.0640  157.9792 N   0  0  0  0  0  0  0  0  0  0  0  0
  197.5417  182.7318  157.7235 C   0  0  0  0  0  0  0  0  0  0  0  0
  197.2773  181.8440  156.6754 N   0  0  0  0  0  0  0  0  0  0  0  0
  198.1395  181.9052  155.5059 C   0  0  1  0  0  0  0  0  0  0  0  0
  197.4485  181.5173  154.2214 C   0  0  0  0  0  0  0  0  0  0  0  0
  196.9713  182.5405  153.3677 C   0  0  0  0  0  0  0  0  0  0  0  0
  196.4859  182.2374  152.0852 C   0  0  0  0  0  0  0  0  0  0  0  0
  196.3550  180.8816  151.6947 C   0  0  0  0  0  0  0  0  0  0  0  0
  196.7505  179.8538  152.5804 C   0  0  0  0  0  0  0  0  0  0  0  0
  197.3101  180.1718  153.8342 C   0  0  0  0  0  0  0  0  0  0  0  0
  196.1272  183.3662  151.1235 C   0  0  1  0  0  0  0  0  0  0  0  0
  197.3273  183.9194  150.4333 N   0  0  2  0  0  0  0  0  0  0  0  0
  198.2100  184.7284  151.3105 C   0  0  2  0  0  0  0  0  0  0  0  0
  196.9893  184.6549  149.1935 C   0  0  2  0  0  0  0  0  0  0  0  0
  196.4765  183.3138  158.4456 C   0  0  0  0  0  0  0  0  0  0  0  0
  196.8254  184.2882  159.4228 C   0  0  0  0  0  0  0  0  0  0  0  0
  198.1118  184.6005  159.6510 N   0  0  0  0  0  0  0  0  0  0  0  0
  195.8028  184.9355  160.1295 C   0  0  0  0  0  0  0  0  0  0  0  0
  194.4500  184.6396  159.8783 C   0  0  0  0  0  0  0  0  0  0  0  0
  194.1127  183.6542  158.9299 C   0  0  0  0  0  0  0  0  0  0  0  0
  195.1232  182.9917  158.2160 C   0  0  0  0  0  0  0  0  0  0  0  0
  202.2820  185.5829  160.0130 C   0  0  2  0  0  0  0  0  0  0  0  0
  199.6458  189.5087  154.0230 C   0  0  2  0  0  0  0  0  0  0  0  0
  200.4333  187.3619  155.2927 H   0  0  0  0  0  0  0  0  0  0  0  0
  200.9373  185.5660  156.8639 H   0  0  0  0  0  0  0  0  0  0  0  0
  200.0331  188.1946  160.1809 H   0  0  0  0  0  0  0  0  0  0  0  0
  199.5325  190.0143  158.5888 H   0  0  0  0  0  0  0  0  0  0  0  0
  200.2412  185.8268  160.5345 H   0  0  0  0  0  0  0  0  0  0  0  0
  201.0054  183.7994  158.5649 H   0  0  0  0  0  0  0  0  0  0  0  0
  196.3243  181.5499  156.5219 H   0  0  0  0  0  0  0  0  0  0  0  0
  198.5338  182.9146  155.3858 H   0  0  0  0  0  0  0  0  0  0  0  0
  199.0000  181.2578  155.6673 H   0  0  0  0  0  0  0  0  0  0  0  0
  197.0274  183.5606  153.7098 H   0  0  0  0  0  0  0  0  0  0  0  0
  195.9610  180.6204  150.7254 H   0  0  0  0  0  0  0  0  0  0  0  0
  196.6486  178.8177  152.2883 H   0  0  0  0  0  0  0  0  0  0  0  0
  197.6429  179.3873  154.5011 H   0  0  0  0  0  0  0  0  0  0  0  0
  195.4364  182.9673  150.3798 H   0  0  0  0  0  0  0  0  0  0  0  0
  195.5794  184.1540  151.6463 H   0  0  0  0  0  0  0  0  0  0  0  0
  197.6634  185.5826  151.7122 H   0  0  0  0  0  0  0  0  0  0  0  0
  199.0754  185.1016  150.7635 H   0  0  0  0  0  0  0  0  0  0  0  0
  198.6156  184.1570  152.1419 H   0  0  0  0  0  0  0  0  0  0  0  0
  196.3438  185.5097  149.4004 H   0  0  0  0  0  0  0  0  0  0  0  0
  196.4884  184.0183  148.4617 H   0  0  0  0  0  0  0  0  0  0  0  0
  197.8946  185.0400  148.7213 H   0  0  0  0  0  0  0  0  0  0  0  0
  196.0632  185.6938  160.8592 H   0  0  0  0  0  0  0  0  0  0  0  0
  193.6642  185.1578  160.4075 H   0  0  0  0  0  0  0  0  0  0  0  0
  193.0759  183.4280  158.7225 H   0  0  0  0  0  0  0  0  0  0  0  0
  194.8343  182.2587  157.4769 H   0  0  0  0  0  0  0  0  0  0  0  0
  202.5858  186.5391  160.4402 H   0  0  0  0  0  0  0  0  0  0  0  0
  202.9209  185.3868  159.1515 H   0  0  0  0  0  0  0  0  0  0  0  0
  202.4782  184.8155  160.7627 H   0  0  0  0  0  0  0  0  0  0  0  0
  199.4944  190.3147  153.3042 H   0  0  0  0  0  0  0  0  0  0  0  0
  198.8726  188.7542  153.8660 H   0  0  0  0  0  0  0  0  0  0  0  0
  200.6209  189.0656  153.8183 H   0  0  0  0  0  0  0  0  0  0  0  0
  197.8654  183.1143  150.1398 H   0  0  0  0  0  0  0  0  0  0  0  0
  1  2  1  0
  1 33  1  0
  2  3  1  0
  2  7  2  0
  3  4  2  0
  3 34  1  0
  4  5  1  0
  4 35  1  0
  5  6  2  0
  5  8  1  0
  6  7  1  0
  6 36  1  0
  7 37  1  0
  8  9  1  0
  8 32  1  0
  8 38  1  1
  9 10  1  0
  9 39  1  0
 10 11  2  0
 10 27  1  0
 11 12  1  0
 12 13  1  0
 12 25  2  0
 13 14  1  0
 13 40  1  0
 14 15  1  0
 14 41  1  6
 14 42  1  0
 15 16  2  0
 15 20  1  0
 16 17  1  0
 16 43  1  0
 17 18  2  0
 17 21  1  0
 18 19  1  0
 18 44  1  0
 19 20  2  0
 19 45  1  0
 20 46  1  0
 21 22  1  0
 21 47  1  6
 21 48  1  0
 22 23  1  0
 22 24  1  0
 22 65  1  6
 23 49  1  1
 23 50  1  0
 23 51  1  0
 24 52  1  1
 24 53  1  0
 24 54  1  0
 25 26  1  0
 25 31  1  0
 26 27  2  0
 26 28  1  0
 28 29  2  0
 28 55  1  0
 29 30  1  0
 29 56  1  0
 30 31  2  0
 30 57  1  0
 31 58  1  0
 32 59  1  1
 32 60  1  0
 32 61  1  0
 33 62  1  6
 33 63  1  0
 33 64  1  0
M  CHG  1  22   1
M  END
>  <s_epik_cmdline>  (1201) 
J2VwaWtfcHl0aG9uJywgJy1waCcsICc3LjAwMDAwMCcsICctcGh0JywgJzIuMDAwMDAwJywgJy1tcycsICcxNicsICctdG4nLCAnOCcsICctbWEnLCAnMjAwJywgJy1pbWFlJywgJzxpbmZpbGUubWFlPicsICctb21hZScsICc8b3V0ZmlsZS5tYWU+Jw==

>  <s_epik_input>  (1201) 
W0NIM11TYzFbY0hdW2NIXWMoW2NIXVtjSF0xKVtDQEhdKFtDSDNdKVtOSF1jKG5jKGMyMylbY0hdW2NIXVtjSF1bY0hdMyluYzJbTkhdW0NIMl1jNFtjSF1jKFtjSF1bY0hdW2NIXTQpW0NIMl1OKFtDSDNdKVtDSDNd

>  <s_i_glide_gridfile>  (1201) 
ATP-Grid

>  <s_lp_Force_Field>  (1201) 
OPLS_2005

>  <s_lp_Variant>  (1201) 
m_282030aaa____21890704____22360182____21940090-6

>  <s_lp_label>  (1201) 
1338_sdstereoexpander_2_neutralizer_1_epik_3_stereoizer_1

>  <s_m_source_file>  (1201) 
ATP-VSW-LIGPREP-001-in.maegz

>  <s_sd_BIOSOLVEIT.INFINISEE\_QUERY\_NAME>  (1201) 
Ref-Lig

>  <s_sd_BIOSOLVEIT.INFINISEE\_QUERY\_SMILES>  (1201) 
S(c1nc2c(cc1C[NH2+]Cc3ccc(cc3)C[NH+](C)C)cccc2)Cc4ccccc4

>  <s_sd_BIOSOLVEIT.INFINISEE\_REACTION\_NAME>  (1201) 
m_282030aaa

>  <s_sd_BIOSOLVEIT.INFINISEE\_REAGENT1\_SMILES>  (1201) 
[R1*]NC(c1ccc(SC)cc1)C

>  <s_sd_BIOSOLVEIT.INFINISEE\_REAGENT2\_SMILES>  (1201) 
[R2*]c1nc([R1*])c2c(n1)cccc2

>  <s_sd_BIOSOLVEIT.INFINISEE\_REAGENT3\_SMILES>  (1201) 
[R2*]NCc1cc(ccc1)CN(C)C

>  <s_sd_BIOSOLVEIT.INFINISEE\_SPACE>  (1201) 
REALSpace_44bn_2023-08

>  <s_vsw_compound_code>  (1201) 
42785

>  <s_vsw_variant>  (1201) 
42785-6

>  <r_epik_Charging_Adjusted_Penalty>  (1201) 
1.97642031373781

>  <r_epik_Ionization_Penalty>  (1201) 
2.1036000000000001

>  <r_epik_Ionization_Penalty_Charging>  (1201) 
0.0441

>  <r_epik_Ionization_Penalty_Neutral>  (1201) 
2.0594999999999999

>  <r_epik_State_Penalty>  (1201) 
1.9322999999999999

>  <r_i_docking_score>  (1201) 
-1.9146163359127599

>  <r_i_glide_ecoul>  (1201) 
-3.94164371490479

>  <r_i_glide_eff_state_penalty>  (1201) 
1.9322999999999999

>  <r_i_glide_einternal>  (1201) 
1.9338959455490099

>  <r_i_glide_emodel>  (1201) 
-53.5373649422353

>  <r_i_glide_energy>  (1201) 
-40.664105415344203

>  <r_i_glide_erotb>  (1201) 
0.66935404193645798

>  <r_i_glide_esite>  (1201) 
-0.059982467427810902

>  <r_i_glide_evdw>  (1201) 
-36.722461700439503

>  <r_i_glide_gscore>  (1201) 
-3.8469163359127601

>  <r_i_glide_hbond>  (1201) 
0

>  <r_i_glide_ligand_efficiency>  (1201) 
-0.058018676845841097

>  <r_i_glide_ligand_efficiency_ln>  (1201) 
-0.42580075975416098

>  <r_i_glide_ligand_efficiency_sa>  (1201) 
-0.18609689754707301

>  <r_i_glide_lipo>  (1201) 
-1.6201855588237599

>  <r_i_glide_metal>  (1201) 
-0

>  <r_i_glide_rewards>  (1201) 
-0.40873270933995298

>  <r_lp_Energy>  (1201) 
8.5074349999999992

>  <r_qp_ACxDN^.5/SA>  (1201) 
0.012073199999999999

>  <r_qp_CIQPlogS>  (1201) 
-6.516

>  <r_qp_EA(eV)>  (1201) 
0.71199999999999997

>  <r_qp_FISA>  (1201) 
40.593000000000004

>  <r_qp_FOSA>  (1201) 
307.05399999999997

>  <r_qp_IP(eV)>  (1201) 
8.1500000000000004

>  <r_qp_Jm>  (1201) 
0.54765244012423298

>  <r_qp_PISA>  (1201) 
266.68099999999998

>  <r_qp_PSA>  (1201) 
47.039000000000001

>  <r_qp_PercentHumanOralAbsorption>  (1201) 
100

>  <r_qp_QPPCaco>  (1201) 
1018.26

>  <r_qp_QPPMDCK>  (1201) 
814.03099999999995

>  <r_qp_QPlogBB>  (1201) 
0.16700000000000001

>  <r_qp_QPlogHERG>  (1201) 
-4.9729999999999999

>  <r_qp_QPlogKhsa>  (1201) 
0.79900000000000004

>  <r_qp_QPlogKp>  (1201) 
-2.5270000000000001

>  <r_qp_QPlogPC16>  (1201) 
13.470000000000001

>  <r_qp_QPlogPo/w>  (1201) 
4.891

>  <r_qp_QPlogPoct>  (1201) 
20.562000000000001

>  <r_qp_QPlogPw>  (1201) 
9.7309999999999999

>  <r_qp_QPlogS>  (1201) 
-3.395

>  <r_qp_QPpolrz>  (1201) 
44.104999999999997

>  <r_qp_SASA>  (1201) 
644.25

>  <r_qp_SAamideO>  (1201) 
0

>  <r_qp_SAfluorine>  (1201) 
0

>  <r_qp_WPSA>  (1201) 
29.922999999999998

>  <r_qp_accptHB>  (1201) 
5.5

>  <r_qp_dip^2/V>  (1201) 
0.0064438000000000004

>  <r_qp_dipole>  (1201) 
2.9350000000000001

>  <r_qp_donorHB>  (1201) 
2

>  <r_qp_glob>  (1201) 
0.91084529999999997

>  <r_qp_mol_MW>  (1201) 
457.63499999999999

>  <r_qp_volume>  (1201) 
1336.5989999999999

>  <r_sd_BIOSOLVEIT.INFINISEE\_FTREES\_SIMILARITY>  (1201) 
0.90900000000000003

>  <r_sd_BIOSOLVEIT.LOGP>  (1201) 
4.7813999999999997

>  <r_sd_BIOSOLVEIT.MOLECULAR\_WEIGHT>  (1201) 
458.64999999999998

>  <r_sd_BIOSOLVEIT.TPSA>  (1201) 
54.280000000000001

>  <i_epik_Tot_Q>  (1201) 
1

>  <i_epik_Tot_abs_Q>  (1201) 
1

>  <i_f3d_flags>  (1201) 
0

>  <i_i_glide_confnum>  (1201) 
6

>  <i_i_glide_lignum>  (1201) 
356

>  <i_i_glide_posenum>  (1201) 
12

>  <i_i_glide_rotatable_bonds>  (1201) 
9

>  <i_lp_mmshare_version>  (1201) 
65135

>  <i_m_ct_format>  (1201) 
2

>  <i_m_source_file_index>  (1201) 
1338

>  <i_qp_#NandO>  (1201) 
5

>  <i_qp_#acid>  (1201) 
0

>  <i_qp_#amide>  (1201) 
0

>  <i_qp_#amidine>  (1201) 
0

>  <i_qp_#amine>  (1201) 
1

>  <i_qp_#in34>  (1201) 
0

>  <i_qp_#in56>  (1201) 
22

>  <i_qp_#metab>  (1201) 
4

>  <i_qp_#nonHatm>  (1201) 
33

>  <i_qp_#noncon>  (1201) 
0

>  <i_qp_#ringatoms>  (1201) 
22

>  <i_qp_#rotor>  (1201) 
9

>  <i_qp_#rtvFG>  (1201) 
0

>  <i_qp_#stars>  (1201) 
0

>  <i_qp_CNS>  (1201) 
1

>  <i_qp_HumanOralAbsorption>  (1201) 
3

>  <i_qp_RuleOfFive>  (1201) 
0

>  <i_qp_RuleOfThree>  (1201) 
0

>  <i_sd_BIOSOLVEIT.INFINISEE\_REAGENT1\_NAME>  (1201) 
21890704

>  <i_sd_BIOSOLVEIT.INFINISEE\_REAGENT2\_NAME>  (1201) 
22360182

>  <i_sd_BIOSOLVEIT.INFINISEE\_REAGENT3\_NAME>  (1201) 
21940090

>  <i_sd_BIOSOLVEIT.INFINISEE\_RESULT\_RANK>  (1201) 
48891

>  <i_sd_version>  (1201) 
0

>  <b_lp_Chiralities_Consistent>  (1201) 
1

>  <b_sd_chiral_flag>  (1201) 
0

>  <canonical_id>  (1201) 
ATP-HTVS-BE25F64FE980

>  <compound_code>  (1201) 
42785

>  <title>  (1201) 
m_282030aaa____21890704____22360182____21940090

>  <variant>  (1201) 
42785-6

>  <source_file>  (1201) 
运行/运行/ATP-VSW/ATP-VSW-DOCK_HTVS_1-001_lib/ATP-VSW-DOCK_HTVS_1-001_lib

>  <canonical_smiles>  (1201) 
CSc1ccc([C@H](C)Nc2nc(NCc3cccc(C[NH+](C)C)c3)c3ccccc3n2)cc1

>  <scaffold>  (1201) 
c1ccc(CNc2nc(NCc3ccccc3)c3ccccc3n2)cc1

>  <molecular_formula>  (1201) 
C27H32N5S+

$$$$
ATP-HTVS-BE2C9D7D83B9
     RDKit          3D

 65 68  0  0  0  0  0  0  0  0999 V2000
  197.7753  185.2310  155.6444 Cl  0  0  0  0  0  0  0  0  0  0  0  0
  197.3143  186.2880  156.9339 C   0  0  0  0  0  0  0  0  0  0  0  0
  196.9395  185.8338  158.2263 C   0  0  0  0  0  0  0  0  0  0  0  0
  196.6509  186.7800  159.2380 C   0  0  0  0  0  0  0  0  0  0  0  0
  196.7546  188.1579  158.9763 C   0  0  0  0  0  0  0  0  0  0  0  0
  197.1458  188.5972  157.7002 C   0  0  0  0  0  0  0  0  0  0  0  0
  197.4150  187.6651  156.6844 C   0  0  0  0  0  0  0  0  0  0  0  0
  196.9377  184.3587  158.6067 C   0  0  2  0  0  0  0  0  0  0  0  0
  198.2074  183.6468  158.3861 N   0  0  0  0  0  0  0  0  0  0  0  0
  199.4906  184.2191  158.5437 C   0  0  0  0  0  0  0  0  0  0  0  0
  199.5823  185.4093  159.1655 N   0  0  0  0  0  0  0  0  0  0  0  0
  200.7660  186.0505  159.1489 C   0  0  0  0  0  0  0  0  0  0  0  0
  201.9292  185.4323  158.5970 C   0  0  0  0  0  0  0  0  0  0  0  0
  201.8521  184.2062  158.0249 N   0  0  0  0  0  0  0  0  0  0  0  0
  200.6429  183.5962  157.9885 C   0  0  0  0  0  0  0  0  0  0  0  0
  200.5402  182.3420  157.3671 N   0  0  0  0  0  0  0  0  0  0  0  0
  201.7061  181.6748  156.8164 C   0  0  1  0  0  0  0  0  0  0  0  0
  201.4069  180.2751  156.3090 C   0  0  0  0  0  0  0  0  0  0  0  0
  200.5944  179.4008  157.0609 C   0  0  0  0  0  0  0  0  0  0  0  0
  200.3016  178.1128  156.5893 C   0  0  0  0  0  0  0  0  0  0  0  0
  200.8412  177.6752  155.3640 C   0  0  0  0  0  0  0  0  0  0  0  0
  201.6609  178.5416  154.6102 C   0  0  0  0  0  0  0  0  0  0  0  0
  201.9432  179.8384  155.0808 C   0  0  0  0  0  0  0  0  0  0  0  0
  200.5534  176.2698  154.8755 C   0  0  1  0  0  0  0  0  0  0  0  0
  201.6550  175.3211  155.1797 N   0  0  1  0  0  0  0  0  0  0  0  0
  202.0223  175.2777  156.6147 C   0  0  2  0  0  0  0  0  0  0  0  0
  201.3827  173.9697  154.6373 C   0  0  2  0  0  0  0  0  0  0  0  0
  203.1659  186.1158  158.6654 C   0  0  0  0  0  0  0  0  0  0  0  0
  203.2398  187.4042  159.2396 C   0  0  0  0  0  0  0  0  0  0  0  0
  202.0797  188.0430  159.7231 C   0  0  0  0  0  0  0  0  0  0  0  0
  200.8528  187.3588  159.6597 C   0  0  0  0  0  0  0  0  0  0  0  0
  195.7351  183.6739  157.9005 C   0  0  1  0  0  0  0  0  0  0  0  0
  195.4757  182.2161  158.2740 C   0  0  0  0  0  0  0  0  0  0  0  0
  195.8544  181.7847  159.3344 O   0  0  0  0  0  0  0  0  0  0  0  0
  194.8594  181.4451  157.3839 N   0  0  0  0  0  0  0  0  0  0  0  0
  196.4261  186.4552  160.2451 H   0  0  0  0  0  0  0  0  0  0  0  0
  196.5790  188.8808  159.7611 H   0  0  0  0  0  0  0  0  0  0  0  0
  197.2250  189.6505  157.4860 H   0  0  0  0  0  0  0  0  0  0  0  0
  197.7554  187.9908  155.7107 H   0  0  0  0  0  0  0  0  0  0  0  0
  196.7709  184.2986  159.6818 H   0  0  0  0  0  0  0  0  0  0  0  0
  198.1265  182.7572  157.9299 H   0  0  0  0  0  0  0  0  0  0  0  0
  199.6604  181.8488  157.3450 H   0  0  0  0  0  0  0  0  0  0  0  0
  202.0936  182.2927  156.0039 H   0  0  0  0  0  0  0  0  0  0  0  0
  202.4838  181.6037  157.5781 H   0  0  0  0  0  0  0  0  0  0  0  0
  200.1833  179.7086  158.0078 H   0  0  0  0  0  0  0  0  0  0  0  0
  199.6665  177.4705  157.1858 H   0  0  0  0  0  0  0  0  0  0  0  0
  202.0819  178.2209  153.6709 H   0  0  0  0  0  0  0  0  0  0  0  0
  202.5680  180.5007  154.5006 H   0  0  0  0  0  0  0  0  0  0  0  0
  199.6247  175.9279  155.3369 H   0  0  0  0  0  0  0  0  0  0  0  0
  200.3900  176.3044  153.7964 H   0  0  0  0  0  0  0  0  0  0  0  0
  201.1570  175.0178  157.2212 H   0  0  0  0  0  0  0  0  0  0  0  0
  202.3616  176.2465  156.9713 H   0  0  0  0  0  0  0  0  0  0  0  0
  202.8316  174.5665  156.7966 H   0  0  0  0  0  0  0  0  0  0  0  0
  200.4983  173.5305  155.1017 H   0  0  0  0  0  0  0  0  0  0  0  0
  202.2236  173.2974  154.8137 H   0  0  0  0  0  0  0  0  0  0  0  0
  201.2108  174.0081  153.5603 H   0  0  0  0  0  0  0  0  0  0  0  0
  204.0546  185.6339  158.2970 H   0  0  0  0  0  0  0  0  0  0  0  0
  204.1966  187.9110  159.3105 H   0  0  0  0  0  0  0  0  0  0  0  0
  202.1271  189.0266  160.1629 H   0  0  0  0  0  0  0  0  0  0  0  0
  199.9585  187.8498  160.0239 H   0  0  0  0  0  0  0  0  0  0  0  0
  194.8167  184.2118  158.1358 H   0  0  0  0  0  0  0  0  0  0  0  0
  195.8905  183.7051  156.8216 H   0  0  0  0  0  0  0  0  0  0  0  0
  194.4483  181.8739  156.5441 H   0  0  0  0  0  0  0  0  0  0  0  0
  194.9224  180.4197  157.5074 H   0  0  0  0  0  0  0  0  0  0  0  0
  202.4695  175.6742  154.6967 H   0  0  0  0  0  0  0  0  0  0  0  0
  1  2  1  0
  2  3  1  0
  2  7  2  0
  3  4  2  0
  3  8  1  0
  4  5  1  0
  4 36  1  0
  5  6  2  0
  5 37  1  0
  6  7  1  0
  6 38  1  0
  7 39  1  0
  8  9  1  0
  8 32  1  0
  8 40  1  1
  9 10  1  0
  9 41  1  0
 10 11  2  0
 10 15  1  0
 11 12  1  0
 12 13  1  0
 12 31  2  0
 13 14  1  0
 13 28  2  0
 14 15  2  0
 15 16  1  0
 16 17  1  0
 16 42  1  0
 17 18  1  0
 17 43  1  6
 17 44  1  0
 18 19  1  0
 18 23  2  0
 19 20  2  0
 19 45  1  0
 20 21  1  0
 20 46  1  0
 21 22  2  0
 21 24  1  0
 22 23  1  0
 22 47  1  0
 23 48  1  0
 24 25  1  0
 24 49  1  1
 24 50  1  0
 25 26  1  0
 25 27  1  0
 25 65  1  6
 26 51  1  1
 26 52  1  0
 26 53  1  0
 27 54  1  1
 27 55  1  0
 27 56  1  0
 28 29  1  0
 28 57  1  0
 29 30  2  0
 29 58  1  0
 30 31  1  0
 30 59  1  0
 31 60  1  0
 32 33  1  0
 32 61  1  6
 32 62  1  0
 33 34  2  0
 33 35  1  0
 35 63  1  0
 35 64  1  0
M  CHG  1  25   1
M  END
>  <s_epik_cmdline>  (1202) 
J2VwaWtfcHl0aG9uJywgJy1waCcsICc3LjAwMDAwMCcsICctcGh0JywgJzIuMDAwMDAwJywgJy1tcycsICcxNicsICctdG4nLCAnOCcsICctbWEnLCAnMjAwJywgJy1pbWFlJywgJzxpbmZpbGUubWFlPicsICctb21hZScsICc8b3V0ZmlsZS5tYWU+Jw==

>  <s_epik_input>  (1202) 
W2NIXTFbY0hdW2NIXVtjSF1jKGMxQ2wpW0NAQEhdKFtDSDJdQyg9TylbTkgyXSlbTkhdYyhuMiljKG5jKGMyMylbY0hdW2NIXVtjSF1bY0hdMylbTkhdW0NIMl1jNFtjSF1bY0hdYyhbY0hdW2NIXTQpW0NIMl1OKFtDSDNdKVtDSDNd

>  <s_i_glide_gridfile>  (1202) 
ATP-Grid

>  <s_lp_Force_Field>  (1202) 
OPLS_2005

>  <s_lp_Variant>  (1202) 
m_282030aaa____21929760____23157418____21970126-1

>  <s_lp_label>  (1202) 
1796_sdstereoexpander_1_neutralizer_1_epik_1_stereoizer_1

>  <s_m_source_file>  (1202) 
ATP-VSW-LIGPREP-001-in.maegz

>  <s_sd_BIOSOLVEIT.INFINISEE\_QUERY\_NAME>  (1202) 
Ref-Lig

>  <s_sd_BIOSOLVEIT.INFINISEE\_QUERY\_SMILES>  (1202) 
S(c1nc2c(cc1C[NH2+]Cc3ccc(cc3)C[NH+](C)C)cccc2)Cc4ccccc4

>  <s_sd_BIOSOLVEIT.INFINISEE\_REACTION\_NAME>  (1202) 
m_282030aaa

>  <s_sd_BIOSOLVEIT.INFINISEE\_REAGENT1\_SMILES>  (1202) 
[R1*]NCc1ccc(cc1)CN(C)C

>  <s_sd_BIOSOLVEIT.INFINISEE\_REAGENT2\_SMILES>  (1202) 
[R1*]c1nc2c(nc1[R2*])cccc2

>  <s_sd_BIOSOLVEIT.INFINISEE\_REAGENT3\_SMILES>  (1202) 
[R2*]NC(c1c(Cl)cccc1)CC(=O)N

>  <s_sd_BIOSOLVEIT.INFINISEE\_SPACE>  (1202) 
REALSpace_44bn_2023-08

>  <s_vsw_compound_code>  (1202) 
57441

>  <s_vsw_variant>  (1202) 
57441-1

>  <r_epik_Charging_Adjusted_Penalty>  (1202) 
0.078407994868761793

>  <r_epik_Ionization_Penalty>  (1202) 
0.039399999999999998

>  <r_epik_Ionization_Penalty_Charging>  (1202) 
0.039199999999999999

>  <r_epik_Ionization_Penalty_Neutral>  (1202) 
0.00020000000000000001

>  <r_epik_State_Penalty>  (1202) 
0.039199999999999999

>  <r_i_docking_score>  (1202) 
-4.6415292460872202

>  <r_i_glide_ecoul>  (1202) 
-13.5048484802246

>  <r_i_glide_eff_state_penalty>  (1202) 
0.039199999999999999

>  <r_i_glide_einternal>  (1202) 
1.6850177049636801

>  <r_i_glide_emodel>  (1202) 
-54.867715661316304

>  <r_i_glide_energy>  (1202) 
-39.134849548339801

>  <r_i_glide_erotb>  (1202) 
0.67791697000520101

>  <r_i_glide_esite>  (1202) 
-0.18692573999623999

>  <r_i_glide_evdw>  (1202) 
-25.630001068115199

>  <r_i_glide_gscore>  (1202) 
-4.6807292460872203

>  <r_i_glide_hbond>  (1202) 
-0.29666590384168201

>  <r_i_glide_ligand_efficiency>  (1202) 
-0.132615121316778

>  <r_i_glide_ligand_efficiency_ln>  (1202) 
-1.01891868270756

>  <r_i_glide_ligand_efficiency_sa>  (1202) 
-0.43379285504678899

>  <r_i_glide_lipo>  (1202) 
-1.4997777013605

>  <r_i_glide_metal>  (1202) 
-0

>  <r_i_glide_rewards>  (1202) 
-0.068049545454544905

>  <r_lp_Energy>  (1202) 
23.535367000000001

>  <r_qp_ACxDN^.5/SA>  (1202) 
0.0131346

>  <r_qp_CIQPlogS>  (1202) 
-6.0199999999999996

>  <r_qp_EA(eV)>  (1202) 
0.56799999999999995

>  <r_qp_FISA>  (1202) 
118.49299999999999

>  <r_qp_FOSA>  (1202) 
246.65700000000001

>  <r_qp_IP(eV)>  (1202) 
7.8410000000000002

>  <r_qp_Jm>  (1202) 
0.0011654675269522901

>  <r_qp_PISA>  (1202) 
445.01999999999998

>  <r_qp_PSA>  (1202) 
97.700999999999993

>  <r_qp_PercentHumanOralAbsorption>  (1202) 
90.156000000000006

>  <r_qp_QPPCaco>  (1202) 
98.984999999999999

>  <r_qp_QPPMDCK>  (1202) 
160.54300000000001

>  <r_qp_QPlogBB>  (1202) 
-0.90100000000000002

>  <r_qp_QPlogHERG>  (1202) 
-6.9249999999999998

>  <r_qp_QPlogKhsa>  (1202) 
0.66700000000000004

>  <r_qp_QPlogKp>  (1202) 
-3.238

>  <r_qp_QPlogPC16>  (1202) 
17.960000000000001

>  <r_qp_QPlogPo/w>  (1202) 
4.6959999999999997

>  <r_qp_QPlogPoct>  (1202) 
26.484000000000002

>  <r_qp_QPlogPw>  (1202) 
16.765000000000001

>  <r_qp_QPlogS>  (1202) 
-5.3849999999999998

>  <r_qp_QPpolrz>  (1202) 
53.969999999999999

>  <r_qp_SASA>  (1202) 
857.14700000000005

>  <r_qp_SAamideO>  (1202) 
34.366999999999997

>  <r_qp_SAfluorine>  (1202) 
0

>  <r_qp_WPSA>  (1202) 
46.978000000000002

>  <r_qp_accptHB>  (1202) 
6.5

>  <r_qp_dip^2/V>  (1202) 
0.030438300000000001

>  <r_qp_dipole>  (1202) 
6.883

>  <r_qp_donorHB>  (1202) 
3

>  <r_qp_glob>  (1202) 
0.75781390000000004

>  <r_qp_mol_MW>  (1202) 
489.01900000000001

>  <r_qp_volume>  (1202) 
1556.6089999999999

>  <r_sd_BIOSOLVEIT.INFINISEE\_FTREES\_SIMILARITY>  (1202) 
0.90400000000000003

>  <r_sd_BIOSOLVEIT.LOGP>  (1202) 
3.5684

>  <r_sd_BIOSOLVEIT.MOLECULAR\_WEIGHT>  (1202) 
490.02800000000002

>  <r_sd_BIOSOLVEIT.TPSA>  (1202) 
97.370000000000005

>  <i_epik_Tot_Q>  (1202) 
1

>  <i_epik_Tot_abs_Q>  (1202) 
1

>  <i_f3d_flags>  (1202) 
0

>  <i_i_glide_confnum>  (1202) 
11

>  <i_i_glide_lignum>  (1202) 
512

>  <i_i_glide_posenum>  (1202) 
15

>  <i_i_glide_rotatable_bonds>  (1202) 
10

>  <i_lp_mmshare_version>  (1202) 
65135

>  <i_m_ct_format>  (1202) 
2

>  <i_m_source_file_index>  (1202) 
1796

>  <i_qp_#NandO>  (1202) 
7

>  <i_qp_#acid>  (1202) 
0

>  <i_qp_#amide>  (1202) 
1

>  <i_qp_#amidine>  (1202) 
0

>  <i_qp_#amine>  (1202) 
1

>  <i_qp_#in34>  (1202) 
0

>  <i_qp_#in56>  (1202) 
22

>  <i_qp_#metab>  (1202) 
8

>  <i_qp_#nonHatm>  (1202) 
35

>  <i_qp_#noncon>  (1202) 
0

>  <i_qp_#ringatoms>  (1202) 
22

>  <i_qp_#rotor>  (1202) 
10

>  <i_qp_#rtvFG>  (1202) 
0

>  <i_qp_#stars>  (1202) 
1

>  <i_qp_CNS>  (1202) 
-1

>  <i_qp_HumanOralAbsorption>  (1202) 
3

>  <i_qp_RuleOfFive>  (1202) 
0

>  <i_qp_RuleOfThree>  (1202) 
1

>  <i_sd_BIOSOLVEIT.INFINISEE\_REAGENT1\_NAME>  (1202) 
21929760

>  <i_sd_BIOSOLVEIT.INFINISEE\_REAGENT2\_NAME>  (1202) 
23157418

>  <i_sd_BIOSOLVEIT.INFINISEE\_REAGENT3\_NAME>  (1202) 
21970126

>  <i_sd_BIOSOLVEIT.INFINISEE\_RESULT\_RANK>  (1202) 
77635

>  <i_sd_version>  (1202) 
0

>  <b_lp_Chiralities_Consistent>  (1202) 
1

>  <b_sd_chiral_flag>  (1202) 
0

>  <canonical_id>  (1202) 
ATP-HTVS-BE2C9D7D83B9

>  <compound_code>  (1202) 
57441

>  <title>  (1202) 
m_282030aaa____21929760____23157418____21970126

>  <variant>  (1202) 
57441-1

>  <source_file>  (1202) 
运行/运行/ATP-VSW/ATP-VSW-DOCK_HTVS_1-001_lib/ATP-VSW-DOCK_HTVS_1-001_lib

>  <canonical_smiles>  (1202) 
C[NH+](C)Cc1ccc(CNc2nc3ccccc3nc2N[C@H](CC(N)=O)c2ccccc2Cl)cc1

>  <scaffold>  (1202) 
c1ccc(CNc2nc3ccccc3nc2NCc2ccccc2)cc1

>  <molecular_formula>  (1202) 
C27H30ClN6O+

$$$$
ATP-HTVS-BE963CFE3042
     RDKit          3D

 62 65  0  0  0  0  0  0  0  0999 V2000
  196.8098  185.7171  157.2485 N   0  0  0  0  0  0  0  0  0  0  0  0
  197.9152  185.4098  156.5599 C   0  0  0  0  0  0  0  0  0  0  0  0
  198.8611  186.2545  156.2365 N   0  0  0  0  0  0  0  0  0  0  0  0
  198.7129  187.5320  156.6686 C   0  0  0  0  0  0  0  0  0  0  0  0
  197.6589  187.8935  157.5694 C   0  0  0  0  0  0  0  0  0  0  0  0
  196.7467  186.8923  157.8898 C   0  0  0  0  0  0  0  0  0  0  0  0
  195.7512  187.0610  158.8898 N   0  0  0  0  0  0  0  0  0  0  0  0
  195.2703  185.9830  159.7752 C   0  0  1  0  0  0  0  0  0  0  0  0
  195.6960  184.5424  159.4793 C   0  0  0  0  0  0  0  0  0  0  0  0
  194.7733  183.5652  159.0214 C   0  0  0  0  0  0  0  0  0  0  0  0
  193.4112  183.8214  158.9225 N   0  0  0  0  0  0  0  0  0  0  0  0
  195.2334  182.2816  158.6854 C   0  0  0  0  0  0  0  0  0  0  0  0
  196.6010  181.9569  158.8108 C   0  0  0  0  0  0  0  0  0  0  0  0
  197.5392  182.9616  159.1366 C   0  0  0  0  0  0  0  0  0  0  0  0
  197.0754  184.2139  159.5440 C   0  0  0  0  0  0  0  0  0  0  0  0
  195.6562  186.2909  161.2203 C   0  0  2  0  0  0  0  0  0  0  0  0
  197.5518  189.2130  158.0624 C   0  0  0  0  0  0  0  0  0  0  0  0
  198.4545  190.1859  157.6211 C   0  0  0  0  0  0  0  0  0  0  0  0
  199.4771  189.8447  156.7147 C   0  0  0  0  0  0  0  0  0  0  0  0
  199.5953  188.5200  156.2497 C   0  0  0  0  0  0  0  0  0  0  0  0
  198.0719  184.0945  156.1639 N   0  0  0  0  0  0  0  0  0  0  0  0
  196.9199  183.2444  155.9525 C   0  0  1  0  0  0  0  0  0  0  0  0
  197.0921  182.0986  155.0153 C   0  0  0  0  0  0  0  0  0  0  0  0
  197.4663  180.7854  155.4053 C   0  0  0  0  0  0  0  0  0  0  0  0
  197.5721  179.7770  154.4292 C   0  0  0  0  0  0  0  0  0  0  0  0
  197.3048  180.0727  153.0776 C   0  0  0  0  0  0  0  0  0  0  0  0
  197.4085  179.0409  152.1339 N   0  0  0  0  0  0  0  0  0  0  0  0
  197.1165  179.2339  150.7151 C   0  0  2  0  0  0  0  0  0  0  0  0
  198.1551  180.1497  150.0532 C   0  0  2  0  0  0  0  0  0  0  0  0
  195.6638  179.6925  150.4751 C   0  0  2  0  0  0  0  0  0  0  0  0
  196.9448  181.4030  152.7448 C   0  0  0  0  0  0  0  0  0  0  0  0
  196.8111  182.3906  153.6978 C   0  0  0  0  0  0  0  0  0  0  0  0
  195.6814  187.9893  159.2811 H   0  0  0  0  0  0  0  0  0  0  0  0
  194.1834  186.0473  159.7345 H   0  0  0  0  0  0  0  0  0  0  0  0
  192.7827  183.1638  158.5128 H   0  0  0  0  0  0  0  0  0  0  0  0
  193.0484  184.7793  159.0432 H   0  0  0  0  0  0  0  0  0  0  0  0
  194.5564  181.5589  158.2413 H   0  0  0  0  0  0  0  0  0  0  0  0
  196.9537  181.0479  158.3539 H   0  0  0  0  0  0  0  0  0  0  0  0
  198.5917  182.8210  158.9156 H   0  0  0  0  0  0  0  0  0  0  0  0
  197.7987  185.0083  159.6643 H   0  0  0  0  0  0  0  0  0  0  0  0
  195.2451  185.5262  161.8773 H   0  0  0  0  0  0  0  0  0  0  0  0
  195.2873  187.2550  161.5580 H   0  0  0  0  0  0  0  0  0  0  0  0
  196.7406  186.2843  161.3346 H   0  0  0  0  0  0  0  0  0  0  0  0
  196.7549  189.4926  158.7412 H   0  0  0  0  0  0  0  0  0  0  0  0
  198.3623  191.2024  157.9746 H   0  0  0  0  0  0  0  0  0  0  0  0
  200.1746  190.5881  156.3841 H   0  0  0  0  0  0  0  0  0  0  0  0
  200.3835  188.2538  155.5620 H   0  0  0  0  0  0  0  0  0  0  0  0
  198.8562  183.8869  155.5733 H   0  0  0  0  0  0  0  0  0  0  0  0
  196.7568  182.6926  156.8034 H   0  0  0  0  0  0  0  0  0  0  0  0
  195.9751  183.7711  155.8710 H   0  0  0  0  0  0  0  0  0  0  0  0
  197.6722  180.5203  156.4314 H   0  0  0  0  0  0  0  0  0  0  0  0
  197.8655  178.7755  154.7150 H   0  0  0  0  0  0  0  0  0  0  0  0
  197.7237  178.1352  152.4401 H   0  0  0  0  0  0  0  0  0  0  0  0
  197.2176  178.2549  150.2374 H   0  0  0  0  0  0  0  0  0  0  0  0
  197.9561  180.2648  148.9906 H   0  0  0  0  0  0  0  0  0  0  0  0
  199.1641  179.7619  150.1836 H   0  0  0  0  0  0  0  0  0  0  0  0
  198.1621  181.1478  150.4726 H   0  0  0  0  0  0  0  0  0  0  0  0
  195.4544  179.8132  149.4171 H   0  0  0  0  0  0  0  0  0  0  0  0
  195.4206  180.6532  150.8975 H   0  0  0  0  0  0  0  0  0  0  0  0
  194.9424  179.0208  150.9298 H   0  0  0  0  0  0  0  0  0  0  0  0
  196.7611  181.7663  151.7617 H   0  0  0  0  0  0  0  0  0  0  0  0
  196.4973  183.3894  153.4278 H   0  0  0  0  0  0  0  0  0  0  0  0
  1  2  2  0
  1  6  1  0
  2  3  1  0
  2 21  1  0
  3  4  2  0
  4  5  1  0
  4 20  1  0
  5  6  2  0
  5 17  1  0
  6  7  1  0
  7  8  1  0
  7 33  1  0
  8  9  1  0
  8 16  1  0
  8 34  1  1
  9 10  1  0
  9 15  2  0
 10 11  1  0
 10 12  2  0
 11 35  1  0
 11 36  1  0
 12 13  1  0
 12 37  1  0
 13 14  2  0
 13 38  1  0
 14 15  1  0
 14 39  1  0
 15 40  1  0
 16 41  1  1
 16 42  1  0
 16 43  1  0
 17 18  2  0
 17 44  1  0
 18 19  1  0
 18 45  1  0
 19 20  2  0
 19 46  1  0
 20 47  1  0
 21 22  1  0
 21 48  1  0
 22 23  1  0
 22 49  1  1
 22 50  1  0
 23 24  1  0
 23 32  2  0
 24 25  2  0
 24 51  1  0
 25 26  1  0
 25 52  1  0
 26 27  1  0
 26 31  2  0
 27 28  1  0
 27 53  1  0
 28 29  1  0
 28 30  1  0
 28 54  1  6
 29 55  1  6
 29 56  1  0
 29 57  1  0
 30 58  1  6
 30 59  1  0
 30 60  1  0
 31 32  1  0
 31 61  1  0
 32 62  1  0
M  END
>  <s_epik_cmdline>  (1203) 
J2VwaWtfcHl0aG9uJywgJy1waCcsICc3LjAwMDAwMCcsICctcGh0JywgJzIuMDAwMDAwJywgJy1tcycsICcxNicsICctdG4nLCAnOCcsICctbWEnLCAnMjAwJywgJy1pbWFlJywgJzxpbmZpbGUubWFlPicsICctb21hZScsICc8b3V0ZmlsZS5tYWU+Jw==

>  <s_epik_input>  (1203) 
W2NIXTFbY0hdW2NIXVtjSF1jKFtOSDJdKWMxW0NAQEhdKFtDSDNdKVtOSF1jKGMoYzIzKVtjSF1bY0hdW2NIXVtjSF0zKW5jKG4yKVtOSF1bQ0gyXWM0W2NIXVtjSF1jKFtjSF1bY0hdNClbTkhdW0NIXShbQ0gzXSlbQ0gzXQ==

>  <s_i_glide_gridfile>  (1203) 
ATP-Grid

>  <s_lp_Force_Field>  (1203) 
OPLS_2005

>  <s_lp_Variant>  (1203) 
m_282030aaa____21899824____22360182____21952560-5

>  <s_lp_label>  (1203) 
1189_sdstereoexpander_1_neutralizer_1_epik_3_stereoizer_1

>  <s_m_source_file>  (1203) 
ATP-VSW-LIGPREP-001-in.maegz

>  <s_sd_BIOSOLVEIT.INFINISEE\_QUERY\_NAME>  (1203) 
Ref-Lig

>  <s_sd_BIOSOLVEIT.INFINISEE\_QUERY\_SMILES>  (1203) 
S(c1nc2c(cc1C[NH2+]Cc3ccc(cc3)C[NH+](C)C)cccc2)Cc4ccccc4

>  <s_sd_BIOSOLVEIT.INFINISEE\_REACTION\_NAME>  (1203) 
m_282030aaa

>  <s_sd_BIOSOLVEIT.INFINISEE\_REAGENT1\_SMILES>  (1203) 
[R1*]NCc1ccc(NC(C)C)cc1

>  <s_sd_BIOSOLVEIT.INFINISEE\_REAGENT2\_SMILES>  (1203) 
[R2*]c1nc([R1*])c2c(n1)cccc2

>  <s_sd_BIOSOLVEIT.INFINISEE\_REAGENT3\_SMILES>  (1203) 
[R2*]NC(c1c(N)cccc1)C

>  <s_sd_BIOSOLVEIT.INFINISEE\_SPACE>  (1203) 
REALSpace_44bn_2023-08

>  <s_vsw_compound_code>  (1203) 
38017

>  <s_vsw_variant>  (1203) 
38017-5

>  <r_epik_Charging_Adjusted_Penalty>  (1203) 
2.0998165687234902

>  <r_epik_Ionization_Penalty>  (1203) 
2.3083999999999998

>  <r_epik_Ionization_Penalty_Charging>  (1203) 
0

>  <r_epik_Ionization_Penalty_Neutral>  (1203) 
2.3083999999999998

>  <r_epik_State_Penalty>  (1203) 
2.0998000000000001

>  <r_i_docking_score>  (1203) 
-1.7497014366516599

>  <r_i_glide_ecoul>  (1203) 
-2.6792397499084499

>  <r_i_glide_eff_state_penalty>  (1203) 
2.0998000000000001

>  <r_i_glide_einternal>  (1203) 
2.8902540206909202

>  <r_i_glide_emodel>  (1203) 
-47.105484918238503

>  <r_i_glide_energy>  (1203) 
-38.602095127105699

>  <r_i_glide_erotb>  (1203) 
0.76355864327071998

>  <r_i_glide_esite>  (1203) 
-0.020551725738210201

>  <r_i_glide_evdw>  (1203) 
-35.922855377197301

>  <r_i_glide_gscore>  (1203) 
-3.8495014366516598

>  <r_i_glide_hbond>  (1203) 
0

>  <r_i_glide_ligand_efficiency>  (1203) 
-0.054678169895364302

>  <r_i_glide_ligand_efficiency_ln>  (1203) 
-0.39180584672611501

>  <r_i_glide_ligand_efficiency_sa>  (1203) 
-0.17359236862265301

>  <r_i_glide_lipo>  (1203) 
-1.85846931996974

>  <r_i_glide_metal>  (1203) 
-0

>  <r_i_glide_rewards>  (1203) 
-0.53601030286829598

>  <r_lp_Energy>  (1203) 
13.988111999999999

>  <r_qp_ACxDN^.5/SA>  (1203) 
0.015579600000000001

>  <r_qp_CIQPlogS>  (1203) 
-6.8140000000000001

>  <r_qp_EA(eV)>  (1203) 
0.63600000000000001

>  <r_qp_FISA>  (1203) 
82.471000000000004

>  <r_qp_FOSA>  (1203) 
276.56700000000001

>  <r_qp_IP(eV)>  (1203) 
7.8860000000000001

>  <r_qp_Jm>  (1203) 
0.63503239663540201

>  <r_qp_PISA>  (1203) 
321.76299999999998

>  <r_qp_PSA>  (1203) 
77.289000000000001

>  <r_qp_PercentHumanOralAbsorption>  (1203) 
100

>  <r_qp_QPPCaco>  (1203) 
1636.165

>  <r_qp_QPPMDCK>  (1203) 
842.30999999999995

>  <r_qp_QPlogBB>  (1203) 
-0.71099999999999997

>  <r_qp_QPlogHERG>  (1203) 
-5.2220000000000004

>  <r_qp_QPlogKhsa>  (1203) 
0.65500000000000003

>  <r_qp_QPlogKp>  (1203) 
-1.042

>  <r_qp_QPlogPC16>  (1203) 
14.555

>  <r_qp_QPlogPo/w>  (1203) 
4.8010000000000002

>  <r_qp_QPlogPoct>  (1203) 
24.285

>  <r_qp_QPlogPw>  (1203) 
13.638

>  <r_qp_QPlogS>  (1203) 
-4.7850000000000001

>  <r_qp_QPpolrz>  (1203) 
45.082999999999998

>  <r_qp_SASA>  (1203) 
680.80100000000004

>  <r_qp_SAamideO>  (1203) 
0

>  <r_qp_SAfluorine>  (1203) 
0

>  <r_qp_WPSA>  (1203) 
0

>  <r_qp_accptHB>  (1203) 
5

>  <r_qp_dip^2/V>  (1203) 
0.0081613999999999992

>  <r_qp_dipole>  (1203) 
3.3170000000000002

>  <r_qp_donorHB>  (1203) 
4.5

>  <r_qp_glob>  (1203) 
0.86680120000000005

>  <r_qp_mol_MW>  (1203) 
426.56299999999999

>  <r_qp_volume>  (1203) 
1347.912

>  <r_sd_BIOSOLVEIT.INFINISEE\_FTREES\_SIMILARITY>  (1203) 
0.91200000000000003

>  <r_sd_BIOSOLVEIT.LOGP>  (1203) 
5.8174999999999999

>  <r_sd_BIOSOLVEIT.MOLECULAR\_WEIGHT>  (1203) 
426.565

>  <r_sd_BIOSOLVEIT.TPSA>  (1203) 
87.890000000000001

>  <i_epik_Tot_Q>  (1203) 
0

>  <i_epik_Tot_abs_Q>  (1203) 
0

>  <i_f3d_flags>  (1203) 
0

>  <i_i_glide_confnum>  (1203) 
9

>  <i_i_glide_lignum>  (1203) 
302

>  <i_i_glide_posenum>  (1203) 
7

>  <i_i_glide_rotatable_bonds>  (1203) 
8

>  <i_lp_mmshare_version>  (1203) 
65135

>  <i_m_ct_format>  (1203) 
2

>  <i_m_source_file_index>  (1203) 
1189

>  <i_qp_#NandO>  (1203) 
6

>  <i_qp_#acid>  (1203) 
0

>  <i_qp_#amide>  (1203) 
0

>  <i_qp_#amidine>  (1203) 
0

>  <i_qp_#amine>  (1203) 
0

>  <i_qp_#in34>  (1203) 
0

>  <i_qp_#in56>  (1203) 
22

>  <i_qp_#metab>  (1203) 
8

>  <i_qp_#nonHatm>  (1203) 
32

>  <i_qp_#noncon>  (1203) 
0

>  <i_qp_#ringatoms>  (1203) 
22

>  <i_qp_#rotor>  (1203) 
9

>  <i_qp_#rtvFG>  (1203) 
0

>  <i_qp_#stars>  (1203) 
1

>  <i_qp_CNS>  (1203) 
-1

>  <i_qp_HumanOralAbsorption>  (1203) 
3

>  <i_qp_RuleOfFive>  (1203) 
0

>  <i_qp_RuleOfThree>  (1203) 
1

>  <i_sd_BIOSOLVEIT.INFINISEE\_REAGENT1\_NAME>  (1203) 
21899824

>  <i_sd_BIOSOLVEIT.INFINISEE\_REAGENT2\_NAME>  (1203) 
22360182

>  <i_sd_BIOSOLVEIT.INFINISEE\_REAGENT3\_NAME>  (1203) 
21952560

>  <i_sd_BIOSOLVEIT.INFINISEE\_RESULT\_RANK>  (1203) 
39478

>  <i_sd_version>  (1203) 
0

>  <b_lp_Chiralities_Consistent>  (1203) 
1

>  <b_sd_chiral_flag>  (1203) 
0

>  <canonical_id>  (1203) 
ATP-HTVS-BE963CFE3042

>  <compound_code>  (1203) 
38017

>  <title>  (1203) 
m_282030aaa____21899824____22360182____21952560

>  <variant>  (1203) 
38017-5

>  <source_file>  (1203) 
运行/运行/ATP-VSW/ATP-VSW-DOCK_HTVS_1-001_lib/ATP-VSW-DOCK_HTVS_1-001_lib

>  <canonical_smiles>  (1203) 
CC(C)Nc1ccc(CNc2nc(N[C@H](C)c3ccccc3N)c3ccccc3n2)cc1

>  <scaffold>  (1203) 
c1ccc(CNc2nc(NCc3ccccc3)c3ccccc3n2)cc1

>  <molecular_formula>  (1203) 
C26H30N6

$$$$
ATP-HTVS-BEC4D7C74EFC
     RDKit          3D

 65 68  0  0  0  0  0  0  0  0999 V2000
  200.6624  179.2408  155.4039 O   0  0  0  0  0  0  0  0  0  0  0  0
  200.2104  178.5650  154.4709 C   0  0  0  0  0  0  0  0  0  0  0  0
  199.4472  179.0638  153.4721 N   0  0  0  0  0  0  0  0  0  0  0  0
  199.0044  180.4014  153.2503 C   0  0  0  0  0  0  0  0  0  0  0  0
  199.1761  181.3796  154.1751 N   0  0  0  0  0  0  0  0  0  0  0  0
  198.6726  182.6160  153.9804 C   0  0  0  0  0  0  0  0  0  0  0  0
  197.9479  182.9401  152.8092 C   0  0  0  0  0  0  0  0  0  0  0  0
  197.7749  181.9454  151.8283 C   0  0  0  0  0  0  0  0  0  0  0  0
  198.3170  180.6495  152.0323 C   0  0  0  0  0  0  0  0  0  0  0  0
  198.1327  179.6250  151.0702 N   0  0  0  0  0  0  0  0  0  0  0  0
  199.2366  179.4572  150.1102 C   0  0  2  0  0  0  0  0  0  0  0  0
  199.4692  180.6891  149.3156 C   0  0  0  0  0  0  0  0  0  0  0  0
  199.6525  181.6450  148.6854 N   0  0  0  0  0  0  0  0  0  0  0  0
  199.1141  178.2201  149.2033 C   0  0  0  0  0  0  0  0  0  0  0  0
  198.6961  178.2973  147.8567 C   0  0  0  0  0  0  0  0  0  0  0  0
  198.5987  177.1051  147.0963 C   0  0  0  0  0  0  0  0  0  0  0  0
  198.9126  175.8367  147.6422 C   0  0  0  0  0  0  0  0  0  0  0  0
  199.3202  175.7642  148.9769 C   0  0  0  0  0  0  0  0  0  0  0  0
  199.4000  176.9395  149.7517 C   0  0  0  0  0  0  0  0  0  0  0  0
  196.7541  179.4744  150.5936 C   0  0  1  0  0  0  0  0  0  0  0  0
  195.7711  179.2269  151.7444 C   0  0  2  0  0  0  0  0  0  0  0  0
  197.4198  184.2354  152.6237 C   0  0  0  0  0  0  0  0  0  0  0  0
  197.6346  185.2268  153.5991 C   0  0  0  0  0  0  0  0  0  0  0  0
  198.3650  184.9222  154.7619 C   0  0  0  0  0  0  0  0  0  0  0  0
  198.8758  183.6227  154.9471 C   0  0  0  0  0  0  0  0  0  0  0  0
  200.5226  177.0909  154.4078 C   0  0  0  0  0  0  0  0  0  0  0  0
  200.5829  176.4754  153.1322 C   0  0  0  0  0  0  0  0  0  0  0  0
  200.8324  175.0810  152.9969 C   0  0  0  0  0  0  0  0  0  0  0  0
  201.1421  174.3233  154.1456 C   0  0  0  0  0  0  0  0  0  0  0  0
  201.1481  174.9679  155.4082 C   0  0  0  0  0  0  0  0  0  0  0  0
  200.8462  176.3410  155.5464 C   0  0  0  0  0  0  0  0  0  0  0  0
  201.5206  172.8522  154.0395 C   0  0  1  0  0  0  0  0  0  0  0  0
  202.9884  172.6503  153.9124 N   0  0  2  0  0  0  0  0  0  0  0  0
  203.7683  173.1474  155.0632 C   0  0  2  0  0  0  0  0  0  0  0  0
  203.5325  173.1186  152.6150 C   0  0  2  0  0  0  0  0  0  0  0  0
  199.1316  178.4315  152.7441 H   0  0  0  0  0  0  0  0  0  0  0  0
  197.2077  182.1918  150.9432 H   0  0  0  0  0  0  0  0  0  0  0  0
  200.1463  179.3412  150.7095 H   0  0  0  0  0  0  0  0  0  0  0  0
  198.4427  179.2601  147.4064 H   0  0  0  0  0  0  0  0  0  0  0  0
  198.2732  177.1615  146.0749 H   0  0  0  0  0  0  0  0  0  0  0  0
  198.8315  174.9115  147.0691 H   0  0  0  0  0  0  0  0  0  0  0  0
  199.5664  174.8295  149.4605 H   0  0  0  0  0  0  0  0  0  0  0  0
  199.6607  176.8026  150.7787 H   0  0  0  0  0  0  0  0  0  0  0  0
  196.4476  180.3459  150.0128 H   0  0  0  0  0  0  0  0  0  0  0  0
  196.6840  178.6331  149.9056 H   0  0  0  0  0  0  0  0  0  0  0  0
  194.7676  179.0813  151.3454 H   0  0  0  0  0  0  0  0  0  0  0  0
  195.7364  180.0497  152.4596 H   0  0  0  0  0  0  0  0  0  0  0  0
  196.0508  178.3356  152.3049 H   0  0  0  0  0  0  0  0  0  0  0  0
  196.8578  184.4791  151.7341 H   0  0  0  0  0  0  0  0  0  0  0  0
  197.2402  186.2231  153.4587 H   0  0  0  0  0  0  0  0  0  0  0  0
  198.5295  185.6827  155.5118 H   0  0  0  0  0  0  0  0  0  0  0  0
  199.4362  183.3888  155.8403 H   0  0  0  0  0  0  0  0  0  0  0  0
  200.4864  177.1692  152.3144 H   0  0  0  0  0  0  0  0  0  0  0  0
  200.8409  174.6208  152.0122 H   0  0  0  0  0  0  0  0  0  0  0  0
  201.4244  174.4265  156.2949 H   0  0  0  0  0  0  0  0  0  0  0  0
  200.8879  176.8457  156.5132 H   0  0  0  0  0  0  0  0  0  0  0  0
  201.1517  172.3298  154.9250 H   0  0  0  0  0  0  0  0  0  0  0  0
  201.0085  172.4081  153.1868 H   0  0  0  0  0  0  0  0  0  0  0  0
  203.6914  174.2273  155.1742 H   0  0  0  0  0  0  0  0  0  0  0  0
  204.8285  172.9342  154.9330 H   0  0  0  0  0  0  0  0  0  0  0  0
  203.4281  172.6745  155.9862 H   0  0  0  0  0  0  0  0  0  0  0  0
  203.4578  174.2041  152.5228 H   0  0  0  0  0  0  0  0  0  0  0  0
  202.9968  172.6671  151.7777 H   0  0  0  0  0  0  0  0  0  0  0  0
  204.5889  172.8579  152.5213 H   0  0  0  0  0  0  0  0  0  0  0  0
  203.1066  171.6247  153.9531 H   0  0  0  0  0  0  0  0  0  0  0  0
  1  2  2  0
  2  3  1  0
  2 26  1  0
  3  4  1  0
  3 36  1  0
  4  5  2  0
  4  9  1  0
  5  6  1  0
  6  7  1  0
  6 25  2  0
  7  8  1  0
  7 22  2  0
  8  9  2  0
  8 37  1  0
  9 10  1  0
 10 11  1  0
 10 20  1  0
 11 12  1  0
 11 14  1  0
 11 38  1  1
 12 13  3  0
 14 15  2  0
 14 19  1  0
 15 16  1  0
 15 39  1  0
 16 17  2  0
 16 40  1  0
 17 18  1  0
 17 41  1  0
 18 19  2  0
 18 42  1  0
 19 43  1  0
 20 21  1  0
 20 44  1  6
 20 45  1  0
 21 46  1  6
 21 47  1  0
 21 48  1  0
 22 23  1  0
 22 49  1  0
 23 24  2  0
 23 50  1  0
 24 25  1  0
 24 51  1  0
 25 52  1  0
 26 27  1  0
 26 31  2  0
 27 28  2  0
 27 53  1  0
 28 29  1  0
 28 54  1  0
 29 30  2  0
 29 32  1  0
 30 31  1  0
 30 55  1  0
 31 56  1  0
 32 33  1  0
 32 57  1  1
 32 58  1  0
 33 34  1  0
 33 35  1  0
 33 65  1  6
 34 59  1  1
 34 60  1  0
 34 61  1  0
 35 62  1  1
 35 63  1  0
 35 64  1  0
M  CHG  1  33   1
M  END
>  <s_epik_cmdline>  (1204) 
J2VwaWtfcHl0aG9uJywgJy1waCcsICc3LjAwMDAwMCcsICctcGh0JywgJzIuMDAwMDAwJywgJy1tcycsICcxNicsICctdG4nLCAnOCcsICctbWEnLCAnMjAwJywgJy1pbWFlJywgJzxpbmZpbGUubWFlPicsICctb21hZScsICc8b3V0ZmlsZS5tYWU+Jw==

>  <s_epik_input>  (1204) 
W0NIM11OKFtDSDNdKVtDSDJdYyhbY0hdW2NIXTEpW2NIXVtjSF1jMUMoPU8pW05IXWMobjIpYyhbY0hdYyhjMjMpW2NIXVtjSF1bY0hdW2NIXTMpTihbQ0gyXVtDSDNdKVtDQEhdKEMjTiljNFtjSF1bY0hdW2NIXVtjSF1bY0hdNA==

>  <s_i_glide_gridfile>  (1204) 
ATP-Grid

>  <s_lp_Force_Field>  (1204) 
OPLS_2005

>  <s_lp_Variant>  (1204) 
rxn502b____EMOL18624763____EMOL44466703____EMOL49839592-2

>  <s_lp_label>  (1204) 
2209_sdstereoexpander_2_neutralizer_1_epik_1_stereoizer_1

>  <s_m_source_file>  (1204) 
ATP-VSW-LIGPREP-002-in.maegz

>  <s_sd_BIOSOLVEIT.INFINISEE\_QUERY\_NAME>  (1204) 
Ref-Lig

>  <s_sd_BIOSOLVEIT.INFINISEE\_QUERY\_SMILES>  (1204) 
S(c1nc2c(cc1C[NH2+]Cc3ccc(cc3)C[NH+](C)C)cccc2)Cc4ccccc4

>  <s_sd_BIOSOLVEIT.INFINISEE\_REACTION\_NAME>  (1204) 
rxn502b

>  <s_sd_BIOSOLVEIT.INFINISEE\_REAGENT1\_NAME>  (1204) 
EMOL18624763

>  <s_sd_BIOSOLVEIT.INFINISEE\_REAGENT1\_SMILES>  (1204) 
O=C(O)c1ccc(cc1)CN(C)C

>  <s_sd_BIOSOLVEIT.INFINISEE\_REAGENT2\_NAME>  (1204) 
EMOL44466703

>  <s_sd_BIOSOLVEIT.INFINISEE\_REAGENT2\_SMILES>  (1204) 
Brc1c(nc2c(c1)cccc2)N

>  <s_sd_BIOSOLVEIT.INFINISEE\_REAGENT3\_NAME>  (1204) 
EMOL49839592

>  <s_sd_BIOSOLVEIT.INFINISEE\_REAGENT3\_SMILES>  (1204) 
N#CC(NCC)c1ccccc1

>  <s_sd_BIOSOLVEIT.INFINISEE\_SPACE>  (1204) 
eXplore_7tr_2022-12

>  <s_vsw_compound_code>  (1204) 
70658

>  <s_vsw_variant>  (1204) 
70658-2

>  <r_epik_Charging_Adjusted_Penalty>  (1204) 
0.10433640840748

>  <r_epik_Ionization_Penalty>  (1204) 
0.052200000000000003

>  <r_epik_Ionization_Penalty_Charging>  (1204) 
0.052200000000000003

>  <r_epik_Ionization_Penalty_Neutral>  (1204) 
0

>  <r_epik_State_Penalty>  (1204) 
0.052200000000000003

>  <r_i_docking_score>  (1204) 
-4.4974214112546598

>  <r_i_glide_ecoul>  (1204) 
-9.6474418640136701

>  <r_i_glide_eff_state_penalty>  (1204) 
0.052200000000000003

>  <r_i_glide_einternal>  (1204) 
1.73333632946014

>  <r_i_glide_emodel>  (1204) 
-56.188889063690702

>  <r_i_glide_energy>  (1204) 
-39.236700057983398

>  <r_i_glide_erotb>  (1204) 
0.65384640417572604

>  <r_i_glide_esite>  (1204) 
-0.107239794585933

>  <r_i_glide_evdw>  (1204) 
-29.589258193969702

>  <r_i_glide_gscore>  (1204) 
-4.5496214112546598

>  <r_i_glide_hbond>  (1204) 
-0.16325603299573499

>  <r_i_glide_ligand_efficiency>  (1204) 
-0.128497754607276

>  <r_i_glide_ligand_efficiency_ln>  (1204) 
-0.987283814660737

>  <r_i_glide_ligand_efficiency_sa>  (1204) 
-0.42032467553260799

>  <r_i_glide_lipo>  (1204) 
-1.50515429800044

>  <r_i_glide_metal>  (1204) 
-0

>  <r_i_glide_rewards>  (1204) 
-0.501238500547739

>  <r_lp_Energy>  (1204) 
34.533096

>  <r_qp_ACxDN^.5/SA>  (1204) 
0.010047199999999999

>  <r_qp_CIQPlogS>  (1204) 
-6.6950000000000003

>  <r_qp_EA(eV)>  (1204) 
1.0069999999999999

>  <r_qp_FISA>  (1204) 
88.929000000000002

>  <r_qp_FOSA>  (1204) 
282.08600000000001

>  <r_qp_IP(eV)>  (1204) 
8.6370000000000005

>  <r_qp_Jm>  (1204) 
0.00059137254197918002

>  <r_qp_PISA>  (1204) 
425.23000000000002

>  <r_qp_PSA>  (1204) 
74.694999999999993

>  <r_qp_PercentHumanOralAbsorption>  (1204) 
100

>  <r_qp_QPPCaco>  (1204) 
354.39699999999999

>  <r_qp_QPPMDCK>  (1204) 
178.35400000000001

>  <r_qp_QPlogBB>  (1204) 
-0.51700000000000002

>  <r_qp_QPlogHERG>  (1204) 
-7.5940000000000003

>  <r_qp_QPlogKhsa>  (1204) 
0.69899999999999995

>  <r_qp_QPlogKp>  (1204) 
-2.859

>  <r_qp_QPlogPC16>  (1204) 
16.038

>  <r_qp_QPlogPo/w>  (1204) 
4.681

>  <r_qp_QPlogPoct>  (1204) 
24.026

>  <r_qp_QPlogPw>  (1204) 
12.492000000000001

>  <r_qp_QPlogS>  (1204) 
-6.0350000000000001

>  <r_qp_QPpolrz>  (1204) 
52.122999999999998

>  <r_qp_SASA>  (1204) 
796.245

>  <r_qp_SAamideO>  (1204) 
0

>  <r_qp_SAfluorine>  (1204) 
0

>  <r_qp_WPSA>  (1204) 
0

>  <r_qp_accptHB>  (1204) 
8

>  <r_qp_dip^2/V>  (1204) 
0.065984699999999993

>  <r_qp_dipole>  (1204) 
9.9459999999999997

>  <r_qp_donorHB>  (1204) 
1

>  <r_qp_glob>  (1204) 
0.79556640000000001

>  <r_qp_mol_MW>  (1204) 
463.58100000000002

>  <r_qp_volume>  (1204) 
1499.123

>  <r_sd_BIOSOLVEIT.INFINISEE\_FTREES\_SIMILARITY>  (1204) 
0.93100000000000005

>  <r_sd_BIOSOLVEIT.LOGP>  (1204) 
4.2227800000000002

>  <r_sd_BIOSOLVEIT.MOLECULAR\_WEIGHT>  (1204) 
464.58999999999997

>  <r_sd_BIOSOLVEIT.TPSA>  (1204) 
73.459999999999994

>  <i_epik_Tot_Q>  (1204) 
1

>  <i_epik_Tot_abs_Q>  (1204) 
1

>  <i_f3d_flags>  (1204) 
0

>  <i_i_glide_confnum>  (1204) 
10

>  <i_i_glide_lignum>  (1204) 
851

>  <i_i_glide_posenum>  (1204) 
2

>  <i_i_glide_rotatable_bonds>  (1204) 
9

>  <i_lp_mmshare_version>  (1204) 
65135

>  <i_m_ct_format>  (1204) 
2

>  <i_m_source_file_index>  (1204) 
2209

>  <i_qp_#NandO>  (1204) 
6

>  <i_qp_#acid>  (1204) 
0

>  <i_qp_#amide>  (1204) 
0

>  <i_qp_#amidine>  (1204) 
0

>  <i_qp_#amine>  (1204) 
1

>  <i_qp_#in34>  (1204) 
0

>  <i_qp_#in56>  (1204) 
22

>  <i_qp_#metab>  (1204) 
5

>  <i_qp_#nonHatm>  (1204) 
35

>  <i_qp_#noncon>  (1204) 
0

>  <i_qp_#ringatoms>  (1204) 
22

>  <i_qp_#rotor>  (1204) 
9

>  <i_qp_#rtvFG>  (1204) 
0

>  <i_qp_#stars>  (1204) 
0

>  <i_qp_CNS>  (1204) 
1

>  <i_qp_HumanOralAbsorption>  (1204) 
3

>  <i_qp_RuleOfFive>  (1204) 
0

>  <i_qp_RuleOfThree>  (1204) 
1

>  <i_sd_BIOSOLVEIT.INFINISEE\_RESULT\_RANK>  (1204) 
4381

>  <i_sd_version>  (1204) 
0

>  <b_lp_Chiralities_Consistent>  (1204) 
1

>  <b_sd_chiral_flag>  (1204) 
0

>  <canonical_id>  (1204) 
ATP-HTVS-BEC4D7C74EFC

>  <compound_code>  (1204) 
70658

>  <title>  (1204) 
rxn502b____EMOL18624763____EMOL44466703____EMOL49839592

>  <variant>  (1204) 
70658-2

>  <source_file>  (1204) 
运行/运行/ATP-VSW/ATP-VSW-DOCK_HTVS_1-002_lib.maegz

>  <canonical_smiles>  (1204) 
CCN(c1cc2ccccc2nc1NC(=O)c1ccc(C[NH+](C)C)cc1)[C@H](C#N)c1ccccc1

>  <scaffold>  (1204) 
O=C(Nc1nc2ccccc2cc1NCc1ccccc1)c1ccccc1

>  <molecular_formula>  (1204) 
C29H30N5O+

$$$$
ATP-HTVS-BECDF8C854B5
     RDKit          3D

 54 56  0  0  0  0  0  0  0  0999 V2000
  197.9881  185.3676  155.4169 S   0  0  0  0  0  0  0  0  0  0  0  0
  197.4132  184.2126  156.4923 C   0  0  0  0  0  0  0  0  0  0  0  0
  197.1460  182.9624  156.0542 C   0  0  0  0  0  0  0  0  0  0  0  0
  196.6536  181.8520  156.7778 N   0  0  0  0  0  0  0  0  0  0  0  0
  196.4353  181.8170  158.2255 C   0  0  1  0  0  0  0  0  0  0  0  0
  196.0664  183.1202  158.9191 C   0  0  0  0  0  0  0  0  0  0  0  0
  197.0724  184.0321  159.3205 C   0  0  0  0  0  0  0  0  0  0  0  0
  196.7232  185.3632  159.6372 C   0  0  0  0  0  0  0  0  0  0  0  0
  195.3805  185.6532  159.9219 C   0  0  0  0  0  0  0  0  0  0  0  0
  194.3870  184.6714  159.7386 C   0  0  0  0  0  0  0  0  0  0  0  0
  194.7283  183.4232  159.1865 C   0  0  0  0  0  0  0  0  0  0  0  0
  197.7925  186.4513  159.7407 C   0  0  1  0  0  0  0  0  0  0  0  0
  197.9148  187.3489  158.5584 N   0  0  1  0  0  0  0  0  0  0  0  0
  196.6528  188.0518  158.2507 C   0  0  2  0  0  0  0  0  0  0  0  0
  199.0509  188.2998  158.6682 C   0  0  2  0  0  0  0  0  0  0  0  0
  197.4043  182.9425  154.6651 C   0  0  0  0  0  0  0  0  0  0  0  0
  197.1942  181.7762  153.7814 C   0  0  0  0  0  0  0  0  0  0  0  0
  196.3563  181.8405  152.8847 O   0  0  0  0  0  0  0  0  0  0  0  0
  197.9517  180.6665  153.9973 N   0  0  0  0  0  0  0  0  0  0  0  0
  198.9739  180.5627  154.9893 C   0  0  0  0  0  0  0  0  0  0  0  0
  200.0506  181.4771  155.0008 C   0  0  0  0  0  0  0  0  0  0  0  0
  201.0636  181.3756  155.9732 C   0  0  0  0  0  0  0  0  0  0  0  0
  202.1616  182.3261  155.9760 C   0  0  0  0  0  0  0  0  0  0  0  0
  203.0356  183.0839  155.9779 N   0  0  0  0  0  0  0  0  0  0  0  0
  201.0115  180.3520  156.9394 C   0  0  0  0  0  0  0  0  0  0  0  0
  199.9469  179.4283  156.9285 C   0  0  0  0  0  0  0  0  0  0  0  0
  198.9360  179.5281  155.9539 C   0  0  0  0  0  0  0  0  0  0  0  0
  197.7227  179.4979  153.1438 C   0  0  2  0  0  0  0  0  0  0  0  0
  197.8433  184.1653  154.2088 C   0  0  0  0  0  0  0  0  0  0  0  0
  197.2746  184.7186  157.3467 H   0  0  0  0  0  0  0  0  0  0  0  0
  196.4466  181.0040  156.2633 H   0  0  0  0  0  0  0  0  0  0  0  0
  195.6435  181.0963  158.4352 H   0  0  0  0  0  0  0  0  0  0  0  0
  197.3350  181.4334  158.6925 H   0  0  0  0  0  0  0  0  0  0  0  0
  198.0700  183.8737  158.9084 H   0  0  0  0  0  0  0  0  0  0  0  0
  195.1098  186.6231  160.3238 H   0  0  0  0  0  0  0  0  0  0  0  0
  193.3714  184.8792  160.0166 H   0  0  0  0  0  0  0  0  0  0  0  0
  193.9608  182.6716  159.0424 H   0  0  0  0  0  0  0  0  0  0  0  0
  197.5360  187.0451  160.6145 H   0  0  0  0  0  0  0  0  0  0  0  0
  198.7524  185.9801  159.9465 H   0  0  0  0  0  0  0  0  0  0  0  0
  196.3608  188.7083  159.0720 H   0  0  0  0  0  0  0  0  0  0  0  0
  195.8464  187.3416  158.0780 H   0  0  0  0  0  0  0  0  0  0  0  0
  196.7490  188.6479  157.3460 H   0  0  0  0  0  0  0  0  0  0  0  0
  198.9418  188.9494  159.5393 H   0  0  0  0  0  0  0  0  0  0  0  0
  199.1088  188.9343  157.7812 H   0  0  0  0  0  0  0  0  0  0  0  0
  200.0043  187.7759  158.7504 H   0  0  0  0  0  0  0  0  0  0  0  0
  200.0898  182.2629  154.2601 H   0  0  0  0  0  0  0  0  0  0  0  0
  201.7845  180.2665  157.6890 H   0  0  0  0  0  0  0  0  0  0  0  0
  199.9081  178.6420  157.6703 H   0  0  0  0  0  0  0  0  0  0  0  0
  198.1251  178.8108  155.9644 H   0  0  0  0  0  0  0  0  0  0  0  0
  198.3053  178.6377  153.4675 H   0  0  0  0  0  0  0  0  0  0  0  0
  198.0097  179.7171  152.1132 H   0  0  0  0  0  0  0  0  0  0  0  0
  196.6740  179.2011  153.1511 H   0  0  0  0  0  0  0  0  0  0  0  0
  198.1049  184.4498  153.2136 H   0  0  0  0  0  0  0  0  0  0  0  0
  198.1189  186.7582  157.7659 H   0  0  0  0  0  0  0  0  0  0  0  0
  1  2  1  0
  1 29  1  0
  2  3  2  0
  2 30  1  0
  3  4  1  0
  3 16  1  0
  4  5  1  0
  4 31  1  0
  5  6  1  0
  5 32  1  6
  5 33  1  0
  6  7  2  0
  6 11  1  0
  7  8  1  0
  7 34  1  0
  8  9  2  0
  8 12  1  0
  9 10  1  0
  9 35  1  0
 10 11  2  0
 10 36  1  0
 11 37  1  0
 12 13  1  0
 12 38  1  1
 12 39  1  0
 13 14  1  0
 13 15  1  0
 13 54  1  6
 14 40  1  1
 14 41  1  0
 14 42  1  0
 15 43  1  1
 15 44  1  0
 15 45  1  0
 16 17  1  0
 16 29  2  0
 17 18  2  0
 17 19  1  0
 19 20  1  0
 19 28  1  0
 20 21  1  0
 20 27  2  0
 21 22  2  0
 21 46  1  0
 22 23  1  0
 22 25  1  0
 23 24  3  0
 25 26  2  0
 25 47  1  0
 26 27  1  0
 26 48  1  0
 27 49  1  0
 28 50  1  1
 28 51  1  0
 28 52  1  0
 29 53  1  0
M  CHG  1  13   1
M  END
>  <s_epik_cmdline>  (1205) 
J2VwaWtfcHl0aG9uJywgJy1waCcsICc3LjAwMDAwMCcsICctcGh0JywgJzIuMDAwMDAwJywgJy1tcycsICcxNicsICctdG4nLCAnOCcsICctbWEnLCAnMjAwJywgJy1pbWFlJywgJzxpbmZpbGUubWFlPicsICctb21hZScsICc8b3V0ZmlsZS5tYWU+Jw==

>  <s_epik_input>  (1205) 
W2NIXTFbY0hdW2NIXWMoQyNOKVtjSF1jMU4oW0NIM10pQyg9TyljMltjSF1zW2NIXWMyW05IXVtDSDJdYzNbY0hdYyhbY0hdW2NIXVtjSF0zKVtDSDJdTihbQ0gzXSlbQ0gzXQ==

>  <s_i_glide_gridfile>  (1205) 
ATP-Grid

>  <s_lp_Force_Field>  (1205) 
OPLS_2005

>  <s_lp_Variant>  (1205) 
rxn512b____EMOL31412115____EMOL10439745____EMOL2873214-1

>  <s_lp_label>  (1205) 
2573_sdstereoexpander_1_neutralizer_1_epik_1_stereoizer_1

>  <s_m_source_file>  (1205) 
ATP-VSW-LIGPREP-001-in.maegz

>  <s_sd_BIOSOLVEIT.INFINISEE\_QUERY\_NAME>  (1205) 
Ref-Lig

>  <s_sd_BIOSOLVEIT.INFINISEE\_QUERY\_SMILES>  (1205) 
S(c1nc2c(cc1C[NH2+]Cc3ccc(cc3)C[NH+](C)C)cccc2)Cc4ccccc4

>  <s_sd_BIOSOLVEIT.INFINISEE\_REACTION\_NAME>  (1205) 
rxn512b

>  <s_sd_BIOSOLVEIT.INFINISEE\_REAGENT1\_NAME>  (1205) 
EMOL31412115

>  <s_sd_BIOSOLVEIT.INFINISEE\_REAGENT1\_SMILES>  (1205) 
N#Cc1cc(NC)ccc1

>  <s_sd_BIOSOLVEIT.INFINISEE\_REAGENT2\_NAME>  (1205) 
EMOL10439745

>  <s_sd_BIOSOLVEIT.INFINISEE\_REAGENT2\_SMILES>  (1205) 
BrC=1C(C(=O)O)=CSC1

>  <s_sd_BIOSOLVEIT.INFINISEE\_REAGENT3\_NAME>  (1205) 
EMOL2873214

>  <s_sd_BIOSOLVEIT.INFINISEE\_REAGENT3\_SMILES>  (1205) 
N(Cc1cc(ccc1)CN)(C)C

>  <s_sd_BIOSOLVEIT.INFINISEE\_SPACE>  (1205) 
eXplore_7tr_2022-12

>  <s_vsw_compound_code>  (1205) 
82305

>  <s_vsw_variant>  (1205) 
82305-1

>  <r_epik_Charging_Adjusted_Penalty>  (1205) 
0.086140609825027206

>  <r_epik_Ionization_Penalty>  (1205) 
0.043099999999999999

>  <r_epik_Ionization_Penalty_Charging>  (1205) 
0.043099999999999999

>  <r_epik_Ionization_Penalty_Neutral>  (1205) 
0

>  <r_epik_State_Penalty>  (1205) 
0.043099999999999999

>  <r_i_docking_score>  (1205) 
-3.4006914794541001

>  <r_i_glide_ecoul>  (1205) 
-3.5827305316925

>  <r_i_glide_eff_state_penalty>  (1205) 
0.043099999999999999

>  <r_i_glide_einternal>  (1205) 
3.8627443313598602

>  <r_i_glide_emodel>  (1205) 
-46.485674807312897

>  <r_i_glide_energy>  (1205) 
-36.739476442337001

>  <r_i_glide_erotb>  (1205) 
0.83652915046535004

>  <r_i_glide_esite>  (1205) 
-0.115263136672846

>  <r_i_glide_evdw>  (1205) 
-33.156745910644503

>  <r_i_glide_gscore>  (1205) 
-3.4437914794541

>  <r_i_glide_hbond>  (1205) 
0

>  <r_i_glide_ligand_efficiency>  (1205) 
-0.117265223429452

>  <r_i_glide_ligand_efficiency_ln>  (1205) 
-0.778672114699551

>  <r_i_glide_ligand_efficiency_sa>  (1205) 
-0.360275918605729

>  <r_i_glide_lipo>  (1205) 
-1.3257433452332299

>  <r_i_glide_metal>  (1205) 
-0

>  <r_i_glide_rewards>  (1205) 
-0.64406727272727105

>  <r_lp_Energy>  (1205) 
36.805067999999999

>  <r_lp_tautomer_probability>  (1205) 
0.99999274205267796

>  <r_qp_ACxDN^.5/SA>  (1205) 
0

>  <r_qp_CIQPlogS>  (1205) 
-4.5720000000000001

>  <r_qp_EA(eV)>  (1205) 
0.86399999999999999

>  <r_qp_FISA>  (1205) 
111.233

>  <r_qp_FOSA>  (1205) 
287.19900000000001

>  <r_qp_IP(eV)>  (1205) 
8.1739999999999995

>  <r_qp_Jm>  (1205) 
1.15483220512948e-05

>  <r_qp_PISA>  (1205) 
310.68000000000001

>  <r_qp_PSA>  (1205) 
68.997

>  <r_qp_PercentHumanOralAbsorption>  (1205) 
79.394999999999996

>  <r_qp_QPPCaco>  (1205) 
54.308999999999997

>  <r_qp_QPPMDCK>  (1205) 
49.793999999999997

>  <r_qp_QPlogBB>  (1205) 
-0.22800000000000001

>  <r_qp_QPlogHERG>  (1205) 
-8.0990000000000002

>  <r_qp_QPlogKhsa>  (1205) 
0.45000000000000001

>  <r_qp_QPlogKp>  (1205) 
-5.8319999999999999

>  <r_qp_QPlogPC16>  (1205) 
14.217000000000001

>  <r_qp_QPlogPo/w>  (1205) 
3.6549999999999998

>  <r_qp_QPlogPoct>  (1205) 
19.021999999999998

>  <r_qp_QPlogPw>  (1205) 
9.0749999999999993

>  <r_qp_QPlogS>  (1205) 
-4.7119999999999997

>  <r_qp_QPpolrz>  (1205) 
45.585999999999999

>  <r_qp_SASA>  (1205) 
760.68600000000004

>  <r_qp_SAamideO>  (1205) 
0

>  <r_qp_SAfluorine>  (1205) 
0

>  <r_qp_WPSA>  (1205) 
51.573999999999998

>  <r_qp_accptHB>  (1205) 
6.5

>  <r_qp_dip^2/V>  (1205) 
0.028475

>  <r_qp_dipole>  (1205) 
6.1929999999999996

>  <r_qp_donorHB>  (1205) 
0

>  <r_qp_glob>  (1205) 
0.77545260000000005

>  <r_qp_mol_MW>  (1205) 
404.529

>  <r_qp_volume>  (1205) 
1347.0809999999999

>  <r_sd_BIOSOLVEIT.INFINISEE\_FTREES\_SIMILARITY>  (1205) 
0.91200000000000003

>  <r_sd_BIOSOLVEIT.LOGP>  (1205) 
3.1529799999999999

>  <r_sd_BIOSOLVEIT.MOLECULAR\_WEIGHT>  (1205) 
405.54300000000001

>  <r_sd_BIOSOLVEIT.TPSA>  (1205) 
60.57

>  <i_epik_Tot_Q>  (1205) 
1

>  <i_epik_Tot_abs_Q>  (1205) 
1

>  <i_f3d_flags>  (1205) 
0

>  <i_i_glide_confnum>  (1205) 
7

>  <i_i_glide_lignum>  (1205) 
1040

>  <i_i_glide_posenum>  (1205) 
15

>  <i_i_glide_rotatable_bonds>  (1205) 
8

>  <i_lp_mmshare_version>  (1205) 
65135

>  <i_m_ct_format>  (1205) 
2

>  <i_m_source_file_index>  (1205) 
2573

>  <i_qp_#NandO>  (1205) 
5

>  <i_qp_#acid>  (1205) 
0

>  <i_qp_#amide>  (1205) 
0

>  <i_qp_#amidine>  (1205) 
0

>  <i_qp_#amine>  (1205) 
2

>  <i_qp_#in34>  (1205) 
0

>  <i_qp_#in56>  (1205) 
17

>  <i_qp_#metab>  (1205) 
6

>  <i_qp_#nonHatm>  (1205) 
29

>  <i_qp_#noncon>  (1205) 
0

>  <i_qp_#ringatoms>  (1205) 
17

>  <i_qp_#rotor>  (1205) 
8

>  <i_qp_#rtvFG>  (1205) 
0

>  <i_qp_#stars>  (1205) 
0

>  <i_qp_CNS>  (1205) 
1

>  <i_qp_HumanOralAbsorption>  (1205) 
3

>  <i_qp_RuleOfFive>  (1205) 
0

>  <i_qp_RuleOfThree>  (1205) 
0

>  <i_sd_BIOSOLVEIT.INFINISEE\_RESULT\_RANK>  (1205) 
38153

>  <i_sd_version>  (1205) 
0

>  <b_lp_Chiralities_Consistent>  (1205) 
1

>  <b_sd_chiral_flag>  (1205) 
0

>  <canonical_id>  (1205) 
ATP-HTVS-BECDF8C854B5

>  <compound_code>  (1205) 
82305

>  <title>  (1205) 
rxn512b____EMOL31412115____EMOL10439745____EMOL2873214

>  <variant>  (1205) 
82305-1

>  <source_file>  (1205) 
运行/运行/ATP-VSW/ATP-VSW-DOCK_HTVS_1-001_lib/ATP-VSW-DOCK_HTVS_1-001_lib

>  <canonical_smiles>  (1205) 
CN(C(=O)c1cscc1NCc1cccc(C[NH+](C)C)c1)c1cccc(C#N)c1

>  <scaffold>  (1205) 
O=C(Nc1ccccc1)c1cscc1NCc1ccccc1

>  <molecular_formula>  (1205) 
C23H25N4OS+

$$$$
ATP-HTVS-BF2AFCF05426
     RDKit          3D

 55 57  0  0  0  0  0  0  0  0999 V2000
  200.0851  179.2672  152.2429 F   0  0  0  0  0  0  0  0  0  0  0  0
  198.9236  179.9263  152.0419 C   0  0  0  0  0  0  0  0  0  0  0  0
  198.0983  179.6150  150.9497 C   0  0  0  0  0  0  0  0  0  0  0  0
  196.9313  180.2627  150.7216 N   0  0  0  0  0  0  0  0  0  0  0  0
  196.5423  181.2204  151.6009 C   0  0  0  0  0  0  0  0  0  0  0  0
  197.2917  181.5811  152.7413 C   0  0  0  0  0  0  0  0  0  0  0  0
  196.7837  182.5544  153.6278 N   0  0  0  0  0  0  0  0  0  0  0  0
  197.7184  183.3792  154.3995 C   0  0  1  0  0  0  0  0  0  0  0  0
  197.3453  183.6354  155.8496 C   0  0  0  0  0  0  0  0  0  0  0  0
  196.5802  182.7173  156.5990 C   0  0  0  0  0  0  0  0  0  0  0  0
  196.1845  183.0305  157.9181 C   0  0  0  0  0  0  0  0  0  0  0  0
  196.6219  184.2288  158.5199 C   0  0  0  0  0  0  0  0  0  0  0  0
  197.4400  185.1151  157.7939 C   0  0  0  0  0  0  0  0  0  0  0  0
  197.7935  184.8199  156.4628 C   0  0  0  0  0  0  0  0  0  0  0  0
  195.2470  182.0941  158.6610 C   0  0  1  0  0  0  0  0  0  0  0  0
  193.8647  182.1953  158.1411 N   0  0  2  0  0  0  0  0  0  0  0  0
  193.1716  183.4258  158.5445 C   0  0  2  0  0  0  0  0  0  0  0  0
  193.0599  180.9889  158.3685 C   0  0  2  0  0  0  0  0  0  0  0  0
  198.5164  180.9128  152.9558 C   0  0  0  0  0  0  0  0  0  0  0  0
  198.5734  178.5535  150.1541 N   0  0  0  0  0  0  0  0  0  0  0  0
  197.9905  177.9206  149.1250 C   0  0  0  0  0  0  0  0  0  0  0  0
  196.9401  178.2762  148.5793 O   0  0  0  0  0  0  0  0  0  0  0  0
  198.7312  176.6693  148.5986 C   0  0  1  0  0  0  0  0  0  0  0  0
  197.8411  175.7117  148.3423 F   0  0  0  0  0  0  0  0  0  0  0  0
  199.3330  177.0047  147.4520 F   0  0  0  0  0  0  0  0  0  0  0  0
  199.7274  176.1113  149.6211 C   0  0  0  0  0  0  0  0  0  0  0  0
  199.2747  175.7054  150.8981 C   0  0  0  0  0  0  0  0  0  0  0  0
  200.1945  175.2802  151.8718 C   0  0  0  0  0  0  0  0  0  0  0  0
  201.5668  175.2270  151.5696 C   0  0  0  0  0  0  0  0  0  0  0  0
  202.0202  175.6056  150.2927 C   0  0  0  0  0  0  0  0  0  0  0  0
  201.1052  176.0546  149.3229 C   0  0  0  0  0  0  0  0  0  0  0  0
  195.6008  181.6933  151.3594 H   0  0  0  0  0  0  0  0  0  0  0  0
  195.8538  182.9445  153.4704 H   0  0  0  0  0  0  0  0  0  0  0  0
  198.7358  182.9865  154.4194 H   0  0  0  0  0  0  0  0  0  0  0  0
  197.7874  184.3305  153.8901 H   0  0  0  0  0  0  0  0  0  0  0  0
  196.2527  181.7855  156.1563 H   0  0  0  0  0  0  0  0  0  0  0  0
  196.3267  184.4871  159.5242 H   0  0  0  0  0  0  0  0  0  0  0  0
  197.7888  186.0357  158.2495 H   0  0  0  0  0  0  0  0  0  0  0  0
  198.4163  185.5088  155.9097 H   0  0  0  0  0  0  0  0  0  0  0  0
  195.6360  181.0790  158.5620 H   0  0  0  0  0  0  0  0  0  0  0  0
  195.2608  182.3141  159.7262 H   0  0  0  0  0  0  0  0  0  0  0  0
  193.0716  183.5121  159.6277 H   0  0  0  0  0  0  0  0  0  0  0  0
  192.1719  183.4322  158.1297 H   0  0  0  0  0  0  0  0  0  0  0  0
  193.6919  184.3244  158.2104 H   0  0  0  0  0  0  0  0  0  0  0  0
  192.9025  180.8154  159.4290 H   0  0  0  0  0  0  0  0  0  0  0  0
  193.5517  180.1107  157.9770 H   0  0  0  0  0  0  0  0  0  0  0  0
  192.0834  181.0540  157.8926 H   0  0  0  0  0  0  0  0  0  0  0  0
  199.1493  181.1080  153.7983 H   0  0  0  0  0  0  0  0  0  0  0  0
  199.4313  178.1237  150.4934 H   0  0  0  0  0  0  0  0  0  0  0  0
  198.2226  175.7565  151.1455 H   0  0  0  0  0  0  0  0  0  0  0  0
  199.8523  175.0165  152.8615 H   0  0  0  0  0  0  0  0  0  0  0  0
  202.2694  174.9050  152.3227 H   0  0  0  0  0  0  0  0  0  0  0  0
  203.0736  175.5772  150.0633 H   0  0  0  0  0  0  0  0  0  0  0  0
  201.4716  176.3615  148.3527 H   0  0  0  0  0  0  0  0  0  0  0  0
  193.9473  182.2754  157.1119 H   0  0  0  0  0  0  0  0  0  0  0  0
  1  2  1  0
  2  3  2  0
  2 19  1  0
  3  4  1  0
  3 20  1  0
  4  5  2  0
  5  6  1  0
  5 32  1  0
  6  7  1  0
  6 19  2  0
  7  8  1  0
  7 33  1  0
  8  9  1  0
  8 34  1  1
  8 35  1  0
  9 10  2  0
  9 14  1  0
 10 11  1  0
 10 36  1  0
 11 12  2  0
 11 15  1  0
 12 13  1  0
 12 37  1  0
 13 14  2  0
 13 38  1  0
 14 39  1  0
 15 16  1  0
 15 40  1  1
 15 41  1  0
 16 17  1  0
 16 18  1  0
 16 55  1  6
 17 42  1  1
 17 43  1  0
 17 44  1  0
 18 45  1  1
 18 46  1  0
 18 47  1  0
 19 48  1  0
 20 21  1  0
 20 49  1  0
 21 22  2  0
 21 23  1  0
 23 24  1  6
 23 25  1  0
 23 26  1  0
 26 27  2  0
 26 31  1  0
 27 28  1  0
 27 50  1  0
 28 29  2  0
 28 51  1  0
 29 30  1  0
 29 52  1  0
 30 31  2  0
 30 53  1  0
 31 54  1  0
M  CHG  1  16   1
M  END
>  <s_epik_cmdline>  (1206) 
J2VwaWtfcHl0aG9uJywgJy1waCcsICc3LjAwMDAwMCcsICctcGh0JywgJzIuMDAwMDAwJywgJy1tcycsICcxNicsICctdG4nLCAnOCcsICctbWEnLCAnMjAwJywgJy1pbWFlJywgJzxpbmZpbGUubWFlPicsICctb21hZScsICc8b3V0ZmlsZS5tYWU+Jw==

>  <s_epik_input>  (1206) 
W2NIXTFbY0hdW2NIXVtjSF1bY0hdYzFDKEYpKEYpQyg9TylbTkhdYyhjMkYpbltjSF1jKFtjSF0yKVtOSF1bQ0gyXWMzW2NIXWMoW2NIXVtjSF1bY0hdMylbQ0gyXU4oW0NIM10pW0NIM10=

>  <s_i_glide_gridfile>  (1206) 
ATP-Grid

>  <s_lp_Force_Field>  (1206) 
OPLS_2005

>  <s_lp_Variant>  (1206) 
rxn502a____EMOL45480251____EMOL44820718____EMOL2873214-1

>  <s_lp_label>  (1206) 
2929_sdstereoexpander_1_neutralizer_1_epik_1_stereoizer_1

>  <s_m_source_file>  (1206) 
ATP-VSW-LIGPREP-003-in.maegz

>  <s_sd_BIOSOLVEIT.INFINISEE\_QUERY\_NAME>  (1206) 
Ref-Lig

>  <s_sd_BIOSOLVEIT.INFINISEE\_QUERY\_SMILES>  (1206) 
S(c1nc2c(cc1C[NH2+]Cc3ccc(cc3)C[NH+](C)C)cccc2)Cc4ccccc4

>  <s_sd_BIOSOLVEIT.INFINISEE\_REACTION\_NAME>  (1206) 
rxn502a

>  <s_sd_BIOSOLVEIT.INFINISEE\_REAGENT1\_NAME>  (1206) 
EMOL45480251

>  <s_sd_BIOSOLVEIT.INFINISEE\_REAGENT1\_SMILES>  (1206) 
FC(F)(c1ccccc1)C(=O)O

>  <s_sd_BIOSOLVEIT.INFINISEE\_REAGENT2\_NAME>  (1206) 
EMOL44820718

>  <s_sd_BIOSOLVEIT.INFINISEE\_REAGENT2\_SMILES>  (1206) 
Ic1cnc(N)c(F)c1

>  <s_sd_BIOSOLVEIT.INFINISEE\_REAGENT3\_NAME>  (1206) 
EMOL2873214

>  <s_sd_BIOSOLVEIT.INFINISEE\_REAGENT3\_SMILES>  (1206) 
N(Cc1cc(ccc1)CN)(C)C

>  <s_sd_BIOSOLVEIT.INFINISEE\_SPACE>  (1206) 
eXplore_7tr_2022-12

>  <s_vsw_compound_code>  (1206) 
93699

>  <s_vsw_variant>  (1206) 
93699-1

>  <r_epik_Charging_Adjusted_Penalty>  (1206) 
0.088195370499548398

>  <r_epik_Ionization_Penalty>  (1206) 
0.044299999999999999

>  <r_epik_Ionization_Penalty_Charging>  (1206) 
0.0441

>  <r_epik_Ionization_Penalty_Neutral>  (1206) 
0.00020000000000000001

>  <r_epik_State_Penalty>  (1206) 
0.0441

>  <r_i_docking_score>  (1206) 
-4.4310060927735

>  <r_i_glide_ecoul>  (1206) 
-10.8162336349487

>  <r_i_glide_eff_state_penalty>  (1206) 
0.0441

>  <r_i_glide_einternal>  (1206) 
5.1681089401245099

>  <r_i_glide_emodel>  (1206) 
-53.580817252689897

>  <r_i_glide_energy>  (1206) 
-40.083745002746603

>  <r_i_glide_erotb>  (1206) 
0.75424386438402302

>  <r_i_glide_esite>  (1206) 
-0.15547593691001499

>  <r_i_glide_evdw>  (1206) 
-29.267511367797901

>  <r_i_glide_gscore>  (1206) 
-4.4751060927735002

>  <r_i_glide_hbond>  (1206) 
-0.35999999999999999

>  <r_i_glide_ligand_efficiency>  (1206) 
-0.14293568041204799

>  <r_i_glide_ligand_efficiency_ln>  (1206) 
-0.99932766794892103

>  <r_i_glide_ligand_efficiency_sa>  (1206) 
-0.44901538046883699

>  <r_i_glide_lipo>  (1206) 
-0.86867934390139001

>  <r_i_glide_metal>  (1206) 
-0

>  <r_i_glide_rewards>  (1206) 
-0.75938406271391301

>  <r_lp_Energy>  (1206) 
22.108664999999998

>  <r_lp_tautomer_probability>  (1206) 
0.999999999999999

>  <r_qp_ACxDN^.5/SA>  (1206) 
0.015070800000000001

>  <r_qp_CIQPlogS>  (1206) 
-5.3019999999999996

>  <r_qp_EA(eV)>  (1206) 
0.46600000000000003

>  <r_qp_FISA>  (1206) 
58.743000000000002

>  <r_qp_FOSA>  (1206) 
133.85300000000001

>  <r_qp_IP(eV)>  (1206) 
8.4339999999999993

>  <r_qp_Jm>  (1206) 
0.80311949440340302

>  <r_qp_PISA>  (1206) 
322.57499999999999

>  <r_qp_PSA>  (1206) 
61.671999999999997

>  <r_qp_PercentHumanOralAbsorption>  (1206) 
100

>  <r_qp_QPPCaco>  (1206) 
685.08000000000004

>  <r_qp_QPPMDCK>  (1206) 
1201.9090000000001

>  <r_qp_QPlogBB>  (1206) 
0.23300000000000001

>  <r_qp_QPlogHERG>  (1206) 
-5.3520000000000003

>  <r_qp_QPlogKhsa>  (1206) 
0.35699999999999998

>  <r_qp_QPlogKp>  (1206) 
-2.7599999999999998

>  <r_qp_QPlogPC16>  (1206) 
12.154999999999999

>  <r_qp_QPlogPo/w>  (1206) 
3.9449999999999998

>  <r_qp_QPlogPoct>  (1206) 
20.890999999999998

>  <r_qp_QPlogPw>  (1206) 
11.381

>  <r_qp_QPlogS>  (1206) 
-2.9670000000000001

>  <r_qp_QPpolrz>  (1206) 
40.500999999999998

>  <r_qp_SASA>  (1206) 
609.947

>  <r_qp_SAamideO>  (1206) 
0

>  <r_qp_SAfluorine>  (1206) 
94.777000000000001

>  <r_qp_WPSA>  (1206) 
94.777000000000001

>  <r_qp_accptHB>  (1206) 
6.5

>  <r_qp_dip^2/V>  (1206) 
0.050343499999999999

>  <r_qp_dipole>  (1206) 
7.8280000000000003

>  <r_qp_donorHB>  (1206) 
2

>  <r_qp_glob>  (1206) 
0.90387360000000005

>  <r_qp_mol_MW>  (1206) 
428.45600000000002

>  <r_qp_volume>  (1206) 
1217.173

>  <r_sd_BIOSOLVEIT.INFINISEE\_FTREES\_SIMILARITY>  (1206) 
0.90400000000000003

>  <r_sd_BIOSOLVEIT.LOGP>  (1206) 
3.2078000000000002

>  <r_sd_BIOSOLVEIT.MOLECULAR\_WEIGHT>  (1206) 
429.464

>  <r_sd_BIOSOLVEIT.TPSA>  (1206) 
58.460000000000001

>  <i_epik_Tot_Q>  (1206) 
1

>  <i_epik_Tot_abs_Q>  (1206) 
1

>  <i_f3d_flags>  (1206) 
0

>  <i_i_glide_confnum>  (1206) 
7

>  <i_i_glide_lignum>  (1206) 
1443

>  <i_i_glide_posenum>  (1206) 
10

>  <i_i_glide_rotatable_bonds>  (1206) 
9

>  <i_lp_mmshare_version>  (1206) 
65135

>  <i_m_ct_format>  (1206) 
2

>  <i_m_source_file_index>  (1206) 
2929

>  <i_qp_#NandO>  (1206) 
5

>  <i_qp_#acid>  (1206) 
0

>  <i_qp_#amide>  (1206) 
0

>  <i_qp_#amidine>  (1206) 
0

>  <i_qp_#amine>  (1206) 
1

>  <i_qp_#in34>  (1206) 
0

>  <i_qp_#in56>  (1206) 
18

>  <i_qp_#metab>  (1206) 
7

>  <i_qp_#nonHatm>  (1206) 
31

>  <i_qp_#noncon>  (1206) 
0

>  <i_qp_#ringatoms>  (1206) 
18

>  <i_qp_#rotor>  (1206) 
8

>  <i_qp_#rtvFG>  (1206) 
2

>  <i_qp_#stars>  (1206) 
0

>  <i_qp_CNS>  (1206) 
1

>  <i_qp_HumanOralAbsorption>  (1206) 
3

>  <i_qp_RuleOfFive>  (1206) 
0

>  <i_qp_RuleOfThree>  (1206) 
1

>  <i_sd_BIOSOLVEIT.INFINISEE\_RESULT\_RANK>  (1206) 
77972

>  <i_sd_version>  (1206) 
0

>  <b_lp_Chiralities_Consistent>  (1206) 
1

>  <b_sd_chiral_flag>  (1206) 
0

>  <canonical_id>  (1206) 
ATP-HTVS-BF2AFCF05426

>  <compound_code>  (1206) 
93699

>  <title>  (1206) 
rxn502a____EMOL45480251____EMOL44820718____EMOL2873214

>  <variant>  (1206) 
93699-1

>  <source_file>  (1206) 
运行/运行/ATP-VSW/ATP-VSW-DOCK_HTVS_1-003_lib/ATP-VSW-DOCK_HTVS_1-003_lib.mae

>  <canonical_smiles>  (1206) 
C[NH+](C)Cc1cccc(CNc2cnc(NC(=O)C(F)(F)c3ccccc3)c(F)c2)c1

>  <scaffold>  (1206) 
O=C(Cc1ccccc1)Nc1ccc(NCc2ccccc2)cn1

>  <molecular_formula>  (1206) 
C23H24F3N4O+

$$$$
ATP-HTVS-BF383207F30E
     RDKit          3D

 58 61  0  0  0  0  0  0  0  0999 V2000
  200.2742  186.1997  148.3188 Cl  0  0  0  0  0  0  0  0  0  0  0  0
  199.2512  185.6935  149.6128 C   0  0  0  0  0  0  0  0  0  0  0  0
  198.2430  184.7372  149.3824 C   0  0  0  0  0  0  0  0  0  0  0  0
  197.4206  184.3054  150.4442 C   0  0  0  0  0  0  0  0  0  0  0  0
  197.6032  184.8468  151.7342 C   0  0  0  0  0  0  0  0  0  0  0  0
  198.6013  185.8123  151.9605 C   0  0  0  0  0  0  0  0  0  0  0  0
  199.4268  186.2343  150.9012 C   0  0  0  0  0  0  0  0  0  0  0  0
  196.3218  183.2960  150.1832 C   0  0  1  0  0  0  0  0  0  0  0  0
  196.1414  182.3158  151.2512 N   0  0  0  0  0  0  0  0  0  0  0  0
  196.8092  181.0829  151.1848 C   0  0  0  0  0  0  0  0  0  0  0  0
  196.9426  180.5094  149.9676 N   0  0  0  0  0  0  0  0  0  0  0  0
  197.5786  179.3177  149.8780 C   0  0  0  0  0  0  0  0  0  0  0  0
  198.0954  178.6841  151.0465 C   0  0  0  0  0  0  0  0  0  0  0  0
  197.9787  179.2687  152.2625 N   0  0  0  0  0  0  0  0  0  0  0  0
  197.3260  180.4595  152.3510 C   0  0  0  0  0  0  0  0  0  0  0  0
  197.1874  181.0406  153.6218 N   0  0  0  0  0  0  0  0  0  0  0  0
  198.3778  181.0922  154.4669 C   0  0  1  0  0  0  0  0  0  0  0  0
  198.2042  181.8953  155.7494 C   0  0  0  0  0  0  0  0  0  0  0  0
  197.1383  181.6157  156.6299 C   0  0  0  0  0  0  0  0  0  0  0  0
  196.9683  182.3700  157.8129 C   0  0  0  0  0  0  0  0  0  0  0  0
  197.8914  183.3825  158.1353 C   0  0  0  0  0  0  0  0  0  0  0  0
  198.9687  183.6466  157.2722 C   0  0  0  0  0  0  0  0  0  0  0  0
  199.1225  182.9127  156.0787 C   0  0  0  0  0  0  0  0  0  0  0  0
  195.8075  182.0847  158.7439 C   0  0  1  0  0  0  0  0  0  0  0  0
  194.5218  182.5107  158.1419 N   0  0  1  0  0  0  0  0  0  0  0  0
  193.4781  181.4697  158.1885 C   0  0  2  0  0  0  0  0  0  0  0  0
  194.0592  183.8094  158.6652 C   0  0  2  0  0  0  0  0  0  0  0  0
  198.7292  177.4273  150.9135 C   0  0  0  0  0  0  0  0  0  0  0  0
  198.8780  176.8141  149.6543 C   0  0  0  0  0  0  0  0  0  0  0  0
  198.3930  177.4509  148.5017 C   0  0  0  0  0  0  0  0  0  0  0  0
  197.7407  178.6929  148.6211 C   0  0  0  0  0  0  0  0  0  0  0  0
  198.1039  184.3389  148.3867 H   0  0  0  0  0  0  0  0  0  0  0  0
  196.9669  184.5478  152.5551 H   0  0  0  0  0  0  0  0  0  0  0  0
  198.7267  186.2307  152.9480 H   0  0  0  0  0  0  0  0  0  0  0  0
  200.1972  186.9700  151.0779 H   0  0  0  0  0  0  0  0  0  0  0  0
  195.3847  183.8426  150.0902 H   0  0  0  0  0  0  0  0  0  0  0  0
  196.5005  182.8311  149.2115 H   0  0  0  0  0  0  0  0  0  0  0  0
  196.0158  182.7149  152.1685 H   0  0  0  0  0  0  0  0  0  0  0  0
  196.5911  181.8483  153.7082 H   0  0  0  0  0  0  0  0  0  0  0  0
  198.7008  180.0810  154.7202 H   0  0  0  0  0  0  0  0  0  0  0  0
  199.1832  181.5277  153.8821 H   0  0  0  0  0  0  0  0  0  0  0  0
  196.4591  180.8071  156.3941 H   0  0  0  0  0  0  0  0  0  0  0  0
  197.7900  183.9457  159.0492 H   0  0  0  0  0  0  0  0  0  0  0  0
  199.6853  184.4162  157.5362 H   0  0  0  0  0  0  0  0  0  0  0  0
  199.9602  183.1366  155.4341 H   0  0  0  0  0  0  0  0  0  0  0  0
  195.8123  181.0279  158.9921 H   0  0  0  0  0  0  0  0  0  0  0  0
  195.9614  182.5713  159.7123 H   0  0  0  0  0  0  0  0  0  0  0  0
  193.2731  181.1483  159.2107 H   0  0  0  0  0  0  0  0  0  0  0  0
  193.7968  180.6039  157.6104 H   0  0  0  0  0  0  0  0  0  0  0  0
  192.5565  181.8387  157.7328 H   0  0  0  0  0  0  0  0  0  0  0  0
  193.8220  183.7476  159.7294 H   0  0  0  0  0  0  0  0  0  0  0  0
  193.1588  184.1289  158.1447 H   0  0  0  0  0  0  0  0  0  0  0  0
  194.8172  184.5853  158.5329 H   0  0  0  0  0  0  0  0  0  0  0  0
  199.1062  176.9267  151.7944 H   0  0  0  0  0  0  0  0  0  0  0  0
  199.3827  175.8610  149.5686 H   0  0  0  0  0  0  0  0  0  0  0  0
  198.5276  176.9962  147.5315 H   0  0  0  0  0  0  0  0  0  0  0  0
  197.3790  179.1780  147.7257 H   0  0  0  0  0  0  0  0  0  0  0  0
  194.6569  182.6344  157.1382 H   0  0  0  0  0  0  0  0  0  0  0  0
  1  2  1  0
  2  3  2  0
  2  7  1  0
  3  4  1  0
  3 32  1  0
  4  5  2  0
  4  8  1  0
  5  6  1  0
  5 33  1  0
  6  7  2  0
  6 34  1  0
  7 35  1  0
  8  9  1  0
  8 36  1  6
  8 37  1  0
  9 10  1  0
  9 38  1  0
 10 11  2  0
 10 15  1  0
 11 12  1  0
 12 13  1  0
 12 31  2  0
 13 14  1  0
 13 28  2  0
 14 15  2  0
 15 16  1  0
 16 17  1  0
 16 39  1  0
 17 18  1  0
 17 40  1  1
 17 41  1  0
 18 19  2  0
 18 23  1  0
 19 20  1  0
 19 42  1  0
 20 21  2  0
 20 24  1  0
 21 22  1  0
 21 43  1  0
 22 23  2  0
 22 44  1  0
 23 45  1  0
 24 25  1  0
 24 46  1  1
 24 47  1  0
 25 26  1  0
 25 27  1  0
 25 58  1  6
 26 48  1  1
 26 49  1  0
 26 50  1  0
 27 51  1  1
 27 52  1  0
 27 53  1  0
 28 29  1  0
 28 54  1  0
 29 30  2  0
 29 55  1  0
 30 31  1  0
 30 56  1  0
 31 57  1  0
M  CHG  1  25   1
M  END
>  <s_epik_cmdline>  (1207) 
J2VwaWtfcHl0aG9uJywgJy1waCcsICc3LjAwMDAwMCcsICctcGh0JywgJzIuMDAwMDAwJywgJy1tcycsICcxNicsICctdG4nLCAnOCcsICctbWEnLCAnMjAwJywgJy1pbWFlJywgJzxpbmZpbGUubWFlPicsICctb21hZScsICc8b3V0ZmlsZS5tYWU+Jw==

>  <s_epik_input>  (1207) 
Q2xjMVtjSF1jKFtjSF1bY0hdW2NIXTEpW0NIMl1bTkhdYyhuMiljKG5jKGMyMylbY0hdW2NIXVtjSF1bY0hdMylbTkhdW0NIMl1jNFtjSF1jKFtjSF1bY0hdW2NIXTQpW0NIMl1OKFtDSDNdKVtDSDNd

>  <s_i_glide_gridfile>  (1207) 
ATP-Grid

>  <s_lp_Force_Field>  (1207) 
OPLS_2005

>  <s_lp_Variant>  (1207) 
m_282030aaa____21931304____23157418____21940090-1

>  <s_lp_label>  (1207) 
896_sdstereoexpander_1_neutralizer_1_epik_1_stereoizer_1

>  <s_m_source_file>  (1207) 
ATP-VSW-LIGPREP-002-in.maegz

>  <s_sd_BIOSOLVEIT.INFINISEE\_QUERY\_NAME>  (1207) 
Ref-Lig

>  <s_sd_BIOSOLVEIT.INFINISEE\_QUERY\_SMILES>  (1207) 
S(c1nc2c(cc1C[NH2+]Cc3ccc(cc3)C[NH+](C)C)cccc2)Cc4ccccc4

>  <s_sd_BIOSOLVEIT.INFINISEE\_REACTION\_NAME>  (1207) 
m_282030aaa

>  <s_sd_BIOSOLVEIT.INFINISEE\_REAGENT1\_SMILES>  (1207) 
[R1*]NCc1cc(Cl)ccc1

>  <s_sd_BIOSOLVEIT.INFINISEE\_REAGENT2\_SMILES>  (1207) 
[R1*]c1nc2c(nc1[R2*])cccc2

>  <s_sd_BIOSOLVEIT.INFINISEE\_REAGENT3\_SMILES>  (1207) 
[R2*]NCc1cc(ccc1)CN(C)C

>  <s_sd_BIOSOLVEIT.INFINISEE\_SPACE>  (1207) 
REALSpace_44bn_2023-08

>  <s_vsw_compound_code>  (1207) 
28642

>  <s_vsw_variant>  (1207) 
28642-1

>  <r_epik_Charging_Adjusted_Penalty>  (1207) 
0.088195370499548398

>  <r_epik_Ionization_Penalty>  (1207) 
0.044499999999999998

>  <r_epik_Ionization_Penalty_Charging>  (1207) 
0.0441

>  <r_epik_Ionization_Penalty_Neutral>  (1207) 
0.00040000000000000002

>  <r_epik_State_Penalty>  (1207) 
0.0441

>  <r_i_docking_score>  (1207) 
-4.3259419216463701

>  <r_i_glide_ecoul>  (1207) 
-7.5051164627075204

>  <r_i_glide_eff_state_penalty>  (1207) 
0.0441

>  <r_i_glide_einternal>  (1207) 
7.0158858299255398

>  <r_i_glide_emodel>  (1207) 
-56.446769553627298

>  <r_i_glide_energy>  (1207) 
-43.025006294250502

>  <r_i_glide_erotb>  (1207) 
0.74320230027251499

>  <r_i_glide_esite>  (1207) 
-0.113258724797795

>  <r_i_glide_evdw>  (1207) 
-35.519889831542997

>  <r_i_glide_gscore>  (1207) 
-4.3700419216463704

>  <r_i_glide_hbond>  (1207) 
-0.15512383024951801

>  <r_i_glide_ligand_efficiency>  (1207) 
-0.139546513601496

>  <r_i_glide_ligand_efficiency_ln>  (1207) 
-0.97563247752959503

>  <r_i_glide_ligand_efficiency_sa>  (1207) 
-0.43836871743462702

>  <r_i_glide_lipo>  (1207) 
-1.48606388770648

>  <r_i_glide_metal>  (1207) 
-0

>  <r_i_glide_rewards>  (1207) 
-0.45703581818181699

>  <r_lp_Energy>  (1207) 
20.414003000000001

>  <r_qp_ACxDN^.5/SA>  (1207) 
0.0112633

>  <r_qp_CIQPlogS>  (1207) 
-6.1870000000000003

>  <r_qp_EA(eV)>  (1207) 
0.82499999999999996

>  <r_qp_FISA>  (1207) 
37.009

>  <r_qp_FOSA>  (1207) 
178.93299999999999

>  <r_qp_IP(eV)>  (1207) 
8.2599999999999998

>  <r_qp_Jm>  (1207) 
0.73870817703409697

>  <r_qp_PISA>  (1207) 
357.93599999999998

>  <r_qp_PSA>  (1207) 
46.75

>  <r_qp_PercentHumanOralAbsorption>  (1207) 
100

>  <r_qp_QPPCaco>  (1207) 
1101.133

>  <r_qp_QPPMDCK>  (1207) 
1199.0139999999999

>  <r_qp_QPlogBB>  (1207) 
0.309

>  <r_qp_QPlogHERG>  (1207) 
-5.5570000000000004

>  <r_qp_QPlogKhsa>  (1207) 
0.73599999999999999

>  <r_qp_QPlogKp>  (1207) 
-2.2349999999999999

>  <r_qp_QPlogPC16>  (1207) 
13.654999999999999

>  <r_qp_QPlogPo/w>  (1207) 
4.8630000000000004

>  <r_qp_QPlogPoct>  (1207) 
20.263999999999999

>  <r_qp_QPlogPw>  (1207) 
10.025

>  <r_qp_QPlogS>  (1207) 
-3.532

>  <r_qp_QPpolrz>  (1207) 
42.805

>  <r_qp_SASA>  (1207) 
627.79700000000003

>  <r_qp_SAamideO>  (1207) 
0

>  <r_qp_SAfluorine>  (1207) 
0

>  <r_qp_WPSA>  (1207) 
53.918999999999997

>  <r_qp_accptHB>  (1207) 
5

>  <r_qp_dip^2/V>  (1207) 
0.022098699999999999

>  <r_qp_dipole>  (1207) 
5.29

>  <r_qp_donorHB>  (1207) 
2

>  <r_qp_glob>  (1207) 
0.90164540000000004

>  <r_qp_mol_MW>  (1207) 
431.96699999999998

>  <r_qp_volume>  (1207) 
1266.296

>  <r_sd_BIOSOLVEIT.INFINISEE\_FTREES\_SIMILARITY>  (1207) 
0.91900000000000004

>  <r_sd_BIOSOLVEIT.LOGP>  (1207) 
4.1519000000000004

>  <r_sd_BIOSOLVEIT.MOLECULAR\_WEIGHT>  (1207) 
432.976

>  <r_sd_BIOSOLVEIT.TPSA>  (1207) 
54.280000000000001

>  <i_epik_Tot_Q>  (1207) 
1

>  <i_epik_Tot_abs_Q>  (1207) 
1

>  <i_f3d_flags>  (1207) 
0

>  <i_i_glide_confnum>  (1207) 
6

>  <i_i_glide_lignum>  (1207) 
285

>  <i_i_glide_posenum>  (1207) 
2

>  <i_i_glide_rotatable_bonds>  (1207) 
8

>  <i_lp_mmshare_version>  (1207) 
65135

>  <i_m_ct_format>  (1207) 
2

>  <i_m_source_file_index>  (1207) 
896

>  <i_qp_#NandO>  (1207) 
5

>  <i_qp_#acid>  (1207) 
0

>  <i_qp_#amide>  (1207) 
0

>  <i_qp_#amidine>  (1207) 
0

>  <i_qp_#amine>  (1207) 
1

>  <i_qp_#in34>  (1207) 
0

>  <i_qp_#in56>  (1207) 
22

>  <i_qp_#metab>  (1207) 
4

>  <i_qp_#nonHatm>  (1207) 
31

>  <i_qp_#noncon>  (1207) 
0

>  <i_qp_#ringatoms>  (1207) 
22

>  <i_qp_#rotor>  (1207) 
8

>  <i_qp_#rtvFG>  (1207) 
0

>  <i_qp_#stars>  (1207) 
0

>  <i_qp_CNS>  (1207) 
1

>  <i_qp_HumanOralAbsorption>  (1207) 
3

>  <i_qp_RuleOfFive>  (1207) 
0

>  <i_qp_RuleOfThree>  (1207) 
0

>  <i_sd_BIOSOLVEIT.INFINISEE\_REAGENT1\_NAME>  (1207) 
21931304

>  <i_sd_BIOSOLVEIT.INFINISEE\_REAGENT2\_NAME>  (1207) 
23157418

>  <i_sd_BIOSOLVEIT.INFINISEE\_REAGENT3\_NAME>  (1207) 
21940090

>  <i_sd_BIOSOLVEIT.INFINISEE\_RESULT\_RANK>  (1207) 
18507

>  <i_sd_version>  (1207) 
0

>  <b_lp_Chiralities_Consistent>  (1207) 
1

>  <b_sd_chiral_flag>  (1207) 
0

>  <canonical_id>  (1207) 
ATP-HTVS-BF383207F30E

>  <compound_code>  (1207) 
28642

>  <title>  (1207) 
m_282030aaa____21931304____23157418____21940090

>  <variant>  (1207) 
28642-1

>  <source_file>  (1207) 
运行/运行/ATP-VSW/ATP-VSW-DOCK_HTVS_1-002_lib.maegz

>  <canonical_smiles>  (1207) 
C[NH+](C)Cc1cccc(CNc2nc3ccccc3nc2NCc2cccc(Cl)c2)c1

>  <scaffold>  (1207) 
c1ccc(CNc2nc3ccccc3nc2NCc2ccccc2)cc1

>  <molecular_formula>  (1207) 
C25H27ClN5+

$$$$
ATP-HTVS-BF68A4285DB1
     RDKit          3D

 66 69  0  0  0  0  0  0  0  0999 V2000
  200.5983  185.8934  155.2571 F   0  0  0  0  0  0  0  0  0  0  0  0
  200.2226  186.1687  153.9822 C   0  0  0  0  0  0  0  0  0  0  0  0
  199.0425  185.6115  153.4518 C   0  0  0  0  0  0  0  0  0  0  0  0
  198.6421  185.9378  152.1366 C   0  0  0  0  0  0  0  0  0  0  0  0
  199.4335  186.7980  151.3537 C   0  0  0  0  0  0  0  0  0  0  0  0
  200.6124  187.3530  151.8878 C   0  0  0  0  0  0  0  0  0  0  0  0
  201.0064  187.0374  153.2027 C   0  0  0  0  0  0  0  0  0  0  0  0
  198.1554  184.7336  154.3109 C   0  0  2  0  0  0  0  0  0  0  0  0
  197.6589  183.5701  153.5805 N   0  0  0  0  0  0  0  0  0  0  0  0
  198.2744  182.3086  153.6154 C   0  0  0  0  0  0  0  0  0  0  0  0
  199.2202  182.1053  154.5626 N   0  0  0  0  0  0  0  0  0  0  0  0
  199.7271  180.8947  154.7727 C   0  0  0  0  0  0  0  0  0  0  0  0
  199.4155  179.8510  154.0048 N   0  0  0  0  0  0  0  0  0  0  0  0
  198.5223  180.0003  152.9938 C   0  0  0  0  0  0  0  0  0  0  0  0
  197.8984  181.2536  152.7756 C   0  0  0  0  0  0  0  0  0  0  0  0
  196.9455  181.3872  151.7394 C   0  0  0  0  0  0  0  0  0  0  0  0
  196.6599  180.2917  150.8989 C   0  0  0  0  0  0  0  0  0  0  0  0
  197.3155  179.0568  151.1066 C   0  0  0  0  0  0  0  0  0  0  0  0
  198.2341  178.9042  152.1702 C   0  0  0  0  0  0  0  0  0  0  0  0
  200.5526  180.6855  155.8690 N   0  0  0  0  0  0  0  0  0  0  0  0
  200.7544  181.5605  157.0282 C   0  0  1  0  0  0  0  0  0  0  0  0
  199.6347  182.5156  157.4330 C   0  0  0  0  0  0  0  0  0  0  0  0
  198.2790  182.1332  157.3858 C   0  0  0  0  0  0  0  0  0  0  0  0
  197.2860  183.0909  157.6548 C   0  0  0  0  0  0  0  0  0  0  0  0
  195.8389  182.7096  157.4730 N   0  0  1  0  0  0  0  0  0  0  0  0
  195.1193  182.3951  158.7211 C   0  0  2  0  0  0  0  0  0  0  0  0
  193.8022  181.6852  158.3932 C   0  0  2  0  0  0  0  0  0  0  0  0
  194.8837  183.6677  159.5561 C   0  0  2  0  0  0  0  0  0  0  0  0
  197.6335  184.3990  158.0312 C   0  0  0  0  0  0  0  0  0  0  0  0
  198.9833  184.7675  158.1534 C   0  0  0  0  0  0  0  0  0  0  0  0
  199.9902  183.8279  157.8247 C   0  0  0  0  0  0  0  0  0  0  0  0
  196.9884  185.5359  154.9133 C   0  0  1  0  0  0  0  0  0  0  0  0
  197.4252  186.7851  155.7278 C   0  0  1  0  0  0  0  0  0  0  0  0
  196.3496  187.3031  156.4965 O   0  0  0  0  0  0  0  0  0  0  0  0
  197.7228  185.5514  151.7276 H   0  0  0  0  0  0  0  0  0  0  0  0
  199.1183  187.0367  150.3501 H   0  0  0  0  0  0  0  0  0  0  0  0
  201.2134  188.0225  151.2891 H   0  0  0  0  0  0  0  0  0  0  0  0
  201.9045  187.4736  153.6193 H   0  0  0  0  0  0  0  0  0  0  0  0
  198.7677  184.4068  155.1573 H   0  0  0  0  0  0  0  0  0  0  0  0
  196.9988  183.7485  152.8281 H   0  0  0  0  0  0  0  0  0  0  0  0
  196.4522  182.3289  151.5437 H   0  0  0  0  0  0  0  0  0  0  0  0
  195.9637  180.3931  150.0750 H   0  0  0  0  0  0  0  0  0  0  0  0
  197.1186  178.2217  150.4397 H   0  0  0  0  0  0  0  0  0  0  0  0
  198.7222  177.9524  152.3235 H   0  0  0  0  0  0  0  0  0  0  0  0
  201.0354  179.8013  155.8994 H   0  0  0  0  0  0  0  0  0  0  0  0
  200.9458  180.9294  157.8923 H   0  0  0  0  0  0  0  0  0  0  0  0
  201.6641  182.1303  156.8549 H   0  0  0  0  0  0  0  0  0  0  0  0
  197.9882  181.1317  157.1017 H   0  0  0  0  0  0  0  0  0  0  0  0
  195.3187  183.4198  156.9777 H   0  0  0  0  0  0  0  0  0  0  0  0
  195.7547  181.7097  159.2800 H   0  0  0  0  0  0  0  0  0  0  0  0
  193.2973  181.3816  159.3134 H   0  0  0  0  0  0  0  0  0  0  0  0
  193.9593  180.7847  157.7960 H   0  0  0  0  0  0  0  0  0  0  0  0
  193.1359  182.3336  157.8202 H   0  0  0  0  0  0  0  0  0  0  0  0
  194.3376  183.4348  160.4676 H   0  0  0  0  0  0  0  0  0  0  0  0
  194.3092  184.4134  159.0039 H   0  0  0  0  0  0  0  0  0  0  0  0
  195.8090  184.1378  159.8916 H   0  0  0  0  0  0  0  0  0  0  0  0
  196.8662  185.1459  158.1843 H   0  0  0  0  0  0  0  0  0  0  0  0
  199.2590  185.7772  158.4027 H   0  0  0  0  0  0  0  0  0  0  0  0
  201.0174  184.1588  157.8077 H   0  0  0  0  0  0  0  0  0  0  0  0
  196.3062  185.8121  154.1120 H   0  0  0  0  0  0  0  0  0  0  0  0
  196.4308  184.8373  155.5313 H   0  0  0  0  0  0  0  0  0  0  0  0
  198.2393  186.5477  156.4117 H   0  0  0  0  0  0  0  0  0  0  0  0
  197.8318  187.5698  155.0819 H   0  0  0  0  0  0  0  0  0  0  0  0
  195.9505  186.6204  157.0182 H   0  0  0  0  0  0  0  0  0  0  0  0
  199.7931  178.9273  154.1787 H   0  0  0  0  0  0  0  0  0  0  0  0
  195.7698  181.8868  156.8935 H   0  0  0  0  0  0  0  0  0  0  0  0
  1  2  1  0
  2  3  1  0
  2  7  2  0
  3  4  2  0
  3  8  1  0
  4  5  1  0
  4 35  1  0
  5  6  2  0
  5 36  1  0
  6  7  1  0
  6 37  1  0
  7 38  1  0
  8  9  1  0
  8 32  1  0
  8 39  1  1
  9 10  1  0
  9 40  1  0
 10 11  2  0
 10 15  1  0
 11 12  1  0
 12 13  2  0
 12 20  1  0
 13 14  1  0
 13 65  1  0
 14 15  1  0
 14 19  2  0
 15 16  2  0
 16 17  1  0
 16 41  1  0
 17 18  2  0
 17 42  1  0
 18 19  1  0
 18 43  1  0
 19 44  1  0
 20 21  1  0
 20 45  1  0
 21 22  1  0
 21 46  1  1
 21 47  1  0
 22 23  2  0
 22 31  1  0
 23 24  1  0
 23 48  1  0
 24 25  1  0
 24 29  2  0
 25 26  1  0
 25 49  1  6
 25 66  1  0
 26 27  1  0
 26 28  1  0
 26 50  1  1
 27 51  1  1
 27 52  1  0
 27 53  1  0
 28 54  1  1
 28 55  1  0
 28 56  1  0
 29 30  1  0
 29 57  1  0
 30 31  2  0
 30 58  1  0
 31 59  1  0
 32 33  1  0
 32 60  1  6
 32 61  1  0
 33 34  1  0
 33 62  1  1
 33 63  1  0
 34 64  1  0
M  CHG  2  13   1  25   1
M  END
>  <s_epik_cmdline>  (1208) 
J2VwaWtfcHl0aG9uJywgJy1waCcsICc3LjAwMDAwMCcsICctcGh0JywgJzIuMDAwMDAwJywgJy1tcycsICcxNicsICctdG4nLCAnOCcsICctbWEnLCAnMjAwJywgJy1pbWFlJywgJzxpbmZpbGUubWFlPicsICctb21hZScsICc8b3V0ZmlsZS5tYWU+Jw==

>  <s_epik_input>  (1208) 
W2NIXTFbY0hdW2NIXVtjSF1jKGMxRilbQ0BASF0oW0NIMl1bQ0gyXVtPSF0pW05IXWMoYyhjMjMpW2NIXVtjSF1bY0hdW2NIXTMpbmMobjIpW05IXVtDSDJdYzRbY0hdYyhbTkhdW0NIXShbQ0gzXSlbQ0gzXSlbY0hdW2NIXVtjSF00

>  <s_i_glide_gridfile>  (1208) 
ATP-Grid

>  <s_lp_Force_Field>  (1208) 
OPLS_2005

>  <s_lp_Variant>  (1208) 
m_282030aaa____21906080____22360182____21960652-3

>  <s_lp_label>  (1208) 
1324_sdstereoexpander_1_neutralizer_1_epik_2_stereoizer_1

>  <s_m_source_file>  (1208) 
ATP-VSW-LIGPREP-002-in.maegz

>  <s_sd_BIOSOLVEIT.INFINISEE\_QUERY\_NAME>  (1208) 
Ref-Lig

>  <s_sd_BIOSOLVEIT.INFINISEE\_QUERY\_SMILES>  (1208) 
S(c1nc2c(cc1C[NH2+]Cc3ccc(cc3)C[NH+](C)C)cccc2)Cc4ccccc4

>  <s_sd_BIOSOLVEIT.INFINISEE\_REACTION\_NAME>  (1208) 
m_282030aaa

>  <s_sd_BIOSOLVEIT.INFINISEE\_REAGENT1\_SMILES>  (1208) 
[R1*]NC(c1c(F)cccc1)CCO

>  <s_sd_BIOSOLVEIT.INFINISEE\_REAGENT2\_SMILES>  (1208) 
[R2*]c1nc([R1*])c2c(n1)cccc2

>  <s_sd_BIOSOLVEIT.INFINISEE\_REAGENT3\_SMILES>  (1208) 
[R2*]NCc1cc(NC(C)C)ccc1

>  <s_sd_BIOSOLVEIT.INFINISEE\_SPACE>  (1208) 
REALSpace_44bn_2023-08

>  <s_vsw_compound_code>  (1208) 
42338

>  <s_vsw_variant>  (1208) 
42338-3

>  <r_epik_Charging_Adjusted_Penalty>  (1208) 
3.79974558620192

>  <r_epik_Ionization_Penalty>  (1208) 
1.8954

>  <r_epik_Ionization_Penalty_Charging>  (1208) 
1.8954

>  <r_epik_Ionization_Penalty_Neutral>  (1208) 
0

>  <r_epik_State_Penalty>  (1208) 
1.9043000000000001

>  <r_i_docking_score>  (1208) 
-0.69909794854046003

>  <r_i_glide_ecoul>  (1208) 
-5.0759091377258301

>  <r_i_glide_eff_state_penalty>  (1208) 
1.9043000000000001

>  <r_i_glide_einternal>  (1208) 
2.9692358970642099

>  <r_i_glide_emodel>  (1208) 
-40.065244034163598

>  <r_i_glide_energy>  (1208) 
-32.150635242462201

>  <r_i_glide_erotb>  (1208) 
0.85066737856169505

>  <r_i_glide_esite>  (1208) 
-0.097235100898874896

>  <r_i_glide_evdw>  (1208) 
-27.0747261047363

>  <r_i_glide_gscore>  (1208) 
-2.6033979485404601

>  <r_i_glide_hbond>  (1208) 
-0.088568015578819201

>  <r_i_glide_ligand_efficiency>  (1208) 
-0.0205617043688371

>  <r_i_glide_ligand_efficiency_ln>  (1208) 
-0.154450345865842

>  <r_i_glide_ligand_efficiency_sa>  (1208) 
-0.066611940049364105

>  <r_i_glide_lipo>  (1208) 
-0.891146009728771

>  <r_i_glide_metal>  (1208) 
-0

>  <r_i_glide_rewards>  (1208) 
-0.26199352499999901

>  <r_lp_Energy>  (1208) 
23.257348

>  <r_qp_ACxDN^.5/SA>  (1208) 
0.0159621

>  <r_qp_CIQPlogS>  (1208) 
-7.2919999999999998

>  <r_qp_EA(eV)>  (1208) 
0.626

>  <r_qp_FISA>  (1208) 
106.581

>  <r_qp_FOSA>  (1208) 
192.05500000000001

>  <r_qp_IP(eV)>  (1208) 
8.0719999999999992

>  <r_qp_Jm>  (1208) 
0.35938672114551001

>  <r_qp_PISA>  (1208) 
392.96800000000002

>  <r_qp_PSA>  (1208) 
73.203000000000003

>  <r_qp_PercentHumanOralAbsorption>  (1208) 
100

>  <r_qp_QPPCaco>  (1208) 
966.48800000000006

>  <r_qp_QPPMDCK>  (1208) 
633.99000000000001

>  <r_qp_QPlogBB>  (1208) 
-1.0429999999999999

>  <r_qp_QPlogHERG>  (1208) 
-5.9409999999999998

>  <r_qp_QPlogKhsa>  (1208) 
0.61399999999999999

>  <r_qp_QPlogKp>  (1208) 
-1.0429999999999999

>  <r_qp_QPlogPC16>  (1208) 
15.343999999999999

>  <r_qp_QPlogPo/w>  (1208) 
4.9039999999999999

>  <r_qp_QPlogPoct>  (1208) 
24.443999999999999

>  <r_qp_QPlogPw>  (1208) 
13.890000000000001

>  <r_qp_QPlogS>  (1208) 
-5.0629999999999997

>  <r_qp_QPpolrz>  (1208) 
46.161000000000001

>  <r_qp_SASA>  (1208) 
714.19100000000003

>  <r_qp_SAamideO>  (1208) 
0

>  <r_qp_SAfluorine>  (1208) 
22.587

>  <r_qp_WPSA>  (1208) 
22.587

>  <r_qp_accptHB>  (1208) 
5.7000000000000002

>  <r_qp_dip^2/V>  (1208) 
0.0027347999999999999

>  <r_qp_dipole>  (1208) 
1.95

>  <r_qp_donorHB>  (1208) 
4

>  <r_qp_glob>  (1208) 
0.84335979999999999

>  <r_qp_mol_MW>  (1208) 
459.565

>  <r_qp_volume>  (1208) 
1389.9300000000001

>  <r_sd_BIOSOLVEIT.INFINISEE\_FTREES\_SIMILARITY>  (1208) 
0.91000000000000003

>  <r_sd_BIOSOLVEIT.LOGP>  (1208) 
5.7369000000000003

>  <r_sd_BIOSOLVEIT.MOLECULAR\_WEIGHT>  (1208) 
459.56599999999997

>  <r_sd_BIOSOLVEIT.TPSA>  (1208) 
82.099999999999994

>  <i_epik_Tot_Q>  (1208) 
2

>  <i_epik_Tot_abs_Q>  (1208) 
2

>  <i_f3d_flags>  (1208) 
0

>  <i_i_glide_confnum>  (1208) 
11

>  <i_i_glide_lignum>  (1208) 
462

>  <i_i_glide_posenum>  (1208) 
10

>  <i_i_glide_rotatable_bonds>  (1208) 
11

>  <i_lp_mmshare_version>  (1208) 
65135

>  <i_m_ct_format>  (1208) 
2

>  <i_m_source_file_index>  (1208) 
1324

>  <i_qp_#NandO>  (1208) 
6

>  <i_qp_#acid>  (1208) 
0

>  <i_qp_#amide>  (1208) 
0

>  <i_qp_#amidine>  (1208) 
0

>  <i_qp_#amine>  (1208) 
0

>  <i_qp_#in34>  (1208) 
0

>  <i_qp_#in56>  (1208) 
22

>  <i_qp_#metab>  (1208) 
7

>  <i_qp_#nonHatm>  (1208) 
34

>  <i_qp_#noncon>  (1208) 
0

>  <i_qp_#ringatoms>  (1208) 
22

>  <i_qp_#rotor>  (1208) 
11

>  <i_qp_#rtvFG>  (1208) 
0

>  <i_qp_#stars>  (1208) 
0

>  <i_qp_CNS>  (1208) 
-2

>  <i_qp_HumanOralAbsorption>  (1208) 
3

>  <i_qp_RuleOfFive>  (1208) 
0

>  <i_qp_RuleOfThree>  (1208) 
1

>  <i_sd_BIOSOLVEIT.INFINISEE\_REAGENT1\_NAME>  (1208) 
21906080

>  <i_sd_BIOSOLVEIT.INFINISEE\_REAGENT2\_NAME>  (1208) 
22360182

>  <i_sd_BIOSOLVEIT.INFINISEE\_REAGENT3\_NAME>  (1208) 
21960652

>  <i_sd_BIOSOLVEIT.INFINISEE\_RESULT\_RANK>  (1208) 
47998

>  <i_sd_version>  (1208) 
0

>  <b_lp_Chiralities_Consistent>  (1208) 
1

>  <b_sd_chiral_flag>  (1208) 
0

>  <canonical_id>  (1208) 
ATP-HTVS-BF68A4285DB1

>  <compound_code>  (1208) 
42338

>  <title>  (1208) 
m_282030aaa____21906080____22360182____21960652

>  <variant>  (1208) 
42338-3

>  <source_file>  (1208) 
运行/运行/ATP-VSW/ATP-VSW-DOCK_HTVS_1-002_lib.maegz

>  <canonical_smiles>  (1208) 
CC(C)[NH2+]c1cccc(CNc2nc(N[C@H](CCO)c3ccccc3F)c3ccccc3[nH+]2)c1

>  <scaffold>  (1208) 
c1ccc(CNc2nc(NCc3ccccc3)c3ccccc3[nH+]2)cc1

>  <molecular_formula>  (1208) 
C27H32FN5O+2

$$$$
ATP-HTVS-BF6C9643780C
     RDKit          3D

 59 62  0  0  0  0  0  0  0  0999 V2000
  197.8568  185.3913  156.2745 O   0  0  0  0  0  0  0  0  0  0  0  0
  197.3796  184.2549  156.1690 C   0  0  0  0  0  0  0  0  0  0  0  0
  197.1886  183.6963  154.9618 N   0  0  0  0  0  0  0  0  0  0  0  0
  197.5363  184.0984  153.6597 C   0  0  0  0  0  0  0  0  0  0  0  0
  197.5895  183.1263  152.6186 C   0  0  0  0  0  0  0  0  0  0  0  0
  197.3693  181.7440  152.8668 N   0  0  0  0  0  0  0  0  0  0  0  0
  198.2020  180.8862  153.6407 C   0  0  0  0  0  0  0  0  0  0  0  0
  197.7153  179.6578  154.2306 C   0  0  0  0  0  0  0  0  0  0  0  0
  198.4394  178.9812  155.2155 C   0  0  0  0  0  0  0  0  0  0  0  0
  199.7128  179.4272  155.5850 C   0  0  0  0  0  0  0  0  0  0  0  0
  200.2425  180.5825  154.9734 C   0  0  0  0  0  0  0  0  0  0  0  0
  199.4848  181.2981  154.0147 C   0  0  0  0  0  0  0  0  0  0  0  0
  196.0401  181.2636  152.4302 C   0  0  1  0  0  0  0  0  0  0  0  0
  196.0700  180.4667  151.1904 C   0  0  0  0  0  0  0  0  0  0  0  0
  196.1034  179.8427  150.2056 N   0  0  0  0  0  0  0  0  0  0  0  0
  197.8258  183.6134  151.2978 C   0  0  0  0  0  0  0  0  0  0  0  0
  197.9929  185.0065  151.0893 C   0  0  0  0  0  0  0  0  0  0  0  0
  197.9697  185.9071  152.0957 N   0  0  0  0  0  0  0  0  0  0  0  0
  197.7505  185.4533  153.3385 C   0  0  0  0  0  0  0  0  0  0  0  0
  198.2305  185.4769  149.7798 C   0  0  0  0  0  0  0  0  0  0  0  0
  198.2889  184.5992  148.6830 C   0  0  0  0  0  0  0  0  0  0  0  0
  198.1288  183.2240  148.8923 C   0  0  0  0  0  0  0  0  0  0  0  0
  197.9394  182.7386  150.1915 C   0  0  0  0  0  0  0  0  0  0  0  0
  196.9713  183.4021  157.4384 C   0  0  2  0  0  0  0  0  0  0  0  0
  195.9454  182.3069  157.2176 N   0  0  2  0  0  0  0  0  0  0  0  0
  195.2936  181.6912  158.4099 C   0  0  2  0  0  0  0  0  0  0  0  0
  196.4715  181.1548  156.5168 C   0  0  2  0  0  0  0  0  0  0  0  0
  196.5401  184.4278  158.4402 C   0  0  0  0  0  0  0  0  0  0  0  0
  195.1710  184.6836  158.7077 C   0  0  0  0  0  0  0  0  0  0  0  0
  194.7479  185.4844  159.7594 C   0  0  0  0  0  0  0  0  0  0  0  0
  195.6842  186.2900  160.4351 C   0  0  0  0  0  0  0  0  0  0  0  0
  197.0437  186.1750  160.0887 C   0  0  0  0  0  0  0  0  0  0  0  0
  197.4825  185.2182  159.1599 C   0  0  0  0  0  0  0  0  0  0  0  0
  196.9123  182.7273  154.9836 H   0  0  0  0  0  0  0  0  0  0  0  0
  196.6866  179.3440  154.1504 H   0  0  0  0  0  0  0  0  0  0  0  0
  197.9574  178.1971  155.7789 H   0  0  0  0  0  0  0  0  0  0  0  0
  200.2598  178.9019  156.3491 H   0  0  0  0  0  0  0  0  0  0  0  0
  201.2319  180.9164  155.2495 H   0  0  0  0  0  0  0  0  0  0  0  0
  199.8976  182.2256  153.6416 H   0  0  0  0  0  0  0  0  0  0  0  0
  195.5954  180.6340  153.1431 H   0  0  0  0  0  0  0  0  0  0  0  0
  195.3781  182.1174  152.2802 H   0  0  0  0  0  0  0  0  0  0  0  0
  197.6901  186.2370  154.0888 H   0  0  0  0  0  0  0  0  0  0  0  0
  198.3790  186.5286  149.6243 H   0  0  0  0  0  0  0  0  0  0  0  0
  198.4862  184.9644  147.6824 H   0  0  0  0  0  0  0  0  0  0  0  0
  198.1875  182.5178  148.0739 H   0  0  0  0  0  0  0  0  0  0  0  0
  197.9534  181.6890  150.3058 H   0  0  0  0  0  0  0  0  0  0  0  0
  197.8890  182.9057  157.7869 H   0  0  0  0  0  0  0  0  0  0  0  0
  196.0385  181.2729  159.0611 H   0  0  0  0  0  0  0  0  0  0  0  0
  194.5726  180.9657  158.0283 H   0  0  0  0  0  0  0  0  0  0  0  0
  194.5875  182.3174  159.0367 H   0  0  0  0  0  0  0  0  0  0  0  0
  197.2988  180.6576  157.0558 H   0  0  0  0  0  0  0  0  0  0  0  0
  196.8687  181.5254  155.6195 H   0  0  0  0  0  0  0  0  0  0  0  0
  195.7472  180.4609  156.1363 H   0  0  0  0  0  0  0  0  0  0  0  0
  194.3830  184.2132  158.1232 H   0  0  0  0  0  0  0  0  0  0  0  0
  193.7013  185.5168  159.9966 H   0  0  0  0  0  0  0  0  0  0  0  0
  195.3457  187.0079  161.1586 H   0  0  0  0  0  0  0  0  0  0  0  0
  197.7663  186.8546  160.5298 H   0  0  0  0  0  0  0  0  0  0  0  0
  198.5280  185.1550  158.9031 H   0  0  0  0  0  0  0  0  0  0  0  0
  195.2333  182.6954  156.5945 H   0  0  0  0  0  0  0  0  0  0  0  0
  1  2  2  0
  2  3  1  0
  2 24  1  0
  3  4  1  0
  3 34  1  0
  4  5  2  0
  4 19  1  0
  5  6  1  0
  5 16  1  0
  6  7  1  0
  6 13  1  0
  7  8  2  0
  7 12  1  0
  8  9  1  0
  8 35  1  0
  9 10  2  0
  9 36  1  0
 10 11  1  0
 10 37  1  0
 11 12  2  0
 11 38  1  0
 12 39  1  0
 13 14  1  0
 13 40  1  1
 13 41  1  0
 14 15  3  0
 16 17  1  0
 16 23  2  0
 17 18  1  0
 17 20  2  0
 18 19  2  0
 19 42  1  0
 20 21  1  0
 20 43  1  0
 21 22  2  0
 21 44  1  0
 22 23  1  0
 22 45  1  0
 23 46  1  0
 24 25  1  0
 24 28  1  0
 24 47  1  1
 25 26  1  0
 25 27  1  0
 25 59  1  6
 26 48  1  1
 26 49  1  0
 26 50  1  0
 27 51  1  1
 27 52  1  0
 27 53  1  0
 28 29  2  0
 28 33  1  0
 29 30  1  0
 29 54  1  0
 30 31  2  0
 30 55  1  0
 31 32  1  0
 31 56  1  0
 32 33  2  0
 32 57  1  0
 33 58  1  0
M  CHG  1  25   1
M  END
>  <s_epik_cmdline>  (1209) 
J2VwaWtfcHl0aG9uJywgJy1waCcsICc3LjAwMDAwMCcsICctcGh0JywgJzIuMDAwMDAwJywgJy1tcycsICcxNicsICctdG4nLCAnOCcsICctbWEnLCAnMjAwJywgJy1pbWFlJywgJzxpbmZpbGUubWFlPicsICctb21hZScsICc8b3V0ZmlsZS5tYWU+Jw==

>  <s_epik_input>  (1209) 
W2NIXTFbY0hdW2NIXVtjSF1bY0hdYzFbQ0BASF0oTihbQ0gzXSlbQ0gzXSlDKD1PKVtOSF1jKFtjSF1uYyhjMjMpW2NIXVtjSF1bY0hdW2NIXTMpYzJOKFtDSDJdQyNOKWM0W2NIXVtjSF1bY0hdW2NIXVtjSF00

>  <s_i_glide_gridfile>  (1209) 
ATP-Grid

>  <s_lp_Force_Field>  (1209) 
OPLS_2005

>  <s_lp_Variant>  (1209) 
rxn502b____EMOL3728885____EMOL30488121____EMOL712348-3

>  <s_lp_label>  (1209) 
2663_sdstereoexpander_1_neutralizer_1_epik_2_stereoizer_1

>  <s_m_source_file>  (1209) 
ATP-VSW-LIGPREP-002-in.maegz

>  <s_sd_BIOSOLVEIT.INFINISEE\_QUERY\_NAME>  (1209) 
Ref-Lig

>  <s_sd_BIOSOLVEIT.INFINISEE\_QUERY\_SMILES>  (1209) 
S(c1nc2c(cc1C[NH2+]Cc3ccc(cc3)C[NH+](C)C)cccc2)Cc4ccccc4

>  <s_sd_BIOSOLVEIT.INFINISEE\_REACTION\_NAME>  (1209) 
rxn502b

>  <s_sd_BIOSOLVEIT.INFINISEE\_REAGENT1\_NAME>  (1209) 
EMOL3728885

>  <s_sd_BIOSOLVEIT.INFINISEE\_REAGENT1\_SMILES>  (1209) 
O=C(O)C(N(C)C)c1ccccc1

>  <s_sd_BIOSOLVEIT.INFINISEE\_REAGENT2\_NAME>  (1209) 
EMOL30488121

>  <s_sd_BIOSOLVEIT.INFINISEE\_REAGENT2\_SMILES>  (1209) 
Brc1c(N)cnc2c1cccc2

>  <s_sd_BIOSOLVEIT.INFINISEE\_REAGENT3\_NAME>  (1209) 
EMOL712348

>  <s_sd_BIOSOLVEIT.INFINISEE\_REAGENT3\_SMILES>  (1209) 
N#CCNc1ccccc1

>  <s_sd_BIOSOLVEIT.INFINISEE\_SPACE>  (1209) 
eXplore_7tr_2022-12

>  <s_vsw_compound_code>  (1209) 
85186

>  <s_vsw_variant>  (1209) 
85186-3

>  <r_epik_Charging_Adjusted_Penalty>  (1209) 
2.00167874636844

>  <r_epik_Ionization_Penalty>  (1209) 
0.99680000000000002

>  <r_epik_Ionization_Penalty_Charging>  (1209) 
0.98140000000000005

>  <r_epik_Ionization_Penalty_Neutral>  (1209) 
0.0154

>  <r_epik_State_Penalty>  (1209) 
1.0203

>  <r_i_docking_score>  (1209) 
-4.2743481398176399

>  <r_i_glide_ecoul>  (1209) 
-11.6278171539307

>  <r_i_glide_eff_state_penalty>  (1209) 
1.0203

>  <r_i_glide_einternal>  (1209) 
9.0066108703613299

>  <r_i_glide_emodel>  (1209) 
-59.716708327590702

>  <r_i_glide_energy>  (1209) 
-42.493976593017599

>  <r_i_glide_erotb>  (1209) 
0.52303548994317295

>  <r_i_glide_esite>  (1209) 
-0.120881041839143

>  <r_i_glide_evdw>  (1209) 
-30.8661594390869

>  <r_i_glide_gscore>  (1209) 
-5.2946481398176397

>  <r_i_glide_hbond>  (1209) 
-0.20000000000000001

>  <r_i_glide_ligand_efficiency>  (1209) 
-0.12952570120659501

>  <r_i_glide_ligand_efficiency_ln>  (1209) 
-0.95059289490522203

>  <r_i_glide_ligand_efficiency_sa>  (1209) 
-0.41545813275271898

>  <r_i_glide_lipo>  (1209) 
-1.4909668975411201

>  <r_i_glide_metal>  (1209) 
-0

>  <r_i_glide_rewards>  (1209) 
-0.71835514533660705

>  <r_lp_Energy>  (1209) 
33.473896000000003

>  <r_qp_ACxDN^.5/SA>  (1209) 
0.0110344

>  <r_qp_CIQPlogS>  (1209) 
-6.3300000000000001

>  <r_qp_EA(eV)>  (1209) 
1.3220000000000001

>  <r_qp_FISA>  (1209) 
75.739999999999995

>  <r_qp_FOSA>  (1209) 
155.98599999999999

>  <r_qp_IP(eV)>  (1209) 
8.7400000000000002

>  <r_qp_Jm>  (1209) 
0.0454245110990514

>  <r_qp_PISA>  (1209) 
447.96699999999998

>  <r_qp_PSA>  (1209) 
69.084999999999994

>  <r_qp_PercentHumanOralAbsorption>  (1209) 
100

>  <r_qp_QPPCaco>  (1209) 
472.67399999999998

>  <r_qp_QPPMDCK>  (1209) 
243.483

>  <r_qp_QPlogBB>  (1209) 
-0.20699999999999999

>  <r_qp_QPlogHERG>  (1209) 
-6.7030000000000003

>  <r_qp_QPlogKhsa>  (1209) 
0.40500000000000003

>  <r_qp_QPlogKp>  (1209) 
-2.6320000000000001

>  <r_qp_QPlogPC16>  (1209) 
14.382999999999999

>  <r_qp_QPlogPo/w>  (1209) 
3.9340000000000002

>  <r_qp_QPlogPoct>  (1209) 
21.579999999999998

>  <r_qp_QPlogPw>  (1209) 
12.004

>  <r_qp_QPlogS>  (1209) 
-4.3499999999999996

>  <r_qp_QPpolrz>  (1209) 
45.917999999999999

>  <r_qp_SASA>  (1209) 
679.69299999999998

>  <r_qp_SAamideO>  (1209) 
0

>  <r_qp_SAfluorine>  (1209) 
0

>  <r_qp_WPSA>  (1209) 
0

>  <r_qp_accptHB>  (1209) 
7.5

>  <r_qp_dip^2/V>  (1209) 
0.050987699999999997

>  <r_qp_dipole>  (1209) 
8.2119999999999997

>  <r_qp_donorHB>  (1209) 
1

>  <r_qp_glob>  (1209) 
0.85731190000000002

>  <r_qp_mol_MW>  (1209) 
435.52699999999999

>  <r_qp_volume>  (1209) 
1322.604

>  <r_sd_BIOSOLVEIT.INFINISEE\_FTREES\_SIMILARITY>  (1209) 
0.91000000000000003

>  <r_sd_BIOSOLVEIT.LOGP>  (1209) 
3.72078

>  <r_sd_BIOSOLVEIT.MOLECULAR\_WEIGHT>  (1209) 
436.536

>  <r_sd_BIOSOLVEIT.TPSA>  (1209) 
73.459999999999994

>  <i_epik_Tot_Q>  (1209) 
1

>  <i_epik_Tot_abs_Q>  (1209) 
1

>  <i_f3d_flags>  (1209) 
0

>  <i_i_glide_confnum>  (1209) 
6

>  <i_i_glide_lignum>  (1209) 
1272

>  <i_i_glide_posenum>  (1209) 
11

>  <i_i_glide_rotatable_bonds>  (1209) 
8

>  <i_lp_mmshare_version>  (1209) 
65135

>  <i_m_ct_format>  (1209) 
2

>  <i_m_source_file_index>  (1209) 
2663

>  <i_qp_#NandO>  (1209) 
6

>  <i_qp_#acid>  (1209) 
0

>  <i_qp_#amide>  (1209) 
0

>  <i_qp_#amidine>  (1209) 
0

>  <i_qp_#amine>  (1209) 
1

>  <i_qp_#in34>  (1209) 
0

>  <i_qp_#in56>  (1209) 
22

>  <i_qp_#metab>  (1209) 
7

>  <i_qp_#nonHatm>  (1209) 
33

>  <i_qp_#noncon>  (1209) 
0

>  <i_qp_#ringatoms>  (1209) 
22

>  <i_qp_#rotor>  (1209) 
8

>  <i_qp_#rtvFG>  (1209) 
0

>  <i_qp_#stars>  (1209) 
0

>  <i_qp_CNS>  (1209) 
1

>  <i_qp_HumanOralAbsorption>  (1209) 
3

>  <i_qp_RuleOfFive>  (1209) 
0

>  <i_qp_RuleOfThree>  (1209) 
1

>  <i_sd_BIOSOLVEIT.INFINISEE\_RESULT\_RANK>  (1209) 
48019

>  <i_sd_version>  (1209) 
0

>  <b_lp_Chiralities_Consistent>  (1209) 
1

>  <b_sd_chiral_flag>  (1209) 
0

>  <canonical_id>  (1209) 
ATP-HTVS-BF6C9643780C

>  <compound_code>  (1209) 
85186

>  <title>  (1209) 
rxn502b____EMOL3728885____EMOL30488121____EMOL712348

>  <variant>  (1209) 
85186-3

>  <source_file>  (1209) 
运行/运行/ATP-VSW/ATP-VSW-DOCK_HTVS_1-002_lib.maegz

>  <canonical_smiles>  (1209) 
C[NH+](C)[C@@H](C(=O)Nc1cnc2ccccc2c1N(CC#N)c1ccccc1)c1ccccc1

>  <scaffold>  (1209) 
O=C(Cc1ccccc1)Nc1cnc2ccccc2c1Nc1ccccc1

>  <molecular_formula>  (1209) 
C27H26N5O+

$$$$
ATP-HTVS-BF826A7B469A
     RDKit          3D

 58 60  0  0  0  0  0  0  0  0999 V2000
  196.3677  180.2635  153.2505 F   0  0  0  0  0  0  0  0  0  0  0  0
  196.9263  180.1850  152.0211 C   0  0  0  0  0  0  0  0  0  0  0  0
  198.2795  180.5292  151.8262 C   0  0  0  0  0  0  0  0  0  0  0  0
  198.7943  180.5732  150.5128 C   0  0  0  0  0  0  0  0  0  0  0  0
  197.9733  180.2373  149.4142 C   0  0  0  0  0  0  0  0  0  0  0  0
  196.6431  179.8193  149.6315 C   0  0  0  0  0  0  0  0  0  0  0  0
  196.1277  179.7877  150.9413 C   0  0  0  0  0  0  0  0  0  0  0  0
  199.1830  180.8772  152.9974 C   0  0  1  0  0  0  0  0  0  0  0  0
  199.9776  179.6581  153.5053 C   0  0  0  0  0  0  0  0  0  0  0  0
  201.1381  179.5366  153.0889 O   0  0  0  0  0  0  0  0  0  0  0  0
  199.3985  178.8013  154.3968 N   0  0  0  0  0  0  0  0  0  0  0  0
  200.1234  177.6478  154.8064 C   0  0  0  0  0  0  0  0  0  0  0  0
  200.3647  176.6656  153.8966 N   0  0  0  0  0  0  0  0  0  0  0  0
  201.0107  175.5504  154.2836 C   0  0  0  0  0  0  0  0  0  0  0  0
  201.4244  175.3307  155.6075 C   0  0  0  0  0  0  0  0  0  0  0  0
  201.1569  176.3269  156.5671 C   0  0  0  0  0  0  0  0  0  0  0  0
  200.5107  177.5176  156.1705 C   0  0  0  0  0  0  0  0  0  0  0  0
  200.2412  178.5032  157.1426 N   0  0  0  0  0  0  0  0  0  0  0  0
  200.9359  179.7878  157.1026 C   0  0  1  0  0  0  0  0  0  0  0  0
  200.1080  180.9805  156.6529 C   0  0  0  0  0  0  0  0  0  0  0  0
  198.6998  180.9867  156.8884 C   0  0  0  0  0  0  0  0  0  0  0  0
  197.8903  182.0053  156.3551 C   0  0  0  0  0  0  0  0  0  0  0  0
  198.4920  183.1416  155.7694 C   0  0  0  0  0  0  0  0  0  0  0  0
  199.8852  183.1879  155.6163 C   0  0  0  0  0  0  0  0  0  0  0  0
  200.6889  182.1119  156.0657 C   0  0  0  0  0  0  0  0  0  0  0  0
  196.3694  181.9224  156.5081 C   0  0  1  0  0  0  0  0  0  0  0  0
  195.9626  181.8408  157.9320 N   0  0  1  0  0  0  0  0  0  0  0  0
  196.6839  182.8176  158.7842 C   0  0  2  0  0  0  0  0  0  0  0  0
  194.4964  181.9380  158.1188 C   0  0  2  0  0  0  0  0  0  0  0  0
  198.0325  178.9038  154.9006 C   0  0  2  0  0  0  0  0  0  0  0  0
  199.8120  180.8902  150.3403 H   0  0  0  0  0  0  0  0  0  0  0  0
  198.3667  180.3005  148.4079 H   0  0  0  0  0  0  0  0  0  0  0  0
  196.0108  179.5662  148.7895 H   0  0  0  0  0  0  0  0  0  0  0  0
  195.1093  179.4750  151.1106 H   0  0  0  0  0  0  0  0  0  0  0  0
  199.8958  181.6343  152.6747 H   0  0  0  0  0  0  0  0  0  0  0  0
  198.6176  181.3521  153.7897 H   0  0  0  0  0  0  0  0  0  0  0  0
  201.1866  174.8079  153.5174 H   0  0  0  0  0  0  0  0  0  0  0  0
  201.9244  174.4230  155.8864 H   0  0  0  0  0  0  0  0  0  0  0  0
  201.4517  176.1882  157.5949 H   0  0  0  0  0  0  0  0  0  0  0  0
  199.4076  178.4038  157.7210 H   0  0  0  0  0  0  0  0  0  0  0  0
  201.2957  179.9950  158.1113 H   0  0  0  0  0  0  0  0  0  0  0  0
  201.8115  179.7126  156.4594 H   0  0  0  0  0  0  0  0  0  0  0  0
  198.2312  180.1143  157.3358 H   0  0  0  0  0  0  0  0  0  0  0  0
  197.8722  183.9490  155.3950 H   0  0  0  0  0  0  0  0  0  0  0  0
  200.3438  184.0407  155.1399 H   0  0  0  0  0  0  0  0  0  0  0  0
  201.7551  182.1330  155.8912 H   0  0  0  0  0  0  0  0  0  0  0  0
  195.9443  182.8037  156.0379 H   0  0  0  0  0  0  0  0  0  0  0  0
  195.9858  181.0650  155.9592 H   0  0  0  0  0  0  0  0  0  0  0  0
  196.4655  183.8371  158.4586 H   0  0  0  0  0  0  0  0  0  0  0  0
  197.7649  182.6878  158.7476 H   0  0  0  0  0  0  0  0  0  0  0  0
  196.4101  182.7017  159.8290 H   0  0  0  0  0  0  0  0  0  0  0  0
  194.1213  182.8956  157.7547 H   0  0  0  0  0  0  0  0  0  0  0  0
  194.2482  181.8562  159.1756 H   0  0  0  0  0  0  0  0  0  0  0  0
  193.9738  181.1401  157.5901 H   0  0  0  0  0  0  0  0  0  0  0  0
  197.8713  178.2806  155.7643 H   0  0  0  0  0  0  0  0  0  0  0  0
  197.3359  178.6069  154.1401 H   0  0  0  0  0  0  0  0  0  0  0  0
  197.8026  179.9076  155.1524 H   0  0  0  0  0  0  0  0  0  0  0  0
  196.2121  180.8978  158.2220 H   0  0  0  0  0  0  0  0  0  0  0  0
  1  2  1  0
  2  3  1  0
  2  7  2  0
  3  4  2  0
  3  8  1  0
  4  5  1  0
  4 31  1  0
  5  6  2  0
  5 32  1  0
  6  7  1  0
  6 33  1  0
  7 34  1  0
  8  9  1  0
  8 35  1  6
  8 36  1  0
  9 10  2  0
  9 11  1  0
 11 12  1  0
 11 30  1  0
 12 13  1  0
 12 17  2  0
 13 14  2  0
 14 15  1  0
 14 37  1  0
 15 16  2  0
 15 38  1  0
 16 17  1  0
 16 39  1  0
 17 18  1  0
 18 19  1  0
 18 40  1  0
 19 20  1  0
 19 41  1  1
 19 42  1  0
 20 21  2  0
 20 25  1  0
 21 22  1  0
 21 43  1  0
 22 23  2  0
 22 26  1  0
 23 24  1  0
 23 44  1  0
 24 25  2  0
 24 45  1  0
 25 46  1  0
 26 27  1  0
 26 47  1  6
 26 48  1  0
 27 28  1  0
 27 29  1  0
 27 58  1  1
 28 49  1  6
 28 50  1  0
 28 51  1  0
 29 52  1  6
 29 53  1  0
 29 54  1  0
 30 55  1  1
 30 56  1  0
 30 57  1  0
M  CHG  1  27   1
M  END
>  <s_epik_cmdline>  (1210) 
J2VwaWtfcHl0aG9uJywgJy1waCcsICc3LjAwMDAwMCcsICctcGh0JywgJzIuMDAwMDAwJywgJy1tcycsICcxNicsICctdG4nLCAnOCcsICctbWEnLCAnMjAwJywgJy1pbWFlJywgJzxpbmZpbGUubWFlPicsICctb21hZScsICc8b3V0ZmlsZS5tYWU+Jw==

>  <s_epik_input>  (1210) 
W2NIXTFbY0hdW2NIXVtjSF1jKGMxRilbQ0gyXUMoPU8pTihbQ0gzXSljMm5bY0hdW2NIXVtjSF1jMltOSF1bQ0gyXWMzW2NIXWMoW2NIXVtjSF1bY0hdMylbQ0gyXU4oW0NIM10pW0NIM10=

>  <s_i_glide_gridfile>  (1210) 
ATP-Grid

>  <s_lp_Force_Field>  (1210) 
OPLS_2005

>  <s_lp_Variant>  (1210) 
rxn502a____EMOL488417____EMOL45980405____EMOL2873214-1

>  <s_lp_label>  (1210) 
2796_sdstereoexpander_1_neutralizer_1_epik_1_stereoizer_1

>  <s_m_source_file>  (1210) 
ATP-VSW-LIGPREP-002-in.maegz

>  <s_sd_BIOSOLVEIT.INFINISEE\_QUERY\_NAME>  (1210) 
Ref-Lig

>  <s_sd_BIOSOLVEIT.INFINISEE\_QUERY\_SMILES>  (1210) 
S(c1nc2c(cc1C[NH2+]Cc3ccc(cc3)C[NH+](C)C)cccc2)Cc4ccccc4

>  <s_sd_BIOSOLVEIT.INFINISEE\_REACTION\_NAME>  (1210) 
rxn502a

>  <s_sd_BIOSOLVEIT.INFINISEE\_REAGENT1\_NAME>  (1210) 
EMOL488417

>  <s_sd_BIOSOLVEIT.INFINISEE\_REAGENT1\_SMILES>  (1210) 
Fc1c(cccc1)CC(=O)O

>  <s_sd_BIOSOLVEIT.INFINISEE\_REAGENT2\_NAME>  (1210) 
EMOL45980405

>  <s_sd_BIOSOLVEIT.INFINISEE\_REAGENT2\_SMILES>  (1210) 
Ic1c(nccc1)NC

>  <s_sd_BIOSOLVEIT.INFINISEE\_REAGENT3\_NAME>  (1210) 
EMOL2873214

>  <s_sd_BIOSOLVEIT.INFINISEE\_REAGENT3\_SMILES>  (1210) 
N(Cc1cc(ccc1)CN)(C)C

>  <s_sd_BIOSOLVEIT.INFINISEE\_SPACE>  (1210) 
eXplore_7tr_2022-12

>  <s_vsw_compound_code>  (1210) 
89442

>  <s_vsw_variant>  (1210) 
89442-1

>  <r_epik_Charging_Adjusted_Penalty>  (1210) 
0.100995747078099

>  <r_epik_Ionization_Penalty>  (1210) 
0.056899999999999999

>  <r_epik_Ionization_Penalty_Charging>  (1210) 
0.0441

>  <r_epik_Ionization_Penalty_Neutral>  (1210) 
0.012800000000000001

>  <r_epik_State_Penalty>  (1210) 
0.056899999999999999

>  <r_i_docking_score>  (1210) 
-4.6887042014270897

>  <r_i_glide_ecoul>  (1210) 
-10.2683296203613

>  <r_i_glide_eff_state_penalty>  (1210) 
0.056899999999999999

>  <r_i_glide_einternal>  (1210) 
16.575973510742202

>  <r_i_glide_emodel>  (1210) 
-49.7433137792273

>  <r_i_glide_energy>  (1210) 
-39.6723728179932

>  <r_i_glide_erotb>  (1210) 
0.82926495238963205

>  <r_i_glide_esite>  (1210) 
-0.17970179945293199

>  <r_i_glide_evdw>  (1210) 
-29.4040431976318

>  <r_i_glide_gscore>  (1210) 
-4.7456042014270903

>  <r_i_glide_hbond>  (1210) 
-0.282379830927452

>  <r_i_glide_ligand_efficiency>  (1210) 
-0.15629014004757

>  <r_i_glide_ligand_efficiency_ln>  (1210) 
-1.0653246820883

>  <r_i_glide_ligand_efficiency_sa>  (1210) 
-0.48562980296531499

>  <r_i_glide_lipo>  (1210) 
-1.1539232759446201

>  <r_i_glide_metal>  (1210) 
-0

>  <r_i_glide_rewards>  (1210) 
-0.948412644555927

>  <r_lp_Energy>  (1210) 
31.312218000000001

>  <r_lp_tautomer_probability>  (1210) 
0.999999999999999

>  <r_qp_ACxDN^.5/SA>  (1210) 
0.0112405

>  <r_qp_CIQPlogS>  (1210) 
-4.7060000000000004

>  <r_qp_EA(eV)>  (1210) 
0.191

>  <r_qp_FISA>  (1210) 
51.801000000000002

>  <r_qp_FOSA>  (1210) 
240.47300000000001

>  <r_qp_IP(eV)>  (1210) 
8.3539999999999992

>  <r_qp_Jm>  (1210) 
1.8494389956189701

>  <r_qp_PISA>  (1210) 
307.09899999999999

>  <r_qp_PSA>  (1210) 
54.037999999999997

>  <r_qp_PercentHumanOralAbsorption>  (1210) 
100

>  <r_qp_QPPCaco>  (1210) 
797.20299999999997

>  <r_qp_QPPMDCK>  (1210) 
575.30600000000004

>  <r_qp_QPlogBB>  (1210) 
0.106

>  <r_qp_QPlogHERG>  (1210) 
-5.423

>  <r_qp_QPlogKhsa>  (1210) 
0.29999999999999999

>  <r_qp_QPlogKp>  (1210) 
-2.6869999999999998

>  <r_qp_QPlogPC16>  (1210) 
12.379

>  <r_qp_QPlogPo/w>  (1210) 
3.7189999999999999

>  <r_qp_QPlogPoct>  (1210) 
19.404

>  <r_qp_QPlogPw>  (1210) 
10.262

>  <r_qp_QPlogS>  (1210) 
-2.6549999999999998

>  <r_qp_QPpolrz>  (1210) 
41.152999999999999

>  <r_qp_SASA>  (1210) 
622.75099999999998

>  <r_qp_SAamideO>  (1210) 
0

>  <r_qp_SAfluorine>  (1210) 
23.376999999999999

>  <r_qp_WPSA>  (1210) 
23.376999999999999

>  <r_qp_accptHB>  (1210) 
7

>  <r_qp_dip^2/V>  (1210) 
0.043324599999999998

>  <r_qp_dipole>  (1210) 
7.3209999999999997

>  <r_qp_donorHB>  (1210) 
1

>  <r_qp_glob>  (1210) 
0.89494810000000002

>  <r_qp_mol_MW>  (1210) 
406.50200000000001

>  <r_qp_volume>  (1210) 
1237.145

>  <r_sd_BIOSOLVEIT.INFINISEE\_FTREES\_SIMILARITY>  (1210) 
0.90600000000000003

>  <r_sd_BIOSOLVEIT.LOGP>  (1210) 
2.6827999999999999

>  <r_sd_BIOSOLVEIT.MOLECULAR\_WEIGHT>  (1210) 
407.50999999999999

>  <r_sd_BIOSOLVEIT.TPSA>  (1210) 
49.670000000000002

>  <i_epik_Tot_Q>  (1210) 
1

>  <i_epik_Tot_abs_Q>  (1210) 
1

>  <i_f3d_flags>  (1210) 
0

>  <i_i_glide_confnum>  (1210) 
7

>  <i_i_glide_lignum>  (1210) 
1353

>  <i_i_glide_posenum>  (1210) 
8

>  <i_i_glide_rotatable_bonds>  (1210) 
9

>  <i_lp_mmshare_version>  (1210) 
65135

>  <i_m_ct_format>  (1210) 
2

>  <i_m_source_file_index>  (1210) 
2796

>  <i_qp_#NandO>  (1210) 
5

>  <i_qp_#acid>  (1210) 
0

>  <i_qp_#amide>  (1210) 
0

>  <i_qp_#amidine>  (1210) 
0

>  <i_qp_#amine>  (1210) 
1

>  <i_qp_#in34>  (1210) 
0

>  <i_qp_#in56>  (1210) 
18

>  <i_qp_#metab>  (1210) 
9

>  <i_qp_#nonHatm>  (1210) 
30

>  <i_qp_#noncon>  (1210) 
0

>  <i_qp_#ringatoms>  (1210) 
18

>  <i_qp_#rotor>  (1210) 
8

>  <i_qp_#rtvFG>  (1210) 
0

>  <i_qp_#stars>  (1210) 
1

>  <i_qp_CNS>  (1210) 
1

>  <i_qp_HumanOralAbsorption>  (1210) 
3

>  <i_qp_RuleOfFive>  (1210) 
0

>  <i_qp_RuleOfThree>  (1210) 
1

>  <i_sd_BIOSOLVEIT.INFINISEE\_RESULT\_RANK>  (1210) 
63335

>  <i_sd_version>  (1210) 
0

>  <b_lp_Chiralities_Consistent>  (1210) 
1

>  <b_sd_chiral_flag>  (1210) 
0

>  <canonical_id>  (1210) 
ATP-HTVS-BF826A7B469A

>  <compound_code>  (1210) 
89442

>  <title>  (1210) 
rxn502a____EMOL488417____EMOL45980405____EMOL2873214

>  <variant>  (1210) 
89442-1

>  <source_file>  (1210) 
运行/运行/ATP-VSW/ATP-VSW-DOCK_HTVS_1-002_lib.maegz

>  <canonical_smiles>  (1210) 
CN(C(=O)Cc1ccccc1F)c1ncccc1NCc1cccc(C[NH+](C)C)c1

>  <scaffold>  (1210) 
O=C(Cc1ccccc1)Nc1ncccc1NCc1ccccc1

>  <molecular_formula>  (1210) 
C24H28FN4O+

$$$$
ATP-HTVS-BF8F947D0493
     RDKit          3D

 45 48  0  0  0  0  0  0  0  0999 V2000
  193.6223  187.0209  161.3716 I   0  0  0  0  0  0  0  0  0  0  0  0
  194.8533  185.7193  160.3309 C   0  0  0  0  0  0  0  0  0  0  0  0
  194.3261  184.5121  159.8197 C   0  0  0  0  0  0  0  0  0  0  0  0
  195.1473  183.6083  159.1238 C   0  0  0  0  0  0  0  0  0  0  0  0
  194.4669  182.1060  158.5493 Cl  0  0  0  0  0  0  0  0  0  0  0  0
  196.4962  183.9160  158.9254 C   0  0  0  0  0  0  0  0  0  0  0  0
  197.0283  185.1289  159.4308 C   0  0  0  0  0  0  0  0  0  0  0  0
  196.2125  186.0336  160.1367 C   0  0  0  0  0  0  0  0  0  0  0  0
  197.3455  182.9252  158.2487 C   0  0  1  0  0  0  0  0  0  0  0  0
  197.2276  182.7855  156.7889 N   0  0  0  0  0  0  0  0  0  0  0  0
  197.8169  181.5123  156.3477 C   0  0  1  0  0  0  0  0  0  0  0  0
  197.6415  181.2576  154.8316 C   0  0  0  0  0  0  0  0  0  0  0  0
  198.3663  182.0355  153.8918 C   0  0  0  0  0  0  0  0  0  0  0  0
  199.1976  183.1083  154.2743 N   0  0  0  0  0  0  0  0  0  0  0  0
  198.8882  184.0405  155.1659 C   0  0  0  0  0  0  0  0  0  0  0  0
  199.7301  184.9060  155.5122 O   0  0  0  0  0  0  0  0  0  0  0  0
  197.5231  183.9780  155.9352 C   0  0  1  0  0  0  0  0  0  0  0  0
  198.3309  181.7146  152.5325 C   0  0  0  0  0  0  0  0  0  0  0  0
  197.4824  180.6987  152.0649 C   0  0  0  0  0  0  0  0  0  0  0  0
  196.6905  179.9668  152.9721 C   0  0  0  0  0  0  0  0  0  0  0  0
  196.7713  180.2456  154.3561 C   0  0  0  0  0  0  0  0  0  0  0  0
  199.2750  181.3122  156.7560 C   0  0  0  0  0  0  0  0  0  0  0  0
  199.9171  180.0704  156.5606 C   0  0  0  0  0  0  0  0  0  0  0  0
  201.2880  179.9631  156.9052 C   0  0  0  0  0  0  0  0  0  0  0  0
  202.0324  181.0401  157.4624 C   0  0  0  0  0  0  0  0  0  0  0  0
  201.3765  182.2755  157.6684 C   0  0  0  0  0  0  0  0  0  0  0  0
  200.0754  182.3674  157.3288 C   0  0  0  0  0  0  0  0  0  0  0  0
  193.2691  184.2574  159.9749 H   0  0  0  0  0  0  0  0  0  0  0  0
  198.0694  185.3758  159.3032 H   0  0  0  0  0  0  0  0  0  0  0  0
  196.6373  186.9558  160.5201 H   0  0  0  0  0  0  0  0  0  0  0  0
  198.3055  183.3908  158.5633 H   0  0  0  0  0  0  0  0  0  0  0  0
  197.3836  181.9909  158.7624 H   0  0  0  0  0  0  0  0  0  0  0  0
  197.2348  180.7127  156.8442 H   0  0  0  0  0  0  0  0  0  0  0  0
  200.1097  183.1484  153.8740 H   0  0  0  0  0  0  0  0  0  0  0  0
  196.7873  184.0378  155.1217 H   0  0  0  0  0  0  0  0  0  0  0  0
  197.3979  184.8949  156.5117 H   0  0  0  0  0  0  0  0  0  0  0  0
  198.9342  182.2800  151.8408 H   0  0  0  0  0  0  0  0  0  0  0  0
  197.4348  180.4932  150.9972 H   0  0  0  0  0  0  0  0  0  0  0  0
  196.0330  179.2011  152.5983 H   0  0  0  0  0  0  0  0  0  0  0  0
  196.1735  179.6584  155.0385 H   0  0  0  0  0  0  0  0  0  0  0  0
  199.3752  179.2514  156.1225 H   0  0  0  0  0  0  0  0  0  0  0  0
  201.8122  179.0011  156.7303 H   0  0  0  0  0  0  0  0  0  0  0  0
  203.0751  180.9724  157.7198 H   0  0  0  0  0  0  0  0  0  0  0  0
  201.8575  183.1451  158.0534 H   0  0  0  0  0  0  0  0  0  0  0  0
  199.7375  183.3837  157.4401 H   0  0  0  0  0  0  0  0  0  0  0  0
  1  2  1  0
  2  3  2  0
  2  8  1  0
  3  4  1  0
  3 28  1  0
  4  5  1  0
  4  6  2  0
  6  7  1  0
  6  9  1  0
  7  8  2  0
  7 29  1  0
  8 30  1  0
  9 10  1  0
  9 31  1  6
  9 32  1  0
 10 11  1  0
 10 17  1  0
 11 12  1  0
 11 22  1  0
 11 33  1  1
 12 13  1  0
 12 21  2  0
 13 14  1  0
 13 18  2  0
 14 15  1  0
 14 34  1  0
 15 16  2  0
 15 17  1  0
 17 35  1  6
 17 36  1  0
 18 19  1  0
 18 37  1  0
 19 20  2  0
 19 38  1  0
 20 21  1  0
 20 39  1  0
 21 40  1  0
 22 23  2  0
 22 27  1  0
 23 24  1  0
 23 41  1  0
 24 25  2  0
 24 42  1  0
 25 26  1  0
 25 43  1  0
 26 27  2  0
 26 44  1  0
 27 45  1  0
M  END
>  <s_epik_cmdline>  (1211) 
J2VwaWtfcHl0aG9uJywgJy1waCcsICc3LjAwMDAwMCcsICctcGh0JywgJzIuMDAwMDAwJywgJy1tcycsICcxNicsICctdG4nLCAnOCcsICctbWEnLCAnMjAwJywgJy1pbWFlJywgJzxpbmZpbGUubWFlPicsICctb21hZScsICc8b3V0ZmlsZS5tYWU+Jw==

>  <s_epik_input>  (1211) 
W2NIXTFbY0hdW2NIXVtjSF1bY0hdYzFbQ0BIXTJOKFtDSDJdYyhbY0hdW2NIXTMpYyhDbClbY0hdYzNJKVtDSDJdQyg9TylbTkhdYyhjMjQpW2NIXVtjSF1bY0hdW2NIXTQ=

>  <s_i_glide_gridfile>  (1211) 
ATP-Grid

>  <s_lp_Force_Field>  (1211) 
OPLS_2005

>  <s_lp_Variant>  (1211) 
m_270004bda____24170338____9819920-1

>  <s_lp_label>  (1211) 
1066_sdstereoexpander_1_neutralizer_1_epik_1_stereoizer_1

>  <s_m_source_file>  (1211) 
ATP-VSW-LIGPREP-002-in.maegz

>  <s_sd_BIOSOLVEIT.INFINISEE\_QUERY\_NAME>  (1211) 
Ref-Lig

>  <s_sd_BIOSOLVEIT.INFINISEE\_QUERY\_SMILES>  (1211) 
S(c1nc2c(cc1C[NH2+]Cc3ccc(cc3)C[NH+](C)C)cccc2)Cc4ccccc4

>  <s_sd_BIOSOLVEIT.INFINISEE\_REACTION\_NAME>  (1211) 
m_270004bda

>  <s_sd_BIOSOLVEIT.INFINISEE\_REAGENT1\_SMILES>  (1211) 
[R1*]N1C(c2c(NC(=O)C1)cccc2)c3ccccc3

>  <s_sd_BIOSOLVEIT.INFINISEE\_REAGENT2\_SMILES>  (1211) 
[R1*]Cc1c(Cl)cc(I)cc1

>  <s_sd_BIOSOLVEIT.INFINISEE\_SPACE>  (1211) 
REALSpace_44bn_2023-08

>  <s_vsw_compound_code>  (1211) 
34082

>  <s_vsw_variant>  (1211) 
34082-1

>  <r_epik_Charging_Adjusted_Penalty>  (1211) 
0.0087634984339075902

>  <r_epik_Ionization_Penalty>  (1211) 
0.0088000000000000005

>  <r_epik_Ionization_Penalty_Charging>  (1211) 
0

>  <r_epik_Ionization_Penalty_Neutral>  (1211) 
0.0088000000000000005

>  <r_epik_State_Penalty>  (1211) 
0.0088000000000000005

>  <r_i_docking_score>  (1211) 
-1.2388653496181801

>  <r_i_glide_ecoul>  (1211) 
-0.95531952381134

>  <r_i_glide_eff_state_penalty>  (1211) 
0.0088000000000000005

>  <r_i_glide_einternal>  (1211) 
1.7322013378143299

>  <r_i_glide_emodel>  (1211) 
-38.171567557831601

>  <r_i_glide_energy>  (1211) 
-36.187153935432399

>  <r_i_glide_erotb>  (1211) 
0.25543030938705602

>  <r_i_glide_esite>  (1211) 
-0.000221875768930862

>  <r_i_glide_evdw>  (1211) 
-35.231834411621101

>  <r_i_glide_gscore>  (1211) 
-1.24766534961818

>  <r_i_glide_hbond>  (1211) 
0

>  <r_i_glide_ligand_efficiency>  (1211) 
-0.045883901837710302

>  <r_i_glide_ligand_efficiency_ln>  (1211) 
-0.28838742909957799

>  <r_i_glide_ligand_efficiency_sa>  (1211) 
-0.13765170536190499

>  <r_i_glide_lipo>  (1211) 
-1.4469656341963799

>  <r_i_glide_metal>  (1211) 
-0

>  <r_i_glide_rewards>  (1211) 
1.84898150011283

>  <r_lp_Energy>  (1211) 
37.707487

>  <r_qp_ACxDN^.5/SA>  (1211) 
0.0069835000000000001

>  <r_qp_CIQPlogS>  (1211) 
-7.2859999999999996

>  <r_qp_EA(eV)>  (1211) 
0.996

>  <r_qp_FISA>  (1211) 
60.466999999999999

>  <r_qp_FOSA>  (1211) 
42.012999999999998

>  <r_qp_IP(eV)>  (1211) 
9.1210000000000004

>  <r_qp_Jm>  (1211) 
0.0017825192475203

>  <r_qp_PISA>  (1211) 
412.59399999999999

>  <r_qp_PSA>  (1211) 
39.545999999999999

>  <r_qp_PercentHumanOralAbsorption>  (1211) 
100

>  <r_qp_QPPCaco>  (1211) 
659.76599999999996

>  <r_qp_QPPMDCK>  (1211) 
1783.8019999999999

>  <r_qp_QPlogBB>  (1211) 
0.57699999999999996

>  <r_qp_QPlogHERG>  (1211) 
-6.9390000000000001

>  <r_qp_QPlogKhsa>  (1211) 
0.83799999999999997

>  <r_qp_QPlogKp>  (1211) 
-3.0510000000000002

>  <r_qp_QPlogPC16>  (1211) 
13.539

>  <r_qp_QPlogPo/w>  (1211) 
4.7629999999999999

>  <r_qp_QPlogPoct>  (1211) 
19.337

>  <r_qp_QPlogPw>  (1211) 
9.9890000000000008

>  <r_qp_QPlogS>  (1211) 
-5.3869999999999996

>  <r_qp_QPpolrz>  (1211) 
43.238999999999997

>  <r_qp_SASA>  (1211) 
644.38

>  <r_qp_SAamideO>  (1211) 
0

>  <r_qp_SAfluorine>  (1211) 
0

>  <r_qp_WPSA>  (1211) 
129.30500000000001

>  <r_qp_accptHB>  (1211) 
4.5

>  <r_qp_dip^2/V>  (1211) 
0.033737799999999998

>  <r_qp_dipole>  (1211) 
6.2770000000000001

>  <r_qp_donorHB>  (1211) 
1

>  <r_qp_glob>  (1211) 
0.83229280000000005

>  <r_qp_mol_MW>  (1211) 
488.75400000000002

>  <r_qp_volume>  (1211) 
1167.8309999999999

>  <r_sd_BIOSOLVEIT.INFINISEE\_FTREES\_SIMILARITY>  (1211) 
0.91400000000000003

>  <r_sd_BIOSOLVEIT.LOGP>  (1211) 
4.0712000000000002

>  <r_sd_BIOSOLVEIT.MOLECULAR\_WEIGHT>  (1211) 
489.75799999999998

>  <r_sd_BIOSOLVEIT.TPSA>  (1211) 
33.539999999999999

>  <i_epik_Tot_Q>  (1211) 
0

>  <i_epik_Tot_abs_Q>  (1211) 
0

>  <i_f3d_flags>  (1211) 
0

>  <i_i_glide_confnum>  (1211) 
5

>  <i_i_glide_lignum>  (1211) 
343

>  <i_i_glide_posenum>  (1211) 
1

>  <i_i_glide_rotatable_bonds>  (1211) 
3

>  <i_lp_mmshare_version>  (1211) 
65135

>  <i_m_ct_format>  (1211) 
2

>  <i_m_source_file_index>  (1211) 
1066

>  <i_qp_#NandO>  (1211) 
3

>  <i_qp_#acid>  (1211) 
0

>  <i_qp_#amide>  (1211) 
0

>  <i_qp_#amidine>  (1211) 
0

>  <i_qp_#amine>  (1211) 
1

>  <i_qp_#in34>  (1211) 
0

>  <i_qp_#in56>  (1211) 
18

>  <i_qp_#metab>  (1211) 
7

>  <i_qp_#nonHatm>  (1211) 
27

>  <i_qp_#noncon>  (1211) 
2

>  <i_qp_#ringatoms>  (1211) 
23

>  <i_qp_#rotor>  (1211) 
2

>  <i_qp_#rtvFG>  (1211) 
0

>  <i_qp_#stars>  (1211) 
0

>  <i_qp_CNS>  (1211) 
2

>  <i_qp_HumanOralAbsorption>  (1211) 
3

>  <i_qp_RuleOfFive>  (1211) 
0

>  <i_qp_RuleOfThree>  (1211) 
1

>  <i_sd_BIOSOLVEIT.INFINISEE\_REAGENT1\_NAME>  (1211) 
24170338

>  <i_sd_BIOSOLVEIT.INFINISEE\_REAGENT2\_NAME>  (1211) 
9819920

>  <i_sd_BIOSOLVEIT.INFINISEE\_RESULT\_RANK>  (1211) 
30878

>  <i_sd_version>  (1211) 
0

>  <b_lp_Chiralities_Consistent>  (1211) 
1

>  <b_sd_chiral_flag>  (1211) 
0

>  <canonical_id>  (1211) 
ATP-HTVS-BF8F947D0493

>  <compound_code>  (1211) 
34082

>  <title>  (1211) 
m_270004bda____24170338____9819920

>  <variant>  (1211) 
34082-1

>  <source_file>  (1211) 
运行/运行/ATP-VSW/ATP-VSW-DOCK_HTVS_1-002_lib.maegz

>  <canonical_smiles>  (1211) 
O=C1CN(Cc2ccc(I)cc2Cl)[C@H](c2ccccc2)c2ccccc2N1

>  <scaffold>  (1211) 
O=C1CN(Cc2ccccc2)C(c2ccccc2)c2ccccc2N1

>  <molecular_formula>  (1211) 
C22H18ClIN2O

$$$$
ATP-HTVS-BFC0901B6A3C
     RDKit          3D

 54 57  0  0  0  0  0  0  0  0999 V2000
  197.5961  181.9563  158.0625 O   0  0  0  0  0  0  0  0  0  0  0  0
  196.7772  181.9109  157.1593 C   0  0  0  0  0  0  0  0  0  0  0  0
  195.5237  182.2954  157.3710 N   0  0  0  0  0  0  0  0  0  0  0  0
  194.9889  182.7317  158.6459 C   0  0  1  0  0  0  0  0  0  0  0  0
  195.5084  184.0782  159.1410 C   0  0  0  0  0  0  0  0  0  0  0  0
  194.6895  184.8247  160.0267 C   0  0  0  0  0  0  0  0  0  0  0  0
  195.1466  186.0547  160.5640 C   0  0  0  0  0  0  0  0  0  0  0  0
  194.3477  186.8010  161.4466 N   0  0  0  0  0  0  0  0  0  0  0  0
  192.9169  186.5129  161.5310 C   0  0  2  0  0  0  0  0  0  0  0  0
  196.4378  186.5296  160.2033 C   0  0  0  0  0  0  0  0  0  0  0  0
  197.2371  185.7733  159.3075 C   0  0  0  0  0  0  0  0  0  0  0  0
  196.7854  184.5660  158.7555 C   0  0  0  0  0  0  0  0  0  0  0  0
  197.1147  181.4140  155.8026 C   0  0  0  0  0  0  0  0  0  0  0  0
  196.3633  181.8181  154.7051 N   0  0  0  0  0  0  0  0  0  0  0  0
  196.7948  181.2008  153.5397 C   0  0  0  0  0  0  0  0  0  0  0  0
  197.9105  180.3930  153.9182 C   0  0  0  0  0  0  0  0  0  0  0  0
  198.5521  179.6395  152.8958 C   0  0  0  0  0  0  0  0  0  0  0  0
  198.0659  179.6600  151.5750 C   0  0  0  0  0  0  0  0  0  0  0  0
  196.9642  180.4687  151.2181 C   0  0  0  0  0  0  0  0  0  0  0  0
  196.3424  181.2611  152.2046 C   0  0  0  0  0  0  0  0  0  0  0  0
  198.1119  180.5721  155.3363 C   0  0  0  0  0  0  0  0  0  0  0  0
  199.1649  179.9309  156.0309 N   0  0  0  0  0  0  0  0  0  0  0  0
  200.2073  180.5789  156.7407 C   0  0  0  0  0  0  0  0  0  0  0  0
  201.2883  179.8652  157.3268 C   0  0  0  0  0  0  0  0  0  0  0  0
  202.3079  180.5372  158.0329 C   0  0  0  0  0  0  0  0  0  0  0  0
  202.2687  181.9383  158.1790 C   0  0  0  0  0  0  0  0  0  0  0  0
  201.2061  182.6616  157.6082 C   0  0  0  0  0  0  0  0  0  0  0  0
  200.1971  181.9927  156.8912 C   0  0  0  0  0  0  0  0  0  0  0  0
  199.0685  178.4675  156.1365 C   0  0  1  0  0  0  0  0  0  0  0  0
  199.8143  177.7719  155.0785 C   0  0  0  0  0  0  0  0  0  0  0  0
  200.4025  177.2276  154.2389 N   0  0  0  0  0  0  0  0  0  0  0  0
  194.8669  182.2712  156.5939 H   0  0  0  0  0  0  0  0  0  0  0  0
  193.9023  182.7499  158.5240 H   0  0  0  0  0  0  0  0  0  0  0  0
  195.2011  181.9393  159.3714 H   0  0  0  0  0  0  0  0  0  0  0  0
  193.7113  184.4331  160.2789 H   0  0  0  0  0  0  0  0  0  0  0  0
  194.7009  187.6951  161.7687 H   0  0  0  0  0  0  0  0  0  0  0  0
  192.4291  187.2564  162.1505 H   0  0  0  0  0  0  0  0  0  0  0  0
  192.7529  185.5347  161.9786 H   0  0  0  0  0  0  0  0  0  0  0  0
  192.4612  186.5172  160.5405 H   0  0  0  0  0  0  0  0  0  0  0  0
  196.8136  187.4761  160.5946 H   0  0  0  0  0  0  0  0  0  0  0  0
  198.2136  186.1265  159.0515 H   0  0  0  0  0  0  0  0  0  0  0  0
  197.4335  184.0409  158.0867 H   0  0  0  0  0  0  0  0  0  0  0  0
  195.5833  182.4757  154.7588 H   0  0  0  0  0  0  0  0  0  0  0  0
  199.4216  179.0469  153.1267 H   0  0  0  0  0  0  0  0  0  0  0  0
  198.5682  179.0663  150.8318 H   0  0  0  0  0  0  0  0  0  0  0  0
  196.6217  180.4987  150.1890 H   0  0  0  0  0  0  0  0  0  0  0  0
  195.5050  181.9005  151.9537 H   0  0  0  0  0  0  0  0  0  0  0  0
  201.3674  178.7905  157.2515 H   0  0  0  0  0  0  0  0  0  0  0  0
  203.1273  179.9700  158.4542 H   0  0  0  0  0  0  0  0  0  0  0  0
  203.0487  182.4538  158.7242 H   0  0  0  0  0  0  0  0  0  0  0  0
  201.1521  183.7342  157.7309 H   0  0  0  0  0  0  0  0  0  0  0  0
  199.4061  182.5970  156.4624 H   0  0  0  0  0  0  0  0  0  0  0  0
  199.4414  178.0834  157.0883 H   0  0  0  0  0  0  0  0  0  0  0  0
  198.0270  178.1484  156.0924 H   0  0  0  0  0  0  0  0  0  0  0  0
  1  2  2  0
  2  3  1  0
  2 13  1  0
  3  4  1  0
  3 32  1  0
  4  5  1  0
  4 33  1  6
  4 34  1  0
  5  6  1  0
  5 12  2  0
  6  7  2  0
  6 35  1  0
  7  8  1  0
  7 10  1  0
  8  9  1  0
  8 36  1  0
  9 37  1  1
  9 38  1  0
  9 39  1  0
 10 11  2  0
 10 40  1  0
 11 12  1  0
 11 41  1  0
 12 42  1  0
 13 14  1  0
 13 21  2  0
 14 15  1  0
 14 43  1  0
 15 16  1  0
 15 20  2  0
 16 17  2  0
 16 21  1  0
 17 18  1  0
 17 44  1  0
 18 19  2  0
 18 45  1  0
 19 20  1  0
 19 46  1  0
 20 47  1  0
 21 22  1  0
 22 23  1  0
 22 29  1  0
 23 24  2  0
 23 28  1  0
 24 25  1  0
 24 48  1  0
 25 26  2  0
 25 49  1  0
 26 27  1  0
 26 50  1  0
 27 28  2  0
 27 51  1  0
 28 52  1  0
 29 30  1  0
 29 53  1  1
 29 54  1  0
 30 31  3  0
M  END
>  <s_epik_cmdline>  (1212) 
J2VwaWtfcHl0aG9uJywgJy1waCcsICc3LjAwMDAwMCcsICctcGh0JywgJzIuMDAwMDAwJywgJy1tcycsICcxNicsICctdG4nLCAnOCcsICctbWEnLCAnMjAwJywgJy1pbWFlJywgJzxpbmZpbGUubWFlPicsICctb21hZScsICc8b3V0ZmlsZS5tYWU+Jw==

>  <s_epik_input>  (1212) 
W2NIXTFbY0hdW2NIXWMoW05IXVtDSDNdKVtjSF1jMVtDSDJdW05IXUMoPU8pYyhbbkhdMiljKGMoYzIzKVtjSF1bY0hdW2NIXVtjSF0zKU4oW0NIMl1DI04pYzRbY0hdW2NIXVtjSF1bY0hdW2NIXTQ=

>  <s_i_glide_gridfile>  (1212) 
ATP-Grid

>  <s_lp_Force_Field>  (1212) 
OPLS_2005

>  <s_lp_Variant>  (1212) 
rxn512b____EMOL45491381____EMOL719673____EMOL712348-1

>  <s_lp_label>  (1212) 
2405_sdstereoexpander_1_neutralizer_1_epik_1_stereoizer_1

>  <s_m_source_file>  (1212) 
ATP-VSW-LIGPREP-002-in.maegz

>  <s_sd_BIOSOLVEIT.INFINISEE\_QUERY\_NAME>  (1212) 
Ref-Lig

>  <s_sd_BIOSOLVEIT.INFINISEE\_QUERY\_SMILES>  (1212) 
S(c1nc2c(cc1C[NH2+]Cc3ccc(cc3)C[NH+](C)C)cccc2)Cc4ccccc4

>  <s_sd_BIOSOLVEIT.INFINISEE\_REACTION\_NAME>  (1212) 
rxn512b

>  <s_sd_BIOSOLVEIT.INFINISEE\_REAGENT1\_NAME>  (1212) 
EMOL45491381

>  <s_sd_BIOSOLVEIT.INFINISEE\_REAGENT1\_SMILES>  (1212) 
N(c1cc(ccc1)CN)C

>  <s_sd_BIOSOLVEIT.INFINISEE\_REAGENT2\_NAME>  (1212) 
EMOL719673

>  <s_sd_BIOSOLVEIT.INFINISEE\_REAGENT2\_SMILES>  (1212) 
BrC=1c2c(NC1C(=O)O)cccc2

>  <s_sd_BIOSOLVEIT.INFINISEE\_REAGENT3\_NAME>  (1212) 
EMOL712348

>  <s_sd_BIOSOLVEIT.INFINISEE\_REAGENT3\_SMILES>  (1212) 
N#CCNc1ccccc1

>  <s_sd_BIOSOLVEIT.INFINISEE\_SPACE>  (1212) 
eXplore_7tr_2022-12

>  <s_vsw_compound_code>  (1212) 
76930

>  <s_vsw_variant>  (1212) 
76930-1

>  <r_epik_Charging_Adjusted_Penalty>  (1212) 
0.0033558195756177201

>  <r_epik_Ionization_Penalty>  (1212) 
0.0033999999999999998

>  <r_epik_Ionization_Penalty_Charging>  (1212) 
0

>  <r_epik_Ionization_Penalty_Neutral>  (1212) 
0.0033999999999999998

>  <r_epik_State_Penalty>  (1212) 
0.0033999999999999998

>  <r_i_docking_score>  (1212) 
-4.9605139914144702

>  <r_i_glide_ecoul>  (1212) 
-7.5107288360595703

>  <r_i_glide_eff_state_penalty>  (1212) 
0.0033999999999999998

>  <r_i_glide_einternal>  (1212) 
4.5172300338745099

>  <r_i_glide_emodel>  (1212) 
-55.913605078761499

>  <r_i_glide_energy>  (1212) 
-42.6528644561768

>  <r_i_glide_erotb>  (1212) 
0.70461473777027395

>  <r_i_glide_esite>  (1212) 
-0.32017331753485301

>  <r_i_glide_evdw>  (1212) 
-35.142135620117202

>  <r_i_glide_gscore>  (1212) 
-4.9639139914144703

>  <r_i_glide_hbond>  (1212) 
-0.30569308725879901

>  <r_i_glide_ligand_efficiency>  (1212) 
-0.16001658036820901

>  <r_i_glide_ligand_efficiency_ln>  (1212) 
-1.1187479265607101

>  <r_i_glide_ligand_efficiency_sa>  (1212) 
-0.50267298905513202

>  <r_i_glide_lipo>  (1212) 
-1.5417849907035699

>  <r_i_glide_metal>  (1212) 
-0

>  <r_i_glide_rewards>  (1212) 
-0.61716122727272604

>  <r_lp_Energy>  (1212) 
22.833738

>  <r_qp_ACxDN^.5/SA>  (1212) 
0.0130983

>  <r_qp_CIQPlogS>  (1212) 
-7.4290000000000003

>  <r_qp_EA(eV)>  (1212) 
0.69499999999999995

>  <r_qp_FISA>  (1212) 
133.50999999999999

>  <r_qp_FOSA>  (1212) 
154.82400000000001

>  <r_qp_IP(eV)>  (1212) 
8.1980000000000004

>  <r_qp_Jm>  (1212) 
0.0010588997069850099

>  <r_qp_PISA>  (1212) 
438.95999999999998

>  <r_qp_PSA>  (1212) 
88.311999999999998

>  <r_qp_PercentHumanOralAbsorption>  (1212) 
100

>  <r_qp_QPPCaco>  (1212) 
536.82000000000005

>  <r_qp_QPPMDCK>  (1212) 
252.53800000000001

>  <r_qp_QPlogBB>  (1212) 
-1.3029999999999999

>  <r_qp_QPlogHERG>  (1212) 
-6.8289999999999997

>  <r_qp_QPlogKhsa>  (1212) 
0.66600000000000004

>  <r_qp_QPlogKp>  (1212) 
-1.6659999999999999

>  <r_qp_QPlogPC16>  (1212) 
15.279999999999999

>  <r_qp_QPlogPo/w>  (1212) 
4.5289999999999999

>  <r_qp_QPlogPoct>  (1212) 
22.824999999999999

>  <r_qp_QPlogPw>  (1212) 
13.41

>  <r_qp_QPlogS>  (1212) 
-6.9219999999999997

>  <r_qp_QPpolrz>  (1212) 
45.909999999999997

>  <r_qp_SASA>  (1212) 
727.29300000000001

>  <r_qp_SAamideO>  (1212) 
0

>  <r_qp_SAfluorine>  (1212) 
0

>  <r_qp_WPSA>  (1212) 
0

>  <r_qp_accptHB>  (1212) 
5.5

>  <r_qp_dip^2/V>  (1212) 
0.0056851999999999996

>  <r_qp_dipole>  (1212) 
2.7440000000000002

>  <r_qp_donorHB>  (1212) 
3

>  <r_qp_glob>  (1212) 
0.80198970000000003

>  <r_qp_mol_MW>  (1212) 
409.49000000000001

>  <r_qp_volume>  (1212) 
1324.5550000000001

>  <r_sd_BIOSOLVEIT.INFINISEE\_FTREES\_SIMILARITY>  (1212) 
0.91800000000000004

>  <r_sd_BIOSOLVEIT.LOGP>  (1212) 
4.8012800000000002

>  <r_sd_BIOSOLVEIT.MOLECULAR\_WEIGHT>  (1212) 
409.49099999999999

>  <r_sd_BIOSOLVEIT.TPSA>  (1212) 
83.950000000000003

>  <i_epik_Tot_Q>  (1212) 
0

>  <i_epik_Tot_abs_Q>  (1212) 
0

>  <i_f3d_flags>  (1212) 
0

>  <i_i_glide_confnum>  (1212) 
6

>  <i_i_glide_lignum>  (1212) 
1009

>  <i_i_glide_posenum>  (1212) 
19

>  <i_i_glide_rotatable_bonds>  (1212) 
8

>  <i_lp_mmshare_version>  (1212) 
65135

>  <i_m_ct_format>  (1212) 
2

>  <i_m_source_file_index>  (1212) 
2405

>  <i_qp_#NandO>  (1212) 
6

>  <i_qp_#acid>  (1212) 
0

>  <i_qp_#amide>  (1212) 
0

>  <i_qp_#amidine>  (1212) 
0

>  <i_qp_#amine>  (1212) 
0

>  <i_qp_#in34>  (1212) 
0

>  <i_qp_#in56>  (1212) 
21

>  <i_qp_#metab>  (1212) 
7

>  <i_qp_#nonHatm>  (1212) 
31

>  <i_qp_#noncon>  (1212) 
0

>  <i_qp_#ringatoms>  (1212) 
21

>  <i_qp_#rotor>  (1212) 
8

>  <i_qp_#rtvFG>  (1212) 
0

>  <i_qp_#stars>  (1212) 
1

>  <i_qp_CNS>  (1212) 
-2

>  <i_qp_HumanOralAbsorption>  (1212) 
1

>  <i_qp_RuleOfFive>  (1212) 
0

>  <i_qp_RuleOfThree>  (1212) 
2

>  <i_sd_BIOSOLVEIT.INFINISEE\_RESULT\_RANK>  (1212) 
20993

>  <i_sd_version>  (1212) 
0

>  <b_lp_Chiralities_Consistent>  (1212) 
1

>  <b_sd_chiral_flag>  (1212) 
0

>  <canonical_id>  (1212) 
ATP-HTVS-BFC0901B6A3C

>  <compound_code>  (1212) 
76930

>  <title>  (1212) 
rxn512b____EMOL45491381____EMOL719673____EMOL712348

>  <variant>  (1212) 
76930-1

>  <source_file>  (1212) 
运行/运行/ATP-VSW/ATP-VSW-DOCK_HTVS_1-002_lib.maegz

>  <canonical_smiles>  (1212) 
CNc1cccc(CNC(=O)c2[nH]c3ccccc3c2N(CC#N)c2ccccc2)c1

>  <scaffold>  (1212) 
O=C(NCc1ccccc1)c1[nH]c2ccccc2c1Nc1ccccc1

>  <molecular_formula>  (1212) 
C25H23N5O

$$$$
ATP-HTVS-BFD5BCAF9717
     RDKit          3D

 45 48  0  0  0  0  0  0  0  0999 V2000
  196.7483  191.4498  162.1504 O   0  0  0  0  0  0  0  0  0  0  0  0
  196.1520  190.6191  161.4685 C   0  0  0  0  0  0  0  0  0  0  0  0
  194.9055  190.1968  161.7332 N   0  0  0  0  0  0  0  0  0  0  0  0
  194.1739  190.6409  162.8346 N   0  0  0  0  0  0  0  0  0  0  0  0
  193.2244  189.8297  163.4755 C   0  0  0  0  0  0  0  0  0  0  0  0
  192.7184  190.2309  164.7317 C   0  0  0  0  0  0  0  0  0  0  0  0
  191.7662  189.4372  165.4017 C   0  0  0  0  0  0  0  0  0  0  0  0
  191.3177  188.2374  164.8212 C   0  0  0  0  0  0  0  0  0  0  0  0
  191.8218  187.8234  163.5760 C   0  0  0  0  0  0  0  0  0  0  0  0
  192.7754  188.6144  162.9059 C   0  0  0  0  0  0  0  0  0  0  0  0
  196.7795  190.0462  160.2580 C   0  0  0  0  0  0  0  0  0  0  0  0
  197.4980  190.8913  159.4421 O   0  0  0  0  0  0  0  0  0  0  0  0
  197.9759  190.1400  158.3936 C   0  0  0  0  0  0  0  0  0  0  0  0
  197.5671  188.7946  158.5575 C   0  0  0  0  0  0  0  0  0  0  0  0
  197.9651  187.8758  157.5578 C   0  0  0  0  0  0  0  0  0  0  0  0
  198.7491  188.2907  156.4599 C   0  0  0  0  0  0  0  0  0  0  0  0
  199.1463  189.6395  156.3358 C   0  0  0  0  0  0  0  0  0  0  0  0
  198.7496  190.5792  157.3072 C   0  0  0  0  0  0  0  0  0  0  0  0
  196.8052  188.7539  159.7713 C   0  0  0  0  0  0  0  0  0  0  0  0
  196.1324  187.5535  160.3569 C   0  0  1  0  0  0  0  0  0  0  0  0
  196.8885  186.3744  160.1125 O   0  0  0  0  0  0  0  0  0  0  0  0
  196.2506  185.2070  159.7547 C   0  0  0  0  0  0  0  0  0  0  0  0
  197.0751  184.1319  159.3591 C   0  0  0  0  0  0  0  0  0  0  0  0
  196.5157  182.9039  158.9448 C   0  0  0  0  0  0  0  0  0  0  0  0
  195.1198  182.7432  158.9256 C   0  0  0  0  0  0  0  0  0  0  0  0
  194.2877  183.8097  159.3231 C   0  0  0  0  0  0  0  0  0  0  0  0
  194.8469  185.0312  159.7531 C   0  0  0  0  0  0  0  0  0  0  0  0
  194.4037  189.5958  161.0896 H   0  0  0  0  0  0  0  0  0  0  0  0
  194.4455  191.5257  163.2426 H   0  0  0  0  0  0  0  0  0  0  0  0
  193.0607  191.1476  165.1916 H   0  0  0  0  0  0  0  0  0  0  0  0
  191.3807  189.7487  166.3625 H   0  0  0  0  0  0  0  0  0  0  0  0
  190.5838  187.6332  165.3325 H   0  0  0  0  0  0  0  0  0  0  0  0
  191.4737  186.9024  163.1314 H   0  0  0  0  0  0  0  0  0  0  0  0
  193.1489  188.2765  161.9508 H   0  0  0  0  0  0  0  0  0  0  0  0
  197.6783  186.8389  157.6417 H   0  0  0  0  0  0  0  0  0  0  0  0
  199.0587  187.5683  155.7162 H   0  0  0  0  0  0  0  0  0  0  0  0
  199.7506  189.9478  155.4945 H   0  0  0  0  0  0  0  0  0  0  0  0
  199.0367  191.6176  157.2277 H   0  0  0  0  0  0  0  0  0  0  0  0
  196.0112  187.6488  161.4366 H   0  0  0  0  0  0  0  0  0  0  0  0
  195.1322  187.5140  159.9196 H   0  0  0  0  0  0  0  0  0  0  0  0
  198.1500  184.2508  159.3633 H   0  0  0  0  0  0  0  0  0  0  0  0
  197.1535  182.0864  158.6406 H   0  0  0  0  0  0  0  0  0  0  0  0
  194.6901  181.8044  158.6018 H   0  0  0  0  0  0  0  0  0  0  0  0
  193.2162  183.6940  159.2990 H   0  0  0  0  0  0  0  0  0  0  0  0
  194.1728  185.8080  160.0697 H   0  0  0  0  0  0  0  0  0  0  0  0
  1  2  2  0
  2  3  1  0
  2 11  1  0
  3  4  1  0
  3 28  1  0
  4  5  1  0
  4 29  1  0
  5  6  2  0
  5 10  1  0
  6  7  1  0
  6 30  1  0
  7  8  2  0
  7 31  1  0
  8  9  1  0
  8 32  1  0
  9 10  2  0
  9 33  1  0
 10 34  1  0
 11 12  1  0
 11 19  2  0
 12 13  1  0
 13 14  1  0
 13 18  2  0
 14 15  2  0
 14 19  1  0
 15 16  1  0
 15 35  1  0
 16 17  2  0
 16 36  1  0
 17 18  1  0
 17 37  1  0
 18 38  1  0
 19 20  1  0
 20 21  1  0
 20 39  1  1
 20 40  1  0
 21 22  1  0
 22 23  2  0
 22 27  1  0
 23 24  1  0
 23 41  1  0
 24 25  2  0
 24 42  1  0
 25 26  1  0
 25 43  1  0
 26 27  2  0
 26 44  1  0
 27 45  1  0
M  END
>  <s_epik_cmdline>  (1213) 
J2VwaWtfcHl0aG9uJywgJy1waCcsICc3LjAwMDAwMCcsICctcGh0JywgJzIuMDAwMDAwJywgJy1tcycsICcxNicsICctdG4nLCAnOCcsICctbWEnLCAnMjAwJywgJy1pbWFlJywgJzxpbmZpbGUubWFlPicsICctb21hZScsICc8b3V0ZmlsZS5tYWU+Jw==

>  <s_epik_input>  (1213) 
W2NIXTFbY0hdW2NIXVtjSF1bY0hdYzFbTkhdW05IXUMoPU8pYyhvMiljKGMoYzIzKVtjSF1bY0hdW2NIXVtjSF0zKVtDSDJdT2M0W2NIXVtjSF1bY0hdW2NIXVtjSF00

>  <s_i_glide_gridfile>  (1213) 
ATP-Grid

>  <s_lp_Force_Field>  (1213) 
OPLS_2005

>  <s_lp_Variant>  (1213) 
m_527bbb____282812____155570-1

>  <s_lp_label>  (1213) 
1656_sdstereoexpander_1_neutralizer_1_epik_1_stereoizer_1

>  <s_m_source_file>  (1213) 
ATP-VSW-LIGPREP-001-in.maegz

>  <s_sd_BIOSOLVEIT.INFINISEE\_QUERY\_NAME>  (1213) 
Ref-Lig

>  <s_sd_BIOSOLVEIT.INFINISEE\_QUERY\_SMILES>  (1213) 
S(c1nc2c(cc1C[NH2+]Cc3ccc(cc3)C[NH+](C)C)cccc2)Cc4ccccc4

>  <s_sd_BIOSOLVEIT.INFINISEE\_REACTION\_NAME>  (1213) 
m_527bbb

>  <s_sd_BIOSOLVEIT.INFINISEE\_REAGENT1\_SMILES>  (1213) 
[R1*]NNc1ccccc1

>  <s_sd_BIOSOLVEIT.INFINISEE\_REAGENT2\_SMILES>  (1213) 
[R1*]C(=O)C=1Oc2c(cccc2)C1COc3ccccc3

>  <s_sd_BIOSOLVEIT.INFINISEE\_SPACE>  (1213) 
REALSpace_44bn_2023-08

>  <s_vsw_compound_code>  (1213) 
52961

>  <s_vsw_variant>  (1213) 
52961-1

>  <r_epik_Charging_Adjusted_Penalty>  (1213) 
0

>  <r_epik_Ionization_Penalty>  (1213) 
0

>  <r_epik_Ionization_Penalty_Charging>  (1213) 
0

>  <r_epik_Ionization_Penalty_Neutral>  (1213) 
0

>  <r_epik_State_Penalty>  (1213) 
-0

>  <r_i_docking_score>  (1213) 
-5.8003629536817103

>  <r_i_glide_ecoul>  (1213) 
-6.3149571418762198

>  <r_i_glide_eff_state_penalty>  (1213) 
-0

>  <r_i_glide_einternal>  (1213) 
3.3301434516906698

>  <r_i_glide_emodel>  (1213) 
-61.812213203787501

>  <r_i_glide_energy>  (1213) 
-46.852543354034403

>  <r_i_glide_erotb>  (1213) 
0.89480105925754205

>  <r_i_glide_esite>  (1213) 
-0.078674487677646093

>  <r_i_glide_evdw>  (1213) 
-40.537586212158203

>  <r_i_glide_gscore>  (1213) 
-5.8003629536817103

>  <r_i_glide_hbond>  (1213) 
-0.46184959515438101

>  <r_i_glide_ligand_efficiency>  (1213) 
-0.214828257543767

>  <r_i_glide_ligand_efficiency_ln>  (1213) 
-1.3502288691602

>  <r_i_glide_ligand_efficiency_sa>  (1213) 
-0.64448477192326203

>  <r_i_glide_lipo>  (1213) 
-2.2149937754906102

>  <r_i_glide_metal>  (1213) 
-0

>  <r_i_glide_rewards>  (1213) 
-0.96552327272727101

>  <r_lp_Energy>  (1213) 
26.761271000000001

>  <r_lp_tautomer_probability>  (1213) 
1

>  <r_qp_ACxDN^.5/SA>  (1213) 
0.0095936000000000007

>  <r_qp_CIQPlogS>  (1213) 
-5.7869999999999999

>  <r_qp_EA(eV)>  (1213) 
0.89400000000000002

>  <r_qp_FISA>  (1213) 
64.902000000000001

>  <r_qp_FOSA>  (1213) 
20.309999999999999

>  <r_qp_IP(eV)>  (1213) 
8.0719999999999992

>  <r_qp_Jm>  (1213) 
0.25307954383764097

>  <r_qp_PISA>  (1213) 
614.99199999999996

>  <r_qp_PSA>  (1213) 
66.203999999999994

>  <r_qp_PercentHumanOralAbsorption>  (1213) 
100

>  <r_qp_QPPCaco>  (1213) 
2401.2350000000001

>  <r_qp_QPPMDCK>  (1213) 
1275.1310000000001

>  <r_qp_QPlogBB>  (1213) 
-0.52200000000000002

>  <r_qp_QPlogHERG>  (1213) 
-8.1359999999999992

>  <r_qp_QPlogKhsa>  (1213) 
0.57699999999999996

>  <r_qp_QPlogKp>  (1213) 
0.027

>  <r_qp_QPlogPC16>  (1213) 
14.542

>  <r_qp_QPlogPo/w>  (1213) 
4.8049999999999997

>  <r_qp_QPlogPoct>  (1213) 
19.962

>  <r_qp_QPlogPw>  (1213) 
12.313000000000001

>  <r_qp_QPlogS>  (1213) 
-6.1779999999999999

>  <r_qp_QPpolrz>  (1213) 
43.259999999999998

>  <r_qp_SASA>  (1213) 
700.20399999999995

>  <r_qp_SAamideO>  (1213) 
0

>  <r_qp_SAfluorine>  (1213) 
0

>  <r_qp_WPSA>  (1213) 
0

>  <r_qp_accptHB>  (1213) 
4.75

>  <r_qp_dip^2/V>  (1213) 
0.0115759

>  <r_qp_dipole>  (1213) 
3.7029999999999998

>  <r_qp_donorHB>  (1213) 
2

>  <r_qp_glob>  (1213) 
0.77309289999999997

>  <r_qp_mol_MW>  (1213) 
358.39600000000002

>  <r_qp_volume>  (1213) 
1184.2329999999999

>  <r_sd_BIOSOLVEIT.INFINISEE\_FTREES\_SIMILARITY>  (1213) 
0.90500000000000003

>  <r_sd_BIOSOLVEIT.LOGP>  (1213) 
4.7686999999999999

>  <r_sd_BIOSOLVEIT.MOLECULAR\_WEIGHT>  (1213) 
358.39499999999998

>  <r_sd_BIOSOLVEIT.TPSA>  (1213) 
63.5

>  <i_epik_Tot_Q>  (1213) 
0

>  <i_epik_Tot_abs_Q>  (1213) 
0

>  <i_f3d_flags>  (1213) 
0

>  <i_i_glide_confnum>  (1213) 
5

>  <i_i_glide_lignum>  (1213) 
445

>  <i_i_glide_posenum>  (1213) 
3

>  <i_i_glide_rotatable_bonds>  (1213) 
7

>  <i_lp_mmshare_version>  (1213) 
65135

>  <i_m_ct_format>  (1213) 
2

>  <i_m_source_file_index>  (1213) 
1656

>  <i_qp_#NandO>  (1213) 
5

>  <i_qp_#acid>  (1213) 
0

>  <i_qp_#amide>  (1213) 
0

>  <i_qp_#amidine>  (1213) 
0

>  <i_qp_#amine>  (1213) 
0

>  <i_qp_#in34>  (1213) 
0

>  <i_qp_#in56>  (1213) 
21

>  <i_qp_#metab>  (1213) 
4

>  <i_qp_#nonHatm>  (1213) 
27

>  <i_qp_#noncon>  (1213) 
0

>  <i_qp_#ringatoms>  (1213) 
21

>  <i_qp_#rotor>  (1213) 
6

>  <i_qp_#rtvFG>  (1213) 
1

>  <i_qp_#stars>  (1213) 
1

>  <i_qp_CNS>  (1213) 
0

>  <i_qp_HumanOralAbsorption>  (1213) 
3

>  <i_qp_RuleOfFive>  (1213) 
0

>  <i_qp_RuleOfThree>  (1213) 
1

>  <i_sd_BIOSOLVEIT.INFINISEE\_REAGENT1\_NAME>  (1213) 
282812

>  <i_sd_BIOSOLVEIT.INFINISEE\_REAGENT2\_NAME>  (1213) 
155570

>  <i_sd_BIOSOLVEIT.INFINISEE\_RESULT\_RANK>  (1213) 
69158

>  <i_sd_version>  (1213) 
0

>  <b_lp_Chiralities_Consistent>  (1213) 
1

>  <b_sd_chiral_flag>  (1213) 
0

>  <canonical_id>  (1213) 
ATP-HTVS-BFD5BCAF9717

>  <compound_code>  (1213) 
52961

>  <title>  (1213) 
m_527bbb____282812____155570

>  <variant>  (1213) 
52961-1

>  <source_file>  (1213) 
运行/运行/ATP-VSW/ATP-VSW-DOCK_HTVS_1-001_lib/ATP-VSW-DOCK_HTVS_1-001_lib

>  <canonical_smiles>  (1213) 
O=C(NNc1ccccc1)c1oc2ccccc2c1COc1ccccc1

>  <scaffold>  (1213) 
O=C(NNc1ccccc1)c1oc2ccccc2c1COc1ccccc1

>  <molecular_formula>  (1213) 
C22H18N2O3

$$$$
ATP-HTVS-BFEA0E4C0B7C
     RDKit          3D

 56 59  0  0  0  0  0  0  0  0999 V2000
  199.6300  180.2850  156.5164 O   0  0  0  0  0  0  0  0  0  0  0  0
  198.5924  180.8271  156.1423 C   0  0  0  0  0  0  0  0  0  0  0  0
  198.0281  180.7028  154.9291 N   0  0  0  0  0  0  0  0  0  0  0  0
  198.4071  179.8477  153.8522 C   0  0  0  0  0  0  0  0  0  0  0  0
  197.8645  180.0785  152.5581 C   0  0  0  0  0  0  0  0  0  0  0  0
  197.0082  181.1739  152.3436 N   0  0  0  0  0  0  0  0  0  0  0  0
  197.6913  182.3090  151.7330 C   0  0  1  0  0  0  0  0  0  0  0  0
  196.8213  183.0300  150.6847 C   0  0  1  0  0  0  0  0  0  0  0  0
  195.8724  183.8429  151.3282 O   0  0  0  0  0  0  0  0  0  0  0  0
  197.6539  183.8747  149.7343 C   0  0  0  0  0  0  0  0  0  0  0  0
  198.8086  184.5528  150.1875 C   0  0  0  0  0  0  0  0  0  0  0  0
  199.5791  185.3254  149.2986 C   0  0  0  0  0  0  0  0  0  0  0  0
  199.1864  185.4382  147.9503 C   0  0  0  0  0  0  0  0  0  0  0  0
  198.0184  184.7930  147.4980 C   0  0  0  0  0  0  0  0  0  0  0  0
  197.2561  184.0135  148.3878 C   0  0  0  0  0  0  0  0  0  0  0  0
  200.8298  186.0185  149.7988 C   0  0  2  0  0  0  0  0  0  0  0  0
  198.2251  179.2047  151.4904 C   0  0  0  0  0  0  0  0  0  0  0  0
  199.1122  178.1273  151.7478 C   0  0  0  0  0  0  0  0  0  0  0  0
  199.6012  177.9555  152.9911 N   0  0  0  0  0  0  0  0  0  0  0  0
  199.2833  178.7503  154.0324 C   0  0  0  0  0  0  0  0  0  0  0  0
  199.4717  177.2243  150.7266 C   0  0  0  0  0  0  0  0  0  0  0  0
  198.9655  177.3963  149.4256 C   0  0  0  0  0  0  0  0  0  0  0  0
  198.0886  178.4629  149.1520 C   0  0  0  0  0  0  0  0  0  0  0  0
  197.7164  179.3575  150.1776 C   0  0  0  0  0  0  0  0  0  0  0  0
  197.8728  181.7371  156.9962 C   0  0  0  0  0  0  0  0  0  0  0  0
  197.2182  182.5069  157.6802 C   0  0  0  0  0  0  0  0  0  0  0  0
  196.4214  183.4169  158.4817 C   0  0  0  0  0  0  0  0  0  0  0  0
  195.0258  183.2405  158.5699 C   0  0  0  0  0  0  0  0  0  0  0  0
  194.2548  184.1365  159.3347 C   0  0  0  0  0  0  0  0  0  0  0  0
  194.8754  185.2024  160.0151 C   0  0  0  0  0  0  0  0  0  0  0  0
  196.2691  185.3803  159.9252 C   0  0  0  0  0  0  0  0  0  0  0  0
  197.0422  184.4858  159.1607 C   0  0  0  0  0  0  0  0  0  0  0  0
  197.2549  181.3276  154.7683 H   0  0  0  0  0  0  0  0  0  0  0  0
  196.4802  181.4523  153.1598 H   0  0  0  0  0  0  0  0  0  0  0  0
  198.0067  182.9933  152.5199 H   0  0  0  0  0  0  0  0  0  0  0  0
  198.6058  181.9649  151.2446 H   0  0  0  0  0  0  0  0  0  0  0  0
  196.2950  182.2756  150.0977 H   0  0  0  0  0  0  0  0  0  0  0  0
  195.5038  183.4034  152.0857 H   0  0  0  0  0  0  0  0  0  0  0  0
  199.1204  184.4881  151.2195 H   0  0  0  0  0  0  0  0  0  0  0  0
  199.7729  186.0328  147.2644 H   0  0  0  0  0  0  0  0  0  0  0  0
  197.7134  184.8871  146.4674 H   0  0  0  0  0  0  0  0  0  0  0  0
  196.3607  183.5266  148.0326 H   0  0  0  0  0  0  0  0  0  0  0  0
  201.5781  186.0834  149.0088 H   0  0  0  0  0  0  0  0  0  0  0  0
  201.2708  185.4730  150.6348 H   0  0  0  0  0  0  0  0  0  0  0  0
  200.5888  187.0255  150.1376 H   0  0  0  0  0  0  0  0  0  0  0  0
  199.7174  178.4520  154.9755 H   0  0  0  0  0  0  0  0  0  0  0  0
  200.1419  176.3977  150.9225 H   0  0  0  0  0  0  0  0  0  0  0  0
  199.2495  176.7132  148.6372 H   0  0  0  0  0  0  0  0  0  0  0  0
  197.7074  178.5938  148.1485 H   0  0  0  0  0  0  0  0  0  0  0  0
  197.0398  180.1622  149.9397 H   0  0  0  0  0  0  0  0  0  0  0  0
  194.5414  182.4302  158.0409 H   0  0  0  0  0  0  0  0  0  0  0  0
  193.1833  184.0112  159.3906 H   0  0  0  0  0  0  0  0  0  0  0  0
  194.2771  185.8932  160.5919 H   0  0  0  0  0  0  0  0  0  0  0  0
  196.7451  186.2043  160.4364 H   0  0  0  0  0  0  0  0  0  0  0  0
  198.1103  184.6282  159.0879 H   0  0  0  0  0  0  0  0  0  0  0  0
  200.2155  177.1588  153.1671 H   0  0  0  0  0  0  0  0  0  0  0  0
  1  2  2  0
  2  3  1  0
  2 25  1  0
  3  4  1  0
  3 33  1  0
  4  5  2  0
  4 20  1  0
  5  6  1  0
  5 17  1  0
  6  7  1  0
  6 34  1  0
  7  8  1  0
  7 35  1  1
  7 36  1  0
  8  9  1  0
  8 10  1  0
  8 37  1  6
  9 38  1  0
 10 11  1  0
 10 15  2  0
 11 12  2  0
 11 39  1  0
 12 13  1  0
 12 16  1  0
 13 14  2  0
 13 40  1  0
 14 15  1  0
 14 41  1  0
 15 42  1  0
 16 43  1  6
 16 44  1  0
 16 45  1  0
 17 18  1  0
 17 24  2  0
 18 19  1  0
 18 21  2  0
 19 20  2  0
 19 56  1  0
 20 46  1  0
 21 22  1  0
 21 47  1  0
 22 23  2  0
 22 48  1  0
 23 24  1  0
 23 49  1  0
 24 50  1  0
 25 26  3  0
 26 27  1  0
 27 28  2  0
 27 32  1  0
 28 29  1  0
 28 51  1  0
 29 30  2  0
 29 52  1  0
 30 31  1  0
 30 53  1  0
 31 32  2  0
 31 54  1  0
 32 55  1  0
M  CHG  1  19   1
M  END
>  <s_epik_cmdline>  (1214) 
J2VwaWtfcHl0aG9uJywgJy1waCcsICc3LjAwMDAwMCcsICctcGh0JywgJzIuMDAwMDAwJywgJy1tcycsICcxNicsICctdG4nLCAnOCcsICctbWEnLCAnMjAwJywgJy1pbWFlJywgJzxpbmZpbGUubWFlPicsICctb21hZScsICc8b3V0ZmlsZS5tYWU+Jw==

>  <s_epik_input>  (1214) 
W2NIXTFbY0hdW2NIXVtjSF1bY0hdYzFDI0NDKD1PKVtOSF1jKFtjSF1uYyhjMjMpW2NIXVtjSF1bY0hdW2NIXTMpYzJbTkhdW0NIMl1bQ0BASF0oW09IXSljNFtjSF1jKFtDSDNdKVtjSF1bY0hdW2NIXTQ=

>  <s_i_glide_gridfile>  (1214) 
ATP-Grid

>  <s_lp_Force_Field>  (1214) 
OPLS_2005

>  <s_lp_Variant>  (1214) 
rxn502b____EMOL530803____EMOL30488121____EMOL44834539-2

>  <s_lp_label>  (1214) 
2334_sdstereoexpander_2_neutralizer_1_epik_1_stereoizer_1

>  <s_m_source_file>  (1214) 
ATP-VSW-LIGPREP-001-in.maegz

>  <s_sd_BIOSOLVEIT.INFINISEE\_QUERY\_NAME>  (1214) 
Ref-Lig

>  <s_sd_BIOSOLVEIT.INFINISEE\_QUERY\_SMILES>  (1214) 
S(c1nc2c(cc1C[NH2+]Cc3ccc(cc3)C[NH+](C)C)cccc2)Cc4ccccc4

>  <s_sd_BIOSOLVEIT.INFINISEE\_REACTION\_NAME>  (1214) 
rxn502b

>  <s_sd_BIOSOLVEIT.INFINISEE\_REAGENT1\_NAME>  (1214) 
EMOL530803

>  <s_sd_BIOSOLVEIT.INFINISEE\_REAGENT1\_SMILES>  (1214) 
O=C(O)C#Cc1ccccc1

>  <s_sd_BIOSOLVEIT.INFINISEE\_REAGENT2\_NAME>  (1214) 
EMOL30488121

>  <s_sd_BIOSOLVEIT.INFINISEE\_REAGENT2\_SMILES>  (1214) 
Brc1c(N)cnc2c1cccc2

>  <s_sd_BIOSOLVEIT.INFINISEE\_REAGENT3\_NAME>  (1214) 
EMOL44834539

>  <s_sd_BIOSOLVEIT.INFINISEE\_REAGENT3\_SMILES>  (1214) 
OC(c1cc(ccc1)C)CN

>  <s_sd_BIOSOLVEIT.INFINISEE\_SPACE>  (1214) 
eXplore_7tr_2022-12

>  <s_vsw_compound_code>  (1214) 
74657

>  <s_vsw_variant>  (1214) 
74657-2

>  <r_epik_Charging_Adjusted_Penalty>  (1214) 
0.078961704452155307

>  <r_epik_Ionization_Penalty>  (1214) 
0.0395

>  <r_epik_Ionization_Penalty_Charging>  (1214) 
0.0395

>  <r_epik_Ionization_Penalty_Neutral>  (1214) 
0

>  <r_epik_State_Penalty>  (1214) 
0.0395

>  <r_i_docking_score>  (1214) 
-4.6739759401222196

>  <r_i_glide_ecoul>  (1214) 
-7.0687556266784703

>  <r_i_glide_eff_state_penalty>  (1214) 
0.0395

>  <r_i_glide_einternal>  (1214) 
6.5941500663757298

>  <r_i_glide_emodel>  (1214) 
-54.234204263487101

>  <r_i_glide_energy>  (1214) 
-42.732337474822998

>  <r_i_glide_erotb>  (1214) 
0.77688040092706601

>  <r_i_glide_esite>  (1214) 
-0.072592774441664398

>  <r_i_glide_evdw>  (1214) 
-35.663581848144503

>  <r_i_glide_gscore>  (1214) 
-4.7134759401222199

>  <r_i_glide_hbond>  (1214) 
-0.11223429144241

>  <r_i_glide_ligand_efficiency>  (1214) 
-0.146061748128819

>  <r_i_glide_ligand_efficiency_ln>  (1214) 
-1.04663062076554

>  <r_i_glide_ligand_efficiency_sa>  (1214) 
-0.463717144728297

>  <r_i_glide_lipo>  (1214) 
-1.9336165660289399

>  <r_i_glide_metal>  (1214) 
-0

>  <r_i_glide_rewards>  (1214) 
-0.52842027272727199

>  <r_lp_Energy>  (1214) 
36.493417000000001

>  <r_qp_ACxDN^.5/SA>  (1214) 
0.0137974

>  <r_qp_CIQPlogS>  (1214) 
-6.4740000000000002

>  <r_qp_EA(eV)>  (1214) 
0.93000000000000005

>  <r_qp_FISA>  (1214) 
109.78700000000001

>  <r_qp_FOSA>  (1214) 
113.282

>  <r_qp_IP(eV)>  (1214) 
8.3930000000000007

>  <r_qp_Jm>  (1214) 
0.0163698918615502

>  <r_qp_PISA>  (1214) 
555.245

>  <r_qp_PSA>  (1214) 
79.742000000000004

>  <r_qp_PercentHumanOralAbsorption>  (1214) 
100

>  <r_qp_QPPCaco>  (1214) 
901.13599999999997

>  <r_qp_QPPMDCK>  (1214) 
442.06299999999999

>  <r_qp_QPlogBB>  (1214) 
-1.141

>  <r_qp_QPlogHERG>  (1214) 
-7.8390000000000004

>  <r_qp_QPlogKhsa>  (1214) 
0.69899999999999995

>  <r_qp_QPlogKp>  (1214) 
-0.81899999999999995

>  <r_qp_QPlogPC16>  (1214) 
16.664999999999999

>  <r_qp_QPlogPo/w>  (1214) 
4.9470000000000001

>  <r_qp_QPlogPoct>  (1214) 
25.536000000000001

>  <r_qp_QPlogPw>  (1214) 
14.852

>  <r_qp_QPlogS>  (1214) 
-6.5919999999999996

>  <r_qp_QPpolrz>  (1214) 
49.637999999999998

>  <r_qp_SASA>  (1214) 
778.31399999999996

>  <r_qp_SAamideO>  (1214) 
0

>  <r_qp_SAfluorine>  (1214) 
0

>  <r_qp_WPSA>  (1214) 
0

>  <r_qp_accptHB>  (1214) 
6.2000000000000002

>  <r_qp_dip^2/V>  (1214) 
0.0837122

>  <r_qp_dipole>  (1214) 
10.787000000000001

>  <r_qp_donorHB>  (1214) 
3

>  <r_qp_glob>  (1214) 
0.77388959999999996

>  <r_qp_mol_MW>  (1214) 
421.49799999999999

>  <r_qp_volume>  (1214) 
1389.962

>  <r_sd_BIOSOLVEIT.INFINISEE\_FTREES\_SIMILARITY>  (1214) 
0.92100000000000004

>  <r_sd_BIOSOLVEIT.LOGP>  (1214) 
4.6789199999999997

>  <r_sd_BIOSOLVEIT.MOLECULAR\_WEIGHT>  (1214) 
421.49799999999999

>  <r_sd_BIOSOLVEIT.TPSA>  (1214) 
74.25

>  <i_epik_Tot_Q>  (1214) 
1

>  <i_epik_Tot_abs_Q>  (1214) 
1

>  <i_f3d_flags>  (1214) 
0

>  <i_i_glide_confnum>  (1214) 
4

>  <i_i_glide_lignum>  (1214) 
838

>  <i_i_glide_posenum>  (1214) 
5

>  <i_i_glide_rotatable_bonds>  (1214) 
9

>  <i_lp_mmshare_version>  (1214) 
65135

>  <i_m_ct_format>  (1214) 
2

>  <i_m_source_file_index>  (1214) 
2334

>  <i_qp_#NandO>  (1214) 
5

>  <i_qp_#acid>  (1214) 
0

>  <i_qp_#amide>  (1214) 
0

>  <i_qp_#amidine>  (1214) 
0

>  <i_qp_#amine>  (1214) 
0

>  <i_qp_#in34>  (1214) 
0

>  <i_qp_#in56>  (1214) 
22

>  <i_qp_#metab>  (1214) 
6

>  <i_qp_#nonHatm>  (1214) 
32

>  <i_qp_#noncon>  (1214) 
0

>  <i_qp_#ringatoms>  (1214) 
22

>  <i_qp_#rotor>  (1214) 
8

>  <i_qp_#rtvFG>  (1214) 
0

>  <i_qp_#stars>  (1214) 
2

>  <i_qp_CNS>  (1214) 
-2

>  <i_qp_HumanOralAbsorption>  (1214) 
1

>  <i_qp_RuleOfFive>  (1214) 
0

>  <i_qp_RuleOfThree>  (1214) 
1

>  <i_sd_BIOSOLVEIT.INFINISEE\_RESULT\_RANK>  (1214) 
14406

>  <i_sd_version>  (1214) 
0

>  <b_lp_Chiralities_Consistent>  (1214) 
1

>  <b_sd_chiral_flag>  (1214) 
0

>  <canonical_id>  (1214) 
ATP-HTVS-BFEA0E4C0B7C

>  <compound_code>  (1214) 
74657

>  <title>  (1214) 
rxn502b____EMOL530803____EMOL30488121____EMOL44834539

>  <variant>  (1214) 
74657-2

>  <source_file>  (1214) 
运行/运行/ATP-VSW/ATP-VSW-DOCK_HTVS_1-001_lib/ATP-VSW-DOCK_HTVS_1-001_lib

>  <canonical_smiles>  (1214) 
Cc1cccc([C@H](O)CNc2c(NC(=O)C#Cc3ccccc3)c[nH+]c3ccccc23)c1

>  <scaffold>  (1214) 
O=C(C#Cc1ccccc1)Nc1c[nH+]c2ccccc2c1NCCc1ccccc1

>  <molecular_formula>  (1214) 
C27H24N3O2+

$$$$
ATP-HTVS-C038EE4FCBA5
     RDKit          3D

 52 54  0  0  0  0  0  0  0  0999 V2000
  197.0582  180.6296  154.5760 F   0  0  0  0  0  0  0  0  0  0  0  0
  198.3668  180.6591  154.9339 C   0  0  0  0  0  0  0  0  0  0  0  0
  198.7593  181.2865  156.1386 C   0  0  0  0  0  0  0  0  0  0  0  0
  200.0577  181.3309  156.5210 N   0  0  0  0  0  0  0  0  0  0  0  0
  200.9944  180.7815  155.7264 C   0  0  0  0  0  0  0  0  0  0  0  0
  200.6945  180.1510  154.5071 C   0  0  0  0  0  0  0  0  0  0  0  0
  199.3472  180.0770  154.0990 C   0  0  0  0  0  0  0  0  0  0  0  0
  198.9444  179.4307  152.9205 N   0  0  0  0  0  0  0  0  0  0  0  0
  199.8453  179.3023  151.7784 C   0  0  1  0  0  0  0  0  0  0  0  0
  199.4497  178.1884  150.8309 C   0  0  0  0  0  0  0  0  0  0  0  0
  199.4004  178.4129  149.4404 C   0  0  0  0  0  0  0  0  0  0  0  0
  199.0505  177.3619  148.5647 C   0  0  0  0  0  0  0  0  0  0  0  0
  198.7430  176.0875  149.0859 C   0  0  0  0  0  0  0  0  0  0  0  0
  198.7922  175.8634  150.4752 C   0  0  0  0  0  0  0  0  0  0  0  0
  199.1516  176.9089  151.3401 C   0  0  0  0  0  0  0  0  0  0  0  0
  198.9453  177.6277  147.0738 C   0  0  1  0  0  0  0  0  0  0  0  0
  197.5432  177.7849  146.6034 N   0  0  2  0  0  0  0  0  0  0  0  0
  197.4911  178.4105  145.2664 C   0  0  2  0  0  0  0  0  0  0  0  0
  196.6130  178.4341  147.5587 C   0  0  2  0  0  0  0  0  0  0  0  0
  197.7029  181.8620  156.8840 N   0  0  0  0  0  0  0  0  0  0  0  0
  197.7804  182.6812  157.9478 C   0  0  0  0  0  0  0  0  0  0  0  0
  198.8363  183.0588  158.4584 O   0  0  0  0  0  0  0  0  0  0  0  0
  196.4543  183.1945  158.4438 C   0  0  0  0  0  0  0  0  0  0  0  0
  196.3726  184.3807  159.2199 C   0  0  0  0  0  0  0  0  0  0  0  0
  197.4762  185.0979  159.5471 F   0  0  0  0  0  0  0  0  0  0  0  0
  195.1222  184.8534  159.6620 C   0  0  0  0  0  0  0  0  0  0  0  0
  193.9468  184.1610  159.3349 C   0  0  0  0  0  0  0  0  0  0  0  0
  194.0129  182.9814  158.5755 C   0  0  0  0  0  0  0  0  0  0  0  0
  195.2592  182.4891  158.1518 C   0  0  0  0  0  0  0  0  0  0  0  0
  202.0146  180.8288  156.0760 H   0  0  0  0  0  0  0  0  0  0  0  0
  201.4980  179.7166  153.9385 H   0  0  0  0  0  0  0  0  0  0  0  0
  197.9513  179.3432  152.7575 H   0  0  0  0  0  0  0  0  0  0  0  0
  199.8846  180.2578  151.2491 H   0  0  0  0  0  0  0  0  0  0  0  0
  200.8642  179.0687  152.0840 H   0  0  0  0  0  0  0  0  0  0  0  0
  199.6288  179.3968  149.0497 H   0  0  0  0  0  0  0  0  0  0  0  0
  198.4504  175.2838  148.4256 H   0  0  0  0  0  0  0  0  0  0  0  0
  198.5362  174.8948  150.8815 H   0  0  0  0  0  0  0  0  0  0  0  0
  199.1992  176.7330  152.4043 H   0  0  0  0  0  0  0  0  0  0  0  0
  199.5245  178.5231  146.8465 H   0  0  0  0  0  0  0  0  0  0  0  0
  199.4182  176.8137  146.5252 H   0  0  0  0  0  0  0  0  0  0  0  0
  197.8477  179.4424  145.3028 H   0  0  0  0  0  0  0  0  0  0  0  0
  196.4675  178.4281  144.8918 H   0  0  0  0  0  0  0  0  0  0  0  0
  198.1015  177.8672  144.5457 H   0  0  0  0  0  0  0  0  0  0  0  0
  196.9483  179.4356  147.8067 H   0  0  0  0  0  0  0  0  0  0  0  0
  196.5150  177.8643  148.4845 H   0  0  0  0  0  0  0  0  0  0  0  0
  195.6091  178.4977  147.1364 H   0  0  0  0  0  0  0  0  0  0  0  0
  196.7743  181.6300  156.5582 H   0  0  0  0  0  0  0  0  0  0  0  0
  195.0678  185.7604  160.2480 H   0  0  0  0  0  0  0  0  0  0  0  0
  192.9879  184.5376  159.6581 H   0  0  0  0  0  0  0  0  0  0  0  0
  193.1168  182.4420  158.3109 H   0  0  0  0  0  0  0  0  0  0  0  0
  195.2582  181.5650  157.5857 H   0  0  0  0  0  0  0  0  0  0  0  0
  197.1823  176.8438  146.5073 H   0  0  0  0  0  0  0  0  0  0  0  0
  1  2  1  0
  2  3  2  0
  2  7  1  0
  3  4  1  0
  3 20  1  0
  4  5  2  0
  5  6  1  0
  5 30  1  0
  6  7  2  0
  6 31  1  0
  7  8  1  0
  8  9  1  0
  8 32  1  0
  9 10  1  0
  9 33  1  6
  9 34  1  0
 10 11  2  0
 10 15  1  0
 11 12  1  0
 11 35  1  0
 12 13  2  0
 12 16  1  0
 13 14  1  0
 13 36  1  0
 14 15  2  0
 14 37  1  0
 15 38  1  0
 16 17  1  0
 16 39  1  1
 16 40  1  0
 17 18  1  0
 17 19  1  0
 17 52  1  6
 18 41  1  1
 18 42  1  0
 18 43  1  0
 19 44  1  1
 19 45  1  0
 19 46  1  0
 20 21  1  0
 20 47  1  0
 21 22  2  0
 21 23  1  0
 23 24  1  0
 23 29  2  0
 24 25  1  0
 24 26  2  0
 26 27  1  0
 26 48  1  0
 27 28  2  0
 27 49  1  0
 28 29  1  0
 28 50  1  0
 29 51  1  0
M  CHG  1  17   1
M  END
>  <s_epik_cmdline>  (1215) 
J2VwaWtfcHl0aG9uJywgJy1waCcsICc3LjAwMDAwMCcsICctcGh0JywgJzIuMDAwMDAwJywgJy1tcycsICcxNicsICctdG4nLCAnOCcsICctbWEnLCAnMjAwJywgJy1pbWFlJywgJzxpbmZpbGUubWFlPicsICctb21hZScsICc8b3V0ZmlsZS5tYWU+Jw==

>  <s_epik_input>  (1215) 
W2NIXTFbY0hdW2NIXVtjSF1jKEYpYzFDKD1PKVtOSF1jKGMyRiluW2NIXVtjSF1jMltOSF1bQ0gyXWMzW2NIXWMoW2NIXVtjSF1bY0hdMylbQ0gyXU4oW0NIM10pW0NIM10=

>  <s_i_glide_gridfile>  (1215) 
ATP-Grid

>  <s_lp_Force_Field>  (1215) 
OPLS_2005

>  <s_lp_Variant>  (1215) 
rxn502a____EMOL505868____EMOL44820720____EMOL2873214-1

>  <s_lp_label>  (1215) 
2942_sdstereoexpander_1_neutralizer_1_epik_1_stereoizer_1

>  <s_m_source_file>  (1215) 
ATP-VSW-LIGPREP-001-in.maegz

>  <s_sd_BIOSOLVEIT.INFINISEE\_QUERY\_NAME>  (1215) 
Ref-Lig

>  <s_sd_BIOSOLVEIT.INFINISEE\_QUERY\_SMILES>  (1215) 
S(c1nc2c(cc1C[NH2+]Cc3ccc(cc3)C[NH+](C)C)cccc2)Cc4ccccc4

>  <s_sd_BIOSOLVEIT.INFINISEE\_REACTION\_NAME>  (1215) 
rxn502a

>  <s_sd_BIOSOLVEIT.INFINISEE\_REAGENT1\_NAME>  (1215) 
EMOL505868

>  <s_sd_BIOSOLVEIT.INFINISEE\_REAGENT1\_SMILES>  (1215) 
Fc1c(cccc1)C(=O)O

>  <s_sd_BIOSOLVEIT.INFINISEE\_REAGENT2\_NAME>  (1215) 
EMOL44820720

>  <s_sd_BIOSOLVEIT.INFINISEE\_REAGENT2\_SMILES>  (1215) 
Ic1c(F)c(ncc1)N

>  <s_sd_BIOSOLVEIT.INFINISEE\_REAGENT3\_NAME>  (1215) 
EMOL2873214

>  <s_sd_BIOSOLVEIT.INFINISEE\_REAGENT3\_SMILES>  (1215) 
N(Cc1cc(ccc1)CN)(C)C

>  <s_sd_BIOSOLVEIT.INFINISEE\_SPACE>  (1215) 
eXplore_7tr_2022-12

>  <s_vsw_compound_code>  (1215) 
94113

>  <s_vsw_variant>  (1215) 
94113-1

>  <r_epik_Charging_Adjusted_Penalty>  (1215) 
0.088195370499548398

>  <r_epik_Ionization_Penalty>  (1215) 
0.0458

>  <r_epik_Ionization_Penalty_Charging>  (1215) 
0.0441

>  <r_epik_Ionization_Penalty_Neutral>  (1215) 
0.0016999999999999999

>  <r_epik_State_Penalty>  (1215) 
0.0441

>  <r_i_docking_score>  (1215) 
-4.0042477833991796

>  <r_i_glide_ecoul>  (1215) 
-6.06927490234375

>  <r_i_glide_eff_state_penalty>  (1215) 
0.0441

>  <r_i_glide_einternal>  (1215) 
3.9908108711242698

>  <r_i_glide_emodel>  (1215) 
-50.0002548409879

>  <r_i_glide_energy>  (1215) 
-37.875345230102504

>  <r_i_glide_erotb>  (1215) 
0.86746074049047694

>  <r_i_glide_esite>  (1215) 
-0.116800433680205

>  <r_i_glide_evdw>  (1215) 
-31.8060703277588

>  <r_i_glide_gscore>  (1215) 
-4.0483477833991897

>  <r_i_glide_hbond>  (1215) 
0

>  <r_i_glide_ligand_efficiency>  (1215) 
-0.138077509772386

>  <r_i_glide_ligand_efficiency_ln>  (1215) 
-0.91687120343564799

>  <r_i_glide_ligand_efficiency_sa>  (1215) 
-0.42421785604634699

>  <r_i_glide_lipo>  (1215) 
-1.3711063884521

>  <r_i_glide_metal>  (1215) 
-0

>  <r_i_glide_rewards>  (1215) 
-0.92720695001785403

>  <r_lp_Energy>  (1215) 
23.295131999999999

>  <r_lp_tautomer_probability>  (1215) 
0.999999106000799

>  <r_qp_ACxDN^.5/SA>  (1215) 
0.012377900000000001

>  <r_qp_CIQPlogS>  (1215) 
-4.665

>  <r_qp_EA(eV)>  (1215) 
0.59399999999999997

>  <r_qp_FISA>  (1215) 
68.822000000000003

>  <r_qp_FOSA>  (1215) 
208.357

>  <r_qp_IP(eV)>  (1215) 
8.6460000000000008

>  <r_qp_Jm>  (1215) 
0.0041805953461372504

>  <r_qp_PISA>  (1215) 
405.041

>  <r_qp_PSA>  (1215) 
63.283999999999999

>  <r_qp_PercentHumanOralAbsorption>  (1215) 
100

>  <r_qp_QPPCaco>  (1215) 
549.74800000000005

>  <r_qp_QPPMDCK>  (1215) 
614.327

>  <r_qp_QPlogBB>  (1215) 
-0.081000000000000003

>  <r_qp_QPlogHERG>  (1215) 
-7.8730000000000002

>  <r_qp_QPlogKhsa>  (1215) 
0.499

>  <r_qp_QPlogKp>  (1215) 
-2.7519999999999998

>  <r_qp_QPlogPC16>  (1215) 
13.760999999999999

>  <r_qp_QPlogPo/w>  (1215) 
4.2069999999999999

>  <r_qp_QPlogPoct>  (1215) 
21.780000000000001

>  <r_qp_QPlogPw>  (1215) 
12.538

>  <r_qp_QPlogS>  (1215) 
-5.2249999999999996

>  <r_qp_QPpolrz>  (1215) 
44.912999999999997

>  <r_qp_SASA>  (1215) 
742.64700000000005

>  <r_qp_SAamideO>  (1215) 
0

>  <r_qp_SAfluorine>  (1215) 
60.427999999999997

>  <r_qp_WPSA>  (1215) 
60.427999999999997

>  <r_qp_accptHB>  (1215) 
6.5

>  <r_qp_dip^2/V>  (1215) 
0.035477700000000001

>  <r_qp_dipole>  (1215) 
6.7690000000000001

>  <r_qp_donorHB>  (1215) 
2

>  <r_qp_glob>  (1215) 
0.77236020000000005

>  <r_qp_mol_MW>  (1215) 
396.43900000000002

>  <r_qp_volume>  (1215) 
1291.684

>  <r_sd_BIOSOLVEIT.INFINISEE\_FTREES\_SIMILARITY>  (1215) 
0.90400000000000003

>  <r_sd_BIOSOLVEIT.LOGP>  (1215) 
2.8687

>  <r_sd_BIOSOLVEIT.MOLECULAR\_WEIGHT>  (1215) 
397.447

>  <r_sd_BIOSOLVEIT.TPSA>  (1215) 
58.460000000000001

>  <i_epik_Tot_Q>  (1215) 
1

>  <i_epik_Tot_abs_Q>  (1215) 
1

>  <i_f3d_flags>  (1215) 
0

>  <i_i_glide_confnum>  (1215) 
2

>  <i_i_glide_lignum>  (1215) 
1390

>  <i_i_glide_posenum>  (1215) 
7

>  <i_i_glide_rotatable_bonds>  (1215) 
8

>  <i_lp_mmshare_version>  (1215) 
65135

>  <i_m_ct_format>  (1215) 
2

>  <i_m_source_file_index>  (1215) 
2942

>  <i_qp_#NandO>  (1215) 
5

>  <i_qp_#acid>  (1215) 
0

>  <i_qp_#amide>  (1215) 
0

>  <i_qp_#amidine>  (1215) 
0

>  <i_qp_#amine>  (1215) 
1

>  <i_qp_#in34>  (1215) 
0

>  <i_qp_#in56>  (1215) 
18

>  <i_qp_#metab>  (1215) 
7

>  <i_qp_#nonHatm>  (1215) 
29

>  <i_qp_#noncon>  (1215) 
0

>  <i_qp_#ringatoms>  (1215) 
18

>  <i_qp_#rotor>  (1215) 
7

>  <i_qp_#rtvFG>  (1215) 
0

>  <i_qp_#stars>  (1215) 
0

>  <i_qp_CNS>  (1215) 
1

>  <i_qp_HumanOralAbsorption>  (1215) 
3

>  <i_qp_RuleOfFive>  (1215) 
0

>  <i_qp_RuleOfThree>  (1215) 
1

>  <i_sd_BIOSOLVEIT.INFINISEE\_RESULT\_RANK>  (1215) 
79283

>  <i_sd_version>  (1215) 
0

>  <b_lp_Chiralities_Consistent>  (1215) 
1

>  <b_sd_chiral_flag>  (1215) 
0

>  <canonical_id>  (1215) 
ATP-HTVS-C038EE4FCBA5

>  <compound_code>  (1215) 
94113

>  <title>  (1215) 
rxn502a____EMOL505868____EMOL44820720____EMOL2873214

>  <variant>  (1215) 
94113-1

>  <source_file>  (1215) 
运行/运行/ATP-VSW/ATP-VSW-DOCK_HTVS_1-001_lib/ATP-VSW-DOCK_HTVS_1-001_lib

>  <canonical_smiles>  (1215) 
C[NH+](C)Cc1cccc(CNc2ccnc(NC(=O)c3ccccc3F)c2F)c1

>  <scaffold>  (1215) 
O=C(Nc1cc(NCc2ccccc2)ccn1)c1ccccc1

>  <molecular_formula>  (1215) 
C22H23F2N4O+

$$$$
ATP-HTVS-C0568328686F
     RDKit          3D

 70 73  0  0  0  0  0  0  0  0999 V2000
  199.1044  179.4164  153.2841 O   0  0  0  0  0  0  0  0  0  0  0  0
  199.6963  178.7881  154.3616 C   0  0  0  0  0  0  0  0  0  0  0  0
  199.8164  179.5250  155.5621 C   0  0  0  0  0  0  0  0  0  0  0  0
  200.4337  178.9473  156.6895 C   0  0  0  0  0  0  0  0  0  0  0  0
  200.9205  177.6299  156.6407 C   0  0  0  0  0  0  0  0  0  0  0  0
  200.7808  176.8656  155.4573 C   0  0  0  0  0  0  0  0  0  0  0  0
  201.1982  175.5603  155.3233 O   0  0  0  0  0  0  0  0  0  0  0  0
  201.9888  175.0091  156.3632 C   0  0  2  0  0  0  0  0  0  0  0  0
  200.1723  177.4538  154.3302 C   0  0  0  0  0  0  0  0  0  0  0  0
  199.2998  180.9489  155.6601 C   0  0  1  0  0  0  0  0  0  0  0  0
  197.9207  181.0636  156.1591 N   0  0  0  0  0  0  0  0  0  0  0  0
  197.5645  181.9989  157.1429 C   0  0  0  0  0  0  0  0  0  0  0  0
  198.5251  182.6523  157.8216 N   0  0  0  0  0  0  0  0  0  0  0  0
  198.2016  183.5993  158.7381 C   0  0  0  0  0  0  0  0  0  0  0  0
  199.2868  184.2378  159.3577 N   0  0  0  0  0  0  0  0  0  0  0  0
  199.4408  185.7000  159.3169 C   0  0  1  0  0  0  0  0  0  0  0  0
  199.5140  186.3865  157.9517 C   0  0  0  0  0  0  0  0  0  0  0  0
  199.3852  187.8059  157.8527 C   0  0  0  0  0  0  0  0  0  0  0  0
  199.5202  188.4169  156.5811 C   0  0  0  0  0  0  0  0  0  0  0  0
  199.6939  187.6520  155.4157 C   0  0  0  0  0  0  0  0  0  0  0  0
  199.8020  186.2530  155.5067 C   0  0  0  0  0  0  0  0  0  0  0  0
  199.7392  185.6350  156.7698 C   0  0  0  0  0  0  0  0  0  0  0  0
  199.1318  188.7023  159.0757 C   0  0  1  0  0  0  0  0  0  0  0  0
  197.7218  189.1755  159.1781 N   0  0  2  0  0  0  0  0  0  0  0  0
  197.3701  190.2070  158.1708 C   0  0  2  0  0  0  0  0  0  0  0  0
  197.3824  189.6397  160.5447 C   0  0  2  0  0  0  0  0  0  0  0  0
  196.8564  183.8803  159.0253 C   0  0  0  0  0  0  0  0  0  0  0  0
  195.8900  183.1618  158.2916 C   0  0  0  0  0  0  0  0  0  0  0  0
  196.2699  182.2573  157.3650 N   0  0  0  0  0  0  0  0  0  0  0  0
  194.5031  183.3514  158.5330 C   0  0  0  0  0  0  0  0  0  0  0  0
  194.0978  184.2997  159.4874 C   0  0  0  0  0  0  0  0  0  0  0  0
  195.0622  185.0272  160.2121 C   0  0  0  0  0  0  0  0  0  0  0  0
  196.4330  184.7878  160.0305 C   0  0  0  0  0  0  0  0  0  0  0  0
  196.8728  180.4704  155.3120 C   0  0  2  0  0  0  0  0  0  0  0  0
  199.0450  178.7277  152.0446 C   0  0  2  0  0  0  0  0  0  0  0  0
  200.5400  179.5136  157.6028 H   0  0  0  0  0  0  0  0  0  0  0  0
  201.3894  177.2305  157.5280 H   0  0  0  0  0  0  0  0  0  0  0  0
  202.2001  173.9657  156.1303 H   0  0  0  0  0  0  0  0  0  0  0  0
  201.4825  175.0383  157.3280 H   0  0  0  0  0  0  0  0  0  0  0  0
  202.9406  175.5329  156.4443 H   0  0  0  0  0  0  0  0  0  0  0  0
  200.0777  176.8453  153.4436 H   0  0  0  0  0  0  0  0  0  0  0  0
  200.0312  181.4728  156.2785 H   0  0  0  0  0  0  0  0  0  0  0  0
  199.3485  181.4334  154.6830 H   0  0  0  0  0  0  0  0  0  0  0  0
  200.1549  183.7279  159.2777 H   0  0  0  0  0  0  0  0  0  0  0  0
  198.6121  186.1824  159.8424 H   0  0  0  0  0  0  0  0  0  0  0  0
  200.3675  185.9404  159.8577 H   0  0  0  0  0  0  0  0  0  0  0  0
  199.4957  189.4934  156.4814 H   0  0  0  0  0  0  0  0  0  0  0  0
  199.7678  188.1421  154.4534 H   0  0  0  0  0  0  0  0  0  0  0  0
  199.9740  185.6556  154.6213 H   0  0  0  0  0  0  0  0  0  0  0  0
  199.8834  184.5656  156.7934 H   0  0  0  0  0  0  0  0  0  0  0  0
  199.3999  188.2025  160.0074 H   0  0  0  0  0  0  0  0  0  0  0  0
  199.8101  189.5547  159.0403 H   0  0  0  0  0  0  0  0  0  0  0  0
  198.0092  191.0860  158.2625 H   0  0  0  0  0  0  0  0  0  0  0  0
  196.3500  190.5387  158.2966 H   0  0  0  0  0  0  0  0  0  0  0  0
  197.4206  189.8264  157.1552 H   0  0  0  0  0  0  0  0  0  0  0  0
  197.9883  190.5033  160.8261 H   0  0  0  0  0  0  0  0  0  0  0  0
  197.5477  188.8562  161.2875 H   0  0  0  0  0  0  0  0  0  0  0  0
  196.3325  189.9336  160.6057 H   0  0  0  0  0  0  0  0  0  0  0  0
  193.7776  182.7885  157.9515 H   0  0  0  0  0  0  0  0  0  0  0  0
  193.0338  184.4634  159.6753 H   0  0  0  0  0  0  0  0  0  0  0  0
  194.7539  185.7466  160.9597 H   0  0  0  0  0  0  0  0  0  0  0  0
  197.1415  185.2716  160.6945 H   0  0  0  0  0  0  0  0  0  0  0  0
  195.9693  180.2401  155.8724 H   0  0  0  0  0  0  0  0  0  0  0  0
  197.1812  179.5279  154.8653 H   0  0  0  0  0  0  0  0  0  0  0  0
  196.6013  181.1580  154.5103 H   0  0  0  0  0  0  0  0  0  0  0  0
  198.5118  179.3393  151.3166 H   0  0  0  0  0  0  0  0  0  0  0  0
  198.5067  177.7843  152.1230 H   0  0  0  0  0  0  0  0  0  0  0  0
  200.0479  178.5432  151.6596 H   0  0  0  0  0  0  0  0  0  0  0  0
  195.5449  181.7306  156.8638 H   0  0  0  0  0  0  0  0  0  0  0  0
  197.1302  188.3748  159.0009 H   0  0  0  0  0  0  0  0  0  0  0  0
  1  2  1  0
  1 35  1  0
  2  3  2  0
  2  9  1  0
  3  4  1  0
  3 10  1  0
  4  5  2  0
  4 36  1  0
  5  6  1  0
  5 37  1  0
  6  7  1  0
  6  9  2  0
  7  8  1  0
  8 38  1  6
  8 39  1  0
  8 40  1  0
  9 41  1  0
 10 11  1  0
 10 42  1  1
 10 43  1  0
 11 12  1  0
 11 34  1  0
 12 13  1  0
 12 29  2  0
 13 14  2  0
 14 15  1  0
 14 27  1  0
 15 16  1  0
 15 44  1  0
 16 17  1  0
 16 45  1  1
 16 46  1  0
 17 18  1  0
 17 22  2  0
 18 19  2  0
 18 23  1  0
 19 20  1  0
 19 47  1  0
 20 21  2  0
 20 48  1  0
 21 22  1  0
 21 49  1  0
 22 50  1  0
 23 24  1  0
 23 51  1  1
 23 52  1  0
 24 25  1  0
 24 26  1  0
 24 70  1  6
 25 53  1  6
 25 54  1  0
 25 55  1  0
 26 56  1  1
 26 57  1  0
 26 58  1  0
 27 28  1  0
 27 33  2  0
 28 29  1  0
 28 30  2  0
 29 69  1  0
 30 31  1  0
 30 59  1  0
 31 32  2  0
 31 60  1  0
 32 33  1  0
 32 61  1  0
 33 62  1  0
 34 63  1  1
 34 64  1  0
 34 65  1  0
 35 66  1  6
 35 67  1  0
 35 68  1  0
M  CHG  2  24   1  29   1
M  END
>  <s_epik_cmdline>  (1216) 
J2VwaWtfcHl0aG9uJywgJy1waCcsICc3LjAwMDAwMCcsICctcGh0JywgJzIuMDAwMDAwJywgJy1tcycsICcxNicsICctdG4nLCAnOCcsICctbWEnLCAnMjAwJywgJy1pbWFlJywgJzxpbmZpbGUubWFlPicsICctb21hZScsICc8b3V0ZmlsZS5tYWU+Jw==

>  <s_epik_input>  (1216) 
W0NIM11PYyhbY0hdMSlbY0hdW2NIXWMoYzFPW0NIM10pW0NIMl1OKFtDSDNdKWMobmMoYzIzKVtjSF1bY0hdW2NIXVtjSF0zKW5jMltOSF1bQ0gyXWM0YyhbQ0gyXU4oW0NIM10pW0NIM10pW2NIXVtjSF1bY0hdW2NIXTQ=

>  <s_i_glide_gridfile>  (1216) 
ATP-Grid

>  <s_lp_Force_Field>  (1216) 
OPLS_2005

>  <s_lp_Variant>  (1216) 
m_282030aaa____21932016____22360182____21973156-1

>  <s_lp_label>  (1216) 
1241_sdstereoexpander_1_neutralizer_1_epik_1_stereoizer_1

>  <s_m_source_file>  (1216) 
ATP-VSW-LIGPREP-001-in.maegz

>  <s_sd_BIOSOLVEIT.INFINISEE\_QUERY\_NAME>  (1216) 
Ref-Lig

>  <s_sd_BIOSOLVEIT.INFINISEE\_QUERY\_SMILES>  (1216) 
S(c1nc2c(cc1C[NH2+]Cc3ccc(cc3)C[NH+](C)C)cccc2)Cc4ccccc4

>  <s_sd_BIOSOLVEIT.INFINISEE\_REACTION\_NAME>  (1216) 
m_282030aaa

>  <s_sd_BIOSOLVEIT.INFINISEE\_REAGENT1\_SMILES>  (1216) 
[R1*]N(Cc1c(OC)cc(OC)cc1)C

>  <s_sd_BIOSOLVEIT.INFINISEE\_REAGENT2\_SMILES>  (1216) 
[R2*]c1nc([R1*])c2c(n1)cccc2

>  <s_sd_BIOSOLVEIT.INFINISEE\_REAGENT3\_SMILES>  (1216) 
[R2*]NCc1c(cccc1)CN(C)C

>  <s_sd_BIOSOLVEIT.INFINISEE\_SPACE>  (1216) 
REALSpace_44bn_2023-08

>  <s_vsw_compound_code>  (1216) 
39681

>  <s_vsw_variant>  (1216) 
39681-1

>  <r_epik_Charging_Adjusted_Penalty>  (1216) 
0.090423756577334299

>  <r_epik_Ionization_Penalty>  (1216) 
0.045499999999999999

>  <r_epik_Ionization_Penalty_Charging>  (1216) 
0.045400000000000003

>  <r_epik_Ionization_Penalty_Neutral>  (1216) 
0

>  <r_epik_State_Penalty>  (1216) 
0.044999999999999998

>  <r_i_docking_score>  (1216) 
-3.33357646445703

>  <r_i_glide_ecoul>  (1216) 
-2.9555759429931601

>  <r_i_glide_eff_state_penalty>  (1216) 
0.044999999999999998

>  <r_i_glide_einternal>  (1216) 
7.6042776107788104

>  <r_i_glide_emodel>  (1216) 
-48.075195179682098

>  <r_i_glide_energy>  (1216) 
-38.019456863403299

>  <r_i_glide_erotb>  (1216) 
0.63128705157462905

>  <r_i_glide_esite>  (1216) 
-0.18554299060959001

>  <r_i_glide_evdw>  (1216) 
-35.063880920410199

>  <r_i_glide_gscore>  (1216) 
-3.37857646445703

>  <r_i_glide_hbond>  (1216) 
0

>  <r_i_glide_ligand_efficiency>  (1216) 
-0.095245041841629505

>  <r_i_glide_ligand_efficiency_ln>  (1216) 
-0.73179401869175498

>  <r_i_glide_ligand_efficiency_sa>  (1216) 
-0.31155284721143101

>  <r_i_glide_lipo>  (1216) 
-1.44785690613441

>  <r_i_glide_metal>  (1216) 
-0

>  <r_i_glide_rewards>  (1216) 
-0.17993318181817999

>  <r_lp_Energy>  (1216) 
22.736394000000001

>  <r_lp_tautomer_probability>  (1216) 
0.99350799999861505

>  <r_qp_ACxDN^.5/SA>  (1216) 
0.0098653000000000005

>  <r_qp_CIQPlogS>  (1216) 
-6.476

>  <r_qp_EA(eV)>  (1216) 
0.59499999999999997

>  <r_qp_FISA>  (1216) 
21.349

>  <r_qp_FOSA>  (1216) 
347.82100000000003

>  <r_qp_IP(eV)>  (1216) 
7.9480000000000004

>  <r_qp_Jm>  (1216) 
4.3865719671837402

>  <r_qp_PISA>  (1216) 
289.70699999999999

>  <r_qp_PSA>  (1216) 
45.956000000000003

>  <r_qp_PercentHumanOralAbsorption>  (1216) 
100

>  <r_qp_QPPCaco>  (1216) 
1550.0699999999999

>  <r_qp_QPPMDCK>  (1216) 
878.976

>  <r_qp_QPlogBB>  (1216) 
0.186

>  <r_qp_QPlogHERG>  (1216) 
-5.1589999999999998

>  <r_qp_QPlogKhsa>  (1216) 
0.68000000000000005

>  <r_qp_QPlogKp>  (1216) 
-1.9950000000000001

>  <r_qp_QPlogPC16>  (1216) 
13.335000000000001

>  <r_qp_QPlogPo/w>  (1216) 
4.8799999999999999

>  <r_qp_QPlogPoct>  (1216) 
19.832000000000001

>  <r_qp_QPlogPw>  (1216) 
9.0820000000000007

>  <r_qp_QPlogS>  (1216) 
-3.0369999999999999

>  <r_qp_QPpolrz>  (1216) 
45.084000000000003

>  <r_qp_SASA>  (1216) 
658.87699999999995

>  <r_qp_SAamideO>  (1216) 
0

>  <r_qp_SAfluorine>  (1216) 
0

>  <r_qp_WPSA>  (1216) 
0

>  <r_qp_accptHB>  (1216) 
6.5

>  <r_qp_dip^2/V>  (1216) 
0.012189699999999999

>  <r_qp_dipole>  (1216) 
4.0890000000000004

>  <r_qp_donorHB>  (1216) 
1

>  <r_qp_glob>  (1216) 
0.90611779999999997

>  <r_qp_mol_MW>  (1216) 
471.601

>  <r_qp_volume>  (1216) 
1371.626

>  <r_sd_BIOSOLVEIT.INFINISEE\_FTREES\_SIMILARITY>  (1216) 
0.91100000000000003

>  <r_sd_BIOSOLVEIT.LOGP>  (1216) 
3.54

>  <r_sd_BIOSOLVEIT.MOLECULAR\_WEIGHT>  (1216) 
472.61000000000001

>  <r_sd_BIOSOLVEIT.TPSA>  (1216) 
63.950000000000003

>  <i_epik_Tot_Q>  (1216) 
2

>  <i_epik_Tot_abs_Q>  (1216) 
2

>  <i_f3d_flags>  (1216) 
0

>  <i_i_glide_confnum>  (1216) 
9

>  <i_i_glide_lignum>  (1216) 
337

>  <i_i_glide_posenum>  (1216) 
15

>  <i_i_glide_rotatable_bonds>  (1216) 
10

>  <i_lp_mmshare_version>  (1216) 
65135

>  <i_m_ct_format>  (1216) 
2

>  <i_m_source_file_index>  (1216) 
1241

>  <i_qp_#NandO>  (1216) 
7

>  <i_qp_#acid>  (1216) 
0

>  <i_qp_#amide>  (1216) 
0

>  <i_qp_#amidine>  (1216) 
0

>  <i_qp_#amine>  (1216) 
1

>  <i_qp_#in34>  (1216) 
0

>  <i_qp_#in56>  (1216) 
22

>  <i_qp_#metab>  (1216) 
7

>  <i_qp_#nonHatm>  (1216) 
35

>  <i_qp_#noncon>  (1216) 
0

>  <i_qp_#ringatoms>  (1216) 
22

>  <i_qp_#rotor>  (1216) 
10

>  <i_qp_#rtvFG>  (1216) 
0

>  <i_qp_#stars>  (1216) 
0

>  <i_qp_CNS>  (1216) 
1

>  <i_qp_HumanOralAbsorption>  (1216) 
3

>  <i_qp_RuleOfFive>  (1216) 
0

>  <i_qp_RuleOfThree>  (1216) 
1

>  <i_sd_BIOSOLVEIT.INFINISEE\_REAGENT1\_NAME>  (1216) 
21932016

>  <i_sd_BIOSOLVEIT.INFINISEE\_REAGENT2\_NAME>  (1216) 
22360182

>  <i_sd_BIOSOLVEIT.INFINISEE\_REAGENT3\_NAME>  (1216) 
21973156

>  <i_sd_BIOSOLVEIT.INFINISEE\_RESULT\_RANK>  (1216) 
42917

>  <i_sd_version>  (1216) 
0

>  <b_lp_Chiralities_Consistent>  (1216) 
1

>  <b_sd_chiral_flag>  (1216) 
0

>  <canonical_id>  (1216) 
ATP-HTVS-C0568328686F

>  <compound_code>  (1216) 
39681

>  <title>  (1216) 
m_282030aaa____21932016____22360182____21973156

>  <variant>  (1216) 
39681-1

>  <source_file>  (1216) 
运行/运行/ATP-VSW/ATP-VSW-DOCK_HTVS_1-001_lib/ATP-VSW-DOCK_HTVS_1-001_lib

>  <canonical_smiles>  (1216) 
COc1ccc(CN(C)c2nc(NCc3ccccc3C[NH+](C)C)c3ccccc3[nH+]2)c(OC)c1

>  <scaffold>  (1216) 
c1ccc(CNc2nc(NCc3ccccc3)c3ccccc3[nH+]2)cc1

>  <molecular_formula>  (1216) 
C28H35N5O2+2

$$$$
ATP-HTVS-C0772D58369C
     RDKit          3D

 58 61  0  0  0  0  0  0  0  0999 V2000
  196.1160  188.1717  160.7871 F   0  0  0  0  0  0  0  0  0  0  0  0
  195.9249  186.9241  160.3379 C   0  0  0  0  0  0  0  0  0  0  0  0
  196.9186  186.2955  159.5758 C   0  0  0  0  0  0  0  0  0  0  0  0
  196.6975  184.9834  159.0921 C   0  0  0  0  0  0  0  0  0  0  0  0
  195.4875  184.3042  159.3808 C   0  0  0  0  0  0  0  0  0  0  0  0
  195.2304  183.0551  158.9770 N   0  0  0  0  0  0  0  0  0  0  0  0
  196.1677  182.4269  158.2447 C   0  0  0  0  0  0  0  0  0  0  0  0
  197.3931  183.0250  157.8275 C   0  0  0  0  0  0  0  0  0  0  0  0
  197.6855  184.3377  158.3006 C   0  0  0  0  0  0  0  0  0  0  0  0
  198.9085  185.0000  158.0150 N   0  0  0  0  0  0  0  0  0  0  0  0
  200.0445  184.9848  158.8664 C   0  0  0  0  0  0  0  0  0  0  0  0
  200.9144  186.1046  158.9610 C   0  0  0  0  0  0  0  0  0  0  0  0
  200.6335  187.2595  158.2137 N   0  0  0  0  0  0  0  0  0  0  0  0
  201.4620  188.4475  158.2807 C   0  0  2  0  0  0  0  0  0  0  0  0
  202.0208  186.0627  159.8442 C   0  0  0  0  0  0  0  0  0  0  0  0
  202.2807  184.9241  160.6268 C   0  0  0  0  0  0  0  0  0  0  0  0
  201.4358  183.8066  160.5321 C   0  0  0  0  0  0  0  0  0  0  0  0
  200.3274  183.8425  159.6619 C   0  0  0  0  0  0  0  0  0  0  0  0
  199.1748  185.2392  156.5899 C   0  0  2  0  0  0  0  0  0  0  0  0
  198.3326  182.2723  156.9230 C   0  0  0  0  0  0  0  0  0  0  0  0
  199.5504  182.3990  157.1113 O   0  0  0  0  0  0  0  0  0  0  0  0
  197.8763  181.5499  155.8778 N   0  0  0  0  0  0  0  0  0  0  0  0
  198.8042  180.8268  154.9799 C   0  0  1  0  0  0  0  0  0  0  0  0
  199.7875  181.7364  154.3466 C   0  0  0  0  0  0  0  0  0  0  0  0
  200.5597  182.4441  153.8496 N   0  0  0  0  0  0  0  0  0  0  0  0
  199.4899  179.5965  155.5925 C   0  0  0  0  0  0  0  0  0  0  0  0
  200.1887  179.6542  156.8187 C   0  0  0  0  0  0  0  0  0  0  0  0
  200.7917  178.5476  157.3843 C   0  0  0  0  0  0  0  0  0  0  0  0
  200.7510  177.3100  156.7226 C   0  0  0  0  0  0  0  0  0  0  0  0
  200.0841  177.2162  155.4794 C   0  0  0  0  0  0  0  0  0  0  0  0
  199.4506  178.3486  154.9104 C   0  0  0  0  0  0  0  0  0  0  0  0
  196.4721  181.5467  155.4568 C   0  0  2  0  0  0  0  0  0  0  0  0
  194.5147  184.9590  160.1454 C   0  0  0  0  0  0  0  0  0  0  0  0
  194.7302  186.2490  160.6223 C   0  0  0  0  0  0  0  0  0  0  0  0
  197.8282  186.8297  159.3538 H   0  0  0  0  0  0  0  0  0  0  0  0
  195.8909  181.4161  157.9605 H   0  0  0  0  0  0  0  0  0  0  0  0
  199.8483  187.2304  157.5795 H   0  0  0  0  0  0  0  0  0  0  0  0
  201.0792  189.2033  157.5954 H   0  0  0  0  0  0  0  0  0  0  0  0
  202.4884  188.2158  157.9967 H   0  0  0  0  0  0  0  0  0  0  0  0
  201.4507  188.8607  159.2892 H   0  0  0  0  0  0  0  0  0  0  0  0
  202.6754  186.9137  159.9510 H   0  0  0  0  0  0  0  0  0  0  0  0
  203.1217  184.9160  161.3061 H   0  0  0  0  0  0  0  0  0  0  0  0
  201.6329  182.9301  161.1396 H   0  0  0  0  0  0  0  0  0  0  0  0
  199.7057  182.9628  159.6260 H   0  0  0  0  0  0  0  0  0  0  0  0
  200.1590  184.8753  156.2829 H   0  0  0  0  0  0  0  0  0  0  0  0
  199.1178  186.2990  156.3665 H   0  0  0  0  0  0  0  0  0  0  0  0
  198.4494  184.7543  155.9370 H   0  0  0  0  0  0  0  0  0  0  0  0
  198.2233  180.4859  154.1172 H   0  0  0  0  0  0  0  0  0  0  0  0
  200.3333  180.5242  157.4263 H   0  0  0  0  0  0  0  0  0  0  0  0
  201.2881  178.6774  158.3320 H   0  0  0  0  0  0  0  0  0  0  0  0
  201.2506  176.4561  157.1892 H   0  0  0  0  0  0  0  0  0  0  0  0
  200.0637  176.2581  154.9731 H   0  0  0  0  0  0  0  0  0  0  0  0
  198.9398  178.2433  153.9430 H   0  0  0  0  0  0  0  0  0  0  0  0
  195.9769  182.4945  155.6822 H   0  0  0  0  0  0  0  0  0  0  0  0
  195.9552  180.7386  155.9769 H   0  0  0  0  0  0  0  0  0  0  0  0
  196.3209  181.3962  154.3939 H   0  0  0  0  0  0  0  0  0  0  0  0
  193.5921  184.4327  160.3346 H   0  0  0  0  0  0  0  0  0  0  0  0
  193.9591  186.7269  161.2057 H   0  0  0  0  0  0  0  0  0  0  0  0
  1  2  1  0
  2  3  1  0
  2 34  2  0
  3  4  2  0
  3 35  1  0
  4  5  1  0
  4  9  1  0
  5  6  1  0
  5 33  2  0
  6  7  2  0
  7  8  1  0
  7 36  1  0
  8  9  2  0
  8 20  1  0
  9 10  1  0
 10 11  1  0
 10 19  1  0
 11 12  1  0
 11 18  2  0
 12 13  1  0
 12 15  2  0
 13 14  1  0
 13 37  1  0
 14 38  1  6
 14 39  1  0
 14 40  1  0
 15 16  1  0
 15 41  1  0
 16 17  2  0
 16 42  1  0
 17 18  1  0
 17 43  1  0
 18 44  1  0
 19 45  1  6
 19 46  1  0
 19 47  1  0
 20 21  2  0
 20 22  1  0
 22 23  1  0
 22 32  1  0
 23 24  1  0
 23 26  1  0
 23 48  1  6
 24 25  3  0
 26 27  2  0
 26 31  1  0
 27 28  1  0
 27 49  1  0
 28 29  2  0
 28 50  1  0
 29 30  1  0
 29 51  1  0
 30 31  2  0
 30 52  1  0
 31 53  1  0
 32 54  1  1
 32 55  1  0
 32 56  1  0
 33 34  1  0
 33 57  1  0
 34 58  1  0
M  END
>  <s_epik_cmdline>  (1217) 
J2VwaWtfcHl0aG9uJywgJy1waCcsICc3LjAwMDAwMCcsICctcGh0JywgJzIuMDAwMDAwJywgJy1tcycsICcxNicsICctdG4nLCAnOCcsICctbWEnLCAnMjAwJywgJy1pbWFlJywgJzxpbmZpbGUubWFlPicsICctb21hZScsICc8b3V0ZmlsZS5tYWU+Jw==

>  <s_epik_input>  (1217) 
W2NIXTFbY0hdW2NIXVtjSF1jKFtOSF1bQ0gzXSljMU4oW0NIM10pYzJjKFtjSF1uYyhjMjMpW2NIXVtjSF1jKEYpW2NIXTMpQyg9TylOKFtDSDNdKVtDQEBIXShDI04pYzRbY0hdW2NIXVtjSF1bY0hdW2NIXTQ=

>  <s_i_glide_gridfile>  (1217) 
ATP-Grid

>  <s_lp_Force_Field>  (1217) 
OPLS_2005

>  <s_lp_Variant>  (1217) 
rxn512c____EMOL36772515____EMOL36725275____EMOL24630243-1

>  <s_lp_label>  (1217) 
3105_sdstereoexpander_1_neutralizer_1_epik_1_stereoizer_1

>  <s_m_source_file>  (1217) 
ATP-VSW-LIGPREP-002-in.maegz

>  <s_sd_BIOSOLVEIT.INFINISEE\_QUERY\_NAME>  (1217) 
Ref-Lig

>  <s_sd_BIOSOLVEIT.INFINISEE\_QUERY\_SMILES>  (1217) 
S(c1nc2c(cc1C[NH2+]Cc3ccc(cc3)C[NH+](C)C)cccc2)Cc4ccccc4

>  <s_sd_BIOSOLVEIT.INFINISEE\_REACTION\_NAME>  (1217) 
rxn512c

>  <s_sd_BIOSOLVEIT.INFINISEE\_REAGENT1\_NAME>  (1217) 
EMOL36772515

>  <s_sd_BIOSOLVEIT.INFINISEE\_REAGENT1\_SMILES>  (1217) 
N(c1c(NC)cccc1)C

>  <s_sd_BIOSOLVEIT.INFINISEE\_REAGENT2\_NAME>  (1217) 
EMOL36725275

>  <s_sd_BIOSOLVEIT.INFINISEE\_REAGENT2\_SMILES>  (1217) 
Clc1c2c(ncc1C(=O)O)ccc(F)c2

>  <s_sd_BIOSOLVEIT.INFINISEE\_REAGENT3\_NAME>  (1217) 
EMOL24630243

>  <s_sd_BIOSOLVEIT.INFINISEE\_REAGENT3\_SMILES>  (1217) 
N#CC(NC)c1ccccc1

>  <s_sd_BIOSOLVEIT.INFINISEE\_SPACE>  (1217) 
eXplore_7tr_2022-12

>  <s_vsw_compound_code>  (1217) 
99330

>  <s_vsw_variant>  (1217) 
99330-1

>  <r_epik_Charging_Adjusted_Penalty>  (1217) 
0.055329387074300698

>  <r_epik_Ionization_Penalty>  (1217) 
0.056300000000000003

>  <r_epik_Ionization_Penalty_Charging>  (1217) 
0

>  <r_epik_Ionization_Penalty_Neutral>  (1217) 
0.056300000000000003

>  <r_epik_State_Penalty>  (1217) 
0.055300000000000002

>  <r_i_docking_score>  (1217) 
-3.8510538606857998

>  <r_i_glide_ecoul>  (1217) 
-0.70845365524292003

>  <r_i_glide_eff_state_penalty>  (1217) 
0.055300000000000002

>  <r_i_glide_einternal>  (1217) 
1.70626056194305

>  <r_i_glide_emodel>  (1217) 
-48.311236882854097

>  <r_i_glide_energy>  (1217) 
-39.568461894988999

>  <r_i_glide_erotb>  (1217) 
0.488002919385087

>  <r_i_glide_esite>  (1217) 
-0.054917135590657098

>  <r_i_glide_evdw>  (1217) 
-38.860008239746101

>  <r_i_glide_gscore>  (1217) 
-3.9063538606858002

>  <r_i_glide_hbond>  (1217) 
0

>  <r_i_glide_ligand_efficiency>  (1217) 
-0.113266290020171

>  <r_i_glide_ligand_efficiency_ln>  (1217) 
-0.85080581622745799

>  <r_i_glide_ligand_efficiency_sa>  (1217) 
-0.366938809404943

>  <r_i_glide_lipo>  (1217) 
-1.6876852082188201

>  <r_i_glide_metal>  (1217) 
-0

>  <r_i_glide_rewards>  (1217) 
-0.60248597598766296

>  <r_lp_Energy>  (1217) 
47.103237

>  <r_qp_ACxDN^.5/SA>  (1217) 
0.0098714000000000007

>  <r_qp_CIQPlogS>  (1217) 
-7.9489999999999998

>  <r_qp_EA(eV)>  (1217) 
1.4350000000000001

>  <r_qp_FISA>  (1217) 
90.810000000000002

>  <r_qp_FOSA>  (1217) 
138.96799999999999

>  <r_qp_IP(eV)>  (1217) 
7.9800000000000004

>  <r_qp_Jm>  (1217) 
0.0104499285561797

>  <r_qp_PISA>  (1217) 
432.43799999999999

>  <r_qp_PSA>  (1217) 
70.441000000000003

>  <r_qp_PercentHumanOralAbsorption>  (1217) 
100

>  <r_qp_QPPCaco>  (1217) 
1363.8009999999999

>  <r_qp_QPPMDCK>  (1217) 
1250.0530000000001

>  <r_qp_QPlogBB>  (1217) 
-0.61099999999999999

>  <r_qp_QPlogHERG>  (1217) 
-6.258

>  <r_qp_QPlogKhsa>  (1217) 
0.627

>  <r_qp_QPlogKp>  (1217) 
-0.998

>  <r_qp_QPlogPC16>  (1217) 
14.382999999999999

>  <r_qp_QPlogPo/w>  (1217) 
4.9249999999999998

>  <r_qp_QPlogPoct>  (1217) 
21.599

>  <r_qp_QPlogPw>  (1217) 
11.817

>  <r_qp_QPlogS>  (1217) 
-6.6399999999999997

>  <r_qp_QPpolrz>  (1217) 
47.732999999999997

>  <r_qp_SASA>  (1217) 
709.11800000000005

>  <r_qp_SAamideO>  (1217) 
0

>  <r_qp_SAfluorine>  (1217) 
46.902000000000001

>  <r_qp_WPSA>  (1217) 
46.902000000000001

>  <r_qp_accptHB>  (1217) 
7

>  <r_qp_dip^2/V>  (1217) 
0.0080876000000000003

>  <r_qp_dipole>  (1217) 
3.3109999999999999

>  <r_qp_donorHB>  (1217) 
1

>  <r_qp_glob>  (1217) 
0.83536100000000002

>  <r_qp_mol_MW>  (1217) 
453.51799999999997

>  <r_qp_volume>  (1217) 
1355.6310000000001

>  <r_sd_BIOSOLVEIT.INFINISEE\_FTREES\_SIMILARITY>  (1217) 
0.90100000000000002

>  <r_sd_BIOSOLVEIT.LOGP>  (1217) 
5.5203800000000003

>  <r_sd_BIOSOLVEIT.MOLECULAR\_WEIGHT>  (1217) 
453.51900000000001

>  <r_sd_BIOSOLVEIT.TPSA>  (1217) 
72.260000000000005

>  <i_epik_Tot_Q>  (1217) 
0

>  <i_epik_Tot_abs_Q>  (1217) 
0

>  <i_f3d_flags>  (1217) 
0

>  <i_i_glide_confnum>  (1217) 
5

>  <i_i_glide_lignum>  (1217) 
146

>  <i_i_glide_posenum>  (1217) 
15

>  <i_i_glide_rotatable_bonds>  (1217) 
7

>  <i_lp_mmshare_version>  (1217) 
65135

>  <i_m_ct_format>  (1217) 
2

>  <i_m_source_file_index>  (1217) 
3105

>  <i_qp_#NandO>  (1217) 
6

>  <i_qp_#acid>  (1217) 
0

>  <i_qp_#amide>  (1217) 
0

>  <i_qp_#amidine>  (1217) 
0

>  <i_qp_#amine>  (1217) 
0

>  <i_qp_#in34>  (1217) 
0

>  <i_qp_#in56>  (1217) 
22

>  <i_qp_#metab>  (1217) 
9

>  <i_qp_#nonHatm>  (1217) 
34

>  <i_qp_#noncon>  (1217) 
0

>  <i_qp_#ringatoms>  (1217) 
22

>  <i_qp_#rotor>  (1217) 
7

>  <i_qp_#rtvFG>  (1217) 
0

>  <i_qp_#stars>  (1217) 
2

>  <i_qp_CNS>  (1217) 
0

>  <i_qp_HumanOralAbsorption>  (1217) 
1

>  <i_qp_RuleOfFive>  (1217) 
0

>  <i_qp_RuleOfThree>  (1217) 
2

>  <i_sd_BIOSOLVEIT.INFINISEE\_RESULT\_RANK>  (1217) 
97600

>  <i_sd_version>  (1217) 
0

>  <b_lp_Chiralities_Consistent>  (1217) 
1

>  <b_sd_chiral_flag>  (1217) 
0

>  <canonical_id>  (1217) 
ATP-HTVS-C0772D58369C

>  <compound_code>  (1217) 
99330

>  <title>  (1217) 
rxn512c____EMOL36772515____EMOL36725275____EMOL24630243

>  <variant>  (1217) 
99330-1

>  <source_file>  (1217) 
运行/运行/ATP-VSW/ATP-VSW-DOCK_HTVS_1-003_lib/ATP-VSW-DOCK_HTVS_1-003_lib.mae

>  <canonical_smiles>  (1217) 
CNc1ccccc1N(C)c1c(C(=O)N(C)[C@@H](C#N)c2ccccc2)cnc2ccc(F)cc12

>  <scaffold>  (1217) 
O=C(NCc1ccccc1)c1cnc2ccccc2c1Nc1ccccc1

>  <molecular_formula>  (1217) 
C27H24FN5O

$$$$
ATP-HTVS-C09627CFBEE5
     RDKit          3D

 63 65  0  0  0  0  0  0  0  0999 V2000
  195.2254  185.4881  160.5527 F   0  0  0  0  0  0  0  0  0  0  0  0
  195.0268  184.3562  159.8474 C   0  0  0  0  0  0  0  0  0  0  0  0
  196.1154  183.5135  159.5357 C   0  0  0  0  0  0  0  0  0  0  0  0
  195.8645  182.2789  158.8910 C   0  0  0  0  0  0  0  0  0  0  0  0
  194.5993  182.0219  158.3101 C   0  0  0  0  0  0  0  0  0  0  0  0
  193.5413  182.8983  158.5568 C   0  0  0  0  0  0  0  0  0  0  0  0
  193.7464  184.0458  159.3326 C   0  0  0  0  0  0  0  0  0  0  0  0
  197.5351  183.8764  159.9481 C   0  0  1  0  0  0  0  0  0  0  0  0
  198.5321  183.2562  159.1268 O   0  0  0  0  0  0  0  0  0  0  0  0
  199.0985  184.0331  158.1470 C   0  0  0  0  0  0  0  0  0  0  0  0
  200.1281  184.9583  158.4834 C   0  0  0  0  0  0  0  0  0  0  0  0
  200.5368  185.0202  159.8052 O   0  0  0  0  0  0  0  0  0  0  0  0
  201.5939  185.9133  160.1308 C   0  0  2  0  0  0  0  0  0  0  0  0
  200.7034  185.7419  157.4524 C   0  0  0  0  0  0  0  0  0  0  0  0
  200.2673  185.6191  156.1175 C   0  0  0  0  0  0  0  0  0  0  0  0
  199.2646  184.6811  155.7994 C   0  0  0  0  0  0  0  0  0  0  0  0
  198.6788  183.8821  156.7965 C   0  0  0  0  0  0  0  0  0  0  0  0
  197.6129  182.9042  156.3519 C   0  0  1  0  0  0  0  0  0  0  0  0
  198.0855  181.4907  156.3832 N   0  0  2  0  0  0  0  0  0  0  0  0
  199.4649  181.2977  155.8287 C   0  0  1  0  0  0  0  0  0  0  0  0
  200.0519  179.9225  156.1414 C   0  0  0  0  0  0  0  0  0  0  0  0
  199.8539  178.8921  155.2233 C   0  0  0  0  0  0  0  0  0  0  0  0
  200.4038  177.6188  155.4313 C   0  0  0  0  0  0  0  0  0  0  0  0
  201.0750  177.3595  156.6507 C   0  0  0  0  0  0  0  0  0  0  0  0
  201.2177  178.3810  157.6241 C   0  0  0  0  0  0  0  0  0  0  0  0
  200.7386  179.6817  157.3600 C   0  0  0  0  0  0  0  0  0  0  0  0
  200.2263  176.5125  154.4049 C   0  0  1  0  0  0  0  0  0  0  0  0
  200.7136  176.7893  153.0421 N   0  0  0  0  0  0  0  0  0  0  0  0
  199.9441  177.7887  152.3258 C   0  0  2  0  0  0  0  0  0  0  0  0
  200.6685  175.5582  152.2493 C   0  0  2  0  0  0  0  0  0  0  0  0
  197.1130  180.5766  155.7342 C   0  0  2  0  0  0  0  0  0  0  0  0
  196.6905  181.5788  158.6774 H   0  0  0  0  0  0  0  0  0  0  0  0
  194.4758  181.2170  157.6173 H   0  0  0  0  0  0  0  0  0  0  0  0
  192.5830  182.6982  158.1141 H   0  0  0  0  0  0  0  0  0  0  0  0
  192.9040  184.6864  159.5786 H   0  0  0  0  0  0  0  0  0  0  0  0
  197.6458  184.9561  159.9739 H   0  0  0  0  0  0  0  0  0  0  0  0
  197.6315  183.5071  160.9630 H   0  0  0  0  0  0  0  0  0  0  0  0
  201.8505  185.8023  161.1828 H   0  0  0  0  0  0  0  0  0  0  0  0
  201.2940  186.9494  159.9707 H   0  0  0  0  0  0  0  0  0  0  0  0
  202.4993  185.7110  159.5554 H   0  0  0  0  0  0  0  0  0  0  0  0
  201.4936  186.4440  157.6401 H   0  0  0  0  0  0  0  0  0  0  0  0
  200.7187  186.2003  155.3165 H   0  0  0  0  0  0  0  0  0  0  0  0
  198.9339  184.5667  154.7695 H   0  0  0  0  0  0  0  0  0  0  0  0
  196.8000  183.1273  156.9749 H   0  0  0  0  0  0  0  0  0  0  0  0
  197.2393  183.1412  155.3502 H   0  0  0  0  0  0  0  0  0  0  0  0
  199.4314  181.4463  154.7429 H   0  0  0  0  0  0  0  0  0  0  0  0
  200.2038  182.0138  156.2067 H   0  0  0  0  0  0  0  0  0  0  0  0
  199.2341  179.1400  154.3931 H   0  0  0  0  0  0  0  0  0  0  0  0
  201.4576  176.3648  156.8757 H   0  0  0  0  0  0  0  0  0  0  0  0
  201.6940  178.1648  158.5729 H   0  0  0  0  0  0  0  0  0  0  0  0
  200.8352  180.4711  158.1147 H   0  0  0  0  0  0  0  0  0  0  0  0
  200.7063  175.6041  154.7965 H   0  0  0  0  0  0  0  0  0  0  0  0
  199.1674  176.2769  154.3753 H   0  0  0  0  0  0  0  0  0  0  0  0
  200.2640  177.8710  151.2948 H   0  0  0  0  0  0  0  0  0  0  0  0
  200.0922  178.7541  152.7558 H   0  0  0  0  0  0  0  0  0  0  0  0
  198.9035  177.5182  152.3409 H   0  0  0  0  0  0  0  0  0  0  0  0
  201.0280  175.7645  151.2351 H   0  0  0  0  0  0  0  0  0  0  0  0
  199.6417  175.1816  152.1679 H   0  0  0  0  0  0  0  0  0  0  0  0
  201.3035  174.7571  152.6620 H   0  0  0  0  0  0  0  0  0  0  0  0
  196.9908  180.8307  154.6803 H   0  0  0  0  0  0  0  0  0  0  0  0
  196.1387  180.6555  156.1949 H   0  0  0  0  0  0  0  0  0  0  0  0
  197.3810  179.5143  155.7958 H   0  0  0  0  0  0  0  0  0  0  0  0
  198.1682  181.1701  157.3381 H   0  0  0  0  0  0  0  0  0  0  0  0
  1  2  1  0
  2  3  1  0
  2  7  2  0
  3  4  2  0
  3  8  1  0
  4  5  1  0
  4 32  1  0
  5  6  2  0
  5 33  1  0
  6  7  1  0
  6 34  1  0
  7 35  1  0
  8  9  1  0
  8 36  1  1
  8 37  1  0
  9 10  1  0
 10 11  2  0
 10 17  1  0
 11 12  1  0
 11 14  1  0
 12 13  1  0
 13 38  1  1
 13 39  1  0
 13 40  1  0
 14 15  2  0
 14 41  1  0
 15 16  1  0
 15 42  1  0
 16 17  2  0
 16 43  1  0
 17 18  1  0
 18 19  1  0
 18 44  1  1
 18 45  1  0
 19 20  1  0
 19 31  1  0
 19 63  1  1
 20 21  1  0
 20 46  1  6
 20 47  1  0
 21 22  1  0
 21 26  2  0
 22 23  2  0
 22 48  1  0
 23 24  1  0
 23 27  1  0
 24 25  2  0
 24 49  1  0
 25 26  1  0
 25 50  1  0
 26 51  1  0
 27 28  1  0
 27 52  1  1
 27 53  1  0
 28 29  1  0
 28 30  1  0
 29 54  1  6
 29 55  1  0
 29 56  1  0
 30 57  1  6
 30 58  1  0
 30 59  1  0
 31 60  1  6
 31 61  1  0
 31 62  1  0
M  CHG  1  19   1
M  END
>  <s_epik_cmdline>  (1218) 
J2VwaWtfcHl0aG9uJywgJy1waCcsICc3LjAwMDAwMCcsICctcGh0JywgJzIuMDAwMDAwJywgJy1tcycsICcxNicsICctdG4nLCAnOCcsICctbWEnLCAnMjAwJywgJy1pbWFlJywgJzxpbmZpbGUubWFlPicsICctb21hZScsICc8b3V0ZmlsZS5tYWU+Jw==

>  <s_epik_input>  (1218) 
W2NIXTFbY0hdW2NIXVtjSF1jKGMxRilbQ0gyXU9jMmMoT1tDSDNdKVtjSF1bY0hdW2NIXWMyW0NIMl1OKFtDSDNdKVtDSDJdYzNbY0hdYyhbY0hdW2NIXVtjSF0zKVtDSDJdTihbQ0gzXSlbQ0gzXQ==

>  <s_i_glide_gridfile>  (1218) 
ATP-Grid

>  <s_lp_Force_Field>  (1218) 
OPLS_2005

>  <s_lp_Variant>  (1218) 
m_2230bbc____9869382____18339498-5

>  <s_lp_label>  (1218) 
1966_sdstereoexpander_1_neutralizer_1_epik_3_stereoizer_2

>  <s_m_source_file>  (1218) 
ATP-VSW-LIGPREP-002-in.maegz

>  <s_sd_BIOSOLVEIT.INFINISEE\_QUERY\_NAME>  (1218) 
Ref-Lig

>  <s_sd_BIOSOLVEIT.INFINISEE\_QUERY\_SMILES>  (1218) 
S(c1nc2c(cc1C[NH2+]Cc3ccc(cc3)C[NH+](C)C)cccc2)Cc4ccccc4

>  <s_sd_BIOSOLVEIT.INFINISEE\_REACTION\_NAME>  (1218) 
m_2230bbc

>  <s_sd_BIOSOLVEIT.INFINISEE\_REAGENT1\_SMILES>  (1218) 
[R1*]N(Cc1c(OCc2c(F)cccc2)c(OC)ccc1)C

>  <s_sd_BIOSOLVEIT.INFINISEE\_REAGENT2\_SMILES>  (1218) 
[R1*]Cc1cc(ccc1)CN(C)C

>  <s_sd_BIOSOLVEIT.INFINISEE\_SPACE>  (1218) 
REALSpace_44bn_2023-08

>  <s_vsw_compound_code>  (1218) 
62882

>  <s_vsw_variant>  (1218) 
62882-5

>  <r_epik_Charging_Adjusted_Penalty>  (1218) 
1.73709980393953

>  <r_epik_Ionization_Penalty>  (1218) 
1.5596000000000001

>  <r_epik_Ionization_Penalty_Charging>  (1218) 
0.14030000000000001

>  <r_epik_Ionization_Penalty_Neutral>  (1218) 
1.4193

>  <r_epik_State_Penalty>  (1218) 
1.5968

>  <r_i_docking_score>  (1218) 
-2.4227452870073298

>  <r_i_glide_ecoul>  (1218) 
-5.6709232330322301

>  <r_i_glide_eff_state_penalty>  (1218) 
1.5968

>  <r_i_glide_einternal>  (1218) 
3.6685097217559801

>  <r_i_glide_emodel>  (1218) 
-46.628013012469403

>  <r_i_glide_energy>  (1218) 
-35.600151062011697

>  <r_i_glide_erotb>  (1218) 
0.883906693531746

>  <r_i_glide_esite>  (1218) 
-0.040476246355759998

>  <r_i_glide_evdw>  (1218) 
-29.929227828979499

>  <r_i_glide_gscore>  (1218) 
-4.0195452870073298

>  <r_i_glide_hbond>  (1218) 
0

>  <r_i_glide_ligand_efficiency>  (1218) 
-0.078153073774429996

>  <r_i_glide_ligand_efficiency_ln>  (1218) 
-0.54640331044632495

>  <r_i_glide_ligand_efficiency_sa>  (1218) 
-0.24550855359888701

>  <r_i_glide_lipo>  (1218) 
-1.4512452229222901

>  <r_i_glide_metal>  (1218) 
-0

>  <r_i_glide_rewards>  (1218) 
-1.0646306348572101

>  <r_lp_Energy>  (1218) 
27.873100999999998

>  <r_qp_ACxDN^.5/SA>  (1218) 
0

>  <r_qp_CIQPlogS>  (1218) 
-4.4779999999999998

>  <r_qp_EA(eV)>  (1218) 
-0.11700000000000001

>  <r_qp_FISA>  (1218) 
0.745

>  <r_qp_FOSA>  (1218) 
347.29700000000003

>  <r_qp_IP(eV)>  (1218) 
8.8390000000000004

>  <r_qp_Jm>  (1218) 
0.57213137392031799

>  <r_qp_PISA>  (1218) 
286.33699999999999

>  <r_qp_PSA>  (1218) 
17.696000000000002

>  <r_qp_PercentHumanOralAbsorption>  (1218) 
100

>  <r_qp_QPPCaco>  (1218) 
606.22199999999998

>  <r_qp_QPPMDCK>  (1218) 
569.61099999999999

>  <r_qp_QPlogBB>  (1218) 
0.84499999999999997

>  <r_qp_QPlogHERG>  (1218) 
-6.1959999999999997

>  <r_qp_QPlogKhsa>  (1218) 
0.69099999999999995

>  <r_qp_QPlogKp>  (1218) 
-3.6899999999999999

>  <r_qp_QPlogPC16>  (1218) 
12.631

>  <r_qp_QPlogPo/w>  (1218) 
4.9569999999999999

>  <r_qp_QPlogPoct>  (1218) 
17.641999999999999

>  <r_qp_QPlogPw>  (1218) 
6.5149999999999997

>  <r_qp_QPlogS>  (1218) 
-2.1789999999999998

>  <r_qp_QPpolrz>  (1218) 
44.871000000000002

>  <r_qp_SASA>  (1218) 
672.42600000000004

>  <r_qp_SAamideO>  (1218) 
0

>  <r_qp_SAfluorine>  (1218) 
38.045999999999999

>  <r_qp_WPSA>  (1218) 
38.045999999999999

>  <r_qp_accptHB>  (1218) 
5.5

>  <r_qp_dip^2/V>  (1218) 
0.0029960999999999998

>  <r_qp_dipole>  (1218) 
2.024

>  <r_qp_donorHB>  (1218) 
0

>  <r_qp_glob>  (1218) 
0.88590880000000005

>  <r_qp_mol_MW>  (1218) 
422.541

>  <r_qp_volume>  (1218) 
1367.107

>  <r_sd_BIOSOLVEIT.INFINISEE\_FTREES\_SIMILARITY>  (1218) 
0.90200000000000002

>  <r_sd_BIOSOLVEIT.LOGP>  (1218) 
2.2726999999999999

>  <r_sd_BIOSOLVEIT.MOLECULAR\_WEIGHT>  (1218) 
424.55700000000002

>  <r_sd_BIOSOLVEIT.TPSA>  (1218) 
27.34

>  <i_epik_Tot_Q>  (1218) 
1

>  <i_epik_Tot_abs_Q>  (1218) 
1

>  <i_f3d_flags>  (1218) 
0

>  <i_i_glide_confnum>  (1218) 
8

>  <i_i_glide_lignum>  (1218) 
709

>  <i_i_glide_posenum>  (1218) 
3

>  <i_i_glide_rotatable_bonds>  (1218) 
10

>  <i_lp_mmshare_version>  (1218) 
65135

>  <i_m_ct_format>  (1218) 
2

>  <i_m_source_file_index>  (1218) 
1966

>  <i_qp_#NandO>  (1218) 
4

>  <i_qp_#acid>  (1218) 
0

>  <i_qp_#amide>  (1218) 
0

>  <i_qp_#amidine>  (1218) 
0

>  <i_qp_#amine>  (1218) 
2

>  <i_qp_#in34>  (1218) 
0

>  <i_qp_#in56>  (1218) 
18

>  <i_qp_#metab>  (1218) 
8

>  <i_qp_#nonHatm>  (1218) 
31

>  <i_qp_#noncon>  (1218) 
0

>  <i_qp_#ringatoms>  (1218) 
18

>  <i_qp_#rotor>  (1218) 
10

>  <i_qp_#rtvFG>  (1218) 
0

>  <i_qp_#stars>  (1218) 
1

>  <i_qp_CNS>  (1218) 
2

>  <i_qp_HumanOralAbsorption>  (1218) 
3

>  <i_qp_RuleOfFive>  (1218) 
0

>  <i_qp_RuleOfThree>  (1218) 
1

>  <i_sd_BIOSOLVEIT.INFINISEE\_REAGENT1\_NAME>  (1218) 
9869382

>  <i_sd_BIOSOLVEIT.INFINISEE\_REAGENT2\_NAME>  (1218) 
18339498

>  <i_sd_BIOSOLVEIT.INFINISEE\_RESULT\_RANK>  (1218) 
88458

>  <i_sd_version>  (1218) 
0

>  <b_lp_Chiralities_Consistent>  (1218) 
1

>  <b_sd_chiral_flag>  (1218) 
0

>  <canonical_id>  (1218) 
ATP-HTVS-C09627CFBEE5

>  <compound_code>  (1218) 
62882

>  <title>  (1218) 
m_2230bbc____9869382____18339498

>  <variant>  (1218) 
62882-5

>  <source_file>  (1218) 
运行/运行/ATP-VSW/ATP-VSW-DOCK_HTVS_1-002_lib.maegz

>  <canonical_smiles>  (1218) 
COc1cccc(C[N@@H+](C)Cc2cccc(CN(C)C)c2)c1OCc1ccccc1F

>  <scaffold>  (1218) 
c1ccc(C[NH2+]Cc2ccccc2OCc2ccccc2)cc1

>  <molecular_formula>  (1218) 
C26H32FN2O2+

$$$$
ATP-HTVS-C0A883403093
     RDKit          3D

 63 66  0  0  0  0  0  0  0  0999 V2000
  196.7827  182.3736  150.3469 O   0  0  0  0  0  0  0  0  0  0  0  0
  197.1269  181.4735  151.1106 C   0  0  0  0  0  0  0  0  0  0  0  0
  197.1894  181.5665  152.4532 N   0  0  0  0  0  0  0  0  0  0  0  0
  197.2325  182.7341  153.2761 C   0  0  0  0  0  0  0  0  0  0  0  0
  197.1460  183.9736  152.7435 N   0  0  0  0  0  0  0  0  0  0  0  0
  197.2435  185.0441  153.5457 C   0  0  0  0  0  0  0  0  0  0  0  0
  197.4383  184.9574  154.9284 C   0  0  0  0  0  0  0  0  0  0  0  0
  197.5400  183.6922  155.5183 C   0  0  0  0  0  0  0  0  0  0  0  0
  197.7481  183.6252  156.9678 C   0  0  0  0  0  0  0  0  0  0  0  0
  196.7548  183.1351  157.8496 C   0  0  0  0  0  0  0  0  0  0  0  0
  195.5488  182.6902  157.4262 O   0  0  0  0  0  0  0  0  0  0  0  0
  196.9911  183.0485  159.2184 C   0  0  0  0  0  0  0  0  0  0  0  0
  198.2313  183.4702  159.7394 C   0  0  0  0  0  0  0  0  0  0  0  0
  199.2307  183.9537  158.8961 C   0  0  0  0  0  0  0  0  0  0  0  0
  198.9984  184.0475  157.5164 C   0  0  0  0  0  0  0  0  0  0  0  0
  200.5753  184.3576  159.4794 C   0  0  2  0  0  0  0  0  0  0  0  0
  197.4500  182.5479  154.6745 C   0  0  0  0  0  0  0  0  0  0  0  0
  197.5742  181.1641  155.2252 C   0  0  0  0  0  0  0  0  0  0  0  0
  196.6063  180.4089  155.1806 O   0  0  0  0  0  0  0  0  0  0  0  0
  198.9258  180.6977  155.6648 C   0  0  0  0  0  0  0  0  0  0  0  0
  199.1025  179.3564  156.0724 C   0  0  0  0  0  0  0  0  0  0  0  0
  200.3678  178.8768  156.4681 C   0  0  0  0  0  0  0  0  0  0  0  0
  201.4760  179.7444  156.4838 C   0  0  0  0  0  0  0  0  0  0  0  0
  201.3182  181.0841  156.0911 C   0  0  0  0  0  0  0  0  0  0  0  0
  200.0614  181.5486  155.6624 C   0  0  0  0  0  0  0  0  0  0  0  0
  197.4524  180.1083  150.5800 C   0  0  0  0  0  0  0  0  0  0  0  0
  196.8088  179.6313  149.4151 C   0  0  0  0  0  0  0  0  0  0  0  0
  197.1537  178.3834  148.8637 C   0  0  0  0  0  0  0  0  0  0  0  0
  198.1419  177.5879  149.4758 C   0  0  0  0  0  0  0  0  0  0  0  0
  198.7841  178.0559  150.6441 C   0  0  0  0  0  0  0  0  0  0  0  0
  198.4557  179.3133  151.1805 C   0  0  0  0  0  0  0  0  0  0  0  0
  198.5145  176.2380  148.8889 C   0  0  1  0  0  0  0  0  0  0  0  0
  199.5052  176.3418  147.7867 N   0  0  2  0  0  0  0  0  0  0  0  0
  199.6980  175.0476  147.0923 C   0  0  2  0  0  0  0  0  0  0  0  0
  200.8044  176.9250  148.2040 C   0  0  2  0  0  0  0  0  0  0  0  0
  197.3422  180.6950  152.9286 H   0  0  0  0  0  0  0  0  0  0  0  0
  197.1558  186.0074  153.0653 H   0  0  0  0  0  0  0  0  0  0  0  0
  197.4843  185.8576  155.5303 H   0  0  0  0  0  0  0  0  0  0  0  0
  195.2767  182.7820  156.5053 H   0  0  0  0  0  0  0  0  0  0  0  0
  196.2352  182.6606  159.8818 H   0  0  0  0  0  0  0  0  0  0  0  0
  198.3702  183.4030  160.8032 H   0  0  0  0  0  0  0  0  0  0  0  0
  199.7722  184.4046  156.8595 H   0  0  0  0  0  0  0  0  0  0  0  0
  201.2139  184.8122  158.7202 H   0  0  0  0  0  0  0  0  0  0  0  0
  201.0972  183.4878  159.8861 H   0  0  0  0  0  0  0  0  0  0  0  0
  200.4339  185.0797  160.2845 H   0  0  0  0  0  0  0  0  0  0  0  0
  198.2607  178.6713  156.0946 H   0  0  0  0  0  0  0  0  0  0  0  0
  200.4819  177.8478  156.7714 H   0  0  0  0  0  0  0  0  0  0  0  0
  202.4489  179.3858  156.8001 H   0  0  0  0  0  0  0  0  0  0  0  0
  202.1557  181.7647  156.1129 H   0  0  0  0  0  0  0  0  0  0  0  0
  199.9984  182.5770  155.3438 H   0  0  0  0  0  0  0  0  0  0  0  0
  196.0491  180.2340  148.9404 H   0  0  0  0  0  0  0  0  0  0  0  0
  196.6515  178.0385  147.9686 H   0  0  0  0  0  0  0  0  0  0  0  0
  199.5590  177.4688  151.1143 H   0  0  0  0  0  0  0  0  0  0  0  0
  199.0022  179.6680  152.0431 H   0  0  0  0  0  0  0  0  0  0  0  0
  198.8967  175.5863  149.6762 H   0  0  0  0  0  0  0  0  0  0  0  0
  197.5984  175.7719  148.5251 H   0  0  0  0  0  0  0  0  0  0  0  0
  200.1267  174.2984  147.7595 H   0  0  0  0  0  0  0  0  0  0  0  0
  200.3626  175.1673  146.2337 H   0  0  0  0  0  0  0  0  0  0  0  0
  198.7548  174.6430  146.7325 H   0  0  0  0  0  0  0  0  0  0  0  0
  201.2763  176.3112  148.9730 H   0  0  0  0  0  0  0  0  0  0  0  0
  200.6898  177.9360  148.5958 H   0  0  0  0  0  0  0  0  0  0  0  0
  201.4881  176.9930  147.3572 H   0  0  0  0  0  0  0  0  0  0  0  0
  199.1084  176.9836  147.1127 H   0  0  0  0  0  0  0  0  0  0  0  0
  1  2  2  0
  2  3  1  0
  2 26  1  0
  3  4  1  0
  3 36  1  0
  4  5  1  0
  4 17  2  0
  5  6  2  0
  6  7  1  0
  6 37  1  0
  7  8  2  0
  7 38  1  0
  8  9  1  0
  8 17  1  0
  9 10  2  0
  9 15  1  0
 10 11  1  0
 10 12  1  0
 11 39  1  0
 12 13  2  0
 12 40  1  0
 13 14  1  0
 13 41  1  0
 14 15  2  0
 14 16  1  0
 15 42  1  0
 16 43  1  6
 16 44  1  0
 16 45  1  0
 17 18  1  0
 18 19  2  0
 18 20  1  0
 20 21  2  0
 20 25  1  0
 21 22  1  0
 21 46  1  0
 22 23  2  0
 22 47  1  0
 23 24  1  0
 23 48  1  0
 24 25  2  0
 24 49  1  0
 25 50  1  0
 26 27  1  0
 26 31  2  0
 27 28  2  0
 27 51  1  0
 28 29  1  0
 28 52  1  0
 29 30  2  0
 29 32  1  0
 30 31  1  0
 30 53  1  0
 31 54  1  0
 32 33  1  0
 32 55  1  1
 32 56  1  0
 33 34  1  0
 33 35  1  0
 33 63  1  6
 34 57  1  1
 34 58  1  0
 34 59  1  0
 35 60  1  1
 35 61  1  0
 35 62  1  0
M  CHG  1  33   1
M  END
>  <s_epik_cmdline>  (1219) 
J2VwaWtfcHl0aG9uJywgJy1waCcsICc3LjAwMDAwMCcsICctcGh0JywgJzIuMDAwMDAwJywgJy1tcycsICcxNicsICctdG4nLCAnOCcsICctbWEnLCAnMjAwJywgJy1pbWFlJywgJzxpbmZpbGUubWFlPicsICctb21hZScsICc8b3V0ZmlsZS5tYWU+Jw==

>  <s_epik_input>  (1219) 
W0NIM11OKFtDSDNdKVtDSDJdYyhbY0hdW2NIXTEpW2NIXVtjSF1jMUMoPU8pW05IXWMybltjSF1bY0hdYygtYzNjKFtPSF0pW2NIXVtjSF1jKFtjSF0zKVtDSDNdKWMyQyg9TyljNFtjSF1bY0hdW2NIXVtjSF1bY0hdNA==

>  <s_i_glide_gridfile>  (1219) 
ATP-Grid

>  <s_lp_Force_Field>  (1219) 
OPLS_2005

>  <s_lp_Variant>  (1219) 
rxn501c____EMOL18624763____EMOL36251210____EMOL32273938-1

>  <s_lp_label>  (1219) 
2519_sdstereoexpander_1_neutralizer_1_epik_1_stereoizer_1

>  <s_m_source_file>  (1219) 
ATP-VSW-LIGPREP-003-in.maegz

>  <s_sd_BIOSOLVEIT.INFINISEE\_QUERY\_NAME>  (1219) 
Ref-Lig

>  <s_sd_BIOSOLVEIT.INFINISEE\_QUERY\_SMILES>  (1219) 
S(c1nc2c(cc1C[NH2+]Cc3ccc(cc3)C[NH+](C)C)cccc2)Cc4ccccc4

>  <s_sd_BIOSOLVEIT.INFINISEE\_REACTION\_NAME>  (1219) 
rxn501c

>  <s_sd_BIOSOLVEIT.INFINISEE\_REAGENT1\_NAME>  (1219) 
EMOL18624763

>  <s_sd_BIOSOLVEIT.INFINISEE\_REAGENT1\_SMILES>  (1219) 
O=C(O)c1ccc(cc1)CN(C)C

>  <s_sd_BIOSOLVEIT.INFINISEE\_REAGENT2\_NAME>  (1219) 
EMOL36251210

>  <s_sd_BIOSOLVEIT.INFINISEE\_REAGENT2\_SMILES>  (1219) 
Clc1c(c(ncc1)N)C(=O)c2ccccc2

>  <s_sd_BIOSOLVEIT.INFINISEE\_REAGENT3\_NAME>  (1219) 
EMOL32273938

>  <s_sd_BIOSOLVEIT.INFINISEE\_REAGENT3\_SMILES>  (1219) 
Oc1c(cc(cc1)C)B(O)O

>  <s_sd_BIOSOLVEIT.INFINISEE\_SPACE>  (1219) 
eXplore_7tr_2022-12

>  <s_vsw_compound_code>  (1219) 
80579

>  <s_vsw_variant>  (1219) 
80579-1

>  <r_epik_Charging_Adjusted_Penalty>  (1219) 
0.10433640840748

>  <r_epik_Ionization_Penalty>  (1219) 
0.053699999999999998

>  <r_epik_Ionization_Penalty_Charging>  (1219) 
0.052200000000000003

>  <r_epik_Ionization_Penalty_Neutral>  (1219) 
0.0015

>  <r_epik_State_Penalty>  (1219) 
0.052200000000000003

>  <r_i_docking_score>  (1219) 
-3.67454644381269

>  <r_i_glide_ecoul>  (1219) 
-5.6468305587768599

>  <r_i_glide_eff_state_penalty>  (1219) 
0.052200000000000003

>  <r_i_glide_einternal>  (1219) 
2.97321224212646

>  <r_i_glide_emodel>  (1219) 
-53.200705866803297

>  <r_i_glide_energy>  (1219) 
-41.044604301452601

>  <r_i_glide_erotb>  (1219) 
0.64882283328308199

>  <r_i_glide_esite>  (1219) 
-0.040418440803819101

>  <r_i_glide_evdw>  (1219) 
-35.397773742675803

>  <r_i_glide_gscore>  (1219) 
-3.72674644381269

>  <r_i_glide_hbond>  (1219) 
0

>  <r_i_glide_ligand_efficiency>  (1219) 
-0.10498704125179099

>  <r_i_glide_ligand_efficiency_ln>  (1219) 
-0.806644496581292

>  <r_i_glide_ligand_efficiency_sa>  (1219) 
-0.343419573238122

>  <r_i_glide_lipo>  (1219) 
-1.4236775925443099

>  <r_i_glide_metal>  (1219) 
-0

>  <r_i_glide_rewards>  (1219) 
-0.29455997279732499

>  <r_lp_Energy>  (1219) 
39.496431999999999

>  <r_lp_tautomer_probability>  (1219) 
0.999999999997365

>  <r_qp_ACxDN^.5/SA>  (1219) 
0.0093498000000000001

>  <r_qp_CIQPlogS>  (1219) 
-6.1630000000000003

>  <r_qp_EA(eV)>  (1219) 
0.754

>  <r_qp_FISA>  (1219) 
120.56100000000001

>  <r_qp_FOSA>  (1219) 
248.184

>  <r_qp_IP(eV)>  (1219) 
9.0079999999999991

>  <r_qp_Jm>  (1219) 
0.00086744866263099797

>  <r_qp_PISA>  (1219) 
406.67000000000002

>  <r_qp_PSA>  (1219) 
92.543000000000006

>  <r_qp_PercentHumanOralAbsorption>  (1219) 
94.494

>  <r_qp_QPPCaco>  (1219) 
177.63

>  <r_qp_QPPMDCK>  (1219) 
84.537000000000006

>  <r_qp_QPlogBB>  (1219) 
-0.74299999999999999

>  <r_qp_QPlogHERG>  (1219) 
-7.2629999999999999

>  <r_qp_QPlogKhsa>  (1219) 
0.86099999999999999

>  <r_qp_QPlogKp>  (1219) 
-3.6030000000000002

>  <r_qp_QPlogPC16>  (1219) 
15.901999999999999

>  <r_qp_QPlogPo/w>  (1219) 
4.6600000000000001

>  <r_qp_QPlogPoct>  (1219) 
23.350000000000001

>  <r_qp_QPlogPw>  (1219) 
12.013

>  <r_qp_QPlogS>  (1219) 
-5.1260000000000003

>  <r_qp_QPpolrz>  (1219) 
51.887999999999998

>  <r_qp_SASA>  (1219) 
775.41600000000005

>  <r_qp_SAamideO>  (1219) 
0

>  <r_qp_SAfluorine>  (1219) 
0

>  <r_qp_WPSA>  (1219) 
0

>  <r_qp_accptHB>  (1219) 
7.25

>  <r_qp_dip^2/V>  (1219) 
0.035761099999999997

>  <r_qp_dipole>  (1219) 
7.2789999999999999

>  <r_qp_donorHB>  (1219) 
1

>  <r_qp_glob>  (1219) 
0.81057469999999998

>  <r_qp_mol_MW>  (1219) 
465.55099999999999

>  <r_qp_volume>  (1219) 
1481.644

>  <r_sd_BIOSOLVEIT.INFINISEE\_FTREES\_SIMILARITY>  (1219) 
0.91400000000000003

>  <r_sd_BIOSOLVEIT.LOGP>  (1219) 
3.8904200000000002

>  <r_sd_BIOSOLVEIT.MOLECULAR\_WEIGHT>  (1219) 
466.55799999999999

>  <r_sd_BIOSOLVEIT.TPSA>  (1219) 
83.730000000000004

>  <i_epik_Tot_Q>  (1219) 
1

>  <i_epik_Tot_abs_Q>  (1219) 
1

>  <i_f3d_flags>  (1219) 
0

>  <i_i_glide_confnum>  (1219) 
1

>  <i_i_glide_lignum>  (1219) 
1102

>  <i_i_glide_posenum>  (1219) 
20

>  <i_i_glide_rotatable_bonds>  (1219) 
9

>  <i_lp_mmshare_version>  (1219) 
65135

>  <i_m_ct_format>  (1219) 
2

>  <i_m_source_file_index>  (1219) 
2519

>  <i_qp_#NandO>  (1219) 
6

>  <i_qp_#acid>  (1219) 
0

>  <i_qp_#amide>  (1219) 
0

>  <i_qp_#amidine>  (1219) 
0

>  <i_qp_#amine>  (1219) 
1

>  <i_qp_#in34>  (1219) 
0

>  <i_qp_#in56>  (1219) 
24

>  <i_qp_#metab>  (1219) 
5

>  <i_qp_#nonHatm>  (1219) 
35

>  <i_qp_#noncon>  (1219) 
0

>  <i_qp_#ringatoms>  (1219) 
24

>  <i_qp_#rotor>  (1219) 
8

>  <i_qp_#rtvFG>  (1219) 
0

>  <i_qp_#stars>  (1219) 
0

>  <i_qp_CNS>  (1219) 
0

>  <i_qp_HumanOralAbsorption>  (1219) 
3

>  <i_qp_RuleOfFive>  (1219) 
0

>  <i_qp_RuleOfThree>  (1219) 
0

>  <i_sd_BIOSOLVEIT.INFINISEE\_RESULT\_RANK>  (1219) 
32721

>  <i_sd_version>  (1219) 
0

>  <b_lp_Chiralities_Consistent>  (1219) 
1

>  <b_sd_chiral_flag>  (1219) 
0

>  <canonical_id>  (1219) 
ATP-HTVS-C0A883403093

>  <compound_code>  (1219) 
80579

>  <title>  (1219) 
rxn501c____EMOL18624763____EMOL36251210____EMOL32273938

>  <variant>  (1219) 
80579-1

>  <source_file>  (1219) 
运行/运行/ATP-VSW/ATP-VSW-DOCK_HTVS_1-003_lib/ATP-VSW-DOCK_HTVS_1-003_lib.mae

>  <canonical_smiles>  (1219) 
Cc1ccc(O)c(-c2ccnc(NC(=O)c3ccc(C[NH+](C)C)cc3)c2C(=O)c2ccccc2)c1

>  <scaffold>  (1219) 
O=C(Nc1nccc(-c2ccccc2)c1C(=O)c1ccccc1)c1ccccc1

>  <molecular_formula>  (1219) 
C29H28N3O3+

$$$$
ATP-HTVS-C0ADD803E371
     RDKit          3D

 67 70  0  0  0  0  0  0  0  0999 V2000
  199.4196  175.8269  148.7601 S   0  0  1  0  0  0  0  0  0  0  0  0
  199.1563  175.2686  147.4280 O   0  0  0  0  0  0  0  0  0  0  0  0
  198.3973  175.7528  149.8216 O   0  0  0  0  0  0  0  0  0  0  0  0
  200.8010  175.0235  149.3618 N   0  0  0  0  0  0  0  0  0  0  0  0
  199.9725  177.5279  148.5428 C   0  0  0  0  0  0  0  0  0  0  0  0
  199.1374  178.6565  148.7777 C   0  0  0  0  0  0  0  0  0  0  0  0
  199.6795  179.9491  148.5956 C   0  0  0  0  0  0  0  0  0  0  0  0
  201.0155  180.1300  148.1875 C   0  0  0  0  0  0  0  0  0  0  0  0
  201.8327  179.0112  147.9496 C   0  0  0  0  0  0  0  0  0  0  0  0
  201.3089  177.7178  148.1249 C   0  0  0  0  0  0  0  0  0  0  0  0
  197.6849  178.5472  149.2327 C   0  0  1  0  0  0  0  0  0  0  0  0
  197.3718  179.2947  150.4568 N   0  0  0  0  0  0  0  0  0  0  0  0
  198.0629  179.1110  151.6602 C   0  0  0  0  0  0  0  0  0  0  0  0
  197.7829  179.9089  152.6973 N   0  0  0  0  0  0  0  0  0  0  0  0
  198.4430  179.7691  153.8682 C   0  0  0  0  0  0  0  0  0  0  0  0
  198.1283  180.6423  154.9178 N   0  0  0  0  0  0  0  0  0  0  0  0
  197.2613  181.7938  154.7176 C   0  0  1  0  0  0  0  0  0  0  0  0
  197.1519  182.6698  155.9519 C   0  0  0  0  0  0  0  0  0  0  0  0
  196.8801  182.0973  157.2114 C   0  0  0  0  0  0  0  0  0  0  0  0
  196.7776  182.9019  158.3587 C   0  0  0  0  0  0  0  0  0  0  0  0
  196.9290  184.3006  158.2536 C   0  0  0  0  0  0  0  0  0  0  0  0
  197.2042  184.8775  156.9955 C   0  0  0  0  0  0  0  0  0  0  0  0
  197.3154  184.0660  155.8497 C   0  0  0  0  0  0  0  0  0  0  0  0
  196.7741  185.1750  159.4847 C   0  0  1  0  0  0  0  0  0  0  0  0
  195.3871  185.6801  159.6602 N   0  0  1  0  0  0  0  0  0  0  0  0
  194.3550  184.6133  159.7103 C   0  0  2  0  0  0  0  0  0  0  0  0
  195.2799  186.5949  160.8189 C   0  0  2  0  0  0  0  0  0  0  0  0
  199.4439  178.7844  154.0170 C   0  0  0  0  0  0  0  0  0  0  0  0
  199.6914  177.9640  152.8962 C   0  0  0  0  0  0  0  0  0  0  0  0
  198.9825  178.1387  151.7581 N   0  0  0  0  0  0  0  0  0  0  0  0
  200.6705  176.9522  152.9551 C   0  0  0  0  0  0  0  0  0  0  0  0
  201.4081  176.7625  154.1400 C   0  0  0  0  0  0  0  0  0  0  0  0
  201.1697  177.5808  155.2614 C   0  0  0  0  0  0  0  0  0  0  0  0
  200.1869  178.5894  155.2055 C   0  0  0  0  0  0  0  0  0  0  0  0
  196.2818  180.2613  150.3819 C   0  0  2  0  0  0  0  0  0  0  0  0
  201.5154  174.9318  148.6380 H   0  0  0  0  0  0  0  0  0  0  0  0
  200.5204  174.0971  149.6923 H   0  0  0  0  0  0  0  0  0  0  0  0
  199.0788  180.8260  148.7742 H   0  0  0  0  0  0  0  0  0  0  0  0
  201.4228  181.1265  148.0455 H   0  0  0  0  0  0  0  0  0  0  0  0
  202.8581  179.1421  147.6301 H   0  0  0  0  0  0  0  0  0  0  0  0
  201.9482  176.8708  147.9237 H   0  0  0  0  0  0  0  0  0  0  0  0
  197.0740  178.9098  148.4029 H   0  0  0  0  0  0  0  0  0  0  0  0
  197.3639  177.5043  149.3936 H   0  0  0  0  0  0  0  0  0  0  0  0
  198.5006  180.4787  155.8406 H   0  0  0  0  0  0  0  0  0  0  0  0
  197.6454  182.3845  153.8826 H   0  0  0  0  0  0  0  0  0  0  0  0
  196.2613  181.4559  154.4424 H   0  0  0  0  0  0  0  0  0  0  0  0
  196.7290  181.0350  157.3077 H   0  0  0  0  0  0  0  0  0  0  0  0
  196.5529  182.4334  159.3060 H   0  0  0  0  0  0  0  0  0  0  0  0
  197.3157  185.9472  156.8950 H   0  0  0  0  0  0  0  0  0  0  0  0
  197.5132  184.5182  154.8896 H   0  0  0  0  0  0  0  0  0  0  0  0
  197.0902  184.6141  160.3659 H   0  0  0  0  0  0  0  0  0  0  0  0
  197.4543  186.0242  159.3944 H   0  0  0  0  0  0  0  0  0  0  0  0
  194.5473  183.9230  160.5309 H   0  0  0  0  0  0  0  0  0  0  0  0
  194.3158  184.0455  158.7765 H   0  0  0  0  0  0  0  0  0  0  0  0
  193.3559  185.0388  159.8401 H   0  0  0  0  0  0  0  0  0  0  0  0
  195.4947  186.0644  161.7460 H   0  0  0  0  0  0  0  0  0  0  0  0
  194.2757  187.0121  160.8972 H   0  0  0  0  0  0  0  0  0  0  0  0
  195.9815  187.4264  160.7370 H   0  0  0  0  0  0  0  0  0  0  0  0
  200.8594  176.3170  152.1020 H   0  0  0  0  0  0  0  0  0  0  0  0
  202.1601  175.9877  154.1940 H   0  0  0  0  0  0  0  0  0  0  0  0
  201.7429  177.4366  156.1668 H   0  0  0  0  0  0  0  0  0  0  0  0
  200.0186  179.2000  156.0789 H   0  0  0  0  0  0  0  0  0  0  0  0
  195.5175  180.0477  151.1325 H   0  0  0  0  0  0  0  0  0  0  0  0
  195.8005  180.2375  149.4045 H   0  0  0  0  0  0  0  0  0  0  0  0
  196.6599  181.2724  150.5455 H   0  0  0  0  0  0  0  0  0  0  0  0
  199.1584  177.5109  150.9786 H   0  0  0  0  0  0  0  0  0  0  0  0
  195.1765  186.2248  158.8375 H   0  0  0  0  0  0  0  0  0  0  0  0
  1  2  2  0
  1  3  2  0
  1  4  1  1
  1  5  1  0
  4 36  1  0
  4 37  1  0
  5  6  1  0
  5 10  2  0
  6  7  2  0
  6 11  1  0
  7  8  1  0
  7 38  1  0
  8  9  2  0
  8 39  1  0
  9 10  1  0
  9 40  1  0
 10 41  1  0
 11 12  1  0
 11 42  1  6
 11 43  1  0
 12 13  1  0
 12 35  1  0
 13 14  1  0
 13 30  2  0
 14 15  2  0
 15 16  1  0
 15 28  1  0
 16 17  1  0
 16 44  1  0
 17 18  1  0
 17 45  1  6
 17 46  1  0
 18 19  1  0
 18 23  2  0
 19 20  2  0
 19 47  1  0
 20 21  1  0
 20 48  1  0
 21 22  2  0
 21 24  1  0
 22 23  1  0
 22 49  1  0
 23 50  1  0
 24 25  1  0
 24 51  1  1
 24 52  1  0
 25 26  1  0
 25 27  1  0
 25 67  1  6
 26 53  1  1
 26 54  1  0
 26 55  1  0
 27 56  1  1
 27 57  1  0
 27 58  1  0
 28 29  1  0
 28 34  2  0
 29 30  1  0
 29 31  2  0
 30 66  1  0
 31 32  1  0
 31 59  1  0
 32 33  2  0
 32 60  1  0
 33 34  1  0
 33 61  1  0
 34 62  1  0
 35 63  1  1
 35 64  1  0
 35 65  1  0
M  CHG  2  25   1  30   1
M  END
>  <s_epik_cmdline>  (1220) 
J2VwaWtfcHl0aG9uJywgJy1waCcsICc3LjAwMDAwMCcsICctcGh0JywgJzIuMDAwMDAwJywgJy1tcycsICcxNicsICctdG4nLCAnOCcsICctbWEnLCAnMjAwJywgJy1pbWFlJywgJzxpbmZpbGUubWFlPicsICctb21hZScsICc8b3V0ZmlsZS5tYWU+Jw==

>  <s_epik_input>  (1220) 
W2NIXTFbY0hdW2NIXVtjSF1jKGMxUyg9TykoPU8pW05IMl0pW0NIMl1OKFtDSDNdKWMobmMoYzIzKVtjSF1bY0hdW2NIXVtjSF0zKW5jMltOSF1bQ0gyXWM0W2NIXVtjSF1jKFtjSF1bY0hdNClbQ0gyXU4oW0NIM10pW0NIM10=

>  <s_i_glide_gridfile>  (1220) 
ATP-Grid

>  <s_lp_Force_Field>  (1220) 
OPLS_2005

>  <s_lp_Variant>  (1220) 
m_282030aaa____21909402____22360182____21945542-1

>  <s_lp_label>  (1220) 
887_sdstereoexpander_1_neutralizer_1_epik_1_stereoizer_1

>  <s_m_source_file>  (1220) 
ATP-VSW-LIGPREP-001-in.maegz

>  <s_sd_BIOSOLVEIT.INFINISEE\_QUERY\_NAME>  (1220) 
Ref-Lig

>  <s_sd_BIOSOLVEIT.INFINISEE\_QUERY\_SMILES>  (1220) 
S(c1nc2c(cc1C[NH2+]Cc3ccc(cc3)C[NH+](C)C)cccc2)Cc4ccccc4

>  <s_sd_BIOSOLVEIT.INFINISEE\_REACTION\_NAME>  (1220) 
m_282030aaa

>  <s_sd_BIOSOLVEIT.INFINISEE\_REAGENT1\_SMILES>  (1220) 
[R1*]N(Cc1c(S(=O)(=O)N)cccc1)C

>  <s_sd_BIOSOLVEIT.INFINISEE\_REAGENT2\_SMILES>  (1220) 
[R2*]c1nc([R1*])c2c(n1)cccc2

>  <s_sd_BIOSOLVEIT.INFINISEE\_REAGENT3\_SMILES>  (1220) 
[R2*]NCc1ccc(cc1)CN(C)C

>  <s_sd_BIOSOLVEIT.INFINISEE\_SPACE>  (1220) 
REALSpace_44bn_2023-08

>  <s_vsw_compound_code>  (1220) 
28353

>  <s_vsw_variant>  (1220) 
28353-1

>  <r_epik_Charging_Adjusted_Penalty>  (1220) 
0.092209015105526093

>  <r_epik_Ionization_Penalty>  (1220) 
0.0465

>  <r_epik_Ionization_Penalty_Charging>  (1220) 
0.046300000000000001

>  <r_epik_Ionization_Penalty_Neutral>  (1220) 
0.00020000000000000001

>  <r_epik_State_Penalty>  (1220) 
0.045900000000000003

>  <r_i_docking_score>  (1220) 
-3.8292556398024602

>  <r_i_glide_ecoul>  (1220) 
-6.3060107231140101

>  <r_i_glide_eff_state_penalty>  (1220) 
0.045900000000000003

>  <r_i_glide_einternal>  (1220) 
1.08425533771515

>  <r_i_glide_emodel>  (1220) 
-55.992813481681502

>  <r_i_glide_energy>  (1220) 
-39.863433361053502

>  <r_i_glide_erotb>  (1220) 
0.58741885616192202

>  <r_i_glide_esite>  (1220) 
-0.037240392863502898

>  <r_i_glide_evdw>  (1220) 
-33.557422637939503

>  <r_i_glide_gscore>  (1220) 
-3.8751556398024598

>  <r_i_glide_hbond>  (1220) 
-0.23802401244227001

>  <r_i_glide_ligand_efficiency>  (1220) 
-0.109407303994356

>  <r_i_glide_ligand_efficiency_ln>  (1220) 
-0.84060659868665499

>  <r_i_glide_ligand_efficiency_sa>  (1220) 
-0.35787854576037198

>  <r_i_glide_lipo>  (1220) 
-1.1385543092992101

>  <r_i_glide_metal>  (1220) 
-0

>  <r_i_glide_rewards>  (1220) 
-0.42498304099533102

>  <r_lp_Energy>  (1220) 
23.824180999999999

>  <r_lp_tautomer_probability>  (1220) 
0.99350799999861505

>  <r_qp_ACxDN^.5/SA>  (1220) 
0.019651100000000001

>  <r_qp_CIQPlogS>  (1220) 
-5.5609999999999999

>  <r_qp_EA(eV)>  (1220) 
0.64400000000000002

>  <r_qp_FISA>  (1220) 
118.56999999999999

>  <r_qp_FOSA>  (1220) 
287.84800000000001

>  <r_qp_IP(eV)>  (1220) 
8.0329999999999995

>  <r_qp_Jm>  (1220) 
0.0023247688160894899

>  <r_qp_PISA>  (1220) 
429.30900000000003

>  <r_qp_PSA>  (1220) 
95.953999999999994

>  <r_qp_PercentHumanOralAbsorption>  (1220) 
89.760000000000005

>  <r_qp_QPPCaco>  (1220) 
185.52500000000001

>  <r_qp_QPPMDCK>  (1220) 
90.418000000000006

>  <r_qp_QPlogBB>  (1220) 
-0.97899999999999998

>  <r_qp_QPlogHERG>  (1220) 
-8.0690000000000008

>  <r_qp_QPlogKhsa>  (1220) 
0.39600000000000002

>  <r_qp_QPlogKp>  (1220) 
-3.2949999999999999

>  <r_qp_QPlogPC16>  (1220) 
17.219000000000001

>  <r_qp_QPlogPo/w>  (1220) 
3.794

>  <r_qp_QPlogPoct>  (1220) 
27.957999999999998

>  <r_qp_QPlogPw>  (1220) 
17.007000000000001

>  <r_qp_QPlogS>  (1220) 
-5.0289999999999999

>  <r_qp_QPpolrz>  (1220) 
52.819000000000003

>  <r_qp_SASA>  (1220) 
837.33199999999999

>  <r_qp_SAamideO>  (1220) 
0

>  <r_qp_SAfluorine>  (1220) 
0

>  <r_qp_WPSA>  (1220) 
1.605

>  <r_qp_accptHB>  (1220) 
9.5

>  <r_qp_dip^2/V>  (1220) 
0.064266799999999999

>  <r_qp_dipole>  (1220) 
9.9209999999999994

>  <r_qp_donorHB>  (1220) 
3

>  <r_qp_glob>  (1220) 
0.76741009999999998

>  <r_qp_mol_MW>  (1220) 
490.62200000000001

>  <r_qp_volume>  (1220) 
1531.5809999999999

>  <r_sd_BIOSOLVEIT.INFINISEE\_FTREES\_SIMILARITY>  (1220) 
0.91900000000000004

>  <r_sd_BIOSOLVEIT.LOGP>  (1220) 
2.8208000000000002

>  <r_sd_BIOSOLVEIT.MOLECULAR\_WEIGHT>  (1220) 
491.63600000000002

>  <r_sd_BIOSOLVEIT.TPSA>  (1220) 
105.65000000000001

>  <i_epik_Tot_Q>  (1220) 
2

>  <i_epik_Tot_abs_Q>  (1220) 
2

>  <i_f3d_flags>  (1220) 
0

>  <i_i_glide_confnum>  (1220) 
5

>  <i_i_glide_lignum>  (1220) 
155

>  <i_i_glide_posenum>  (1220) 
7

>  <i_i_glide_rotatable_bonds>  (1220) 
9

>  <i_lp_mmshare_version>  (1220) 
65135

>  <i_m_ct_format>  (1220) 
2

>  <i_m_source_file_index>  (1220) 
887

>  <i_qp_#NandO>  (1220) 
8

>  <i_qp_#acid>  (1220) 
0

>  <i_qp_#amide>  (1220) 
0

>  <i_qp_#amidine>  (1220) 
0

>  <i_qp_#amine>  (1220) 
1

>  <i_qp_#in34>  (1220) 
0

>  <i_qp_#in56>  (1220) 
22

>  <i_qp_#metab>  (1220) 
4

>  <i_qp_#nonHatm>  (1220) 
35

>  <i_qp_#noncon>  (1220) 
0

>  <i_qp_#ringatoms>  (1220) 
22

>  <i_qp_#rotor>  (1220) 
10

>  <i_qp_#rtvFG>  (1220) 
0

>  <i_qp_#stars>  (1220) 
0

>  <i_qp_CNS>  (1220) 
-1

>  <i_qp_HumanOralAbsorption>  (1220) 
3

>  <i_qp_RuleOfFive>  (1220) 
0

>  <i_qp_RuleOfThree>  (1220) 
0

>  <i_sd_BIOSOLVEIT.INFINISEE\_REAGENT1\_NAME>  (1220) 
21909402

>  <i_sd_BIOSOLVEIT.INFINISEE\_REAGENT2\_NAME>  (1220) 
22360182

>  <i_sd_BIOSOLVEIT.INFINISEE\_REAGENT3\_NAME>  (1220) 
21945542

>  <i_sd_BIOSOLVEIT.INFINISEE\_RESULT\_RANK>  (1220) 
17725

>  <i_sd_version>  (1220) 
0

>  <b_lp_Chiralities_Consistent>  (1220) 
1

>  <b_sd_chiral_flag>  (1220) 
0

>  <canonical_id>  (1220) 
ATP-HTVS-C0ADD803E371

>  <compound_code>  (1220) 
28353

>  <title>  (1220) 
m_282030aaa____21909402____22360182____21945542

>  <variant>  (1220) 
28353-1

>  <source_file>  (1220) 
运行/运行/ATP-VSW/ATP-VSW-DOCK_HTVS_1-001_lib/ATP-VSW-DOCK_HTVS_1-001_lib

>  <canonical_smiles>  (1220) 
CN(Cc1ccccc1S(N)(=O)=O)c1nc(NCc2ccc(C[NH+](C)C)cc2)c2ccccc2[nH+]1

>  <scaffold>  (1220) 
c1ccc(CNc2nc(NCc3ccccc3)c3ccccc3[nH+]2)cc1

>  <molecular_formula>  (1220) 
C26H32N6O2S+2

$$$$
ATP-HTVS-C0B01F645FC7
     RDKit          3D

 62 65  0  0  0  0  0  0  0  0999 V2000
  198.0099  179.1051  154.5254 O   0  0  0  0  0  0  0  0  0  0  0  0
  197.5301  179.8905  153.7129 C   0  0  0  0  0  0  0  0  0  0  0  0
  197.0999  181.1282  154.0278 N   0  0  0  0  0  0  0  0  0  0  0  0
  197.1634  181.8044  155.2818 C   0  0  0  0  0  0  0  0  0  0  0  0
  197.1618  183.2232  155.3065 C   0  0  0  0  0  0  0  0  0  0  0  0
  197.1531  183.9368  154.1015 N   0  0  0  0  0  0  0  0  0  0  0  0
  198.4681  184.3710  153.6568 C   0  0  1  0  0  0  0  0  0  0  0  0
  198.5541  184.6719  152.1720 C   0  0  0  0  0  0  0  0  0  0  0  0
  197.5359  184.2558  151.2859 C   0  0  0  0  0  0  0  0  0  0  0  0
  197.6379  184.5217  149.9135 C   0  0  0  0  0  0  0  0  0  0  0  0
  198.7727  185.1849  149.3902 C   0  0  0  0  0  0  0  0  0  0  0  0
  198.9267  185.4153  148.0143 N   0  0  0  0  0  0  0  0  0  0  0  0
  197.9885  184.8049  147.0765 C   0  0  1  0  0  0  0  0  0  0  0  0
  198.5030  184.8355  145.6441 C   0  0  1  0  0  0  0  0  0  0  0  0
  197.5562  184.2364  144.7862 O   0  0  0  0  0  0  0  0  0  0  0  0
  199.7824  185.6144  150.2782 C   0  0  0  0  0  0  0  0  0  0  0  0
  199.6741  185.3587  151.6603 C   0  0  0  0  0  0  0  0  0  0  0  0
  197.2094  183.9015  156.5541 C   0  0  0  0  0  0  0  0  0  0  0  0
  197.2503  183.1387  157.7507 C   0  0  0  0  0  0  0  0  0  0  0  0
  197.2462  181.7909  157.6771 N   0  0  0  0  0  0  0  0  0  0  0  0
  197.2113  181.1146  156.5097 C   0  0  0  0  0  0  0  0  0  0  0  0
  197.2799  183.7778  159.0078 C   0  0  0  0  0  0  0  0  0  0  0  0
  197.2756  185.1844  159.0748 C   0  0  0  0  0  0  0  0  0  0  0  0
  197.2231  185.9518  157.8939 C   0  0  0  0  0  0  0  0  0  0  0  0
  197.1907  185.3128  156.6394 C   0  0  0  0  0  0  0  0  0  0  0  0
  197.4295  179.5591  152.2423 C   0  0  0  0  0  0  0  0  0  0  0  0
  198.4028  178.7787  151.5388 C   0  0  0  0  0  0  0  0  0  0  0  0
  198.2341  178.5607  150.1416 C   0  0  0  0  0  0  0  0  0  0  0  0
  197.1051  179.0674  149.4683 C   0  0  0  0  0  0  0  0  0  0  0  0
  196.1419  179.8074  150.1654 C   0  0  0  0  0  0  0  0  0  0  0  0
  196.3024  180.0417  151.5372 C   0  0  0  0  0  0  0  0  0  0  0  0
  199.2487  177.7828  149.3192 C   0  0  2  0  0  0  0  0  0  0  0  0
  199.6502  178.2170  152.2299 C   0  0  2  0  0  0  0  0  0  0  0  0
  196.7770  181.6841  153.2485 H   0  0  0  0  0  0  0  0  0  0  0  0
  196.6218  183.4886  153.3705 H   0  0  0  0  0  0  0  0  0  0  0  0
  198.7409  185.2742  154.2053 H   0  0  0  0  0  0  0  0  0  0  0  0
  199.2222  183.6188  153.9032 H   0  0  0  0  0  0  0  0  0  0  0  0
  196.6651  183.7223  151.6220 H   0  0  0  0  0  0  0  0  0  0  0  0
  196.8238  184.1899  149.2898 H   0  0  0  0  0  0  0  0  0  0  0  0
  199.7636  185.8620  147.6597 H   0  0  0  0  0  0  0  0  0  0  0  0
  197.8140  183.7664  147.3522 H   0  0  0  0  0  0  0  0  0  0  0  0
  197.0340  185.3280  147.1491 H   0  0  0  0  0  0  0  0  0  0  0  0
  198.6916  185.8631  145.3154 H   0  0  0  0  0  0  0  0  0  0  0  0
  199.4435  184.2811  145.5738 H   0  0  0  0  0  0  0  0  0  0  0  0
  197.4986  183.3232  145.0038 H   0  0  0  0  0  0  0  0  0  0  0  0
  200.6508  186.1353  149.8990 H   0  0  0  0  0  0  0  0  0  0  0  0
  200.4648  185.6793  152.3270 H   0  0  0  0  0  0  0  0  0  0  0  0
  197.2034  180.0403  156.6050 H   0  0  0  0  0  0  0  0  0  0  0  0
  197.3202  183.1948  159.9160 H   0  0  0  0  0  0  0  0  0  0  0  0
  197.3074  185.6817  160.0330 H   0  0  0  0  0  0  0  0  0  0  0  0
  197.2133  187.0290  157.9447 H   0  0  0  0  0  0  0  0  0  0  0  0
  197.1315  185.9118  155.7428 H   0  0  0  0  0  0  0  0  0  0  0  0
  196.9657  178.8802  148.4120 H   0  0  0  0  0  0  0  0  0  0  0  0
  195.2658  180.1787  149.6586 H   0  0  0  0  0  0  0  0  0  0  0  0
  195.5347  180.6159  152.0354 H   0  0  0  0  0  0  0  0  0  0  0  0
  199.0270  177.8273  148.2529 H   0  0  0  0  0  0  0  0  0  0  0  0
  199.2554  176.7316  149.6084 H   0  0  0  0  0  0  0  0  0  0  0  0
  200.2498  178.1910  149.4555 H   0  0  0  0  0  0  0  0  0  0  0  0
  200.1246  177.4257  151.6538 H   0  0  0  0  0  0  0  0  0  0  0  0
  199.4332  177.7648  153.1944 H   0  0  0  0  0  0  0  0  0  0  0  0
  200.3887  179.0061  152.3683 H   0  0  0  0  0  0  0  0  0  0  0  0
  197.2384  181.2411  158.5403 H   0  0  0  0  0  0  0  0  0  0  0  0
  1  2  2  0
  2  3  1  0
  2 26  1  0
  3  4  1  0
  3 34  1  0
  4  5  2  0
  4 21  1  0
  5  6  1  0
  5 18  1  0
  6  7  1  0
  6 35  1  0
  7  8  1  0
  7 36  1  1
  7 37  1  0
  8  9  1  0
  8 17  2  0
  9 10  2  0
  9 38  1  0
 10 11  1  0
 10 39  1  0
 11 12  1  0
 11 16  2  0
 12 13  1  0
 12 40  1  0
 13 14  1  0
 13 41  1  1
 13 42  1  0
 14 15  1  0
 14 43  1  6
 14 44  1  0
 15 45  1  0
 16 17  1  0
 16 46  1  0
 17 47  1  0
 18 19  1  0
 18 25  2  0
 19 20  1  0
 19 22  2  0
 20 21  2  0
 20 62  1  0
 21 48  1  0
 22 23  1  0
 22 49  1  0
 23 24  2  0
 23 50  1  0
 24 25  1  0
 24 51  1  0
 25 52  1  0
 26 27  2  0
 26 31  1  0
 27 28  1  0
 27 33  1  0
 28 29  2  0
 28 32  1  0
 29 30  1  0
 29 53  1  0
 30 31  2  0
 30 54  1  0
 31 55  1  0
 32 56  1  6
 32 57  1  0
 32 58  1  0
 33 59  1  6
 33 60  1  0
 33 61  1  0
M  CHG  1  20   1
M  END
>  <s_epik_cmdline>  (1221) 
J2VwaWtfcHl0aG9uJywgJy1waCcsICc3LjAwMDAwMCcsICctcGh0JywgJzIuMDAwMDAwJywgJy1tcycsICcxNicsICctdG4nLCAnOCcsICctbWEnLCAnMjAwJywgJy1pbWFlJywgJzxpbmZpbGUubWFlPicsICctb21hZScsICc8b3V0ZmlsZS5tYWU+Jw==

>  <s_epik_input>  (1221) 
W2NIXTFbY0hdW2NIXWMoW0NIM10pYyhbQ0gzXSljMUMoPU8pW05IXWMoW2NIXW5jKGMyMylbY0hdW2NIXVtjSF1bY0hdMyljMltOSF1bQ0gyXWM0W2NIXVtjSF1jKFtjSF1bY0hdNClbTkhdW0NIMl1bQ0gyXVtPSF0=

>  <s_i_glide_gridfile>  (1221) 
ATP-Grid

>  <s_lp_Force_Field>  (1221) 
OPLS_2005

>  <s_lp_Variant>  (1221) 
rxn502b____EMOL723163____EMOL30488121____EMOL324170366-1

>  <s_lp_label>  (1221) 
2972_sdstereoexpander_1_neutralizer_1_epik_1_stereoizer_1

>  <s_m_source_file>  (1221) 
ATP-VSW-LIGPREP-002-in.maegz

>  <s_sd_BIOSOLVEIT.INFINISEE\_QUERY\_NAME>  (1221) 
Ref-Lig

>  <s_sd_BIOSOLVEIT.INFINISEE\_QUERY\_SMILES>  (1221) 
S(c1nc2c(cc1C[NH2+]Cc3ccc(cc3)C[NH+](C)C)cccc2)Cc4ccccc4

>  <s_sd_BIOSOLVEIT.INFINISEE\_REACTION\_NAME>  (1221) 
rxn502b

>  <s_sd_BIOSOLVEIT.INFINISEE\_REAGENT1\_NAME>  (1221) 
EMOL723163

>  <s_sd_BIOSOLVEIT.INFINISEE\_REAGENT1\_SMILES>  (1221) 
ClC(=O)c1c(c(ccc1)C)C

>  <s_sd_BIOSOLVEIT.INFINISEE\_REAGENT2\_NAME>  (1221) 
EMOL30488121

>  <s_sd_BIOSOLVEIT.INFINISEE\_REAGENT2\_SMILES>  (1221) 
Brc1c(N)cnc2c1cccc2

>  <s_sd_BIOSOLVEIT.INFINISEE\_REAGENT3\_NAME>  (1221) 
EMOL324170366

>  <s_sd_BIOSOLVEIT.INFINISEE\_REAGENT3\_SMILES>  (1221) 
OCCNc1ccc(cc1)CN

>  <s_sd_BIOSOLVEIT.INFINISEE\_SPACE>  (1221) 
eXplore_7tr_2022-12

>  <s_vsw_compound_code>  (1221) 
95074

>  <s_vsw_variant>  (1221) 
95074-1

>  <r_epik_Charging_Adjusted_Penalty>  (1221) 
0.17387378976877799

>  <r_epik_Ionization_Penalty>  (1221) 
0.092799999999999994

>  <r_epik_Ionization_Penalty_Charging>  (1221) 
0.081100000000000005

>  <r_epik_Ionization_Penalty_Neutral>  (1221) 
0.0117

>  <r_epik_State_Penalty>  (1221) 
0.092799999999999994

>  <r_i_docking_score>  (1221) 
-4.7028159589003202

>  <r_i_glide_ecoul>  (1221) 
-8.7523698806762695

>  <r_i_glide_eff_state_penalty>  (1221) 
0.092799999999999994

>  <r_i_glide_einternal>  (1221) 
3.98069095611572

>  <r_i_glide_emodel>  (1221) 
-59.324503333317701

>  <r_i_glide_energy>  (1221) 
-42.6451959609985

>  <r_i_glide_erotb>  (1221) 
0.92214560491348496

>  <r_i_glide_esite>  (1221) 
-0.143110505105602

>  <r_i_glide_evdw>  (1221) 
-33.892826080322301

>  <r_i_glide_gscore>  (1221) 
-4.7956159589003198

>  <r_i_glide_hbond>  (1221) 
-0.083939010045185905

>  <r_i_glide_ligand_efficiency>  (1221) 
-0.142509574512131

>  <r_i_glide_ligand_efficiency_ln>  (1221) 
-1.04588191938157

>  <r_i_glide_ligand_efficiency_sa>  (1221) 
-0.45710435206800198

>  <r_i_glide_lipo>  (1221) 
-1.85965680800001

>  <r_i_glide_metal>  (1221) 
-0

>  <r_i_glide_rewards>  (1221) 
-0.623558454545453

>  <r_lp_Energy>  (1221) 
46.386294999999997

>  <r_qp_ACxDN^.5/SA>  (1221) 
0.0187907

>  <r_qp_CIQPlogS>  (1221) 
-6.3849999999999998

>  <r_qp_EA(eV)>  (1221) 
0.90600000000000003

>  <r_qp_FISA>  (1221) 
125.80200000000001

>  <r_qp_FOSA>  (1221) 
252.309

>  <r_qp_IP(eV)>  (1221) 
8.2530000000000001

>  <r_qp_Jm>  (1221) 
0.018263916722715101

>  <r_qp_PISA>  (1221) 
388.22500000000002

>  <r_qp_PSA>  (1221) 
89.013999999999996

>  <r_qp_PercentHumanOralAbsorption>  (1221) 
100

>  <r_qp_QPPCaco>  (1221) 
635.21900000000005

>  <r_qp_QPPMDCK>  (1221) 
302.92399999999998

>  <r_qp_QPlogBB>  (1221) 
-1.3069999999999999

>  <r_qp_QPlogHERG>  (1221) 
-6.7060000000000004

>  <r_qp_QPlogKhsa>  (1221) 
0.48799999999999999

>  <r_qp_QPlogKp>  (1221) 
-1.6060000000000001

>  <r_qp_QPlogPC16>  (1221) 
15.94

>  <r_qp_QPlogPo/w>  (1221) 
4.226

>  <r_qp_QPlogPoct>  (1221) 
27.018999999999998

>  <r_qp_QPlogPw>  (1221) 
16.024999999999999

>  <r_qp_QPlogS>  (1221) 
-5.7759999999999998

>  <r_qp_QPpolrz>  (1221) 
48.326000000000001

>  <r_qp_SASA>  (1221) 
766.33600000000001

>  <r_qp_SAamideO>  (1221) 
0

>  <r_qp_SAfluorine>  (1221) 
0

>  <r_qp_WPSA>  (1221) 
0

>  <r_qp_accptHB>  (1221) 
7.2000000000000002

>  <r_qp_dip^2/V>  (1221) 
0.088374999999999995

>  <r_qp_dipole>  (1221) 
11.175000000000001

>  <r_qp_donorHB>  (1221) 
4

>  <r_qp_glob>  (1221) 
0.79467810000000005

>  <r_qp_mol_MW>  (1221) 
440.54399999999998

>  <r_qp_volume>  (1221) 
1413.0830000000001

>  <r_sd_BIOSOLVEIT.INFINISEE\_FTREES\_SIMILARITY>  (1221) 
0.90300000000000002

>  <r_sd_BIOSOLVEIT.LOGP>  (1221) 
5.1202399999999999

>  <r_sd_BIOSOLVEIT.MOLECULAR\_WEIGHT>  (1221) 
440.54399999999998

>  <r_sd_BIOSOLVEIT.TPSA>  (1221) 
86.280000000000001

>  <i_epik_Tot_Q>  (1221) 
1

>  <i_epik_Tot_abs_Q>  (1221) 
1

>  <i_f3d_flags>  (1221) 
0

>  <i_i_glide_confnum>  (1221) 
6

>  <i_i_glide_lignum>  (1221) 
27

>  <i_i_glide_posenum>  (1221) 
17

>  <i_i_glide_rotatable_bonds>  (1221) 
10

>  <i_lp_mmshare_version>  (1221) 
65135

>  <i_m_ct_format>  (1221) 
2

>  <i_m_source_file_index>  (1221) 
2972

>  <i_qp_#NandO>  (1221) 
6

>  <i_qp_#acid>  (1221) 
0

>  <i_qp_#amide>  (1221) 
0

>  <i_qp_#amidine>  (1221) 
0

>  <i_qp_#amine>  (1221) 
0

>  <i_qp_#in34>  (1221) 
0

>  <i_qp_#in56>  (1221) 
22

>  <i_qp_#metab>  (1221) 
9

>  <i_qp_#nonHatm>  (1221) 
33

>  <i_qp_#noncon>  (1221) 
0

>  <i_qp_#ringatoms>  (1221) 
22

>  <i_qp_#rotor>  (1221) 
9

>  <i_qp_#rtvFG>  (1221) 
0

>  <i_qp_#stars>  (1221) 
1

>  <i_qp_CNS>  (1221) 
-2

>  <i_qp_HumanOralAbsorption>  (1221) 
3

>  <i_qp_RuleOfFive>  (1221) 
0

>  <i_qp_RuleOfThree>  (1221) 
2

>  <i_sd_BIOSOLVEIT.INFINISEE\_RESULT\_RANK>  (1221) 
82722

>  <i_sd_version>  (1221) 
0

>  <b_lp_Chiralities_Consistent>  (1221) 
1

>  <b_sd_chiral_flag>  (1221) 
0

>  <canonical_id>  (1221) 
ATP-HTVS-C0B01F645FC7

>  <compound_code>  (1221) 
95074

>  <title>  (1221) 
rxn502b____EMOL723163____EMOL30488121____EMOL324170366

>  <variant>  (1221) 
95074-1

>  <source_file>  (1221) 
运行/运行/ATP-VSW/ATP-VSW-DOCK_HTVS_1-003_lib/ATP-VSW-DOCK_HTVS_1-003_lib.mae

>  <canonical_smiles>  (1221) 
Cc1cccc(C(=O)Nc2c[nH+]c3ccccc3c2NCc2ccc(NCCO)cc2)c1C

>  <scaffold>  (1221) 
O=C(Nc1c[nH+]c2ccccc2c1NCc1ccccc1)c1ccccc1

>  <molecular_formula>  (1221) 
C27H29N4O2+

$$$$
ATP-HTVS-C0E7239EA73D
     RDKit          3D

 62 64  0  0  0  0  0  0  0  0999 V2000
  200.3100  185.7261  158.7083 O   0  0  0  0  0  0  0  0  0  0  0  0
  199.0799  185.6797  158.6033 C   0  0  0  0  0  0  0  0  0  0  0  0
  198.4219  184.5855  159.0875 N   0  0  0  0  0  0  0  0  0  0  0  0
  197.0117  184.4410  159.1887 C   0  0  0  0  0  0  0  0  0  0  0  0
  196.3298  185.2182  160.0647 N   0  0  0  0  0  0  0  0  0  0  0  0
  194.9919  185.1475  160.0874 C   0  0  0  0  0  0  0  0  0  0  0  0
  194.2586  184.2056  159.3495 C   0  0  0  0  0  0  0  0  0  0  0  0
  194.9608  183.3113  158.5237 C   0  0  0  0  0  0  0  0  0  0  0  0
  196.3668  183.4247  158.4240 C   0  0  0  0  0  0  0  0  0  0  0  0
  197.1106  182.5783  157.5719 N   0  0  0  0  0  0  0  0  0  0  0  0
  196.5155  181.9166  156.4189 C   0  0  1  0  0  0  0  0  0  0  0  0
  197.5435  181.2780  155.4944 C   0  0  0  0  0  0  0  0  0  0  0  0
  197.9890  179.9653  155.7240 C   0  0  0  0  0  0  0  0  0  0  0  0
  198.9758  179.3803  154.8998 C   0  0  0  0  0  0  0  0  0  0  0  0
  199.4963  180.1007  153.8018 C   0  0  0  0  0  0  0  0  0  0  0  0
  199.0384  181.4088  153.5547 C   0  0  0  0  0  0  0  0  0  0  0  0
  198.0722  181.9877  154.3981 C   0  0  0  0  0  0  0  0  0  0  0  0
  199.4727  177.9807  155.2136 C   0  0  1  0  0  0  0  0  0  0  0  0
  200.6414  177.9871  156.1328 N   0  0  2  0  0  0  0  0  0  0  0  0
  201.2557  176.6473  156.2544 C   0  0  2  0  0  0  0  0  0  0  0  0
  200.3443  178.5715  157.4627 C   0  0  2  0  0  0  0  0  0  0  0  0
  199.2159  183.4856  159.6467 C   0  0  2  0  0  0  0  0  0  0  0  0
  198.4340  186.8924  157.8417 C   0  0  2  0  0  0  0  0  0  0  0  0
  197.1183  187.1995  158.2389 O   0  0  0  0  0  0  0  0  0  0  0  0
  198.4663  186.6222  156.3249 C   0  0  0  0  0  0  0  0  0  0  0  0
  199.3653  187.3106  155.4661 C   0  0  0  0  0  0  0  0  0  0  0  0
  199.3700  187.0673  154.0799 C   0  0  0  0  0  0  0  0  0  0  0  0
  198.4723  186.1385  153.5222 C   0  0  0  0  0  0  0  0  0  0  0  0
  197.5450  185.4791  154.3557 C   0  0  0  0  0  0  0  0  0  0  0  0
  197.5677  185.6981  155.7464 C   0  0  0  0  0  0  0  0  0  0  0  0
  199.1817  188.2026  158.2265 C   0  0  2  0  0  0  0  0  0  0  0  0
  194.4904  185.8932  160.6876 H   0  0  0  0  0  0  0  0  0  0  0  0
  193.1803  184.1920  159.3994 H   0  0  0  0  0  0  0  0  0  0  0  0
  194.4173  182.5557  157.9798 H   0  0  0  0  0  0  0  0  0  0  0  0
  198.1093  182.4989  157.6934 H   0  0  0  0  0  0  0  0  0  0  0  0
  195.8088  181.1535  156.7473 H   0  0  0  0  0  0  0  0  0  0  0  0
  195.9505  182.6547  155.8515 H   0  0  0  0  0  0  0  0  0  0  0  0
  197.5795  179.4212  156.5564 H   0  0  0  0  0  0  0  0  0  0  0  0
  200.2420  179.6658  153.1491 H   0  0  0  0  0  0  0  0  0  0  0  0
  199.4234  181.9752  152.7216 H   0  0  0  0  0  0  0  0  0  0  0  0
  197.7301  182.9857  154.1970 H   0  0  0  0  0  0  0  0  0  0  0  0
  198.6541  177.4053  155.6505 H   0  0  0  0  0  0  0  0  0  0  0  0
  199.7337  177.4951  154.2686 H   0  0  0  0  0  0  0  0  0  0  0  0
  200.5467  175.9271  156.6634 H   0  0  0  0  0  0  0  0  0  0  0  0
  202.1176  176.6770  156.9184 H   0  0  0  0  0  0  0  0  0  0  0  0
  201.5974  176.2806  155.2857 H   0  0  0  0  0  0  0  0  0  0  0  0
  199.5703  177.9949  157.9684 H   0  0  0  0  0  0  0  0  0  0  0  0
  200.0051  179.6042  157.3910 H   0  0  0  0  0  0  0  0  0  0  0  0
  201.2330  178.5827  158.0922 H   0  0  0  0  0  0  0  0  0  0  0  0
  198.5691  182.6597  159.9445 H   0  0  0  0  0  0  0  0  0  0  0  0
  199.7693  183.8121  160.5297 H   0  0  0  0  0  0  0  0  0  0  0  0
  199.9299  183.0974  158.9164 H   0  0  0  0  0  0  0  0  0  0  0  0
  196.8575  187.9926  157.7833 H   0  0  0  0  0  0  0  0  0  0  0  0
  200.0569  188.0497  155.8282 H   0  0  0  0  0  0  0  0  0  0  0  0
  200.0478  187.6161  153.4402 H   0  0  0  0  0  0  0  0  0  0  0  0
  198.4708  185.9513  152.4531 H   0  0  0  0  0  0  0  0  0  0  0  0
  196.8065  184.8236  153.9172 H   0  0  0  0  0  0  0  0  0  0  0  0
  196.8649  185.1661  156.3678 H   0  0  0  0  0  0  0  0  0  0  0  0
  200.2483  188.1546  158.0284 H   0  0  0  0  0  0  0  0  0  0  0  0
  199.0701  188.4129  159.2878 H   0  0  0  0  0  0  0  0  0  0  0  0
  198.7928  189.0636  157.6811 H   0  0  0  0  0  0  0  0  0  0  0  0
  201.3334  178.5849  155.7040 H   0  0  0  0  0  0  0  0  0  0  0  0
  1  2  2  0
  2  3  1  0
  2 23  1  0
  3  4  1  0
  3 22  1  0
  4  5  1  0
  4  9  2  0
  5  6  2  0
  6  7  1  0
  6 32  1  0
  7  8  2  0
  7 33  1  0
  8  9  1  0
  8 34  1  0
  9 10  1  0
 10 11  1  0
 10 35  1  0
 11 12  1  0
 11 36  1  1
 11 37  1  0
 12 13  2  0
 12 17  1  0
 13 14  1  0
 13 38  1  0
 14 15  2  0
 14 18  1  0
 15 16  1  0
 15 39  1  0
 16 17  2  0
 16 40  1  0
 17 41  1  0
 18 19  1  0
 18 42  1  1
 18 43  1  0
 19 20  1  0
 19 21  1  0
 19 62  1  6
 20 44  1  1
 20 45  1  0
 20 46  1  0
 21 47  1  1
 21 48  1  0
 21 49  1  0
 22 50  1  1
 22 51  1  0
 22 52  1  0
 23 24  1  1
 23 25  1  0
 23 31  1  0
 24 53  1  0
 25 26  2  0
 25 30  1  0
 26 27  1  0
 26 54  1  0
 27 28  2  0
 27 55  1  0
 28 29  1  0
 28 56  1  0
 29 30  2  0
 29 57  1  0
 30 58  1  0
 31 59  1  1
 31 60  1  0
 31 61  1  0
M  CHG  1  19   1
M  END
>  <s_epik_cmdline>  (1222) 
J2VwaWtfcHl0aG9uJywgJy1waCcsICc3LjAwMDAwMCcsICctcGh0JywgJzIuMDAwMDAwJywgJy1tcycsICcxNicsICctdG4nLCAnOCcsICctbWEnLCAnMjAwJywgJy1pbWFlJywgJzxpbmZpbGUubWFlPicsICctb21hZScsICc8b3V0ZmlsZS5tYWU+Jw==

>  <s_epik_input>  (1222) 
W2NIXTFbY0hdW2NIXVtjSF1bY0hdYzFbQ0BdKFtPSF0pKFtDSDNdKUMoPU8pTihbQ0gzXSljMm5bY0hdW2NIXVtjSF1jMltOSF1bQ0gyXWMzW2NIXWMoW2NIXVtjSF1bY0hdMylbQ0gyXU4oW0NIM10pW0NIM10=

>  <s_i_glide_gridfile>  (1222) 
ATP-Grid

>  <s_lp_Force_Field>  (1222) 
OPLS_2005

>  <s_lp_Variant>  (1222) 
rxn502a____EMOL299976369____EMOL45980405____EMOL2873214-1

>  <s_lp_label>  (1222) 
2939_sdstereoexpander_1_neutralizer_1_epik_1_stereoizer_1

>  <s_m_source_file>  (1222) 
ATP-VSW-LIGPREP-002-in.maegz

>  <s_sd_BIOSOLVEIT.INFINISEE\_QUERY\_NAME>  (1222) 
Ref-Lig

>  <s_sd_BIOSOLVEIT.INFINISEE\_QUERY\_SMILES>  (1222) 
S(c1nc2c(cc1C[NH2+]Cc3ccc(cc3)C[NH+](C)C)cccc2)Cc4ccccc4

>  <s_sd_BIOSOLVEIT.INFINISEE\_REACTION\_NAME>  (1222) 
rxn502a

>  <s_sd_BIOSOLVEIT.INFINISEE\_REAGENT1\_NAME>  (1222) 
EMOL299976369

>  <s_sd_BIOSOLVEIT.INFINISEE\_REAGENT1\_SMILES>  (1222) 
O=C(O)C(O)(c1ccccc1)C

>  <s_sd_BIOSOLVEIT.INFINISEE\_REAGENT2\_NAME>  (1222) 
EMOL45980405

>  <s_sd_BIOSOLVEIT.INFINISEE\_REAGENT2\_SMILES>  (1222) 
Ic1c(nccc1)NC

>  <s_sd_BIOSOLVEIT.INFINISEE\_REAGENT3\_NAME>  (1222) 
EMOL2873214

>  <s_sd_BIOSOLVEIT.INFINISEE\_REAGENT3\_SMILES>  (1222) 
N(Cc1cc(ccc1)CN)(C)C

>  <s_sd_BIOSOLVEIT.INFINISEE\_SPACE>  (1222) 
eXplore_7tr_2022-12

>  <s_vsw_compound_code>  (1222) 
94018

>  <s_vsw_variant>  (1222) 
94018-1

>  <r_epik_Charging_Adjusted_Penalty>  (1222) 
0.122706888246428

>  <r_epik_Ionization_Penalty>  (1222) 
0.078600000000000003

>  <r_epik_Ionization_Penalty_Charging>  (1222) 
0.0441

>  <r_epik_Ionization_Penalty_Neutral>  (1222) 
0.034500000000000003

>  <r_epik_State_Penalty>  (1222) 
0.078600000000000003

>  <r_i_docking_score>  (1222) 
-3.9857464509393798

>  <r_i_glide_ecoul>  (1222) 
-6.0896978378295898

>  <r_i_glide_eff_state_penalty>  (1222) 
0.078600000000000003

>  <r_i_glide_einternal>  (1222) 
2.82172703742981

>  <r_i_glide_emodel>  (1222) 
-54.3734105165478

>  <r_i_glide_energy>  (1222) 
-40.894190788269

>  <r_i_glide_erotb>  (1222) 
0.78681599953611503

>  <r_i_glide_esite>  (1222) 
-0.048078507208106899

>  <r_i_glide_evdw>  (1222) 
-34.804492950439503

>  <r_i_glide_gscore>  (1222) 
-4.0643464509393796

>  <r_i_glide_hbond>  (1222) 
0

>  <r_i_glide_ligand_efficiency>  (1222) 
-0.12857246615933501

>  <r_i_glide_ligand_efficiency_ln>  (1222) 
-0.89890797314607696

>  <r_i_glide_ligand_efficiency_sa>  (1222) 
-0.403895057160858

>  <r_i_glide_lipo>  (1222) 
-1.1892940578048701

>  <r_i_glide_metal>  (1222) 
-0

>  <r_i_glide_rewards>  (1222) 
-0.96011056226610902

>  <r_lp_Energy>  (1222) 
44.199457000000002

>  <r_lp_tautomer_probability>  (1222) 
0.999999999999999

>  <r_qp_ACxDN^.5/SA>  (1222) 
0.014305399999999999

>  <r_qp_CIQPlogS>  (1222) 
-4.6280000000000001

>  <r_qp_EA(eV)>  (1222) 
0.46800000000000003

>  <r_qp_FISA>  (1222) 
53.286999999999999

>  <r_qp_FOSA>  (1222) 
326.66699999999997

>  <r_qp_IP(eV)>  (1222) 
8.5839999999999996

>  <r_qp_Jm>  (1222) 
0.045931790316917402

>  <r_qp_PISA>  (1222) 
386.20100000000002

>  <r_qp_PSA>  (1222) 
65.408000000000001

>  <r_qp_PercentHumanOralAbsorption>  (1222) 
100

>  <r_qp_QPPCaco>  (1222) 
771.75599999999997

>  <r_qp_QPPMDCK>  (1222) 
413.62700000000001

>  <r_qp_QPlogBB>  (1222) 
-0.14499999999999999

>  <r_qp_QPlogHERG>  (1222) 
-7.4420000000000002

>  <r_qp_QPlogKhsa>  (1222) 
0.505

>  <r_qp_QPlogKp>  (1222) 
-2.3399999999999999

>  <r_qp_QPlogPC16>  (1222) 
14.930999999999999

>  <r_qp_QPlogPo/w>  (1222) 
4.306

>  <r_qp_QPlogPoct>  (1222) 
23.100999999999999

>  <r_qp_QPlogPw>  (1222) 
13.130000000000001

>  <r_qp_QPlogS>  (1222) 
-4.6200000000000001

>  <r_qp_QPpolrz>  (1222) 
48.155000000000001

>  <r_qp_SASA>  (1222) 
766.15499999999997

>  <r_qp_SAamideO>  (1222) 
0

>  <r_qp_SAfluorine>  (1222) 
0

>  <r_qp_WPSA>  (1222) 
0

>  <r_qp_accptHB>  (1222) 
7.75

>  <r_qp_dip^2/V>  (1222) 
0.024446300000000001

>  <r_qp_dipole>  (1222) 
5.8700000000000001

>  <r_qp_donorHB>  (1222) 
2

>  <r_qp_glob>  (1222) 
0.79344289999999995

>  <r_qp_mol_MW>  (1222) 
418.53800000000001

>  <r_qp_volume>  (1222) 
1409.2909999999999

>  <r_sd_BIOSOLVEIT.INFINISEE\_FTREES\_SIMILARITY>  (1222) 
0.90400000000000003

>  <r_sd_BIOSOLVEIT.LOGP>  (1222) 
2.2086999999999999

>  <r_sd_BIOSOLVEIT.MOLECULAR\_WEIGHT>  (1222) 
419.54599999999999

>  <r_sd_BIOSOLVEIT.TPSA>  (1222) 
69.900000000000006

>  <i_epik_Tot_Q>  (1222) 
1

>  <i_epik_Tot_abs_Q>  (1222) 
1

>  <i_f3d_flags>  (1222) 
0

>  <i_i_glide_confnum>  (1222) 
6

>  <i_i_glide_lignum>  (1222) 
4

>  <i_i_glide_posenum>  (1222) 
20

>  <i_i_glide_rotatable_bonds>  (1222) 
10

>  <i_lp_mmshare_version>  (1222) 
65135

>  <i_m_ct_format>  (1222) 
2

>  <i_m_source_file_index>  (1222) 
2939

>  <i_qp_#NandO>  (1222) 
6

>  <i_qp_#acid>  (1222) 
0

>  <i_qp_#amide>  (1222) 
0

>  <i_qp_#amidine>  (1222) 
0

>  <i_qp_#amine>  (1222) 
1

>  <i_qp_#in34>  (1222) 
0

>  <i_qp_#in56>  (1222) 
18

>  <i_qp_#metab>  (1222) 
10

>  <i_qp_#nonHatm>  (1222) 
31

>  <i_qp_#noncon>  (1222) 
0

>  <i_qp_#ringatoms>  (1222) 
18

>  <i_qp_#rotor>  (1222) 
9

>  <i_qp_#rtvFG>  (1222) 
0

>  <i_qp_#stars>  (1222) 
1

>  <i_qp_CNS>  (1222) 
1

>  <i_qp_HumanOralAbsorption>  (1222) 
1

>  <i_qp_RuleOfFive>  (1222) 
0

>  <i_qp_RuleOfThree>  (1222) 
1

>  <i_sd_BIOSOLVEIT.INFINISEE\_RESULT\_RANK>  (1222) 
79056

>  <i_sd_version>  (1222) 
0

>  <b_lp_Chiralities_Consistent>  (1222) 
1

>  <b_sd_chiral_flag>  (1222) 
0

>  <canonical_id>  (1222) 
ATP-HTVS-C0E7239EA73D

>  <compound_code>  (1222) 
94018

>  <title>  (1222) 
rxn502a____EMOL299976369____EMOL45980405____EMOL2873214

>  <variant>  (1222) 
94018-1

>  <source_file>  (1222) 
运行/运行/ATP-VSW/ATP-VSW-DOCK_HTVS_1-003_lib/ATP-VSW-DOCK_HTVS_1-003_lib.mae

>  <canonical_smiles>  (1222) 
CN(C(=O)[C@](C)(O)c1ccccc1)c1ncccc1NCc1cccc(C[NH+](C)C)c1

>  <scaffold>  (1222) 
O=C(Cc1ccccc1)Nc1ncccc1NCc1ccccc1

>  <molecular_formula>  (1222) 
C25H31N4O2+

$$$$
ATP-HTVS-C10AA91B306E
     RDKit          3D

 56 58  0  0  0  0  0  0  0  0999 V2000
  203.9878  189.2174  153.4206 F   0  0  0  0  0  0  0  0  0  0  0  0
  202.9128  189.4837  152.6735 C   0  0  1  0  0  0  0  0  0  0  0  0
  202.9584  190.7612  152.2958 F   0  0  0  0  0  0  0  0  0  0  0  0
  202.9584  188.7109  151.5857 F   0  0  0  0  0  0  0  0  0  0  0  0
  201.6417  189.2417  153.4748 C   0  0  0  0  0  0  0  0  0  0  0  0
  201.6303  189.4701  154.8681 C   0  0  0  0  0  0  0  0  0  0  0  0
  200.4585  189.2765  155.6290 C   0  0  0  0  0  0  0  0  0  0  0  0
  199.2901  188.8267  154.9698 C   0  0  0  0  0  0  0  0  0  0  0  0
  199.2905  188.6015  153.5798 C   0  0  0  0  0  0  0  0  0  0  0  0
  200.4621  188.8189  152.8303 C   0  0  0  0  0  0  0  0  0  0  0  0
  200.4835  189.5336  157.0636 C   0  0  0  0  0  0  0  0  0  0  0  0
  199.2890  189.7967  157.6537 O   0  0  0  0  0  0  0  0  0  0  0  0
  199.5041  189.9147  158.9901 C   0  0  0  0  0  0  0  0  0  0  0  0
  200.8432  189.7997  159.2526 C   0  0  0  0  0  0  0  0  0  0  0  0
  201.4781  189.5599  158.0003 C   0  0  0  0  0  0  0  0  0  0  0  0
  198.2813  190.0903  159.8380 C   0  0  1  0  0  0  0  0  0  0  0  0
  197.5840  188.8088  160.1009 N   0  0  2  0  0  0  0  0  0  0  0  0
  196.9247  188.2265  158.8965 C   0  0  1  0  0  0  0  0  0  0  0  0
  196.7980  186.7228  158.9954 C   0  0  0  0  0  0  0  0  0  0  0  0
  195.7000  186.1354  159.6516 C   0  0  0  0  0  0  0  0  0  0  0  0
  195.5973  184.7349  159.7391 C   0  0  0  0  0  0  0  0  0  0  0  0
  196.5778  183.9081  159.1379 C   0  0  0  0  0  0  0  0  0  0  0  0
  197.6784  184.5050  158.4861 C   0  0  0  0  0  0  0  0  0  0  0  0
  197.7889  185.9049  158.4110 C   0  0  0  0  0  0  0  0  0  0  0  0
  196.4337  182.3936  159.1751 C   0  0  1  0  0  0  0  0  0  0  0  0
  195.6651  181.8378  158.0310 N   0  0  1  0  0  0  0  0  0  0  0  0
  194.2084  182.0496  158.1502 C   0  0  2  0  0  0  0  0  0  0  0  0
  196.1869  182.2368  156.7033 C   0  0  2  0  0  0  0  0  0  0  0  0
  196.6596  188.9151  161.2607 C   0  0  2  0  0  0  0  0  0  0  0  0
  202.5287  189.8160  155.3513 H   0  0  0  0  0  0  0  0  0  0  0  0
  198.3762  188.6607  155.5197 H   0  0  0  0  0  0  0  0  0  0  0  0
  198.3891  188.2720  153.0829 H   0  0  0  0  0  0  0  0  0  0  0  0
  200.4543  188.6512  151.7592 H   0  0  0  0  0  0  0  0  0  0  0  0
  201.3028  189.8518  160.2284 H   0  0  0  0  0  0  0  0  0  0  0  0
  202.5278  189.3779  157.8173 H   0  0  0  0  0  0  0  0  0  0  0  0
  198.5910  190.5407  160.7783 H   0  0  0  0  0  0  0  0  0  0  0  0
  197.5901  190.7954  159.3753 H   0  0  0  0  0  0  0  0  0  0  0  0
  195.9522  188.6959  158.7939 H   0  0  0  0  0  0  0  0  0  0  0  0
  197.4252  188.4166  157.9474 H   0  0  0  0  0  0  0  0  0  0  0  0
  194.9117  186.7490  160.0631 H   0  0  0  0  0  0  0  0  0  0  0  0
  194.7461  184.3003  160.2431 H   0  0  0  0  0  0  0  0  0  0  0  0
  198.4308  183.8900  158.0077 H   0  0  0  0  0  0  0  0  0  0  0  0
  198.6109  186.3445  157.8647 H   0  0  0  0  0  0  0  0  0  0  0  0
  197.4274  181.9507  159.1956 H   0  0  0  0  0  0  0  0  0  0  0  0
  195.9483  182.1209  160.1142 H   0  0  0  0  0  0  0  0  0  0  0  0
  193.9467  183.1048  158.0977 H   0  0  0  0  0  0  0  0  0  0  0  0
  193.8435  181.6505  159.0955 H   0  0  0  0  0  0  0  0  0  0  0  0
  193.6852  181.5163  157.3550 H   0  0  0  0  0  0  0  0  0  0  0  0
  196.0977  183.3101  156.5351 H   0  0  0  0  0  0  0  0  0  0  0  0
  195.6341  181.7399  155.9057 H   0  0  0  0  0  0  0  0  0  0  0  0
  197.2370  181.9590  156.6093 H   0  0  0  0  0  0  0  0  0  0  0  0
  195.8209  189.5746  161.0371 H   0  0  0  0  0  0  0  0  0  0  0  0
  197.1431  189.3034  162.1456 H   0  0  0  0  0  0  0  0  0  0  0  0
  196.2503  187.9471  161.5428 H   0  0  0  0  0  0  0  0  0  0  0  0
  195.7724  180.8171  158.0707 H   0  0  0  0  0  0  0  0  0  0  0  0
  198.3127  188.1732  160.3862 H   0  0  0  0  0  0  0  0  0  0  0  0
  2  1  1  1
  2  3  1  0
  2  4  1  0
  2  5  1  0
  5  6  1  0
  5 10  2  0
  6  7  2  0
  6 30  1  0
  7  8  1  0
  7 11  1  0
  8  9  2  0
  8 31  1  0
  9 10  1  0
  9 32  1  0
 10 33  1  0
 11 12  1  0
 11 15  2  0
 12 13  1  0
 13 14  2  0
 13 16  1  0
 14 15  1  0
 14 34  1  0
 15 35  1  0
 16 17  1  0
 16 36  1  1
 16 37  1  0
 17 18  1  0
 17 29  1  0
 17 56  1  1
 18 19  1  0
 18 38  1  6
 18 39  1  0
 19 20  1  0
 19 24  2  0
 20 21  2  0
 20 40  1  0
 21 22  1  0
 21 41  1  0
 22 23  2  0
 22 25  1  0
 23 24  1  0
 23 42  1  0
 24 43  1  0
 25 26  1  0
 25 44  1  1
 25 45  1  0
 26 27  1  0
 26 28  1  0
 26 55  1  6
 27 46  1  1
 27 47  1  0
 27 48  1  0
 28 49  1  6
 28 50  1  0
 28 51  1  0
 29 52  1  6
 29 53  1  0
 29 54  1  0
M  CHG  2  17   1  26   1
M  END
>  <s_epik_cmdline>  (1223) 
J2VwaWtfcHl0aG9uJywgJy1waCcsICc3LjAwMDAwMCcsICctcGh0JywgJzIuMDAwMDAwJywgJy1tcycsICcxNicsICctdG4nLCAnOCcsICctbWEnLCAnMjAwJywgJy1pbWFlJywgJzxpbmZpbGUubWFlPicsICctb21hZScsICc8b3V0ZmlsZS5tYWU+Jw==

>  <s_epik_input>  (1223) 
RkMoRikoRiljMVtjSF1jKFtjSF1bY0hdW2NIXTEpLWMyb2MoW2NIXVtjSF0yKVtDSDJdTihbQ0gzXSlbQ0gyXWMzW2NIXVtjSF1jKFtjSF1bY0hdMylbQ0gyXU4oW0NIM10pW0NIM10=

>  <s_i_glide_gridfile>  (1223) 
ATP-Grid

>  <s_lp_Force_Field>  (1223) 
OPLS_2005

>  <s_lp_Variant>  (1223) 
m_270004bca____10206040____8628052-2

>  <s_lp_label>  (1223) 
2117_sdstereoexpander_1_neutralizer_1_epik_1_stereoizer_2

>  <s_m_source_file>  (1223) 
ATP-VSW-LIGPREP-001-in.maegz

>  <s_sd_BIOSOLVEIT.INFINISEE\_QUERY\_NAME>  (1223) 
Ref-Lig

>  <s_sd_BIOSOLVEIT.INFINISEE\_QUERY\_SMILES>  (1223) 
S(c1nc2c(cc1C[NH2+]Cc3ccc(cc3)C[NH+](C)C)cccc2)Cc4ccccc4

>  <s_sd_BIOSOLVEIT.INFINISEE\_REACTION\_NAME>  (1223) 
m_270004bca

>  <s_sd_BIOSOLVEIT.INFINISEE\_REAGENT1\_SMILES>  (1223) 
[R1*]N(Cc1ccc(cc1)CN(C)C)C

>  <s_sd_BIOSOLVEIT.INFINISEE\_REAGENT2\_SMILES>  (1223) 
[R1*]CC=1OC(c2cc(ccc2)C(F)(F)F)=CC1

>  <s_sd_BIOSOLVEIT.INFINISEE\_SPACE>  (1223) 
REALSpace_44bn_2023-08

>  <s_vsw_compound_code>  (1223) 
67713

>  <s_vsw_variant>  (1223) 
67713-2

>  <r_epik_Charging_Adjusted_Penalty>  (1223) 
0.27234712808151201

>  <r_epik_Ionization_Penalty>  (1223) 
0.13669999999999999

>  <r_epik_Ionization_Penalty_Charging>  (1223) 
0.13669999999999999

>  <r_epik_Ionization_Penalty_Neutral>  (1223) 
0

>  <r_epik_State_Penalty>  (1223) 
0.13569999999999999

>  <r_i_docking_score>  (1223) 
-4.9441152980524201

>  <r_i_glide_ecoul>  (1223) 
-13.343113899231

>  <r_i_glide_eff_state_penalty>  (1223) 
0.13569999999999999

>  <r_i_glide_einternal>  (1223) 
2.1278724670410201

>  <r_i_glide_emodel>  (1223) 
-56.187099890914197

>  <r_i_glide_energy>  (1223) 
-36.349732398986802

>  <r_i_glide_erotb>  (1223) 
0.72044129530965195

>  <r_i_glide_esite>  (1223) 
-0.13268344746935501

>  <r_i_glide_evdw>  (1223) 
-23.006618499755898

>  <r_i_glide_gscore>  (1223) 
-5.07981529805242

>  <r_i_glide_hbond>  (1223) 
-0.20000000000000001

>  <r_i_glide_ligand_efficiency>  (1223) 
-0.170486734415601

>  <r_i_glide_ligand_efficiency_ln>  (1223) 
-1.13207703130743

>  <r_i_glide_ligand_efficiency_sa>  (1223) 
-0.52378926211336696

>  <r_i_glide_lipo>  (1223) 
-1.2141773580951001

>  <r_i_glide_metal>  (1223) 
-0

>  <r_i_glide_rewards>  (1223) 
-1.10159777792518

>  <r_lp_Energy>  (1223) 
16.329791

>  <r_qp_ACxDN^.5/SA>  (1223) 
0

>  <r_qp_CIQPlogS>  (1223) 
-4.4550000000000001

>  <r_qp_EA(eV)>  (1223) 
0.625

>  <r_qp_FISA>  (1223) 
3.4060000000000001

>  <r_qp_FOSA>  (1223) 
285.18400000000003

>  <r_qp_IP(eV)>  (1223) 
8.8109999999999999

>  <r_qp_Jm>  (1223) 
0.0084443232833991497

>  <r_qp_PISA>  (1223) 
252.46799999999999

>  <r_qp_PSA>  (1223) 
15.385

>  <r_qp_PercentHumanOralAbsorption>  (1223) 
100

>  <r_qp_QPPCaco>  (1223) 
572.01199999999994

>  <r_qp_QPPMDCK>  (1223) 
1456.598

>  <r_qp_QPlogBB>  (1223) 
1.256

>  <r_qp_QPlogHERG>  (1223) 
-6.6159999999999997

>  <r_qp_QPlogKhsa>  (1223) 
0.77400000000000002

>  <r_qp_QPlogKp>  (1223) 
-4.242

>  <r_qp_QPlogPC16>  (1223) 
10.821999999999999

>  <r_qp_QPlogPo/w>  (1223) 
4.8929999999999998

>  <r_qp_QPlogPoct>  (1223) 
16.594999999999999

>  <r_qp_QPlogPw>  (1223) 
6.194

>  <r_qp_QPlogS>  (1223) 
-3.4359999999999999

>  <r_qp_QPpolrz>  (1223) 
42.235999999999997

>  <r_qp_SASA>  (1223) 
658.51800000000003

>  <r_qp_SAamideO>  (1223) 
0

>  <r_qp_SAfluorine>  (1223) 
117.45999999999999

>  <r_qp_WPSA>  (1223) 
117.45999999999999

>  <r_qp_accptHB>  (1223) 
4.5

>  <r_qp_dip^2/V>  (1223) 
0.0119455

>  <r_qp_dipole>  (1223) 
3.8570000000000002

>  <r_qp_donorHB>  (1223) 
0

>  <r_qp_glob>  (1223) 
0.84999840000000004

>  <r_qp_mol_MW>  (1223) 
402.459

>  <r_qp_volume>  (1223) 
1245.1769999999999

>  <r_sd_BIOSOLVEIT.INFINISEE\_FTREES\_SIMILARITY>  (1223) 
0.90100000000000002

>  <r_sd_BIOSOLVEIT.LOGP>  (1223) 
2.8248000000000002

>  <r_sd_BIOSOLVEIT.MOLECULAR\_WEIGHT>  (1223) 
404.47300000000001

>  <r_sd_BIOSOLVEIT.TPSA>  (1223) 
22.02

>  <i_epik_Tot_Q>  (1223) 
2

>  <i_epik_Tot_abs_Q>  (1223) 
2

>  <i_f3d_flags>  (1223) 
0

>  <i_i_glide_confnum>  (1223) 
6

>  <i_i_glide_lignum>  (1223) 
664

>  <i_i_glide_posenum>  (1223) 
17

>  <i_i_glide_rotatable_bonds>  (1223) 
8

>  <i_lp_mmshare_version>  (1223) 
65135

>  <i_m_ct_format>  (1223) 
2

>  <i_m_source_file_index>  (1223) 
2117

>  <i_qp_#NandO>  (1223) 
3

>  <i_qp_#acid>  (1223) 
0

>  <i_qp_#amide>  (1223) 
0

>  <i_qp_#amidine>  (1223) 
0

>  <i_qp_#amine>  (1223) 
2

>  <i_qp_#in34>  (1223) 
0

>  <i_qp_#in56>  (1223) 
17

>  <i_qp_#metab>  (1223) 
7

>  <i_qp_#nonHatm>  (1223) 
29

>  <i_qp_#noncon>  (1223) 
0

>  <i_qp_#ringatoms>  (1223) 
17

>  <i_qp_#rotor>  (1223) 
6

>  <i_qp_#rtvFG>  (1223) 
0

>  <i_qp_#stars>  (1223) 
2

>  <i_qp_CNS>  (1223) 
2

>  <i_qp_HumanOralAbsorption>  (1223) 
3

>  <i_qp_RuleOfFive>  (1223) 
0

>  <i_qp_RuleOfThree>  (1223) 
1

>  <i_sd_BIOSOLVEIT.INFINISEE\_REAGENT1\_NAME>  (1223) 
10206040

>  <i_sd_BIOSOLVEIT.INFINISEE\_REAGENT2\_NAME>  (1223) 
8628052

>  <i_sd_BIOSOLVEIT.INFINISEE\_RESULT\_RANK>  (1223) 
98332

>  <i_sd_version>  (1223) 
0

>  <b_lp_Chiralities_Consistent>  (1223) 
1

>  <b_sd_chiral_flag>  (1223) 
0

>  <canonical_id>  (1223) 
ATP-HTVS-C10AA91B306E

>  <compound_code>  (1223) 
67713

>  <title>  (1223) 
m_270004bca____10206040____8628052

>  <variant>  (1223) 
67713-2

>  <source_file>  (1223) 
运行/运行/ATP-VSW/ATP-VSW-DOCK_HTVS_1-001_lib/ATP-VSW-DOCK_HTVS_1-001_lib

>  <canonical_smiles>  (1223) 
C[NH+](C)Cc1ccc(C[N@H+](C)Cc2ccc(-c3cccc(C(F)(F)F)c3)o2)cc1

>  <scaffold>  (1223) 
c1ccc(C[NH2+]Cc2ccc(-c3ccccc3)o2)cc1

>  <molecular_formula>  (1223) 
C23H27F3N2O+2

$$$$
ATP-HTVS-C12B4C379970
     RDKit          3D

 51 54  0  0  0  0  0  0  0  0999 V2000
  198.5727  179.9328  155.0239 Cl  0  0  0  0  0  0  0  0  0  0  0  0
  199.5526  180.7675  156.1853 C   0  0  0  0  0  0  0  0  0  0  0  0
  199.2223  182.0847  156.5563 C   0  0  0  0  0  0  0  0  0  0  0  0
  199.9290  182.7975  157.4532 N   0  0  0  0  0  0  0  0  0  0  0  0
  201.0237  182.2613  158.0254 C   0  0  0  0  0  0  0  0  0  0  0  0
  201.4476  180.9429  157.7060 C   0  0  0  0  0  0  0  0  0  0  0  0
  200.6988  180.1796  156.7656 C   0  0  0  0  0  0  0  0  0  0  0  0
  201.0629  178.8114  156.3843 C   0  0  0  0  0  0  0  0  0  0  0  0
  201.5549  178.5460  155.0879 C   0  0  0  0  0  0  0  0  0  0  0  0
  201.8982  177.2361  154.7153 C   0  0  0  0  0  0  0  0  0  0  0  0
  201.7485  176.1859  155.6390 C   0  0  0  0  0  0  0  0  0  0  0  0
  201.2498  176.4439  156.9285 C   0  0  0  0  0  0  0  0  0  0  0  0
  200.8882  177.7500  157.2967 C   0  0  0  0  0  0  0  0  0  0  0  0
  202.5930  180.4161  158.3365 C   0  0  0  0  0  0  0  0  0  0  0  0
  203.3144  181.1649  159.2755 C   0  0  0  0  0  0  0  0  0  0  0  0
  202.9053  182.4690  159.5941 C   0  0  0  0  0  0  0  0  0  0  0  0
  201.7668  183.0144  158.9677 C   0  0  0  0  0  0  0  0  0  0  0  0
  198.0624  182.8331  155.9197 C   0  0  1  0  0  0  0  0  0  0  0  0
  196.7824  182.5953  156.6006 N   0  0  0  0  0  0  0  0  0  0  0  0
  196.6515  183.1532  157.9513 C   0  0  1  0  0  0  0  0  0  0  0  0
  196.9196  184.6552  158.0227 C   0  0  0  0  0  0  0  0  0  0  0  0
  197.0659  185.2697  159.2898 C   0  0  0  0  0  0  0  0  0  0  0  0
  196.9154  184.5221  160.4146 F   0  0  0  0  0  0  0  0  0  0  0  0
  197.3672  186.6439  159.3856 C   0  0  0  0  0  0  0  0  0  0  0  0
  197.5390  187.4194  158.2147 C   0  0  0  0  0  0  0  0  0  0  0  0
  197.3795  186.8107  156.9522 C   0  0  0  0  0  0  0  0  0  0  0  0
  197.0528  185.4516  156.8670 C   0  0  0  0  0  0  0  0  0  0  0  0
  195.2303  182.8290  158.4870 C   0  0  1  0  0  0  0  0  0  0  0  0
  195.1059  181.4422  158.9221 N   0  0  2  0  0  0  0  0  0  0  0  0
  195.9879  182.8558  156.0318 H   0  0  0  0  0  0  0  0  0  0  0  0
  194.1673  181.2632  159.2495 H   0  0  0  0  0  0  0  0  0  0  0  0
  195.7612  181.2487  159.6693 H   0  0  0  0  0  0  0  0  0  0  0  0
  201.6673  179.3563  154.3812 H   0  0  0  0  0  0  0  0  0  0  0  0
  202.2857  177.0449  153.7283 H   0  0  0  0  0  0  0  0  0  0  0  0
  202.0271  175.1811  155.3643 H   0  0  0  0  0  0  0  0  0  0  0  0
  201.1640  175.6468  157.6452 H   0  0  0  0  0  0  0  0  0  0  0  0
  200.5018  177.9554  158.2855 H   0  0  0  0  0  0  0  0  0  0  0  0
  202.9221  179.4278  158.0979 H   0  0  0  0  0  0  0  0  0  0  0  0
  204.1853  180.7244  159.7338 H   0  0  0  0  0  0  0  0  0  0  0  0
  203.4720  183.0452  160.3088 H   0  0  0  0  0  0  0  0  0  0  0  0
  201.4595  184.0226  159.2175 H   0  0  0  0  0  0  0  0  0  0  0  0
  198.3192  183.8660  155.8756 H   0  0  0  0  0  0  0  0  0  0  0  0
  197.9568  182.4837  154.8802 H   0  0  0  0  0  0  0  0  0  0  0  0
  197.3819  182.6517  158.5890 H   0  0  0  0  0  0  0  0  0  0  0  0
  197.4426  187.1089  160.3616 H   0  0  0  0  0  0  0  0  0  0  0  0
  197.7819  188.4736  158.2840 H   0  0  0  0  0  0  0  0  0  0  0  0
  197.5292  187.3786  156.0432 H   0  0  0  0  0  0  0  0  0  0  0  0
  196.9221  184.9974  155.8855 H   0  0  0  0  0  0  0  0  0  0  0  0
  194.9775  183.4506  159.3533 H   0  0  0  0  0  0  0  0  0  0  0  0
  194.4580  183.0561  157.7431 H   0  0  0  0  0  0  0  0  0  0  0  0
  195.3098  180.7613  158.1859 H   0  0  0  0  0  0  0  0  0  0  0  0
  1  2  1  0
  2  3  1  0
  2  7  2  0
  3  4  2  0
  3 18  1  0
  4  5  1  0
  5  6  1  0
  5 17  2  0
  6  7  1  0
  6 14  2  0
  7  8  1  0
  8  9  2  0
  8 13  1  0
  9 10  1  0
  9 33  1  0
 10 11  2  0
 10 34  1  0
 11 12  1  0
 11 35  1  0
 12 13  2  0
 12 36  1  0
 13 37  1  0
 14 15  1  0
 14 38  1  0
 15 16  2  0
 15 39  1  0
 16 17  1  0
 16 40  1  0
 17 41  1  0
 18 19  1  0
 18 42  1  6
 18 43  1  0
 19 20  1  0
 19 30  1  0
 20 21  1  0
 20 28  1  0
 20 44  1  1
 21 22  1  0
 21 27  2  0
 22 23  1  0
 22 24  2  0
 24 25  1  0
 24 45  1  0
 25 26  2  0
 25 46  1  0
 26 27  1  0
 26 47  1  0
 27 48  1  0
 28 29  1  0
 28 49  1  1
 28 50  1  0
 29 31  1  1
 29 32  1  0
 29 51  1  0
M  CHG  1  29   1
M  END
>  <s_epik_cmdline>  (1224) 
J2VwaWtfcHl0aG9uJywgJy1waCcsICc3LjAwMDAwMCcsICctcGh0JywgJzIuMDAwMDAwJywgJy1tcycsICcxNicsICctdG4nLCAnOCcsICctbWEnLCAnMjAwJywgJy1pbWFlJywgJzxpbmZpbGUubWFlPicsICctb21hZScsICc8b3V0ZmlsZS5tYWU+Jw==

>  <s_epik_input>  (1224) 
W2NIXTFbY0hdW2NIXVtjSF1bY0hdYzEtYyhjKGMyMylbY0hdW2NIXVtjSF1bY0hdMyljKENsKWMobjIpW0NIMl1bTkhdW0NASF0oW0NIMl1bTkgyXSljNGMoRilbY0hdW2NIXVtjSF1bY0hdNA==

>  <s_i_glide_gridfile>  (1224) 
ATP-Grid

>  <s_lp_Force_Field>  (1224) 
OPLS_2005

>  <s_lp_Variant>  (1224) 
m_269982bbb____22505392____7398250-2

>  <s_lp_label>  (1224) 
1102_sdstereoexpander_2_neutralizer_1_epik_1_stereoizer_1

>  <s_m_source_file>  (1224) 
ATP-VSW-LIGPREP-003-in.maegz

>  <s_sd_BIOSOLVEIT.INFINISEE\_QUERY\_NAME>  (1224) 
Ref-Lig

>  <s_sd_BIOSOLVEIT.INFINISEE\_QUERY\_SMILES>  (1224) 
S(c1nc2c(cc1C[NH2+]Cc3ccc(cc3)C[NH+](C)C)cccc2)Cc4ccccc4

>  <s_sd_BIOSOLVEIT.INFINISEE\_REACTION\_NAME>  (1224) 
m_269982bbb

>  <s_sd_BIOSOLVEIT.INFINISEE\_REAGENT1\_SMILES>  (1224) 
[R1*]NC(c1c(F)cccc1)CN

>  <s_sd_BIOSOLVEIT.INFINISEE\_REAGENT2\_SMILES>  (1224) 
[R1*]Cc1nc2c(c(c1Cl)c3ccccc3)cccc2

>  <s_sd_BIOSOLVEIT.INFINISEE\_SPACE>  (1224) 
REALSpace_44bn_2023-08

>  <s_vsw_compound_code>  (1224) 
35235

>  <s_vsw_variant>  (1224) 
35235-2

>  <r_epik_Charging_Adjusted_Penalty>  (1224) 
0.0434524252908726

>  <r_epik_Ionization_Penalty>  (1224) 
0.017899999999999999

>  <r_epik_Ionization_Penalty_Charging>  (1224) 
0.0066

>  <r_epik_Ionization_Penalty_Neutral>  (1224) 
0.0112

>  <r_epik_State_Penalty>  (1224) 
0.036799999999999999

>  <r_i_docking_score>  (1224) 
-5.12059473422699

>  <r_i_glide_ecoul>  (1224) 
-8.9133768081665004

>  <r_i_glide_eff_state_penalty>  (1224) 
0.036799999999999999

>  <r_i_glide_einternal>  (1224) 
3.1003375053405802

>  <r_i_glide_emodel>  (1224) 
-55.740961658492999

>  <r_i_glide_energy>  (1224) 
-38.786391258239703

>  <r_i_glide_erotb>  (1224) 
0.47512833641565499

>  <r_i_glide_esite>  (1224) 
-0.10000000000000001

>  <r_i_glide_evdw>  (1224) 
-29.8730144500732

>  <r_i_glide_gscore>  (1224) 
-5.1573947342269904

>  <r_i_glide_hbond>  (1224) 
-0.20146596104728601

>  <r_i_glide_ligand_efficiency>  (1224) 
-0.17657223221472401

>  <r_i_glide_ligand_efficiency_ln>  (1224) 
-1.1724863470590301

>  <r_i_glide_ligand_efficiency_sa>  (1224) 
-0.54248583937330197

>  <r_i_glide_lipo>  (1224) 
-1.4555381608481801

>  <r_i_glide_metal>  (1224) 
-0

>  <r_i_glide_rewards>  (1224) 
-1.04486170501855

>  <r_lp_Energy>  (1224) 
26.553326999999999

>  <r_qp_ACxDN^.5/SA>  (1224) 
0.0089726000000000007

>  <r_qp_CIQPlogS>  (1224) 
-5.04

>  <r_qp_EA(eV)>  (1224) 
1.052

>  <r_qp_FISA>  (1224) 
68.698999999999998

>  <r_qp_FOSA>  (1224) 
73.786000000000001

>  <r_qp_IP(eV)>  (1224) 
8.923

>  <r_qp_Jm>  (1224) 
0.0036755572875673799

>  <r_qp_PISA>  (1224) 
484.79599999999999

>  <r_qp_PSA>  (1224) 
49.006999999999998

>  <r_qp_PercentHumanOralAbsorption>  (1224) 
90.628

>  <r_qp_QPPCaco>  (1224) 
137.47499999999999

>  <r_qp_QPPMDCK>  (1224) 
130.46899999999999

>  <r_qp_QPlogBB>  (1224) 
0.379

>  <r_qp_QPlogHERG>  (1224) 
-8.1769999999999996

>  <r_qp_QPlogKhsa>  (1224) 
0.79200000000000004

>  <r_qp_QPlogKp>  (1224) 
-4.5309999999999997

>  <r_qp_QPlogPC16>  (1224) 
14.252000000000001

>  <r_qp_QPlogPo/w>  (1224) 
4.3399999999999999

>  <r_qp_QPlogPoct>  (1224) 
20.864000000000001

>  <r_qp_QPlogPw>  (1224) 
11.423999999999999

>  <r_qp_QPlogS>  (1224) 
-3.512

>  <r_qp_QPpolrz>  (1224) 
43.229999999999997

>  <r_qp_SASA>  (1224) 
675.63400000000001

>  <r_qp_SAamideO>  (1224) 
0

>  <r_qp_SAfluorine>  (1224) 
23.974

>  <r_qp_WPSA>  (1224) 
48.351999999999997

>  <r_qp_accptHB>  (1224) 
3.5

>  <r_qp_dip^2/V>  (1224) 
0.0040109000000000004

>  <r_qp_dipole>  (1224) 
2.222

>  <r_qp_donorHB>  (1224) 
3

>  <r_qp_glob>  (1224) 
0.82198769999999999

>  <r_qp_mol_MW>  (1224) 
405.90100000000001

>  <r_qp_volume>  (1224) 
1230.6020000000001

>  <r_sd_BIOSOLVEIT.INFINISEE\_FTREES\_SIMILARITY>  (1224) 
0.91300000000000003

>  <r_sd_BIOSOLVEIT.LOGP>  (1224) 
3.7408999999999999

>  <r_sd_BIOSOLVEIT.MOLECULAR\_WEIGHT>  (1224) 
407.91800000000001

>  <r_sd_BIOSOLVEIT.TPSA>  (1224) 
57.140000000000001

>  <i_epik_Tot_Q>  (1224) 
1

>  <i_epik_Tot_abs_Q>  (1224) 
1

>  <i_f3d_flags>  (1224) 
0

>  <i_i_glide_confnum>  (1224) 
4

>  <i_i_glide_lignum>  (1224) 
415

>  <i_i_glide_posenum>  (1224) 
5

>  <i_i_glide_rotatable_bonds>  (1224) 
6

>  <i_lp_mmshare_version>  (1224) 
65135

>  <i_m_ct_format>  (1224) 
2

>  <i_m_source_file_index>  (1224) 
1102

>  <i_qp_#NandO>  (1224) 
3

>  <i_qp_#acid>  (1224) 
0

>  <i_qp_#amide>  (1224) 
0

>  <i_qp_#amidine>  (1224) 
0

>  <i_qp_#amine>  (1224) 
2

>  <i_qp_#in34>  (1224) 
0

>  <i_qp_#in56>  (1224) 
22

>  <i_qp_#metab>  (1224) 
6

>  <i_qp_#nonHatm>  (1224) 
29

>  <i_qp_#noncon>  (1224) 
0

>  <i_qp_#ringatoms>  (1224) 
22

>  <i_qp_#rotor>  (1224) 
7

>  <i_qp_#rtvFG>  (1224) 
0

>  <i_qp_#stars>  (1224) 
1

>  <i_qp_CNS>  (1224) 
1

>  <i_qp_HumanOralAbsorption>  (1224) 
3

>  <i_qp_RuleOfFive>  (1224) 
0

>  <i_qp_RuleOfThree>  (1224) 
0

>  <i_sd_BIOSOLVEIT.INFINISEE\_REAGENT1\_NAME>  (1224) 
22505392

>  <i_sd_BIOSOLVEIT.INFINISEE\_REAGENT2\_NAME>  (1224) 
7398250

>  <i_sd_BIOSOLVEIT.INFINISEE\_RESULT\_RANK>  (1224) 
33418

>  <i_sd_version>  (1224) 
0

>  <b_lp_Chiralities_Consistent>  (1224) 
1

>  <b_sd_chiral_flag>  (1224) 
0

>  <canonical_id>  (1224) 
ATP-HTVS-C12B4C379970

>  <compound_code>  (1224) 
35235

>  <title>  (1224) 
m_269982bbb____22505392____7398250

>  <variant>  (1224) 
35235-2

>  <source_file>  (1224) 
运行/运行/ATP-VSW/ATP-VSW-DOCK_HTVS_1-003_lib/ATP-VSW-DOCK_HTVS_1-003_lib.mae

>  <canonical_smiles>  (1224) 
[NH3+]C[C@@H](NCc1nc2ccccc2c(-c2ccccc2)c1Cl)c1ccccc1F

>  <scaffold>  (1224) 
c1ccc(CNCc2cc(-c3ccccc3)c3ccccc3n2)cc1

>  <molecular_formula>  (1224) 
C24H22ClFN3+

$$$$
ATP-HTVS-C13B253881A4
     RDKit          3D

 50 53  0  0  0  0  0  0  0  0999 V2000
  200.3177  177.6371  153.4372 Cl  0  0  0  0  0  0  0  0  0  0  0  0
  201.2361  176.5522  154.4103 C   0  0  0  0  0  0  0  0  0  0  0  0
  200.9479  176.3555  155.7876 C   0  0  0  0  0  0  0  0  0  0  0  0
  201.7252  175.4370  156.5237 C   0  0  0  0  0  0  0  0  0  0  0  0
  202.7545  174.6974  155.8994 C   0  0  0  0  0  0  0  0  0  0  0  0
  203.0472  174.9117  154.5422 C   0  0  0  0  0  0  0  0  0  0  0  0
  204.0388  174.2089  153.9428 F   0  0  0  0  0  0  0  0  0  0  0  0
  202.2982  175.8475  153.8056 C   0  0  0  0  0  0  0  0  0  0  0  0
  199.8340  177.1056  156.5174 C   0  0  1  0  0  0  0  0  0  0  0  0
  200.3645  178.0424  157.6292 C   0  0  1  0  0  0  0  0  0  0  0  0
  201.3107  179.0259  157.1147 N   0  0  0  0  0  0  0  0  0  0  0  0
  200.7937  179.8435  156.0298 C   0  0  1  0  0  0  0  0  0  0  0  0
  199.7247  180.7954  156.4585 C   0  0  0  0  0  0  0  0  0  0  0  0
  198.3851  180.5392  156.4680 N   0  0  0  0  0  0  0  0  0  0  0  0
  197.6983  181.6463  156.9524 C   0  0  0  0  0  0  0  0  0  0  0  0
  198.6634  182.6250  157.2603 C   0  0  0  0  0  0  0  0  0  0  0  0
  199.9007  182.0591  156.9250 N   0  0  0  0  0  0  0  0  0  0  0  0
  201.1360  182.8242  157.1186 C   0  0  1  0  0  0  0  0  0  0  0  0
  201.6983  182.6557  158.5210 C   0  0  0  0  0  0  0  0  0  0  0  0
  201.4274  183.6220  159.5113 C   0  0  0  0  0  0  0  0  0  0  0  0
  201.9477  183.4713  160.8097 C   0  0  0  0  0  0  0  0  0  0  0  0
  202.7332  182.3489  161.1328 C   0  0  0  0  0  0  0  0  0  0  0  0
  203.0097  181.3805  160.1497 C   0  0  0  0  0  0  0  0  0  0  0  0
  202.5071  181.5438  158.8449 C   0  0  0  0  0  0  0  0  0  0  0  0
  198.3020  183.8571  157.7975 C   0  0  0  0  0  0  0  0  0  0  0  0
  196.9261  184.0664  158.0426 C   0  0  0  0  0  0  0  0  0  0  0  0
  195.9654  183.0815  157.7308 C   0  0  0  0  0  0  0  0  0  0  0  0
  196.3364  181.8386  157.1667 C   0  0  0  0  0  0  0  0  0  0  0  0
  202.1973  178.5874  156.8962 H   0  0  0  0  0  0  0  0  0  0  0  0
  201.5205  175.2724  157.5680 H   0  0  0  0  0  0  0  0  0  0  0  0
  203.3128  173.9700  156.4688 H   0  0  0  0  0  0  0  0  0  0  0  0
  202.5311  176.0154  152.7610 H   0  0  0  0  0  0  0  0  0  0  0  0
  199.2062  177.6614  155.8124 H   0  0  0  0  0  0  0  0  0  0  0  0
  199.1755  176.3590  156.9783 H   0  0  0  0  0  0  0  0  0  0  0  0
  199.5392  178.5537  158.1272 H   0  0  0  0  0  0  0  0  0  0  0  0
  200.8568  177.4747  158.4146 H   0  0  0  0  0  0  0  0  0  0  0  0
  201.6236  180.4287  155.6148 H   0  0  0  0  0  0  0  0  0  0  0  0
  200.3932  179.2078  155.2140 H   0  0  0  0  0  0  0  0  0  0  0  0
  201.8695  182.4717  156.3931 H   0  0  0  0  0  0  0  0  0  0  0  0
  200.9559  183.8750  156.8812 H   0  0  0  0  0  0  0  0  0  0  0  0
  200.8402  184.4964  159.2744 H   0  0  0  0  0  0  0  0  0  0  0  0
  201.7429  184.2214  161.5565 H   0  0  0  0  0  0  0  0  0  0  0  0
  203.1247  182.2369  162.1320 H   0  0  0  0  0  0  0  0  0  0  0  0
  203.6122  180.5162  160.3901 H   0  0  0  0  0  0  0  0  0  0  0  0
  202.7628  180.8114  158.0951 H   0  0  0  0  0  0  0  0  0  0  0  0
  199.0352  184.6132  158.0347 H   0  0  0  0  0  0  0  0  0  0  0  0
  196.6092  185.0132  158.4711 H   0  0  0  0  0  0  0  0  0  0  0  0
  194.9171  183.2786  157.9096 H   0  0  0  0  0  0  0  0  0  0  0  0
  195.5955  181.0882  156.9323 H   0  0  0  0  0  0  0  0  0  0  0  0
  197.9696  179.6532  156.2210 H   0  0  0  0  0  0  0  0  0  0  0  0
  1  2  1  0
  2  3  2  0
  2  8  1  0
  3  4  1  0
  3  9  1  0
  4  5  2  0
  4 30  1  0
  5  6  1  0
  5 31  1  0
  6  7  1  0
  6  8  2  0
  8 32  1  0
  9 10  1  0
  9 33  1  6
  9 34  1  0
 10 11  1  0
 10 35  1  1
 10 36  1  0
 11 12  1  0
 11 29  1  0
 12 13  1  0
 12 37  1  6
 12 38  1  0
 13 14  2  0
 13 17  1  0
 14 15  1  0
 14 50  1  0
 15 16  1  0
 15 28  2  0
 16 17  1  0
 16 25  2  0
 17 18  1  0
 18 19  1  0
 18 39  1  6
 18 40  1  0
 19 20  2  0
 19 24  1  0
 20 21  1  0
 20 41  1  0
 21 22  2  0
 21 42  1  0
 22 23  1  0
 22 43  1  0
 23 24  2  0
 23 44  1  0
 24 45  1  0
 25 26  1  0
 25 46  1  0
 26 27  2  0
 26 47  1  0
 27 28  1  0
 27 48  1  0
 28 49  1  0
M  CHG  1  14   1
M  END
>  <s_epik_cmdline>  (1225) 
J2VwaWtfcHl0aG9uJywgJy1waCcsICc3LjAwMDAwMCcsICctcGh0JywgJzIuMDAwMDAwJywgJy1tcycsICcxNicsICctdG4nLCAnOCcsICctbWEnLCAnMjAwJywgJy1pbWFlJywgJzxpbmZpbGUubWFlPicsICctb21hZScsICc8b3V0ZmlsZS5tYWU+Jw==

>  <s_epik_input>  (1225) 
RmMoW2NIXTEpW2NIXVtjSF1jKGMxQ2wpW0NIMl1bQ0gyXVtOSF1bQ0gyXWMobjIpbihjKGMyMylbY0hdW2NIXVtjSF1bY0hdMylbQ0gyXWM0W2NIXVtjSF1bY0hdW2NIXVtjSF00

>  <s_i_glide_gridfile>  (1225) 
ATP-Grid

>  <s_lp_Force_Field>  (1225) 
OPLS_2005

>  <s_lp_Variant>  (1225) 
m_270004bbb____23822498____24720860-3

>  <s_lp_label>  (1225) 
1151_sdstereoexpander_1_neutralizer_1_epik_3_stereoizer_1

>  <s_m_source_file>  (1225) 
ATP-VSW-LIGPREP-001-in.maegz

>  <s_sd_BIOSOLVEIT.INFINISEE\_QUERY\_NAME>  (1225) 
Ref-Lig

>  <s_sd_BIOSOLVEIT.INFINISEE\_QUERY\_SMILES>  (1225) 
S(c1nc2c(cc1C[NH2+]Cc3ccc(cc3)C[NH+](C)C)cccc2)Cc4ccccc4

>  <s_sd_BIOSOLVEIT.INFINISEE\_REACTION\_NAME>  (1225) 
m_270004bbb

>  <s_sd_BIOSOLVEIT.INFINISEE\_REAGENT1\_SMILES>  (1225) 
[R1*]NCCc1c(Cl)cc(F)cc1

>  <s_sd_BIOSOLVEIT.INFINISEE\_REAGENT2\_SMILES>  (1225) 
[R1*]CC1=Nc2c(N1Cc3ccccc3)cccc2

>  <s_sd_BIOSOLVEIT.INFINISEE\_SPACE>  (1225) 
REALSpace_44bn_2023-08

>  <s_vsw_compound_code>  (1225) 
36801

>  <s_vsw_variant>  (1225) 
36801-3

>  <r_epik_Charging_Adjusted_Penalty>  (1225) 
3.4167505481050999

>  <r_epik_Ionization_Penalty>  (1225) 
1.466

>  <r_epik_Ionization_Penalty_Charging>  (1225) 
1.0359

>  <r_epik_Ionization_Penalty_Neutral>  (1225) 
0.43009999999999998

>  <r_epik_State_Penalty>  (1225) 
2.3809

>  <r_i_docking_score>  (1225) 
-2.3401642600299701

>  <r_i_glide_ecoul>  (1225) 
-8.5016613006591797

>  <r_i_glide_eff_state_penalty>  (1225) 
2.3809

>  <r_i_glide_einternal>  (1225) 
4.4683771133422896

>  <r_i_glide_emodel>  (1225) 
-51.8359681314992

>  <r_i_glide_energy>  (1225) 
-38.197671890258803

>  <r_i_glide_erotb>  (1225) 
0.75219180811113695

>  <r_i_glide_esite>  (1225) 
-0.11308740080182

>  <r_i_glide_evdw>  (1225) 
-29.696010589599599

>  <r_i_glide_gscore>  (1225) 
-4.7210642600299701

>  <r_i_glide_hbond>  (1225) 
-0.141036049744308

>  <r_i_glide_ligand_efficiency>  (1225) 
-0.083577295001070404

>  <r_i_glide_ligand_efficiency_ln>  (1225) 
-0.54017862142323703

>  <r_i_glide_ligand_efficiency_sa>  (1225) 
-0.25378989201755597

>  <r_i_glide_lipo>  (1225) 
-1.51743732256158

>  <r_i_glide_metal>  (1225) 
-0

>  <r_i_glide_rewards>  (1225) 
-0.941645570454544

>  <r_lp_Energy>  (1225) 
18.385354

>  <r_qp_ACxDN^.5/SA>  (1225) 
0.0056176999999999998

>  <r_qp_CIQPlogS>  (1225) 
-6.2380000000000004

>  <r_qp_EA(eV)>  (1225) 
0.17599999999999999

>  <r_qp_FISA>  (1225) 
18.501999999999999

>  <r_qp_FOSA>  (1225) 
135.779

>  <r_qp_IP(eV)>  (1225) 
8.5139999999999993

>  <r_qp_Jm>  (1225) 
3.0771106230347902

>  <r_qp_PISA>  (1225) 
300.21800000000002

>  <r_qp_PSA>  (1225) 
22.443999999999999

>  <r_qp_PercentHumanOralAbsorption>  (1225) 
100

>  <r_qp_QPPCaco>  (1225) 
1649.4739999999999

>  <r_qp_QPPMDCK>  (1225) 
2563.4470000000001

>  <r_qp_QPlogBB>  (1225) 
0.59999999999999998

>  <r_qp_QPlogHERG>  (1225) 
-4.4370000000000003

>  <r_qp_QPlogKhsa>  (1225) 
0.71499999999999997

>  <r_qp_QPlogKp>  (1225) 
-2.1930000000000001

>  <r_qp_QPlogPC16>  (1225) 
11.285

>  <r_qp_QPlogPo/w>  (1225) 
4.835

>  <r_qp_QPlogPoct>  (1225) 
15.455

>  <r_qp_QPlogPw>  (1225) 
6.0759999999999996

>  <r_qp_QPlogS>  (1225) 
-2.9140000000000001

>  <r_qp_QPpolrz>  (1225) 
35.476999999999997

>  <r_qp_SASA>  (1225) 
534.02999999999997

>  <r_qp_SAamideO>  (1225) 
0

>  <r_qp_SAfluorine>  (1225) 
33.286000000000001

>  <r_qp_WPSA>  (1225) 
79.531000000000006

>  <r_qp_accptHB>  (1225) 
3

>  <r_qp_dip^2/V>  (1225) 
0.040250000000000001

>  <r_qp_dipole>  (1225) 
6.5960000000000001

>  <r_qp_donorHB>  (1225) 
1

>  <r_qp_glob>  (1225) 
0.95381590000000005

>  <r_qp_mol_MW>  (1225) 
393.88999999999999

>  <r_qp_volume>  (1225) 
1080.931

>  <r_sd_BIOSOLVEIT.INFINISEE\_FTREES\_SIMILARITY>  (1225) 
0.91200000000000003

>  <r_sd_BIOSOLVEIT.LOGP>  (1225) 
4.1832000000000003

>  <r_sd_BIOSOLVEIT.MOLECULAR\_WEIGHT>  (1225) 
394.899

>  <r_sd_BIOSOLVEIT.TPSA>  (1225) 
34.43

>  <i_epik_Tot_Q>  (1225) 
1

>  <i_epik_Tot_abs_Q>  (1225) 
1

>  <i_f3d_flags>  (1225) 
0

>  <i_i_glide_confnum>  (1225) 
7

>  <i_i_glide_lignum>  (1225) 
283

>  <i_i_glide_posenum>  (1225) 
5

>  <i_i_glide_rotatable_bonds>  (1225) 
7

>  <i_lp_mmshare_version>  (1225) 
65135

>  <i_m_ct_format>  (1225) 
2

>  <i_m_source_file_index>  (1225) 
1151

>  <i_qp_#NandO>  (1225) 
3

>  <i_qp_#acid>  (1225) 
0

>  <i_qp_#amide>  (1225) 
0

>  <i_qp_#amidine>  (1225) 
0

>  <i_qp_#amine>  (1225) 
1

>  <i_qp_#in34>  (1225) 
0

>  <i_qp_#in56>  (1225) 
21

>  <i_qp_#metab>  (1225) 
4

>  <i_qp_#nonHatm>  (1225) 
28

>  <i_qp_#noncon>  (1225) 
0

>  <i_qp_#ringatoms>  (1225) 
21

>  <i_qp_#rotor>  (1225) 
7

>  <i_qp_#rtvFG>  (1225) 
0

>  <i_qp_#stars>  (1225) 
1

>  <i_qp_CNS>  (1225) 
2

>  <i_qp_HumanOralAbsorption>  (1225) 
3

>  <i_qp_RuleOfFive>  (1225) 
0

>  <i_qp_RuleOfThree>  (1225) 
0

>  <i_sd_BIOSOLVEIT.INFINISEE\_REAGENT1\_NAME>  (1225) 
23822498

>  <i_sd_BIOSOLVEIT.INFINISEE\_REAGENT2\_NAME>  (1225) 
24720860

>  <i_sd_BIOSOLVEIT.INFINISEE\_RESULT\_RANK>  (1225) 
36909

>  <i_sd_version>  (1225) 
0

>  <b_lp_Chiralities_Consistent>  (1225) 
1

>  <b_sd_chiral_flag>  (1225) 
0

>  <canonical_id>  (1225) 
ATP-HTVS-C13B253881A4

>  <compound_code>  (1225) 
36801

>  <title>  (1225) 
m_270004bbb____23822498____24720860

>  <variant>  (1225) 
36801-3

>  <source_file>  (1225) 
运行/运行/ATP-VSW/ATP-VSW-DOCK_HTVS_1-001_lib/ATP-VSW-DOCK_HTVS_1-001_lib

>  <canonical_smiles>  (1225) 
Fc1ccc(CCNCc2[nH+]c3ccccc3n2Cc2ccccc2)c(Cl)c1

>  <scaffold>  (1225) 
c1ccc(CCNCc2[nH+]c3ccccc3n2Cc2ccccc2)cc1

>  <molecular_formula>  (1225) 
C23H22ClFN3+

$$$$
ATP-HTVS-C1848F46B113
     RDKit          3D

 59 62  0  0  0  0  0  0  0  0999 V2000
  198.7291  179.1953  153.3075 S   0  0  0  0  0  0  0  0  0  0  0  0
  197.8990  180.3680  152.3003 C   0  0  0  0  0  0  0  0  0  0  0  0
  197.2406  181.3375  153.1183 C   0  0  0  0  0  0  0  0  0  0  0  0
  196.5565  182.3717  152.4326 C   0  0  0  0  0  0  0  0  0  0  0  0
  196.5188  182.4547  151.0292 C   0  0  0  0  0  0  0  0  0  0  0  0
  197.1672  181.4798  150.2529 C   0  0  0  0  0  0  0  0  0  0  0  0
  197.8546  180.4285  150.8909 C   0  0  0  0  0  0  0  0  0  0  0  0
  197.3959  181.0736  154.5372 C   0  0  0  0  0  0  0  0  0  0  0  0
  196.7718  181.9476  155.4455 N   0  0  0  0  0  0  0  0  0  0  0  0
  196.8131  181.8124  156.8946 C   0  0  1  0  0  0  0  0  0  0  0  0
  196.5859  183.1109  157.6309 C   0  0  0  0  0  0  0  0  0  0  0  0
  197.1022  184.3302  157.1382 C   0  0  0  0  0  0  0  0  0  0  0  0
  196.8943  185.5243  157.8530 C   0  0  0  0  0  0  0  0  0  0  0  0
  196.1948  185.5042  159.0823 C   0  0  0  0  0  0  0  0  0  0  0  0
  195.9404  186.7335  159.7092 N   0  0  0  0  0  0  0  0  0  0  0  0
  195.4431  186.8262  161.0746 C   0  0  1  0  0  0  0  0  0  0  0  0
  193.9472  186.4783  161.2065 C   0  0  1  0  0  0  0  0  0  0  0  0
  193.5381  186.7360  162.5387 O   0  0  0  0  0  0  0  0  0  0  0  0
  195.7404  184.2687  159.6113 C   0  0  0  0  0  0  0  0  0  0  0  0
  195.9149  183.0858  158.8683 C   0  0  0  0  0  0  0  0  0  0  0  0
  198.1790  179.9624  154.7740 C   0  0  0  0  0  0  0  0  0  0  0  0
  198.6139  179.3605  156.0819 C   0  0  1  0  0  0  0  0  0  0  0  0
  200.0508  179.5435  156.3787 N   0  0  0  0  0  0  0  0  0  0  0  0
  200.5419  180.7365  156.8020 C   0  0  0  0  0  0  0  0  0  0  0  0
  199.8639  181.7544  156.9274 O   0  0  0  0  0  0  0  0  0  0  0  0
  201.9985  180.8286  157.1739 C   0  0  0  0  0  0  0  0  0  0  0  0
  202.3781  181.2239  158.4794 C   0  0  0  0  0  0  0  0  0  0  0  0
  203.7421  181.3558  158.8141 C   0  0  0  0  0  0  0  0  0  0  0  0
  204.1034  181.7416  160.0641 F   0  0  0  0  0  0  0  0  0  0  0  0
  204.7287  181.1004  157.8423 C   0  0  0  0  0  0  0  0  0  0  0  0
  204.3524  180.7296  156.5301 C   0  0  0  0  0  0  0  0  0  0  0  0
  205.2999  180.4880  155.5919 F   0  0  0  0  0  0  0  0  0  0  0  0
  202.9929  180.6182  156.1981 C   0  0  0  0  0  0  0  0  0  0  0  0
  200.8446  178.3052  156.2404 C   0  0  2  0  0  0  0  0  0  0  0  0
  196.0493  183.1319  153.0090 H   0  0  0  0  0  0  0  0  0  0  0  0
  195.9932  183.2704  150.5536 H   0  0  0  0  0  0  0  0  0  0  0  0
  197.1481  181.5460  149.1758 H   0  0  0  0  0  0  0  0  0  0  0  0
  198.3629  179.6819  150.2961 H   0  0  0  0  0  0  0  0  0  0  0  0
  196.0302  182.5382  155.0841 H   0  0  0  0  0  0  0  0  0  0  0  0
  196.0694  181.0683  157.1980 H   0  0  0  0  0  0  0  0  0  0  0  0
  197.7731  181.4708  157.2518 H   0  0  0  0  0  0  0  0  0  0  0  0
  197.6814  184.3518  156.2251 H   0  0  0  0  0  0  0  0  0  0  0  0
  197.2732  186.4544  157.4526 H   0  0  0  0  0  0  0  0  0  0  0  0
  196.2668  187.5828  159.2695 H   0  0  0  0  0  0  0  0  0  0  0  0
  196.0564  186.2081  161.7199 H   0  0  0  0  0  0  0  0  0  0  0  0
  195.6125  187.8485  161.3993 H   0  0  0  0  0  0  0  0  0  0  0  0
  193.3472  187.1044  160.5441 H   0  0  0  0  0  0  0  0  0  0  0  0
  193.7476  185.4353  160.9357 H   0  0  0  0  0  0  0  0  0  0  0  0
  193.4423  187.6693  162.6524 H   0  0  0  0  0  0  0  0  0  0  0  0
  195.2361  184.2023  160.5672 H   0  0  0  0  0  0  0  0  0  0  0  0
  195.5675  182.1427  159.2563 H   0  0  0  0  0  0  0  0  0  0  0  0
  198.0266  179.7159  156.9229 H   0  0  0  0  0  0  0  0  0  0  0  0
  198.3917  178.2938  156.0308 H   0  0  0  0  0  0  0  0  0  0  0  0
  201.6256  181.4483  159.2236 H   0  0  0  0  0  0  0  0  0  0  0  0
  205.7789  181.1812  158.0945 H   0  0  0  0  0  0  0  0  0  0  0  0
  202.7092  180.3855  155.1835 H   0  0  0  0  0  0  0  0  0  0  0  0
  200.9845  177.8513  157.2195 H   0  0  0  0  0  0  0  0  0  0  0  0
  201.8156  178.4585  155.7747 H   0  0  0  0  0  0  0  0  0  0  0  0
  200.3345  177.5840  155.6051 H   0  0  0  0  0  0  0  0  0  0  0  0
  1  2  1  0
  1 21  1  0
  2  3  1  0
  2  7  2  0
  3  4  2  0
  3  8  1  0
  4  5  1  0
  4 35  1  0
  5  6  2  0
  5 36  1  0
  6  7  1  0
  6 37  1  0
  7 38  1  0
  8  9  1  0
  8 21  2  0
  9 10  1  0
  9 39  1  0
 10 11  1  0
 10 40  1  1
 10 41  1  0
 11 12  1  0
 11 20  2  0
 12 13  2  0
 12 42  1  0
 13 14  1  0
 13 43  1  0
 14 15  1  0
 14 19  2  0
 15 16  1  0
 15 44  1  0
 16 17  1  0
 16 45  1  1
 16 46  1  0
 17 18  1  0
 17 47  1  6
 17 48  1  0
 18 49  1  0
 19 20  1  0
 19 50  1  0
 20 51  1  0
 21 22  1  0
 22 23  1  0
 22 52  1  1
 22 53  1  0
 23 24  1  0
 23 34  1  0
 24 25  2  0
 24 26  1  0
 26 27  2  0
 26 33  1  0
 27 28  1  0
 27 54  1  0
 28 29  1  0
 28 30  2  0
 30 31  1  0
 30 55  1  0
 31 32  1  0
 31 33  2  0
 33 56  1  0
 34 57  1  1
 34 58  1  0
 34 59  1  0
M  END
>  <s_epik_cmdline>  (1226) 
J2VwaWtfcHl0aG9uJywgJy1waCcsICc3LjAwMDAwMCcsICctcGh0JywgJzIuMDAwMDAwJywgJy1tcycsICcxNicsICctdG4nLCAnOCcsICctbWEnLCAnMjAwJywgJy1pbWFlJywgJzxpbmZpbGUubWFlPicsICctb21hZScsICc8b3V0ZmlsZS5tYWU+Jw==

>  <s_epik_input>  (1226) 
RmMoW2NIXTEpW2NIXWMoRilbY0hdYzFDKD1PKU4oW0NIM10pW0NIMl1jKHMyKWMoYyhjMjMpW2NIXVtjSF1bY0hdW2NIXTMpW05IXVtDSDJdYzRbY0hdW2NIXWMoW2NIXVtjSF00KVtOSF1bQ0gyXVtDSDJdW09IXQ==

>  <s_i_glide_gridfile>  (1226) 
ATP-Grid

>  <s_lp_Force_Field>  (1226) 
OPLS_2005

>  <s_lp_Variant>  (1226) 
rxn502c____EMOL495084____EMOL49259969____EMOL324170366-1

>  <s_lp_label>  (1226) 
2513_sdstereoexpander_1_neutralizer_1_epik_1_stereoizer_1

>  <s_m_source_file>  (1226) 
ATP-VSW-LIGPREP-002-in.maegz

>  <s_sd_BIOSOLVEIT.INFINISEE\_QUERY\_NAME>  (1226) 
Ref-Lig

>  <s_sd_BIOSOLVEIT.INFINISEE\_QUERY\_SMILES>  (1226) 
S(c1nc2c(cc1C[NH2+]Cc3ccc(cc3)C[NH+](C)C)cccc2)Cc4ccccc4

>  <s_sd_BIOSOLVEIT.INFINISEE\_REACTION\_NAME>  (1226) 
rxn502c

>  <s_sd_BIOSOLVEIT.INFINISEE\_REAGENT1\_NAME>  (1226) 
EMOL495084

>  <s_sd_BIOSOLVEIT.INFINISEE\_REAGENT1\_SMILES>  (1226) 
Fc1cc(F)cc(c1)C(=O)O

>  <s_sd_BIOSOLVEIT.INFINISEE\_REAGENT2\_NAME>  (1226) 
EMOL49259969

>  <s_sd_BIOSOLVEIT.INFINISEE\_REAGENT2\_SMILES>  (1226) 
ClC=1c2c(SC1CNC)cccc2

>  <s_sd_BIOSOLVEIT.INFINISEE\_REAGENT3\_NAME>  (1226) 
EMOL324170366

>  <s_sd_BIOSOLVEIT.INFINISEE\_REAGENT3\_SMILES>  (1226) 
OCCNc1ccc(cc1)CN

>  <s_sd_BIOSOLVEIT.INFINISEE\_SPACE>  (1226) 
eXplore_7tr_2022-12

>  <s_vsw_compound_code>  (1226) 
80386

>  <s_vsw_variant>  (1226) 
80386-1

>  <r_epik_Charging_Adjusted_Penalty>  (1226) 
0.0083718636805958195

>  <r_epik_Ionization_Penalty>  (1226) 
0.0083999999999999995

>  <r_epik_Ionization_Penalty_Charging>  (1226) 
0

>  <r_epik_Ionization_Penalty_Neutral>  (1226) 
0.0083999999999999995

>  <r_epik_State_Penalty>  (1226) 
0.0083999999999999995

>  <r_i_docking_score>  (1226) 
-3.54019421024101

>  <r_i_glide_ecoul>  (1226) 
-4.7154726982116699

>  <r_i_glide_eff_state_penalty>  (1226) 
0.0083999999999999995

>  <r_i_glide_einternal>  (1226) 
2.8332700729370099

>  <r_i_glide_emodel>  (1226) 
-51.682388528085703

>  <r_i_glide_energy>  (1226) 
-42.688941478729198

>  <r_i_glide_erotb>  (1226) 
0.78734720124602398

>  <r_i_glide_esite>  (1226) 
-0.107956270068215

>  <r_i_glide_evdw>  (1226) 
-37.973468780517599

>  <r_i_glide_gscore>  (1226) 
-3.54859421024101

>  <r_i_glide_hbond>  (1226) 
-0.20421847578309199

>  <r_i_glide_ligand_efficiency>  (1226) 
-0.104123359124735

>  <r_i_glide_ligand_efficiency_ln>  (1226) 
-0.78212820012635198

>  <r_i_glide_ligand_efficiency_sa>  (1226) 
-0.337319262612644

>  <r_i_glide_lipo>  (1226) 
-1.19877684090186

>  <r_i_glide_metal>  (1226) 
-0

>  <r_i_glide_rewards>  (1226) 
-0.218995480976239

>  <r_lp_Energy>  (1226) 
36.094447000000002

>  <r_qp_ACxDN^.5/SA>  (1226) 
0.014165799999999999

>  <r_qp_CIQPlogS>  (1226) 
-6.3760000000000003

>  <r_qp_EA(eV)>  (1226) 
0.58999999999999997

>  <r_qp_FISA>  (1226) 
111.642

>  <r_qp_FOSA>  (1226) 
183.61099999999999

>  <r_qp_IP(eV)>  (1226) 
7.9340000000000002

>  <r_qp_Jm>  (1226) 
0.00023186871955724201

>  <r_qp_PISA>  (1226) 
411.44400000000002

>  <r_qp_PSA>  (1226) 
73.272000000000006

>  <r_qp_PercentHumanOralAbsorption>  (1226) 
100

>  <r_qp_QPPCaco>  (1226) 
215.82599999999999

>  <r_qp_QPPMDCK>  (1226) 
431.33999999999997

>  <r_qp_QPlogBB>  (1226) 
-0.64900000000000002

>  <r_qp_QPlogHERG>  (1226) 
-8.0860000000000003

>  <r_qp_QPlogKhsa>  (1226) 
0.71099999999999997

>  <r_qp_QPlogKp>  (1226) 
-3.23

>  <r_qp_QPlogPC16>  (1226) 
15.968

>  <r_qp_QPlogPo/w>  (1226) 
4.9219999999999997

>  <r_qp_QPlogPoct>  (1226) 
25.315000000000001

>  <r_qp_QPlogPw>  (1226) 
14.076000000000001

>  <r_qp_QPlogS>  (1226) 
-6.0869999999999997

>  <r_qp_QPpolrz>  (1226) 
49.938000000000002

>  <r_qp_SASA>  (1226) 
819.20899999999995

>  <r_qp_SAamideO>  (1226) 
0

>  <r_qp_SAfluorine>  (1226) 
93.923000000000002

>  <r_qp_WPSA>  (1226) 
112.51300000000001

>  <r_qp_accptHB>  (1226) 
6.7000000000000002

>  <r_qp_dip^2/V>  (1226) 
0.023867200000000002

>  <r_qp_dipole>  (1226) 
5.9109999999999996

>  <r_qp_donorHB>  (1226) 
3

>  <r_qp_glob>  (1226) 
0.76108969999999998

>  <r_qp_mol_MW>  (1226) 
481.55900000000003

>  <r_qp_volume>  (1226) 
1463.855

>  <r_sd_BIOSOLVEIT.INFINISEE\_FTREES\_SIMILARITY>  (1226) 
0.91400000000000003

>  <r_sd_BIOSOLVEIT.LOGP>  (1226) 
5.468

>  <r_sd_BIOSOLVEIT.MOLECULAR\_WEIGHT>  (1226) 
481.56400000000002

>  <r_sd_BIOSOLVEIT.TPSA>  (1226) 
64.599999999999994

>  <i_epik_Tot_Q>  (1226) 
0

>  <i_epik_Tot_abs_Q>  (1226) 
0

>  <i_f3d_flags>  (1226) 
0

>  <i_i_glide_confnum>  (1226) 
2

>  <i_i_glide_lignum>  (1226) 
1099

>  <i_i_glide_posenum>  (1226) 
20

>  <i_i_glide_rotatable_bonds>  (1226) 
11

>  <i_lp_mmshare_version>  (1226) 
65135

>  <i_m_ct_format>  (1226) 
2

>  <i_m_source_file_index>  (1226) 
2513

>  <i_qp_#NandO>  (1226) 
5

>  <i_qp_#acid>  (1226) 
0

>  <i_qp_#amide>  (1226) 
0

>  <i_qp_#amidine>  (1226) 
0

>  <i_qp_#amine>  (1226) 
1

>  <i_qp_#in34>  (1226) 
0

>  <i_qp_#in56>  (1226) 
21

>  <i_qp_#metab>  (1226) 
8

>  <i_qp_#nonHatm>  (1226) 
34

>  <i_qp_#noncon>  (1226) 
0

>  <i_qp_#ringatoms>  (1226) 
21

>  <i_qp_#rotor>  (1226) 
10

>  <i_qp_#rtvFG>  (1226) 
0

>  <i_qp_#stars>  (1226) 
0

>  <i_qp_CNS>  (1226) 
0

>  <i_qp_HumanOralAbsorption>  (1226) 
3

>  <i_qp_RuleOfFive>  (1226) 
0

>  <i_qp_RuleOfThree>  (1226) 
2

>  <i_sd_BIOSOLVEIT.INFINISEE\_RESULT\_RANK>  (1226) 
31974

>  <i_sd_version>  (1226) 
0

>  <b_lp_Chiralities_Consistent>  (1226) 
1

>  <b_sd_chiral_flag>  (1226) 
0

>  <canonical_id>  (1226) 
ATP-HTVS-C1848F46B113

>  <compound_code>  (1226) 
80386

>  <title>  (1226) 
rxn502c____EMOL495084____EMOL49259969____EMOL324170366

>  <variant>  (1226) 
80386-1

>  <source_file>  (1226) 
运行/运行/ATP-VSW/ATP-VSW-DOCK_HTVS_1-002_lib.maegz

>  <canonical_smiles>  (1226) 
CN(Cc1sc2ccccc2c1NCc1ccc(NCCO)cc1)C(=O)c1cc(F)cc(F)c1

>  <scaffold>  (1226) 
O=C(NCc1sc2ccccc2c1NCc1ccccc1)c1ccccc1

>  <molecular_formula>  (1226) 
C26H25F2N3O2S

$$$$
ATP-HTVS-C188770C1FD9
     RDKit          3D

 60 63  0  0  0  0  0  0  0  0999 V2000
  196.5012  179.9494  152.8448 O   0  0  0  0  0  0  0  0  0  0  0  0
  197.1002  180.8137  152.2051 C   0  0  0  0  0  0  0  0  0  0  0  0
  197.5243  182.0214  152.9255 N   0  0  0  0  0  0  0  0  0  0  0  0
  198.2901  182.9743  152.3568 N   0  0  0  0  0  0  0  0  0  0  0  0
  198.2772  184.0117  153.1691 C   0  0  0  0  0  0  0  0  0  0  0  0
  198.8803  185.2959  152.7390 C   0  0  0  0  0  0  0  0  0  0  0  0
  198.7816  186.4594  153.5392 C   0  0  0  0  0  0  0  0  0  0  0  0
  199.3580  187.6383  153.2196 N   0  0  0  0  0  0  0  0  0  0  0  0
  200.0487  187.7169  152.0676 C   0  0  0  0  0  0  0  0  0  0  0  0
  200.1826  186.6365  151.1762 C   0  0  0  0  0  0  0  0  0  0  0  0
  199.5815  185.4100  151.5188 C   0  0  0  0  0  0  0  0  0  0  0  0
  197.6440  183.7001  154.4095 C   0  0  0  0  0  0  0  0  0  0  0  0
  197.1848  182.4173  154.2289 C   0  0  0  0  0  0  0  0  0  0  0  0
  196.4087  181.5601  155.1884 C   0  0  1  0  0  0  0  0  0  0  0  0
  196.4211  182.1000  156.6077 C   0  0  1  0  0  0  0  0  0  0  0  0
  195.4243  181.4406  157.4566 N   0  0  1  0  0  0  0  0  0  0  0  0
  195.5612  181.7180  158.9088 C   0  0  1  0  0  0  0  0  0  0  0  0
  195.8758  183.1781  159.2232 C   0  0  0  0  0  0  0  0  0  0  0  0
  194.8416  184.0901  159.5192 C   0  0  0  0  0  0  0  0  0  0  0  0
  195.1468  185.4433  159.7664 C   0  0  0  0  0  0  0  0  0  0  0  0
  196.4777  185.8977  159.7044 C   0  0  0  0  0  0  0  0  0  0  0  0
  197.5128  184.9898  159.4117 C   0  0  0  0  0  0  0  0  0  0  0  0
  197.2134  183.6335  159.1940 C   0  0  0  0  0  0  0  0  0  0  0  0
  197.3686  180.6025  150.6790 C   0  0  1  0  0  0  0  0  0  0  0  0
  196.2804  179.8388  150.0812 N   0  0  0  0  0  0  0  0  0  0  0  0
  197.4866  181.9323  149.9025 C   0  0  0  0  0  0  0  0  0  0  0  0
  196.5609  182.9788  150.1505 C   0  0  0  0  0  0  0  0  0  0  0  0
  196.7037  184.2322  149.5452 C   0  0  0  0  0  0  0  0  0  0  0  0
  197.7533  184.4665  148.6364 C   0  0  0  0  0  0  0  0  0  0  0  0
  198.6583  183.4339  148.3465 C   0  0  0  0  0  0  0  0  0  0  0  0
  198.5235  182.1734  148.9664 C   0  0  0  0  0  0  0  0  0  0  0  0
  198.6015  179.6758  150.5526 C   0  0  2  0  0  0  0  0  0  0  0  0
  194.5183  181.7225  157.1134 H   0  0  0  0  0  0  0  0  0  0  0  0
  195.9655  180.3520  149.2729 H   0  0  0  0  0  0  0  0  0  0  0  0
  196.6633  178.9700  149.7324 H   0  0  0  0  0  0  0  0  0  0  0  0
  198.2418  186.4398  154.4698 H   0  0  0  0  0  0  0  0  0  0  0  0
  200.5030  188.6759  151.8393 H   0  0  0  0  0  0  0  0  0  0  0  0
  200.7451  186.7447  150.2594 H   0  0  0  0  0  0  0  0  0  0  0  0
  199.6834  184.5697  150.8514 H   0  0  0  0  0  0  0  0  0  0  0  0
  197.5228  184.3407  155.2853 H   0  0  0  0  0  0  0  0  0  0  0  0
  195.3755  181.4467  154.8562 H   0  0  0  0  0  0  0  0  0  0  0  0
  196.8436  180.5604  155.2264 H   0  0  0  0  0  0  0  0  0  0  0  0
  197.4278  181.9607  157.0045 H   0  0  0  0  0  0  0  0  0  0  0  0
  196.1909  183.1694  156.6041 H   0  0  0  0  0  0  0  0  0  0  0  0
  194.6455  181.4166  159.4098 H   0  0  0  0  0  0  0  0  0  0  0  0
  196.3495  181.0910  159.3329 H   0  0  0  0  0  0  0  0  0  0  0  0
  193.8108  183.7653  159.5438 H   0  0  0  0  0  0  0  0  0  0  0  0
  194.3522  186.1402  159.9874 H   0  0  0  0  0  0  0  0  0  0  0  0
  196.7083  186.9400  159.8813 H   0  0  0  0  0  0  0  0  0  0  0  0
  198.5360  185.3344  159.3427 H   0  0  0  0  0  0  0  0  0  0  0  0
  198.0157  182.9519  158.9638 H   0  0  0  0  0  0  0  0  0  0  0  0
  195.7381  182.8294  150.8314 H   0  0  0  0  0  0  0  0  0  0  0  0
  196.0377  185.0358  149.8312 H   0  0  0  0  0  0  0  0  0  0  0  0
  197.8808  185.4527  148.2111 H   0  0  0  0  0  0  0  0  0  0  0  0
  199.4822  183.6168  147.6766 H   0  0  0  0  0  0  0  0  0  0  0  0
  199.2825  181.4280  148.7664 H   0  0  0  0  0  0  0  0  0  0  0  0
  199.4951  180.1328  150.9761 H   0  0  0  0  0  0  0  0  0  0  0  0
  198.8229  179.4004  149.5235 H   0  0  0  0  0  0  0  0  0  0  0  0
  198.4505  178.7373  151.0869 H   0  0  0  0  0  0  0  0  0  0  0  0
  195.5326  180.4135  157.3353 H   0  0  0  0  0  0  0  0  0  0  0  0
  1  2  2  0
  2  3  1  0
  2 24  1  0
  3  4  1  0
  3 13  1  0
  4  5  2  0
  5  6  1  0
  5 12  1  0
  6  7  2  0
  6 11  1  0
  7  8  1  0
  7 36  1  0
  8  9  2  0
  9 10  1  0
  9 37  1  0
 10 11  2  0
 10 38  1  0
 11 39  1  0
 12 13  2  0
 12 40  1  0
 13 14  1  0
 14 15  1  0
 14 41  1  6
 14 42  1  0
 15 16  1  0
 15 43  1  1
 15 44  1  0
 16 17  1  0
 16 33  1  6
 16 60  1  0
 17 18  1  0
 17 45  1  1
 17 46  1  0
 18 19  2  0
 18 23  1  0
 19 20  1  0
 19 47  1  0
 20 21  2  0
 20 48  1  0
 21 22  1  0
 21 49  1  0
 22 23  2  0
 22 50  1  0
 23 51  1  0
 24 25  1  6
 24 26  1  0
 24 32  1  0
 25 34  1  0
 25 35  1  0
 26 27  2  0
 26 31  1  0
 27 28  1  0
 27 52  1  0
 28 29  2  0
 28 53  1  0
 29 30  1  0
 29 54  1  0
 30 31  2  0
 30 55  1  0
 31 56  1  0
 32 57  1  1
 32 58  1  0
 32 59  1  0
M  CHG  1  16   1
M  END
>  <s_epik_cmdline>  (1227) 
J2VwaWtfcHl0aG9uJywgJy1waCcsICc3LjAwMDAwMCcsICctcGh0JywgJzIuMDAwMDAwJywgJy1tcycsICcxNicsICctdG4nLCAnOCcsICctbWEnLCAnMjAwJywgJy1pbWFlJywgJzxpbmZpbGUubWFlPicsICctb21hZScsICc8b3V0ZmlsZS5tYWU+Jw==

>  <s_epik_input>  (1227) 
W2NIXTFbY0hdW2NIXVtjSF1bY0hdYzFbQ0BAXShbTkgyXSkoW0NIM10pQyg9TyluMm5jKC1jM1tjSF1uW2NIXVtjSF1bY0hdMylbY0hdYzJbQ0gyXVtDSDJdW05IXVtDSDJdYzRbY0hdW2NIXVtjSF1bY0hdW2NIXTQ=

>  <s_i_glide_gridfile>  (1227) 
ATP-Grid

>  <s_lp_Force_Field>  (1227) 
OPLS_2005

>  <s_lp_Variant>  (1227) 
Shen____49239300____48860522____40180766-2

>  <s_lp_label>  (1227) 
656_sdstereoexpander_2_neutralizer_1_epik_1_stereoizer_1

>  <s_m_source_file>  (1227) 
ATP-VSW-LIGPREP-002-in.maegz

>  <s_sd_BIOSOLVEIT.INFINISEE\_QUERY\_NAME>  (1227) 
Ref-Lig

>  <s_sd_BIOSOLVEIT.INFINISEE\_QUERY\_SMILES>  (1227) 
S(c1nc2c(cc1C[NH2+]Cc3ccc(cc3)C[NH+](C)C)cccc2)Cc4ccccc4

>  <s_sd_BIOSOLVEIT.INFINISEE\_REACTION\_NAME>  (1227) 
Shen

>  <s_sd_BIOSOLVEIT.INFINISEE\_REAGENT1\_SMILES>  (1227) 
O=C(CCNCc1ccccc1)C

>  <s_sd_BIOSOLVEIT.INFINISEE\_REAGENT2\_SMILES>  (1227) 
O=C(OCC)c1cnccc1

>  <s_sd_BIOSOLVEIT.INFINISEE\_REAGENT3\_SMILES>  (1227) 
O=C(NN)C(N)(c1ccccc1)C

>  <s_sd_BIOSOLVEIT.INFINISEE\_SPACE>  (1227) 
KnowledgeSpace_290tr_2019-05

>  <s_vsw_compound_code>  (1227) 
20962

>  <s_vsw_variant>  (1227) 
20962-2

>  <r_epik_Charging_Adjusted_Penalty>  (1227) 
0.064919483162042504

>  <r_epik_Ionization_Penalty>  (1227) 
0.039

>  <r_epik_Ionization_Penalty_Charging>  (1227) 
0.0293

>  <r_epik_Ionization_Penalty_Neutral>  (1227) 
0.0097999999999999997

>  <r_epik_State_Penalty>  (1227) 
0.035700000000000003

>  <r_i_docking_score>  (1227) 
-6.1699437673770197

>  <r_i_glide_ecoul>  (1227) 
-16.0146999359131

>  <r_i_glide_eff_state_penalty>  (1227) 
0.035700000000000003

>  <r_i_glide_einternal>  (1227) 
4.2956914901733398

>  <r_i_glide_emodel>  (1227) 
-73.770083785870995

>  <r_i_glide_energy>  (1227) 
-49.1029949188232

>  <r_i_glide_erotb>  (1227) 
0.87272429201832702

>  <r_i_glide_esite>  (1227) 
-0.111141169032294

>  <r_i_glide_evdw>  (1227) 
-33.088294982910199

>  <r_i_glide_gscore>  (1227) 
-6.2056437673770199

>  <r_i_glide_hbond>  (1227) 
-0.27174657630952698

>  <r_i_glide_ligand_efficiency>  (1227) 
-0.192810742730532

>  <r_i_glide_ligand_efficiency_ln>  (1227) 
-1.3816185958307301

>  <r_i_glide_ligand_efficiency_sa>  (1227) 
-0.61213595097526496

>  <r_i_glide_lipo>  (1227) 
-1.84715506701543

>  <r_i_glide_metal>  (1227) 
-0

>  <r_i_glide_rewards>  (1227) 
-0.79170550750562696

>  <r_lp_Energy>  (1227) 
27.100622999999999

>  <r_qp_ACxDN^.5/SA>  (1227) 
0.017015099999999998

>  <r_qp_CIQPlogS>  (1227) 
-4.0439999999999996

>  <r_qp_EA(eV)>  (1227) 
0.67300000000000004

>  <r_qp_FISA>  (1227) 
105.785

>  <r_qp_FOSA>  (1227) 
151.136

>  <r_qp_IP(eV)>  (1227) 
9.2859999999999996

>  <r_qp_Jm>  (1227) 
0.0011874966256943901

>  <r_qp_PISA>  (1227) 
506.541

>  <r_qp_PSA>  (1227) 
80.744

>  <r_qp_PercentHumanOralAbsorption>  (1227) 
78.819000000000003

>  <r_qp_QPPCaco>  (1227) 
61.170000000000002

>  <r_qp_QPPMDCK>  (1227) 
29.545999999999999

>  <r_qp_QPlogBB>  (1227) 
-0.25

>  <r_qp_QPlogHERG>  (1227) 
-8.7910000000000004

>  <r_qp_QPlogKhsa>  (1227) 
0.502

>  <r_qp_QPlogKp>  (1227) 
-5.0419999999999998

>  <r_qp_QPlogPC16>  (1227) 
16.248000000000001

>  <r_qp_QPlogPo/w>  (1227) 
3.3980000000000001

>  <r_qp_QPlogPoct>  (1227) 
25.120000000000001

>  <r_qp_QPlogPw>  (1227) 
15.738

>  <r_qp_QPlogS>  (1227) 
-3.512

>  <r_qp_QPpolrz>  (1227) 
49.329999999999998

>  <r_qp_SASA>  (1227) 
763.46299999999997

>  <r_qp_SAamideO>  (1227) 
0

>  <r_qp_SAfluorine>  (1227) 
0

>  <r_qp_WPSA>  (1227) 
0

>  <r_qp_accptHB>  (1227) 
7.5

>  <r_qp_dip^2/V>  (1227) 
0.0112867

>  <r_qp_dipole>  (1227) 
3.9660000000000002

>  <r_qp_donorHB>  (1227) 
3

>  <r_qp_glob>  (1227) 
0.79042480000000004

>  <r_qp_mol_MW>  (1227) 
425.53199999999998

>  <r_qp_volume>  (1227) 
1393.8789999999999

>  <r_sd_BIOSOLVEIT.INFINISEE\_FTREES\_SIMILARITY>  (1227) 
0.90200000000000002

>  <r_sd_BIOSOLVEIT.LOGP>  (1227) 
2.0487000000000002

>  <r_sd_BIOSOLVEIT.MOLECULAR\_WEIGHT>  (1227) 
427.54899999999998

>  <r_sd_BIOSOLVEIT.TPSA>  (1227) 
92.030000000000001

>  <i_epik_Tot_Q>  (1227) 
1

>  <i_epik_Tot_abs_Q>  (1227) 
1

>  <i_f3d_flags>  (1227) 
0

>  <i_i_glide_confnum>  (1227) 
5

>  <i_i_glide_lignum>  (1227) 
207

>  <i_i_glide_posenum>  (1227) 
14

>  <i_i_glide_rotatable_bonds>  (1227) 
9

>  <i_lp_mmshare_version>  (1227) 
65135

>  <i_m_ct_format>  (1227) 
2

>  <i_m_source_file_index>  (1227) 
656

>  <i_qp_#NandO>  (1227) 
6

>  <i_qp_#acid>  (1227) 
0

>  <i_qp_#amide>  (1227) 
0

>  <i_qp_#amidine>  (1227) 
0

>  <i_qp_#amine>  (1227) 
2

>  <i_qp_#in34>  (1227) 
0

>  <i_qp_#in56>  (1227) 
23

>  <i_qp_#metab>  (1227) 
7

>  <i_qp_#nonHatm>  (1227) 
32

>  <i_qp_#noncon>  (1227) 
0

>  <i_qp_#ringatoms>  (1227) 
23

>  <i_qp_#rotor>  (1227) 
8

>  <i_qp_#rtvFG>  (1227) 
0

>  <i_qp_#stars>  (1227) 
1

>  <i_qp_CNS>  (1227) 
0

>  <i_qp_HumanOralAbsorption>  (1227) 
2

>  <i_qp_RuleOfFive>  (1227) 
0

>  <i_qp_RuleOfThree>  (1227) 
1

>  <i_sd_BIOSOLVEIT.INFINISEE\_REAGENT1\_NAME>  (1227) 
49239300

>  <i_sd_BIOSOLVEIT.INFINISEE\_REAGENT2\_NAME>  (1227) 
48860522

>  <i_sd_BIOSOLVEIT.INFINISEE\_REAGENT3\_NAME>  (1227) 
40180766

>  <i_sd_BIOSOLVEIT.INFINISEE\_RESULT\_RANK>  (1227) 
93706

>  <i_sd_version>  (1227) 
0

>  <b_lp_Chiralities_Consistent>  (1227) 
1

>  <b_sd_chiral_flag>  (1227) 
0

>  <canonical_id>  (1227) 
ATP-HTVS-C188770C1FD9

>  <compound_code>  (1227) 
20962

>  <title>  (1227) 
Shen____49239300____48860522____40180766

>  <variant>  (1227) 
20962-2

>  <source_file>  (1227) 
运行/运行/ATP-VSW/ATP-VSW-DOCK_HTVS_1-002_lib.maegz

>  <canonical_smiles>  (1227) 
C[C@@](N)(C(=O)n1nc(-c2cccnc2)cc1CC[NH2+]Cc1ccccc1)c1ccccc1

>  <scaffold>  (1227) 
O=C(Cc1ccccc1)n1nc(-c2cccnc2)cc1CC[NH2+]Cc1ccccc1

>  <molecular_formula>  (1227) 
C26H28N5O+

$$$$
ATP-HTVS-C1AB9EDC96AF
     RDKit          3D

 57 60  0  0  0  0  0  0  0  0999 V2000
  195.2890  185.8362  161.2612 F   0  0  0  0  0  0  0  0  0  0  0  0
  195.9104  186.0034  160.0670 C   0  0  0  0  0  0  0  0  0  0  0  0
  196.4990  184.9097  159.4065 C   0  0  0  0  0  0  0  0  0  0  0  0
  197.1482  185.0948  158.1675 C   0  0  0  0  0  0  0  0  0  0  0  0
  197.2058  186.3757  157.5526 C   0  0  0  0  0  0  0  0  0  0  0  0
  197.8530  186.5669  156.2727 N   0  0  0  0  0  0  0  0  0  0  0  0
  198.6483  187.6505  156.0237 C   0  0  0  0  0  0  0  0  0  0  0  0
  198.8908  188.5263  156.8573 O   0  0  0  0  0  0  0  0  0  0  0  0
  199.2551  187.7755  154.6428 C   0  0  0  0  0  0  0  0  0  0  0  0
  199.0978  186.7384  153.6837 C   0  0  0  0  0  0  0  0  0  0  0  0
  199.6357  186.9327  152.3842 C   0  0  0  0  0  0  0  0  0  0  0  0
  200.3577  188.0988  152.0702 C   0  0  0  0  0  0  0  0  0  0  0  0
  200.5330  189.1084  153.0300 C   0  0  0  0  0  0  0  0  0  0  0  0
  199.9751  188.9474  154.3095 C   0  0  0  0  0  0  0  0  0  0  0  0
  198.3118  185.5450  154.0979 C   0  0  0  0  0  0  0  0  0  0  0  0
  198.2614  184.3502  153.2396 C   0  0  0  0  0  0  0  0  0  0  0  0
  199.1488  183.9966  152.4618 O   0  0  0  0  0  0  0  0  0  0  0  0
  197.1525  183.6138  153.4060 N   0  0  0  0  0  0  0  0  0  0  0  0
  196.8923  182.3314  152.7689 C   0  0  1  0  0  0  0  0  0  0  0  0
  197.5819  181.1741  153.4740 C   0  0  0  0  0  0  0  0  0  0  0  0
  198.8266  180.7067  153.0057 C   0  0  0  0  0  0  0  0  0  0  0  0
  199.4770  179.6406  153.6578 C   0  0  0  0  0  0  0  0  0  0  0  0
  198.8828  179.0304  154.7841 C   0  0  0  0  0  0  0  0  0  0  0  0
  197.6349  179.4947  155.2479 C   0  0  0  0  0  0  0  0  0  0  0  0
  196.9914  180.5689  154.6030 C   0  0  0  0  0  0  0  0  0  0  0  0
  199.6036  177.9111  155.5251 C   0  0  1  0  0  0  0  0  0  0  0  0
  199.9476  178.2568  156.9281 N   0  0  1  0  0  0  0  0  0  0  0  0
  200.7914  177.2212  157.5600 C   0  0  2  0  0  0  0  0  0  0  0  0
  200.5344  179.6076  157.0903 C   0  0  2  0  0  0  0  0  0  0  0  0
  197.7331  185.5331  155.3199 C   0  0  0  0  0  0  0  0  0  0  0  0
  196.5895  187.4592  158.2315 C   0  0  0  0  0  0  0  0  0  0  0  0
  195.9738  187.2792  159.4845 C   0  0  0  0  0  0  0  0  0  0  0  0
  196.4595  183.9249  159.8490 H   0  0  0  0  0  0  0  0  0  0  0  0
  197.6094  184.2264  157.7139 H   0  0  0  0  0  0  0  0  0  0  0  0
  199.5078  186.2019  151.5992 H   0  0  0  0  0  0  0  0  0  0  0  0
  200.7742  188.2193  151.0816 H   0  0  0  0  0  0  0  0  0  0  0  0
  201.0866  190.0064  152.7906 H   0  0  0  0  0  0  0  0  0  0  0  0
  200.1034  189.7367  155.0360 H   0  0  0  0  0  0  0  0  0  0  0  0
  196.4272  183.9497  154.0287 H   0  0  0  0  0  0  0  0  0  0  0  0
  195.8166  182.1588  152.7818 H   0  0  0  0  0  0  0  0  0  0  0  0
  197.1834  182.3587  151.7178 H   0  0  0  0  0  0  0  0  0  0  0  0
  199.2946  181.1819  152.1554 H   0  0  0  0  0  0  0  0  0  0  0  0
  200.4378  179.3083  153.2902 H   0  0  0  0  0  0  0  0  0  0  0  0
  197.1770  179.0408  156.1169 H   0  0  0  0  0  0  0  0  0  0  0  0
  196.0520  180.9334  154.9950 H   0  0  0  0  0  0  0  0  0  0  0  0
  198.9769  177.0196  155.5152 H   0  0  0  0  0  0  0  0  0  0  0  0
  200.5160  177.6566  154.9808 H   0  0  0  0  0  0  0  0  0  0  0  0
  201.7684  177.1603  157.0780 H   0  0  0  0  0  0  0  0  0  0  0  0
  200.3319  176.2374  157.4842 H   0  0  0  0  0  0  0  0  0  0  0  0
  200.9557  177.4375  158.6162 H   0  0  0  0  0  0  0  0  0  0  0  0
  201.4580  179.7022  156.5217 H   0  0  0  0  0  0  0  0  0  0  0  0
  200.7735  179.8063  158.1313 H   0  0  0  0  0  0  0  0  0  0  0  0
  199.8546  180.3993  156.7758 H   0  0  0  0  0  0  0  0  0  0  0  0
  197.1638  184.6877  155.6721 H   0  0  0  0  0  0  0  0  0  0  0  0
  196.5794  188.4548  157.8056 H   0  0  0  0  0  0  0  0  0  0  0  0
  195.5440  188.1281  159.9931 H   0  0  0  0  0  0  0  0  0  0  0  0
  199.0473  178.2429  157.4200 H   0  0  0  0  0  0  0  0  0  0  0  0
  1  2  1  0
  2  3  1  0
  2 32  2  0
  3  4  2  0
  3 33  1  0
  4  5  1  0
  4 34  1  0
  5  6  1  0
  5 31  2  0
  6  7  1  0
  6 30  1  0
  7  8  2  0
  7  9  1  0
  9 10  1  0
  9 14  2  0
 10 11  2  0
 10 15  1  0
 11 12  1  0
 11 35  1  0
 12 13  2  0
 12 36  1  0
 13 14  1  0
 13 37  1  0
 14 38  1  0
 15 16  1  0
 15 30  2  0
 16 17  2  0
 16 18  1  0
 18 19  1  0
 18 39  1  0
 19 20  1  0
 19 40  1  6
 19 41  1  0
 20 21  1  0
 20 25  2  0
 21 22  2  0
 21 42  1  0
 22 23  1  0
 22 43  1  0
 23 24  2  0
 23 26  1  0
 24 25  1  0
 24 44  1  0
 25 45  1  0
 26 27  1  0
 26 46  1  1
 26 47  1  0
 27 28  1  0
 27 29  1  0
 27 57  1  1
 28 48  1  6
 28 49  1  0
 28 50  1  0
 29 51  1  6
 29 52  1  0
 29 53  1  0
 30 54  1  0
 31 32  1  0
 31 55  1  0
 32 56  1  0
M  CHG  1  27   1
M  END
>  <s_epik_cmdline>  (1228) 
J2VwaWtfcHl0aG9uJywgJy1waCcsICc3LjAwMDAwMCcsICctcGh0JywgJzIuMDAwMDAwJywgJy1tcycsICcxNicsICctdG4nLCAnOCcsICctbWEnLCAnMjAwJywgJy1pbWFlJywgJzxpbmZpbGUubWFlPicsICctb21hZScsICc8b3V0ZmlsZS5tYWU+Jw==

>  <s_epik_input>  (1228) 
RmMxW2NIXVtjSF1jKFtjSF1bY0hdMSktbihjMj1PKVtjSF1jKGMoYzIzKVtjSF1bY0hdW2NIXVtjSF0zKUMoPU8pW05IXVtDSDJdYzRbY0hdW2NIXWMoW2NIXVtjSF00KVtDSDJdTihbQ0gzXSlbQ0gzXQ==

>  <s_i_glide_gridfile>  (1228) 
ATP-Grid

>  <s_lp_Force_Field>  (1228) 
OPLS_2005

>  <s_lp_Variant>  (1228) 
rxn101____EMOL50155899____EMOL31508819-1

>  <s_lp_label>  (1228) 
2276_sdstereoexpander_1_neutralizer_1_epik_1_stereoizer_1

>  <s_m_source_file>  (1228) 
ATP-VSW-LIGPREP-001-in.maegz

>  <s_sd_BIOSOLVEIT.INFINISEE\_QUERY\_NAME>  (1228) 
Ref-Lig

>  <s_sd_BIOSOLVEIT.INFINISEE\_QUERY\_SMILES>  (1228) 
S(c1nc2c(cc1C[NH2+]Cc3ccc(cc3)C[NH+](C)C)cccc2)Cc4ccccc4

>  <s_sd_BIOSOLVEIT.INFINISEE\_REACTION\_NAME>  (1228) 
rxn101

>  <s_sd_BIOSOLVEIT.INFINISEE\_REAGENT1\_NAME>  (1228) 
EMOL50155899

>  <s_sd_BIOSOLVEIT.INFINISEE\_REAGENT1\_SMILES>  (1228) 
N(Cc1ccc(cc1)CN)(C)C

>  <s_sd_BIOSOLVEIT.INFINISEE\_REAGENT2\_NAME>  (1228) 
EMOL31508819

>  <s_sd_BIOSOLVEIT.INFINISEE\_REAGENT2\_SMILES>  (1228) 
Fc1ccc(N2C(=O)c3c(cccc3)C(C(=O)O)=C2)cc1

>  <s_sd_BIOSOLVEIT.INFINISEE\_SPACE>  (1228) 
eXplore_7tr_2022-12

>  <s_vsw_compound_code>  (1228) 
72801

>  <s_vsw_variant>  (1228) 
72801-1

>  <r_epik_Charging_Adjusted_Penalty>  (1228) 
0.090868607073117599

>  <r_epik_Ionization_Penalty>  (1228) 
0.045400000000000003

>  <r_epik_Ionization_Penalty_Charging>  (1228) 
0.045400000000000003

>  <r_epik_Ionization_Penalty_Neutral>  (1228) 
0

>  <r_epik_State_Penalty>  (1228) 
0.045400000000000003

>  <r_i_docking_score>  (1228) 
-5.07570022737249

>  <r_i_glide_ecoul>  (1228) 
-9.6129789352416992

>  <r_i_glide_eff_state_penalty>  (1228) 
0.045400000000000003

>  <r_i_glide_einternal>  (1228) 
2.9322776794433598

>  <r_i_glide_emodel>  (1228) 
-60.672261243055502

>  <r_i_glide_energy>  (1228) 
-42.883986473083503

>  <r_i_glide_erotb>  (1228) 
0.64367960704893101

>  <r_i_glide_esite>  (1228) 
-0.13145758502630001

>  <r_i_glide_evdw>  (1228) 
-33.271007537841797

>  <r_i_glide_gscore>  (1228) 
-5.1211002273724899

>  <r_i_glide_hbond>  (1228) 
-0.20000000000000001

>  <r_i_glide_ligand_efficiency>  (1228) 
-0.15861563210539001

>  <r_i_glide_ligand_efficiency_ln>  (1228) 
-1.1365876392713601

>  <r_i_glide_ligand_efficiency_sa>  (1228) 
-0.50357324194364395

>  <r_i_glide_lipo>  (1228) 
-1.49686371346002

>  <r_i_glide_metal>  (1228) 
-0

>  <r_i_glide_rewards>  (1228) 
-0.83096131875674895

>  <r_lp_Energy>  (1228) 
44.69558

>  <r_qp_ACxDN^.5/SA>  (1228) 
0.0097897000000000001

>  <r_qp_CIQPlogS>  (1228) 
-5.2080000000000002

>  <r_qp_EA(eV)>  (1228) 
0.84999999999999998

>  <r_qp_FISA>  (1228) 
71.009

>  <r_qp_FOSA>  (1228) 
225.96100000000001

>  <r_qp_IP(eV)>  (1228) 
8.8710000000000004

>  <r_qp_Jm>  (1228) 
0.00142141744843543

>  <r_qp_PISA>  (1228) 
422.11900000000003

>  <r_qp_PSA>  (1228) 
66.370999999999995

>  <r_qp_PercentHumanOralAbsorption>  (1228) 
100

>  <r_qp_QPPCaco>  (1228) 
524.11000000000001

>  <r_qp_QPPMDCK>  (1228) 
492.66899999999998

>  <r_qp_QPlogBB>  (1228) 
0.0040000000000000001

>  <r_qp_QPlogHERG>  (1228) 
-7.7830000000000004

>  <r_qp_QPlogKhsa>  (1228) 
0.65000000000000002

>  <r_qp_QPlogKp>  (1228) 
-2.9239999999999999

>  <r_qp_QPlogPC16>  (1228) 
14.567

>  <r_qp_QPlogPo/w>  (1228) 
4.4450000000000003

>  <r_qp_QPlogPoct>  (1228) 
22.603000000000002

>  <r_qp_QPlogPw>  (1228) 
12.683

>  <r_qp_QPlogS>  (1228) 
-5.556

>  <r_qp_QPpolrz>  (1228) 
49.951999999999998

>  <r_qp_SASA>  (1228) 
766.11300000000006

>  <r_qp_SAamideO>  (1228) 
0

>  <r_qp_SAfluorine>  (1228) 
47.024000000000001

>  <r_qp_WPSA>  (1228) 
47.024000000000001

>  <r_qp_accptHB>  (1228) 
7.5

>  <r_qp_dip^2/V>  (1228) 
0.025007600000000001

>  <r_qp_dipole>  (1228) 
5.8780000000000001

>  <r_qp_donorHB>  (1228) 
1

>  <r_qp_glob>  (1228) 
0.78300060000000005

>  <r_qp_mol_MW>  (1228) 
429.49299999999999

>  <r_qp_volume>  (1228) 
1381.4480000000001

>  <r_sd_BIOSOLVEIT.INFINISEE\_FTREES\_SIMILARITY>  (1228) 
0.92400000000000004

>  <r_sd_BIOSOLVEIT.LOGP>  (1228) 
2.7042999999999999

>  <r_sd_BIOSOLVEIT.MOLECULAR\_WEIGHT>  (1228) 
430.50099999999998

>  <r_sd_BIOSOLVEIT.TPSA>  (1228) 
55.539999999999999

>  <i_epik_Tot_Q>  (1228) 
1

>  <i_epik_Tot_abs_Q>  (1228) 
1

>  <i_f3d_flags>  (1228) 
0

>  <i_i_glide_confnum>  (1228) 
5

>  <i_i_glide_lignum>  (1228) 
803

>  <i_i_glide_posenum>  (1228) 
14

>  <i_i_glide_rotatable_bonds>  (1228) 
7

>  <i_lp_mmshare_version>  (1228) 
65135

>  <i_m_ct_format>  (1228) 
2

>  <i_m_source_file_index>  (1228) 
2276

>  <i_qp_#NandO>  (1228) 
5

>  <i_qp_#acid>  (1228) 
0

>  <i_qp_#amide>  (1228) 
0

>  <i_qp_#amidine>  (1228) 
0

>  <i_qp_#amine>  (1228) 
1

>  <i_qp_#in34>  (1228) 
0

>  <i_qp_#in56>  (1228) 
22

>  <i_qp_#metab>  (1228) 
3

>  <i_qp_#nonHatm>  (1228) 
32

>  <i_qp_#noncon>  (1228) 
0

>  <i_qp_#ringatoms>  (1228) 
22

>  <i_qp_#rotor>  (1228) 
5

>  <i_qp_#rtvFG>  (1228) 
0

>  <i_qp_#stars>  (1228) 
0

>  <i_qp_CNS>  (1228) 
1

>  <i_qp_HumanOralAbsorption>  (1228) 
3

>  <i_qp_RuleOfFive>  (1228) 
0

>  <i_qp_RuleOfThree>  (1228) 
0

>  <i_sd_BIOSOLVEIT.INFINISEE\_RESULT\_RANK>  (1228) 
9766

>  <i_sd_version>  (1228) 
0

>  <b_lp_Chiralities_Consistent>  (1228) 
1

>  <b_sd_chiral_flag>  (1228) 
0

>  <canonical_id>  (1228) 
ATP-HTVS-C1AB9EDC96AF

>  <compound_code>  (1228) 
72801

>  <title>  (1228) 
rxn101____EMOL50155899____EMOL31508819

>  <variant>  (1228) 
72801-1

>  <source_file>  (1228) 
运行/运行/ATP-VSW/ATP-VSW-DOCK_HTVS_1-001_lib/ATP-VSW-DOCK_HTVS_1-001_lib

>  <canonical_smiles>  (1228) 
C[NH+](C)Cc1ccc(CNC(=O)c2cn(-c3ccc(F)cc3)c(=O)c3ccccc23)cc1

>  <scaffold>  (1228) 
O=C(NCc1ccccc1)c1cn(-c2ccccc2)c(=O)c2ccccc12

>  <molecular_formula>  (1228) 
C26H25FN3O2+

$$$$
ATP-HTVS-C2A68E9F7CC7
     RDKit          3D

 62 65  0  0  0  0  0  0  0  0999 V2000
  204.7940  173.8753  153.4645 S   0  0  1  0  0  0  0  0  0  0  0  0
  205.1301  174.1114  154.8688 O   0  0  0  0  0  0  0  0  0  0  0  0
  205.3953  174.7188  152.4073 O   0  0  0  0  0  0  0  0  0  0  0  0
  205.1591  172.2314  153.1015 N   0  0  0  0  0  0  0  0  0  0  0  0
  205.1695  171.7785  151.7126 C   0  0  2  0  0  0  0  0  0  0  0  0
  202.9500  173.9257  153.2574 C   0  0  1  0  0  0  0  0  0  0  0  0
  202.3400  174.8845  154.2573 C   0  0  0  0  0  0  0  0  0  0  0  0
  201.9388  176.1638  153.8421 C   0  0  0  0  0  0  0  0  0  0  0  0
  201.4333  177.0909  154.7751 C   0  0  0  0  0  0  0  0  0  0  0  0
  201.2407  176.7033  156.1270 C   0  0  0  0  0  0  0  0  0  0  0  0
  201.6449  175.4182  156.5406 C   0  0  0  0  0  0  0  0  0  0  0  0
  202.2065  174.5024  155.6149 C   0  0  0  0  0  0  0  0  0  0  0  0
  200.6347  177.6761  157.1310 C   0  0  1  0  0  0  0  0  0  0  0  0
  199.5627  178.4979  156.5352 N   0  0  1  0  0  0  0  0  0  0  0  0
  200.0061  179.7762  155.9250 C   0  0  1  0  0  0  0  0  0  0  0  0
  198.8568  180.5625  155.3042 C   0  0  0  0  0  0  0  0  0  0  0  0
  198.3716  181.6919  156.0070 C   0  0  0  0  0  0  0  0  0  0  0  0
  198.9230  181.9590  157.2453 O   0  0  0  0  0  0  0  0  0  0  0  0
  198.5953  183.1450  157.9630 C   0  0  1  0  0  0  0  0  0  0  0  0
  197.1339  183.2403  158.3839 C   0  0  0  0  0  0  0  0  0  0  0  0
  196.6048  184.4917  158.7651 C   0  0  0  0  0  0  0  0  0  0  0  0
  195.2306  184.6238  159.0534 C   0  0  0  0  0  0  0  0  0  0  0  0
  194.3790  183.5026  158.9638 C   0  0  0  0  0  0  0  0  0  0  0  0
  194.9112  182.2403  158.6275 C   0  0  0  0  0  0  0  0  0  0  0  0
  196.2866  182.1111  158.3622 C   0  0  0  0  0  0  0  0  0  0  0  0
  197.3426  182.4790  155.4385 C   0  0  0  0  0  0  0  0  0  0  0  0
  196.7679  182.1196  154.2071 C   0  0  0  0  0  0  0  0  0  0  0  0
  197.2247  180.9881  153.5128 C   0  0  0  0  0  0  0  0  0  0  0  0
  198.2750  180.1971  154.0506 C   0  0  0  0  0  0  0  0  0  0  0  0
  198.7091  179.0843  153.2925 C   0  0  0  0  0  0  0  0  0  0  0  0
  198.1357  178.8053  152.0304 C   0  0  0  0  0  0  0  0  0  0  0  0
  197.0894  179.5933  151.5114 C   0  0  0  0  0  0  0  0  0  0  0  0
  196.6304  180.6896  152.2637 C   0  0  0  0  0  0  0  0  0  0  0  0
  199.0743  177.9404  155.8585 H   0  0  0  0  0  0  0  0  0  0  0  0
  204.6427  171.5832  153.7059 H   0  0  0  0  0  0  0  0  0  0  0  0
  205.6184  170.7880  151.6469 H   0  0  0  0  0  0  0  0  0  0  0  0
  205.7486  172.4511  151.0813 H   0  0  0  0  0  0  0  0  0  0  0  0
  204.1539  171.7200  151.3208 H   0  0  0  0  0  0  0  0  0  0  0  0
  202.7375  174.2390  152.2296 H   0  0  0  0  0  0  0  0  0  0  0  0
  202.5363  172.9135  153.4021 H   0  0  0  0  0  0  0  0  0  0  0  0
  202.0479  176.4658  152.8202 H   0  0  0  0  0  0  0  0  0  0  0  0
  201.2369  178.0906  154.4254 H   0  0  0  0  0  0  0  0  0  0  0  0
  201.5486  175.1102  157.5722 H   0  0  0  0  0  0  0  0  0  0  0  0
  202.5479  173.5112  155.9556 H   0  0  0  0  0  0  0  0  0  0  0  0
  200.1730  177.1270  157.9514 H   0  0  0  0  0  0  0  0  0  0  0  0
  201.4035  178.2929  157.5890 H   0  0  0  0  0  0  0  0  0  0  0  0
  200.4924  180.3581  156.7102 H   0  0  0  0  0  0  0  0  0  0  0  0
  200.7466  179.6375  155.1386 H   0  0  0  0  0  0  0  0  0  0  0  0
  199.2271  183.1824  158.8522 H   0  0  0  0  0  0  0  0  0  0  0  0
  198.8648  184.0000  157.3425 H   0  0  0  0  0  0  0  0  0  0  0  0
  197.2402  185.3667  158.7525 H   0  0  0  0  0  0  0  0  0  0  0  0
  194.8173  185.5936  159.2882 H   0  0  0  0  0  0  0  0  0  0  0  0
  193.3171  183.6032  159.1512 H   0  0  0  0  0  0  0  0  0  0  0  0
  194.2691  181.3775  158.4886 H   0  0  0  0  0  0  0  0  0  0  0  0
  196.6526  181.1416  158.0656 H   0  0  0  0  0  0  0  0  0  0  0  0
  196.9299  183.3645  155.9144 H   0  0  0  0  0  0  0  0  0  0  0  0
  195.9506  182.7088  153.8194 H   0  0  0  0  0  0  0  0  0  0  0  0
  199.4846  178.4231  153.6529 H   0  0  0  0  0  0  0  0  0  0  0  0
  198.4911  177.9541  151.4762 H   0  0  0  0  0  0  0  0  0  0  0  0
  196.6354  179.3533  150.5550 H   0  0  0  0  0  0  0  0  0  0  0  0
  195.8262  181.3168  151.8804 H   0  0  0  0  0  0  0  0  0  0  0  0
  198.8710  178.6593  157.2563 H   0  0  0  0  0  0  0  0  0  0  0  0
  1  2  2  0
  1  3  2  0
  1  4  1  6
  1  6  1  0
  4  5  1  0
  4 35  1  0
  5 36  1  1
  5 37  1  0
  5 38  1  0
  6  7  1  0
  6 39  1  6
  6 40  1  0
  7  8  1  0
  7 12  2  0
  8  9  2  0
  8 41  1  0
  9 10  1  0
  9 42  1  0
 10 11  2  0
 10 13  1  0
 11 12  1  0
 11 43  1  0
 12 44  1  0
 13 14  1  0
 13 45  1  1
 13 46  1  0
 14 15  1  0
 14 34  1  6
 14 62  1  0
 15 16  1  0
 15 47  1  1
 15 48  1  0
 16 17  2  0
 16 29  1  0
 17 18  1  0
 17 26  1  0
 18 19  1  0
 19 20  1  0
 19 49  1  1
 19 50  1  0
 20 21  2  0
 20 25  1  0
 21 22  1  0
 21 51  1  0
 22 23  2  0
 22 52  1  0
 23 24  1  0
 23 53  1  0
 24 25  2  0
 24 54  1  0
 25 55  1  0
 26 27  2  0
 26 56  1  0
 27 28  1  0
 27 57  1  0
 28 29  1  0
 28 33  2  0
 29 30  2  0
 30 31  1  0
 30 58  1  0
 31 32  2  0
 31 59  1  0
 32 33  1  0
 32 60  1  0
 33 61  1  0
M  CHG  1  14   1
M  END
>  <s_epik_cmdline>  (1229) 
J2VwaWtfcHl0aG9uJywgJy1waCcsICc3LjAwMDAwMCcsICctcGh0JywgJzIuMDAwMDAwJywgJy1tcycsICcxNicsICctdG4nLCAnOCcsICctbWEnLCAnMjAwJywgJy1pbWFlJywgJzxpbmZpbGUubWFlPicsICctb21hZScsICc8b3V0ZmlsZS5tYWU+Jw==

>  <s_epik_input>  (1229) 
W0NIM11bTkhdUyg9TykoPU8pW0NIMl1jMVtjSF1bY0hdYyhbY0hdW2NIXTEpW0NIMl1bTkhdW0NIMl1jKGMoYzIzKVtjSF1bY0hdW2NIXVtjSF0zKWMoW2NIXVtjSF0yKU9bQ0gyXWM0W2NIXVtjSF1bY0hdW2NIXVtjSF00

>  <s_i_glide_gridfile>  (1229) 
ATP-Grid

>  <s_lp_Force_Field>  (1229) 
OPLS_2005

>  <s_lp_Variant>  (1229) 
m_207bba____1273488____21002122-1

>  <s_lp_label>  (1229) 
1388_sdstereoexpander_1_neutralizer_1_epik_1_stereoizer_1

>  <s_m_source_file>  (1229) 
ATP-VSW-LIGPREP-001-in.maegz

>  <s_sd_BIOSOLVEIT.INFINISEE\_QUERY\_NAME>  (1229) 
Ref-Lig

>  <s_sd_BIOSOLVEIT.INFINISEE\_QUERY\_SMILES>  (1229) 
S(c1nc2c(cc1C[NH2+]Cc3ccc(cc3)C[NH+](C)C)cccc2)Cc4ccccc4

>  <s_sd_BIOSOLVEIT.INFINISEE\_REACTION\_NAME>  (1229) 
m_207bba

>  <s_sd_BIOSOLVEIT.INFINISEE\_REAGENT1\_SMILES>  (1229) 
[R1*]NCc1ccc(cc1)CS(=O)(=O)NC

>  <s_sd_BIOSOLVEIT.INFINISEE\_REAGENT2\_SMILES>  (1229) 
[R1*]Cc1c(OCc2ccccc2)ccc3c1cccc3

>  <s_sd_BIOSOLVEIT.INFINISEE\_SPACE>  (1229) 
REALSpace_44bn_2023-08

>  <s_vsw_compound_code>  (1229) 
44385

>  <s_vsw_variant>  (1229) 
44385-1

>  <r_epik_Charging_Adjusted_Penalty>  (1229) 
0.11650350971706799

>  <r_epik_Ionization_Penalty>  (1229) 
0.058299999999999998

>  <r_epik_Ionization_Penalty_Charging>  (1229) 
0.058299999999999998

>  <r_epik_Ionization_Penalty_Neutral>  (1229) 
0.0001

>  <r_epik_State_Penalty>  (1229) 
0.058299999999999998

>  <r_i_docking_score>  (1229) 
-5.27344187307121

>  <r_i_glide_ecoul>  (1229) 
-13.1922826766968

>  <r_i_glide_eff_state_penalty>  (1229) 
0.058299999999999998

>  <r_i_glide_einternal>  (1229) 
5.8605184555053702

>  <r_i_glide_emodel>  (1229) 
-68.399936857920395

>  <r_i_glide_energy>  (1229) 
-49.441668510436998

>  <r_i_glide_erotb>  (1229) 
0.85059191122570899

>  <r_i_glide_esite>  (1229) 
-0.228729811502731

>  <r_i_glide_evdw>  (1229) 
-36.249385833740199

>  <r_i_glide_gscore>  (1229) 
-5.3317418730712101

>  <r_i_glide_hbond>  (1229) 
-0.32151773139878398

>  <r_i_glide_ligand_efficiency>  (1229) 
-0.15980126888094601

>  <r_i_glide_ligand_efficiency_ln>  (1229) 
-1.17278616815032

>  <r_i_glide_ligand_efficiency_sa>  (1229) 
-0.51256805531512795

>  <r_i_glide_lipo>  (1229) 
-1.5789342754766

>  <r_i_glide_metal>  (1229) 
-0

>  <r_i_glide_rewards>  (1229) 
-0.26184027272727101

>  <r_lp_Energy>  (1229) 
19.835449000000001

>  <r_qp_ACxDN^.5/SA>  (1229) 
0.0118633

>  <r_qp_CIQPlogS>  (1229) 
-6.0899999999999999

>  <r_qp_EA(eV)>  (1229) 
0.84599999999999997

>  <r_qp_FISA>  (1229) 
111.093

>  <r_qp_FOSA>  (1229) 
173.73599999999999

>  <r_qp_IP(eV)>  (1229) 
8.532

>  <r_qp_Jm>  (1229) 
0.0022449578524232901

>  <r_qp_PISA>  (1229) 
518.88400000000001

>  <r_qp_PSA>  (1229) 
69.162000000000006

>  <r_qp_PercentHumanOralAbsorption>  (1229) 
96.960999999999999

>  <r_qp_QPPCaco>  (1229) 
218.42400000000001

>  <r_qp_QPPMDCK>  (1229) 
106.977

>  <r_qp_QPlogBB>  (1229) 
-0.871

>  <r_qp_QPlogHERG>  (1229) 
-8.3699999999999992

>  <r_qp_QPlogKhsa>  (1229) 
0.78600000000000003

>  <r_qp_QPlogKp>  (1229) 
-2.8420000000000001

>  <r_qp_QPlogPC16>  (1229) 
16.893999999999998

>  <r_qp_QPlogPo/w>  (1229) 
4.8070000000000004

>  <r_qp_QPlogPoct>  (1229) 
23.798999999999999

>  <r_qp_QPlogPw>  (1229) 
13.313000000000001

>  <r_qp_QPlogS>  (1229) 
-5.4710000000000001

>  <r_qp_QPpolrz>  (1229) 
51.008000000000003

>  <r_qp_SASA>  (1229) 
804.66200000000003

>  <r_qp_SAamideO>  (1229) 
0

>  <r_qp_SAfluorine>  (1229) 
0

>  <r_qp_WPSA>  (1229) 
0.94899999999999995

>  <r_qp_accptHB>  (1229) 
6.75

>  <r_qp_dip^2/V>  (1229) 
0.012481300000000001

>  <r_qp_dipole>  (1229) 
4.2759999999999998

>  <r_qp_donorHB>  (1229) 
2

>  <r_qp_glob>  (1229) 
0.77524029999999999

>  <r_qp_mol_MW>  (1229) 
460.58999999999997

>  <r_qp_volume>  (1229) 
1464.9639999999999

>  <r_sd_BIOSOLVEIT.INFINISEE\_FTREES\_SIMILARITY>  (1229) 
0.90900000000000003

>  <r_sd_BIOSOLVEIT.LOGP>  (1229) 
4.3822000000000001

>  <r_sd_BIOSOLVEIT.MOLECULAR\_WEIGHT>  (1229) 
461.60199999999998

>  <r_sd_BIOSOLVEIT.TPSA>  (1229) 
72.010000000000005

>  <i_epik_Tot_Q>  (1229) 
1

>  <i_epik_Tot_abs_Q>  (1229) 
1

>  <i_f3d_flags>  (1229) 
0

>  <i_i_glide_confnum>  (1229) 
2

>  <i_i_glide_lignum>  (1229) 
365

>  <i_i_glide_posenum>  (1229) 
18

>  <i_i_glide_rotatable_bonds>  (1229) 
10

>  <i_lp_mmshare_version>  (1229) 
65135

>  <i_m_ct_format>  (1229) 
2

>  <i_m_source_file_index>  (1229) 
1388

>  <i_qp_#NandO>  (1229) 
5

>  <i_qp_#acid>  (1229) 
0

>  <i_qp_#amide>  (1229) 
0

>  <i_qp_#amidine>  (1229) 
0

>  <i_qp_#amine>  (1229) 
1

>  <i_qp_#in34>  (1229) 
0

>  <i_qp_#in56>  (1229) 
22

>  <i_qp_#metab>  (1229) 
6

>  <i_qp_#nonHatm>  (1229) 
33

>  <i_qp_#noncon>  (1229) 
0

>  <i_qp_#ringatoms>  (1229) 
22

>  <i_qp_#rotor>  (1229) 
10

>  <i_qp_#rtvFG>  (1229) 
0

>  <i_qp_#stars>  (1229) 
1

>  <i_qp_CNS>  (1229) 
0

>  <i_qp_HumanOralAbsorption>  (1229) 
3

>  <i_qp_RuleOfFive>  (1229) 
0

>  <i_qp_RuleOfThree>  (1229) 
0

>  <i_sd_BIOSOLVEIT.INFINISEE\_REAGENT1\_NAME>  (1229) 
1273488

>  <i_sd_BIOSOLVEIT.INFINISEE\_REAGENT2\_NAME>  (1229) 
21002122

>  <i_sd_BIOSOLVEIT.INFINISEE\_RESULT\_RANK>  (1229) 
51930

>  <i_sd_version>  (1229) 
0

>  <b_lp_Chiralities_Consistent>  (1229) 
1

>  <b_sd_chiral_flag>  (1229) 
0

>  <canonical_id>  (1229) 
ATP-HTVS-C2A68E9F7CC7

>  <compound_code>  (1229) 
44385

>  <title>  (1229) 
m_207bba____1273488____21002122

>  <variant>  (1229) 
44385-1

>  <source_file>  (1229) 
运行/运行/ATP-VSW/ATP-VSW-DOCK_HTVS_1-001_lib/ATP-VSW-DOCK_HTVS_1-001_lib

>  <canonical_smiles>  (1229) 
CNS(=O)(=O)Cc1ccc(C[NH2+]Cc2c(OCc3ccccc3)ccc3ccccc23)cc1

>  <scaffold>  (1229) 
c1ccc(C[NH2+]Cc2c(OCc3ccccc3)ccc3ccccc23)cc1

>  <molecular_formula>  (1229) 
C27H29N2O3S+

$$$$
ATP-HTVS-C2B7985A0F3E
     RDKit          3D

 60 63  0  0  0  0  0  0  0  0999 V2000
  198.7829  176.8169  147.3763 Cl  0  0  0  0  0  0  0  0  0  0  0  0
  198.3439  177.6434  148.8225 C   0  0  0  0  0  0  0  0  0  0  0  0
  198.9287  177.3050  150.0574 C   0  0  0  0  0  0  0  0  0  0  0  0
  198.5554  177.9968  151.2341 C   0  0  0  0  0  0  0  0  0  0  0  0
  197.5658  179.0072  151.1899 C   0  0  0  0  0  0  0  0  0  0  0  0
  197.2396  179.6466  152.3705 O   0  0  0  0  0  0  0  0  0  0  0  0
  196.2752  180.6989  152.3552 C   0  0  1  0  0  0  0  0  0  0  0  0
  196.8725  181.8956  151.6510 C   0  0  0  0  0  0  0  0  0  0  0  0
  196.2843  182.4328  150.5817 N   0  0  0  0  0  0  0  0  0  0  0  0
  197.1822  183.4035  150.1891 C   0  0  0  0  0  0  0  0  0  0  0  0
  198.2906  183.4878  151.0790 C   0  0  0  0  0  0  0  0  0  0  0  0
  198.0503  182.4862  152.0136 N   0  0  0  0  0  0  0  0  0  0  0  0
  198.8838  182.1824  153.1628 C   0  0  1  0  0  0  0  0  0  0  0  0
  198.2385  182.7776  154.4050 C   0  0  0  0  0  0  0  0  0  0  0  0
  198.4434  183.9535  154.7054 O   0  0  0  0  0  0  0  0  0  0  0  0
  197.4573  181.9349  155.1155 N   0  0  0  0  0  0  0  0  0  0  0  0
  196.8456  182.1388  156.4119 C   0  0  1  0  0  0  0  0  0  0  0  0
  197.7992  182.6170  157.5004 C   0  0  0  0  0  0  0  0  0  0  0  0
  199.1987  182.5019  157.3544 C   0  0  0  0  0  0  0  0  0  0  0  0
  200.0627  183.0403  158.3133 C   0  0  0  0  0  0  0  0  0  0  0  0
  199.5309  183.6403  159.4762 C   0  0  0  0  0  0  0  0  0  0  0  0
  200.3721  184.1382  160.4252 F   0  0  0  0  0  0  0  0  0  0  0  0
  198.1360  183.7105  159.6565 C   0  0  0  0  0  0  0  0  0  0  0  0
  197.2673  183.2010  158.6640 C   0  0  0  0  0  0  0  0  0  0  0  0
  201.5612  182.9808  158.0742 C   0  0  1  0  0  0  0  0  0  0  0  0
  202.2122  181.8321  158.7002 N   0  0  0  0  0  0  0  0  0  0  0  0
  203.6529  181.9853  158.5945 C   0  0  2  0  0  0  0  0  0  0  0  0
  201.8275  180.5843  158.0469 C   0  0  2  0  0  0  0  0  0  0  0  0
  199.3170  184.4439  150.8916 C   0  0  0  0  0  0  0  0  0  0  0  0
  199.2517  185.3045  149.7730 C   0  0  0  0  0  0  0  0  0  0  0  0
  198.1893  185.1934  148.8510 C   0  0  0  0  0  0  0  0  0  0  0  0
  197.1594  184.2498  149.0535 C   0  0  0  0  0  0  0  0  0  0  0  0
  196.9541  179.3088  149.9462 C   0  0  0  0  0  0  0  0  0  0  0  0
  197.3661  178.6567  148.7705 C   0  0  0  0  0  0  0  0  0  0  0  0
  199.6641  176.5123  150.1029 H   0  0  0  0  0  0  0  0  0  0  0  0
  199.0239  177.7379  152.1742 H   0  0  0  0  0  0  0  0  0  0  0  0
  195.3666  180.3733  151.8449 H   0  0  0  0  0  0  0  0  0  0  0  0
  195.9730  180.9590  153.3713 H   0  0  0  0  0  0  0  0  0  0  0  0
  199.0442  181.1057  153.2551 H   0  0  0  0  0  0  0  0  0  0  0  0
  199.8746  182.6382  153.0291 H   0  0  0  0  0  0  0  0  0  0  0  0
  197.2502  181.0372  154.6988 H   0  0  0  0  0  0  0  0  0  0  0  0
  196.0069  182.8325  156.3091 H   0  0  0  0  0  0  0  0  0  0  0  0
  196.4111  181.1916  156.7407 H   0  0  0  0  0  0  0  0  0  0  0  0
  199.6418  181.9959  156.5122 H   0  0  0  0  0  0  0  0  0  0  0  0
  197.7052  184.1574  160.5342 H   0  0  0  0  0  0  0  0  0  0  0  0
  196.1899  183.2778  158.8017 H   0  0  0  0  0  0  0  0  0  0  0  0
  201.7557  182.9800  157.0001 H   0  0  0  0  0  0  0  0  0  0  0  0
  201.9975  183.9095  158.4493 H   0  0  0  0  0  0  0  0  0  0  0  0
  204.1571  181.1504  159.0821 H   0  0  0  0  0  0  0  0  0  0  0  0
  203.9744  182.9026  159.0910 H   0  0  0  0  0  0  0  0  0  0  0  0
  203.9775  182.0258  157.5527 H   0  0  0  0  0  0  0  0  0  0  0  0
  202.3324  179.7371  158.5134 H   0  0  0  0  0  0  0  0  0  0  0  0
  202.0817  180.5884  156.9860 H   0  0  0  0  0  0  0  0  0  0  0  0
  200.7565  180.4029  158.1308 H   0  0  0  0  0  0  0  0  0  0  0  0
  200.1288  184.5175  151.5914 H   0  0  0  0  0  0  0  0  0  0  0  0
  200.0168  186.0567  149.6199 H   0  0  0  0  0  0  0  0  0  0  0  0
  198.1333  185.8327  147.9826 H   0  0  0  0  0  0  0  0  0  0  0  0
  196.3489  184.1517  148.3430 H   0  0  0  0  0  0  0  0  0  0  0  0
  196.1613  180.0443  149.8458 H   0  0  0  0  0  0  0  0  0  0  0  0
  196.9085  178.9404  147.8300 H   0  0  0  0  0  0  0  0  0  0  0  0
  1  2  1  0
  2  3  1  0
  2 34  2  0
  3  4  2  0
  3 35  1  0
  4  5  1  0
  4 36  1  0
  5  6  1  0
  5 33  2  0
  6  7  1  0
  7  8  1  0
  7 37  1  6
  7 38  1  0
  8  9  2  0
  8 12  1  0
  9 10  1  0
 10 11  1  0
 10 32  2  0
 11 12  1  0
 11 29  2  0
 12 13  1  0
 13 14  1  0
 13 39  1  1
 13 40  1  0
 14 15  2  0
 14 16  1  0
 16 17  1  0
 16 41  1  0
 17 18  1  0
 17 42  1  6
 17 43  1  0
 18 19  2  0
 18 24  1  0
 19 20  1  0
 19 44  1  0
 20 21  2  0
 20 25  1  0
 21 22  1  0
 21 23  1  0
 23 24  2  0
 23 45  1  0
 24 46  1  0
 25 26  1  0
 25 47  1  6
 25 48  1  0
 26 27  1  0
 26 28  1  0
 27 49  1  1
 27 50  1  0
 27 51  1  0
 28 52  1  1
 28 53  1  0
 28 54  1  0
 29 30  1  0
 29 55  1  0
 30 31  2  0
 30 56  1  0
 31 32  1  0
 31 57  1  0
 32 58  1  0
 33 34  1  0
 33 59  1  0
 34 60  1  0
M  END
>  <s_epik_cmdline>  (1230) 
J2VwaWtfcHl0aG9uJywgJy1waCcsICc3LjAwMDAwMCcsICctcGh0JywgJzIuMDAwMDAwJywgJy1tcycsICcxNicsICctdG4nLCAnOCcsICctbWEnLCAnMjAwJywgJy1pbWFlJywgJzxpbmZpbGUubWFlPicsICctb21hZScsICc8b3V0ZmlsZS5tYWU+Jw==

>  <s_epik_input>  (1230) 
Q2xjMVtjSF1bY0hdYyhbY0hdW2NIXTEpT1tDSDJdYyhuMiluKGMoYzIzKVtjSF1bY0hdW2NIXVtjSF0zKVtDSDJdQyg9TylbTkhdW0NIMl1jNFtjSF1jKGMoRilbY0hdW2NIXTQpW0NIMl1OKFtDSDNdKVtDSDNd

>  <s_i_glide_gridfile>  (1230) 
ATP-Grid

>  <s_lp_Force_Field>  (1230) 
OPLS_2005

>  <s_lp_Variant>  (1230) 
m_22bbg____15706010____4713108-2

>  <s_lp_label>  (1230) 
1073_sdstereoexpander_1_neutralizer_1_epik_2_stereoizer_1

>  <s_m_source_file>  (1230) 
ATP-VSW-LIGPREP-001-in.maegz

>  <s_sd_BIOSOLVEIT.INFINISEE\_QUERY\_NAME>  (1230) 
Ref-Lig

>  <s_sd_BIOSOLVEIT.INFINISEE\_QUERY\_SMILES>  (1230) 
S(c1nc2c(cc1C[NH2+]Cc3ccc(cc3)C[NH+](C)C)cccc2)Cc4ccccc4

>  <s_sd_BIOSOLVEIT.INFINISEE\_REACTION\_NAME>  (1230) 
m_22bbg

>  <s_sd_BIOSOLVEIT.INFINISEE\_REAGENT1\_SMILES>  (1230) 
[R1*]NCc1cc(c(F)cc1)CN(C)C

>  <s_sd_BIOSOLVEIT.INFINISEE\_REAGENT2\_SMILES>  (1230) 
[R1*]C(=O)CN1c2c(N=C1COc3ccc(Cl)cc3)cccc2

>  <s_sd_BIOSOLVEIT.INFINISEE\_SPACE>  (1230) 
REALSpace_44bn_2023-08

>  <s_vsw_compound_code>  (1230) 
34305

>  <s_vsw_variant>  (1230) 
34305-2

>  <r_epik_Charging_Adjusted_Penalty>  (1230) 
1.48078517204557

>  <r_epik_Ionization_Penalty>  (1230) 
1.4810000000000001

>  <r_epik_Ionization_Penalty_Charging>  (1230) 
0

>  <r_epik_Ionization_Penalty_Neutral>  (1230) 
1.4810000000000001

>  <r_epik_State_Penalty>  (1230) 
1.4807999999999999

>  <r_i_docking_score>  (1230) 
-1.8960256814512499

>  <r_i_glide_ecoul>  (1230) 
-3.0356144905090301

>  <r_i_glide_eff_state_penalty>  (1230) 
1.4807999999999999

>  <r_i_glide_einternal>  (1230) 
1.1116861104965201

>  <r_i_glide_emodel>  (1230) 
-43.782473039027202

>  <r_i_glide_energy>  (1230) 
-35.910923480987499

>  <r_i_glide_erotb>  (1230) 
0.78913478356636602

>  <r_i_glide_esite>  (1230) 
-0.0305038709465284

>  <r_i_glide_evdw>  (1230) 
-32.875308990478501

>  <r_i_glide_gscore>  (1230) 
-3.3768256814512498

>  <r_i_glide_hbond>  (1230) 
0

>  <r_i_glide_ligand_efficiency>  (1230) 
-0.055765461219154398

>  <r_i_glide_ligand_efficiency_ln>  (1230) 
-0.41888525475156102

>  <r_i_glide_ligand_efficiency_sa>  (1230) 
-0.18065844605689901

>  <r_i_glide_lipo>  (1230) 
-1.7458479727435401

>  <r_i_glide_metal>  (1230) 
-0

>  <r_i_glide_rewards>  (1230) 
-0.29050099822726499

>  <r_lp_Energy>  (1230) 
18.859275

>  <r_lp_tautomer_probability>  (1230) 
1

>  <r_qp_ACxDN^.5/SA>  (1230) 
0.0091581000000000006

>  <r_qp_CIQPlogS>  (1230) 
-5.8639999999999999

>  <r_qp_EA(eV)>  (1230) 
0.59599999999999997

>  <r_qp_FISA>  (1230) 
54.838000000000001

>  <r_qp_FOSA>  (1230) 
205.416

>  <r_qp_IP(eV)>  (1230) 
9.0120000000000005

>  <r_qp_Jm>  (1230) 
0.16977209606627999

>  <r_qp_PISA>  (1230) 
369.52300000000002

>  <r_qp_PSA>  (1230) 
62.253

>  <r_qp_PercentHumanOralAbsorption>  (1230) 
100

>  <r_qp_QPPCaco>  (1230) 
447.85500000000002

>  <r_qp_QPPMDCK>  (1230) 
1543.0450000000001

>  <r_qp_QPlogBB>  (1230) 
0.153

>  <r_qp_QPlogHERG>  (1230) 
-5.3849999999999998

>  <r_qp_QPlogKhsa>  (1230) 
0.45600000000000002

>  <r_qp_QPlogKp>  (1230) 
-2.427

>  <r_qp_QPlogPC16>  (1230) 
14.881

>  <r_qp_QPlogPo/w>  (1230) 
4.718

>  <r_qp_QPlogPoct>  (1230) 
21.73

>  <r_qp_QPlogPw>  (1230) 
12.605

>  <r_qp_QPlogS>  (1230) 
-4.0250000000000004

>  <r_qp_QPpolrz>  (1230) 
48.606000000000002

>  <r_qp_SASA>  (1230) 
737.05499999999995

>  <r_qp_SAamideO>  (1230) 
27.843

>  <r_qp_SAfluorine>  (1230) 
35.609000000000002

>  <r_qp_WPSA>  (1230) 
107.27800000000001

>  <r_qp_accptHB>  (1230) 
6.75

>  <r_qp_dip^2/V>  (1230) 
0.0079349999999999993

>  <r_qp_dipole>  (1230) 
3.3620000000000001

>  <r_qp_donorHB>  (1230) 
1

>  <r_qp_glob>  (1230) 
0.83070679999999997

>  <r_qp_mol_MW>  (1230) 
480.96800000000002

>  <r_qp_volume>  (1230) 
1424.538

>  <r_sd_BIOSOLVEIT.INFINISEE\_FTREES\_SIMILARITY>  (1230) 
0.91400000000000003

>  <r_sd_BIOSOLVEIT.LOGP>  (1230) 
3.3687

>  <r_sd_BIOSOLVEIT.MOLECULAR\_WEIGHT>  (1230) 
481.976

>  <r_sd_BIOSOLVEIT.TPSA>  (1230) 
60.590000000000003

>  <i_epik_Tot_Q>  (1230) 
0

>  <i_epik_Tot_abs_Q>  (1230) 
0

>  <i_f3d_flags>  (1230) 
0

>  <i_i_glide_confnum>  (1230) 
1

>  <i_i_glide_lignum>  (1230) 
239

>  <i_i_glide_posenum>  (1230) 
13

>  <i_i_glide_rotatable_bonds>  (1230) 
10

>  <i_lp_mmshare_version>  (1230) 
65135

>  <i_m_ct_format>  (1230) 
2

>  <i_m_source_file_index>  (1230) 
1073

>  <i_qp_#NandO>  (1230) 
6

>  <i_qp_#acid>  (1230) 
0

>  <i_qp_#amide>  (1230) 
1

>  <i_qp_#amidine>  (1230) 
0

>  <i_qp_#amine>  (1230) 
1

>  <i_qp_#in34>  (1230) 
0

>  <i_qp_#in56>  (1230) 
21

>  <i_qp_#metab>  (1230) 
6

>  <i_qp_#nonHatm>  (1230) 
34

>  <i_qp_#noncon>  (1230) 
0

>  <i_qp_#ringatoms>  (1230) 
21

>  <i_qp_#rotor>  (1230) 
9

>  <i_qp_#rtvFG>  (1230) 
0

>  <i_qp_#stars>  (1230) 
0

>  <i_qp_CNS>  (1230) 
1

>  <i_qp_HumanOralAbsorption>  (1230) 
3

>  <i_qp_RuleOfFive>  (1230) 
0

>  <i_qp_RuleOfThree>  (1230) 
0

>  <i_sd_BIOSOLVEIT.INFINISEE\_REAGENT1\_NAME>  (1230) 
15706010

>  <i_sd_BIOSOLVEIT.INFINISEE\_REAGENT2\_NAME>  (1230) 
4713108

>  <i_sd_BIOSOLVEIT.INFINISEE\_RESULT\_RANK>  (1230) 
31452

>  <i_sd_version>  (1230) 
0

>  <b_lp_Chiralities_Consistent>  (1230) 
1

>  <b_sd_chiral_flag>  (1230) 
0

>  <canonical_id>  (1230) 
ATP-HTVS-C2B7985A0F3E

>  <compound_code>  (1230) 
34305

>  <title>  (1230) 
m_22bbg____15706010____4713108

>  <variant>  (1230) 
34305-2

>  <source_file>  (1230) 
运行/运行/ATP-VSW/ATP-VSW-DOCK_HTVS_1-001_lib/ATP-VSW-DOCK_HTVS_1-001_lib

>  <canonical_smiles>  (1230) 
CN(C)Cc1cc(CNC(=O)Cn2c(COc3ccc(Cl)cc3)nc3ccccc32)ccc1F

>  <scaffold>  (1230) 
O=C(Cn1c(COc2ccccc2)nc2ccccc21)NCc1ccccc1

>  <molecular_formula>  (1230) 
C26H26ClFN4O2

$$$$
ATP-HTVS-C302107B3554
     RDKit          3D

 59 62  0  0  0  0  0  0  0  0999 V2000
  199.6917  174.8579  147.3127 Cl  0  0  0  0  0  0  0  0  0  0  0  0
  199.0405  176.0559  148.3730 C   0  0  0  0  0  0  0  0  0  0  0  0
  198.4503  177.2340  147.8524 C   0  0  0  0  0  0  0  0  0  0  0  0
  198.3619  177.4402  146.5151 F   0  0  0  0  0  0  0  0  0  0  0  0
  197.9330  178.2005  148.7431 C   0  0  0  0  0  0  0  0  0  0  0  0
  197.9652  177.9919  150.1405 C   0  0  0  0  0  0  0  0  0  0  0  0
  198.4934  176.7761  150.6374 C   0  0  0  0  0  0  0  0  0  0  0  0
  199.0669  175.8345  149.7620 C   0  0  0  0  0  0  0  0  0  0  0  0
  197.3919  179.0367  151.0552 C   0  0  0  0  0  0  0  0  0  0  0  0
  196.4695  179.7387  150.6520 O   0  0  0  0  0  0  0  0  0  0  0  0
  197.9780  179.1603  152.2655 N   0  0  0  0  0  0  0  0  0  0  0  0
  197.8060  180.1797  153.2501 C   0  0  0  0  0  0  0  0  0  0  0  0
  198.7289  180.2829  154.3284 C   0  0  0  0  0  0  0  0  0  0  0  0
  199.8117  179.4001  154.4065 N   0  0  0  0  0  0  0  0  0  0  0  0
  199.6593  178.3369  155.3906 C   0  0  1  0  0  0  0  0  0  0  0  0
  200.2945  177.0247  154.9812 C   0  0  0  0  0  0  0  0  0  0  0  0
  200.3522  176.6392  153.6262 C   0  0  0  0  0  0  0  0  0  0  0  0
  200.7944  175.3570  153.2597 C   0  0  0  0  0  0  0  0  0  0  0  0
  201.2643  174.4623  154.2461 C   0  0  0  0  0  0  0  0  0  0  0  0
  201.2490  174.8707  155.6010 C   0  0  0  0  0  0  0  0  0  0  0  0
  200.7785  176.1526  155.9699 C   0  0  0  0  0  0  0  0  0  0  0  0
  201.8193  173.0911  153.8531 C   0  0  1  0  0  0  0  0  0  0  0  0
  203.3084  173.0393  153.8059 N   0  0  2  0  0  0  0  0  0  0  0  0
  203.9844  173.5018  155.0439 C   0  0  2  0  0  0  0  0  0  0  0  0
  203.8762  173.6955  152.6053 C   0  0  2  0  0  0  0  0  0  0  0  0
  198.5509  181.3089  155.3079 C   0  0  0  0  0  0  0  0  0  0  0  0
  197.4375  182.1774  155.1932 C   0  0  0  0  0  0  0  0  0  0  0  0
  196.5842  182.0383  154.1605 N   0  0  0  0  0  0  0  0  0  0  0  0
  196.7265  181.0955  153.2051 C   0  0  0  0  0  0  0  0  0  0  0  0
  197.2061  183.1919  156.1382 C   0  0  0  0  0  0  0  0  0  0  0  0
  198.0928  183.3673  157.2158 C   0  0  0  0  0  0  0  0  0  0  0  0
  199.2197  182.5290  157.3318 C   0  0  0  0  0  0  0  0  0  0  0  0
  199.4496  181.5092  156.3848 C   0  0  0  0  0  0  0  0  0  0  0  0
  197.4798  179.0857  148.3341 H   0  0  0  0  0  0  0  0  0  0  0  0
  198.4348  176.5286  151.6932 H   0  0  0  0  0  0  0  0  0  0  0  0
  199.5098  174.9306  150.1469 H   0  0  0  0  0  0  0  0  0  0  0  0
  198.7023  178.4910  152.4663 H   0  0  0  0  0  0  0  0  0  0  0  0
  200.1992  179.0800  153.5267 H   0  0  0  0  0  0  0  0  0  0  0  0
  200.0829  178.6580  156.3442 H   0  0  0  0  0  0  0  0  0  0  0  0
  198.5977  178.1464  155.5793 H   0  0  0  0  0  0  0  0  0  0  0  0
  200.0269  177.3231  152.8566 H   0  0  0  0  0  0  0  0  0  0  0  0
  200.7708  175.0540  152.2234 H   0  0  0  0  0  0  0  0  0  0  0  0
  201.6283  174.2214  156.3782 H   0  0  0  0  0  0  0  0  0  0  0  0
  200.8003  176.4363  157.0121 H   0  0  0  0  0  0  0  0  0  0  0  0
  201.4626  172.3346  154.5554 H   0  0  0  0  0  0  0  0  0  0  0  0
  201.4269  172.7749  152.8783 H   0  0  0  0  0  0  0  0  0  0  0  0
  203.8520  174.5699  155.2045 H   0  0  0  0  0  0  0  0  0  0  0  0
  205.0623  173.3415  154.9876 H   0  0  0  0  0  0  0  0  0  0  0  0
  203.5985  172.9634  155.9096 H   0  0  0  0  0  0  0  0  0  0  0  0
  203.6229  174.7574  152.5743 H   0  0  0  0  0  0  0  0  0  0  0  0
  203.4996  173.2277  151.6938 H   0  0  0  0  0  0  0  0  0  0  0  0
  204.9647  173.6142  152.5970 H   0  0  0  0  0  0  0  0  0  0  0  0
  195.9438  181.1292  152.4684 H   0  0  0  0  0  0  0  0  0  0  0  0
  196.3459  183.8408  156.0454 H   0  0  0  0  0  0  0  0  0  0  0  0
  197.9058  184.1418  157.9467 H   0  0  0  0  0  0  0  0  0  0  0  0
  199.9014  182.6706  158.1587 H   0  0  0  0  0  0  0  0  0  0  0  0
  200.3269  180.8846  156.5007 H   0  0  0  0  0  0  0  0  0  0  0  0
  203.5141  172.0509  153.7353 H   0  0  0  0  0  0  0  0  0  0  0  0
  195.7737  182.6586  154.1084 H   0  0  0  0  0  0  0  0  0  0  0  0
  1  2  1  0
  2  3  2  0
  2  8  1  0
  3  4  1  0
  3  5  1  0
  5  6  2  0
  5 34  1  0
  6  7  1  0
  6  9  1  0
  7  8  2  0
  7 35  1  0
  8 36  1  0
  9 10  2  0
  9 11  1  0
 11 12  1  0
 11 37  1  0
 12 13  2  0
 12 29  1  0
 13 14  1  0
 13 26  1  0
 14 15  1  0
 14 38  1  0
 15 16  1  0
 15 39  1  1
 15 40  1  0
 16 17  1  0
 16 21  2  0
 17 18  2  0
 17 41  1  0
 18 19  1  0
 18 42  1  0
 19 20  2  0
 19 22  1  0
 20 21  1  0
 20 43  1  0
 21 44  1  0
 22 23  1  0
 22 45  1  1
 22 46  1  0
 23 24  1  0
 23 25  1  0
 23 58  1  6
 24 47  1  1
 24 48  1  0
 24 49  1  0
 25 50  1  6
 25 51  1  0
 25 52  1  0
 26 27  1  0
 26 33  2  0
 27 28  1  0
 27 30  2  0
 28 29  2  0
 28 59  1  0
 29 53  1  0
 30 31  1  0
 30 54  1  0
 31 32  2  0
 31 55  1  0
 32 33  1  0
 32 56  1  0
 33 57  1  0
M  CHG  2  23   1  28   1
M  END
>  <s_epik_cmdline>  (1231) 
J2VwaWtfcHl0aG9uJywgJy1waCcsICc3LjAwMDAwMCcsICctcGh0JywgJzIuMDAwMDAwJywgJy1tcycsICcxNicsICctdG4nLCAnOCcsICctbWEnLCAnMjAwJywgJy1pbWFlJywgJzxpbmZpbGUubWFlPicsICctb21hZScsICc8b3V0ZmlsZS5tYWU+Jw==

>  <s_epik_input>  (1231) 
Q2xjMWMoRilbY0hdYyhbY0hdW2NIXTEpQyg9TylbTkhdYyhbY0hdbmMoYzIzKVtjSF1bY0hdW2NIXVtjSF0zKWMyW05IXVtDSDJdYzRbY0hdW2NIXWMoW2NIXVtjSF00KVtDSDJdTihbQ0gzXSlbQ0gzXQ==

>  <s_i_glide_gridfile>  (1231) 
ATP-Grid

>  <s_lp_Force_Field>  (1231) 
OPLS_2005

>  <s_lp_Variant>  (1231) 
rxn502b____EMOL4849440____EMOL30488121____EMOL50155899-1

>  <s_lp_label>  (1231) 
2241_sdstereoexpander_1_neutralizer_1_epik_1_stereoizer_1

>  <s_m_source_file>  (1231) 
ATP-VSW-LIGPREP-002-in.maegz

>  <s_sd_BIOSOLVEIT.INFINISEE\_QUERY\_NAME>  (1231) 
Ref-Lig

>  <s_sd_BIOSOLVEIT.INFINISEE\_QUERY\_SMILES>  (1231) 
S(c1nc2c(cc1C[NH2+]Cc3ccc(cc3)C[NH+](C)C)cccc2)Cc4ccccc4

>  <s_sd_BIOSOLVEIT.INFINISEE\_REACTION\_NAME>  (1231) 
rxn502b

>  <s_sd_BIOSOLVEIT.INFINISEE\_REAGENT1\_NAME>  (1231) 
EMOL4849440

>  <s_sd_BIOSOLVEIT.INFINISEE\_REAGENT1\_SMILES>  (1231) 
Clc1c(F)cc(cc1)C(Cl)=O

>  <s_sd_BIOSOLVEIT.INFINISEE\_REAGENT2\_NAME>  (1231) 
EMOL30488121

>  <s_sd_BIOSOLVEIT.INFINISEE\_REAGENT2\_SMILES>  (1231) 
Brc1c(N)cnc2c1cccc2

>  <s_sd_BIOSOLVEIT.INFINISEE\_REAGENT3\_NAME>  (1231) 
EMOL50155899

>  <s_sd_BIOSOLVEIT.INFINISEE\_REAGENT3\_SMILES>  (1231) 
N(Cc1ccc(cc1)CN)(C)C

>  <s_sd_BIOSOLVEIT.INFINISEE\_SPACE>  (1231) 
eXplore_7tr_2022-12

>  <s_vsw_compound_code>  (1231) 
71682

>  <s_vsw_variant>  (1231) 
71682-1

>  <r_epik_Charging_Adjusted_Penalty>  (1231) 
0.24057739898594899

>  <r_epik_Ionization_Penalty>  (1231) 
0.1205

>  <r_epik_Ionization_Penalty_Charging>  (1231) 
0.1203

>  <r_epik_Ionization_Penalty_Neutral>  (1231) 
0.00020000000000000001

>  <r_epik_State_Penalty>  (1231) 
0.1203

>  <r_i_docking_score>  (1231) 
-5.1182375268208604

>  <r_i_glide_ecoul>  (1231) 
-9.6706218719482404

>  <r_i_glide_eff_state_penalty>  (1231) 
0.1203

>  <r_i_glide_einternal>  (1231) 
5.1900672912597701

>  <r_i_glide_emodel>  (1231) 
-63.784380549361202

>  <r_i_glide_energy>  (1231) 
-43.778257369995103

>  <r_i_glide_erotb>  (1231) 
0.65287121805677995

>  <r_i_glide_esite>  (1231) 
-0.16438555712793801

>  <r_i_glide_evdw>  (1231) 
-34.107635498046903

>  <r_i_glide_gscore>  (1231) 
-5.2385375268208598

>  <r_i_glide_hbond>  (1231) 
-0.36162043611821099

>  <r_i_glide_ligand_efficiency>  (1231) 
-0.15509810687335901

>  <r_i_glide_ligand_efficiency_ln>  (1231) 
-1.13826952514934

>  <r_i_glide_ligand_efficiency_sa>  (1231) 
-0.49748250173384501

>  <r_i_glide_lipo>  (1231) 
-1.61314037856917

>  <r_i_glide_metal>  (1231) 
-0

>  <r_i_glide_rewards>  (1231) 
-0.59628731736774399

>  <r_lp_Energy>  (1231) 
41.853619999999999

>  <r_qp_ACxDN^.5/SA>  (1231) 
0.0127551

>  <r_qp_CIQPlogS>  (1231) 
-6.2350000000000003

>  <r_qp_EA(eV)>  (1231) 
1.129

>  <r_qp_FISA>  (1231) 
73.403999999999996

>  <r_qp_FOSA>  (1231) 
178.5

>  <r_qp_IP(eV)>  (1231) 
8.6989999999999998

>  <r_qp_Jm>  (1231) 
0.0040282730408386699

>  <r_qp_PISA>  (1231) 
358.96899999999999

>  <r_qp_PSA>  (1231) 
63.368000000000002

>  <r_qp_PercentHumanOralAbsorption>  (1231) 
100

>  <r_qp_QPPCaco>  (1231) 
497.39999999999998

>  <r_qp_QPPMDCK>  (1231) 
1027.875

>  <r_qp_QPlogBB>  (1231) 
0.091999999999999998

>  <r_qp_QPlogHERG>  (1231) 
-6.7919999999999998

>  <r_qp_QPlogKhsa>  (1231) 
0.72699999999999998

>  <r_qp_QPlogKp>  (1231) 
-2.9980000000000002

>  <r_qp_QPlogPC16>  (1231) 
14.587999999999999

>  <r_qp_QPlogPo/w>  (1231) 
4.8029999999999999

>  <r_qp_QPlogPoct>  (1231) 
23.103000000000002

>  <r_qp_QPlogPw>  (1231) 
12.221

>  <r_qp_QPlogS>  (1231) 
-5.0620000000000003

>  <r_qp_QPpolrz>  (1231) 
47.395000000000003

>  <r_qp_SASA>  (1231) 
720.68200000000002

>  <r_qp_SAamideO>  (1231) 
0

>  <r_qp_SAfluorine>  (1231) 
41.235999999999997

>  <r_qp_WPSA>  (1231) 
109.809

>  <r_qp_accptHB>  (1231) 
6.5

>  <r_qp_dip^2/V>  (1231) 
0.035004300000000002

>  <r_qp_dipole>  (1231) 
6.9119999999999999

>  <r_qp_donorHB>  (1231) 
2

>  <r_qp_glob>  (1231) 
0.82562469999999999

>  <r_qp_mol_MW>  (1231) 
462.95299999999997

>  <r_qp_volume>  (1231) 
1364.7149999999999

>  <r_sd_BIOSOLVEIT.INFINISEE\_FTREES\_SIMILARITY>  (1231) 
0.92700000000000005

>  <r_sd_BIOSOLVEIT.LOGP>  (1231) 
4.5362

>  <r_sd_BIOSOLVEIT.MOLECULAR\_WEIGHT>  (1231) 
463.96199999999999

>  <r_sd_BIOSOLVEIT.TPSA>  (1231) 
58.460000000000001

>  <i_epik_Tot_Q>  (1231) 
2

>  <i_epik_Tot_abs_Q>  (1231) 
2

>  <i_f3d_flags>  (1231) 
0

>  <i_i_glide_confnum>  (1231) 
12

>  <i_i_glide_lignum>  (1231) 
881

>  <i_i_glide_posenum>  (1231) 
20

>  <i_i_glide_rotatable_bonds>  (1231) 
8

>  <i_lp_mmshare_version>  (1231) 
65135

>  <i_m_ct_format>  (1231) 
2

>  <i_m_source_file_index>  (1231) 
2241

>  <i_qp_#NandO>  (1231) 
5

>  <i_qp_#acid>  (1231) 
0

>  <i_qp_#amide>  (1231) 
0

>  <i_qp_#amidine>  (1231) 
0

>  <i_qp_#amine>  (1231) 
1

>  <i_qp_#in34>  (1231) 
0

>  <i_qp_#in56>  (1231) 
22

>  <i_qp_#metab>  (1231) 
6

>  <i_qp_#nonHatm>  (1231) 
33

>  <i_qp_#noncon>  (1231) 
0

>  <i_qp_#ringatoms>  (1231) 
22

>  <i_qp_#rotor>  (1231) 
7

>  <i_qp_#rtvFG>  (1231) 
0

>  <i_qp_#stars>  (1231) 
0

>  <i_qp_CNS>  (1231) 
1

>  <i_qp_HumanOralAbsorption>  (1231) 
3

>  <i_qp_RuleOfFive>  (1231) 
0

>  <i_qp_RuleOfThree>  (1231) 
0

>  <i_sd_BIOSOLVEIT.INFINISEE\_RESULT\_RANK>  (1231) 
6947

>  <i_sd_version>  (1231) 
0

>  <b_lp_Chiralities_Consistent>  (1231) 
1

>  <b_sd_chiral_flag>  (1231) 
0

>  <canonical_id>  (1231) 
ATP-HTVS-C302107B3554

>  <compound_code>  (1231) 
71682

>  <title>  (1231) 
rxn502b____EMOL4849440____EMOL30488121____EMOL50155899

>  <variant>  (1231) 
71682-1

>  <source_file>  (1231) 
运行/运行/ATP-VSW/ATP-VSW-DOCK_HTVS_1-002_lib.maegz

>  <canonical_smiles>  (1231) 
C[NH+](C)Cc1ccc(CNc2c(NC(=O)c3ccc(Cl)c(F)c3)c[nH+]c3ccccc23)cc1

>  <scaffold>  (1231) 
O=C(Nc1c[nH+]c2ccccc2c1NCc1ccccc1)c1ccccc1

>  <molecular_formula>  (1231) 
C26H26ClFN4O+2

$$$$
ATP-HTVS-C31215E10DA6
     RDKit          3D

 63 66  0  0  0  0  0  0  0  0999 V2000
  200.9419  182.5062  154.9978 O   0  0  0  0  0  0  0  0  0  0  0  0
  200.4976  181.7913  155.8968 C   0  0  0  0  0  0  0  0  0  0  0  0
  200.8728  180.4738  156.0398 N   0  0  0  0  0  0  0  0  0  0  0  0
  201.7816  179.8518  155.1030 C   0  0  0  0  0  0  0  0  0  0  0  0
  201.4788  178.5894  154.5343 C   0  0  0  0  0  0  0  0  0  0  0  0
  202.4545  177.9082  153.7794 C   0  0  0  0  0  0  0  0  0  0  0  0
  203.7015  178.5115  153.4666 C   0  0  0  0  0  0  0  0  0  0  0  0
  203.9667  179.8218  153.9405 C   0  0  0  0  0  0  0  0  0  0  0  0
  203.0255  180.4751  154.7799 C   0  0  0  0  0  0  0  0  0  0  0  0
  200.4157  179.6774  157.2328 C   0  0  1  0  0  0  0  0  0  0  0  0
  200.8380  178.1798  157.3277 C   0  0  1  0  0  0  0  0  0  0  0  0
  200.3048  177.6320  158.5105 O   0  0  0  0  0  0  0  0  0  0  0  0
  199.5075  182.3206  156.8446 C   0  0  0  0  0  0  0  0  0  0  0  0
  200.0782  183.2128  157.8698 C   0  0  0  0  0  0  0  0  0  0  0  0
  201.2659  183.5238  157.9699 O   0  0  0  0  0  0  0  0  0  0  0  0
  199.1925  183.7055  158.7563 N   0  0  0  0  0  0  0  0  0  0  0  0
  197.8018  183.4382  158.7666 C   0  0  0  0  0  0  0  0  0  0  0  0
  197.2539  182.5830  157.7840 C   0  0  0  0  0  0  0  0  0  0  0  0
  195.8629  182.3282  157.8053 C   0  0  0  0  0  0  0  0  0  0  0  0
  195.0383  182.9412  158.7701 C   0  0  0  0  0  0  0  0  0  0  0  0
  195.5957  183.8031  159.7346 C   0  0  0  0  0  0  0  0  0  0  0  0
  196.9813  184.0475  159.7358 C   0  0  0  0  0  0  0  0  0  0  0  0
  198.1861  181.9986  156.7975 C   0  0  0  0  0  0  0  0  0  0  0  0
  197.6439  181.0905  155.8973 N   0  0  0  0  0  0  0  0  0  0  0  0
  197.3476  181.2983  154.5478 C   0  0  0  0  0  0  0  0  0  0  0  0
  197.2210  180.1725  153.7119 C   0  0  0  0  0  0  0  0  0  0  0  0
  196.9424  180.3309  152.3389 C   0  0  0  0  0  0  0  0  0  0  0  0
  196.7744  181.6250  151.8060 C   0  0  0  0  0  0  0  0  0  0  0  0
  196.8892  182.7515  152.6420 C   0  0  0  0  0  0  0  0  0  0  0  0
  197.1806  182.5918  154.0102 C   0  0  0  0  0  0  0  0  0  0  0  0
  196.8429  179.1138  151.4418 C   0  0  1  0  0  0  0  0  0  0  0  0
  198.1022  178.8419  150.7007 N   0  0  2  0  0  0  0  0  0  0  0  0
  197.9109  177.8379  149.6279 C   0  0  2  0  0  0  0  0  0  0  0  0
  199.2443  178.4922  151.5792 C   0  0  2  0  0  0  0  0  0  0  0  0
  200.5390  178.1038  154.7189 H   0  0  0  0  0  0  0  0  0  0  0  0
  202.2767  176.8940  153.4592 H   0  0  0  0  0  0  0  0  0  0  0  0
  204.4288  177.9914  152.8159 H   0  0  0  0  0  0  0  0  0  0  0  0
  204.8891  180.3260  153.6457 H   0  0  0  0  0  0  0  0  0  0  0  0
  203.2959  181.4618  155.1719 H   0  0  0  0  0  0  0  0  0  0  0  0
  200.7649  180.2268  158.1316 H   0  0  0  0  0  0  0  0  0  0  0  0
  199.3179  179.6797  157.2961 H   0  0  0  0  0  0  0  0  0  0  0  0
  200.3739  177.6499  156.5181 H   0  0  0  0  0  0  0  0  0  0  0  0
  201.9281  178.1181  157.2737 H   0  0  0  0  0  0  0  0  0  0  0  0
  199.3518  177.5649  158.3676 H   0  0  0  0  0  0  0  0  0  0  0  0
  199.5563  184.3019  159.4855 H   0  0  0  0  0  0  0  0  0  0  0  0
  195.4088  181.6781  157.0709 H   0  0  0  0  0  0  0  0  0  0  0  0
  193.9742  182.7502  158.7605 H   0  0  0  0  0  0  0  0  0  0  0  0
  194.9619  184.2718  160.4726 H   0  0  0  0  0  0  0  0  0  0  0  0
  197.4041  184.7078  160.4805 H   0  0  0  0  0  0  0  0  0  0  0  0
  197.5449  180.1455  156.2404 H   0  0  0  0  0  0  0  0  0  0  0  0
  197.3619  179.1855  154.1303 H   0  0  0  0  0  0  0  0  0  0  0  0
  196.5547  181.7592  150.7579 H   0  0  0  0  0  0  0  0  0  0  0  0
  196.7412  183.7413  152.2382 H   0  0  0  0  0  0  0  0  0  0  0  0
  197.2440  183.4628  154.6472 H   0  0  0  0  0  0  0  0  0  0  0  0
  196.5639  178.2479  152.0444 H   0  0  0  0  0  0  0  0  0  0  0  0
  196.0326  179.2917  150.7335 H   0  0  0  0  0  0  0  0  0  0  0  0
  197.6316  176.8673  150.0404 H   0  0  0  0  0  0  0  0  0  0  0  0
  198.8259  177.7039  149.0496 H   0  0  0  0  0  0  0  0  0  0  0  0
  197.1280  178.1492  148.9346 H   0  0  0  0  0  0  0  0  0  0  0  0
  199.0364  177.5857  152.1482 H   0  0  0  0  0  0  0  0  0  0  0  0
  199.4692  179.2947  152.2818 H   0  0  0  0  0  0  0  0  0  0  0  0
  200.1476  178.3222  150.9924 H   0  0  0  0  0  0  0  0  0  0  0  0
  198.3524  179.7061  150.2398 H   0  0  0  0  0  0  0  0  0  0  0  0
  1  2  2  0
  2  3  1  0
  2 13  1  0
  3  4  1  0
  3 10  1  0
  4  5  2  0
  4  9  1  0
  5  6  1  0
  5 35  1  0
  6  7  2  0
  6 36  1  0
  7  8  1  0
  7 37  1  0
  8  9  2  0
  8 38  1  0
  9 39  1  0
 10 11  1  0
 10 40  1  1
 10 41  1  0
 11 12  1  0
 11 42  1  6
 11 43  1  0
 12 44  1  0
 13 14  1  0
 13 23  2  0
 14 15  2  0
 14 16  1  0
 16 17  1  0
 16 45  1  0
 17 18  1  0
 17 22  2  0
 18 19  2  0
 18 23  1  0
 19 20  1  0
 19 46  1  0
 20 21  2  0
 20 47  1  0
 21 22  1  0
 21 48  1  0
 22 49  1  0
 23 24  1  0
 24 25  1  0
 24 50  1  0
 25 26  2  0
 25 30  1  0
 26 27  1  0
 26 51  1  0
 27 28  2  0
 27 31  1  0
 28 29  1  0
 28 52  1  0
 29 30  2  0
 29 53  1  0
 30 54  1  0
 31 32  1  0
 31 55  1  1
 31 56  1  0
 32 33  1  0
 32 34  1  0
 32 63  1  6
 33 57  1  1
 33 58  1  0
 33 59  1  0
 34 60  1  1
 34 61  1  0
 34 62  1  0
M  CHG  1  32   1
M  END
>  <s_epik_cmdline>  (1232) 
J2VwaWtfcHl0aG9uJywgJy1waCcsICc3LjAwMDAwMCcsICctcGh0JywgJzIuMDAwMDAwJywgJy1tcycsICcxNicsICctdG4nLCAnOCcsICctbWEnLCAnMjAwJywgJy1pbWFlJywgJzxpbmZpbGUubWFlPicsICctb21hZScsICc8b3V0ZmlsZS5tYWU+Jw==

>  <s_epik_input>  (1232) 
W2NIXTFbY0hdW2NIXVtjSF1bY0hdYzFOKFtDSDJdW0NIMl1bT0hdKUMoPU8pYyhjKD1PKVtuSF0yKWMoYyhjMjMpW2NIXVtjSF1bY0hdW2NIXTMpW05IXWM0W2NIXWMoW2NIXVtjSF1bY0hdNClbQ0gyXU4oW0NIM10pW0NIM10=

>  <s_i_glide_gridfile>  (1232) 
ATP-Grid

>  <s_lp_Force_Field>  (1232) 
OPLS_2005

>  <s_lp_Variant>  (1232) 
rxn512c____EMOL483896____EMOL43362984____EMOL3728368-1

>  <s_lp_label>  (1232) 
2617_sdstereoexpander_1_neutralizer_1_epik_1_stereoizer_1

>  <s_m_source_file>  (1232) 
ATP-VSW-LIGPREP-002-in.maegz

>  <s_sd_BIOSOLVEIT.INFINISEE\_QUERY\_NAME>  (1232) 
Ref-Lig

>  <s_sd_BIOSOLVEIT.INFINISEE\_QUERY\_SMILES>  (1232) 
S(c1nc2c(cc1C[NH2+]Cc3ccc(cc3)C[NH+](C)C)cccc2)Cc4ccccc4

>  <s_sd_BIOSOLVEIT.INFINISEE\_REACTION\_NAME>  (1232) 
rxn512c

>  <s_sd_BIOSOLVEIT.INFINISEE\_REAGENT1\_NAME>  (1232) 
EMOL483896

>  <s_sd_BIOSOLVEIT.INFINISEE\_REAGENT1\_SMILES>  (1232) 
OCCNc1ccccc1

>  <s_sd_BIOSOLVEIT.INFINISEE\_REAGENT2\_NAME>  (1232) 
EMOL43362984

>  <s_sd_BIOSOLVEIT.INFINISEE\_REAGENT2\_SMILES>  (1232) 
ClC=1c2c(NC(=O)C1C(=O)O)cccc2

>  <s_sd_BIOSOLVEIT.INFINISEE\_REAGENT3\_NAME>  (1232) 
EMOL3728368

>  <s_sd_BIOSOLVEIT.INFINISEE\_REAGENT3\_SMILES>  (1232) 
N(Cc1cc(N)ccc1)(C)C

>  <s_sd_BIOSOLVEIT.INFINISEE\_SPACE>  (1232) 
eXplore_7tr_2022-12

>  <s_vsw_compound_code>  (1232) 
83714

>  <s_vsw_variant>  (1232) 
83714-1

>  <r_epik_Charging_Adjusted_Penalty>  (1232) 
0.090580792405836497

>  <r_epik_Ionization_Penalty>  (1232) 
0.045400000000000003

>  <r_epik_Ionization_Penalty_Charging>  (1232) 
0.0453

>  <r_epik_Ionization_Penalty_Neutral>  (1232) 
0.0001

>  <r_epik_State_Penalty>  (1232) 
0.0453

>  <r_i_docking_score>  (1232) 
-1.69145997331556

>  <r_i_glide_ecoul>  (1232) 
-7.1381874084472701

>  <r_i_glide_eff_state_penalty>  (1232) 
0.0453

>  <r_i_glide_einternal>  (1232) 
10.434932708740201

>  <r_i_glide_emodel>  (1232) 
-42.475752619474903

>  <r_i_glide_energy>  (1232) 
-42.324119567871101

>  <r_i_glide_erotb>  (1232) 
0.76832291082790805

>  <r_i_glide_esite>  (1232) 
-0.060136437084310802

>  <r_i_glide_evdw>  (1232) 
-35.1859321594238

>  <r_i_glide_gscore>  (1232) 
-1.7367599733155601

>  <r_i_glide_hbond>  (1232) 
-0.16

>  <r_i_glide_ligand_efficiency>  (1232) 
-0.049748822744575399

>  <r_i_glide_ligand_efficiency_ln>  (1232) 
-0.37369095195063001

>  <r_i_glide_ligand_efficiency_sa>  (1232) 
-0.16116687307354399

>  <r_i_glide_lipo>  (1232) 
-0.97431006416570998

>  <r_i_glide_metal>  (1232) 
-0

>  <r_i_glide_rewards>  (1232) 
1.5193883363448299

>  <r_lp_Energy>  (1232) 
66.006462999999997

>  <r_qp_ACxDN^.5/SA>  (1232) 
0.0103301

>  <r_qp_CIQPlogS>  (1232) 
-5.6749999999999998

>  <r_qp_EA(eV)>  (1232) 
1.131

>  <r_qp_FISA>  (1232) 
136.22999999999999

>  <r_qp_FOSA>  (1232) 
213.67099999999999

>  <r_qp_IP(eV)>  (1232) 
8.4979999999999993

>  <r_qp_Jm>  (1232) 
0.0036895064865466202

>  <r_qp_PISA>  (1232) 
395.49200000000002

>  <r_qp_PSA>  (1232) 
94.010000000000005

>  <r_qp_PercentHumanOralAbsorption>  (1232) 
87.043999999999997

>  <r_qp_QPPCaco>  (1232) 
126.16200000000001

>  <r_qp_QPPMDCK>  (1232) 
58.404000000000003

>  <r_qp_QPlogBB>  (1232) 
-0.95599999999999996

>  <r_qp_QPlogHERG>  (1232) 
-7.1760000000000002

>  <r_qp_QPlogKhsa>  (1232) 
0.50900000000000001

>  <r_qp_QPlogKp>  (1232) 
-3.8359999999999999

>  <r_qp_QPlogPC16>  (1232) 
15.212

>  <r_qp_QPlogPo/w>  (1232) 
3.8420000000000001

>  <r_qp_QPlogPoct>  (1232) 
23.050999999999998

>  <r_qp_QPlogPw>  (1232) 
12.193

>  <r_qp_QPlogS>  (1232) 
-4.2569999999999997

>  <r_qp_QPpolrz>  (1232) 
47.942999999999998

>  <r_qp_SASA>  (1232) 
745.39300000000003

>  <r_qp_SAamideO>  (1232) 
0

>  <r_qp_SAfluorine>  (1232) 
0

>  <r_qp_WPSA>  (1232) 
0

>  <r_qp_accptHB>  (1232) 
7.7000000000000002

>  <r_qp_dip^2/V>  (1232) 
0.096747899999999998

>  <r_qp_dipole>  (1232) 
11.646000000000001

>  <r_qp_donorHB>  (1232) 
1

>  <r_qp_glob>  (1232) 
0.81264429999999999

>  <r_qp_mol_MW>  (1232) 
456.54300000000001

>  <r_qp_volume>  (1232) 
1401.7840000000001

>  <r_sd_BIOSOLVEIT.INFINISEE\_FTREES\_SIMILARITY>  (1232) 
0.91100000000000003

>  <r_sd_BIOSOLVEIT.LOGP>  (1232) 
2.5552999999999999

>  <r_sd_BIOSOLVEIT.MOLECULAR\_WEIGHT>  (1232) 
457.55099999999999

>  <r_sd_BIOSOLVEIT.TPSA>  (1232) 
89.870000000000005

>  <i_epik_Tot_Q>  (1232) 
1

>  <i_epik_Tot_abs_Q>  (1232) 
1

>  <i_f3d_flags>  (1232) 
0

>  <i_i_glide_confnum>  (1232) 
3

>  <i_i_glide_lignum>  (1232) 
1200

>  <i_i_glide_posenum>  (1232) 
1

>  <i_i_glide_rotatable_bonds>  (1232) 
10

>  <i_lp_mmshare_version>  (1232) 
65135

>  <i_m_ct_format>  (1232) 
2

>  <i_m_source_file_index>  (1232) 
2617

>  <i_qp_#NandO>  (1232) 
7

>  <i_qp_#acid>  (1232) 
0

>  <i_qp_#amide>  (1232) 
0

>  <i_qp_#amidine>  (1232) 
0

>  <i_qp_#amine>  (1232) 
1

>  <i_qp_#in34>  (1232) 
0

>  <i_qp_#in56>  (1232) 
22

>  <i_qp_#metab>  (1232) 
6

>  <i_qp_#nonHatm>  (1232) 
34

>  <i_qp_#noncon>  (1232) 
0

>  <i_qp_#ringatoms>  (1232) 
22

>  <i_qp_#rotor>  (1232) 
9

>  <i_qp_#rtvFG>  (1232) 
0

>  <i_qp_#stars>  (1232) 
0

>  <i_qp_CNS>  (1232) 
0

>  <i_qp_HumanOralAbsorption>  (1232) 
3

>  <i_qp_RuleOfFive>  (1232) 
0

>  <i_qp_RuleOfThree>  (1232) 
0

>  <i_sd_BIOSOLVEIT.INFINISEE\_RESULT\_RANK>  (1232) 
43148

>  <i_sd_version>  (1232) 
0

>  <b_lp_Chiralities_Consistent>  (1232) 
1

>  <b_sd_chiral_flag>  (1232) 
0

>  <canonical_id>  (1232) 
ATP-HTVS-C31215E10DA6

>  <compound_code>  (1232) 
83714

>  <title>  (1232) 
rxn512c____EMOL483896____EMOL43362984____EMOL3728368

>  <variant>  (1232) 
83714-1

>  <source_file>  (1232) 
运行/运行/ATP-VSW/ATP-VSW-DOCK_HTVS_1-002_lib.maegz

>  <canonical_smiles>  (1232) 
C[NH+](C)Cc1cccc(Nc2c(C(=O)N(CCO)c3ccccc3)c(=O)[nH]c3ccccc23)c1

>  <scaffold>  (1232) 
O=C(Nc1ccccc1)c1c(Nc2ccccc2)c2ccccc2[nH]c1=O

>  <molecular_formula>  (1232) 
C27H29N4O3+

$$$$
ATP-HTVS-C36315435956
     RDKit          3D

 63 65  0  0  0  0  0  0  0  0999 V2000
  199.9258  176.7791  153.1365 O   0  0  0  0  0  0  0  0  0  0  0  0
  200.6578  176.1741  154.1602 C   0  0  0  0  0  0  0  0  0  0  0  0
  200.7913  176.8619  155.3683 C   0  0  0  0  0  0  0  0  0  0  0  0
  201.5363  176.3011  156.4303 C   0  0  0  0  0  0  0  0  0  0  0  0
  202.0901  175.0282  156.2291 C   0  0  0  0  0  0  0  0  0  0  0  0
  201.9389  174.3197  155.0977 N   0  0  0  0  0  0  0  0  0  0  0  0
  201.2491  174.8879  154.0757 C   0  0  0  0  0  0  0  0  0  0  0  0
  200.2146  178.2224  155.5282 C   0  0  1  0  0  0  0  0  0  0  0  0
  198.7529  178.2648  155.6976 N   0  0  1  0  0  0  0  0  0  0  0  0
  198.1021  179.5858  155.4872 C   0  0  1  0  0  0  0  0  0  0  0  0
  198.7441  180.7762  156.2077 C   0  0  0  0  0  0  0  0  0  0  0  0
  197.9006  181.7035  156.8289 C   0  0  0  0  0  0  0  0  0  0  0  0
  198.4193  182.7502  157.6177 C   0  0  0  0  0  0  0  0  0  0  0  0
  197.6872  183.6566  158.3446 O   0  0  0  0  0  0  0  0  0  0  0  0
  196.3042  183.7411  158.0866 C   0  0  1  0  0  0  0  0  0  0  0  0
  195.5304  182.4740  158.5338 C   0  0  1  0  0  0  0  0  0  0  0  0
  194.1099  182.5253  158.1364 N   0  0  1  0  0  0  0  0  0  0  0  0
  193.4534  181.2369  158.4335 C   0  0  2  0  0  0  0  0  0  0  0  0
  193.3941  183.6717  158.7634 C   0  0  2  0  0  0  0  0  0  0  0  0
  199.8258  182.9235  157.7131 C   0  0  0  0  0  0  0  0  0  0  0  0
  200.6779  182.0628  156.9805 C   0  0  0  0  0  0  0  0  0  0  0  0
  200.1437  181.0386  156.2080 C   0  0  0  0  0  0  0  0  0  0  0  0
  197.9273  179.8726  154.0014 C   0  0  2  0  0  0  0  0  0  0  0  0
  199.6747  176.0251  151.9614 C   0  0  1  0  0  0  0  0  0  0  0  0
  198.9305  176.8319  150.9114 C   0  0  0  0  0  0  0  0  0  0  0  0
  198.5189  178.1465  151.1944 C   0  0  0  0  0  0  0  0  0  0  0  0
  197.8068  178.9199  150.2550 C   0  0  0  0  0  0  0  0  0  0  0  0
  197.5420  178.3753  148.9857 C   0  0  0  0  0  0  0  0  0  0  0  0
  197.9725  177.0675  148.6850 C   0  0  0  0  0  0  0  0  0  0  0  0
  198.6602  176.2924  149.6424 C   0  0  0  0  0  0  0  0  0  0  0  0
  198.3351  177.5705  155.1310 H   0  0  0  0  0  0  0  0  0  0  0  0
  201.7017  176.8341  157.3507 H   0  0  0  0  0  0  0  0  0  0  0  0
  202.6534  174.5589  157.0241 H   0  0  0  0  0  0  0  0  0  0  0  0
  201.1604  174.2838  153.1894 H   0  0  0  0  0  0  0  0  0  0  0  0
  200.7132  178.6627  156.3942 H   0  0  0  0  0  0  0  0  0  0  0  0
  200.4915  178.7934  154.6318 H   0  0  0  0  0  0  0  0  0  0  0  0
  197.0834  179.4456  155.8527 H   0  0  0  0  0  0  0  0  0  0  0  0
  196.8560  181.5474  156.6073 H   0  0  0  0  0  0  0  0  0  0  0  0
  195.9636  184.6195  158.6676 H   0  0  0  0  0  0  0  0  0  0  0  0
  196.1537  184.0233  157.0368 H   0  0  0  0  0  0  0  0  0  0  0  0
  195.8585  181.5642  158.1098 H   0  0  0  0  0  0  0  0  0  0  0  0
  195.6787  182.3219  159.6171 H   0  0  0  0  0  0  0  0  0  0  0  0
  193.5444  181.0060  159.4937 H   0  0  0  0  0  0  0  0  0  0  0  0
  193.9354  180.4269  157.8911 H   0  0  0  0  0  0  0  0  0  0  0  0
  192.4058  181.2416  158.1448 H   0  0  0  0  0  0  0  0  0  0  0  0
  193.5525  183.6539  159.8409 H   0  0  0  0  0  0  0  0  0  0  0  0
  192.3209  183.6443  158.5376 H   0  0  0  0  0  0  0  0  0  0  0  0
  193.7871  184.6245  158.4052 H   0  0  0  0  0  0  0  0  0  0  0  0
  200.2864  183.7518  158.2644 H   0  0  0  0  0  0  0  0  0  0  0  0
  201.7545  182.1729  156.9811 H   0  0  0  0  0  0  0  0  0  0  0  0
  200.8615  180.4746  155.6168 H   0  0  0  0  0  0  0  0  0  0  0  0
  197.3577  180.7815  153.7997 H   0  0  0  0  0  0  0  0  0  0  0  0
  197.3785  179.0519  153.5302 H   0  0  0  0  0  0  0  0  0  0  0  0
  198.9059  180.0130  153.5390 H   0  0  0  0  0  0  0  0  0  0  0  0
  200.6048  175.6750  151.5193 H   0  0  0  0  0  0  0  0  0  0  0  0
  199.0659  175.1620  152.2240 H   0  0  0  0  0  0  0  0  0  0  0  0
  198.7807  178.5545  152.1438 H   0  0  0  0  0  0  0  0  0  0  0  0
  197.4954  179.9275  150.5087 H   0  0  0  0  0  0  0  0  0  0  0  0
  197.0215  178.9696  148.2503 H   0  0  0  0  0  0  0  0  0  0  0  0
  197.7776  176.6541  147.7130 H   0  0  0  0  0  0  0  0  0  0  0  0
  198.9914  175.2928  149.4104 H   0  0  0  0  0  0  0  0  0  0  0  0
  194.0183  182.6653  157.1164 H   0  0  0  0  0  0  0  0  0  0  0  0
  198.5459  178.0159  156.6969 H   0  0  0  0  0  0  0  0  0  0  0  0
  1  2  1  0
  1 24  1  0
  2  3  1  0
  2  7  2  0
  3  4  2  0
  3  8  1  0
  4  5  1  0
  4 32  1  0
  5  6  2  0
  5 33  1  0
  6  7  1  0
  7 34  1  0
  8  9  1  0
  8 35  1  1
  8 36  1  0
  9 10  1  0
  9 31  1  6
  9 63  1  0
 10 11  1  0
 10 23  1  0
 10 37  1  1
 11 12  1  0
 11 22  2  0
 12 13  2  0
 12 38  1  0
 13 14  1  0
 13 20  1  0
 14 15  1  0
 15 16  1  0
 15 39  1  1
 15 40  1  0
 16 17  1  0
 16 41  1  6
 16 42  1  0
 17 18  1  0
 17 19  1  0
 17 62  1  6
 18 43  1  1
 18 44  1  0
 18 45  1  0
 19 46  1  1
 19 47  1  0
 19 48  1  0
 20 21  2  0
 20 49  1  0
 21 22  1  0
 21 50  1  0
 22 51  1  0
 23 52  1  1
 23 53  1  0
 23 54  1  0
 24 25  1  0
 24 55  1  6
 24 56  1  0
 25 26  2  0
 25 30  1  0
 26 27  1  0
 26 57  1  0
 27 28  2  0
 27 58  1  0
 28 29  1  0
 28 59  1  0
 29 30  2  0
 29 60  1  0
 30 61  1  0
M  CHG  2   9   1  17   1
M  END
>  <s_epik_cmdline>  (1233) 
J2VwaWtfcHl0aG9uJywgJy1waCcsICc3LjAwMDAwMCcsICctcGh0JywgJzIuMDAwMDAwJywgJy1tcycsICcxNicsICctdG4nLCAnOCcsICctbWEnLCAnMjAwJywgJy1pbWFlJywgJzxpbmZpbGUubWFlPicsICctb21hZScsICc8b3V0ZmlsZS5tYWU+Jw==

>  <s_epik_input>  (1233) 
W2NIXTFbY0hdW2NIXVtjSF1bY0hdYzFbQ0gyXU9jMmMoW2NIXVtjSF1uW2NIXTIpW0NIMl1bTkhdW0NASF0oW0NIM10pYzNbY0hdYyhbY0hdW2NIXVtjSF0zKU9bQ0gyXVtDSDJdTihbQ0gzXSlbQ0gzXQ==

>  <s_i_glide_gridfile>  (1233) 
ATP-Grid

>  <s_lp_Force_Field>  (1233) 
OPLS_2005

>  <s_lp_Variant>  (1233) 
m_269862bba____10120112____7201114-1

>  <s_lp_label>  (1233) 
1884_sdstereoexpander_1_neutralizer_1_epik_1_stereoizer_1

>  <s_m_source_file>  (1233) 
ATP-VSW-LIGPREP-002-in.maegz

>  <s_sd_BIOSOLVEIT.INFINISEE\_QUERY\_NAME>  (1233) 
Ref-Lig

>  <s_sd_BIOSOLVEIT.INFINISEE\_QUERY\_SMILES>  (1233) 
S(c1nc2c(cc1C[NH2+]Cc3ccc(cc3)C[NH+](C)C)cccc2)Cc4ccccc4

>  <s_sd_BIOSOLVEIT.INFINISEE\_REACTION\_NAME>  (1233) 
m_269862bba

>  <s_sd_BIOSOLVEIT.INFINISEE\_REAGENT1\_SMILES>  (1233) 
[R1*]NCc1c(OCc2ccccc2)cncc1

>  <s_sd_BIOSOLVEIT.INFINISEE\_REAGENT2\_SMILES>  (1233) 
[R1*]C(c1cc(OCCN(C)C)ccc1)C

>  <s_sd_BIOSOLVEIT.INFINISEE\_SPACE>  (1233) 
REALSpace_44bn_2023-08

>  <s_vsw_compound_code>  (1233) 
60258

>  <s_vsw_variant>  (1233) 
60258-1

>  <r_epik_Charging_Adjusted_Penalty>  (1233) 
0.24435145769272201

>  <r_epik_Ionization_Penalty>  (1233) 
0.1202

>  <r_epik_Ionization_Penalty_Charging>  (1233) 
0.1201

>  <r_epik_Ionization_Penalty_Neutral>  (1233) 
0.00020000000000000001

>  <r_epik_State_Penalty>  (1233) 
0.12429999999999999

>  <r_i_docking_score>  (1233) 
-5.5764366758989201

>  <r_i_glide_ecoul>  (1233) 
-16.6554565429688

>  <r_i_glide_eff_state_penalty>  (1233) 
0.12429999999999999

>  <r_i_glide_einternal>  (1233) 
4.5786643028259304

>  <r_i_glide_emodel>  (1233) 
-75.699288234139601

>  <r_i_glide_energy>  (1233) 
-48.937091827392599

>  <r_i_glide_erotb>  (1233) 
1.1844299767637001

>  <r_i_glide_esite>  (1233) 
-0.20000000000000001

>  <r_i_glide_evdw>  (1233) 
-32.2816352844238

>  <r_i_glide_gscore>  (1233) 
-5.70073667589892

>  <r_i_glide_hbond>  (1233) 
-0.40000000000000002

>  <r_i_glide_ligand_efficiency>  (1233) 
-0.185881222529964

>  <r_i_glide_ligand_efficiency_ln>  (1233) 
-1.26702717290832

>  <r_i_glide_ligand_efficiency_sa>  (1233) 
-0.57757617623672997

>  <r_i_glide_lipo>  (1233) 
-1.5424147251779401

>  <r_i_glide_metal>  (1233) 
-0

>  <r_i_glide_rewards>  (1233) 
-0.63035168181818002

>  <r_lp_Energy>  (1233) 
26.743186999999999

>  <r_lp_tautomer_probability>  (1233) 
1

>  <r_qp_ACxDN^.5/SA>  (1233) 
0.0087776999999999994

>  <r_qp_CIQPlogS>  (1233) 
-3.8399999999999999

>  <r_qp_EA(eV)>  (1233) 
0.25800000000000001

>  <r_qp_FISA>  (1233) 
39.256999999999998

>  <r_qp_FOSA>  (1233) 
335.01400000000001

>  <r_qp_IP(eV)>  (1233) 
8.9220000000000006

>  <r_qp_Jm>  (1233) 
0.0311605611843166

>  <r_qp_PISA>  (1233) 
366.23899999999998

>  <r_qp_PSA>  (1233) 
43.555

>  <r_qp_PercentHumanOralAbsorption>  (1233) 
95.192999999999998

>  <r_qp_QPPCaco>  (1233) 
261.47300000000001

>  <r_qp_QPPMDCK>  (1233) 
142.042

>  <r_qp_QPlogBB>  (1233) 
0.29499999999999998

>  <r_qp_QPlogHERG>  (1233) 
-7.8710000000000004

>  <r_qp_QPlogKhsa>  (1233) 
0.58799999999999997

>  <r_qp_QPlogKp>  (1233) 
-4.0220000000000002

>  <r_qp_QPlogPC16>  (1233) 
14.064

>  <r_qp_QPlogPo/w>  (1233) 
4.266

>  <r_qp_QPlogPoct>  (1233) 
19.538

>  <r_qp_QPlogPw>  (1233) 
9.6999999999999993

>  <r_qp_QPlogS>  (1233) 
-3.0920000000000001

>  <r_qp_QPpolrz>  (1233) 
45.146000000000001

>  <r_qp_SASA>  (1233) 
740.50999999999999

>  <r_qp_SAamideO>  (1233) 
0

>  <r_qp_SAfluorine>  (1233) 
0

>  <r_qp_WPSA>  (1233) 
0

>  <r_qp_accptHB>  (1233) 
6.5

>  <r_qp_dip^2/V>  (1233) 
0.0057605

>  <r_qp_dipole>  (1233) 
2.8100000000000001

>  <r_qp_donorHB>  (1233) 
1

>  <r_qp_glob>  (1233) 
0.80596129999999999

>  <r_qp_mol_MW>  (1233) 
405.53899999999999

>  <r_qp_volume>  (1233) 
1370.944

>  <r_sd_BIOSOLVEIT.INFINISEE\_FTREES\_SIMILARITY>  (1233) 
0.90300000000000002

>  <r_sd_BIOSOLVEIT.LOGP>  (1233) 
2.0085000000000002

>  <r_sd_BIOSOLVEIT.MOLECULAR\_WEIGHT>  (1233) 
407.55500000000001

>  <r_sd_BIOSOLVEIT.TPSA>  (1233) 
52.399999999999999

>  <i_epik_Tot_Q>  (1233) 
2

>  <i_epik_Tot_abs_Q>  (1233) 
2

>  <i_f3d_flags>  (1233) 
0

>  <i_i_glide_confnum>  (1233) 
3

>  <i_i_glide_lignum>  (1233) 
673

>  <i_i_glide_posenum>  (1233) 
14

>  <i_i_glide_rotatable_bonds>  (1233) 
11

>  <i_lp_mmshare_version>  (1233) 
65135

>  <i_m_ct_format>  (1233) 
2

>  <i_m_source_file_index>  (1233) 
1884

>  <i_qp_#NandO>  (1233) 
5

>  <i_qp_#acid>  (1233) 
0

>  <i_qp_#amide>  (1233) 
0

>  <i_qp_#amidine>  (1233) 
0

>  <i_qp_#amine>  (1233) 
2

>  <i_qp_#in34>  (1233) 
0

>  <i_qp_#in56>  (1233) 
18

>  <i_qp_#metab>  (1233) 
10

>  <i_qp_#nonHatm>  (1233) 
30

>  <i_qp_#noncon>  (1233) 
0

>  <i_qp_#ringatoms>  (1233) 
18

>  <i_qp_#rotor>  (1233) 
11

>  <i_qp_#rtvFG>  (1233) 
0

>  <i_qp_#stars>  (1233) 
1

>  <i_qp_CNS>  (1233) 
1

>  <i_qp_HumanOralAbsorption>  (1233) 
1

>  <i_qp_RuleOfFive>  (1233) 
0

>  <i_qp_RuleOfThree>  (1233) 
1

>  <i_sd_BIOSOLVEIT.INFINISEE\_REAGENT1\_NAME>  (1233) 
10120112

>  <i_sd_BIOSOLVEIT.INFINISEE\_REAGENT2\_NAME>  (1233) 
7201114

>  <i_sd_BIOSOLVEIT.INFINISEE\_RESULT\_RANK>  (1233) 
83273

>  <i_sd_version>  (1233) 
0

>  <b_lp_Chiralities_Consistent>  (1233) 
1

>  <b_sd_chiral_flag>  (1233) 
0

>  <canonical_id>  (1233) 
ATP-HTVS-C36315435956

>  <compound_code>  (1233) 
60258

>  <title>  (1233) 
m_269862bba____10120112____7201114

>  <variant>  (1233) 
60258-1

>  <source_file>  (1233) 
运行/运行/ATP-VSW/ATP-VSW-DOCK_HTVS_1-002_lib.maegz

>  <canonical_smiles>  (1233) 
C[C@@H]([NH2+]Cc1ccncc1OCc1ccccc1)c1cccc(OCC[NH+](C)C)c1

>  <scaffold>  (1233) 
c1ccc(C[NH2+]Cc2ccncc2OCc2ccccc2)cc1

>  <molecular_formula>  (1233) 
C25H33N3O2+2

$$$$
ATP-HTVS-C36F7D03654F
     RDKit          3D

 59 61  0  0  0  0  0  0  0  0999 V2000
  198.6304  179.4334  146.5574 F   0  0  0  0  0  0  0  0  0  0  0  0
  198.9234  178.2460  147.1447 C   0  0  0  0  0  0  0  0  0  0  0  0
  198.5120  178.0149  148.4779 C   0  0  0  0  0  0  0  0  0  0  0  0
  198.8833  176.8142  149.1410 C   0  0  0  0  0  0  0  0  0  0  0  0
  199.5805  175.8160  148.4104 C   0  0  0  0  0  0  0  0  0  0  0  0
  199.9229  176.0285  147.0486 C   0  0  0  0  0  0  0  0  0  0  0  0
  199.6166  177.2553  146.4148 C   0  0  0  0  0  0  0  0  0  0  0  0
  198.5348  176.5745  150.6179 C   0  0  1  0  0  0  0  0  0  0  0  0
  199.7571  176.7482  151.5623 C   0  0  0  0  0  0  0  0  0  0  0  0
  200.5340  175.7995  151.6580 O   0  0  0  0  0  0  0  0  0  0  0  0
  199.9700  177.8974  152.2733 N   0  0  0  0  0  0  0  0  0  0  0  0
  199.1223  179.0422  152.2012 C   0  0  0  0  0  0  0  0  0  0  0  0
  198.6180  179.4338  151.0055 N   0  0  0  0  0  0  0  0  0  0  0  0
  197.7919  180.4827  150.8628 C   0  0  0  0  0  0  0  0  0  0  0  0
  197.4202  181.2692  151.9703 C   0  0  0  0  0  0  0  0  0  0  0  0
  197.9400  180.9368  153.2429 C   0  0  0  0  0  0  0  0  0  0  0  0
  197.5527  181.6994  154.3474 N   0  0  0  0  0  0  0  0  0  0  0  0
  198.5583  181.9939  155.3545 C   0  0  1  0  0  0  0  0  0  0  0  0
  197.9663  182.6511  156.5754 C   0  0  0  0  0  0  0  0  0  0  0  0
  196.8325  182.0822  157.1861 C   0  0  0  0  0  0  0  0  0  0  0  0
  196.2780  182.6782  158.3316 C   0  0  0  0  0  0  0  0  0  0  0  0
  196.8582  183.8443  158.8687 C   0  0  0  0  0  0  0  0  0  0  0  0
  197.9916  184.4105  158.2573 C   0  0  0  0  0  0  0  0  0  0  0  0
  198.5467  183.8177  157.1090 C   0  0  0  0  0  0  0  0  0  0  0  0
  195.0863  182.0324  158.9957 C   0  0  1  0  0  0  0  0  0  0  0  0
  193.8667  182.1195  158.1590 N   0  0  2  0  0  0  0  0  0  0  0  0
  193.1263  183.3726  158.3824 C   0  0  2  0  0  0  0  0  0  0  0  0
  192.9969  180.9350  158.3105 C   0  0  2  0  0  0  0  0  0  0  0  0
  198.8068  179.8180  153.3500 C   0  0  0  0  0  0  0  0  0  0  0  0
  201.1235  177.9541  153.2010 C   0  0  2  0  0  0  0  0  0  0  0  0
  197.9150  178.7854  148.9593 H   0  0  0  0  0  0  0  0  0  0  0  0
  199.8181  174.8659  148.8826 H   0  0  0  0  0  0  0  0  0  0  0  0
  200.3969  175.2356  146.4791 H   0  0  0  0  0  0  0  0  0  0  0  0
  199.8596  177.4249  145.3699 H   0  0  0  0  0  0  0  0  0  0  0  0
  197.7135  177.2219  150.9262 H   0  0  0  0  0  0  0  0  0  0  0  0
  198.1679  175.5402  150.7228 H   0  0  0  0  0  0  0  0  0  0  0  0
  197.4139  180.6631  149.8638 H   0  0  0  0  0  0  0  0  0  0  0  0
  196.7181  182.0983  151.8356 H   0  0  0  0  0  0  0  0  0  0  0  0
  196.8043  182.3639  154.2286 H   0  0  0  0  0  0  0  0  0  0  0  0
  199.0523  181.0765  155.6980 H   0  0  0  0  0  0  0  0  0  0  0  0
  199.3448  182.6167  154.9249 H   0  0  0  0  0  0  0  0  0  0  0  0
  196.4028  181.1711  156.7896 H   0  0  0  0  0  0  0  0  0  0  0  0
  196.4529  184.3009  159.7595 H   0  0  0  0  0  0  0  0  0  0  0  0
  198.4460  185.2935  158.6757 H   0  0  0  0  0  0  0  0  0  0  0  0
  199.4220  184.2514  156.6486 H   0  0  0  0  0  0  0  0  0  0  0  0
  195.3526  180.9987  159.2247 H   0  0  0  0  0  0  0  0  0  0  0  0
  194.9026  182.5089  159.9587 H   0  0  0  0  0  0  0  0  0  0  0  0
  192.7731  183.4872  159.4074 H   0  0  0  0  0  0  0  0  0  0  0  0
  192.2396  183.3514  157.7561 H   0  0  0  0  0  0  0  0  0  0  0  0
  193.7369  184.2429  158.1342 H   0  0  0  0  0  0  0  0  0  0  0  0
  192.6394  180.8189  159.3328 H   0  0  0  0  0  0  0  0  0  0  0  0
  193.5470  180.0276  158.0746 H   0  0  0  0  0  0  0  0  0  0  0  0
  192.1377  180.9886  157.6346 H   0  0  0  0  0  0  0  0  0  0  0  0
  199.1673  179.5123  154.3380 H   0  0  0  0  0  0  0  0  0  0  0  0
  201.3183  178.9699  153.5341 H   0  0  0  0  0  0  0  0  0  0  0  0
  202.0463  177.6154  152.7244 H   0  0  0  0  0  0  0  0  0  0  0  0
  200.9428  177.3411  154.0842 H   0  0  0  0  0  0  0  0  0  0  0  0
  198.8996  178.8993  150.1722 H   0  0  0  0  0  0  0  0  0  0  0  0
  194.1326  182.1565  157.1775 H   0  0  0  0  0  0  0  0  0  0  0  0
  1  2  1  0
  2  3  2  0
  2  7  1  0
  3  4  1  0
  3 31  1  0
  4  5  2  0
  4  8  1  0
  5  6  1  0
  5 32  1  0
  6  7  2  0
  6 33  1  0
  7 34  1  0
  8  9  1  0
  8 35  1  1
  8 36  1  0
  9 10  2  0
  9 11  1  0
 11 12  1  0
 11 30  1  0
 12 13  1  0
 12 29  2  0
 13 14  2  0
 13 58  1  0
 14 15  1  0
 14 37  1  0
 15 16  2  0
 15 38  1  0
 16 17  1  0
 16 29  1  0
 17 18  1  0
 17 39  1  0
 18 19  1  0
 18 40  1  1
 18 41  1  0
 19 20  2  0
 19 24  1  0
 20 21  1  0
 20 42  1  0
 21 22  2  0
 21 25  1  0
 22 23  1  0
 22 43  1  0
 23 24  2  0
 23 44  1  0
 24 45  1  0
 25 26  1  0
 25 46  1  1
 25 47  1  0
 26 27  1  0
 26 28  1  0
 26 59  1  6
 27 48  1  1
 27 49  1  0
 27 50  1  0
 28 51  1  1
 28 52  1  0
 28 53  1  0
 29 54  1  0
 30 55  1  1
 30 56  1  0
 30 57  1  0
M  CHG  2  13   1  26   1
M  END
>  <s_epik_cmdline>  (1234) 
J2VwaWtfcHl0aG9uJywgJy1waCcsICc3LjAwMDAwMCcsICctcGh0JywgJzIuMDAwMDAwJywgJy1tcycsICcxNicsICctdG4nLCAnOCcsICctbWEnLCAnMjAwJywgJy1pbWFlJywgJzxpbmZpbGUubWFlPicsICctb21hZScsICc8b3V0ZmlsZS5tYWU+Jw==

>  <s_epik_input>  (1234) 
RmMxW2NIXWMoW2NIXVtjSF1bY0hdMSlbQ0gyXUMoPU8pTihbQ0gzXSljMm5bY0hdW2NIXWMoW2NIXTIpW05IXVtDSDJdYzNbY0hdYyhbY0hdW2NIXVtjSF0zKVtDSDJdTihbQ0gzXSlbQ0gzXQ==

>  <s_i_glide_gridfile>  (1234) 
ATP-Grid

>  <s_lp_Force_Field>  (1234) 
OPLS_2005

>  <s_lp_Variant>  (1234) 
rxn502a____EMOL491637____EMOL45981693____EMOL2873214-1

>  <s_lp_label>  (1234) 
2796_sdstereoexpander_1_neutralizer_1_epik_1_stereoizer_1

>  <s_m_source_file>  (1234) 
ATP-VSW-LIGPREP-001-in.maegz

>  <s_sd_BIOSOLVEIT.INFINISEE\_QUERY\_NAME>  (1234) 
Ref-Lig

>  <s_sd_BIOSOLVEIT.INFINISEE\_QUERY\_SMILES>  (1234) 
S(c1nc2c(cc1C[NH2+]Cc3ccc(cc3)C[NH+](C)C)cccc2)Cc4ccccc4

>  <s_sd_BIOSOLVEIT.INFINISEE\_REACTION\_NAME>  (1234) 
rxn502a

>  <s_sd_BIOSOLVEIT.INFINISEE\_REAGENT1\_NAME>  (1234) 
EMOL491637

>  <s_sd_BIOSOLVEIT.INFINISEE\_REAGENT1\_SMILES>  (1234) 
Fc1cc(ccc1)CC(=O)O

>  <s_sd_BIOSOLVEIT.INFINISEE\_REAGENT2\_NAME>  (1234) 
EMOL45981693

>  <s_sd_BIOSOLVEIT.INFINISEE\_REAGENT2\_SMILES>  (1234) 
Ic1cc(ncc1)NC

>  <s_sd_BIOSOLVEIT.INFINISEE\_REAGENT3\_NAME>  (1234) 
EMOL2873214

>  <s_sd_BIOSOLVEIT.INFINISEE\_REAGENT3\_SMILES>  (1234) 
N(Cc1cc(ccc1)CN)(C)C

>  <s_sd_BIOSOLVEIT.INFINISEE\_SPACE>  (1234) 
eXplore_7tr_2022-12

>  <s_vsw_compound_code>  (1234) 
89441

>  <s_vsw_variant>  (1234) 
89441-1

>  <r_epik_Charging_Adjusted_Penalty>  (1234) 
0.15091149471365101

>  <r_epik_Ionization_Penalty>  (1234) 
0.075499999999999998

>  <r_epik_Ionization_Penalty_Charging>  (1234) 
0.075499999999999998

>  <r_epik_Ionization_Penalty_Neutral>  (1234) 
0

>  <r_epik_State_Penalty>  (1234) 
0.075499999999999998

>  <r_i_docking_score>  (1234) 
-3.9205625249798901

>  <r_i_glide_ecoul>  (1234) 
-11.1274003982544

>  <r_i_glide_eff_state_penalty>  (1234) 
0.075499999999999998

>  <r_i_glide_einternal>  (1234) 
3.44091844558716

>  <r_i_glide_emodel>  (1234) 
-52.277011420599798

>  <r_i_glide_energy>  (1234) 
-38.794543266296401

>  <r_i_glide_erotb>  (1234) 
0.82557920657044503

>  <r_i_glide_esite>  (1234) 
-0.12228429400315299

>  <r_i_glide_evdw>  (1234) 
-27.667142868041999

>  <r_i_glide_gscore>  (1234) 
-3.99606252497989

>  <r_i_glide_hbond>  (1234) 
-0.16652319217522099

>  <r_i_glide_ligand_efficiency>  (1234) 
-0.13068541749932999

>  <r_i_glide_ligand_efficiency_ln>  (1234) 
-0.89079452362558098

>  <r_i_glide_ligand_efficiency_sa>  (1234) 
-0.40606997684769403

>  <r_i_glide_lipo>  (1234) 
-0.74091153640482998

>  <r_i_glide_metal>  (1234) 
-0

>  <r_i_glide_rewards>  (1234) 
-0.73945550582687503

>  <r_lp_Energy>  (1234) 
42.830868000000002

>  <r_lp_tautomer_probability>  (1234) 
0.9999999999368

>  <r_qp_ACxDN^.5/SA>  (1234) 
0.0092946000000000001

>  <r_qp_CIQPlogS>  (1234) 
-4.7060000000000004

>  <r_qp_EA(eV)>  (1234) 
0.13100000000000001

>  <r_qp_FISA>  (1234) 
61.598999999999997

>  <r_qp_FOSA>  (1234) 
292.00400000000002

>  <r_qp_IP(eV)>  (1234) 
8.5690000000000008

>  <r_qp_Jm>  (1234) 
0.0073706221689176302

>  <r_qp_PISA>  (1234) 
352.53699999999998

>  <r_qp_PSA>  (1234) 
57.015000000000001

>  <r_qp_PercentHumanOralAbsorption>  (1234) 
100

>  <r_qp_QPPCaco>  (1234) 
643.654

>  <r_qp_QPPMDCK>  (1234) 
614.88599999999997

>  <r_qp_QPlogBB>  (1234) 
-0.064000000000000001

>  <r_qp_QPlogHERG>  (1234) 
-7.3460000000000001

>  <r_qp_QPlogKhsa>  (1234) 
0.58199999999999996

>  <r_qp_QPlogKp>  (1234) 
-2.7069999999999999

>  <r_qp_QPlogPC16>  (1234) 
13.81

>  <r_qp_QPlogPo/w>  (1234) 
4.5309999999999997

>  <r_qp_QPlogPoct>  (1234) 
21.501999999999999

>  <r_qp_QPlogPw>  (1234) 
10.960000000000001

>  <r_qp_QPlogS>  (1234) 
-5.0339999999999998

>  <r_qp_QPpolrz>  (1234) 
46.633000000000003

>  <r_qp_SASA>  (1234) 
753.12599999999998

>  <r_qp_SAamideO>  (1234) 
0

>  <r_qp_SAfluorine>  (1234) 
46.985999999999997

>  <r_qp_WPSA>  (1234) 
46.985999999999997

>  <r_qp_accptHB>  (1234) 
7

>  <r_qp_dip^2/V>  (1234) 
0.066275299999999995

>  <r_qp_dipole>  (1234) 
9.5050000000000008

>  <r_qp_donorHB>  (1234) 
1

>  <r_qp_glob>  (1234) 
0.78949380000000002

>  <r_qp_mol_MW>  (1234) 
406.50200000000001

>  <r_qp_volume>  (1234) 
1363.2550000000001

>  <r_sd_BIOSOLVEIT.INFINISEE\_FTREES\_SIMILARITY>  (1234) 
0.90600000000000003

>  <r_sd_BIOSOLVEIT.LOGP>  (1234) 
2.6827999999999999

>  <r_sd_BIOSOLVEIT.MOLECULAR\_WEIGHT>  (1234) 
407.50999999999999

>  <r_sd_BIOSOLVEIT.TPSA>  (1234) 
49.670000000000002

>  <i_epik_Tot_Q>  (1234) 
2

>  <i_epik_Tot_abs_Q>  (1234) 
2

>  <i_f3d_flags>  (1234) 
0

>  <i_i_glide_confnum>  (1234) 
6

>  <i_i_glide_lignum>  (1234) 
1267

>  <i_i_glide_posenum>  (1234) 
2

>  <i_i_glide_rotatable_bonds>  (1234) 
9

>  <i_lp_mmshare_version>  (1234) 
65135

>  <i_m_ct_format>  (1234) 
2

>  <i_m_source_file_index>  (1234) 
2796

>  <i_qp_#NandO>  (1234) 
5

>  <i_qp_#acid>  (1234) 
0

>  <i_qp_#amide>  (1234) 
0

>  <i_qp_#amidine>  (1234) 
0

>  <i_qp_#amine>  (1234) 
1

>  <i_qp_#in34>  (1234) 
0

>  <i_qp_#in56>  (1234) 
18

>  <i_qp_#metab>  (1234) 
8

>  <i_qp_#nonHatm>  (1234) 
30

>  <i_qp_#noncon>  (1234) 
0

>  <i_qp_#ringatoms>  (1234) 
18

>  <i_qp_#rotor>  (1234) 
8

>  <i_qp_#rtvFG>  (1234) 
0

>  <i_qp_#stars>  (1234) 
0

>  <i_qp_CNS>  (1234) 
1

>  <i_qp_HumanOralAbsorption>  (1234) 
3

>  <i_qp_RuleOfFive>  (1234) 
0

>  <i_qp_RuleOfThree>  (1234) 
1

>  <i_sd_BIOSOLVEIT.INFINISEE\_RESULT\_RANK>  (1234) 
63334

>  <i_sd_version>  (1234) 
0

>  <b_lp_Chiralities_Consistent>  (1234) 
1

>  <b_sd_chiral_flag>  (1234) 
0

>  <canonical_id>  (1234) 
ATP-HTVS-C36F7D03654F

>  <compound_code>  (1234) 
89441

>  <title>  (1234) 
rxn502a____EMOL491637____EMOL45981693____EMOL2873214

>  <variant>  (1234) 
89441-1

>  <source_file>  (1234) 
运行/运行/ATP-VSW/ATP-VSW-DOCK_HTVS_1-001_lib/ATP-VSW-DOCK_HTVS_1-001_lib

>  <canonical_smiles>  (1234) 
CN(C(=O)Cc1cccc(F)c1)c1cc(NCc2cccc(C[NH+](C)C)c2)cc[nH+]1

>  <scaffold>  (1234) 
O=C(Cc1ccccc1)Nc1cc(NCc2ccccc2)cc[nH+]1

>  <molecular_formula>  (1234) 
C24H29FN4O+2

$$$$
ATP-HTVS-C3768FC48E4A
     RDKit          3D

 64 67  0  0  0  0  0  0  0  0999 V2000
  199.1109  183.5392  157.0212 O   0  0  0  0  0  0  0  0  0  0  0  0
  198.0127  183.0305  156.7894 C   0  0  0  0  0  0  0  0  0  0  0  0
  197.7639  182.2273  155.7422 N   0  0  0  0  0  0  0  0  0  0  0  0
  198.6722  181.9672  154.6747 C   0  0  0  0  0  0  0  0  0  0  0  0
  199.9249  181.3254  154.8826 C   0  0  0  0  0  0  0  0  0  0  0  0
  200.3514  180.8461  156.1368 N   0  0  0  0  0  0  0  0  0  0  0  0
  201.5312  181.2535  156.8082 C   0  0  0  0  0  0  0  0  0  0  0  0
  202.1305  180.4824  157.8367 C   0  0  0  0  0  0  0  0  0  0  0  0
  203.2987  180.9234  158.4883 C   0  0  0  0  0  0  0  0  0  0  0  0
  203.8938  182.1443  158.1248 C   0  0  0  0  0  0  0  0  0  0  0  0
  203.3129  182.9251  157.1103 C   0  0  0  0  0  0  0  0  0  0  0  0
  202.1434  182.4834  156.4612 C   0  0  0  0  0  0  0  0  0  0  0  0
  199.6328  179.6526  156.5870 C   0  0  1  0  0  0  0  0  0  0  0  0
  200.1981  178.3674  155.9642 C   0  0  1  0  0  0  0  0  0  0  0  0
  199.5519  177.1801  156.5368 N   0  0  2  0  0  0  0  0  0  0  0  0
  200.7583  181.1297  153.7600 C   0  0  0  0  0  0  0  0  0  0  0  0
  200.4266  181.4906  152.5071 N   0  0  0  0  0  0  0  0  0  0  0  0
  199.2334  182.0799  152.2909 C   0  0  0  0  0  0  0  0  0  0  0  0
  198.3173  182.3407  153.3507 C   0  0  0  0  0  0  0  0  0  0  0  0
  197.0851  182.9752  153.0647 C   0  0  0  0  0  0  0  0  0  0  0  0
  196.7501  183.3326  151.7470 C   0  0  0  0  0  0  0  0  0  0  0  0
  197.6443  183.0657  150.6976 C   0  0  0  0  0  0  0  0  0  0  0  0
  198.8772  182.4457  150.9754 C   0  0  0  0  0  0  0  0  0  0  0  0
  196.8339  183.3215  157.6774 C   0  0  0  0  0  0  0  0  0  0  0  0
  196.4841  184.6392  158.0999 C   0  0  0  0  0  0  0  0  0  0  0  0
  195.3593  184.8305  158.9333 C   0  0  0  0  0  0  0  0  0  0  0  0
  194.5753  183.7386  159.3364 C   0  0  0  0  0  0  0  0  0  0  0  0
  194.9248  182.4385  158.9349 C   0  0  0  0  0  0  0  0  0  0  0  0
  196.0502  182.2354  158.1209 C   0  0  0  0  0  0  0  0  0  0  0  0
  197.2427  185.8832  157.6390 C   0  0  1  0  0  0  0  0  0  0  0  0
  198.6271  185.9441  158.1598 N   0  0  2  0  0  0  0  0  0  0  0  0
  198.7184  185.9113  159.6320 C   0  0  2  0  0  0  0  0  0  0  0  0
  199.4215  187.0319  157.5544 C   0  0  2  0  0  0  0  0  0  0  0  0
  199.9048  176.3364  156.1175 H   0  0  0  0  0  0  0  0  0  0  0  0
  198.5391  177.2459  156.4262 H   0  0  0  0  0  0  0  0  0  0  0  0
  196.7984  181.9668  155.5943 H   0  0  0  0  0  0  0  0  0  0  0  0
  201.7220  179.5339  158.1466 H   0  0  0  0  0  0  0  0  0  0  0  0
  203.7430  180.3158  159.2628 H   0  0  0  0  0  0  0  0  0  0  0  0
  204.7929  182.4791  158.6213 H   0  0  0  0  0  0  0  0  0  0  0  0
  203.7659  183.8647  156.8285 H   0  0  0  0  0  0  0  0  0  0  0  0
  201.7137  183.1112  155.6946 H   0  0  0  0  0  0  0  0  0  0  0  0
  199.6408  179.5932  157.6743 H   0  0  0  0  0  0  0  0  0  0  0  0
  198.5766  179.7360  156.3300 H   0  0  0  0  0  0  0  0  0  0  0  0
  200.0414  178.3730  154.8856 H   0  0  0  0  0  0  0  0  0  0  0  0
  201.2750  178.2966  156.1228 H   0  0  0  0  0  0  0  0  0  0  0  0
  201.7162  180.6391  153.8654 H   0  0  0  0  0  0  0  0  0  0  0  0
  196.3653  183.1974  153.8395 H   0  0  0  0  0  0  0  0  0  0  0  0
  195.7975  183.8093  151.5581 H   0  0  0  0  0  0  0  0  0  0  0  0
  197.3887  183.3368  149.6828 H   0  0  0  0  0  0  0  0  0  0  0  0
  199.5657  182.2416  150.1692 H   0  0  0  0  0  0  0  0  0  0  0  0
  195.0537  185.8246  159.2280 H   0  0  0  0  0  0  0  0  0  0  0  0
  193.6963  183.9044  159.9411 H   0  0  0  0  0  0  0  0  0  0  0  0
  194.3362  181.5886  159.2471 H   0  0  0  0  0  0  0  0  0  0  0  0
  196.3093  181.2270  157.8334 H   0  0  0  0  0  0  0  0  0  0  0  0
  197.2515  185.8898  156.5474 H   0  0  0  0  0  0  0  0  0  0  0  0
  196.7093  186.7862  157.9506 H   0  0  0  0  0  0  0  0  0  0  0  0
  198.2164  186.7752  160.0735 H   0  0  0  0  0  0  0  0  0  0  0  0
  199.7616  185.9067  159.9470 H   0  0  0  0  0  0  0  0  0  0  0  0
  198.2622  185.0077  160.0353 H   0  0  0  0  0  0  0  0  0  0  0  0
  199.0291  188.0127  157.8313 H   0  0  0  0  0  0  0  0  0  0  0  0
  199.4135  186.9550  156.4674 H   0  0  0  0  0  0  0  0  0  0  0  0
  200.4613  186.9756  157.8757 H   0  0  0  0  0  0  0  0  0  0  0  0
  199.7068  177.1557  157.5352 H   0  0  0  0  0  0  0  0  0  0  0  0
  199.0436  185.0693  157.8317 H   0  0  0  0  0  0  0  0  0  0  0  0
  1  2  2  0
  2  3  1  0
  2 24  1  0
  3  4  1  0
  3 36  1  0
  4  5  2  0
  4 19  1  0
  5  6  1  0
  5 16  1  0
  6  7  1  0
  6 13  1  0
  7  8  2  0
  7 12  1  0
  8  9  1  0
  8 37  1  0
  9 10  2  0
  9 38  1  0
 10 11  1  0
 10 39  1  0
 11 12  2  0
 11 40  1  0
 12 41  1  0
 13 14  1  0
 13 42  1  1
 13 43  1  0
 14 15  1  0
 14 44  1  6
 14 45  1  0
 15 34  1  6
 15 35  1  0
 15 63  1  0
 16 17  2  0
 16 46  1  0
 17 18  1  0
 18 19  1  0
 18 23  2  0
 19 20  2  0
 20 21  1  0
 20 47  1  0
 21 22  2  0
 21 48  1  0
 22 23  1  0
 22 49  1  0
 23 50  1  0
 24 25  1  0
 24 29  2  0
 25 26  2  0
 25 30  1  0
 26 27  1  0
 26 51  1  0
 27 28  2  0
 27 52  1  0
 28 29  1  0
 28 53  1  0
 29 54  1  0
 30 31  1  0
 30 55  1  6
 30 56  1  0
 31 32  1  0
 31 33  1  0
 31 64  1  6
 32 57  1  1
 32 58  1  0
 32 59  1  0
 33 60  1  6
 33 61  1  0
 33 62  1  0
M  CHG  2  15   1  31   1
M  END
>  <s_epik_cmdline>  (1235) 
J2VwaWtfcHl0aG9uJywgJy1waCcsICc3LjAwMDAwMCcsICctcGh0JywgJzIuMDAwMDAwJywgJy1tcycsICcxNicsICctdG4nLCAnOCcsICctbWEnLCAnMjAwJywgJy1pbWFlJywgJzxpbmZpbGUubWFlPicsICctb21hZScsICc8b3V0ZmlsZS5tYWU+Jw==

>  <s_epik_input>  (1235) 
W2NIXTFbY0hdW2NIXVtjSF1jKFtDSDJdTihbQ0gzXSlbQ0gzXSljMUMoPU8pW05IXWMoYyhjMjMpW2NIXVtjSF1bY0hdW2NIXTMpYyhbY0hdbjIpTihbQ0gyXVtDSDJdW05IMl0pYzRbY0hdW2NIXVtjSF1bY0hdW2NIXTQ=

>  <s_i_glide_gridfile>  (1235) 
ATP-Grid

>  <s_lp_Force_Field>  (1235) 
OPLS_2005

>  <s_lp_Variant>  (1235) 
rxn502b____EMOL5415347____EMOL13728749____EMOL530647-1

>  <s_lp_label>  (1235) 
2732_sdstereoexpander_1_neutralizer_1_epik_1_stereoizer_1

>  <s_m_source_file>  (1235) 
ATP-VSW-LIGPREP-002-in.maegz

>  <s_sd_BIOSOLVEIT.INFINISEE\_QUERY\_NAME>  (1235) 
Ref-Lig

>  <s_sd_BIOSOLVEIT.INFINISEE\_QUERY\_SMILES>  (1235) 
S(c1nc2c(cc1C[NH2+]Cc3ccc(cc3)C[NH+](C)C)cccc2)Cc4ccccc4

>  <s_sd_BIOSOLVEIT.INFINISEE\_REACTION\_NAME>  (1235) 
rxn502b

>  <s_sd_BIOSOLVEIT.INFINISEE\_REAGENT1\_NAME>  (1235) 
EMOL5415347

>  <s_sd_BIOSOLVEIT.INFINISEE\_REAGENT1\_SMILES>  (1235) 
O=C(O)c1c(cccc1)CN(C)C

>  <s_sd_BIOSOLVEIT.INFINISEE\_REAGENT2\_NAME>  (1235) 
EMOL13728749

>  <s_sd_BIOSOLVEIT.INFINISEE\_REAGENT2\_SMILES>  (1235) 
Brc1c(N)c2c(nc1)cccc2

>  <s_sd_BIOSOLVEIT.INFINISEE\_REAGENT3\_NAME>  (1235) 
EMOL530647

>  <s_sd_BIOSOLVEIT.INFINISEE\_REAGENT3\_SMILES>  (1235) 
N(c1ccccc1)CCN

>  <s_sd_BIOSOLVEIT.INFINISEE\_SPACE>  (1235) 
eXplore_7tr_2022-12

>  <s_vsw_compound_code>  (1235) 
87394

>  <s_vsw_variant>  (1235) 
87394-1

>  <r_epik_Charging_Adjusted_Penalty>  (1235) 
0.122231881319375

>  <r_epik_Ionization_Penalty>  (1235) 
0.063799999999999996

>  <r_epik_Ionization_Penalty_Charging>  (1235) 
0.061600000000000002

>  <r_epik_Ionization_Penalty_Neutral>  (1235) 
0.0023

>  <r_epik_State_Penalty>  (1235) 
0.060600000000000001

>  <r_i_docking_score>  (1235) 
-3.3501196729482601

>  <r_i_glide_ecoul>  (1235) 
-10.0966892242432

>  <r_i_glide_eff_state_penalty>  (1235) 
0.060600000000000001

>  <r_i_glide_einternal>  (1235) 
1.70344758033752

>  <r_i_glide_emodel>  (1235) 
-50.588681310131797

>  <r_i_glide_energy>  (1235) 
-38.3030395507812

>  <r_i_glide_erotb>  (1235) 
0.71715601208885404

>  <r_i_glide_esite>  (1235) 
-0.140921711806613

>  <r_i_glide_evdw>  (1235) 
-28.2063503265381

>  <r_i_glide_gscore>  (1235) 
-3.4107196729482601

>  <r_i_glide_hbond>  (1235) 
-0.060030958062389901

>  <r_i_glide_ligand_efficiency>  (1235) 
-0.101518777968129

>  <r_i_glide_ligand_efficiency_ln>  (1235) 
-0.74504926927236503

>  <r_i_glide_ligand_efficiency_sa>  (1235) 
-0.32562496509248201

>  <r_i_glide_lipo>  (1235) 
-0.60370170611382801

>  <r_i_glide_metal>  (1235) 
-0

>  <r_i_glide_rewards>  (1235) 
-0.39840040909090801

>  <r_lp_Energy>  (1235) 
42.112704999999998

>  <r_qp_ACxDN^.5/SA>  (1235) 
0.0159744

>  <r_qp_CIQPlogS>  (1235) 
-4.4420000000000002

>  <r_qp_EA(eV)>  (1235) 
1.1879999999999999

>  <r_qp_FISA>  (1235) 
86.629999999999995

>  <r_qp_FOSA>  (1235) 
200.01599999999999

>  <r_qp_IP(eV)>  (1235) 
7.9939999999999998

>  <r_qp_Jm>  (1235) 
0.0032147502983723699

>  <r_qp_PISA>  (1235) 
472.339

>  <r_qp_PSA>  (1235) 
70.727000000000004

>  <r_qp_PercentHumanOralAbsorption>  (1235) 
84.855000000000004

>  <r_qp_QPPCaco>  (1235) 
92.936999999999998

>  <r_qp_QPPMDCK>  (1235) 
46.435000000000002

>  <r_qp_QPlogBB>  (1235) 
-0.070999999999999994

>  <r_qp_QPlogHERG>  (1235) 
-8.3780000000000001

>  <r_qp_QPlogKhsa>  (1235) 
0.63100000000000001

>  <r_qp_QPlogKp>  (1235) 
-4.7130000000000001

>  <r_qp_QPlogPC16>  (1235) 
16.068000000000001

>  <r_qp_QPlogPo/w>  (1235) 
3.8740000000000001

>  <r_qp_QPlogPoct>  (1235) 
25.163

>  <r_qp_QPlogPw>  (1235) 
14.651

>  <r_qp_QPlogS>  (1235) 
-3.423

>  <r_qp_QPpolrz>  (1235) 
49.5

>  <r_qp_SASA>  (1235) 
758.98500000000001

>  <r_qp_SAamideO>  (1235) 
0

>  <r_qp_SAfluorine>  (1235) 
0

>  <r_qp_WPSA>  (1235) 
0

>  <r_qp_accptHB>  (1235) 
7

>  <r_qp_dip^2/V>  (1235) 
0.037072800000000003

>  <r_qp_dipole>  (1235) 
7.2619999999999996

>  <r_qp_donorHB>  (1235) 
3

>  <r_qp_glob>  (1235) 
0.80587560000000003

>  <r_qp_mol_MW>  (1235) 
439.55900000000003

>  <r_qp_volume>  (1235) 
1422.3440000000001

>  <r_sd_BIOSOLVEIT.INFINISEE\_FTREES\_SIMILARITY>  (1235) 
0.90800000000000003

>  <r_sd_BIOSOLVEIT.LOGP>  (1235) 
2.5116000000000001

>  <r_sd_BIOSOLVEIT.MOLECULAR\_WEIGHT>  (1235) 
441.57600000000002

>  <r_sd_BIOSOLVEIT.TPSA>  (1235) 
77.310000000000002

>  <i_epik_Tot_Q>  (1235) 
2

>  <i_epik_Tot_abs_Q>  (1235) 
2

>  <i_f3d_flags>  (1235) 
0

>  <i_i_glide_confnum>  (1235) 
10

>  <i_i_glide_lignum>  (1235) 
1319

>  <i_i_glide_posenum>  (1235) 
3

>  <i_i_glide_rotatable_bonds>  (1235) 
9

>  <i_lp_mmshare_version>  (1235) 
65135

>  <i_m_ct_format>  (1235) 
2

>  <i_m_source_file_index>  (1235) 
2732

>  <i_qp_#NandO>  (1235) 
6

>  <i_qp_#acid>  (1235) 
0

>  <i_qp_#amide>  (1235) 
0

>  <i_qp_#amidine>  (1235) 
0

>  <i_qp_#amine>  (1235) 
2

>  <i_qp_#in34>  (1235) 
0

>  <i_qp_#in56>  (1235) 
22

>  <i_qp_#metab>  (1235) 
8

>  <i_qp_#nonHatm>  (1235) 
33

>  <i_qp_#noncon>  (1235) 
0

>  <i_qp_#ringatoms>  (1235) 
22

>  <i_qp_#rotor>  (1235) 
9

>  <i_qp_#rtvFG>  (1235) 
0

>  <i_qp_#stars>  (1235) 
1

>  <i_qp_CNS>  (1235) 
0

>  <i_qp_HumanOralAbsorption>  (1235) 
2

>  <i_qp_RuleOfFive>  (1235) 
0

>  <i_qp_RuleOfThree>  (1235) 
1

>  <i_sd_BIOSOLVEIT.INFINISEE\_RESULT\_RANK>  (1235) 
56139

>  <i_sd_version>  (1235) 
0

>  <b_lp_Chiralities_Consistent>  (1235) 
1

>  <b_sd_chiral_flag>  (1235) 
0

>  <canonical_id>  (1235) 
ATP-HTVS-C3768FC48E4A

>  <compound_code>  (1235) 
87394

>  <title>  (1235) 
rxn502b____EMOL5415347____EMOL13728749____EMOL530647

>  <variant>  (1235) 
87394-1

>  <source_file>  (1235) 
运行/运行/ATP-VSW/ATP-VSW-DOCK_HTVS_1-002_lib.maegz

>  <canonical_smiles>  (1235) 
C[NH+](C)Cc1ccccc1C(=O)Nc1c(N(CC[NH3+])c2ccccc2)cnc2ccccc12

>  <scaffold>  (1235) 
O=C(Nc1c(Nc2ccccc2)cnc2ccccc12)c1ccccc1

>  <molecular_formula>  (1235) 
C27H31N5O+2

$$$$
ATP-HTVS-C384A8554A98
     RDKit          3D

 60 63  0  0  0  0  0  0  0  0999 V2000
  198.5184  182.4312  156.8342 O   0  0  0  0  0  0  0  0  0  0  0  0
  197.2948  182.2963  156.7979 C   0  0  0  0  0  0  0  0  0  0  0  0
  196.5840  182.4229  155.6671 N   0  0  0  0  0  0  0  0  0  0  0  0
  197.0921  182.7337  154.3745 C   0  0  0  0  0  0  0  0  0  0  0  0
  197.8362  183.9151  154.0963 C   0  0  0  0  0  0  0  0  0  0  0  0
  198.1091  184.8309  155.1278 N   0  0  0  0  0  0  0  0  0  0  0  0
  197.4005  186.1007  155.0122 C   0  0  1  0  0  0  0  0  0  0  0  0
  197.5388  186.9791  156.2482 C   0  0  0  0  0  0  0  0  0  0  0  0
  196.7064  186.7456  157.3699 C   0  0  0  0  0  0  0  0  0  0  0  0
  196.7161  187.6142  158.4690 C   0  0  0  0  0  0  0  0  0  0  0  0
  197.6465  188.6653  158.5010 C   0  0  0  0  0  0  0  0  0  0  0  0
  197.6275  189.4549  159.6547 N   0  0  0  0  0  0  0  0  0  0  0  0
  198.3720  190.6882  159.7687 C   0  0  1  0  0  0  0  0  0  0  0  0
  197.7944  191.7574  158.8328 C   0  0  1  0  0  0  0  0  0  0  0  0
  198.5278  192.9498  158.9870 O   0  0  0  0  0  0  0  0  0  0  0  0
  198.5357  188.8883  157.4011 C   0  0  0  0  0  0  0  0  0  0  0  0
  198.4584  188.0597  156.2585 C   0  0  0  0  0  0  0  0  0  0  0  0
  198.2644  184.1627  152.7617 C   0  0  0  0  0  0  0  0  0  0  0  0
  197.9064  183.2420  151.7418 C   0  0  0  0  0  0  0  0  0  0  0  0
  197.1812  182.1488  152.0640 N   0  0  0  0  0  0  0  0  0  0  0  0
  196.7649  181.8702  153.3157 C   0  0  0  0  0  0  0  0  0  0  0  0
  198.3197  183.4493  150.4069 C   0  0  0  0  0  0  0  0  0  0  0  0
  199.0941  184.5802  150.0763 C   0  0  0  0  0  0  0  0  0  0  0  0
  199.4569  185.4965  151.0807 C   0  0  0  0  0  0  0  0  0  0  0  0
  199.0613  185.2811  152.4117 C   0  0  0  0  0  0  0  0  0  0  0  0
  196.5219  181.9672  158.0796 C   0  0  1  0  0  0  0  0  0  0  0  0
  196.1174  183.2106  158.8613 C   0  0  0  0  0  0  0  0  0  0  0  0
  194.7559  183.5237  159.0323 C   0  0  0  0  0  0  0  0  0  0  0  0
  194.3741  184.6411  159.7909 C   0  0  0  0  0  0  0  0  0  0  0  0
  195.3556  185.4482  160.3905 C   0  0  0  0  0  0  0  0  0  0  0  0
  194.9846  186.5169  161.1604 O   0  0  0  0  0  0  0  0  0  0  0  0
  196.7239  185.1670  160.1784 C   0  0  0  0  0  0  0  0  0  0  0  0
  197.1015  184.0436  159.4351 C   0  0  0  0  0  0  0  0  0  0  0  0
  195.5802  182.2846  155.7291 H   0  0  0  0  0  0  0  0  0  0  0  0
  198.0051  184.3991  156.0382 H   0  0  0  0  0  0  0  0  0  0  0  0
  197.7670  186.6912  154.1726 H   0  0  0  0  0  0  0  0  0  0  0  0
  196.3469  185.9137  154.8199 H   0  0  0  0  0  0  0  0  0  0  0  0
  196.0410  185.8935  157.3636 H   0  0  0  0  0  0  0  0  0  0  0  0
  196.0108  187.4859  159.2814 H   0  0  0  0  0  0  0  0  0  0  0  0
  196.9204  189.2798  160.3473 H   0  0  0  0  0  0  0  0  0  0  0  0
  198.3132  191.0225  160.8065 H   0  0  0  0  0  0  0  0  0  0  0  0
  199.4200  190.4777  159.5706 H   0  0  0  0  0  0  0  0  0  0  0  0
  197.8310  191.4515  157.7862 H   0  0  0  0  0  0  0  0  0  0  0  0
  196.7466  191.9386  159.0648 H   0  0  0  0  0  0  0  0  0  0  0  0
  199.4369  192.7565  158.8161 H   0  0  0  0  0  0  0  0  0  0  0  0
  199.2550  189.7060  157.4023 H   0  0  0  0  0  0  0  0  0  0  0  0
  199.0734  188.2596  155.3939 H   0  0  0  0  0  0  0  0  0  0  0  0
  196.1825  180.9715  153.4495 H   0  0  0  0  0  0  0  0  0  0  0  0
  198.0711  182.7438  149.6283 H   0  0  0  0  0  0  0  0  0  0  0  0
  199.4253  184.7385  149.0588 H   0  0  0  0  0  0  0  0  0  0  0  0
  200.0631  186.3576  150.8353 H   0  0  0  0  0  0  0  0  0  0  0  0
  199.4093  185.9769  153.1599 H   0  0  0  0  0  0  0  0  0  0  0  0
  195.6122  181.4304  157.8329 H   0  0  0  0  0  0  0  0  0  0  0  0
  197.1293  181.3397  158.7231 H   0  0  0  0  0  0  0  0  0  0  0  0
  193.9903  182.9178  158.5661 H   0  0  0  0  0  0  0  0  0  0  0  0
  193.3339  184.9048  159.8904 H   0  0  0  0  0  0  0  0  0  0  0  0
  195.6691  187.1731  161.2423 H   0  0  0  0  0  0  0  0  0  0  0  0
  197.4821  185.7943  160.6239 H   0  0  0  0  0  0  0  0  0  0  0  0
  198.1516  183.8383  159.2931 H   0  0  0  0  0  0  0  0  0  0  0  0
  196.9436  181.4916  151.3237 H   0  0  0  0  0  0  0  0  0  0  0  0
  1  2  2  0
  2  3  1  0
  2 26  1  0
  3  4  1  0
  3 34  1  0
  4  5  2  0
  4 21  1  0
  5  6  1  0
  5 18  1  0
  6  7  1  0
  6 35  1  0
  7  8  1  0
  7 36  1  6
  7 37  1  0
  8  9  1  0
  8 17  2  0
  9 10  2  0
  9 38  1  0
 10 11  1  0
 10 39  1  0
 11 12  1  0
 11 16  2  0
 12 13  1  0
 12 40  1  0
 13 14  1  0
 13 41  1  1
 13 42  1  0
 14 15  1  0
 14 43  1  6
 14 44  1  0
 15 45  1  0
 16 17  1  0
 16 46  1  0
 17 47  1  0
 18 19  1  0
 18 25  2  0
 19 20  1  0
 19 22  2  0
 20 21  2  0
 20 60  1  0
 21 48  1  0
 22 23  1  0
 22 49  1  0
 23 24  2  0
 23 50  1  0
 24 25  1  0
 24 51  1  0
 25 52  1  0
 26 27  1  0
 26 53  1  6
 26 54  1  0
 27 28  1  0
 27 33  2  0
 28 29  2  0
 28 55  1  0
 29 30  1  0
 29 56  1  0
 30 31  1  0
 30 32  2  0
 31 57  1  0
 32 33  1  0
 32 58  1  0
 33 59  1  0
M  CHG  1  20   1
M  END
>  <s_epik_cmdline>  (1236) 
J2VwaWtfcHl0aG9uJywgJy1waCcsICc3LjAwMDAwMCcsICctcGh0JywgJzIuMDAwMDAwJywgJy1tcycsICcxNicsICctdG4nLCAnOCcsICctbWEnLCAnMjAwJywgJy1pbWFlJywgJzxpbmZpbGUubWFlPicsICctb21hZScsICc8b3V0ZmlsZS5tYWU+Jw==

>  <s_epik_input>  (1236) 
W2NIXTFbY0hdYyhbT0hdKVtjSF1bY0hdYzFbQ0gyXUMoPU8pW05IXWMoW2NIXW5jKGMyMylbY0hdW2NIXVtjSF1bY0hdMyljMltOSF1bQ0gyXWM0W2NIXVtjSF1jKFtjSF1bY0hdNClbTkhdW0NIMl1bQ0gyXVtPSF0=

>  <s_i_glide_gridfile>  (1236) 
ATP-Grid

>  <s_lp_Force_Field>  (1236) 
OPLS_2005

>  <s_lp_Variant>  (1236) 
rxn502b____EMOL521529____EMOL30488121____EMOL324170366-1

>  <s_lp_label>  (1236) 
2387_sdstereoexpander_1_neutralizer_1_epik_1_stereoizer_1

>  <s_m_source_file>  (1236) 
ATP-VSW-LIGPREP-002-in.maegz

>  <s_sd_BIOSOLVEIT.INFINISEE\_QUERY\_NAME>  (1236) 
Ref-Lig

>  <s_sd_BIOSOLVEIT.INFINISEE\_QUERY\_SMILES>  (1236) 
S(c1nc2c(cc1C[NH2+]Cc3ccc(cc3)C[NH+](C)C)cccc2)Cc4ccccc4

>  <s_sd_BIOSOLVEIT.INFINISEE\_REACTION\_NAME>  (1236) 
rxn502b

>  <s_sd_BIOSOLVEIT.INFINISEE\_REAGENT1\_NAME>  (1236) 
EMOL521529

>  <s_sd_BIOSOLVEIT.INFINISEE\_REAGENT1\_SMILES>  (1236) 
O=C(O)Cc1ccc(O)cc1

>  <s_sd_BIOSOLVEIT.INFINISEE\_REAGENT2\_NAME>  (1236) 
EMOL30488121

>  <s_sd_BIOSOLVEIT.INFINISEE\_REAGENT2\_SMILES>  (1236) 
Brc1c(N)cnc2c1cccc2

>  <s_sd_BIOSOLVEIT.INFINISEE\_REAGENT3\_NAME>  (1236) 
EMOL324170366

>  <s_sd_BIOSOLVEIT.INFINISEE\_REAGENT3\_SMILES>  (1236) 
OCCNc1ccc(cc1)CN

>  <s_sd_BIOSOLVEIT.INFINISEE\_SPACE>  (1236) 
eXplore_7tr_2022-12

>  <s_vsw_compound_code>  (1236) 
76354

>  <s_vsw_variant>  (1236) 
76354-1

>  <r_epik_Charging_Adjusted_Penalty>  (1236) 
0.067804748639596304

>  <r_epik_Ionization_Penalty>  (1236) 
0.041399999999999999

>  <r_epik_Ionization_Penalty_Charging>  (1236) 
0.028299999999999999

>  <r_epik_Ionization_Penalty_Neutral>  (1236) 
0.013100000000000001

>  <r_epik_State_Penalty>  (1236) 
0.0395

>  <r_i_docking_score>  (1236) 
-4.4830582838781297

>  <r_i_glide_ecoul>  (1236) 
-8.4155921936035192

>  <r_i_glide_eff_state_penalty>  (1236) 
0.0395

>  <r_i_glide_einternal>  (1236) 
5.1398239135742196

>  <r_i_glide_emodel>  (1236) 
-58.134929745981601

>  <r_i_glide_energy>  (1236) 
-44.843952178955099

>  <r_i_glide_erotb>  (1236) 
1.0163461575561601

>  <r_i_glide_esite>  (1236) 
-0.14918649183072899

>  <r_i_glide_evdw>  (1236) 
-36.428359985351598

>  <r_i_glide_gscore>  (1236) 
-4.5225582838781397

>  <r_i_glide_hbond>  (1236) 
-0.16

>  <r_i_glide_ligand_efficiency>  (1236) 
-0.13585025102661

>  <r_i_glide_ligand_efficiency_ln>  (1236) 
-0.99700895030098502

>  <r_i_glide_ligand_efficiency_sa>  (1236) 
-0.43574434339854201

>  <r_i_glide_lipo>  (1236) 
-1.76085371220456

>  <r_i_glide_metal>  (1236) 
-0

>  <r_i_glide_rewards>  (1236) 
-0.38510740909090801

>  <r_lp_Energy>  (1236) 
29.054447

>  <r_lp_tautomer_probability>  (1236) 
0.999999999997365

>  <r_qp_ACxDN^.5/SA>  (1236) 
0.025595400000000001

>  <r_qp_CIQPlogS>  (1236) 
-6.0570000000000004

>  <r_qp_EA(eV)>  (1236) 
0.93100000000000005

>  <r_qp_FISA>  (1236) 
178.34800000000001

>  <r_qp_FOSA>  (1236) 
109.34999999999999

>  <r_qp_IP(eV)>  (1236) 
8.3469999999999995

>  <r_qp_Jm>  (1236) 
0.22548501654255701

>  <r_qp_PISA>  (1236) 
406.83100000000002

>  <r_qp_PSA>  (1236) 
113.196

>  <r_qp_PercentHumanOralAbsorption>  (1236) 
85.290000000000006

>  <r_qp_QPPCaco>  (1236) 
201.66300000000001

>  <r_qp_QPPMDCK>  (1236) 
87.646000000000001

>  <r_qp_QPlogBB>  (1236) 
-1.7909999999999999

>  <r_qp_QPlogHERG>  (1236) 
-6.0880000000000001

>  <r_qp_QPlogKhsa>  (1236) 
0.044999999999999998

>  <r_qp_QPlogKp>  (1236) 
-2.3170000000000002

>  <r_qp_QPlogPC16>  (1236) 
15.721

>  <r_qp_QPlogPo/w>  (1236) 
2.9199999999999999

>  <r_qp_QPlogPoct>  (1236) 
26.905000000000001

>  <r_qp_QPlogPw>  (1236) 
18.097999999999999

>  <r_qp_QPlogS>  (1236) 
-3.976

>  <r_qp_QPpolrz>  (1236) 
43.536000000000001

>  <r_qp_SASA>  (1236) 
694.529

>  <r_qp_SAamideO>  (1236) 
0

>  <r_qp_SAfluorine>  (1236) 
0

>  <r_qp_WPSA>  (1236) 
0

>  <r_qp_accptHB>  (1236) 
7.9500000000000002

>  <r_qp_dip^2/V>  (1236) 
0.038933500000000003

>  <r_qp_dipole>  (1236) 
7.1719999999999997

>  <r_qp_donorHB>  (1236) 
5

>  <r_qp_glob>  (1236) 
0.83833089999999999

>  <r_qp_mol_MW>  (1236) 
442.51600000000002

>  <r_qp_volume>  (1236) 
1321.0239999999999

>  <r_sd_BIOSOLVEIT.INFINISEE\_FTREES\_SIMILARITY>  (1236) 
0.91900000000000004

>  <r_sd_BIOSOLVEIT.LOGP>  (1236) 
4.1379000000000001

>  <r_sd_BIOSOLVEIT.MOLECULAR\_WEIGHT>  (1236) 
442.51600000000002

>  <r_sd_BIOSOLVEIT.TPSA>  (1236) 
106.51000000000001

>  <i_epik_Tot_Q>  (1236) 
1

>  <i_epik_Tot_abs_Q>  (1236) 
1

>  <i_f3d_flags>  (1236) 
0

>  <i_i_glide_confnum>  (1236) 
3

>  <i_i_glide_lignum>  (1236) 
992

>  <i_i_glide_posenum>  (1236) 
17

>  <i_i_glide_rotatable_bonds>  (1236) 
12

>  <i_lp_mmshare_version>  (1236) 
65135

>  <i_m_ct_format>  (1236) 
2

>  <i_m_source_file_index>  (1236) 
2387

>  <i_qp_#NandO>  (1236) 
7

>  <i_qp_#acid>  (1236) 
0

>  <i_qp_#amide>  (1236) 
0

>  <i_qp_#amidine>  (1236) 
0

>  <i_qp_#amine>  (1236) 
0

>  <i_qp_#in34>  (1236) 
0

>  <i_qp_#in56>  (1236) 
22

>  <i_qp_#metab>  (1236) 
9

>  <i_qp_#nonHatm>  (1236) 
33

>  <i_qp_#noncon>  (1236) 
0

>  <i_qp_#ringatoms>  (1236) 
22

>  <i_qp_#rotor>  (1236) 
11

>  <i_qp_#rtvFG>  (1236) 
0

>  <i_qp_#stars>  (1236) 
1

>  <i_qp_CNS>  (1236) 
-2

>  <i_qp_HumanOralAbsorption>  (1236) 
3

>  <i_qp_RuleOfFive>  (1236) 
0

>  <i_qp_RuleOfThree>  (1236) 
1

>  <i_sd_BIOSOLVEIT.INFINISEE\_RESULT\_RANK>  (1236) 
19010

>  <i_sd_version>  (1236) 
0

>  <b_lp_Chiralities_Consistent>  (1236) 
1

>  <b_sd_chiral_flag>  (1236) 
0

>  <canonical_id>  (1236) 
ATP-HTVS-C384A8554A98

>  <compound_code>  (1236) 
76354

>  <title>  (1236) 
rxn502b____EMOL521529____EMOL30488121____EMOL324170366

>  <variant>  (1236) 
76354-1

>  <source_file>  (1236) 
运行/运行/ATP-VSW/ATP-VSW-DOCK_HTVS_1-002_lib.maegz

>  <canonical_smiles>  (1236) 
O=C(Cc1ccc(O)cc1)Nc1c[nH+]c2ccccc2c1NCc1ccc(NCCO)cc1

>  <scaffold>  (1236) 
O=C(Cc1ccccc1)Nc1c[nH+]c2ccccc2c1NCc1ccccc1

>  <molecular_formula>  (1236) 
C26H27N4O3+

$$$$
ATP-HTVS-C39BEF6539AB
     RDKit          3D

 51 54  0  0  0  0  0  0  0  0999 V2000
  200.2245  184.0858  159.1849 F   0  0  0  0  0  0  0  0  0  0  0  0
  200.1803  183.6802  157.8928 C   0  0  0  0  0  0  0  0  0  0  0  0
  199.0142  183.0582  157.3948 C   0  0  0  0  0  0  0  0  0  0  0  0
  197.9836  182.8485  158.2351 N   0  0  0  0  0  0  0  0  0  0  0  0
  196.8268  182.3396  157.7637 C   0  0  0  0  0  0  0  0  0  0  0  0
  196.6669  181.9515  156.4280 C   0  0  0  0  0  0  0  0  0  0  0  0
  197.7449  182.1145  155.5345 C   0  0  0  0  0  0  0  0  0  0  0  0
  198.9509  182.6953  156.0178 C   0  0  0  0  0  0  0  0  0  0  0  0
  200.0833  182.9163  155.1903 C   0  0  0  0  0  0  0  0  0  0  0  0
  201.2500  183.5083  155.7153 C   0  0  0  0  0  0  0  0  0  0  0  0
  201.2940  183.9034  157.0655 C   0  0  0  0  0  0  0  0  0  0  0  0
  197.5860  181.6876  154.1012 C   0  0  0  0  0  0  0  0  0  0  0  0
  197.5401  182.5583  153.2291 O   0  0  0  0  0  0  0  0  0  0  0  0
  197.5394  180.3481  153.8501 N   0  0  0  0  0  0  0  0  0  0  0  0
  197.4438  179.8614  152.5077 C   0  0  0  0  0  0  0  0  0  0  0  0
  196.4248  180.3249  151.6429 C   0  0  0  0  0  0  0  0  0  0  0  0
  196.3348  179.8441  150.3243 C   0  0  0  0  0  0  0  0  0  0  0  0
  197.2533  178.8873  149.8550 C   0  0  0  0  0  0  0  0  0  0  0  0
  198.2713  178.4186  150.7056 C   0  0  0  0  0  0  0  0  0  0  0  0
  198.3706  178.9065  152.0228 C   0  0  0  0  0  0  0  0  0  0  0  0
  197.6822  179.3521  154.9294 C   0  0  2  0  0  0  0  0  0  0  0  0
  195.6689  182.2503  158.7524 C   0  0  1  0  0  0  0  0  0  0  0  0
  195.2361  183.6260  159.2829 C   0  0  0  0  0  0  0  0  0  0  0  0
  194.0377  183.8983  159.3360 O   0  0  0  0  0  0  0  0  0  0  0  0
  196.2185  184.4559  159.6700 N   0  0  0  0  0  0  0  0  0  0  0  0
  196.1087  185.7981  160.0915 C   0  0  0  0  0  0  0  0  0  0  0  0
  195.0498  186.2198  160.9251 C   0  0  0  0  0  0  0  0  0  0  0  0
  194.9643  187.5549  161.3364 C   0  0  0  0  0  0  0  0  0  0  0  0
  195.9487  188.4836  160.9406 C   0  0  0  0  0  0  0  0  0  0  0  0
  197.0156  188.0676  160.1206 C   0  0  0  0  0  0  0  0  0  0  0  0
  197.1024  186.7215  159.7076 C   0  0  0  0  0  0  0  0  0  0  0  0
  195.7169  181.5511  156.0950 H   0  0  0  0  0  0  0  0  0  0  0  0
  200.0833  182.6312  154.1471 H   0  0  0  0  0  0  0  0  0  0  0  0
  202.1169  183.6564  155.0878 H   0  0  0  0  0  0  0  0  0  0  0  0
  202.1795  184.3662  157.4781 H   0  0  0  0  0  0  0  0  0  0  0  0
  195.7065  181.0540  151.9911 H   0  0  0  0  0  0  0  0  0  0  0  0
  195.5436  180.2001  149.6842 H   0  0  0  0  0  0  0  0  0  0  0  0
  197.1715  178.5080  148.8461 H   0  0  0  0  0  0  0  0  0  0  0  0
  198.9676  177.6738  150.3512 H   0  0  0  0  0  0  0  0  0  0  0  0
  199.1668  178.5394  152.6551 H   0  0  0  0  0  0  0  0  0  0  0  0
  197.9530  178.3594  154.5727 H   0  0  0  0  0  0  0  0  0  0  0  0
  196.7347  179.2403  155.4599 H   0  0  0  0  0  0  0  0  0  0  0  0
  198.4464  179.6228  155.6610 H   0  0  0  0  0  0  0  0  0  0  0  0
  194.8121  181.7855  158.2623 H   0  0  0  0  0  0  0  0  0  0  0  0
  195.9559  181.5995  159.5813 H   0  0  0  0  0  0  0  0  0  0  0  0
  197.1592  184.1221  159.4484 H   0  0  0  0  0  0  0  0  0  0  0  0
  194.2986  185.5251  161.2706 H   0  0  0  0  0  0  0  0  0  0  0  0
  194.1568  187.8573  161.9828 H   0  0  0  0  0  0  0  0  0  0  0  0
  195.8860  189.5078  161.2762 H   0  0  0  0  0  0  0  0  0  0  0  0
  197.7777  188.7837  159.8354 H   0  0  0  0  0  0  0  0  0  0  0  0
  197.9281  186.3975  159.0851 H   0  0  0  0  0  0  0  0  0  0  0  0
  1  2  1  0
  2  3  2  0
  2 11  1  0
  3  4  1  0
  3  8  1  0
  4  5  2  0
  5  6  1  0
  5 22  1  0
  6  7  2  0
  6 32  1  0
  7  8  1  0
  7 12  1  0
  8  9  2  0
  9 10  1  0
  9 33  1  0
 10 11  2  0
 10 34  1  0
 11 35  1  0
 12 13  2  0
 12 14  1  0
 14 15  1  0
 14 21  1  0
 15 16  2  0
 15 20  1  0
 16 17  1  0
 16 36  1  0
 17 18  2  0
 17 37  1  0
 18 19  1  0
 18 38  1  0
 19 20  2  0
 19 39  1  0
 20 40  1  0
 21 41  1  6
 21 42  1  0
 21 43  1  0
 22 23  1  0
 22 44  1  6
 22 45  1  0
 23 24  2  0
 23 25  1  0
 25 26  1  0
 25 46  1  0
 26 27  2  0
 26 31  1  0
 27 28  1  0
 27 47  1  0
 28 29  2  0
 28 48  1  0
 29 30  1  0
 29 49  1  0
 30 31  2  0
 30 50  1  0
 31 51  1  0
M  END
>  <s_epik_cmdline>  (1237) 
J2VwaWtfcHl0aG9uJywgJy1waCcsICc3LjAwMDAwMCcsICctcGh0JywgJzIuMDAwMDAwJywgJy1tcycsICcxNicsICctdG4nLCAnOCcsICctbWEnLCAnMjAwJywgJy1pbWFlJywgJzxpbmZpbGUubWFlPicsICctb21hZScsICc8b3V0ZmlsZS5tYWU+Jw==

>  <s_epik_input>  (1237) 
W2NIXTFbY0hdW2NIXVtjSF1bY0hdYzFOKFtDSDNdKUMoPU8pYyhjKGMyMylbY0hdW2NIXVtjSF1jMkYpW2NIXWMobjMpW0NIMl1DKD1PKVtOSF1jNFtjSF1bY0hdW2NIXVtjSF1bY0hdNA==

>  <s_i_glide_gridfile>  (1237) 
ATP-Grid

>  <s_lp_Force_Field>  (1237) 
OPLS_2005

>  <s_lp_Variant>  (1237) 
YAS_R016____OTV2825775____OTV999670____OTV2848234-1

>  <s_lp_label>  (1237) 
137_sdstereoexpander_1_neutralizer_1_epik_1_stereoizer_1

>  <s_m_source_file>  (1237) 
ATP-VSW-LIGPREP-003-in.maegz

>  <s_sd_BIOSOLVEIT.INFINISEE\_QUERY\_NAME>  (1237) 
Ref-Lig

>  <s_sd_BIOSOLVEIT.INFINISEE\_QUERY\_SMILES>  (1237) 
S(c1nc2c(cc1C[NH2+]Cc3ccc(cc3)C[NH+](C)C)cccc2)Cc4ccccc4

>  <s_sd_BIOSOLVEIT.INFINISEE\_REACTION\_NAME>  (1237) 
YAS_R016

>  <s_sd_BIOSOLVEIT.INFINISEE\_REAGENT1\_NAME>  (1237) 
OTV2825775

>  <s_sd_BIOSOLVEIT.INFINISEE\_REAGENT1\_SMILES>  (1237) 
Fc1c(N)cccc1

>  <s_sd_BIOSOLVEIT.INFINISEE\_REAGENT2\_NAME>  (1237) 
OTV999670

>  <s_sd_BIOSOLVEIT.INFINISEE\_REAGENT2\_SMILES>  (1237) 
N(c1ccccc1)C

>  <s_sd_BIOSOLVEIT.INFINISEE\_REAGENT3\_NAME>  (1237) 
OTV2848234

>  <s_sd_BIOSOLVEIT.INFINISEE\_REAGENT3\_SMILES>  (1237) 
O=C(Nc1ccccc1)CC(=O)C

>  <s_sd_BIOSOLVEIT.INFINISEE\_SPACE>  (1237) 
CHEMriya_12bn_2022-01

>  <s_vsw_compound_code>  (1237) 
4355

>  <s_vsw_variant>  (1237) 
4355-1

>  <r_epik_Charging_Adjusted_Penalty>  (1237) 
0

>  <r_epik_Ionization_Penalty>  (1237) 
0.0001

>  <r_epik_Ionization_Penalty_Charging>  (1237) 
0

>  <r_epik_Ionization_Penalty_Neutral>  (1237) 
0.0001

>  <r_epik_State_Penalty>  (1237) 
-0

>  <r_i_docking_score>  (1237) 
-4.3168515624732802

>  <r_i_glide_ecoul>  (1237) 
-2.3364100456237802

>  <r_i_glide_eff_state_penalty>  (1237) 
-0

>  <r_i_glide_einternal>  (1237) 
6.9609408378601101

>  <r_i_glide_emodel>  (1237) 
-48.507141565292102

>  <r_i_glide_energy>  (1237) 
-40.748145580291698

>  <r_i_glide_erotb>  (1237) 
0.69248171558830895

>  <r_i_glide_esite>  (1237) 
-0.030034052704836701

>  <r_i_glide_evdw>  (1237) 
-38.411735534667997

>  <r_i_glide_gscore>  (1237) 
-4.3168515624732802

>  <r_i_glide_hbond>  (1237) 
0

>  <r_i_glide_ligand_efficiency>  (1237) 
-0.139253276208816

>  <r_i_glide_ligand_efficiency_ln>  (1237) 
-0.97358232295001201

>  <r_i_glide_ligand_efficiency_sa>  (1237) 
-0.437447547163758

>  <r_i_glide_lipo>  (1237) 
-1.73801467903998

>  <r_i_glide_metal>  (1237) 
-0

>  <r_i_glide_rewards>  (1237) 
-0.97023626273980201

>  <r_lp_Energy>  (1237) 
53.895989999999998

>  <r_lp_tautomer_probability>  (1237) 
1

>  <r_qp_ACxDN^.5/SA>  (1237) 
0.0088591999999999994

>  <r_qp_CIQPlogS>  (1237) 
-6.3369999999999997

>  <r_qp_EA(eV)>  (1237) 
1.478

>  <r_qp_FISA>  (1237) 
78.073999999999998

>  <r_qp_FOSA>  (1237) 
97.923000000000002

>  <r_qp_IP(eV)>  (1237) 
8.7780000000000005

>  <r_qp_Jm>  (1237) 
0.0258783079867917

>  <r_qp_PISA>  (1237) 
519.34400000000005

>  <r_qp_PSA>  (1237) 
71.730000000000004

>  <r_qp_PercentHumanOralAbsorption>  (1237) 
100

>  <r_qp_QPPCaco>  (1237) 
1801.0550000000001

>  <r_qp_QPPMDCK>  (1237) 
1515.9590000000001

>  <r_qp_QPlogBB>  (1237) 
-0.48099999999999998

>  <r_qp_QPlogHERG>  (1237) 
-7.4349999999999996

>  <r_qp_QPlogKhsa>  (1237) 
0.66300000000000003

>  <r_qp_QPlogKp>  (1237) 
-0.64900000000000002

>  <r_qp_QPlogPC16>  (1237) 
14.640000000000001

>  <r_qp_QPlogPo/w>  (1237) 
4.9690000000000003

>  <r_qp_QPlogPoct>  (1237) 
21.628

>  <r_qp_QPlogPw>  (1237) 
12.326000000000001

>  <r_qp_QPlogS>  (1237) 
-6.5549999999999997

>  <r_qp_QPpolrz>  (1237) 
47.933

>  <r_qp_SASA>  (1237) 
733.702

>  <r_qp_SAamideO>  (1237) 
0

>  <r_qp_SAfluorine>  (1237) 
38.360999999999997

>  <r_qp_WPSA>  (1237) 
38.360999999999997

>  <r_qp_accptHB>  (1237) 
6.5

>  <r_qp_dip^2/V>  (1237) 
0.033761800000000002

>  <r_qp_dipole>  (1237) 
6.6449999999999996

>  <r_qp_donorHB>  (1237) 
1

>  <r_qp_glob>  (1237) 
0.78825940000000005

>  <r_qp_mol_MW>  (1237) 
413.44999999999999

>  <r_qp_volume>  (1237) 
1307.7829999999999

>  <r_sd_BIOSOLVEIT.INFINISEE\_FTREES\_SIMILARITY>  (1237) 
0.90400000000000003

>  <r_sd_BIOSOLVEIT.LOGP>  (1237) 
4.8316999999999997

>  <r_sd_BIOSOLVEIT.MOLECULAR\_WEIGHT>  (1237) 
413.44999999999999

>  <r_sd_BIOSOLVEIT.TPSA>  (1237) 
62.299999999999997

>  <i_epik_Tot_Q>  (1237) 
0

>  <i_epik_Tot_abs_Q>  (1237) 
0

>  <i_f3d_flags>  (1237) 
0

>  <i_i_glide_confnum>  (1237) 
4

>  <i_i_glide_lignum>  (1237) 
185

>  <i_i_glide_posenum>  (1237) 
10

>  <i_i_glide_rotatable_bonds>  (1237) 
7

>  <i_lp_mmshare_version>  (1237) 
65135

>  <i_m_ct_format>  (1237) 
2

>  <i_m_source_file_index>  (1237) 
137

>  <i_qp_#NandO>  (1237) 
5

>  <i_qp_#acid>  (1237) 
0

>  <i_qp_#amide>  (1237) 
0

>  <i_qp_#amidine>  (1237) 
0

>  <i_qp_#amine>  (1237) 
0

>  <i_qp_#in34>  (1237) 
0

>  <i_qp_#in56>  (1237) 
22

>  <i_qp_#metab>  (1237) 
3

>  <i_qp_#nonHatm>  (1237) 
31

>  <i_qp_#noncon>  (1237) 
0

>  <i_qp_#ringatoms>  (1237) 
22

>  <i_qp_#rotor>  (1237) 
5

>  <i_qp_#rtvFG>  (1237) 
0

>  <i_qp_#stars>  (1237) 
2

>  <i_qp_CNS>  (1237) 
0

>  <i_qp_HumanOralAbsorption>  (1237) 
1

>  <i_qp_RuleOfFive>  (1237) 
0

>  <i_qp_RuleOfThree>  (1237) 
1

>  <i_sd_BIOSOLVEIT.INFINISEE\_RESULT\_RANK>  (1237) 
78006

>  <i_sd_version>  (1237) 
0

>  <b_lp_Chiralities_Consistent>  (1237) 
1

>  <b_sd_chiral_flag>  (1237) 
0

>  <canonical_id>  (1237) 
ATP-HTVS-C39BEF6539AB

>  <compound_code>  (1237) 
4355

>  <title>  (1237) 
YAS_R016____OTV2825775____OTV999670____OTV2848234

>  <variant>  (1237) 
4355-1

>  <source_file>  (1237) 
运行/运行/ATP-VSW/ATP-VSW-DOCK_HTVS_1-003_lib/ATP-VSW-DOCK_HTVS_1-003_lib.mae

>  <canonical_smiles>  (1237) 
CN(C(=O)c1cc(CC(=O)Nc2ccccc2)nc2c(F)cccc12)c1ccccc1

>  <scaffold>  (1237) 
O=C(Cc1cc(C(=O)Nc2ccccc2)c2ccccc2n1)Nc1ccccc1

>  <molecular_formula>  (1237) 
C25H20FN3O2

$$$$
ATP-HTVS-C3A30B83BBDA
     RDKit          3D

 67 71  0  0  0  0  0  0  0  0999 V2000
  196.5860  180.8711  155.2552 O   0  0  0  0  0  0  0  0  0  0  0  0
  197.6312  180.8881  155.9052 C   0  0  0  0  0  0  0  0  0  0  0  0
  197.8474  181.6837  156.9664 N   0  0  0  0  0  0  0  0  0  0  0  0
  196.9035  182.4613  157.6862 C   0  0  0  0  0  0  0  0  0  0  0  0
  197.3227  183.6367  158.3656 C   0  0  0  0  0  0  0  0  0  0  0  0
  198.6636  184.0818  158.3289 N   0  0  0  0  0  0  0  0  0  0  0  0
  199.0835  184.8488  157.1509 C   0  0  1  0  0  0  0  0  0  0  0  0
  198.1254  185.9248  156.8254 C   0  0  0  0  0  0  0  0  0  0  0  0
  197.3723  186.7669  156.5727 N   0  0  0  0  0  0  0  0  0  0  0  0
  200.4852  185.4304  157.2920 C   0  0  0  0  0  0  0  0  0  0  0  0
  201.4458  185.2078  156.2866 C   0  0  0  0  0  0  0  0  0  0  0  0
  202.7616  185.6849  156.4466 C   0  0  0  0  0  0  0  0  0  0  0  0
  203.1233  186.3867  157.6127 C   0  0  0  0  0  0  0  0  0  0  0  0
  202.1657  186.6200  158.6175 C   0  0  0  0  0  0  0  0  0  0  0  0
  200.8480  186.1560  158.4529 C   0  0  0  0  0  0  0  0  0  0  0  0
  199.6277  183.2027  158.9822 C   0  0  2  0  0  0  0  0  0  0  0  0
  196.3619  184.3734  159.1114 C   0  0  0  0  0  0  0  0  0  0  0  0
  195.0215  183.9107  159.1630 C   0  0  0  0  0  0  0  0  0  0  0  0
  194.6839  182.7697  158.5305 N   0  0  0  0  0  0  0  0  0  0  0  0
  195.5555  182.0457  157.8047 C   0  0  0  0  0  0  0  0  0  0  0  0
  194.0466  184.6374  159.8656 C   0  0  0  0  0  0  0  0  0  0  0  0
  194.3931  185.8306  160.5324 C   0  0  0  0  0  0  0  0  0  0  0  0
  195.7200  186.2917  160.5020 C   0  0  0  0  0  0  0  0  0  0  0  0
  196.7002  185.5652  159.7961 C   0  0  0  0  0  0  0  0  0  0  0  0
  198.8268  180.0827  155.4698 C   0  0  0  0  0  0  0  0  0  0  0  0
  199.8395  179.7066  156.3906 C   0  0  0  0  0  0  0  0  0  0  0  0
  200.9519  178.9599  155.9620 C   0  0  0  0  0  0  0  0  0  0  0  0
  201.0548  178.5412  154.6203 C   0  0  0  0  0  0  0  0  0  0  0  0
  200.0376  178.8873  153.7067 C   0  0  0  0  0  0  0  0  0  0  0  0
  198.9299  179.6479  154.1301 C   0  0  0  0  0  0  0  0  0  0  0  0
  202.2436  177.7142  154.1715 C   0  0  1  0  0  0  0  0  0  0  0  0
  201.9990  176.2639  154.3443 N   0  0  1  0  0  0  0  0  0  0  0  0
  203.0312  175.3955  153.7490 C   0  0  1  0  0  0  0  0  0  0  0  0
  202.7779  174.0124  154.3560 C   0  0  1  0  0  0  0  0  0  0  0  0
  202.0190  174.2841  155.6593 C   0  0  1  0  0  0  0  0  0  0  0  0
  201.8668  175.8025  155.7396 C   0  0  1  0  0  0  0  0  0  0  0  0
  198.7960  181.7173  157.3056 H   0  0  0  0  0  0  0  0  0  0  0  0
  199.0719  184.1720  156.2952 H   0  0  0  0  0  0  0  0  0  0  0  0
  201.1849  184.6488  155.3989 H   0  0  0  0  0  0  0  0  0  0  0  0
  203.4967  185.5015  155.6783 H   0  0  0  0  0  0  0  0  0  0  0  0
  204.1355  186.7417  157.7395 H   0  0  0  0  0  0  0  0  0  0  0  0
  202.4467  187.1374  159.5247 H   0  0  0  0  0  0  0  0  0  0  0  0
  200.1294  186.3181  159.2421 H   0  0  0  0  0  0  0  0  0  0  0  0
  199.1497  182.6351  159.7753 H   0  0  0  0  0  0  0  0  0  0  0  0
  200.4311  183.7636  159.4529 H   0  0  0  0  0  0  0  0  0  0  0  0
  200.0852  182.5194  158.2690 H   0  0  0  0  0  0  0  0  0  0  0  0
  195.1529  181.1428  157.3586 H   0  0  0  0  0  0  0  0  0  0  0  0
  193.0210  184.3076  159.8740 H   0  0  0  0  0  0  0  0  0  0  0  0
  193.6358  186.3961  161.0576 H   0  0  0  0  0  0  0  0  0  0  0  0
  195.9897  187.2113  161.0058 H   0  0  0  0  0  0  0  0  0  0  0  0
  197.7073  185.9463  159.7788 H   0  0  0  0  0  0  0  0  0  0  0  0
  199.7825  179.9781  157.4353 H   0  0  0  0  0  0  0  0  0  0  0  0
  201.7063  178.6737  156.6818 H   0  0  0  0  0  0  0  0  0  0  0  0
  200.0872  178.5578  152.6811 H   0  0  0  0  0  0  0  0  0  0  0  0
  198.1589  179.9098  153.4169 H   0  0  0  0  0  0  0  0  0  0  0  0
  202.4405  177.9358  153.1187 H   0  0  0  0  0  0  0  0  0  0  0  0
  203.1332  178.0322  154.7241 H   0  0  0  0  0  0  0  0  0  0  0  0
  203.0123  175.4004  152.6566 H   0  0  0  0  0  0  0  0  0  0  0  0
  204.0092  175.7578  154.0712 H   0  0  0  0  0  0  0  0  0  0  0  0
  202.1653  173.4070  153.6872 H   0  0  0  0  0  0  0  0  0  0  0  0
  203.7073  173.4713  154.5240 H   0  0  0  0  0  0  0  0  0  0  0  0
  201.0258  173.8370  155.6177 H   0  0  0  0  0  0  0  0  0  0  0  0
  202.5445  173.8902  156.5256 H   0  0  0  0  0  0  0  0  0  0  0  0
  202.6928  176.2127  156.3232 H   0  0  0  0  0  0  0  0  0  0  0  0
  200.9295  176.1079  156.2177 H   0  0  0  0  0  0  0  0  0  0  0  0
  201.1303  176.0248  153.8891 H   0  0  0  0  0  0  0  0  0  0  0  0
  193.7155  182.4481  158.5554 H   0  0  0  0  0  0  0  0  0  0  0  0
  1  2  2  0
  2  3  1  0
  2 25  1  0
  3  4  1  0
  3 37  1  0
  4  5  2  0
  4 20  1  0
  5  6  1  0
  5 17  1  0
  6  7  1  0
  6 16  1  0
  7  8  1  0
  7 10  1  0
  7 38  1  6
  8  9  3  0
 10 11  2  0
 10 15  1  0
 11 12  1  0
 11 39  1  0
 12 13  2  0
 12 40  1  0
 13 14  1  0
 13 41  1  0
 14 15  2  0
 14 42  1  0
 15 43  1  0
 16 44  1  1
 16 45  1  0
 16 46  1  0
 17 18  1  0
 17 24  2  0
 18 19  1  0
 18 21  2  0
 19 20  2  0
 19 67  1  0
 20 47  1  0
 21 22  1  0
 21 48  1  0
 22 23  2  0
 22 49  1  0
 23 24  1  0
 23 50  1  0
 24 51  1  0
 25 26  1  0
 25 30  2  0
 26 27  2  0
 26 52  1  0
 27 28  1  0
 27 53  1  0
 28 29  2  0
 28 31  1  0
 29 30  1  0
 29 54  1  0
 30 55  1  0
 31 32  1  0
 31 56  1  6
 31 57  1  0
 32 33  1  0
 32 36  1  0
 32 66  1  6
 33 34  1  0
 33 58  1  6
 33 59  1  0
 34 35  1  0
 34 60  1  6
 34 61  1  0
 35 36  1  0
 35 62  1  6
 35 63  1  0
 36 64  1  1
 36 65  1  0
M  CHG  2  19   1  32   1
M  END
>  <s_epik_cmdline>  (1238) 
J2VwaWtfcHl0aG9uJywgJy1waCcsICc3LjAwMDAwMCcsICctcGh0JywgJzIuMDAwMDAwJywgJy1tcycsICcxNicsICctdG4nLCAnOCcsICctbWEnLCAnMjAwJywgJy1pbWFlJywgJzxpbmZpbGUubWFlPicsICctb21hZScsICc8b3V0ZmlsZS5tYWU+Jw==

>  <s_epik_input>  (1238) 
W0NIMl0xW0NIMl1bQ0gyXVtDSDJdTjFbQ0gyXWMoW2NIXVtjSF0yKVtjSF1bY0hdYzJDKD1PKVtOSF1jKFtjSF1uYyhjMzQpW2NIXVtjSF1bY0hdW2NIXTQpYzNOKFtDSDNdKVtDQEBIXShDI04pYzVbY0hdW2NIXVtjSF1bY0hdW2NIXTU=

>  <s_i_glide_gridfile>  (1238) 
ATP-Grid

>  <s_lp_Force_Field>  (1238) 
OPLS_2005

>  <s_lp_Variant>  (1238) 
rxn502b____EMOL36726524____EMOL30488121____EMOL24630243-1

>  <s_lp_label>  (1238) 
2766_sdstereoexpander_1_neutralizer_1_epik_1_stereoizer_1

>  <s_m_source_file>  (1238) 
ATP-VSW-LIGPREP-003-in.maegz

>  <s_sd_BIOSOLVEIT.INFINISEE\_QUERY\_NAME>  (1238) 
Ref-Lig

>  <s_sd_BIOSOLVEIT.INFINISEE\_QUERY\_SMILES>  (1238) 
S(c1nc2c(cc1C[NH2+]Cc3ccc(cc3)C[NH+](C)C)cccc2)Cc4ccccc4

>  <s_sd_BIOSOLVEIT.INFINISEE\_REACTION\_NAME>  (1238) 
rxn502b

>  <s_sd_BIOSOLVEIT.INFINISEE\_REAGENT1\_NAME>  (1238) 
EMOL36726524

>  <s_sd_BIOSOLVEIT.INFINISEE\_REAGENT1\_SMILES>  (1238) 
O=C(O)c1ccc(cc1)CN2CCCC2

>  <s_sd_BIOSOLVEIT.INFINISEE\_REAGENT2\_NAME>  (1238) 
EMOL30488121

>  <s_sd_BIOSOLVEIT.INFINISEE\_REAGENT2\_SMILES>  (1238) 
Brc1c(N)cnc2c1cccc2

>  <s_sd_BIOSOLVEIT.INFINISEE\_REAGENT3\_NAME>  (1238) 
EMOL24630243

>  <s_sd_BIOSOLVEIT.INFINISEE\_REAGENT3\_SMILES>  (1238) 
N#CC(NC)c1ccccc1

>  <s_sd_BIOSOLVEIT.INFINISEE\_SPACE>  (1238) 
eXplore_7tr_2022-12

>  <s_vsw_compound_code>  (1238) 
88483

>  <s_vsw_variant>  (1238) 
88483-1

>  <r_epik_Charging_Adjusted_Penalty>  (1238) 
0.27038080533334102

>  <r_epik_Ionization_Penalty>  (1238) 
0.1351

>  <r_epik_Ionization_Penalty_Charging>  (1238) 
0.13500000000000001

>  <r_epik_Ionization_Penalty_Neutral>  (1238) 
0

>  <r_epik_State_Penalty>  (1238) 
0.13539999999999999

>  <r_i_docking_score>  (1238) 
-4.2206393283193302

>  <r_i_glide_ecoul>  (1238) 
-7.4984931945800799

>  <r_i_glide_eff_state_penalty>  (1238) 
0.13539999999999999

>  <r_i_glide_einternal>  (1238) 
2.72698950767517

>  <r_i_glide_emodel>  (1238) 
-56.819185223034502

>  <r_i_glide_energy>  (1238) 
-41.236541748046903

>  <r_i_glide_erotb>  (1238) 
0.71050068705131797

>  <r_i_glide_esite>  (1238) 
-0.180937221572955

>  <r_i_glide_evdw>  (1238) 
-33.738048553466797

>  <r_i_glide_gscore>  (1238) 
-4.3560393283193299

>  <r_i_glide_hbond>  (1238) 
0

>  <r_i_glide_ligand_efficiency>  (1238) 
-0.11723998134220399

>  <r_i_glide_ligand_efficiency_ln>  (1238) 
-0.92082947294224404

>  <r_i_glide_ligand_efficiency_sa>  (1238) 
-0.38711788859130503

>  <r_i_glide_lipo>  (1238) 
-1.6218717760408401

>  <r_i_glide_metal>  (1238) 
-0

>  <r_i_glide_rewards>  (1238) 
-0.45205461089650001

>  <r_lp_Energy>  (1238) 
65.613173000000003

>  <r_qp_ACxDN^.5/SA>  (1238) 
0.0098913999999999998

>  <r_qp_CIQPlogS>  (1238) 
-6.9800000000000004

>  <r_qp_EA(eV)>  (1238) 
1.0900000000000001

>  <r_qp_FISA>  (1238) 
95.495000000000005

>  <r_qp_FOSA>  (1238) 
273.91000000000003

>  <r_qp_IP(eV)>  (1238) 
8.7509999999999994

>  <r_qp_Jm>  (1238) 
0.000170189321489186

>  <r_qp_PISA>  (1238) 
439.38

>  <r_qp_PSA>  (1238) 
74.891000000000005

>  <r_qp_PercentHumanOralAbsorption>  (1238) 
100

>  <r_qp_QPPCaco>  (1238) 
307.05900000000003

>  <r_qp_QPPMDCK>  (1238) 
152.749

>  <r_qp_QPlogBB>  (1238) 
-0.54100000000000004

>  <r_qp_QPlogHERG>  (1238) 
-7.758

>  <r_qp_QPlogKhsa>  (1238) 
0.78800000000000003

>  <r_qp_QPlogKp>  (1238) 
-3.0259999999999998

>  <r_qp_QPlogPC16>  (1238) 
16.382999999999999

>  <r_qp_QPlogPo/w>  (1238) 
4.7640000000000002

>  <r_qp_QPlogPoct>  (1238) 
24.885000000000002

>  <r_qp_QPlogPw>  (1238) 
12.884

>  <r_qp_QPlogS>  (1238) 
-6.4199999999999999

>  <r_qp_QPpolrz>  (1238) 
53.634

>  <r_qp_SASA>  (1238) 
808.78499999999997

>  <r_qp_SAamideO>  (1238) 
0

>  <r_qp_SAfluorine>  (1238) 
0

>  <r_qp_WPSA>  (1238) 
0

>  <r_qp_accptHB>  (1238) 
8

>  <r_qp_dip^2/V>  (1238) 
0.085210800000000003

>  <r_qp_dipole>  (1238) 
11.371

>  <r_qp_donorHB>  (1238) 
1

>  <r_qp_glob>  (1238) 
0.7896048

>  <r_qp_mol_MW>  (1238) 
475.59199999999998

>  <r_qp_volume>  (1238) 
1517.4580000000001

>  <r_sd_BIOSOLVEIT.INFINISEE\_FTREES\_SIMILARITY>  (1238) 
0.90700000000000003

>  <r_sd_BIOSOLVEIT.LOGP>  (1238) 
4.3668800000000001

>  <r_sd_BIOSOLVEIT.MOLECULAR\_WEIGHT>  (1238) 
476.601

>  <r_sd_BIOSOLVEIT.TPSA>  (1238) 
73.459999999999994

>  <i_epik_Tot_Q>  (1238) 
2

>  <i_epik_Tot_abs_Q>  (1238) 
2

>  <i_f3d_flags>  (1238) 
0

>  <i_i_glide_confnum>  (1238) 
6

>  <i_i_glide_lignum>  (1238) 
1316

>  <i_i_glide_posenum>  (1238) 
15

>  <i_i_glide_rotatable_bonds>  (1238) 
8

>  <i_lp_mmshare_version>  (1238) 
65135

>  <i_m_ct_format>  (1238) 
2

>  <i_m_source_file_index>  (1238) 
2766

>  <i_qp_#NandO>  (1238) 
6

>  <i_qp_#acid>  (1238) 
0

>  <i_qp_#amide>  (1238) 
0

>  <i_qp_#amidine>  (1238) 
0

>  <i_qp_#amine>  (1238) 
1

>  <i_qp_#in34>  (1238) 
0

>  <i_qp_#in56>  (1238) 
27

>  <i_qp_#metab>  (1238) 
6

>  <i_qp_#nonHatm>  (1238) 
36

>  <i_qp_#noncon>  (1238) 
4

>  <i_qp_#ringatoms>  (1238) 
27

>  <i_qp_#rotor>  (1238) 
8

>  <i_qp_#rtvFG>  (1238) 
0

>  <i_qp_#stars>  (1238) 
0

>  <i_qp_CNS>  (1238) 
1

>  <i_qp_HumanOralAbsorption>  (1238) 
1

>  <i_qp_RuleOfFive>  (1238) 
0

>  <i_qp_RuleOfThree>  (1238) 
1

>  <i_sd_BIOSOLVEIT.INFINISEE\_RESULT\_RANK>  (1238) 
59787

>  <i_sd_version>  (1238) 
0

>  <b_lp_Chiralities_Consistent>  (1238) 
1

>  <b_sd_chiral_flag>  (1238) 
0

>  <canonical_id>  (1238) 
ATP-HTVS-C3A30B83BBDA

>  <compound_code>  (1238) 
88483

>  <title>  (1238) 
rxn502b____EMOL36726524____EMOL30488121____EMOL24630243

>  <variant>  (1238) 
88483-1

>  <source_file>  (1238) 
运行/运行/ATP-VSW/ATP-VSW-DOCK_HTVS_1-003_lib/ATP-VSW-DOCK_HTVS_1-003_lib.mae

>  <canonical_smiles>  (1238) 
CN(c1c(NC(=O)c2ccc(C[NH+]3CCCC3)cc2)c[nH+]c2ccccc12)[C@@H](C#N)c1ccccc1

>  <scaffold>  (1238) 
O=C(Nc1c[nH+]c2ccccc2c1NCc1ccccc1)c1ccc(C[NH+]2CCCC2)cc1

>  <molecular_formula>  (1238) 
C30H31N5O+2

$$$$
ATP-HTVS-C3FA166C1ADD
     RDKit          3D

 55 58  0  0  0  0  0  0  0  0999 V2000
  190.7951  187.4810  160.2046 F   0  0  0  0  0  0  0  0  0  0  0  0
  191.1513  188.4958  161.0242 C   0  0  0  0  0  0  0  0  0  0  0  0
  192.1136  188.2688  162.0320 C   0  0  0  0  0  0  0  0  0  0  0  0
  192.4775  189.3407  162.8757 C   0  0  0  0  0  0  0  0  0  0  0  0
  193.3775  189.1551  163.8702 F   0  0  0  0  0  0  0  0  0  0  0  0
  191.9163  190.6208  162.6877 C   0  0  0  0  0  0  0  0  0  0  0  0
  190.9667  190.8395  161.6714 C   0  0  0  0  0  0  0  0  0  0  0  0
  190.5771  189.7730  160.8428 C   0  0  0  0  0  0  0  0  0  0  0  0
  192.7339  186.8776  162.1870 C   0  0  2  0  0  0  0  0  0  0  0  0
  192.3601  186.2599  163.4028 O   0  0  0  0  0  0  0  0  0  0  0  0
  194.2720  186.8689  162.0785 C   0  0  1  0  0  0  0  0  0  0  0  0
  194.7536  187.0415  160.6959 N   0  0  1  0  0  0  0  0  0  0  0  0
  196.2212  187.0827  160.5640 C   0  0  1  0  0  0  0  0  0  0  0  0
  196.6326  186.7075  159.1472 C   0  0  0  0  0  0  0  0  0  0  0  0
  197.0940  187.7180  158.2595 C   0  0  0  0  0  0  0  0  0  0  0  0
  197.1679  189.0086  158.7423 O   0  0  0  0  0  0  0  0  0  0  0  0
  197.6199  190.0608  157.8957 C   0  0  1  0  0  0  0  0  0  0  0  0
  198.2443  191.1840  158.6879 C   0  0  0  0  0  0  0  0  0  0  0  0
  198.1112  192.5213  158.2632 C   0  0  0  0  0  0  0  0  0  0  0  0
  198.7491  193.5528  158.9807 C   0  0  0  0  0  0  0  0  0  0  0  0
  199.5174  193.2455  160.1253 C   0  0  0  0  0  0  0  0  0  0  0  0
  199.6608  191.9060  160.5367 C   0  0  0  0  0  0  0  0  0  0  0  0
  199.0271  190.8778  159.8192 C   0  0  0  0  0  0  0  0  0  0  0  0
  197.4770  187.3658  156.9466 C   0  0  0  0  0  0  0  0  0  0  0  0
  197.4176  186.0250  156.5254 C   0  0  0  0  0  0  0  0  0  0  0  0
  196.9519  185.0236  157.3969 C   0  0  0  0  0  0  0  0  0  0  0  0
  196.5493  185.3556  158.7150 C   0  0  0  0  0  0  0  0  0  0  0  0
  196.0593  184.3185  159.5536 C   0  0  0  0  0  0  0  0  0  0  0  0
  195.9582  182.9953  159.0795 C   0  0  0  0  0  0  0  0  0  0  0  0
  196.3559  182.6828  157.7650 C   0  0  0  0  0  0  0  0  0  0  0  0
  196.8593  183.6962  156.9314 C   0  0  0  0  0  0  0  0  0  0  0  0
  194.3912  186.3032  160.1135 H   0  0  0  0  0  0  0  0  0  0  0  0
  192.2238  191.4357  163.3260 H   0  0  0  0  0  0  0  0  0  0  0  0
  190.5385  191.8240  161.5285 H   0  0  0  0  0  0  0  0  0  0  0  0
  189.8470  189.9322  160.0568 H   0  0  0  0  0  0  0  0  0  0  0  0
  192.3544  186.2276  161.4030 H   0  0  0  0  0  0  0  0  0  0  0  0
  191.4301  186.1213  163.3986 H   0  0  0  0  0  0  0  0  0  0  0  0
  194.6973  187.6915  162.6441 H   0  0  0  0  0  0  0  0  0  0  0  0
  194.6818  185.9456  162.5049 H   0  0  0  0  0  0  0  0  0  0  0  0
  196.5812  188.0655  160.8671 H   0  0  0  0  0  0  0  0  0  0  0  0
  196.6923  186.3886  161.2615 H   0  0  0  0  0  0  0  0  0  0  0  0
  198.3752  189.7408  157.1702 H   0  0  0  0  0  0  0  0  0  0  0  0
  196.7622  190.4520  157.3492 H   0  0  0  0  0  0  0  0  0  0  0  0
  197.5388  192.7549  157.3774 H   0  0  0  0  0  0  0  0  0  0  0  0
  198.6489  194.5783  158.6567 H   0  0  0  0  0  0  0  0  0  0  0  0
  199.9907  194.0365  160.6908 H   0  0  0  0  0  0  0  0  0  0  0  0
  200.2553  191.6541  161.4054 H   0  0  0  0  0  0  0  0  0  0  0  0
  199.1586  189.8553  160.1325 H   0  0  0  0  0  0  0  0  0  0  0  0
  197.8384  188.1060  156.2479 H   0  0  0  0  0  0  0  0  0  0  0  0
  197.7192  185.7659  155.5233 H   0  0  0  0  0  0  0  0  0  0  0  0
  195.7395  184.5013  160.5700 H   0  0  0  0  0  0  0  0  0  0  0  0
  195.5753  182.2119  159.7178 H   0  0  0  0  0  0  0  0  0  0  0  0
  196.2638  181.6698  157.3988 H   0  0  0  0  0  0  0  0  0  0  0  0
  197.1452  183.4550  155.9184 H   0  0  0  0  0  0  0  0  0  0  0  0
  194.4124  187.9339  160.3685 H   0  0  0  0  0  0  0  0  0  0  0  0
  1  2  1  0
  2  3  1  0
  2  8  2  0
  3  4  2  0
  3  9  1  0
  4  5  1  0
  4  6  1  0
  6  7  2  0
  6 33  1  0
  7  8  1  0
  7 34  1  0
  8 35  1  0
  9 10  1  0
  9 11  1  0
  9 36  1  6
 10 37  1  0
 11 12  1  0
 11 38  1  1
 11 39  1  0
 12 13  1  0
 12 32  1  6
 12 55  1  0
 13 14  1  0
 13 40  1  1
 13 41  1  0
 14 15  2  0
 14 27  1  0
 15 16  1  0
 15 24  1  0
 16 17  1  0
 17 18  1  0
 17 42  1  6
 17 43  1  0
 18 19  2  0
 18 23  1  0
 19 20  1  0
 19 44  1  0
 20 21  2  0
 20 45  1  0
 21 22  1  0
 21 46  1  0
 22 23  2  0
 22 47  1  0
 23 48  1  0
 24 25  2  0
 24 49  1  0
 25 26  1  0
 25 50  1  0
 26 27  1  0
 26 31  2  0
 27 28  2  0
 28 29  1  0
 28 51  1  0
 29 30  2  0
 29 52  1  0
 30 31  1  0
 30 53  1  0
 31 54  1  0
M  CHG  1  12   1
M  END
>  <s_epik_cmdline>  (1239) 
J2VwaWtfcHl0aG9uJywgJy1waCcsICc3LjAwMDAwMCcsICctcGh0JywgJzIuMDAwMDAwJywgJy1tcycsICcxNicsICctdG4nLCAnOCcsICctbWEnLCAnMjAwJywgJy1pbWFlJywgJzxpbmZpbGUubWFlPicsICctb21hZScsICc8b3V0ZmlsZS5tYWU+Jw==

>  <s_epik_input>  (1239) 
W2NIXTFbY0hdW2NIXWMoRiljKGMxRilbQ0BIXShbT0hdKVtDSDJdW05IXVtDSDJdYyhjKGMyMylbY0hdW2NIXVtjSF1bY0hdMyljKFtjSF1bY0hdMilPW0NIMl1jNFtjSF1bY0hdW2NIXVtjSF1bY0hdNA==

>  <s_i_glide_gridfile>  (1239) 
ATP-Grid

>  <s_lp_Force_Field>  (1239) 
OPLS_2005

>  <s_lp_Variant>  (1239) 
m_270004bbb____8296926____21002124-2

>  <s_lp_label>  (1239) 
1148_sdstereoexpander_2_neutralizer_1_epik_1_stereoizer_1

>  <s_m_source_file>  (1239) 
ATP-VSW-LIGPREP-003-in.maegz

>  <s_sd_BIOSOLVEIT.INFINISEE\_QUERY\_NAME>  (1239) 
Ref-Lig

>  <s_sd_BIOSOLVEIT.INFINISEE\_QUERY\_SMILES>  (1239) 
S(c1nc2c(cc1C[NH2+]Cc3ccc(cc3)C[NH+](C)C)cccc2)Cc4ccccc4

>  <s_sd_BIOSOLVEIT.INFINISEE\_REACTION\_NAME>  (1239) 
m_270004bbb

>  <s_sd_BIOSOLVEIT.INFINISEE\_REAGENT1\_SMILES>  (1239) 
[R1*]NCC(O)c1c(F)cccc1F

>  <s_sd_BIOSOLVEIT.INFINISEE\_REAGENT2\_SMILES>  (1239) 
[R1*]Cc1c(OCc2ccccc2)ccc3c1cccc3

>  <s_sd_BIOSOLVEIT.INFINISEE\_SPACE>  (1239) 
REALSpace_44bn_2023-08

>  <s_vsw_compound_code>  (1239) 
36707

>  <s_vsw_variant>  (1239) 
36707-2

>  <r_epik_Charging_Adjusted_Penalty>  (1239) 
0.0364061500921396

>  <r_epik_Ionization_Penalty>  (1239) 
0.018200000000000001

>  <r_epik_Ionization_Penalty_Charging>  (1239) 
0.018200000000000001

>  <r_epik_Ionization_Penalty_Neutral>  (1239) 
0

>  <r_epik_State_Penalty>  (1239) 
0.018200000000000001

>  <r_i_docking_score>  (1239) 
-5.5836628022169101

>  <r_i_glide_ecoul>  (1239) 
-7.3659858703613299

>  <r_i_glide_eff_state_penalty>  (1239) 
0.018200000000000001

>  <r_i_glide_einternal>  (1239) 
5.3265142440795898

>  <r_i_glide_emodel>  (1239) 
-58.342967217678499

>  <r_i_glide_energy>  (1239) 
-41.776607513427699

>  <r_i_glide_erotb>  (1239) 
0.78366674390558

>  <r_i_glide_esite>  (1239) 
-0.066766387850051304

>  <r_i_glide_evdw>  (1239) 
-34.410621643066399

>  <r_i_glide_gscore>  (1239) 
-5.6018628022169104

>  <r_i_glide_hbond>  (1239) 
-0.30224066651331

>  <r_i_glide_ligand_efficiency>  (1239) 
-0.18011815491022301

>  <r_i_glide_ligand_efficiency_ln>  (1239) 
-1.25928708061422

>  <r_i_glide_ligand_efficiency_sa>  (1239) 
-0.56581968633173796

>  <r_i_glide_lipo>  (1239) 
-2.6488507972334299

>  <r_i_glide_metal>  (1239) 
-0

>  <r_i_glide_rewards>  (1239) 
-0.54224273181817995

>  <r_lp_Energy>  (1239) 
25.374459000000002

>  <r_qp_ACxDN^.5/SA>  (1239) 
0.0089432999999999995

>  <r_qp_CIQPlogS>  (1239) 
-6.3339999999999996

>  <r_qp_EA(eV)>  (1239) 
0.83599999999999997

>  <r_qp_FISA>  (1239) 
50.308

>  <r_qp_FOSA>  (1239) 
90.722999999999999

>  <r_qp_IP(eV)>  (1239) 
8.5009999999999994

>  <r_qp_Jm>  (1239) 
0.88369570354608096

>  <r_qp_PISA>  (1239) 
440.04500000000002

>  <r_qp_PSA>  (1239) 
37.060000000000002

>  <r_qp_PercentHumanOralAbsorption>  (1239) 
100

>  <r_qp_QPPCaco>  (1239) 
823.61900000000003

>  <r_qp_QPPMDCK>  (1239) 
768.53200000000004

>  <r_qp_QPlogBB>  (1239) 
0.092999999999999999

>  <r_qp_QPlogHERG>  (1239) 
-6.3070000000000004

>  <r_qp_QPlogKhsa>  (1239) 
0.71199999999999997

>  <r_qp_QPlogKp>  (1239) 
-2.0950000000000002

>  <r_qp_QPlogPC16>  (1239) 
13.138999999999999

>  <r_qp_QPlogPo/w>  (1239) 
4.8719999999999999

>  <r_qp_QPlogPoct>  (1239) 
18.928999999999998

>  <r_qp_QPlogPw>  (1239) 
9.4079999999999995

>  <r_qp_QPlogS>  (1239) 
-3.581

>  <r_qp_QPpolrz>  (1239) 
40.716999999999999

>  <r_qp_SASA>  (1239) 
624.61699999999996

>  <r_qp_SAamideO>  (1239) 
0

>  <r_qp_SAfluorine>  (1239) 
43.542000000000002

>  <r_qp_WPSA>  (1239) 
43.542000000000002

>  <r_qp_accptHB>  (1239) 
3.9500000000000002

>  <r_qp_dip^2/V>  (1239) 
0.0186424

>  <r_qp_dipole>  (1239) 
4.7510000000000003

>  <r_qp_donorHB>  (1239) 
2

>  <r_qp_glob>  (1239) 
0.87945759999999995

>  <r_qp_mol_MW>  (1239) 
419.47000000000003

>  <r_qp_volume>  (1239) 
1210.587

>  <r_sd_BIOSOLVEIT.INFINISEE\_FTREES\_SIMILARITY>  (1239) 
0.91200000000000003

>  <r_sd_BIOSOLVEIT.LOGP>  (1239) 
4.4939999999999998

>  <r_sd_BIOSOLVEIT.MOLECULAR\_WEIGHT>  (1239) 
420.47699999999998

>  <r_sd_BIOSOLVEIT.TPSA>  (1239) 
46.07

>  <i_epik_Tot_Q>  (1239) 
1

>  <i_epik_Tot_abs_Q>  (1239) 
1

>  <i_f3d_flags>  (1239) 
0

>  <i_i_glide_confnum>  (1239) 
3

>  <i_i_glide_lignum>  (1239) 
451

>  <i_i_glide_posenum>  (1239) 
20

>  <i_i_glide_rotatable_bonds>  (1239) 
9

>  <i_lp_mmshare_version>  (1239) 
65135

>  <i_m_ct_format>  (1239) 
2

>  <i_m_source_file_index>  (1239) 
1148

>  <i_qp_#NandO>  (1239) 
3

>  <i_qp_#acid>  (1239) 
0

>  <i_qp_#amide>  (1239) 
0

>  <i_qp_#amidine>  (1239) 
0

>  <i_qp_#amine>  (1239) 
1

>  <i_qp_#in34>  (1239) 
0

>  <i_qp_#in56>  (1239) 
22

>  <i_qp_#metab>  (1239) 
6

>  <i_qp_#nonHatm>  (1239) 
31

>  <i_qp_#noncon>  (1239) 
0

>  <i_qp_#ringatoms>  (1239) 
22

>  <i_qp_#rotor>  (1239) 
9

>  <i_qp_#rtvFG>  (1239) 
0

>  <i_qp_#stars>  (1239) 
0

>  <i_qp_CNS>  (1239) 
1

>  <i_qp_HumanOralAbsorption>  (1239) 
3

>  <i_qp_RuleOfFive>  (1239) 
0

>  <i_qp_RuleOfThree>  (1239) 
0

>  <i_sd_BIOSOLVEIT.INFINISEE\_REAGENT1\_NAME>  (1239) 
8296926

>  <i_sd_BIOSOLVEIT.INFINISEE\_REAGENT2\_NAME>  (1239) 
21002124

>  <i_sd_BIOSOLVEIT.INFINISEE\_RESULT\_RANK>  (1239) 
36662

>  <i_sd_version>  (1239) 
0

>  <b_lp_Chiralities_Consistent>  (1239) 
1

>  <b_sd_chiral_flag>  (1239) 
0

>  <canonical_id>  (1239) 
ATP-HTVS-C3FA166C1ADD

>  <compound_code>  (1239) 
36707

>  <title>  (1239) 
m_270004bbb____8296926____21002124

>  <variant>  (1239) 
36707-2

>  <source_file>  (1239) 
运行/运行/ATP-VSW/ATP-VSW-DOCK_HTVS_1-003_lib/ATP-VSW-DOCK_HTVS_1-003_lib.mae

>  <canonical_smiles>  (1239) 
O[C@H](C[NH2+]Cc1c(OCc2ccccc2)ccc2ccccc12)c1c(F)cccc1F

>  <scaffold>  (1239) 
c1ccc(CC[NH2+]Cc2c(OCc3ccccc3)ccc3ccccc23)cc1

>  <molecular_formula>  (1239) 
C26H24F2NO2+

$$$$
ATP-HTVS-C3FD34132B6A
     RDKit          3D

 59 62  0  0  0  0  0  0  0  0999 V2000
  203.1254  173.2059  155.3734 Cl  0  0  0  0  0  0  0  0  0  0  0  0
  202.7436  174.8763  155.1447 C   0  0  0  0  0  0  0  0  0  0  0  0
  203.4396  175.6165  154.1622 C   0  0  0  0  0  0  0  0  0  0  0  0
  203.1653  176.9851  153.9268 C   0  0  0  0  0  0  0  0  0  0  0  0
  202.1646  177.6345  154.7020 C   0  0  0  0  0  0  0  0  0  0  0  0
  201.8566  179.0032  154.4818 N   0  0  0  0  0  0  0  0  0  0  0  0
  200.7778  179.6778  155.0705 C   0  0  0  0  0  0  0  0  0  0  0  0
  199.4862  179.7264  154.4787 C   0  0  0  0  0  0  0  0  0  0  0  0
  198.4434  180.4499  155.1147 C   0  0  0  0  0  0  0  0  0  0  0  0
  198.7235  181.1278  156.3313 C   0  0  0  0  0  0  0  0  0  0  0  0
  199.9633  181.0780  156.8825 N   0  0  0  0  0  0  0  0  0  0  0  0
  200.9453  180.3843  156.2800 C   0  0  0  0  0  0  0  0  0  0  0  0
  197.6608  181.8484  156.9326 N   0  0  0  0  0  0  0  0  0  0  0  0
  197.6936  182.7082  157.9698 C   0  0  0  0  0  0  0  0  0  0  0  0
  198.7230  183.1366  158.4922 O   0  0  0  0  0  0  0  0  0  0  0  0
  196.3446  183.1707  158.4561 C   0  0  0  0  0  0  0  0  0  0  0  0
  196.1449  184.3852  159.1858 C   0  0  0  0  0  0  0  0  0  0  0  0
  194.8359  184.7493  159.5819 C   0  0  0  0  0  0  0  0  0  0  0  0
  193.7304  183.9409  159.2758 C   0  0  0  0  0  0  0  0  0  0  0  0
  193.9229  182.7332  158.5973 C   0  0  0  0  0  0  0  0  0  0  0  0
  195.2110  182.3585  158.1925 C   0  0  0  0  0  0  0  0  0  0  0  0
  197.2673  185.3532  159.5838 C   0  0  1  0  0  0  0  0  0  0  0  0
  197.5551  186.3620  158.5266 N   0  0  1  0  0  0  0  0  0  0  0  0
  196.4124  187.2571  158.2042 C   0  0  2  0  0  0  0  0  0  0  0  0
  198.7752  187.1382  158.8388 C   0  0  2  0  0  0  0  0  0  0  0  0
  197.1501  180.4909  154.5160 C   0  0  0  0  0  0  0  0  0  0  0  0
  196.9159  179.8357  153.2989 C   0  0  0  0  0  0  0  0  0  0  0  0
  197.9516  179.1301  152.6644 C   0  0  0  0  0  0  0  0  0  0  0  0
  199.2283  179.0701  153.2543 C   0  0  0  0  0  0  0  0  0  0  0  0
  202.9720  179.9048  154.1596 C   0  0  1  0  0  0  0  0  0  0  0  0
  203.6204  179.6386  152.8790 C   0  0  0  0  0  0  0  0  0  0  0  0
  204.1456  179.4438  151.8656 N   0  0  0  0  0  0  0  0  0  0  0  0
  201.4566  176.8864  155.6939 C   0  0  0  0  0  0  0  0  0  0  0  0
  201.7444  175.5108  155.9168 C   0  0  0  0  0  0  0  0  0  0  0  0
  204.1910  175.1300  153.5593 H   0  0  0  0  0  0  0  0  0  0  0  0
  203.7245  177.4975  153.1272 H   0  0  0  0  0  0  0  0  0  0  0  0
  201.8973  180.3908  156.8004 H   0  0  0  0  0  0  0  0  0  0  0  0
  196.7391  181.6418  156.5561 H   0  0  0  0  0  0  0  0  0  0  0  0
  194.6478  185.6745  160.0959 H   0  0  0  0  0  0  0  0  0  0  0  0
  192.7291  184.2574  159.5244 H   0  0  0  0  0  0  0  0  0  0  0  0
  193.0847  182.1174  158.3169 H   0  0  0  0  0  0  0  0  0  0  0  0
  195.2773  181.4314  157.6429 H   0  0  0  0  0  0  0  0  0  0  0  0
  196.9563  185.8743  160.4979 H   0  0  0  0  0  0  0  0  0  0  0  0
  198.1778  184.8206  159.8591 H   0  0  0  0  0  0  0  0  0  0  0  0
  196.0812  187.7992  159.0914 H   0  0  0  0  0  0  0  0  0  0  0  0
  195.5621  186.7004  157.8094 H   0  0  0  0  0  0  0  0  0  0  0  0
  196.6852  187.9903  157.4444 H   0  0  0  0  0  0  0  0  0  0  0  0
  198.6423  187.7251  159.7484 H   0  0  0  0  0  0  0  0  0  0  0  0
  199.0256  187.8256  158.0293 H   0  0  0  0  0  0  0  0  0  0  0  0
  199.6297  186.4757  158.9843 H   0  0  0  0  0  0  0  0  0  0  0  0
  196.3256  181.0224  154.9647 H   0  0  0  0  0  0  0  0  0  0  0  0
  195.9327  179.8759  152.8511 H   0  0  0  0  0  0  0  0  0  0  0  0
  197.7656  178.6212  151.7343 H   0  0  0  0  0  0  0  0  0  0  0  0
  200.0139  178.5205  152.7664 H   0  0  0  0  0  0  0  0  0  0  0  0
  202.6236  180.9463  154.0794 H   0  0  0  0  0  0  0  0  0  0  0  0
  203.7186  179.8938  154.9431 H   0  0  0  0  0  0  0  0  0  0  0  0
  200.6851  177.3525  156.2990 H   0  0  0  0  0  0  0  0  0  0  0  0
  201.2080  174.9576  156.6714 H   0  0  0  0  0  0  0  0  0  0  0  0
  197.7578  185.8411  157.6821 H   0  0  0  0  0  0  0  0  0  0  0  0
  1  2  1  0
  2  3  1  0
  2 34  2  0
  3  4  2  0
  3 35  1  0
  4  5  1  0
  4 36  1  0
  5  6  1  0
  5 33  2  0
  6  7  1  0
  6 30  1  0
  7  8  2  0
  7 12  1  0
  8  9  1  0
  8 29  1  0
  9 10  2  0
  9 26  1  0
 10 11  1  0
 10 13  1  0
 11 12  2  0
 12 37  1  0
 13 14  1  0
 13 38  1  0
 14 15  2  0
 14 16  1  0
 16 17  1  0
 16 21  2  0
 17 18  2  0
 17 22  1  0
 18 19  1  0
 18 39  1  0
 19 20  2  0
 19 40  1  0
 20 21  1  0
 20 41  1  0
 21 42  1  0
 22 23  1  0
 22 43  1  1
 22 44  1  0
 23 24  1  0
 23 25  1  0
 23 59  1  6
 24 45  1  1
 24 46  1  0
 24 47  1  0
 25 48  1  1
 25 49  1  0
 25 50  1  0
 26 27  2  0
 26 51  1  0
 27 28  1  0
 27 52  1  0
 28 29  2  0
 28 53  1  0
 29 54  1  0
 30 31  1  0
 30 55  1  6
 30 56  1  0
 31 32  3  0
 33 34  1  0
 33 57  1  0
 34 58  1  0
M  CHG  1  23   1
M  END
>  <s_epik_cmdline>  (1240) 
J2VwaWtfcHl0aG9uJywgJy1waCcsICc3LjAwMDAwMCcsICctcGh0JywgJzIuMDAwMDAwJywgJy1tcycsICcxNicsICctdG4nLCAnOCcsICctbWEnLCAnMjAwJywgJy1pbWFlJywgJzxpbmZpbGUubWFlPicsICctb21hZScsICc8b3V0ZmlsZS5tYWU+Jw==

>  <s_epik_input>  (1240) 
Q2xjMVtjSF1bY0hdYyhbY0hdW2NIXTEpTihbQ0gyXUMjTiljMltjSF1uYyhjKGMyMylbY0hdW2NIXVtjSF1bY0hdMylbTkhdQyg9TyljNGMoW0NIMl1OKFtDSDNdKVtDSDNdKVtjSF1bY0hdW2NIXVtjSF00

>  <s_i_glide_gridfile>  (1240) 
ATP-Grid

>  <s_lp_Force_Field>  (1240) 
OPLS_2005

>  <s_lp_Variant>  (1240) 
rxn502b____EMOL5415347____EMOL7515103____EMOL37359883-1

>  <s_lp_label>  (1240) 
2235_sdstereoexpander_1_neutralizer_1_epik_1_stereoizer_1

>  <s_m_source_file>  (1240) 
ATP-VSW-LIGPREP-002-in.maegz

>  <s_sd_BIOSOLVEIT.INFINISEE\_QUERY\_NAME>  (1240) 
Ref-Lig

>  <s_sd_BIOSOLVEIT.INFINISEE\_QUERY\_SMILES>  (1240) 
S(c1nc2c(cc1C[NH2+]Cc3ccc(cc3)C[NH+](C)C)cccc2)Cc4ccccc4

>  <s_sd_BIOSOLVEIT.INFINISEE\_REACTION\_NAME>  (1240) 
rxn502b

>  <s_sd_BIOSOLVEIT.INFINISEE\_REAGENT1\_NAME>  (1240) 
EMOL5415347

>  <s_sd_BIOSOLVEIT.INFINISEE\_REAGENT1\_SMILES>  (1240) 
O=C(O)c1c(cccc1)CN(C)C

>  <s_sd_BIOSOLVEIT.INFINISEE\_REAGENT2\_NAME>  (1240) 
EMOL7515103

>  <s_sd_BIOSOLVEIT.INFINISEE\_REAGENT2\_SMILES>  (1240) 
Brc1c2c(c(nc1)N)cccc2

>  <s_sd_BIOSOLVEIT.INFINISEE\_REAGENT3\_NAME>  (1240) 
EMOL37359883

>  <s_sd_BIOSOLVEIT.INFINISEE\_REAGENT3\_SMILES>  (1240) 
Clc1ccc(NCC#N)cc1

>  <s_sd_BIOSOLVEIT.INFINISEE\_SPACE>  (1240) 
eXplore_7tr_2022-12

>  <s_vsw_compound_code>  (1240) 
71490

>  <s_vsw_variant>  (1240) 
71490-1

>  <r_epik_Charging_Adjusted_Penalty>  (1240) 
0.120106230221407

>  <r_epik_Ionization_Penalty>  (1240) 
0.060100000000000001

>  <r_epik_Ionization_Penalty_Charging>  (1240) 
0.060100000000000001

>  <r_epik_Ionization_Penalty_Neutral>  (1240) 
0.0001

>  <r_epik_State_Penalty>  (1240) 
0.060100000000000001

>  <r_i_docking_score>  (1240) 
-3.7936963430665398

>  <r_i_glide_ecoul>  (1240) 
-5.2037873268127397

>  <r_i_glide_eff_state_penalty>  (1240) 
0.060100000000000001

>  <r_i_glide_einternal>  (1240) 
3.3747723102569598

>  <r_i_glide_emodel>  (1240) 
-54.951731621585097

>  <r_i_glide_energy>  (1240) 
-42.753656864166302

>  <r_i_glide_erotb>  (1240) 
0.54664546843026596

>  <r_i_glide_esite>  (1240) 
-0.081520848883123498

>  <r_i_glide_evdw>  (1240) 
-37.549869537353501

>  <r_i_glide_gscore>  (1240) 
-3.8537963430665401

>  <r_i_glide_hbond>  (1240) 
0

>  <r_i_glide_ligand_efficiency>  (1240) 
-0.111579304207839

>  <r_i_glide_ligand_efficiency_ln>  (1240) 
-0.83813393176148898

>  <r_i_glide_ligand_efficiency_sa>  (1240) 
-0.361473630265151

>  <r_i_glide_lipo>  (1240) 
-1.4629480230877301

>  <r_i_glide_metal>  (1240) 
-0

>  <r_i_glide_rewards>  (1240) 
-0.197911363636363

>  <r_lp_Energy>  (1240) 
39.906227000000001

>  <r_qp_ACxDN^.5/SA>  (1240) 
0.0093183999999999993

>  <r_qp_CIQPlogS>  (1240) 
-7.0309999999999997

>  <r_qp_EA(eV)>  (1240) 
1.3660000000000001

>  <r_qp_FISA>  (1240) 
107.31699999999999

>  <r_qp_FOSA>  (1240) 
188.376

>  <r_qp_IP(eV)>  (1240) 
8.6099999999999994

>  <r_qp_Jm>  (1240) 
3.6187612083882301e-05

>  <r_qp_PISA>  (1240) 
437.48399999999998

>  <r_qp_PSA>  (1240) 
72.825000000000003

>  <r_qp_PercentHumanOralAbsorption>  (1240) 
100

>  <r_qp_QPPCaco>  (1240) 
237.19999999999999

>  <r_qp_QPPMDCK>  (1240) 
285.42500000000001

>  <r_qp_QPlogBB>  (1240) 
-0.53400000000000003

>  <r_qp_QPlogHERG>  (1240) 
-7.9800000000000004

>  <r_qp_QPlogKhsa>  (1240) 
0.747

>  <r_qp_QPlogKp>  (1240) 
-3.2509999999999999

>  <r_qp_QPlogPC16>  (1240) 
16.571999999999999

>  <r_qp_QPlogPo/w>  (1240) 
4.835

>  <r_qp_QPlogPoct>  (1240) 
23.335999999999999

>  <r_qp_QPlogPw>  (1240) 
12.474

>  <r_qp_QPlogS>  (1240) 
-6.8630000000000004

>  <r_qp_QPpolrz>  (1240) 
51.546999999999997

>  <r_qp_SASA>  (1240) 
804.86199999999997

>  <r_qp_SAamideO>  (1240) 
0

>  <r_qp_SAfluorine>  (1240) 
0

>  <r_qp_WPSA>  (1240) 
71.685000000000002

>  <r_qp_accptHB>  (1240) 
7.5

>  <r_qp_dip^2/V>  (1240) 
0.021935300000000001

>  <r_qp_dipole>  (1240) 
5.6699999999999999

>  <r_qp_donorHB>  (1240) 
1

>  <r_qp_glob>  (1240) 
0.77533110000000005

>  <r_qp_mol_MW>  (1240) 
469.97199999999998

>  <r_qp_volume>  (1240) 
1465.768

>  <r_sd_BIOSOLVEIT.INFINISEE\_FTREES\_SIMILARITY>  (1240) 
0.92800000000000005

>  <r_sd_BIOSOLVEIT.LOGP>  (1240) 
4.4466799999999997

>  <r_sd_BIOSOLVEIT.MOLECULAR\_WEIGHT>  (1240) 
470.98200000000003

>  <r_sd_BIOSOLVEIT.TPSA>  (1240) 
73.459999999999994

>  <i_epik_Tot_Q>  (1240) 
1

>  <i_epik_Tot_abs_Q>  (1240) 
1

>  <i_f3d_flags>  (1240) 
0

>  <i_i_glide_confnum>  (1240) 
7

>  <i_i_glide_lignum>  (1240) 
877

>  <i_i_glide_posenum>  (1240) 
1

>  <i_i_glide_rotatable_bonds>  (1240) 
8

>  <i_lp_mmshare_version>  (1240) 
65135

>  <i_m_ct_format>  (1240) 
2

>  <i_m_source_file_index>  (1240) 
2235

>  <i_qp_#NandO>  (1240) 
6

>  <i_qp_#acid>  (1240) 
0

>  <i_qp_#amide>  (1240) 
0

>  <i_qp_#amidine>  (1240) 
0

>  <i_qp_#amine>  (1240) 
1

>  <i_qp_#in34>  (1240) 
0

>  <i_qp_#in56>  (1240) 
22

>  <i_qp_#metab>  (1240) 
5

>  <i_qp_#nonHatm>  (1240) 
34

>  <i_qp_#noncon>  (1240) 
0

>  <i_qp_#ringatoms>  (1240) 
22

>  <i_qp_#rotor>  (1240) 
8

>  <i_qp_#rtvFG>  (1240) 
0

>  <i_qp_#stars>  (1240) 
1

>  <i_qp_CNS>  (1240) 
1

>  <i_qp_HumanOralAbsorption>  (1240) 
1

>  <i_qp_RuleOfFive>  (1240) 
0

>  <i_qp_RuleOfThree>  (1240) 
1

>  <i_sd_BIOSOLVEIT.INFINISEE\_RESULT\_RANK>  (1240) 
6376

>  <i_sd_version>  (1240) 
0

>  <b_lp_Chiralities_Consistent>  (1240) 
1

>  <b_sd_chiral_flag>  (1240) 
0

>  <canonical_id>  (1240) 
ATP-HTVS-C3FD34132B6A

>  <compound_code>  (1240) 
71490

>  <title>  (1240) 
rxn502b____EMOL5415347____EMOL7515103____EMOL37359883

>  <variant>  (1240) 
71490-1

>  <source_file>  (1240) 
运行/运行/ATP-VSW/ATP-VSW-DOCK_HTVS_1-002_lib.maegz

>  <canonical_smiles>  (1240) 
C[NH+](C)Cc1ccccc1C(=O)Nc1ncc(N(CC#N)c2ccc(Cl)cc2)c2ccccc12

>  <scaffold>  (1240) 
O=C(Nc1ncc(Nc2ccccc2)c2ccccc12)c1ccccc1

>  <molecular_formula>  (1240) 
C27H25ClN5O+

$$$$
ATP-HTVS-C40016FC0CB2
     RDKit          3D

 59 62  0  0  0  0  0  0  0  0999 V2000
  199.4926  180.0921  151.8328 S   0  0  0  0  0  0  0  0  0  0  0  0
  198.3723  181.3641  151.3795 C   0  0  0  0  0  0  0  0  0  0  0  0
  197.7849  181.9744  152.5476 C   0  0  0  0  0  0  0  0  0  0  0  0
  196.8765  183.0379  152.2991 C   0  0  0  0  0  0  0  0  0  0  0  0
  196.5526  183.4496  150.9951 C   0  0  0  0  0  0  0  0  0  0  0  0
  197.1475  182.8481  149.8674 C   0  0  0  0  0  0  0  0  0  0  0  0
  198.0744  181.7980  150.0558 C   0  0  0  0  0  0  0  0  0  0  0  0
  198.2810  181.3453  153.7744 C   0  0  0  0  0  0  0  0  0  0  0  0
  197.8967  181.7095  155.0661 N   0  0  0  0  0  0  0  0  0  0  0  0
  196.6051  182.2473  155.4323 C   0  0  1  0  0  0  0  0  0  0  0  0
  196.7592  183.2113  156.5823 C   0  0  0  0  0  0  0  0  0  0  0  0
  197.3574  184.4625  156.3391 C   0  0  0  0  0  0  0  0  0  0  0  0
  197.4607  185.4274  157.3527 C   0  0  0  0  0  0  0  0  0  0  0  0
  196.9846  185.1339  158.6519 C   0  0  0  0  0  0  0  0  0  0  0  0
  197.0576  186.0705  159.6932 N   0  0  0  0  0  0  0  0  0  0  0  0
  197.8086  187.3077  159.5394 C   0  0  1  0  0  0  0  0  0  0  0  0
  197.1139  188.4682  160.2579 C   0  0  1  0  0  0  0  0  0  0  0  0
  197.9438  189.6054  160.1473 O   0  0  0  0  0  0  0  0  0  0  0  0
  196.4169  183.8512  158.9137 C   0  0  0  0  0  0  0  0  0  0  0  0
  196.3147  182.8818  157.8800 C   0  0  0  0  0  0  0  0  0  0  0  0
  199.1693  180.3271  153.5190 C   0  0  0  0  0  0  0  0  0  0  0  0
  199.9341  179.4283  154.4208 C   0  0  0  0  0  0  0  0  0  0  0  0
  201.1617  179.3975  154.3192 O   0  0  0  0  0  0  0  0  0  0  0  0
  199.2465  178.6471  155.3062 N   0  0  0  0  0  0  0  0  0  0  0  0
  199.9323  177.6805  156.1861 C   0  0  1  0  0  0  0  0  0  0  0  0
  200.7042  176.5616  155.4793 C   0  0  0  0  0  0  0  0  0  0  0  0
  201.5484  175.7236  156.2430 C   0  0  0  0  0  0  0  0  0  0  0  0
  202.3093  174.7148  155.6126 C   0  0  0  0  0  0  0  0  0  0  0  0
  202.2369  174.5398  154.2146 C   0  0  0  0  0  0  0  0  0  0  0  0
  202.9780  173.5869  153.6006 F   0  0  0  0  0  0  0  0  0  0  0  0
  201.3862  175.3614  153.4516 C   0  0  0  0  0  0  0  0  0  0  0  0
  200.6076  176.3429  154.0802 C   0  0  0  0  0  0  0  0  0  0  0  0
  197.7811  178.6607  155.4218 C   0  0  2  0  0  0  0  0  0  0  0  0
  196.4233  183.5881  153.0845 H   0  0  0  0  0  0  0  0  0  0  0  0
  195.8420  184.2531  150.8721 H   0  0  0  0  0  0  0  0  0  0  0  0
  196.9151  183.2063  148.8682 H   0  0  0  0  0  0  0  0  0  0  0  0
  198.5779  181.3407  149.2048 H   0  0  0  0  0  0  0  0  0  0  0  0
  198.2806  181.0816  155.7680 H   0  0  0  0  0  0  0  0  0  0  0  0
  196.1130  182.7880  154.6859 H   0  0  0  0  0  0  0  0  0  0  0  0
  195.9593  181.3988  155.7394 H   0  0  0  0  0  0  0  0  0  0  0  0
  197.6833  184.6845  155.3383 H   0  0  0  0  0  0  0  0  0  0  0  0
  197.8952  186.3866  157.1036 H   0  0  0  0  0  0  0  0  0  0  0  0
  196.7538  185.7753  160.6048 H   0  0  0  0  0  0  0  0  0  0  0  0
  198.8084  187.1574  159.9436 H   0  0  0  0  0  0  0  0  0  0  0  0
  197.9157  187.5847  158.4932 H   0  0  0  0  0  0  0  0  0  0  0  0
  196.1690  188.6869  159.7599 H   0  0  0  0  0  0  0  0  0  0  0  0
  196.9023  188.2727  161.3170 H   0  0  0  0  0  0  0  0  0  0  0  0
  198.6081  189.5508  160.8251 H   0  0  0  0  0  0  0  0  0  0  0  0
  196.0477  183.5964  159.9073 H   0  0  0  0  0  0  0  0  0  0  0  0
  195.8567  181.9132  158.0754 H   0  0  0  0  0  0  0  0  0  0  0  0
  200.6059  178.2252  156.8588 H   0  0  0  0  0  0  0  0  0  0  0  0
  199.2188  177.1826  156.8430 H   0  0  0  0  0  0  0  0  0  0  0  0
  201.6253  175.8680  157.3143 H   0  0  0  0  0  0  0  0  0  0  0  0
  202.9556  174.0782  156.1991 H   0  0  0  0  0  0  0  0  0  0  0  0
  201.3342  175.2611  152.3766 H   0  0  0  0  0  0  0  0  0  0  0  0
  199.9611  176.9328  153.4478 H   0  0  0  0  0  0  0  0  0  0  0  0
  197.4334  179.4705  156.0590 H   0  0  0  0  0  0  0  0  0  0  0  0
  197.3741  177.7931  155.9177 H   0  0  0  0  0  0  0  0  0  0  0  0
  197.3023  178.6984  154.4438 H   0  0  0  0  0  0  0  0  0  0  0  0
  1  2  1  0
  1 21  1  0
  2  3  1  0
  2  7  2  0
  3  4  2  0
  3  8  1  0
  4  5  1  0
  4 34  1  0
  5  6  2  0
  5 35  1  0
  6  7  1  0
  6 36  1  0
  7 37  1  0
  8  9  1  0
  8 21  2  0
  9 10  1  0
  9 38  1  0
 10 11  1  0
 10 39  1  6
 10 40  1  0
 11 12  1  0
 11 20  2  0
 12 13  2  0
 12 41  1  0
 13 14  1  0
 13 42  1  0
 14 15  1  0
 14 19  2  0
 15 16  1  0
 15 43  1  0
 16 17  1  0
 16 44  1  1
 16 45  1  0
 17 18  1  0
 17 46  1  6
 17 47  1  0
 18 48  1  0
 19 20  1  0
 19 49  1  0
 20 50  1  0
 21 22  1  0
 22 23  2  0
 22 24  1  0
 24 25  1  0
 24 33  1  0
 25 26  1  0
 25 51  1  1
 25 52  1  0
 26 27  1  0
 26 32  2  0
 27 28  2  0
 27 53  1  0
 28 29  1  0
 28 54  1  0
 29 30  1  0
 29 31  2  0
 31 32  1  0
 31 55  1  0
 32 56  1  0
 33 57  1  1
 33 58  1  0
 33 59  1  0
M  END
>  <s_epik_cmdline>  (1241) 
J2VwaWtfcHl0aG9uJywgJy1waCcsICc3LjAwMDAwMCcsICctcGh0JywgJzIuMDAwMDAwJywgJy1tcycsICcxNicsICctdG4nLCAnOCcsICctbWEnLCAnMjAwJywgJy1pbWFlJywgJzxpbmZpbGUubWFlPicsICctb21hZScsICc8b3V0ZmlsZS5tYWU+Jw==

>  <s_epik_input>  (1241) 
W2NIXTFbY0hdYyhGKVtjSF1bY0hdYzFbQ0gyXU4oW0NIM10pQyg9TyljKHMyKWMoYyhjMjMpW2NIXVtjSF1bY0hdW2NIXTMpW05IXVtDSDJdYzRbY0hdW2NIXWMoW2NIXVtjSF00KVtOSF1bQ0gyXVtDSDJdW09IXQ==

>  <s_i_glide_gridfile>  (1241) 
ATP-Grid

>  <s_lp_Force_Field>  (1241) 
OPLS_2005

>  <s_lp_Variant>  (1241) 
rxn512c____EMOL523557____EMOL523944____EMOL324170366-1

>  <s_lp_label>  (1241) 
2211_sdstereoexpander_1_neutralizer_1_epik_1_stereoizer_1

>  <s_m_source_file>  (1241) 
ATP-VSW-LIGPREP-001-in.maegz

>  <s_sd_BIOSOLVEIT.INFINISEE\_QUERY\_NAME>  (1241) 
Ref-Lig

>  <s_sd_BIOSOLVEIT.INFINISEE\_QUERY\_SMILES>  (1241) 
S(c1nc2c(cc1C[NH2+]Cc3ccc(cc3)C[NH+](C)C)cccc2)Cc4ccccc4

>  <s_sd_BIOSOLVEIT.INFINISEE\_REACTION\_NAME>  (1241) 
rxn512c

>  <s_sd_BIOSOLVEIT.INFINISEE\_REAGENT1\_NAME>  (1241) 
EMOL523557

>  <s_sd_BIOSOLVEIT.INFINISEE\_REAGENT1\_SMILES>  (1241) 
Fc1ccc(cc1)CNC

>  <s_sd_BIOSOLVEIT.INFINISEE\_REAGENT2\_NAME>  (1241) 
EMOL523944

>  <s_sd_BIOSOLVEIT.INFINISEE\_REAGENT2\_SMILES>  (1241) 
ClC=1c2c(SC1C(=O)O)cccc2

>  <s_sd_BIOSOLVEIT.INFINISEE\_REAGENT3\_NAME>  (1241) 
EMOL324170366

>  <s_sd_BIOSOLVEIT.INFINISEE\_REAGENT3\_SMILES>  (1241) 
OCCNc1ccc(cc1)CN

>  <s_sd_BIOSOLVEIT.INFINISEE\_SPACE>  (1241) 
eXplore_7tr_2022-12

>  <s_vsw_compound_code>  (1241) 
70721

>  <s_vsw_variant>  (1241) 
70721-1

>  <r_epik_Charging_Adjusted_Penalty>  (1241) 
0.0083718636805958195

>  <r_epik_Ionization_Penalty>  (1241) 
0.0085000000000000006

>  <r_epik_Ionization_Penalty_Charging>  (1241) 
0

>  <r_epik_Ionization_Penalty_Neutral>  (1241) 
0.0085000000000000006

>  <r_epik_State_Penalty>  (1241) 
0.0083999999999999995

>  <r_i_docking_score>  (1241) 
-3.3328216545045102

>  <r_i_glide_ecoul>  (1241) 
-4.1990418434143102

>  <r_i_glide_eff_state_penalty>  (1241) 
0.0083999999999999995

>  <r_i_glide_einternal>  (1241) 
3.3942608833313002

>  <r_i_glide_emodel>  (1241) 
-45.934098856936302

>  <r_i_glide_energy>  (1241) 
-38.484735965728802

>  <r_i_glide_erotb>  (1241) 
0.84401257378468497

>  <r_i_glide_esite>  (1241) 
-0.11258572556619199

>  <r_i_glide_evdw>  (1241) 
-34.285694122314503

>  <r_i_glide_gscore>  (1241) 
-3.3412216545045101

>  <r_i_glide_hbond>  (1241) 
-0.16

>  <r_i_glide_ligand_efficiency>  (1241) 
-0.100994595591046

>  <r_i_glide_ligand_efficiency_ln>  (1241) 
-0.74120227953481899

>  <r_i_glide_ligand_efficiency_sa>  (1241) 
-0.32394363212476701

>  <r_i_glide_lipo>  (1241) 
-1.32010713145877

>  <r_i_glide_metal>  (1241) 
-0

>  <r_i_glide_rewards>  (1241) 
-0.24840038863636299

>  <r_lp_Energy>  (1241) 
38.013055000000001

>  <r_qp_ACxDN^.5/SA>  (1241) 
0.011786899999999999

>  <r_qp_CIQPlogS>  (1241) 
-6.4989999999999997

>  <r_qp_EA(eV)>  (1241) 
0.65300000000000002

>  <r_qp_FISA>  (1241) 
106.505

>  <r_qp_FOSA>  (1241) 
167.11199999999999

>  <r_qp_IP(eV)>  (1241) 
8.0709999999999997

>  <r_qp_Jm>  (1241) 
0.0238913632061406

>  <r_qp_PISA>  (1241) 
355.95100000000002

>  <r_qp_PSA>  (1241) 
71.518000000000001

>  <r_qp_PercentHumanOralAbsorption>  (1241) 
95.998999999999995

>  <r_qp_QPPCaco>  (1241) 
241.44

>  <r_qp_QPPMDCK>  (1241) 
233.74199999999999

>  <r_qp_QPlogBB>  (1241) 
-0.47399999999999998

>  <r_qp_QPlogHERG>  (1241) 
-6.266

>  <r_qp_QPlogKhsa>  (1241) 
0.68500000000000005

>  <r_qp_QPlogKp>  (1241) 
-3.331

>  <r_qp_QPlogPC16>  (1241) 
14.439

>  <r_qp_QPlogPo/w>  (1241) 
4.5099999999999998

>  <r_qp_QPlogPoct>  (1241) 
21.494

>  <r_qp_QPlogPw>  (1241) 
10.867000000000001

>  <r_qp_QPlogS>  (1241) 
-3.9569999999999999

>  <r_qp_QPpolrz>  (1241) 
44.238

>  <r_qp_SASA>  (1241) 
683.89800000000002

>  <r_qp_SAamideO>  (1241) 
0

>  <r_qp_SAfluorine>  (1241) 
16.861000000000001

>  <r_qp_WPSA>  (1241) 
54.329000000000001

>  <r_qp_accptHB>  (1241) 
5.7000000000000002

>  <r_qp_dip^2/V>  (1241) 
0.037001399999999997

>  <r_qp_dipole>  (1241) 
7.0270000000000001

>  <r_qp_donorHB>  (1241) 
2

>  <r_qp_glob>  (1241) 
0.8572208

>  <r_qp_mol_MW>  (1241) 
463.56900000000002

>  <r_qp_volume>  (1241) 
1334.6849999999999

>  <r_sd_BIOSOLVEIT.INFINISEE\_FTREES\_SIMILARITY>  (1241) 
0.93000000000000005

>  <r_sd_BIOSOLVEIT.LOGP>  (1241) 
5.3289

>  <r_sd_BIOSOLVEIT.MOLECULAR\_WEIGHT>  (1241) 
463.57299999999998

>  <r_sd_BIOSOLVEIT.TPSA>  (1241) 
64.599999999999994

>  <i_epik_Tot_Q>  (1241) 
0

>  <i_epik_Tot_abs_Q>  (1241) 
0

>  <i_f3d_flags>  (1241) 
0

>  <i_i_glide_confnum>  (1241) 
6

>  <i_i_glide_lignum>  (1241) 
743

>  <i_i_glide_posenum>  (1241) 
17

>  <i_i_glide_rotatable_bonds>  (1241) 
11

>  <i_lp_mmshare_version>  (1241) 
65135

>  <i_m_ct_format>  (1241) 
2

>  <i_m_source_file_index>  (1241) 
2211

>  <i_qp_#NandO>  (1241) 
5

>  <i_qp_#acid>  (1241) 
0

>  <i_qp_#amide>  (1241) 
0

>  <i_qp_#amidine>  (1241) 
0

>  <i_qp_#amine>  (1241) 
1

>  <i_qp_#in34>  (1241) 
0

>  <i_qp_#in56>  (1241) 
21

>  <i_qp_#metab>  (1241) 
7

>  <i_qp_#nonHatm>  (1241) 
33

>  <i_qp_#noncon>  (1241) 
0

>  <i_qp_#ringatoms>  (1241) 
21

>  <i_qp_#rotor>  (1241) 
10

>  <i_qp_#rtvFG>  (1241) 
0

>  <i_qp_#stars>  (1241) 
0

>  <i_qp_CNS>  (1241) 
1

>  <i_qp_HumanOralAbsorption>  (1241) 
3

>  <i_qp_RuleOfFive>  (1241) 
0

>  <i_qp_RuleOfThree>  (1241) 
1

>  <i_sd_BIOSOLVEIT.INFINISEE\_RESULT\_RANK>  (1241) 
4523

>  <i_sd_version>  (1241) 
0

>  <b_lp_Chiralities_Consistent>  (1241) 
1

>  <b_sd_chiral_flag>  (1241) 
0

>  <canonical_id>  (1241) 
ATP-HTVS-C40016FC0CB2

>  <compound_code>  (1241) 
70721

>  <title>  (1241) 
rxn512c____EMOL523557____EMOL523944____EMOL324170366

>  <variant>  (1241) 
70721-1

>  <source_file>  (1241) 
运行/运行/ATP-VSW/ATP-VSW-DOCK_HTVS_1-001_lib/ATP-VSW-DOCK_HTVS_1-001_lib

>  <canonical_smiles>  (1241) 
CN(Cc1ccc(F)cc1)C(=O)c1sc2ccccc2c1NCc1ccc(NCCO)cc1

>  <scaffold>  (1241) 
O=C(NCc1ccccc1)c1sc2ccccc2c1NCc1ccccc1

>  <molecular_formula>  (1241) 
C26H26FN3O2S

$$$$
ATP-HTVS-C4138656EE80
     RDKit          3D

 64 67  0  0  0  0  0  0  0  0999 V2000
  201.1933  180.2572  157.5307 N   0  0  0  0  0  0  0  0  0  0  0  0
  201.3278  179.1232  157.3435 C   0  0  0  0  0  0  0  0  0  0  0  0
  201.5133  177.6826  157.1242 C   0  0  1  0  0  0  0  0  0  0  0  0
  200.2334  176.9554  156.6953 C   0  0  1  0  0  0  0  0  0  0  0  0
  199.5401  177.4967  155.4137 C   0  0  1  0  0  0  0  0  0  0  0  0
  198.7288  178.6861  155.6917 N   0  0  0  0  0  0  0  0  0  0  0  0
  198.1778  179.5042  154.7008 C   0  0  0  0  0  0  0  0  0  0  0  0
  198.4150  179.1728  153.3999 N   0  0  0  0  0  0  0  0  0  0  0  0
  197.9838  179.9964  152.4176 C   0  0  0  0  0  0  0  0  0  0  0  0
  197.2543  181.1739  152.7225 C   0  0  0  0  0  0  0  0  0  0  0  0
  197.0233  181.5061  154.0223 N   0  0  0  0  0  0  0  0  0  0  0  0
  197.4537  180.6794  155.0027 C   0  0  0  0  0  0  0  0  0  0  0  0
  197.1740  181.0528  156.3198 N   0  0  0  0  0  0  0  0  0  0  0  0
  196.0303  181.9392  156.5635 C   0  0  1  0  0  0  0  0  0  0  0  0
  196.1772  182.8756  157.7355 C   0  0  0  0  0  0  0  0  0  0  0  0
  197.4052  183.5479  157.9263 C   0  0  0  0  0  0  0  0  0  0  0  0
  197.6021  184.3849  159.0444 C   0  0  0  0  0  0  0  0  0  0  0  0
  196.4927  184.6552  159.8838 C   0  0  0  0  0  0  0  0  0  0  0  0
  195.2359  184.0664  159.6389 C   0  0  0  0  0  0  0  0  0  0  0  0
  195.0813  183.1627  158.5755 C   0  0  0  0  0  0  0  0  0  0  0  0
  198.9743  184.9962  159.3116 C   0  0  1  0  0  0  0  0  0  0  0  0
  200.0301  184.0611  159.7382 N   0  0  0  0  0  0  0  0  0  0  0  0
  200.4374  183.1386  158.6677 C   0  0  2  0  0  0  0  0  0  0  0  0
  201.2265  184.7876  160.1223 C   0  0  2  0  0  0  0  0  0  0  0  0
  196.7581  181.9689  151.6818 C   0  0  0  0  0  0  0  0  0  0  0  0
  197.0068  181.6317  150.3262 C   0  0  0  0  0  0  0  0  0  0  0  0
  197.7680  180.4792  150.0302 C   0  0  0  0  0  0  0  0  0  0  0  0
  198.2574  179.6785  151.0674 C   0  0  0  0  0  0  0  0  0  0  0  0
  200.5323  177.6187  154.2434 C   0  0  0  0  0  0  0  0  0  0  0  0
  200.4399  176.7485  153.1323 C   0  0  0  0  0  0  0  0  0  0  0  0
  201.2879  176.9290  152.0146 C   0  0  0  0  0  0  0  0  0  0  0  0
  202.2580  177.9617  152.0095 C   0  0  0  0  0  0  0  0  0  0  0  0
  202.3387  178.8306  153.1143 C   0  0  0  0  0  0  0  0  0  0  0  0
  201.4529  178.6911  154.1932 C   0  0  0  0  0  0  0  0  0  0  0  0
  202.2761  177.5601  156.3667 H   0  0  0  0  0  0  0  0  0  0  0  0
  201.9281  177.2590  158.0446 H   0  0  0  0  0  0  0  0  0  0  0  0
  200.4989  175.9150  156.5188 H   0  0  0  0  0  0  0  0  0  0  0  0
  199.5410  176.9330  157.5357 H   0  0  0  0  0  0  0  0  0  0  0  0
  198.8058  176.7390  155.1347 H   0  0  0  0  0  0  0  0  0  0  0  0
  198.2700  178.6494  156.6112 H   0  0  0  0  0  0  0  0  0  0  0  0
  197.2428  180.3035  156.9926 H   0  0  0  0  0  0  0  0  0  0  0  0
  195.8812  182.6369  155.7468 H   0  0  0  0  0  0  0  0  0  0  0  0
  195.1386  181.3217  156.6806 H   0  0  0  0  0  0  0  0  0  0  0  0
  198.1803  183.4135  157.1841 H   0  0  0  0  0  0  0  0  0  0  0  0
  196.6116  185.3266  160.7240 H   0  0  0  0  0  0  0  0  0  0  0  0
  194.3813  184.3171  160.2549 H   0  0  0  0  0  0  0  0  0  0  0  0
  194.1229  182.7048  158.3665 H   0  0  0  0  0  0  0  0  0  0  0  0
  199.2939  185.5588  158.4353 H   0  0  0  0  0  0  0  0  0  0  0  0
  198.8509  185.7300  160.1056 H   0  0  0  0  0  0  0  0  0  0  0  0
  201.3378  182.5719  158.9494 H   0  0  0  0  0  0  0  0  0  0  0  0
  200.6778  183.6902  157.7512 H   0  0  0  0  0  0  0  0  0  0  0  0
  199.6470  182.4167  158.4325 H   0  0  0  0  0  0  0  0  0  0  0  0
  202.0183  184.0930  160.3942 H   0  0  0  0  0  0  0  0  0  0  0  0
  201.0457  185.4191  160.9854 H   0  0  0  0  0  0  0  0  0  0  0  0
  201.5972  185.4084  159.3111 H   0  0  0  0  0  0  0  0  0  0  0  0
  196.1676  182.8376  151.9164 H   0  0  0  0  0  0  0  0  0  0  0  0
  196.6277  182.2414  149.5351 H   0  0  0  0  0  0  0  0  0  0  0  0
  197.9733  180.2103  149.0000 H   0  0  0  0  0  0  0  0  0  0  0  0
  198.8570  178.8021  150.8542 H   0  0  0  0  0  0  0  0  0  0  0  0
  199.6732  175.9869  153.0985 H   0  0  0  0  0  0  0  0  0  0  0  0
  201.1555  176.3145  151.1268 H   0  0  0  0  0  0  0  0  0  0  0  0
  202.8981  178.1265  151.1558 H   0  0  0  0  0  0  0  0  0  0  0  0
  203.0283  179.6630  153.1259 H   0  0  0  0  0  0  0  0  0  0  0  0
  201.4671  179.4640  154.9555 H   0  0  0  0  0  0  0  0  0  0  0  0
  1  2  3  0
  2  3  1  0
  3  4  1  0
  3 35  1  6
  3 36  1  0
  4  5  1  0
  4 37  1  6
  4 38  1  0
  5  6  1  0
  5 29  1  0
  5 39  1  6
  6  7  1  0
  6 40  1  0
  7  8  2  0
  7 12  1  0
  8  9  1  0
  9 10  1  0
  9 28  2  0
 10 11  1  0
 10 25  2  0
 11 12  2  0
 12 13  1  0
 13 14  1  0
 13 41  1  0
 14 15  1  0
 14 42  1  6
 14 43  1  0
 15 16  2  0
 15 20  1  0
 16 17  1  0
 16 44  1  0
 17 18  2  0
 17 21  1  0
 18 19  1  0
 18 45  1  0
 19 20  2  0
 19 46  1  0
 20 47  1  0
 21 22  1  0
 21 48  1  6
 21 49  1  0
 22 23  1  0
 22 24  1  0
 23 50  1  1
 23 51  1  0
 23 52  1  0
 24 53  1  1
 24 54  1  0
 24 55  1  0
 25 26  1  0
 25 56  1  0
 26 27  2  0
 26 57  1  0
 27 28  1  0
 27 58  1  0
 28 59  1  0
 29 30  2  0
 29 34  1  0
 30 31  1  0
 30 60  1  0
 31 32  2  0
 31 61  1  0
 32 33  1  0
 32 62  1  0
 33 34  2  0
 33 63  1  0
 34 64  1  0
M  END
>  <s_epik_cmdline>  (1242) 
J2VwaWtfcHl0aG9uJywgJy1waCcsICc3LjAwMDAwMCcsICctcGh0JywgJzIuMDAwMDAwJywgJy1tcycsICcxNicsICctdG4nLCAnOCcsICctbWEnLCAnMjAwJywgJy1pbWFlJywgJzxpbmZpbGUubWFlPicsICctb21hZScsICc8b3V0ZmlsZS5tYWU+Jw==

>  <s_epik_input>  (1242) 
W2NIXTFbY0hdW2NIXVtjSF1bY0hdYzFbQ0BASF0oW0NIMl1bQ0gyXUMjTilbTkhdYyhuMiljKG5jKGMyMylbY0hdW2NIXVtjSF1bY0hdMylbTkhdW0NIMl1jNFtjSF1jKFtjSF1bY0hdW2NIXTQpW0NIMl1OKFtDSDNdKVtDSDNd

>  <s_i_glide_gridfile>  (1242) 
ATP-Grid

>  <s_lp_Force_Field>  (1242) 
OPLS_2005

>  <s_lp_Variant>  (1242) 
m_282030aaa____21910250____23157418____21940090-3

>  <s_lp_label>  (1242) 
1145_sdstereoexpander_1_neutralizer_1_epik_2_stereoizer_1

>  <s_m_source_file>  (1242) 
ATP-VSW-LIGPREP-002-in.maegz

>  <s_sd_BIOSOLVEIT.INFINISEE\_QUERY\_NAME>  (1242) 
Ref-Lig

>  <s_sd_BIOSOLVEIT.INFINISEE\_QUERY\_SMILES>  (1242) 
S(c1nc2c(cc1C[NH2+]Cc3ccc(cc3)C[NH+](C)C)cccc2)Cc4ccccc4

>  <s_sd_BIOSOLVEIT.INFINISEE\_REACTION\_NAME>  (1242) 
m_282030aaa

>  <s_sd_BIOSOLVEIT.INFINISEE\_REAGENT1\_SMILES>  (1242) 
[R1*]NC(c1ccccc1)CCC#N

>  <s_sd_BIOSOLVEIT.INFINISEE\_REAGENT2\_SMILES>  (1242) 
[R1*]c1nc2c(nc1[R2*])cccc2

>  <s_sd_BIOSOLVEIT.INFINISEE\_REAGENT3\_SMILES>  (1242) 
[R2*]NCc1cc(ccc1)CN(C)C

>  <s_sd_BIOSOLVEIT.INFINISEE\_SPACE>  (1242) 
REALSpace_44bn_2023-08

>  <s_vsw_compound_code>  (1242) 
36610

>  <s_vsw_variant>  (1242) 
36610-3

>  <r_epik_Charging_Adjusted_Penalty>  (1242) 
1.56114245651254

>  <r_epik_Ionization_Penalty>  (1242) 
1.5613999999999999

>  <r_epik_Ionization_Penalty_Charging>  (1242) 
0

>  <r_epik_Ionization_Penalty_Neutral>  (1242) 
1.5613999999999999

>  <r_epik_State_Penalty>  (1242) 
1.5610999999999999

>  <r_i_docking_score>  (1242) 
-2.3199678963680501

>  <r_i_glide_ecoul>  (1242) 
-6.4370980262756303

>  <r_i_glide_eff_state_penalty>  (1242) 
1.5610999999999999

>  <r_i_glide_einternal>  (1242) 
5.27445363998413

>  <r_i_glide_emodel>  (1242) 
-50.034334238102502

>  <r_i_glide_energy>  (1242) 
-41.330206394195599

>  <r_i_glide_erotb>  (1242) 
0.79007302561792303

>  <r_i_glide_esite>  (1242) 
-0.19146414600650599

>  <r_i_glide_evdw>  (1242) 
-34.893108367919901

>  <r_i_glide_gscore>  (1242) 
-3.8810678963680498

>  <r_i_glide_hbond>  (1242) 
-0.229757349146609

>  <r_i_glide_ligand_efficiency>  (1242) 
-0.068234349893178003

>  <r_i_glide_ligand_efficiency_ln>  (1242) 
-0.51254598120302997

>  <r_i_glide_ligand_efficiency_sa>  (1242) 
-0.22105280490659901

>  <r_i_glide_lipo>  (1242) 
-1.11068765335401

>  <r_i_glide_metal>  (1242) 
-0

>  <r_i_glide_rewards>  (1242) 
-0.42901165114150502

>  <r_lp_Energy>  (1242) 
27.220645000000001

>  <r_qp_ACxDN^.5/SA>  (1242) 
0.012328199999999999

>  <r_qp_CIQPlogS>  (1242) 
-6.9859999999999998

>  <r_qp_EA(eV)>  (1242) 
0.92400000000000004

>  <r_qp_FISA>  (1242) 
84.861999999999995

>  <r_qp_FOSA>  (1242) 
232.60900000000001

>  <r_qp_IP(eV)>  (1242) 
8.4290000000000003

>  <r_qp_Jm>  (1242) 
0.0051234716164547797

>  <r_qp_PISA>  (1242) 
428.17099999999999

>  <r_qp_PSA>  (1242) 
71.155000000000001

>  <r_qp_PercentHumanOralAbsorption>  (1242) 
100

>  <r_qp_QPPCaco>  (1242) 
387.30599999999998

>  <r_qp_QPPMDCK>  (1242) 
196.31999999999999

>  <r_qp_QPlogBB>  (1242) 
-0.53000000000000003

>  <r_qp_QPlogHERG>  (1242) 
-7.1159999999999997

>  <r_qp_QPlogKhsa>  (1242) 
0.749

>  <r_qp_QPlogKp>  (1242) 
-2.5819999999999999

>  <r_qp_QPlogPC16>  (1242) 
15.581

>  <r_qp_QPlogPo/w>  (1242) 
4.8390000000000004

>  <r_qp_QPlogPoct>  (1242) 
22.936

>  <r_qp_QPlogPw>  (1242) 
11.907999999999999

>  <r_qp_QPlogS>  (1242) 
-5.3630000000000004

>  <r_qp_QPpolrz>  (1242) 
48.384

>  <r_qp_SASA>  (1242) 
745.64200000000005

>  <r_qp_SAamideO>  (1242) 
0

>  <r_qp_SAfluorine>  (1242) 
0

>  <r_qp_WPSA>  (1242) 
0

>  <r_qp_accptHB>  (1242) 
6.5

>  <r_qp_dip^2/V>  (1242) 
0.032418200000000001

>  <r_qp_dipole>  (1242) 
6.8259999999999996

>  <r_qp_donorHB>  (1242) 
2

>  <r_qp_glob>  (1242) 
0.82595370000000001

>  <r_qp_mol_MW>  (1242) 
450.58499999999998

>  <r_qp_volume>  (1242) 
1437.0809999999999

>  <r_sd_BIOSOLVEIT.INFINISEE\_FTREES\_SIMILARITY>  (1242) 
0.91200000000000003

>  <r_sd_BIOSOLVEIT.LOGP>  (1242) 
4.3433799999999998

>  <r_sd_BIOSOLVEIT.MOLECULAR\_WEIGHT>  (1242) 
451.59500000000003

>  <r_sd_BIOSOLVEIT.TPSA>  (1242) 
78.069999999999993

>  <i_epik_Tot_Q>  (1242) 
0

>  <i_epik_Tot_abs_Q>  (1242) 
0

>  <i_f3d_flags>  (1242) 
0

>  <i_i_glide_confnum>  (1242) 
15

>  <i_i_glide_lignum>  (1242) 
395

>  <i_i_glide_posenum>  (1242) 
14

>  <i_i_glide_rotatable_bonds>  (1242) 
10

>  <i_lp_mmshare_version>  (1242) 
65135

>  <i_m_ct_format>  (1242) 
2

>  <i_m_source_file_index>  (1242) 
1145

>  <i_qp_#NandO>  (1242) 
6

>  <i_qp_#acid>  (1242) 
0

>  <i_qp_#amide>  (1242) 
0

>  <i_qp_#amidine>  (1242) 
0

>  <i_qp_#amine>  (1242) 
1

>  <i_qp_#in34>  (1242) 
0

>  <i_qp_#in56>  (1242) 
22

>  <i_qp_#metab>  (1242) 
6

>  <i_qp_#nonHatm>  (1242) 
34

>  <i_qp_#noncon>  (1242) 
0

>  <i_qp_#ringatoms>  (1242) 
22

>  <i_qp_#rotor>  (1242) 
11

>  <i_qp_#rtvFG>  (1242) 
0

>  <i_qp_#stars>  (1242) 
0

>  <i_qp_CNS>  (1242) 
1

>  <i_qp_HumanOralAbsorption>  (1242) 
3

>  <i_qp_RuleOfFive>  (1242) 
0

>  <i_qp_RuleOfThree>  (1242) 
0

>  <i_sd_BIOSOLVEIT.INFINISEE\_REAGENT1\_NAME>  (1242) 
21910250

>  <i_sd_BIOSOLVEIT.INFINISEE\_REAGENT2\_NAME>  (1242) 
23157418

>  <i_sd_BIOSOLVEIT.INFINISEE\_REAGENT3\_NAME>  (1242) 
21940090

>  <i_sd_BIOSOLVEIT.INFINISEE\_RESULT\_RANK>  (1242) 
36431

>  <i_sd_version>  (1242) 
0

>  <b_lp_Chiralities_Consistent>  (1242) 
1

>  <b_sd_chiral_flag>  (1242) 
0

>  <canonical_id>  (1242) 
ATP-HTVS-C4138656EE80

>  <compound_code>  (1242) 
36610

>  <title>  (1242) 
m_282030aaa____21910250____23157418____21940090

>  <variant>  (1242) 
36610-3

>  <source_file>  (1242) 
运行/运行/ATP-VSW/ATP-VSW-DOCK_HTVS_1-002_lib.maegz

>  <canonical_smiles>  (1242) 
CN(C)Cc1cccc(CNc2nc3ccccc3nc2N[C@H](CCC#N)c2ccccc2)c1

>  <scaffold>  (1242) 
c1ccc(CNc2nc3ccccc3nc2NCc2ccccc2)cc1

>  <molecular_formula>  (1242) 
C28H30N6

$$$$
ATP-HTVS-C445C351F9C8
     RDKit          3D

 52 55  0  0  0  0  0  0  0  0999 V2000
  197.2553  185.0468  157.7590 Cl  0  0  0  0  0  0  0  0  0  0  0  0
  197.5205  183.6470  156.7710 C   0  0  0  0  0  0  0  0  0  0  0  0
  197.0231  182.3678  157.1124 C   0  0  0  0  0  0  0  0  0  0  0  0
  197.3723  181.2630  156.2860 C   0  0  0  0  0  0  0  0  0  0  0  0
  198.1692  181.4370  155.1318 C   0  0  0  0  0  0  0  0  0  0  0  0
  198.5137  180.2645  154.4060 N   0  0  0  0  0  0  0  0  0  0  0  0
  199.0010  180.1608  153.1534 C   0  0  0  0  0  0  0  0  0  0  0  0
  199.1958  181.1070  152.3902 O   0  0  0  0  0  0  0  0  0  0  0  0
  199.2720  178.7475  152.7206 C   0  0  0  0  0  0  0  0  0  0  0  0
  198.8148  178.2157  151.4808 C   0  0  0  0  0  0  0  0  0  0  0  0
  199.1691  176.8797  151.1582 C   0  0  0  0  0  0  0  0  0  0  0  0
  199.9140  176.1103  151.9993 N   0  0  0  0  0  0  0  0  0  0  0  0
  200.3484  176.5963  153.1724 C   0  0  0  0  0  0  0  0  0  0  0  0
  201.1547  175.6664  154.0240 C   0  0  0  0  0  0  0  0  0  0  0  0
  201.4899  174.4790  153.4675 N   0  0  0  0  0  0  0  0  0  0  0  0
  202.2254  173.5887  154.1786 C   0  0  0  0  0  0  0  0  0  0  0  0
  202.6775  173.8396  155.4812 C   0  0  0  0  0  0  0  0  0  0  0  0
  202.3352  175.0690  156.0761 C   0  0  0  0  0  0  0  0  0  0  0  0
  201.5687  175.9908  155.3450 C   0  0  0  0  0  0  0  0  0  0  0  0
  200.0409  177.9213  153.5661 C   0  0  0  0  0  0  0  0  0  0  0  0
  198.7384  176.3199  149.9423 C   0  0  0  0  0  0  0  0  0  0  0  0
  197.9541  177.0584  149.0381 C   0  0  0  0  0  0  0  0  0  0  0  0
  197.5869  178.3776  149.3570 C   0  0  0  0  0  0  0  0  0  0  0  0
  198.0096  178.9518  150.5715 C   0  0  0  0  0  0  0  0  0  0  0  0
  198.6224  182.7326  154.7950 C   0  0  0  0  0  0  0  0  0  0  0  0
  198.2825  183.8251  155.6071 C   0  0  0  0  0  0  0  0  0  0  0  0
  196.1630  182.1218  158.3494 C   0  0  1  0  0  0  0  0  0  0  0  0
  194.7372  182.5308  158.1335 N   0  0  1  0  0  0  0  0  0  0  0  0
  193.7755  181.4219  158.3147 C   0  0  2  0  0  0  0  0  0  0  0  0
  194.3336  183.6972  158.9529 C   0  0  2  0  0  0  0  0  0  0  0  0
  197.0551  180.2648  156.5348 H   0  0  0  0  0  0  0  0  0  0  0  0
  198.3213  179.3871  154.8727 H   0  0  0  0  0  0  0  0  0  0  0  0
  202.4521  172.6547  153.6856 H   0  0  0  0  0  0  0  0  0  0  0  0
  203.2551  173.1041  156.0154 H   0  0  0  0  0  0  0  0  0  0  0  0
  202.6552  175.3004  157.0810 H   0  0  0  0  0  0  0  0  0  0  0  0
  201.3097  176.9297  155.8115 H   0  0  0  0  0  0  0  0  0  0  0  0
  200.4083  178.3141  154.5000 H   0  0  0  0  0  0  0  0  0  0  0  0
  199.0176  175.3040  149.7034 H   0  0  0  0  0  0  0  0  0  0  0  0
  197.6275  176.6125  148.1089 H   0  0  0  0  0  0  0  0  0  0  0  0
  196.9792  178.9482  148.6690 H   0  0  0  0  0  0  0  0  0  0  0  0
  197.7016  179.9647  150.7812 H   0  0  0  0  0  0  0  0  0  0  0  0
  199.2593  182.9126  153.9415 H   0  0  0  0  0  0  0  0  0  0  0  0
  198.6468  184.8113  155.3544 H   0  0  0  0  0  0  0  0  0  0  0  0
  196.2345  181.0710  158.6211 H   0  0  0  0  0  0  0  0  0  0  0  0
  196.6055  182.6373  159.2125 H   0  0  0  0  0  0  0  0  0  0  0  0
  193.8172  181.0182  159.3286 H   0  0  0  0  0  0  0  0  0  0  0  0
  193.9522  180.6133  157.6056 H   0  0  0  0  0  0  0  0  0  0  0  0
  192.7558  181.7689  158.1242 H   0  0  0  0  0  0  0  0  0  0  0  0
  194.3894  183.4659  160.0143 H   0  0  0  0  0  0  0  0  0  0  0  0
  193.3080  183.9962  158.7323 H   0  0  0  0  0  0  0  0  0  0  0  0
  194.9747  184.5738  158.7667 H   0  0  0  0  0  0  0  0  0  0  0  0
  194.6213  182.7567  157.1529 H   0  0  0  0  0  0  0  0  0  0  0  0
  1  2  1  0
  2  3  2  0
  2 26  1  0
  3  4  1  0
  3 27  1  0
  4  5  2  0
  4 31  1  0
  5  6  1  0
  5 25  1  0
  6  7  1  0
  6 32  1  0
  7  8  2  0
  7  9  1  0
  9 10  1  0
  9 20  2  0
 10 11  1  0
 10 24  2  0
 11 12  1  0
 11 21  2  0
 12 13  2  0
 13 14  1  0
 13 20  1  0
 14 15  1  0
 14 19  2  0
 15 16  2  0
 16 17  1  0
 16 33  1  0
 17 18  2  0
 17 34  1  0
 18 19  1  0
 18 35  1  0
 19 36  1  0
 20 37  1  0
 21 22  1  0
 21 38  1  0
 22 23  2  0
 22 39  1  0
 23 24  1  0
 23 40  1  0
 24 41  1  0
 25 26  2  0
 25 42  1  0
 26 43  1  0
 27 28  1  0
 27 44  1  1
 27 45  1  0
 28 29  1  0
 28 30  1  0
 28 52  1  6
 29 46  1  1
 29 47  1  0
 29 48  1  0
 30 49  1  1
 30 50  1  0
 30 51  1  0
M  CHG  1  28   1
M  END
>  <s_epik_cmdline>  (1243) 
J2VwaWtfcHl0aG9uJywgJy1waCcsICc3LjAwMDAwMCcsICctcGh0JywgJzIuMDAwMDAwJywgJy1tcycsICcxNicsICctdG4nLCAnOCcsICctbWEnLCAnMjAwJywgJy1pbWFlJywgJzxpbmZpbGUubWFlPicsICctb21hZScsICc8b3V0ZmlsZS5tYWU+Jw==

>  <s_epik_input>  (1243) 
W0NIM11OKFtDSDNdKVtDSDJdYyhjMUNsKVtjSF1jKFtjSF1bY0hdMSlbTkhdQyg9TyljMltjSF1jKG5jKGMyMylbY0hdW2NIXVtjSF1bY0hdMyktYzRuW2NIXVtjSF1bY0hdW2NIXTQ=

>  <s_i_glide_gridfile>  (1243) 
ATP-Grid

>  <s_lp_Force_Field>  (1243) 
OPLS_2005

>  <s_lp_Variant>  (1243) 
m_527dbb____9746914____156471-1

>  <s_lp_label>  (1243) 
1500_sdstereoexpander_1_neutralizer_1_epik_1_stereoizer_1

>  <s_m_source_file>  (1243) 
ATP-VSW-LIGPREP-002-in.maegz

>  <s_sd_BIOSOLVEIT.INFINISEE\_QUERY\_NAME>  (1243) 
Ref-Lig

>  <s_sd_BIOSOLVEIT.INFINISEE\_QUERY\_SMILES>  (1243) 
S(c1nc2c(cc1C[NH2+]Cc3ccc(cc3)C[NH+](C)C)cccc2)Cc4ccccc4

>  <s_sd_BIOSOLVEIT.INFINISEE\_REACTION\_NAME>  (1243) 
m_527dbb

>  <s_sd_BIOSOLVEIT.INFINISEE\_REAGENT1\_SMILES>  (1243) 
[R1*]Nc1cc(c(Cl)cc1)CN(C)C

>  <s_sd_BIOSOLVEIT.INFINISEE\_REAGENT2\_SMILES>  (1243) 
[R1*]C(=O)c1c2c(nc(c3ncccc3)c1)cccc2

>  <s_sd_BIOSOLVEIT.INFINISEE\_SPACE>  (1243) 
REALSpace_44bn_2023-08

>  <s_vsw_compound_code>  (1243) 
47970

>  <s_vsw_variant>  (1243) 
47970-1

>  <r_epik_Charging_Adjusted_Penalty>  (1243) 
0.12769097181154601

>  <r_epik_Ionization_Penalty>  (1243) 
0.064600000000000005

>  <r_epik_Ionization_Penalty_Charging>  (1243) 
0.063799999999999996

>  <r_epik_Ionization_Penalty_Neutral>  (1243) 
0.00069999999999999999

>  <r_epik_State_Penalty>  (1243) 
0.063799999999999996

>  <r_i_docking_score>  (1243) 
-5.1330809024566104

>  <r_i_glide_ecoul>  (1243) 
-9.9739351272583008

>  <r_i_glide_eff_state_penalty>  (1243) 
0.063799999999999996

>  <r_i_glide_einternal>  (1243) 
5.5757250785827601

>  <r_i_glide_emodel>  (1243) 
-63.645639214806401

>  <r_i_glide_energy>  (1243) 
-45.438908576965297

>  <r_i_glide_erotb>  (1243) 
0.56597639060281502

>  <r_i_glide_esite>  (1243) 
-0.11487174439422999

>  <r_i_glide_evdw>  (1243) 
-35.464973449707003

>  <r_i_glide_gscore>  (1243) 
-5.1968809024566101

>  <r_i_glide_hbond>  (1243) 
-0.20000000000000001

>  <r_i_glide_ligand_efficiency>  (1243) 
-0.171102696748554

>  <r_i_glide_ligand_efficiency_ln>  (1243) 
-1.16629191043417

>  <r_i_glide_ligand_efficiency_sa>  (1243) 
-0.53165586059071701

>  <r_i_glide_lipo>  (1243) 
-1.6189446525456499

>  <r_i_glide_metal>  (1243) 
-0

>  <r_i_glide_rewards>  (1243) 
-0.55970195454545302

>  <r_lp_Energy>  (1243) 
31.273105999999999

>  <r_qp_ACxDN^.5/SA>  (1243) 
0.0086797999999999997

>  <r_qp_CIQPlogS>  (1243) 
-5.359

>  <r_qp_EA(eV)>  (1243) 
1.325

>  <r_qp_FISA>  (1243) 
59.311

>  <r_qp_FOSA>  (1243) 
170.785

>  <r_qp_IP(eV)>  (1243) 
8.8010000000000002

>  <r_qp_Jm>  (1243) 
0.0025579593520035698

>  <r_qp_PISA>  (1243) 
467.10300000000001

>  <r_qp_PSA>  (1243) 
58.378999999999998

>  <r_qp_PercentHumanOralAbsorption>  (1243) 
100

>  <r_qp_QPPCaco>  (1243) 
676.63599999999997

>  <r_qp_QPPMDCK>  (1243) 
688.452

>  <r_qp_QPlogBB>  (1243) 
0.13200000000000001

>  <r_qp_QPlogHERG>  (1243) 
-8.1029999999999998

>  <r_qp_QPlogKhsa>  (1243) 
0.68600000000000005

>  <r_qp_QPlogKp>  (1243) 
-2.5499999999999998

>  <r_qp_QPlogPC16>  (1243) 
14.901

>  <r_qp_QPlogPo/w>  (1243) 
4.6219999999999999

>  <r_qp_QPlogPoct>  (1243) 
21.361000000000001

>  <r_qp_QPlogPw>  (1243) 
11.884

>  <r_qp_QPlogS>  (1243) 
-5.6619999999999999

>  <r_qp_QPpolrz>  (1243) 
47.856000000000002

>  <r_qp_SASA>  (1243) 
748.86199999999997

>  <r_qp_SAamideO>  (1243) 
0

>  <r_qp_SAfluorine>  (1243) 
0

>  <r_qp_WPSA>  (1243) 
51.662999999999997

>  <r_qp_accptHB>  (1243) 
6.5

>  <r_qp_dip^2/V>  (1243) 
0.028263300000000002

>  <r_qp_dipole>  (1243) 
6.1040000000000001

>  <r_qp_donorHB>  (1243) 
1

>  <r_qp_glob>  (1243) 
0.77645370000000002

>  <r_qp_mol_MW>  (1243) 
416.90899999999999

>  <r_qp_volume>  (1243) 
1318.3420000000001

>  <r_sd_BIOSOLVEIT.INFINISEE\_FTREES\_SIMILARITY>  (1243) 
0.90700000000000003

>  <r_sd_BIOSOLVEIT.LOGP>  (1243) 
3.847

>  <r_sd_BIOSOLVEIT.MOLECULAR\_WEIGHT>  (1243) 
417.91800000000001

>  <r_sd_BIOSOLVEIT.TPSA>  (1243) 
59.32

>  <i_epik_Tot_Q>  (1243) 
1

>  <i_epik_Tot_abs_Q>  (1243) 
1

>  <i_f3d_flags>  (1243) 
0

>  <i_i_glide_confnum>  (1243) 
1

>  <i_i_glide_lignum>  (1243) 
513

>  <i_i_glide_posenum>  (1243) 
6

>  <i_i_glide_rotatable_bonds>  (1243) 
6

>  <i_lp_mmshare_version>  (1243) 
65135

>  <i_m_ct_format>  (1243) 
2

>  <i_m_source_file_index>  (1243) 
1500

>  <i_qp_#NandO>  (1243) 
5

>  <i_qp_#acid>  (1243) 
0

>  <i_qp_#amide>  (1243) 
0

>  <i_qp_#amidine>  (1243) 
0

>  <i_qp_#amine>  (1243) 
1

>  <i_qp_#in34>  (1243) 
0

>  <i_qp_#in56>  (1243) 
22

>  <i_qp_#metab>  (1243) 
3

>  <i_qp_#nonHatm>  (1243) 
30

>  <i_qp_#noncon>  (1243) 
0

>  <i_qp_#ringatoms>  (1243) 
22

>  <i_qp_#rotor>  (1243) 
5

>  <i_qp_#rtvFG>  (1243) 
0

>  <i_qp_#stars>  (1243) 
1

>  <i_qp_CNS>  (1243) 
1

>  <i_qp_HumanOralAbsorption>  (1243) 
3

>  <i_qp_RuleOfFive>  (1243) 
0

>  <i_qp_RuleOfThree>  (1243) 
0

>  <i_sd_BIOSOLVEIT.INFINISEE\_REAGENT1\_NAME>  (1243) 
9746914

>  <i_sd_BIOSOLVEIT.INFINISEE\_REAGENT2\_NAME>  (1243) 
156471

>  <i_sd_BIOSOLVEIT.INFINISEE\_RESULT\_RANK>  (1243) 
59393

>  <i_sd_version>  (1243) 
0

>  <b_lp_Chiralities_Consistent>  (1243) 
1

>  <b_sd_chiral_flag>  (1243) 
0

>  <canonical_id>  (1243) 
ATP-HTVS-C445C351F9C8

>  <compound_code>  (1243) 
47970

>  <title>  (1243) 
m_527dbb____9746914____156471

>  <variant>  (1243) 
47970-1

>  <source_file>  (1243) 
运行/运行/ATP-VSW/ATP-VSW-DOCK_HTVS_1-002_lib.maegz

>  <canonical_smiles>  (1243) 
C[NH+](C)Cc1cc(NC(=O)c2cc(-c3ccccn3)nc3ccccc23)ccc1Cl

>  <scaffold>  (1243) 
O=C(Nc1ccccc1)c1cc(-c2ccccn2)nc2ccccc12

>  <molecular_formula>  (1243) 
C24H22ClN4O+

$$$$
ATP-HTVS-C4778BDFFC37
     RDKit          3D

 52 55  0  0  0  0  0  0  0  0999 V2000
  196.1330  187.0453  158.0864 F   0  0  0  0  0  0  0  0  0  0  0  0
  196.4282  185.7579  158.3879 C   0  0  0  0  0  0  0  0  0  0  0  0
  197.1159  184.9237  157.4657 C   0  0  0  0  0  0  0  0  0  0  0  0
  197.3684  183.5739  157.8286 C   0  0  0  0  0  0  0  0  0  0  0  0
  196.9452  183.0760  159.0742 C   0  0  0  0  0  0  0  0  0  0  0  0
  196.2793  183.9218  159.9783 C   0  0  0  0  0  0  0  0  0  0  0  0
  196.0231  185.2612  159.6370 C   0  0  0  0  0  0  0  0  0  0  0  0
  197.5476  185.4625  156.1263 C   0  0  0  0  0  0  0  0  0  0  0  0
  197.7514  186.6648  155.9737 O   0  0  0  0  0  0  0  0  0  0  0  0
  197.6598  184.5407  155.1500 N   0  0  0  0  0  0  0  0  0  0  0  0
  197.8834  184.7044  153.7457 C   0  0  0  0  0  0  0  0  0  0  0  0
  197.7403  183.5840  152.8822 C   0  0  0  0  0  0  0  0  0  0  0  0
  197.3849  182.2764  153.4418 C   0  0  0  0  0  0  0  0  0  0  0  0
  197.1340  181.2165  153.9924 C   0  0  0  0  0  0  0  0  0  0  0  0
  196.9273  179.9550  154.7308 C   0  0  1  0  0  0  0  0  0  0  0  0
  197.9808  179.8592  155.7612 N   0  0  1  0  0  0  0  0  0  0  0  0
  199.3669  179.7233  155.2461 C   0  0  1  0  0  0  0  0  0  0  0  0
  200.0324  178.5069  155.8321 C   0  0  0  0  0  0  0  0  0  0  0  0
  200.1492  177.3286  155.0643 C   0  0  0  0  0  0  0  0  0  0  0  0
  200.7700  176.1916  155.6108 C   0  0  0  0  0  0  0  0  0  0  0  0
  201.2717  176.2362  156.9259 C   0  0  0  0  0  0  0  0  0  0  0  0
  201.1485  177.4104  157.6981 C   0  0  0  0  0  0  0  0  0  0  0  0
  200.5345  178.5494  157.1470 C   0  0  0  0  0  0  0  0  0  0  0  0
  197.9543  183.7704  151.4846 C   0  0  0  0  0  0  0  0  0  0  0  0
  198.2568  185.0819  151.0152 C   0  0  0  0  0  0  0  0  0  0  0  0
  198.3726  186.1361  151.8401 N   0  0  0  0  0  0  0  0  0  0  0  0
  198.2056  185.9510  153.1589 C   0  0  0  0  0  0  0  0  0  0  0  0
  198.4456  185.3020  149.6370 C   0  0  0  0  0  0  0  0  0  0  0  0
  198.3615  184.2456  148.7156 C   0  0  0  0  0  0  0  0  0  0  0  0
  198.0747  182.9478  149.1730 C   0  0  0  0  0  0  0  0  0  0  0  0
  197.8699  182.7086  150.5473 C   0  0  0  0  0  0  0  0  0  0  0  0
  197.9300  180.6768  156.3460 H   0  0  0  0  0  0  0  0  0  0  0  0
  197.8848  182.8977  157.1653 H   0  0  0  0  0  0  0  0  0  0  0  0
  197.1319  182.0437  159.3330 H   0  0  0  0  0  0  0  0  0  0  0  0
  195.9609  183.5433  160.9346 H   0  0  0  0  0  0  0  0  0  0  0  0
  195.5055  185.9168  160.3247 H   0  0  0  0  0  0  0  0  0  0  0  0
  197.4801  183.5929  155.4452 H   0  0  0  0  0  0  0  0  0  0  0  0
  195.9485  179.9784  155.2066 H   0  0  0  0  0  0  0  0  0  0  0  0
  196.9750  179.1052  154.0479 H   0  0  0  0  0  0  0  0  0  0  0  0
  199.4048  179.6205  154.1600 H   0  0  0  0  0  0  0  0  0  0  0  0
  199.9462  180.6148  155.4877 H   0  0  0  0  0  0  0  0  0  0  0  0
  199.7663  177.2890  154.0542 H   0  0  0  0  0  0  0  0  0  0  0  0
  200.8642  175.2903  155.0264 H   0  0  0  0  0  0  0  0  0  0  0  0
  201.7505  175.3604  157.3331 H   0  0  0  0  0  0  0  0  0  0  0  0
  201.5255  177.4430  158.7071 H   0  0  0  0  0  0  0  0  0  0  0  0
  200.4420  179.4487  157.7366 H   0  0  0  0  0  0  0  0  0  0  0  0
  198.3177  186.8653  153.7223 H   0  0  0  0  0  0  0  0  0  0  0  0
  198.6774  186.3026  149.3012 H   0  0  0  0  0  0  0  0  0  0  0  0
  198.5227  184.4353  147.6639 H   0  0  0  0  0  0  0  0  0  0  0  0
  198.0205  182.1310  148.4678 H   0  0  0  0  0  0  0  0  0  0  0  0
  197.6591  181.6964  150.8594 H   0  0  0  0  0  0  0  0  0  0  0  0
  197.7734  179.0690  156.3703 H   0  0  0  0  0  0  0  0  0  0  0  0
  1  2  1  0
  2  3  1  0
  2  7  2  0
  3  4  2  0
  3  8  1  0
  4  5  1  0
  4 33  1  0
  5  6  2  0
  5 34  1  0
  6  7  1  0
  6 35  1  0
  7 36  1  0
  8  9  2  0
  8 10  1  0
 10 11  1  0
 10 37  1  0
 11 12  2  0
 11 27  1  0
 12 13  1  0
 12 24  1  0
 13 14  3  0
 14 15  1  0
 15 16  1  0
 15 38  1  1
 15 39  1  0
 16 17  1  0
 16 32  1  1
 16 52  1  0
 17 18  1  0
 17 40  1  6
 17 41  1  0
 18 19  2  0
 18 23  1  0
 19 20  1  0
 19 42  1  0
 20 21  2  0
 20 43  1  0
 21 22  1  0
 21 44  1  0
 22 23  2  0
 22 45  1  0
 23 46  1  0
 24 25  1  0
 24 31  2  0
 25 26  1  0
 25 28  2  0
 26 27  2  0
 27 47  1  0
 28 29  1  0
 28 48  1  0
 29 30  2  0
 29 49  1  0
 30 31  1  0
 30 50  1  0
 31 51  1  0
M  CHG  1  16   1
M  END
>  <s_epik_cmdline>  (1244) 
J2VwaWtfcHl0aG9uJywgJy1waCcsICc3LjAwMDAwMCcsICctcGh0JywgJzIuMDAwMDAwJywgJy1tcycsICcxNicsICctdG4nLCAnOCcsICctbWEnLCAnMjAwJywgJy1pbWFlJywgJzxpbmZpbGUubWFlPicsICctb21hZScsICc8b3V0ZmlsZS5tYWU+Jw==

>  <s_epik_input>  (1244) 
W2NIXTFbY0hdW2NIXVtjSF1jKGMxRilDKD1PKVtOSF1jKFtjSF1uYyhjMjMpW2NIXVtjSF1bY0hdW2NIXTMpYzJDI0NbQ0gyXVtOSF1bQ0gyXWM0W2NIXVtjSF1bY0hdW2NIXVtjSF00

>  <s_i_glide_gridfile>  (1244) 
ATP-Grid

>  <s_lp_Force_Field>  (1244) 
OPLS_2005

>  <s_lp_Variant>  (1244) 
rxn503b____EMOL505868____EMOL30488121____EMOL1197208-2

>  <s_lp_label>  (1244) 
2371_sdstereoexpander_1_neutralizer_1_epik_2_stereoizer_1

>  <s_m_source_file>  (1244) 
ATP-VSW-LIGPREP-003-in.maegz

>  <s_sd_BIOSOLVEIT.INFINISEE\_QUERY\_NAME>  (1244) 
Ref-Lig

>  <s_sd_BIOSOLVEIT.INFINISEE\_QUERY\_SMILES>  (1244) 
S(c1nc2c(cc1C[NH2+]Cc3ccc(cc3)C[NH+](C)C)cccc2)Cc4ccccc4

>  <s_sd_BIOSOLVEIT.INFINISEE\_REACTION\_NAME>  (1244) 
rxn503b

>  <s_sd_BIOSOLVEIT.INFINISEE\_REAGENT1\_NAME>  (1244) 
EMOL505868

>  <s_sd_BIOSOLVEIT.INFINISEE\_REAGENT1\_SMILES>  (1244) 
Fc1c(cccc1)C(=O)O

>  <s_sd_BIOSOLVEIT.INFINISEE\_REAGENT2\_NAME>  (1244) 
EMOL30488121

>  <s_sd_BIOSOLVEIT.INFINISEE\_REAGENT2\_SMILES>  (1244) 
Brc1c(N)cnc2c1cccc2

>  <s_sd_BIOSOLVEIT.INFINISEE\_REAGENT3\_NAME>  (1244) 
EMOL1197208

>  <s_sd_BIOSOLVEIT.INFINISEE\_REAGENT3\_SMILES>  (1244) 
N(CC#C)Cc1ccccc1

>  <s_sd_BIOSOLVEIT.INFINISEE\_SPACE>  (1244) 
eXplore_7tr_2022-12

>  <s_vsw_compound_code>  (1244) 
75843

>  <s_vsw_variant>  (1244) 
75843-2

>  <r_epik_Charging_Adjusted_Penalty>  (1244) 
1.1372904760564899

>  <r_epik_Ionization_Penalty>  (1244) 
0.56879999999999997

>  <r_epik_Ionization_Penalty_Charging>  (1244) 
0.56859999999999999

>  <r_epik_Ionization_Penalty_Neutral>  (1244) 
0.0001

>  <r_epik_State_Penalty>  (1244) 
0.56859999999999999

>  <r_i_docking_score>  (1244) 
-4.6861360522995898

>  <r_i_glide_ecoul>  (1244) 
-6.2508773803710902

>  <r_i_glide_eff_state_penalty>  (1244) 
0.56859999999999999

>  <r_i_glide_einternal>  (1244) 
9.7315425872802699

>  <r_i_glide_emodel>  (1244) 
-57.600038393426701

>  <r_i_glide_energy>  (1244) 
-42.818954467773402

>  <r_i_glide_erotb>  (1244) 
0.81851405372922603

>  <r_i_glide_esite>  (1244) 
-0.095386539173145504

>  <r_i_glide_evdw>  (1244) 
-36.568077087402301

>  <r_i_glide_gscore>  (1244) 
-5.2547360522995898

>  <r_i_glide_hbond>  (1244) 
-0.11115317949956501

>  <r_i_glide_ligand_efficiency>  (1244) 
-0.15116567910643799

>  <r_i_glide_ligand_efficiency_ln>  (1244) 
-1.0568672926163101

>  <r_i_glide_ligand_efficiency_sa>  (1244) 
-0.474868939107007

>  <r_i_glide_lipo>  (1244) 
-1.80755750862718

>  <r_i_glide_metal>  (1244) 
-0

>  <r_i_glide_rewards>  (1244) 
-1.2931174173031399

>  <r_lp_Energy>  (1244) 
27.865753000000002

>  <r_qp_ACxDN^.5/SA>  (1244) 
0.0104449

>  <r_qp_CIQPlogS>  (1244) 
-5.7320000000000002

>  <r_qp_EA(eV)>  (1244) 
1.2030000000000001

>  <r_qp_FISA>  (1244) 
61.292000000000002

>  <r_qp_FOSA>  (1244) 
87.704999999999998

>  <r_qp_IP(eV)>  (1244) 
8.6600000000000001

>  <r_qp_Jm>  (1244) 
0.068529980622451594

>  <r_qp_PISA>  (1244) 
491.608

>  <r_qp_PSA>  (1244) 
59.481000000000002

>  <r_qp_PercentHumanOralAbsorption>  (1244) 
100

>  <r_qp_QPPCaco>  (1244) 
647.98500000000001

>  <r_qp_QPPMDCK>  (1244) 
541.81899999999996

>  <r_qp_QPlogBB>  (1244) 
0.044999999999999998

>  <r_qp_QPlogHERG>  (1244) 
-7.258

>  <r_qp_QPlogKhsa>  (1244) 
0.74099999999999999

>  <r_qp_QPlogKp>  (1244) 
-2.3079999999999998

>  <r_qp_QPlogPC16>  (1244) 
14.082000000000001

>  <r_qp_QPlogPo/w>  (1244) 
4.7450000000000001

>  <r_qp_QPlogPoct>  (1244) 
21.454999999999998

>  <r_qp_QPlogPw>  (1244) 
11.432

>  <r_qp_QPlogS>  (1244) 
-4.468

>  <r_qp_QPpolrz>  (1244) 
44.704000000000001

>  <r_qp_SASA>  (1244) 
676.98699999999997

>  <r_qp_SAamideO>  (1244) 
0

>  <r_qp_SAfluorine>  (1244) 
36.381999999999998

>  <r_qp_WPSA>  (1244) 
36.381999999999998

>  <r_qp_accptHB>  (1244) 
5

>  <r_qp_dip^2/V>  (1244) 
0.0576517

>  <r_qp_dipole>  (1244) 
8.5429999999999993

>  <r_qp_donorHB>  (1244) 
2

>  <r_qp_glob>  (1244) 
0.83591879999999996

>  <r_qp_mol_MW>  (1244) 
409.46199999999999

>  <r_qp_volume>  (1244) 
1265.8119999999999

>  <r_sd_BIOSOLVEIT.INFINISEE\_FTREES\_SIMILARITY>  (1244) 
0.91900000000000004

>  <r_sd_BIOSOLVEIT.LOGP>  (1244) 
3.7412999999999998

>  <r_sd_BIOSOLVEIT.MOLECULAR\_WEIGHT>  (1244) 
410.47000000000003

>  <r_sd_BIOSOLVEIT.TPSA>  (1244) 
58.600000000000001

>  <i_epik_Tot_Q>  (1244) 
1

>  <i_epik_Tot_abs_Q>  (1244) 
1

>  <i_f3d_flags>  (1244) 
0

>  <i_i_glide_confnum>  (1244) 
3

>  <i_i_glide_lignum>  (1244) 
996

>  <i_i_glide_posenum>  (1244) 
11

>  <i_i_glide_rotatable_bonds>  (1244) 
8

>  <i_lp_mmshare_version>  (1244) 
65135

>  <i_m_ct_format>  (1244) 
2

>  <i_m_source_file_index>  (1244) 
2371

>  <i_qp_#NandO>  (1244) 
4

>  <i_qp_#acid>  (1244) 
0

>  <i_qp_#amide>  (1244) 
0

>  <i_qp_#amidine>  (1244) 
0

>  <i_qp_#amine>  (1244) 
1

>  <i_qp_#in34>  (1244) 
0

>  <i_qp_#in56>  (1244) 
22

>  <i_qp_#metab>  (1244) 
4

>  <i_qp_#nonHatm>  (1244) 
31

>  <i_qp_#noncon>  (1244) 
0

>  <i_qp_#ringatoms>  (1244) 
22

>  <i_qp_#rotor>  (1244) 
7

>  <i_qp_#rtvFG>  (1244) 
0

>  <i_qp_#stars>  (1244) 
1

>  <i_qp_CNS>  (1244) 
1

>  <i_qp_HumanOralAbsorption>  (1244) 
3

>  <i_qp_RuleOfFive>  (1244) 
0

>  <i_qp_RuleOfThree>  (1244) 
0

>  <i_sd_BIOSOLVEIT.INFINISEE\_RESULT\_RANK>  (1244) 
17814

>  <i_sd_version>  (1244) 
0

>  <b_lp_Chiralities_Consistent>  (1244) 
1

>  <b_sd_chiral_flag>  (1244) 
0

>  <canonical_id>  (1244) 
ATP-HTVS-C4778BDFFC37

>  <compound_code>  (1244) 
75843

>  <title>  (1244) 
rxn503b____EMOL505868____EMOL30488121____EMOL1197208

>  <variant>  (1244) 
75843-2

>  <source_file>  (1244) 
运行/运行/ATP-VSW/ATP-VSW-DOCK_HTVS_1-003_lib/ATP-VSW-DOCK_HTVS_1-003_lib.mae

>  <canonical_smiles>  (1244) 
O=C(Nc1cnc2ccccc2c1C#CC[NH2+]Cc1ccccc1)c1ccccc1F

>  <scaffold>  (1244) 
O=C(Nc1cnc2ccccc2c1C#CC[NH2+]Cc1ccccc1)c1ccccc1

>  <molecular_formula>  (1244) 
C26H21FN3O+

$$$$
ATP-HTVS-C4893C1BFF55
     RDKit          3D

 56 58  0  0  0  0  0  0  0  0999 V2000
  199.7270  179.1418  152.2566 S   0  0  0  0  0  0  0  0  0  0  0  0
  198.0536  179.0670  151.6983 C   0  0  0  0  0  0  0  0  0  0  0  0
  197.1703  179.2809  152.6845 N   0  0  0  0  0  0  0  0  0  0  0  0
  197.7735  179.4335  153.9420 C   0  0  0  0  0  0  0  0  0  0  0  0
  199.1484  179.3673  153.8900 C   0  0  0  0  0  0  0  0  0  0  0  0
  196.9090  179.6122  155.1543 C   0  0  1  0  0  0  0  0  0  0  0  0
  197.5850  180.4412  156.1613 N   0  0  1  0  0  0  0  0  0  0  0  0
  197.6903  181.8715  155.7986 C   0  0  1  0  0  0  0  0  0  0  0  0
  198.2351  182.6761  156.9682 C   0  0  0  0  0  0  0  0  0  0  0  0
  197.3914  183.3944  157.8568 C   0  0  0  0  0  0  0  0  0  0  0  0
  197.9651  184.0893  158.9446 C   0  0  0  0  0  0  0  0  0  0  0  0
  199.3544  184.0635  159.1647 C   0  0  0  0  0  0  0  0  0  0  0  0
  200.1875  183.3449  158.2905 C   0  0  0  0  0  0  0  0  0  0  0  0
  199.6301  182.6582  157.1960 C   0  0  0  0  0  0  0  0  0  0  0  0
  195.8733  183.4336  157.7020 C   0  0  1  0  0  0  0  0  0  0  0  0
  195.1614  182.2247  158.1976 N   0  0  2  0  0  0  0  0  0  0  0  0
  193.7583  182.5191  158.5544 C   0  0  2  0  0  0  0  0  0  0  0  0
  195.8546  181.5090  159.2911 C   0  0  2  0  0  0  0  0  0  0  0  0
  197.6664  178.7783  150.3547 N   0  0  0  0  0  0  0  0  0  0  0  0
  198.3719  177.6743  149.7485 C   0  0  0  0  0  0  0  0  0  0  0  0
  198.7894  176.5441  150.5263 C   0  0  0  0  0  0  0  0  0  0  0  0
  199.4669  175.4556  149.9389 C   0  0  0  0  0  0  0  0  0  0  0  0
  199.7098  175.4360  148.5553 C   0  0  0  0  0  0  0  0  0  0  0  0
  199.2980  176.5409  147.7662 C   0  0  0  0  0  0  0  0  0  0  0  0
  198.6680  177.6760  148.3517 C   0  0  0  0  0  0  0  0  0  0  0  0
  196.6258  179.4370  149.7695 C   0  0  0  0  0  0  0  0  0  0  0  0
  196.0991  180.4230  150.2949 O   0  0  0  0  0  0  0  0  0  0  0  0
  196.1202  179.0277  148.3767 C   0  0  2  0  0  0  0  0  0  0  0  0
  197.0642  180.3007  157.0165 H   0  0  0  0  0  0  0  0  0  0  0  0
  199.8546  179.4183  154.7009 H   0  0  0  0  0  0  0  0  0  0  0  0
  195.9510  180.0671  154.8988 H   0  0  0  0  0  0  0  0  0  0  0  0
  196.7059  178.6471  155.6216 H   0  0  0  0  0  0  0  0  0  0  0  0
  198.3626  182.0006  154.9469 H   0  0  0  0  0  0  0  0  0  0  0  0
  196.7206  182.2340  155.4548 H   0  0  0  0  0  0  0  0  0  0  0  0
  197.3356  184.6325  159.6357 H   0  0  0  0  0  0  0  0  0  0  0  0
  199.7786  184.5872  160.0097 H   0  0  0  0  0  0  0  0  0  0  0  0
  201.2535  183.3197  158.4618 H   0  0  0  0  0  0  0  0  0  0  0  0
  200.2838  182.0965  156.5425 H   0  0  0  0  0  0  0  0  0  0  0  0
  195.5085  184.3218  158.2225 H   0  0  0  0  0  0  0  0  0  0  0  0
  195.6039  183.5594  156.6564 H   0  0  0  0  0  0  0  0  0  0  0  0
  193.7213  183.2524  159.3590 H   0  0  0  0  0  0  0  0  0  0  0  0
  193.2437  181.6127  158.8786 H   0  0  0  0  0  0  0  0  0  0  0  0
  193.1970  182.9384  157.7262 H   0  0  0  0  0  0  0  0  0  0  0  0
  196.0042  182.1957  160.1189 H   0  0  0  0  0  0  0  0  0  0  0  0
  196.8166  181.1198  158.9645 H   0  0  0  0  0  0  0  0  0  0  0  0
  195.2734  180.6658  159.6399 H   0  0  0  0  0  0  0  0  0  0  0  0
  198.5939  176.4957  151.5850 H   0  0  0  0  0  0  0  0  0  0  0  0
  199.8068  174.6300  150.5656 H   0  0  0  0  0  0  0  0  0  0  0  0
  200.1942  174.5869  148.1027 H   0  0  0  0  0  0  0  0  0  0  0  0
  199.4570  176.5134  146.6988 H   0  0  0  0  0  0  0  0  0  0  0  0
  198.4292  178.5344  147.7278 H   0  0  0  0  0  0  0  0  0  0  0  0
  196.0495  177.9568  148.2405 H   0  0  0  0  0  0  0  0  0  0  0  0
  196.8038  179.3989  147.6308 H   0  0  0  0  0  0  0  0  0  0  0  0
  195.1003  179.4288  148.2089 H   0  0  0  0  0  0  0  0  0  0  0  0
  195.1048  181.5743  157.4269 H   0  0  0  0  0  0  0  0  0  0  0  0
  198.5093  180.0647  156.3022 H   0  0  0  0  0  0  0  0  0  0  0  0
  1  2  1  0
  1  5  1  0
  2  3  2  0
  2 19  1  0
  3  4  1  0
  4  5  2  0
  4  6  1  0
  5 30  1  0
  6  7  1  0
  6 31  1  6
  6 32  1  0
  7  8  1  0
  7 29  1  1
  7 56  1  0
  8  9  1  0
  8 33  1  6
  8 34  1  0
  9 10  1  0
  9 14  2  0
 10 11  2  0
 10 15  1  0
 11 12  1  0
 11 35  1  0
 12 13  2  0
 12 36  1  0
 13 14  1  0
 13 37  1  0
 14 38  1  0
 15 16  1  0
 15 39  1  1
 15 40  1  0
 16 17  1  0
 16 18  1  0
 16 55  1  6
 17 41  1  1
 17 42  1  0
 17 43  1  0
 18 44  1  1
 18 45  1  0
 18 46  1  0
 19 20  1  0
 19 26  1  0
 20 21  2  0
 20 25  1  0
 21 22  1  0
 21 47  1  0
 22 23  2  0
 22 48  1  0
 23 24  1  0
 23 49  1  0
 24 25  2  0
 24 50  1  0
 25 51  1  0
 26 27  2  0
 26 28  1  0
 28 52  1  1
 28 53  1  0
 28 54  1  0
M  CHG  2   7   1  16   1
M  END
>  <s_epik_cmdline>  (1245) 
J2VwaWtfcHl0aG9uJywgJy1waCcsICc3LjAwMDAwMCcsICctcGh0JywgJzIuMDAwMDAwJywgJy1tcycsICcxNicsICctdG4nLCAnOCcsICctbWEnLCAnMjAwJywgJy1pbWFlJywgJzxpbmZpbGUubWFlPicsICctb21hZScsICc8b3V0ZmlsZS5tYWU+Jw==

>  <s_epik_input>  (1245) 
W2NIXTFbY0hdW2NIXVtjSF1bY0hdYzFOKEMoPU8pW0NIM10pYzJzW2NIXWMobjIpW0NIMl1bTkhdW0NIMl1jM2MoW0NIMl1OKFtDSDNdKVtDSDNdKVtjSF1bY0hdW2NIXVtjSF0z

>  <s_i_glide_gridfile>  (1245) 
ATP-Grid

>  <s_lp_Force_Field>  (1245) 
OPLS_2005

>  <s_lp_Variant>  (1245) 
m_270004bbb____8353320____12209754-1

>  <s_lp_label>  (1245) 
790_sdstereoexpander_1_neutralizer_1_epik_1_stereoizer_1

>  <s_m_source_file>  (1245) 
ATP-VSW-LIGPREP-002-in.maegz

>  <s_sd_BIOSOLVEIT.INFINISEE\_QUERY\_NAME>  (1245) 
Ref-Lig

>  <s_sd_BIOSOLVEIT.INFINISEE\_QUERY\_SMILES>  (1245) 
S(c1nc2c(cc1C[NH2+]Cc3ccc(cc3)C[NH+](C)C)cccc2)Cc4ccccc4

>  <s_sd_BIOSOLVEIT.INFINISEE\_REACTION\_NAME>  (1245) 
m_270004bbb

>  <s_sd_BIOSOLVEIT.INFINISEE\_REAGENT1\_SMILES>  (1245) 
[R1*]NCc1c(cccc1)CN(C)C

>  <s_sd_BIOSOLVEIT.INFINISEE\_REAGENT2\_SMILES>  (1245) 
[R1*]CC=1N=C(SC1)N(c2ccccc2)C(=O)C

>  <s_sd_BIOSOLVEIT.INFINISEE\_SPACE>  (1245) 
REALSpace_44bn_2023-08

>  <s_vsw_compound_code>  (1245) 
25250

>  <s_vsw_variant>  (1245) 
25250-1

>  <r_epik_Charging_Adjusted_Penalty>  (1245) 
0.49843931718293

>  <r_epik_Ionization_Penalty>  (1245) 
0.25130000000000002

>  <r_epik_Ionization_Penalty_Charging>  (1245) 
0.25130000000000002

>  <r_epik_Ionization_Penalty_Neutral>  (1245) 
0

>  <r_epik_State_Penalty>  (1245) 
0.24709999999999999

>  <r_i_docking_score>  (1245) 
-4.9952338237873901

>  <r_i_glide_ecoul>  (1245) 
-11.967536926269499

>  <r_i_glide_eff_state_penalty>  (1245) 
0.24709999999999999

>  <r_i_glide_einternal>  (1245) 
4.9173297882080096

>  <r_i_glide_emodel>  (1245) 
-65.611943804491403

>  <r_i_glide_energy>  (1245) 
-41.823194503784201

>  <r_i_glide_erotb>  (1245) 
0.87097029129834402

>  <r_i_glide_esite>  (1245) 
-0.191853239254583

>  <r_i_glide_evdw>  (1245) 
-29.855657577514599

>  <r_i_glide_gscore>  (1245) 
-5.2423338237873898

>  <r_i_glide_hbond>  (1245) 
-0.16222390794380401

>  <r_i_glide_ligand_efficiency>  (1245) 
-0.178401207992407

>  <r_i_glide_ligand_efficiency_ln>  (1245) 
-1.1530466329682501

>  <r_i_glide_ligand_efficiency_sa>  (1245) 
-0.54173114015731905

>  <r_i_glide_lipo>  (1245) 
-1.07235972695027

>  <r_i_glide_metal>  (1245) 
-0

>  <r_i_glide_rewards>  (1245) 
-1.39895382312092

>  <r_lp_Energy>  (1245) 
34.798026

>  <r_lp_tautomer_probability>  (1245) 
1

>  <r_qp_ACxDN^.5/SA>  (1245) 
0.012248500000000001

>  <r_qp_CIQPlogS>  (1245) 
-2.9550000000000001

>  <r_qp_EA(eV)>  (1245) 
0.96499999999999997

>  <r_qp_FISA>  (1245) 
35.472000000000001

>  <r_qp_FOSA>  (1245) 
229.113

>  <r_qp_IP(eV)>  (1245) 
8.5920000000000005

>  <r_qp_Jm>  (1245) 
0.432960174369933

>  <r_qp_PISA>  (1245) 
349.06599999999997

>  <r_qp_PSA>  (1245) 
51.198

>  <r_qp_PercentHumanOralAbsorption>  (1245) 
88.751000000000005

>  <r_qp_QPPCaco>  (1245) 
284.00200000000001

>  <r_qp_QPPMDCK>  (1245) 
255.59100000000001

>  <r_qp_QPlogBB>  (1245) 
0.65500000000000003

>  <r_qp_QPlogHERG>  (1245) 
-6.9279999999999999

>  <r_qp_QPlogKhsa>  (1245) 
0.113

>  <r_qp_QPlogKp>  (1245) 
-4.3010000000000002

>  <r_qp_QPlogPC16>  (1245) 
13.042999999999999

>  <r_qp_QPlogPo/w>  (1245) 
3.056

>  <r_qp_QPlogPoct>  (1245) 
19.952999999999999

>  <r_qp_QPlogPw>  (1245) 
11.5

>  <r_qp_QPlogS>  (1245) 
-1.659

>  <r_qp_QPpolrz>  (1245) 
42.061

>  <r_qp_SASA>  (1245) 
653.14099999999996

>  <r_qp_SAamideO>  (1245) 
0

>  <r_qp_SAfluorine>  (1245) 
0

>  <r_qp_WPSA>  (1245) 
39.491

>  <r_qp_accptHB>  (1245) 
8

>  <r_qp_dip^2/V>  (1245) 
0.02495

>  <r_qp_dipole>  (1245) 
5.5839999999999996

>  <r_qp_donorHB>  (1245) 
1

>  <r_qp_glob>  (1245) 
0.85913300000000004

>  <r_qp_mol_MW>  (1245) 
394.53399999999999

>  <r_qp_volume>  (1245) 
1249.838

>  <r_sd_BIOSOLVEIT.INFINISEE\_FTREES\_SIMILARITY>  (1245) 
0.92400000000000004

>  <r_sd_BIOSOLVEIT.LOGP>  (1245) 
1.7358

>  <r_sd_BIOSOLVEIT.MOLECULAR\_WEIGHT>  (1245) 
396.55500000000001

>  <r_sd_BIOSOLVEIT.TPSA>  (1245) 
54.25

>  <i_epik_Tot_Q>  (1245) 
2

>  <i_epik_Tot_abs_Q>  (1245) 
2

>  <i_f3d_flags>  (1245) 
0

>  <i_i_glide_confnum>  (1245) 
1

>  <i_i_glide_lignum>  (1245) 
242

>  <i_i_glide_posenum>  (1245) 
12

>  <i_i_glide_rotatable_bonds>  (1245) 
9

>  <i_lp_mmshare_version>  (1245) 
65135

>  <i_m_ct_format>  (1245) 
2

>  <i_m_source_file_index>  (1245) 
790

>  <i_qp_#NandO>  (1245) 
5

>  <i_qp_#acid>  (1245) 
0

>  <i_qp_#amide>  (1245) 
0

>  <i_qp_#amidine>  (1245) 
0

>  <i_qp_#amine>  (1245) 
2

>  <i_qp_#in34>  (1245) 
0

>  <i_qp_#in56>  (1245) 
17

>  <i_qp_#metab>  (1245) 
7

>  <i_qp_#nonHatm>  (1245) 
28

>  <i_qp_#noncon>  (1245) 
0

>  <i_qp_#ringatoms>  (1245) 
17

>  <i_qp_#rotor>  (1245) 
8

>  <i_qp_#rtvFG>  (1245) 
0

>  <i_qp_#stars>  (1245) 
0

>  <i_qp_CNS>  (1245) 
2

>  <i_qp_HumanOralAbsorption>  (1245) 
3

>  <i_qp_RuleOfFive>  (1245) 
0

>  <i_qp_RuleOfThree>  (1245) 
1

>  <i_sd_BIOSOLVEIT.INFINISEE\_REAGENT1\_NAME>  (1245) 
8353320

>  <i_sd_BIOSOLVEIT.INFINISEE\_REAGENT2\_NAME>  (1245) 
12209754

>  <i_sd_BIOSOLVEIT.INFINISEE\_RESULT\_RANK>  (1245) 
10586

>  <i_sd_version>  (1245) 
0

>  <b_lp_Chiralities_Consistent>  (1245) 
1

>  <b_sd_chiral_flag>  (1245) 
0

>  <canonical_id>  (1245) 
ATP-HTVS-C4893C1BFF55

>  <compound_code>  (1245) 
25250

>  <title>  (1245) 
m_270004bbb____8353320____12209754

>  <variant>  (1245) 
25250-1

>  <source_file>  (1245) 
运行/运行/ATP-VSW/ATP-VSW-DOCK_HTVS_1-002_lib.maegz

>  <canonical_smiles>  (1245) 
CC(=O)N(c1ccccc1)c1nc(C[NH2+]Cc2ccccc2C[NH+](C)C)cs1

>  <scaffold>  (1245) 
c1ccc(C[NH2+]Cc2csc(Nc3ccccc3)n2)cc1

>  <molecular_formula>  (1245) 
C22H28N4OS+2

$$$$
ATP-HTVS-C4C9929F3284
     RDKit          3D

 54 57  0  0  0  0  0  0  0  0999 V2000
  200.9569  184.4292  157.9497 F   0  0  0  0  0  0  0  0  0  0  0  0
  199.6977  184.5337  158.4743 C   0  0  0  0  0  0  0  0  0  0  0  0
  198.8231  183.4173  158.4388 C   0  0  0  0  0  0  0  0  0  0  0  0
  197.5104  183.5461  158.9595 C   0  0  0  0  0  0  0  0  0  0  0  0
  197.0961  184.7744  159.5401 C   0  0  0  0  0  0  0  0  0  0  0  0
  197.9704  185.8544  159.6582 C   0  0  0  0  0  0  0  0  0  0  0  0
  199.2485  185.7421  159.0755 C   0  0  0  0  0  0  0  0  0  0  0  0
  196.5551  182.3630  158.9681 C   0  0  1  0  0  0  0  0  0  0  0  0
  195.4794  182.4663  157.8786 C   0  0  2  0  0  0  0  0  0  0  0  0
  194.3966  181.5392  158.1354 N   0  0  2  0  0  0  0  0  0  0  0  0
  195.9780  182.1383  156.5397 C   0  0  0  0  0  0  0  0  0  0  0  0
  196.3814  181.9537  155.3962 C   0  0  0  0  0  0  0  0  0  0  0  0
  196.8457  181.8163  154.0267 C   0  0  0  0  0  0  0  0  0  0  0  0
  197.3587  182.9115  153.2775 C   0  0  0  0  0  0  0  0  0  0  0  0
  197.8176  182.7416  152.0145 N   0  0  0  0  0  0  0  0  0  0  0  0
  197.7769  181.5294  151.4287 C   0  0  0  0  0  0  0  0  0  0  0  0
  197.2605  180.3951  152.1053 C   0  0  0  0  0  0  0  0  0  0  0  0
  196.7957  180.5469  153.4242 C   0  0  0  0  0  0  0  0  0  0  0  0
  197.2137  179.1359  151.4731 C   0  0  0  0  0  0  0  0  0  0  0  0
  197.6829  178.9955  150.1538 C   0  0  0  0  0  0  0  0  0  0  0  0
  198.2011  180.1106  149.4712 C   0  0  0  0  0  0  0  0  0  0  0  0
  198.2467  181.3655  150.1090 C   0  0  0  0  0  0  0  0  0  0  0  0
  197.3783  184.1806  153.9234 N   0  0  0  0  0  0  0  0  0  0  0  0
  198.0104  185.3092  153.5638 C   0  0  0  0  0  0  0  0  0  0  0  0
  198.5445  185.5388  152.4778 O   0  0  0  0  0  0  0  0  0  0  0  0
  198.0185  186.2914  154.6311 C   0  0  0  0  0  0  0  0  0  0  0  0
  197.9984  187.0832  155.5539 C   0  0  0  0  0  0  0  0  0  0  0  0
  197.9094  188.0223  156.6719 C   0  0  0  0  0  0  0  0  0  0  0  0
  198.7510  189.1565  156.7291 C   0  0  0  0  0  0  0  0  0  0  0  0
  198.7284  189.9845  157.8768 C   0  0  0  0  0  0  0  0  0  0  0  0
  197.8794  189.6884  158.9501 C   0  0  0  0  0  0  0  0  0  0  0  0
  197.0408  188.5561  158.8865 C   0  0  0  0  0  0  0  0  0  0  0  0
  197.0722  187.7326  157.7463 C   0  0  0  0  0  0  0  0  0  0  0  0
  193.7264  181.5500  157.3898 H   0  0  0  0  0  0  0  0  0  0  0  0
  193.9833  181.6253  159.0390 H   0  0  0  0  0  0  0  0  0  0  0  0
  199.1836  182.4669  158.0557 H   0  0  0  0  0  0  0  0  0  0  0  0
  196.0791  184.8833  159.8749 H   0  0  0  0  0  0  0  0  0  0  0  0
  197.6792  186.7640  160.2155 H   0  0  0  0  0  0  0  0  0  0  0  0
  199.8896  186.6056  159.0420 H   0  0  0  0  0  0  0  0  0  0  0  0
  197.1290  181.4346  158.8829 H   0  0  0  0  0  0  0  0  0  0  0  0
  196.0822  182.3512  159.9536 H   0  0  0  0  0  0  0  0  0  0  0  0
  194.9913  183.4395  157.8637 H   0  0  0  0  0  0  0  0  0  0  0  0
  196.4019  179.6990  153.9666 H   0  0  0  0  0  0  0  0  0  0  0  0
  196.8252  178.2784  152.0022 H   0  0  0  0  0  0  0  0  0  0  0  0
  197.6546  178.0310  149.6663 H   0  0  0  0  0  0  0  0  0  0  0  0
  198.5684  180.0040  148.4606 H   0  0  0  0  0  0  0  0  0  0  0  0
  198.6478  182.2191  149.5832 H   0  0  0  0  0  0  0  0  0  0  0  0
  196.9218  184.2037  154.8211 H   0  0  0  0  0  0  0  0  0  0  0  0
  199.4241  189.3776  155.9079 H   0  0  0  0  0  0  0  0  0  0  0  0
  199.3908  190.8438  157.9343 H   0  0  0  0  0  0  0  0  0  0  0  0
  197.9323  190.2461  159.8658 H   0  0  0  0  0  0  0  0  0  0  0  0
  196.3826  188.3155  159.7289 H   0  0  0  0  0  0  0  0  0  0  0  0
  196.4237  186.8379  157.7150 H   0  0  0  0  0  0  0  0  0  0  0  0
  194.7868  180.5857  158.1230 H   0  0  0  0  0  0  0  0  0  0  0  0
  1  2  1  0
  2  3  2  0
  2  7  1  0
  3  4  1  0
  3 36  1  0
  4  5  2  0
  4  8  1  0
  5  6  1  0
  5 37  1  0
  6  7  2  0
  6 38  1  0
  7 39  1  0
  8  9  1  0
  8 40  1  6
  8 41  1  0
  9 10  1  0
  9 11  1  0
  9 42  1  6
 10 34  1  6
 10 35  1  0
 10 54  1  0
 11 12  3  0
 12 13  1  0
 13 14  1  0
 13 18  2  0
 14 15  2  0
 14 23  1  0
 15 16  1  0
 16 17  1  0
 16 22  2  0
 17 18  1  0
 17 19  2  0
 18 43  1  0
 19 20  1  0
 19 44  1  0
 20 21  2  0
 20 45  1  0
 21 22  1  0
 21 46  1  0
 22 47  1  0
 23 24  1  0
 23 48  1  0
 24 25  2  0
 24 26  1  0
 26 27  3  0
 27 28  1  0
 28 29  2  0
 28 33  1  0
 29 30  1  0
 29 49  1  0
 30 31  2  0
 30 50  1  0
 31 32  1  0
 31 51  1  0
 32 33  2  0
 32 52  1  0
 33 53  1  0
M  CHG  1  10   1
M  END
>  <s_epik_cmdline>  (1246) 
J2VwaWtfcHl0aG9uJywgJy1waCcsICc3LjAwMDAwMCcsICctcGh0JywgJzIuMDAwMDAwJywgJy1tcycsICcxNicsICctdG4nLCAnOCcsICctbWEnLCAnMjAwJywgJy1pbWFlJywgJzxpbmZpbGUubWFlPicsICctb21hZScsICc8b3V0ZmlsZS5tYWU+Jw==

>  <s_epik_input>  (1246) 
RmMxW2NIXWMoW2NIXVtjSF1bY0hdMSlbQ0gyXVtDQEhdKFtOSDJdKUMjQ2MoW2NIXWMoYzIzKVtjSF1bY0hdW2NIXVtjSF0zKWMobjIpW05IXUMoPU8pQyNDYzRbY0hdW2NIXVtjSF1bY0hdW2NIXTQ=

>  <s_i_glide_gridfile>  (1246) 
ATP-Grid

>  <s_lp_Force_Field>  (1246) 
OPLS_2005

>  <s_lp_Variant>  (1246) 
rxn503b____EMOL530803____EMOL44466703____EMOL313110234-4

>  <s_lp_label>  (1246) 
2451_sdstereoexpander_2_neutralizer_1_epik_2_stereoizer_1

>  <s_m_source_file>  (1246) 
ATP-VSW-LIGPREP-003-in.maegz

>  <s_sd_BIOSOLVEIT.INFINISEE\_QUERY\_NAME>  (1246) 
Ref-Lig

>  <s_sd_BIOSOLVEIT.INFINISEE\_QUERY\_SMILES>  (1246) 
S(c1nc2c(cc1C[NH2+]Cc3ccc(cc3)C[NH+](C)C)cccc2)Cc4ccccc4

>  <s_sd_BIOSOLVEIT.INFINISEE\_REACTION\_NAME>  (1246) 
rxn503b

>  <s_sd_BIOSOLVEIT.INFINISEE\_REAGENT1\_NAME>  (1246) 
EMOL530803

>  <s_sd_BIOSOLVEIT.INFINISEE\_REAGENT1\_SMILES>  (1246) 
O=C(O)C#Cc1ccccc1

>  <s_sd_BIOSOLVEIT.INFINISEE\_REAGENT2\_NAME>  (1246) 
EMOL44466703

>  <s_sd_BIOSOLVEIT.INFINISEE\_REAGENT2\_SMILES>  (1246) 
Brc1c(nc2c(c1)cccc2)N

>  <s_sd_BIOSOLVEIT.INFINISEE\_REAGENT3\_NAME>  (1246) 
EMOL313110234

>  <s_sd_BIOSOLVEIT.INFINISEE\_REAGENT3\_SMILES>  (1246) 
Fc1cc(ccc1)CC(N)C#C

>  <s_sd_BIOSOLVEIT.INFINISEE\_SPACE>  (1246) 
eXplore_7tr_2022-12

>  <s_vsw_compound_code>  (1246) 
78403

>  <s_vsw_variant>  (1246) 
78403-4

>  <r_epik_Charging_Adjusted_Penalty>  (1246) 
1.22591159016581

>  <r_epik_Ionization_Penalty>  (1246) 
0.61299999999999999

>  <r_epik_Ionization_Penalty_Charging>  (1246) 
0.61299999999999999

>  <r_epik_Ionization_Penalty_Neutral>  (1246) 
0

>  <r_epik_State_Penalty>  (1246) 
0.61299999999999999

>  <r_i_docking_score>  (1246) 
-4.84075174673338

>  <r_i_glide_ecoul>  (1246) 
-10.3326215744019

>  <r_i_glide_eff_state_penalty>  (1246) 
0.61299999999999999

>  <r_i_glide_einternal>  (1246) 
3.32877421379089

>  <r_i_glide_emodel>  (1246) 
-63.727388541774602

>  <r_i_glide_energy>  (1246) 
-42.883433341980002

>  <r_i_glide_erotb>  (1246) 
0.44310478243964002

>  <r_i_glide_esite>  (1246) 
-0.12606247420434499

>  <r_i_glide_evdw>  (1246) 
-32.550811767578097

>  <r_i_glide_gscore>  (1246) 
-5.4537517467333796

>  <r_i_glide_hbond>  (1246) 
-0.27133268446239001

>  <r_i_glide_ligand_efficiency>  (1246) 
-0.14668944687070901

>  <r_i_glide_ligand_efficiency_ln>  (1246) 
-1.0765581244023601

>  <r_i_glide_ligand_efficiency_sa>  (1246) 
-0.47051143613751401

>  <r_i_glide_lipo>  (1246) 
-1.2781647327007

>  <r_i_glide_metal>  (1246) 
-0

>  <r_i_glide_rewards>  (1246) 
-1.0438628132664001

>  <r_lp_Energy>  (1246) 
17.469011999999999

>  <r_qp_ACxDN^.5/SA>  (1246) 
0.0109344

>  <r_qp_CIQPlogS>  (1246) 
-6.2850000000000001

>  <r_qp_EA(eV)>  (1246) 
1.0289999999999999

>  <r_qp_FISA>  (1246) 
117.444

>  <r_qp_FOSA>  (1246) 
51.609999999999999

>  <r_qp_IP(eV)>  (1246) 
8.7040000000000006

>  <r_qp_Jm>  (1246) 
0.0036256722683552

>  <r_qp_PISA>  (1246) 
508.30900000000003

>  <r_qp_PSA>  (1246) 
76.995000000000005

>  <r_qp_PercentHumanOralAbsorption>  (1246) 
95.704999999999998

>  <r_qp_QPPCaco>  (1246) 
190.143

>  <r_qp_QPPMDCK>  (1246) 
142.30000000000001

>  <r_qp_QPlogBB>  (1246) 
-0.59299999999999997

>  <r_qp_QPlogHERG>  (1246) 
-7.5659999999999998

>  <r_qp_QPlogKhsa>  (1246) 
0.86399999999999999

>  <r_qp_QPlogKp>  (1246) 
-3.1880000000000002

>  <r_qp_QPlogPC16>  (1246) 
15.456

>  <r_qp_QPlogPo/w>  (1246) 
4.7770000000000001

>  <r_qp_QPlogPoct>  (1246) 
23.843

>  <r_qp_QPlogPw>  (1246) 
12.765000000000001

>  <r_qp_QPlogS>  (1246) 
-4.8899999999999997

>  <r_qp_QPpolrz>  (1246) 
46.912999999999997

>  <r_qp_SASA>  (1246) 
712.81600000000003

>  <r_qp_SAamideO>  (1246) 
0

>  <r_qp_SAfluorine>  (1246) 
35.451999999999998

>  <r_qp_WPSA>  (1246) 
35.451999999999998

>  <r_qp_accptHB>  (1246) 
4.5

>  <r_qp_dip^2/V>  (1246) 
0.071869000000000002

>  <r_qp_dipole>  (1246) 
9.7880000000000003

>  <r_qp_donorHB>  (1246) 
3

>  <r_qp_glob>  (1246) 
0.82178399999999996

>  <r_qp_mol_MW>  (1246) 
433.48399999999998

>  <r_qp_volume>  (1246) 
1333.075

>  <r_sd_BIOSOLVEIT.INFINISEE\_FTREES\_SIMILARITY>  (1246) 
0.91600000000000004

>  <r_sd_BIOSOLVEIT.LOGP>  (1246) 
3.5688

>  <r_sd_BIOSOLVEIT.MOLECULAR\_WEIGHT>  (1246) 
434.49200000000002

>  <r_sd_BIOSOLVEIT.TPSA>  (1246) 
69.629999999999995

>  <i_epik_Tot_Q>  (1246) 
1

>  <i_epik_Tot_abs_Q>  (1246) 
1

>  <i_f3d_flags>  (1246) 
0

>  <i_i_glide_confnum>  (1246) 
1

>  <i_i_glide_lignum>  (1246) 
1054

>  <i_i_glide_posenum>  (1246) 
9

>  <i_i_glide_rotatable_bonds>  (1246) 
8

>  <i_lp_mmshare_version>  (1246) 
65135

>  <i_m_ct_format>  (1246) 
2

>  <i_m_source_file_index>  (1246) 
2451

>  <i_qp_#NandO>  (1246) 
4

>  <i_qp_#acid>  (1246) 
0

>  <i_qp_#amide>  (1246) 
0

>  <i_qp_#amidine>  (1246) 
0

>  <i_qp_#amine>  (1246) 
1

>  <i_qp_#in34>  (1246) 
0

>  <i_qp_#in56>  (1246) 
22

>  <i_qp_#metab>  (1246) 
4

>  <i_qp_#nonHatm>  (1246) 
33

>  <i_qp_#noncon>  (1246) 
0

>  <i_qp_#ringatoms>  (1246) 
22

>  <i_qp_#rotor>  (1246) 
8

>  <i_qp_#rtvFG>  (1246) 
0

>  <i_qp_#stars>  (1246) 
1

>  <i_qp_CNS>  (1246) 
0

>  <i_qp_HumanOralAbsorption>  (1246) 
3

>  <i_qp_RuleOfFive>  (1246) 
0

>  <i_qp_RuleOfThree>  (1246) 
0

>  <i_sd_BIOSOLVEIT.INFINISEE\_RESULT\_RANK>  (1246) 
25635

>  <i_sd_version>  (1246) 
0

>  <b_lp_Chiralities_Consistent>  (1246) 
1

>  <b_sd_chiral_flag>  (1246) 
0

>  <canonical_id>  (1246) 
ATP-HTVS-C4C9929F3284

>  <compound_code>  (1246) 
78403

>  <title>  (1246) 
rxn503b____EMOL530803____EMOL44466703____EMOL313110234

>  <variant>  (1246) 
78403-4

>  <source_file>  (1246) 
运行/运行/ATP-VSW/ATP-VSW-DOCK_HTVS_1-003_lib/ATP-VSW-DOCK_HTVS_1-003_lib.mae

>  <canonical_smiles>  (1246) 
[NH3+][C@H](C#Cc1cc2ccccc2nc1NC(=O)C#Cc1ccccc1)Cc1cccc(F)c1

>  <scaffold>  (1246) 
O=C(C#Cc1ccccc1)Nc1nc2ccccc2cc1C#CCCc1ccccc1

>  <molecular_formula>  (1246) 
C28H21FN3O+

$$$$
ATP-HTVS-C4D43EEF7CE1
     RDKit          3D

 69 72  0  0  0  0  0  0  0  0999 V2000
  196.6472  180.4525  153.7112 O   0  0  0  0  0  0  0  0  0  0  0  0
  197.2494  180.9298  152.7501 C   0  0  0  0  0  0  0  0  0  0  0  0
  197.7349  182.2086  152.6880 N   0  0  0  0  0  0  0  0  0  0  0  0
  197.7097  183.0793  153.8179 C   0  0  0  0  0  0  0  0  0  0  0  0
  198.1546  182.7565  155.0802 C   0  0  0  0  0  0  0  0  0  0  0  0
  198.7760  181.5397  155.3559 N   0  0  0  0  0  0  0  0  0  0  0  0
  198.6794  180.6979  156.5403 C   0  0  1  0  0  0  0  0  0  0  0  0
  199.4178  179.3940  156.3882 C   0  0  0  0  0  0  0  0  0  0  0  0
  200.4400  179.0530  157.2937 C   0  0  0  0  0  0  0  0  0  0  0  0
  201.1482  177.8494  157.1426 C   0  0  0  0  0  0  0  0  0  0  0  0
  200.8472  176.9860  156.0738 C   0  0  0  0  0  0  0  0  0  0  0  0
  199.7941  177.3106  155.1858 C   0  0  0  0  0  0  0  0  0  0  0  0
  199.0806  178.5022  155.3501 C   0  0  0  0  0  0  0  0  0  0  0  0
  201.6622  175.7286  155.8373 C   0  0  1  0  0  0  0  0  0  0  0  0
  202.8600  175.9899  154.9952 N   0  0  1  0  0  0  0  0  0  0  0  0
  203.6819  174.7695  154.8425 C   0  0  2  0  0  0  0  0  0  0  0  0
  202.5711  176.6100  153.6751 C   0  0  2  0  0  0  0  0  0  0  0  0
  198.0676  183.7207  156.1991 C   0  0  0  0  0  0  0  0  0  0  0  0
  198.5105  183.5053  157.3319 O   0  0  0  0  0  0  0  0  0  0  0  0
  197.4962  184.9263  155.8920 N   0  0  0  0  0  0  0  0  0  0  0  0
  197.1518  185.2946  154.6043 N   0  0  0  0  0  0  0  0  0  0  0  0
  197.2225  184.4463  153.6465 C   0  0  0  0  0  0  0  0  0  0  0  0
  197.2748  185.9003  156.9150 C   0  0  0  0  0  0  0  0  0  0  0  0
  196.6335  185.5688  158.1346 C   0  0  0  0  0  0  0  0  0  0  0  0
  196.4684  186.5323  159.1381 C   0  0  0  0  0  0  0  0  0  0  0  0
  196.9103  187.8530  158.9199 C   0  0  0  0  0  0  0  0  0  0  0  0
  197.5258  188.1982  157.6995 C   0  0  0  0  0  0  0  0  0  0  0  0
  197.7022  187.2281  156.6993 C   0  0  0  0  0  0  0  0  0  0  0  0
  196.7137  188.8974  159.9959 C   0  0  2  0  0  0  0  0  0  0  0  0
  198.0662  182.8016  151.3756 C   0  0  2  0  0  0  0  0  0  0  0  0
  197.4086  180.0217  151.5628 C   0  0  0  0  0  0  0  0  0  0  0  0
  196.6461  180.2344  150.3941 C   0  0  0  0  0  0  0  0  0  0  0  0
  196.7439  179.3492  149.3068 C   0  0  0  0  0  0  0  0  0  0  0  0
  197.5938  178.2246  149.3910 C   0  0  0  0  0  0  0  0  0  0  0  0
  197.6688  177.3455  148.3545 O   0  0  0  0  0  0  0  0  0  0  0  0
  198.3536  177.9946  150.5571 C   0  0  0  0  0  0  0  0  0  0  0  0
  198.2705  178.9005  151.6341 C   0  0  0  0  0  0  0  0  0  0  0  0
  198.8418  180.9395  154.5377 H   0  0  0  0  0  0  0  0  0  0  0  0
  199.1245  181.1876  157.3963 H   0  0  0  0  0  0  0  0  0  0  0  0
  197.6265  180.5038  156.7556 H   0  0  0  0  0  0  0  0  0  0  0  0
  200.6951  179.7180  158.1032 H   0  0  0  0  0  0  0  0  0  0  0  0
  201.9447  177.6249  157.8429 H   0  0  0  0  0  0  0  0  0  0  0  0
  199.5459  176.6503  154.3673 H   0  0  0  0  0  0  0  0  0  0  0  0
  198.2667  178.7370  154.6803 H   0  0  0  0  0  0  0  0  0  0  0  0
  201.9700  175.3351  156.8119 H   0  0  0  0  0  0  0  0  0  0  0  0
  201.0367  174.9646  155.3732 H   0  0  0  0  0  0  0  0  0  0  0  0
  203.1210  173.9804  154.3380 H   0  0  0  0  0  0  0  0  0  0  0  0
  204.0049  174.3812  155.8086 H   0  0  0  0  0  0  0  0  0  0  0  0
  204.5724  174.9760  154.2451 H   0  0  0  0  0  0  0  0  0  0  0  0
  201.9208  175.9621  153.0845 H   0  0  0  0  0  0  0  0  0  0  0  0
  203.4831  176.7747  153.1079 H   0  0  0  0  0  0  0  0  0  0  0  0
  202.0882  177.5856  153.7635 H   0  0  0  0  0  0  0  0  0  0  0  0
  196.9139  184.7277  152.6361 H   0  0  0  0  0  0  0  0  0  0  0  0
  196.2928  184.5579  158.3207 H   0  0  0  0  0  0  0  0  0  0  0  0
  196.0058  186.2513  160.0743 H   0  0  0  0  0  0  0  0  0  0  0  0
  197.8662  189.2103  157.5228 H   0  0  0  0  0  0  0  0  0  0  0  0
  198.1951  187.4946  155.7742 H   0  0  0  0  0  0  0  0  0  0  0  0
  196.6059  189.8824  159.5454 H   0  0  0  0  0  0  0  0  0  0  0  0
  197.5683  188.9035  160.6714 H   0  0  0  0  0  0  0  0  0  0  0  0
  195.8125  188.6829  160.5680 H   0  0  0  0  0  0  0  0  0  0  0  0
  198.6202  183.7295  151.4273 H   0  0  0  0  0  0  0  0  0  0  0  0
  197.1557  183.0205  150.8082 H   0  0  0  0  0  0  0  0  0  0  0  0
  198.6921  182.1473  150.7601 H   0  0  0  0  0  0  0  0  0  0  0  0
  195.9545  181.0626  150.3559 H   0  0  0  0  0  0  0  0  0  0  0  0
  196.1378  179.5301  148.4299 H   0  0  0  0  0  0  0  0  0  0  0  0
  197.0869  177.5595  147.6406 H   0  0  0  0  0  0  0  0  0  0  0  0
  198.9828  177.1192  150.6277 H   0  0  0  0  0  0  0  0  0  0  0  0
  198.8446  178.7007  152.5234 H   0  0  0  0  0  0  0  0  0  0  0  0
  203.4056  176.6665  155.5200 H   0  0  0  0  0  0  0  0  0  0  0  0
  1  2  2  0
  2  3  1  0
  2 31  1  0
  3  4  1  0
  3 30  1  0
  4  5  2  0
  4 22  1  0
  5  6  1  0
  5 18  1  0
  6  7  1  0
  6 38  1  0
  7  8  1  0
  7 39  1  1
  7 40  1  0
  8  9  1  0
  8 13  2  0
  9 10  2  0
  9 41  1  0
 10 11  1  0
 10 42  1  0
 11 12  2  0
 11 14  1  0
 12 13  1  0
 12 43  1  0
 13 44  1  0
 14 15  1  0
 14 45  1  1
 14 46  1  0
 15 16  1  0
 15 17  1  0
 15 69  1  1
 16 47  1  6
 16 48  1  0
 16 49  1  0
 17 50  1  6
 17 51  1  0
 17 52  1  0
 18 19  2  0
 18 20  1  0
 20 21  1  0
 20 23  1  0
 21 22  2  0
 22 53  1  0
 23 24  1  0
 23 28  2  0
 24 25  2  0
 24 54  1  0
 25 26  1  0
 25 55  1  0
 26 27  2  0
 26 29  1  0
 27 28  1  0
 27 56  1  0
 28 57  1  0
 29 58  1  6
 29 59  1  0
 29 60  1  0
 30 61  1  1
 30 62  1  0
 30 63  1  0
 31 32  1  0
 31 37  2  0
 32 33  2  0
 32 64  1  0
 33 34  1  0
 33 65  1  0
 34 35  1  0
 34 36  2  0
 35 66  1  0
 36 37  1  0
 36 67  1  0
 37 68  1  0
M  CHG  1  15   1
M  END
>  <s_epik_cmdline>  (1247) 
J2VwaWtfcHl0aG9uJywgJy1waCcsICc3LjAwMDAwMCcsICctcGh0JywgJzIuMDAwMDAwJywgJy1tcycsICcxNicsICctdG4nLCAnOCcsICctbWEnLCAnMjAwJywgJy1pbWFlJywgJzxpbmZpbGUubWFlPicsICctb21hZScsICc8b3V0ZmlsZS5tYWU+Jw==

>  <s_epik_input>  (1247) 
W2NIXTFbY0hdYyhbT0hdKVtjSF1bY0hdYzFDKD1PKU4oW0NIM10pYzJjKGMoPU8pbihuW2NIXTIpLWMzW2NIXVtjSF1jKFtDSDNdKVtjSF1bY0hdMylbTkhdW0NIMl1jNFtjSF1bY0hdYyhbY0hdW2NIXTQpW0NIMl1OKFtDSDNdKVtDSDNd

>  <s_i_glide_gridfile>  (1247) 
ATP-Grid

>  <s_lp_Force_Field>  (1247) 
OPLS_2005

>  <s_lp_Variant>  (1247) 
rxn502c____EMOL490868____EMOL42620711____EMOL50155899-1

>  <s_lp_label>  (1247) 
3085_sdstereoexpander_1_neutralizer_1_epik_1_stereoizer_1

>  <s_m_source_file>  (1247) 
ATP-VSW-LIGPREP-002-in.maegz

>  <s_sd_BIOSOLVEIT.INFINISEE\_QUERY\_NAME>  (1247) 
Ref-Lig

>  <s_sd_BIOSOLVEIT.INFINISEE\_QUERY\_SMILES>  (1247) 
S(c1nc2c(cc1C[NH2+]Cc3ccc(cc3)C[NH+](C)C)cccc2)Cc4ccccc4

>  <s_sd_BIOSOLVEIT.INFINISEE\_REACTION\_NAME>  (1247) 
rxn502c

>  <s_sd_BIOSOLVEIT.INFINISEE\_REAGENT1\_NAME>  (1247) 
EMOL490868

>  <s_sd_BIOSOLVEIT.INFINISEE\_REAGENT1\_SMILES>  (1247) 
O=C(O)c1ccc(O)cc1

>  <s_sd_BIOSOLVEIT.INFINISEE\_REAGENT2\_NAME>  (1247) 
EMOL42620711

>  <s_sd_BIOSOLVEIT.INFINISEE\_REAGENT2\_SMILES>  (1247) 
ClC=1C(=O)N(N=CC1NC)c2ccc(cc2)C

>  <s_sd_BIOSOLVEIT.INFINISEE\_REAGENT3\_NAME>  (1247) 
EMOL50155899

>  <s_sd_BIOSOLVEIT.INFINISEE\_REAGENT3\_SMILES>  (1247) 
N(Cc1ccc(cc1)CN)(C)C

>  <s_sd_BIOSOLVEIT.INFINISEE\_SPACE>  (1247) 
eXplore_7tr_2022-12

>  <s_vsw_compound_code>  (1247) 
98690

>  <s_vsw_variant>  (1247) 
98690-1

>  <r_epik_Charging_Adjusted_Penalty>  (1247) 
0.0831192068671327

>  <r_epik_Ionization_Penalty>  (1247) 
0.043900000000000002

>  <r_epik_Ionization_Penalty_Charging>  (1247) 
0.039199999999999999

>  <r_epik_Ionization_Penalty_Neutral>  (1247) 
0.0047000000000000002

>  <r_epik_State_Penalty>  (1247) 
0.043900000000000002

>  <r_i_docking_score>  (1247) 
-3.9511278073873002

>  <r_i_glide_ecoul>  (1247) 
-3.6258797645568799

>  <r_i_glide_eff_state_penalty>  (1247) 
0.043900000000000002

>  <r_i_glide_einternal>  (1247) 
7.2509212493896502

>  <r_i_glide_emodel>  (1247) 
-56.4322737619297

>  <r_i_glide_energy>  (1247) 
-45.6588616371155

>  <r_i_glide_erotb>  (1247) 
0.65670956698641703

>  <r_i_glide_esite>  (1247) 
-0.0171580396674803

>  <r_i_glide_evdw>  (1247) 
-42.032981872558601

>  <r_i_glide_gscore>  (1247) 
-3.9950278073873

>  <r_i_glide_hbond>  (1247) 
0

>  <r_i_glide_ligand_efficiency>  (1247) 
-0.106787238037495

>  <r_i_glide_ligand_efficiency_ln>  (1247) 
-0.85690699384440905

>  <r_i_glide_ligand_efficiency_sa>  (1247) 
-0.35583876763715599

>  <r_i_glide_lipo>  (1247) 
-1.9193970086951999

>  <r_i_glide_metal>  (1247) 
-0

>  <r_i_glide_rewards>  (1247) 
-0.069651267699576594

>  <r_lp_Energy>  (1247) 
72.054548999999994

>  <r_lp_tautomer_probability>  (1247) 
0.99999999999732503

>  <r_qp_ACxDN^.5/SA>  (1247) 
0.016807599999999999

>  <r_qp_CIQPlogS>  (1247) 
-5.9729999999999999

>  <r_qp_EA(eV)>  (1247) 
0.63800000000000001

>  <r_qp_FISA>  (1247) 
101.727

>  <r_qp_FOSA>  (1247) 
316.41899999999998

>  <r_qp_IP(eV)>  (1247) 
8.2720000000000002

>  <r_qp_Jm>  (1247) 
0.0062947326453068704

>  <r_qp_PISA>  (1247) 
360.16000000000003

>  <r_qp_PSA>  (1247) 
98.117000000000004

>  <r_qp_PercentHumanOralAbsorption>  (1247) 
93.926000000000002

>  <r_qp_QPPCaco>  (1247) 
267.995

>  <r_qp_QPPMDCK>  (1247) 
131.857

>  <r_qp_QPlogBB>  (1247) 
-0.52900000000000003

>  <r_qp_QPlogHERG>  (1247) 
-6.8879999999999999

>  <r_qp_QPlogKhsa>  (1247) 
0.56399999999999995

>  <r_qp_QPlogKp>  (1247) 
-3.4199999999999999

>  <r_qp_QPlogPC16>  (1247) 
15.930999999999999

>  <r_qp_QPlogPo/w>  (1247) 
4.0170000000000003

>  <r_qp_QPlogPoct>  (1247) 
26.093

>  <r_qp_QPlogPw>  (1247) 
15.01

>  <r_qp_QPlogS>  (1247) 
-4.4779999999999998

>  <r_qp_QPpolrz>  (1247) 
52.819000000000003

>  <r_qp_SASA>  (1247) 
778.30600000000004

>  <r_qp_SAamideO>  (1247) 
0

>  <r_qp_SAfluorine>  (1247) 
0

>  <r_qp_WPSA>  (1247) 
0

>  <r_qp_accptHB>  (1247) 
9.25

>  <r_qp_dip^2/V>  (1247) 
0.035190100000000002

>  <r_qp_dipole>  (1247) 
7.3040000000000003

>  <r_qp_donorHB>  (1247) 
2

>  <r_qp_glob>  (1247) 
0.82000329999999999

>  <r_qp_mol_MW>  (1247) 
497.596

>  <r_qp_volume>  (1247) 
1516.009

>  <r_sd_BIOSOLVEIT.INFINISEE\_FTREES\_SIMILARITY>  (1247) 
0.90100000000000002

>  <r_sd_BIOSOLVEIT.LOGP>  (1247) 
2.7797200000000002

>  <r_sd_BIOSOLVEIT.MOLECULAR\_WEIGHT>  (1247) 
498.60399999999998

>  <r_sd_BIOSOLVEIT.TPSA>  (1247) 
91.900000000000006

>  <i_epik_Tot_Q>  (1247) 
1

>  <i_epik_Tot_abs_Q>  (1247) 
1

>  <i_f3d_flags>  (1247) 
0

>  <i_i_glide_confnum>  (1247) 
1

>  <i_i_glide_lignum>  (1247) 
134

>  <i_i_glide_posenum>  (1247) 
14

>  <i_i_glide_rotatable_bonds>  (1247) 
10

>  <i_lp_mmshare_version>  (1247) 
65135

>  <i_m_ct_format>  (1247) 
2

>  <i_m_source_file_index>  (1247) 
3085

>  <i_qp_#NandO>  (1247) 
8

>  <i_qp_#acid>  (1247) 
0

>  <i_qp_#amide>  (1247) 
0

>  <i_qp_#amidine>  (1247) 
0

>  <i_qp_#amine>  (1247) 
1

>  <i_qp_#in34>  (1247) 
0

>  <i_qp_#in56>  (1247) 
24

>  <i_qp_#metab>  (1247) 
8

>  <i_qp_#nonHatm>  (1247) 
37

>  <i_qp_#noncon>  (1247) 
0

>  <i_qp_#ringatoms>  (1247) 
24

>  <i_qp_#rotor>  (1247) 
8

>  <i_qp_#rtvFG>  (1247) 
0

>  <i_qp_#stars>  (1247) 
0

>  <i_qp_CNS>  (1247) 
1

>  <i_qp_HumanOralAbsorption>  (1247) 
3

>  <i_qp_RuleOfFive>  (1247) 
0

>  <i_qp_RuleOfThree>  (1247) 
1

>  <i_sd_BIOSOLVEIT.INFINISEE\_RESULT\_RANK>  (1247) 
95175

>  <i_sd_version>  (1247) 
0

>  <b_lp_Chiralities_Consistent>  (1247) 
1

>  <b_sd_chiral_flag>  (1247) 
0

>  <canonical_id>  (1247) 
ATP-HTVS-C4D43EEF7CE1

>  <compound_code>  (1247) 
98690

>  <title>  (1247) 
rxn502c____EMOL490868____EMOL42620711____EMOL50155899

>  <variant>  (1247) 
98690-1

>  <source_file>  (1247) 
运行/运行/ATP-VSW/ATP-VSW-DOCK_HTVS_1-003_lib/ATP-VSW-DOCK_HTVS_1-003_lib.mae

>  <canonical_smiles>  (1247) 
Cc1ccc(-n2ncc(N(C)C(=O)c3ccc(O)cc3)c(NCc3ccc(C[NH+](C)C)cc3)c2=O)cc1

>  <scaffold>  (1247) 
O=C(Nc1cnn(-c2ccccc2)c(=O)c1NCc1ccccc1)c1ccccc1

>  <molecular_formula>  (1247) 
C29H32N5O3+

$$$$
ATP-HTVS-C55276015D5E
     RDKit          3D

 56 59  0  0  0  0  0  0  0  0999 V2000
  199.5772  190.2817  157.4171 Cl  0  0  0  0  0  0  0  0  0  0  0  0
  199.3961  189.1427  156.1283 C   0  0  0  0  0  0  0  0  0  0  0  0
  198.4679  188.0756  156.2074 C   0  0  0  0  0  0  0  0  0  0  0  0
  197.6103  187.8873  157.3633 C   0  0  0  0  0  0  0  0  0  0  0  0
  196.9228  187.7293  158.2799 N   0  0  0  0  0  0  0  0  0  0  0  0
  198.3513  187.1649  155.1386 C   0  0  0  0  0  0  0  0  0  0  0  0
  199.1485  187.3093  153.9796 C   0  0  0  0  0  0  0  0  0  0  0  0
  200.0746  188.3770  153.9126 C   0  0  0  0  0  0  0  0  0  0  0  0
  200.1953  189.2852  154.9800 C   0  0  0  0  0  0  0  0  0  0  0  0
  199.0212  186.3571  152.8208 C   0  0  0  0  0  0  0  0  0  0  0  0
  199.5564  186.6239  151.7416 O   0  0  0  0  0  0  0  0  0  0  0  0
  198.3524  185.2234  153.0851 N   0  0  0  0  0  0  0  0  0  0  0  0
  198.1115  184.0887  152.2477 C   0  0  0  0  0  0  0  0  0  0  0  0
  197.6585  182.8665  152.8114 C   0  0  0  0  0  0  0  0  0  0  0  0
  197.4327  182.7243  154.2468 C   0  0  0  0  0  0  0  0  0  0  0  0
  197.2259  182.5283  155.4336 C   0  0  0  0  0  0  0  0  0  0  0  0
  196.9793  182.4059  156.8749 C   0  0  1  0  0  0  0  0  0  0  0  0
  195.6066  181.8584  157.0489 N   0  0  1  0  0  0  0  0  0  0  0  0
  195.0340  181.8538  158.4149 C   0  0  1  0  0  0  0  0  0  0  0  0
  195.2308  183.1856  159.1477 C   0  0  0  0  0  0  0  0  0  0  0  0
  196.5309  183.5773  159.5474 C   0  0  0  0  0  0  0  0  0  0  0  0
  196.7335  184.8377  160.1509 C   0  0  0  0  0  0  0  0  0  0  0  0
  195.6381  185.6608  160.4762 C   0  0  0  0  0  0  0  0  0  0  0  0
  195.8294  186.8545  161.0872 F   0  0  0  0  0  0  0  0  0  0  0  0
  194.3431  185.2470  160.1389 C   0  0  0  0  0  0  0  0  0  0  0  0
  194.1407  184.0334  159.4561 C   0  0  0  0  0  0  0  0  0  0  0  0
  193.5602  181.4162  158.3312 C   0  0  2  0  0  0  0  0  0  0  0  0
  197.4136  181.7541  151.9574 C   0  0  0  0  0  0  0  0  0  0  0  0
  197.6331  181.9261  150.5654 C   0  0  0  0  0  0  0  0  0  0  0  0
  198.0633  183.0847  150.0380 N   0  0  0  0  0  0  0  0  0  0  0  0
  198.3009  184.1311  150.8476 C   0  0  0  0  0  0  0  0  0  0  0  0
  197.3977  180.8434  149.7000 C   0  0  0  0  0  0  0  0  0  0  0  0
  196.9431  179.6067  150.1778 C   0  0  0  0  0  0  0  0  0  0  0  0
  196.7270  179.4339  151.5542 C   0  0  0  0  0  0  0  0  0  0  0  0
  196.9620  180.4996  152.4412 C   0  0  0  0  0  0  0  0  0  0  0  0
  194.9545  182.3452  156.4339 H   0  0  0  0  0  0  0  0  0  0  0  0
  197.6129  186.3795  155.2189 H   0  0  0  0  0  0  0  0  0  0  0  0
  200.6906  188.5090  153.0356 H   0  0  0  0  0  0  0  0  0  0  0  0
  200.9056  190.0975  154.9112 H   0  0  0  0  0  0  0  0  0  0  0  0
  197.9963  185.1407  154.0257 H   0  0  0  0  0  0  0  0  0  0  0  0
  197.7370  181.7661  157.3286 H   0  0  0  0  0  0  0  0  0  0  0  0
  197.0834  183.4175  157.2860 H   0  0  0  0  0  0  0  0  0  0  0  0
  195.5720  181.0954  158.9887 H   0  0  0  0  0  0  0  0  0  0  0  0
  197.3831  182.9256  159.4117 H   0  0  0  0  0  0  0  0  0  0  0  0
  197.7302  185.1603  160.3992 H   0  0  0  0  0  0  0  0  0  0  0  0
  193.4945  185.8737  160.3626 H   0  0  0  0  0  0  0  0  0  0  0  0
  193.1271  183.7869  159.1776 H   0  0  0  0  0  0  0  0  0  0  0  0
  193.1283  181.3367  159.3388 H   0  0  0  0  0  0  0  0  0  0  0  0
  193.4549  180.4381  157.8597 H   0  0  0  0  0  0  0  0  0  0  0  0
  192.9648  182.1101  157.7410 H   0  0  0  0  0  0  0  0  0  0  0  0
  198.6200  185.0199  150.3322 H   0  0  0  0  0  0  0  0  0  0  0  0
  197.5840  180.9817  148.6478 H   0  0  0  0  0  0  0  0  0  0  0  0
  196.7698  178.7992  149.4814 H   0  0  0  0  0  0  0  0  0  0  0  0
  196.3910  178.4854  151.9398 H   0  0  0  0  0  0  0  0  0  0  0  0
  196.7924  180.3148  153.4921 H   0  0  0  0  0  0  0  0  0  0  0  0
  195.6215  180.8863  156.7701 H   0  0  0  0  0  0  0  0  0  0  0  0
  1  2  1  0
  2  3  2  0
  2  9  1  0
  3  4  1  0
  3  6  1  0
  4  5  3  0
  6  7  2  0
  6 37  1  0
  7  8  1  0
  7 10  1  0
  8  9  2  0
  8 38  1  0
  9 39  1  0
 10 11  2  0
 10 12  1  0
 12 13  1  0
 12 40  1  0
 13 14  2  0
 13 31  1  0
 14 15  1  0
 14 28  1  0
 15 16  3  0
 16 17  1  0
 17 18  1  0
 17 41  1  1
 17 42  1  0
 18 19  1  0
 18 36  1  6
 18 56  1  0
 19 20  1  0
 19 27  1  0
 19 43  1  1
 20 21  1  0
 20 26  2  0
 21 22  2  0
 21 44  1  0
 22 23  1  0
 22 45  1  0
 23 24  1  0
 23 25  2  0
 25 26  1  0
 25 46  1  0
 26 47  1  0
 27 48  1  1
 27 49  1  0
 27 50  1  0
 28 29  1  0
 28 35  2  0
 29 30  1  0
 29 32  2  0
 30 31  2  0
 31 51  1  0
 32 33  1  0
 32 52  1  0
 33 34  2  0
 33 53  1  0
 34 35  1  0
 34 54  1  0
 35 55  1  0
M  CHG  1  18   1
M  END
>  <s_epik_cmdline>  (1248) 
J2VwaWtfcHl0aG9uJywgJy1waCcsICc3LjAwMDAwMCcsICctcGh0JywgJzIuMDAwMDAwJywgJy1tcycsICcxNicsICctdG4nLCAnOCcsICctbWEnLCAnMjAwJywgJy1pbWFlJywgJzxpbmZpbGUubWFlPicsICctb21hZScsICc8b3V0ZmlsZS5tYWU+Jw==

>  <s_epik_input>  (1248) 
Q2xjMWMoQyNOKVtjSF1jKFtjSF1bY0hdMSlDKD1PKVtOSF1jKFtjSF1uYyhjMjMpW2NIXVtjSF1bY0hdW2NIXTMpYzJDI0NbQ0gyXVtOSF1bQ0BIXShbQ0gzXSljNFtjSF1bY0hdYyhGKVtjSF1bY0hdNA==

>  <s_i_glide_gridfile>  (1248) 
ATP-Grid

>  <s_lp_Force_Field>  (1248) 
OPLS_2005

>  <s_lp_Variant>  (1248) 
rxn503b____EMOL44817445____EMOL30488121____EMOL317506007-3

>  <s_lp_label>  (1248) 
3039_sdstereoexpander_1_neutralizer_1_epik_2_stereoizer_1

>  <s_m_source_file>  (1248) 
ATP-VSW-LIGPREP-001-in.maegz

>  <s_sd_BIOSOLVEIT.INFINISEE\_QUERY\_NAME>  (1248) 
Ref-Lig

>  <s_sd_BIOSOLVEIT.INFINISEE\_QUERY\_SMILES>  (1248) 
S(c1nc2c(cc1C[NH2+]Cc3ccc(cc3)C[NH+](C)C)cccc2)Cc4ccccc4

>  <s_sd_BIOSOLVEIT.INFINISEE\_REACTION\_NAME>  (1248) 
rxn503b

>  <s_sd_BIOSOLVEIT.INFINISEE\_REAGENT1\_NAME>  (1248) 
EMOL44817445

>  <s_sd_BIOSOLVEIT.INFINISEE\_REAGENT1\_SMILES>  (1248) 
Clc1c(C#N)cc(cc1)C(=O)O

>  <s_sd_BIOSOLVEIT.INFINISEE\_REAGENT2\_NAME>  (1248) 
EMOL30488121

>  <s_sd_BIOSOLVEIT.INFINISEE\_REAGENT2\_SMILES>  (1248) 
Brc1c(N)cnc2c1cccc2

>  <s_sd_BIOSOLVEIT.INFINISEE\_REAGENT3\_NAME>  (1248) 
EMOL317506007

>  <s_sd_BIOSOLVEIT.INFINISEE\_REAGENT3\_SMILES>  (1248) 
Fc1ccc(cc1)C(NCC#C)C

>  <s_sd_BIOSOLVEIT.INFINISEE\_SPACE>  (1248) 
eXplore_7tr_2022-12

>  <s_vsw_compound_code>  (1248) 
97217

>  <s_vsw_variant>  (1248) 
97217-3

>  <r_epik_Charging_Adjusted_Penalty>  (1248) 
1.1575994546039801

>  <r_epik_Ionization_Penalty>  (1248) 
0.57940000000000003

>  <r_epik_Ionization_Penalty_Charging>  (1248) 
0.57879999999999998

>  <r_epik_Ionization_Penalty_Neutral>  (1248) 
0.00059999999999999995

>  <r_epik_State_Penalty>  (1248) 
0.57879999999999998

>  <r_i_docking_score>  (1248) 
-4.88121159396972

>  <r_i_glide_ecoul>  (1248) 
-10.706301689147899

>  <r_i_glide_eff_state_penalty>  (1248) 
0.57879999999999998

>  <r_i_glide_einternal>  (1248) 
8.1864070892334002

>  <r_i_glide_emodel>  (1248) 
-67.534231737033295

>  <r_i_glide_energy>  (1248) 
-48.122927665710399

>  <r_i_glide_erotb>  (1248) 
0.60687381611611402

>  <r_i_glide_esite>  (1248) 
-0.10000000000000001

>  <r_i_glide_evdw>  (1248) 
-37.4166259765625

>  <r_i_glide_gscore>  (1248) 
-5.4600115939697202

>  <r_i_glide_hbond>  (1248) 
-0.33068518735145902

>  <r_i_glide_ligand_efficiency>  (1248) 
-0.13946318839913499

>  <r_i_glide_ligand_efficiency_ln>  (1248) 
-1.07153427753087

>  <r_i_glide_ligand_efficiency_sa>  (1248) 
-0.456193336543252

>  <r_i_glide_lipo>  (1248) 
-1.58342288062571

>  <r_i_glide_metal>  (1248) 
-0

>  <r_i_glide_rewards>  (1248) 
-0.57600078990834203

>  <r_lp_Energy>  (1248) 
33.240063999999997

>  <r_qp_ACxDN^.5/SA>  (1248) 
0.0115123

>  <r_qp_CIQPlogS>  (1248) 
-7.6399999999999997

>  <r_qp_EA(eV)>  (1248) 
1.52

>  <r_qp_FISA>  (1248) 
145.90000000000001

>  <r_qp_FOSA>  (1248) 
125.81100000000001

>  <r_qp_IP(eV)>  (1248) 
8.9849999999999994

>  <r_qp_Jm>  (1248) 
2.4274493736592001e-06

>  <r_qp_PISA>  (1248) 
415.03500000000003

>  <r_qp_PSA>  (1248) 
85.885000000000005

>  <r_qp_PercentHumanOralAbsorption>  (1248) 
91.867000000000004

>  <r_qp_QPPCaco>  (1248) 
102.149

>  <r_qp_QPPMDCK>  (1248) 
190.30000000000001

>  <r_qp_QPlogBB>  (1248) 
-0.84599999999999997

>  <r_qp_QPlogHERG>  (1248) 
-7.8010000000000002

>  <r_qp_QPlogKhsa>  (1248) 
0.91000000000000003

>  <r_qp_QPlogKp>  (1248) 
-4.0410000000000004

>  <r_qp_QPlogPC16>  (1248) 
16.484999999999999

>  <r_qp_QPlogPo/w>  (1248) 
4.9459999999999997

>  <r_qp_QPlogPoct>  (1248) 
24.715

>  <r_qp_QPlogPw>  (1248) 
13.061999999999999

>  <r_qp_QPlogS>  (1248) 
-7.258

>  <r_qp_QPpolrz>  (1248) 
51.133000000000003

>  <r_qp_SASA>  (1248) 
798.48599999999999

>  <r_qp_SAamideO>  (1248) 
0

>  <r_qp_SAfluorine>  (1248) 
47.024999999999999

>  <r_qp_WPSA>  (1248) 
111.739

>  <r_qp_accptHB>  (1248) 
6.5

>  <r_qp_dip^2/V>  (1248) 
0.039063899999999999

>  <r_qp_dipole>  (1248) 
7.5540000000000003

>  <r_qp_donorHB>  (1248) 
2

>  <r_qp_glob>  (1248) 
0.77974239999999995

>  <r_qp_mol_MW>  (1248) 
482.94400000000002

>  <r_qp_volume>  (1248) 
1460.7629999999999

>  <r_sd_BIOSOLVEIT.INFINISEE\_FTREES\_SIMILARITY>  (1248) 
0.90200000000000002

>  <r_sd_BIOSOLVEIT.LOGP>  (1248) 
4.8273799999999998

>  <r_sd_BIOSOLVEIT.MOLECULAR\_WEIGHT>  (1248) 
483.952

>  <r_sd_BIOSOLVEIT.TPSA>  (1248) 
82.390000000000001

>  <i_epik_Tot_Q>  (1248) 
1

>  <i_epik_Tot_abs_Q>  (1248) 
1

>  <i_f3d_flags>  (1248) 
0

>  <i_i_glide_confnum>  (1248) 
4

>  <i_i_glide_lignum>  (1248) 
19

>  <i_i_glide_posenum>  (1248) 
10

>  <i_i_glide_rotatable_bonds>  (1248) 
8

>  <i_lp_mmshare_version>  (1248) 
65135

>  <i_m_ct_format>  (1248) 
2

>  <i_m_source_file_index>  (1248) 
3039

>  <i_qp_#NandO>  (1248) 
5

>  <i_qp_#acid>  (1248) 
0

>  <i_qp_#amide>  (1248) 
0

>  <i_qp_#amidine>  (1248) 
0

>  <i_qp_#amine>  (1248) 
1

>  <i_qp_#in34>  (1248) 
0

>  <i_qp_#in56>  (1248) 
22

>  <i_qp_#metab>  (1248) 
4

>  <i_qp_#nonHatm>  (1248) 
35

>  <i_qp_#noncon>  (1248) 
0

>  <i_qp_#ringatoms>  (1248) 
22

>  <i_qp_#rotor>  (1248) 
8

>  <i_qp_#rtvFG>  (1248) 
0

>  <i_qp_#stars>  (1248) 
1

>  <i_qp_CNS>  (1248) 
0

>  <i_qp_HumanOralAbsorption>  (1248) 
1

>  <i_qp_RuleOfFive>  (1248) 
0

>  <i_qp_RuleOfThree>  (1248) 
1

>  <i_sd_BIOSOLVEIT.INFINISEE\_RESULT\_RANK>  (1248) 
89966

>  <i_sd_version>  (1248) 
0

>  <b_lp_Chiralities_Consistent>  (1248) 
1

>  <b_sd_chiral_flag>  (1248) 
0

>  <canonical_id>  (1248) 
ATP-HTVS-C55276015D5E

>  <compound_code>  (1248) 
97217

>  <title>  (1248) 
rxn503b____EMOL44817445____EMOL30488121____EMOL317506007

>  <variant>  (1248) 
97217-3

>  <source_file>  (1248) 
运行/运行/ATP-VSW/ATP-VSW-DOCK_HTVS_1-002_lib.maegz

>  <canonical_smiles>  (1248) 
C[C@@H]([NH2+]CC#Cc1c(NC(=O)c2ccc(Cl)c(C#N)c2)cnc2ccccc12)c1ccc(F)cc1

>  <scaffold>  (1248) 
O=C(Nc1cnc2ccccc2c1C#CC[NH2+]Cc1ccccc1)c1ccccc1

>  <molecular_formula>  (1248) 
C28H21ClFN4O+

$$$$
ATP-HTVS-C563D945857F
     RDKit          3D

 63 66  0  0  0  0  0  0  0  0999 V2000
  196.0682  187.6473  160.9856 F   0  0  0  0  0  0  0  0  0  0  0  0
  195.8048  186.4665  160.3779 C   0  0  0  0  0  0  0  0  0  0  0  0
  196.7855  185.8469  159.5822 C   0  0  0  0  0  0  0  0  0  0  0  0
  196.5159  184.6137  158.9383 C   0  0  0  0  0  0  0  0  0  0  0  0
  195.2470  183.9966  159.1109 C   0  0  0  0  0  0  0  0  0  0  0  0
  194.9330  182.8303  158.5356 N   0  0  0  0  0  0  0  0  0  0  0  0
  195.8319  182.2375  157.7324 C   0  0  0  0  0  0  0  0  0  0  0  0
  197.1327  182.7366  157.4916 C   0  0  0  0  0  0  0  0  0  0  0  0
  197.4801  183.9722  158.1107 C   0  0  0  0  0  0  0  0  0  0  0  0
  198.7567  184.5461  157.9642 N   0  0  0  0  0  0  0  0  0  0  0  0
  199.1570  185.4366  156.9459 C   0  0  0  0  0  0  0  0  0  0  0  0
  200.4450  186.0288  156.9350 C   0  0  0  0  0  0  0  0  0  0  0  0
  200.8244  186.9129  155.9080 C   0  0  0  0  0  0  0  0  0  0  0  0
  199.9244  187.2241  154.8719 C   0  0  0  0  0  0  0  0  0  0  0  0
  200.2951  188.1104  153.8639 N   0  0  0  0  0  0  0  0  0  0  0  0
  198.6462  186.6358  154.8638 C   0  0  0  0  0  0  0  0  0  0  0  0
  198.2643  185.7558  155.8941 C   0  0  0  0  0  0  0  0  0  0  0  0
  199.7123  184.1371  158.9914 C   0  0  2  0  0  0  0  0  0  0  0  0
  198.0624  181.9609  156.5899 C   0  0  0  0  0  0  0  0  0  0  0  0
  198.9239  182.5084  155.8994 O   0  0  0  0  0  0  0  0  0  0  0  0
  197.9168  180.6268  156.6283 N   0  0  0  0  0  0  0  0  0  0  0  0
  198.7407  179.6831  155.8951 C   0  0  1  0  0  0  0  0  0  0  0  0
  198.3649  179.5121  154.4262 C   0  0  0  0  0  0  0  0  0  0  0  0
  199.3103  178.9272  153.5648 C   0  0  0  0  0  0  0  0  0  0  0  0
  199.0004  178.6749  152.2111 C   0  0  0  0  0  0  0  0  0  0  0  0
  197.7395  179.0659  151.7053 C   0  0  0  0  0  0  0  0  0  0  0  0
  196.7946  179.6747  152.5541 C   0  0  0  0  0  0  0  0  0  0  0  0
  197.1014  179.8894  153.9126 C   0  0  0  0  0  0  0  0  0  0  0  0
  200.0227  177.9767  151.3243 C   0  0  1  0  0  0  0  0  0  0  0  0
  200.0323  176.4915  151.4737 N   0  0  1  0  0  0  0  0  0  0  0  0
  200.3394  176.0116  152.8450 C   0  0  2  0  0  0  0  0  0  0  0  0
  198.8319  175.8376  150.9082 C   0  0  2  0  0  0  0  0  0  0  0  0
  194.2759  184.6361  159.9053 C   0  0  0  0  0  0  0  0  0  0  0  0
  194.5448  185.8613  160.5354 C   0  0  0  0  0  0  0  0  0  0  0  0
  197.7382  186.3360  159.4695 H   0  0  0  0  0  0  0  0  0  0  0  0
  195.4727  181.3369  157.2653 H   0  0  0  0  0  0  0  0  0  0  0  0
  201.1676  185.8100  157.7074 H   0  0  0  0  0  0  0  0  0  0  0  0
  201.8113  187.3521  155.9234 H   0  0  0  0  0  0  0  0  0  0  0  0
  199.6580  188.3623  153.1228 H   0  0  0  0  0  0  0  0  0  0  0  0
  201.1998  188.5589  153.8585 H   0  0  0  0  0  0  0  0  0  0  0  0
  197.9482  186.8556  154.0699 H   0  0  0  0  0  0  0  0  0  0  0  0
  197.2793  185.3139  155.8517 H   0  0  0  0  0  0  0  0  0  0  0  0
  200.5661  183.6465  158.5240 H   0  0  0  0  0  0  0  0  0  0  0  0
  199.2729  183.4314  159.6987 H   0  0  0  0  0  0  0  0  0  0  0  0
  200.0699  184.9951  159.5638 H   0  0  0  0  0  0  0  0  0  0  0  0
  197.1770  180.2064  157.1900 H   0  0  0  0  0  0  0  0  0  0  0  0
  199.7903  179.9783  155.9785 H   0  0  0  0  0  0  0  0  0  0  0  0
  198.6645  178.7122  156.3863 H   0  0  0  0  0  0  0  0  0  0  0  0
  200.2703  178.6399  153.9659 H   0  0  0  0  0  0  0  0  0  0  0  0
  197.4871  178.8845  150.6670 H   0  0  0  0  0  0  0  0  0  0  0  0
  195.8268  179.9633  152.1720 H   0  0  0  0  0  0  0  0  0  0  0  0
  196.3553  180.3291  154.5608 H   0  0  0  0  0  0  0  0  0  0  0  0
  199.8286  178.2387  150.2806 H   0  0  0  0  0  0  0  0  0  0  0  0
  201.0190  178.3730  151.5435 H   0  0  0  0  0  0  0  0  0  0  0  0
  199.5546  176.2798  153.5545 H   0  0  0  0  0  0  0  0  0  0  0  0
  201.2813  176.4382  153.1942 H   0  0  0  0  0  0  0  0  0  0  0  0
  200.4358  174.9241  152.8735 H   0  0  0  0  0  0  0  0  0  0  0  0
  197.9383  176.1324  151.4515 H   0  0  0  0  0  0  0  0  0  0  0  0
  198.9166  174.7536  150.9692 H   0  0  0  0  0  0  0  0  0  0  0  0
  198.6965  176.1023  149.8596 H   0  0  0  0  0  0  0  0  0  0  0  0
  193.2949  184.1893  160.0023 H   0  0  0  0  0  0  0  0  0  0  0  0
  193.7889  186.3414  161.1381 H   0  0  0  0  0  0  0  0  0  0  0  0
  200.8025  176.1793  150.8983 H   0  0  0  0  0  0  0  0  0  0  0  0
  1  2  1  0
  2  3  1  0
  2 34  2  0
  3  4  2  0
  3 35  1  0
  4  5  1  0
  4  9  1  0
  5  6  1  0
  5 33  2  0
  6  7  2  0
  7  8  1  0
  7 36  1  0
  8  9  2  0
  8 19  1  0
  9 10  1  0
 10 11  1  0
 10 18  1  0
 11 12  1  0
 11 17  2  0
 12 13  2  0
 12 37  1  0
 13 14  1  0
 13 38  1  0
 14 15  1  0
 14 16  2  0
 15 39  1  0
 15 40  1  0
 16 17  1  0
 16 41  1  0
 17 42  1  0
 18 43  1  6
 18 44  1  0
 18 45  1  0
 19 20  2  0
 19 21  1  0
 21 22  1  0
 21 46  1  0
 22 23  1  0
 22 47  1  6
 22 48  1  0
 23 24  2  0
 23 28  1  0
 24 25  1  0
 24 49  1  0
 25 26  2  0
 25 29  1  0
 26 27  1  0
 26 50  1  0
 27 28  2  0
 27 51  1  0
 28 52  1  0
 29 30  1  0
 29 53  1  6
 29 54  1  0
 30 31  1  0
 30 32  1  0
 30 63  1  6
 31 55  1  1
 31 56  1  0
 31 57  1  0
 32 58  1  1
 32 59  1  0
 32 60  1  0
 33 34  1  0
 33 61  1  0
 34 62  1  0
M  CHG  1  30   1
M  END
>  <s_epik_cmdline>  (1249) 
J2VwaWtfcHl0aG9uJywgJy1waCcsICc3LjAwMDAwMCcsICctcGh0JywgJzIuMDAwMDAwJywgJy1tcycsICcxNicsICctdG4nLCAnOCcsICctbWEnLCAnMjAwJywgJy1pbWFlJywgJzxpbmZpbGUubWFlPicsICctb21hZScsICc8b3V0ZmlsZS5tYWU+Jw==

>  <s_epik_input>  (1249) 
W2NIXTFbY0hdYyhbTkgyXSlbY0hdW2NIXWMxTihbQ0gzXSljMmMoW2NIXW5jKGMyMylbY0hdW2NIXWMoRilbY0hdMylDKD1PKVtOSF1bQ0gyXWM0W2NIXWMoW2NIXVtjSF1bY0hdNClbQ0gyXU4oW0NIM10pW0NIM10=

>  <s_i_glide_gridfile>  (1249) 
ATP-Grid

>  <s_lp_Force_Field>  (1249) 
OPLS_2005

>  <s_lp_Variant>  (1249) 
rxn512c____EMOL718308____EMOL36725275____EMOL2873214-1

>  <s_lp_label>  (1249) 
2528_sdstereoexpander_1_neutralizer_1_epik_1_stereoizer_1

>  <s_m_source_file>  (1249) 
ATP-VSW-LIGPREP-003-in.maegz

>  <s_sd_BIOSOLVEIT.INFINISEE\_QUERY\_NAME>  (1249) 
Ref-Lig

>  <s_sd_BIOSOLVEIT.INFINISEE\_QUERY\_SMILES>  (1249) 
S(c1nc2c(cc1C[NH2+]Cc3ccc(cc3)C[NH+](C)C)cccc2)Cc4ccccc4

>  <s_sd_BIOSOLVEIT.INFINISEE\_REACTION\_NAME>  (1249) 
rxn512c

>  <s_sd_BIOSOLVEIT.INFINISEE\_REAGENT1\_NAME>  (1249) 
EMOL718308

>  <s_sd_BIOSOLVEIT.INFINISEE\_REAGENT1\_SMILES>  (1249) 
N(c1ccc(N)cc1)C

>  <s_sd_BIOSOLVEIT.INFINISEE\_REAGENT2\_NAME>  (1249) 
EMOL36725275

>  <s_sd_BIOSOLVEIT.INFINISEE\_REAGENT2\_SMILES>  (1249) 
Clc1c2c(ncc1C(=O)O)ccc(F)c2

>  <s_sd_BIOSOLVEIT.INFINISEE\_REAGENT3\_NAME>  (1249) 
EMOL2873214

>  <s_sd_BIOSOLVEIT.INFINISEE\_REAGENT3\_SMILES>  (1249) 
N(Cc1cc(ccc1)CN)(C)C

>  <s_sd_BIOSOLVEIT.INFINISEE\_SPACE>  (1249) 
eXplore_7tr_2022-12

>  <s_vsw_compound_code>  (1249) 
80867

>  <s_vsw_variant>  (1249) 
80867-1

>  <r_epik_Charging_Adjusted_Penalty>  (1249) 
0.108171731876191

>  <r_epik_Ionization_Penalty>  (1249) 
0.065500000000000003

>  <r_epik_Ionization_Penalty_Charging>  (1249) 
0.045199999999999997

>  <r_epik_Ionization_Penalty_Neutral>  (1249) 
0.020199999999999999

>  <r_epik_State_Penalty>  (1249) 
0.062899999999999998

>  <r_i_docking_score>  (1249) 
-4.8732313528731304

>  <r_i_glide_ecoul>  (1249) 
-6.9345998764038104

>  <r_i_glide_eff_state_penalty>  (1249) 
0.062899999999999998

>  <r_i_glide_einternal>  (1249) 
1.2319316864013701

>  <r_i_glide_emodel>  (1249) 
-59.9250667645845

>  <r_i_glide_energy>  (1249) 
-43.314616203308098

>  <r_i_glide_erotb>  (1249) 
0.66959865392957296

>  <r_i_glide_esite>  (1249) 
-0.130047906109618

>  <r_i_glide_evdw>  (1249) 
-36.380016326904297

>  <r_i_glide_gscore>  (1249) 
-4.9361313528731303

>  <r_i_glide_hbond>  (1249) 
-0.16

>  <r_i_glide_ligand_efficiency>  (1249) 
-0.14333033390803299

>  <r_i_glide_ligand_efficiency_ln>  (1249) 
-1.0766334953591401

>  <r_i_glide_ligand_efficiency_sa>  (1249) 
-0.464334640663703

>  <r_i_glide_lipo>  (1249) 
-1.8685275784078701

>  <r_i_glide_metal>  (1249) 
-0

>  <r_i_glide_rewards>  (1249) 
-0.58796372447942702

>  <r_lp_Energy>  (1249) 
39.542997999999997

>  <r_qp_ACxDN^.5/SA>  (1249) 
0.013687400000000001

>  <r_qp_CIQPlogS>  (1249) 
-5.8920000000000003

>  <r_qp_EA(eV)>  (1249) 
1.357

>  <r_qp_FISA>  (1249) 
114.34999999999999

>  <r_qp_FOSA>  (1249) 
274.27600000000001

>  <r_qp_IP(eV)>  (1249) 
7.2990000000000004

>  <r_qp_Jm>  (1249) 
0.00013519839171599

>  <r_qp_PISA>  (1249) 
373.08999999999997

>  <r_qp_PSA>  (1249) 
77.322000000000003

>  <r_qp_PercentHumanOralAbsorption>  (1249) 
95.466999999999999

>  <r_qp_QPPCaco>  (1249) 
203.43299999999999

>  <r_qp_QPPMDCK>  (1249) 
176.887

>  <r_qp_QPlogBB>  (1249) 
-0.67800000000000005

>  <r_qp_QPlogHERG>  (1249) 
-7.694

>  <r_qp_QPlogKhsa>  (1249) 
0.81200000000000006

>  <r_qp_QPlogKp>  (1249) 
-3.6070000000000002

>  <r_qp_QPlogPC16>  (1249) 
15.768000000000001

>  <r_qp_QPlogPo/w>  (1249) 
4.6459999999999999

>  <r_qp_QPlogPoct>  (1249) 
24.722000000000001

>  <r_qp_QPlogPw>  (1249) 
13.789

>  <r_qp_QPlogS>  (1249) 
-5.9219999999999997

>  <r_qp_QPpolrz>  (1249) 
51.194000000000003

>  <r_qp_SASA>  (1249) 
808.62699999999995

>  <r_qp_SAamideO>  (1249) 
0

>  <r_qp_SAfluorine>  (1249) 
46.911000000000001

>  <r_qp_WPSA>  (1249) 
46.911000000000001

>  <r_qp_accptHB>  (1249) 
7

>  <r_qp_dip^2/V>  (1249) 
0.0070071999999999999

>  <r_qp_dipole>  (1249) 
3.2120000000000002

>  <r_qp_donorHB>  (1249) 
2.5

>  <r_qp_glob>  (1249) 
0.77401580000000003

>  <r_qp_mol_MW>  (1249) 
457.54899999999998

>  <r_qp_volume>  (1249) 
1472.3119999999999

>  <r_sd_BIOSOLVEIT.INFINISEE\_FTREES\_SIMILARITY>  (1249) 
0.91300000000000003

>  <r_sd_BIOSOLVEIT.LOGP>  (1249) 
3.2985000000000002

>  <r_sd_BIOSOLVEIT.MOLECULAR\_WEIGHT>  (1249) 
458.55799999999999

>  <r_sd_BIOSOLVEIT.TPSA>  (1249) 
75.689999999999998

>  <i_epik_Tot_Q>  (1249) 
1

>  <i_epik_Tot_abs_Q>  (1249) 
1

>  <i_f3d_flags>  (1249) 
0

>  <i_i_glide_confnum>  (1249) 
4

>  <i_i_glide_lignum>  (1249) 
1108

>  <i_i_glide_posenum>  (1249) 
8

>  <i_i_glide_rotatable_bonds>  (1249) 
8

>  <i_lp_mmshare_version>  (1249) 
65135

>  <i_m_ct_format>  (1249) 
2

>  <i_m_source_file_index>  (1249) 
2528

>  <i_qp_#NandO>  (1249) 
6

>  <i_qp_#acid>  (1249) 
0

>  <i_qp_#amide>  (1249) 
0

>  <i_qp_#amidine>  (1249) 
0

>  <i_qp_#amine>  (1249) 
1

>  <i_qp_#in34>  (1249) 
0

>  <i_qp_#in56>  (1249) 
22

>  <i_qp_#metab>  (1249) 
7

>  <i_qp_#nonHatm>  (1249) 
34

>  <i_qp_#noncon>  (1249) 
0

>  <i_qp_#ringatoms>  (1249) 
22

>  <i_qp_#rotor>  (1249) 
8

>  <i_qp_#rtvFG>  (1249) 
0

>  <i_qp_#stars>  (1249) 
1

>  <i_qp_CNS>  (1249) 
0

>  <i_qp_HumanOralAbsorption>  (1249) 
3

>  <i_qp_RuleOfFive>  (1249) 
0

>  <i_qp_RuleOfThree>  (1249) 
2

>  <i_sd_BIOSOLVEIT.INFINISEE\_RESULT\_RANK>  (1249) 
33531

>  <i_sd_version>  (1249) 
0

>  <b_lp_Chiralities_Consistent>  (1249) 
1

>  <b_sd_chiral_flag>  (1249) 
0

>  <canonical_id>  (1249) 
ATP-HTVS-C563D945857F

>  <compound_code>  (1249) 
80867

>  <title>  (1249) 
rxn512c____EMOL718308____EMOL36725275____EMOL2873214

>  <variant>  (1249) 
80867-1

>  <source_file>  (1249) 
运行/运行/ATP-VSW/ATP-VSW-DOCK_HTVS_1-003_lib/ATP-VSW-DOCK_HTVS_1-003_lib.mae

>  <canonical_smiles>  (1249) 
CN(c1ccc(N)cc1)c1c(C(=O)NCc2cccc(C[NH+](C)C)c2)cnc2ccc(F)cc12

>  <scaffold>  (1249) 
O=C(NCc1ccccc1)c1cnc2ccccc2c1Nc1ccccc1

>  <molecular_formula>  (1249) 
C27H29FN5O+

$$$$
ATP-HTVS-C59D75D09D12
     RDKit          3D

 60 63  0  0  0  0  0  0  0  0999 V2000
  196.7636  181.3666  153.1458 Cl  0  0  0  0  0  0  0  0  0  0  0  0
  198.0310  180.4086  153.8344 C   0  0  0  0  0  0  0  0  0  0  0  0
  198.5647  179.3359  153.0897 C   0  0  0  0  0  0  0  0  0  0  0  0
  198.0669  179.0757  151.8406 O   0  0  0  0  0  0  0  0  0  0  0  0
  199.5959  178.5310  153.6327 C   0  0  0  0  0  0  0  0  0  0  0  0
  200.0920  178.8044  154.9315 C   0  0  0  0  0  0  0  0  0  0  0  0
  201.0900  177.9573  155.4786 C   0  0  0  0  0  0  0  0  0  0  0  0
  201.6256  176.8936  154.7329 C   0  0  0  0  0  0  0  0  0  0  0  0
  201.1428  176.6360  153.4384 C   0  0  0  0  0  0  0  0  0  0  0  0
  200.1303  177.4476  152.8943 C   0  0  0  0  0  0  0  0  0  0  0  0
  199.5795  179.9131  155.6660 C   0  0  0  0  0  0  0  0  0  0  0  0
  200.1245  180.2668  156.8924 N   0  0  0  0  0  0  0  0  0  0  0  0
  201.4848  180.8134  156.8501 C   0  0  1  0  0  0  0  0  0  0  0  0
  201.9688  181.3399  158.1871 C   0  0  0  0  0  0  0  0  0  0  0  0
  201.3880  182.5101  158.7006 C   0  0  0  0  0  0  0  0  0  0  0  0
  201.6611  182.9252  160.0020 C   0  0  0  0  0  0  0  0  0  0  0  0
  202.7418  182.3306  160.7279 C   0  0  0  0  0  0  0  0  0  0  0  0
  203.3942  181.2025  160.1721 C   0  0  0  0  0  0  0  0  0  0  0  0
  202.9884  180.6656  158.9321 C   0  0  0  0  0  0  0  0  0  0  0  0
  203.2089  182.9520  162.0457 C   0  0  1  0  0  0  0  0  0  0  0  0
  203.8085  184.2989  161.9680 N   0  0  0  0  0  0  0  0  0  0  0  0
  202.8802  185.3370  161.5088 C   0  0  2  0  0  0  0  0  0  0  0  0
  204.2694  184.6914  163.2998 C   0  0  2  0  0  0  0  0  0  0  0  0
  198.5272  180.7083  155.1221 C   0  0  0  0  0  0  0  0  0  0  0  0
  198.0097  181.8090  155.8374 N   0  0  0  0  0  0  0  0  0  0  0  0
  197.1269  181.4494  156.9482 C   0  0  1  0  0  0  0  0  0  0  0  0
  196.8223  182.6185  157.8731 C   0  0  0  0  0  0  0  0  0  0  0  0
  197.8794  183.3388  158.4432 C   0  0  0  0  0  0  0  0  0  0  0  0
  197.6346  184.4106  159.3204 C   0  0  0  0  0  0  0  0  0  0  0  0
  196.2934  184.7824  159.6381 C   0  0  0  0  0  0  0  0  0  0  0  0
  195.2291  184.0575  159.0589 C   0  0  0  0  0  0  0  0  0  0  0  0
  195.4718  182.9754  158.1817 C   0  0  0  0  0  0  0  0  0  0  0  0
  199.4780  180.8683  157.3997 H   0  0  0  0  0  0  0  0  0  0  0  0
  201.4663  178.0974  156.4819 H   0  0  0  0  0  0  0  0  0  0  0  0
  202.4026  176.2814  155.1658 H   0  0  0  0  0  0  0  0  0  0  0  0
  201.5424  175.8073  152.8730 H   0  0  0  0  0  0  0  0  0  0  0  0
  199.7615  177.2239  151.9046 H   0  0  0  0  0  0  0  0  0  0  0  0
  202.2088  180.0842  156.4972 H   0  0  0  0  0  0  0  0  0  0  0  0
  201.4783  181.6452  156.1395 H   0  0  0  0  0  0  0  0  0  0  0  0
  200.7536  183.0964  158.0553 H   0  0  0  0  0  0  0  0  0  0  0  0
  201.1176  183.7625  160.4209 H   0  0  0  0  0  0  0  0  0  0  0  0
  204.2285  180.7369  160.7049 H   0  0  0  0  0  0  0  0  0  0  0  0
  203.4607  179.7770  158.5175 H   0  0  0  0  0  0  0  0  0  0  0  0
  202.3827  182.9576  162.7429 H   0  0  0  0  0  0  0  0  0  0  0  0
  203.9373  182.2661  162.4873 H   0  0  0  0  0  0  0  0  0  0  0  0
  203.3078  186.3430  161.6303 H   0  0  0  0  0  0  0  0  0  0  0  0
  201.9714  185.2958  162.1124 H   0  0  0  0  0  0  0  0  0  0  0  0
  202.6050  185.1729  160.4734 H   0  0  0  0  0  0  0  0  0  0  0  0
  204.6889  185.6984  163.2601 H   0  0  0  0  0  0  0  0  0  0  0  0
  205.0494  184.0245  163.6760 H   0  0  0  0  0  0  0  0  0  0  0  0
  203.4439  184.7035  164.0147 H   0  0  0  0  0  0  0  0  0  0  0  0
  197.5774  182.4983  155.2350 H   0  0  0  0  0  0  0  0  0  0  0  0
  196.2164  181.0246  156.5374 H   0  0  0  0  0  0  0  0  0  0  0  0
  197.5790  180.6620  157.5531 H   0  0  0  0  0  0  0  0  0  0  0  0
  198.8726  183.0310  158.1838 H   0  0  0  0  0  0  0  0  0  0  0  0
  198.4568  184.9599  159.7486 H   0  0  0  0  0  0  0  0  0  0  0  0
  196.1082  185.6176  160.3076 H   0  0  0  0  0  0  0  0  0  0  0  0
  194.2018  184.3367  159.2782 H   0  0  0  0  0  0  0  0  0  0  0  0
  194.6598  182.4143  157.7301 H   0  0  0  0  0  0  0  0  0  0  0  0
  197.3956  179.6883  151.5829 H   0  0  0  0  0  0  0  0  0  0  0  0
  1  2  1  0
  2  3  2  0
  2 24  1  0
  3  4  1  0
  3  5  1  0
  4 60  1  0
  5  6  1  0
  5 10  2  0
  6  7  2  0
  6 11  1  0
  7  8  1  0
  7 34  1  0
  8  9  2  0
  8 35  1  0
  9 10  1  0
  9 36  1  0
 10 37  1  0
 11 12  1  0
 11 24  2  0
 12 13  1  0
 12 33  1  0
 13 14  1  0
 13 38  1  6
 13 39  1  0
 14 15  1  0
 14 19  2  0
 15 16  2  0
 15 40  1  0
 16 17  1  0
 16 41  1  0
 17 18  2  0
 17 20  1  0
 18 19  1  0
 18 42  1  0
 19 43  1  0
 20 21  1  0
 20 44  1  1
 20 45  1  0
 21 22  1  0
 21 23  1  0
 22 46  1  6
 22 47  1  0
 22 48  1  0
 23 49  1  6
 23 50  1  0
 23 51  1  0
 24 25  1  0
 25 26  1  0
 25 52  1  0
 26 27  1  0
 26 53  1  6
 26 54  1  0
 27 28  2  0
 27 32  1  0
 28 29  1  0
 28 55  1  0
 29 30  2  0
 29 56  1  0
 30 31  1  0
 30 57  1  0
 31 32  2  0
 31 58  1  0
 32 59  1  0
M  END
>  <s_epik_cmdline>  (1250) 
J2VwaWtfcHl0aG9uJywgJy1waCcsICc3LjAwMDAwMCcsICctcGh0JywgJzIuMDAwMDAwJywgJy1tcycsICcxNicsICctdG4nLCAnOCcsICctbWEnLCAnMjAwJywgJy1pbWFlJywgJzxpbmZpbGUubWFlPicsICctb21hZScsICc8b3V0ZmlsZS5tYWU+Jw==

>  <s_epik_input>  (1250) 
W2NIXTFbY0hdW2NIXVtjSF1bY0hdYzFbQ0gyXVtOSF1DKD1DKENsKUMyPU8pW0NAQEhdKGMoYzIzKVtjSF1bY0hdW2NIXVtjSF0zKVtOSF1bQ0gyXWM0W2NIXVtjSF1jKFtjSF1bY0hdNClbQ0gyXU4oW0NIM10pW0NIM10=

>  <s_i_glide_gridfile>  (1250) 
ATP-Grid

>  <s_lp_Force_Field>  (1250) 
OPLS_2005

>  <s_lp_Variant>  (1250) 
rxn207____EMOL1096385____EMOL50155899-2

>  <s_lp_label>  (1250) 
2148_sdstereoexpander_1_neutralizer_1_epik_2_stereoizer_1

>  <s_m_source_file>  (1250) 
ATP-VSW-LIGPREP-002-in.maegz

>  <s_sd_BIOSOLVEIT.INFINISEE\_QUERY\_NAME>  (1250) 
Ref-Lig

>  <s_sd_BIOSOLVEIT.INFINISEE\_QUERY\_SMILES>  (1250) 
S(c1nc2c(cc1C[NH2+]Cc3ccc(cc3)C[NH+](C)C)cccc2)Cc4ccccc4

>  <s_sd_BIOSOLVEIT.INFINISEE\_REACTION\_NAME>  (1250) 
rxn207

>  <s_sd_BIOSOLVEIT.INFINISEE\_REAGENT1\_NAME>  (1250) 
EMOL1096385

>  <s_sd_BIOSOLVEIT.INFINISEE\_REAGENT1\_SMILES>  (1250) 
ClC=1C(=O)c2c(cccc2)C(=O)C1NCc3ccccc3

>  <s_sd_BIOSOLVEIT.INFINISEE\_REAGENT2\_NAME>  (1250) 
EMOL50155899

>  <s_sd_BIOSOLVEIT.INFINISEE\_REAGENT2\_SMILES>  (1250) 
N(Cc1ccc(cc1)CN)(C)C

>  <s_sd_BIOSOLVEIT.INFINISEE\_SPACE>  (1250) 
eXplore_7tr_2022-12

>  <s_vsw_compound_code>  (1250) 
68706

>  <s_vsw_variant>  (1250) 
68706-2

>  <r_epik_Charging_Adjusted_Penalty>  (1250) 
1.6433941290612999

>  <r_epik_Ionization_Penalty>  (1250) 
1.6433

>  <r_epik_Ionization_Penalty_Charging>  (1250) 
0

>  <r_epik_Ionization_Penalty_Neutral>  (1250) 
1.6433

>  <r_epik_State_Penalty>  (1250) 
1.6434

>  <r_i_docking_score>  (1250) 
-1.57949634567105

>  <r_i_glide_ecoul>  (1250) 
-2.3540182113647501

>  <r_i_glide_eff_state_penalty>  (1250) 
1.6434

>  <r_i_glide_einternal>  (1250) 
1.3742376565933201

>  <r_i_glide_emodel>  (1250) 
-44.506797931015903

>  <r_i_glide_energy>  (1250) 
-37.5964193344116

>  <r_i_glide_erotb>  (1250) 
0.70431340816440602

>  <r_i_glide_esite>  (1250) 
-0.049972315496245999

>  <r_i_glide_evdw>  (1250) 
-35.242401123046903

>  <r_i_glide_gscore>  (1250) 
-3.22289634567105

>  <r_i_glide_hbond>  (1250) 
0

>  <r_i_glide_ligand_efficiency>  (1250) 
-0.049359260802220299

>  <r_i_glide_ligand_efficiency_ln>  (1250) 
-0.35369228724000601

>  <r_i_glide_ligand_efficiency_sa>  (1250) 
-0.15670588486260101

>  <r_i_glide_lipo>  (1250) 
-1.39371978684579

>  <r_i_glide_metal>  (1250) 
-0

>  <r_i_glide_rewards>  (1250) 
-0.36829486363636299

>  <r_lp_Energy>  (1250) 
36.421402

>  <r_qp_ACxDN^.5/SA>  (1250) 
0.011872600000000001

>  <r_qp_CIQPlogS>  (1250) 
-6.4459999999999997

>  <r_qp_EA(eV)>  (1250) 
0.81899999999999995

>  <r_qp_FISA>  (1250) 
58.999000000000002

>  <r_qp_FOSA>  (1250) 
190.41999999999999

>  <r_qp_IP(eV)>  (1250) 
8.0830000000000002

>  <r_qp_Jm>  (1250) 
0.069260892982414599

>  <r_qp_PISA>  (1250) 
391.90800000000002

>  <r_qp_PSA>  (1250) 
46.350999999999999

>  <r_qp_PercentHumanOralAbsorption>  (1250) 
100

>  <r_qp_QPPCaco>  (1250) 
681.255

>  <r_qp_QPPMDCK>  (1250) 
693.26900000000001

>  <r_qp_QPlogBB>  (1250) 
-0.0080000000000000002

>  <r_qp_QPlogHERG>  (1250) 
-6.6779999999999999

>  <r_qp_QPlogKhsa>  (1250) 
0.77500000000000002

>  <r_qp_QPlogKp>  (1250) 
-2.4249999999999998

>  <r_qp_QPlogPC16>  (1250) 
14.725

>  <r_qp_QPlogPo/w>  (1250) 
4.9809999999999999

>  <r_qp_QPlogPoct>  (1250) 
22.170999999999999

>  <r_qp_QPlogPw>  (1250) 
11.558999999999999

>  <r_qp_QPlogS>  (1250) 
-4.3840000000000003

>  <r_qp_QPpolrz>  (1250) 
44.878

>  <r_qp_SASA>  (1250) 
692.96000000000004

>  <r_qp_SAamideO>  (1250) 
0

>  <r_qp_SAfluorine>  (1250) 
0

>  <r_qp_WPSA>  (1250) 
51.633000000000003

>  <r_qp_accptHB>  (1250) 
4.75

>  <r_qp_dip^2/V>  (1250) 
0.017523500000000001

>  <r_qp_dipole>  (1250) 
4.8200000000000003

>  <r_qp_donorHB>  (1250) 
3

>  <r_qp_glob>  (1250) 
0.84235970000000004

>  <r_qp_mol_MW>  (1250) 
445.99099999999999

>  <r_qp_volume>  (1250) 
1326.0530000000001

>  <r_sd_BIOSOLVEIT.INFINISEE\_FTREES\_SIMILARITY>  (1250) 
0.95199999999999996

>  <r_sd_BIOSOLVEIT.LOGP>  (1250) 
2.5722999999999998

>  <r_sd_BIOSOLVEIT.MOLECULAR\_WEIGHT>  (1250) 
448.00700000000001

>  <r_sd_BIOSOLVEIT.TPSA>  (1250) 
50.149999999999999

>  <i_epik_Tot_Q>  (1250) 
0

>  <i_epik_Tot_abs_Q>  (1250) 
0

>  <i_f3d_flags>  (1250) 
0

>  <i_i_glide_confnum>  (1250) 
10

>  <i_i_glide_lignum>  (1250) 
789

>  <i_i_glide_posenum>  (1250) 
6

>  <i_i_glide_rotatable_bonds>  (1250) 
9

>  <i_lp_mmshare_version>  (1250) 
65135

>  <i_m_ct_format>  (1250) 
2

>  <i_m_source_file_index>  (1250) 
2148

>  <i_qp_#NandO>  (1250) 
4

>  <i_qp_#acid>  (1250) 
0

>  <i_qp_#amide>  (1250) 
0

>  <i_qp_#amidine>  (1250) 
0

>  <i_qp_#amine>  (1250) 
1

>  <i_qp_#in34>  (1250) 
0

>  <i_qp_#in56>  (1250) 
22

>  <i_qp_#metab>  (1250) 
9

>  <i_qp_#nonHatm>  (1250) 
32

>  <i_qp_#noncon>  (1250) 
0

>  <i_qp_#ringatoms>  (1250) 
22

>  <i_qp_#rotor>  (1250) 
9

>  <i_qp_#rtvFG>  (1250) 
0

>  <i_qp_#stars>  (1250) 
1

>  <i_qp_CNS>  (1250) 
0

>  <i_qp_HumanOralAbsorption>  (1250) 
3

>  <i_qp_RuleOfFive>  (1250) 
0

>  <i_qp_RuleOfThree>  (1250) 
1

>  <i_sd_BIOSOLVEIT.INFINISEE\_RESULT\_RANK>  (1250) 
168

>  <i_sd_version>  (1250) 
0

>  <b_lp_Chiralities_Consistent>  (1250) 
1

>  <b_sd_chiral_flag>  (1250) 
0

>  <canonical_id>  (1250) 
ATP-HTVS-C59D75D09D12

>  <compound_code>  (1250) 
68706

>  <title>  (1250) 
rxn207____EMOL1096385____EMOL50155899

>  <variant>  (1250) 
68706-2

>  <source_file>  (1250) 
运行/运行/ATP-VSW/ATP-VSW-DOCK_HTVS_1-002_lib.maegz

>  <canonical_smiles>  (1250) 
CN(C)Cc1ccc(CNc2c(NCc3ccccc3)c(Cl)c(O)c3ccccc23)cc1

>  <scaffold>  (1250) 
c1ccc(CNc2ccc3ccccc3c2NCc2ccccc2)cc1

>  <molecular_formula>  (1250) 
C27H28ClN3O

$$$$
ATP-HTVS-C5A7FD400424
     RDKit          3D

 58 61  0  0  0  0  0  0  0  0999 V2000
  194.1719  186.6455  161.3777 Cl  0  0  0  0  0  0  0  0  0  0  0  0
  195.5284  186.2005  160.4072 C   0  0  0  0  0  0  0  0  0  0  0  0
  196.4301  187.1879  159.9767 C   0  0  0  0  0  0  0  0  0  0  0  0
  197.5396  186.8303  159.1925 C   0  0  0  0  0  0  0  0  0  0  0  0
  197.7850  185.4864  158.8208 C   0  0  0  0  0  0  0  0  0  0  0  0
  196.8611  184.5077  159.2633 C   0  0  0  0  0  0  0  0  0  0  0  0
  195.7433  184.8577  160.0463 C   0  0  0  0  0  0  0  0  0  0  0  0
  198.9642  185.1120  157.9726 C   0  0  2  0  0  0  0  0  0  0  0  0
  200.1990  185.9027  158.2641 N   0  0  0  0  0  0  0  0  0  0  0  0
  200.7301  185.5766  159.5848 C   0  0  2  0  0  0  0  0  0  0  0  0
  201.2664  185.7207  157.2805 C   0  0  2  0  0  0  0  0  0  0  0  0
  198.4190  185.2614  156.5260 C   0  0  0  0  0  0  0  0  0  0  0  0
  198.2261  186.3893  156.0667 O   0  0  0  0  0  0  0  0  0  0  0  0
  198.1832  184.1106  155.8631 N   0  0  0  0  0  0  0  0  0  0  0  0
  197.9578  183.9023  154.4701 C   0  0  0  0  0  0  0  0  0  0  0  0
  198.0711  184.9119  153.5629 N   0  0  0  0  0  0  0  0  0  0  0  0
  197.8675  184.6811  152.2484 C   0  0  0  0  0  0  0  0  0  0  0  0
  197.5522  183.3888  151.7745 C   0  0  0  0  0  0  0  0  0  0  0  0
  197.4964  182.3224  152.6827 C   0  0  0  0  0  0  0  0  0  0  0  0
  197.7002  182.5640  154.0638 C   0  0  0  0  0  0  0  0  0  0  0  0
  197.6591  181.4526  154.9487 N   0  0  0  0  0  0  0  0  0  0  0  0
  198.8113  180.8813  155.5583 C   0  0  0  0  0  0  0  0  0  0  0  0
  198.8078  179.5743  156.1170 C   0  0  0  0  0  0  0  0  0  0  0  0
  199.9725  179.0186  156.6864 C   0  0  0  0  0  0  0  0  0  0  0  0
  201.1716  179.7546  156.7303 C   0  0  0  0  0  0  0  0  0  0  0  0
  201.1916  181.0584  156.2041 C   0  0  0  0  0  0  0  0  0  0  0  0
  200.0348  181.6030  155.6185 C   0  0  0  0  0  0  0  0  0  0  0  0
  196.4321  180.6328  154.8498 C   0  0  1  0  0  0  0  0  0  0  0  0
  196.3606  179.8509  153.6255 C   0  0  0  0  0  0  0  0  0  0  0  0
  196.3099  179.2455  152.6086 N   0  0  0  0  0  0  0  0  0  0  0  0
  197.2991  183.1255  150.4195 C   0  0  0  0  0  0  0  0  0  0  0  0
  197.3681  184.1626  149.4794 C   0  0  0  0  0  0  0  0  0  0  0  0
  197.7083  185.4580  149.9253 C   0  0  0  0  0  0  0  0  0  0  0  0
  197.9600  185.7140  151.2938 C   0  0  0  0  0  0  0  0  0  0  0  0
  196.2717  188.2216  160.2459 H   0  0  0  0  0  0  0  0  0  0  0  0
  198.2161  187.6053  158.8644 H   0  0  0  0  0  0  0  0  0  0  0  0
  197.0055  183.4712  158.9915 H   0  0  0  0  0  0  0  0  0  0  0  0
  195.0535  184.0919  160.3665 H   0  0  0  0  0  0  0  0  0  0  0  0
  199.2056  184.0590  158.1296 H   0  0  0  0  0  0  0  0  0  0  0  0
  201.5933  186.2011  159.8244 H   0  0  0  0  0  0  0  0  0  0  0  0
  201.0390  184.5325  159.6510 H   0  0  0  0  0  0  0  0  0  0  0  0
  199.9910  185.7545  160.3632 H   0  0  0  0  0  0  0  0  0  0  0  0
  202.1552  186.2902  157.5650 H   0  0  0  0  0  0  0  0  0  0  0  0
  200.9807  186.0851  156.2935 H   0  0  0  0  0  0  0  0  0  0  0  0
  201.5529  184.6710  157.1923 H   0  0  0  0  0  0  0  0  0  0  0  0
  198.3050  183.2594  156.3914 H   0  0  0  0  0  0  0  0  0  0  0  0
  197.3500  181.3439  152.2732 H   0  0  0  0  0  0  0  0  0  0  0  0
  197.9323  178.9384  156.1290 H   0  0  0  0  0  0  0  0  0  0  0  0
  199.9361  178.0144  157.0865 H   0  0  0  0  0  0  0  0  0  0  0  0
  202.0680  179.3220  157.1513 H   0  0  0  0  0  0  0  0  0  0  0  0
  202.1018  181.6403  156.2232 H   0  0  0  0  0  0  0  0  0  0  0  0
  200.1320  182.5961  155.2083 H   0  0  0  0  0  0  0  0  0  0  0  0
  196.2913  179.9557  155.7069 H   0  0  0  0  0  0  0  0  0  0  0  0
  195.5637  181.3000  154.9081 H   0  0  0  0  0  0  0  0  0  0  0  0
  197.0502  182.1262  150.1001 H   0  0  0  0  0  0  0  0  0  0  0  0
  197.1746  183.9583  148.4358 H   0  0  0  0  0  0  0  0  0  0  0  0
  197.7666  186.2509  149.1917 H   0  0  0  0  0  0  0  0  0  0  0  0
  198.2109  186.7141  151.6176 H   0  0  0  0  0  0  0  0  0  0  0  0
  1  2  1  0
  2  3  1  0
  2  7  2  0
  3  4  2  0
  3 35  1  0
  4  5  1  0
  4 36  1  0
  5  6  2  0
  5  8  1  0
  6  7  1  0
  6 37  1  0
  7 38  1  0
  8  9  1  0
  8 12  1  0
  8 39  1  1
  9 10  1  0
  9 11  1  0
 10 40  1  1
 10 41  1  0
 10 42  1  0
 11 43  1  1
 11 44  1  0
 11 45  1  0
 12 13  2  0
 12 14  1  0
 14 15  1  0
 14 46  1  0
 15 16  2  0
 15 20  1  0
 16 17  1  0
 17 18  1  0
 17 34  2  0
 18 19  1  0
 18 31  2  0
 19 20  2  0
 19 47  1  0
 20 21  1  0
 21 22  1  0
 21 28  1  0
 22 23  2  0
 22 27  1  0
 23 24  1  0
 23 48  1  0
 24 25  2  0
 24 49  1  0
 25 26  1  0
 25 50  1  0
 26 27  2  0
 26 51  1  0
 27 52  1  0
 28 29  1  0
 28 53  1  1
 28 54  1  0
 29 30  3  0
 31 32  1  0
 31 55  1  0
 32 33  2  0
 32 56  1  0
 33 34  1  0
 33 57  1  0
 34 58  1  0
M  END
>  <s_epik_cmdline>  (1251) 
J2VwaWtfcHl0aG9uJywgJy1waCcsICc3LjAwMDAwMCcsICctcGh0JywgJzIuMDAwMDAwJywgJy1tcycsICcxNicsICctdG4nLCAnOCcsICctbWEnLCAnMjAwJywgJy1pbWFlJywgJzxpbmZpbGUubWFlPicsICctb21hZScsICc8b3V0ZmlsZS5tYWU+Jw==

>  <s_epik_input>  (1251) 
Q2xjMVtjSF1bY0hdYyhbY0hdW2NIXTEpW0NASF0oTihbQ0gzXSlbQ0gzXSlDKD1PKVtOSF1jKG4yKWMoW2NIXWMoYzIzKVtjSF1bY0hdW2NIXVtjSF0zKU4oW0NIMl1DI04pYzRbY0hdW2NIXVtjSF1bY0hdW2NIXTQ=

>  <s_i_glide_gridfile>  (1251) 
ATP-Grid

>  <s_lp_Force_Field>  (1251) 
OPLS_2005

>  <s_lp_Variant>  (1251) 
rxn502b____EMOL331054254____EMOL44466703____EMOL712348-2

>  <s_lp_label>  (1251) 
2587_sdstereoexpander_2_neutralizer_1_epik_1_stereoizer_1

>  <s_m_source_file>  (1251) 
ATP-VSW-LIGPREP-001-in.maegz

>  <s_sd_BIOSOLVEIT.INFINISEE\_QUERY\_NAME>  (1251) 
Ref-Lig

>  <s_sd_BIOSOLVEIT.INFINISEE\_QUERY\_SMILES>  (1251) 
S(c1nc2c(cc1C[NH2+]Cc3ccc(cc3)C[NH+](C)C)cccc2)Cc4ccccc4

>  <s_sd_BIOSOLVEIT.INFINISEE\_REACTION\_NAME>  (1251) 
rxn502b

>  <s_sd_BIOSOLVEIT.INFINISEE\_REAGENT1\_NAME>  (1251) 
EMOL331054254

>  <s_sd_BIOSOLVEIT.INFINISEE\_REAGENT1\_SMILES>  (1251) 
Clc1ccc(cc1)C(N(C)C)C(=O)O

>  <s_sd_BIOSOLVEIT.INFINISEE\_REAGENT2\_NAME>  (1251) 
EMOL44466703

>  <s_sd_BIOSOLVEIT.INFINISEE\_REAGENT2\_SMILES>  (1251) 
Brc1c(nc2c(c1)cccc2)N

>  <s_sd_BIOSOLVEIT.INFINISEE\_REAGENT3\_NAME>  (1251) 
EMOL712348

>  <s_sd_BIOSOLVEIT.INFINISEE\_REAGENT3\_SMILES>  (1251) 
N#CCNc1ccccc1

>  <s_sd_BIOSOLVEIT.INFINISEE\_SPACE>  (1251) 
eXplore_7tr_2022-12

>  <s_vsw_compound_code>  (1251) 
82753

>  <s_vsw_variant>  (1251) 
82753-2

>  <r_epik_Charging_Adjusted_Penalty>  (1251) 
0.120898401539798

>  <r_epik_Ionization_Penalty>  (1251) 
0.1183

>  <r_epik_Ionization_Penalty_Charging>  (1251) 
0

>  <r_epik_Ionization_Penalty_Neutral>  (1251) 
0.1183

>  <r_epik_State_Penalty>  (1251) 
0.12089999999999999

>  <r_i_docking_score>  (1251) 
-3.9000690078777001

>  <r_i_glide_ecoul>  (1251) 
-2.1775162220001198

>  <r_i_glide_eff_state_penalty>  (1251) 
0.12089999999999999

>  <r_i_glide_einternal>  (1251) 
2.53295946121216

>  <r_i_glide_emodel>  (1251) 
-48.827708573693101

>  <r_i_glide_energy>  (1251) 
-39.214122056961102

>  <r_i_glide_erotb>  (1251) 
0.457322200197392

>  <r_i_glide_esite>  (1251) 
-0.0226809138286111

>  <r_i_glide_evdw>  (1251) 
-37.036605834960902

>  <r_i_glide_gscore>  (1251) 
-4.0209690078777003

>  <r_i_glide_hbond>  (1251) 
0

>  <r_i_glide_ligand_efficiency>  (1251) 
-0.114707911996403

>  <r_i_glide_ligand_efficiency_ln>  (1251) 
-0.86163463707045995

>  <r_i_glide_ligand_efficiency_sa>  (1251) 
-0.37160910496663702

>  <r_i_glide_lipo>  (1251) 
-2.0505774917823198

>  <r_i_glide_metal>  (1251) 
-0

>  <r_i_glide_rewards>  (1251) 
-0.22657507741609401

>  <r_lp_Energy>  (1251) 
36.248452

>  <r_qp_ACxDN^.5/SA>  (1251) 
0.010349499999999999

>  <r_qp_CIQPlogS>  (1251) 
-7.0309999999999997

>  <r_qp_EA(eV)>  (1251) 
1.0600000000000001

>  <r_qp_FISA>  (1251) 
95.700000000000003

>  <r_qp_FOSA>  (1251) 
124.101

>  <r_qp_IP(eV)>  (1251) 
8.7850000000000001

>  <r_qp_Jm>  (1251) 
0.0014919327173970999

>  <r_qp_PISA>  (1251) 
433.142

>  <r_qp_PSA>  (1251) 
69.796999999999997

>  <r_qp_PercentHumanOralAbsorption>  (1251) 
100

>  <r_qp_QPPCaco>  (1251) 
305.68900000000002

>  <r_qp_QPPMDCK>  (1251) 
375.66399999999999

>  <r_qp_QPlogBB>  (1251) 
-0.27400000000000002

>  <r_qp_QPlogHERG>  (1251) 
-7.101

>  <r_qp_QPlogKhsa>  (1251) 
0.55100000000000005

>  <r_qp_QPlogKp>  (1251) 
-3.052

>  <r_qp_QPlogPC16>  (1251) 
15.487

>  <r_qp_QPlogPo/w>  (1251) 
4.415

>  <r_qp_QPlogPoct>  (1251) 
22.616

>  <r_qp_QPlogPw>  (1251) 
12.173

>  <r_qp_QPlogS>  (1251) 
-5.4459999999999997

>  <r_qp_QPpolrz>  (1251) 
48.189

>  <r_qp_SASA>  (1251) 
724.66999999999996

>  <r_qp_SAamideO>  (1251) 
0

>  <r_qp_SAfluorine>  (1251) 
0

>  <r_qp_WPSA>  (1251) 
71.727000000000004

>  <r_qp_accptHB>  (1251) 
7.5

>  <r_qp_dip^2/V>  (1251) 
0.043923299999999998

>  <r_qp_dipole>  (1251) 
7.7939999999999996

>  <r_qp_donorHB>  (1251) 
1

>  <r_qp_glob>  (1251) 
0.82835479999999995

>  <r_qp_mol_MW>  (1251) 
469.97199999999998

>  <r_qp_volume>  (1251) 
1382.8879999999999

>  <r_sd_BIOSOLVEIT.INFINISEE\_FTREES\_SIMILARITY>  (1251) 
0.91100000000000003

>  <r_sd_BIOSOLVEIT.LOGP>  (1251) 
4.37418

>  <r_sd_BIOSOLVEIT.MOLECULAR\_WEIGHT>  (1251) 
470.98200000000003

>  <r_sd_BIOSOLVEIT.TPSA>  (1251) 
73.459999999999994

>  <i_epik_Tot_Q>  (1251) 
0

>  <i_epik_Tot_abs_Q>  (1251) 
0

>  <i_f3d_flags>  (1251) 
0

>  <i_i_glide_confnum>  (1251) 
1

>  <i_i_glide_lignum>  (1251) 
1067

>  <i_i_glide_posenum>  (1251) 
11

>  <i_i_glide_rotatable_bonds>  (1251) 
8

>  <i_lp_mmshare_version>  (1251) 
65135

>  <i_m_ct_format>  (1251) 
2

>  <i_m_source_file_index>  (1251) 
2587

>  <i_qp_#NandO>  (1251) 
6

>  <i_qp_#acid>  (1251) 
0

>  <i_qp_#amide>  (1251) 
0

>  <i_qp_#amidine>  (1251) 
0

>  <i_qp_#amine>  (1251) 
1

>  <i_qp_#in34>  (1251) 
0

>  <i_qp_#in56>  (1251) 
22

>  <i_qp_#metab>  (1251) 
5

>  <i_qp_#nonHatm>  (1251) 
34

>  <i_qp_#noncon>  (1251) 
0

>  <i_qp_#ringatoms>  (1251) 
22

>  <i_qp_#rotor>  (1251) 
8

>  <i_qp_#rtvFG>  (1251) 
0

>  <i_qp_#stars>  (1251) 
0

>  <i_qp_CNS>  (1251) 
1

>  <i_qp_HumanOralAbsorption>  (1251) 
3

>  <i_qp_RuleOfFive>  (1251) 
0

>  <i_qp_RuleOfThree>  (1251) 
0

>  <i_sd_BIOSOLVEIT.INFINISEE\_RESULT\_RANK>  (1251) 
40175

>  <i_sd_version>  (1251) 
0

>  <b_lp_Chiralities_Consistent>  (1251) 
1

>  <b_sd_chiral_flag>  (1251) 
0

>  <canonical_id>  (1251) 
ATP-HTVS-C5A7FD400424

>  <compound_code>  (1251) 
82753

>  <title>  (1251) 
rxn502b____EMOL331054254____EMOL44466703____EMOL712348

>  <variant>  (1251) 
82753-2

>  <source_file>  (1251) 
运行/运行/ATP-VSW/ATP-VSW-DOCK_HTVS_1-001_lib/ATP-VSW-DOCK_HTVS_1-001_lib

>  <canonical_smiles>  (1251) 
CN(C)[C@H](C(=O)Nc1nc2ccccc2cc1N(CC#N)c1ccccc1)c1ccc(Cl)cc1

>  <scaffold>  (1251) 
O=C(Cc1ccccc1)Nc1nc2ccccc2cc1Nc1ccccc1

>  <molecular_formula>  (1251) 
C27H24ClN5O

$$$$
ATP-HTVS-C615FEE5992B
     RDKit          3D

 60 63  0  0  0  0  0  0  0  0999 V2000
  199.3734  178.7649  152.0990 Cl  0  0  0  0  0  0  0  0  0  0  0  0
  200.0113  177.4674  153.0777 C   0  0  0  0  0  0  0  0  0  0  0  0
  200.1641  177.6091  154.4776 C   0  0  0  0  0  0  0  0  0  0  0  0
  200.7491  176.6625  155.2293 N   0  0  0  0  0  0  0  0  0  0  0  0
  201.2349  175.5571  154.6382 C   0  0  0  0  0  0  0  0  0  0  0  0
  201.0719  175.3050  153.2467 C   0  0  0  0  0  0  0  0  0  0  0  0
  200.4216  176.2748  152.4414 C   0  0  0  0  0  0  0  0  0  0  0  0
  200.1941  176.0812  150.9873 C   0  0  0  0  0  0  0  0  0  0  0  0
  201.2821  176.0115  150.0895 C   0  0  0  0  0  0  0  0  0  0  0  0
  201.0705  175.8334  148.7065 C   0  0  0  0  0  0  0  0  0  0  0  0
  199.7611  175.7426  148.1991 C   0  0  0  0  0  0  0  0  0  0  0  0
  198.6659  175.8399  149.0771 C   0  0  0  0  0  0  0  0  0  0  0  0
  198.8832  175.9944  150.4621 C   0  0  0  0  0  0  0  0  0  0  0  0
  201.5475  174.1015  152.6858 C   0  0  0  0  0  0  0  0  0  0  0  0
  202.2061  173.1557  153.4931 C   0  0  0  0  0  0  0  0  0  0  0  0
  202.3937  173.4124  154.8606 C   0  0  0  0  0  0  0  0  0  0  0  0
  201.9151  174.6066  155.4280 C   0  0  0  0  0  0  0  0  0  0  0  0
  199.6973  178.8316  155.2470 C   0  0  1  0  0  0  0  0  0  0  0  0
  198.2816  178.6850  155.7195 N   0  0  1  0  0  0  0  0  0  0  0  0
  197.3610  179.8375  155.5253 C   0  0  2  0  0  0  0  0  0  0  0  0
  197.4084  180.4516  154.1162 C   0  0  0  0  0  0  0  0  0  0  0  0
  198.2714  181.5184  153.8004 C   0  0  0  0  0  0  0  0  0  0  0  0
  198.3884  182.0521  152.5545 N   0  0  0  0  0  0  0  0  0  0  0  0
  197.6440  181.5307  151.5625 C   0  0  0  0  0  0  0  0  0  0  0  0
  196.7331  180.4760  151.7636 C   0  0  0  0  0  0  0  0  0  0  0  0
  196.6113  179.9339  153.0571 C   0  0  0  0  0  0  0  0  0  0  0  0
  197.5306  180.8912  156.6590 C   0  0  1  0  0  0  0  0  0  0  0  0
  196.3223  181.8545  156.7480 C   0  0  1  0  0  0  0  0  0  0  0  0
  195.7313  181.8437  158.1079 N   0  0  1  0  0  0  0  0  0  0  0  0
  196.5434  182.6210  159.0772 C   0  0  2  0  0  0  0  0  0  0  0  0
  194.3148  182.2585  158.1366 C   0  0  2  0  0  0  0  0  0  0  0  0
  197.8948  177.8959  155.2222 H   0  0  0  0  0  0  0  0  0  0  0  0
  202.2918  176.0930  150.4660 H   0  0  0  0  0  0  0  0  0  0  0  0
  201.9172  175.7558  148.0395 H   0  0  0  0  0  0  0  0  0  0  0  0
  199.5991  175.6010  147.1406 H   0  0  0  0  0  0  0  0  0  0  0  0
  197.6594  175.7832  148.6878 H   0  0  0  0  0  0  0  0  0  0  0  0
  198.0314  176.0694  151.1208 H   0  0  0  0  0  0  0  0  0  0  0  0
  201.4132  173.8719  151.6366 H   0  0  0  0  0  0  0  0  0  0  0  0
  202.5621  172.2297  153.0651 H   0  0  0  0  0  0  0  0  0  0  0  0
  202.8856  172.6815  155.4752 H   0  0  0  0  0  0  0  0  0  0  0  0
  202.0426  174.8078  156.4859 H   0  0  0  0  0  0  0  0  0  0  0  0
  200.3143  178.9976  156.1360 H   0  0  0  0  0  0  0  0  0  0  0  0
  199.8630  179.7113  154.6068 H   0  0  0  0  0  0  0  0  0  0  0  0
  196.3793  179.3880  155.6550 H   0  0  0  0  0  0  0  0  0  0  0  0
  198.9357  181.9398  154.5364 H   0  0  0  0  0  0  0  0  0  0  0  0
  197.8496  181.9222  150.5745 H   0  0  0  0  0  0  0  0  0  0  0  0
  196.1912  180.0611  150.9224 H   0  0  0  0  0  0  0  0  0  0  0  0
  195.9515  179.0873  153.2125 H   0  0  0  0  0  0  0  0  0  0  0  0
  197.6515  180.3608  157.6031 H   0  0  0  0  0  0  0  0  0  0  0  0
  198.4599  181.4741  156.5172 H   0  0  0  0  0  0  0  0  0  0  0  0
  196.6008  182.8734  156.4715 H   0  0  0  0  0  0  0  0  0  0  0  0
  195.5499  181.5685  156.0315 H   0  0  0  0  0  0  0  0  0  0  0  0
  196.5843  183.6723  158.7943 H   0  0  0  0  0  0  0  0  0  0  0  0
  197.5668  182.2474  159.1225 H   0  0  0  0  0  0  0  0  0  0  0  0
  196.1301  182.5652  160.0847 H   0  0  0  0  0  0  0  0  0  0  0  0
  194.1928  183.2764  157.7574 H   0  0  0  0  0  0  0  0  0  0  0  0
  193.9321  182.2208  159.1547 H   0  0  0  0  0  0  0  0  0  0  0  0
  193.7110  181.5727  157.5358 H   0  0  0  0  0  0  0  0  0  0  0  0
  195.7232  180.8625  158.3687 H   0  0  0  0  0  0  0  0  0  0  0  0
  198.2257  178.4071  156.6847 H   0  0  0  0  0  0  0  0  0  0  0  0
  1  2  1  0
  2  3  1  0
  2  7  2  0
  3  4  2  0
  3 18  1  0
  4  5  1  0
  5  6  1  0
  5 17  2  0
  6  7  1  0
  6 14  2  0
  7  8  1  0
  8  9  2  0
  8 13  1  0
  9 10  1  0
  9 33  1  0
 10 11  2  0
 10 34  1  0
 11 12  1  0
 11 35  1  0
 12 13  2  0
 12 36  1  0
 13 37  1  0
 14 15  1  0
 14 38  1  0
 15 16  2  0
 15 39  1  0
 16 17  1  0
 16 40  1  0
 17 41  1  0
 18 19  1  0
 18 42  1  1
 18 43  1  0
 19 20  1  0
 19 32  1  6
 19 60  1  0
 20 21  1  0
 20 27  1  0
 20 44  1  1
 21 22  2  0
 21 26  1  0
 22 23  1  0
 22 45  1  0
 23 24  2  0
 24 25  1  0
 24 46  1  0
 25 26  2  0
 25 47  1  0
 26 48  1  0
 27 28  1  0
 27 49  1  1
 27 50  1  0
 28 29  1  0
 28 51  1  6
 28 52  1  0
 29 30  1  0
 29 31  1  0
 29 59  1  1
 30 53  1  6
 30 54  1  0
 30 55  1  0
 31 56  1  6
 31 57  1  0
 31 58  1  0
M  CHG  2  19   1  29   1
M  END
>  <s_epik_cmdline>  (1252) 
J2VwaWtfcHl0aG9uJywgJy1waCcsICc3LjAwMDAwMCcsICctcGh0JywgJzIuMDAwMDAwJywgJy1tcycsICcxNicsICctdG4nLCAnOCcsICctbWEnLCAnMjAwJywgJy1pbWFlJywgJzxpbmZpbGUubWFlPicsICctb21hZScsICc8b3V0ZmlsZS5tYWU+Jw==

>  <s_epik_input>  (1252) 
W2NIXTFbY0hdW2NIXVtjSF1bY0hdYzEtYyhjKGMyMylbY0hdW2NIXVtjSF1bY0hdMyljKENsKWMobjIpW0NIMl1bTkhdW0NAQEhdKFtDSDJdW0NIMl1OKFtDSDNdKVtDSDNdKWM0W2NIXW5bY0hdW2NIXVtjSF00

>  <s_i_glide_gridfile>  (1252) 
ATP-Grid

>  <s_lp_Force_Field>  (1252) 
OPLS_2005

>  <s_lp_Variant>  (1252) 
m_2230bbb____22399256____7471132-4

>  <s_lp_label>  (1252) 
1661_sdstereoexpander_2_neutralizer_1_epik_2_stereoizer_1

>  <s_m_source_file>  (1252) 
ATP-VSW-LIGPREP-002-in.maegz

>  <s_sd_BIOSOLVEIT.INFINISEE\_QUERY\_NAME>  (1252) 
Ref-Lig

>  <s_sd_BIOSOLVEIT.INFINISEE\_QUERY\_SMILES>  (1252) 
S(c1nc2c(cc1C[NH2+]Cc3ccc(cc3)C[NH+](C)C)cccc2)Cc4ccccc4

>  <s_sd_BIOSOLVEIT.INFINISEE\_REACTION\_NAME>  (1252) 
m_2230bbb

>  <s_sd_BIOSOLVEIT.INFINISEE\_REAGENT1\_SMILES>  (1252) 
[R1*]NC(c1cnccc1)CCN(C)C

>  <s_sd_BIOSOLVEIT.INFINISEE\_REAGENT2\_SMILES>  (1252) 
[R1*]Cc1nc2c(c(c1Cl)c3ccccc3)cccc2

>  <s_sd_BIOSOLVEIT.INFINISEE\_SPACE>  (1252) 
REALSpace_44bn_2023-08

>  <s_vsw_compound_code>  (1252) 
53122

>  <s_vsw_variant>  (1252) 
53122-4

>  <r_epik_Charging_Adjusted_Penalty>  (1252) 
0.95661175356961103

>  <r_epik_Ionization_Penalty>  (1252) 
0.48830000000000001

>  <r_epik_Ionization_Penalty_Charging>  (1252) 
0.4874

>  <r_epik_Ionization_Penalty_Neutral>  (1252) 
0.00089999999999999998

>  <r_epik_State_Penalty>  (1252) 
0.46929999999999999

>  <r_i_docking_score>  (1252) 
-5.7682419455361398

>  <r_i_glide_ecoul>  (1252) 
-16.335781097412099

>  <r_i_glide_eff_state_penalty>  (1252) 
0.46929999999999999

>  <r_i_glide_einternal>  (1252) 
10.2698574066162

>  <r_i_glide_emodel>  (1252) 
-78.010887122515896

>  <r_i_glide_energy>  (1252) 
-49.6351509094238

>  <r_i_glide_erotb>  (1252) 
0.63697753516875699

>  <r_i_glide_esite>  (1252) 
-0.20000000000000001

>  <r_i_glide_evdw>  (1252) 
-33.299369812011697

>  <r_i_glide_gscore>  (1252) 
-6.2375419455361403

>  <r_i_glide_hbond>  (1252) 
-0.39339866103568999

>  <r_i_glide_ligand_efficiency>  (1252) 
-0.186072320823746

>  <r_i_glide_ligand_efficiency_ln>  (1252) 
-1.30091533410411

>  <r_i_glide_ligand_efficiency_sa>  (1252) 
-0.58452398791219895

>  <r_i_glide_lipo>  (1252) 
-1.48388489172953

>  <r_i_glide_metal>  (1252) 
-0

>  <r_i_glide_rewards>  (1252) 
-0.68190027272727105

>  <r_lp_Energy>  (1252) 
32.859746000000001

>  <r_qp_ACxDN^.5/SA>  (1252) 
0.0081221000000000002

>  <r_qp_CIQPlogS>  (1252) 
-4.8010000000000002

>  <r_qp_EA(eV)>  (1252) 
1.119

>  <r_qp_FISA>  (1252) 
50.244

>  <r_qp_FOSA>  (1252) 
223.94800000000001

>  <r_qp_IP(eV)>  (1252) 
8.9239999999999995

>  <r_qp_Jm>  (1252) 
0.0030810024811190702

>  <r_qp_PISA>  (1252) 
434.57100000000003

>  <r_qp_PSA>  (1252) 
41.198999999999998

>  <r_qp_PercentHumanOralAbsorption>  (1252) 
95.513000000000005

>  <r_qp_QPPCaco>  (1252) 
205.702

>  <r_qp_QPPMDCK>  (1252) 
159.93799999999999

>  <r_qp_QPlogBB>  (1252) 
0.442

>  <r_qp_QPlogHERG>  (1252) 
-8.1259999999999994

>  <r_qp_QPlogKhsa>  (1252) 
0.83899999999999997

>  <r_qp_QPlogKp>  (1252) 
-4.2720000000000002

>  <r_qp_QPlogPC16>  (1252) 
14.877000000000001

>  <r_qp_QPlogPo/w>  (1252) 
4.6399999999999997

>  <r_qp_QPlogPoct>  (1252) 
20.765999999999998

>  <r_qp_QPlogPw>  (1252) 
10.414999999999999

>  <r_qp_QPlogS>  (1252) 
-3.8740000000000001

>  <r_qp_QPpolrz>  (1252) 
47.972999999999999

>  <r_qp_SASA>  (1252) 
738.72900000000004

>  <r_qp_SAamideO>  (1252) 
0

>  <r_qp_SAfluorine>  (1252) 
0

>  <r_qp_WPSA>  (1252) 
29.966000000000001

>  <r_qp_accptHB>  (1252) 
6

>  <r_qp_dip^2/V>  (1252) 
0.0108962

>  <r_qp_dipole>  (1252) 
3.8740000000000001

>  <r_qp_donorHB>  (1252) 
1

>  <r_qp_glob>  (1252) 
0.81034309999999998

>  <r_qp_mol_MW>  (1252) 
430.97899999999998

>  <r_qp_volume>  (1252) 
1377.1569999999999

>  <r_sd_BIOSOLVEIT.INFINISEE\_FTREES\_SIMILARITY>  (1252) 
0.90500000000000003

>  <r_sd_BIOSOLVEIT.LOGP>  (1252) 
3.2894999999999999

>  <r_sd_BIOSOLVEIT.MOLECULAR\_WEIGHT>  (1252) 
432.99599999999998

>  <r_sd_BIOSOLVEIT.TPSA>  (1252) 
46.829999999999998

>  <i_epik_Tot_Q>  (1252) 
2

>  <i_epik_Tot_abs_Q>  (1252) 
2

>  <i_f3d_flags>  (1252) 
0

>  <i_i_glide_confnum>  (1252) 
4

>  <i_i_glide_lignum>  (1252) 
577

>  <i_i_glide_posenum>  (1252) 
6

>  <i_i_glide_rotatable_bonds>  (1252) 
8

>  <i_lp_mmshare_version>  (1252) 
65135

>  <i_m_ct_format>  (1252) 
2

>  <i_m_source_file_index>  (1252) 
1661

>  <i_qp_#NandO>  (1252) 
4

>  <i_qp_#acid>  (1252) 
0

>  <i_qp_#amide>  (1252) 
0

>  <i_qp_#amidine>  (1252) 
0

>  <i_qp_#amine>  (1252) 
2

>  <i_qp_#in34>  (1252) 
0

>  <i_qp_#in56>  (1252) 
22

>  <i_qp_#metab>  (1252) 
7

>  <i_qp_#nonHatm>  (1252) 
31

>  <i_qp_#noncon>  (1252) 
0

>  <i_qp_#ringatoms>  (1252) 
22

>  <i_qp_#rotor>  (1252) 
8

>  <i_qp_#rtvFG>  (1252) 
0

>  <i_qp_#stars>  (1252) 
0

>  <i_qp_CNS>  (1252) 
1

>  <i_qp_HumanOralAbsorption>  (1252) 
3

>  <i_qp_RuleOfFive>  (1252) 
0

>  <i_qp_RuleOfThree>  (1252) 
1

>  <i_sd_BIOSOLVEIT.INFINISEE\_REAGENT1\_NAME>  (1252) 
22399256

>  <i_sd_BIOSOLVEIT.INFINISEE\_REAGENT2\_NAME>  (1252) 
7471132

>  <i_sd_BIOSOLVEIT.INFINISEE\_RESULT\_RANK>  (1252) 
69476

>  <i_sd_version>  (1252) 
0

>  <b_lp_Chiralities_Consistent>  (1252) 
1

>  <b_sd_chiral_flag>  (1252) 
0

>  <canonical_id>  (1252) 
ATP-HTVS-C615FEE5992B

>  <compound_code>  (1252) 
53122

>  <title>  (1252) 
m_2230bbb____22399256____7471132

>  <variant>  (1252) 
53122-4

>  <source_file>  (1252) 
运行/运行/ATP-VSW/ATP-VSW-DOCK_HTVS_1-002_lib.maegz

>  <canonical_smiles>  (1252) 
C[NH+](C)CC[C@H]([NH2+]Cc1nc2ccccc2c(-c2ccccc2)c1Cl)c1cccnc1

>  <scaffold>  (1252) 
c1ccc(-c2cc(C[NH2+]Cc3cccnc3)nc3ccccc23)cc1

>  <molecular_formula>  (1252) 
C26H29ClN4+2

$$$$
ATP-HTVS-C6A6F28FFA03
     RDKit          3D

 68 71  0  0  0  0  0  0  0  0999 V2000
  197.1142  184.6861  155.2004 O   0  0  0  0  0  0  0  0  0  0  0  0
  197.2483  183.5247  155.5888 C   0  0  0  0  0  0  0  0  0  0  0  0
  197.5540  182.5213  154.7406 N   0  0  0  0  0  0  0  0  0  0  0  0
  197.6781  182.6035  153.3180 C   0  0  0  0  0  0  0  0  0  0  0  0
  197.5669  183.7807  152.6403 N   0  0  0  0  0  0  0  0  0  0  0  0
  197.6710  183.8099  151.3015 C   0  0  0  0  0  0  0  0  0  0  0  0
  197.8983  182.6303  150.5542 C   0  0  0  0  0  0  0  0  0  0  0  0
  198.0290  181.4096  151.2279 C   0  0  0  0  0  0  0  0  0  0  0  0
  197.9252  181.3816  152.6348 C   0  0  0  0  0  0  0  0  0  0  0  0
  198.0616  180.1684  153.3434 N   0  0  0  0  0  0  0  0  0  0  0  0
  199.0909  179.2475  152.8363 C   0  0  2  0  0  0  0  0  0  0  0  0
  198.6434  178.5160  151.6299 C   0  0  0  0  0  0  0  0  0  0  0  0
  198.2988  177.9441  150.6818 N   0  0  0  0  0  0  0  0  0  0  0  0
  199.6571  178.2644  153.8578 C   0  0  0  0  0  0  0  0  0  0  0  0
  200.3852  177.1305  153.4211 C   0  0  0  0  0  0  0  0  0  0  0  0
  200.8868  176.1951  154.3491 C   0  0  0  0  0  0  0  0  0  0  0  0
  200.6705  176.3878  155.7283 C   0  0  0  0  0  0  0  0  0  0  0  0
  199.9644  177.5214  156.1766 C   0  0  0  0  0  0  0  0  0  0  0  0
  199.4817  178.4606  155.2490 C   0  0  0  0  0  0  0  0  0  0  0  0
  196.7965  179.6107  153.8197 C   0  0  2  0  0  0  0  0  0  0  0  0
  198.0013  182.6330  149.1560 C   0  0  0  0  0  0  0  0  0  0  0  0
  197.8685  183.8401  148.4522 C   0  0  0  0  0  0  0  0  0  0  0  0
  197.6402  185.0272  149.1725 C   0  0  0  0  0  0  0  0  0  0  0  0
  197.5543  185.0174  150.5784 C   0  0  0  0  0  0  0  0  0  0  0  0
  197.1193  183.1832  157.1039 C   0  0  2  0  0  0  0  0  0  0  0  0
  195.7018  183.1564  157.6350 N   0  0  1  0  0  0  0  0  0  0  0  0
  195.2394  181.7780  158.0055 C   0  0  1  0  0  0  0  0  0  0  0  0
  193.7589  181.6844  158.4351 C   0  0  2  0  0  0  0  0  0  0  0  0
  195.3226  184.2163  158.6269 C   0  0  1  0  0  0  0  0  0  0  0  0
  196.0467  184.0379  160.0055 C   0  0  2  0  0  0  0  0  0  0  0  0
  198.0376  184.1521  157.7945 C   0  0  0  0  0  0  0  0  0  0  0  0
  199.2167  183.7180  158.4567 C   0  0  0  0  0  0  0  0  0  0  0  0
  200.0435  184.6020  159.1797 C   0  0  0  0  0  0  0  0  0  0  0  0
  199.7025  185.9694  159.2743 C   0  0  0  0  0  0  0  0  0  0  0  0
  198.5598  186.4372  158.5786 C   0  0  0  0  0  0  0  0  0  0  0  0
  197.7607  185.5564  157.8624 C   0  0  0  0  0  0  0  0  0  0  0  0
  197.7095  181.5986  155.1287 H   0  0  0  0  0  0  0  0  0  0  0  0
  198.1931  180.5274  150.6307 H   0  0  0  0  0  0  0  0  0  0  0  0
  199.9568  179.8399  152.5370 H   0  0  0  0  0  0  0  0  0  0  0  0
  200.5561  176.9622  152.3665 H   0  0  0  0  0  0  0  0  0  0  0  0
  201.4247  175.3248  153.9942 H   0  0  0  0  0  0  0  0  0  0  0  0
  201.0379  175.6647  156.4417 H   0  0  0  0  0  0  0  0  0  0  0  0
  199.7700  177.6712  157.2326 H   0  0  0  0  0  0  0  0  0  0  0  0
  198.9523  179.3171  155.6383 H   0  0  0  0  0  0  0  0  0  0  0  0
  196.0614  180.3878  154.0287 H   0  0  0  0  0  0  0  0  0  0  0  0
  196.9319  179.0394  154.7410 H   0  0  0  0  0  0  0  0  0  0  0  0
  196.3793  178.9468  153.0639 H   0  0  0  0  0  0  0  0  0  0  0  0
  198.1821  181.7117  148.6186 H   0  0  0  0  0  0  0  0  0  0  0  0
  197.9481  183.8462  147.3745 H   0  0  0  0  0  0  0  0  0  0  0  0
  197.5352  185.9545  148.6382 H   0  0  0  0  0  0  0  0  0  0  0  0
  197.4031  185.9297  151.1333 H   0  0  0  0  0  0  0  0  0  0  0  0
  197.5474  182.1854  157.2081 H   0  0  0  0  0  0  0  0  0  0  0  0
  195.3709  181.1060  157.1477 H   0  0  0  0  0  0  0  0  0  0  0  0
  195.8629  181.3942  158.8132 H   0  0  0  0  0  0  0  0  0  0  0  0
  193.4652  180.6708  158.7057 H   0  0  0  0  0  0  0  0  0  0  0  0
  193.0673  182.0515  157.6837 H   0  0  0  0  0  0  0  0  0  0  0  0
  193.5555  182.2781  159.3296 H   0  0  0  0  0  0  0  0  0  0  0  0
  195.4982  185.2032  158.1814 H   0  0  0  0  0  0  0  0  0  0  0  0
  194.2497  184.1432  158.8019 H   0  0  0  0  0  0  0  0  0  0  0  0
  195.6616  184.7569  160.7336 H   0  0  0  0  0  0  0  0  0  0  0  0
  197.1296  184.1761  159.9255 H   0  0  0  0  0  0  0  0  0  0  0  0
  195.9069  183.0450  160.4635 H   0  0  0  0  0  0  0  0  0  0  0  0
  199.4796  182.6630  158.4353 H   0  0  0  0  0  0  0  0  0  0  0  0
  200.9090  184.2222  159.7225 H   0  0  0  0  0  0  0  0  0  0  0  0
  200.2877  186.6452  159.8875 H   0  0  0  0  0  0  0  0  0  0  0  0
  198.2550  187.4664  158.7046 H   0  0  0  0  0  0  0  0  0  0  0  0
  196.8982  185.9344  157.3141 H   0  0  0  0  0  0  0  0  0  0  0  0
  195.1397  183.3162  156.8094 H   0  0  0  0  0  0  0  0  0  0  0  0
  1  2  2  0
  2  3  1  0
  2 25  1  0
  3  4  1  0
  3 37  1  0
  4  5  2  0
  4  9  1  0
  5  6  1  0
  6  7  1  0
  6 24  2  0
  7  8  1  0
  7 21  2  0
  8  9  2  0
  8 38  1  0
  9 10  1  0
 10 11  1  0
 10 20  1  0
 11 12  1  0
 11 14  1  0
 11 39  1  6
 12 13  3  0
 14 15  2  0
 14 19  1  0
 15 16  1  0
 15 40  1  0
 16 17  2  0
 16 41  1  0
 17 18  1  0
 17 42  1  0
 18 19  2  0
 18 43  1  0
 19 44  1  0
 20 45  1  1
 20 46  1  0
 20 47  1  0
 21 22  1  0
 21 48  1  0
 22 23  2  0
 22 49  1  0
 23 24  1  0
 23 50  1  0
 24 51  1  0
 25 26  1  0
 25 31  1  0
 25 52  1  6
 26 27  1  0
 26 29  1  0
 26 68  1  6
 27 28  1  0
 27 53  1  6
 27 54  1  0
 28 55  1  1
 28 56  1  0
 28 57  1  0
 29 30  1  0
 29 58  1  6
 29 59  1  0
 30 60  1  1
 30 61  1  0
 30 62  1  0
 31 32  2  0
 31 36  1  0
 32 33  1  0
 32 63  1  0
 33 34  2  0
 33 64  1  0
 34 35  1  0
 34 65  1  0
 35 36  2  0
 35 66  1  0
 36 67  1  0
M  CHG  1  26   1
M  END
>  <s_epik_cmdline>  (1253) 
J2VwaWtfcHl0aG9uJywgJy1waCcsICc3LjAwMDAwMCcsICctcGh0JywgJzIuMDAwMDAwJywgJy1tcycsICcxNicsICctdG4nLCAnOCcsICctbWEnLCAnMjAwJywgJy1pbWFlJywgJzxpbmZpbGUubWFlPicsICctb21hZScsICc8b3V0ZmlsZS5tYWU+Jw==

>  <s_epik_input>  (1253) 
W2NIXTFbY0hdW2NIXVtjSF1bY0hdYzFbQ0BASF0oTihbQ0gyXVtDSDNdKVtDSDJdW0NIM10pQyg9TylbTkhdYyhuMiljKFtjSF1jKGMyMylbY0hdW2NIXVtjSF1bY0hdMylOKFtDSDNdKVtDQEhdKEMjTiljNFtjSF1bY0hdW2NIXVtjSF1bY0hdNA==

>  <s_i_glide_gridfile>  (1253) 
ATP-Grid

>  <s_lp_Force_Field>  (1253) 
OPLS_2005

>  <s_lp_Variant>  (1253) 
rxn502b____EMOL5759977____EMOL44466703____EMOL24630243-6

>  <s_lp_label>  (1253) 
2576_sdstereoexpander_2_neutralizer_1_epik_2_stereoizer_1

>  <s_m_source_file>  (1253) 
ATP-VSW-LIGPREP-001-in.maegz

>  <s_sd_BIOSOLVEIT.INFINISEE\_QUERY\_NAME>  (1253) 
Ref-Lig

>  <s_sd_BIOSOLVEIT.INFINISEE\_QUERY\_SMILES>  (1253) 
S(c1nc2c(cc1C[NH2+]Cc3ccc(cc3)C[NH+](C)C)cccc2)Cc4ccccc4

>  <s_sd_BIOSOLVEIT.INFINISEE\_REACTION\_NAME>  (1253) 
rxn502b

>  <s_sd_BIOSOLVEIT.INFINISEE\_REAGENT1\_NAME>  (1253) 
EMOL5759977

>  <s_sd_BIOSOLVEIT.INFINISEE\_REAGENT1\_SMILES>  (1253) 
O=C(O)C(N(CC)CC)c1ccccc1

>  <s_sd_BIOSOLVEIT.INFINISEE\_REAGENT2\_NAME>  (1253) 
EMOL44466703

>  <s_sd_BIOSOLVEIT.INFINISEE\_REAGENT2\_SMILES>  (1253) 
Brc1c(nc2c(c1)cccc2)N

>  <s_sd_BIOSOLVEIT.INFINISEE\_REAGENT3\_NAME>  (1253) 
EMOL24630243

>  <s_sd_BIOSOLVEIT.INFINISEE\_REAGENT3\_SMILES>  (1253) 
N#CC(NC)c1ccccc1

>  <s_sd_BIOSOLVEIT.INFINISEE\_SPACE>  (1253) 
eXplore_7tr_2022-12

>  <s_vsw_compound_code>  (1253) 
82401

>  <s_vsw_variant>  (1253) 
82401-6

>  <r_epik_Charging_Adjusted_Penalty>  (1253) 
1.1963594752123701

>  <r_epik_Ionization_Penalty>  (1253) 
0.58640000000000003

>  <r_epik_Ionization_Penalty_Charging>  (1253) 
0.58589999999999998

>  <r_epik_Ionization_Penalty_Neutral>  (1253) 
0.00050000000000000001

>  <r_epik_State_Penalty>  (1253) 
0.61050000000000004

>  <r_i_docking_score>  (1253) 
-3.7751419599995502

>  <r_i_glide_ecoul>  (1253) 
-7.5307445526123002

>  <r_i_glide_eff_state_penalty>  (1253) 
0.61050000000000004

>  <r_i_glide_einternal>  (1253) 
9.3083019256591797

>  <r_i_glide_emodel>  (1253) 
-56.958220545598699

>  <r_i_glide_energy>  (1253) 
-44.8999538421631

>  <r_i_glide_erotb>  (1253) 
0.61929813176120196

>  <r_i_glide_esite>  (1253) 
-0.105948022098986

>  <r_i_glide_evdw>  (1253) 
-37.369209289550803

>  <r_i_glide_gscore>  (1253) 
-4.3856419599995498

>  <r_i_glide_hbond>  (1253) 
-0.20000000000000001

>  <r_i_glide_ligand_efficiency>  (1253) 
-0.104865054444432

>  <r_i_glide_ligand_efficiency_ln>  (1253) 
-0.82363398312283298

>  <r_i_glide_ligand_efficiency_sa>  (1253) 
-0.346256780313282

>  <r_i_glide_lipo>  (1253) 
-1.48019416658034

>  <r_i_glide_metal>  (1253) 
-0

>  <r_i_glide_rewards>  (1253) 
-0.22072575571203901

>  <r_lp_Energy>  (1253) 
41.316001

>  <r_qp_ACxDN^.5/SA>  (1253) 
0.0100445

>  <r_qp_CIQPlogS>  (1253) 
-6.9809999999999999

>  <r_qp_EA(eV)>  (1253) 
1.075

>  <r_qp_FISA>  (1253) 
77.968999999999994

>  <r_qp_FOSA>  (1253) 
258.601

>  <r_qp_IP(eV)>  (1253) 
8.7370000000000001

>  <r_qp_Jm>  (1253) 
0.0023115916990073498

>  <r_qp_PISA>  (1253) 
459.88999999999999

>  <r_qp_PSA>  (1253) 
71.384

>  <r_qp_PercentHumanOralAbsorption>  (1253) 
100

>  <r_qp_QPPCaco>  (1253) 
450.21800000000002

>  <r_qp_QPPMDCK>  (1253) 
231.005

>  <r_qp_QPlogBB>  (1253) 
-0.443

>  <r_qp_QPlogHERG>  (1253) 
-7.6070000000000002

>  <r_qp_QPlogKhsa>  (1253) 
0.73499999999999999

>  <r_qp_QPlogKp>  (1253) 
-2.4390000000000001

>  <r_qp_QPlogPC16>  (1253) 
16.399000000000001

>  <r_qp_QPlogPo/w>  (1253) 
4.9749999999999996

>  <r_qp_QPlogPoct>  (1253) 
23.722000000000001

>  <r_qp_QPlogPw>  (1253) 
12.433

>  <r_qp_QPlogS>  (1253) 
-5.8760000000000003

>  <r_qp_QPpolrz>  (1253) 
52.902000000000001

>  <r_qp_SASA>  (1253) 
796.45899999999995

>  <r_qp_SAamideO>  (1253) 
0

>  <r_qp_SAfluorine>  (1253) 
0

>  <r_qp_WPSA>  (1253) 
0

>  <r_qp_accptHB>  (1253) 
8

>  <r_qp_dip^2/V>  (1253) 
0.022045599999999999

>  <r_qp_dipole>  (1253) 
5.8010000000000002

>  <r_qp_donorHB>  (1253) 
1

>  <r_qp_glob>  (1253) 
0.80495459999999996

>  <r_qp_mol_MW>  (1253) 
477.608

>  <r_qp_volume>  (1253) 
1526.3530000000001

>  <r_sd_BIOSOLVEIT.INFINISEE\_FTREES\_SIMILARITY>  (1253) 
0.91200000000000003

>  <r_sd_BIOSOLVEIT.LOGP>  (1253) 
4.5403799999999999

>  <r_sd_BIOSOLVEIT.MOLECULAR\_WEIGHT>  (1253) 
478.61700000000002

>  <r_sd_BIOSOLVEIT.TPSA>  (1253) 
73.459999999999994

>  <i_epik_Tot_Q>  (1253) 
1

>  <i_epik_Tot_abs_Q>  (1253) 
1

>  <i_f3d_flags>  (1253) 
0

>  <i_i_glide_confnum>  (1253) 
7

>  <i_i_glide_lignum>  (1253) 
1044

>  <i_i_glide_posenum>  (1253) 
11

>  <i_i_glide_rotatable_bonds>  (1253) 
10

>  <i_lp_mmshare_version>  (1253) 
65135

>  <i_m_ct_format>  (1253) 
2

>  <i_m_source_file_index>  (1253) 
2576

>  <i_qp_#NandO>  (1253) 
6

>  <i_qp_#acid>  (1253) 
0

>  <i_qp_#amide>  (1253) 
0

>  <i_qp_#amidine>  (1253) 
0

>  <i_qp_#amine>  (1253) 
1

>  <i_qp_#in34>  (1253) 
0

>  <i_qp_#in56>  (1253) 
22

>  <i_qp_#metab>  (1253) 
6

>  <i_qp_#nonHatm>  (1253) 
36

>  <i_qp_#noncon>  (1253) 
0

>  <i_qp_#ringatoms>  (1253) 
22

>  <i_qp_#rotor>  (1253) 
10

>  <i_qp_#rtvFG>  (1253) 
0

>  <i_qp_#stars>  (1253) 
1

>  <i_qp_CNS>  (1253) 
1

>  <i_qp_HumanOralAbsorption>  (1253) 
3

>  <i_qp_RuleOfFive>  (1253) 
0

>  <i_qp_RuleOfThree>  (1253) 
1

>  <i_sd_BIOSOLVEIT.INFINISEE\_RESULT\_RANK>  (1253) 
38600

>  <i_sd_version>  (1253) 
0

>  <b_lp_Chiralities_Consistent>  (1253) 
1

>  <b_sd_chiral_flag>  (1253) 
0

>  <canonical_id>  (1253) 
ATP-HTVS-C6A6F28FFA03

>  <compound_code>  (1253) 
82401

>  <title>  (1253) 
rxn502b____EMOL5759977____EMOL44466703____EMOL24630243

>  <variant>  (1253) 
82401-6

>  <source_file>  (1253) 
运行/运行/ATP-VSW/ATP-VSW-DOCK_HTVS_1-001_lib/ATP-VSW-DOCK_HTVS_1-001_lib

>  <canonical_smiles>  (1253) 
CC[NH+](CC)[C@@H](C(=O)Nc1nc2ccccc2cc1N(C)[C@H](C#N)c1ccccc1)c1ccccc1

>  <scaffold>  (1253) 
O=C(Cc1ccccc1)Nc1nc2ccccc2cc1NCc1ccccc1

>  <molecular_formula>  (1253) 
C30H32N5O+

$$$$
ATP-HTVS-C6C7CCEB60F2
     RDKit          3D

 63 66  0  0  0  0  0  0  0  0999 V2000
  196.3239  179.5577  150.2214 O   0  0  0  0  0  0  0  0  0  0  0  0
  197.4211  178.9854  150.3511 C   0  0  0  0  0  0  0  0  0  0  0  0
  198.1549  178.9562  151.4686 N   0  0  0  0  0  0  0  0  0  0  0  0
  197.9081  179.5398  152.7405 C   0  0  0  0  0  0  0  0  0  0  0  0
  196.9109  180.4313  152.9175 N   0  0  0  0  0  0  0  0  0  0  0  0
  196.7449  181.0181  154.1116 C   0  0  0  0  0  0  0  0  0  0  0  0
  197.5488  180.7548  155.2420 C   0  0  0  0  0  0  0  0  0  0  0  0
  197.3731  181.4504  156.4477 N   0  0  0  0  0  0  0  0  0  0  0  0
  196.2226  182.3182  156.6868 C   0  0  1  0  0  0  0  0  0  0  0  0
  196.4476  183.3332  157.7815 C   0  0  0  0  0  0  0  0  0  0  0  0
  197.7408  183.9298  157.9018 C   0  0  0  0  0  0  0  0  0  0  0  0
  198.0045  184.8327  158.9397 C   0  0  0  0  0  0  0  0  0  0  0  0
  196.9506  185.2331  159.8007 C   0  0  0  0  0  0  0  0  0  0  0  0
  195.6573  184.6936  159.6384 C   0  0  0  0  0  0  0  0  0  0  0  0
  195.4107  183.7337  158.6376 C   0  0  0  0  0  0  0  0  0  0  0  0
  199.4139  185.3820  159.1092 C   0  0  1  0  0  0  0  0  0  0  0  0
  200.3553  184.4122  159.7427 N   0  0  2  0  0  0  0  0  0  0  0  0
  201.5589  185.0647  160.2910 C   0  0  2  0  0  0  0  0  0  0  0  0
  200.7225  183.2626  158.8789 C   0  0  2  0  0  0  0  0  0  0  0  0
  198.5691  179.7799  155.0871 C   0  0  0  0  0  0  0  0  0  0  0  0
  198.7663  179.1720  153.8156 C   0  0  0  0  0  0  0  0  0  0  0  0
  199.8119  178.2254  153.6537 C   0  0  0  0  0  0  0  0  0  0  0  0
  200.6361  177.8726  154.7388 C   0  0  0  0  0  0  0  0  0  0  0  0
  200.4356  178.4683  155.9956 C   0  0  0  0  0  0  0  0  0  0  0  0
  199.4111  179.4177  156.1655 C   0  0  0  0  0  0  0  0  0  0  0  0
  198.0284  178.2678  149.1804 C   0  0  0  0  0  0  0  0  0  0  0  0
  198.9427  177.1905  149.3669 C   0  0  0  0  0  0  0  0  0  0  0  0
  199.5121  176.5282  148.2671 C   0  0  0  0  0  0  0  0  0  0  0  0
  199.1595  176.9424  146.9515 C   0  0  0  0  0  0  0  0  0  0  0  0
  198.2323  177.9860  146.7631 C   0  0  0  0  0  0  0  0  0  0  0  0
  197.6722  178.6353  147.8706 C   0  0  0  0  0  0  0  0  0  0  0  0
  200.4961  175.4350  148.4752 C   0  0  0  0  0  0  0  0  0  0  0  0
  200.9848  175.1766  149.5913 O   0  0  0  0  0  0  0  0  0  0  0  0
  200.9037  174.5986  147.2771 C   0  0  2  0  0  0  0  0  0  0  0  0
  199.0070  178.4209  151.4068 H   0  0  0  0  0  0  0  0  0  0  0  0
  195.9370  181.7252  154.1288 H   0  0  0  0  0  0  0  0  0  0  0  0
  197.8568  181.1208  157.2753 H   0  0  0  0  0  0  0  0  0  0  0  0
  196.0026  182.9215  155.8040 H   0  0  0  0  0  0  0  0  0  0  0  0
  195.3353  181.7182  156.9080 H   0  0  0  0  0  0  0  0  0  0  0  0
  198.4913  183.6639  157.1963 H   0  0  0  0  0  0  0  0  0  0  0  0
  197.1285  185.9597  160.5803 H   0  0  0  0  0  0  0  0  0  0  0  0
  194.8478  185.0191  160.2791 H   0  0  0  0  0  0  0  0  0  0  0  0
  194.4185  183.3189  158.5039 H   0  0  0  0  0  0  0  0  0  0  0  0
  199.8060  185.7167  158.1405 H   0  0  0  0  0  0  0  0  0  0  0  0
  199.3505  186.2877  159.7220 H   0  0  0  0  0  0  0  0  0  0  0  0
  202.1275  185.5649  159.5044 H   0  0  0  0  0  0  0  0  0  0  0  0
  202.2166  184.3303  160.7559 H   0  0  0  0  0  0  0  0  0  0  0  0
  201.3104  185.8037  161.0543 H   0  0  0  0  0  0  0  0  0  0  0  0
  201.1879  183.6122  157.9611 H   0  0  0  0  0  0  0  0  0  0  0  0
  199.8496  182.6534  158.6041 H   0  0  0  0  0  0  0  0  0  0  0  0
  201.4300  182.5971  159.3809 H   0  0  0  0  0  0  0  0  0  0  0  0
  200.0019  177.7316  152.7115 H   0  0  0  0  0  0  0  0  0  0  0  0
  201.4172  177.1371  154.6111 H   0  0  0  0  0  0  0  0  0  0  0  0
  201.0619  178.1878  156.8323 H   0  0  0  0  0  0  0  0  0  0  0  0
  199.2627  179.8325  157.1497 H   0  0  0  0  0  0  0  0  0  0  0  0
  199.2150  176.8587  150.3602 H   0  0  0  0  0  0  0  0  0  0  0  0
  199.5889  176.4819  146.0823 H   0  0  0  0  0  0  0  0  0  0  0  0
  197.9723  178.2733  145.7566 H   0  0  0  0  0  0  0  0  0  0  0  0
  196.9614  179.4351  147.7044 H   0  0  0  0  0  0  0  0  0  0  0  0
  201.3824  175.2198  146.5202 H   0  0  0  0  0  0  0  0  0  0  0  0
  200.0250  174.1296  146.8322 H   0  0  0  0  0  0  0  0  0  0  0  0
  201.6041  173.8123  147.5589 H   0  0  0  0  0  0  0  0  0  0  0  0
  199.8623  184.0265  160.5343 H   0  0  0  0  0  0  0  0  0  0  0  0
  1  2  2  0
  2  3  1  0
  2 26  1  0
  3  4  1  0
  3 35  1  0
  4  5  1  0
  4 21  2  0
  5  6  2  0
  6  7  1  0
  6 36  1  0
  7  8  1  0
  7 20  2  0
  8  9  1  0
  8 37  1  0
  9 10  1  0
  9 38  1  6
  9 39  1  0
 10 11  2  0
 10 15  1  0
 11 12  1  0
 11 40  1  0
 12 13  2  0
 12 16  1  0
 13 14  1  0
 13 41  1  0
 14 15  2  0
 14 42  1  0
 15 43  1  0
 16 17  1  0
 16 44  1  6
 16 45  1  0
 17 18  1  0
 17 19  1  0
 17 63  1  1
 18 46  1  6
 18 47  1  0
 18 48  1  0
 19 49  1  6
 19 50  1  0
 19 51  1  0
 20 21  1  0
 20 25  1  0
 21 22  1  0
 22 23  2  0
 22 52  1  0
 23 24  1  0
 23 53  1  0
 24 25  2  0
 24 54  1  0
 25 55  1  0
 26 27  2  0
 26 31  1  0
 27 28  1  0
 27 56  1  0
 28 29  2  0
 28 32  1  0
 29 30  1  0
 29 57  1  0
 30 31  2  0
 30 58  1  0
 31 59  1  0
 32 33  2  0
 32 34  1  0
 34 60  1  6
 34 61  1  0
 34 62  1  0
M  CHG  1  17   1
M  END
>  <s_epik_cmdline>  (1254) 
J2VwaWtfcHl0aG9uJywgJy1waCcsICc3LjAwMDAwMCcsICctcGh0JywgJzIuMDAwMDAwJywgJy1tcycsICcxNicsICctdG4nLCAnOCcsICctbWEnLCAnMjAwJywgJy1pbWFlJywgJzxpbmZpbGUubWFlPicsICctb21hZScsICc8b3V0ZmlsZS5tYWU+Jw==

>  <s_epik_input>  (1254) 
W2NIXTFbY0hdW2NIXWMoQyg9TylbQ0gzXSlbY0hdYzFDKD1PKVtOSF1jKGMoYzIzKVtjSF1bY0hdW2NIXVtjSF0zKW5bY0hdYzJbTkhdW0NIMl1jNFtjSF1jKFtjSF1bY0hdW2NIXTQpW0NIMl1OKFtDSDNdKVtDSDNd

>  <s_i_glide_gridfile>  (1254) 
ATP-Grid

>  <s_lp_Force_Field>  (1254) 
OPLS_2005

>  <s_lp_Variant>  (1254) 
rxn502c____EMOL492224____EMOL29936549____EMOL2873214-1

>  <s_lp_label>  (1254) 
2312_sdstereoexpander_1_neutralizer_1_epik_1_stereoizer_1

>  <s_m_source_file>  (1254) 
ATP-VSW-LIGPREP-002-in.maegz

>  <s_sd_BIOSOLVEIT.INFINISEE\_QUERY\_NAME>  (1254) 
Ref-Lig

>  <s_sd_BIOSOLVEIT.INFINISEE\_QUERY\_SMILES>  (1254) 
S(c1nc2c(cc1C[NH2+]Cc3ccc(cc3)C[NH+](C)C)cccc2)Cc4ccccc4

>  <s_sd_BIOSOLVEIT.INFINISEE\_REACTION\_NAME>  (1254) 
rxn502c

>  <s_sd_BIOSOLVEIT.INFINISEE\_REAGENT1\_NAME>  (1254) 
EMOL492224

>  <s_sd_BIOSOLVEIT.INFINISEE\_REAGENT1\_SMILES>  (1254) 
O=C(O)c1cc(ccc1)C(=O)C

>  <s_sd_BIOSOLVEIT.INFINISEE\_REAGENT2\_NAME>  (1254) 
EMOL29936549

>  <s_sd_BIOSOLVEIT.INFINISEE\_REAGENT2\_SMILES>  (1254) 
Clc1c2c(c(nc1)N)cccc2

>  <s_sd_BIOSOLVEIT.INFINISEE\_REAGENT3\_NAME>  (1254) 
EMOL2873214

>  <s_sd_BIOSOLVEIT.INFINISEE\_REAGENT3\_SMILES>  (1254) 
N(Cc1cc(ccc1)CN)(C)C

>  <s_sd_BIOSOLVEIT.INFINISEE\_SPACE>  (1254) 
eXplore_7tr_2022-12

>  <s_vsw_compound_code>  (1254) 
73954

>  <s_vsw_variant>  (1254) 
73954-1

>  <r_epik_Charging_Adjusted_Penalty>  (1254) 
0.088195370499548398

>  <r_epik_Ionization_Penalty>  (1254) 
0.044200000000000003

>  <r_epik_Ionization_Penalty_Charging>  (1254) 
0.0441

>  <r_epik_Ionization_Penalty_Neutral>  (1254) 
0.0001

>  <r_epik_State_Penalty>  (1254) 
0.0441

>  <r_i_docking_score>  (1254) 
-3.2727938499400899

>  <r_i_glide_ecoul>  (1254) 
-0.97252488136291504

>  <r_i_glide_eff_state_penalty>  (1254) 
0.0441

>  <r_i_glide_einternal>  (1254) 
2.0427007675170898

>  <r_i_glide_emodel>  (1254) 
-49.263743232819998

>  <r_i_glide_energy>  (1254) 
-39.941076517105103

>  <r_i_glide_erotb>  (1254) 
0.68308159863740003

>  <r_i_glide_esite>  (1254) 
-0.065430952437348394

>  <r_i_glide_evdw>  (1254) 
-38.968551635742202

>  <r_i_glide_gscore>  (1254) 
-3.3168938499400902

>  <r_i_glide_hbond>  (1254) 
0

>  <r_i_glide_ligand_efficiency>  (1254) 
-0.096258642645296599

>  <r_i_glide_ligand_efficiency_ln>  (1254) 
-0.72305196020982498

>  <r_i_glide_ligand_efficiency_sa>  (1254) 
-0.31184063432210102

>  <r_i_glide_lipo>  (1254) 
-1.3740090205033899

>  <r_i_glide_metal>  (1254) 
-0

>  <r_i_glide_rewards>  (1254) 
-0.46622916164520101

>  <r_lp_Energy>  (1254) 
35.660241999999997

>  <r_lp_tautomer_probability>  (1254) 
0.99995000000000001

>  <r_qp_ACxDN^.5/SA>  (1254) 
0.014113000000000001

>  <r_qp_CIQPlogS>  (1254) 
-5.2510000000000003

>  <r_qp_EA(eV)>  (1254) 
0.90800000000000003

>  <r_qp_FISA>  (1254) 
119.714

>  <r_qp_FOSA>  (1254) 
292.714

>  <r_qp_IP(eV)>  (1254) 
7.7110000000000003

>  <r_qp_Jm>  (1254) 
0.00015487156359932601

>  <r_qp_PISA>  (1254) 
439.32499999999999

>  <r_qp_PSA>  (1254) 
90.712000000000003

>  <r_qp_PercentHumanOralAbsorption>  (1254) 
92.25

>  <r_qp_QPPCaco>  (1254) 
180.947

>  <r_qp_QPPMDCK>  (1254) 
86.244

>  <r_qp_QPlogBB>  (1254) 
-0.93799999999999994

>  <r_qp_QPlogHERG>  (1254) 
-8.3930000000000007

>  <r_qp_QPlogKhsa>  (1254) 
0.65800000000000003

>  <r_qp_QPlogKp>  (1254) 
-3.4729999999999999

>  <r_qp_QPlogPC16>  (1254) 
17.084

>  <r_qp_QPlogPo/w>  (1254) 
4.2519999999999998

>  <r_qp_QPlogPoct>  (1254) 
26.311

>  <r_qp_QPlogPw>  (1254) 
15.109

>  <r_qp_QPlogS>  (1254) 
-5.9930000000000003

>  <r_qp_QPpolrz>  (1254) 
53.704999999999998

>  <r_qp_SASA>  (1254) 
851.75300000000004

>  <r_qp_SAamideO>  (1254) 
0

>  <r_qp_SAfluorine>  (1254) 
0

>  <r_qp_WPSA>  (1254) 
0

>  <r_qp_accptHB>  (1254) 
8.5

>  <r_qp_dip^2/V>  (1254) 
0.068227599999999999

>  <r_qp_dipole>  (1254) 
10.180999999999999

>  <r_qp_donorHB>  (1254) 
2

>  <r_qp_glob>  (1254) 
0.75036099999999994

>  <r_qp_mol_MW>  (1254) 
452.55500000000001

>  <r_qp_volume>  (1254) 
1519.2470000000001

>  <r_sd_BIOSOLVEIT.INFINISEE\_FTREES\_SIMILARITY>  (1254) 
0.92200000000000004

>  <r_sd_BIOSOLVEIT.LOGP>  (1254) 
3.9462999999999999

>  <r_sd_BIOSOLVEIT.MOLECULAR\_WEIGHT>  (1254) 
453.56299999999999

>  <r_sd_BIOSOLVEIT.TPSA>  (1254) 
75.530000000000001

>  <i_epik_Tot_Q>  (1254) 
1

>  <i_epik_Tot_abs_Q>  (1254) 
1

>  <i_f3d_flags>  (1254) 
0

>  <i_i_glide_confnum>  (1254) 
2

>  <i_i_glide_lignum>  (1254) 
928

>  <i_i_glide_posenum>  (1254) 
12

>  <i_i_glide_rotatable_bonds>  (1254) 
9

>  <i_lp_mmshare_version>  (1254) 
65135

>  <i_m_ct_format>  (1254) 
2

>  <i_m_source_file_index>  (1254) 
2312

>  <i_qp_#NandO>  (1254) 
6

>  <i_qp_#acid>  (1254) 
0

>  <i_qp_#amide>  (1254) 
0

>  <i_qp_#amidine>  (1254) 
0

>  <i_qp_#amine>  (1254) 
1

>  <i_qp_#in34>  (1254) 
0

>  <i_qp_#in56>  (1254) 
22

>  <i_qp_#metab>  (1254) 
7

>  <i_qp_#nonHatm>  (1254) 
34

>  <i_qp_#noncon>  (1254) 
0

>  <i_qp_#ringatoms>  (1254) 
22

>  <i_qp_#rotor>  (1254) 
8

>  <i_qp_#rtvFG>  (1254) 
0

>  <i_qp_#stars>  (1254) 
1

>  <i_qp_CNS>  (1254) 
0

>  <i_qp_HumanOralAbsorption>  (1254) 
3

>  <i_qp_RuleOfFive>  (1254) 
0

>  <i_qp_RuleOfThree>  (1254) 
2

>  <i_sd_BIOSOLVEIT.INFINISEE\_RESULT\_RANK>  (1254) 
12754

>  <i_sd_version>  (1254) 
0

>  <b_lp_Chiralities_Consistent>  (1254) 
1

>  <b_sd_chiral_flag>  (1254) 
0

>  <canonical_id>  (1254) 
ATP-HTVS-C6C7CCEB60F2

>  <compound_code>  (1254) 
73954

>  <title>  (1254) 
rxn502c____EMOL492224____EMOL29936549____EMOL2873214

>  <variant>  (1254) 
73954-1

>  <source_file>  (1254) 
运行/运行/ATP-VSW/ATP-VSW-DOCK_HTVS_1-002_lib.maegz

>  <canonical_smiles>  (1254) 
CC(=O)c1cccc(C(=O)Nc2ncc(NCc3cccc(C[NH+](C)C)c3)c3ccccc23)c1

>  <scaffold>  (1254) 
O=C(Nc1ncc(NCc2ccccc2)c2ccccc12)c1ccccc1

>  <molecular_formula>  (1254) 
C28H29N4O2+

$$$$
ATP-HTVS-C725FB5B69C4
     RDKit          3D

 58 61  0  0  0  0  0  0  0  0999 V2000
  199.9647  185.7918  151.4149 O   0  0  0  0  0  0  0  0  0  0  0  0
  199.5598  186.3405  152.6089 C   0  0  0  0  0  0  0  0  0  0  0  0
  198.7410  185.5979  153.3830 N   0  0  0  0  0  0  0  0  0  0  0  0
  198.3262  186.1565  154.5128 C   0  0  0  0  0  0  0  0  0  0  0  0
  198.6809  187.3506  154.9957 N   0  0  0  0  0  0  0  0  0  0  0  0
  199.4993  188.1140  154.2362 C   0  0  0  0  0  0  0  0  0  0  0  0
  199.9757  187.6308  152.9903 C   0  0  0  0  0  0  0  0  0  0  0  0
  200.8160  188.4145  152.1740 C   0  0  0  0  0  0  0  0  0  0  0  0
  201.2055  189.6963  152.5979 C   0  0  0  0  0  0  0  0  0  0  0  0
  200.7513  190.1930  153.8345 C   0  0  0  0  0  0  0  0  0  0  0  0
  199.9060  189.4043  154.6450 C   0  0  0  0  0  0  0  0  0  0  0  0
  197.4074  185.4532  155.2607 N   0  0  0  0  0  0  0  0  0  0  0  0
  197.5135  184.0018  155.4520 C   0  0  1  0  0  0  0  0  0  0  0  0
  196.8653  183.4794  156.7789 C   0  0  1  0  0  0  0  0  0  0  0  0
  197.3715  182.1307  157.2033 N   0  0  1  0  0  0  0  0  0  0  0  0
  196.7311  181.6046  158.4371 C   0  0  2  0  0  0  0  0  0  0  0  0
  197.3391  181.1021  156.1347 C   0  0  2  0  0  0  0  0  0  0  0  0
  196.9644  184.4911  157.9347 C   0  0  0  0  0  0  0  0  0  0  0  0
  195.8559  184.7052  158.7944 C   0  0  0  0  0  0  0  0  0  0  0  0
  194.7112  183.9735  158.5599 O   0  0  0  0  0  0  0  0  0  0  0  0
  193.6681  184.0508  159.5126 C   0  0  2  0  0  0  0  0  0  0  0  0
  195.9697  185.6402  159.8519 C   0  0  0  0  0  0  0  0  0  0  0  0
  197.1443  186.3798  160.0277 C   0  0  0  0  0  0  0  0  0  0  0  0
  198.2426  186.1685  159.1749 C   0  0  0  0  0  0  0  0  0  0  0  0
  198.1611  185.2123  158.1532 C   0  0  0  0  0  0  0  0  0  0  0  0
  199.0421  185.1062  150.6675 C   0  0  0  0  0  0  0  0  0  0  0  0
  198.0428  185.8067  149.9612 C   0  0  0  0  0  0  0  0  0  0  0  0
  197.1135  185.1006  149.1773 C   0  0  0  0  0  0  0  0  0  0  0  0
  197.1763  183.6972  149.1012 C   0  0  0  0  0  0  0  0  0  0  0  0
  198.1664  182.9957  149.8151 C   0  0  0  0  0  0  0  0  0  0  0  0
  199.1011  183.6989  150.5970 C   0  0  0  0  0  0  0  0  0  0  0  0
  201.1728  188.0345  151.2281 H   0  0  0  0  0  0  0  0  0  0  0  0
  201.8611  190.2966  151.9787 H   0  0  0  0  0  0  0  0  0  0  0  0
  201.0563  191.1814  154.1566 H   0  0  0  0  0  0  0  0  0  0  0  0
  199.5612  189.8008  155.5905 H   0  0  0  0  0  0  0  0  0  0  0  0
  197.1039  185.9594  156.0806 H   0  0  0  0  0  0  0  0  0  0  0  0
  197.0740  183.4925  154.5896 H   0  0  0  0  0  0  0  0  0  0  0  0
  198.5760  183.7657  155.4449 H   0  0  0  0  0  0  0  0  0  0  0  0
  195.8101  183.3530  156.5360 H   0  0  0  0  0  0  0  0  0  0  0  0
  195.6559  181.4902  158.2921 H   0  0  0  0  0  0  0  0  0  0  0  0
  196.8963  182.2469  159.2991 H   0  0  0  0  0  0  0  0  0  0  0  0
  197.1423  180.6394  158.7072 H   0  0  0  0  0  0  0  0  0  0  0  0
  196.3300  180.9715  155.7449 H   0  0  0  0  0  0  0  0  0  0  0  0
  197.6689  180.1389  156.5275 H   0  0  0  0  0  0  0  0  0  0  0  0
  198.0073  181.3540  155.3115 H   0  0  0  0  0  0  0  0  0  0  0  0
  192.8553  183.3944  159.2104 H   0  0  0  0  0  0  0  0  0  0  0  0
  193.2441  185.0361  159.6060 H   0  0  0  0  0  0  0  0  0  0  0  0
  194.0327  183.7702  160.4983 H   0  0  0  0  0  0  0  0  0  0  0  0
  195.1576  185.8212  160.5385 H   0  0  0  0  0  0  0  0  0  0  0  0
  197.2048  187.1158  160.8181 H   0  0  0  0  0  0  0  0  0  0  0  0
  199.1477  186.7459  159.2963 H   0  0  0  0  0  0  0  0  0  0  0  0
  199.0215  185.0654  157.5088 H   0  0  0  0  0  0  0  0  0  0  0  0
  197.9963  186.8846  150.0164 H   0  0  0  0  0  0  0  0  0  0  0  0
  196.3567  185.6339  148.6203 H   0  0  0  0  0  0  0  0  0  0  0  0
  196.4682  183.1615  148.4910 H   0  0  0  0  0  0  0  0  0  0  0  0
  198.2166  181.9177  149.7497 H   0  0  0  0  0  0  0  0  0  0  0  0
  199.8647  183.1607  151.1412 H   0  0  0  0  0  0  0  0  0  0  0  0
  198.3423  182.2640  157.4386 H   0  0  0  0  0  0  0  0  0  0  0  0
  1  2  1  0
  1 26  1  0
  2  3  1  0
  2  7  2  0
  3  4  2  0
  4  5  1  0
  4 12  1  0
  5  6  2  0
  6  7  1  0
  6 11  1  0
  7  8  1  0
  8  9  2  0
  8 32  1  0
  9 10  1  0
  9 33  1  0
 10 11  2  0
 10 34  1  0
 11 35  1  0
 12 13  1  0
 12 36  1  0
 13 14  1  0
 13 37  1  6
 13 38  1  0
 14 15  1  0
 14 18  1  0
 14 39  1  6
 15 16  1  0
 15 17  1  0
 15 58  1  1
 16 40  1  6
 16 41  1  0
 16 42  1  0
 17 43  1  6
 17 44  1  0
 17 45  1  0
 18 19  1  0
 18 25  2  0
 19 20  1  0
 19 22  2  0
 20 21  1  0
 21 46  1  6
 21 47  1  0
 21 48  1  0
 22 23  1  0
 22 49  1  0
 23 24  2  0
 23 50  1  0
 24 25  1  0
 24 51  1  0
 25 52  1  0
 26 27  2  0
 26 31  1  0
 27 28  1  0
 27 53  1  0
 28 29  2  0
 28 54  1  0
 29 30  1  0
 29 55  1  0
 30 31  2  0
 30 56  1  0
 31 57  1  0
M  CHG  1  15   1
M  END
>  <s_epik_cmdline>  (1255) 
J2VwaWtfcHl0aG9uJywgJy1waCcsICc3LjAwMDAwMCcsICctcGh0JywgJzIuMDAwMDAwJywgJy1tcycsICcxNicsICctdG4nLCAnOCcsICctbWEnLCAnMjAwJywgJy1pbWFlJywgJzxpbmZpbGUubWFlPicsICctb21hZScsICc8b3V0ZmlsZS5tYWU+Jw==

>  <s_epik_input>  (1255) 
W2NIXTFbY0hdW2NIXVtjSF1bY0hdYzFPYyhjKGMyMylbY0hdW2NIXVtjSF1bY0hdMyluYyhuMilbTkhdW0NIMl1bQ0BASF0oTihbQ0gzXSlbQ0gzXSljNGMoT1tDSDNdKVtjSF1bY0hdW2NIXVtjSF00

>  <s_i_glide_gridfile>  (1255) 
ATP-Grid

>  <s_lp_Force_Field>  (1255) 
OPLS_2005

>  <s_lp_Variant>  (1255) 
m_27bbd____62037____12053100-2

>  <s_lp_label>  (1255) 
1774_sdstereoexpander_2_neutralizer_1_epik_1_stereoizer_1

>  <s_m_source_file>  (1255) 
ATP-VSW-LIGPREP-003-in.maegz

>  <s_sd_BIOSOLVEIT.INFINISEE\_QUERY\_NAME>  (1255) 
Ref-Lig

>  <s_sd_BIOSOLVEIT.INFINISEE\_QUERY\_SMILES>  (1255) 
S(c1nc2c(cc1C[NH2+]Cc3ccc(cc3)C[NH+](C)C)cccc2)Cc4ccccc4

>  <s_sd_BIOSOLVEIT.INFINISEE\_REACTION\_NAME>  (1255) 
m_27bbd

>  <s_sd_BIOSOLVEIT.INFINISEE\_REAGENT1\_SMILES>  (1255) 
[R1*]NCC(N(C)C)c1c(OC)cccc1

>  <s_sd_BIOSOLVEIT.INFINISEE\_REAGENT2\_SMILES>  (1255) 
[R1*]c1nc(Oc2ccccc2)c3c(n1)cccc3

>  <s_sd_BIOSOLVEIT.INFINISEE\_SPACE>  (1255) 
REALSpace_44bn_2023-08

>  <s_vsw_compound_code>  (1255) 
56739

>  <s_vsw_variant>  (1255) 
56739-2

>  <r_epik_Charging_Adjusted_Penalty>  (1255) 
0.18054091794671101

>  <r_epik_Ionization_Penalty>  (1255) 
0.096699999999999994

>  <r_epik_Ionization_Penalty_Charging>  (1255) 
0.039100000000000003

>  <r_epik_Ionization_Penalty_Neutral>  (1255) 
0.057599999999999998

>  <r_epik_State_Penalty>  (1255) 
0.1414

>  <r_i_docking_score>  (1255) 
-4.0240820689917802

>  <r_i_glide_ecoul>  (1255) 
-5.3621459007263201

>  <r_i_glide_eff_state_penalty>  (1255) 
0.1414

>  <r_i_glide_einternal>  (1255) 
4.6185402870178196

>  <r_i_glide_emodel>  (1255) 
-45.379525271840599

>  <r_i_glide_energy>  (1255) 
-35.139577388763399

>  <r_i_glide_erotb>  (1255) 
0.68628343617931498

>  <r_i_glide_esite>  (1255) 
-0.058638810066079801

>  <r_i_glide_evdw>  (1255) 
-29.777431488037099

>  <r_i_glide_gscore>  (1255) 
-4.1654820689917802

>  <r_i_glide_hbond>  (1255) 
0

>  <r_i_glide_ligand_efficiency>  (1255) 
-0.129809098999735

>  <r_i_glide_ligand_efficiency_ln>  (1255) 
-0.907553829862492

>  <r_i_glide_ligand_efficiency_sa>  (1255) 
-0.40777979163535599

>  <r_i_glide_lipo>  (1255) 
-1.6988478719578499

>  <r_i_glide_metal>  (1255) 
-0

>  <r_i_glide_rewards>  (1255) 
-0.80108536363636296

>  <r_lp_Energy>  (1255) 
20.849214

>  <r_lp_tautomer_probability>  (1255) 
1

>  <r_qp_ACxDN^.5/SA>  (1255) 
0.0089539000000000007

>  <r_qp_CIQPlogS>  (1255) 
-5.6139999999999999

>  <r_qp_EA(eV)>  (1255) 
0.876

>  <r_qp_FISA>  (1255) 
27.198

>  <r_qp_FOSA>  (1255) 
221.274

>  <r_qp_IP(eV)>  (1255) 
8.3249999999999993

>  <r_qp_Jm>  (1255) 
2.1968883015520002

>  <r_qp_PISA>  (1255) 
393.70999999999998

>  <r_qp_PSA>  (1255) 
46.722999999999999

>  <r_qp_PercentHumanOralAbsorption>  (1255) 
100

>  <r_qp_QPPCaco>  (1255) 
1364.2159999999999

>  <r_qp_QPPMDCK>  (1255) 
765.63599999999997

>  <r_qp_QPlogBB>  (1255) 
0.249

>  <r_qp_QPlogHERG>  (1255) 
-5.9809999999999999

>  <r_qp_QPlogKhsa>  (1255) 
0.64800000000000002

>  <r_qp_QPlogKp>  (1255) 
-1.9279999999999999

>  <r_qp_QPlogPC16>  (1255) 
13.281000000000001

>  <r_qp_QPlogPo/w>  (1255) 
4.6630000000000003

>  <r_qp_QPlogPoct>  (1255) 
18.911000000000001

>  <r_qp_QPlogPw>  (1255) 
9.4909999999999997

>  <r_qp_QPlogS>  (1255) 
-3.347

>  <r_qp_QPpolrz>  (1255) 
43.534999999999997

>  <r_qp_SASA>  (1255) 
642.18200000000002

>  <r_qp_SAamideO>  (1255) 
0

>  <r_qp_SAfluorine>  (1255) 
0

>  <r_qp_WPSA>  (1255) 
0

>  <r_qp_accptHB>  (1255) 
5.75

>  <r_qp_dip^2/V>  (1255) 
0.0038257999999999999

>  <r_qp_dipole>  (1255) 
2.2090000000000001

>  <r_qp_donorHB>  (1255) 
1

>  <r_qp_glob>  (1255) 
0.88594790000000001

>  <r_qp_mol_MW>  (1255) 
414.50599999999997

>  <r_qp_volume>  (1255) 
1276.002

>  <r_sd_BIOSOLVEIT.INFINISEE\_FTREES\_SIMILARITY>  (1255) 
0.90400000000000003

>  <r_sd_BIOSOLVEIT.LOGP>  (1255) 
3.7284000000000002

>  <r_sd_BIOSOLVEIT.MOLECULAR\_WEIGHT>  (1255) 
415.51400000000001

>  <r_sd_BIOSOLVEIT.TPSA>  (1255) 
60.710000000000001

>  <i_epik_Tot_Q>  (1255) 
1

>  <i_epik_Tot_abs_Q>  (1255) 
1

>  <i_f3d_flags>  (1255) 
0

>  <i_i_glide_confnum>  (1255) 
6

>  <i_i_glide_lignum>  (1255) 
657

>  <i_i_glide_posenum>  (1255) 
11

>  <i_i_glide_rotatable_bonds>  (1255) 
8

>  <i_lp_mmshare_version>  (1255) 
65135

>  <i_m_ct_format>  (1255) 
2

>  <i_m_source_file_index>  (1255) 
1774

>  <i_qp_#NandO>  (1255) 
6

>  <i_qp_#acid>  (1255) 
0

>  <i_qp_#amide>  (1255) 
0

>  <i_qp_#amidine>  (1255) 
0

>  <i_qp_#amine>  (1255) 
1

>  <i_qp_#in34>  (1255) 
0

>  <i_qp_#in56>  (1255) 
22

>  <i_qp_#metab>  (1255) 
4

>  <i_qp_#nonHatm>  (1255) 
31

>  <i_qp_#noncon>  (1255) 
0

>  <i_qp_#ringatoms>  (1255) 
22

>  <i_qp_#rotor>  (1255) 
8

>  <i_qp_#rtvFG>  (1255) 
0

>  <i_qp_#stars>  (1255) 
0

>  <i_qp_CNS>  (1255) 
1

>  <i_qp_HumanOralAbsorption>  (1255) 
3

>  <i_qp_RuleOfFive>  (1255) 
0

>  <i_qp_RuleOfThree>  (1255) 
0

>  <i_sd_BIOSOLVEIT.INFINISEE\_REAGENT1\_NAME>  (1255) 
62037

>  <i_sd_BIOSOLVEIT.INFINISEE\_REAGENT2\_NAME>  (1255) 
12053100

>  <i_sd_BIOSOLVEIT.INFINISEE\_RESULT\_RANK>  (1255) 
76161

>  <i_sd_version>  (1255) 
0

>  <b_lp_Chiralities_Consistent>  (1255) 
1

>  <b_sd_chiral_flag>  (1255) 
0

>  <canonical_id>  (1255) 
ATP-HTVS-C725FB5B69C4

>  <compound_code>  (1255) 
56739

>  <title>  (1255) 
m_27bbd____62037____12053100

>  <variant>  (1255) 
56739-2

>  <source_file>  (1255) 
运行/运行/ATP-VSW/ATP-VSW-DOCK_HTVS_1-003_lib/ATP-VSW-DOCK_HTVS_1-003_lib.mae

>  <canonical_smiles>  (1255) 
COc1ccccc1[C@@H](CNc1nc(Oc2ccccc2)c2ccccc2n1)[NH+](C)C

>  <scaffold>  (1255) 
c1ccc(CCNc2nc(Oc3ccccc3)c3ccccc3n2)cc1

>  <molecular_formula>  (1255) 
C25H27N4O2+

$$$$
ATP-HTVS-C74806D7CD52
     RDKit          3D

 63 66  0  0  0  0  0  0  0  0999 V2000
  204.0027  183.4354  163.1899 N   0  0  0  0  0  0  0  0  0  0  0  0
  203.5994  184.3011  162.5369 C   0  0  0  0  0  0  0  0  0  0  0  0
  203.0920  185.3890  161.7155 C   0  0  0  0  0  0  0  0  0  0  0  0
  202.5317  185.1134  160.4527 C   0  0  0  0  0  0  0  0  0  0  0  0
  202.0247  186.1600  159.6522 C   0  0  0  0  0  0  0  0  0  0  0  0
  202.0963  187.4905  160.1157 C   0  0  0  0  0  0  0  0  0  0  0  0
  202.6591  187.7681  161.3761 C   0  0  0  0  0  0  0  0  0  0  0  0
  203.1527  186.7194  162.1776 C   0  0  0  0  0  0  0  0  0  0  0  0
  201.4373  185.8480  158.2882 C   0  0  1  0  0  0  0  0  0  0  0  0
  200.2444  184.8817  158.3520 C   0  0  1  0  0  0  0  0  0  0  0  0
  199.0720  185.5003  158.9525 N   0  0  0  0  0  0  0  0  0  0  0  0
  197.8302  184.8445  158.9255 C   0  0  0  0  0  0  0  0  0  0  0  0
  197.7336  183.6745  158.2546 N   0  0  0  0  0  0  0  0  0  0  0  0
  196.5620  183.0302  158.1959 C   0  0  0  0  0  0  0  0  0  0  0  0
  195.4702  183.4778  158.8142 N   0  0  0  0  0  0  0  0  0  0  0  0
  195.5102  184.6437  159.4972 C   0  0  0  0  0  0  0  0  0  0  0  0
  196.7070  185.3898  159.5746 C   0  0  0  0  0  0  0  0  0  0  0  0
  196.7168  186.6226  160.2753 C   0  0  0  0  0  0  0  0  0  0  0  0
  195.5516  187.0668  160.9296 C   0  0  0  0  0  0  0  0  0  0  0  0
  194.3660  186.3069  160.8580 C   0  0  0  0  0  0  0  0  0  0  0  0
  194.3469  185.0994  160.1336 C   0  0  0  0  0  0  0  0  0  0  0  0
  196.4418  181.8724  157.4501 N   0  0  0  0  0  0  0  0  0  0  0  0
  197.5515  181.1421  156.8736 C   0  0  1  0  0  0  0  0  0  0  0  0
  197.4221  180.8707  155.3794 C   0  0  0  0  0  0  0  0  0  0  0  0
  197.9144  179.6843  154.7702 C   0  0  0  0  0  0  0  0  0  0  0  0
  197.8073  179.5382  153.3663 C   0  0  0  0  0  0  0  0  0  0  0  0
  197.2254  180.5393  152.5758 C   0  0  0  0  0  0  0  0  0  0  0  0
  196.7366  181.7065  153.1824 C   0  0  0  0  0  0  0  0  0  0  0  0
  196.8379  181.8697  154.5698 C   0  0  0  0  0  0  0  0  0  0  0  0
  198.5662  178.5443  155.5610 C   0  0  1  0  0  0  0  0  0  0  0  0
  199.6412  178.9654  156.5012 N   0  0  2  0  0  0  0  0  0  0  0  0
  200.6299  179.9208  155.9335 C   0  0  2  0  0  0  0  0  0  0  0  0
  200.2959  177.8261  157.1808 C   0  0  2  0  0  0  0  0  0  0  0  0
  202.4937  184.0923  160.0994 H   0  0  0  0  0  0  0  0  0  0  0  0
  201.7176  188.3038  159.5141 H   0  0  0  0  0  0  0  0  0  0  0  0
  202.6983  188.7864  161.7353 H   0  0  0  0  0  0  0  0  0  0  0  0
  203.5770  186.9403  163.1479 H   0  0  0  0  0  0  0  0  0  0  0  0
  201.1434  186.7675  157.7763 H   0  0  0  0  0  0  0  0  0  0  0  0
  202.2259  185.4051  157.6832 H   0  0  0  0  0  0  0  0  0  0  0  0
  200.0112  184.5471  157.3389 H   0  0  0  0  0  0  0  0  0  0  0  0
  200.4889  183.9900  158.9326 H   0  0  0  0  0  0  0  0  0  0  0  0
  199.2041  186.3056  159.5485 H   0  0  0  0  0  0  0  0  0  0  0  0
  197.6004  187.2379  160.3395 H   0  0  0  0  0  0  0  0  0  0  0  0
  195.5623  188.0027  161.4739 H   0  0  0  0  0  0  0  0  0  0  0  0
  193.4657  186.6597  161.3401 H   0  0  0  0  0  0  0  0  0  0  0  0
  193.4283  184.5342  160.0562 H   0  0  0  0  0  0  0  0  0  0  0  0
  195.5523  181.3902  157.4323 H   0  0  0  0  0  0  0  0  0  0  0  0
  198.5047  181.6439  157.0359 H   0  0  0  0  0  0  0  0  0  0  0  0
  197.5891  180.2281  157.4553 H   0  0  0  0  0  0  0  0  0  0  0  0
  198.1935  178.6534  152.8808 H   0  0  0  0  0  0  0  0  0  0  0  0
  197.1537  180.4140  151.5089 H   0  0  0  0  0  0  0  0  0  0  0  0
  196.2860  182.4879  152.5895 H   0  0  0  0  0  0  0  0  0  0  0  0
  196.4836  182.7967  155.0009 H   0  0  0  0  0  0  0  0  0  0  0  0
  197.7827  178.0070  156.1063 H   0  0  0  0  0  0  0  0  0  0  0  0
  198.9926  177.8363  154.8476 H   0  0  0  0  0  0  0  0  0  0  0  0
  201.1995  179.4682  155.1177 H   0  0  0  0  0  0  0  0  0  0  0  0
  201.3278  180.2493  156.7035 H   0  0  0  0  0  0  0  0  0  0  0  0
  200.1707  180.8278  155.5407 H   0  0  0  0  0  0  0  0  0  0  0  0
  200.8720  177.2189  156.4829 H   0  0  0  0  0  0  0  0  0  0  0  0
  199.5598  177.1842  157.6685 H   0  0  0  0  0  0  0  0  0  0  0  0
  200.9709  178.1881  157.9531 H   0  0  0  0  0  0  0  0  0  0  0  0
  194.5914  182.9673  158.7478 H   0  0  0  0  0  0  0  0  0  0  0  0
  199.1320  179.4323  157.2435 H   0  0  0  0  0  0  0  0  0  0  0  0
  1  2  3  0
  2  3  1  0
  3  4  2  0
  3  8  1  0
  4  5  1  0
  4 34  1  0
  5  6  2  0
  5  9  1  0
  6  7  1  0
  6 35  1  0
  7  8  2  0
  7 36  1  0
  8 37  1  0
  9 10  1  0
  9 38  1  6
  9 39  1  0
 10 11  1  0
 10 40  1  6
 10 41  1  0
 11 12  1  0
 11 42  1  0
 12 13  2  0
 12 17  1  0
 13 14  1  0
 14 15  2  0
 14 22  1  0
 15 16  1  0
 15 62  1  0
 16 17  1  0
 16 21  2  0
 17 18  2  0
 18 19  1  0
 18 43  1  0
 19 20  2  0
 19 44  1  0
 20 21  1  0
 20 45  1  0
 21 46  1  0
 22 23  1  0
 22 47  1  0
 23 24  1  0
 23 48  1  6
 23 49  1  0
 24 25  1  0
 24 29  2  0
 25 26  2  0
 25 30  1  0
 26 27  1  0
 26 50  1  0
 27 28  2  0
 27 51  1  0
 28 29  1  0
 28 52  1  0
 29 53  1  0
 30 31  1  0
 30 54  1  1
 30 55  1  0
 31 32  1  0
 31 33  1  0
 31 63  1  1
 32 56  1  6
 32 57  1  0
 32 58  1  0
 33 59  1  6
 33 60  1  0
 33 61  1  0
M  CHG  2  15   1  31   1
M  END
>  <s_epik_cmdline>  (1256) 
J2VwaWtfcHl0aG9uJywgJy1waCcsICc3LjAwMDAwMCcsICctcGh0JywgJzIuMDAwMDAwJywgJy1tcycsICcxNicsICctdG4nLCAnOCcsICctbWEnLCAnMjAwJywgJy1pbWFlJywgJzxpbmZpbGUubWFlPicsICctb21hZScsICc8b3V0ZmlsZS5tYWU+Jw==

>  <s_epik_input>  (1256) 
TiNDYzFbY0hdYyhbY0hdW2NIXVtjSF0xKVtDSDJdW0NIMl1bTkhdYyhjKGMyMylbY0hdW2NIXVtjSF1bY0hdMyluYyhuMilbTkhdW0NIMl1jNGMoW0NIMl1OKFtDSDNdKVtDSDNdKVtjSF1bY0hdW2NIXVtjSF00

>  <s_i_glide_gridfile>  (1256) 
ATP-Grid

>  <s_lp_Force_Field>  (1256) 
OPLS_2005

>  <s_lp_Variant>  (1256) 
m_282030aaa____21906106____22360182____21973156-1

>  <s_lp_label>  (1256) 
1674_sdstereoexpander_1_neutralizer_1_epik_1_stereoizer_1

>  <s_m_source_file>  (1256) 
ATP-VSW-LIGPREP-001-in.maegz

>  <s_sd_BIOSOLVEIT.INFINISEE\_QUERY\_NAME>  (1256) 
Ref-Lig

>  <s_sd_BIOSOLVEIT.INFINISEE\_QUERY\_SMILES>  (1256) 
S(c1nc2c(cc1C[NH2+]Cc3ccc(cc3)C[NH+](C)C)cccc2)Cc4ccccc4

>  <s_sd_BIOSOLVEIT.INFINISEE\_REACTION\_NAME>  (1256) 
m_282030aaa

>  <s_sd_BIOSOLVEIT.INFINISEE\_REAGENT1\_SMILES>  (1256) 
[R1*]NCCc1cc(C#N)ccc1

>  <s_sd_BIOSOLVEIT.INFINISEE\_REAGENT2\_SMILES>  (1256) 
[R2*]c1nc([R1*])c2c(n1)cccc2

>  <s_sd_BIOSOLVEIT.INFINISEE\_REAGENT3\_SMILES>  (1256) 
[R2*]NCc1c(cccc1)CN(C)C

>  <s_sd_BIOSOLVEIT.INFINISEE\_SPACE>  (1256) 
REALSpace_44bn_2023-08

>  <s_vsw_compound_code>  (1256) 
53537

>  <s_vsw_variant>  (1256) 
53537-1

>  <r_epik_Charging_Adjusted_Penalty>  (1256) 
0.109634593082073

>  <r_epik_Ionization_Penalty>  (1256) 
0.051900000000000002

>  <r_epik_Ionization_Penalty_Charging>  (1256) 
0.051900000000000002

>  <r_epik_Ionization_Penalty_Neutral>  (1256) 
0

>  <r_epik_State_Penalty>  (1256) 
0.057700000000000001

>  <r_i_docking_score>  (1256) 
-4.2029284089822001

>  <r_i_glide_ecoul>  (1256) 
-7.2076168060302699

>  <r_i_glide_eff_state_penalty>  (1256) 
0.057700000000000001

>  <r_i_glide_einternal>  (1256) 
7.6565122604370099

>  <r_i_glide_emodel>  (1256) 
-57.088235779191301

>  <r_i_glide_energy>  (1256) 
-40.6716403961182

>  <r_i_glide_erotb>  (1256) 
0.82981225285114102

>  <r_i_glide_esite>  (1256) 
-0.22875990954171399

>  <r_i_glide_evdw>  (1256) 
-33.464023590087898

>  <r_i_glide_gscore>  (1256) 
-4.2606284089821997

>  <r_i_glide_hbond>  (1256) 
-0.019818127727556398

>  <r_i_glide_ligand_efficiency>  (1256) 
-0.127361466938854

>  <r_i_glide_ligand_efficiency_ln>  (1256) 
-0.93470951655899503

>  <r_i_glide_ligand_efficiency_sa>  (1256) 
-0.408516277048877

>  <r_i_glide_lipo>  (1256) 
-1.44365960597331

>  <r_i_glide_metal>  (1256) 
-0

>  <r_i_glide_rewards>  (1256) 
-0.64385931818181696

>  <r_lp_Energy>  (1256) 
20.876047

>  <r_qp_ACxDN^.5/SA>  (1256) 
0.0126652

>  <r_qp_CIQPlogS>  (1256) 
-6.7039999999999997

>  <r_qp_EA(eV)>  (1256) 
0.70099999999999996

>  <r_qp_FISA>  (1256) 
109.029

>  <r_qp_FOSA>  (1256) 
241.50200000000001

>  <r_qp_IP(eV)>  (1256) 
8.0860000000000003

>  <r_qp_Jm>  (1256) 
0.0014046990780696999

>  <r_qp_PISA>  (1256) 
375.267

>  <r_qp_PSA>  (1256) 
70.929000000000002

>  <r_qp_PercentHumanOralAbsorption>  (1256) 
94.566000000000003

>  <r_qp_QPPCaco>  (1256) 
228.494

>  <r_qp_QPPMDCK>  (1256) 
110.98099999999999

>  <r_qp_QPlogBB>  (1256) 
-0.69299999999999995

>  <r_qp_QPlogHERG>  (1256) 
-6.7800000000000002

>  <r_qp_QPlogKhsa>  (1256) 
0.67900000000000005

>  <r_qp_QPlogKp>  (1256) 
-3.3090000000000002

>  <r_qp_QPlogPC16>  (1256) 
14.978999999999999

>  <r_qp_QPlogPo/w>  (1256) 
4.3380000000000001

>  <r_qp_QPlogPoct>  (1256) 
22.306999999999999

>  <r_qp_QPlogPw>  (1256) 
11.885999999999999

>  <r_qp_QPlogS>  (1256) 
-5.1829999999999998

>  <r_qp_QPpolrz>  (1256) 
46.761000000000003

>  <r_qp_SASA>  (1256) 
725.79899999999998

>  <r_qp_SAamideO>  (1256) 
0

>  <r_qp_SAfluorine>  (1256) 
0

>  <r_qp_WPSA>  (1256) 
0

>  <r_qp_accptHB>  (1256) 
6.5

>  <r_qp_dip^2/V>  (1256) 
0.0228287

>  <r_qp_dipole>  (1256) 
5.6390000000000002

>  <r_qp_donorHB>  (1256) 
2

>  <r_qp_glob>  (1256) 
0.83113800000000004

>  <r_qp_mol_MW>  (1256) 
436.55799999999999

>  <r_qp_volume>  (1256) 
1393.114

>  <r_sd_BIOSOLVEIT.INFINISEE\_FTREES\_SIMILARITY>  (1256) 
0.90500000000000003

>  <r_sd_BIOSOLVEIT.LOGP>  (1256) 
3.4126799999999999

>  <r_sd_BIOSOLVEIT.MOLECULAR\_WEIGHT>  (1256) 
437.56799999999998

>  <r_sd_BIOSOLVEIT.TPSA>  (1256) 
78.069999999999993

>  <i_epik_Tot_Q>  (1256) 
2

>  <i_epik_Tot_abs_Q>  (1256) 
2

>  <i_f3d_flags>  (1256) 
0

>  <i_i_glide_confnum>  (1256) 
7

>  <i_i_glide_lignum>  (1256) 
465

>  <i_i_glide_posenum>  (1256) 
13

>  <i_i_glide_rotatable_bonds>  (1256) 
9

>  <i_lp_mmshare_version>  (1256) 
65135

>  <i_m_ct_format>  (1256) 
2

>  <i_m_source_file_index>  (1256) 
1674

>  <i_qp_#NandO>  (1256) 
6

>  <i_qp_#acid>  (1256) 
0

>  <i_qp_#amide>  (1256) 
0

>  <i_qp_#amidine>  (1256) 
0

>  <i_qp_#amine>  (1256) 
1

>  <i_qp_#in34>  (1256) 
0

>  <i_qp_#in56>  (1256) 
22

>  <i_qp_#metab>  (1256) 
4

>  <i_qp_#nonHatm>  (1256) 
33

>  <i_qp_#noncon>  (1256) 
0

>  <i_qp_#ringatoms>  (1256) 
22

>  <i_qp_#rotor>  (1256) 
10

>  <i_qp_#rtvFG>  (1256) 
0

>  <i_qp_#stars>  (1256) 
0

>  <i_qp_CNS>  (1256) 
1

>  <i_qp_HumanOralAbsorption>  (1256) 
3

>  <i_qp_RuleOfFive>  (1256) 
0

>  <i_qp_RuleOfThree>  (1256) 
0

>  <i_sd_BIOSOLVEIT.INFINISEE\_REAGENT1\_NAME>  (1256) 
21906106

>  <i_sd_BIOSOLVEIT.INFINISEE\_REAGENT2\_NAME>  (1256) 
22360182

>  <i_sd_BIOSOLVEIT.INFINISEE\_REAGENT3\_NAME>  (1256) 
21973156

>  <i_sd_BIOSOLVEIT.INFINISEE\_RESULT\_RANK>  (1256) 
70203

>  <i_sd_version>  (1256) 
0

>  <b_lp_Chiralities_Consistent>  (1256) 
1

>  <b_sd_chiral_flag>  (1256) 
0

>  <canonical_id>  (1256) 
ATP-HTVS-C74806D7CD52

>  <compound_code>  (1256) 
53537

>  <title>  (1256) 
m_282030aaa____21906106____22360182____21973156

>  <variant>  (1256) 
53537-1

>  <source_file>  (1256) 
运行/运行/ATP-VSW/ATP-VSW-DOCK_HTVS_1-001_lib/ATP-VSW-DOCK_HTVS_1-001_lib

>  <canonical_smiles>  (1256) 
C[NH+](C)Cc1ccccc1CNc1nc(NCCc2cccc(C#N)c2)c2ccccc2[nH+]1

>  <scaffold>  (1256) 
c1ccc(CCNc2nc(NCc3ccccc3)[nH+]c3ccccc23)cc1

>  <molecular_formula>  (1256) 
C27H30N6+2

$$$$
ATP-HTVS-C78E55448419
     RDKit          3D

 50 52  0  0  0  0  0  0  0  0999 V2000
  193.5620  181.4260  158.4696 Cl  0  0  0  0  0  0  0  0  0  0  0  0
  194.7214  182.6753  158.5119 C   0  0  0  0  0  0  0  0  0  0  0  0
  194.3658  184.0470  159.4861 S   0  0  0  0  0  0  0  0  0  0  0  0
  195.7992  184.8658  158.9090 C   0  0  0  0  0  0  0  0  0  0  0  0
  196.0565  186.1955  159.4722 C   0  0  0  0  0  0  0  0  0  0  0  0
  195.4667  186.5567  160.5041 O   0  0  0  0  0  0  0  0  0  0  0  0
  196.9403  186.9587  158.8137 N   0  0  0  0  0  0  0  0  0  0  0  0
  197.2254  188.3422  159.0527 C   0  0  0  0  0  0  0  0  0  0  0  0
  197.1614  188.9740  160.3186 C   0  0  0  0  0  0  0  0  0  0  0  0
  197.4092  190.3413  160.4368 C   0  0  0  0  0  0  0  0  0  0  0  0
  197.8011  191.1023  159.3301 C   0  0  0  0  0  0  0  0  0  0  0  0
  197.9255  190.4804  158.0701 C   0  0  0  0  0  0  0  0  0  0  0  0
  197.6531  189.0921  157.9320 C   0  0  0  0  0  0  0  0  0  0  0  0
  196.5177  184.0664  158.0367 C   0  0  0  0  0  0  0  0  0  0  0  0
  195.8940  182.8019  157.8262 C   0  0  0  0  0  0  0  0  0  0  0  0
  196.4666  181.8362  156.9899 N   0  0  0  0  0  0  0  0  0  0  0  0
  196.8705  182.2214  155.6446 C   0  0  1  0  0  0  0  0  0  0  0  0
  197.8391  181.2371  155.0353 C   0  0  0  0  0  0  0  0  0  0  0  0
  198.8239  180.6487  155.8583 C   0  0  0  0  0  0  0  0  0  0  0  0
  199.7242  179.7138  155.3351 C   0  0  0  0  0  0  0  0  0  0  0  0
  199.6558  179.3745  153.9660 C   0  0  0  0  0  0  0  0  0  0  0  0
  198.6826  179.9692  153.1387 C   0  0  0  0  0  0  0  0  0  0  0  0
  197.7728  180.9054  153.6691 C   0  0  0  0  0  0  0  0  0  0  0  0
  200.7391  179.0590  156.2575 C   0  0  1  0  0  0  0  0  0  0  0  0
  200.1194  178.0395  157.1358 N   0  0  1  0  0  0  0  0  0  0  0  0
  199.5306  176.9190  156.3911 C   0  0  2  0  0  0  0  0  0  0  0  0
  201.0637  177.5742  158.1723 C   0  0  2  0  0  0  0  0  0  0  0  0
  197.3127  186.5524  157.9717 H   0  0  0  0  0  0  0  0  0  0  0  0
  196.9483  188.4580  161.2369 H   0  0  0  0  0  0  0  0  0  0  0  0
  197.3486  190.7881  161.4066 H   0  0  0  0  0  0  0  0  0  0  0  0
  198.0255  192.1565  159.4343 H   0  0  0  0  0  0  0  0  0  0  0  0
  198.2434  191.0566  157.2053 H   0  0  0  0  0  0  0  0  0  0  0  0
  197.7563  188.6198  156.9537 H   0  0  0  0  0  0  0  0  0  0  0  0
  197.4548  184.3272  157.5706 H   0  0  0  0  0  0  0  0  0  0  0  0
  196.0828  180.8893  157.0900 H   0  0  0  0  0  0  0  0  0  0  0  0
  195.9856  182.3190  155.0162 H   0  0  0  0  0  0  0  0  0  0  0  0
  197.3475  183.2026  155.6109 H   0  0  0  0  0  0  0  0  0  0  0  0
  198.8617  180.9057  156.9089 H   0  0  0  0  0  0  0  0  0  0  0  0
  200.3385  178.6505  153.5501 H   0  0  0  0  0  0  0  0  0  0  0  0
  198.6376  179.7018  152.0927 H   0  0  0  0  0  0  0  0  0  0  0  0
  197.0314  181.3574  153.0248 H   0  0  0  0  0  0  0  0  0  0  0  0
  201.5427  178.5941  155.6855 H   0  0  0  0  0  0  0  0  0  0  0  0
  201.2106  179.8492  156.8447 H   0  0  0  0  0  0  0  0  0  0  0  0
  200.2726  176.3605  155.8255 H   0  0  0  0  0  0  0  0  0  0  0  0
  198.7513  177.2578  155.7162 H   0  0  0  0  0  0  0  0  0  0  0  0
  199.0381  176.2519  157.0964 H   0  0  0  0  0  0  0  0  0  0  0  0
  201.9264  177.0896  157.7110 H   0  0  0  0  0  0  0  0  0  0  0  0
  200.5851  176.8564  158.8392 H   0  0  0  0  0  0  0  0  0  0  0  0
  201.4289  178.4010  158.7831 H   0  0  0  0  0  0  0  0  0  0  0  0
  199.3214  178.4507  157.6205 H   0  0  0  0  0  0  0  0  0  0  0  0
  1  2  1  0
  2  3  1  0
  2 15  2  0
  3  4  1  0
  4  5  1  0
  4 14  2  0
  5  6  2  0
  5  7  1  0
  7  8  1  0
  7 28  1  0
  8  9  2  0
  8 13  1  0
  9 10  1  0
  9 29  1  0
 10 11  2  0
 10 30  1  0
 11 12  1  0
 11 31  1  0
 12 13  2  0
 12 32  1  0
 13 33  1  0
 14 15  1  0
 14 34  1  0
 15 16  1  0
 16 17  1  0
 16 35  1  0
 17 18  1  0
 17 36  1  6
 17 37  1  0
 18 19  2  0
 18 23  1  0
 19 20  1  0
 19 38  1  0
 20 21  2  0
 20 24  1  0
 21 22  1  0
 21 39  1  0
 22 23  2  0
 22 40  1  0
 23 41  1  0
 24 25  1  0
 24 42  1  6
 24 43  1  0
 25 26  1  0
 25 27  1  0
 25 50  1  1
 26 44  1  6
 26 45  1  0
 26 46  1  0
 27 47  1  6
 27 48  1  0
 27 49  1  0
M  CHG  1  25   1
M  END
>  <s_epik_cmdline>  (1257) 
J2VwaWtfcHl0aG9uJywgJy1waCcsICc3LjAwMDAwMCcsICctcGh0JywgJzIuMDAwMDAwJywgJy1tcycsICcxNicsICctdG4nLCAnOCcsICctbWEnLCAnMjAwJywgJy1pbWFlJywgJzxpbmZpbGUubWFlPicsICctb21hZScsICc8b3V0ZmlsZS5tYWU+Jw==

>  <s_epik_input>  (1257) 
W2NIXTFbY0hdW2NIXVtjSF1bY0hdYzFbTkhdQyg9TyljKHNjMkNsKVtjSF1jMltOSF1bQ0gyXWMzW2NIXWMoW2NIXVtjSF1bY0hdMylbQ0gyXU4oW0NIM10pW0NIM10=

>  <s_i_glide_gridfile>  (1257) 
ATP-Grid

>  <s_lp_Force_Field>  (1257) 
OPLS_2005

>  <s_lp_Variant>  (1257) 
rxn512b____EMOL477532____EMOL44846536____EMOL2873214-1

>  <s_lp_label>  (1257) 
2502_sdstereoexpander_1_neutralizer_1_epik_1_stereoizer_1

>  <s_m_source_file>  (1257) 
ATP-VSW-LIGPREP-002-in.maegz

>  <s_sd_BIOSOLVEIT.INFINISEE\_QUERY\_NAME>  (1257) 
Ref-Lig

>  <s_sd_BIOSOLVEIT.INFINISEE\_QUERY\_SMILES>  (1257) 
S(c1nc2c(cc1C[NH2+]Cc3ccc(cc3)C[NH+](C)C)cccc2)Cc4ccccc4

>  <s_sd_BIOSOLVEIT.INFINISEE\_REACTION\_NAME>  (1257) 
rxn512b

>  <s_sd_BIOSOLVEIT.INFINISEE\_REAGENT1\_NAME>  (1257) 
EMOL477532

>  <s_sd_BIOSOLVEIT.INFINISEE\_REAGENT1\_SMILES>  (1257) 
Nc1ccccc1

>  <s_sd_BIOSOLVEIT.INFINISEE\_REAGENT2\_NAME>  (1257) 
EMOL44846536

>  <s_sd_BIOSOLVEIT.INFINISEE\_REAGENT2\_SMILES>  (1257) 
BrC1=C(Cl)SC(C(=O)O)=C1

>  <s_sd_BIOSOLVEIT.INFINISEE\_REAGENT3\_NAME>  (1257) 
EMOL2873214

>  <s_sd_BIOSOLVEIT.INFINISEE\_REAGENT3\_SMILES>  (1257) 
N(Cc1cc(ccc1)CN)(C)C

>  <s_sd_BIOSOLVEIT.INFINISEE\_SPACE>  (1257) 
eXplore_7tr_2022-12

>  <s_vsw_compound_code>  (1257) 
80034

>  <s_vsw_variant>  (1257) 
80034-1

>  <r_epik_Charging_Adjusted_Penalty>  (1257) 
0.086140609825027206

>  <r_epik_Ionization_Penalty>  (1257) 
0.043200000000000002

>  <r_epik_Ionization_Penalty_Charging>  (1257) 
0.043099999999999999

>  <r_epik_Ionization_Penalty_Neutral>  (1257) 
0.0001

>  <r_epik_State_Penalty>  (1257) 
0.043099999999999999

>  <r_i_docking_score>  (1257) 
-4.6121830386589

>  <r_i_glide_ecoul>  (1257) 
-8.0364351272583008

>  <r_i_glide_eff_state_penalty>  (1257) 
0.043099999999999999

>  <r_i_glide_einternal>  (1257) 
8.1695489883422905

>  <r_i_glide_emodel>  (1257) 
-60.958370389328799

>  <r_i_glide_energy>  (1257) 
-47.198147773742697

>  <r_i_glide_erotb>  (1257) 
0.85386313218798504

>  <r_i_glide_esite>  (1257) 
-0.17916172007438699

>  <r_i_glide_evdw>  (1257) 
-39.161712646484403

>  <r_i_glide_gscore>  (1257) 
-4.6552830386588999

>  <r_i_glide_hbond>  (1257) 
-0.286251689904225

>  <r_i_glide_ligand_efficiency>  (1257) 
-0.170821594024404

>  <r_i_glide_ligand_efficiency_ln>  (1257) 
-1.0736401736197201

>  <r_i_glide_ligand_efficiency_sa>  (1257) 
-0.51246478151021102

>  <r_i_glide_lipo>  (1257) 
-0.88331584031321497

>  <r_i_glide_metal>  (1257) 
-0

>  <r_i_glide_rewards>  (1257) 
-0.99686601914209505

>  <r_lp_Energy>  (1257) 
24.261932000000002

>  <r_lp_tautomer_probability>  (1257) 
0.99999274205267796

>  <r_qp_ACxDN^.5/SA>  (1257) 
0.0103967

>  <r_qp_CIQPlogS>  (1257) 
-4.0030000000000001

>  <r_qp_EA(eV)>  (1257) 
0.876

>  <r_qp_FISA>  (1257) 
56.546999999999997

>  <r_qp_FOSA>  (1257) 
209.994

>  <r_qp_IP(eV)>  (1257) 
8.3160000000000007

>  <r_qp_Jm>  (1257) 
0.000182428278855081

>  <r_qp_PISA>  (1257) 
373.68900000000002

>  <r_qp_PSA>  (1257) 
53.572000000000003

>  <r_qp_PercentHumanOralAbsorption>  (1257) 
92.561000000000007

>  <r_qp_QPPCaco>  (1257) 
179.25399999999999

>  <r_qp_QPPMDCK>  (1257) 
368.41399999999999

>  <r_qp_QPlogBB>  (1257) 
0.56299999999999994

>  <r_qp_QPlogHERG>  (1257) 
-8.5329999999999995

>  <r_qp_QPlogKhsa>  (1257) 
0.68500000000000005

>  <r_qp_QPlogKp>  (1257) 
-4.6980000000000004

>  <r_qp_QPlogPC16>  (1257) 
14.643000000000001

>  <r_qp_QPlogPo/w>  (1257) 
4.3179999999999996

>  <r_qp_QPlogPoct>  (1257) 
20.891999999999999

>  <r_qp_QPlogPw>  (1257) 
11.286

>  <r_qp_QPlogS>  (1257) 
-4.6429999999999998

>  <r_qp_QPpolrz>  (1257) 
44.668999999999997

>  <r_qp_SASA>  (1257) 
748.14099999999996

>  <r_qp_SAamideO>  (1257) 
0

>  <r_qp_SAfluorine>  (1257) 
0

>  <r_qp_WPSA>  (1257) 
107.911

>  <r_qp_accptHB>  (1257) 
5.5

>  <r_qp_dip^2/V>  (1257) 
0.0090165999999999996

>  <r_qp_dipole>  (1257) 
3.415

>  <r_qp_donorHB>  (1257) 
2

>  <r_qp_glob>  (1257) 
0.76724420000000004

>  <r_qp_mol_MW>  (1257) 
399.93700000000001

>  <r_qp_volume>  (1257) 
1293.0889999999999

>  <r_sd_BIOSOLVEIT.INFINISEE\_FTREES\_SIMILARITY>  (1257) 
0.91400000000000003

>  <r_sd_BIOSOLVEIT.LOGP>  (1257) 
3.9104000000000001

>  <r_sd_BIOSOLVEIT.MOLECULAR\_WEIGHT>  (1257) 
400.95100000000002

>  <r_sd_BIOSOLVEIT.TPSA>  (1257) 
45.57

>  <i_epik_Tot_Q>  (1257) 
1

>  <i_epik_Tot_abs_Q>  (1257) 
1

>  <i_f3d_flags>  (1257) 
0

>  <i_i_glide_confnum>  (1257) 
6

>  <i_i_glide_lignum>  (1257) 
1090

>  <i_i_glide_posenum>  (1257) 
17

>  <i_i_glide_rotatable_bonds>  (1257) 
8

>  <i_lp_mmshare_version>  (1257) 
65135

>  <i_m_ct_format>  (1257) 
2

>  <i_m_source_file_index>  (1257) 
2502

>  <i_qp_#NandO>  (1257) 
4

>  <i_qp_#acid>  (1257) 
0

>  <i_qp_#amide>  (1257) 
0

>  <i_qp_#amidine>  (1257) 
0

>  <i_qp_#amine>  (1257) 
2

>  <i_qp_#in34>  (1257) 
0

>  <i_qp_#in56>  (1257) 
17

>  <i_qp_#metab>  (1257) 
6

>  <i_qp_#nonHatm>  (1257) 
27

>  <i_qp_#noncon>  (1257) 
0

>  <i_qp_#ringatoms>  (1257) 
17

>  <i_qp_#rotor>  (1257) 
7

>  <i_qp_#rtvFG>  (1257) 
0

>  <i_qp_#stars>  (1257) 
0

>  <i_qp_CNS>  (1257) 
2

>  <i_qp_HumanOralAbsorption>  (1257) 
3

>  <i_qp_RuleOfFive>  (1257) 
0

>  <i_qp_RuleOfThree>  (1257) 
0

>  <i_sd_BIOSOLVEIT.INFINISEE\_RESULT\_RANK>  (1257) 
30929

>  <i_sd_version>  (1257) 
0

>  <b_lp_Chiralities_Consistent>  (1257) 
1

>  <b_sd_chiral_flag>  (1257) 
0

>  <canonical_id>  (1257) 
ATP-HTVS-C78E55448419

>  <compound_code>  (1257) 
80034

>  <title>  (1257) 
rxn512b____EMOL477532____EMOL44846536____EMOL2873214

>  <variant>  (1257) 
80034-1

>  <source_file>  (1257) 
运行/运行/ATP-VSW/ATP-VSW-DOCK_HTVS_1-002_lib.maegz

>  <canonical_smiles>  (1257) 
C[NH+](C)Cc1cccc(CNc2cc(C(=O)Nc3ccccc3)sc2Cl)c1

>  <scaffold>  (1257) 
O=C(Nc1ccccc1)c1cc(NCc2ccccc2)cs1

>  <molecular_formula>  (1257) 
C21H23ClN3OS+

$$$$
ATP-HTVS-C7A4A85DE6AC
     RDKit          3D

 59 62  0  0  0  0  0  0  0  0999 V2000
  202.3506  184.6800  156.9735 Cl  0  0  0  0  0  0  0  0  0  0  0  0
  200.7704  185.2789  156.5779 C   0  0  0  0  0  0  0  0  0  0  0  0
  199.6633  185.0938  157.4404 C   0  0  0  0  0  0  0  0  0  0  0  0
  199.8526  184.3586  158.6900 C   0  0  0  0  0  0  0  0  0  0  0  0
  200.0401  183.7740  159.6615 N   0  0  0  0  0  0  0  0  0  0  0  0
  198.3922  185.6086  157.0860 C   0  0  0  0  0  0  0  0  0  0  0  0
  198.2289  186.2891  155.8633 C   0  0  0  0  0  0  0  0  0  0  0  0
  199.3316  186.4850  155.0083 C   0  0  0  0  0  0  0  0  0  0  0  0
  200.5998  185.9786  155.3687 C   0  0  0  0  0  0  0  0  0  0  0  0
  199.1489  187.2397  153.7031 C   0  0  1  0  0  0  0  0  0  0  0  0
  198.8749  186.2961  152.5220 C   0  0  0  0  0  0  0  0  0  0  0  0
  199.3161  186.5912  151.4123 O   0  0  0  0  0  0  0  0  0  0  0  0
  198.1615  185.1823  152.7808 N   0  0  0  0  0  0  0  0  0  0  0  0
  197.9949  184.0141  151.9727 C   0  0  0  0  0  0  0  0  0  0  0  0
  197.5689  182.7948  152.5708 C   0  0  0  0  0  0  0  0  0  0  0  0
  197.3147  182.7050  154.0048 C   0  0  0  0  0  0  0  0  0  0  0  0
  197.0941  182.5753  155.2043 C   0  0  0  0  0  0  0  0  0  0  0  0
  196.8772  182.5872  156.6643 C   0  0  1  0  0  0  0  0  0  0  0  0
  195.6417  181.8097  156.9334 N   0  0  1  0  0  0  0  0  0  0  0  0
  195.1443  181.8194  158.3323 C   0  0  1  0  0  0  0  0  0  0  0  0
  195.3558  183.1599  159.0506 C   0  0  0  0  0  0  0  0  0  0  0  0
  196.6664  183.5565  159.4016 C   0  0  0  0  0  0  0  0  0  0  0  0
  196.8935  184.8075  160.0369 C   0  0  0  0  0  0  0  0  0  0  0  0
  195.8044  185.6569  160.3392 C   0  0  0  0  0  0  0  0  0  0  0  0
  196.0284  186.9028  160.8569 F   0  0  0  0  0  0  0  0  0  0  0  0
  194.4909  185.2585  160.0262 C   0  0  0  0  0  0  0  0  0  0  0  0
  194.2685  184.0240  159.3818 C   0  0  0  0  0  0  0  0  0  0  0  0
  193.6712  181.3620  158.3280 C   0  0  2  0  0  0  0  0  0  0  0  0
  197.4172  181.6307  151.7680 C   0  0  0  0  0  0  0  0  0  0  0  0
  197.7046  181.7384  150.3829 C   0  0  0  0  0  0  0  0  0  0  0  0
  198.0980  182.8959  149.8131 N   0  0  0  0  0  0  0  0  0  0  0  0
  198.2276  183.9992  150.5778 C   0  0  0  0  0  0  0  0  0  0  0  0
  197.5690  180.6014  149.5706 C   0  0  0  0  0  0  0  0  0  0  0  0
  197.1417  179.3701  150.0927 C   0  0  0  0  0  0  0  0  0  0  0  0
  196.8675  179.2597  151.4662 C   0  0  0  0  0  0  0  0  0  0  0  0
  197.0057  180.3801  152.3030 C   0  0  0  0  0  0  0  0  0  0  0  0
  194.9079  182.2084  156.3481 H   0  0  0  0  0  0  0  0  0  0  0  0
  197.5184  185.4950  157.7236 H   0  0  0  0  0  0  0  0  0  0  0  0
  197.2475  186.6507  155.5769 H   0  0  0  0  0  0  0  0  0  0  0  0
  201.4502  186.1214  154.7173 H   0  0  0  0  0  0  0  0  0  0  0  0
  198.3480  187.9634  153.7877 H   0  0  0  0  0  0  0  0  0  0  0  0
  200.0664  187.7988  153.5014 H   0  0  0  0  0  0  0  0  0  0  0  0
  197.8271  185.1006  153.7298 H   0  0  0  0  0  0  0  0  0  0  0  0
  197.7752  182.1752  157.1431 H   0  0  0  0  0  0  0  0  0  0  0  0
  196.7323  183.6260  156.9657 H   0  0  0  0  0  0  0  0  0  0  0  0
  195.7349  181.0717  158.8783 H   0  0  0  0  0  0  0  0  0  0  0  0
  197.4988  182.8631  159.2918 H   0  0  0  0  0  0  0  0  0  0  0  0
  197.9082  185.1414  160.2528 H   0  0  0  0  0  0  0  0  0  0  0  0
  193.6581  185.9224  160.2247 H   0  0  0  0  0  0  0  0  0  0  0  0
  193.2429  183.7840  159.1035 H   0  0  0  0  0  0  0  0  0  0  0  0
  193.2969  181.2940  159.3516 H   0  0  0  0  0  0  0  0  0  0  0  0
  193.5543  180.3898  157.8432 H   0  0  0  0  0  0  0  0  0  0  0  0
  193.0612  182.0530  157.7418 H   0  0  0  0  0  0  0  0  0  0  0  0
  198.5435  184.8813  150.0343 H   0  0  0  0  0  0  0  0  0  0  0  0
  197.8074  180.6964  148.5211 H   0  0  0  0  0  0  0  0  0  0  0  0
  197.0448  178.5225  149.4345 H   0  0  0  0  0  0  0  0  0  0  0  0
  196.5624  178.3141  151.8899 H   0  0  0  0  0  0  0  0  0  0  0  0
  196.7871  180.2419  153.3523 H   0  0  0  0  0  0  0  0  0  0  0  0
  195.7759  180.8487  156.6928 H   0  0  0  0  0  0  0  0  0  0  0  0
  1  2  1  0
  2  3  2  0
  2  9  1  0
  3  4  1  0
  3  6  1  0
  4  5  3  0
  6  7  2  0
  6 38  1  0
  7  8  1  0
  7 39  1  0
  8  9  2  0
  8 10  1  0
  9 40  1  0
 10 11  1  0
 10 41  1  1
 10 42  1  0
 11 12  2  0
 11 13  1  0
 13 14  1  0
 13 43  1  0
 14 15  2  0
 14 32  1  0
 15 16  1  0
 15 29  1  0
 16 17  3  0
 17 18  1  0
 18 19  1  0
 18 44  1  1
 18 45  1  0
 19 20  1  0
 19 37  1  6
 19 59  1  0
 20 21  1  0
 20 28  1  0
 20 46  1  1
 21 22  1  0
 21 27  2  0
 22 23  2  0
 22 47  1  0
 23 24  1  0
 23 48  1  0
 24 25  1  0
 24 26  2  0
 26 27  1  0
 26 49  1  0
 27 50  1  0
 28 51  1  1
 28 52  1  0
 28 53  1  0
 29 30  1  0
 29 36  2  0
 30 31  1  0
 30 33  2  0
 31 32  2  0
 32 54  1  0
 33 34  1  0
 33 55  1  0
 34 35  2  0
 34 56  1  0
 35 36  1  0
 35 57  1  0
 36 58  1  0
M  CHG  1  19   1
M  END
>  <s_epik_cmdline>  (1258) 
J2VwaWtfcHl0aG9uJywgJy1waCcsICc3LjAwMDAwMCcsICctcGh0JywgJzIuMDAwMDAwJywgJy1tcycsICcxNicsICctdG4nLCAnOCcsICctbWEnLCAnMjAwJywgJy1pbWFlJywgJzxpbmZpbGUubWFlPicsICctb21hZScsICc8b3V0ZmlsZS5tYWU+Jw==

>  <s_epik_input>  (1258) 
Q2xjMWMoQyNOKVtjSF1bY0hdYyhbY0hdMSlbQ0gyXUMoPU8pW05IXWMoW2NIXW5jKGMyMylbY0hdW2NIXVtjSF1bY0hdMyljMkMjQ1tDSDJdW05IXVtDQEhdKFtDSDNdKWM0W2NIXVtjSF1jKEYpW2NIXVtjSF00

>  <s_i_glide_gridfile>  (1258) 
ATP-Grid

>  <s_lp_Force_Field>  (1258) 
OPLS_2005

>  <s_lp_Variant>  (1258) 
rxn503b____EMOL49845460____EMOL30488121____EMOL317506007-3

>  <s_lp_label>  (1258) 
2940_sdstereoexpander_1_neutralizer_1_epik_2_stereoizer_1

>  <s_m_source_file>  (1258) 
ATP-VSW-LIGPREP-003-in.maegz

>  <s_sd_BIOSOLVEIT.INFINISEE\_QUERY\_NAME>  (1258) 
Ref-Lig

>  <s_sd_BIOSOLVEIT.INFINISEE\_QUERY\_SMILES>  (1258) 
S(c1nc2c(cc1C[NH2+]Cc3ccc(cc3)C[NH+](C)C)cccc2)Cc4ccccc4

>  <s_sd_BIOSOLVEIT.INFINISEE\_REACTION\_NAME>  (1258) 
rxn503b

>  <s_sd_BIOSOLVEIT.INFINISEE\_REAGENT1\_NAME>  (1258) 
EMOL49845460

>  <s_sd_BIOSOLVEIT.INFINISEE\_REAGENT1\_SMILES>  (1258) 
Clc1c(C#N)ccc(c1)CC(=O)O

>  <s_sd_BIOSOLVEIT.INFINISEE\_REAGENT2\_NAME>  (1258) 
EMOL30488121

>  <s_sd_BIOSOLVEIT.INFINISEE\_REAGENT2\_SMILES>  (1258) 
Brc1c(N)cnc2c1cccc2

>  <s_sd_BIOSOLVEIT.INFINISEE\_REAGENT3\_NAME>  (1258) 
EMOL317506007

>  <s_sd_BIOSOLVEIT.INFINISEE\_REAGENT3\_SMILES>  (1258) 
Fc1ccc(cc1)C(NCC#C)C

>  <s_sd_BIOSOLVEIT.INFINISEE\_SPACE>  (1258) 
eXplore_7tr_2022-12

>  <s_vsw_compound_code>  (1258) 
94051

>  <s_vsw_variant>  (1258) 
94051-3

>  <r_epik_Charging_Adjusted_Penalty>  (1258) 
1.1575994546039801

>  <r_epik_Ionization_Penalty>  (1258) 
0.57899999999999996

>  <r_epik_Ionization_Penalty_Charging>  (1258) 
0.57879999999999998

>  <r_epik_Ionization_Penalty_Neutral>  (1258) 
0.00020000000000000001

>  <r_epik_State_Penalty>  (1258) 
0.57879999999999998

>  <r_i_docking_score>  (1258) 
-4.6887526713170304

>  <r_i_glide_ecoul>  (1258) 
-11.7952833175659

>  <r_i_glide_eff_state_penalty>  (1258) 
0.57879999999999998

>  <r_i_glide_einternal>  (1258) 
9.3988952636718803

>  <r_i_glide_emodel>  (1258) 
-66.194309668093197

>  <r_i_glide_energy>  (1258) 
-47.977065086364703

>  <r_i_glide_erotb>  (1258) 
0.65822312970235297

>  <r_i_glide_esite>  (1258) 
-0.098934964937652595

>  <r_i_glide_evdw>  (1258) 
-36.1817817687988

>  <r_i_glide_gscore>  (1258) 
-5.2675526713170298

>  <r_i_glide_hbond>  (1258) 
-0.32059008235450498

>  <r_i_glide_ligand_efficiency>  (1258) 
-0.130243129758806

>  <r_i_glide_ligand_efficiency_ln>  (1258) 
-1.0229591574233501

>  <r_i_glide_ligand_efficiency_sa>  (1258) 
-0.43005333861821998

>  <r_i_glide_lipo>  (1258) 
-1.4464836312501499

>  <r_i_glide_metal>  (1258) 
-0

>  <r_i_glide_rewards>  (1258) 
-0.48138553640224402

>  <r_lp_Energy>  (1258) 
25.844456000000001

>  <r_qp_ACxDN^.5/SA>  (1258) 
0.012390200000000001

>  <r_qp_CIQPlogS>  (1258) 
-7.9240000000000004

>  <r_qp_EA(eV)>  (1258) 
1.294

>  <r_qp_FISA>  (1258) 
114.134

>  <r_qp_FOSA>  (1258) 
139.18199999999999

>  <r_qp_IP(eV)>  (1258) 
8.7949999999999999

>  <r_qp_Jm>  (1258) 
0.00023399401485943501

>  <r_qp_PISA>  (1258) 
412.05399999999997

>  <r_qp_PSA>  (1258) 
83.765000000000001

>  <r_qp_PercentHumanOralAbsorption>  (1258) 
100

>  <r_qp_QPPCaco>  (1258) 
204.39500000000001

>  <r_qp_QPPMDCK>  (1258) 
258.34399999999999

>  <r_qp_QPlogBB>  (1258) 
-0.49399999999999999

>  <r_qp_QPlogHERG>  (1258) 
-6.9580000000000002

>  <r_qp_QPlogKhsa>  (1258) 
0.84299999999999997

>  <r_qp_QPlogKp>  (1258) 
-3.3700000000000001

>  <r_qp_QPlogPC16>  (1258) 
15.601000000000001

>  <r_qp_QPlogPo/w>  (1258) 
4.9269999999999996

>  <r_qp_QPlogPoct>  (1258) 
23.529

>  <r_qp_QPlogPw>  (1258) 
12.457000000000001

>  <r_qp_QPlogS>  (1258) 
-5.9569999999999999

>  <r_qp_QPpolrz>  (1258) 
49.604999999999997

>  <r_qp_SASA>  (1258) 
741.90599999999995

>  <r_qp_SAamideO>  (1258) 
0

>  <r_qp_SAfluorine>  (1258) 
45.691000000000003

>  <r_qp_WPSA>  (1258) 
76.537000000000006

>  <r_qp_accptHB>  (1258) 
6.5

>  <r_qp_dip^2/V>  (1258) 
0.0014733999999999999

>  <r_qp_dipole>  (1258) 
1.456

>  <r_qp_donorHB>  (1258) 
2

>  <r_qp_glob>  (1258) 
0.83098879999999997

>  <r_qp_mol_MW>  (1258) 
496.97000000000003

>  <r_qp_volume>  (1258) 
1439.357

>  <r_sd_BIOSOLVEIT.INFINISEE\_FTREES\_SIMILARITY>  (1258) 
0.90400000000000003

>  <r_sd_BIOSOLVEIT.LOGP>  (1258) 
4.7562800000000003

>  <r_sd_BIOSOLVEIT.MOLECULAR\_WEIGHT>  (1258) 
497.97899999999998

>  <r_sd_BIOSOLVEIT.TPSA>  (1258) 
82.390000000000001

>  <i_epik_Tot_Q>  (1258) 
1

>  <i_epik_Tot_abs_Q>  (1258) 
1

>  <i_f3d_flags>  (1258) 
0

>  <i_i_glide_confnum>  (1258) 
2

>  <i_i_glide_lignum>  (1258) 
1459

>  <i_i_glide_posenum>  (1258) 
11

>  <i_i_glide_rotatable_bonds>  (1258) 
9

>  <i_lp_mmshare_version>  (1258) 
65135

>  <i_m_ct_format>  (1258) 
2

>  <i_m_source_file_index>  (1258) 
2940

>  <i_qp_#NandO>  (1258) 
5

>  <i_qp_#acid>  (1258) 
0

>  <i_qp_#amide>  (1258) 
0

>  <i_qp_#amidine>  (1258) 
0

>  <i_qp_#amine>  (1258) 
1

>  <i_qp_#in34>  (1258) 
0

>  <i_qp_#in56>  (1258) 
22

>  <i_qp_#metab>  (1258) 
5

>  <i_qp_#nonHatm>  (1258) 
36

>  <i_qp_#noncon>  (1258) 
0

>  <i_qp_#ringatoms>  (1258) 
22

>  <i_qp_#rotor>  (1258) 
9

>  <i_qp_#rtvFG>  (1258) 
0

>  <i_qp_#stars>  (1258) 
0

>  <i_qp_CNS>  (1258) 
1

>  <i_qp_HumanOralAbsorption>  (1258) 
3

>  <i_qp_RuleOfFive>  (1258) 
0

>  <i_qp_RuleOfThree>  (1258) 
1

>  <i_sd_BIOSOLVEIT.INFINISEE\_RESULT\_RANK>  (1258) 
79100

>  <i_sd_version>  (1258) 
0

>  <b_lp_Chiralities_Consistent>  (1258) 
1

>  <b_sd_chiral_flag>  (1258) 
0

>  <canonical_id>  (1258) 
ATP-HTVS-C7A4A85DE6AC

>  <compound_code>  (1258) 
94051

>  <title>  (1258) 
rxn503b____EMOL49845460____EMOL30488121____EMOL317506007

>  <variant>  (1258) 
94051-3

>  <source_file>  (1258) 
运行/运行/ATP-VSW/ATP-VSW-DOCK_HTVS_1-003_lib/ATP-VSW-DOCK_HTVS_1-003_lib.mae

>  <canonical_smiles>  (1258) 
C[C@@H]([NH2+]CC#Cc1c(NC(=O)Cc2ccc(C#N)c(Cl)c2)cnc2ccccc12)c1ccc(F)cc1

>  <scaffold>  (1258) 
O=C(Cc1ccccc1)Nc1cnc2ccccc2c1C#CC[NH2+]Cc1ccccc1

>  <molecular_formula>  (1258) 
C29H23ClFN4O+

$$$$
ATP-HTVS-C7C112B42D2F
     RDKit          3D

 47 50  0  0  0  0  0  0  0  0999 V2000
  201.9455  175.4375  156.5341 Cl  0  0  0  0  0  0  0  0  0  0  0  0
  201.1753  176.4309  155.3605 C   0  0  0  0  0  0  0  0  0  0  0  0
  200.0908  177.2456  155.7358 C   0  0  0  0  0  0  0  0  0  0  0  0
  199.4715  178.0768  154.7787 C   0  0  0  0  0  0  0  0  0  0  0  0
  199.9290  178.0675  153.4436 C   0  0  0  0  0  0  0  0  0  0  0  0
  201.0095  177.2488  153.0700 C   0  0  0  0  0  0  0  0  0  0  0  0
  201.6352  176.4319  154.0296 C   0  0  0  0  0  0  0  0  0  0  0  0
  198.2979  178.9630  155.1766 C   0  0  1  0  0  0  0  0  0  0  0  0
  198.7553  180.3880  155.4851 C   0  0  0  0  0  0  0  0  0  0  0  0
  199.5851  180.9359  154.7586 O   0  0  0  0  0  0  0  0  0  0  0  0
  198.1642  180.9678  156.5432 N   0  0  0  0  0  0  0  0  0  0  0  0
  198.5092  182.1996  157.1680 C   0  0  0  0  0  0  0  0  0  0  0  0
  199.7368  182.7502  157.0148 N   0  0  0  0  0  0  0  0  0  0  0  0
  200.0419  183.8911  157.6538 C   0  0  0  0  0  0  0  0  0  0  0  0
  199.1416  184.5841  158.4829 C   0  0  0  0  0  0  0  0  0  0  0  0
  199.5584  185.8093  159.0415 N   0  0  0  0  0  0  0  0  0  0  0  0
  200.6473  185.7837  159.8418 C   0  0  0  0  0  0  0  0  0  0  0  0
  201.5554  185.7092  160.5574 N   0  0  0  0  0  0  0  0  0  0  0  0
  198.9102  187.0313  158.7291 C   0  0  0  0  0  0  0  0  0  0  0  0
  197.8516  187.0868  157.7863 C   0  0  0  0  0  0  0  0  0  0  0  0
  197.1642  188.2843  157.5388 C   0  0  0  0  0  0  0  0  0  0  0  0
  197.5529  189.4742  158.1799 C   0  0  0  0  0  0  0  0  0  0  0  0
  198.6210  189.4516  159.0926 C   0  0  0  0  0  0  0  0  0  0  0  0
  199.2924  188.2391  159.3646 C   0  0  0  0  0  0  0  0  0  0  0  0
  197.8597  184.0069  158.6859 C   0  0  0  0  0  0  0  0  0  0  0  0
  197.5332  182.7990  158.0081 C   0  0  0  0  0  0  0  0  0  0  0  0
  196.2396  182.2436  158.1657 C   0  0  0  0  0  0  0  0  0  0  0  0
  195.2835  182.8708  158.9777 C   0  0  0  0  0  0  0  0  0  0  0  0
  195.6079  184.0609  159.6503 C   0  0  0  0  0  0  0  0  0  0  0  0
  196.8939  184.6156  159.5197 C   0  0  0  0  0  0  0  0  0  0  0  0
  199.7349  177.2404  156.7588 H   0  0  0  0  0  0  0  0  0  0  0  0
  199.4509  178.6956  152.7068 H   0  0  0  0  0  0  0  0  0  0  0  0
  201.3603  177.2522  152.0475 H   0  0  0  0  0  0  0  0  0  0  0  0
  202.4714  175.8095  153.7471 H   0  0  0  0  0  0  0  0  0  0  0  0
  197.5615  178.9971  154.3733 H   0  0  0  0  0  0  0  0  0  0  0  0
  197.7954  178.5242  156.0414 H   0  0  0  0  0  0  0  0  0  0  0  0
  197.4137  180.4437  156.9777 H   0  0  0  0  0  0  0  0  0  0  0  0
  201.0377  184.2734  157.4765 H   0  0  0  0  0  0  0  0  0  0  0  0
  197.5102  186.2130  157.2508 H   0  0  0  0  0  0  0  0  0  0  0  0
  196.3354  188.2676  156.8522 H   0  0  0  0  0  0  0  0  0  0  0  0
  197.0232  190.3980  157.9741 H   0  0  0  0  0  0  0  0  0  0  0  0
  198.9241  190.3541  159.6024 H   0  0  0  0  0  0  0  0  0  0  0  0
  200.0885  188.2532  160.1016 H   0  0  0  0  0  0  0  0  0  0  0  0
  195.9403  181.3405  157.6559 H   0  0  0  0  0  0  0  0  0  0  0  0
  194.2980  182.4382  159.0713 H   0  0  0  0  0  0  0  0  0  0  0  0
  194.8617  184.5681  160.2439 H   0  0  0  0  0  0  0  0  0  0  0  0
  197.1218  185.5298  160.0486 H   0  0  0  0  0  0  0  0  0  0  0  0
  1  2  1  0
  2  3  2  0
  2  7  1  0
  3  4  1  0
  3 31  1  0
  4  5  2  0
  4  8  1  0
  5  6  1  0
  5 32  1  0
  6  7  2  0
  6 33  1  0
  7 34  1  0
  8  9  1  0
  8 35  1  6
  8 36  1  0
  9 10  2  0
  9 11  1  0
 11 12  1  0
 11 37  1  0
 12 13  1  0
 12 26  2  0
 13 14  2  0
 14 15  1  0
 14 38  1  0
 15 16  1  0
 15 25  2  0
 16 17  1  0
 16 19  1  0
 17 18  3  0
 19 20  2  0
 19 24  1  0
 20 21  1  0
 20 39  1  0
 21 22  2  0
 21 40  1  0
 22 23  1  0
 22 41  1  0
 23 24  2  0
 23 42  1  0
 24 43  1  0
 25 26  1  0
 25 30  1  0
 26 27  1  0
 27 28  2  0
 27 44  1  0
 28 29  1  0
 28 45  1  0
 29 30  2  0
 29 46  1  0
 30 47  1  0
M  END
>  <s_epik_cmdline>  (1259) 
J2VwaWtfcHl0aG9uJywgJy1waCcsICc3LjAwMDAwMCcsICctcGh0JywgJzIuMDAwMDAwJywgJy1tcycsICcxNicsICctdG4nLCAnOCcsICctbWEnLCAnMjAwJywgJy1pbWFlJywgJzxpbmZpbGUubWFlPicsICctb21hZScsICc8b3V0ZmlsZS5tYWU+Jw==

>  <s_epik_input>  (1259) 
Q2xjMVtjSF1jKFtjSF1bY0hdW2NIXTEpW0NIMl1DKD1PKVtOSF1jKGMoYzIzKVtjSF1bY0hdW2NIXVtjSF0zKW5bY0hdYzJOKEMjTiljNFtjSF1bY0hdW2NIXVtjSF1bY0hdNA==

>  <s_i_glide_gridfile>  (1259) 
ATP-Grid

>  <s_lp_Force_Field>  (1259) 
OPLS_2005

>  <s_lp_Variant>  (1259) 
rxn502b____EMOL492715____EMOL7515103____EMOL36822768-1

>  <s_lp_label>  (1259) 
2494_sdstereoexpander_1_neutralizer_1_epik_1_stereoizer_1

>  <s_m_source_file>  (1259) 
ATP-VSW-LIGPREP-002-in.maegz

>  <s_sd_BIOSOLVEIT.INFINISEE\_QUERY\_NAME>  (1259) 
Ref-Lig

>  <s_sd_BIOSOLVEIT.INFINISEE\_QUERY\_SMILES>  (1259) 
S(c1nc2c(cc1C[NH2+]Cc3ccc(cc3)C[NH+](C)C)cccc2)Cc4ccccc4

>  <s_sd_BIOSOLVEIT.INFINISEE\_REACTION\_NAME>  (1259) 
rxn502b

>  <s_sd_BIOSOLVEIT.INFINISEE\_REAGENT1\_NAME>  (1259) 
EMOL492715

>  <s_sd_BIOSOLVEIT.INFINISEE\_REAGENT1\_SMILES>  (1259) 
Clc1cc(ccc1)CC(=O)O

>  <s_sd_BIOSOLVEIT.INFINISEE\_REAGENT2\_NAME>  (1259) 
EMOL7515103

>  <s_sd_BIOSOLVEIT.INFINISEE\_REAGENT2\_SMILES>  (1259) 
Brc1c2c(c(nc1)N)cccc2

>  <s_sd_BIOSOLVEIT.INFINISEE\_REAGENT3\_NAME>  (1259) 
EMOL36822768

>  <s_sd_BIOSOLVEIT.INFINISEE\_REAGENT3\_SMILES>  (1259) 
N#CNc1ccccc1

>  <s_sd_BIOSOLVEIT.INFINISEE\_SPACE>  (1259) 
eXplore_7tr_2022-12

>  <s_vsw_compound_code>  (1259) 
79778

>  <s_vsw_variant>  (1259) 
79778-1

>  <r_epik_Charging_Adjusted_Penalty>  (1259) 
0.0013262487269534999

>  <r_epik_Ionization_Penalty>  (1259) 
0.00089999999999999998

>  <r_epik_Ionization_Penalty_Charging>  (1259) 
0

>  <r_epik_Ionization_Penalty_Neutral>  (1259) 
0.00089999999999999998

>  <r_epik_State_Penalty>  (1259) 
0.0012999999999999999

>  <r_i_docking_score>  (1259) 
-3.89780127969631

>  <r_i_glide_ecoul>  (1259) 
-4.07295846939087

>  <r_i_glide_eff_state_penalty>  (1259) 
0.0012999999999999999

>  <r_i_glide_einternal>  (1259) 
1.72643399238586

>  <r_i_glide_emodel>  (1259) 
-47.622927757811297

>  <r_i_glide_energy>  (1259) 
-38.3431878089905

>  <r_i_glide_erotb>  (1259) 
0.57851440092583595

>  <r_i_glide_esite>  (1259) 
-0.10066288493919701

>  <r_i_glide_evdw>  (1259) 
-34.270229339599602

>  <r_i_glide_gscore>  (1259) 
-3.89910127969631

>  <r_i_glide_hbond>  (1259) 
-0.036787003313110897

>  <r_i_glide_ligand_efficiency>  (1259) 
-0.12992670932320999

>  <r_i_glide_ligand_efficiency_ln>  (1259) 
-0.885622920693521

>  <r_i_glide_ligand_efficiency_sa>  (1259) 
-0.40371249414299598

>  <r_i_glide_lipo>  (1259) 
-1.30327323604126

>  <r_i_glide_metal>  (1259) 
-0

>  <r_i_glide_rewards>  (1259) 
-0.71243731893997397

>  <r_lp_Energy>  (1259) 
30.988862999999998

>  <r_qp_ACxDN^.5/SA>  (1259) 
0.0076065999999999998

>  <r_qp_CIQPlogS>  (1259) 
-6.7290000000000001

>  <r_qp_EA(eV)>  (1259) 
1.524

>  <r_qp_FISA>  (1259) 
122.706

>  <r_qp_FOSA>  (1259) 
42.189

>  <r_qp_IP(eV)>  (1259) 
8.5860000000000003

>  <r_qp_Jm>  (1259) 
0.0024631253417070598

>  <r_qp_PISA>  (1259) 
486.541

>  <r_qp_PSA>  (1259) 
72.909000000000006

>  <r_qp_PercentHumanOralAbsorption>  (1259) 
100

>  <r_qp_QPPCaco>  (1259) 
679.63900000000001

>  <r_qp_QPPMDCK>  (1259) 
804.21600000000001

>  <r_qp_QPlogBB>  (1259) 
-0.93999999999999995

>  <r_qp_QPlogHERG>  (1259) 
-7.282

>  <r_qp_QPlogKhsa>  (1259) 
0.75

>  <r_qp_QPlogKp>  (1259) 
-1.4910000000000001

>  <r_qp_QPlogPC16>  (1259) 
15.202999999999999

>  <r_qp_QPlogPo/w>  (1259) 
4.992

>  <r_qp_QPlogPoct>  (1259) 
21.664000000000001

>  <r_qp_QPlogPw>  (1259) 
11.186999999999999

>  <r_qp_QPlogS>  (1259) 
-6.7329999999999997

>  <r_qp_QPpolrz>  (1259) 
45.822000000000003

>  <r_qp_SASA>  (1259) 
723.05200000000002

>  <r_qp_SAamideO>  (1259) 
0

>  <r_qp_SAfluorine>  (1259) 
0

>  <r_qp_WPSA>  (1259) 
71.616

>  <r_qp_accptHB>  (1259) 
5.5

>  <r_qp_dip^2/V>  (1259) 
0.10847999999999999

>  <r_qp_dipole>  (1259) 
11.779

>  <r_qp_donorHB>  (1259) 
1

>  <r_qp_glob>  (1259) 
0.78805999999999998

>  <r_qp_mol_MW>  (1259) 
412.87700000000001

>  <r_qp_volume>  (1259) 
1278.925

>  <r_sd_BIOSOLVEIT.INFINISEE\_FTREES\_SIMILARITY>  (1259) 
0.91400000000000003

>  <r_sd_BIOSOLVEIT.LOGP>  (1259) 
5.68858

>  <r_sd_BIOSOLVEIT.MOLECULAR\_WEIGHT>  (1259) 
412.87799999999999

>  <r_sd_BIOSOLVEIT.TPSA>  (1259) 
69.019999999999996

>  <i_epik_Tot_Q>  (1259) 
0

>  <i_epik_Tot_abs_Q>  (1259) 
0

>  <i_f3d_flags>  (1259) 
0

>  <i_i_glide_confnum>  (1259) 
6

>  <i_i_glide_lignum>  (1259) 
1087

>  <i_i_glide_posenum>  (1259) 
7

>  <i_i_glide_rotatable_bonds>  (1259) 
6

>  <i_lp_mmshare_version>  (1259) 
65135

>  <i_m_ct_format>  (1259) 
2

>  <i_m_source_file_index>  (1259) 
2494

>  <i_qp_#NandO>  (1259) 
5

>  <i_qp_#acid>  (1259) 
0

>  <i_qp_#amide>  (1259) 
0

>  <i_qp_#amidine>  (1259) 
0

>  <i_qp_#amine>  (1259) 
0

>  <i_qp_#in34>  (1259) 
0

>  <i_qp_#in56>  (1259) 
22

>  <i_qp_#metab>  (1259) 
3

>  <i_qp_#nonHatm>  (1259) 
30

>  <i_qp_#noncon>  (1259) 
0

>  <i_qp_#ringatoms>  (1259) 
22

>  <i_qp_#rotor>  (1259) 
6

>  <i_qp_#rtvFG>  (1259) 
0

>  <i_qp_#stars>  (1259) 
2

>  <i_qp_CNS>  (1259) 
-1

>  <i_qp_HumanOralAbsorption>  (1259) 
1

>  <i_qp_RuleOfFive>  (1259) 
0

>  <i_qp_RuleOfThree>  (1259) 
1

>  <i_sd_BIOSOLVEIT.INFINISEE\_RESULT\_RANK>  (1259) 
29989

>  <i_sd_version>  (1259) 
0

>  <b_lp_Chiralities_Consistent>  (1259) 
1

>  <b_sd_chiral_flag>  (1259) 
0

>  <canonical_id>  (1259) 
ATP-HTVS-C7C112B42D2F

>  <compound_code>  (1259) 
79778

>  <title>  (1259) 
rxn502b____EMOL492715____EMOL7515103____EMOL36822768

>  <variant>  (1259) 
79778-1

>  <source_file>  (1259) 
运行/运行/ATP-VSW/ATP-VSW-DOCK_HTVS_1-002_lib.maegz

>  <canonical_smiles>  (1259) 
N#CN(c1ccccc1)c1cnc(NC(=O)Cc2cccc(Cl)c2)c2ccccc12

>  <scaffold>  (1259) 
O=C(Cc1ccccc1)Nc1ncc(Nc2ccccc2)c2ccccc12

>  <molecular_formula>  (1259) 
C24H17ClN4O

$$$$
ATP-HTVS-C7E1AC016800
     RDKit          3D

 52 54  0  0  0  0  0  0  0  0999 V2000
  204.4619  181.0351  157.7192 Cl  0  0  0  0  0  0  0  0  0  0  0  0
  202.8049  181.4951  157.6902 C   0  0  0  0  0  0  0  0  0  0  0  0
  202.3479  183.0044  158.4275 S   0  0  0  0  0  0  0  0  0  0  0  0
  200.6664  182.7180  158.0367 C   0  0  0  0  0  0  0  0  0  0  0  0
  199.6856  183.7221  158.4953 C   0  0  0  0  0  0  0  0  0  0  0  0
  200.0510  184.8239  158.9057 O   0  0  0  0  0  0  0  0  0  0  0  0
  198.4048  183.3105  158.4381 N   0  0  0  0  0  0  0  0  0  0  0  0
  197.2061  183.9380  158.8721 C   0  0  0  0  0  0  0  0  0  0  0  0
  195.9783  183.3589  158.4570 C   0  0  0  0  0  0  0  0  0  0  0  0
  195.9386  182.2488  157.6056 N   0  0  0  0  0  0  0  0  0  0  0  0
  194.7584  183.9084  158.8981 C   0  0  0  0  0  0  0  0  0  0  0  0
  194.7469  185.0332  159.7450 C   0  0  0  0  0  0  0  0  0  0  0  0
  195.9602  185.6136  160.1575 C   0  0  0  0  0  0  0  0  0  0  0  0
  197.1828  185.0643  159.7325 C   0  0  0  0  0  0  0  0  0  0  0  0
  200.5137  181.5444  157.3317 C   0  0  0  0  0  0  0  0  0  0  0  0
  201.7379  180.8224  157.1582 C   0  0  0  0  0  0  0  0  0  0  0  0
  201.8031  179.5631  156.5236 N   0  0  0  0  0  0  0  0  0  0  0  0
  200.6146  178.7585  156.2734 C   0  0  1  0  0  0  0  0  0  0  0  0
  200.8884  177.3995  155.6626 C   0  0  0  0  0  0  0  0  0  0  0  0
  200.6419  177.1758  154.2947 C   0  0  0  0  0  0  0  0  0  0  0  0
  200.8422  175.8938  153.7433 C   0  0  0  0  0  0  0  0  0  0  0  0
  201.2881  174.8231  154.5509 C   0  0  0  0  0  0  0  0  0  0  0  0
  201.5378  175.0589  155.9187 C   0  0  0  0  0  0  0  0  0  0  0  0
  201.3566  176.3443  156.4719 C   0  0  0  0  0  0  0  0  0  0  0  0
  201.4844  173.4207  153.9709 C   0  0  1  0  0  0  0  0  0  0  0  0
  202.9149  173.0420  153.7879 N   0  0  1  0  0  0  0  0  0  0  0  0
  203.6053  173.8624  152.7694 C   0  0  2  0  0  0  0  0  0  0  0  0
  203.6962  172.9387  155.0404 C   0  0  2  0  0  0  0  0  0  0  0  0
  198.2617  182.3947  158.0414 H   0  0  0  0  0  0  0  0  0  0  0  0
  195.0581  182.0049  157.1694 H   0  0  0  0  0  0  0  0  0  0  0  0
  196.7511  181.9441  157.0931 H   0  0  0  0  0  0  0  0  0  0  0  0
  193.8212  183.4774  158.5741 H   0  0  0  0  0  0  0  0  0  0  0  0
  193.8055  185.4524  160.0690 H   0  0  0  0  0  0  0  0  0  0  0  0
  195.9548  186.4746  160.8064 H   0  0  0  0  0  0  0  0  0  0  0  0
  198.0912  185.5224  160.0942 H   0  0  0  0  0  0  0  0  0  0  0  0
  199.5685  181.1700  156.9702 H   0  0  0  0  0  0  0  0  0  0  0  0
  202.6898  179.0736  156.5463 H   0  0  0  0  0  0  0  0  0  0  0  0
  200.0780  178.6100  157.2120 H   0  0  0  0  0  0  0  0  0  0  0  0
  199.9409  179.3111  155.6171 H   0  0  0  0  0  0  0  0  0  0  0  0
  200.2920  177.9828  153.6666 H   0  0  0  0  0  0  0  0  0  0  0  0
  200.6429  175.7320  152.6896 H   0  0  0  0  0  0  0  0  0  0  0  0
  201.8452  174.2381  156.5371 H   0  0  0  0  0  0  0  0  0  0  0  0
  201.5593  176.5220  157.5203 H   0  0  0  0  0  0  0  0  0  0  0  0
  200.9830  172.6860  154.6014 H   0  0  0  0  0  0  0  0  0  0  0  0
  200.9789  173.3534  153.0034 H   0  0  0  0  0  0  0  0  0  0  0  0
  203.6209  174.9150  153.0574 H   0  0  0  0  0  0  0  0  0  0  0  0
  203.1136  173.7851  151.7979 H   0  0  0  0  0  0  0  0  0  0  0  0
  204.6396  173.5363  152.6474 H   0  0  0  0  0  0  0  0  0  0  0  0
  203.8395  173.9148  155.5110 H   0  0  0  0  0  0  0  0  0  0  0  0
  204.6751  172.4871  154.8507 H   0  0  0  0  0  0  0  0  0  0  0  0
  203.1754  172.2820  155.7354 H   0  0  0  0  0  0  0  0  0  0  0  0
  202.9018  172.0873  153.4482 H   0  0  0  0  0  0  0  0  0  0  0  0
  1  2  1  0
  2  3  1  0
  2 16  2  0
  3  4  1  0
  4  5  1  0
  4 15  2  0
  5  6  2  0
  5  7  1  0
  7  8  1  0
  7 29  1  0
  8  9  1  0
  8 14  2  0
  9 10  1  0
  9 11  2  0
 10 30  1  0
 10 31  1  0
 11 12  1  0
 11 32  1  0
 12 13  2  0
 12 33  1  0
 13 14  1  0
 13 34  1  0
 14 35  1  0
 15 16  1  0
 15 36  1  0
 16 17  1  0
 17 18  1  0
 17 37  1  0
 18 19  1  0
 18 38  1  1
 18 39  1  0
 19 20  1  0
 19 24  2  0
 20 21  2  0
 20 40  1  0
 21 22  1  0
 21 41  1  0
 22 23  2  0
 22 25  1  0
 23 24  1  0
 23 42  1  0
 24 43  1  0
 25 26  1  0
 25 44  1  1
 25 45  1  0
 26 27  1  0
 26 28  1  0
 26 52  1  6
 27 46  1  1
 27 47  1  0
 27 48  1  0
 28 49  1  1
 28 50  1  0
 28 51  1  0
M  CHG  1  26   1
M  END
>  <s_epik_cmdline>  (1260) 
J2VwaWtfcHl0aG9uJywgJy1waCcsICc3LjAwMDAwMCcsICctcGh0JywgJzIuMDAwMDAwJywgJy1tcycsICcxNicsICctdG4nLCAnOCcsICctbWEnLCAnMjAwJywgJy1pbWFlJywgJzxpbmZpbGUubWFlPicsICctb21hZScsICc8b3V0ZmlsZS5tYWU+Jw==

>  <s_epik_input>  (1260) 
W2NIXTFbY0hdW2NIXVtjSF1jKFtOSDJdKWMxW05IXUMoPU8pYyhzYzJDbClbY0hdYzJbTkhdW0NIMl1jM1tjSF1bY0hdYyhbY0hdW2NIXTMpW0NIMl1OKFtDSDNdKVtDSDNd

>  <s_i_glide_gridfile>  (1260) 
ATP-Grid

>  <s_lp_Force_Field>  (1260) 
OPLS_2005

>  <s_lp_Variant>  (1260) 
rxn512b____EMOL493903____EMOL44846536____EMOL50155899-1

>  <s_lp_label>  (1260) 
3106_sdstereoexpander_1_neutralizer_1_epik_1_stereoizer_1

>  <s_m_source_file>  (1260) 
ATP-VSW-LIGPREP-001-in.maegz

>  <s_sd_BIOSOLVEIT.INFINISEE\_QUERY\_NAME>  (1260) 
Ref-Lig

>  <s_sd_BIOSOLVEIT.INFINISEE\_QUERY\_SMILES>  (1260) 
S(c1nc2c(cc1C[NH2+]Cc3ccc(cc3)C[NH+](C)C)cccc2)Cc4ccccc4

>  <s_sd_BIOSOLVEIT.INFINISEE\_REACTION\_NAME>  (1260) 
rxn512b

>  <s_sd_BIOSOLVEIT.INFINISEE\_REAGENT1\_NAME>  (1260) 
EMOL493903

>  <s_sd_BIOSOLVEIT.INFINISEE\_REAGENT1\_SMILES>  (1260) 
Nc1c(N)cccc1

>  <s_sd_BIOSOLVEIT.INFINISEE\_REAGENT2\_NAME>  (1260) 
EMOL44846536

>  <s_sd_BIOSOLVEIT.INFINISEE\_REAGENT2\_SMILES>  (1260) 
BrC1=C(Cl)SC(C(=O)O)=C1

>  <s_sd_BIOSOLVEIT.INFINISEE\_REAGENT3\_NAME>  (1260) 
EMOL50155899

>  <s_sd_BIOSOLVEIT.INFINISEE\_REAGENT3\_SMILES>  (1260) 
N(Cc1ccc(cc1)CN)(C)C

>  <s_sd_BIOSOLVEIT.INFINISEE\_SPACE>  (1260) 
eXplore_7tr_2022-12

>  <s_vsw_compound_code>  (1260) 
99361

>  <s_vsw_variant>  (1260) 
99361-1

>  <r_epik_Charging_Adjusted_Penalty>  (1260) 
0.080189274810459593

>  <r_epik_Ionization_Penalty>  (1260) 
0.040800000000000003

>  <r_epik_Ionization_Penalty_Charging>  (1260) 
0.040099999999999997

>  <r_epik_Ionization_Penalty_Neutral>  (1260) 
0.00069999999999999999

>  <r_epik_State_Penalty>  (1260) 
0.040099999999999997

>  <r_i_docking_score>  (1260) 
-5.1756898114063201

>  <r_i_glide_ecoul>  (1260) 
-8.0273561477661097

>  <r_i_glide_eff_state_penalty>  (1260) 
0.040099999999999997

>  <r_i_glide_einternal>  (1260) 
2.4938976764678999

>  <r_i_glide_emodel>  (1260) 
-57.806120990074

>  <r_i_glide_energy>  (1260) 
-41.470665931701703

>  <r_i_glide_erotb>  (1260) 
0.79909096266727297

>  <r_i_glide_esite>  (1260) 
-0.19931373011060399

>  <r_i_glide_evdw>  (1260) 
-33.443309783935497

>  <r_i_glide_gscore>  (1260) 
-5.2157898114063199

>  <r_i_glide_hbond>  (1260) 
-0.39329538339490899

>  <r_i_glide_ligand_efficiency>  (1260) 
-0.18484606469308301

>  <r_i_glide_ligand_efficiency_ln>  (1260) 
-1.19470117332873

>  <r_i_glide_ligand_efficiency_sa>  (1260) 
-0.56130152091817398

>  <r_i_glide_lipo>  (1260) 
-1.67502136432805

>  <r_i_glide_metal>  (1260) 
-0

>  <r_i_glide_rewards>  (1260) 
-0.87098138487834298

>  <r_lp_Energy>  (1260) 
20.212453

>  <r_lp_tautomer_probability>  (1260) 
0.99999274205267796

>  <r_qp_ACxDN^.5/SA>  (1260) 
0.018956500000000001

>  <r_qp_CIQPlogS>  (1260) 
-3.7909999999999999

>  <r_qp_EA(eV)>  (1260) 
0.83699999999999997

>  <r_qp_FISA>  (1260) 
88.814999999999998

>  <r_qp_FOSA>  (1260) 
178.36500000000001

>  <r_qp_IP(eV)>  (1260) 
8.2439999999999998

>  <r_qp_Jm>  (1260) 
0.00688661153445591

>  <r_qp_PISA>  (1260) 
264.28500000000003

>  <r_qp_PSA>  (1260) 
77.462000000000003

>  <r_qp_PercentHumanOralAbsorption>  (1260) 
79.066000000000003

>  <r_qp_QPPCaco>  (1260) 
88.606999999999999

>  <r_qp_QPPMDCK>  (1260) 
176.66900000000001

>  <r_qp_QPlogBB>  (1260) 
0.34999999999999998

>  <r_qp_QPlogHERG>  (1260) 
-6.4889999999999999

>  <r_qp_QPlogKhsa>  (1260) 
0.26000000000000001

>  <r_qp_QPlogKp>  (1260) 
-5.5819999999999999

>  <r_qp_QPlogPC16>  (1260) 
13.634

>  <r_qp_QPlogPo/w>  (1260) 
2.9489999999999998

>  <r_qp_QPlogPoct>  (1260) 
23.172000000000001

>  <r_qp_QPlogPw>  (1260) 
13.467000000000001

>  <r_qp_QPlogS>  (1260) 
-2.198

>  <r_qp_QPpolrz>  (1260) 
40.106000000000002

>  <r_qp_SASA>  (1260) 
641.48900000000003

>  <r_qp_SAamideO>  (1260) 
0

>  <r_qp_SAfluorine>  (1260) 
0

>  <r_qp_WPSA>  (1260) 
110.024

>  <r_qp_accptHB>  (1260) 
6.5

>  <r_qp_dip^2/V>  (1260) 
0.069020399999999996

>  <r_qp_dipole>  (1260) 
9.1809999999999992

>  <r_qp_donorHB>  (1260) 
3.5

>  <r_qp_glob>  (1260) 
0.86132920000000002

>  <r_qp_mol_MW>  (1260) 
414.952

>  <r_qp_volume>  (1260) 
1221.2090000000001

>  <r_sd_BIOSOLVEIT.INFINISEE\_FTREES\_SIMILARITY>  (1260) 
0.90100000000000002

>  <r_sd_BIOSOLVEIT.LOGP>  (1260) 
3.4925999999999999

>  <r_sd_BIOSOLVEIT.MOLECULAR\_WEIGHT>  (1260) 
415.96600000000001

>  <r_sd_BIOSOLVEIT.TPSA>  (1260) 
71.590000000000003

>  <i_epik_Tot_Q>  (1260) 
1

>  <i_epik_Tot_abs_Q>  (1260) 
1

>  <i_f3d_flags>  (1260) 
0

>  <i_i_glide_confnum>  (1260) 
6

>  <i_i_glide_lignum>  (1260) 
61

>  <i_i_glide_posenum>  (1260) 
20

>  <i_i_glide_rotatable_bonds>  (1260) 
8

>  <i_lp_mmshare_version>  (1260) 
65135

>  <i_m_ct_format>  (1260) 
2

>  <i_m_source_file_index>  (1260) 
3106

>  <i_qp_#NandO>  (1260) 
5

>  <i_qp_#acid>  (1260) 
0

>  <i_qp_#amide>  (1260) 
0

>  <i_qp_#amidine>  (1260) 
0

>  <i_qp_#amine>  (1260) 
2

>  <i_qp_#in34>  (1260) 
0

>  <i_qp_#in56>  (1260) 
17

>  <i_qp_#metab>  (1260) 
8

>  <i_qp_#nonHatm>  (1260) 
28

>  <i_qp_#noncon>  (1260) 
0

>  <i_qp_#ringatoms>  (1260) 
17

>  <i_qp_#rotor>  (1260) 
8

>  <i_qp_#rtvFG>  (1260) 
0

>  <i_qp_#stars>  (1260) 
0

>  <i_qp_CNS>  (1260) 
1

>  <i_qp_HumanOralAbsorption>  (1260) 
2

>  <i_qp_RuleOfFive>  (1260) 
0

>  <i_qp_RuleOfThree>  (1260) 
1

>  <i_sd_BIOSOLVEIT.INFINISEE\_RESULT\_RANK>  (1260) 
97733

>  <i_sd_version>  (1260) 
0

>  <b_lp_Chiralities_Consistent>  (1260) 
1

>  <b_sd_chiral_flag>  (1260) 
0

>  <canonical_id>  (1260) 
ATP-HTVS-C7E1AC016800

>  <compound_code>  (1260) 
99361

>  <title>  (1260) 
rxn512b____EMOL493903____EMOL44846536____EMOL50155899

>  <variant>  (1260) 
99361-1

>  <source_file>  (1260) 
运行/运行/ATP-VSW/ATP-VSW-DOCK_HTVS_1-002_lib.maegz

>  <canonical_smiles>  (1260) 
C[NH+](C)Cc1ccc(CNc2cc(C(=O)Nc3ccccc3N)sc2Cl)cc1

>  <scaffold>  (1260) 
O=C(Nc1ccccc1)c1cc(NCc2ccccc2)cs1

>  <molecular_formula>  (1260) 
C21H24ClN4OS+

$$$$
ATP-HTVS-C7F6DF534483
     RDKit          3D

 60 63  0  0  0  0  0  0  0  0999 V2000
  196.1626  179.4327  148.7571 F   0  0  0  0  0  0  0  0  0  0  0  0
  197.1631  178.5664  149.0586 C   0  0  0  0  0  0  0  0  0  0  0  0
  197.7470  178.5233  150.3517 C   0  0  0  0  0  0  0  0  0  0  0  0
  198.7527  177.5481  150.6015 C   0  0  0  0  0  0  0  0  0  0  0  0
  199.1866  176.6753  149.5841 C   0  0  0  0  0  0  0  0  0  0  0  0
  198.6098  176.7440  148.3088 C   0  0  0  0  0  0  0  0  0  0  0  0
  199.0186  175.8946  147.3368 F   0  0  0  0  0  0  0  0  0  0  0  0
  197.6011  177.6860  148.0470 C   0  0  0  0  0  0  0  0  0  0  0  0
  197.2487  179.4301  151.4585 C   0  0  0  0  0  0  0  0  0  0  0  0
  196.2838  180.1726  151.2843 O   0  0  0  0  0  0  0  0  0  0  0  0
  197.9526  179.3482  152.6049 N   0  0  0  0  0  0  0  0  0  0  0  0
  197.8008  180.0769  153.8093 C   0  0  0  0  0  0  0  0  0  0  0  0
  196.9618  181.1251  153.8827 N   0  0  0  0  0  0  0  0  0  0  0  0
  196.8158  181.7770  155.0467 C   0  0  0  0  0  0  0  0  0  0  0  0
  197.4959  181.4219  156.2324 C   0  0  0  0  0  0  0  0  0  0  0  0
  197.3186  182.0981  157.4491 N   0  0  0  0  0  0  0  0  0  0  0  0
  196.0233  182.6882  157.7533 C   0  0  1  0  0  0  0  0  0  0  0  0
  196.1113  183.9512  158.5710 C   0  0  0  0  0  0  0  0  0  0  0  0
  197.1473  184.8828  158.3380 C   0  0  0  0  0  0  0  0  0  0  0  0
  197.2369  186.0563  159.1173 C   0  0  0  0  0  0  0  0  0  0  0  0
  196.2599  186.3054  160.1029 C   0  0  0  0  0  0  0  0  0  0  0  0
  195.1842  185.4149  160.2818 C   0  0  0  0  0  0  0  0  0  0  0  0
  195.1181  184.2316  159.5262 C   0  0  0  0  0  0  0  0  0  0  0  0
  198.3827  187.0390  158.9079 C   0  0  1  0  0  0  0  0  0  0  0  0
  198.0495  188.1843  158.0150 N   0  0  1  0  0  0  0  0  0  0  0  0
  197.7099  187.7728  156.6325 C   0  0  2  0  0  0  0  0  0  0  0  0
  197.0656  189.1205  158.5993 C   0  0  2  0  0  0  0  0  0  0  0  0
  198.4145  180.3485  156.1515 C   0  0  0  0  0  0  0  0  0  0  0  0
  198.5832  179.6656  154.9212 C   0  0  0  0  0  0  0  0  0  0  0  0
  199.5099  178.5898  154.8374 N   0  0  0  0  0  0  0  0  0  0  0  0
  199.5543  177.5173  155.7096 C   0  0  0  0  0  0  0  0  0  0  0  0
  200.5591  176.6809  155.3104 C   0  0  0  0  0  0  0  0  0  0  0  0
  201.1650  177.2534  154.1592 C   0  0  0  0  0  0  0  0  0  0  0  0
  200.5246  178.4340  153.9012 C   0  0  0  0  0  0  0  0  0  0  0  0
  199.2293  177.4274  151.5618 H   0  0  0  0  0  0  0  0  0  0  0  0
  199.9563  175.9491  149.7915 H   0  0  0  0  0  0  0  0  0  0  0  0
  197.1430  177.7193  147.0725 H   0  0  0  0  0  0  0  0  0  0  0  0
  198.6818  178.6555  152.6380 H   0  0  0  0  0  0  0  0  0  0  0  0
  196.1423  182.6143  154.9690 H   0  0  0  0  0  0  0  0  0  0  0  0
  197.6989  181.6063  158.2458 H   0  0  0  0  0  0  0  0  0  0  0  0
  195.4337  182.9639  156.8928 H   0  0  0  0  0  0  0  0  0  0  0  0
  195.4412  181.9392  158.2953 H   0  0  0  0  0  0  0  0  0  0  0  0
  197.8631  184.6921  157.5500 H   0  0  0  0  0  0  0  0  0  0  0  0
  196.3163  187.1950  160.7162 H   0  0  0  0  0  0  0  0  0  0  0  0
  194.4144  185.6392  161.0052 H   0  0  0  0  0  0  0  0  0  0  0  0
  194.2961  183.5473  159.6635 H   0  0  0  0  0  0  0  0  0  0  0  0
  198.7161  187.4227  159.8729 H   0  0  0  0  0  0  0  0  0  0  0  0
  199.2315  186.4922  158.4906 H   0  0  0  0  0  0  0  0  0  0  0  0
  196.7900  187.1901  156.6044 H   0  0  0  0  0  0  0  0  0  0  0  0
  198.5097  187.1739  156.1996 H   0  0  0  0  0  0  0  0  0  0  0  0
  197.5683  188.6426  155.9946 H   0  0  0  0  0  0  0  0  0  0  0  0
  196.1016  188.6395  158.7566 H   0  0  0  0  0  0  0  0  0  0  0  0
  196.8973  189.9758  157.9423 H   0  0  0  0  0  0  0  0  0  0  0  0
  197.4179  189.4951  159.5617 H   0  0  0  0  0  0  0  0  0  0  0  0
  198.9996  180.0472  157.0120 H   0  0  0  0  0  0  0  0  0  0  0  0
  198.8549  177.4416  156.5306 H   0  0  0  0  0  0  0  0  0  0  0  0
  200.8299  175.7580  155.7996 H   0  0  0  0  0  0  0  0  0  0  0  0
  201.9904  176.8551  153.5892 H   0  0  0  0  0  0  0  0  0  0  0  0
  200.6987  179.1667  153.1259 H   0  0  0  0  0  0  0  0  0  0  0  0
  198.9111  188.7081  157.9476 H   0  0  0  0  0  0  0  0  0  0  0  0
  1  2  1  0
  2  3  2  0
  2  8  1  0
  3  4  1  0
  3  9  1  0
  4  5  2  0
  4 35  1  0
  5  6  1  0
  5 36  1  0
  6  7  1  0
  6  8  2  0
  8 37  1  0
  9 10  2  0
  9 11  1  0
 11 12  1  0
 11 38  1  0
 12 13  1  0
 12 29  2  0
 13 14  2  0
 14 15  1  0
 14 39  1  0
 15 16  1  0
 15 28  2  0
 16 17  1  0
 16 40  1  0
 17 18  1  0
 17 41  1  6
 17 42  1  0
 18 19  2  0
 18 23  1  0
 19 20  1  0
 19 43  1  0
 20 21  2  0
 20 24  1  0
 21 22  1  0
 21 44  1  0
 22 23  2  0
 22 45  1  0
 23 46  1  0
 24 25  1  0
 24 47  1  1
 24 48  1  0
 25 26  1  0
 25 27  1  0
 25 60  1  6
 26 49  1  1
 26 50  1  0
 26 51  1  0
 27 52  1  1
 27 53  1  0
 27 54  1  0
 28 29  1  0
 28 55  1  0
 29 30  1  0
 30 31  1  0
 30 34  1  0
 31 32  2  0
 31 56  1  0
 32 33  1  0
 32 57  1  0
 33 34  2  0
 33 58  1  0
 34 59  1  0
M  CHG  1  25   1
M  END
>  <s_epik_cmdline>  (1261) 
J2VwaWtfcHl0aG9uJywgJy1waCcsICc3LjAwMDAwMCcsICctcGh0JywgJzIuMDAwMDAwJywgJy1tcycsICcxNicsICctdG4nLCAnOCcsICctbWEnLCAnMjAwJywgJy1pbWFlJywgJzxpbmZpbGUubWFlPicsICctb21hZScsICc8b3V0ZmlsZS5tYWU+Jw==

>  <s_epik_input>  (1261) 
RmMoW2NIXTEpW2NIXVtjSF1jKGMxRilDKD1PKVtOSF1jMm5bY0hdYyhbY0hdYzItbjNbY0hdW2NIXVtjSF1bY0hdMylbTkhdW0NIMl1jNFtjSF1jKFtjSF1bY0hdW2NIXTQpW0NIMl1OKFtDSDNdKVtDSDNd

>  <s_i_glide_gridfile>  (1261) 
ATP-Grid

>  <s_lp_Force_Field>  (1261) 
OPLS_2005

>  <s_lp_Variant>  (1261) 
rxn502b____EMOL493145____EMOL4363915____EMOL2873214-1

>  <s_lp_label>  (1261) 
2293_sdstereoexpander_1_neutralizer_1_epik_1_stereoizer_1

>  <s_m_source_file>  (1261) 
ATP-VSW-LIGPREP-002-in.maegz

>  <s_sd_BIOSOLVEIT.INFINISEE\_QUERY\_NAME>  (1261) 
Ref-Lig

>  <s_sd_BIOSOLVEIT.INFINISEE\_QUERY\_SMILES>  (1261) 
S(c1nc2c(cc1C[NH2+]Cc3ccc(cc3)C[NH+](C)C)cccc2)Cc4ccccc4

>  <s_sd_BIOSOLVEIT.INFINISEE\_REACTION\_NAME>  (1261) 
rxn502b

>  <s_sd_BIOSOLVEIT.INFINISEE\_REAGENT1\_NAME>  (1261) 
EMOL493145

>  <s_sd_BIOSOLVEIT.INFINISEE\_REAGENT1\_SMILES>  (1261) 
Fc1c(ccc(F)c1)C(=O)O

>  <s_sd_BIOSOLVEIT.INFINISEE\_REAGENT2\_NAME>  (1261) 
EMOL4363915

>  <s_sd_BIOSOLVEIT.INFINISEE\_REAGENT2\_SMILES>  (1261) 
Brc1cnc(N)c(N2C=CC=C2)c1

>  <s_sd_BIOSOLVEIT.INFINISEE\_REAGENT3\_NAME>  (1261) 
EMOL2873214

>  <s_sd_BIOSOLVEIT.INFINISEE\_REAGENT3\_SMILES>  (1261) 
N(Cc1cc(ccc1)CN)(C)C

>  <s_sd_BIOSOLVEIT.INFINISEE\_SPACE>  (1261) 
eXplore_7tr_2022-12

>  <s_vsw_compound_code>  (1261) 
73346

>  <s_vsw_variant>  (1261) 
73346-1

>  <r_epik_Charging_Adjusted_Penalty>  (1261) 
0.088195370499548398

>  <r_epik_Ionization_Penalty>  (1261) 
0.044299999999999999

>  <r_epik_Ionization_Penalty_Charging>  (1261) 
0.0441

>  <r_epik_Ionization_Penalty_Neutral>  (1261) 
0.00020000000000000001

>  <r_epik_State_Penalty>  (1261) 
0.0441

>  <r_i_docking_score>  (1261) 
-4.6115288837466597

>  <r_i_glide_ecoul>  (1261) 
-3.1936516761779798

>  <r_i_glide_eff_state_penalty>  (1261) 
0.0441

>  <r_i_glide_einternal>  (1261) 
3.20952701568604

>  <r_i_glide_emodel>  (1261) 
-59.481236944044497

>  <r_i_glide_energy>  (1261) 
-44.860434055328398

>  <r_i_glide_erotb>  (1261) 
0.75335081161779605

>  <r_i_glide_esite>  (1261) 
-0.079771706261440201

>  <r_i_glide_evdw>  (1261) 
-41.666782379150398

>  <r_i_glide_gscore>  (1261) 
-4.65562888374666

>  <r_i_glide_hbond>  (1261) 
0

>  <r_i_glide_ligand_efficiency>  (1261) 
-0.13563320246313701

>  <r_i_glide_ligand_efficiency_ln>  (1261) 
-1.01881607942348

>  <r_i_glide_ligand_efficiency_sa>  (1261) 
-0.43939892282814402

>  <r_i_glide_lipo>  (1261) 
-1.9654758272945001

>  <r_i_glide_metal>  (1261) 
-0

>  <r_i_glide_rewards>  (1261) 
-0.801345291424295

>  <r_lp_Energy>  (1261) 
27.326909000000001

>  <r_qp_ACxDN^.5/SA>  (1261) 
0.0132397

>  <r_qp_CIQPlogS>  (1261) 
-6.266

>  <r_qp_EA(eV)>  (1261) 
0.86699999999999999

>  <r_qp_FISA>  (1261) 
58.616

>  <r_qp_FOSA>  (1261) 
152.21700000000001

>  <r_qp_IP(eV)>  (1261) 
8.4700000000000006

>  <r_qp_Jm>  (1261) 
0.043159034075967502

>  <r_qp_PISA>  (1261) 
406.089

>  <r_qp_PSA>  (1261) 
62.198999999999998

>  <r_qp_PercentHumanOralAbsorption>  (1261) 
100

>  <r_qp_QPPCaco>  (1261) 
686.97799999999995

>  <r_qp_QPPMDCK>  (1261) 
968.02099999999996

>  <r_qp_QPlogBB>  (1261) 
0.19700000000000001

>  <r_qp_QPlogHERG>  (1261) 
-6.5220000000000002

>  <r_qp_QPlogKhsa>  (1261) 
0.74299999999999999

>  <r_qp_QPlogKp>  (1261) 
-2.5600000000000001

>  <r_qp_QPlogPC16>  (1261) 
14.041

>  <r_qp_QPlogPo/w>  (1261) 
4.8460000000000001

>  <r_qp_QPlogPoct>  (1261) 
23.093

>  <r_qp_QPlogPw>  (1261) 
12.366

>  <r_qp_QPlogS>  (1261) 
-4.4690000000000003

>  <r_qp_QPpolrz>  (1261) 
47.768000000000001

>  <r_qp_SASA>  (1261) 
694.30399999999997

>  <r_qp_SAamideO>  (1261) 
0

>  <r_qp_SAfluorine>  (1261) 
77.382000000000005

>  <r_qp_WPSA>  (1261) 
77.382000000000005

>  <r_qp_accptHB>  (1261) 
6.5

>  <r_qp_dip^2/V>  (1261) 
0.0270456

>  <r_qp_dipole>  (1261) 
6.0709999999999997

>  <r_qp_donorHB>  (1261) 
2

>  <r_qp_glob>  (1261) 
0.85618159999999999

>  <r_qp_mol_MW>  (1261) 
461.51299999999998

>  <r_qp_volume>  (1261) 
1362.7809999999999

>  <r_sd_BIOSOLVEIT.INFINISEE\_FTREES\_SIMILARITY>  (1261) 
0.92300000000000004

>  <r_sd_BIOSOLVEIT.LOGP>  (1261) 
3.6594000000000002

>  <r_sd_BIOSOLVEIT.MOLECULAR\_WEIGHT>  (1261) 
462.52100000000002

>  <r_sd_BIOSOLVEIT.TPSA>  (1261) 
63.390000000000001

>  <i_epik_Tot_Q>  (1261) 
1

>  <i_epik_Tot_abs_Q>  (1261) 
1

>  <i_f3d_flags>  (1261) 
0

>  <i_i_glide_confnum>  (1261) 
5

>  <i_i_glide_lignum>  (1261) 
919

>  <i_i_glide_posenum>  (1261) 
18

>  <i_i_glide_rotatable_bonds>  (1261) 
9

>  <i_lp_mmshare_version>  (1261) 
65135

>  <i_m_ct_format>  (1261) 
2

>  <i_m_source_file_index>  (1261) 
2293

>  <i_qp_#NandO>  (1261) 
6

>  <i_qp_#acid>  (1261) 
0

>  <i_qp_#amide>  (1261) 
0

>  <i_qp_#amidine>  (1261) 
0

>  <i_qp_#amine>  (1261) 
1

>  <i_qp_#in34>  (1261) 
0

>  <i_qp_#in56>  (1261) 
23

>  <i_qp_#metab>  (1261) 
6

>  <i_qp_#nonHatm>  (1261) 
34

>  <i_qp_#noncon>  (1261) 
0

>  <i_qp_#ringatoms>  (1261) 
23

>  <i_qp_#rotor>  (1261) 
7

>  <i_qp_#rtvFG>  (1261) 
0

>  <i_qp_#stars>  (1261) 
0

>  <i_qp_CNS>  (1261) 
1

>  <i_qp_HumanOralAbsorption>  (1261) 
3

>  <i_qp_RuleOfFive>  (1261) 
0

>  <i_qp_RuleOfThree>  (1261) 
0

>  <i_sd_BIOSOLVEIT.INFINISEE\_RESULT\_RANK>  (1261) 
11131

>  <i_sd_version>  (1261) 
0

>  <b_lp_Chiralities_Consistent>  (1261) 
1

>  <b_sd_chiral_flag>  (1261) 
0

>  <canonical_id>  (1261) 
ATP-HTVS-C7F6DF534483

>  <compound_code>  (1261) 
73346

>  <title>  (1261) 
rxn502b____EMOL493145____EMOL4363915____EMOL2873214

>  <variant>  (1261) 
73346-1

>  <source_file>  (1261) 
运行/运行/ATP-VSW/ATP-VSW-DOCK_HTVS_1-002_lib.maegz

>  <canonical_smiles>  (1261) 
C[NH+](C)Cc1cccc(CNc2cnc(NC(=O)c3ccc(F)cc3F)c(-n3cccc3)c2)c1

>  <scaffold>  (1261) 
O=C(Nc1ncc(NCc2ccccc2)cc1-n1cccc1)c1ccccc1

>  <molecular_formula>  (1261) 
C26H26F2N5O+

$$$$
ATP-HTVS-C81E0B2D019D
     RDKit          3D

 59 62  0  0  0  0  0  0  0  0999 V2000
  198.3759  189.1532  156.6261 O   0  0  0  0  0  0  0  0  0  0  0  0
  197.9045  188.0674  156.9809 C   0  0  0  0  0  0  0  0  0  0  0  0
  197.2027  188.0590  158.1175 N   0  0  0  0  0  0  0  0  0  0  0  0
  196.6254  186.9286  158.7239 C   0  0  0  0  0  0  0  0  0  0  0  0
  196.7346  185.6765  158.0959 C   0  0  0  0  0  0  0  0  0  0  0  0
  196.1870  184.5471  158.7557 C   0  0  0  0  0  0  0  0  0  0  0  0
  195.5461  184.6897  160.0037 C   0  0  0  0  0  0  0  0  0  0  0  0
  195.4337  185.9549  160.6066 C   0  0  0  0  0  0  0  0  0  0  0  0
  195.9794  187.0805  159.9653 C   0  0  0  0  0  0  0  0  0  0  0  0
  197.4394  185.6216  156.7984 C   0  0  0  0  0  0  0  0  0  0  0  0
  197.4396  184.3566  156.2106 N   0  0  0  0  0  0  0  0  0  0  0  0
  198.6268  183.6055  155.8213 C   0  0  1  0  0  0  0  0  0  0  0  0
  198.2927  182.2161  155.3019 C   0  0  0  0  0  0  0  0  0  0  0  0
  198.7097  181.0962  156.0364 C   0  0  0  0  0  0  0  0  0  0  0  0
  198.5694  179.8034  155.5055 C   0  0  0  0  0  0  0  0  0  0  0  0
  197.9291  179.6238  154.2610 C   0  0  0  0  0  0  0  0  0  0  0  0
  197.4551  180.7420  153.5418 C   0  0  0  0  0  0  0  0  0  0  0  0
  197.6410  182.0397  154.0612 C   0  0  0  0  0  0  0  0  0  0  0  0
  199.1652  178.6311  156.2616 C   0  0  1  0  0  0  0  0  0  0  0  0
  200.5566  178.3452  155.8182 N   0  0  2  0  0  0  0  0  0  0  0  0
  201.0629  177.0523  156.3287 C   0  0  2  0  0  0  0  0  0  0  0  0
  201.5091  179.4485  156.0991 C   0  0  2  0  0  0  0  0  0  0  0  0
  198.0121  186.7542  156.2679 C   0  0  0  0  0  0  0  0  0  0  0  0
  198.6998  186.7489  154.9565 C   0  0  0  0  0  0  0  0  0  0  0  0
  198.4716  185.9179  154.0822 O   0  0  0  0  0  0  0  0  0  0  0  0
  199.6231  187.7313  154.7826 N   0  0  0  0  0  0  0  0  0  0  0  0
  200.3518  188.0898  153.6271 C   0  0  0  0  0  0  0  0  0  0  0  0
  200.6289  189.4557  153.4146 C   0  0  0  0  0  0  0  0  0  0  0  0
  201.3191  189.8783  152.2576 C   0  0  0  0  0  0  0  0  0  0  0  0
  201.7503  188.9252  151.3111 C   0  0  0  0  0  0  0  0  0  0  0  0
  201.4920  187.5560  151.5184 C   0  0  0  0  0  0  0  0  0  0  0  0
  200.8082  187.1359  152.6769 C   0  0  0  0  0  0  0  0  0  0  0  0
  197.1074  188.9372  158.6041 H   0  0  0  0  0  0  0  0  0  0  0  0
  196.2569  183.5566  158.3335 H   0  0  0  0  0  0  0  0  0  0  0  0
  195.1486  183.8222  160.5129 H   0  0  0  0  0  0  0  0  0  0  0  0
  194.9504  186.0665  161.5665 H   0  0  0  0  0  0  0  0  0  0  0  0
  195.9164  188.0510  160.4411 H   0  0  0  0  0  0  0  0  0  0  0  0
  196.6626  183.7678  156.4763 H   0  0  0  0  0  0  0  0  0  0  0  0
  199.1780  184.1241  155.0484 H   0  0  0  0  0  0  0  0  0  0  0  0
  199.2380  183.5102  156.7223 H   0  0  0  0  0  0  0  0  0  0  0  0
  199.2185  181.2418  156.9744 H   0  0  0  0  0  0  0  0  0  0  0  0
  197.8020  178.6347  153.8473 H   0  0  0  0  0  0  0  0  0  0  0  0
  196.9728  180.6046  152.5814 H   0  0  0  0  0  0  0  0  0  0  0  0
  197.3240  182.8978  153.4889 H   0  0  0  0  0  0  0  0  0  0  0  0
  199.1576  178.8484  157.3338 H   0  0  0  0  0  0  0  0  0  0  0  0
  198.5217  177.7589  156.1137 H   0  0  0  0  0  0  0  0  0  0  0  0
  201.1085  177.0506  157.4183 H   0  0  0  0  0  0  0  0  0  0  0  0
  202.0661  176.8645  155.9498 H   0  0  0  0  0  0  0  0  0  0  0  0
  200.4248  176.2286  156.0070 H   0  0  0  0  0  0  0  0  0  0  0  0
  201.5857  179.6294  157.1721 H   0  0  0  0  0  0  0  0  0  0  0  0
  201.2153  180.3799  155.6156 H   0  0  0  0  0  0  0  0  0  0  0  0
  202.5056  179.2156  155.7176 H   0  0  0  0  0  0  0  0  0  0  0  0
  199.6442  188.4374  155.5182 H   0  0  0  0  0  0  0  0  0  0  0  0
  200.2913  190.1953  154.1308 H   0  0  0  0  0  0  0  0  0  0  0  0
  201.5243  190.9309  152.1034 H   0  0  0  0  0  0  0  0  0  0  0  0
  202.2879  189.2429  150.4282 H   0  0  0  0  0  0  0  0  0  0  0  0
  201.8189  186.8195  150.7985 H   0  0  0  0  0  0  0  0  0  0  0  0
  200.6331  186.0837  152.8156 H   0  0  0  0  0  0  0  0  0  0  0  0
  200.5039  178.2570  154.8137 H   0  0  0  0  0  0  0  0  0  0  0  0
  1  2  2  0
  2  3  1  0
  2 23  1  0
  3  4  1  0
  3 33  1  0
  4  5  1  0
  4  9  2  0
  5  6  2  0
  5 10  1  0
  6  7  1  0
  6 34  1  0
  7  8  2  0
  7 35  1  0
  8  9  1  0
  8 36  1  0
  9 37  1  0
 10 11  1  0
 10 23  2  0
 11 12  1  0
 11 38  1  0
 12 13  1  0
 12 39  1  6
 12 40  1  0
 13 14  2  0
 13 18  1  0
 14 15  1  0
 14 41  1  0
 15 16  2  0
 15 19  1  0
 16 17  1  0
 16 42  1  0
 17 18  2  0
 17 43  1  0
 18 44  1  0
 19 20  1  0
 19 45  1  1
 19 46  1  0
 20 21  1  0
 20 22  1  0
 20 59  1  6
 21 47  1  1
 21 48  1  0
 21 49  1  0
 22 50  1  1
 22 51  1  0
 22 52  1  0
 23 24  1  0
 24 25  2  0
 24 26  1  0
 26 27  1  0
 26 53  1  0
 27 28  2  0
 27 32  1  0
 28 29  1  0
 28 54  1  0
 29 30  2  0
 29 55  1  0
 30 31  1  0
 30 56  1  0
 31 32  2  0
 31 57  1  0
 32 58  1  0
M  CHG  1  20   1
M  END
>  <s_epik_cmdline>  (1262) 
J2VwaWtfcHl0aG9uJywgJy1waCcsICc3LjAwMDAwMCcsICctcGh0JywgJzIuMDAwMDAwJywgJy1tcycsICcxNicsICctdG4nLCAnOCcsICctbWEnLCAnMjAwJywgJy1pbWFlJywgJzxpbmZpbGUubWFlPicsICctb21hZScsICc8b3V0ZmlsZS5tYWU+Jw==

>  <s_epik_input>  (1262) 
W2NIXTFbY0hdW2NIXVtjSF1bY0hdYzFbTkhdQyg9TyljKGMoPU8pW25IXTIpYyhjKGMyMylbY0hdW2NIXVtjSF1bY0hdMylbTkhdW0NIMl1jNFtjSF1jKFtjSF1bY0hdW2NIXTQpW0NIMl1OKFtDSDNdKVtDSDNd

>  <s_i_glide_gridfile>  (1262) 
ATP-Grid

>  <s_lp_Force_Field>  (1262) 
OPLS_2005

>  <s_lp_Variant>  (1262) 
rxn512c____EMOL477532____EMOL43362984____EMOL2873214-1

>  <s_lp_label>  (1262) 
2504_sdstereoexpander_1_neutralizer_1_epik_1_stereoizer_1

>  <s_m_source_file>  (1262) 
ATP-VSW-LIGPREP-002-in.maegz

>  <s_sd_BIOSOLVEIT.INFINISEE\_QUERY\_NAME>  (1262) 
Ref-Lig

>  <s_sd_BIOSOLVEIT.INFINISEE\_QUERY\_SMILES>  (1262) 
S(c1nc2c(cc1C[NH2+]Cc3ccc(cc3)C[NH+](C)C)cccc2)Cc4ccccc4

>  <s_sd_BIOSOLVEIT.INFINISEE\_REACTION\_NAME>  (1262) 
rxn512c

>  <s_sd_BIOSOLVEIT.INFINISEE\_REAGENT1\_NAME>  (1262) 
EMOL477532

>  <s_sd_BIOSOLVEIT.INFINISEE\_REAGENT1\_SMILES>  (1262) 
Nc1ccccc1

>  <s_sd_BIOSOLVEIT.INFINISEE\_REAGENT2\_NAME>  (1262) 
EMOL43362984

>  <s_sd_BIOSOLVEIT.INFINISEE\_REAGENT2\_SMILES>  (1262) 
ClC=1c2c(NC(=O)C1C(=O)O)cccc2

>  <s_sd_BIOSOLVEIT.INFINISEE\_REAGENT3\_NAME>  (1262) 
EMOL2873214

>  <s_sd_BIOSOLVEIT.INFINISEE\_REAGENT3\_SMILES>  (1262) 
N(Cc1cc(ccc1)CN)(C)C

>  <s_sd_BIOSOLVEIT.INFINISEE\_SPACE>  (1262) 
eXplore_7tr_2022-12

>  <s_vsw_compound_code>  (1262) 
80098

>  <s_vsw_variant>  (1262) 
80098-1

>  <r_epik_Charging_Adjusted_Penalty>  (1262) 
0.088195387458873606

>  <r_epik_Ionization_Penalty>  (1262) 
0.0441

>  <r_epik_Ionization_Penalty_Charging>  (1262) 
0.0441

>  <r_epik_Ionization_Penalty_Neutral>  (1262) 
0

>  <r_epik_State_Penalty>  (1262) 
0.0441

>  <r_i_docking_score>  (1262) 
-2.3205068949698302

>  <r_i_glide_ecoul>  (1262) 
-5.2878355979919398

>  <r_i_glide_eff_state_penalty>  (1262) 
0.0441

>  <r_i_glide_einternal>  (1262) 
1.10149669647217

>  <r_i_glide_emodel>  (1262) 
-44.779854622722098

>  <r_i_glide_energy>  (1262) 
-37.518018245697

>  <r_i_glide_erotb>  (1262) 
0.76045252336906599

>  <r_i_glide_esite>  (1262) 
-0.029767197897703199

>  <r_i_glide_evdw>  (1262) 
-32.230182647705099

>  <r_i_glide_gscore>  (1262) 
-2.36460689496983

>  <r_i_glide_hbond>  (1262) 
0

>  <r_i_glide_ligand_efficiency>  (1262) 
-0.072515840467807305

>  <r_i_glide_ligand_efficiency_ln>  (1262) 
-0.51962474841269202

>  <r_i_glide_ligand_efficiency_sa>  (1262) 
-0.23022344261994601

>  <r_i_glide_lipo>  (1262) 
-1.60989392871065

>  <r_i_glide_metal>  (1262) 
-0

>  <r_i_glide_rewards>  (1262) 
0.91928618035350096

>  <r_lp_Energy>  (1262) 
50.308509000000001

>  <r_qp_ACxDN^.5/SA>  (1262) 
0

>  <r_qp_CIQPlogS>  (1262) 
-6.0819999999999999

>  <r_qp_EA(eV)>  (1262) 
1.0309999999999999

>  <r_qp_FISA>  (1262) 
79.036000000000001

>  <r_qp_FOSA>  (1262) 
158.941

>  <r_qp_IP(eV)>  (1262) 
8.4879999999999995

>  <r_qp_Jm>  (1262) 
0.061904234494213603

>  <r_qp_PISA>  (1262) 
435.70699999999999

>  <r_qp_PSA>  (1262) 
79.215999999999994

>  <r_qp_PercentHumanOralAbsorption>  (1262) 
100

>  <r_qp_QPPCaco>  (1262) 
439.84899999999999

>  <r_qp_QPPMDCK>  (1262) 
225.25999999999999

>  <r_qp_QPlogBB>  (1262) 
-0.17699999999999999

>  <r_qp_QPlogHERG>  (1262) 
-6.6459999999999999

>  <r_qp_QPlogKhsa>  (1262) 
0.77100000000000002

>  <r_qp_QPlogKp>  (1262) 
-2.8319999999999999

>  <r_qp_QPlogPC16>  (1262) 
13.939

>  <r_qp_QPlogPo/w>  (1262) 
4.8090000000000002

>  <r_qp_QPlogPoct>  (1262) 
18.457999999999998

>  <r_qp_QPlogPw>  (1262) 
8.2230000000000008

>  <r_qp_QPlogS>  (1262) 
-4.0060000000000002

>  <r_qp_QPpolrz>  (1262) 
45.734000000000002

>  <r_qp_SASA>  (1262) 
673.68499999999995

>  <r_qp_SAamideO>  (1262) 
0

>  <r_qp_SAfluorine>  (1262) 
0

>  <r_qp_WPSA>  (1262) 
0

>  <r_qp_accptHB>  (1262) 
5

>  <r_qp_dip^2/V>  (1262) 
0.030834400000000001

>  <r_qp_dipole>  (1262) 
6.343

>  <r_qp_donorHB>  (1262) 
0

>  <r_qp_glob>  (1262) 
0.85722220000000005

>  <r_qp_mol_MW>  (1262) 
426.517

>  <r_qp_volume>  (1262) 
1304.9010000000001

>  <r_sd_BIOSOLVEIT.INFINISEE\_FTREES\_SIMILARITY>  (1262) 
0.91400000000000003

>  <r_sd_BIOSOLVEIT.LOGP>  (1262) 
3.0369999999999999

>  <r_sd_BIOSOLVEIT.MOLECULAR\_WEIGHT>  (1262) 
427.52499999999998

>  <r_sd_BIOSOLVEIT.TPSA>  (1262) 
78.430000000000007

>  <i_epik_Tot_Q>  (1262) 
1

>  <i_epik_Tot_abs_Q>  (1262) 
1

>  <i_f3d_flags>  (1262) 
0

>  <i_i_glide_confnum>  (1262) 
2

>  <i_i_glide_lignum>  (1262) 
1092

>  <i_i_glide_posenum>  (1262) 
1

>  <i_i_glide_rotatable_bonds>  (1262) 
8

>  <i_lp_mmshare_version>  (1262) 
65135

>  <i_m_ct_format>  (1262) 
2

>  <i_m_source_file_index>  (1262) 
2504

>  <i_qp_#NandO>  (1262) 
6

>  <i_qp_#acid>  (1262) 
0

>  <i_qp_#amide>  (1262) 
0

>  <i_qp_#amidine>  (1262) 
0

>  <i_qp_#amine>  (1262) 
1

>  <i_qp_#in34>  (1262) 
0

>  <i_qp_#in56>  (1262) 
22

>  <i_qp_#metab>  (1262) 
6

>  <i_qp_#nonHatm>  (1262) 
32

>  <i_qp_#noncon>  (1262) 
0

>  <i_qp_#ringatoms>  (1262) 
22

>  <i_qp_#rotor>  (1262) 
7

>  <i_qp_#rtvFG>  (1262) 
0

>  <i_qp_#stars>  (1262) 
0

>  <i_qp_CNS>  (1262) 
1

>  <i_qp_HumanOralAbsorption>  (1262) 
3

>  <i_qp_RuleOfFive>  (1262) 
0

>  <i_qp_RuleOfThree>  (1262) 
0

>  <i_sd_BIOSOLVEIT.INFINISEE\_RESULT\_RANK>  (1262) 
31166

>  <i_sd_version>  (1262) 
0

>  <b_lp_Chiralities_Consistent>  (1262) 
1

>  <b_sd_chiral_flag>  (1262) 
0

>  <canonical_id>  (1262) 
ATP-HTVS-C81E0B2D019D

>  <compound_code>  (1262) 
80098

>  <title>  (1262) 
rxn512c____EMOL477532____EMOL43362984____EMOL2873214

>  <variant>  (1262) 
80098-1

>  <source_file>  (1262) 
运行/运行/ATP-VSW/ATP-VSW-DOCK_HTVS_1-002_lib.maegz

>  <canonical_smiles>  (1262) 
C[NH+](C)Cc1cccc(CNc2c(C(=O)Nc3ccccc3)c(=O)[nH]c3ccccc23)c1

>  <scaffold>  (1262) 
O=C(Nc1ccccc1)c1c(NCc2ccccc2)c2ccccc2[nH]c1=O

>  <molecular_formula>  (1262) 
C26H27N4O2+

$$$$
ATP-HTVS-C853ACB1A86B
     RDKit          3D

 73 76  0  0  0  0  0  0  0  0999 V2000
  198.9658  190.9199  158.9881 F   0  0  0  0  0  0  0  0  0  0  0  0
  198.2097  189.8486  159.3120 C   0  0  0  0  0  0  0  0  0  0  0  0
  198.4989  188.5875  158.7650 C   0  0  0  0  0  0  0  0  0  0  0  0
  197.7363  187.4494  159.1153 C   0  0  0  0  0  0  0  0  0  0  0  0
  196.6309  187.5900  160.0088 C   0  0  0  0  0  0  0  0  0  0  0  0
  195.8359  186.5564  160.3484 N   0  0  0  0  0  0  0  0  0  0  0  0
  196.0956  185.3442  159.8246 C   0  0  0  0  0  0  0  0  0  0  0  0
  197.1756  185.0813  158.9498 C   0  0  0  0  0  0  0  0  0  0  0  0
  198.0343  186.1665  158.5843 C   0  0  0  0  0  0  0  0  0  0  0  0
  199.1290  186.0382  157.6688 N   0  0  0  0  0  0  0  0  0  0  0  0
  200.4974  186.0635  158.0408 C   0  0  0  0  0  0  0  0  0  0  0  0
  201.5582  185.8430  157.1140 C   0  0  0  0  0  0  0  0  0  0  0  0
  202.8993  185.9167  157.5270 C   0  0  0  0  0  0  0  0  0  0  0  0
  203.2200  186.2090  158.8645 C   0  0  0  0  0  0  0  0  0  0  0  0
  202.1879  186.4159  159.7955 C   0  0  0  0  0  0  0  0  0  0  0  0
  200.8467  186.3313  159.3902 C   0  0  0  0  0  0  0  0  0  0  0  0
  198.7486  185.5762  156.3176 C   0  0  1  0  0  0  0  0  0  0  0  0
  197.6348  186.4571  155.6813 C   0  0  1  0  0  0  0  0  0  0  0  0
  197.1495  185.8263  154.4477 N   0  0  2  0  0  0  0  0  0  0  0  0
  197.3545  183.6728  158.4639 C   0  0  0  0  0  0  0  0  0  0  0  0
  198.4332  183.0995  158.6156 O   0  0  0  0  0  0  0  0  0  0  0  0
  196.2898  183.1192  157.8467 N   0  0  0  0  0  0  0  0  0  0  0  0
  196.2409  181.7972  157.2115 C   0  0  1  0  0  0  0  0  0  0  0  0
  197.3494  181.5004  156.1969 C   0  0  0  0  0  0  0  0  0  0  0  0
  197.9479  180.2245  156.1496 C   0  0  0  0  0  0  0  0  0  0  0  0
  199.0263  179.9589  155.2767 C   0  0  0  0  0  0  0  0  0  0  0  0
  199.5282  180.9966  154.4624 C   0  0  0  0  0  0  0  0  0  0  0  0
  198.9151  182.2678  154.4891 C   0  0  0  0  0  0  0  0  0  0  0  0
  197.7917  182.4984  155.3117 C   0  0  0  0  0  0  0  0  0  0  0  0
  199.6257  178.5598  155.2334 C   0  0  1  0  0  0  0  0  0  0  0  0
  200.4320  178.2604  156.4516 N   0  0  2  0  0  0  0  0  0  0  0  0
  201.5925  179.1916  156.6746 C   0  0  1  0  0  0  0  0  0  0  0  0
  202.6005  179.3254  155.4678 C   0  0  2  0  0  0  0  0  0  0  0  0
  200.7352  176.8043  156.6417 C   0  0  1  0  0  0  0  0  0  0  0  0
  201.7284  176.1893  155.6112 C   0  0  2  0  0  0  0  0  0  0  0  0
  196.3573  188.8644  160.5399 C   0  0  0  0  0  0  0  0  0  0  0  0
  197.1382  189.9828  160.2083 C   0  0  0  0  0  0  0  0  0  0  0  0
  196.4505  186.4393  154.0497 H   0  0  0  0  0  0  0  0  0  0  0  0
  196.7257  184.9281  154.6453 H   0  0  0  0  0  0  0  0  0  0  0  0
  199.3331  188.5273  158.0800 H   0  0  0  0  0  0  0  0  0  0  0  0
  195.4352  184.5412  160.1367 H   0  0  0  0  0  0  0  0  0  0  0  0
  201.4067  185.6261  156.0677 H   0  0  0  0  0  0  0  0  0  0  0  0
  203.6799  185.7545  156.7977 H   0  0  0  0  0  0  0  0  0  0  0  0
  204.2523  186.2720  159.1692 H   0  0  0  0  0  0  0  0  0  0  0  0
  202.4165  186.6524  160.8250 H   0  0  0  0  0  0  0  0  0  0  0  0
  200.0844  186.5034  160.1361 H   0  0  0  0  0  0  0  0  0  0  0  0
  199.5633  185.5502  155.5775 H   0  0  0  0  0  0  0  0  0  0  0  0
  198.4331  184.5590  156.4324 H   0  0  0  0  0  0  0  0  0  0  0  0
  196.7654  186.5823  156.3376 H   0  0  0  0  0  0  0  0  0  0  0  0
  198.0190  187.4537  155.4418 H   0  0  0  0  0  0  0  0  0  0  0  0
  195.4380  183.6584  157.7821 H   0  0  0  0  0  0  0  0  0  0  0  0
  196.2593  181.0659  158.0139 H   0  0  0  0  0  0  0  0  0  0  0  0
  195.2872  181.6922  156.6927 H   0  0  0  0  0  0  0  0  0  0  0  0
  197.5736  179.4361  156.7898 H   0  0  0  0  0  0  0  0  0  0  0  0
  200.3582  180.8300  153.7830 H   0  0  0  0  0  0  0  0  0  0  0  0
  199.3117  183.0688  153.8823 H   0  0  0  0  0  0  0  0  0  0  0  0
  197.2934  183.4531  155.3289 H   0  0  0  0  0  0  0  0  0  0  0  0
  198.8048  177.8430  155.1237 H   0  0  0  0  0  0  0  0  0  0  0  0
  200.2336  178.4579  154.3334 H   0  0  0  0  0  0  0  0  0  0  0  0
  201.1787  180.1702  156.9431 H   0  0  0  0  0  0  0  0  0  0  0  0
  202.1164  178.8796  157.5813 H   0  0  0  0  0  0  0  0  0  0  0  0
  203.3292  180.1266  155.7178 H   0  0  0  0  0  0  0  0  0  0  0  0
  202.0706  179.6990  154.5695 H   0  0  0  0  0  0  0  0  0  0  0  0
  203.1018  178.4261  155.2325 H   0  0  0  0  0  0  0  0  0  0  0  0
  201.1533  176.6750  157.6411 H   0  0  0  0  0  0  0  0  0  0  0  0
  199.7848  176.2486  156.6442 H   0  0  0  0  0  0  0  0  0  0  0  0
  201.7733  175.0967  155.7744 H   0  0  0  0  0  0  0  0  0  0  0  0
  202.7005  176.5962  155.6941 H   0  0  0  0  0  0  0  0  0  0  0  0
  201.3399  176.3261  154.5894 H   0  0  0  0  0  0  0  0  0  0  0  0
  195.5270  188.9742  161.2188 H   0  0  0  0  0  0  0  0  0  0  0  0
  196.9184  190.9471  160.6385 H   0  0  0  0  0  0  0  0  0  0  0  0
  197.8963  185.7015  153.7729 H   0  0  0  0  0  0  0  0  0  0  0  0
  199.7799  178.4575  157.2043 H   0  0  0  0  0  0  0  0  0  0  0  0
  1  2  1  0
  2  3  1  0
  2 37  2  0
  3  4  2  0
  3 40  1  0
  4  5  1  0
  4  9  1  0
  5  6  1  0
  5 36  2  0
  6  7  2  0
  7  8  1  0
  7 41  1  0
  8  9  2  0
  8 20  1  0
  9 10  1  0
 10 11  1  0
 10 17  1  0
 11 12  2  0
 11 16  1  0
 12 13  1  0
 12 42  1  0
 13 14  2  0
 13 43  1  0
 14 15  1  0
 14 44  1  0
 15 16  2  0
 15 45  1  0
 16 46  1  0
 17 18  1  0
 17 47  1  6
 17 48  1  0
 18 19  1  0
 18 49  1  1
 18 50  1  0
 19 38  1  6
 19 39  1  0
 19 72  1  0
 20 21  2  0
 20 22  1  0
 22 23  1  0
 22 51  1  0
 23 24  1  0
 23 52  1  1
 23 53  1  0
 24 25  2  0
 24 29  1  0
 25 26  1  0
 25 54  1  0
 26 27  2  0
 26 30  1  0
 27 28  1  0
 27 55  1  0
 28 29  2  0
 28 56  1  0
 29 57  1  0
 30 31  1  0
 30 58  1  6
 30 59  1  0
 31 32  1  0
 31 34  1  0
 31 73  1  1
 32 33  1  0
 32 60  1  1
 32 61  1  0
 33 62  1  1
 33 63  1  0
 33 64  1  0
 34 35  1  0
 34 65  1  1
 34 66  1  0
 35 67  1  1
 35 68  1  0
 35 69  1  0
 36 37  1  0
 36 70  1  0
 37 71  1  0
M  CHG  2  19   1  31   1
M  END
>  <s_epik_cmdline>  (1263) 
J2VwaWtfcHl0aG9uJywgJy1waCcsICc3LjAwMDAwMCcsICctcGh0JywgJzIuMDAwMDAwJywgJy1tcycsICcxNicsICctdG4nLCAnOCcsICctbWEnLCAnMjAwJywgJy1pbWFlJywgJzxpbmZpbGUubWFlPicsICctb21hZScsICc8b3V0ZmlsZS5tYWU+Jw==

>  <s_epik_input>  (1263) 
W2NIXTFbY0hdW2NIXVtjSF1bY0hdYzFOKFtDSDJdW0NIMl1bTkgyXSljMmMoW2NIXW5jKGMyMylbY0hdW2NIXWMoRilbY0hdMylDKD1PKVtOSF1bQ0gyXWM0W2NIXWMoW2NIXVtjSF1bY0hdNClbQ0gyXU4oW0NIMl1bQ0gzXSlbQ0gyXVtDSDNd

>  <s_i_glide_gridfile>  (1263) 
ATP-Grid

>  <s_lp_Force_Field>  (1263) 
OPLS_2005

>  <s_lp_Variant>  (1263) 
rxn512c____EMOL530647____EMOL36725275____EMOL44153840-1

>  <s_lp_label>  (1263) 
3026_sdstereoexpander_1_neutralizer_1_epik_1_stereoizer_1

>  <s_m_source_file>  (1263) 
ATP-VSW-LIGPREP-002-in.maegz

>  <s_sd_BIOSOLVEIT.INFINISEE\_QUERY\_NAME>  (1263) 
Ref-Lig

>  <s_sd_BIOSOLVEIT.INFINISEE\_QUERY\_SMILES>  (1263) 
S(c1nc2c(cc1C[NH2+]Cc3ccc(cc3)C[NH+](C)C)cccc2)Cc4ccccc4

>  <s_sd_BIOSOLVEIT.INFINISEE\_REACTION\_NAME>  (1263) 
rxn512c

>  <s_sd_BIOSOLVEIT.INFINISEE\_REAGENT1\_NAME>  (1263) 
EMOL530647

>  <s_sd_BIOSOLVEIT.INFINISEE\_REAGENT1\_SMILES>  (1263) 
N(c1ccccc1)CCN

>  <s_sd_BIOSOLVEIT.INFINISEE\_REAGENT2\_NAME>  (1263) 
EMOL36725275

>  <s_sd_BIOSOLVEIT.INFINISEE\_REAGENT2\_SMILES>  (1263) 
Clc1c2c(ncc1C(=O)O)ccc(F)c2

>  <s_sd_BIOSOLVEIT.INFINISEE\_REAGENT3\_NAME>  (1263) 
EMOL44153840

>  <s_sd_BIOSOLVEIT.INFINISEE\_REAGENT3\_SMILES>  (1263) 
N(Cc1cc(ccc1)CN)(CC)CC

>  <s_sd_BIOSOLVEIT.INFINISEE\_SPACE>  (1263) 
eXplore_7tr_2022-12

>  <s_vsw_compound_code>  (1263) 
96802

>  <s_vsw_variant>  (1263) 
96802-1

>  <r_epik_Charging_Adjusted_Penalty>  (1263) 
0.037804644126671297

>  <r_epik_Ionization_Penalty>  (1263) 
0.019699999999999999

>  <r_epik_Ionization_Penalty_Charging>  (1263) 
0.019400000000000001

>  <r_epik_Ionization_Penalty_Neutral>  (1263) 
0.00029999999999999997

>  <r_epik_State_Penalty>  (1263) 
0.0184

>  <r_i_docking_score>  (1263) 
-3.9814317449717298

>  <r_i_glide_ecoul>  (1263) 
-13.0130662918091

>  <r_i_glide_eff_state_penalty>  (1263) 
0.0184

>  <r_i_glide_einternal>  (1263) 
6.2848477363586399

>  <r_i_glide_emodel>  (1263) 
-58.987251345789403

>  <r_i_glide_energy>  (1263) 
-45.201508522033699

>  <r_i_glide_erotb>  (1263) 
0.73060506759071597

>  <r_i_glide_esite>  (1263) 
-0.078636988834586405

>  <r_i_glide_evdw>  (1263) 
-32.188442230224602

>  <r_i_glide_gscore>  (1263) 
-3.99983174497173

>  <r_i_glide_hbond>  (1263) 
0

>  <r_i_glide_ligand_efficiency>  (1263) 
-0.107606263377614

>  <r_i_glide_ligand_efficiency_ln>  (1263) 
-0.86347920748137796

>  <r_i_glide_ligand_efficiency_sa>  (1263) 
-0.35856794176926898

>  <r_i_glide_lipo>  (1263) 
-1.0516360556333499

>  <r_i_glide_metal>  (1263) 
-0

>  <r_i_glide_rewards>  (1263) 
-0.0387817128119178

>  <r_lp_Energy>  (1263) 
38.789600999999998

>  <r_qp_ACxDN^.5/SA>  (1263) 
0.0148165

>  <r_qp_CIQPlogS>  (1263) 
-5.6360000000000001

>  <r_qp_EA(eV)>  (1263) 
1.5509999999999999

>  <r_qp_FISA>  (1263) 
94.188000000000002

>  <r_qp_FOSA>  (1263) 
290.22699999999998

>  <r_qp_IP(eV)>  (1263) 
8.173

>  <r_qp_Jm>  (1263) 
0.00048583637228843702

>  <r_qp_PISA>  (1263) 
386.983

>  <r_qp_PSA>  (1263) 
74.117000000000004

>  <r_qp_PercentHumanOralAbsorption>  (1263) 
90.039000000000001

>  <r_qp_QPPCaco>  (1263) 
78.798000000000002

>  <r_qp_QPPMDCK>  (1263) 
70.195999999999998

>  <r_qp_QPlogBB>  (1263) 
-0.21199999999999999

>  <r_qp_QPlogHERG>  (1263) 
-7.9539999999999997

>  <r_qp_QPlogKhsa>  (1263) 
0.95599999999999996

>  <r_qp_QPlogKp>  (1263) 
-4.8650000000000002

>  <r_qp_QPlogPC16>  (1263) 
16.742999999999999

>  <r_qp_QPlogPo/w>  (1263) 
4.9779999999999998

>  <r_qp_QPlogPoct>  (1263) 
26.423999999999999

>  <r_qp_QPlogPw>  (1263) 
13.619999999999999

>  <r_qp_QPlogS>  (1263) 
-4.1470000000000002

>  <r_qp_QPpolrz>  (1263) 
53.685000000000002

>  <r_qp_SASA>  (1263) 
818.30200000000002

>  <r_qp_SAamideO>  (1263) 
0

>  <r_qp_SAfluorine>  (1263) 
46.902999999999999

>  <r_qp_WPSA>  (1263) 
46.902999999999999

>  <r_qp_accptHB>  (1263) 
7

>  <r_qp_dip^2/V>  (1263) 
0.0141079

>  <r_qp_dipole>  (1263) 
4.7439999999999998

>  <r_qp_donorHB>  (1263) 
3

>  <r_qp_glob>  (1263) 
0.80692489999999994

>  <r_qp_mol_MW>  (1263) 
499.63

>  <r_qp_volume>  (1263) 
1595.4100000000001

>  <r_sd_BIOSOLVEIT.INFINISEE\_FTREES\_SIMILARITY>  (1263) 
0.90200000000000002

>  <r_sd_BIOSOLVEIT.LOGP>  (1263) 
3.1086

>  <r_sd_BIOSOLVEIT.MOLECULAR\_WEIGHT>  (1263) 
501.64600000000002

>  <r_sd_BIOSOLVEIT.TPSA>  (1263) 
77.310000000000002

>  <i_epik_Tot_Q>  (1263) 
2

>  <i_epik_Tot_abs_Q>  (1263) 
2

>  <i_f3d_flags>  (1263) 
0

>  <i_i_glide_confnum>  (1263) 
10

>  <i_i_glide_lignum>  (1263) 
92

>  <i_i_glide_posenum>  (1263) 
16

>  <i_i_glide_rotatable_bonds>  (1263) 
12

>  <i_lp_mmshare_version>  (1263) 
65135

>  <i_m_ct_format>  (1263) 
2

>  <i_m_source_file_index>  (1263) 
3026

>  <i_qp_#NandO>  (1263) 
6

>  <i_qp_#acid>  (1263) 
0

>  <i_qp_#amide>  (1263) 
0

>  <i_qp_#amidine>  (1263) 
0

>  <i_qp_#amine>  (1263) 
2

>  <i_qp_#in34>  (1263) 
0

>  <i_qp_#in56>  (1263) 
22

>  <i_qp_#metab>  (1263) 
8

>  <i_qp_#nonHatm>  (1263) 
37

>  <i_qp_#noncon>  (1263) 
0

>  <i_qp_#ringatoms>  (1263) 
22

>  <i_qp_#rotor>  (1263) 
12

>  <i_qp_#rtvFG>  (1263) 
0

>  <i_qp_#stars>  (1263) 
0

>  <i_qp_CNS>  (1263) 
0

>  <i_qp_HumanOralAbsorption>  (1263) 
3

>  <i_qp_RuleOfFive>  (1263) 
0

>  <i_qp_RuleOfThree>  (1263) 
1

>  <i_sd_BIOSOLVEIT.INFINISEE\_RESULT\_RANK>  (1263) 
88897

>  <i_sd_version>  (1263) 
0

>  <b_lp_Chiralities_Consistent>  (1263) 
1

>  <b_sd_chiral_flag>  (1263) 
0

>  <canonical_id>  (1263) 
ATP-HTVS-C853ACB1A86B

>  <compound_code>  (1263) 
96802

>  <title>  (1263) 
rxn512c____EMOL530647____EMOL36725275____EMOL44153840

>  <variant>  (1263) 
96802-1

>  <source_file>  (1263) 
运行/运行/ATP-VSW/ATP-VSW-DOCK_HTVS_1-003_lib/ATP-VSW-DOCK_HTVS_1-003_lib.mae

>  <canonical_smiles>  (1263) 
CC[NH+](CC)Cc1cccc(CNC(=O)c2cnc3ccc(F)cc3c2N(CC[NH3+])c2ccccc2)c1

>  <scaffold>  (1263) 
O=C(NCc1ccccc1)c1cnc2ccccc2c1Nc1ccccc1

>  <molecular_formula>  (1263) 
C30H36FN5O+2

$$$$
ATP-HTVS-C88FA91C4E8E
     RDKit          3D

 61 64  0  0  0  0  0  0  0  0999 V2000
  198.1396  187.0504  156.6300 O   0  0  0  0  0  0  0  0  0  0  0  0
  197.9916  186.3481  157.6440 C   0  0  0  0  0  0  0  0  0  0  0  0
  196.9503  186.5252  158.5003 N   0  0  0  0  0  0  0  0  0  0  0  0
  196.6104  185.6000  159.6346 C   0  0  1  0  0  0  0  0  0  0  0  0
  195.8154  186.2082  160.7161 C   0  0  0  0  0  0  0  0  0  0  0  0
  195.1706  186.6823  161.5689 N   0  0  0  0  0  0  0  0  0  0  0  0
  195.9654  184.2883  159.1592 C   0  0  0  0  0  0  0  0  0  0  0  0
  194.5666  184.1962  158.9538 C   0  0  0  0  0  0  0  0  0  0  0  0
  193.9666  182.9764  158.5528 C   0  0  0  0  0  0  0  0  0  0  0  0
  194.7698  181.8362  158.3558 C   0  0  0  0  0  0  0  0  0  0  0  0
  196.1649  181.9180  158.5434 C   0  0  0  0  0  0  0  0  0  0  0  0
  196.7532  183.1294  158.9624 C   0  0  0  0  0  0  0  0  0  0  0  0
  196.0317  187.6491  158.2256 C   0  0  2  0  0  0  0  0  0  0  0  0
  198.9734  185.2544  157.8906 C   0  0  0  0  0  0  0  0  0  0  0  0
  199.5676  185.2314  159.1540 N   0  0  0  0  0  0  0  0  0  0  0  0
  200.4329  184.1435  159.2673 C   0  0  0  0  0  0  0  0  0  0  0  0
  200.3946  183.4808  158.0088 C   0  0  0  0  0  0  0  0  0  0  0  0
  201.1830  182.2931  157.9076 C   0  0  0  0  0  0  0  0  0  0  0  0
  201.9523  181.8290  158.9939 C   0  0  0  0  0  0  0  0  0  0  0  0
  201.9371  182.5100  160.2226 C   0  0  0  0  0  0  0  0  0  0  0  0
  201.1763  183.6869  160.3539 C   0  0  0  0  0  0  0  0  0  0  0  0
  199.4803  184.1962  157.1629 C   0  0  0  0  0  0  0  0  0  0  0  0
  199.1327  183.6990  155.8793 N   0  0  0  0  0  0  0  0  0  0  0  0
  197.8571  183.9791  155.2395 C   0  0  1  0  0  0  0  0  0  0  0  0
  197.9960  184.4352  153.8012 C   0  0  0  0  0  0  0  0  0  0  0  0
  198.8969  185.4599  153.4268 C   0  0  0  0  0  0  0  0  0  0  0  0
  198.9441  185.8953  152.0823 C   0  0  0  0  0  0  0  0  0  0  0  0
  198.0893  185.3149  151.1074 C   0  0  0  0  0  0  0  0  0  0  0  0
  198.1919  185.7430  149.7730 N   0  0  0  0  0  0  0  0  0  0  0  0
  197.3572  185.1639  148.7305 C   0  0  1  0  0  0  0  0  0  0  0  0
  198.0207  185.1882  147.3459 C   0  0  1  0  0  0  0  0  0  0  0  0
  197.1047  184.6499  146.4197 O   0  0  0  0  0  0  0  0  0  0  0  0
  197.1770  184.3101  151.5046 C   0  0  0  0  0  0  0  0  0  0  0  0
  197.1452  183.8712  152.8394 C   0  0  0  0  0  0  0  0  0  0  0  0
  197.4928  185.3190  160.2017 H   0  0  0  0  0  0  0  0  0  0  0  0
  193.9245  185.0358  159.1113 H   0  0  0  0  0  0  0  0  0  0  0  0
  192.8992  182.9125  158.3958 H   0  0  0  0  0  0  0  0  0  0  0  0
  194.3150  180.9008  158.0554 H   0  0  0  0  0  0  0  0  0  0  0  0
  196.7933  181.0494  158.3798 H   0  0  0  0  0  0  0  0  0  0  0  0
  197.8183  183.1389  159.1390 H   0  0  0  0  0  0  0  0  0  0  0  0
  195.2513  187.3438  157.5226 H   0  0  0  0  0  0  0  0  0  0  0  0
  196.5593  188.4978  157.7730 H   0  0  0  0  0  0  0  0  0  0  0  0
  195.5593  188.0533  159.1198 H   0  0  0  0  0  0  0  0  0  0  0  0
  199.4022  185.9160  159.8642 H   0  0  0  0  0  0  0  0  0  0  0  0
  201.1818  181.7321  156.9786 H   0  0  0  0  0  0  0  0  0  0  0  0
  202.5769  180.9467  158.8771 H   0  0  0  0  0  0  0  0  0  0  0  0
  202.5220  182.1466  161.0643 H   0  0  0  0  0  0  0  0  0  0  0  0
  201.1228  184.1812  161.3112 H   0  0  0  0  0  0  0  0  0  0  0  0
  199.5375  182.8029  155.6259 H   0  0  0  0  0  0  0  0  0  0  0  0
  197.2619  183.0626  155.2695 H   0  0  0  0  0  0  0  0  0  0  0  0
  197.2524  184.7359  155.7388 H   0  0  0  0  0  0  0  0  0  0  0  0
  199.5338  185.9325  154.1728 H   0  0  0  0  0  0  0  0  0  0  0  0
  199.6340  186.6841  151.7981 H   0  0  0  0  0  0  0  0  0  0  0  0
  198.9108  186.4126  149.5225 H   0  0  0  0  0  0  0  0  0  0  0  0
  197.1402  184.1141  148.9457 H   0  0  0  0  0  0  0  0  0  0  0  0
  196.4055  185.7047  148.7180 H   0  0  0  0  0  0  0  0  0  0  0  0
  198.3172  186.1906  147.0201 H   0  0  0  0  0  0  0  0  0  0  0  0
  198.9101  184.5568  147.3740 H   0  0  0  0  0  0  0  0  0  0  0  0
  196.2746  185.0949  146.5385 H   0  0  0  0  0  0  0  0  0  0  0  0
  196.4736  183.8418  150.8305 H   0  0  0  0  0  0  0  0  0  0  0  0
  196.4383  183.1192  153.1439 H   0  0  0  0  0  0  0  0  0  0  0  0
  1  2  2  0
  2  3  1  0
  2 14  1  0
  3  4  1  0
  3 13  1  0
  4  5  1  0
  4  7  1  0
  4 35  1  1
  5  6  3  0
  7  8  2  0
  7 12  1  0
  8  9  1  0
  8 36  1  0
  9 10  2  0
  9 37  1  0
 10 11  1  0
 10 38  1  0
 11 12  2  0
 11 39  1  0
 12 40  1  0
 13 41  1  6
 13 42  1  0
 13 43  1  0
 14 15  1  0
 14 22  2  0
 15 16  1  0
 15 44  1  0
 16 17  1  0
 16 21  2  0
 17 18  2  0
 17 22  1  0
 18 19  1  0
 18 45  1  0
 19 20  2  0
 19 46  1  0
 20 21  1  0
 20 47  1  0
 21 48  1  0
 22 23  1  0
 23 24  1  0
 23 49  1  0
 24 25  1  0
 24 50  1  6
 24 51  1  0
 25 26  1  0
 25 34  2  0
 26 27  2  0
 26 52  1  0
 27 28  1  0
 27 53  1  0
 28 29  1  0
 28 33  2  0
 29 30  1  0
 29 54  1  0
 30 31  1  0
 30 55  1  1
 30 56  1  0
 31 32  1  0
 31 57  1  6
 31 58  1  0
 32 59  1  0
 33 34  1  0
 33 60  1  0
 34 61  1  0
M  END
>  <s_epik_cmdline>  (1264) 
J2VwaWtfcHl0aG9uJywgJy1waCcsICc3LjAwMDAwMCcsICctcGh0JywgJzIuMDAwMDAwJywgJy1tcycsICcxNicsICctdG4nLCAnOCcsICctbWEnLCAnMjAwJywgJy1pbWFlJywgJzxpbmZpbGUubWFlPicsICctb21hZScsICc8b3V0ZmlsZS5tYWU+Jw==

>  <s_epik_input>  (1264) 
W2NIXTFbY0hdW2NIXVtjSF1bY0hdYzFbQ0BIXShDI04pTihbQ0gzXSlDKD1PKWMoW25IXTIpYyhjKGMyMylbY0hdW2NIXVtjSF1bY0hdMylbTkhdW0NIMl1jNFtjSF1bY0hdYyhbY0hdW2NIXTQpW05IXVtDSDJdW0NIMl1bT0hd

>  <s_i_glide_gridfile>  (1264) 
ATP-Grid

>  <s_lp_Force_Field>  (1264) 
OPLS_2005

>  <s_lp_Variant>  (1264) 
rxn512b____EMOL24630243____EMOL719673____EMOL324170366-1

>  <s_lp_label>  (1264) 
2351_sdstereoexpander_1_neutralizer_1_epik_1_stereoizer_1

>  <s_m_source_file>  (1264) 
ATP-VSW-LIGPREP-001-in.maegz

>  <s_sd_BIOSOLVEIT.INFINISEE\_QUERY\_NAME>  (1264) 
Ref-Lig

>  <s_sd_BIOSOLVEIT.INFINISEE\_QUERY\_SMILES>  (1264) 
S(c1nc2c(cc1C[NH2+]Cc3ccc(cc3)C[NH+](C)C)cccc2)Cc4ccccc4

>  <s_sd_BIOSOLVEIT.INFINISEE\_REACTION\_NAME>  (1264) 
rxn512b

>  <s_sd_BIOSOLVEIT.INFINISEE\_REAGENT1\_NAME>  (1264) 
EMOL24630243

>  <s_sd_BIOSOLVEIT.INFINISEE\_REAGENT1\_SMILES>  (1264) 
N#CC(NC)c1ccccc1

>  <s_sd_BIOSOLVEIT.INFINISEE\_REAGENT2\_NAME>  (1264) 
EMOL719673

>  <s_sd_BIOSOLVEIT.INFINISEE\_REAGENT2\_SMILES>  (1264) 
BrC=1c2c(NC1C(=O)O)cccc2

>  <s_sd_BIOSOLVEIT.INFINISEE\_REAGENT3\_NAME>  (1264) 
EMOL324170366

>  <s_sd_BIOSOLVEIT.INFINISEE\_REAGENT3\_SMILES>  (1264) 
OCCNc1ccc(cc1)CN

>  <s_sd_BIOSOLVEIT.INFINISEE\_SPACE>  (1264) 
eXplore_7tr_2022-12

>  <s_vsw_compound_code>  (1264) 
75201

>  <s_vsw_variant>  (1264) 
75201-1

>  <r_epik_Charging_Adjusted_Penalty>  (1264) 
0.0079056630964256108

>  <r_epik_Ionization_Penalty>  (1264) 
0.0080000000000000002

>  <r_epik_Ionization_Penalty_Charging>  (1264) 
0

>  <r_epik_Ionization_Penalty_Neutral>  (1264) 
0.0080000000000000002

>  <r_epik_State_Penalty>  (1264) 
0.0079000000000000008

>  <r_i_docking_score>  (1264) 
-4.86911471981752

>  <r_i_glide_ecoul>  (1264) 
-4.8642730712890598

>  <r_i_glide_eff_state_penalty>  (1264) 
0.0079000000000000008

>  <r_i_glide_einternal>  (1264) 
7.39803171157837

>  <r_i_glide_emodel>  (1264) 
-55.290613209454499

>  <r_i_glide_energy>  (1264) 
-45.389869689941399

>  <r_i_glide_erotb>  (1264) 
0.87831780953562399

>  <r_i_glide_esite>  (1264) 
-3.49727680815563e-05

>  <r_i_glide_evdw>  (1264) 
-40.525596618652301

>  <r_i_glide_gscore>  (1264) 
-4.8770147198175202

>  <r_i_glide_hbond>  (1264) 
-0.32000000000000001

>  <r_i_glide_ligand_efficiency>  (1264) 
-0.14320925646522101

>  <r_i_glide_ligand_efficiency_ln>  (1264) 
-1.07572401564951

>  <r_i_glide_ligand_efficiency_sa>  (1264) 
-0.46394239675156201

>  <r_i_glide_lipo>  (1264) 
-1.95143574392039

>  <r_i_glide_metal>  (1264) 
-0

>  <r_i_glide_rewards>  (1264) 
-0.72794102103869496

>  <r_lp_Energy>  (1264) 
33.960012999999996

>  <r_qp_ACxDN^.5/SA>  (1264) 
0.016274500000000001

>  <r_qp_CIQPlogS>  (1264) 
-6.6319999999999997

>  <r_qp_EA(eV)>  (1264) 
0.25600000000000001

>  <r_qp_FISA>  (1264) 
153.78899999999999

>  <r_qp_FOSA>  (1264) 
183.911

>  <r_qp_IP(eV)>  (1264) 
7.8049999999999997

>  <r_qp_Jm>  (1264) 
0.00026677212616226301

>  <r_qp_PISA>  (1264) 
428.57499999999999

>  <r_qp_PSA>  (1264) 
105.351

>  <r_qp_PercentHumanOralAbsorption>  (1264) 
83.843000000000004

>  <r_qp_QPPCaco>  (1264) 
85.984999999999999

>  <r_qp_QPPMDCK>  (1264) 
38.588999999999999

>  <r_qp_QPlogBB>  (1264) 
-1.3089999999999999

>  <r_qp_QPlogHERG>  (1264) 
-7.5640000000000001

>  <r_qp_QPlogKhsa>  (1264) 
0.50700000000000001

>  <r_qp_QPlogKp>  (1264) 
-3.851

>  <r_qp_QPlogPC16>  (1264) 
16.268999999999998

>  <r_qp_QPlogPo/w>  (1264) 
3.8039999999999998

>  <r_qp_QPlogPoct>  (1264) 
24.951000000000001

>  <r_qp_QPlogPw>  (1264) 
14.584

>  <r_qp_QPlogS>  (1264) 
-5.3799999999999999

>  <r_qp_QPpolrz>  (1264) 
47.82

>  <r_qp_SASA>  (1264) 
766.27599999999995

>  <r_qp_SAamideO>  (1264) 
0

>  <r_qp_SAfluorine>  (1264) 
0

>  <r_qp_WPSA>  (1264) 
0

>  <r_qp_accptHB>  (1264) 
7.2000000000000002

>  <r_qp_dip^2/V>  (1264) 
0.044881799999999999

>  <r_qp_dipole>  (1264) 
7.9909999999999997

>  <r_qp_donorHB>  (1264) 
3

>  <r_qp_glob>  (1264) 
0.79841260000000003

>  <r_qp_mol_MW>  (1264) 
453.54300000000001

>  <r_qp_volume>  (1264) 
1422.8889999999999

>  <r_sd_BIOSOLVEIT.INFINISEE\_FTREES\_SIMILARITY>  (1264) 
0.92000000000000004

>  <r_sd_BIOSOLVEIT.LOGP>  (1264) 
4.5210800000000004

>  <r_sd_BIOSOLVEIT.MOLECULAR\_WEIGHT>  (1264) 
453.54300000000001

>  <r_sd_BIOSOLVEIT.TPSA>  (1264) 
104.18000000000001

>  <i_epik_Tot_Q>  (1264) 
0

>  <i_epik_Tot_abs_Q>  (1264) 
0

>  <i_f3d_flags>  (1264) 
0

>  <i_i_glide_confnum>  (1264) 
15

>  <i_i_glide_lignum>  (1264) 
848

>  <i_i_glide_posenum>  (1264) 
15

>  <i_i_glide_rotatable_bonds>  (1264) 
11

>  <i_lp_mmshare_version>  (1264) 
65135

>  <i_m_ct_format>  (1264) 
2

>  <i_m_source_file_index>  (1264) 
2351

>  <i_qp_#NandO>  (1264) 
7

>  <i_qp_#acid>  (1264) 
0

>  <i_qp_#amide>  (1264) 
0

>  <i_qp_#amidine>  (1264) 
0

>  <i_qp_#amine>  (1264) 
1

>  <i_qp_#in34>  (1264) 
0

>  <i_qp_#in56>  (1264) 
21

>  <i_qp_#metab>  (1264) 
8

>  <i_qp_#nonHatm>  (1264) 
34

>  <i_qp_#noncon>  (1264) 
0

>  <i_qp_#ringatoms>  (1264) 
21

>  <i_qp_#rotor>  (1264) 
11

>  <i_qp_#rtvFG>  (1264) 
0

>  <i_qp_#stars>  (1264) 
1

>  <i_qp_CNS>  (1264) 
-2

>  <i_qp_HumanOralAbsorption>  (1264) 
2

>  <i_qp_RuleOfFive>  (1264) 
0

>  <i_qp_RuleOfThree>  (1264) 
1

>  <i_sd_BIOSOLVEIT.INFINISEE\_RESULT\_RANK>  (1264) 
16028

>  <i_sd_version>  (1264) 
0

>  <b_lp_Chiralities_Consistent>  (1264) 
1

>  <b_sd_chiral_flag>  (1264) 
0

>  <canonical_id>  (1264) 
ATP-HTVS-C88FA91C4E8E

>  <compound_code>  (1264) 
75201

>  <title>  (1264) 
rxn512b____EMOL24630243____EMOL719673____EMOL324170366

>  <variant>  (1264) 
75201-1

>  <source_file>  (1264) 
运行/运行/ATP-VSW/ATP-VSW-DOCK_HTVS_1-001_lib/ATP-VSW-DOCK_HTVS_1-001_lib

>  <canonical_smiles>  (1264) 
CN(C(=O)c1[nH]c2ccccc2c1NCc1ccc(NCCO)cc1)[C@@H](C#N)c1ccccc1

>  <scaffold>  (1264) 
O=C(NCc1ccccc1)c1[nH]c2ccccc2c1NCc1ccccc1

>  <molecular_formula>  (1264) 
C27H27N5O2

$$$$
ATP-HTVS-C894FAAE5B10
     RDKit          3D

 70 73  0  0  0  0  0  0  0  0999 V2000
  200.3803  187.1354  159.2447 O   0  0  0  0  0  0  0  0  0  0  0  0
  200.4612  185.9229  159.0300 C   0  0  0  0  0  0  0  0  0  0  0  0
  199.5406  185.2276  158.3097 N   0  0  0  0  0  0  0  0  0  0  0  0
  199.7879  183.9033  157.9024 C   0  0  0  0  0  0  0  0  0  0  0  0
  200.8789  183.1897  158.2747 C   0  0  0  0  0  0  0  0  0  0  0  0
  201.8507  183.7972  159.2260 C   0  0  0  0  0  0  0  0  0  0  0  0
  201.6347  185.1555  159.5867 C   0  0  0  0  0  0  0  0  0  0  0  0
  202.5273  185.8143  160.4612 C   0  0  0  0  0  0  0  0  0  0  0  0
  203.6264  185.1387  161.0092 C   0  0  0  0  0  0  0  0  0  0  0  0
  203.8213  183.7834  160.7025 C   0  0  0  0  0  0  0  0  0  0  0  0
  202.9363  183.1162  159.8359 C   0  0  0  0  0  0  0  0  0  0  0  0
  201.1315  181.8485  157.7219 C   0  0  0  0  0  0  0  0  0  0  0  0
  202.2157  181.2642  157.6735 O   0  0  0  0  0  0  0  0  0  0  0  0
  200.0080  181.2668  157.2757 N   0  0  0  0  0  0  0  0  0  0  0  0
  199.8482  179.8396  157.0437 C   0  0  1  0  0  0  0  0  0  0  0  0
  199.8027  179.5404  155.5173 C   0  0  1  0  0  0  0  0  0  0  0  0
  199.5165  178.1002  155.1736 N   0  0  2  0  0  0  0  0  0  0  0  0
  200.0216  177.1085  156.1781 C   0  0  1  0  0  0  0  0  0  0  0  0
  201.5638  177.0784  156.3424 C   0  0  2  0  0  0  0  0  0  0  0  0
  199.8700  177.6818  153.7717 C   0  0  1  0  0  0  0  0  0  0  0  0
  199.2319  178.5140  152.6234 C   0  0  2  0  0  0  0  0  0  0  0  0
  198.8093  180.4884  154.8397 C   0  0  0  0  0  0  0  0  0  0  0  0
  199.2151  181.3145  153.7676 C   0  0  0  0  0  0  0  0  0  0  0  0
  198.3088  182.1411  153.1100 C   0  0  0  0  0  0  0  0  0  0  0  0
  196.9699  182.2269  153.5579 C   0  0  0  0  0  0  0  0  0  0  0  0
  196.5664  181.4655  154.6628 C   0  0  0  0  0  0  0  0  0  0  0  0
  197.4763  180.6089  155.3021 C   0  0  0  0  0  0  0  0  0  0  0  0
  198.3350  185.8832  157.7591 C   0  0  1  0  0  0  0  0  0  0  0  0
  197.2783  186.2680  158.7903 C   0  0  0  0  0  0  0  0  0  0  0  0
  197.4190  187.4322  159.5792 C   0  0  0  0  0  0  0  0  0  0  0  0
  196.4545  187.7671  160.5408 C   0  0  0  0  0  0  0  0  0  0  0  0
  195.3021  186.9797  160.7097 C   0  0  0  0  0  0  0  0  0  0  0  0
  194.3934  187.4085  161.6487 O   0  0  0  0  0  0  0  0  0  0  0  0
  193.0870  186.8657  161.5904 C   0  0  2  0  0  0  0  0  0  0  0  0
  195.1486  185.8205  159.9037 C   0  0  0  0  0  0  0  0  0  0  0  0
  196.1315  185.4626  158.9617 C   0  0  0  0  0  0  0  0  0  0  0  0
  199.0473  183.5345  157.2028 H   0  0  0  0  0  0  0  0  0  0  0  0
  202.3777  186.8546  160.7157 H   0  0  0  0  0  0  0  0  0  0  0  0
  204.3058  185.6551  161.6719 H   0  0  0  0  0  0  0  0  0  0  0  0
  204.6555  183.2494  161.1297 H   0  0  0  0  0  0  0  0  0  0  0  0
  203.1325  182.0714  159.6607 H   0  0  0  0  0  0  0  0  0  0  0  0
  199.1627  181.8204  157.2264 H   0  0  0  0  0  0  0  0  0  0  0  0
  200.6368  179.3044  157.5792 H   0  0  0  0  0  0  0  0  0  0  0  0
  198.9234  179.5155  157.5151 H   0  0  0  0  0  0  0  0  0  0  0  0
  200.7998  179.7681  155.1350 H   0  0  0  0  0  0  0  0  0  0  0  0
  199.5487  177.2489  157.1495 H   0  0  0  0  0  0  0  0  0  0  0  0
  199.6880  176.1149  155.8738 H   0  0  0  0  0  0  0  0  0  0  0  0
  201.8586  176.2602  156.9998 H   0  0  0  0  0  0  0  0  0  0  0  0
  201.9677  177.9885  156.7887 H   0  0  0  0  0  0  0  0  0  0  0  0
  202.0884  176.9414  155.3970 H   0  0  0  0  0  0  0  0  0  0  0  0
  200.9549  177.7422  153.6511 H   0  0  0  0  0  0  0  0  0  0  0  0
  199.6100  176.6281  153.6678 H   0  0  0  0  0  0  0  0  0  0  0  0
  199.4629  178.0311  151.6484 H   0  0  0  0  0  0  0  0  0  0  0  0
  199.6371  179.5250  152.6060 H   0  0  0  0  0  0  0  0  0  0  0  0
  198.1371  178.5201  152.7181 H   0  0  0  0  0  0  0  0  0  0  0  0
  200.2603  181.3118  153.4514 H   0  0  0  0  0  0  0  0  0  0  0  0
  198.6102  182.6927  152.2277 H   0  0  0  0  0  0  0  0  0  0  0  0
  196.2527  182.8402  153.0210 H   0  0  0  0  0  0  0  0  0  0  0  0
  195.5473  181.5285  155.0119 H   0  0  0  0  0  0  0  0  0  0  0  0
  197.1227  179.9960  156.1327 H   0  0  0  0  0  0  0  0  0  0  0  0
  198.6244  186.7698  157.1842 H   0  0  0  0  0  0  0  0  0  0  0  0
  197.8470  185.2473  157.0239 H   0  0  0  0  0  0  0  0  0  0  0  0
  198.2653  188.0914  159.4630 H   0  0  0  0  0  0  0  0  0  0  0  0
  196.6081  188.6515  161.1426 H   0  0  0  0  0  0  0  0  0  0  0  0
  192.4779  187.3214  162.3684 H   0  0  0  0  0  0  0  0  0  0  0  0
  193.0982  185.7941  161.7751 H   0  0  0  0  0  0  0  0  0  0  0  0
  192.6140  187.0564  160.6264 H   0  0  0  0  0  0  0  0  0  0  0  0
  194.2702  185.1937  159.9843 H   0  0  0  0  0  0  0  0  0  0  0  0
  195.9870  184.5770  158.3533 H   0  0  0  0  0  0  0  0  0  0  0  0
  198.5095  178.0248  155.2528 H   0  0  0  0  0  0  0  0  0  0  0  0
  1  2  2  0
  2  3  1  0
  2  7  1  0
  3  4  1  0
  3 28  1  0
  4  5  2  0
  4 37  1  0
  5  6  1  0
  5 12  1  0
  6  7  1  0
  6 11  2  0
  7  8  2  0
  8  9  1  0
  8 38  1  0
  9 10  2  0
  9 39  1  0
 10 11  1  0
 10 40  1  0
 11 41  1  0
 12 13  2  0
 12 14  1  0
 14 15  1  0
 14 42  1  0
 15 16  1  0
 15 43  1  1
 15 44  1  0
 16 17  1  0
 16 22  1  0
 16 45  1  6
 17 18  1  0
 17 20  1  0
 17 70  1  6
 18 19  1  0
 18 46  1  1
 18 47  1  0
 19 48  1  1
 19 49  1  0
 19 50  1  0
 20 21  1  0
 20 51  1  1
 20 52  1  0
 21 53  1  6
 21 54  1  0
 21 55  1  0
 22 23  2  0
 22 27  1  0
 23 24  1  0
 23 56  1  0
 24 25  2  0
 24 57  1  0
 25 26  1  0
 25 58  1  0
 26 27  2  0
 26 59  1  0
 27 60  1  0
 28 29  1  0
 28 61  1  6
 28 62  1  0
 29 30  1  0
 29 36  2  0
 30 31  2  0
 30 63  1  0
 31 32  1  0
 31 64  1  0
 32 33  1  0
 32 35  2  0
 33 34  1  0
 34 65  1  1
 34 66  1  0
 34 67  1  0
 35 36  1  0
 35 68  1  0
 36 69  1  0
M  CHG  1  17   1
M  END
>  <s_epik_cmdline>  (1265) 
J2VwaWtfcHl0aG9uJywgJy1waCcsICc3LjAwMDAwMCcsICctcGh0JywgJzIuMDAwMDAwJywgJy1tcycsICcxNicsICctdG4nLCAnOCcsICctbWEnLCAnMjAwJywgJy1pbWFlJywgJzxpbmZpbGUubWFlPicsICctb21hZScsICc8b3V0ZmlsZS5tYWU+Jw==

>  <s_epik_input>  (1265) 
W0NIM11PYyhbY0hdW2NIXTEpW2NIXVtjSF1jMVtDSDJdbihjKD1PKWMoYzIzKVtjSF1bY0hdW2NIXVtjSF0zKVtjSF1jMkMoPU8pW05IXVtDSDJdW0NAQEhdKE4oW0NIMl1bQ0gzXSlbQ0gyXVtDSDNdKWM0W2NIXVtjSF1bY0hdW2NIXVtjSF00

>  <s_i_glide_gridfile>  (1265) 
ATP-Grid

>  <s_lp_Force_Field>  (1265) 
OPLS_2005

>  <s_lp_Variant>  (1265) 
YAS_R001____OTV6666767____OTV7020410249-2

>  <s_lp_label>  (1265) 
148_sdstereoexpander_2_neutralizer_1_epik_1_stereoizer_1

>  <s_m_source_file>  (1265) 
ATP-VSW-LIGPREP-002-in.maegz

>  <s_sd_BIOSOLVEIT.INFINISEE\_QUERY\_NAME>  (1265) 
Ref-Lig

>  <s_sd_BIOSOLVEIT.INFINISEE\_QUERY\_SMILES>  (1265) 
S(c1nc2c(cc1C[NH2+]Cc3ccc(cc3)C[NH+](C)C)cccc2)Cc4ccccc4

>  <s_sd_BIOSOLVEIT.INFINISEE\_REACTION\_NAME>  (1265) 
YAS_R001

>  <s_sd_BIOSOLVEIT.INFINISEE\_REAGENT1\_NAME>  (1265) 
OTV6666767

>  <s_sd_BIOSOLVEIT.INFINISEE\_REAGENT1\_SMILES>  (1265) 
O=C1N(C=C(c2c1cccc2)C(=O)O)Cc3ccc(OC)cc3

>  <s_sd_BIOSOLVEIT.INFINISEE\_REAGENT2\_NAME>  (1265) 
OTV7020410249

>  <s_sd_BIOSOLVEIT.INFINISEE\_REAGENT2\_SMILES>  (1265) 
N(C(c1ccccc1)CN)(CC)CC

>  <s_sd_BIOSOLVEIT.INFINISEE\_SPACE>  (1265) 
CHEMriya_12bn_2022-01

>  <s_vsw_compound_code>  (1265) 
4706

>  <s_vsw_variant>  (1265) 
4706-2

>  <r_epik_Charging_Adjusted_Penalty>  (1265) 
0.131395756644647

>  <r_epik_Ionization_Penalty>  (1265) 
0.065699999999999995

>  <r_epik_Ionization_Penalty_Charging>  (1265) 
0.065699999999999995

>  <r_epik_Ionization_Penalty_Neutral>  (1265) 
0

>  <r_epik_State_Penalty>  (1265) 
0.065699999999999995

>  <r_i_docking_score>  (1265) 
-3.8982798363093498

>  <r_i_glide_ecoul>  (1265) 
-6.4818158149719203

>  <r_i_glide_eff_state_penalty>  (1265) 
0.065699999999999995

>  <r_i_glide_einternal>  (1265) 
6.1455206871032697

>  <r_i_glide_emodel>  (1265) 
-48.992031722255497

>  <r_i_glide_energy>  (1265) 
-39.126961231231697

>  <r_i_glide_erotb>  (1265) 
0.60535024954427596

>  <r_i_glide_esite>  (1265) 
-0.045977431088570199

>  <r_i_glide_evdw>  (1265) 
-32.645145416259801

>  <r_i_glide_gscore>  (1265) 
-3.9639798363093499

>  <r_i_glide_hbond>  (1265) 
0

>  <r_i_glide_ligand_efficiency>  (1265) 
-0.108285551008593

>  <r_i_glide_ligand_efficiency_ln>  (1265) 
-0.85049934093267299

>  <r_i_glide_ligand_efficiency_sa>  (1265) 
-0.35755101110974502

>  <r_i_glide_lipo>  (1265) 
-1.52182751196579

>  <r_i_glide_metal>  (1265) 
-0

>  <r_i_glide_rewards>  (1265) 
-0.39699549974048398

>  <r_lp_Energy>  (1265) 
45.148279000000002

>  <r_lp_tautomer_probability>  (1265) 
1

>  <r_qp_ACxDN^.5/SA>  (1265) 
0.0108182

>  <r_qp_CIQPlogS>  (1265) 
-6

>  <r_qp_EA(eV)>  (1265) 
0.621

>  <r_qp_FISA>  (1265) 
63.625

>  <r_qp_FOSA>  (1265) 
340.49700000000001

>  <r_qp_IP(eV)>  (1265) 
8.8420000000000005

>  <r_qp_Jm>  (1265) 
0.093672811698316094

>  <r_qp_PISA>  (1265) 
358.48099999999999

>  <r_qp_PSA>  (1265) 
72.021000000000001

>  <r_qp_PercentHumanOralAbsorption>  (1265) 
100

>  <r_qp_QPPCaco>  (1265) 
615.81100000000004

>  <r_qp_QPPMDCK>  (1265) 
324.07600000000002

>  <r_qp_QPlogBB>  (1265) 
-0.26000000000000001

>  <r_qp_QPlogHERG>  (1265) 
-6.7599999999999998

>  <r_qp_QPlogKhsa>  (1265) 
0.59799999999999998

>  <r_qp_QPlogKp>  (1265) 
-2.532

>  <r_qp_QPlogPC16>  (1265) 
15.173999999999999

>  <r_qp_QPlogPo/w>  (1265) 
4.633

>  <r_qp_QPlogPoct>  (1265) 
22.956

>  <r_qp_QPlogPw>  (1265) 
11.81

>  <r_qp_QPlogS>  (1265) 
-4.181

>  <r_qp_QPpolrz>  (1265) 
50.494

>  <r_qp_SASA>  (1265) 
762.60199999999998

>  <r_qp_SAamideO>  (1265) 
0

>  <r_qp_SAfluorine>  (1265) 
0

>  <r_qp_WPSA>  (1265) 
0

>  <r_qp_accptHB>  (1265) 
8.25

>  <r_qp_dip^2/V>  (1265) 
0.028410700000000001

>  <r_qp_dipole>  (1265) 
6.5069999999999997

>  <r_qp_donorHB>  (1265) 
1

>  <r_qp_glob>  (1265) 
0.82743460000000002

>  <r_qp_mol_MW>  (1265) 
483.60899999999998

>  <r_qp_volume>  (1265) 
1490.3900000000001

>  <r_sd_BIOSOLVEIT.INFINISEE\_FTREES\_SIMILARITY>  (1265) 
0.90300000000000002

>  <r_sd_BIOSOLVEIT.LOGP>  (1265) 
3.4542000000000002

>  <r_sd_BIOSOLVEIT.MOLECULAR\_WEIGHT>  (1265) 
484.61700000000002

>  <r_sd_BIOSOLVEIT.TPSA>  (1265) 
64.769999999999996

>  <i_epik_Tot_Q>  (1265) 
1

>  <i_epik_Tot_abs_Q>  (1265) 
1

>  <i_f3d_flags>  (1265) 
0

>  <i_i_glide_confnum>  (1265) 
7

>  <i_i_glide_lignum>  (1265) 
112

>  <i_i_glide_posenum>  (1265) 
11

>  <i_i_glide_rotatable_bonds>  (1265) 
11

>  <i_lp_mmshare_version>  (1265) 
65135

>  <i_m_ct_format>  (1265) 
2

>  <i_m_source_file_index>  (1265) 
148

>  <i_qp_#NandO>  (1265) 
6

>  <i_qp_#acid>  (1265) 
0

>  <i_qp_#amide>  (1265) 
0

>  <i_qp_#amidine>  (1265) 
0

>  <i_qp_#amine>  (1265) 
1

>  <i_qp_#in34>  (1265) 
0

>  <i_qp_#in56>  (1265) 
22

>  <i_qp_#metab>  (1265) 
5

>  <i_qp_#nonHatm>  (1265) 
36

>  <i_qp_#noncon>  (1265) 
0

>  <i_qp_#ringatoms>  (1265) 
22

>  <i_qp_#rotor>  (1265) 
10

>  <i_qp_#rtvFG>  (1265) 
0

>  <i_qp_#stars>  (1265) 
0

>  <i_qp_CNS>  (1265) 
1

>  <i_qp_HumanOralAbsorption>  (1265) 
3

>  <i_qp_RuleOfFive>  (1265) 
0

>  <i_qp_RuleOfThree>  (1265) 
0

>  <i_sd_BIOSOLVEIT.INFINISEE\_RESULT\_RANK>  (1265) 
85443

>  <i_sd_version>  (1265) 
0

>  <b_lp_Chiralities_Consistent>  (1265) 
1

>  <b_sd_chiral_flag>  (1265) 
0

>  <canonical_id>  (1265) 
ATP-HTVS-C894FAAE5B10

>  <compound_code>  (1265) 
4706

>  <title>  (1265) 
YAS_R001____OTV6666767____OTV7020410249

>  <variant>  (1265) 
4706-2

>  <source_file>  (1265) 
运行/运行/ATP-VSW/ATP-VSW-DOCK_HTVS_1-002_lib.maegz

>  <canonical_smiles>  (1265) 
CC[NH+](CC)[C@H](CNC(=O)c1cn(Cc2ccc(OC)cc2)c(=O)c2ccccc12)c1ccccc1

>  <scaffold>  (1265) 
O=C(NCCc1ccccc1)c1cn(Cc2ccccc2)c(=O)c2ccccc12

>  <molecular_formula>  (1265) 
C30H34N3O3+

$$$$
ATP-HTVS-C8A46F369ED4
     RDKit          3D

 59 62  0  0  0  0  0  0  0  0999 V2000
  198.7090  175.4433  148.5892 F   0  0  0  0  0  0  0  0  0  0  0  0
  198.5204  176.7799  148.6514 C   0  0  0  0  0  0  0  0  0  0  0  0
  198.7240  177.4671  149.8661 C   0  0  0  0  0  0  0  0  0  0  0  0
  198.5469  178.8691  149.9369 C   0  0  0  0  0  0  0  0  0  0  0  0
  198.1705  179.5701  148.7702 C   0  0  0  0  0  0  0  0  0  0  0  0
  197.9637  178.8815  147.5573 C   0  0  0  0  0  0  0  0  0  0  0  0
  198.1347  177.4878  147.4972 C   0  0  0  0  0  0  0  0  0  0  0  0
  198.8109  179.6315  151.2322 C   0  0  1  0  0  0  0  0  0  0  0  0
  198.0317  179.1124  152.3502 N   0  0  0  0  0  0  0  0  0  0  0  0
  196.7442  179.7813  152.5015 C   0  0  1  0  0  0  0  0  0  0  0  0
  196.7925  180.8216  153.5439 C   0  0  0  0  0  0  0  0  0  0  0  0
  196.8685  181.6957  154.3967 C   0  0  0  0  0  0  0  0  0  0  0  0
  197.0054  182.7883  155.3584 C   0  0  0  0  0  0  0  0  0  0  0  0
  197.4596  184.0807  154.9707 C   0  0  0  0  0  0  0  0  0  0  0  0
  197.5568  185.0907  155.8670 N   0  0  0  0  0  0  0  0  0  0  0  0
  197.2206  184.8967  157.1585 C   0  0  0  0  0  0  0  0  0  0  0  0
  196.7594  183.6399  157.6251 C   0  0  0  0  0  0  0  0  0  0  0  0
  196.6478  182.5735  156.7079 C   0  0  0  0  0  0  0  0  0  0  0  0
  196.4254  183.4577  158.9827 C   0  0  0  0  0  0  0  0  0  0  0  0
  196.5552  184.5285  159.8882 C   0  0  0  0  0  0  0  0  0  0  0  0
  197.0108  185.7813  159.4373 C   0  0  0  0  0  0  0  0  0  0  0  0
  197.3319  185.9612  158.0777 C   0  0  0  0  0  0  0  0  0  0  0  0
  197.7494  184.2661  153.5928 N   0  0  0  0  0  0  0  0  0  0  0  0
  198.3334  185.3023  152.9632 C   0  0  0  0  0  0  0  0  0  0  0  0
  198.8978  186.2430  153.5217 O   0  0  0  0  0  0  0  0  0  0  0  0
  198.3420  185.1894  151.4616 C   0  0  0  0  0  0  0  0  0  0  0  0
  197.3611  184.4353  150.7741 C   0  0  0  0  0  0  0  0  0  0  0  0
  197.3655  184.3645  149.3672 C   0  0  0  0  0  0  0  0  0  0  0  0
  198.3383  185.0635  148.6172 C   0  0  0  0  0  0  0  0  0  0  0  0
  199.3097  185.8266  149.3016 C   0  0  0  0  0  0  0  0  0  0  0  0
  199.3083  185.8940  150.7083 C   0  0  0  0  0  0  0  0  0  0  0  0
  198.3476  185.0349  147.1269 C   0  0  0  0  0  0  0  0  0  0  0  0
  199.0946  185.7218  146.4322 O   0  0  0  0  0  0  0  0  0  0  0  0
  197.3811  184.0785  146.4424 C   0  0  2  0  0  0  0  0  0  0  0  0
  200.2920  179.5416  151.6348 C   0  0  2  0  0  0  0  0  0  0  0  0
  197.8537  178.1371  152.1739 H   0  0  0  0  0  0  0  0  0  0  0  0
  199.0456  176.9061  150.7300 H   0  0  0  0  0  0  0  0  0  0  0  0
  198.0619  180.6456  148.7940 H   0  0  0  0  0  0  0  0  0  0  0  0
  197.6831  179.4217  146.6659 H   0  0  0  0  0  0  0  0  0  0  0  0
  197.9705  176.9618  146.5674 H   0  0  0  0  0  0  0  0  0  0  0  0
  198.5841  180.6904  151.0880 H   0  0  0  0  0  0  0  0  0  0  0  0
  196.3937  180.2156  151.5659 H   0  0  0  0  0  0  0  0  0  0  0  0
  196.0016  179.0479  152.8140 H   0  0  0  0  0  0  0  0  0  0  0  0
  196.2738  181.6113  157.0347 H   0  0  0  0  0  0  0  0  0  0  0  0
  196.0853  182.4943  159.3330 H   0  0  0  0  0  0  0  0  0  0  0  0
  196.3171  184.3854  160.9315 H   0  0  0  0  0  0  0  0  0  0  0  0
  197.1247  186.6012  160.1336 H   0  0  0  0  0  0  0  0  0  0  0  0
  197.6857  186.9229  157.7325 H   0  0  0  0  0  0  0  0  0  0  0  0
  197.4298  183.5140  153.0056 H   0  0  0  0  0  0  0  0  0  0  0  0
  196.5825  183.9077  151.3064 H   0  0  0  0  0  0  0  0  0  0  0  0
  196.5896  183.7883  148.8841 H   0  0  0  0  0  0  0  0  0  0  0  0
  200.0560  186.3792  148.7503 H   0  0  0  0  0  0  0  0  0  0  0  0
  200.0567  186.4919  151.2088 H   0  0  0  0  0  0  0  0  0  0  0  0
  196.3499  184.3529  146.6665 H   0  0  0  0  0  0  0  0  0  0  0  0
  197.5627  183.0615  146.7912 H   0  0  0  0  0  0  0  0  0  0  0  0
  197.5175  184.1000  145.3608 H   0  0  0  0  0  0  0  0  0  0  0  0
  200.9359  179.9541  150.8573 H   0  0  0  0  0  0  0  0  0  0  0  0
  200.6060  178.5141  151.8104 H   0  0  0  0  0  0  0  0  0  0  0  0
  200.4837  180.1014  152.5509 H   0  0  0  0  0  0  0  0  0  0  0  0
  1  2  1  0
  2  3  2  0
  2  7  1  0
  3  4  1  0
  3 37  1  0
  4  5  2  0
  4  8  1  0
  5  6  1  0
  5 38  1  0
  6  7  2  0
  6 39  1  0
  7 40  1  0
  8  9  1  0
  8 35  1  0
  8 41  1  6
  9 10  1  0
  9 36  1  0
 10 11  1  0
 10 42  1  6
 10 43  1  0
 11 12  3  0
 12 13  1  0
 13 14  1  0
 13 18  2  0
 14 15  2  0
 14 23  1  0
 15 16  1  0
 16 17  1  0
 16 22  2  0
 17 18  1  0
 17 19  2  0
 18 44  1  0
 19 20  1  0
 19 45  1  0
 20 21  2  0
 20 46  1  0
 21 22  1  0
 21 47  1  0
 22 48  1  0
 23 24  1  0
 23 49  1  0
 24 25  2  0
 24 26  1  0
 26 27  1  0
 26 31  2  0
 27 28  2  0
 27 50  1  0
 28 29  1  0
 28 51  1  0
 29 30  2  0
 29 32  1  0
 30 31  1  0
 30 52  1  0
 31 53  1  0
 32 33  2  0
 32 34  1  0
 34 54  1  6
 34 55  1  0
 34 56  1  0
 35 57  1  6
 35 58  1  0
 35 59  1  0
M  END
>  <s_epik_cmdline>  (1266) 
J2VwaWtfcHl0aG9uJywgJy1waCcsICc3LjAwMDAwMCcsICctcGh0JywgJzIuMDAwMDAwJywgJy1tcycsICcxNicsICctdG4nLCAnOCcsICctbWEnLCAnMjAwJywgJy1pbWFlJywgJzxpbmZpbGUubWFlPicsICctb21hZScsICc8b3V0ZmlsZS5tYWU+Jw==

>  <s_epik_input>  (1266) 
RmMxW2NIXWMoW2NIXVtjSF1bY0hdMSlbQ0BIXShbQ0gzXSlbTkhdW0NIMl1DI0NjKFtjSF1jKGMyMylbY0hdW2NIXVtjSF1bY0hdMyljKG4yKVtOSF1DKD1PKWM0W2NIXVtjSF1jKFtjSF1bY0hdNClDKD1PKVtDSDNd

>  <s_i_glide_gridfile>  (1266) 
ATP-Grid

>  <s_lp_Force_Field>  (1266) 
OPLS_2005

>  <s_lp_Variant>  (1266) 
rxn503b____EMOL48579575____EMOL44466703____EMOL317509042-2

>  <s_lp_label>  (1266) 
3120_sdstereoexpander_2_neutralizer_1_epik_1_stereoizer_1

>  <s_m_source_file>  (1266) 
ATP-VSW-LIGPREP-002-in.maegz

>  <s_sd_BIOSOLVEIT.INFINISEE\_QUERY\_NAME>  (1266) 
Ref-Lig

>  <s_sd_BIOSOLVEIT.INFINISEE\_QUERY\_SMILES>  (1266) 
S(c1nc2c(cc1C[NH2+]Cc3ccc(cc3)C[NH+](C)C)cccc2)Cc4ccccc4

>  <s_sd_BIOSOLVEIT.INFINISEE\_REACTION\_NAME>  (1266) 
rxn503b

>  <s_sd_BIOSOLVEIT.INFINISEE\_REAGENT1\_NAME>  (1266) 
EMOL48579575

>  <s_sd_BIOSOLVEIT.INFINISEE\_REAGENT1\_SMILES>  (1266) 
ClC(=O)c1ccc(cc1)C(=O)C

>  <s_sd_BIOSOLVEIT.INFINISEE\_REAGENT2\_NAME>  (1266) 
EMOL44466703

>  <s_sd_BIOSOLVEIT.INFINISEE\_REAGENT2\_SMILES>  (1266) 
Brc1c(nc2c(c1)cccc2)N

>  <s_sd_BIOSOLVEIT.INFINISEE\_REAGENT3\_NAME>  (1266) 
EMOL317509042

>  <s_sd_BIOSOLVEIT.INFINISEE\_REAGENT3\_SMILES>  (1266) 
Fc1cc(ccc1)C(NCC#C)C

>  <s_sd_BIOSOLVEIT.INFINISEE\_SPACE>  (1266) 
eXplore_7tr_2022-12

>  <s_vsw_compound_code>  (1266) 
99810

>  <s_vsw_variant>  (1266) 
99810-2

>  <r_epik_Charging_Adjusted_Penalty>  (1266) 
0.25225277160849602

>  <r_epik_Ionization_Penalty>  (1266) 
0.25230000000000002

>  <r_epik_Ionization_Penalty_Charging>  (1266) 
0

>  <r_epik_Ionization_Penalty_Neutral>  (1266) 
0.25230000000000002

>  <r_epik_State_Penalty>  (1266) 
0.25230000000000002

>  <r_i_docking_score>  (1266) 
-4.2483273926273197

>  <r_i_glide_ecoul>  (1266) 
-1.2076214551925699

>  <r_i_glide_eff_state_penalty>  (1266) 
0.25230000000000002

>  <r_i_glide_einternal>  (1266) 
6.7732286453247097

>  <r_i_glide_emodel>  (1266) 
-48.222552410788197

>  <r_i_glide_energy>  (1266) 
-40.432375788688702

>  <r_i_glide_erotb>  (1266) 
0.65144977146216398

>  <r_i_glide_esite>  (1266) 
-0.0132633904237929

>  <r_i_glide_evdw>  (1266) 
-39.224754333496101

>  <r_i_glide_gscore>  (1266) 
-4.5006273926273197

>  <r_i_glide_hbond>  (1266) 
0

>  <r_i_glide_ligand_efficiency>  (1266) 
-0.121380782646495

>  <r_i_glide_ligand_efficiency_ln>  (1266) 
-0.93260214922815199

>  <r_i_glide_ligand_efficiency_sa>  (1266) 
-0.39704458834872902

>  <r_i_glide_lipo>  (1266) 
-2.22186823622217

>  <r_i_glide_metal>  (1266) 
-0

>  <r_i_glide_rewards>  (1266) 
-0.77456460248983405

>  <r_lp_Energy>  (1266) 
32.024079

>  <r_lp_tautomer_probability>  (1266) 
0.99995000000000001

>  <r_qp_ACxDN^.5/SA>  (1266) 
0.0132785

>  <r_qp_CIQPlogS>  (1266) 
-6.093

>  <r_qp_EA(eV)>  (1266) 
1.107

>  <r_qp_FISA>  (1266) 
115.97799999999999

>  <r_qp_FOSA>  (1266) 
183.81700000000001

>  <r_qp_IP(eV)>  (1266) 
8.7889999999999997

>  <r_qp_Jm>  (1266) 
0.0022642400273766398

>  <r_qp_PISA>  (1266) 
414.04399999999998

>  <r_qp_PSA>  (1266) 
87.302000000000007

>  <r_qp_PercentHumanOralAbsorption>  (1266) 
93.930999999999997

>  <r_qp_QPPCaco>  (1266) 
196.32599999999999

>  <r_qp_QPPMDCK>  (1266) 
140.47800000000001

>  <r_qp_QPlogBB>  (1266) 
-0.59099999999999997

>  <r_qp_QPlogHERG>  (1266) 
-7.1379999999999999

>  <r_qp_QPlogKhsa>  (1266) 
0.74099999999999999

>  <r_qp_QPlogKp>  (1266) 
-3.4929999999999999

>  <r_qp_QPlogPC16>  (1266) 
15.382

>  <r_qp_QPlogPo/w>  (1266) 
4.431

>  <r_qp_QPlogPoct>  (1266) 
24.672999999999998

>  <r_qp_QPlogPw>  (1266) 
13.189

>  <r_qp_QPlogS>  (1266) 
-4.8200000000000003

>  <r_qp_QPpolrz>  (1266) 
49.588000000000001

>  <r_qp_SASA>  (1266) 
745.52599999999995

>  <r_qp_SAamideO>  (1266) 
0

>  <r_qp_SAfluorine>  (1266) 
31.687999999999999

>  <r_qp_WPSA>  (1266) 
31.687999999999999

>  <r_qp_accptHB>  (1266) 
7

>  <r_qp_dip^2/V>  (1266) 
0.082540299999999997

>  <r_qp_dipole>  (1266) 
10.835000000000001

>  <r_qp_donorHB>  (1266) 
2

>  <r_qp_glob>  (1266) 
0.82045159999999995

>  <r_qp_mol_MW>  (1266) 
465.52600000000001

>  <r_qp_volume>  (1266) 
1422.415

>  <r_sd_BIOSOLVEIT.INFINISEE\_FTREES\_SIMILARITY>  (1266) 
0.90100000000000002

>  <r_sd_BIOSOLVEIT.LOGP>  (1266) 
4.5049000000000001

>  <r_sd_BIOSOLVEIT.MOLECULAR\_WEIGHT>  (1266) 
466.53399999999999

>  <r_sd_BIOSOLVEIT.TPSA>  (1266) 
75.670000000000002

>  <i_epik_Tot_Q>  (1266) 
0

>  <i_epik_Tot_abs_Q>  (1266) 
0

>  <i_f3d_flags>  (1266) 
0

>  <i_i_glide_confnum>  (1266) 
3

>  <i_i_glide_lignum>  (1266) 
153

>  <i_i_glide_posenum>  (1266) 
12

>  <i_i_glide_rotatable_bonds>  (1266) 
9

>  <i_lp_mmshare_version>  (1266) 
65135

>  <i_m_ct_format>  (1266) 
2

>  <i_m_source_file_index>  (1266) 
3120

>  <i_qp_#NandO>  (1266) 
5

>  <i_qp_#acid>  (1266) 
0

>  <i_qp_#amide>  (1266) 
0

>  <i_qp_#amidine>  (1266) 
0

>  <i_qp_#amine>  (1266) 
1

>  <i_qp_#in34>  (1266) 
0

>  <i_qp_#in56>  (1266) 
22

>  <i_qp_#metab>  (1266) 
4

>  <i_qp_#nonHatm>  (1266) 
35

>  <i_qp_#noncon>  (1266) 
0

>  <i_qp_#ringatoms>  (1266) 
22

>  <i_qp_#rotor>  (1266) 
8

>  <i_qp_#rtvFG>  (1266) 
0

>  <i_qp_#stars>  (1266) 
0

>  <i_qp_CNS>  (1266) 
1

>  <i_qp_HumanOralAbsorption>  (1266) 
3

>  <i_qp_RuleOfFive>  (1266) 
0

>  <i_qp_RuleOfThree>  (1266) 
0

>  <i_sd_BIOSOLVEIT.INFINISEE\_RESULT\_RANK>  (1266) 
99369

>  <i_sd_version>  (1266) 
0

>  <b_lp_Chiralities_Consistent>  (1266) 
1

>  <b_sd_chiral_flag>  (1266) 
0

>  <canonical_id>  (1266) 
ATP-HTVS-C8A46F369ED4

>  <compound_code>  (1266) 
99810

>  <title>  (1266) 
rxn503b____EMOL48579575____EMOL44466703____EMOL317509042

>  <variant>  (1266) 
99810-2

>  <source_file>  (1266) 
运行/运行/ATP-VSW/ATP-VSW-DOCK_HTVS_1-003_lib/ATP-VSW-DOCK_HTVS_1-003_lib.mae

>  <canonical_smiles>  (1266) 
CC(=O)c1ccc(C(=O)Nc2nc3ccccc3cc2C#CCN[C@@H](C)c2cccc(F)c2)cc1

>  <scaffold>  (1266) 
O=C(Nc1nc2ccccc2cc1C#CCNCc1ccccc1)c1ccccc1

>  <molecular_formula>  (1266) 
C29H24FN3O2

$$$$
ATP-HTVS-C8D8BA0AA9EF
     RDKit          3D

 50 53  0  0  0  0  0  0  0  0999 V2000
  196.2062  188.6987  160.9932 Cl  0  0  0  0  0  0  0  0  0  0  0  0
  196.3705  187.3306  159.9454 C   0  0  0  0  0  0  0  0  0  0  0  0
  195.5967  186.1881  160.2216 C   0  0  0  0  0  0  0  0  0  0  0  0
  194.7090  186.2367  161.2613 O   0  0  0  0  0  0  0  0  0  0  0  0
  195.7494  185.0215  159.4409 C   0  0  0  0  0  0  0  0  0  0  0  0
  196.6902  184.9978  158.3754 C   0  0  0  0  0  0  0  0  0  0  0  0
  196.8338  183.8090  157.6165 C   0  0  0  0  0  0  0  0  0  0  0  0
  196.0589  182.6693  157.9063 C   0  0  0  0  0  0  0  0  0  0  0  0
  195.1264  182.7032  158.9539 C   0  0  0  0  0  0  0  0  0  0  0  0
  194.9756  183.8726  159.7200 C   0  0  0  0  0  0  0  0  0  0  0  0
  197.4646  186.1569  158.0886 C   0  0  0  0  0  0  0  0  0  0  0  0
  198.4070  186.1464  157.0368 N   0  0  0  0  0  0  0  0  0  0  0  0
  199.7171  185.6241  157.1091 C   0  0  0  0  0  0  0  0  0  0  0  0
  200.5710  185.5846  155.9769 C   0  0  0  0  0  0  0  0  0  0  0  0
  201.8757  185.0655  156.0712 C   0  0  0  0  0  0  0  0  0  0  0  0
  202.3550  184.5737  157.2991 C   0  0  0  0  0  0  0  0  0  0  0  0
  201.5222  184.6031  158.4326 C   0  0  0  0  0  0  0  0  0  0  0  0
  200.2172  185.1231  158.3374 C   0  0  0  0  0  0  0  0  0  0  0  0
  197.9343  186.7473  155.7868 C   0  0  1  0  0  0  0  0  0  0  0  0
  198.6139  188.0224  155.5035 C   0  0  0  0  0  0  0  0  0  0  0  0
  199.1481  189.0250  155.2888 N   0  0  0  0  0  0  0  0  0  0  0  0
  197.2870  187.3331  158.8654 C   0  0  0  0  0  0  0  0  0  0  0  0
  198.0607  188.4695  158.5799 N   0  0  0  0  0  0  0  0  0  0  0  0
  197.3337  189.6731  158.1989 C   0  0  1  0  0  0  0  0  0  0  0  0
  198.0166  190.9579  158.6234 C   0  0  0  0  0  0  0  0  0  0  0  0
  198.6669  191.0460  159.8725 C   0  0  0  0  0  0  0  0  0  0  0  0
  199.2773  192.2477  160.2742 C   0  0  0  0  0  0  0  0  0  0  0  0
  199.2326  193.3740  159.4286 C   0  0  0  0  0  0  0  0  0  0  0  0
  198.5838  193.2930  158.1807 C   0  0  0  0  0  0  0  0  0  0  0  0
  197.9729  192.0872  157.7816 C   0  0  0  0  0  0  0  0  0  0  0  0
  197.5345  183.7515  156.7971 H   0  0  0  0  0  0  0  0  0  0  0  0
  196.1681  181.7671  157.3217 H   0  0  0  0  0  0  0  0  0  0  0  0
  194.5335  181.8272  159.1733 H   0  0  0  0  0  0  0  0  0  0  0  0
  194.2559  183.8824  160.5238 H   0  0  0  0  0  0  0  0  0  0  0  0
  200.2501  185.9494  155.0138 H   0  0  0  0  0  0  0  0  0  0  0  0
  202.5119  185.0456  155.1974 H   0  0  0  0  0  0  0  0  0  0  0  0
  203.3577  184.1784  157.3701 H   0  0  0  0  0  0  0  0  0  0  0  0
  201.8862  184.2268  159.3776 H   0  0  0  0  0  0  0  0  0  0  0  0
  199.6053  185.1328  159.2276 H   0  0  0  0  0  0  0  0  0  0  0  0
  198.0776  186.0693  154.9460 H   0  0  0  0  0  0  0  0  0  0  0  0
  196.8637  186.9504  155.8343 H   0  0  0  0  0  0  0  0  0  0  0  0
  198.8234  188.2796  157.9463 H   0  0  0  0  0  0  0  0  0  0  0  0
  197.2129  189.6694  157.1167 H   0  0  0  0  0  0  0  0  0  0  0  0
  196.3276  189.6941  158.6149 H   0  0  0  0  0  0  0  0  0  0  0  0
  198.7024  190.1925  160.5313 H   0  0  0  0  0  0  0  0  0  0  0  0
  199.7781  192.3047  161.2308 H   0  0  0  0  0  0  0  0  0  0  0  0
  199.7042  194.2960  159.7393 H   0  0  0  0  0  0  0  0  0  0  0  0
  198.5518  194.1544  157.5312 H   0  0  0  0  0  0  0  0  0  0  0  0
  197.4686  192.0261  156.8269 H   0  0  0  0  0  0  0  0  0  0  0  0
  194.6608  187.1108  161.6208 H   0  0  0  0  0  0  0  0  0  0  0  0
  1  2  1  0
  2  3  2  0
  2 22  1  0
  3  4  1  0
  3  5  1  0
  4 50  1  0
  5  6  1  0
  5 10  2  0
  6  7  2  0
  6 11  1  0
  7  8  1  0
  7 31  1  0
  8  9  2  0
  8 32  1  0
  9 10  1  0
  9 33  1  0
 10 34  1  0
 11 12  1  0
 11 22  2  0
 12 13  1  0
 12 19  1  0
 13 14  2  0
 13 18  1  0
 14 15  1  0
 14 35  1  0
 15 16  2  0
 15 36  1  0
 16 17  1  0
 16 37  1  0
 17 18  2  0
 17 38  1  0
 18 39  1  0
 19 20  1  0
 19 40  1  6
 19 41  1  0
 20 21  3  0
 22 23  1  0
 23 24  1  0
 23 42  1  0
 24 25  1  0
 24 43  1  6
 24 44  1  0
 25 26  2  0
 25 30  1  0
 26 27  1  0
 26 45  1  0
 27 28  2  0
 27 46  1  0
 28 29  1  0
 28 47  1  0
 29 30  2  0
 29 48  1  0
 30 49  1  0
M  END
>  <s_epik_cmdline>  (1267) 
J2VwaWtfcHl0aG9uJywgJy1waCcsICc3LjAwMDAwMCcsICctcGh0JywgJzIuMDAwMDAwJywgJy1tcycsICcxNicsICctdG4nLCAnOCcsICctbWEnLCAnMjAwJywgJy1pbWFlJywgJzxpbmZpbGUubWFlPicsICctb21hZScsICc8b3V0ZmlsZS5tYWU+Jw==

>  <s_epik_input>  (1267) 
W2NIXTFbY0hdW2NIXVtjSF1bY0hdYzFbQ0gyXVtOSF1DKD1DKENsKUMyPU8pW0NASF0oYyhjMjMpW2NIXVtjSF1bY0hdW2NIXTMpTihbQ0gyXUMjTiljNFtjSF1bY0hdW2NIXVtjSF1bY0hdNA==

>  <s_i_glide_gridfile>  (1267) 
ATP-Grid

>  <s_lp_Force_Field>  (1267) 
OPLS_2005

>  <s_lp_Variant>  (1267) 
rxn207____EMOL1096385____EMOL712348-1

>  <s_lp_label>  (1267) 
2346_sdstereoexpander_2_neutralizer_1_epik_1_stereoizer_1

>  <s_m_source_file>  (1267) 
ATP-VSW-LIGPREP-002-in.maegz

>  <s_sd_BIOSOLVEIT.INFINISEE\_QUERY\_NAME>  (1267) 
Ref-Lig

>  <s_sd_BIOSOLVEIT.INFINISEE\_QUERY\_SMILES>  (1267) 
S(c1nc2c(cc1C[NH2+]Cc3ccc(cc3)C[NH+](C)C)cccc2)Cc4ccccc4

>  <s_sd_BIOSOLVEIT.INFINISEE\_REACTION\_NAME>  (1267) 
rxn207

>  <s_sd_BIOSOLVEIT.INFINISEE\_REAGENT1\_NAME>  (1267) 
EMOL1096385

>  <s_sd_BIOSOLVEIT.INFINISEE\_REAGENT1\_SMILES>  (1267) 
ClC=1C(=O)c2c(cccc2)C(=O)C1NCc3ccccc3

>  <s_sd_BIOSOLVEIT.INFINISEE\_REAGENT2\_NAME>  (1267) 
EMOL712348

>  <s_sd_BIOSOLVEIT.INFINISEE\_REAGENT2\_SMILES>  (1267) 
N#CCNc1ccccc1

>  <s_sd_BIOSOLVEIT.INFINISEE\_SPACE>  (1267) 
eXplore_7tr_2022-12

>  <s_vsw_compound_code>  (1267) 
75042

>  <s_vsw_variant>  (1267) 
75042-1

>  <r_epik_Charging_Adjusted_Penalty>  (1267) 
0.0079767471482739202

>  <r_epik_Ionization_Penalty>  (1267) 
0.0080999999999999996

>  <r_epik_Ionization_Penalty_Charging>  (1267) 
0

>  <r_epik_Ionization_Penalty_Neutral>  (1267) 
0.0080999999999999996

>  <r_epik_State_Penalty>  (1267) 
0.0080000000000000002

>  <r_i_docking_score>  (1267) 
-3.7364492990670399

>  <r_i_glide_ecoul>  (1267) 
-1.93989217281342

>  <r_i_glide_eff_state_penalty>  (1267) 
0.0080000000000000002

>  <r_i_glide_einternal>  (1267) 
1.3444353342056301

>  <r_i_glide_emodel>  (1267) 
-41.9428973928296

>  <r_i_glide_energy>  (1267) 
-34.5672687292099

>  <r_i_glide_erotb>  (1267) 
0.57592361446542495

>  <r_i_glide_esite>  (1267) 
0

>  <r_i_glide_evdw>  (1267) 
-32.627376556396499

>  <r_i_glide_gscore>  (1267) 
-3.7444492990670399

>  <r_i_glide_hbond>  (1267) 
0

>  <r_i_glide_ligand_efficiency>  (1267) 
-0.124548309968901

>  <r_i_glide_ligand_efficiency_ln>  (1267) 
-0.84896199262391003

>  <r_i_glide_ligand_efficiency_sa>  (1267) 
-0.38700055685823198

>  <r_i_glide_lipo>  (1267) 
-1.76042382689709

>  <r_i_glide_metal>  (1267) 
-0

>  <r_i_glide_rewards>  (1267) 
-0.63759643289353596

>  <r_lp_Energy>  (1267) 
34.356999999999999

>  <r_qp_ACxDN^.5/SA>  (1267) 
0.0087863999999999998

>  <r_qp_CIQPlogS>  (1267) 
-8.3439999999999994

>  <r_qp_EA(eV)>  (1267) 
1.0580000000000001

>  <r_qp_FISA>  (1267) 
91.272999999999996

>  <r_qp_FOSA>  (1267) 
58.482999999999997

>  <r_qp_IP(eV)>  (1267) 
8.4469999999999992

>  <r_qp_Jm>  (1267) 
0.081910542273495701

>  <r_qp_PISA>  (1267) 
402.51600000000002

>  <r_qp_PSA>  (1267) 
54.698999999999998

>  <r_qp_PercentHumanOralAbsorption>  (1267) 
100

>  <r_qp_QPPCaco>  (1267) 
1350.0719999999999

>  <r_qp_QPPMDCK>  (1267) 
1307.1469999999999

>  <r_qp_QPlogBB>  (1267) 
-0.55300000000000005

>  <r_qp_QPlogHERG>  (1267) 
-5.157

>  <r_qp_QPlogKhsa>  (1267) 
0.71199999999999997

>  <r_qp_QPlogKp>  (1267) 
-1.016

>  <r_qp_QPlogPC16>  (1267) 
13.577

>  <r_qp_QPlogPo/w>  (1267) 
4.9909999999999997

>  <r_qp_QPlogPoct>  (1267) 
18.791

>  <r_qp_QPlogPw>  (1267) 
9.407

>  <r_qp_QPlogS>  (1267) 
-5.6879999999999997

>  <r_qp_QPpolrz>  (1267) 
39.768999999999998

>  <r_qp_SASA>  (1267) 
603.58199999999999

>  <r_qp_SAamideO>  (1267) 
0

>  <r_qp_SAfluorine>  (1267) 
0

>  <r_qp_WPSA>  (1267) 
51.310000000000002

>  <r_qp_accptHB>  (1267) 
3.75

>  <r_qp_dip^2/V>  (1267) 
0.022208499999999999

>  <r_qp_dipole>  (1267) 
5.1189999999999998

>  <r_qp_donorHB>  (1267) 
2

>  <r_qp_glob>  (1267) 
0.89461869999999999

>  <r_qp_mol_MW>  (1267) 
413.90499999999997

>  <r_qp_volume>  (1267) 
1179.8140000000001

>  <r_sd_BIOSOLVEIT.INFINISEE\_FTREES\_SIMILARITY>  (1267) 
0.92100000000000004

>  <r_sd_BIOSOLVEIT.LOGP>  (1267) 
5.1943799999999998

>  <r_sd_BIOSOLVEIT.MOLECULAR\_WEIGHT>  (1267) 
413.90600000000001

>  <r_sd_BIOSOLVEIT.TPSA>  (1267) 
56.130000000000003

>  <i_epik_Tot_Q>  (1267) 
0

>  <i_epik_Tot_abs_Q>  (1267) 
0

>  <i_f3d_flags>  (1267) 
0

>  <i_i_glide_confnum>  (1267) 
4

>  <i_i_glide_lignum>  (1267) 
948

>  <i_i_glide_posenum>  (1267) 
6

>  <i_i_glide_rotatable_bonds>  (1267) 
7

>  <i_lp_mmshare_version>  (1267) 
65135

>  <i_m_ct_format>  (1267) 
2

>  <i_m_source_file_index>  (1267) 
2346

>  <i_qp_#NandO>  (1267) 
4

>  <i_qp_#acid>  (1267) 
0

>  <i_qp_#amide>  (1267) 
0

>  <i_qp_#amidine>  (1267) 
0

>  <i_qp_#amine>  (1267) 
0

>  <i_qp_#in34>  (1267) 
0

>  <i_qp_#in56>  (1267) 
22

>  <i_qp_#metab>  (1267) 
7

>  <i_qp_#nonHatm>  (1267) 
30

>  <i_qp_#noncon>  (1267) 
0

>  <i_qp_#ringatoms>  (1267) 
22

>  <i_qp_#rotor>  (1267) 
8

>  <i_qp_#rtvFG>  (1267) 
0

>  <i_qp_#stars>  (1267) 
0

>  <i_qp_CNS>  (1267) 
0

>  <i_qp_HumanOralAbsorption>  (1267) 
3

>  <i_qp_RuleOfFive>  (1267) 
0

>  <i_qp_RuleOfThree>  (1267) 
1

>  <i_sd_BIOSOLVEIT.INFINISEE\_RESULT\_RANK>  (1267) 
15591

>  <i_sd_version>  (1267) 
0

>  <b_lp_Chiralities_Consistent>  (1267) 
1

>  <b_sd_chiral_flag>  (1267) 
0

>  <canonical_id>  (1267) 
ATP-HTVS-C8D8BA0AA9EF

>  <compound_code>  (1267) 
75042

>  <title>  (1267) 
rxn207____EMOL1096385____EMOL712348

>  <variant>  (1267) 
75042-1

>  <source_file>  (1267) 
运行/运行/ATP-VSW/ATP-VSW-DOCK_HTVS_1-002_lib.maegz

>  <canonical_smiles>  (1267) 
N#CCN(c1ccccc1)c1c(NCc2ccccc2)c(Cl)c(O)c2ccccc12

>  <scaffold>  (1267) 
c1ccc(CNc2ccc3ccccc3c2Nc2ccccc2)cc1

>  <molecular_formula>  (1267) 
C25H20ClN3O

$$$$
ATP-HTVS-C8F29258BF11
     RDKit          3D

 64 67  0  0  0  0  0  0  0  0999 V2000
  199.4996  175.9015  151.7326 O   0  0  0  0  0  0  0  0  0  0  0  0
  199.8374  176.8355  152.4633 C   0  0  0  0  0  0  0  0  0  0  0  0
  199.5737  178.1185  152.1514 N   0  0  0  0  0  0  0  0  0  0  0  0
  198.6037  178.5752  151.2014 C   0  0  0  0  0  0  0  0  0  0  0  0
  197.6392  179.5228  151.6120 C   0  0  0  0  0  0  0  0  0  0  0  0
  197.6189  180.0692  152.9145 N   0  0  0  0  0  0  0  0  0  0  0  0
  197.0431  181.3987  153.1041 C   0  0  1  0  0  0  0  0  0  0  0  0
  197.4315  182.0859  154.3968 C   0  0  0  0  0  0  0  0  0  0  0  0
  196.7587  181.7949  155.6005 C   0  0  0  0  0  0  0  0  0  0  0  0
  197.1204  182.4587  156.7915 C   0  0  0  0  0  0  0  0  0  0  0  0
  198.1595  183.4125  156.7759 C   0  0  0  0  0  0  0  0  0  0  0  0
  198.8269  183.7043  155.5722 C   0  0  0  0  0  0  0  0  0  0  0  0
  198.4628  183.0449  154.3843 C   0  0  0  0  0  0  0  0  0  0  0  0
  196.4166  182.1085  158.0938 C   0  0  1  0  0  0  0  0  0  0  0  0
  195.0043  182.5825  158.1041 N   0  0  2  0  0  0  0  0  0  0  0  0
  194.8358  183.9212  158.7197 C   0  0  2  0  0  0  0  0  0  0  0  0
  194.0926  181.5802  158.6884 C   0  0  2  0  0  0  0  0  0  0  0  0
  196.6732  179.9418  150.6602 C   0  0  0  0  0  0  0  0  0  0  0  0
  196.6456  179.5065  149.3859 N   0  0  0  0  0  0  0  0  0  0  0  0
  197.5922  178.6535  148.9637 C   0  0  0  0  0  0  0  0  0  0  0  0
  198.6187  178.1626  149.8335 C   0  0  0  0  0  0  0  0  0  0  0  0
  199.6070  177.2906  149.3234 C   0  0  0  0  0  0  0  0  0  0  0  0
  199.5574  176.8690  147.9702 C   0  0  0  0  0  0  0  0  0  0  0  0
  198.5469  177.3539  147.1175 C   0  0  0  0  0  0  0  0  0  0  0  0
  197.5838  178.2376  147.6155 C   0  0  0  0  0  0  0  0  0  0  0  0
  200.5576  176.6263  153.7831 C   0  0  0  0  0  0  0  0  0  0  0  0
  201.5309  175.5939  153.9690 C   0  0  0  0  0  0  0  0  0  0  0  0
  202.0372  175.3585  155.2760 C   0  0  0  0  0  0  0  0  0  0  0  0
  201.5967  176.1508  156.3545 C   0  0  0  0  0  0  0  0  0  0  0  0
  200.6551  177.1748  156.1668 C   0  0  0  0  0  0  0  0  0  0  0  0
  200.1373  177.4001  154.8864 C   0  0  0  0  0  0  0  0  0  0  0  0
  203.0477  174.2569  155.5538 C   0  0  2  0  0  0  0  0  0  0  0  0
  202.0124  174.7277  152.8004 C   0  0  2  0  0  0  0  0  0  0  0  0
  199.8796  178.7985  152.8286 H   0  0  0  0  0  0  0  0  0  0  0  0
  198.3263  179.7864  153.6024 H   0  0  0  0  0  0  0  0  0  0  0  0
  197.3648  182.0291  152.2827 H   0  0  0  0  0  0  0  0  0  0  0  0
  195.9466  181.3618  153.0553 H   0  0  0  0  0  0  0  0  0  0  0  0
  195.9627  181.0634  155.6058 H   0  0  0  0  0  0  0  0  0  0  0  0
  198.4619  183.9098  157.6845 H   0  0  0  0  0  0  0  0  0  0  0  0
  199.6242  184.4321  155.5623 H   0  0  0  0  0  0  0  0  0  0  0  0
  198.9758  183.2861  153.4618 H   0  0  0  0  0  0  0  0  0  0  0  0
  196.4902  181.0215  158.2202 H   0  0  0  0  0  0  0  0  0  0  0  0
  196.9667  182.5219  158.9533 H   0  0  0  0  0  0  0  0  0  0  0  0
  195.1430  183.9137  159.7655 H   0  0  0  0  0  0  0  0  0  0  0  0
  193.7960  184.2351  158.6808 H   0  0  0  0  0  0  0  0  0  0  0  0
  195.4304  184.6658  158.1952 H   0  0  0  0  0  0  0  0  0  0  0  0
  194.3453  181.3935  159.7380 H   0  0  0  0  0  0  0  0  0  0  0  0
  194.1317  180.6339  158.1424 H   0  0  0  0  0  0  0  0  0  0  0  0
  193.0577  181.9311  158.6168 H   0  0  0  0  0  0  0  0  0  0  0  0
  195.9003  180.6637  150.8788 H   0  0  0  0  0  0  0  0  0  0  0  0
  200.3941  176.8920  149.9707 H   0  0  0  0  0  0  0  0  0  0  0  0
  200.2972  176.1688  147.6063 H   0  0  0  0  0  0  0  0  0  0  0  0
  198.5265  177.0606  146.0833 H   0  0  0  0  0  0  0  0  0  0  0  0
  196.8242  178.6245  146.9522 H   0  0  0  0  0  0  0  0  0  0  0  0
  201.9989  175.9865  157.3405 H   0  0  0  0  0  0  0  0  0  0  0  0
  200.3123  177.7720  156.9991 H   0  0  0  0  0  0  0  0  0  0  0  0
  199.3681  178.1458  154.7772 H   0  0  0  0  0  0  0  0  0  0  0  0
  203.2217  174.1354  156.6250 H   0  0  0  0  0  0  0  0  0  0  0  0
  204.0005  174.5023  155.0838 H   0  0  0  0  0  0  0  0  0  0  0  0
  202.7024  173.2978  155.1621 H   0  0  0  0  0  0  0  0  0  0  0  0
  202.9799  174.2549  152.9809 H   0  0  0  0  0  0  0  0  0  0  0  0
  202.1373  175.3199  151.8974 H   0  0  0  0  0  0  0  0  0  0  0  0
  201.2954  173.9348  152.5900 H   0  0  0  0  0  0  0  0  0  0  0  0
  194.7040  182.6493  157.1433 H   0  0  0  0  0  0  0  0  0  0  0  0
  1  2  2  0
  2  3  1  0
  2 26  1  0
  3  4  1  0
  3 34  1  0
  4  5  2  0
  4 21  1  0
  5  6  1  0
  5 18  1  0
  6  7  1  0
  6 35  1  0
  7  8  1  0
  7 36  1  6
  7 37  1  0
  8  9  2  0
  8 13  1  0
  9 10  1  0
  9 38  1  0
 10 11  2  0
 10 14  1  0
 11 12  1  0
 11 39  1  0
 12 13  2  0
 12 40  1  0
 13 41  1  0
 14 15  1  0
 14 42  1  1
 14 43  1  0
 15 16  1  0
 15 17  1  0
 15 64  1  6
 16 44  1  1
 16 45  1  0
 16 46  1  0
 17 47  1  1
 17 48  1  0
 17 49  1  0
 18 19  2  0
 18 50  1  0
 19 20  1  0
 20 21  1  0
 20 25  2  0
 21 22  2  0
 22 23  1  0
 22 51  1  0
 23 24  2  0
 23 52  1  0
 24 25  1  0
 24 53  1  0
 25 54  1  0
 26 27  2  0
 26 31  1  0
 27 28  1  0
 27 33  1  0
 28 29  2  0
 28 32  1  0
 29 30  1  0
 29 55  1  0
 30 31  2  0
 30 56  1  0
 31 57  1  0
 32 58  1  1
 32 59  1  0
 32 60  1  0
 33 61  1  1
 33 62  1  0
 33 63  1  0
M  CHG  1  15   1
M  END
>  <s_epik_cmdline>  (1268) 
J2VwaWtfcHl0aG9uJywgJy1waCcsICc3LjAwMDAwMCcsICctcGh0JywgJzIuMDAwMDAwJywgJy1tcycsICcxNicsICctdG4nLCAnOCcsICctbWEnLCAnMjAwJywgJy1pbWFlJywgJzxpbmZpbGUubWFlPicsICctb21hZScsICc8b3V0ZmlsZS5tYWU+Jw==

>  <s_epik_input>  (1268) 
W2NIXTFbY0hdW2NIXWMoW0NIM10pYyhbQ0gzXSljMUMoPU8pW05IXWMoYyhjMjMpW2NIXVtjSF1bY0hdW2NIXTMpYyhbY0hdbjIpW05IXVtDSDJdYzRbY0hdYyhbY0hdW2NIXVtjSF00KVtDSDJdTihbQ0gzXSlbQ0gzXQ==

>  <s_i_glide_gridfile>  (1268) 
ATP-Grid

>  <s_lp_Force_Field>  (1268) 
OPLS_2005

>  <s_lp_Variant>  (1268) 
rxn502b____EMOL723163____EMOL13728749____EMOL2873214-1

>  <s_lp_label>  (1268) 
2406_sdstereoexpander_1_neutralizer_1_epik_1_stereoizer_1

>  <s_m_source_file>  (1268) 
ATP-VSW-LIGPREP-002-in.maegz

>  <s_sd_BIOSOLVEIT.INFINISEE\_QUERY\_NAME>  (1268) 
Ref-Lig

>  <s_sd_BIOSOLVEIT.INFINISEE\_QUERY\_SMILES>  (1268) 
S(c1nc2c(cc1C[NH2+]Cc3ccc(cc3)C[NH+](C)C)cccc2)Cc4ccccc4

>  <s_sd_BIOSOLVEIT.INFINISEE\_REACTION\_NAME>  (1268) 
rxn502b

>  <s_sd_BIOSOLVEIT.INFINISEE\_REAGENT1\_NAME>  (1268) 
EMOL723163

>  <s_sd_BIOSOLVEIT.INFINISEE\_REAGENT1\_SMILES>  (1268) 
ClC(=O)c1c(c(ccc1)C)C

>  <s_sd_BIOSOLVEIT.INFINISEE\_REAGENT2\_NAME>  (1268) 
EMOL13728749

>  <s_sd_BIOSOLVEIT.INFINISEE\_REAGENT2\_SMILES>  (1268) 
Brc1c(N)c2c(nc1)cccc2

>  <s_sd_BIOSOLVEIT.INFINISEE\_REAGENT3\_NAME>  (1268) 
EMOL2873214

>  <s_sd_BIOSOLVEIT.INFINISEE\_REAGENT3\_SMILES>  (1268) 
N(Cc1cc(ccc1)CN)(C)C

>  <s_sd_BIOSOLVEIT.INFINISEE\_SPACE>  (1268) 
eXplore_7tr_2022-12

>  <s_vsw_compound_code>  (1268) 
76962

>  <s_vsw_variant>  (1268) 
76962-1

>  <r_epik_Charging_Adjusted_Penalty>  (1268) 
0.127426369452352

>  <r_epik_Ionization_Penalty>  (1268) 
0.083299999999999999

>  <r_epik_Ionization_Penalty_Charging>  (1268) 
0.0441

>  <r_epik_Ionization_Penalty_Neutral>  (1268) 
0.039199999999999999

>  <r_epik_State_Penalty>  (1268) 
0.083299999999999999

>  <r_i_docking_score>  (1268) 
-4.4975141468472204

>  <r_i_glide_ecoul>  (1268) 
-7.4887137413024902

>  <r_i_glide_eff_state_penalty>  (1268) 
0.083299999999999999

>  <r_i_glide_einternal>  (1268) 
4.9661774635314897

>  <r_i_glide_emodel>  (1268) 
-60.162849800959897

>  <r_i_glide_energy>  (1268) 
-44.621606349945097

>  <r_i_glide_erotb>  (1268) 
0.72307743106600597

>  <r_i_glide_esite>  (1268) 
-0.083222734231070405

>  <r_i_glide_evdw>  (1268) 
-37.132892608642599

>  <r_i_glide_gscore>  (1268) 
-4.5808141468472199

>  <r_i_glide_hbond>  (1268) 
-0.20000000000000001

>  <r_i_glide_ligand_efficiency>  (1268) 
-0.136288307480219

>  <r_i_glide_ligand_efficiency_ln>  (1268) 
-1.00022385937686

>  <r_i_glide_ligand_efficiency_sa>  (1268) 
-0.43714942451033001

>  <r_i_glide_lipo>  (1268) 
-1.55450872868431

>  <r_i_glide_metal>  (1268) 
-0

>  <r_i_glide_rewards>  (1268) 
-0.48620842337033998

>  <r_lp_Energy>  (1268) 
39.456369000000002

>  <r_qp_ACxDN^.5/SA>  (1268) 
0.0123686

>  <r_qp_CIQPlogS>  (1268) 
-5.7450000000000001

>  <r_qp_EA(eV)>  (1268) 
0.91600000000000004

>  <r_qp_FISA>  (1268) 
45.668999999999997

>  <r_qp_FOSA>  (1268) 
328.74200000000002

>  <r_qp_IP(eV)>  (1268) 
8.5410000000000004

>  <r_qp_Jm>  (1268) 
0.016515687412389998

>  <r_qp_PISA>  (1268) 
368.79300000000001

>  <r_qp_PSA>  (1268) 
55.258000000000003

>  <r_qp_PercentHumanOralAbsorption>  (1268) 
100

>  <r_qp_QPPCaco>  (1268) 
911.42899999999997

>  <r_qp_QPPMDCK>  (1268) 
495.10199999999998

>  <r_qp_QPlogBB>  (1268) 
0.088999999999999996

>  <r_qp_QPlogHERG>  (1268) 
-6.9100000000000001

>  <r_qp_QPlogKhsa>  (1268) 
0.86499999999999999

>  <r_qp_QPlogKp>  (1268) 
-2.4529999999999998

>  <r_qp_QPlogPC16>  (1268) 
14.728999999999999

>  <r_qp_QPlogPo/w>  (1268) 
4.9169999999999998

>  <r_qp_QPlogPoct>  (1268) 
22.971

>  <r_qp_QPlogPw>  (1268) 
12.115

>  <r_qp_QPlogS>  (1268) 
-4.9720000000000004

>  <r_qp_QPpolrz>  (1268) 
49.610999999999997

>  <r_qp_SASA>  (1268) 
743.20399999999995

>  <r_qp_SAamideO>  (1268) 
0

>  <r_qp_SAfluorine>  (1268) 
0

>  <r_qp_WPSA>  (1268) 
0

>  <r_qp_accptHB>  (1268) 
6.5

>  <r_qp_dip^2/V>  (1268) 
0.0172807

>  <r_qp_dipole>  (1268) 
4.9500000000000002

>  <r_qp_donorHB>  (1268) 
2

>  <r_qp_glob>  (1268) 
0.82120850000000001

>  <r_qp_mol_MW>  (1268) 
438.57100000000003

>  <r_qp_volume>  (1268) 
1417.7339999999999

>  <r_sd_BIOSOLVEIT.INFINISEE\_FTREES\_SIMILARITY>  (1268) 
0.91800000000000004

>  <r_sd_BIOSOLVEIT.LOGP>  (1268) 
4.3605400000000003

>  <r_sd_BIOSOLVEIT.MOLECULAR\_WEIGHT>  (1268) 
439.57999999999998

>  <r_sd_BIOSOLVEIT.TPSA>  (1268) 
58.460000000000001

>  <i_epik_Tot_Q>  (1268) 
1

>  <i_epik_Tot_abs_Q>  (1268) 
1

>  <i_f3d_flags>  (1268) 
0

>  <i_i_glide_confnum>  (1268) 
5

>  <i_i_glide_lignum>  (1268) 
1010

>  <i_i_glide_posenum>  (1268) 
15

>  <i_i_glide_rotatable_bonds>  (1268) 
8

>  <i_lp_mmshare_version>  (1268) 
65135

>  <i_m_ct_format>  (1268) 
2

>  <i_m_source_file_index>  (1268) 
2406

>  <i_qp_#NandO>  (1268) 
5

>  <i_qp_#acid>  (1268) 
0

>  <i_qp_#amide>  (1268) 
0

>  <i_qp_#amidine>  (1268) 
0

>  <i_qp_#amine>  (1268) 
1

>  <i_qp_#in34>  (1268) 
0

>  <i_qp_#in56>  (1268) 
22

>  <i_qp_#metab>  (1268) 
8

>  <i_qp_#nonHatm>  (1268) 
33

>  <i_qp_#noncon>  (1268) 
0

>  <i_qp_#ringatoms>  (1268) 
22

>  <i_qp_#rotor>  (1268) 
7

>  <i_qp_#rtvFG>  (1268) 
0

>  <i_qp_#stars>  (1268) 
0

>  <i_qp_CNS>  (1268) 
1

>  <i_qp_HumanOralAbsorption>  (1268) 
3

>  <i_qp_RuleOfFive>  (1268) 
0

>  <i_qp_RuleOfThree>  (1268) 
1

>  <i_sd_BIOSOLVEIT.INFINISEE\_RESULT\_RANK>  (1268) 
21107

>  <i_sd_version>  (1268) 
0

>  <b_lp_Chiralities_Consistent>  (1268) 
1

>  <b_sd_chiral_flag>  (1268) 
0

>  <canonical_id>  (1268) 
ATP-HTVS-C8F29258BF11

>  <compound_code>  (1268) 
76962

>  <title>  (1268) 
rxn502b____EMOL723163____EMOL13728749____EMOL2873214

>  <variant>  (1268) 
76962-1

>  <source_file>  (1268) 
运行/运行/ATP-VSW/ATP-VSW-DOCK_HTVS_1-002_lib.maegz

>  <canonical_smiles>  (1268) 
Cc1cccc(C(=O)Nc2c(NCc3cccc(C[NH+](C)C)c3)cnc3ccccc23)c1C

>  <scaffold>  (1268) 
O=C(Nc1c(NCc2ccccc2)cnc2ccccc12)c1ccccc1

>  <molecular_formula>  (1268) 
C28H31N4O+

$$$$
ATP-HTVS-C9013CEACAA9
     RDKit          3D

 55 58  0  0  0  0  0  0  0  0999 V2000
  199.5366  178.6130  153.0209 S   0  0  0  0  0  0  0  0  0  0  0  0
  198.5030  178.7866  151.6133 C   0  0  0  0  0  0  0  0  0  0  0  0
  197.7090  179.9762  151.7014 C   0  0  0  0  0  0  0  0  0  0  0  0
  196.8383  180.2349  150.6119 C   0  0  0  0  0  0  0  0  0  0  0  0
  196.7581  179.3771  149.4985 C   0  0  0  0  0  0  0  0  0  0  0  0
  197.5504  178.2183  149.4454 C   0  0  0  0  0  0  0  0  0  0  0  0
  198.4214  177.9203  150.5073 C   0  0  0  0  0  0  0  0  0  0  0  0
  197.9654  180.7258  152.9168 C   0  0  0  0  0  0  0  0  0  0  0  0
  198.9143  180.0879  153.6882 C   0  0  0  0  0  0  0  0  0  0  0  0
  197.3203  182.0413  153.2559 C   0  0  2  0  0  0  0  0  0  0  0  0
  198.0134  183.2721  152.9219 N   0  0  0  0  0  0  0  0  0  0  0  0
  198.0567  183.4818  151.4839 C   0  0  1  0  0  0  0  0  0  0  0  0
  196.7045  183.6902  150.9304 C   0  0  0  0  0  0  0  0  0  0  0  0
  195.6407  183.8449  150.5000 N   0  0  0  0  0  0  0  0  0  0  0  0
  198.9858  184.6194  151.0996 C   0  0  0  0  0  0  0  0  0  0  0  0
  200.0250  184.4007  150.1701 C   0  0  0  0  0  0  0  0  0  0  0  0
  200.9058  185.4464  149.8315 C   0  0  0  0  0  0  0  0  0  0  0  0
  200.7505  186.7146  150.4210 C   0  0  0  0  0  0  0  0  0  0  0  0
  199.7043  186.9429  151.3358 C   0  0  0  0  0  0  0  0  0  0  0  0
  198.8227  185.8987  151.6729 C   0  0  0  0  0  0  0  0  0  0  0  0
  197.0209  182.0657  154.6760 C   0  0  0  0  0  0  0  0  0  0  0  0
  196.7762  181.9284  155.8763 C   0  0  0  0  0  0  0  0  0  0  0  0
  196.5991  181.9328  157.3178 C   0  0  1  0  0  0  0  0  0  0  0  0
  195.1567  181.7975  157.5598 N   0  0  1  0  0  0  0  0  0  0  0  0
  194.7026  182.2041  158.9295 C   0  0  1  0  0  0  0  0  0  0  0  0
  195.2532  183.5507  159.4176 C   0  0  0  0  0  0  0  0  0  0  0  0
  196.6340  183.7805  159.5460 C   0  0  0  0  0  0  0  0  0  0  0  0
  197.1613  185.0319  159.7900 C   0  0  0  0  0  0  0  0  0  0  0  0
  196.2883  186.0727  160.1253 C   0  0  0  0  0  0  0  0  0  0  0  0
  194.8942  185.8486  160.1311 C   0  0  0  0  0  0  0  0  0  0  0  0
  194.3753  184.6002  159.7236 C   0  0  0  0  0  0  0  0  0  0  0  0
  197.5763  184.0569  153.3841 H   0  0  0  0  0  0  0  0  0  0  0  0
  194.6418  182.4162  156.8644 H   0  0  0  0  0  0  0  0  0  0  0  0
  196.2193  181.1175  150.6254 H   0  0  0  0  0  0  0  0  0  0  0  0
  196.0841  179.6046  148.6854 H   0  0  0  0  0  0  0  0  0  0  0  0
  197.4844  177.5518  148.5974 H   0  0  0  0  0  0  0  0  0  0  0  0
  199.0340  177.0309  150.4753 H   0  0  0  0  0  0  0  0  0  0  0  0
  199.2906  180.4124  154.6471 H   0  0  0  0  0  0  0  0  0  0  0  0
  196.3136  182.0710  152.8440 H   0  0  0  0  0  0  0  0  0  0  0  0
  198.4306  182.5734  151.0121 H   0  0  0  0  0  0  0  0  0  0  0  0
  200.1605  183.4296  149.7178 H   0  0  0  0  0  0  0  0  0  0  0  0
  201.7083  185.2765  149.1270 H   0  0  0  0  0  0  0  0  0  0  0  0
  201.4255  187.5185  150.1624 H   0  0  0  0  0  0  0  0  0  0  0  0
  199.5809  187.9199  151.7812 H   0  0  0  0  0  0  0  0  0  0  0  0
  198.0279  186.0822  152.3808 H   0  0  0  0  0  0  0  0  0  0  0  0
  197.1719  181.1288  157.8287 H   0  0  0  0  0  0  0  0  0  0  0  0
  196.9873  182.8841  157.4333 H   0  0  0  0  0  0  0  0  0  0  0  0
  193.6113  182.2325  158.9308 H   0  0  0  0  0  0  0  0  0  0  0  0
  194.9905  181.4336  159.6393 H   0  0  0  0  0  0  0  0  0  0  0  0
  197.3700  182.9819  159.3793 H   0  0  0  0  0  0  0  0  0  0  0  0
  198.2363  185.1811  159.7494 H   0  0  0  0  0  0  0  0  0  0  0  0
  196.7019  187.0365  160.4248 H   0  0  0  0  0  0  0  0  0  0  0  0
  194.2297  186.6387  160.4343 H   0  0  0  0  0  0  0  0  0  0  0  0
  193.2967  184.4449  159.7239 H   0  0  0  0  0  0  0  0  0  0  0  0
  194.8848  180.8544  157.4002 H   0  0  0  0  0  0  0  0  0  0  0  0
  1  2  1  0
  1  9  1  0
  2  3  1  0
  2  7  2  0
  3  4  2  0
  3  8  1  0
  4  5  1  0
  4 34  1  0
  5  6  2  0
  5 35  1  0
  6  7  1  0
  6 36  1  0
  7 37  1  0
  8  9  2  0
  8 10  1  0
  9 38  1  0
 10 11  1  0
 10 21  1  0
 10 39  1  6
 11 12  1  0
 11 32  1  0
 12 13  1  0
 12 15  1  0
 12 40  1  6
 13 14  3  0
 15 16  2  0
 15 20  1  0
 16 17  1  0
 16 41  1  0
 17 18  2  0
 17 42  1  0
 18 19  1  0
 18 43  1  0
 19 20  2  0
 19 44  1  0
 20 45  1  0
 21 22  3  0
 22 23  1  0
 23 24  1  0
 23 46  1  1
 23 47  1  0
 24 25  1  0
 24 33  1  6
 24 55  1  0
 25 26  1  0
 25 48  1  6
 25 49  1  0
 26 27  2  0
 26 31  1  0
 27 28  1  0
 27 50  1  0
 28 29  2  0
 28 51  1  0
 29 30  1  0
 29 52  1  0
 30 31  2  0
 30 53  1  0
 31 54  1  0
M  CHG  1  24   1
M  END
>  <s_epik_cmdline>  (1269) 
J2VwaWtfcHl0aG9uJywgJy1waCcsICc3LjAwMDAwMCcsICctcGh0JywgJzIuMDAwMDAwJywgJy1tcycsICcxNicsICctdG4nLCAnOCcsICctbWEnLCAnMjAwJywgJy1pbWFlJywgJzxpbmZpbGUubWFlPicsICctb21hZScsICc8b3V0ZmlsZS5tYWU+Jw==

>  <s_epik_input>  (1269) 
W2NIXTFbY0hdW2NIXVtjSF1bY0hdYzFbQ0BIXShDI04pW05IXVtDQEBIXShjKFtjSF1zMiljKGMyMylbY0hdW2NIXVtjSF1bY0hdMylDI0NbQ0gyXVtOSF1bQ0gyXWM0W2NIXVtjSF1bY0hdW2NIXVtjSF00

>  <s_i_glide_gridfile>  (1269) 
ATP-Grid

>  <s_lp_Force_Field>  (1269) 
OPLS_2005

>  <s_lp_Variant>  (1269) 
rxn403____EMOL44390368____EMOL514874____EMOL1197208-5

>  <s_lp_label>  (1269) 
2478_sdstereoexpander_1_neutralizer_1_epik_2_stereoizer_1

>  <s_m_source_file>  (1269) 
ATP-VSW-LIGPREP-002-in.maegz

>  <s_sd_BIOSOLVEIT.INFINISEE\_QUERY\_NAME>  (1269) 
Ref-Lig

>  <s_sd_BIOSOLVEIT.INFINISEE\_QUERY\_SMILES>  (1269) 
S(c1nc2c(cc1C[NH2+]Cc3ccc(cc3)C[NH+](C)C)cccc2)Cc4ccccc4

>  <s_sd_BIOSOLVEIT.INFINISEE\_REACTION\_NAME>  (1269) 
rxn403

>  <s_sd_BIOSOLVEIT.INFINISEE\_REAGENT1\_NAME>  (1269) 
EMOL44390368

>  <s_sd_BIOSOLVEIT.INFINISEE\_REAGENT1\_SMILES>  (1269) 
N#CC(N)c1ccccc1

>  <s_sd_BIOSOLVEIT.INFINISEE\_REAGENT2\_NAME>  (1269) 
EMOL514874

>  <s_sd_BIOSOLVEIT.INFINISEE\_REAGENT2\_SMILES>  (1269) 
S1c2c(cccc2)C(=C1)C=O

>  <s_sd_BIOSOLVEIT.INFINISEE\_REAGENT3\_NAME>  (1269) 
EMOL1197208

>  <s_sd_BIOSOLVEIT.INFINISEE\_REAGENT3\_SMILES>  (1269) 
N(CC#C)Cc1ccccc1

>  <s_sd_BIOSOLVEIT.INFINISEE\_SPACE>  (1269) 
eXplore_7tr_2022-12

>  <s_vsw_compound_code>  (1269) 
79266

>  <s_vsw_variant>  (1269) 
79266-5

>  <r_epik_Charging_Adjusted_Penalty>  (1269) 
1.16235371140576

>  <r_epik_Ionization_Penalty>  (1269) 
0.58199999999999996

>  <r_epik_Ionization_Penalty_Charging>  (1269) 
0.58120000000000005

>  <r_epik_Ionization_Penalty_Neutral>  (1269) 
0.00080000000000000004

>  <r_epik_State_Penalty>  (1269) 
0.58120000000000005

>  <r_i_docking_score>  (1269) 
-5.7496857266155397

>  <r_i_glide_ecoul>  (1269) 
-13.147701263427701

>  <r_i_glide_eff_state_penalty>  (1269) 
0.58120000000000005

>  <r_i_glide_einternal>  (1269) 
6.4264702796936

>  <r_i_glide_emodel>  (1269) 
-72.5942283250522

>  <r_i_glide_energy>  (1269) 
-48.041694641113303

>  <r_i_glide_erotb>  (1269) 
0.66570597144055599

>  <r_i_glide_esite>  (1269) 
-0.10000000000000001

>  <r_i_glide_evdw>  (1269) 
-34.893993377685497

>  <r_i_glide_gscore>  (1269) 
-6.3308857266155396

>  <r_i_glide_hbond>  (1269) 
-0.55069662908682504

>  <r_i_glide_ligand_efficiency>  (1269) 
-0.18547373311663001

>  <r_i_glide_ligand_efficiency_ln>  (1269) 
-1.2967303380577

>  <r_i_glide_ligand_efficiency_sa>  (1269) 
-0.58264359607245697

>  <r_i_glide_lipo>  (1269) 
-1.9848181762057699

>  <r_i_glide_metal>  (1269) 
-0

>  <r_i_glide_rewards>  (1269) 
-0.64422203436505998

>  <r_lp_Energy>  (1269) 
15.617568

>  <r_qp_ACxDN^.5/SA>  (1269) 
0.0082196999999999999

>  <r_qp_CIQPlogS>  (1269) 
-6.0590000000000002

>  <r_qp_EA(eV)>  (1269) 
0.64300000000000002

>  <r_qp_FISA>  (1269) 
96.183000000000007

>  <r_qp_FOSA>  (1269) 
103.809

>  <r_qp_IP(eV)>  (1269) 
8.7810000000000006

>  <r_qp_Jm>  (1269) 
2.52902554162053e-05

>  <r_qp_PISA>  (1269) 
535.74599999999998

>  <r_qp_PSA>  (1269) 
51.756999999999998

>  <r_qp_PercentHumanOralAbsorption>  (1269) 
89.775999999999996

>  <r_qp_QPPCaco>  (1269) 
75.439999999999998

>  <r_qp_QPPMDCK>  (1269) 
60.228000000000002

>  <r_qp_QPlogBB>  (1269) 
-0.20699999999999999

>  <r_qp_QPlogHERG>  (1269) 
-9.1319999999999997

>  <r_qp_QPlogKhsa>  (1269) 
1.012

>  <r_qp_QPlogKp>  (1269) 
-4.5700000000000003

>  <r_qp_QPlogPC16>  (1269) 
16.454000000000001

>  <r_qp_QPlogPo/w>  (1269) 
4.9909999999999997

>  <r_qp_QPlogPoct>  (1269) 
21.867000000000001

>  <r_qp_QPlogPw>  (1269) 
11.050000000000001

>  <r_qp_QPlogS>  (1269) 
-5.6520000000000001

>  <r_qp_QPpolrz>  (1269) 
48.170000000000002

>  <r_qp_SASA>  (1269) 
774.23199999999997

>  <r_qp_SAamideO>  (1269) 
0

>  <r_qp_SAfluorine>  (1269) 
0

>  <r_qp_WPSA>  (1269) 
38.494

>  <r_qp_accptHB>  (1269) 
4.5

>  <r_qp_dip^2/V>  (1269) 
0.023228800000000001

>  <r_qp_dipole>  (1269) 
5.6820000000000004

>  <r_qp_donorHB>  (1269) 
2

>  <r_qp_glob>  (1269) 
0.77798809999999996

>  <r_qp_mol_MW>  (1269) 
421.55900000000003

>  <r_qp_volume>  (1269) 
1390.011

>  <r_sd_BIOSOLVEIT.INFINISEE\_FTREES\_SIMILARITY>  (1269) 
0.91500000000000004

>  <r_sd_BIOSOLVEIT.LOGP>  (1269) 
3.5376799999999999

>  <r_sd_BIOSOLVEIT.MOLECULAR\_WEIGHT>  (1269) 
423.58100000000002

>  <r_sd_BIOSOLVEIT.TPSA>  (1269) 
57.009999999999998

>  <i_epik_Tot_Q>  (1269) 
1

>  <i_epik_Tot_abs_Q>  (1269) 
1

>  <i_f3d_flags>  (1269) 
0

>  <i_i_glide_confnum>  (1269) 
6

>  <i_i_glide_lignum>  (1269) 
1072

>  <i_i_glide_posenum>  (1269) 
13

>  <i_i_glide_rotatable_bonds>  (1269) 
9

>  <i_lp_mmshare_version>  (1269) 
65135

>  <i_m_ct_format>  (1269) 
2

>  <i_m_source_file_index>  (1269) 
2478

>  <i_qp_#NandO>  (1269) 
3

>  <i_qp_#acid>  (1269) 
0

>  <i_qp_#amide>  (1269) 
0

>  <i_qp_#amidine>  (1269) 
0

>  <i_qp_#amine>  (1269) 
2

>  <i_qp_#in34>  (1269) 
0

>  <i_qp_#in56>  (1269) 
21

>  <i_qp_#metab>  (1269) 
8

>  <i_qp_#nonHatm>  (1269) 
31

>  <i_qp_#noncon>  (1269) 
0

>  <i_qp_#ringatoms>  (1269) 
21

>  <i_qp_#rotor>  (1269) 
10

>  <i_qp_#rtvFG>  (1269) 
0

>  <i_qp_#stars>  (1269) 
1

>  <i_qp_CNS>  (1269) 
1

>  <i_qp_HumanOralAbsorption>  (1269) 
3

>  <i_qp_RuleOfFive>  (1269) 
0

>  <i_qp_RuleOfThree>  (1269) 
1

>  <i_sd_BIOSOLVEIT.INFINISEE\_RESULT\_RANK>  (1269) 
28558

>  <i_sd_version>  (1269) 
0

>  <b_lp_Chiralities_Consistent>  (1269) 
1

>  <b_sd_chiral_flag>  (1269) 
0

>  <canonical_id>  (1269) 
ATP-HTVS-C9013CEACAA9

>  <compound_code>  (1269) 
79266

>  <title>  (1269) 
rxn403____EMOL44390368____EMOL514874____EMOL1197208

>  <variant>  (1269) 
79266-5

>  <source_file>  (1269) 
运行/运行/ATP-VSW/ATP-VSW-DOCK_HTVS_1-002_lib.maegz

>  <canonical_smiles>  (1269) 
N#C[C@H](N[C@H](C#CC[NH2+]Cc1ccccc1)c1csc2ccccc12)c1ccccc1

>  <scaffold>  (1269) 
C(#CC(NCc1ccccc1)c1csc2ccccc12)C[NH2+]Cc1ccccc1

>  <molecular_formula>  (1269) 
C27H24N3S+

$$$$
ATP-HTVS-C924AED67E53
     RDKit          3D

 55 58  0  0  0  0  0  0  0  0999 V2000
  194.9917  181.4587  158.9537 O   0  0  0  0  0  0  0  0  0  0  0  0
  195.7279  182.5786  158.6511 C   0  0  0  0  0  0  0  0  0  0  0  0
  196.4411  182.7025  157.4340 C   0  0  0  0  0  0  0  0  0  0  0  0
  197.1666  183.8849  157.1747 C   0  0  0  0  0  0  0  0  0  0  0  0
  197.1972  184.9338  158.1255 C   0  0  0  0  0  0  0  0  0  0  0  0
  196.4843  184.7946  159.3345 C   0  0  0  0  0  0  0  0  0  0  0  0
  195.7552  183.6249  159.5885 C   0  0  0  0  0  0  0  0  0  0  0  0
  197.9819  186.1886  157.8558 C   0  0  2  0  0  0  0  0  0  0  0  0
  196.3895  181.5878  156.3898 C   0  0  1  0  0  0  0  0  0  0  0  0
  197.5155  180.6407  156.5271 N   0  0  1  0  0  0  0  0  0  0  0  0
  198.6202  180.9310  155.6008 C   0  0  1  0  0  0  0  0  0  0  0  0
  199.6943  179.8700  155.7992 C   0  0  0  0  0  0  0  0  0  0  0  0
  200.8719  179.8270  156.6287 C   0  0  0  0  0  0  0  0  0  0  0  0
  201.4944  178.6546  156.5023 N   0  0  0  0  0  0  0  0  0  0  0  0
  200.7808  177.9162  155.6165 N   0  0  0  0  0  0  0  0  0  0  0  0
  201.1723  176.5957  155.2481 C   0  0  0  0  0  0  0  0  0  0  0  0
  201.9729  175.8108  156.1103 C   0  0  0  0  0  0  0  0  0  0  0  0
  202.3610  174.5133  155.7321 C   0  0  0  0  0  0  0  0  0  0  0  0
  201.9487  173.9818  154.4995 C   0  0  0  0  0  0  0  0  0  0  0  0
  201.1565  174.7583  153.6339 C   0  0  0  0  0  0  0  0  0  0  0  0
  200.7665  176.0576  154.0020 C   0  0  0  0  0  0  0  0  0  0  0  0
  199.6840  178.6402  155.1868 C   0  0  0  0  0  0  0  0  0  0  0  0
  201.4495  180.8561  157.5403 C   0  0  0  0  0  0  0  0  0  0  0  0
  202.3683  180.4659  158.5632 C   0  0  0  0  0  0  0  0  0  0  0  0
  202.8835  181.4270  159.4830 C   0  0  0  0  0  0  0  0  0  0  0  0
  202.4410  182.7731  159.3976 C   0  0  0  0  0  0  0  0  0  0  0  0
  201.5479  183.1506  158.3837 C   0  0  0  0  0  0  0  0  0  0  0  0
  201.1043  182.2329  157.4208 C   0  0  0  0  0  0  0  0  0  0  0  0
  202.9701  183.8403  160.3251 C   0  0  2  0  0  0  0  0  0  0  0  0
  197.8229  180.6628  157.4933 H   0  0  0  0  0  0  0  0  0  0  0  0
  195.1634  180.6804  158.4326 H   0  0  0  0  0  0  0  0  0  0  0  0
  197.6941  183.9982  156.2376 H   0  0  0  0  0  0  0  0  0  0  0  0
  196.4991  185.5905  160.0702 H   0  0  0  0  0  0  0  0  0  0  0  0
  195.2100  183.5215  160.5191 H   0  0  0  0  0  0  0  0  0  0  0  0
  197.3420  187.0662  157.9539 H   0  0  0  0  0  0  0  0  0  0  0  0
  198.4063  186.1879  156.8515 H   0  0  0  0  0  0  0  0  0  0  0  0
  198.7989  186.2768  158.5724 H   0  0  0  0  0  0  0  0  0  0  0  0
  195.4527  181.0495  156.5013 H   0  0  0  0  0  0  0  0  0  0  0  0
  196.3488  182.0244  155.3886 H   0  0  0  0  0  0  0  0  0  0  0  0
  198.2748  180.9016  154.5436 H   0  0  0  0  0  0  0  0  0  0  0  0
  198.8644  181.9572  155.8395 H   0  0  0  0  0  0  0  0  0  0  0  0
  202.3019  176.2172  157.0567 H   0  0  0  0  0  0  0  0  0  0  0  0
  202.9778  173.9243  156.3994 H   0  0  0  0  0  0  0  0  0  0  0  0
  202.2376  172.9789  154.2180 H   0  0  0  0  0  0  0  0  0  0  0  0
  200.8345  174.3542  152.6843 H   0  0  0  0  0  0  0  0  0  0  0  0
  200.1612  176.6447  153.3276 H   0  0  0  0  0  0  0  0  0  0  0  0
  198.9856  178.2139  154.4720 H   0  0  0  0  0  0  0  0  0  0  0  0
  202.7149  179.4390  158.6561 H   0  0  0  0  0  0  0  0  0  0  0  0
  203.6114  181.1316  160.2424 H   0  0  0  0  0  0  0  0  0  0  0  0
  201.2206  184.1702  158.2782 H   0  0  0  0  0  0  0  0  0  0  0  0
  200.5524  182.6770  156.6338 H   0  0  0  0  0  0  0  0  0  0  0  0
  202.3069  184.7158  160.2959 H   0  0  0  0  0  0  0  0  0  0  0  0
  203.9689  184.1472  159.9850 H   0  0  0  0  0  0  0  0  0  0  0  0
  203.0024  183.4422  161.3447 H   0  0  0  0  0  0  0  0  0  0  0  0
  197.1328  179.6819  156.4377 H   0  0  0  0  0  0  0  0  0  0  0  0
  1  2  1  0
  1 31  1  0
  2  3  2  0
  2  7  1  0
  3  4  1  0
  3  9  1  0
  4  5  2  0
  4 32  1  0
  5  6  1  0
  5  8  1  0
  6  7  2  0
  6 33  1  0
  7 34  1  0
  8 35  1  6
  8 36  1  0
  8 37  1  0
  9 10  1  0
  9 38  1  1
  9 39  1  0
 10 11  1  0
 10 30  1  1
 10 55  1  0
 11 12  1  0
 11 40  1  6
 11 41  1  0
 12 13  1  0
 12 22  2  0
 13 14  2  0
 13 23  1  0
 14 15  1  0
 15 16  1  0
 15 22  1  0
 16 17  2  0
 16 21  1  0
 17 18  1  0
 17 42  1  0
 18 19  2  0
 18 43  1  0
 19 20  1  0
 19 44  1  0
 20 21  2  0
 20 45  1  0
 21 46  1  0
 22 47  1  0
 23 24  1  0
 23 28  2  0
 24 25  2  0
 24 48  1  0
 25 26  1  0
 25 49  1  0
 26 27  2  0
 26 29  1  0
 27 28  1  0
 27 50  1  0
 28 51  1  0
 29 52  1  1
 29 53  1  0
 29 54  1  0
M  CHG  1  10   1
M  END
>  <s_epik_cmdline>  (1270) 
J2VwaWtfcHl0aG9uJywgJy1waCcsICc3LjAwMDAwMCcsICctcGh0JywgJzIuMDAwMDAwJywgJy1tcycsICcxNicsICctdG4nLCAnOCcsICctbWEnLCAnMjAwJywgJy1pbWFlJywgJzxpbmZpbGUubWFlPicsICctb21hZScsICc8b3V0ZmlsZS5tYWU+Jw==

>  <s_epik_input>  (1270) 
W2NIXTFbY0hdYyhbQ0gzXSlbY0hdYyhjMVtPSF0pW0NIMl1bTkhdW0NIMl1jMmMoLWMzW2NIXVtjSF1jKFtDSDNdKVtjSF1bY0hdMylubihbY0hdMiktYzRbY0hdW2NIXVtjSF1bY0hdW2NIXTQ=

>  <s_i_glide_gridfile>  (1270) 
ATP-Grid

>  <s_lp_Force_Field>  (1270) 
OPLS_2005

>  <s_lp_Variant>  (1270) 
m_270004bbb____12219548____7547744-1

>  <s_lp_label>  (1270) 
1746_sdstereoexpander_1_neutralizer_1_epik_1_stereoizer_1

>  <s_m_source_file>  (1270) 
ATP-VSW-LIGPREP-001-in.maegz

>  <s_sd_BIOSOLVEIT.INFINISEE\_QUERY\_NAME>  (1270) 
Ref-Lig

>  <s_sd_BIOSOLVEIT.INFINISEE\_QUERY\_SMILES>  (1270) 
S(c1nc2c(cc1C[NH2+]Cc3ccc(cc3)C[NH+](C)C)cccc2)Cc4ccccc4

>  <s_sd_BIOSOLVEIT.INFINISEE\_REACTION\_NAME>  (1270) 
m_270004bbb

>  <s_sd_BIOSOLVEIT.INFINISEE\_REAGENT1\_SMILES>  (1270) 
[R1*]NCc1c(O)ccc(c1)C

>  <s_sd_BIOSOLVEIT.INFINISEE\_REAGENT2\_SMILES>  (1270) 
[R1*]CC=1C(=NN(c2ccccc2)C1)c3ccc(cc3)C

>  <s_sd_BIOSOLVEIT.INFINISEE\_SPACE>  (1270) 
REALSpace_44bn_2023-08

>  <s_vsw_compound_code>  (1270) 
55841

>  <s_vsw_variant>  (1270) 
55841-1

>  <r_epik_Charging_Adjusted_Penalty>  (1270) 
0.15628065721040199

>  <r_epik_Ionization_Penalty>  (1270) 
0.082199999999999995

>  <r_epik_Ionization_Penalty_Charging>  (1270) 
0.074999999999999997

>  <r_epik_Ionization_Penalty_Neutral>  (1270) 
0.0071999999999999998

>  <r_epik_State_Penalty>  (1270) 
0.081299999999999997

>  <r_i_docking_score>  (1270) 
-5.1927624688814298

>  <r_i_glide_ecoul>  (1270) 
-10.4847860336304

>  <r_i_glide_eff_state_penalty>  (1270) 
0.081299999999999997

>  <r_i_glide_einternal>  (1270) 
3.25227618217468

>  <r_i_glide_emodel>  (1270) 
-61.5193753419328

>  <r_i_glide_energy>  (1270) 
-42.463561058044398

>  <r_i_glide_erotb>  (1270) 
0.78911536394765502

>  <r_i_glide_esite>  (1270) 
-0.10161891018270899

>  <r_i_glide_evdw>  (1270) 
-31.978775024414102

>  <r_i_glide_gscore>  (1270) 
-5.2740624688814304

>  <r_i_glide_hbond>  (1270) 
-0.22778448276892499

>  <r_i_glide_ligand_efficiency>  (1270) 
-0.179060774789015

>  <r_i_glide_ligand_efficiency_ln>  (1270) 
-1.18901092827905

>  <r_i_glide_ligand_efficiency_sa>  (1270) 
-0.55013143058714997

>  <r_i_glide_lipo>  (1270) 
-1.5495730563394701

>  <r_i_glide_metal>  (1270) 
-0

>  <r_i_glide_rewards>  (1270) 
-1.0125447272727299

>  <r_lp_Energy>  (1270) 
11.635122000000001

>  <r_lp_tautomer_probability>  (1270) 
0.999999999997365

>  <r_qp_ACxDN^.5/SA>  (1270) 
0.0070530000000000002

>  <r_qp_CIQPlogS>  (1270) 
-5.9219999999999997

>  <r_qp_EA(eV)>  (1270) 
0.41999999999999998

>  <r_qp_FISA>  (1270) 
60.497

>  <r_qp_FOSA>  (1270) 
202.547

>  <r_qp_IP(eV)>  (1270) 
8.5630000000000006

>  <r_qp_Jm>  (1270) 
0.010065200474595901

>  <r_qp_PISA>  (1270) 
388.62599999999998

>  <r_qp_PSA>  (1270) 
49.009999999999998

>  <r_qp_PercentHumanOralAbsorption>  (1270) 
100

>  <r_qp_QPPCaco>  (1270) 
659.34100000000001

>  <r_qp_QPPMDCK>  (1270) 
348.90600000000001

>  <r_qp_QPlogBB>  (1270) 
0.104

>  <r_qp_QPlogHERG>  (1270) 
-6.5229999999999997

>  <r_qp_QPlogKhsa>  (1270) 
1.0369999999999999

>  <r_qp_QPlogKp>  (1270) 
-2.8479999999999999

>  <r_qp_QPlogPC16>  (1270) 
13.246

>  <r_qp_QPlogPo/w>  (1270) 
4.9459999999999997

>  <r_qp_QPlogPoct>  (1270) 
19.091999999999999

>  <r_qp_QPlogPw>  (1270) 
9.3699999999999992

>  <r_qp_QPlogS>  (1270) 
-4.7329999999999997

>  <r_qp_QPpolrz>  (1270) 
43.488999999999997

>  <r_qp_SASA>  (1270) 
651.66899999999998

>  <r_qp_SAamideO>  (1270) 
0

>  <r_qp_SAfluorine>  (1270) 
0

>  <r_qp_WPSA>  (1270) 
0

>  <r_qp_accptHB>  (1270) 
3.25

>  <r_qp_dip^2/V>  (1270) 
0.0027613

>  <r_qp_dipole>  (1270) 
1.841

>  <r_qp_donorHB>  (1270) 
2

>  <r_qp_glob>  (1270) 
0.85098229999999997

>  <r_qp_mol_MW>  (1270) 
383.49200000000002

>  <r_qp_volume>  (1270) 
1227.9300000000001

>  <r_sd_BIOSOLVEIT.INFINISEE\_FTREES\_SIMILARITY>  (1270) 
0.90400000000000003

>  <r_sd_BIOSOLVEIT.LOGP>  (1270) 
4.1253399999999996

>  <r_sd_BIOSOLVEIT.MOLECULAR\_WEIGHT>  (1270) 
384.5

>  <r_sd_BIOSOLVEIT.TPSA>  (1270) 
54.659999999999997

>  <i_epik_Tot_Q>  (1270) 
1

>  <i_epik_Tot_abs_Q>  (1270) 
1

>  <i_f3d_flags>  (1270) 
0

>  <i_i_glide_confnum>  (1270) 
2

>  <i_i_glide_lignum>  (1270) 
496

>  <i_i_glide_posenum>  (1270) 
16

>  <i_i_glide_rotatable_bonds>  (1270) 
7

>  <i_lp_mmshare_version>  (1270) 
65135

>  <i_m_ct_format>  (1270) 
2

>  <i_m_source_file_index>  (1270) 
1746

>  <i_qp_#NandO>  (1270) 
4

>  <i_qp_#acid>  (1270) 
0

>  <i_qp_#amide>  (1270) 
0

>  <i_qp_#amidine>  (1270) 
0

>  <i_qp_#amine>  (1270) 
1

>  <i_qp_#in34>  (1270) 
0

>  <i_qp_#in56>  (1270) 
23

>  <i_qp_#metab>  (1270) 
6

>  <i_qp_#nonHatm>  (1270) 
29

>  <i_qp_#noncon>  (1270) 
0

>  <i_qp_#ringatoms>  (1270) 
23

>  <i_qp_#rotor>  (1270) 
5

>  <i_qp_#rtvFG>  (1270) 
0

>  <i_qp_#stars>  (1270) 
0

>  <i_qp_CNS>  (1270) 
1

>  <i_qp_HumanOralAbsorption>  (1270) 
3

>  <i_qp_RuleOfFive>  (1270) 
0

>  <i_qp_RuleOfThree>  (1270) 
0

>  <i_sd_BIOSOLVEIT.INFINISEE\_REAGENT1\_NAME>  (1270) 
12219548

>  <i_sd_BIOSOLVEIT.INFINISEE\_REAGENT2\_NAME>  (1270) 
7547744

>  <i_sd_BIOSOLVEIT.INFINISEE\_RESULT\_RANK>  (1270) 
74383

>  <i_sd_version>  (1270) 
0

>  <b_lp_Chiralities_Consistent>  (1270) 
1

>  <b_sd_chiral_flag>  (1270) 
0

>  <canonical_id>  (1270) 
ATP-HTVS-C924AED67E53

>  <compound_code>  (1270) 
55841

>  <title>  (1270) 
m_270004bbb____12219548____7547744

>  <variant>  (1270) 
55841-1

>  <source_file>  (1270) 
运行/运行/ATP-VSW/ATP-VSW-DOCK_HTVS_1-001_lib/ATP-VSW-DOCK_HTVS_1-001_lib

>  <canonical_smiles>  (1270) 
Cc1ccc(-c2nn(-c3ccccc3)cc2C[NH2+]Cc2cc(C)ccc2O)cc1

>  <scaffold>  (1270) 
c1ccc(C[NH2+]Cc2cn(-c3ccccc3)nc2-c2ccccc2)cc1

>  <molecular_formula>  (1270) 
C25H26N3O+

$$$$
ATP-HTVS-C9308A7164FF
     RDKit          3D

 53 56  0  0  0  0  0  0  0  0999 V2000
  203.1649  181.0370  160.0127 Cl  0  0  0  0  0  0  0  0  0  0  0  0
  203.4001  181.5029  158.3639 C   0  0  0  0  0  0  0  0  0  0  0  0
  202.4606  182.3042  157.6451 C   0  0  0  0  0  0  0  0  0  0  0  0
  202.7332  182.6379  156.3067 C   0  0  0  0  0  0  0  0  0  0  0  0
  203.9020  182.1836  155.6645 C   0  0  0  0  0  0  0  0  0  0  0  0
  204.8189  181.3827  156.3696 C   0  0  0  0  0  0  0  0  0  0  0  0
  204.5672  181.0476  157.7102 C   0  0  0  0  0  0  0  0  0  0  0  0
  201.1939  182.8150  158.2906 C   0  0  0  0  0  0  0  0  0  0  0  0
  201.2028  183.2953  159.4110 O   0  0  0  0  0  0  0  0  0  0  0  0
  200.0939  182.6617  157.5017 N   0  0  0  0  0  0  0  0  0  0  0  0
  198.7410  182.9508  157.7959 C   0  0  0  0  0  0  0  0  0  0  0  0
  198.3761  183.7565  158.8236 N   0  0  0  0  0  0  0  0  0  0  0  0
  197.0811  184.0203  159.0611 C   0  0  0  0  0  0  0  0  0  0  0  0
  196.0494  183.4660  158.2760 C   0  0  0  0  0  0  0  0  0  0  0  0
  196.4066  182.6126  157.1997 C   0  0  0  0  0  0  0  0  0  0  0  0
  197.7652  182.3512  156.9427 C   0  0  0  0  0  0  0  0  0  0  0  0
  198.1151  181.4613  155.8877 N   0  0  0  0  0  0  0  0  0  0  0  0
  197.9777  181.9582  154.5148 C   0  0  1  0  0  0  0  0  0  0  0  0
  198.9557  183.0388  154.2295 C   0  0  0  0  0  0  0  0  0  0  0  0
  199.7274  183.8820  154.0112 N   0  0  0  0  0  0  0  0  0  0  0  0
  198.0320  180.9157  153.4445 C   0  0  0  0  0  0  0  0  0  0  0  0
  196.8469  180.5603  152.7200 C   0  0  0  0  0  0  0  0  0  0  0  0
  196.8497  179.4909  151.8055 C   0  0  0  0  0  0  0  0  0  0  0  0
  198.0103  178.7136  151.6286 C   0  0  0  0  0  0  0  0  0  0  0  0
  199.1865  179.0314  152.3256 C   0  0  0  0  0  0  0  0  0  0  0  0
  199.2032  180.0948  153.2469 C   0  0  0  0  0  0  0  0  0  0  0  0
  198.2703  180.0387  156.2570 C   0  0  1  0  0  0  0  0  0  0  0  0
  197.3313  179.0437  155.5036 C   0  0  2  0  0  0  0  0  0  0  0  0
  194.7011  183.7558  158.5346 C   0  0  0  0  0  0  0  0  0  0  0  0
  194.3550  184.6253  159.5981 C   0  0  0  0  0  0  0  0  0  0  0  0
  195.3665  185.1975  160.3821 C   0  0  0  0  0  0  0  0  0  0  0  0
  196.7137  184.8997  160.1193 C   0  0  0  0  0  0  0  0  0  0  0  0
  202.0496  183.2644  155.7468 H   0  0  0  0  0  0  0  0  0  0  0  0
  204.0972  182.4616  154.6405 H   0  0  0  0  0  0  0  0  0  0  0  0
  205.7143  181.0283  155.8774 H   0  0  0  0  0  0  0  0  0  0  0  0
  205.2747  180.4251  158.2420 H   0  0  0  0  0  0  0  0  0  0  0  0
  200.2421  182.2263  156.6121 H   0  0  0  0  0  0  0  0  0  0  0  0
  195.6339  182.1698  156.5921 H   0  0  0  0  0  0  0  0  0  0  0  0
  196.9919  182.4438  154.4445 H   0  0  0  0  0  0  0  0  0  0  0  0
  195.9659  181.1308  152.8934 H   0  0  0  0  0  0  0  0  0  0  0  0
  195.9215  179.1969  151.3530 H   0  0  0  0  0  0  0  0  0  0  0  0
  197.9681  177.8246  151.0217 H   0  0  0  0  0  0  0  0  0  0  0  0
  200.0409  178.3787  152.2667 H   0  0  0  0  0  0  0  0  0  0  0  0
  200.0835  180.3206  153.7944 H   0  0  0  0  0  0  0  0  0  0  0  0
  199.3166  179.7633  156.0988 H   0  0  0  0  0  0  0  0  0  0  0  0
  198.1224  179.9473  157.3287 H   0  0  0  0  0  0  0  0  0  0  0  0
  197.4783  178.0320  155.9224 H   0  0  0  0  0  0  0  0  0  0  0  0
  197.5080  178.9897  154.4689 H   0  0  0  0  0  0  0  0  0  0  0  0
  196.2846  179.3216  155.6982 H   0  0  0  0  0  0  0  0  0  0  0  0
  193.9202  183.3430  157.9156 H   0  0  0  0  0  0  0  0  0  0  0  0
  193.3186  184.8637  159.7860 H   0  0  0  0  0  0  0  0  0  0  0  0
  195.1087  185.8714  161.1939 H   0  0  0  0  0  0  0  0  0  0  0  0
  197.4845  185.3506  160.7191 H   0  0  0  0  0  0  0  0  0  0  0  0
  1  2  1  0
  2  3  1  0
  2  7  2  0
  3  4  2  0
  3  8  1  0
  4  5  1  0
  4 33  1  0
  5  6  2  0
  5 34  1  0
  6  7  1  0
  6 35  1  0
  7 36  1  0
  8  9  2  0
  8 10  1  0
 10 11  1  0
 10 37  1  0
 11 12  2  0
 11 16  1  0
 12 13  1  0
 13 14  1  0
 13 32  2  0
 14 15  1  0
 14 29  2  0
 15 16  2  0
 15 38  1  0
 16 17  1  0
 17 18  1  0
 17 27  1  0
 18 19  1  0
 18 21  1  0
 18 39  1  1
 19 20  3  0
 21 22  2  0
 21 26  1  0
 22 23  1  0
 22 40  1  0
 23 24  2  0
 23 41  1  0
 24 25  1  0
 24 42  1  0
 25 26  2  0
 25 43  1  0
 26 44  1  0
 27 28  1  0
 27 45  1  1
 27 46  1  0
 28 47  1  1
 28 48  1  0
 28 49  1  0
 29 30  1  0
 29 50  1  0
 30 31  2  0
 30 51  1  0
 31 32  1  0
 31 52  1  0
 32 53  1  0
M  END
>  <s_epik_cmdline>  (1271) 
J2VwaWtfcHl0aG9uJywgJy1waCcsICc3LjAwMDAwMCcsICctcGh0JywgJzIuMDAwMDAwJywgJy1tcycsICcxNicsICctdG4nLCAnOCcsICctbWEnLCAnMjAwJywgJy1pbWFlJywgJzxpbmZpbGUubWFlPicsICctb21hZScsICc8b3V0ZmlsZS5tYWU+Jw==

>  <s_epik_input>  (1271) 
W2NIXTFbY0hdW2NIXVtjSF1jKGMxQ2wpQyg9TylbTkhdYyhuMiljKFtjSF1jKGMyMylbY0hdW2NIXVtjSF1bY0hdMylOKFtDSDJdW0NIM10pW0NAQEhdKEMjTiljNFtjSF1bY0hdW2NIXVtjSF1bY0hdNA==

>  <s_i_glide_gridfile>  (1271) 
ATP-Grid

>  <s_lp_Force_Field>  (1271) 
OPLS_2005

>  <s_lp_Variant>  (1271) 
rxn502b____EMOL480988____EMOL44466703____EMOL49839592-1

>  <s_lp_label>  (1271) 
2621_sdstereoexpander_1_neutralizer_1_epik_1_stereoizer_1

>  <s_m_source_file>  (1271) 
ATP-VSW-LIGPREP-003-in.maegz

>  <s_sd_BIOSOLVEIT.INFINISEE\_QUERY\_NAME>  (1271) 
Ref-Lig

>  <s_sd_BIOSOLVEIT.INFINISEE\_QUERY\_SMILES>  (1271) 
S(c1nc2c(cc1C[NH2+]Cc3ccc(cc3)C[NH+](C)C)cccc2)Cc4ccccc4

>  <s_sd_BIOSOLVEIT.INFINISEE\_REACTION\_NAME>  (1271) 
rxn502b

>  <s_sd_BIOSOLVEIT.INFINISEE\_REAGENT1\_NAME>  (1271) 
EMOL480988

>  <s_sd_BIOSOLVEIT.INFINISEE\_REAGENT1\_SMILES>  (1271) 
Clc1c(cccc1)C(=O)O

>  <s_sd_BIOSOLVEIT.INFINISEE\_REAGENT2\_NAME>  (1271) 
EMOL44466703

>  <s_sd_BIOSOLVEIT.INFINISEE\_REAGENT2\_SMILES>  (1271) 
Brc1c(nc2c(c1)cccc2)N

>  <s_sd_BIOSOLVEIT.INFINISEE\_REAGENT3\_NAME>  (1271) 
EMOL49839592

>  <s_sd_BIOSOLVEIT.INFINISEE\_REAGENT3\_SMILES>  (1271) 
N#CC(NCC)c1ccccc1

>  <s_sd_BIOSOLVEIT.INFINISEE\_SPACE>  (1271) 
eXplore_7tr_2022-12

>  <s_vsw_compound_code>  (1271) 
83843

>  <s_vsw_variant>  (1271) 
83843-1

>  <r_epik_Charging_Adjusted_Penalty>  (1271) 
0

>  <r_epik_Ionization_Penalty>  (1271) 
0

>  <r_epik_Ionization_Penalty_Charging>  (1271) 
0

>  <r_epik_Ionization_Penalty_Neutral>  (1271) 
0

>  <r_epik_State_Penalty>  (1271) 
-0

>  <r_i_docking_score>  (1271) 
-3.3207507643081402

>  <r_i_glide_ecoul>  (1271) 
-3.1446497440338099

>  <r_i_glide_eff_state_penalty>  (1271) 
-0

>  <r_i_glide_einternal>  (1271) 
4.13226318359375

>  <r_i_glide_emodel>  (1271) 
-41.808100024325

>  <r_i_glide_energy>  (1271) 
-35.955551385879502

>  <r_i_glide_erotb>  (1271) 
0.61633613599688497

>  <r_i_glide_esite>  (1271) 
-0.030380385582309401

>  <r_i_glide_evdw>  (1271) 
-32.810901641845703

>  <r_i_glide_gscore>  (1271) 
-3.3207507643081402

>  <r_i_glide_hbond>  (1271) 
0

>  <r_i_glide_ligand_efficiency>  (1271) 
-0.10377346138462901

>  <r_i_glide_ligand_efficiency_ln>  (1271) 
-0.74360661637564496

>  <r_i_glide_ligand_efficiency_sa>  (1271) 
-0.32946020315607699

>  <r_i_glide_lipo>  (1271) 
-1.3416222450686099

>  <r_i_glide_metal>  (1271) 
-0

>  <r_i_glide_rewards>  (1271) 
-0.45284172595675098

>  <r_lp_Energy>  (1271) 
32.764789

>  <r_lp_tautomer_probability>  (1271) 
1

>  <r_qp_ACxDN^.5/SA>  (1271) 
0.0091841000000000006

>  <r_qp_CIQPlogS>  (1271) 
-8.0999999999999996

>  <r_qp_EA(eV)>  (1271) 
0.97199999999999998

>  <r_qp_FISA>  (1271) 
93.039000000000001

>  <r_qp_FOSA>  (1271) 
93.278000000000006

>  <r_qp_IP(eV)>  (1271) 
8.6709999999999994

>  <r_qp_Jm>  (1271) 
0.041940726002639699

>  <r_qp_PISA>  (1271) 
432.471

>  <r_qp_PSA>  (1271) 
67.177999999999997

>  <r_qp_PercentHumanOralAbsorption>  (1271) 
100

>  <r_qp_QPPCaco>  (1271) 
1298.9970000000001

>  <r_qp_QPPMDCK>  (1271) 
1014.462

>  <r_qp_QPlogBB>  (1271) 
-0.59099999999999997

>  <r_qp_QPlogHERG>  (1271) 
-5.6799999999999997

>  <r_qp_QPlogKhsa>  (1271) 
0.63500000000000001

>  <r_qp_QPlogKp>  (1271) 
-1.0389999999999999

>  <r_qp_QPlogPC16>  (1271) 
14.247

>  <r_qp_QPlogPo/w>  (1271) 
4.8029999999999999

>  <r_qp_QPlogPoct>  (1271) 
20.335999999999999

>  <r_qp_QPlogPw>  (1271) 
10.708

>  <r_qp_QPlogS>  (1271) 
-5.9829999999999997

>  <r_qp_QPpolrz>  (1271) 
44.570999999999998

>  <r_qp_SASA>  (1271) 
653.30600000000004

>  <r_qp_SAamideO>  (1271) 
0

>  <r_qp_SAfluorine>  (1271) 
0

>  <r_qp_WPSA>  (1271) 
34.518000000000001

>  <r_qp_accptHB>  (1271) 
6

>  <r_qp_dip^2/V>  (1271) 
0.032011400000000002

>  <r_qp_dipole>  (1271) 
6.3929999999999998

>  <r_qp_donorHB>  (1271) 
1

>  <r_qp_glob>  (1271) 
0.87113379999999996

>  <r_qp_mol_MW>  (1271) 
440.93099999999998

>  <r_qp_volume>  (1271) 
1276.5999999999999

>  <r_sd_BIOSOLVEIT.INFINISEE\_FTREES\_SIMILARITY>  (1271) 
0.91100000000000003

>  <r_sd_BIOSOLVEIT.LOGP>  (1271) 
6.2316799999999999

>  <r_sd_BIOSOLVEIT.MOLECULAR\_WEIGHT>  (1271) 
440.93200000000002

>  <r_sd_BIOSOLVEIT.TPSA>  (1271) 
69.019999999999996

>  <i_epik_Tot_Q>  (1271) 
0

>  <i_epik_Tot_abs_Q>  (1271) 
0

>  <i_f3d_flags>  (1271) 
0

>  <i_i_glide_confnum>  (1271) 
3

>  <i_i_glide_lignum>  (1271) 
1194

>  <i_i_glide_posenum>  (1271) 
15

>  <i_i_glide_rotatable_bonds>  (1271) 
7

>  <i_lp_mmshare_version>  (1271) 
65135

>  <i_m_ct_format>  (1271) 
2

>  <i_m_source_file_index>  (1271) 
2621

>  <i_qp_#NandO>  (1271) 
5

>  <i_qp_#acid>  (1271) 
0

>  <i_qp_#amide>  (1271) 
0

>  <i_qp_#amidine>  (1271) 
0

>  <i_qp_#amine>  (1271) 
0

>  <i_qp_#in34>  (1271) 
0

>  <i_qp_#in56>  (1271) 
22

>  <i_qp_#metab>  (1271) 
3

>  <i_qp_#nonHatm>  (1271) 
32

>  <i_qp_#noncon>  (1271) 
0

>  <i_qp_#ringatoms>  (1271) 
22

>  <i_qp_#rotor>  (1271) 
7

>  <i_qp_#rtvFG>  (1271) 
0

>  <i_qp_#stars>  (1271) 
0

>  <i_qp_CNS>  (1271) 
0

>  <i_qp_HumanOralAbsorption>  (1271) 
3

>  <i_qp_RuleOfFive>  (1271) 
0

>  <i_qp_RuleOfThree>  (1271) 
1

>  <i_sd_BIOSOLVEIT.INFINISEE\_RESULT\_RANK>  (1271) 
43559

>  <i_sd_version>  (1271) 
0

>  <b_lp_Chiralities_Consistent>  (1271) 
1

>  <b_sd_chiral_flag>  (1271) 
0

>  <canonical_id>  (1271) 
ATP-HTVS-C9308A7164FF

>  <compound_code>  (1271) 
83843

>  <title>  (1271) 
rxn502b____EMOL480988____EMOL44466703____EMOL49839592

>  <variant>  (1271) 
83843-1

>  <source_file>  (1271) 
运行/运行/ATP-VSW/ATP-VSW-DOCK_HTVS_1-003_lib/ATP-VSW-DOCK_HTVS_1-003_lib.mae

>  <canonical_smiles>  (1271) 
CCN(c1cc2ccccc2nc1NC(=O)c1ccccc1Cl)[C@@H](C#N)c1ccccc1

>  <scaffold>  (1271) 
O=C(Nc1nc2ccccc2cc1NCc1ccccc1)c1ccccc1

>  <molecular_formula>  (1271) 
C26H21ClN4O

$$$$
ATP-HTVS-C930A8816DDB
     RDKit          3D

 61 64  0  0  0  0  0  0  0  0999 V2000
  197.9469  183.4505  147.4611 F   0  0  0  0  0  0  0  0  0  0  0  0
  198.1279  184.0583  148.6559 C   0  0  0  0  0  0  0  0  0  0  0  0
  198.9478  183.4647  149.6313 C   0  0  0  0  0  0  0  0  0  0  0  0
  199.1364  184.0961  150.8747 C   0  0  0  0  0  0  0  0  0  0  0  0
  198.5245  185.3384  151.1527 C   0  0  0  0  0  0  0  0  0  0  0  0
  197.7058  185.9307  150.1613 C   0  0  0  0  0  0  0  0  0  0  0  0
  197.5015  185.2860  148.9246 C   0  0  0  0  0  0  0  0  0  0  0  0
  198.7407  186.0358  152.5014 C   0  0  2  0  0  0  0  0  0  0  0  0
  200.0091  186.7910  152.5791 N   0  0  0  0  0  0  0  0  0  0  0  0
  201.2187  185.9755  152.5318 C   0  0  2  0  0  0  0  0  0  0  0  0
  200.0892  187.6597  153.7557 C   0  0  2  0  0  0  0  0  0  0  0  0
  198.5494  185.0897  153.7224 C   0  0  1  0  0  0  0  0  0  0  0  0
  197.2736  184.3833  153.7267 N   0  0  0  0  0  0  0  0  0  0  0  0
  197.1639  183.3207  154.6506 C   0  0  0  0  0  0  0  0  0  0  0  0
  197.1485  183.5725  156.0582 C   0  0  0  0  0  0  0  0  0  0  0  0
  197.0778  182.4811  156.9628 C   0  0  0  0  0  0  0  0  0  0  0  0
  196.9784  181.2304  156.4816 N   0  0  0  0  0  0  0  0  0  0  0  0
  196.9592  180.9369  155.1718 C   0  0  0  0  0  0  0  0  0  0  0  0
  197.0681  181.9707  154.1883 C   0  0  0  0  0  0  0  0  0  0  0  0
  196.9726  181.6472  152.7107 C   0  0  0  0  0  0  0  0  0  0  0  0
  196.4036  182.4199  151.9312 O   0  0  0  0  0  0  0  0  0  0  0  0
  197.5877  180.5212  152.2982 N   0  0  0  0  0  0  0  0  0  0  0  0
  197.4751  179.9026  151.0235 C   0  0  0  0  0  0  0  0  0  0  0  0
  198.5297  179.0744  150.5895 C   0  0  0  0  0  0  0  0  0  0  0  0
  198.4538  178.4357  149.3341 C   0  0  0  0  0  0  0  0  0  0  0  0
  197.3235  178.6198  148.5137 C   0  0  0  0  0  0  0  0  0  0  0  0
  196.2579  179.4210  148.9569 C   0  0  0  0  0  0  0  0  0  0  0  0
  196.3239  180.0444  150.2121 C   0  0  0  0  0  0  0  0  0  0  0  0
  196.7693  179.4579  154.8675 C   0  0  2  0  0  0  0  0  0  0  0  0
  197.0688  182.6885  158.3570 C   0  0  0  0  0  0  0  0  0  0  0  0
  197.1149  183.9982  158.8685 C   0  0  0  0  0  0  0  0  0  0  0  0
  197.1498  185.0949  157.9896 C   0  0  0  0  0  0  0  0  0  0  0  0
  197.1499  184.8855  156.5969 C   0  0  0  0  0  0  0  0  0  0  0  0
  199.4419  182.5287  149.4207 H   0  0  0  0  0  0  0  0  0  0  0  0
  199.7645  183.6130  151.6095 H   0  0  0  0  0  0  0  0  0  0  0  0
  197.2330  186.8873  150.3482 H   0  0  0  0  0  0  0  0  0  0  0  0
  196.8652  185.7390  148.1759 H   0  0  0  0  0  0  0  0  0  0  0  0
  197.9548  186.7979  152.5631 H   0  0  0  0  0  0  0  0  0  0  0  0
  202.1136  186.6004  152.5247 H   0  0  0  0  0  0  0  0  0  0  0  0
  201.2666  185.3670  151.6288 H   0  0  0  0  0  0  0  0  0  0  0  0
  201.2846  185.3199  153.3997 H   0  0  0  0  0  0  0  0  0  0  0  0
  200.9972  188.2681  153.7287 H   0  0  0  0  0  0  0  0  0  0  0  0
  200.1394  187.0868  154.6820 H   0  0  0  0  0  0  0  0  0  0  0  0
  199.2313  188.3337  153.8139 H   0  0  0  0  0  0  0  0  0  0  0  0
  199.3294  184.3378  153.7621 H   0  0  0  0  0  0  0  0  0  0  0  0
  198.6471  185.6778  154.6320 H   0  0  0  0  0  0  0  0  0  0  0  0
  196.9979  184.1083  152.7909 H   0  0  0  0  0  0  0  0  0  0  0  0
  198.1395  180.0179  152.9804 H   0  0  0  0  0  0  0  0  0  0  0  0
  199.3972  178.9364  151.2216 H   0  0  0  0  0  0  0  0  0  0  0  0
  199.2747  177.8173  148.9951 H   0  0  0  0  0  0  0  0  0  0  0  0
  197.2740  178.1369  147.5458 H   0  0  0  0  0  0  0  0  0  0  0  0
  195.3810  179.5409  148.3448 H   0  0  0  0  0  0  0  0  0  0  0  0
  195.4643  180.6160  150.5254 H   0  0  0  0  0  0  0  0  0  0  0  0
  197.7080  179.0079  154.5311 H   0  0  0  0  0  0  0  0  0  0  0  0
  196.0247  179.3758  154.0727 H   0  0  0  0  0  0  0  0  0  0  0  0
  196.4248  178.8715  155.7208 H   0  0  0  0  0  0  0  0  0  0  0  0
  197.0039  181.8502  159.0349 H   0  0  0  0  0  0  0  0  0  0  0  0
  197.0954  184.1607  159.9381 H   0  0  0  0  0  0  0  0  0  0  0  0
  197.1549  186.1010  158.3770 H   0  0  0  0  0  0  0  0  0  0  0  0
  197.1019  185.7505  155.9566 H   0  0  0  0  0  0  0  0  0  0  0  0
  196.8215  180.4515  157.1454 H   0  0  0  0  0  0  0  0  0  0  0  0
  1  2  1  0
  2  3  1  0
  2  7  2  0
  3  4  2  0
  3 34  1  0
  4  5  1  0
  4 35  1  0
  5  6  2  0
  5  8  1  0
  6  7  1  0
  6 36  1  0
  7 37  1  0
  8  9  1  0
  8 12  1  0
  8 38  1  1
  9 10  1  0
  9 11  1  0
 10 39  1  6
 10 40  1  0
 10 41  1  0
 11 42  1  6
 11 43  1  0
 11 44  1  0
 12 13  1  0
 12 45  1  1
 12 46  1  0
 13 14  1  0
 13 47  1  0
 14 15  1  0
 14 19  2  0
 15 16  1  0
 15 33  2  0
 16 17  1  0
 16 30  2  0
 17 18  2  0
 17 61  1  0
 18 19  1  0
 18 29  1  0
 19 20  1  0
 20 21  2  0
 20 22  1  0
 22 23  1  0
 22 48  1  0
 23 24  2  0
 23 28  1  0
 24 25  1  0
 24 49  1  0
 25 26  2  0
 25 50  1  0
 26 27  1  0
 26 51  1  0
 27 28  2  0
 27 52  1  0
 28 53  1  0
 29 54  1  6
 29 55  1  0
 29 56  1  0
 30 31  1  0
 30 57  1  0
 31 32  2  0
 31 58  1  0
 32 33  1  0
 32 59  1  0
 33 60  1  0
M  CHG  1  17   1
M  END
>  <s_epik_cmdline>  (1272) 
J2VwaWtfcHl0aG9uJywgJy1waCcsICc3LjAwMDAwMCcsICctcGh0JywgJzIuMDAwMDAwJywgJy1tcycsICcxNicsICctdG4nLCAnOCcsICctbWEnLCAnMjAwJywgJy1pbWFlJywgJzxpbmZpbGUubWFlPicsICctb21hZScsICc8b3V0ZmlsZS5tYWU+Jw==

>  <s_epik_input>  (1272) 
RmMxW2NIXVtjSF1jKFtjSF1bY0hdMSlbQ0BIXShOKFtDSDNdKVtDSDNdKVtDSDJdW05IXWMyYyhjKFtDSDNdKW5jKGMyMylbY0hdW2NIXVtjSF1bY0hdMylDKD1PKVtOSF1jNFtjSF1bY0hdW2NIXVtjSF1bY0hdNA==

>  <s_i_glide_gridfile>  (1272) 
ATP-Grid

>  <s_lp_Force_Field>  (1272) 
OPLS_2005

>  <s_lp_Variant>  (1272) 
YAS_R005____OTV5753507____OTV2848234____OTV7020431351-4

>  <s_lp_label>  (1272) 
111_sdstereoexpander_2_neutralizer_1_epik_2_stereoizer_1

>  <s_m_source_file>  (1272) 
ATP-VSW-LIGPREP-001-in.maegz

>  <s_sd_BIOSOLVEIT.INFINISEE\_QUERY\_NAME>  (1272) 
Ref-Lig

>  <s_sd_BIOSOLVEIT.INFINISEE\_QUERY\_SMILES>  (1272) 
S(c1nc2c(cc1C[NH2+]Cc3ccc(cc3)C[NH+](C)C)cccc2)Cc4ccccc4

>  <s_sd_BIOSOLVEIT.INFINISEE\_REACTION\_NAME>  (1272) 
YAS_R005

>  <s_sd_BIOSOLVEIT.INFINISEE\_REAGENT1\_NAME>  (1272) 
OTV5753507

>  <s_sd_BIOSOLVEIT.INFINISEE\_REAGENT1\_SMILES>  (1272) 
Nc1ccccc1

>  <s_sd_BIOSOLVEIT.INFINISEE\_REAGENT2\_NAME>  (1272) 
OTV2848234

>  <s_sd_BIOSOLVEIT.INFINISEE\_REAGENT2\_SMILES>  (1272) 
O=C(Nc1ccccc1)CC(=O)C

>  <s_sd_BIOSOLVEIT.INFINISEE\_REAGENT3\_NAME>  (1272) 
OTV7020431351

>  <s_sd_BIOSOLVEIT.INFINISEE\_REAGENT3\_SMILES>  (1272) 
Fc1ccc(cc1)C(N(C)C)CN

>  <s_sd_BIOSOLVEIT.INFINISEE\_SPACE>  (1272) 
CHEMriya_12bn_2022-01

>  <s_vsw_compound_code>  (1272) 
3521

>  <s_vsw_variant>  (1272) 
3521-4

>  <r_epik_Charging_Adjusted_Penalty>  (1272) 
1.3655750968828999

>  <r_epik_Ionization_Penalty>  (1272) 
1.569

>  <r_epik_Ionization_Penalty_Charging>  (1272) 
0.0088000000000000005

>  <r_epik_Ionization_Penalty_Neutral>  (1272) 
1.5602

>  <r_epik_State_Penalty>  (1272) 
1.3568

>  <r_i_docking_score>  (1272) 
-3.3304763547959801

>  <r_i_glide_ecoul>  (1272) 
-7.0680012702941903

>  <r_i_glide_eff_state_penalty>  (1272) 
1.3568

>  <r_i_glide_einternal>  (1272) 
3.7928915023803702

>  <r_i_glide_emodel>  (1272) 
-54.137774107435298

>  <r_i_glide_energy>  (1272) 
-39.154625415802002

>  <r_i_glide_erotb>  (1272) 
0.60976214615387903

>  <r_i_glide_esite>  (1272) 
-0.130668039142076

>  <r_i_glide_evdw>  (1272) 
-32.086624145507798

>  <r_i_glide_gscore>  (1272) 
-4.6872763547959799

>  <r_i_glide_hbond>  (1272) 
-0.194571337135201

>  <r_i_glide_ligand_efficiency>  (1272) 
-0.100923525902908

>  <r_i_glide_ligand_efficiency_ln>  (1272) 
-0.74068069702295503

>  <r_i_glide_ligand_efficiency_sa>  (1272) 
-0.32371567366051002

>  <r_i_glide_lipo>  (1272) 
-1.5182372982441701

>  <r_i_glide_metal>  (1272) 
-0

>  <r_i_glide_rewards>  (1272) 
-0.78903042860889705

>  <r_lp_Energy>  (1272) 
50.557147999999998

>  <r_qp_ACxDN^.5/SA>  (1272) 
0.0081702000000000007

>  <r_qp_CIQPlogS>  (1272) 
-6.2889999999999997

>  <r_qp_EA(eV)>  (1272) 
0.99299999999999999

>  <r_qp_FISA>  (1272) 
52.188000000000002

>  <r_qp_FOSA>  (1272) 
213.81899999999999

>  <r_qp_IP(eV)>  (1272) 
8.5399999999999991

>  <r_qp_Jm>  (1272) 
0.0609919671728614

>  <r_qp_PISA>  (1272) 
372.53399999999999

>  <r_qp_PSA>  (1272) 
52.677999999999997

>  <r_qp_PercentHumanOralAbsorption>  (1272) 
100

>  <r_qp_QPPCaco>  (1272) 
790.495

>  <r_qp_QPPMDCK>  (1272) 
657.08500000000004

>  <r_qp_QPlogBB>  (1272) 
0.158

>  <r_qp_QPlogHERG>  (1272) 
-6.2569999999999997

>  <r_qp_QPlogKhsa>  (1272) 
0.83899999999999997

>  <r_qp_QPlogKp>  (1272) 
-2.5600000000000001

>  <r_qp_QPlogPC16>  (1272) 
13.401999999999999

>  <r_qp_QPlogPo/w>  (1272) 
4.944

>  <r_qp_QPlogPoct>  (1272) 
19.859000000000002

>  <r_qp_QPlogPw>  (1272) 
9.5779999999999994

>  <r_qp_QPlogS>  (1272) 
-4.3010000000000002

>  <r_qp_QPpolrz>  (1272) 
45.567999999999998

>  <r_qp_SASA>  (1272) 
673.17999999999995

>  <r_qp_SAamideO>  (1272) 
0

>  <r_qp_SAfluorine>  (1272) 
34.639000000000003

>  <r_qp_WPSA>  (1272) 
34.639000000000003

>  <r_qp_accptHB>  (1272) 
5.5

>  <r_qp_dip^2/V>  (1272) 
0.014290000000000001

>  <r_qp_dipole>  (1272) 
4.3360000000000003

>  <r_qp_donorHB>  (1272) 
1

>  <r_qp_glob>  (1272) 
0.86263769999999995

>  <r_qp_mol_MW>  (1272) 
442.53500000000003

>  <r_qp_volume>  (1272) 
1315.806

>  <r_sd_BIOSOLVEIT.INFINISEE\_FTREES\_SIMILARITY>  (1272) 
0.90700000000000003

>  <r_sd_BIOSOLVEIT.LOGP>  (1272) 
4.2323199999999996

>  <r_sd_BIOSOLVEIT.MOLECULAR\_WEIGHT>  (1272) 
443.54300000000001

>  <r_sd_BIOSOLVEIT.TPSA>  (1272) 
58.460000000000001

>  <i_epik_Tot_Q>  (1272) 
1

>  <i_epik_Tot_abs_Q>  (1272) 
1

>  <i_f3d_flags>  (1272) 
0

>  <i_i_glide_confnum>  (1272) 
2

>  <i_i_glide_lignum>  (1272) 
19

>  <i_i_glide_posenum>  (1272) 
9

>  <i_i_glide_rotatable_bonds>  (1272) 
8

>  <i_lp_mmshare_version>  (1272) 
65135

>  <i_m_ct_format>  (1272) 
2

>  <i_m_source_file_index>  (1272) 
111

>  <i_qp_#NandO>  (1272) 
5

>  <i_qp_#acid>  (1272) 
0

>  <i_qp_#amide>  (1272) 
0

>  <i_qp_#amidine>  (1272) 
0

>  <i_qp_#amine>  (1272) 
1

>  <i_qp_#in34>  (1272) 
0

>  <i_qp_#in56>  (1272) 
22

>  <i_qp_#metab>  (1272) 
6

>  <i_qp_#nonHatm>  (1272) 
33

>  <i_qp_#noncon>  (1272) 
0

>  <i_qp_#ringatoms>  (1272) 
22

>  <i_qp_#rotor>  (1272) 
7

>  <i_qp_#rtvFG>  (1272) 
0

>  <i_qp_#stars>  (1272) 
0

>  <i_qp_CNS>  (1272) 
1

>  <i_qp_HumanOralAbsorption>  (1272) 
3

>  <i_qp_RuleOfFive>  (1272) 
0

>  <i_qp_RuleOfThree>  (1272) 
0

>  <i_sd_BIOSOLVEIT.INFINISEE\_RESULT\_RANK>  (1272) 
59507

>  <i_sd_version>  (1272) 
0

>  <b_lp_Chiralities_Consistent>  (1272) 
1

>  <b_sd_chiral_flag>  (1272) 
0

>  <canonical_id>  (1272) 
ATP-HTVS-C930A8816DDB

>  <compound_code>  (1272) 
3521

>  <title>  (1272) 
YAS_R005____OTV5753507____OTV2848234____OTV7020431351

>  <variant>  (1272) 
3521-4

>  <source_file>  (1272) 
运行/运行/ATP-VSW/ATP-VSW-DOCK_HTVS_1-001_lib/ATP-VSW-DOCK_HTVS_1-001_lib

>  <canonical_smiles>  (1272) 
Cc1[nH+]c2ccccc2c(NC[C@H](c2ccc(F)cc2)N(C)C)c1C(=O)Nc1ccccc1

>  <scaffold>  (1272) 
O=C(Nc1ccccc1)c1c[nH+]c2ccccc2c1NCCc1ccccc1

>  <molecular_formula>  (1272) 
C27H28FN4O+

$$$$
ATP-HTVS-C97E366A40B5
     RDKit          3D

 51 54  0  0  0  0  0  0  0  0999 V2000
  197.0141  181.4348  157.8810 O   0  0  0  0  0  0  0  0  0  0  0  0
  196.2189  182.4245  157.2781 C   0  0  1  0  0  0  0  0  0  0  0  0
  195.9332  183.4843  158.3109 C   0  0  0  0  0  0  0  0  0  0  0  0
  196.9858  184.2326  158.8810 C   0  0  0  0  0  0  0  0  0  0  0  0
  196.7161  185.1900  159.8780 C   0  0  0  0  0  0  0  0  0  0  0  0
  195.3890  185.3974  160.3053 C   0  0  0  0  0  0  0  0  0  0  0  0
  194.3405  184.6453  159.7390 C   0  0  0  0  0  0  0  0  0  0  0  0
  194.6106  183.6940  158.7356 C   0  0  0  0  0  0  0  0  0  0  0  0
  195.0855  186.4251  161.3752 C   0  0  2  0  0  0  0  0  0  0  0  0
  196.8855  183.0480  156.0302 C   0  0  1  0  0  0  0  0  0  0  0  0
  196.7513  182.2439  154.8252 N   0  0  0  0  0  0  0  0  0  0  0  0
  197.6439  181.1944  154.5638 C   0  0  0  0  0  0  0  0  0  0  0  0
  198.5526  180.9159  155.5187 N   0  0  0  0  0  0  0  0  0  0  0  0
  199.3653  179.8546  155.3737 C   0  0  0  0  0  0  0  0  0  0  0  0
  200.2154  179.6288  156.4502 N   0  0  0  0  0  0  0  0  0  0  0  0
  199.3742  179.0320  154.2301 C   0  0  0  0  0  0  0  0  0  0  0  0
  198.4630  179.3634  153.1890 C   0  0  0  0  0  0  0  0  0  0  0  0
  197.5723  180.4621  153.3562 C   0  0  0  0  0  0  0  0  0  0  0  0
  196.6685  180.7946  152.3212 C   0  0  0  0  0  0  0  0  0  0  0  0
  196.6525  180.0668  151.1152 C   0  0  0  0  0  0  0  0  0  0  0  0
  197.5423  178.9878  150.9428 C   0  0  0  0  0  0  0  0  0  0  0  0
  198.4275  178.6324  151.9783 C   0  0  0  0  0  0  0  0  0  0  0  0
  200.3179  177.8982  154.1359 C   0  0  0  0  0  0  0  0  0  0  0  0
  200.2496  176.8078  155.0331 C   0  0  0  0  0  0  0  0  0  0  0  0
  201.1640  175.7378  154.9410 C   0  0  0  0  0  0  0  0  0  0  0  0
  202.1540  175.7456  153.9392 C   0  0  0  0  0  0  0  0  0  0  0  0
  202.2378  176.8289  153.0437 C   0  0  0  0  0  0  0  0  0  0  0  0
  201.3288  177.8997  153.1517 C   0  0  0  0  0  0  0  0  0  0  0  0
  196.6254  180.5736  157.7325 H   0  0  0  0  0  0  0  0  0  0  0  0
  195.2861  181.9492  156.9808 H   0  0  0  0  0  0  0  0  0  0  0  0
  198.0047  184.0498  158.5738 H   0  0  0  0  0  0  0  0  0  0  0  0
  197.5318  185.7466  160.3171 H   0  0  0  0  0  0  0  0  0  0  0  0
  193.3210  184.7994  160.0565 H   0  0  0  0  0  0  0  0  0  0  0  0
  193.8066  183.1161  158.3045 H   0  0  0  0  0  0  0  0  0  0  0  0
  194.2496  187.0526  161.0672 H   0  0  0  0  0  0  0  0  0  0  0  0
  195.9471  187.0641  161.5698 H   0  0  0  0  0  0  0  0  0  0  0  0
  194.8144  185.9241  162.3009 H   0  0  0  0  0  0  0  0  0  0  0  0
  196.3625  183.9693  155.7836 H   0  0  0  0  0  0  0  0  0  0  0  0
  197.9203  183.3534  156.1959 H   0  0  0  0  0  0  0  0  0  0  0  0
  195.9035  182.3494  154.2814 H   0  0  0  0  0  0  0  0  0  0  0  0
  200.8165  178.8167  156.4860 H   0  0  0  0  0  0  0  0  0  0  0  0
  200.0853  180.1399  157.3088 H   0  0  0  0  0  0  0  0  0  0  0  0
  195.9950  181.6301  152.4211 H   0  0  0  0  0  0  0  0  0  0  0  0
  195.9767  180.3399  150.3162 H   0  0  0  0  0  0  0  0  0  0  0  0
  197.5422  178.4176  150.0187 H   0  0  0  0  0  0  0  0  0  0  0  0
  199.0842  177.7842  151.8169 H   0  0  0  0  0  0  0  0  0  0  0  0
  199.4932  176.7934  155.8057 H   0  0  0  0  0  0  0  0  0  0  0  0
  201.0976  174.9101  155.6367 H   0  0  0  0  0  0  0  0  0  0  0  0
  202.8473  174.9199  153.8554 H   0  0  0  0  0  0  0  0  0  0  0  0
  202.9919  176.8410  152.2661 H   0  0  0  0  0  0  0  0  0  0  0  0
  201.4059  178.7297  152.4654 H   0  0  0  0  0  0  0  0  0  0  0  0
  1  2  1  0
  1 29  1  0
  2  3  1  0
  2 10  1  0
  2 30  1  6
  3  4  1  0
  3  8  2  0
  4  5  2  0
  4 31  1  0
  5  6  1  0
  5 32  1  0
  6  7  2  0
  6  9  1  0
  7  8  1  0
  7 33  1  0
  8 34  1  0
  9 35  1  6
  9 36  1  0
  9 37  1  0
 10 11  1  0
 10 38  1  6
 10 39  1  0
 11 12  1  0
 11 40  1  0
 12 13  1  0
 12 18  2  0
 13 14  2  0
 14 15  1  0
 14 16  1  0
 15 41  1  0
 15 42  1  0
 16 17  2  0
 16 23  1  0
 17 18  1  0
 17 22  1  0
 18 19  1  0
 19 20  2  0
 19 43  1  0
 20 21  1  0
 20 44  1  0
 21 22  2  0
 21 45  1  0
 22 46  1  0
 23 24  2  0
 23 28  1  0
 24 25  1  0
 24 47  1  0
 25 26  2  0
 25 48  1  0
 26 27  1  0
 26 49  1  0
 27 28  2  0
 27 50  1  0
 28 51  1  0
M  END
>  <s_epik_cmdline>  (1273) 
J2VwaWtfcHl0aG9uJywgJy1waCcsICc3LjAwMDAwMCcsICctcGh0JywgJzIuMDAwMDAwJywgJy1tcycsICcxNicsICctdG4nLCAnOCcsICctbWEnLCAnMjAwJywgJy1pbWFlJywgJzxpbmZpbGUubWFlPicsICctb21hZScsICc8b3V0ZmlsZS5tYWU+Jw==

>  <s_epik_input>  (1273) 
W2NIXTFbY0hdYyhbQ0gzXSlbY0hdW2NIXWMxW0NASF0oW09IXSlbQ0gyXVtOSF1jKGMoYzIzKVtjSF1bY0hdW2NIXVtjSF0zKW5jKFtOSDJdKWMyLWM0W2NIXVtjSF1bY0hdW2NIXVtjSF00

>  <s_i_glide_gridfile>  (1273) 
ATP-Grid

>  <s_lp_Force_Field>  (1273) 
OPLS_2005

>  <s_lp_Variant>  (1273) 
rxn102b____EMOL27480028____EMOL42769518-2

>  <s_lp_label>  (1273) 
3012_sdstereoexpander_2_neutralizer_1_epik_1_stereoizer_1

>  <s_m_source_file>  (1273) 
ATP-VSW-LIGPREP-001-in.maegz

>  <s_sd_BIOSOLVEIT.INFINISEE\_QUERY\_NAME>  (1273) 
Ref-Lig

>  <s_sd_BIOSOLVEIT.INFINISEE\_QUERY\_SMILES>  (1273) 
S(c1nc2c(cc1C[NH2+]Cc3ccc(cc3)C[NH+](C)C)cccc2)Cc4ccccc4

>  <s_sd_BIOSOLVEIT.INFINISEE\_REACTION\_NAME>  (1273) 
rxn102b

>  <s_sd_BIOSOLVEIT.INFINISEE\_REAGENT1\_NAME>  (1273) 
EMOL27480028

>  <s_sd_BIOSOLVEIT.INFINISEE\_REAGENT1\_SMILES>  (1273) 
Brc1nc(N)c(c2c1cccc2)c3ccccc3

>  <s_sd_BIOSOLVEIT.INFINISEE\_REAGENT2\_NAME>  (1273) 
EMOL42769518

>  <s_sd_BIOSOLVEIT.INFINISEE\_REAGENT2\_SMILES>  (1273) 
OC(c1ccc(cc1)C)CN

>  <s_sd_BIOSOLVEIT.INFINISEE\_SPACE>  (1273) 
eXplore_7tr_2022-12

>  <s_vsw_compound_code>  (1273) 
96353

>  <s_vsw_variant>  (1273) 
96353-2

>  <r_epik_Charging_Adjusted_Penalty>  (1273) 
0.0722996544321058

>  <r_epik_Ionization_Penalty>  (1273) 
0.072400000000000006

>  <r_epik_Ionization_Penalty_Charging>  (1273) 
0

>  <r_epik_Ionization_Penalty_Neutral>  (1273) 
0.072400000000000006

>  <r_epik_State_Penalty>  (1273) 
0.072300000000000003

>  <r_i_docking_score>  (1273) 
-4.4448835340533002

>  <r_i_glide_ecoul>  (1273) 
-4.4194221496581996

>  <r_i_glide_eff_state_penalty>  (1273) 
0.072300000000000003

>  <r_i_glide_einternal>  (1273) 
6.0490226745605504

>  <r_i_glide_emodel>  (1273) 
-45.757405470443302

>  <r_i_glide_energy>  (1273) 
-37.209598541259801

>  <r_i_glide_erotb>  (1273) 
0.70627256579998998

>  <r_i_glide_esite>  (1273) 
-0.080603423286038894

>  <r_i_glide_evdw>  (1273) 
-32.790176391601598

>  <r_i_glide_gscore>  (1273) 
-4.5171835340533004

>  <r_i_glide_hbond>  (1273) 
-0.163868910097723

>  <r_i_glide_ligand_efficiency>  (1273) 
-0.15874584050190299

>  <r_i_glide_ligand_efficiency_ln>  (1273) 
-1.02600962711096

>  <r_i_glide_ligand_efficiency_sa>  (1273) 
-0.48204586806378802

>  <r_i_glide_lipo>  (1273) 
-1.7865088062589001

>  <r_i_glide_metal>  (1273) 
-0

>  <r_i_glide_rewards>  (1273) 
-0.89005281818181703

>  <r_lp_Energy>  (1273) 
28.690221999999999

>  <r_qp_ACxDN^.5/SA>  (1273) 
0.0104341

>  <r_qp_CIQPlogS>  (1273) 
-6.1890000000000001

>  <r_qp_EA(eV)>  (1273) 
0.38900000000000001

>  <r_qp_FISA>  (1273) 
101.676

>  <r_qp_FOSA>  (1273) 
127.505

>  <r_qp_IP(eV)>  (1273) 
7.492

>  <r_qp_Jm>  (1273) 
0.033174189255550601

>  <r_qp_PISA>  (1273) 
480.03399999999999

>  <r_qp_PSA>  (1273) 
65.563999999999993

>  <r_qp_PercentHumanOralAbsorption>  (1273) 
100

>  <r_qp_QPPCaco>  (1273) 
1075.748

>  <r_qp_QPPMDCK>  (1273) 
535.33399999999995

>  <r_qp_QPlogBB>  (1273) 
-0.95199999999999996

>  <r_qp_QPlogHERG>  (1273) 
-7.2629999999999999

>  <r_qp_QPlogKhsa>  (1273) 
0.64500000000000002

>  <r_qp_QPlogKp>  (1273) 
-1.03

>  <r_qp_QPlogPC16>  (1273) 
14.818

>  <r_qp_QPlogPo/w>  (1273) 
4.7080000000000002

>  <r_qp_QPlogPoct>  (1273) 
22.423999999999999

>  <r_qp_QPlogPw>  (1273) 
13.342000000000001

>  <r_qp_QPlogS>  (1273) 
-6.016

>  <r_qp_QPpolrz>  (1273) 
43.582000000000001

>  <r_qp_SASA>  (1273) 
709.21400000000006

>  <r_qp_SAamideO>  (1273) 
0

>  <r_qp_SAfluorine>  (1273) 
0

>  <r_qp_WPSA>  (1273) 
0

>  <r_qp_accptHB>  (1273) 
3.7000000000000002

>  <r_qp_dip^2/V>  (1273) 
0.011664600000000001

>  <r_qp_dipole>  (1273) 
3.8039999999999998

>  <r_qp_donorHB>  (1273) 
4

>  <r_qp_glob>  (1273) 
0.78727380000000002

>  <r_qp_mol_MW>  (1273) 
369.46499999999997

>  <r_qp_volume>  (1273) 
1240.529

>  <r_sd_BIOSOLVEIT.INFINISEE\_FTREES\_SIMILARITY>  (1273) 
0.90200000000000002

>  <r_sd_BIOSOLVEIT.LOGP>  (1273) 
4.9379200000000001

>  <r_sd_BIOSOLVEIT.MOLECULAR\_WEIGHT>  (1273) 
369.46600000000001

>  <r_sd_BIOSOLVEIT.TPSA>  (1273) 
71.170000000000002

>  <i_epik_Tot_Q>  (1273) 
0

>  <i_epik_Tot_abs_Q>  (1273) 
0

>  <i_f3d_flags>  (1273) 
0

>  <i_i_glide_confnum>  (1273) 
3

>  <i_i_glide_lignum>  (1273) 
1458

>  <i_i_glide_posenum>  (1273) 
12

>  <i_i_glide_rotatable_bonds>  (1273) 
6

>  <i_lp_mmshare_version>  (1273) 
65135

>  <i_m_ct_format>  (1273) 
2

>  <i_m_source_file_index>  (1273) 
3012

>  <i_qp_#NandO>  (1273) 
4

>  <i_qp_#acid>  (1273) 
0

>  <i_qp_#amide>  (1273) 
0

>  <i_qp_#amidine>  (1273) 
0

>  <i_qp_#amine>  (1273) 
0

>  <i_qp_#in34>  (1273) 
0

>  <i_qp_#in56>  (1273) 
22

>  <i_qp_#metab>  (1273) 
3

>  <i_qp_#nonHatm>  (1273) 
28

>  <i_qp_#noncon>  (1273) 
0

>  <i_qp_#ringatoms>  (1273) 
22

>  <i_qp_#rotor>  (1273) 
7

>  <i_qp_#rtvFG>  (1273) 
0

>  <i_qp_#stars>  (1273) 
2

>  <i_qp_CNS>  (1273) 
-1

>  <i_qp_HumanOralAbsorption>  (1273) 
3

>  <i_qp_RuleOfFive>  (1273) 
0

>  <i_qp_RuleOfThree>  (1273) 
1

>  <i_sd_BIOSOLVEIT.INFINISEE\_RESULT\_RANK>  (1273) 
87095

>  <i_sd_version>  (1273) 
0

>  <b_lp_Chiralities_Consistent>  (1273) 
1

>  <b_sd_chiral_flag>  (1273) 
0

>  <canonical_id>  (1273) 
ATP-HTVS-C97E366A40B5

>  <compound_code>  (1273) 
96353

>  <title>  (1273) 
rxn102b____EMOL27480028____EMOL42769518

>  <variant>  (1273) 
96353-2

>  <source_file>  (1273) 
运行/运行/ATP-VSW/ATP-VSW-DOCK_HTVS_1-001_lib/ATP-VSW-DOCK_HTVS_1-001_lib

>  <canonical_smiles>  (1273) 
Cc1ccc([C@H](O)CNc2nc(N)c(-c3ccccc3)c3ccccc23)cc1

>  <scaffold>  (1273) 
c1ccc(CCNc2ncc(-c3ccccc3)c3ccccc23)cc1

>  <molecular_formula>  (1273) 
C24H23N3O

$$$$
ATP-HTVS-C9B00227BFE8
     RDKit          3D

 59 61  0  0  0  0  0  0  0  0999 V2000
  199.2647  179.9947  151.6496 N   0  0  0  0  0  0  0  0  0  0  0  0
  199.6657  178.7366  151.9517 C   0  0  0  0  0  0  0  0  0  0  0  0
  199.3199  177.7139  151.0323 N   0  0  0  0  0  0  0  0  0  0  0  0
  198.6344  177.8774  149.8095 C   0  0  0  0  0  0  0  0  0  0  0  0
  197.4577  178.6593  149.7413 C   0  0  0  0  0  0  0  0  0  0  0  0
  196.7752  178.8410  148.5260 C   0  0  0  0  0  0  0  0  0  0  0  0
  197.2566  178.2332  147.3532 C   0  0  0  0  0  0  0  0  0  0  0  0
  198.4182  177.4391  147.4056 C   0  0  0  0  0  0  0  0  0  0  0  0
  199.1032  177.2611  148.6249 C   0  0  0  0  0  0  0  0  0  0  0  0
  199.6403  176.3298  151.3862 C   0  0  2  0  0  0  0  0  0  0  0  0
  200.3997  178.4693  153.1349 C   0  0  0  0  0  0  0  0  0  0  0  0
  200.6979  179.5280  154.0143 C   0  0  0  0  0  0  0  0  0  0  0  0
  200.2501  180.8236  153.6981 C   0  0  0  0  0  0  0  0  0  0  0  0
  199.5333  181.0021  152.5006 C   0  0  0  0  0  0  0  0  0  0  0  0
  200.5462  181.9947  154.6132 C   0  0  1  0  0  0  0  0  0  0  0  0
  199.3388  182.6935  155.0371 N   0  0  0  0  0  0  0  0  0  0  0  0
  198.6455  181.9672  156.0982 C   0  0  1  0  0  0  0  0  0  0  0  0
  197.3592  182.7254  156.5132 C   0  0  2  0  0  0  0  0  0  0  0  0
  197.7416  184.0393  157.1523 C   0  0  0  0  0  0  0  0  0  0  0  0
  197.3562  185.2763  156.5409 C   0  0  0  0  0  0  0  0  0  0  0  0
  197.5782  186.4969  157.1996 C   0  0  0  0  0  0  0  0  0  0  0  0
  198.1238  186.5075  158.4935 C   0  0  0  0  0  0  0  0  0  0  0  0
  198.5125  185.3069  159.1096 C   0  0  0  0  0  0  0  0  0  0  0  0
  198.2953  184.0818  158.4555 C   0  0  0  0  0  0  0  0  0  0  0  0
  196.4450  181.8484  157.4057 C   0  0  1  0  0  0  0  0  0  0  0  0
  195.1575  182.4469  157.8535 N   0  0  2  0  0  0  0  0  0  0  0  0
  195.1984  183.7325  158.5700 C   0  0  2  0  0  0  0  0  0  0  0  0
  194.2488  181.4803  158.4688 C   0  0  2  0  0  0  0  0  0  0  0  0
  199.5524  183.6426  155.3247 H   0  0  0  0  0  0  0  0  0  0  0  0
  197.0654  179.1290  150.6314 H   0  0  0  0  0  0  0  0  0  0  0  0
  195.8819  179.4460  148.4985 H   0  0  0  0  0  0  0  0  0  0  0  0
  196.7356  178.3671  146.4171 H   0  0  0  0  0  0  0  0  0  0  0  0
  198.7909  176.9740  146.5044 H   0  0  0  0  0  0  0  0  0  0  0  0
  200.0008  176.6605  148.6401 H   0  0  0  0  0  0  0  0  0  0  0  0
  199.2849  175.6095  150.6480 H   0  0  0  0  0  0  0  0  0  0  0  0
  199.1637  176.0653  152.3293 H   0  0  0  0  0  0  0  0  0  0  0  0
  200.7152  176.1924  151.5033 H   0  0  0  0  0  0  0  0  0  0  0  0
  200.7587  177.4816  153.3812 H   0  0  0  0  0  0  0  0  0  0  0  0
  201.2691  179.3457  154.9140 H   0  0  0  0  0  0  0  0  0  0  0  0
  199.1635  181.9752  152.2130 H   0  0  0  0  0  0  0  0  0  0  0  0
  201.1208  181.6743  155.4866 H   0  0  0  0  0  0  0  0  0  0  0  0
  201.1668  182.7027  154.0593 H   0  0  0  0  0  0  0  0  0  0  0  0
  198.4260  180.9535  155.7608 H   0  0  0  0  0  0  0  0  0  0  0  0
  199.3159  181.8710  156.9577 H   0  0  0  0  0  0  0  0  0  0  0  0
  196.8287  182.9401  155.5782 H   0  0  0  0  0  0  0  0  0  0  0  0
  196.9196  185.2654  155.5607 H   0  0  0  0  0  0  0  0  0  0  0  0
  197.2005  187.4055  156.7609 H   0  0  0  0  0  0  0  0  0  0  0  0
  198.1981  187.4360  159.0386 H   0  0  0  0  0  0  0  0  0  0  0  0
  198.8486  185.3098  160.1360 H   0  0  0  0  0  0  0  0  0  0  0  0
  198.5467  183.1621  158.9526 H   0  0  0  0  0  0  0  0  0  0  0  0
  196.2452  180.9970  156.7640 H   0  0  0  0  0  0  0  0  0  0  0  0
  196.9868  181.4657  158.2686 H   0  0  0  0  0  0  0  0  0  0  0  0
  195.7935  183.5523  159.4748 H   0  0  0  0  0  0  0  0  0  0  0  0
  194.1877  184.0466  158.8754 H   0  0  0  0  0  0  0  0  0  0  0  0
  195.6372  184.5094  157.9526 H   0  0  0  0  0  0  0  0  0  0  0  0
  194.7071  181.1088  159.4004 H   0  0  0  0  0  0  0  0  0  0  0  0
  193.9511  180.6241  157.8368 H   0  0  0  0  0  0  0  0  0  0  0  0
  193.3132  181.9880  158.7364 H   0  0  0  0  0  0  0  0  0  0  0  0
  194.6670  182.6212  156.9583 H   0  0  0  0  0  0  0  0  0  0  0  0
  1  2  1  0
  1 14  2  0
  2  3  1  0
  2 11  2  0
  3  4  1  0
  3 10  1  0
  4  5  2  0
  4  9  1  0
  5  6  1  0
  5 30  1  0
  6  7  2  0
  6 31  1  0
  7  8  1  0
  7 32  1  0
  8  9  2  0
  8 33  1  0
  9 34  1  0
 10 35  1  6
 10 36  1  0
 10 37  1  0
 11 12  1  0
 11 38  1  0
 12 13  2  0
 12 39  1  0
 13 14  1  0
 13 15  1  0
 14 40  1  0
 15 16  1  0
 15 41  1  1
 15 42  1  0
 16 17  1  0
 16 29  1  0
 17 18  1  0
 17 43  1  6
 17 44  1  0
 18 19  1  0
 18 25  1  0
 18 45  1  6
 19 20  2  0
 19 24  1  0
 20 21  1  0
 20 46  1  0
 21 22  2  0
 21 47  1  0
 22 23  1  0
 22 48  1  0
 23 24  2  0
 23 49  1  0
 24 50  1  0
 25 26  1  0
 25 51  1  6
 25 52  1  0
 26 27  1  0
 26 28  1  0
 26 59  1  6
 27 53  1  1
 27 54  1  0
 27 55  1  0
 28 56  1  1
 28 57  1  0
 28 58  1  0
M  CHG  1  26   1
M  END
>  <s_epik_cmdline>  (1274) 
J2VwaWtfcHl0aG9uJywgJy1waCcsICc3LjAwMDAwMCcsICctcGh0JywgJzIuMDAwMDAwJywgJy1tcycsICcxNicsICctdG4nLCAnOCcsICctbWEnLCAnMjAwJywgJy1pbWFlJywgJzxpbmZpbGUubWFlPicsICctb21hZScsICc8b3V0ZmlsZS5tYWU+Jw==

>  <s_epik_input>  (1274) 
W2NIXTFbY0hdW2NIXVtjSF1bY0hdYzFOKFtDSDNdKWMybltjSF1jKFtjSF1bY0hdMilbQ0gyXVtOSF1bQ0gyXVtDQEBIXShbQ0gyXU4oW0NIM10pW0NIM10pYzNbY0hdW2NIXVtjSF1bY0hdW2NIXTM=

>  <s_i_glide_gridfile>  (1274) 
ATP-Grid

>  <s_lp_Force_Field>  (1274) 
OPLS_2005

>  <s_lp_Variant>  (1274) 
m_270004bbb____23846038____9705990-4

>  <s_lp_label>  (1274) 
1164_sdstereoexpander_2_neutralizer_1_epik_2_stereoizer_1

>  <s_m_source_file>  (1274) 
ATP-VSW-LIGPREP-001-in.maegz

>  <s_sd_BIOSOLVEIT.INFINISEE\_QUERY\_NAME>  (1274) 
Ref-Lig

>  <s_sd_BIOSOLVEIT.INFINISEE\_QUERY\_SMILES>  (1274) 
S(c1nc2c(cc1C[NH2+]Cc3ccc(cc3)C[NH+](C)C)cccc2)Cc4ccccc4

>  <s_sd_BIOSOLVEIT.INFINISEE\_REACTION\_NAME>  (1274) 
m_270004bbb

>  <s_sd_BIOSOLVEIT.INFINISEE\_REAGENT1\_SMILES>  (1274) 
[R1*]NCC(c1ccccc1)CN(C)C

>  <s_sd_BIOSOLVEIT.INFINISEE\_REAGENT2\_SMILES>  (1274) 
[R1*]Cc1cnc(N(c2ccccc2)C)cc1

>  <s_sd_BIOSOLVEIT.INFINISEE\_SPACE>  (1274) 
REALSpace_44bn_2023-08

>  <s_vsw_compound_code>  (1274) 
37217

>  <s_vsw_variant>  (1274) 
37217-4

>  <r_epik_Charging_Adjusted_Penalty>  (1274) 
0.81624748727559304

>  <r_epik_Ionization_Penalty>  (1274) 
0.82740000000000002

>  <r_epik_Ionization_Penalty_Charging>  (1274) 
0.0025999999999999999

>  <r_epik_Ionization_Penalty_Neutral>  (1274) 
0.82479999999999998

>  <r_epik_State_Penalty>  (1274) 
0.81369999999999998

>  <r_i_docking_score>  (1274) 
-2.90394642746198

>  <r_i_glide_ecoul>  (1274) 
-7.7803702354431197

>  <r_i_glide_eff_state_penalty>  (1274) 
0.81369999999999998

>  <r_i_glide_einternal>  (1274) 
2.5617539882659899

>  <r_i_glide_emodel>  (1274) 
-44.628424422647797

>  <r_i_glide_energy>  (1274) 
-33.776090145111098

>  <r_i_glide_erotb>  (1274) 
0.96037778271927399

>  <r_i_glide_esite>  (1274) 
-0.084840836464693897

>  <r_i_glide_evdw>  (1274) 
-25.995719909668001

>  <r_i_glide_gscore>  (1274) 
-3.7176464274619798

>  <r_i_glide_hbond>  (1274) 
-0.20000000000000001

>  <r_i_glide_ligand_efficiency>  (1274) 
-0.103712372409356

>  <r_i_glide_ligand_efficiency_ln>  (1274) 
-0.67031609903026801

>  <r_i_glide_ligand_efficiency_sa>  (1274) 
-0.31493184595550699

>  <r_i_glide_lipo>  (1274) 
-1.0776809792803299

>  <r_i_glide_metal>  (1274) 
-0

>  <r_i_glide_rewards>  (1274) 
-0.84866086363636195

>  <r_lp_Energy>  (1274) 
31.497640000000001

>  <r_lp_tautomer_probability>  (1274) 
1

>  <r_qp_ACxDN^.5/SA>  (1274) 
0.0066125999999999997

>  <r_qp_CIQPlogS>  (1274) 
-3.8119999999999998

>  <r_qp_EA(eV)>  (1274) 
0.0030000000000000001

>  <r_qp_FISA>  (1274) 
16.350000000000001

>  <r_qp_FOSA>  (1274) 
292.79000000000002

>  <r_qp_IP(eV)>  (1274) 
8.0679999999999996

>  <r_qp_Jm>  (1274) 
0.0060673270378698999

>  <r_qp_PISA>  (1274) 
446.99599999999998

>  <r_qp_PSA>  (1274) 
28.905999999999999

>  <r_qp_PercentHumanOralAbsorption>  (1274) 
100

>  <r_qp_QPPCaco>  (1274) 
431.17200000000003

>  <r_qp_QPPMDCK>  (1274) 
243.899

>  <r_qp_QPlogBB>  (1274) 
0.63900000000000001

>  <r_qp_QPlogHERG>  (1274) 
-8.673

>  <r_qp_QPlogKhsa>  (1274) 
0.91100000000000003

>  <r_qp_QPlogKp>  (1274) 
-3.5070000000000001

>  <r_qp_QPlogPC16>  (1274) 
14.352

>  <r_qp_QPlogPo/w>  (1274) 
4.9989999999999997

>  <r_qp_QPlogPoct>  (1274) 
19.033000000000001

>  <r_qp_QPlogPw>  (1274) 
9.0950000000000006

>  <r_qp_QPlogS>  (1274) 
-4.2830000000000004

>  <r_qp_QPpolrz>  (1274) 
46.252000000000002

>  <r_qp_SASA>  (1274) 
756.13599999999997

>  <r_qp_SAamideO>  (1274) 
0

>  <r_qp_SAfluorine>  (1274) 
0

>  <r_qp_WPSA>  (1274) 
0

>  <r_qp_accptHB>  (1274) 
5

>  <r_qp_dip^2/V>  (1274) 
0.0029397

>  <r_qp_dipole>  (1274) 
1.99

>  <r_qp_donorHB>  (1274) 
1

>  <r_qp_glob>  (1274) 
0.78017970000000003

>  <r_qp_mol_MW>  (1274) 
374.52800000000002

>  <r_qp_volume>  (1274) 
1347.239

>  <r_sd_BIOSOLVEIT.INFINISEE\_FTREES\_SIMILARITY>  (1274) 
0.91200000000000003

>  <r_sd_BIOSOLVEIT.LOGP>  (1274) 
1.8411999999999999

>  <r_sd_BIOSOLVEIT.MOLECULAR\_WEIGHT>  (1274) 
376.54500000000002

>  <r_sd_BIOSOLVEIT.TPSA>  (1274) 
37.18

>  <i_epik_Tot_Q>  (1274) 
1

>  <i_epik_Tot_abs_Q>  (1274) 
1

>  <i_f3d_flags>  (1274) 
0

>  <i_i_glide_confnum>  (1274) 
3

>  <i_i_glide_lignum>  (1274) 
284

>  <i_i_glide_posenum>  (1274) 
6

>  <i_i_glide_rotatable_bonds>  (1274) 
9

>  <i_lp_mmshare_version>  (1274) 
65135

>  <i_m_ct_format>  (1274) 
2

>  <i_m_source_file_index>  (1274) 
1164

>  <i_qp_#NandO>  (1274) 
4

>  <i_qp_#acid>  (1274) 
0

>  <i_qp_#amide>  (1274) 
0

>  <i_qp_#amidine>  (1274) 
0

>  <i_qp_#amine>  (1274) 
2

>  <i_qp_#in34>  (1274) 
0

>  <i_qp_#in56>  (1274) 
18

>  <i_qp_#metab>  (1274) 
7

>  <i_qp_#nonHatm>  (1274) 
28

>  <i_qp_#noncon>  (1274) 
0

>  <i_qp_#ringatoms>  (1274) 
18

>  <i_qp_#rotor>  (1274) 
9

>  <i_qp_#rtvFG>  (1274) 
0

>  <i_qp_#stars>  (1274) 
0

>  <i_qp_CNS>  (1274) 
2

>  <i_qp_HumanOralAbsorption>  (1274) 
3

>  <i_qp_RuleOfFive>  (1274) 
0

>  <i_qp_RuleOfThree>  (1274) 
1

>  <i_sd_BIOSOLVEIT.INFINISEE\_REAGENT1\_NAME>  (1274) 
23846038

>  <i_sd_BIOSOLVEIT.INFINISEE\_REAGENT2\_NAME>  (1274) 
9705990

>  <i_sd_BIOSOLVEIT.INFINISEE\_RESULT\_RANK>  (1274) 
37809

>  <i_sd_version>  (1274) 
0

>  <b_lp_Chiralities_Consistent>  (1274) 
1

>  <b_sd_chiral_flag>  (1274) 
0

>  <canonical_id>  (1274) 
ATP-HTVS-C9B00227BFE8

>  <compound_code>  (1274) 
37217

>  <title>  (1274) 
m_270004bbb____23846038____9705990

>  <variant>  (1274) 
37217-4

>  <source_file>  (1274) 
运行/运行/ATP-VSW/ATP-VSW-DOCK_HTVS_1-001_lib/ATP-VSW-DOCK_HTVS_1-001_lib

>  <canonical_smiles>  (1274) 
CN(c1ccccc1)c1ccc(CNC[C@@H](C[NH+](C)C)c2ccccc2)cn1

>  <scaffold>  (1274) 
c1ccc(CCNCc2ccc(Nc3ccccc3)nc2)cc1

>  <molecular_formula>  (1274) 
C24H31N4+

$$$$
ATP-HTVS-C9CB4EF32822
     RDKit          3D

 47 49  0  0  0  0  0  0  0  0999 V2000
  196.9852  180.1571  154.3166 S   0  0  0  0  0  0  0  0  0  0  0  0
  198.4564  179.8847  155.2266 C   0  0  0  0  0  0  0  0  0  0  0  0
  198.6151  180.7186  156.2493 N   0  0  0  0  0  0  0  0  0  0  0  0
  197.5396  181.6032  156.4084 C   0  0  0  0  0  0  0  0  0  0  0  0
  197.5392  182.5687  157.5114 C   0  0  0  0  0  0  0  0  0  0  0  0
  196.3258  183.0513  158.0491 C   0  0  0  0  0  0  0  0  0  0  0  0
  196.3396  183.9770  159.1125 C   0  0  0  0  0  0  0  0  0  0  0  0
  195.0923  184.4695  159.6641 C   0  0  0  0  0  0  0  0  0  0  0  0
  194.0425  184.9039  160.1028 C   0  0  0  0  0  0  0  0  0  0  0  0
  197.5623  184.4374  159.6376 C   0  0  0  0  0  0  0  0  0  0  0  0
  198.7759  183.9650  159.1017 C   0  0  0  0  0  0  0  0  0  0  0  0
  198.7613  183.0395  158.0442 C   0  0  0  0  0  0  0  0  0  0  0  0
  196.5797  181.4223  155.4401 C   0  0  0  0  0  0  0  0  0  0  0  0
  199.3461  178.8903  154.8571 N   0  0  0  0  0  0  0  0  0  0  0  0
  200.6090  178.4519  155.4157 C   0  0  1  0  0  0  0  0  0  0  0  0
  200.9534  177.0195  155.0667 C   0  0  0  0  0  0  0  0  0  0  0  0
  201.4602  176.1639  156.0637 C   0  0  0  0  0  0  0  0  0  0  0  0
  201.7415  174.8225  155.7548 C   0  0  0  0  0  0  0  0  0  0  0  0
  201.5564  174.3139  154.4505 C   0  0  0  0  0  0  0  0  0  0  0  0
  201.0650  175.1747  153.4527 C   0  0  0  0  0  0  0  0  0  0  0  0
  200.7640  176.5196  153.7566 C   0  0  0  0  0  0  0  0  0  0  0  0
  201.9059  172.8630  154.1263 C   0  0  1  0  0  0  0  0  0  0  0  0
  203.3586  172.6413  153.8735 N   0  0  1  0  0  0  0  0  0  0  0  0
  203.7749  173.0730  152.5188 C   0  0  2  0  0  0  0  0  0  0  0  0
  204.2548  173.1835  154.9202 C   0  0  2  0  0  0  0  0  0  0  0  0
  195.3814  182.7018  157.6520 H   0  0  0  0  0  0  0  0  0  0  0  0
  193.1303  185.2886  160.4990 H   0  0  0  0  0  0  0  0  0  0  0  0
  197.5670  185.1548  160.4460 H   0  0  0  0  0  0  0  0  0  0  0  0
  199.7169  184.3141  159.4986 H   0  0  0  0  0  0  0  0  0  0  0  0
  199.6954  182.6844  157.6379 H   0  0  0  0  0  0  0  0  0  0  0  0
  195.6459  181.9498  155.3218 H   0  0  0  0  0  0  0  0  0  0  0  0
  199.0505  178.3486  154.0578 H   0  0  0  0  0  0  0  0  0  0  0  0
  201.4030  179.1047  155.0512 H   0  0  0  0  0  0  0  0  0  0  0  0
  200.5767  178.5689  156.5023 H   0  0  0  0  0  0  0  0  0  0  0  0
  201.6685  176.5399  157.0584 H   0  0  0  0  0  0  0  0  0  0  0  0
  202.1456  174.2039  156.5352 H   0  0  0  0  0  0  0  0  0  0  0  0
  200.9206  174.8130  152.4469 H   0  0  0  0  0  0  0  0  0  0  0  0
  200.3899  177.1614  152.9714 H   0  0  0  0  0  0  0  0  0  0  0  0
  201.5904  172.2183  154.9416 H   0  0  0  0  0  0  0  0  0  0  0  0
  201.3293  172.5237  153.2572 H   0  0  0  0  0  0  0  0  0  0  0  0
  203.6142  174.1435  152.3794 H   0  0  0  0  0  0  0  0  0  0  0  0
  203.2078  172.5442  151.7536 H   0  0  0  0  0  0  0  0  0  0  0  0
  204.8333  172.8716  152.3545 H   0  0  0  0  0  0  0  0  0  0  0  0
  204.2319  174.2701  154.9542 H   0  0  0  0  0  0  0  0  0  0  0  0
  205.3015  172.9154  154.7359 H   0  0  0  0  0  0  0  0  0  0  0  0
  203.9567  172.7896  155.8922 H   0  0  0  0  0  0  0  0  0  0  0  0
  203.4795  171.6124  153.9305 H   0  0  0  0  0  0  0  0  0  0  0  0
  1  2  1  0
  1 13  1  0
  2  3  2  0
  2 14  1  0
  3  4  1  0
  4  5  1  0
  4 13  2  0
  5  6  1  0
  5 12  2  0
  6  7  2  0
  6 26  1  0
  7  8  1  0
  7 10  1  0
  8  9  3  0
  9 27  1  0
 10 11  2  0
 10 28  1  0
 11 12  1  0
 11 29  1  0
 12 30  1  0
 13 31  1  0
 14 15  1  0
 14 32  1  0
 15 16  1  0
 15 33  1  6
 15 34  1  0
 16 17  1  0
 16 21  2  0
 17 18  2  0
 17 35  1  0
 18 19  1  0
 18 36  1  0
 19 20  2  0
 19 22  1  0
 20 21  1  0
 20 37  1  0
 21 38  1  0
 22 23  1  0
 22 39  1  1
 22 40  1  0
 23 24  1  0
 23 25  1  0
 23 47  1  6
 24 41  1  1
 24 42  1  0
 24 43  1  0
 25 44  1  1
 25 45  1  0
 25 46  1  0
M  CHG  1  23   1
M  END
>  <s_epik_cmdline>  (1275) 
J2VwaWtfcHl0aG9uJywgJy1waCcsICc3LjAwMDAwMCcsICctcGh0JywgJzIuMDAwMDAwJywgJy1tcycsICcxNicsICctdG4nLCAnOCcsICctbWEnLCAnMjAwJywgJy1pbWFlJywgJzxpbmZpbGUubWFlPicsICctb21hZScsICc8b3V0ZmlsZS5tYWU+Jw==

>  <s_epik_input>  (1275) 
W2NIXTFbY0hdW2NIXWMoQyNbQ0hdKVtjSF1jMS1jKG4yKVtjSF1zYzJbTkhdW0NIMl1jM1tjSF1bY0hdYyhbY0hdW2NIXTMpW0NIMl1OKFtDSDNdKVtDSDNd

>  <s_i_glide_gridfile>  (1275) 
ATP-Grid

>  <s_lp_Force_Field>  (1275) 
OPLS_2005

>  <s_lp_Variant>  (1275) 
WXDL_15E____QS5063____LN00171853____BT0972-1

>  <s_lp_label>  (1275) 
640_sdstereoexpander_1_neutralizer_1_epik_1_stereoizer_1

>  <s_m_source_file>  (1275) 
ATP-VSW-LIGPREP-001-in.maegz

>  <s_sd_BIOSOLVEIT.INFINISEE\_QUERY\_NAME>  (1275) 
Ref-Lig

>  <s_sd_BIOSOLVEIT.INFINISEE\_QUERY\_SMILES>  (1275) 
S(c1nc2c(cc1C[NH2+]Cc3ccc(cc3)C[NH+](C)C)cccc2)Cc4ccccc4

>  <s_sd_BIOSOLVEIT.INFINISEE\_REACTION\_NAME>  (1275) 
WXDL_15E

>  <s_sd_BIOSOLVEIT.INFINISEE\_REAGENT1\_NAME>  (1275) 
QS5063

>  <s_sd_BIOSOLVEIT.INFINISEE\_REAGENT1\_SMILES>  (1275) 
O=Cc1ccc(cc1)CN(C)C

>  <s_sd_BIOSOLVEIT.INFINISEE\_REAGENT2\_NAME>  (1275) 
LN00171853

>  <s_sd_BIOSOLVEIT.INFINISEE\_REAGENT2\_SMILES>  (1275) 
BrC=1N=C(SC1)NC(=O)OC(C)(C)C

>  <s_sd_BIOSOLVEIT.INFINISEE\_REAGENT3\_NAME>  (1275) 
BT0972

>  <s_sd_BIOSOLVEIT.INFINISEE\_REAGENT3\_SMILES>  (1275) 
OB(O)c1cc(C#C)ccc1

>  <s_sd_BIOSOLVEIT.INFINISEE\_SPACE>  (1275) 
GalaXi_12bn_2023-03

>  <s_vsw_compound_code>  (1275) 
20449

>  <s_vsw_variant>  (1275) 
20449-1

>  <r_epik_Charging_Adjusted_Penalty>  (1275) 
0.082222346837749399

>  <r_epik_Ionization_Penalty>  (1275) 
0.047300000000000002

>  <r_epik_Ionization_Penalty_Charging>  (1275) 
0.041099999999999998

>  <r_epik_Ionization_Penalty_Neutral>  (1275) 
0.0061999999999999998

>  <r_epik_State_Penalty>  (1275) 
0.041099999999999998

>  <r_i_docking_score>  (1275) 
-5.1592709284790699

>  <r_i_glide_ecoul>  (1275) 
-11.0256814956665

>  <r_i_glide_eff_state_penalty>  (1275) 
0.041099999999999998

>  <r_i_glide_einternal>  (1275) 
3.2027060985565199

>  <r_i_glide_emodel>  (1275) 
-57.207306851129403

>  <r_i_glide_energy>  (1275) 
-41.464426994323702

>  <r_i_glide_erotb>  (1275) 
0.94055513800731305

>  <r_i_glide_esite>  (1275) 
-0.12600113077091099

>  <r_i_glide_evdw>  (1275) 
-30.438745498657202

>  <r_i_glide_gscore>  (1275) 
-5.20037092847907

>  <r_i_glide_hbond>  (1275) 
-0.15420199618887201

>  <r_i_glide_ligand_efficiency>  (1275) 
-0.20637083713916299

>  <r_i_glide_ligand_efficiency_ln>  (1275) 
-1.2229018209229301

>  <r_i_glide_ligand_efficiency_sa>  (1275) 
-0.60343198779729301

>  <r_i_glide_lipo>  (1275) 
-1.4268798947892201

>  <r_i_glide_metal>  (1275) 
-0

>  <r_i_glide_rewards>  (1275) 
-1.2580535454545401

>  <r_lp_Energy>  (1275) 
4.9825020000000002

>  <r_qp_ACxDN^.5/SA>  (1275) 
0.0076448000000000002

>  <r_qp_CIQPlogS>  (1275) 
-4.6050000000000004

>  <r_qp_EA(eV)>  (1275) 
0.51300000000000001

>  <r_qp_FISA>  (1275) 
22.138999999999999

>  <r_qp_FOSA>  (1275) 
223.60599999999999

>  <r_qp_IP(eV)>  (1275) 
8.3780000000000001

>  <r_qp_Jm>  (1275) 
0.073252958111030594

>  <r_qp_PISA>  (1275) 
341.54399999999998

>  <r_qp_PSA>  (1275) 
25.454000000000001

>  <r_qp_PercentHumanOralAbsorption>  (1275) 
100

>  <r_qp_QPPCaco>  (1275) 
1523.559

>  <r_qp_QPPMDCK>  (1275) 
1694.865

>  <r_qp_QPlogBB>  (1275) 
0.52800000000000002

>  <r_qp_QPlogHERG>  (1275) 
-6.3070000000000004

>  <r_qp_QPlogKhsa>  (1275) 
0.81999999999999995

>  <r_qp_QPlogKp>  (1275) 
-2.2109999999999999

>  <r_qp_QPlogPC16>  (1275) 
12.621

>  <r_qp_QPlogPo/w>  (1275) 
4.9649999999999999

>  <r_qp_QPlogPoct>  (1275) 
17.917999999999999

>  <r_qp_QPlogPw>  (1275) 
8.5670000000000002

>  <r_qp_QPlogS>  (1275) 
-4.4649999999999999

>  <r_qp_QPpolrz>  (1275) 
41.131

>  <r_qp_SASA>  (1275) 
640.822

>  <r_qp_SAamideO>  (1275) 
0

>  <r_qp_SAfluorine>  (1275) 
0

>  <r_qp_WPSA>  (1275) 
53.533000000000001

>  <r_qp_accptHB>  (1275) 
4

>  <r_qp_dip^2/V>  (1275) 
0.0043981999999999997

>  <r_qp_dipole>  (1275) 
2.294

>  <r_qp_donorHB>  (1275) 
1.5

>  <r_qp_glob>  (1275) 
0.85046120000000003

>  <r_qp_mol_MW>  (1275) 
347.47699999999998

>  <r_qp_volume>  (1275) 
1196.3

>  <r_sd_BIOSOLVEIT.INFINISEE\_FTREES\_SIMILARITY>  (1275) 
0.90200000000000002

>  <r_sd_BIOSOLVEIT.LOGP>  (1275) 
3.048

>  <r_sd_BIOSOLVEIT.MOLECULAR\_WEIGHT>  (1275) 
348.49099999999999

>  <r_sd_BIOSOLVEIT.TPSA>  (1275) 
29.359999999999999

>  <i_epik_Tot_Q>  (1275) 
1

>  <i_epik_Tot_abs_Q>  (1275) 
1

>  <i_f3d_flags>  (1275) 
0

>  <i_i_glide_confnum>  (1275) 
3

>  <i_i_glide_lignum>  (1275) 
82

>  <i_i_glide_posenum>  (1275) 
11

>  <i_i_glide_rotatable_bonds>  (1275) 
7

>  <i_lp_mmshare_version>  (1275) 
65135

>  <i_m_ct_format>  (1275) 
2

>  <i_m_source_file_index>  (1275) 
640

>  <i_qp_#NandO>  (1275) 
3

>  <i_qp_#acid>  (1275) 
0

>  <i_qp_#amide>  (1275) 
0

>  <i_qp_#amidine>  (1275) 
0

>  <i_qp_#amine>  (1275) 
1

>  <i_qp_#in34>  (1275) 
0

>  <i_qp_#in56>  (1275) 
17

>  <i_qp_#metab>  (1275) 
4

>  <i_qp_#nonHatm>  (1275) 
25

>  <i_qp_#noncon>  (1275) 
0

>  <i_qp_#ringatoms>  (1275) 
17

>  <i_qp_#rotor>  (1275) 
6

>  <i_qp_#rtvFG>  (1275) 
0

>  <i_qp_#stars>  (1275) 
0

>  <i_qp_CNS>  (1275) 
2

>  <i_qp_HumanOralAbsorption>  (1275) 
3

>  <i_qp_RuleOfFive>  (1275) 
0

>  <i_qp_RuleOfThree>  (1275) 
0

>  <i_sd_BIOSOLVEIT.INFINISEE\_RESULT\_RANK>  (1275) 
87546

>  <i_sd_version>  (1275) 
0

>  <b_lp_Chiralities_Consistent>  (1275) 
1

>  <b_sd_chiral_flag>  (1275) 
0

>  <canonical_id>  (1275) 
ATP-HTVS-C9CB4EF32822

>  <compound_code>  (1275) 
20449

>  <title>  (1275) 
WXDL_15E____QS5063____LN00171853____BT0972

>  <variant>  (1275) 
20449-1

>  <source_file>  (1275) 
运行/运行/ATP-VSW/ATP-VSW-DOCK_HTVS_1-001_lib/ATP-VSW-DOCK_HTVS_1-001_lib

>  <canonical_smiles>  (1275) 
C#Cc1cccc(-c2csc(NCc3ccc(C[NH+](C)C)cc3)n2)c1

>  <scaffold>  (1275) 
c1ccc(CNc2nc(-c3ccccc3)cs2)cc1

>  <molecular_formula>  (1275) 
C21H22N3S+

$$$$
ATP-HTVS-C9E144645171
     RDKit          3D

 61 64  0  0  0  0  0  0  0  0999 V2000
  197.7413  186.9235  158.0864 F   0  0  0  0  0  0  0  0  0  0  0  0
  197.6173  185.7294  157.4560 C   0  0  0  0  0  0  0  0  0  0  0  0
  197.0038  184.6549  158.1183 C   0  0  0  0  0  0  0  0  0  0  0  0
  196.7582  183.4335  157.4479 C   0  0  0  0  0  0  0  0  0  0  0  0
  197.2113  183.2923  156.1054 C   0  0  0  0  0  0  0  0  0  0  0  0
  197.8876  184.3593  155.4718 C   0  0  0  0  0  0  0  0  0  0  0  0
  198.0727  185.5850  156.1312 C   0  0  0  0  0  0  0  0  0  0  0  0
  196.9983  182.0319  155.2820 C   0  0  1  0  0  0  0  0  0  0  0  0
  198.2176  181.2191  155.1823 N   0  0  0  0  0  0  0  0  0  0  0  0
  198.4403  180.3957  154.0768 C   0  0  0  0  0  0  0  0  0  0  0  0
  197.6200  180.5479  153.0130 N   0  0  0  0  0  0  0  0  0  0  0  0
  197.8521  179.8132  151.8996 C   0  0  0  0  0  0  0  0  0  0  0  0
  198.9655  178.8982  151.8658 C   0  0  0  0  0  0  0  0  0  0  0  0
  199.7889  178.7544  152.9226 N   0  0  0  0  0  0  0  0  0  0  0  0
  199.5440  179.4679  154.0467 C   0  0  0  0  0  0  0  0  0  0  0  0
  200.4102  179.2295  155.1349 N   0  0  0  0  0  0  0  0  0  0  0  0
  201.7390  178.6270  154.8805 C   0  0  1  0  0  0  0  0  0  0  0  0
  201.7668  177.1051  154.7197 C   0  0  0  0  0  0  0  0  0  0  0  0
  201.9088  176.2707  155.8509 C   0  0  0  0  0  0  0  0  0  0  0  0
  201.8626  174.8700  155.6928 C   0  0  0  0  0  0  0  0  0  0  0  0
  201.6483  174.3255  154.4707 N   0  0  0  0  0  0  0  0  0  0  0  0
  201.5195  175.0919  153.3584 C   0  0  0  0  0  0  0  0  0  0  0  0
  201.6314  176.4913  153.4478 C   0  0  0  0  0  0  0  0  0  0  0  0
  199.7998  178.9741  156.4450 C   0  0  2  0  0  0  0  0  0  0  0  0
  199.1765  178.1309  150.7035 C   0  0  0  0  0  0  0  0  0  0  0  0
  198.3520  178.2576  149.5745 C   0  0  0  0  0  0  0  0  0  0  0  0
  197.2813  179.1741  149.6006 C   0  0  0  0  0  0  0  0  0  0  0  0
  197.0359  179.9337  150.7622 C   0  0  0  0  0  0  0  0  0  0  0  0
  195.9880  182.3431  158.1895 C   0  0  1  0  0  0  0  0  0  0  0  0
  194.5072  182.5439  158.1337 N   0  0  2  0  0  0  0  0  0  0  0  0
  194.0102  183.7108  158.9293 C   0  0  2  0  0  0  0  0  0  0  0  0
  193.7815  181.3194  158.5074 C   0  0  2  0  0  0  0  0  0  0  0  0
  196.7012  184.7965  159.1399 H   0  0  0  0  0  0  0  0  0  0  0  0
  198.2535  184.2396  154.4629 H   0  0  0  0  0  0  0  0  0  0  0  0
  198.5484  186.4219  155.6320 H   0  0  0  0  0  0  0  0  0  0  0  0
  196.1900  181.3969  155.6446 H   0  0  0  0  0  0  0  0  0  0  0  0
  196.6588  182.3901  154.3041 H   0  0  0  0  0  0  0  0  0  0  0  0
  198.6819  180.9598  156.0302 H   0  0  0  0  0  0  0  0  0  0  0  0
  202.1921  179.0940  154.0012 H   0  0  0  0  0  0  0  0  0  0  0  0
  202.4084  178.8969  155.7000 H   0  0  0  0  0  0  0  0  0  0  0  0
  202.0632  176.7005  156.8339 H   0  0  0  0  0  0  0  0  0  0  0  0
  201.9971  174.1807  156.5127 H   0  0  0  0  0  0  0  0  0  0  0  0
  201.3347  174.5733  152.4243 H   0  0  0  0  0  0  0  0  0  0  0  0
  201.5853  177.0762  152.5409 H   0  0  0  0  0  0  0  0  0  0  0  0
  198.7680  178.6431  156.3352 H   0  0  0  0  0  0  0  0  0  0  0  0
  199.8165  179.8707  157.0645 H   0  0  0  0  0  0  0  0  0  0  0  0
  200.3172  178.1958  157.0097 H   0  0  0  0  0  0  0  0  0  0  0  0
  200.0020  177.4318  150.6815 H   0  0  0  0  0  0  0  0  0  0  0  0
  198.5545  177.6680  148.6923 H   0  0  0  0  0  0  0  0  0  0  0  0
  196.6707  179.2917  148.7249 H   0  0  0  0  0  0  0  0  0  0  0  0
  196.2187  180.6408  150.7862 H   0  0  0  0  0  0  0  0  0  0  0  0
  196.2460  181.3639  157.7744 H   0  0  0  0  0  0  0  0  0  0  0  0
  196.3312  182.2839  159.2252 H   0  0  0  0  0  0  0  0  0  0  0  0
  194.3128  183.6169  159.9753 H   0  0  0  0  0  0  0  0  0  0  0  0
  192.9164  183.7795  158.8978 H   0  0  0  0  0  0  0  0  0  0  0  0
  194.3741  184.6713  158.5472 H   0  0  0  0  0  0  0  0  0  0  0  0
  194.0669  181.0063  159.5096 H   0  0  0  0  0  0  0  0  0  0  0  0
  193.9420  180.5234  157.7828 H   0  0  0  0  0  0  0  0  0  0  0  0
  192.7114  181.4981  158.4777 H   0  0  0  0  0  0  0  0  0  0  0  0
  194.2495  182.6827  157.1703 H   0  0  0  0  0  0  0  0  0  0  0  0
  201.6107  173.3088  154.3689 H   0  0  0  0  0  0  0  0  0  0  0  0
  1  2  1  0
  2  3  2  0
  2  7  1  0
  3  4  1  0
  3 33  1  0
  4  5  2  0
  4 29  1  0
  5  6  1  0
  5  8  1  0
  6  7  2  0
  6 34  1  0
  7 35  1  0
  8  9  1  0
  8 36  1  1
  8 37  1  0
  9 10  1  0
  9 38  1  0
 10 11  2  0
 10 15  1  0
 11 12  1  0
 12 13  1  0
 12 28  2  0
 13 14  1  0
 13 25  2  0
 14 15  2  0
 15 16  1  0
 16 17  1  0
 16 24  1  0
 17 18  1  0
 17 39  1  6
 17 40  1  0
 18 19  2  0
 18 23  1  0
 19 20  1  0
 19 41  1  0
 20 21  2  0
 20 42  1  0
 21 22  1  0
 21 61  1  0
 22 23  2  0
 22 43  1  0
 23 44  1  0
 24 45  1  6
 24 46  1  0
 24 47  1  0
 25 26  1  0
 25 48  1  0
 26 27  2  0
 26 49  1  0
 27 28  1  0
 27 50  1  0
 28 51  1  0
 29 30  1  0
 29 52  1  6
 29 53  1  0
 30 31  1  0
 30 32  1  0
 30 60  1  6
 31 54  1  1
 31 55  1  0
 31 56  1  0
 32 57  1  1
 32 58  1  0
 32 59  1  0
M  CHG  2  21   1  30   1
M  END
>  <s_epik_cmdline>  (1276) 
J2VwaWtfcHl0aG9uJywgJy1waCcsICc3LjAwMDAwMCcsICctcGh0JywgJzIuMDAwMDAwJywgJy1tcycsICcxNicsICctdG4nLCAnOCcsICctbWEnLCAnMjAwJywgJy1pbWFlJywgJzxpbmZpbGUubWFlPicsICctb21hZScsICc8b3V0ZmlsZS5tYWU+Jw==

>  <s_epik_input>  (1276) 
RmMxW2NIXWMoW0NIMl1OKFtDSDNdKVtDSDNdKWMoW2NIXVtjSF0xKVtDSDJdW05IXWMobjIpYyhuYyhjMjMpW2NIXVtjSF1bY0hdW2NIXTMpTihbQ0gzXSlbQ0gyXWM0W2NIXVtjSF1uW2NIXVtjSF00

>  <s_i_glide_gridfile>  (1276) 
ATP-Grid

>  <s_lp_Force_Field>  (1276) 
OPLS_2005

>  <s_lp_Variant>  (1276) 
m_282030aaa____21928984____23157418____21974936-1

>  <s_lp_label>  (1276) 
1210_sdstereoexpander_1_neutralizer_1_epik_1_stereoizer_1

>  <s_m_source_file>  (1276) 
ATP-VSW-LIGPREP-001-in.maegz

>  <s_sd_BIOSOLVEIT.INFINISEE\_QUERY\_NAME>  (1276) 
Ref-Lig

>  <s_sd_BIOSOLVEIT.INFINISEE\_QUERY\_SMILES>  (1276) 
S(c1nc2c(cc1C[NH2+]Cc3ccc(cc3)C[NH+](C)C)cccc2)Cc4ccccc4

>  <s_sd_BIOSOLVEIT.INFINISEE\_REACTION\_NAME>  (1276) 
m_282030aaa

>  <s_sd_BIOSOLVEIT.INFINISEE\_REAGENT1\_SMILES>  (1276) 
[R1*]N(Cc1ccncc1)C

>  <s_sd_BIOSOLVEIT.INFINISEE\_REAGENT2\_SMILES>  (1276) 
[R1*]c1nc2c(nc1[R2*])cccc2

>  <s_sd_BIOSOLVEIT.INFINISEE\_REAGENT3\_SMILES>  (1276) 
[R2*]NCc1c(cc(F)cc1)CN(C)C

>  <s_sd_BIOSOLVEIT.INFINISEE\_SPACE>  (1276) 
REALSpace_44bn_2023-08

>  <s_vsw_compound_code>  (1276) 
38689

>  <s_vsw_variant>  (1276) 
38689-1

>  <r_epik_Charging_Adjusted_Penalty>  (1276) 
0.50111609781688804

>  <r_epik_Ionization_Penalty>  (1276) 
0.25090000000000001

>  <r_epik_Ionization_Penalty_Charging>  (1276) 
0.25059999999999999

>  <r_epik_Ionization_Penalty_Neutral>  (1276) 
0.00029999999999999997

>  <r_epik_State_Penalty>  (1276) 
0.25059999999999999

>  <r_i_docking_score>  (1276) 
-4.6577312207429102

>  <r_i_glide_ecoul>  (1276) 
-13.996436119079601

>  <r_i_glide_eff_state_penalty>  (1276) 
0.25059999999999999

>  <r_i_glide_einternal>  (1276) 
2.64413619041443

>  <r_i_glide_emodel>  (1276) 
-67.231298971257701

>  <r_i_glide_energy>  (1276) 
-46.345202445983901

>  <r_i_glide_erotb>  (1276) 
0.74454719589574203

>  <r_i_glide_esite>  (1276) 
-0.12783614018668801

>  <r_i_glide_evdw>  (1276) 
-32.348766326904297

>  <r_i_glide_gscore>  (1276) 
-4.9083312207429097

>  <r_i_glide_hbond>  (1276) 
-0.20000000000000001

>  <r_i_glide_ligand_efficiency>  (1276) 
-0.145554100648216

>  <r_i_glide_ligand_efficiency_ln>  (1276) 
-1.04299298528218

>  <r_i_glide_ligand_efficiency_sa>  (1276) 
-0.46210546444068101

>  <r_i_glide_lipo>  (1276) 
-1.0303144400700699

>  <r_i_glide_metal>  (1276) 
-0

>  <r_i_glide_rewards>  (1276) 
-0.57782410217473501

>  <r_lp_Energy>  (1276) 
35.110688000000003

>  <r_qp_ACxDN^.5/SA>  (1276) 
0.0092306000000000003

>  <r_qp_CIQPlogS>  (1276) 
-5.6360000000000001

>  <r_qp_EA(eV)>  (1276) 
0.878

>  <r_qp_FISA>  (1276) 
39.744

>  <r_qp_FOSA>  (1276) 
256.839

>  <r_qp_IP(eV)>  (1276) 
8.3930000000000007

>  <r_qp_Jm>  (1276) 
0.099045380640818595

>  <r_qp_PISA>  (1276) 
360.60399999999998

>  <r_qp_PSA>  (1276) 
48.133000000000003

>  <r_qp_PercentHumanOralAbsorption>  (1276) 
100

>  <r_qp_QPPCaco>  (1276) 
1037.318

>  <r_qp_QPPMDCK>  (1276) 
1030.0039999999999

>  <r_qp_QPlogBB>  (1276) 
0.216

>  <r_qp_QPlogHERG>  (1276) 
-6.6369999999999996

>  <r_qp_QPlogKhsa>  (1276) 
0.65200000000000002

>  <r_qp_QPlogKp>  (1276) 
-2.2759999999999998

>  <r_qp_QPlogPC16>  (1276) 
13.396000000000001

>  <r_qp_QPlogPo/w>  (1276) 
4.7949999999999999

>  <r_qp_QPlogPoct>  (1276) 
20.234000000000002

>  <r_qp_QPlogPw>  (1276) 
10.256

>  <r_qp_QPlogS>  (1276) 
-4.3620000000000001

>  <r_qp_QPpolrz>  (1276) 
45.868000000000002

>  <r_qp_SASA>  (1276) 
704.17700000000002

>  <r_qp_SAamideO>  (1276) 
0

>  <r_qp_SAfluorine>  (1276) 
46.990000000000002

>  <r_qp_WPSA>  (1276) 
46.990000000000002

>  <r_qp_accptHB>  (1276) 
6.5

>  <r_qp_dip^2/V>  (1276) 
0.0055916000000000004

>  <r_qp_dipole>  (1276) 
2.7400000000000002

>  <r_qp_donorHB>  (1276) 
1

>  <r_qp_glob>  (1276) 
0.83565429999999996

>  <r_qp_mol_MW>  (1276) 
430.52699999999999

>  <r_qp_volume>  (1276) 
1342.193

>  <r_sd_BIOSOLVEIT.INFINISEE\_FTREES\_SIMILARITY>  (1276) 
0.91100000000000003

>  <r_sd_BIOSOLVEIT.LOGP>  (1276) 
3.0569000000000002

>  <r_sd_BIOSOLVEIT.MOLECULAR\_WEIGHT>  (1276) 
431.536

>  <r_sd_BIOSOLVEIT.TPSA>  (1276) 
58.380000000000003

>  <i_epik_Tot_Q>  (1276) 
2

>  <i_epik_Tot_abs_Q>  (1276) 
2

>  <i_f3d_flags>  (1276) 
0

>  <i_i_glide_confnum>  (1276) 
9

>  <i_i_glide_lignum>  (1276) 
316

>  <i_i_glide_posenum>  (1276) 
18

>  <i_i_glide_rotatable_bonds>  (1276) 
8

>  <i_lp_mmshare_version>  (1276) 
65135

>  <i_m_ct_format>  (1276) 
2

>  <i_m_source_file_index>  (1276) 
1210

>  <i_qp_#NandO>  (1276) 
6

>  <i_qp_#acid>  (1276) 
0

>  <i_qp_#amide>  (1276) 
0

>  <i_qp_#amidine>  (1276) 
0

>  <i_qp_#amine>  (1276) 
1

>  <i_qp_#in34>  (1276) 
0

>  <i_qp_#in56>  (1276) 
22

>  <i_qp_#metab>  (1276) 
6

>  <i_qp_#nonHatm>  (1276) 
32

>  <i_qp_#noncon>  (1276) 
0

>  <i_qp_#ringatoms>  (1276) 
22

>  <i_qp_#rotor>  (1276) 
8

>  <i_qp_#rtvFG>  (1276) 
0

>  <i_qp_#stars>  (1276) 
0

>  <i_qp_CNS>  (1276) 
1

>  <i_qp_HumanOralAbsorption>  (1276) 
3

>  <i_qp_RuleOfFive>  (1276) 
0

>  <i_qp_RuleOfThree>  (1276) 
0

>  <i_sd_BIOSOLVEIT.INFINISEE\_REAGENT1\_NAME>  (1276) 
21928984

>  <i_sd_BIOSOLVEIT.INFINISEE\_REAGENT2\_NAME>  (1276) 
23157418

>  <i_sd_BIOSOLVEIT.INFINISEE\_REAGENT3\_NAME>  (1276) 
21974936

>  <i_sd_BIOSOLVEIT.INFINISEE\_RESULT\_RANK>  (1276) 
40898

>  <i_sd_version>  (1276) 
0

>  <b_lp_Chiralities_Consistent>  (1276) 
1

>  <b_sd_chiral_flag>  (1276) 
0

>  <canonical_id>  (1276) 
ATP-HTVS-C9E144645171

>  <compound_code>  (1276) 
38689

>  <title>  (1276) 
m_282030aaa____21928984____23157418____21974936

>  <variant>  (1276) 
38689-1

>  <source_file>  (1276) 
运行/运行/ATP-VSW/ATP-VSW-DOCK_HTVS_1-001_lib/ATP-VSW-DOCK_HTVS_1-001_lib

>  <canonical_smiles>  (1276) 
CN(Cc1cc[nH+]cc1)c1nc2ccccc2nc1NCc1ccc(F)cc1C[NH+](C)C

>  <scaffold>  (1276) 
c1ccc(CNc2nc3ccccc3nc2NCc2cc[nH+]cc2)cc1

>  <molecular_formula>  (1276) 
C25H29FN6+2

$$$$
ATP-HTVS-CA08B0F5D119
     RDKit          3D

 50 53  0  0  0  0  0  0  0  0999 V2000
  199.9023  185.9969  159.4787 F   0  0  0  0  0  0  0  0  0  0  0  0
  198.8589  185.2176  159.1213 C   0  0  0  0  0  0  0  0  0  0  0  0
  197.5613  185.7570  159.0145 C   0  0  0  0  0  0  0  0  0  0  0  0
  196.4736  184.9476  158.6341 C   0  0  0  0  0  0  0  0  0  0  0  0
  196.6825  183.5729  158.3745 C   0  0  0  0  0  0  0  0  0  0  0  0
  197.9857  183.0437  158.5052 C   0  0  0  0  0  0  0  0  0  0  0  0
  199.0739  183.8498  158.8516 C   0  0  0  0  0  0  0  0  0  0  0  0
  195.5393  182.7017  157.8680 C   0  0  1  0  0  0  0  0  0  0  0  0
  195.9925  181.6837  156.8969 N   0  0  1  0  0  0  0  0  0  0  0  0
  196.8801  182.1762  155.8371 C   0  0  1  0  0  0  0  0  0  0  0  0
  197.6619  181.0517  155.2327 C   0  0  0  0  0  0  0  0  0  0  0  0
  197.9562  180.7849  153.8660 C   0  0  0  0  0  0  0  0  0  0  0  0
  198.7372  179.7064  153.7412 N   0  0  0  0  0  0  0  0  0  0  0  0
  198.9869  179.2623  154.9978 N   0  0  0  0  0  0  0  0  0  0  0  0
  199.8020  178.1182  155.2227 C   0  0  0  0  0  0  0  0  0  0  0  0
  200.0959  177.6956  156.5405 C   0  0  0  0  0  0  0  0  0  0  0  0
  200.9021  176.5663  156.7574 C   0  0  0  0  0  0  0  0  0  0  0  0
  201.4138  175.8385  155.6682 C   0  0  0  0  0  0  0  0  0  0  0  0
  201.1272  176.2516  154.3542 C   0  0  0  0  0  0  0  0  0  0  0  0
  200.3290  177.3867  154.1328 C   0  0  0  0  0  0  0  0  0  0  0  0
  198.3467  180.0739  155.9204 C   0  0  0  0  0  0  0  0  0  0  0  0
  197.5284  181.5250  152.6502 C   0  0  0  0  0  0  0  0  0  0  0  0
  197.8642  181.0381  151.3593 C   0  0  0  0  0  0  0  0  0  0  0  0
  197.4397  181.7589  150.2219 C   0  0  0  0  0  0  0  0  0  0  0  0
  196.6983  182.8847  150.2819 N   0  0  0  0  0  0  0  0  0  0  0  0
  196.3808  183.3423  151.5067 C   0  0  0  0  0  0  0  0  0  0  0  0
  196.7888  182.7330  152.6797 C   0  0  0  0  0  0  0  0  0  0  0  0
  194.8090  182.0217  159.0181 C   0  0  2  0  0  0  0  0  0  0  0  0
  196.3847  180.8871  157.3883 H   0  0  0  0  0  0  0  0  0  0  0  0
  197.4000  186.8064  159.2313 H   0  0  0  0  0  0  0  0  0  0  0  0
  195.4910  185.3781  158.5131 H   0  0  0  0  0  0  0  0  0  0  0  0
  198.1821  182.0237  158.2135 H   0  0  0  0  0  0  0  0  0  0  0  0
  200.0703  183.4364  158.8666 H   0  0  0  0  0  0  0  0  0  0  0  0
  194.8333  183.3522  157.3479 H   0  0  0  0  0  0  0  0  0  0  0  0
  196.1001  182.6202  155.2543 H   0  0  0  0  0  0  0  0  0  0  0  0
  197.5803  182.9751  156.0645 H   0  0  0  0  0  0  0  0  0  0  0  0
  199.7030  178.2200  157.3981 H   0  0  0  0  0  0  0  0  0  0  0  0
  201.1153  176.2477  157.7661 H   0  0  0  0  0  0  0  0  0  0  0  0
  202.0233  174.9650  155.8417 H   0  0  0  0  0  0  0  0  0  0  0  0
  201.5187  175.6992  153.5151 H   0  0  0  0  0  0  0  0  0  0  0  0
  200.1210  177.6884  153.1162 H   0  0  0  0  0  0  0  0  0  0  0  0
  198.4238  179.8843  156.9884 H   0  0  0  0  0  0  0  0  0  0  0  0
  198.4582  180.1322  151.2265 H   0  0  0  0  0  0  0  0  0  0  0  0
  197.6962  181.4212  149.2177 H   0  0  0  0  0  0  0  0  0  0  0  0
  195.7923  184.2346  151.5925 H   0  0  0  0  0  0  0  0  0  0  0  0
  196.5008  183.2789  153.5346 H   0  0  0  0  0  0  0  0  0  0  0  0
  194.4580  182.7662  159.7329 H   0  0  0  0  0  0  0  0  0  0  0  0
  195.4842  181.3408  159.5367 H   0  0  0  0  0  0  0  0  0  0  0  0
  193.9515  181.4502  158.6648 H   0  0  0  0  0  0  0  0  0  0  0  0
  195.1645  181.3284  156.4305 H   0  0  0  0  0  0  0  0  0  0  0  0
  1  2  1  0
  2  3  1  0
  2  7  2  0
  3  4  2  0
  3 30  1  0
  4  5  1  0
  4 31  1  0
  5  6  2  0
  5  8  1  0
  6  7  1  0
  6 32  1  0
  7 33  1  0
  8  9  1  0
  8 28  1  0
  8 34  1  6
  9 10  1  0
  9 29  1  1
  9 50  1  0
 10 11  1  0
 10 35  1  6
 10 36  1  0
 11 12  1  0
 11 21  2  0
 12 13  2  0
 12 22  1  0
 13 14  1  0
 14 15  1  0
 14 21  1  0
 15 16  2  0
 15 20  1  0
 16 17  1  0
 16 37  1  0
 17 18  2  0
 17 38  1  0
 18 19  1  0
 18 39  1  0
 19 20  2  0
 19 40  1  0
 20 41  1  0
 21 42  1  0
 22 23  2  0
 22 27  1  0
 23 24  1  0
 23 43  1  0
 24 25  2  0
 24 44  1  0
 25 26  1  0
 26 27  2  0
 26 45  1  0
 27 46  1  0
 28 47  1  1
 28 48  1  0
 28 49  1  0
M  CHG  1   9   1
M  END
>  <s_epik_cmdline>  (1277) 
J2VwaWtfcHl0aG9uJywgJy1waCcsICc3LjAwMDAwMCcsICctcGh0JywgJzIuMDAwMDAwJywgJy1tcycsICcxNicsICctdG4nLCAnOCcsICctbWEnLCAnMjAwJywgJy1pbWFlJywgJzxpbmZpbGUubWFlPicsICctb21hZScsICc8b3V0ZmlsZS5tYWU+Jw==

>  <s_epik_input>  (1277) 
RmMxW2NIXVtjSF1jKFtjSF1bY0hdMSlbQ0BIXShbQ0gzXSlbTkhdW0NIMl1jMmMoLWMzW2NIXVtjSF1uW2NIXVtjSF0zKW5uKFtjSF0yKS1jNFtjSF1bY0hdW2NIXVtjSF1bY0hdNA==

>  <s_i_glide_gridfile>  (1277) 
ATP-Grid

>  <s_lp_Force_Field>  (1277) 
OPLS_2005

>  <s_lp_Variant>  (1277) 
m_269862bba____7196292____7200218-2

>  <s_lp_label>  (1277) 
2081_sdstereoexpander_2_neutralizer_1_epik_1_stereoizer_1

>  <s_m_source_file>  (1277) 
ATP-VSW-LIGPREP-001-in.maegz

>  <s_sd_BIOSOLVEIT.INFINISEE\_QUERY\_NAME>  (1277) 
Ref-Lig

>  <s_sd_BIOSOLVEIT.INFINISEE\_QUERY\_SMILES>  (1277) 
S(c1nc2c(cc1C[NH2+]Cc3ccc(cc3)C[NH+](C)C)cccc2)Cc4ccccc4

>  <s_sd_BIOSOLVEIT.INFINISEE\_REACTION\_NAME>  (1277) 
m_269862bba

>  <s_sd_BIOSOLVEIT.INFINISEE\_REAGENT1\_SMILES>  (1277) 
[R1*]NCC=1C(=NN(c2ccccc2)C1)c3ccncc3

>  <s_sd_BIOSOLVEIT.INFINISEE\_REAGENT2\_SMILES>  (1277) 
[R1*]C(c1ccc(F)cc1)C

>  <s_sd_BIOSOLVEIT.INFINISEE\_SPACE>  (1277) 
REALSpace_44bn_2023-08

>  <s_vsw_compound_code>  (1277) 
66561

>  <s_vsw_variant>  (1277) 
66561-2

>  <r_epik_Charging_Adjusted_Penalty>  (1277) 
0.18501816407552199

>  <r_epik_Ionization_Penalty>  (1277) 
0.094899999999999998

>  <r_epik_Ionization_Penalty_Charging>  (1277) 
0.090200000000000002

>  <r_epik_Ionization_Penalty_Neutral>  (1277) 
0.0047000000000000002

>  <r_epik_State_Penalty>  (1277) 
0.094899999999999998

>  <r_i_docking_score>  (1277) 
-4.6517113968869497

>  <r_i_glide_ecoul>  (1277) 
-9.7793769836425799

>  <r_i_glide_eff_state_penalty>  (1277) 
0.094899999999999998

>  <r_i_glide_einternal>  (1277) 
5.6283249855041504

>  <r_i_glide_emodel>  (1277) 
-58.384319063869498

>  <r_i_glide_energy>  (1277) 
-41.966114044189503

>  <r_i_glide_erotb>  (1277) 
0.69284782878754603

>  <r_i_glide_esite>  (1277) 
-0.13494296995442001

>  <r_i_glide_evdw>  (1277) 
-32.186737060546903

>  <r_i_glide_gscore>  (1277) 
-4.7466113968869497

>  <r_i_glide_hbond>  (1277) 
-0.154149351817881

>  <r_i_glide_ligand_efficiency>  (1277) 
-0.16613254988882001

>  <r_i_glide_ligand_efficiency_ln>  (1277) 
-1.0737515705828999

>  <r_i_glide_ligand_efficiency_sa>  (1277) 
-0.50447626830163395

>  <r_i_glide_lipo>  (1277) 
-0.91879891080488096

>  <r_i_glide_metal>  (1277) 
-0

>  <r_i_glide_rewards>  (1277) 
-1.15532459252358

>  <r_lp_Energy>  (1277) 
12.050613999999999

>  <r_lp_tautomer_probability>  (1277) 
1

>  <r_qp_ACxDN^.5/SA>  (1277) 
0.0063480000000000003

>  <r_qp_CIQPlogS>  (1277) 
-5.5149999999999997

>  <r_qp_EA(eV)>  (1277) 
0.65900000000000003

>  <r_qp_FISA>  (1277) 
36.503

>  <r_qp_FOSA>  (1277) 
112.38800000000001

>  <r_qp_IP(eV)>  (1277) 
8.9420000000000002

>  <r_qp_Jm>  (1277) 
0.045498259588929002

>  <r_qp_PISA>  (1277) 
441.69099999999997

>  <r_qp_PSA>  (1277) 
38.970999999999997

>  <r_qp_PercentHumanOralAbsorption>  (1277) 
100

>  <r_qp_QPPCaco>  (1277) 
1113.3689999999999

>  <r_qp_QPPMDCK>  (1277) 
1012.128

>  <r_qp_QPlogBB>  (1277) 
0.48499999999999999

>  <r_qp_QPlogHERG>  (1277) 
-6.7169999999999996

>  <r_qp_QPlogKhsa>  (1277) 
0.88

>  <r_qp_QPlogKp>  (1277) 
-2.3149999999999999

>  <r_qp_QPlogPC16>  (1277) 
12.493

>  <r_qp_QPlogPo/w>  (1277) 
4.883

>  <r_qp_QPlogPoct>  (1277) 
18.602

>  <r_qp_QPlogPw>  (1277) 
9.0239999999999991

>  <r_qp_QPlogS>  (1277) 
-4.5979999999999999

>  <r_qp_QPpolrz>  (1277) 
42.520000000000003

>  <r_qp_SASA>  (1277) 
630.12099999999998

>  <r_qp_SAamideO>  (1277) 
0

>  <r_qp_SAfluorine>  (1277) 
39.539000000000001

>  <r_qp_WPSA>  (1277) 
39.539000000000001

>  <r_qp_accptHB>  (1277) 
4

>  <r_qp_dip^2/V>  (1277) 
0.054469900000000002

>  <r_qp_dipole>  (1277) 
8

>  <r_qp_donorHB>  (1277) 
1

>  <r_qp_glob>  (1277) 
0.85461149999999997

>  <r_qp_mol_MW>  (1277) 
372.44400000000002

>  <r_qp_volume>  (1277) 
1175.011

>  <r_sd_BIOSOLVEIT.INFINISEE\_FTREES\_SIMILARITY>  (1277) 
0.90100000000000002

>  <r_sd_BIOSOLVEIT.LOGP>  (1277) 
3.8980000000000001

>  <r_sd_BIOSOLVEIT.MOLECULAR\_WEIGHT>  (1277) 
373.45299999999997

>  <r_sd_BIOSOLVEIT.TPSA>  (1277) 
47.32

>  <i_epik_Tot_Q>  (1277) 
1

>  <i_epik_Tot_abs_Q>  (1277) 
1

>  <i_f3d_flags>  (1277) 
0

>  <i_i_glide_confnum>  (1277) 
6

>  <i_i_glide_lignum>  (1277) 
650

>  <i_i_glide_posenum>  (1277) 
8

>  <i_i_glide_rotatable_bonds>  (1277) 
6

>  <i_lp_mmshare_version>  (1277) 
65135

>  <i_m_ct_format>  (1277) 
2

>  <i_m_source_file_index>  (1277) 
2081

>  <i_qp_#NandO>  (1277) 
4

>  <i_qp_#acid>  (1277) 
0

>  <i_qp_#amide>  (1277) 
0

>  <i_qp_#amidine>  (1277) 
0

>  <i_qp_#amine>  (1277) 
1

>  <i_qp_#in34>  (1277) 
0

>  <i_qp_#in56>  (1277) 
23

>  <i_qp_#metab>  (1277) 
5

>  <i_qp_#nonHatm>  (1277) 
28

>  <i_qp_#noncon>  (1277) 
0

>  <i_qp_#ringatoms>  (1277) 
23

>  <i_qp_#rotor>  (1277) 
4

>  <i_qp_#rtvFG>  (1277) 
0

>  <i_qp_#stars>  (1277) 
0

>  <i_qp_CNS>  (1277) 
2

>  <i_qp_HumanOralAbsorption>  (1277) 
3

>  <i_qp_RuleOfFive>  (1277) 
0

>  <i_qp_RuleOfThree>  (1277) 
0

>  <i_sd_BIOSOLVEIT.INFINISEE\_REAGENT1\_NAME>  (1277) 
7196292

>  <i_sd_BIOSOLVEIT.INFINISEE\_REAGENT2\_NAME>  (1277) 
7200218

>  <i_sd_BIOSOLVEIT.INFINISEE\_RESULT\_RANK>  (1277) 
96043

>  <i_sd_version>  (1277) 
0

>  <b_lp_Chiralities_Consistent>  (1277) 
1

>  <b_sd_chiral_flag>  (1277) 
0

>  <canonical_id>  (1277) 
ATP-HTVS-CA08B0F5D119

>  <compound_code>  (1277) 
66561

>  <title>  (1277) 
m_269862bba____7196292____7200218

>  <variant>  (1277) 
66561-2

>  <source_file>  (1277) 
运行/运行/ATP-VSW/ATP-VSW-DOCK_HTVS_1-001_lib/ATP-VSW-DOCK_HTVS_1-001_lib

>  <canonical_smiles>  (1277) 
C[C@H]([NH2+]Cc1cn(-c2ccccc2)nc1-c1ccncc1)c1ccc(F)cc1

>  <scaffold>  (1277) 
c1ccc(C[NH2+]Cc2cn(-c3ccccc3)nc2-c2ccncc2)cc1

>  <molecular_formula>  (1277) 
C23H22FN4+

$$$$
ATP-HTVS-CA5141603A6E
     RDKit          3D

 62 65  0  0  0  0  0  0  0  0999 V2000
  197.1442  182.9310  155.1871 O   0  0  0  0  0  0  0  0  0  0  0  0
  196.7776  181.8316  155.6137 C   0  0  0  0  0  0  0  0  0  0  0  0
  196.8028  180.6944  154.9117 N   0  0  0  0  0  0  0  0  0  0  0  0
  196.9814  180.6239  153.5035 C   0  0  0  0  0  0  0  0  0  0  0  0
  197.5865  179.4799  152.9581 C   0  0  0  0  0  0  0  0  0  0  0  0
  197.7830  179.3835  151.5608 C   0  0  0  0  0  0  0  0  0  0  0  0
  197.3396  180.4280  150.7180 C   0  0  0  0  0  0  0  0  0  0  0  0
  196.7218  181.5566  151.2573 C   0  0  0  0  0  0  0  0  0  0  0  0
  196.5172  181.6559  152.6402 C   0  0  0  0  0  0  0  0  0  0  0  0
  198.4892  178.1554  150.9982 C   0  0  1  0  0  0  0  0  0  0  0  0
  198.6628  178.1509  149.4530 C   0  0  1  0  0  0  0  0  0  0  0  0
  199.3405  176.9519  148.9046 N   0  0  2  0  0  0  0  0  0  0  0  0
  198.5263  175.7251  149.0033 C   0  0  2  0  0  0  0  0  0  0  0  0
  200.7303  176.7884  149.3778 C   0  0  2  0  0  0  0  0  0  0  0  0
  196.3631  181.6417  156.8754 N   0  0  0  0  0  0  0  0  0  0  0  0
  196.1435  182.7078  157.8317 C   0  0  1  0  0  0  0  0  0  0  0  0
  197.4015  183.3936  158.3172 C   0  0  0  0  0  0  0  0  0  0  0  0
  197.5401  184.5578  159.1343 C   0  0  0  0  0  0  0  0  0  0  0  0
  198.8228  184.8456  159.3336 N   0  0  0  0  0  0  0  0  0  0  0  0
  199.5409  183.9165  158.6750 N   0  0  0  0  0  0  0  0  0  0  0  0
  200.9607  183.9213  158.6792 C   0  0  0  0  0  0  0  0  0  0  0  0
  201.6754  184.9343  159.3642 C   0  0  0  0  0  0  0  0  0  0  0  0
  203.0833  184.9331  159.3751 C   0  0  0  0  0  0  0  0  0  0  0  0
  203.7941  183.9230  158.7009 C   0  0  0  0  0  0  0  0  0  0  0  0
  203.0957  182.9131  158.0117 C   0  0  0  0  0  0  0  0  0  0  0  0
  201.6877  182.9129  158.0001 C   0  0  0  0  0  0  0  0  0  0  0  0
  198.6950  183.0358  158.0377 C   0  0  0  0  0  0  0  0  0  0  0  0
  196.5042  185.4107  159.7433 C   0  0  0  0  0  0  0  0  0  0  0  0
  196.8050  186.7353  160.1352 C   0  0  0  0  0  0  0  0  0  0  0  0
  195.8056  187.5028  160.7667 C   0  0  0  0  0  0  0  0  0  0  0  0
  194.5615  187.0391  160.9940 N   0  0  0  0  0  0  0  0  0  0  0  0
  194.2541  185.8092  160.5603 C   0  0  0  0  0  0  0  0  0  0  0  0
  195.1871  184.9500  159.9557 C   0  0  0  0  0  0  0  0  0  0  0  0
  196.6267  179.8262  155.4148 H   0  0  0  0  0  0  0  0  0  0  0  0
  197.9351  178.6902  153.6238 H   0  0  0  0  0  0  0  0  0  0  0  0
  197.4701  180.4223  149.6454 H   0  0  0  0  0  0  0  0  0  0  0  0
  196.3825  182.3397  150.6100 H   0  0  0  0  0  0  0  0  0  0  0  0
  196.0071  182.5227  153.0161 H   0  0  0  0  0  0  0  0  0  0  0  0
  199.4566  178.1255  151.5075 H   0  0  0  0  0  0  0  0  0  0  0  0
  197.9388  177.2730  151.3350 H   0  0  0  0  0  0  0  0  0  0  0  0
  197.6847  178.2227  148.9765 H   0  0  0  0  0  0  0  0  0  0  0  0
  199.2382  179.0226  149.1352 H   0  0  0  0  0  0  0  0  0  0  0  0
  198.3619  175.4376  150.0385 H   0  0  0  0  0  0  0  0  0  0  0  0
  199.0220  174.9014  148.4966 H   0  0  0  0  0  0  0  0  0  0  0  0
  197.5564  175.8709  148.5314 H   0  0  0  0  0  0  0  0  0  0  0  0
  200.7657  176.5785  150.4456 H   0  0  0  0  0  0  0  0  0  0  0  0
  201.3035  177.6951  149.1869 H   0  0  0  0  0  0  0  0  0  0  0  0
  201.2199  175.9659  148.8560 H   0  0  0  0  0  0  0  0  0  0  0  0
  196.0430  180.7193  157.1665 H   0  0  0  0  0  0  0  0  0  0  0  0
  195.4402  183.4266  157.3955 H   0  0  0  0  0  0  0  0  0  0  0  0
  195.6313  182.2119  158.6582 H   0  0  0  0  0  0  0  0  0  0  0  0
  201.1498  185.7186  159.8882 H   0  0  0  0  0  0  0  0  0  0  0  0
  203.6149  185.7107  159.9037 H   0  0  0  0  0  0  0  0  0  0  0  0
  204.8749  183.9221  158.7115 H   0  0  0  0  0  0  0  0  0  0  0  0
  203.6387  182.1366  157.4934 H   0  0  0  0  0  0  0  0  0  0  0  0
  201.1888  182.1224  157.4610 H   0  0  0  0  0  0  0  0  0  0  0  0
  199.0513  182.2192  157.4375 H   0  0  0  0  0  0  0  0  0  0  0  0
  197.7919  187.1536  160.0014 H   0  0  0  0  0  0  0  0  0  0  0  0
  196.0179  188.5129  161.0974 H   0  0  0  0  0  0  0  0  0  0  0  0
  193.2426  185.4724  160.7140 H   0  0  0  0  0  0  0  0  0  0  0  0
  194.8589  183.9594  159.6972 H   0  0  0  0  0  0  0  0  0  0  0  0
  199.4122  177.1484  147.9148 H   0  0  0  0  0  0  0  0  0  0  0  0
  1  2  2  0
  2  3  1  0
  2 15  1  0
  3  4  1  0
  3 34  1  0
  4  5  2  0
  4  9  1  0
  5  6  1  0
  5 35  1  0
  6  7  2  0
  6 10  1  0
  7  8  1  0
  7 36  1  0
  8  9  2  0
  8 37  1  0
  9 38  1  0
 10 11  1  0
 10 39  1  1
 10 40  1  0
 11 12  1  0
 11 41  1  6
 11 42  1  0
 12 13  1  0
 12 14  1  0
 12 62  1  6
 13 43  1  1
 13 44  1  0
 13 45  1  0
 14 46  1  1
 14 47  1  0
 14 48  1  0
 15 16  1  0
 15 49  1  0
 16 17  1  0
 16 50  1  6
 16 51  1  0
 17 18  1  0
 17 27  2  0
 18 19  2  0
 18 28  1  0
 19 20  1  0
 20 21  1  0
 20 27  1  0
 21 22  2  0
 21 26  1  0
 22 23  1  0
 22 52  1  0
 23 24  2  0
 23 53  1  0
 24 25  1  0
 24 54  1  0
 25 26  2  0
 25 55  1  0
 26 56  1  0
 27 57  1  0
 28 29  2  0
 28 33  1  0
 29 30  1  0
 29 58  1  0
 30 31  2  0
 30 59  1  0
 31 32  1  0
 32 33  2  0
 32 60  1  0
 33 61  1  0
M  CHG  1  12   1
M  END
>  <s_epik_cmdline>  (1278) 
J2VwaWtfcHl0aG9uJywgJy1waCcsICc3LjAwMDAwMCcsICctcGh0JywgJzIuMDAwMDAwJywgJy1tcycsICcxNicsICctdG4nLCAnOCcsICctbWEnLCAnMjAwJywgJy1pbWFlJywgJzxpbmZpbGUubWFlPicsICctb21hZScsICc8b3V0ZmlsZS5tYWU+Jw==

>  <s_epik_input>  (1278) 
W0NIM11OKFtDSDNdKVtDSDJdW0NIMl1jKFtjSF1bY0hdW2NIXTEpW2NIXWMxW05IXUMoPU8pW05IXVtDSDJdYzJjKC1jM1tjSF1bY0hdbltjSF1bY0hdMylubihbY0hdMiktYzRbY0hdW2NIXVtjSF1bY0hdW2NIXTQ=

>  <s_i_glide_gridfile>  (1278) 
ATP-Grid

>  <s_lp_Force_Field>  (1278) 
OPLS_2005

>  <s_lp_Variant>  (1278) 
m_2430bbb____22524256____2308808-1

>  <s_lp_label>  (1278) 
1943_sdstereoexpander_1_neutralizer_1_epik_1_stereoizer_1

>  <s_m_source_file>  (1278) 
ATP-VSW-LIGPREP-002-in.maegz

>  <s_sd_BIOSOLVEIT.INFINISEE\_QUERY\_NAME>  (1278) 
Ref-Lig

>  <s_sd_BIOSOLVEIT.INFINISEE\_QUERY\_SMILES>  (1278) 
S(c1nc2c(cc1C[NH2+]Cc3ccc(cc3)C[NH+](C)C)cccc2)Cc4ccccc4

>  <s_sd_BIOSOLVEIT.INFINISEE\_REACTION\_NAME>  (1278) 
m_2430bbb

>  <s_sd_BIOSOLVEIT.INFINISEE\_REAGENT1\_SMILES>  (1278) 
[R1*]C(=O)Nc1cc(ccc1)CCN(C)C

>  <s_sd_BIOSOLVEIT.INFINISEE\_REAGENT2\_SMILES>  (1278) 
[R1*]NCC=1C(=NN(c2ccccc2)C1)c3ccncc3

>  <s_sd_BIOSOLVEIT.INFINISEE\_SPACE>  (1278) 
REALSpace_44bn_2023-08

>  <s_vsw_compound_code>  (1278) 
62146

>  <s_vsw_variant>  (1278) 
62146-1

>  <r_epik_Charging_Adjusted_Penalty>  (1278) 
0.0041893016204164503

>  <r_epik_Ionization_Penalty>  (1278) 
0.0088999999999999999

>  <r_epik_Ionization_Penalty_Charging>  (1278) 
0.0041999999999999997

>  <r_epik_Ionization_Penalty_Neutral>  (1278) 
0.0047000000000000002

>  <r_epik_State_Penalty>  (1278) 
-0

>  <r_i_docking_score>  (1278) 
-4.9038842114921897

>  <r_i_glide_ecoul>  (1278) 
-9.0781345367431605

>  <r_i_glide_eff_state_penalty>  (1278) 
-0

>  <r_i_glide_einternal>  (1278) 
6.6099753379821804

>  <r_i_glide_emodel>  (1278) 
-59.090304279107102

>  <r_i_glide_energy>  (1278) 
-45.532209396362298

>  <r_i_glide_erotb>  (1278) 
0.92213309388596298

>  <r_i_glide_esite>  (1278) 
-0.21013621793614701

>  <r_i_glide_evdw>  (1278) 
-36.454074859619098

>  <r_i_glide_gscore>  (1278) 
-4.9038842114921897

>  <r_i_glide_hbond>  (1278) 
-0.16

>  <r_i_glide_ligand_efficiency>  (1278) 
-0.14860255186339999

>  <r_i_glide_ligand_efficiency_ln>  (1278) 
-1.09059845768231

>  <r_i_glide_ligand_efficiency_sa>  (1278) 
-0.47664778607130598

>  <r_i_glide_lipo>  (1278) 
-1.7815991662841699

>  <r_i_glide_metal>  (1278) 
-0

>  <r_i_glide_rewards>  (1278) 
-0.489857997665403

>  <r_lp_Energy>  (1278) 
23.782260000000001

>  <r_lp_tautomer_probability>  (1278) 
1

>  <r_qp_ACxDN^.5/SA>  (1278) 
0.010831800000000001

>  <r_qp_CIQPlogS>  (1278) 
-5.2030000000000003

>  <r_qp_EA(eV)>  (1278) 
0.72399999999999998

>  <r_qp_FISA>  (1278) 
101.342

>  <r_qp_FOSA>  (1278) 
237.024

>  <r_qp_IP(eV)>  (1278) 
8.8469999999999995

>  <r_qp_Jm>  (1278) 
0.00018963807721540901

>  <r_qp_PISA>  (1278) 
510.28100000000001

>  <r_qp_PSA>  (1278) 
79.834000000000003

>  <r_qp_PercentHumanOralAbsorption>  (1278) 
93.816999999999993

>  <r_qp_QPPCaco>  (1278) 
184.52600000000001

>  <r_qp_QPPMDCK>  (1278) 
133.059

>  <r_qp_QPlogBB>  (1278) 
-0.61899999999999999

>  <r_qp_QPlogHERG>  (1278) 
-7.4530000000000003

>  <r_qp_QPlogKhsa>  (1278) 
0.73699999999999999

>  <r_qp_QPlogKp>  (1278) 
-3.0760000000000001

>  <r_qp_QPlogPC16>  (1278) 
17.256

>  <r_qp_QPlogPo/w>  (1278) 
4.4939999999999998

>  <r_qp_QPlogPoct>  (1278) 
25.244

>  <r_qp_QPlogPw>  (1278) 
15.471

>  <r_qp_QPlogS>  (1278) 
-6.29

>  <r_qp_QPpolrz>  (1278) 
54.616

>  <r_qp_SASA>  (1278) 
848.64700000000005

>  <r_qp_SAamideO>  (1278) 
20.818999999999999

>  <r_qp_SAfluorine>  (1278) 
0

>  <r_qp_WPSA>  (1278) 
0

>  <r_qp_accptHB>  (1278) 
6.5

>  <r_qp_dip^2/V>  (1278) 
0.042289800000000002

>  <r_qp_dipole>  (1278) 
7.9459999999999997

>  <r_qp_donorHB>  (1278) 
2

>  <r_qp_glob>  (1278) 
0.74440170000000006

>  <r_qp_mol_MW>  (1278) 
440.54700000000003

>  <r_qp_volume>  (1278) 
1492.98

>  <r_sd_BIOSOLVEIT.INFINISEE\_FTREES\_SIMILARITY>  (1278) 
0.90200000000000002

>  <r_sd_BIOSOLVEIT.LOGP>  (1278) 
2.9430000000000001

>  <r_sd_BIOSOLVEIT.MOLECULAR\_WEIGHT>  (1278) 
441.55599999999998

>  <r_sd_BIOSOLVEIT.TPSA>  (1278) 
76.280000000000001

>  <i_epik_Tot_Q>  (1278) 
1

>  <i_epik_Tot_abs_Q>  (1278) 
1

>  <i_f3d_flags>  (1278) 
0

>  <i_i_glide_confnum>  (1278) 
2

>  <i_i_glide_lignum>  (1278) 
703

>  <i_i_glide_posenum>  (1278) 
14

>  <i_i_glide_rotatable_bonds>  (1278) 
10

>  <i_lp_mmshare_version>  (1278) 
65135

>  <i_m_ct_format>  (1278) 
2

>  <i_m_source_file_index>  (1278) 
1943

>  <i_qp_#NandO>  (1278) 
7

>  <i_qp_#acid>  (1278) 
0

>  <i_qp_#amide>  (1278) 
1

>  <i_qp_#amidine>  (1278) 
0

>  <i_qp_#amine>  (1278) 
1

>  <i_qp_#in34>  (1278) 
0

>  <i_qp_#in56>  (1278) 
23

>  <i_qp_#metab>  (1278) 
6

>  <i_qp_#nonHatm>  (1278) 
33

>  <i_qp_#noncon>  (1278) 
0

>  <i_qp_#ringatoms>  (1278) 
23

>  <i_qp_#rotor>  (1278) 
6

>  <i_qp_#rtvFG>  (1278) 
0

>  <i_qp_#stars>  (1278) 
2

>  <i_qp_CNS>  (1278) 
1

>  <i_qp_HumanOralAbsorption>  (1278) 
1

>  <i_qp_RuleOfFive>  (1278) 
0

>  <i_qp_RuleOfThree>  (1278) 
1

>  <i_sd_BIOSOLVEIT.INFINISEE\_REAGENT1\_NAME>  (1278) 
22524256

>  <i_sd_BIOSOLVEIT.INFINISEE\_REAGENT2\_NAME>  (1278) 
2308808

>  <i_sd_BIOSOLVEIT.INFINISEE\_RESULT\_RANK>  (1278) 
87112

>  <i_sd_version>  (1278) 
0

>  <b_lp_Chiralities_Consistent>  (1278) 
1

>  <b_sd_chiral_flag>  (1278) 
0

>  <canonical_id>  (1278) 
ATP-HTVS-CA5141603A6E

>  <compound_code>  (1278) 
62146

>  <title>  (1278) 
m_2430bbb____22524256____2308808

>  <variant>  (1278) 
62146-1

>  <source_file>  (1278) 
运行/运行/ATP-VSW/ATP-VSW-DOCK_HTVS_1-002_lib.maegz

>  <canonical_smiles>  (1278) 
C[NH+](C)CCc1cccc(NC(=O)NCc2cn(-c3ccccc3)nc2-c2ccncc2)c1

>  <scaffold>  (1278) 
O=C(NCc1cn(-c2ccccc2)nc1-c1ccncc1)Nc1ccccc1

>  <molecular_formula>  (1278) 
C26H29N6O+

$$$$
ATP-HTVS-CA6523C86104
     RDKit          3D

 56 58  0  0  0  0  0  0  0  0999 V2000
  198.8151  177.8336  146.5990 Cl  0  0  0  0  0  0  0  0  0  0  0  0
  198.3343  178.9495  147.8268 C   0  0  0  0  0  0  0  0  0  0  0  0
  199.1769  180.0204  148.1815 C   0  0  0  0  0  0  0  0  0  0  0  0
  198.7911  180.9180  149.1977 C   0  0  0  0  0  0  0  0  0  0  0  0
  197.5253  180.7989  149.8179 C   0  0  0  0  0  0  0  0  0  0  0  0
  197.1248  181.7333  150.8285 N   0  0  0  0  0  0  0  0  0  0  0  0
  197.0270  181.1777  152.1516 C   0  0  0  0  0  0  0  0  0  0  0  0
  196.4341  179.5555  152.5296 S   0  0  0  0  0  0  0  0  0  0  0  0
  196.7887  179.8411  154.2147 C   0  0  0  0  0  0  0  0  0  0  0  0
  197.3164  181.0894  154.4157 C   0  0  0  0  0  0  0  0  0  0  0  0
  197.4507  181.8320  153.2421 N   0  0  0  0  0  0  0  0  0  0  0  0
  197.7594  181.6491  155.7197 C   0  0  1  0  0  0  0  0  0  0  0  0
  196.6064  181.7744  156.6316 N   0  0  1  0  0  0  0  0  0  0  0  0
  196.9755  181.9772  158.0456 C   0  0  1  0  0  0  0  0  0  0  0  0
  196.1031  183.0310  158.6876 C   0  0  0  0  0  0  0  0  0  0  0  0
  196.6865  184.1711  159.2801 C   0  0  0  0  0  0  0  0  0  0  0  0
  195.8708  185.1534  159.8791 C   0  0  0  0  0  0  0  0  0  0  0  0
  194.4719  184.9862  159.8810 C   0  0  0  0  0  0  0  0  0  0  0  0
  193.8914  183.8566  159.2781 C   0  0  0  0  0  0  0  0  0  0  0  0
  194.7033  182.8739  158.6882 C   0  0  0  0  0  0  0  0  0  0  0  0
  196.4895  186.3844  160.5175 C   0  0  1  0  0  0  0  0  0  0  0  0
  196.3683  187.5989  159.6735 N   0  0  1  0  0  0  0  0  0  0  0  0
  196.8150  188.8136  160.3931 C   0  0  2  0  0  0  0  0  0  0  0  0
  197.0215  187.4716  158.3487 C   0  0  2  0  0  0  0  0  0  0  0  0
  196.8736  183.0471  150.5569 C   0  0  0  0  0  0  0  0  0  0  0  0
  196.3447  183.7994  151.3732 O   0  0  0  0  0  0  0  0  0  0  0  0
  197.1527  183.6330  149.1623 C   0  0  2  0  0  0  0  0  0  0  0  0
  196.6746  179.7300  149.4314 C   0  0  0  0  0  0  0  0  0  0  0  0
  197.0908  178.7946  148.4629 C   0  0  0  0  0  0  0  0  0  0  0  0
  196.0112  182.5255  156.3087 H   0  0  0  0  0  0  0  0  0  0  0  0
  200.1248  180.1513  147.6833 H   0  0  0  0  0  0  0  0  0  0  0  0
  199.4699  181.7078  149.4873 H   0  0  0  0  0  0  0  0  0  0  0  0
  196.6060  179.0822  154.9664 H   0  0  0  0  0  0  0  0  0  0  0  0
  198.5152  180.9972  156.1614 H   0  0  0  0  0  0  0  0  0  0  0  0
  198.2241  182.6311  155.5969 H   0  0  0  0  0  0  0  0  0  0  0  0
  196.8600  181.0363  158.5828 H   0  0  0  0  0  0  0  0  0  0  0  0
  198.0204  182.2730  158.1346 H   0  0  0  0  0  0  0  0  0  0  0  0
  197.7603  184.2924  159.2746 H   0  0  0  0  0  0  0  0  0  0  0  0
  193.8305  185.7323  160.3264 H   0  0  0  0  0  0  0  0  0  0  0  0
  192.8177  183.7510  159.2584 H   0  0  0  0  0  0  0  0  0  0  0  0
  194.2442  182.0087  158.2270 H   0  0  0  0  0  0  0  0  0  0  0  0
  195.9896  186.5581  161.4717 H   0  0  0  0  0  0  0  0  0  0  0  0
  197.5394  186.1907  160.7340 H   0  0  0  0  0  0  0  0  0  0  0  0
  197.8765  188.7597  160.6420 H   0  0  0  0  0  0  0  0  0  0  0  0
  196.2575  188.9456  161.3217 H   0  0  0  0  0  0  0  0  0  0  0  0
  196.6518  189.7039  159.7845 H   0  0  0  0  0  0  0  0  0  0  0  0
  198.0917  187.2892  158.4563 H   0  0  0  0  0  0  0  0  0  0  0  0
  196.8887  188.3830  157.7639 H   0  0  0  0  0  0  0  0  0  0  0  0
  196.5919  186.6557  157.7668 H   0  0  0  0  0  0  0  0  0  0  0  0
  196.3793  183.3175  148.4658 H   0  0  0  0  0  0  0  0  0  0  0  0
  198.1317  183.3633  148.7624 H   0  0  0  0  0  0  0  0  0  0  0  0
  197.1231  184.7231  149.2097 H   0  0  0  0  0  0  0  0  0  0  0  0
  195.6980  179.6125  149.8809 H   0  0  0  0  0  0  0  0  0  0  0  0
  196.4520  177.9657  148.2009 H   0  0  0  0  0  0  0  0  0  0  0  0
  195.3821  187.7259  159.4945 H   0  0  0  0  0  0  0  0  0  0  0  0
  196.0667  180.9176  156.6022 H   0  0  0  0  0  0  0  0  0  0  0  0
  1  2  1  0
  2  3  1  0
  2 29  2  0
  3  4  2  0
  3 31  1  0
  4  5  1  0
  4 32  1  0
  5  6  1  0
  5 28  2  0
  6  7  1  0
  6 25  1  0
  7  8  1  0
  7 11  2  0
  8  9  1  0
  9 10  2  0
  9 33  1  0
 10 11  1  0
 10 12  1  0
 12 13  1  0
 12 34  1  1
 12 35  1  0
 13 14  1  0
 13 30  1  6
 13 56  1  0
 14 15  1  0
 14 36  1  1
 14 37  1  0
 15 16  2  0
 15 20  1  0
 16 17  1  0
 16 38  1  0
 17 18  2  0
 17 21  1  0
 18 19  1  0
 18 39  1  0
 19 20  2  0
 19 40  1  0
 20 41  1  0
 21 22  1  0
 21 42  1  1
 21 43  1  0
 22 23  1  0
 22 24  1  0
 22 55  1  6
 23 44  1  1
 23 45  1  0
 23 46  1  0
 24 47  1  1
 24 48  1  0
 24 49  1  0
 25 26  2  0
 25 27  1  0
 27 50  1  6
 27 51  1  0
 27 52  1  0
 28 29  1  0
 28 53  1  0
 29 54  1  0
M  CHG  2  13   1  22   1
M  END
>  <s_epik_cmdline>  (1279) 
J2VwaWtfcHl0aG9uJywgJy1waCcsICc3LjAwMDAwMCcsICctcGh0JywgJzIuMDAwMDAwJywgJy1tcycsICcxNicsICctdG4nLCAnOCcsICctbWEnLCAnMjAwJywgJy1pbWFlJywgJzxpbmZpbGUubWFlPicsICctb21hZScsICc8b3V0ZmlsZS5tYWU+Jw==

>  <s_epik_input>  (1279) 
Q2xjMVtjSF1bY0hdYyhbY0hdW2NIXTEpTihDKD1PKVtDSDNdKWMyc1tjSF1jKG4yKVtDSDJdW05IXVtDSDJdYzNbY0hdYyhbY0hdW2NIXVtjSF0zKVtDSDJdTihbQ0gzXSlbQ0gzXQ==

>  <s_i_glide_gridfile>  (1279) 
ATP-Grid

>  <s_lp_Force_Field>  (1279) 
OPLS_2005

>  <s_lp_Variant>  (1279) 
m_270004bbb____8349656____7548974-1

>  <s_lp_label>  (1279) 
1011_sdstereoexpander_1_neutralizer_1_epik_1_stereoizer_1

>  <s_m_source_file>  (1279) 
ATP-VSW-LIGPREP-002-in.maegz

>  <s_sd_BIOSOLVEIT.INFINISEE\_QUERY\_NAME>  (1279) 
Ref-Lig

>  <s_sd_BIOSOLVEIT.INFINISEE\_QUERY\_SMILES>  (1279) 
S(c1nc2c(cc1C[NH2+]Cc3ccc(cc3)C[NH+](C)C)cccc2)Cc4ccccc4

>  <s_sd_BIOSOLVEIT.INFINISEE\_REACTION\_NAME>  (1279) 
m_270004bbb

>  <s_sd_BIOSOLVEIT.INFINISEE\_REAGENT1\_SMILES>  (1279) 
[R1*]NCc1cc(ccc1)CN(C)C

>  <s_sd_BIOSOLVEIT.INFINISEE\_REAGENT2\_SMILES>  (1279) 
[R1*]CC=1N=C(SC1)N(c2ccc(Cl)cc2)C(=O)C

>  <s_sd_BIOSOLVEIT.INFINISEE\_SPACE>  (1279) 
REALSpace_44bn_2023-08

>  <s_vsw_compound_code>  (1279) 
32322

>  <s_vsw_variant>  (1279) 
32322-1

>  <r_epik_Charging_Adjusted_Penalty>  (1279) 
0.43793549869592902

>  <r_epik_Ionization_Penalty>  (1279) 
0.22059999999999999

>  <r_epik_Ionization_Penalty_Charging>  (1279) 
0.22059999999999999

>  <r_epik_Ionization_Penalty_Neutral>  (1279) 
0

>  <r_epik_State_Penalty>  (1279) 
0.21729999999999999

>  <r_i_docking_score>  (1279) 
-5.3627209691022104

>  <r_i_glide_ecoul>  (1279) 
-10.2383155822754

>  <r_i_glide_eff_state_penalty>  (1279) 
0.21729999999999999

>  <r_i_glide_einternal>  (1279) 
7.4761857986450204

>  <r_i_glide_emodel>  (1279) 
-72.053159701513593

>  <r_i_glide_energy>  (1279) 
-49.138957977294901

>  <r_i_glide_erotb>  (1279) 
0.74937990826423195

>  <r_i_glide_esite>  (1279) 
-0.084892818884323998

>  <r_i_glide_evdw>  (1279) 
-38.900642395019503

>  <r_i_glide_gscore>  (1279) 
-5.5800209691022102

>  <r_i_glide_hbond>  (1279) 
-0.094021934284888101

>  <r_i_glide_ligand_efficiency>  (1279) 
-0.18492141272766299

>  <r_i_glide_ligand_efficiency_ln>  (1279) 
-1.2279271150539

>  <r_i_glide_ligand_efficiency_sa>  (1279) 
-0.56813716711509898

>  <r_i_glide_lipo>  (1279) 
-1.8475565262540401

>  <r_i_glide_metal>  (1279) 
-0

>  <r_i_glide_rewards>  (1279) 
-0.82215014085091098

>  <r_lp_Energy>  (1279) 
32.177013000000002

>  <r_lp_tautomer_probability>  (1279) 
1

>  <r_qp_ACxDN^.5/SA>  (1279) 
0.010057999999999999

>  <r_qp_CIQPlogS>  (1279) 
-3.6469999999999998

>  <r_qp_EA(eV)>  (1279) 
1.1819999999999999

>  <r_qp_FISA>  (1279) 
57.5

>  <r_qp_FOSA>  (1279) 
325.58300000000003

>  <r_qp_IP(eV)>  (1279) 
9.0239999999999991

>  <r_qp_Jm>  (1279) 
0.00020511962486035801

>  <r_qp_PISA>  (1279) 
301.52300000000002

>  <r_qp_PSA>  (1279) 
59.103999999999999

>  <r_qp_PercentHumanOralAbsorption>  (1279) 
90.516000000000005

>  <r_qp_QPPCaco>  (1279) 
175.56200000000001

>  <r_qp_QPPMDCK>  (1279) 
373.49299999999999

>  <r_qp_QPlogBB>  (1279) 
0.48799999999999999

>  <r_qp_QPlogHERG>  (1279) 
-8.2970000000000006

>  <r_qp_QPlogKhsa>  (1279) 
0.45100000000000001

>  <r_qp_QPlogKp>  (1279) 
-4.8739999999999997

>  <r_qp_QPlogPC16>  (1279) 
15.000999999999999

>  <r_qp_QPlogPo/w>  (1279) 
3.996

>  <r_qp_QPlogPoct>  (1279) 
21.759

>  <r_qp_QPlogPw>  (1279) 
11.694000000000001

>  <r_qp_QPlogS>  (1279) 
-4.4459999999999997

>  <r_qp_QPpolrz>  (1279) 
47.578000000000003

>  <r_qp_SASA>  (1279) 
795.38599999999997

>  <r_qp_SAamideO>  (1279) 
0

>  <r_qp_SAfluorine>  (1279) 
0

>  <r_qp_WPSA>  (1279) 
110.78100000000001

>  <r_qp_accptHB>  (1279) 
8

>  <r_qp_dip^2/V>  (1279) 
0.0155905

>  <r_qp_dipole>  (1279) 
4.6699999999999999

>  <r_qp_donorHB>  (1279) 
1

>  <r_qp_glob>  (1279) 
0.76056939999999995

>  <r_qp_mol_MW>  (1279) 
428.97899999999998

>  <r_qp_volume>  (1279) 
1399.0329999999999

>  <r_sd_BIOSOLVEIT.INFINISEE\_FTREES\_SIMILARITY>  (1279) 
0.91600000000000004

>  <r_sd_BIOSOLVEIT.LOGP>  (1279) 
2.3892000000000002

>  <r_sd_BIOSOLVEIT.TPSA>  (1279) 
54.25

>  <i_epik_Tot_Q>  (1279) 
2

>  <i_epik_Tot_abs_Q>  (1279) 
2

>  <i_f3d_flags>  (1279) 
0

>  <i_i_glide_confnum>  (1279) 
8

>  <i_i_glide_lignum>  (1279) 
316

>  <i_i_glide_posenum>  (1279) 
1

>  <i_i_glide_rotatable_bonds>  (1279) 
9

>  <i_lp_mmshare_version>  (1279) 
65135

>  <i_m_ct_format>  (1279) 
2

>  <i_m_source_file_index>  (1279) 
1011

>  <i_qp_#NandO>  (1279) 
5

>  <i_qp_#acid>  (1279) 
0

>  <i_qp_#amide>  (1279) 
0

>  <i_qp_#amidine>  (1279) 
0

>  <i_qp_#amine>  (1279) 
2

>  <i_qp_#in34>  (1279) 
0

>  <i_qp_#in56>  (1279) 
17

>  <i_qp_#metab>  (1279) 
6

>  <i_qp_#nonHatm>  (1279) 
29

>  <i_qp_#noncon>  (1279) 
0

>  <i_qp_#ringatoms>  (1279) 
17

>  <i_qp_#rotor>  (1279) 
8

>  <i_qp_#rtvFG>  (1279) 
0

>  <i_qp_#stars>  (1279) 
0

>  <i_qp_CNS>  (1279) 
2

>  <i_qp_HumanOralAbsorption>  (1279) 
3

>  <i_qp_RuleOfFive>  (1279) 
0

>  <i_qp_RuleOfThree>  (1279) 
0

>  <i_sd_BIOSOLVEIT.INFINISEE\_REAGENT1\_NAME>  (1279) 
8349656

>  <i_sd_BIOSOLVEIT.INFINISEE\_REAGENT2\_NAME>  (1279) 
7548974

>  <i_sd_BIOSOLVEIT.INFINISEE\_RESULT\_RANK>  (1279) 
26722

>  <i_sd_BIOSOLVEIT.MOLECULAR\_WEIGHT>  (1279) 
431

>  <i_sd_version>  (1279) 
0

>  <b_lp_Chiralities_Consistent>  (1279) 
1

>  <b_sd_chiral_flag>  (1279) 
0

>  <canonical_id>  (1279) 
ATP-HTVS-CA6523C86104

>  <compound_code>  (1279) 
32322

>  <title>  (1279) 
m_270004bbb____8349656____7548974

>  <variant>  (1279) 
32322-1

>  <source_file>  (1279) 
运行/运行/ATP-VSW/ATP-VSW-DOCK_HTVS_1-002_lib.maegz

>  <canonical_smiles>  (1279) 
CC(=O)N(c1ccc(Cl)cc1)c1nc(C[NH2+]Cc2cccc(C[NH+](C)C)c2)cs1

>  <scaffold>  (1279) 
c1ccc(C[NH2+]Cc2csc(Nc3ccccc3)n2)cc1

>  <molecular_formula>  (1279) 
C22H27ClN4OS+2

$$$$
ATP-HTVS-CA9A4676B579
     RDKit          3D

 59 61  0  0  0  0  0  0  0  0999 V2000
  198.9411  186.3154  157.7756 Cl  0  0  0  0  0  0  0  0  0  0  0  0
  197.6152  185.9426  158.8157 C   0  0  0  0  0  0  0  0  0  0  0  0
  197.2940  184.6255  159.2540 C   0  0  0  0  0  0  0  0  0  0  0  0
  196.1777  184.4533  160.1046 C   0  0  0  0  0  0  0  0  0  0  0  0
  195.4054  185.5565  160.5178 C   0  0  0  0  0  0  0  0  0  0  0  0
  195.7420  186.8519  160.0946 C   0  0  0  0  0  0  0  0  0  0  0  0
  196.8395  187.0367  159.2413 C   0  0  0  0  0  0  0  0  0  0  0  0
  198.1021  183.3857  158.8546 C   0  0  1  0  0  0  0  0  0  0  0  0
  197.9503  183.0536  157.4117 N   0  0  0  0  0  0  0  0  0  0  0  0
  198.8851  183.2905  156.4487 C   0  0  0  0  0  0  0  0  0  0  0  0
  200.0547  183.5515  156.7104 O   0  0  0  0  0  0  0  0  0  0  0  0
  198.4927  183.2808  155.0026 C   0  0  0  0  0  0  0  0  0  0  0  0
  199.8219  183.0404  153.8862 S   0  0  0  0  0  0  0  0  0  0  0  0
  198.7878  183.2720  152.5136 C   0  0  0  0  0  0  0  0  0  0  0  0
  197.4830  183.4888  152.8956 C   0  0  0  0  0  0  0  0  0  0  0  0
  196.3537  183.6826  152.0861 N   0  0  0  0  0  0  0  0  0  0  0  0
  196.3487  183.4489  150.6465 C   0  0  1  0  0  0  0  0  0  0  0  0
  197.0293  182.1656  150.2063 C   0  0  0  0  0  0  0  0  0  0  0  0
  196.5280  180.9170  150.6375 C   0  0  0  0  0  0  0  0  0  0  0  0
  197.1240  179.7255  150.1874 C   0  0  0  0  0  0  0  0  0  0  0  0
  198.2243  179.7727  149.3082 C   0  0  0  0  0  0  0  0  0  0  0  0
  198.7780  181.0198  148.9445 C   0  0  0  0  0  0  0  0  0  0  0  0
  198.1678  182.2130  149.3761 C   0  0  0  0  0  0  0  0  0  0  0  0
  198.7728  178.4865  148.7060 C   0  0  1  0  0  0  0  0  0  0  0  0
  198.1515  178.1831  147.3818 N   0  0  2  0  0  0  0  0  0  0  0  0
  198.6181  179.0750  146.2930 C   0  0  2  0  0  0  0  0  0  0  0  0
  196.6748  178.0811  147.4198 C   0  0  2  0  0  0  0  0  0  0  0  0
  197.3249  183.5311  154.3133 C   0  0  0  0  0  0  0  0  0  0  0  0
  196.6179  182.5052  157.1041 C   0  0  2  0  0  0  0  0  0  0  0  0
  199.5327  183.4233  159.4436 C   0  0  2  0  0  0  0  0  0  0  0  0
  195.9065  183.4644  160.4535 H   0  0  0  0  0  0  0  0  0  0  0  0
  194.5516  185.4372  161.1696 H   0  0  0  0  0  0  0  0  0  0  0  0
  195.1638  187.7062  160.4154 H   0  0  0  0  0  0  0  0  0  0  0  0
  197.1050  188.0289  158.9119 H   0  0  0  0  0  0  0  0  0  0  0  0
  197.6540  182.5399  159.3721 H   0  0  0  0  0  0  0  0  0  0  0  0
  199.2079  183.2178  151.5198 H   0  0  0  0  0  0  0  0  0  0  0  0
  195.4557  183.8086  152.5661 H   0  0  0  0  0  0  0  0  0  0  0  0
  195.3071  183.4097  150.3219 H   0  0  0  0  0  0  0  0  0  0  0  0
  196.8013  184.3062  150.1461 H   0  0  0  0  0  0  0  0  0  0  0  0
  195.6740  180.8802  151.2964 H   0  0  0  0  0  0  0  0  0  0  0  0
  196.7148  178.7787  150.5016 H   0  0  0  0  0  0  0  0  0  0  0  0
  199.6473  181.0750  148.3088 H   0  0  0  0  0  0  0  0  0  0  0  0
  198.5737  183.1643  149.0655 H   0  0  0  0  0  0  0  0  0  0  0  0
  199.8587  178.5565  148.6070 H   0  0  0  0  0  0  0  0  0  0  0  0
  198.5884  177.6557  149.3895 H   0  0  0  0  0  0  0  0  0  0  0  0
  198.3001  180.1049  146.4534 H   0  0  0  0  0  0  0  0  0  0  0  0
  198.2156  178.7551  145.3309 H   0  0  0  0  0  0  0  0  0  0  0  0
  199.7052  179.0605  146.2185 H   0  0  0  0  0  0  0  0  0  0  0  0
  196.2043  179.0235  147.7067 H   0  0  0  0  0  0  0  0  0  0  0  0
  196.3641  177.3149  148.1315 H   0  0  0  0  0  0  0  0  0  0  0  0
  196.2757  177.8110  146.4409 H   0  0  0  0  0  0  0  0  0  0  0  0
  196.3564  183.7437  154.7464 H   0  0  0  0  0  0  0  0  0  0  0  0
  196.6532  181.7694  156.2938 H   0  0  0  0  0  0  0  0  0  0  0  0
  195.9386  183.3125  156.8232 H   0  0  0  0  0  0  0  0  0  0  0  0
  196.1672  181.9816  157.9465 H   0  0  0  0  0  0  0  0  0  0  0  0
  199.4888  183.4364  160.5309 H   0  0  0  0  0  0  0  0  0  0  0  0
  200.0914  184.3093  159.1446 H   0  0  0  0  0  0  0  0  0  0  0  0
  200.1169  182.5492  159.1494 H   0  0  0  0  0  0  0  0  0  0  0  0
  198.4856  177.2637  147.1339 H   0  0  0  0  0  0  0  0  0  0  0  0
  1  2  1  0
  2  3  1  0
  2  7  2  0
  3  4  2  0
  3  8  1  0
  4  5  1  0
  4 31  1  0
  5  6  2  0
  5 32  1  0
  6  7  1  0
  6 33  1  0
  7 34  1  0
  8  9  1  0
  8 30  1  0
  8 35  1  1
  9 10  1  0
  9 29  1  0
 10 11  2  0
 10 12  1  0
 12 13  1  0
 12 28  2  0
 13 14  1  0
 14 15  2  0
 14 36  1  0
 15 16  1  0
 15 28  1  0
 16 17  1  0
 16 37  1  0
 17 18  1  0
 17 38  1  6
 17 39  1  0
 18 19  1  0
 18 23  2  0
 19 20  2  0
 19 40  1  0
 20 21  1  0
 20 41  1  0
 21 22  2  0
 21 24  1  0
 22 23  1  0
 22 42  1  0
 23 43  1  0
 24 25  1  0
 24 44  1  6
 24 45  1  0
 25 26  1  0
 25 27  1  0
 25 59  1  6
 26 46  1  1
 26 47  1  0
 26 48  1  0
 27 49  1  1
 27 50  1  0
 27 51  1  0
 28 52  1  0
 29 53  1  6
 29 54  1  0
 29 55  1  0
 30 56  1  1
 30 57  1  0
 30 58  1  0
M  CHG  1  25   1
M  END
>  <s_epik_cmdline>  (1280) 
J2VwaWtfcHl0aG9uJywgJy1waCcsICc3LjAwMDAwMCcsICctcGh0JywgJzIuMDAwMDAwJywgJy1tcycsICcxNicsICctdG4nLCAnOCcsICctbWEnLCAnMjAwJywgJy1pbWFlJywgJzxpbmZpbGUubWFlPicsICctb21hZScsICc8b3V0ZmlsZS5tYWU+Jw==

>  <s_epik_input>  (1280) 
W2NIXTFbY0hdW2NIXVtjSF1jKGMxQ2wpW0NASF0oW0NIM10pTihbQ0gzXSlDKD1PKWMyc1tjSF1jKFtjSF0yKVtOSF1bQ0gyXWMzW2NIXVtjSF1jKFtjSF1bY0hdMylbQ0gyXU4oW0NIM10pW0NIM10=

>  <s_i_glide_gridfile>  (1280) 
ATP-Grid

>  <s_lp_Force_Field>  (1280) 
OPLS_2005

>  <s_lp_Variant>  (1280) 
rxn512b____EMOL31407338____EMOL720738____EMOL50155899-2

>  <s_lp_label>  (1280) 
2531_sdstereoexpander_2_neutralizer_1_epik_1_stereoizer_1

>  <s_m_source_file>  (1280) 
ATP-VSW-LIGPREP-002-in.maegz

>  <s_sd_BIOSOLVEIT.INFINISEE\_QUERY\_NAME>  (1280) 
Ref-Lig

>  <s_sd_BIOSOLVEIT.INFINISEE\_QUERY\_SMILES>  (1280) 
S(c1nc2c(cc1C[NH2+]Cc3ccc(cc3)C[NH+](C)C)cccc2)Cc4ccccc4

>  <s_sd_BIOSOLVEIT.INFINISEE\_REACTION\_NAME>  (1280) 
rxn512b

>  <s_sd_BIOSOLVEIT.INFINISEE\_REAGENT1\_NAME>  (1280) 
EMOL31407338

>  <s_sd_BIOSOLVEIT.INFINISEE\_REAGENT1\_SMILES>  (1280) 
Clc1c(cccc1)C(NC)C

>  <s_sd_BIOSOLVEIT.INFINISEE\_REAGENT2\_NAME>  (1280) 
EMOL720738

>  <s_sd_BIOSOLVEIT.INFINISEE\_REAGENT2\_SMILES>  (1280) 
BrC1=CSC(C(=O)O)=C1

>  <s_sd_BIOSOLVEIT.INFINISEE\_REAGENT3\_NAME>  (1280) 
EMOL50155899

>  <s_sd_BIOSOLVEIT.INFINISEE\_REAGENT3\_SMILES>  (1280) 
N(Cc1ccc(cc1)CN)(C)C

>  <s_sd_BIOSOLVEIT.INFINISEE\_SPACE>  (1280) 
eXplore_7tr_2022-12

>  <s_vsw_compound_code>  (1280) 
80962

>  <s_vsw_variant>  (1280) 
80962-2

>  <r_epik_Charging_Adjusted_Penalty>  (1280) 
0.080189274810459593

>  <r_epik_Ionization_Penalty>  (1280) 
0.040099999999999997

>  <r_epik_Ionization_Penalty_Charging>  (1280) 
0.040099999999999997

>  <r_epik_Ionization_Penalty_Neutral>  (1280) 
0

>  <r_epik_State_Penalty>  (1280) 
0.040099999999999997

>  <r_i_docking_score>  (1280) 
-4.4332301237376202

>  <r_i_glide_ecoul>  (1280) 
-6.6355891227722203

>  <r_i_glide_eff_state_penalty>  (1280) 
0.040099999999999997

>  <r_i_glide_einternal>  (1280) 
4.1361417770385698

>  <r_i_glide_emodel>  (1280) 
-50.097389944284998

>  <r_i_glide_energy>  (1280) 
-38.356732845306396

>  <r_i_glide_erotb>  (1280) 
0.712878641495303

>  <r_i_glide_esite>  (1280) 
-0.092692870375529701

>  <r_i_glide_evdw>  (1280) 
-31.721143722534201

>  <r_i_glide_gscore>  (1280) 
-4.47333012373762

>  <r_i_glide_hbond>  (1280) 
-0.16

>  <r_i_glide_ligand_efficiency>  (1280) 
-0.14777433745792101

>  <r_i_glide_ligand_efficiency_ln>  (1280) 
-1.0072781880242301

>  <r_i_glide_ligand_efficiency_sa>  (1280) 
-0.459169224374471

>  <r_i_glide_lipo>  (1280) 
-1.96365620395122

>  <r_i_glide_metal>  (1280) 
-0

>  <r_i_glide_rewards>  (1280) 
-0.38846413636363603

>  <r_lp_Energy>  (1280) 
27.606435000000001

>  <r_lp_tautomer_probability>  (1280) 
0.99999274205267796

>  <r_qp_ACxDN^.5/SA>  (1280) 
0.0092694000000000006

>  <r_qp_CIQPlogS>  (1280) 
-4.7270000000000003

>  <r_qp_EA(eV)>  (1280) 
0.47899999999999998

>  <r_qp_FISA>  (1280) 
34.421999999999997

>  <r_qp_FOSA>  (1280) 
286.767

>  <r_qp_IP(eV)>  (1280) 
8.3179999999999996

>  <r_qp_Jm>  (1280) 
0.024694423970152299

>  <r_qp_PISA>  (1280) 
229.017

>  <r_qp_PSA>  (1280) 
41.918999999999997

>  <r_qp_PercentHumanOralAbsorption>  (1280) 
96.043000000000006

>  <r_qp_QPPCaco>  (1280) 
290.58699999999999

>  <r_qp_QPPMDCK>  (1280) 
541.77200000000005

>  <r_qp_QPlogBB>  (1280) 
0.82499999999999996

>  <r_qp_QPlogHERG>  (1280) 
-5.9029999999999996

>  <r_qp_QPlogKhsa>  (1280) 
0.64600000000000002

>  <r_qp_QPlogKp>  (1280) 
-4.7039999999999997

>  <r_qp_QPlogPC16>  (1280) 
13.007999999999999

>  <r_qp_QPlogPo/w>  (1280) 
4.2709999999999999

>  <r_qp_QPlogPoct>  (1280) 
19.338999999999999

>  <r_qp_QPlogPw>  (1280) 
8.7129999999999992

>  <r_qp_QPlogS>  (1280) 
-2.5489999999999999

>  <r_qp_QPpolrz>  (1280) 
42.673000000000002

>  <r_qp_SASA>  (1280) 
647.29399999999998

>  <r_qp_SAamideO>  (1280) 
0

>  <r_qp_SAfluorine>  (1280) 
0

>  <r_qp_WPSA>  (1280) 
97.087000000000003

>  <r_qp_accptHB>  (1280) 
6

>  <r_qp_dip^2/V>  (1280) 
0.0279312

>  <r_qp_dipole>  (1280) 
6.0110000000000001

>  <r_qp_donorHB>  (1280) 
1

>  <r_qp_glob>  (1280) 
0.8870941

>  <r_qp_mol_MW>  (1280) 
442.01799999999997

>  <r_qp_volume>  (1280) 
1293.7760000000001

>  <r_sd_BIOSOLVEIT.INFINISEE\_FTREES\_SIMILARITY>  (1280) 
0.91300000000000003

>  <r_sd_BIOSOLVEIT.LOGP>  (1280) 
4.4912999999999998

>  <r_sd_BIOSOLVEIT.MOLECULAR\_WEIGHT>  (1280) 
443.03100000000001

>  <r_sd_BIOSOLVEIT.TPSA>  (1280) 
36.780000000000001

>  <i_epik_Tot_Q>  (1280) 
1

>  <i_epik_Tot_abs_Q>  (1280) 
1

>  <i_f3d_flags>  (1280) 
0

>  <i_i_glide_confnum>  (1280) 
5

>  <i_i_glide_lignum>  (1280) 
1110

>  <i_i_glide_posenum>  (1280) 
11

>  <i_i_glide_rotatable_bonds>  (1280) 
9

>  <i_lp_mmshare_version>  (1280) 
65135

>  <i_m_ct_format>  (1280) 
2

>  <i_m_source_file_index>  (1280) 
2531

>  <i_qp_#NandO>  (1280) 
4

>  <i_qp_#acid>  (1280) 
0

>  <i_qp_#amide>  (1280) 
0

>  <i_qp_#amidine>  (1280) 
0

>  <i_qp_#amine>  (1280) 
2

>  <i_qp_#in34>  (1280) 
0

>  <i_qp_#in56>  (1280) 
17

>  <i_qp_#metab>  (1280) 
7

>  <i_qp_#nonHatm>  (1280) 
30

>  <i_qp_#noncon>  (1280) 
0

>  <i_qp_#ringatoms>  (1280) 
17

>  <i_qp_#rotor>  (1280) 
8

>  <i_qp_#rtvFG>  (1280) 
0

>  <i_qp_#stars>  (1280) 
0

>  <i_qp_CNS>  (1280) 
2

>  <i_qp_HumanOralAbsorption>  (1280) 
3

>  <i_qp_RuleOfFive>  (1280) 
0

>  <i_qp_RuleOfThree>  (1280) 
1

>  <i_sd_BIOSOLVEIT.INFINISEE\_RESULT\_RANK>  (1280) 
33747

>  <i_sd_version>  (1280) 
0

>  <b_lp_Chiralities_Consistent>  (1280) 
1

>  <b_sd_chiral_flag>  (1280) 
0

>  <canonical_id>  (1280) 
ATP-HTVS-CA9A4676B579

>  <compound_code>  (1280) 
80962

>  <title>  (1280) 
rxn512b____EMOL31407338____EMOL720738____EMOL50155899

>  <variant>  (1280) 
80962-2

>  <source_file>  (1280) 
运行/运行/ATP-VSW/ATP-VSW-DOCK_HTVS_1-002_lib.maegz

>  <canonical_smiles>  (1280) 
C[C@@H](c1ccccc1Cl)N(C)C(=O)c1cc(NCc2ccc(C[NH+](C)C)cc2)cs1

>  <scaffold>  (1280) 
O=C(NCc1ccccc1)c1cc(NCc2ccccc2)cs1

>  <molecular_formula>  (1280) 
C24H29ClN3OS+

$$$$
ATP-HTVS-CAF3F282F1EC
     RDKit          3D

 63 67  0  0  0  0  0  0  0  0999 V2000
  196.8314  179.8478  153.1523 O   0  0  0  0  0  0  0  0  0  0  0  0
  197.9645  179.9414  153.6325 C   0  0  0  0  0  0  0  0  0  0  0  0
  199.0027  179.1379  153.3337 N   0  0  0  0  0  0  0  0  0  0  0  0
  199.2387  178.3302  152.1887 C   0  0  0  0  0  0  0  0  0  0  0  0
  198.4691  178.4251  151.0752 N   0  0  0  0  0  0  0  0  0  0  0  0
  198.7358  177.6593  149.9941 C   0  0  0  0  0  0  0  0  0  0  0  0
  199.8102  176.7351  149.9854 C   0  0  0  0  0  0  0  0  0  0  0  0
  200.6534  176.6667  151.1154 C   0  0  0  0  0  0  0  0  0  0  0  0
  200.3524  177.4455  152.2550 C   0  0  0  0  0  0  0  0  0  0  0  0
  201.1645  177.3260  153.4106 N   0  0  0  0  0  0  0  0  0  0  0  0
  201.5589  176.1052  154.0278 C   0  0  0  0  0  0  0  0  0  0  0  0
  202.3465  176.0882  155.2139 C   0  0  0  0  0  0  0  0  0  0  0  0
  202.7366  174.8754  155.8190 C   0  0  0  0  0  0  0  0  0  0  0  0
  202.3843  173.6424  155.2408 C   0  0  0  0  0  0  0  0  0  0  0  0
  201.5934  173.6319  154.0810 C   0  0  0  0  0  0  0  0  0  0  0  0
  201.1566  174.8442  153.5021 C   0  0  0  0  0  0  0  0  0  0  0  0
  201.9239  178.5544  153.7378 C   0  0  1  0  0  0  0  0  0  0  0  0
  203.2116  178.6252  153.0297 C   0  0  0  0  0  0  0  0  0  0  0  0
  204.2167  178.6852  152.4623 N   0  0  0  0  0  0  0  0  0  0  0  0
  200.0491  175.8949  148.8847 C   0  0  0  0  0  0  0  0  0  0  0  0
  199.2277  175.9841  147.7500 C   0  0  0  0  0  0  0  0  0  0  0  0
  198.1842  176.9331  147.7199 C   0  0  0  0  0  0  0  0  0  0  0  0
  197.9407  177.7541  148.8383 C   0  0  0  0  0  0  0  0  0  0  0  0
  198.2766  180.9361  154.7112 C   0  0  0  0  0  0  0  0  0  0  0  0
  197.4836  181.0016  155.8753 C   0  0  0  0  0  0  0  0  0  0  0  0
  197.7720  181.9420  156.8836 C   0  0  0  0  0  0  0  0  0  0  0  0
  198.8375  182.8460  156.7151 C   0  0  0  0  0  0  0  0  0  0  0  0
  199.6230  182.8019  155.5510 C   0  0  0  0  0  0  0  0  0  0  0  0
  199.3490  181.8475  154.5493 C   0  0  0  0  0  0  0  0  0  0  0  0
  196.9359  181.9723  158.1420 C   0  0  1  0  0  0  0  0  0  0  0  0
  195.9473  183.0642  158.1262 N   0  0  1  0  0  0  0  0  0  0  0  0
  194.6902  182.7159  158.7963 C   0  0  1  0  0  0  0  0  0  0  0  0
  194.0121  184.0697  159.0248 C   0  0  1  0  0  0  0  0  0  0  0  0
  195.1441  185.1037  159.0178 C   0  0  1  0  0  0  0  0  0  0  0  0
  196.4146  184.2910  158.7901 C   0  0  1  0  0  0  0  0  0  0  0  0
  199.7796  179.1722  153.9742 H   0  0  0  0  0  0  0  0  0  0  0  0
  201.5087  176.0122  151.0827 H   0  0  0  0  0  0  0  0  0  0  0  0
  202.6609  176.9942  155.7091 H   0  0  0  0  0  0  0  0  0  0  0  0
  203.2939  174.8899  156.7469 H   0  0  0  0  0  0  0  0  0  0  0  0
  202.6893  172.7095  155.7003 H   0  0  0  0  0  0  0  0  0  0  0  0
  201.3067  172.6900  153.6361 H   0  0  0  0  0  0  0  0  0  0  0  0
  200.5118  174.7500  152.6362 H   0  0  0  0  0  0  0  0  0  0  0  0
  201.4208  179.4633  153.4100 H   0  0  0  0  0  0  0  0  0  0  0  0
  202.0705  178.6955  154.8087 H   0  0  0  0  0  0  0  0  0  0  0  0
  200.8382  175.1576  148.9103 H   0  0  0  0  0  0  0  0  0  0  0  0
  199.4024  175.3368  146.9016 H   0  0  0  0  0  0  0  0  0  0  0  0
  197.5614  177.0170  146.8440 H   0  0  0  0  0  0  0  0  0  0  0  0
  197.1220  178.4604  148.8161 H   0  0  0  0  0  0  0  0  0  0  0  0
  196.6732  180.3016  155.9988 H   0  0  0  0  0  0  0  0  0  0  0  0
  199.0660  183.5795  157.4769 H   0  0  0  0  0  0  0  0  0  0  0  0
  200.4362  183.5082  155.4186 H   0  0  0  0  0  0  0  0  0  0  0  0
  199.9625  181.8276  153.6565 H   0  0  0  0  0  0  0  0  0  0  0  0
  196.4085  181.0495  158.2356 H   0  0  0  0  0  0  0  0  0  0  0  0
  197.5430  182.0262  159.0453 H   0  0  0  0  0  0  0  0  0  0  0  0
  194.0797  182.0208  158.2123 H   0  0  0  0  0  0  0  0  0  0  0  0
  194.9136  182.2463  159.7481 H   0  0  0  0  0  0  0  0  0  0  0  0
  193.3284  184.2408  158.1966 H   0  0  0  0  0  0  0  0  0  0  0  0
  193.4303  184.0917  159.9444 H   0  0  0  0  0  0  0  0  0  0  0  0
  195.0160  185.8057  158.1940 H   0  0  0  0  0  0  0  0  0  0  0  0
  195.1930  185.6856  159.9383 H   0  0  0  0  0  0  0  0  0  0  0  0
  196.8461  184.0569  159.7673 H   0  0  0  0  0  0  0  0  0  0  0  0
  197.1732  184.8366  158.2155 H   0  0  0  0  0  0  0  0  0  0  0  0
  195.7100  183.2604  157.1677 H   0  0  0  0  0  0  0  0  0  0  0  0
  1  2  2  0
  2  3  1  0
  2 24  1  0
  3  4  1  0
  3 36  1  0
  4  5  2  0
  4  9  1  0
  5  6  1  0
  6  7  1  0
  6 23  2  0
  7  8  1  0
  7 20  2  0
  8  9  2  0
  8 37  1  0
  9 10  1  0
 10 11  1  0
 10 17  1  0
 11 12  2  0
 11 16  1  0
 12 13  1  0
 12 38  1  0
 13 14  2  0
 13 39  1  0
 14 15  1  0
 14 40  1  0
 15 16  2  0
 15 41  1  0
 16 42  1  0
 17 18  1  0
 17 43  1  6
 17 44  1  0
 18 19  3  0
 20 21  1  0
 20 45  1  0
 21 22  2  0
 21 46  1  0
 22 23  1  0
 22 47  1  0
 23 48  1  0
 24 25  2  0
 24 29  1  0
 25 26  1  0
 25 49  1  0
 26 27  2  0
 26 30  1  0
 27 28  1  0
 27 50  1  0
 28 29  2  0
 28 51  1  0
 29 52  1  0
 30 31  1  0
 30 53  1  1
 30 54  1  0
 31 32  1  0
 31 35  1  0
 31 63  1  6
 32 33  1  0
 32 55  1  6
 32 56  1  0
 33 34  1  0
 33 57  1  6
 33 58  1  0
 34 35  1  0
 34 59  1  6
 34 60  1  0
 35 61  1  1
 35 62  1  0
M  CHG  1  31   1
M  END
>  <s_epik_cmdline>  (1281) 
J2VwaWtfcHl0aG9uJywgJy1waCcsICc3LjAwMDAwMCcsICctcGh0JywgJzIuMDAwMDAwJywgJy1tcycsICcxNicsICctdG4nLCAnOCcsICctbWEnLCAnMjAwJywgJy1pbWFlJywgJzxpbmZpbGUubWFlPicsICctb21hZScsICc8b3V0ZmlsZS5tYWU+Jw==

>  <s_epik_input>  (1281) 
W0NIMl0xW0NIMl1bQ0gyXVtDSDJdTjFbQ0gyXWMoW2NIXVtjSF1bY0hdMilbY0hdYzJDKD1PKVtOSF1jKG4zKWMoW2NIXWMoYzM0KVtjSF1bY0hdW2NIXVtjSF00KU4oW0NIMl1DI04pYzVbY0hdW2NIXVtjSF1bY0hdW2NIXTU=

>  <s_i_glide_gridfile>  (1281) 
ATP-Grid

>  <s_lp_Force_Field>  (1281) 
OPLS_2005

>  <s_lp_Variant>  (1281) 
rxn502b____EMOL5849923____EMOL44466703____EMOL712348-1

>  <s_lp_label>  (1281) 
2705_sdstereoexpander_1_neutralizer_1_epik_1_stereoizer_1

>  <s_m_source_file>  (1281) 
ATP-VSW-LIGPREP-003-in.maegz

>  <s_sd_BIOSOLVEIT.INFINISEE\_QUERY\_NAME>  (1281) 
Ref-Lig

>  <s_sd_BIOSOLVEIT.INFINISEE\_QUERY\_SMILES>  (1281) 
S(c1nc2c(cc1C[NH2+]Cc3ccc(cc3)C[NH+](C)C)cccc2)Cc4ccccc4

>  <s_sd_BIOSOLVEIT.INFINISEE\_REACTION\_NAME>  (1281) 
rxn502b

>  <s_sd_BIOSOLVEIT.INFINISEE\_REAGENT1\_NAME>  (1281) 
EMOL5849923

>  <s_sd_BIOSOLVEIT.INFINISEE\_REAGENT1\_SMILES>  (1281) 
O=C(O)c1cc(ccc1)CN2CCCC2

>  <s_sd_BIOSOLVEIT.INFINISEE\_REAGENT2\_NAME>  (1281) 
EMOL44466703

>  <s_sd_BIOSOLVEIT.INFINISEE\_REAGENT2\_SMILES>  (1281) 
Brc1c(nc2c(c1)cccc2)N

>  <s_sd_BIOSOLVEIT.INFINISEE\_REAGENT3\_NAME>  (1281) 
EMOL712348

>  <s_sd_BIOSOLVEIT.INFINISEE\_REAGENT3\_SMILES>  (1281) 
N#CCNc1ccccc1

>  <s_sd_BIOSOLVEIT.INFINISEE\_SPACE>  (1281) 
eXplore_7tr_2022-12

>  <s_vsw_compound_code>  (1281) 
86531

>  <s_vsw_variant>  (1281) 
86531-1

>  <r_epik_Charging_Adjusted_Penalty>  (1281) 
0.023091150368889701

>  <r_epik_Ionization_Penalty>  (1281) 
0.011599999999999999

>  <r_epik_Ionization_Penalty_Charging>  (1281) 
0.0115

>  <r_epik_Ionization_Penalty_Neutral>  (1281) 
0

>  <r_epik_State_Penalty>  (1281) 
0.0115

>  <r_i_docking_score>  (1281) 
-3.9742115173728498

>  <r_i_glide_ecoul>  (1281) 
-6.3547916412353498

>  <r_i_glide_eff_state_penalty>  (1281) 
0.0115

>  <r_i_glide_einternal>  (1281) 
6.2930855751037598

>  <r_i_glide_emodel>  (1281) 
-53.1475746154684

>  <r_i_glide_energy>  (1281) 
-41.954362869262702

>  <r_i_glide_erotb>  (1281) 
0.65904907820893499

>  <r_i_glide_esite>  (1281) 
-0.052793287665581397

>  <r_i_glide_evdw>  (1281) 
-35.599571228027301

>  <r_i_glide_gscore>  (1281) 
-3.9857115173728501

>  <r_i_glide_hbond>  (1281) 
0

>  <r_i_glide_ligand_efficiency>  (1281) 
-0.113548900496367

>  <r_i_glide_ligand_efficiency_ln>  (1281) 
-0.87242763093572495

>  <r_i_glide_ligand_efficiency_sa>  (1281) 
-0.37142598253244102

>  <r_i_glide_lipo>  (1281) 
-1.6035349094204501

>  <r_i_glide_metal>  (1281) 
-0

>  <r_i_glide_rewards>  (1281) 
-0.25523509090908902

>  <r_lp_Energy>  (1281) 
50.581899

>  <r_qp_ACxDN^.5/SA>  (1281) 
0.0102913

>  <r_qp_CIQPlogS>  (1281) 
-6.9000000000000004

>  <r_qp_EA(eV)>  (1281) 
1.198

>  <r_qp_FISA>  (1281) 
91.248999999999995

>  <r_qp_FOSA>  (1281) 
208.21799999999999

>  <r_qp_IP(eV)>  (1281) 
8.8239999999999998

>  <r_qp_Jm>  (1281) 
0.0029867375927506998

>  <r_qp_PISA>  (1281) 
429.30200000000002

>  <r_qp_PSA>  (1281) 
75.388000000000005

>  <r_qp_PercentHumanOralAbsorption>  (1281) 
100

>  <r_qp_QPPCaco>  (1281) 
336.88799999999998

>  <r_qp_QPPMDCK>  (1281) 
168.84899999999999

>  <r_qp_QPlogBB>  (1281) 
-0.372

>  <r_qp_QPlogHERG>  (1281) 
-6.8129999999999997

>  <r_qp_QPlogKhsa>  (1281) 
0.70499999999999996

>  <r_qp_QPlogKp>  (1281) 
-2.9830000000000001

>  <r_qp_QPlogPC16>  (1281) 
15.361000000000001

>  <r_qp_QPlogPo/w>  (1281) 
4.5179999999999998

>  <r_qp_QPlogPoct>  (1281) 
23.140999999999998

>  <r_qp_QPlogPw>  (1281) 
12.101000000000001

>  <r_qp_QPlogS>  (1281) 
-5.2060000000000004

>  <r_qp_QPpolrz>  (1281) 
50.316000000000003

>  <r_qp_SASA>  (1281) 
728.76900000000001

>  <r_qp_SAamideO>  (1281) 
0

>  <r_qp_SAfluorine>  (1281) 
0

>  <r_qp_WPSA>  (1281) 
0

>  <r_qp_accptHB>  (1281) 
7.5

>  <r_qp_dip^2/V>  (1281) 
0.048866699999999999

>  <r_qp_dipole>  (1281) 
8.3800000000000008

>  <r_qp_donorHB>  (1281) 
1

>  <r_qp_glob>  (1281) 
0.84503079999999997

>  <r_qp_mol_MW>  (1281) 
461.565

>  <r_qp_volume>  (1281) 
1436.9649999999999

>  <r_sd_BIOSOLVEIT.INFINISEE\_FTREES\_SIMILARITY>  (1281) 
0.90800000000000003

>  <r_sd_BIOSOLVEIT.LOGP>  (1281) 
4.3274800000000004

>  <r_sd_BIOSOLVEIT.MOLECULAR\_WEIGHT>  (1281) 
462.57400000000001

>  <r_sd_BIOSOLVEIT.TPSA>  (1281) 
73.459999999999994

>  <i_epik_Tot_Q>  (1281) 
1

>  <i_epik_Tot_abs_Q>  (1281) 
1

>  <i_f3d_flags>  (1281) 
0

>  <i_i_glide_confnum>  (1281) 
6

>  <i_i_glide_lignum>  (1281) 
1270

>  <i_i_glide_posenum>  (1281) 
16

>  <i_i_glide_rotatable_bonds>  (1281) 
8

>  <i_lp_mmshare_version>  (1281) 
65135

>  <i_m_ct_format>  (1281) 
2

>  <i_m_source_file_index>  (1281) 
2705

>  <i_qp_#NandO>  (1281) 
6

>  <i_qp_#acid>  (1281) 
0

>  <i_qp_#amide>  (1281) 
0

>  <i_qp_#amidine>  (1281) 
0

>  <i_qp_#amine>  (1281) 
1

>  <i_qp_#in34>  (1281) 
0

>  <i_qp_#in56>  (1281) 
27

>  <i_qp_#metab>  (1281) 
5

>  <i_qp_#nonHatm>  (1281) 
35

>  <i_qp_#noncon>  (1281) 
4

>  <i_qp_#ringatoms>  (1281) 
27

>  <i_qp_#rotor>  (1281) 
8

>  <i_qp_#rtvFG>  (1281) 
0

>  <i_qp_#stars>  (1281) 
0

>  <i_qp_CNS>  (1281) 
1

>  <i_qp_HumanOralAbsorption>  (1281) 
3

>  <i_qp_RuleOfFive>  (1281) 
0

>  <i_qp_RuleOfThree>  (1281) 
0

>  <i_sd_BIOSOLVEIT.INFINISEE\_RESULT\_RANK>  (1281) 
53107

>  <i_sd_version>  (1281) 
0

>  <b_lp_Chiralities_Consistent>  (1281) 
1

>  <b_sd_chiral_flag>  (1281) 
0

>  <canonical_id>  (1281) 
ATP-HTVS-CAF3F282F1EC

>  <compound_code>  (1281) 
86531

>  <title>  (1281) 
rxn502b____EMOL5849923____EMOL44466703____EMOL712348

>  <variant>  (1281) 
86531-1

>  <source_file>  (1281) 
运行/运行/ATP-VSW/ATP-VSW-DOCK_HTVS_1-003_lib/ATP-VSW-DOCK_HTVS_1-003_lib.mae

>  <canonical_smiles>  (1281) 
N#CCN(c1ccccc1)c1cc2ccccc2nc1NC(=O)c1cccc(C[NH+]2CCCC2)c1

>  <scaffold>  (1281) 
O=C(Nc1nc2ccccc2cc1Nc1ccccc1)c1cccc(C[NH+]2CCCC2)c1

>  <molecular_formula>  (1281) 
C29H28N5O+

$$$$
ATP-HTVS-CAF437F0E3C3
     RDKit          3D

 61 64  0  0  0  0  0  0  0  0999 V2000
  204.6745  182.5984  156.3479 Br  0  0  0  0  0  0  0  0  0  0  0  0
  202.8907  181.9389  156.5474 C   0  0  0  0  0  0  0  0  0  0  0  0
  202.6438  180.5547  156.7609 C   0  0  0  0  0  0  0  0  0  0  0  0
  201.3099  180.0784  156.8935 C   0  0  0  0  0  0  0  0  0  0  0  0
  201.0596  178.7121  157.1042 N   0  0  0  0  0  0  0  0  0  0  0  0
  200.2405  180.9945  156.8145 C   0  0  0  0  0  0  0  0  0  0  0  0
  200.4969  182.3665  156.6197 C   0  0  0  0  0  0  0  0  0  0  0  0
  201.8089  182.8384  156.4766 C   0  0  0  0  0  0  0  0  0  0  0  0
  198.8060  180.5348  156.9028 C   0  0  1  0  0  0  0  0  0  0  0  0
  198.1482  180.3826  155.6112 N   0  0  0  0  0  0  0  0  0  0  0  0
  197.8787  181.4332  154.6923 C   0  0  0  0  0  0  0  0  0  0  0  0
  198.0706  182.7118  155.0492 N   0  0  0  0  0  0  0  0  0  0  0  0
  197.8163  183.7248  154.2438 C   0  0  0  0  0  0  0  0  0  0  0  0
  197.3231  183.5390  153.0044 N   0  0  0  0  0  0  0  0  0  0  0  0
  197.0651  182.2795  152.5640 C   0  0  0  0  0  0  0  0  0  0  0  0
  197.3234  181.1700  153.4136 C   0  0  0  0  0  0  0  0  0  0  0  0
  197.0091  179.8601  152.9683 C   0  0  0  0  0  0  0  0  0  0  0  0
  196.5130  179.6558  151.6635 C   0  0  0  0  0  0  0  0  0  0  0  0
  196.3153  180.7661  150.8103 C   0  0  0  0  0  0  0  0  0  0  0  0
  196.5644  182.0815  151.2650 C   0  0  0  0  0  0  0  0  0  0  0  0
  198.0222  185.0295  154.6854 N   0  0  0  0  0  0  0  0  0  0  0  0
  198.8713  185.4633  155.8031 C   0  0  1  0  0  0  0  0  0  0  0  0
  198.5847  184.9258  157.2151 C   0  0  0  0  0  0  0  0  0  0  0  0
  197.3169  184.4040  157.5577 C   0  0  0  0  0  0  0  0  0  0  0  0
  197.0902  183.7394  158.7826 C   0  0  0  0  0  0  0  0  0  0  0  0
  198.1555  183.6505  159.7084 C   0  0  0  0  0  0  0  0  0  0  0  0
  199.4221  184.2215  159.4128 C   0  0  0  0  0  0  0  0  0  0  0  0
  199.6368  184.8612  158.1729 C   0  0  0  0  0  0  0  0  0  0  0  0
  195.7234  183.0633  159.0667 C   0  0  1  0  0  0  0  0  0  0  0  0
  195.4007  181.8156  158.2502 N   0  0  1  0  0  0  0  0  0  0  0  0
  193.9426  181.4977  158.3022 C   0  0  2  0  0  0  0  0  0  0  0  0
  195.8517  181.8767  156.8561 C   0  0  2  0  0  0  0  0  0  0  0  0
  203.4672  179.8587  156.8136 H   0  0  0  0  0  0  0  0  0  0  0  0
  200.1296  178.4312  157.4215 H   0  0  0  0  0  0  0  0  0  0  0  0
  201.8326  178.1228  157.3781 H   0  0  0  0  0  0  0  0  0  0  0  0
  199.7008  183.0596  156.6022 H   0  0  0  0  0  0  0  0  0  0  0  0
  201.9567  183.8988  156.3252 H   0  0  0  0  0  0  0  0  0  0  0  0
  198.7176  179.5742  157.4116 H   0  0  0  0  0  0  0  0  0  0  0  0
  198.3293  181.2327  157.5820 H   0  0  0  0  0  0  0  0  0  0  0  0
  197.8646  179.4478  155.3853 H   0  0  0  0  0  0  0  0  0  0  0  0
  197.1649  178.9991  153.6075 H   0  0  0  0  0  0  0  0  0  0  0  0
  196.3122  178.6533  151.3105 H   0  0  0  0  0  0  0  0  0  0  0  0
  195.9563  180.6158  149.8040 H   0  0  0  0  0  0  0  0  0  0  0  0
  196.4069  182.9382  150.6143 H   0  0  0  0  0  0  0  0  0  0  0  0
  197.8328  185.7611  154.0102 H   0  0  0  0  0  0  0  0  0  0  0  0
  199.8922  185.1797  155.5490 H   0  0  0  0  0  0  0  0  0  0  0  0
  198.8629  186.5555  155.8454 H   0  0  0  0  0  0  0  0  0  0  0  0
  196.5154  184.5065  156.8291 H   0  0  0  0  0  0  0  0  0  0  0  0
  198.0343  183.0897  160.6344 H   0  0  0  0  0  0  0  0  0  0  0  0
  200.2603  184.0784  160.0953 H   0  0  0  0  0  0  0  0  0  0  0  0
  200.6291  185.2384  157.9292 H   0  0  0  0  0  0  0  0  0  0  0  0
  195.7039  182.8025  160.1268 H   0  0  0  0  0  0  0  0  0  0  0  0
  194.9815  183.8416  158.9073 H   0  0  0  0  0  0  0  0  0  0  0  0
  193.3713  182.3305  157.8773 H   0  0  0  0  0  0  0  0  0  0  0  0
  193.5950  181.2504  159.3227 H   0  0  0  0  0  0  0  0  0  0  0  0
  193.7805  180.6329  157.6580 H   0  0  0  0  0  0  0  0  0  0  0  0
  195.5771  182.7782  156.2681 H   0  0  0  0  0  0  0  0  0  0  0  0
  195.6134  180.9435  156.3408 H   0  0  0  0  0  0  0  0  0  0  0  0
  196.8893  182.0324  156.9644 H   0  0  0  0  0  0  0  0  0  0  0  0
  197.1033  184.3282  152.3600 H   0  0  0  0  0  0  0  0  0  0  0  0
  195.8850  181.0428  158.6648 H   0  0  0  0  0  0  0  0  0  0  0  0
  1  2  1  0
  2  3  2  0
  2  8  1  0
  3  4  1  0
  3 33  1  0
  4  5  1  0
  4  6  2  0
  5 34  1  0
  5 35  1  0
  6  7  1  0
  6  9  1  0
  7  8  2  0
  7 36  1  0
  8 37  1  0
  9 10  1  0
  9 38  1  1
  9 39  1  0
 10 11  1  0
 10 40  1  0
 11 12  2  0
 11 16  1  0
 12 13  1  0
 13 14  2  0
 13 21  1  0
 14 15  1  0
 14 60  1  0
 15 16  1  0
 15 20  2  0
 16 17  2  0
 17 18  1  0
 17 41  1  0
 18 19  2  0
 18 42  1  0
 19 20  1  0
 19 43  1  0
 20 44  1  0
 21 22  1  0
 21 45  1  0
 22 23  1  0
 22 46  1  6
 22 47  1  0
 23 24  2  0
 23 28  1  0
 24 25  1  0
 24 48  1  0
 25 26  2  0
 25 29  1  0
 26 27  1  0
 26 49  1  0
 27 28  2  0
 27 50  1  0
 28 51  1  0
 29 30  1  0
 29 52  1  1
 29 53  1  0
 30 31  1  0
 30 32  1  0
 30 61  1  1
 31 54  1  6
 31 55  1  0
 31 56  1  0
 32 57  1  6
 32 58  1  0
 32 59  1  0
M  CHG  2  14   1  30   1
M  END
>  <s_epik_cmdline>  (1282) 
J2VwaWtfcHl0aG9uJywgJy1waCcsICc3LjAwMDAwMCcsICctcGh0JywgJzIuMDAwMDAwJywgJy1tcycsICcxNicsICctdG4nLCAnOCcsICctbWEnLCAnMjAwJywgJy1pbWFlJywgJzxpbmZpbGUubWFlPicsICctb21hZScsICc8b3V0ZmlsZS5tYWU+Jw==

>  <s_epik_input>  (1282) 
QnJjMVtjSF1jKFtOSDJdKWMoW2NIXVtjSF0xKVtDSDJdW05IXWMoYyhjMjMpW2NIXVtjSF1bY0hdW2NIXTMpbmMobjIpW05IXVtDSDJdYzRbY0hdYyhbY0hdW2NIXVtjSF00KVtDSDJdTihbQ0gzXSlbQ0gzXQ==

>  <s_i_glide_gridfile>  (1282) 
ATP-Grid

>  <s_lp_Force_Field>  (1282) 
OPLS_2005

>  <s_lp_Variant>  (1282) 
m_282030aaa____21928796____22360182____21938740-1

>  <s_lp_label>  (1282) 
1319_sdstereoexpander_1_neutralizer_1_epik_1_stereoizer_1

>  <s_m_source_file>  (1282) 
ATP-VSW-LIGPREP-001-in.maegz

>  <s_sd_BIOSOLVEIT.INFINISEE\_QUERY\_NAME>  (1282) 
Ref-Lig

>  <s_sd_BIOSOLVEIT.INFINISEE\_QUERY\_SMILES>  (1282) 
S(c1nc2c(cc1C[NH2+]Cc3ccc(cc3)C[NH+](C)C)cccc2)Cc4ccccc4

>  <s_sd_BIOSOLVEIT.INFINISEE\_REACTION\_NAME>  (1282) 
m_282030aaa

>  <s_sd_BIOSOLVEIT.INFINISEE\_REAGENT1\_SMILES>  (1282) 
[R1*]NCc1cc(ccc1)CN(C)C

>  <s_sd_BIOSOLVEIT.INFINISEE\_REAGENT2\_SMILES>  (1282) 
[R2*]c1nc([R1*])c2c(n1)cccc2

>  <s_sd_BIOSOLVEIT.INFINISEE\_REAGENT3\_SMILES>  (1282) 
[R2*]NCc1c(N)cc(Br)cc1

>  <s_sd_BIOSOLVEIT.INFINISEE\_SPACE>  (1282) 
REALSpace_44bn_2023-08

>  <s_vsw_compound_code>  (1282) 
42177

>  <s_vsw_variant>  (1282) 
42177-1

>  <r_epik_Charging_Adjusted_Penalty>  (1282) 
0.126726222608914

>  <r_epik_Ionization_Penalty>  (1282) 
0.061100000000000002

>  <r_epik_Ionization_Penalty_Charging>  (1282) 
0.0608

>  <r_epik_Ionization_Penalty_Neutral>  (1282) 
0.00029999999999999997

>  <r_epik_State_Penalty>  (1282) 
0.0659

>  <r_i_docking_score>  (1282) 
-3.2320965719313102

>  <r_i_glide_ecoul>  (1282) 
-8.1357908248901403

>  <r_i_glide_eff_state_penalty>  (1282) 
0.0659

>  <r_i_glide_einternal>  (1282) 
3.4062883853912398

>  <r_i_glide_emodel>  (1282) 
-49.040714815585098

>  <r_i_glide_energy>  (1282) 
-36.525376319885297

>  <r_i_glide_erotb>  (1282) 
0.58566570939368201

>  <r_i_glide_esite>  (1282) 
-0.197738177338247

>  <r_i_glide_evdw>  (1282) 
-28.389585494995099

>  <r_i_glide_gscore>  (1282) 
-3.2979965719313098

>  <r_i_glide_hbond>  (1282) 
-0.075657039285675604

>  <r_i_glide_ligand_efficiency>  (1282) 
-0.101003017872853

>  <r_i_glide_ligand_efficiency_ln>  (1282) 
-0.72375452608045998

>  <r_i_glide_ligand_efficiency_sa>  (1282) 
-0.32066459327621399

>  <r_i_glide_lipo>  (1282) 
-0.92570525712688301

>  <r_i_glide_metal>  (1282) 
-0

>  <r_i_glide_rewards>  (1282) 
-0.0447139090909087

>  <r_lp_Energy>  (1282) 
18.175519000000001

>  <r_qp_ACxDN^.5/SA>  (1282) 
0.0181189

>  <r_qp_CIQPlogS>  (1282) 
-6.8360000000000003

>  <r_qp_EA(eV)>  (1282) 
0.67000000000000004

>  <r_qp_FISA>  (1282) 
80.170000000000002

>  <r_qp_FOSA>  (1282) 
190.67099999999999

>  <r_qp_IP(eV)>  (1282) 
8.141

>  <r_qp_Jm>  (1282) 
0.63213514634620205

>  <r_qp_PISA>  (1282) 
299.56700000000001

>  <r_qp_PSA>  (1282) 
68.302000000000007

>  <r_qp_PercentHumanOralAbsorption>  (1282) 
96.900999999999996

>  <r_qp_QPPCaco>  (1282) 
429.09199999999998

>  <r_qp_QPPMDCK>  (1282) 
407.46300000000002

>  <r_qp_QPlogBB>  (1282) 
-0.094

>  <r_qp_QPlogHERG>  (1282) 
-5.0170000000000003

>  <r_qp_QPlogKhsa>  (1282) 
0.47099999999999997

>  <r_qp_QPlogKp>  (1282) 
-3.1400000000000001

>  <r_qp_QPlogPC16>  (1282) 
13.968

>  <r_qp_QPlogPo/w>  (1282) 
3.8999999999999999

>  <r_qp_QPlogPoct>  (1282) 
22.722000000000001

>  <r_qp_QPlogPw>  (1282) 
12.861000000000001

>  <r_qp_QPlogS>  (1282) 
-2.75

>  <r_qp_QPpolrz>  (1282) 
41.945999999999998

>  <r_qp_SASA>  (1282) 
619.51800000000003

>  <r_qp_SAamideO>  (1282) 
0

>  <r_qp_SAfluorine>  (1282) 
0

>  <r_qp_WPSA>  (1282) 
49.109999999999999

>  <r_qp_accptHB>  (1282) 
6

>  <r_qp_dip^2/V>  (1282) 
0.0159381

>  <r_qp_dipole>  (1282) 
4.508

>  <r_qp_donorHB>  (1282) 
3.5

>  <r_qp_glob>  (1282) 
0.91778959999999998

>  <r_qp_mol_MW>  (1282) 
491.43200000000002

>  <r_qp_volume>  (1282) 
1274.817

>  <r_sd_BIOSOLVEIT.INFINISEE\_FTREES\_SIMILARITY>  (1282) 
0.91000000000000003

>  <r_sd_BIOSOLVEIT.LOGP>  (1282) 
3.8431999999999999

>  <r_sd_BIOSOLVEIT.MOLECULAR\_WEIGHT>  (1282) 
492.44200000000001

>  <r_sd_BIOSOLVEIT.TPSA>  (1282) 
80.299999999999997

>  <i_epik_Tot_Q>  (1282) 
2

>  <i_epik_Tot_abs_Q>  (1282) 
2

>  <i_f3d_flags>  (1282) 
0

>  <i_i_glide_confnum>  (1282) 
5

>  <i_i_glide_lignum>  (1282) 
353

>  <i_i_glide_posenum>  (1282) 
15

>  <i_i_glide_rotatable_bonds>  (1282) 
8

>  <i_lp_mmshare_version>  (1282) 
65135

>  <i_m_ct_format>  (1282) 
2

>  <i_m_source_file_index>  (1282) 
1319

>  <i_qp_#NandO>  (1282) 
6

>  <i_qp_#acid>  (1282) 
0

>  <i_qp_#amide>  (1282) 
0

>  <i_qp_#amidine>  (1282) 
0

>  <i_qp_#amine>  (1282) 
1

>  <i_qp_#in34>  (1282) 
0

>  <i_qp_#in56>  (1282) 
22

>  <i_qp_#metab>  (1282) 
6

>  <i_qp_#nonHatm>  (1282) 
32

>  <i_qp_#noncon>  (1282) 
0

>  <i_qp_#ringatoms>  (1282) 
22

>  <i_qp_#rotor>  (1282) 
9

>  <i_qp_#rtvFG>  (1282) 
0

>  <i_qp_#stars>  (1282) 
0

>  <i_qp_CNS>  (1282) 
0

>  <i_qp_HumanOralAbsorption>  (1282) 
3

>  <i_qp_RuleOfFive>  (1282) 
0

>  <i_qp_RuleOfThree>  (1282) 
0

>  <i_sd_BIOSOLVEIT.INFINISEE\_REAGENT1\_NAME>  (1282) 
21928796

>  <i_sd_BIOSOLVEIT.INFINISEE\_REAGENT2\_NAME>  (1282) 
22360182

>  <i_sd_BIOSOLVEIT.INFINISEE\_REAGENT3\_NAME>  (1282) 
21938740

>  <i_sd_BIOSOLVEIT.INFINISEE\_RESULT\_RANK>  (1282) 
47624

>  <i_sd_version>  (1282) 
0

>  <b_lp_Chiralities_Consistent>  (1282) 
1

>  <b_sd_chiral_flag>  (1282) 
0

>  <canonical_id>  (1282) 
ATP-HTVS-CAF437F0E3C3

>  <compound_code>  (1282) 
42177

>  <title>  (1282) 
m_282030aaa____21928796____22360182____21938740

>  <variant>  (1282) 
42177-1

>  <source_file>  (1282) 
运行/运行/ATP-VSW/ATP-VSW-DOCK_HTVS_1-001_lib/ATP-VSW-DOCK_HTVS_1-001_lib

>  <canonical_smiles>  (1282) 
C[NH+](C)Cc1cccc(CNc2nc(NCc3ccc(Br)cc3N)c3ccccc3[nH+]2)c1

>  <scaffold>  (1282) 
c1ccc(CNc2nc(NCc3ccccc3)c3ccccc3[nH+]2)cc1

>  <molecular_formula>  (1282) 
C25H29BrN6+2

$$$$
ATP-HTVS-CB056AB5514A
     RDKit          3D

 60 63  0  0  0  0  0  0  0  0999 V2000
  198.8462  183.4877  154.5710 O   0  0  0  0  0  0  0  0  0  0  0  0
  198.1918  184.4358  154.1427 C   0  0  0  0  0  0  0  0  0  0  0  0
  197.7952  185.4629  154.9124 N   0  0  0  0  0  0  0  0  0  0  0  0
  198.0925  185.5816  156.3398 C   0  0  1  0  0  0  0  0  0  0  0  0
  197.4572  184.5065  157.2540 C   0  0  0  0  0  0  0  0  0  0  0  0
  197.4037  184.7016  158.6666 C   0  0  0  0  0  0  0  0  0  0  0  0
  196.8412  183.7036  159.5038 C   0  0  0  0  0  0  0  0  0  0  0  0
  196.3442  182.5031  158.9461 C   0  0  0  0  0  0  0  0  0  0  0  0
  196.3892  182.3122  157.5525 C   0  0  0  0  0  0  0  0  0  0  0  0
  196.9080  183.3136  156.7232 C   0  0  0  0  0  0  0  0  0  0  0  0
  197.9141  185.9936  159.3193 C   0  0  1  0  0  0  0  0  0  0  0  0
  196.8349  186.9983  159.5260 N   0  0  1  0  0  0  0  0  0  0  0  0
  197.3547  188.3122  159.9779 C   0  0  2  0  0  0  0  0  0  0  0  0
  195.9359  187.1566  158.3514 C   0  0  2  0  0  0  0  0  0  0  0  0
  197.8164  184.5209  152.7024 C   0  0  0  0  0  0  0  0  0  0  0  0
  197.3529  183.4753  151.8443 C   0  0  0  0  0  0  0  0  0  0  0  0
  197.2409  183.9620  150.6050 N   0  0  0  0  0  0  0  0  0  0  0  0
  197.6330  185.2629  150.6729 N   0  0  0  0  0  0  0  0  0  0  0  0
  197.9502  185.6453  151.9570 C   0  0  0  0  0  0  0  0  0  0  0  0
  197.6737  186.0731  149.4739 C   0  0  1  0  0  0  0  0  0  0  0  0
  198.4534  185.3913  148.3690 C   0  0  0  0  0  0  0  0  0  0  0  0
  197.7675  184.6885  147.3602 C   0  0  0  0  0  0  0  0  0  0  0  0
  198.4892  184.0466  146.3377 C   0  0  0  0  0  0  0  0  0  0  0  0
  199.8964  184.1084  146.3230 C   0  0  0  0  0  0  0  0  0  0  0  0
  200.5817  184.8116  147.3331 C   0  0  0  0  0  0  0  0  0  0  0  0
  199.8607  185.4538  148.3577 C   0  0  0  0  0  0  0  0  0  0  0  0
  197.0125  182.0520  152.0862 C   0  0  0  0  0  0  0  0  0  0  0  0
  196.6202  181.2025  151.0060 C   0  0  0  0  0  0  0  0  0  0  0  0
  196.2711  179.8941  151.1425 N   0  0  0  0  0  0  0  0  0  0  0  0
  196.3518  179.3771  152.3956 C   0  0  0  0  0  0  0  0  0  0  0  0
  196.7435  180.1287  153.5307 C   0  0  0  0  0  0  0  0  0  0  0  0
  197.0586  181.4792  153.3716 C   0  0  0  0  0  0  0  0  0  0  0  0
  197.2943  186.2289  154.4842 H   0  0  0  0  0  0  0  0  0  0  0  0
  199.1830  185.5624  156.4796 H   0  0  0  0  0  0  0  0  0  0  0  0
  197.7757  186.5789  156.6087 H   0  0  0  0  0  0  0  0  0  0  0  0
  196.7707  183.8476  160.5761 H   0  0  0  0  0  0  0  0  0  0  0  0
  195.9130  181.7182  159.5770 H   0  0  0  0  0  0  0  0  0  0  0  0
  196.0285  181.3959  157.1065 H   0  0  0  0  0  0  0  0  0  0  0  0
  196.8710  183.1471  155.6743 H   0  0  0  0  0  0  0  0  0  0  0  0
  198.3554  185.7480  160.2856 H   0  0  0  0  0  0  0  0  0  0  0  0
  198.7231  186.4226  158.7239 H   0  0  0  0  0  0  0  0  0  0  0  0
  198.0372  188.7357  159.2397 H   0  0  0  0  0  0  0  0  0  0  0  0
  197.8854  188.2358  160.9250 H   0  0  0  0  0  0  0  0  0  0  0  0
  196.5368  189.0192  160.1205 H   0  0  0  0  0  0  0  0  0  0  0  0
  196.4521  187.5859  157.4957 H   0  0  0  0  0  0  0  0  0  0  0  0
  195.1311  187.8456  158.6021 H   0  0  0  0  0  0  0  0  0  0  0  0
  195.4594  186.2070  158.0694 H   0  0  0  0  0  0  0  0  0  0  0  0
  198.2766  186.6393  152.2176 H   0  0  0  0  0  0  0  0  0  0  0  0
  196.6508  186.2703  149.1640 H   0  0  0  0  0  0  0  0  0  0  0  0
  198.1314  187.0318  149.7398 H   0  0  0  0  0  0  0  0  0  0  0  0
  196.6884  184.6305  147.3738 H   0  0  0  0  0  0  0  0  0  0  0  0
  197.9642  183.5030  145.5662 H   0  0  0  0  0  0  0  0  0  0  0  0
  200.4502  183.6156  145.5376 H   0  0  0  0  0  0  0  0  0  0  0  0
  201.6610  184.8570  147.3228 H   0  0  0  0  0  0  0  0  0  0  0  0
  200.3902  185.9851  149.1353 H   0  0  0  0  0  0  0  0  0  0  0  0
  196.5480  181.5777  149.9767 H   0  0  0  0  0  0  0  0  0  0  0  0
  196.0666  178.3246  152.5155 H   0  0  0  0  0  0  0  0  0  0  0  0
  196.7769  179.6783  154.5144 H   0  0  0  0  0  0  0  0  0  0  0  0
  197.3195  182.0249  154.2271 H   0  0  0  0  0  0  0  0  0  0  0  0
  196.2518  186.6418  160.2758 H   0  0  0  0  0  0  0  0  0  0  0  0
  1  2  2  0
  2  3  1  0
  2 15  1  0
  3  4  1  0
  3 33  1  0
  4  5  1  0
  4 34  1  6
  4 35  1  0
  5  6  1  0
  5 10  2  0
  6  7  2  0
  6 11  1  0
  7  8  1  0
  7 36  1  0
  8  9  2  0
  8 37  1  0
  9 10  1  0
  9 38  1  0
 10 39  1  0
 11 12  1  0
 11 40  1  1
 11 41  1  0
 12 13  1  0
 12 14  1  0
 12 60  1  1
 13 42  1  6
 13 43  1  0
 13 44  1  0
 14 45  1  6
 14 46  1  0
 14 47  1  0
 15 16  1  0
 15 19  2  0
 16 17  2  0
 16 27  1  0
 17 18  1  0
 18 19  1  0
 18 20  1  0
 19 48  1  0
 20 21  1  0
 20 49  1  6
 20 50  1  0
 21 22  2  0
 21 26  1  0
 22 23  1  0
 22 51  1  0
 23 24  2  0
 23 52  1  0
 24 25  1  0
 24 53  1  0
 25 26  2  0
 25 54  1  0
 26 55  1  0
 27 28  2  0
 27 32  1  0
 28 29  1  0
 28 56  1  0
 29 30  2  0
 30 31  1  0
 30 57  1  0
 31 32  2  0
 31 58  1  0
 32 59  1  0
M  CHG  1  12   1
M  END
>  <s_epik_cmdline>  (1283) 
J2VwaWtfcHl0aG9uJywgJy1waCcsICc3LjAwMDAwMCcsICctcGh0JywgJzIuMDAwMDAwJywgJy1tcycsICcxNicsICctdG4nLCAnOCcsICctbWEnLCAnMjAwJywgJy1pbWFlJywgJzxpbmZpbGUubWFlPicsICctb21hZScsICc8b3V0ZmlsZS5tYWU+Jw==

>  <s_epik_input>  (1283) 
W2NIXTFbY0hdW2NIXVtjSF1jKFtDSDJdTihbQ0gzXSlbQ0gzXSljMVtDSDJdW05IXUMoPU8pYzJjKC1jM1tjSF1uW2NIXVtjSF1bY0hdMylubihbY0hdMilbQ0gyXWM0W2NIXVtjSF1bY0hdW2NIXVtjSF00

>  <s_i_glide_gridfile>  (1283) 
ATP-Grid

>  <s_lp_Force_Field>  (1283) 
OPLS_2005

>  <s_lp_Variant>  (1283) 
m_22bbg____4836914____134270-1

>  <s_lp_label>  (1283) 
2120_sdstereoexpander_1_neutralizer_1_epik_1_stereoizer_1

>  <s_m_source_file>  (1283) 
ATP-VSW-LIGPREP-003-in.maegz

>  <s_sd_BIOSOLVEIT.INFINISEE\_QUERY\_NAME>  (1283) 
Ref-Lig

>  <s_sd_BIOSOLVEIT.INFINISEE\_QUERY\_SMILES>  (1283) 
S(c1nc2c(cc1C[NH2+]Cc3ccc(cc3)C[NH+](C)C)cccc2)Cc4ccccc4

>  <s_sd_BIOSOLVEIT.INFINISEE\_REACTION\_NAME>  (1283) 
m_22bbg

>  <s_sd_BIOSOLVEIT.INFINISEE\_REAGENT1\_SMILES>  (1283) 
[R1*]NCc1c(cccc1)CN(C)C

>  <s_sd_BIOSOLVEIT.INFINISEE\_REAGENT2\_SMILES>  (1283) 
[R1*]C(=O)C=1C(=NN(C1)Cc2ccccc2)c3cnccc3

>  <s_sd_BIOSOLVEIT.INFINISEE\_SPACE>  (1283) 
REALSpace_44bn_2023-08

>  <s_vsw_compound_code>  (1283) 
67811

>  <s_vsw_variant>  (1283) 
67811-1

>  <r_epik_Charging_Adjusted_Penalty>  (1283) 
0.090272439014737693

>  <r_epik_Ionization_Penalty>  (1283) 
0.0482

>  <r_epik_Ionization_Penalty_Charging>  (1283) 
0.045100000000000001

>  <r_epik_Ionization_Penalty_Neutral>  (1283) 
0.0030999999999999999

>  <r_epik_State_Penalty>  (1283) 
0.045100000000000001

>  <r_i_docking_score>  (1283) 
-3.7961501197549001

>  <r_i_glide_ecoul>  (1283) 
-3.5952076911926301

>  <r_i_glide_eff_state_penalty>  (1283) 
0.045100000000000001

>  <r_i_glide_einternal>  (1283) 
4.0733141899108896

>  <r_i_glide_emodel>  (1283) 
-49.5474982085601

>  <r_i_glide_energy>  (1283) 
-39.729336261749303

>  <r_i_glide_erotb>  (1283) 
0.87272429201832702

>  <r_i_glide_esite>  (1283) 
-2.0648892216455201e-06

>  <r_i_glide_evdw>  (1283) 
-36.134128570556598

>  <r_i_glide_gscore>  (1283) 
-3.8412501197548998

>  <r_i_glide_hbond>  (1283) 
-0.033826060692919699

>  <r_i_glide_ligand_efficiency>  (1283) 
-0.118629691242341

>  <r_i_glide_ligand_efficiency_ln>  (1283) 
-0.85006149095716999

>  <r_i_glide_ligand_efficiency_sa>  (1283) 
-0.37662579291041298

>  <r_i_glide_lipo>  (1283) 
-1.6961877009145401

>  <r_i_glide_metal>  (1283) 
-0

>  <r_i_glide_rewards>  (1283) 
-0.63797100306982102

>  <r_lp_Energy>  (1283) 
25.045817

>  <r_lp_tautomer_probability>  (1283) 
1

>  <r_qp_ACxDN^.5/SA>  (1283) 
0.0094272000000000002

>  <r_qp_CIQPlogS>  (1283) 
-5.1879999999999997

>  <r_qp_EA(eV)>  (1283) 
0.27200000000000002

>  <r_qp_FISA>  (1283) 
70.593000000000004

>  <r_qp_FOSA>  (1283) 
230.53100000000001

>  <r_qp_IP(eV)>  (1283) 
9.0999999999999996

>  <r_qp_Jm>  (1283) 
0.0040906679415747098

>  <r_qp_PISA>  (1283) 
494.44299999999998

>  <r_qp_PSA>  (1283) 
65.703999999999994

>  <r_qp_PercentHumanOralAbsorption>  (1283) 
100

>  <r_qp_QPPCaco>  (1283) 
528.88800000000003

>  <r_qp_QPPMDCK>  (1283) 
274.928

>  <r_qp_QPlogBB>  (1283) 
-0.24399999999999999

>  <r_qp_QPlogHERG>  (1283) 
-8.2650000000000006

>  <r_qp_QPlogKhsa>  (1283) 
0.71399999999999997

>  <r_qp_QPlogKp>  (1283) 
-2.4689999999999999

>  <r_qp_QPlogPC16>  (1283) 
15.956

>  <r_qp_QPlogPo/w>  (1283) 
4.7069999999999999

>  <r_qp_QPlogPoct>  (1283) 
23.236999999999998

>  <r_qp_QPlogPw>  (1283) 
12.785

>  <r_qp_QPlogS>  (1283) 
-5.548

>  <r_qp_QPpolrz>  (1283) 
51.628

>  <r_qp_SASA>  (1283) 
795.56700000000001

>  <r_qp_SAamideO>  (1283) 
0

>  <r_qp_SAfluorine>  (1283) 
0

>  <r_qp_WPSA>  (1283) 
0

>  <r_qp_accptHB>  (1283) 
7.5

>  <r_qp_dip^2/V>  (1283) 
0.043681900000000003

>  <r_qp_dipole>  (1283) 
7.9260000000000002

>  <r_qp_donorHB>  (1283) 
1

>  <r_qp_glob>  (1283) 
0.77450640000000004

>  <r_qp_mol_MW>  (1283) 
425.53199999999998

>  <r_qp_volume>  (1283) 
1438.154

>  <r_sd_BIOSOLVEIT.INFINISEE\_FTREES\_SIMILARITY>  (1283) 
0.90100000000000002

>  <r_sd_BIOSOLVEIT.LOGP>  (1283) 
2.5678999999999998

>  <r_sd_BIOSOLVEIT.MOLECULAR\_WEIGHT>  (1283) 
426.541

>  <r_sd_BIOSOLVEIT.TPSA>  (1283) 
64.25

>  <i_epik_Tot_Q>  (1283) 
1

>  <i_epik_Tot_abs_Q>  (1283) 
1

>  <i_f3d_flags>  (1283) 
0

>  <i_i_glide_confnum>  (1283) 
7

>  <i_i_glide_lignum>  (1283) 
783

>  <i_i_glide_posenum>  (1283) 
11

>  <i_i_glide_rotatable_bonds>  (1283) 
9

>  <i_lp_mmshare_version>  (1283) 
65135

>  <i_m_ct_format>  (1283) 
2

>  <i_m_source_file_index>  (1283) 
2120

>  <i_qp_#NandO>  (1283) 
6

>  <i_qp_#acid>  (1283) 
0

>  <i_qp_#amide>  (1283) 
0

>  <i_qp_#amidine>  (1283) 
0

>  <i_qp_#amine>  (1283) 
1

>  <i_qp_#in34>  (1283) 
0

>  <i_qp_#in56>  (1283) 
23

>  <i_qp_#metab>  (1283) 
6

>  <i_qp_#nonHatm>  (1283) 
32

>  <i_qp_#noncon>  (1283) 
0

>  <i_qp_#ringatoms>  (1283) 
23

>  <i_qp_#rotor>  (1283) 
7

>  <i_qp_#rtvFG>  (1283) 
0

>  <i_qp_#stars>  (1283) 
1

>  <i_qp_CNS>  (1283) 
1

>  <i_qp_HumanOralAbsorption>  (1283) 
3

>  <i_qp_RuleOfFive>  (1283) 
0

>  <i_qp_RuleOfThree>  (1283) 
0

>  <i_sd_BIOSOLVEIT.INFINISEE\_REAGENT1\_NAME>  (1283) 
4836914

>  <i_sd_BIOSOLVEIT.INFINISEE\_REAGENT2\_NAME>  (1283) 
134270

>  <i_sd_BIOSOLVEIT.INFINISEE\_RESULT\_RANK>  (1283) 
98475

>  <i_sd_version>  (1283) 
0

>  <b_lp_Chiralities_Consistent>  (1283) 
1

>  <b_sd_chiral_flag>  (1283) 
0

>  <canonical_id>  (1283) 
ATP-HTVS-CB056AB5514A

>  <compound_code>  (1283) 
67811

>  <title>  (1283) 
m_22bbg____4836914____134270

>  <variant>  (1283) 
67811-1

>  <source_file>  (1283) 
运行/运行/ATP-VSW/ATP-VSW-DOCK_HTVS_1-003_lib/ATP-VSW-DOCK_HTVS_1-003_lib.mae

>  <canonical_smiles>  (1283) 
C[NH+](C)Cc1ccccc1CNC(=O)c1cn(Cc2ccccc2)nc1-c1cccnc1

>  <scaffold>  (1283) 
O=C(NCc1ccccc1)c1cn(Cc2ccccc2)nc1-c1cccnc1

>  <molecular_formula>  (1283) 
C26H28N5O+

$$$$
ATP-HTVS-CB08F8B01966
     RDKit          3D

 69 72  0  0  0  0  0  0  0  0999 V2000
  196.8017  180.2023  153.4404 S   0  0  0  0  0  0  0  0  0  0  0  0
  196.2769  180.5754  152.0520 O   0  0  0  0  0  0  0  0  0  0  0  0
  196.6625  181.7352  154.4908 C   0  0  1  0  0  0  0  0  0  0  0  0
  197.0859  181.4895  155.9608 C   0  0  1  0  0  0  0  0  0  0  0  0
  198.4690  181.0121  156.0943 N   0  0  0  0  0  0  0  0  0  0  0  0
  199.5464  181.5286  156.8319 C   0  0  0  0  0  0  0  0  0  0  0  0
  199.3623  182.5812  157.6096 N   0  0  0  0  0  0  0  0  0  0  0  0
  200.3584  183.1776  158.2515 C   0  0  0  0  0  0  0  0  0  0  0  0
  201.6706  182.6746  158.1414 C   0  0  0  0  0  0  0  0  0  0  0  0
  201.9029  181.5873  157.3621 N   0  0  0  0  0  0  0  0  0  0  0  0
  200.8457  180.9891  156.7247 C   0  0  0  0  0  0  0  0  0  0  0  0
  201.1390  179.8201  155.9738 N   0  0  0  0  0  0  0  0  0  0  0  0
  200.5317  178.6405  156.5695 C   0  0  1  0  0  0  0  0  0  0  0  0
  200.8340  177.3085  155.8977 C   0  0  0  0  0  0  0  0  0  0  0  0
  200.4859  177.0634  154.5497 C   0  0  0  0  0  0  0  0  0  0  0  0
  200.7543  175.8189  153.9565 C   0  0  0  0  0  0  0  0  0  0  0  0
  201.3268  174.7766  154.7243 C   0  0  0  0  0  0  0  0  0  0  0  0
  201.6651  175.0314  156.0734 C   0  0  0  0  0  0  0  0  0  0  0  0
  201.4604  176.2898  156.6408 C   0  0  0  0  0  0  0  0  0  0  0  0
  201.5459  173.3929  154.1253 C   0  0  1  0  0  0  0  0  0  0  0  0
  202.9813  173.0395  153.9087 N   0  0  1  0  0  0  0  0  0  0  0  0
  203.5562  173.6931  152.7126 C   0  0  2  0  0  0  0  0  0  0  0  0
  203.8690  173.1935  155.0862 C   0  0  2  0  0  0  0  0  0  0  0  0
  202.4884  179.6833  155.4381 C   0  0  2  0  0  0  0  0  0  0  0  0
  202.7142  183.3027  158.8604 C   0  0  0  0  0  0  0  0  0  0  0  0
  202.4273  184.4300  159.6649 C   0  0  0  0  0  0  0  0  0  0  0  0
  201.1143  184.9444  159.7584 C   0  0  0  0  0  0  0  0  0  0  0  0
  200.0899  184.3049  159.0463 C   0  0  0  0  0  0  0  0  0  0  0  0
  196.6628  182.6576  156.8446 C   0  0  0  0  0  0  0  0  0  0  0  0
  195.8380  182.4164  157.9635 C   0  0  0  0  0  0  0  0  0  0  0  0
  195.5757  183.4176  158.9102 C   0  0  0  0  0  0  0  0  0  0  0  0
  196.1762  184.6812  158.7602 C   0  0  0  0  0  0  0  0  0  0  0  0
  196.9850  184.9564  157.6381 C   0  0  0  0  0  0  0  0  0  0  0  0
  197.1784  183.9707  156.6508 C   0  0  0  0  0  0  0  0  0  0  0  0
  198.6374  179.9997  153.2897 C   0  0  2  0  0  0  0  0  0  0  0  0
  197.1760  182.5830  154.0281 H   0  0  0  0  0  0  0  0  0  0  0  0
  195.5988  181.9926  154.5006 H   0  0  0  0  0  0  0  0  0  0  0  0
  196.4580  180.6616  156.2962 H   0  0  0  0  0  0  0  0  0  0  0  0
  198.6422  180.0844  155.6628 H   0  0  0  0  0  0  0  0  0  0  0  0
  200.8151  178.5747  157.6225 H   0  0  0  0  0  0  0  0  0  0  0  0
  199.4438  178.6954  156.5643 H   0  0  0  0  0  0  0  0  0  0  0  0
  200.0235  177.8417  153.9655 H   0  0  0  0  0  0  0  0  0  0  0  0
  200.4579  175.6577  152.9292 H   0  0  0  0  0  0  0  0  0  0  0  0
  202.1071  174.2567  156.6832 H   0  0  0  0  0  0  0  0  0  0  0  0
  201.7817  176.4902  157.6519 H   0  0  0  0  0  0  0  0  0  0  0  0
  201.0674  172.6481  154.7673 H   0  0  0  0  0  0  0  0  0  0  0  0
  201.0112  173.3263  153.1702 H   0  0  0  0  0  0  0  0  0  0  0  0
  203.5674  174.7741  152.8360 H   0  0  0  0  0  0  0  0  0  0  0  0
  202.9854  173.4525  151.8149 H   0  0  0  0  0  0  0  0  0  0  0  0
  204.5801  173.3563  152.5572 H   0  0  0  0  0  0  0  0  0  0  0  0
  203.9569  174.2422  155.3745 H   0  0  0  0  0  0  0  0  0  0  0  0
  204.8668  172.8013  154.8829 H   0  0  0  0  0  0  0  0  0  0  0  0
  203.4618  172.6367  155.9277 H   0  0  0  0  0  0  0  0  0  0  0  0
  202.8179  180.6069  154.9621 H   0  0  0  0  0  0  0  0  0  0  0  0
  202.5691  178.8943  154.6797 H   0  0  0  0  0  0  0  0  0  0  0  0
  203.1913  179.4390  156.2359 H   0  0  0  0  0  0  0  0  0  0  0  0
  203.7204  182.9292  158.8114 H   0  0  0  0  0  0  0  0  0  0  0  0
  203.2003  184.9186  160.2562 H   0  0  0  0  0  0  0  0  0  0  0  0
  200.8600  185.7971  160.3621 H   0  0  0  0  0  0  0  0  0  0  0  0
  199.0834  184.6643  159.1051 H   0  0  0  0  0  0  0  0  0  0  0  0
  195.4659  181.4189  158.1281 H   0  0  0  0  0  0  0  0  0  0  0  0
  195.0234  183.1739  159.7940 H   0  0  0  0  0  0  0  0  0  0  0  0
  196.0795  185.4303  159.5463 H   0  0  0  0  0  0  0  0  0  0  0  0
  197.5250  185.8974  157.5611 H   0  0  0  0  0  0  0  0  0  0  0  0
  197.8609  184.1579  155.8330 H   0  0  0  0  0  0  0  0  0  0  0  0
  199.0612  179.7365  154.2506 H   0  0  0  0  0  0  0  0  0  0  0  0
  199.0768  180.9293  152.9533 H   0  0  0  0  0  0  0  0  0  0  0  0
  198.8376  179.2311  152.5501 H   0  0  0  0  0  0  0  0  0  0  0  0
  202.9825  172.0414  153.7315 H   0  0  0  0  0  0  0  0  0  0  0  0
  1  2  2  0
  1  3  1  1
  1 35  1  0
  3  4  1  0
  3 36  1  6
  3 37  1  0
  4  5  1  0
  4 29  1  0
  4 38  1  1
  5  6  1  0
  5 39  1  0
  6  7  2  0
  6 11  1  0
  7  8  1  0
  8  9  1  0
  8 28  2  0
  9 10  1  0
  9 25  2  0
 10 11  2  0
 11 12  1  0
 12 13  1  0
 12 24  1  0
 13 14  1  0
 13 40  1  1
 13 41  1  0
 14 15  1  0
 14 19  2  0
 15 16  2  0
 15 42  1  0
 16 17  1  0
 16 43  1  0
 17 18  2  0
 17 20  1  0
 18 19  1  0
 18 44  1  0
 19 45  1  0
 20 21  1  0
 20 46  1  1
 20 47  1  0
 21 22  1  0
 21 23  1  0
 21 69  1  6
 22 48  1  1
 22 49  1  0
 22 50  1  0
 23 51  1  1
 23 52  1  0
 23 53  1  0
 24 54  1  6
 24 55  1  0
 24 56  1  0
 25 26  1  0
 25 57  1  0
 26 27  2  0
 26 58  1  0
 27 28  1  0
 27 59  1  0
 28 60  1  0
 29 30  2  0
 29 34  1  0
 30 31  1  0
 30 61  1  0
 31 32  2  0
 31 62  1  0
 32 33  1  0
 32 63  1  0
 33 34  2  0
 33 64  1  0
 34 65  1  0
 35 66  1  1
 35 67  1  0
 35 68  1  0
M  CHG  1  21   1
M  END
>  <s_epik_cmdline>  (1284) 
J2VwaWtfcHl0aG9uJywgJy1waCcsICc3LjAwMDAwMCcsICctcGh0JywgJzIuMDAwMDAwJywgJy1tcycsICcxNicsICctdG4nLCAnOCcsICctbWEnLCAnMjAwJywgJy1pbWFlJywgJzxpbmZpbGUubWFlPicsICctb21hZScsICc8b3V0ZmlsZS5tYWU+Jw==

>  <s_epik_input>  (1284) 
W2NIXTFbY0hdW2NIXVtjSF1bY0hdYzFbQ0BASF0oW0NIMl1bU0BAXSg9TylbQ0gzXSlbTkhdYyhuMiljKG5jKGMyMylbY0hdW2NIXVtjSF1bY0hdMylOKFtDSDNdKVtDSDJdYzRbY0hdW2NIXWMoW2NIXVtjSF00KVtDSDJdTihbQ0gzXSlbQ0gzXQ==

>  <s_i_glide_gridfile>  (1284) 
ATP-Grid

>  <s_lp_Force_Field>  (1284) 
OPLS_2005

>  <s_lp_Variant>  (1284) 
m_282030aaa____21890430____23157418____21942374-4

>  <s_lp_label>  (1284) 
1704_sdstereoexpander_4_neutralizer_1_epik_1_stereoizer_1

>  <s_m_source_file>  (1284) 
ATP-VSW-LIGPREP-003-in.maegz

>  <s_sd_BIOSOLVEIT.INFINISEE\_QUERY\_NAME>  (1284) 
Ref-Lig

>  <s_sd_BIOSOLVEIT.INFINISEE\_QUERY\_SMILES>  (1284) 
S(c1nc2c(cc1C[NH2+]Cc3ccc(cc3)C[NH+](C)C)cccc2)Cc4ccccc4

>  <s_sd_BIOSOLVEIT.INFINISEE\_REACTION\_NAME>  (1284) 
m_282030aaa

>  <s_sd_BIOSOLVEIT.INFINISEE\_REAGENT1\_SMILES>  (1284) 
[R1*]NC(c1ccccc1)CS(=O)C

>  <s_sd_BIOSOLVEIT.INFINISEE\_REAGENT2\_SMILES>  (1284) 
[R1*]c1nc2c(nc1[R2*])cccc2

>  <s_sd_BIOSOLVEIT.INFINISEE\_REAGENT3\_SMILES>  (1284) 
[R2*]N(Cc1ccc(cc1)CN(C)C)C

>  <s_sd_BIOSOLVEIT.INFINISEE\_SPACE>  (1284) 
REALSpace_44bn_2023-08

>  <s_vsw_compound_code>  (1284) 
54499

>  <s_vsw_variant>  (1284) 
54499-4

>  <r_epik_Charging_Adjusted_Penalty>  (1284) 
0.072909427423789294

>  <r_epik_Ionization_Penalty>  (1284) 
0.036900000000000002

>  <r_epik_Ionization_Penalty_Charging>  (1284) 
0.036499999999999998

>  <r_epik_Ionization_Penalty_Neutral>  (1284) 
0.00040000000000000002

>  <r_epik_State_Penalty>  (1284) 
0.036499999999999998

>  <r_i_docking_score>  (1284) 
-3.84717354528031

>  <r_i_glide_ecoul>  (1284) 
-5.4525032043456996

>  <r_i_glide_eff_state_penalty>  (1284) 
0.036499999999999998

>  <r_i_glide_einternal>  (1284) 
3.7706058025360099

>  <r_i_glide_emodel>  (1284) 
-54.355723130509503

>  <r_i_glide_energy>  (1284) 
-41.8128051757812

>  <r_i_glide_erotb>  (1284) 
0.68135115179146899

>  <r_i_glide_esite>  (1284) 
-0.141429585055142

>  <r_i_glide_evdw>  (1284) 
-36.360301971435497

>  <r_i_glide_gscore>  (1284) 
-3.8836735452803102

>  <r_i_glide_hbond>  (1284) 
-0.20000000000000001

>  <r_i_glide_ligand_efficiency>  (1284) 
-0.109919244150866

>  <r_i_glide_ligand_efficiency_ln>  (1284) 
-0.84453997660552804

>  <r_i_glide_ligand_efficiency_sa>  (1284) 
-0.35955313595718003

>  <r_i_glide_lipo>  (1284) 
-1.2671968099859701

>  <r_i_glide_metal>  (1284) 
-0

>  <r_i_glide_rewards>  (1284) 
-0.32050772280703199

>  <r_lp_Energy>  (1284) 
31.023301

>  <r_qp_ACxDN^.5/SA>  (1284) 
0

>  <r_qp_CIQPlogS>  (1284) 
-5.9889999999999999

>  <r_qp_EA(eV)>  (1284) 
1.0569999999999999

>  <r_qp_FISA>  (1284) 
48.140999999999998

>  <r_qp_FOSA>  (1284) 
334.35599999999999

>  <r_qp_IP(eV)>  (1284) 
8.5510000000000002

>  <r_qp_Jm>  (1284) 
27.1824812710815

>  <r_qp_PISA>  (1284) 
334.065

>  <r_qp_PSA>  (1284) 
51.863999999999997

>  <r_qp_PercentHumanOralAbsorption>  (1284) 
81.665999999999997

>  <r_qp_QPPCaco>  (1284) 
34.378

>  <r_qp_QPPMDCK>  (1284) 
599.596

>  <r_qp_QPlogBB>  (1284) 
-0.034000000000000002

>  <r_qp_QPlogHERG>  (1284) 
-6.242

>  <r_qp_QPlogKhsa>  (1284) 
0.34499999999999997

>  <r_qp_QPlogKp>  (1284) 
-2.3319999999999999

>  <r_qp_QPlogPC16>  (1284) 
14.635999999999999

>  <r_qp_QPlogPo/w>  (1284) 
4.6500000000000004

>  <r_qp_QPlogPoct>  (1284) 
21.274999999999999

>  <r_qp_QPlogPw>  (1284) 
12.272

>  <r_qp_QPlogS>  (1284) 
-1.921

>  <r_qp_QPpolrz>  (1284) 
49.774000000000001

>  <r_qp_SASA>  (1284) 
736.36800000000005

>  <r_qp_SAamideO>  (1284) 
0

>  <r_qp_SAfluorine>  (1284) 
0

>  <r_qp_WPSA>  (1284) 
19.806000000000001

>  <r_qp_accptHB>  (1284) 
8

>  <r_qp_dip^2/V>  (1284) 
0.033855700000000002

>  <r_qp_dipole>  (1284) 
7.0739999999999998

>  <r_qp_donorHB>  (1284) 
0

>  <r_qp_glob>  (1284) 
0.85224420000000001

>  <r_qp_mol_MW>  (1284) 
487.66199999999998

>  <r_qp_volume>  (1284) 
1478.2260000000001

>  <r_sd_BIOSOLVEIT.INFINISEE\_FTREES\_SIMILARITY>  (1284) 
0.90500000000000003

>  <r_sd_BIOSOLVEIT.LOGP>  (1284) 
4.093

>  <r_sd_BIOSOLVEIT.MOLECULAR\_WEIGHT>  (1284) 
488.67599999999999

>  <r_sd_BIOSOLVEIT.TPSA>  (1284) 
62.560000000000002

>  <i_epik_Tot_Q>  (1284) 
1

>  <i_epik_Tot_abs_Q>  (1284) 
1

>  <i_f3d_flags>  (1284) 
0

>  <i_i_glide_confnum>  (1284) 
2

>  <i_i_glide_lignum>  (1284) 
639

>  <i_i_glide_posenum>  (1284) 
16

>  <i_i_glide_rotatable_bonds>  (1284) 
10

>  <i_lp_mmshare_version>  (1284) 
65135

>  <i_m_ct_format>  (1284) 
2

>  <i_m_source_file_index>  (1284) 
1704

>  <i_qp_#NandO>  (1284) 
6

>  <i_qp_#acid>  (1284) 
0

>  <i_qp_#amide>  (1284) 
0

>  <i_qp_#amidine>  (1284) 
0

>  <i_qp_#amine>  (1284) 
1

>  <i_qp_#in34>  (1284) 
0

>  <i_qp_#in56>  (1284) 
22

>  <i_qp_#metab>  (1284) 
6

>  <i_qp_#nonHatm>  (1284) 
35

>  <i_qp_#noncon>  (1284) 
0

>  <i_qp_#ringatoms>  (1284) 
22

>  <i_qp_#rotor>  (1284) 
10

>  <i_qp_#rtvFG>  (1284) 
0

>  <i_qp_#stars>  (1284) 
0

>  <i_qp_CNS>  (1284) 
1

>  <i_qp_HumanOralAbsorption>  (1284) 
2

>  <i_qp_RuleOfFive>  (1284) 
0

>  <i_qp_RuleOfThree>  (1284) 
0

>  <i_sd_BIOSOLVEIT.INFINISEE\_REAGENT1\_NAME>  (1284) 
21890430

>  <i_sd_BIOSOLVEIT.INFINISEE\_REAGENT2\_NAME>  (1284) 
23157418

>  <i_sd_BIOSOLVEIT.INFINISEE\_REAGENT3\_NAME>  (1284) 
21942374

>  <i_sd_BIOSOLVEIT.INFINISEE\_RESULT\_RANK>  (1284) 
71974

>  <i_sd_version>  (1284) 
0

>  <b_lp_Chiralities_Consistent>  (1284) 
1

>  <b_sd_chiral_flag>  (1284) 
0

>  <canonical_id>  (1284) 
ATP-HTVS-CB08F8B01966

>  <compound_code>  (1284) 
54499

>  <title>  (1284) 
m_282030aaa____21890430____23157418____21942374

>  <variant>  (1284) 
54499-4

>  <source_file>  (1284) 
运行/运行/ATP-VSW/ATP-VSW-DOCK_HTVS_1-003_lib/ATP-VSW-DOCK_HTVS_1-003_lib.mae

>  <canonical_smiles>  (1284) 
CN(Cc1ccc(C[NH+](C)C)cc1)c1nc2ccccc2nc1N[C@H](C[S@](C)=O)c1ccccc1

>  <scaffold>  (1284) 
c1ccc(CNc2nc3ccccc3nc2NCc2ccccc2)cc1

>  <molecular_formula>  (1284) 
C28H34N5OS+

$$$$
ATP-HTVS-CB100B4C9F83
     RDKit          3D

 69 72  0  0  0  0  0  0  0  0999 V2000
  198.7883  184.7429  148.6988 S   0  0  0  0  0  0  0  0  0  0  0  0
  199.9713  185.6997  149.5714 C   0  0  0  0  0  0  0  0  0  0  0  0
  199.6131  185.8147  150.9556 C   0  0  0  0  0  0  0  0  0  0  0  0
  200.4616  186.6545  151.7345 C   0  0  0  0  0  0  0  0  0  0  0  0
  201.5975  187.2853  151.1994 C   0  0  0  0  0  0  0  0  0  0  0  0
  201.9386  187.1112  149.8497 C   0  0  0  0  0  0  0  0  0  0  0  0
  201.1188  186.3117  149.0309 C   0  0  0  0  0  0  0  0  0  0  0  0
  198.4195  185.0305  151.2817 C   0  0  0  0  0  0  0  0  0  0  0  0
  197.8600  184.9182  152.5785 N   0  0  0  0  0  0  0  0  0  0  0  0
  198.6682  184.9464  153.7897 C   0  0  1  0  0  0  0  0  0  0  0  0
  198.0214  184.2539  154.9633 C   0  0  0  0  0  0  0  0  0  0  0  0
  197.6920  182.8843  154.8299 C   0  0  0  0  0  0  0  0  0  0  0  0
  196.9743  182.2459  155.8663 C   0  0  0  0  0  0  0  0  0  0  0  0
  196.7152  182.9293  157.0773 C   0  0  0  0  0  0  0  0  0  0  0  0
  197.1488  184.2684  157.2398 C   0  0  0  0  0  0  0  0  0  0  0  0
  197.7741  184.9388  156.1748 C   0  0  0  0  0  0  0  0  0  0  0  0
  196.0053  182.2124  158.2140 C   0  0  1  0  0  0  0  0  0  0  0  0
  194.5367  182.4475  158.1398 N   0  0  1  0  0  0  0  0  0  0  0  0
  193.7469  181.2760  158.5719 C   0  0  2  0  0  0  0  0  0  0  0  0
  194.1165  183.6840  158.8455 C   0  0  2  0  0  0  0  0  0  0  0  0
  197.8819  184.4266  150.1618 C   0  0  0  0  0  0  0  0  0  0  0  0
  196.6497  183.5549  150.0986 C   0  0  1  0  0  0  0  0  0  0  0  0
  196.8183  182.1774  150.6284 N   0  0  0  0  0  0  0  0  0  0  0  0
  197.6293  181.2963  149.9914 C   0  0  0  0  0  0  0  0  0  0  0  0
  198.3569  181.6468  149.0708 O   0  0  0  0  0  0  0  0  0  0  0  0
  197.6353  179.8088  150.4243 C   0  0  1  0  0  0  0  0  0  0  0  0
  198.7078  178.9150  149.7545 C   0  0  1  0  0  0  0  0  0  0  0  0
  198.7229  177.5564  150.3391 C   0  0  0  0  0  0  0  0  0  0  0  0
  198.7347  176.4970  150.7914 N   0  0  0  0  0  0  0  0  0  0  0  0
  198.5830  178.8315  148.2376 C   0  0  0  0  0  0  0  0  0  0  0  0
  197.5429  178.0994  147.6243 C   0  0  0  0  0  0  0  0  0  0  0  0
  197.3887  178.1329  146.2234 C   0  0  0  0  0  0  0  0  0  0  0  0
  198.2747  178.8909  145.4274 C   0  0  0  0  0  0  0  0  0  0  0  0
  199.3219  179.6050  146.0337 C   0  0  0  0  0  0  0  0  0  0  0  0
  199.4873  179.5539  147.4291 C   0  0  0  0  0  0  0  0  0  0  0  0
  196.0561  181.7663  151.8207 C   0  0  2  0  0  0  0  0  0  0  0  0
  200.2440  186.8317  152.7719 H   0  0  0  0  0  0  0  0  0  0  0  0
  202.2093  187.9059  151.8401 H   0  0  0  0  0  0  0  0  0  0  0  0
  202.8089  187.6045  149.4412 H   0  0  0  0  0  0  0  0  0  0  0  0
  201.3584  186.1794  147.9863 H   0  0  0  0  0  0  0  0  0  0  0  0
  196.9688  184.4466  152.6768 H   0  0  0  0  0  0  0  0  0  0  0  0
  199.6134  184.4469  153.5797 H   0  0  0  0  0  0  0  0  0  0  0  0
  198.8664  185.9779  154.0679 H   0  0  0  0  0  0  0  0  0  0  0  0
  198.0340  182.3697  153.9475 H   0  0  0  0  0  0  0  0  0  0  0  0
  196.6536  181.2187  155.7383 H   0  0  0  0  0  0  0  0  0  0  0  0
  197.0061  184.7814  158.1846 H   0  0  0  0  0  0  0  0  0  0  0  0
  198.1077  185.9637  156.2937 H   0  0  0  0  0  0  0  0  0  0  0  0
  196.2560  181.1540  158.1363 H   0  0  0  0  0  0  0  0  0  0  0  0
  196.4021  182.5106  159.1908 H   0  0  0  0  0  0  0  0  0  0  0  0
  193.9774  181.0331  159.6097 H   0  0  0  0  0  0  0  0  0  0  0  0
  193.9137  180.4104  157.9380 H   0  0  0  0  0  0  0  0  0  0  0  0
  192.6867  181.4664  158.4605 H   0  0  0  0  0  0  0  0  0  0  0  0
  194.3352  183.6123  159.9121 H   0  0  0  0  0  0  0  0  0  0  0  0
  193.0468  183.8644  158.7304 H   0  0  0  0  0  0  0  0  0  0  0  0
  194.6333  184.5615  158.4602 H   0  0  0  0  0  0  0  0  0  0  0  0
  195.8283  184.0717  150.5964 H   0  0  0  0  0  0  0  0  0  0  0  0
  196.3487  183.4759  149.0503 H   0  0  0  0  0  0  0  0  0  0  0  0
  197.8063  179.7236  151.4950 H   0  0  0  0  0  0  0  0  0  0  0  0
  196.6483  179.3903  150.2513 H   0  0  0  0  0  0  0  0  0  0  0  0
  199.6877  179.3225  150.0052 H   0  0  0  0  0  0  0  0  0  0  0  0
  196.8315  177.5528  148.2284 H   0  0  0  0  0  0  0  0  0  0  0  0
  196.5786  177.5920  145.7555 H   0  0  0  0  0  0  0  0  0  0  0  0
  198.1422  178.9333  144.3544 H   0  0  0  0  0  0  0  0  0  0  0  0
  199.9633  180.2465  145.4429 H   0  0  0  0  0  0  0  0  0  0  0  0
  200.2727  180.1352  147.8879 H   0  0  0  0  0  0  0  0  0  0  0  0
  195.3114  180.9851  151.5756 H   0  0  0  0  0  0  0  0  0  0  0  0
  195.5484  182.6220  152.2799 H   0  0  0  0  0  0  0  0  0  0  0  0
  196.7586  181.3535  152.5404 H   0  0  0  0  0  0  0  0  0  0  0  0
  194.2935  182.5755  157.1497 H   0  0  0  0  0  0  0  0  0  0  0  0
  1  2  1  0
  1 21  1  0
  2  3  1  0
  2  7  2  0
  3  4  2  0
  3  8  1  0
  4  5  1  0
  4 37  1  0
  5  6  2  0
  5 38  1  0
  6  7  1  0
  6 39  1  0
  7 40  1  0
  8  9  1  0
  8 21  2  0
  9 10  1  0
  9 41  1  0
 10 11  1  0
 10 42  1  6
 10 43  1  0
 11 12  1  0
 11 16  2  0
 12 13  2  0
 12 44  1  0
 13 14  1  0
 13 45  1  0
 14 15  2  0
 14 17  1  0
 15 16  1  0
 15 46  1  0
 16 47  1  0
 17 18  1  0
 17 48  1  6
 17 49  1  0
 18 19  1  0
 18 20  1  0
 18 69  1  6
 19 50  1  1
 19 51  1  0
 19 52  1  0
 20 53  1  1
 20 54  1  0
 20 55  1  0
 21 22  1  0
 22 23  1  0
 22 56  1  1
 22 57  1  0
 23 24  1  0
 23 36  1  0
 24 25  2  0
 24 26  1  0
 26 27  1  0
 26 58  1  1
 26 59  1  0
 27 28  1  0
 27 30  1  0
 27 60  1  6
 28 29  3  0
 30 31  2  0
 30 35  1  0
 31 32  1  0
 31 61  1  0
 32 33  2  0
 32 62  1  0
 33 34  1  0
 33 63  1  0
 34 35  2  0
 34 64  1  0
 35 65  1  0
 36 66  1  6
 36 67  1  0
 36 68  1  0
M  CHG  1  18   1
M  END
>  <s_epik_cmdline>  (1285) 
J2VwaWtfcHl0aG9uJywgJy1waCcsICc3LjAwMDAwMCcsICctcGh0JywgJzIuMDAwMDAwJywgJy1tcycsICcxNicsICctdG4nLCAnOCcsICctbWEnLCAnMjAwJywgJy1pbWFlJywgJzxpbmZpbGUubWFlPicsICctb21hZScsICc8b3V0ZmlsZS5tYWU+Jw==

>  <s_epik_input>  (1285) 
W0NIM11OKFtDSDNdKVtDSDJdYyhbY0hdW2NIXTEpW2NIXVtjSF1jMVtDSDJdW05IXWMoYyhjMjMpW2NIXVtjSF1bY0hdW2NIXTMpYyhzMilbQ0gyXU4oW0NIM10pQyg9TylbQ0gyXVtDQEBIXShDI04pYzRbY0hdW2NIXVtjSF1bY0hdW2NIXTQ=

>  <s_i_glide_gridfile>  (1285) 
ATP-Grid

>  <s_lp_Force_Field>  (1285) 
OPLS_2005

>  <s_lp_Variant>  (1285) 
rxn502c____EMOL17362509____EMOL49259969____EMOL50155899-1

>  <s_lp_label>  (1285) 
2308_sdstereoexpander_1_neutralizer_1_epik_1_stereoizer_1

>  <s_m_source_file>  (1285) 
ATP-VSW-LIGPREP-003-in.maegz

>  <s_sd_BIOSOLVEIT.INFINISEE\_QUERY\_NAME>  (1285) 
Ref-Lig

>  <s_sd_BIOSOLVEIT.INFINISEE\_QUERY\_SMILES>  (1285) 
S(c1nc2c(cc1C[NH2+]Cc3ccc(cc3)C[NH+](C)C)cccc2)Cc4ccccc4

>  <s_sd_BIOSOLVEIT.INFINISEE\_REACTION\_NAME>  (1285) 
rxn502c

>  <s_sd_BIOSOLVEIT.INFINISEE\_REAGENT1\_NAME>  (1285) 
EMOL17362509

>  <s_sd_BIOSOLVEIT.INFINISEE\_REAGENT1\_SMILES>  (1285) 
O=C(O)CC(C#N)c1ccccc1

>  <s_sd_BIOSOLVEIT.INFINISEE\_REAGENT2\_NAME>  (1285) 
EMOL49259969

>  <s_sd_BIOSOLVEIT.INFINISEE\_REAGENT2\_SMILES>  (1285) 
ClC=1c2c(SC1CNC)cccc2

>  <s_sd_BIOSOLVEIT.INFINISEE\_REAGENT3\_NAME>  (1285) 
EMOL50155899

>  <s_sd_BIOSOLVEIT.INFINISEE\_REAGENT3\_SMILES>  (1285) 
N(Cc1ccc(cc1)CN)(C)C

>  <s_sd_BIOSOLVEIT.INFINISEE\_SPACE>  (1285) 
eXplore_7tr_2022-12

>  <s_vsw_compound_code>  (1285) 
73827

>  <s_vsw_variant>  (1285) 
73827-1

>  <r_epik_Charging_Adjusted_Penalty>  (1285) 
0.080189274810459593

>  <r_epik_Ionization_Penalty>  (1285) 
0.040099999999999997

>  <r_epik_Ionization_Penalty_Charging>  (1285) 
0.040099999999999997

>  <r_epik_Ionization_Penalty_Neutral>  (1285) 
0

>  <r_epik_State_Penalty>  (1285) 
0.040099999999999997

>  <r_i_docking_score>  (1285) 
-3.90428610347139

>  <r_i_glide_ecoul>  (1285) 
-9.0126829147338903

>  <r_i_glide_eff_state_penalty>  (1285) 
0.040099999999999997

>  <r_i_glide_einternal>  (1285) 
3.0044279098510702

>  <r_i_glide_emodel>  (1285) 
-59.971807776270602

>  <r_i_glide_energy>  (1285) 
-46.027712821960399

>  <r_i_glide_erotb>  (1285) 
0.74130567804479797

>  <r_i_glide_esite>  (1285) 
-0.10000000000000001

>  <r_i_glide_evdw>  (1285) 
-37.015029907226598

>  <r_i_glide_gscore>  (1285) 
-3.9443861034713898

>  <r_i_glide_hbond>  (1285) 
-0.20000000000000001

>  <r_i_glide_ligand_efficiency>  (1285) 
-0.108452391763094

>  <r_i_glide_ligand_efficiency_ln>  (1285) 
-0.85180974615684502

>  <r_i_glide_ligand_efficiency_sa>  (1285) 
-0.35810190714260098

>  <r_i_glide_lipo>  (1285) 
-0.962214402431953

>  <r_i_glide_metal>  (1285) 
-0

>  <r_i_glide_rewards>  (1285) 
-0.22082344651282401

>  <r_lp_Energy>  (1285) 
24.781313000000001

>  <r_qp_ACxDN^.5/SA>  (1285) 
0.0102226

>  <r_qp_CIQPlogS>  (1285) 
-5.8280000000000003

>  <r_qp_EA(eV)>  (1285) 
0.42799999999999999

>  <r_qp_FISA>  (1285) 
71.397000000000006

>  <r_qp_FOSA>  (1285) 
236.40799999999999

>  <r_qp_IP(eV)>  (1285) 
7.9619999999999997

>  <r_qp_Jm>  (1285) 
0.0087414142528408397

>  <r_qp_PISA>  (1285) 
388.84899999999999

>  <r_qp_PSA>  (1285) 
65.033000000000001

>  <r_qp_PercentHumanOralAbsorption>  (1285) 
85.248000000000005

>  <r_qp_QPPCaco>  (1285) 
96.900000000000006

>  <r_qp_QPPMDCK>  (1285) 
106.111

>  <r_qp_QPlogBB>  (1285) 
0.14000000000000001

>  <r_qp_QPlogHERG>  (1285) 
-5.7830000000000004

>  <r_qp_QPlogKhsa>  (1285) 
0.38300000000000001

>  <r_qp_QPlogKp>  (1285) 
-4.5350000000000001

>  <r_qp_QPlogPC16>  (1285) 
15.555999999999999

>  <r_qp_QPlogPo/w>  (1285) 
3.8860000000000001

>  <r_qp_QPlogPoct>  (1285) 
23.120999999999999

>  <r_qp_QPlogPw>  (1285) 
12.228

>  <r_qp_QPlogS>  (1285) 
-3.2200000000000002

>  <r_qp_QPpolrz>  (1285) 
49.793999999999997

>  <r_qp_SASA>  (1285) 
733.67200000000003

>  <r_qp_SAamideO>  (1285) 
15.869

>  <r_qp_SAfluorine>  (1285) 
0

>  <r_qp_WPSA>  (1285) 
37.017000000000003

>  <r_qp_accptHB>  (1285) 
7.5

>  <r_qp_dip^2/V>  (1285) 
0.061396399999999997

>  <r_qp_dipole>  (1285) 
9.5380000000000003

>  <r_qp_donorHB>  (1285) 
1

>  <r_qp_glob>  (1285) 
0.85671330000000001

>  <r_qp_mol_MW>  (1285) 
496.66899999999998

>  <r_qp_volume>  (1285) 
1481.693

>  <r_sd_BIOSOLVEIT.INFINISEE\_FTREES\_SIMILARITY>  (1285) 
0.92200000000000004

>  <r_sd_BIOSOLVEIT.LOGP>  (1285) 
4.8137800000000004

>  <r_sd_BIOSOLVEIT.MOLECULAR\_WEIGHT>  (1285) 
497.68299999999999

>  <r_sd_BIOSOLVEIT.TPSA>  (1285) 
60.57

>  <i_epik_Tot_Q>  (1285) 
1

>  <i_epik_Tot_abs_Q>  (1285) 
1

>  <i_f3d_flags>  (1285) 
0

>  <i_i_glide_confnum>  (1285) 
1

>  <i_i_glide_lignum>  (1285) 
947

>  <i_i_glide_posenum>  (1285) 
2

>  <i_i_glide_rotatable_bonds>  (1285) 
11

>  <i_lp_mmshare_version>  (1285) 
65135

>  <i_m_ct_format>  (1285) 
2

>  <i_m_source_file_index>  (1285) 
2308

>  <i_qp_#NandO>  (1285) 
5

>  <i_qp_#acid>  (1285) 
0

>  <i_qp_#amide>  (1285) 
1

>  <i_qp_#amidine>  (1285) 
0

>  <i_qp_#amine>  (1285) 
2

>  <i_qp_#in34>  (1285) 
0

>  <i_qp_#in56>  (1285) 
21

>  <i_qp_#metab>  (1285) 
10

>  <i_qp_#nonHatm>  (1285) 
36

>  <i_qp_#noncon>  (1285) 
0

>  <i_qp_#ringatoms>  (1285) 
21

>  <i_qp_#rotor>  (1285) 
11

>  <i_qp_#rtvFG>  (1285) 
0

>  <i_qp_#stars>  (1285) 
1

>  <i_qp_CNS>  (1285) 
1

>  <i_qp_HumanOralAbsorption>  (1285) 
1

>  <i_qp_RuleOfFive>  (1285) 
0

>  <i_qp_RuleOfThree>  (1285) 
1

>  <i_sd_BIOSOLVEIT.INFINISEE\_RESULT\_RANK>  (1285) 
12411

>  <i_sd_version>  (1285) 
0

>  <b_lp_Chiralities_Consistent>  (1285) 
1

>  <b_sd_chiral_flag>  (1285) 
0

>  <canonical_id>  (1285) 
ATP-HTVS-CB100B4C9F83

>  <compound_code>  (1285) 
73827

>  <title>  (1285) 
rxn502c____EMOL17362509____EMOL49259969____EMOL50155899

>  <variant>  (1285) 
73827-1

>  <source_file>  (1285) 
运行/运行/ATP-VSW/ATP-VSW-DOCK_HTVS_1-003_lib/ATP-VSW-DOCK_HTVS_1-003_lib.mae

>  <canonical_smiles>  (1285) 
CN(Cc1sc2ccccc2c1NCc1ccc(C[NH+](C)C)cc1)C(=O)C[C@@H](C#N)c1ccccc1

>  <scaffold>  (1285) 
O=C(CCc1ccccc1)NCc1sc2ccccc2c1NCc1ccccc1

>  <molecular_formula>  (1285) 
C30H33N4OS+

$$$$
ATP-HTVS-CB3D9B3FDDC1
     RDKit          3D

 67 70  0  0  0  0  0  0  0  0999 V2000
  199.3397  179.1640  153.9888 O   0  0  0  0  0  0  0  0  0  0  0  0
  198.8412  179.1459  155.1077 C   0  0  0  0  0  0  0  0  0  0  0  0
  199.4639  178.6332  156.1950 N   0  0  0  0  0  0  0  0  0  0  0  0
  200.8702  178.1982  156.1749 C   0  0  1  0  0  0  0  0  0  0  0  0
  201.0650  176.8158  155.5475 C   0  0  0  0  0  0  0  0  0  0  0  0
  201.6673  175.8004  156.3216 C   0  0  0  0  0  0  0  0  0  0  0  0
  201.8350  174.5164  155.7673 C   0  0  0  0  0  0  0  0  0  0  0  0
  201.4357  174.2188  154.4454 C   0  0  0  0  0  0  0  0  0  0  0  0
  200.8447  175.2324  153.6712 C   0  0  0  0  0  0  0  0  0  0  0  0
  200.6618  176.5256  154.2048 C   0  0  0  0  0  0  0  0  0  0  0  0
  201.6658  172.8540  153.8318 C   0  0  1  0  0  0  0  0  0  0  0  0
  203.0769  172.6502  153.4244 N   0  0  1  0  0  0  0  0  0  0  0  0
  203.4048  173.2161  152.1034 C   0  0  2  0  0  0  0  0  0  0  0  0
  204.0810  173.0082  154.4488 C   0  0  2  0  0  0  0  0  0  0  0  0
  201.8300  179.2445  155.5321 C   0  0  2  0  0  0  0  0  0  0  0  0
  197.6100  179.6392  155.3777 N   0  0  0  0  0  0  0  0  0  0  0  0
  196.7489  180.2675  154.3753 C   0  0  1  0  0  0  0  0  0  0  0  0
  197.4837  180.9636  153.1529 C   0  0  1  0  0  0  0  0  0  0  0  0
  196.5223  181.3049  152.0666 N   0  0  0  0  0  0  0  0  0  0  0  0
  196.5396  182.6285  151.7533 C   0  0  0  0  0  0  0  0  0  0  0  0
  195.9536  183.1970  150.8290 O   0  0  0  0  0  0  0  0  0  0  0  0
  197.4981  183.2718  152.6902 C   0  0  0  0  0  0  0  0  0  0  0  0
  198.0457  182.3177  153.5368 C   0  0  0  0  0  0  0  0  0  0  0  0
  199.0587  182.6270  154.4690 C   0  0  0  0  0  0  0  0  0  0  0  0
  199.4780  183.9684  154.5517 C   0  0  0  0  0  0  0  0  0  0  0  0
  198.8951  184.9514  153.7100 C   0  0  0  0  0  0  0  0  0  0  0  0
  197.9114  184.6079  152.7490 C   0  0  0  0  0  0  0  0  0  0  0  0
  195.9738  180.2150  151.2284 C   0  0  1  0  0  0  0  0  0  0  0  0
  197.0039  179.3056  150.5392 C   0  0  0  0  0  0  0  0  0  0  0  0
  197.9103  178.5345  151.3055 C   0  0  0  0  0  0  0  0  0  0  0  0
  198.9085  177.7680  150.6554 C   0  0  0  0  0  0  0  0  0  0  0  0
  198.9630  177.6954  149.2433 C   0  0  0  0  0  0  0  0  0  0  0  0
  198.0074  178.4034  148.4799 C   0  0  0  0  0  0  0  0  0  0  0  0
  197.0422  179.2171  149.1221 C   0  0  0  0  0  0  0  0  0  0  0  0
  198.9466  178.5430  157.0816 H   0  0  0  0  0  0  0  0  0  0  0  0
  201.1539  178.1406  157.2238 H   0  0  0  0  0  0  0  0  0  0  0  0
  202.0333  176.0074  157.3244 H   0  0  0  0  0  0  0  0  0  0  0  0
  202.3064  173.7714  156.3875 H   0  0  0  0  0  0  0  0  0  0  0  0
  200.5134  175.0546  152.6594 H   0  0  0  0  0  0  0  0  0  0  0  0
  200.1926  177.2664  153.5518 H   0  0  0  0  0  0  0  0  0  0  0  0
  201.3552  172.0960  154.5523 H   0  0  0  0  0  0  0  0  0  0  0  0
  201.0010  172.7271  152.9647 H   0  0  0  0  0  0  0  0  0  0  0  0
  203.2800  174.3011  152.1139 H   0  0  0  0  0  0  0  0  0  0  0  0
  202.7644  172.8043  151.3210 H   0  0  0  0  0  0  0  0  0  0  0  0
  204.4394  172.9995  151.8426 H   0  0  0  0  0  0  0  0  0  0  0  0
  204.1047  174.0819  154.6119 H   0  0  0  0  0  0  0  0  0  0  0  0
  205.1007  172.7247  154.1562 H   0  0  0  0  0  0  0  0  0  0  0  0
  203.8564  172.4990  155.3867 H   0  0  0  0  0  0  0  0  0  0  0  0
  202.8877  178.9568  155.6401 H   0  0  0  0  0  0  0  0  0  0  0  0
  201.6920  180.2305  155.9824 H   0  0  0  0  0  0  0  0  0  0  0  0
  201.7106  179.3665  154.4560 H   0  0  0  0  0  0  0  0  0  0  0  0
  197.2265  179.5342  156.3122 H   0  0  0  0  0  0  0  0  0  0  0  0
  196.1315  179.4621  153.9687 H   0  0  0  0  0  0  0  0  0  0  0  0
  196.0828  180.9537  154.8843 H   0  0  0  0  0  0  0  0  0  0  0  0
  198.2726  180.4102  152.6482 H   0  0  0  0  0  0  0  0  0  0  0  0
  199.5250  181.8625  155.0762 H   0  0  0  0  0  0  0  0  0  0  0  0
  200.2382  184.2479  155.2708 H   0  0  0  0  0  0  0  0  0  0  0  0
  199.1983  185.9846  153.8043 H   0  0  0  0  0  0  0  0  0  0  0  0
  197.4661  185.3380  152.0907 H   0  0  0  0  0  0  0  0  0  0  0  0
  195.3419  179.5733  151.8436 H   0  0  0  0  0  0  0  0  0  0  0  0
  195.3207  180.6337  150.4716 H   0  0  0  0  0  0  0  0  0  0  0  0
  197.8705  178.6102  152.3874 H   0  0  0  0  0  0  0  0  0  0  0  0
  199.6545  177.2496  151.2492 H   0  0  0  0  0  0  0  0  0  0  0  0
  199.7193  177.0893  148.7569 H   0  0  0  0  0  0  0  0  0  0  0  0
  198.0166  178.3256  147.4034 H   0  0  0  0  0  0  0  0  0  0  0  0
  196.3212  179.7631  148.5289 H   0  0  0  0  0  0  0  0  0  0  0  0
  203.1619  171.6197  153.3640 H   0  0  0  0  0  0  0  0  0  0  0  0
  1  2  2  0
  2  3  1  0
  2 16  1  0
  3  4  1  0
  3 35  1  0
  4  5  1  0
  4 15  1  0
  4 36  1  1
  5  6  1  0
  5 10  2  0
  6  7  2  0
  6 37  1  0
  7  8  1  0
  7 38  1  0
  8  9  2  0
  8 11  1  0
  9 10  1  0
  9 39  1  0
 10 40  1  0
 11 12  1  0
 11 41  1  1
 11 42  1  0
 12 13  1  0
 12 14  1  0
 12 67  1  6
 13 43  1  1
 13 44  1  0
 13 45  1  0
 14 46  1  1
 14 47  1  0
 14 48  1  0
 15 49  1  6
 15 50  1  0
 15 51  1  0
 16 17  1  0
 16 52  1  0
 17 18  1  0
 17 53  1  6
 17 54  1  0
 18 19  1  0
 18 23  1  0
 18 55  1  6
 19 20  1  0
 19 28  1  0
 20 21  2  0
 20 22  1  0
 22 23  1  0
 22 27  2  0
 23 24  2  0
 24 25  1  0
 24 56  1  0
 25 26  2  0
 25 57  1  0
 26 27  1  0
 26 58  1  0
 27 59  1  0
 28 29  1  0
 28 60  1  1
 28 61  1  0
 29 30  2  0
 29 34  1  0
 30 31  1  0
 30 62  1  0
 31 32  2  0
 31 63  1  0
 32 33  1  0
 32 64  1  0
 33 34  2  0
 33 65  1  0
 34 66  1  0
M  CHG  1  12   1
M  END
>  <s_epik_cmdline>  (1286) 
J2VwaWtfcHl0aG9uJywgJy1waCcsICc3LjAwMDAwMCcsICctcGh0JywgJzIuMDAwMDAwJywgJy1tcycsICcxNicsICctdG4nLCAnOCcsICctbWEnLCAnMjAwJywgJy1pbWFlJywgJzxpbmZpbGUubWFlPicsICctb21hZScsICc8b3V0ZmlsZS5tYWU+Jw==

>  <s_epik_input>  (1286) 
W0NIM11OKFtDSDNdKVtDSDJdYyhbY0hdW2NIXTEpW2NIXVtjSF1jMVtDQEBIXShbQ0gzXSlbTkhdQyg9TylbTkhdW0NIMl1bQ0BIXShjKGMyMylbY0hdW2NIXVtjSF1bY0hdMylOKEMyPU8pW0NIMl1jNFtjSF1bY0hdW2NIXVtjSF1bY0hdNA==

>  <s_i_glide_gridfile>  (1286) 
ATP-Grid

>  <s_lp_Force_Field>  (1286) 
OPLS_2005

>  <s_lp_Variant>  (1286) 
m_2708bba____23824234____12219706-3

>  <s_lp_label>  (1286) 
1140_sdstereoexpander_3_neutralizer_1_epik_1_stereoizer_1

>  <s_m_source_file>  (1286) 
ATP-VSW-LIGPREP-001-in.maegz

>  <s_sd_BIOSOLVEIT.INFINISEE\_QUERY\_NAME>  (1286) 
Ref-Lig

>  <s_sd_BIOSOLVEIT.INFINISEE\_QUERY\_SMILES>  (1286) 
S(c1nc2c(cc1C[NH2+]Cc3ccc(cc3)C[NH+](C)C)cccc2)Cc4ccccc4

>  <s_sd_BIOSOLVEIT.INFINISEE\_REACTION\_NAME>  (1286) 
m_2708bba

>  <s_sd_BIOSOLVEIT.INFINISEE\_REAGENT1\_SMILES>  (1286) 
[R1*]C(=O)NC(c1ccc(cc1)CN(C)C)C

>  <s_sd_BIOSOLVEIT.INFINISEE\_REAGENT2\_SMILES>  (1286) 
[R1*]NCC1N(C(=O)c2c1cccc2)Cc3ccccc3

>  <s_sd_BIOSOLVEIT.INFINISEE\_SPACE>  (1286) 
REALSpace_44bn_2023-08

>  <s_vsw_compound_code>  (1286) 
36449

>  <s_vsw_variant>  (1286) 
36449-3

>  <r_epik_Charging_Adjusted_Penalty>  (1286) 
0.087342052818012703

>  <r_epik_Ionization_Penalty>  (1286) 
0.043700000000000003

>  <r_epik_Ionization_Penalty_Charging>  (1286) 
0.043700000000000003

>  <r_epik_Ionization_Penalty_Neutral>  (1286) 
0

>  <r_epik_State_Penalty>  (1286) 
0.043700000000000003

>  <r_i_docking_score>  (1286) 
-6.1468355439536104

>  <r_i_glide_ecoul>  (1286) 
-15.1493368148804

>  <r_i_glide_eff_state_penalty>  (1286) 
0.043700000000000003

>  <r_i_glide_einternal>  (1286) 
5.4465193748474103

>  <r_i_glide_emodel>  (1286) 
-72.2598374868886

>  <r_i_glide_energy>  (1286) 
-49.739348411560101

>  <r_i_glide_erotb>  (1286) 
0.86421519144854497

>  <r_i_glide_esite>  (1286) 
-0.35981224675451501

>  <r_i_glide_evdw>  (1286) 
-34.590011596679702

>  <r_i_glide_gscore>  (1286) 
-6.1905355439536098

>  <r_i_glide_hbond>  (1286) 
-0.454116721215931

>  <r_i_glide_ligand_efficiency>  (1286) 
-0.180789280704518

>  <r_i_glide_ligand_efficiency_ln>  (1286) 
-1.35800838455635

>  <r_i_glide_ligand_efficiency_sa>  (1286) 
-0.58568708662637603

>  <r_i_glide_lipo>  (1286) 
-1.60655979409593

>  <r_i_glide_metal>  (1286) 
-0

>  <r_i_glide_rewards>  (1286) 
-0.63236087126974105

>  <r_lp_Energy>  (1286) 
37.944409

>  <r_qp_ACxDN^.5/SA>  (1286) 
0.0121034

>  <r_qp_CIQPlogS>  (1286) 
-5.1470000000000002

>  <r_qp_EA(eV)>  (1286) 
0.374

>  <r_qp_FISA>  (1286) 
51.942999999999998

>  <r_qp_FOSA>  (1286) 
331.52100000000002

>  <r_qp_IP(eV)>  (1286) 
9.0020000000000007

>  <r_qp_Jm>  (1286) 
0.0080622003873797397

>  <r_qp_PISA>  (1286) 
434.44799999999998

>  <r_qp_PSA>  (1286) 
77.611000000000004

>  <r_qp_PercentHumanOralAbsorption>  (1286) 
100

>  <r_qp_QPPCaco>  (1286) 
628.43299999999999

>  <r_qp_QPPMDCK>  (1286) 
426.96100000000001

>  <r_qp_QPlogBB>  (1286) 
-0.084000000000000005

>  <r_qp_QPlogHERG>  (1286) 
-6.4530000000000003

>  <r_qp_QPlogKhsa>  (1286) 
0.67100000000000004

>  <r_qp_QPlogKp>  (1286) 
-2.2410000000000001

>  <r_qp_QPlogPC16>  (1286) 
16.384

>  <r_qp_QPlogPo/w>  (1286) 
4.7779999999999996

>  <r_qp_QPlogPoct>  (1286) 
25.206

>  <r_qp_QPlogPw>  (1286) 
14.003

>  <r_qp_QPlogS>  (1286) 
-5.5119999999999996

>  <r_qp_QPpolrz>  (1286) 
53.942999999999998

>  <r_qp_SASA>  (1286) 
817.91099999999994

>  <r_qp_SAamideO>  (1286) 
12.81

>  <r_qp_SAfluorine>  (1286) 
0

>  <r_qp_WPSA>  (1286) 
0

>  <r_qp_accptHB>  (1286) 
7

>  <r_qp_dip^2/V>  (1286) 
0.052316300000000003

>  <r_qp_dipole>  (1286) 
8.9359999999999999

>  <r_qp_donorHB>  (1286) 
2

>  <r_qp_glob>  (1286) 
0.78384430000000005

>  <r_qp_mol_MW>  (1286) 
456.58600000000001

>  <r_qp_volume>  (1286) 
1526.3579999999999

>  <r_sd_BIOSOLVEIT.INFINISEE\_FTREES\_SIMILARITY>  (1286) 
0.91200000000000003

>  <r_sd_BIOSOLVEIT.LOGP>  (1286) 
3.0886

>  <r_sd_BIOSOLVEIT.MOLECULAR\_WEIGHT>  (1286) 
457.59500000000003

>  <r_sd_BIOSOLVEIT.TPSA>  (1286) 
65.879999999999995

>  <i_epik_Tot_Q>  (1286) 
1

>  <i_epik_Tot_abs_Q>  (1286) 
1

>  <i_f3d_flags>  (1286) 
0

>  <i_i_glide_confnum>  (1286) 
3

>  <i_i_glide_lignum>  (1286) 
277

>  <i_i_glide_posenum>  (1286) 
2

>  <i_i_glide_rotatable_bonds>  (1286) 
10

>  <i_lp_mmshare_version>  (1286) 
65135

>  <i_m_ct_format>  (1286) 
2

>  <i_m_source_file_index>  (1286) 
1140

>  <i_qp_#NandO>  (1286) 
6

>  <i_qp_#acid>  (1286) 
0

>  <i_qp_#amide>  (1286) 
1

>  <i_qp_#amidine>  (1286) 
0

>  <i_qp_#amine>  (1286) 
1

>  <i_qp_#in34>  (1286) 
0

>  <i_qp_#in56>  (1286) 
21

>  <i_qp_#metab>  (1286) 
5

>  <i_qp_#nonHatm>  (1286) 
34

>  <i_qp_#noncon>  (1286) 
1

>  <i_qp_#ringatoms>  (1286) 
21

>  <i_qp_#rotor>  (1286) 
8

>  <i_qp_#rtvFG>  (1286) 
0

>  <i_qp_#stars>  (1286) 
0

>  <i_qp_CNS>  (1286) 
1

>  <i_qp_HumanOralAbsorption>  (1286) 
3

>  <i_qp_RuleOfFive>  (1286) 
0

>  <i_qp_RuleOfThree>  (1286) 
0

>  <i_sd_BIOSOLVEIT.INFINISEE\_REAGENT1\_NAME>  (1286) 
23824234

>  <i_sd_BIOSOLVEIT.INFINISEE\_REAGENT2\_NAME>  (1286) 
12219706

>  <i_sd_BIOSOLVEIT.INFINISEE\_RESULT\_RANK>  (1286) 
36046

>  <i_sd_version>  (1286) 
0

>  <b_lp_Chiralities_Consistent>  (1286) 
1

>  <b_sd_chiral_flag>  (1286) 
0

>  <canonical_id>  (1286) 
ATP-HTVS-CB3D9B3FDDC1

>  <compound_code>  (1286) 
36449

>  <title>  (1286) 
m_2708bba____23824234____12219706

>  <variant>  (1286) 
36449-3

>  <source_file>  (1286) 
运行/运行/ATP-VSW/ATP-VSW-DOCK_HTVS_1-001_lib/ATP-VSW-DOCK_HTVS_1-001_lib

>  <canonical_smiles>  (1286) 
C[C@@H](NC(=O)NC[C@@H]1c2ccccc2C(=O)N1Cc1ccccc1)c1ccc(C[NH+](C)C)cc1

>  <scaffold>  (1286) 
O=C(NCc1ccccc1)NCC1c2ccccc2C(=O)N1Cc1ccccc1

>  <molecular_formula>  (1286) 
C28H33N4O2+

$$$$
ATP-HTVS-CB3E61D945F3
     RDKit          3D

 64 67  0  0  0  0  0  0  0  0999 V2000
  197.2108  184.2109  153.8345 Cl  0  0  0  0  0  0  0  0  0  0  0  0
  197.2463  183.9382  155.5433 C   0  0  0  0  0  0  0  0  0  0  0  0
  196.9288  182.6808  156.1169 C   0  0  0  0  0  0  0  0  0  0  0  0
  196.9574  182.5331  157.5225 C   0  0  0  0  0  0  0  0  0  0  0  0
  197.3214  183.6112  158.3481 C   0  0  0  0  0  0  0  0  0  0  0  0
  197.3545  183.4409  159.7296 N   0  0  0  0  0  0  0  0  0  0  0  0
  197.6501  184.8540  157.7728 C   0  0  0  0  0  0  0  0  0  0  0  0
  197.6052  185.0141  156.3755 C   0  0  0  0  0  0  0  0  0  0  0  0
  196.5236  181.5002  155.2511 C   0  0  1  0  0  0  0  0  0  0  0  0
  197.0294  180.2188  155.7251 N   0  0  0  0  0  0  0  0  0  0  0  0
  198.0037  179.4874  155.0708 C   0  0  0  0  0  0  0  0  0  0  0  0
  198.2953  179.7777  153.7945 N   0  0  0  0  0  0  0  0  0  0  0  0
  199.2179  179.0595  153.1288 C   0  0  0  0  0  0  0  0  0  0  0  0
  199.4559  179.3902  151.7763 N   0  0  0  0  0  0  0  0  0  0  0  0
  198.3039  179.8484  150.9965 C   0  0  1  0  0  0  0  0  0  0  0  0
  198.3708  179.4613  149.5322 C   0  0  0  0  0  0  0  0  0  0  0  0
  198.8552  180.3753  148.5765 C   0  0  0  0  0  0  0  0  0  0  0  0
  198.9011  180.0121  147.2186 C   0  0  0  0  0  0  0  0  0  0  0  0
  198.4862  178.7284  146.8057 C   0  0  0  0  0  0  0  0  0  0  0  0
  197.9899  177.8212  147.7636 C   0  0  0  0  0  0  0  0  0  0  0  0
  197.9355  178.1831  149.1231 C   0  0  0  0  0  0  0  0  0  0  0  0
  198.6113  178.3046  145.3467 C   0  0  1  0  0  0  0  0  0  0  0  0
  199.9899  177.8936  144.9612 N   0  0  2  0  0  0  0  0  0  0  0  0
  200.5885  176.8518  145.8330 C   0  0  2  0  0  0  0  0  0  0  0  0
  200.9112  179.0319  144.7356 C   0  0  2  0  0  0  0  0  0  0  0  0
  200.6947  180.1353  151.5957 C   0  0  2  0  0  0  0  0  0  0  0  0
  199.9208  178.0258  153.7829 C   0  0  0  0  0  0  0  0  0  0  0  0
  199.5705  177.7743  155.1331 C   0  0  0  0  0  0  0  0  0  0  0  0
  198.6104  178.4998  155.7332 N   0  0  0  0  0  0  0  0  0  0  0  0
  200.2005  176.7433  155.8432 C   0  0  0  0  0  0  0  0  0  0  0  0
  201.1795  175.9490  155.2166 C   0  0  0  0  0  0  0  0  0  0  0  0
  201.5195  176.1856  153.8695 C   0  0  0  0  0  0  0  0  0  0  0  0
  200.8876  177.2159  153.1478 C   0  0  0  0  0  0  0  0  0  0  0  0
  196.6955  181.5905  157.9857 H   0  0  0  0  0  0  0  0  0  0  0  0
  197.5596  184.2062  160.3530 H   0  0  0  0  0  0  0  0  0  0  0  0
  197.1251  182.5466  160.1516 H   0  0  0  0  0  0  0  0  0  0  0  0
  197.9377  185.6868  158.3951 H   0  0  0  0  0  0  0  0  0  0  0  0
  197.8506  185.9675  155.9321 H   0  0  0  0  0  0  0  0  0  0  0  0
  195.4407  181.4476  155.2239 H   0  0  0  0  0  0  0  0  0  0  0  0
  196.8161  181.6787  154.2183 H   0  0  0  0  0  0  0  0  0  0  0  0
  196.6904  179.8675  156.6245 H   0  0  0  0  0  0  0  0  0  0  0  0
  197.3725  179.4341  151.3778 H   0  0  0  0  0  0  0  0  0  0  0  0
  198.2040  180.9336  151.0806 H   0  0  0  0  0  0  0  0  0  0  0  0
  199.2032  181.3534  148.8793 H   0  0  0  0  0  0  0  0  0  0  0  0
  199.2825  180.7249  146.5055 H   0  0  0  0  0  0  0  0  0  0  0  0
  197.6758  176.8345  147.4611 H   0  0  0  0  0  0  0  0  0  0  0  0
  197.5648  177.4697  149.8460 H   0  0  0  0  0  0  0  0  0  0  0  0
  197.9389  177.4669  145.1465 H   0  0  0  0  0  0  0  0  0  0  0  0
  198.2648  179.1108  144.6959 H   0  0  0  0  0  0  0  0  0  0  0  0
  200.7214  177.2023  146.8582 H   0  0  0  0  0  0  0  0  0  0  0  0
  201.5701  176.5508  145.4671 H   0  0  0  0  0  0  0  0  0  0  0  0
  199.9674  175.9609  145.8632 H   0  0  0  0  0  0  0  0  0  0  0  0
  201.1180  179.5718  145.6594 H   0  0  0  0  0  0  0  0  0  0  0  0
  200.4879  179.7299  144.0137 H   0  0  0  0  0  0  0  0  0  0  0  0
  201.8744  178.6934  144.3561 H   0  0  0  0  0  0  0  0  0  0  0  0
  201.5301  179.7061  152.1455 H   0  0  0  0  0  0  0  0  0  0  0  0
  200.5799  181.1628  151.9369 H   0  0  0  0  0  0  0  0  0  0  0  0
  200.9867  180.1663  150.5470 H   0  0  0  0  0  0  0  0  0  0  0  0
  199.9190  176.5562  156.8705 H   0  0  0  0  0  0  0  0  0  0  0  0
  201.6694  175.1620  155.7681 H   0  0  0  0  0  0  0  0  0  0  0  0
  202.2712  175.5759  153.3924 H   0  0  0  0  0  0  0  0  0  0  0  0
  201.1376  177.3771  152.1072 H   0  0  0  0  0  0  0  0  0  0  0  0
  198.3052  178.2462  156.6943 H   0  0  0  0  0  0  0  0  0  0  0  0
  199.8382  177.4514  144.0368 H   0  0  0  0  0  0  0  0  0  0  0  0
  1  2  1  0
  2  3  2  0
  2  8  1  0
  3  4  1  0
  3  9  1  0
  4  5  2  0
  4 34  1  0
  5  6  1  0
  5  7  1  0
  6 35  1  0
  6 36  1  0
  7  8  2  0
  7 37  1  0
  8 38  1  0
  9 10  1  0
  9 39  1  6
  9 40  1  0
 10 11  1  0
 10 41  1  0
 11 12  1  0
 11 29  2  0
 12 13  2  0
 13 14  1  0
 13 27  1  0
 14 15  1  0
 14 26  1  0
 15 16  1  0
 15 42  1  1
 15 43  1  0
 16 17  1  0
 16 21  2  0
 17 18  2  0
 17 44  1  0
 18 19  1  0
 18 45  1  0
 19 20  2  0
 19 22  1  0
 20 21  1  0
 20 46  1  0
 21 47  1  0
 22 23  1  0
 22 48  1  1
 22 49  1  0
 23 24  1  0
 23 25  1  0
 23 64  1  6
 24 50  1  1
 24 51  1  0
 24 52  1  0
 25 53  1  1
 25 54  1  0
 25 55  1  0
 26 56  1  1
 26 57  1  0
 26 58  1  0
 27 28  1  0
 27 33  2  0
 28 29  1  0
 28 30  2  0
 29 63  1  0
 30 31  1  0
 30 59  1  0
 31 32  2  0
 31 60  1  0
 32 33  1  0
 32 61  1  0
 33 62  1  0
M  CHG  2  23   1  29   1
M  END
>  <s_epik_cmdline>  (1287) 
J2VwaWtfcHl0aG9uJywgJy1waCcsICc3LjAwMDAwMCcsICctcGh0JywgJzIuMDAwMDAwJywgJy1tcycsICcxNicsICctdG4nLCAnOCcsICctbWEnLCAnMjAwJywgJy1pbWFlJywgJzxpbmZpbGUubWFlPicsICctb21hZScsICc8b3V0ZmlsZS5tYWU+Jw==

>  <s_epik_input>  (1287) 
W2NIXTFbY0hdYyhbTkgyXSlbY0hdYyhjMUNsKVtDSDJdW05IXWMobmMoYzIzKVtjSF1bY0hdW2NIXVtjSF0zKW5jMk4oW0NIM10pW0NIMl1jNFtjSF1bY0hdYyhbY0hdW2NIXTQpW0NIMl1OKFtDSDNdKVtDSDNd

>  <s_i_glide_gridfile>  (1287) 
ATP-Grid

>  <s_lp_Force_Field>  (1287) 
OPLS_2005

>  <s_lp_Variant>  (1287) 
m_282030aaa____21933634____22360182____21940840-1

>  <s_lp_label>  (1287) 
1819_sdstereoexpander_1_neutralizer_1_epik_1_stereoizer_1

>  <s_m_source_file>  (1287) 
ATP-VSW-LIGPREP-001-in.maegz

>  <s_sd_BIOSOLVEIT.INFINISEE\_QUERY\_NAME>  (1287) 
Ref-Lig

>  <s_sd_BIOSOLVEIT.INFINISEE\_QUERY\_SMILES>  (1287) 
S(c1nc2c(cc1C[NH2+]Cc3ccc(cc3)C[NH+](C)C)cccc2)Cc4ccccc4

>  <s_sd_BIOSOLVEIT.INFINISEE\_REACTION\_NAME>  (1287) 
m_282030aaa

>  <s_sd_BIOSOLVEIT.INFINISEE\_REAGENT1\_SMILES>  (1287) 
[R1*]N(Cc1ccc(cc1)CN(C)C)C

>  <s_sd_BIOSOLVEIT.INFINISEE\_REAGENT2\_SMILES>  (1287) 
[R2*]c1nc([R1*])c2c(n1)cccc2

>  <s_sd_BIOSOLVEIT.INFINISEE\_REAGENT3\_SMILES>  (1287) 
[R2*]NCc1c(Cl)ccc(N)c1

>  <s_sd_BIOSOLVEIT.INFINISEE\_SPACE>  (1287) 
REALSpace_44bn_2023-08

>  <s_vsw_compound_code>  (1287) 
58177

>  <s_vsw_variant>  (1287) 
58177-1

>  <r_epik_Charging_Adjusted_Penalty>  (1287) 
0.088126212723625905

>  <r_epik_Ionization_Penalty>  (1287) 
0.045199999999999997

>  <r_epik_Ionization_Penalty_Charging>  (1287) 
0.044299999999999999

>  <r_epik_Ionization_Penalty_Neutral>  (1287) 
0.00089999999999999998

>  <r_epik_State_Penalty>  (1287) 
0.043799999999999999

>  <r_i_docking_score>  (1287) 
-5.1197704575501701

>  <r_i_glide_ecoul>  (1287) 
-14.144392013549799

>  <r_i_glide_eff_state_penalty>  (1287) 
0.043799999999999999

>  <r_i_glide_einternal>  (1287) 
4.9448494911193803

>  <r_i_glide_emodel>  (1287) 
-65.689071032938003

>  <r_i_glide_energy>  (1287) 
-42.239517211914098

>  <r_i_glide_erotb>  (1287) 
0.657877856987375

>  <r_i_glide_esite>  (1287) 
-0.36490199627494702

>  <r_i_glide_evdw>  (1287) 
-28.0951251983643

>  <r_i_glide_gscore>  (1287) 
-5.1635704575501702

>  <r_i_glide_hbond>  (1287) 
-0.88851889146182705

>  <r_i_glide_ligand_efficiency>  (1287) 
-0.155144559319702

>  <r_i_glide_ligand_efficiency_ln>  (1287) 
-1.1386104410064499

>  <r_i_glide_ligand_efficiency_sa>  (1287) 
-0.497631499550028

>  <r_i_glide_lipo>  (1287) 
-0.56321587823324604

>  <r_i_glide_metal>  (1287) 
-0

>  <r_i_glide_rewards>  (1287) 
-0.47839648661684098

>  <r_lp_Energy>  (1287) 
22.766164

>  <r_qp_ACxDN^.5/SA>  (1287) 
0.0128819

>  <r_qp_CIQPlogS>  (1287) 
-6.3410000000000002

>  <r_qp_EA(eV)>  (1287) 
0.747

>  <r_qp_FISA>  (1287) 
87.096000000000004

>  <r_qp_FOSA>  (1287) 
271.25200000000001

>  <r_qp_IP(eV)>  (1287) 
8.0999999999999996

>  <r_qp_Jm>  (1287) 
0.0074278479849389598

>  <r_qp_PISA>  (1287) 
356.35199999999998

>  <r_qp_PSA>  (1287) 
66.908000000000001

>  <r_qp_PercentHumanOralAbsorption>  (1287) 
100

>  <r_qp_QPPCaco>  (1287) 
368.86599999999999

>  <r_qp_QPPMDCK>  (1287) 
245.00999999999999

>  <r_qp_QPlogBB>  (1287) 
-0.36899999999999999

>  <r_qp_QPlogHERG>  (1287) 
-6.6989999999999998

>  <r_qp_QPlogKhsa>  (1287) 
0.85699999999999998

>  <r_qp_QPlogKp>  (1287) 
-3.0680000000000001

>  <r_qp_QPlogPC16>  (1287) 
15.217000000000001

>  <r_qp_QPlogPo/w>  (1287) 
4.8449999999999998

>  <r_qp_QPlogPoct>  (1287) 
23.285

>  <r_qp_QPlogPw>  (1287) 
12.102

>  <r_qp_QPlogS>  (1287) 
-4.7249999999999996

>  <r_qp_QPpolrz>  (1287) 
48.398000000000003

>  <r_qp_SASA>  (1287) 
736.44399999999996

>  <r_qp_SAamideO>  (1287) 
0

>  <r_qp_SAfluorine>  (1287) 
0

>  <r_qp_WPSA>  (1287) 
21.745000000000001

>  <r_qp_accptHB>  (1287) 
6

>  <r_qp_dip^2/V>  (1287) 
0.018091400000000001

>  <r_qp_dipole>  (1287) 
5.0730000000000004

>  <r_qp_donorHB>  (1287) 
2.5

>  <r_qp_glob>  (1287) 
0.83059499999999997

>  <r_qp_mol_MW>  (1287) 
461.00799999999998

>  <r_qp_volume>  (1287) 
1422.479

>  <r_sd_BIOSOLVEIT.INFINISEE\_FTREES\_SIMILARITY>  (1287) 
0.90400000000000003

>  <r_sd_BIOSOLVEIT.LOGP>  (1287) 
3.7584

>  <r_sd_BIOSOLVEIT.MOLECULAR\_WEIGHT>  (1287) 
462.01799999999997

>  <r_sd_BIOSOLVEIT.TPSA>  (1287) 
71.510000000000005

>  <i_epik_Tot_Q>  (1287) 
2

>  <i_epik_Tot_abs_Q>  (1287) 
2

>  <i_f3d_flags>  (1287) 
0

>  <i_i_glide_confnum>  (1287) 
4

>  <i_i_glide_lignum>  (1287) 
530

>  <i_i_glide_posenum>  (1287) 
5

>  <i_i_glide_rotatable_bonds>  (1287) 
8

>  <i_lp_mmshare_version>  (1287) 
65135

>  <i_m_ct_format>  (1287) 
2

>  <i_m_source_file_index>  (1287) 
1819

>  <i_qp_#NandO>  (1287) 
6

>  <i_qp_#acid>  (1287) 
0

>  <i_qp_#amide>  (1287) 
0

>  <i_qp_#amidine>  (1287) 
0

>  <i_qp_#amine>  (1287) 
1

>  <i_qp_#in34>  (1287) 
0

>  <i_qp_#in56>  (1287) 
22

>  <i_qp_#metab>  (1287) 
5

>  <i_qp_#nonHatm>  (1287) 
33

>  <i_qp_#noncon>  (1287) 
0

>  <i_qp_#ringatoms>  (1287) 
22

>  <i_qp_#rotor>  (1287) 
9

>  <i_qp_#rtvFG>  (1287) 
0

>  <i_qp_#stars>  (1287) 
0

>  <i_qp_CNS>  (1287) 
0

>  <i_qp_HumanOralAbsorption>  (1287) 
3

>  <i_qp_RuleOfFive>  (1287) 
0

>  <i_qp_RuleOfThree>  (1287) 
0

>  <i_sd_BIOSOLVEIT.INFINISEE\_REAGENT1\_NAME>  (1287) 
21933634

>  <i_sd_BIOSOLVEIT.INFINISEE\_REAGENT2\_NAME>  (1287) 
22360182

>  <i_sd_BIOSOLVEIT.INFINISEE\_REAGENT3\_NAME>  (1287) 
21940840

>  <i_sd_BIOSOLVEIT.INFINISEE\_RESULT\_RANK>  (1287) 
79031

>  <i_sd_version>  (1287) 
0

>  <b_lp_Chiralities_Consistent>  (1287) 
1

>  <b_sd_chiral_flag>  (1287) 
0

>  <canonical_id>  (1287) 
ATP-HTVS-CB3E61D945F3

>  <compound_code>  (1287) 
58177

>  <title>  (1287) 
m_282030aaa____21933634____22360182____21940840

>  <variant>  (1287) 
58177-1

>  <source_file>  (1287) 
运行/运行/ATP-VSW/ATP-VSW-DOCK_HTVS_1-001_lib/ATP-VSW-DOCK_HTVS_1-001_lib

>  <canonical_smiles>  (1287) 
CN(Cc1ccc(C[NH+](C)C)cc1)c1nc(NCc2cc(N)ccc2Cl)[nH+]c2ccccc12

>  <scaffold>  (1287) 
c1ccc(CNc2nc(NCc3ccccc3)c3ccccc3[nH+]2)cc1

>  <molecular_formula>  (1287) 
C26H31ClN6+2

$$$$
ATP-HTVS-CB568D2EE5B9
     RDKit          3D

 64 67  0  0  0  0  0  0  0  0999 V2000
  199.9205  186.7906  159.1356 O   0  0  0  0  0  0  0  0  0  0  0  0
  199.5684  185.6172  159.2144 C   0  0  0  0  0  0  0  0  0  0  0  0
  200.4768  184.6094  159.4012 N   0  0  0  0  0  0  0  0  0  0  0  0
  201.9304  184.9138  159.4494 C   0  0  1  0  0  0  0  0  0  0  0  0
  202.2425  185.8442  160.5549 C   0  0  0  0  0  0  0  0  0  0  0  0
  202.4905  186.5688  161.4304 N   0  0  0  0  0  0  0  0  0  0  0  0
  202.8726  183.7037  159.5010 C   0  0  0  0  0  0  0  0  0  0  0  0
  202.8128  182.7796  160.5628 C   0  0  0  0  0  0  0  0  0  0  0  0
  203.5847  181.6059  160.5271 C   0  0  0  0  0  0  0  0  0  0  0  0
  204.4878  181.3610  159.4613 C   0  0  0  0  0  0  0  0  0  0  0  0
  204.5972  182.3024  158.4278 C   0  0  0  0  0  0  0  0  0  0  0  0
  203.7832  183.4614  158.4460 C   0  0  0  0  0  0  0  0  0  0  0  0
  200.0924  183.1791  159.4219 C   0  0  2  0  0  0  0  0  0  0  0  0
  198.1030  185.3239  159.2555 C   0  0  0  0  0  0  0  0  0  0  0  0
  197.3148  186.2043  160.0014 N   0  0  0  0  0  0  0  0  0  0  0  0
  196.0065  185.7665  160.0752 C   0  0  0  0  0  0  0  0  0  0  0  0
  195.9633  184.5723  159.3150 C   0  0  0  0  0  0  0  0  0  0  0  0
  194.7475  183.8684  159.2040 C   0  0  0  0  0  0  0  0  0  0  0  0
  193.5894  184.3915  159.7873 C   0  0  0  0  0  0  0  0  0  0  0  0
  193.6401  185.5930  160.5419 C   0  0  0  0  0  0  0  0  0  0  0  0
  194.8593  186.2798  160.7074 C   0  0  0  0  0  0  0  0  0  0  0  0
  197.2587  184.3436  158.7679 C   0  0  0  0  0  0  0  0  0  0  0  0
  197.4823  183.2244  157.9543 N   0  0  0  0  0  0  0  0  0  0  0  0
  197.9558  183.4125  156.6022 C   0  0  1  0  0  0  0  0  0  0  0  0
  198.1624  182.0990  155.8699 C   0  0  0  0  0  0  0  0  0  0  0  0
  199.2113  181.2097  156.2144 C   0  0  0  0  0  0  0  0  0  0  0  0
  199.3950  180.0031  155.5142 C   0  0  0  0  0  0  0  0  0  0  0  0
  198.5225  179.6759  154.4586 C   0  0  0  0  0  0  0  0  0  0  0  0
  197.4675  180.5497  154.1232 C   0  0  0  0  0  0  0  0  0  0  0  0
  197.2843  181.7568  154.8264 C   0  0  0  0  0  0  0  0  0  0  0  0
  200.5432  179.0897  155.9133 C   0  0  1  0  0  0  0  0  0  0  0  0
  200.1397  178.1118  156.9538 N   0  0  1  0  0  0  0  0  0  0  0  0
  199.2886  177.0367  156.4102 C   0  0  2  0  0  0  0  0  0  0  0  0
  201.2948  177.5661  157.6995 C   0  0  2  0  0  0  0  0  0  0  0  0
  202.1656  185.4785  158.5330 H   0  0  0  0  0  0  0  0  0  0  0  0
  202.1773  182.9548  161.4106 H   0  0  0  0  0  0  0  0  0  0  0  0
  203.4656  180.8343  161.2965 H   0  0  0  0  0  0  0  0  0  0  0  0
  205.0740  180.4444  159.4316 H   0  0  0  0  0  0  0  0  0  0  0  0
  205.2706  182.1310  157.6093 H   0  0  0  0  0  0  0  0  0  0  0  0
  203.8365  184.1510  157.6038 H   0  0  0  0  0  0  0  0  0  0  0  0
  200.0761  182.9241  158.3485 H   0  0  0  0  0  0  0  0  0  0  0  0
  199.0993  183.0444  159.8822 H   0  0  0  0  0  0  0  0  0  0  0  0
  200.7593  182.4384  159.9702 H   0  0  0  0  0  0  0  0  0  0  0  0
  197.6844  187.0301  160.4472 H   0  0  0  0  0  0  0  0  0  0  0  0
  194.7039  182.9484  158.6441 H   0  0  0  0  0  0  0  0  0  0  0  0
  192.6659  183.8665  159.6614 H   0  0  0  0  0  0  0  0  0  0  0  0
  192.7490  185.9765  160.9840 H   0  0  0  0  0  0  0  0  0  0  0  0
  194.8959  187.2063  161.2682 H   0  0  0  0  0  0  0  0  0  0  0  0
  196.9877  182.3560  158.1523 H   0  0  0  0  0  0  0  0  0  0  0  0
  197.2034  184.0222  156.0930 H   0  0  0  0  0  0  0  0  0  0  0  0
  198.8799  183.9892  156.6092 H   0  0  0  0  0  0  0  0  0  0  0  0
  199.9175  181.4171  157.0087 H   0  0  0  0  0  0  0  0  0  0  0  0
  198.6562  178.7534  153.9144 H   0  0  0  0  0  0  0  0  0  0  0  0
  196.7918  180.2951  153.3219 H   0  0  0  0  0  0  0  0  0  0  0  0
  196.4717  182.4205  154.5654 H   0  0  0  0  0  0  0  0  0  0  0  0
  200.9362  178.5747  155.0349 H   0  0  0  0  0  0  0  0  0  0  0  0
  201.3620  179.7052  156.2904 H   0  0  0  0  0  0  0  0  0  0  0  0
  199.7896  176.4649  155.6296 H   0  0  0  0  0  0  0  0  0  0  0  0
  198.3719  177.4710  156.0138 H   0  0  0  0  0  0  0  0  0  0  0  0
  199.0113  176.3446  157.1982 H   0  0  0  0  0  0  0  0  0  0  0  0
  201.9426  176.9951  157.0315 H   0  0  0  0  0  0  0  0  0  0  0  0
  200.9568  176.9056  158.5000 H   0  0  0  0  0  0  0  0  0  0  0  0
  201.8860  178.3620  158.1537 H   0  0  0  0  0  0  0  0  0  0  0  0
  199.5507  178.5915  157.6237 H   0  0  0  0  0  0  0  0  0  0  0  0
  1  2  2  0
  2  3  1  0
  2 14  1  0
  3  4  1  0
  3 13  1  0
  4  5  1  0
  4  7  1  0
  4 35  1  6
  5  6  3  0
  7  8  2  0
  7 12  1  0
  8  9  1  0
  8 36  1  0
  9 10  2  0
  9 37  1  0
 10 11  1  0
 10 38  1  0
 11 12  2  0
 11 39  1  0
 12 40  1  0
 13 41  1  6
 13 42  1  0
 13 43  1  0
 14 15  1  0
 14 22  2  0
 15 16  1  0
 15 44  1  0
 16 17  1  0
 16 21  2  0
 17 18  2  0
 17 22  1  0
 18 19  1  0
 18 45  1  0
 19 20  2  0
 19 46  1  0
 20 21  1  0
 20 47  1  0
 21 48  1  0
 22 23  1  0
 23 24  1  0
 23 49  1  0
 24 25  1  0
 24 50  1  6
 24 51  1  0
 25 26  2  0
 25 30  1  0
 26 27  1  0
 26 52  1  0
 27 28  2  0
 27 31  1  0
 28 29  1  0
 28 53  1  0
 29 30  2  0
 29 54  1  0
 30 55  1  0
 31 32  1  0
 31 56  1  6
 31 57  1  0
 32 33  1  0
 32 34  1  0
 32 64  1  1
 33 58  1  6
 33 59  1  0
 33 60  1  0
 34 61  1  6
 34 62  1  0
 34 63  1  0
M  CHG  1  32   1
M  END
>  <s_epik_cmdline>  (1288) 
J2VwaWtfcHl0aG9uJywgJy1waCcsICc3LjAwMDAwMCcsICctcGh0JywgJzIuMDAwMDAwJywgJy1tcycsICcxNicsICctdG4nLCAnOCcsICctbWEnLCAnMjAwJywgJy1pbWFlJywgJzxpbmZpbGUubWFlPicsICctb21hZScsICc8b3V0ZmlsZS5tYWU+Jw==

>  <s_epik_input>  (1288) 
W2NIXTFbY0hdW2NIXVtjSF1bY0hdYzFbQ0BIXShDI04pTihbQ0gzXSlDKD1PKWMoW25IXTIpYyhjKGMyMylbY0hdW2NIXVtjSF1bY0hdMylbTkhdW0NIMl1jNFtjSF1jKFtjSF1bY0hdW2NIXTQpW0NIMl1OKFtDSDNdKVtDSDNd

>  <s_i_glide_gridfile>  (1288) 
ATP-Grid

>  <s_lp_Force_Field>  (1288) 
OPLS_2005

>  <s_lp_Variant>  (1288) 
rxn512b____EMOL24630243____EMOL719673____EMOL2873214-1

>  <s_lp_label>  (1288) 
2191_sdstereoexpander_1_neutralizer_1_epik_1_stereoizer_1

>  <s_m_source_file>  (1288) 
ATP-VSW-LIGPREP-003-in.maegz

>  <s_sd_BIOSOLVEIT.INFINISEE\_QUERY\_NAME>  (1288) 
Ref-Lig

>  <s_sd_BIOSOLVEIT.INFINISEE\_QUERY\_SMILES>  (1288) 
S(c1nc2c(cc1C[NH2+]Cc3ccc(cc3)C[NH+](C)C)cccc2)Cc4ccccc4

>  <s_sd_BIOSOLVEIT.INFINISEE\_REACTION\_NAME>  (1288) 
rxn512b

>  <s_sd_BIOSOLVEIT.INFINISEE\_REAGENT1\_NAME>  (1288) 
EMOL24630243

>  <s_sd_BIOSOLVEIT.INFINISEE\_REAGENT1\_SMILES>  (1288) 
N#CC(NC)c1ccccc1

>  <s_sd_BIOSOLVEIT.INFINISEE\_REAGENT2\_NAME>  (1288) 
EMOL719673

>  <s_sd_BIOSOLVEIT.INFINISEE\_REAGENT2\_SMILES>  (1288) 
BrC=1c2c(NC1C(=O)O)cccc2

>  <s_sd_BIOSOLVEIT.INFINISEE\_REAGENT3\_NAME>  (1288) 
EMOL2873214

>  <s_sd_BIOSOLVEIT.INFINISEE\_REAGENT3\_SMILES>  (1288) 
N(Cc1cc(ccc1)CN)(C)C

>  <s_sd_BIOSOLVEIT.INFINISEE\_SPACE>  (1288) 
eXplore_7tr_2022-12

>  <s_vsw_compound_code>  (1288) 
70083

>  <s_vsw_variant>  (1288) 
70083-1

>  <r_epik_Charging_Adjusted_Penalty>  (1288) 
0.086415559436416697

>  <r_epik_Ionization_Penalty>  (1288) 
0.043299999999999998

>  <r_epik_Ionization_Penalty_Charging>  (1288) 
0.043200000000000002

>  <r_epik_Ionization_Penalty_Neutral>  (1288) 
0.0001

>  <r_epik_State_Penalty>  (1288) 
0.043200000000000002

>  <r_i_docking_score>  (1288) 
-4.4439600883685202

>  <r_i_glide_ecoul>  (1288) 
-6.0082230567932102

>  <r_i_glide_eff_state_penalty>  (1288) 
0.043200000000000002

>  <r_i_glide_einternal>  (1288) 
7.4079384803771999

>  <r_i_glide_emodel>  (1288) 
-48.160084819361799

>  <r_i_glide_energy>  (1288) 
-37.000063419341998

>  <r_i_glide_erotb>  (1288) 
0.68578793105906799

>  <r_i_glide_esite>  (1288) 
-0.093460714488949603

>  <r_i_glide_evdw>  (1288) 
-30.9918403625488

>  <r_i_glide_gscore>  (1288) 
-4.4871600883685199

>  <r_i_glide_hbond>  (1288) 
-0.023529289175458001

>  <r_i_glide_ligand_efficiency>  (1288) 
-0.13070470848142701

>  <r_i_glide_ligand_efficiency_ln>  (1288) 
-0.98179543237894595

>  <r_i_glide_ligand_efficiency_sa>  (1288) 
-0.42343251558123901

>  <r_i_glide_lipo>  (1288) 
-1.8962599622356799

>  <r_i_glide_metal>  (1288) 
-0

>  <r_i_glide_rewards>  (1288) 
-0.70887257688107597

>  <r_lp_Energy>  (1288) 
31.974024

>  <r_qp_ACxDN^.5/SA>  (1288) 
0.0079693000000000003

>  <r_qp_CIQPlogS>  (1288) 
-5.9580000000000002

>  <r_qp_EA(eV)>  (1288) 
0.28100000000000003

>  <r_qp_FISA>  (1288) 
98.203999999999994

>  <r_qp_FOSA>  (1288) 
253.089

>  <r_qp_IP(eV)>  (1288) 
7.7569999999999997

>  <r_qp_Jm>  (1288) 
8.6930353617096996e-06

>  <r_qp_PISA>  (1288) 
464.33499999999998

>  <r_qp_PSA>  (1288) 
77.599000000000004

>  <r_qp_PercentHumanOralAbsorption>  (1288) 
87.986999999999995

>  <r_qp_QPPCaco>  (1288) 
72.182000000000002

>  <r_qp_QPPMDCK>  (1288) 
35.335000000000001

>  <r_qp_QPlogBB>  (1288) 
-0.27200000000000002

>  <r_qp_QPlogHERG>  (1288) 
-8.8379999999999992

>  <r_qp_QPlogKhsa>  (1288) 
0.997

>  <r_qp_QPlogKp>  (1288) 
-4.9550000000000001

>  <r_qp_QPlogPC16>  (1288) 
16.460999999999999

>  <r_qp_QPlogPo/w>  (1288) 
4.7439999999999998

>  <r_qp_QPlogPoct>  (1288) 
22.933

>  <r_qp_QPlogPw>  (1288) 
11.390000000000001

>  <r_qp_QPlogS>  (1288) 
-5.7610000000000001

>  <r_qp_QPpolrz>  (1288) 
52.317999999999998

>  <r_qp_SASA>  (1288) 
815.62800000000004

>  <r_qp_SAamideO>  (1288) 
0

>  <r_qp_SAfluorine>  (1288) 
0

>  <r_qp_WPSA>  (1288) 
0

>  <r_qp_accptHB>  (1288) 
6.5

>  <r_qp_dip^2/V>  (1288) 
0.040118500000000001

>  <r_qp_dipole>  (1288) 
7.7439999999999998

>  <r_qp_donorHB>  (1288) 
1

>  <r_qp_glob>  (1288) 
0.77511649999999999

>  <r_qp_mol_MW>  (1288) 
451.56999999999999

>  <r_qp_volume>  (1288) 
1494.654

>  <r_sd_BIOSOLVEIT.INFINISEE\_FTREES\_SIMILARITY>  (1288) 
0.93400000000000005

>  <r_sd_BIOSOLVEIT.LOGP>  (1288) 
3.7613799999999999

>  <r_sd_BIOSOLVEIT.MOLECULAR\_WEIGHT>  (1288) 
452.57900000000001

>  <r_sd_BIOSOLVEIT.TPSA>  (1288) 
76.359999999999999

>  <i_epik_Tot_Q>  (1288) 
1

>  <i_epik_Tot_abs_Q>  (1288) 
1

>  <i_f3d_flags>  (1288) 
0

>  <i_i_glide_confnum>  (1288) 
5

>  <i_i_glide_lignum>  (1288) 
838

>  <i_i_glide_posenum>  (1288) 
4

>  <i_i_glide_rotatable_bonds>  (1288) 
9

>  <i_lp_mmshare_version>  (1288) 
65135

>  <i_m_ct_format>  (1288) 
2

>  <i_m_source_file_index>  (1288) 
2191

>  <i_qp_#NandO>  (1288) 
6

>  <i_qp_#acid>  (1288) 
0

>  <i_qp_#amide>  (1288) 
0

>  <i_qp_#amidine>  (1288) 
0

>  <i_qp_#amine>  (1288) 
2

>  <i_qp_#in34>  (1288) 
0

>  <i_qp_#in56>  (1288) 
21

>  <i_qp_#metab>  (1288) 
7

>  <i_qp_#nonHatm>  (1288) 
34

>  <i_qp_#noncon>  (1288) 
0

>  <i_qp_#ringatoms>  (1288) 
21

>  <i_qp_#rotor>  (1288) 
9

>  <i_qp_#rtvFG>  (1288) 
0

>  <i_qp_#stars>  (1288) 
2

>  <i_qp_CNS>  (1288) 
1

>  <i_qp_HumanOralAbsorption>  (1288) 
3

>  <i_qp_RuleOfFive>  (1288) 
0

>  <i_qp_RuleOfThree>  (1288) 
2

>  <i_sd_BIOSOLVEIT.INFINISEE\_RESULT\_RANK>  (1288) 
2822

>  <i_sd_version>  (1288) 
0

>  <b_lp_Chiralities_Consistent>  (1288) 
1

>  <b_sd_chiral_flag>  (1288) 
0

>  <canonical_id>  (1288) 
ATP-HTVS-CB568D2EE5B9

>  <compound_code>  (1288) 
70083

>  <title>  (1288) 
rxn512b____EMOL24630243____EMOL719673____EMOL2873214

>  <variant>  (1288) 
70083-1

>  <source_file>  (1288) 
运行/运行/ATP-VSW/ATP-VSW-DOCK_HTVS_1-003_lib/ATP-VSW-DOCK_HTVS_1-003_lib.mae

>  <canonical_smiles>  (1288) 
CN(C(=O)c1[nH]c2ccccc2c1NCc1cccc(C[NH+](C)C)c1)[C@@H](C#N)c1ccccc1

>  <scaffold>  (1288) 
O=C(NCc1ccccc1)c1[nH]c2ccccc2c1NCc1ccccc1

>  <molecular_formula>  (1288) 
C28H30N5O+

$$$$
ATP-HTVS-CBC473663EF6
     RDKit          3D

 54 57  0  0  0  0  0  0  0  0999 V2000
  196.9563  187.0897  156.1408 O   0  0  0  0  0  0  0  0  0  0  0  0
  197.6498  186.1805  156.6007 C   0  0  0  0  0  0  0  0  0  0  0  0
  198.5527  186.4842  157.5631 N   0  0  0  0  0  0  0  0  0  0  0  0
  199.4212  185.7168  158.3945 C   0  0  0  0  0  0  0  0  0  0  0  0
  199.3451  184.3135  158.6434 C   0  0  0  0  0  0  0  0  0  0  0  0
  200.2325  183.7097  159.5571 C   0  0  0  0  0  0  0  0  0  0  0  0
  201.1776  184.4755  160.2593 C   0  0  0  0  0  0  0  0  0  0  0  0
  201.2423  185.8627  160.0439 C   0  0  0  0  0  0  0  0  0  0  0  0
  200.3692  186.4695  159.1153 C   0  0  0  0  0  0  0  0  0  0  0  0
  198.2828  183.4521  157.9844 C   0  0  2  0  0  0  0  0  0  0  0  0
  198.2346  183.6823  156.5471 N   0  0  0  0  0  0  0  0  0  0  0  0
  199.1568  183.0617  155.6602 C   0  0  0  0  0  0  0  0  0  0  0  0
  198.6918  182.4286  154.4730 C   0  0  0  0  0  0  0  0  0  0  0  0
  199.6320  181.8461  153.5870 C   0  0  0  0  0  0  0  0  0  0  0  0
  200.9907  181.7938  153.8944 C   0  0  0  0  0  0  0  0  0  0  0  0
  201.4650  182.3960  155.0857 C   0  0  0  0  0  0  0  0  0  0  0  0
  200.5536  183.0354  155.9486 C   0  0  0  0  0  0  0  0  0  0  0  0
  197.1971  182.3083  154.1159 C   0  0  2  0  0  0  0  0  0  0  0  0
  196.6682  180.9327  154.1344 N   0  0  0  0  0  0  0  0  0  0  0  0
  197.2519  180.0261  153.1725 C   0  0  2  0  0  0  0  0  0  0  0  0
  196.7531  180.3336  155.4617 C   0  0  2  0  0  0  0  0  0  0  0  0
  196.9343  183.0278  152.8497 C   0  0  0  0  0  0  0  0  0  0  0  0
  196.7479  183.6004  151.8564 N   0  0  0  0  0  0  0  0  0  0  0  0
  197.4010  184.7743  156.0405 C   0  0  1  0  0  0  0  0  0  0  0  0
  196.9220  183.6387  158.6874 C   0  0  0  0  0  0  0  0  0  0  0  0
  195.8366  182.8260  158.2594 C   0  0  0  0  0  0  0  0  0  0  0  0
  194.5264  183.0695  158.7608 C   0  0  0  0  0  0  0  0  0  0  0  0
  194.2991  184.1010  159.6884 C   0  0  0  0  0  0  0  0  0  0  0  0
  195.3805  184.8858  160.1407 C   0  0  0  0  0  0  0  0  0  0  0  0
  196.6743  184.6492  159.6585 C   0  0  0  0  0  0  0  0  0  0  0  0
  198.5724  187.4719  157.7634 H   0  0  0  0  0  0  0  0  0  0  0  0
  200.1732  182.6409  159.7569 H   0  0  0  0  0  0  0  0  0  0  0  0
  201.8278  184.0103  160.9929 H   0  0  0  0  0  0  0  0  0  0  0  0
  201.9335  186.4696  160.6054 H   0  0  0  0  0  0  0  0  0  0  0  0
  200.3948  187.5453  159.0018 H   0  0  0  0  0  0  0  0  0  0  0  0
  198.5683  182.4052  158.1155 H   0  0  0  0  0  0  0  0  0  0  0  0
  199.2621  181.3691  152.6830 H   0  0  0  0  0  0  0  0  0  0  0  0
  201.6811  181.2812  153.2420 H   0  0  0  0  0  0  0  0  0  0  0  0
  202.5203  182.3527  155.3222 H   0  0  0  0  0  0  0  0  0  0  0  0
  200.9661  183.5103  156.8304 H   0  0  0  0  0  0  0  0  0  0  0  0
  197.2116  180.4694  152.1819 H   0  0  0  0  0  0  0  0  0  0  0  0
  196.6533  179.1036  153.1556 H   0  0  0  0  0  0  0  0  0  0  0  0
  198.3018  179.8908  153.4288 H   0  0  0  0  0  0  0  0  0  0  0  0
  196.1736  180.9058  156.1308 H   0  0  0  0  0  0  0  0  0  0  0  0
  197.7898  180.2646  155.7916 H   0  0  0  0  0  0  0  0  0  0  0  0
  196.3434  179.3207  155.4584 H   0  0  0  0  0  0  0  0  0  0  0  0
  196.3660  184.5211  156.2724 H   0  0  0  0  0  0  0  0  0  0  0  0
  197.4621  184.8615  154.9547 H   0  0  0  0  0  0  0  0  0  0  0  0
  195.9742  182.0949  157.5316 H   0  0  0  0  0  0  0  0  0  0  0  0
  193.7170  182.4812  158.3594 H   0  0  0  0  0  0  0  0  0  0  0  0
  193.2840  184.2907  160.0481 H   0  0  0  0  0  0  0  0  0  0  0  0
  195.2144  185.7084  160.8340 H   0  0  0  0  0  0  0  0  0  0  0  0
  197.4697  185.3164  160.0036 H   0  0  0  0  0  0  0  0  0  0  0  0
  196.5781  182.8255  154.8432 H   0  0  0  0  0  0  0  0  0  0  0  0
  1  2  2  0
  2  3  1  0
  2 24  1  0
  3  4  1  0
  3 31  1  0
  4  5  1  0
  4  9  2  0
  5  6  2  0
  5 10  1  0
  6  7  1  0
  6 32  1  0
  7  8  2  0
  7 33  1  0
  8  9  1  0
  8 34  1  0
  9 35  1  0
 10 11  1  0
 10 25  1  0
 10 36  1  6
 11 12  1  0
 11 24  1  0
 12 13  1  0
 12 17  2  0
 13 14  2  0
 13 18  1  0
 14 15  1  0
 14 37  1  0
 15 16  2  0
 15 38  1  0
 16 17  1  0
 16 39  1  0
 17 40  1  0
 18 19  1  0
 18 22  1  0
 18 54  1  1
 19 20  1  0
 19 21  1  0
 20 41  1  6
 20 42  1  0
 20 43  1  0
 21 44  1  1
 21 45  1  0
 21 46  1  0
 22 23  3  0
 24 47  1  6
 24 48  1  0
 25 26  2  0
 25 30  1  0
 26 27  1  0
 26 49  1  0
 27 28  2  0
 27 50  1  0
 28 29  1  0
 28 51  1  0
 29 30  2  0
 29 52  1  0
 30 53  1  0
M  END
>  <s_epik_cmdline>  (1289) 
J2VwaWtfcHl0aG9uJywgJy1waCcsICc3LjAwMDAwMCcsICctcGh0JywgJzIuMDAwMDAwJywgJy1tcycsICcxNicsICctdG4nLCAnOCcsICctbWEnLCAnMjAwJywgJy1pbWFlJywgJzxpbmZpbGUubWFlPicsICctb21hZScsICc8b3V0ZmlsZS5tYWU+Jw==

>  <s_epik_input>  (1289) 
W2NIXTFbY0hdW2NIXVtjSF1jKFtDQEBIXShDI04pTihbQ0gzXSlbQ0gzXSljMU4oW0NIMl1DKD1PKVtOSF0yKVtDQEBIXShjKGMyMylbY0hdW2NIXVtjSF1bY0hdMyljNFtjSF1bY0hdW2NIXVtjSF1bY0hdNA==

>  <s_i_glide_gridfile>  (1289) 
ATP-Grid

>  <s_lp_Force_Field>  (1289) 
OPLS_2005

>  <s_lp_Variant>  (1289) 
rxn102c____EMOL3728737____EMOL6185419-3

>  <s_lp_label>  (1289) 
2507_sdstereoexpander_3_neutralizer_1_epik_1_stereoizer_1

>  <s_m_source_file>  (1289) 
ATP-VSW-LIGPREP-003-in.maegz

>  <s_sd_BIOSOLVEIT.INFINISEE\_QUERY\_NAME>  (1289) 
Ref-Lig

>  <s_sd_BIOSOLVEIT.INFINISEE\_QUERY\_SMILES>  (1289) 
S(c1nc2c(cc1C[NH2+]Cc3ccc(cc3)C[NH+](C)C)cccc2)Cc4ccccc4

>  <s_sd_BIOSOLVEIT.INFINISEE\_REACTION\_NAME>  (1289) 
rxn102c

>  <s_sd_BIOSOLVEIT.INFINISEE\_REAGENT1\_NAME>  (1289) 
EMOL3728737

>  <s_sd_BIOSOLVEIT.INFINISEE\_REAGENT1\_SMILES>  (1289) 
Clc1c(cccc1)C(N(C)C)C#N

>  <s_sd_BIOSOLVEIT.INFINISEE\_REAGENT2\_NAME>  (1289) 
EMOL6185419

>  <s_sd_BIOSOLVEIT.INFINISEE\_REAGENT2\_SMILES>  (1289) 
O=C1Nc2c(cccc2)C(NC1)c3ccccc3

>  <s_sd_BIOSOLVEIT.INFINISEE\_SPACE>  (1289) 
eXplore_7tr_2022-12

>  <s_vsw_compound_code>  (1289) 
80195

>  <s_vsw_variant>  (1289) 
80195-3

>  <r_epik_Charging_Adjusted_Penalty>  (1289) 
0.071297461139319604

>  <r_epik_Ionization_Penalty>  (1289) 
0.063100000000000003

>  <r_epik_Ionization_Penalty_Charging>  (1289) 
0

>  <r_epik_Ionization_Penalty_Neutral>  (1289) 
0.063100000000000003

>  <r_epik_State_Penalty>  (1289) 
0.071300000000000002

>  <r_i_docking_score>  (1289) 
-2.1406804667494499

>  <r_i_glide_ecoul>  (1289) 
-2.1077766418457

>  <r_i_glide_eff_state_penalty>  (1289) 
0.071300000000000002

>  <r_i_glide_einternal>  (1289) 
1.46923923492432

>  <r_i_glide_emodel>  (1289) 
-38.257892353992403

>  <r_i_glide_energy>  (1289) 
-34.038150787353501

>  <r_i_glide_erotb>  (1289) 
0.373384171562609

>  <r_i_glide_esite>  (1289) 
-0.053806083424888497

>  <r_i_glide_evdw>  (1289) 
-31.930374145507798

>  <r_i_glide_gscore>  (1289) 
-2.2119804667494498

>  <r_i_glide_hbond>  (1289) 
0

>  <r_i_glide_ligand_efficiency>  (1289) 
-0.071356015558314903

>  <r_i_glide_ligand_efficiency_ln>  (1289) 
-0.486385926627312

>  <r_i_glide_ligand_efficiency_sa>  (1289) 
-0.22171973078677501

>  <r_i_glide_lipo>  (1289) 
-1.2043972641048299

>  <r_i_glide_metal>  (1289) 
-0

>  <r_i_glide_rewards>  (1289) 
0.58552391276990901

>  <r_lp_Energy>  (1289) 
58.534787000000001

>  <r_qp_ACxDN^.5/SA>  (1289) 
0.010651000000000001

>  <r_qp_CIQPlogS>  (1289) 
-5.375

>  <r_qp_EA(eV)>  (1289) 
0.39800000000000002

>  <r_qp_FISA>  (1289) 
110.97499999999999

>  <r_qp_FOSA>  (1289) 
140.55500000000001

>  <r_qp_IP(eV)>  (1289) 
9.2769999999999992

>  <r_qp_Jm>  (1289) 
0.00053282294489670099

>  <r_qp_PISA>  (1289) 
405.68599999999998

>  <r_qp_PSA>  (1289) 
70.691000000000003

>  <r_qp_PercentHumanOralAbsorption>  (1289) 
88.450999999999993

>  <r_qp_QPPCaco>  (1289) 
218.99000000000001

>  <r_qp_QPPMDCK>  (1289) 
106

>  <r_qp_QPlogBB>  (1289) 
-0.24099999999999999

>  <r_qp_QPlogHERG>  (1289) 
-6.6059999999999999

>  <r_qp_QPlogKhsa>  (1289) 
0.505

>  <r_qp_QPlogKp>  (1289) 
-3.9100000000000001

>  <r_qp_QPlogPC16>  (1289) 
13.632999999999999

>  <r_qp_QPlogPo/w>  (1289) 
3.3500000000000001

>  <r_qp_QPlogPoct>  (1289) 
20.812999999999999

>  <r_qp_QPlogPw>  (1289) 
12.513

>  <r_qp_QPlogS>  (1289) 
-4.9610000000000003

>  <r_qp_QPpolrz>  (1289) 
45.552

>  <r_qp_SASA>  (1289) 
657.21600000000001

>  <r_qp_SAamideO>  (1289) 
0

>  <r_qp_SAfluorine>  (1289) 
0

>  <r_qp_WPSA>  (1289) 
0

>  <r_qp_accptHB>  (1289) 
7

>  <r_qp_dip^2/V>  (1289) 
0.0083996999999999995

>  <r_qp_dipole>  (1289) 
3.2320000000000002

>  <r_qp_donorHB>  (1289) 
1

>  <r_qp_glob>  (1289) 
0.85083969999999998

>  <r_qp_mol_MW>  (1289) 
396.49099999999999

>  <r_qp_volume>  (1289) 
1243.3309999999999

>  <r_sd_BIOSOLVEIT.INFINISEE\_FTREES\_SIMILARITY>  (1289) 
0.91400000000000003

>  <r_sd_BIOSOLVEIT.LOGP>  (1289) 
2.9438800000000001

>  <r_sd_BIOSOLVEIT.MOLECULAR\_WEIGHT>  (1289) 
397.5

>  <r_sd_BIOSOLVEIT.TPSA>  (1289) 
60.57

>  <i_epik_Tot_Q>  (1289) 
0

>  <i_epik_Tot_abs_Q>  (1289) 
0

>  <i_f3d_flags>  (1289) 
0

>  <i_i_glide_confnum>  (1289) 
5

>  <i_i_glide_lignum>  (1289) 
1094

>  <i_i_glide_posenum>  (1289) 
12

>  <i_i_glide_rotatable_bonds>  (1289) 
4

>  <i_lp_mmshare_version>  (1289) 
65135

>  <i_m_ct_format>  (1289) 
2

>  <i_m_source_file_index>  (1289) 
2507

>  <i_qp_#NandO>  (1289) 
5

>  <i_qp_#acid>  (1289) 
0

>  <i_qp_#amide>  (1289) 
0

>  <i_qp_#amidine>  (1289) 
0

>  <i_qp_#amine>  (1289) 
1

>  <i_qp_#in34>  (1289) 
0

>  <i_qp_#in56>  (1289) 
18

>  <i_qp_#metab>  (1289) 
8

>  <i_qp_#nonHatm>  (1289) 
30

>  <i_qp_#noncon>  (1289) 
2

>  <i_qp_#ringatoms>  (1289) 
23

>  <i_qp_#rotor>  (1289) 
3

>  <i_qp_#rtvFG>  (1289) 
0

>  <i_qp_#stars>  (1289) 
0

>  <i_qp_CNS>  (1289) 
1

>  <i_qp_HumanOralAbsorption>  (1289) 
3

>  <i_qp_RuleOfFive>  (1289) 
0

>  <i_qp_RuleOfThree>  (1289) 
1

>  <i_sd_BIOSOLVEIT.INFINISEE\_RESULT\_RANK>  (1289) 
31398

>  <i_sd_version>  (1289) 
0

>  <b_lp_Chiralities_Consistent>  (1289) 
1

>  <b_sd_chiral_flag>  (1289) 
0

>  <canonical_id>  (1289) 
ATP-HTVS-CBC473663EF6

>  <compound_code>  (1289) 
80195

>  <title>  (1289) 
rxn102c____EMOL3728737____EMOL6185419

>  <variant>  (1289) 
80195-3

>  <source_file>  (1289) 
运行/运行/ATP-VSW/ATP-VSW-DOCK_HTVS_1-003_lib/ATP-VSW-DOCK_HTVS_1-003_lib.mae

>  <canonical_smiles>  (1289) 
CN(C)[C@H](C#N)c1ccccc1N1CC(=O)Nc2ccccc2[C@H]1c1ccccc1

>  <scaffold>  (1289) 
O=C1CN(c2ccccc2)C(c2ccccc2)c2ccccc2N1

>  <molecular_formula>  (1289) 
C25H24N4O

$$$$
ATP-HTVS-CBCD19AD9C21
     RDKit          3D

 66 69  0  0  0  0  0  0  0  0999 V2000
  200.0559  183.6297  153.8742 O   0  0  0  0  0  0  0  0  0  0  0  0
  198.8428  183.8033  153.7128 C   0  0  0  0  0  0  0  0  0  0  0  0
  197.9401  182.8445  153.9654 N   0  0  0  0  0  0  0  0  0  0  0  0
  198.2344  181.5955  154.5725 C   0  0  0  0  0  0  0  0  0  0  0  0
  197.9153  181.3942  155.9373 C   0  0  0  0  0  0  0  0  0  0  0  0
  197.3306  182.4256  156.6981 N   0  0  0  0  0  0  0  0  0  0  0  0
  196.6246  182.1077  157.9298 C   0  0  1  0  0  0  0  0  0  0  0  0
  196.3293  183.3415  158.7540 C   0  0  0  0  0  0  0  0  0  0  0  0
  195.0027  183.6899  159.0528 C   0  0  0  0  0  0  0  0  0  0  0  0
  194.7357  184.8710  159.7707 C   0  0  0  0  0  0  0  0  0  0  0  0
  195.8067  185.7069  160.1917 C   0  0  0  0  0  0  0  0  0  0  0  0
  197.1288  185.3344  159.9382 C   0  0  0  0  0  0  0  0  0  0  0  0
  197.3935  184.1452  159.1968 C   0  0  0  0  0  0  0  0  0  0  0  0
  195.5257  187.0332  160.8746 C   0  0  1  0  0  0  0  0  0  0  0  0
  196.0338  188.2234  160.1153 N   0  0  1  0  0  0  0  0  0  0  0  0
  197.1249  188.9163  160.8225 C   0  0  2  0  0  0  0  0  0  0  0  0
  196.3547  187.9897  158.6828 C   0  0  2  0  0  0  0  0  0  0  0  0
  198.2143  180.1389  156.5095 C   0  0  0  0  0  0  0  0  0  0  0  0
  198.7629  179.1572  155.7757 N   0  0  0  0  0  0  0  0  0  0  0  0
  199.0875  179.3023  154.4708 C   0  0  0  0  0  0  0  0  0  0  0  0
  198.8258  180.5397  153.8241 C   0  0  0  0  0  0  0  0  0  0  0  0
  199.1576  180.6748  152.4557 C   0  0  0  0  0  0  0  0  0  0  0  0
  199.7616  179.6073  151.7620 C   0  0  0  0  0  0  0  0  0  0  0  0
  200.0234  178.3899  152.4193 C   0  0  0  0  0  0  0  0  0  0  0  0
  199.6833  178.2351  153.7766 C   0  0  0  0  0  0  0  0  0  0  0  0
  198.2958  185.1473  153.1898 C   0  0  2  0  0  0  0  0  0  0  0  0
  197.1508  185.4817  153.9580 O   0  0  0  0  0  0  0  0  0  0  0  0
  197.9288  184.9879  151.7017 C   0  0  0  0  0  0  0  0  0  0  0  0
  198.6910  185.5800  150.6698 C   0  0  0  0  0  0  0  0  0  0  0  0
  198.3222  185.4284  149.3192 C   0  0  0  0  0  0  0  0  0  0  0  0
  197.1839  184.6777  148.9782 C   0  0  0  0  0  0  0  0  0  0  0  0
  196.4164  184.0821  149.9936 C   0  0  0  0  0  0  0  0  0  0  0  0
  196.7776  184.2380  151.3448 C   0  0  0  0  0  0  0  0  0  0  0  0
  199.3124  186.2943  153.4254 C   0  0  2  0  0  0  0  0  0  0  0  0
  196.9637  183.0778  153.8334 H   0  0  0  0  0  0  0  0  0  0  0  0
  197.0102  183.2485  156.1989 H   0  0  0  0  0  0  0  0  0  0  0  0
  195.7015  181.5833  157.6913 H   0  0  0  0  0  0  0  0  0  0  0  0
  197.2042  181.4600  158.5846 H   0  0  0  0  0  0  0  0  0  0  0  0
  194.1913  183.0815  158.6841 H   0  0  0  0  0  0  0  0  0  0  0  0
  193.7060  185.1544  159.9370 H   0  0  0  0  0  0  0  0  0  0  0  0
  197.9514  185.9220  160.2709 H   0  0  0  0  0  0  0  0  0  0  0  0
  198.4152  183.8935  158.9613 H   0  0  0  0  0  0  0  0  0  0  0  0
  194.4485  187.1508  161.0051 H   0  0  0  0  0  0  0  0  0  0  0  0
  195.9397  187.0080  161.8895 H   0  0  0  0  0  0  0  0  0  0  0  0
  197.9814  188.2545  160.9309 H   0  0  0  0  0  0  0  0  0  0  0  0
  196.8147  189.2366  161.8176 H   0  0  0  0  0  0  0  0  0  0  0  0
  197.4474  189.8021  160.2737 H   0  0  0  0  0  0  0  0  0  0  0  0
  197.2098  187.3110  158.5629 H   0  0  0  0  0  0  0  0  0  0  0  0
  196.5866  188.9340  158.1644 H   0  0  0  0  0  0  0  0  0  0  0  0
  195.5107  187.5449  158.1592 H   0  0  0  0  0  0  0  0  0  0  0  0
  198.0028  179.8440  157.5229 H   0  0  0  0  0  0  0  0  0  0  0  0
  198.9732  181.5986  151.9287 H   0  0  0  0  0  0  0  0  0  0  0  0
  200.0329  179.7320  150.7249 H   0  0  0  0  0  0  0  0  0  0  0  0
  200.4944  177.5773  151.8844 H   0  0  0  0  0  0  0  0  0  0  0  0
  199.8866  177.2983  154.2758 H   0  0  0  0  0  0  0  0  0  0  0  0
  196.8723  186.3550  153.7352 H   0  0  0  0  0  0  0  0  0  0  0  0
  199.5731  186.1703  150.8701 H   0  0  0  0  0  0  0  0  0  0  0  0
  198.9226  185.8890  148.5485 H   0  0  0  0  0  0  0  0  0  0  0  0
  196.9040  184.5617  147.9421 H   0  0  0  0  0  0  0  0  0  0  0  0
  195.5490  183.5010  149.7347 H   0  0  0  0  0  0  0  0  0  0  0  0
  196.1543  183.7884  152.1044 H   0  0  0  0  0  0  0  0  0  0  0  0
  200.2620  186.1117  152.9183 H   0  0  0  0  0  0  0  0  0  0  0  0
  199.5579  186.4231  154.4836 H   0  0  0  0  0  0  0  0  0  0  0  0
  198.9255  187.2463  153.0603 H   0  0  0  0  0  0  0  0  0  0  0  0
  195.2605  188.8706  160.1099 H   0  0  0  0  0  0  0  0  0  0  0  0
  198.9084  178.2639  156.2433 H   0  0  0  0  0  0  0  0  0  0  0  0
  1  2  2  0
  2  3  1  0
  2 26  1  0
  3  4  1  0
  3 35  1  0
  4  5  2  0
  4 21  1  0
  5  6  1  0
  5 18  1  0
  6  7  1  0
  6 36  1  0
  7  8  1  0
  7 37  1  6
  7 38  1  0
  8  9  1  0
  8 13  2  0
  9 10  2  0
  9 39  1  0
 10 11  1  0
 10 40  1  0
 11 12  2  0
 11 14  1  0
 12 13  1  0
 12 41  1  0
 13 42  1  0
 14 15  1  0
 14 43  1  1
 14 44  1  0
 15 16  1  0
 15 17  1  0
 15 65  1  6
 16 45  1  1
 16 46  1  0
 16 47  1  0
 17 48  1  1
 17 49  1  0
 17 50  1  0
 18 19  2  0
 18 51  1  0
 19 20  1  0
 19 66  1  0
 20 21  1  0
 20 25  2  0
 21 22  2  0
 22 23  1  0
 22 52  1  0
 23 24  2  0
 23 53  1  0
 24 25  1  0
 24 54  1  0
 25 55  1  0
 26 27  1  1
 26 28  1  0
 26 34  1  0
 27 56  1  0
 28 29  2  0
 28 33  1  0
 29 30  1  0
 29 57  1  0
 30 31  2  0
 30 58  1  0
 31 32  1  0
 31 59  1  0
 32 33  2  0
 32 60  1  0
 33 61  1  0
 34 62  1  6
 34 63  1  0
 34 64  1  0
M  CHG  2  15   1  19   1
M  END
>  <s_epik_cmdline>  (1290) 
J2VwaWtfcHl0aG9uJywgJy1waCcsICc3LjAwMDAwMCcsICctcGh0JywgJzIuMDAwMDAwJywgJy1tcycsICcxNicsICctdG4nLCAnOCcsICctbWEnLCAnMjAwJywgJy1pbWFlJywgJzxpbmZpbGUubWFlPicsICctb21hZScsICc8b3V0ZmlsZS5tYWU+Jw==

>  <s_epik_input>  (1290) 
W2NIXTFbY0hdW2NIXVtjSF1bY0hdYzFbQ0BdKFtPSF0pKFtDSDNdKUMoPU8pW05IXWMoYyhjMjMpW2NIXVtjSF1bY0hdW2NIXTMpYyhbY0hdbjIpW05IXVtDSDJdYzRbY0hdW2NIXWMoW2NIXVtjSF00KVtDSDJdTihbQ0gzXSlbQ0gzXQ==

>  <s_i_glide_gridfile>  (1290) 
ATP-Grid

>  <s_lp_Force_Field>  (1290) 
OPLS_2005

>  <s_lp_Variant>  (1290) 
rxn502b____EMOL299976369____EMOL13728749____EMOL50155899-3

>  <s_lp_label>  (1290) 
2174_sdstereoexpander_1_neutralizer_1_epik_2_stereoizer_1

>  <s_m_source_file>  (1290) 
ATP-VSW-LIGPREP-002-in.maegz

>  <s_sd_BIOSOLVEIT.INFINISEE\_QUERY\_NAME>  (1290) 
Ref-Lig

>  <s_sd_BIOSOLVEIT.INFINISEE\_QUERY\_SMILES>  (1290) 
S(c1nc2c(cc1C[NH2+]Cc3ccc(cc3)C[NH+](C)C)cccc2)Cc4ccccc4

>  <s_sd_BIOSOLVEIT.INFINISEE\_REACTION\_NAME>  (1290) 
rxn502b

>  <s_sd_BIOSOLVEIT.INFINISEE\_REAGENT1\_NAME>  (1290) 
EMOL299976369

>  <s_sd_BIOSOLVEIT.INFINISEE\_REAGENT1\_SMILES>  (1290) 
O=C(O)C(O)(c1ccccc1)C

>  <s_sd_BIOSOLVEIT.INFINISEE\_REAGENT2\_NAME>  (1290) 
EMOL13728749

>  <s_sd_BIOSOLVEIT.INFINISEE\_REAGENT2\_SMILES>  (1290) 
Brc1c(N)c2c(nc1)cccc2

>  <s_sd_BIOSOLVEIT.INFINISEE\_REAGENT3\_NAME>  (1290) 
EMOL50155899

>  <s_sd_BIOSOLVEIT.INFINISEE\_REAGENT3\_SMILES>  (1290) 
N(Cc1ccc(cc1)CN)(C)C

>  <s_sd_BIOSOLVEIT.INFINISEE\_SPACE>  (1290) 
eXplore_7tr_2022-12

>  <s_vsw_compound_code>  (1290) 
69538

>  <s_vsw_variant>  (1290) 
69538-3

>  <r_epik_Charging_Adjusted_Penalty>  (1290) 
2.5979656259854198

>  <r_epik_Ionization_Penalty>  (1290) 
1.2989999999999999

>  <r_epik_Ionization_Penalty_Charging>  (1290) 
1.2989999999999999

>  <r_epik_Ionization_Penalty_Neutral>  (1290) 
0

>  <r_epik_State_Penalty>  (1290) 
1.2989999999999999

>  <r_i_docking_score>  (1290) 
-4.6733617870790596

>  <r_i_glide_ecoul>  (1290) 
-13.742811203002899

>  <r_i_glide_eff_state_penalty>  (1290) 
1.2989999999999999

>  <r_i_glide_einternal>  (1290) 
8.8415632247924805

>  <r_i_glide_emodel>  (1290) 
-70.403967932112394

>  <r_i_glide_energy>  (1290) 
-48.111188888549798

>  <r_i_glide_erotb>  (1290) 
0.674871193357654

>  <r_i_glide_esite>  (1290) 
-0.1304324517247

>  <r_i_glide_evdw>  (1290) 
-34.368377685546903

>  <r_i_glide_gscore>  (1290) 
-5.97236178707906

>  <r_i_glide_hbond>  (1290) 
0

>  <r_i_glide_ligand_efficiency>  (1290) 
-0.13745181726703101

>  <r_i_glide_ligand_efficiency_ln>  (1290) 
-1.0324767021237999

>  <r_i_glide_ligand_efficiency_sa>  (1290) 
-0.44529052880189202

>  <r_i_glide_lipo>  (1290) 
-2.21590960034787

>  <r_i_glide_metal>  (1290) 
-0

>  <r_i_glide_rewards>  (1290) 
-0.52105036363636204

>  <r_lp_Energy>  (1290) 
37.140895

>  <r_qp_ACxDN^.5/SA>  (1290) 
0.017456800000000001

>  <r_qp_CIQPlogS>  (1290) 
-5.694

>  <r_qp_EA(eV)>  (1290) 
0.92100000000000004

>  <r_qp_FISA>  (1290) 
70.956000000000003

>  <r_qp_FOSA>  (1290) 
240.90899999999999

>  <r_qp_IP(eV)>  (1290) 
8.2360000000000007

>  <r_qp_Jm>  (1290) 
0.14427742521798101

>  <r_qp_PISA>  (1290) 
407.47500000000002

>  <r_qp_PSA>  (1290) 
75.656999999999996

>  <r_qp_PercentHumanOralAbsorption>  (1290) 
100

>  <r_qp_QPPCaco>  (1290) 
524.71199999999999

>  <r_qp_QPPMDCK>  (1290) 
272.58199999999999

>  <r_qp_QPlogBB>  (1290) 
-0.245

>  <r_qp_QPlogHERG>  (1290) 
-6.7279999999999998

>  <r_qp_QPlogKhsa>  (1290) 
0.58199999999999996

>  <r_qp_QPlogKp>  (1290) 
-2.5899999999999999

>  <r_qp_QPlogPC16>  (1290) 
15.256

>  <r_qp_QPlogPo/w>  (1290) 
4.2729999999999997

>  <r_qp_QPlogPoct>  (1290) 
24.530000000000001

>  <r_qp_QPlogPw>  (1290) 
14.254

>  <r_qp_QPlogS>  (1290) 
-3.9079999999999999

>  <r_qp_QPpolrz>  (1290) 
48.238999999999997

>  <r_qp_SASA>  (1290) 
719.34000000000003

>  <r_qp_SAamideO>  (1290) 
0

>  <r_qp_SAfluorine>  (1290) 
0

>  <r_qp_WPSA>  (1290) 
0

>  <r_qp_accptHB>  (1290) 
7.25

>  <r_qp_dip^2/V>  (1290) 
0.014786499999999999

>  <r_qp_dipole>  (1290) 
4.5599999999999996

>  <r_qp_donorHB>  (1290) 
3

>  <r_qp_glob>  (1290) 
0.8438833

>  <r_qp_mol_MW>  (1290) 
454.57100000000003

>  <r_qp_volume>  (1290) 
1406.299

>  <r_sd_BIOSOLVEIT.INFINISEE\_FTREES\_SIMILARITY>  (1290) 
0.93799999999999994

>  <r_sd_BIOSOLVEIT.LOGP>  (1290) 
3.3376000000000001

>  <r_sd_BIOSOLVEIT.MOLECULAR\_WEIGHT>  (1290) 
455.57900000000001

>  <r_sd_BIOSOLVEIT.TPSA>  (1290) 
78.689999999999998

>  <i_epik_Tot_Q>  (1290) 
2

>  <i_epik_Tot_abs_Q>  (1290) 
2

>  <i_f3d_flags>  (1290) 
0

>  <i_i_glide_confnum>  (1290) 
6

>  <i_i_glide_lignum>  (1290) 
802

>  <i_i_glide_posenum>  (1290) 
5

>  <i_i_glide_rotatable_bonds>  (1290) 
10

>  <i_lp_mmshare_version>  (1290) 
65135

>  <i_m_ct_format>  (1290) 
2

>  <i_m_source_file_index>  (1290) 
2174

>  <i_qp_#NandO>  (1290) 
6

>  <i_qp_#acid>  (1290) 
0

>  <i_qp_#amide>  (1290) 
0

>  <i_qp_#amidine>  (1290) 
0

>  <i_qp_#amine>  (1290) 
1

>  <i_qp_#in34>  (1290) 
0

>  <i_qp_#in56>  (1290) 
22

>  <i_qp_#metab>  (1290) 
8

>  <i_qp_#nonHatm>  (1290) 
34

>  <i_qp_#noncon>  (1290) 
0

>  <i_qp_#ringatoms>  (1290) 
22

>  <i_qp_#rotor>  (1290) 
9

>  <i_qp_#rtvFG>  (1290) 
0

>  <i_qp_#stars>  (1290) 
0

>  <i_qp_CNS>  (1290) 
0

>  <i_qp_HumanOralAbsorption>  (1290) 
3

>  <i_qp_RuleOfFive>  (1290) 
0

>  <i_qp_RuleOfThree>  (1290) 
1

>  <i_sd_BIOSOLVEIT.INFINISEE\_RESULT\_RANK>  (1290) 
1683

>  <i_sd_version>  (1290) 
0

>  <b_lp_Chiralities_Consistent>  (1290) 
1

>  <b_sd_chiral_flag>  (1290) 
0

>  <canonical_id>  (1290) 
ATP-HTVS-CBCD19AD9C21

>  <compound_code>  (1290) 
69538

>  <title>  (1290) 
rxn502b____EMOL299976369____EMOL13728749____EMOL50155899

>  <variant>  (1290) 
69538-3

>  <source_file>  (1290) 
运行/运行/ATP-VSW/ATP-VSW-DOCK_HTVS_1-002_lib.maegz

>  <canonical_smiles>  (1290) 
C[NH+](C)Cc1ccc(CNc2c[nH+]c3ccccc3c2NC(=O)[C@](C)(O)c2ccccc2)cc1

>  <scaffold>  (1290) 
O=C(Cc1ccccc1)Nc1c(NCc2ccccc2)c[nH+]c2ccccc12

>  <molecular_formula>  (1290) 
C28H32N4O2+2

$$$$
ATP-HTVS-CC01DAB978DA
     RDKit          3D

 45 48  0  0  0  0  0  0  0  0999 V2000
  193.1501  181.4136  158.1846 Cl  0  0  0  0  0  0  0  0  0  0  0  0
  194.3604  182.6105  158.4856 C   0  0  0  0  0  0  0  0  0  0  0  0
  195.5901  182.4652  157.8342 C   0  0  0  0  0  0  0  0  0  0  0  0
  196.6268  183.4240  157.9802 C   0  0  0  0  0  0  0  0  0  0  0  0
  196.3932  184.5410  158.8334 C   0  0  0  0  0  0  0  0  0  0  0  0
  197.3810  185.5392  159.0539 N   0  0  0  0  0  0  0  0  0  0  0  0
  198.6943  185.3166  159.2017 C   0  0  0  0  0  0  0  0  0  0  0  0
  199.5004  186.2340  159.2931 O   0  0  0  0  0  0  0  0  0  0  0  0
  199.1732  183.8590  159.3062 C   0  0  1  0  0  0  0  0  0  0  0  0
  199.1370  183.0602  158.0466 N   0  0  0  0  0  0  0  0  0  0  0  0
  197.9560  183.3096  157.1940 C   0  0  1  0  0  0  0  0  0  0  0  0
  197.8534  182.2748  156.0591 C   0  0  0  0  0  0  0  0  0  0  0  0
  197.4743  182.6469  154.7456 C   0  0  0  0  0  0  0  0  0  0  0  0
  197.2375  183.9490  154.4429 F   0  0  0  0  0  0  0  0  0  0  0  0
  197.3540  181.6573  153.7470 C   0  0  0  0  0  0  0  0  0  0  0  0
  197.5902  180.3012  154.0468 C   0  0  0  0  0  0  0  0  0  0  0  0
  197.9525  179.9313  155.3548 C   0  0  0  0  0  0  0  0  0  0  0  0
  198.0795  180.9146  156.3473 C   0  0  0  0  0  0  0  0  0  0  0  0
  200.3742  183.2083  157.2617 C   0  0  1  0  0  0  0  0  0  0  0  0
  201.5954  182.5992  157.9233 C   0  0  0  0  0  0  0  0  0  0  0  0
  202.5323  183.4259  158.5714 C   0  0  0  0  0  0  0  0  0  0  0  0
  202.3409  184.7658  158.6171 F   0  0  0  0  0  0  0  0  0  0  0  0
  203.6629  182.8628  159.1898 C   0  0  0  0  0  0  0  0  0  0  0  0
  204.5531  183.6612  159.8233 F   0  0  0  0  0  0  0  0  0  0  0  0
  203.8756  181.4702  159.1378 C   0  0  0  0  0  0  0  0  0  0  0  0
  202.9464  180.6407  158.4803 C   0  0  0  0  0  0  0  0  0  0  0  0
  201.8064  181.2026  157.8728 C   0  0  0  0  0  0  0  0  0  0  0  0
  195.1419  184.7018  159.4617 C   0  0  0  0  0  0  0  0  0  0  0  0
  194.1202  183.7485  159.2778 C   0  0  0  0  0  0  0  0  0  0  0  0
  195.6620  181.6067  157.1772 H   0  0  0  0  0  0  0  0  0  0  0  0
  197.0631  186.4928  159.1705 H   0  0  0  0  0  0  0  0  0  0  0  0
  200.1600  183.8497  159.7726 H   0  0  0  0  0  0  0  0  0  0  0  0
  198.5395  183.3511  160.0397 H   0  0  0  0  0  0  0  0  0  0  0  0
  198.1159  184.2855  156.7243 H   0  0  0  0  0  0  0  0  0  0  0  0
  197.0489  181.9483  152.7560 H   0  0  0  0  0  0  0  0  0  0  0  0
  197.4731  179.5399  153.2971 H   0  0  0  0  0  0  0  0  0  0  0  0
  198.1055  178.8994  155.6319 H   0  0  0  0  0  0  0  0  0  0  0  0
  198.3320  180.6017  157.3499 H   0  0  0  0  0  0  0  0  0  0  0  0
  200.3129  182.6935  156.3025 H   0  0  0  0  0  0  0  0  0  0  0  0
  200.5533  184.2527  157.0013 H   0  0  0  0  0  0  0  0  0  0  0  0
  204.7527  181.0435  159.6029 H   0  0  0  0  0  0  0  0  0  0  0  0
  203.1157  179.5740  158.4363 H   0  0  0  0  0  0  0  0  0  0  0  0
  201.0973  180.5559  157.3746 H   0  0  0  0  0  0  0  0  0  0  0  0
  194.9574  185.5579  160.0922 H   0  0  0  0  0  0  0  0  0  0  0  0
  193.1589  183.8935  159.7348 H   0  0  0  0  0  0  0  0  0  0  0  0
  1  2  1  0
  2  3  2  0
  2 29  1  0
  3  4  1  0
  3 30  1  0
  4  5  2  0
  4 11  1  0
  5  6  1  0
  5 28  1  0
  6  7  1  0
  6 31  1  0
  7  8  2  0
  7  9  1  0
  9 10  1  0
  9 32  1  1
  9 33  1  0
 10 11  1  0
 10 19  1  0
 11 12  1  0
 11 34  1  6
 12 13  1  0
 12 18  2  0
 13 14  1  0
 13 15  2  0
 15 16  1  0
 15 35  1  0
 16 17  2  0
 16 36  1  0
 17 18  1  0
 17 37  1  0
 18 38  1  0
 19 20  1  0
 19 39  1  6
 19 40  1  0
 20 21  1  0
 20 27  2  0
 21 22  1  0
 21 23  2  0
 23 24  1  0
 23 25  1  0
 25 26  2  0
 25 41  1  0
 26 27  1  0
 26 42  1  0
 27 43  1  0
 28 29  2  0
 28 44  1  0
 29 45  1  0
M  END
>  <s_epik_cmdline>  (1291) 
J2VwaWtfcHl0aG9uJywgJy1waCcsICc3LjAwMDAwMCcsICctcGh0JywgJzIuMDAwMDAwJywgJy1tcycsICcxNicsICctdG4nLCAnOCcsICctbWEnLCAnMjAwJywgJy1pbWFlJywgJzxpbmZpbGUubWFlPicsICctb21hZScsICc8b3V0ZmlsZS5tYWU+Jw==

>  <s_epik_input>  (1291) 
Q2xjKFtjSF0xKVtjSF1bY0hdYyhjMTIpW05IXUMoPU8pW0NIMl1OKFtDQEhdMmMzYyhGKVtjSF1bY0hdW2NIXVtjSF0zKVtDSDJdYzRjKEYpYyhGKVtjSF1bY0hdW2NIXTQ=

>  <s_i_glide_gridfile>  (1291) 
ATP-Grid

>  <s_lp_Force_Field>  (1291) 
OPLS_2005

>  <s_lp_Variant>  (1291) 
m_2230bdc____14772912____665832-1

>  <s_lp_label>  (1291) 
1875_sdstereoexpander_1_neutralizer_1_epik_1_stereoizer_1

>  <s_m_source_file>  (1291) 
ATP-VSW-LIGPREP-003-in.maegz

>  <s_sd_BIOSOLVEIT.INFINISEE\_QUERY\_NAME>  (1291) 
Ref-Lig

>  <s_sd_BIOSOLVEIT.INFINISEE\_QUERY\_SMILES>  (1291) 
S(c1nc2c(cc1C[NH2+]Cc3ccc(cc3)C[NH+](C)C)cccc2)Cc4ccccc4

>  <s_sd_BIOSOLVEIT.INFINISEE\_REACTION\_NAME>  (1291) 
m_2230bdc

>  <s_sd_BIOSOLVEIT.INFINISEE\_REAGENT1\_SMILES>  (1291) 
[R1*]N1C(c2c(F)cccc2)c3c(NC(=O)C1)ccc(Cl)c3

>  <s_sd_BIOSOLVEIT.INFINISEE\_REAGENT2\_SMILES>  (1291) 
[R1*]Cc1c(F)c(F)ccc1

>  <s_sd_BIOSOLVEIT.INFINISEE\_SPACE>  (1291) 
REALSpace_44bn_2023-08

>  <s_vsw_compound_code>  (1291) 
59971

>  <s_vsw_variant>  (1291) 
59971-1

>  <r_epik_Charging_Adjusted_Penalty>  (1291) 
0.0073990967497685701

>  <r_epik_Ionization_Penalty>  (1291) 
0.0074000000000000003

>  <r_epik_Ionization_Penalty_Charging>  (1291) 
0

>  <r_epik_Ionization_Penalty_Neutral>  (1291) 
0.0074000000000000003

>  <r_epik_State_Penalty>  (1291) 
0.0074000000000000003

>  <r_i_docking_score>  (1291) 
-0.74841670930509796

>  <r_i_glide_ecoul>  (1291) 
-0.87757664918899503

>  <r_i_glide_eff_state_penalty>  (1291) 
0.0074000000000000003

>  <r_i_glide_einternal>  (1291) 
0.17474131286144301

>  <r_i_glide_emodel>  (1291) 
-34.4951005705949

>  <r_i_glide_energy>  (1291) 
-33.0880411267281

>  <r_i_glide_erotb>  (1291) 
0.341187845109652

>  <r_i_glide_esite>  (1291) 
-0.017695146006078102

>  <r_i_glide_evdw>  (1291) 
-32.210464477539098

>  <r_i_glide_gscore>  (1291) 
-0.75581670930509803

>  <r_i_glide_hbond>  (1291) 
0

>  <r_i_glide_ligand_efficiency>  (1291) 
-0.025807472734658499

>  <r_i_glide_ligand_efficiency_ln>  (1291) 
-0.17136844822060401

>  <r_i_glide_ligand_efficiency_sa>  (1291) 
-0.079288732622124006

>  <r_i_glide_lipo>  (1291) 
-0.69153480794597799

>  <r_i_glide_metal>  (1291) 
-0

>  <r_i_glide_rewards>  (1291) 
1.3543851207926101

>  <r_lp_Energy>  (1291) 
54.933531000000002

>  <r_qp_ACxDN^.5/SA>  (1291) 
0.0072253999999999999

>  <r_qp_CIQPlogS>  (1291) 
-5.798

>  <r_qp_EA(eV)>  (1291) 
0.58799999999999997

>  <r_qp_FISA>  (1291) 
66.335999999999999

>  <r_qp_FOSA>  (1291) 
39.909999999999997

>  <r_qp_IP(eV)>  (1291) 
9.4060000000000006

>  <r_qp_Jm>  (1291) 
0.00168169938912355

>  <r_qp_PISA>  (1291) 
369.04500000000002

>  <r_qp_PSA>  (1291) 
42.316000000000003

>  <r_qp_PercentHumanOralAbsorption>  (1291) 
100

>  <r_qp_QPPCaco>  (1291) 
580.40999999999997

>  <r_qp_QPPMDCK>  (1291) 
1953.9169999999999

>  <r_qp_QPlogBB>  (1291) 
0.58999999999999997

>  <r_qp_QPlogHERG>  (1291) 
-6.4640000000000004

>  <r_qp_QPlogKhsa>  (1291) 
0.77600000000000002

>  <r_qp_QPlogKp>  (1291) 
-3.3130000000000002

>  <r_qp_QPlogPC16>  (1291) 
12.157

>  <r_qp_QPlogPo/w>  (1291) 
4.5890000000000004

>  <r_qp_QPlogPoct>  (1291) 
18.934999999999999

>  <r_qp_QPlogPw>  (1291) 
9.6869999999999994

>  <r_qp_QPlogS>  (1291) 
-5.0819999999999999

>  <r_qp_QPpolrz>  (1291) 
41.826000000000001

>  <r_qp_SASA>  (1291) 
622.79899999999998

>  <r_qp_SAamideO>  (1291) 
0

>  <r_qp_SAfluorine>  (1291) 
75.975999999999999

>  <r_qp_WPSA>  (1291) 
147.50800000000001

>  <r_qp_accptHB>  (1291) 
4.5

>  <r_qp_dip^2/V>  (1291) 
0.032979399999999999

>  <r_qp_dipole>  (1291) 
6.1390000000000002

>  <r_qp_donorHB>  (1291) 
1

>  <r_qp_glob>  (1291) 
0.84884550000000003

>  <r_qp_mol_MW>  (1291) 
416.82900000000001

>  <r_qp_volume>  (1291) 
1142.925

>  <r_sd_BIOSOLVEIT.INFINISEE\_FTREES\_SIMILARITY>  (1291) 
0.90300000000000002

>  <r_sd_BIOSOLVEIT.LOGP>  (1291) 
3.8839000000000001

>  <r_sd_BIOSOLVEIT.MOLECULAR\_WEIGHT>  (1291) 
417.83600000000001

>  <r_sd_BIOSOLVEIT.TPSA>  (1291) 
33.539999999999999

>  <i_epik_Tot_Q>  (1291) 
0

>  <i_epik_Tot_abs_Q>  (1291) 
0

>  <i_f3d_flags>  (1291) 
0

>  <i_i_glide_confnum>  (1291) 
4

>  <i_i_glide_lignum>  (1291) 
705

>  <i_i_glide_posenum>  (1291) 
7

>  <i_i_glide_rotatable_bonds>  (1291) 
3

>  <i_lp_mmshare_version>  (1291) 
65135

>  <i_m_ct_format>  (1291) 
2

>  <i_m_source_file_index>  (1291) 
1875

>  <i_qp_#NandO>  (1291) 
3

>  <i_qp_#acid>  (1291) 
0

>  <i_qp_#amide>  (1291) 
0

>  <i_qp_#amidine>  (1291) 
0

>  <i_qp_#amine>  (1291) 
1

>  <i_qp_#in34>  (1291) 
0

>  <i_qp_#in56>  (1291) 
18

>  <i_qp_#metab>  (1291) 
6

>  <i_qp_#nonHatm>  (1291) 
29

>  <i_qp_#noncon>  (1291) 
2

>  <i_qp_#ringatoms>  (1291) 
23

>  <i_qp_#rotor>  (1291) 
2

>  <i_qp_#rtvFG>  (1291) 
0

>  <i_qp_#stars>  (1291) 
0

>  <i_qp_CNS>  (1291) 
2

>  <i_qp_HumanOralAbsorption>  (1291) 
3

>  <i_qp_RuleOfFive>  (1291) 
0

>  <i_qp_RuleOfThree>  (1291) 
0

>  <i_sd_BIOSOLVEIT.INFINISEE\_REAGENT1\_NAME>  (1291) 
14772912

>  <i_sd_BIOSOLVEIT.INFINISEE\_REAGENT2\_NAME>  (1291) 
665832

>  <i_sd_BIOSOLVEIT.INFINISEE\_RESULT\_RANK>  (1291) 
82669

>  <i_sd_version>  (1291) 
0

>  <b_lp_Chiralities_Consistent>  (1291) 
1

>  <b_sd_chiral_flag>  (1291) 
0

>  <canonical_id>  (1291) 
ATP-HTVS-CC01DAB978DA

>  <compound_code>  (1291) 
59971

>  <title>  (1291) 
m_2230bdc____14772912____665832

>  <variant>  (1291) 
59971-1

>  <source_file>  (1291) 
运行/运行/ATP-VSW/ATP-VSW-DOCK_HTVS_1-003_lib/ATP-VSW-DOCK_HTVS_1-003_lib.mae

>  <canonical_smiles>  (1291) 
O=C1CN(Cc2cccc(F)c2F)[C@@H](c2ccccc2F)c2cc(Cl)ccc2N1

>  <scaffold>  (1291) 
O=C1CN(Cc2ccccc2)C(c2ccccc2)c2ccccc2N1

>  <molecular_formula>  (1291) 
C22H16ClF3N2O

$$$$
ATP-HTVS-CC453EE4B1F8
     RDKit          3D

 61 64  0  0  0  0  0  0  0  0999 V2000
  201.6097  179.2160  153.0939 O   0  0  0  0  0  0  0  0  0  0  0  0
  200.9651  178.6426  153.9770 C   0  0  0  0  0  0  0  0  0  0  0  0
  199.6293  178.4928  153.9344 N   0  0  0  0  0  0  0  0  0  0  0  0
  198.7870  178.9006  152.8473 C   0  0  0  0  0  0  0  0  0  0  0  0
  197.8011  179.8897  153.0641 C   0  0  0  0  0  0  0  0  0  0  0  0
  197.6930  180.5864  154.2783 N   0  0  0  0  0  0  0  0  0  0  0  0
  197.3593  181.9983  154.2331 C   0  0  1  0  0  0  0  0  0  0  0  0
  197.2059  182.6924  155.5695 C   0  0  0  0  0  0  0  0  0  0  0  0
  197.5913  184.0377  155.7134 C   0  0  0  0  0  0  0  0  0  0  0  0
  197.4035  184.7037  156.9399 C   0  0  0  0  0  0  0  0  0  0  0  0
  196.8185  184.0212  158.0371 C   0  0  0  0  0  0  0  0  0  0  0  0
  196.4490  182.6710  157.8912 C   0  0  0  0  0  0  0  0  0  0  0  0
  196.6058  182.0183  156.6492 C   0  0  0  0  0  0  0  0  0  0  0  0
  196.5857  184.7323  159.3617 C   0  0  1  0  0  0  0  0  0  0  0  0
  195.2019  185.2678  159.5064 N   0  0  2  0  0  0  0  0  0  0  0  0
  195.0798  186.1712  160.6720 C   0  0  2  0  0  0  0  0  0  0  0  0
  194.1454  184.2272  159.5228 C   0  0  2  0  0  0  0  0  0  0  0  0
  196.9387  180.2007  151.9723 C   0  0  0  0  0  0  0  0  0  0  0  0
  197.0088  179.5913  150.7784 N   0  0  0  0  0  0  0  0  0  0  0  0
  197.9495  178.6626  150.5642 C   0  0  0  0  0  0  0  0  0  0  0  0
  198.8653  178.2553  151.5824 C   0  0  0  0  0  0  0  0  0  0  0  0
  199.8042  177.2341  151.2870 C   0  0  0  0  0  0  0  0  0  0  0  0
  199.8753  176.6643  150.0015 C   0  0  0  0  0  0  0  0  0  0  0  0
  198.9731  177.0719  149.0021 C   0  0  0  0  0  0  0  0  0  0  0  0
  198.0229  178.0663  149.2931 C   0  0  0  0  0  0  0  0  0  0  0  0
  201.7120  178.0491  155.1796 C   0  0  1  0  0  0  0  0  0  0  0  0
  202.0974  176.5951  154.9336 C   0  0  0  0  0  0  0  0  0  0  0  0
  201.1495  175.5667  155.1259 C   0  0  0  0  0  0  0  0  0  0  0  0
  201.5121  174.2217  154.9185 C   0  0  0  0  0  0  0  0  0  0  0  0
  202.8256  173.8910  154.5348 C   0  0  0  0  0  0  0  0  0  0  0  0
  203.7729  174.9132  154.3369 C   0  0  0  0  0  0  0  0  0  0  0  0
  203.4092  176.2611  154.5306 C   0  0  0  0  0  0  0  0  0  0  0  0
  199.1624  178.1013  154.7421 H   0  0  0  0  0  0  0  0  0  0  0  0
  198.3136  180.3091  155.0449 H   0  0  0  0  0  0  0  0  0  0  0  0
  198.1464  182.5032  153.6770 H   0  0  0  0  0  0  0  0  0  0  0  0
  196.4195  182.1844  153.7122 H   0  0  0  0  0  0  0  0  0  0  0  0
  198.0144  184.5697  154.8692 H   0  0  0  0  0  0  0  0  0  0  0  0
  197.6948  185.7457  157.0244 H   0  0  0  0  0  0  0  0  0  0  0  0
  195.9947  182.1188  158.6951 H   0  0  0  0  0  0  0  0  0  0  0  0
  196.2311  181.0129  156.5331 H   0  0  0  0  0  0  0  0  0  0  0  0
  196.8224  184.0585  160.1886 H   0  0  0  0  0  0  0  0  0  0  0  0
  197.3049  185.5527  159.4348 H   0  0  0  0  0  0  0  0  0  0  0  0
  195.3090  185.6508  161.6036 H   0  0  0  0  0  0  0  0  0  0  0  0
  194.0627  186.5582  160.7546 H   0  0  0  0  0  0  0  0  0  0  0  0
  195.7521  187.0287  160.5934 H   0  0  0  0  0  0  0  0  0  0  0  0
  194.3455  183.5375  160.3409 H   0  0  0  0  0  0  0  0  0  0  0  0
  194.0952  183.6608  158.5955 H   0  0  0  0  0  0  0  0  0  0  0  0
  193.1540  184.6620  159.6564 H   0  0  0  0  0  0  0  0  0  0  0  0
  196.1455  180.9146  152.0329 H   0  0  0  0  0  0  0  0  0  0  0  0
  200.5020  176.8707  152.0292 H   0  0  0  0  0  0  0  0  0  0  0  0
  200.6280  175.9154  149.7926 H   0  0  0  0  0  0  0  0  0  0  0  0
  199.0306  176.6361  148.0174 H   0  0  0  0  0  0  0  0  0  0  0  0
  197.3272  178.3730  148.5209 H   0  0  0  0  0  0  0  0  0  0  0  0
  202.6098  178.6424  155.3567 H   0  0  0  0  0  0  0  0  0  0  0  0
  201.1035  178.1290  156.0800 H   0  0  0  0  0  0  0  0  0  0  0  0
  200.1418  175.8079  155.4309 H   0  0  0  0  0  0  0  0  0  0  0  0
  200.7826  173.4395  155.0567 H   0  0  0  0  0  0  0  0  0  0  0  0
  203.1003  172.8556  154.3849 H   0  0  0  0  0  0  0  0  0  0  0  0
  204.7808  174.6611  154.0390 H   0  0  0  0  0  0  0  0  0  0  0  0
  204.1446  177.0387  154.3837 H   0  0  0  0  0  0  0  0  0  0  0  0
  195.0232  185.8329  158.6891 H   0  0  0  0  0  0  0  0  0  0  0  0
  1  2  2  0
  2  3  1  0
  2 26  1  0
  3  4  1  0
  3 33  1  0
  4  5  2  0
  4 21  1  0
  5  6  1  0
  5 18  1  0
  6  7  1  0
  6 34  1  0
  7  8  1  0
  7 35  1  6
  7 36  1  0
  8  9  1  0
  8 13  2  0
  9 10  2  0
  9 37  1  0
 10 11  1  0
 10 38  1  0
 11 12  2  0
 11 14  1  0
 12 13  1  0
 12 39  1  0
 13 40  1  0
 14 15  1  0
 14 41  1  1
 14 42  1  0
 15 16  1  0
 15 17  1  0
 15 61  1  6
 16 43  1  1
 16 44  1  0
 16 45  1  0
 17 46  1  1
 17 47  1  0
 17 48  1  0
 18 19  2  0
 18 49  1  0
 19 20  1  0
 20 21  1  0
 20 25  2  0
 21 22  2  0
 22 23  1  0
 22 50  1  0
 23 24  2  0
 23 51  1  0
 24 25  1  0
 24 52  1  0
 25 53  1  0
 26 27  1  0
 26 54  1  1
 26 55  1  0
 27 28  2  0
 27 32  1  0
 28 29  1  0
 28 56  1  0
 29 30  2  0
 29 57  1  0
 30 31  1  0
 30 58  1  0
 31 32  2  0
 31 59  1  0
 32 60  1  0
M  CHG  1  15   1
M  END
>  <s_epik_cmdline>  (1292) 
J2VwaWtfcHl0aG9uJywgJy1waCcsICc3LjAwMDAwMCcsICctcGh0JywgJzIuMDAwMDAwJywgJy1tcycsICcxNicsICctdG4nLCAnOCcsICctbWEnLCAnMjAwJywgJy1pbWFlJywgJzxpbmZpbGUubWFlPicsICctb21hZScsICc8b3V0ZmlsZS5tYWU+Jw==

>  <s_epik_input>  (1292) 
W2NIXTFbY0hdW2NIXVtjSF1bY0hdYzFbQ0gyXUMoPU8pW05IXWMoYyhjMjMpW2NIXVtjSF1bY0hdW2NIXTMpYyhbY0hdbjIpW05IXVtDSDJdYzRbY0hdW2NIXWMoW2NIXVtjSF00KVtDSDJdTihbQ0gzXSlbQ0gzXQ==

>  <s_i_glide_gridfile>  (1292) 
ATP-Grid

>  <s_lp_Force_Field>  (1292) 
OPLS_2005

>  <s_lp_Variant>  (1292) 
rxn502b____EMOL530620____EMOL13728749____EMOL50155899-1

>  <s_lp_label>  (1292) 
2156_sdstereoexpander_1_neutralizer_1_epik_1_stereoizer_1

>  <s_m_source_file>  (1292) 
ATP-VSW-LIGPREP-003-in.maegz

>  <s_sd_BIOSOLVEIT.INFINISEE\_QUERY\_NAME>  (1292) 
Ref-Lig

>  <s_sd_BIOSOLVEIT.INFINISEE\_QUERY\_SMILES>  (1292) 
S(c1nc2c(cc1C[NH2+]Cc3ccc(cc3)C[NH+](C)C)cccc2)Cc4ccccc4

>  <s_sd_BIOSOLVEIT.INFINISEE\_REACTION\_NAME>  (1292) 
rxn502b

>  <s_sd_BIOSOLVEIT.INFINISEE\_REAGENT1\_NAME>  (1292) 
EMOL530620

>  <s_sd_BIOSOLVEIT.INFINISEE\_REAGENT1\_SMILES>  (1292) 
ClC(=O)Cc1ccccc1

>  <s_sd_BIOSOLVEIT.INFINISEE\_REAGENT2\_NAME>  (1292) 
EMOL13728749

>  <s_sd_BIOSOLVEIT.INFINISEE\_REAGENT2\_SMILES>  (1292) 
Brc1c(N)c2c(nc1)cccc2

>  <s_sd_BIOSOLVEIT.INFINISEE\_REAGENT3\_NAME>  (1292) 
EMOL50155899

>  <s_sd_BIOSOLVEIT.INFINISEE\_REAGENT3\_SMILES>  (1292) 
N(Cc1ccc(cc1)CN)(C)C

>  <s_sd_BIOSOLVEIT.INFINISEE\_SPACE>  (1292) 
eXplore_7tr_2022-12

>  <s_vsw_compound_code>  (1292) 
68963

>  <s_vsw_variant>  (1292) 
68963-1

>  <r_epik_Charging_Adjusted_Penalty>  (1292) 
0.0972452276180511

>  <r_epik_Ionization_Penalty>  (1292) 
0.058099999999999999

>  <r_epik_Ionization_Penalty_Charging>  (1292) 
0.039199999999999999

>  <r_epik_Ionization_Penalty_Neutral>  (1292) 
0.018800000000000001

>  <r_epik_State_Penalty>  (1292) 
0.058000000000000003

>  <r_i_docking_score>  (1292) 
-3.7963196105107899

>  <r_i_glide_ecoul>  (1292) 
-4.2770147323608398

>  <r_i_glide_eff_state_penalty>  (1292) 
0.058000000000000003

>  <r_i_glide_einternal>  (1292) 
2.61889743804932

>  <r_i_glide_emodel>  (1292) 
-52.484367910367801

>  <r_i_glide_energy>  (1292) 
-39.899104118347203

>  <r_i_glide_erotb>  (1292) 
0.76684582739809504

>  <r_i_glide_esite>  (1292) 
-0.026689873486843398

>  <r_i_glide_evdw>  (1292) 
-35.6220893859863

>  <r_i_glide_gscore>  (1292) 
-3.8543196105107902

>  <r_i_glide_hbond>  (1292) 
0

>  <r_i_glide_ligand_efficiency>  (1292) 
-0.118634987828462

>  <r_i_glide_ligand_efficiency_ln>  (1292) 
-0.85009944455755804

>  <r_i_glide_ligand_efficiency_sa>  (1292) 
-0.37664260852315701

>  <r_i_glide_lipo>  (1292) 
-1.66417361254133

>  <r_i_glide_metal>  (1292) 
-0

>  <r_i_glide_rewards>  (1292) 
-0.507645272727271

>  <r_lp_Energy>  (1292) 
30.539611000000001

>  <r_qp_ACxDN^.5/SA>  (1292) 
0.0126792

>  <r_qp_CIQPlogS>  (1292) 
-5.4640000000000004

>  <r_qp_EA(eV)>  (1292) 
0.91400000000000003

>  <r_qp_FISA>  (1292) 
62.762999999999998

>  <r_qp_FOSA>  (1292) 
242.63200000000001

>  <r_qp_IP(eV)>  (1292) 
8.5229999999999997

>  <r_qp_Jm>  (1292) 
0.043697690899376203

>  <r_qp_PISA>  (1292) 
419.60500000000002

>  <r_qp_PSA>  (1292) 
58.546999999999997

>  <r_qp_PercentHumanOralAbsorption>  (1292) 
100

>  <r_qp_QPPCaco>  (1292) 
627.505

>  <r_qp_QPPMDCK>  (1292) 
330.733

>  <r_qp_QPlogBB>  (1292) 
-0.11700000000000001

>  <r_qp_QPlogHERG>  (1292) 
-6.8869999999999996

>  <r_qp_QPlogKhsa>  (1292) 
0.80500000000000005

>  <r_qp_QPlogKp>  (1292) 
-2.4929999999999999

>  <r_qp_QPlogPC16>  (1292) 
15.074

>  <r_qp_QPlogPo/w>  (1292) 
4.8019999999999996

>  <r_qp_QPlogPoct>  (1292) 
22.991

>  <r_qp_QPlogPw>  (1292) 
12.311999999999999

>  <r_qp_QPlogS>  (1292) 
-4.4950000000000001

>  <r_qp_QPpolrz>  (1292) 
49.027000000000001

>  <r_qp_SASA>  (1292) 
725

>  <r_qp_SAamideO>  (1292) 
0

>  <r_qp_SAfluorine>  (1292) 
0

>  <r_qp_WPSA>  (1292) 
0

>  <r_qp_accptHB>  (1292) 
6.5

>  <r_qp_dip^2/V>  (1292) 
0.0189987

>  <r_qp_dipole>  (1292) 
5.1699999999999999

>  <r_qp_donorHB>  (1292) 
2

>  <r_qp_glob>  (1292) 
0.83759360000000005

>  <r_qp_mol_MW>  (1292) 
424.54399999999998

>  <r_qp_volume>  (1292) 
1407.05

>  <r_sd_BIOSOLVEIT.INFINISEE\_FTREES\_SIMILARITY>  (1292) 
0.94499999999999995

>  <r_sd_BIOSOLVEIT.LOGP>  (1292) 
3.6726000000000001

>  <r_sd_BIOSOLVEIT.MOLECULAR\_WEIGHT>  (1292) 
425.553

>  <r_sd_BIOSOLVEIT.TPSA>  (1292) 
58.460000000000001

>  <i_epik_Tot_Q>  (1292) 
1

>  <i_epik_Tot_abs_Q>  (1292) 
1

>  <i_f3d_flags>  (1292) 
0

>  <i_i_glide_confnum>  (1292) 
3

>  <i_i_glide_lignum>  (1292) 
806

>  <i_i_glide_posenum>  (1292) 
3

>  <i_i_glide_rotatable_bonds>  (1292) 
9

>  <i_lp_mmshare_version>  (1292) 
65135

>  <i_m_ct_format>  (1292) 
2

>  <i_m_source_file_index>  (1292) 
2156

>  <i_qp_#NandO>  (1292) 
5

>  <i_qp_#acid>  (1292) 
0

>  <i_qp_#amide>  (1292) 
0

>  <i_qp_#amidine>  (1292) 
0

>  <i_qp_#amine>  (1292) 
1

>  <i_qp_#in34>  (1292) 
0

>  <i_qp_#in56>  (1292) 
22

>  <i_qp_#metab>  (1292) 
7

>  <i_qp_#nonHatm>  (1292) 
32

>  <i_qp_#noncon>  (1292) 
0

>  <i_qp_#ringatoms>  (1292) 
22

>  <i_qp_#rotor>  (1292) 
8

>  <i_qp_#rtvFG>  (1292) 
0

>  <i_qp_#stars>  (1292) 
0

>  <i_qp_CNS>  (1292) 
1

>  <i_qp_HumanOralAbsorption>  (1292) 
3

>  <i_qp_RuleOfFive>  (1292) 
0

>  <i_qp_RuleOfThree>  (1292) 
1

>  <i_sd_BIOSOLVEIT.INFINISEE\_RESULT\_RANK>  (1292) 
568

>  <i_sd_version>  (1292) 
0

>  <b_lp_Chiralities_Consistent>  (1292) 
1

>  <b_sd_chiral_flag>  (1292) 
0

>  <canonical_id>  (1292) 
ATP-HTVS-CC453EE4B1F8

>  <compound_code>  (1292) 
68963

>  <title>  (1292) 
rxn502b____EMOL530620____EMOL13728749____EMOL50155899

>  <variant>  (1292) 
68963-1

>  <source_file>  (1292) 
运行/运行/ATP-VSW/ATP-VSW-DOCK_HTVS_1-003_lib/ATP-VSW-DOCK_HTVS_1-003_lib.mae

>  <canonical_smiles>  (1292) 
C[NH+](C)Cc1ccc(CNc2cnc3ccccc3c2NC(=O)Cc2ccccc2)cc1

>  <scaffold>  (1292) 
O=C(Cc1ccccc1)Nc1c(NCc2ccccc2)cnc2ccccc12

>  <molecular_formula>  (1292) 
C27H29N4O+

$$$$
ATP-HTVS-CC5603E93E79
     RDKit          3D

 64 67  0  0  0  0  0  0  0  0999 V2000
  196.6920  181.6161  155.6044 O   0  0  0  0  0  0  0  0  0  0  0  0
  197.7316  181.6036  156.2601 C   0  0  0  0  0  0  0  0  0  0  0  0
  198.7283  180.7051  156.1448 N   0  0  0  0  0  0  0  0  0  0  0  0
  199.0437  179.8120  155.0815 C   0  0  0  0  0  0  0  0  0  0  0  0
  198.3737  179.8623  153.9024 N   0  0  0  0  0  0  0  0  0  0  0  0
  198.7524  179.0677  152.8877 C   0  0  0  0  0  0  0  0  0  0  0  0
  199.8271  178.1733  152.9785 C   0  0  0  0  0  0  0  0  0  0  0  0
  200.5678  178.1006  154.1726 C   0  0  0  0  0  0  0  0  0  0  0  0
  201.7204  177.1743  154.2221 C   0  0  0  0  0  0  0  0  0  0  0  0
  203.0693  177.6044  154.0783 C   0  0  0  0  0  0  0  0  0  0  0  0
  204.1215  176.6687  154.1615 C   0  0  0  0  0  0  0  0  0  0  0  0
  203.8505  175.3016  154.3549 C   0  0  0  0  0  0  0  0  0  0  0  0
  202.5196  174.8596  154.4700 C   0  0  0  0  0  0  0  0  0  0  0  0
  202.2493  173.5022  154.6594 N   0  0  0  0  0  0  0  0  0  0  0  0
  201.4672  175.7931  154.3996 C   0  0  0  0  0  0  0  0  0  0  0  0
  203.4256  179.0615  153.8521 C   0  0  2  0  0  0  0  0  0  0  0  0
  200.1769  178.9533  155.2532 C   0  0  0  0  0  0  0  0  0  0  0  0
  200.9675  178.9456  156.5276 C   0  0  0  0  0  0  0  0  0  0  0  0
  201.0593  177.9208  157.2206 O   0  0  0  0  0  0  0  0  0  0  0  0
  201.6797  180.2200  156.9014 C   0  0  0  0  0  0  0  0  0  0  0  0
  201.7703  181.3332  156.0213 C   0  0  0  0  0  0  0  0  0  0  0  0
  202.4509  182.5092  156.3968 C   0  0  0  0  0  0  0  0  0  0  0  0
  203.0547  182.5970  157.6557 C   0  0  0  0  0  0  0  0  0  0  0  0
  202.9903  181.5013  158.5392 C   0  0  0  0  0  0  0  0  0  0  0  0
  202.3131  180.3190  158.1606 C   0  0  0  0  0  0  0  0  0  0  0  0
  197.9706  182.6132  157.3521 C   0  0  0  0  0  0  0  0  0  0  0  0
  197.0668  182.8055  158.4335 C   0  0  0  0  0  0  0  0  0  0  0  0
  197.3659  183.7728  159.4231 C   0  0  0  0  0  0  0  0  0  0  0  0
  198.5006  184.5946  159.3169 C   0  0  0  0  0  0  0  0  0  0  0  0
  199.3893  184.4125  158.2506 C   0  0  0  0  0  0  0  0  0  0  0  0
  199.1277  183.4281  157.2763 C   0  0  0  0  0  0  0  0  0  0  0  0
  195.8074  181.9646  158.6063 C   0  0  1  0  0  0  0  0  0  0  0  0
  194.5639  182.6274  158.1324 N   0  0  1  0  0  0  0  0  0  0  0  0
  193.4097  181.7043  158.1354 C   0  0  2  0  0  0  0  0  0  0  0  0
  194.2438  183.9030  158.8304 C   0  0  2  0  0  0  0  0  0  0  0  0
  199.4450  180.7988  156.8477 H   0  0  0  0  0  0  0  0  0  0  0  0
  198.1679  179.1350  151.9802 H   0  0  0  0  0  0  0  0  0  0  0  0
  200.0710  177.5369  152.1382 H   0  0  0  0  0  0  0  0  0  0  0  0
  205.1455  177.0069  154.0893 H   0  0  0  0  0  0  0  0  0  0  0  0
  204.6695  174.5974  154.4090 H   0  0  0  0  0  0  0  0  0  0  0  0
  201.3035  173.1548  154.6649 H   0  0  0  0  0  0  0  0  0  0  0  0
  202.9745  172.7963  154.6130 H   0  0  0  0  0  0  0  0  0  0  0  0
  200.4429  175.4603  154.4858 H   0  0  0  0  0  0  0  0  0  0  0  0
  204.4948  179.2148  153.7058 H   0  0  0  0  0  0  0  0  0  0  0  0
  203.1864  179.6178  154.7480 H   0  0  0  0  0  0  0  0  0  0  0  0
  202.8722  179.4800  153.0119 H   0  0  0  0  0  0  0  0  0  0  0  0
  201.3550  181.3256  155.0296 H   0  0  0  0  0  0  0  0  0  0  0  0
  202.4959  183.3312  155.7003 H   0  0  0  0  0  0  0  0  0  0  0  0
  203.5754  183.5034  157.9393 H   0  0  0  0  0  0  0  0  0  0  0  0
  203.4636  181.5652  159.5078 H   0  0  0  0  0  0  0  0  0  0  0  0
  202.2907  179.4775  158.8444 H   0  0  0  0  0  0  0  0  0  0  0  0
  196.6992  183.9177  160.2613 H   0  0  0  0  0  0  0  0  0  0  0  0
  198.6698  185.3748  160.0474 H   0  0  0  0  0  0  0  0  0  0  0  0
  200.2655  185.0399  158.1647 H   0  0  0  0  0  0  0  0  0  0  0  0
  199.8121  183.3199  156.4492 H   0  0  0  0  0  0  0  0  0  0  0  0
  195.9018  181.0496  158.0473 H   0  0  0  0  0  0  0  0  0  0  0  0
  195.7269  181.6899  159.6489 H   0  0  0  0  0  0  0  0  0  0  0  0
  193.1702  181.3668  159.1424 H   0  0  0  0  0  0  0  0  0  0  0  0
  193.6117  180.8269  157.5209 H   0  0  0  0  0  0  0  0  0  0  0  0
  192.5340  182.2041  157.7239 H   0  0  0  0  0  0  0  0  0  0  0  0
  194.1481  183.7484  159.9061 H   0  0  0  0  0  0  0  0  0  0  0  0
  193.2989  184.3036  158.4632 H   0  0  0  0  0  0  0  0  0  0  0  0
  194.9916  184.6751  158.6443 H   0  0  0  0  0  0  0  0  0  0  0  0
  194.6591  182.8283  157.1479 H   0  0  0  0  0  0  0  0  0  0  0  0
  1  2  2  0
  2  3  1  0
  2 26  1  0
  3  4  1  0
  3 36  1  0
  4  5  1  0
  4 17  2  0
  5  6  2  0
  6  7  1  0
  6 37  1  0
  7  8  2  0
  7 38  1  0
  8  9  1  0
  8 17  1  0
  9 10  2  0
  9 15  1  0
 10 11  1  0
 10 16  1  0
 11 12  2  0
 11 39  1  0
 12 13  1  0
 12 40  1  0
 13 14  1  0
 13 15  2  0
 14 41  1  0
 14 42  1  0
 15 43  1  0
 16 44  1  6
 16 45  1  0
 16 46  1  0
 17 18  1  0
 18 19  2  0
 18 20  1  0
 20 21  2  0
 20 25  1  0
 21 22  1  0
 21 47  1  0
 22 23  2  0
 22 48  1  0
 23 24  1  0
 23 49  1  0
 24 25  2  0
 24 50  1  0
 25 51  1  0
 26 27  1  0
 26 31  2  0
 27 28  2  0
 27 32  1  0
 28 29  1  0
 28 52  1  0
 29 30  2  0
 29 53  1  0
 30 31  1  0
 30 54  1  0
 31 55  1  0
 32 33  1  0
 32 56  1  6
 32 57  1  0
 33 34  1  0
 33 35  1  0
 33 64  1  6
 34 58  1  1
 34 59  1  0
 34 60  1  0
 35 61  1  1
 35 62  1  0
 35 63  1  0
M  CHG  1  33   1
M  END
>  <s_epik_cmdline>  (1293) 
J2VwaWtfcHl0aG9uJywgJy1waCcsICc3LjAwMDAwMCcsICctcGh0JywgJzIuMDAwMDAwJywgJy1tcycsICcxNicsICctdG4nLCAnOCcsICctbWEnLCAnMjAwJywgJy1pbWFlJywgJzxpbmZpbGUubWFlPicsICctb21hZScsICc8b3V0ZmlsZS5tYWU+Jw==

>  <s_epik_input>  (1293) 
W2NIXTFbY0hdW2NIXVtjSF1jKFtDSDJdTihbQ0gzXSlbQ0gzXSljMUMoPU8pW05IXWMybltjSF1bY0hdYygtYzNjKFtDSDNdKVtjSF1bY0hdYyhbTkgyXSlbY0hdMyljMkMoPU8pYzRbY0hdW2NIXVtjSF1bY0hdW2NIXTQ=

>  <s_i_glide_gridfile>  (1293) 
ATP-Grid

>  <s_lp_Force_Field>  (1293) 
OPLS_2005

>  <s_lp_Variant>  (1293) 
rxn501c____EMOL5415347____EMOL36251210____EMOL44813384-1

>  <s_lp_label>  (1293) 
2517_sdstereoexpander_1_neutralizer_1_epik_1_stereoizer_1

>  <s_m_source_file>  (1293) 
ATP-VSW-LIGPREP-001-in.maegz

>  <s_sd_BIOSOLVEIT.INFINISEE\_QUERY\_NAME>  (1293) 
Ref-Lig

>  <s_sd_BIOSOLVEIT.INFINISEE\_QUERY\_SMILES>  (1293) 
S(c1nc2c(cc1C[NH2+]Cc3ccc(cc3)C[NH+](C)C)cccc2)Cc4ccccc4

>  <s_sd_BIOSOLVEIT.INFINISEE\_REACTION\_NAME>  (1293) 
rxn501c

>  <s_sd_BIOSOLVEIT.INFINISEE\_REAGENT1\_NAME>  (1293) 
EMOL5415347

>  <s_sd_BIOSOLVEIT.INFINISEE\_REAGENT1\_SMILES>  (1293) 
O=C(O)c1c(cccc1)CN(C)C

>  <s_sd_BIOSOLVEIT.INFINISEE\_REAGENT2\_NAME>  (1293) 
EMOL36251210

>  <s_sd_BIOSOLVEIT.INFINISEE\_REAGENT2\_SMILES>  (1293) 
Clc1c(c(ncc1)N)C(=O)c2ccccc2

>  <s_sd_BIOSOLVEIT.INFINISEE\_REAGENT3\_NAME>  (1293) 
EMOL44813384

>  <s_sd_BIOSOLVEIT.INFINISEE\_REAGENT3\_SMILES>  (1293) 
OB(O)c1c(ccc(N)c1)C

>  <s_sd_BIOSOLVEIT.INFINISEE\_SPACE>  (1293) 
eXplore_7tr_2022-12

>  <s_vsw_compound_code>  (1293) 
80513

>  <s_vsw_variant>  (1293) 
80513-1

>  <r_epik_Charging_Adjusted_Penalty>  (1293) 
0.120106230221407

>  <r_epik_Ionization_Penalty>  (1293) 
0.065600000000000006

>  <r_epik_Ionization_Penalty_Charging>  (1293) 
0.060100000000000001

>  <r_epik_Ionization_Penalty_Neutral>  (1293) 
0.0054999999999999997

>  <r_epik_State_Penalty>  (1293) 
0.060100000000000001

>  <r_i_docking_score>  (1293) 
-3.2455947566089098

>  <r_i_glide_ecoul>  (1293) 
-6.0547637939453098

>  <r_i_glide_eff_state_penalty>  (1293) 
0.060100000000000001

>  <r_i_glide_einternal>  (1293) 
3.2487435340881299

>  <r_i_glide_emodel>  (1293) 
-51.853041610976199

>  <r_i_glide_energy>  (1293) 
-41.726146697997997

>  <r_i_glide_erotb>  (1293) 
0.65132733116046104

>  <r_i_glide_esite>  (1293) 
-0.189540736520287

>  <r_i_glide_evdw>  (1293) 
-35.671382904052699

>  <r_i_glide_gscore>  (1293) 
-3.3056947566089101

>  <r_i_glide_hbond>  (1293) 
-0.15848177809774699

>  <r_i_glide_ligand_efficiency>  (1293) 
-0.092731278760254707

>  <r_i_glide_ligand_efficiency_ln>  (1293) 
-0.71248008117029304

>  <r_i_glide_ligand_efficiency_sa>  (1293) 
-0.30333016149389402

>  <r_i_glide_lipo>  (1293) 
-0.63821205425250305

>  <r_i_glide_metal>  (1293) 
-0

>  <r_i_glide_rewards>  (1293) 
-0.27900380460440599

>  <r_lp_Energy>  (1293) 
40.455640000000002

>  <r_qp_ACxDN^.5/SA>  (1293) 
0.0121011

>  <r_qp_CIQPlogS>  (1293) 
-6.0270000000000001

>  <r_qp_EA(eV)>  (1293) 
0.82699999999999996

>  <r_qp_FISA>  (1293) 
123.155

>  <r_qp_FOSA>  (1293) 
213.53999999999999

>  <r_qp_IP(eV)>  (1293) 
8.1140000000000008

>  <r_qp_Jm>  (1293) 
0.0020479310599992402

>  <r_qp_PISA>  (1293) 
422.37200000000001

>  <r_qp_PSA>  (1293) 
93.408000000000001

>  <r_qp_PercentHumanOralAbsorption>  (1293) 
92.174999999999997

>  <r_qp_QPPCaco>  (1293) 
167.84999999999999

>  <r_qp_QPPMDCK>  (1293) 
79.516999999999996

>  <r_qp_QPlogBB>  (1293) 
-0.747

>  <r_qp_QPlogHERG>  (1293) 
-7.2140000000000004

>  <r_qp_QPlogKhsa>  (1293) 
0.745

>  <r_qp_QPlogKp>  (1293) 
-3.5960000000000001

>  <r_qp_QPlogPC16>  (1293) 
15.882

>  <r_qp_QPlogPo/w>  (1293) 
4.3390000000000004

>  <r_qp_QPlogPoct>  (1293) 
23.934999999999999

>  <r_qp_QPlogPw>  (1293) 
13.076000000000001

>  <r_qp_QPlogS>  (1293) 
-4.7599999999999998

>  <r_qp_QPpolrz>  (1293) 
50.984000000000002

>  <r_qp_SASA>  (1293) 
759.06700000000001

>  <r_qp_SAamideO>  (1293) 
0

>  <r_qp_SAfluorine>  (1293) 
0

>  <r_qp_WPSA>  (1293) 
0

>  <r_qp_accptHB>  (1293) 
7.5

>  <r_qp_dip^2/V>  (1293) 
0.034031199999999998

>  <r_qp_dipole>  (1293) 
7.0369999999999999

>  <r_qp_donorHB>  (1293) 
1.5

>  <r_qp_glob>  (1293) 
0.81819200000000003

>  <r_qp_mol_MW>  (1293) 
464.56599999999997

>  <r_qp_volume>  (1293) 
1455.3109999999999

>  <r_sd_BIOSOLVEIT.INFINISEE\_FTREES\_SIMILARITY>  (1293) 
0.91400000000000003

>  <r_sd_BIOSOLVEIT.LOGP>  (1293) 
3.76702

>  <r_sd_BIOSOLVEIT.MOLECULAR\_WEIGHT>  (1293) 
465.57400000000001

>  <r_sd_BIOSOLVEIT.TPSA>  (1293) 
89.519999999999996

>  <i_epik_Tot_Q>  (1293) 
1

>  <i_epik_Tot_abs_Q>  (1293) 
1

>  <i_f3d_flags>  (1293) 
0

>  <i_i_glide_confnum>  (1293) 
6

>  <i_i_glide_lignum>  (1293) 
992

>  <i_i_glide_posenum>  (1293) 
11

>  <i_i_glide_rotatable_bonds>  (1293) 
8

>  <i_lp_mmshare_version>  (1293) 
65135

>  <i_m_ct_format>  (1293) 
2

>  <i_m_source_file_index>  (1293) 
2517

>  <i_qp_#NandO>  (1293) 
6

>  <i_qp_#acid>  (1293) 
0

>  <i_qp_#amide>  (1293) 
0

>  <i_qp_#amidine>  (1293) 
0

>  <i_qp_#amine>  (1293) 
1

>  <i_qp_#in34>  (1293) 
0

>  <i_qp_#in56>  (1293) 
24

>  <i_qp_#metab>  (1293) 
5

>  <i_qp_#nonHatm>  (1293) 
35

>  <i_qp_#noncon>  (1293) 
0

>  <i_qp_#ringatoms>  (1293) 
24

>  <i_qp_#rotor>  (1293) 
8

>  <i_qp_#rtvFG>  (1293) 
0

>  <i_qp_#stars>  (1293) 
0

>  <i_qp_CNS>  (1293) 
0

>  <i_qp_HumanOralAbsorption>  (1293) 
3

>  <i_qp_RuleOfFive>  (1293) 
0

>  <i_qp_RuleOfThree>  (1293) 
0

>  <i_sd_BIOSOLVEIT.INFINISEE\_RESULT\_RANK>  (1293) 
32579

>  <i_sd_version>  (1293) 
0

>  <b_lp_Chiralities_Consistent>  (1293) 
1

>  <b_sd_chiral_flag>  (1293) 
0

>  <canonical_id>  (1293) 
ATP-HTVS-CC5603E93E79

>  <compound_code>  (1293) 
80513

>  <title>  (1293) 
rxn501c____EMOL5415347____EMOL36251210____EMOL44813384

>  <variant>  (1293) 
80513-1

>  <source_file>  (1293) 
运行/运行/ATP-VSW/ATP-VSW-DOCK_HTVS_1-001_lib/ATP-VSW-DOCK_HTVS_1-001_lib

>  <canonical_smiles>  (1293) 
Cc1ccc(N)cc1-c1ccnc(NC(=O)c2ccccc2C[NH+](C)C)c1C(=O)c1ccccc1

>  <scaffold>  (1293) 
O=C(Nc1nccc(-c2ccccc2)c1C(=O)c1ccccc1)c1ccccc1

>  <molecular_formula>  (1293) 
C29H29N4O2+

$$$$
ATP-HTVS-CC671C1EED81
     RDKit          3D

 61 64  0  0  0  0  0  0  0  0999 V2000
  200.3493  176.3106  153.6646 F   0  0  0  0  0  0  0  0  0  0  0  0
  200.4487  176.9366  154.8634 C   0  0  0  0  0  0  0  0  0  0  0  0
  200.2176  178.3229  154.9656 C   0  0  0  0  0  0  0  0  0  0  0  0
  199.8958  179.0173  153.7270 C   0  0  0  0  0  0  0  0  0  0  0  0
  199.6402  179.5746  152.7507 N   0  0  0  0  0  0  0  0  0  0  0  0
  200.3208  178.9728  156.2352 C   0  0  0  0  0  0  0  0  0  0  0  0
  200.6586  178.1987  157.3668 C   0  0  0  0  0  0  0  0  0  0  0  0
  200.8779  176.8163  157.2537 C   0  0  0  0  0  0  0  0  0  0  0  0
  200.7793  176.1875  156.0026 C   0  0  0  0  0  0  0  0  0  0  0  0
  200.1547  180.4615  156.4165 C   0  0  0  0  0  0  0  0  0  0  0  0
  200.8839  181.0794  157.1947 O   0  0  0  0  0  0  0  0  0  0  0  0
  199.1488  181.0144  155.7356 N   0  0  0  0  0  0  0  0  0  0  0  0
  198.8961  182.3962  155.4967 C   0  0  0  0  0  0  0  0  0  0  0  0
  199.2524  183.3320  156.4038 N   0  0  0  0  0  0  0  0  0  0  0  0
  198.8719  184.6118  156.2328 C   0  0  0  0  0  0  0  0  0  0  0  0
  197.9073  185.0081  155.2595 C   0  0  0  0  0  0  0  0  0  0  0  0
  197.1997  186.2237  155.3331 N   0  0  0  0  0  0  0  0  0  0  0  0
  196.9140  186.9566  156.5827 C   0  0  1  0  0  0  0  0  0  0  0  0
  196.5861  186.1859  157.8678 C   0  0  0  0  0  0  0  0  0  0  0  0
  196.5888  184.7922  157.9327 C   0  0  0  0  0  0  0  0  0  0  0  0
  196.4187  183.9877  159.0408 C   0  0  0  0  0  0  0  0  0  0  0  0
  196.1362  184.6520  160.2239 C   0  0  0  0  0  0  0  0  0  0  0  0
  196.0741  186.0643  160.2320 C   0  0  0  0  0  0  0  0  0  0  0  0
  196.3067  186.8312  159.0689 C   0  0  0  0  0  0  0  0  0  0  0  0
  196.5817  182.4783  158.9330 C   0  0  1  0  0  0  0  0  0  0  0  0
  195.7014  181.8193  157.9093 N   0  0  2  0  0  0  0  0  0  0  0  0
  195.9702  182.1620  156.5212 C   0  0  2  0  0  0  0  0  0  0  0  0
  194.2754  182.0091  158.1325 C   0  0  2  0  0  0  0  0  0  0  0  0
  197.4731  184.0266  154.3485 C   0  0  0  0  0  0  0  0  0  0  0  0
  197.9798  182.7043  154.4477 C   0  0  0  0  0  0  0  0  0  0  0  0
  197.4457  181.7209  153.5768 N   0  0  0  0  0  0  0  0  0  0  0  0
  196.8509  180.4938  153.8855 C   0  0  0  0  0  0  0  0  0  0  0  0
  196.5508  179.8613  152.7099 C   0  0  0  0  0  0  0  0  0  0  0  0
  196.9414  180.7259  151.6513 C   0  0  0  0  0  0  0  0  0  0  0  0
  197.4624  181.8582  152.2090 C   0  0  0  0  0  0  0  0  0  0  0  0
  200.7367  178.6591  158.3411 H   0  0  0  0  0  0  0  0  0  0  0  0
  201.1173  176.2366  158.1312 H   0  0  0  0  0  0  0  0  0  0  0  0
  200.9451  175.1250  155.9142 H   0  0  0  0  0  0  0  0  0  0  0  0
  198.5312  180.3649  155.2641 H   0  0  0  0  0  0  0  0  0  0  0  0
  199.0408  185.2341  157.1015 H   0  0  0  0  0  0  0  0  0  0  0  0
  196.5749  186.4472  154.5631 H   0  0  0  0  0  0  0  0  0  0  0  0
  197.7510  187.6269  156.7744 H   0  0  0  0  0  0  0  0  0  0  0  0
  196.0565  187.6048  156.3863 H   0  0  0  0  0  0  0  0  0  0  0  0
  196.8272  184.2834  157.0979 H   0  0  0  0  0  0  0  0  0  0  0  0
  195.9924  184.0673  161.1082 H   0  0  0  0  0  0  0  0  0  0  0  0
  195.8626  186.5665  161.1515 H   0  0  0  0  0  0  0  0  0  0  0  0
  196.2813  187.9045  159.0803 H   0  0  0  0  0  0  0  0  0  0  0  0
  197.6340  182.2224  158.7722 H   0  0  0  0  0  0  0  0  0  0  0  0
  196.3047  182.0417  159.8871 H   0  0  0  0  0  0  0  0  0  0  0  0
  195.7580  183.1522  156.1842 H   0  0  0  0  0  0  0  0  0  0  0  0
  195.4865  181.6169  155.7412 H   0  0  0  0  0  0  0  0  0  0  0  0
  196.9747  181.8645  156.5056 H   0  0  0  0  0  0  0  0  0  0  0  0
  194.0309  183.0663  158.0684 H   0  0  0  0  0  0  0  0  0  0  0  0
  194.0163  181.6018  159.0991 H   0  0  0  0  0  0  0  0  0  0  0  0
  193.7324  181.4707  157.3480 H   0  0  0  0  0  0  0  0  0  0  0  0
  196.6715  184.2504  153.6525 H   0  0  0  0  0  0  0  0  0  0  0  0
  196.7217  180.1398  154.8985 H   0  0  0  0  0  0  0  0  0  0  0  0
  196.1304  178.8699  152.6180 H   0  0  0  0  0  0  0  0  0  0  0  0
  196.8839  180.5344  150.5929 H   0  0  0  0  0  0  0  0  0  0  0  0
  197.8923  182.7443  151.7679 H   0  0  0  0  0  0  0  0  0  0  0  0
  195.9164  180.8343  157.9305 H   0  0  0  0  0  0  0  0  0  0  0  0
  1  2  1  0
  2  3  2  0
  2  9  1  0
  3  4  1  0
  3  6  1  0
  4  5  3  0
  6  7  2  0
  6 10  1  0
  7  8  1  0
  7 36  1  0
  8  9  2  0
  8 37  1  0
  9 38  1  0
 10 11  2  0
 10 12  1  0
 12 13  1  0
 12 39  1  0
 13 14  1  0
 13 30  2  0
 14 15  2  0
 15 16  1  0
 15 40  1  0
 16 17  1  0
 16 29  2  0
 17 18  1  0
 17 41  1  0
 18 19  1  0
 18 42  1  1
 18 43  1  0
 19 20  2  0
 19 24  1  0
 20 21  1  0
 20 44  1  0
 21 22  2  0
 21 25  1  0
 22 23  1  0
 22 45  1  0
 23 24  2  0
 23 46  1  0
 24 47  1  0
 25 26  1  0
 25 48  1  6
 25 49  1  0
 26 27  1  0
 26 28  1  0
 26 61  1  6
 27 50  1  1
 27 51  1  0
 27 52  1  0
 28 53  1  1
 28 54  1  0
 28 55  1  0
 29 30  1  0
 29 56  1  0
 30 31  1  0
 31 32  1  0
 31 35  1  0
 32 33  2  0
 32 57  1  0
 33 34  1  0
 33 58  1  0
 34 35  2  0
 34 59  1  0
 35 60  1  0
M  CHG  1  26   1
M  END
>  <s_epik_cmdline>  (1294) 
J2VwaWtfcHl0aG9uJywgJy1waCcsICc3LjAwMDAwMCcsICctcGh0JywgJzIuMDAwMDAwJywgJy1tcycsICcxNicsICctdG4nLCAnOCcsICctbWEnLCAnMjAwJywgJy1pbWFlJywgJzxpbmZpbGUubWFlPicsICctb21hZScsICc8b3V0ZmlsZS5tYWU+Jw==

>  <s_epik_input>  (1294) 
RmMxYyhDI04pYyhbY0hdW2NIXVtjSF0xKUMoPU8pW05IXWMybltjSF1jKFtjSF1jMi1uM1tjSF1bY0hdW2NIXVtjSF0zKVtOSF1bQ0gyXWM0W2NIXWMoW2NIXVtjSF1bY0hdNClbQ0gyXU4oW0NIM10pW0NIM10=

>  <s_i_glide_gridfile>  (1294) 
ATP-Grid

>  <s_lp_Force_Field>  (1294) 
OPLS_2005

>  <s_lp_Variant>  (1294) 
rxn502b____EMOL44385606____EMOL4363915____EMOL2873214-3

>  <s_lp_label>  (1294) 
2491_sdstereoexpander_1_neutralizer_1_epik_3_stereoizer_1

>  <s_m_source_file>  (1294) 
ATP-VSW-LIGPREP-002-in.maegz

>  <s_sd_BIOSOLVEIT.INFINISEE\_QUERY\_NAME>  (1294) 
Ref-Lig

>  <s_sd_BIOSOLVEIT.INFINISEE\_QUERY\_SMILES>  (1294) 
S(c1nc2c(cc1C[NH2+]Cc3ccc(cc3)C[NH+](C)C)cccc2)Cc4ccccc4

>  <s_sd_BIOSOLVEIT.INFINISEE\_REACTION\_NAME>  (1294) 
rxn502b

>  <s_sd_BIOSOLVEIT.INFINISEE\_REAGENT1\_NAME>  (1294) 
EMOL44385606

>  <s_sd_BIOSOLVEIT.INFINISEE\_REAGENT1\_SMILES>  (1294) 
Fc1c(C#N)c(ccc1)C(=O)O

>  <s_sd_BIOSOLVEIT.INFINISEE\_REAGENT2\_NAME>  (1294) 
EMOL4363915

>  <s_sd_BIOSOLVEIT.INFINISEE\_REAGENT2\_SMILES>  (1294) 
Brc1cnc(N)c(N2C=CC=C2)c1

>  <s_sd_BIOSOLVEIT.INFINISEE\_REAGENT3\_NAME>  (1294) 
EMOL2873214

>  <s_sd_BIOSOLVEIT.INFINISEE\_REAGENT3\_SMILES>  (1294) 
N(Cc1cc(ccc1)CN)(C)C

>  <s_sd_BIOSOLVEIT.INFINISEE\_SPACE>  (1294) 
eXplore_7tr_2022-12

>  <s_vsw_compound_code>  (1294) 
79682

>  <s_vsw_variant>  (1294) 
79682-3

>  <r_epik_Charging_Adjusted_Penalty>  (1294) 
1.7540141833021601

>  <r_epik_Ionization_Penalty>  (1294) 
0.086800000000000002

>  <r_epik_Ionization_Penalty_Charging>  (1294) 
0.0441

>  <r_epik_Ionization_Penalty_Neutral>  (1294) 
0.042700000000000002

>  <r_epik_State_Penalty>  (1294) 
1.7099

>  <r_i_docking_score>  (1294) 
-3.7182175857231199

>  <r_i_glide_ecoul>  (1294) 
-10.4766960144043

>  <r_i_glide_eff_state_penalty>  (1294) 
1.7099

>  <r_i_glide_einternal>  (1294) 
8.0219058990478498

>  <r_i_glide_emodel>  (1294) 
-66.490882796401493

>  <r_i_glide_energy>  (1294) 
-46.625885009765597

>  <r_i_glide_erotb>  (1294) 
0.73294346739628302

>  <r_i_glide_esite>  (1294) 
-0.145517926541814

>  <r_i_glide_evdw>  (1294) 
-36.1491889953613

>  <r_i_glide_gscore>  (1294) 
-5.4281175857231201

>  <r_i_glide_hbond>  (1294) 
-0.426422416367089

>  <r_i_glide_ligand_efficiency>  (1294) 
-0.106234788163518

>  <r_i_glide_ligand_efficiency_ln>  (1294) 
-0.81623128145940504

>  <r_i_glide_ligand_efficiency_sa>  (1294) 
-0.34750103611987498

>  <r_i_glide_lipo>  (1294) 
-1.67821467832888

>  <r_i_glide_metal>  (1294) 
-0

>  <r_i_glide_rewards>  (1294) 
-0.53194217995291304

>  <r_lp_Energy>  (1294) 
25.929476999999999

>  <r_qp_ACxDN^.5/SA>  (1294) 
0.0158967

>  <r_qp_CIQPlogS>  (1294) 
-6.8230000000000004

>  <r_qp_EA(eV)>  (1294) 
1.1779999999999999

>  <r_qp_FISA>  (1294) 
85.316000000000003

>  <r_qp_FOSA>  (1294) 
150.47900000000001

>  <r_qp_IP(eV)>  (1294) 
8.5310000000000006

>  <r_qp_Jm>  (1294) 
0.0072724031611823697

>  <r_qp_PISA>  (1294) 
435.30099999999999

>  <r_qp_PSA>  (1294) 
85.692999999999998

>  <r_qp_PercentHumanOralAbsorption>  (1294) 
100

>  <r_qp_QPPCaco>  (1294) 
383.48599999999999

>  <r_qp_QPPMDCK>  (1294) 
324.15899999999999

>  <r_qp_QPlogBB>  (1294) 
-0.217

>  <r_qp_QPlogHERG>  (1294) 
-6.8390000000000004

>  <r_qp_QPlogKhsa>  (1294) 
0.48499999999999999

>  <r_qp_QPlogKp>  (1294) 
-2.8530000000000002

>  <r_qp_QPlogPC16>  (1294) 
14.896000000000001

>  <r_qp_QPlogPo/w>  (1294) 
4.1020000000000003

>  <r_qp_QPlogPoct>  (1294) 
23.827000000000002

>  <r_qp_QPlogPw>  (1294) 
14.032

>  <r_qp_QPlogS>  (1294) 
-4.9560000000000004

>  <r_qp_QPpolrz>  (1294) 
48.383000000000003

>  <r_qp_SASA>  (1294) 
711.70299999999997

>  <r_qp_SAamideO>  (1294) 
0

>  <r_qp_SAfluorine>  (1294) 
40.606999999999999

>  <r_qp_WPSA>  (1294) 
40.606999999999999

>  <r_qp_accptHB>  (1294) 
8

>  <r_qp_dip^2/V>  (1294) 
0.0109441

>  <r_qp_dipole>  (1294) 
3.8959999999999999

>  <r_qp_donorHB>  (1294) 
2

>  <r_qp_glob>  (1294) 
0.84521310000000005

>  <r_qp_mol_MW>  (1294) 
468.53199999999998

>  <r_qp_volume>  (1294) 
1387.2339999999999

>  <r_sd_BIOSOLVEIT.INFINISEE\_FTREES\_SIMILARITY>  (1294) 
0.91500000000000004

>  <r_sd_BIOSOLVEIT.LOGP>  (1294) 
3.3919800000000002

>  <r_sd_BIOSOLVEIT.MOLECULAR\_WEIGHT>  (1294) 
469.541

>  <r_sd_BIOSOLVEIT.TPSA>  (1294) 
87.180000000000007

>  <i_epik_Tot_Q>  (1294) 
1

>  <i_epik_Tot_abs_Q>  (1294) 
1

>  <i_f3d_flags>  (1294) 
0

>  <i_i_glide_confnum>  (1294) 
6

>  <i_i_glide_lignum>  (1294) 
1082

>  <i_i_glide_posenum>  (1294) 
6

>  <i_i_glide_rotatable_bonds>  (1294) 
9

>  <i_lp_mmshare_version>  (1294) 
65135

>  <i_m_ct_format>  (1294) 
2

>  <i_m_source_file_index>  (1294) 
2491

>  <i_qp_#NandO>  (1294) 
7

>  <i_qp_#acid>  (1294) 
0

>  <i_qp_#amide>  (1294) 
0

>  <i_qp_#amidine>  (1294) 
0

>  <i_qp_#amine>  (1294) 
1

>  <i_qp_#in34>  (1294) 
0

>  <i_qp_#in56>  (1294) 
23

>  <i_qp_#metab>  (1294) 
6

>  <i_qp_#nonHatm>  (1294) 
35

>  <i_qp_#noncon>  (1294) 
0

>  <i_qp_#ringatoms>  (1294) 
23

>  <i_qp_#rotor>  (1294) 
8

>  <i_qp_#rtvFG>  (1294) 
0

>  <i_qp_#stars>  (1294) 
0

>  <i_qp_CNS>  (1294) 
1

>  <i_qp_HumanOralAbsorption>  (1294) 
3

>  <i_qp_RuleOfFive>  (1294) 
0

>  <i_qp_RuleOfThree>  (1294) 
0

>  <i_sd_BIOSOLVEIT.INFINISEE\_RESULT\_RANK>  (1294) 
29576

>  <i_sd_version>  (1294) 
0

>  <b_lp_Chiralities_Consistent>  (1294) 
1

>  <b_sd_chiral_flag>  (1294) 
0

>  <canonical_id>  (1294) 
ATP-HTVS-CC671C1EED81

>  <compound_code>  (1294) 
79682

>  <title>  (1294) 
rxn502b____EMOL44385606____EMOL4363915____EMOL2873214

>  <variant>  (1294) 
79682-3

>  <source_file>  (1294) 
运行/运行/ATP-VSW/ATP-VSW-DOCK_HTVS_1-002_lib.maegz

>  <canonical_smiles>  (1294) 
C[NH+](C)Cc1cccc(CNc2cnc(NC(=O)c3cccc(F)c3C#N)c(-n3cccc3)c2)c1

>  <scaffold>  (1294) 
O=C(Nc1ncc(NCc2ccccc2)cc1-n1cccc1)c1ccccc1

>  <molecular_formula>  (1294) 
C27H26FN6O+

$$$$
ATP-HTVS-CC7A8C42BA33
     RDKit          3D

 56 59  0  0  0  0  0  0  0  0999 V2000
  200.4480  180.8841  152.9873 O   0  0  0  0  0  0  0  0  0  0  0  0
  199.4431  181.3610  153.5148 C   0  0  0  0  0  0  0  0  0  0  0  0
  198.2784  180.7437  153.8135 N   0  0  0  0  0  0  0  0  0  0  0  0
  197.2834  181.6284  154.4659 C   0  0  2  0  0  0  0  0  0  0  0  0
  197.9998  182.9626  154.4305 C   0  0  0  0  0  0  0  0  0  0  0  0
  199.2639  182.7799  153.8998 C   0  0  0  0  0  0  0  0  0  0  0  0
  200.1667  183.8459  153.7412 C   0  0  0  0  0  0  0  0  0  0  0  0
  199.7372  185.1308  154.1463 C   0  0  0  0  0  0  0  0  0  0  0  0
  198.4369  185.3247  154.6740 C   0  0  0  0  0  0  0  0  0  0  0  0
  197.5463  184.2383  154.8123 C   0  0  0  0  0  0  0  0  0  0  0  0
  196.9798  181.1505  155.9055 C   0  0  1  0  0  0  0  0  0  0  0  0
  196.1065  182.1023  156.6227 N   0  0  1  0  0  0  0  0  0  0  0  0
  196.0067  181.8802  158.0786 C   0  0  1  0  0  0  0  0  0  0  0  0
  195.6762  183.1923  158.7701 C   0  0  0  0  0  0  0  0  0  0  0  0
  196.6718  184.1467  159.1144 C   0  0  0  0  0  0  0  0  0  0  0  0
  196.3070  185.3510  159.7726 C   0  0  0  0  0  0  0  0  0  0  0  0
  197.2982  186.2583  160.0846 O   0  0  0  0  0  0  0  0  0  0  0  0
  196.9194  187.5627  160.5138 C   0  0  2  0  0  0  0  0  0  0  0  0
  194.9468  185.5719  160.0868 C   0  0  0  0  0  0  0  0  0  0  0  0
  193.9674  184.6310  159.7331 C   0  0  0  0  0  0  0  0  0  0  0  0
  194.3273  183.4504  159.0649 C   0  0  0  0  0  0  0  0  0  0  0  0
  198.1344  183.8890  158.7753 C   0  0  2  0  0  0  0  0  0  0  0  0
  197.9495  179.3806  153.4171 C   0  0  1  0  0  0  0  0  0  0  0  0
  197.5718  179.2621  151.9496 C   0  0  0  0  0  0  0  0  0  0  0  0
  198.3995  178.5424  151.0598 C   0  0  0  0  0  0  0  0  0  0  0  0
  198.0534  178.4389  149.6965 C   0  0  0  0  0  0  0  0  0  0  0  0
  196.8826  179.0587  149.2187 C   0  0  0  0  0  0  0  0  0  0  0  0
  196.0547  179.7742  150.1054 C   0  0  0  0  0  0  0  0  0  0  0  0
  196.3921  179.8680  151.4671 C   0  0  0  0  0  0  0  0  0  0  0  0
  196.5202  183.0136  156.5038 H   0  0  0  0  0  0  0  0  0  0  0  0
  196.3720  181.6925  153.8743 H   0  0  0  0  0  0  0  0  0  0  0  0
  201.1473  183.6892  153.3142 H   0  0  0  0  0  0  0  0  0  0  0  0
  200.4013  185.9756  154.0393 H   0  0  0  0  0  0  0  0  0  0  0  0
  198.1165  186.3130  154.9663 H   0  0  0  0  0  0  0  0  0  0  0  0
  196.5455  184.3999  155.1856 H   0  0  0  0  0  0  0  0  0  0  0  0
  196.5006  180.1722  155.8935 H   0  0  0  0  0  0  0  0  0  0  0  0
  197.9158  181.0350  156.4517 H   0  0  0  0  0  0  0  0  0  0  0  0
  195.2294  181.1470  158.2940 H   0  0  0  0  0  0  0  0  0  0  0  0
  196.9335  181.4819  158.4913 H   0  0  0  0  0  0  0  0  0  0  0  0
  197.8165  188.1561  160.6971 H   0  0  0  0  0  0  0  0  0  0  0  0
  196.3490  187.5439  161.4435 H   0  0  0  0  0  0  0  0  0  0  0  0
  196.3402  188.0758  159.7451 H   0  0  0  0  0  0  0  0  0  0  0  0
  194.6120  186.4663  160.5896 H   0  0  0  0  0  0  0  0  0  0  0  0
  192.9268  184.8256  159.9520 H   0  0  0  0  0  0  0  0  0  0  0  0
  193.5609  182.7402  158.7883 H   0  0  0  0  0  0  0  0  0  0  0  0
  198.7506  184.7813  158.8885 H   0  0  0  0  0  0  0  0  0  0  0  0
  198.2451  183.5610  157.7425 H   0  0  0  0  0  0  0  0  0  0  0  0
  198.5359  183.1189  159.4342 H   0  0  0  0  0  0  0  0  0  0  0  0
  198.7916  178.7264  153.6586 H   0  0  0  0  0  0  0  0  0  0  0  0
  197.1051  179.0347  154.0078 H   0  0  0  0  0  0  0  0  0  0  0  0
  199.3064  178.0716  151.4159 H   0  0  0  0  0  0  0  0  0  0  0  0
  198.6895  177.8863  149.0174 H   0  0  0  0  0  0  0  0  0  0  0  0
  196.6167  178.9751  148.1743 H   0  0  0  0  0  0  0  0  0  0  0  0
  195.1492  180.2347  149.7431 H   0  0  0  0  0  0  0  0  0  0  0  0
  195.7361  180.4043  152.1334 H   0  0  0  0  0  0  0  0  0  0  0  0
  195.1728  182.1460  156.2117 H   0  0  0  0  0  0  0  0  0  0  0  0
  1  2  2  0
  2  3  1  0
  2  6  1  0
  3  4  1  0
  3 23  1  0
  4  5  1  0
  4 11  1  0
  4 31  1  6
  5  6  1  0
  5 10  2  0
  6  7  2  0
  7  8  1  0
  7 32  1  0
  8  9  2  0
  8 33  1  0
  9 10  1  0
  9 34  1  0
 10 35  1  0
 11 12  1  0
 11 36  1  6
 11 37  1  0
 12 13  1  0
 12 30  1  1
 12 56  1  0
 13 14  1  0
 13 38  1  6
 13 39  1  0
 14 15  1  0
 14 21  2  0
 15 16  2  0
 15 22  1  0
 16 17  1  0
 16 19  1  0
 17 18  1  0
 18 40  1  1
 18 41  1  0
 18 42  1  0
 19 20  2  0
 19 43  1  0
 20 21  1  0
 20 44  1  0
 21 45  1  0
 22 46  1  6
 22 47  1  0
 22 48  1  0
 23 24  1  0
 23 49  1  6
 23 50  1  0
 24 25  2  0
 24 29  1  0
 25 26  1  0
 25 51  1  0
 26 27  2  0
 26 52  1  0
 27 28  1  0
 27 53  1  0
 28 29  2  0
 28 54  1  0
 29 55  1  0
M  CHG  1  12   1
M  END
>  <s_epik_cmdline>  (1295) 
J2VwaWtfcHl0aG9uJywgJy1waCcsICc3LjAwMDAwMCcsICctcGh0JywgJzIuMDAwMDAwJywgJy1tcycsICcxNicsICctdG4nLCAnOCcsICctbWEnLCAnMjAwJywgJy1pbWFlJywgJzxpbmZpbGUubWFlPicsICctb21hZScsICc8b3V0ZmlsZS5tYWU+Jw==

>  <s_epik_input>  (1295) 
W2NIXTFbY0hdW2NIXVtjSF1bY0hdYzFbQ0gyXU4oQyg9TyljKGMyMylbY0hdW2NIXVtjSF1bY0hdMylbQ0BIXTJbQ0gyXVtOSF1bQ0gyXWM0YyhbQ0gzXSljKE9bQ0gzXSlbY0hdW2NIXVtjSF00

>  <s_i_glide_gridfile>  (1295) 
ATP-Grid

>  <s_lp_Force_Field>  (1295) 
OPLS_2005

>  <s_lp_Variant>  (1295) 
m_270004bbb____12219716____16529394-1

>  <s_lp_label>  (1295) 
950_sdstereoexpander_1_neutralizer_1_epik_1_stereoizer_1

>  <s_m_source_file>  (1295) 
ATP-VSW-LIGPREP-001-in.maegz

>  <s_sd_BIOSOLVEIT.INFINISEE\_QUERY\_NAME>  (1295) 
Ref-Lig

>  <s_sd_BIOSOLVEIT.INFINISEE\_QUERY\_SMILES>  (1295) 
S(c1nc2c(cc1C[NH2+]Cc3ccc(cc3)C[NH+](C)C)cccc2)Cc4ccccc4

>  <s_sd_BIOSOLVEIT.INFINISEE\_REACTION\_NAME>  (1295) 
m_270004bbb

>  <s_sd_BIOSOLVEIT.INFINISEE\_REAGENT1\_SMILES>  (1295) 
[R1*]NCC1N(C(=O)c2c1cccc2)Cc3ccccc3

>  <s_sd_BIOSOLVEIT.INFINISEE\_REAGENT2\_SMILES>  (1295) 
[R1*]Cc1c(c(OC)ccc1)C

>  <s_sd_BIOSOLVEIT.INFINISEE\_SPACE>  (1295) 
REALSpace_44bn_2023-08

>  <s_vsw_compound_code>  (1295) 
30369

>  <s_vsw_variant>  (1295) 
30369-1

>  <r_epik_Charging_Adjusted_Penalty>  (1295) 
0.11330020892331499

>  <r_epik_Ionization_Penalty>  (1295) 
0.0567

>  <r_epik_Ionization_Penalty_Charging>  (1295) 
0.0567

>  <r_epik_Ionization_Penalty_Neutral>  (1295) 
0

>  <r_epik_State_Penalty>  (1295) 
0.0567

>  <r_i_docking_score>  (1295) 
-5.2067975790542498

>  <r_i_glide_ecoul>  (1295) 
-10.3292503356934

>  <r_i_glide_eff_state_penalty>  (1295) 
0.0567

>  <r_i_glide_einternal>  (1295) 
3.3070824146270801

>  <r_i_glide_emodel>  (1295) 
-59.208951676275703

>  <r_i_glide_energy>  (1295) 
-41.180957794189503

>  <r_i_glide_erotb>  (1295) 
0.77818511018877401

>  <r_i_glide_esite>  (1295) 
-0.097216775902513694

>  <r_i_glide_evdw>  (1295) 
-30.851707458496101

>  <r_i_glide_gscore>  (1295) 
-5.26349757905425

>  <r_i_glide_hbond>  (1295) 
-0.20000000000000001

>  <r_i_glide_ligand_efficiency>  (1295) 
-0.17954474410531901

>  <r_i_glide_ligand_efficiency_ln>  (1295) 
-1.19222461260894

>  <r_i_glide_ligand_efficiency_sa>  (1295) 
-0.55161833765907697

>  <r_i_glide_lipo>  (1295) 
-1.8854071718798899

>  <r_i_glide_metal>  (1295) 
-0

>  <r_i_glide_rewards>  (1295) 
-0.76708581818181698

>  <r_lp_Energy>  (1295) 
43.733151999999997

>  <r_lp_tautomer_probability>  (1295) 
1

>  <r_qp_ACxDN^.5/SA>  (1295) 
0.0072801000000000003

>  <r_qp_CIQPlogS>  (1295) 
-5.1189999999999998

>  <r_qp_EA(eV)>  (1295) 
0.223

>  <r_qp_FISA>  (1295) 
45.665999999999997

>  <r_qp_FOSA>  (1295) 
240.09200000000001

>  <r_qp_IP(eV)>  (1295) 
9.0289999999999999

>  <r_qp_Jm>  (1295) 
0.018544470320115101

>  <r_qp_PISA>  (1295) 
435.38499999999999

>  <r_qp_PSA>  (1295) 
46.421999999999997

>  <r_qp_PercentHumanOralAbsorption>  (1295) 
100

>  <r_qp_QPPCaco>  (1295) 
911.47799999999995

>  <r_qp_QPPMDCK>  (1295) 
495.13099999999997

>  <r_qp_QPlogBB>  (1295) 
0.060999999999999999

>  <r_qp_QPlogHERG>  (1295) 
-7.6180000000000003

>  <r_qp_QPlogKhsa>  (1295) 
0.80900000000000005

>  <r_qp_QPlogKp>  (1295) 
-2.218

>  <r_qp_QPlogPC16>  (1295) 
13.927

>  <r_qp_QPlogPo/w>  (1295) 
4.8819999999999997

>  <r_qp_QPlogPoct>  (1295) 
19.547999999999998

>  <r_qp_QPlogPw>  (1295) 
9.8179999999999996

>  <r_qp_QPlogS>  (1295) 
-5.101

>  <r_qp_QPpolrz>  (1295) 
45.366999999999997

>  <r_qp_SASA>  (1295) 
721.14400000000001

>  <r_qp_SAamideO>  (1295) 
0

>  <r_qp_SAfluorine>  (1295) 
0

>  <r_qp_WPSA>  (1295) 
0

>  <r_qp_accptHB>  (1295) 
5.25

>  <r_qp_dip^2/V>  (1295) 
0.034594199999999999

>  <r_qp_dipole>  (1295) 
6.6950000000000003

>  <r_qp_donorHB>  (1295) 
1

>  <r_qp_glob>  (1295) 
0.79708100000000004

>  <r_qp_mol_MW>  (1295) 
386.49299999999999

>  <r_qp_volume>  (1295) 
1295.8040000000001

>  <r_sd_BIOSOLVEIT.INFINISEE\_FTREES\_SIMILARITY>  (1295) 
0.91700000000000004

>  <r_sd_BIOSOLVEIT.LOGP>  (1295) 
3.4643199999999998

>  <r_sd_BIOSOLVEIT.MOLECULAR\_WEIGHT>  (1295) 
387.5

>  <r_sd_BIOSOLVEIT.TPSA>  (1295) 
46.149999999999999

>  <i_epik_Tot_Q>  (1295) 
1

>  <i_epik_Tot_abs_Q>  (1295) 
1

>  <i_f3d_flags>  (1295) 
0

>  <i_i_glide_confnum>  (1295) 
1

>  <i_i_glide_lignum>  (1295) 
186

>  <i_i_glide_posenum>  (1295) 
12

>  <i_i_glide_rotatable_bonds>  (1295) 
7

>  <i_lp_mmshare_version>  (1295) 
65135

>  <i_m_ct_format>  (1295) 
2

>  <i_m_source_file_index>  (1295) 
950

>  <i_qp_#NandO>  (1295) 
4

>  <i_qp_#acid>  (1295) 
0

>  <i_qp_#amide>  (1295) 
0

>  <i_qp_#amidine>  (1295) 
0

>  <i_qp_#amine>  (1295) 
1

>  <i_qp_#in34>  (1295) 
0

>  <i_qp_#in56>  (1295) 
21

>  <i_qp_#metab>  (1295) 
6

>  <i_qp_#nonHatm>  (1295) 
29

>  <i_qp_#noncon>  (1295) 
1

>  <i_qp_#ringatoms>  (1295) 
21

>  <i_qp_#rotor>  (1295) 
7

>  <i_qp_#rtvFG>  (1295) 
0

>  <i_qp_#stars>  (1295) 
0

>  <i_qp_CNS>  (1295) 
1

>  <i_qp_HumanOralAbsorption>  (1295) 
3

>  <i_qp_RuleOfFive>  (1295) 
0

>  <i_qp_RuleOfThree>  (1295) 
0

>  <i_sd_BIOSOLVEIT.INFINISEE\_REAGENT1\_NAME>  (1295) 
12219716

>  <i_sd_BIOSOLVEIT.INFINISEE\_REAGENT2\_NAME>  (1295) 
16529394

>  <i_sd_BIOSOLVEIT.INFINISEE\_RESULT\_RANK>  (1295) 
22420

>  <i_sd_version>  (1295) 
0

>  <b_lp_Chiralities_Consistent>  (1295) 
1

>  <b_sd_chiral_flag>  (1295) 
0

>  <canonical_id>  (1295) 
ATP-HTVS-CC7A8C42BA33

>  <compound_code>  (1295) 
30369

>  <title>  (1295) 
m_270004bbb____12219716____16529394

>  <variant>  (1295) 
30369-1

>  <source_file>  (1295) 
运行/运行/ATP-VSW/ATP-VSW-DOCK_HTVS_1-001_lib/ATP-VSW-DOCK_HTVS_1-001_lib

>  <canonical_smiles>  (1295) 
COc1cccc(C[NH2+]C[C@H]2c3ccccc3C(=O)N2Cc2ccccc2)c1C

>  <scaffold>  (1295) 
O=C1c2ccccc2C(C[NH2+]Cc2ccccc2)N1Cc1ccccc1

>  <molecular_formula>  (1295) 
C25H27N2O2+

$$$$
ATP-HTVS-CC7F9EDA8956
     RDKit          3D

 53 56  0  0  0  0  0  0  0  0999 V2000
  198.9376  195.4420  158.8324 F   0  0  0  0  0  0  0  0  0  0  0  0
  199.1508  194.1114  158.9692 C   0  0  0  0  0  0  0  0  0  0  0  0
  199.0027  193.2579  157.8585 C   0  0  0  0  0  0  0  0  0  0  0  0
  199.2214  191.8743  157.9998 C   0  0  0  0  0  0  0  0  0  0  0  0
  199.5809  191.3385  159.2556 C   0  0  0  0  0  0  0  0  0  0  0  0
  199.7284  192.1956  160.3658 C   0  0  0  0  0  0  0  0  0  0  0  0
  199.5149  193.5810  160.2222 C   0  0  0  0  0  0  0  0  0  0  0  0
  199.7823  189.8403  159.4224 C   0  0  1  0  0  0  0  0  0  0  0  0
  198.4463  189.0833  159.4276 C   0  0  0  0  0  0  0  0  0  0  0  0
  197.3856  189.6877  159.5845 O   0  0  0  0  0  0  0  0  0  0  0  0
  198.5299  187.7577  159.2140 N   0  0  0  0  0  0  0  0  0  0  0  0
  197.4677  186.8141  159.1708 C   0  0  0  0  0  0  0  0  0  0  0  0
  197.6240  185.6114  158.4344 C   0  0  0  0  0  0  0  0  0  0  0  0
  198.7845  185.4070  157.6441 N   0  0  0  0  0  0  0  0  0  0  0  0
  199.9027  184.6367  158.0638 C   0  0  0  0  0  0  0  0  0  0  0  0
  199.9973  184.2211  159.4181 C   0  0  0  0  0  0  0  0  0  0  0  0
  201.1057  183.4890  159.8906 C   0  0  0  0  0  0  0  0  0  0  0  0
  202.1506  183.1507  159.0147 C   0  0  0  0  0  0  0  0  0  0  0  0
  202.0748  183.5372  157.6651 C   0  0  0  0  0  0  0  0  0  0  0  0
  200.9598  184.2598  157.1920 C   0  0  0  0  0  0  0  0  0  0  0  0
  198.7436  185.9643  156.2703 C   0  0  2  0  0  0  0  0  0  0  0  0
  198.5071  187.4181  156.2140 C   0  0  0  0  0  0  0  0  0  0  0  0
  198.3350  188.5599  156.1542 N   0  0  0  0  0  0  0  0  0  0  0  0
  197.7763  185.2224  155.3357 C   0  0  2  0  0  0  0  0  0  0  0  0
  196.6044  184.6223  158.5519 C   0  0  0  0  0  0  0  0  0  0  0  0
  195.4504  184.9173  159.3370 C   0  0  0  0  0  0  0  0  0  0  0  0
  195.3010  186.0843  159.9940 N   0  0  0  0  0  0  0  0  0  0  0  0
  196.2832  186.9962  159.9205 C   0  0  0  0  0  0  0  0  0  0  0  0
  194.4302  183.9534  159.4532 C   0  0  0  0  0  0  0  0  0  0  0  0
  194.5346  182.7026  158.8221 C   0  0  0  0  0  0  0  0  0  0  0  0
  195.6797  182.4014  158.0693 C   0  0  0  0  0  0  0  0  0  0  0  0
  196.7054  183.3557  157.9279 C   0  0  0  0  0  0  0  0  0  0  0  0
  198.7138  193.6653  156.9003 H   0  0  0  0  0  0  0  0  0  0  0  0
  199.0908  191.2220  157.1483 H   0  0  0  0  0  0  0  0  0  0  0  0
  199.9934  191.7858  161.3300 H   0  0  0  0  0  0  0  0  0  0  0  0
  199.6220  194.2369  161.0736 H   0  0  0  0  0  0  0  0  0  0  0  0
  200.4121  189.4736  158.6116 H   0  0  0  0  0  0  0  0  0  0  0  0
  200.3069  189.6320  160.3568 H   0  0  0  0  0  0  0  0  0  0  0  0
  199.4394  187.4012  158.9587 H   0  0  0  0  0  0  0  0  0  0  0  0
  199.2212  184.4612  160.1317 H   0  0  0  0  0  0  0  0  0  0  0  0
  201.1512  183.1915  160.9299 H   0  0  0  0  0  0  0  0  0  0  0  0
  203.0033  182.5904  159.3732 H   0  0  0  0  0  0  0  0  0  0  0  0
  202.8748  183.2769  156.9874 H   0  0  0  0  0  0  0  0  0  0  0  0
  200.9675  184.4961  156.1421 H   0  0  0  0  0  0  0  0  0  0  0  0
  199.7208  185.9248  155.8029 H   0  0  0  0  0  0  0  0  0  0  0  0
  197.8734  185.6003  154.3183 H   0  0  0  0  0  0  0  0  0  0  0  0
  196.7443  185.3768  155.6368 H   0  0  0  0  0  0  0  0  0  0  0  0
  197.9694  184.1498  155.3091 H   0  0  0  0  0  0  0  0  0  0  0  0
  196.1050  187.8797  160.5133 H   0  0  0  0  0  0  0  0  0  0  0  0
  193.5504  184.1909  160.0340 H   0  0  0  0  0  0  0  0  0  0  0  0
  193.7424  181.9754  158.9111 H   0  0  0  0  0  0  0  0  0  0  0  0
  195.7560  181.4378  157.5859 H   0  0  0  0  0  0  0  0  0  0  0  0
  197.5707  183.0890  157.3426 H   0  0  0  0  0  0  0  0  0  0  0  0
  1  2  1  0
  2  3  1  0
  2  7  2  0
  3  4  2  0
  3 33  1  0
  4  5  1  0
  4 34  1  0
  5  6  2  0
  5  8  1  0
  6  7  1  0
  6 35  1  0
  7 36  1  0
  8  9  1  0
  8 37  1  6
  8 38  1  0
  9 10  2  0
  9 11  1  0
 11 12  1  0
 11 39  1  0
 12 13  2  0
 12 28  1  0
 13 14  1  0
 13 25  1  0
 14 15  1  0
 14 21  1  0
 15 16  2  0
 15 20  1  0
 16 17  1  0
 16 40  1  0
 17 18  2  0
 17 41  1  0
 18 19  1  0
 18 42  1  0
 19 20  2  0
 19 43  1  0
 20 44  1  0
 21 22  1  0
 21 24  1  0
 21 45  1  6
 22 23  3  0
 24 46  1  6
 24 47  1  0
 24 48  1  0
 25 26  1  0
 25 32  2  0
 26 27  1  0
 26 29  2  0
 27 28  2  0
 28 49  1  0
 29 30  1  0
 29 50  1  0
 30 31  2  0
 30 51  1  0
 31 32  1  0
 31 52  1  0
 32 53  1  0
M  END
>  <s_epik_cmdline>  (1296) 
J2VwaWtfcHl0aG9uJywgJy1waCcsICc3LjAwMDAwMCcsICctcGh0JywgJzIuMDAwMDAwJywgJy1tcycsICcxNicsICctdG4nLCAnOCcsICctbWEnLCAnMjAwJywgJy1pbWFlJywgJzxpbmZpbGUubWFlPicsICctb21hZScsICc8b3V0ZmlsZS5tYWU+Jw==

>  <s_epik_input>  (1296) 
RmMxW2NIXVtjSF1jKFtjSF1bY0hdMSlbQ0gyXUMoPU8pW05IXWMoW2NIXW5jKGMyMylbY0hdW2NIXVtjSF1bY0hdMyljMk4oW0NASF0oQyNOKVtDSDNdKWM0W2NIXVtjSF1bY0hdW2NIXVtjSF00

>  <s_i_glide_gridfile>  (1296) 
ATP-Grid

>  <s_lp_Force_Field>  (1296) 
OPLS_2005

>  <s_lp_Variant>  (1296) 
rxn502b____EMOL512495____EMOL30488121____EMOL36790511-2

>  <s_lp_label>  (1296) 
2376_sdstereoexpander_2_neutralizer_1_epik_1_stereoizer_1

>  <s_m_source_file>  (1296) 
ATP-VSW-LIGPREP-001-in.maegz

>  <s_sd_BIOSOLVEIT.INFINISEE\_QUERY\_NAME>  (1296) 
Ref-Lig

>  <s_sd_BIOSOLVEIT.INFINISEE\_QUERY\_SMILES>  (1296) 
S(c1nc2c(cc1C[NH2+]Cc3ccc(cc3)C[NH+](C)C)cccc2)Cc4ccccc4

>  <s_sd_BIOSOLVEIT.INFINISEE\_REACTION\_NAME>  (1296) 
rxn502b

>  <s_sd_BIOSOLVEIT.INFINISEE\_REAGENT1\_NAME>  (1296) 
EMOL512495

>  <s_sd_BIOSOLVEIT.INFINISEE\_REAGENT1\_SMILES>  (1296) 
Fc1ccc(cc1)CC(=O)O

>  <s_sd_BIOSOLVEIT.INFINISEE\_REAGENT2\_NAME>  (1296) 
EMOL30488121

>  <s_sd_BIOSOLVEIT.INFINISEE\_REAGENT2\_SMILES>  (1296) 
Brc1c(N)cnc2c1cccc2

>  <s_sd_BIOSOLVEIT.INFINISEE\_REAGENT3\_NAME>  (1296) 
EMOL36790511

>  <s_sd_BIOSOLVEIT.INFINISEE\_REAGENT3\_SMILES>  (1296) 
N#CC(Nc1ccccc1)C

>  <s_sd_BIOSOLVEIT.INFINISEE\_SPACE>  (1296) 
eXplore_7tr_2022-12

>  <s_vsw_compound_code>  (1296) 
76001

>  <s_vsw_variant>  (1296) 
76001-2

>  <r_epik_Charging_Adjusted_Penalty>  (1296) 
0.055016980920908398

>  <r_epik_Ionization_Penalty>  (1296) 
0.055

>  <r_epik_Ionization_Penalty_Charging>  (1296) 
0

>  <r_epik_Ionization_Penalty_Neutral>  (1296) 
0.055

>  <r_epik_State_Penalty>  (1296) 
0.055

>  <r_i_docking_score>  (1296) 
-3.4471385060422701

>  <r_i_glide_ecoul>  (1296) 
-1.8848669528961199

>  <r_i_glide_eff_state_penalty>  (1296) 
0.055

>  <r_i_glide_einternal>  (1296) 
1.5310965776443499

>  <r_i_glide_emodel>  (1296) 
-43.530801248997797

>  <r_i_glide_energy>  (1296) 
-36.178529977798497

>  <r_i_glide_erotb>  (1296) 
0.55026169557267401

>  <r_i_glide_esite>  (1296) 
-0.0437745763347554

>  <r_i_glide_evdw>  (1296) 
-34.293663024902301

>  <r_i_glide_gscore>  (1296) 
-3.5021385060422698

>  <r_i_glide_hbond>  (1296) 
0

>  <r_i_glide_ligand_efficiency>  (1296) 
-0.107723078313821

>  <r_i_glide_ligand_efficiency_ln>  (1296) 
-0.77190827694963704

>  <r_i_glide_ligand_efficiency_sa>  (1296) 
-0.34199945527813103

>  <r_i_glide_lipo>  (1296) 
-1.4181489727730501

>  <r_i_glide_metal>  (1296) 
-0

>  <r_i_glide_rewards>  (1296) 
-0.59306345832759899

>  <r_lp_Energy>  (1296) 
29.971053000000001

>  <r_qp_ACxDN^.5/SA>  (1296) 
0.0088322999999999995

>  <r_qp_CIQPlogS>  (1296) 
-7.9669999999999996

>  <r_qp_EA(eV)>  (1296) 
1.2969999999999999

>  <r_qp_FISA>  (1296) 
105.432

>  <r_qp_FOSA>  (1296) 
99.697999999999993

>  <r_qp_IP(eV)>  (1296) 
8.7639999999999993

>  <r_qp_Jm>  (1296) 
0.037646469965287102

>  <r_qp_PISA>  (1296) 
385.46499999999997

>  <r_qp_PSA>  (1296) 
69.671999999999997

>  <r_qp_PercentHumanOralAbsorption>  (1296) 
100

>  <r_qp_QPPCaco>  (1296) 
991.03200000000004

>  <r_qp_QPPMDCK>  (1296) 
734.60699999999997

>  <r_qp_QPlogBB>  (1296) 
-0.66600000000000004

>  <r_qp_QPlogHERG>  (1296) 
-5.1420000000000003

>  <r_qp_QPlogKhsa>  (1296) 
0.61199999999999999

>  <r_qp_QPlogKp>  (1296) 
-1.4330000000000001

>  <r_qp_QPlogPC16>  (1296) 
13.163

>  <r_qp_QPlogPo/w>  (1296) 
4.5629999999999997

>  <r_qp_QPlogPoct>  (1296) 
19.355

>  <r_qp_QPlogPw>  (1296) 
9.9060000000000006

>  <r_qp_QPlogS>  (1296) 
-5.6189999999999998

>  <r_qp_QPpolrz>  (1296) 
42.170000000000002

>  <r_qp_SASA>  (1296) 
622.71199999999999

>  <r_qp_SAamideO>  (1296) 
0

>  <r_qp_SAfluorine>  (1296) 
32.116

>  <r_qp_WPSA>  (1296) 
32.116

>  <r_qp_accptHB>  (1296) 
5.5

>  <r_qp_dip^2/V>  (1296) 
0.039984800000000001

>  <r_qp_dipole>  (1296) 
7.0069999999999997

>  <r_qp_donorHB>  (1296) 
1

>  <r_qp_glob>  (1296) 
0.89049719999999999

>  <r_qp_mol_MW>  (1296) 
424.476

>  <r_qp_volume>  (1296) 
1227.8119999999999

>  <r_sd_BIOSOLVEIT.INFINISEE\_FTREES\_SIMILARITY>  (1296) 
0.91900000000000004

>  <r_sd_BIOSOLVEIT.LOGP>  (1296) 
5.6052799999999996

>  <r_sd_BIOSOLVEIT.MOLECULAR\_WEIGHT>  (1296) 
424.47699999999998

>  <r_sd_BIOSOLVEIT.TPSA>  (1296) 
69.019999999999996

>  <i_epik_Tot_Q>  (1296) 
0

>  <i_epik_Tot_abs_Q>  (1296) 
0

>  <i_f3d_flags>  (1296) 
0

>  <i_i_glide_confnum>  (1296) 
4

>  <i_i_glide_lignum>  (1296) 
880

>  <i_i_glide_posenum>  (1296) 
12

>  <i_i_glide_rotatable_bonds>  (1296) 
7

>  <i_lp_mmshare_version>  (1296) 
65135

>  <i_m_ct_format>  (1296) 
2

>  <i_m_source_file_index>  (1296) 
2376

>  <i_qp_#NandO>  (1296) 
5

>  <i_qp_#acid>  (1296) 
0

>  <i_qp_#amide>  (1296) 
0

>  <i_qp_#amidine>  (1296) 
0

>  <i_qp_#amine>  (1296) 
0

>  <i_qp_#in34>  (1296) 
0

>  <i_qp_#in56>  (1296) 
22

>  <i_qp_#metab>  (1296) 
5

>  <i_qp_#nonHatm>  (1296) 
32

>  <i_qp_#noncon>  (1296) 
0

>  <i_qp_#ringatoms>  (1296) 
22

>  <i_qp_#rotor>  (1296) 
7

>  <i_qp_#rtvFG>  (1296) 
0

>  <i_qp_#stars>  (1296) 
0

>  <i_qp_CNS>  (1296) 
0

>  <i_qp_HumanOralAbsorption>  (1296) 
3

>  <i_qp_RuleOfFive>  (1296) 
0

>  <i_qp_RuleOfThree>  (1296) 
0

>  <i_sd_BIOSOLVEIT.INFINISEE\_RESULT\_RANK>  (1296) 
18142

>  <i_sd_version>  (1296) 
0

>  <b_lp_Chiralities_Consistent>  (1296) 
1

>  <b_sd_chiral_flag>  (1296) 
0

>  <canonical_id>  (1296) 
ATP-HTVS-CC7F9EDA8956

>  <compound_code>  (1296) 
76001

>  <title>  (1296) 
rxn502b____EMOL512495____EMOL30488121____EMOL36790511

>  <variant>  (1296) 
76001-2

>  <source_file>  (1296) 
运行/运行/ATP-VSW/ATP-VSW-DOCK_HTVS_1-001_lib/ATP-VSW-DOCK_HTVS_1-001_lib

>  <canonical_smiles>  (1296) 
C[C@@H](C#N)N(c1ccccc1)c1c(NC(=O)Cc2ccc(F)cc2)cnc2ccccc12

>  <scaffold>  (1296) 
O=C(Cc1ccccc1)Nc1cnc2ccccc2c1Nc1ccccc1

>  <molecular_formula>  (1296) 
C26H21FN4O

$$$$
ATP-HTVS-CC86D79AEE13
     RDKit          3D

 55 58  0  0  0  0  0  0  0  0999 V2000
  196.7114  179.8868  152.7336 O   0  0  0  0  0  0  0  0  0  0  0  0
  197.1116  180.5619  151.7821 C   0  0  0  0  0  0  0  0  0  0  0  0
  197.0192  181.9163  151.7247 N   0  0  0  0  0  0  0  0  0  0  0  0
  197.4266  182.6924  150.6567 N   0  0  0  0  0  0  0  0  0  0  0  0
  197.9882  182.1928  149.6030 C   0  0  0  0  0  0  0  0  0  0  0  0
  198.1807  180.7241  149.5041 C   0  0  0  0  0  0  0  0  0  0  0  0
  197.7488  179.9136  150.5847 C   0  0  0  0  0  0  0  0  0  0  0  0
  197.9018  178.5119  150.5230 C   0  0  0  0  0  0  0  0  0  0  0  0
  198.4608  177.9072  149.3818 C   0  0  0  0  0  0  0  0  0  0  0  0
  198.8854  178.7067  148.3051 C   0  0  0  0  0  0  0  0  0  0  0  0
  198.7470  180.1046  148.3647 C   0  0  0  0  0  0  0  0  0  0  0  0
  198.3499  183.1591  148.5492 C   0  0  0  0  0  0  0  0  0  0  0  0
  197.3751  184.0704  148.0888 C   0  0  0  0  0  0  0  0  0  0  0  0
  197.7087  184.9726  147.0618 C   0  0  0  0  0  0  0  0  0  0  0  0
  199.0075  184.9724  146.5152 C   0  0  0  0  0  0  0  0  0  0  0  0
  199.9786  184.0655  146.9892 C   0  0  0  0  0  0  0  0  0  0  0  0
  199.6581  183.1614  148.0214 C   0  0  0  0  0  0  0  0  0  0  0  0
  196.5193  182.6861  152.8718 C   0  0  1  0  0  0  0  0  0  0  0  0
  197.5572  182.8209  154.0020 C   0  0  0  0  0  0  0  0  0  0  0  0
  198.7612  182.7206  153.7485 O   0  0  0  0  0  0  0  0  0  0  0  0
  197.0542  183.0703  155.2224 N   0  0  0  0  0  0  0  0  0  0  0  0
  197.7314  183.2294  156.4707 C   0  0  0  0  0  0  0  0  0  0  0  0
  196.9815  183.1092  157.6799 C   0  0  0  0  0  0  0  0  0  0  0  0
  195.5970  182.8172  157.6312 N   0  0  0  0  0  0  0  0  0  0  0  0
  194.7596  182.6273  158.8056 C   0  0  2  0  0  0  0  0  0  0  0  0
  193.6510  181.6176  158.4676 C   0  0  2  0  0  0  0  0  0  0  0  0
  194.1818  183.9793  159.2589 C   0  0  2  0  0  0  0  0  0  0  0  0
  197.6586  183.2764  158.9190 C   0  0  0  0  0  0  0  0  0  0  0  0
  199.0405  183.5327  158.9681 C   0  0  0  0  0  0  0  0  0  0  0  0
  199.7689  183.6703  157.7728 C   0  0  0  0  0  0  0  0  0  0  0  0
  199.1167  183.5341  156.5346 C   0  0  0  0  0  0  0  0  0  0  0  0
  197.5708  177.8892  151.3433 H   0  0  0  0  0  0  0  0  0  0  0  0
  198.5668  176.8334  149.3291 H   0  0  0  0  0  0  0  0  0  0  0  0
  199.3184  178.2519  147.4269 H   0  0  0  0  0  0  0  0  0  0  0  0
  199.0558  180.6830  147.5070 H   0  0  0  0  0  0  0  0  0  0  0  0
  196.3764  184.0682  148.5023 H   0  0  0  0  0  0  0  0  0  0  0  0
  196.9643  185.6643  146.6978 H   0  0  0  0  0  0  0  0  0  0  0  0
  199.2566  185.6647  145.7249 H   0  0  0  0  0  0  0  0  0  0  0  0
  200.9715  184.0645  146.5629 H   0  0  0  0  0  0  0  0  0  0  0  0
  200.4109  182.4732  148.3846 H   0  0  0  0  0  0  0  0  0  0  0  0
  196.2395  183.6952  152.5475 H   0  0  0  0  0  0  0  0  0  0  0  0
  195.6082  182.2224  153.2565 H   0  0  0  0  0  0  0  0  0  0  0  0
  196.0456  183.0883  155.2788 H   0  0  0  0  0  0  0  0  0  0  0  0
  195.1066  182.6357  156.7547 H   0  0  0  0  0  0  0  0  0  0  0  0
  195.3452  182.1839  159.6115 H   0  0  0  0  0  0  0  0  0  0  0  0
  193.0429  181.3957  159.3279 H   0  0  0  0  0  0  0  0  0  0  0  0
  194.0639  180.6651  158.1343 H   0  0  0  0  0  0  0  0  0  0  0  0
  192.9816  181.9832  157.6908 H   0  0  0  0  0  0  0  0  0  0  0  0
  193.5485  183.8523  160.1333 H   0  0  0  0  0  0  0  0  0  0  0  0
  193.5677  184.4226  158.4739 H   0  0  0  0  0  0  0  0  0  0  0  0
  194.9727  184.6942  159.5014 H   0  0  0  0  0  0  0  0  0  0  0  0
  197.1410  183.1814  159.8643 H   0  0  0  0  0  0  0  0  0  0  0  0
  199.5502  183.6259  159.9214 H   0  0  0  0  0  0  0  0  0  0  0  0
  200.8304  183.8651  157.7968 H   0  0  0  0  0  0  0  0  0  0  0  0
  199.7212  183.6775  155.6510 H   0  0  0  0  0  0  0  0  0  0  0  0
  1  2  2  0
  2  3  1  0
  2  7  1  0
  3  4  1  0
  3 18  1  0
  4  5  2  0
  5  6  1  0
  5 12  1  0
  6  7  1  0
  6 11  2  0
  7  8  2  0
  8  9  1  0
  8 32  1  0
  9 10  2  0
  9 33  1  0
 10 11  1  0
 10 34  1  0
 11 35  1  0
 12 13  2  0
 12 17  1  0
 13 14  1  0
 13 36  1  0
 14 15  2  0
 14 37  1  0
 15 16  1  0
 15 38  1  0
 16 17  2  0
 16 39  1  0
 17 40  1  0
 18 19  1  0
 18 41  1  6
 18 42  1  0
 19 20  2  0
 19 21  1  0
 21 22  1  0
 21 43  1  0
 22 23  1  0
 22 31  2  0
 23 24  1  0
 23 28  2  0
 24 25  1  0
 24 44  1  0
 25 26  1  0
 25 27  1  0
 25 45  1  1
 26 46  1  1
 26 47  1  0
 26 48  1  0
 27 49  1  1
 27 50  1  0
 27 51  1  0
 28 29  1  0
 28 52  1  0
 29 30  2  0
 29 53  1  0
 30 31  1  0
 30 54  1  0
 31 55  1  0
M  END
>  <s_epik_cmdline>  (1297) 
J2VwaWtfcHl0aG9uJywgJy1waCcsICc3LjAwMDAwMCcsICctcGh0JywgJzIuMDAwMDAwJywgJy1tcycsICcxNicsICctdG4nLCAnOCcsICctbWEnLCAnMjAwJywgJy1pbWFlJywgJzxpbmZpbGUubWFlPicsICctb21hZScsICc8b3V0ZmlsZS5tYWU+Jw==

>  <s_epik_input>  (1297) 
W2NIXTFbY0hdW2NIXVtjSF1bY0hdYzEtYzJubihjKD1PKWMoYzIzKVtjSF1bY0hdW2NIXVtjSF0zKVtDSDJdQyg9TylbTkhdYzRjKFtOSF1bQ0hdKFtDSDNdKVtDSDNdKVtjSF1bY0hdW2NIXVtjSF00

>  <s_i_glide_gridfile>  (1297) 
ATP-Grid

>  <s_lp_Force_Field>  (1297) 
OPLS_2005

>  <s_lp_Variant>  (1297) 
rxn101____EMOL108753642____EMOL587032-1

>  <s_lp_label>  (1297) 
2645_sdstereoexpander_1_neutralizer_1_epik_1_stereoizer_1

>  <s_m_source_file>  (1297) 
ATP-VSW-LIGPREP-002-in.maegz

>  <s_sd_BIOSOLVEIT.INFINISEE\_QUERY\_NAME>  (1297) 
Ref-Lig

>  <s_sd_BIOSOLVEIT.INFINISEE\_QUERY\_SMILES>  (1297) 
S(c1nc2c(cc1C[NH2+]Cc3ccc(cc3)C[NH+](C)C)cccc2)Cc4ccccc4

>  <s_sd_BIOSOLVEIT.INFINISEE\_REACTION\_NAME>  (1297) 
rxn101

>  <s_sd_BIOSOLVEIT.INFINISEE\_REAGENT1\_NAME>  (1297) 
EMOL108753642

>  <s_sd_BIOSOLVEIT.INFINISEE\_REAGENT1\_SMILES>  (1297) 
N(c1c(N)cccc1)C(C)C

>  <s_sd_BIOSOLVEIT.INFINISEE\_REAGENT2\_NAME>  (1297) 
EMOL587032

>  <s_sd_BIOSOLVEIT.INFINISEE\_REAGENT2\_SMILES>  (1297) 
O=C(O)CN1N=C(c2c(cccc2)C1=O)c3ccccc3

>  <s_sd_BIOSOLVEIT.INFINISEE\_SPACE>  (1297) 
eXplore_7tr_2022-12

>  <s_vsw_compound_code>  (1297) 
84610

>  <s_vsw_variant>  (1297) 
84610-1

>  <r_epik_Charging_Adjusted_Penalty>  (1297) 
0.013499036373211299

>  <r_epik_Ionization_Penalty>  (1297) 
0.0135

>  <r_epik_Ionization_Penalty_Charging>  (1297) 
0

>  <r_epik_Ionization_Penalty_Neutral>  (1297) 
0.0135

>  <r_epik_State_Penalty>  (1297) 
0.0135

>  <r_i_docking_score>  (1297) 
-3.5381056811993399

>  <r_i_glide_ecoul>  (1297) 
-2.9013545513153098

>  <r_i_glide_eff_state_penalty>  (1297) 
0.0135

>  <r_i_glide_einternal>  (1297) 
1.10044610500336

>  <r_i_glide_emodel>  (1297) 
-43.846651990891097

>  <r_i_glide_energy>  (1297) 
-35.854807615280201

>  <r_i_glide_erotb>  (1297) 
0.69539339701561398

>  <r_i_glide_esite>  (1297) 
-0.122989408561868

>  <r_i_glide_evdw>  (1297) 
-32.953453063964801

>  <r_i_glide_gscore>  (1297) 
-3.5516056811993399

>  <r_i_glide_hbond>  (1297) 
-0.16666606540208601

>  <r_i_glide_ligand_efficiency>  (1297) 
-0.114132441329011

>  <r_i_glide_ligand_efficiency_ln>  (1297) 
-0.79795126102763902

>  <r_i_glide_ligand_efficiency_sa>  (1297) 
-0.35853344259075098

>  <r_i_glide_lipo>  (1297) 
-1.2628290007254099

>  <r_i_glide_metal>  (1297) 
-0

>  <r_i_glide_rewards>  (1297) 
-0.61163876763005098

>  <r_lp_Energy>  (1297) 
42.292706000000003

>  <r_qp_ACxDN^.5/SA>  (1297) 
0.011243599999999999

>  <r_qp_CIQPlogS>  (1297) 
-6.6509999999999998

>  <r_qp_EA(eV)>  (1297) 
0.90800000000000003

>  <r_qp_FISA>  (1297) 
82.674999999999997

>  <r_qp_FOSA>  (1297) 
158.02699999999999

>  <r_qp_IP(eV)>  (1297) 
8.0069999999999997

>  <r_qp_Jm>  (1297) 
0.088442600846136296

>  <r_qp_PISA>  (1297) 
451.084

>  <r_qp_PSA>  (1297) 
85.727999999999994

>  <r_qp_PercentHumanOralAbsorption>  (1297) 
100

>  <r_qp_QPPCaco>  (1297) 
1628.8989999999999

>  <r_qp_QPPMDCK>  (1297) 
838.26700000000005

>  <r_qp_QPlogBB>  (1297) 
-0.59899999999999998

>  <r_qp_QPlogHERG>  (1297) 
-6.444

>  <r_qp_QPlogKhsa>  (1297) 
0.76100000000000001

>  <r_qp_QPlogKp>  (1297) 
-0.878

>  <r_qp_QPlogPC16>  (1297) 
14.428000000000001

>  <r_qp_QPlogPo/w>  (1297) 
4.9020000000000001

>  <r_qp_QPlogPoct>  (1297) 
22.399999999999999

>  <r_qp_QPlogPw>  (1297) 
12.038

>  <r_qp_QPlogS>  (1297) 
-5.7910000000000004

>  <r_qp_QPpolrz>  (1297) 
46.018000000000001

>  <r_qp_SASA>  (1297) 
691.78499999999997

>  <r_qp_SAamideO>  (1297) 
0

>  <r_qp_SAfluorine>  (1297) 
0

>  <r_qp_WPSA>  (1297) 
0

>  <r_qp_accptHB>  (1297) 
5.5

>  <r_qp_dip^2/V>  (1297) 
0.082343200000000005

>  <r_qp_dipole>  (1297) 
10.315

>  <r_qp_donorHB>  (1297) 
2

>  <r_qp_glob>  (1297) 
0.8293952

>  <r_qp_mol_MW>  (1297) 
412.49000000000001

>  <r_qp_volume>  (1297) 
1292.2660000000001

>  <r_sd_BIOSOLVEIT.INFINISEE\_FTREES\_SIMILARITY>  (1297) 
0.91000000000000003

>  <r_sd_BIOSOLVEIT.LOGP>  (1297) 
4.5225

>  <r_sd_BIOSOLVEIT.MOLECULAR\_WEIGHT>  (1297) 
412.49099999999999

>  <r_sd_BIOSOLVEIT.TPSA>  (1297) 
76.019999999999996

>  <i_epik_Tot_Q>  (1297) 
0

>  <i_epik_Tot_abs_Q>  (1297) 
0

>  <i_f3d_flags>  (1297) 
0

>  <i_i_glide_confnum>  (1297) 
4

>  <i_i_glide_lignum>  (1297) 
1237

>  <i_i_glide_posenum>  (1297) 
18

>  <i_i_glide_rotatable_bonds>  (1297) 
7

>  <i_lp_mmshare_version>  (1297) 
65135

>  <i_m_ct_format>  (1297) 
2

>  <i_m_source_file_index>  (1297) 
2645

>  <i_qp_#NandO>  (1297) 
6

>  <i_qp_#acid>  (1297) 
0

>  <i_qp_#amide>  (1297) 
0

>  <i_qp_#amidine>  (1297) 
0

>  <i_qp_#amine>  (1297) 
0

>  <i_qp_#in34>  (1297) 
0

>  <i_qp_#in56>  (1297) 
22

>  <i_qp_#metab>  (1297) 
5

>  <i_qp_#nonHatm>  (1297) 
31

>  <i_qp_#noncon>  (1297) 
0

>  <i_qp_#ringatoms>  (1297) 
22

>  <i_qp_#rotor>  (1297) 
6

>  <i_qp_#rtvFG>  (1297) 
0

>  <i_qp_#stars>  (1297) 
1

>  <i_qp_CNS>  (1297) 
0

>  <i_qp_HumanOralAbsorption>  (1297) 
3

>  <i_qp_RuleOfFive>  (1297) 
0

>  <i_qp_RuleOfThree>  (1297) 
1

>  <i_sd_BIOSOLVEIT.INFINISEE\_RESULT\_RANK>  (1297) 
45750

>  <i_sd_version>  (1297) 
0

>  <b_lp_Chiralities_Consistent>  (1297) 
1

>  <b_sd_chiral_flag>  (1297) 
0

>  <canonical_id>  (1297) 
ATP-HTVS-CC86D79AEE13

>  <compound_code>  (1297) 
84610

>  <title>  (1297) 
rxn101____EMOL108753642____EMOL587032

>  <variant>  (1297) 
84610-1

>  <source_file>  (1297) 
运行/运行/ATP-VSW/ATP-VSW-DOCK_HTVS_1-002_lib.maegz

>  <canonical_smiles>  (1297) 
CC(C)Nc1ccccc1NC(=O)Cn1nc(-c2ccccc2)c2ccccc2c1=O

>  <scaffold>  (1297) 
O=C(Cn1nc(-c2ccccc2)c2ccccc2c1=O)Nc1ccccc1

>  <molecular_formula>  (1297) 
C25H24N4O2

$$$$
ATP-HTVS-CCF7E888A475
     RDKit          3D

 55 58  0  0  0  0  0  0  0  0999 V2000
  200.2904  181.2491  152.1527 O   0  0  0  0  0  0  0  0  0  0  0  0
  199.3327  181.5234  152.8776 C   0  0  0  0  0  0  0  0  0  0  0  0
  198.4098  180.6866  153.4017 N   0  0  0  0  0  0  0  0  0  0  0  0
  197.3992  181.3744  154.2435 C   0  0  2  0  0  0  0  0  0  0  0  0
  197.8124  182.8269  154.0896 C   0  0  0  0  0  0  0  0  0  0  0  0
  198.9501  182.8887  153.3073 C   0  0  0  0  0  0  0  0  0  0  0  0
  199.5783  184.1104  153.0056 C   0  0  0  0  0  0  0  0  0  0  0  0
  199.0138  185.2946  153.5330 C   0  0  0  0  0  0  0  0  0  0  0  0
  197.8492  185.2376  154.3317 C   0  0  0  0  0  0  0  0  0  0  0  0
  197.2318  184.0008  154.6124 C   0  0  0  0  0  0  0  0  0  0  0  0
  197.4689  180.9103  155.7186 C   0  0  1  0  0  0  0  0  0  0  0  0
  196.5250  181.6668  156.5656 N   0  0  1  0  0  0  0  0  0  0  0  0
  196.9702  181.9193  157.9501 C   0  0  1  0  0  0  0  0  0  0  0  0
  196.1742  183.0484  158.5802 C   0  0  0  0  0  0  0  0  0  0  0  0
  194.7844  182.9204  158.8217 C   0  0  0  0  0  0  0  0  0  0  0  0
  194.0866  183.9999  159.3974 C   0  0  0  0  0  0  0  0  0  0  0  0
  194.7594  185.1783  159.7636 C   0  0  0  0  0  0  0  0  0  0  0  0
  196.1355  185.3132  159.5211 C   0  0  0  0  0  0  0  0  0  0  0  0
  196.8427  184.2461  158.9306 C   0  0  0  0  0  0  0  0  0  0  0  0
  196.8432  186.5969  159.9016 C   0  0  2  0  0  0  0  0  0  0  0  0
  194.0230  181.6474  158.4789 C   0  0  2  0  0  0  0  0  0  0  0  0
  198.3109  179.2602  153.0796 C   0  0  1  0  0  0  0  0  0  0  0  0
  197.9659  178.9604  151.6251 C   0  0  0  0  0  0  0  0  0  0  0  0
  196.9931  179.7227  150.9436 C   0  0  0  0  0  0  0  0  0  0  0  0
  196.6841  179.4412  149.5999 C   0  0  0  0  0  0  0  0  0  0  0  0
  197.3312  178.3894  148.9284 C   0  0  0  0  0  0  0  0  0  0  0  0
  198.2931  177.6138  149.6068 C   0  0  0  0  0  0  0  0  0  0  0  0
  198.6061  177.8968  150.9517 C   0  0  0  0  0  0  0  0  0  0  0  0
  196.3645  182.5606  156.1286 H   0  0  0  0  0  0  0  0  0  0  0  0
  196.4036  181.2286  153.8230 H   0  0  0  0  0  0  0  0  0  0  0  0
  200.4625  184.1438  152.3829 H   0  0  0  0  0  0  0  0  0  0  0  0
  199.4646  186.2507  153.3215 H   0  0  0  0  0  0  0  0  0  0  0  0
  197.4206  186.1436  154.7286 H   0  0  0  0  0  0  0  0  0  0  0  0
  196.3421  183.9855  155.2168 H   0  0  0  0  0  0  0  0  0  0  0  0
  197.2261  179.8512  155.8135 H   0  0  0  0  0  0  0  0  0  0  0  0
  198.4924  181.0232  156.0778 H   0  0  0  0  0  0  0  0  0  0  0  0
  196.8854  181.0199  158.5590 H   0  0  0  0  0  0  0  0  0  0  0  0
  198.0210  182.2087  157.9481 H   0  0  0  0  0  0  0  0  0  0  0  0
  193.0259  183.9283  159.5802 H   0  0  0  0  0  0  0  0  0  0  0  0
  194.2053  185.9872  160.2160 H   0  0  0  0  0  0  0  0  0  0  0  0
  197.9044  184.3517  158.7521 H   0  0  0  0  0  0  0  0  0  0  0  0
  197.7039  186.7764  159.2575 H   0  0  0  0  0  0  0  0  0  0  0  0
  197.1765  186.5438  160.9324 H   0  0  0  0  0  0  0  0  0  0  0  0
  196.1735  187.4518  159.8109 H   0  0  0  0  0  0  0  0  0  0  0  0
  192.9928  181.6995  158.8236 H   0  0  0  0  0  0  0  0  0  0  0  0
  194.4836  180.7815  158.9539 H   0  0  0  0  0  0  0  0  0  0  0  0
  193.9909  181.4778  157.4024 H   0  0  0  0  0  0  0  0  0  0  0  0
  199.2474  178.7680  153.3601 H   0  0  0  0  0  0  0  0  0  0  0  0
  197.5425  178.7959  153.6944 H   0  0  0  0  0  0  0  0  0  0  0  0
  196.4823  180.5332  151.4385 H   0  0  0  0  0  0  0  0  0  0  0  0
  195.9481  180.0335  149.0820 H   0  0  0  0  0  0  0  0  0  0  0  0
  197.0898  178.1678  147.8981 H   0  0  0  0  0  0  0  0  0  0  0  0
  198.7835  176.7972  149.0923 H   0  0  0  0  0  0  0  0  0  0  0  0
  199.3432  177.2972  151.4671 H   0  0  0  0  0  0  0  0  0  0  0  0
  195.6452  181.1690  156.6035 H   0  0  0  0  0  0  0  0  0  0  0  0
  1  2  2  0
  2  3  1  0
  2  6  1  0
  3  4  1  0
  3 22  1  0
  4  5  1  0
  4 11  1  0
  4 30  1  6
  5  6  1  0
  5 10  2  0
  6  7  2  0
  7  8  1  0
  7 31  1  0
  8  9  2  0
  8 32  1  0
  9 10  1  0
  9 33  1  0
 10 34  1  0
 11 12  1  0
 11 35  1  6
 11 36  1  0
 12 13  1  0
 12 29  1  6
 12 55  1  0
 13 14  1  0
 13 37  1  1
 13 38  1  0
 14 15  2  0
 14 19  1  0
 15 16  1  0
 15 21  1  0
 16 17  2  0
 16 39  1  0
 17 18  1  0
 17 40  1  0
 18 19  2  0
 18 20  1  0
 19 41  1  0
 20 42  1  6
 20 43  1  0
 20 44  1  0
 21 45  1  1
 21 46  1  0
 21 47  1  0
 22 23  1  0
 22 48  1  1
 22 49  1  0
 23 24  2  0
 23 28  1  0
 24 25  1  0
 24 50  1  0
 25 26  2  0
 25 51  1  0
 26 27  1  0
 26 52  1  0
 27 28  2  0
 27 53  1  0
 28 54  1  0
M  CHG  1  12   1
M  END
>  <s_epik_cmdline>  (1298) 
J2VwaWtfcHl0aG9uJywgJy1waCcsICc3LjAwMDAwMCcsICctcGh0JywgJzIuMDAwMDAwJywgJy1tcycsICcxNicsICctdG4nLCAnOCcsICctbWEnLCAnMjAwJywgJy1pbWFlJywgJzxpbmZpbGUubWFlPicsICctb21hZScsICc8b3V0ZmlsZS5tYWU+Jw==

>  <s_epik_input>  (1298) 
W2NIXTFbY0hdW2NIXVtjSF1bY0hdYzFbQ0gyXU4oQyg9TyljKGMyMylbY0hdW2NIXVtjSF1bY0hdMylbQ0BIXTJbQ0gyXVtOSF1bQ0gyXWM0YyhbQ0gzXSlbY0hdW2NIXWMoW2NIXTQpW0NIM10=

>  <s_i_glide_gridfile>  (1298) 
ATP-Grid

>  <s_lp_Force_Field>  (1298) 
OPLS_2005

>  <s_lp_Variant>  (1298) 
m_270004bbb____12219716____7547104-1

>  <s_lp_label>  (1298) 
831_sdstereoexpander_1_neutralizer_1_epik_1_stereoizer_1

>  <s_m_source_file>  (1298) 
ATP-VSW-LIGPREP-003-in.maegz

>  <s_sd_BIOSOLVEIT.INFINISEE\_QUERY\_NAME>  (1298) 
Ref-Lig

>  <s_sd_BIOSOLVEIT.INFINISEE\_QUERY\_SMILES>  (1298) 
S(c1nc2c(cc1C[NH2+]Cc3ccc(cc3)C[NH+](C)C)cccc2)Cc4ccccc4

>  <s_sd_BIOSOLVEIT.INFINISEE\_REACTION\_NAME>  (1298) 
m_270004bbb

>  <s_sd_BIOSOLVEIT.INFINISEE\_REAGENT1\_SMILES>  (1298) 
[R1*]NCC1N(C(=O)c2c1cccc2)Cc3ccccc3

>  <s_sd_BIOSOLVEIT.INFINISEE\_REAGENT2\_SMILES>  (1298) 
[R1*]Cc1c(ccc(c1)C)C

>  <s_sd_BIOSOLVEIT.INFINISEE\_SPACE>  (1298) 
REALSpace_44bn_2023-08

>  <s_vsw_compound_code>  (1298) 
26563

>  <s_vsw_variant>  (1298) 
26563-1

>  <r_epik_Charging_Adjusted_Penalty>  (1298) 
0.10724039338963801

>  <r_epik_Ionization_Penalty>  (1298) 
0.053600000000000002

>  <r_epik_Ionization_Penalty_Charging>  (1298) 
0.053600000000000002

>  <r_epik_Ionization_Penalty_Neutral>  (1298) 
0

>  <r_epik_State_Penalty>  (1298) 
0.053600000000000002

>  <r_i_docking_score>  (1298) 
-4.7828228659524497

>  <r_i_glide_ecoul>  (1298) 
-8.2218093872070295

>  <r_i_glide_eff_state_penalty>  (1298) 
0.053600000000000002

>  <r_i_glide_einternal>  (1298) 
4.5396256446838397

>  <r_i_glide_emodel>  (1298) 
-54.727949874713303

>  <r_i_glide_energy>  (1298) 
-39.344457626342802

>  <r_i_glide_erotb>  (1298) 
0.83924340879109005

>  <r_i_glide_esite>  (1298) 
-0.091668271650221803

>  <r_i_glide_evdw>  (1298) 
-31.1226482391357

>  <r_i_glide_gscore>  (1298) 
-4.83642286595245

>  <r_i_glide_hbond>  (1298) 
-0.0090784902779822204

>  <r_i_glide_ligand_efficiency>  (1298) 
-0.170815102355445

>  <r_i_glide_ligand_efficiency_ln>  (1298) 
-1.10401594724323

>  <r_i_glide_ligand_efficiency_sa>  (1298) 
-0.51869525546622297

>  <r_i_glide_lipo>  (1298) 
-1.68434305641386

>  <r_i_glide_metal>  (1298) 
-0

>  <r_i_glide_rewards>  (1298) 
-1.1011726363636301

>  <r_lp_Energy>  (1298) 
45.914878000000002

>  <r_qp_ACxDN^.5/SA>  (1298) 
0.0068986000000000004

>  <r_qp_CIQPlogS>  (1298) 
-5.0919999999999996

>  <r_qp_EA(eV)>  (1298) 
0.27400000000000002

>  <r_qp_FISA>  (1298) 
37.646000000000001

>  <r_qp_FOSA>  (1298) 
213.203

>  <r_qp_IP(eV)>  (1298) 
9.1489999999999991

>  <r_qp_Jm>  (1298) 
0.093177270873462406

>  <r_qp_PISA>  (1298) 
401.45400000000001

>  <r_qp_PSA>  (1298) 
38.353999999999999

>  <r_qp_PercentHumanOralAbsorption>  (1298) 
100

>  <r_qp_QPPCaco>  (1298) 
1085.941

>  <r_qp_QPPMDCK>  (1298) 
598.31799999999998

>  <r_qp_QPlogBB>  (1298) 
0.255

>  <r_qp_QPlogHERG>  (1298) 
-6.5650000000000004

>  <r_qp_QPlogKhsa>  (1298) 
0.85099999999999998

>  <r_qp_QPlogKp>  (1298) 
-2.286

>  <r_qp_QPlogPC16>  (1298) 
12.987

>  <r_qp_QPlogPo/w>  (1298) 
4.8310000000000004

>  <r_qp_QPlogPoct>  (1298) 
18.379000000000001

>  <r_qp_QPlogPw>  (1298) 
8.8490000000000002

>  <r_qp_QPlogS>  (1298) 
-4.3140000000000001

>  <r_qp_QPpolrz>  (1298) 
43.140000000000001

>  <r_qp_SASA>  (1298) 
652.303

>  <r_qp_SAamideO>  (1298) 
0

>  <r_qp_SAfluorine>  (1298) 
0

>  <r_qp_WPSA>  (1298) 
0

>  <r_qp_accptHB>  (1298) 
4.5

>  <r_qp_dip^2/V>  (1298) 
0.025251599999999999

>  <r_qp_dipole>  (1298) 
5.5780000000000003

>  <r_qp_donorHB>  (1298) 
1

>  <r_qp_glob>  (1298) 
0.85213090000000002

>  <r_qp_mol_MW>  (1298) 
370.49299999999999

>  <r_qp_volume>  (1298) 
1232.212

>  <r_sd_BIOSOLVEIT.INFINISEE\_FTREES\_SIMILARITY>  (1298) 
0.92200000000000004

>  <r_sd_BIOSOLVEIT.LOGP>  (1298) 
3.7641399999999998

>  <r_sd_BIOSOLVEIT.MOLECULAR\_WEIGHT>  (1298) 
371.50099999999998

>  <r_sd_BIOSOLVEIT.TPSA>  (1298) 
36.920000000000002

>  <i_epik_Tot_Q>  (1298) 
1

>  <i_epik_Tot_abs_Q>  (1298) 
1

>  <i_f3d_flags>  (1298) 
0

>  <i_i_glide_confnum>  (1298) 
7

>  <i_i_glide_lignum>  (1298) 
331

>  <i_i_glide_posenum>  (1298) 
17

>  <i_i_glide_rotatable_bonds>  (1298) 
6

>  <i_lp_mmshare_version>  (1298) 
65135

>  <i_m_ct_format>  (1298) 
2

>  <i_m_source_file_index>  (1298) 
831

>  <i_qp_#NandO>  (1298) 
3

>  <i_qp_#acid>  (1298) 
0

>  <i_qp_#amide>  (1298) 
0

>  <i_qp_#amidine>  (1298) 
0

>  <i_qp_#amine>  (1298) 
1

>  <i_qp_#in34>  (1298) 
0

>  <i_qp_#in56>  (1298) 
21

>  <i_qp_#metab>  (1298) 
6

>  <i_qp_#nonHatm>  (1298) 
28

>  <i_qp_#noncon>  (1298) 
1

>  <i_qp_#ringatoms>  (1298) 
21

>  <i_qp_#rotor>  (1298) 
6

>  <i_qp_#rtvFG>  (1298) 
0

>  <i_qp_#stars>  (1298) 
0

>  <i_qp_CNS>  (1298) 
1

>  <i_qp_HumanOralAbsorption>  (1298) 
3

>  <i_qp_RuleOfFive>  (1298) 
0

>  <i_qp_RuleOfThree>  (1298) 
0

>  <i_sd_BIOSOLVEIT.INFINISEE\_REAGENT1\_NAME>  (1298) 
12219716

>  <i_sd_BIOSOLVEIT.INFINISEE\_REAGENT2\_NAME>  (1298) 
7547104

>  <i_sd_BIOSOLVEIT.INFINISEE\_RESULT\_RANK>  (1298) 
13691

>  <i_sd_version>  (1298) 
0

>  <b_lp_Chiralities_Consistent>  (1298) 
1

>  <b_sd_chiral_flag>  (1298) 
0

>  <canonical_id>  (1298) 
ATP-HTVS-CCF7E888A475

>  <compound_code>  (1298) 
26563

>  <title>  (1298) 
m_270004bbb____12219716____7547104

>  <variant>  (1298) 
26563-1

>  <source_file>  (1298) 
运行/运行/ATP-VSW/ATP-VSW-DOCK_HTVS_1-003_lib/ATP-VSW-DOCK_HTVS_1-003_lib.mae

>  <canonical_smiles>  (1298) 
Cc1ccc(C)c(C[NH2+]C[C@H]2c3ccccc3C(=O)N2Cc2ccccc2)c1

>  <scaffold>  (1298) 
O=C1c2ccccc2C(C[NH2+]Cc2ccccc2)N1Cc1ccccc1

>  <molecular_formula>  (1298) 
C25H27N2O+

$$$$
ATP-HTVS-CD22DC9E9474
     RDKit          3D

 51 53  0  0  0  0  0  0  0  0999 V2000
  197.1489  185.6974  158.8967 S   0  0  0  0  0  0  0  0  0  0  0  0
  195.6637  185.2040  159.7030 C   0  0  0  0  0  0  0  0  0  0  0  0
  195.3225  183.9360  159.4697 N   0  0  0  0  0  0  0  0  0  0  0  0
  196.2686  183.2748  158.6742 C   0  0  0  0  0  0  0  0  0  0  0  0
  197.3354  184.0581  158.3409 C   0  0  0  0  0  0  0  0  0  0  0  0
  196.0288  181.8370  158.3085 C   0  0  1  0  0  0  0  0  0  0  0  0
  195.9385  181.6074  156.8543 N   0  0  1  0  0  0  0  0  0  0  0  0
  197.1729  181.9407  156.1144 C   0  0  1  0  0  0  0  0  0  0  0  0
  197.1015  181.4978  154.6673 C   0  0  0  0  0  0  0  0  0  0  0  0
  197.0143  182.4263  153.5958 C   0  0  0  0  0  0  0  0  0  0  0  0
  196.9817  181.9353  152.2685 C   0  0  0  0  0  0  0  0  0  0  0  0
  197.0313  180.5513  152.0156 C   0  0  0  0  0  0  0  0  0  0  0  0
  196.9976  180.0909  150.7379 F   0  0  0  0  0  0  0  0  0  0  0  0
  197.1155  179.6440  153.0912 C   0  0  0  0  0  0  0  0  0  0  0  0
  197.1484  180.1153  154.4145 C   0  0  0  0  0  0  0  0  0  0  0  0
  196.9640  183.9408  153.7977 C   0  0  1  0  0  0  0  0  0  0  0  0
  198.2820  184.5609  153.9707 N   0  0  0  0  0  0  0  0  0  0  0  0
  198.1140  185.9713  154.2966 C   0  0  2  0  0  0  0  0  0  0  0  0
  199.0672  184.4806  152.7420 C   0  0  2  0  0  0  0  0  0  0  0  0
  194.9247  186.1511  160.5168 C   0  0  0  0  0  0  0  0  0  0  0  0
  193.6086  185.8478  160.9187 C   0  0  0  0  0  0  0  0  0  0  0  0
  192.8900  186.7430  161.7291 C   0  0  0  0  0  0  0  0  0  0  0  0
  193.4713  187.9625  162.1253 C   0  0  0  0  0  0  0  0  0  0  0  0
  194.7717  188.2850  161.6567 C   0  0  0  0  0  0  0  0  0  0  0  0
  195.5079  187.3700  160.9030 C   0  0  0  0  0  0  0  0  0  0  0  0
  192.6948  188.9237  163.0045 C   0  0  1  0  0  0  0  0  0  0  0  0
  193.5117  189.7857  163.6104 F   0  0  0  0  0  0  0  0  0  0  0  0
  191.8125  189.5961  162.2644 F   0  0  0  0  0  0  0  0  0  0  0  0
  192.0436  188.2347  163.9404 F   0  0  0  0  0  0  0  0  0  0  0  0
  195.7536  180.6160  156.7988 H   0  0  0  0  0  0  0  0  0  0  0  0
  198.1960  183.8122  157.7523 H   0  0  0  0  0  0  0  0  0  0  0  0
  196.8094  181.1964  158.7173 H   0  0  0  0  0  0  0  0  0  0  0  0
  195.1039  181.4685  158.7403 H   0  0  0  0  0  0  0  0  0  0  0  0
  197.3555  183.0203  156.1722 H   0  0  0  0  0  0  0  0  0  0  0  0
  198.0460  181.4742  156.5739 H   0  0  0  0  0  0  0  0  0  0  0  0
  196.9326  182.6293  151.4400 H   0  0  0  0  0  0  0  0  0  0  0  0
  197.1555  178.5857  152.8817 H   0  0  0  0  0  0  0  0  0  0  0  0
  197.2150  179.4066  155.2284 H   0  0  0  0  0  0  0  0  0  0  0  0
  196.4429  184.3903  152.9580 H   0  0  0  0  0  0  0  0  0  0  0  0
  196.3426  184.1819  154.6609 H   0  0  0  0  0  0  0  0  0  0  0  0
  199.0778  186.4692  154.4243 H   0  0  0  0  0  0  0  0  0  0  0  0
  197.5543  186.1000  155.2246 H   0  0  0  0  0  0  0  0  0  0  0  0
  197.5771  186.4876  153.5004 H   0  0  0  0  0  0  0  0  0  0  0  0
  200.0370  184.9697  152.8588 H   0  0  0  0  0  0  0  0  0  0  0  0
  198.5484  184.9569  151.9081 H   0  0  0  0  0  0  0  0  0  0  0  0
  199.2683  183.4451  152.4692 H   0  0  0  0  0  0  0  0  0  0  0  0
  193.1463  184.9273  160.5981 H   0  0  0  0  0  0  0  0  0  0  0  0
  191.8855  186.4956  162.0509 H   0  0  0  0  0  0  0  0  0  0  0  0
  195.2375  189.2188  161.9315 H   0  0  0  0  0  0  0  0  0  0  0  0
  196.5246  187.6271  160.6309 H   0  0  0  0  0  0  0  0  0  0  0  0
  195.1517  182.1091  156.4519 H   0  0  0  0  0  0  0  0  0  0  0  0
  1  2  1  0
  1  5  1  0
  2  3  2  0
  2 20  1  0
  3  4  1  0
  4  5  2  0
  4  6  1  0
  5 31  1  0
  6  7  1  0
  6 32  1  1
  6 33  1  0
  7  8  1  0
  7 30  1  1
  7 51  1  0
  8  9  1  0
  8 34  1  6
  8 35  1  0
  9 10  2  0
  9 15  1  0
 10 11  1  0
 10 16  1  0
 11 12  2  0
 11 36  1  0
 12 13  1  0
 12 14  1  0
 14 15  2  0
 14 37  1  0
 15 38  1  0
 16 17  1  0
 16 39  1  6
 16 40  1  0
 17 18  1  0
 17 19  1  0
 18 41  1  1
 18 42  1  0
 18 43  1  0
 19 44  1  1
 19 45  1  0
 19 46  1  0
 20 21  1  0
 20 25  2  0
 21 22  2  0
 21 47  1  0
 22 23  1  0
 22 48  1  0
 23 24  2  0
 23 26  1  0
 24 25  1  0
 24 49  1  0
 25 50  1  0
 26 27  1  1
 26 28  1  0
 26 29  1  0
M  CHG  1   7   1
M  END
>  <s_epik_cmdline>  (1299) 
J2VwaWtfcHl0aG9uJywgJy1waCcsICc3LjAwMDAwMCcsICctcGh0JywgJzIuMDAwMDAwJywgJy1tcycsICcxNicsICctdG4nLCAnOCcsICctbWEnLCAnMjAwJywgJy1pbWFlJywgJzxpbmZpbGUubWFlPicsICctb21hZScsICc8b3V0ZmlsZS5tYWU+Jw==

>  <s_epik_input>  (1299) 
W2NIXTFbY0hdYyhDKEYpKEYpRilbY0hdW2NIXWMxLWMyc1tjSF1jKG4yKVtDSDJdW05IXVtDSDJdYzNjKFtDSDJdTihbQ0gzXSlbQ0gzXSlbY0hdYyhGKVtjSF1bY0hdMw==

>  <s_i_glide_gridfile>  (1299) 
ATP-Grid

>  <s_lp_Force_Field>  (1299) 
OPLS_2005

>  <s_lp_Variant>  (1299) 
m_270004bbb____24792668____7548982-3

>  <s_lp_label>  (1299) 
877_sdstereoexpander_1_neutralizer_1_epik_3_stereoizer_1

>  <s_m_source_file>  (1299) 
ATP-VSW-LIGPREP-001-in.maegz

>  <s_sd_BIOSOLVEIT.INFINISEE\_QUERY\_NAME>  (1299) 
Ref-Lig

>  <s_sd_BIOSOLVEIT.INFINISEE\_QUERY\_SMILES>  (1299) 
S(c1nc2c(cc1C[NH2+]Cc3ccc(cc3)C[NH+](C)C)cccc2)Cc4ccccc4

>  <s_sd_BIOSOLVEIT.INFINISEE\_REACTION\_NAME>  (1299) 
m_270004bbb

>  <s_sd_BIOSOLVEIT.INFINISEE\_REAGENT1\_SMILES>  (1299) 
[R1*]NCc1c(cc(F)cc1)CN(C)C

>  <s_sd_BIOSOLVEIT.INFINISEE\_REAGENT2\_SMILES>  (1299) 
[R1*]CC=1N=C(SC1)c2ccc(cc2)C(F)(F)F

>  <s_sd_BIOSOLVEIT.INFINISEE\_SPACE>  (1299) 
REALSpace_44bn_2023-08

>  <s_vsw_compound_code>  (1299) 
28033

>  <s_vsw_variant>  (1299) 
28033-3

>  <r_epik_Charging_Adjusted_Penalty>  (1299) 
1.6057944718811299

>  <r_epik_Ionization_Penalty>  (1299) 
1.4123000000000001

>  <r_epik_Ionization_Penalty_Charging>  (1299) 
0.13980000000000001

>  <r_epik_Ionization_Penalty_Neutral>  (1299) 
1.2725

>  <r_epik_State_Penalty>  (1299) 
1.4659

>  <r_i_docking_score>  (1299) 
-4.0707600408721003

>  <r_i_glide_ecoul>  (1299) 
-11.1243295669556

>  <r_i_glide_eff_state_penalty>  (1299) 
1.4659

>  <r_i_glide_einternal>  (1299) 
2.4733195304870601

>  <r_i_glide_emodel>  (1299) 
-63.557387860211598

>  <r_i_glide_energy>  (1299) 
-42.449698448181202

>  <r_i_glide_erotb>  (1299) 
0.66028715856277198

>  <r_i_glide_esite>  (1299) 
-0.155772742972451

>  <r_i_glide_evdw>  (1299) 
-31.3253688812256

>  <r_i_glide_gscore>  (1299) 
-5.5366600408720998

>  <r_i_glide_hbond>  (1299) 
-0.37267597570811201

>  <r_i_glide_ligand_efficiency>  (1299) 
-0.14037103589214101

>  <r_i_glide_ligand_efficiency_ln>  (1299) 
-0.93210082379161996

>  <r_i_glide_ligand_efficiency_sa>  (1299) 
-0.43126429492631302

>  <r_i_glide_lipo>  (1299) 
-1.20308285459699

>  <r_i_glide_metal>  (1299) 
-0

>  <r_i_glide_rewards>  (1299) 
-1.2304977470527001

>  <r_lp_Energy>  (1299) 
14.575437000000001

>  <r_qp_ACxDN^.5/SA>  (1299) 
0.0076023999999999996

>  <r_qp_CIQPlogS>  (1299) 
-4.7530000000000001

>  <r_qp_EA(eV)>  (1299) 
1.5409999999999999

>  <r_qp_FISA>  (1299) 
14.287000000000001

>  <r_qp_FOSA>  (1299) 
176.364

>  <r_qp_IP(eV)>  (1299) 
9.3759999999999994

>  <r_qp_Jm>  (1299) 
0.0020181689023592098

>  <r_qp_PISA>  (1299) 
260.20499999999998

>  <r_qp_PSA>  (1299) 
25.215

>  <r_qp_PercentHumanOralAbsorption>  (1299) 
100

>  <r_qp_QPPCaco>  (1299) 
451.04599999999999

>  <r_qp_QPPMDCK>  (1299) 
3478.5900000000001

>  <r_qp_QPlogBB>  (1299) 
1.3720000000000001

>  <r_qp_QPlogHERG>  (1299) 
-6.7649999999999997

>  <r_qp_QPlogKhsa>  (1299) 
0.73399999999999999

>  <r_qp_QPlogKp>  (1299) 
-4.415

>  <r_qp_QPlogPC16>  (1299) 
11.012

>  <r_qp_QPlogPo/w>  (1299) 
4.8470000000000004

>  <r_qp_QPlogPoct>  (1299) 
18.579999999999998

>  <r_qp_QPlogPw>  (1299) 
8.3070000000000004

>  <r_qp_QPlogS>  (1299) 
-3.907

>  <r_qp_QPpolrz>  (1299) 
41.606999999999999

>  <r_qp_SASA>  (1299) 
657.69000000000005

>  <r_qp_SAamideO>  (1299) 
0

>  <r_qp_SAfluorine>  (1299) 
164.53399999999999

>  <r_qp_WPSA>  (1299) 
206.83500000000001

>  <r_qp_accptHB>  (1299) 
5

>  <r_qp_dip^2/V>  (1299) 
0.012290799999999999

>  <r_qp_dipole>  (1299) 
3.8839999999999999

>  <r_qp_donorHB>  (1299) 
1

>  <r_qp_glob>  (1299) 
0.84304599999999996

>  <r_qp_mol_MW>  (1299) 
423.471

>  <r_qp_volume>  (1299) 
1227.6120000000001

>  <r_sd_BIOSOLVEIT.INFINISEE\_FTREES\_SIMILARITY>  (1299) 
0.92000000000000004

>  <r_sd_BIOSOLVEIT.LOGP>  (1299) 
2.8761000000000001

>  <r_sd_BIOSOLVEIT.MOLECULAR\_WEIGHT>  (1299) 
425.49099999999999

>  <r_sd_BIOSOLVEIT.TPSA>  (1299) 
33.939999999999998

>  <i_epik_Tot_Q>  (1299) 
1

>  <i_epik_Tot_abs_Q>  (1299) 
1

>  <i_f3d_flags>  (1299) 
0

>  <i_i_glide_confnum>  (1299) 
5

>  <i_i_glide_lignum>  (1299) 
151

>  <i_i_glide_posenum>  (1299) 
16

>  <i_i_glide_rotatable_bonds>  (1299) 
8

>  <i_lp_mmshare_version>  (1299) 
65135

>  <i_m_ct_format>  (1299) 
2

>  <i_m_source_file_index>  (1299) 
877

>  <i_qp_#NandO>  (1299) 
3

>  <i_qp_#acid>  (1299) 
0

>  <i_qp_#amide>  (1299) 
0

>  <i_qp_#amidine>  (1299) 
0

>  <i_qp_#amine>  (1299) 
2

>  <i_qp_#in34>  (1299) 
0

>  <i_qp_#in56>  (1299) 
17

>  <i_qp_#metab>  (1299) 
6

>  <i_qp_#nonHatm>  (1299) 
29

>  <i_qp_#noncon>  (1299) 
0

>  <i_qp_#ringatoms>  (1299) 
17

>  <i_qp_#rotor>  (1299) 
6

>  <i_qp_#rtvFG>  (1299) 
0

>  <i_qp_#stars>  (1299) 
2

>  <i_qp_CNS>  (1299) 
2

>  <i_qp_HumanOralAbsorption>  (1299) 
3

>  <i_qp_RuleOfFive>  (1299) 
0

>  <i_qp_RuleOfThree>  (1299) 
0

>  <i_sd_BIOSOLVEIT.INFINISEE\_REAGENT1\_NAME>  (1299) 
24792668

>  <i_sd_BIOSOLVEIT.INFINISEE\_REAGENT2\_NAME>  (1299) 
7548982

>  <i_sd_BIOSOLVEIT.INFINISEE\_RESULT\_RANK>  (1299) 
16976

>  <i_sd_version>  (1299) 
0

>  <b_lp_Chiralities_Consistent>  (1299) 
1

>  <b_sd_chiral_flag>  (1299) 
0

>  <canonical_id>  (1299) 
ATP-HTVS-CD22DC9E9474

>  <compound_code>  (1299) 
28033

>  <title>  (1299) 
m_270004bbb____24792668____7548982

>  <variant>  (1299) 
28033-3

>  <source_file>  (1299) 
运行/运行/ATP-VSW/ATP-VSW-DOCK_HTVS_1-001_lib/ATP-VSW-DOCK_HTVS_1-001_lib

>  <canonical_smiles>  (1299) 
CN(C)Cc1cc(F)ccc1C[NH2+]Cc1csc(-c2ccc(C(F)(F)F)cc2)n1

>  <scaffold>  (1299) 
c1ccc(C[NH2+]Cc2csc(-c3ccccc3)n2)cc1

>  <molecular_formula>  (1299) 
C21H22F4N3S+

$$$$
ATP-HTVS-CD3E1774443F
     RDKit          3D

 58 61  0  0  0  0  0  0  0  0999 V2000
  196.7057  184.2415  149.6944 Cl  0  0  0  0  0  0  0  0  0  0  0  0
  197.6226  184.6532  151.0972 C   0  0  0  0  0  0  0  0  0  0  0  0
  198.8025  185.4198  150.9902 C   0  0  0  0  0  0  0  0  0  0  0  0
  199.5303  185.7741  152.1481 C   0  0  0  0  0  0  0  0  0  0  0  0
  199.0725  185.3793  153.4282 C   0  0  0  0  0  0  0  0  0  0  0  0
  197.8784  184.6151  153.5170 C   0  0  0  0  0  0  0  0  0  0  0  0
  197.1718  184.2437  152.3638 C   0  0  0  0  0  0  0  0  0  0  0  0
  199.9030  185.7747  154.6562 C   0  0  1  0  0  0  0  0  0  0  0  0
  199.2107  185.9639  155.9279 N   0  0  0  0  0  0  0  0  0  0  0  0
  198.4956  184.9810  156.5855 C   0  0  0  0  0  0  0  0  0  0  0  0
  198.7793  183.6977  156.3581 N   0  0  0  0  0  0  0  0  0  0  0  0
  198.0192  182.7321  156.9135 C   0  0  0  0  0  0  0  0  0  0  0  0
  198.3130  181.3934  156.6183 N   0  0  0  0  0  0  0  0  0  0  0  0
  199.1440  181.0267  155.4779 C   0  0  1  0  0  0  0  0  0  0  0  0
  199.8606  179.6943  155.6371 C   0  0  0  0  0  0  0  0  0  0  0  0
  200.5356  179.1569  154.5213 C   0  0  0  0  0  0  0  0  0  0  0  0
  201.2584  177.9727  154.6497 C   0  0  0  0  0  0  0  0  0  0  0  0
  201.2675  177.2410  155.8546 C   0  0  0  0  0  0  0  0  0  0  0  0
  200.5935  177.7802  156.9731 C   0  0  0  0  0  0  0  0  0  0  0  0
  199.9073  179.0030  156.8699 C   0  0  0  0  0  0  0  0  0  0  0  0
  201.9970  175.9005  155.9446 C   0  0  1  0  0  0  0  0  0  0  0  0
  201.4837  174.8307  155.0746 N   0  0  0  0  0  0  0  0  0  0  0  0
  201.4127  175.2317  153.6743 C   0  0  2  0  0  0  0  0  0  0  0  0
  202.3655  173.6649  155.1593 C   0  0  2  0  0  0  0  0  0  0  0  0
  196.9517  183.0679  157.7645 C   0  0  0  0  0  0  0  0  0  0  0  0
  196.7116  184.4374  157.9853 C   0  0  0  0  0  0  0  0  0  0  0  0
  197.4891  185.3646  157.3830 N   0  0  0  0  0  0  0  0  0  0  0  0
  195.6656  184.8533  158.8282 C   0  0  0  0  0  0  0  0  0  0  0  0
  194.8582  183.8879  159.4603 C   0  0  0  0  0  0  0  0  0  0  0  0
  195.0883  182.5186  159.2341 C   0  0  0  0  0  0  0  0  0  0  0  0
  196.1303  182.1034  158.3872 C   0  0  0  0  0  0  0  0  0  0  0  0
  199.1447  185.7376  150.0152 H   0  0  0  0  0  0  0  0  0  0  0  0
  200.4403  186.3554  152.0428 H   0  0  0  0  0  0  0  0  0  0  0  0
  197.4520  184.2783  154.4470 H   0  0  0  0  0  0  0  0  0  0  0  0
  196.2685  183.6625  152.4803 H   0  0  0  0  0  0  0  0  0  0  0  0
  200.7130  185.0580  154.7991 H   0  0  0  0  0  0  0  0  0  0  0  0
  200.3905  186.7256  154.4360 H   0  0  0  0  0  0  0  0  0  0  0  0
  199.0059  186.9123  156.1910 H   0  0  0  0  0  0  0  0  0  0  0  0
  197.8185  180.6473  157.0848 H   0  0  0  0  0  0  0  0  0  0  0  0
  198.5261  180.9969  154.5785 H   0  0  0  0  0  0  0  0  0  0  0  0
  199.9267  181.7634  155.2970 H   0  0  0  0  0  0  0  0  0  0  0  0
  200.4903  179.6637  153.5649 H   0  0  0  0  0  0  0  0  0  0  0  0
  201.7934  177.5733  153.7846 H   0  0  0  0  0  0  0  0  0  0  0  0
  200.5843  177.2507  157.9232 H   0  0  0  0  0  0  0  0  0  0  0  0
  199.4149  179.3930  157.7462 H   0  0  0  0  0  0  0  0  0  0  0  0
  203.0567  176.0834  155.7472 H   0  0  0  0  0  0  0  0  0  0  0  0
  201.9477  175.5528  156.9784 H   0  0  0  0  0  0  0  0  0  0  0  0
  201.1535  174.3833  153.0145 H   0  0  0  0  0  0  0  0  0  0  0  0
  202.3882  175.5933  153.3599 H   0  0  0  0  0  0  0  0  0  0  0  0
  200.7359  176.0641  153.5636 H   0  0  0  0  0  0  0  0  0  0  0  0
  202.0225  172.8852  154.4785 H   0  0  0  0  0  0  0  0  0  0  0  0
  202.4002  173.2406  156.1660 H   0  0  0  0  0  0  0  0  0  0  0  0
  203.3818  173.9281  154.8666 H   0  0  0  0  0  0  0  0  0  0  0  0
  195.4695  185.9106  158.9968 H   0  0  0  0  0  0  0  0  0  0  0  0
  194.0579  184.2045  160.1187 H   0  0  0  0  0  0  0  0  0  0  0  0
  194.4768  181.7698  159.7047 H   0  0  0  0  0  0  0  0  0  0  0  0
  196.2939  181.0287  158.2468 H   0  0  0  0  0  0  0  0  0  0  0  0
  197.2653  186.3531  157.5171 H   0  0  0  0  0  0  0  0  0  0  0  0
  1  2  1  0
  2  3  1  0
  2  7  2  0
  3  4  2  0
  3 32  1  0
  4  5  1  0
  4 33  1  0
  5  6  2  0
  5  8  1  0
  6  7  1  0
  6 34  1  0
  7 35  1  0
  8  9  1  0
  8 36  1  1
  8 37  1  0
  9 10  1  0
  9 38  1  0
 10 11  1  0
 10 27  2  0
 11 12  2  0
 12 13  1  0
 12 25  1  0
 13 14  1  0
 13 39  1  0
 14 15  1  0
 14 40  1  6
 14 41  1  0
 15 16  1  0
 15 20  2  0
 16 17  2  0
 16 42  1  0
 17 18  1  0
 17 43  1  0
 18 19  2  0
 18 21  1  0
 19 20  1  0
 19 44  1  0
 20 45  1  0
 21 22  1  0
 21 46  1  6
 21 47  1  0
 22 23  1  0
 22 24  1  0
 23 48  1  6
 23 49  1  0
 23 50  1  0
 24 51  1  6
 24 52  1  0
 24 53  1  0
 25 26  1  0
 25 31  2  0
 26 27  1  0
 26 28  2  0
 27 58  1  0
 28 29  1  0
 28 54  1  0
 29 30  2  0
 29 55  1  0
 30 31  1  0
 30 56  1  0
 31 57  1  0
M  CHG  1  27   1
M  END
>  <s_epik_cmdline>  (1300) 
J2VwaWtfcHl0aG9uJywgJy1waCcsICc3LjAwMDAwMCcsICctcGh0JywgJzIuMDAwMDAwJywgJy1tcycsICcxNicsICctdG4nLCAnOCcsICctbWEnLCAnMjAwJywgJy1pbWFlJywgJzxpbmZpbGUubWFlPicsICctb21hZScsICc8b3V0ZmlsZS5tYWU+Jw==

>  <s_epik_input>  (1300) 
Q2xjMVtjSF1bY0hdYyhbY0hdW2NIXTEpW0NIMl1bTkhdYyhuYyhjMjMpW2NIXVtjSF1bY0hdW2NIXTMpbmMyW05IXVtDSDJdYzRbY0hdW2NIXWMoW2NIXVtjSF00KVtDSDJdTihbQ0gzXSlbQ0gzXQ==

>  <s_i_glide_gridfile>  (1300) 
ATP-Grid

>  <s_lp_Force_Field>  (1300) 
OPLS_2005

>  <s_lp_Variant>  (1300) 
m_282030aaa____21931282____22360182____21945542-2

>  <s_lp_label>  (1300) 
882_sdstereoexpander_1_neutralizer_1_epik_2_stereoizer_1

>  <s_m_source_file>  (1300) 
ATP-VSW-LIGPREP-002-in.maegz

>  <s_sd_BIOSOLVEIT.INFINISEE\_QUERY\_NAME>  (1300) 
Ref-Lig

>  <s_sd_BIOSOLVEIT.INFINISEE\_QUERY\_SMILES>  (1300) 
S(c1nc2c(cc1C[NH2+]Cc3ccc(cc3)C[NH+](C)C)cccc2)Cc4ccccc4

>  <s_sd_BIOSOLVEIT.INFINISEE\_REACTION\_NAME>  (1300) 
m_282030aaa

>  <s_sd_BIOSOLVEIT.INFINISEE\_REAGENT1\_SMILES>  (1300) 
[R1*]NCc1ccc(Cl)cc1

>  <s_sd_BIOSOLVEIT.INFINISEE\_REAGENT2\_SMILES>  (1300) 
[R2*]c1nc([R1*])c2c(n1)cccc2

>  <s_sd_BIOSOLVEIT.INFINISEE\_REAGENT3\_SMILES>  (1300) 
[R2*]NCc1ccc(cc1)CN(C)C

>  <s_sd_BIOSOLVEIT.INFINISEE\_SPACE>  (1300) 
REALSpace_44bn_2023-08

>  <s_vsw_compound_code>  (1300) 
28194

>  <s_vsw_variant>  (1300) 
28194-2

>  <r_epik_Charging_Adjusted_Penalty>  (1300) 
1.6829804878366501

>  <r_epik_Ionization_Penalty>  (1300) 
1.6452

>  <r_epik_Ionization_Penalty_Charging>  (1300) 
0.0167

>  <r_epik_Ionization_Penalty_Neutral>  (1300) 
1.6284000000000001

>  <r_epik_State_Penalty>  (1300) 
1.6662999999999999

>  <r_i_docking_score>  (1300) 
-1.2165736224470201

>  <r_i_glide_ecoul>  (1300) 
-2.79516553878784

>  <r_i_glide_eff_state_penalty>  (1300) 
1.6662999999999999

>  <r_i_glide_einternal>  (1300) 
3.74909639358521

>  <r_i_glide_emodel>  (1300) 
-43.890591227106299

>  <r_i_glide_energy>  (1300) 
-36.042041301727302

>  <r_i_glide_erotb>  (1300) 
0.74320230027251499

>  <r_i_glide_esite>  (1300) 
-0.042757024814253503

>  <r_i_glide_evdw>  (1300) 
-33.246875762939503

>  <r_i_glide_gscore>  (1300) 
-2.8828736224470202

>  <r_i_glide_hbond>  (1300) 
0

>  <r_i_glide_ligand_efficiency>  (1300) 
-0.039244310401516803

>  <r_i_glide_ligand_efficiency_ln>  (1300) 
-0.27437463536575202

>  <r_i_glide_ligand_efficiency_sa>  (1300) 
-0.123281317270652

>  <r_i_glide_lipo>  (1300) 
-1.0415005873596399

>  <r_i_glide_metal>  (1300) 
-0

>  <r_i_glide_rewards>  (1300) 
-0.46019969158048901

>  <r_lp_Energy>  (1300) 
14.6709

>  <r_qp_ACxDN^.5/SA>  (1300) 
0.0105845

>  <r_qp_CIQPlogS>  (1300) 
-6.1870000000000003

>  <r_qp_EA(eV)>  (1300) 
0.64400000000000002

>  <r_qp_FISA>  (1300) 
50.545000000000002

>  <r_qp_FOSA>  (1300) 
212.636

>  <r_qp_IP(eV)>  (1300) 
8.1210000000000004

>  <r_qp_Jm>  (1300) 
0.087994667212573902

>  <r_qp_PISA>  (1300) 
356.68400000000003

>  <r_qp_PSA>  (1300) 
47.231999999999999

>  <r_qp_PercentHumanOralAbsorption>  (1300) 
100

>  <r_qp_QPPCaco>  (1300) 
819.36800000000005

>  <r_qp_QPPMDCK>  (1300) 
810.428

>  <r_qp_QPlogBB>  (1300) 
0.14099999999999999

>  <r_qp_QPlogHERG>  (1300) 
-6.242

>  <r_qp_QPlogKhsa>  (1300) 
0.78200000000000003

>  <r_qp_QPlogKp>  (1300) 
-2.4889999999999999

>  <r_qp_QPlogPC16>  (1300) 
13.866

>  <r_qp_QPlogPo/w>  (1300) 
4.8860000000000001

>  <r_qp_QPlogPoct>  (1300) 
20.314

>  <r_qp_QPlogPw>  (1300) 
10.202999999999999

>  <r_qp_QPlogS>  (1300) 
-4.202

>  <r_qp_QPpolrz>  (1300) 
43.837000000000003

>  <r_qp_SASA>  (1300) 
668.05899999999997

>  <r_qp_SAamideO>  (1300) 
0

>  <r_qp_SAfluorine>  (1300) 
0

>  <r_qp_WPSA>  (1300) 
48.192999999999998

>  <r_qp_accptHB>  (1300) 
5

>  <r_qp_dip^2/V>  (1300) 
0.0071517000000000004

>  <r_qp_dipole>  (1300) 
3.04

>  <r_qp_donorHB>  (1300) 
2

>  <r_qp_glob>  (1300) 
0.8589099

>  <r_qp_mol_MW>  (1300) 
431.96699999999998

>  <r_qp_volume>  (1300) 
1292.396

>  <r_sd_BIOSOLVEIT.INFINISEE\_FTREES\_SIMILARITY>  (1300) 
0.92000000000000004

>  <r_sd_BIOSOLVEIT.LOGP>  (1300) 
4.1519000000000004

>  <r_sd_BIOSOLVEIT.MOLECULAR\_WEIGHT>  (1300) 
432.976

>  <r_sd_BIOSOLVEIT.TPSA>  (1300) 
54.280000000000001

>  <i_epik_Tot_Q>  (1300) 
1

>  <i_epik_Tot_abs_Q>  (1300) 
1

>  <i_f3d_flags>  (1300) 
0

>  <i_i_glide_confnum>  (1300) 
6

>  <i_i_glide_lignum>  (1300) 
280

>  <i_i_glide_posenum>  (1300) 
7

>  <i_i_glide_rotatable_bonds>  (1300) 
8

>  <i_lp_mmshare_version>  (1300) 
65135

>  <i_m_ct_format>  (1300) 
2

>  <i_m_source_file_index>  (1300) 
882

>  <i_qp_#NandO>  (1300) 
5

>  <i_qp_#acid>  (1300) 
0

>  <i_qp_#amide>  (1300) 
0

>  <i_qp_#amidine>  (1300) 
0

>  <i_qp_#amine>  (1300) 
1

>  <i_qp_#in34>  (1300) 
0

>  <i_qp_#in56>  (1300) 
22

>  <i_qp_#metab>  (1300) 
4

>  <i_qp_#nonHatm>  (1300) 
31

>  <i_qp_#noncon>  (1300) 
0

>  <i_qp_#ringatoms>  (1300) 
22

>  <i_qp_#rotor>  (1300) 
8

>  <i_qp_#rtvFG>  (1300) 
0

>  <i_qp_#stars>  (1300) 
0

>  <i_qp_CNS>  (1300) 
1

>  <i_qp_HumanOralAbsorption>  (1300) 
3

>  <i_qp_RuleOfFive>  (1300) 
0

>  <i_qp_RuleOfThree>  (1300) 
0

>  <i_sd_BIOSOLVEIT.INFINISEE\_REAGENT1\_NAME>  (1300) 
21931282

>  <i_sd_BIOSOLVEIT.INFINISEE\_REAGENT2\_NAME>  (1300) 
22360182

>  <i_sd_BIOSOLVEIT.INFINISEE\_REAGENT3\_NAME>  (1300) 
21945542

>  <i_sd_BIOSOLVEIT.INFINISEE\_RESULT\_RANK>  (1300) 
17314

>  <i_sd_version>  (1300) 
0

>  <b_lp_Chiralities_Consistent>  (1300) 
1

>  <b_sd_chiral_flag>  (1300) 
0

>  <canonical_id>  (1300) 
ATP-HTVS-CD3E1774443F

>  <compound_code>  (1300) 
28194

>  <title>  (1300) 
m_282030aaa____21931282____22360182____21945542

>  <variant>  (1300) 
28194-2

>  <source_file>  (1300) 
运行/运行/ATP-VSW/ATP-VSW-DOCK_HTVS_1-002_lib.maegz

>  <canonical_smiles>  (1300) 
CN(C)Cc1ccc(CNc2nc(NCc3ccc(Cl)cc3)[nH+]c3ccccc23)cc1

>  <scaffold>  (1300) 
c1ccc(CNc2nc(NCc3ccccc3)c3ccccc3[nH+]2)cc1

>  <molecular_formula>  (1300) 
C25H27ClN5+

$$$$
ATP-HTVS-CD664E950D6F
     RDKit          3D

 59 62  0  0  0  0  0  0  0  0999 V2000
  202.0105  175.0381  156.1512 S   0  0  0  0  0  0  0  0  0  0  0  0
  202.7589  174.8130  154.5951 C   0  0  0  0  0  0  0  0  0  0  0  0
  202.5903  175.9358  153.8258 C   0  0  0  0  0  0  0  0  0  0  0  0
  201.8161  176.9467  154.4525 C   0  0  0  0  0  0  0  0  0  0  0  0
  201.4003  176.6036  155.7157 C   0  0  0  0  0  0  0  0  0  0  0  0
  200.5573  177.3760  156.6963 C   0  0  1  0  0  0  0  0  0  0  0  0
  199.3813  177.9928  156.1088 N   0  0  0  0  0  0  0  0  0  0  0  0
  199.6873  179.3203  155.6033 C   0  0  1  0  0  0  0  0  0  0  0  0
  198.5737  179.8806  154.7614 C   0  0  0  0  0  0  0  0  0  0  0  0
  197.6716  180.9329  155.0949 C   0  0  0  0  0  0  0  0  0  0  0  0
  196.8050  181.1721  154.1217 N   0  0  0  0  0  0  0  0  0  0  0  0
  197.1318  180.3128  153.1377 N   0  0  0  0  0  0  0  0  0  0  0  0
  198.1895  179.5064  153.5014 C   0  0  0  0  0  0  0  0  0  0  0  0
  196.3857  180.3373  151.8915 C   0  0  1  0  0  0  0  0  0  0  0  0
  196.8333  181.4783  150.9910 C   0  0  0  0  0  0  0  0  0  0  0  0
  196.3512  182.7869  151.2019 C   0  0  0  0  0  0  0  0  0  0  0  0
  196.7668  183.8418  150.3673 C   0  0  0  0  0  0  0  0  0  0  0  0
  197.6767  183.5942  149.3198 C   0  0  0  0  0  0  0  0  0  0  0  0
  198.1647  182.2911  149.1082 C   0  0  0  0  0  0  0  0  0  0  0  0
  197.7402  181.2346  149.9365 C   0  0  0  0  0  0  0  0  0  0  0  0
  197.6257  181.7409  156.3140 C   0  0  0  0  0  0  0  0  0  0  0  0
  196.3929  181.9498  156.9613 C   0  0  0  0  0  0  0  0  0  0  0  0
  196.3279  182.6989  158.1516 C   0  0  0  0  0  0  0  0  0  0  0  0
  197.5011  183.2473  158.7031 C   0  0  0  0  0  0  0  0  0  0  0  0
  198.7373  183.0493  158.0604 C   0  0  0  0  0  0  0  0  0  0  0  0
  198.7996  182.3008  156.8673 C   0  0  0  0  0  0  0  0  0  0  0  0
  203.4381  173.5228  154.2181 C   0  0  1  0  0  0  0  0  0  0  0  0
  202.5849  172.6373  153.3734 N   0  0  1  0  0  0  0  0  0  0  0  0
  201.1892  172.5042  153.8506 C   0  0  2  0  0  0  0  0  0  0  0  0
  202.6456  172.9735  151.9313 C   0  0  2  0  0  0  0  0  0  0  0  0
  198.6331  178.0093  156.8110 H   0  0  0  0  0  0  0  0  0  0  0  0
  202.9685  176.0713  152.8241 H   0  0  0  0  0  0  0  0  0  0  0  0
  201.5911  177.8657  153.9336 H   0  0  0  0  0  0  0  0  0  0  0  0
  200.1812  176.7009  157.4658 H   0  0  0  0  0  0  0  0  0  0  0  0
  201.1591  178.1065  157.2312 H   0  0  0  0  0  0  0  0  0  0  0  0
  199.9332  179.9458  156.4617 H   0  0  0  0  0  0  0  0  0  0  0  0
  200.5900  179.3056  154.9937 H   0  0  0  0  0  0  0  0  0  0  0  0
  198.5852  178.7549  152.8342 H   0  0  0  0  0  0  0  0  0  0  0  0
  196.5040  179.3752  151.3889 H   0  0  0  0  0  0  0  0  0  0  0  0
  195.3266  180.4444  152.1175 H   0  0  0  0  0  0  0  0  0  0  0  0
  195.6672  182.9881  152.0164 H   0  0  0  0  0  0  0  0  0  0  0  0
  196.4008  184.8452  150.5309 H   0  0  0  0  0  0  0  0  0  0  0  0
  198.0027  184.4054  148.6833 H   0  0  0  0  0  0  0  0  0  0  0  0
  198.8642  182.1001  148.3073 H   0  0  0  0  0  0  0  0  0  0  0  0
  198.1178  180.2365  149.7639 H   0  0  0  0  0  0  0  0  0  0  0  0
  195.4921  181.5185  156.5465 H   0  0  0  0  0  0  0  0  0  0  0  0
  195.3755  182.8361  158.6397 H   0  0  0  0  0  0  0  0  0  0  0  0
  197.4521  183.8131  159.6204 H   0  0  0  0  0  0  0  0  0  0  0  0
  199.6394  183.4653  158.4819 H   0  0  0  0  0  0  0  0  0  0  0  0
  199.7538  182.1600  156.3805 H   0  0  0  0  0  0  0  0  0  0  0  0
  204.3733  173.7470  153.7051 H   0  0  0  0  0  0  0  0  0  0  0  0
  203.7206  172.9734  155.1177 H   0  0  0  0  0  0  0  0  0  0  0  0
  200.6415  173.4478  153.8304 H   0  0  0  0  0  0  0  0  0  0  0  0
  201.1951  172.1141  154.8708 H   0  0  0  0  0  0  0  0  0  0  0  0
  200.6434  171.8111  153.2151 H   0  0  0  0  0  0  0  0  0  0  0  0
  202.2247  173.9583  151.7390 H   0  0  0  0  0  0  0  0  0  0  0  0
  202.0805  172.2499  151.3411 H   0  0  0  0  0  0  0  0  0  0  0  0
  203.6734  172.9632  151.5669 H   0  0  0  0  0  0  0  0  0  0  0  0
  202.9496  171.6817  153.4755 H   0  0  0  0  0  0  0  0  0  0  0  0
  1  2  1  0
  1  5  1  0
  2  3  2  0
  2 27  1  0
  3  4  1  0
  3 32  1  0
  4  5  2  0
  4 33  1  0
  5  6  1  0
  6  7  1  0
  6 34  1  1
  6 35  1  0
  7  8  1  0
  7 31  1  0
  8  9  1  0
  8 36  1  1
  8 37  1  0
  9 10  1  0
  9 13  2  0
 10 11  2  0
 10 21  1  0
 11 12  1  0
 12 13  1  0
 12 14  1  0
 13 38  1  0
 14 15  1  0
 14 39  1  6
 14 40  1  0
 15 16  2  0
 15 20  1  0
 16 17  1  0
 16 41  1  0
 17 18  2  0
 17 42  1  0
 18 19  1  0
 18 43  1  0
 19 20  2  0
 19 44  1  0
 20 45  1  0
 21 22  2  0
 21 26  1  0
 22 23  1  0
 22 46  1  0
 23 24  2  0
 23 47  1  0
 24 25  1  0
 24 48  1  0
 25 26  2  0
 25 49  1  0
 26 50  1  0
 27 28  1  0
 27 51  1  6
 27 52  1  0
 28 29  1  0
 28 30  1  0
 28 59  1  6
 29 53  1  1
 29 54  1  0
 29 55  1  0
 30 56  1  1
 30 57  1  0
 30 58  1  0
M  CHG  1  28   1
M  END
>  <s_epik_cmdline>  (1301) 
J2VwaWtfcHl0aG9uJywgJy1waCcsICc3LjAwMDAwMCcsICctcGh0JywgJzIuMDAwMDAwJywgJy1tcycsICcxNicsICctdG4nLCAnOCcsICctbWEnLCAnMjAwJywgJy1pbWFlJywgJzxpbmZpbGUubWFlPicsICctb21hZScsICc8b3V0ZmlsZS5tYWU+Jw==

>  <s_epik_input>  (1301) 
W0NIM11OKFtDSDNdKVtDSDJdYzFzYyhbY0hdW2NIXTEpW0NIMl1bTkhdW0NIMl1jMmMoLWMzW2NIXVtjSF1bY0hdW2NIXVtjSF0zKW5uKFtjSF0yKVtDSDJdYzRbY0hdW2NIXVtjSF1bY0hdW2NIXTQ=

>  <s_i_glide_gridfile>  (1301) 
ATP-Grid

>  <s_lp_Force_Field>  (1301) 
OPLS_2005

>  <s_lp_Variant>  (1301) 
m_270004bbb____13774140____7548060-3

>  <s_lp_label>  (1301) 
1089_sdstereoexpander_1_neutralizer_1_epik_3_stereoizer_1

>  <s_m_source_file>  (1301) 
ATP-VSW-LIGPREP-001-in.maegz

>  <s_sd_BIOSOLVEIT.INFINISEE\_QUERY\_NAME>  (1301) 
Ref-Lig

>  <s_sd_BIOSOLVEIT.INFINISEE\_QUERY\_SMILES>  (1301) 
S(c1nc2c(cc1C[NH2+]Cc3ccc(cc3)C[NH+](C)C)cccc2)Cc4ccccc4

>  <s_sd_BIOSOLVEIT.INFINISEE\_REACTION\_NAME>  (1301) 
m_270004bbb

>  <s_sd_BIOSOLVEIT.INFINISEE\_REAGENT1\_SMILES>  (1301) 
[R1*]NCC=1SC(=CC1)CN(C)C

>  <s_sd_BIOSOLVEIT.INFINISEE\_REAGENT2\_SMILES>  (1301) 
[R1*]CC=1C(=NN(C1)Cc2ccccc2)c3ccccc3

>  <s_sd_BIOSOLVEIT.INFINISEE\_SPACE>  (1301) 
REALSpace_44bn_2023-08

>  <s_vsw_compound_code>  (1301) 
34817

>  <s_vsw_variant>  (1301) 
34817-3

>  <r_epik_Charging_Adjusted_Penalty>  (1301) 
2.0585256498987401

>  <r_epik_Ionization_Penalty>  (1301) 
1.8300000000000001

>  <r_epik_Ionization_Penalty_Charging>  (1301) 
0.0877

>  <r_epik_Ionization_Penalty_Neutral>  (1301) 
1.7423

>  <r_epik_State_Penalty>  (1301) 
1.9708000000000001

>  <r_i_docking_score>  (1301) 
-2.9616582746339501

>  <r_i_glide_ecoul>  (1301) 
-10.735281944274901

>  <r_i_glide_eff_state_penalty>  (1301) 
1.9708000000000001

>  <r_i_glide_einternal>  (1301) 
3.7846941947936998

>  <r_i_glide_emodel>  (1301) 
-61.768552929098497

>  <r_i_glide_energy>  (1301) 
-45.831534385681202

>  <r_i_glide_erotb>  (1301) 
0.90681574455482195

>  <r_i_glide_esite>  (1301) 
-0.10000000000000001

>  <r_i_glide_evdw>  (1301) 
-35.0962524414062

>  <r_i_glide_gscore>  (1301) 
-4.9324582746339498

>  <r_i_glide_hbond>  (1301) 
-0.35999999999999999

>  <r_i_glide_ligand_efficiency>  (1301) 
-0.098721942487798503

>  <r_i_glide_ligand_efficiency_ln>  (1301) 
-0.67292102984834901

>  <r_i_glide_ligand_efficiency_sa>  (1301) 
-0.30675202840122001

>  <r_i_glide_lipo>  (1301) 
-1.16765143915043

>  <r_i_glide_metal>  (1301) 
-0

>  <r_i_glide_rewards>  (1301) 
-0.84651766632679804

>  <r_lp_Energy>  (1301) 
16.208411999999999

>  <r_qp_ACxDN^.5/SA>  (1301) 
0.0071723999999999998

>  <r_qp_CIQPlogS>  (1301) 
-4.9119999999999999

>  <r_qp_EA(eV)>  (1301) 
0.25700000000000001

>  <r_qp_FISA>  (1301) 
29.658999999999999

>  <r_qp_FOSA>  (1301) 
248.74799999999999

>  <r_qp_IP(eV)>  (1301) 
8.6489999999999991

>  <r_qp_Jm>  (1301) 
0.014236998999502599

>  <r_qp_PISA>  (1301) 
401.65300000000002

>  <r_qp_PSA>  (1301) 
33.069000000000003

>  <r_qp_PercentHumanOralAbsorption>  (1301) 
100

>  <r_qp_QPPCaco>  (1301) 
322.43400000000003

>  <r_qp_QPPMDCK>  (1301) 
220.92500000000001

>  <r_qp_QPlogBB>  (1301) 
0.63900000000000001

>  <r_qp_QPlogHERG>  (1301) 
-7.5209999999999999

>  <r_qp_QPlogKhsa>  (1301) 
0.92100000000000004

>  <r_qp_QPlogKp>  (1301) 
-4.008

>  <r_qp_QPlogPC16>  (1301) 
13.907

>  <r_qp_QPlogPo/w>  (1301) 
4.8159999999999998

>  <r_qp_QPlogPoct>  (1301) 
19.231999999999999

>  <r_qp_QPlogPw>  (1301) 
8.9610000000000003

>  <r_qp_QPlogS>  (1301) 
-3.4580000000000002

>  <r_qp_QPpolrz>  (1301) 
45.674999999999997

>  <r_qp_SASA>  (1301) 
697.12

>  <r_qp_SAamideO>  (1301) 
0

>  <r_qp_SAfluorine>  (1301) 
0

>  <r_qp_WPSA>  (1301) 
17.059999999999999

>  <r_qp_accptHB>  (1301) 
5

>  <r_qp_dip^2/V>  (1301) 
0.0058542000000000004

>  <r_qp_dipole>  (1301) 
2.7879999999999998

>  <r_qp_donorHB>  (1301) 
1

>  <r_qp_glob>  (1301) 
0.83797809999999995

>  <r_qp_mol_MW>  (1301) 
416.58300000000003

>  <r_qp_volume>  (1301) 
1327.588

>  <r_sd_BIOSOLVEIT.INFINISEE\_FTREES\_SIMILARITY>  (1301) 
0.91400000000000003

>  <r_sd_BIOSOLVEIT.LOGP>  (1301) 
2.5680000000000001

>  <r_sd_BIOSOLVEIT.MOLECULAR\_WEIGHT>  (1301) 
418.60500000000002

>  <r_sd_BIOSOLVEIT.TPSA>  (1301) 
38.869999999999997

>  <i_epik_Tot_Q>  (1301) 
1

>  <i_epik_Tot_abs_Q>  (1301) 
1

>  <i_f3d_flags>  (1301) 
0

>  <i_i_glide_confnum>  (1301) 
1

>  <i_i_glide_lignum>  (1301) 
252

>  <i_i_glide_posenum>  (1301) 
1

>  <i_i_glide_rotatable_bonds>  (1301) 
9

>  <i_lp_mmshare_version>  (1301) 
65135

>  <i_m_ct_format>  (1301) 
2

>  <i_m_source_file_index>  (1301) 
1089

>  <i_qp_#NandO>  (1301) 
4

>  <i_qp_#acid>  (1301) 
0

>  <i_qp_#amide>  (1301) 
0

>  <i_qp_#amidine>  (1301) 
0

>  <i_qp_#amine>  (1301) 
2

>  <i_qp_#in34>  (1301) 
0

>  <i_qp_#in56>  (1301) 
22

>  <i_qp_#metab>  (1301) 
7

>  <i_qp_#nonHatm>  (1301) 
30

>  <i_qp_#noncon>  (1301) 
0

>  <i_qp_#ringatoms>  (1301) 
22

>  <i_qp_#rotor>  (1301) 
8

>  <i_qp_#rtvFG>  (1301) 
0

>  <i_qp_#stars>  (1301) 
0

>  <i_qp_CNS>  (1301) 
2

>  <i_qp_HumanOralAbsorption>  (1301) 
3

>  <i_qp_RuleOfFive>  (1301) 
0

>  <i_qp_RuleOfThree>  (1301) 
1

>  <i_sd_BIOSOLVEIT.INFINISEE\_REAGENT1\_NAME>  (1301) 
13774140

>  <i_sd_BIOSOLVEIT.INFINISEE\_REAGENT2\_NAME>  (1301) 
7548060

>  <i_sd_BIOSOLVEIT.INFINISEE\_RESULT\_RANK>  (1301) 
32475

>  <i_sd_version>  (1301) 
0

>  <b_lp_Chiralities_Consistent>  (1301) 
1

>  <b_sd_chiral_flag>  (1301) 
0

>  <canonical_id>  (1301) 
ATP-HTVS-CD664E950D6F

>  <compound_code>  (1301) 
34817

>  <title>  (1301) 
m_270004bbb____13774140____7548060

>  <variant>  (1301) 
34817-3

>  <source_file>  (1301) 
运行/运行/ATP-VSW/ATP-VSW-DOCK_HTVS_1-001_lib/ATP-VSW-DOCK_HTVS_1-001_lib

>  <canonical_smiles>  (1301) 
C[NH+](C)Cc1ccc(CNCc2cn(Cc3ccccc3)nc2-c2ccccc2)s1

>  <scaffold>  (1301) 
c1ccc(Cn2cc(CNCc3cccs3)c(-c3ccccc3)n2)cc1

>  <molecular_formula>  (1301) 
C25H29N4S+

$$$$
ATP-HTVS-CD6AA4CFEADB
     RDKit          3D

 62 65  0  0  0  0  0  0  0  0999 V2000
  206.4921  181.7866  159.0309 Cl  0  0  0  0  0  0  0  0  0  0  0  0
  204.7729  181.8591  158.8912 C   0  0  0  0  0  0  0  0  0  0  0  0
  204.0649  180.7549  158.3764 C   0  0  0  0  0  0  0  0  0  0  0  0
  202.6607  180.8096  158.2632 C   0  0  0  0  0  0  0  0  0  0  0  0
  201.9753  181.9574  158.7148 C   0  0  0  0  0  0  0  0  0  0  0  0
  202.6827  183.0717  159.1984 C   0  0  0  0  0  0  0  0  0  0  0  0
  204.0853  183.0237  159.2903 C   0  0  0  0  0  0  0  0  0  0  0  0
  201.8955  179.6173  157.7044 C   0  0  1  0  0  0  0  0  0  0  0  0
  200.6118  179.9294  157.0846 N   0  0  0  0  0  0  0  0  0  0  0  0
  200.6056  180.6212  155.8577 C   0  0  0  0  0  0  0  0  0  0  0  0
  199.8859  181.8348  155.6972 C   0  0  0  0  0  0  0  0  0  0  0  0
  199.2559  182.4346  156.8156 N   0  0  0  0  0  0  0  0  0  0  0  0
  197.9464  182.7003  156.9308 C   0  0  0  0  0  0  0  0  0  0  0  0
  197.0771  182.2436  156.1865 O   0  0  0  0  0  0  0  0  0  0  0  0
  197.5928  183.6293  158.0571 C   0  0  0  0  0  0  0  0  0  0  0  0
  196.4766  183.3960  158.9143 C   0  0  0  0  0  0  0  0  0  0  0  0
  196.1862  184.3359  159.9266 C   0  0  0  0  0  0  0  0  0  0  0  0
  196.9185  185.5294  160.0553 C   0  0  0  0  0  0  0  0  0  0  0  0
  198.0041  185.7705  159.2005 C   0  0  0  0  0  0  0  0  0  0  0  0
  198.3402  184.8246  158.2156 C   0  0  0  0  0  0  0  0  0  0  0  0
  195.5752  182.1577  158.7943 C   0  0  1  0  0  0  0  0  0  0  0  0
  194.2608  182.4159  158.1380 N   0  0  1  0  0  0  0  0  0  0  0  0
  193.4156  181.2059  158.1197 C   0  0  2  0  0  0  0  0  0  0  0  0
  193.5074  183.5901  158.6362 C   0  0  2  0  0  0  0  0  0  0  0  0
  199.8763  182.4722  154.4186 C   0  0  0  0  0  0  0  0  0  0  0  0
  200.5573  181.8318  153.3443 C   0  0  0  0  0  0  0  0  0  0  0  0
  201.2303  180.6719  153.5117 N   0  0  0  0  0  0  0  0  0  0  0  0
  201.2513  180.0892  154.7267 C   0  0  0  0  0  0  0  0  0  0  0  0
  200.5335  182.4326  152.0674 C   0  0  0  0  0  0  0  0  0  0  0  0
  199.8587  183.6458  151.8370 C   0  0  0  0  0  0  0  0  0  0  0  0
  199.2039  184.2847  152.9024 C   0  0  0  0  0  0  0  0  0  0  0  0
  199.2269  183.7112  154.1868 C   0  0  0  0  0  0  0  0  0  0  0  0
  199.5474  178.9470  157.1922 C   0  0  1  0  0  0  0  0  0  0  0  0
  199.7046  177.8331  156.2447 C   0  0  0  0  0  0  0  0  0  0  0  0
  199.8435  176.9604  155.4965 N   0  0  0  0  0  0  0  0  0  0  0  0
  204.5989  179.8613  158.0809 H   0  0  0  0  0  0  0  0  0  0  0  0
  200.8966  181.9900  158.7090 H   0  0  0  0  0  0  0  0  0  0  0  0
  202.1426  183.9538  159.5101 H   0  0  0  0  0  0  0  0  0  0  0  0
  204.6279  183.8723  159.6779 H   0  0  0  0  0  0  0  0  0  0  0  0
  202.5069  179.0709  156.9834 H   0  0  0  0  0  0  0  0  0  0  0  0
  201.7233  178.9308  158.5340 H   0  0  0  0  0  0  0  0  0  0  0  0
  199.8677  182.7382  157.5571 H   0  0  0  0  0  0  0  0  0  0  0  0
  195.3660  184.1741  160.6129 H   0  0  0  0  0  0  0  0  0  0  0  0
  196.6453  186.2631  160.8054 H   0  0  0  0  0  0  0  0  0  0  0  0
  198.5694  186.6909  159.2933 H   0  0  0  0  0  0  0  0  0  0  0  0
  199.1620  185.0482  157.5494 H   0  0  0  0  0  0  0  0  0  0  0  0
  196.0801  181.3368  158.2705 H   0  0  0  0  0  0  0  0  0  0  0  0
  195.4226  181.7737  159.7948 H   0  0  0  0  0  0  0  0  0  0  0  0
  193.1426  180.8916  159.1279 H   0  0  0  0  0  0  0  0  0  0  0  0
  193.9410  180.3857  157.6312 H   0  0  0  0  0  0  0  0  0  0  0  0
  192.5054  181.3870  157.5489 H   0  0  0  0  0  0  0  0  0  0  0  0
  193.3345  183.5210  159.7115 H   0  0  0  0  0  0  0  0  0  0  0  0
  192.5351  183.6389  158.1454 H   0  0  0  0  0  0  0  0  0  0  0  0
  194.0207  184.5327  158.4286 H   0  0  0  0  0  0  0  0  0  0  0  0
  201.7737  179.1486  154.7904 H   0  0  0  0  0  0  0  0  0  0  0  0
  201.0415  181.9458  151.2483 H   0  0  0  0  0  0  0  0  0  0  0  0
  199.8363  184.0855  150.8473 H   0  0  0  0  0  0  0  0  0  0  0  0
  198.6694  185.2103  152.7389 H   0  0  0  0  0  0  0  0  0  0  0  0
  198.7202  184.2596  154.9657 H   0  0  0  0  0  0  0  0  0  0  0  0
  199.5522  178.5016  158.1816 H   0  0  0  0  0  0  0  0  0  0  0  0
  198.5845  179.4410  157.0385 H   0  0  0  0  0  0  0  0  0  0  0  0
  194.4081  182.6178  157.1451 H   0  0  0  0  0  0  0  0  0  0  0  0
  1  2  1  0
  2  3  2  0
  2  7  1  0
  3  4  1  0
  3 36  1  0
  4  5  2  0
  4  8  1  0
  5  6  1  0
  5 37  1  0
  6  7  2  0
  6 38  1  0
  7 39  1  0
  8  9  1  0
  8 40  1  6
  8 41  1  0
  9 10  1  0
  9 33  1  0
 10 11  2  0
 10 28  1  0
 11 12  1  0
 11 25  1  0
 12 13  1  0
 12 42  1  0
 13 14  2  0
 13 15  1  0
 15 16  1  0
 15 20  2  0
 16 17  2  0
 16 21  1  0
 17 18  1  0
 17 43  1  0
 18 19  2  0
 18 44  1  0
 19 20  1  0
 19 45  1  0
 20 46  1  0
 21 22  1  0
 21 47  1  6
 21 48  1  0
 22 23  1  0
 22 24  1  0
 22 62  1  6
 23 49  1  1
 23 50  1  0
 23 51  1  0
 24 52  1  1
 24 53  1  0
 24 54  1  0
 25 26  1  0
 25 32  2  0
 26 27  1  0
 26 29  2  0
 27 28  2  0
 28 55  1  0
 29 30  1  0
 29 56  1  0
 30 31  2  0
 30 57  1  0
 31 32  1  0
 31 58  1  0
 32 59  1  0
 33 34  1  0
 33 60  1  1
 33 61  1  0
 34 35  3  0
M  CHG  1  22   1
M  END
>  <s_epik_cmdline>  (1302) 
J2VwaWtfcHl0aG9uJywgJy1waCcsICc3LjAwMDAwMCcsICctcGh0JywgJzIuMDAwMDAwJywgJy1tcycsICcxNicsICctdG4nLCAnOCcsICctbWEnLCAnMjAwJywgJy1pbWFlJywgJzxpbmZpbGUubWFlPicsICctb21hZScsICc8b3V0ZmlsZS5tYWU+Jw==

>  <s_epik_input>  (1302) 
W2NIXTFbY0hdW2NIXVtjSF1jKGMxMiluW2NIXWMoTihbQ0gyXUMjTilbQ0gyXWMoW2NIXWMzQ2wpW2NIXVtjSF1bY0hdMyljMltOSF1DKD1PKWM0YyhbQ0gyXU4oW0NIM10pW0NIM10pW2NIXVtjSF1bY0hdW2NIXTQ=

>  <s_i_glide_gridfile>  (1302) 
ATP-Grid

>  <s_lp_Force_Field>  (1302) 
OPLS_2005

>  <s_lp_Variant>  (1302) 
rxn502b____EMOL5415347____EMOL13728749____EMOL37358567-1

>  <s_lp_label>  (1302) 
2440_sdstereoexpander_1_neutralizer_1_epik_1_stereoizer_1

>  <s_m_source_file>  (1302) 
ATP-VSW-LIGPREP-002-in.maegz

>  <s_sd_BIOSOLVEIT.INFINISEE\_QUERY\_NAME>  (1302) 
Ref-Lig

>  <s_sd_BIOSOLVEIT.INFINISEE\_QUERY\_SMILES>  (1302) 
S(c1nc2c(cc1C[NH2+]Cc3ccc(cc3)C[NH+](C)C)cccc2)Cc4ccccc4

>  <s_sd_BIOSOLVEIT.INFINISEE\_REACTION\_NAME>  (1302) 
rxn502b

>  <s_sd_BIOSOLVEIT.INFINISEE\_REAGENT1\_NAME>  (1302) 
EMOL5415347

>  <s_sd_BIOSOLVEIT.INFINISEE\_REAGENT1\_SMILES>  (1302) 
O=C(O)c1c(cccc1)CN(C)C

>  <s_sd_BIOSOLVEIT.INFINISEE\_REAGENT2\_NAME>  (1302) 
EMOL13728749

>  <s_sd_BIOSOLVEIT.INFINISEE\_REAGENT2\_SMILES>  (1302) 
Brc1c(N)c2c(nc1)cccc2

>  <s_sd_BIOSOLVEIT.INFINISEE\_REAGENT3\_NAME>  (1302) 
EMOL37358567

>  <s_sd_BIOSOLVEIT.INFINISEE\_REAGENT3\_SMILES>  (1302) 
Clc1cc(ccc1)CNCC#N

>  <s_sd_BIOSOLVEIT.INFINISEE\_SPACE>  (1302) 
eXplore_7tr_2022-12

>  <s_vsw_compound_code>  (1302) 
78050

>  <s_vsw_variant>  (1302) 
78050-1

>  <r_epik_Charging_Adjusted_Penalty>  (1302) 
0.14093146563278799

>  <r_epik_Ionization_Penalty>  (1302) 
0.082699999999999996

>  <r_epik_Ionization_Penalty_Charging>  (1302) 
0.060600000000000001

>  <r_epik_Ionization_Penalty_Neutral>  (1302) 
0.022100000000000002

>  <r_epik_State_Penalty>  (1302) 
0.080299999999999996

>  <r_i_docking_score>  (1302) 
-3.6662971730648

>  <r_i_glide_ecoul>  (1302) 
-10.342003822326699

>  <r_i_glide_eff_state_penalty>  (1302) 
0.080299999999999996

>  <r_i_glide_einternal>  (1302) 
7.4704899787902797

>  <r_i_glide_emodel>  (1302) 
-50.1337250869312

>  <r_i_glide_energy>  (1302) 
-40.310982704162598

>  <r_i_glide_erotb>  (1302) 
0.60445950002288296

>  <r_i_glide_esite>  (1302) 
-0.21823690827085901

>  <r_i_glide_evdw>  (1302) 
-29.968978881835898

>  <r_i_glide_gscore>  (1302) 
-3.7465971730647998

>  <r_i_glide_hbond>  (1302) 
-0.178935547967977

>  <r_i_glide_ligand_efficiency>  (1302) 
-0.104751347801852

>  <r_i_glide_ligand_efficiency_ln>  (1302) 
-0.80483359856943004

>  <r_i_glide_ligand_efficiency_sa>  (1302) 
-0.342648604335406

>  <r_i_glide_lipo>  (1302) 
-0.80185910849896402

>  <r_i_glide_metal>  (1302) 
-0

>  <r_i_glide_rewards>  (1302) 
-0.10227559090909

>  <r_lp_Energy>  (1302) 
40.329172999999997

>  <r_qp_ACxDN^.5/SA>  (1302) 
0.0104498

>  <r_qp_CIQPlogS>  (1302) 
-7.1109999999999998

>  <r_qp_EA(eV)>  (1302) 
1.238

>  <r_qp_FISA>  (1302) 
87.409000000000006

>  <r_qp_FOSA>  (1302) 
183.126

>  <r_qp_IP(eV)>  (1302) 
8.8650000000000002

>  <r_qp_Jm>  (1302) 
0.0011224359878730401

>  <r_qp_PISA>  (1302) 
424.56599999999997

>  <r_qp_PSA>  (1302) 
69.126000000000005

>  <r_qp_PercentHumanOralAbsorption>  (1302) 
100

>  <r_qp_QPPCaco>  (1302) 
366.35700000000003

>  <r_qp_QPPMDCK>  (1302) 
449.66300000000001

>  <r_qp_QPlogBB>  (1302) 
-0.28999999999999998

>  <r_qp_QPlogHERG>  (1302) 
-7.3170000000000002

>  <r_qp_QPlogKhsa>  (1302) 
0.59899999999999998

>  <r_qp_QPlogKp>  (1302) 
-2.8330000000000002

>  <r_qp_QPlogPC16>  (1302) 
16.079000000000001

>  <r_qp_QPlogPo/w>  (1302) 
4.7130000000000001

>  <r_qp_QPlogPoct>  (1302) 
23.667999999999999

>  <r_qp_QPlogPw>  (1302) 
12.428000000000001

>  <r_qp_QPlogS>  (1302) 
-5.8010000000000002

>  <r_qp_QPpolrz>  (1302) 
50.494999999999997

>  <r_qp_SASA>  (1302) 
765.56899999999996

>  <r_qp_SAamideO>  (1302) 
0

>  <r_qp_SAfluorine>  (1302) 
0

>  <r_qp_WPSA>  (1302) 
70.468000000000004

>  <r_qp_accptHB>  (1302) 
8

>  <r_qp_dip^2/V>  (1302) 
0.051846900000000001

>  <r_qp_dipole>  (1302) 
8.6959999999999997

>  <r_qp_donorHB>  (1302) 
1

>  <r_qp_glob>  (1302) 
0.81246390000000002

>  <r_qp_mol_MW>  (1302) 
483.99900000000002

>  <r_qp_volume>  (1302) 
1458.595

>  <r_sd_BIOSOLVEIT.INFINISEE\_FTREES\_SIMILARITY>  (1302) 
0.91700000000000004

>  <r_sd_BIOSOLVEIT.LOGP>  (1302) 
4.3151799999999998

>  <r_sd_BIOSOLVEIT.MOLECULAR\_WEIGHT>  (1302) 
485.00799999999998

>  <r_sd_BIOSOLVEIT.TPSA>  (1302) 
73.459999999999994

>  <i_epik_Tot_Q>  (1302) 
1

>  <i_epik_Tot_abs_Q>  (1302) 
1

>  <i_f3d_flags>  (1302) 
0

>  <i_i_glide_confnum>  (1302) 
10

>  <i_i_glide_lignum>  (1302) 
1050

>  <i_i_glide_posenum>  (1302) 
3

>  <i_i_glide_rotatable_bonds>  (1302) 
9

>  <i_lp_mmshare_version>  (1302) 
65135

>  <i_m_ct_format>  (1302) 
2

>  <i_m_source_file_index>  (1302) 
2440

>  <i_qp_#NandO>  (1302) 
6

>  <i_qp_#acid>  (1302) 
0

>  <i_qp_#amide>  (1302) 
0

>  <i_qp_#amidine>  (1302) 
0

>  <i_qp_#amine>  (1302) 
1

>  <i_qp_#in34>  (1302) 
0

>  <i_qp_#in56>  (1302) 
22

>  <i_qp_#metab>  (1302) 
6

>  <i_qp_#nonHatm>  (1302) 
35

>  <i_qp_#noncon>  (1302) 
0

>  <i_qp_#ringatoms>  (1302) 
22

>  <i_qp_#rotor>  (1302) 
9

>  <i_qp_#rtvFG>  (1302) 
0

>  <i_qp_#stars>  (1302) 
0

>  <i_qp_CNS>  (1302) 
1

>  <i_qp_HumanOralAbsorption>  (1302) 
3

>  <i_qp_RuleOfFive>  (1302) 
0

>  <i_qp_RuleOfThree>  (1302) 
1

>  <i_sd_BIOSOLVEIT.INFINISEE\_RESULT\_RANK>  (1302) 
24318

>  <i_sd_version>  (1302) 
0

>  <b_lp_Chiralities_Consistent>  (1302) 
1

>  <b_sd_chiral_flag>  (1302) 
0

>  <canonical_id>  (1302) 
ATP-HTVS-CD6AA4CFEADB

>  <compound_code>  (1302) 
78050

>  <title>  (1302) 
rxn502b____EMOL5415347____EMOL13728749____EMOL37358567

>  <variant>  (1302) 
78050-1

>  <source_file>  (1302) 
运行/运行/ATP-VSW/ATP-VSW-DOCK_HTVS_1-002_lib.maegz

>  <canonical_smiles>  (1302) 
C[NH+](C)Cc1ccccc1C(=O)Nc1c(N(CC#N)Cc2cccc(Cl)c2)cnc2ccccc12

>  <scaffold>  (1302) 
O=C(Nc1c(NCc2ccccc2)cnc2ccccc12)c1ccccc1

>  <molecular_formula>  (1302) 
C28H27ClN5O+

$$$$
ATP-HTVS-CD84540442E8
     RDKit          3D

 63 66  0  0  0  0  0  0  0  0999 V2000
  202.9867  179.3104  154.4467 Cl  0  0  0  0  0  0  0  0  0  0  0  0
  202.2585  177.8026  154.8666 C   0  0  0  0  0  0  0  0  0  0  0  0
  201.0577  177.6949  155.6263 C   0  0  0  0  0  0  0  0  0  0  0  0
  200.5197  176.4059  155.8504 C   0  0  0  0  0  0  0  0  0  0  0  0
  201.1587  175.2526  155.3564 C   0  0  0  0  0  0  0  0  0  0  0  0
  202.3573  175.3705  154.6332 C   0  0  0  0  0  0  0  0  0  0  0  0
  202.9025  176.6432  154.3975 C   0  0  0  0  0  0  0  0  0  0  0  0
  200.2917  178.9003  156.1944 C   0  0  2  0  0  0  0  0  0  0  0  0
  199.6375  179.6961  155.0531 C   0  0  0  0  0  0  0  0  0  0  0  0
  200.0506  180.8275  154.7805 O   0  0  0  0  0  0  0  0  0  0  0  0
  198.6239  179.1098  154.3834 N   0  0  0  0  0  0  0  0  0  0  0  0
  197.9108  179.7005  153.2968 C   0  0  0  0  0  0  0  0  0  0  0  0
  197.1362  180.8690  153.4933 C   0  0  0  0  0  0  0  0  0  0  0  0
  197.0446  181.5016  154.7390 N   0  0  0  0  0  0  0  0  0  0  0  0
  197.2619  182.9391  154.7760 C   0  0  1  0  0  0  0  0  0  0  0  0
  197.5677  183.4903  156.1577 C   0  0  0  0  0  0  0  0  0  0  0  0
  196.8117  183.0418  157.2618 C   0  0  0  0  0  0  0  0  0  0  0  0
  197.0085  183.5987  158.5422 C   0  0  0  0  0  0  0  0  0  0  0  0
  198.0080  184.5804  158.7209 C   0  0  0  0  0  0  0  0  0  0  0  0
  198.7807  185.0143  157.6255 C   0  0  0  0  0  0  0  0  0  0  0  0
  198.5530  184.4804  156.3432 C   0  0  0  0  0  0  0  0  0  0  0  0
  196.1030  183.1856  159.6957 C   0  0  1  0  0  0  0  0  0  0  0  0
  194.7918  183.8460  159.7179 N   0  0  0  0  0  0  0  0  0  0  0  0
  194.9184  185.2928  159.8288 C   0  0  2  0  0  0  0  0  0  0  0  0
  193.9604  183.4860  158.5734 C   0  0  2  0  0  0  0  0  0  0  0  0
  196.4409  181.3961  152.3791 C   0  0  0  0  0  0  0  0  0  0  0  0
  196.4616  180.8300  151.1593 N   0  0  0  0  0  0  0  0  0  0  0  0
  197.2058  179.7313  150.9580 C   0  0  0  0  0  0  0  0  0  0  0  0
  197.9578  179.1157  152.0023 C   0  0  0  0  0  0  0  0  0  0  0  0
  198.7452  177.9735  151.7104 C   0  0  0  0  0  0  0  0  0  0  0  0
  198.7809  177.4341  150.4075 C   0  0  0  0  0  0  0  0  0  0  0  0
  198.0283  178.0346  149.3808 C   0  0  0  0  0  0  0  0  0  0  0  0
  197.2523  179.1720  149.6646 C   0  0  0  0  0  0  0  0  0  0  0  0
  201.1247  179.7876  157.1535 C   0  0  2  0  0  0  0  0  0  0  0  0
  199.5985  176.2955  156.4052 H   0  0  0  0  0  0  0  0  0  0  0  0
  200.7341  174.2760  155.5278 H   0  0  0  0  0  0  0  0  0  0  0  0
  202.8538  174.4904  154.2468 H   0  0  0  0  0  0  0  0  0  0  0  0
  203.8167  176.7415  153.8362 H   0  0  0  0  0  0  0  0  0  0  0  0
  199.4697  178.5051  156.7927 H   0  0  0  0  0  0  0  0  0  0  0  0
  198.4026  178.1490  154.6081 H   0  0  0  0  0  0  0  0  0  0  0  0
  197.4053  180.9950  155.5407 H   0  0  0  0  0  0  0  0  0  0  0  0
  198.0729  183.1970  154.0957 H   0  0  0  0  0  0  0  0  0  0  0  0
  196.3650  183.4339  154.3985 H   0  0  0  0  0  0  0  0  0  0  0  0
  196.0413  182.3016  157.1079 H   0  0  0  0  0  0  0  0  0  0  0  0
  198.1588  185.0317  159.6914 H   0  0  0  0  0  0  0  0  0  0  0  0
  199.5234  185.7929  157.7664 H   0  0  0  0  0  0  0  0  0  0  0  0
  199.1253  184.8455  155.4970 H   0  0  0  0  0  0  0  0  0  0  0  0
  195.9679  182.1028  159.6587 H   0  0  0  0  0  0  0  0  0  0  0  0
  196.6234  183.3960  160.6300 H   0  0  0  0  0  0  0  0  0  0  0  0
  193.9399  185.7584  159.8950 H   0  0  0  0  0  0  0  0  0  0  0  0
  195.4246  185.7278  158.9686 H   0  0  0  0  0  0  0  0  0  0  0  0
  195.4675  185.5710  160.7290 H   0  0  0  0  0  0  0  0  0  0  0  0
  192.9639  183.9260  158.6408 H   0  0  0  0  0  0  0  0  0  0  0  0
  193.8513  182.4075  158.4899 H   0  0  0  0  0  0  0  0  0  0  0  0
  194.4019  183.8266  157.6445 H   0  0  0  0  0  0  0  0  0  0  0  0
  195.8268  182.2756  152.4614 H   0  0  0  0  0  0  0  0  0  0  0  0
  199.3353  177.4963  152.4825 H   0  0  0  0  0  0  0  0  0  0  0  0
  199.3911  176.5675  150.1880 H   0  0  0  0  0  0  0  0  0  0  0  0
  198.0690  177.6338  148.3797 H   0  0  0  0  0  0  0  0  0  0  0  0
  196.6955  179.6373  148.8613 H   0  0  0  0  0  0  0  0  0  0  0  0
  201.9374  180.3074  156.6421 H   0  0  0  0  0  0  0  0  0  0  0  0
  201.5670  179.1893  157.9511 H   0  0  0  0  0  0  0  0  0  0  0  0
  200.4981  180.5502  157.6245 H   0  0  0  0  0  0  0  0  0  0  0  0
  1  2  1  0
  2  3  1  0
  2  7  2  0
  3  4  2  0
  3  8  1  0
  4  5  1  0
  4 35  1  0
  5  6  2  0
  5 36  1  0
  6  7  1  0
  6 37  1  0
  7 38  1  0
  8  9  1  0
  8 34  1  0
  8 39  1  1
  9 10  2  0
  9 11  1  0
 11 12  1  0
 11 40  1  0
 12 13  2  0
 12 29  1  0
 13 14  1  0
 13 26  1  0
 14 15  1  0
 14 41  1  0
 15 16  1  0
 15 42  1  6
 15 43  1  0
 16 17  2  0
 16 21  1  0
 17 18  1  0
 17 44  1  0
 18 19  2  0
 18 22  1  0
 19 20  1  0
 19 45  1  0
 20 21  2  0
 20 46  1  0
 21 47  1  0
 22 23  1  0
 22 48  1  6
 22 49  1  0
 23 24  1  0
 23 25  1  0
 24 50  1  1
 24 51  1  0
 24 52  1  0
 25 53  1  1
 25 54  1  0
 25 55  1  0
 26 27  2  0
 26 56  1  0
 27 28  1  0
 28 29  1  0
 28 33  2  0
 29 30  2  0
 30 31  1  0
 30 57  1  0
 31 32  2  0
 31 58  1  0
 32 33  1  0
 32 59  1  0
 33 60  1  0
 34 61  1  6
 34 62  1  0
 34 63  1  0
M  END
>  <s_epik_cmdline>  (1303) 
J2VwaWtfcHl0aG9uJywgJy1waCcsICc3LjAwMDAwMCcsICctcGh0JywgJzIuMDAwMDAwJywgJy1tcycsICcxNicsICctdG4nLCAnOCcsICctbWEnLCAnMjAwJywgJy1pbWFlJywgJzxpbmZpbGUubWFlPicsICctb21hZScsICc8b3V0ZmlsZS5tYWU+Jw==

>  <s_epik_input>  (1303) 
W2NIXTFbY0hdW2NIXVtjSF1jKGMxQ2wpW0NAQEhdKFtDSDNdKUMoPU8pW05IXWMoYyhjMjMpW2NIXVtjSF1bY0hdW2NIXTMpYyhbY0hdbjIpW05IXVtDSDJdYzRbY0hdYyhbY0hdW2NIXVtjSF00KVtDSDJdTihbQ0gzXSlbQ0gzXQ==

>  <s_i_glide_gridfile>  (1303) 
ATP-Grid

>  <s_lp_Force_Field>  (1303) 
OPLS_2005

>  <s_lp_Variant>  (1303) 
rxn502b____EMOL1836734____EMOL13728749____EMOL2873214-3

>  <s_lp_label>  (1303) 
2191_sdstereoexpander_1_neutralizer_1_epik_2_stereoizer_1

>  <s_m_source_file>  (1303) 
ATP-VSW-LIGPREP-001-in.maegz

>  <s_sd_BIOSOLVEIT.INFINISEE\_QUERY\_NAME>  (1303) 
Ref-Lig

>  <s_sd_BIOSOLVEIT.INFINISEE\_QUERY\_SMILES>  (1303) 
S(c1nc2c(cc1C[NH2+]Cc3ccc(cc3)C[NH+](C)C)cccc2)Cc4ccccc4

>  <s_sd_BIOSOLVEIT.INFINISEE\_REACTION\_NAME>  (1303) 
rxn502b

>  <s_sd_BIOSOLVEIT.INFINISEE\_REAGENT1\_NAME>  (1303) 
EMOL1836734

>  <s_sd_BIOSOLVEIT.INFINISEE\_REAGENT1\_SMILES>  (1303) 
Clc1c(cccc1)C(C(=O)O)C

>  <s_sd_BIOSOLVEIT.INFINISEE\_REAGENT2\_NAME>  (1303) 
EMOL13728749

>  <s_sd_BIOSOLVEIT.INFINISEE\_REAGENT2\_SMILES>  (1303) 
Brc1c(N)c2c(nc1)cccc2

>  <s_sd_BIOSOLVEIT.INFINISEE\_REAGENT3\_NAME>  (1303) 
EMOL2873214

>  <s_sd_BIOSOLVEIT.INFINISEE\_REAGENT3\_SMILES>  (1303) 
N(Cc1cc(ccc1)CN)(C)C

>  <s_sd_BIOSOLVEIT.INFINISEE\_SPACE>  (1303) 
eXplore_7tr_2022-12

>  <s_vsw_compound_code>  (1303) 
70081

>  <s_vsw_variant>  (1303) 
70081-3

>  <r_epik_Charging_Adjusted_Penalty>  (1303) 
1.58313344028626

>  <r_epik_Ionization_Penalty>  (1303) 
1.5831

>  <r_epik_Ionization_Penalty_Charging>  (1303) 
0

>  <r_epik_Ionization_Penalty_Neutral>  (1303) 
1.5831

>  <r_epik_State_Penalty>  (1303) 
1.5831

>  <r_i_docking_score>  (1303) 
-1.8098241401825801

>  <r_i_glide_ecoul>  (1303) 
-2.14785552024841

>  <r_i_glide_eff_state_penalty>  (1303) 
1.5831

>  <r_i_glide_einternal>  (1303) 
7.2730760574340803

>  <r_i_glide_emodel>  (1303) 
-47.409066029464299

>  <r_i_glide_energy>  (1303) 
-41.598119497299201

>  <r_i_glide_erotb>  (1303) 
0.63275222233835005

>  <r_i_glide_esite>  (1303) 
-0.072541778862857204

>  <r_i_glide_evdw>  (1303) 
-39.450263977050803

>  <r_i_glide_gscore>  (1303) 
-3.39292414018258

>  <r_i_glide_hbond>  (1303) 
0

>  <r_i_glide_ligand_efficiency>  (1303) 
-0.0532301217700758

>  <r_i_glide_ligand_efficiency_ln>  (1303) 
-0.39984091641397701

>  <r_i_glide_ligand_efficiency_sa>  (1303) 
-0.17244493046707399

>  <r_i_glide_lipo>  (1303) 
-1.4744118749500901

>  <r_i_glide_metal>  (1303) 
-0

>  <r_i_glide_rewards>  (1303) 
-0.18403118181818101

>  <r_lp_Energy>  (1303) 
39.115110000000001

>  <r_qp_ACxDN^.5/SA>  (1303) 
0.013041000000000001

>  <r_qp_CIQPlogS>  (1303) 
-6.4390000000000001

>  <r_qp_EA(eV)>  (1303) 
0.83399999999999996

>  <r_qp_FISA>  (1303) 
40.206000000000003

>  <r_qp_FOSA>  (1303) 
216.33600000000001

>  <r_qp_IP(eV)>  (1303) 
8.3740000000000006

>  <r_qp_Jm>  (1303) 
0.20071817074551801

>  <r_qp_PISA>  (1303) 
417.029

>  <r_qp_PSA>  (1303) 
54.704999999999998

>  <r_qp_PercentHumanOralAbsorption>  (1303) 
100

>  <r_qp_QPPCaco>  (1303) 
1026.9010000000001

>  <r_qp_QPPMDCK>  (1303) 
836.04100000000005

>  <r_qp_QPlogBB>  (1303) 
0.19

>  <r_qp_QPlogHERG>  (1303) 
-6.5940000000000003

>  <r_qp_QPlogKhsa>  (1303) 
0.77400000000000002

>  <r_qp_QPlogKp>  (1303) 
-2.0859999999999999

>  <r_qp_QPlogPC16>  (1303) 
14.955

>  <r_qp_QPlogPo/w>  (1303) 
4.9859999999999998

>  <r_qp_QPlogPoct>  (1303) 
23.009

>  <r_qp_QPlogPw>  (1303) 
12.103999999999999

>  <r_qp_QPlogS>  (1303) 
-4.2859999999999996

>  <r_qp_QPpolrz>  (1303) 
48.359999999999999

>  <r_qp_SASA>  (1303) 
704.88499999999999

>  <r_qp_SAamideO>  (1303) 
0

>  <r_qp_SAfluorine>  (1303) 
0

>  <r_qp_WPSA>  (1303) 
31.314

>  <r_qp_accptHB>  (1303) 
6.5

>  <r_qp_dip^2/V>  (1303) 
0.029704999999999999

>  <r_qp_dipole>  (1303) 
6.4279999999999999

>  <r_qp_donorHB>  (1303) 
2

>  <r_qp_glob>  (1303) 
0.85493410000000003

>  <r_qp_mol_MW>  (1303) 
473.01600000000002

>  <r_qp_volume>  (1303) 
1391.0060000000001

>  <r_sd_BIOSOLVEIT.INFINISEE\_FTREES\_SIMILARITY>  (1303) 
0.93400000000000005

>  <r_sd_BIOSOLVEIT.LOGP>  (1303) 
4.8869999999999996

>  <r_sd_BIOSOLVEIT.MOLECULAR\_WEIGHT>  (1303) 
474.02499999999998

>  <r_sd_BIOSOLVEIT.TPSA>  (1303) 
58.460000000000001

>  <i_epik_Tot_Q>  (1303) 
0

>  <i_epik_Tot_abs_Q>  (1303) 
0

>  <i_f3d_flags>  (1303) 
0

>  <i_i_glide_confnum>  (1303) 
2

>  <i_i_glide_lignum>  (1303) 
710

>  <i_i_glide_posenum>  (1303) 
8

>  <i_i_glide_rotatable_bonds>  (1303) 
9

>  <i_lp_mmshare_version>  (1303) 
65135

>  <i_m_ct_format>  (1303) 
2

>  <i_m_source_file_index>  (1303) 
2191

>  <i_qp_#NandO>  (1303) 
5

>  <i_qp_#acid>  (1303) 
0

>  <i_qp_#amide>  (1303) 
0

>  <i_qp_#amidine>  (1303) 
0

>  <i_qp_#amine>  (1303) 
1

>  <i_qp_#in34>  (1303) 
0

>  <i_qp_#in56>  (1303) 
22

>  <i_qp_#metab>  (1303) 
8

>  <i_qp_#nonHatm>  (1303) 
34

>  <i_qp_#noncon>  (1303) 
0

>  <i_qp_#ringatoms>  (1303) 
22

>  <i_qp_#rotor>  (1303) 
8

>  <i_qp_#rtvFG>  (1303) 
0

>  <i_qp_#stars>  (1303) 
0

>  <i_qp_CNS>  (1303) 
1

>  <i_qp_HumanOralAbsorption>  (1303) 
3

>  <i_qp_RuleOfFive>  (1303) 
0

>  <i_qp_RuleOfThree>  (1303) 
1

>  <i_sd_BIOSOLVEIT.INFINISEE\_RESULT\_RANK>  (1303) 
2820

>  <i_sd_version>  (1303) 
0

>  <b_lp_Chiralities_Consistent>  (1303) 
1

>  <b_sd_chiral_flag>  (1303) 
0

>  <canonical_id>  (1303) 
ATP-HTVS-CD84540442E8

>  <compound_code>  (1303) 
70081

>  <title>  (1303) 
rxn502b____EMOL1836734____EMOL13728749____EMOL2873214

>  <variant>  (1303) 
70081-3

>  <source_file>  (1303) 
运行/运行/ATP-VSW/ATP-VSW-DOCK_HTVS_1-001_lib/ATP-VSW-DOCK_HTVS_1-001_lib

>  <canonical_smiles>  (1303) 
C[C@@H](C(=O)Nc1c(NCc2cccc(CN(C)C)c2)cnc2ccccc12)c1ccccc1Cl

>  <scaffold>  (1303) 
O=C(Cc1ccccc1)Nc1c(NCc2ccccc2)cnc2ccccc12

>  <molecular_formula>  (1303) 
C28H29ClN4O

$$$$
ATP-HTVS-CDA0FA66D084
     RDKit          3D

 65 68  0  0  0  0  0  0  0  0999 V2000
  199.2985  183.7380  158.6805 O   0  0  0  0  0  0  0  0  0  0  0  0
  198.6569  183.8496  157.6372 C   0  0  0  0  0  0  0  0  0  0  0  0
  198.6148  182.8796  156.7033 N   0  0  0  0  0  0  0  0  0  0  0  0
  199.4238  181.7190  156.6515 C   0  0  0  0  0  0  0  0  0  0  0  0
  198.7859  180.5326  156.5927 N   0  0  0  0  0  0  0  0  0  0  0  0
  199.4230  179.3517  156.5069 C   0  0  0  0  0  0  0  0  0  0  0  0
  200.8357  179.2866  156.4541 C   0  0  0  0  0  0  0  0  0  0  0  0
  201.5233  178.0534  156.3957 N   0  0  0  0  0  0  0  0  0  0  0  0
  200.8538  176.7553  156.5152 C   0  0  1  0  0  0  0  0  0  0  0  0
  200.9787  175.9244  155.2547 C   0  0  0  0  0  0  0  0  0  0  0  0
  201.5338  174.6338  155.3183 C   0  0  0  0  0  0  0  0  0  0  0  0
  201.6199  173.8332  154.1619 C   0  0  0  0  0  0  0  0  0  0  0  0
  201.1520  174.3216  152.9170 C   0  0  0  0  0  0  0  0  0  0  0  0
  201.1985  173.5704  151.7343 N   0  0  0  0  0  0  0  0  0  0  0  0
  201.6916  172.1988  151.6941 C   0  0  1  0  0  0  0  0  0  0  0  0
  203.1886  172.1288  151.3589 C   0  0  1  0  0  0  0  0  0  0  0  0
  203.5896  170.7857  151.3328 O   0  0  0  0  0  0  0  0  0  0  0  0
  200.6085  175.6237  152.8551 C   0  0  0  0  0  0  0  0  0  0  0  0
  200.5226  176.4216  154.0154 C   0  0  0  0  0  0  0  0  0  0  0  0
  201.5585  180.5154  156.4686 C   0  0  0  0  0  0  0  0  0  0  0  0
  200.8442  181.7513  156.5592 C   0  0  0  0  0  0  0  0  0  0  0  0
  201.5685  182.9739  156.5290 C   0  0  0  0  0  0  0  0  0  0  0  0
  202.9688  182.9812  156.4512 C   0  0  0  0  0  0  0  0  0  0  0  0
  203.6762  181.7682  156.3773 C   0  0  0  0  0  0  0  0  0  0  0  0
  202.9748  180.5473  156.3799 C   0  0  0  0  0  0  0  0  0  0  0  0
  197.8663  185.1446  157.3339 C   0  0  1  0  0  0  0  0  0  0  0  0
  196.8398  185.3647  158.4693 C   0  0  0  0  0  0  0  0  0  0  0  0
  196.9097  186.4781  159.3479 C   0  0  0  0  0  0  0  0  0  0  0  0
  195.9554  186.6561  160.3678 C   0  0  0  0  0  0  0  0  0  0  0  0
  194.9148  185.7266  160.5299 C   0  0  0  0  0  0  0  0  0  0  0  0
  194.8309  184.6162  159.6712 C   0  0  0  0  0  0  0  0  0  0  0  0
  195.7838  184.4376  158.6504 C   0  0  0  0  0  0  0  0  0  0  0  0
  198.8844  186.3079  157.2139 C   0  0  2  0  0  0  0  0  0  0  0  0
  197.1396  185.0550  155.9637 C   0  0  2  0  0  0  0  0  0  0  0  0
  197.9943  183.0189  155.9202 H   0  0  0  0  0  0  0  0  0  0  0  0
  198.7539  178.5060  156.5228 H   0  0  0  0  0  0  0  0  0  0  0  0
  202.5282  178.0396  156.4910 H   0  0  0  0  0  0  0  0  0  0  0  0
  201.3239  176.2269  157.3443 H   0  0  0  0  0  0  0  0  0  0  0  0
  199.7879  176.8123  156.7618 H   0  0  0  0  0  0  0  0  0  0  0  0
  201.8772  174.2401  156.2636 H   0  0  0  0  0  0  0  0  0  0  0  0
  202.0480  172.8458  154.2658 H   0  0  0  0  0  0  0  0  0  0  0  0
  200.8309  173.9619  150.8779 H   0  0  0  0  0  0  0  0  0  0  0  0
  201.4764  171.6684  152.6229 H   0  0  0  0  0  0  0  0  0  0  0  0
  201.1303  171.6751  150.9226 H   0  0  0  0  0  0  0  0  0  0  0  0
  203.3847  172.5887  150.3866 H   0  0  0  0  0  0  0  0  0  0  0  0
  203.7790  172.6709  152.0998 H   0  0  0  0  0  0  0  0  0  0  0  0
  203.5511  170.4778  152.2349 H   0  0  0  0  0  0  0  0  0  0  0  0
  200.2372  176.0155  151.9168 H   0  0  0  0  0  0  0  0  0  0  0  0
  200.0794  177.4048  153.9574 H   0  0  0  0  0  0  0  0  0  0  0  0
  201.0774  183.9315  156.5603 H   0  0  0  0  0  0  0  0  0  0  0  0
  203.4951  183.9241  156.4546 H   0  0  0  0  0  0  0  0  0  0  0  0
  204.7593  181.7792  156.3220 H   0  0  0  0  0  0  0  0  0  0  0  0
  203.5439  179.6385  156.3020 H   0  0  0  0  0  0  0  0  0  0  0  0
  197.6856  187.2216  159.2617 H   0  0  0  0  0  0  0  0  0  0  0  0
  196.0226  187.5126  161.0237 H   0  0  0  0  0  0  0  0  0  0  0  0
  194.1790  185.8665  161.3061 H   0  0  0  0  0  0  0  0  0  0  0  0
  194.0259  183.9051  159.7802 H   0  0  0  0  0  0  0  0  0  0  0  0
  195.6846  183.5801  157.9980 H   0  0  0  0  0  0  0  0  0  0  0  0
  199.4805  186.4376  158.1180 H   0  0  0  0  0  0  0  0  0  0  0  0
  198.3813  187.2527  157.0099 H   0  0  0  0  0  0  0  0  0  0  0  0
  199.5822  186.1451  156.3940 H   0  0  0  0  0  0  0  0  0  0  0  0
  196.4659  184.2016  155.9010 H   0  0  0  0  0  0  0  0  0  0  0  0
  197.8382  184.9810  155.1330 H   0  0  0  0  0  0  0  0  0  0  0  0
  196.5326  185.9433  155.7805 H   0  0  0  0  0  0  0  0  0  0  0  0
  197.7663  180.5040  156.6663 H   0  0  0  0  0  0  0  0  0  0  0  0
  1  2  2  0
  2  3  1  0
 26  2  1  1
  3  4  1  0
  3 35  1  0
  4  5  2  0
  4 21  1  0
  5  6  1  0
  5 65  1  0
  6  7  2  0
  6 36  1  0
  7  8  1  0
  7 20  1  0
  8  9  1  0
  8 37  1  0
  9 10  1  0
  9 38  1  1
  9 39  1  0
 10 11  1  0
 10 19  2  0
 11 12  2  0
 11 40  1  0
 12 13  1  0
 12 41  1  0
 13 14  1  0
 13 18  2  0
 14 15  1  0
 14 42  1  0
 15 16  1  0
 15 43  1  1
 15 44  1  0
 16 17  1  0
 16 45  1  6
 16 46  1  0
 17 47  1  0
 18 19  1  0
 18 48  1  0
 19 49  1  0
 20 21  1  0
 20 25  2  0
 21 22  2  0
 22 23  1  0
 22 50  1  0
 23 24  2  0
 23 51  1  0
 24 25  1  0
 24 52  1  0
 25 53  1  0
 26 27  1  0
 26 33  1  0
 26 34  1  0
 27 28  2  0
 27 32  1  0
 28 29  1  0
 28 54  1  0
 29 30  2  0
 29 55  1  0
 30 31  1  0
 30 56  1  0
 31 32  2  0
 31 57  1  0
 32 58  1  0
 33 59  1  1
 33 60  1  0
 33 61  1  0
 34 62  1  1
 34 63  1  0
 34 64  1  0
M  CHG  1   5   1
M  END
>  <s_epik_cmdline>  (1304) 
J2VwaWtfcHl0aG9uJywgJy1waCcsICc3LjAwMDAwMCcsICctcGh0JywgJzIuMDAwMDAwJywgJy1tcycsICcxNicsICctdG4nLCAnOCcsICctbWEnLCAnMjAwJywgJy1pbWFlJywgJzxpbmZpbGUubWFlPicsICctb21hZScsICc8b3V0ZmlsZS5tYWU+Jw==

>  <s_epik_input>  (1304) 
W2NIXTFbY0hdW2NIXVtjSF1bY0hdYzFDKFtDSDNdKShbQ0gzXSlDKD1PKVtOSF1jKGMoYzIzKVtjSF1bY0hdW2NIXVtjSF0zKW5bY0hdYzJbTkhdW0NIMl1jNFtjSF1bY0hdYyhbY0hdW2NIXTQpW05IXVtDSDJdW0NIMl1bT0hd

>  <s_i_glide_gridfile>  (1304) 
ATP-Grid

>  <s_lp_Force_Field>  (1304) 
OPLS_2005

>  <s_lp_Variant>  (1304) 
rxn502b____EMOL882167____EMOL7515103____EMOL324170366-2

>  <s_lp_label>  (1304) 
2281_sdstereoexpander_1_neutralizer_1_epik_2_stereoizer_1

>  <s_m_source_file>  (1304) 
ATP-VSW-LIGPREP-001-in.maegz

>  <s_sd_BIOSOLVEIT.INFINISEE\_QUERY\_NAME>  (1304) 
Ref-Lig

>  <s_sd_BIOSOLVEIT.INFINISEE\_QUERY\_SMILES>  (1304) 
S(c1nc2c(cc1C[NH2+]Cc3ccc(cc3)C[NH+](C)C)cccc2)Cc4ccccc4

>  <s_sd_BIOSOLVEIT.INFINISEE\_REACTION\_NAME>  (1304) 
rxn502b

>  <s_sd_BIOSOLVEIT.INFINISEE\_REAGENT1\_NAME>  (1304) 
EMOL882167

>  <s_sd_BIOSOLVEIT.INFINISEE\_REAGENT1\_SMILES>  (1304) 
O=C(O)C(c1ccccc1)(C)C

>  <s_sd_BIOSOLVEIT.INFINISEE\_REAGENT2\_NAME>  (1304) 
EMOL7515103

>  <s_sd_BIOSOLVEIT.INFINISEE\_REAGENT2\_SMILES>  (1304) 
Brc1c2c(c(nc1)N)cccc2

>  <s_sd_BIOSOLVEIT.INFINISEE\_REAGENT3\_NAME>  (1304) 
EMOL324170366

>  <s_sd_BIOSOLVEIT.INFINISEE\_REAGENT3\_SMILES>  (1304) 
OCCNc1ccc(cc1)CN

>  <s_sd_BIOSOLVEIT.INFINISEE\_SPACE>  (1304) 
eXplore_7tr_2022-12

>  <s_vsw_compound_code>  (1304) 
72961

>  <s_vsw_variant>  (1304) 
72961-2

>  <r_epik_Charging_Adjusted_Penalty>  (1304) 
3.5577237158875401

>  <r_epik_Ionization_Penalty>  (1304) 
1.9389000000000001

>  <r_epik_Ionization_Penalty_Charging>  (1304) 
1.7687999999999999

>  <r_epik_Ionization_Penalty_Neutral>  (1304) 
0.1701

>  <r_epik_State_Penalty>  (1304) 
1.7888999999999999

>  <r_i_docking_score>  (1304) 
-3.7634335607799598

>  <r_i_glide_ecoul>  (1304) 
-11.649356842041

>  <r_i_glide_eff_state_penalty>  (1304) 
1.7888999999999999

>  <r_i_glide_einternal>  (1304) 
11.4591112136841

>  <r_i_glide_emodel>  (1304) 
-59.343873564034503

>  <r_i_glide_energy>  (1304) 
-44.399208068847699

>  <r_i_glide_erotb>  (1304) 
0.87118896372538401

>  <r_i_glide_esite>  (1304) 
-0.070343521841868706

>  <r_i_glide_evdw>  (1304) 
-32.749851226806598

>  <r_i_glide_gscore>  (1304) 
-5.5523335607799602

>  <r_i_glide_hbond>  (1304) 
-0.45600000000000002

>  <r_i_glide_ligand_efficiency>  (1304) 
-0.110689222375881

>  <r_i_glide_ligand_efficiency_ln>  (1304) 
-0.83144803431209202

>  <r_i_glide_ligand_efficiency_sa>  (1304) 
-0.35859011066162599

>  <r_i_glide_lipo>  (1304) 
-1.9843602331988099

>  <r_i_glide_metal>  (1304) 
-0

>  <r_i_glide_rewards>  (1304) 
-0.52792268181818103

>  <r_lp_Energy>  (1304) 
41.718603000000002

>  <r_qp_ACxDN^.5/SA>  (1304) 
0.017464199999999999

>  <r_qp_CIQPlogS>  (1304) 
-6.6589999999999998

>  <r_qp_EA(eV)>  (1304) 
0.69799999999999995

>  <r_qp_FISA>  (1304) 
116.575

>  <r_qp_FOSA>  (1304) 
241.67400000000001

>  <r_qp_IP(eV)>  (1304) 
7.5140000000000002

>  <r_qp_Jm>  (1304) 
0.0102011111625347

>  <r_qp_PISA>  (1304) 
466.29300000000001

>  <r_qp_PSA>  (1304) 
86.593999999999994

>  <r_qp_PercentHumanOralAbsorption>  (1304) 
100

>  <r_qp_QPPCaco>  (1304) 
776.99300000000005

>  <r_qp_QPPMDCK>  (1304) 
376.62099999999998

>  <r_qp_QPlogBB>  (1304) 
-1.361

>  <r_qp_QPlogHERG>  (1304) 
-7.5309999999999997

>  <r_qp_QPlogKhsa>  (1304) 
0.624

>  <r_qp_QPlogKp>  (1304) 
-1.0649999999999999

>  <r_qp_QPlogPC16>  (1304) 
17.341999999999999

>  <r_qp_QPlogPo/w>  (1304) 
4.8529999999999998

>  <r_qp_QPlogPoct>  (1304) 
27.757000000000001

>  <r_qp_QPlogPw>  (1304) 
16.413

>  <r_qp_QPlogS>  (1304) 
-6.5839999999999996

>  <r_qp_QPpolrz>  (1304) 
51.686

>  <r_qp_SASA>  (1304) 
824.54200000000003

>  <r_qp_SAamideO>  (1304) 
0

>  <r_qp_SAfluorine>  (1304) 
0

>  <r_qp_WPSA>  (1304) 
0

>  <r_qp_accptHB>  (1304) 
7.2000000000000002

>  <r_qp_dip^2/V>  (1304) 
0.061236199999999998

>  <r_qp_dipole>  (1304) 
9.5660000000000007

>  <r_qp_donorHB>  (1304) 
4

>  <r_qp_glob>  (1304) 
0.76666509999999999

>  <r_qp_mol_MW>  (1304) 
454.57100000000003

>  <r_qp_volume>  (1304) 
1494.4469999999999

>  <r_sd_BIOSOLVEIT.INFINISEE\_FTREES\_SIMILARITY>  (1304) 
0.92400000000000004

>  <r_sd_BIOSOLVEIT.LOGP>  (1304) 
5.1673999999999998

>  <r_sd_BIOSOLVEIT.MOLECULAR\_WEIGHT>  (1304) 
454.57100000000003

>  <r_sd_BIOSOLVEIT.TPSA>  (1304) 
86.280000000000001

>  <i_epik_Tot_Q>  (1304) 
1

>  <i_epik_Tot_abs_Q>  (1304) 
1

>  <i_f3d_flags>  (1304) 
0

>  <i_i_glide_confnum>  (1304) 
1

>  <i_i_glide_lignum>  (1304) 
809

>  <i_i_glide_posenum>  (1304) 
6

>  <i_i_glide_rotatable_bonds>  (1304) 
11

>  <i_lp_mmshare_version>  (1304) 
65135

>  <i_m_ct_format>  (1304) 
2

>  <i_m_source_file_index>  (1304) 
2281

>  <i_qp_#NandO>  (1304) 
6

>  <i_qp_#acid>  (1304) 
0

>  <i_qp_#amide>  (1304) 
0

>  <i_qp_#amidine>  (1304) 
0

>  <i_qp_#amine>  (1304) 
0

>  <i_qp_#in34>  (1304) 
0

>  <i_qp_#in56>  (1304) 
22

>  <i_qp_#metab>  (1304) 
9

>  <i_qp_#nonHatm>  (1304) 
34

>  <i_qp_#noncon>  (1304) 
0

>  <i_qp_#ringatoms>  (1304) 
22

>  <i_qp_#rotor>  (1304) 
10

>  <i_qp_#rtvFG>  (1304) 
0

>  <i_qp_#stars>  (1304) 
4

>  <i_qp_CNS>  (1304) 
-2

>  <i_qp_HumanOralAbsorption>  (1304) 
1

>  <i_qp_RuleOfFive>  (1304) 
0

>  <i_qp_RuleOfThree>  (1304) 
2

>  <i_sd_BIOSOLVEIT.INFINISEE\_RESULT\_RANK>  (1304) 
10214

>  <i_sd_version>  (1304) 
0

>  <b_lp_Chiralities_Consistent>  (1304) 
1

>  <b_sd_chiral_flag>  (1304) 
0

>  <canonical_id>  (1304) 
ATP-HTVS-CDA0FA66D084

>  <compound_code>  (1304) 
72961

>  <title>  (1304) 
rxn502b____EMOL882167____EMOL7515103____EMOL324170366

>  <variant>  (1304) 
72961-2

>  <source_file>  (1304) 
运行/运行/ATP-VSW/ATP-VSW-DOCK_HTVS_1-001_lib/ATP-VSW-DOCK_HTVS_1-001_lib

>  <canonical_smiles>  (1304) 
CC(C)(C(=O)Nc1[nH+]cc(NCc2ccc(NCCO)cc2)c2ccccc12)c1ccccc1

>  <scaffold>  (1304) 
O=C(Cc1ccccc1)Nc1[nH+]cc(NCc2ccccc2)c2ccccc12

>  <molecular_formula>  (1304) 
C28H31N4O2+

$$$$
ATP-HTVS-CDB030173D15
     RDKit          3D

 67 70  0  0  0  0  0  0  0  0999 V2000
  201.1501  177.8852  158.6589 O   0  0  0  0  0  0  0  0  0  0  0  0
  201.4977  178.8950  158.0681 N   0  0  0  0  0  0  0  0  0  0  0  0
  202.2896  179.7083  158.5228 O   0  0  0  0  0  0  0  0  0  0  0  0
  200.8786  179.1600  156.7640 C   0  0  0  0  0  0  0  0  0  0  0  0
  200.0330  178.2188  156.1470 C   0  0  0  0  0  0  0  0  0  0  0  0
  199.4157  178.5169  154.9160 C   0  0  0  0  0  0  0  0  0  0  0  0
  199.6390  179.7573  154.2774 C   0  0  0  0  0  0  0  0  0  0  0  0
  200.4805  180.6977  154.8992 C   0  0  0  0  0  0  0  0  0  0  0  0
  201.0879  180.4105  156.1347 C   0  0  0  0  0  0  0  0  0  0  0  0
  198.9378  180.0727  153.0313 C   0  0  0  0  0  0  0  0  0  0  0  0
  198.8759  179.1551  152.0813 N   0  0  0  0  0  0  0  0  0  0  0  0
  198.2262  179.7337  151.0503 N   0  0  0  0  0  0  0  0  0  0  0  0
  198.0231  179.0244  149.8464 C   0  0  0  0  0  0  0  0  0  0  0  0
  198.9375  178.0244  149.4376 C   0  0  0  0  0  0  0  0  0  0  0  0
  198.7291  177.3182  148.2380 C   0  0  0  0  0  0  0  0  0  0  0  0
  197.6066  177.6073  147.4431 C   0  0  0  0  0  0  0  0  0  0  0  0
  196.6851  178.5875  147.8534 C   0  0  0  0  0  0  0  0  0  0  0  0
  196.8944  179.3029  149.0468 C   0  0  0  0  0  0  0  0  0  0  0  0
  197.8565  181.0230  151.3616 C   0  0  0  0  0  0  0  0  0  0  0  0
  198.2796  181.2811  152.6358 C   0  0  0  0  0  0  0  0  0  0  0  0
  198.0829  182.5718  153.3938 C   0  0  1  0  0  0  0  0  0  0  0  0
  197.2037  182.4347  154.5346 N   0  0  0  0  0  0  0  0  0  0  0  0
  197.3941  183.4463  155.5601 C   0  0  2  0  0  0  0  0  0  0  0  0
  196.5797  183.1265  156.8892 C   0  0  1  0  0  0  0  0  0  0  0  0
  196.8872  181.7729  157.4809 N   0  0  1  0  0  0  0  0  0  0  0  0
  198.1684  181.1381  157.1260 C   0  0  2  0  0  0  0  0  0  0  0  0
  196.7072  181.6704  158.9631 C   0  0  2  0  0  0  0  0  0  0  0  0
  196.5969  184.2581  157.9367 C   0  0  0  0  0  0  0  0  0  0  0  0
  195.4703  184.5319  158.7718 C   0  0  0  0  0  0  0  0  0  0  0  0
  195.5688  185.5639  159.7298 C   0  0  0  0  0  0  0  0  0  0  0  0
  196.7269  186.3580  159.8524 C   0  0  0  0  0  0  0  0  0  0  0  0
  197.8261  186.1042  159.0176 C   0  0  0  0  0  0  0  0  0  0  0  0
  197.7666  185.0541  158.0848 C   0  0  0  0  0  0  0  0  0  0  0  0
  194.1398  183.7553  158.6891 C   0  0  2  0  0  0  0  0  0  0  0  0
  197.0578  184.8421  154.9144 C   0  0  2  0  0  0  0  0  0  0  0  0
  197.3152  181.5342  154.8905 H   0  0  0  0  0  0  0  0  0  0  0  0
  199.8259  177.2612  156.6142 H   0  0  0  0  0  0  0  0  0  0  0  0
  198.7474  177.8000  154.4767 H   0  0  0  0  0  0  0  0  0  0  0  0
  200.6250  181.6811  154.4768 H   0  0  0  0  0  0  0  0  0  0  0  0
  201.6581  181.1773  156.6388 H   0  0  0  0  0  0  0  0  0  0  0  0
  199.8084  177.8020  150.0370 H   0  0  0  0  0  0  0  0  0  0  0  0
  199.4239  176.5540  147.9233 H   0  0  0  0  0  0  0  0  0  0  0  0
  197.4411  177.0593  146.5284 H   0  0  0  0  0  0  0  0  0  0  0  0
  195.8096  178.7787  147.2540 H   0  0  0  0  0  0  0  0  0  0  0  0
  196.1803  180.0531  149.3517 H   0  0  0  0  0  0  0  0  0  0  0  0
  197.3521  181.6642  150.6528 H   0  0  0  0  0  0  0  0  0  0  0  0
  199.0677  182.9613  153.7266 H   0  0  0  0  0  0  0  0  0  0  0  0
  197.6905  183.3175  152.7061 H   0  0  0  0  0  0  0  0  0  0  0  0
  198.4598  183.4536  155.7917 H   0  0  0  0  0  0  0  0  0  0  0  0
  195.5579  183.0529  156.5698 H   0  0  0  0  0  0  0  0  0  0  0  0
  199.0080  181.7491  157.4620 H   0  0  0  0  0  0  0  0  0  0  0  0
  198.1987  180.9810  156.0530 H   0  0  0  0  0  0  0  0  0  0  0  0
  198.2285  180.1291  157.5556 H   0  0  0  0  0  0  0  0  0  0  0  0
  197.5591  182.2083  159.4523 H   0  0  0  0  0  0  0  0  0  0  0  0
  196.8140  180.5967  159.2505 H   0  0  0  0  0  0  0  0  0  0  0  0
  195.7513  181.9716  159.3825 H   0  0  0  0  0  0  0  0  0  0  0  0
  194.7370  185.7844  160.3838 H   0  0  0  0  0  0  0  0  0  0  0  0
  196.7753  187.1653  160.5702 H   0  0  0  0  0  0  0  0  0  0  0  0
  198.7148  186.7271  159.0829 H   0  0  0  0  0  0  0  0  0  0  0  0
  198.6464  184.9090  157.4652 H   0  0  0  0  0  0  0  0  0  0  0  0
  193.4286  184.1720  159.4421 H   0  0  0  0  0  0  0  0  0  0  0  0
  194.2202  182.6845  158.8079 H   0  0  0  0  0  0  0  0  0  0  0  0
  193.6561  183.9506  157.7180 H   0  0  0  0  0  0  0  0  0  0  0  0
  197.2048  185.6847  155.6010 H   0  0  0  0  0  0  0  0  0  0  0  0
  196.0249  184.8216  154.5804 H   0  0  0  0  0  0  0  0  0  0  0  0
  197.6652  185.0775  154.0434 H   0  0  0  0  0  0  0  0  0  0  0  0
  196.1826  181.1546  157.1020 H   0  0  0  0  0  0  0  0  0  0  0  0
  1  2  1  0
  2  3  2  0
  2  4  1  0
  4  5  1  0
  4  9  2  0
  5  6  2  0
  5 37  1  0
  6  7  1  0
  6 38  1  0
  7  8  2  0
  7 10  1  0
  8  9  1  0
  8 39  1  0
  9 40  1  0
 10 11  2  0
 10 20  1  0
 11 12  1  0
 12 13  1  0
 12 19  1  0
 13 14  2  0
 13 18  1  0
 14 15  1  0
 14 41  1  0
 15 16  2  0
 15 42  1  0
 16 17  1  0
 16 43  1  0
 17 18  2  0
 17 44  1  0
 18 45  1  0
 19 20  2  0
 19 46  1  0
 20 21  1  0
 21 22  1  0
 21 47  1  1
 21 48  1  0
 22 23  1  0
 22 36  1  0
 23 24  1  0
 23 35  1  0
 23 49  1  1
 24 25  1  0
 24 28  1  0
 24 50  1  6
 25 26  1  0
 25 27  1  0
 25 67  1  6
 26 51  1  1
 26 52  1  0
 26 53  1  0
 27 54  1  1
 27 55  1  0
 27 56  1  0
 28 29  1  0
 28 33  2  0
 29 30  2  0
 29 34  1  0
 30 31  1  0
 30 57  1  0
 31 32  2  0
 31 58  1  0
 32 33  1  0
 32 59  1  0
 33 60  1  0
 34 61  1  1
 34 62  1  0
 34 63  1  0
 35 64  1  1
 35 65  1  0
 35 66  1  0
M  CHG  3   1  -1   2   1  25   1
M  END
>  <s_epik_cmdline>  (1305) 
J2VwaWtfcHl0aG9uJywgJy1waCcsICc3LjAwMDAwMCcsICctcGh0JywgJzIuMDAwMDAwJywgJy1tcycsICcxNicsICctdG4nLCAnOCcsICctbWEnLCAnMjAwJywgJy1pbWFlJywgJzxpbmZpbGUubWFlPicsICctb21hZScsICc8b3V0ZmlsZS5tYWU+Jw==

>  <s_epik_input>  (1305) 
W08tXVtOK10oPU8pYzFbY0hdW2NIXWMoW2NIXVtjSF0xKS1jMm5uKC1jM1tjSF1bY0hdW2NIXVtjSF1bY0hdMylbY0hdYzJbQ0gyXVtOSF1bQ0BASF0oW0NIM10pW0NAQEhdKE4oW0NIM10pW0NIM10pYzRjKFtDSDNdKVtjSF1bY0hdW2NIXVtjSF00

>  <s_i_glide_gridfile>  (1305) 
ATP-Grid

>  <s_lp_Force_Field>  (1305) 
OPLS_2005

>  <s_lp_Variant>  (1305) 
m_207bea____9164602____134021-8

>  <s_lp_label>  (1305) 
2071_sdstereoexpander_4_neutralizer_1_epik_2_stereoizer_1

>  <s_m_source_file>  (1305) 
ATP-VSW-LIGPREP-002-in.maegz

>  <s_sd_BIOSOLVEIT.INFINISEE\_QUERY\_NAME>  (1305) 
Ref-Lig

>  <s_sd_BIOSOLVEIT.INFINISEE\_QUERY\_SMILES>  (1305) 
S(c1nc2c(cc1C[NH2+]Cc3ccc(cc3)C[NH+](C)C)cccc2)Cc4ccccc4

>  <s_sd_BIOSOLVEIT.INFINISEE\_REACTION\_NAME>  (1305) 
m_207bea

>  <s_sd_BIOSOLVEIT.INFINISEE\_REAGENT1\_SMILES>  (1305) 
[R1*]NC(C(N(C)C)c1c(cccc1)C)C

>  <s_sd_BIOSOLVEIT.INFINISEE\_REAGENT2\_SMILES>  (1305) 
[R1*]CC=1C(=NN(c2ccccc2)C1)c3ccc([N+]([O-])=O)cc3

>  <s_sd_BIOSOLVEIT.INFINISEE\_SPACE>  (1305) 
REALSpace_44bn_2023-08

>  <s_vsw_compound_code>  (1305) 
66242

>  <s_vsw_variant>  (1305) 
66242-8

>  <r_epik_Charging_Adjusted_Penalty>  (1305) 
1.0783763184109001

>  <r_epik_Ionization_Penalty>  (1305) 
0.14549999999999999

>  <r_epik_Ionization_Penalty_Charging>  (1305) 
0.1187

>  <r_epik_Ionization_Penalty_Neutral>  (1305) 
0.026800000000000001

>  <r_epik_State_Penalty>  (1305) 
0.9597

>  <r_i_docking_score>  (1305) 
-3.4161735277980401

>  <r_i_glide_ecoul>  (1305) 
-7.7963137626647896

>  <r_i_glide_eff_state_penalty>  (1305) 
0.9597

>  <r_i_glide_einternal>  (1305) 
7.6256742477417001

>  <r_i_glide_emodel>  (1305) 
-52.267913905601901

>  <r_i_glide_energy>  (1305) 
-40.131808757781997

>  <r_i_glide_erotb>  (1305) 
0.63871048246767104

>  <r_i_glide_esite>  (1305) 
-0.10177151582497

>  <r_i_glide_evdw>  (1305) 
-32.335494995117202

>  <r_i_glide_gscore>  (1305) 
-4.3758735277980296

>  <r_i_glide_hbond>  (1305) 
-0.057861443036468001

>  <r_i_glide_ligand_efficiency>  (1305) 
-0.097604957937086706

>  <r_i_glide_ligand_efficiency_ln>  (1305) 
-0.749925907238159

>  <r_i_glide_ligand_efficiency_sa>  (1305) 
-0.31927228923700401

>  <r_i_glide_lipo>  (1305) 
-1.53407550873272

>  <r_i_glide_metal>  (1305) 
-0

>  <r_i_glide_rewards>  (1305) 
-0.53465372851597204

>  <r_lp_Energy>  (1305) 
34.961534999999998

>  <r_qp_ACxDN^.5/SA>  (1305) 
0.0070594000000000004

>  <r_qp_CIQPlogS>  (1305) 
-5.8579999999999997

>  <r_qp_EA(eV)>  (1305) 
1.1140000000000001

>  <r_qp_FISA>  (1305) 
115.453

>  <r_qp_FOSA>  (1305) 
226.83500000000001

>  <r_qp_IP(eV)>  (1305) 
8.9809999999999999

>  <r_qp_Jm>  (1305) 
1.9197388270719899e-05

>  <r_qp_PISA>  (1305) 
436.81200000000001

>  <r_qp_PSA>  (1305) 
73.230999999999995

>  <r_qp_PercentHumanOralAbsorption>  (1305) 
86.233999999999995

>  <r_qp_QPPCaco>  (1305) 
49.529000000000003

>  <r_qp_QPPMDCK>  (1305) 
23.518000000000001

>  <r_qp_QPlogBB>  (1305) 
-0.246

>  <r_qp_QPlogHERG>  (1305) 
-8.2029999999999994

>  <r_qp_QPlogKhsa>  (1305) 
1.268

>  <r_qp_QPlogKp>  (1305) 
-5.5620000000000003

>  <r_qp_QPlogPC16>  (1305) 
16.084

>  <r_qp_QPlogPo/w>  (1305) 
4.9450000000000003

>  <r_qp_QPlogPoct>  (1305) 
23.157

>  <r_qp_QPlogPw>  (1305) 
10.689

>  <r_qp_QPlogS>  (1305) 
-4.827

>  <r_qp_QPpolrz>  (1305) 
52.759999999999998

>  <r_qp_SASA>  (1305) 
779.10000000000002

>  <r_qp_SAamideO>  (1305) 
0

>  <r_qp_SAfluorine>  (1305) 
0

>  <r_qp_WPSA>  (1305) 
0

>  <r_qp_accptHB>  (1305) 
5.5

>  <r_qp_dip^2/V>  (1305) 
0.0657137

>  <r_qp_dipole>  (1305) 
9.8620000000000001

>  <r_qp_donorHB>  (1305) 
1

>  <r_qp_glob>  (1305) 
0.80621129999999996

>  <r_qp_mol_MW>  (1305) 
469.58499999999998

>  <r_qp_volume>  (1305) 
1480.183

>  <r_sd_BIOSOLVEIT.INFINISEE\_FTREES\_SIMILARITY>  (1305) 
0.90100000000000002

>  <r_sd_BIOSOLVEIT.LOGP>  (1305) 
3.09362

>  <r_sd_BIOSOLVEIT.MOLECULAR\_WEIGHT>  (1305) 
471.60199999999998

>  <r_sd_BIOSOLVEIT.TPSA>  (1305) 
84.689999999999998

>  <i_epik_Tot_Q>  (1305) 
1

>  <i_epik_Tot_abs_Q>  (1305) 
3

>  <i_f3d_flags>  (1305) 
0

>  <i_i_glide_confnum>  (1305) 
12

>  <i_i_glide_lignum>  (1305) 
747

>  <i_i_glide_posenum>  (1305) 
6

>  <i_i_glide_rotatable_bonds>  (1305) 
9

>  <i_lp_mmshare_version>  (1305) 
65135

>  <i_m_ct_format>  (1305) 
2

>  <i_m_source_file_index>  (1305) 
2071

>  <i_qp_#NandO>  (1305) 
7

>  <i_qp_#acid>  (1305) 
0

>  <i_qp_#amide>  (1305) 
0

>  <i_qp_#amidine>  (1305) 
0

>  <i_qp_#amine>  (1305) 
2

>  <i_qp_#in34>  (1305) 
0

>  <i_qp_#in56>  (1305) 
23

>  <i_qp_#metab>  (1305) 
7

>  <i_qp_#nonHatm>  (1305) 
35

>  <i_qp_#noncon>  (1305) 
0

>  <i_qp_#ringatoms>  (1305) 
23

>  <i_qp_#rotor>  (1305) 
7

>  <i_qp_#rtvFG>  (1305) 
0

>  <i_qp_#stars>  (1305) 
0

>  <i_qp_CNS>  (1305) 
1

>  <i_qp_HumanOralAbsorption>  (1305) 
3

>  <i_qp_RuleOfFive>  (1305) 
0

>  <i_qp_RuleOfThree>  (1305) 
1

>  <i_sd_BIOSOLVEIT.INFINISEE\_REAGENT1\_NAME>  (1305) 
9164602

>  <i_sd_BIOSOLVEIT.INFINISEE\_REAGENT2\_NAME>  (1305) 
134021

>  <i_sd_BIOSOLVEIT.INFINISEE\_RESULT\_RANK>  (1305) 
95389

>  <i_sd_version>  (1305) 
0

>  <b_lp_Chiralities_Consistent>  (1305) 
1

>  <b_sd_chiral_flag>  (1305) 
0

>  <canonical_id>  (1305) 
ATP-HTVS-CDB030173D15

>  <compound_code>  (1305) 
66242

>  <title>  (1305) 
m_207bea____9164602____134021

>  <variant>  (1305) 
66242-8

>  <source_file>  (1305) 
运行/运行/ATP-VSW/ATP-VSW-DOCK_HTVS_1-002_lib.maegz

>  <canonical_smiles>  (1305) 
Cc1ccccc1[C@@H]([C@H](C)NCc1cn(-c2ccccc2)nc1-c1ccc([N+](=O)[O-])cc1)[NH+](C)C

>  <scaffold>  (1305) 
c1ccc(CCNCc2cn(-c3ccccc3)nc2-c2ccccc2)cc1

>  <molecular_formula>  (1305) 
C28H32N5O2+

$$$$
ATP-HTVS-CDFFE8C73978
     RDKit          3D

 51 54  0  0  0  0  0  0  0  0999 V2000
  196.7436  182.8190  155.7636 O   0  0  0  0  0  0  0  0  0  0  0  0
  196.7687  181.8315  156.4988 C   0  0  0  0  0  0  0  0  0  0  0  0
  197.2154  180.6286  156.1135 N   0  0  0  0  0  0  0  0  0  0  0  0
  197.5848  180.2138  154.8095 C   0  0  0  0  0  0  0  0  0  0  0  0
  196.8238  180.5263  153.7309 N   0  0  0  0  0  0  0  0  0  0  0  0
  197.1692  180.0866  152.5066 C   0  0  0  0  0  0  0  0  0  0  0  0
  198.3247  179.2975  152.2939 C   0  0  0  0  0  0  0  0  0  0  0  0
  199.1243  178.9695  153.4025 C   0  0  0  0  0  0  0  0  0  0  0  0
  198.7575  179.4197  154.6876 C   0  0  0  0  0  0  0  0  0  0  0  0
  199.5677  179.0705  155.7896 N   0  0  0  0  0  0  0  0  0  0  0  0
  200.4094  179.9465  156.5161 C   0  0  0  0  0  0  0  0  0  0  0  0
  201.4251  179.4625  157.3807 C   0  0  0  0  0  0  0  0  0  0  0  0
  202.2379  180.3523  158.1133 C   0  0  0  0  0  0  0  0  0  0  0  0
  202.0343  181.7407  158.0151 C   0  0  0  0  0  0  0  0  0  0  0  0
  201.0408  182.2382  157.1534 C   0  0  0  0  0  0  0  0  0  0  0  0
  200.2644  181.3513  156.3869 C   0  0  0  0  0  0  0  0  0  0  0  0
  199.6322  177.6293  156.0512 C   0  0  1  0  0  0  0  0  0  0  0  0
  200.8056  176.9803  155.4367 C   0  0  0  0  0  0  0  0  0  0  0  0
  201.7235  176.4676  154.9524 N   0  0  0  0  0  0  0  0  0  0  0  0
  198.6729  178.8431  151.0037 C   0  0  0  0  0  0  0  0  0  0  0  0
  197.8632  179.1833  149.9064 C   0  0  0  0  0  0  0  0  0  0  0  0
  196.7082  179.9627  150.0998 C   0  0  0  0  0  0  0  0  0  0  0  0
  196.3704  180.4066  151.3929 C   0  0  0  0  0  0  0  0  0  0  0  0
  196.3404  181.9265  157.9703 C   0  0  1  0  0  0  0  0  0  0  0  0
  196.5193  183.3239  158.5500 C   0  0  0  0  0  0  0  0  0  0  0  0
  195.3885  184.1208  158.8206 C   0  0  0  0  0  0  0  0  0  0  0  0
  195.5470  185.4169  159.3472 C   0  0  0  0  0  0  0  0  0  0  0  0
  196.8340  185.9256  159.6017 C   0  0  0  0  0  0  0  0  0  0  0  0
  196.9876  187.1875  160.0996 O   0  0  0  0  0  0  0  0  0  0  0  0
  197.9664  185.1316  159.3338 C   0  0  0  0  0  0  0  0  0  0  0  0
  197.8106  183.8294  158.8216 C   0  0  0  0  0  0  0  0  0  0  0  0
  197.2818  179.9126  156.8365 H   0  0  0  0  0  0  0  0  0  0  0  0
  200.0119  178.3688  153.2661 H   0  0  0  0  0  0  0  0  0  0  0  0
  201.6138  178.4027  157.4953 H   0  0  0  0  0  0  0  0  0  0  0  0
  203.0177  179.9614  158.7517 H   0  0  0  0  0  0  0  0  0  0  0  0
  202.6403  182.4295  158.5863 H   0  0  0  0  0  0  0  0  0  0  0  0
  200.8670  183.2991  157.0626 H   0  0  0  0  0  0  0  0  0  0  0  0
  199.5436  181.7868  155.7108 H   0  0  0  0  0  0  0  0  0  0  0  0
  199.6293  177.4238  157.1205 H   0  0  0  0  0  0  0  0  0  0  0  0
  198.7531  177.1302  155.6481 H   0  0  0  0  0  0  0  0  0  0  0  0
  199.5646  178.2539  150.8457 H   0  0  0  0  0  0  0  0  0  0  0  0
  198.1336  178.8570  148.9090 H   0  0  0  0  0  0  0  0  0  0  0  0
  196.0890  180.2312  149.2570 H   0  0  0  0  0  0  0  0  0  0  0  0
  195.4978  181.0181  151.5520 H   0  0  0  0  0  0  0  0  0  0  0  0
  195.2979  181.6109  158.0620 H   0  0  0  0  0  0  0  0  0  0  0  0
  196.9199  181.2255  158.5724 H   0  0  0  0  0  0  0  0  0  0  0  0
  194.4000  183.7437  158.6118 H   0  0  0  0  0  0  0  0  0  0  0  0
  194.6729  186.0204  159.5351 H   0  0  0  0  0  0  0  0  0  0  0  0
  196.1782  187.6637  160.2037 H   0  0  0  0  0  0  0  0  0  0  0  0
  198.9515  185.5232  159.5292 H   0  0  0  0  0  0  0  0  0  0  0  0
  198.6845  183.2222  158.6280 H   0  0  0  0  0  0  0  0  0  0  0  0
  1  2  2  0
  2  3  1  0
  2 24  1  0
  3  4  1  0
  3 32  1  0
  4  5  2  0
  4  9  1  0
  5  6  1  0
  6  7  1  0
  6 23  2  0
  7  8  1  0
  7 20  2  0
  8  9  2  0
  8 33  1  0
  9 10  1  0
 10 11  1  0
 10 17  1  0
 11 12  2  0
 11 16  1  0
 12 13  1  0
 12 34  1  0
 13 14  2  0
 13 35  1  0
 14 15  1  0
 14 36  1  0
 15 16  2  0
 15 37  1  0
 16 38  1  0
 17 18  1  0
 17 39  1  1
 17 40  1  0
 18 19  3  0
 20 21  1  0
 20 41  1  0
 21 22  2  0
 21 42  1  0
 22 23  1  0
 22 43  1  0
 23 44  1  0
 24 25  1  0
 24 45  1  6
 24 46  1  0
 25 26  1  0
 25 31  2  0
 26 27  2  0
 26 47  1  0
 27 28  1  0
 27 48  1  0
 28 29  1  0
 28 30  2  0
 29 49  1  0
 30 31  1  0
 30 50  1  0
 31 51  1  0
M  END
>  <s_epik_cmdline>  (1306) 
J2VwaWtfcHl0aG9uJywgJy1waCcsICc3LjAwMDAwMCcsICctcGh0JywgJzIuMDAwMDAwJywgJy1tcycsICcxNicsICctdG4nLCAnOCcsICctbWEnLCAnMjAwJywgJy1pbWFlJywgJzxpbmZpbGUubWFlPicsICctb21hZScsICc8b3V0ZmlsZS5tYWU+Jw==

>  <s_epik_input>  (1306) 
W2NIXTFbY0hdYyhbT0hdKVtjSF1bY0hdYzFbQ0gyXUMoPU8pW05IXWMobjIpYyhbY0hdYyhjMjMpW2NIXVtjSF1bY0hdW2NIXTMpTihbQ0gyXUMjTiljNFtjSF1bY0hdW2NIXVtjSF1bY0hdNA==

>  <s_i_glide_gridfile>  (1306) 
ATP-Grid

>  <s_lp_Force_Field>  (1306) 
OPLS_2005

>  <s_lp_Variant>  (1306) 
rxn502b____EMOL521529____EMOL44466703____EMOL712348-1

>  <s_lp_label>  (1306) 
2439_sdstereoexpander_1_neutralizer_1_epik_1_stereoizer_1

>  <s_m_source_file>  (1306) 
ATP-VSW-LIGPREP-003-in.maegz

>  <s_sd_BIOSOLVEIT.INFINISEE\_QUERY\_NAME>  (1306) 
Ref-Lig

>  <s_sd_BIOSOLVEIT.INFINISEE\_QUERY\_SMILES>  (1306) 
S(c1nc2c(cc1C[NH2+]Cc3ccc(cc3)C[NH+](C)C)cccc2)Cc4ccccc4

>  <s_sd_BIOSOLVEIT.INFINISEE\_REACTION\_NAME>  (1306) 
rxn502b

>  <s_sd_BIOSOLVEIT.INFINISEE\_REAGENT1\_NAME>  (1306) 
EMOL521529

>  <s_sd_BIOSOLVEIT.INFINISEE\_REAGENT1\_SMILES>  (1306) 
O=C(O)Cc1ccc(O)cc1

>  <s_sd_BIOSOLVEIT.INFINISEE\_REAGENT2\_NAME>  (1306) 
EMOL44466703

>  <s_sd_BIOSOLVEIT.INFINISEE\_REAGENT2\_SMILES>  (1306) 
Brc1c(nc2c(c1)cccc2)N

>  <s_sd_BIOSOLVEIT.INFINISEE\_REAGENT3\_NAME>  (1306) 
EMOL712348

>  <s_sd_BIOSOLVEIT.INFINISEE\_REAGENT3\_SMILES>  (1306) 
N#CCNc1ccccc1

>  <s_sd_BIOSOLVEIT.INFINISEE\_SPACE>  (1306) 
eXplore_7tr_2022-12

>  <s_vsw_compound_code>  (1306) 
78019

>  <s_vsw_variant>  (1306) 
78019-1

>  <r_epik_Charging_Adjusted_Penalty>  (1306) 
0

>  <r_epik_Ionization_Penalty>  (1306) 
0.0023999999999999998

>  <r_epik_Ionization_Penalty_Charging>  (1306) 
0

>  <r_epik_Ionization_Penalty_Neutral>  (1306) 
0.0023999999999999998

>  <r_epik_State_Penalty>  (1306) 
-0

>  <r_i_docking_score>  (1306) 
-4.3625217512832704

>  <r_i_glide_ecoul>  (1306) 
-5.4248151779174796

>  <r_i_glide_eff_state_penalty>  (1306) 
-0

>  <r_i_glide_einternal>  (1306) 
4.0818929672241202

>  <r_i_glide_emodel>  (1306) 
-53.245219747588003

>  <r_i_glide_energy>  (1306) 
-42.670771598815897

>  <r_i_glide_erotb>  (1306) 
0.70782604627702606

>  <r_i_glide_esite>  (1306) 
-0.22333311530474401

>  <r_i_glide_evdw>  (1306) 
-37.245956420898402

>  <r_i_glide_gscore>  (1306) 
-4.3625217512832704

>  <r_i_glide_hbond>  (1306) 
-0.079425064508894194

>  <r_i_glide_ligand_efficiency>  (1306) 
-0.140726508105912

>  <r_i_glide_ligand_efficiency_ln>  (1306) 
-0.98388235014986303

>  <r_i_glide_ligand_efficiency_sa>  (1306) 
-0.44207552933648497

>  <r_i_glide_lipo>  (1306) 
-1.38611126605319

>  <r_i_glide_metal>  (1306) 
-0

>  <r_i_glide_rewards>  (1306) 
-0.70545825396091599

>  <r_lp_Energy>  (1306) 
25.479340000000001

>  <r_lp_tautomer_probability>  (1306) 
1

>  <r_qp_ACxDN^.5/SA>  (1306) 
0.014311900000000001

>  <r_qp_CIQPlogS>  (1306) 
-7.2859999999999996

>  <r_qp_EA(eV)>  (1306) 
1.179

>  <r_qp_FISA>  (1306) 
128.24299999999999

>  <r_qp_FOSA>  (1306) 
75.171999999999997

>  <r_qp_IP(eV)>  (1306) 
8.6989999999999998

>  <r_qp_Jm>  (1306) 
0.095985378418657494

>  <r_qp_PISA>  (1306) 
414.17200000000003

>  <r_qp_PSA>  (1306) 
93.299000000000007

>  <r_qp_PercentHumanOralAbsorption>  (1306) 
100

>  <r_qp_QPPCaco>  (1306) 
602.23699999999997

>  <r_qp_QPPMDCK>  (1306) 
285.95999999999998

>  <r_qp_QPlogBB>  (1306) 
-1.016

>  <r_qp_QPlogHERG>  (1306) 
-5.4039999999999999

>  <r_qp_QPlogKhsa>  (1306) 
0.33200000000000002

>  <r_qp_QPlogKp>  (1306) 
-1.6559999999999999

>  <r_qp_QPlogPC16>  (1306) 
13.676

>  <r_qp_QPlogPo/w>  (1306) 
3.6930000000000001

>  <r_qp_QPlogPoct>  (1306) 
20.687999999999999

>  <r_qp_QPlogPw>  (1306) 
12.215999999999999

>  <r_qp_QPlogS>  (1306) 
-4.9729999999999999

>  <r_qp_QPpolrz>  (1306) 
40.567

>  <r_qp_SASA>  (1306) 
617.58799999999997

>  <r_qp_SAamideO>  (1306) 
0

>  <r_qp_SAfluorine>  (1306) 
0

>  <r_qp_WPSA>  (1306) 
0

>  <r_qp_accptHB>  (1306) 
6.25

>  <r_qp_dip^2/V>  (1306) 
0.047971699999999999

>  <r_qp_dipole>  (1306) 
7.5780000000000003

>  <r_qp_donorHB>  (1306) 
2

>  <r_qp_glob>  (1306) 
0.88278679999999998

>  <r_qp_mol_MW>  (1306) 
408.459

>  <r_qp_volume>  (1306) 
1196.972

>  <r_sd_BIOSOLVEIT.INFINISEE\_FTREES\_SIMILARITY>  (1306) 
0.91700000000000004

>  <r_sd_BIOSOLVEIT.LOGP>  (1306) 
4.7832800000000004

>  <r_sd_BIOSOLVEIT.MOLECULAR\_WEIGHT>  (1306) 
408.459

>  <r_sd_BIOSOLVEIT.TPSA>  (1306) 
89.25

>  <i_epik_Tot_Q>  (1306) 
0

>  <i_epik_Tot_abs_Q>  (1306) 
0

>  <i_f3d_flags>  (1306) 
0

>  <i_i_glide_confnum>  (1306) 
5

>  <i_i_glide_lignum>  (1306) 
1048

>  <i_i_glide_posenum>  (1306) 
13

>  <i_i_glide_rotatable_bonds>  (1306) 
8

>  <i_lp_mmshare_version>  (1306) 
65135

>  <i_m_ct_format>  (1306) 
2

>  <i_m_source_file_index>  (1306) 
2439

>  <i_qp_#NandO>  (1306) 
6

>  <i_qp_#acid>  (1306) 
0

>  <i_qp_#amide>  (1306) 
0

>  <i_qp_#amidine>  (1306) 
0

>  <i_qp_#amine>  (1306) 
0

>  <i_qp_#in34>  (1306) 
0

>  <i_qp_#in56>  (1306) 
22

>  <i_qp_#metab>  (1306) 
5

>  <i_qp_#nonHatm>  (1306) 
31

>  <i_qp_#noncon>  (1306) 
0

>  <i_qp_#ringatoms>  (1306) 
22

>  <i_qp_#rotor>  (1306) 
8

>  <i_qp_#rtvFG>  (1306) 
0

>  <i_qp_#stars>  (1306) 
0

>  <i_qp_CNS>  (1306) 
-2

>  <i_qp_HumanOralAbsorption>  (1306) 
3

>  <i_qp_RuleOfFive>  (1306) 
0

>  <i_qp_RuleOfThree>  (1306) 
0

>  <i_sd_BIOSOLVEIT.INFINISEE\_RESULT\_RANK>  (1306) 
24167

>  <i_sd_version>  (1306) 
0

>  <b_lp_Chiralities_Consistent>  (1306) 
1

>  <b_sd_chiral_flag>  (1306) 
0

>  <canonical_id>  (1306) 
ATP-HTVS-CDFFE8C73978

>  <compound_code>  (1306) 
78019

>  <title>  (1306) 
rxn502b____EMOL521529____EMOL44466703____EMOL712348

>  <variant>  (1306) 
78019-1

>  <source_file>  (1306) 
运行/运行/ATP-VSW/ATP-VSW-DOCK_HTVS_1-003_lib/ATP-VSW-DOCK_HTVS_1-003_lib.mae

>  <canonical_smiles>  (1306) 
N#CCN(c1ccccc1)c1cc2ccccc2nc1NC(=O)Cc1ccc(O)cc1

>  <scaffold>  (1306) 
O=C(Cc1ccccc1)Nc1nc2ccccc2cc1Nc1ccccc1

>  <molecular_formula>  (1306) 
C25H20N4O2

$$$$
ATP-HTVS-CE0C62FD8EFC
     RDKit          3D

 53 56  0  0  0  0  0  0  0  0999 V2000
  196.3564  187.0533  156.1068 O   0  0  0  0  0  0  0  0  0  0  0  0
  197.3235  186.3156  155.8524 C   0  0  0  0  0  0  0  0  0  0  0  0
  197.9532  186.3158  154.6847 N   0  0  0  0  0  0  0  0  0  0  0  0
  199.0102  185.4450  154.3352 C   0  0  0  0  0  0  0  0  0  0  0  0
  199.0091  184.0717  154.6984 C   0  0  0  0  0  0  0  0  0  0  0  0
  200.0999  183.2632  154.3035 C   0  0  0  0  0  0  0  0  0  0  0  0
  201.1516  183.7901  153.5528 C   0  0  0  0  0  0  0  0  0  0  0  0
  201.1309  185.1432  153.1787 C   0  0  0  0  0  0  0  0  0  0  0  0
  200.0624  185.9693  153.5668 C   0  0  0  0  0  0  0  0  0  0  0  0
  197.8371  183.4479  155.4549 C   0  0  2  0  0  0  0  0  0  0  0  0
  197.7093  183.9362  156.8433 N   0  0  0  0  0  0  0  0  0  0  0  0
  196.4390  183.4726  157.4444 C   0  0  2  0  0  0  0  0  0  0  0  0
  195.9906  184.2565  158.6971 C   0  0  0  0  0  0  0  0  0  0  0  0
  194.6520  184.2461  159.0433 C   0  0  0  0  0  0  0  0  0  0  0  0
  194.2187  185.0305  160.1412 C   0  0  0  0  0  0  0  0  0  0  0  0
  195.1210  185.8871  160.8000 C   0  0  0  0  0  0  0  0  0  0  0  0
  194.6797  186.6535  161.9012 N   0  0  0  0  0  0  0  0  0  0  0  0
  193.2560  186.7782  162.1553 C   0  0  2  0  0  0  0  0  0  0  0  0
  196.4519  185.9241  160.4376 C   0  0  0  0  0  0  0  0  0  0  0  0
  196.9049  184.9796  159.4902 C   0  0  0  0  0  0  0  0  0  0  0  0
  196.4740  182.0020  157.9075 C   0  0  2  0  0  0  0  0  0  0  0  0
  197.9180  185.4246  156.8853 C   0  0  1  0  0  0  0  0  0  0  0  0
  197.9451  181.9405  155.3912 C   0  0  0  0  0  0  0  0  0  0  0  0
  197.2201  181.2370  154.4219 C   0  0  0  0  0  0  0  0  0  0  0  0
  197.2799  179.8349  154.3850 C   0  0  0  0  0  0  0  0  0  0  0  0
  198.0527  179.1358  155.3296 C   0  0  0  0  0  0  0  0  0  0  0  0
  198.7710  179.8368  156.3171 C   0  0  0  0  0  0  0  0  0  0  0  0
  198.7559  181.2349  156.3353 C   0  0  0  0  0  0  0  0  0  0  0  0
  197.6656  187.0366  154.0572 H   0  0  0  0  0  0  0  0  0  0  0  0
  200.1368  182.2175  154.5556 H   0  0  0  0  0  0  0  0  0  0  0  0
  201.9668  183.1470  153.2599 H   0  0  0  0  0  0  0  0  0  0  0  0
  201.9407  185.5448  152.5939 H   0  0  0  0  0  0  0  0  0  0  0  0
  200.0620  187.0093  153.2789 H   0  0  0  0  0  0  0  0  0  0  0  0
  196.9287  183.7286  154.9084 H   0  0  0  0  0  0  0  0  0  0  0  0
  195.6691  183.5171  156.6685 H   0  0  0  0  0  0  0  0  0  0  0  0
  193.9319  183.6164  158.5279 H   0  0  0  0  0  0  0  0  0  0  0  0
  193.1993  184.9702  160.4399 H   0  0  0  0  0  0  0  0  0  0  0  0
  195.3432  187.1809  162.4452 H   0  0  0  0  0  0  0  0  0  0  0  0
  193.0943  187.4314  163.0049 H   0  0  0  0  0  0  0  0  0  0  0  0
  192.8090  185.8116  162.3831 H   0  0  0  0  0  0  0  0  0  0  0  0
  192.7443  187.1994  161.2892 H   0  0  0  0  0  0  0  0  0  0  0  0
  197.1998  186.5792  160.8566 H   0  0  0  0  0  0  0  0  0  0  0  0
  197.9474  185.0683  159.2423 H   0  0  0  0  0  0  0  0  0  0  0  0
  195.5578  181.6956  158.3889 H   0  0  0  0  0  0  0  0  0  0  0  0
  197.3112  181.8068  158.5790 H   0  0  0  0  0  0  0  0  0  0  0  0
  196.5007  181.2729  157.1083 H   0  0  0  0  0  0  0  0  0  0  0  0
  198.9329  185.6669  157.2234 H   0  0  0  0  0  0  0  0  0  0  0  0
  197.3309  185.9373  157.5731 H   0  0  0  0  0  0  0  0  0  0  0  0
  196.6133  181.7750  153.7050 H   0  0  0  0  0  0  0  0  0  0  0  0
  196.7347  179.2978  153.6293 H   0  0  0  0  0  0  0  0  0  0  0  0
  198.0917  178.0586  155.3108 H   0  0  0  0  0  0  0  0  0  0  0  0
  199.3296  179.2983  157.0709 H   0  0  0  0  0  0  0  0  0  0  0  0
  199.2367  181.7649  157.1459 H   0  0  0  0  0  0  0  0  0  0  0  0
  1  2  2  0
  2  3  1  0
  2 22  1  0
  3  4  1  0
  3 29  1  0
  4  5  1  0
  4  9  2  0
  5  6  2  0
  5 10  1  0
  6  7  1  0
  6 30  1  0
  7  8  2  0
  7 31  1  0
  8  9  1  0
  8 32  1  0
  9 33  1  0
 10 11  1  0
 10 23  1  0
 10 34  1  6
 11 12  1  0
 11 22  1  0
 12 13  1  0
 12 21  1  0
 12 35  1  6
 13 14  1  0
 13 20  2  0
 14 15  2  0
 14 36  1  0
 15 16  1  0
 15 37  1  0
 16 17  1  0
 16 19  2  0
 17 18  1  0
 17 38  1  0
 18 39  1  1
 18 40  1  0
 18 41  1  0
 19 20  1  0
 19 42  1  0
 20 43  1  0
 21 44  1  1
 21 45  1  0
 21 46  1  0
 22 47  1  1
 22 48  1  0
 23 24  2  0
 23 28  1  0
 24 25  1  0
 24 49  1  0
 25 26  2  0
 25 50  1  0
 26 27  1  0
 26 51  1  0
 27 28  2  0
 27 52  1  0
 28 53  1  0
M  END
>  <s_epik_cmdline>  (1307) 
J2VwaWtfcHl0aG9uJywgJy1waCcsICc3LjAwMDAwMCcsICctcGh0JywgJzIuMDAwMDAwJywgJy1tcycsICcxNicsICctdG4nLCAnOCcsICctbWEnLCAnMjAwJywgJy1pbWFlJywgJzxpbmZpbGUubWFlPicsICctb21hZScsICc8b3V0ZmlsZS5tYWU+Jw==

>  <s_epik_input>  (1307) 
W2NIXTFbY0hdW2NIXVtjSF1bY0hdYzFbQ0BIXShjKGMyMylbY0hdW2NIXVtjSF1bY0hdMylOKFtDSDJdQyg9TylbTkhdMilbQ0BASF0oW0NIM10pYzRbY0hdW2NIXWMoW05IXVtDSDNdKVtjSF1bY0hdNA==

>  <s_i_glide_gridfile>  (1307) 
ATP-Grid

>  <s_lp_Force_Field>  (1307) 
OPLS_2005

>  <s_lp_Variant>  (1307) 
rxn207____EMOL11537876____EMOL6185419-3

>  <s_lp_label>  (1307) 
2202_sdstereoexpander_5_neutralizer_1_epik_1_stereoizer_1

>  <s_m_source_file>  (1307) 
ATP-VSW-LIGPREP-003-in.maegz

>  <s_sd_BIOSOLVEIT.INFINISEE\_QUERY\_NAME>  (1307) 
Ref-Lig

>  <s_sd_BIOSOLVEIT.INFINISEE\_QUERY\_SMILES>  (1307) 
S(c1nc2c(cc1C[NH2+]Cc3ccc(cc3)C[NH+](C)C)cccc2)Cc4ccccc4

>  <s_sd_BIOSOLVEIT.INFINISEE\_REACTION\_NAME>  (1307) 
rxn207

>  <s_sd_BIOSOLVEIT.INFINISEE\_REAGENT1\_NAME>  (1307) 
EMOL11537876

>  <s_sd_BIOSOLVEIT.INFINISEE\_REAGENT1\_SMILES>  (1307) 
O=C(c1ccc(NC)cc1)C

>  <s_sd_BIOSOLVEIT.INFINISEE\_REAGENT2\_NAME>  (1307) 
EMOL6185419

>  <s_sd_BIOSOLVEIT.INFINISEE\_REAGENT2\_SMILES>  (1307) 
O=C1Nc2c(cccc2)C(NC1)c3ccccc3

>  <s_sd_BIOSOLVEIT.INFINISEE\_SPACE>  (1307) 
eXplore_7tr_2022-12

>  <s_vsw_compound_code>  (1307) 
70435

>  <s_vsw_variant>  (1307) 
70435-3

>  <r_epik_Charging_Adjusted_Penalty>  (1307) 
0.013981176425258399

>  <r_epik_Ionization_Penalty>  (1307) 
0.0178

>  <r_epik_Ionization_Penalty_Charging>  (1307) 
0

>  <r_epik_Ionization_Penalty_Neutral>  (1307) 
0.0178

>  <r_epik_State_Penalty>  (1307) 
0.014

>  <r_i_docking_score>  (1307) 
-2.3952710659089198

>  <r_i_glide_ecoul>  (1307) 
-4.5281434059143102

>  <r_i_glide_eff_state_penalty>  (1307) 
0.014

>  <r_i_glide_einternal>  (1307) 
5.74731349945068

>  <r_i_glide_emodel>  (1307) 
-34.6736942279638

>  <r_i_glide_energy>  (1307) 
-32.520752429962201

>  <r_i_glide_erotb>  (1307) 
0.41966185557728902

>  <r_i_glide_esite>  (1307) 
-0.012608268009958099

>  <r_i_glide_evdw>  (1307) 
-27.992609024047901

>  <r_i_glide_gscore>  (1307) 
-2.40927106590892

>  <r_i_glide_hbond>  (1307) 
-0.46806155905249802

>  <r_i_glide_ligand_efficiency>  (1307) 
-0.085545395211033007

>  <r_i_glide_ligand_efficiency_ln>  (1307) 
-0.55289889022622696

>  <r_i_glide_ligand_efficiency_sa>  (1307) 
-0.259766203404037

>  <r_i_glide_lipo>  (1307) 
-1.1873706015300001

>  <r_i_glide_metal>  (1307) 
-0

>  <r_i_glide_rewards>  (1307) 
0.91795946919578197

>  <r_lp_Energy>  (1307) 
43.738047999999999

>  <r_qp_ACxDN^.5/SA>  (1307) 
0.011680100000000001

>  <r_qp_CIQPlogS>  (1307) 
-4.4139999999999997

>  <r_qp_EA(eV)>  (1307) 
0.218

>  <r_qp_FISA>  (1307) 
75.731999999999999

>  <r_qp_FOSA>  (1307) 
168.55799999999999

>  <r_qp_IP(eV)>  (1307) 
7.931

>  <r_qp_Jm>  (1307) 
0.0056511174385045996

>  <r_qp_PISA>  (1307) 
421.64699999999999

>  <r_qp_PSA>  (1307) 
54.777999999999999

>  <r_qp_PercentHumanOralAbsorption>  (1307) 
100

>  <r_qp_QPPCaco>  (1307) 
472.75299999999999

>  <r_qp_QPPMDCK>  (1307) 
243.52799999999999

>  <r_qp_QPlogBB>  (1307) 
0.042000000000000003

>  <r_qp_QPlogHERG>  (1307) 
-7.0780000000000003

>  <r_qp_QPlogKhsa>  (1307) 
0.68000000000000005

>  <r_qp_QPlogKp>  (1307) 
-3.2040000000000002

>  <r_qp_QPlogPC16>  (1307) 
13.455

>  <r_qp_QPlogPo/w>  (1307) 
3.8969999999999998

>  <r_qp_QPlogPoct>  (1307) 
20.824000000000002

>  <r_qp_QPlogPw>  (1307) 
12.390000000000001

>  <r_qp_QPlogS>  (1307) 
-4.6130000000000004

>  <r_qp_QPpolrz>  (1307) 
44.524999999999999

>  <r_qp_SASA>  (1307) 
665.93600000000004

>  <r_qp_SAamideO>  (1307) 
0

>  <r_qp_SAfluorine>  (1307) 
0

>  <r_qp_WPSA>  (1307) 
0

>  <r_qp_accptHB>  (1307) 
5.5

>  <r_qp_dip^2/V>  (1307) 
0.0071158000000000002

>  <r_qp_dipole>  (1307) 
2.9390000000000001

>  <r_qp_donorHB>  (1307) 
2

>  <r_qp_glob>  (1307) 
0.82638089999999997

>  <r_qp_mol_MW>  (1307) 
371.48099999999999

>  <r_qp_volume>  (1307) 
1213.8689999999999

>  <r_sd_BIOSOLVEIT.INFINISEE\_FTREES\_SIMILARITY>  (1307) 
0.93200000000000005

>  <r_sd_BIOSOLVEIT.LOGP>  (1307) 
3.4159000000000002

>  <r_sd_BIOSOLVEIT.MOLECULAR\_WEIGHT>  (1307) 
372.48899999999998

>  <r_sd_BIOSOLVEIT.TPSA>  (1307) 
45.57

>  <i_epik_Tot_Q>  (1307) 
0

>  <i_epik_Tot_abs_Q>  (1307) 
0

>  <i_f3d_flags>  (1307) 
0

>  <i_i_glide_confnum>  (1307) 
1

>  <i_i_glide_lignum>  (1307) 
853

>  <i_i_glide_posenum>  (1307) 
1

>  <i_i_glide_rotatable_bonds>  (1307) 
4

>  <i_lp_mmshare_version>  (1307) 
65135

>  <i_m_ct_format>  (1307) 
2

>  <i_m_source_file_index>  (1307) 
2202

>  <i_qp_#NandO>  (1307) 
4

>  <i_qp_#acid>  (1307) 
0

>  <i_qp_#amide>  (1307) 
0

>  <i_qp_#amidine>  (1307) 
0

>  <i_qp_#amine>  (1307) 
1

>  <i_qp_#in34>  (1307) 
0

>  <i_qp_#in56>  (1307) 
18

>  <i_qp_#metab>  (1307) 
10

>  <i_qp_#nonHatm>  (1307) 
28

>  <i_qp_#noncon>  (1307) 
2

>  <i_qp_#ringatoms>  (1307) 
23

>  <i_qp_#rotor>  (1307) 
3

>  <i_qp_#rtvFG>  (1307) 
0

>  <i_qp_#stars>  (1307) 
1

>  <i_qp_CNS>  (1307) 
1

>  <i_qp_HumanOralAbsorption>  (1307) 
1

>  <i_qp_RuleOfFive>  (1307) 
0

>  <i_qp_RuleOfThree>  (1307) 
1

>  <i_sd_BIOSOLVEIT.INFINISEE\_RESULT\_RANK>  (1307) 
3919

>  <i_sd_version>  (1307) 
0

>  <b_lp_Chiralities_Consistent>  (1307) 
1

>  <b_sd_chiral_flag>  (1307) 
0

>  <canonical_id>  (1307) 
ATP-HTVS-CE0C62FD8EFC

>  <compound_code>  (1307) 
70435

>  <title>  (1307) 
rxn207____EMOL11537876____EMOL6185419

>  <variant>  (1307) 
70435-3

>  <source_file>  (1307) 
运行/运行/ATP-VSW/ATP-VSW-DOCK_HTVS_1-003_lib/ATP-VSW-DOCK_HTVS_1-003_lib.mae

>  <canonical_smiles>  (1307) 
CNc1ccc([C@H](C)N2CC(=O)Nc3ccccc3[C@H]2c2ccccc2)cc1

>  <scaffold>  (1307) 
O=C1CN(Cc2ccccc2)C(c2ccccc2)c2ccccc2N1

>  <molecular_formula>  (1307) 
C24H25N3O

$$$$
ATP-HTVS-CE22382A0684
     RDKit          3D

 50 53  0  0  0  0  0  0  0  0999 V2000
  193.1024  187.0418  162.1569 S   0  0  0  0  0  0  0  0  0  0  0  0
  194.4690  186.6423  161.1684 C   0  0  0  0  0  0  0  0  0  0  0  0
  195.5523  187.5383  161.0628 C   0  0  0  0  0  0  0  0  0  0  0  0
  196.6663  187.2024  160.2693 C   0  0  0  0  0  0  0  0  0  0  0  0
  196.7087  185.9737  159.5830 C   0  0  0  0  0  0  0  0  0  0  0  0
  195.6126  185.0864  159.6723 C   0  0  0  0  0  0  0  0  0  0  0  0
  194.4903  185.4344  160.4480 C   0  0  0  0  0  0  0  0  0  0  0  0
  197.9517  185.5779  158.8038 C   0  0  1  0  0  0  0  0  0  0  0  0
  197.7120  185.5106  157.2935 C   0  0  0  0  0  0  0  0  0  0  0  0
  197.4914  186.5470  156.6638 O   0  0  0  0  0  0  0  0  0  0  0  0
  197.7734  184.2803  156.7504 N   0  0  0  0  0  0  0  0  0  0  0  0
  197.9914  183.9066  155.3938 C   0  0  0  0  0  0  0  0  0  0  0  0
  198.2653  184.8236  154.4377 N   0  0  0  0  0  0  0  0  0  0  0  0
  198.5229  184.4237  153.1809 C   0  0  0  0  0  0  0  0  0  0  0  0
  198.5165  183.0757  152.7653 C   0  0  0  0  0  0  0  0  0  0  0  0
  198.8354  182.7501  151.4262 N   0  0  0  0  0  0  0  0  0  0  0  0
  198.2893  183.3760  150.2782 C   0  0  0  0  0  0  0  0  0  0  0  0
  198.9322  183.3197  149.0113 C   0  0  0  0  0  0  0  0  0  0  0  0
  198.3725  183.9457  147.8834 C   0  0  0  0  0  0  0  0  0  0  0  0
  197.1581  184.6369  147.9943 C   0  0  0  0  0  0  0  0  0  0  0  0
  196.5051  184.7059  149.2389 C   0  0  0  0  0  0  0  0  0  0  0  0
  197.0585  184.0696  150.3683 C   0  0  0  0  0  0  0  0  0  0  0  0
  200.1004  182.0215  151.2741 C   0  0  1  0  0  0  0  0  0  0  0  0
  201.2526  182.9378  151.2169 C   0  0  0  0  0  0  0  0  0  0  0  0
  202.1560  183.6591  151.1750 N   0  0  0  0  0  0  0  0  0  0  0  0
  198.2275  182.0984  153.7519 C   0  0  0  0  0  0  0  0  0  0  0  0
  197.9858  182.5139  155.0923 C   0  0  0  0  0  0  0  0  0  0  0  0
  197.7489  181.5286  156.0854 C   0  0  0  0  0  0  0  0  0  0  0  0
  197.7532  180.1643  155.7522 C   0  0  0  0  0  0  0  0  0  0  0  0
  197.9690  179.7555  154.4286 C   0  0  0  0  0  0  0  0  0  0  0  0
  198.1893  180.7200  153.4303 C   0  0  0  0  0  0  0  0  0  0  0  0
  195.5487  188.4799  161.5929 H   0  0  0  0  0  0  0  0  0  0  0  0
  197.5018  187.8900  160.2209 H   0  0  0  0  0  0  0  0  0  0  0  0
  195.6276  184.1380  159.1554 H   0  0  0  0  0  0  0  0  0  0  0  0
  193.6599  184.7473  160.4974 H   0  0  0  0  0  0  0  0  0  0  0  0
  198.7531  186.2934  158.9875 H   0  0  0  0  0  0  0  0  0  0  0  0
  198.3083  184.6209  159.1821 H   0  0  0  0  0  0  0  0  0  0  0  0
  197.8032  183.5222  157.4126 H   0  0  0  0  0  0  0  0  0  0  0  0
  198.7583  185.2169  152.4857 H   0  0  0  0  0  0  0  0  0  0  0  0
  199.8732  182.8147  148.8589 H   0  0  0  0  0  0  0  0  0  0  0  0
  198.8781  183.8881  146.9329 H   0  0  0  0  0  0  0  0  0  0  0  0
  196.7432  185.1259  147.1259 H   0  0  0  0  0  0  0  0  0  0  0  0
  195.5683  185.2430  149.3168 H   0  0  0  0  0  0  0  0  0  0  0  0
  196.5260  184.1297  151.3091 H   0  0  0  0  0  0  0  0  0  0  0  0
  200.3125  181.3658  152.1158 H   0  0  0  0  0  0  0  0  0  0  0  0
  200.0843  181.3761  150.3932 H   0  0  0  0  0  0  0  0  0  0  0  0
  197.5621  181.7738  157.1200 H   0  0  0  0  0  0  0  0  0  0  0  0
  197.5595  179.4282  156.5210 H   0  0  0  0  0  0  0  0  0  0  0  0
  197.9483  178.7066  154.1822 H   0  0  0  0  0  0  0  0  0  0  0  0
  198.3380  180.3838  152.4154 H   0  0  0  0  0  0  0  0  0  0  0  0
  1  2  1  0
  2  3  1  0
  2  7  2  0
  3  4  2  0
  3 32  1  0
  4  5  1  0
  4 33  1  0
  5  6  2  0
  5  8  1  0
  6  7  1  0
  6 34  1  0
  7 35  1  0
  8  9  1  0
  8 36  1  6
  8 37  1  0
  9 10  2  0
  9 11  1  0
 11 12  1  0
 11 38  1  0
 12 13  1  0
 12 27  2  0
 13 14  2  0
 14 15  1  0
 14 39  1  0
 15 16  1  0
 15 26  2  0
 16 17  1  0
 16 23  1  0
 17 18  2  0
 17 22  1  0
 18 19  1  0
 18 40  1  0
 19 20  2  0
 19 41  1  0
 20 21  1  0
 20 42  1  0
 21 22  2  0
 21 43  1  0
 22 44  1  0
 23 24  1  0
 23 45  1  1
 23 46  1  0
 24 25  3  0
 26 27  1  0
 26 31  1  0
 27 28  1  0
 28 29  2  0
 28 47  1  0
 29 30  1  0
 29 48  1  0
 30 31  2  0
 30 49  1  0
 31 50  1  0
M  CHG  1   1  -1
M  END
>  <s_epik_cmdline>  (1308) 
J2VwaWtfcHl0aG9uJywgJy1waCcsICc3LjAwMDAwMCcsICctcGh0JywgJzIuMDAwMDAwJywgJy1tcycsICcxNicsICctdG4nLCAnOCcsICctbWEnLCAnMjAwJywgJy1pbWFlJywgJzxpbmZpbGUubWFlPicsICctb21hZScsICc8b3V0ZmlsZS5tYWU+Jw==

>  <s_epik_input>  (1308) 
W1NIXWMxW2NIXVtjSF1jKFtjSF1bY0hdMSlbQ0gyXUMoPU8pW05IXWMoYyhjMjMpW2NIXVtjSF1bY0hdW2NIXTMpbltjSF1jMk4oW0NIMl1DI04pYzRbY0hdW2NIXVtjSF1bY0hdW2NIXTQ=

>  <s_i_glide_gridfile>  (1308) 
ATP-Grid

>  <s_lp_Force_Field>  (1308) 
OPLS_2005

>  <s_lp_Variant>  (1308) 
rxn502b____EMOL527437____EMOL7515103____EMOL712348-1

>  <s_lp_label>  (1308) 
2339_sdstereoexpander_1_neutralizer_1_epik_1_stereoizer_1

>  <s_m_source_file>  (1308) 
ATP-VSW-LIGPREP-001-in.maegz

>  <s_sd_BIOSOLVEIT.INFINISEE\_QUERY\_NAME>  (1308) 
Ref-Lig

>  <s_sd_BIOSOLVEIT.INFINISEE\_QUERY\_SMILES>  (1308) 
S(c1nc2c(cc1C[NH2+]Cc3ccc(cc3)C[NH+](C)C)cccc2)Cc4ccccc4

>  <s_sd_BIOSOLVEIT.INFINISEE\_REACTION\_NAME>  (1308) 
rxn502b

>  <s_sd_BIOSOLVEIT.INFINISEE\_REAGENT1\_NAME>  (1308) 
EMOL527437

>  <s_sd_BIOSOLVEIT.INFINISEE\_REAGENT1\_SMILES>  (1308) 
Sc1ccc(cc1)CC(=O)O

>  <s_sd_BIOSOLVEIT.INFINISEE\_REAGENT2\_NAME>  (1308) 
EMOL7515103

>  <s_sd_BIOSOLVEIT.INFINISEE\_REAGENT2\_SMILES>  (1308) 
Brc1c2c(c(nc1)N)cccc2

>  <s_sd_BIOSOLVEIT.INFINISEE\_REAGENT3\_NAME>  (1308) 
EMOL712348

>  <s_sd_BIOSOLVEIT.INFINISEE\_REAGENT3\_SMILES>  (1308) 
N#CCNc1ccccc1

>  <s_sd_BIOSOLVEIT.INFINISEE\_SPACE>  (1308) 
eXplore_7tr_2022-12

>  <s_vsw_compound_code>  (1308) 
74817

>  <s_vsw_variant>  (1308) 
74817-1

>  <r_epik_Charging_Adjusted_Penalty>  (1308) 
0.13291232759490201

>  <r_epik_Ionization_Penalty>  (1308) 
0.072999999999999995

>  <r_epik_Ionization_Penalty_Charging>  (1308) 
0.066500000000000004

>  <r_epik_Ionization_Penalty_Neutral>  (1308) 
0.0066

>  <r_epik_State_Penalty>  (1308) 
0.066500000000000004

>  <r_i_docking_score>  (1308) 
-3.4320166164653299

>  <r_i_glide_ecoul>  (1308) 
-1.3405634164810201

>  <r_i_glide_eff_state_penalty>  (1308) 
0.066500000000000004

>  <r_i_glide_einternal>  (1308) 
3.59302806854248

>  <r_i_glide_emodel>  (1308) 
-38.804689135061501

>  <r_i_glide_energy>  (1308) 
-32.259928345680201

>  <r_i_glide_erotb>  (1308) 
0.55251795857730401

>  <r_i_glide_esite>  (1308) 
-0.00470363534629498

>  <r_i_glide_evdw>  (1308) 
-30.919364929199201

>  <r_i_glide_gscore>  (1308) 
-3.4985166164653299

>  <r_i_glide_hbond>  (1308) 
0

>  <r_i_glide_ligand_efficiency>  (1308) 
-0.110710213434365

>  <r_i_glide_ligand_efficiency_ln>  (1308) 
-0.77402492569074499

>  <r_i_glide_ligand_efficiency_sa>  (1308) 
-0.347782922106743

>  <r_i_glide_lipo>  (1308) 
-1.7206143888754699

>  <r_i_glide_metal>  (1308) 
-0

>  <r_i_glide_rewards>  (1308) 
-0.57866379188875305

>  <r_lp_Energy>  (1308) 
29.264918999999999

>  <r_qp_ACxDN^.5/SA>  (1308) 
0.011446100000000001

>  <r_qp_CIQPlogS>  (1308) 
-7.718

>  <r_qp_EA(eV)>  (1308) 
1.3360000000000001

>  <r_qp_FISA>  (1308) 
122.527

>  <r_qp_FOSA>  (1308) 
74.353999999999999

>  <r_qp_IP(eV)>  (1308) 
8.3550000000000004

>  <r_qp_Jm>  (1308) 
0.0020977385807825701

>  <r_qp_PISA>  (1308) 
435.51100000000002

>  <r_qp_PSA>  (1308) 
72.710999999999999

>  <r_qp_PercentHumanOralAbsorption>  (1308) 
100

>  <r_qp_QPPCaco>  (1308) 
682.30100000000004

>  <r_qp_QPPMDCK>  (1308) 
800.28499999999997

>  <r_qp_QPlogBB>  (1308) 
-0.95899999999999996

>  <r_qp_QPlogHERG>  (1308) 
-6.5190000000000001

>  <r_qp_QPlogKhsa>  (1308) 
0.61799999999999999

>  <r_qp_QPlogKp>  (1308) 
-1.4750000000000001

>  <r_qp_QPlogPC16>  (1308) 
15.16

>  <r_qp_QPlogPo/w>  (1308) 
4.7709999999999999

>  <r_qp_QPlogPoct>  (1308) 
22.486999999999998

>  <r_qp_QPlogPw>  (1308) 
12.013999999999999

>  <r_qp_QPlogS>  (1308) 
-6.8310000000000004

>  <r_qp_QPpolrz>  (1308) 
44.994

>  <r_qp_SASA>  (1308) 
703.28399999999999

>  <r_qp_SAamideO>  (1308) 
0

>  <r_qp_SAfluorine>  (1308) 
0

>  <r_qp_WPSA>  (1308) 
70.891999999999996

>  <r_qp_accptHB>  (1308) 
6

>  <r_qp_dip^2/V>  (1308) 
0.085469000000000003

>  <r_qp_dipole>  (1308) 
10.551

>  <r_qp_donorHB>  (1308) 
1.8

>  <r_qp_glob>  (1308) 
0.820133

>  <r_qp_mol_MW>  (1308) 
424.51900000000001

>  <r_qp_volume>  (1308) 
1302.4929999999999

>  <r_sd_BIOSOLVEIT.INFINISEE\_FTREES\_SIMILARITY>  (1308) 
0.92100000000000004

>  <r_sd_BIOSOLVEIT.LOGP>  (1308) 
5.7465799999999998

>  <r_sd_BIOSOLVEIT.MOLECULAR\_WEIGHT>  (1308) 
424.52499999999998

>  <r_sd_BIOSOLVEIT.TPSA>  (1308) 
69.019999999999996

>  <i_epik_Tot_Q>  (1308) 
-1

>  <i_epik_Tot_abs_Q>  (1308) 
1

>  <i_f3d_flags>  (1308) 
0

>  <i_i_glide_confnum>  (1308) 
4

>  <i_i_glide_lignum>  (1308) 
842

>  <i_i_glide_posenum>  (1308) 
9

>  <i_i_glide_rotatable_bonds>  (1308) 
7

>  <i_lp_mmshare_version>  (1308) 
65135

>  <i_m_ct_format>  (1308) 
2

>  <i_m_source_file_index>  (1308) 
2339

>  <i_qp_#NandO>  (1308) 
5

>  <i_qp_#acid>  (1308) 
0

>  <i_qp_#amide>  (1308) 
0

>  <i_qp_#amidine>  (1308) 
0

>  <i_qp_#amine>  (1308) 
0

>  <i_qp_#in34>  (1308) 
0

>  <i_qp_#in56>  (1308) 
22

>  <i_qp_#metab>  (1308) 
6

>  <i_qp_#nonHatm>  (1308) 
31

>  <i_qp_#noncon>  (1308) 
0

>  <i_qp_#ringatoms>  (1308) 
22

>  <i_qp_#rotor>  (1308) 
8

>  <i_qp_#rtvFG>  (1308) 
1

>  <i_qp_#stars>  (1308) 
1

>  <i_qp_CNS>  (1308) 
-1

>  <i_qp_HumanOralAbsorption>  (1308) 
1

>  <i_qp_RuleOfFive>  (1308) 
0

>  <i_qp_RuleOfThree>  (1308) 
1

>  <i_sd_BIOSOLVEIT.INFINISEE\_RESULT\_RANK>  (1308) 
14952

>  <i_sd_version>  (1308) 
0

>  <b_lp_Chiralities_Consistent>  (1308) 
1

>  <b_sd_chiral_flag>  (1308) 
0

>  <canonical_id>  (1308) 
ATP-HTVS-CE22382A0684

>  <compound_code>  (1308) 
74817

>  <title>  (1308) 
rxn502b____EMOL527437____EMOL7515103____EMOL712348

>  <variant>  (1308) 
74817-1

>  <source_file>  (1308) 
运行/运行/ATP-VSW/ATP-VSW-DOCK_HTVS_1-001_lib/ATP-VSW-DOCK_HTVS_1-001_lib

>  <canonical_smiles>  (1308) 
N#CCN(c1ccccc1)c1cnc(NC(=O)Cc2ccc([S-])cc2)c2ccccc12

>  <scaffold>  (1308) 
O=C(Cc1ccccc1)Nc1ncc(Nc2ccccc2)c2ccccc12

>  <molecular_formula>  (1308) 
C25H19N4OS-

$$$$
ATP-HTVS-CE83EECF0A09
     RDKit          3D

 50 53  0  0  0  0  0  0  0  0999 V2000
  195.4379  187.4258  161.3267 Br  0  0  0  0  0  0  0  0  0  0  0  0
  195.6162  185.8010  160.3626 C   0  0  0  0  0  0  0  0  0  0  0  0
  194.4655  185.0557  160.0739 C   0  0  0  0  0  0  0  0  0  0  0  0
  194.5710  183.8629  159.3479 C   0  0  0  0  0  0  0  0  0  0  0  0
  195.8339  183.3914  158.9242 C   0  0  0  0  0  0  0  0  0  0  0  0
  196.9937  184.1371  159.2342 C   0  0  0  0  0  0  0  0  0  0  0  0
  196.8800  185.3503  159.9411 C   0  0  0  0  0  0  0  0  0  0  0  0
  195.9451  182.0907  158.1499 C   0  0  1  0  0  0  0  0  0  0  0  0
  194.7020  181.4474  158.0479 O   0  0  0  0  0  0  0  0  0  0  0  0
  196.5407  182.3181  156.7464 C   0  0  1  0  0  0  0  0  0  0  0  0
  196.6928  181.0630  156.0073 N   0  0  0  0  0  0  0  0  0  0  0  0
  197.8413  181.0242  155.1005 C   0  0  1  0  0  0  0  0  0  0  0  0
  197.7503  182.0043  153.9584 C   0  0  0  0  0  0  0  0  0  0  0  0
  198.3832  183.1817  153.9839 N   0  0  0  0  0  0  0  0  0  0  0  0
  198.0433  183.7447  152.7709 C   0  0  0  0  0  0  0  0  0  0  0  0
  197.1917  182.8830  152.0263 C   0  0  0  0  0  0  0  0  0  0  0  0
  197.0294  181.7575  152.8340 N   0  0  0  0  0  0  0  0  0  0  0  0
  196.2449  180.5766  152.5081 C   0  0  1  0  0  0  0  0  0  0  0  0
  196.9431  179.6990  151.4849 C   0  0  0  0  0  0  0  0  0  0  0  0
  196.5410  179.7292  150.1328 C   0  0  0  0  0  0  0  0  0  0  0  0
  197.1882  178.9176  149.1812 C   0  0  0  0  0  0  0  0  0  0  0  0
  198.2304  178.0598  149.5818 C   0  0  0  0  0  0  0  0  0  0  0  0
  198.6291  178.0205  150.9319 C   0  0  0  0  0  0  0  0  0  0  0  0
  197.9897  178.8408  151.8796 C   0  0  0  0  0  0  0  0  0  0  0  0
  196.7200  183.2453  150.7507 C   0  0  0  0  0  0  0  0  0  0  0  0
  197.1042  184.4793  150.1909 C   0  0  0  0  0  0  0  0  0  0  0  0
  197.9461  185.3485  150.9178 C   0  0  0  0  0  0  0  0  0  0  0  0
  198.4102  184.9846  152.1988 C   0  0  0  0  0  0  0  0  0  0  0  0
  196.6431  180.2479  156.6202 H   0  0  0  0  0  0  0  0  0  0  0  0
  193.4912  185.4011  160.3849 H   0  0  0  0  0  0  0  0  0  0  0  0
  193.6564  183.3374  159.1221 H   0  0  0  0  0  0  0  0  0  0  0  0
  197.9699  183.7848  158.9238 H   0  0  0  0  0  0  0  0  0  0  0  0
  197.7628  185.9291  160.1652 H   0  0  0  0  0  0  0  0  0  0  0  0
  196.6043  181.4299  158.7104 H   0  0  0  0  0  0  0  0  0  0  0  0
  194.8875  180.5084  157.9003 H   0  0  0  0  0  0  0  0  0  0  0  0
  195.9441  183.0201  156.1585 H   0  0  0  0  0  0  0  0  0  0  0  0
  197.5189  182.7909  156.8653 H   0  0  0  0  0  0  0  0  0  0  0  0
  198.7662  181.2202  155.6433 H   0  0  0  0  0  0  0  0  0  0  0  0
  197.9492  180.0207  154.6898 H   0  0  0  0  0  0  0  0  0  0  0  0
  196.0221  180.0090  153.4107 H   0  0  0  0  0  0  0  0  0  0  0  0
  195.2886  180.9041  152.1098 H   0  0  0  0  0  0  0  0  0  0  0  0
  195.7319  180.3715  149.8210 H   0  0  0  0  0  0  0  0  0  0  0  0
  196.8832  178.9514  148.1456 H   0  0  0  0  0  0  0  0  0  0  0  0
  198.7216  177.4296  148.8561 H   0  0  0  0  0  0  0  0  0  0  0  0
  199.4240  177.3611  151.2458 H   0  0  0  0  0  0  0  0  0  0  0  0
  198.3007  178.7993  152.9124 H   0  0  0  0  0  0  0  0  0  0  0  0
  196.0775  182.5781  150.2008 H   0  0  0  0  0  0  0  0  0  0  0  0
  196.7465  184.7620  149.2108 H   0  0  0  0  0  0  0  0  0  0  0  0
  198.2357  186.2947  150.4867 H   0  0  0  0  0  0  0  0  0  0  0  0
  199.0517  185.6526  152.7554 H   0  0  0  0  0  0  0  0  0  0  0  0
  1  2  1  0
  2  3  1  0
  2  7  2  0
  3  4  2  0
  3 30  1  0
  4  5  1  0
  4 31  1  0
  5  6  2  0
  5  8  1  0
  6  7  1  0
  6 32  1  0
  7 33  1  0
  8  9  1  0
  8 10  1  0
  8 34  1  1
  9 35  1  0
 10 11  1  0
 10 36  1  6
 10 37  1  0
 11 12  1  0
 11 29  1  0
 12 13  1  0
 12 38  1  1
 12 39  1  0
 13 14  2  0
 13 17  1  0
 14 15  1  0
 15 16  1  0
 15 28  2  0
 16 17  1  0
 16 25  2  0
 17 18  1  0
 18 19  1  0
 18 40  1  1
 18 41  1  0
 19 20  2  0
 19 24  1  0
 20 21  1  0
 20 42  1  0
 21 22  2  0
 21 43  1  0
 22 23  1  0
 22 44  1  0
 23 24  2  0
 23 45  1  0
 24 46  1  0
 25 26  1  0
 25 47  1  0
 26 27  2  0
 26 48  1  0
 27 28  1  0
 27 49  1  0
 28 50  1  0
M  END
>  <s_epik_cmdline>  (1309) 
J2VwaWtfcHl0aG9uJywgJy1waCcsICc3LjAwMDAwMCcsICctcGh0JywgJzIuMDAwMDAwJywgJy1tcycsICcxNicsICctdG4nLCAnOCcsICctbWEnLCAnMjAwJywgJy1pbWFlJywgJzxpbmZpbGUubWFlPicsICctb21hZScsICc8b3V0ZmlsZS5tYWU+Jw==

>  <s_epik_input>  (1309) 
QnJjMVtjSF1bY0hdYyhbY0hdW2NIXTEpW0NAQEhdKFtPSF0pW0NIMl1bTkhdW0NIMl1jKG4yKW4oYyhjMjMpW2NIXVtjSF1bY0hdW2NIXTMpW0NIMl1jNFtjSF1bY0hdW2NIXVtjSF1bY0hdNA==

>  <s_i_glide_gridfile>  (1309) 
ATP-Grid

>  <s_lp_Force_Field>  (1309) 
OPLS_2005

>  <s_lp_Variant>  (1309) 
m_270004bbb____24551606____24720860-1

>  <s_lp_label>  (1309) 
1181_sdstereoexpander_1_neutralizer_1_epik_1_stereoizer_1

>  <s_m_source_file>  (1309) 
ATP-VSW-LIGPREP-003-in.maegz

>  <s_sd_BIOSOLVEIT.INFINISEE\_QUERY\_NAME>  (1309) 
Ref-Lig

>  <s_sd_BIOSOLVEIT.INFINISEE\_QUERY\_SMILES>  (1309) 
S(c1nc2c(cc1C[NH2+]Cc3ccc(cc3)C[NH+](C)C)cccc2)Cc4ccccc4

>  <s_sd_BIOSOLVEIT.INFINISEE\_REACTION\_NAME>  (1309) 
m_270004bbb

>  <s_sd_BIOSOLVEIT.INFINISEE\_REAGENT1\_SMILES>  (1309) 
[R1*]NCC(O)c1ccc(Br)cc1

>  <s_sd_BIOSOLVEIT.INFINISEE\_REAGENT2\_SMILES>  (1309) 
[R1*]CC1=Nc2c(N1Cc3ccccc3)cccc2

>  <s_sd_BIOSOLVEIT.INFINISEE\_SPACE>  (1309) 
REALSpace_44bn_2023-08

>  <s_vsw_compound_code>  (1309) 
37763

>  <s_vsw_variant>  (1309) 
37763-1

>  <r_epik_Charging_Adjusted_Penalty>  (1309) 
0.39733023758657898

>  <r_epik_Ionization_Penalty>  (1309) 
0.44190000000000002

>  <r_epik_Ionization_Penalty_Charging>  (1309) 
0

>  <r_epik_Ionization_Penalty_Neutral>  (1309) 
0.44190000000000002

>  <r_epik_State_Penalty>  (1309) 
0.39729999999999999

>  <r_i_docking_score>  (1309) 
-5.2437526469637001

>  <r_i_glide_ecoul>  (1309) 
-9.15899753570557

>  <r_i_glide_eff_state_penalty>  (1309) 
0.39729999999999999

>  <r_i_glide_einternal>  (1309) 
9.3630313873290998

>  <r_i_glide_emodel>  (1309) 
-56.103594765389602

>  <r_i_glide_energy>  (1309) 
-44.192818641662598

>  <r_i_glide_erotb>  (1309) 
0.62812256313505799

>  <r_i_glide_esite>  (1309) 
-0.0287366070787652

>  <r_i_glide_evdw>  (1309) 
-35.033821105957003

>  <r_i_glide_gscore>  (1309) 
-5.6410526469636997

>  <r_i_glide_hbond>  (1309) 
-0.30399999999999999

>  <r_i_glide_ligand_efficiency>  (1309) 
-0.18727688024870401

>  <r_i_glide_ligand_efficiency_ln>  (1309) 
-1.2104120741870601

>  <r_i_glide_ligand_efficiency_sa>  (1309) 
-0.56868290861883697

>  <r_i_glide_lipo>  (1309) 
-2.3768816446390302

>  <r_i_glide_metal>  (1309) 
-0

>  <r_i_glide_rewards>  (1309) 
-0.434016272727272

>  <r_lp_Energy>  (1309) 
27.688472999999998

>  <r_qp_ACxDN^.5/SA>  (1309) 
0.0092201000000000002

>  <r_qp_CIQPlogS>  (1309) 
-6.3319999999999999

>  <r_qp_EA(eV)>  (1309) 
0.317

>  <r_qp_FISA>  (1309) 
70.236000000000004

>  <r_qp_FOSA>  (1309) 
92.105999999999995

>  <r_qp_IP(eV)>  (1309) 
8.5700000000000003

>  <r_qp_Jm>  (1309) 
0.0074993115541133696

>  <r_qp_PISA>  (1309) 
481.15800000000002

>  <r_qp_PSA>  (1309) 
48.436

>  <r_qp_PercentHumanOralAbsorption>  (1309) 
100

>  <r_qp_QPPCaco>  (1309) 
533.03099999999995

>  <r_qp_QPPMDCK>  (1309) 
736.02800000000002

>  <r_qp_QPlogBB>  (1309) 
-0.087999999999999995

>  <r_qp_QPlogHERG>  (1309) 
-8.0139999999999993

>  <r_qp_QPlogKhsa>  (1309) 
0.73399999999999999

>  <r_qp_QPlogKp>  (1309) 
-2.4129999999999998

>  <r_qp_QPlogPC16>  (1309) 
14.968999999999999

>  <r_qp_QPlogPo/w>  (1309) 
4.9370000000000003

>  <r_qp_QPlogPoct>  (1309) 
20.358000000000001

>  <r_qp_QPlogPw>  (1309) 
11.026

>  <r_qp_QPlogS>  (1309) 
-5.351

>  <r_qp_QPpolrz>  (1309) 
44.070999999999998

>  <r_qp_SASA>  (1309) 
720.90200000000004

>  <r_qp_SAamideO>  (1309) 
0

>  <r_qp_SAfluorine>  (1309) 
0

>  <r_qp_WPSA>  (1309) 
77.403000000000006

>  <r_qp_accptHB>  (1309) 
4.7000000000000002

>  <r_qp_dip^2/V>  (1309) 
0.0067000999999999996

>  <r_qp_dipole>  (1309) 
2.915

>  <r_qp_donorHB>  (1309) 
2

>  <r_qp_glob>  (1309) 
0.78611739999999997

>  <r_qp_mol_MW>  (1309) 
436.35000000000002

>  <r_qp_volume>  (1309) 
1268.5219999999999

>  <r_sd_BIOSOLVEIT.INFINISEE\_FTREES\_SIMILARITY>  (1309) 
0.91200000000000003

>  <r_sd_BIOSOLVEIT.LOGP>  (1309) 
3.6440999999999999

>  <r_sd_BIOSOLVEIT.MOLECULAR\_WEIGHT>  (1309) 
437.35899999999998

>  <r_sd_BIOSOLVEIT.TPSA>  (1309) 
54.659999999999997

>  <i_epik_Tot_Q>  (1309) 
0

>  <i_epik_Tot_abs_Q>  (1309) 
0

>  <i_f3d_flags>  (1309) 
0

>  <i_i_glide_confnum>  (1309) 
7

>  <i_i_glide_lignum>  (1309) 
469

>  <i_i_glide_posenum>  (1309) 
4

>  <i_i_glide_rotatable_bonds>  (1309) 
8

>  <i_lp_mmshare_version>  (1309) 
65135

>  <i_m_ct_format>  (1309) 
2

>  <i_m_source_file_index>  (1309) 
1181

>  <i_qp_#NandO>  (1309) 
4

>  <i_qp_#acid>  (1309) 
0

>  <i_qp_#amide>  (1309) 
0

>  <i_qp_#amidine>  (1309) 
0

>  <i_qp_#amine>  (1309) 
1

>  <i_qp_#in34>  (1309) 
0

>  <i_qp_#in56>  (1309) 
21

>  <i_qp_#metab>  (1309) 
4

>  <i_qp_#nonHatm>  (1309) 
28

>  <i_qp_#noncon>  (1309) 
0

>  <i_qp_#ringatoms>  (1309) 
21

>  <i_qp_#rotor>  (1309) 
8

>  <i_qp_#rtvFG>  (1309) 
0

>  <i_qp_#stars>  (1309) 
1

>  <i_qp_CNS>  (1309) 
1

>  <i_qp_HumanOralAbsorption>  (1309) 
3

>  <i_qp_RuleOfFive>  (1309) 
0

>  <i_qp_RuleOfThree>  (1309) 
0

>  <i_sd_BIOSOLVEIT.INFINISEE\_REAGENT1\_NAME>  (1309) 
24551606

>  <i_sd_BIOSOLVEIT.INFINISEE\_REAGENT2\_NAME>  (1309) 
24720860

>  <i_sd_BIOSOLVEIT.INFINISEE\_RESULT\_RANK>  (1309) 
38945

>  <i_sd_version>  (1309) 
0

>  <b_lp_Chiralities_Consistent>  (1309) 
1

>  <b_sd_chiral_flag>  (1309) 
0

>  <canonical_id>  (1309) 
ATP-HTVS-CE83EECF0A09

>  <compound_code>  (1309) 
37763

>  <title>  (1309) 
m_270004bbb____24551606____24720860

>  <variant>  (1309) 
37763-1

>  <source_file>  (1309) 
运行/运行/ATP-VSW/ATP-VSW-DOCK_HTVS_1-003_lib/ATP-VSW-DOCK_HTVS_1-003_lib.mae

>  <canonical_smiles>  (1309) 
O[C@@H](CNCc1nc2ccccc2n1Cc1ccccc1)c1ccc(Br)cc1

>  <scaffold>  (1309) 
c1ccc(CCNCc2nc3ccccc3n2Cc2ccccc2)cc1

>  <molecular_formula>  (1309) 
C23H22BrN3O

$$$$
ATP-HTVS-CE85F8224252
     RDKit          3D

 65 68  0  0  0  0  0  0  0  0999 V2000
  199.0548  179.1896  154.0473 S   0  0  0  0  0  0  0  0  0  0  0  0
  199.9441  178.0769  155.1022 C   0  0  0  0  0  0  0  0  0  0  0  0
  200.5436  176.9419  154.5166 C   0  0  0  0  0  0  0  0  0  0  0  0
  201.2682  176.0245  155.3095 C   0  0  0  0  0  0  0  0  0  0  0  0
  201.3766  176.2302  156.7007 C   0  0  0  0  0  0  0  0  0  0  0  0
  200.7665  177.3542  157.2929 C   0  0  0  0  0  0  0  0  0  0  0  0
  200.0668  178.2816  156.5000 C   0  0  0  0  0  0  0  0  0  0  0  0
  198.2882  180.4644  155.0719 C   0  0  1  0  0  0  0  0  0  0  0  0
  196.8960  180.9256  154.6207 C   0  0  1  0  0  0  0  0  0  0  0  0
  196.3490  181.9558  155.5436 N   0  0  1  0  0  0  0  0  0  0  0  0
  196.1545  181.5853  156.9657 C   0  0  1  0  0  0  0  0  0  0  0  0
  196.2149  182.8102  157.8587 C   0  0  0  0  0  0  0  0  0  0  0  0
  197.4611  183.4137  158.1382 C   0  0  0  0  0  0  0  0  0  0  0  0
  197.5388  184.5140  159.0145 C   0  0  0  0  0  0  0  0  0  0  0  0
  196.3658  185.0246  159.6066 C   0  0  0  0  0  0  0  0  0  0  0  0
  195.1216  184.4200  159.3327 C   0  0  0  0  0  0  0  0  0  0  0  0
  195.0490  183.3144  158.4606 C   0  0  0  0  0  0  0  0  0  0  0  0
  196.4491  186.2253  160.5335 C   0  0  1  0  0  0  0  0  0  0  0  0
  196.0054  187.4704  159.9154 N   0  0  0  0  0  0  0  0  0  0  0  0
  195.9734  188.5369  160.9235 C   0  0  2  0  0  0  0  0  0  0  0  0
  196.9044  187.8865  158.8429 C   0  0  2  0  0  0  0  0  0  0  0  0
  196.8902  181.3960  153.1853 C   0  0  0  0  0  0  0  0  0  0  0  0
  197.2864  182.6559  152.7359 N   0  0  0  0  0  0  0  0  0  0  0  0
  197.1756  182.6350  151.3172 C   0  0  0  0  0  0  0  0  0  0  0  0
  196.7447  181.4472  150.9027 N   0  0  0  0  0  0  0  0  0  0  0  0
  196.5809  180.6834  152.0492 C   0  0  0  0  0  0  0  0  0  0  0  0
  196.1470  179.2536  151.9278 C   0  0  2  0  0  0  0  0  0  0  0  0
  197.5249  183.8142  150.6041 C   0  0  0  0  0  0  0  0  0  0  0  0
  197.9441  184.9325  151.2874 C   0  0  0  0  0  0  0  0  0  0  0  0
  198.0356  184.9094  152.6950 C   0  0  0  0  0  0  0  0  0  0  0  0
  197.7302  183.7722  153.3987 C   0  0  0  0  0  0  0  0  0  0  0  0
  198.2852  186.2023  150.5497 C   0  0  2  0  0  0  0  0  0  0  0  0
  196.9526  182.7476  155.5298 H   0  0  0  0  0  0  0  0  0  0  0  0
  200.4543  176.7797  153.4521 H   0  0  0  0  0  0  0  0  0  0  0  0
  201.7412  175.1670  154.8455 H   0  0  0  0  0  0  0  0  0  0  0  0
  201.9342  175.5327  157.3127 H   0  0  0  0  0  0  0  0  0  0  0  0
  200.8459  177.5181  158.3580 H   0  0  0  0  0  0  0  0  0  0  0  0
  199.6480  179.1200  157.0314 H   0  0  0  0  0  0  0  0  0  0  0  0
  198.1409  180.0023  156.0298 H   0  0  0  0  0  0  0  0  0  0  0  0
  198.9883  181.2952  155.1673 H   0  0  0  0  0  0  0  0  0  0  0  0
  196.2252  180.0696  154.6861 H   0  0  0  0  0  0  0  0  0  0  0  0
  195.1859  181.0778  157.0493 H   0  0  0  0  0  0  0  0  0  0  0  0
  196.9206  180.9548  157.3887 H   0  0  0  0  0  0  0  0  0  0  0  0
  198.3743  183.0225  157.7080 H   0  0  0  0  0  0  0  0  0  0  0  0
  198.4993  184.9677  159.2301 H   0  0  0  0  0  0  0  0  0  0  0  0
  194.2155  184.8029  159.7874 H   0  0  0  0  0  0  0  0  0  0  0  0
  194.0959  182.8443  158.2611 H   0  0  0  0  0  0  0  0  0  0  0  0
  195.8085  186.0137  161.3861 H   0  0  0  0  0  0  0  0  0  0  0  0
  197.4591  186.3298  160.9062 H   0  0  0  0  0  0  0  0  0  0  0  0
  195.6078  189.4688  160.4798 H   0  0  0  0  0  0  0  0  0  0  0  0
  196.9612  188.7276  161.3470 H   0  0  0  0  0  0  0  0  0  0  0  0
  195.2893  188.2759  161.7338 H   0  0  0  0  0  0  0  0  0  0  0  0
  196.5428  188.8080  158.3829 H   0  0  0  0  0  0  0  0  0  0  0  0
  196.9491  187.1277  158.0583 H   0  0  0  0  0  0  0  0  0  0  0  0
  197.9131  188.0597  159.2160 H   0  0  0  0  0  0  0  0  0  0  0  0
  196.9204  178.5627  152.2677 H   0  0  0  0  0  0  0  0  0  0  0  0
  195.9279  178.9981  150.8877 H   0  0  0  0  0  0  0  0  0  0  0  0
  195.2520  179.0573  152.5155 H   0  0  0  0  0  0  0  0  0  0  0  0
  197.4487  183.8042  149.5228 H   0  0  0  0  0  0  0  0  0  0  0  0
  198.3468  185.7974  153.2375 H   0  0  0  0  0  0  0  0  0  0  0  0
  197.8350  183.7465  154.4748 H   0  0  0  0  0  0  0  0  0  0  0  0
  197.6757  187.0126  150.9397 H   0  0  0  0  0  0  0  0  0  0  0  0
  198.1020  186.1099  149.4770 H   0  0  0  0  0  0  0  0  0  0  0  0
  199.3369  186.4539  150.6991 H   0  0  0  0  0  0  0  0  0  0  0  0
  195.4268  182.2580  155.2181 H   0  0  0  0  0  0  0  0  0  0  0  0
  1  2  1  0
  1  8  1  0
  2  3  2  0
  2  7  1  0
  3  4  1  0
  3 34  1  0
  4  5  2  0
  4 35  1  0
  5  6  1  0
  5 36  1  0
  6  7  2  0
  6 37  1  0
  7 38  1  0
  8  9  1  0
  8 39  1  1
  8 40  1  0
  9 10  1  0
  9 22  1  0
  9 41  1  6
 10 11  1  0
 10 33  1  1
 10 65  1  0
 11 12  1  0
 11 42  1  6
 11 43  1  0
 12 13  1  0
 12 17  2  0
 13 14  2  0
 13 44  1  0
 14 15  1  0
 14 45  1  0
 15 16  2  0
 15 18  1  0
 16 17  1  0
 16 46  1  0
 17 47  1  0
 18 19  1  0
 18 48  1  1
 18 49  1  0
 19 20  1  0
 19 21  1  0
 20 50  1  6
 20 51  1  0
 20 52  1  0
 21 53  1  6
 21 54  1  0
 21 55  1  0
 22 23  1  0
 22 26  2  0
 23 24  1  0
 23 31  1  0
 24 25  2  0
 24 28  1  0
 25 26  1  0
 26 27  1  0
 27 56  1  1
 27 57  1  0
 27 58  1  0
 28 29  2  0
 28 59  1  0
 29 30  1  0
 29 32  1  0
 30 31  2  0
 30 60  1  0
 31 61  1  0
 32 62  1  1
 32 63  1  0
 32 64  1  0
M  CHG  1  10   1
M  END
>  <s_epik_cmdline>  (1310) 
J2VwaWtfcHl0aG9uJywgJy1waCcsICc3LjAwMDAwMCcsICctcGh0JywgJzIuMDAwMDAwJywgJy1tcycsICcxNicsICctdG4nLCAnOCcsICctbWEnLCAnMjAwJywgJy1pbWFlJywgJzxpbmZpbGUubWFlPicsICctb21hZScsICc8b3V0ZmlsZS5tYWU+Jw==

>  <s_epik_input>  (1310) 
W2NIXTFbY0hdW2NIXVtjSF1bY0hdYzFTW0NIMl1bQ0BIXShjMmMoW0NIM10pbmMobjIzKVtjSF1jKFtDSDNdKVtjSF1bY0hdMylbTkhdW0NIMl1jNFtjSF1bY0hdYyhbY0hdW2NIXTQpW0NIMl1OKFtDSDNdKVtDSDNd

>  <s_i_glide_gridfile>  (1310) 
ATP-Grid

>  <s_lp_Force_Field>  (1310) 
OPLS_2005

>  <s_lp_Variant>  (1310) 
rxn207____EMOL36800188____EMOL50155899-12

>  <s_lp_label>  (1310) 
2163_sdstereoexpander_2_neutralizer_1_epik_6_stereoizer_1

>  <s_m_source_file>  (1310) 
ATP-VSW-LIGPREP-001-in.maegz

>  <s_sd_BIOSOLVEIT.INFINISEE\_QUERY\_NAME>  (1310) 
Ref-Lig

>  <s_sd_BIOSOLVEIT.INFINISEE\_QUERY\_SMILES>  (1310) 
S(c1nc2c(cc1C[NH2+]Cc3ccc(cc3)C[NH+](C)C)cccc2)Cc4ccccc4

>  <s_sd_BIOSOLVEIT.INFINISEE\_REACTION\_NAME>  (1310) 
rxn207

>  <s_sd_BIOSOLVEIT.INFINISEE\_REAGENT1\_NAME>  (1310) 
EMOL36800188

>  <s_sd_BIOSOLVEIT.INFINISEE\_REAGENT1\_SMILES>  (1310) 
S(c1ccccc1)CC(=O)C=2N3C(=NC2C)C=C(C=C3)C

>  <s_sd_BIOSOLVEIT.INFINISEE\_REAGENT2\_NAME>  (1310) 
EMOL50155899

>  <s_sd_BIOSOLVEIT.INFINISEE\_REAGENT2\_SMILES>  (1310) 
N(Cc1ccc(cc1)CN)(C)C

>  <s_sd_BIOSOLVEIT.INFINISEE\_SPACE>  (1310) 
eXplore_7tr_2022-12

>  <s_vsw_compound_code>  (1310) 
69185

>  <s_vsw_variant>  (1310) 
69185-12

>  <r_epik_Charging_Adjusted_Penalty>  (1310) 
3.08073769716031

>  <r_epik_Ionization_Penalty>  (1310) 
2.0575999999999999

>  <r_epik_Ionization_Penalty_Charging>  (1310) 
0.61580000000000001

>  <r_epik_Ionization_Penalty_Neutral>  (1310) 
1.4419

>  <r_epik_State_Penalty>  (1310) 
2.4649999999999999

>  <r_i_docking_score>  (1310) 
-3.1199380224290301

>  <r_i_glide_ecoul>  (1310) 
-7.77663230895996

>  <r_i_glide_eff_state_penalty>  (1310) 
2.4649999999999999

>  <r_i_glide_einternal>  (1310) 
5.1366066932678196

>  <r_i_glide_emodel>  (1310) 
-72.307994363889506

>  <r_i_glide_energy>  (1310) 
-50.703329086303697

>  <r_i_glide_erotb>  (1310) 
0.70528910063974604

>  <r_i_glide_esite>  (1310) 
-0.098782074631387801

>  <r_i_glide_evdw>  (1310) 
-42.9266967773438

>  <r_i_glide_gscore>  (1310) 
-5.5849380224290304

>  <r_i_glide_hbond>  (1310) 
-0.20000000000000001

>  <r_i_glide_ligand_efficiency>  (1310) 
-0.097498063200907301

>  <r_i_glide_ligand_efficiency_ln>  (1310) 
-0.69863916952031002

>  <r_i_glide_ligand_efficiency_sa>  (1310) 
-0.30953705582237301

>  <r_i_glide_lipo>  (1310) 
-2.2863354913440701

>  <r_i_glide_metal>  (1310) 
-0

>  <r_i_glide_rewards>  (1310) 
-0.39227987188213498

>  <r_lp_Energy>  (1310) 
17.799783000000001

>  <r_qp_ACxDN^.5/SA>  (1310) 
0.0078743000000000007

>  <r_qp_CIQPlogS>  (1310) 
-5.2240000000000002

>  <r_qp_EA(eV)>  (1310) 
0.60399999999999998

>  <r_qp_FISA>  (1310) 
30.164999999999999

>  <r_qp_FOSA>  (1310) 
315.15100000000001

>  <r_qp_IP(eV)>  (1310) 
8.6150000000000002

>  <r_qp_Jm>  (1310) 
0.023186220706267201

>  <r_qp_PISA>  (1310) 
335.96300000000002

>  <r_qp_PSA>  (1310) 
32.289000000000001

>  <r_qp_PercentHumanOralAbsorption>  (1310) 
100

>  <r_qp_QPPCaco>  (1310) 
318.89100000000002

>  <r_qp_QPPMDCK>  (1310) 
218.66900000000001

>  <r_qp_QPlogBB>  (1310) 
0.58799999999999997

>  <r_qp_QPlogHERG>  (1310) 
-6.8609999999999998

>  <r_qp_QPlogKhsa>  (1310) 
0.93600000000000005

>  <r_qp_QPlogKp>  (1310) 
-4.1529999999999996

>  <r_qp_QPlogPC16>  (1310) 
13.913

>  <r_qp_QPlogPo/w>  (1310) 
4.8840000000000003

>  <r_qp_QPlogPoct>  (1310) 
19.917999999999999

>  <r_qp_QPlogPw>  (1310) 
8.7929999999999993

>  <r_qp_QPlogS>  (1310) 
-3.1299999999999999

>  <r_qp_QPpolrz>  (1310) 
46.619

>  <r_qp_SASA>  (1310) 
698.47199999999998

>  <r_qp_SAamideO>  (1310) 
0

>  <r_qp_SAfluorine>  (1310) 
0

>  <r_qp_WPSA>  (1310) 
17.193000000000001

>  <r_qp_accptHB>  (1310) 
5.5

>  <r_qp_dip^2/V>  (1310) 
0.0138502

>  <r_qp_dipole>  (1310) 
4.3760000000000003

>  <r_qp_donorHB>  (1310) 
1

>  <r_qp_glob>  (1310) 
0.85942180000000001

>  <r_qp_mol_MW>  (1310) 
444.637

>  <r_qp_volume>  (1310) 
1382.885

>  <r_sd_BIOSOLVEIT.INFINISEE\_FTREES\_SIMILARITY>  (1310) 
0.94199999999999995

>  <r_sd_BIOSOLVEIT.LOGP>  (1310) 
3.1926399999999999

>  <r_sd_BIOSOLVEIT.MOLECULAR\_WEIGHT>  (1310) 
446.65899999999999

>  <r_sd_BIOSOLVEIT.TPSA>  (1310) 
38.869999999999997

>  <i_epik_Tot_Q>  (1310) 
1

>  <i_epik_Tot_abs_Q>  (1310) 
1

>  <i_f3d_flags>  (1310) 
0

>  <i_i_glide_confnum>  (1310) 
7

>  <i_i_glide_lignum>  (1310) 
679

>  <i_i_glide_posenum>  (1310) 
2

>  <i_i_glide_rotatable_bonds>  (1310) 
9

>  <i_lp_mmshare_version>  (1310) 
65135

>  <i_m_ct_format>  (1310) 
2

>  <i_m_source_file_index>  (1310) 
2163

>  <i_qp_#NandO>  (1310) 
4

>  <i_qp_#acid>  (1310) 
0

>  <i_qp_#amide>  (1310) 
0

>  <i_qp_#amidine>  (1310) 
0

>  <i_qp_#amine>  (1310) 
2

>  <i_qp_#in34>  (1310) 
0

>  <i_qp_#in56>  (1310) 
21

>  <i_qp_#metab>  (1310) 
7

>  <i_qp_#nonHatm>  (1310) 
32

>  <i_qp_#noncon>  (1310) 
0

>  <i_qp_#ringatoms>  (1310) 
21

>  <i_qp_#rotor>  (1310) 
9

>  <i_qp_#rtvFG>  (1310) 
0

>  <i_qp_#stars>  (1310) 
0

>  <i_qp_CNS>  (1310) 
2

>  <i_qp_HumanOralAbsorption>  (1310) 
3

>  <i_qp_RuleOfFive>  (1310) 
0

>  <i_qp_RuleOfThree>  (1310) 
1

>  <i_sd_BIOSOLVEIT.INFINISEE\_RESULT\_RANK>  (1310) 
914

>  <i_sd_version>  (1310) 
0

>  <b_lp_Chiralities_Consistent>  (1310) 
1

>  <b_sd_chiral_flag>  (1310) 
0

>  <canonical_id>  (1310) 
ATP-HTVS-CE85F8224252

>  <compound_code>  (1310) 
69185

>  <title>  (1310) 
rxn207____EMOL36800188____EMOL50155899

>  <variant>  (1310) 
69185-12

>  <source_file>  (1310) 
运行/运行/ATP-VSW/ATP-VSW-DOCK_HTVS_1-001_lib/ATP-VSW-DOCK_HTVS_1-001_lib

>  <canonical_smiles>  (1310) 
Cc1ccn2c([C@@H](CSc3ccccc3)[NH2+]Cc3ccc(CN(C)C)cc3)c(C)nc2c1

>  <scaffold>  (1310) 
c1ccc(C[NH2+]C(CSc2ccccc2)c2cnc3ccccn23)cc1

>  <molecular_formula>  (1310) 
C27H33N4S+

$$$$
ATP-HTVS-CEA6734F7F3C
     RDKit          3D

 52 55  0  0  0  0  0  0  0  0999 V2000
  199.1701  184.3310  159.5359 F   0  0  0  0  0  0  0  0  0  0  0  0
  197.9677  183.9002  159.0872 C   0  0  0  0  0  0  0  0  0  0  0  0
  197.8192  183.3215  157.8012 C   0  0  0  0  0  0  0  0  0  0  0  0
  196.5452  182.8717  157.3854 C   0  0  0  0  0  0  0  0  0  0  0  0
  196.3488  182.2839  156.1273 N   0  0  0  0  0  0  0  0  0  0  0  0
  197.3271  182.1783  155.2805 C   0  0  0  0  0  0  0  0  0  0  0  0
  198.6532  182.6166  155.6192 N   0  0  0  0  0  0  0  0  0  0  0  0
  198.9597  183.1494  156.8380 C   0  0  0  0  0  0  0  0  0  0  0  0
  200.1013  183.4816  157.1634 O   0  0  0  0  0  0  0  0  0  0  0  0
  199.7372  182.4385  154.6179 C   0  0  1  0  0  0  0  0  0  0  0  0
  200.2022  180.9980  154.3717 C   0  0  0  0  0  0  0  0  0  0  0  0
  199.6460  179.9183  155.0820 C   0  0  0  0  0  0  0  0  0  0  0  0
  200.0162  178.5937  154.7861 C   0  0  0  0  0  0  0  0  0  0  0  0
  200.9920  178.3383  153.7864 C   0  0  0  0  0  0  0  0  0  0  0  0
  201.5952  179.4185  153.1065 C   0  0  0  0  0  0  0  0  0  0  0  0
  201.1924  180.7388  153.3850 C   0  0  0  0  0  0  0  0  0  0  0  0
  199.3411  177.4668  155.5512 C   0  0  1  0  0  0  0  0  0  0  0  0
  199.9708  177.2048  156.8713 N   0  0  2  0  0  0  0  0  0  0  0  0
  200.2832  178.4173  157.6629 C   0  0  2  0  0  0  0  0  0  0  0  0
  201.1417  176.3076  156.7520 C   0  0  2  0  0  0  0  0  0  0  0  0
  196.9812  181.5611  153.9614 C   0  0  0  0  0  0  0  0  0  0  0  0
  196.8962  180.1520  153.8528 C   0  0  0  0  0  0  0  0  0  0  0  0
  196.6795  179.5611  152.5925 C   0  0  0  0  0  0  0  0  0  0  0  0
  196.4293  180.3640  151.4506 C   0  0  0  0  0  0  0  0  0  0  0  0
  196.4371  181.7639  151.5814 C   0  0  0  0  0  0  0  0  0  0  0  0
  196.7320  182.3634  152.8218 C   0  0  0  0  0  0  0  0  0  0  0  0
  195.4308  183.0214  158.2320 C   0  0  0  0  0  0  0  0  0  0  0  0
  195.5767  183.6043  159.5002 C   0  0  0  0  0  0  0  0  0  0  0  0
  196.8479  184.0378  159.9288 C   0  0  0  0  0  0  0  0  0  0  0  0
  199.4114  182.8636  153.6688 H   0  0  0  0  0  0  0  0  0  0  0  0
  200.6295  183.0165  154.8710 H   0  0  0  0  0  0  0  0  0  0  0  0
  198.9812  180.0848  155.8924 H   0  0  0  0  0  0  0  0  0  0  0  0
  201.2888  177.3138  153.5561 H   0  0  0  0  0  0  0  0  0  0  0  0
  202.3486  179.2296  152.3617 H   0  0  0  0  0  0  0  0  0  0  0  0
  201.6317  181.5682  152.8354 H   0  0  0  0  0  0  0  0  0  0  0  0
  198.2963  177.7296  155.7261 H   0  0  0  0  0  0  0  0  0  0  0  0
  199.3103  176.5641  154.9447 H   0  0  0  0  0  0  0  0  0  0  0  0
  201.0529  179.0295  157.1977 H   0  0  0  0  0  0  0  0  0  0  0  0
  200.6588  178.1593  158.6623 H   0  0  0  0  0  0  0  0  0  0  0  0
  199.3862  179.0238  157.7892 H   0  0  0  0  0  0  0  0  0  0  0  0
  201.9343  176.7708  156.1590 H   0  0  0  0  0  0  0  0  0  0  0  0
  200.8748  175.3605  156.2787 H   0  0  0  0  0  0  0  0  0  0  0  0
  201.5485  176.0853  157.7375 H   0  0  0  0  0  0  0  0  0  0  0  0
  197.0020  179.5188  154.7236 H   0  0  0  0  0  0  0  0  0  0  0  0
  196.6990  178.4792  152.5033 H   0  0  0  0  0  0  0  0  0  0  0  0
  196.2254  179.8848  150.5028 H   0  0  0  0  0  0  0  0  0  0  0  0
  196.2191  182.3776  150.7225 H   0  0  0  0  0  0  0  0  0  0  0  0
  196.7462  183.4446  152.9112 H   0  0  0  0  0  0  0  0  0  0  0  0
  194.4597  182.6906  157.8933 H   0  0  0  0  0  0  0  0  0  0  0  0
  194.7184  183.7101  160.1479 H   0  0  0  0  0  0  0  0  0  0  0  0
  196.9629  184.4736  160.9087 H   0  0  0  0  0  0  0  0  0  0  0  0
  199.2502  176.7353  157.3992 H   0  0  0  0  0  0  0  0  0  0  0  0
  1  2  1  0
  2  3  2  0
  2 29  1  0
  3  4  1  0
  3  8  1  0
  4  5  1  0
  4 27  2  0
  5  6  2  0
  6  7  1  0
  6 21  1  0
  7  8  1  0
  7 10  1  0
  8  9  2  0
 10 11  1  0
 10 30  1  6
 10 31  1  0
 11 12  2  0
 11 16  1  0
 12 13  1  0
 12 32  1  0
 13 14  2  0
 13 17  1  0
 14 15  1  0
 14 33  1  0
 15 16  2  0
 15 34  1  0
 16 35  1  0
 17 18  1  0
 17 36  1  1
 17 37  1  0
 18 19  1  0
 18 20  1  0
 18 52  1  1
 19 38  1  6
 19 39  1  0
 19 40  1  0
 20 41  1  6
 20 42  1  0
 20 43  1  0
 21 22  2  0
 21 26  1  0
 22 23  1  0
 22 44  1  0
 23 24  2  0
 23 45  1  0
 24 25  1  0
 24 46  1  0
 25 26  2  0
 25 47  1  0
 26 48  1  0
 27 28  1  0
 27 49  1  0
 28 29  2  0
 28 50  1  0
 29 51  1  0
M  CHG  1  18   1
M  END
>  <s_epik_cmdline>  (1311) 
J2VwaWtfcHl0aG9uJywgJy1waCcsICc3LjAwMDAwMCcsICctcGh0JywgJzIuMDAwMDAwJywgJy1tcycsICcxNicsICctdG4nLCAnOCcsICctbWEnLCAnMjAwJywgJy1pbWFlJywgJzxpbmZpbGUubWFlPicsICctb21hZScsICc8b3V0ZmlsZS5tYWU+Jw==

>  <s_epik_input>  (1311) 
RmMxW2NIXVtjSF1bY0hdYyhjMTIpbmMoLWMzW2NIXVtjSF1bY0hdW2NIXVtjSF0zKW4oYzI9TylbQ0gyXWM0W2NIXWMoW2NIXVtjSF1bY0hdNClbQ0gyXU4oW0NIM10pW0NIM10=

>  <s_i_glide_gridfile>  (1311) 
ATP-Grid

>  <s_lp_Force_Field>  (1311) 
OPLS_2005

>  <s_lp_Variant>  (1311) 
rxn318____EMOL2873214____EMOL478180____EMOL476827-1

>  <s_lp_label>  (1311) 
3071_sdstereoexpander_1_neutralizer_1_epik_1_stereoizer_1

>  <s_m_source_file>  (1311) 
ATP-VSW-LIGPREP-002-in.maegz

>  <s_sd_BIOSOLVEIT.INFINISEE\_QUERY\_NAME>  (1311) 
Ref-Lig

>  <s_sd_BIOSOLVEIT.INFINISEE\_QUERY\_SMILES>  (1311) 
S(c1nc2c(cc1C[NH2+]Cc3ccc(cc3)C[NH+](C)C)cccc2)Cc4ccccc4

>  <s_sd_BIOSOLVEIT.INFINISEE\_REACTION\_NAME>  (1311) 
rxn318

>  <s_sd_BIOSOLVEIT.INFINISEE\_REAGENT1\_NAME>  (1311) 
EMOL2873214

>  <s_sd_BIOSOLVEIT.INFINISEE\_REAGENT1\_SMILES>  (1311) 
N(Cc1cc(ccc1)CN)(C)C

>  <s_sd_BIOSOLVEIT.INFINISEE\_REAGENT2\_NAME>  (1311) 
EMOL478180

>  <s_sd_BIOSOLVEIT.INFINISEE\_REAGENT2\_SMILES>  (1311) 
[O-]C(=O)c1ccccc1

>  <s_sd_BIOSOLVEIT.INFINISEE\_REAGENT3\_NAME>  (1311) 
EMOL476827

>  <s_sd_BIOSOLVEIT.INFINISEE\_REAGENT3\_SMILES>  (1311) 
Fc1c(c(N)ccc1)C(=O)O

>  <s_sd_BIOSOLVEIT.INFINISEE\_SPACE>  (1311) 
eXplore_7tr_2022-12

>  <s_vsw_compound_code>  (1311) 
98242

>  <s_vsw_variant>  (1311) 
98242-1

>  <r_epik_Charging_Adjusted_Penalty>  (1311) 
0.089001282623998396

>  <r_epik_Ionization_Penalty>  (1311) 
0.044499999999999998

>  <r_epik_Ionization_Penalty_Charging>  (1311) 
0.044499999999999998

>  <r_epik_Ionization_Penalty_Neutral>  (1311) 
0

>  <r_epik_State_Penalty>  (1311) 
0.044499999999999998

>  <r_i_docking_score>  (1311) 
-4.2522223659494998

>  <r_i_glide_ecoul>  (1311) 
-5.1857280731201199

>  <r_i_glide_eff_state_penalty>  (1311) 
0.044499999999999998

>  <r_i_glide_einternal>  (1311) 
2.91705346107483

>  <r_i_glide_emodel>  (1311) 
-49.033218105006

>  <r_i_glide_energy>  (1311) 
-36.216716766357401

>  <r_i_glide_erotb>  (1311) 
0.51648312658222995

>  <r_i_glide_esite>  (1311) 
-0.121700829458496

>  <r_i_glide_evdw>  (1311) 
-31.030988693237301

>  <r_i_glide_gscore>  (1311) 
-4.2967223659495

>  <r_i_glide_hbond>  (1311) 
-0.061453430310399598

>  <r_i_glide_ligand_efficiency>  (1311) 
-0.14662835744653499

>  <r_i_glide_ligand_efficiency_ln>  (1311) 
-0.973651094746809

>  <r_i_glide_ligand_efficiency_sa>  (1311) 
-0.45048876920002401

>  <r_i_glide_lipo>  (1311) 
-1.25161512147744

>  <r_i_glide_metal>  (1311) 
-0

>  <r_i_glide_rewards>  (1311) 
-1.0490274656555201

>  <r_lp_Energy>  (1311) 
36.067518999999997

>  <r_lp_tautomer_probability>  (1311) 
1

>  <r_qp_ACxDN^.5/SA>  (1311) 
0

>  <r_qp_CIQPlogS>  (1311) 
-4.7889999999999997

>  <r_qp_EA(eV)>  (1311) 
0.81599999999999995

>  <r_qp_FISA>  (1311) 
44.143999999999998

>  <r_qp_FOSA>  (1311) 
204.66999999999999

>  <r_qp_IP(eV)>  (1311) 
9.032

>  <r_qp_Jm>  (1311) 
0.077698368672581702

>  <r_qp_PISA>  (1311) 
400.59199999999998

>  <r_qp_PSA>  (1311) 
42.558999999999997

>  <r_qp_PercentHumanOralAbsorption>  (1311) 
100

>  <r_qp_QPPCaco>  (1311) 
942.27599999999995

>  <r_qp_QPPMDCK>  (1311) 
810.78800000000001

>  <r_qp_QPlogBB>  (1311) 
0.307

>  <r_qp_QPlogHERG>  (1311) 
-7.1520000000000001

>  <r_qp_QPlogKhsa>  (1311) 
0.40999999999999998

>  <r_qp_QPlogKp>  (1311) 
-2.504

>  <r_qp_QPlogPC16>  (1311) 
12.679

>  <r_qp_QPlogPo/w>  (1311) 
4.2599999999999998

>  <r_qp_QPlogPoct>  (1311) 
18.195

>  <r_qp_QPlogPw>  (1311) 
9.2140000000000004

>  <r_qp_QPlogS>  (1311) 
-4.1929999999999996

>  <r_qp_QPpolrz>  (1311) 
44.225000000000001

>  <r_qp_SASA>  (1311) 
685.65800000000002

>  <r_qp_SAamideO>  (1311) 
0

>  <r_qp_SAfluorine>  (1311) 
36.252000000000002

>  <r_qp_WPSA>  (1311) 
36.252000000000002

>  <r_qp_accptHB>  (1311) 
6

>  <r_qp_dip^2/V>  (1311) 
0.023615799999999999

>  <r_qp_dipole>  (1311) 
5.4189999999999996

>  <r_qp_donorHB>  (1311) 
0

>  <r_qp_glob>  (1311) 
0.81560370000000004

>  <r_qp_mol_MW>  (1311) 
387.45600000000002

>  <r_qp_volume>  (1311) 
1243.462

>  <r_sd_BIOSOLVEIT.INFINISEE\_FTREES\_SIMILARITY>  (1311) 
0.90200000000000002

>  <r_sd_BIOSOLVEIT.LOGP>  (1311) 
2.8954

>  <r_sd_BIOSOLVEIT.MOLECULAR\_WEIGHT>  (1311) 
388.464

>  <r_sd_BIOSOLVEIT.TPSA>  (1311) 
39.329999999999998

>  <i_epik_Tot_Q>  (1311) 
1

>  <i_epik_Tot_abs_Q>  (1311) 
1

>  <i_f3d_flags>  (1311) 
0

>  <i_i_glide_confnum>  (1311) 
3

>  <i_i_glide_lignum>  (1311) 
122

>  <i_i_glide_posenum>  (1311) 
13

>  <i_i_glide_rotatable_bonds>  (1311) 
5

>  <i_lp_mmshare_version>  (1311) 
65135

>  <i_m_ct_format>  (1311) 
2

>  <i_m_source_file_index>  (1311) 
3071

>  <i_qp_#NandO>  (1311) 
4

>  <i_qp_#acid>  (1311) 
0

>  <i_qp_#amide>  (1311) 
0

>  <i_qp_#amidine>  (1311) 
0

>  <i_qp_#amine>  (1311) 
1

>  <i_qp_#in34>  (1311) 
0

>  <i_qp_#in56>  (1311) 
22

>  <i_qp_#metab>  (1311) 
3

>  <i_qp_#nonHatm>  (1311) 
29

>  <i_qp_#noncon>  (1311) 
0

>  <i_qp_#ringatoms>  (1311) 
22

>  <i_qp_#rotor>  (1311) 
5

>  <i_qp_#rtvFG>  (1311) 
0

>  <i_qp_#stars>  (1311) 
0

>  <i_qp_CNS>  (1311) 
1

>  <i_qp_HumanOralAbsorption>  (1311) 
3

>  <i_qp_RuleOfFive>  (1311) 
0

>  <i_qp_RuleOfThree>  (1311) 
0

>  <i_sd_BIOSOLVEIT.INFINISEE\_RESULT\_RANK>  (1311) 
93264

>  <i_sd_version>  (1311) 
0

>  <b_lp_Chiralities_Consistent>  (1311) 
1

>  <b_sd_chiral_flag>  (1311) 
0

>  <canonical_id>  (1311) 
ATP-HTVS-CEA6734F7F3C

>  <compound_code>  (1311) 
98242

>  <title>  (1311) 
rxn318____EMOL2873214____EMOL478180____EMOL476827

>  <variant>  (1311) 
98242-1

>  <source_file>  (1311) 
运行/运行/ATP-VSW/ATP-VSW-DOCK_HTVS_1-003_lib/ATP-VSW-DOCK_HTVS_1-003_lib.mae

>  <canonical_smiles>  (1311) 
C[NH+](C)Cc1cccc(Cn2c(-c3ccccc3)nc3cccc(F)c3c2=O)c1

>  <scaffold>  (1311) 
O=c1c2ccccc2nc(-c2ccccc2)n1Cc1ccccc1

>  <molecular_formula>  (1311) 
C24H23FN3O+

$$$$
ATP-HTVS-CEB5A32F933D
     RDKit          3D

 52 55  0  0  0  0  0  0  0  0999 V2000
  198.8157  185.2750  158.9923 F   0  0  0  0  0  0  0  0  0  0  0  0
  197.7259  184.4628  158.9728 C   0  0  0  0  0  0  0  0  0  0  0  0
  197.6635  183.4156  158.0539 C   0  0  0  0  0  0  0  0  0  0  0  0
  196.5319  182.5569  158.0267 C   0  0  0  0  0  0  0  0  0  0  0  0
  196.4662  181.4670  157.1440 N   0  0  0  0  0  0  0  0  0  0  0  0
  197.0172  181.3108  155.9629 C   0  0  0  0  0  0  0  0  0  0  0  0
  197.9676  182.0237  155.5356 O   0  0  0  0  0  0  0  0  0  0  0  0
  196.4119  180.1750  155.0846 C   0  0  1  0  0  0  0  0  0  0  0  0
  197.3239  179.8021  153.9993 N   0  0  0  0  0  0  0  0  0  0  0  0
  198.5042  179.0538  154.3881 C   0  0  0  0  0  0  0  0  0  0  0  0
  199.4643  178.5166  153.4849 C   0  0  0  0  0  0  0  0  0  0  0  0
  200.6211  177.8842  154.0284 C   0  0  0  0  0  0  0  0  0  0  0  0
  200.8455  177.7661  155.4211 C   0  0  0  0  0  0  0  0  0  0  0  0
  199.8964  178.2677  156.3014 C   0  0  0  0  0  0  0  0  0  0  0  0
  198.7518  178.8466  155.7782 C   0  0  0  0  0  0  0  0  0  0  0  0
  199.3533  178.5624  151.9881 C   0  0  0  0  0  0  0  0  0  0  0  0
  200.3140  178.3805  151.2414 O   0  0  0  0  0  0  0  0  0  0  0  0
  197.9758  178.7417  151.3402 C   0  0  1  0  0  0  0  0  0  0  0  0
  197.4334  180.1459  151.5376 C   0  0  0  0  0  0  0  0  0  0  0  0
  197.1306  180.6126  152.8286 C   0  0  0  0  0  0  0  0  0  0  0  0
  196.5466  181.9176  152.9177 C   0  0  0  0  0  0  0  0  0  0  0  0
  196.3542  182.7521  151.8236 C   0  0  0  0  0  0  0  0  0  0  0  0
  196.6889  182.2904  150.5487 C   0  0  0  0  0  0  0  0  0  0  0  0
  197.2103  180.9854  150.4022 C   0  0  0  0  0  0  0  0  0  0  0  0
  195.4794  182.7430  158.9294 C   0  0  0  0  0  0  0  0  0  0  0  0
  194.3574  181.8737  158.9729 N   0  0  0  0  0  0  0  0  0  0  0  0
  193.4822  181.7511  157.8256 C   0  0  1  0  0  0  0  0  0  0  0  0
  192.4558  180.6428  157.9901 C   0  0  2  0  0  0  0  0  0  0  0  0
  195.5459  183.8070  159.8484 C   0  0  0  0  0  0  0  0  0  0  0  0
  196.6724  184.6641  159.8732 C   0  0  0  0  0  0  0  0  0  0  0  0
  198.5088  183.2860  157.4039 H   0  0  0  0  0  0  0  0  0  0  0  0
  195.7664  180.7572  157.3847 H   0  0  0  0  0  0  0  0  0  0  0  0
  196.1225  179.3045  155.7064 H   0  0  0  0  0  0  0  0  0  0  0  0
  195.5530  180.5272  154.6733 H   0  0  0  0  0  0  0  0  0  0  0  0
  201.3630  177.4587  153.3712 H   0  0  0  0  0  0  0  0  0  0  0  0
  201.7164  177.2816  155.8481 H   0  0  0  0  0  0  0  0  0  0  0  0
  199.9586  178.2297  157.3812 H   0  0  0  0  0  0  0  0  0  0  0  0
  198.1256  179.1351  156.5907 H   0  0  0  0  0  0  0  0  0  0  0  0
  198.0555  178.5300  150.2708 H   0  0  0  0  0  0  0  0  0  0  0  0
  197.2779  178.0097  151.7476 H   0  0  0  0  0  0  0  0  0  0  0  0
  196.1696  182.3978  153.7953 H   0  0  0  0  0  0  0  0  0  0  0  0
  195.9284  183.7271  152.0348 H   0  0  0  0  0  0  0  0  0  0  0  0
  196.4811  182.9492  149.7104 H   0  0  0  0  0  0  0  0  0  0  0  0
  197.4295  180.6312  149.4044 H   0  0  0  0  0  0  0  0  0  0  0  0
  194.1854  181.3080  159.7895 H   0  0  0  0  0  0  0  0  0  0  0  0
  192.9891  182.7092  157.6964 H   0  0  0  0  0  0  0  0  0  0  0  0
  194.0450  181.4145  156.9639 H   0  0  0  0  0  0  0  0  0  0  0  0
  191.7904  180.6340  157.1142 H   0  0  0  0  0  0  0  0  0  0  0  0
  191.8748  180.5894  158.9104 H   0  0  0  0  0  0  0  0  0  0  0  0
  192.9700  179.7126  158.1234 H   0  0  0  0  0  0  0  0  0  0  0  0
  194.7388  183.9516  160.5393 H   0  0  0  0  0  0  0  0  0  0  0  0
  196.7348  185.4614  160.5894 H   0  0  0  0  0  0  0  0  0  0  0  0
  1  2  1  0
  2  3  2  0
  2 30  1  0
  3  4  1  0
  3 31  1  0
  4  5  1  0
  4 25  2  0
  5  6  1  0
  5 32  1  0
  6  7  2  0
  6  8  1  0
  8  9  1  0
  8 33  1  1
  8 34  1  0
  9 10  1  0
  9 20  1  0
 10 11  1  0
 10 15  2  0
 11 12  2  0
 11 16  1  0
 12 13  1  0
 12 35  1  0
 13 14  2  0
 13 36  1  0
 14 15  1  0
 14 37  1  0
 15 38  1  0
 16 17  2  0
 16 18  1  0
 18 19  1  0
 18 39  1  6
 18 40  1  0
 19 20  1  0
 19 24  2  0
 20 21  2  0
 21 22  1  0
 21 41  1  0
 22 23  2  0
 22 42  1  0
 23 24  1  0
 23 43  1  0
 24 44  1  0
 25 26  1  0
 25 29  1  0
 26 27  1  0
 26 45  1  0
 27 28  1  0
 27 46  1  6
 27 47  1  0
 28 48  1  6
 28 49  1  0
 28 50  1  0
 29 30  2  0
 29 51  1  0
 30 52  1  0
M  END
>  <s_epik_cmdline>  (1312) 
J2VwaWtfcHl0aG9uJywgJy1waCcsICc3LjAwMDAwMCcsICctcGh0JywgJzIuMDAwMDAwJywgJy1tcycsICcxNicsICctdG4nLCAnOCcsICctbWEnLCAnMjAwJywgJy1pbWFlJywgJzxpbmZpbGUubWFlPicsICctb21hZScsICc8b3V0ZmlsZS5tYWU+Jw==

>  <s_epik_input>  (1312) 
W0NIM11bQ0gyXVtOSF1jKFtjSF1bY0hdMSljKFtjSF1jMUYpW05IXUMoPU8pW0NIMl1OMmMoW2NIXVtjSF1bY0hdW2NIXTMpYzNbQ0gyXUMoPU8pYyhjMjQpW2NIXVtjSF1bY0hdW2NIXTQ=

>  <s_i_glide_gridfile>  (1312) 
ATP-Grid

>  <s_lp_Force_Field>  (1312) 
OPLS_2005

>  <s_lp_Variant>  (1312) 
rxn512b____EMOL32441547____EMOL476131____EMOL17406302-1

>  <s_lp_label>  (1312) 
3077_sdstereoexpander_1_neutralizer_1_epik_1_stereoizer_1

>  <s_m_source_file>  (1312) 
ATP-VSW-LIGPREP-001-in.maegz

>  <s_sd_BIOSOLVEIT.INFINISEE\_QUERY\_NAME>  (1312) 
Ref-Lig

>  <s_sd_BIOSOLVEIT.INFINISEE\_QUERY\_SMILES>  (1312) 
S(c1nc2c(cc1C[NH2+]Cc3ccc(cc3)C[NH+](C)C)cccc2)Cc4ccccc4

>  <s_sd_BIOSOLVEIT.INFINISEE\_REACTION\_NAME>  (1312) 
rxn512b

>  <s_sd_BIOSOLVEIT.INFINISEE\_REAGENT1\_NAME>  (1312) 
EMOL32441547

>  <s_sd_BIOSOLVEIT.INFINISEE\_REAGENT1\_SMILES>  (1312) 
Fc1cc(N)c(NCC)cc1

>  <s_sd_BIOSOLVEIT.INFINISEE\_REAGENT2\_NAME>  (1312) 
EMOL476131

>  <s_sd_BIOSOLVEIT.INFINISEE\_REAGENT2\_SMILES>  (1312) 
BrCC(=O)O

>  <s_sd_BIOSOLVEIT.INFINISEE\_REAGENT3\_NAME>  (1312) 
EMOL17406302

>  <s_sd_BIOSOLVEIT.INFINISEE\_REAGENT3\_SMILES>  (1312) 
O=C1c2c(Nc3c(cccc3)C1)cccc2

>  <s_sd_BIOSOLVEIT.INFINISEE\_SPACE>  (1312) 
eXplore_7tr_2022-12

>  <s_vsw_compound_code>  (1312) 
98433

>  <s_vsw_variant>  (1312) 
98433-1

>  <r_epik_Charging_Adjusted_Penalty>  (1312) 
0.0097403924967502595

>  <r_epik_Ionization_Penalty>  (1312) 
0.0097000000000000003

>  <r_epik_Ionization_Penalty_Charging>  (1312) 
0

>  <r_epik_Ionization_Penalty_Neutral>  (1312) 
0.0097000000000000003

>  <r_epik_State_Penalty>  (1312) 
0.0097000000000000003

>  <r_i_docking_score>  (1312) 
-3.92654421518424

>  <r_i_glide_ecoul>  (1312) 
-5.3911471366882298

>  <r_i_glide_eff_state_penalty>  (1312) 
0.0097000000000000003

>  <r_i_glide_einternal>  (1312) 
7.6497602462768599

>  <r_i_glide_emodel>  (1312) 
-35.518179532148103

>  <r_i_glide_energy>  (1312) 
-32.316239833831801

>  <r_i_glide_erotb>  (1312) 
0.48248339408831198

>  <r_i_glide_esite>  (1312) 
-0.27382462114372202

>  <r_i_glide_evdw>  (1312) 
-26.925092697143601

>  <r_i_glide_gscore>  (1312) 
-3.9362442151842401

>  <r_i_glide_hbond>  (1312) 
-0.130689262807624

>  <r_i_glide_ligand_efficiency>  (1312) 
-0.13088480717280801

>  <r_i_glide_ligand_efficiency_ln>  (1312) 
-0.89215362881574301

>  <r_i_glide_ligand_efficiency_sa>  (1312) 
-0.40668952692177501

>  <r_i_glide_lipo>  (1312) 
-1.05699589639077

>  <r_i_glide_metal>  (1312) 
-0

>  <r_i_glide_rewards>  (1312) 
-0.80229112357002597

>  <r_lp_Energy>  (1312) 
44.063363000000003

>  <r_lp_tautomer_probability>  (1312) 
0.99995000000000001

>  <r_qp_ACxDN^.5/SA>  (1312) 
0.011983499999999999

>  <r_qp_CIQPlogS>  (1312) 
-5.976

>  <r_qp_EA(eV)>  (1312) 
0.46200000000000002

>  <r_qp_FISA>  (1312) 
74.813000000000002

>  <r_qp_FOSA>  (1312) 
195.12

>  <r_qp_IP(eV)>  (1312) 
8.3149999999999995

>  <r_qp_Jm>  (1312) 
0.019361564033270301

>  <r_qp_PISA>  (1312) 
391.24400000000003

>  <r_qp_PSA>  (1312) 
71.155000000000001

>  <r_qp_PercentHumanOralAbsorption>  (1312) 
100

>  <r_qp_QPPCaco>  (1312) 
1933.9739999999999

>  <r_qp_QPPMDCK>  (1312) 
1823.508

>  <r_qp_QPlogBB>  (1312) 
-0.40600000000000003

>  <r_qp_QPlogHERG>  (1312) 
-6.6680000000000001

>  <r_qp_QPlogKhsa>  (1312) 
0.61599999999999999

>  <r_qp_QPlogKp>  (1312) 
-1.04

>  <r_qp_QPlogPC16>  (1312) 
13.428000000000001

>  <r_qp_QPlogPo/w>  (1312) 
4.6619999999999999

>  <r_qp_QPlogPoct>  (1312) 
22.108000000000001

>  <r_qp_QPlogPw>  (1312) 
12.346

>  <r_qp_QPlogS>  (1312) 
-6.2789999999999999

>  <r_qp_QPpolrz>  (1312) 
44.904000000000003

>  <r_qp_SASA>  (1312) 
708.08000000000004

>  <r_qp_SAamideO>  (1312) 
0

>  <r_qp_SAfluorine>  (1312) 
46.904000000000003

>  <r_qp_WPSA>  (1312) 
46.904000000000003

>  <r_qp_accptHB>  (1312) 
6

>  <r_qp_dip^2/V>  (1312) 
0.0708347

>  <r_qp_dipole>  (1312) 
9.4570000000000007

>  <r_qp_donorHB>  (1312) 
2

>  <r_qp_glob>  (1312) 
0.79788610000000004

>  <r_qp_mol_MW>  (1312) 
403.45499999999998

>  <r_qp_volume>  (1312) 
1262.662

>  <r_sd_BIOSOLVEIT.INFINISEE\_FTREES\_SIMILARITY>  (1312) 
0.90100000000000002

>  <r_sd_BIOSOLVEIT.LOGP>  (1312) 
4.7731000000000003

>  <r_sd_BIOSOLVEIT.MOLECULAR\_WEIGHT>  (1312) 
403.45499999999998

>  <r_sd_BIOSOLVEIT.TPSA>  (1312) 
61.439999999999998

>  <i_epik_Tot_Q>  (1312) 
0

>  <i_epik_Tot_abs_Q>  (1312) 
0

>  <i_f3d_flags>  (1312) 
0

>  <i_i_glide_confnum>  (1312) 
2

>  <i_i_glide_lignum>  (1312) 
48

>  <i_i_glide_posenum>  (1312) 
2

>  <i_i_glide_rotatable_bonds>  (1312) 
6

>  <i_lp_mmshare_version>  (1312) 
65135

>  <i_m_ct_format>  (1312) 
2

>  <i_m_source_file_index>  (1312) 
3077

>  <i_qp_#NandO>  (1312) 
5

>  <i_qp_#acid>  (1312) 
0

>  <i_qp_#amide>  (1312) 
0

>  <i_qp_#amidine>  (1312) 
0

>  <i_qp_#amine>  (1312) 
0

>  <i_qp_#in34>  (1312) 
0

>  <i_qp_#in56>  (1312) 
18

>  <i_qp_#metab>  (1312) 
8

>  <i_qp_#nonHatm>  (1312) 
30

>  <i_qp_#noncon>  (1312) 
1

>  <i_qp_#ringatoms>  (1312) 
21

>  <i_qp_#rotor>  (1312) 
5

>  <i_qp_#rtvFG>  (1312) 
0

>  <i_qp_#stars>  (1312) 
0

>  <i_qp_CNS>  (1312) 
0

>  <i_qp_HumanOralAbsorption>  (1312) 
1

>  <i_qp_RuleOfFive>  (1312) 
0

>  <i_qp_RuleOfThree>  (1312) 
2

>  <i_sd_BIOSOLVEIT.INFINISEE\_RESULT\_RANK>  (1312) 
94086

>  <i_sd_version>  (1312) 
0

>  <b_lp_Chiralities_Consistent>  (1312) 
1

>  <b_sd_chiral_flag>  (1312) 
0

>  <canonical_id>  (1312) 
ATP-HTVS-CEB5A32F933D

>  <compound_code>  (1312) 
98433

>  <title>  (1312) 
rxn512b____EMOL32441547____EMOL476131____EMOL17406302

>  <variant>  (1312) 
98433-1

>  <source_file>  (1312) 
运行/运行/ATP-VSW/ATP-VSW-DOCK_HTVS_1-002_lib.maegz

>  <canonical_smiles>  (1312) 
CCNc1ccc(F)cc1NC(=O)CN1c2ccccc2CC(=O)c2ccccc21

>  <scaffold>  (1312) 
O=C(CN1c2ccccc2CC(=O)c2ccccc21)Nc1ccccc1

>  <molecular_formula>  (1312) 
C24H22FN3O2

$$$$
ATP-HTVS-CEC01CDE00B1
     RDKit          3D

 61 64  0  0  0  0  0  0  0  0999 V2000
  196.9381  181.7946  157.9177 O   0  0  0  0  0  0  0  0  0  0  0  0
  197.1367  182.5686  156.9814 C   0  0  0  0  0  0  0  0  0  0  0  0
  197.0967  183.8926  157.1578 N   0  0  0  0  0  0  0  0  0  0  0  0
  196.4019  184.5880  158.1794 C   0  0  0  0  0  0  0  0  0  0  0  0
  195.4558  183.9790  158.9395 N   0  0  0  0  0  0  0  0  0  0  0  0
  194.8117  184.7187  159.8578 C   0  0  0  0  0  0  0  0  0  0  0  0
  195.1126  186.0741  160.0520 C   0  0  0  0  0  0  0  0  0  0  0  0
  196.0342  186.7114  159.2956 N   0  0  0  0  0  0  0  0  0  0  0  0
  196.6695  185.9747  158.3451 C   0  0  0  0  0  0  0  0  0  0  0  0
  197.6513  186.7091  157.5202 C   0  0  0  0  0  0  0  0  0  0  0  0
  197.5912  186.6872  156.1051 C   0  0  0  0  0  0  0  0  0  0  0  0
  198.5486  187.3721  155.3342 C   0  0  0  0  0  0  0  0  0  0  0  0
  199.5649  188.1083  155.9648 C   0  0  0  0  0  0  0  0  0  0  0  0
  199.6340  188.1425  157.3696 C   0  0  0  0  0  0  0  0  0  0  0  0
  198.6838  187.4430  158.1383 C   0  0  0  0  0  0  0  0  0  0  0  0
  194.3875  186.8101  161.0630 C   0  0  0  0  0  0  0  0  0  0  0  0
  193.7777  187.4474  161.9090 C   0  0  0  0  0  0  0  0  0  0  0  0
  193.1284  188.2811  162.9014 C   0  0  0  0  0  0  0  0  0  0  0  0
  193.3896  189.6812  163.0671 C   0  0  0  0  0  0  0  0  0  0  0  0
  194.3213  190.4318  162.3177 N   0  0  0  0  0  0  0  0  0  0  0  0
  195.5402  189.9866  161.7377 N   0  0  0  0  0  0  0  0  0  0  0  0
  192.6821  190.3787  164.0683 C   0  0  0  0  0  0  0  0  0  0  0  0
  191.7543  189.7240  164.9005 C   0  0  0  0  0  0  0  0  0  0  0  0
  191.5069  188.3497  164.7330 C   0  0  0  0  0  0  0  0  0  0  0  0
  192.1895  187.6373  163.7316 C   0  0  0  0  0  0  0  0  0  0  0  0
  197.6243  182.1297  155.6173 C   0  0  0  0  0  0  0  0  0  0  0  0
  198.5070  181.0301  155.3824 C   0  0  0  0  0  0  0  0  0  0  0  0
  198.8475  180.6971  154.0424 C   0  0  0  0  0  0  0  0  0  0  0  0
  198.3495  181.4303  152.9519 C   0  0  0  0  0  0  0  0  0  0  0  0
  197.4816  182.5050  153.1811 C   0  0  0  0  0  0  0  0  0  0  0  0
  197.1226  182.8413  154.4954 C   0  0  0  0  0  0  0  0  0  0  0  0
  199.2232  180.2645  156.5055 C   0  0  1  0  0  0  0  0  0  0  0  0
  200.5321  180.8190  156.8906 N   0  0  0  0  0  0  0  0  0  0  0  0
  201.5327  180.7157  155.8406 C   0  0  2  0  0  0  0  0  0  0  0  0
  200.4473  182.1944  157.3643 C   0  0  2  0  0  0  0  0  0  0  0  0
  197.4884  184.4695  156.4207 H   0  0  0  0  0  0  0  0  0  0  0  0
  194.0460  184.2299  160.4432 H   0  0  0  0  0  0  0  0  0  0  0  0
  196.8078  186.1471  155.5911 H   0  0  0  0  0  0  0  0  0  0  0  0
  198.4846  187.3452  154.2554 H   0  0  0  0  0  0  0  0  0  0  0  0
  200.2879  188.6506  155.3740 H   0  0  0  0  0  0  0  0  0  0  0  0
  200.4109  188.7062  157.8630 H   0  0  0  0  0  0  0  0  0  0  0  0
  198.7449  187.4697  159.2179 H   0  0  0  0  0  0  0  0  0  0  0  0
  194.0949  191.3998  162.1763 H   0  0  0  0  0  0  0  0  0  0  0  0
  195.9979  190.7037  161.1863 H   0  0  0  0  0  0  0  0  0  0  0  0
  196.1687  189.6119  162.4435 H   0  0  0  0  0  0  0  0  0  0  0  0
  192.8666  191.4351  164.2263 H   0  0  0  0  0  0  0  0  0  0  0  0
  191.2280  190.2720  165.6722 H   0  0  0  0  0  0  0  0  0  0  0  0
  190.7890  187.8447  165.3646 H   0  0  0  0  0  0  0  0  0  0  0  0
  191.9825  186.5818  163.6170 H   0  0  0  0  0  0  0  0  0  0  0  0
  199.5406  179.8999  153.8506 H   0  0  0  0  0  0  0  0  0  0  0  0
  198.6386  181.1703  151.9403 H   0  0  0  0  0  0  0  0  0  0  0  0
  197.0794  183.0730  152.3550 H   0  0  0  0  0  0  0  0  0  0  0  0
  196.4388  183.6687  154.6263 H   0  0  0  0  0  0  0  0  0  0  0  0
  198.6174  180.0882  157.3866 H   0  0  0  0  0  0  0  0  0  0  0  0
  199.3768  179.2505  156.1387 H   0  0  0  0  0  0  0  0  0  0  0  0
  202.4993  181.0762  156.1829 H   0  0  0  0  0  0  0  0  0  0  0  0
  201.2587  181.3153  154.9744 H   0  0  0  0  0  0  0  0  0  0  0  0
  201.6472  179.6790  155.5247 H   0  0  0  0  0  0  0  0  0  0  0  0
  201.4088  182.5686  157.7134 H   0  0  0  0  0  0  0  0  0  0  0  0
  199.7394  182.2701  158.1873 H   0  0  0  0  0  0  0  0  0  0  0  0
  200.1172  182.8590  156.5663 H   0  0  0  0  0  0  0  0  0  0  0  0
  1  2  2  0
  2  3  1  0
  2 26  1  0
  3  4  1  0
  3 36  1  0
  4  5  1  0
  4  9  2  0
  5  6  2  0
  6  7  1  0
  6 37  1  0
  7  8  2  0
  7 16  1  0
  8  9  1  0
  9 10  1  0
 10 11  2  0
 10 15  1  0
 11 12  1  0
 11 38  1  0
 12 13  2  0
 12 39  1  0
 13 14  1  0
 13 40  1  0
 14 15  2  0
 14 41  1  0
 15 42  1  0
 16 17  3  0
 17 18  1  0
 18 19  1  0
 18 25  2  0
 19 20  1  0
 19 22  2  0
 20 21  1  0
 20 43  1  0
 21 44  1  0
 21 45  1  0
 22 23  1  0
 22 46  1  0
 23 24  2  0
 23 47  1  0
 24 25  1  0
 24 48  1  0
 25 49  1  0
 26 27  1  0
 26 31  2  0
 27 28  2  0
 27 32  1  0
 28 29  1  0
 28 50  1  0
 29 30  2  0
 29 51  1  0
 30 31  1  0
 30 52  1  0
 31 53  1  0
 32 33  1  0
 32 54  1  1
 32 55  1  0
 33 34  1  0
 33 35  1  0
 34 56  1  1
 34 57  1  0
 34 58  1  0
 35 59  1  1
 35 60  1  0
 35 61  1  0
M  END
>  <s_epik_cmdline>  (1313) 
J2VwaWtfcHl0aG9uJywgJy1waCcsICc3LjAwMDAwMCcsICctcGh0JywgJzIuMDAwMDAwJywgJy1tcycsICcxNicsICctdG4nLCAnOCcsICctbWEnLCAnMjAwJywgJy1pbWFlJywgJzxpbmZpbGUubWFlPicsICctb21hZScsICc8b3V0ZmlsZS5tYWU+Jw==

>  <s_epik_input>  (1313) 
W2NIXTFbY0hdW2NIXVtjSF1jKFtDSDJdTihbQ0gzXSlbQ0gzXSljMUMoPU8pW05IXWMybltjSF1jKG5jMi1jM1tjSF1bY0hdW2NIXVtjSF1bY0hdMylDI0NjNGMoW05IXVtOSDJdKVtjSF1bY0hdW2NIXVtjSF00

>  <s_i_glide_gridfile>  (1313) 
ATP-Grid

>  <s_lp_Force_Field>  (1313) 
OPLS_2005

>  <s_lp_Variant>  (1313) 
rxn505a____EMOL5415347____EMOL313123100____EMOL49780033-2

>  <s_lp_label>  (1313) 
2964_sdstereoexpander_1_neutralizer_1_epik_2_stereoizer_1

>  <s_m_source_file>  (1313) 
ATP-VSW-LIGPREP-002-in.maegz

>  <s_sd_BIOSOLVEIT.INFINISEE\_QUERY\_NAME>  (1313) 
Ref-Lig

>  <s_sd_BIOSOLVEIT.INFINISEE\_QUERY\_SMILES>  (1313) 
S(c1nc2c(cc1C[NH2+]Cc3ccc(cc3)C[NH+](C)C)cccc2)Cc4ccccc4

>  <s_sd_BIOSOLVEIT.INFINISEE\_REACTION\_NAME>  (1313) 
rxn505a

>  <s_sd_BIOSOLVEIT.INFINISEE\_REAGENT1\_NAME>  (1313) 
EMOL5415347

>  <s_sd_BIOSOLVEIT.INFINISEE\_REAGENT1\_SMILES>  (1313) 
O=C(O)c1c(cccc1)CN(C)C

>  <s_sd_BIOSOLVEIT.INFINISEE\_REAGENT2\_NAME>  (1313) 
EMOL313123100

>  <s_sd_BIOSOLVEIT.INFINISEE\_REAGENT2\_SMILES>  (1313) 
n1c(C#C)cnc(N)c1c2ccccc2

>  <s_sd_BIOSOLVEIT.INFINISEE\_REAGENT3\_NAME>  (1313) 
EMOL49780033

>  <s_sd_BIOSOLVEIT.INFINISEE\_REAGENT3\_SMILES>  (1313) 
Ic1c(NN)cccc1

>  <s_sd_BIOSOLVEIT.INFINISEE\_SPACE>  (1313) 
eXplore_7tr_2022-12

>  <s_vsw_compound_code>  (1313) 
94818

>  <s_vsw_variant>  (1313) 
94818-2

>  <r_epik_Charging_Adjusted_Penalty>  (1313) 
1.38031721167688

>  <r_epik_Ionization_Penalty>  (1313) 
1.3841000000000001

>  <r_epik_Ionization_Penalty_Charging>  (1313) 
0

>  <r_epik_Ionization_Penalty_Neutral>  (1313) 
1.3841000000000001

>  <r_epik_State_Penalty>  (1313) 
1.3803000000000001

>  <r_i_docking_score>  (1313) 
-2.4787734987822301

>  <r_i_glide_ecoul>  (1313) 
1.5038141012191799

>  <r_i_glide_eff_state_penalty>  (1313) 
1.3803000000000001

>  <r_i_glide_einternal>  (1313) 
9.9377822875976598

>  <r_i_glide_emodel>  (1313) 
-45.3261663544708

>  <r_i_glide_energy>  (1313) 
-41.030064225196803

>  <r_i_glide_erotb>  (1313) 
0.65910069520707004

>  <r_i_glide_esite>  (1313) 
-0.098904803667306404

>  <r_i_glide_evdw>  (1313) 
-42.533878326416001

>  <r_i_glide_gscore>  (1313) 
-3.8590734987822302

>  <r_i_glide_hbond>  (1313) 
-0.16668021002526101

>  <r_i_glide_ligand_efficiency>  (1313) 
-0.070822099965206498

>  <r_i_glide_ligand_efficiency_ln>  (1313) 
-0.54414579639645999

>  <r_i_glide_ligand_efficiency_sa>  (1313) 
-0.231663784938447

>  <r_i_glide_lipo>  (1313) 
-2.09609674279517

>  <r_i_glide_metal>  (1313) 
-0

>  <r_i_glide_rewards>  (1313) 
-0.255370636363635

>  <r_lp_Energy>  (1313) 
45.299292999999999

>  <r_qp_ACxDN^.5/SA>  (1313) 
0.0186851

>  <r_qp_CIQPlogS>  (1313) 
-4.5519999999999996

>  <r_qp_EA(eV)>  (1313) 
1.0149999999999999

>  <r_qp_FISA>  (1313) 
134.113

>  <r_qp_FOSA>  (1313) 
162.893

>  <r_qp_IP(eV)>  (1313) 
7.9649999999999999

>  <r_qp_Jm>  (1313) 
5.8976464390075703e-05

>  <r_qp_PISA>  (1313) 
559.29200000000003

>  <r_qp_PSA>  (1313) 
98.585999999999999

>  <r_qp_PercentHumanOralAbsorption>  (1313) 
75.406000000000006

>  <r_qp_QPPCaco>  (1313) 
32.954000000000001

>  <r_qp_QPPMDCK>  (1313) 
15.141

>  <r_qp_QPlogBB>  (1313) 
-0.78200000000000003

>  <r_qp_QPlogHERG>  (1313) 
-9.7360000000000007

>  <r_qp_QPlogKhsa>  (1313) 
0.58799999999999997

>  <r_qp_QPlogKp>  (1313) 
-5.282

>  <r_qp_QPlogPC16>  (1313) 
18.545000000000002

>  <r_qp_QPlogPo/w>  (1313) 
3.637

>  <r_qp_QPlogPoct>  (1313) 
28.908000000000001

>  <r_qp_QPlogPw>  (1313) 
18.25

>  <r_qp_QPlogS>  (1313) 
-4.6120000000000001

>  <r_qp_QPpolrz>  (1313) 
54.356000000000002

>  <r_qp_SASA>  (1313) 
856.29700000000003

>  <r_qp_SAamideO>  (1313) 
0

>  <r_qp_SAfluorine>  (1313) 
0

>  <r_qp_WPSA>  (1313) 
0

>  <r_qp_accptHB>  (1313) 
8

>  <r_qp_dip^2/V>  (1313) 
0.032743599999999998

>  <r_qp_dipole>  (1313) 
7.0620000000000003

>  <r_qp_donorHB>  (1313) 
4

>  <r_qp_glob>  (1313) 
0.74758159999999996

>  <r_qp_mol_MW>  (1313) 
462.553

>  <r_qp_volume>  (1313) 
1522.9200000000001

>  <r_sd_BIOSOLVEIT.INFINISEE\_FTREES\_SIMILARITY>  (1313) 
0.90300000000000002

>  <r_sd_BIOSOLVEIT.LOGP>  (1313) 
2.7258

>  <r_sd_BIOSOLVEIT.MOLECULAR\_WEIGHT>  (1313) 
463.56200000000001

>  <r_sd_BIOSOLVEIT.TPSA>  (1313) 
97.370000000000005

>  <i_epik_Tot_Q>  (1313) 
0

>  <i_epik_Tot_abs_Q>  (1313) 
0

>  <i_f3d_flags>  (1313) 
0

>  <i_i_glide_confnum>  (1313) 
10

>  <i_i_glide_lignum>  (1313) 
20

>  <i_i_glide_posenum>  (1313) 
11

>  <i_i_glide_rotatable_bonds>  (1313) 
9

>  <i_lp_mmshare_version>  (1313) 
65135

>  <i_m_ct_format>  (1313) 
2

>  <i_m_source_file_index>  (1313) 
2964

>  <i_qp_#NandO>  (1313) 
7

>  <i_qp_#acid>  (1313) 
0

>  <i_qp_#amide>  (1313) 
0

>  <i_qp_#amidine>  (1313) 
0

>  <i_qp_#amine>  (1313) 
2

>  <i_qp_#in34>  (1313) 
0

>  <i_qp_#in56>  (1313) 
24

>  <i_qp_#metab>  (1313) 
5

>  <i_qp_#nonHatm>  (1313) 
35

>  <i_qp_#noncon>  (1313) 
0

>  <i_qp_#ringatoms>  (1313) 
24

>  <i_qp_#rotor>  (1313) 
9

>  <i_qp_#rtvFG>  (1313) 
1

>  <i_qp_#stars>  (1313) 
3

>  <i_qp_CNS>  (1313) 
-1

>  <i_qp_HumanOralAbsorption>  (1313) 
2

>  <i_qp_RuleOfFive>  (1313) 
0

>  <i_qp_RuleOfThree>  (1313) 
0

>  <i_sd_BIOSOLVEIT.INFINISEE\_RESULT\_RANK>  (1313) 
81888

>  <i_sd_version>  (1313) 
0

>  <b_lp_Chiralities_Consistent>  (1313) 
1

>  <b_sd_chiral_flag>  (1313) 
0

>  <canonical_id>  (1313) 
ATP-HTVS-CEC01CDE00B1

>  <compound_code>  (1313) 
94818

>  <title>  (1313) 
rxn505a____EMOL5415347____EMOL313123100____EMOL49780033

>  <variant>  (1313) 
94818-2

>  <source_file>  (1313) 
运行/运行/ATP-VSW/ATP-VSW-DOCK_HTVS_1-003_lib/ATP-VSW-DOCK_HTVS_1-003_lib.mae

>  <canonical_smiles>  (1313) 
CN(C)Cc1ccccc1C(=O)Nc1ncc(C#Cc2ccccc2NN)nc1-c1ccccc1

>  <scaffold>  (1313) 
O=C(Nc1ncc(C#Cc2ccccc2)nc1-c1ccccc1)c1ccccc1

>  <molecular_formula>  (1313) 
C28H26N6O

$$$$
ATP-HTVS-CED8BA7CA394
     RDKit          3D

 52 54  0  0  0  0  0  0  0  0999 V2000
  200.0698  176.7573  152.8268 O   0  0  0  0  0  0  0  0  0  0  0  0
  200.7299  176.1848  153.8947 C   0  0  0  0  0  0  0  0  0  0  0  0
  201.1475  174.8974  153.7985 N   0  0  0  0  0  0  0  0  0  0  0  0
  201.7705  174.3786  154.8799 C   0  0  0  0  0  0  0  0  0  0  0  0
  201.9713  175.1341  156.0551 C   0  0  0  0  0  0  0  0  0  0  0  0
  201.5431  176.4096  156.1589 N   0  0  0  0  0  0  0  0  0  0  0  0
  200.9248  176.9406  155.0762 C   0  0  0  0  0  0  0  0  0  0  0  0
  200.4585  178.2614  155.1403 N   0  0  0  0  0  0  0  0  0  0  0  0
  200.0963  178.7972  156.4447 C   0  0  1  0  0  0  0  0  0  0  0  0
  199.5858  180.2232  156.3906 C   0  0  0  0  0  0  0  0  0  0  0  0
  198.2031  180.4821  156.4453 C   0  0  0  0  0  0  0  0  0  0  0  0
  197.7087  181.8056  156.4667 C   0  0  0  0  0  0  0  0  0  0  0  0
  198.6317  182.8803  156.4207 C   0  0  0  0  0  0  0  0  0  0  0  0
  198.2278  184.1854  156.4861 O   0  0  0  0  0  0  0  0  0  0  0  0
  200.0136  182.6180  156.3381 C   0  0  0  0  0  0  0  0  0  0  0  0
  200.4950  181.2950  156.3287 C   0  0  0  0  0  0  0  0  0  0  0  0
  196.2064  182.0492  156.6087 C   0  0  1  0  0  0  0  0  0  0  0  0
  195.7274  181.8373  157.9995 N   0  0  1  0  0  0  0  0  0  0  0  0
  196.4761  182.6035  159.0308 C   0  0  2  0  0  0  0  0  0  0  0  0
  194.2694  182.0521  158.1299 C   0  0  2  0  0  0  0  0  0  0  0  0
  199.6439  175.9219  151.7535 C   0  0  1  0  0  0  0  0  0  0  0  0
  198.9187  176.7117  150.6773 C   0  0  0  0  0  0  0  0  0  0  0  0
  198.7486  176.1550  149.3916 C   0  0  0  0  0  0  0  0  0  0  0  0
  198.0787  176.8833  148.3896 C   0  0  0  0  0  0  0  0  0  0  0  0
  197.5689  178.1657  148.6648 C   0  0  0  0  0  0  0  0  0  0  0  0
  197.7296  178.7216  149.9489 C   0  0  0  0  0  0  0  0  0  0  0  0
  198.3985  177.9962  150.9508 C   0  0  0  0  0  0  0  0  0  0  0  0
  202.1045  173.3545  154.8109 H   0  0  0  0  0  0  0  0  0  0  0  0
  202.4710  174.7111  156.9163 H   0  0  0  0  0  0  0  0  0  0  0  0
  199.9299  178.5882  154.3444 H   0  0  0  0  0  0  0  0  0  0  0  0
  199.3367  178.1536  156.8861 H   0  0  0  0  0  0  0  0  0  0  0  0
  200.9570  178.7654  157.1129 H   0  0  0  0  0  0  0  0  0  0  0  0
  197.5293  179.6395  156.5232 H   0  0  0  0  0  0  0  0  0  0  0  0
  197.2942  184.3142  156.5018 H   0  0  0  0  0  0  0  0  0  0  0  0
  200.7131  183.4440  156.3199 H   0  0  0  0  0  0  0  0  0  0  0  0
  201.5579  181.1050  156.2909 H   0  0  0  0  0  0  0  0  0  0  0  0
  195.9484  183.0592  156.2936 H   0  0  0  0  0  0  0  0  0  0  0  0
  195.6722  181.3755  155.9329 H   0  0  0  0  0  0  0  0  0  0  0  0
  196.3720  183.6730  158.8616 H   0  0  0  0  0  0  0  0  0  0  0  0
  197.5388  182.3664  159.0486 H   0  0  0  0  0  0  0  0  0  0  0  0
  196.0945  182.3943  160.0292 H   0  0  0  0  0  0  0  0  0  0  0  0
  193.9996  183.0838  157.9055 H   0  0  0  0  0  0  0  0  0  0  0  0
  193.9448  181.8300  159.1468 H   0  0  0  0  0  0  0  0  0  0  0  0
  193.7241  181.3921  157.4535 H   0  0  0  0  0  0  0  0  0  0  0  0
  200.4974  175.4184  151.2951 H   0  0  0  0  0  0  0  0  0  0  0  0
  198.9710  175.1530  152.1342 H   0  0  0  0  0  0  0  0  0  0  0  0
  199.1364  175.1692  149.1716 H   0  0  0  0  0  0  0  0  0  0  0  0
  197.9505  176.4552  147.4060 H   0  0  0  0  0  0  0  0  0  0  0  0
  197.0532  178.7199  147.8943 H   0  0  0  0  0  0  0  0  0  0  0  0
  197.3397  179.7049  150.1681 H   0  0  0  0  0  0  0  0  0  0  0  0
  198.5110  178.4379  151.9299 H   0  0  0  0  0  0  0  0  0  0  0  0
  195.8666  180.8396  158.1474 H   0  0  0  0  0  0  0  0  0  0  0  0
  1  2  1  0
  1 21  1  0
  2  3  1  0
  2  7  2  0
  3  4  2  0
  4  5  1  0
  4 28  1  0
  5  6  2  0
  5 29  1  0
  6  7  1  0
  7  8  1  0
  8  9  1  0
  8 30  1  0
  9 10  1  0
  9 31  1  1
  9 32  1  0
 10 11  2  0
 10 16  1  0
 11 12  1  0
 11 33  1  0
 12 13  2  0
 12 17  1  0
 13 14  1  0
 13 15  1  0
 14 34  1  0
 15 16  2  0
 15 35  1  0
 16 36  1  0
 17 18  1  0
 17 37  1  6
 17 38  1  0
 18 19  1  0
 18 20  1  0
 18 52  1  1
 19 39  1  6
 19 40  1  0
 19 41  1  0
 20 42  1  6
 20 43  1  0
 20 44  1  0
 21 22  1  0
 21 45  1  6
 21 46  1  0
 22 23  2  0
 22 27  1  0
 23 24  1  0
 23 47  1  0
 24 25  2  0
 24 48  1  0
 25 26  1  0
 25 49  1  0
 26 27  2  0
 26 50  1  0
 27 51  1  0
M  CHG  1  18   1
M  END
>  <s_epik_cmdline>  (1314) 
J2VwaWtfcHl0aG9uJywgJy1waCcsICc3LjAwMDAwMCcsICctcGh0JywgJzIuMDAwMDAwJywgJy1tcycsICcxNicsICctdG4nLCAnOCcsICctbWEnLCAnMjAwJywgJy1pbWFlJywgJzxpbmZpbGUubWFlPicsICctb21hZScsICc8b3V0ZmlsZS5tYWU+Jw==

>  <s_epik_input>  (1314) 
W2NIXTFbY0hdW2NIXVtjSF1bY0hdYzFbQ0gyXU9jMm5bY0hdW2NIXW5jMltOSF1bQ0gyXWMzW2NIXWMoYyhbT0hdKVtjSF1bY0hdMylbQ0gyXU4oW0NIM10pW0NIM10=

>  <s_i_glide_gridfile>  (1314) 
ATP-Grid

>  <s_lp_Force_Field>  (1314) 
OPLS_2005

>  <s_lp_Variant>  (1314) 
a4____43299____222282-1

>  <s_lp_label>  (1314) 
574_sdstereoexpander_1_neutralizer_1_epik_1_stereoizer_1

>  <s_m_source_file>  (1314) 
ATP-VSW-LIGPREP-002-in.maegz

>  <s_sd_BIOSOLVEIT.INFINISEE\_QUERY\_NAME>  (1314) 
Ref-Lig

>  <s_sd_BIOSOLVEIT.INFINISEE\_QUERY\_SMILES>  (1314) 
S(c1nc2c(cc1C[NH2+]Cc3ccc(cc3)C[NH+](C)C)cccc2)Cc4ccccc4

>  <s_sd_BIOSOLVEIT.INFINISEE\_REACTION\_NAME>  (1314) 
a4

>  <s_sd_BIOSOLVEIT.INFINISEE\_REAGENT1\_SMILES>  (1314) 
[R1*]Nc1nccnc1OCc2ccccc2

>  <s_sd_BIOSOLVEIT.INFINISEE\_REAGENT2\_SMILES>  (1314) 
[R1*]Cc1cc(c(O)cc1)CN(C)C

>  <s_sd_BIOSOLVEIT.INFINISEE\_SPACE>  (1314) 
FreedomSpace_5bn_2023-06

>  <s_vsw_compound_code>  (1314) 
18338

>  <s_vsw_variant>  (1314) 
18338-1

>  <r_epik_Charging_Adjusted_Penalty>  (1314) 
0.140652417377258

>  <r_epik_Ionization_Penalty>  (1314) 
0.049700000000000001

>  <r_epik_Ionization_Penalty_Charging>  (1314) 
0.038399999999999997

>  <r_epik_Ionization_Penalty_Neutral>  (1314) 
0.011299999999999999

>  <r_epik_State_Penalty>  (1314) 
0.1022

>  <r_i_docking_score>  (1314) 
-4.8169552919960603

>  <r_i_glide_ecoul>  (1314) 
-9.4678382873535192

>  <r_i_glide_eff_state_penalty>  (1314) 
0.1022

>  <r_i_glide_einternal>  (1314) 
2.1075811386108398

>  <r_i_glide_emodel>  (1314) 
-58.046901041677302

>  <r_i_glide_energy>  (1314) 
-40.274629592895501

>  <r_i_glide_erotb>  (1314) 
1.00824405346965

>  <r_i_glide_esite>  (1314) 
-0.109871556688207

>  <r_i_glide_evdw>  (1314) 
-30.806791305541999

>  <r_i_glide_gscore>  (1314) 
-4.9191552919960602

>  <r_i_glide_hbond>  (1314) 
-0.20000000000000001

>  <r_i_glide_ligand_efficiency>  (1314) 
-0.17840575155541

>  <r_i_glide_ligand_efficiency_ln>  (1314) 
-1.1213077782621801

>  <r_i_glide_ligand_efficiency_sa>  (1314) 
-0.53521725407823295

>  <r_i_glide_lipo>  (1314) 
-1.5146179349428399

>  <r_i_glide_metal>  (1314) 
-0

>  <r_i_glide_rewards>  (1314) 
-1.1423945454545399

>  <r_lp_Energy>  (1314) 
20.132603

>  <r_lp_tautomer_probability>  (1314) 
0.999999999997365

>  <r_qp_ACxDN^.5/SA>  (1314) 
0.0118017

>  <r_qp_CIQPlogS>  (1314) 
-4.4960000000000004

>  <r_qp_EA(eV)>  (1314) 
0.26100000000000001

>  <r_qp_FISA>  (1314) 
79.709000000000003

>  <r_qp_FOSA>  (1314) 
188.17599999999999

>  <r_qp_IP(eV)>  (1314) 
8.6059999999999999

>  <r_qp_Jm>  (1314) 
0.36750593443711699

>  <r_qp_PISA>  (1314) 
361.23000000000002

>  <r_qp_PSA>  (1314) 
65.912000000000006

>  <r_qp_PercentHumanOralAbsorption>  (1314) 
95.557000000000002

>  <r_qp_QPPCaco>  (1314) 
433.43200000000002

>  <r_qp_QPPMDCK>  (1314) 
221.71000000000001

>  <r_qp_QPlogBB>  (1314) 
-0.308

>  <r_qp_QPlogHERG>  (1314) 
-6.3289999999999997

>  <r_qp_QPlogKhsa>  (1314) 
0.378

>  <r_qp_QPlogKp>  (1314) 
-2.915

>  <r_qp_QPlogPC16>  (1314) 
12.694000000000001

>  <r_qp_QPlogPo/w>  (1314) 
3.657

>  <r_qp_QPlogPoct>  (1314) 
18.291

>  <r_qp_QPlogPw>  (1314) 
10.348000000000001

>  <r_qp_QPlogS>  (1314) 
-3.0819999999999999

>  <r_qp_QPpolrz>  (1314) 
38.451000000000001

>  <r_qp_SASA>  (1314) 
629.11500000000001

>  <r_qp_SAamideO>  (1314) 
0

>  <r_qp_SAfluorine>  (1314) 
0

>  <r_qp_WPSA>  (1314) 
0

>  <r_qp_accptHB>  (1314) 
5.25

>  <r_qp_dip^2/V>  (1314) 
0.00085610000000000005

>  <r_qp_dipole>  (1314) 
1.002

>  <r_qp_donorHB>  (1314) 
2

>  <r_qp_glob>  (1314) 
0.85488339999999996

>  <r_qp_mol_MW>  (1314) 
364.44600000000003

>  <r_qp_volume>  (1314) 
1172.7570000000001

>  <r_sd_BIOSOLVEIT.INFINISEE\_FTREES\_SIMILARITY>  (1314) 
0.90200000000000002

>  <r_sd_BIOSOLVEIT.LOGP>  (1314) 
2.0177999999999998

>  <r_sd_BIOSOLVEIT.MOLECULAR\_WEIGHT>  (1314) 
365.45499999999998

>  <r_sd_BIOSOLVEIT.TPSA>  (1314) 
71.709999999999994

>  <i_epik_Tot_Q>  (1314) 
1

>  <i_epik_Tot_abs_Q>  (1314) 
1

>  <i_f3d_flags>  (1314) 
0

>  <i_i_glide_confnum>  (1314) 
1

>  <i_i_glide_lignum>  (1314) 
165

>  <i_i_glide_posenum>  (1314) 
2

>  <i_i_glide_rotatable_bonds>  (1314) 
9

>  <i_lp_mmshare_version>  (1314) 
65135

>  <i_m_ct_format>  (1314) 
2

>  <i_m_source_file_index>  (1314) 
574

>  <i_qp_#NandO>  (1314) 
6

>  <i_qp_#acid>  (1314) 
0

>  <i_qp_#amide>  (1314) 
0

>  <i_qp_#amidine>  (1314) 
0

>  <i_qp_#amine>  (1314) 
1

>  <i_qp_#in34>  (1314) 
0

>  <i_qp_#in56>  (1314) 
18

>  <i_qp_#metab>  (1314) 
9

>  <i_qp_#nonHatm>  (1314) 
27

>  <i_qp_#noncon>  (1314) 
0

>  <i_qp_#ringatoms>  (1314) 
18

>  <i_qp_#rotor>  (1314) 
9

>  <i_qp_#rtvFG>  (1314) 
0

>  <i_qp_#stars>  (1314) 
1

>  <i_qp_CNS>  (1314) 
1

>  <i_qp_HumanOralAbsorption>  (1314) 
3

>  <i_qp_RuleOfFive>  (1314) 
0

>  <i_qp_RuleOfThree>  (1314) 
1

>  <i_sd_BIOSOLVEIT.INFINISEE\_REAGENT1\_NAME>  (1314) 
43299

>  <i_sd_BIOSOLVEIT.INFINISEE\_REAGENT2\_NAME>  (1314) 
222282

>  <i_sd_BIOSOLVEIT.INFINISEE\_RESULT\_RANK>  (1314) 
90500

>  <i_sd_version>  (1314) 
0

>  <b_lp_Chiralities_Consistent>  (1314) 
1

>  <b_sd_chiral_flag>  (1314) 
0

>  <canonical_id>  (1314) 
ATP-HTVS-CED8BA7CA394

>  <compound_code>  (1314) 
18338

>  <title>  (1314) 
a4____43299____222282

>  <variant>  (1314) 
18338-1

>  <source_file>  (1314) 
运行/运行/ATP-VSW/ATP-VSW-DOCK_HTVS_1-002_lib.maegz

>  <canonical_smiles>  (1314) 
C[NH+](C)Cc1cc(CNc2nccnc2OCc2ccccc2)ccc1O

>  <scaffold>  (1314) 
c1ccc(CNc2nccnc2OCc2ccccc2)cc1

>  <molecular_formula>  (1314) 
C21H25N4O2+

$$$$
ATP-HTVS-CEDCE5F1BEB7
     RDKit          3D

 53 55  0  0  0  0  0  0  0  0999 V2000
  196.9722  184.6371  147.7184 O   0  0  0  0  0  0  0  0  0  0  0  0
  197.1791  183.9841  148.8966 C   0  0  0  0  0  0  0  0  0  0  0  0
  196.3472  184.2447  149.9979 C   0  0  0  0  0  0  0  0  0  0  0  0
  196.5465  183.5750  151.2165 C   0  0  0  0  0  0  0  0  0  0  0  0
  197.5821  182.6210  151.3556 C   0  0  0  0  0  0  0  0  0  0  0  0
  197.7838  181.9274  152.6413 C   0  0  0  0  0  0  0  0  0  0  0  0
  199.0539  181.5231  152.8660 N   0  0  0  0  0  0  0  0  0  0  0  0
  199.3542  180.8998  154.0338 C   0  0  0  0  0  0  0  0  0  0  0  0
  198.3666  180.5963  155.0073 C   0  0  0  0  0  0  0  0  0  0  0  0
  197.0478  181.0353  154.7877 C   0  0  0  0  0  0  0  0  0  0  0  0
  196.7523  181.7237  153.5913 C   0  0  0  0  0  0  0  0  0  0  0  0
  198.7307  179.8369  156.2733 C   0  0  1  0  0  0  0  0  0  0  0  0
  199.1492  178.4462  156.0048 N   0  0  1  0  0  0  0  0  0  0  0  0
  200.5649  178.3280  155.5739 C   0  0  1  0  0  0  0  0  0  0  0  0
  200.8931  176.9024  155.2047 C   0  0  0  0  0  0  0  0  0  0  0  0
  200.6316  176.4401  153.8977 C   0  0  0  0  0  0  0  0  0  0  0  0
  200.9614  175.1196  153.5335 C   0  0  0  0  0  0  0  0  0  0  0  0
  201.5372  174.2551  154.4895 C   0  0  0  0  0  0  0  0  0  0  0  0
  201.7820  174.7343  155.7933 C   0  0  0  0  0  0  0  0  0  0  0  0
  201.4743  176.0564  156.1550 C   0  0  0  0  0  0  0  0  0  0  0  0
  201.9095  172.8226  154.1253 C   0  0  1  0  0  0  0  0  0  0  0  0
  203.3605  172.6403  153.8517 N   0  0  2  0  0  0  0  0  0  0  0  0
  204.2494  173.1253  154.9301 C   0  0  2  0  0  0  0  0  0  0  0  0
  203.7657  173.1650  152.5304 C   0  0  2  0  0  0  0  0  0  0  0  0
  198.4194  182.3778  150.2414 C   0  0  0  0  0  0  0  0  0  0  0  0
  198.2250  183.0498  149.0197 C   0  0  0  0  0  0  0  0  0  0  0  0
  198.9531  177.9072  156.8377 H   0  0  0  0  0  0  0  0  0  0  0  0
  196.2069  185.1914  147.7208 H   0  0  0  0  0  0  0  0  0  0  0  0
  195.5453  184.9615  149.9152 H   0  0  0  0  0  0  0  0  0  0  0  0
  195.9107  183.8086  152.0576 H   0  0  0  0  0  0  0  0  0  0  0  0
  200.3850  180.6264  154.1737 H   0  0  0  0  0  0  0  0  0  0  0  0
  196.2661  180.8799  155.5197 H   0  0  0  0  0  0  0  0  0  0  0  0
  195.7530  182.1048  153.4228 H   0  0  0  0  0  0  0  0  0  0  0  0
  199.4953  180.3692  156.8369 H   0  0  0  0  0  0  0  0  0  0  0  0
  197.8588  179.8096  156.9226 H   0  0  0  0  0  0  0  0  0  0  0  0
  200.7934  178.9163  154.6686 H   0  0  0  0  0  0  0  0  0  0  0  0
  201.2337  178.6698  156.3779 H   0  0  0  0  0  0  0  0  0  0  0  0
  200.1925  177.0912  153.1599 H   0  0  0  0  0  0  0  0  0  0  0  0
  200.7613  174.7692  152.5289 H   0  0  0  0  0  0  0  0  0  0  0  0
  202.2561  174.1000  156.5185 H   0  0  0  0  0  0  0  0  0  0  0  0
  201.7307  176.4270  157.1417 H   0  0  0  0  0  0  0  0  0  0  0  0
  201.6082  172.1637  154.9362 H   0  0  0  0  0  0  0  0  0  0  0  0
  201.3242  172.5046  153.2563 H   0  0  0  0  0  0  0  0  0  0  0  0
  204.2094  174.2076  155.0360 H   0  0  0  0  0  0  0  0  0  0  0  0
  205.3001  172.8838  154.7234 H   0  0  0  0  0  0  0  0  0  0  0  0
  203.9456  172.6620  155.8689 H   0  0  0  0  0  0  0  0  0  0  0  0
  203.5933  174.2423  152.4650 H   0  0  0  0  0  0  0  0  0  0  0  0
  203.2060  172.6825  151.7295 H   0  0  0  0  0  0  0  0  0  0  0  0
  204.8263  172.9885  152.3563 H   0  0  0  0  0  0  0  0  0  0  0  0
  199.2295  181.6617  150.3089 H   0  0  0  0  0  0  0  0  0  0  0  0
  198.8689  182.8422  148.1775 H   0  0  0  0  0  0  0  0  0  0  0  0
  203.4885  171.6169  153.8580 H   0  0  0  0  0  0  0  0  0  0  0  0
  198.5512  178.0695  155.2863 H   0  0  0  0  0  0  0  0  0  0  0  0
  1  2  1  0
  1 28  1  0
  2  3  1  0
  2 26  2  0
  3  4  2  0
  3 29  1  0
  4  5  1  0
  4 30  1  0
  5  6  1  0
  5 25  2  0
  6  7  1  0
  6 11  2  0
  7  8  2  0
  8  9  1  0
  8 31  1  0
  9 10  2  0
  9 12  1  0
 10 11  1  0
 10 32  1  0
 11 33  1  0
 12 13  1  0
 12 34  1  1
 12 35  1  0
 13 14  1  0
 13 27  1  1
 13 53  1  0
 14 15  1  0
 14 36  1  6
 14 37  1  0
 15 16  1  0
 15 20  2  0
 16 17  2  0
 16 38  1  0
 17 18  1  0
 17 39  1  0
 18 19  2  0
 18 21  1  0
 19 20  1  0
 19 40  1  0
 20 41  1  0
 21 22  1  0
 21 42  1  1
 21 43  1  0
 22 23  1  0
 22 24  1  0
 22 52  1  6
 23 44  1  1
 23 45  1  0
 23 46  1  0
 24 47  1  1
 24 48  1  0
 24 49  1  0
 25 26  1  0
 25 50  1  0
 26 51  1  0
M  CHG  2  13   1  22   1
M  END
>  <s_epik_cmdline>  (1315) 
J2VwaWtfcHl0aG9uJywgJy1waCcsICc3LjAwMDAwMCcsICctcGh0JywgJzIuMDAwMDAwJywgJy1tcycsICcxNicsICctdG4nLCAnOCcsICctbWEnLCAnMjAwJywgJy1pbWFlJywgJzxpbmZpbGUubWFlPicsICctb21hZScsICc8b3V0ZmlsZS5tYWU+Jw==

>  <s_epik_input>  (1315) 
W09IXWMxW2NIXVtjSF1jKFtjSF1bY0hdMSktYzJuW2NIXWMoW2NIXVtjSF0yKVtDSDJdW05IXVtDSDJdYzNbY0hdW2NIXWMoW2NIXVtjSF0zKVtDSDJdTihbQ0gzXSlbQ0gzXQ==

>  <s_i_glide_gridfile>  (1315) 
ATP-Grid

>  <s_lp_Force_Field>  (1315) 
OPLS_2005

>  <s_lp_Variant>  (1315) 
WXDL_15E____QS5063____LN00244457____BT0555-1

>  <s_lp_label>  (1315) 
627_sdstereoexpander_1_neutralizer_1_epik_1_stereoizer_1

>  <s_m_source_file>  (1315) 
ATP-VSW-LIGPREP-002-in.maegz

>  <s_sd_BIOSOLVEIT.INFINISEE\_QUERY\_NAME>  (1315) 
Ref-Lig

>  <s_sd_BIOSOLVEIT.INFINISEE\_QUERY\_SMILES>  (1315) 
S(c1nc2c(cc1C[NH2+]Cc3ccc(cc3)C[NH+](C)C)cccc2)Cc4ccccc4

>  <s_sd_BIOSOLVEIT.INFINISEE\_REACTION\_NAME>  (1315) 
WXDL_15E

>  <s_sd_BIOSOLVEIT.INFINISEE\_REAGENT1\_NAME>  (1315) 
QS5063

>  <s_sd_BIOSOLVEIT.INFINISEE\_REAGENT1\_SMILES>  (1315) 
O=Cc1ccc(cc1)CN(C)C

>  <s_sd_BIOSOLVEIT.INFINISEE\_REAGENT2\_NAME>  (1315) 
LN00244457

>  <s_sd_BIOSOLVEIT.INFINISEE\_REAGENT2\_SMILES>  (1315) 
Brc1ncc(cc1)CNC(=O)OC(C)(C)C

>  <s_sd_BIOSOLVEIT.INFINISEE\_REAGENT3\_NAME>  (1315) 
BT0555

>  <s_sd_BIOSOLVEIT.INFINISEE\_REAGENT3\_SMILES>  (1315) 
Oc1ccc(cc1)B(O)O

>  <s_sd_BIOSOLVEIT.INFINISEE\_SPACE>  (1315) 
GalaXi_12bn_2023-03

>  <s_vsw_compound_code>  (1315) 
20034

>  <s_vsw_variant>  (1315) 
20034-1

>  <r_epik_Charging_Adjusted_Penalty>  (1315) 
0.36260264626329503

>  <r_epik_Ionization_Penalty>  (1315) 
0.18129999999999999

>  <r_epik_Ionization_Penalty_Charging>  (1315) 
0.1799

>  <r_epik_Ionization_Penalty_Neutral>  (1315) 
0.0014

>  <r_epik_State_Penalty>  (1315) 
0.1827

>  <r_i_docking_score>  (1315) 
-6.6614367029427797

>  <r_i_glide_ecoul>  (1315) 
-20.883989334106399

>  <r_i_glide_eff_state_penalty>  (1315) 
0.1827

>  <r_i_glide_einternal>  (1315) 
3.3178658485412602

>  <r_i_glide_emodel>  (1315) 
-75.011169116128798

>  <r_i_glide_energy>  (1315) 
-45.189605712890597

>  <r_i_glide_erotb>  (1315) 
0.93585446189056398

>  <r_i_glide_esite>  (1315) 
-0.20000000000000001

>  <r_i_glide_evdw>  (1315) 
-24.305616378784201

>  <r_i_glide_gscore>  (1315) 
-6.8441367029427802

>  <r_i_glide_hbond>  (1315) 
-0.62646890064982197

>  <r_i_glide_ligand_efficiency>  (1315) 
-0.25620910395933799

>  <r_i_glide_ligand_efficiency_ln>  (1315) 
-1.5644165517294699

>  <r_i_glide_ligand_efficiency_sa>  (1315) 
-0.75901846234539405

>  <r_i_glide_lipo>  (1315) 
-1.3542972269465201

>  <r_i_glide_metal>  (1315) 
-0

>  <r_i_glide_rewards>  (1315) 
-1.25134581818182

>  <r_lp_Energy>  (1315) 
17.966108999999999

>  <r_lp_tautomer_probability>  (1315) 
0.999999999997365

>  <r_qp_ACxDN^.5/SA>  (1315) 
0.0102638

>  <r_qp_CIQPlogS>  (1315) 
-3.1120000000000001

>  <r_qp_EA(eV)>  (1315) 
0.45400000000000001

>  <r_qp_FISA>  (1315) 
80.313000000000002

>  <r_qp_FOSA>  (1315) 
250.41

>  <r_qp_IP(eV)>  (1315) 
8.7789999999999999

>  <r_qp_Jm>  (1315) 
0.00081218796813291002

>  <r_qp_PISA>  (1315) 
392.654

>  <r_qp_PSA>  (1315) 
52.308999999999997

>  <r_qp_PercentHumanOralAbsorption>  (1315) 
84.254999999999995

>  <r_qp_QPPCaco>  (1315) 
106.68300000000001

>  <r_qp_QPPMDCK>  (1315) 
53.901000000000003

>  <r_qp_QPlogBB>  (1315) 
-0.012999999999999999

>  <r_qp_QPlogHERG>  (1315) 
-8.4960000000000004

>  <r_qp_QPlogKhsa>  (1315) 
0.57399999999999995

>  <r_qp_QPlogKp>  (1315) 
-4.9740000000000002

>  <r_qp_QPlogPC16>  (1315) 
13.712999999999999

>  <r_qp_QPlogPo/w>  (1315) 
3.5880000000000001

>  <r_qp_QPlogPoct>  (1315) 
19.489000000000001

>  <r_qp_QPlogPw>  (1315) 
11.013

>  <r_qp_QPlogS>  (1315) 
-3.6579999999999999

>  <r_qp_QPpolrz>  (1315) 
42.420000000000002

>  <r_qp_SASA>  (1315) 
723.37699999999995

>  <r_qp_SAamideO>  (1315) 
0

>  <r_qp_SAfluorine>  (1315) 
0

>  <r_qp_WPSA>  (1315) 
0

>  <r_qp_accptHB>  (1315) 
5.25

>  <r_qp_dip^2/V>  (1315) 
0.0027087999999999999

>  <r_qp_dipole>  (1315) 
1.839

>  <r_qp_donorHB>  (1315) 
2

>  <r_qp_glob>  (1315) 
0.77512389999999998

>  <r_qp_mol_MW>  (1315) 
347.459

>  <r_qp_volume>  (1315) 
1248.4069999999999

>  <r_sd_BIOSOLVEIT.INFINISEE\_FTREES\_SIMILARITY>  (1315) 
0.91700000000000004

>  <r_sd_BIOSOLVEIT.LOGP>  (1315) 
1.3623000000000001

>  <r_sd_BIOSOLVEIT.MOLECULAR\_WEIGHT>  (1315) 
349.47500000000002

>  <r_sd_BIOSOLVEIT.TPSA>  (1315) 
54.170000000000002

>  <i_epik_Tot_Q>  (1315) 
2

>  <i_epik_Tot_abs_Q>  (1315) 
2

>  <i_f3d_flags>  (1315) 
0

>  <i_i_glide_confnum>  (1315) 
7

>  <i_i_glide_lignum>  (1315) 
174

>  <i_i_glide_posenum>  (1315) 
19

>  <i_i_glide_rotatable_bonds>  (1315) 
8

>  <i_lp_mmshare_version>  (1315) 
65135

>  <i_m_ct_format>  (1315) 
2

>  <i_m_source_file_index>  (1315) 
627

>  <i_qp_#NandO>  (1315) 
4

>  <i_qp_#acid>  (1315) 
0

>  <i_qp_#amide>  (1315) 
0

>  <i_qp_#amidine>  (1315) 
0

>  <i_qp_#amine>  (1315) 
2

>  <i_qp_#in34>  (1315) 
0

>  <i_qp_#in56>  (1315) 
18

>  <i_qp_#metab>  (1315) 
7

>  <i_qp_#nonHatm>  (1315) 
26

>  <i_qp_#noncon>  (1315) 
0

>  <i_qp_#ringatoms>  (1315) 
18

>  <i_qp_#rotor>  (1315) 
8

>  <i_qp_#rtvFG>  (1315) 
0

>  <i_qp_#stars>  (1315) 
0

>  <i_qp_CNS>  (1315) 
1

>  <i_qp_HumanOralAbsorption>  (1315) 
2

>  <i_qp_RuleOfFive>  (1315) 
0

>  <i_qp_RuleOfThree>  (1315) 
1

>  <i_sd_BIOSOLVEIT.INFINISEE\_RESULT\_RANK>  (1315) 
24092

>  <i_sd_version>  (1315) 
0

>  <b_lp_Chiralities_Consistent>  (1315) 
1

>  <b_sd_chiral_flag>  (1315) 
0

>  <canonical_id>  (1315) 
ATP-HTVS-CEDCE5F1BEB7

>  <compound_code>  (1315) 
20034

>  <title>  (1315) 
WXDL_15E____QS5063____LN00244457____BT0555

>  <variant>  (1315) 
20034-1

>  <source_file>  (1315) 
运行/运行/ATP-VSW/ATP-VSW-DOCK_HTVS_1-002_lib.maegz

>  <canonical_smiles>  (1315) 
C[NH+](C)Cc1ccc(C[NH2+]Cc2ccc(-c3ccc(O)cc3)nc2)cc1

>  <scaffold>  (1315) 
c1ccc(C[NH2+]Cc2ccc(-c3ccccc3)nc2)cc1

>  <molecular_formula>  (1315) 
C22H27N3O+2

$$$$
ATP-HTVS-CEF12CE4FD32
     RDKit          3D

 50 53  0  0  0  0  0  0  0  0999 V2000
  197.5912  184.6432  153.9283 Br  0  0  0  0  0  0  0  0  0  0  0  0
  197.8536  185.6695  155.5122 C   0  0  0  0  0  0  0  0  0  0  0  0
  197.1554  185.3121  156.6790 C   0  0  0  0  0  0  0  0  0  0  0  0
  197.2724  186.0596  157.8772 C   0  0  0  0  0  0  0  0  0  0  0  0
  198.1715  187.1718  157.8925 C   0  0  0  0  0  0  0  0  0  0  0  0
  198.3575  187.9597  159.0628 N   0  0  0  0  0  0  0  0  0  0  0  0
  197.3862  188.3447  159.8886 C   0  0  0  0  0  0  0  0  0  0  0  0
  197.5461  189.0253  160.8850 O   0  0  0  0  0  0  0  0  0  0  0  0
  195.9750  188.0213  159.5356 C   0  0  1  0  0  0  0  0  0  0  0  0
  195.5421  186.6201  159.6599 N   0  0  0  0  0  0  0  0  0  0  0  0
  196.5258  185.6302  159.1683 C   0  0  1  0  0  0  0  0  0  0  0  0
  195.9157  184.2328  159.0354 C   0  0  0  0  0  0  0  0  0  0  0  0
  196.7374  183.0981  159.1309 C   0  0  0  0  0  0  0  0  0  0  0  0
  196.1611  181.8323  158.9399 C   0  0  0  0  0  0  0  0  0  0  0  0
  194.7774  181.7038  158.6756 C   0  0  0  0  0  0  0  0  0  0  0  0
  193.9689  182.8337  158.5398 C   0  0  0  0  0  0  0  0  0  0  0  0
  194.5593  184.0889  158.6966 C   0  0  0  0  0  0  0  0  0  0  0  0
  195.0704  186.2531  161.0109 C   0  0  1  0  0  0  0  0  0  0  0  0
  193.8969  186.9969  161.4955 C   0  0  0  0  0  0  0  0  0  0  0  0
  192.9669  187.7248  161.8427 C   0  0  0  0  0  0  0  0  0  0  0  0
  191.9200  188.6439  162.2281 C   0  0  0  0  0  0  0  0  0  0  0  0
  191.1817  189.3403  161.2484 C   0  0  0  0  0  0  0  0  0  0  0  0
  190.1223  190.1891  161.6203 C   0  0  0  0  0  0  0  0  0  0  0  0
  189.8036  190.3392  162.9839 C   0  0  0  0  0  0  0  0  0  0  0  0
  190.5737  189.6825  163.9669 C   0  0  0  0  0  0  0  0  0  0  0  0
  191.6359  188.8417  163.5914 C   0  0  0  0  0  0  0  0  0  0  0  0
  189.3275  190.9063  160.5528 C   0  0  2  0  0  0  0  0  0  0  0  0
  198.8941  187.5000  156.7277 C   0  0  0  0  0  0  0  0  0  0  0  0
  198.7368  186.7551  155.5388 C   0  0  0  0  0  0  0  0  0  0  0  0
  196.5023  184.4524  156.5828 H   0  0  0  0  0  0  0  0  0  0  0  0
  199.2772  188.3398  159.2305 H   0  0  0  0  0  0  0  0  0  0  0  0
  195.4039  188.7177  160.1389 H   0  0  0  0  0  0  0  0  0  0  0  0
  195.8335  188.3090  158.5101 H   0  0  0  0  0  0  0  0  0  0  0  0
  197.3008  185.5549  159.9415 H   0  0  0  0  0  0  0  0  0  0  0  0
  197.7980  183.1908  159.3283 H   0  0  0  0  0  0  0  0  0  0  0  0
  196.7728  180.9488  158.9908 H   0  0  0  0  0  0  0  0  0  0  0  0
  194.3383  180.7227  158.5354 H   0  0  0  0  0  0  0  0  0  0  0  0
  192.9351  182.7419  158.2820 H   0  0  0  0  0  0  0  0  0  0  0  0
  193.9456  184.9563  158.5561 H   0  0  0  0  0  0  0  0  0  0  0  0
  194.6752  185.2368  161.0048 H   0  0  0  0  0  0  0  0  0  0  0  0
  195.8818  186.2900  161.7401 H   0  0  0  0  0  0  0  0  0  0  0  0
  191.4259  189.2223  160.2021 H   0  0  0  0  0  0  0  0  0  0  0  0
  188.9727  190.9634  163.2799 H   0  0  0  0  0  0  0  0  0  0  0  0
  190.3323  189.7902  165.0126 H   0  0  0  0  0  0  0  0  0  0  0  0
  192.2113  188.3187  164.3427 H   0  0  0  0  0  0  0  0  0  0  0  0
  188.6272  191.6173  160.9917 H   0  0  0  0  0  0  0  0  0  0  0  0
  188.7577  190.1881  159.9688 H   0  0  0  0  0  0  0  0  0  0  0  0
  189.9891  191.4434  159.8733 H   0  0  0  0  0  0  0  0  0  0  0  0
  199.5648  188.3454  156.7273 H   0  0  0  0  0  0  0  0  0  0  0  0
  199.2797  187.0154  154.6397 H   0  0  0  0  0  0  0  0  0  0  0  0
  1  2  1  0
  2  3  2  0
  2 29  1  0
  3  4  1  0
  3 30  1  0
  4  5  2  0
  4 11  1  0
  5  6  1  0
  5 28  1  0
  6  7  1  0
  6 31  1  0
  7  8  2  0
  7  9  1  0
  9 10  1  0
  9 32  1  1
  9 33  1  0
 10 11  1  0
 10 18  1  0
 11 12  1  0
 11 34  1  1
 12 13  2  0
 12 17  1  0
 13 14  1  0
 13 35  1  0
 14 15  2  0
 14 36  1  0
 15 16  1  0
 15 37  1  0
 16 17  2  0
 16 38  1  0
 17 39  1  0
 18 19  1  0
 18 40  1  6
 18 41  1  0
 19 20  3  0
 20 21  1  0
 21 22  2  0
 21 26  1  0
 22 23  1  0
 22 42  1  0
 23 24  2  0
 23 27  1  0
 24 25  1  0
 24 43  1  0
 25 26  2  0
 25 44  1  0
 26 45  1  0
 27 46  1  1
 27 47  1  0
 27 48  1  0
 28 29  2  0
 28 49  1  0
 29 50  1  0
M  END
>  <s_epik_cmdline>  (1316) 
J2VwaWtfcHl0aG9uJywgJy1waCcsICc3LjAwMDAwMCcsICctcGh0JywgJzIuMDAwMDAwJywgJy1tcycsICcxNicsICctdG4nLCAnOCcsICctbWEnLCAnMjAwJywgJy1pbWFlJywgJzxpbmZpbGUubWFlPicsICctb21hZScsICc8b3V0ZmlsZS5tYWU+Jw==

>  <s_epik_input>  (1316) 
QnJjKFtjSF0xKVtjSF1bY0hdYyhjMTIpW05IXUMoPU8pW0NIMl1OKFtDQEhdMmMzW2NIXVtjSF1bY0hdW2NIXVtjSF0zKVtDSDJdQyNDYzRbY0hdYyhbQ0gzXSlbY0hdW2NIXVtjSF00

>  <s_i_glide_gridfile>  (1316) 
ATP-Grid

>  <s_lp_Force_Field>  (1316) 
OPLS_2005

>  <s_lp_Variant>  (1316) 
m_2230bdc____17626620____17756524-2

>  <s_lp_label>  (1316) 
924_sdstereoexpander_3_neutralizer_1_epik_1_stereoizer_1

>  <s_m_source_file>  (1316) 
ATP-VSW-LIGPREP-002-in.maegz

>  <s_sd_BIOSOLVEIT.INFINISEE\_QUERY\_NAME>  (1316) 
Ref-Lig

>  <s_sd_BIOSOLVEIT.INFINISEE\_QUERY\_SMILES>  (1316) 
S(c1nc2c(cc1C[NH2+]Cc3ccc(cc3)C[NH+](C)C)cccc2)Cc4ccccc4

>  <s_sd_BIOSOLVEIT.INFINISEE\_REACTION\_NAME>  (1316) 
m_2230bdc

>  <s_sd_BIOSOLVEIT.INFINISEE\_REAGENT1\_SMILES>  (1316) 
[R1*]N1C(c2c(NC(=O)C1)ccc(Br)c2)c3ccccc3

>  <s_sd_BIOSOLVEIT.INFINISEE\_REAGENT2\_SMILES>  (1316) 
[R1*]CC#Cc1cc(ccc1)C

>  <s_sd_BIOSOLVEIT.INFINISEE\_SPACE>  (1316) 
REALSpace_44bn_2023-08

>  <s_vsw_compound_code>  (1316) 
29538

>  <s_vsw_variant>  (1316) 
29538-2

>  <r_epik_Charging_Adjusted_Penalty>  (1316) 
0.00053139753982416505

>  <r_epik_Ionization_Penalty>  (1316) 
0.00050000000000000001

>  <r_epik_Ionization_Penalty_Charging>  (1316) 
0

>  <r_epik_Ionization_Penalty_Neutral>  (1316) 
0.00050000000000000001

>  <r_epik_State_Penalty>  (1316) 
0.00050000000000000001

>  <r_i_docking_score>  (1316) 
-2.2483413611420802

>  <r_i_glide_ecoul>  (1316) 
0.72910535335540805

>  <r_i_glide_eff_state_penalty>  (1316) 
0.00050000000000000001

>  <r_i_glide_einternal>  (1316) 
3.0856907367706299

>  <r_i_glide_emodel>  (1316) 
-36.387679432291499

>  <r_i_glide_energy>  (1316) 
-33.989110589027398

>  <r_i_glide_erotb>  (1316) 
0.40350364216989998

>  <r_i_glide_esite>  (1316) 
-0.0017975525316022299

>  <r_i_glide_evdw>  (1316) 
-34.718215942382798

>  <r_i_glide_gscore>  (1316) 
-2.2488413611420799

>  <r_i_glide_hbond>  (1316) 
0

>  <r_i_glide_ligand_efficiency>  (1316) 
-0.0775290124531752

>  <r_i_glide_ligand_efficiency_ln>  (1316) 
-0.51481315868383604

>  <r_i_glide_ligand_efficiency_sa>  (1316) 
-0.23819368917134201

>  <r_i_glide_lipo>  (1316) 
-2.8210167267012398

>  <r_i_glide_metal>  (1316) 
-0

>  <r_i_glide_rewards>  (1316) 
1.79701427003669

>  <r_lp_Energy>  (1316) 
53.026204

>  <r_qp_ACxDN^.5/SA>  (1316) 
0.0068963000000000002

>  <r_qp_CIQPlogS>  (1316) 
-6.3869999999999996

>  <r_qp_EA(eV)>  (1316) 
0.438

>  <r_qp_FISA>  (1316) 
70.734999999999999

>  <r_qp_FOSA>  (1316) 
136.84700000000001

>  <r_qp_IP(eV)>  (1316) 
9.2279999999999998

>  <r_qp_Jm>  (1316) 
0.0015962962787769599

>  <r_qp_PISA>  (1316) 
367.64999999999998

>  <r_qp_PSA>  (1316) 
44.061

>  <r_qp_PercentHumanOralAbsorption>  (1316) 
100

>  <r_qp_QPPCaco>  (1316) 
527.25900000000001

>  <r_qp_QPPMDCK>  (1316) 
726.36199999999997

>  <r_qp_QPlogBB>  (1316) 
0.31900000000000001

>  <r_qp_QPlogHERG>  (1316) 
-6.4269999999999996

>  <r_qp_QPlogKhsa>  (1316) 
0.97099999999999997

>  <r_qp_QPlogKp>  (1316) 
-3.3029999999999999

>  <r_qp_QPlogPC16>  (1316) 
13.504

>  <r_qp_QPlogPo/w>  (1316) 
4.8410000000000002

>  <r_qp_QPlogPoct>  (1316) 
19.454999999999998

>  <r_qp_QPlogPw>  (1316) 
9.5340000000000007

>  <r_qp_QPlogS>  (1316) 
-5.1429999999999998

>  <r_qp_QPpolrz>  (1316) 
44.645000000000003

>  <r_qp_SASA>  (1316) 
652.51999999999998

>  <r_qp_SAamideO>  (1316) 
0

>  <r_qp_SAfluorine>  (1316) 
0

>  <r_qp_WPSA>  (1316) 
77.287999999999997

>  <r_qp_accptHB>  (1316) 
4.5

>  <r_qp_dip^2/V>  (1316) 
0.0224957

>  <r_qp_dipole>  (1316) 
5.2599999999999998

>  <r_qp_donorHB>  (1316) 
1

>  <r_qp_glob>  (1316) 
0.85071099999999999

>  <r_qp_mol_MW>  (1316) 
445.358

>  <r_qp_volume>  (1316) 
1229.748

>  <r_sd_BIOSOLVEIT.INFINISEE\_FTREES\_SIMILARITY>  (1316) 
0.91800000000000004

>  <r_sd_BIOSOLVEIT.LOGP>  (1316) 
3.7356199999999999

>  <r_sd_BIOSOLVEIT.MOLECULAR\_WEIGHT>  (1316) 
446.36599999999999

>  <r_sd_BIOSOLVEIT.TPSA>  (1316) 
33.539999999999999

>  <i_epik_Tot_Q>  (1316) 
0

>  <i_epik_Tot_abs_Q>  (1316) 
0

>  <i_f3d_flags>  (1316) 
0

>  <i_i_glide_confnum>  (1316) 
2

>  <i_i_glide_lignum>  (1316) 
289

>  <i_i_glide_posenum>  (1316) 
9

>  <i_i_glide_rotatable_bonds>  (1316) 
4

>  <i_lp_mmshare_version>  (1316) 
65135

>  <i_m_ct_format>  (1316) 
2

>  <i_m_source_file_index>  (1316) 
924

>  <i_qp_#NandO>  (1316) 
3

>  <i_qp_#acid>  (1316) 
0

>  <i_qp_#amide>  (1316) 
0

>  <i_qp_#amidine>  (1316) 
0

>  <i_qp_#amine>  (1316) 
1

>  <i_qp_#in34>  (1316) 
0

>  <i_qp_#in56>  (1316) 
18

>  <i_qp_#metab>  (1316) 
7

>  <i_qp_#nonHatm>  (1316) 
29

>  <i_qp_#noncon>  (1316) 
2

>  <i_qp_#ringatoms>  (1316) 
23

>  <i_qp_#rotor>  (1316) 
3

>  <i_qp_#rtvFG>  (1316) 
0

>  <i_qp_#stars>  (1316) 
0

>  <i_qp_CNS>  (1316) 
1

>  <i_qp_HumanOralAbsorption>  (1316) 
3

>  <i_qp_RuleOfFive>  (1316) 
0

>  <i_qp_RuleOfThree>  (1316) 
1

>  <i_sd_BIOSOLVEIT.INFINISEE\_REAGENT1\_NAME>  (1316) 
17626620

>  <i_sd_BIOSOLVEIT.INFINISEE\_REAGENT2\_NAME>  (1316) 
17756524

>  <i_sd_BIOSOLVEIT.INFINISEE\_RESULT\_RANK>  (1316) 
20380

>  <i_sd_version>  (1316) 
0

>  <b_lp_Chiralities_Consistent>  (1316) 
1

>  <b_sd_chiral_flag>  (1316) 
0

>  <canonical_id>  (1316) 
ATP-HTVS-CEF12CE4FD32

>  <compound_code>  (1316) 
29538

>  <title>  (1316) 
m_2230bdc____17626620____17756524

>  <variant>  (1316) 
29538-2

>  <source_file>  (1316) 
运行/运行/ATP-VSW/ATP-VSW-DOCK_HTVS_1-002_lib.maegz

>  <canonical_smiles>  (1316) 
Cc1cccc(C#CCN2CC(=O)Nc3ccc(Br)cc3[C@@H]2c2ccccc2)c1

>  <scaffold>  (1316) 
O=C1CN(CC#Cc2ccccc2)C(c2ccccc2)c2ccccc2N1

>  <molecular_formula>  (1316) 
C25H21BrN2O

$$$$
ATP-HTVS-CF29C556AE01
     RDKit          3D

 49 52  0  0  0  0  0  0  0  0999 V2000
  194.7541  181.4320  159.3309 O   0  0  0  0  0  0  0  0  0  0  0  0
  195.2073  182.2304  158.5208 C   0  0  0  0  0  0  0  0  0  0  0  0
  196.0287  181.8372  157.5376 N   0  0  0  0  0  0  0  0  0  0  0  0
  196.6640  182.6806  156.5800 C   0  0  0  0  0  0  0  0  0  0  0  0
  197.1915  183.9486  156.9346 C   0  0  0  0  0  0  0  0  0  0  0  0
  197.7953  184.7466  155.9222 C   0  0  0  0  0  0  0  0  0  0  0  0
  197.8796  184.2922  154.5996 C   0  0  0  0  0  0  0  0  0  0  0  0
  197.3666  183.0316  154.2529 C   0  0  0  0  0  0  0  0  0  0  0  0
  196.7634  182.2253  155.2433 C   0  0  0  0  0  0  0  0  0  0  0  0
  197.1584  184.4061  158.4049 C   0  0  2  0  0  0  0  0  0  0  0  0
  195.8104  184.6906  158.9398 N   0  0  0  0  0  0  0  0  0  0  0  0
  195.8662  184.8982  160.3967 C   0  0  1  0  0  0  0  0  0  0  0  0
  194.9700  186.0319  160.8553 C   0  0  0  0  0  0  0  0  0  0  0  0
  193.5838  185.8471  160.9307 C   0  0  0  0  0  0  0  0  0  0  0  0
  192.7373  186.8364  161.4308 C   0  0  0  0  0  0  0  0  0  0  0  0
  193.2544  188.0867  161.8184 C   0  0  0  0  0  0  0  0  0  0  0  0
  192.4511  189.1210  162.2433 O   0  0  0  0  0  0  0  0  0  0  0  0
  191.1743  189.2327  161.6143 C   0  0  2  0  0  0  0  0  0  0  0  0
  194.6536  188.2906  161.7345 C   0  0  0  0  0  0  0  0  0  0  0  0
  195.5098  187.2776  161.2449 C   0  0  0  0  0  0  0  0  0  0  0  0
  194.7644  183.6801  158.6048 C   0  0  1  0  0  0  0  0  0  0  0  0
  198.1018  185.5916  158.6250 C   0  0  0  0  0  0  0  0  0  0  0  0
  199.4525  185.3717  158.9650 C   0  0  0  0  0  0  0  0  0  0  0  0
  200.3255  186.4649  159.1313 C   0  0  0  0  0  0  0  0  0  0  0  0
  199.8459  187.7829  158.9619 C   0  0  0  0  0  0  0  0  0  0  0  0
  198.4949  188.0111  158.6295 C   0  0  0  0  0  0  0  0  0  0  0  0
  197.6310  186.9157  158.4592 C   0  0  0  0  0  0  0  0  0  0  0  0
  196.0894  180.8273  157.4116 H   0  0  0  0  0  0  0  0  0  0  0  0
  198.2280  185.7157  156.1170 H   0  0  0  0  0  0  0  0  0  0  0  0
  198.3509  184.9282  153.8647 H   0  0  0  0  0  0  0  0  0  0  0  0
  197.4267  182.6980  153.2260 H   0  0  0  0  0  0  0  0  0  0  0  0
  196.3414  181.2734  154.9626 H   0  0  0  0  0  0  0  0  0  0  0  0
  197.5590  183.5726  158.9874 H   0  0  0  0  0  0  0  0  0  0  0  0
  195.6212  183.9720  160.9245 H   0  0  0  0  0  0  0  0  0  0  0  0
  196.8619  185.1423  160.7659 H   0  0  0  0  0  0  0  0  0  0  0  0
  193.1620  184.9012  160.6638 H   0  0  0  0  0  0  0  0  0  0  0  0
  191.6904  186.5980  161.4767 H   0  0  0  0  0  0  0  0  0  0  0  0
  190.5924  190.0253  162.0822 H   0  0  0  0  0  0  0  0  0  0  0  0
  190.5479  188.3412  161.6682 H   0  0  0  0  0  0  0  0  0  0  0  0
  191.3120  189.4802  160.5614 H   0  0  0  0  0  0  0  0  0  0  0  0
  195.0584  189.2441  162.0279 H   0  0  0  0  0  0  0  0  0  0  0  0
  196.5741  187.4636  161.1962 H   0  0  0  0  0  0  0  0  0  0  0  0
  194.2931  183.9341  157.6710 H   0  0  0  0  0  0  0  0  0  0  0  0
  193.9184  183.7064  159.2793 H   0  0  0  0  0  0  0  0  0  0  0  0
  199.8268  184.3648  159.0724 H   0  0  0  0  0  0  0  0  0  0  0  0
  201.3649  186.2943  159.3804 H   0  0  0  0  0  0  0  0  0  0  0  0
  200.5111  188.6261  159.0957 H   0  0  0  0  0  0  0  0  0  0  0  0
  198.1192  189.0175  158.4883 H   0  0  0  0  0  0  0  0  0  0  0  0
  196.6037  187.0905  158.1796 H   0  0  0  0  0  0  0  0  0  0  0  0
  1  2  2  0
  2  3  1  0
  2 21  1  0
  3  4  1  0
  3 28  1  0
  4  5  1  0
  4  9  2  0
  5  6  2  0
  5 10  1  0
  6  7  1  0
  6 29  1  0
  7  8  2  0
  7 30  1  0
  8  9  1  0
  8 31  1  0
  9 32  1  0
 10 11  1  0
 10 22  1  0
 10 33  1  1
 11 12  1  0
 11 21  1  0
 12 13  1  0
 12 34  1  1
 12 35  1  0
 13 14  1  0
 13 20  2  0
 14 15  2  0
 14 36  1  0
 15 16  1  0
 15 37  1  0
 16 17  1  0
 16 19  2  0
 17 18  1  0
 18 38  1  1
 18 39  1  0
 18 40  1  0
 19 20  1  0
 19 41  1  0
 20 42  1  0
 21 43  1  6
 21 44  1  0
 22 23  2  0
 22 27  1  0
 23 24  1  0
 23 45  1  0
 24 25  2  0
 24 46  1  0
 25 26  1  0
 25 47  1  0
 26 27  2  0
 26 48  1  0
 27 49  1  0
M  END
>  <s_epik_cmdline>  (1317) 
J2VwaWtfcHl0aG9uJywgJy1waCcsICc3LjAwMDAwMCcsICctcGh0JywgJzIuMDAwMDAwJywgJy1tcycsICcxNicsICctdG4nLCAnOCcsICctbWEnLCAnMjAwJywgJy1pbWFlJywgJzxpbmZpbGUubWFlPicsICctb21hZScsICc8b3V0ZmlsZS5tYWU+Jw==

>  <s_epik_input>  (1317) 
W2NIXTFbY0hdW2NIXVtjSF1bY0hdYzFbQ0BIXShjKGMyMylbY0hdW2NIXVtjSF1bY0hdMylOKFtDSDJdQyg9TylbTkhdMilbQ0gyXWM0W2NIXVtjSF1jKE9bQ0gzXSlbY0hdW2NIXTQ=

>  <s_i_glide_gridfile>  (1317) 
ATP-Grid

>  <s_lp_Force_Field>  (1317) 
OPLS_2005

>  <s_lp_Variant>  (1317) 
m_2230bdc____17849930____8678234-1

>  <s_lp_label>  (1317) 
1274_sdstereoexpander_1_neutralizer_1_epik_1_stereoizer_1

>  <s_m_source_file>  (1317) 
ATP-VSW-LIGPREP-003-in.maegz

>  <s_sd_BIOSOLVEIT.INFINISEE\_QUERY\_NAME>  (1317) 
Ref-Lig

>  <s_sd_BIOSOLVEIT.INFINISEE\_QUERY\_SMILES>  (1317) 
S(c1nc2c(cc1C[NH2+]Cc3ccc(cc3)C[NH+](C)C)cccc2)Cc4ccccc4

>  <s_sd_BIOSOLVEIT.INFINISEE\_REACTION\_NAME>  (1317) 
m_2230bdc

>  <s_sd_BIOSOLVEIT.INFINISEE\_REAGENT1\_SMILES>  (1317) 
[R1*]N1C(c2c(NC(=O)C1)cccc2)c3ccccc3

>  <s_sd_BIOSOLVEIT.INFINISEE\_REAGENT2\_SMILES>  (1317) 
[R1*]Cc1ccc(OC)cc1

>  <s_sd_BIOSOLVEIT.INFINISEE\_SPACE>  (1317) 
REALSpace_44bn_2023-08

>  <s_vsw_compound_code>  (1317) 
40739

>  <s_vsw_variant>  (1317) 
40739-1

>  <r_epik_Charging_Adjusted_Penalty>  (1317) 
0.0087634984339075902

>  <r_epik_Ionization_Penalty>  (1317) 
0.0088000000000000005

>  <r_epik_Ionization_Penalty_Charging>  (1317) 
0

>  <r_epik_Ionization_Penalty_Neutral>  (1317) 
0.0088000000000000005

>  <r_epik_State_Penalty>  (1317) 
0.0088000000000000005

>  <r_i_docking_score>  (1317) 
-2.0058696993345602

>  <r_i_glide_ecoul>  (1317) 
-3.0381777286529501

>  <r_i_glide_eff_state_penalty>  (1317) 
0.0088000000000000005

>  <r_i_glide_einternal>  (1317) 
4.82724809646606

>  <r_i_glide_emodel>  (1317) 
-32.339643384227301

>  <r_i_glide_energy>  (1317) 
-30.812210321426399

>  <r_i_glide_erotb>  (1317) 
0.44730476290996002

>  <r_i_glide_esite>  (1317) 
-0.182640096090676

>  <r_i_glide_evdw>  (1317) 
-27.774032592773398

>  <r_i_glide_gscore>  (1317) 
-2.0146696993345601

>  <r_i_glide_hbond>  (1317) 
-0.16

>  <r_i_glide_ligand_efficiency>  (1317) 
-0.074291470345724406

>  <r_i_glide_ligand_efficiency_ln>  (1317) 
-0.46693339665858202

>  <r_i_glide_ligand_efficiency_sa>  (1317) 
-0.22287441079232101

>  <r_i_glide_lipo>  (1317) 
-1.17978961337016

>  <r_i_glide_metal>  (1317) 
-0

>  <r_i_glide_rewards>  (1317) 
0.90488353615293304

>  <r_lp_Energy>  (1317) 
41.529494999999997

>  <r_lp_tautomer_probability>  (1317) 
1

>  <r_qp_ACxDN^.5/SA>  (1317) 
0.0083464999999999998

>  <r_qp_CIQPlogS>  (1317) 
-4.3040000000000003

>  <r_qp_EA(eV)>  (1317) 
0.29199999999999998

>  <r_qp_FISA>  (1317) 
62.841000000000001

>  <r_qp_FOSA>  (1317) 
146.31100000000001

>  <r_qp_IP(eV)>  (1317) 
8.9480000000000004

>  <r_qp_Jm>  (1317) 
0.029407093951434201

>  <r_qp_PISA>  (1317) 
419.85199999999998

>  <r_qp_PSA>  (1317) 
51.182000000000002

>  <r_qp_PercentHumanOralAbsorption>  (1317) 
100

>  <r_qp_QPPCaco>  (1317) 
626.43600000000004

>  <r_qp_QPPMDCK>  (1317) 
330.12400000000002

>  <r_qp_QPlogBB>  (1317) 
0.19400000000000001

>  <r_qp_QPlogHERG>  (1317) 
-6.774

>  <r_qp_QPlogKhsa>  (1317) 
0.60599999999999998

>  <r_qp_QPlogKp>  (1317) 
-2.9729999999999999

>  <r_qp_QPlogPC16>  (1317) 
12.552

>  <r_qp_QPlogPo/w>  (1317) 
3.8500000000000001

>  <r_qp_QPlogPoct>  (1317) 
18.449000000000002

>  <r_qp_QPlogPw>  (1317) 
10.49

>  <r_qp_QPlogS>  (1317) 
-4.1130000000000004

>  <r_qp_QPpolrz>  (1317) 
42.009

>  <r_qp_SASA>  (1317) 
629.00400000000002

>  <r_qp_SAamideO>  (1317) 
0

>  <r_qp_SAfluorine>  (1317) 
0

>  <r_qp_WPSA>  (1317) 
0

>  <r_qp_accptHB>  (1317) 
5.25

>  <r_qp_dip^2/V>  (1317) 
0.015379200000000001

>  <r_qp_dipole>  (1317) 
4.2080000000000002

>  <r_qp_donorHB>  (1317) 
1

>  <r_qp_glob>  (1317) 
0.84463100000000002

>  <r_qp_mol_MW>  (1317) 
358.43900000000002

>  <r_qp_volume>  (1317) 
1151.4179999999999

>  <r_sd_BIOSOLVEIT.INFINISEE\_FTREES\_SIMILARITY>  (1317) 
0.91000000000000003

>  <r_sd_BIOSOLVEIT.LOGP>  (1317) 
2.8218000000000001

>  <r_sd_BIOSOLVEIT.MOLECULAR\_WEIGHT>  (1317) 
359.447

>  <r_sd_BIOSOLVEIT.TPSA>  (1317) 
42.770000000000003

>  <i_epik_Tot_Q>  (1317) 
0

>  <i_epik_Tot_abs_Q>  (1317) 
0

>  <i_f3d_flags>  (1317) 
0

>  <i_i_glide_confnum>  (1317) 
5

>  <i_i_glide_lignum>  (1317) 
515

>  <i_i_glide_posenum>  (1317) 
19

>  <i_i_glide_rotatable_bonds>  (1317) 
4

>  <i_lp_mmshare_version>  (1317) 
65135

>  <i_m_ct_format>  (1317) 
2

>  <i_m_source_file_index>  (1317) 
1274

>  <i_qp_#NandO>  (1317) 
4

>  <i_qp_#acid>  (1317) 
0

>  <i_qp_#amide>  (1317) 
0

>  <i_qp_#amidine>  (1317) 
0

>  <i_qp_#amine>  (1317) 
1

>  <i_qp_#in34>  (1317) 
0

>  <i_qp_#in56>  (1317) 
18

>  <i_qp_#metab>  (1317) 
8

>  <i_qp_#nonHatm>  (1317) 
27

>  <i_qp_#noncon>  (1317) 
2

>  <i_qp_#ringatoms>  (1317) 
23

>  <i_qp_#rotor>  (1317) 
3

>  <i_qp_#rtvFG>  (1317) 
0

>  <i_qp_#stars>  (1317) 
0

>  <i_qp_CNS>  (1317) 
1

>  <i_qp_HumanOralAbsorption>  (1317) 
3

>  <i_qp_RuleOfFive>  (1317) 
0

>  <i_qp_RuleOfThree>  (1317) 
1

>  <i_sd_BIOSOLVEIT.INFINISEE\_REAGENT1\_NAME>  (1317) 
17849930

>  <i_sd_BIOSOLVEIT.INFINISEE\_REAGENT2\_NAME>  (1317) 
8678234

>  <i_sd_BIOSOLVEIT.INFINISEE\_RESULT\_RANK>  (1317) 
45115

>  <i_sd_version>  (1317) 
0

>  <b_lp_Chiralities_Consistent>  (1317) 
1

>  <b_sd_chiral_flag>  (1317) 
0

>  <canonical_id>  (1317) 
ATP-HTVS-CF29C556AE01

>  <compound_code>  (1317) 
40739

>  <title>  (1317) 
m_2230bdc____17849930____8678234

>  <variant>  (1317) 
40739-1

>  <source_file>  (1317) 
运行/运行/ATP-VSW/ATP-VSW-DOCK_HTVS_1-003_lib/ATP-VSW-DOCK_HTVS_1-003_lib.mae

>  <canonical_smiles>  (1317) 
COc1ccc(CN2CC(=O)Nc3ccccc3[C@H]2c2ccccc2)cc1

>  <scaffold>  (1317) 
O=C1CN(Cc2ccccc2)C(c2ccccc2)c2ccccc2N1

>  <molecular_formula>  (1317) 
C23H22N2O2

$$$$
ATP-HTVS-CF9A421CD50D
     RDKit          3D

 61 64  0  0  0  0  0  0  0  0999 V2000
  199.1544  189.2334  155.0183 F   0  0  0  0  0  0  0  0  0  0  0  0
  199.7807  189.0057  153.8413 C   0  0  0  0  0  0  0  0  0  0  0  0
  200.0942  187.6841  153.4484 C   0  0  0  0  0  0  0  0  0  0  0  0
  200.7890  187.4813  152.2323 C   0  0  0  0  0  0  0  0  0  0  0  0
  201.1539  188.5800  151.4245 C   0  0  0  0  0  0  0  0  0  0  0  0
  200.8311  189.8905  151.8226 C   0  0  0  0  0  0  0  0  0  0  0  0
  200.1498  190.1023  153.0343 C   0  0  0  0  0  0  0  0  0  0  0  0
  199.7882  186.5295  154.4003 C   0  0  1  0  0  0  0  0  0  0  0  0
  199.3867  185.3023  153.7018 N   0  0  0  0  0  0  0  0  0  0  0  0
  199.2043  184.0565  154.2794 C   0  0  0  0  0  0  0  0  0  0  0  0
  199.7127  183.8226  155.4857 N   0  0  0  0  0  0  0  0  0  0  0  0
  199.6379  182.6203  156.0535 C   0  0  0  0  0  0  0  0  0  0  0  0
  200.2073  182.4283  157.3267 N   0  0  0  0  0  0  0  0  0  0  0  0
  200.2884  183.5308  158.2841 C   0  0  1  0  0  0  0  0  0  0  0  0
  198.9881  184.2662  158.6152 C   0  0  0  0  0  0  0  0  0  0  0  0
  197.7379  183.7162  158.2866 C   0  0  0  0  0  0  0  0  0  0  0  0
  196.5244  184.3621  158.6151 C   0  0  0  0  0  0  0  0  0  0  0  0
  196.5797  185.6056  159.2847 C   0  0  0  0  0  0  0  0  0  0  0  0
  195.4361  186.2596  159.6183 F   0  0  0  0  0  0  0  0  0  0  0  0
  197.8251  186.1643  159.6308 C   0  0  0  0  0  0  0  0  0  0  0  0
  199.0315  185.5006  159.3056 C   0  0  0  0  0  0  0  0  0  0  0  0
  195.2025  183.6975  158.2389 C   0  0  1  0  0  0  0  0  0  0  0  0
  194.8368  182.5289  159.0455 N   0  0  0  0  0  0  0  0  0  0  0  0
  195.8524  181.4866  158.9834 C   0  0  2  0  0  0  0  0  0  0  0  0
  193.6061  181.9425  158.5250 C   0  0  2  0  0  0  0  0  0  0  0  0
  198.9656  181.5754  155.3898 C   0  0  0  0  0  0  0  0  0  0  0  0
  198.4211  181.8574  154.1128 C   0  0  0  0  0  0  0  0  0  0  0  0
  198.5730  183.1021  153.5817 N   0  0  0  0  0  0  0  0  0  0  0  0
  197.7247  180.8704  153.3802 C   0  0  0  0  0  0  0  0  0  0  0  0
  197.5648  179.5799  153.9465 C   0  0  0  0  0  0  0  0  0  0  0  0
  198.0890  179.2801  155.2261 C   0  0  0  0  0  0  0  0  0  0  0  0
  198.7904  180.2779  155.9450 C   0  0  0  0  0  0  0  0  0  0  0  0
  200.9892  186.3780  155.3870 C   0  0  2  0  0  0  0  0  0  0  0  0
  201.0779  186.4885  151.9188 H   0  0  0  0  0  0  0  0  0  0  0  0
  201.6844  188.4200  150.4967 H   0  0  0  0  0  0  0  0  0  0  0  0
  201.1068  190.7311  151.2005 H   0  0  0  0  0  0  0  0  0  0  0  0
  199.9117  191.1091  153.3465 H   0  0  0  0  0  0  0  0  0  0  0  0
  198.9023  186.8121  154.9704 H   0  0  0  0  0  0  0  0  0  0  0  0
  198.9321  185.4247  152.8049 H   0  0  0  0  0  0  0  0  0  0  0  0
  200.2258  181.4873  157.7162 H   0  0  0  0  0  0  0  0  0  0  0  0
  200.6859  183.1212  159.2100 H   0  0  0  0  0  0  0  0  0  0  0  0
  201.0272  184.2563  157.9474 H   0  0  0  0  0  0  0  0  0  0  0  0
  197.6932  182.7790  157.7477 H   0  0  0  0  0  0  0  0  0  0  0  0
  197.8586  187.1201  160.1401 H   0  0  0  0  0  0  0  0  0  0  0  0
  199.9808  185.9362  159.5939 H   0  0  0  0  0  0  0  0  0  0  0  0
  194.4059  184.4373  158.3211 H   0  0  0  0  0  0  0  0  0  0  0  0
  195.2506  183.4193  157.1868 H   0  0  0  0  0  0  0  0  0  0  0  0
  195.5288  180.5988  159.5250 H   0  0  0  0  0  0  0  0  0  0  0  0
  196.7777  181.8312  159.4423 H   0  0  0  0  0  0  0  0  0  0  0  0
  196.0669  181.2274  157.9447 H   0  0  0  0  0  0  0  0  0  0  0  0
  193.3607  181.0337  159.0764 H   0  0  0  0  0  0  0  0  0  0  0  0
  193.7113  181.6562  157.4781 H   0  0  0  0  0  0  0  0  0  0  0  0
  192.7664  182.6341  158.6017 H   0  0  0  0  0  0  0  0  0  0  0  0
  197.3114  181.0960  152.4046 H   0  0  0  0  0  0  0  0  0  0  0  0
  197.0282  178.8263  153.3753 H   0  0  0  0  0  0  0  0  0  0  0  0
  197.9466  178.2956  155.6671 H   0  0  0  0  0  0  0  0  0  0  0  0
  199.1642  180.0144  156.9283 H   0  0  0  0  0  0  0  0  0  0  0  0
  201.2412  187.3471  155.8342 H   0  0  0  0  0  0  0  0  0  0  0  0
  201.8666  186.0167  154.8433 H   0  0  0  0  0  0  0  0  0  0  0  0
  200.7940  185.7000  156.2150 H   0  0  0  0  0  0  0  0  0  0  0  0
  198.1809  183.2576  152.6516 H   0  0  0  0  0  0  0  0  0  0  0  0
  1  2  1  0
  2  3  1  0
  2  7  2  0
  3  4  2  0
  3  8  1  0
  4  5  1  0
  4 34  1  0
  5  6  2  0
  5 35  1  0
  6  7  1  0
  6 36  1  0
  7 37  1  0
  8  9  1  0
  8 33  1  0
  8 38  1  1
  9 10  1  0
  9 39  1  0
 10 11  1  0
 10 28  2  0
 11 12  2  0
 12 13  1  0
 12 26  1  0
 13 14  1  0
 13 40  1  0
 14 15  1  0
 14 41  1  1
 14 42  1  0
 15 16  2  0
 15 21  1  0
 16 17  1  0
 16 43  1  0
 17 18  2  0
 17 22  1  0
 18 19  1  0
 18 20  1  0
 20 21  2  0
 20 44  1  0
 21 45  1  0
 22 23  1  0
 22 46  1  6
 22 47  1  0
 23 24  1  0
 23 25  1  0
 24 48  1  1
 24 49  1  0
 24 50  1  0
 25 51  1  1
 25 52  1  0
 25 53  1  0
 26 27  1  0
 26 32  2  0
 27 28  1  0
 27 29  2  0
 28 61  1  0
 29 30  1  0
 29 54  1  0
 30 31  2  0
 30 55  1  0
 31 32  1  0
 31 56  1  0
 32 57  1  0
 33 58  1  1
 33 59  1  0
 33 60  1  0
M  CHG  1  28   1
M  END
>  <s_epik_cmdline>  (1318) 
J2VwaWtfcHl0aG9uJywgJy1waCcsICc3LjAwMDAwMCcsICctcGh0JywgJzIuMDAwMDAwJywgJy1tcycsICcxNicsICctdG4nLCAnOCcsICctbWEnLCAnMjAwJywgJy1pbWFlJywgJzxpbmZpbGUubWFlPicsICctb21hZScsICc8b3V0ZmlsZS5tYWU+Jw==

>  <s_epik_input>  (1318) 
W2NIXTFbY0hdW2NIXVtjSF1jKGMxRilbQ0BIXShbQ0gzXSlbTkhdYyhuYyhjMjMpW2NIXVtjSF1bY0hdW2NIXTMpbmMyW05IXVtDSDJdYzRbY0hdYyhjKEYpW2NIXVtjSF00KVtDSDJdTihbQ0gzXSlbQ0gzXQ==

>  <s_i_glide_gridfile>  (1318) 
ATP-Grid

>  <s_lp_Force_Field>  (1318) 
OPLS_2005

>  <s_lp_Variant>  (1318) 
m_282030aaa____21931854____22360182____21968946-4

>  <s_lp_label>  (1318) 
1045_sdstereoexpander_2_neutralizer_1_epik_2_stereoizer_1

>  <s_m_source_file>  (1318) 
ATP-VSW-LIGPREP-002-in.maegz

>  <s_sd_BIOSOLVEIT.INFINISEE\_QUERY\_NAME>  (1318) 
Ref-Lig

>  <s_sd_BIOSOLVEIT.INFINISEE\_QUERY\_SMILES>  (1318) 
S(c1nc2c(cc1C[NH2+]Cc3ccc(cc3)C[NH+](C)C)cccc2)Cc4ccccc4

>  <s_sd_BIOSOLVEIT.INFINISEE\_REACTION\_NAME>  (1318) 
m_282030aaa

>  <s_sd_BIOSOLVEIT.INFINISEE\_REAGENT1\_SMILES>  (1318) 
[R1*]NC(c1c(F)cccc1)C

>  <s_sd_BIOSOLVEIT.INFINISEE\_REAGENT2\_SMILES>  (1318) 
[R2*]c1nc([R1*])c2c(n1)cccc2

>  <s_sd_BIOSOLVEIT.INFINISEE\_REAGENT3\_SMILES>  (1318) 
[R2*]NCc1cc(c(F)cc1)CN(C)C

>  <s_sd_BIOSOLVEIT.INFINISEE\_SPACE>  (1318) 
REALSpace_44bn_2023-08

>  <s_vsw_compound_code>  (1318) 
33410

>  <s_vsw_variant>  (1318) 
33410-4

>  <r_epik_Charging_Adjusted_Penalty>  (1318) 
1.53064176895202

>  <r_epik_Ionization_Penalty>  (1318) 
1.4965999999999999

>  <r_epik_Ionization_Penalty_Charging>  (1318) 
0.0247

>  <r_epik_Ionization_Penalty_Neutral>  (1318) 
1.4719

>  <r_epik_State_Penalty>  (1318) 
1.506

>  <r_i_docking_score>  (1318) 
-1.0574036221568801

>  <r_i_glide_ecoul>  (1318) 
-3.5987784862518302

>  <r_i_glide_eff_state_penalty>  (1318) 
1.506

>  <r_i_glide_einternal>  (1318) 
2.6649115085601802

>  <r_i_glide_emodel>  (1318) 
-36.2855250187447

>  <r_i_glide_energy>  (1318) 
-29.581932783126799

>  <r_i_glide_erotb>  (1318) 
0.69706100735996501

>  <r_i_glide_esite>  (1318) 
-0.000637974081450174

>  <r_i_glide_evdw>  (1318) 
-25.983154296875

>  <r_i_glide_gscore>  (1318) 
-2.5634036221568799

>  <r_i_glide_hbond>  (1318) 
0

>  <r_i_glide_ligand_efficiency>  (1318) 
-0.032042534004754

>  <r_i_glide_ligand_efficiency_ln>  (1318) 
-0.23516109062474799

>  <r_i_glide_ligand_efficiency_sa>  (1318) 
-0.10277752772052

>  <r_i_glide_lipo>  (1318) 
-0.76689245524043004

>  <r_i_glide_metal>  (1318) 
-0

>  <r_i_glide_rewards>  (1318) 
-0.65395971241344197

>  <r_lp_Energy>  (1318) 
16.563700999999998

>  <r_qp_ACxDN^.5/SA>  (1318) 
0.0110127

>  <r_qp_CIQPlogS>  (1318) 
-6.5039999999999996

>  <r_qp_EA(eV)>  (1318) 
0.78900000000000003

>  <r_qp_FISA>  (1318) 
36.875

>  <r_qp_FOSA>  (1318) 
243.697

>  <r_qp_IP(eV)>  (1318) 
8.2400000000000002

>  <r_qp_Jm>  (1318) 
0.32757589136220999

>  <r_qp_PISA>  (1318) 
314.18799999999999

>  <r_qp_PSA>  (1318) 
45.609999999999999

>  <r_qp_PercentHumanOralAbsorption>  (1318) 
100

>  <r_qp_QPPCaco>  (1318) 
1104.365

>  <r_qp_QPPMDCK>  (1318) 
1106.777

>  <r_qp_QPlogBB>  (1318) 
0.28699999999999998

>  <r_qp_QPlogHERG>  (1318) 
-5.5069999999999997

>  <r_qp_QPlogKhsa>  (1318) 
0.78900000000000003

>  <r_qp_QPlogKp>  (1318) 
-2.387

>  <r_qp_QPlogPC16>  (1318) 
12.824

>  <r_qp_QPlogPo/w>  (1318) 
4.9210000000000003

>  <r_qp_QPlogPoct>  (1318) 
20.097000000000001

>  <r_qp_QPlogPw>  (1318) 
9.7579999999999991

>  <r_qp_QPlogS>  (1318) 
-3.7490000000000001

>  <r_qp_QPpolrz>  (1318) 
43.271999999999998

>  <r_qp_SASA>  (1318) 
642.08199999999999

>  <r_qp_SAamideO>  (1318) 
0

>  <r_qp_SAfluorine>  (1318) 
47.322000000000003

>  <r_qp_WPSA>  (1318) 
47.322000000000003

>  <r_qp_accptHB>  (1318) 
5

>  <r_qp_dip^2/V>  (1318) 
0.0073039000000000003

>  <r_qp_dipole>  (1318) 
3.0680000000000001

>  <r_qp_donorHB>  (1318) 
2

>  <r_qp_glob>  (1318) 
0.89181929999999998

>  <r_qp_mol_MW>  (1318) 
447.52999999999997

>  <r_qp_volume>  (1318) 
1288.4090000000001

>  <r_sd_BIOSOLVEIT.INFINISEE\_FTREES\_SIMILARITY>  (1318) 
0.91500000000000004

>  <r_sd_BIOSOLVEIT.LOGP>  (1318) 
4.3376999999999999

>  <r_sd_BIOSOLVEIT.MOLECULAR\_WEIGHT>  (1318) 
448.53800000000001

>  <r_sd_BIOSOLVEIT.TPSA>  (1318) 
54.280000000000001

>  <i_epik_Tot_Q>  (1318) 
1

>  <i_epik_Tot_abs_Q>  (1318) 
1

>  <i_f3d_flags>  (1318) 
0

>  <i_i_glide_confnum>  (1318) 
11

>  <i_i_glide_lignum>  (1318) 
342

>  <i_i_glide_posenum>  (1318) 
1

>  <i_i_glide_rotatable_bonds>  (1318) 
8

>  <i_lp_mmshare_version>  (1318) 
65135

>  <i_m_ct_format>  (1318) 
2

>  <i_m_source_file_index>  (1318) 
1045

>  <i_qp_#NandO>  (1318) 
5

>  <i_qp_#acid>  (1318) 
0

>  <i_qp_#amide>  (1318) 
0

>  <i_qp_#amidine>  (1318) 
0

>  <i_qp_#amine>  (1318) 
1

>  <i_qp_#in34>  (1318) 
0

>  <i_qp_#in56>  (1318) 
22

>  <i_qp_#metab>  (1318) 
5

>  <i_qp_#nonHatm>  (1318) 
33

>  <i_qp_#noncon>  (1318) 
0

>  <i_qp_#ringatoms>  (1318) 
22

>  <i_qp_#rotor>  (1318) 
8

>  <i_qp_#rtvFG>  (1318) 
0

>  <i_qp_#stars>  (1318) 
0

>  <i_qp_CNS>  (1318) 
1

>  <i_qp_HumanOralAbsorption>  (1318) 
3

>  <i_qp_RuleOfFive>  (1318) 
0

>  <i_qp_RuleOfThree>  (1318) 
0

>  <i_sd_BIOSOLVEIT.INFINISEE\_REAGENT1\_NAME>  (1318) 
21931854

>  <i_sd_BIOSOLVEIT.INFINISEE\_REAGENT2\_NAME>  (1318) 
22360182

>  <i_sd_BIOSOLVEIT.INFINISEE\_REAGENT3\_NAME>  (1318) 
21968946

>  <i_sd_BIOSOLVEIT.INFINISEE\_RESULT\_RANK>  (1318) 
29377

>  <i_sd_version>  (1318) 
0

>  <b_lp_Chiralities_Consistent>  (1318) 
1

>  <b_sd_chiral_flag>  (1318) 
0

>  <canonical_id>  (1318) 
ATP-HTVS-CF9A421CD50D

>  <compound_code>  (1318) 
33410

>  <title>  (1318) 
m_282030aaa____21931854____22360182____21968946

>  <variant>  (1318) 
33410-4

>  <source_file>  (1318) 
运行/运行/ATP-VSW/ATP-VSW-DOCK_HTVS_1-002_lib.maegz

>  <canonical_smiles>  (1318) 
C[C@H](Nc1nc(NCc2ccc(F)c(CN(C)C)c2)c2ccccc2[nH+]1)c1ccccc1F

>  <scaffold>  (1318) 
c1ccc(CNc2nc(NCc3ccccc3)c3ccccc3[nH+]2)cc1

>  <molecular_formula>  (1318) 
C26H28F2N5+

$$$$
ATP-HTVS-CFB2EA2F52FD
     RDKit          3D

 67 70  0  0  0  0  0  0  0  0999 V2000
  193.5534  184.6385  160.1434 F   0  0  0  0  0  0  0  0  0  0  0  0
  194.6697  184.2004  159.5023 C   0  0  0  0  0  0  0  0  0  0  0  0
  195.8522  184.9723  159.5235 C   0  0  0  0  0  0  0  0  0  0  0  0
  195.8849  186.2431  160.2240 C   0  0  0  0  0  0  0  0  0  0  0  0
  195.9090  187.2552  160.7865 N   0  0  0  0  0  0  0  0  0  0  0  0
  197.0131  184.5047  158.8684 C   0  0  0  0  0  0  0  0  0  0  0  0
  196.9973  183.2644  158.1987 C   0  0  0  0  0  0  0  0  0  0  0  0
  195.8194  182.4904  158.1817 C   0  0  0  0  0  0  0  0  0  0  0  0
  194.6592  182.9588  158.8318 C   0  0  0  0  0  0  0  0  0  0  0  0
  198.2490  182.7571  157.5018 C   0  0  1  0  0  0  0  0  0  0  0  0
  198.3742  183.3669  156.1050 C   0  0  0  0  0  0  0  0  0  0  0  0
  199.0435  184.3879  155.9489 O   0  0  0  0  0  0  0  0  0  0  0  0
  197.7388  182.7040  155.1245 N   0  0  0  0  0  0  0  0  0  0  0  0
  197.6012  183.0452  153.7522 C   0  0  0  0  0  0  0  0  0  0  0  0
  197.9393  184.2656  153.2663 N   0  0  0  0  0  0  0  0  0  0  0  0
  197.7869  184.5490  151.9591 C   0  0  0  0  0  0  0  0  0  0  0  0
  197.2689  183.5986  151.0460 C   0  0  0  0  0  0  0  0  0  0  0  0
  196.9054  182.3357  151.5380 C   0  0  0  0  0  0  0  0  0  0  0  0
  197.0692  182.0339  152.9087 C   0  0  0  0  0  0  0  0  0  0  0  0
  196.7115  180.7764  153.4392 N   0  0  0  0  0  0  0  0  0  0  0  0
  196.3900  179.6445  152.5806 C   0  0  1  0  0  0  0  0  0  0  0  0
  197.5565  179.1884  151.7321 C   0  0  0  0  0  0  0  0  0  0  0  0
  197.4925  179.3545  150.3257 C   0  0  0  0  0  0  0  0  0  0  0  0
  198.5814  179.0015  149.5408 C   0  0  0  0  0  0  0  0  0  0  0  0
  199.7872  178.5783  150.1669 C   0  0  0  0  0  0  0  0  0  0  0  0
  199.8260  178.3397  151.5646 C   0  0  0  0  0  0  0  0  0  0  0  0
  198.7201  178.6562  152.3333 C   0  0  0  0  0  0  0  0  0  0  0  0
  198.5004  179.0770  148.0189 C   0  0  1  0  0  0  0  0  0  0  0  0
  197.8770  177.9317  147.3493 N   0  0  0  0  0  0  0  0  0  0  0  0
  198.6328  176.6713  147.5549 C   0  0  1  0  0  0  0  0  0  0  0  0
  198.5471  176.0756  148.9771 C   0  0  2  0  0  0  0  0  0  0  0  0
  197.7678  178.2115  145.9010 C   0  0  1  0  0  0  0  0  0  0  0  0
  199.1358  178.4461  145.2206 C   0  0  2  0  0  0  0  0  0  0  0  0
  197.1155  183.9006  149.6775 C   0  0  0  0  0  0  0  0  0  0  0  0
  197.4745  185.1731  149.2018 C   0  0  0  0  0  0  0  0  0  0  0  0
  197.9889  186.1268  150.0975 C   0  0  0  0  0  0  0  0  0  0  0  0
  198.1435  185.8175  151.4599 C   0  0  0  0  0  0  0  0  0  0  0  0
  197.9125  185.1018  158.8784 H   0  0  0  0  0  0  0  0  0  0  0  0
  195.7916  181.5392  157.6722 H   0  0  0  0  0  0  0  0  0  0  0  0
  193.7582  182.3653  158.8111 H   0  0  0  0  0  0  0  0  0  0  0  0
  199.1303  183.0119  158.0906 H   0  0  0  0  0  0  0  0  0  0  0  0
  198.2233  181.6687  157.4342 H   0  0  0  0  0  0  0  0  0  0  0  0
  197.2981  181.8415  155.3961 H   0  0  0  0  0  0  0  0  0  0  0  0
  196.4968  181.6218  150.8466 H   0  0  0  0  0  0  0  0  0  0  0  0
  196.7687  180.5947  154.4277 H   0  0  0  0  0  0  0  0  0  0  0  0
  196.0761  178.8154  153.2064 H   0  0  0  0  0  0  0  0  0  0  0  0
  195.5327  179.8968  151.9568 H   0  0  0  0  0  0  0  0  0  0  0  0
  196.5904  179.6901  149.8592 H   0  0  0  0  0  0  0  0  0  0  0  0
  200.6078  178.2057  149.5426 H   0  0  0  0  0  0  0  0  0  0  0  0
  200.6576  177.8135  151.9795 H   0  0  0  0  0  0  0  0  0  0  0  0
  198.7479  178.5121  153.4019 H   0  0  0  0  0  0  0  0  0  0  0  0
  197.9403  179.9756  147.7699 H   0  0  0  0  0  0  0  0  0  0  0  0
  199.5209  179.1986  147.6652 H   0  0  0  0  0  0  0  0  0  0  0  0
  198.2284  175.8896  146.8682 H   0  0  0  0  0  0  0  0  0  0  0  0
  199.6827  176.8256  147.2586 H   0  0  0  0  0  0  0  0  0  0  0  0
  199.0411  175.0935  149.0100 H   0  0  0  0  0  0  0  0  0  0  0  0
  197.5108  176.0724  149.3366 H   0  0  0  0  0  0  0  0  0  0  0  0
  199.1131  176.5601  149.6616 H   0  0  0  0  0  0  0  0  0  0  0  0
  197.2461  177.4127  145.3730 H   0  0  0  0  0  0  0  0  0  0  0  0
  197.1508  179.0891  145.7226 H   0  0  0  0  0  0  0  0  0  0  0  0
  199.0390  178.6334  144.1491 H   0  0  0  0  0  0  0  0  0  0  0  0
  199.8026  177.5868  145.3123 H   0  0  0  0  0  0  0  0  0  0  0  0
  199.6490  179.3155  145.6331 H   0  0  0  0  0  0  0  0  0  0  0  0
  196.7295  183.1653  148.9856 H   0  0  0  0  0  0  0  0  0  0  0  0
  197.3589  185.4176  148.1556 H   0  0  0  0  0  0  0  0  0  0  0  0
  198.2681  187.0995  149.7338 H   0  0  0  0  0  0  0  0  0  0  0  0
  198.5310  186.5612  152.1402 H   0  0  0  0  0  0  0  0  0  0  0  0
  1  2  1  0
  2  3  2  0
  2  9  1  0
  3  4  1  0
  3  6  1  0
  4  5  3  0
  6  7  2  0
  6 38  1  0
  7  8  1  0
  7 10  1  0
  8  9  2  0
  8 39  1  0
  9 40  1  0
 10 11  1  0
 10 41  1  1
 10 42  1  0
 11 12  2  0
 11 13  1  0
 13 14  1  0
 13 43  1  0
 14 15  2  0
 14 19  1  0
 15 16  1  0
 16 17  1  0
 16 37  2  0
 17 18  1  0
 17 34  2  0
 18 19  2  0
 18 44  1  0
 19 20  1  0
 20 21  1  0
 20 45  1  0
 21 22  1  0
 21 46  1  1
 21 47  1  0
 22 23  2  0
 22 27  1  0
 23 24  1  0
 23 48  1  0
 24 25  2  0
 24 28  1  0
 25 26  1  0
 25 49  1  0
 26 27  2  0
 26 50  1  0
 27 51  1  0
 28 29  1  0
 28 52  1  1
 28 53  1  0
 29 30  1  0
 29 32  1  0
 30 31  1  0
 30 54  1  6
 30 55  1  0
 31 56  1  6
 31 57  1  0
 31 58  1  0
 32 33  1  0
 32 59  1  6
 32 60  1  0
 33 61  1  6
 33 62  1  0
 33 63  1  0
 34 35  1  0
 34 64  1  0
 35 36  2  0
 35 65  1  0
 36 37  1  0
 36 66  1  0
 37 67  1  0
M  END
>  <s_epik_cmdline>  (1319) 
J2VwaWtfcHl0aG9uJywgJy1waCcsICc3LjAwMDAwMCcsICctcGh0JywgJzIuMDAwMDAwJywgJy1tcycsICcxNicsICctdG4nLCAnOCcsICctbWEnLCAnMjAwJywgJy1pbWFlJywgJzxpbmZpbGUubWFlPicsICctb21hZScsICc8b3V0ZmlsZS5tYWU+Jw==

>  <s_epik_input>  (1319) 
RmMxYyhDI04pW2NIXWMoW2NIXVtjSF0xKVtDSDJdQyg9TylbTkhdYyhuMiljKFtjSF1jKGMyMylbY0hdW2NIXVtjSF1bY0hdMylbTkhdW0NIMl1jNFtjSF1jKFtjSF1bY0hdW2NIXTQpW0NIMl1OKFtDSDJdW0NIM10pW0NIMl1bQ0gzXQ==

>  <s_i_glide_gridfile>  (1319) 
ATP-Grid

>  <s_lp_Force_Field>  (1319) 
OPLS_2005

>  <s_lp_Variant>  (1319) 
rxn502b____EMOL44690203____EMOL44466703____EMOL44153840-2

>  <s_lp_label>  (1319) 
2550_sdstereoexpander_1_neutralizer_1_epik_2_stereoizer_1

>  <s_m_source_file>  (1319) 
ATP-VSW-LIGPREP-002-in.maegz

>  <s_sd_BIOSOLVEIT.INFINISEE\_QUERY\_NAME>  (1319) 
Ref-Lig

>  <s_sd_BIOSOLVEIT.INFINISEE\_QUERY\_SMILES>  (1319) 
S(c1nc2c(cc1C[NH2+]Cc3ccc(cc3)C[NH+](C)C)cccc2)Cc4ccccc4

>  <s_sd_BIOSOLVEIT.INFINISEE\_REACTION\_NAME>  (1319) 
rxn502b

>  <s_sd_BIOSOLVEIT.INFINISEE\_REAGENT1\_NAME>  (1319) 
EMOL44690203

>  <s_sd_BIOSOLVEIT.INFINISEE\_REAGENT1\_SMILES>  (1319) 
Fc1c(C#N)cc(cc1)CC(=O)O

>  <s_sd_BIOSOLVEIT.INFINISEE\_REAGENT2\_NAME>  (1319) 
EMOL44466703

>  <s_sd_BIOSOLVEIT.INFINISEE\_REAGENT2\_SMILES>  (1319) 
Brc1c(nc2c(c1)cccc2)N

>  <s_sd_BIOSOLVEIT.INFINISEE\_REAGENT3\_NAME>  (1319) 
EMOL44153840

>  <s_sd_BIOSOLVEIT.INFINISEE\_REAGENT3\_SMILES>  (1319) 
N(Cc1cc(ccc1)CN)(CC)CC

>  <s_sd_BIOSOLVEIT.INFINISEE\_SPACE>  (1319) 
eXplore_7tr_2022-12

>  <s_vsw_compound_code>  (1319) 
81570

>  <s_vsw_variant>  (1319) 
81570-2

>  <r_epik_Charging_Adjusted_Penalty>  (1319) 
2.08667621699936

>  <r_epik_Ionization_Penalty>  (1319) 
2.0869

>  <r_epik_Ionization_Penalty_Charging>  (1319) 
0

>  <r_epik_Ionization_Penalty_Neutral>  (1319) 
2.0869

>  <r_epik_State_Penalty>  (1319) 
2.0867

>  <r_i_docking_score>  (1319) 
-2.4207165502017398

>  <r_i_glide_ecoul>  (1319) 
-2.39876437187195

>  <r_i_glide_eff_state_penalty>  (1319) 
2.0867

>  <r_i_glide_einternal>  (1319) 
2.3016881942749001

>  <r_i_glide_emodel>  (1319) 
-60.048014828057703

>  <r_i_glide_energy>  (1319) 
-47.455610990524299

>  <r_i_glide_erotb>  (1319) 
0.74702967543385901

>  <r_i_glide_esite>  (1319) 
-0.028253003743417

>  <r_i_glide_evdw>  (1319) 
-45.056846618652301

>  <r_i_glide_gscore>  (1319) 
-4.5074165502017403

>  <r_i_glide_hbond>  (1319) 
0

>  <r_i_glide_ligand_efficiency>  (1319) 
-0.065424771627074205

>  <r_i_glide_ligand_efficiency_ln>  (1319) 
-0.52499667009112605

>  <r_i_glide_ligand_efficiency_sa>  (1319) 
-0.21800985339227699

>  <r_i_glide_lipo>  (1319) 
-2.2004587051051798

>  <r_i_glide_metal>  (1319) 
-0

>  <r_i_glide_rewards>  (1319) 
-0.41307753007359699

>  <r_lp_Energy>  (1319) 
31.947519

>  <r_qp_ACxDN^.5/SA>  (1319) 
0.0144137

>  <r_qp_CIQPlogS>  (1319) 
-7.306

>  <r_qp_EA(eV)>  (1319) 
1.069

>  <r_qp_FISA>  (1319) 
85.016999999999996

>  <r_qp_FOSA>  (1319) 
242.88200000000001

>  <r_qp_IP(eV)>  (1319) 
8.1910000000000007

>  <r_qp_Jm>  (1319) 
0.0022605613150104001

>  <r_qp_PISA>  (1319) 
415.416

>  <r_qp_PSA>  (1319) 
83.296999999999997

>  <r_qp_PercentHumanOralAbsorption>  (1319) 
100

>  <r_qp_QPPCaco>  (1319) 
385.99400000000003

>  <r_qp_QPPMDCK>  (1319) 
330.61399999999998

>  <r_qp_QPlogBB>  (1319) 
-0.44800000000000001

>  <r_qp_QPlogHERG>  (1319) 
-7.2039999999999997

>  <r_qp_QPlogKhsa>  (1319) 
0.69699999999999995

>  <r_qp_QPlogKp>  (1319) 
-2.629

>  <r_qp_QPlogPC16>  (1319) 
16.036000000000001

>  <r_qp_QPlogPo/w>  (1319) 
4.9260000000000002

>  <r_qp_QPlogPoct>  (1319) 
24.831

>  <r_qp_QPlogPw>  (1319) 
13.409000000000001

>  <r_qp_QPlogS>  (1319) 
-5.7110000000000003

>  <r_qp_QPpolrz>  (1319) 
51.831000000000003

>  <r_qp_SASA>  (1319) 
784.92700000000002

>  <r_qp_SAamideO>  (1319) 
0

>  <r_qp_SAfluorine>  (1319) 
41.612000000000002

>  <r_qp_WPSA>  (1319) 
41.612000000000002

>  <r_qp_accptHB>  (1319) 
8

>  <r_qp_dip^2/V>  (1319) 
0.010137999999999999

>  <r_qp_dipole>  (1319) 
3.9340000000000002

>  <r_qp_donorHB>  (1319) 
2

>  <r_qp_glob>  (1319) 
0.8167508

>  <r_qp_mol_MW>  (1319) 
495.59800000000001

>  <r_qp_volume>  (1319) 
1526.2670000000001

>  <r_sd_BIOSOLVEIT.INFINISEE\_FTREES\_SIMILARITY>  (1319) 
0.91300000000000003

>  <r_sd_BIOSOLVEIT.LOGP>  (1319) 
4.4635800000000003

>  <r_sd_BIOSOLVEIT.MOLECULAR\_WEIGHT>  (1319) 
496.60700000000003

>  <r_sd_BIOSOLVEIT.TPSA>  (1319) 
82.25

>  <i_epik_Tot_Q>  (1319) 
0

>  <i_epik_Tot_abs_Q>  (1319) 
0

>  <i_f3d_flags>  (1319) 
0

>  <i_i_glide_confnum>  (1319) 
2

>  <i_i_glide_lignum>  (1319) 
1132

>  <i_i_glide_posenum>  (1319) 
2

>  <i_i_glide_rotatable_bonds>  (1319) 
11

>  <i_lp_mmshare_version>  (1319) 
65135

>  <i_m_ct_format>  (1319) 
2

>  <i_m_source_file_index>  (1319) 
2550

>  <i_qp_#NandO>  (1319) 
6

>  <i_qp_#acid>  (1319) 
0

>  <i_qp_#amide>  (1319) 
0

>  <i_qp_#amidine>  (1319) 
0

>  <i_qp_#amine>  (1319) 
1

>  <i_qp_#in34>  (1319) 
0

>  <i_qp_#in56>  (1319) 
22

>  <i_qp_#metab>  (1319) 
6

>  <i_qp_#nonHatm>  (1319) 
37

>  <i_qp_#noncon>  (1319) 
0

>  <i_qp_#ringatoms>  (1319) 
22

>  <i_qp_#rotor>  (1319) 
11

>  <i_qp_#rtvFG>  (1319) 
0

>  <i_qp_#stars>  (1319) 
0

>  <i_qp_CNS>  (1319) 
1

>  <i_qp_HumanOralAbsorption>  (1319) 
3

>  <i_qp_RuleOfFive>  (1319) 
0

>  <i_qp_RuleOfThree>  (1319) 
1

>  <i_sd_BIOSOLVEIT.INFINISEE\_RESULT\_RANK>  (1319) 
35672

>  <i_sd_version>  (1319) 
0

>  <b_lp_Chiralities_Consistent>  (1319) 
1

>  <b_sd_chiral_flag>  (1319) 
0

>  <canonical_id>  (1319) 
ATP-HTVS-CFB2EA2F52FD

>  <compound_code>  (1319) 
81570

>  <title>  (1319) 
rxn502b____EMOL44690203____EMOL44466703____EMOL44153840

>  <variant>  (1319) 
81570-2

>  <source_file>  (1319) 
运行/运行/ATP-VSW/ATP-VSW-DOCK_HTVS_1-002_lib.maegz

>  <canonical_smiles>  (1319) 
CCN(CC)Cc1cccc(CNc2cc3ccccc3nc2NC(=O)Cc2ccc(F)c(C#N)c2)c1

>  <scaffold>  (1319) 
O=C(Cc1ccccc1)Nc1nc2ccccc2cc1NCc1ccccc1

>  <molecular_formula>  (1319) 
C30H30FN5O

$$$$
ATP-HTVS-D0257FD59117
     RDKit          3D

 64 67  0  0  0  0  0  0  0  0999 V2000
  196.5724  185.9342  160.0217 Cl  0  0  0  0  0  0  0  0  0  0  0  0
  195.7411  184.5316  159.4644 C   0  0  0  0  0  0  0  0  0  0  0  0
  196.4330  183.3689  159.0679 C   0  0  0  0  0  0  0  0  0  0  0  0
  195.7123  182.2233  158.6384 C   0  0  0  0  0  0  0  0  0  0  0  0
  194.3021  182.2656  158.5722 C   0  0  0  0  0  0  0  0  0  0  0  0
  193.5936  181.0987  158.2158 N   0  0  0  0  0  0  0  0  0  0  0  0
  193.6312  183.4510  158.9231 C   0  0  0  0  0  0  0  0  0  0  0  0
  194.3478  184.5594  159.4107 C   0  0  0  0  0  0  0  0  0  0  0  0
  197.9422  183.2711  159.1548 C   0  0  1  0  0  0  0  0  0  0  0  0
  198.6134  183.1758  157.8766 N   0  0  0  0  0  0  0  0  0  0  0  0
  198.5121  184.2787  157.0230 C   0  0  0  0  0  0  0  0  0  0  0  0
  198.8246  185.4865  157.5219 N   0  0  0  0  0  0  0  0  0  0  0  0
  198.8520  186.5535  156.7155 C   0  0  0  0  0  0  0  0  0  0  0  0
  198.5182  186.4773  155.4179 N   0  0  0  0  0  0  0  0  0  0  0  0
  198.1583  185.2929  154.8858 C   0  0  0  0  0  0  0  0  0  0  0  0
  198.1673  184.1189  155.6743 C   0  0  0  0  0  0  0  0  0  0  0  0
  197.8081  182.8785  155.1151 C   0  0  0  0  0  0  0  0  0  0  0  0
  197.4318  182.8037  153.7605 C   0  0  0  0  0  0  0  0  0  0  0  0
  197.4099  183.9788  152.9711 C   0  0  0  0  0  0  0  0  0  0  0  0
  197.7912  185.2206  153.5292 C   0  0  0  0  0  0  0  0  0  0  0  0
  199.2469  187.7846  157.2069 N   0  0  0  0  0  0  0  0  0  0  0  0
  199.7175  188.0726  158.5598 C   0  0  1  0  0  0  0  0  0  0  0  0
  201.0175  187.3886  158.9552 C   0  0  0  0  0  0  0  0  0  0  0  0
  200.9816  186.2086  159.7263 C   0  0  0  0  0  0  0  0  0  0  0  0
  202.1779  185.5430  160.0772 C   0  0  0  0  0  0  0  0  0  0  0  0
  203.4163  186.0846  159.6763 C   0  0  0  0  0  0  0  0  0  0  0  0
  203.4579  187.2708  158.9194 C   0  0  0  0  0  0  0  0  0  0  0  0
  202.2629  187.9224  158.5597 C   0  0  0  0  0  0  0  0  0  0  0  0
  202.1328  184.2438  160.8631 C   0  0  1  0  0  0  0  0  0  0  0  0
  202.4673  183.0564  160.0282 N   0  0  1  0  0  0  0  0  0  0  0  0
  202.6387  181.8405  160.8601 C   0  0  1  0  0  0  0  0  0  0  0  0
  203.2238  180.6505  160.0932 C   0  0  2  0  0  0  0  0  0  0  0  0
  201.4489  182.8330  158.9835 C   0  0  2  0  0  0  0  0  0  0  0  0
  196.2421  181.3114  158.3805 H   0  0  0  0  0  0  0  0  0  0  0  0
  192.6406  181.1867  157.8655 H   0  0  0  0  0  0  0  0  0  0  0  0
  194.1327  180.3488  157.7984 H   0  0  0  0  0  0  0  0  0  0  0  0
  192.5572  183.5077  158.8360 H   0  0  0  0  0  0  0  0  0  0  0  0
  193.8358  185.4431  159.7570 H   0  0  0  0  0  0  0  0  0  0  0  0
  198.3741  184.0721  159.7626 H   0  0  0  0  0  0  0  0  0  0  0  0
  198.1084  182.3485  159.6999 H   0  0  0  0  0  0  0  0  0  0  0  0
  198.5259  182.2698  157.4362 H   0  0  0  0  0  0  0  0  0  0  0  0
  197.7844  181.9731  155.7018 H   0  0  0  0  0  0  0  0  0  0  0  0
  197.1184  181.8545  153.3411 H   0  0  0  0  0  0  0  0  0  0  0  0
  197.0807  183.9184  151.9362 H   0  0  0  0  0  0  0  0  0  0  0  0
  197.7467  186.1169  152.9241 H   0  0  0  0  0  0  0  0  0  0  0  0
  199.1910  188.5712  156.5794 H   0  0  0  0  0  0  0  0  0  0  0  0
  199.8581  189.1542  158.6550 H   0  0  0  0  0  0  0  0  0  0  0  0
  198.9381  187.8140  159.2786 H   0  0  0  0  0  0  0  0  0  0  0  0
  200.0283  185.8054  160.0228 H   0  0  0  0  0  0  0  0  0  0  0  0
  204.3387  185.5882  159.9437 H   0  0  0  0  0  0  0  0  0  0  0  0
  204.4143  187.6859  158.6235 H   0  0  0  0  0  0  0  0  0  0  0  0
  202.3048  188.8349  157.9764 H   0  0  0  0  0  0  0  0  0  0  0  0
  202.8291  184.3322  161.6992 H   0  0  0  0  0  0  0  0  0  0  0  0
  201.1441  184.1371  161.3137 H   0  0  0  0  0  0  0  0  0  0  0  0
  203.2962  182.0845  161.6910 H   0  0  0  0  0  0  0  0  0  0  0  0
  201.6830  181.5622  161.3027 H   0  0  0  0  0  0  0  0  0  0  0  0
  203.4633  179.8342  160.7641 H   0  0  0  0  0  0  0  0  0  0  0  0
  204.1170  180.9499  159.5522 H   0  0  0  0  0  0  0  0  0  0  0  0
  202.5289  180.2498  159.3619 H   0  0  0  0  0  0  0  0  0  0  0  0
  200.5347  182.5813  159.5180 H   0  0  0  0  0  0  0  0  0  0  0  0
  201.6876  182.0195  158.3000 H   0  0  0  0  0  0  0  0  0  0  0  0
  201.2838  183.7185  158.3699 H   0  0  0  0  0  0  0  0  0  0  0  0
  198.5035  187.3016  154.8208 H   0  0  0  0  0  0  0  0  0  0  0  0
  203.3446  183.2605  159.5683 H   0  0  0  0  0  0  0  0  0  0  0  0
  1  2  1  0
  2  3  2  0
  2  8  1  0
  3  4  1  0
  3  9  1  0
  4  5  2  0
  4 34  1  0
  5  6  1  0
  5  7  1  0
  6 35  1  0
  6 36  1  0
  7  8  2  0
  7 37  1  0
  8 38  1  0
  9 10  1  0
  9 39  1  1
  9 40  1  0
 10 11  1  0
 10 41  1  0
 11 12  2  0
 11 16  1  0
 12 13  1  0
 13 14  2  0
 13 21  1  0
 14 15  1  0
 14 63  1  0
 15 16  1  0
 15 20  2  0
 16 17  2  0
 17 18  1  0
 17 42  1  0
 18 19  2  0
 18 43  1  0
 19 20  1  0
 19 44  1  0
 20 45  1  0
 21 22  1  0
 21 46  1  0
 22 23  1  0
 22 47  1  6
 22 48  1  0
 23 24  2  0
 23 28  1  0
 24 25  1  0
 24 49  1  0
 25 26  2  0
 25 29  1  0
 26 27  1  0
 26 50  1  0
 27 28  2  0
 27 51  1  0
 28 52  1  0
 29 30  1  0
 29 53  1  1
 29 54  1  0
 30 31  1  0
 30 33  1  0
 30 64  1  6
 31 32  1  0
 31 55  1  1
 31 56  1  0
 32 57  1  1
 32 58  1  0
 32 59  1  0
 33 60  1  1
 33 61  1  0
 33 62  1  0
M  CHG  2  14   1  30   1
M  END
>  <s_epik_cmdline>  (1320) 
J2VwaWtfcHl0aG9uJywgJy1waCcsICc3LjAwMDAwMCcsICctcGh0JywgJzIuMDAwMDAwJywgJy1tcycsICcxNicsICctdG4nLCAnOCcsICctbWEnLCAnMjAwJywgJy1pbWFlJywgJzxpbmZpbGUubWFlPicsICctb21hZScsICc8b3V0ZmlsZS5tYWU+Jw==

>  <s_epik_input>  (1320) 
W2NIXTFbY0hdYyhbTkgyXSlbY0hdYyhjMUNsKVtDSDJdW05IXWMoYyhjMjMpW2NIXVtjSF1bY0hdW2NIXTMpbmMobjIpW05IXVtDSDJdYzRbY0hdYyhbY0hdW2NIXVtjSF00KVtDSDJdTihbQ0gzXSlbQ0gyXVtDSDNd

>  <s_i_glide_gridfile>  (1320) 
ATP-Grid

>  <s_lp_Force_Field>  (1320) 
OPLS_2005

>  <s_lp_Variant>  (1320) 
m_282030aaa____21930070____22360182____21940840-1

>  <s_lp_label>  (1320) 
1662_sdstereoexpander_1_neutralizer_1_epik_1_stereoizer_1

>  <s_m_source_file>  (1320) 
ATP-VSW-LIGPREP-001-in.maegz

>  <s_sd_BIOSOLVEIT.INFINISEE\_QUERY\_NAME>  (1320) 
Ref-Lig

>  <s_sd_BIOSOLVEIT.INFINISEE\_QUERY\_SMILES>  (1320) 
S(c1nc2c(cc1C[NH2+]Cc3ccc(cc3)C[NH+](C)C)cccc2)Cc4ccccc4

>  <s_sd_BIOSOLVEIT.INFINISEE\_REACTION\_NAME>  (1320) 
m_282030aaa

>  <s_sd_BIOSOLVEIT.INFINISEE\_REAGENT1\_SMILES>  (1320) 
[R1*]NCc1cc(ccc1)CN(CC)C

>  <s_sd_BIOSOLVEIT.INFINISEE\_REAGENT2\_SMILES>  (1320) 
[R2*]c1nc([R1*])c2c(n1)cccc2

>  <s_sd_BIOSOLVEIT.INFINISEE\_REAGENT3\_SMILES>  (1320) 
[R2*]NCc1c(Cl)ccc(N)c1

>  <s_sd_BIOSOLVEIT.INFINISEE\_SPACE>  (1320) 
REALSpace_44bn_2023-08

>  <s_vsw_compound_code>  (1320) 
53153

>  <s_vsw_variant>  (1320) 
53153-1

>  <r_epik_Charging_Adjusted_Penalty>  (1320) 
0.089070388984551593

>  <r_epik_Ionization_Penalty>  (1320) 
0.0458

>  <r_epik_Ionization_Penalty_Charging>  (1320) 
0.044900000000000002

>  <r_epik_Ionization_Penalty_Neutral>  (1320) 
0.00089999999999999998

>  <r_epik_State_Penalty>  (1320) 
0.044200000000000003

>  <r_i_docking_score>  (1320) 
-4.0316132079336802

>  <r_i_glide_ecoul>  (1320) 
-6.9999589920043901

>  <r_i_glide_eff_state_penalty>  (1320) 
0.044200000000000003

>  <r_i_glide_einternal>  (1320) 
3.0769424438476598

>  <r_i_glide_emodel>  (1320) 
-53.513622277462197

>  <r_i_glide_energy>  (1320) 
-39.4823160171509

>  <r_i_glide_erotb>  (1320) 
0.75186040798557097

>  <r_i_glide_esite>  (1320) 
-0.102745278645911

>  <r_i_glide_evdw>  (1320) 
-32.482357025146499

>  <r_i_glide_gscore>  (1320) 
-4.0758132079336802

>  <r_i_glide_hbond>  (1320) 
-0.16

>  <r_i_glide_ligand_efficiency>  (1320) 
-0.122170097210112

>  <r_i_glide_ligand_efficiency_ln>  (1320) 
-0.896609902868444

>  <r_i_glide_ligand_efficiency_sa>  (1320) 
-0.39186478044364098

>  <r_i_glide_lipo>  (1320) 
-1.6215859685576599

>  <r_i_glide_metal>  (1320) 
-0

>  <r_i_glide_rewards>  (1320) 
-0.26923066865770101

>  <r_lp_Energy>  (1320) 
21.695357000000001

>  <r_qp_ACxDN^.5/SA>  (1320) 
0.014358299999999999

>  <r_qp_CIQPlogS>  (1320) 
-6.2270000000000003

>  <r_qp_EA(eV)>  (1320) 
0.52800000000000002

>  <r_qp_FISA>  (1320) 
98.161000000000001

>  <r_qp_FOSA>  (1320) 
255.625

>  <r_qp_IP(eV)>  (1320) 
7.976

>  <r_qp_Jm>  (1320) 
0.0019841029088923201

>  <r_qp_PISA>  (1320) 
381

>  <r_qp_PSA>  (1320) 
70.965000000000003

>  <r_qp_PercentHumanOralAbsorption>  (1320) 
100

>  <r_qp_QPPCaco>  (1320) 
289.69600000000003

>  <r_qp_QPPMDCK>  (1320) 
259.45100000000002

>  <r_qp_QPlogBB>  (1320) 
-0.54500000000000004

>  <r_qp_QPlogHERG>  (1320) 
-7.2960000000000003

>  <r_qp_QPlogKhsa>  (1320) 
0.84099999999999997

>  <r_qp_QPlogKp>  (1320) 
-3.089

>  <r_qp_QPlogPC16>  (1320) 
16.431000000000001

>  <r_qp_QPlogPo/w>  (1320) 
4.9909999999999997

>  <r_qp_QPlogPoct>  (1320) 
25.321999999999999

>  <r_qp_QPlogPw>  (1320) 
13.707000000000001

>  <r_qp_QPlogS>  (1320) 
-5.2770000000000001

>  <r_qp_QPpolrz>  (1320) 
50.024000000000001

>  <r_qp_SASA>  (1320) 
781.774

>  <r_qp_SAamideO>  (1320) 
0

>  <r_qp_SAfluorine>  (1320) 
0

>  <r_qp_WPSA>  (1320) 
46.988

>  <r_qp_accptHB>  (1320) 
6

>  <r_qp_dip^2/V>  (1320) 
0.013858799999999999

>  <r_qp_dipole>  (1320) 
4.5190000000000001

>  <r_qp_donorHB>  (1320) 
3.5

>  <r_qp_glob>  (1320) 
0.80095570000000005

>  <r_qp_mol_MW>  (1320) 
461.00799999999998

>  <r_qp_volume>  (1320) 
1473.2850000000001

>  <r_sd_BIOSOLVEIT.INFINISEE\_FTREES\_SIMILARITY>  (1320) 
0.90500000000000003

>  <r_sd_BIOSOLVEIT.LOGP>  (1320) 
4.1242000000000001

>  <r_sd_BIOSOLVEIT.MOLECULAR\_WEIGHT>  (1320) 
462.01799999999997

>  <r_sd_BIOSOLVEIT.TPSA>  (1320) 
80.299999999999997

>  <i_epik_Tot_Q>  (1320) 
2

>  <i_epik_Tot_abs_Q>  (1320) 
2

>  <i_f3d_flags>  (1320) 
0

>  <i_i_glide_confnum>  (1320) 
2

>  <i_i_glide_lignum>  (1320) 
452

>  <i_i_glide_posenum>  (1320) 
11

>  <i_i_glide_rotatable_bonds>  (1320) 
9

>  <i_lp_mmshare_version>  (1320) 
65135

>  <i_m_ct_format>  (1320) 
2

>  <i_m_source_file_index>  (1320) 
1662

>  <i_qp_#NandO>  (1320) 
6

>  <i_qp_#acid>  (1320) 
0

>  <i_qp_#amide>  (1320) 
0

>  <i_qp_#amidine>  (1320) 
0

>  <i_qp_#amine>  (1320) 
1

>  <i_qp_#in34>  (1320) 
0

>  <i_qp_#in56>  (1320) 
22

>  <i_qp_#metab>  (1320) 
6

>  <i_qp_#nonHatm>  (1320) 
33

>  <i_qp_#noncon>  (1320) 
0

>  <i_qp_#ringatoms>  (1320) 
22

>  <i_qp_#rotor>  (1320) 
10

>  <i_qp_#rtvFG>  (1320) 
0

>  <i_qp_#stars>  (1320) 
0

>  <i_qp_CNS>  (1320) 
0

>  <i_qp_HumanOralAbsorption>  (1320) 
3

>  <i_qp_RuleOfFive>  (1320) 
0

>  <i_qp_RuleOfThree>  (1320) 
0

>  <i_sd_BIOSOLVEIT.INFINISEE\_REAGENT1\_NAME>  (1320) 
21930070

>  <i_sd_BIOSOLVEIT.INFINISEE\_REAGENT2\_NAME>  (1320) 
22360182

>  <i_sd_BIOSOLVEIT.INFINISEE\_REAGENT3\_NAME>  (1320) 
21940840

>  <i_sd_BIOSOLVEIT.INFINISEE\_RESULT\_RANK>  (1320) 
69547

>  <i_sd_version>  (1320) 
0

>  <b_lp_Chiralities_Consistent>  (1320) 
1

>  <b_sd_chiral_flag>  (1320) 
0

>  <canonical_id>  (1320) 
ATP-HTVS-D0257FD59117

>  <compound_code>  (1320) 
53153

>  <title>  (1320) 
m_282030aaa____21930070____22360182____21940840

>  <variant>  (1320) 
53153-1

>  <source_file>  (1320) 
运行/运行/ATP-VSW/ATP-VSW-DOCK_HTVS_1-001_lib/ATP-VSW-DOCK_HTVS_1-001_lib

>  <canonical_smiles>  (1320) 
CC[N@@H+](C)Cc1cccc(CNc2nc(NCc3cc(N)ccc3Cl)c3ccccc3[nH+]2)c1

>  <scaffold>  (1320) 
c1ccc(CNc2nc(NCc3ccccc3)c3ccccc3[nH+]2)cc1

>  <molecular_formula>  (1320) 
C26H31ClN6+2

$$$$
ATP-HTVS-D02CBBC5B48D
     RDKit          3D

 56 59  0  0  0  0  0  0  0  0999 V2000
  196.2271  179.4187  148.5343 F   0  0  0  0  0  0  0  0  0  0  0  0
  196.7471  179.3471  149.7767 C   0  0  0  0  0  0  0  0  0  0  0  0
  198.0379  178.8383  149.9877 C   0  0  0  0  0  0  0  0  0  0  0  0
  198.5523  178.7206  151.3010 C   0  0  0  0  0  0  0  0  0  0  0  0
  197.7835  179.1309  152.4211 C   0  0  0  0  0  0  0  0  0  0  0  0
  198.3379  179.0268  153.7304 N   0  0  0  0  0  0  0  0  0  0  0  0
  199.6141  178.4388  153.9201 C   0  0  0  0  0  0  0  0  0  0  0  0
  200.1410  178.2046  155.2792 C   0  0  0  0  0  0  0  0  0  0  0  0
  200.4386  176.8939  155.7186 C   0  0  0  0  0  0  0  0  0  0  0  0
  200.9533  176.6916  157.0171 C   0  0  0  0  0  0  0  0  0  0  0  0
  201.1473  177.7855  157.8833 C   0  0  0  0  0  0  0  0  0  0  0  0
  200.8545  179.0872  157.4441 C   0  0  0  0  0  0  0  0  0  0  0  0
  200.3799  179.2934  156.1416 C   0  0  0  0  0  0  0  0  0  0  0  0
  200.3532  177.9998  152.8856 C   0  0  0  0  0  0  0  0  0  0  0  0
  199.9135  178.1546  151.4917 C   0  0  0  0  0  0  0  0  0  0  0  0
  200.6418  177.8389  150.5529 O   0  0  0  0  0  0  0  0  0  0  0  0
  197.6011  179.7099  154.8101 C   0  0  1  0  0  0  0  0  0  0  0  0
  197.8960  181.2236  154.8389 C   0  0  0  0  0  0  0  0  0  0  0  0
  198.3699  181.7705  153.8464 O   0  0  0  0  0  0  0  0  0  0  0  0
  197.6294  181.8425  156.0007 N   0  0  0  0  0  0  0  0  0  0  0  0
  197.7028  183.2423  156.2976 C   0  0  0  0  0  0  0  0  0  0  0  0
  196.9186  183.7521  157.3813 C   0  0  0  0  0  0  0  0  0  0  0  0
  196.1570  182.8518  158.1634 N   0  0  0  0  0  0  0  0  0  0  0  0
  195.3396  183.2603  159.3019 C   0  0  2  0  0  0  0  0  0  0  0  0
  194.0801  184.0311  158.8456 C   0  0  2  0  0  0  0  0  0  0  0  0
  196.1757  183.9820  160.4021 C   0  0  2  0  0  0  0  0  0  0  0  0
  196.9315  185.1494  157.6435 C   0  0  0  0  0  0  0  0  0  0  0  0
  197.7671  186.0093  156.9162 C   0  0  0  0  0  0  0  0  0  0  0  0
  198.5717  185.5169  155.8671 C   0  0  0  0  0  0  0  0  0  0  0  0
  198.5299  184.1422  155.5634 C   0  0  0  0  0  0  0  0  0  0  0  0
  196.4773  179.6397  152.1738 C   0  0  0  0  0  0  0  0  0  0  0  0
  195.9734  179.7460  150.8698 C   0  0  0  0  0  0  0  0  0  0  0  0
  198.6168  178.5195  149.1333 H   0  0  0  0  0  0  0  0  0  0  0  0
  200.2809  176.0407  155.0715 H   0  0  0  0  0  0  0  0  0  0  0  0
  201.1972  175.6963  157.3533 H   0  0  0  0  0  0  0  0  0  0  0  0
  201.5275  177.6443  158.8823 H   0  0  0  0  0  0  0  0  0  0  0  0
  200.9800  179.9388  158.0982 H   0  0  0  0  0  0  0  0  0  0  0  0
  200.1837  180.3016  155.8238 H   0  0  0  0  0  0  0  0  0  0  0  0
  201.3053  177.5154  153.0507 H   0  0  0  0  0  0  0  0  0  0  0  0
  196.5059  179.5517  154.7973 H   0  0  0  0  0  0  0  0  0  0  0  0
  197.8341  179.2835  155.7783 H   0  0  0  0  0  0  0  0  0  0  0  0
  197.2519  181.2532  156.7280 H   0  0  0  0  0  0  0  0  0  0  0  0
  196.0321  181.8956  157.8678 H   0  0  0  0  0  0  0  0  0  0  0  0
  194.9674  182.3247  159.6930 H   0  0  0  0  0  0  0  0  0  0  0  0
  193.4441  184.2940  159.6910 H   0  0  0  0  0  0  0  0  0  0  0  0
  193.4774  183.4453  158.1417 H   0  0  0  0  0  0  0  0  0  0  0  0
  194.3216  184.9597  158.3337 H   0  0  0  0  0  0  0  0  0  0  0  0
  195.5857  184.1520  161.3117 H   0  0  0  0  0  0  0  0  0  0  0  0
  196.5659  184.9470  160.0892 H   0  0  0  0  0  0  0  0  0  0  0  0
  197.0015  183.3187  160.7218 H   0  0  0  0  0  0  0  0  0  0  0  0
  196.3212  185.5852  158.4232 H   0  0  0  0  0  0  0  0  0  0  0  0
  197.7998  187.0630  157.1717 H   0  0  0  0  0  0  0  0  0  0  0  0
  199.1895  186.1864  155.2904 H   0  0  0  0  0  0  0  0  0  0  0  0
  199.1480  183.8158  154.7446 H   0  0  0  0  0  0  0  0  0  0  0  0
  195.8072  179.9683  152.9476 H   0  0  0  0  0  0  0  0  0  0  0  0
  194.9744  180.1180  150.7202 H   0  0  0  0  0  0  0  0  0  0  0  0
  1  2  1  0
  2  3  1  0
  2 32  2  0
  3  4  2  0
  3 33  1  0
  4  5  1  0
  4 15  1  0
  5  6  1  0
  5 31  2  0
  6  7  1  0
  6 17  1  0
  7  8  1  0
  7 14  2  0
  8  9  2  0
  8 13  1  0
  9 10  1  0
  9 34  1  0
 10 11  2  0
 10 35  1  0
 11 12  1  0
 11 36  1  0
 12 13  2  0
 12 37  1  0
 13 38  1  0
 14 15  1  0
 14 39  1  0
 15 16  2  0
 17 18  1  0
 17 40  1  6
 17 41  1  0
 18 19  2  0
 18 20  1  0
 20 21  1  0
 20 42  1  0
 21 22  1  0
 21 30  2  0
 22 23  1  0
 22 27  2  0
 23 24  1  0
 23 43  1  0
 24 25  1  0
 24 26  1  0
 24 44  1  1
 25 45  1  1
 25 46  1  0
 25 47  1  0
 26 48  1  1
 26 49  1  0
 26 50  1  0
 27 28  1  0
 27 51  1  0
 28 29  2  0
 28 52  1  0
 29 30  1  0
 29 53  1  0
 30 54  1  0
 31 32  1  0
 31 55  1  0
 32 56  1  0
M  END
>  <s_epik_cmdline>  (1321) 
J2VwaWtfcHl0aG9uJywgJy1waCcsICc3LjAwMDAwMCcsICctcGh0JywgJzIuMDAwMDAwJywgJy1tcycsICcxNicsICctdG4nLCAnOCcsICctbWEnLCAnMjAwJywgJy1pbWFlJywgJzxpbmZpbGUubWFlPicsICctb21hZScsICc8b3V0ZmlsZS5tYWU+Jw==

>  <s_epik_input>  (1321) 
W2NIXTFbY0hdW2NIXVtjSF1bY0hdYzEtYyhbY0hdYzI9TyluKGMoYzIzKVtjSF1bY0hdYyhGKVtjSF0zKVtDSDJdQyg9TylbTkhdYzRjKFtOSF1bQ0hdKFtDSDNdKVtDSDNdKVtjSF1bY0hdW2NIXVtjSF00

>  <s_i_glide_gridfile>  (1321) 
ATP-Grid

>  <s_lp_Force_Field>  (1321) 
OPLS_2005

>  <s_lp_Variant>  (1321) 
rxn512b____EMOL108753642____EMOL476131____EMOL42652158-1

>  <s_lp_label>  (1321) 
2467_sdstereoexpander_1_neutralizer_1_epik_1_stereoizer_1

>  <s_m_source_file>  (1321) 
ATP-VSW-LIGPREP-003-in.maegz

>  <s_sd_BIOSOLVEIT.INFINISEE\_QUERY\_NAME>  (1321) 
Ref-Lig

>  <s_sd_BIOSOLVEIT.INFINISEE\_QUERY\_SMILES>  (1321) 
S(c1nc2c(cc1C[NH2+]Cc3ccc(cc3)C[NH+](C)C)cccc2)Cc4ccccc4

>  <s_sd_BIOSOLVEIT.INFINISEE\_REACTION\_NAME>  (1321) 
rxn512b

>  <s_sd_BIOSOLVEIT.INFINISEE\_REAGENT1\_NAME>  (1321) 
EMOL108753642

>  <s_sd_BIOSOLVEIT.INFINISEE\_REAGENT1\_SMILES>  (1321) 
N(c1c(N)cccc1)C(C)C

>  <s_sd_BIOSOLVEIT.INFINISEE\_REAGENT2\_NAME>  (1321) 
EMOL476131

>  <s_sd_BIOSOLVEIT.INFINISEE\_REAGENT2\_SMILES>  (1321) 
BrCC(=O)O

>  <s_sd_BIOSOLVEIT.INFINISEE\_REAGENT3\_NAME>  (1321) 
EMOL42652158

>  <s_sd_BIOSOLVEIT.INFINISEE\_REAGENT3\_SMILES>  (1321) 
Fc1cc2c(NC(c3ccccc3)=CC2=O)cc1

>  <s_sd_BIOSOLVEIT.INFINISEE\_SPACE>  (1321) 
eXplore_7tr_2022-12

>  <s_vsw_compound_code>  (1321) 
78915

>  <s_vsw_variant>  (1321) 
78915-1

>  <r_epik_Charging_Adjusted_Penalty>  (1321) 
0.013520642318397599

>  <r_epik_Ionization_Penalty>  (1321) 
0.0135

>  <r_epik_Ionization_Penalty_Charging>  (1321) 
0

>  <r_epik_Ionization_Penalty_Neutral>  (1321) 
0.0135

>  <r_epik_State_Penalty>  (1321) 
0.0135

>  <r_i_docking_score>  (1321) 
-4.2531370777347401

>  <r_i_glide_ecoul>  (1321) 
-2.7861423492431601

>  <r_i_glide_eff_state_penalty>  (1321) 
0.0135

>  <r_i_glide_einternal>  (1321) 
2.1181445121765101

>  <r_i_glide_emodel>  (1321) 
-47.863262009456399

>  <r_i_glide_energy>  (1321) 
-38.553388595581097

>  <r_i_glide_erotb>  (1321) 
0.64641842418843898

>  <r_i_glide_esite>  (1321) 
-0.106253957735347

>  <r_i_glide_evdw>  (1321) 
-35.767246246337898

>  <r_i_glide_gscore>  (1321) 
-4.2666370777347398

>  <r_i_glide_hbond>  (1321) 
0

>  <r_i_glide_ligand_efficiency>  (1321) 
-0.13291053367921099

>  <r_i_glide_ligand_efficiency_ln>  (1321) 
-0.95239332784285302

>  <r_i_glide_ligand_efficiency_sa>  (1321) 
-0.42196464147259499

>  <r_i_glide_lipo>  (1321) 
-1.94344747078033

>  <r_i_glide_metal>  (1321) 
-0

>  <r_i_glide_rewards>  (1321) 
-0.65707040870413302

>  <r_lp_Energy>  (1321) 
26.476054999999999

>  <r_qp_ACxDN^.5/SA>  (1321) 
0.012340200000000001

>  <r_qp_CIQPlogS>  (1321) 
-6.8019999999999996

>  <r_qp_EA(eV)>  (1321) 
0.63300000000000001

>  <r_qp_FISA>  (1321) 
81.266000000000005

>  <r_qp_FOSA>  (1321) 
157.05799999999999

>  <r_qp_IP(eV)>  (1321) 
8.3559999999999999

>  <r_qp_Jm>  (1321) 
0.069969766741867598

>  <r_qp_PISA>  (1321) 
402.31599999999997

>  <r_qp_PSA>  (1321) 
71.132999999999996

>  <r_qp_PercentHumanOralAbsorption>  (1321) 
100

>  <r_qp_QPPCaco>  (1321) 
1679.7929999999999

>  <r_qp_QPPMDCK>  (1321) 
1567.24

>  <r_qp_QPlogBB>  (1321) 
-0.46200000000000002

>  <r_qp_QPlogHERG>  (1321) 
-6.1360000000000001

>  <r_qp_QPlogKhsa>  (1321) 
0.67300000000000004

>  <r_qp_QPlogKp>  (1321) 
-1.024

>  <r_qp_QPlogPC16>  (1321) 
13.757

>  <r_qp_QPlogPo/w>  (1321) 
4.8330000000000002

>  <r_qp_QPlogPoct>  (1321) 
23.207999999999998

>  <r_qp_QPlogPw>  (1321) 
12.195

>  <r_qp_QPlogS>  (1321) 
-5.7640000000000002

>  <r_qp_QPpolrz>  (1321) 
45.514000000000003

>  <r_qp_SASA>  (1321) 
687.61099999999999

>  <r_qp_SAamideO>  (1321) 
0

>  <r_qp_SAfluorine>  (1321) 
46.972000000000001

>  <r_qp_WPSA>  (1321) 
46.972000000000001

>  <r_qp_accptHB>  (1321) 
6

>  <r_qp_dip^2/V>  (1321) 
0.1223373

>  <r_qp_dipole>  (1321) 
12.569000000000001

>  <r_qp_donorHB>  (1321) 
2

>  <r_qp_glob>  (1321) 
0.83402180000000004

>  <r_qp_mol_MW>  (1321) 
429.49299999999999

>  <r_qp_volume>  (1321) 
1291.318

>  <r_sd_BIOSOLVEIT.INFINISEE\_FTREES\_SIMILARITY>  (1321) 
0.91500000000000004

>  <r_sd_BIOSOLVEIT.LOGP>  (1321) 
5.3285

>  <r_sd_BIOSOLVEIT.MOLECULAR\_WEIGHT>  (1321) 
429.49299999999999

>  <r_sd_BIOSOLVEIT.TPSA>  (1321) 
61.439999999999998

>  <i_epik_Tot_Q>  (1321) 
0

>  <i_epik_Tot_abs_Q>  (1321) 
0

>  <i_f3d_flags>  (1321) 
0

>  <i_i_glide_confnum>  (1321) 
4

>  <i_i_glide_lignum>  (1321) 
1058

>  <i_i_glide_posenum>  (1321) 
13

>  <i_i_glide_rotatable_bonds>  (1321) 
7

>  <i_lp_mmshare_version>  (1321) 
65135

>  <i_m_ct_format>  (1321) 
2

>  <i_m_source_file_index>  (1321) 
2467

>  <i_qp_#NandO>  (1321) 
5

>  <i_qp_#acid>  (1321) 
0

>  <i_qp_#amide>  (1321) 
0

>  <i_qp_#amidine>  (1321) 
0

>  <i_qp_#amine>  (1321) 
0

>  <i_qp_#in34>  (1321) 
0

>  <i_qp_#in56>  (1321) 
22

>  <i_qp_#metab>  (1321) 
6

>  <i_qp_#nonHatm>  (1321) 
32

>  <i_qp_#noncon>  (1321) 
0

>  <i_qp_#ringatoms>  (1321) 
22

>  <i_qp_#rotor>  (1321) 
6

>  <i_qp_#rtvFG>  (1321) 
0

>  <i_qp_#stars>  (1321) 
1

>  <i_qp_CNS>  (1321) 
0

>  <i_qp_HumanOralAbsorption>  (1321) 
3

>  <i_qp_RuleOfFive>  (1321) 
0

>  <i_qp_RuleOfThree>  (1321) 
1

>  <i_sd_BIOSOLVEIT.INFINISEE\_RESULT\_RANK>  (1321) 
27506

>  <i_sd_version>  (1321) 
0

>  <b_lp_Chiralities_Consistent>  (1321) 
1

>  <b_sd_chiral_flag>  (1321) 
0

>  <canonical_id>  (1321) 
ATP-HTVS-D02CBBC5B48D

>  <compound_code>  (1321) 
78915

>  <title>  (1321) 
rxn512b____EMOL108753642____EMOL476131____EMOL42652158

>  <variant>  (1321) 
78915-1

>  <source_file>  (1321) 
运行/运行/ATP-VSW/ATP-VSW-DOCK_HTVS_1-003_lib/ATP-VSW-DOCK_HTVS_1-003_lib.mae

>  <canonical_smiles>  (1321) 
CC(C)Nc1ccccc1NC(=O)Cn1c(-c2ccccc2)cc(=O)c2cc(F)ccc21

>  <scaffold>  (1321) 
O=C(Cn1c(-c2ccccc2)cc(=O)c2ccccc21)Nc1ccccc1

>  <molecular_formula>  (1321) 
C26H24FN3O2

$$$$
ATP-HTVS-D0CA976BC689
     RDKit          3D

 63 66  0  0  0  0  0  0  0  0999 V2000
  201.1449  175.3870  153.0526 Cl  0  0  0  0  0  0  0  0  0  0  0  0
  200.8136  176.4404  154.3843 C   0  0  0  0  0  0  0  0  0  0  0  0
  201.3759  176.2215  155.6649 C   0  0  0  0  0  0  0  0  0  0  0  0
  202.2789  175.1093  155.9122 C   0  0  0  0  0  0  0  0  0  0  0  0
  203.0011  174.2276  156.1084 N   0  0  0  0  0  0  0  0  0  0  0  0
  201.0767  177.1066  156.7206 C   0  0  0  0  0  0  0  0  0  0  0  0
  200.2266  178.2032  156.5045 C   0  0  0  0  0  0  0  0  0  0  0  0
  199.6584  178.4205  155.2298 C   0  0  0  0  0  0  0  0  0  0  0  0
  199.9636  177.5426  154.1723 C   0  0  0  0  0  0  0  0  0  0  0  0
  198.7549  179.6107  154.9792 C   0  0  1  0  0  0  0  0  0  0  0  0
  197.9522  179.9869  156.1278 N   0  0  0  0  0  0  0  0  0  0  0  0
  197.6757  181.2820  156.5070 C   0  0  0  0  0  0  0  0  0  0  0  0
  198.2649  182.3024  155.8797 N   0  0  0  0  0  0  0  0  0  0  0  0
  198.0367  183.5524  156.3139 C   0  0  0  0  0  0  0  0  0  0  0  0
  198.7104  184.5972  155.6638 N   0  0  0  0  0  0  0  0  0  0  0  0
  198.8290  184.5897  154.2101 C   0  0  1  0  0  0  0  0  0  0  0  0
  197.4939  184.9249  153.5276 C   0  0  1  0  0  0  0  0  0  0  0  0
  197.5582  184.8625  152.0129 C   0  0  0  0  0  0  0  0  0  0  0  0
  196.9351  183.7974  151.3354 C   0  0  0  0  0  0  0  0  0  0  0  0
  196.9347  183.7547  149.9290 C   0  0  0  0  0  0  0  0  0  0  0  0
  197.5597  184.7738  149.1812 C   0  0  0  0  0  0  0  0  0  0  0  0
  198.1941  185.8369  149.8629 C   0  0  0  0  0  0  0  0  0  0  0  0
  198.1894  185.8837  151.2715 C   0  0  0  0  0  0  0  0  0  0  0  0
  197.5661  184.7045  147.6598 C   0  0  1  0  0  0  0  0  0  0  0  0
  198.8433  184.1599  147.1288 N   0  0  1  0  0  0  0  0  0  0  0  0
  199.1352  182.7765  147.5762 C   0  0  2  0  0  0  0  0  0  0  0  0
  198.9381  184.2838  145.6546 C   0  0  2  0  0  0  0  0  0  0  0  0
  197.1766  183.8082  157.4012 C   0  0  0  0  0  0  0  0  0  0  0  0
  196.5559  182.6833  157.9888 C   0  0  0  0  0  0  0  0  0  0  0  0
  196.8363  181.4437  157.5249 N   0  0  0  0  0  0  0  0  0  0  0  0
  195.6582  182.8593  159.0571 C   0  0  0  0  0  0  0  0  0  0  0  0
  195.3588  184.1591  159.5188 C   0  0  0  0  0  0  0  0  0  0  0  0
  195.9716  185.2851  158.9279 C   0  0  0  0  0  0  0  0  0  0  0  0
  196.8808  185.1102  157.8647 C   0  0  0  0  0  0  0  0  0  0  0  0
  201.5005  176.9593  157.7032 H   0  0  0  0  0  0  0  0  0  0  0  0
  200.0217  178.8704  157.3308 H   0  0  0  0  0  0  0  0  0  0  0  0
  199.5477  177.7094  153.1886 H   0  0  0  0  0  0  0  0  0  0  0  0
  199.3902  180.4353  154.6520 H   0  0  0  0  0  0  0  0  0  0  0  0
  198.0718  179.3958  154.1549 H   0  0  0  0  0  0  0  0  0  0  0  0
  197.5044  179.2536  156.6783 H   0  0  0  0  0  0  0  0  0  0  0  0
  199.4189  185.0880  156.1849 H   0  0  0  0  0  0  0  0  0  0  0  0
  199.5687  185.3435  153.9391 H   0  0  0  0  0  0  0  0  0  0  0  0
  199.2229  183.6371  153.8540 H   0  0  0  0  0  0  0  0  0  0  0  0
  196.7143  184.2494  153.8796 H   0  0  0  0  0  0  0  0  0  0  0  0
  197.1712  185.9208  153.8195 H   0  0  0  0  0  0  0  0  0  0  0  0
  196.4483  183.0113  151.8975 H   0  0  0  0  0  0  0  0  0  0  0  0
  196.4603  182.9252  149.4285 H   0  0  0  0  0  0  0  0  0  0  0  0
  198.6829  186.6286  149.3192 H   0  0  0  0  0  0  0  0  0  0  0  0
  198.6576  186.7173  151.7786 H   0  0  0  0  0  0  0  0  0  0  0  0
  196.7352  184.0938  147.3022 H   0  0  0  0  0  0  0  0  0  0  0  0
  197.3898  185.7070  147.2675 H   0  0  0  0  0  0  0  0  0  0  0  0
  198.3767  182.0857  147.2146 H   0  0  0  0  0  0  0  0  0  0  0  0
  199.1766  182.6992  148.6620 H   0  0  0  0  0  0  0  0  0  0  0  0
  200.1008  182.4366  147.2023 H   0  0  0  0  0  0  0  0  0  0  0  0
  198.1440  183.7217  145.1586 H   0  0  0  0  0  0  0  0  0  0  0  0
  199.8946  183.8984  145.2942 H   0  0  0  0  0  0  0  0  0  0  0  0
  198.8665  185.3275  145.3426 H   0  0  0  0  0  0  0  0  0  0  0  0
  195.1842  182.0000  159.5076 H   0  0  0  0  0  0  0  0  0  0  0  0
  194.6618  184.2998  160.3320 H   0  0  0  0  0  0  0  0  0  0  0  0
  195.7377  186.2802  159.2814 H   0  0  0  0  0  0  0  0  0  0  0  0
  197.3239  185.9787  157.3993 H   0  0  0  0  0  0  0  0  0  0  0  0
  196.3577  180.5983  157.9067 H   0  0  0  0  0  0  0  0  0  0  0  0
  199.5755  184.7436  147.5069 H   0  0  0  0  0  0  0  0  0  0  0  0
  1  2  1  0
  2  3  2  0
  2  9  1  0
  3  4  1  0
  3  6  1  0
  4  5  3  0
  6  7  2  0
  6 35  1  0
  7  8  1  0
  7 36  1  0
  8  9  2  0
  8 10  1  0
  9 37  1  0
 10 11  1  0
 10 38  1  6
 10 39  1  0
 11 12  1  0
 11 40  1  0
 12 13  1  0
 12 30  2  0
 13 14  2  0
 14 15  1  0
 14 28  1  0
 15 16  1  0
 15 41  1  0
 16 17  1  0
 16 42  1  1
 16 43  1  0
 17 18  1  0
 17 44  1  1
 17 45  1  0
 18 19  1  0
 18 23  2  0
 19 20  2  0
 19 46  1  0
 20 21  1  0
 20 47  1  0
 21 22  2  0
 21 24  1  0
 22 23  1  0
 22 48  1  0
 23 49  1  0
 24 25  1  0
 24 50  1  1
 24 51  1  0
 25 26  1  0
 25 27  1  0
 25 63  1  1
 26 52  1  6
 26 53  1  0
 26 54  1  0
 27 55  1  6
 27 56  1  0
 27 57  1  0
 28 29  1  0
 28 34  2  0
 29 30  1  0
 29 31  2  0
 30 62  1  0
 31 32  1  0
 31 58  1  0
 32 33  2  0
 32 59  1  0
 33 34  1  0
 33 60  1  0
 34 61  1  0
M  CHG  2  25   1  30   1
M  END
>  <s_epik_cmdline>  (1322) 
J2VwaWtfcHl0aG9uJywgJy1waCcsICc3LjAwMDAwMCcsICctcGh0JywgJzIuMDAwMDAwJywgJy1tcycsICcxNicsICctdG4nLCAnOCcsICctbWEnLCAnMjAwJywgJy1pbWFlJywgJzxpbmZpbGUubWFlPicsICctb21hZScsICc8b3V0ZmlsZS5tYWU+Jw==

>  <s_epik_input>  (1322) 
Q2xjMWMoQyNOKVtjSF1bY0hdYyhbY0hdMSlbQ0gyXVtOSF1jKG5jKGMyMylbY0hdW2NIXVtjSF1bY0hdMyluYzJbTkhdW0NIMl1bQ0gyXWM0W2NIXVtjSF1jKFtjSF1bY0hdNClbQ0gyXU4oW0NIM10pW0NIM10=

>  <s_i_glide_gridfile>  (1322) 
ATP-Grid

>  <s_lp_Force_Field>  (1322) 
OPLS_2005

>  <s_lp_Variant>  (1322) 
m_282030aaa____21898562____22360182____21967972-1

>  <s_lp_label>  (1322) 
934_sdstereoexpander_1_neutralizer_1_epik_1_stereoizer_1

>  <s_m_source_file>  (1322) 
ATP-VSW-LIGPREP-003-in.maegz

>  <s_sd_BIOSOLVEIT.INFINISEE\_QUERY\_NAME>  (1322) 
Ref-Lig

>  <s_sd_BIOSOLVEIT.INFINISEE\_QUERY\_SMILES>  (1322) 
S(c1nc2c(cc1C[NH2+]Cc3ccc(cc3)C[NH+](C)C)cccc2)Cc4ccccc4

>  <s_sd_BIOSOLVEIT.INFINISEE\_REACTION\_NAME>  (1322) 
m_282030aaa

>  <s_sd_BIOSOLVEIT.INFINISEE\_REAGENT1\_SMILES>  (1322) 
[R1*]NCc1cc(Cl)c(C#N)cc1

>  <s_sd_BIOSOLVEIT.INFINISEE\_REAGENT2\_SMILES>  (1322) 
[R2*]c1nc([R1*])c2c(n1)cccc2

>  <s_sd_BIOSOLVEIT.INFINISEE\_REAGENT3\_SMILES>  (1322) 
[R2*]NCCc1ccc(cc1)CN(C)C

>  <s_sd_BIOSOLVEIT.INFINISEE\_SPACE>  (1322) 
REALSpace_44bn_2023-08

>  <s_vsw_compound_code>  (1322) 
29859

>  <s_vsw_variant>  (1322) 
29859-1

>  <r_epik_Charging_Adjusted_Penalty>  (1322) 
0.119307889586482

>  <r_epik_Ionization_Penalty>  (1322) 
0.056599999999999998

>  <r_epik_Ionization_Penalty_Charging>  (1322) 
0.056599999999999998

>  <r_epik_Ionization_Penalty_Neutral>  (1322) 
0

>  <r_epik_State_Penalty>  (1322) 
0.062700000000000006

>  <r_i_docking_score>  (1322) 
-5.23766327600711

>  <r_i_glide_ecoul>  (1322) 
-5.7844796180725098

>  <r_i_glide_eff_state_penalty>  (1322) 
0.062700000000000006

>  <r_i_glide_einternal>  (1322) 
8.5258855819702095

>  <r_i_glide_emodel>  (1322) 
-63.821503090110298

>  <r_i_glide_energy>  (1322) 
-44.763220310211203

>  <r_i_glide_erotb>  (1322) 
0.72313618729130202

>  <r_i_glide_esite>  (1322) 
-0.266720912925755

>  <r_i_glide_evdw>  (1322) 
-38.9787406921387

>  <r_i_glide_gscore>  (1322) 
-5.3003632760071104

>  <r_i_glide_hbond>  (1322) 
-0.49100017071327101

>  <r_i_glide_ligand_efficiency>  (1322) 
-0.154048919882562

>  <r_i_glide_ligand_efficiency_ln>  (1322) 
-1.1571467291486399

>  <r_i_glide_ligand_efficiency_sa>  (1322) 
-0.49905869823897803

>  <r_i_glide_lipo>  (1322) 
-1.9197389857204299

>  <r_i_glide_metal>  (1322) 
-0

>  <r_i_glide_rewards>  (1322) 
-0.52943041662115198

>  <r_lp_Energy>  (1322) 
18.896232999999999

>  <r_qp_ACxDN^.5/SA>  (1322) 
0.0122186

>  <r_qp_CIQPlogS>  (1322) 
-7.3979999999999997

>  <r_qp_EA(eV)>  (1322) 
0.97999999999999998

>  <r_qp_FISA>  (1322) 
105.02800000000001

>  <r_qp_FOSA>  (1322) 
261.82999999999998

>  <r_qp_IP(eV)>  (1322) 
8.1199999999999992

>  <r_qp_Jm>  (1322) 
0.00024355385016812899

>  <r_qp_PISA>  (1322) 
328.94099999999997

>  <r_qp_PSA>  (1322) 
72.091999999999999

>  <r_qp_PercentHumanOralAbsorption>  (1322) 
100

>  <r_qp_QPPCaco>  (1322) 
249.35400000000001

>  <r_qp_QPPMDCK>  (1322) 
248.84399999999999

>  <r_qp_QPlogBB>  (1322) 
-0.53500000000000003

>  <r_qp_QPlogHERG>  (1322) 
-6.6849999999999996

>  <r_qp_QPlogKhsa>  (1322) 
0.82299999999999995

>  <r_qp_QPlogKp>  (1322) 
-3.399

>  <r_qp_QPlogPC16>  (1322) 
15.539999999999999

>  <r_qp_QPlogPo/w>  (1322) 
4.8760000000000003

>  <r_qp_QPlogPoct>  (1322) 
23.350999999999999

>  <r_qp_QPlogPw>  (1322) 
11.627000000000001

>  <r_qp_QPlogS>  (1322) 
-5.8879999999999999

>  <r_qp_QPpolrz>  (1322) 
48.579000000000001

>  <r_qp_SASA>  (1322) 
752.32899999999995

>  <r_qp_SAamideO>  (1322) 
0

>  <r_qp_SAfluorine>  (1322) 
0

>  <r_qp_WPSA>  (1322) 
56.529000000000003

>  <r_qp_accptHB>  (1322) 
6.5

>  <r_qp_dip^2/V>  (1322) 
0.039673899999999998

>  <r_qp_dipole>  (1322) 
7.5839999999999996

>  <r_qp_donorHB>  (1322) 
2

>  <r_qp_glob>  (1322) 
0.82335999999999998

>  <r_qp_mol_MW>  (1322) 
471.00299999999999

>  <r_qp_volume>  (1322) 
1449.6030000000001

>  <r_sd_BIOSOLVEIT.INFINISEE\_FTREES\_SIMILARITY>  (1322) 
0.91800000000000004

>  <r_sd_BIOSOLVEIT.LOGP>  (1322) 
4.0660800000000004

>  <r_sd_BIOSOLVEIT.MOLECULAR\_WEIGHT>  (1322) 
472.01299999999998

>  <r_sd_BIOSOLVEIT.TPSA>  (1322) 
78.069999999999993

>  <i_epik_Tot_Q>  (1322) 
2

>  <i_epik_Tot_abs_Q>  (1322) 
2

>  <i_f3d_flags>  (1322) 
0

>  <i_i_glide_confnum>  (1322) 
2

>  <i_i_glide_lignum>  (1322) 
359

>  <i_i_glide_posenum>  (1322) 
19

>  <i_i_glide_rotatable_bonds>  (1322) 
9

>  <i_lp_mmshare_version>  (1322) 
65135

>  <i_m_ct_format>  (1322) 
2

>  <i_m_source_file_index>  (1322) 
934

>  <i_qp_#NandO>  (1322) 
6

>  <i_qp_#acid>  (1322) 
0

>  <i_qp_#amide>  (1322) 
0

>  <i_qp_#amidine>  (1322) 
0

>  <i_qp_#amine>  (1322) 
1

>  <i_qp_#in34>  (1322) 
0

>  <i_qp_#in56>  (1322) 
22

>  <i_qp_#metab>  (1322) 
4

>  <i_qp_#nonHatm>  (1322) 
34

>  <i_qp_#noncon>  (1322) 
0

>  <i_qp_#ringatoms>  (1322) 
22

>  <i_qp_#rotor>  (1322) 
10

>  <i_qp_#rtvFG>  (1322) 
0

>  <i_qp_#stars>  (1322) 
0

>  <i_qp_CNS>  (1322) 
1

>  <i_qp_HumanOralAbsorption>  (1322) 
3

>  <i_qp_RuleOfFive>  (1322) 
0

>  <i_qp_RuleOfThree>  (1322) 
1

>  <i_sd_BIOSOLVEIT.INFINISEE\_REAGENT1\_NAME>  (1322) 
21898562

>  <i_sd_BIOSOLVEIT.INFINISEE\_REAGENT2\_NAME>  (1322) 
22360182

>  <i_sd_BIOSOLVEIT.INFINISEE\_REAGENT3\_NAME>  (1322) 
21967972

>  <i_sd_BIOSOLVEIT.INFINISEE\_RESULT\_RANK>  (1322) 
21288

>  <i_sd_version>  (1322) 
0

>  <b_lp_Chiralities_Consistent>  (1322) 
1

>  <b_sd_chiral_flag>  (1322) 
0

>  <canonical_id>  (1322) 
ATP-HTVS-D0CA976BC689

>  <compound_code>  (1322) 
29859

>  <title>  (1322) 
m_282030aaa____21898562____22360182____21967972

>  <variant>  (1322) 
29859-1

>  <source_file>  (1322) 
运行/运行/ATP-VSW/ATP-VSW-DOCK_HTVS_1-003_lib/ATP-VSW-DOCK_HTVS_1-003_lib.mae

>  <canonical_smiles>  (1322) 
C[NH+](C)Cc1ccc(CCNc2nc(NCc3ccc(C#N)c(Cl)c3)[nH+]c3ccccc23)cc1

>  <scaffold>  (1322) 
c1ccc(CCNc2nc(NCc3ccccc3)[nH+]c3ccccc23)cc1

>  <molecular_formula>  (1322) 
C27H29ClN6+2

$$$$
ATP-HTVS-D0D9A6B890A3
     RDKit          3D

 55 57  0  0  0  0  0  0  0  0999 V2000
  196.2171  187.3692  157.4115 O   0  0  0  0  0  0  0  0  0  0  0  0
  197.3025  186.7905  157.4044 C   0  0  0  0  0  0  0  0  0  0  0  0
  197.8024  186.1232  158.4770 N   0  0  0  0  0  0  0  0  0  0  0  0
  196.9439  185.7529  159.6091 C   0  0  1  0  0  0  0  0  0  0  0  0
  196.1548  184.4783  159.3484 C   0  0  0  0  0  0  0  0  0  0  0  0
  194.7527  184.5242  159.2282 C   0  0  0  0  0  0  0  0  0  0  0  0
  194.0219  183.3618  158.9216 C   0  0  0  0  0  0  0  0  0  0  0  0
  194.6885  182.1311  158.7818 C   0  0  0  0  0  0  0  0  0  0  0  0
  196.0836  182.0745  158.9332 C   0  0  0  0  0  0  0  0  0  0  0  0
  196.8220  183.2433  159.2018 C   0  0  0  0  0  0  0  0  0  0  0  0
  199.2278  185.7942  158.6084 C   0  0  2  0  0  0  0  0  0  0  0  0
  198.1044  186.7360  156.1328 C   0  0  0  0  0  0  0  0  0  0  0  0
  198.2717  185.5258  155.4060 C   0  0  0  0  0  0  0  0  0  0  0  0
  197.6561  184.3318  155.8223 N   0  0  0  0  0  0  0  0  0  0  0  0
  198.0867  183.0055  155.6578 C   0  0  0  0  0  0  0  0  0  0  0  0
  197.1336  181.9829  155.8340 C   0  0  0  0  0  0  0  0  0  0  0  0
  197.4965  180.6310  155.7015 C   0  0  0  0  0  0  0  0  0  0  0  0
  198.8214  180.2831  155.3794 C   0  0  0  0  0  0  0  0  0  0  0  0
  199.7851  181.2990  155.2101 C   0  0  0  0  0  0  0  0  0  0  0  0
  199.4261  182.6519  155.3720 C   0  0  0  0  0  0  0  0  0  0  0  0
  199.2138  178.8217  155.2433 C   0  0  1  0  0  0  0  0  0  0  0  0
  199.5472  178.1786  156.5417 N   0  0  2  0  0  0  0  0  0  0  0  0
  200.5476  178.9131  157.3499 C   0  0  2  0  0  0  0  0  0  0  0  0
  199.9427  176.7676  156.3633 C   0  0  2  0  0  0  0  0  0  0  0  0
  199.0542  185.5690  154.2318 C   0  0  0  0  0  0  0  0  0  0  0  0
  199.6312  186.7865  153.8332 C   0  0  0  0  0  0  0  0  0  0  0  0
  199.4762  187.9376  154.5166 N   0  0  0  0  0  0  0  0  0  0  0  0
  198.7178  187.9081  155.6343 C   0  0  0  0  0  0  0  0  0  0  0  0
  197.5409  185.5977  160.5046 H   0  0  0  0  0  0  0  0  0  0  0  0
  196.2639  186.5702  159.8626 H   0  0  0  0  0  0  0  0  0  0  0  0
  194.2307  185.4575  159.3444 H   0  0  0  0  0  0  0  0  0  0  0  0
  192.9492  183.4135  158.8073 H   0  0  0  0  0  0  0  0  0  0  0  0
  194.1404  181.2290  158.5477 H   0  0  0  0  0  0  0  0  0  0  0  0
  196.5879  181.1257  158.8192 H   0  0  0  0  0  0  0  0  0  0  0  0
  197.8980  183.1830  159.2866 H   0  0  0  0  0  0  0  0  0  0  0  0
  199.8067  186.7156  158.6309 H   0  0  0  0  0  0  0  0  0  0  0  0
  199.6018  185.1802  157.7885 H   0  0  0  0  0  0  0  0  0  0  0  0
  199.4504  185.2404  159.5217 H   0  0  0  0  0  0  0  0  0  0  0  0
  196.7956  184.4321  156.3432 H   0  0  0  0  0  0  0  0  0  0  0  0
  196.1123  182.2250  156.0896 H   0  0  0  0  0  0  0  0  0  0  0  0
  196.7515  179.8657  155.8668 H   0  0  0  0  0  0  0  0  0  0  0  0
  200.8083  181.0469  154.9777 H   0  0  0  0  0  0  0  0  0  0  0  0
  200.2012  183.3992  155.2880 H   0  0  0  0  0  0  0  0  0  0  0  0
  198.3936  178.2704  154.7795 H   0  0  0  0  0  0  0  0  0  0  0  0
  200.0636  178.7477  154.5633 H   0  0  0  0  0  0  0  0  0  0  0  0
  201.4962  179.0126  156.8121 H   0  0  0  0  0  0  0  0  0  0  0  0
  200.7449  178.3938  158.2928 H   0  0  0  0  0  0  0  0  0  0  0  0
  200.1999  179.9111  157.6182 H   0  0  0  0  0  0  0  0  0  0  0  0
  200.8613  176.6771  155.7793 H   0  0  0  0  0  0  0  0  0  0  0  0
  199.1522  176.2274  155.8450 H   0  0  0  0  0  0  0  0  0  0  0  0
  200.1100  176.2922  157.3314 H   0  0  0  0  0  0  0  0  0  0  0  0
  199.1982  184.6845  153.6318 H   0  0  0  0  0  0  0  0  0  0  0  0
  200.2325  186.8266  152.9360 H   0  0  0  0  0  0  0  0  0  0  0  0
  198.6221  188.8537  156.1508 H   0  0  0  0  0  0  0  0  0  0  0  0
  198.6914  178.1538  157.0993 H   0  0  0  0  0  0  0  0  0  0  0  0
  1  2  2  0
  2  3  1  0
  2 12  1  0
  3  4  1  0
  3 11  1  0
  4  5  1  0
  4 29  1  1
  4 30  1  0
  5  6  2  0
  5 10  1  0
  6  7  1  0
  6 31  1  0
  7  8  2  0
  7 32  1  0
  8  9  1  0
  8 33  1  0
  9 10  2  0
  9 34  1  0
 10 35  1  0
 11 36  1  1
 11 37  1  0
 11 38  1  0
 12 13  1  0
 12 28  2  0
 13 14  1  0
 13 25  2  0
 14 15  1  0
 14 39  1  0
 15 16  1  0
 15 20  2  0
 16 17  2  0
 16 40  1  0
 17 18  1  0
 17 41  1  0
 18 19  2  0
 18 21  1  0
 19 20  1  0
 19 42  1  0
 20 43  1  0
 21 22  1  0
 21 44  1  6
 21 45  1  0
 22 23  1  0
 22 24  1  0
 22 55  1  1
 23 46  1  6
 23 47  1  0
 23 48  1  0
 24 49  1  6
 24 50  1  0
 24 51  1  0
 25 26  1  0
 25 52  1  0
 26 27  2  0
 26 53  1  0
 27 28  1  0
 28 54  1  0
M  CHG  1  22   1
M  END
>  <s_epik_cmdline>  (1323) 
J2VwaWtfcHl0aG9uJywgJy1waCcsICc3LjAwMDAwMCcsICctcGh0JywgJzIuMDAwMDAwJywgJy1tcycsICcxNicsICctdG4nLCAnOCcsICctbWEnLCAnMjAwJywgJy1pbWFlJywgJzxpbmZpbGUubWFlPicsICctb21hZScsICc8b3V0ZmlsZS5tYWU+Jw==

>  <s_epik_input>  (1323) 
W2NIXTFbY0hdW2NIXVtjSF1bY0hdYzFbQ0gyXU4oW0NIM10pQyg9TyljMmMoW2NIXVtjSF1uW2NIXTIpW05IXWMzW2NIXVtjSF1jKFtjSF1bY0hdMylbQ0gyXU4oW0NIM10pW0NIM10=

>  <s_i_glide_gridfile>  (1323) 
ATP-Grid

>  <s_lp_Force_Field>  (1323) 
OPLS_2005

>  <s_lp_Variant>  (1323) 
rxn514b____EMOL480996____EMOL36751001____EMOL2732950-1

>  <s_lp_label>  (1323) 
2790_sdstereoexpander_1_neutralizer_1_epik_1_stereoizer_1

>  <s_m_source_file>  (1323) 
ATP-VSW-LIGPREP-002-in.maegz

>  <s_sd_BIOSOLVEIT.INFINISEE\_QUERY\_NAME>  (1323) 
Ref-Lig

>  <s_sd_BIOSOLVEIT.INFINISEE\_QUERY\_SMILES>  (1323) 
S(c1nc2c(cc1C[NH2+]Cc3ccc(cc3)C[NH+](C)C)cccc2)Cc4ccccc4

>  <s_sd_BIOSOLVEIT.INFINISEE\_REACTION\_NAME>  (1323) 
rxn514b

>  <s_sd_BIOSOLVEIT.INFINISEE\_REAGENT1\_NAME>  (1323) 
EMOL480996

>  <s_sd_BIOSOLVEIT.INFINISEE\_REAGENT1\_SMILES>  (1323) 
N(Cc1ccccc1)C

>  <s_sd_BIOSOLVEIT.INFINISEE\_REAGENT2\_NAME>  (1323) 
EMOL36751001

>  <s_sd_BIOSOLVEIT.INFINISEE\_REAGENT2\_SMILES>  (1323) 
O=C(OC(C)(C)C)Nc1c(cncc1)C(=O)O

>  <s_sd_BIOSOLVEIT.INFINISEE\_REAGENT3\_NAME>  (1323) 
EMOL2732950

>  <s_sd_BIOSOLVEIT.INFINISEE\_REAGENT3\_SMILES>  (1323) 
Brc1ccc(cc1)CN(C)C

>  <s_sd_BIOSOLVEIT.INFINISEE\_SPACE>  (1323) 
eXplore_7tr_2022-12

>  <s_vsw_compound_code>  (1323) 
89250

>  <s_vsw_variant>  (1323) 
89250-1

>  <r_epik_Charging_Adjusted_Penalty>  (1323) 
0.099998483266034

>  <r_epik_Ionization_Penalty>  (1323) 
0.064600000000000005

>  <r_epik_Ionization_Penalty_Charging>  (1323) 
0.037100000000000001

>  <r_epik_Ionization_Penalty_Neutral>  (1323) 
0.0275

>  <r_epik_State_Penalty>  (1323) 
0.062899999999999998

>  <r_i_docking_score>  (1323) 
-4.4749182814152197

>  <r_i_glide_ecoul>  (1323) 
-9.1331710815429705

>  <r_i_glide_eff_state_penalty>  (1323) 
0.062899999999999998

>  <r_i_glide_einternal>  (1323) 
4.8160877227783203

>  <r_i_glide_emodel>  (1323) 
-56.299858694228497

>  <r_i_glide_energy>  (1323) 
-42.060947418212898

>  <r_i_glide_erotb>  (1323) 
0.82334991291613402

>  <r_i_glide_esite>  (1323) 
-0.105313090645154

>  <r_i_glide_evdw>  (1323) 
-32.927776336669901

>  <r_i_glide_gscore>  (1323) 
-4.5378182814152197

>  <r_i_glide_hbond>  (1323) 
-0.20000000000000001

>  <r_i_glide_ligand_efficiency>  (1323) 
-0.15981851005054401

>  <r_i_glide_ligand_efficiency_ln>  (1323) 
-1.0329425286606

>  <r_i_glide_ligand_efficiency_sa>  (1323) 
-0.485303124582038

>  <r_i_glide_lipo>  (1323) 
-1.0140085301507

>  <r_i_glide_metal>  (1323) 
-0

>  <r_i_glide_rewards>  (1323) 
-1.02548209447056

>  <r_lp_Energy>  (1323) 
31.736377000000001

>  <r_lp_tautomer_probability>  (1323) 
0.999999106000799

>  <r_qp_ACxDN^.5/SA>  (1323) 
0

>  <r_qp_CIQPlogS>  (1323) 
-4.274

>  <r_qp_EA(eV)>  (1323) 
0.33800000000000002

>  <r_qp_FISA>  (1323) 
66.025000000000006

>  <r_qp_FOSA>  (1323) 
282.46600000000001

>  <r_qp_IP(eV)>  (1323) 
8.2279999999999998

>  <r_qp_Jm>  (1323) 
0.16147131214595101

>  <r_qp_PISA>  (1323) 
318.78899999999999

>  <r_qp_PSA>  (1323) 
54

>  <r_qp_PercentHumanOralAbsorption>  (1323) 
100

>  <r_qp_QPPCaco>  (1323) 
584.36300000000006

>  <r_qp_QPPMDCK>  (1323) 
306.22500000000002

>  <r_qp_QPlogBB>  (1323) 
-0.091999999999999998

>  <r_qp_QPlogHERG>  (1323) 
-6.4539999999999997

>  <r_qp_QPlogKhsa>  (1323) 
0.30399999999999999

>  <r_qp_QPlogKp>  (1323) 
-3.004

>  <r_qp_QPlogPC16>  (1323) 
12.407

>  <r_qp_QPlogPo/w>  (1323) 
3.8260000000000001

>  <r_qp_QPlogPoct>  (1323) 
17.219999999999999

>  <r_qp_QPlogPw>  (1323) 
8.3079999999999998

>  <r_qp_QPlogS>  (1323) 
-3.3610000000000002

>  <r_qp_QPpolrz>  (1323) 
41.856999999999999

>  <r_qp_SASA>  (1323) 
667.27999999999997

>  <r_qp_SAamideO>  (1323) 
0

>  <r_qp_SAfluorine>  (1323) 
0

>  <r_qp_WPSA>  (1323) 
0

>  <r_qp_accptHB>  (1323) 
6

>  <r_qp_dip^2/V>  (1323) 
0.027274300000000001

>  <r_qp_dipole>  (1323) 
5.806

>  <r_qp_donorHB>  (1323) 
0

>  <r_qp_glob>  (1323) 
0.8346768

>  <r_qp_mol_MW>  (1323) 
374.48500000000001

>  <r_qp_volume>  (1323) 
1235.9259999999999

>  <r_sd_BIOSOLVEIT.INFINISEE\_FTREES\_SIMILARITY>  (1323) 
0.90600000000000003

>  <r_sd_BIOSOLVEIT.LOGP>  (1323) 
2.7418999999999998

>  <r_sd_BIOSOLVEIT.MOLECULAR\_WEIGHT>  (1323) 
375.49299999999999

>  <r_sd_BIOSOLVEIT.TPSA>  (1323) 
49.670000000000002

>  <i_epik_Tot_Q>  (1323) 
1

>  <i_epik_Tot_abs_Q>  (1323) 
1

>  <i_f3d_flags>  (1323) 
0

>  <i_i_glide_confnum>  (1323) 
7

>  <i_i_glide_lignum>  (1323) 
1344

>  <i_i_glide_posenum>  (1323) 
12

>  <i_i_glide_rotatable_bonds>  (1323) 
8

>  <i_lp_mmshare_version>  (1323) 
65135

>  <i_m_ct_format>  (1323) 
2

>  <i_m_source_file_index>  (1323) 
2790

>  <i_qp_#NandO>  (1323) 
5

>  <i_qp_#acid>  (1323) 
0

>  <i_qp_#amide>  (1323) 
0

>  <i_qp_#amidine>  (1323) 
0

>  <i_qp_#amine>  (1323) 
1

>  <i_qp_#in34>  (1323) 
0

>  <i_qp_#in56>  (1323) 
18

>  <i_qp_#metab>  (1323) 
6

>  <i_qp_#nonHatm>  (1323) 
28

>  <i_qp_#noncon>  (1323) 
0

>  <i_qp_#ringatoms>  (1323) 
18

>  <i_qp_#rotor>  (1323) 
7

>  <i_qp_#rtvFG>  (1323) 
0

>  <i_qp_#stars>  (1323) 
0

>  <i_qp_CNS>  (1323) 
1

>  <i_qp_HumanOralAbsorption>  (1323) 
3

>  <i_qp_RuleOfFive>  (1323) 
0

>  <i_qp_RuleOfThree>  (1323) 
0

>  <i_sd_BIOSOLVEIT.INFINISEE\_RESULT\_RANK>  (1323) 
62637

>  <i_sd_version>  (1323) 
0

>  <b_lp_Chiralities_Consistent>  (1323) 
1

>  <b_sd_chiral_flag>  (1323) 
0

>  <canonical_id>  (1323) 
ATP-HTVS-D0D9A6B890A3

>  <compound_code>  (1323) 
89250

>  <title>  (1323) 
rxn514b____EMOL480996____EMOL36751001____EMOL2732950

>  <variant>  (1323) 
89250-1

>  <source_file>  (1323) 
运行/运行/ATP-VSW/ATP-VSW-DOCK_HTVS_1-002_lib.maegz

>  <canonical_smiles>  (1323) 
CN(Cc1ccccc1)C(=O)c1cnccc1Nc1ccc(C[NH+](C)C)cc1

>  <scaffold>  (1323) 
O=C(NCc1ccccc1)c1cnccc1Nc1ccccc1

>  <molecular_formula>  (1323) 
C23H27N4O+

$$$$
ATP-HTVS-D102EB8CAB11
     RDKit          3D

 61 64  0  0  0  0  0  0  0  0999 V2000
  199.9090  181.9524  151.4725 S   0  0  0  0  0  0  0  0  0  0  0  0
  199.5327  180.2925  151.0237 C   0  0  0  0  0  0  0  0  0  0  0  0
  198.2576  179.9350  151.5496 C   0  0  0  0  0  0  0  0  0  0  0  0
  197.6042  180.9241  152.2760 N   0  0  0  0  0  0  0  0  0  0  0  0
  198.3652  182.0263  152.3376 C   0  0  0  0  0  0  0  0  0  0  0  0
  197.9219  183.2592  153.0608 C   0  0  2  0  0  0  0  0  0  0  0  0
  197.4271  182.8501  154.3606 N   0  0  0  0  0  0  0  0  0  0  0  0
  198.0973  182.9985  155.5121 C   0  0  0  0  0  0  0  0  0  0  0  0
  199.1740  183.5951  155.6254 O   0  0  0  0  0  0  0  0  0  0  0  0
  197.4583  182.4553  156.5475 N   0  0  0  0  0  0  0  0  0  0  0  0
  197.9085  182.6455  157.9167 C   0  0  1  0  0  0  0  0  0  0  0  0
  197.3490  183.9410  158.5332 C   0  0  0  0  0  0  0  0  0  0  0  0
  195.9637  184.2855  158.5903 C   0  0  0  0  0  0  0  0  0  0  0  0
  195.5690  185.5047  159.2088 C   0  0  0  0  0  0  0  0  0  0  0  0
  196.5358  186.3647  159.7541 C   0  0  0  0  0  0  0  0  0  0  0  0
  196.1583  187.5304  160.3247 F   0  0  0  0  0  0  0  0  0  0  0  0
  197.8932  186.0171  159.7205 C   0  0  0  0  0  0  0  0  0  0  0  0
  198.2972  184.8104  159.1256 C   0  0  0  0  0  0  0  0  0  0  0  0
  194.8585  183.3848  158.0347 C   0  0  1  0  0  0  0  0  0  0  0  0
  194.5111  182.2184  158.8991 N   0  0  2  0  0  0  0  0  0  0  0  0
  195.6559  181.4627  159.3872 C   0  0  2  0  0  0  0  0  0  0  0  0
  193.5625  181.2841  158.2641 C   0  0  2  0  0  0  0  0  0  0  0  0
  196.8562  184.0672  152.3034 C   0  0  1  0  0  0  0  0  0  0  0  0
  197.2648  184.4326  150.8869 C   0  0  0  0  0  0  0  0  0  0  0  0
  198.1610  185.4973  150.6632 C   0  0  0  0  0  0  0  0  0  0  0  0
  198.5558  185.8223  149.3524 C   0  0  0  0  0  0  0  0  0  0  0  0
  198.0529  185.0934  148.2585 C   0  0  0  0  0  0  0  0  0  0  0  0
  197.1512  184.0357  148.4779 C   0  0  0  0  0  0  0  0  0  0  0  0
  196.7582  183.7058  149.7886 C   0  0  0  0  0  0  0  0  0  0  0  0
  197.7824  178.6317  151.2894 C   0  0  0  0  0  0  0  0  0  0  0  0
  198.5404  177.7143  150.5353 C   0  0  0  0  0  0  0  0  0  0  0  0
  199.7971  178.0899  150.0250 C   0  0  0  0  0  0  0  0  0  0  0  0
  200.2964  179.3827  150.2690 C   0  0  0  0  0  0  0  0  0  0  0  0
  198.7976  183.8976  153.1853 H   0  0  0  0  0  0  0  0  0  0  0  0
  196.5307  182.3874  154.3966 H   0  0  0  0  0  0  0  0  0  0  0  0
  196.5841  181.9619  156.3912 H   0  0  0  0  0  0  0  0  0  0  0  0
  197.7489  181.8222  158.4951 H   0  0  0  0  0  0  0  0  0  0  0  0
  199.0024  182.5805  157.9938 H   0  0  0  0  0  0  0  0  0  0  0  0
  194.5321  185.7882  159.2498 H   0  0  0  0  0  0  0  0  0  0  0  0
  198.6399  186.6720  160.1325 H   0  0  0  0  0  0  0  0  0  0  0  0
  199.3406  184.5310  159.1075 H   0  0  0  0  0  0  0  0  0  0  0  0
  193.9471  183.9649  157.8887 H   0  0  0  0  0  0  0  0  0  0  0  0
  195.1068  183.0697  157.0319 H   0  0  0  0  0  0  0  0  0  0  0  0
  196.0989  181.0567  158.4667 H   0  0  0  0  0  0  0  0  0  0  0  0
  195.4836  180.6452  160.0572 H   0  0  0  0  0  0  0  0  0  0  0  0
  196.3457  182.1379  159.8898 H   0  0  0  0  0  0  0  0  0  0  0  0
  193.9590  180.8677  157.3332 H   0  0  0  0  0  0  0  0  0  0  0  0
  192.6189  181.7860  158.0496 H   0  0  0  0  0  0  0  0  0  0  0  0
  193.3631  180.4491  158.9391 H   0  0  0  0  0  0  0  0  0  0  0  0
  195.9400  183.4832  152.2475 H   0  0  0  0  0  0  0  0  0  0  0  0
  196.6066  184.9753  152.8552 H   0  0  0  0  0  0  0  0  0  0  0  0
  198.5540  186.0613  151.4962 H   0  0  0  0  0  0  0  0  0  0  0  0
  199.2484  186.6337  149.1836 H   0  0  0  0  0  0  0  0  0  0  0  0
  198.3561  185.3485  147.2532 H   0  0  0  0  0  0  0  0  0  0  0  0
  196.7666  183.4752  147.6387 H   0  0  0  0  0  0  0  0  0  0  0  0
  196.0759  182.8854  149.9511 H   0  0  0  0  0  0  0  0  0  0  0  0
  196.8232  178.3368  151.6868 H   0  0  0  0  0  0  0  0  0  0  0  0
  198.1586  176.7209  150.3495 H   0  0  0  0  0  0  0  0  0  0  0  0
  200.3771  177.3851  149.4468 H   0  0  0  0  0  0  0  0  0  0  0  0
  201.2601  179.6761  149.8809 H   0  0  0  0  0  0  0  0  0  0  0  0
  194.0943  182.5899  159.7354 H   0  0  0  0  0  0  0  0  0  0  0  0
  1  2  1  0
  1  5  1  0
  2  3  1  0
  2 33  2  0
  3  4  1  0
  3 30  2  0
  4  5  2  0
  5  6  1  0
  6  7  1  0
  6 23  1  0
  6 34  1  1
  7  8  1  0
  7 35  1  0
  8  9  2  0
  8 10  1  0
 10 11  1  0
 10 36  1  0
 11 12  1  0
 11 37  1  1
 11 38  1  0
 12 13  2  0
 12 18  1  0
 13 14  1  0
 13 19  1  0
 14 15  2  0
 14 39  1  0
 15 16  1  0
 15 17  1  0
 17 18  2  0
 17 40  1  0
 18 41  1  0
 19 20  1  0
 19 42  1  6
 19 43  1  0
 20 21  1  0
 20 22  1  0
 20 61  1  1
 21 44  1  6
 21 45  1  0
 21 46  1  0
 22 47  1  6
 22 48  1  0
 22 49  1  0
 23 24  1  0
 23 50  1  6
 23 51  1  0
 24 25  2  0
 24 29  1  0
 25 26  1  0
 25 52  1  0
 26 27  2  0
 26 53  1  0
 27 28  1  0
 27 54  1  0
 28 29  2  0
 28 55  1  0
 29 56  1  0
 30 31  1  0
 30 57  1  0
 31 32  2  0
 31 58  1  0
 32 33  1  0
 32 59  1  0
 33 60  1  0
M  CHG  1  20   1
M  END
>  <s_epik_cmdline>  (1324) 
J2VwaWtfcHl0aG9uJywgJy1waCcsICc3LjAwMDAwMCcsICctcGh0JywgJzIuMDAwMDAwJywgJy1tcycsICcxNicsICctdG4nLCAnOCcsICctbWEnLCAnMjAwJywgJy1pbWFlJywgJzxpbmZpbGUubWFlPicsICctb21hZScsICc8b3V0ZmlsZS5tYWU+Jw==

>  <s_epik_input>  (1324) 
W2NIXTFbY0hdW2NIXVtjSF1bY0hdYzFbQ0gyXVtDQEhdKGMoczIpbmMoYzIzKVtjSF1bY0hdW2NIXVtjSF0zKVtOSF1DKD1PKVtOSF1bQ0gyXWM0YyhbQ0gyXU4oW0NIM10pW0NIM10pW2NIXWMoRilbY0hdW2NIXTQ=

>  <s_i_glide_gridfile>  (1324) 
ATP-Grid

>  <s_lp_Force_Field>  (1324) 
OPLS_2005

>  <s_lp_Variant>  (1324) 
m_2708bba____10812878____23885712-1

>  <s_lp_label>  (1324) 
1908_sdstereoexpander_1_neutralizer_1_epik_1_stereoizer_1

>  <s_m_source_file>  (1324) 
ATP-VSW-LIGPREP-001-in.maegz

>  <s_sd_BIOSOLVEIT.INFINISEE\_QUERY\_NAME>  (1324) 
Ref-Lig

>  <s_sd_BIOSOLVEIT.INFINISEE\_QUERY\_SMILES>  (1324) 
S(c1nc2c(cc1C[NH2+]Cc3ccc(cc3)C[NH+](C)C)cccc2)Cc4ccccc4

>  <s_sd_BIOSOLVEIT.INFINISEE\_REACTION\_NAME>  (1324) 
m_2708bba

>  <s_sd_BIOSOLVEIT.INFINISEE\_REAGENT1\_SMILES>  (1324) 
[R1*]C(=O)NC(C=1Sc2c(N1)cccc2)Cc3ccccc3

>  <s_sd_BIOSOLVEIT.INFINISEE\_REAGENT2\_SMILES>  (1324) 
[R1*]NCc1c(cc(F)cc1)CN(C)C

>  <s_sd_BIOSOLVEIT.INFINISEE\_SPACE>  (1324) 
REALSpace_44bn_2023-08

>  <s_vsw_compound_code>  (1324) 
61025

>  <s_vsw_variant>  (1324) 
61025-1

>  <r_epik_Charging_Adjusted_Penalty>  (1324) 
0.103479876594958

>  <r_epik_Ionization_Penalty>  (1324) 
0.051999999999999998

>  <r_epik_Ionization_Penalty_Charging>  (1324) 
0.051700000000000003

>  <r_epik_Ionization_Penalty_Neutral>  (1324) 
0.00029999999999999997

>  <r_epik_State_Penalty>  (1324) 
0.051700000000000003

>  <r_i_docking_score>  (1324) 
-4.5956258992815

>  <r_i_glide_ecoul>  (1324) 
-8.1131381988525408

>  <r_i_glide_eff_state_penalty>  (1324) 
0.051700000000000003

>  <r_i_glide_einternal>  (1324) 
1.86031305789948

>  <r_i_glide_emodel>  (1324) 
-54.574078905674803

>  <r_i_glide_energy>  (1324) 
-38.537549972534201

>  <r_i_glide_erotb>  (1324) 
0.84393566059957803

>  <r_i_glide_esite>  (1324) 
-0.134406991050492

>  <r_i_glide_evdw>  (1324) 
-30.424411773681602

>  <r_i_glide_gscore>  (1324) 
-4.6473258992815003

>  <r_i_glide_hbond>  (1324) 
0

>  <r_i_glide_ligand_efficiency>  (1324) 
-0.13926139088731801

>  <r_i_glide_ligand_efficiency_ln>  (1324) 
-1.02204340512277

>  <r_i_glide_ligand_efficiency_sa>  (1324) 
-0.44668569159342802

>  <r_i_glide_lipo>  (1324) 
-1.8274514316085499

>  <r_i_glide_metal>  (1324) 
-0

>  <r_i_glide_rewards>  (1324) 
-0.79121181871007396

>  <r_lp_Energy>  (1324) 
3.7165520000000001

>  <r_qp_ACxDN^.5/SA>  (1324) 
0.0108228

>  <r_qp_CIQPlogS>  (1324) 
-5.9160000000000004

>  <r_qp_EA(eV)>  (1324) 
1.0800000000000001

>  <r_qp_FISA>  (1324) 
41.649000000000001

>  <r_qp_FOSA>  (1324) 
209.86199999999999

>  <r_qp_IP(eV)>  (1324) 
8.5820000000000007

>  <r_qp_Jm>  (1324) 
0.0287919623566706

>  <r_qp_PISA>  (1324) 
389.28500000000003

>  <r_qp_PSA>  (1324) 
61.735999999999997

>  <r_qp_PercentHumanOralAbsorption>  (1324) 
100

>  <r_qp_QPPCaco>  (1324) 
964.06100000000004

>  <r_qp_QPPMDCK>  (1324) 
1454.0609999999999

>  <r_qp_QPlogBB>  (1324) 
0.27100000000000002

>  <r_qp_QPlogHERG>  (1324) 
-5.4329999999999998

>  <r_qp_QPlogKhsa>  (1324) 
0.58799999999999997

>  <r_qp_QPlogKp>  (1324) 
-2.21

>  <r_qp_QPlogPC16>  (1324) 
14.454000000000001

>  <r_qp_QPlogPo/w>  (1324) 
4.8040000000000003

>  <r_qp_QPlogPoct>  (1324) 
22.361999999999998

>  <r_qp_QPlogPw>  (1324) 
11.117000000000001

>  <r_qp_QPlogS>  (1324) 
-4.9960000000000004

>  <r_qp_QPpolrz>  (1324) 
47.606999999999999

>  <r_qp_SASA>  (1324) 
718.68600000000004

>  <r_qp_SAamideO>  (1324) 
1.726

>  <r_qp_SAfluorine>  (1324) 
41.869999999999997

>  <r_qp_WPSA>  (1324) 
77.890000000000001

>  <r_qp_accptHB>  (1324) 
5.5

>  <r_qp_dip^2/V>  (1324) 
0.033918299999999998

>  <r_qp_dipole>  (1324) 
6.8390000000000004

>  <r_qp_donorHB>  (1324) 
2

>  <r_qp_glob>  (1324) 
0.83361359999999995

>  <r_qp_mol_MW>  (1324) 
462.584

>  <r_qp_volume>  (1324) 
1378.8230000000001

>  <r_sd_BIOSOLVEIT.INFINISEE\_FTREES\_SIMILARITY>  (1324) 
0.90300000000000002

>  <r_sd_BIOSOLVEIT.LOGP>  (1324) 
3.8631000000000002

>  <r_sd_BIOSOLVEIT.MOLECULAR\_WEIGHT>  (1324) 
463.59699999999998

>  <r_sd_BIOSOLVEIT.TPSA>  (1324) 
58.460000000000001

>  <i_epik_Tot_Q>  (1324) 
1

>  <i_epik_Tot_abs_Q>  (1324) 
1

>  <i_f3d_flags>  (1324) 
0

>  <i_i_glide_confnum>  (1324) 
5

>  <i_i_glide_lignum>  (1324) 
571

>  <i_i_glide_posenum>  (1324) 
13

>  <i_i_glide_rotatable_bonds>  (1324) 
10

>  <i_lp_mmshare_version>  (1324) 
65135

>  <i_m_ct_format>  (1324) 
2

>  <i_m_source_file_index>  (1324) 
1908

>  <i_qp_#NandO>  (1324) 
5

>  <i_qp_#acid>  (1324) 
0

>  <i_qp_#amide>  (1324) 
1

>  <i_qp_#amidine>  (1324) 
0

>  <i_qp_#amine>  (1324) 
1

>  <i_qp_#in34>  (1324) 
0

>  <i_qp_#in56>  (1324) 
21

>  <i_qp_#metab>  (1324) 
6

>  <i_qp_#nonHatm>  (1324) 
33

>  <i_qp_#noncon>  (1324) 
0

>  <i_qp_#ringatoms>  (1324) 
21

>  <i_qp_#rotor>  (1324) 
8

>  <i_qp_#rtvFG>  (1324) 
0

>  <i_qp_#stars>  (1324) 
0

>  <i_qp_CNS>  (1324) 
1

>  <i_qp_HumanOralAbsorption>  (1324) 
3

>  <i_qp_RuleOfFive>  (1324) 
0

>  <i_qp_RuleOfThree>  (1324) 
0

>  <i_sd_BIOSOLVEIT.INFINISEE\_REAGENT1\_NAME>  (1324) 
10812878

>  <i_sd_BIOSOLVEIT.INFINISEE\_REAGENT2\_NAME>  (1324) 
23885712

>  <i_sd_BIOSOLVEIT.INFINISEE\_RESULT\_RANK>  (1324) 
84838

>  <i_sd_version>  (1324) 
0

>  <b_lp_Chiralities_Consistent>  (1324) 
1

>  <b_sd_chiral_flag>  (1324) 
0

>  <canonical_id>  (1324) 
ATP-HTVS-D102EB8CAB11

>  <compound_code>  (1324) 
61025

>  <title>  (1324) 
m_2708bba____10812878____23885712

>  <variant>  (1324) 
61025-1

>  <source_file>  (1324) 
运行/运行/ATP-VSW/ATP-VSW-DOCK_HTVS_1-001_lib/ATP-VSW-DOCK_HTVS_1-001_lib

>  <canonical_smiles>  (1324) 
C[NH+](C)Cc1cc(F)ccc1CNC(=O)N[C@H](Cc1ccccc1)c1nc2ccccc2s1

>  <scaffold>  (1324) 
O=C(NCc1ccccc1)NC(Cc1ccccc1)c1nc2ccccc2s1

>  <molecular_formula>  (1324) 
C26H28FN4OS+

$$$$
ATP-HTVS-D1462A8BE621
     RDKit          3D

 52 55  0  0  0  0  0  0  0  0999 V2000
  200.3656  177.1169  158.5160 F   0  0  0  0  0  0  0  0  0  0  0  0
  200.6777  177.0398  157.1996 C   0  0  0  0  0  0  0  0  0  0  0  0
  201.5439  176.0263  156.7388 C   0  0  0  0  0  0  0  0  0  0  0  0
  201.8882  175.9548  155.3808 C   0  0  0  0  0  0  0  0  0  0  0  0
  202.7143  174.9802  154.9425 F   0  0  0  0  0  0  0  0  0  0  0  0
  201.3785  176.9062  154.4781 C   0  0  0  0  0  0  0  0  0  0  0  0
  200.4979  177.9113  154.9257 C   0  0  0  0  0  0  0  0  0  0  0  0
  200.1466  177.9801  156.2930 C   0  0  0  0  0  0  0  0  0  0  0  0
  199.9611  178.9076  153.9484 C   0  0  0  0  0  0  0  0  0  0  0  0
  200.7171  179.5152  153.1931 O   0  0  0  0  0  0  0  0  0  0  0  0
  198.6224  179.0324  153.9296 N   0  0  0  0  0  0  0  0  0  0  0  0
  197.8829  179.6634  152.8834 C   0  0  0  0  0  0  0  0  0  0  0  0
  197.0889  180.8033  153.1411 C   0  0  0  0  0  0  0  0  0  0  0  0
  196.9884  181.3522  154.4682 C   0  0  0  0  0  0  0  0  0  0  0  0
  196.9277  181.7045  155.6327 C   0  0  0  0  0  0  0  0  0  0  0  0
  196.9106  182.1179  157.0183 C   0  0  1  0  0  0  0  0  0  0  0  0
  195.5463  181.8676  157.5094 N   0  0  1  0  0  0  0  0  0  0  0  0
  195.3239  182.1145  158.9444 C   0  0  1  0  0  0  0  0  0  0  0  0
  195.7263  183.5200  159.3712 C   0  0  0  0  0  0  0  0  0  0  0  0
  197.0995  183.8631  159.4927 C   0  0  0  0  0  0  0  0  0  0  0  0
  197.4818  185.1797  159.7379 C   0  0  0  0  0  0  0  0  0  0  0  0
  196.5079  186.1644  160.0059 C   0  0  0  0  0  0  0  0  0  0  0  0
  195.1466  185.8213  159.9584 C   0  0  0  0  0  0  0  0  0  0  0  0
  194.7542  184.5078  159.6288 C   0  0  0  0  0  0  0  0  0  0  0  0
  196.3559  181.3928  152.0964 C   0  0  0  0  0  0  0  0  0  0  0  0
  196.3496  180.9014  150.8453 N   0  0  0  0  0  0  0  0  0  0  0  0
  197.0727  179.7938  150.5802 C   0  0  0  0  0  0  0  0  0  0  0  0
  197.8537  179.1295  151.5689 C   0  0  0  0  0  0  0  0  0  0  0  0
  198.5649  177.9518  151.2259 C   0  0  0  0  0  0  0  0  0  0  0  0
  198.5260  177.4489  149.9196 C   0  0  0  0  0  0  0  0  0  0  0  0
  197.7611  178.1001  148.9390 C   0  0  0  0  0  0  0  0  0  0  0  0
  197.0385  179.2589  149.2768 C   0  0  0  0  0  0  0  0  0  0  0  0
  194.8806  182.3817  156.9474 H   0  0  0  0  0  0  0  0  0  0  0  0
  201.9431  175.2939  157.4187 H   0  0  0  0  0  0  0  0  0  0  0  0
  201.6469  176.8428  153.4336 H   0  0  0  0  0  0  0  0  0  0  0  0
  199.4716  178.7421  156.6605 H   0  0  0  0  0  0  0  0  0  0  0  0
  198.0938  178.5730  154.6585 H   0  0  0  0  0  0  0  0  0  0  0  0
  197.6393  181.5284  157.5768 H   0  0  0  0  0  0  0  0  0  0  0  0
  197.1802  183.1769  157.0199 H   0  0  0  0  0  0  0  0  0  0  0  0
  194.2637  181.9540  159.1635 H   0  0  0  0  0  0  0  0  0  0  0  0
  195.8715  181.3789  159.5385 H   0  0  0  0  0  0  0  0  0  0  0  0
  197.8677  183.1111  159.3385 H   0  0  0  0  0  0  0  0  0  0  0  0
  198.5350  185.4381  159.7571 H   0  0  0  0  0  0  0  0  0  0  0  0
  196.8130  187.1810  160.2263 H   0  0  0  0  0  0  0  0  0  0  0  0
  194.3912  186.5731  160.1411 H   0  0  0  0  0  0  0  0  0  0  0  0
  193.6974  184.2711  159.5403 H   0  0  0  0  0  0  0  0  0  0  0  0
  195.7473  182.2698  152.2733 H   0  0  0  0  0  0  0  0  0  0  0  0
  199.1516  177.4104  151.9525 H   0  0  0  0  0  0  0  0  0  0  0  0
  199.0885  176.5585  149.6769 H   0  0  0  0  0  0  0  0  0  0  0  0
  197.7310  177.7075  147.9338 H   0  0  0  0  0  0  0  0  0  0  0  0
  196.4411  179.7532  148.5314 H   0  0  0  0  0  0  0  0  0  0  0  0
  195.3581  180.8602  157.3614 H   0  0  0  0  0  0  0  0  0  0  0  0
  1  2  1  0
  2  3  1  0
  2  8  2  0
  3  4  2  0
  3 34  1  0
  4  5  1  0
  4  6  1  0
  6  7  2  0
  6 35  1  0
  7  8  1  0
  7  9  1  0
  8 36  1  0
  9 10  2  0
  9 11  1  0
 11 12  1  0
 11 37  1  0
 12 13  2  0
 12 28  1  0
 13 14  1  0
 13 25  1  0
 14 15  3  0
 15 16  1  0
 16 17  1  0
 16 38  1  1
 16 39  1  0
 17 18  1  0
 17 33  1  6
 17 52  1  0
 18 19  1  0
 18 40  1  6
 18 41  1  0
 19 20  2  0
 19 24  1  0
 20 21  1  0
 20 42  1  0
 21 22  2  0
 21 43  1  0
 22 23  1  0
 22 44  1  0
 23 24  2  0
 23 45  1  0
 24 46  1  0
 25 26  2  0
 25 47  1  0
 26 27  1  0
 27 28  1  0
 27 32  2  0
 28 29  2  0
 29 30  1  0
 29 48  1  0
 30 31  2  0
 30 49  1  0
 31 32  1  0
 31 50  1  0
 32 51  1  0
M  CHG  1  17   1
M  END
>  <s_epik_cmdline>  (1325) 
J2VwaWtfcHl0aG9uJywgJy1waCcsICc3LjAwMDAwMCcsICctcGh0JywgJzIuMDAwMDAwJywgJy1tcycsICcxNicsICctdG4nLCAnOCcsICctbWEnLCAnMjAwJywgJy1pbWFlJywgJzxpbmZpbGUubWFlPicsICctb21hZScsICc8b3V0ZmlsZS5tYWU+Jw==

>  <s_epik_input>  (1325) 
RmMxW2NIXWMoRilbY0hdYyhbY0hdMSlDKD1PKVtOSF1jKGMoYzIzKVtjSF1bY0hdW2NIXVtjSF0zKWMoW2NIXW4yKUMjQ1tDSDJdW05IXVtDSDJdYzRbY0hdW2NIXVtjSF1bY0hdW2NIXTQ=

>  <s_i_glide_gridfile>  (1325) 
ATP-Grid

>  <s_lp_Force_Field>  (1325) 
OPLS_2005

>  <s_lp_Variant>  (1325) 
rxn503b____EMOL495084____EMOL13728749____EMOL1197208-2

>  <s_lp_label>  (1325) 
2568_sdstereoexpander_1_neutralizer_1_epik_2_stereoizer_1

>  <s_m_source_file>  (1325) 
ATP-VSW-LIGPREP-002-in.maegz

>  <s_sd_BIOSOLVEIT.INFINISEE\_QUERY\_NAME>  (1325) 
Ref-Lig

>  <s_sd_BIOSOLVEIT.INFINISEE\_QUERY\_SMILES>  (1325) 
S(c1nc2c(cc1C[NH2+]Cc3ccc(cc3)C[NH+](C)C)cccc2)Cc4ccccc4

>  <s_sd_BIOSOLVEIT.INFINISEE\_REACTION\_NAME>  (1325) 
rxn503b

>  <s_sd_BIOSOLVEIT.INFINISEE\_REAGENT1\_NAME>  (1325) 
EMOL495084

>  <s_sd_BIOSOLVEIT.INFINISEE\_REAGENT1\_SMILES>  (1325) 
Fc1cc(F)cc(c1)C(=O)O

>  <s_sd_BIOSOLVEIT.INFINISEE\_REAGENT2\_NAME>  (1325) 
EMOL13728749

>  <s_sd_BIOSOLVEIT.INFINISEE\_REAGENT2\_SMILES>  (1325) 
Brc1c(N)c2c(nc1)cccc2

>  <s_sd_BIOSOLVEIT.INFINISEE\_REAGENT3\_NAME>  (1325) 
EMOL1197208

>  <s_sd_BIOSOLVEIT.INFINISEE\_REAGENT3\_SMILES>  (1325) 
N(CC#C)Cc1ccccc1

>  <s_sd_BIOSOLVEIT.INFINISEE\_SPACE>  (1325) 
eXplore_7tr_2022-12

>  <s_vsw_compound_code>  (1325) 
82146

>  <s_vsw_variant>  (1325) 
82146-2

>  <r_epik_Charging_Adjusted_Penalty>  (1325) 
1.1385280302167899

>  <r_epik_Ionization_Penalty>  (1325) 
0.5696

>  <r_epik_Ionization_Penalty_Charging>  (1325) 
0.56859999999999999

>  <r_epik_Ionization_Penalty_Neutral>  (1325) 
0.001

>  <r_epik_State_Penalty>  (1325) 
0.56989999999999996

>  <r_i_docking_score>  (1325) 
-6.2034938001133799

>  <r_i_glide_ecoul>  (1325) 
-10.9487771987915

>  <r_i_glide_eff_state_penalty>  (1325) 
0.56989999999999996

>  <r_i_glide_einternal>  (1325) 
5.8570790290832502

>  <r_i_glide_emodel>  (1325) 
-81.367839183408606

>  <r_i_glide_energy>  (1325) 
-52.575402259826703

>  <r_i_glide_erotb>  (1325) 
0.75745006455500097

>  <r_i_glide_esite>  (1325) 
-0.16689590415101699

>  <r_i_glide_evdw>  (1325) 
-41.626625061035199

>  <r_i_glide_gscore>  (1325) 
-6.7733938001133804

>  <r_i_glide_hbond>  (1325) 
-0.40000000000000002

>  <r_i_glide_ligand_efficiency>  (1325) 
-0.19385918125354301

>  <r_i_glide_ligand_efficiency_ln>  (1325) 
-1.3891313626997499

>  <r_i_glide_ligand_efficiency_sa>  (1325) 
-0.61546453580012395

>  <r_i_glide_lipo>  (1325) 
-2.36521375613184

>  <r_i_glide_metal>  (1325) 
-0

>  <r_i_glide_rewards>  (1325) 
-0.87508637151504098

>  <r_lp_Energy>  (1325) 
25.034099999999999

>  <r_qp_ACxDN^.5/SA>  (1325) 
0.010457599999999999

>  <r_qp_CIQPlogS>  (1325) 
-6.0960000000000001

>  <r_qp_EA(eV)>  (1325) 
1.2949999999999999

>  <r_qp_FISA>  (1325) 
58.572000000000003

>  <r_qp_FOSA>  (1325) 
87.986999999999995

>  <r_qp_IP(eV)>  (1325) 
8.9860000000000007

>  <r_qp_Jm>  (1325) 
0.044078122977231099

>  <r_qp_PISA>  (1325) 
457.63200000000001

>  <r_qp_PSA>  (1325) 
58.985999999999997

>  <r_qp_PercentHumanOralAbsorption>  (1325) 
100

>  <r_qp_QPPCaco>  (1325) 
687.63400000000001

>  <r_qp_QPPMDCK>  (1325) 
905.08299999999997

>  <r_qp_QPlogBB>  (1325) 
0.161

>  <r_qp_QPlogHERG>  (1325) 
-7.0640000000000001

>  <r_qp_QPlogKhsa>  (1325) 
0.748

>  <r_qp_QPlogKp>  (1325) 
-2.3769999999999998

>  <r_qp_QPlogPC16>  (1325) 
13.611000000000001

>  <r_qp_QPlogPo/w>  (1325) 
4.8739999999999997

>  <r_qp_QPlogPoct>  (1325) 
20.882999999999999

>  <r_qp_QPlogPw>  (1325) 
11.193

>  <r_qp_QPlogS>  (1325) 
-4.609

>  <r_qp_QPpolrz>  (1325) 
44.465000000000003

>  <r_qp_SASA>  (1325) 
676.16300000000001

>  <r_qp_SAamideO>  (1325) 
0

>  <r_qp_SAfluorine>  (1325) 
71.971000000000004

>  <r_qp_WPSA>  (1325) 
71.971000000000004

>  <r_qp_accptHB>  (1325) 
5

>  <r_qp_dip^2/V>  (1325) 
0.0135278

>  <r_qp_dipole>  (1325) 
4.1420000000000003

>  <r_qp_donorHB>  (1325) 
2

>  <r_qp_glob>  (1325) 
0.83787650000000002

>  <r_qp_mol_MW>  (1325) 
427.452

>  <r_qp_volume>  (1325) 
1267.941

>  <r_sd_BIOSOLVEIT.INFINISEE\_FTREES\_SIMILARITY>  (1325) 
0.91200000000000003

>  <r_sd_BIOSOLVEIT.LOGP>  (1325) 
3.8803999999999998

>  <r_sd_BIOSOLVEIT.MOLECULAR\_WEIGHT>  (1325) 
428.45999999999998

>  <r_sd_BIOSOLVEIT.TPSA>  (1325) 
58.600000000000001

>  <i_epik_Tot_Q>  (1325) 
1

>  <i_epik_Tot_abs_Q>  (1325) 
1

>  <i_f3d_flags>  (1325) 
0

>  <i_i_glide_confnum>  (1325) 
10

>  <i_i_glide_lignum>  (1325) 
1143

>  <i_i_glide_posenum>  (1325) 
3

>  <i_i_glide_rotatable_bonds>  (1325) 
8

>  <i_lp_mmshare_version>  (1325) 
65135

>  <i_m_ct_format>  (1325) 
2

>  <i_m_source_file_index>  (1325) 
2568

>  <i_qp_#NandO>  (1325) 
4

>  <i_qp_#acid>  (1325) 
0

>  <i_qp_#amide>  (1325) 
0

>  <i_qp_#amidine>  (1325) 
0

>  <i_qp_#amine>  (1325) 
1

>  <i_qp_#in34>  (1325) 
0

>  <i_qp_#in56>  (1325) 
22

>  <i_qp_#metab>  (1325) 
4

>  <i_qp_#nonHatm>  (1325) 
32

>  <i_qp_#noncon>  (1325) 
0

>  <i_qp_#ringatoms>  (1325) 
22

>  <i_qp_#rotor>  (1325) 
7

>  <i_qp_#rtvFG>  (1325) 
0

>  <i_qp_#stars>  (1325) 
1

>  <i_qp_CNS>  (1325) 
1

>  <i_qp_HumanOralAbsorption>  (1325) 
3

>  <i_qp_RuleOfFive>  (1325) 
0

>  <i_qp_RuleOfThree>  (1325) 
0

>  <i_sd_BIOSOLVEIT.INFINISEE\_RESULT\_RANK>  (1325) 
37658

>  <i_sd_version>  (1325) 
0

>  <b_lp_Chiralities_Consistent>  (1325) 
1

>  <b_sd_chiral_flag>  (1325) 
0

>  <canonical_id>  (1325) 
ATP-HTVS-D1462A8BE621

>  <compound_code>  (1325) 
82146

>  <title>  (1325) 
rxn503b____EMOL495084____EMOL13728749____EMOL1197208

>  <variant>  (1325) 
82146-2

>  <source_file>  (1325) 
运行/运行/ATP-VSW/ATP-VSW-DOCK_HTVS_1-002_lib.maegz

>  <canonical_smiles>  (1325) 
O=C(Nc1c(C#CC[NH2+]Cc2ccccc2)cnc2ccccc12)c1cc(F)cc(F)c1

>  <scaffold>  (1325) 
O=C(Nc1c(C#CC[NH2+]Cc2ccccc2)cnc2ccccc12)c1ccccc1

>  <molecular_formula>  (1325) 
C26H20F2N3O+

$$$$
ATP-HTVS-D18D68753065
     RDKit          3D

 59 62  0  0  0  0  0  0  0  0999 V2000
  200.4633  195.4371  158.6179 Cl  0  0  0  0  0  0  0  0  0  0  0  0
  199.1972  194.2970  158.3528 C   0  0  0  0  0  0  0  0  0  0  0  0
  198.9906  193.2604  159.2784 C   0  0  0  0  0  0  0  0  0  0  0  0
  197.9630  192.3113  159.0726 C   0  0  0  0  0  0  0  0  0  0  0  0
  197.1526  192.4160  157.9221 C   0  0  0  0  0  0  0  0  0  0  0  0
  197.3549  193.4582  156.9989 C   0  0  0  0  0  0  0  0  0  0  0  0
  198.3799  194.4003  157.2117 C   0  0  0  0  0  0  0  0  0  0  0  0
  197.7319  191.1799  160.0691 C   0  0  2  0  0  0  0  0  0  0  0  0
  198.3175  191.4378  161.3316 O   0  0  0  0  0  0  0  0  0  0  0  0
  198.2582  189.8470  159.5126 C   0  0  0  0  0  0  0  0  0  0  0  0
  199.3142  189.8133  158.8809 O   0  0  0  0  0  0  0  0  0  0  0  0
  197.4808  188.7759  159.7591 N   0  0  0  0  0  0  0  0  0  0  0  0
  197.6346  187.4234  159.3284 C   0  0  0  0  0  0  0  0  0  0  0  0
  198.7369  186.9995  158.6704 N   0  0  0  0  0  0  0  0  0  0  0  0
  198.8393  185.7210  158.2772 C   0  0  0  0  0  0  0  0  0  0  0  0
  197.8377  184.7637  158.4943 C   0  0  0  0  0  0  0  0  0  0  0  0
  198.0276  183.4183  157.9618 C   0  0  0  0  0  0  0  0  0  0  0  0
  198.1594  182.2992  157.4900 C   0  0  0  0  0  0  0  0  0  0  0  0
  198.3152  180.9513  156.9366 C   0  0  1  0  0  0  0  0  0  0  0  0
  197.5262  180.9498  155.6881 N   0  0  1  0  0  0  0  0  0  0  0  0
  197.5719  179.7084  154.8851 C   0  0  2  0  0  0  0  0  0  0  0  0
  198.9774  179.1044  154.7782 C   0  0  0  0  0  0  0  0  0  0  0  0
  199.9955  179.7052  153.9972 C   0  0  0  0  0  0  0  0  0  0  0  0
  199.7853  180.8761  153.3537 F   0  0  0  0  0  0  0  0  0  0  0  0
  201.2668  179.1117  153.9126 C   0  0  0  0  0  0  0  0  0  0  0  0
  201.5546  177.9374  154.6324 C   0  0  0  0  0  0  0  0  0  0  0  0
  200.5564  177.3419  155.4268 C   0  0  0  0  0  0  0  0  0  0  0  0
  199.2730  177.9204  155.4958 C   0  0  0  0  0  0  0  0  0  0  0  0
  196.9346  179.9475  153.4983 C   0  0  2  0  0  0  0  0  0  0  0  0
  196.6737  185.1711  159.1903 C   0  0  0  0  0  0  0  0  0  0  0  0
  196.5710  186.5255  159.6202 C   0  0  0  0  0  0  0  0  0  0  0  0
  195.4048  186.9481  160.3059 C   0  0  0  0  0  0  0  0  0  0  0  0
  194.3590  186.0441  160.5529 C   0  0  0  0  0  0  0  0  0  0  0  0
  194.4614  184.7147  160.1183 C   0  0  0  0  0  0  0  0  0  0  0  0
  195.6121  184.2732  159.4507 C   0  0  0  0  0  0  0  0  0  0  0  0
  196.5672  181.1396  155.9454 H   0  0  0  0  0  0  0  0  0  0  0  0
  199.6463  193.2055  160.1344 H   0  0  0  0  0  0  0  0  0  0  0  0
  196.3753  191.6918  157.7318 H   0  0  0  0  0  0  0  0  0  0  0  0
  196.7292  193.5243  156.1210 H   0  0  0  0  0  0  0  0  0  0  0  0
  198.5445  195.1968  156.4987 H   0  0  0  0  0  0  0  0  0  0  0  0
  196.6541  191.1004  160.2296 H   0  0  0  0  0  0  0  0  0  0  0  0
  198.6596  190.6185  161.7174 H   0  0  0  0  0  0  0  0  0  0  0  0
  196.6526  188.9602  160.3028 H   0  0  0  0  0  0  0  0  0  0  0  0
  199.7483  185.4701  157.7543 H   0  0  0  0  0  0  0  0  0  0  0  0
  199.3813  180.7938  156.7648 H   0  0  0  0  0  0  0  0  0  0  0  0
  197.9505  180.2146  157.6376 H   0  0  0  0  0  0  0  0  0  0  0  0
  196.9549  178.9928  155.4385 H   0  0  0  0  0  0  0  0  0  0  0  0
  202.0286  179.5878  153.3149 H   0  0  0  0  0  0  0  0  0  0  0  0
  202.5429  177.5007  154.5791 H   0  0  0  0  0  0  0  0  0  0  0  0
  200.7800  176.4470  155.9893 H   0  0  0  0  0  0  0  0  0  0  0  0
  198.5246  177.4617  156.1328 H   0  0  0  0  0  0  0  0  0  0  0  0
  196.9272  179.0244  152.9157 H   0  0  0  0  0  0  0  0  0  0  0  0
  197.4574  180.7012  152.9084 H   0  0  0  0  0  0  0  0  0  0  0  0
  195.9119  180.3066  153.5927 H   0  0  0  0  0  0  0  0  0  0  0  0
  195.2542  187.9673  160.6315 H   0  0  0  0  0  0  0  0  0  0  0  0
  193.4594  186.3785  161.0533 H   0  0  0  0  0  0  0  0  0  0  0  0
  193.6424  184.0362  160.2835 H   0  0  0  0  0  0  0  0  0  0  0  0
  195.6562  183.2421  159.1345 H   0  0  0  0  0  0  0  0  0  0  0  0
  197.8623  181.7062  155.1173 H   0  0  0  0  0  0  0  0  0  0  0  0
  1  2  1  0
  2  3  2  0
  2  7  1  0
  3  4  1  0
  3 37  1  0
  4  5  2  0
  4  8  1  0
  5  6  1  0
  5 38  1  0
  6  7  2  0
  6 39  1  0
  7 40  1  0
  8  9  1  0
  8 10  1  0
  8 41  1  1
  9 42  1  0
 10 11  2  0
 10 12  1  0
 12 13  1  0
 12 43  1  0
 13 14  1  0
 13 31  2  0
 14 15  2  0
 15 16  1  0
 15 44  1  0
 16 17  1  0
 16 30  2  0
 17 18  3  0
 18 19  1  0
 19 20  1  0
 19 45  1  6
 19 46  1  0
 20 21  1  0
 20 36  1  1
 20 59  1  0
 21 22  1  0
 21 29  1  0
 21 47  1  1
 22 23  1  0
 22 28  2  0
 23 24  1  0
 23 25  2  0
 25 26  1  0
 25 48  1  0
 26 27  2  0
 26 49  1  0
 27 28  1  0
 27 50  1  0
 28 51  1  0
 29 52  1  6
 29 53  1  0
 29 54  1  0
 30 31  1  0
 30 35  1  0
 31 32  1  0
 32 33  2  0
 32 55  1  0
 33 34  1  0
 33 56  1  0
 34 35  2  0
 34 57  1  0
 35 58  1  0
M  CHG  1  20   1
M  END
>  <s_epik_cmdline>  (1326) 
J2VwaWtfcHl0aG9uJywgJy1waCcsICc3LjAwMDAwMCcsICctcGh0JywgJzIuMDAwMDAwJywgJy1tcycsICcxNicsICctdG4nLCAnOCcsICctbWEnLCAnMjAwJywgJy1pbWFlJywgJzxpbmZpbGUubWFlPicsICctb21hZScsICc8b3V0ZmlsZS5tYWU+Jw==

>  <s_epik_input>  (1326) 
Q2xjMVtjSF1jKFtjSF1bY0hdW2NIXTEpW0NASF0oW09IXSlDKD1PKVtOSF1jKGMoYzIzKVtjSF1bY0hdW2NIXVtjSF0zKW5bY0hdYzJDI0NbQ0gyXVtOSF1bQ0BASF0oW0NIM10pYzRjKEYpW2NIXVtjSF1bY0hdW2NIXTQ=

>  <s_i_glide_gridfile>  (1326) 
ATP-Grid

>  <s_lp_Force_Field>  (1326) 
OPLS_2005

>  <s_lp_Variant>  (1326) 
rxn503b____EMOL299973501____EMOL7515103____EMOL317509298-8

>  <s_lp_label>  (1326) 
2520_sdstereoexpander_4_neutralizer_1_epik_2_stereoizer_1

>  <s_m_source_file>  (1326) 
ATP-VSW-LIGPREP-003-in.maegz

>  <s_sd_BIOSOLVEIT.INFINISEE\_QUERY\_NAME>  (1326) 
Ref-Lig

>  <s_sd_BIOSOLVEIT.INFINISEE\_QUERY\_SMILES>  (1326) 
S(c1nc2c(cc1C[NH2+]Cc3ccc(cc3)C[NH+](C)C)cccc2)Cc4ccccc4

>  <s_sd_BIOSOLVEIT.INFINISEE\_REACTION\_NAME>  (1326) 
rxn503b

>  <s_sd_BIOSOLVEIT.INFINISEE\_REAGENT1\_NAME>  (1326) 
EMOL299973501

>  <s_sd_BIOSOLVEIT.INFINISEE\_REAGENT1\_SMILES>  (1326) 
Clc1cc(ccc1)C(O)C(=O)O

>  <s_sd_BIOSOLVEIT.INFINISEE\_REAGENT2\_NAME>  (1326) 
EMOL7515103

>  <s_sd_BIOSOLVEIT.INFINISEE\_REAGENT2\_SMILES>  (1326) 
Brc1c2c(c(nc1)N)cccc2

>  <s_sd_BIOSOLVEIT.INFINISEE\_REAGENT3\_NAME>  (1326) 
EMOL317509298

>  <s_sd_BIOSOLVEIT.INFINISEE\_REAGENT3\_SMILES>  (1326) 
Fc1c(cccc1)C(NCC#C)C

>  <s_sd_BIOSOLVEIT.INFINISEE\_SPACE>  (1326) 
eXplore_7tr_2022-12

>  <s_vsw_compound_code>  (1326) 
80611

>  <s_vsw_variant>  (1326) 
80611-8

>  <r_epik_Charging_Adjusted_Penalty>  (1326) 
1.2603147534363399

>  <r_epik_Ionization_Penalty>  (1326) 
0.63300000000000001

>  <r_epik_Ionization_Penalty_Charging>  (1326) 
0.63019999999999998

>  <r_epik_Ionization_Penalty_Neutral>  (1326) 
0.0028999999999999998

>  <r_epik_State_Penalty>  (1326) 
0.63019999999999998

>  <r_i_docking_score>  (1326) 
-5.0033504854448703

>  <r_i_glide_ecoul>  (1326) 
-14.1582145690918

>  <r_i_glide_eff_state_penalty>  (1326) 
0.63019999999999998

>  <r_i_glide_einternal>  (1326) 
6.67187595367432

>  <r_i_glide_emodel>  (1326) 
-67.494493669467701

>  <r_i_glide_energy>  (1326) 
-47.776371002197301

>  <r_i_glide_erotb>  (1326) 
0.41687203922806898

>  <r_i_glide_esite>  (1326) 
-0.107475531690569

>  <r_i_glide_evdw>  (1326) 
-33.618156433105497

>  <r_i_glide_gscore>  (1326) 
-5.6335504854448697

>  <r_i_glide_hbond>  (1326) 
0

>  <r_i_glide_ligand_efficiency>  (1326) 
-0.14295287101271101

>  <r_i_glide_ligand_efficiency_ln>  (1326) 
-1.0983464749363101

>  <r_i_glide_ligand_efficiency_sa>  (1326) 
-0.46760831976024297

>  <r_i_glide_lipo>  (1326) 
-1.83803537005424

>  <r_i_glide_metal>  (1326) 
-0

>  <r_i_glide_rewards>  (1326) 
-0.30027161590909002

>  <r_lp_Energy>  (1326) 
26.800439999999998

>  <r_qp_ACxDN^.5/SA>  (1326) 
0.0148229

>  <r_qp_CIQPlogS>  (1326) 
-6.5640000000000001

>  <r_qp_EA(eV)>  (1326) 
1.3400000000000001

>  <r_qp_FISA>  (1326) 
108.586

>  <r_qp_FOSA>  (1326) 
149.602

>  <r_qp_IP(eV)>  (1326) 
8.5709999999999997

>  <r_qp_Jm>  (1326) 
0.00074014922873773801

>  <r_qp_PISA>  (1326) 
421.79899999999998

>  <r_qp_PSA>  (1326) 
78.221999999999994

>  <r_qp_PercentHumanOralAbsorption>  (1326) 
100

>  <r_qp_QPPCaco>  (1326) 
230.71700000000001

>  <r_qp_QPPMDCK>  (1326) 
410.69600000000003

>  <r_qp_QPlogBB>  (1326) 
-0.47299999999999998

>  <r_qp_QPlogHERG>  (1326) 
-7.5830000000000002

>  <r_qp_QPlogKhsa>  (1326) 
0.77200000000000002

>  <r_qp_QPlogKp>  (1326) 
-3.2330000000000001

>  <r_qp_QPlogPC16>  (1326) 
16.544

>  <r_qp_QPlogPo/w>  (1326) 
4.9269999999999996

>  <r_qp_QPlogPoct>  (1326) 
25.751000000000001

>  <r_qp_QPlogPw>  (1326) 
14.255000000000001

>  <r_qp_QPlogS>  (1326) 
-5.5860000000000003

>  <r_qp_QPpolrz>  (1326) 
50.548000000000002

>  <r_qp_SASA>  (1326) 
782.89400000000001

>  <r_qp_SAamideO>  (1326) 
0

>  <r_qp_SAfluorine>  (1326) 
32.603999999999999

>  <r_qp_WPSA>  (1326) 
102.907

>  <r_qp_accptHB>  (1326) 
6.7000000000000002

>  <r_qp_dip^2/V>  (1326) 
0.0283909

>  <r_qp_dipole>  (1326) 
6.4400000000000004

>  <r_qp_donorHB>  (1326) 
3

>  <r_qp_glob>  (1326) 
0.79520979999999997

>  <r_qp_mol_MW>  (1326) 
487.95999999999998

>  <r_qp_volume>  (1326) 
1460.5940000000001

>  <r_sd_BIOSOLVEIT.INFINISEE\_FTREES\_SIMILARITY>  (1326) 
0.91300000000000003

>  <r_sd_BIOSOLVEIT.LOGP>  (1326) 
4.3754999999999997

>  <r_sd_BIOSOLVEIT.MOLECULAR\_WEIGHT>  (1326) 
488.96800000000002

>  <r_sd_BIOSOLVEIT.TPSA>  (1326) 
78.829999999999998

>  <i_epik_Tot_Q>  (1326) 
1

>  <i_epik_Tot_abs_Q>  (1326) 
1

>  <i_f3d_flags>  (1326) 
0

>  <i_i_glide_confnum>  (1326) 
1

>  <i_i_glide_lignum>  (1326) 
1105

>  <i_i_glide_posenum>  (1326) 
20

>  <i_i_glide_rotatable_bonds>  (1326) 
10

>  <i_lp_mmshare_version>  (1326) 
65135

>  <i_m_ct_format>  (1326) 
2

>  <i_m_source_file_index>  (1326) 
2520

>  <i_qp_#NandO>  (1326) 
5

>  <i_qp_#acid>  (1326) 
0

>  <i_qp_#amide>  (1326) 
0

>  <i_qp_#amidine>  (1326) 
0

>  <i_qp_#amine>  (1326) 
1

>  <i_qp_#in34>  (1326) 
0

>  <i_qp_#in56>  (1326) 
22

>  <i_qp_#metab>  (1326) 
7

>  <i_qp_#nonHatm>  (1326) 
35

>  <i_qp_#noncon>  (1326) 
0

>  <i_qp_#ringatoms>  (1326) 
22

>  <i_qp_#rotor>  (1326) 
9

>  <i_qp_#rtvFG>  (1326) 
0

>  <i_qp_#stars>  (1326) 
0

>  <i_qp_CNS>  (1326) 
0

>  <i_qp_HumanOralAbsorption>  (1326) 
3

>  <i_qp_RuleOfFive>  (1326) 
0

>  <i_qp_RuleOfThree>  (1326) 
1

>  <i_sd_BIOSOLVEIT.INFINISEE\_RESULT\_RANK>  (1326) 
32819

>  <i_sd_version>  (1326) 
0

>  <b_lp_Chiralities_Consistent>  (1326) 
1

>  <b_sd_chiral_flag>  (1326) 
0

>  <canonical_id>  (1326) 
ATP-HTVS-D18D68753065

>  <compound_code>  (1326) 
80611

>  <title>  (1326) 
rxn503b____EMOL299973501____EMOL7515103____EMOL317509298

>  <variant>  (1326) 
80611-8

>  <source_file>  (1326) 
运行/运行/ATP-VSW/ATP-VSW-DOCK_HTVS_1-003_lib/ATP-VSW-DOCK_HTVS_1-003_lib.mae

>  <canonical_smiles>  (1326) 
C[C@H]([NH2+]CC#Cc1cnc(NC(=O)[C@@H](O)c2cccc(Cl)c2)c2ccccc12)c1ccccc1F

>  <scaffold>  (1326) 
O=C(Cc1ccccc1)Nc1ncc(C#CC[NH2+]Cc2ccccc2)c2ccccc12

>  <molecular_formula>  (1326) 
C28H24ClFN3O2+

$$$$
ATP-HTVS-D190FC844C9E
     RDKit          3D

 56 58  0  0  0  0  0  0  0  0999 V2000
  199.6464  183.8845  156.9244 O   0  0  0  0  0  0  0  0  0  0  0  0
  198.9825  182.8652  156.7697 C   0  0  0  0  0  0  0  0  0  0  0  0
  197.7094  182.7032  157.2551 N   0  0  0  0  0  0  0  0  0  0  0  0
  197.1233  183.7350  158.0579 C   0  0  0  0  0  0  0  0  0  0  0  0
  197.0197  185.0618  157.5859 C   0  0  0  0  0  0  0  0  0  0  0  0
  196.3928  186.0552  158.3687 C   0  0  0  0  0  0  0  0  0  0  0  0
  195.8637  185.7281  159.6302 C   0  0  0  0  0  0  0  0  0  0  0  0
  195.9564  184.4069  160.0996 C   0  0  0  0  0  0  0  0  0  0  0  0
  196.5833  183.4137  159.3222 C   0  0  0  0  0  0  0  0  0  0  0  0
  196.9099  181.4787  157.0508 C   0  0  1  0  0  0  0  0  0  0  0  0
  196.6130  181.1899  155.5444 C   0  0  1  0  0  0  0  0  0  0  0  0
  196.7300  179.7968  155.3377 O   0  0  0  0  0  0  0  0  0  0  0  0
  199.5770  181.7558  155.9280 C   0  0  0  0  0  0  0  0  0  0  0  0
  200.0619  182.1218  154.7126 N   0  0  0  0  0  0  0  0  0  0  0  0
  200.5468  181.1660  153.8853 C   0  0  0  0  0  0  0  0  0  0  0  0
  200.5838  179.7970  154.2159 C   0  0  0  0  0  0  0  0  0  0  0  0
  200.0672  179.4104  155.4932 C   0  0  0  0  0  0  0  0  0  0  0  0
  199.9244  178.0646  155.9039 N   0  0  0  0  0  0  0  0  0  0  0  0
  200.7157  176.9732  155.5430 C   0  0  0  0  0  0  0  0  0  0  0  0
  201.2652  176.1319  156.5448 C   0  0  0  0  0  0  0  0  0  0  0  0
  202.0946  175.0411  156.1660 C   0  0  0  0  0  0  0  0  0  0  0  0
  202.4166  174.8126  154.8024 C   0  0  0  0  0  0  0  0  0  0  0  0
  201.9253  175.7057  153.8218 C   0  0  0  0  0  0  0  0  0  0  0  0
  201.0271  176.7136  154.1821 C   0  0  0  0  0  0  0  0  0  0  0  0
  203.2576  173.5971  154.3772 C   0  0  1  0  0  0  0  0  0  0  0  0
  202.5558  172.6528  153.4476 N   0  0  2  0  0  0  0  0  0  0  0  0
  202.5206  173.1096  152.0320 C   0  0  2  0  0  0  0  0  0  0  0  0
  201.2165  172.2710  153.9305 C   0  0  2  0  0  0  0  0  0  0  0  0
  199.6124  180.4116  156.3685 C   0  0  0  0  0  0  0  0  0  0  0  0
  197.3937  185.3307  156.6077 H   0  0  0  0  0  0  0  0  0  0  0  0
  196.3040  187.0648  157.9957 H   0  0  0  0  0  0  0  0  0  0  0  0
  195.3847  186.4881  160.2327 H   0  0  0  0  0  0  0  0  0  0  0  0
  195.5511  184.1517  161.0653 H   0  0  0  0  0  0  0  0  0  0  0  0
  196.6332  182.4053  159.7026 H   0  0  0  0  0  0  0  0  0  0  0  0
  197.4180  180.6575  157.5502 H   0  0  0  0  0  0  0  0  0  0  0  0
  195.9262  181.5789  157.5323 H   0  0  0  0  0  0  0  0  0  0  0  0
  195.6250  181.5608  155.2471 H   0  0  0  0  0  0  0  0  0  0  0  0
  197.3294  181.6548  154.8664 H   0  0  0  0  0  0  0  0  0  0  0  0
  196.3523  179.3625  156.0914 H   0  0  0  0  0  0  0  0  0  0  0  0
  200.9155  181.4854  152.9175 H   0  0  0  0  0  0  0  0  0  0  0  0
  200.9971  179.1149  153.4885 H   0  0  0  0  0  0  0  0  0  0  0  0
  199.3650  177.9366  156.7468 H   0  0  0  0  0  0  0  0  0  0  0  0
  201.0504  176.3088  157.5999 H   0  0  0  0  0  0  0  0  0  0  0  0
  202.4875  174.3859  156.9329 H   0  0  0  0  0  0  0  0  0  0  0  0
  202.1806  175.6011  152.7896 H   0  0  0  0  0  0  0  0  0  0  0  0
  200.5616  177.3020  153.4122 H   0  0  0  0  0  0  0  0  0  0  0  0
  204.1850  173.9709  153.9379 H   0  0  0  0  0  0  0  0  0  0  0  0
  203.5512  173.0508  155.2738 H   0  0  0  0  0  0  0  0  0  0  0  0
  201.9203  173.9882  151.8958 H   0  0  0  0  0  0  0  0  0  0  0  0
  202.1242  172.3109  151.3908 H   0  0  0  0  0  0  0  0  0  0  0  0
  203.5344  173.3132  151.6768 H   0  0  0  0  0  0  0  0  0  0  0  0
  200.5341  173.1202  153.9837 H   0  0  0  0  0  0  0  0  0  0  0  0
  201.2847  171.8242  154.9226 H   0  0  0  0  0  0  0  0  0  0  0  0
  200.7792  171.5427  153.2514 H   0  0  0  0  0  0  0  0  0  0  0  0
  199.2327  180.1470  157.3489 H   0  0  0  0  0  0  0  0  0  0  0  0
  203.0559  171.7502  153.4941 H   0  0  0  0  0  0  0  0  0  0  0  0
  1  2  2  0
  2  3  1  0
  2 13  1  0
  3  4  1  0
  3 10  1  0
  4  5  2  0
  4  9  1  0
  5  6  1  0
  5 30  1  0
  6  7  2  0
  6 31  1  0
  7  8  1  0
  7 32  1  0
  8  9  2  0
  8 33  1  0
  9 34  1  0
 10 11  1  0
 10 35  1  1
 10 36  1  0
 11 12  1  0
 11 37  1  6
 11 38  1  0
 12 39  1  0
 13 14  1  0
 13 29  2  0
 14 15  2  0
 15 16  1  0
 15 40  1  0
 16 17  2  0
 16 41  1  0
 17 18  1  0
 17 29  1  0
 18 19  1  0
 18 42  1  0
 19 20  1  0
 19 24  2  0
 20 21  2  0
 20 43  1  0
 21 22  1  0
 21 44  1  0
 22 23  2  0
 22 25  1  0
 23 24  1  0
 23 45  1  0
 24 46  1  0
 25 26  1  0
 25 47  1  6
 25 48  1  0
 26 27  1  0
 26 28  1  0
 26 56  1  6
 27 49  1  1
 27 50  1  0
 27 51  1  0
 28 52  1  1
 28 53  1  0
 28 54  1  0
 29 55  1  0
M  CHG  1  26   1
M  END
>  <s_epik_cmdline>  (1327) 
J2VwaWtfcHl0aG9uJywgJy1waCcsICc3LjAwMDAwMCcsICctcGh0JywgJzIuMDAwMDAwJywgJy1tcycsICcxNicsICctdG4nLCAnOCcsICctbWEnLCAnMjAwJywgJy1pbWFlJywgJzxpbmZpbGUubWFlPicsICctb21hZScsICc8b3V0ZmlsZS5tYWU+Jw==

>  <s_epik_input>  (1327) 
W2NIXTFbY0hdW2NIXVtjSF1bY0hdYzFOKFtDSDJdW0NIMl1bT0hdKUMoPU8pYzJuW2NIXVtjSF1jKFtjSF0yKVtOSF1jM1tjSF1bY0hdYyhbY0hdW2NIXTMpW0NIMl1OKFtDSDNdKVtDSDNd

>  <s_i_glide_gridfile>  (1327) 
ATP-Grid

>  <s_lp_Force_Field>  (1327) 
OPLS_2005

>  <s_lp_Variant>  (1327) 
rxn514b____EMOL483896____EMOL39928332____EMOL2732950-1

>  <s_lp_label>  (1327) 
3100_sdstereoexpander_1_neutralizer_1_epik_1_stereoizer_1

>  <s_m_source_file>  (1327) 
ATP-VSW-LIGPREP-002-in.maegz

>  <s_sd_BIOSOLVEIT.INFINISEE\_QUERY\_NAME>  (1327) 
Ref-Lig

>  <s_sd_BIOSOLVEIT.INFINISEE\_QUERY\_SMILES>  (1327) 
S(c1nc2c(cc1C[NH2+]Cc3ccc(cc3)C[NH+](C)C)cccc2)Cc4ccccc4

>  <s_sd_BIOSOLVEIT.INFINISEE\_REACTION\_NAME>  (1327) 
rxn514b

>  <s_sd_BIOSOLVEIT.INFINISEE\_REAGENT1\_NAME>  (1327) 
EMOL483896

>  <s_sd_BIOSOLVEIT.INFINISEE\_REAGENT1\_SMILES>  (1327) 
OCCNc1ccccc1

>  <s_sd_BIOSOLVEIT.INFINISEE\_REAGENT2\_NAME>  (1327) 
EMOL39928332

>  <s_sd_BIOSOLVEIT.INFINISEE\_REAGENT2\_SMILES>  (1327) 
O=C(OC(C)(C)C)Nc1cc(ncc1)C(=O)O

>  <s_sd_BIOSOLVEIT.INFINISEE\_REAGENT3\_NAME>  (1327) 
EMOL2732950

>  <s_sd_BIOSOLVEIT.INFINISEE\_REAGENT3\_SMILES>  (1327) 
Brc1ccc(cc1)CN(C)C

>  <s_sd_BIOSOLVEIT.INFINISEE\_SPACE>  (1327) 
eXplore_7tr_2022-12

>  <s_vsw_compound_code>  (1327) 
99170

>  <s_vsw_variant>  (1327) 
99170-1

>  <r_epik_Charging_Adjusted_Penalty>  (1327) 
0.11827482044495199

>  <r_epik_Ionization_Penalty>  (1327) 
0.081199999999999994

>  <r_epik_Ionization_Penalty_Charging>  (1327) 
0.037100000000000001

>  <r_epik_Ionization_Penalty_Neutral>  (1327) 
0.0441

>  <r_epik_State_Penalty>  (1327) 
0.081199999999999994

>  <r_i_docking_score>  (1327) 
-5.4254620784067704

>  <r_i_glide_ecoul>  (1327) 
-12.701601982116699

>  <r_i_glide_eff_state_penalty>  (1327) 
0.081199999999999994

>  <r_i_glide_einternal>  (1327) 
9.2383708953857404

>  <r_i_glide_emodel>  (1327) 
-59.994769405938698

>  <r_i_glide_energy>  (1327) 
-43.520766258239703

>  <r_i_glide_erotb>  (1327) 
1.01865829184723

>  <r_i_glide_esite>  (1327) 
-0.17691124836432801

>  <r_i_glide_evdw>  (1327) 
-30.819164276123001

>  <r_i_glide_gscore>  (1327) 
-5.5066620784067704

>  <r_i_glide_hbond>  (1327) 
-0.38250223742803802

>  <r_i_glide_ligand_efficiency>  (1327) 
-0.187084899255406

>  <r_i_glide_ligand_efficiency_ln>  (1327) 
-1.2422932381073799

>  <r_i_glide_ligand_efficiency_sa>  (1327) 
-0.57478408316896901

>  <r_i_glide_lipo>  (1327) 
-1.55484073697434

>  <r_i_glide_metal>  (1327) 
-0

>  <r_i_glide_rewards>  (1327) 
-0.96486763636363504

>  <r_lp_Energy>  (1327) 
40.378307999999997

>  <r_lp_tautomer_probability>  (1327) 
0.999999106000799

>  <r_qp_ACxDN^.5/SA>  (1327) 
0.015713299999999999

>  <r_qp_CIQPlogS>  (1327) 
-3.9100000000000001

>  <r_qp_EA(eV)>  (1327) 
0.435

>  <r_qp_FISA>  (1327) 
119.248

>  <r_qp_FOSA>  (1327) 
250.05500000000001

>  <r_qp_IP(eV)>  (1327) 
8.3239999999999998

>  <r_qp_Jm>  (1327) 
0.0096142297709776395

>  <r_qp_PISA>  (1327) 
368.70800000000003

>  <r_qp_PSA>  (1327) 
79.435000000000002

>  <r_qp_PercentHumanOralAbsorption>  (1327) 
85.012

>  <r_qp_QPPCaco>  (1327) 
182.797

>  <r_qp_QPPMDCK>  (1327) 
87.197999999999993

>  <r_qp_QPlogBB>  (1327) 
-0.86199999999999999

>  <r_qp_QPlogHERG>  (1327) 
-7.4550000000000001

>  <r_qp_QPlogKhsa>  (1327) 
0.17899999999999999

>  <r_qp_QPlogKp>  (1327) 
-3.617

>  <r_qp_QPlogPC16>  (1327) 
14.438000000000001

>  <r_qp_QPlogPo/w>  (1327) 
3.0030000000000001

>  <r_qp_QPlogPoct>  (1327) 
22.494

>  <r_qp_QPlogPw>  (1327) 
13.835000000000001

>  <r_qp_QPlogS>  (1327) 
-3.992

>  <r_qp_QPpolrz>  (1327) 
44.308999999999997

>  <r_qp_SASA>  (1327) 
738.01099999999997

>  <r_qp_SAamideO>  (1327) 
0

>  <r_qp_SAfluorine>  (1327) 
0

>  <r_qp_WPSA>  (1327) 
0

>  <r_qp_accptHB>  (1327) 
8.1999999999999993

>  <r_qp_dip^2/V>  (1327) 
0.043081599999999998

>  <r_qp_dipole>  (1327) 
7.5339999999999998

>  <r_qp_donorHB>  (1327) 
2

>  <r_qp_glob>  (1327) 
0.78748289999999999

>  <r_qp_mol_MW>  (1327) 
390.48399999999998

>  <r_qp_volume>  (1327) 
1317.3710000000001

>  <r_sd_BIOSOLVEIT.INFINISEE\_FTREES\_SIMILARITY>  (1327) 
0.90100000000000002

>  <r_sd_BIOSOLVEIT.LOGP>  (1327) 
2.1088

>  <r_sd_BIOSOLVEIT.MOLECULAR\_WEIGHT>  (1327) 
391.49200000000002

>  <r_sd_BIOSOLVEIT.TPSA>  (1327) 
69.900000000000006

>  <i_epik_Tot_Q>  (1327) 
1

>  <i_epik_Tot_abs_Q>  (1327) 
1

>  <i_f3d_flags>  (1327) 
0

>  <i_i_glide_confnum>  (1327) 
9

>  <i_i_glide_lignum>  (1327) 
142

>  <i_i_glide_posenum>  (1327) 
18

>  <i_i_glide_rotatable_bonds>  (1327) 
10

>  <i_lp_mmshare_version>  (1327) 
65135

>  <i_m_ct_format>  (1327) 
2

>  <i_m_source_file_index>  (1327) 
3100

>  <i_qp_#NandO>  (1327) 
6

>  <i_qp_#acid>  (1327) 
0

>  <i_qp_#amide>  (1327) 
0

>  <i_qp_#amidine>  (1327) 
0

>  <i_qp_#amine>  (1327) 
1

>  <i_qp_#in34>  (1327) 
0

>  <i_qp_#in56>  (1327) 
18

>  <i_qp_#metab>  (1327) 
6

>  <i_qp_#nonHatm>  (1327) 
29

>  <i_qp_#noncon>  (1327) 
0

>  <i_qp_#ringatoms>  (1327) 
18

>  <i_qp_#rotor>  (1327) 
9

>  <i_qp_#rtvFG>  (1327) 
0

>  <i_qp_#stars>  (1327) 
0

>  <i_qp_CNS>  (1327) 
0

>  <i_qp_HumanOralAbsorption>  (1327) 
3

>  <i_qp_RuleOfFive>  (1327) 
0

>  <i_qp_RuleOfThree>  (1327) 
0

>  <i_sd_BIOSOLVEIT.INFINISEE\_RESULT\_RANK>  (1327) 
96824

>  <i_sd_version>  (1327) 
0

>  <b_lp_Chiralities_Consistent>  (1327) 
1

>  <b_sd_chiral_flag>  (1327) 
0

>  <canonical_id>  (1327) 
ATP-HTVS-D190FC844C9E

>  <compound_code>  (1327) 
99170

>  <title>  (1327) 
rxn514b____EMOL483896____EMOL39928332____EMOL2732950

>  <variant>  (1327) 
99170-1

>  <source_file>  (1327) 
运行/运行/ATP-VSW/ATP-VSW-DOCK_HTVS_1-003_lib/ATP-VSW-DOCK_HTVS_1-003_lib.mae

>  <canonical_smiles>  (1327) 
C[NH+](C)Cc1ccc(Nc2ccnc(C(=O)N(CCO)c3ccccc3)c2)cc1

>  <scaffold>  (1327) 
O=C(Nc1ccccc1)c1cc(Nc2ccccc2)ccn1

>  <molecular_formula>  (1327) 
C23H27N4O2+

$$$$
ATP-HTVS-D1A5509321EA
     RDKit          3D

 58 61  0  0  0  0  0  0  0  0999 V2000
  192.6851  186.5781  161.7391 O   0  0  0  0  0  0  0  0  0  0  0  0
  193.9454  186.5948  161.2029 C   0  0  0  0  0  0  0  0  0  0  0  0
  194.7990  187.7308  161.3639 C   0  0  0  0  0  0  0  0  0  0  0  0
  194.3542  188.8249  162.0461 O   0  0  0  0  0  0  0  0  0  0  0  0
  196.0986  187.6971  160.7967 C   0  0  0  0  0  0  0  0  0  0  0  0
  196.5408  186.5423  160.1104 C   0  0  0  0  0  0  0  0  0  0  0  0
  195.7052  185.4085  159.9828 C   0  0  0  0  0  0  0  0  0  0  0  0
  194.4093  185.4627  160.5333 C   0  0  0  0  0  0  0  0  0  0  0  0
  196.1876  184.1410  159.2814 C   0  0  1  0  0  0  0  0  0  0  0  0
  196.6108  184.3716  157.9072 N   0  0  0  0  0  0  0  0  0  0  0  0
  197.5260  183.4886  157.3221 C   0  0  0  0  0  0  0  0  0  0  0  0
  198.8529  183.3231  157.8170 C   0  0  0  0  0  0  0  0  0  0  0  0
  199.7169  182.4082  157.1459 C   0  0  0  0  0  0  0  0  0  0  0  0
  199.3218  181.7295  156.0406 N   0  0  0  0  0  0  0  0  0  0  0  0
  198.0719  181.8873  155.5524 C   0  0  0  0  0  0  0  0  0  0  0  0
  197.7649  181.1134  154.3116 C   0  0  0  0  0  0  0  0  0  0  0  0
  196.7470  181.5324  153.4216 C   0  0  0  0  0  0  0  0  0  0  0  0
  196.4422  180.8064  152.2514 C   0  0  0  0  0  0  0  0  0  0  0  0
  197.1630  179.6431  151.9340 C   0  0  0  0  0  0  0  0  0  0  0  0
  198.1892  179.2123  152.7910 C   0  0  0  0  0  0  0  0  0  0  0  0
  198.4798  179.9346  153.9688 C   0  0  0  0  0  0  0  0  0  0  0  0
  197.1499  182.7586  156.1757 C   0  0  0  0  0  0  0  0  0  0  0  0
  201.0225  182.2239  157.6434 C   0  0  0  0  0  0  0  0  0  0  0  0
  201.4782  182.9120  158.7896 C   0  0  0  0  0  0  0  0  0  0  0  0
  200.6271  183.8226  159.4330 C   0  0  0  0  0  0  0  0  0  0  0  0
  199.3291  184.0496  158.9270 C   0  0  0  0  0  0  0  0  0  0  0  0
  197.0444  188.8860  160.9427 C   0  0  1  0  0  0  0  0  0  0  0  0
  196.7476  189.9792  160.0213 N   0  0  0  0  0  0  0  0  0  0  0  0
  197.0031  189.5777  158.6417 C   0  0  2  0  0  0  0  0  0  0  0  0
  197.6022  191.1141  160.3361 C   0  0  2  0  0  0  0  0  0  0  0  0
  191.7518  187.4735  161.1595 C   0  0  2  0  0  0  0  0  0  0  0  0
  194.8656  189.5862  161.7820 H   0  0  0  0  0  0  0  0  0  0  0  0
  197.5361  186.5345  159.7019 H   0  0  0  0  0  0  0  0  0  0  0  0
  193.7478  184.6139  160.4318 H   0  0  0  0  0  0  0  0  0  0  0  0
  197.0051  183.7269  159.8922 H   0  0  0  0  0  0  0  0  0  0  0  0
  195.3949  183.3858  159.2804 H   0  0  0  0  0  0  0  0  0  0  0  0
  195.8434  184.6381  157.2957 H   0  0  0  0  0  0  0  0  0  0  0  0
  196.1736  182.4242  153.6232 H   0  0  0  0  0  0  0  0  0  0  0  0
  195.6519  181.1490  151.6012 H   0  0  0  0  0  0  0  0  0  0  0  0
  196.9303  179.0865  151.0381 H   0  0  0  0  0  0  0  0  0  0  0  0
  198.7490  178.3203  152.5538 H   0  0  0  0  0  0  0  0  0  0  0  0
  199.2679  179.5696  154.6106 H   0  0  0  0  0  0  0  0  0  0  0  0
  196.1443  182.8564  155.7852 H   0  0  0  0  0  0  0  0  0  0  0  0
  201.6910  181.5422  157.1326 H   0  0  0  0  0  0  0  0  0  0  0  0
  202.4804  182.7575  159.1660 H   0  0  0  0  0  0  0  0  0  0  0  0
  200.9480  184.3622  160.3117 H   0  0  0  0  0  0  0  0  0  0  0  0
  198.7178  184.7853  159.4185 H   0  0  0  0  0  0  0  0  0  0  0  0
  196.9709  189.2507  161.9696 H   0  0  0  0  0  0  0  0  0  0  0  0
  198.0747  188.5611  160.8194 H   0  0  0  0  0  0  0  0  0  0  0  0
  196.8107  190.4035  157.9546 H   0  0  0  0  0  0  0  0  0  0  0  0
  196.3511  188.7551  158.3456 H   0  0  0  0  0  0  0  0  0  0  0  0
  198.0367  189.2541  158.5040 H   0  0  0  0  0  0  0  0  0  0  0  0
  197.3914  191.9493  159.6662 H   0  0  0  0  0  0  0  0  0  0  0  0
  198.6590  190.8560  160.2447 H   0  0  0  0  0  0  0  0  0  0  0  0
  197.4228  191.4548  161.3562 H   0  0  0  0  0  0  0  0  0  0  0  0
  190.8162  187.4302  161.7123 H   0  0  0  0  0  0  0  0  0  0  0  0
  191.5463  187.1993  160.1247 H   0  0  0  0  0  0  0  0  0  0  0  0
  192.0757  188.5185  161.1698 H   0  0  0  0  0  0  0  0  0  0  0  0
  1  2  1  0
  1 31  1  0
  2  3  1  0
  2  8  2  0
  3  4  1  0
  3  5  2  0
  4 32  1  0
  5  6  1  0
  5 27  1  0
  6  7  2  0
  6 33  1  0
  7  8  1  0
  7  9  1  0
  8 34  1  0
  9 10  1  0
  9 35  1  1
  9 36  1  0
 10 11  1  0
 10 37  1  0
 11 12  1  0
 11 22  2  0
 12 13  1  0
 12 26  2  0
 13 14  1  0
 13 23  2  0
 14 15  2  0
 15 16  1  0
 15 22  1  0
 16 17  2  0
 16 21  1  0
 17 18  1  0
 17 38  1  0
 18 19  2  0
 18 39  1  0
 19 20  1  0
 19 40  1  0
 20 21  2  0
 20 41  1  0
 21 42  1  0
 22 43  1  0
 23 24  1  0
 23 44  1  0
 24 25  2  0
 24 45  1  0
 25 26  1  0
 25 46  1  0
 26 47  1  0
 27 28  1  0
 27 48  1  1
 27 49  1  0
 28 29  1  0
 28 30  1  0
 29 50  1  6
 29 51  1  0
 29 52  1  0
 30 53  1  6
 30 54  1  0
 30 55  1  0
 31 56  1  1
 31 57  1  0
 31 58  1  0
M  END
>  <s_epik_cmdline>  (1328) 
J2VwaWtfcHl0aG9uJywgJy1waCcsICc3LjAwMDAwMCcsICctcGh0JywgJzIuMDAwMDAwJywgJy1tcycsICcxNicsICctdG4nLCAnOCcsICctbWEnLCAnMjAwJywgJy1pbWFlJywgJzxpbmZpbGUubWFlPicsICctb21hZScsICc8b3V0ZmlsZS5tYWU+Jw==

>  <s_epik_input>  (1328) 
W0NIM11PYzFjKFtPSF0pYyhbQ0gyXU4oW0NIM10pW0NIM10pW2NIXWMoW2NIXTEpW0NIMl1bTkhdYzJbY0hdYyhuYyhjMjMpW2NIXVtjSF1bY0hdW2NIXTMpLWM0W2NIXVtjSF1bY0hdW2NIXVtjSF00

>  <s_i_glide_gridfile>  (1328) 
ATP-Grid

>  <s_lp_Force_Field>  (1328) 
OPLS_2005

>  <s_lp_Variant>  (1328) 
a4____239806____55126-3

>  <s_lp_label>  (1328) 
520_sdstereoexpander_1_neutralizer_1_epik_3_stereoizer_1

>  <s_m_source_file>  (1328) 
ATP-VSW-LIGPREP-001-in.maegz

>  <s_sd_BIOSOLVEIT.INFINISEE\_QUERY\_NAME>  (1328) 
Ref-Lig

>  <s_sd_BIOSOLVEIT.INFINISEE\_QUERY\_SMILES>  (1328) 
S(c1nc2c(cc1C[NH2+]Cc3ccc(cc3)C[NH+](C)C)cccc2)Cc4ccccc4

>  <s_sd_BIOSOLVEIT.INFINISEE\_REACTION\_NAME>  (1328) 
a4

>  <s_sd_BIOSOLVEIT.INFINISEE\_REAGENT1\_SMILES>  (1328) 
[R1*]Nc1c2c(nc(c3ccccc3)c1)cccc2

>  <s_sd_BIOSOLVEIT.INFINISEE\_REAGENT2\_SMILES>  (1328) 
[R1*]Cc1cc(OC)c(O)c(c1)CN(C)C

>  <s_sd_BIOSOLVEIT.INFINISEE\_SPACE>  (1328) 
FreedomSpace_5bn_2023-06

>  <s_vsw_compound_code>  (1328) 
16609

>  <s_vsw_variant>  (1328) 
16609-3

>  <r_epik_Charging_Adjusted_Penalty>  (1328) 
1.7096090882542101

>  <r_epik_Ionization_Penalty>  (1328) 
1.7054

>  <r_epik_Ionization_Penalty_Charging>  (1328) 
0

>  <r_epik_Ionization_Penalty_Neutral>  (1328) 
1.7054

>  <r_epik_State_Penalty>  (1328) 
1.7096

>  <r_i_docking_score>  (1328) 
-2.4792369401015999

>  <r_i_glide_ecoul>  (1328) 
-2.9602954387664799

>  <r_i_glide_eff_state_penalty>  (1328) 
1.7096

>  <r_i_glide_einternal>  (1328) 
10.7294578552246

>  <r_i_glide_emodel>  (1328) 
-41.4213046189331

>  <r_i_glide_energy>  (1328) 
-36.8269107341766

>  <r_i_glide_erotb>  (1328) 
0.57689710634178504

>  <r_i_glide_esite>  (1328) 
-0.00732750701781753

>  <r_i_glide_evdw>  (1328) 
-33.866615295410199

>  <r_i_glide_gscore>  (1328) 
-4.1888369401016003

>  <r_i_glide_hbond>  (1328) 
0

>  <r_i_glide_ligand_efficiency>  (1328) 
-0.0799753851645678

>  <r_i_glide_ligand_efficiency_ln>  (1328) 
-0.55914390948033399

>  <r_i_glide_ligand_efficiency_sa>  (1328) 
-0.25123312733594599

>  <r_i_glide_lipo>  (1328) 
-2.0313370042946399

>  <r_i_glide_metal>  (1328) 
-0

>  <r_i_glide_rewards>  (1328) 
-0.589694454545453

>  <r_lp_Energy>  (1328) 
29.037707999999999

>  <r_lp_tautomer_probability>  (1328) 
0.99999999999977596

>  <r_qp_ACxDN^.5/SA>  (1328) 
0.0116811

>  <r_qp_CIQPlogS>  (1328) 
-5.6239999999999997

>  <r_qp_EA(eV)>  (1328) 
0.752

>  <r_qp_FISA>  (1328) 
59.091000000000001

>  <r_qp_FOSA>  (1328) 
258.96699999999998

>  <r_qp_IP(eV)>  (1328) 
8.2400000000000002

>  <r_qp_Jm>  (1328) 
0.13815576351483799

>  <r_qp_PISA>  (1328) 
347.81900000000002

>  <r_qp_PSA>  (1328) 
53.255000000000003

>  <r_qp_PercentHumanOralAbsorption>  (1328) 
100

>  <r_qp_QPPCaco>  (1328) 
679.88999999999999

>  <r_qp_QPPMDCK>  (1328) 
360.67500000000001

>  <r_qp_QPlogBB>  (1328) 
-0.055

>  <r_qp_QPlogHERG>  (1328) 
-6.2080000000000002

>  <r_qp_QPlogKhsa>  (1328) 
0.67400000000000004

>  <r_qp_QPlogKp>  (1328) 
-2.6779999999999999

>  <r_qp_QPlogPC16>  (1328) 
13.458

>  <r_qp_QPlogPo/w>  (1328) 
4.3890000000000002

>  <r_qp_QPlogPoct>  (1328) 
20.356000000000002

>  <r_qp_QPlogPw>  (1328) 
10.670999999999999

>  <r_qp_QPlogS>  (1328) 
-3.798

>  <r_qp_QPpolrz>  (1328) 
43.454999999999998

>  <r_qp_SASA>  (1328) 
665.87699999999995

>  <r_qp_SAamideO>  (1328) 
0

>  <r_qp_SAfluorine>  (1328) 
0

>  <r_qp_WPSA>  (1328) 
0

>  <r_qp_accptHB>  (1328) 
5.5

>  <r_qp_dip^2/V>  (1328) 
0.016098500000000002

>  <r_qp_dipole>  (1328) 
4.548

>  <r_qp_donorHB>  (1328) 
2

>  <r_qp_glob>  (1328) 
0.85841210000000001

>  <r_qp_mol_MW>  (1328) 
413.51799999999997

>  <r_qp_volume>  (1328) 
1284.954

>  <r_sd_BIOSOLVEIT.INFINISEE\_FTREES\_SIMILARITY>  (1328) 
0.90400000000000003

>  <r_sd_BIOSOLVEIT.LOGP>  (1328) 
3.8725999999999998

>  <r_sd_BIOSOLVEIT.MOLECULAR\_WEIGHT>  (1328) 
414.52600000000001

>  <r_sd_BIOSOLVEIT.TPSA>  (1328) 
58.82

>  <i_epik_Tot_Q>  (1328) 
0

>  <i_epik_Tot_abs_Q>  (1328) 
0

>  <i_f3d_flags>  (1328) 
0

>  <i_i_glide_confnum>  (1328) 
1

>  <i_i_glide_lignum>  (1328) 
58

>  <i_i_glide_posenum>  (1328) 
1

>  <i_i_glide_rotatable_bonds>  (1328) 
8

>  <i_lp_mmshare_version>  (1328) 
65135

>  <i_m_ct_format>  (1328) 
2

>  <i_m_source_file_index>  (1328) 
520

>  <i_qp_#NandO>  (1328) 
5

>  <i_qp_#acid>  (1328) 
0

>  <i_qp_#amide>  (1328) 
0

>  <i_qp_#amidine>  (1328) 
0

>  <i_qp_#amine>  (1328) 
1

>  <i_qp_#in34>  (1328) 
0

>  <i_qp_#in56>  (1328) 
22

>  <i_qp_#metab>  (1328) 
7

>  <i_qp_#nonHatm>  (1328) 
31

>  <i_qp_#noncon>  (1328) 
0

>  <i_qp_#ringatoms>  (1328) 
22

>  <i_qp_#rotor>  (1328) 
8

>  <i_qp_#rtvFG>  (1328) 
0

>  <i_qp_#stars>  (1328) 
0

>  <i_qp_CNS>  (1328) 
1

>  <i_qp_HumanOralAbsorption>  (1328) 
3

>  <i_qp_RuleOfFive>  (1328) 
0

>  <i_qp_RuleOfThree>  (1328) 
1

>  <i_sd_BIOSOLVEIT.INFINISEE\_REAGENT1\_NAME>  (1328) 
239806

>  <i_sd_BIOSOLVEIT.INFINISEE\_REAGENT2\_NAME>  (1328) 
55126

>  <i_sd_BIOSOLVEIT.INFINISEE\_RESULT\_RANK>  (1328) 
79133

>  <i_sd_version>  (1328) 
0

>  <b_lp_Chiralities_Consistent>  (1328) 
1

>  <b_sd_chiral_flag>  (1328) 
0

>  <canonical_id>  (1328) 
ATP-HTVS-D1A5509321EA

>  <compound_code>  (1328) 
16609

>  <title>  (1328) 
a4____239806____55126

>  <variant>  (1328) 
16609-3

>  <source_file>  (1328) 
运行/运行/ATP-VSW/ATP-VSW-DOCK_HTVS_1-001_lib/ATP-VSW-DOCK_HTVS_1-001_lib

>  <canonical_smiles>  (1328) 
COc1cc(CNc2cc(-c3ccccc3)nc3ccccc23)cc(CN(C)C)c1O

>  <scaffold>  (1328) 
c1ccc(CNc2cc(-c3ccccc3)nc3ccccc23)cc1

>  <molecular_formula>  (1328) 
C26H27N3O2

$$$$
ATP-HTVS-D1F1286C5AB6
     RDKit          3D

 56 58  0  0  0  0  0  0  0  0999 V2000
  195.9536  189.8692  161.6225 Cl  0  0  0  0  0  0  0  0  0  0  0  0
  195.9116  188.2758  160.9561 C   0  0  0  0  0  0  0  0  0  0  0  0
  194.8021  187.4257  161.1861 C   0  0  0  0  0  0  0  0  0  0  0  0
  194.7734  186.1572  160.5813 C   0  0  0  0  0  0  0  0  0  0  0  0
  195.8239  185.7475  159.7545 C   0  0  0  0  0  0  0  0  0  0  0  0
  196.9453  186.5740  159.5201 C   0  0  0  0  0  0  0  0  0  0  0  0
  197.9916  186.1500  158.6390 N   0  0  0  0  0  0  0  0  0  0  0  0
  198.5040  184.8908  158.6845 C   0  0  0  0  0  0  0  0  0  0  0  0
  199.5474  184.6132  159.2756 O   0  0  0  0  0  0  0  0  0  0  0  0
  197.7981  183.8368  157.9080 C   0  0  0  0  0  0  0  0  0  0  0  0
  196.9592  182.6573  158.8831 S   0  0  0  0  0  0  0  0  0  0  0  0
  196.3484  181.9452  157.4050 C   0  0  0  0  0  0  0  0  0  0  0  0
  196.8421  182.4922  156.2753 C   0  0  0  0  0  0  0  0  0  0  0  0
  197.7565  183.5499  156.5540 C   0  0  0  0  0  0  0  0  0  0  0  0
  198.5175  184.2022  155.5472 N   0  0  0  0  0  0  0  0  0  0  0  0
  198.9209  183.6892  154.2251 C   0  0  1  0  0  0  0  0  0  0  0  0
  198.4808  182.2782  153.8689 C   0  0  0  0  0  0  0  0  0  0  0  0
  199.2040  181.1852  154.3679 C   0  0  0  0  0  0  0  0  0  0  0  0
  198.7043  179.8728  154.2845 C   0  0  0  0  0  0  0  0  0  0  0  0
  197.4847  179.6521  153.5805 C   0  0  0  0  0  0  0  0  0  0  0  0
  196.7942  180.7291  152.9945 C   0  0  0  0  0  0  0  0  0  0  0  0
  197.2709  182.0522  153.1417 C   0  0  0  0  0  0  0  0  0  0  0  0
  199.4401  178.7060  154.9410 C   0  0  1  0  0  0  0  0  0  0  0  0
  199.5488  178.7413  156.4391 N   0  0  1  0  0  0  0  0  0  0  0  0
  200.0470  177.4516  156.9896 C   0  0  2  0  0  0  0  0  0  0  0  0
  200.3388  179.8774  156.9822 C   0  0  2  0  0  0  0  0  0  0  0  0
  198.7145  187.1531  157.8517 C   0  0  2  0  0  0  0  0  0  0  0  0
  196.9808  187.8483  160.1442 C   0  0  0  0  0  0  0  0  0  0  0  0
  193.6169  187.8576  162.0253 C   0  0  2  0  0  0  0  0  0  0  0  0
  193.9263  185.4962  160.6931 H   0  0  0  0  0  0  0  0  0  0  0  0
  195.6964  184.8035  159.2606 H   0  0  0  0  0  0  0  0  0  0  0  0
  195.6192  181.1449  157.3959 H   0  0  0  0  0  0  0  0  0  0  0  0
  196.5569  182.1067  155.3152 H   0  0  0  0  0  0  0  0  0  0  0  0
  199.1124  184.9580  155.8633 H   0  0  0  0  0  0  0  0  0  0  0  0
  198.5933  184.3833  153.4434 H   0  0  0  0  0  0  0  0  0  0  0  0
  200.0186  183.7007  154.2009 H   0  0  0  0  0  0  0  0  0  0  0  0
  200.1163  181.4097  154.8946 H   0  0  0  0  0  0  0  0  0  0  0  0
  197.0920  178.6543  153.4787 H   0  0  0  0  0  0  0  0  0  0  0  0
  195.8357  180.5608  152.5053 H   0  0  0  0  0  0  0  0  0  0  0  0
  196.6904  182.8909  152.7791 H   0  0  0  0  0  0  0  0  0  0  0  0
  198.9558  177.7701  154.6436 H   0  0  0  0  0  0  0  0  0  0  0  0
  200.4266  178.6683  154.4918 H   0  0  0  0  0  0  0  0  0  0  0  0
  201.0449  177.2107  156.6083 H   0  0  0  0  0  0  0  0  0  0  0  0
  199.3697  176.6173  156.7627 H   0  0  0  0  0  0  0  0  0  0  0  0
  200.1161  177.5208  158.0798 H   0  0  0  0  0  0  0  0  0  0  0  0
  201.3270  179.8712  156.5369 H   0  0  0  0  0  0  0  0  0  0  0  0
  200.4530  179.7802  158.0590 H   0  0  0  0  0  0  0  0  0  0  0  0
  199.8396  180.8156  156.7867 H   0  0  0  0  0  0  0  0  0  0  0  0
  198.7787  186.8362  156.8103 H   0  0  0  0  0  0  0  0  0  0  0  0
  199.7213  187.3401  158.2302 H   0  0  0  0  0  0  0  0  0  0  0  0
  198.1798  188.1007  157.8264 H   0  0  0  0  0  0  0  0  0  0  0  0
  197.8176  188.5218  160.0007 H   0  0  0  0  0  0  0  0  0  0  0  0
  192.8381  187.0930  162.0322 H   0  0  0  0  0  0  0  0  0  0  0  0
  193.1833  188.7750  161.6310 H   0  0  0  0  0  0  0  0  0  0  0  0
  193.9410  188.0312  163.0473 H   0  0  0  0  0  0  0  0  0  0  0  0
  198.6132  178.8027  156.8008 H   0  0  0  0  0  0  0  0  0  0  0  0
  1  2  1  0
  2  3  2  0
  2 28  1  0
  3  4  1  0
  3 29  1  0
  4  5  2  0
  4 30  1  0
  5  6  1  0
  5 31  1  0
  6  7  1  0
  6 28  2  0
  7  8  1  0
  7 27  1  0
  8  9  2  0
  8 10  1  0
 10 11  1  0
 10 14  2  0
 11 12  1  0
 12 13  2  0
 12 32  1  0
 13 14  1  0
 13 33  1  0
 14 15  1  0
 15 16  1  0
 15 34  1  0
 16 17  1  0
 16 35  1  6
 16 36  1  0
 17 18  2  0
 17 22  1  0
 18 19  1  0
 18 37  1  0
 19 20  2  0
 19 23  1  0
 20 21  1  0
 20 38  1  0
 21 22  2  0
 21 39  1  0
 22 40  1  0
 23 24  1  0
 23 41  1  1
 23 42  1  0
 24 25  1  0
 24 26  1  0
 24 56  1  1
 25 43  1  6
 25 44  1  0
 25 45  1  0
 26 46  1  6
 26 47  1  0
 26 48  1  0
 27 49  1  6
 27 50  1  0
 27 51  1  0
 28 52  1  0
 29 53  1  1
 29 54  1  0
 29 55  1  0
M  CHG  1  24   1
M  END
>  <s_epik_cmdline>  (1329) 
J2VwaWtfcHl0aG9uJywgJy1waCcsICc3LjAwMDAwMCcsICctcGh0JywgJzIuMDAwMDAwJywgJy1tcycsICcxNicsICctdG4nLCAnOCcsICctbWEnLCAnMjAwJywgJy1pbWFlJywgJzxpbmZpbGUubWFlPicsICctb21hZScsICc8b3V0ZmlsZS5tYWU+Jw==

>  <s_epik_input>  (1329) 
Q2xjMWMoW0NIM10pW2NIXVtjSF1jKFtjSF0xKU4oW0NIM10pQyg9TyljMnNbY0hdW2NIXWMyW05IXVtDSDJdYzNbY0hdYyhbY0hdW2NIXVtjSF0zKVtDSDJdTihbQ0gzXSlbQ0gzXQ==

>  <s_i_glide_gridfile>  (1329) 
ATP-Grid

>  <s_lp_Force_Field>  (1329) 
OPLS_2005

>  <s_lp_Variant>  (1329) 
rxn512b____EMOL31531197____EMOL525138____EMOL2873214-1

>  <s_lp_label>  (1329) 
2591_sdstereoexpander_1_neutralizer_1_epik_1_stereoizer_1

>  <s_m_source_file>  (1329) 
ATP-VSW-LIGPREP-003-in.maegz

>  <s_sd_BIOSOLVEIT.INFINISEE\_QUERY\_NAME>  (1329) 
Ref-Lig

>  <s_sd_BIOSOLVEIT.INFINISEE\_QUERY\_SMILES>  (1329) 
S(c1nc2c(cc1C[NH2+]Cc3ccc(cc3)C[NH+](C)C)cccc2)Cc4ccccc4

>  <s_sd_BIOSOLVEIT.INFINISEE\_REACTION\_NAME>  (1329) 
rxn512b

>  <s_sd_BIOSOLVEIT.INFINISEE\_REAGENT1\_NAME>  (1329) 
EMOL31531197

>  <s_sd_BIOSOLVEIT.INFINISEE\_REAGENT1\_SMILES>  (1329) 
Clc1c(ccc(NC)c1)C

>  <s_sd_BIOSOLVEIT.INFINISEE\_REAGENT2\_NAME>  (1329) 
EMOL525138

>  <s_sd_BIOSOLVEIT.INFINISEE\_REAGENT2\_SMILES>  (1329) 
BrC1=C(SC=C1)C(=O)O

>  <s_sd_BIOSOLVEIT.INFINISEE\_REAGENT3\_NAME>  (1329) 
EMOL2873214

>  <s_sd_BIOSOLVEIT.INFINISEE\_REAGENT3\_SMILES>  (1329) 
N(Cc1cc(ccc1)CN)(C)C

>  <s_sd_BIOSOLVEIT.INFINISEE\_SPACE>  (1329) 
eXplore_7tr_2022-12

>  <s_vsw_compound_code>  (1329) 
82883

>  <s_vsw_variant>  (1329) 
82883-1

>  <r_epik_Charging_Adjusted_Penalty>  (1329) 
0.086140609825027206

>  <r_epik_Ionization_Penalty>  (1329) 
0.043099999999999999

>  <r_epik_Ionization_Penalty_Charging>  (1329) 
0.043099999999999999

>  <r_epik_Ionization_Penalty_Neutral>  (1329) 
0

>  <r_epik_State_Penalty>  (1329) 
0.043099999999999999

>  <r_i_docking_score>  (1329) 
-4.0820996859440797

>  <r_i_glide_ecoul>  (1329) 
-8.0635871887206996

>  <r_i_glide_eff_state_penalty>  (1329) 
0.043099999999999999

>  <r_i_glide_einternal>  (1329) 
19.6779670715332

>  <r_i_glide_emodel>  (1329) 
-44.1492836333898

>  <r_i_glide_energy>  (1329) 
-39.906574249267599

>  <r_i_glide_erotb>  (1329) 
0.75570723507794701

>  <r_i_glide_esite>  (1329) 
-0.093144942889472504

>  <r_i_glide_evdw>  (1329) 
-31.8429870605469

>  <r_i_glide_gscore>  (1329) 
-4.1251996859440796

>  <r_i_glide_hbond>  (1329) 
-0.139799834068527

>  <r_i_glide_ligand_efficiency>  (1329) 
-0.14076205813600301

>  <r_i_glide_ligand_efficiency_ln>  (1329) 
-0.93469731496451403

>  <r_i_glide_ligand_efficiency_sa>  (1329) 
-0.43246563914399699

>  <r_i_glide_lipo>  (1329) 
-1.14019641633868

>  <r_i_glide_metal>  (1329) 
-0

>  <r_i_glide_rewards>  (1329) 
-0.70607829638989505

>  <r_lp_Energy>  (1329) 
37.759687

>  <r_lp_tautomer_probability>  (1329) 
0.99999274205267796

>  <r_qp_ACxDN^.5/SA>  (1329) 
0

>  <r_qp_CIQPlogS>  (1329) 
-4.766

>  <r_qp_EA(eV)>  (1329) 
0.379

>  <r_qp_FISA>  (1329) 
41.875

>  <r_qp_FOSA>  (1329) 
357.35599999999999

>  <r_qp_IP(eV)>  (1329) 
8.3510000000000009

>  <r_qp_Jm>  (1329) 
0.00044612912557521898

>  <r_qp_PISA>  (1329) 
233.215

>  <r_qp_PSA>  (1329) 
45.804000000000002

>  <r_qp_PercentHumanOralAbsorption>  (1329) 
100

>  <r_qp_QPPCaco>  (1329) 
246.947

>  <r_qp_QPPMDCK>  (1329) 
405.73099999999999

>  <r_qp_QPlogBB>  (1329) 
0.73399999999999999

>  <r_qp_QPlogHERG>  (1329) 
-7.0919999999999996

>  <r_qp_QPlogKhsa>  (1329) 
0.86699999999999999

>  <r_qp_QPlogKp>  (1329) 
-4.923

>  <r_qp_QPlogPC16>  (1329) 
13.211

>  <r_qp_QPlogPo/w>  (1329) 
4.8540000000000001

>  <r_qp_QPlogPoct>  (1329) 
17.686

>  <r_qp_QPlogPw>  (1329) 
6.7359999999999998

>  <r_qp_QPlogS>  (1329) 
-4.0590000000000002

>  <r_qp_QPpolrz>  (1329) 
45.119

>  <r_qp_SASA>  (1329) 
720.553

>  <r_qp_SAamideO>  (1329) 
0

>  <r_qp_SAfluorine>  (1329) 
0

>  <r_qp_WPSA>  (1329) 
88.106999999999999

>  <r_qp_accptHB>  (1329) 
5

>  <r_qp_dip^2/V>  (1329) 
0.0075116000000000002

>  <r_qp_dipole>  (1329) 
3.1699999999999999

>  <r_qp_donorHB>  (1329) 
0

>  <r_qp_glob>  (1329) 
0.81490149999999995

>  <r_qp_mol_MW>  (1329) 
427.99099999999999

>  <r_qp_volume>  (1329) 
1337.855

>  <r_sd_BIOSOLVEIT.INFINISEE\_FTREES\_SIMILARITY>  (1329) 
0.91100000000000003

>  <r_sd_BIOSOLVEIT.LOGP>  (1329) 
4.2431200000000002

>  <r_sd_BIOSOLVEIT.MOLECULAR\_WEIGHT>  (1329) 
429.00400000000002

>  <r_sd_BIOSOLVEIT.TPSA>  (1329) 
36.780000000000001

>  <i_epik_Tot_Q>  (1329) 
1

>  <i_epik_Tot_abs_Q>  (1329) 
1

>  <i_f3d_flags>  (1329) 
0

>  <i_i_glide_confnum>  (1329) 
4

>  <i_i_glide_lignum>  (1329) 
1176

>  <i_i_glide_posenum>  (1329) 
8

>  <i_i_glide_rotatable_bonds>  (1329) 
8

>  <i_lp_mmshare_version>  (1329) 
65135

>  <i_m_ct_format>  (1329) 
2

>  <i_m_source_file_index>  (1329) 
2591

>  <i_qp_#NandO>  (1329) 
4

>  <i_qp_#acid>  (1329) 
0

>  <i_qp_#amide>  (1329) 
0

>  <i_qp_#amidine>  (1329) 
0

>  <i_qp_#amine>  (1329) 
2

>  <i_qp_#in34>  (1329) 
0

>  <i_qp_#in56>  (1329) 
17

>  <i_qp_#metab>  (1329) 
6

>  <i_qp_#nonHatm>  (1329) 
29

>  <i_qp_#noncon>  (1329) 
0

>  <i_qp_#ringatoms>  (1329) 
17

>  <i_qp_#rotor>  (1329) 
7

>  <i_qp_#rtvFG>  (1329) 
0

>  <i_qp_#stars>  (1329) 
0

>  <i_qp_CNS>  (1329) 
2

>  <i_qp_HumanOralAbsorption>  (1329) 
3

>  <i_qp_RuleOfFive>  (1329) 
0

>  <i_qp_RuleOfThree>  (1329) 
0

>  <i_sd_BIOSOLVEIT.INFINISEE\_RESULT\_RANK>  (1329) 
40570

>  <i_sd_version>  (1329) 
0

>  <b_lp_Chiralities_Consistent>  (1329) 
1

>  <b_sd_chiral_flag>  (1329) 
0

>  <canonical_id>  (1329) 
ATP-HTVS-D1F1286C5AB6

>  <compound_code>  (1329) 
82883

>  <title>  (1329) 
rxn512b____EMOL31531197____EMOL525138____EMOL2873214

>  <variant>  (1329) 
82883-1

>  <source_file>  (1329) 
运行/运行/ATP-VSW/ATP-VSW-DOCK_HTVS_1-003_lib/ATP-VSW-DOCK_HTVS_1-003_lib.mae

>  <canonical_smiles>  (1329) 
Cc1ccc(N(C)C(=O)c2sccc2NCc2cccc(C[NH+](C)C)c2)cc1Cl

>  <scaffold>  (1329) 
O=C(Nc1ccccc1)c1sccc1NCc1ccccc1

>  <molecular_formula>  (1329) 
C23H27ClN3OS+

$$$$
ATP-HTVS-D22CA90FC022
     RDKit          3D

 63 66  0  0  0  0  0  0  0  0999 V2000
  190.3091  192.9008  161.3542 N   0  0  0  0  0  0  0  0  0  0  0  0
  190.7526  192.1668  162.1285 C   0  0  0  0  0  0  0  0  0  0  0  0
  191.3077  191.2388  163.0966 C   0  0  0  0  0  0  0  0  0  0  0  0
  191.6091  189.9276  162.6902 C   0  0  0  0  0  0  0  0  0  0  0  0
  192.1452  189.0022  163.6144 C   0  0  0  0  0  0  0  0  0  0  0  0
  192.3443  189.3936  164.9577 C   0  0  0  0  0  0  0  0  0  0  0  0
  192.0387  190.7075  165.3617 C   0  0  0  0  0  0  0  0  0  0  0  0
  191.5321  191.6341  164.4297 C   0  0  0  0  0  0  0  0  0  0  0  0
  192.4904  187.5933  163.1642 C   0  0  1  0  0  0  0  0  0  0  0  0
  193.3048  187.5803  161.8610 C   0  0  1  0  0  0  0  0  0  0  0  0
  193.4533  186.2363  161.3367 N   0  0  0  0  0  0  0  0  0  0  0  0
  194.4951  185.8155  160.5354 C   0  0  0  0  0  0  0  0  0  0  0  0
  195.5278  186.6324  160.3275 N   0  0  0  0  0  0  0  0  0  0  0  0
  196.5600  186.2245  159.5694 C   0  0  0  0  0  0  0  0  0  0  0  0
  197.6060  187.1322  159.3412 N   0  0  0  0  0  0  0  0  0  0  0  0
  197.5596  188.4858  159.8774 C   0  0  1  0  0  0  0  0  0  0  0  0
  198.4610  189.4380  159.1212 C   0  0  0  0  0  0  0  0  0  0  0  0
  199.8596  189.3561  159.2683 C   0  0  0  0  0  0  0  0  0  0  0  0
  200.7009  190.2757  158.6066 C   0  0  0  0  0  0  0  0  0  0  0  0
  200.1283  191.2556  157.7641 C   0  0  0  0  0  0  0  0  0  0  0  0
  198.7304  191.3299  157.6074 C   0  0  0  0  0  0  0  0  0  0  0  0
  197.8967  190.4227  158.2859 C   0  0  0  0  0  0  0  0  0  0  0  0
  202.2097  190.2260  158.8192 C   0  0  1  0  0  0  0  0  0  0  0  0
  202.6582  190.9212  160.0578 N   0  0  2  0  0  0  0  0  0  0  0  0
  202.2504  190.2363  161.3083 C   0  0  2  0  0  0  0  0  0  0  0  0
  202.3266  192.3639  160.0792 C   0  0  2  0  0  0  0  0  0  0  0  0
  196.5780  184.9249  159.0219 C   0  0  0  0  0  0  0  0  0  0  0  0
  195.4567  184.1021  159.2825 C   0  0  0  0  0  0  0  0  0  0  0  0
  194.4409  184.5776  160.0332 N   0  0  0  0  0  0  0  0  0  0  0  0
  195.3896  182.7939  158.7742 C   0  0  0  0  0  0  0  0  0  0  0  0
  196.4432  182.2937  157.9865 C   0  0  0  0  0  0  0  0  0  0  0  0
  197.5614  183.1075  157.7129 C   0  0  0  0  0  0  0  0  0  0  0  0
  197.6325  184.4187  158.2270 C   0  0  0  0  0  0  0  0  0  0  0  0
  191.4104  189.6473  161.6631 H   0  0  0  0  0  0  0  0  0  0  0  0
  192.7224  188.6931  165.6907 H   0  0  0  0  0  0  0  0  0  0  0  0
  192.1827  191.0008  166.3905 H   0  0  0  0  0  0  0  0  0  0  0  0
  191.2888  192.6368  164.7393 H   0  0  0  0  0  0  0  0  0  0  0  0
  193.0680  187.0821  163.9364 H   0  0  0  0  0  0  0  0  0  0  0  0
  191.5573  187.0372  163.0568 H   0  0  0  0  0  0  0  0  0  0  0  0
  192.7961  188.1340  161.0751 H   0  0  0  0  0  0  0  0  0  0  0  0
  194.2762  188.0480  162.0329 H   0  0  0  0  0  0  0  0  0  0  0  0
  192.6507  185.6268  161.3916 H   0  0  0  0  0  0  0  0  0  0  0  0
  198.4110  186.8491  158.8080 H   0  0  0  0  0  0  0  0  0  0  0  0
  196.5448  188.8857  159.8496 H   0  0  0  0  0  0  0  0  0  0  0  0
  197.8578  188.4611  160.9290 H   0  0  0  0  0  0  0  0  0  0  0  0
  200.2746  188.6047  159.9244 H   0  0  0  0  0  0  0  0  0  0  0  0
  200.7542  191.9735  157.2520 H   0  0  0  0  0  0  0  0  0  0  0  0
  198.2921  192.0873  156.9741 H   0  0  0  0  0  0  0  0  0  0  0  0
  196.8233  190.4891  158.1699 H   0  0  0  0  0  0  0  0  0  0  0  0
  202.5428  189.1834  158.8340 H   0  0  0  0  0  0  0  0  0  0  0  0
  202.7021  190.6792  157.9574 H   0  0  0  0  0  0  0  0  0  0  0  0
  201.1648  190.2354  161.4105 H   0  0  0  0  0  0  0  0  0  0  0  0
  202.6615  190.7395  162.1858 H   0  0  0  0  0  0  0  0  0  0  0  0
  202.6103  189.2064  161.3121 H   0  0  0  0  0  0  0  0  0  0  0  0
  201.2494  192.5286  160.1044 H   0  0  0  0  0  0  0  0  0  0  0  0
  202.7278  192.8713  159.1999 H   0  0  0  0  0  0  0  0  0  0  0  0
  202.7485  192.8498  160.9595 H   0  0  0  0  0  0  0  0  0  0  0  0
  194.5407  182.1505  158.9598 H   0  0  0  0  0  0  0  0  0  0  0  0
  196.3868  181.2886  157.5894 H   0  0  0  0  0  0  0  0  0  0  0  0
  198.3639  182.7180  157.1027 H   0  0  0  0  0  0  0  0  0  0  0  0
  198.4979  185.0184  157.9958 H   0  0  0  0  0  0  0  0  0  0  0  0
  193.6383  183.9674  160.1911 H   0  0  0  0  0  0  0  0  0  0  0  0
  203.6676  190.8725  160.0362 H   0  0  0  0  0  0  0  0  0  0  0  0
  1  2  3  0
  2  3  1  0
  3  4  2  0
  3  8  1  0
  4  5  1  0
  4 34  1  0
  5  6  2  0
  5  9  1  0
  6  7  1  0
  6 35  1  0
  7  8  2  0
  7 36  1  0
  8 37  1  0
  9 10  1  0
  9 38  1  1
  9 39  1  0
 10 11  1  0
 10 40  1  6
 10 41  1  0
 11 12  1  0
 11 42  1  0
 12 13  1  0
 12 29  2  0
 13 14  2  0
 14 15  1  0
 14 27  1  0
 15 16  1  0
 15 43  1  0
 16 17  1  0
 16 44  1  1
 16 45  1  0
 17 18  2  0
 17 22  1  0
 18 19  1  0
 18 46  1  0
 19 20  2  0
 19 23  1  0
 20 21  1  0
 20 47  1  0
 21 22  2  0
 21 48  1  0
 22 49  1  0
 23 24  1  0
 23 50  1  1
 23 51  1  0
 24 25  1  0
 24 26  1  0
 24 63  1  6
 25 52  1  1
 25 53  1  0
 25 54  1  0
 26 55  1  1
 26 56  1  0
 26 57  1  0
 27 28  1  0
 27 33  2  0
 28 29  1  0
 28 30  2  0
 29 62  1  0
 30 31  1  0
 30 58  1  0
 31 32  2  0
 31 59  1  0
 32 33  1  0
 32 60  1  0
 33 61  1  0
M  CHG  2  24   1  29   1
M  END
>  <s_epik_cmdline>  (1330) 
J2VwaWtfcHl0aG9uJywgJy1waCcsICc3LjAwMDAwMCcsICctcGh0JywgJzIuMDAwMDAwJywgJy1tcycsICcxNicsICctdG4nLCAnOCcsICctbWEnLCAnMjAwJywgJy1pbWFlJywgJzxpbmZpbGUubWFlPicsICctb21hZScsICc8b3V0ZmlsZS5tYWU+Jw==

>  <s_epik_input>  (1330) 
TiNDYzFbY0hdYyhbY0hdW2NIXVtjSF0xKVtDSDJdW0NIMl1bTkhdYyhuYyhjMjMpW2NIXVtjSF1bY0hdW2NIXTMpbmMyW05IXVtDSDJdYzRbY0hdYyhbY0hdW2NIXVtjSF00KVtDSDJdTihbQ0gzXSlbQ0gzXQ==

>  <s_i_glide_gridfile>  (1330) 
ATP-Grid

>  <s_lp_Force_Field>  (1330) 
OPLS_2005

>  <s_lp_Variant>  (1330) 
m_282030aaa____21906106____22360182____21940090-1

>  <s_lp_label>  (1330) 
1674_sdstereoexpander_1_neutralizer_1_epik_1_stereoizer_1

>  <s_m_source_file>  (1330) 
ATP-VSW-LIGPREP-003-in.maegz

>  <s_sd_BIOSOLVEIT.INFINISEE\_QUERY\_NAME>  (1330) 
Ref-Lig

>  <s_sd_BIOSOLVEIT.INFINISEE\_QUERY\_SMILES>  (1330) 
S(c1nc2c(cc1C[NH2+]Cc3ccc(cc3)C[NH+](C)C)cccc2)Cc4ccccc4

>  <s_sd_BIOSOLVEIT.INFINISEE\_REACTION\_NAME>  (1330) 
m_282030aaa

>  <s_sd_BIOSOLVEIT.INFINISEE\_REAGENT1\_SMILES>  (1330) 
[R1*]NCCc1cc(C#N)ccc1

>  <s_sd_BIOSOLVEIT.INFINISEE\_REAGENT2\_SMILES>  (1330) 
[R2*]c1nc([R1*])c2c(n1)cccc2

>  <s_sd_BIOSOLVEIT.INFINISEE\_REAGENT3\_SMILES>  (1330) 
[R2*]NCc1cc(ccc1)CN(C)C

>  <s_sd_BIOSOLVEIT.INFINISEE\_SPACE>  (1330) 
REALSpace_44bn_2023-08

>  <s_vsw_compound_code>  (1330) 
53539

>  <s_vsw_variant>  (1330) 
53539-1

>  <r_epik_Charging_Adjusted_Penalty>  (1330) 
0.122359085317755

>  <r_epik_Ionization_Penalty>  (1330) 
0.058700000000000002

>  <r_epik_Ionization_Penalty_Charging>  (1330) 
0.058700000000000002

>  <r_epik_Ionization_Penalty_Neutral>  (1330) 
0

>  <r_epik_State_Penalty>  (1330) 
0.063700000000000007

>  <r_i_docking_score>  (1330) 
-4.3567963561862904

>  <r_i_glide_ecoul>  (1330) 
-5.4024095535278303

>  <r_i_glide_eff_state_penalty>  (1330) 
0.063700000000000007

>  <r_i_glide_einternal>  (1330) 
2.82684421539307

>  <r_i_glide_emodel>  (1330) 
-58.673881452053401

>  <r_i_glide_energy>  (1330) 
-41.230793952941902

>  <r_i_glide_erotb>  (1330) 
0.82981225285114102

>  <r_i_glide_esite>  (1330) 
-0.0024302152809415798

>  <r_i_glide_evdw>  (1330) 
-35.828384399414098

>  <r_i_glide_gscore>  (1330) 
-4.4204963561862902

>  <r_i_glide_hbond>  (1330) 
0

>  <r_i_glide_ligand_efficiency>  (1330) 
-0.132024132005645

>  <r_i_glide_ligand_efficiency_ln>  (1330) 
-0.96892895133159196

>  <r_i_glide_ligand_efficiency_sa>  (1330) 
-0.42347193530244998

>  <r_i_glide_lipo>  (1330) 
-1.82268716002449

>  <r_i_glide_metal>  (1330) 
-0

>  <r_i_glide_rewards>  (1330) 
-0.82341058073212403

>  <r_lp_Energy>  (1330) 
20.185856999999999

>  <r_qp_ACxDN^.5/SA>  (1330) 
0.0111241

>  <r_qp_CIQPlogS>  (1330) 
-6.7039999999999997

>  <r_qp_EA(eV)>  (1330) 
0.64300000000000002

>  <r_qp_FISA>  (1330) 
118.777

>  <r_qp_FOSA>  (1330) 
258.22800000000001

>  <r_qp_IP(eV)>  (1330) 
8.0790000000000006

>  <r_qp_Jm>  (1330) 
3.0026091969809799e-05

>  <r_qp_PISA>  (1330) 
449.34399999999999

>  <r_qp_PSA>  (1330) 
72.634

>  <r_qp_PercentHumanOralAbsorption>  (1330) 
96.137

>  <r_qp_QPPCaco>  (1330) 
184.68600000000001

>  <r_qp_QPPMDCK>  (1330) 
88.171999999999997

>  <r_qp_QPlogBB>  (1330) 
-1.0049999999999999

>  <r_qp_QPlogHERG>  (1330) 
-8.2550000000000008

>  <r_qp_QPlogKhsa>  (1330) 
0.879

>  <r_qp_QPlogKp>  (1330) 
-3.2280000000000002

>  <r_qp_QPlogPC16>  (1330) 
16.731999999999999

>  <r_qp_QPlogPo/w>  (1330) 
4.8890000000000002

>  <r_qp_QPlogPoct>  (1330) 
24.152999999999999

>  <r_qp_QPlogPw>  (1330) 
12.698

>  <r_qp_QPlogS>  (1330) 
-6.9340000000000002

>  <r_qp_QPpolrz>  (1330) 
51.149999999999999

>  <r_qp_SASA>  (1330) 
826.34900000000005

>  <r_qp_SAamideO>  (1330) 
0

>  <r_qp_SAfluorine>  (1330) 
0

>  <r_qp_WPSA>  (1330) 
0

>  <r_qp_accptHB>  (1330) 
6.5

>  <r_qp_dip^2/V>  (1330) 
0.055045999999999998

>  <r_qp_dipole>  (1330) 
9.0419999999999998

>  <r_qp_donorHB>  (1330) 
2

>  <r_qp_glob>  (1330) 
0.76179580000000002

>  <r_qp_mol_MW>  (1330) 
436.55799999999999

>  <r_qp_volume>  (1330) 
1485.0989999999999

>  <r_sd_BIOSOLVEIT.INFINISEE\_FTREES\_SIMILARITY>  (1330) 
0.90500000000000003

>  <r_sd_BIOSOLVEIT.LOGP>  (1330) 
3.4126799999999999

>  <r_sd_BIOSOLVEIT.MOLECULAR\_WEIGHT>  (1330) 
437.56799999999998

>  <r_sd_BIOSOLVEIT.TPSA>  (1330) 
78.069999999999993

>  <i_epik_Tot_Q>  (1330) 
2

>  <i_epik_Tot_abs_Q>  (1330) 
2

>  <i_f3d_flags>  (1330) 
0

>  <i_i_glide_confnum>  (1330) 
9

>  <i_i_glide_lignum>  (1330) 
634

>  <i_i_glide_posenum>  (1330) 
17

>  <i_i_glide_rotatable_bonds>  (1330) 
9

>  <i_lp_mmshare_version>  (1330) 
65135

>  <i_m_ct_format>  (1330) 
2

>  <i_m_source_file_index>  (1330) 
1674

>  <i_qp_#NandO>  (1330) 
6

>  <i_qp_#acid>  (1330) 
0

>  <i_qp_#amide>  (1330) 
0

>  <i_qp_#amidine>  (1330) 
0

>  <i_qp_#amine>  (1330) 
1

>  <i_qp_#in34>  (1330) 
0

>  <i_qp_#in56>  (1330) 
22

>  <i_qp_#metab>  (1330) 
4

>  <i_qp_#nonHatm>  (1330) 
33

>  <i_qp_#noncon>  (1330) 
0

>  <i_qp_#ringatoms>  (1330) 
22

>  <i_qp_#rotor>  (1330) 
10

>  <i_qp_#rtvFG>  (1330) 
0

>  <i_qp_#stars>  (1330) 
1

>  <i_qp_CNS>  (1330) 
-2

>  <i_qp_HumanOralAbsorption>  (1330) 
1

>  <i_qp_RuleOfFive>  (1330) 
0

>  <i_qp_RuleOfThree>  (1330) 
1

>  <i_sd_BIOSOLVEIT.INFINISEE\_REAGENT1\_NAME>  (1330) 
21906106

>  <i_sd_BIOSOLVEIT.INFINISEE\_REAGENT2\_NAME>  (1330) 
22360182

>  <i_sd_BIOSOLVEIT.INFINISEE\_REAGENT3\_NAME>  (1330) 
21940090

>  <i_sd_BIOSOLVEIT.INFINISEE\_RESULT\_RANK>  (1330) 
70205

>  <i_sd_version>  (1330) 
0

>  <b_lp_Chiralities_Consistent>  (1330) 
1

>  <b_sd_chiral_flag>  (1330) 
0

>  <canonical_id>  (1330) 
ATP-HTVS-D22CA90FC022

>  <compound_code>  (1330) 
53539

>  <title>  (1330) 
m_282030aaa____21906106____22360182____21940090

>  <variant>  (1330) 
53539-1

>  <source_file>  (1330) 
运行/运行/ATP-VSW/ATP-VSW-DOCK_HTVS_1-003_lib/ATP-VSW-DOCK_HTVS_1-003_lib.mae

>  <canonical_smiles>  (1330) 
C[NH+](C)Cc1cccc(CNc2nc(NCCc3cccc(C#N)c3)[nH+]c3ccccc23)c1

>  <scaffold>  (1330) 
c1ccc(CCNc2nc(NCc3ccccc3)c3ccccc3[nH+]2)cc1

>  <molecular_formula>  (1330) 
C27H30N6+2

$$$$
ATP-HTVS-D254F911DFD1
     RDKit          3D

 50 53  0  0  0  0  0  0  0  0999 V2000
  196.8046  184.5167  154.9086 O   0  0  0  0  0  0  0  0  0  0  0  0
  197.2151  183.3923  154.6216 C   0  0  0  0  0  0  0  0  0  0  0  0
  197.7659  183.0240  153.4412 N   0  0  0  0  0  0  0  0  0  0  0  0
  198.1417  181.6678  153.5047 C   0  0  0  0  0  0  0  0  0  0  0  0
  197.7963  181.2231  154.7668 C   0  0  0  0  0  0  0  0  0  0  0  0
  197.2245  182.3122  155.4370 N   0  0  0  0  0  0  0  0  0  0  0  0
  196.7599  182.2776  156.8170 C   0  0  1  0  0  0  0  0  0  0  0  0
  197.3987  183.3631  157.6739 C   0  0  0  0  0  0  0  0  0  0  0  0
  196.5898  184.2995  158.2910 C   0  0  0  0  0  0  0  0  0  0  0  0
  197.0988  185.2719  159.1838 C   0  0  0  0  0  0  0  0  0  0  0  0
  198.4982  185.3668  159.3252 C   0  0  0  0  0  0  0  0  0  0  0  0
  199.3501  184.4686  158.6310 C   0  0  0  0  0  0  0  0  0  0  0  0
  198.8040  183.4488  157.8221 C   0  0  0  0  0  0  0  0  0  0  0  0
  196.1615  186.2104  159.9514 C   0  0  1  0  0  0  0  0  0  0  0  0
  195.1429  185.5591  160.7904 N   0  0  0  0  0  0  0  0  0  0  0  0
  194.2192  186.5543  161.3302 C   0  0  2  0  0  0  0  0  0  0  0  0
  194.3331  184.6039  160.0414 C   0  0  2  0  0  0  0  0  0  0  0  0
  198.0447  179.9044  155.1913 C   0  0  0  0  0  0  0  0  0  0  0  0
  198.6756  179.0385  154.2713 C   0  0  0  0  0  0  0  0  0  0  0  0
  199.0427  179.4928  152.9796 C   0  0  0  0  0  0  0  0  0  0  0  0
  198.7885  180.8242  152.5825 C   0  0  0  0  0  0  0  0  0  0  0  0
  197.8580  183.8041  152.2530 C   0  0  0  0  0  0  0  0  0  0  0  0
  198.2452  185.1636  152.3199 C   0  0  0  0  0  0  0  0  0  0  0  0
  198.3337  185.9397  151.1485 C   0  0  0  0  0  0  0  0  0  0  0  0
  198.0312  185.3654  149.8994 C   0  0  0  0  0  0  0  0  0  0  0  0
  197.6394  184.0159  149.8229 C   0  0  0  0  0  0  0  0  0  0  0  0
  197.5480  183.2418  150.9939 C   0  0  0  0  0  0  0  0  0  0  0  0
  195.6721  182.3840  156.8121 H   0  0  0  0  0  0  0  0  0  0  0  0
  196.9422  181.3079  157.2797 H   0  0  0  0  0  0  0  0  0  0  0  0
  195.5237  184.2450  158.0690 H   0  0  0  0  0  0  0  0  0  0  0  0
  198.9319  186.1299  159.9557 H   0  0  0  0  0  0  0  0  0  0  0  0
  200.4221  184.5715  158.7141 H   0  0  0  0  0  0  0  0  0  0  0  0
  199.4474  182.7641  157.2824 H   0  0  0  0  0  0  0  0  0  0  0  0
  196.7665  186.8558  160.5944 H   0  0  0  0  0  0  0  0  0  0  0  0
  195.6910  186.8677  159.2222 H   0  0  0  0  0  0  0  0  0  0  0  0
  193.4308  186.0564  161.9009 H   0  0  0  0  0  0  0  0  0  0  0  0
  193.7303  187.1084  160.5264 H   0  0  0  0  0  0  0  0  0  0  0  0
  194.7264  187.2613  161.9920 H   0  0  0  0  0  0  0  0  0  0  0  0
  193.4820  184.1831  160.5371 H   0  0  0  0  0  0  0  0  0  0  0  0
  194.9618  183.7520  159.7772 H   0  0  0  0  0  0  0  0  0  0  0  0
  193.9406  185.0494  159.1329 H   0  0  0  0  0  0  0  0  0  0  0  0
  197.7715  179.5569  156.1785 H   0  0  0  0  0  0  0  0  0  0  0  0
  198.8834  178.0194  154.5595 H   0  0  0  0  0  0  0  0  0  0  0  0
  199.5296  178.8179  152.2912 H   0  0  0  0  0  0  0  0  0  0  0  0
  199.0934  181.1702  151.6077 H   0  0  0  0  0  0  0  0  0  0  0  0
  198.4778  185.6222  153.2706 H   0  0  0  0  0  0  0  0  0  0  0  0
  198.6253  186.9777  151.2118 H   0  0  0  0  0  0  0  0  0  0  0  0
  198.0968  185.9580  148.9999 H   0  0  0  0  0  0  0  0  0  0  0  0
  197.4075  183.5716  148.8661 H   0  0  0  0  0  0  0  0  0  0  0  0
  197.2269  182.2144  150.9148 H   0  0  0  0  0  0  0  0  0  0  0  0
  1  2  2  0
  2  3  1  0
  2  6  1  0
  3  4  1  0
  3 22  1  0
  4  5  1  0
  4 21  2  0
  5  6  1  0
  5 18  2  0
  6  7  1  0
  7  8  1  0
  7 28  1  6
  7 29  1  0
  8  9  1  0
  8 13  2  0
  9 10  2  0
  9 30  1  0
 10 11  1  0
 10 14  1  0
 11 12  2  0
 11 31  1  0
 12 13  1  0
 12 32  1  0
 13 33  1  0
 14 15  1  0
 14 34  1  1
 14 35  1  0
 15 16  1  0
 15 17  1  0
 16 36  1  1
 16 37  1  0
 16 38  1  0
 17 39  1  1
 17 40  1  0
 17 41  1  0
 18 19  1  0
 18 42  1  0
 19 20  2  0
 19 43  1  0
 20 21  1  0
 20 44  1  0
 21 45  1  0
 22 23  2  0
 22 27  1  0
 23 24  1  0
 23 46  1  0
 24 25  2  0
 24 47  1  0
 25 26  1  0
 25 48  1  0
 26 27  2  0
 26 49  1  0
 27 50  1  0
M  END
>  <s_epik_cmdline>  (1331) 
J2VwaWtfcHl0aG9uJywgJy1waCcsICc3LjAwMDAwMCcsICctcGh0JywgJzIuMDAwMDAwJywgJy1tcycsICcxNicsICctdG4nLCAnOCcsICctbWEnLCAnMjAwJywgJy1pbWFlJywgJzxpbmZpbGUubWFlPicsICctb21hZScsICc8b3V0ZmlsZS5tYWU+Jw==

>  <s_epik_input>  (1331) 
W2NIXTFbY0hdW2NIXVtjSF1bY0hdYzEtbjJjKD1PKW4oYyhjMjMpW2NIXVtjSF1bY0hdW2NIXTMpW0NIMl1jNFtjSF1jKFtjSF1bY0hdW2NIXTQpW0NIMl1OKFtDSDNdKVtDSDNd

>  <s_i_glide_gridfile>  (1331) 
ATP-Grid

>  <s_lp_Force_Field>  (1331) 
OPLS_2005

>  <s_lp_Variant>  (1331) 
m_34bea____17833588____18339488-2

>  <s_lp_label>  (1331) 
1602_sdstereoexpander_1_neutralizer_1_epik_2_stereoizer_1

>  <s_m_source_file>  (1331) 
ATP-VSW-LIGPREP-001-in.maegz

>  <s_sd_BIOSOLVEIT.INFINISEE\_QUERY\_NAME>  (1331) 
Ref-Lig

>  <s_sd_BIOSOLVEIT.INFINISEE\_QUERY\_SMILES>  (1331) 
S(c1nc2c(cc1C[NH2+]Cc3ccc(cc3)C[NH+](C)C)cccc2)Cc4ccccc4

>  <s_sd_BIOSOLVEIT.INFINISEE\_REACTION\_NAME>  (1331) 
m_34bea

>  <s_sd_BIOSOLVEIT.INFINISEE\_REAGENT1\_SMILES>  (1331) 
[R1*]N1c2c(N(c3ccccc3)C1=O)cccc2

>  <s_sd_BIOSOLVEIT.INFINISEE\_REAGENT2\_SMILES>  (1331) 
[R1*]Cc1cc(ccc1)CN(C)C

>  <s_sd_BIOSOLVEIT.INFINISEE\_SPACE>  (1331) 
REALSpace_44bn_2023-08

>  <s_vsw_compound_code>  (1331) 
51233

>  <s_vsw_variant>  (1331) 
51233-2

>  <r_epik_Charging_Adjusted_Penalty>  (1331) 
1.49909722415808

>  <r_epik_Ionization_Penalty>  (1331) 
1.4991000000000001

>  <r_epik_Ionization_Penalty_Charging>  (1331) 
0

>  <r_epik_Ionization_Penalty_Neutral>  (1331) 
1.4991000000000001

>  <r_epik_State_Penalty>  (1331) 
1.4991000000000001

>  <r_i_docking_score>  (1331) 
-2.35641003399288

>  <r_i_glide_ecoul>  (1331) 
-2.5733051300048801

>  <r_i_glide_eff_state_penalty>  (1331) 
1.4991000000000001

>  <r_i_glide_einternal>  (1331) 
1.79665184020996

>  <r_i_glide_emodel>  (1331) 
-38.4185754711798

>  <r_i_glide_energy>  (1331) 
-31.609992980956999

>  <r_i_glide_erotb>  (1331) 
0.59933686929418395

>  <r_i_glide_esite>  (1331) 
-0.075847307125754895

>  <r_i_glide_evdw>  (1331) 
-29.036687850952099

>  <r_i_glide_gscore>  (1331) 
-3.8555100339928798

>  <r_i_glide_hbond>  (1331) 
0

>  <r_i_glide_ligand_efficiency>  (1331) 
-0.087274445703440104

>  <r_i_glide_ligand_efficiency_ln>  (1331) 
-0.54853340745796098

>  <r_i_glide_ligand_efficiency_sa>  (1331) 
-0.261823336822678

>  <r_i_glide_lipo>  (1331) 
-1.56922547956752

>  <r_i_glide_metal>  (1331) 
-0

>  <r_i_glide_rewards>  (1331) 
-0.97194395454545301

>  <r_lp_Energy>  (1331) 
60.269983000000003

>  <r_qp_ACxDN^.5/SA>  (1331) 
0

>  <r_qp_CIQPlogS>  (1331) 
-5.0190000000000001

>  <r_qp_EA(eV)>  (1331) 
0.14000000000000001

>  <r_qp_FISA>  (1331) 
36.683999999999997

>  <r_qp_FOSA>  (1331) 
210.40199999999999

>  <r_qp_IP(eV)>  (1331) 
8.5139999999999993

>  <r_qp_Jm>  (1331) 
0.0113604339695179

>  <r_qp_PISA>  (1331) 
433.601

>  <r_qp_PSA>  (1331) 
36.746000000000002

>  <r_qp_PercentHumanOralAbsorption>  (1331) 
100

>  <r_qp_QPPCaco>  (1331) 
1108.9780000000001

>  <r_qp_QPPMDCK>  (1331) 
612.04899999999998

>  <r_qp_QPlogBB>  (1331) 
0.34399999999999997

>  <r_qp_QPlogHERG>  (1331) 
-7.4690000000000003

>  <r_qp_QPlogKhsa>  (1331) 
0.88400000000000001

>  <r_qp_QPlogKp>  (1331) 
-2.347

>  <r_qp_QPlogPC16>  (1331) 
12.77

>  <r_qp_QPlogPo/w>  (1331) 
4.9530000000000003

>  <r_qp_QPlogPoct>  (1331) 
16.608000000000001

>  <r_qp_QPlogPw>  (1331) 
7.6139999999999999

>  <r_qp_QPlogS>  (1331) 
-5.1509999999999998

>  <r_qp_QPpolrz>  (1331) 
43.753

>  <r_qp_SASA>  (1331) 
680.68700000000001

>  <r_qp_SAamideO>  (1331) 
0

>  <r_qp_SAfluorine>  (1331) 
0

>  <r_qp_WPSA>  (1331) 
0

>  <r_qp_accptHB>  (1331) 
4

>  <r_qp_dip^2/V>  (1331) 
0.0119551

>  <r_qp_dipole>  (1331) 
3.7999999999999998

>  <r_qp_donorHB>  (1331) 
0

>  <r_qp_glob>  (1331) 
0.80575649999999999

>  <r_qp_mol_MW>  (1331) 
357.45400000000001

>  <r_qp_volume>  (1331) 
1207.7560000000001

>  <r_sd_BIOSOLVEIT.INFINISEE\_FTREES\_SIMILARITY>  (1331) 
0.90600000000000003

>  <r_sd_BIOSOLVEIT.LOGP>  (1331) 
2.4849999999999999

>  <r_sd_BIOSOLVEIT.MOLECULAR\_WEIGHT>  (1331) 
358.46300000000002

>  <r_sd_BIOSOLVEIT.TPSA>  (1331) 
31.370000000000001

>  <i_epik_Tot_Q>  (1331) 
0

>  <i_epik_Tot_abs_Q>  (1331) 
0

>  <i_f3d_flags>  (1331) 
0

>  <i_i_glide_confnum>  (1331) 
1

>  <i_i_glide_lignum>  (1331) 
428

>  <i_i_glide_posenum>  (1331) 
18

>  <i_i_glide_rotatable_bonds>  (1331) 
5

>  <i_lp_mmshare_version>  (1331) 
65135

>  <i_m_ct_format>  (1331) 
2

>  <i_m_source_file_index>  (1331) 
1602

>  <i_qp_#NandO>  (1331) 
4

>  <i_qp_#acid>  (1331) 
0

>  <i_qp_#amide>  (1331) 
0

>  <i_qp_#amidine>  (1331) 
0

>  <i_qp_#amine>  (1331) 
1

>  <i_qp_#in34>  (1331) 
0

>  <i_qp_#in56>  (1331) 
21

>  <i_qp_#metab>  (1331) 
3

>  <i_qp_#nonHatm>  (1331) 
27

>  <i_qp_#noncon>  (1331) 
0

>  <i_qp_#ringatoms>  (1331) 
21

>  <i_qp_#rotor>  (1331) 
4

>  <i_qp_#rtvFG>  (1331) 
0

>  <i_qp_#stars>  (1331) 
0

>  <i_qp_CNS>  (1331) 
1

>  <i_qp_HumanOralAbsorption>  (1331) 
3

>  <i_qp_RuleOfFive>  (1331) 
0

>  <i_qp_RuleOfThree>  (1331) 
0

>  <i_sd_BIOSOLVEIT.INFINISEE\_REAGENT1\_NAME>  (1331) 
17833588

>  <i_sd_BIOSOLVEIT.INFINISEE\_REAGENT2\_NAME>  (1331) 
18339488

>  <i_sd_BIOSOLVEIT.INFINISEE\_RESULT\_RANK>  (1331) 
65991

>  <i_sd_version>  (1331) 
0

>  <b_lp_Chiralities_Consistent>  (1331) 
1

>  <b_sd_chiral_flag>  (1331) 
0

>  <canonical_id>  (1331) 
ATP-HTVS-D254F911DFD1

>  <compound_code>  (1331) 
51233

>  <title>  (1331) 
m_34bea____17833588____18339488

>  <variant>  (1331) 
51233-2

>  <source_file>  (1331) 
运行/运行/ATP-VSW/ATP-VSW-DOCK_HTVS_1-001_lib/ATP-VSW-DOCK_HTVS_1-001_lib

>  <canonical_smiles>  (1331) 
CN(C)Cc1cccc(Cn2c(=O)n(-c3ccccc3)c3ccccc32)c1

>  <scaffold>  (1331) 
O=c1n(Cc2ccccc2)c2ccccc2n1-c1ccccc1

>  <molecular_formula>  (1331) 
C23H23N3O

$$$$
ATP-HTVS-D2D0A1D4326E
     RDKit          3D

 59 62  0  0  0  0  0  0  0  0999 V2000
  196.7137  181.5200  155.9351 O   0  0  0  0  0  0  0  0  0  0  0  0
  197.6597  182.0274  156.5383 C   0  0  0  0  0  0  0  0  0  0  0  0
  198.9235  181.5531  156.5341 N   0  0  0  0  0  0  0  0  0  0  0  0
  199.3514  180.3182  155.9758 C   0  0  0  0  0  0  0  0  0  0  0  0
  199.9440  179.4087  156.7954 N   0  0  0  0  0  0  0  0  0  0  0  0
  200.3931  178.2377  156.2943 C   0  0  0  0  0  0  0  0  0  0  0  0
  200.3145  177.9478  154.9081 C   0  0  0  0  0  0  0  0  0  0  0  0
  199.7411  178.8978  154.0442 C   0  0  0  0  0  0  0  0  0  0  0  0
  199.2625  180.1120  154.5719 C   0  0  0  0  0  0  0  0  0  0  0  0
  198.7280  181.1150  153.7450 N   0  0  0  0  0  0  0  0  0  0  0  0
  198.3803  180.8664  152.3589 C   0  0  1  0  0  0  0  0  0  0  0  0
  197.2992  179.8703  152.2347 C   0  0  0  0  0  0  0  0  0  0  0  0
  196.4465  179.0954  152.1298 N   0  0  0  0  0  0  0  0  0  0  0  0
  197.9831  182.1584  151.6745 C   0  0  0  0  0  0  0  0  0  0  0  0
  196.6703  182.6627  151.7974 C   0  0  0  0  0  0  0  0  0  0  0  0
  196.3059  183.8412  151.1276 C   0  0  0  0  0  0  0  0  0  0  0  0
  197.2529  184.5437  150.3565 C   0  0  0  0  0  0  0  0  0  0  0  0
  198.5729  184.0635  150.2610 C   0  0  0  0  0  0  0  0  0  0  0  0
  198.9361  182.8727  150.9207 C   0  0  0  0  0  0  0  0  0  0  0  0
  200.8117  176.7419  154.3779 C   0  0  0  0  0  0  0  0  0  0  0  0
  201.3920  175.7869  155.2271 C   0  0  0  0  0  0  0  0  0  0  0  0
  201.4790  176.0510  156.6028 C   0  0  0  0  0  0  0  0  0  0  0  0
  200.9832  177.2627  157.1280 C   0  0  0  0  0  0  0  0  0  0  0  0
  197.4528  183.2771  157.3472 C   0  0  0  0  0  0  0  0  0  0  0  0
  196.4567  183.3507  158.3618 C   0  0  0  0  0  0  0  0  0  0  0  0
  196.3400  184.5409  159.1188 C   0  0  0  0  0  0  0  0  0  0  0  0
  197.1352  185.6644  158.8310 C   0  0  0  0  0  0  0  0  0  0  0  0
  198.1017  185.5965  157.8121 C   0  0  0  0  0  0  0  0  0  0  0  0
  198.2638  184.4039  157.0832 C   0  0  0  0  0  0  0  0  0  0  0  0
  195.5190  182.1818  158.6958 C   0  0  1  0  0  0  0  0  0  0  0  0
  194.1461  182.3197  158.1395 N   0  0  2  0  0  0  0  0  0  0  0  0
  193.3971  183.5072  158.5960 C   0  0  2  0  0  0  0  0  0  0  0  0
  193.3436  181.0849  158.2813 C   0  0  2  0  0  0  0  0  0  0  0  0
  199.5759  182.0028  157.1578 H   0  0  0  0  0  0  0  0  0  0  0  0
  199.7168  178.6840  152.9875 H   0  0  0  0  0  0  0  0  0  0  0  0
  198.1231  181.7736  154.2173 H   0  0  0  0  0  0  0  0  0  0  0  0
  199.2501  180.4760  151.8335 H   0  0  0  0  0  0  0  0  0  0  0  0
  195.9319  182.1605  152.4060 H   0  0  0  0  0  0  0  0  0  0  0  0
  195.2994  184.2164  151.2310 H   0  0  0  0  0  0  0  0  0  0  0  0
  196.9736  185.4579  149.8547 H   0  0  0  0  0  0  0  0  0  0  0  0
  199.3068  184.6057  149.6810 H   0  0  0  0  0  0  0  0  0  0  0  0
  199.9506  182.5044  150.8501 H   0  0  0  0  0  0  0  0  0  0  0  0
  200.7511  176.5410  153.3206 H   0  0  0  0  0  0  0  0  0  0  0  0
  201.7705  174.8610  154.8229 H   0  0  0  0  0  0  0  0  0  0  0  0
  201.9249  175.3128  157.2533 H   0  0  0  0  0  0  0  0  0  0  0  0
  201.0505  177.4432  158.1914 H   0  0  0  0  0  0  0  0  0  0  0  0
  195.6171  184.6158  159.9206 H   0  0  0  0  0  0  0  0  0  0  0  0
  197.0022  186.5768  159.3910 H   0  0  0  0  0  0  0  0  0  0  0  0
  198.7237  186.4570  157.5944 H   0  0  0  0  0  0  0  0  0  0  0  0
  199.0059  184.3619  156.2968 H   0  0  0  0  0  0  0  0  0  0  0  0
  195.9502  181.2302  158.3884 H   0  0  0  0  0  0  0  0  0  0  0  0
  195.4700  182.0944  159.7786 H   0  0  0  0  0  0  0  0  0  0  0  0
  193.3357  183.5504  159.6852 H   0  0  0  0  0  0  0  0  0  0  0  0
  192.3851  183.4768  158.1897 H   0  0  0  0  0  0  0  0  0  0  0  0
  193.8530  184.4370  158.2527 H   0  0  0  0  0  0  0  0  0  0  0  0
  193.1761  180.8402  159.3329 H   0  0  0  0  0  0  0  0  0  0  0  0
  193.8416  180.2451  157.8042 H   0  0  0  0  0  0  0  0  0  0  0  0
  192.3729  181.1962  157.7878 H   0  0  0  0  0  0  0  0  0  0  0  0
  194.2204  182.4503  157.1163 H   0  0  0  0  0  0  0  0  0  0  0  0
  1  2  2  0
  2  3  1  0
  2 24  1  0
  3  4  1  0
  3 34  1  0
  4  5  2  0
  4  9  1  0
  5  6  1  0
  6  7  1  0
  6 23  2  0
  7  8  1  0
  7 20  2  0
  8  9  2  0
  8 35  1  0
  9 10  1  0
 10 11  1  0
 10 36  1  0
 11 12  1  0
 11 14  1  0
 11 37  1  6
 12 13  3  0
 14 15  2  0
 14 19  1  0
 15 16  1  0
 15 38  1  0
 16 17  2  0
 16 39  1  0
 17 18  1  0
 17 40  1  0
 18 19  2  0
 18 41  1  0
 19 42  1  0
 20 21  1  0
 20 43  1  0
 21 22  2  0
 21 44  1  0
 22 23  1  0
 22 45  1  0
 23 46  1  0
 24 25  1  0
 24 29  2  0
 25 26  2  0
 25 30  1  0
 26 27  1  0
 26 47  1  0
 27 28  2  0
 27 48  1  0
 28 29  1  0
 28 49  1  0
 29 50  1  0
 30 31  1  0
 30 51  1  6
 30 52  1  0
 31 32  1  0
 31 33  1  0
 31 59  1  6
 32 53  1  1
 32 54  1  0
 32 55  1  0
 33 56  1  1
 33 57  1  0
 33 58  1  0
M  CHG  1  31   1
M  END
>  <s_epik_cmdline>  (1332) 
J2VwaWtfcHl0aG9uJywgJy1waCcsICc3LjAwMDAwMCcsICctcGh0JywgJzIuMDAwMDAwJywgJy1tcycsICcxNicsICctdG4nLCAnOCcsICctbWEnLCAnMjAwJywgJy1pbWFlJywgJzxpbmZpbGUubWFlPicsICctb21hZScsICc8b3V0ZmlsZS5tYWU+Jw==

>  <s_epik_input>  (1332) 
W2NIXTFbY0hdW2NIXVtjSF1jKFtDSDJdTihbQ0gzXSlbQ0gzXSljMUMoPU8pW05IXWMobjIpYyhbY0hdYyhjMjMpW2NIXVtjSF1bY0hdW2NIXTMpW05IXVtDQEBIXShDI04pYzRbY0hdW2NIXVtjSF1bY0hdW2NIXTQ=

>  <s_i_glide_gridfile>  (1332) 
ATP-Grid

>  <s_lp_Force_Field>  (1332) 
OPLS_2005

>  <s_lp_Variant>  (1332) 
rxn502b____EMOL5415347____EMOL44466703____EMOL44390368-1

>  <s_lp_label>  (1332) 
2287_sdstereoexpander_1_neutralizer_1_epik_1_stereoizer_1

>  <s_m_source_file>  (1332) 
ATP-VSW-LIGPREP-001-in.maegz

>  <s_sd_BIOSOLVEIT.INFINISEE\_QUERY\_NAME>  (1332) 
Ref-Lig

>  <s_sd_BIOSOLVEIT.INFINISEE\_QUERY\_SMILES>  (1332) 
S(c1nc2c(cc1C[NH2+]Cc3ccc(cc3)C[NH+](C)C)cccc2)Cc4ccccc4

>  <s_sd_BIOSOLVEIT.INFINISEE\_REACTION\_NAME>  (1332) 
rxn502b

>  <s_sd_BIOSOLVEIT.INFINISEE\_REAGENT1\_NAME>  (1332) 
EMOL5415347

>  <s_sd_BIOSOLVEIT.INFINISEE\_REAGENT1\_SMILES>  (1332) 
O=C(O)c1c(cccc1)CN(C)C

>  <s_sd_BIOSOLVEIT.INFINISEE\_REAGENT2\_NAME>  (1332) 
EMOL44466703

>  <s_sd_BIOSOLVEIT.INFINISEE\_REAGENT2\_SMILES>  (1332) 
Brc1c(nc2c(c1)cccc2)N

>  <s_sd_BIOSOLVEIT.INFINISEE\_REAGENT3\_NAME>  (1332) 
EMOL44390368

>  <s_sd_BIOSOLVEIT.INFINISEE\_REAGENT3\_SMILES>  (1332) 
N#CC(N)c1ccccc1

>  <s_sd_BIOSOLVEIT.INFINISEE\_SPACE>  (1332) 
eXplore_7tr_2022-12

>  <s_vsw_compound_code>  (1332) 
73153

>  <s_vsw_variant>  (1332) 
73153-1

>  <r_epik_Charging_Adjusted_Penalty>  (1332) 
0.120106230221407

>  <r_epik_Ionization_Penalty>  (1332) 
0.060100000000000001

>  <r_epik_Ionization_Penalty_Charging>  (1332) 
0.060100000000000001

>  <r_epik_Ionization_Penalty_Neutral>  (1332) 
0.0001

>  <r_epik_State_Penalty>  (1332) 
0.060100000000000001

>  <r_i_docking_score>  (1332) 
-3.9284520648310202

>  <r_i_glide_ecoul>  (1332) 
-5.3272962570190403

>  <r_i_glide_eff_state_penalty>  (1332) 
0.060100000000000001

>  <r_i_glide_einternal>  (1332) 
10.344021797180201

>  <r_i_glide_emodel>  (1332) 
-54.672174889032704

>  <r_i_glide_energy>  (1332) 
-44.587260246276898

>  <r_i_glide_erotb>  (1332) 
0.73224968592044304

>  <r_i_glide_esite>  (1332) 
-0.16307268710903899

>  <r_i_glide_evdw>  (1332) 
-39.259963989257798

>  <r_i_glide_gscore>  (1332) 
-3.98855206483102

>  <r_i_glide_hbond>  (1332) 
-0.20000000000000001

>  <r_i_glide_ligand_efficiency>  (1332) 
-0.119044001964576

>  <r_i_glide_ligand_efficiency_ln>  (1332) 
-0.87366739878222299

>  <r_i_glide_ligand_efficiency_sa>  (1332) 
-0.38183772263643601

>  <r_i_glide_lipo>  (1332) 
-1.03247962405927

>  <r_i_glide_metal>  (1332) 
-0

>  <r_i_glide_rewards>  (1332) 
-0.5631568015674

>  <r_lp_Energy>  (1332) 
31.458524000000001

>  <r_qp_ACxDN^.5/SA>  (1332) 
0.014486499999999999

>  <r_qp_CIQPlogS>  (1332) 
-6.1070000000000002

>  <r_qp_EA(eV)>  (1332) 
0.85599999999999998

>  <r_qp_FISA>  (1332) 
100.60299999999999

>  <r_qp_FOSA>  (1332) 
174.291

>  <r_qp_IP(eV)>  (1332) 
8.5280000000000005

>  <r_qp_Jm>  (1332) 
0.00063482238260941697

>  <r_qp_PISA>  (1332) 
506.09100000000001

>  <r_qp_PSA>  (1332) 
81.102000000000004

>  <r_qp_PercentHumanOralAbsorption>  (1332) 
94.858000000000004

>  <r_qp_QPPCaco>  (1332) 
274.65100000000001

>  <r_qp_QPPMDCK>  (1332) 
135.40000000000001

>  <r_qp_QPlogBB>  (1332) 
-0.60499999999999998

>  <r_qp_QPlogHERG>  (1332) 
-8.1319999999999997

>  <r_qp_QPlogKhsa>  (1332) 
0.55000000000000004

>  <r_qp_QPlogKp>  (1332) 
-2.8849999999999998

>  <r_qp_QPlogPC16>  (1332) 
16.341000000000001

>  <r_qp_QPlogPo/w>  (1332) 
4.1440000000000001

>  <r_qp_QPlogPoct>  (1332) 
25.149999999999999

>  <r_qp_QPlogPw>  (1332) 
14.77

>  <r_qp_QPlogS>  (1332) 
-5.9509999999999996

>  <r_qp_QPpolrz>  (1332) 
50.790999999999997

>  <r_qp_SASA>  (1332) 
780.98500000000001

>  <r_qp_SAamideO>  (1332) 
0

>  <r_qp_SAfluorine>  (1332) 
0

>  <r_qp_WPSA>  (1332) 
0

>  <r_qp_accptHB>  (1332) 
8

>  <r_qp_dip^2/V>  (1332) 
0.065003099999999994

>  <r_qp_dipole>  (1332) 
9.6430000000000007

>  <r_qp_donorHB>  (1332) 
2

>  <r_qp_glob>  (1332) 
0.78616730000000001

>  <r_qp_mol_MW>  (1332) 
435.52699999999999

>  <r_qp_volume>  (1332) 
1430.5039999999999

>  <r_sd_BIOSOLVEIT.INFINISEE\_FTREES\_SIMILARITY>  (1332) 
0.92400000000000004

>  <r_sd_BIOSOLVEIT.LOGP>  (1332) 
3.8083800000000001

>  <r_sd_BIOSOLVEIT.MOLECULAR\_WEIGHT>  (1332) 
436.536

>  <r_sd_BIOSOLVEIT.TPSA>  (1332) 
82.25

>  <i_epik_Tot_Q>  (1332) 
1

>  <i_epik_Tot_abs_Q>  (1332) 
1

>  <i_f3d_flags>  (1332) 
0

>  <i_i_glide_confnum>  (1332) 
10

>  <i_i_glide_lignum>  (1332) 
811

>  <i_i_glide_posenum>  (1332) 
5

>  <i_i_glide_rotatable_bonds>  (1332) 
8

>  <i_lp_mmshare_version>  (1332) 
65135

>  <i_m_ct_format>  (1332) 
2

>  <i_m_source_file_index>  (1332) 
2287

>  <i_qp_#NandO>  (1332) 
6

>  <i_qp_#acid>  (1332) 
0

>  <i_qp_#amide>  (1332) 
0

>  <i_qp_#amidine>  (1332) 
0

>  <i_qp_#amine>  (1332) 
1

>  <i_qp_#in34>  (1332) 
0

>  <i_qp_#in56>  (1332) 
22

>  <i_qp_#metab>  (1332) 
6

>  <i_qp_#nonHatm>  (1332) 
33

>  <i_qp_#noncon>  (1332) 
0

>  <i_qp_#ringatoms>  (1332) 
22

>  <i_qp_#rotor>  (1332) 
8

>  <i_qp_#rtvFG>  (1332) 
0

>  <i_qp_#stars>  (1332) 
1

>  <i_qp_CNS>  (1332) 
1

>  <i_qp_HumanOralAbsorption>  (1332) 
3

>  <i_qp_RuleOfFive>  (1332) 
0

>  <i_qp_RuleOfThree>  (1332) 
1

>  <i_sd_BIOSOLVEIT.INFINISEE\_RESULT\_RANK>  (1332) 
10658

>  <i_sd_version>  (1332) 
0

>  <b_lp_Chiralities_Consistent>  (1332) 
1

>  <b_sd_chiral_flag>  (1332) 
0

>  <canonical_id>  (1332) 
ATP-HTVS-D2D0A1D4326E

>  <compound_code>  (1332) 
73153

>  <title>  (1332) 
rxn502b____EMOL5415347____EMOL44466703____EMOL44390368

>  <variant>  (1332) 
73153-1

>  <source_file>  (1332) 
运行/运行/ATP-VSW/ATP-VSW-DOCK_HTVS_1-001_lib/ATP-VSW-DOCK_HTVS_1-001_lib

>  <canonical_smiles>  (1332) 
C[NH+](C)Cc1ccccc1C(=O)Nc1nc2ccccc2cc1N[C@@H](C#N)c1ccccc1

>  <scaffold>  (1332) 
O=C(Nc1nc2ccccc2cc1NCc1ccccc1)c1ccccc1

>  <molecular_formula>  (1332) 
C27H26N5O+

$$$$
ATP-HTVS-D33A0E291F08
     RDKit          3D

 60 63  0  0  0  0  0  0  0  0999 V2000
  192.7558  181.4415  157.7344 O   0  0  0  0  0  0  0  0  0  0  0  0
  193.9341  181.5598  158.4752 C   0  0  1  0  0  0  0  0  0  0  0  0
  194.2213  183.0453  158.7125 C   0  0  1  0  0  0  0  0  0  0  0  0
  195.4233  183.2156  159.5119 N   0  0  0  0  0  0  0  0  0  0  0  0
  196.0521  184.4725  159.4986 C   0  0  0  0  0  0  0  0  0  0  0  0
  197.4534  184.5661  159.3345 C   0  0  0  0  0  0  0  0  0  0  0  0
  198.0786  185.8317  159.2896 C   0  0  0  0  0  0  0  0  0  0  0  0
  197.3116  187.0065  159.4023 C   0  0  0  0  0  0  0  0  0  0  0  0
  195.9200  186.9173  159.5745 C   0  0  0  0  0  0  0  0  0  0  0  0
  195.2927  185.6561  159.6245 C   0  0  0  0  0  0  0  0  0  0  0  0
  198.2960  183.3118  159.1704 C   0  0  1  0  0  0  0  0  0  0  0  0
  197.9614  182.6029  157.9165 N   0  0  1  0  0  0  0  0  0  0  0  0
  198.3064  183.3288  156.6841 C   0  0  1  0  0  0  0  0  0  0  0  0
  198.5300  182.3530  155.5696 C   0  0  0  0  0  0  0  0  0  0  0  0
  199.6691  181.5238  155.3708 C   0  0  0  0  0  0  0  0  0  0  0  0
  199.5637  180.7907  154.2756 N   0  0  0  0  0  0  0  0  0  0  0  0
  198.3611  181.1038  153.7388 N   0  0  0  0  0  0  0  0  0  0  0  0
  197.9230  180.4936  152.5290 C   0  0  0  0  0  0  0  0  0  0  0  0
  198.7923  179.6733  151.7668 C   0  0  0  0  0  0  0  0  0  0  0  0
  198.3465  179.0732  150.5714 C   0  0  0  0  0  0  0  0  0  0  0  0
  197.0311  179.2884  150.1226 C   0  0  0  0  0  0  0  0  0  0  0  0
  196.1587  180.0972  150.8732 C   0  0  0  0  0  0  0  0  0  0  0  0
  196.6035  180.7008  152.0652 C   0  0  0  0  0  0  0  0  0  0  0  0
  197.7160  182.0518  154.5153 C   0  0  0  0  0  0  0  0  0  0  0  0
  200.8580  181.4161  156.2178 C   0  0  0  0  0  0  0  0  0  0  0  0
  201.1091  180.2648  157.0057 C   0  0  0  0  0  0  0  0  0  0  0  0
  202.2640  180.2153  157.8151 C   0  0  0  0  0  0  0  0  0  0  0  0
  203.1632  181.2975  157.8489 C   0  0  0  0  0  0  0  0  0  0  0  0
  202.9126  182.4410  157.0698 C   0  0  0  0  0  0  0  0  0  0  0  0
  201.7645  182.4979  156.2572 C   0  0  0  0  0  0  0  0  0  0  0  0
  200.1598  179.0753  156.9985 C   0  0  2  0  0  0  0  0  0  0  0  0
  198.4576  181.7225  157.9183 H   0  0  0  0  0  0  0  0  0  0  0  0
  192.9274  181.8789  156.8867 H   0  0  0  0  0  0  0  0  0  0  0  0
  193.8327  181.0173  159.4057 H   0  0  0  0  0  0  0  0  0  0  0  0
  194.7384  181.1011  157.9036 H   0  0  0  0  0  0  0  0  0  0  0  0
  194.3486  183.5517  157.7545 H   0  0  0  0  0  0  0  0  0  0  0  0
  193.3813  183.5197  159.2174 H   0  0  0  0  0  0  0  0  0  0  0  0
  195.9606  182.3742  159.6966 H   0  0  0  0  0  0  0  0  0  0  0  0
  199.1505  185.9140  159.1592 H   0  0  0  0  0  0  0  0  0  0  0  0
  197.7871  187.9764  159.3470 H   0  0  0  0  0  0  0  0  0  0  0  0
  195.3360  187.8212  159.6514 H   0  0  0  0  0  0  0  0  0  0  0  0
  194.2220  185.6087  159.7535 H   0  0  0  0  0  0  0  0  0  0  0  0
  199.3610  183.5494  159.1884 H   0  0  0  0  0  0  0  0  0  0  0  0
  198.1050  182.6602  160.0231 H   0  0  0  0  0  0  0  0  0  0  0  0
  197.4928  184.0229  156.4622 H   0  0  0  0  0  0  0  0  0  0  0  0
  199.1988  183.9339  156.8347 H   0  0  0  0  0  0  0  0  0  0  0  0
  199.8096  179.4980  152.0879 H   0  0  0  0  0  0  0  0  0  0  0  0
  199.0144  178.4498  149.9976 H   0  0  0  0  0  0  0  0  0  0  0  0
  196.6894  178.8299  149.2060 H   0  0  0  0  0  0  0  0  0  0  0  0
  195.1483  180.2572  150.5357 H   0  0  0  0  0  0  0  0  0  0  0  0
  195.9155  181.3199  152.6183 H   0  0  0  0  0  0  0  0  0  0  0  0
  196.7436  182.4518  154.2675 H   0  0  0  0  0  0  0  0  0  0  0  0
  202.4728  179.3367  158.4081 H   0  0  0  0  0  0  0  0  0  0  0  0
  204.0465  181.2417  158.4679 H   0  0  0  0  0  0  0  0  0  0  0  0
  203.6067  183.2694  157.0904 H   0  0  0  0  0  0  0  0  0  0  0  0
  201.5845  183.3746  155.6528 H   0  0  0  0  0  0  0  0  0  0  0  0
  200.3409  178.4164  157.8487 H   0  0  0  0  0  0  0  0  0  0  0  0
  200.2898  178.4922  156.0861 H   0  0  0  0  0  0  0  0  0  0  0  0
  199.1191  179.3967  157.0531 H   0  0  0  0  0  0  0  0  0  0  0  0
  196.9701  182.3965  157.8970 H   0  0  0  0  0  0  0  0  0  0  0  0
  1  2  1  0
  1 33  1  0
  2  3  1  0
  2 34  1  1
  2 35  1  0
  3  4  1  0
  3 36  1  6
  3 37  1  0
  4  5  1  0
  4 38  1  0
  5  6  1  0
  5 10  2  0
  6  7  2  0
  6 11  1  0
  7  8  1  0
  7 39  1  0
  8  9  2  0
  8 40  1  0
  9 10  1  0
  9 41  1  0
 10 42  1  0
 11 12  1  0
 11 43  1  6
 11 44  1  0
 12 13  1  0
 12 32  1  1
 12 60  1  0
 13 14  1  0
 13 45  1  6
 13 46  1  0
 14 15  1  0
 14 24  2  0
 15 16  2  0
 15 25  1  0
 16 17  1  0
 17 18  1  0
 17 24  1  0
 18 19  2  0
 18 23  1  0
 19 20  1  0
 19 47  1  0
 20 21  2  0
 20 48  1  0
 21 22  1  0
 21 49  1  0
 22 23  2  0
 22 50  1  0
 23 51  1  0
 24 52  1  0
 25 26  1  0
 25 30  2  0
 26 27  2  0
 26 31  1  0
 27 28  1  0
 27 53  1  0
 28 29  2  0
 28 54  1  0
 29 30  1  0
 29 55  1  0
 30 56  1  0
 31 57  1  1
 31 58  1  0
 31 59  1  0
M  CHG  1  12   1
M  END
>  <s_epik_cmdline>  (1333) 
J2VwaWtfcHl0aG9uJywgJy1waCcsICc3LjAwMDAwMCcsICctcGh0JywgJzIuMDAwMDAwJywgJy1tcycsICcxNicsICctdG4nLCAnOCcsICctbWEnLCAnMjAwJywgJy1pbWFlJywgJzxpbmZpbGUubWFlPicsICctb21hZScsICc8b3V0ZmlsZS5tYWU+Jw==

>  <s_epik_input>  (1333) 
W09IXVtDSDJdW0NIMl1bTkhdYzFjKFtjSF1bY0hdW2NIXVtjSF0xKVtDSDJdW05IXVtDSDJdYzJjKC1jM2MoW0NIM10pW2NIXVtjSF1bY0hdW2NIXTMpbm4oW2NIXTIpLWM0W2NIXVtjSF1bY0hdW2NIXVtjSF00

>  <s_i_glide_gridfile>  (1333) 
ATP-Grid

>  <s_lp_Force_Field>  (1333) 
OPLS_2005

>  <s_lp_Variant>  (1333) 
m_270004bbb____25289968____7547578-1

>  <s_lp_label>  (1333) 
740_sdstereoexpander_1_neutralizer_1_epik_1_stereoizer_1

>  <s_m_source_file>  (1333) 
ATP-VSW-LIGPREP-003-in.maegz

>  <s_sd_BIOSOLVEIT.INFINISEE\_QUERY\_NAME>  (1333) 
Ref-Lig

>  <s_sd_BIOSOLVEIT.INFINISEE\_QUERY\_SMILES>  (1333) 
S(c1nc2c(cc1C[NH2+]Cc3ccc(cc3)C[NH+](C)C)cccc2)Cc4ccccc4

>  <s_sd_BIOSOLVEIT.INFINISEE\_REACTION\_NAME>  (1333) 
m_270004bbb

>  <s_sd_BIOSOLVEIT.INFINISEE\_REAGENT1\_SMILES>  (1333) 
[R1*]NCc1c(NCCO)cccc1

>  <s_sd_BIOSOLVEIT.INFINISEE\_REAGENT2\_SMILES>  (1333) 
[R1*]CC=1C(=NN(c2ccccc2)C1)c3c(cccc3)C

>  <s_sd_BIOSOLVEIT.INFINISEE\_SPACE>  (1333) 
REALSpace_44bn_2023-08

>  <s_vsw_compound_code>  (1333) 
23651

>  <s_vsw_variant>  (1333) 
23651-1

>  <r_epik_Charging_Adjusted_Penalty>  (1333) 
0.099611185880856795

>  <r_epik_Ionization_Penalty>  (1333) 
0.076399999999999996

>  <r_epik_Ionization_Penalty_Charging>  (1333) 
0.076399999999999996

>  <r_epik_Ionization_Penalty_Neutral>  (1333) 
0

>  <r_epik_State_Penalty>  (1333) 
0.023199999999999998

>  <r_i_docking_score>  (1333) 
-5.0280859515510601

>  <r_i_glide_ecoul>  (1333) 
-11.462273597717299

>  <r_i_glide_eff_state_penalty>  (1333) 
0.023199999999999998

>  <r_i_glide_einternal>  (1333) 
3.8394930362701398

>  <r_i_glide_emodel>  (1333) 
-63.869978818122398

>  <r_i_glide_energy>  (1333) 
-45.126770973205602

>  <r_i_glide_erotb>  (1333) 
1.03830971530893

>  <r_i_glide_esite>  (1333) 
-0.0268174587677667

>  <r_i_glide_evdw>  (1333) 
-33.664497375488303

>  <r_i_glide_gscore>  (1333) 
-5.0512859515510602

>  <r_i_glide_hbond>  (1333) 
-0.16

>  <r_i_glide_ligand_efficiency>  (1333) 
-0.16219632101777601

>  <r_i_glide_ligand_efficiency_ln>  (1333) 
-1.13398747440339

>  <r_i_glide_ligand_efficiency_sa>  (1333) 
-0.50952038415107603

>  <r_i_glide_lipo>  (1333) 
-1.6856758905693101

>  <r_i_glide_metal>  (1333) 
-0

>  <r_i_glide_rewards>  (1333) 
-0.81453640909090697

>  <r_lp_Energy>  (1333) 
22.091252999999998

>  <r_lp_tautomer_probability>  (1333) 
1

>  <r_qp_ACxDN^.5/SA>  (1333) 
0.0123556

>  <r_qp_CIQPlogS>  (1333) 
-5.6699999999999999

>  <r_qp_EA(eV)>  (1333) 
0.57199999999999995

>  <r_qp_FISA>  (1333) 
48.905000000000001

>  <r_qp_FOSA>  (1333) 
185.44800000000001

>  <r_qp_IP(eV)>  (1333) 
8.1029999999999998

>  <r_qp_Jm>  (1333) 
0.066978716200212604

>  <r_qp_PISA>  (1333) 
494.601

>  <r_qp_PSA>  (1333) 
59.787999999999997

>  <r_qp_PercentHumanOralAbsorption>  (1333) 
100

>  <r_qp_QPPCaco>  (1333) 
849.25199999999995

>  <r_qp_QPPMDCK>  (1333) 
458.69799999999998

>  <r_qp_QPlogBB>  (1333) 
-0.014

>  <r_qp_QPlogHERG>  (1333) 
-7.6479999999999997

>  <r_qp_QPlogKhsa>  (1333) 
0.80500000000000005

>  <r_qp_QPlogKp>  (1333) 
-1.9730000000000001

>  <r_qp_QPlogPC16>  (1333) 
15.333

>  <r_qp_QPlogPo/w>  (1333) 
4.9699999999999998

>  <r_qp_QPlogPoct>  (1333) 
23.088999999999999

>  <r_qp_QPlogPw>  (1333) 
12.922000000000001

>  <r_qp_QPlogS>  (1333) 
-4.8170000000000002

>  <r_qp_QPpolrz>  (1333) 
47.689999999999998

>  <r_qp_SASA>  (1333) 
728.95399999999995

>  <r_qp_SAamideO>  (1333) 
0

>  <r_qp_SAfluorine>  (1333) 
0

>  <r_qp_WPSA>  (1333) 
0

>  <r_qp_accptHB>  (1333) 
5.2000000000000002

>  <r_qp_dip^2/V>  (1333) 
0.011024900000000001

>  <r_qp_dipole>  (1333) 
3.8660000000000001

>  <r_qp_donorHB>  (1333) 
3

>  <r_qp_glob>  (1333) 
0.81268419999999997

>  <r_qp_mol_MW>  (1333) 
412.53300000000002

>  <r_qp_volume>  (1333) 
1355.7670000000001

>  <r_sd_BIOSOLVEIT.INFINISEE\_FTREES\_SIMILARITY>  (1333) 
0.92700000000000005

>  <r_sd_BIOSOLVEIT.LOGP>  (1333) 
3.51552

>  <r_sd_BIOSOLVEIT.MOLECULAR\_WEIGHT>  (1333) 
413.54199999999997

>  <r_sd_BIOSOLVEIT.TPSA>  (1333) 
66.689999999999998

>  <i_epik_Tot_Q>  (1333) 
1

>  <i_epik_Tot_abs_Q>  (1333) 
1

>  <i_f3d_flags>  (1333) 
0

>  <i_i_glide_confnum>  (1333) 
9

>  <i_i_glide_lignum>  (1333) 
316

>  <i_i_glide_posenum>  (1333) 
2

>  <i_i_glide_rotatable_bonds>  (1333) 
10

>  <i_lp_mmshare_version>  (1333) 
65135

>  <i_m_ct_format>  (1333) 
2

>  <i_m_source_file_index>  (1333) 
740

>  <i_qp_#NandO>  (1333) 
5

>  <i_qp_#acid>  (1333) 
0

>  <i_qp_#amide>  (1333) 
0

>  <i_qp_#amidine>  (1333) 
0

>  <i_qp_#amine>  (1333) 
1

>  <i_qp_#in34>  (1333) 
0

>  <i_qp_#in56>  (1333) 
23

>  <i_qp_#metab>  (1333) 
8

>  <i_qp_#nonHatm>  (1333) 
31

>  <i_qp_#noncon>  (1333) 
0

>  <i_qp_#ringatoms>  (1333) 
23

>  <i_qp_#rotor>  (1333) 
8

>  <i_qp_#rtvFG>  (1333) 
0

>  <i_qp_#stars>  (1333) 
1

>  <i_qp_CNS>  (1333) 
0

>  <i_qp_HumanOralAbsorption>  (1333) 
3

>  <i_qp_RuleOfFive>  (1333) 
0

>  <i_qp_RuleOfThree>  (1333) 
1

>  <i_sd_BIOSOLVEIT.INFINISEE\_REAGENT1\_NAME>  (1333) 
25289968

>  <i_sd_BIOSOLVEIT.INFINISEE\_REAGENT2\_NAME>  (1333) 
7547578

>  <i_sd_BIOSOLVEIT.INFINISEE\_RESULT\_RANK>  (1333) 
7126

>  <i_sd_version>  (1333) 
0

>  <b_lp_Chiralities_Consistent>  (1333) 
1

>  <b_sd_chiral_flag>  (1333) 
0

>  <canonical_id>  (1333) 
ATP-HTVS-D33A0E291F08

>  <compound_code>  (1333) 
23651

>  <title>  (1333) 
m_270004bbb____25289968____7547578

>  <variant>  (1333) 
23651-1

>  <source_file>  (1333) 
运行/运行/ATP-VSW/ATP-VSW-DOCK_HTVS_1-003_lib/ATP-VSW-DOCK_HTVS_1-003_lib.mae

>  <canonical_smiles>  (1333) 
Cc1ccccc1-c1nn(-c2ccccc2)cc1C[NH2+]Cc1ccccc1NCCO

>  <scaffold>  (1333) 
c1ccc(C[NH2+]Cc2cn(-c3ccccc3)nc2-c2ccccc2)cc1

>  <molecular_formula>  (1333) 
C26H29N4O+

$$$$
ATP-HTVS-D35090C63096
     RDKit          3D

 55 58  0  0  0  0  0  0  0  0999 V2000
  197.0919  183.3086  156.0647 O   0  0  0  0  0  0  0  0  0  0  0  0
  197.0354  182.1838  156.5632 C   0  0  0  0  0  0  0  0  0  0  0  0
  197.1334  181.0477  155.8549 N   0  0  0  0  0  0  0  0  0  0  0  0
  197.2087  180.9138  154.4350 C   0  0  0  0  0  0  0  0  0  0  0  0
  197.8929  179.8187  153.8486 C   0  0  0  0  0  0  0  0  0  0  0  0
  198.5850  178.8578  154.7110 C   0  0  0  0  0  0  0  0  0  0  0  0
  199.1508  178.0737  155.4573 C   0  0  0  0  0  0  0  0  0  0  0  0
  199.8252  177.0710  156.2944 C   0  0  1  0  0  0  0  0  0  0  0  0
  201.2711  177.1517  156.1416 N   0  0  0  0  0  0  0  0  0  0  0  0
  201.8975  175.8349  156.1178 C   0  0  1  0  0  0  0  0  0  0  0  0
  201.6569  175.0400  154.8352 C   0  0  0  0  0  0  0  0  0  0  0  0
  201.9439  173.6574  154.8153 C   0  0  0  0  0  0  0  0  0  0  0  0
  201.6982  172.8939  153.6556 C   0  0  0  0  0  0  0  0  0  0  0  0
  201.1819  173.5093  152.4980 C   0  0  0  0  0  0  0  0  0  0  0  0
  200.9130  174.8893  152.5030 C   0  0  0  0  0  0  0  0  0  0  0  0
  201.1631  175.6529  153.6571 C   0  0  0  0  0  0  0  0  0  0  0  0
  197.8887  179.6938  152.4272 C   0  0  0  0  0  0  0  0  0  0  0  0
  197.1922  180.6720  151.6620 C   0  0  0  0  0  0  0  0  0  0  0  0
  196.5402  181.7035  152.2343 N   0  0  0  0  0  0  0  0  0  0  0  0
  196.5538  181.8212  153.5751 C   0  0  0  0  0  0  0  0  0  0  0  0
  197.1867  180.5674  150.2559 C   0  0  0  0  0  0  0  0  0  0  0  0
  197.8578  179.5212  149.5981 C   0  0  0  0  0  0  0  0  0  0  0  0
  198.5470  178.5551  150.3510 C   0  0  0  0  0  0  0  0  0  0  0  0
  198.5625  178.6411  151.7559 C   0  0  0  0  0  0  0  0  0  0  0  0
  196.9279  182.0224  158.0836 C   0  0  1  0  0  0  0  0  0  0  0  0
  196.1590  183.1632  158.7399 C   0  0  0  0  0  0  0  0  0  0  0  0
  194.7509  183.1246  158.9307 C   0  0  0  0  0  0  0  0  0  0  0  0
  193.9323  181.9810  158.5335 C   0  0  0  0  0  0  0  0  0  0  0  0
  193.2719  181.0757  158.2246 N   0  0  0  0  0  0  0  0  0  0  0  0
  194.1114  184.2352  159.5261 C   0  0  0  0  0  0  0  0  0  0  0  0
  194.8509  185.3582  159.9429 C   0  0  0  0  0  0  0  0  0  0  0  0
  196.2409  185.3898  159.7610 C   0  0  0  0  0  0  0  0  0  0  0  0
  196.8889  184.2952  159.1630 C   0  0  0  0  0  0  0  0  0  0  0  0
  201.6962  177.7557  156.8335 H   0  0  0  0  0  0  0  0  0  0  0  0
  197.1977  180.1932  156.3974 H   0  0  0  0  0  0  0  0  0  0  0  0
  199.5458  177.2014  157.3392 H   0  0  0  0  0  0  0  0  0  0  0  0
  199.4404  176.1096  155.9613 H   0  0  0  0  0  0  0  0  0  0  0  0
  202.9761  175.9685  156.2111 H   0  0  0  0  0  0  0  0  0  0  0  0
  201.5838  175.2572  156.9888 H   0  0  0  0  0  0  0  0  0  0  0  0
  202.3485  173.1708  155.6967 H   0  0  0  0  0  0  0  0  0  0  0  0
  201.9158  171.8380  153.6556 H   0  0  0  0  0  0  0  0  0  0  0  0
  200.9999  172.9294  151.6060 H   0  0  0  0  0  0  0  0  0  0  0  0
  200.5194  175.3726  151.6209 H   0  0  0  0  0  0  0  0  0  0  0  0
  200.9598  176.7143  153.6217 H   0  0  0  0  0  0  0  0  0  0  0  0
  195.9760  182.6457  153.9614 H   0  0  0  0  0  0  0  0  0  0  0  0
  196.6755  181.3193  149.6736 H   0  0  0  0  0  0  0  0  0  0  0  0
  197.8562  179.4626  148.5171 H   0  0  0  0  0  0  0  0  0  0  0  0
  199.0742  177.7534  149.8531 H   0  0  0  0  0  0  0  0  0  0  0  0
  199.1113  177.8898  152.3040 H   0  0  0  0  0  0  0  0  0  0  0  0
  196.4989  181.0601  158.3622 H   0  0  0  0  0  0  0  0  0  0  0  0
  197.9423  182.0333  158.4722 H   0  0  0  0  0  0  0  0  0  0  0  0
  193.0347  184.2331  159.6532 H   0  0  0  0  0  0  0  0  0  0  0  0
  194.3379  186.2017  160.3802 H   0  0  0  0  0  0  0  0  0  0  0  0
  196.8045  186.2653  160.0521 H   0  0  0  0  0  0  0  0  0  0  0  0
  197.9567  184.3384  159.0154 H   0  0  0  0  0  0  0  0  0  0  0  0
  1  2  2  0
  2  3  1  0
  2 25  1  0
  3  4  1  0
  3 35  1  0
  4  5  2  0
  4 20  1  0
  5  6  1  0
  5 17  1  0
  6  7  3  0
  7  8  1  0
  8  9  1  0
  8 36  1  1
  8 37  1  0
  9 10  1  0
  9 34  1  0
 10 11  1  0
 10 38  1  1
 10 39  1  0
 11 12  2  0
 11 16  1  0
 12 13  1  0
 12 40  1  0
 13 14  2  0
 13 41  1  0
 14 15  1  0
 14 42  1  0
 15 16  2  0
 15 43  1  0
 16 44  1  0
 17 18  1  0
 17 24  2  0
 18 19  1  0
 18 21  2  0
 19 20  2  0
 20 45  1  0
 21 22  1  0
 21 46  1  0
 22 23  2  0
 22 47  1  0
 23 24  1  0
 23 48  1  0
 24 49  1  0
 25 26  1  0
 25 50  1  6
 25 51  1  0
 26 27  1  0
 26 33  2  0
 27 28  1  0
 27 30  2  0
 28 29  3  0
 30 31  1  0
 30 52  1  0
 31 32  2  0
 31 53  1  0
 32 33  1  0
 32 54  1  0
 33 55  1  0
M  END
>  <s_epik_cmdline>  (1334) 
J2VwaWtfcHl0aG9uJywgJy1waCcsICc3LjAwMDAwMCcsICctcGh0JywgJzIuMDAwMDAwJywgJy1tcycsICcxNicsICctdG4nLCAnOCcsICctbWEnLCAnMjAwJywgJy1pbWFlJywgJzxpbmZpbGUubWFlPicsICctb21hZScsICc8b3V0ZmlsZS5tYWU+Jw==

>  <s_epik_input>  (1334) 
W2NIXTFbY0hdW2NIXVtjSF1jKEMjTiljMVtDSDJdQyg9TylbTkhdYyhbY0hdbmMoYzIzKVtjSF1bY0hdW2NIXVtjSF0zKWMyQyNDW0NIMl1bTkhdW0NIMl1jNFtjSF1bY0hdW2NIXVtjSF1bY0hdNA==

>  <s_i_glide_gridfile>  (1334) 
ATP-Grid

>  <s_lp_Force_Field>  (1334) 
OPLS_2005

>  <s_lp_Variant>  (1334) 
rxn503b____EMOL3801098____EMOL30488121____EMOL1197208-1

>  <s_lp_label>  (1334) 
2647_sdstereoexpander_1_neutralizer_1_epik_1_stereoizer_1

>  <s_m_source_file>  (1334) 
ATP-VSW-LIGPREP-002-in.maegz

>  <s_sd_BIOSOLVEIT.INFINISEE\_QUERY\_NAME>  (1334) 
Ref-Lig

>  <s_sd_BIOSOLVEIT.INFINISEE\_QUERY\_SMILES>  (1334) 
S(c1nc2c(cc1C[NH2+]Cc3ccc(cc3)C[NH+](C)C)cccc2)Cc4ccccc4

>  <s_sd_BIOSOLVEIT.INFINISEE\_REACTION\_NAME>  (1334) 
rxn503b

>  <s_sd_BIOSOLVEIT.INFINISEE\_REAGENT1\_NAME>  (1334) 
EMOL3801098

>  <s_sd_BIOSOLVEIT.INFINISEE\_REAGENT1\_SMILES>  (1334) 
O=C(O)Cc1c(C#N)cccc1

>  <s_sd_BIOSOLVEIT.INFINISEE\_REAGENT2\_NAME>  (1334) 
EMOL30488121

>  <s_sd_BIOSOLVEIT.INFINISEE\_REAGENT2\_SMILES>  (1334) 
Brc1c(N)cnc2c1cccc2

>  <s_sd_BIOSOLVEIT.INFINISEE\_REAGENT3\_NAME>  (1334) 
EMOL1197208

>  <s_sd_BIOSOLVEIT.INFINISEE\_REAGENT3\_SMILES>  (1334) 
N(CC#C)Cc1ccccc1

>  <s_sd_BIOSOLVEIT.INFINISEE\_SPACE>  (1334) 
eXplore_7tr_2022-12

>  <s_vsw_compound_code>  (1334) 
84674

>  <s_vsw_variant>  (1334) 
84674-1

>  <r_epik_Charging_Adjusted_Penalty>  (1334) 
0.28608794728970499

>  <r_epik_Ionization_Penalty>  (1334) 
0.28670000000000001

>  <r_epik_Ionization_Penalty_Charging>  (1334) 
0

>  <r_epik_Ionization_Penalty_Neutral>  (1334) 
0.28670000000000001

>  <r_epik_State_Penalty>  (1334) 
0.28610000000000002

>  <r_i_docking_score>  (1334) 
-4.31843743575544

>  <r_i_glide_ecoul>  (1334) 
-4.0663990974426296

>  <r_i_glide_eff_state_penalty>  (1334) 
0.28610000000000002

>  <r_i_glide_einternal>  (1334) 
7.5089650154113796

>  <r_i_glide_emodel>  (1334) 
-61.127703824248997

>  <r_i_glide_energy>  (1334) 
-49.8380093574524

>  <r_i_glide_erotb>  (1334) 
0.85821608533087301

>  <r_i_glide_esite>  (1334) 
-0.22112847712442599

>  <r_i_glide_evdw>  (1334) 
-45.771610260009801

>  <r_i_glide_gscore>  (1334) 
-4.6045374357554403

>  <r_i_glide_hbond>  (1334) 
-0.025914613382392201

>  <r_i_glide_ligand_efficiency>  (1334) 
-0.13086174047743801

>  <r_i_glide_ligand_efficiency_ln>  (1334) 
-0.96039812603963204

>  <r_i_glide_ligand_efficiency_sa>  (1334) 
-0.419743524575174

>  <r_i_glide_lipo>  (1334) 
-1.8433096893262499

>  <r_i_glide_metal>  (1334) 
-0

>  <r_i_glide_rewards>  (1334) 
-0.47386036363636203

>  <r_lp_Energy>  (1334) 
29.407381999999998

>  <r_qp_ACxDN^.5/SA>  (1334) 
0.011837200000000001

>  <r_qp_CIQPlogS>  (1334) 
-6.5830000000000002

>  <r_qp_EA(eV)>  (1334) 
1.143

>  <r_qp_FISA>  (1334) 
92.576999999999998

>  <r_qp_FOSA>  (1334) 
98.337999999999994

>  <r_qp_IP(eV)>  (1334) 
8.6189999999999998

>  <r_qp_Jm>  (1334) 
0.0011162750233385901

>  <r_qp_PISA>  (1334) 
585.64999999999998

>  <r_qp_PSA>  (1334) 
82.763999999999996

>  <r_qp_PercentHumanOralAbsorption>  (1334) 
100

>  <r_qp_QPPCaco>  (1334) 
327.25799999999998

>  <r_qp_QPPMDCK>  (1334) 
163.63800000000001

>  <r_qp_QPlogBB>  (1334) 
-0.59199999999999997

>  <r_qp_QPlogHERG>  (1334) 
-8.5950000000000006

>  <r_qp_QPlogKhsa>  (1334) 
0.71799999999999997

>  <r_qp_QPlogKp>  (1334) 
-2.3610000000000002

>  <r_qp_QPlogPC16>  (1334) 
16.629000000000001

>  <r_qp_QPlogPo/w>  (1334) 
4.7359999999999998

>  <r_qp_QPlogPoct>  (1334) 
23.617000000000001

>  <r_qp_QPlogPw>  (1334) 
13.548

>  <r_qp_QPlogS>  (1334) 
-6.2249999999999996

>  <r_qp_QPpolrz>  (1334) 
49.866999999999997

>  <r_qp_SASA>  (1334) 
776.56600000000003

>  <r_qp_SAamideO>  (1334) 
0

>  <r_qp_SAfluorine>  (1334) 
0

>  <r_qp_WPSA>  (1334) 
0

>  <r_qp_accptHB>  (1334) 
6.5

>  <r_qp_dip^2/V>  (1334) 
0.034292999999999997

>  <r_qp_dipole>  (1334) 
6.9400000000000004

>  <r_qp_donorHB>  (1334) 
2

>  <r_qp_glob>  (1334) 
0.78101580000000004

>  <r_qp_mol_MW>  (1334) 
430.50799999999998

>  <r_qp_volume>  (1334) 
1404.461

>  <r_sd_BIOSOLVEIT.INFINISEE\_FTREES\_SIMILARITY>  (1334) 
0.91000000000000003

>  <r_sd_BIOSOLVEIT.LOGP>  (1334) 
3.4027799999999999

>  <r_sd_BIOSOLVEIT.MOLECULAR\_WEIGHT>  (1334) 
431.517

>  <r_sd_BIOSOLVEIT.TPSA>  (1334) 
82.390000000000001

>  <i_epik_Tot_Q>  (1334) 
0

>  <i_epik_Tot_abs_Q>  (1334) 
0

>  <i_f3d_flags>  (1334) 
0

>  <i_i_glide_confnum>  (1334) 
7

>  <i_i_glide_lignum>  (1334) 
1239

>  <i_i_glide_posenum>  (1334) 
1

>  <i_i_glide_rotatable_bonds>  (1334) 
9

>  <i_lp_mmshare_version>  (1334) 
65135

>  <i_m_ct_format>  (1334) 
2

>  <i_m_source_file_index>  (1334) 
2647

>  <i_qp_#NandO>  (1334) 
5

>  <i_qp_#acid>  (1334) 
0

>  <i_qp_#amide>  (1334) 
0

>  <i_qp_#amidine>  (1334) 
0

>  <i_qp_#amine>  (1334) 
1

>  <i_qp_#in34>  (1334) 
0

>  <i_qp_#in56>  (1334) 
22

>  <i_qp_#metab>  (1334) 
5

>  <i_qp_#nonHatm>  (1334) 
33

>  <i_qp_#noncon>  (1334) 
0

>  <i_qp_#ringatoms>  (1334) 
22

>  <i_qp_#rotor>  (1334) 
9

>  <i_qp_#rtvFG>  (1334) 
0

>  <i_qp_#stars>  (1334) 
1

>  <i_qp_CNS>  (1334) 
1

>  <i_qp_HumanOralAbsorption>  (1334) 
1

>  <i_qp_RuleOfFive>  (1334) 
0

>  <i_qp_RuleOfThree>  (1334) 
1

>  <i_sd_BIOSOLVEIT.INFINISEE\_RESULT\_RANK>  (1334) 
46056

>  <i_sd_version>  (1334) 
0

>  <b_lp_Chiralities_Consistent>  (1334) 
1

>  <b_sd_chiral_flag>  (1334) 
0

>  <canonical_id>  (1334) 
ATP-HTVS-D35090C63096

>  <compound_code>  (1334) 
84674

>  <title>  (1334) 
rxn503b____EMOL3801098____EMOL30488121____EMOL1197208

>  <variant>  (1334) 
84674-1

>  <source_file>  (1334) 
运行/运行/ATP-VSW/ATP-VSW-DOCK_HTVS_1-002_lib.maegz

>  <canonical_smiles>  (1334) 
N#Cc1ccccc1CC(=O)Nc1cnc2ccccc2c1C#CCNCc1ccccc1

>  <scaffold>  (1334) 
O=C(Cc1ccccc1)Nc1cnc2ccccc2c1C#CCNCc1ccccc1

>  <molecular_formula>  (1334) 
C28H22N4O

$$$$
ATP-HTVS-D35FD22B1728
     RDKit          3D

 64 67  0  0  0  0  0  0  0  0999 V2000
  196.8345  177.8345  148.0515 O   0  0  0  0  0  0  0  0  0  0  0  0
  197.5815  178.8246  148.0276 C   0  0  0  0  0  0  0  0  0  0  0  0
  198.4199  179.1000  147.0062 O   0  0  0  0  0  0  0  0  0  0  0  0
  198.4836  178.2386  145.8807 C   0  0  2  0  0  0  0  0  0  0  0  0
  197.6320  179.8321  149.1221 C   0  0  0  0  0  0  0  0  0  0  0  0
  198.3504  181.0427  148.9913 C   0  0  0  0  0  0  0  0  0  0  0  0
  198.3554  181.9887  150.0356 C   0  0  0  0  0  0  0  0  0  0  0  0
  197.6611  181.7336  151.2431 C   0  0  0  0  0  0  0  0  0  0  0  0
  196.9352  180.5284  151.3706 C   0  0  0  0  0  0  0  0  0  0  0  0
  196.9193  179.5913  150.3203 C   0  0  0  0  0  0  0  0  0  0  0  0
  197.6774  182.7489  152.3412 C   0  0  0  0  0  0  0  0  0  0  0  0
  197.6097  183.9510  152.0783 O   0  0  0  0  0  0  0  0  0  0  0  0
  197.8755  182.2353  153.5720 N   0  0  0  0  0  0  0  0  0  0  0  0
  197.9681  182.8918  154.8262 C   0  0  0  0  0  0  0  0  0  0  0  0
  197.5405  184.1663  155.0091 N   0  0  0  0  0  0  0  0  0  0  0  0
  197.6142  184.7418  156.2299 C   0  0  0  0  0  0  0  0  0  0  0  0
  198.1442  184.0567  157.3477 C   0  0  0  0  0  0  0  0  0  0  0  0
  198.6088  182.7466  157.1742 C   0  0  0  0  0  0  0  0  0  0  0  0
  198.5164  182.1537  155.9019 C   0  0  0  0  0  0  0  0  0  0  0  0
  198.9966  180.8328  155.6786 N   0  0  0  0  0  0  0  0  0  0  0  0
  199.5220  179.9896  156.7255 C   0  0  1  0  0  0  0  0  0  0  0  0
  199.9623  178.6274  156.1993 C   0  0  0  0  0  0  0  0  0  0  0  0
  199.8340  178.2770  154.8371 C   0  0  0  0  0  0  0  0  0  0  0  0
  200.2543  177.0042  154.3917 C   0  0  0  0  0  0  0  0  0  0  0  0
  200.7705  176.0657  155.3129 C   0  0  0  0  0  0  0  0  0  0  0  0
  200.8565  176.4137  156.6738 C   0  0  0  0  0  0  0  0  0  0  0  0
  200.4802  177.6951  157.1167 C   0  0  0  0  0  0  0  0  0  0  0  0
  201.2725  174.7216  154.8173 C   0  0  1  0  0  0  0  0  0  0  0  0
  202.7540  174.5698  154.8945 N   0  0  2  0  0  0  0  0  0  0  0  0
  203.2514  174.1227  156.2062 C   0  0  2  0  0  0  0  0  0  0  0  0
  203.5011  175.7482  154.3777 C   0  0  2  0  0  0  0  0  0  0  0  0
  198.2294  184.6703  158.6132 C   0  0  0  0  0  0  0  0  0  0  0  0
  197.7639  185.9876  158.7769 C   0  0  0  0  0  0  0  0  0  0  0  0
  197.2227  186.6784  157.6747 C   0  0  0  0  0  0  0  0  0  0  0  0
  197.1490  186.0598  156.4084 C   0  0  0  0  0  0  0  0  0  0  0  0
  199.2274  178.6048  145.1742 H   0  0  0  0  0  0  0  0  0  0  0  0
  197.5224  178.1931  145.3663 H   0  0  0  0  0  0  0  0  0  0  0  0
  198.7696  177.2276  146.1764 H   0  0  0  0  0  0  0  0  0  0  0  0
  198.8911  181.2725  148.0832 H   0  0  0  0  0  0  0  0  0  0  0  0
  198.9015  182.9126  149.9135 H   0  0  0  0  0  0  0  0  0  0  0  0
  196.3751  180.3198  152.2721 H   0  0  0  0  0  0  0  0  0  0  0  0
  196.3485  178.6805  150.4372 H   0  0  0  0  0  0  0  0  0  0  0  0
  198.0141  181.2346  153.5988 H   0  0  0  0  0  0  0  0  0  0  0  0
  199.0325  182.2350  158.0239 H   0  0  0  0  0  0  0  0  0  0  0  0
  198.9622  180.4296  154.7690 H   0  0  0  0  0  0  0  0  0  0  0  0
  200.3810  180.4691  157.1970 H   0  0  0  0  0  0  0  0  0  0  0  0
  198.7617  179.8299  157.4969 H   0  0  0  0  0  0  0  0  0  0  0  0
  199.4149  178.9360  154.0905 H   0  0  0  0  0  0  0  0  0  0  0  0
  200.1536  176.7712  153.3463 H   0  0  0  0  0  0  0  0  0  0  0  0
  201.2228  175.7004  157.4074 H   0  0  0  0  0  0  0  0  0  0  0  0
  200.5826  177.9533  158.1619 H   0  0  0  0  0  0  0  0  0  0  0  0
  200.7588  173.9139  155.3475 H   0  0  0  0  0  0  0  0  0  0  0  0
  200.9795  174.6096  153.7794 H   0  0  0  0  0  0  0  0  0  0  0  0
  203.0666  174.8760  156.9940 H   0  0  0  0  0  0  0  0  0  0  0  0
  204.3199  173.9136  156.1647 H   0  0  0  0  0  0  0  0  0  0  0  0
  202.7557  173.2002  156.5045 H   0  0  0  0  0  0  0  0  0  0  0  0
  203.3445  176.6333  154.9904 H   0  0  0  0  0  0  0  0  0  0  0  0
  203.2043  175.9901  153.3573 H   0  0  0  0  0  0  0  0  0  0  0  0
  204.5768  175.5595  154.3704 H   0  0  0  0  0  0  0  0  0  0  0  0
  198.6447  184.1367  159.4544 H   0  0  0  0  0  0  0  0  0  0  0  0
  197.8266  186.4664  159.7437 H   0  0  0  0  0  0  0  0  0  0  0  0
  196.8624  187.6915  157.7982 H   0  0  0  0  0  0  0  0  0  0  0  0
  196.7417  186.5846  155.5629 H   0  0  0  0  0  0  0  0  0  0  0  0
  202.9645  173.8114  154.2654 H   0  0  0  0  0  0  0  0  0  0  0  0
  1  2  2  0
  2  3  1  0
  2  5  1  0
  3  4  1  0
  4 36  1  6
  4 37  1  0
  4 38  1  0
  5  6  1  0
  5 10  2  0
  6  7  2  0
  6 39  1  0
  7  8  1  0
  7 40  1  0
  8  9  2  0
  8 11  1  0
  9 10  1  0
  9 41  1  0
 10 42  1  0
 11 12  2  0
 11 13  1  0
 13 14  1  0
 13 43  1  0
 14 15  2  0
 14 19  1  0
 15 16  1  0
 16 17  1  0
 16 35  2  0
 17 18  1  0
 17 32  2  0
 18 19  2  0
 18 44  1  0
 19 20  1  0
 20 21  1  0
 20 45  1  0
 21 22  1  0
 21 46  1  1
 21 47  1  0
 22 23  1  0
 22 27  2  0
 23 24  2  0
 23 48  1  0
 24 25  1  0
 24 49  1  0
 25 26  2  0
 25 28  1  0
 26 27  1  0
 26 50  1  0
 27 51  1  0
 28 29  1  0
 28 52  1  1
 28 53  1  0
 29 30  1  0
 29 31  1  0
 29 64  1  6
 30 54  1  1
 30 55  1  0
 30 56  1  0
 31 57  1  1
 31 58  1  0
 31 59  1  0
 32 33  1  0
 32 60  1  0
 33 34  2  0
 33 61  1  0
 34 35  1  0
 34 62  1  0
 35 63  1  0
M  CHG  1  29   1
M  END
>  <s_epik_Chemistry_Notes>  (1335) 
This compound has an ester and may undergo hydrolysis at high or low pH.

>  <s_epik_cmdline>  (1335) 
J2VwaWtfcHl0aG9uJywgJy1waCcsICc3LjAwMDAwMCcsICctcGh0JywgJzIuMDAwMDAwJywgJy1tcycsICcxNicsICctdG4nLCAnOCcsICctbWEnLCAnMjAwJywgJy1pbWFlJywgJzxpbmZpbGUubWFlPicsICctb21hZScsICc8b3V0ZmlsZS5tYWU+Jw==

>  <s_epik_input>  (1335) 
W0NIM11PQyg9TyljMVtjSF1bY0hdYyhbY0hdW2NIXTEpQyg9TylbTkhdYyhuMiljKFtjSF1jKGMyMylbY0hdW2NIXVtjSF1bY0hdMylbTkhdW0NIMl1jNFtjSF1bY0hdYyhbY0hdW2NIXTQpW0NIMl1OKFtDSDNdKVtDSDNd

>  <s_i_glide_gridfile>  (1335) 
ATP-Grid

>  <s_lp_Force_Field>  (1335) 
OPLS_2005

>  <s_lp_Variant>  (1335) 
rxn502b____EMOL497927____EMOL44466703____EMOL50155899-1

>  <s_lp_label>  (1335) 
2413_sdstereoexpander_1_neutralizer_1_epik_1_stereoizer_1

>  <s_m_source_file>  (1335) 
ATP-VSW-LIGPREP-002-in.maegz

>  <s_sd_BIOSOLVEIT.INFINISEE\_QUERY\_NAME>  (1335) 
Ref-Lig

>  <s_sd_BIOSOLVEIT.INFINISEE\_QUERY\_SMILES>  (1335) 
S(c1nc2c(cc1C[NH2+]Cc3ccc(cc3)C[NH+](C)C)cccc2)Cc4ccccc4

>  <s_sd_BIOSOLVEIT.INFINISEE\_REACTION\_NAME>  (1335) 
rxn502b

>  <s_sd_BIOSOLVEIT.INFINISEE\_REAGENT1\_NAME>  (1335) 
EMOL497927

>  <s_sd_BIOSOLVEIT.INFINISEE\_REAGENT1\_SMILES>  (1335) 
O=C(OC)c1ccc(cc1)C(=O)O

>  <s_sd_BIOSOLVEIT.INFINISEE\_REAGENT2\_NAME>  (1335) 
EMOL44466703

>  <s_sd_BIOSOLVEIT.INFINISEE\_REAGENT2\_SMILES>  (1335) 
Brc1c(nc2c(c1)cccc2)N

>  <s_sd_BIOSOLVEIT.INFINISEE\_REAGENT3\_NAME>  (1335) 
EMOL50155899

>  <s_sd_BIOSOLVEIT.INFINISEE\_REAGENT3\_SMILES>  (1335) 
N(Cc1ccc(cc1)CN)(C)C

>  <s_sd_BIOSOLVEIT.INFINISEE\_SPACE>  (1335) 
eXplore_7tr_2022-12

>  <s_vsw_compound_code>  (1335) 
77186

>  <s_vsw_variant>  (1335) 
77186-1

>  <r_epik_Charging_Adjusted_Penalty>  (1335) 
0.078407994868761793

>  <r_epik_Ionization_Penalty>  (1335) 
0.039300000000000002

>  <r_epik_Ionization_Penalty_Charging>  (1335) 
0.039199999999999999

>  <r_epik_Ionization_Penalty_Neutral>  (1335) 
0.0001

>  <r_epik_State_Penalty>  (1335) 
0.039199999999999999

>  <r_i_docking_score>  (1335) 
-3.4324078778176901

>  <r_i_glide_ecoul>  (1335) 
-2.4314918518066402

>  <r_i_glide_eff_state_penalty>  (1335) 
0.039199999999999999

>  <r_i_glide_einternal>  (1335) 
4.1690959930419904

>  <r_i_glide_emodel>  (1335) 
-48.686310342807097

>  <r_i_glide_energy>  (1335) 
-40.018932342529297

>  <r_i_glide_erotb>  (1335) 
0.73288219248227005

>  <r_i_glide_esite>  (1335) 
-0.039421991232096401

>  <r_i_glide_evdw>  (1335) 
-37.587440490722699

>  <r_i_glide_gscore>  (1335) 
-3.4716078778176902

>  <r_i_glide_hbond>  (1335) 
0

>  <r_i_glide_ligand_efficiency>  (1335) 
-0.098068796509076794

>  <r_i_glide_ligand_efficiency_ln>  (1335) 
-0.75348970736945797

>  <r_i_glide_ligand_efficiency_sa>  (1335) 
-0.32078953596140902

>  <r_i_glide_lipo>  (1335) 
-1.60427385925398

>  <r_i_glide_metal>  (1335) 
-0

>  <r_i_glide_rewards>  (1335) 
-0.31669841750675598

>  <r_lp_Energy>  (1335) 
29.840288000000001

>  <r_qp_ACxDN^.5/SA>  (1335) 
0.014197400000000001

>  <r_qp_CIQPlogS>  (1335) 
-5.569

>  <r_qp_EA(eV)>  (1335) 
0.98099999999999998

>  <r_qp_FISA>  (1335) 
116.764

>  <r_qp_FOSA>  (1335) 
285.596

>  <r_qp_IP(eV)>  (1335) 
8.1890000000000001

>  <r_qp_Jm>  (1335) 
0.00023148569148108799

>  <r_qp_PISA>  (1335) 
444.33300000000003

>  <r_qp_PSA>  (1335) 
97.980999999999995

>  <r_qp_PercentHumanOralAbsorption>  (1335) 
94.277000000000001

>  <r_qp_QPPCaco>  (1335) 
192.98699999999999

>  <r_qp_QPPMDCK>  (1335) 
92.463999999999999

>  <r_qp_QPlogBB>  (1335) 
-0.84499999999999997

>  <r_qp_QPlogHERG>  (1335) 
-8.1549999999999994

>  <r_qp_QPlogKhsa>  (1335) 
0.76400000000000001

>  <r_qp_QPlogKp>  (1335) 
-3.4009999999999998

>  <r_qp_QPlogPC16>  (1335) 
17.294

>  <r_qp_QPlogPo/w>  (1335) 
4.5129999999999999

>  <r_qp_QPlogPoct>  (1335) 
26.347999999999999

>  <r_qp_QPlogPw>  (1335) 
15.109999999999999

>  <r_qp_QPlogS>  (1335) 
-5.9059999999999997

>  <r_qp_QPpolrz>  (1335) 
55.167999999999999

>  <r_qp_SASA>  (1335) 
846.69399999999996

>  <r_qp_SAamideO>  (1335) 
0

>  <r_qp_SAfluorine>  (1335) 
0

>  <r_qp_WPSA>  (1335) 
0

>  <r_qp_accptHB>  (1335) 
8.5

>  <r_qp_dip^2/V>  (1335) 
0.026609399999999998

>  <r_qp_dipole>  (1335) 
6.4320000000000004

>  <r_qp_donorHB>  (1335) 
2

>  <r_qp_glob>  (1335) 
0.76651270000000005

>  <r_qp_mol_MW>  (1335) 
468.55399999999997

>  <r_qp_volume>  (1335) 
1554.6079999999999

>  <r_sd_BIOSOLVEIT.INFINISEE\_FTREES\_SIMILARITY>  (1335) 
0.91700000000000004

>  <r_sd_BIOSOLVEIT.LOGP>  (1335) 
3.5303

>  <r_sd_BIOSOLVEIT.MOLECULAR\_WEIGHT>  (1335) 
469.56200000000001

>  <r_sd_BIOSOLVEIT.TPSA>  (1335) 
84.760000000000005

>  <i_epik_Tot_Q>  (1335) 
1

>  <i_epik_Tot_abs_Q>  (1335) 
1

>  <i_f3d_flags>  (1335) 
0

>  <i_i_glide_confnum>  (1335) 
3

>  <i_i_glide_lignum>  (1335) 
1023

>  <i_i_glide_posenum>  (1335) 
3

>  <i_i_glide_rotatable_bonds>  (1335) 
10

>  <i_lp_mmshare_version>  (1335) 
65135

>  <i_m_ct_format>  (1335) 
2

>  <i_m_source_file_index>  (1335) 
2413

>  <i_qp_#NandO>  (1335) 
7

>  <i_qp_#acid>  (1335) 
0

>  <i_qp_#amide>  (1335) 
0

>  <i_qp_#amidine>  (1335) 
0

>  <i_qp_#amine>  (1335) 
1

>  <i_qp_#in34>  (1335) 
0

>  <i_qp_#in56>  (1335) 
22

>  <i_qp_#metab>  (1335) 
5

>  <i_qp_#nonHatm>  (1335) 
35

>  <i_qp_#noncon>  (1335) 
0

>  <i_qp_#ringatoms>  (1335) 
22

>  <i_qp_#rotor>  (1335) 
8

>  <i_qp_#rtvFG>  (1335) 
1

>  <i_qp_#stars>  (1335) 
0

>  <i_qp_CNS>  (1335) 
0

>  <i_qp_HumanOralAbsorption>  (1335) 
3

>  <i_qp_RuleOfFive>  (1335) 
0

>  <i_qp_RuleOfThree>  (1335) 
1

>  <i_sd_BIOSOLVEIT.INFINISEE\_RESULT\_RANK>  (1335) 
21747

>  <i_sd_version>  (1335) 
0

>  <b_lp_Chiralities_Consistent>  (1335) 
1

>  <b_sd_chiral_flag>  (1335) 
0

>  <canonical_id>  (1335) 
ATP-HTVS-D35FD22B1728

>  <compound_code>  (1335) 
77186

>  <title>  (1335) 
rxn502b____EMOL497927____EMOL44466703____EMOL50155899

>  <variant>  (1335) 
77186-1

>  <source_file>  (1335) 
运行/运行/ATP-VSW/ATP-VSW-DOCK_HTVS_1-002_lib.maegz

>  <canonical_smiles>  (1335) 
COC(=O)c1ccc(C(=O)Nc2nc3ccccc3cc2NCc2ccc(C[NH+](C)C)cc2)cc1

>  <scaffold>  (1335) 
O=C(Nc1nc2ccccc2cc1NCc1ccccc1)c1ccccc1

>  <molecular_formula>  (1335) 
C28H29N4O3+

$$$$
ATP-HTVS-D3717771288C
     RDKit          3D

 63 66  0  0  0  0  0  0  0  0999 V2000
  200.8322  183.4064  156.9112 O   0  0  0  0  0  0  0  0  0  0  0  0
  199.8674  182.6503  157.0564 C   0  0  0  0  0  0  0  0  0  0  0  0
  198.6236  182.9944  157.4548 N   0  0  0  0  0  0  0  0  0  0  0  0
  198.1615  184.2765  157.8620 C   0  0  0  0  0  0  0  0  0  0  0  0
  198.9162  185.3701  157.6426 N   0  0  0  0  0  0  0  0  0  0  0  0
  198.4851  186.5768  158.0053 C   0  0  0  0  0  0  0  0  0  0  0  0
  197.2478  186.8150  158.6615 C   0  0  0  0  0  0  0  0  0  0  0  0
  196.8191  188.1067  159.0683 N   0  0  0  0  0  0  0  0  0  0  0  0
  197.4286  189.3657  158.6326 C   0  0  2  0  0  0  0  0  0  0  0  0
  198.9037  189.3947  158.5418 C   0  0  0  0  0  0  0  0  0  0  0  0
  199.7227  188.9612  159.6183 C   0  0  0  0  0  0  0  0  0  0  0  0
  201.1136  188.8600  159.5157 C   0  0  0  0  0  0  0  0  0  0  0  0
  201.7381  189.1579  158.2906 C   0  0  0  0  0  0  0  0  0  0  0  0
  200.9594  189.5786  157.1918 C   0  0  0  0  0  0  0  0  0  0  0  0
  199.5601  189.6887  157.3181 C   0  0  0  0  0  0  0  0  0  0  0  0
  197.1592  190.5575  159.5885 C   0  0  0  0  0  0  0  0  0  0  0  0
  197.1480  191.7304  159.2060 O   0  0  0  0  0  0  0  0  0  0  0  0
  196.9539  190.2563  161.0716 C   0  0  2  0  0  0  0  0  0  0  0  0
  196.4405  185.6644  158.9128 C   0  0  0  0  0  0  0  0  0  0  0  0
  196.8973  184.3809  158.4975 C   0  0  0  0  0  0  0  0  0  0  0  0
  196.0977  183.2394  158.7112 C   0  0  0  0  0  0  0  0  0  0  0  0
  194.8385  183.3666  159.3203 C   0  0  0  0  0  0  0  0  0  0  0  0
  194.3786  184.6256  159.7366 C   0  0  0  0  0  0  0  0  0  0  0  0
  195.1777  185.7710  159.5551 C   0  0  0  0  0  0  0  0  0  0  0  0
  200.0512  181.1806  156.8647 C   0  0  0  0  0  0  0  0  0  0  0  0
  199.0562  180.4046  156.2319 C   0  0  0  0  0  0  0  0  0  0  0  0
  199.2449  179.0206  156.0648 C   0  0  0  0  0  0  0  0  0  0  0  0
  200.4205  178.4021  156.5369 C   0  0  0  0  0  0  0  0  0  0  0  0
  201.4081  179.1787  157.1764 C   0  0  0  0  0  0  0  0  0  0  0  0
  201.2313  180.5638  157.3275 C   0  0  0  0  0  0  0  0  0  0  0  0
  200.6214  176.9052  156.3706 C   0  0  1  0  0  0  0  0  0  0  0  0
  201.9492  176.5718  155.7924 N   0  0  2  0  0  0  0  0  0  0  0  0
  202.1317  177.0710  154.4102 C   0  0  2  0  0  0  0  0  0  0  0  0
  202.2657  175.1318  155.9068 C   0  0  2  0  0  0  0  0  0  0  0  0
  197.9532  182.2449  157.5284 H   0  0  0  0  0  0  0  0  0  0  0  0
  199.2058  187.3122  157.7435 H   0  0  0  0  0  0  0  0  0  0  0  0
  195.9244  188.2120  159.5246 H   0  0  0  0  0  0  0  0  0  0  0  0
  196.9821  189.6145  157.6690 H   0  0  0  0  0  0  0  0  0  0  0  0
  199.2629  188.6753  160.5394 H   0  0  0  0  0  0  0  0  0  0  0  0
  201.6765  188.4738  160.3490 H   0  0  0  0  0  0  0  0  0  0  0  0
  202.7998  189.0138  158.1847 H   0  0  0  0  0  0  0  0  0  0  0  0
  201.4254  189.7325  156.2340 H   0  0  0  0  0  0  0  0  0  0  0  0
  198.9701  189.9592  156.4590 H   0  0  0  0  0  0  0  0  0  0  0  0
  197.4736  189.3393  161.3470 H   0  0  0  0  0  0  0  0  0  0  0  0
  195.8981  190.1206  161.3113 H   0  0  0  0  0  0  0  0  0  0  0  0
  197.3717  191.0574  161.6791 H   0  0  0  0  0  0  0  0  0  0  0  0
  196.4163  182.2542  158.4019 H   0  0  0  0  0  0  0  0  0  0  0  0
  194.2441  182.4730  159.4503 H   0  0  0  0  0  0  0  0  0  0  0  0
  193.4025  184.7127  160.1938 H   0  0  0  0  0  0  0  0  0  0  0  0
  194.7788  186.7184  159.8777 H   0  0  0  0  0  0  0  0  0  0  0  0
  198.1397  180.8582  155.8787 H   0  0  0  0  0  0  0  0  0  0  0  0
  198.4654  178.4385  155.5977 H   0  0  0  0  0  0  0  0  0  0  0  0
  202.3124  178.7294  157.5535 H   0  0  0  0  0  0  0  0  0  0  0  0
  202.0004  181.1495  157.8133 H   0  0  0  0  0  0  0  0  0  0  0  0
  200.5153  176.4445  157.3537 H   0  0  0  0  0  0  0  0  0  0  0  0
  199.8305  176.4836  155.7447 H   0  0  0  0  0  0  0  0  0  0  0  0
  201.4037  176.6247  153.7296 H   0  0  0  0  0  0  0  0  0  0  0  0
  203.1302  176.8304  154.0441 H   0  0  0  0  0  0  0  0  0  0  0  0
  202.0237  178.1552  154.3602 H   0  0  0  0  0  0  0  0  0  0  0  0
  201.5641  174.5252  155.3301 H   0  0  0  0  0  0  0  0  0  0  0  0
  202.2238  174.8086  156.9465 H   0  0  0  0  0  0  0  0  0  0  0  0
  203.2731  174.9263  155.5439 H   0  0  0  0  0  0  0  0  0  0  0  0
  202.6320  177.0556  156.3649 H   0  0  0  0  0  0  0  0  0  0  0  0
  1  2  2  0
  2  3  1  0
  2 25  1  0
  3  4  1  0
  3 35  1  0
  4  5  1  0
  4 20  2  0
  5  6  2  0
  6  7  1  0
  6 36  1  0
  7  8  1  0
  7 19  2  0
  8  9  1  0
  8 37  1  0
  9 10  1  0
  9 16  1  0
  9 38  1  6
 10 11  2  0
 10 15  1  0
 11 12  1  0
 11 39  1  0
 12 13  2  0
 12 40  1  0
 13 14  1  0
 13 41  1  0
 14 15  2  0
 14 42  1  0
 15 43  1  0
 16 17  2  0
 16 18  1  0
 18 44  1  1
 18 45  1  0
 18 46  1  0
 19 20  1  0
 19 24  1  0
 20 21  1  0
 21 22  2  0
 21 47  1  0
 22 23  1  0
 22 48  1  0
 23 24  2  0
 23 49  1  0
 24 50  1  0
 25 26  1  0
 25 30  2  0
 26 27  2  0
 26 51  1  0
 27 28  1  0
 27 52  1  0
 28 29  2  0
 28 31  1  0
 29 30  1  0
 29 53  1  0
 30 54  1  0
 31 32  1  0
 31 55  1  1
 31 56  1  0
 32 33  1  0
 32 34  1  0
 32 63  1  1
 33 57  1  6
 33 58  1  0
 33 59  1  0
 34 60  1  6
 34 61  1  0
 34 62  1  0
M  CHG  1  32   1
M  END
>  <s_epik_cmdline>  (1336) 
J2VwaWtfcHl0aG9uJywgJy1waCcsICc3LjAwMDAwMCcsICctcGh0JywgJzIuMDAwMDAwJywgJy1tcycsICcxNicsICctdG4nLCAnOCcsICctbWEnLCAnMjAwJywgJy1pbWFlJywgJzxpbmZpbGUubWFlPicsICctb21hZScsICc8b3V0ZmlsZS5tYWU+Jw==

>  <s_epik_input>  (1336) 
W0NIM11OKFtDSDNdKVtDSDJdYyhbY0hdW2NIXTEpW2NIXVtjSF1jMUMoPU8pW05IXWMoYyhjMjMpW2NIXVtjSF1bY0hdW2NIXTMpbltjSF1jMltOSF1bQ0BASF0oQyg9TylbQ0gzXSljNFtjSF1bY0hdW2NIXVtjSF1bY0hdNA==

>  <s_i_glide_gridfile>  (1336) 
ATP-Grid

>  <s_lp_Force_Field>  (1336) 
OPLS_2005

>  <s_lp_Variant>  (1336) 
rxn502b____EMOL18624763____EMOL7515103____EMOL725587-1

>  <s_lp_label>  (1336) 
2407_sdstereoexpander_1_neutralizer_1_epik_1_stereoizer_1

>  <s_m_source_file>  (1336) 
ATP-VSW-LIGPREP-001-in.maegz

>  <s_sd_BIOSOLVEIT.INFINISEE\_QUERY\_NAME>  (1336) 
Ref-Lig

>  <s_sd_BIOSOLVEIT.INFINISEE\_QUERY\_SMILES>  (1336) 
S(c1nc2c(cc1C[NH2+]Cc3ccc(cc3)C[NH+](C)C)cccc2)Cc4ccccc4

>  <s_sd_BIOSOLVEIT.INFINISEE\_REACTION\_NAME>  (1336) 
rxn502b

>  <s_sd_BIOSOLVEIT.INFINISEE\_REAGENT1\_NAME>  (1336) 
EMOL18624763

>  <s_sd_BIOSOLVEIT.INFINISEE\_REAGENT1\_SMILES>  (1336) 
O=C(O)c1ccc(cc1)CN(C)C

>  <s_sd_BIOSOLVEIT.INFINISEE\_REAGENT2\_NAME>  (1336) 
EMOL7515103

>  <s_sd_BIOSOLVEIT.INFINISEE\_REAGENT2\_SMILES>  (1336) 
Brc1c2c(c(nc1)N)cccc2

>  <s_sd_BIOSOLVEIT.INFINISEE\_REAGENT3\_NAME>  (1336) 
EMOL725587

>  <s_sd_BIOSOLVEIT.INFINISEE\_REAGENT3\_SMILES>  (1336) 
O=C(C(N)c1ccccc1)C

>  <s_sd_BIOSOLVEIT.INFINISEE\_SPACE>  (1336) 
eXplore_7tr_2022-12

>  <s_vsw_compound_code>  (1336) 
76993

>  <s_vsw_variant>  (1336) 
76993-1

>  <r_epik_Charging_Adjusted_Penalty>  (1336) 
0.10433640840748

>  <r_epik_Ionization_Penalty>  (1336) 
0.052299999999999999

>  <r_epik_Ionization_Penalty_Charging>  (1336) 
0.052200000000000003

>  <r_epik_Ionization_Penalty_Neutral>  (1336) 
0.0001

>  <r_epik_State_Penalty>  (1336) 
0.052200000000000003

>  <r_i_docking_score>  (1336) 
-4.2970203136861

>  <r_i_glide_ecoul>  (1336) 
-7.9091281890869096

>  <r_i_glide_eff_state_penalty>  (1336) 
0.052200000000000003

>  <r_i_glide_einternal>  (1336) 
4.6661605834960902

>  <r_i_glide_emodel>  (1336) 
-54.706984469981599

>  <r_i_glide_energy>  (1336) 
-42.166688919067397

>  <r_i_glide_erotb>  (1336) 
0.68308159863740103

>  <r_i_glide_esite>  (1336) 
-0.018897220133258199

>  <r_i_glide_evdw>  (1336) 
-34.257560729980497

>  <r_i_glide_gscore>  (1336) 
-4.3492203136861001

>  <r_i_glide_hbond>  (1336) 
0

>  <r_i_glide_ligand_efficiency>  (1336) 
-0.126382950402532

>  <r_i_glide_ligand_efficiency_ln>  (1336) 
-0.94933231463052503

>  <r_i_glide_ligand_efficiency_sa>  (1336) 
-0.409431697123043

>  <r_i_glide_lipo>  (1336) 
-1.43060078469305

>  <r_i_glide_metal>  (1336) 
-0

>  <r_i_glide_rewards>  (1336) 
-0.68355664263513105

>  <r_lp_Energy>  (1336) 
36.208137999999998

>  <r_lp_tautomer_probability>  (1336) 
0.99999996999999996

>  <r_qp_ACxDN^.5/SA>  (1336) 
0.014486799999999999

>  <r_qp_CIQPlogS>  (1336) 
-5.2510000000000003

>  <r_qp_EA(eV)>  (1336) 
0.875

>  <r_qp_FISA>  (1336) 
101.346

>  <r_qp_FOSA>  (1336) 
257.56099999999998

>  <r_qp_IP(eV)>  (1336) 
7.7400000000000002

>  <r_qp_Jm>  (1336) 
0.0010440860377279599

>  <r_qp_PISA>  (1336) 
470.86700000000002

>  <r_qp_PSA>  (1336) 
83.858999999999995

>  <r_qp_PercentHumanOralAbsorption>  (1336) 
95.668000000000006

>  <r_qp_QPPCaco>  (1336) 
270.23000000000002

>  <r_qp_QPPMDCK>  (1336) 
133.04599999999999

>  <r_qp_QPlogBB>  (1336) 
-0.67900000000000005

>  <r_qp_QPlogHERG>  (1336) 
-8.3300000000000001

>  <r_qp_QPlogKhsa>  (1336) 
0.61599999999999999

>  <r_qp_QPlogKp>  (1336) 
-3.0230000000000001

>  <r_qp_QPlogPC16>  (1336) 
16.882999999999999

>  <r_qp_QPlogPo/w>  (1336) 
4.3040000000000003

>  <r_qp_QPlogPoct>  (1336) 
25.643999999999998

>  <r_qp_QPlogPw>  (1336) 
15.145

>  <r_qp_QPlogS>  (1336) 
-5.6139999999999999

>  <r_qp_QPpolrz>  (1336) 
53.213000000000001

>  <r_qp_SASA>  (1336) 
829.774

>  <r_qp_SAamideO>  (1336) 
0

>  <r_qp_SAfluorine>  (1336) 
0

>  <r_qp_WPSA>  (1336) 
0

>  <r_qp_accptHB>  (1336) 
8.5

>  <r_qp_dip^2/V>  (1336) 
0.0301896

>  <r_qp_dipole>  (1336) 
6.7279999999999998

>  <r_qp_donorHB>  (1336) 
2

>  <r_qp_glob>  (1336) 
0.76352229999999999

>  <r_qp_mol_MW>  (1336) 
452.55500000000001

>  <r_qp_volume>  (1336) 
1499.4259999999999

>  <r_sd_BIOSOLVEIT.INFINISEE\_FTREES\_SIMILARITY>  (1336) 
0.91800000000000004

>  <r_sd_BIOSOLVEIT.LOGP>  (1336) 
3.8738000000000001

>  <r_sd_BIOSOLVEIT.MOLECULAR\_WEIGHT>  (1336) 
453.56299999999999

>  <r_sd_BIOSOLVEIT.TPSA>  (1336) 
75.530000000000001

>  <i_epik_Tot_Q>  (1336) 
1

>  <i_epik_Tot_abs_Q>  (1336) 
1

>  <i_f3d_flags>  (1336) 
0

>  <i_i_glide_confnum>  (1336) 
6

>  <i_i_glide_lignum>  (1336) 
906

>  <i_i_glide_posenum>  (1336) 
16

>  <i_i_glide_rotatable_bonds>  (1336) 
9

>  <i_lp_mmshare_version>  (1336) 
65135

>  <i_m_ct_format>  (1336) 
2

>  <i_m_source_file_index>  (1336) 
2407

>  <i_qp_#NandO>  (1336) 
6

>  <i_qp_#acid>  (1336) 
0

>  <i_qp_#amide>  (1336) 
0

>  <i_qp_#amidine>  (1336) 
0

>  <i_qp_#amine>  (1336) 
1

>  <i_qp_#in34>  (1336) 
0

>  <i_qp_#in56>  (1336) 
22

>  <i_qp_#metab>  (1336) 
8

>  <i_qp_#nonHatm>  (1336) 
34

>  <i_qp_#noncon>  (1336) 
0

>  <i_qp_#ringatoms>  (1336) 
22

>  <i_qp_#rotor>  (1336) 
8

>  <i_qp_#rtvFG>  (1336) 
1

>  <i_qp_#stars>  (1336) 
2

>  <i_qp_CNS>  (1336) 
1

>  <i_qp_HumanOralAbsorption>  (1336) 
3

>  <i_qp_RuleOfFive>  (1336) 
0

>  <i_qp_RuleOfThree>  (1336) 
1

>  <i_sd_BIOSOLVEIT.INFINISEE\_RESULT\_RANK>  (1336) 
21163

>  <i_sd_version>  (1336) 
0

>  <b_lp_Chiralities_Consistent>  (1336) 
1

>  <b_sd_chiral_flag>  (1336) 
0

>  <canonical_id>  (1336) 
ATP-HTVS-D3717771288C

>  <compound_code>  (1336) 
76993

>  <title>  (1336) 
rxn502b____EMOL18624763____EMOL7515103____EMOL725587

>  <variant>  (1336) 
76993-1

>  <source_file>  (1336) 
运行/运行/ATP-VSW/ATP-VSW-DOCK_HTVS_1-001_lib/ATP-VSW-DOCK_HTVS_1-001_lib

>  <canonical_smiles>  (1336) 
CC(=O)[C@H](Nc1cnc(NC(=O)c2ccc(C[NH+](C)C)cc2)c2ccccc12)c1ccccc1

>  <scaffold>  (1336) 
O=C(Nc1ncc(NCc2ccccc2)c2ccccc12)c1ccccc1

>  <molecular_formula>  (1336) 
C28H29N4O2+

$$$$
ATP-HTVS-D38DE888E88F
     RDKit          3D

 59 62  0  0  0  0  0  0  0  0999 V2000
  196.3446  188.0022  160.7757 F   0  0  0  0  0  0  0  0  0  0  0  0
  195.9808  186.7882  160.3000 C   0  0  0  0  0  0  0  0  0  0  0  0
  196.8496  186.0726  159.4580 C   0  0  0  0  0  0  0  0  0  0  0  0
  196.4750  184.8110  158.9345 C   0  0  0  0  0  0  0  0  0  0  0  0
  195.2117  184.2572  159.2819 C   0  0  0  0  0  0  0  0  0  0  0  0
  194.7969  183.0585  158.8270 N   0  0  0  0  0  0  0  0  0  0  0  0
  195.6106  182.3676  158.0077 C   0  0  0  0  0  0  0  0  0  0  0  0
  196.8725  182.8266  157.5775 C   0  0  0  0  0  0  0  0  0  0  0  0
  197.3272  184.0924  158.0518 C   0  0  0  0  0  0  0  0  0  0  0  0
  198.5428  184.6711  157.6179 N   0  0  0  0  0  0  0  0  0  0  0  0
  199.7954  184.5205  158.2643 C   0  0  0  0  0  0  0  0  0  0  0  0
  199.9003  183.8473  159.5097 C   0  0  0  0  0  0  0  0  0  0  0  0
  201.1433  183.7112  160.1680 C   0  0  0  0  0  0  0  0  0  0  0  0
  202.3100  184.2435  159.5863 C   0  0  0  0  0  0  0  0  0  0  0  0
  202.2285  184.9015  158.3472 C   0  0  0  0  0  0  0  0  0  0  0  0
  200.9856  185.0348  157.6922 C   0  0  0  0  0  0  0  0  0  0  0  0
  198.4269  185.4270  156.3663 C   0  0  1  0  0  0  0  0  0  0  0  0
  197.4808  186.5476  156.4535 C   0  0  0  0  0  0  0  0  0  0  0  0
  196.7399  187.4335  156.5219 N   0  0  0  0  0  0  0  0  0  0  0  0
  197.6902  181.9619  156.6597 C   0  0  0  0  0  0  0  0  0  0  0  0
  198.9006  181.8334  156.8342 O   0  0  0  0  0  0  0  0  0  0  0  0
  196.9986  181.4132  155.6384 N   0  0  0  0  0  0  0  0  0  0  0  0
  197.5121  180.6099  154.5832 C   0  0  0  0  0  0  0  0  0  0  0  0
  196.8227  180.6180  153.3538 C   0  0  0  0  0  0  0  0  0  0  0  0
  197.2916  179.8613  152.2607 C   0  0  0  0  0  0  0  0  0  0  0  0
  198.4752  179.0964  152.3826 C   0  0  0  0  0  0  0  0  0  0  0  0
  199.1688  179.0910  153.6116 C   0  0  0  0  0  0  0  0  0  0  0  0
  198.6700  179.8109  154.7145 C   0  0  0  0  0  0  0  0  0  0  0  0
  199.0052  178.2961  151.2013 C   0  0  1  0  0  0  0  0  0  0  0  0
  198.7565  176.8328  151.3311 N   0  0  2  0  0  0  0  0  0  0  0  0
  199.6553  176.1613  152.3113 C   0  0  2  0  0  0  0  0  0  0  0  0
  198.7541  176.1247  150.0359 C   0  0  2  0  0  0  0  0  0  0  0  0
  194.3540  184.9932  160.1195 C   0  0  0  0  0  0  0  0  0  0  0  0
  194.7316  186.2441  160.6392 C   0  0  0  0  0  0  0  0  0  0  0  0
  197.7931  186.5240  159.2082 H   0  0  0  0  0  0  0  0  0  0  0  0
  195.2090  181.4214  157.6687 H   0  0  0  0  0  0  0  0  0  0  0  0
  199.0229  183.4304  159.9791 H   0  0  0  0  0  0  0  0  0  0  0  0
  201.1995  183.2012  161.1224 H   0  0  0  0  0  0  0  0  0  0  0  0
  203.2621  184.1431  160.0896 H   0  0  0  0  0  0  0  0  0  0  0  0
  203.1195  185.3085  157.8959 H   0  0  0  0  0  0  0  0  0  0  0  0
  200.9606  185.5379  156.7307 H   0  0  0  0  0  0  0  0  0  0  0  0
  199.3802  185.8722  156.0541 H   0  0  0  0  0  0  0  0  0  0  0  0
  198.0969  184.7608  155.5664 H   0  0  0  0  0  0  0  0  0  0  0  0
  196.0240  181.6698  155.5667 H   0  0  0  0  0  0  0  0  0  0  0  0
  195.9473  181.2407  153.2406 H   0  0  0  0  0  0  0  0  0  0  0  0
  196.7507  179.9057  151.3239 H   0  0  0  0  0  0  0  0  0  0  0  0
  200.0873  178.5369  153.7314 H   0  0  0  0  0  0  0  0  0  0  0  0
  199.2026  179.7368  155.6499 H   0  0  0  0  0  0  0  0  0  0  0  0
  198.5201  178.6693  150.2965 H   0  0  0  0  0  0  0  0  0  0  0  0
  200.0721  178.4921  151.0685 H   0  0  0  0  0  0  0  0  0  0  0  0
  200.6971  176.2663  152.0026 H   0  0  0  0  0  0  0  0  0  0  0  0
  199.4267  175.0929  152.3795 H   0  0  0  0  0  0  0  0  0  0  0  0
  199.5585  176.5818  153.3184 H   0  0  0  0  0  0  0  0  0  0  0  0
  199.7210  176.2187  149.5374 H   0  0  0  0  0  0  0  0  0  0  0  0
  197.9814  176.5114  149.3687 H   0  0  0  0  0  0  0  0  0  0  0  0
  198.5561  175.0612  150.1817 H   0  0  0  0  0  0  0  0  0  0  0  0
  193.3863  184.5817  160.3698 H   0  0  0  0  0  0  0  0  0  0  0  0
  194.0676  186.7903  161.2903 H   0  0  0  0  0  0  0  0  0  0  0  0
  197.8181  176.7473  151.7008 H   0  0  0  0  0  0  0  0  0  0  0  0
  1  2  1  0
  2  3  1  0
  2 34  2  0
  3  4  2  0
  3 35  1  0
  4  5  1  0
  4  9  1  0
  5  6  1  0
  5 33  2  0
  6  7  2  0
  7  8  1  0
  7 36  1  0
  8  9  2  0
  8 20  1  0
  9 10  1  0
 10 11  1  0
 10 17  1  0
 11 12  2  0
 11 16  1  0
 12 13  1  0
 12 37  1  0
 13 14  2  0
 13 38  1  0
 14 15  1  0
 14 39  1  0
 15 16  2  0
 15 40  1  0
 16 41  1  0
 17 18  1  0
 17 42  1  6
 17 43  1  0
 18 19  3  0
 20 21  2  0
 20 22  1  0
 22 23  1  0
 22 44  1  0
 23 24  1  0
 23 28  2  0
 24 25  2  0
 24 45  1  0
 25 26  1  0
 25 46  1  0
 26 27  2  0
 26 29  1  0
 27 28  1  0
 27 47  1  0
 28 48  1  0
 29 30  1  0
 29 49  1  6
 29 50  1  0
 30 31  1  0
 30 32  1  0
 30 59  1  1
 31 51  1  6
 31 52  1  0
 31 53  1  0
 32 54  1  6
 32 55  1  0
 32 56  1  0
 33 34  1  0
 33 57  1  0
 34 58  1  0
M  CHG  1  30   1
M  END
>  <s_epik_cmdline>  (1337) 
J2VwaWtfcHl0aG9uJywgJy1waCcsICc3LjAwMDAwMCcsICctcGh0JywgJzIuMDAwMDAwJywgJy1tcycsICcxNicsICctdG4nLCAnOCcsICctbWEnLCAnMjAwJywgJy1pbWFlJywgJzxpbmZpbGUubWFlPicsICctb21hZScsICc8b3V0ZmlsZS5tYWU+Jw==

>  <s_epik_input>  (1337) 
W2NIXTFbY0hdW2NIXVtjSF1bY0hdYzFOKFtDSDJdQyNOKWMyYyhbY0hdbmMoYzIzKVtjSF1bY0hdYyhGKVtjSF0zKUMoPU8pW05IXWM0W2NIXVtjSF1jKFtjSF1bY0hdNClbQ0gyXU4oW0NIM10pW0NIM10=

>  <s_i_glide_gridfile>  (1337) 
ATP-Grid

>  <s_lp_Force_Field>  (1337) 
OPLS_2005

>  <s_lp_Variant>  (1337) 
rxn512c____EMOL712348____EMOL36725275____EMOL2873068-1

>  <s_lp_label>  (1337) 
2201_sdstereoexpander_1_neutralizer_1_epik_1_stereoizer_1

>  <s_m_source_file>  (1337) 
ATP-VSW-LIGPREP-001-in.maegz

>  <s_sd_BIOSOLVEIT.INFINISEE\_QUERY\_NAME>  (1337) 
Ref-Lig

>  <s_sd_BIOSOLVEIT.INFINISEE\_QUERY\_SMILES>  (1337) 
S(c1nc2c(cc1C[NH2+]Cc3ccc(cc3)C[NH+](C)C)cccc2)Cc4ccccc4

>  <s_sd_BIOSOLVEIT.INFINISEE\_REACTION\_NAME>  (1337) 
rxn512c

>  <s_sd_BIOSOLVEIT.INFINISEE\_REAGENT1\_NAME>  (1337) 
EMOL712348

>  <s_sd_BIOSOLVEIT.INFINISEE\_REAGENT1\_SMILES>  (1337) 
N#CCNc1ccccc1

>  <s_sd_BIOSOLVEIT.INFINISEE\_REAGENT2\_NAME>  (1337) 
EMOL36725275

>  <s_sd_BIOSOLVEIT.INFINISEE\_REAGENT2\_SMILES>  (1337) 
Clc1c2c(ncc1C(=O)O)ccc(F)c2

>  <s_sd_BIOSOLVEIT.INFINISEE\_REAGENT3\_NAME>  (1337) 
EMOL2873068

>  <s_sd_BIOSOLVEIT.INFINISEE\_REAGENT3\_SMILES>  (1337) 
N(Cc1ccc(N)cc1)(C)C

>  <s_sd_BIOSOLVEIT.INFINISEE\_SPACE>  (1337) 
eXplore_7tr_2022-12

>  <s_vsw_compound_code>  (1337) 
70401

>  <s_vsw_variant>  (1337) 
70401-1

>  <r_epik_Charging_Adjusted_Penalty>  (1337) 
0.090974180800720894

>  <r_epik_Ionization_Penalty>  (1337) 
0.046899999999999997

>  <r_epik_Ionization_Penalty_Charging>  (1337) 
0.045499999999999999

>  <r_epik_Ionization_Penalty_Neutral>  (1337) 
0.0014

>  <r_epik_State_Penalty>  (1337) 
0.045499999999999999

>  <r_i_docking_score>  (1337) 
-4.9263217104919201

>  <r_i_glide_ecoul>  (1337) 
-5.35634565353394

>  <r_i_glide_eff_state_penalty>  (1337) 
0.045499999999999999

>  <r_i_glide_einternal>  (1337) 
1.7562402486801101

>  <r_i_glide_emodel>  (1337) 
-61.3711934673792

>  <r_i_glide_energy>  (1337) 
-45.342631816863999

>  <r_i_glide_erotb>  (1337) 
0.58324278795298601

>  <r_i_glide_esite>  (1337) 
-0.094651957184504101

>  <r_i_glide_evdw>  (1337) 
-39.986286163330099

>  <r_i_glide_gscore>  (1337) 
-4.9718217104919198

>  <r_i_glide_hbond>  (1337) 
-0.044254306215050297

>  <r_i_glide_ligand_efficiency>  (1337) 
-0.14489181501446799

>  <r_i_glide_ligand_efficiency_ln>  (1337) 
-1.08836264449122

>  <r_i_glide_ligand_efficiency_sa>  (1337) 
-0.46939323327763599

>  <r_i_glide_lipo>  (1337) 
-1.93108307737262

>  <r_i_glide_metal>  (1337) 
-0

>  <r_i_glide_rewards>  (1337) 
-0.68230900147613704

>  <r_lp_Energy>  (1337) 
36.886845999999998

>  <r_qp_ACxDN^.5/SA>  (1337) 
0.0097672000000000002

>  <r_qp_CIQPlogS>  (1337) 
-6.6959999999999997

>  <r_qp_EA(eV)>  (1337) 
1.716

>  <r_qp_FISA>  (1337) 
77.225999999999999

>  <r_qp_FOSA>  (1337) 
209.203

>  <r_qp_IP(eV)>  (1337) 
8.5120000000000005

>  <r_qp_Jm>  (1337) 
0.00070989426094757505

>  <r_qp_PISA>  (1337) 
434.53300000000002

>  <r_qp_PSA>  (1337) 
73.024000000000001

>  <r_qp_PercentHumanOralAbsorption>  (1337) 
100

>  <r_qp_QPPCaco>  (1337) 
457.58300000000003

>  <r_qp_QPPMDCK>  (1337) 
424.86099999999999

>  <r_qp_QPlogBB>  (1337) 
-0.219

>  <r_qp_QPlogHERG>  (1337) 
-7.6420000000000003

>  <r_qp_QPlogKhsa>  (1337) 
0.63100000000000001

>  <r_qp_QPlogKp>  (1337) 
-2.7069999999999999

>  <r_qp_QPlogPC16>  (1337) 
14.992000000000001

>  <r_qp_QPlogPo/w>  (1337) 
4.6609999999999996

>  <r_qp_QPlogPoct>  (1337) 
22.460000000000001

>  <r_qp_QPlogPw>  (1337) 
12.151999999999999

>  <r_qp_QPlogS>  (1337) 
-6.0990000000000002

>  <r_qp_QPpolrz>  (1337) 
49.655999999999999

>  <r_qp_SASA>  (1337) 
767.87900000000002

>  <r_qp_SAamideO>  (1337) 
0

>  <r_qp_SAfluorine>  (1337) 
46.917000000000002

>  <r_qp_WPSA>  (1337) 
46.917000000000002

>  <r_qp_accptHB>  (1337) 
7.5

>  <r_qp_dip^2/V>  (1337) 
0.020516300000000001

>  <r_qp_dipole>  (1337) 
5.3959999999999999

>  <r_qp_donorHB>  (1337) 
1

>  <r_qp_glob>  (1337) 
0.79537139999999995

>  <r_qp_mol_MW>  (1337) 
453.51799999999997

>  <r_qp_volume>  (1337) 
1419.21

>  <r_sd_BIOSOLVEIT.INFINISEE\_FTREES\_SIMILARITY>  (1337) 
0.93200000000000005

>  <r_sd_BIOSOLVEIT.LOGP>  (1337) 
3.9323800000000002

>  <r_sd_BIOSOLVEIT.MOLECULAR\_WEIGHT>  (1337) 
454.52699999999999

>  <r_sd_BIOSOLVEIT.TPSA>  (1337) 
73.459999999999994

>  <i_epik_Tot_Q>  (1337) 
1

>  <i_epik_Tot_abs_Q>  (1337) 
1

>  <i_f3d_flags>  (1337) 
0

>  <i_i_glide_confnum>  (1337) 
6

>  <i_i_glide_lignum>  (1337) 
721

>  <i_i_glide_posenum>  (1337) 
15

>  <i_i_glide_rotatable_bonds>  (1337) 
8

>  <i_lp_mmshare_version>  (1337) 
65135

>  <i_m_ct_format>  (1337) 
2

>  <i_m_source_file_index>  (1337) 
2201

>  <i_qp_#NandO>  (1337) 
6

>  <i_qp_#acid>  (1337) 
0

>  <i_qp_#amide>  (1337) 
0

>  <i_qp_#amidine>  (1337) 
0

>  <i_qp_#amine>  (1337) 
1

>  <i_qp_#in34>  (1337) 
0

>  <i_qp_#in56>  (1337) 
22

>  <i_qp_#metab>  (1337) 
6

>  <i_qp_#nonHatm>  (1337) 
34

>  <i_qp_#noncon>  (1337) 
0

>  <i_qp_#ringatoms>  (1337) 
22

>  <i_qp_#rotor>  (1337) 
8

>  <i_qp_#rtvFG>  (1337) 
0

>  <i_qp_#stars>  (1337) 
1

>  <i_qp_CNS>  (1337) 
1

>  <i_qp_HumanOralAbsorption>  (1337) 
3

>  <i_qp_RuleOfFive>  (1337) 
0

>  <i_qp_RuleOfThree>  (1337) 
1

>  <i_sd_BIOSOLVEIT.INFINISEE\_RESULT\_RANK>  (1337) 
3767

>  <i_sd_version>  (1337) 
0

>  <b_lp_Chiralities_Consistent>  (1337) 
1

>  <b_sd_chiral_flag>  (1337) 
0

>  <canonical_id>  (1337) 
ATP-HTVS-D38DE888E88F

>  <compound_code>  (1337) 
70401

>  <title>  (1337) 
rxn512c____EMOL712348____EMOL36725275____EMOL2873068

>  <variant>  (1337) 
70401-1

>  <source_file>  (1337) 
运行/运行/ATP-VSW/ATP-VSW-DOCK_HTVS_1-001_lib/ATP-VSW-DOCK_HTVS_1-001_lib

>  <canonical_smiles>  (1337) 
C[NH+](C)Cc1ccc(NC(=O)c2cnc3ccc(F)cc3c2N(CC#N)c2ccccc2)cc1

>  <scaffold>  (1337) 
O=C(Nc1ccccc1)c1cnc2ccccc2c1Nc1ccccc1

>  <molecular_formula>  (1337) 
C27H25FN5O+

$$$$
ATP-HTVS-D3913B8FBCFA
     RDKit          3D

 64 66  0  0  0  0  0  0  0  0999 V2000
  195.9989  183.8205  150.5487 O   0  0  0  0  0  0  0  0  0  0  0  0
  197.0961  183.5968  151.0709 C   0  0  0  0  0  0  0  0  0  0  0  0
  197.1555  182.6247  152.0333 N   0  0  0  0  0  0  0  0  0  0  0  0
  198.1852  182.4495  152.9875 C   0  0  0  0  0  0  0  0  0  0  0  0
  198.4487  183.4309  153.9944 C   0  0  0  0  0  0  0  0  0  0  0  0
  197.7043  184.6301  154.0241 N   0  0  0  0  0  0  0  0  0  0  0  0
  197.8195  185.5514  155.1302 C   0  0  1  0  0  0  0  0  0  0  0  0
  197.7366  184.8637  156.4766 C   0  0  0  0  0  0  0  0  0  0  0  0
  196.8940  183.7431  156.6272 C   0  0  0  0  0  0  0  0  0  0  0  0
  196.8709  183.0228  157.8309 C   0  0  0  0  0  0  0  0  0  0  0  0
  197.7018  183.4383  158.8916 C   0  0  0  0  0  0  0  0  0  0  0  0
  198.5635  184.5425  158.7337 C   0  0  0  0  0  0  0  0  0  0  0  0
  198.5885  185.2578  157.5249 C   0  0  0  0  0  0  0  0  0  0  0  0
  195.9245  181.8407  157.9882 C   0  0  1  0  0  0  0  0  0  0  0  0
  194.5011  182.2645  158.0797 N   0  0  2  0  0  0  0  0  0  0  0  0
  194.2739  183.3541  159.0956 C   0  0  2  0  0  0  0  0  0  0  0  0
  193.5918  181.1181  158.3457 C   0  0  2  0  0  0  0  0  0  0  0  0
  199.5594  183.1803  154.8477 C   0  0  0  0  0  0  0  0  0  0  0  0
  200.2824  182.0535  154.8401 N   0  0  0  0  0  0  0  0  0  0  0  0
  199.9266  181.0858  153.9822 C   0  0  0  0  0  0  0  0  0  0  0  0
  198.8873  181.2371  153.0458 C   0  0  0  0  0  0  0  0  0  0  0  0
  196.0410  181.6702  152.1377 C   0  0  2  0  0  0  0  0  0  0  0  0
  198.3331  184.4829  150.5999 C   0  0  1  0  0  0  0  0  0  0  0  0
  198.4892  184.4374  149.0560 C   0  0  0  0  0  0  0  0  0  0  0  0
  197.4198  184.7890  148.1906 C   0  0  0  0  0  0  0  0  0  0  0  0
  197.5743  184.7781  146.7908 C   0  0  0  0  0  0  0  0  0  0  0  0
  198.8160  184.4477  146.2229 C   0  0  0  0  0  0  0  0  0  0  0  0
  199.9006  184.1339  147.0555 C   0  0  0  0  0  0  0  0  0  0  0  0
  199.7380  184.1326  148.4529 C   0  0  0  0  0  0  0  0  0  0  0  0
  198.0629  185.9702  150.9681 C   0  0  2  0  0  0  0  0  0  0  0  0
  199.6883  184.1186  151.2950 C   0  0  2  0  0  0  0  0  0  0  0  0
  196.8731  184.6998  153.4456 H   0  0  0  0  0  0  0  0  0  0  0  0
  198.7400  186.1375  155.0317 H   0  0  0  0  0  0  0  0  0  0  0  0
  196.9963  186.2648  155.0538 H   0  0  0  0  0  0  0  0  0  0  0  0
  196.3061  183.3927  155.7888 H   0  0  0  0  0  0  0  0  0  0  0  0
  197.6671  182.9205  159.8354 H   0  0  0  0  0  0  0  0  0  0  0  0
  199.2105  184.8490  159.5410 H   0  0  0  0  0  0  0  0  0  0  0  0
  199.2910  186.0663  157.3771 H   0  0  0  0  0  0  0  0  0  0  0  0
  196.0262  181.1927  157.1127 H   0  0  0  0  0  0  0  0  0  0  0  0
  196.2249  181.2587  158.8640 H   0  0  0  0  0  0  0  0  0  0  0  0
  194.4823  183.0292  160.1130 H   0  0  0  0  0  0  0  0  0  0  0  0
  193.2454  183.7019  159.0528 H   0  0  0  0  0  0  0  0  0  0  0  0
  194.8988  184.2221  158.9063 H   0  0  0  0  0  0  0  0  0  0  0  0
  193.7512  180.6700  159.3343 H   0  0  0  0  0  0  0  0  0  0  0  0
  193.7286  180.3484  157.5927 H   0  0  0  0  0  0  0  0  0  0  0  0
  192.5568  181.4393  158.2753 H   0  0  0  0  0  0  0  0  0  0  0  0
  199.9279  183.9462  155.5029 H   0  0  0  0  0  0  0  0  0  0  0  0
  200.5163  180.1858  154.0252 H   0  0  0  0  0  0  0  0  0  0  0  0
  198.6993  180.4553  152.3253 H   0  0  0  0  0  0  0  0  0  0  0  0
  196.2151  180.9180  152.9093 H   0  0  0  0  0  0  0  0  0  0  0  0
  195.8368  181.1623  151.1876 H   0  0  0  0  0  0  0  0  0  0  0  0
  195.1477  182.1824  152.4508 H   0  0  0  0  0  0  0  0  0  0  0  0
  196.4544  185.0844  148.5783 H   0  0  0  0  0  0  0  0  0  0  0  0
  196.7313  185.0313  146.1660 H   0  0  0  0  0  0  0  0  0  0  0  0
  198.9357  184.4415  145.1544 H   0  0  0  0  0  0  0  0  0  0  0  0
  200.8628  183.8929  146.6307 H   0  0  0  0  0  0  0  0  0  0  0  0
  200.6198  183.9027  149.0313 H   0  0  0  0  0  0  0  0  0  0  0  0
  197.1646  186.3727  150.5042 H   0  0  0  0  0  0  0  0  0  0  0  0
  198.8786  186.6102  150.6272 H   0  0  0  0  0  0  0  0  0  0  0  0
  197.9718  186.1367  152.0404 H   0  0  0  0  0  0  0  0  0  0  0  0
  199.9895  183.0869  151.0308 H   0  0  0  0  0  0  0  0  0  0  0  0
  199.6567  184.2593  152.3247 H   0  0  0  0  0  0  0  0  0  0  0  0
  200.4858  184.8210  151.0277 H   0  0  0  0  0  0  0  0  0  0  0  0
  194.2322  182.6139  157.1847 H   0  0  0  0  0  0  0  0  0  0  0  0
  1  2  2  0
  2  3  1  0
 23  2  1  1
  3  4  1  0
  3 22  1  0
  4  5  1  0
  4 21  2  0
  5  6  1  0
  5 18  2  0
  6  7  1  0
  6 32  1  0
  7  8  1  0
  7 33  1  6
  7 34  1  0
  8  9  2  0
  8 13  1  0
  9 10  1  0
  9 35  1  0
 10 11  2  0
 10 14  1  0
 11 12  1  0
 11 36  1  0
 12 13  2  0
 12 37  1  0
 13 38  1  0
 14 15  1  0
 14 39  1  6
 14 40  1  0
 15 16  1  0
 15 17  1  0
 15 64  1  6
 16 41  1  1
 16 42  1  0
 16 43  1  0
 17 44  1  1
 17 45  1  0
 17 46  1  0
 18 19  1  0
 18 47  1  0
 19 20  2  0
 20 21  1  0
 20 48  1  0
 21 49  1  0
 22 50  1  1
 22 51  1  0
 22 52  1  0
 23 24  1  0
 23 30  1  0
 23 31  1  0
 24 25  2  0
 24 29  1  0
 25 26  1  0
 25 53  1  0
 26 27  2  0
 26 54  1  0
 27 28  1  0
 27 55  1  0
 28 29  2  0
 28 56  1  0
 29 57  1  0
 30 58  1  6
 30 59  1  0
 30 60  1  0
 31 61  1  1
 31 62  1  0
 31 63  1  0
M  CHG  1  15   1
M  END
>  <s_epik_cmdline>  (1338) 
J2VwaWtfcHl0aG9uJywgJy1waCcsICc3LjAwMDAwMCcsICctcGh0JywgJzIuMDAwMDAwJywgJy1tcycsICcxNicsICctdG4nLCAnOCcsICctbWEnLCAnMjAwJywgJy1pbWFlJywgJzxpbmZpbGUubWFlPicsICctb21hZScsICc8b3V0ZmlsZS5tYWU+Jw==

>  <s_epik_input>  (1338) 
W2NIXTFbY0hdW2NIXVtjSF1bY0hdYzFDKFtDSDNdKShbQ0gzXSlDKD1PKU4oW0NIM10pYzJjKFtjSF1uW2NIXVtjSF0yKVtOSF1bQ0gyXWMzW2NIXWMoW2NIXVtjSF1bY0hdMylbQ0gyXU4oW0NIM10pW0NIM10=

>  <s_i_glide_gridfile>  (1338) 
ATP-Grid

>  <s_lp_Force_Field>  (1338) 
OPLS_2005

>  <s_lp_Variant>  (1338) 
rxn502a____EMOL882167____EMOL81846330____EMOL2873214-1

>  <s_lp_label>  (1338) 
2913_sdstereoexpander_1_neutralizer_1_epik_1_stereoizer_1

>  <s_m_source_file>  (1338) 
ATP-VSW-LIGPREP-002-in.maegz

>  <s_sd_BIOSOLVEIT.INFINISEE\_QUERY\_NAME>  (1338) 
Ref-Lig

>  <s_sd_BIOSOLVEIT.INFINISEE\_QUERY\_SMILES>  (1338) 
S(c1nc2c(cc1C[NH2+]Cc3ccc(cc3)C[NH+](C)C)cccc2)Cc4ccccc4

>  <s_sd_BIOSOLVEIT.INFINISEE\_REACTION\_NAME>  (1338) 
rxn502a

>  <s_sd_BIOSOLVEIT.INFINISEE\_REAGENT1\_NAME>  (1338) 
EMOL882167

>  <s_sd_BIOSOLVEIT.INFINISEE\_REAGENT1\_SMILES>  (1338) 
O=C(O)C(c1ccccc1)(C)C

>  <s_sd_BIOSOLVEIT.INFINISEE\_REAGENT2\_NAME>  (1338) 
EMOL81846330

>  <s_sd_BIOSOLVEIT.INFINISEE\_REAGENT2\_SMILES>  (1338) 
Ic1c(NC)ccnc1

>  <s_sd_BIOSOLVEIT.INFINISEE\_REAGENT3\_NAME>  (1338) 
EMOL2873214

>  <s_sd_BIOSOLVEIT.INFINISEE\_REAGENT3\_SMILES>  (1338) 
N(Cc1cc(ccc1)CN)(C)C

>  <s_sd_BIOSOLVEIT.INFINISEE\_SPACE>  (1338) 
eXplore_7tr_2022-12

>  <s_vsw_compound_code>  (1338) 
93186

>  <s_vsw_variant>  (1338) 
93186-1

>  <r_epik_Charging_Adjusted_Penalty>  (1338) 
0.13845861111754401

>  <r_epik_Ionization_Penalty>  (1338) 
0.094399999999999998

>  <r_epik_Ionization_Penalty_Charging>  (1338) 
0.0441

>  <r_epik_Ionization_Penalty_Neutral>  (1338) 
0.050299999999999997

>  <r_epik_State_Penalty>  (1338) 
0.094399999999999998

>  <r_i_docking_score>  (1338) 
-4.3395223759903399

>  <r_i_glide_ecoul>  (1338) 
-10.5315237045288

>  <r_i_glide_eff_state_penalty>  (1338) 
0.094399999999999998

>  <r_i_glide_einternal>  (1338) 
5.0275859832763699

>  <r_i_glide_emodel>  (1338) 
-56.470800274099801

>  <r_i_glide_energy>  (1338) 
-41.929120063781703

>  <r_i_glide_erotb>  (1338) 
0.79354665791498202

>  <r_i_glide_esite>  (1338) 
-0.11588864651533

>  <r_i_glide_evdw>  (1338) 
-31.397596359252901

>  <r_i_glide_gscore>  (1338) 
-4.4339223759903401

>  <r_i_glide_hbond>  (1338) 
-0.20000000000000001

>  <r_i_glide_ligand_efficiency>  (1338) 
-0.13998459277388201

>  <r_i_glide_ligand_efficiency_ln>  (1338) 
-0.97869528617510404

>  <r_i_glide_ligand_efficiency_sa>  (1338) 
-0.439744890869401

>  <r_i_glide_lipo>  (1338) 
-1.12139666278148

>  <r_i_glide_metal>  (1338) 
-0

>  <r_i_glide_rewards>  (1338) 
-0.64057535096654095

>  <r_lp_Energy>  (1338) 
44.868989999999997

>  <r_lp_tautomer_probability>  (1338) 
0.999999999999999

>  <r_qp_ACxDN^.5/SA>  (1338) 
0.0110644

>  <r_qp_CIQPlogS>  (1338) 
-4.7069999999999999

>  <r_qp_EA(eV)>  (1338) 
0.38200000000000001

>  <r_qp_FISA>  (1338) 
48.759999999999998

>  <r_qp_FOSA>  (1338) 
343.23000000000002

>  <r_qp_IP(eV)>  (1338) 
8.8599999999999994

>  <r_qp_Jm>  (1338) 
0.394513863934568

>  <r_qp_PISA>  (1338) 
285.86000000000001

>  <r_qp_PSA>  (1338) 
50.243000000000002

>  <r_qp_PercentHumanOralAbsorption>  (1338) 
100

>  <r_qp_QPPCaco>  (1338) 
851.93899999999996

>  <r_qp_QPPMDCK>  (1338) 
460.267

>  <r_qp_QPlogBB>  (1338) 
0.044999999999999998

>  <r_qp_QPlogHERG>  (1338) 
-5.8150000000000004

>  <r_qp_QPlogKhsa>  (1338) 
0.439

>  <r_qp_QPlogKp>  (1338) 
-2.706

>  <r_qp_QPlogPC16>  (1338) 
13.146000000000001

>  <r_qp_QPlogPo/w>  (1338) 
4.0039999999999996

>  <r_qp_QPlogPoct>  (1338) 
20.158000000000001

>  <r_qp_QPlogPw>  (1338) 
10.714

>  <r_qp_QPlogS>  (1338) 
-3.3180000000000001

>  <r_qp_QPpolrz>  (1338) 
44.811

>  <r_qp_SASA>  (1338) 
677.85000000000002

>  <r_qp_SAamideO>  (1338) 
0

>  <r_qp_SAfluorine>  (1338) 
0

>  <r_qp_WPSA>  (1338) 
0

>  <r_qp_accptHB>  (1338) 
7.5

>  <r_qp_dip^2/V>  (1338) 
0.0020489000000000002

>  <r_qp_dipole>  (1338) 
1.653

>  <r_qp_donorHB>  (1338) 
1

>  <r_qp_glob>  (1338) 
0.86441069999999998

>  <r_qp_mol_MW>  (1338) 
416.565

>  <r_qp_volume>  (1338) 
1333.6220000000001

>  <r_sd_BIOSOLVEIT.INFINISEE\_FTREES\_SIMILARITY>  (1338) 
0.90400000000000003

>  <r_sd_BIOSOLVEIT.LOGP>  (1338) 
3.2787999999999999

>  <r_sd_BIOSOLVEIT.MOLECULAR\_WEIGHT>  (1338) 
417.57400000000001

>  <r_sd_BIOSOLVEIT.TPSA>  (1338) 
49.670000000000002

>  <i_epik_Tot_Q>  (1338) 
1

>  <i_epik_Tot_abs_Q>  (1338) 
1

>  <i_f3d_flags>  (1338) 
0

>  <i_i_glide_confnum>  (1338) 
1

>  <i_i_glide_lignum>  (1338) 
1443

>  <i_i_glide_posenum>  (1338) 
20

>  <i_i_glide_rotatable_bonds>  (1338) 
9

>  <i_lp_mmshare_version>  (1338) 
65135

>  <i_m_ct_format>  (1338) 
2

>  <i_m_source_file_index>  (1338) 
2913

>  <i_qp_#NandO>  (1338) 
5

>  <i_qp_#acid>  (1338) 
0

>  <i_qp_#amide>  (1338) 
0

>  <i_qp_#amidine>  (1338) 
0

>  <i_qp_#amine>  (1338) 
1

>  <i_qp_#in34>  (1338) 
0

>  <i_qp_#in56>  (1338) 
18

>  <i_qp_#metab>  (1338) 
9

>  <i_qp_#nonHatm>  (1338) 
31

>  <i_qp_#noncon>  (1338) 
0

>  <i_qp_#ringatoms>  (1338) 
18

>  <i_qp_#rotor>  (1338) 
8

>  <i_qp_#rtvFG>  (1338) 
0

>  <i_qp_#stars>  (1338) 
1

>  <i_qp_CNS>  (1338) 
1

>  <i_qp_HumanOralAbsorption>  (1338) 
3

>  <i_qp_RuleOfFive>  (1338) 
0

>  <i_qp_RuleOfThree>  (1338) 
1

>  <i_sd_BIOSOLVEIT.INFINISEE\_RESULT\_RANK>  (1338) 
76456

>  <i_sd_version>  (1338) 
0

>  <b_lp_Chiralities_Consistent>  (1338) 
1

>  <b_sd_chiral_flag>  (1338) 
0

>  <canonical_id>  (1338) 
ATP-HTVS-D3913B8FBCFA

>  <compound_code>  (1338) 
93186

>  <title>  (1338) 
rxn502a____EMOL882167____EMOL81846330____EMOL2873214

>  <variant>  (1338) 
93186-1

>  <source_file>  (1338) 
运行/运行/ATP-VSW/ATP-VSW-DOCK_HTVS_1-002_lib.maegz

>  <canonical_smiles>  (1338) 
CN(C(=O)C(C)(C)c1ccccc1)c1ccncc1NCc1cccc(C[NH+](C)C)c1

>  <scaffold>  (1338) 
O=C(Cc1ccccc1)Nc1ccncc1NCc1ccccc1

>  <molecular_formula>  (1338) 
C26H33N4O+

$$$$
ATP-HTVS-D3B4C31C9E9F
     RDKit          3D

 48 51  0  0  0  0  0  0  0  0999 V2000
  199.2989  190.8804  155.7659 F   0  0  0  0  0  0  0  0  0  0  0  0
  198.7459  190.7386  156.9963 C   0  0  0  0  0  0  0  0  0  0  0  0
  198.1522  191.8425  157.6433 C   0  0  0  0  0  0  0  0  0  0  0  0
  197.5906  191.6865  158.9279 C   0  0  0  0  0  0  0  0  0  0  0  0
  197.6163  190.4326  159.5652 C   0  0  0  0  0  0  0  0  0  0  0  0
  198.2011  189.3300  158.9182 C   0  0  0  0  0  0  0  0  0  0  0  0
  198.7629  189.4831  157.6305 C   0  0  0  0  0  0  0  0  0  0  0  0
  198.2519  187.9891  159.6212 C   0  0  1  0  0  0  0  0  0  0  0  0
  197.4783  186.9496  158.9216 N   0  0  0  0  0  0  0  0  0  0  0  0
  197.9712  185.6047  159.2766 C   0  0  1  0  0  0  0  0  0  0  0  0
  197.0875  184.4518  158.7648 C   0  0  0  0  0  0  0  0  0  0  0  0
  195.7889  184.2513  159.3128 C   0  0  0  0  0  0  0  0  0  0  0  0
  195.2414  185.1222  160.2870 N   0  0  0  0  0  0  0  0  0  0  0  0
  195.3619  186.4553  160.3239 C   0  0  0  0  0  0  0  0  0  0  0  0
  194.9109  187.1020  161.2644 O   0  0  0  0  0  0  0  0  0  0  0  0
  196.0213  187.1680  159.1267 C   0  0  1  0  0  0  0  0  0  0  0  0
  195.0217  183.1335  158.9251 C   0  0  0  0  0  0  0  0  0  0  0  0
  195.5137  182.2323  157.9670 C   0  0  0  0  0  0  0  0  0  0  0  0
  196.7874  182.4260  157.4046 C   0  0  0  0  0  0  0  0  0  0  0  0
  197.5700  183.5228  157.8014 C   0  0  0  0  0  0  0  0  0  0  0  0
  199.4176  185.4162  158.8076 C   0  0  0  0  0  0  0  0  0  0  0  0
  199.8107  185.9271  157.5511 C   0  0  0  0  0  0  0  0  0  0  0  0
  201.1293  185.7634  157.0908 C   0  0  0  0  0  0  0  0  0  0  0  0
  202.0652  185.0536  157.8676 C   0  0  0  0  0  0  0  0  0  0  0  0
  201.6732  184.5156  159.1066 C   0  0  0  0  0  0  0  0  0  0  0  0
  200.3529  184.6881  159.5794 C   0  0  0  0  0  0  0  0  0  0  0  0
  198.1179  193.1934  156.9637 C   0  0  2  0  0  0  0  0  0  0  0  0
  197.1458  192.5292  159.4362 H   0  0  0  0  0  0  0  0  0  0  0  0
  197.2048  190.3114  160.5564 H   0  0  0  0  0  0  0  0  0  0  0  0
  199.2309  188.6506  157.1261 H   0  0  0  0  0  0  0  0  0  0  0  0
  199.3164  187.7651  159.6835 H   0  0  0  0  0  0  0  0  0  0  0  0
  197.9074  188.0823  160.6553 H   0  0  0  0  0  0  0  0  0  0  0  0
  197.9660  185.5287  160.3670 H   0  0  0  0  0  0  0  0  0  0  0  0
  194.6487  184.7036  160.9842 H   0  0  0  0  0  0  0  0  0  0  0  0
  195.7890  188.2312  159.1725 H   0  0  0  0  0  0  0  0  0  0  0  0
  195.5045  186.8286  158.2239 H   0  0  0  0  0  0  0  0  0  0  0  0
  194.0392  182.9687  159.3412 H   0  0  0  0  0  0  0  0  0  0  0  0
  194.9194  181.3873  157.6551 H   0  0  0  0  0  0  0  0  0  0  0  0
  197.1624  181.7280  156.6732 H   0  0  0  0  0  0  0  0  0  0  0  0
  198.5480  183.6065  157.3421 H   0  0  0  0  0  0  0  0  0  0  0  0
  199.0937  186.4461  156.9302 H   0  0  0  0  0  0  0  0  0  0  0  0
  201.4053  186.1695  156.1301 H   0  0  0  0  0  0  0  0  0  0  0  0
  203.0676  184.9103  157.4979 H   0  0  0  0  0  0  0  0  0  0  0  0
  202.3789  183.9496  159.6940 H   0  0  0  0  0  0  0  0  0  0  0  0
  200.0632  184.2534  160.5298 H   0  0  0  0  0  0  0  0  0  0  0  0
  197.4127  193.8622  157.4588 H   0  0  0  0  0  0  0  0  0  0  0  0
  197.8116  193.0864  155.9230 H   0  0  0  0  0  0  0  0  0  0  0  0
  199.1073  193.6503  156.9912 H   0  0  0  0  0  0  0  0  0  0  0  0
  1  2  1  0
  2  3  2  0
  2  7  1  0
  3  4  1  0
  3 27  1  0
  4  5  2  0
  4 28  1  0
  5  6  1  0
  5 29  1  0
  6  7  2  0
  6  8  1  0
  7 30  1  0
  8  9  1  0
  8 31  1  1
  8 32  1  0
  9 10  1  0
  9 16  1  0
 10 11  1  0
 10 21  1  0
 10 33  1  1
 11 12  1  0
 11 20  2  0
 12 13  1  0
 12 17  2  0
 13 14  1  0
 13 34  1  0
 14 15  2  0
 14 16  1  0
 16 35  1  1
 16 36  1  0
 17 18  1  0
 17 37  1  0
 18 19  2  0
 18 38  1  0
 19 20  1  0
 19 39  1  0
 20 40  1  0
 21 22  2  0
 21 26  1  0
 22 23  1  0
 22 41  1  0
 23 24  2  0
 23 42  1  0
 24 25  1  0
 24 43  1  0
 25 26  2  0
 25 44  1  0
 26 45  1  0
 27 46  1  1
 27 47  1  0
 27 48  1  0
M  END
>  <s_epik_cmdline>  (1339) 
J2VwaWtfcHl0aG9uJywgJy1waCcsICc3LjAwMDAwMCcsICctcGh0JywgJzIuMDAwMDAwJywgJy1tcycsICcxNicsICctdG4nLCAnOCcsICctbWEnLCAnMjAwJywgJy1pbWFlJywgJzxpbmZpbGUubWFlPicsICctb21hZScsICc8b3V0ZmlsZS5tYWU+Jw==

>  <s_epik_input>  (1339) 
RmMxYyhbQ0gzXSlbY0hdW2NIXWMoW2NIXTEpW0NIMl1OKFtDQEBIXTJjM1tjSF1bY0hdW2NIXVtjSF1bY0hdMylbQ0gyXUMoPU8pW05IXWMoYzI0KVtjSF1bY0hdW2NIXVtjSF00

>  <s_i_glide_gridfile>  (1339) 
ATP-Grid

>  <s_lp_Force_Field>  (1339) 
OPLS_2005

>  <s_lp_Variant>  (1339) 
m_2230bdc____17849930____22388964-1

>  <s_lp_label>  (1339) 
730_sdstereoexpander_1_neutralizer_1_epik_1_stereoizer_1

>  <s_m_source_file>  (1339) 
ATP-VSW-LIGPREP-001-in.maegz

>  <s_sd_BIOSOLVEIT.INFINISEE\_QUERY\_NAME>  (1339) 
Ref-Lig

>  <s_sd_BIOSOLVEIT.INFINISEE\_QUERY\_SMILES>  (1339) 
S(c1nc2c(cc1C[NH2+]Cc3ccc(cc3)C[NH+](C)C)cccc2)Cc4ccccc4

>  <s_sd_BIOSOLVEIT.INFINISEE\_REACTION\_NAME>  (1339) 
m_2230bdc

>  <s_sd_BIOSOLVEIT.INFINISEE\_REAGENT1\_SMILES>  (1339) 
[R1*]N1C(c2c(NC(=O)C1)cccc2)c3ccccc3

>  <s_sd_BIOSOLVEIT.INFINISEE\_REAGENT2\_SMILES>  (1339) 
[R1*]Cc1cc(F)c(cc1)C

>  <s_sd_BIOSOLVEIT.INFINISEE\_SPACE>  (1339) 
REALSpace_44bn_2023-08

>  <s_vsw_compound_code>  (1339) 
23329

>  <s_vsw_variant>  (1339) 
23329-1

>  <r_epik_Charging_Adjusted_Penalty>  (1339) 
0.0087634984339075902

>  <r_epik_Ionization_Penalty>  (1339) 
0.0088000000000000005

>  <r_epik_Ionization_Penalty_Charging>  (1339) 
0

>  <r_epik_Ionization_Penalty_Neutral>  (1339) 
0.0088000000000000005

>  <r_epik_State_Penalty>  (1339) 
0.0088000000000000005

>  <r_i_docking_score>  (1339) 
-1.64897298703425

>  <r_i_glide_ecoul>  (1339) 
-0.057287894189357799

>  <r_i_glide_eff_state_penalty>  (1339) 
0.0088000000000000005

>  <r_i_glide_einternal>  (1339) 
0.79631203413009599

>  <r_i_glide_emodel>  (1339) 
-33.495902906425997

>  <r_i_glide_energy>  (1339) 
-30.724993430078001

>  <r_i_glide_erotb>  (1339) 
0.44291010722313801

>  <r_i_glide_esite>  (1339) 
0

>  <r_i_glide_evdw>  (1339) 
-30.6677055358887

>  <r_i_glide_gscore>  (1339) 
-1.6577729870342499

>  <r_i_glide_hbond>  (1339) 
0

>  <r_i_glide_ligand_efficiency>  (1339) 
-0.061073073593861098

>  <r_i_glide_ligand_efficiency_ln>  (1339) 
-0.383853725937224

>  <r_i_glide_ligand_efficiency_sa>  (1339) 
-0.18321922058029599

>  <r_i_glide_lipo>  (1339) 
-1.1268382527184699

>  <r_i_glide_metal>  (1339) 
-0

>  <r_i_glide_rewards>  (1339) 
0.56813361938391505

>  <r_lp_Energy>  (1339) 
37.981762000000003

>  <r_qp_ACxDN^.5/SA>  (1339) 
0.0069439000000000002

>  <r_qp_CIQPlogS>  (1339) 
-4.6420000000000003

>  <r_qp_EA(eV)>  (1339) 
0.373

>  <r_qp_FISA>  (1339) 
58.305999999999997

>  <r_qp_FOSA>  (1339) 
133.511

>  <r_qp_IP(eV)>  (1339) 
9.0229999999999997

>  <r_qp_Jm>  (1339) 
0.0032079616191509801

>  <r_qp_PISA>  (1339) 
417.64400000000001

>  <r_qp_PSA>  (1339) 
41.237000000000002

>  <r_qp_PercentHumanOralAbsorption>  (1339) 
100

>  <r_qp_QPPCaco>  (1339) 
691.64999999999998

>  <r_qp_QPPMDCK>  (1339) 
597.80399999999997

>  <r_qp_QPlogBB>  (1339) 
0.36299999999999999

>  <r_qp_QPlogHERG>  (1339) 
-7.1059999999999999

>  <r_qp_QPlogKhsa>  (1339) 
0.81100000000000005

>  <r_qp_QPlogKp>  (1339) 
-2.9929999999999999

>  <r_qp_QPlogPC16>  (1339) 
12.314

>  <r_qp_QPlogPo/w>  (1339) 
4.3799999999999999

>  <r_qp_QPlogPoct>  (1339) 
18.568000000000001

>  <r_qp_QPlogPw>  (1339) 
9.9860000000000007

>  <r_qp_QPlogS>  (1339) 
-5.0570000000000004

>  <r_qp_QPpolrz>  (1339) 
42.941000000000003

>  <r_qp_SASA>  (1339) 
648.04999999999995

>  <r_qp_SAamideO>  (1339) 
0

>  <r_qp_SAfluorine>  (1339) 
38.590000000000003

>  <r_qp_WPSA>  (1339) 
38.590000000000003

>  <r_qp_accptHB>  (1339) 
4.5

>  <r_qp_dip^2/V>  (1339) 
0.020986000000000001

>  <r_qp_dipole>  (1339) 
4.9320000000000004

>  <r_qp_donorHB>  (1339) 
1

>  <r_qp_glob>  (1339) 
0.8234918

>  <r_qp_mol_MW>  (1339) 
360.43000000000001

>  <r_qp_volume>  (1339) 
1159.1880000000001

>  <r_sd_BIOSOLVEIT.INFINISEE\_FTREES\_SIMILARITY>  (1339) 
0.92800000000000005

>  <r_sd_BIOSOLVEIT.LOGP>  (1339) 
3.2607200000000001

>  <r_sd_BIOSOLVEIT.MOLECULAR\_WEIGHT>  (1339) 
361.43799999999999

>  <r_sd_BIOSOLVEIT.TPSA>  (1339) 
33.539999999999999

>  <i_epik_Tot_Q>  (1339) 
0

>  <i_epik_Tot_abs_Q>  (1339) 
0

>  <i_f3d_flags>  (1339) 
0

>  <i_i_glide_confnum>  (1339) 
4

>  <i_i_glide_lignum>  (1339) 
110

>  <i_i_glide_posenum>  (1339) 
4

>  <i_i_glide_rotatable_bonds>  (1339) 
3

>  <i_lp_mmshare_version>  (1339) 
65135

>  <i_m_ct_format>  (1339) 
2

>  <i_m_source_file_index>  (1339) 
730

>  <i_qp_#NandO>  (1339) 
3

>  <i_qp_#acid>  (1339) 
0

>  <i_qp_#amide>  (1339) 
0

>  <i_qp_#amidine>  (1339) 
0

>  <i_qp_#amine>  (1339) 
1

>  <i_qp_#in34>  (1339) 
0

>  <i_qp_#in56>  (1339) 
18

>  <i_qp_#metab>  (1339) 
8

>  <i_qp_#nonHatm>  (1339) 
27

>  <i_qp_#noncon>  (1339) 
2

>  <i_qp_#ringatoms>  (1339) 
23

>  <i_qp_#rotor>  (1339) 
2

>  <i_qp_#rtvFG>  (1339) 
0

>  <i_qp_#stars>  (1339) 
0

>  <i_qp_CNS>  (1339) 
1

>  <i_qp_HumanOralAbsorption>  (1339) 
3

>  <i_qp_RuleOfFive>  (1339) 
0

>  <i_qp_RuleOfThree>  (1339) 
1

>  <i_sd_BIOSOLVEIT.INFINISEE\_REAGENT1\_NAME>  (1339) 
17849930

>  <i_sd_BIOSOLVEIT.INFINISEE\_REAGENT2\_NAME>  (1339) 
22388964

>  <i_sd_BIOSOLVEIT.INFINISEE\_RESULT\_RANK>  (1339) 
6461

>  <i_sd_version>  (1339) 
0

>  <b_lp_Chiralities_Consistent>  (1339) 
1

>  <b_sd_chiral_flag>  (1339) 
0

>  <canonical_id>  (1339) 
ATP-HTVS-D3B4C31C9E9F

>  <compound_code>  (1339) 
23329

>  <title>  (1339) 
m_2230bdc____17849930____22388964

>  <variant>  (1339) 
23329-1

>  <source_file>  (1339) 
运行/运行/ATP-VSW/ATP-VSW-DOCK_HTVS_1-001_lib/ATP-VSW-DOCK_HTVS_1-001_lib

>  <canonical_smiles>  (1339) 
Cc1ccc(CN2CC(=O)Nc3ccccc3[C@H]2c2ccccc2)cc1F

>  <scaffold>  (1339) 
O=C1CN(Cc2ccccc2)C(c2ccccc2)c2ccccc2N1

>  <molecular_formula>  (1339) 
C23H21FN2O

$$$$
ATP-HTVS-D3B596BB619E
     RDKit          3D

 70 73  0  0  0  0  0  0  0  0999 V2000
  200.2350  178.2001  152.7987 S   0  0  0  0  0  0  0  0  0  0  0  0
  200.4619  177.7039  154.4710 C   0  0  0  0  0  0  0  0  0  0  0  0
  199.8378  178.6299  155.3786 C   0  0  0  0  0  0  0  0  0  0  0  0
  199.9945  178.3419  156.7677 C   0  0  0  0  0  0  0  0  0  0  0  0
  200.6853  177.2064  157.2218 C   0  0  0  0  0  0  0  0  0  0  0  0
  201.2763  176.3195  156.3078 C   0  0  0  0  0  0  0  0  0  0  0  0
  201.1720  176.5770  154.9257 C   0  0  0  0  0  0  0  0  0  0  0  0
  199.1848  179.7166  154.6559 C   0  0  0  0  0  0  0  0  0  0  0  0
  198.5602  180.8101  155.2713 N   0  0  0  0  0  0  0  0  0  0  0  0
  197.7677  180.7755  156.4968 C   0  0  1  0  0  0  0  0  0  0  0  0
  197.5125  182.1781  157.0381 C   0  0  0  0  0  0  0  0  0  0  0  0
  197.8171  183.3477  156.2992 C   0  0  0  0  0  0  0  0  0  0  0  0
  197.6212  184.6095  156.8826 C   0  0  0  0  0  0  0  0  0  0  0  0
  197.1572  184.7237  158.2142 C   0  0  0  0  0  0  0  0  0  0  0  0
  196.9290  183.5531  158.9751 C   0  0  0  0  0  0  0  0  0  0  0  0
  197.0615  182.2980  158.3742 C   0  0  0  0  0  0  0  0  0  0  0  0
  196.8727  186.1105  158.7750 C   0  0  1  0  0  0  0  0  0  0  0  0
  196.3565  186.1485  160.1414 N   0  0  0  0  0  0  0  0  0  0  0  0
  196.3270  187.5261  160.6379 C   0  0  2  0  0  0  0  0  0  0  0  0
  195.0336  185.5527  160.2746 C   0  0  2  0  0  0  0  0  0  0  0  0
  199.3098  179.5910  153.2841 C   0  0  0  0  0  0  0  0  0  0  0  0
  198.7778  180.5251  152.2272 C   0  0  1  0  0  0  0  0  0  0  0  0
  197.4003  180.2025  151.8116 N   0  0  0  0  0  0  0  0  0  0  0  0
  197.0528  179.5589  150.6728 C   0  0  0  0  0  0  0  0  0  0  0  0
  195.8704  179.4431  150.3490 O   0  0  0  0  0  0  0  0  0  0  0  0
  198.1186  178.9836  149.7249 C   0  0  1  0  0  0  0  0  0  0  0  0
  197.6931  177.6498  149.0757 C   0  0  1  0  0  0  0  0  0  0  0  0
  198.7098  177.1418  148.0721 C   0  0  0  0  0  0  0  0  0  0  0  0
  198.9879  177.8971  146.9150 C   0  0  0  0  0  0  0  0  0  0  0  0
  199.9298  177.4373  145.9777 C   0  0  0  0  0  0  0  0  0  0  0  0
  200.6000  176.2150  146.1880 C   0  0  0  0  0  0  0  0  0  0  0  0
  200.3163  175.4543  147.3410 C   0  0  0  0  0  0  0  0  0  0  0  0
  199.3749  175.9149  148.2816 C   0  0  0  0  0  0  0  0  0  0  0  0
  201.6035  175.7266  145.1646 C   0  0  2  0  0  0  0  0  0  0  0  0
  196.3339  180.6778  152.7105 C   0  0  2  0  0  0  0  0  0  0  0  0
  199.5635  178.9784  157.5270 H   0  0  0  0  0  0  0  0  0  0  0  0
  200.7396  177.0278  158.2854 H   0  0  0  0  0  0  0  0  0  0  0  0
  201.8094  175.4544  156.6742 H   0  0  0  0  0  0  0  0  0  0  0  0
  201.6431  175.9174  154.2139 H   0  0  0  0  0  0  0  0  0  0  0  0
  198.2077  181.4973  154.6237 H   0  0  0  0  0  0  0  0  0  0  0  0
  196.8061  180.2784  156.3124 H   0  0  0  0  0  0  0  0  0  0  0  0
  198.2707  180.2520  157.3137 H   0  0  0  0  0  0  0  0  0  0  0  0
  198.2296  183.3140  155.3011 H   0  0  0  0  0  0  0  0  0  0  0  0
  197.8413  185.4967  156.2855 H   0  0  0  0  0  0  0  0  0  0  0  0
  196.5757  183.6266  159.9984 H   0  0  0  0  0  0  0  0  0  0  0  0
  196.8259  181.3905  158.9229 H   0  0  0  0  0  0  0  0  0  0  0  0
  197.8109  186.6574  158.7191 H   0  0  0  0  0  0  0  0  0  0  0  0
  196.1869  186.6480  158.1183 H   0  0  0  0  0  0  0  0  0  0  0  0
  196.0620  187.5354  161.6908 H   0  0  0  0  0  0  0  0  0  0  0  0
  195.5864  188.1086  160.1018 H   0  0  0  0  0  0  0  0  0  0  0  0
  197.2907  188.0326  160.5425 H   0  0  0  0  0  0  0  0  0  0  0  0
  194.7714  185.5649  161.3326 H   0  0  0  0  0  0  0  0  0  0  0  0
  195.0247  184.5253  159.9319 H   0  0  0  0  0  0  0  0  0  0  0  0
  194.2930  186.1956  159.7776 H   0  0  0  0  0  0  0  0  0  0  0  0
  198.7893  181.5557  152.5892 H   0  0  0  0  0  0  0  0  0  0  0  0
  199.4739  180.5684  151.3847 H   0  0  0  0  0  0  0  0  0  0  0  0
  198.2943  179.7391  148.9563 H   0  0  0  0  0  0  0  0  0  0  0  0
  199.0670  178.8053  150.2245 H   0  0  0  0  0  0  0  0  0  0  0  0
  197.5513  176.9038  149.8586 H   0  0  0  0  0  0  0  0  0  0  0  0
  196.7384  177.7482  148.5553 H   0  0  0  0  0  0  0  0  0  0  0  0
  198.4732  178.8302  146.7354 H   0  0  0  0  0  0  0  0  0  0  0  0
  200.1242  178.0126  145.0856 H   0  0  0  0  0  0  0  0  0  0  0  0
  200.8146  174.5105  147.5056 H   0  0  0  0  0  0  0  0  0  0  0  0
  199.1695  175.3179  149.1587 H   0  0  0  0  0  0  0  0  0  0  0  0
  201.9101  174.7004  145.3669 H   0  0  0  0  0  0  0  0  0  0  0  0
  202.4918  176.3586  145.1784 H   0  0  0  0  0  0  0  0  0  0  0  0
  201.1735  175.7618  144.1620 H   0  0  0  0  0  0  0  0  0  0  0  0
  195.5939  179.8875  152.8803 H   0  0  0  0  0  0  0  0  0  0  0  0
  195.8306  181.5500  152.2818 H   0  0  0  0  0  0  0  0  0  0  0  0
  196.6924  180.9766  153.6962 H   0  0  0  0  0  0  0  0  0  0  0  0
  1  2  1  0
  1 21  1  0
  2  3  1  0
  2  7  2  0
  3  4  2  0
  3  8  1  0
  4  5  1  0
  4 36  1  0
  5  6  2  0
  5 37  1  0
  6  7  1  0
  6 38  1  0
  7 39  1  0
  8  9  1  0
  8 21  2  0
  9 10  1  0
  9 40  1  0
 10 11  1  0
 10 41  1  6
 10 42  1  0
 11 12  1  0
 11 16  2  0
 12 13  2  0
 12 43  1  0
 13 14  1  0
 13 44  1  0
 14 15  2  0
 14 17  1  0
 15 16  1  0
 15 45  1  0
 16 46  1  0
 17 18  1  0
 17 47  1  1
 17 48  1  0
 18 19  1  0
 18 20  1  0
 19 49  1  1
 19 50  1  0
 19 51  1  0
 20 52  1  1
 20 53  1  0
 20 54  1  0
 21 22  1  0
 22 23  1  0
 22 55  1  1
 22 56  1  0
 23 24  1  0
 23 35  1  0
 24 25  2  0
 24 26  1  0
 26 27  1  0
 26 57  1  6
 26 58  1  0
 27 28  1  0
 27 59  1  1
 27 60  1  0
 28 29  1  0
 28 33  2  0
 29 30  2  0
 29 61  1  0
 30 31  1  0
 30 62  1  0
 31 32  2  0
 31 34  1  0
 32 33  1  0
 32 63  1  0
 33 64  1  0
 34 65  1  1
 34 66  1  0
 34 67  1  0
 35 68  1  1
 35 69  1  0
 35 70  1  0
M  END
>  <s_epik_cmdline>  (1340) 
J2VwaWtfcHl0aG9uJywgJy1waCcsICc3LjAwMDAwMCcsICctcGh0JywgJzIuMDAwMDAwJywgJy1tcycsICcxNicsICctdG4nLCAnOCcsICctbWEnLCAnMjAwJywgJy1pbWFlJywgJzxpbmZpbGUubWFlPicsICctb21hZScsICc8b3V0ZmlsZS5tYWU+Jw==

>  <s_epik_input>  (1340) 
W0NIM11OKFtDSDNdKVtDSDJdYyhbY0hdW2NIXTEpW2NIXVtjSF1jMVtDSDJdW05IXWMoYyhjMjMpW2NIXVtjSF1bY0hdW2NIXTMpYyhzMilbQ0gyXU4oW0NIM10pQyg9TylbQ0gyXVtDSDJdYzRbY0hdW2NIXWMoW0NIM10pW2NIXVtjSF00

>  <s_i_glide_gridfile>  (1340) 
ATP-Grid

>  <s_lp_Force_Field>  (1340) 
OPLS_2005

>  <s_lp_Variant>  (1340) 
rxn502c____EMOL39121351____EMOL49259969____EMOL50155899-2

>  <s_lp_label>  (1340) 
2343_sdstereoexpander_1_neutralizer_1_epik_2_stereoizer_1

>  <s_m_source_file>  (1340) 
ATP-VSW-LIGPREP-003-in.maegz

>  <s_sd_BIOSOLVEIT.INFINISEE\_QUERY\_NAME>  (1340) 
Ref-Lig

>  <s_sd_BIOSOLVEIT.INFINISEE\_QUERY\_SMILES>  (1340) 
S(c1nc2c(cc1C[NH2+]Cc3ccc(cc3)C[NH+](C)C)cccc2)Cc4ccccc4

>  <s_sd_BIOSOLVEIT.INFINISEE\_REACTION\_NAME>  (1340) 
rxn502c

>  <s_sd_BIOSOLVEIT.INFINISEE\_REAGENT1\_NAME>  (1340) 
EMOL39121351

>  <s_sd_BIOSOLVEIT.INFINISEE\_REAGENT1\_SMILES>  (1340) 
ClC(=O)CCc1ccc(cc1)C

>  <s_sd_BIOSOLVEIT.INFINISEE\_REAGENT2\_NAME>  (1340) 
EMOL49259969

>  <s_sd_BIOSOLVEIT.INFINISEE\_REAGENT2\_SMILES>  (1340) 
ClC=1c2c(SC1CNC)cccc2

>  <s_sd_BIOSOLVEIT.INFINISEE\_REAGENT3\_NAME>  (1340) 
EMOL50155899

>  <s_sd_BIOSOLVEIT.INFINISEE\_REAGENT3\_SMILES>  (1340) 
N(Cc1ccc(cc1)CN)(C)C

>  <s_sd_BIOSOLVEIT.INFINISEE\_SPACE>  (1340) 
eXplore_7tr_2022-12

>  <s_vsw_compound_code>  (1340) 
74947

>  <s_vsw_variant>  (1340) 
74947-2

>  <r_epik_Charging_Adjusted_Penalty>  (1340) 
1.6155483608401799

>  <r_epik_Ionization_Penalty>  (1340) 
1.6155999999999999

>  <r_epik_Ionization_Penalty_Charging>  (1340) 
0

>  <r_epik_Ionization_Penalty_Neutral>  (1340) 
1.6155999999999999

>  <r_epik_State_Penalty>  (1340) 
1.6154999999999999

>  <r_i_docking_score>  (1340) 
-1.62863861474141

>  <r_i_glide_ecoul>  (1340) 
-1.1932395696639999

>  <r_i_glide_eff_state_penalty>  (1340) 
1.6154999999999999

>  <r_i_glide_einternal>  (1340) 
5.7173948287963903

>  <r_i_glide_emodel>  (1340) 
-48.558287366413701

>  <r_i_glide_energy>  (1340) 
-42.3688148260117

>  <r_i_glide_erotb>  (1340) 
0.86128775629811205

>  <r_i_glide_esite>  (1340) 
-0.024743320359037601

>  <r_i_glide_evdw>  (1340) 
-41.175575256347699

>  <r_i_glide_gscore>  (1340) 
-3.2441386147414102

>  <r_i_glide_hbond>  (1340) 
0

>  <r_i_glide_ligand_efficiency>  (1340) 
-0.046532531849754602

>  <r_i_glide_ligand_efficiency_ln>  (1340) 
-0.35752232162231601

>  <r_i_glide_ligand_efficiency_sa>  (1340) 
-0.15221099708112201

>  <r_i_glide_lipo>  (1340) 
-1.5672304079277199

>  <r_i_glide_metal>  (1340) 
-0

>  <r_i_glide_rewards>  (1340) 
-0.27568794448578499

>  <r_lp_Energy>  (1340) 
30.804759000000001

>  <r_qp_ACxDN^.5/SA>  (1340) 
0.0079547000000000003

>  <r_qp_CIQPlogS>  (1340) 
-5.2229999999999999

>  <r_qp_EA(eV)>  (1340) 
0.60899999999999999

>  <r_qp_FISA>  (1340) 
35.841999999999999

>  <r_qp_FOSA>  (1340) 
408.18799999999999

>  <r_qp_IP(eV)>  (1340) 
8.0190000000000001

>  <r_qp_Jm>  (1340) 
0.02416719168739

>  <r_qp_PISA>  (1340) 
290.24799999999999

>  <r_qp_PSA>  (1340) 
41.295999999999999

>  <r_qp_PercentHumanOralAbsorption>  (1340) 
95.415999999999997

>  <r_qp_QPPCaco>  (1340) 
180.65299999999999

>  <r_qp_QPPMDCK>  (1340) 
198.136

>  <r_qp_QPlogBB>  (1340) 
0.47299999999999998

>  <r_qp_QPlogHERG>  (1340) 
-5.4930000000000003

>  <r_qp_QPlogKhsa>  (1340) 
0.82399999999999995

>  <r_qp_QPlogKp>  (1340) 
-4.3230000000000004

>  <r_qp_QPlogPC16>  (1340) 
14.789999999999999

>  <r_qp_QPlogPo/w>  (1340) 
4.7949999999999999

>  <r_qp_QPlogPoct>  (1340) 
21.817

>  <r_qp_QPlogPw>  (1340) 
10.722

>  <r_qp_QPlogS>  (1340) 
-2.98

>  <r_qp_QPpolrz>  (1340) 
50.808

>  <r_qp_SASA>  (1340) 
754.274

>  <r_qp_SAamideO>  (1340) 
24.242000000000001

>  <r_qp_SAfluorine>  (1340) 
0

>  <r_qp_WPSA>  (1340) 
19.995999999999999

>  <r_qp_accptHB>  (1340) 
6

>  <r_qp_dip^2/V>  (1340) 
0.029985299999999999

>  <r_qp_dipole>  (1340) 
6.7389999999999999

>  <r_qp_donorHB>  (1340) 
1

>  <r_qp_glob>  (1340) 
0.84557539999999998

>  <r_qp_mol_MW>  (1340) 
485.68599999999998

>  <r_qp_volume>  (1340) 
1514.518

>  <r_sd_BIOSOLVEIT.INFINISEE\_FTREES\_SIMILARITY>  (1340) 
0.92100000000000004

>  <r_sd_BIOSOLVEIT.LOGP>  (1340) 
5.0575200000000002

>  <r_sd_BIOSOLVEIT.MOLECULAR\_WEIGHT>  (1340) 
486.69900000000001

>  <r_sd_BIOSOLVEIT.TPSA>  (1340) 
36.780000000000001

>  <i_epik_Tot_Q>  (1340) 
0

>  <i_epik_Tot_abs_Q>  (1340) 
0

>  <i_f3d_flags>  (1340) 
0

>  <i_i_glide_confnum>  (1340) 
8

>  <i_i_glide_lignum>  (1340) 
976

>  <i_i_glide_posenum>  (1340) 
3

>  <i_i_glide_rotatable_bonds>  (1340) 
11

>  <i_lp_mmshare_version>  (1340) 
65135

>  <i_m_ct_format>  (1340) 
2

>  <i_m_source_file_index>  (1340) 
2343

>  <i_qp_#NandO>  (1340) 
4

>  <i_qp_#acid>  (1340) 
0

>  <i_qp_#amide>  (1340) 
1

>  <i_qp_#amidine>  (1340) 
0

>  <i_qp_#amine>  (1340) 
2

>  <i_qp_#in34>  (1340) 
0

>  <i_qp_#in56>  (1340) 
21

>  <i_qp_#metab>  (1340) 
9

>  <i_qp_#nonHatm>  (1340) 
35

>  <i_qp_#noncon>  (1340) 
0

>  <i_qp_#ringatoms>  (1340) 
21

>  <i_qp_#rotor>  (1340) 
10

>  <i_qp_#rtvFG>  (1340) 
0

>  <i_qp_#stars>  (1340) 
1

>  <i_qp_CNS>  (1340) 
2

>  <i_qp_HumanOralAbsorption>  (1340) 
3

>  <i_qp_RuleOfFive>  (1340) 
0

>  <i_qp_RuleOfThree>  (1340) 
1

>  <i_sd_BIOSOLVEIT.INFINISEE\_RESULT\_RANK>  (1340) 
15330

>  <i_sd_version>  (1340) 
0

>  <b_lp_Chiralities_Consistent>  (1340) 
1

>  <b_sd_chiral_flag>  (1340) 
0

>  <canonical_id>  (1340) 
ATP-HTVS-D3B596BB619E

>  <compound_code>  (1340) 
74947

>  <title>  (1340) 
rxn502c____EMOL39121351____EMOL49259969____EMOL50155899

>  <variant>  (1340) 
74947-2

>  <source_file>  (1340) 
运行/运行/ATP-VSW/ATP-VSW-DOCK_HTVS_1-003_lib/ATP-VSW-DOCK_HTVS_1-003_lib.mae

>  <canonical_smiles>  (1340) 
Cc1ccc(CCC(=O)N(C)Cc2sc3ccccc3c2NCc2ccc(CN(C)C)cc2)cc1

>  <scaffold>  (1340) 
O=C(CCc1ccccc1)NCc1sc2ccccc2c1NCc1ccccc1

>  <molecular_formula>  (1340) 
C30H35N3OS

$$$$
ATP-HTVS-D3D42427DD6F
     RDKit          3D

 62 64  0  0  0  0  0  0  0  0999 V2000
  198.4069  175.7807  150.8347 O   0  0  0  0  0  0  0  0  0  0  0  0
  199.0793  176.8042  150.6855 C   0  0  0  0  0  0  0  0  0  0  0  0
  200.0874  177.1232  151.5590 N   0  0  0  0  0  0  0  0  0  0  0  0
  200.4118  176.2645  152.6557 C   0  0  0  0  0  0  0  0  0  0  0  0
  200.3838  176.7166  154.0062 C   0  0  0  0  0  0  0  0  0  0  0  0
  199.9614  178.0209  154.3289 N   0  0  0  0  0  0  0  0  0  0  0  0
  199.6046  178.3885  155.6910 C   0  0  1  0  0  0  0  0  0  0  0  0
  199.2738  179.8595  155.8486 C   0  0  0  0  0  0  0  0  0  0  0  0
  197.9430  180.2610  156.0733 C   0  0  0  0  0  0  0  0  0  0  0  0
  197.6275  181.6240  156.2603 C   0  0  0  0  0  0  0  0  0  0  0  0
  198.6546  182.5887  156.2080 C   0  0  0  0  0  0  0  0  0  0  0  0
  199.9859  182.1909  155.9805 C   0  0  0  0  0  0  0  0  0  0  0  0
  200.2962  180.8283  155.8004 C   0  0  0  0  0  0  0  0  0  0  0  0
  196.1906  182.0425  156.5280 C   0  0  1  0  0  0  0  0  0  0  0  0
  195.7787  181.8403  157.9383 N   0  0  2  0  0  0  0  0  0  0  0  0
  194.3307  182.0646  158.1310 C   0  0  2  0  0  0  0  0  0  0  0  0
  196.5884  182.5966  158.9182 C   0  0  2  0  0  0  0  0  0  0  0  0
  200.7922  175.8000  155.0097 C   0  0  0  0  0  0  0  0  0  0  0  0
  201.1936  174.5372  154.7634 N   0  0  0  0  0  0  0  0  0  0  0  0
  201.1880  174.1115  153.4866 C   0  0  0  0  0  0  0  0  0  0  0  0
  200.8177  174.9338  152.4031 C   0  0  0  0  0  0  0  0  0  0  0  0
  200.8607  178.3724  151.4500 C   0  0  2  0  0  0  0  0  0  0  0  0
  198.6950  177.7541  149.5048 C   0  0  2  0  0  0  0  0  0  0  0  0
  199.8369  178.0090  148.7091 O   0  0  0  0  0  0  0  0  0  0  0  0
  198.0206  179.0408  150.0184 C   0  0  0  0  0  0  0  0  0  0  0  0
  198.1604  180.2570  149.3053 C   0  0  0  0  0  0  0  0  0  0  0  0
  197.5473  181.4390  149.7688 C   0  0  0  0  0  0  0  0  0  0  0  0
  196.7802  181.4245  150.9479 C   0  0  0  0  0  0  0  0  0  0  0  0
  196.6284  180.2252  151.6634 C   0  0  0  0  0  0  0  0  0  0  0  0
  197.2410  179.0465  151.2027 C   0  0  0  0  0  0  0  0  0  0  0  0
  197.7655  177.0591  148.4863 C   0  0  2  0  0  0  0  0  0  0  0  0
  199.6120  178.6179  153.5937 H   0  0  0  0  0  0  0  0  0  0  0  0
  198.7502  177.7860  156.0026 H   0  0  0  0  0  0  0  0  0  0  0  0
  200.4206  178.1648  156.3814 H   0  0  0  0  0  0  0  0  0  0  0  0
  197.1620  179.5167  156.1331 H   0  0  0  0  0  0  0  0  0  0  0  0
  198.4269  183.6360  156.3529 H   0  0  0  0  0  0  0  0  0  0  0  0
  200.7703  182.9327  155.9533 H   0  0  0  0  0  0  0  0  0  0  0  0
  201.3204  180.5253  155.6372 H   0  0  0  0  0  0  0  0  0  0  0  0
  196.0471  183.0886  156.2502 H   0  0  0  0  0  0  0  0  0  0  0  0
  195.5485  181.4514  155.8743 H   0  0  0  0  0  0  0  0  0  0  0  0
  194.0672  183.1056  157.9350 H   0  0  0  0  0  0  0  0  0  0  0  0
  194.0354  181.8269  159.1553 H   0  0  0  0  0  0  0  0  0  0  0  0
  193.7453  181.4291  157.4674 H   0  0  0  0  0  0  0  0  0  0  0  0
  196.5127  183.6696  158.7371 H   0  0  0  0  0  0  0  0  0  0  0  0
  197.6387  182.3167  158.8724 H   0  0  0  0  0  0  0  0  0  0  0  0
  196.2492  182.4054  159.9350 H   0  0  0  0  0  0  0  0  0  0  0  0
  200.8161  176.0672  156.0544 H   0  0  0  0  0  0  0  0  0  0  0  0
  201.5104  173.0954  153.3145 H   0  0  0  0  0  0  0  0  0  0  0  0
  200.8581  174.5418  151.3969 H   0  0  0  0  0  0  0  0  0  0  0  0
  201.5648  178.4926  152.2723 H   0  0  0  0  0  0  0  0  0  0  0  0
  200.2202  179.2538  151.4701 H   0  0  0  0  0  0  0  0  0  0  0  0
  201.4815  178.3925  150.5570 H   0  0  0  0  0  0  0  0  0  0  0  0
  200.4822  178.4365  149.2432 H   0  0  0  0  0  0  0  0  0  0  0  0
  198.7410  180.2909  148.3930 H   0  0  0  0  0  0  0  0  0  0  0  0
  197.6635  182.3592  149.2152 H   0  0  0  0  0  0  0  0  0  0  0  0
  196.3120  182.3288  151.3066 H   0  0  0  0  0  0  0  0  0  0  0  0
  196.0470  180.2031  152.5720 H   0  0  0  0  0  0  0  0  0  0  0  0
  197.1082  178.1535  151.7906 H   0  0  0  0  0  0  0  0  0  0  0  0
  196.8049  176.8017  148.9323 H   0  0  0  0  0  0  0  0  0  0  0  0
  198.2097  176.1411  148.0925 H   0  0  0  0  0  0  0  0  0  0  0  0
  197.5618  177.7114  147.6341 H   0  0  0  0  0  0  0  0  0  0  0  0
  195.9203  180.8391  158.1078 H   0  0  0  0  0  0  0  0  0  0  0  0
  1  2  2  0
  2  3  1  0
  2 23  1  0
  3  4  1  0
  3 22  1  0
  4  5  1  0
  4 21  2  0
  5  6  1  0
  5 18  2  0
  6  7  1  0
  6 32  1  0
  7  8  1  0
  7 33  1  1
  7 34  1  0
  8  9  2  0
  8 13  1  0
  9 10  1  0
  9 35  1  0
 10 11  2  0
 10 14  1  0
 11 12  1  0
 11 36  1  0
 12 13  2  0
 12 37  1  0
 13 38  1  0
 14 15  1  0
 14 39  1  6
 14 40  1  0
 15 16  1  0
 15 17  1  0
 15 62  1  1
 16 41  1  6
 16 42  1  0
 16 43  1  0
 17 44  1  6
 17 45  1  0
 17 46  1  0
 18 19  1  0
 18 47  1  0
 19 20  2  0
 20 21  1  0
 20 48  1  0
 21 49  1  0
 22 50  1  1
 22 51  1  0
 22 52  1  0
 23 24  1  6
 23 25  1  0
 23 31  1  0
 24 53  1  0
 25 26  2  0
 25 30  1  0
 26 27  1  0
 26 54  1  0
 27 28  2  0
 27 55  1  0
 28 29  1  0
 28 56  1  0
 29 30  2  0
 29 57  1  0
 30 58  1  0
 31 59  1  1
 31 60  1  0
 31 61  1  0
M  CHG  1  15   1
M  END
>  <s_epik_cmdline>  (1341) 
J2VwaWtfcHl0aG9uJywgJy1waCcsICc3LjAwMDAwMCcsICctcGh0JywgJzIuMDAwMDAwJywgJy1tcycsICcxNicsICctdG4nLCAnOCcsICctbWEnLCAnMjAwJywgJy1pbWFlJywgJzxpbmZpbGUubWFlPicsICctb21hZScsICc8b3V0ZmlsZS5tYWU+Jw==

>  <s_epik_input>  (1341) 
W2NIXTFbY0hdW2NIXVtjSF1bY0hdYzFbQ0BdKFtPSF0pKFtDSDNdKUMoPU8pTihbQ0gzXSljMmMoW2NIXW5bY0hdW2NIXTIpW05IXVtDSDJdYzNbY0hdYyhbY0hdW2NIXVtjSF0zKVtDSDJdTihbQ0gzXSlbQ0gzXQ==

>  <s_i_glide_gridfile>  (1341) 
ATP-Grid

>  <s_lp_Force_Field>  (1341) 
OPLS_2005

>  <s_lp_Variant>  (1341) 
rxn502a____EMOL299976369____EMOL81846330____EMOL2873214-1

>  <s_lp_label>  (1341) 
2939_sdstereoexpander_1_neutralizer_1_epik_1_stereoizer_1

>  <s_m_source_file>  (1341) 
ATP-VSW-LIGPREP-001-in.maegz

>  <s_sd_BIOSOLVEIT.INFINISEE\_QUERY\_NAME>  (1341) 
Ref-Lig

>  <s_sd_BIOSOLVEIT.INFINISEE\_QUERY\_SMILES>  (1341) 
S(c1nc2c(cc1C[NH2+]Cc3ccc(cc3)C[NH+](C)C)cccc2)Cc4ccccc4

>  <s_sd_BIOSOLVEIT.INFINISEE\_REACTION\_NAME>  (1341) 
rxn502a

>  <s_sd_BIOSOLVEIT.INFINISEE\_REAGENT1\_NAME>  (1341) 
EMOL299976369

>  <s_sd_BIOSOLVEIT.INFINISEE\_REAGENT1\_SMILES>  (1341) 
O=C(O)C(O)(c1ccccc1)C

>  <s_sd_BIOSOLVEIT.INFINISEE\_REAGENT2\_NAME>  (1341) 
EMOL81846330

>  <s_sd_BIOSOLVEIT.INFINISEE\_REAGENT2\_SMILES>  (1341) 
Ic1c(NC)ccnc1

>  <s_sd_BIOSOLVEIT.INFINISEE\_REAGENT3\_NAME>  (1341) 
EMOL2873214

>  <s_sd_BIOSOLVEIT.INFINISEE\_REAGENT3\_SMILES>  (1341) 
N(Cc1cc(ccc1)CN)(C)C

>  <s_sd_BIOSOLVEIT.INFINISEE\_SPACE>  (1341) 
eXplore_7tr_2022-12

>  <s_vsw_compound_code>  (1341) 
94017

>  <s_vsw_variant>  (1341) 
94017-1

>  <r_epik_Charging_Adjusted_Penalty>  (1341) 
0.18367017961127899

>  <r_epik_Ionization_Penalty>  (1341) 
0.1396

>  <r_epik_Ionization_Penalty_Charging>  (1341) 
0.0441

>  <r_epik_Ionization_Penalty_Neutral>  (1341) 
0.095500000000000002

>  <r_epik_State_Penalty>  (1341) 
0.1396

>  <r_i_docking_score>  (1341) 
-4.5076900797212396

>  <r_i_glide_ecoul>  (1341) 
-9.4231414794921893

>  <r_i_glide_eff_state_penalty>  (1341) 
0.1396

>  <r_i_glide_einternal>  (1341) 
7.8370618820190403

>  <r_i_glide_emodel>  (1341) 
-56.628861465951999

>  <r_i_glide_energy>  (1341) 
-42.339038848877003

>  <r_i_glide_erotb>  (1341) 
0.78681599953611503

>  <r_i_glide_esite>  (1341) 
-0.10531989591110601

>  <r_i_glide_evdw>  (1341) 
-32.915897369384801

>  <r_i_glide_gscore>  (1341) 
-4.6472900797212402

>  <r_i_glide_hbond>  (1341) 
-0.20000000000000001

>  <r_i_glide_ligand_efficiency>  (1341) 
-0.14540935741036301

>  <r_i_glide_ligand_efficiency_ln>  (1341) 
-1.0166222570876

>  <r_i_glide_ligand_efficiency_sa>  (1341) 
-0.45678614152271302

>  <r_i_glide_lipo>  (1341) 
-1.0684424844279901

>  <r_i_glide_metal>  (1341) 
-0

>  <r_i_glide_rewards>  (1341) 
-1.0010776085252

>  <r_lp_Energy>  (1341) 
37.321316000000003

>  <r_lp_tautomer_probability>  (1341) 
0.999999999999999

>  <r_qp_ACxDN^.5/SA>  (1341) 
0.016340400000000001

>  <r_qp_CIQPlogS>  (1341) 
-4.4370000000000003

>  <r_qp_EA(eV)>  (1341) 
0.13700000000000001

>  <r_qp_FISA>  (1341) 
76.840999999999994

>  <r_qp_FOSA>  (1341) 
333.37400000000002

>  <r_qp_IP(eV)>  (1341) 
8.5459999999999994

>  <r_qp_Jm>  (1341) 
0.096431589787702304

>  <r_qp_PISA>  (1341) 
303.798

>  <r_qp_PSA>  (1341) 
65.951999999999998

>  <r_qp_PercentHumanOralAbsorption>  (1341) 
95.078999999999994

>  <r_qp_QPPCaco>  (1341) 
461.44600000000003

>  <r_qp_QPPMDCK>  (1341) 
237.238

>  <r_qp_QPlogBB>  (1341) 
-0.33000000000000002

>  <r_qp_QPlogHERG>  (1341) 
-6.5149999999999997

>  <r_qp_QPlogKhsa>  (1341) 
0.28100000000000003

>  <r_qp_QPlogKp>  (1341) 
-3.0640000000000001

>  <r_qp_QPlogPC16>  (1341) 
13.853999999999999

>  <r_qp_QPlogPo/w>  (1341) 
3.4929999999999999

>  <r_qp_QPlogPoct>  (1341) 
22.126999999999999

>  <r_qp_QPlogPw>  (1341) 
13.097

>  <r_qp_QPlogS>  (1341) 
-3.5739999999999998

>  <r_qp_QPpolrz>  (1341) 
44.908999999999999

>  <r_qp_SASA>  (1341) 
714.01199999999994

>  <r_qp_SAamideO>  (1341) 
0

>  <r_qp_SAfluorine>  (1341) 
0

>  <r_qp_WPSA>  (1341) 
0

>  <r_qp_accptHB>  (1341) 
8.25

>  <r_qp_dip^2/V>  (1341) 
0.0086175999999999996

>  <r_qp_dipole>  (1341) 
3.4079999999999999

>  <r_qp_donorHB>  (1341) 
2

>  <r_qp_glob>  (1341) 
0.82645550000000001

>  <r_qp_mol_MW>  (1341) 
418.53800000000001

>  <r_qp_volume>  (1341) 
1347.846

>  <r_sd_BIOSOLVEIT.INFINISEE\_FTREES\_SIMILARITY>  (1341) 
0.90400000000000003

>  <r_sd_BIOSOLVEIT.LOGP>  (1341) 
2.2086999999999999

>  <r_sd_BIOSOLVEIT.MOLECULAR\_WEIGHT>  (1341) 
419.54599999999999

>  <r_sd_BIOSOLVEIT.TPSA>  (1341) 
69.900000000000006

>  <i_epik_Tot_Q>  (1341) 
1

>  <i_epik_Tot_abs_Q>  (1341) 
1

>  <i_f3d_flags>  (1341) 
0

>  <i_i_glide_confnum>  (1341) 
4

>  <i_i_glide_lignum>  (1341) 
1381

>  <i_i_glide_posenum>  (1341) 
5

>  <i_i_glide_rotatable_bonds>  (1341) 
10

>  <i_lp_mmshare_version>  (1341) 
65135

>  <i_m_ct_format>  (1341) 
2

>  <i_m_source_file_index>  (1341) 
2939

>  <i_qp_#NandO>  (1341) 
6

>  <i_qp_#acid>  (1341) 
0

>  <i_qp_#amide>  (1341) 
0

>  <i_qp_#amidine>  (1341) 
0

>  <i_qp_#amine>  (1341) 
1

>  <i_qp_#in34>  (1341) 
0

>  <i_qp_#in56>  (1341) 
18

>  <i_qp_#metab>  (1341) 
10

>  <i_qp_#nonHatm>  (1341) 
31

>  <i_qp_#noncon>  (1341) 
0

>  <i_qp_#ringatoms>  (1341) 
18

>  <i_qp_#rotor>  (1341) 
9

>  <i_qp_#rtvFG>  (1341) 
0

>  <i_qp_#stars>  (1341) 
1

>  <i_qp_CNS>  (1341) 
1

>  <i_qp_HumanOralAbsorption>  (1341) 
1

>  <i_qp_RuleOfFive>  (1341) 
0

>  <i_qp_RuleOfThree>  (1341) 
1

>  <i_sd_BIOSOLVEIT.INFINISEE\_RESULT\_RANK>  (1341) 
79055

>  <i_sd_version>  (1341) 
0

>  <b_lp_Chiralities_Consistent>  (1341) 
1

>  <b_sd_chiral_flag>  (1341) 
0

>  <canonical_id>  (1341) 
ATP-HTVS-D3D42427DD6F

>  <compound_code>  (1341) 
94017

>  <title>  (1341) 
rxn502a____EMOL299976369____EMOL81846330____EMOL2873214

>  <variant>  (1341) 
94017-1

>  <source_file>  (1341) 
运行/运行/ATP-VSW/ATP-VSW-DOCK_HTVS_1-001_lib/ATP-VSW-DOCK_HTVS_1-001_lib

>  <canonical_smiles>  (1341) 
CN(C(=O)[C@](C)(O)c1ccccc1)c1ccncc1NCc1cccc(C[NH+](C)C)c1

>  <scaffold>  (1341) 
O=C(Cc1ccccc1)Nc1ccncc1NCc1ccccc1

>  <molecular_formula>  (1341) 
C25H31N4O2+

$$$$
ATP-HTVS-D41B937429B7
     RDKit          3D

 64 67  0  0  0  0  0  0  0  0999 V2000
  197.3314  180.1055  149.8599 O   0  0  0  0  0  0  0  0  0  0  0  0
  197.9061  179.2778  150.5794 C   0  0  0  0  0  0  0  0  0  0  0  0
  198.0595  179.3993  151.9108 N   0  0  0  0  0  0  0  0  0  0  0  0
  197.8524  180.5080  152.7773 C   0  0  0  0  0  0  0  0  0  0  0  0
  198.3348  180.4103  154.1054 C   0  0  0  0  0  0  0  0  0  0  0  0
  199.0116  179.2134  154.4706 N   0  0  0  0  0  0  0  0  0  0  0  0
  200.4706  179.0699  154.2799 C   0  0  1  0  0  0  0  0  0  0  0  0
  200.9451  177.6244  154.4297 C   0  0  0  0  0  0  0  0  0  0  0  0
  201.5329  177.1849  155.6365 C   0  0  0  0  0  0  0  0  0  0  0  0
  201.9583  175.8430  155.7812 C   0  0  0  0  0  0  0  0  0  0  0  0
  201.7978  174.9281  154.7236 C   0  0  0  0  0  0  0  0  0  0  0  0
  201.2129  175.3540  153.5202 C   0  0  0  0  0  0  0  0  0  0  0  0
  200.7887  176.6924  153.3790 C   0  0  0  0  0  0  0  0  0  0  0  0
  201.0369  179.6907  152.9674 C   0  0  2  0  0  0  0  0  0  0  0  0
  198.3640  178.4630  155.5507 C   0  0  2  0  0  0  0  0  0  0  0  0
  198.1055  181.5015  155.0027 C   0  0  0  0  0  0  0  0  0  0  0  0
  197.4392  182.6658  154.5080 C   0  0  0  0  0  0  0  0  0  0  0  0
  197.0488  182.7149  153.2234 N   0  0  0  0  0  0  0  0  0  0  0  0
  197.2169  181.7052  152.3516 C   0  0  0  0  0  0  0  0  0  0  0  0
  197.1716  183.7725  155.3358 C   0  0  0  0  0  0  0  0  0  0  0  0
  197.5303  183.7343  156.6922 C   0  0  0  0  0  0  0  0  0  0  0  0
  198.1888  182.6019  157.2062 C   0  0  0  0  0  0  0  0  0  0  0  0
  198.4920  181.5081  156.3710 C   0  0  0  0  0  0  0  0  0  0  0  0
  198.5217  178.0185  150.0105 C   0  0  0  0  0  0  0  0  0  0  0  0
  199.2155  177.9760  148.7599 C   0  0  0  0  0  0  0  0  0  0  0  0
  199.7660  176.7520  148.3193 C   0  0  0  0  0  0  0  0  0  0  0  0
  199.6259  175.5744  149.0623 C   0  0  0  0  0  0  0  0  0  0  0  0
  198.9640  175.6077  150.2987 C   0  0  0  0  0  0  0  0  0  0  0  0
  198.4146  176.8160  150.7593 C   0  0  0  0  0  0  0  0  0  0  0  0
  199.4219  179.1856  147.8489 C   0  0  1  0  0  0  0  0  0  0  0  0
  198.4238  179.3202  146.7814 N   0  0  0  0  0  0  0  0  0  0  0  0
  198.4009  178.1778  145.8685 C   0  0  2  0  0  0  0  0  0  0  0  0
  198.7529  180.4988  145.9942 C   0  0  2  0  0  0  0  0  0  0  0  0
  198.5436  178.6480  152.3697 H   0  0  0  0  0  0  0  0  0  0  0  0
  200.9312  179.6377  155.1003 H   0  0  0  0  0  0  0  0  0  0  0  0
  201.6765  177.8718  156.4557 H   0  0  0  0  0  0  0  0  0  0  0  0
  202.4272  175.5277  156.7052 H   0  0  0  0  0  0  0  0  0  0  0  0
  202.1440  173.9074  154.8284 H   0  0  0  0  0  0  0  0  0  0  0  0
  201.1006  174.6603  152.6985 H   0  0  0  0  0  0  0  0  0  0  0  0
  200.3636  176.9985  152.4380 H   0  0  0  0  0  0  0  0  0  0  0  0
  202.1326  179.6321  152.9252 H   0  0  0  0  0  0  0  0  0  0  0  0
  200.7836  180.7414  152.8602 H   0  0  0  0  0  0  0  0  0  0  0  0
  200.6880  179.1756  152.0770 H   0  0  0  0  0  0  0  0  0  0  0  0
  197.3409  178.7997  155.7546 H   0  0  0  0  0  0  0  0  0  0  0  0
  198.9305  178.5012  156.4838 H   0  0  0  0  0  0  0  0  0  0  0  0
  198.3151  177.4083  155.2902 H   0  0  0  0  0  0  0  0  0  0  0  0
  196.8596  181.9060  151.3520 H   0  0  0  0  0  0  0  0  0  0  0  0
  196.6645  184.6400  154.9485 H   0  0  0  0  0  0  0  0  0  0  0  0
  197.2960  184.5721  157.3366 H   0  0  0  0  0  0  0  0  0  0  0  0
  198.4407  182.5807  158.2549 H   0  0  0  0  0  0  0  0  0  0  0  0
  198.9859  180.6557  156.8151 H   0  0  0  0  0  0  0  0  0  0  0  0
  200.2773  176.6963  147.3741 H   0  0  0  0  0  0  0  0  0  0  0  0
  200.0231  174.6412  148.6832 H   0  0  0  0  0  0  0  0  0  0  0  0
  198.8650  174.7084  150.8809 H   0  0  0  0  0  0  0  0  0  0  0  0
  197.9182  176.7988  151.7126 H   0  0  0  0  0  0  0  0  0  0  0  0
  199.4419  180.1125  148.4286 H   0  0  0  0  0  0  0  0  0  0  0  0
  200.4210  179.1110  147.4087 H   0  0  0  0  0  0  0  0  0  0  0  0
  197.7078  178.3383  145.0351 H   0  0  0  0  0  0  0  0  0  0  0  0
  198.0576  177.2795  146.3752 H   0  0  0  0  0  0  0  0  0  0  0  0
  199.3898  177.9897  145.4464 H   0  0  0  0  0  0  0  0  0  0  0  0
  198.0316  180.6246  145.1839 H   0  0  0  0  0  0  0  0  0  0  0  0
  199.7434  180.4147  145.5473 H   0  0  0  0  0  0  0  0  0  0  0  0
  198.7280  181.4023  146.6089 H   0  0  0  0  0  0  0  0  0  0  0  0
  196.5385  183.5468  152.9164 H   0  0  0  0  0  0  0  0  0  0  0  0
  1  2  2  0
  2  3  1  0
  2 24  1  0
  3  4  1  0
  3 34  1  0
  4  5  2  0
  4 19  1  0
  5  6  1  0
  5 16  1  0
  6  7  1  0
  6 15  1  0
  7  8  1  0
  7 14  1  0
  7 35  1  1
  8  9  2  0
  8 13  1  0
  9 10  1  0
  9 36  1  0
 10 11  2  0
 10 37  1  0
 11 12  1  0
 11 38  1  0
 12 13  2  0
 12 39  1  0
 13 40  1  0
 14 41  1  1
 14 42  1  0
 14 43  1  0
 15 44  1  1
 15 45  1  0
 15 46  1  0
 16 17  1  0
 16 23  2  0
 17 18  1  0
 17 20  2  0
 18 19  2  0
 18 64  1  0
 19 47  1  0
 20 21  1  0
 20 48  1  0
 21 22  2  0
 21 49  1  0
 22 23  1  0
 22 50  1  0
 23 51  1  0
 24 25  1  0
 24 29  2  0
 25 26  2  0
 25 30  1  0
 26 27  1  0
 26 52  1  0
 27 28  2  0
 27 53  1  0
 28 29  1  0
 28 54  1  0
 29 55  1  0
 30 31  1  0
 30 56  1  1
 30 57  1  0
 31 32  1  0
 31 33  1  0
 32 58  1  6
 32 59  1  0
 32 60  1  0
 33 61  1  6
 33 62  1  0
 33 63  1  0
M  CHG  1  18   1
M  END
>  <s_epik_cmdline>  (1342) 
J2VwaWtfcHl0aG9uJywgJy1waCcsICc3LjAwMDAwMCcsICctcGh0JywgJzIuMDAwMDAwJywgJy1tcycsICcxNicsICctdG4nLCAnOCcsICctbWEnLCAnMjAwJywgJy1pbWFlJywgJzxpbmZpbGUubWFlPicsICctb21hZScsICc8b3V0ZmlsZS5tYWU+Jw==

>  <s_epik_input>  (1342) 
W2NIXTFbY0hdW2NIXVtjSF1jKFtDSDJdTihbQ0gzXSlbQ0gzXSljMUMoPU8pW05IXWMoW2NIXW5jKGMyMylbY0hdW2NIXVtjSF1bY0hdMyljMk4oW0NIM10pW0NASF0oW0NIM10pYzRbY0hdW2NIXVtjSF1bY0hdW2NIXTQ=

>  <s_i_glide_gridfile>  (1342) 
ATP-Grid

>  <s_lp_Force_Field>  (1342) 
OPLS_2005

>  <s_lp_Variant>  (1342) 
rxn502b____EMOL5415347____EMOL30488121____EMOL17149431-3

>  <s_lp_label>  (1342) 
2698_sdstereoexpander_1_neutralizer_1_epik_2_stereoizer_1

>  <s_m_source_file>  (1342) 
ATP-VSW-LIGPREP-003-in.maegz

>  <s_sd_BIOSOLVEIT.INFINISEE\_QUERY\_NAME>  (1342) 
Ref-Lig

>  <s_sd_BIOSOLVEIT.INFINISEE\_QUERY\_SMILES>  (1342) 
S(c1nc2c(cc1C[NH2+]Cc3ccc(cc3)C[NH+](C)C)cccc2)Cc4ccccc4

>  <s_sd_BIOSOLVEIT.INFINISEE\_REACTION\_NAME>  (1342) 
rxn502b

>  <s_sd_BIOSOLVEIT.INFINISEE\_REAGENT1\_NAME>  (1342) 
EMOL5415347

>  <s_sd_BIOSOLVEIT.INFINISEE\_REAGENT1\_SMILES>  (1342) 
O=C(O)c1c(cccc1)CN(C)C

>  <s_sd_BIOSOLVEIT.INFINISEE\_REAGENT2\_NAME>  (1342) 
EMOL30488121

>  <s_sd_BIOSOLVEIT.INFINISEE\_REAGENT2\_SMILES>  (1342) 
Brc1c(N)cnc2c1cccc2

>  <s_sd_BIOSOLVEIT.INFINISEE\_REAGENT3\_NAME>  (1342) 
EMOL17149431

>  <s_sd_BIOSOLVEIT.INFINISEE\_REAGENT3\_SMILES>  (1342) 
N(C(c1ccccc1)C)C

>  <s_sd_BIOSOLVEIT.INFINISEE\_SPACE>  (1342) 
eXplore_7tr_2022-12

>  <s_vsw_compound_code>  (1342) 
86307

>  <s_vsw_variant>  (1342) 
86307-3

>  <r_epik_Charging_Adjusted_Penalty>  (1342) 
1.4784207589053799

>  <r_epik_Ionization_Penalty>  (1342) 
1.4188000000000001

>  <r_epik_Ionization_Penalty_Charging>  (1342) 
0.053900000000000003

>  <r_epik_Ionization_Penalty_Neutral>  (1342) 
1.3649

>  <r_epik_State_Penalty>  (1342) 
1.4245000000000001

>  <r_i_docking_score>  (1342) 
-1.9721019793734

>  <r_i_glide_ecoul>  (1342) 
-5.3565011024475098

>  <r_i_glide_eff_state_penalty>  (1342) 
1.4245000000000001

>  <r_i_glide_einternal>  (1342) 
2.7954251766204798

>  <r_i_glide_emodel>  (1342) 
-43.587754385206402

>  <r_i_glide_energy>  (1342) 
-35.221315860748298

>  <r_i_glide_erotb>  (1342) 
0.72307743106600597

>  <r_i_glide_esite>  (1342) 
-0.057114746581718397

>  <r_i_glide_evdw>  (1342) 
-29.864814758300799

>  <r_i_glide_gscore>  (1342) 
-3.3966019793734001

>  <r_i_glide_hbond>  (1342) 
0

>  <r_i_glide_ligand_efficiency>  (1342) 
-0.059760666041617998

>  <r_i_glide_ligand_efficiency_ln>  (1342) 
-0.43858526921507501

>  <r_i_glide_ligand_efficiency_sa>  (1342) 
-0.19168438768849699

>  <r_i_glide_lipo>  (1342) 
-1.05093036907503

>  <r_i_glide_metal>  (1342) 
-0

>  <r_i_glide_rewards>  (1342) 
-0.71491839150048697

>  <r_lp_Energy>  (1342) 
45.025247

>  <r_qp_ACxDN^.5/SA>  (1342) 
0.0093284000000000006

>  <r_qp_CIQPlogS>  (1342) 
-5.7999999999999998

>  <r_qp_EA(eV)>  (1342) 
0.91400000000000003

>  <r_qp_FISA>  (1342) 
41.066000000000003

>  <r_qp_FOSA>  (1342) 
265.14800000000002

>  <r_qp_IP(eV)>  (1342) 
8.4510000000000005

>  <r_qp_Jm>  (1342) 
0.14493290155418601

>  <r_qp_PISA>  (1342) 
390.58699999999999

>  <r_qp_PSA>  (1342) 
44.810000000000002

>  <r_qp_PercentHumanOralAbsorption>  (1342) 
100

>  <r_qp_QPPCaco>  (1342) 
1007.802

>  <r_qp_QPPMDCK>  (1342) 
551.92200000000003

>  <r_qp_QPlogBB>  (1342) 
0.16600000000000001

>  <r_qp_QPlogHERG>  (1342) 
-6.4589999999999996

>  <r_qp_QPlogKhsa>  (1342) 
0.77500000000000002

>  <r_qp_QPlogKp>  (1342) 
-2.2909999999999999

>  <r_qp_QPlogPC16>  (1342) 
14.132999999999999

>  <r_qp_QPlogPo/w>  (1342) 
4.8179999999999996

>  <r_qp_QPlogPoct>  (1342) 
21.256

>  <r_qp_QPlogPw>  (1342) 
10.654999999999999

>  <r_qp_QPlogS>  (1342) 
-4.1900000000000004

>  <r_qp_QPpolrz>  (1342) 
47.850000000000001

>  <r_qp_SASA>  (1342) 
696.79999999999995

>  <r_qp_SAamideO>  (1342) 
0

>  <r_qp_SAfluorine>  (1342) 
0

>  <r_qp_WPSA>  (1342) 
0

>  <r_qp_accptHB>  (1342) 
6.5

>  <r_qp_dip^2/V>  (1342) 
0.033254300000000001

>  <r_qp_dipole>  (1342) 
6.7460000000000004

>  <r_qp_donorHB>  (1342) 
1

>  <r_qp_glob>  (1342) 
0.85551379999999999

>  <r_qp_mol_MW>  (1342) 
438.57100000000003

>  <r_qp_volume>  (1342) 
1368.5329999999999

>  <r_sd_BIOSOLVEIT.INFINISEE\_FTREES\_SIMILARITY>  (1342) 
0.90800000000000003

>  <r_sd_BIOSOLVEIT.LOGP>  (1342) 
4.3289999999999997

>  <r_sd_BIOSOLVEIT.MOLECULAR\_WEIGHT>  (1342) 
439.57999999999998

>  <r_sd_BIOSOLVEIT.TPSA>  (1342) 
49.670000000000002

>  <i_epik_Tot_Q>  (1342) 
1

>  <i_epik_Tot_abs_Q>  (1342) 
1

>  <i_f3d_flags>  (1342) 
0

>  <i_i_glide_confnum>  (1342) 
10

>  <i_i_glide_lignum>  (1342) 
1269

>  <i_i_glide_posenum>  (1342) 
1

>  <i_i_glide_rotatable_bonds>  (1342) 
8

>  <i_lp_mmshare_version>  (1342) 
65135

>  <i_m_ct_format>  (1342) 
2

>  <i_m_source_file_index>  (1342) 
2698

>  <i_qp_#NandO>  (1342) 
5

>  <i_qp_#acid>  (1342) 
0

>  <i_qp_#amide>  (1342) 
0

>  <i_qp_#amidine>  (1342) 
0

>  <i_qp_#amine>  (1342) 
1

>  <i_qp_#in34>  (1342) 
0

>  <i_qp_#in56>  (1342) 
22

>  <i_qp_#metab>  (1342) 
6

>  <i_qp_#nonHatm>  (1342) 
33

>  <i_qp_#noncon>  (1342) 
0

>  <i_qp_#ringatoms>  (1342) 
22

>  <i_qp_#rotor>  (1342) 
7

>  <i_qp_#rtvFG>  (1342) 
0

>  <i_qp_#stars>  (1342) 
0

>  <i_qp_CNS>  (1342) 
1

>  <i_qp_HumanOralAbsorption>  (1342) 
3

>  <i_qp_RuleOfFive>  (1342) 
0

>  <i_qp_RuleOfThree>  (1342) 
0

>  <i_sd_BIOSOLVEIT.INFINISEE\_RESULT\_RANK>  (1342) 
52437

>  <i_sd_version>  (1342) 
0

>  <b_lp_Chiralities_Consistent>  (1342) 
1

>  <b_sd_chiral_flag>  (1342) 
0

>  <canonical_id>  (1342) 
ATP-HTVS-D41B937429B7

>  <compound_code>  (1342) 
86307

>  <title>  (1342) 
rxn502b____EMOL5415347____EMOL30488121____EMOL17149431

>  <variant>  (1342) 
86307-3

>  <source_file>  (1342) 
运行/运行/ATP-VSW/ATP-VSW-DOCK_HTVS_1-003_lib/ATP-VSW-DOCK_HTVS_1-003_lib.mae

>  <canonical_smiles>  (1342) 
C[C@H](c1ccccc1)N(C)c1c(NC(=O)c2ccccc2CN(C)C)c[nH+]c2ccccc12

>  <scaffold>  (1342) 
O=C(Nc1c[nH+]c2ccccc2c1NCc1ccccc1)c1ccccc1

>  <molecular_formula>  (1342) 
C28H31N4O+

$$$$
ATP-HTVS-D45BC7EA8057
     RDKit          3D

 60 63  0  0  0  0  0  0  0  0999 V2000
  199.2925  177.1767  150.6542 O   0  0  0  0  0  0  0  0  0  0  0  0
  199.1837  178.1645  151.3815 C   0  0  0  0  0  0  0  0  0  0  0  0
  199.5574  178.2313  152.6738 N   0  0  0  0  0  0  0  0  0  0  0  0
  200.2603  177.2756  153.4592 C   0  0  0  0  0  0  0  0  0  0  0  0
  200.7234  176.1135  152.9445 N   0  0  0  0  0  0  0  0  0  0  0  0
  201.4384  175.2633  153.7062 C   0  0  0  0  0  0  0  0  0  0  0  0
  201.7130  175.5357  155.0711 C   0  0  0  0  0  0  0  0  0  0  0  0
  201.2262  176.7335  155.6301 C   0  0  0  0  0  0  0  0  0  0  0  0
  200.5001  177.6305  154.8143 C   0  0  0  0  0  0  0  0  0  0  0  0
  200.0371  178.8432  155.3512 N   0  0  0  0  0  0  0  0  0  0  0  0
  201.0701  179.7495  155.8357 C   0  0  1  0  0  0  0  0  0  0  0  0
  200.5426  181.1239  156.2107 C   0  0  0  0  0  0  0  0  0  0  0  0
  199.3355  181.2474  156.9283 C   0  0  0  0  0  0  0  0  0  0  0  0
  198.8000  182.5178  157.2236 C   0  0  0  0  0  0  0  0  0  0  0  0
  199.5039  183.6785  156.8388 C   0  0  0  0  0  0  0  0  0  0  0  0
  200.7298  183.5613  156.1577 C   0  0  0  0  0  0  0  0  0  0  0  0
  201.2450  182.2882  155.8373 C   0  0  0  0  0  0  0  0  0  0  0  0
  197.4413  182.6156  157.8983 C   0  0  1  0  0  0  0  0  0  0  0  0
  196.3940  181.8374  157.1888 N   0  0  1  0  0  0  0  0  0  0  0  0
  195.0688  181.9665  157.8243 C   0  0  2  0  0  0  0  0  0  0  0  0
  196.3423  182.0728  155.7245 C   0  0  2  0  0  0  0  0  0  0  0  0
  202.4625  174.6287  155.8496 C   0  0  0  0  0  0  0  0  0  0  0  0
  202.9495  173.4427  155.2660 C   0  0  0  0  0  0  0  0  0  0  0  0
  202.6902  173.1676  153.9112 C   0  0  0  0  0  0  0  0  0  0  0  0
  201.9393  174.0750  153.1419 C   0  0  0  0  0  0  0  0  0  0  0  0
  198.6497  179.4527  150.8281 C   0  0  0  0  0  0  0  0  0  0  0  0
  198.9560  179.8113  149.4975 C   0  0  0  0  0  0  0  0  0  0  0  0
  198.4755  181.0183  148.9574 C   0  0  0  0  0  0  0  0  0  0  0  0
  197.6623  181.8670  149.7347 C   0  0  0  0  0  0  0  0  0  0  0  0
  197.1700  183.1167  149.1763 C   0  0  0  0  0  0  0  0  0  0  0  0
  196.7518  184.1577  148.6944 C   0  0  0  0  0  0  0  0  0  0  0  0
  197.3342  181.5050  151.0567 C   0  0  0  0  0  0  0  0  0  0  0  0
  197.8180  180.2979  151.6007 C   0  0  0  0  0  0  0  0  0  0  0  0
  199.3818  179.1078  153.1340 H   0  0  0  0  0  0  0  0  0  0  0  0
  201.4048  176.9608  156.6729 H   0  0  0  0  0  0  0  0  0  0  0  0
  199.2473  179.2949  154.9178 H   0  0  0  0  0  0  0  0  0  0  0  0
  201.5760  179.3226  156.7030 H   0  0  0  0  0  0  0  0  0  0  0  0
  201.8128  179.8607  155.0496 H   0  0  0  0  0  0  0  0  0  0  0  0
  198.8023  180.3525  157.2227 H   0  0  0  0  0  0  0  0  0  0  0  0
  199.1086  184.6600  157.0462 H   0  0  0  0  0  0  0  0  0  0  0  0
  201.2735  184.4480  155.8680 H   0  0  0  0  0  0  0  0  0  0  0  0
  202.1843  182.2098  155.3062 H   0  0  0  0  0  0  0  0  0  0  0  0
  197.5239  182.2723  158.9322 H   0  0  0  0  0  0  0  0  0  0  0  0
  197.1378  183.6637  157.9391 H   0  0  0  0  0  0  0  0  0  0  0  0
  194.6966  182.9895  157.7504 H   0  0  0  0  0  0  0  0  0  0  0  0
  195.1157  181.6833  158.8772 H   0  0  0  0  0  0  0  0  0  0  0  0
  194.3482  181.3077  157.3410 H   0  0  0  0  0  0  0  0  0  0  0  0
  196.1129  183.1181  155.5187 H   0  0  0  0  0  0  0  0  0  0  0  0
  195.5740  181.4530  155.2659 H   0  0  0  0  0  0  0  0  0  0  0  0
  197.2741  181.8359  155.2087 H   0  0  0  0  0  0  0  0  0  0  0  0
  202.6635  174.8320  156.8925 H   0  0  0  0  0  0  0  0  0  0  0  0
  203.5215  172.7347  155.8491 H   0  0  0  0  0  0  0  0  0  0  0  0
  203.0627  172.2543  153.4663 H   0  0  0  0  0  0  0  0  0  0  0  0
  201.7478  173.8649  152.1012 H   0  0  0  0  0  0  0  0  0  0  0  0
  199.5781  179.1655  148.8945 H   0  0  0  0  0  0  0  0  0  0  0  0
  198.7328  181.2807  147.9415 H   0  0  0  0  0  0  0  0  0  0  0  0
  196.3759  185.0560  148.2558 H   0  0  0  0  0  0  0  0  0  0  0  0
  196.7020  182.1473  151.6524 H   0  0  0  0  0  0  0  0  0  0  0  0
  197.5445  180.0355  152.6133 H   0  0  0  0  0  0  0  0  0  0  0  0
  196.6067  180.8515  157.3161 H   0  0  0  0  0  0  0  0  0  0  0  0
  1  2  2  0
  2  3  1  0
  2 26  1  0
  3  4  1  0
  3 34  1  0
  4  5  2  0
  4  9  1  0
  5  6  1  0
  6  7  1  0
  6 25  2  0
  7  8  1  0
  7 22  2  0
  8  9  2  0
  8 35  1  0
  9 10  1  0
 10 11  1  0
 10 36  1  0
 11 12  1  0
 11 37  1  1
 11 38  1  0
 12 13  2  0
 12 17  1  0
 13 14  1  0
 13 39  1  0
 14 15  2  0
 14 18  1  0
 15 16  1  0
 15 40  1  0
 16 17  2  0
 16 41  1  0
 17 42  1  0
 18 19  1  0
 18 43  1  1
 18 44  1  0
 19 20  1  0
 19 21  1  0
 19 60  1  6
 20 45  1  1
 20 46  1  0
 20 47  1  0
 21 48  1  1
 21 49  1  0
 21 50  1  0
 22 23  1  0
 22 51  1  0
 23 24  2  0
 23 52  1  0
 24 25  1  0
 24 53  1  0
 25 54  1  0
 26 27  1  0
 26 33  2  0
 27 28  2  0
 27 55  1  0
 28 29  1  0
 28 56  1  0
 29 30  1  0
 29 32  2  0
 30 31  3  0
 31 57  1  0
 32 33  1  0
 32 58  1  0
 33 59  1  0
M  CHG  1  19   1
M  END
>  <s_epik_cmdline>  (1343) 
J2VwaWtfcHl0aG9uJywgJy1waCcsICc3LjAwMDAwMCcsICctcGh0JywgJzIuMDAwMDAwJywgJy1tcycsICcxNicsICctdG4nLCAnOCcsICctbWEnLCAnMjAwJywgJy1pbWFlJywgJzxpbmZpbGUubWFlPicsICctb21hZScsICc8b3V0ZmlsZS5tYWU+Jw==

>  <s_epik_input>  (1343) 
W0NIXSNDYyhbY0hdW2NIXTEpW2NIXVtjSF1jMUMoPU8pW05IXWMobjIpYyhbY0hdYyhjMjMpW2NIXVtjSF1bY0hdW2NIXTMpW05IXVtDSDJdYzRbY0hdYyhbY0hdW2NIXVtjSF00KVtDSDJdTihbQ0gzXSlbQ0gzXQ==

>  <s_i_glide_gridfile>  (1343) 
ATP-Grid

>  <s_lp_Force_Field>  (1343) 
OPLS_2005

>  <s_lp_Variant>  (1343) 
rxn502b____EMOL93405211____EMOL44466703____EMOL2873214-1

>  <s_lp_label>  (1343) 
2199_sdstereoexpander_1_neutralizer_1_epik_1_stereoizer_1

>  <s_m_source_file>  (1343) 
ATP-VSW-LIGPREP-003-in.maegz

>  <s_sd_BIOSOLVEIT.INFINISEE\_QUERY\_NAME>  (1343) 
Ref-Lig

>  <s_sd_BIOSOLVEIT.INFINISEE\_QUERY\_SMILES>  (1343) 
S(c1nc2c(cc1C[NH2+]Cc3ccc(cc3)C[NH+](C)C)cccc2)Cc4ccccc4

>  <s_sd_BIOSOLVEIT.INFINISEE\_REACTION\_NAME>  (1343) 
rxn502b

>  <s_sd_BIOSOLVEIT.INFINISEE\_REAGENT1\_NAME>  (1343) 
EMOL93405211

>  <s_sd_BIOSOLVEIT.INFINISEE\_REAGENT1\_SMILES>  (1343) 
ClC(=O)c1ccc(C#C)cc1

>  <s_sd_BIOSOLVEIT.INFINISEE\_REAGENT2\_NAME>  (1343) 
EMOL44466703

>  <s_sd_BIOSOLVEIT.INFINISEE\_REAGENT2\_SMILES>  (1343) 
Brc1c(nc2c(c1)cccc2)N

>  <s_sd_BIOSOLVEIT.INFINISEE\_REAGENT3\_NAME>  (1343) 
EMOL2873214

>  <s_sd_BIOSOLVEIT.INFINISEE\_REAGENT3\_SMILES>  (1343) 
N(Cc1cc(ccc1)CN)(C)C

>  <s_sd_BIOSOLVEIT.INFINISEE\_SPACE>  (1343) 
eXplore_7tr_2022-12

>  <s_vsw_compound_code>  (1343) 
70339

>  <s_vsw_variant>  (1343) 
70339-1

>  <r_epik_Charging_Adjusted_Penalty>  (1343) 
0.088195370499548398

>  <r_epik_Ionization_Penalty>  (1343) 
0.044200000000000003

>  <r_epik_Ionization_Penalty_Charging>  (1343) 
0.0441

>  <r_epik_Ionization_Penalty_Neutral>  (1343) 
0.0001

>  <r_epik_State_Penalty>  (1343) 
0.0441

>  <r_i_docking_score>  (1343) 
-4.1653995620114603

>  <r_i_glide_ecoul>  (1343) 
-9.6294336318969709

>  <r_i_glide_eff_state_penalty>  (1343) 
0.0441

>  <r_i_glide_einternal>  (1343) 
3.7573699951171902

>  <r_i_glide_emodel>  (1343) 
-53.7830439072332

>  <r_i_glide_energy>  (1343) 
-39.9735555648804

>  <r_i_glide_erotb>  (1343) 
0.84030275005691701

>  <r_i_glide_esite>  (1343) 
-0.120591414775146

>  <r_i_glide_evdw>  (1343) 
-30.344121932983398

>  <r_i_glide_gscore>  (1343) 
-4.2094995620114597

>  <r_i_glide_hbond>  (1343) 
-0.15702473272650799

>  <r_i_glide_ligand_efficiency>  (1343) 
-0.12622422915186199

>  <r_i_glide_ligand_efficiency_ln>  (1343) 
-0.92636329530667205

>  <r_i_glide_ligand_efficiency_sa>  (1343) 
-0.40486854780998299

>  <r_i_glide_lipo>  (1343) 
-1.09883805250653

>  <r_i_glide_metal>  (1343) 
-0

>  <r_i_glide_rewards>  (1343) 
-0.71172697062647805

>  <r_lp_Energy>  (1343) 
23.895758000000001

>  <r_qp_ACxDN^.5/SA>  (1343) 
0.0143556

>  <r_qp_CIQPlogS>  (1343) 
-5.6219999999999999

>  <r_qp_EA(eV)>  (1343) 
0.77200000000000002

>  <r_qp_FISA>  (1343) 
42.347999999999999

>  <r_qp_FOSA>  (1343) 
195.898

>  <r_qp_IP(eV)>  (1343) 
8.4960000000000004

>  <r_qp_Jm>  (1343) 
0.27334701811488699

>  <r_qp_PISA>  (1343) 
477.67200000000003

>  <r_qp_PSA>  (1343) 
54.802999999999997

>  <r_qp_PercentHumanOralAbsorption>  (1343) 
100

>  <r_qp_QPPCaco>  (1343) 
979.98299999999995

>  <r_qp_QPPMDCK>  (1343) 
535.47299999999996

>  <r_qp_QPlogBB>  (1343) 
0.085000000000000006

>  <r_qp_QPlogHERG>  (1343) 
-7.0309999999999997

>  <r_qp_QPlogKhsa>  (1343) 
0.76800000000000002

>  <r_qp_QPlogKp>  (1343) 
-1.9119999999999999

>  <r_qp_QPlogPC16>  (1343) 
15.388

>  <r_qp_QPlogPo/w>  (1343) 
4.8959999999999999

>  <r_qp_QPlogPoct>  (1343) 
23.888999999999999

>  <r_qp_QPlogPw>  (1343) 
13.279

>  <r_qp_QPlogS>  (1343) 
-4.29

>  <r_qp_QPpolrz>  (1343) 
49.341999999999999

>  <r_qp_SASA>  (1343) 
715.91800000000001

>  <r_qp_SAamideO>  (1343) 
0

>  <r_qp_SAfluorine>  (1343) 
0

>  <r_qp_WPSA>  (1343) 
0

>  <r_qp_accptHB>  (1343) 
6.5

>  <r_qp_dip^2/V>  (1343) 
0.0216118

>  <r_qp_dipole>  (1343) 
5.5030000000000001

>  <r_qp_donorHB>  (1343) 
2.5

>  <r_qp_glob>  (1343) 
0.84581260000000003

>  <r_qp_mol_MW>  (1343) 
434.54000000000002

>  <r_qp_volume>  (1343) 
1401.066

>  <r_sd_BIOSOLVEIT.INFINISEE\_FTREES\_SIMILARITY>  (1343) 
0.93300000000000005

>  <r_sd_BIOSOLVEIT.LOGP>  (1343) 
3.7250000000000001

>  <r_sd_BIOSOLVEIT.MOLECULAR\_WEIGHT>  (1343) 
435.548

>  <r_sd_BIOSOLVEIT.TPSA>  (1343) 
58.460000000000001

>  <i_epik_Tot_Q>  (1343) 
1

>  <i_epik_Tot_abs_Q>  (1343) 
1

>  <i_f3d_flags>  (1343) 
0

>  <i_i_glide_confnum>  (1343) 
8

>  <i_i_glide_lignum>  (1343) 
847

>  <i_i_glide_posenum>  (1343) 
4

>  <i_i_glide_rotatable_bonds>  (1343) 
9

>  <i_lp_mmshare_version>  (1343) 
65135

>  <i_m_ct_format>  (1343) 
2

>  <i_m_source_file_index>  (1343) 
2199

>  <i_qp_#NandO>  (1343) 
5

>  <i_qp_#acid>  (1343) 
0

>  <i_qp_#amide>  (1343) 
0

>  <i_qp_#amidine>  (1343) 
0

>  <i_qp_#amine>  (1343) 
1

>  <i_qp_#in34>  (1343) 
0

>  <i_qp_#in56>  (1343) 
22

>  <i_qp_#metab>  (1343) 
5

>  <i_qp_#nonHatm>  (1343) 
33

>  <i_qp_#noncon>  (1343) 
0

>  <i_qp_#ringatoms>  (1343) 
22

>  <i_qp_#rotor>  (1343) 
8

>  <i_qp_#rtvFG>  (1343) 
0

>  <i_qp_#stars>  (1343) 
1

>  <i_qp_CNS>  (1343) 
1

>  <i_qp_HumanOralAbsorption>  (1343) 
3

>  <i_qp_RuleOfFive>  (1343) 
0

>  <i_qp_RuleOfThree>  (1343) 
0

>  <i_sd_BIOSOLVEIT.INFINISEE\_RESULT\_RANK>  (1343) 
3504

>  <i_sd_version>  (1343) 
0

>  <b_lp_Chiralities_Consistent>  (1343) 
1

>  <b_sd_chiral_flag>  (1343) 
0

>  <canonical_id>  (1343) 
ATP-HTVS-D45BC7EA8057

>  <compound_code>  (1343) 
70339

>  <title>  (1343) 
rxn502b____EMOL93405211____EMOL44466703____EMOL2873214

>  <variant>  (1343) 
70339-1

>  <source_file>  (1343) 
运行/运行/ATP-VSW/ATP-VSW-DOCK_HTVS_1-003_lib/ATP-VSW-DOCK_HTVS_1-003_lib.mae

>  <canonical_smiles>  (1343) 
C#Cc1ccc(C(=O)Nc2nc3ccccc3cc2NCc2cccc(C[NH+](C)C)c2)cc1

>  <scaffold>  (1343) 
O=C(Nc1nc2ccccc2cc1NCc1ccccc1)c1ccccc1

>  <molecular_formula>  (1343) 
C28H27N4O+

$$$$
ATP-HTVS-D4881A2AC8A2
     RDKit          3D

 64 67  0  0  0  0  0  0  0  0999 V2000
  197.2253  188.2560  157.0273 F   0  0  0  0  0  0  0  0  0  0  0  0
  198.5514  188.0419  157.2073 C   0  0  0  0  0  0  0  0  0  0  0  0
  199.3397  187.5965  156.1277 C   0  0  0  0  0  0  0  0  0  0  0  0
  198.7513  187.3543  154.8855 N   0  0  0  0  0  0  0  0  0  0  0  0
  200.7120  187.3254  156.3238 C   0  0  0  0  0  0  0  0  0  0  0  0
  201.2914  187.4985  157.5947 C   0  0  0  0  0  0  0  0  0  0  0  0
  200.4992  187.9301  158.6758 C   0  0  0  0  0  0  0  0  0  0  0  0
  199.1276  188.2059  158.4896 C   0  0  0  0  0  0  0  0  0  0  0  0
  198.2668  188.5826  159.6929 C   0  0  1  0  0  0  0  0  0  0  0  0
  197.0715  187.7809  159.9664 N   0  0  0  0  0  0  0  0  0  0  0  0
  196.8794  186.4445  159.6353 C   0  0  0  0  0  0  0  0  0  0  0  0
  197.9404  185.6785  159.3614 N   0  0  0  0  0  0  0  0  0  0  0  0
  197.7737  184.4070  158.9566 C   0  0  0  0  0  0  0  0  0  0  0  0
  198.9112  183.6566  158.6485 N   0  0  0  0  0  0  0  0  0  0  0  0
  200.1628  184.3072  158.2776 C   0  0  1  0  0  0  0  0  0  0  0  0
  201.2604  183.3594  157.8150 C   0  0  0  0  0  0  0  0  0  0  0  0
  201.0295  181.9712  157.7385 C   0  0  0  0  0  0  0  0  0  0  0  0
  202.0313  181.0886  157.3020 C   0  0  0  0  0  0  0  0  0  0  0  0
  203.2975  181.5927  156.9369 C   0  0  0  0  0  0  0  0  0  0  0  0
  203.5433  182.9774  157.0063 C   0  0  0  0  0  0  0  0  0  0  0  0
  202.5303  183.8594  157.4427 C   0  0  0  0  0  0  0  0  0  0  0  0
  201.7403  179.6000  157.2271 C   0  0  1  0  0  0  0  0  0  0  0  0
  200.3963  179.2782  156.6728 N   0  0  2  0  0  0  0  0  0  0  0  0
  199.9931  177.8702  156.9008 C   0  0  1  0  0  0  0  0  0  0  0  0
  200.9310  176.8356  156.2513 C   0  0  2  0  0  0  0  0  0  0  0  0
  200.1940  179.7330  155.2756 C   0  0  2  0  0  0  0  0  0  0  0  0
  196.4852  183.8530  158.8558 C   0  0  0  0  0  0  0  0  0  0  0  0
  195.4036  184.6979  159.1904 C   0  0  0  0  0  0  0  0  0  0  0  0
  195.6271  185.9776  159.5775 N   0  0  0  0  0  0  0  0  0  0  0  0
  194.0815  184.2229  159.1105 C   0  0  0  0  0  0  0  0  0  0  0  0
  193.8391  182.9088  158.6544 C   0  0  0  0  0  0  0  0  0  0  0  0
  194.9152  182.0533  158.3515 C   0  0  0  0  0  0  0  0  0  0  0  0
  196.2356  182.5209  158.4315 C   0  0  0  0  0  0  0  0  0  0  0  0
  199.3130  187.1368  154.0764 H   0  0  0  0  0  0  0  0  0  0  0  0
  197.7883  187.6137  154.6984 H   0  0  0  0  0  0  0  0  0  0  0  0
  201.3100  186.9343  155.5149 H   0  0  0  0  0  0  0  0  0  0  0  0
  202.3279  187.2456  157.7575 H   0  0  0  0  0  0  0  0  0  0  0  0
  200.9406  188.0059  159.6615 H   0  0  0  0  0  0  0  0  0  0  0  0
  198.9018  188.5838  160.5795 H   0  0  0  0  0  0  0  0  0  0  0  0
  197.9418  189.6145  159.5618 H   0  0  0  0  0  0  0  0  0  0  0  0
  196.2519  188.2875  160.2540 H   0  0  0  0  0  0  0  0  0  0  0  0
  198.7530  182.7152  158.3296 H   0  0  0  0  0  0  0  0  0  0  0  0
  199.9574  185.0096  157.4664 H   0  0  0  0  0  0  0  0  0  0  0  0
  200.5357  184.8819  159.1295 H   0  0  0  0  0  0  0  0  0  0  0  0
  200.0703  181.5562  157.9983 H   0  0  0  0  0  0  0  0  0  0  0  0
  204.0772  180.9209  156.6048 H   0  0  0  0  0  0  0  0  0  0  0  0
  204.5126  183.3638  156.7311 H   0  0  0  0  0  0  0  0  0  0  0  0
  202.7313  184.9213  157.4887 H   0  0  0  0  0  0  0  0  0  0  0  0
  202.5066  179.1515  156.5975 H   0  0  0  0  0  0  0  0  0  0  0  0
  201.8326  179.1815  158.2315 H   0  0  0  0  0  0  0  0  0  0  0  0
  199.9242  177.7042  157.9782 H   0  0  0  0  0  0  0  0  0  0  0  0
  198.9850  177.7251  156.5170 H   0  0  0  0  0  0  0  0  0  0  0  0
  200.6027  175.8199  156.4725 H   0  0  0  0  0  0  0  0  0  0  0  0
  201.9581  176.9198  156.6098 H   0  0  0  0  0  0  0  0  0  0  0  0
  200.9390  176.9464  155.1699 H   0  0  0  0  0  0  0  0  0  0  0  0
  200.8635  179.2200  154.5826 H   0  0  0  0  0  0  0  0  0  0  0  0
  200.3726  180.8031  155.1666 H   0  0  0  0  0  0  0  0  0  0  0  0
  199.1659  179.5496  154.9543 H   0  0  0  0  0  0  0  0  0  0  0  0
  193.2447  184.8528  159.3629 H   0  0  0  0  0  0  0  0  0  0  0  0
  192.8200  182.5483  158.5347 H   0  0  0  0  0  0  0  0  0  0  0  0
  194.7136  181.0465  158.0335 H   0  0  0  0  0  0  0  0  0  0  0  0
  197.0246  181.8363  158.1674 H   0  0  0  0  0  0  0  0  0  0  0  0
  194.8133  186.5641  159.7519 H   0  0  0  0  0  0  0  0  0  0  0  0
  199.7273  179.7994  157.2260 H   0  0  0  0  0  0  0  0  0  0  0  0
  1  2  1  0
  2  3  2  0
  2  8  1  0
  3  4  1  0
  3  5  1  0
  4 34  1  0
  4 35  1  0
  5  6  2  0
  5 36  1  0
  6  7  1  0
  6 37  1  0
  7  8  2  0
  7 38  1  0
  8  9  1  0
  9 10  1  0
  9 39  1  1
  9 40  1  0
 10 11  1  0
 10 41  1  0
 11 12  1  0
 11 29  2  0
 12 13  2  0
 13 14  1  0
 13 27  1  0
 14 15  1  0
 14 42  1  0
 15 16  1  0
 15 43  1  6
 15 44  1  0
 16 17  2  0
 16 21  1  0
 17 18  1  0
 17 45  1  0
 18 19  2  0
 18 22  1  0
 19 20  1  0
 19 46  1  0
 20 21  2  0
 20 47  1  0
 21 48  1  0
 22 23  1  0
 22 49  1  6
 22 50  1  0
 23 24  1  0
 23 26  1  0
 23 64  1  1
 24 25  1  0
 24 51  1  1
 24 52  1  0
 25 53  1  6
 25 54  1  0
 25 55  1  0
 26 56  1  6
 26 57  1  0
 26 58  1  0
 27 28  1  0
 27 33  2  0
 28 29  1  0
 28 30  2  0
 29 63  1  0
 30 31  1  0
 30 59  1  0
 31 32  2  0
 31 60  1  0
 32 33  1  0
 32 61  1  0
 33 62  1  0
M  CHG  2  23   1  29   1
M  END
>  <s_epik_cmdline>  (1344) 
J2VwaWtfcHl0aG9uJywgJy1waCcsICc3LjAwMDAwMCcsICctcGh0JywgJzIuMDAwMDAwJywgJy1tcycsICcxNicsICctdG4nLCAnOCcsICctbWEnLCAnMjAwJywgJy1pbWFlJywgJzxpbmZpbGUubWFlPicsICctb21hZScsICc8b3V0ZmlsZS5tYWU+Jw==

>  <s_epik_input>  (1344) 
RmMxYyhbTkgyXSlbY0hdW2NIXVtjSF1jMVtDSDJdW05IXWMobmMoYzIzKVtjSF1bY0hdW2NIXVtjSF0zKW5jMltOSF1bQ0gyXWM0W2NIXWMoW2NIXVtjSF1bY0hdNClbQ0gyXU4oW0NIM10pW0NIMl1bQ0gzXQ==

>  <s_i_glide_gridfile>  (1344) 
ATP-Grid

>  <s_lp_Force_Field>  (1344) 
OPLS_2005

>  <s_lp_Variant>  (1344) 
m_282030aaa____21930070____22360182____21970420-2

>  <s_lp_label>  (1344) 
1615_sdstereoexpander_1_neutralizer_1_epik_1_stereoizer_2

>  <s_m_source_file>  (1344) 
ATP-VSW-LIGPREP-001-in.maegz

>  <s_sd_BIOSOLVEIT.INFINISEE\_QUERY\_NAME>  (1344) 
Ref-Lig

>  <s_sd_BIOSOLVEIT.INFINISEE\_QUERY\_SMILES>  (1344) 
S(c1nc2c(cc1C[NH2+]Cc3ccc(cc3)C[NH+](C)C)cccc2)Cc4ccccc4

>  <s_sd_BIOSOLVEIT.INFINISEE\_REACTION\_NAME>  (1344) 
m_282030aaa

>  <s_sd_BIOSOLVEIT.INFINISEE\_REAGENT1\_SMILES>  (1344) 
[R1*]NCc1cc(ccc1)CN(CC)C

>  <s_sd_BIOSOLVEIT.INFINISEE\_REAGENT2\_SMILES>  (1344) 
[R2*]c1nc([R1*])c2c(n1)cccc2

>  <s_sd_BIOSOLVEIT.INFINISEE\_REAGENT3\_SMILES>  (1344) 
[R2*]NCc1c(F)c(N)ccc1

>  <s_sd_BIOSOLVEIT.INFINISEE\_SPACE>  (1344) 
REALSpace_44bn_2023-08

>  <s_vsw_compound_code>  (1344) 
51649

>  <s_vsw_variant>  (1344) 
51649-2

>  <r_epik_Charging_Adjusted_Penalty>  (1344) 
0.095522189488611894

>  <r_epik_Ionization_Penalty>  (1344) 
0.045100000000000001

>  <r_epik_Ionization_Penalty_Charging>  (1344) 
0.044900000000000002

>  <r_epik_Ionization_Penalty_Neutral>  (1344) 
0.00020000000000000001

>  <r_epik_State_Penalty>  (1344) 
0.050599999999999999

>  <r_i_docking_score>  (1344) 
-4.5290093799391604

>  <r_i_glide_ecoul>  (1344) 
-12.3561906814575

>  <r_i_glide_eff_state_penalty>  (1344) 
0.050599999999999999

>  <r_i_glide_einternal>  (1344) 
4.5303506851196298

>  <r_i_glide_emodel>  (1344) 
-56.523696679319599

>  <r_i_glide_energy>  (1344) 
-39.156970024108901

>  <r_i_glide_erotb>  (1344) 
0.80303265656137202

>  <r_i_glide_esite>  (1344) 
-0.0389249523682881

>  <r_i_glide_evdw>  (1344) 
-26.800779342651399

>  <r_i_glide_gscore>  (1344) 
-4.5796093799391597

>  <r_i_glide_hbond>  (1344) 
-0.292546870347838

>  <r_i_glide_ligand_efficiency>  (1344) 
-0.13724270848300499

>  <r_i_glide_ligand_efficiency_ln>  (1344) 
-1.0072282361429199

>  <r_i_glide_ligand_efficiency_sa>  (1344) 
-0.44021069848778099

>  <r_i_glide_lipo>  (1344) 
-0.84547129872823501

>  <r_i_glide_metal>  (1344) 
-0

>  <r_i_glide_rewards>  (1344) 
-1.0122313457049801

>  <r_lp_Energy>  (1344) 
21.273032000000001

>  <r_qp_ACxDN^.5/SA>  (1344) 
0.0137337

>  <r_qp_CIQPlogS>  (1344) 
-5.9000000000000004

>  <r_qp_EA(eV)>  (1344) 
0.44500000000000001

>  <r_qp_FISA>  (1344) 
99.965999999999994

>  <r_qp_FOSA>  (1344) 
295.78500000000003

>  <r_qp_IP(eV)>  (1344) 
7.8689999999999998

>  <r_qp_Jm>  (1344) 
0.00057005577673074003

>  <r_qp_PISA>  (1344) 
392.52999999999997

>  <r_qp_PSA>  (1344) 
70.969999999999999

>  <r_qp_PercentHumanOralAbsorption>  (1344) 
100

>  <r_qp_QPPCaco>  (1344) 
278.50099999999998

>  <r_qp_QPPMDCK>  (1344) 
198.28999999999999

>  <r_qp_QPlogBB>  (1344) 
-0.70899999999999996

>  <r_qp_QPlogHERG>  (1344) 
-7.9390000000000001

>  <r_qp_QPlogKhsa>  (1344) 
0.80200000000000005

>  <r_qp_QPlogKp>  (1344) 
-3.0819999999999999

>  <r_qp_QPlogPC16>  (1344) 
16.178999999999998

>  <r_qp_QPlogPo/w>  (1344) 
4.8680000000000003

>  <r_qp_QPlogPoct>  (1344) 
25.094999999999999

>  <r_qp_QPlogPw>  (1344) 
13.877000000000001

>  <r_qp_QPlogS>  (1344) 
-5.8099999999999996

>  <r_qp_QPpolrz>  (1344) 
49.960999999999999

>  <r_qp_SASA>  (1344) 
817.33299999999997

>  <r_qp_SAamideO>  (1344) 
0

>  <r_qp_SAfluorine>  (1344) 
29.052

>  <r_qp_WPSA>  (1344) 
29.052

>  <r_qp_accptHB>  (1344) 
6

>  <r_qp_dip^2/V>  (1344) 
0.017002400000000001

>  <r_qp_dipole>  (1344) 
4.9980000000000002

>  <r_qp_donorHB>  (1344) 
3.5

>  <r_qp_glob>  (1344) 
0.76460760000000005

>  <r_qp_mol_MW>  (1344) 
444.55399999999997

>  <r_qp_volume>  (1344) 
1468.9549999999999

>  <r_sd_BIOSOLVEIT.INFINISEE\_FTREES\_SIMILARITY>  (1344) 
0.90600000000000003

>  <r_sd_BIOSOLVEIT.LOGP>  (1344) 
3.6099000000000001

>  <r_sd_BIOSOLVEIT.MOLECULAR\_WEIGHT>  (1344) 
445.56299999999999

>  <r_sd_BIOSOLVEIT.TPSA>  (1344) 
80.299999999999997

>  <i_epik_Tot_Q>  (1344) 
2

>  <i_epik_Tot_abs_Q>  (1344) 
2

>  <i_f3d_flags>  (1344) 
0

>  <i_i_glide_confnum>  (1344) 
10

>  <i_i_glide_lignum>  (1344) 
430

>  <i_i_glide_posenum>  (1344) 
15

>  <i_i_glide_rotatable_bonds>  (1344) 
9

>  <i_lp_mmshare_version>  (1344) 
65135

>  <i_m_ct_format>  (1344) 
2

>  <i_m_source_file_index>  (1344) 
1615

>  <i_qp_#NandO>  (1344) 
6

>  <i_qp_#acid>  (1344) 
0

>  <i_qp_#amide>  (1344) 
0

>  <i_qp_#amidine>  (1344) 
0

>  <i_qp_#amine>  (1344) 
1

>  <i_qp_#in34>  (1344) 
0

>  <i_qp_#in56>  (1344) 
22

>  <i_qp_#metab>  (1344) 
7

>  <i_qp_#nonHatm>  (1344) 
33

>  <i_qp_#noncon>  (1344) 
0

>  <i_qp_#ringatoms>  (1344) 
22

>  <i_qp_#rotor>  (1344) 
10

>  <i_qp_#rtvFG>  (1344) 
0

>  <i_qp_#stars>  (1344) 
1

>  <i_qp_CNS>  (1344) 
-1

>  <i_qp_HumanOralAbsorption>  (1344) 
3

>  <i_qp_RuleOfFive>  (1344) 
0

>  <i_qp_RuleOfThree>  (1344) 
2

>  <i_sd_BIOSOLVEIT.INFINISEE\_REAGENT1\_NAME>  (1344) 
21930070

>  <i_sd_BIOSOLVEIT.INFINISEE\_REAGENT2\_NAME>  (1344) 
22360182

>  <i_sd_BIOSOLVEIT.INFINISEE\_REAGENT3\_NAME>  (1344) 
21970420

>  <i_sd_BIOSOLVEIT.INFINISEE\_RESULT\_RANK>  (1344) 
66776

>  <i_sd_version>  (1344) 
0

>  <b_lp_Chiralities_Consistent>  (1344) 
1

>  <b_sd_chiral_flag>  (1344) 
0

>  <canonical_id>  (1344) 
ATP-HTVS-D4881A2AC8A2

>  <compound_code>  (1344) 
51649

>  <title>  (1344) 
m_282030aaa____21930070____22360182____21970420

>  <variant>  (1344) 
51649-2

>  <source_file>  (1344) 
运行/运行/ATP-VSW/ATP-VSW-DOCK_HTVS_1-001_lib/ATP-VSW-DOCK_HTVS_1-001_lib

>  <canonical_smiles>  (1344) 
CC[N@H+](C)Cc1cccc(CNc2nc(NCc3cccc(N)c3F)[nH+]c3ccccc23)c1

>  <scaffold>  (1344) 
c1ccc(CNc2nc(NCc3ccccc3)c3ccccc3[nH+]2)cc1

>  <molecular_formula>  (1344) 
C26H31FN6+2

$$$$
ATP-HTVS-D49B0A10993C
     RDKit          3D

 57 59  0  0  0  0  0  0  0  0999 V2000
  201.5041  175.5233  155.7437 Cl  0  0  0  0  0  0  0  0  0  0  0  0
  200.6608  176.9627  155.3056 C   0  0  0  0  0  0  0  0  0  0  0  0
  200.6692  177.4356  153.9698 C   0  0  0  0  0  0  0  0  0  0  0  0
  200.0011  178.6419  153.6318 C   0  0  0  0  0  0  0  0  0  0  0  0
  199.3521  179.4099  154.6325 C   0  0  0  0  0  0  0  0  0  0  0  0
  199.3882  178.9339  155.9696 C   0  0  0  0  0  0  0  0  0  0  0  0
  199.9957  177.7094  156.2906 C   0  0  0  0  0  0  0  0  0  0  0  0
  198.6645  180.6729  154.2884 C   0  0  0  0  0  0  0  0  0  0  0  0
  199.1333  181.4015  153.2857 N   0  0  0  0  0  0  0  0  0  0  0  0
  198.3353  182.4881  153.1965 N   0  0  0  0  0  0  0  0  0  0  0  0
  197.3479  182.4395  154.1511 C   0  0  0  0  0  0  0  0  0  0  0  0
  197.5142  181.2976  154.8754 C   0  0  0  0  0  0  0  0  0  0  0  0
  196.6240  180.8325  155.9980 C   0  0  1  0  0  0  0  0  0  0  0  0
  195.9495  181.9769  156.6539 N   0  0  1  0  0  0  0  0  0  0  0  0
  195.6841  181.7811  158.0946 C   0  0  1  0  0  0  0  0  0  0  0  0
  195.7048  183.0989  158.8203 C   0  0  0  0  0  0  0  0  0  0  0  0
  196.9373  183.6655  159.2062 C   0  0  0  0  0  0  0  0  0  0  0  0
  196.9563  184.8903  159.8885 C   0  0  0  0  0  0  0  0  0  0  0  0
  195.7498  185.5677  160.1732 C   0  0  0  0  0  0  0  0  0  0  0  0
  194.5237  184.9829  159.7940 C   0  0  0  0  0  0  0  0  0  0  0  0
  194.4987  183.7600  159.1063 C   0  0  0  0  0  0  0  0  0  0  0  0
  195.7634  186.9252  160.8684 C   0  0  1  0  0  0  0  0  0  0  0  0
  196.8245  187.8445  160.3710 N   0  0  1  0  0  0  0  0  0  0  0  0
  196.8791  187.9947  158.8945 C   0  0  2  0  0  0  0  0  0  0  0  0
  196.7904  189.1579  161.0503 C   0  0  2  0  0  0  0  0  0  0  0  0
  198.6267  183.5290  152.2180 C   0  0  1  0  0  0  0  0  0  0  0  0
  197.5197  184.5967  152.1066 C   0  0  1  0  0  0  0  0  0  0  0  0
  196.4180  184.1637  151.2266 C   0  0  0  0  0  0  0  0  0  0  0  0
  195.5545  183.8306  150.5405 N   0  0  0  0  0  0  0  0  0  0  0  0
  196.5690  182.7650  156.5925 H   0  0  0  0  0  0  0  0  0  0  0  0
  201.2044  176.8767  153.2063 H   0  0  0  0  0  0  0  0  0  0  0  0
  200.0192  178.9771  152.6099 H   0  0  0  0  0  0  0  0  0  0  0  0
  198.9871  179.4760  156.8147 H   0  0  0  0  0  0  0  0  0  0  0  0
  199.9614  177.3817  157.3164 H   0  0  0  0  0  0  0  0  0  0  0  0
  196.6022  183.2097  154.2679 H   0  0  0  0  0  0  0  0  0  0  0  0
  195.9534  180.0639  155.6588 H   0  0  0  0  0  0  0  0  0  0  0  0
  197.2031  180.3740  156.7878 H   0  0  0  0  0  0  0  0  0  0  0  0
  194.7285  181.2690  158.2272 H   0  0  0  0  0  0  0  0  0  0  0  0
  196.4330  181.1689  158.6023 H   0  0  0  0  0  0  0  0  0  0  0  0
  197.8738  183.1770  158.9738 H   0  0  0  0  0  0  0  0  0  0  0  0
  197.9105  185.3188  160.1531 H   0  0  0  0  0  0  0  0  0  0  0  0
  193.5859  185.4673  160.0099 H   0  0  0  0  0  0  0  0  0  0  0  0
  193.5579  183.3256  158.8006 H   0  0  0  0  0  0  0  0  0  0  0  0
  194.7885  187.4028  160.7460 H   0  0  0  0  0  0  0  0  0  0  0  0
  195.8948  186.7607  161.9409 H   0  0  0  0  0  0  0  0  0  0  0  0
  195.9462  188.4156  158.5298 H   0  0  0  0  0  0  0  0  0  0  0  0
  197.0434  187.0539  158.3695 H   0  0  0  0  0  0  0  0  0  0  0  0
  197.7039  188.6485  158.6058 H   0  0  0  0  0  0  0  0  0  0  0  0
  195.8716  189.6977  160.8202 H   0  0  0  0  0  0  0  0  0  0  0  0
  197.6363  189.7699  160.7398 H   0  0  0  0  0  0  0  0  0  0  0  0
  196.8624  189.0409  162.1320 H   0  0  0  0  0  0  0  0  0  0  0  0
  199.5668  184.0037  152.5048 H   0  0  0  0  0  0  0  0  0  0  0  0
  198.8038  183.0602  151.2453 H   0  0  0  0  0  0  0  0  0  0  0  0
  197.1031  184.8893  153.0673 H   0  0  0  0  0  0  0  0  0  0  0  0
  197.9186  185.5173  151.6810 H   0  0  0  0  0  0  0  0  0  0  0  0
  197.6998  187.4246  160.6479 H   0  0  0  0  0  0  0  0  0  0  0  0
  195.0596  182.2431  156.2037 H   0  0  0  0  0  0  0  0  0  0  0  0
  1  2  1  0
  2  3  1  0
  2  7  2  0
  3  4  2  0
  3 31  1  0
  4  5  1  0
  4 32  1  0
  5  6  2  0
  5  8  1  0
  6  7  1  0
  6 33  1  0
  7 34  1  0
  8  9  2  0
  8 12  1  0
  9 10  1  0
 10 11  1  0
 10 26  1  0
 11 12  2  0
 11 35  1  0
 12 13  1  0
 13 14  1  0
 13 36  1  6
 13 37  1  0
 14 15  1  0
 14 30  1  1
 14 57  1  0
 15 16  1  0
 15 38  1  6
 15 39  1  0
 16 17  1  0
 16 21  2  0
 17 18  2  0
 17 40  1  0
 18 19  1  0
 18 41  1  0
 19 20  2  0
 19 22  1  0
 20 21  1  0
 20 42  1  0
 21 43  1  0
 22 23  1  0
 22 44  1  1
 22 45  1  0
 23 24  1  0
 23 25  1  0
 23 56  1  1
 24 46  1  6
 24 47  1  0
 24 48  1  0
 25 49  1  1
 25 50  1  0
 25 51  1  0
 26 27  1  0
 26 52  1  1
 26 53  1  0
 27 28  1  0
 27 54  1  1
 27 55  1  0
 28 29  3  0
M  CHG  2  14   1  23   1
M  END
>  <s_epik_cmdline>  (1345) 
J2VwaWtfcHl0aG9uJywgJy1waCcsICc3LjAwMDAwMCcsICctcGh0JywgJzIuMDAwMDAwJywgJy1tcycsICcxNicsICctdG4nLCAnOCcsICctbWEnLCAnMjAwJywgJy1pbWFlJywgJzxpbmZpbGUubWFlPicsICctb21hZScsICc8b3V0ZmlsZS5tYWU+Jw==

>  <s_epik_input>  (1345) 
Q2xjMVtjSF1bY0hdYyhbY0hdW2NIXTEpLWMybm4oW0NIMl1bQ0gyXUMjTilbY0hdYzJbQ0gyXVtOSF1bQ0gyXWMzW2NIXVtjSF1jKFtjSF1bY0hdMylbQ0gyXU4oW0NIM10pW0NIM10=

>  <s_i_glide_gridfile>  (1345) 
ATP-Grid

>  <s_lp_Force_Field>  (1345) 
OPLS_2005

>  <s_lp_Variant>  (1345) 
m_270004bbb____8288884____24714838-1

>  <s_lp_label>  (1345) 
863_sdstereoexpander_1_neutralizer_1_epik_1_stereoizer_1

>  <s_m_source_file>  (1345) 
ATP-VSW-LIGPREP-002-in.maegz

>  <s_sd_BIOSOLVEIT.INFINISEE\_QUERY\_NAME>  (1345) 
Ref-Lig

>  <s_sd_BIOSOLVEIT.INFINISEE\_QUERY\_SMILES>  (1345) 
S(c1nc2c(cc1C[NH2+]Cc3ccc(cc3)C[NH+](C)C)cccc2)Cc4ccccc4

>  <s_sd_BIOSOLVEIT.INFINISEE\_REACTION\_NAME>  (1345) 
m_270004bbb

>  <s_sd_BIOSOLVEIT.INFINISEE\_REAGENT1\_SMILES>  (1345) 
[R1*]NCc1ccc(cc1)CN(C)C

>  <s_sd_BIOSOLVEIT.INFINISEE\_REAGENT2\_SMILES>  (1345) 
[R1*]CC=1C(=NN(C1)CCC#N)c2ccc(Cl)cc2

>  <s_sd_BIOSOLVEIT.INFINISEE\_SPACE>  (1345) 
REALSpace_44bn_2023-08

>  <s_vsw_compound_code>  (1345) 
27586

>  <s_vsw_variant>  (1345) 
27586-1

>  <r_epik_Charging_Adjusted_Penalty>  (1345) 
0.31365475066438298

>  <r_epik_Ionization_Penalty>  (1345) 
0.15720000000000001

>  <r_epik_Ionization_Penalty_Charging>  (1345) 
0.15720000000000001

>  <r_epik_Ionization_Penalty_Neutral>  (1345) 
0

>  <r_epik_State_Penalty>  (1345) 
0.1565

>  <r_i_docking_score>  (1345) 
-5.8254884896635097

>  <r_i_glide_ecoul>  (1345) 
-15.492211341857899

>  <r_i_glide_eff_state_penalty>  (1345) 
0.1565

>  <r_i_glide_einternal>  (1345) 
9.8799629211425799

>  <r_i_glide_emodel>  (1345) 
-73.481856335331997

>  <r_i_glide_energy>  (1345) 
-48.677311897277797

>  <r_i_glide_erotb>  (1345) 
0.820345516058265

>  <r_i_glide_esite>  (1345) 
-0.105555398495378

>  <r_i_glide_evdw>  (1345) 
-33.185100555419901

>  <r_i_glide_gscore>  (1345) 
-5.98198848966351

>  <r_i_glide_hbond>  (1345) 
-0.45780447804219998

>  <r_i_glide_ligand_efficiency>  (1345) 
-0.200878913436673

>  <r_i_glide_ligand_efficiency_ln>  (1345) 
-1.3338891424906201

>  <r_i_glide_ligand_efficiency_sa>  (1345) 
-0.61716366498425601

>  <r_i_glide_lipo>  (1345) 
-1.64194162740724

>  <r_i_glide_metal>  (1345) 
-0

>  <r_i_glide_rewards>  (1345) 
-0.61394577272727202

>  <r_lp_Energy>  (1345) 
16.162889

>  <r_lp_tautomer_probability>  (1345) 
1

>  <r_qp_ACxDN^.5/SA>  (1345) 
0.0088044000000000004

>  <r_qp_CIQPlogS>  (1345) 
-4.8289999999999997

>  <r_qp_EA(eV)>  (1345) 
0.028000000000000001

>  <r_qp_FISA>  (1345) 
77.591999999999999

>  <r_qp_FOSA>  (1345) 
345.017

>  <r_qp_IP(eV)>  (1345) 
8.8480000000000008

>  <r_qp_Jm>  (1345) 
4.4433606615227003e-05

>  <r_qp_PISA>  (1345) 
254.011

>  <r_qp_PSA>  (1345) 
56.832000000000001

>  <r_qp_PercentHumanOralAbsorption>  (1345) 
86.933000000000007

>  <r_qp_QPPCaco>  (1345) 
113.212

>  <r_qp_QPPMDCK>  (1345) 
125.084

>  <r_qp_QPlogBB>  (1345) 
0.161

>  <r_qp_QPlogHERG>  (1345) 
-7.4320000000000004

>  <r_qp_QPlogKhsa>  (1345) 
0.61199999999999999

>  <r_qp_QPlogKp>  (1345) 
-5.3159999999999998

>  <r_qp_QPlogPC16>  (1345) 
13.802

>  <r_qp_QPlogPo/w>  (1345) 
3.9670000000000001

>  <r_qp_QPlogPoct>  (1345) 
20.446999999999999

>  <r_qp_QPlogPw>  (1345) 
9.6549999999999994

>  <r_qp_QPlogS>  (1345) 
-4.6470000000000002

>  <r_qp_QPpolrz>  (1345) 
44.505000000000003

>  <r_qp_SASA>  (1345) 
738.27099999999996

>  <r_qp_SAamideO>  (1345) 
0

>  <r_qp_SAfluorine>  (1345) 
0

>  <r_qp_WPSA>  (1345) 
61.651000000000003

>  <r_qp_accptHB>  (1345) 
6.5

>  <r_qp_dip^2/V>  (1345) 
0.063111500000000001

>  <r_qp_dipole>  (1345) 
9.2289999999999992

>  <r_qp_donorHB>  (1345) 
1

>  <r_qp_glob>  (1345) 
0.80000709999999997

>  <r_qp_mol_MW>  (1345) 
407.94499999999999

>  <r_qp_volume>  (1345) 
1349.6369999999999

>  <r_sd_BIOSOLVEIT.INFINISEE\_FTREES\_SIMILARITY>  (1345) 
0.92000000000000004

>  <r_sd_BIOSOLVEIT.LOGP>  (1345) 
2.02528

>  <r_sd_BIOSOLVEIT.MOLECULAR\_WEIGHT>  (1345) 
409.96199999999999

>  <r_sd_BIOSOLVEIT.TPSA>  (1345) 
62.659999999999997

>  <i_epik_Tot_Q>  (1345) 
2

>  <i_epik_Tot_abs_Q>  (1345) 
2

>  <i_f3d_flags>  (1345) 
0

>  <i_i_glide_confnum>  (1345) 
2

>  <i_i_glide_lignum>  (1345) 
273

>  <i_i_glide_posenum>  (1345) 
18

>  <i_i_glide_rotatable_bonds>  (1345) 
9

>  <i_lp_mmshare_version>  (1345) 
65135

>  <i_m_ct_format>  (1345) 
2

>  <i_m_source_file_index>  (1345) 
863

>  <i_qp_#NandO>  (1345) 
5

>  <i_qp_#acid>  (1345) 
0

>  <i_qp_#amide>  (1345) 
0

>  <i_qp_#amidine>  (1345) 
0

>  <i_qp_#amine>  (1345) 
2

>  <i_qp_#in34>  (1345) 
0

>  <i_qp_#in56>  (1345) 
17

>  <i_qp_#metab>  (1345) 
6

>  <i_qp_#nonHatm>  (1345) 
29

>  <i_qp_#noncon>  (1345) 
0

>  <i_qp_#ringatoms>  (1345) 
17

>  <i_qp_#rotor>  (1345) 
9

>  <i_qp_#rtvFG>  (1345) 
0

>  <i_qp_#stars>  (1345) 
0

>  <i_qp_CNS>  (1345) 
1

>  <i_qp_HumanOralAbsorption>  (1345) 
3

>  <i_qp_RuleOfFive>  (1345) 
0

>  <i_qp_RuleOfThree>  (1345) 
0

>  <i_sd_BIOSOLVEIT.INFINISEE\_REAGENT1\_NAME>  (1345) 
8288884

>  <i_sd_BIOSOLVEIT.INFINISEE\_REAGENT2\_NAME>  (1345) 
24714838

>  <i_sd_BIOSOLVEIT.INFINISEE\_RESULT\_RANK>  (1345) 
15970

>  <i_sd_version>  (1345) 
0

>  <b_lp_Chiralities_Consistent>  (1345) 
1

>  <b_sd_chiral_flag>  (1345) 
0

>  <canonical_id>  (1345) 
ATP-HTVS-D49B0A10993C

>  <compound_code>  (1345) 
27586

>  <title>  (1345) 
m_270004bbb____8288884____24714838

>  <variant>  (1345) 
27586-1

>  <source_file>  (1345) 
运行/运行/ATP-VSW/ATP-VSW-DOCK_HTVS_1-002_lib.maegz

>  <canonical_smiles>  (1345) 
C[NH+](C)Cc1ccc(C[NH2+]Cc2cn(CCC#N)nc2-c2ccc(Cl)cc2)cc1

>  <scaffold>  (1345) 
c1ccc(C[NH2+]Cc2c[nH]nc2-c2ccccc2)cc1

>  <molecular_formula>  (1345) 
C23H28ClN5+2

$$$$
ATP-HTVS-D4AE6553B313
     RDKit          3D

 59 61  0  0  0  0  0  0  0  0999 V2000
  193.8081  181.5342  158.5434 F   0  0  0  0  0  0  0  0  0  0  0  0
  194.6744  182.5510  158.8352 C   0  0  0  0  0  0  0  0  0  0  0  0
  194.2139  183.8878  159.0436 C   0  0  0  0  0  0  0  0  0  0  0  0
  195.1051  184.9550  159.3679 C   0  0  0  0  0  0  0  0  0  0  0  0
  196.4818  184.6477  159.4923 C   0  0  0  0  0  0  0  0  0  0  0  0
  196.9404  183.3162  159.2675 C   0  0  0  0  0  0  0  0  0  0  0  0
  196.0484  182.2650  158.9292 C   0  0  0  0  0  0  0  0  0  0  0  0
  197.4960  185.7297  159.8895 C   0  0  1  0  0  0  0  0  0  0  0  0
  197.3244  186.9818  159.1650 N   0  0  0  0  0  0  0  0  0  0  0  0
  198.0950  187.3800  158.0914 C   0  0  0  0  0  0  0  0  0  0  0  0
  197.8780  188.4227  157.5184 O   0  0  0  0  0  0  0  0  0  0  0  0
  199.2460  186.4845  157.7044 C   0  0  0  0  0  0  0  0  0  0  0  0
  200.5515  187.0110  157.5599 C   0  0  0  0  0  0  0  0  0  0  0  0
  201.6323  186.2443  157.2833 N   0  0  0  0  0  0  0  0  0  0  0  0
  201.4622  184.9171  157.1102 C   0  0  0  0  0  0  0  0  0  0  0  0
  200.1851  184.2940  157.1884 C   0  0  0  0  0  0  0  0  0  0  0  0
  199.9839  182.9059  157.0361 N   0  0  0  0  0  0  0  0  0  0  0  0
  201.0961  181.9645  157.0668 C   0  0  1  0  0  0  0  0  0  0  0  0
  200.7480  180.6037  156.4958 C   0  0  0  0  0  0  0  0  0  0  0  0
  200.0427  180.5152  155.2802 C   0  0  0  0  0  0  0  0  0  0  0  0
  199.6682  179.2598  154.7540 C   0  0  0  0  0  0  0  0  0  0  0  0
  200.0622  178.0822  155.4306 C   0  0  0  0  0  0  0  0  0  0  0  0
  200.8003  178.1665  156.6281 C   0  0  0  0  0  0  0  0  0  0  0  0
  201.1429  179.4222  157.1630 C   0  0  0  0  0  0  0  0  0  0  0  0
  198.8374  179.1883  153.4817 C   0  0  1  0  0  0  0  0  0  0  0  0
  197.3890  179.4375  153.7101 N   0  0  2  0  0  0  0  0  0  0  0  0
  196.6181  179.2525  152.4597 C   0  0  2  0  0  0  0  0  0  0  0  0
  197.0684  180.7342  154.3451 C   0  0  2  0  0  0  0  0  0  0  0  0
  199.0651  185.1072  157.4266 C   0  0  0  0  0  0  0  0  0  0  0  0
  196.3033  187.9164  159.6652 C   0  0  1  0  0  0  0  0  0  0  0  0
  195.5029  187.4252  160.7822 C   0  0  0  0  0  0  0  0  0  0  0  0
  194.8181  186.9542  161.5930 N   0  0  0  0  0  0  0  0  0  0  0  0
  193.1477  184.0598  158.9733 H   0  0  0  0  0  0  0  0  0  0  0  0
  194.7274  185.9388  159.5318 H   0  0  0  0  0  0  0  0  0  0  0  0
  197.9912  183.0806  159.3843 H   0  0  0  0  0  0  0  0  0  0  0  0
  196.4303  181.2609  158.7139 H   0  0  0  0  0  0  0  0  0  0  0  0
  197.3591  185.9434  160.9511 H   0  0  0  0  0  0  0  0  0  0  0  0
  198.5235  185.3540  159.8235 H   0  0  0  0  0  0  0  0  0  0  0  0
  200.7615  188.0601  157.7271 H   0  0  0  0  0  0  0  0  0  0  0  0
  202.3710  184.3537  156.9140 H   0  0  0  0  0  0  0  0  0  0  0  0
  199.0627  182.5267  157.2093 H   0  0  0  0  0  0  0  0  0  0  0  0
  201.9177  182.3315  156.4525 H   0  0  0  0  0  0  0  0  0  0  0  0
  201.4542  181.8589  158.0913 H   0  0  0  0  0  0  0  0  0  0  0  0
  199.7719  181.4244  154.7621 H   0  0  0  0  0  0  0  0  0  0  0  0
  199.7896  177.1110  155.0441 H   0  0  0  0  0  0  0  0  0  0  0  0
  201.1038  177.2682  157.1430 H   0  0  0  0  0  0  0  0  0  0  0  0
  201.7026  179.4839  158.0865 H   0  0  0  0  0  0  0  0  0  0  0  0
  199.2466  179.8956  152.7492 H   0  0  0  0  0  0  0  0  0  0  0  0
  198.9713  178.1971  153.0415 H   0  0  0  0  0  0  0  0  0  0  0  0
  196.9152  179.9808  151.7000 H   0  0  0  0  0  0  0  0  0  0  0  0
  195.5522  179.3888  152.6318 H   0  0  0  0  0  0  0  0  0  0  0  0
  196.7603  178.2544  152.0469 H   0  0  0  0  0  0  0  0  0  0  0  0
  197.4598  181.5628  153.7516 H   0  0  0  0  0  0  0  0  0  0  0  0
  197.4746  180.8029  155.3518 H   0  0  0  0  0  0  0  0  0  0  0  0
  195.9898  180.8801  154.4486 H   0  0  0  0  0  0  0  0  0  0  0  0
  198.0686  184.6694  157.4099 H   0  0  0  0  0  0  0  0  0  0  0  0
  196.7436  188.8739  160.0272 H   0  0  0  0  0  0  0  0  0  0  0  0
  195.5893  188.1648  158.9030 H   0  0  0  0  0  0  0  0  0  0  0  0
  197.0844  178.7252  154.3658 H   0  0  0  0  0  0  0  0  0  0  0  0
  1  2  1  0
  2  3  1  0
  2  7  2  0
  3  4  2  0
  3 33  1  0
  4  5  1  0
  4 34  1  0
  5  6  2  0
  5  8  1  0
  6  7  1  0
  6 35  1  0
  7 36  1  0
  8  9  1  0
  8 37  1  1
  8 38  1  0
  9 10  1  0
  9 30  1  0
 10 11  2  0
 10 12  1  0
 12 13  1  0
 12 29  2  0
 13 14  2  0
 13 39  1  0
 14 15  1  0
 15 16  2  0
 15 40  1  0
 16 17  1  0
 16 29  1  0
 17 18  1  0
 17 41  1  0
 18 19  1  0
 18 42  1  6
 18 43  1  0
 19 20  2  0
 19 24  1  0
 20 21  1  0
 20 44  1  0
 21 22  2  0
 21 25  1  0
 22 23  1  0
 22 45  1  0
 23 24  2  0
 23 46  1  0
 24 47  1  0
 25 26  1  0
 25 48  1  6
 25 49  1  0
 26 27  1  0
 26 28  1  0
 26 59  1  1
 27 50  1  6
 27 51  1  0
 27 52  1  0
 28 53  1  6
 28 54  1  0
 28 55  1  0
 29 56  1  0
 30 31  1  0
 30 57  1  1
 30 58  1  0
 31 32  3  0
M  CHG  1  26   1
M  END
>  <s_epik_cmdline>  (1346) 
J2VwaWtfcHl0aG9uJywgJy1waCcsICc3LjAwMDAwMCcsICctcGh0JywgJzIuMDAwMDAwJywgJy1tcycsICcxNicsICctdG4nLCAnOCcsICctbWEnLCAnMjAwJywgJy1pbWFlJywgJzxpbmZpbGUubWFlPicsICctb21hZScsICc8b3V0ZmlsZS5tYWU+Jw==

>  <s_epik_input>  (1346) 
RmMxW2NIXVtjSF1jKFtjSF1bY0hdMSlbQ0gyXU4oW0NIMl1DI04pQyg9TyljMltjSF1uW2NIXWMoW2NIXTIpW05IXVtDSDJdYzNbY0hdYyhbY0hdW2NIXVtjSF0zKVtDSDJdTihbQ0gzXSlbQ0gzXQ==

>  <s_i_glide_gridfile>  (1346) 
ATP-Grid

>  <s_lp_Force_Field>  (1346) 
OPLS_2005

>  <s_lp_Variant>  (1346) 
rxn512a____EMOL2873214____EMOL8295720____EMOL37358747-1

>  <s_lp_label>  (1346) 
2748_sdstereoexpander_1_neutralizer_1_epik_1_stereoizer_1

>  <s_m_source_file>  (1346) 
ATP-VSW-LIGPREP-002-in.maegz

>  <s_sd_BIOSOLVEIT.INFINISEE\_QUERY\_NAME>  (1346) 
Ref-Lig

>  <s_sd_BIOSOLVEIT.INFINISEE\_QUERY\_SMILES>  (1346) 
S(c1nc2c(cc1C[NH2+]Cc3ccc(cc3)C[NH+](C)C)cccc2)Cc4ccccc4

>  <s_sd_BIOSOLVEIT.INFINISEE\_REACTION\_NAME>  (1346) 
rxn512a

>  <s_sd_BIOSOLVEIT.INFINISEE\_REAGENT1\_NAME>  (1346) 
EMOL2873214

>  <s_sd_BIOSOLVEIT.INFINISEE\_REAGENT1\_SMILES>  (1346) 
N(Cc1cc(ccc1)CN)(C)C

>  <s_sd_BIOSOLVEIT.INFINISEE\_REAGENT2\_NAME>  (1346) 
EMOL8295720

>  <s_sd_BIOSOLVEIT.INFINISEE\_REAGENT2\_SMILES>  (1346) 
Ic1cncc(c1)C(=O)O

>  <s_sd_BIOSOLVEIT.INFINISEE\_REAGENT3\_NAME>  (1346) 
EMOL37358747

>  <s_sd_BIOSOLVEIT.INFINISEE\_REAGENT3\_SMILES>  (1346) 
Fc1ccc(cc1)CNCC#N

>  <s_sd_BIOSOLVEIT.INFINISEE\_SPACE>  (1346) 
eXplore_7tr_2022-12

>  <s_vsw_compound_code>  (1346) 
87906

>  <s_vsw_variant>  (1346) 
87906-1

>  <r_epik_Charging_Adjusted_Penalty>  (1346) 
0.088195370499548398

>  <r_epik_Ionization_Penalty>  (1346) 
0.045400000000000003

>  <r_epik_Ionization_Penalty_Charging>  (1346) 
0.0441

>  <r_epik_Ionization_Penalty_Neutral>  (1346) 
0.0012999999999999999

>  <r_epik_State_Penalty>  (1346) 
0.0441

>  <r_i_docking_score>  (1346) 
-4.3990643823723303

>  <r_i_glide_ecoul>  (1346) 
-6.06048488616943

>  <r_i_glide_eff_state_penalty>  (1346) 
0.0441

>  <r_i_glide_einternal>  (1346) 
4.5683217048645002

>  <r_i_glide_emodel>  (1346) 
-55.784330043253298

>  <r_i_glide_energy>  (1346) 
-41.399733543396003

>  <r_i_glide_erotb>  (1346) 
0.74461951042470897

>  <r_i_glide_esite>  (1346) 
-0.101708905201772

>  <r_i_glide_evdw>  (1346) 
-35.339248657226598

>  <r_i_glide_gscore>  (1346) 
-4.4431643823723297

>  <r_i_glide_hbond>  (1346) 
0

>  <r_i_glide_ligand_efficiency>  (1346) 
-0.13747076194913499

>  <r_i_glide_ligand_efficiency_ln>  (1346) 
-0.98507042917929999

>  <r_i_glide_ligand_efficiency_sa>  (1346) 
-0.43644246376165702

>  <r_i_glide_lipo>  (1346) 
-1.3690117280544001

>  <r_i_glide_metal>  (1346) 
-0

>  <r_i_glide_rewards>  (1346) 
-1.0410280937541301

>  <r_lp_Energy>  (1346) 
27.987815000000001

>  <r_lp_tautomer_probability>  (1346) 
0.999999999999999

>  <r_qp_ACxDN^.5/SA>  (1346) 
0.011415700000000001

>  <r_qp_CIQPlogS>  (1346) 
-5.399

>  <r_qp_EA(eV)>  (1346) 
0.41599999999999998

>  <r_qp_FISA>  (1346) 
116.94199999999999

>  <r_qp_FOSA>  (1346) 
272.74400000000003

>  <r_qp_IP(eV)>  (1346) 
8.5169999999999995

>  <r_qp_Jm>  (1346) 
0.000358805144071031

>  <r_qp_PISA>  (1346) 
351.66899999999998

>  <r_qp_PSA>  (1346) 
82.909999999999997

>  <r_qp_PercentHumanOralAbsorption>  (1346) 
89.310000000000002

>  <r_qp_QPPCaco>  (1346) 
192.24000000000001

>  <r_qp_QPPMDCK>  (1346) 
166.642

>  <r_qp_QPlogBB>  (1346) 
-0.81699999999999995

>  <r_qp_QPlogHERG>  (1346) 
-7.5469999999999997

>  <r_qp_QPlogKhsa>  (1346) 
0.23300000000000001

>  <r_qp_QPlogKp>  (1346) 
-3.5379999999999998

>  <r_qp_QPlogPC16>  (1346) 
14.835000000000001

>  <r_qp_QPlogPo/w>  (1346) 
3.6699999999999999

>  <r_qp_QPlogPoct>  (1346) 
22.282

>  <r_qp_QPlogPw>  (1346) 
12.944000000000001

>  <r_qp_QPlogS>  (1346) 
-5.5419999999999998

>  <r_qp_QPpolrz>  (1346) 
47.810000000000002

>  <r_qp_SASA>  (1346) 
788.38499999999999

>  <r_qp_SAamideO>  (1346) 
0

>  <r_qp_SAfluorine>  (1346) 
47.030999999999999

>  <r_qp_WPSA>  (1346) 
47.030999999999999

>  <r_qp_accptHB>  (1346) 
9

>  <r_qp_dip^2/V>  (1346) 
0.0023708000000000002

>  <r_qp_dipole>  (1346) 
1.8380000000000001

>  <r_qp_donorHB>  (1346) 
1

>  <r_qp_glob>  (1346) 
0.77677070000000004

>  <r_qp_mol_MW>  (1346) 
431.512

>  <r_qp_volume>  (1346) 
1424.9490000000001

>  <r_sd_BIOSOLVEIT.INFINISEE\_FTREES\_SIMILARITY>  (1346) 
0.90700000000000003

>  <r_sd_BIOSOLVEIT.LOGP>  (1346) 
2.6432799999999999

>  <r_sd_BIOSOLVEIT.MOLECULAR\_WEIGHT>  (1346) 
432.51999999999998

>  <r_sd_BIOSOLVEIT.TPSA>  (1346) 
73.459999999999994

>  <i_epik_Tot_Q>  (1346) 
1

>  <i_epik_Tot_abs_Q>  (1346) 
1

>  <i_f3d_flags>  (1346) 
0

>  <i_i_glide_confnum>  (1346) 
3

>  <i_i_glide_lignum>  (1346) 
1329

>  <i_i_glide_posenum>  (1346) 
11

>  <i_i_glide_rotatable_bonds>  (1346) 
10

>  <i_lp_mmshare_version>  (1346) 
65135

>  <i_m_ct_format>  (1346) 
2

>  <i_m_source_file_index>  (1346) 
2748

>  <i_qp_#NandO>  (1346) 
6

>  <i_qp_#acid>  (1346) 
0

>  <i_qp_#amide>  (1346) 
0

>  <i_qp_#amidine>  (1346) 
0

>  <i_qp_#amine>  (1346) 
1

>  <i_qp_#in34>  (1346) 
0

>  <i_qp_#in56>  (1346) 
18

>  <i_qp_#metab>  (1346) 
10

>  <i_qp_#nonHatm>  (1346) 
32

>  <i_qp_#noncon>  (1346) 
0

>  <i_qp_#ringatoms>  (1346) 
18

>  <i_qp_#rotor>  (1346) 
10

>  <i_qp_#rtvFG>  (1346) 
0

>  <i_qp_#stars>  (1346) 
1

>  <i_qp_CNS>  (1346) 
0

>  <i_qp_HumanOralAbsorption>  (1346) 
1

>  <i_qp_RuleOfFive>  (1346) 
0

>  <i_qp_RuleOfThree>  (1346) 
1

>  <i_sd_BIOSOLVEIT.INFINISEE\_RESULT\_RANK>  (1346) 
57897

>  <i_sd_version>  (1346) 
0

>  <b_lp_Chiralities_Consistent>  (1346) 
1

>  <b_sd_chiral_flag>  (1346) 
0

>  <canonical_id>  (1346) 
ATP-HTVS-D4AE6553B313

>  <compound_code>  (1346) 
87906

>  <title>  (1346) 
rxn512a____EMOL2873214____EMOL8295720____EMOL37358747

>  <variant>  (1346) 
87906-1

>  <source_file>  (1346) 
运行/运行/ATP-VSW/ATP-VSW-DOCK_HTVS_1-002_lib.maegz

>  <canonical_smiles>  (1346) 
C[NH+](C)Cc1cccc(CNc2cncc(C(=O)N(CC#N)Cc3ccc(F)cc3)c2)c1

>  <scaffold>  (1346) 
O=C(NCc1ccccc1)c1cncc(NCc2ccccc2)c1

>  <molecular_formula>  (1346) 
C25H27FN5O+

$$$$
ATP-HTVS-D4B05735BAC4
     RDKit          3D

 56 59  0  0  0  0  0  0  0  0999 V2000
  197.9513  184.2212  158.1927 N   0  0  0  0  0  0  0  0  0  0  0  0
  198.6507  185.3401  158.3714 C   0  0  0  0  0  0  0  0  0  0  0  0
  198.1760  186.3920  159.1440 C   0  0  0  0  0  0  0  0  0  0  0  0
  196.8837  186.2314  159.6889 C   0  0  0  0  0  0  0  0  0  0  0  0
  196.1290  185.0559  159.4048 C   0  0  0  0  0  0  0  0  0  0  0  0
  196.7112  184.0529  158.6189 C   0  0  0  0  0  0  0  0  0  0  0  0
  196.0067  182.7414  158.2450 C   0  0  1  0  0  0  0  0  0  0  0  0
  196.7428  181.8511  157.3598 N   0  0  0  0  0  0  0  0  0  0  0  0
  196.9266  182.3833  156.0099 C   0  0  1  0  0  0  0  0  0  0  0  0
  198.2687  183.1002  155.7675 C   0  0  0  0  0  0  0  0  0  0  0  0
  198.3498  184.2898  155.0247 C   0  0  0  0  0  0  0  0  0  0  0  0
  199.5866  184.9545  154.8658 C   0  0  0  0  0  0  0  0  0  0  0  0
  200.7846  184.3281  155.3935 C   0  0  0  0  0  0  0  0  0  0  0  0
  200.7136  183.1718  156.1414 C   0  0  0  0  0  0  0  0  0  0  0  0
  199.4292  182.5740  156.4213 C   0  0  0  0  0  0  0  0  0  0  0  0
  197.1307  184.8731  154.3091 C   0  0  2  0  0  0  0  0  0  0  0  0
  196.8076  181.2283  155.0093 C   0  0  1  0  0  0  0  0  0  0  0  0
  198.0292  180.3789  154.9936 N   0  0  2  0  0  0  0  0  0  0  0  0
  198.2326  179.7038  153.7000 C   0  0  2  0  0  0  0  0  0  0  0  0
  198.0888  179.4251  156.1239 C   0  0  2  0  0  0  0  0  0  0  0  0
  194.8311  184.9144  159.9301 C   0  0  0  0  0  0  0  0  0  0  0  0
  194.3030  185.9226  160.7407 C   0  0  0  0  0  0  0  0  0  0  0  0
  195.0547  187.0683  161.0304 C   0  0  0  0  0  0  0  0  0  0  0  0
  196.3453  187.2216  160.4955 C   0  0  0  0  0  0  0  0  0  0  0  0
  199.0365  187.5003  159.3556 C   0  0  0  0  0  0  0  0  0  0  0  0
  200.3314  187.5857  158.7797 C   0  0  0  0  0  0  0  0  0  0  0  0
  200.8009  186.5594  157.9809 C   0  0  0  0  0  0  0  0  0  0  0  0
  199.9191  185.5267  157.8934 C   0  0  0  0  0  0  0  0  0  0  0  0
  196.3316  180.9161  157.3463 H   0  0  0  0  0  0  0  0  0  0  0  0
  195.7730  182.1748  159.1479 H   0  0  0  0  0  0  0  0  0  0  0  0
  195.0655  182.9657  157.7536 H   0  0  0  0  0  0  0  0  0  0  0  0
  196.0882  183.0646  155.8416 H   0  0  0  0  0  0  0  0  0  0  0  0
  199.6451  185.8888  154.3604 H   0  0  0  0  0  0  0  0  0  0  0  0
  201.6344  185.0105  155.5021 H   0  0  0  0  0  0  0  0  0  0  0  0
  201.4744  182.9677  156.9126 H   0  0  0  0  0  0  0  0  0  0  0  0
  199.3316  181.8306  157.1814 H   0  0  0  0  0  0  0  0  0  0  0  0
  197.4034  185.7379  153.7067 H   0  0  0  0  0  0  0  0  0  0  0  0
  196.3501  185.1817  155.0035 H   0  0  0  0  0  0  0  0  0  0  0  0
  196.7217  184.1174  153.6370 H   0  0  0  0  0  0  0  0  0  0  0  0
  195.9488  180.6181  155.2195 H   0  0  0  0  0  0  0  0  0  0  0  0
  196.6495  181.6616  154.0189 H   0  0  0  0  0  0  0  0  0  0  0  0
  197.4115  179.0187  153.4922 H   0  0  0  0  0  0  0  0  0  0  0  0
  199.1643  179.1379  153.7077 H   0  0  0  0  0  0  0  0  0  0  0  0
  198.2921  180.4297  152.8893 H   0  0  0  0  0  0  0  0  0  0  0  0
  197.2548  178.7267  156.0868 H   0  0  0  0  0  0  0  0  0  0  0  0
  198.0655  179.9131  157.0917 H   0  0  0  0  0  0  0  0  0  0  0  0
  199.0173  178.8620  156.1112 H   0  0  0  0  0  0  0  0  0  0  0  0
  194.2321  184.0456  159.7201 H   0  0  0  0  0  0  0  0  0  0  0  0
  193.3083  185.8147  161.1431 H   0  0  0  0  0  0  0  0  0  0  0  0
  194.6409  187.8463  161.6511 H   0  0  0  0  0  0  0  0  0  0  0  0
  196.8771  188.1217  160.7405 H   0  0  0  0  0  0  0  0  0  0  0  0
  198.7478  188.2880  159.9532 H   0  0  0  0  0  0  0  0  0  0  0  0
  200.9699  188.4111  158.9487 H   0  0  0  0  0  0  0  0  0  0  0  0
  201.7822  186.5356  157.5077 H   0  0  0  0  0  0  0  0  0  0  0  0
  200.3258  184.7184  157.4936 H   0  0  0  0  0  0  0  0  0  0  0  0
  198.8108  181.0142  155.1127 H   0  0  0  0  0  0  0  0  0  0  0  0
  1  2  1  0
  1  6  2  0
  2  3  1  0
  2 28  2  0
  3  4  1  0
  3 25  2  0
  4  5  1  0
  4 24  2  0
  5  6  1  0
  5 21  2  0
  6  7  1  0
  7  8  1  0
  7 30  1  1
  7 31  1  0
  8  9  1  0
  8 29  1  0
  9 10  1  0
  9 17  1  0
  9 32  1  6
 10 11  1  0
 10 15  2  0
 11 12  2  0
 11 16  1  0
 12 13  1  0
 12 33  1  0
 13 14  2  0
 13 34  1  0
 14 15  1  0
 14 35  1  0
 15 36  1  0
 16 37  1  6
 16 38  1  0
 16 39  1  0
 17 18  1  0
 17 40  1  1
 17 41  1  0
 18 19  1  0
 18 20  1  0
 18 56  1  1
 19 42  1  6
 19 43  1  0
 19 44  1  0
 20 45  1  1
 20 46  1  0
 20 47  1  0
 21 22  1  0
 21 48  1  0
 22 23  2  0
 22 49  1  0
 23 24  1  0
 23 50  1  0
 24 51  1  0
 25 26  1  0
 25 52  1  0
 26 27  2  0
 26 53  1  0
 27 28  1  0
 27 54  1  0
 28 55  1  0
M  CHG  1  18   1
M  END
>  <s_epik_cmdline>  (1347) 
J2VwaWtfcHl0aG9uJywgJy1waCcsICc3LjAwMDAwMCcsICctcGh0JywgJzIuMDAwMDAwJywgJy1tcycsICcxNicsICctdG4nLCAnOCcsICctbWEnLCAnMjAwJywgJy1pbWFlJywgJzxpbmZpbGUubWFlPicsICctb21hZScsICc8b3V0ZmlsZS5tYWU+Jw==

>  <s_epik_input>  (1347) 
W2NIXTFbY0hdW2NIXVtjSF1jKGMxMiljM2MoW2NIXVtjSF1bY0hdW2NIXTMpYyhuMilbQ0gyXVtOSF1bQ0BIXShbQ0gyXU4oW0NIM10pW0NIM10pYzRjKFtDSDNdKVtjSF1bY0hdW2NIXVtjSF00

>  <s_i_glide_gridfile>  (1347) 
ATP-Grid

>  <s_lp_Force_Field>  (1347) 
OPLS_2005

>  <s_lp_Variant>  (1347) 
m_2230bbb____22403268____22391698-2

>  <s_lp_label>  (1347) 
1582_sdstereoexpander_2_neutralizer_1_epik_1_stereoizer_1

>  <s_m_source_file>  (1347) 
ATP-VSW-LIGPREP-002-in.maegz

>  <s_sd_BIOSOLVEIT.INFINISEE\_QUERY\_NAME>  (1347) 
Ref-Lig

>  <s_sd_BIOSOLVEIT.INFINISEE\_QUERY\_SMILES>  (1347) 
S(c1nc2c(cc1C[NH2+]Cc3ccc(cc3)C[NH+](C)C)cccc2)Cc4ccccc4

>  <s_sd_BIOSOLVEIT.INFINISEE\_REACTION\_NAME>  (1347) 
m_2230bbb

>  <s_sd_BIOSOLVEIT.INFINISEE\_REAGENT1\_SMILES>  (1347) 
[R1*]NC(c1c(cccc1)C)CN(C)C

>  <s_sd_BIOSOLVEIT.INFINISEE\_REAGENT2\_SMILES>  (1347) 
[R1*]Cc1nc2c(c3c1cccc3)cccc2

>  <s_sd_BIOSOLVEIT.INFINISEE\_SPACE>  (1347) 
REALSpace_44bn_2023-08

>  <s_vsw_compound_code>  (1347) 
50594

>  <s_vsw_variant>  (1347) 
50594-2

>  <r_epik_Charging_Adjusted_Penalty>  (1347) 
0.20183642211921199

>  <r_epik_Ionization_Penalty>  (1347) 
0.067500000000000004

>  <r_epik_Ionization_Penalty_Charging>  (1347) 
0.023900000000000001

>  <r_epik_Ionization_Penalty_Neutral>  (1347) 
0.043499999999999997

>  <r_epik_State_Penalty>  (1347) 
0.1779

>  <r_i_docking_score>  (1347) 
-4.7394851910745404

>  <r_i_glide_ecoul>  (1347) 
-9.3251600265502894

>  <r_i_glide_eff_state_penalty>  (1347) 
0.1779

>  <r_i_glide_einternal>  (1347) 
6.3858194351196298

>  <r_i_glide_emodel>  (1347) 
-49.171903092169799

>  <r_i_glide_energy>  (1347) 
-36.331635475158699

>  <r_i_glide_erotb>  (1347) 
0.562156777701315

>  <r_i_glide_esite>  (1347) 
-0.035681002989012799

>  <r_i_glide_evdw>  (1347) 
-27.006475448608398

>  <r_i_glide_gscore>  (1347) 
-4.9173851910745396

>  <r_i_glide_hbond>  (1347) 
-0.16

>  <r_i_glide_ligand_efficiency>  (1347) 
-0.169267328252662

>  <r_i_glide_ligand_efficiency_ln>  (1347) 
-1.0940123394319801

>  <r_i_glide_ligand_efficiency_sa>  (1347) 
-0.51399530169997998

>  <r_i_glide_lipo>  (1347) 
-1.42687628028298

>  <r_i_glide_metal>  (1347) 
-0

>  <r_i_glide_rewards>  (1347) 
-1.10788690909091

>  <r_lp_Energy>  (1347) 
28.737116

>  <r_qp_ACxDN^.5/SA>  (1347) 
0.0069826000000000003

>  <r_qp_CIQPlogS>  (1347) 
-4.0279999999999996

>  <r_qp_EA(eV)>  (1347) 
1.0209999999999999

>  <r_qp_FISA>  (1347) 
13.138

>  <r_qp_FOSA>  (1347) 
207.369

>  <r_qp_IP(eV)>  (1347) 
8.7520000000000007

>  <r_qp_Jm>  (1347) 
0.062547357887024396

>  <r_qp_PISA>  (1347) 
423.95400000000001

>  <r_qp_PSA>  (1347) 
23.082000000000001

>  <r_qp_PercentHumanOralAbsorption>  (1347) 
100

>  <r_qp_QPPCaco>  (1347) 
462.50400000000002

>  <r_qp_QPPMDCK>  (1347) 
263.11099999999999

>  <r_qp_QPlogBB>  (1347) 
0.88

>  <r_qp_QPlogHERG>  (1347) 
-7.3289999999999997

>  <r_qp_QPlogKhsa>  (1347) 
0.81699999999999995

>  <r_qp_QPlogKp>  (1347) 
-3.8170000000000002

>  <r_qp_QPlogPC16>  (1347) 
12.861000000000001

>  <r_qp_QPlogPo/w>  (1347) 
4.4199999999999999

>  <r_qp_QPlogPoct>  (1347) 
17.893999999999998

>  <r_qp_QPlogPw>  (1347) 
8.8170000000000002

>  <r_qp_QPlogS>  (1347) 
-2.9540000000000002

>  <r_qp_QPpolrz>  (1347) 
42.838000000000001

>  <r_qp_SASA>  (1347) 
644.46100000000001

>  <r_qp_SAamideO>  (1347) 
0

>  <r_qp_SAfluorine>  (1347) 
0

>  <r_qp_WPSA>  (1347) 
0

>  <r_qp_accptHB>  (1347) 
4.5

>  <r_qp_dip^2/V>  (1347) 
0.0030373000000000002

>  <r_qp_dipole>  (1347) 
1.9239999999999999

>  <r_qp_donorHB>  (1347) 
1

>  <r_qp_glob>  (1347) 
0.85646230000000001

>  <r_qp_mol_MW>  (1347) 
369.50799999999998

>  <r_qp_volume>  (1347) 
1219.297

>  <r_sd_BIOSOLVEIT.INFINISEE\_FTREES\_SIMILARITY>  (1347) 
0.90600000000000003

>  <r_sd_BIOSOLVEIT.LOGP>  (1347) 
2.6456200000000001

>  <r_sd_BIOSOLVEIT.MOLECULAR\_WEIGHT>  (1347) 
371.52499999999998

>  <r_sd_BIOSOLVEIT.TPSA>  (1347) 
33.939999999999998

>  <i_epik_Tot_Q>  (1347) 
1

>  <i_epik_Tot_abs_Q>  (1347) 
1

>  <i_f3d_flags>  (1347) 
0

>  <i_i_glide_confnum>  (1347) 
4

>  <i_i_glide_lignum>  (1347) 
545

>  <i_i_glide_posenum>  (1347) 
14

>  <i_i_glide_rotatable_bonds>  (1347) 
6

>  <i_lp_mmshare_version>  (1347) 
65135

>  <i_m_ct_format>  (1347) 
2

>  <i_m_source_file_index>  (1347) 
1582

>  <i_qp_#NandO>  (1347) 
3

>  <i_qp_#acid>  (1347) 
0

>  <i_qp_#amide>  (1347) 
0

>  <i_qp_#amidine>  (1347) 
0

>  <i_qp_#amine>  (1347) 
2

>  <i_qp_#in34>  (1347) 
0

>  <i_qp_#in56>  (1347) 
20

>  <i_qp_#metab>  (1347) 
6

>  <i_qp_#nonHatm>  (1347) 
28

>  <i_qp_#noncon>  (1347) 
0

>  <i_qp_#ringatoms>  (1347) 
20

>  <i_qp_#rotor>  (1347) 
6

>  <i_qp_#rtvFG>  (1347) 
0

>  <i_qp_#stars>  (1347) 
0

>  <i_qp_CNS>  (1347) 
2

>  <i_qp_HumanOralAbsorption>  (1347) 
3

>  <i_qp_RuleOfFive>  (1347) 
0

>  <i_qp_RuleOfThree>  (1347) 
0

>  <i_sd_BIOSOLVEIT.INFINISEE\_REAGENT1\_NAME>  (1347) 
22403268

>  <i_sd_BIOSOLVEIT.INFINISEE\_REAGENT2\_NAME>  (1347) 
22391698

>  <i_sd_BIOSOLVEIT.INFINISEE\_RESULT\_RANK>  (1347) 
64606

>  <i_sd_version>  (1347) 
0

>  <b_lp_Chiralities_Consistent>  (1347) 
1

>  <b_sd_chiral_flag>  (1347) 
0

>  <canonical_id>  (1347) 
ATP-HTVS-D4B05735BAC4

>  <compound_code>  (1347) 
50594

>  <title>  (1347) 
m_2230bbb____22403268____22391698

>  <variant>  (1347) 
50594-2

>  <source_file>  (1347) 
运行/运行/ATP-VSW/ATP-VSW-DOCK_HTVS_1-002_lib.maegz

>  <canonical_smiles>  (1347) 
Cc1ccccc1[C@@H](C[NH+](C)C)NCc1nc2ccccc2c2ccccc12

>  <scaffold>  (1347) 
c1ccc(CNCc2nc3ccccc3c3ccccc23)cc1

>  <molecular_formula>  (1347) 
C25H28N3+

$$$$
ATP-HTVS-D4C1A78D47F2
     RDKit          3D

 60 63  0  0  0  0  0  0  0  0999 V2000
  199.9910  177.5765  158.0730 O   0  0  0  0  0  0  0  0  0  0  0  0
  200.4336  178.7467  157.3952 C   0  0  1  0  0  0  0  0  0  0  0  0
  200.3240  178.6609  155.8414 C   0  0  1  0  0  0  0  0  0  0  0  0
  201.1112  177.4467  155.2931 C   0  0  0  0  0  0  0  0  0  0  0  0
  200.7233  176.1401  155.6983 C   0  0  0  0  0  0  0  0  0  0  0  0
  201.4295  175.0075  155.2637 C   0  0  0  0  0  0  0  0  0  0  0  0
  202.5209  175.1391  154.3755 C   0  0  0  0  0  0  0  0  0  0  0  0
  202.8961  176.4213  153.9307 C   0  0  0  0  0  0  0  0  0  0  0  0
  202.1982  177.5672  154.3885 C   0  0  0  0  0  0  0  0  0  0  0  0
  203.2480  173.8991  153.8978 C   0  0  2  0  0  0  0  0  0  0  0  0
  198.8445  178.5499  155.3649 C   0  0  1  0  0  0  0  0  0  0  0  0
  197.9884  179.6301  155.8879 N   0  0  1  0  0  0  0  0  0  0  0  0
  196.8140  179.9759  155.0620 C   0  0  1  0  0  0  0  0  0  0  0  0
  197.0034  181.3458  154.4572 C   0  0  0  0  0  0  0  0  0  0  0  0
  197.1505  182.6179  155.1038 C   0  0  0  0  0  0  0  0  0  0  0  0
  197.3450  183.5872  154.2183 N   0  0  0  0  0  0  0  0  0  0  0  0
  197.2746  183.0063  152.9986 N   0  0  0  0  0  0  0  0  0  0  0  0
  197.4169  183.7669  151.8099 C   0  0  0  0  0  0  0  0  0  0  0  0
  197.9457  185.0793  151.8524 C   0  0  0  0  0  0  0  0  0  0  0  0
  198.0964  185.8260  150.6677 C   0  0  0  0  0  0  0  0  0  0  0  0
  197.7230  185.2672  149.4297 C   0  0  0  0  0  0  0  0  0  0  0  0
  197.1968  183.9641  149.3779 C   0  0  0  0  0  0  0  0  0  0  0  0
  197.0430  183.2166  150.5600 C   0  0  0  0  0  0  0  0  0  0  0  0
  197.0823  181.6460  153.1277 C   0  0  0  0  0  0  0  0  0  0  0  0
  197.1568  182.9518  156.5381 C   0  0  0  0  0  0  0  0  0  0  0  0
  197.9961  183.9704  157.0497 C   0  0  0  0  0  0  0  0  0  0  0  0
  198.0879  184.2859  158.3610 N   0  0  0  0  0  0  0  0  0  0  0  0
  197.3263  183.5924  159.2346 C   0  0  0  0  0  0  0  0  0  0  0  0
  196.4460  182.5714  158.8342 C   0  0  0  0  0  0  0  0  0  0  0  0
  196.3451  182.2560  157.4665 C   0  0  0  0  0  0  0  0  0  0  0  0
  200.8745  179.9989  155.2778 C   0  0  2  0  0  0  0  0  0  0  0  0
  197.6464  179.3351  156.7970 H   0  0  0  0  0  0  0  0  0  0  0  0
  198.9968  177.5800  158.1600 H   0  0  0  0  0  0  0  0  0  0  0  0
  199.8627  179.6127  157.7341 H   0  0  0  0  0  0  0  0  0  0  0  0
  201.4692  178.9809  157.6812 H   0  0  0  0  0  0  0  0  0  0  0  0
  199.8817  176.0163  156.3608 H   0  0  0  0  0  0  0  0  0  0  0  0
  201.1385  174.0306  155.6122 H   0  0  0  0  0  0  0  0  0  0  0  0
  203.7200  176.5341  153.2377 H   0  0  0  0  0  0  0  0  0  0  0  0
  202.5357  178.5253  154.0260 H   0  0  0  0  0  0  0  0  0  0  0  0
  204.3176  174.0936  153.7940 H   0  0  0  0  0  0  0  0  0  0  0  0
  202.8463  173.5888  152.9315 H   0  0  0  0  0  0  0  0  0  0  0  0
  203.1171  173.0696  154.5965 H   0  0  0  0  0  0  0  0  0  0  0  0
  198.8470  178.5702  154.2747 H   0  0  0  0  0  0  0  0  0  0  0  0
  198.3650  177.6188  155.6654 H   0  0  0  0  0  0  0  0  0  0  0  0
  196.6342  179.2216  154.2929 H   0  0  0  0  0  0  0  0  0  0  0  0
  195.9636  179.9459  155.7294 H   0  0  0  0  0  0  0  0  0  0  0  0
  198.2349  185.5205  152.7952 H   0  0  0  0  0  0  0  0  0  0  0  0
  198.5014  186.8267  150.7131 H   0  0  0  0  0  0  0  0  0  0  0  0
  197.8398  185.8298  148.5158 H   0  0  0  0  0  0  0  0  0  0  0  0
  196.9132  183.5405  148.4247 H   0  0  0  0  0  0  0  0  0  0  0  0
  196.6399  182.2177  150.4906 H   0  0  0  0  0  0  0  0  0  0  0  0
  197.0217  180.9886  152.2709 H   0  0  0  0  0  0  0  0  0  0  0  0
  198.6337  184.5453  156.3907 H   0  0  0  0  0  0  0  0  0  0  0  0
  197.4243  183.8484  160.2801 H   0  0  0  0  0  0  0  0  0  0  0  0
  195.8658  182.0178  159.5591 H   0  0  0  0  0  0  0  0  0  0  0  0
  195.6540  181.4865  157.1606 H   0  0  0  0  0  0  0  0  0  0  0  0
  200.3402  180.8769  155.6409 H   0  0  0  0  0  0  0  0  0  0  0  0
  200.8240  180.0415  154.1887 H   0  0  0  0  0  0  0  0  0  0  0  0
  201.9149  180.1449  155.5687 H   0  0  0  0  0  0  0  0  0  0  0  0
  198.5335  180.4738  155.9975 H   0  0  0  0  0  0  0  0  0  0  0  0
  1  2  1  0
  1 33  1  0
  2  3  1  0
  2 34  1  1
  2 35  1  0
  3  4  1  6
  3 11  1  0
  3 31  1  0
  4  5  1  0
  4  9  2  0
  5  6  2  0
  5 36  1  0
  6  7  1  0
  6 37  1  0
  7  8  2  0
  7 10  1  0
  8  9  1  0
  8 38  1  0
  9 39  1  0
 10 40  1  6
 10 41  1  0
 10 42  1  0
 11 12  1  0
 11 43  1  6
 11 44  1  0
 12 13  1  0
 12 32  1  1
 12 60  1  0
 13 14  1  0
 13 45  1  6
 13 46  1  0
 14 15  1  0
 14 24  2  0
 15 16  2  0
 15 25  1  0
 16 17  1  0
 17 18  1  0
 17 24  1  0
 18 19  2  0
 18 23  1  0
 19 20  1  0
 19 47  1  0
 20 21  2  0
 20 48  1  0
 21 22  1  0
 21 49  1  0
 22 23  2  0
 22 50  1  0
 23 51  1  0
 24 52  1  0
 25 26  2  0
 25 30  1  0
 26 27  1  0
 26 53  1  0
 27 28  2  0
 28 29  1  0
 28 54  1  0
 29 30  2  0
 29 55  1  0
 30 56  1  0
 31 57  1  1
 31 58  1  0
 31 59  1  0
M  CHG  1  12   1
M  END
>  <s_epik_cmdline>  (1348) 
J2VwaWtfcHl0aG9uJywgJy1waCcsICc3LjAwMDAwMCcsICctcGh0JywgJzIuMDAwMDAwJywgJy1tcycsICcxNicsICctdG4nLCAnOCcsICctbWEnLCAnMjAwJywgJy1pbWFlJywgJzxpbmZpbGUubWFlPicsICctb21hZScsICc8b3V0ZmlsZS5tYWU+Jw==

>  <s_epik_input>  (1348) 
W2NIXTFbY0hdYyhbQ0gzXSlbY0hdW2NIXWMxW0NAXShbQ0gzXSkoW0NIMl1bT0hdKVtDSDJdW05IXVtDSDJdYzJjKC1jM1tjSF1uW2NIXVtjSF1bY0hdMylubihbY0hdMiktYzRbY0hdW2NIXVtjSF1bY0hdW2NIXTQ=

>  <s_i_glide_gridfile>  (1348) 
ATP-Grid

>  <s_lp_Force_Field>  (1348) 
OPLS_2005

>  <s_lp_Variant>  (1348) 
m_270004bbb____21537754____7547738-2

>  <s_lp_label>  (1348) 
1826_sdstereoexpander_2_neutralizer_1_epik_1_stereoizer_1

>  <s_m_source_file>  (1348) 
ATP-VSW-LIGPREP-001-in.maegz

>  <s_sd_BIOSOLVEIT.INFINISEE\_QUERY\_NAME>  (1348) 
Ref-Lig

>  <s_sd_BIOSOLVEIT.INFINISEE\_QUERY\_SMILES>  (1348) 
S(c1nc2c(cc1C[NH2+]Cc3ccc(cc3)C[NH+](C)C)cccc2)Cc4ccccc4

>  <s_sd_BIOSOLVEIT.INFINISEE\_REACTION\_NAME>  (1348) 
m_270004bbb

>  <s_sd_BIOSOLVEIT.INFINISEE\_REAGENT1\_SMILES>  (1348) 
[R1*]NCC(c1ccc(cc1)C)(CO)C

>  <s_sd_BIOSOLVEIT.INFINISEE\_REAGENT2\_SMILES>  (1348) 
[R1*]CC=1C(=NN(c2ccccc2)C1)c3cnccc3

>  <s_sd_BIOSOLVEIT.INFINISEE\_SPACE>  (1348) 
REALSpace_44bn_2023-08

>  <s_vsw_compound_code>  (1348) 
58401

>  <s_vsw_variant>  (1348) 
58401-2

>  <r_epik_Charging_Adjusted_Penalty>  (1348) 
0.013606194125781399

>  <r_epik_Ionization_Penalty>  (1348) 
0.0099000000000000008

>  <r_epik_Ionization_Penalty_Charging>  (1348) 
0.0067999999999999996

>  <r_epik_Ionization_Penalty_Neutral>  (1348) 
0.0030999999999999999

>  <r_epik_State_Penalty>  (1348) 
0.0067999999999999996

>  <r_i_docking_score>  (1348) 
-5.42769533688179

>  <r_i_glide_ecoul>  (1348) 
-14.720864295959499

>  <r_i_glide_eff_state_penalty>  (1348) 
0.0067999999999999996

>  <r_i_glide_einternal>  (1348) 
5.7751007080078098

>  <r_i_glide_emodel>  (1348) 
-69.241603538617596

>  <r_i_glide_energy>  (1348) 
-48.855534553527797

>  <r_i_glide_erotb>  (1348) 
0.92294196916349502

>  <r_i_glide_esite>  (1348) 
-0.12769974573839099

>  <r_i_glide_evdw>  (1348) 
-34.134670257568402

>  <r_i_glide_gscore>  (1348) 
-5.4344953368817901

>  <r_i_glide_hbond>  (1348) 
-0.421265976788955

>  <r_i_glide_ligand_efficiency>  (1348) 
-0.17508694635102601

>  <r_i_glide_ligand_efficiency_ln>  (1348) 
-1.2241116373523799

>  <r_i_glide_ligand_efficiency_sa>  (1348) 
-0.55001474512381998

>  <r_i_glide_lipo>  (1348) 
-1.30407201715469

>  <r_i_glide_metal>  (1348) 
-0

>  <r_i_glide_rewards>  (1348) 
-0.58953640909090799

>  <r_lp_Energy>  (1348) 
26.779223999999999

>  <r_lp_tautomer_probability>  (1348) 
1

>  <r_qp_ACxDN^.5/SA>  (1348) 
0.010810200000000001

>  <r_qp_CIQPlogS>  (1348) 
-5.5880000000000001

>  <r_qp_EA(eV)>  (1348) 
0.60699999999999998

>  <r_qp_FISA>  (1348) 
78.584999999999994

>  <r_qp_FOSA>  (1348) 
204.00399999999999

>  <r_qp_IP(eV)>  (1348) 
8.7859999999999996

>  <r_qp_Jm>  (1348) 
0.0040428682027695197

>  <r_qp_PISA>  (1348) 
463.10000000000002

>  <r_qp_PSA>  (1348) 
57.741999999999997

>  <r_qp_PercentHumanOralAbsorption>  (1348) 
100

>  <r_qp_QPPCaco>  (1348) 
444.19600000000003

>  <r_qp_QPPMDCK>  (1348) 
227.666

>  <r_qp_QPlogBB>  (1348) 
-0.27900000000000003

>  <r_qp_QPlogHERG>  (1348) 
-7.7050000000000001

>  <r_qp_QPlogKhsa>  (1348) 
0.872

>  <r_qp_QPlogKp>  (1348) 
-2.7269999999999999

>  <r_qp_QPlogPC16>  (1348) 
15.260999999999999

>  <r_qp_QPlogPo/w>  (1348) 
4.806

>  <r_qp_QPlogPoct>  (1348) 
22.475999999999999

>  <r_qp_QPlogPw>  (1348) 
12.198

>  <r_qp_QPlogS>  (1348) 
-5.282

>  <r_qp_QPpolrz>  (1348) 
48.588999999999999

>  <r_qp_SASA>  (1348) 
745.68899999999996

>  <r_qp_SAamideO>  (1348) 
0

>  <r_qp_SAfluorine>  (1348) 
0

>  <r_qp_WPSA>  (1348) 
0

>  <r_qp_accptHB>  (1348) 
5.7000000000000002

>  <r_qp_dip^2/V>  (1348) 
0.024180699999999999

>  <r_qp_dipole>  (1348) 
5.7549999999999999

>  <r_qp_donorHB>  (1348) 
2

>  <r_qp_glob>  (1348) 
0.79987969999999997

>  <r_qp_mol_MW>  (1348) 
412.53300000000002

>  <r_qp_volume>  (1348) 
1369.702

>  <r_sd_BIOSOLVEIT.INFINISEE\_FTREES\_SIMILARITY>  (1348) 
0.90400000000000003

>  <r_sd_BIOSOLVEIT.LOGP>  (1348) 
3.2563200000000001

>  <r_sd_BIOSOLVEIT.MOLECULAR\_WEIGHT>  (1348) 
413.54199999999997

>  <r_sd_BIOSOLVEIT.TPSA>  (1348) 
67.549999999999997

>  <i_epik_Tot_Q>  (1348) 
1

>  <i_epik_Tot_abs_Q>  (1348) 
1

>  <i_f3d_flags>  (1348) 
0

>  <i_i_glide_confnum>  (1348) 
1

>  <i_i_glide_lignum>  (1348) 
538

>  <i_i_glide_posenum>  (1348) 
18

>  <i_i_glide_rotatable_bonds>  (1348) 
9

>  <i_lp_mmshare_version>  (1348) 
65135

>  <i_m_ct_format>  (1348) 
2

>  <i_m_source_file_index>  (1348) 
1826

>  <i_qp_#NandO>  (1348) 
5

>  <i_qp_#acid>  (1348) 
0

>  <i_qp_#amide>  (1348) 
0

>  <i_qp_#amidine>  (1348) 
0

>  <i_qp_#amine>  (1348) 
1

>  <i_qp_#in34>  (1348) 
0

>  <i_qp_#in56>  (1348) 
23

>  <i_qp_#metab>  (1348) 
6

>  <i_qp_#nonHatm>  (1348) 
31

>  <i_qp_#noncon>  (1348) 
0

>  <i_qp_#ringatoms>  (1348) 
23

>  <i_qp_#rotor>  (1348) 
7

>  <i_qp_#rtvFG>  (1348) 
0

>  <i_qp_#stars>  (1348) 
1

>  <i_qp_CNS>  (1348) 
1

>  <i_qp_HumanOralAbsorption>  (1348) 
3

>  <i_qp_RuleOfFive>  (1348) 
0

>  <i_qp_RuleOfThree>  (1348) 
0

>  <i_sd_BIOSOLVEIT.INFINISEE\_REAGENT1\_NAME>  (1348) 
21537754

>  <i_sd_BIOSOLVEIT.INFINISEE\_REAGENT2\_NAME>  (1348) 
7547738

>  <i_sd_BIOSOLVEIT.INFINISEE\_RESULT\_RANK>  (1348) 
79527

>  <i_sd_version>  (1348) 
0

>  <b_lp_Chiralities_Consistent>  (1348) 
1

>  <b_sd_chiral_flag>  (1348) 
0

>  <canonical_id>  (1348) 
ATP-HTVS-D4C1A78D47F2

>  <compound_code>  (1348) 
58401

>  <title>  (1348) 
m_270004bbb____21537754____7547738

>  <variant>  (1348) 
58401-2

>  <source_file>  (1348) 
运行/运行/ATP-VSW/ATP-VSW-DOCK_HTVS_1-001_lib/ATP-VSW-DOCK_HTVS_1-001_lib

>  <canonical_smiles>  (1348) 
Cc1ccc([C@](C)(CO)C[NH2+]Cc2cn(-c3ccccc3)nc2-c2cccnc2)cc1

>  <scaffold>  (1348) 
c1ccc(CC[NH2+]Cc2cn(-c3ccccc3)nc2-c2cccnc2)cc1

>  <molecular_formula>  (1348) 
C26H29N4O+

$$$$
ATP-HTVS-D4F4D34A0DC7
     RDKit          3D

 63 66  0  0  0  0  0  0  0  0999 V2000
  200.3783  186.4049  159.6290 O   0  0  0  0  0  0  0  0  0  0  0  0
  199.7923  187.3486  158.8040 C   0  0  0  0  0  0  0  0  0  0  0  0
  199.5077  188.6040  159.3833 C   0  0  0  0  0  0  0  0  0  0  0  0
  198.8410  189.6037  158.6528 C   0  0  0  0  0  0  0  0  0  0  0  0
  198.4427  189.3576  157.3243 C   0  0  0  0  0  0  0  0  0  0  0  0
  198.7269  188.1196  156.7267 C   0  0  0  0  0  0  0  0  0  0  0  0
  199.4144  187.1269  157.4524 C   0  0  0  0  0  0  0  0  0  0  0  0
  200.6098  185.0810  159.1488 C   0  0  1  0  0  0  0  0  0  0  0  0
  199.3424  184.3101  158.8094 C   0  0  0  0  0  0  0  0  0  0  0  0
  198.1745  184.7595  159.3029 N   0  0  0  0  0  0  0  0  0  0  0  0
  196.9755  184.2178  159.0007 C   0  0  0  0  0  0  0  0  0  0  0  0
  196.9152  183.1185  158.1064 C   0  0  0  0  0  0  0  0  0  0  0  0
  198.1235  182.6330  157.5227 C   0  0  0  0  0  0  0  0  0  0  0  0
  198.1282  181.6046  156.5585 N   0  0  0  0  0  0  0  0  0  0  0  0
  199.2986  180.7330  156.4711 C   0  0  1  0  0  0  0  0  0  0  0  0
  199.0216  179.3743  155.7854 C   0  0  2  0  0  0  0  0  0  0  0  0
  200.1931  178.4306  155.8571 N   0  0  2  0  0  0  0  0  0  0  0  0
  199.9656  177.1207  155.1842 C   0  0  2  0  0  0  0  0  0  0  0  0
  200.7240  178.2057  157.2283 C   0  0  2  0  0  0  0  0  0  0  0  0
  198.5548  179.5936  154.3416 C   0  0  0  0  0  0  0  0  0  0  0  0
  199.4861  179.7546  153.2893 C   0  0  0  0  0  0  0  0  0  0  0  0
  199.0479  179.8482  151.9544 C   0  0  0  0  0  0  0  0  0  0  0  0
  197.6741  179.8268  151.6594 C   0  0  0  0  0  0  0  0  0  0  0  0
  196.7386  179.7224  152.7095 C   0  0  0  0  0  0  0  0  0  0  0  0
  197.1753  179.6097  154.0422 C   0  0  0  0  0  0  0  0  0  0  0  0
  197.2080  179.9104  150.2202 C   0  0  2  0  0  0  0  0  0  0  0  0
  199.3482  183.2282  157.9158 C   0  0  0  0  0  0  0  0  0  0  0  0
  195.6582  182.5403  157.8438 C   0  0  0  0  0  0  0  0  0  0  0  0
  194.4984  183.0655  158.4488 C   0  0  0  0  0  0  0  0  0  0  0  0
  193.2824  182.5166  158.1333 O   0  0  0  0  0  0  0  0  0  0  0  0
  194.5639  184.1985  159.2862 C   0  0  0  0  0  0  0  0  0  0  0  0
  195.8080  184.7728  159.5553 C   0  0  0  0  0  0  0  0  0  0  0  0
  199.7715  188.7896  160.4181 H   0  0  0  0  0  0  0  0  0  0  0  0
  198.6225  190.5554  159.1168 H   0  0  0  0  0  0  0  0  0  0  0  0
  197.9301  190.1254  156.7578 H   0  0  0  0  0  0  0  0  0  0  0  0
  198.4022  187.9094  155.7173 H   0  0  0  0  0  0  0  0  0  0  0  0
  199.6028  186.1897  156.9497 H   0  0  0  0  0  0  0  0  0  0  0  0
  201.2676  185.1170  158.2796 H   0  0  0  0  0  0  0  0  0  0  0  0
  201.1356  184.5248  159.9273 H   0  0  0  0  0  0  0  0  0  0  0  0
  197.5124  181.6700  155.7514 H   0  0  0  0  0  0  0  0  0  0  0  0
  200.0785  181.2653  155.9185 H   0  0  0  0  0  0  0  0  0  0  0  0
  199.6656  180.5597  157.4789 H   0  0  0  0  0  0  0  0  0  0  0  0
  198.2049  178.8886  156.3154 H   0  0  0  0  0  0  0  0  0  0  0  0
  199.1532  176.5880  155.6685 H   0  0  0  0  0  0  0  0  0  0  0  0
  200.8557  176.4915  155.2469 H   0  0  0  0  0  0  0  0  0  0  0  0
  199.7318  177.2144  154.1214 H   0  0  0  0  0  0  0  0  0  0  0  0
  199.9484  177.8388  157.9022 H   0  0  0  0  0  0  0  0  0  0  0  0
  201.1640  179.1042  157.6594 H   0  0  0  0  0  0  0  0  0  0  0  0
  201.5317  177.4718  157.2177 H   0  0  0  0  0  0  0  0  0  0  0  0
  200.5498  179.7543  153.4766 H   0  0  0  0  0  0  0  0  0  0  0  0
  199.7766  179.9007  151.1590 H   0  0  0  0  0  0  0  0  0  0  0  0
  195.6797  179.7012  152.4919 H   0  0  0  0  0  0  0  0  0  0  0  0
  196.4467  179.4886  154.8354 H   0  0  0  0  0  0  0  0  0  0  0  0
  196.1988  180.3167  150.1601 H   0  0  0  0  0  0  0  0  0  0  0  0
  197.2124  178.9231  149.7565 H   0  0  0  0  0  0  0  0  0  0  0  0
  197.8672  180.5603  149.6439 H   0  0  0  0  0  0  0  0  0  0  0  0
  200.2920  182.9297  157.4805 H   0  0  0  0  0  0  0  0  0  0  0  0
  195.5622  181.6762  157.1920 H   0  0  0  0  0  0  0  0  0  0  0  0
  193.2289  182.4143  157.1698 H   0  0  0  0  0  0  0  0  0  0  0  0
  193.6554  184.6322  159.6918 H   0  0  0  0  0  0  0  0  0  0  0  0
  195.8638  185.6507  160.1863 H   0  0  0  0  0  0  0  0  0  0  0  0
  198.2092  185.5906  159.8892 H   0  0  0  0  0  0  0  0  0  0  0  0
  200.9372  178.8824  155.3457 H   0  0  0  0  0  0  0  0  0  0  0  0
  1  2  1  0
  1  8  1  0
  2  3  2  0
  2  7  1  0
  3  4  1  0
  3 33  1  0
  4  5  2  0
  4 34  1  0
  5  6  1  0
  5 35  1  0
  6  7  2  0
  6 36  1  0
  7 37  1  0
  8  9  1  0
  8 38  1  6
  8 39  1  0
  9 10  2  0
  9 27  1  0
 10 11  1  0
 10 62  1  0
 11 12  1  0
 11 32  2  0
 12 13  1  0
 12 28  2  0
 13 14  1  0
 13 27  2  0
 14 15  1  0
 14 40  1  0
 15 16  1  0
 15 41  1  6
 15 42  1  0
 16 17  1  0
 16 20  1  0
 16 43  1  1
 17 18  1  0
 17 19  1  0
 17 63  1  6
 18 44  1  1
 18 45  1  0
 18 46  1  0
 19 47  1  1
 19 48  1  0
 19 49  1  0
 20 21  1  0
 20 25  2  0
 21 22  2  0
 21 50  1  0
 22 23  1  0
 22 51  1  0
 23 24  2  0
 23 26  1  0
 24 25  1  0
 24 52  1  0
 25 53  1  0
 26 54  1  1
 26 55  1  0
 26 56  1  0
 27 57  1  0
 28 29  1  0
 28 58  1  0
 29 30  1  0
 29 31  2  0
 30 59  1  0
 31 32  1  0
 31 60  1  0
 32 61  1  0
M  CHG  2  10   1  17   1
M  END
>  <s_epik_cmdline>  (1349) 
J2VwaWtfcHl0aG9uJywgJy1waCcsICc3LjAwMDAwMCcsICctcGh0JywgJzIuMDAwMDAwJywgJy1tcycsICcxNicsICctdG4nLCAnOCcsICctbWEnLCAnMjAwJywgJy1pbWFlJywgJzxpbmZpbGUubWFlPicsICctb21hZScsICc8b3V0ZmlsZS5tYWU+Jw==

>  <s_epik_input>  (1349) 
W2NIXTFbY0hdW2NIXVtjSF1bY0hdYzFPW0NIMl1jKG4yKVtjSF1jKGMoYzIzKVtjSF1jKFtPSF0pW2NIXVtjSF0zKVtOSF1bQ0gyXVtDQEhdKE4oW0NIM10pW0NIM10pYzRbY0hdW2NIXWMoW0NIM10pW2NIXVtjSF00

>  <s_i_glide_gridfile>  (1349) 
ATP-Grid

>  <s_lp_Force_Field>  (1349) 
OPLS_2005

>  <s_lp_Variant>  (1349) 
YAS_R004____OTV1509977____OTV7113231893____OTV7020410266-1

>  <s_lp_label>  (1349) 
17_sdstereoexpander_1_neutralizer_1_epik_1_stereoizer_1

>  <s_m_source_file>  (1349) 
ATP-VSW-LIGPREP-002-in.maegz

>  <s_sd_BIOSOLVEIT.INFINISEE\_QUERY\_NAME>  (1349) 
Ref-Lig

>  <s_sd_BIOSOLVEIT.INFINISEE\_QUERY\_SMILES>  (1349) 
S(c1nc2c(cc1C[NH2+]Cc3ccc(cc3)C[NH+](C)C)cccc2)Cc4ccccc4

>  <s_sd_BIOSOLVEIT.INFINISEE\_REACTION\_NAME>  (1349) 
YAS_R004

>  <s_sd_BIOSOLVEIT.INFINISEE\_REAGENT1\_NAME>  (1349) 
OTV1509977

>  <s_sd_BIOSOLVEIT.INFINISEE\_REAGENT1\_SMILES>  (1349) 
Oc1ccc(N)cc1

>  <s_sd_BIOSOLVEIT.INFINISEE\_REAGENT2\_NAME>  (1349) 
OTV7113231893

>  <s_sd_BIOSOLVEIT.INFINISEE\_REAGENT2\_SMILES>  (1349) 
O=C(O)COc1ccccc1

>  <s_sd_BIOSOLVEIT.INFINISEE\_REAGENT3\_NAME>  (1349) 
OTV7020410266

>  <s_sd_BIOSOLVEIT.INFINISEE\_REAGENT3\_SMILES>  (1349) 
N(C(c1ccc(cc1)C)CN)(C)C

>  <s_sd_BIOSOLVEIT.INFINISEE\_SPACE>  (1349) 
CHEMriya_12bn_2022-01

>  <s_vsw_compound_code>  (1349) 
514

>  <s_vsw_variant>  (1349) 
514-1

>  <r_epik_Charging_Adjusted_Penalty>  (1349) 
0.207021012167975

>  <r_epik_Ionization_Penalty>  (1349) 
0.11020000000000001

>  <r_epik_Ionization_Penalty_Charging>  (1349) 
0.10199999999999999

>  <r_epik_Ionization_Penalty_Neutral>  (1349) 
0.0082000000000000007

>  <r_epik_State_Penalty>  (1349) 
0.1051

>  <r_i_docking_score>  (1349) 
-5.2189645426299904

>  <r_i_glide_ecoul>  (1349) 
-16.200044631958001

>  <r_i_glide_eff_state_penalty>  (1349) 
0.1051

>  <r_i_glide_einternal>  (1349) 
6.0206151008606001

>  <r_i_glide_emodel>  (1349) 
-67.744321549939102

>  <r_i_glide_energy>  (1349) 
-47.829006195068402

>  <r_i_glide_erotb>  (1349) 
0.75393900808118197

>  <r_i_glide_esite>  (1349) 
-0.069247927179835397

>  <r_i_glide_evdw>  (1349) 
-31.628961563110401

>  <r_i_glide_gscore>  (1349) 
-5.3240645426299897

>  <r_i_glide_hbond>  (1349) 
-0.16

>  <r_i_glide_ligand_efficiency>  (1349) 
-0.16309264195718701

>  <r_i_glide_ligand_efficiency_ln>  (1349) 
-1.1686684246952499

>  <r_i_glide_ligand_efficiency_sa>  (1349) 
-0.51778686222405301

>  <r_i_glide_lipo>  (1349) 
-1.1319868051275801

>  <r_i_glide_metal>  (1349) 
-0

>  <r_i_glide_rewards>  (1349) 
-0.70531404545454301

>  <r_lp_Energy>  (1349) 
34.151975

>  <r_lp_tautomer_probability>  (1349) 
1

>  <r_qp_ACxDN^.5/SA>  (1349) 
0.012194699999999999

>  <r_qp_CIQPlogS>  (1349) 
-5.9059999999999997

>  <r_qp_EA(eV)>  (1349) 
0.81899999999999995

>  <r_qp_FISA>  (1349) 
70.215000000000003

>  <r_qp_FOSA>  (1349) 
272.803

>  <r_qp_IP(eV)>  (1349) 
8.2949999999999999

>  <r_qp_Jm>  (1349) 
0.317712556419607

>  <r_qp_PISA>  (1349) 
294.815

>  <r_qp_PSA>  (1349) 
57.786000000000001

>  <r_qp_PercentHumanOralAbsorption>  (1349) 
100

>  <r_qp_QPPCaco>  (1349) 
533.27200000000005

>  <r_qp_QPPMDCK>  (1349) 
277.392

>  <r_qp_QPlogBB>  (1349) 
-0.161

>  <r_qp_QPlogHERG>  (1349) 
-5.3209999999999997

>  <r_qp_QPlogKhsa>  (1349) 
0.66300000000000003

>  <r_qp_QPlogKp>  (1349) 
-2.9740000000000002

>  <r_qp_QPlogPC16>  (1349) 
13.237

>  <r_qp_QPlogPo/w>  (1349) 
4.2930000000000001

>  <r_qp_QPlogPoct>  (1349) 
20.056999999999999

>  <r_qp_QPlogPw>  (1349) 
10.098000000000001

>  <r_qp_QPlogS>  (1349) 
-3.1549999999999998

>  <r_qp_QPpolrz>  (1349) 
42.43

>  <r_qp_SASA>  (1349) 
637.83299999999997

>  <r_qp_SAamideO>  (1349) 
0

>  <r_qp_SAfluorine>  (1349) 
0

>  <r_qp_WPSA>  (1349) 
0

>  <r_qp_accptHB>  (1349) 
5.5

>  <r_qp_dip^2/V>  (1349) 
0.0145054

>  <r_qp_dipole>  (1349) 
4.3220000000000001

>  <r_qp_donorHB>  (1349) 
2

>  <r_qp_glob>  (1349) 
0.89759560000000005

>  <r_qp_mol_MW>  (1349) 
427.54500000000002

>  <r_qp_volume>  (1349) 
1288.0530000000001

>  <r_sd_BIOSOLVEIT.INFINISEE\_FTREES\_SIMILARITY>  (1349) 
0.93200000000000005

>  <r_sd_BIOSOLVEIT.LOGP>  (1349) 
4.1255199999999999

>  <r_sd_BIOSOLVEIT.MOLECULAR\_WEIGHT>  (1349) 
428.553

>  <r_sd_BIOSOLVEIT.TPSA>  (1349) 
58.82

>  <i_epik_Tot_Q>  (1349) 
2

>  <i_epik_Tot_abs_Q>  (1349) 
2

>  <i_f3d_flags>  (1349) 
0

>  <i_i_glide_confnum>  (1349) 
3

>  <i_i_glide_lignum>  (1349) 
75

>  <i_i_glide_posenum>  (1349) 
12

>  <i_i_glide_rotatable_bonds>  (1349) 
9

>  <i_lp_mmshare_version>  (1349) 
65135

>  <i_m_ct_format>  (1349) 
2

>  <i_m_source_file_index>  (1349) 
17

>  <i_qp_#NandO>  (1349) 
5

>  <i_qp_#acid>  (1349) 
0

>  <i_qp_#amide>  (1349) 
0

>  <i_qp_#amidine>  (1349) 
0

>  <i_qp_#amine>  (1349) 
1

>  <i_qp_#in34>  (1349) 
0

>  <i_qp_#in56>  (1349) 
22

>  <i_qp_#metab>  (1349) 
8

>  <i_qp_#nonHatm>  (1349) 
32

>  <i_qp_#noncon>  (1349) 
0

>  <i_qp_#ringatoms>  (1349) 
22

>  <i_qp_#rotor>  (1349) 
9

>  <i_qp_#rtvFG>  (1349) 
0

>  <i_qp_#stars>  (1349) 
0

>  <i_qp_CNS>  (1349) 
1

>  <i_qp_HumanOralAbsorption>  (1349) 
3

>  <i_qp_RuleOfFive>  (1349) 
0

>  <i_qp_RuleOfThree>  (1349) 
1

>  <i_sd_BIOSOLVEIT.INFINISEE\_RESULT\_RANK>  (1349) 
3606

>  <i_sd_version>  (1349) 
0

>  <b_lp_Chiralities_Consistent>  (1349) 
1

>  <b_sd_chiral_flag>  (1349) 
0

>  <canonical_id>  (1349) 
ATP-HTVS-D4F4D34A0DC7

>  <compound_code>  (1349) 
514

>  <title>  (1349) 
YAS_R004____OTV1509977____OTV7113231893____OTV7020410266

>  <variant>  (1349) 
514-1

>  <source_file>  (1349) 
运行/运行/ATP-VSW/ATP-VSW-DOCK_HTVS_1-002_lib.maegz

>  <canonical_smiles>  (1349) 
Cc1ccc([C@H](CNc2cc(COc3ccccc3)[nH+]c3ccc(O)cc23)[NH+](C)C)cc1

>  <scaffold>  (1349) 
c1ccc(CCNc2cc(COc3ccccc3)[nH+]c3ccccc23)cc1

>  <molecular_formula>  (1349) 
C27H31N3O2+2

$$$$
ATP-HTVS-D51006C467E8
     RDKit          3D

 50 53  0  0  0  0  0  0  0  0999 V2000
  195.9414  187.5717  160.6323 O   0  0  0  0  0  0  0  0  0  0  0  0
  196.0004  186.2845  160.1887 C   0  0  0  0  0  0  0  0  0  0  0  0
  197.2334  185.7395  159.7759 C   0  0  0  0  0  0  0  0  0  0  0  0
  197.2992  184.4016  159.3603 C   0  0  0  0  0  0  0  0  0  0  0  0
  196.1286  183.6118  159.2487 C   0  0  0  0  0  0  0  0  0  0  0  0
  194.8949  184.1771  159.6623 C   0  0  0  0  0  0  0  0  0  0  0  0
  194.8362  185.4975  160.1400 C   0  0  0  0  0  0  0  0  0  0  0  0
  196.2058  182.1988  158.6720 C   0  0  1  0  0  0  0  0  0  0  0  0
  195.0469  181.4406  158.9284 O   0  0  0  0  0  0  0  0  0  0  0  0
  196.4525  182.1436  157.1460 C   0  0  1  0  0  0  0  0  0  0  0  0
  197.3732  183.1790  156.6821 N   0  0  0  0  0  0  0  0  0  0  0  0
  197.5909  183.4698  155.3690 C   0  0  0  0  0  0  0  0  0  0  0  0
  197.3280  182.5317  154.4765 N   0  0  0  0  0  0  0  0  0  0  0  0
  197.6205  182.7973  153.1837 C   0  0  0  0  0  0  0  0  0  0  0  0
  197.3325  181.7084  152.2216 C   0  0  0  0  0  0  0  0  0  0  0  0
  197.7412  181.7968  150.8689 C   0  0  0  0  0  0  0  0  0  0  0  0
  197.4508  180.7707  149.9554 C   0  0  0  0  0  0  0  0  0  0  0  0
  196.7487  179.6277  150.3724 C   0  0  0  0  0  0  0  0  0  0  0  0
  196.3468  179.5128  151.7146 C   0  0  0  0  0  0  0  0  0  0  0  0
  196.6360  180.5425  152.6252 C   0  0  0  0  0  0  0  0  0  0  0  0
  198.1900  184.0405  152.8255 C   0  0  0  0  0  0  0  0  0  0  0  0
  198.4251  184.9806  153.8510 C   0  0  0  0  0  0  0  0  0  0  0  0
  198.1183  184.6701  155.1369 N   0  0  0  0  0  0  0  0  0  0  0  0
  199.0235  186.3212  153.5935 C   0  0  0  0  0  0  0  0  0  0  0  0
  199.6252  186.6316  152.3445 C   0  0  0  0  0  0  0  0  0  0  0  0
  200.1779  187.8996  152.0887 C   0  0  0  0  0  0  0  0  0  0  0  0
  200.1413  188.9002  153.0727 C   0  0  0  0  0  0  0  0  0  0  0  0
  199.5503  188.6202  154.3183 C   0  0  0  0  0  0  0  0  0  0  0  0
  199.0000  187.3468  154.5711 C   0  0  0  0  0  0  0  0  0  0  0  0
  196.7857  188.0028  160.6368 H   0  0  0  0  0  0  0  0  0  0  0  0
  198.1307  186.3392  159.7753 H   0  0  0  0  0  0  0  0  0  0  0  0
  198.2634  183.9889  159.0830 H   0  0  0  0  0  0  0  0  0  0  0  0
  193.9801  183.6032  159.5913 H   0  0  0  0  0  0  0  0  0  0  0  0
  193.8842  185.9130  160.4379 H   0  0  0  0  0  0  0  0  0  0  0  0
  197.0486  181.7044  159.1640 H   0  0  0  0  0  0  0  0  0  0  0  0
  195.1892  180.5501  158.5608 H   0  0  0  0  0  0  0  0  0  0  0  0
  196.8161  181.1566  156.8564 H   0  0  0  0  0  0  0  0  0  0  0  0
  195.5108  182.2921  156.6202 H   0  0  0  0  0  0  0  0  0  0  0  0
  197.5457  183.9498  157.3171 H   0  0  0  0  0  0  0  0  0  0  0  0
  198.2912  182.6502  150.5020 H   0  0  0  0  0  0  0  0  0  0  0  0
  197.7783  180.8692  148.9294 H   0  0  0  0  0  0  0  0  0  0  0  0
  196.5343  178.8432  149.6645 H   0  0  0  0  0  0  0  0  0  0  0  0
  195.8047  178.6392  152.0547 H   0  0  0  0  0  0  0  0  0  0  0  0
  196.3092  180.4221  153.6517 H   0  0  0  0  0  0  0  0  0  0  0  0
  198.4198  184.2672  151.8037 H   0  0  0  0  0  0  0  0  0  0  0  0
  199.6877  185.9022  151.5501 H   0  0  0  0  0  0  0  0  0  0  0  0
  200.6363  188.0982  151.1281 H   0  0  0  0  0  0  0  0  0  0  0  0
  200.5695  189.8712  152.8735 H   0  0  0  0  0  0  0  0  0  0  0  0
  199.5176  189.3838  155.0837 H   0  0  0  0  0  0  0  0  0  0  0  0
  198.5452  187.1684  155.5361 H   0  0  0  0  0  0  0  0  0  0  0  0
  1  2  1  0
  1 30  1  0
  2  3  1  0
  2  7  2  0
  3  4  2  0
  3 31  1  0
  4  5  1  0
  4 32  1  0
  5  6  2  0
  5  8  1  0
  6  7  1  0
  6 33  1  0
  7 34  1  0
  8  9  1  0
  8 10  1  0
  8 35  1  1
  9 36  1  0
 10 11  1  0
 10 37  1  1
 10 38  1  0
 11 12  1  0
 11 39  1  0
 12 13  2  0
 12 23  1  0
 13 14  1  0
 14 15  1  0
 14 21  2  0
 15 16  2  0
 15 20  1  0
 16 17  1  0
 16 40  1  0
 17 18  2  0
 17 41  1  0
 18 19  1  0
 18 42  1  0
 19 20  2  0
 19 43  1  0
 20 44  1  0
 21 22  1  0
 21 45  1  0
 22 23  2  0
 22 24  1  0
 24 25  2  0
 24 29  1  0
 25 26  1  0
 25 46  1  0
 26 27  2  0
 26 47  1  0
 27 28  1  0
 27 48  1  0
 28 29  2  0
 28 49  1  0
 29 50  1  0
M  END
>  <s_epik_cmdline>  (1350) 
J2VwaWtfcHl0aG9uJywgJy1waCcsICc3LjAwMDAwMCcsICctcGh0JywgJzIuMDAwMDAwJywgJy1tcycsICcxNicsICctdG4nLCAnOCcsICctbWEnLCAnMjAwJywgJy1pbWFlJywgJzxpbmZpbGUubWFlPicsICctb21hZScsICc8b3V0ZmlsZS5tYWU+Jw==

>  <s_epik_input>  (1350) 
W09IXWMxW2NIXVtjSF1jKFtjSF1bY0hdMSlbQ0BASF0oW09IXSlbQ0gyXVtOSF1jMm5jKC1jM1tjSF1bY0hdW2NIXVtjSF1bY0hdMylbY0hdYyhuMiktYzRbY0hdW2NIXVtjSF1bY0hdW2NIXTQ=

>  <s_i_glide_gridfile>  (1350) 
ATP-Grid

>  <s_lp_Force_Field>  (1350) 
OPLS_2005

>  <s_lp_Variant>  (1350) 
a2____240755____43628-1

>  <s_lp_label>  (1350) 
394_sdstereoexpander_1_neutralizer_1_epik_1_stereoizer_1

>  <s_m_source_file>  (1350) 
ATP-VSW-LIGPREP-002-in.maegz

>  <s_sd_BIOSOLVEIT.INFINISEE\_QUERY\_NAME>  (1350) 
Ref-Lig

>  <s_sd_BIOSOLVEIT.INFINISEE\_QUERY\_SMILES>  (1350) 
S(c1nc2c(cc1C[NH2+]Cc3ccc(cc3)C[NH+](C)C)cccc2)Cc4ccccc4

>  <s_sd_BIOSOLVEIT.INFINISEE\_REACTION\_NAME>  (1350) 
a2

>  <s_sd_BIOSOLVEIT.INFINISEE\_REAGENT1\_SMILES>  (1350) 
[R1*]NCC(O)c1ccc(O)cc1

>  <s_sd_BIOSOLVEIT.INFINISEE\_REAGENT2\_SMILES>  (1350) 
[R1*]c1nc(c2ccccc2)cc(n1)c3ccccc3

>  <s_sd_BIOSOLVEIT.INFINISEE\_SPACE>  (1350) 
FreedomSpace_5bn_2023-06

>  <s_vsw_compound_code>  (1350) 
12578

>  <s_vsw_variant>  (1350) 
12578-1

>  <r_epik_Charging_Adjusted_Penalty>  (1350) 
0.00060180312891447505

>  <r_epik_Ionization_Penalty>  (1350) 
0.00069999999999999999

>  <r_epik_Ionization_Penalty_Charging>  (1350) 
0

>  <r_epik_Ionization_Penalty_Neutral>  (1350) 
0.00069999999999999999

>  <r_epik_State_Penalty>  (1350) 
0.00059999999999999995

>  <r_i_docking_score>  (1350) 
-4.7685218973281502

>  <r_i_glide_ecoul>  (1350) 
-5.0434398651123002

>  <r_i_glide_eff_state_penalty>  (1350) 
0.00059999999999999995

>  <r_i_glide_einternal>  (1350) 
3.1875979900360099

>  <r_i_glide_emodel>  (1350) 
-51.593048412186199

>  <r_i_glide_energy>  (1350) 
-40.3172283172607

>  <r_i_glide_erotb>  (1350) 
0.79299852948418303

>  <r_i_glide_esite>  (1350) 
-0.038499688746024802

>  <r_i_glide_evdw>  (1350) 
-35.273788452148402

>  <r_i_glide_gscore>  (1350) 
-4.7691218973281497

>  <r_i_glide_hbond>  (1350) 
-0.16

>  <r_i_glide_ligand_efficiency>  (1350) 
-0.16443178956304

>  <r_i_glide_ligand_efficiency_ln>  (1350) 
-1.0918705952060299

>  <r_i_glide_ligand_efficiency_sa>  (1350) 
-0.50518655318512395

>  <r_i_glide_lipo>  (1350) 
-2.0487046993284102

>  <r_i_glide_metal>  (1350) 
-0

>  <r_i_glide_rewards>  (1350) 
-0.79471063636363504

>  <r_lp_Energy>  (1350) 
16.748429999999999

>  <r_lp_tautomer_probability>  (1350) 
0.99999998763336495

>  <r_qp_ACxDN^.5/SA>  (1350) 
0.0126065

>  <r_qp_CIQPlogS>  (1350) 
-6.2889999999999997

>  <r_qp_EA(eV)>  (1350) 
0.71099999999999997

>  <r_qp_FISA>  (1350) 
125.699

>  <r_qp_FOSA>  (1350) 
42.473999999999997

>  <r_qp_IP(eV)>  (1350) 
8.5579999999999998

>  <r_qp_Jm>  (1350) 
0.112939025462253

>  <r_qp_PISA>  (1350) 
511.92399999999998

>  <r_qp_PSA>  (1350) 
73.721000000000004

>  <r_qp_PercentHumanOralAbsorption>  (1350) 
100

>  <r_qp_QPPCaco>  (1350) 
636.649

>  <r_qp_QPPMDCK>  (1350) 
303.661

>  <r_qp_QPlogBB>  (1350) 
-1.1799999999999999

>  <r_qp_QPlogHERG>  (1350) 
-6.9649999999999999

>  <r_qp_QPlogKhsa>  (1350) 
0.50900000000000001

>  <r_qp_QPlogKp>  (1350) 
-1.2649999999999999

>  <r_qp_QPlogPC16>  (1350) 
14.805

>  <r_qp_QPlogPo/w>  (1350) 
4.2800000000000002

>  <r_qp_QPlogPoct>  (1350) 
21.437000000000001

>  <r_qp_QPlogPw>  (1350) 
13.198

>  <r_qp_QPlogS>  (1350) 
-5.266

>  <r_qp_QPpolrz>  (1350) 
42.715000000000003

>  <r_qp_SASA>  (1350) 
680.09799999999996

>  <r_qp_SAamideO>  (1350) 
0

>  <r_qp_SAfluorine>  (1350) 
0

>  <r_qp_WPSA>  (1350) 
0

>  <r_qp_accptHB>  (1350) 
4.9500000000000002

>  <r_qp_dip^2/V>  (1350) 
0.00012219999999999999

>  <r_qp_dipole>  (1350) 
0.38700000000000001

>  <r_qp_donorHB>  (1350) 
3

>  <r_qp_glob>  (1350) 
0.8151349

>  <r_qp_mol_MW>  (1350) 
383.44900000000001

>  <r_qp_volume>  (1350) 
1227.308

>  <r_sd_BIOSOLVEIT.INFINISEE\_FTREES\_SIMILARITY>  (1350) 
0.90900000000000003

>  <r_sd_BIOSOLVEIT.LOGP>  (1350) 
4.6616999999999997

>  <r_sd_BIOSOLVEIT.MOLECULAR\_WEIGHT>  (1350) 
383.44900000000001

>  <r_sd_BIOSOLVEIT.TPSA>  (1350) 
78.269999999999996

>  <i_epik_Tot_Q>  (1350) 
0

>  <i_epik_Tot_abs_Q>  (1350) 
0

>  <i_f3d_flags>  (1350) 
0

>  <i_i_glide_confnum>  (1350) 
6

>  <i_i_glide_lignum>  (1350) 
151

>  <i_i_glide_posenum>  (1350) 
13

>  <i_i_glide_rotatable_bonds>  (1350) 
8

>  <i_lp_mmshare_version>  (1350) 
65135

>  <i_m_ct_format>  (1350) 
2

>  <i_m_source_file_index>  (1350) 
394

>  <i_qp_#NandO>  (1350) 
5

>  <i_qp_#acid>  (1350) 
0

>  <i_qp_#amide>  (1350) 
0

>  <i_qp_#amidine>  (1350) 
0

>  <i_qp_#amine>  (1350) 
0

>  <i_qp_#in34>  (1350) 
0

>  <i_qp_#in56>  (1350) 
24

>  <i_qp_#metab>  (1350) 
2

>  <i_qp_#nonHatm>  (1350) 
29

>  <i_qp_#noncon>  (1350) 
0

>  <i_qp_#ringatoms>  (1350) 
24

>  <i_qp_#rotor>  (1350) 
8

>  <i_qp_#rtvFG>  (1350) 
0

>  <i_qp_#stars>  (1350) 
2

>  <i_qp_CNS>  (1350) 
-2

>  <i_qp_HumanOralAbsorption>  (1350) 
3

>  <i_qp_RuleOfFive>  (1350) 
0

>  <i_qp_RuleOfThree>  (1350) 
0

>  <i_sd_BIOSOLVEIT.INFINISEE\_REAGENT1\_NAME>  (1350) 
240755

>  <i_sd_BIOSOLVEIT.INFINISEE\_REAGENT2\_NAME>  (1350) 
43628

>  <i_sd_BIOSOLVEIT.INFINISEE\_RESULT\_RANK>  (1350) 
51282

>  <i_sd_version>  (1350) 
0

>  <b_lp_Chiralities_Consistent>  (1350) 
1

>  <b_sd_chiral_flag>  (1350) 
0

>  <canonical_id>  (1350) 
ATP-HTVS-D51006C467E8

>  <compound_code>  (1350) 
12578

>  <title>  (1350) 
a2____240755____43628

>  <variant>  (1350) 
12578-1

>  <source_file>  (1350) 
运行/运行/ATP-VSW/ATP-VSW-DOCK_HTVS_1-002_lib.maegz

>  <canonical_smiles>  (1350) 
Oc1ccc([C@@H](O)CNc2nc(-c3ccccc3)cc(-c3ccccc3)n2)cc1

>  <scaffold>  (1350) 
c1ccc(CCNc2nc(-c3ccccc3)cc(-c3ccccc3)n2)cc1

>  <molecular_formula>  (1350) 
C24H21N3O2

$$$$
ATP-HTVS-D52094086515
     RDKit          3D

 63 66  0  0  0  0  0  0  0  0999 V2000
  196.3978  183.1168  150.0476 O   0  0  0  0  0  0  0  0  0  0  0  0
  197.1788  183.5919  150.8764 C   0  0  0  0  0  0  0  0  0  0  0  0
  197.8597  184.7488  150.5991 N   0  0  0  0  0  0  0  0  0  0  0  0
  198.8870  185.3093  151.4204 C   0  0  0  0  0  0  0  0  0  0  0  0
  198.7640  186.6296  151.9197 C   0  0  0  0  0  0  0  0  0  0  0  0
  199.7502  187.1688  152.7672 C   0  0  0  0  0  0  0  0  0  0  0  0
  200.8682  186.3952  153.1272 C   0  0  0  0  0  0  0  0  0  0  0  0
  201.0034  185.0860  152.6262 C   0  0  0  0  0  0  0  0  0  0  0  0
  200.0266  184.5472  151.7678 C   0  0  0  0  0  0  0  0  0  0  0  0
  197.5379  185.4805  149.3605 C   0  0  1  0  0  0  0  0  0  0  0  0
  197.8971  184.6992  148.0845 C   0  0  1  0  0  0  0  0  0  0  0  0
  197.5399  185.4518  146.9401 O   0  0  0  0  0  0  0  0  0  0  0  0
  197.4680  182.8958  152.1510 C   0  0  0  0  0  0  0  0  0  0  0  0
  197.1933  183.6797  153.3775 C   0  0  0  0  0  0  0  0  0  0  0  0
  196.7554  184.8261  153.4306 O   0  0  0  0  0  0  0  0  0  0  0  0
  197.4709  183.0536  154.5353 N   0  0  0  0  0  0  0  0  0  0  0  0
  197.9058  181.7148  154.6569 C   0  0  0  0  0  0  0  0  0  0  0  0
  198.1140  180.9343  153.4979 C   0  0  0  0  0  0  0  0  0  0  0  0
  198.4802  179.5738  153.6533 C   0  0  0  0  0  0  0  0  0  0  0  0
  198.6858  179.0384  154.9428 C   0  0  0  0  0  0  0  0  0  0  0  0
  198.5049  179.8436  156.0828 C   0  0  0  0  0  0  0  0  0  0  0  0
  198.1076  181.1828  155.9441 C   0  0  0  0  0  0  0  0  0  0  0  0
  197.9066  181.6030  152.1862 C   0  0  0  0  0  0  0  0  0  0  0  0
  198.1607  180.8553  151.0293 N   0  0  0  0  0  0  0  0  0  0  0  0
  199.3849  180.2912  150.5947 C   0  0  0  0  0  0  0  0  0  0  0  0
  199.4689  179.6421  149.3296 C   0  0  0  0  0  0  0  0  0  0  0  0
  200.7042  179.0924  148.9042 C   0  0  0  0  0  0  0  0  0  0  0  0
  201.8398  179.1484  149.7296 C   0  0  0  0  0  0  0  0  0  0  0  0
  201.7632  179.7891  150.9771 C   0  0  0  0  0  0  0  0  0  0  0  0
  200.5519  180.3697  151.3952 C   0  0  0  0  0  0  0  0  0  0  0  0
  198.2601  179.5279  148.3961 C   0  0  1  0  0  0  0  0  0  0  0  0
  198.1687  178.2213  147.6987 N   0  0  1  0  0  0  0  0  0  0  0  0
  198.0395  177.0608  148.6120 C   0  0  2  0  0  0  0  0  0  0  0  0
  197.1232  178.2207  146.6502 C   0  0  2  0  0  0  0  0  0  0  0  0
  197.8858  187.2222  151.7029 H   0  0  0  0  0  0  0  0  0  0  0  0
  199.6297  188.1609  153.1748 H   0  0  0  0  0  0  0  0  0  0  0  0
  201.6098  186.7934  153.8030 H   0  0  0  0  0  0  0  0  0  0  0  0
  201.8428  184.4744  152.9267 H   0  0  0  0  0  0  0  0  0  0  0  0
  200.1370  183.5358  151.4075 H   0  0  0  0  0  0  0  0  0  0  0  0
  196.4888  185.7713  149.3686 H   0  0  0  0  0  0  0  0  0  0  0  0
  198.0913  186.4095  149.3403 H   0  0  0  0  0  0  0  0  0  0  0  0
  198.9668  184.4792  148.0659 H   0  0  0  0  0  0  0  0  0  0  0  0
  197.3487  183.7557  148.0180 H   0  0  0  0  0  0  0  0  0  0  0  0
  196.6104  185.5997  146.9532 H   0  0  0  0  0  0  0  0  0  0  0  0
  197.3156  183.5754  155.3876 H   0  0  0  0  0  0  0  0  0  0  0  0
  198.6160  178.9285  152.8000 H   0  0  0  0  0  0  0  0  0  0  0  0
  198.9753  178.0024  155.0589 H   0  0  0  0  0  0  0  0  0  0  0  0
  198.6365  179.4337  157.0699 H   0  0  0  0  0  0  0  0  0  0  0  0
  197.9346  181.7958  156.8158 H   0  0  0  0  0  0  0  0  0  0  0  0
  197.5295  181.0769  150.2721 H   0  0  0  0  0  0  0  0  0  0  0  0
  200.8015  178.6046  147.9472 H   0  0  0  0  0  0  0  0  0  0  0  0
  202.7697  178.6984  149.4044 H   0  0  0  0  0  0  0  0  0  0  0  0
  202.6331  179.8344  151.6155 H   0  0  0  0  0  0  0  0  0  0  0  0
  200.5375  180.8668  152.3509 H   0  0  0  0  0  0  0  0  0  0  0  0
  197.3223  179.6932  148.9278 H   0  0  0  0  0  0  0  0  0  0  0  0
  198.3458  180.3333  147.6612 H   0  0  0  0  0  0  0  0  0  0  0  0
  197.1415  177.1356  149.2270 H   0  0  0  0  0  0  0  0  0  0  0  0
  198.8910  176.9822  149.2874 H   0  0  0  0  0  0  0  0  0  0  0  0
  197.9910  176.1277  148.0481 H   0  0  0  0  0  0  0  0  0  0  0  0
  196.1254  178.3369  147.0805 H   0  0  0  0  0  0  0  0  0  0  0  0
  197.1484  177.2872  146.0856 H   0  0  0  0  0  0  0  0  0  0  0  0
  197.2877  179.0311  145.9373 H   0  0  0  0  0  0  0  0  0  0  0  0
  199.0409  178.1030  147.2078 H   0  0  0  0  0  0  0  0  0  0  0  0
  1  2  2  0
  2  3  1  0
  2 13  1  0
  3  4  1  0
  3 10  1  0
  4  5  2  0
  4  9  1  0
  5  6  1  0
  5 35  1  0
  6  7  2  0
  6 36  1  0
  7  8  1  0
  7 37  1  0
  8  9  2  0
  8 38  1  0
  9 39  1  0
 10 11  1  0
 10 40  1  6
 10 41  1  0
 11 12  1  0
 11 42  1  6
 11 43  1  0
 12 44  1  0
 13 14  1  0
 13 23  2  0
 14 15  2  0
 14 16  1  0
 16 17  1  0
 16 45  1  0
 17 18  1  0
 17 22  2  0
 18 19  2  0
 18 23  1  0
 19 20  1  0
 19 46  1  0
 20 21  2  0
 20 47  1  0
 21 22  1  0
 21 48  1  0
 22 49  1  0
 23 24  1  0
 24 25  1  0
 24 50  1  0
 25 26  1  0
 25 30  2  0
 26 27  2  0
 26 31  1  0
 27 28  1  0
 27 51  1  0
 28 29  2  0
 28 52  1  0
 29 30  1  0
 29 53  1  0
 30 54  1  0
 31 32  1  0
 31 55  1  1
 31 56  1  0
 32 33  1  0
 32 34  1  0
 32 63  1  6
 33 57  1  1
 33 58  1  0
 33 59  1  0
 34 60  1  1
 34 61  1  0
 34 62  1  0
M  CHG  1  32   1
M  END
>  <s_epik_cmdline>  (1351) 
J2VwaWtfcHl0aG9uJywgJy1waCcsICc3LjAwMDAwMCcsICctcGh0JywgJzIuMDAwMDAwJywgJy1tcycsICcxNicsICctdG4nLCAnOCcsICctbWEnLCAnMjAwJywgJy1pbWFlJywgJzxpbmZpbGUubWFlPicsICctb21hZScsICc8b3V0ZmlsZS5tYWU+Jw==

>  <s_epik_input>  (1351) 
W2NIXTFbY0hdW2NIXVtjSF1bY0hdYzFOKFtDSDJdW0NIMl1bT0hdKUMoPU8pYyhjKD1PKVtuSF0yKWMoYyhjMjMpW2NIXVtjSF1bY0hdW2NIXTMpW05IXWM0YyhbQ0gyXU4oW0NIM10pW0NIM10pW2NIXVtjSF1bY0hdW2NIXTQ=

>  <s_i_glide_gridfile>  (1351) 
ATP-Grid

>  <s_lp_Force_Field>  (1351) 
OPLS_2005

>  <s_lp_Variant>  (1351) 
rxn512c____EMOL483896____EMOL43362984____EMOL44691345-1

>  <s_lp_label>  (1351) 
2617_sdstereoexpander_1_neutralizer_1_epik_1_stereoizer_1

>  <s_m_source_file>  (1351) 
ATP-VSW-LIGPREP-003-in.maegz

>  <s_sd_BIOSOLVEIT.INFINISEE\_QUERY\_NAME>  (1351) 
Ref-Lig

>  <s_sd_BIOSOLVEIT.INFINISEE\_QUERY\_SMILES>  (1351) 
S(c1nc2c(cc1C[NH2+]Cc3ccc(cc3)C[NH+](C)C)cccc2)Cc4ccccc4

>  <s_sd_BIOSOLVEIT.INFINISEE\_REACTION\_NAME>  (1351) 
rxn512c

>  <s_sd_BIOSOLVEIT.INFINISEE\_REAGENT1\_NAME>  (1351) 
EMOL483896

>  <s_sd_BIOSOLVEIT.INFINISEE\_REAGENT1\_SMILES>  (1351) 
OCCNc1ccccc1

>  <s_sd_BIOSOLVEIT.INFINISEE\_REAGENT2\_NAME>  (1351) 
EMOL43362984

>  <s_sd_BIOSOLVEIT.INFINISEE\_REAGENT2\_SMILES>  (1351) 
ClC=1c2c(NC(=O)C1C(=O)O)cccc2

>  <s_sd_BIOSOLVEIT.INFINISEE\_REAGENT3\_NAME>  (1351) 
EMOL44691345

>  <s_sd_BIOSOLVEIT.INFINISEE\_REAGENT3\_SMILES>  (1351) 
N(Cc1c(N)cccc1)(C)C

>  <s_sd_BIOSOLVEIT.INFINISEE\_SPACE>  (1351) 
eXplore_7tr_2022-12

>  <s_vsw_compound_code>  (1351) 
83715

>  <s_vsw_variant>  (1351) 
83715-1

>  <r_epik_Charging_Adjusted_Penalty>  (1351) 
0.074146330411588204

>  <r_epik_Ionization_Penalty>  (1351) 
0.037100000000000001

>  <r_epik_Ionization_Penalty_Charging>  (1351) 
0.037100000000000001

>  <r_epik_Ionization_Penalty_Neutral>  (1351) 
0

>  <r_epik_State_Penalty>  (1351) 
0.037100000000000001

>  <r_i_docking_score>  (1351) 
-1.4980571773006901

>  <r_i_glide_ecoul>  (1351) 
-5.2778987884521502

>  <r_i_glide_eff_state_penalty>  (1351) 
0.037100000000000001

>  <r_i_glide_einternal>  (1351) 
2.7309882640838601

>  <r_i_glide_emodel>  (1351) 
-39.322691576528698

>  <r_i_glide_energy>  (1351) 
-35.784393310546903

>  <r_i_glide_erotb>  (1351) 
0.76832291082790805

>  <r_i_glide_esite>  (1351) 
-0.0227554193462183

>  <r_i_glide_evdw>  (1351) 
-30.506494522094702

>  <r_i_glide_gscore>  (1351) 
-1.53515717730069

>  <r_i_glide_hbond>  (1351) 
-0.32000000000000001

>  <r_i_glide_ligand_efficiency>  (1351) 
-0.044060505214726202

>  <r_i_glide_ligand_efficiency_ln>  (1351) 
-0.33096284954626498

>  <r_i_glide_ligand_efficiency_sa>  (1351) 
-0.14273893249609201

>  <r_i_glide_lipo>  (1351) 
-0.85482557629928302

>  <r_i_glide_metal>  (1351) 
-0

>  <r_i_glide_rewards>  (1351) 
1.21111045188946

>  <r_lp_Energy>  (1351) 
67.518854000000005

>  <r_qp_ACxDN^.5/SA>  (1351) 
0.0105332

>  <r_qp_CIQPlogS>  (1351) 
-5.6749999999999998

>  <r_qp_EA(eV)>  (1351) 
1.109

>  <r_qp_FISA>  (1351) 
133.56299999999999

>  <r_qp_FOSA>  (1351) 
209.714

>  <r_qp_IP(eV)>  (1351) 
8.5440000000000005

>  <r_qp_Jm>  (1351) 
0.0069322514631518697

>  <r_qp_PISA>  (1351) 
387.745

>  <r_qp_PSA>  (1351) 
95.481999999999999

>  <r_qp_PercentHumanOralAbsorption>  (1351) 
87.299999999999997

>  <r_qp_QPPCaco>  (1351) 
133.72900000000001

>  <r_qp_QPPMDCK>  (1351) 
62.198999999999998

>  <r_qp_QPlogBB>  (1351) 
-0.88700000000000001

>  <r_qp_QPlogHERG>  (1351) 
-6.931

>  <r_qp_QPlogKhsa>  (1351) 
0.49399999999999999

>  <r_qp_QPlogKp>  (1351) 
-3.8140000000000001

>  <r_qp_QPlogPC16>  (1351) 
15.031000000000001

>  <r_qp_QPlogPo/w>  (1351) 
3.8079999999999998

>  <r_qp_QPlogPoct>  (1351) 
22.108000000000001

>  <r_qp_QPlogPw>  (1351) 
12.087999999999999

>  <r_qp_QPlogS>  (1351) 
-4.0049999999999999

>  <r_qp_QPpolrz>  (1351) 
47.549999999999997

>  <r_qp_SASA>  (1351) 
731.02200000000005

>  <r_qp_SAamideO>  (1351) 
0

>  <r_qp_SAfluorine>  (1351) 
0

>  <r_qp_WPSA>  (1351) 
0

>  <r_qp_accptHB>  (1351) 
7.7000000000000002

>  <r_qp_dip^2/V>  (1351) 
0.035904499999999999

>  <r_qp_dipole>  (1351) 
7.0739999999999998

>  <r_qp_donorHB>  (1351) 
1

>  <r_qp_glob>  (1351) 
0.82547539999999997

>  <r_qp_mol_MW>  (1351) 
456.54300000000001

>  <r_qp_volume>  (1351) 
1393.8130000000001

>  <r_sd_BIOSOLVEIT.INFINISEE\_FTREES\_SIMILARITY>  (1351) 
0.91100000000000003

>  <r_sd_BIOSOLVEIT.LOGP>  (1351) 
2.5552999999999999

>  <r_sd_BIOSOLVEIT.MOLECULAR\_WEIGHT>  (1351) 
457.55099999999999

>  <r_sd_BIOSOLVEIT.TPSA>  (1351) 
89.870000000000005

>  <i_epik_Tot_Q>  (1351) 
1

>  <i_epik_Tot_abs_Q>  (1351) 
1

>  <i_f3d_flags>  (1351) 
0

>  <i_i_glide_confnum>  (1351) 
8

>  <i_i_glide_lignum>  (1351) 
1188

>  <i_i_glide_posenum>  (1351) 
3

>  <i_i_glide_rotatable_bonds>  (1351) 
10

>  <i_lp_mmshare_version>  (1351) 
65135

>  <i_m_ct_format>  (1351) 
2

>  <i_m_source_file_index>  (1351) 
2617

>  <i_qp_#NandO>  (1351) 
7

>  <i_qp_#acid>  (1351) 
0

>  <i_qp_#amide>  (1351) 
0

>  <i_qp_#amidine>  (1351) 
0

>  <i_qp_#amine>  (1351) 
1

>  <i_qp_#in34>  (1351) 
0

>  <i_qp_#in56>  (1351) 
22

>  <i_qp_#metab>  (1351) 
6

>  <i_qp_#nonHatm>  (1351) 
34

>  <i_qp_#noncon>  (1351) 
0

>  <i_qp_#ringatoms>  (1351) 
22

>  <i_qp_#rotor>  (1351) 
9

>  <i_qp_#rtvFG>  (1351) 
0

>  <i_qp_#stars>  (1351) 
0

>  <i_qp_CNS>  (1351) 
0

>  <i_qp_HumanOralAbsorption>  (1351) 
3

>  <i_qp_RuleOfFive>  (1351) 
0

>  <i_qp_RuleOfThree>  (1351) 
0

>  <i_sd_BIOSOLVEIT.INFINISEE\_RESULT\_RANK>  (1351) 
43149

>  <i_sd_version>  (1351) 
0

>  <b_lp_Chiralities_Consistent>  (1351) 
1

>  <b_sd_chiral_flag>  (1351) 
0

>  <canonical_id>  (1351) 
ATP-HTVS-D52094086515

>  <compound_code>  (1351) 
83715

>  <title>  (1351) 
rxn512c____EMOL483896____EMOL43362984____EMOL44691345

>  <variant>  (1351) 
83715-1

>  <source_file>  (1351) 
运行/运行/ATP-VSW/ATP-VSW-DOCK_HTVS_1-003_lib/ATP-VSW-DOCK_HTVS_1-003_lib.mae

>  <canonical_smiles>  (1351) 
C[NH+](C)Cc1ccccc1Nc1c(C(=O)N(CCO)c2ccccc2)c(=O)[nH]c2ccccc12

>  <scaffold>  (1351) 
O=C(Nc1ccccc1)c1c(Nc2ccccc2)c2ccccc2[nH]c1=O

>  <molecular_formula>  (1351) 
C27H29N4O3+

$$$$
ATP-HTVS-D53BE49171F7
     RDKit          3D

 61 64  0  0  0  0  0  0  0  0999 V2000
  203.5499  174.1891  155.5879 O   0  0  0  0  0  0  0  0  0  0  0  0
  202.8333  175.3826  155.3568 C   0  0  1  0  0  0  0  0  0  0  0  0
  201.6157  175.4446  156.2845 C   0  0  1  0  0  0  0  0  0  0  0  0
  200.8233  176.7178  156.1021 C   0  0  0  0  0  0  0  0  0  0  0  0
  200.7654  177.6756  157.1379 C   0  0  0  0  0  0  0  0  0  0  0  0
  200.0408  178.8656  156.9544 C   0  0  0  0  0  0  0  0  0  0  0  0
  199.3493  179.0810  155.7511 C   0  0  0  0  0  0  0  0  0  0  0  0
  199.4189  178.1374  154.7116 C   0  0  0  0  0  0  0  0  0  0  0  0
  200.1437  176.9532  154.8883 C   0  0  0  0  0  0  0  0  0  0  0  0
  198.5729  180.3552  155.5425 C   0  0  1  0  0  0  0  0  0  0  0  0
  197.5636  180.6437  156.5581 N   0  0  1  0  0  0  0  0  0  0  0  0
  196.5572  181.7386  156.2735 C   0  0  1  0  0  0  0  0  0  0  0  0
  197.2323  182.9815  155.6988 C   0  0  0  0  0  0  0  0  0  0  0  0
  197.3884  184.3221  156.2010 C   0  0  0  0  0  0  0  0  0  0  0  0
  198.0040  185.1127  155.3097 N   0  0  0  0  0  0  0  0  0  0  0  0
  198.2665  184.3370  154.2455 N   0  0  0  0  0  0  0  0  0  0  0  0
  197.8440  183.0603  154.4731 C   0  0  0  0  0  0  0  0  0  0  0  0
  198.9790  184.8499  153.0702 C   0  0  1  0  0  0  0  0  0  0  0  0
  198.2639  184.5819  151.7412 C   0  0  0  0  0  0  0  0  0  0  0  0
  197.9179  183.2619  151.3299 C   0  0  0  0  0  0  0  0  0  0  0  0
  197.1716  183.0571  150.1465 C   0  0  0  0  0  0  0  0  0  0  0  0
  196.8472  184.1442  149.3169 C   0  0  0  0  0  0  0  0  0  0  0  0
  197.2482  185.4436  149.6785 C   0  0  0  0  0  0  0  0  0  0  0  0
  197.9439  185.6631  150.8869 C   0  0  0  0  0  0  0  0  0  0  0  0
  196.9590  184.9160  157.4664 C   0  0  0  0  0  0  0  0  0  0  0  0
  196.7341  186.3076  157.5573 C   0  0  0  0  0  0  0  0  0  0  0  0
  196.2498  186.8890  158.7362 C   0  0  0  0  0  0  0  0  0  0  0  0
  195.9532  186.0561  159.8310 C   0  0  0  0  0  0  0  0  0  0  0  0
  196.1760  184.6676  159.7681 C   0  0  0  0  0  0  0  0  0  0  0  0
  196.7146  184.0756  158.5930 C   0  0  0  0  0  0  0  0  0  0  0  0
  195.4539  186.6588  161.1233 C   0  0  2  0  0  0  0  0  0  0  0  0
  196.9951  179.7886  156.7276 H   0  0  0  0  0  0  0  0  0  0  0  0
  203.0100  173.4515  155.3435 H   0  0  0  0  0  0  0  0  0  0  0  0
  203.4894  176.2349  155.5390 H   0  0  0  0  0  0  0  0  0  0  0  0
  202.5301  175.4247  154.3108 H   0  0  0  0  0  0  0  0  0  0  0  0
  200.9496  174.5994  156.1134 H   0  0  0  0  0  0  0  0  0  0  0  0
  201.9491  175.3807  157.3141 H   0  0  0  0  0  0  0  0  0  0  0  0
  201.2802  177.5160  158.0751 H   0  0  0  0  0  0  0  0  0  0  0  0
  200.0067  179.6045  157.7376 H   0  0  0  0  0  0  0  0  0  0  0  0
  198.9123  178.3142  153.7707 H   0  0  0  0  0  0  0  0  0  0  0  0
  200.1742  176.2281  154.0833 H   0  0  0  0  0  0  0  0  0  0  0  0
  199.3416  181.1368  155.5154 H   0  0  0  0  0  0  0  0  0  0  0  0
  198.1080  180.2461  154.5602 H   0  0  0  0  0  0  0  0  0  0  0  0
  195.8518  181.3506  155.5216 H   0  0  0  0  0  0  0  0  0  0  0  0
  195.9948  181.8926  157.1835 H   0  0  0  0  0  0  0  0  0  0  0  0
  198.0206  182.2980  153.7495 H   0  0  0  0  0  0  0  0  0  0  0  0
  199.1426  185.9218  153.1924 H   0  0  0  0  0  0  0  0  0  0  0  0
  199.9679  184.3979  153.0412 H   0  0  0  0  0  0  0  0  0  0  0  0
  198.1997  182.3780  151.8713 H   0  0  0  0  0  0  0  0  0  0  0  0
  196.8773  182.0531  149.8899 H   0  0  0  0  0  0  0  0  0  0  0  0
  196.3219  183.9688  148.3842 H   0  0  0  0  0  0  0  0  0  0  0  0
  197.0159  186.2734  149.0192 H   0  0  0  0  0  0  0  0  0  0  0  0
  198.2298  186.6777  151.1624 H   0  0  0  0  0  0  0  0  0  0  0  0
  196.9214  186.9504  156.6955 H   0  0  0  0  0  0  0  0  0  0  0  0
  196.1179  187.9648  158.7929 H   0  0  0  0  0  0  0  0  0  0  0  0
  195.9548  184.0294  160.6081 H   0  0  0  0  0  0  0  0  0  0  0  0
  196.9132  183.0330  158.5839 H   0  0  0  0  0  0  0  0  0  0  0  0
  194.7910  185.9642  161.6364 H   0  0  0  0  0  0  0  0  0  0  0  0
  194.9326  187.6001  160.9446 H   0  0  0  0  0  0  0  0  0  0  0  0
  196.3279  186.8493  161.7395 H   0  0  0  0  0  0  0  0  0  0  0  0
  198.0179  180.8146  157.4303 H   0  0  0  0  0  0  0  0  0  0  0  0
  1  2  1  0
  1 33  1  0
  2  3  1  0
  2 34  1  1
  2 35  1  0
  3  4  1  0
  3 36  1  6
  3 37  1  0
  4  5  1  0
  4  9  2  0
  5  6  2  0
  5 38  1  0
  6  7  1  0
  6 39  1  0
  7  8  2  0
  7 10  1  0
  8  9  1  0
  8 40  1  0
  9 41  1  0
 10 11  1  0
 10 42  1  6
 10 43  1  0
 11 12  1  0
 11 32  1  1
 11 61  1  0
 12 13  1  0
 12 44  1  6
 12 45  1  0
 13 14  1  0
 13 17  2  0
 14 15  2  0
 14 25  1  0
 15 16  1  0
 16 17  1  0
 16 18  1  0
 17 46  1  0
 18 19  1  0
 18 47  1  1
 18 48  1  0
 19 20  2  0
 19 24  1  0
 20 21  1  0
 20 49  1  0
 21 22  2  0
 21 50  1  0
 22 23  1  0
 22 51  1  0
 23 24  2  0
 23 52  1  0
 24 53  1  0
 25 26  1  0
 25 30  2  0
 26 27  2  0
 26 54  1  0
 27 28  1  0
 27 55  1  0
 28 29  2  0
 28 31  1  0
 29 30  1  0
 29 56  1  0
 30 57  1  0
 31 58  1  1
 31 59  1  0
 31 60  1  0
M  CHG  1  11   1
M  END
>  <s_epik_cmdline>  (1352) 
J2VwaWtfcHl0aG9uJywgJy1waCcsICc3LjAwMDAwMCcsICctcGh0JywgJzIuMDAwMDAwJywgJy1tcycsICcxNicsICctdG4nLCAnOCcsICctbWEnLCAnMjAwJywgJy1pbWFlJywgJzxpbmZpbGUubWFlPicsICctb21hZScsICc8b3V0ZmlsZS5tYWU+Jw==

>  <s_epik_input>  (1352) 
W09IXVtDSDJdW0NIMl1jMVtjSF1bY0hdYyhbY0hdW2NIXTEpW0NIMl1bTkhdW0NIMl1jMmMoLWMzW2NIXVtjSF1jKFtDSDNdKVtjSF1bY0hdMylubihbY0hdMilbQ0gyXWM0W2NIXVtjSF1bY0hdW2NIXVtjSF00

>  <s_i_glide_gridfile>  (1352) 
ATP-Grid

>  <s_lp_Force_Field>  (1352) 
OPLS_2005

>  <s_lp_Variant>  (1352) 
m_207bba____13440778____121441-1

>  <s_lp_label>  (1352) 
739_sdstereoexpander_1_neutralizer_1_epik_1_stereoizer_1

>  <s_m_source_file>  (1352) 
ATP-VSW-LIGPREP-003-in.maegz

>  <s_sd_BIOSOLVEIT.INFINISEE\_QUERY\_NAME>  (1352) 
Ref-Lig

>  <s_sd_BIOSOLVEIT.INFINISEE\_QUERY\_SMILES>  (1352) 
S(c1nc2c(cc1C[NH2+]Cc3ccc(cc3)C[NH+](C)C)cccc2)Cc4ccccc4

>  <s_sd_BIOSOLVEIT.INFINISEE\_REACTION\_NAME>  (1352) 
m_207bba

>  <s_sd_BIOSOLVEIT.INFINISEE\_REAGENT1\_SMILES>  (1352) 
[R1*]NCc1ccc(cc1)CCO

>  <s_sd_BIOSOLVEIT.INFINISEE\_REAGENT2\_SMILES>  (1352) 
[R1*]CC=1C(=NN(C1)Cc2ccccc2)c3ccc(cc3)C

>  <s_sd_BIOSOLVEIT.INFINISEE\_SPACE>  (1352) 
REALSpace_44bn_2023-08

>  <s_vsw_compound_code>  (1352) 
23619

>  <s_vsw_variant>  (1352) 
23619-1

>  <r_epik_Charging_Adjusted_Penalty>  (1352) 
0.160437715824854

>  <r_epik_Ionization_Penalty>  (1352) 
0.080199999999999994

>  <r_epik_Ionization_Penalty_Charging>  (1352) 
0.080199999999999994

>  <r_epik_Ionization_Penalty_Neutral>  (1352) 
0

>  <r_epik_State_Penalty>  (1352) 
0.080199999999999994

>  <r_i_docking_score>  (1352) 
-5.6434771541446098

>  <r_i_glide_ecoul>  (1352) 
-8.8682765960693395

>  <r_i_glide_eff_state_penalty>  (1352) 
0.080199999999999994

>  <r_i_glide_einternal>  (1352) 
5.3821835517883301

>  <r_i_glide_emodel>  (1352) 
-66.386005424229893

>  <r_i_glide_energy>  (1352) 
-46.570642471313498

>  <r_i_glide_erotb>  (1352) 
1.0428028864665499

>  <r_i_glide_esite>  (1352) 
-0.10016074972571901

>  <r_i_glide_evdw>  (1352) 
-37.702365875244098

>  <r_i_glide_gscore>  (1352) 
-5.7236771541446103

>  <r_i_glide_hbond>  (1352) 
-0.17657034806461799

>  <r_i_glide_ligand_efficiency>  (1352) 
-0.182047650133697

>  <r_i_glide_ligand_efficiency_ln>  (1352) 
-1.2727770500636599

>  <r_i_glide_ligand_efficiency_sa>  (1352) 
-0.57188096528870203

>  <r_i_glide_lipo>  (1352) 
-2.4531159778300302

>  <r_i_glide_metal>  (1352) 
-0

>  <r_i_glide_rewards>  (1352) 
-0.82127318181817999

>  <r_lp_Energy>  (1352) 
14.019138999999999

>  <r_lp_tautomer_probability>  (1352) 
1

>  <r_qp_ACxDN^.5/SA>  (1352) 
0.0093287999999999999

>  <r_qp_CIQPlogS>  (1352) 
-5.9470000000000001

>  <r_qp_EA(eV)>  (1352) 
0.33700000000000002

>  <r_qp_FISA>  (1352) 
82.162000000000006

>  <r_qp_FOSA>  (1352) 
232.12200000000001

>  <r_qp_IP(eV)>  (1352) 
8.827

>  <r_qp_Jm>  (1352) 
0.012083315600034301

>  <r_qp_PISA>  (1352) 
398.21499999999997

>  <r_qp_PSA>  (1352) 
53.381

>  <r_qp_PercentHumanOralAbsorption>  (1352) 
100

>  <r_qp_QPPCaco>  (1352) 
410.82299999999998

>  <r_qp_QPPMDCK>  (1352) 
209.23599999999999

>  <r_qp_QPlogBB>  (1352) 
-0.38100000000000001

>  <r_qp_QPlogHERG>  (1352) 
-6.9500000000000002

>  <r_qp_QPlogKhsa>  (1352) 
0.92100000000000004

>  <r_qp_QPlogKp>  (1352) 
-2.8290000000000002

>  <r_qp_QPlogPC16>  (1352) 
14.538

>  <r_qp_QPlogPo/w>  (1352) 
4.9710000000000001

>  <r_qp_QPlogPoct>  (1352) 
20.829000000000001

>  <r_qp_QPlogPw>  (1352) 
10.275

>  <r_qp_QPlogS>  (1352) 
-4.7030000000000003

>  <r_qp_QPpolrz>  (1352) 
45.731999999999999

>  <r_qp_SASA>  (1352) 
712.5

>  <r_qp_SAamideO>  (1352) 
0

>  <r_qp_SAfluorine>  (1352) 
0

>  <r_qp_WPSA>  (1352) 
0

>  <r_qp_accptHB>  (1352) 
4.7000000000000002

>  <r_qp_dip^2/V>  (1352) 
0.019314499999999998

>  <r_qp_dipole>  (1352) 
5.0990000000000002

>  <r_qp_donorHB>  (1352) 
2

>  <r_qp_glob>  (1352) 
0.82740760000000002

>  <r_qp_mol_MW>  (1352) 
411.54599999999999

>  <r_qp_volume>  (1352) 
1345.8879999999999

>  <r_sd_BIOSOLVEIT.INFINISEE\_FTREES\_SIMILARITY>  (1352) 
0.92700000000000005

>  <r_sd_BIOSOLVEIT.LOGP>  (1352) 
3.7052200000000002

>  <r_sd_BIOSOLVEIT.MOLECULAR\_WEIGHT>  (1352) 
412.55399999999997

>  <r_sd_BIOSOLVEIT.TPSA>  (1352) 
54.659999999999997

>  <i_epik_Tot_Q>  (1352) 
1

>  <i_epik_Tot_abs_Q>  (1352) 
1

>  <i_f3d_flags>  (1352) 
0

>  <i_i_glide_confnum>  (1352) 
5

>  <i_i_glide_lignum>  (1352) 
315

>  <i_i_glide_posenum>  (1352) 
18

>  <i_i_glide_rotatable_bonds>  (1352) 
10

>  <i_lp_mmshare_version>  (1352) 
65135

>  <i_m_ct_format>  (1352) 
2

>  <i_m_source_file_index>  (1352) 
739

>  <i_qp_#NandO>  (1352) 
4

>  <i_qp_#acid>  (1352) 
0

>  <i_qp_#amide>  (1352) 
0

>  <i_qp_#amidine>  (1352) 
0

>  <i_qp_#amine>  (1352) 
1

>  <i_qp_#in34>  (1352) 
0

>  <i_qp_#in56>  (1352) 
23

>  <i_qp_#metab>  (1352) 
7

>  <i_qp_#nonHatm>  (1352) 
31

>  <i_qp_#noncon>  (1352) 
0

>  <i_qp_#ringatoms>  (1352) 
23

>  <i_qp_#rotor>  (1352) 
9

>  <i_qp_#rtvFG>  (1352) 
0

>  <i_qp_#stars>  (1352) 
0

>  <i_qp_CNS>  (1352) 
1

>  <i_qp_HumanOralAbsorption>  (1352) 
3

>  <i_qp_RuleOfFive>  (1352) 
0

>  <i_qp_RuleOfThree>  (1352) 
1

>  <i_sd_BIOSOLVEIT.INFINISEE\_REAGENT1\_NAME>  (1352) 
13440778

>  <i_sd_BIOSOLVEIT.INFINISEE\_REAGENT2\_NAME>  (1352) 
121441

>  <i_sd_BIOSOLVEIT.INFINISEE\_RESULT\_RANK>  (1352) 
7061

>  <i_sd_version>  (1352) 
0

>  <b_lp_Chiralities_Consistent>  (1352) 
1

>  <b_sd_chiral_flag>  (1352) 
0

>  <canonical_id>  (1352) 
ATP-HTVS-D53BE49171F7

>  <compound_code>  (1352) 
23619

>  <title>  (1352) 
m_207bba____13440778____121441

>  <variant>  (1352) 
23619-1

>  <source_file>  (1352) 
运行/运行/ATP-VSW/ATP-VSW-DOCK_HTVS_1-003_lib/ATP-VSW-DOCK_HTVS_1-003_lib.mae

>  <canonical_smiles>  (1352) 
Cc1ccc(-c2nn(Cc3ccccc3)cc2C[NH2+]Cc2ccc(CCO)cc2)cc1

>  <scaffold>  (1352) 
c1ccc(C[NH2+]Cc2cn(Cc3ccccc3)nc2-c2ccccc2)cc1

>  <molecular_formula>  (1352) 
C27H30N3O+

$$$$
ATP-HTVS-D57D92118EC0
     RDKit          3D

 52 55  0  0  0  0  0  0  0  0999 V2000
  200.8002  179.2995  155.9294 Cl  0  0  0  0  0  0  0  0  0  0  0  0
  200.6215  180.8253  156.7224 C   0  0  0  0  0  0  0  0  0  0  0  0
  201.5350  181.1260  157.7497 C   0  0  0  0  0  0  0  0  0  0  0  0
  202.5605  180.2397  157.9974 O   0  0  0  0  0  0  0  0  0  0  0  0
  201.3734  182.2794  158.5374 C   0  0  0  0  0  0  0  0  0  0  0  0
  200.2837  183.1627  158.2977 C   0  0  0  0  0  0  0  0  0  0  0  0
  200.1498  184.3096  159.1198 C   0  0  0  0  0  0  0  0  0  0  0  0
  201.0659  184.5698  160.1562 C   0  0  0  0  0  0  0  0  0  0  0  0
  202.1279  183.6831  160.3996 C   0  0  0  0  0  0  0  0  0  0  0  0
  202.2786  182.5442  159.5907 C   0  0  0  0  0  0  0  0  0  0  0  0
  199.3560  182.8730  157.2431 C   0  0  0  0  0  0  0  0  0  0  0  0
  198.2558  183.7293  156.9857 N   0  0  0  0  0  0  0  0  0  0  0  0
  197.1364  183.9395  157.8239 C   0  0  0  0  0  0  0  0  0  0  0  0
  196.3952  182.8588  158.3660 C   0  0  0  0  0  0  0  0  0  0  0  0
  196.7820  181.4375  158.0741 N   0  0  2  0  0  0  0  0  0  0  0  0
  195.2779  183.0454  159.2025 C   0  0  0  0  0  0  0  0  0  0  0  0
  194.8558  184.3520  159.5063 C   0  0  0  0  0  0  0  0  0  0  0  0
  195.5637  185.4501  158.9800 C   0  0  0  0  0  0  0  0  0  0  0  0
  196.6864  185.2489  158.1516 C   0  0  0  0  0  0  0  0  0  0  0  0
  198.5992  184.8040  156.0482 C   0  0  2  0  0  0  0  0  0  0  0  0
  199.5480  181.7280  156.4325 C   0  0  0  0  0  0  0  0  0  0  0  0
  198.6338  181.4842  155.3849 N   0  0  0  0  0  0  0  0  0  0  0  0
  199.1889  181.3682  154.0450 C   0  0  1  0  0  0  0  0  0  0  0  0
  198.1769  180.9640  152.9932 C   0  0  0  0  0  0  0  0  0  0  0  0
  198.1960  181.6039  151.7388 C   0  0  0  0  0  0  0  0  0  0  0  0
  197.2899  181.2191  150.7325 C   0  0  0  0  0  0  0  0  0  0  0  0
  196.3606  180.1897  150.9774 C   0  0  0  0  0  0  0  0  0  0  0  0
  196.3513  179.5292  152.2241 C   0  0  0  0  0  0  0  0  0  0  0  0
  197.2586  179.9178  153.2310 C   0  0  0  0  0  0  0  0  0  0  0  0
  199.3561  185.0245  158.9735 H   0  0  0  0  0  0  0  0  0  0  0  0
  200.9560  185.4489  160.7738 H   0  0  0  0  0  0  0  0  0  0  0  0
  202.8288  183.8751  161.1997 H   0  0  0  0  0  0  0  0  0  0  0  0
  203.0975  181.8674  159.7863 H   0  0  0  0  0  0  0  0  0  0  0  0
  196.0269  180.8597  157.7372 H   0  0  0  0  0  0  0  0  0  0  0  0
  197.0937  180.9776  158.9113 H   0  0  0  0  0  0  0  0  0  0  0  0
  194.7432  182.1963  159.5967 H   0  0  0  0  0  0  0  0  0  0  0  0
  193.9850  184.5101  160.1217 H   0  0  0  0  0  0  0  0  0  0  0  0
  195.2246  186.4549  159.2042 H   0  0  0  0  0  0  0  0  0  0  0  0
  197.1954  186.1250  157.7778 H   0  0  0  0  0  0  0  0  0  0  0  0
  197.7138  185.1451  155.5081 H   0  0  0  0  0  0  0  0  0  0  0  0
  199.3218  184.4671  155.3081 H   0  0  0  0  0  0  0  0  0  0  0  0
  199.0364  185.6642  156.5596 H   0  0  0  0  0  0  0  0  0  0  0  0
  197.8676  182.1505  155.3845 H   0  0  0  0  0  0  0  0  0  0  0  0
  199.6564  182.3120  153.7750 H   0  0  0  0  0  0  0  0  0  0  0  0
  199.9765  180.5978  153.9781 H   0  0  0  0  0  0  0  0  0  0  0  0
  198.9253  182.3761  151.5429 H   0  0  0  0  0  0  0  0  0  0  0  0
  197.3127  181.7224  149.7754 H   0  0  0  0  0  0  0  0  0  0  0  0
  195.6571  179.9066  150.2099 H   0  0  0  0  0  0  0  0  0  0  0  0
  195.6434  178.7327  152.4105 H   0  0  0  0  0  0  0  0  0  0  0  0
  197.2638  179.3951  154.1787 H   0  0  0  0  0  0  0  0  0  0  0  0
  202.5637  179.5142  157.3977 H   0  0  0  0  0  0  0  0  0  0  0  0
  197.5303  181.4062  157.3918 H   0  0  0  0  0  0  0  0  0  0  0  0
  1  2  1  0
  2  3  2  0
  2 21  1  0
  3  4  1  0
  3  5  1  0
  4 51  1  0
  5  6  1  0
  5 10  2  0
  6  7  2  0
  6 11  1  0
  7  8  1  0
  7 30  1  0
  8  9  2  0
  8 31  1  0
  9 10  1  0
  9 32  1  0
 10 33  1  0
 11 12  1  0
 11 21  2  0
 12 13  1  0
 12 20  1  0
 13 14  1  0
 13 19  2  0
 14 15  1  0
 14 16  2  0
 15 34  1  6
 15 35  1  0
 15 52  1  0
 16 17  1  0
 16 36  1  0
 17 18  2  0
 17 37  1  0
 18 19  1  0
 18 38  1  0
 19 39  1  0
 20 40  1  6
 20 41  1  0
 20 42  1  0
 21 22  1  0
 22 23  1  0
 22 43  1  0
 23 24  1  0
 23 44  1  6
 23 45  1  0
 24 25  2  0
 24 29  1  0
 25 26  1  0
 25 46  1  0
 26 27  2  0
 26 47  1  0
 27 28  1  0
 27 48  1  0
 28 29  2  0
 28 49  1  0
 29 50  1  0
M  CHG  1  15   1
M  END
>  <s_epik_cmdline>  (1353) 
J2VwaWtfcHl0aG9uJywgJy1waCcsICc3LjAwMDAwMCcsICctcGh0JywgJzIuMDAwMDAwJywgJy1tcycsICcxNicsICctdG4nLCAnOCcsICctbWEnLCAnMjAwJywgJy1pbWFlJywgJzxpbmZpbGUubWFlPicsICctb21hZScsICc8b3V0ZmlsZS5tYWU+Jw==

>  <s_epik_input>  (1353) 
W2NIXTFbY0hdW2NIXVtjSF1bY0hdYzFbQ0gyXVtOSF1DKD1DKENsKUMyPU8pW0NASF0oYyhjMjMpW2NIXVtjSF1bY0hdW2NIXTMpTihbQ0gzXSljNGMoW05IMl0pW2NIXVtjSF1bY0hdW2NIXTQ=

>  <s_i_glide_gridfile>  (1353) 
ATP-Grid

>  <s_lp_Force_Field>  (1353) 
OPLS_2005

>  <s_lp_Variant>  (1353) 
rxn207____EMOL1096385____EMOL2735375-2

>  <s_lp_label>  (1353) 
2465_sdstereoexpander_2_neutralizer_1_epik_2_stereoizer_1

>  <s_m_source_file>  (1353) 
ATP-VSW-LIGPREP-002-in.maegz

>  <s_sd_BIOSOLVEIT.INFINISEE\_QUERY\_NAME>  (1353) 
Ref-Lig

>  <s_sd_BIOSOLVEIT.INFINISEE\_QUERY\_SMILES>  (1353) 
S(c1nc2c(cc1C[NH2+]Cc3ccc(cc3)C[NH+](C)C)cccc2)Cc4ccccc4

>  <s_sd_BIOSOLVEIT.INFINISEE\_REACTION\_NAME>  (1353) 
rxn207

>  <s_sd_BIOSOLVEIT.INFINISEE\_REAGENT1\_NAME>  (1353) 
EMOL1096385

>  <s_sd_BIOSOLVEIT.INFINISEE\_REAGENT1\_SMILES>  (1353) 
ClC=1C(=O)c2c(cccc2)C(=O)C1NCc3ccccc3

>  <s_sd_BIOSOLVEIT.INFINISEE\_REAGENT2\_NAME>  (1353) 
EMOL2735375

>  <s_sd_BIOSOLVEIT.INFINISEE\_REAGENT2\_SMILES>  (1353) 
N(c1c(N)cccc1)C

>  <s_sd_BIOSOLVEIT.INFINISEE\_SPACE>  (1353) 
eXplore_7tr_2022-12

>  <s_vsw_compound_code>  (1353) 
78850

>  <s_vsw_variant>  (1353) 
78850-2

>  <r_epik_Charging_Adjusted_Penalty>  (1353) 
3.3110806782846298

>  <r_epik_Ionization_Penalty>  (1353) 
1.6605000000000001

>  <r_epik_Ionization_Penalty_Charging>  (1353) 
1.6555

>  <r_epik_Ionization_Penalty_Neutral>  (1353) 
0.0048999999999999998

>  <r_epik_State_Penalty>  (1353) 
1.6555

>  <r_i_docking_score>  (1353) 
-3.2018170983361198

>  <r_i_glide_ecoul>  (1353) 
-8.1296415328979492

>  <r_i_glide_eff_state_penalty>  (1353) 
1.6555

>  <r_i_glide_einternal>  (1353) 
1.0099896192550699

>  <r_i_glide_emodel>  (1353) 
-54.526004049186596

>  <r_i_glide_energy>  (1353) 
-38.731108665466301

>  <r_i_glide_erotb>  (1353) 
0.59918437942950298

>  <r_i_glide_esite>  (1353) 
-0.116225814697528

>  <r_i_glide_evdw>  (1353) 
-30.601467132568398

>  <r_i_glide_gscore>  (1353) 
-4.8573170983361198

>  <r_i_glide_hbond>  (1353) 
-0.138825644303087

>  <r_i_glide_ligand_efficiency>  (1353) 
-0.11040748614952101

>  <r_i_glide_ligand_efficiency_ln>  (1353) 
-0.733134924442716

>  <r_i_glide_ligand_efficiency_sa>  (1353) 
-0.33920677699811502

>  <r_i_glide_lipo>  (1353) 
-1.57860056856554

>  <r_i_glide_metal>  (1353) 
-0

>  <r_i_glide_rewards>  (1353) 
-0.873329863636362

>  <r_lp_Energy>  (1353) 
38.712114999999997

>  <r_qp_ACxDN^.5/SA>  (1353) 
0.0099888000000000008

>  <r_qp_CIQPlogS>  (1353) 
-7.1100000000000003

>  <r_qp_EA(eV)>  (1353) 
0.94299999999999995

>  <r_qp_FISA>  (1353) 
72.646000000000001

>  <r_qp_FOSA>  (1353) 
78.563999999999993

>  <r_qp_IP(eV)>  (1353) 
8.0459999999999994

>  <r_qp_Jm>  (1353) 
1.3339489638559201

>  <r_qp_PISA>  (1353) 
406.38900000000001

>  <r_qp_PSA>  (1353) 
52.652000000000001

>  <r_qp_PercentHumanOralAbsorption>  (1353) 
100

>  <r_qp_QPPCaco>  (1353) 
2027.662

>  <r_qp_QPPMDCK>  (1353) 
2023.5640000000001

>  <r_qp_QPlogBB>  (1353) 
-0.35899999999999999

>  <r_qp_QPlogHERG>  (1353) 
-5.423

>  <r_qp_QPlogKhsa>  (1353) 
0.61799999999999999

>  <r_qp_QPlogKp>  (1353) 
-0.755

>  <r_qp_QPlogPC16>  (1353) 
13.635

>  <r_qp_QPlogPo/w>  (1353) 
4.8700000000000001

>  <r_qp_QPlogPoct>  (1353) 
20.312999999999999

>  <r_qp_QPlogPw>  (1353) 
11.244

>  <r_qp_QPlogS>  (1353) 
-4.726

>  <r_qp_QPpolrz>  (1353) 
39.829000000000001

>  <r_qp_SASA>  (1353) 
608.702

>  <r_qp_SAamideO>  (1353) 
0

>  <r_qp_SAfluorine>  (1353) 
0

>  <r_qp_WPSA>  (1353) 
51.103000000000002

>  <r_qp_accptHB>  (1353) 
3.25

>  <r_qp_dip^2/V>  (1353) 
0.00056570000000000004

>  <r_qp_dipole>  (1353) 
0.81200000000000006

>  <r_qp_donorHB>  (1353) 
3.5

>  <r_qp_glob>  (1353) 
0.87931879999999996

>  <r_qp_mol_MW>  (1353) 
403.91000000000003

>  <r_qp_volume>  (1353) 
1164.337

>  <r_sd_BIOSOLVEIT.INFINISEE\_FTREES\_SIMILARITY>  (1353) 
0.91500000000000004

>  <r_sd_BIOSOLVEIT.LOGP>  (1353) 
4.8827999999999996

>  <r_sd_BIOSOLVEIT.MOLECULAR\_WEIGHT>  (1353) 
403.911

>  <r_sd_BIOSOLVEIT.TPSA>  (1353) 
58.359999999999999

>  <i_epik_Tot_Q>  (1353) 
1

>  <i_epik_Tot_abs_Q>  (1353) 
1

>  <i_f3d_flags>  (1353) 
0

>  <i_i_glide_confnum>  (1353) 
3

>  <i_i_glide_lignum>  (1353) 
1065

>  <i_i_glide_posenum>  (1353) 
9

>  <i_i_glide_rotatable_bonds>  (1353) 
6

>  <i_lp_mmshare_version>  (1353) 
65135

>  <i_m_ct_format>  (1353) 
2

>  <i_m_source_file_index>  (1353) 
2465

>  <i_qp_#NandO>  (1353) 
4

>  <i_qp_#acid>  (1353) 
0

>  <i_qp_#amide>  (1353) 
0

>  <i_qp_#amidine>  (1353) 
0

>  <i_qp_#amine>  (1353) 
0

>  <i_qp_#in34>  (1353) 
0

>  <i_qp_#in56>  (1353) 
22

>  <i_qp_#metab>  (1353) 
8

>  <i_qp_#nonHatm>  (1353) 
29

>  <i_qp_#noncon>  (1353) 
0

>  <i_qp_#ringatoms>  (1353) 
22

>  <i_qp_#rotor>  (1353) 
7

>  <i_qp_#rtvFG>  (1353) 
0

>  <i_qp_#stars>  (1353) 
1

>  <i_qp_CNS>  (1353) 
-1

>  <i_qp_HumanOralAbsorption>  (1353) 
3

>  <i_qp_RuleOfFive>  (1353) 
0

>  <i_qp_RuleOfThree>  (1353) 
1

>  <i_sd_BIOSOLVEIT.INFINISEE\_RESULT\_RANK>  (1353) 
27250

>  <i_sd_version>  (1353) 
0

>  <b_lp_Chiralities_Consistent>  (1353) 
1

>  <b_sd_chiral_flag>  (1353) 
0

>  <canonical_id>  (1353) 
ATP-HTVS-D57D92118EC0

>  <compound_code>  (1353) 
78850

>  <title>  (1353) 
rxn207____EMOL1096385____EMOL2735375

>  <variant>  (1353) 
78850-2

>  <source_file>  (1353) 
运行/运行/ATP-VSW/ATP-VSW-DOCK_HTVS_1-002_lib.maegz

>  <canonical_smiles>  (1353) 
CN(c1ccccc1[NH3+])c1c(NCc2ccccc2)c(Cl)c(O)c2ccccc12

>  <scaffold>  (1353) 
c1ccc(CNc2ccc3ccccc3c2Nc2ccccc2)cc1

>  <molecular_formula>  (1353) 
C24H23ClN3O+

$$$$
ATP-HTVS-D57FDE5925BA
     RDKit          3D

 51 53  0  0  0  0  0  0  0  0999 V2000
  199.3211  178.6888  153.9247 O   0  0  0  0  0  0  0  0  0  0  0  0
  199.9532  177.4897  153.6717 C   0  0  0  0  0  0  0  0  0  0  0  0
  200.6012  176.8665  154.7630 C   0  0  0  0  0  0  0  0  0  0  0  0
  200.5460  177.5178  155.9786 O   0  0  0  0  0  0  0  0  0  0  0  0
  201.1848  176.9165  157.0963 C   0  0  2  0  0  0  0  0  0  0  0  0
  201.2575  175.6253  154.5656 C   0  0  0  0  0  0  0  0  0  0  0  0
  201.2664  175.0150  153.2977 C   0  0  0  0  0  0  0  0  0  0  0  0
  200.6226  175.6363  152.2139 C   0  0  0  0  0  0  0  0  0  0  0  0
  199.9704  176.8688  152.3972 C   0  0  0  0  0  0  0  0  0  0  0  0
  198.5715  179.2966  152.8750 C   0  0  1  0  0  0  0  0  0  0  0  0
  197.9302  180.5198  153.4157 C   0  0  0  0  0  0  0  0  0  0  0  0
  197.8599  180.6080  154.7724 O   0  0  0  0  0  0  0  0  0  0  0  0
  197.2112  181.7701  155.0665 C   0  0  0  0  0  0  0  0  0  0  0  0
  196.8781  182.4271  153.9138 C   0  0  0  0  0  0  0  0  0  0  0  0
  197.3241  181.6047  152.8427 C   0  0  0  0  0  0  0  0  0  0  0  0
  197.1107  182.1209  156.4979 C   0  0  1  0  0  0  0  0  0  0  0  0
  195.7711  181.8379  157.0685 N   0  0  1  0  0  0  0  0  0  0  0  0
  195.7005  182.0051  158.5369 C   0  0  1  0  0  0  0  0  0  0  0  0
  195.9982  183.4227  159.0338 C   0  0  0  0  0  0  0  0  0  0  0  0
  197.3225  183.9011  159.1043 C   0  0  0  0  0  0  0  0  0  0  0  0
  198.3903  183.0678  158.7433 N   0  0  0  0  0  0  0  0  0  0  0  0
  199.7615  183.4796  158.9244 C   0  0  2  0  0  0  0  0  0  0  0  0
  197.5433  185.2735  159.4525 C   0  0  0  0  0  0  0  0  0  0  0  0
  196.4540  186.1209  159.7698 C   0  0  0  0  0  0  0  0  0  0  0  0
  195.1419  185.6010  159.7648 C   0  0  0  0  0  0  0  0  0  0  0  0
  194.9176  184.2666  159.3808 C   0  0  0  0  0  0  0  0  0  0  0  0
  195.0427  182.3864  156.5844 H   0  0  0  0  0  0  0  0  0  0  0  0
  201.0746  177.5637  157.9673 H   0  0  0  0  0  0  0  0  0  0  0  0
  202.2499  176.7767  156.9108 H   0  0  0  0  0  0  0  0  0  0  0  0
  200.7465  175.9519  157.3491 H   0  0  0  0  0  0  0  0  0  0  0  0
  201.7604  175.1176  155.3740 H   0  0  0  0  0  0  0  0  0  0  0  0
  201.7692  174.0695  153.1586 H   0  0  0  0  0  0  0  0  0  0  0  0
  200.6290  175.1679  151.2403 H   0  0  0  0  0  0  0  0  0  0  0  0
  199.4856  177.3158  151.5427 H   0  0  0  0  0  0  0  0  0  0  0  0
  199.2166  179.5633  152.0373 H   0  0  0  0  0  0  0  0  0  0  0  0
  197.7805  178.6320  152.5276 H   0  0  0  0  0  0  0  0  0  0  0  0
  196.4019  183.3976  153.8790 H   0  0  0  0  0  0  0  0  0  0  0  0
  197.2065  181.7933  151.7892 H   0  0  0  0  0  0  0  0  0  0  0  0
  197.8696  181.5513  157.0435 H   0  0  0  0  0  0  0  0  0  0  0  0
  197.4410  183.1527  156.6842 H   0  0  0  0  0  0  0  0  0  0  0  0
  194.6937  181.7207  158.8140 H   0  0  0  0  0  0  0  0  0  0  0  0
  196.3516  181.2902  159.0383 H   0  0  0  0  0  0  0  0  0  0  0  0
  198.2170  182.0520  158.5619 H   0  0  0  0  0  0  0  0  0  0  0  0
  200.4227  182.6706  158.6050 H   0  0  0  0  0  0  0  0  0  0  0  0
  200.0930  183.7402  159.9538 H   0  0  0  0  0  0  0  0  0  0  0  0
  200.0007  184.3331  158.2774 H   0  0  0  0  0  0  0  0  0  0  0  0
  198.5292  185.7176  159.4302 H   0  0  0  0  0  0  0  0  0  0  0  0
  196.6232  187.1635  160.0314 H   0  0  0  0  0  0  0  0  0  0  0  0
  194.3100  186.2228  160.0487 H   0  0  0  0  0  0  0  0  0  0  0  0
  193.8958  183.8860  159.3360 H   0  0  0  0  0  0  0  0  0  0  0  0
  195.5578  180.8623  156.9155 H   0  0  0  0  0  0  0  0  0  0  0  0
  1  2  1  0
  1 10  1  0
  2  3  1  0
  2  9  2  0
  3  4  1  0
  3  6  2  0
  4  5  1  0
  5 28  1  1
  5 29  1  0
  5 30  1  0
  6  7  1  0
  6 31  1  0
  7  8  2  0
  7 32  1  0
  8  9  1  0
  8 33  1  0
  9 34  1  0
 10 11  1  0
 10 35  1  6
 10 36  1  0
 11 12  1  0
 11 15  2  0
 12 13  1  0
 13 14  2  0
 13 16  1  0
 14 15  1  0
 14 37  1  0
 15 38  1  0
 16 17  1  0
 16 39  1  1
 16 40  1  0
 17 18  1  0
 17 27  1  6
 17 51  1  0
 18 19  1  0
 18 41  1  1
 18 42  1  0
 19 20  1  0
 19 26  2  0
 20 21  1  0
 20 23  2  0
 21 22  1  0
 21 43  1  0
 22 44  1  6
 22 45  1  0
 22 46  1  0
 23 24  1  0
 23 47  1  0
 24 25  2  0
 24 48  1  0
 25 26  1  0
 25 49  1  0
 26 50  1  0
M  CHG  1  17   1
M  END
>  <s_epik_cmdline>  (1354) 
J2VwaWtfcHl0aG9uJywgJy1waCcsICc3LjAwMDAwMCcsICctcGh0JywgJzIuMDAwMDAwJywgJy1tcycsICcxNicsICctdG4nLCAnOCcsICctbWEnLCAnMjAwJywgJy1pbWFlJywgJzxpbmZpbGUubWFlPicsICctb21hZScsICc8b3V0ZmlsZS5tYWU+Jw==

>  <s_epik_input>  (1354) 
W2NIXTFbY0hdW2NIXVtjSF1jKE9bQ0gzXSljMU9bQ0gyXWMyb2MoW2NIXVtjSF0yKVtDSDJdW05IXVtDSDJdYzNjKFtOSF1bQ0gzXSlbY0hdW2NIXVtjSF1bY0hdMw==

>  <s_i_glide_gridfile>  (1354) 
ATP-Grid

>  <s_lp_Force_Field>  (1354) 
OPLS_2005

>  <s_lp_Variant>  (1354) 
m_270004bbb____23868216____24720270-1

>  <s_lp_label>  (1354) 
1611_sdstereoexpander_1_neutralizer_1_epik_1_stereoizer_1

>  <s_m_source_file>  (1354) 
ATP-VSW-LIGPREP-002-in.maegz

>  <s_sd_BIOSOLVEIT.INFINISEE\_QUERY\_NAME>  (1354) 
Ref-Lig

>  <s_sd_BIOSOLVEIT.INFINISEE\_QUERY\_SMILES>  (1354) 
S(c1nc2c(cc1C[NH2+]Cc3ccc(cc3)C[NH+](C)C)cccc2)Cc4ccccc4

>  <s_sd_BIOSOLVEIT.INFINISEE\_REACTION\_NAME>  (1354) 
m_270004bbb

>  <s_sd_BIOSOLVEIT.INFINISEE\_REAGENT1\_SMILES>  (1354) 
[R1*]NCc1c(NC)cccc1

>  <s_sd_BIOSOLVEIT.INFINISEE\_REAGENT2\_SMILES>  (1354) 
[R1*]CC=1OC(=CC1)COc2c(OC)cccc2

>  <s_sd_BIOSOLVEIT.INFINISEE\_SPACE>  (1354) 
REALSpace_44bn_2023-08

>  <s_vsw_compound_code>  (1354) 
51522

>  <s_vsw_variant>  (1354) 
51522-1

>  <r_epik_Charging_Adjusted_Penalty>  (1354) 
0.032206265814160001

>  <r_epik_Ionization_Penalty>  (1354) 
0.025100000000000001

>  <r_epik_Ionization_Penalty_Charging>  (1354) 
0.025000000000000001

>  <r_epik_Ionization_Penalty_Neutral>  (1354) 
0

>  <r_epik_State_Penalty>  (1354) 
0.0071999999999999998

>  <r_i_docking_score>  (1354) 
-5.2154899492369804

>  <r_i_glide_ecoul>  (1354) 
-9.9970417022705096

>  <r_i_glide_eff_state_penalty>  (1354) 
0.0071999999999999998

>  <r_i_glide_einternal>  (1354) 
1.4717366695404099

>  <r_i_glide_emodel>  (1354) 
-57.584999333297397

>  <r_i_glide_energy>  (1354) 
-39.108079910278299

>  <r_i_glide_erotb>  (1354) 
1.0701384472078199

>  <r_i_glide_esite>  (1354) 
-0.10000000000000001

>  <r_i_glide_evdw>  (1354) 
-29.111038208007798

>  <r_i_glide_gscore>  (1354) 
-5.2226899492369796

>  <r_i_glide_hbond>  (1354) 
-0.36713912961973799

>  <r_i_glide_ligand_efficiency>  (1354) 
-0.20059576727834499

>  <r_i_glide_ligand_efficiency_ln>  (1354) 
-1.22484070115995

>  <r_i_glide_ligand_efficiency_sa>  (1354) 
-0.59426417125586795

>  <r_i_glide_lipo>  (1354) 
-1.8712729192659101

>  <r_i_glide_metal>  (1354) 
-0

>  <r_i_glide_rewards>  (1354) 
-0.99930818181818104

>  <r_lp_Energy>  (1354) 
15.148906999999999

>  <r_lp_tautomer_probability>  (1354) 
1

>  <r_qp_ACxDN^.5/SA>  (1354) 
0.0091348999999999996

>  <r_qp_CIQPlogS>  (1354) 
-4.4720000000000004

>  <r_qp_EA(eV)>  (1354) 
-0.114

>  <r_qp_FISA>  (1354) 
23.853999999999999

>  <r_qp_FOSA>  (1354) 
271.67599999999999

>  <r_qp_IP(eV)>  (1354) 
7.8879999999999999

>  <r_qp_Jm>  (1354) 
0.206313136126244

>  <r_qp_PISA>  (1354) 
401.13200000000001

>  <r_qp_PSA>  (1354) 
47.232999999999997

>  <r_qp_PercentHumanOralAbsorption>  (1354) 
100

>  <r_qp_QPPCaco>  (1354) 
1467.537

>  <r_qp_QPPMDCK>  (1354) 
828.50099999999998

>  <r_qp_QPlogBB>  (1354) 
0.16700000000000001

>  <r_qp_QPlogHERG>  (1354) 
-7.5010000000000003

>  <r_qp_QPlogKhsa>  (1354) 
0.61099999999999999

>  <r_qp_QPlogKp>  (1354) 
-1.7450000000000001

>  <r_qp_QPlogPC16>  (1354) 
13.079000000000001

>  <r_qp_QPlogPo/w>  (1354) 
4.6699999999999999

>  <r_qp_QPlogPoct>  (1354) 
18.358000000000001

>  <r_qp_QPlogPw>  (1354) 
9.6630000000000003

>  <r_qp_QPlogS>  (1354) 
-4.4880000000000004

>  <r_qp_QPpolrz>  (1354) 
40.872999999999998

>  <r_qp_SASA>  (1354) 
696.66200000000003

>  <r_qp_SAamideO>  (1354) 
0

>  <r_qp_SAfluorine>  (1354) 
0

>  <r_qp_WPSA>  (1354) 
0

>  <r_qp_accptHB>  (1354) 
4.5

>  <r_qp_dip^2/V>  (1354) 
0.0053407000000000003

>  <r_qp_dipole>  (1354) 
2.5569999999999999

>  <r_qp_donorHB>  (1354) 
2

>  <r_qp_glob>  (1354) 
0.79421799999999998

>  <r_qp_mol_MW>  (1354) 
352.43200000000002

>  <r_qp_volume>  (1354) 
1223.7570000000001

>  <r_sd_BIOSOLVEIT.INFINISEE\_FTREES\_SIMILARITY>  (1354) 
0.90600000000000003

>  <r_sd_BIOSOLVEIT.LOGP>  (1354) 
3.1724999999999999

>  <r_sd_BIOSOLVEIT.MOLECULAR\_WEIGHT>  (1354) 
353.44

>  <r_sd_BIOSOLVEIT.TPSA>  (1354) 
60.240000000000002

>  <i_epik_Tot_Q>  (1354) 
1

>  <i_epik_Tot_abs_Q>  (1354) 
1

>  <i_f3d_flags>  (1354) 
0

>  <i_i_glide_confnum>  (1354) 
8

>  <i_i_glide_lignum>  (1354) 
562

>  <i_i_glide_posenum>  (1354) 
1

>  <i_i_glide_rotatable_bonds>  (1354) 
9

>  <i_lp_mmshare_version>  (1354) 
65135

>  <i_m_ct_format>  (1354) 
2

>  <i_m_source_file_index>  (1354) 
1611

>  <i_qp_#NandO>  (1354) 
5

>  <i_qp_#acid>  (1354) 
0

>  <i_qp_#amide>  (1354) 
0

>  <i_qp_#amidine>  (1354) 
0

>  <i_qp_#amine>  (1354) 
1

>  <i_qp_#in34>  (1354) 
0

>  <i_qp_#in56>  (1354) 
17

>  <i_qp_#metab>  (1354) 
11

>  <i_qp_#nonHatm>  (1354) 
26

>  <i_qp_#noncon>  (1354) 
0

>  <i_qp_#ringatoms>  (1354) 
17

>  <i_qp_#rotor>  (1354) 
9

>  <i_qp_#rtvFG>  (1354) 
0

>  <i_qp_#stars>  (1354) 
2

>  <i_qp_CNS>  (1354) 
1

>  <i_qp_HumanOralAbsorption>  (1354) 
1

>  <i_qp_RuleOfFive>  (1354) 
0

>  <i_qp_RuleOfThree>  (1354) 
1

>  <i_sd_BIOSOLVEIT.INFINISEE\_REAGENT1\_NAME>  (1354) 
23868216

>  <i_sd_BIOSOLVEIT.INFINISEE\_REAGENT2\_NAME>  (1354) 
24720270

>  <i_sd_BIOSOLVEIT.INFINISEE\_RESULT\_RANK>  (1354) 
66579

>  <i_sd_version>  (1354) 
0

>  <b_lp_Chiralities_Consistent>  (1354) 
1

>  <b_sd_chiral_flag>  (1354) 
0

>  <canonical_id>  (1354) 
ATP-HTVS-D57FDE5925BA

>  <compound_code>  (1354) 
51522

>  <title>  (1354) 
m_270004bbb____23868216____24720270

>  <variant>  (1354) 
51522-1

>  <source_file>  (1354) 
运行/运行/ATP-VSW/ATP-VSW-DOCK_HTVS_1-002_lib.maegz

>  <canonical_smiles>  (1354) 
CNc1ccccc1C[NH2+]Cc1ccc(COc2ccccc2OC)o1

>  <scaffold>  (1354) 
c1ccc(C[NH2+]Cc2ccc(COc3ccccc3)o2)cc1

>  <molecular_formula>  (1354) 
C21H25N2O3+

$$$$
ATP-HTVS-D5881C68A9EC
     RDKit          3D

 62 65  0  0  0  0  0  0  0  0999 V2000
  196.3173  179.5577  150.6893 O   0  0  0  0  0  0  0  0  0  0  0  0
  197.3835  179.0530  151.0318 C   0  0  0  0  0  0  0  0  0  0  0  0
  198.0704  179.4029  152.1348 N   0  0  0  0  0  0  0  0  0  0  0  0
  197.7822  180.3821  153.1302 C   0  0  0  0  0  0  0  0  0  0  0  0
  198.5824  180.4261  154.3053 C   0  0  0  0  0  0  0  0  0  0  0  0
  199.5980  179.4820  154.4970 N   0  0  0  0  0  0  0  0  0  0  0  0
  199.2921  178.4598  155.4888 C   0  0  1  0  0  0  0  0  0  0  0  0
  200.2506  177.2815  155.4349 C   0  0  0  0  0  0  0  0  0  0  0  0
  200.6577  176.7794  154.1942 C   0  0  0  0  0  0  0  0  0  0  0  0
  201.5313  175.6862  154.1071 C   0  0  0  0  0  0  0  0  0  0  0  0
  201.9806  175.0436  155.2904 C   0  0  0  0  0  0  0  0  0  0  0  0
  202.7856  173.8874  155.2024 N   0  0  0  0  0  0  0  0  0  0  0  0
  202.8208  173.0939  153.9827 C   0  0  1  0  0  0  0  0  0  0  0  0
  201.4253  172.5409  153.5628 C   0  0  1  0  0  0  0  0  0  0  0  0
  201.5547  171.5641  152.5373 O   0  0  0  0  0  0  0  0  0  0  0  0
  201.6138  175.5754  156.5384 C   0  0  0  0  0  0  0  0  0  0  0  0
  200.7531  176.6937  156.6205 C   0  0  0  0  0  0  0  0  0  0  0  0
  198.3267  181.4278  155.2865 C   0  0  0  0  0  0  0  0  0  0  0  0
  197.2524  182.3248  155.0764 C   0  0  0  0  0  0  0  0  0  0  0  0
  196.5016  182.2353  153.9593 N   0  0  0  0  0  0  0  0  0  0  0  0
  196.7336  181.3207  152.9905 C   0  0  0  0  0  0  0  0  0  0  0  0
  196.9749  183.3300  156.0238 C   0  0  0  0  0  0  0  0  0  0  0  0
  197.7440  183.4445  157.1924 C   0  0  0  0  0  0  0  0  0  0  0  0
  198.8259  182.5735  157.4019 C   0  0  0  0  0  0  0  0  0  0  0  0
  199.1177  181.5713  156.4515 C   0  0  0  0  0  0  0  0  0  0  0  0
  198.0405  177.9538  150.2208 C   0  0  0  0  0  0  0  0  0  0  0  0
  197.8889  177.8199  148.8074 C   0  0  0  0  0  0  0  0  0  0  0  0
  198.5212  176.7557  148.1098 C   0  0  0  0  0  0  0  0  0  0  0  0
  199.3350  175.8378  148.7991 C   0  0  0  0  0  0  0  0  0  0  0  0
  199.4805  175.9523  150.1868 C   0  0  0  0  0  0  0  0  0  0  0  0
  198.8042  176.9724  150.8815 C   0  0  0  0  0  0  0  0  0  0  0  0
  200.3524  174.9782  150.9347 C   0  0  2  0  0  0  0  0  0  0  0  0
  197.0426  178.7775  147.9897 C   0  0  2  0  0  0  0  0  0  0  0  0
  198.8862  178.8363  152.3133 H   0  0  0  0  0  0  0  0  0  0  0  0
  200.0041  179.1015  153.6538 H   0  0  0  0  0  0  0  0  0  0  0  0
  199.3197  178.8773  156.4915 H   0  0  0  0  0  0  0  0  0  0  0  0
  198.2744  178.0995  155.3276 H   0  0  0  0  0  0  0  0  0  0  0  0
  200.3096  177.2273  153.2605 H   0  0  0  0  0  0  0  0  0  0  0  0
  201.8421  175.3551  153.1474 H   0  0  0  0  0  0  0  0  0  0  0  0
  203.1322  173.4492  156.0565 H   0  0  0  0  0  0  0  0  0  0  0  0
  203.2726  173.6656  153.1675 H   0  0  0  0  0  0  0  0  0  0  0  0
  203.5100  172.2622  154.1467 H   0  0  0  0  0  0  0  0  0  0  0  0
  200.9408  172.0851  154.4292 H   0  0  0  0  0  0  0  0  0  0  0  0
  200.7500  173.3058  153.1849 H   0  0  0  0  0  0  0  0  0  0  0  0
  202.1507  170.9152  152.8767 H   0  0  0  0  0  0  0  0  0  0  0  0
  202.0027  175.1157  157.4481 H   0  0  0  0  0  0  0  0  0  0  0  0
  200.4848  177.1084  157.5843 H   0  0  0  0  0  0  0  0  0  0  0  0
  196.0515  181.3937  152.1610 H   0  0  0  0  0  0  0  0  0  0  0  0
  196.1508  183.9992  155.8610 H   0  0  0  0  0  0  0  0  0  0  0  0
  197.5063  184.2013  157.9289 H   0  0  0  0  0  0  0  0  0  0  0  0
  199.4169  182.6556  158.3002 H   0  0  0  0  0  0  0  0  0  0  0  0
  199.9583  180.9200  156.6413 H   0  0  0  0  0  0  0  0  0  0  0  0
  198.3804  176.6317  147.0405 H   0  0  0  0  0  0  0  0  0  0  0  0
  199.8171  175.0317  148.2729 H   0  0  0  0  0  0  0  0  0  0  0  0
  198.8790  176.9832  151.9739 H   0  0  0  0  0  0  0  0  0  0  0  0
  199.9578  174.9069  151.9411 H   0  0  0  0  0  0  0  0  0  0  0  0
  201.3843  175.3202  150.9614 H   0  0  0  0  0  0  0  0  0  0  0  0
  200.3457  173.9829  150.5156 H   0  0  0  0  0  0  0  0  0  0  0  0
  197.1870  178.6272  146.9169 H   0  0  0  0  0  0  0  0  0  0  0  0
  197.3159  179.8087  148.2282 H   0  0  0  0  0  0  0  0  0  0  0  0
  195.9828  178.6271  148.2162 H   0  0  0  0  0  0  0  0  0  0  0  0
  195.7145  182.8773  153.8334 H   0  0  0  0  0  0  0  0  0  0  0  0
  1  2  2  0
  2  3  1  0
  2 26  1  0
  3  4  1  0
  3 34  1  0
  4  5  2  0
  4 21  1  0
  5  6  1  0
  5 18  1  0
  6  7  1  0
  6 35  1  0
  7  8  1  0
  7 36  1  1
  7 37  1  0
  8  9  1  0
  8 17  2  0
  9 10  2  0
  9 38  1  0
 10 11  1  0
 10 39  1  0
 11 12  1  0
 11 16  2  0
 12 13  1  0
 12 40  1  0
 13 14  1  0
 13 41  1  6
 13 42  1  0
 14 15  1  0
 14 43  1  1
 14 44  1  0
 15 45  1  0
 16 17  1  0
 16 46  1  0
 17 47  1  0
 18 19  1  0
 18 25  2  0
 19 20  1  0
 19 22  2  0
 20 21  2  0
 20 62  1  0
 21 48  1  0
 22 23  1  0
 22 49  1  0
 23 24  2  0
 23 50  1  0
 24 25  1  0
 24 51  1  0
 25 52  1  0
 26 27  2  0
 26 31  1  0
 27 28  1  0
 27 33  1  0
 28 29  2  0
 28 53  1  0
 29 30  1  0
 29 54  1  0
 30 31  2  0
 30 32  1  0
 31 55  1  0
 32 56  1  1
 32 57  1  0
 32 58  1  0
 33 59  1  6
 33 60  1  0
 33 61  1  0
M  CHG  1  20   1
M  END
>  <s_epik_cmdline>  (1355) 
J2VwaWtfcHl0aG9uJywgJy1waCcsICc3LjAwMDAwMCcsICctcGh0JywgJzIuMDAwMDAwJywgJy1tcycsICcxNicsICctdG4nLCAnOCcsICctbWEnLCAnMjAwJywgJy1pbWFlJywgJzxpbmZpbGUubWFlPicsICctb21hZScsICc8b3V0ZmlsZS5tYWU+Jw==

>  <s_epik_input>  (1355) 
W2NIXTFjKFtDSDNdKVtjSF1bY0hdYyhbQ0gzXSljMUMoPU8pW05IXWMoW2NIXW5jKGMyMylbY0hdW2NIXVtjSF1bY0hdMyljMltOSF1bQ0gyXWM0W2NIXVtjSF1jKFtjSF1bY0hdNClbTkhdW0NIMl1bQ0gyXVtPSF0=

>  <s_i_glide_gridfile>  (1355) 
ATP-Grid

>  <s_lp_Force_Field>  (1355) 
OPLS_2005

>  <s_lp_Variant>  (1355) 
rxn502b____EMOL11467954____EMOL30488121____EMOL324170366-1

>  <s_lp_label>  (1355) 
2972_sdstereoexpander_1_neutralizer_1_epik_1_stereoizer_1

>  <s_m_source_file>  (1355) 
ATP-VSW-LIGPREP-001-in.maegz

>  <s_sd_BIOSOLVEIT.INFINISEE\_QUERY\_NAME>  (1355) 
Ref-Lig

>  <s_sd_BIOSOLVEIT.INFINISEE\_QUERY\_SMILES>  (1355) 
S(c1nc2c(cc1C[NH2+]Cc3ccc(cc3)C[NH+](C)C)cccc2)Cc4ccccc4

>  <s_sd_BIOSOLVEIT.INFINISEE\_REACTION\_NAME>  (1355) 
rxn502b

>  <s_sd_BIOSOLVEIT.INFINISEE\_REAGENT1\_NAME>  (1355) 
EMOL11467954

>  <s_sd_BIOSOLVEIT.INFINISEE\_REAGENT1\_SMILES>  (1355) 
ClC(=O)c1c(ccc(c1)C)C

>  <s_sd_BIOSOLVEIT.INFINISEE\_REAGENT2\_NAME>  (1355) 
EMOL30488121

>  <s_sd_BIOSOLVEIT.INFINISEE\_REAGENT2\_SMILES>  (1355) 
Brc1c(N)cnc2c1cccc2

>  <s_sd_BIOSOLVEIT.INFINISEE\_REAGENT3\_NAME>  (1355) 
EMOL324170366

>  <s_sd_BIOSOLVEIT.INFINISEE\_REAGENT3\_SMILES>  (1355) 
OCCNc1ccc(cc1)CN

>  <s_sd_BIOSOLVEIT.INFINISEE\_SPACE>  (1355) 
eXplore_7tr_2022-12

>  <s_vsw_compound_code>  (1355) 
95073

>  <s_vsw_variant>  (1355) 
95073-1

>  <r_epik_Charging_Adjusted_Penalty>  (1355) 
0.17387378976877799

>  <r_epik_Ionization_Penalty>  (1355) 
0.092799999999999994

>  <r_epik_Ionization_Penalty_Charging>  (1355) 
0.081100000000000005

>  <r_epik_Ionization_Penalty_Neutral>  (1355) 
0.0117

>  <r_epik_State_Penalty>  (1355) 
0.092799999999999994

>  <r_i_docking_score>  (1355) 
-4.5310685694006096

>  <r_i_glide_ecoul>  (1355) 
-8.85546779632568

>  <r_i_glide_eff_state_penalty>  (1355) 
0.092799999999999994

>  <r_i_glide_einternal>  (1355) 
2.54342865943909

>  <r_i_glide_emodel>  (1355) 
-60.219349781420199

>  <r_i_glide_energy>  (1355) 
-43.546706199646003

>  <r_i_glide_erotb>  (1355) 
0.92214560491348496

>  <r_i_glide_esite>  (1355) 
-0.077874145176992093

>  <r_i_glide_evdw>  (1355) 
-34.691238403320298

>  <r_i_glide_gscore>  (1355) 
-4.6238685694006101

>  <r_i_glide_hbond>  (1355) 
-0.35999999999999999

>  <r_i_glide_ligand_efficiency>  (1355) 
-0.13730510816365499

>  <r_i_glide_ligand_efficiency_ln>  (1355) 
-1.00768618921723

>  <r_i_glide_ligand_efficiency_sa>  (1355) 
-0.44041084760541399

>  <r_i_glide_lipo>  (1355) 
-1.54708408073163

>  <r_i_glide_metal>  (1355) 
-0

>  <r_i_glide_rewards>  (1355) 
-0.49817385879061299

>  <r_lp_Energy>  (1355) 
45.888700999999998

>  <r_qp_ACxDN^.5/SA>  (1355) 
0.018839499999999999

>  <r_qp_CIQPlogS>  (1355) 
-6.3849999999999998

>  <r_qp_EA(eV)>  (1355) 
0.91500000000000004

>  <r_qp_FISA>  (1355) 
125.77

>  <r_qp_FOSA>  (1355) 
251.03100000000001

>  <r_qp_IP(eV)>  (1355) 
8.2579999999999991

>  <r_qp_Jm>  (1355) 
0.019612274919110901

>  <r_qp_PISA>  (1355) 
387.55000000000001

>  <r_qp_PSA>  (1355) 
89.378

>  <r_qp_PercentHumanOralAbsorption>  (1355) 
100

>  <r_qp_QPPCaco>  (1355) 
635.65200000000004

>  <r_qp_QPPMDCK>  (1355) 
303.14699999999999

>  <r_qp_QPlogBB>  (1355) 
-1.3009999999999999

>  <r_qp_QPlogHERG>  (1355) 
-6.6760000000000002

>  <r_qp_QPlogKhsa>  (1355) 
0.48699999999999999

>  <r_qp_QPlogKp>  (1355) 
-1.6080000000000001

>  <r_qp_QPlogPC16>  (1355) 
15.917999999999999

>  <r_qp_QPlogPo/w>  (1355) 
4.2199999999999998

>  <r_qp_QPlogPoct>  (1355) 
27.097000000000001

>  <r_qp_QPlogPw>  (1355) 
16.015000000000001

>  <r_qp_QPlogS>  (1355) 
-5.7430000000000003

>  <r_qp_QPpolrz>  (1355) 
48.273000000000003

>  <r_qp_SASA>  (1355) 
764.351

>  <r_qp_SAamideO>  (1355) 
0

>  <r_qp_SAfluorine>  (1355) 
0

>  <r_qp_WPSA>  (1355) 
0

>  <r_qp_accptHB>  (1355) 
7.2000000000000002

>  <r_qp_dip^2/V>  (1355) 
0.094979999999999995

>  <r_qp_dipole>  (1355) 
11.58

>  <r_qp_donorHB>  (1355) 
4

>  <r_qp_glob>  (1355) 
0.79630339999999999

>  <r_qp_mol_MW>  (1355) 
440.54399999999998

>  <r_qp_volume>  (1355) 
1411.9169999999999

>  <r_sd_BIOSOLVEIT.INFINISEE\_FTREES\_SIMILARITY>  (1355) 
0.90300000000000002

>  <r_sd_BIOSOLVEIT.LOGP>  (1355) 
5.1202399999999999

>  <r_sd_BIOSOLVEIT.MOLECULAR\_WEIGHT>  (1355) 
440.54399999999998

>  <r_sd_BIOSOLVEIT.TPSA>  (1355) 
86.280000000000001

>  <i_epik_Tot_Q>  (1355) 
1

>  <i_epik_Tot_abs_Q>  (1355) 
1

>  <i_f3d_flags>  (1355) 
0

>  <i_i_glide_confnum>  (1355) 
11

>  <i_i_glide_lignum>  (1355) 
1405

>  <i_i_glide_posenum>  (1355) 
13

>  <i_i_glide_rotatable_bonds>  (1355) 
10

>  <i_lp_mmshare_version>  (1355) 
65135

>  <i_m_ct_format>  (1355) 
2

>  <i_m_source_file_index>  (1355) 
2972

>  <i_qp_#NandO>  (1355) 
6

>  <i_qp_#acid>  (1355) 
0

>  <i_qp_#amide>  (1355) 
0

>  <i_qp_#amidine>  (1355) 
0

>  <i_qp_#amine>  (1355) 
0

>  <i_qp_#in34>  (1355) 
0

>  <i_qp_#in56>  (1355) 
22

>  <i_qp_#metab>  (1355) 
9

>  <i_qp_#nonHatm>  (1355) 
33

>  <i_qp_#noncon>  (1355) 
0

>  <i_qp_#ringatoms>  (1355) 
22

>  <i_qp_#rotor>  (1355) 
9

>  <i_qp_#rtvFG>  (1355) 
0

>  <i_qp_#stars>  (1355) 
1

>  <i_qp_CNS>  (1355) 
-2

>  <i_qp_HumanOralAbsorption>  (1355) 
3

>  <i_qp_RuleOfFive>  (1355) 
0

>  <i_qp_RuleOfThree>  (1355) 
2

>  <i_sd_BIOSOLVEIT.INFINISEE\_RESULT\_RANK>  (1355) 
82721

>  <i_sd_version>  (1355) 
0

>  <b_lp_Chiralities_Consistent>  (1355) 
1

>  <b_sd_chiral_flag>  (1355) 
0

>  <canonical_id>  (1355) 
ATP-HTVS-D5881C68A9EC

>  <compound_code>  (1355) 
95073

>  <title>  (1355) 
rxn502b____EMOL11467954____EMOL30488121____EMOL324170366

>  <variant>  (1355) 
95073-1

>  <source_file>  (1355) 
运行/运行/ATP-VSW/ATP-VSW-DOCK_HTVS_1-001_lib/ATP-VSW-DOCK_HTVS_1-001_lib

>  <canonical_smiles>  (1355) 
Cc1ccc(C)c(C(=O)Nc2c[nH+]c3ccccc3c2NCc2ccc(NCCO)cc2)c1

>  <scaffold>  (1355) 
O=C(Nc1c[nH+]c2ccccc2c1NCc1ccccc1)c1ccccc1

>  <molecular_formula>  (1355) 
C27H29N4O2+

$$$$
ATP-HTVS-D5ACD41550DD
     RDKit          3D

 59 61  0  0  0  0  0  0  0  0999 V2000
  200.2410  179.3034  156.5415 F   0  0  0  0  0  0  0  0  0  0  0  0
  199.3623  179.3784  155.5156 C   0  0  0  0  0  0  0  0  0  0  0  0
  198.0669  179.8798  155.7321 C   0  0  0  0  0  0  0  0  0  0  0  0
  197.1473  179.9597  154.6699 C   0  0  0  0  0  0  0  0  0  0  0  0
  197.5265  179.5403  153.3761 C   0  0  0  0  0  0  0  0  0  0  0  0
  198.8302  179.0400  153.1588 C   0  0  0  0  0  0  0  0  0  0  0  0
  199.7446  178.9593  154.2270 C   0  0  0  0  0  0  0  0  0  0  0  0
  196.5370  179.6135  152.2276 C   0  0  1  0  0  0  0  0  0  0  0  0
  196.7553  180.8773  151.3995 C   0  0  0  0  0  0  0  0  0  0  0  0
  196.8992  180.7645  150.1853 O   0  0  0  0  0  0  0  0  0  0  0  0
  196.7440  182.0467  152.0708 N   0  0  0  0  0  0  0  0  0  0  0  0
  197.1637  183.3361  151.6318 C   0  0  0  0  0  0  0  0  0  0  0  0
  197.5602  184.2991  152.6019 C   0  0  0  0  0  0  0  0  0  0  0  0
  197.5741  183.9682  153.9711 N   0  0  0  0  0  0  0  0  0  0  0  0
  198.1219  184.8797  154.9668 C   0  0  1  0  0  0  0  0  0  0  0  0
  197.9375  184.4393  156.4111 C   0  0  0  0  0  0  0  0  0  0  0  0
  197.0040  183.4395  156.7679 C   0  0  0  0  0  0  0  0  0  0  0  0
  196.8290  183.0694  158.1164 C   0  0  0  0  0  0  0  0  0  0  0  0
  197.5959  183.6956  159.1206 C   0  0  0  0  0  0  0  0  0  0  0  0
  198.5265  184.6926  158.7728 C   0  0  0  0  0  0  0  0  0  0  0  0
  198.6940  185.0654  157.4242 C   0  0  0  0  0  0  0  0  0  0  0  0
  195.8184  181.9985  158.4718 C   0  0  1  0  0  0  0  0  0  0  0  0
  194.4227  182.3861  158.1378 N   0  0  2  0  0  0  0  0  0  0  0  0
  193.9619  183.5994  158.8452 C   0  0  2  0  0  0  0  0  0  0  0  0
  193.4841  181.2571  158.2909 C   0  0  2  0  0  0  0  0  0  0  0  0
  197.9583  185.5835  152.1544 C   0  0  0  0  0  0  0  0  0  0  0  0
  197.9680  185.8806  150.8386 N   0  0  0  0  0  0  0  0  0  0  0  0
  197.6103  184.9925  149.8875 C   0  0  0  0  0  0  0  0  0  0  0  0
  197.1922  183.7013  150.2618 C   0  0  0  0  0  0  0  0  0  0  0  0
  197.6557  185.4238  148.4413 C   0  0  2  0  0  0  0  0  0  0  0  0
  197.7743  180.1797  156.7288 H   0  0  0  0  0  0  0  0  0  0  0  0
  196.1522  180.3343  154.8576 H   0  0  0  0  0  0  0  0  0  0  0  0
  199.1318  178.7128  152.1724 H   0  0  0  0  0  0  0  0  0  0  0  0
  200.7413  178.5710  154.0628 H   0  0  0  0  0  0  0  0  0  0  0  0
  196.6551  178.7321  151.5969 H   0  0  0  0  0  0  0  0  0  0  0  0
  195.5122  179.5974  152.5957 H   0  0  0  0  0  0  0  0  0  0  0  0
  196.5584  181.9762  153.0593 H   0  0  0  0  0  0  0  0  0  0  0  0
  197.4892  183.0052  154.2589 H   0  0  0  0  0  0  0  0  0  0  0  0
  199.1900  184.9889  154.7769 H   0  0  0  0  0  0  0  0  0  0  0  0
  197.6659  185.8689  154.8713 H   0  0  0  0  0  0  0  0  0  0  0  0
  196.3936  182.9587  156.0184 H   0  0  0  0  0  0  0  0  0  0  0  0
  197.4800  183.4100  160.1554 H   0  0  0  0  0  0  0  0  0  0  0  0
  199.1146  185.1739  159.5438 H   0  0  0  0  0  0  0  0  0  0  0  0
  199.4077  185.8386  157.1725 H   0  0  0  0  0  0  0  0  0  0  0  0
  196.1068  181.1064  157.9222 H   0  0  0  0  0  0  0  0  0  0  0  0
  195.8924  181.7445  159.5303 H   0  0  0  0  0  0  0  0  0  0  0  0
  193.9915  183.4568  159.9260 H   0  0  0  0  0  0  0  0  0  0  0  0
  192.9384  183.8453  158.5577 H   0  0  0  0  0  0  0  0  0  0  0  0
  194.5808  184.4661  158.6087 H   0  0  0  0  0  0  0  0  0  0  0  0
  193.4278  180.9282  159.3297 H   0  0  0  0  0  0  0  0  0  0  0  0
  193.7935  180.4104  157.6825 H   0  0  0  0  0  0  0  0  0  0  0  0
  192.4872  181.5383  157.9527 H   0  0  0  0  0  0  0  0  0  0  0  0
  198.2563  186.3984  152.8009 H   0  0  0  0  0  0  0  0  0  0  0  0
  196.9044  183.0188  149.4785 H   0  0  0  0  0  0  0  0  0  0  0  0
  197.5032  184.5770  147.7724 H   0  0  0  0  0  0  0  0  0  0  0  0
  198.6267  185.8598  148.2059 H   0  0  0  0  0  0  0  0  0  0  0  0
  196.8635  186.1485  148.2524 H   0  0  0  0  0  0  0  0  0  0  0  0
  194.3745  182.6133  157.1389 H   0  0  0  0  0  0  0  0  0  0  0  0
  198.2594  186.8161  150.5511 H   0  0  0  0  0  0  0  0  0  0  0  0
  1  2  1  0
  2  3  1  0
  2  7  2  0
  3  4  2  0
  3 31  1  0
  4  5  1  0
  4 32  1  0
  5  6  2  0
  5  8  1  0
  6  7  1  0
  6 33  1  0
  7 34  1  0
  8  9  1  0
  8 35  1  6
  8 36  1  0
  9 10  2  0
  9 11  1  0
 11 12  1  0
 11 37  1  0
 12 13  1  0
 12 29  2  0
 13 14  1  0
 13 26  2  0
 14 15  1  0
 14 38  1  0
 15 16  1  0
 15 39  1  6
 15 40  1  0
 16 17  2  0
 16 21  1  0
 17 18  1  0
 17 41  1  0
 18 19  2  0
 18 22  1  0
 19 20  1  0
 19 42  1  0
 20 21  2  0
 20 43  1  0
 21 44  1  0
 22 23  1  0
 22 45  1  6
 22 46  1  0
 23 24  1  0
 23 25  1  0
 23 58  1  6
 24 47  1  1
 24 48  1  0
 24 49  1  0
 25 50  1  1
 25 51  1  0
 25 52  1  0
 26 27  1  0
 26 53  1  0
 27 28  2  0
 27 59  1  0
 28 29  1  0
 28 30  1  0
 29 54  1  0
 30 55  1  6
 30 56  1  0
 30 57  1  0
M  CHG  2  23   1  27   1
M  END
>  <s_epik_cmdline>  (1356) 
J2VwaWtfcHl0aG9uJywgJy1waCcsICc3LjAwMDAwMCcsICctcGh0JywgJzIuMDAwMDAwJywgJy1tcycsICcxNicsICctdG4nLCAnOCcsICctbWEnLCAnMjAwJywgJy1pbWFlJywgJzxpbmZpbGUubWFlPicsICctb21hZScsICc8b3V0ZmlsZS5tYWU+Jw==

>  <s_epik_input>  (1356) 
RmMxW2NIXVtjSF1jKFtjSF1bY0hdMSlbQ0gyXUMoPU8pW05IXWMyYyhbY0hdbmMoW2NIXTIpW0NIM10pW05IXVtDSDJdYzNbY0hdYyhbY0hdW2NIXVtjSF0zKVtDSDJdTihbQ0gzXSlbQ0gzXQ==

>  <s_i_glide_gridfile>  (1356) 
ATP-Grid

>  <s_lp_Force_Field>  (1356) 
OPLS_2005

>  <s_lp_Variant>  (1356) 
rxn502a____EMOL512495____EMOL44391168____EMOL2873214-2

>  <s_lp_label>  (1356) 
3024_sdstereoexpander_1_neutralizer_1_epik_2_stereoizer_1

>  <s_m_source_file>  (1356) 
ATP-VSW-LIGPREP-001-in.maegz

>  <s_sd_BIOSOLVEIT.INFINISEE\_QUERY\_NAME>  (1356) 
Ref-Lig

>  <s_sd_BIOSOLVEIT.INFINISEE\_QUERY\_SMILES>  (1356) 
S(c1nc2c(cc1C[NH2+]Cc3ccc(cc3)C[NH+](C)C)cccc2)Cc4ccccc4

>  <s_sd_BIOSOLVEIT.INFINISEE\_REACTION\_NAME>  (1356) 
rxn502a

>  <s_sd_BIOSOLVEIT.INFINISEE\_REAGENT1\_NAME>  (1356) 
EMOL512495

>  <s_sd_BIOSOLVEIT.INFINISEE\_REAGENT1\_SMILES>  (1356) 
Fc1ccc(cc1)CC(=O)O

>  <s_sd_BIOSOLVEIT.INFINISEE\_REAGENT2\_NAME>  (1356) 
EMOL44391168

>  <s_sd_BIOSOLVEIT.INFINISEE\_REAGENT2\_SMILES>  (1356) 
Ic1c(N)cc(nc1)C

>  <s_sd_BIOSOLVEIT.INFINISEE\_REAGENT3\_NAME>  (1356) 
EMOL2873214

>  <s_sd_BIOSOLVEIT.INFINISEE\_REAGENT3\_SMILES>  (1356) 
N(Cc1cc(ccc1)CN)(C)C

>  <s_sd_BIOSOLVEIT.INFINISEE\_SPACE>  (1356) 
eXplore_7tr_2022-12

>  <s_vsw_compound_code>  (1356) 
96737

>  <s_vsw_variant>  (1356) 
96737-2

>  <r_epik_Charging_Adjusted_Penalty>  (1356) 
1.88005194077895

>  <r_epik_Ionization_Penalty>  (1356) 
0.93999999999999995

>  <r_epik_Ionization_Penalty_Charging>  (1356) 
0.93999999999999995

>  <r_epik_Ionization_Penalty_Neutral>  (1356) 
0

>  <r_epik_State_Penalty>  (1356) 
0.93999999999999995

>  <r_i_docking_score>  (1356) 
-4.1168138938640499

>  <r_i_glide_ecoul>  (1356) 
-12.8720541000366

>  <r_i_glide_eff_state_penalty>  (1356) 
0.93999999999999995

>  <r_i_glide_einternal>  (1356) 
3.0169913768768302

>  <r_i_glide_emodel>  (1356) 
-69.129002016005899

>  <r_i_glide_energy>  (1356) 
-48.2996473312378

>  <r_i_glide_erotb>  (1356) 
0.82557920657044503

>  <r_i_glide_esite>  (1356) 
-0.16425639064671799

>  <r_i_glide_evdw>  (1356) 
-35.4275932312012

>  <r_i_glide_gscore>  (1356) 
-5.0568138938640503

>  <r_i_glide_hbond>  (1356) 
-0.20000000000000001

>  <r_i_glide_ligand_efficiency>  (1356) 
-0.137227129795468

>  <r_i_glide_ligand_efficiency_ln>  (1356) 
-0.93538497296599299

>  <r_i_glide_ligand_efficiency_sa>  (1356) 
-0.42639659791580897

>  <r_i_glide_lipo>  (1356) 
-1.04295762720508

>  <r_i_glide_metal>  (1356) 
-0

>  <r_i_glide_rewards>  (1356) 
-0.77299130601714905

>  <r_lp_Energy>  (1356) 
30.125899

>  <r_lp_tautomer_probability>  (1356) 
0.99984579293731701

>  <r_qp_ACxDN^.5/SA>  (1356) 
0.011908

>  <r_qp_CIQPlogS>  (1356) 
-4.8639999999999999

>  <r_qp_EA(eV)>  (1356) 
0.439

>  <r_qp_FISA>  (1356) 
63.527999999999999

>  <r_qp_FOSA>  (1356) 
352.59300000000002

>  <r_qp_IP(eV)>  (1356) 
8.3610000000000007

>  <r_qp_Jm>  (1356) 
0.0015837189243579099

>  <r_qp_PISA>  (1356) 
308.81200000000001

>  <r_qp_PSA>  (1356) 
63.756999999999998

>  <r_qp_PercentHumanOralAbsorption>  (1356) 
100

>  <r_qp_QPPCaco>  (1356) 
617.11599999999999

>  <r_qp_QPPMDCK>  (1356) 
587.75400000000002

>  <r_qp_QPlogBB>  (1356) 
-0.108

>  <r_qp_QPlogHERG>  (1356) 
-7.3559999999999999

>  <r_qp_QPlogKhsa>  (1356) 
0.68799999999999994

>  <r_qp_QPlogKp>  (1356) 
-2.8969999999999998

>  <r_qp_QPlogPC16>  (1356) 
13.949999999999999

>  <r_qp_QPlogPo/w>  (1356) 
4.6260000000000003

>  <r_qp_QPlogPoct>  (1356) 
21.998000000000001

>  <r_qp_QPlogPw>  (1356) 
11.693

>  <r_qp_QPlogS>  (1356) 
-5.5119999999999996

>  <r_qp_QPpolrz>  (1356) 
46.828000000000003

>  <r_qp_SASA>  (1356) 
771.94899999999996

>  <r_qp_SAamideO>  (1356) 
0

>  <r_qp_SAfluorine>  (1356) 
47.015999999999998

>  <r_qp_WPSA>  (1356) 
47.015999999999998

>  <r_qp_accptHB>  (1356) 
6.5

>  <r_qp_dip^2/V>  (1356) 
0.0199709

>  <r_qp_dipole>  (1356) 
5.2469999999999999

>  <r_qp_donorHB>  (1356) 
2

>  <r_qp_glob>  (1356) 
0.77599490000000004

>  <r_qp_mol_MW>  (1356) 
406.50200000000001

>  <r_qp_volume>  (1356) 
1378.5530000000001

>  <r_sd_BIOSOLVEIT.INFINISEE\_FTREES\_SIMILARITY>  (1356) 
0.90200000000000002

>  <r_sd_BIOSOLVEIT.LOGP>  (1356) 
2.96692

>  <r_sd_BIOSOLVEIT.MOLECULAR\_WEIGHT>  (1356) 
407.50999999999999

>  <r_sd_BIOSOLVEIT.TPSA>  (1356) 
58.460000000000001

>  <i_epik_Tot_Q>  (1356) 
2

>  <i_epik_Tot_abs_Q>  (1356) 
2

>  <i_f3d_flags>  (1356) 
0

>  <i_i_glide_confnum>  (1356) 
1

>  <i_i_glide_lignum>  (1356) 
6

>  <i_i_glide_posenum>  (1356) 
18

>  <i_i_glide_rotatable_bonds>  (1356) 
9

>  <i_lp_mmshare_version>  (1356) 
65135

>  <i_m_ct_format>  (1356) 
2

>  <i_m_source_file_index>  (1356) 
3024

>  <i_qp_#NandO>  (1356) 
5

>  <i_qp_#acid>  (1356) 
0

>  <i_qp_#amide>  (1356) 
0

>  <i_qp_#amidine>  (1356) 
0

>  <i_qp_#amine>  (1356) 
1

>  <i_qp_#in34>  (1356) 
0

>  <i_qp_#in56>  (1356) 
18

>  <i_qp_#metab>  (1356) 
8

>  <i_qp_#nonHatm>  (1356) 
30

>  <i_qp_#noncon>  (1356) 
0

>  <i_qp_#ringatoms>  (1356) 
18

>  <i_qp_#rotor>  (1356) 
8

>  <i_qp_#rtvFG>  (1356) 
0

>  <i_qp_#stars>  (1356) 
0

>  <i_qp_CNS>  (1356) 
1

>  <i_qp_HumanOralAbsorption>  (1356) 
3

>  <i_qp_RuleOfFive>  (1356) 
0

>  <i_qp_RuleOfThree>  (1356) 
1

>  <i_sd_BIOSOLVEIT.INFINISEE\_RESULT\_RANK>  (1356) 
88668

>  <i_sd_version>  (1356) 
0

>  <b_lp_Chiralities_Consistent>  (1356) 
1

>  <b_sd_chiral_flag>  (1356) 
0

>  <canonical_id>  (1356) 
ATP-HTVS-D5ACD41550DD

>  <compound_code>  (1356) 
96737

>  <title>  (1356) 
rxn502a____EMOL512495____EMOL44391168____EMOL2873214

>  <variant>  (1356) 
96737-2

>  <source_file>  (1356) 
运行/运行/ATP-VSW/ATP-VSW-DOCK_HTVS_1-002_lib.maegz

>  <canonical_smiles>  (1356) 
Cc1cc(NC(=O)Cc2ccc(F)cc2)c(NCc2cccc(C[NH+](C)C)c2)c[nH+]1

>  <scaffold>  (1356) 
O=C(Cc1ccccc1)Nc1cc[nH+]cc1NCc1ccccc1

>  <molecular_formula>  (1356) 
C24H29FN4O+2

$$$$
ATP-HTVS-D5ACDDA463EA
     RDKit          3D

 68 71  0  0  0  0  0  0  0  0999 V2000
  199.7232  181.8392  145.2988 F   0  0  0  0  0  0  0  0  0  0  0  0
  199.1408  182.5415  146.3014 C   0  0  0  0  0  0  0  0  0  0  0  0
  199.0354  181.9677  147.5856 C   0  0  0  0  0  0  0  0  0  0  0  0
  198.4539  182.6780  148.6696 C   0  0  0  0  0  0  0  0  0  0  0  0
  197.9218  183.9713  148.4150 C   0  0  0  0  0  0  0  0  0  0  0  0
  197.3481  184.7237  149.3744 N   0  0  0  0  0  0  0  0  0  0  0  0
  197.2836  184.2419  150.6196 C   0  0  0  0  0  0  0  0  0  0  0  0
  197.7633  182.9707  150.9905 C   0  0  0  0  0  0  0  0  0  0  0  0
  198.3548  182.1353  149.9937 C   0  0  0  0  0  0  0  0  0  0  0  0
  198.8841  180.8593  150.3196 N   0  0  0  0  0  0  0  0  0  0  0  0
  197.9697  179.7366  150.6171 C   0  0  1  0  0  0  0  0  0  0  0  0
  196.8765  179.5605  149.6363 C   0  0  0  0  0  0  0  0  0  0  0  0
  195.9827  179.4404  148.9186 N   0  0  0  0  0  0  0  0  0  0  0  0
  198.6725  178.4299  150.9482 C   0  0  0  0  0  0  0  0  0  0  0  0
  198.6424  177.3517  150.0404 C   0  0  0  0  0  0  0  0  0  0  0  0
  199.2724  176.1447  150.3622 C   0  0  0  0  0  0  0  0  0  0  0  0
  199.9574  176.0126  151.5871 C   0  0  0  0  0  0  0  0  0  0  0  0
  199.9962  177.0825  152.5063 C   0  0  0  0  0  0  0  0  0  0  0  0
  199.3530  178.2911  152.1882 C   0  0  0  0  0  0  0  0  0  0  0  0
  200.3055  180.6140  150.0045 C   0  0  2  0  0  0  0  0  0  0  0  0
  197.5985  182.6109  152.4323 C   0  0  0  0  0  0  0  0  0  0  0  0
  196.9483  181.6055  152.7428 O   0  0  0  0  0  0  0  0  0  0  0  0
  198.1492  183.4554  153.3187 N   0  0  0  0  0  0  0  0  0  0  0  0
  198.1829  183.3139  154.7248 C   0  0  0  0  0  0  0  0  0  0  0  0
  197.1385  182.6667  155.4401 C   0  0  0  0  0  0  0  0  0  0  0  0
  197.2391  182.4924  156.8310 C   0  0  0  0  0  0  0  0  0  0  0  0
  198.3873  182.9551  157.5128 C   0  0  0  0  0  0  0  0  0  0  0  0
  199.3820  183.6671  156.8072 C   0  0  0  0  0  0  0  0  0  0  0  0
  199.2886  183.8369  155.4094 C   0  0  0  0  0  0  0  0  0  0  0  0
  196.0775  181.8299  157.5854 C   0  0  1  0  0  0  0  0  0  0  0  0
  194.9858  182.7889  157.9696 N   0  0  1  0  0  0  0  0  0  0  0  0
  193.9337  182.1609  158.8119 C   0  0  1  0  0  0  0  0  0  0  0  0
  193.1091  181.0659  158.1106 C   0  0  2  0  0  0  0  0  0  0  0  0
  195.4355  184.0911  158.5363 C   0  0  1  0  0  0  0  0  0  0  0  0
  196.1458  183.9478  159.9100 C   0  0  2  0  0  0  0  0  0  0  0  0
  197.9979  184.5197  147.1096 C   0  0  0  0  0  0  0  0  0  0  0  0
  198.6104  183.8120  146.0535 C   0  0  0  0  0  0  0  0  0  0  0  0
  199.4086  180.9655  147.6653 H   0  0  0  0  0  0  0  0  0  0  0  0
  196.8473  184.8967  151.3557 H   0  0  0  0  0  0  0  0  0  0  0  0
  197.4165  179.8655  151.5332 H   0  0  0  0  0  0  0  0  0  0  0  0
  198.1221  177.4435  149.1100 H   0  0  0  0  0  0  0  0  0  0  0  0
  199.2384  175.3342  149.6528 H   0  0  0  0  0  0  0  0  0  0  0  0
  200.4714  175.0837  151.8143 H   0  0  0  0  0  0  0  0  0  0  0  0
  200.5205  176.9750  153.4464 H   0  0  0  0  0  0  0  0  0  0  0  0
  199.3629  179.1102  152.9021 H   0  0  0  0  0  0  0  0  0  0  0  0
  200.8118  181.5001  149.6299 H   0  0  0  0  0  0  0  0  0  0  0  0
  200.3900  179.8318  149.2524 H   0  0  0  0  0  0  0  0  0  0  0  0
  200.8487  180.2728  150.8789 H   0  0  0  0  0  0  0  0  0  0  0  0
  198.7039  184.2465  152.9617 H   0  0  0  0  0  0  0  0  0  0  0  0
  196.2529  182.2852  154.9614 H   0  0  0  0  0  0  0  0  0  0  0  0
  198.5312  182.8138  158.5816 H   0  0  0  0  0  0  0  0  0  0  0  0
  200.2127  184.0843  157.3597 H   0  0  0  0  0  0  0  0  0  0  0  0
  200.0961  184.3244  154.8842 H   0  0  0  0  0  0  0  0  0  0  0  0
  195.6520  181.0658  156.9398 H   0  0  0  0  0  0  0  0  0  0  0  0
  196.4664  181.3432  158.4744 H   0  0  0  0  0  0  0  0  0  0  0  0
  194.3768  181.7373  159.7117 H   0  0  0  0  0  0  0  0  0  0  0  0
  193.2505  182.9599  159.1106 H   0  0  0  0  0  0  0  0  0  0  0  0
  192.3487  180.6473  158.7760 H   0  0  0  0  0  0  0  0  0  0  0  0
  193.7463  180.2351  157.8211 H   0  0  0  0  0  0  0  0  0  0  0  0
  192.6128  181.4334  157.2132 H   0  0  0  0  0  0  0  0  0  0  0  0
  196.0751  184.6023  157.8189 H   0  0  0  0  0  0  0  0  0  0  0  0
  194.5762  184.7477  158.6157 H   0  0  0  0  0  0  0  0  0  0  0  0
  196.5127  184.9183  160.2560 H   0  0  0  0  0  0  0  0  0  0  0  0
  196.9904  183.2556  159.9016 H   0  0  0  0  0  0  0  0  0  0  0  0
  195.4538  183.5813  160.6650 H   0  0  0  0  0  0  0  0  0  0  0  0
  197.5767  185.4978  146.9107 H   0  0  0  0  0  0  0  0  0  0  0  0
  198.6553  184.2256  145.0493 H   0  0  0  0  0  0  0  0  0  0  0  0
  194.5036  182.9853  157.0916 H   0  0  0  0  0  0  0  0  0  0  0  0
  1  2  1  0
  2  3  1  0
  2 37  2  0
  3  4  2  0
  3 38  1  0
  4  5  1  0
  4  9  1  0
  5  6  1  0
  5 36  2  0
  6  7  2  0
  7  8  1  0
  7 39  1  0
  8  9  2  0
  8 21  1  0
  9 10  1  0
 10 11  1  0
 10 20  1  0
 11 12  1  0
 11 14  1  0
 11 40  1  1
 12 13  3  0
 14 15  2  0
 14 19  1  0
 15 16  1  0
 15 41  1  0
 16 17  2  0
 16 42  1  0
 17 18  1  0
 17 43  1  0
 18 19  2  0
 18 44  1  0
 19 45  1  0
 20 46  1  6
 20 47  1  0
 20 48  1  0
 21 22  2  0
 21 23  1  0
 23 24  1  0
 23 49  1  0
 24 25  2  0
 24 29  1  0
 25 26  1  0
 25 50  1  0
 26 27  2  0
 26 30  1  0
 27 28  1  0
 27 51  1  0
 28 29  2  0
 28 52  1  0
 29 53  1  0
 30 31  1  0
 30 54  1  6
 30 55  1  0
 31 32  1  0
 31 34  1  0
 31 68  1  6
 32 33  1  0
 32 56  1  1
 32 57  1  0
 33 58  1  1
 33 59  1  0
 33 60  1  0
 34 35  1  0
 34 61  1  6
 34 62  1  0
 35 63  1  1
 35 64  1  0
 35 65  1  0
 36 37  1  0
 36 66  1  0
 37 67  1  0
M  CHG  1  31   1
M  END
>  <s_epik_cmdline>  (1357) 
J2VwaWtfcHl0aG9uJywgJy1waCcsICc3LjAwMDAwMCcsICctcGh0JywgJzIuMDAwMDAwJywgJy1tcycsICcxNicsICctdG4nLCAnOCcsICctbWEnLCAnMjAwJywgJy1pbWFlJywgJzxpbmZpbGUubWFlPicsICctb21hZScsICc8b3V0ZmlsZS5tYWU+Jw==

>  <s_epik_input>  (1357) 
W0NIM11bQ0gyXU4oW0NIMl1bQ0gzXSlbQ0gyXWMoW2NIXVtjSF1bY0hdMSlbY0hdYzFbTkhdQyg9TyljKFtjSF1uYyhjMjMpW2NIXVtjSF1jKEYpW2NIXTIpYzNOKFtDSDNdKVtDQEBIXShDI04pYzRbY0hdW2NIXVtjSF1bY0hdW2NIXTQ=

>  <s_i_glide_gridfile>  (1357) 
ATP-Grid

>  <s_lp_Force_Field>  (1357) 
OPLS_2005

>  <s_lp_Variant>  (1357) 
rxn512c____EMOL24630243____EMOL36725275____EMOL331034537-1

>  <s_lp_label>  (1357) 
2368_sdstereoexpander_1_neutralizer_1_epik_1_stereoizer_1

>  <s_m_source_file>  (1357) 
ATP-VSW-LIGPREP-001-in.maegz

>  <s_sd_BIOSOLVEIT.INFINISEE\_QUERY\_NAME>  (1357) 
Ref-Lig

>  <s_sd_BIOSOLVEIT.INFINISEE\_QUERY\_SMILES>  (1357) 
S(c1nc2c(cc1C[NH2+]Cc3ccc(cc3)C[NH+](C)C)cccc2)Cc4ccccc4

>  <s_sd_BIOSOLVEIT.INFINISEE\_REACTION\_NAME>  (1357) 
rxn512c

>  <s_sd_BIOSOLVEIT.INFINISEE\_REAGENT1\_NAME>  (1357) 
EMOL24630243

>  <s_sd_BIOSOLVEIT.INFINISEE\_REAGENT1\_SMILES>  (1357) 
N#CC(NC)c1ccccc1

>  <s_sd_BIOSOLVEIT.INFINISEE\_REAGENT2\_NAME>  (1357) 
EMOL36725275

>  <s_sd_BIOSOLVEIT.INFINISEE\_REAGENT2\_SMILES>  (1357) 
Clc1c2c(ncc1C(=O)O)ccc(F)c2

>  <s_sd_BIOSOLVEIT.INFINISEE\_REAGENT3\_NAME>  (1357) 
EMOL331034537

>  <s_sd_BIOSOLVEIT.INFINISEE\_REAGENT3\_SMILES>  (1357) 
N(Cc1cc(N)ccc1)(CC)CC

>  <s_sd_BIOSOLVEIT.INFINISEE\_SPACE>  (1357) 
eXplore_7tr_2022-12

>  <s_vsw_compound_code>  (1357) 
75745

>  <s_vsw_variant>  (1357) 
75745-1

>  <r_epik_Charging_Adjusted_Penalty>  (1357) 
0.23151912135224201

>  <r_epik_Ionization_Penalty>  (1357) 
0.2122

>  <r_epik_Ionization_Penalty_Charging>  (1357) 
0.020299999999999999

>  <r_epik_Ionization_Penalty_Neutral>  (1357) 
0.192

>  <r_epik_State_Penalty>  (1357) 
0.2112

>  <r_i_docking_score>  (1357) 
-4.0544738476562596

>  <r_i_glide_ecoul>  (1357) 
-7.1980576515197798

>  <r_i_glide_eff_state_penalty>  (1357) 
0.2112

>  <r_i_glide_einternal>  (1357) 
6.2479734420776403

>  <r_i_glide_emodel>  (1357) 
-56.668978379612199

>  <r_i_glide_energy>  (1357) 
-43.4480271339417

>  <r_i_glide_erotb>  (1357) 
0.66155903066168598

>  <r_i_glide_esite>  (1357) 
-0.099377468488733203

>  <r_i_glide_evdw>  (1357) 
-36.249969482421903

>  <r_i_glide_gscore>  (1357) 
-4.2656738476562603

>  <r_i_glide_hbond>  (1357) 
-0.20000000000000001

>  <r_i_glide_ligand_efficiency>  (1357) 
-0.10958037426098

>  <r_i_glide_ligand_efficiency_ln>  (1357) 
-0.87932032720381703

>  <r_i_glide_ligand_efficiency_sa>  (1357) 
-0.36514611718447498

>  <r_i_glide_lipo>  (1357) 
-1.5124354572548599

>  <r_i_glide_metal>  (1357) 
-0

>  <r_i_glide_rewards>  (1357) 
-0.22321283072529899

>  <r_lp_Energy>  (1357) 
45.761240999999998

>  <r_qp_ACxDN^.5/SA>  (1357) 
0.010089600000000001

>  <r_qp_CIQPlogS>  (1357) 
-7.3479999999999999

>  <r_qp_EA(eV)>  (1357) 
1.5620000000000001

>  <r_qp_FISA>  (1357) 
101.795

>  <r_qp_FOSA>  (1357) 
285.78800000000001

>  <r_qp_IP(eV)>  (1357) 
9.0220000000000002

>  <r_qp_Jm>  (1357) 
0.000283916662571444

>  <r_qp_PISA>  (1357) 
359.84399999999999

>  <r_qp_PSA>  (1357) 
72.429000000000002

>  <r_qp_PercentHumanOralAbsorption>  (1357) 
100

>  <r_qp_QPPCaco>  (1357) 
267.59500000000003

>  <r_qp_QPPMDCK>  (1357) 
233.60900000000001

>  <r_qp_QPlogBB>  (1357) 
-0.56499999999999995

>  <r_qp_QPlogHERG>  (1357) 
-7.0579999999999998

>  <r_qp_QPlogKhsa>  (1357) 
0.74399999999999999

>  <r_qp_QPlogKp>  (1357) 
-3.23

>  <r_qp_QPlogPC16>  (1357) 
15.565

>  <r_qp_QPlogPo/w>  (1357) 
4.883

>  <r_qp_QPlogPoct>  (1357) 
23.614999999999998

>  <r_qp_QPlogPw>  (1357) 
11.922000000000001

>  <r_qp_QPlogS>  (1357) 
-6.0110000000000001

>  <r_qp_QPpolrz>  (1357) 
52.039999999999999

>  <r_qp_SASA>  (1357) 
792.89800000000002

>  <r_qp_SAamideO>  (1357) 
0

>  <r_qp_SAfluorine>  (1357) 
45.470999999999997

>  <r_qp_WPSA>  (1357) 
45.470999999999997

>  <r_qp_accptHB>  (1357) 
8

>  <r_qp_dip^2/V>  (1357) 
0.0213467

>  <r_qp_dipole>  (1357) 
5.7130000000000001

>  <r_qp_donorHB>  (1357) 
1

>  <r_qp_glob>  (1357) 
0.80940100000000004

>  <r_qp_mol_MW>  (1357) 
495.59800000000001

>  <r_qp_volume>  (1357) 
1528.7059999999999

>  <r_sd_BIOSOLVEIT.INFINISEE\_FTREES\_SIMILARITY>  (1357) 
0.92000000000000004

>  <r_sd_BIOSOLVEIT.LOGP>  (1357) 
4.7519799999999996

>  <r_sd_BIOSOLVEIT.MOLECULAR\_WEIGHT>  (1357) 
496.60700000000003

>  <r_sd_BIOSOLVEIT.TPSA>  (1357) 
73.459999999999994

>  <i_epik_Tot_Q>  (1357) 
1

>  <i_epik_Tot_abs_Q>  (1357) 
1

>  <i_f3d_flags>  (1357) 
0

>  <i_i_glide_confnum>  (1357) 
9

>  <i_i_glide_lignum>  (1357) 
875

>  <i_i_glide_posenum>  (1357) 
19

>  <i_i_glide_rotatable_bonds>  (1357) 
10

>  <i_lp_mmshare_version>  (1357) 
65135

>  <i_m_ct_format>  (1357) 
2

>  <i_m_source_file_index>  (1357) 
2368

>  <i_qp_#NandO>  (1357) 
6

>  <i_qp_#acid>  (1357) 
0

>  <i_qp_#amide>  (1357) 
0

>  <i_qp_#amidine>  (1357) 
0

>  <i_qp_#amine>  (1357) 
1

>  <i_qp_#in34>  (1357) 
0

>  <i_qp_#in56>  (1357) 
22

>  <i_qp_#metab>  (1357) 
7

>  <i_qp_#nonHatm>  (1357) 
37

>  <i_qp_#noncon>  (1357) 
0

>  <i_qp_#ringatoms>  (1357) 
22

>  <i_qp_#rotor>  (1357) 
10

>  <i_qp_#rtvFG>  (1357) 
0

>  <i_qp_#stars>  (1357) 
0

>  <i_qp_CNS>  (1357) 
1

>  <i_qp_HumanOralAbsorption>  (1357) 
3

>  <i_qp_RuleOfFive>  (1357) 
0

>  <i_qp_RuleOfThree>  (1357) 
2

>  <i_sd_BIOSOLVEIT.INFINISEE\_RESULT\_RANK>  (1357) 
17563

>  <i_sd_version>  (1357) 
0

>  <b_lp_Chiralities_Consistent>  (1357) 
1

>  <b_sd_chiral_flag>  (1357) 
0

>  <canonical_id>  (1357) 
ATP-HTVS-D5ACDDA463EA

>  <compound_code>  (1357) 
75745

>  <title>  (1357) 
rxn512c____EMOL24630243____EMOL36725275____EMOL331034537

>  <variant>  (1357) 
75745-1

>  <source_file>  (1357) 
运行/运行/ATP-VSW/ATP-VSW-DOCK_HTVS_1-001_lib/ATP-VSW-DOCK_HTVS_1-001_lib

>  <canonical_smiles>  (1357) 
CC[NH+](CC)Cc1cccc(NC(=O)c2cnc3ccc(F)cc3c2N(C)[C@@H](C#N)c2ccccc2)c1

>  <scaffold>  (1357) 
O=C(Nc1ccccc1)c1cnc2ccccc2c1NCc1ccccc1

>  <molecular_formula>  (1357) 
C30H31FN5O+

$$$$
ATP-HTVS-D6043925B579
     RDKit          3D

 55 58  0  0  0  0  0  0  0  0999 V2000
  193.1737  183.8352  159.2803 F   0  0  0  0  0  0  0  0  0  0  0  0
  194.3847  184.3889  159.5336 C   0  0  0  0  0  0  0  0  0  0  0  0
  195.5654  183.7997  159.0135 C   0  0  0  0  0  0  0  0  0  0  0  0
  196.8096  184.4244  159.2768 C   0  0  0  0  0  0  0  0  0  0  0  0
  196.8690  185.6197  160.0201 C   0  0  0  0  0  0  0  0  0  0  0  0
  195.6951  186.1896  160.5389 C   0  0  0  0  0  0  0  0  0  0  0  0
  195.7565  187.3192  161.2825 F   0  0  0  0  0  0  0  0  0  0  0  0
  194.4594  185.5650  160.3094 C   0  0  0  0  0  0  0  0  0  0  0  0
  195.4678  182.5161  158.1729 C   0  0  2  0  0  0  0  0  0  0  0  0
  194.9741  181.4382  158.9415 O   0  0  0  0  0  0  0  0  0  0  0  0
  196.8276  182.1000  157.5785 C   0  0  1  0  0  0  0  0  0  0  0  0
  196.7228  181.0797  156.5247 N   0  0  1  0  0  0  0  0  0  0  0  0
  198.0214  180.8118  155.8694 C   0  0  1  0  0  0  0  0  0  0  0  0
  197.8018  180.2503  154.5001 C   0  0  0  0  0  0  0  0  0  0  0  0
  198.4626  179.1767  153.8274 C   0  0  0  0  0  0  0  0  0  0  0  0
  198.0374  179.0457  152.5733 N   0  0  0  0  0  0  0  0  0  0  0  0
  197.1147  180.0164  152.4025 N   0  0  0  0  0  0  0  0  0  0  0  0
  196.9321  180.7411  153.5568 C   0  0  0  0  0  0  0  0  0  0  0  0
  196.4821  180.2130  151.1039 C   0  0  1  0  0  0  0  0  0  0  0  0
  196.9373  181.5242  150.4857 C   0  0  0  0  0  0  0  0  0  0  0  0
  196.3627  182.7460  150.8997 C   0  0  0  0  0  0  0  0  0  0  0  0
  196.7862  183.9585  150.3217 C   0  0  0  0  0  0  0  0  0  0  0  0
  197.7858  183.9581  149.3313 C   0  0  0  0  0  0  0  0  0  0  0  0
  198.3671  182.7438  148.9199 C   0  0  0  0  0  0  0  0  0  0  0  0
  197.9464  181.5292  149.4977 C   0  0  0  0  0  0  0  0  0  0  0  0
  199.5079  178.2550  154.3127 C   0  0  0  0  0  0  0  0  0  0  0  0
  200.4792  177.7388  153.4176 C   0  0  0  0  0  0  0  0  0  0  0  0
  201.4806  176.8516  153.8757 C   0  0  0  0  0  0  0  0  0  0  0  0
  201.5364  176.4968  155.2383 C   0  0  0  0  0  0  0  0  0  0  0  0
  200.5716  177.0019  156.1313 C   0  0  0  0  0  0  0  0  0  0  0  0
  199.5455  177.8527  155.6671 C   0  0  0  0  0  0  0  0  0  0  0  0
  196.3354  180.2183  156.9111 H   0  0  0  0  0  0  0  0  0  0  0  0
  197.7516  184.0313  158.9216 H   0  0  0  0  0  0  0  0  0  0  0  0
  197.8258  186.0869  160.1867 H   0  0  0  0  0  0  0  0  0  0  0  0
  193.5562  186.0039  160.7002 H   0  0  0  0  0  0  0  0  0  0  0  0
  194.7700  182.7129  157.3534 H   0  0  0  0  0  0  0  0  0  0  0  0
  195.1232  180.5979  158.5231 H   0  0  0  0  0  0  0  0  0  0  0  0
  197.2931  182.9623  157.0967 H   0  0  0  0  0  0  0  0  0  0  0  0
  197.5012  181.7489  158.3619 H   0  0  0  0  0  0  0  0  0  0  0  0
  198.6042  181.7345  155.7767 H   0  0  0  0  0  0  0  0  0  0  0  0
  198.5841  180.1532  156.5535 H   0  0  0  0  0  0  0  0  0  0  0  0
  196.2298  181.5604  153.5889 H   0  0  0  0  0  0  0  0  0  0  0  0
  196.7236  179.3750  150.4470 H   0  0  0  0  0  0  0  0  0  0  0  0
  195.4021  180.2197  151.2338 H   0  0  0  0  0  0  0  0  0  0  0  0
  195.6015  182.7637  151.6660 H   0  0  0  0  0  0  0  0  0  0  0  0
  196.3474  184.8909  150.6404 H   0  0  0  0  0  0  0  0  0  0  0  0
  198.1063  184.8889  148.8877 H   0  0  0  0  0  0  0  0  0  0  0  0
  199.1373  182.7430  148.1618 H   0  0  0  0  0  0  0  0  0  0  0  0
  198.4046  180.6029  149.1801 H   0  0  0  0  0  0  0  0  0  0  0  0
  200.4522  177.9971  152.3665 H   0  0  0  0  0  0  0  0  0  0  0  0
  202.2017  176.4438  153.1752 H   0  0  0  0  0  0  0  0  0  0  0  0
  202.3041  175.8211  155.5951 H   0  0  0  0  0  0  0  0  0  0  0  0
  200.6007  176.7302  157.1730 H   0  0  0  0  0  0  0  0  0  0  0  0
  198.7834  178.1812  156.3672 H   0  0  0  0  0  0  0  0  0  0  0  0
  196.0670  181.4474  155.8456 H   0  0  0  0  0  0  0  0  0  0  0  0
  1  2  1  0
  2  3  2  0
  2  8  1  0
  3  4  1  0
  3  9  1  0
  4  5  2  0
  4 33  1  0
  5  6  1  0
  5 34  1  0
  6  7  1  0
  6  8  2  0
  8 35  1  0
  9 10  1  0
  9 11  1  0
  9 36  1  6
 10 37  1  0
 11 12  1  0
 11 38  1  6
 11 39  1  0
 12 13  1  0
 12 32  1  1
 12 55  1  0
 13 14  1  0
 13 40  1  6
 13 41  1  0
 14 15  1  0
 14 18  2  0
 15 16  2  0
 15 26  1  0
 16 17  1  0
 17 18  1  0
 17 19  1  0
 18 42  1  0
 19 20  1  0
 19 43  1  6
 19 44  1  0
 20 21  2  0
 20 25  1  0
 21 22  1  0
 21 45  1  0
 22 23  2  0
 22 46  1  0
 23 24  1  0
 23 47  1  0
 24 25  2  0
 24 48  1  0
 25 49  1  0
 26 27  2  0
 26 31  1  0
 27 28  1  0
 27 50  1  0
 28 29  2  0
 28 51  1  0
 29 30  1  0
 29 52  1  0
 30 31  2  0
 30 53  1  0
 31 54  1  0
M  CHG  1  12   1
M  END
>  <s_epik_cmdline>  (1358) 
J2VwaWtfcHl0aG9uJywgJy1waCcsICc3LjAwMDAwMCcsICctcGh0JywgJzIuMDAwMDAwJywgJy1tcycsICcxNicsICctdG4nLCAnOCcsICctbWEnLCAnMjAwJywgJy1pbWFlJywgJzxpbmZpbGUubWFlPicsICctb21hZScsICc8b3V0ZmlsZS5tYWU+Jw==

>  <s_epik_input>  (1358) 
RmMoW2NIXTEpW2NIXVtjSF1jKGMxRilbQ0BIXShbT0hdKVtDSDJdW05IXVtDSDJdYzJjKC1jM1tjSF1bY0hdW2NIXVtjSF1bY0hdMylubihbY0hdMilbQ0gyXWM0W2NIXVtjSF1bY0hdW2NIXVtjSF00

>  <s_i_glide_gridfile>  (1358) 
ATP-Grid

>  <s_lp_Force_Field>  (1358) 
OPLS_2005

>  <s_lp_Variant>  (1358) 
m_270004bbb____16500566____7548060-2

>  <s_lp_label>  (1358) 
2072_sdstereoexpander_2_neutralizer_1_epik_1_stereoizer_1

>  <s_m_source_file>  (1358) 
ATP-VSW-LIGPREP-001-in.maegz

>  <s_sd_BIOSOLVEIT.INFINISEE\_QUERY\_NAME>  (1358) 
Ref-Lig

>  <s_sd_BIOSOLVEIT.INFINISEE\_QUERY\_SMILES>  (1358) 
S(c1nc2c(cc1C[NH2+]Cc3ccc(cc3)C[NH+](C)C)cccc2)Cc4ccccc4

>  <s_sd_BIOSOLVEIT.INFINISEE\_REACTION\_NAME>  (1358) 
m_270004bbb

>  <s_sd_BIOSOLVEIT.INFINISEE\_REAGENT1\_SMILES>  (1358) 
[R1*]NCC(O)c1c(F)cc(F)cc1

>  <s_sd_BIOSOLVEIT.INFINISEE\_REAGENT2\_SMILES>  (1358) 
[R1*]CC=1C(=NN(C1)Cc2ccccc2)c3ccccc3

>  <s_sd_BIOSOLVEIT.INFINISEE\_SPACE>  (1358) 
REALSpace_44bn_2023-08

>  <s_vsw_compound_code>  (1358) 
66273

>  <s_vsw_variant>  (1358) 
66273-2

>  <r_epik_Charging_Adjusted_Penalty>  (1358) 
0.14210174952166199

>  <r_epik_Ionization_Penalty>  (1358) 
0.071099999999999997

>  <r_epik_Ionization_Penalty_Charging>  (1358) 
0.071099999999999997

>  <r_epik_Ionization_Penalty_Neutral>  (1358) 
0

>  <r_epik_State_Penalty>  (1358) 
0.071099999999999997

>  <r_i_docking_score>  (1358) 
-6.7221722658838203

>  <r_i_glide_ecoul>  (1358) 
-15.335029602050801

>  <r_i_glide_eff_state_penalty>  (1358) 
0.071099999999999997

>  <r_i_glide_einternal>  (1358) 
6.1641049385070801

>  <r_i_glide_emodel>  (1358) 
-78.007283716339998

>  <r_i_glide_energy>  (1358) 
-50.154636383056598

>  <r_i_glide_erotb>  (1358) 
0.78365562477255302

>  <r_i_glide_esite>  (1358) 
-0.128389902488562

>  <r_i_glide_evdw>  (1358) 
-34.819606781005902

>  <r_i_glide_gscore>  (1358) 
-6.7932722658838198

>  <r_i_glide_hbond>  (1358) 
-0.35999999999999999

>  <r_i_glide_ligand_efficiency>  (1358) 
-0.21684426664141301

>  <r_i_glide_ligand_efficiency_ln>  (1358) 
-1.5160558557959001

>  <r_i_glide_ligand_efficiency_sa>  (1358) 
-0.681190383029604

>  <r_i_glide_lipo>  (1358) 
-1.9347941619768101

>  <r_i_glide_metal>  (1358) 
-0

>  <r_i_glide_rewards>  (1358) 
-1.11250904683309

>  <r_lp_Energy>  (1358) 
18.847131000000001

>  <r_lp_tautomer_probability>  (1358) 
1

>  <r_qp_ACxDN^.5/SA>  (1358) 
0.0098610999999999994

>  <r_qp_CIQPlogS>  (1358) 
-6.1079999999999997

>  <r_qp_EA(eV)>  (1358) 
0.58799999999999997

>  <r_qp_FISA>  (1358) 
55.247

>  <r_qp_FOSA>  (1358) 
113.124

>  <r_qp_IP(eV)>  (1358) 
8.7300000000000004

>  <r_qp_Jm>  (1358) 
0.088994429101352607

>  <r_qp_PISA>  (1358) 
450.80500000000001

>  <r_qp_PSA>  (1358) 
48.171999999999997

>  <r_qp_PercentHumanOralAbsorption>  (1358) 
100

>  <r_qp_QPPCaco>  (1358) 
739.42200000000003

>  <r_qp_QPPMDCK>  (1358) 
788.99599999999998

>  <r_qp_QPlogBB>  (1358) 
0.097000000000000003

>  <r_qp_QPlogHERG>  (1358) 
-6.9359999999999999

>  <r_qp_QPlogKhsa>  (1358) 
0.78200000000000003

>  <r_qp_QPlogKp>  (1358) 
-2.2440000000000002

>  <r_qp_QPlogPC16>  (1358) 
13.715999999999999

>  <r_qp_QPlogPo/w>  (1358) 
4.992

>  <r_qp_QPlogPoct>  (1358) 
20.597999999999999

>  <r_qp_QPlogPw>  (1358) 
10.597

>  <r_qp_QPlogS>  (1358) 
-4.4290000000000003

>  <r_qp_QPpolrz>  (1358) 
44.055

>  <r_qp_SASA>  (1358) 
674.04300000000001

>  <r_qp_SAamideO>  (1358) 
0

>  <r_qp_SAfluorine>  (1358) 
54.866

>  <r_qp_WPSA>  (1358) 
54.866

>  <r_qp_accptHB>  (1358) 
4.7000000000000002

>  <r_qp_dip^2/V>  (1358) 
0.023676699999999998

>  <r_qp_dipole>  (1358) 
5.4950000000000001

>  <r_qp_donorHB>  (1358) 
2

>  <r_qp_glob>  (1358) 
0.84379780000000004

>  <r_qp_mol_MW>  (1358) 
419.47300000000001

>  <r_qp_volume>  (1358) 
1275.385

>  <r_sd_BIOSOLVEIT.INFINISEE\_FTREES\_SIMILARITY>  (1358) 
0.90100000000000002

>  <r_sd_BIOSOLVEIT.LOGP>  (1358) 
3.6736

>  <r_sd_BIOSOLVEIT.MOLECULAR\_WEIGHT>  (1358) 
420.48099999999999

>  <r_sd_BIOSOLVEIT.TPSA>  (1358) 
54.659999999999997

>  <i_epik_Tot_Q>  (1358) 
1

>  <i_epik_Tot_abs_Q>  (1358) 
1

>  <i_f3d_flags>  (1358) 
0

>  <i_i_glide_confnum>  (1358) 
7

>  <i_i_glide_lignum>  (1358) 
645

>  <i_i_glide_posenum>  (1358) 
11

>  <i_i_glide_rotatable_bonds>  (1358) 
9

>  <i_lp_mmshare_version>  (1358) 
65135

>  <i_m_ct_format>  (1358) 
2

>  <i_m_source_file_index>  (1358) 
2072

>  <i_qp_#NandO>  (1358) 
4

>  <i_qp_#acid>  (1358) 
0

>  <i_qp_#amide>  (1358) 
0

>  <i_qp_#amidine>  (1358) 
0

>  <i_qp_#amine>  (1358) 
1

>  <i_qp_#in34>  (1358) 
0

>  <i_qp_#in56>  (1358) 
23

>  <i_qp_#metab>  (1358) 
4

>  <i_qp_#nonHatm>  (1358) 
31

>  <i_qp_#noncon>  (1358) 
0

>  <i_qp_#ringatoms>  (1358) 
23

>  <i_qp_#rotor>  (1358) 
8

>  <i_qp_#rtvFG>  (1358) 
0

>  <i_qp_#stars>  (1358) 
1

>  <i_qp_CNS>  (1358) 
1

>  <i_qp_HumanOralAbsorption>  (1358) 
3

>  <i_qp_RuleOfFive>  (1358) 
0

>  <i_qp_RuleOfThree>  (1358) 
0

>  <i_sd_BIOSOLVEIT.INFINISEE\_REAGENT1\_NAME>  (1358) 
16500566

>  <i_sd_BIOSOLVEIT.INFINISEE\_REAGENT2\_NAME>  (1358) 
7548060

>  <i_sd_BIOSOLVEIT.INFINISEE\_RESULT\_RANK>  (1358) 
95448

>  <i_sd_version>  (1358) 
0

>  <b_lp_Chiralities_Consistent>  (1358) 
1

>  <b_sd_chiral_flag>  (1358) 
0

>  <canonical_id>  (1358) 
ATP-HTVS-D6043925B579

>  <compound_code>  (1358) 
66273

>  <title>  (1358) 
m_270004bbb____16500566____7548060

>  <variant>  (1358) 
66273-2

>  <source_file>  (1358) 
运行/运行/ATP-VSW/ATP-VSW-DOCK_HTVS_1-001_lib/ATP-VSW-DOCK_HTVS_1-001_lib

>  <canonical_smiles>  (1358) 
O[C@H](C[NH2+]Cc1cn(Cc2ccccc2)nc1-c1ccccc1)c1ccc(F)cc1F

>  <scaffold>  (1358) 
c1ccc(CC[NH2+]Cc2cn(Cc3ccccc3)nc2-c2ccccc2)cc1

>  <molecular_formula>  (1358) 
C25H24F2N3O+

$$$$
ATP-HTVS-D60AE40A828F
     RDKit          3D

 64 67  0  0  0  0  0  0  0  0999 V2000
  196.0384  180.3354  150.3477 F   0  0  0  0  0  0  0  0  0  0  0  0
  196.5941  180.5470  151.5672 C   0  0  0  0  0  0  0  0  0  0  0  0
  196.7705  181.8613  152.0621 C   0  0  0  0  0  0  0  0  0  0  0  0
  196.3412  182.9630  151.2135 C   0  0  0  0  0  0  0  0  0  0  0  0
  195.9996  183.8382  150.5315 N   0  0  0  0  0  0  0  0  0  0  0  0
  197.3364  182.0549  153.3621 C   0  0  0  0  0  0  0  0  0  0  0  0
  197.7404  180.9201  154.1050 C   0  0  0  0  0  0  0  0  0  0  0  0
  197.5741  179.6236  153.5939 C   0  0  0  0  0  0  0  0  0  0  0  0
  196.9957  179.4376  152.3283 C   0  0  0  0  0  0  0  0  0  0  0  0
  197.5611  183.4203  153.9618 C   0  0  0  0  0  0  0  0  0  0  0  0
  198.0628  184.3223  153.2912 O   0  0  0  0  0  0  0  0  0  0  0  0
  197.1907  183.5244  155.2538 N   0  0  0  0  0  0  0  0  0  0  0  0
  197.1747  184.6716  156.1030 C   0  0  0  0  0  0  0  0  0  0  0  0
  197.5052  185.9013  155.6439 N   0  0  0  0  0  0  0  0  0  0  0  0
  197.4243  186.9695  156.4616 C   0  0  0  0  0  0  0  0  0  0  0  0
  197.0210  186.8914  157.8087 C   0  0  0  0  0  0  0  0  0  0  0  0
  196.9370  188.0618  158.5868 N   0  0  0  0  0  0  0  0  0  0  0  0
  197.9341  188.2065  159.6484 C   0  0  1  0  0  0  0  0  0  0  0  0
  199.2441  188.8385  159.1960 C   0  0  0  0  0  0  0  0  0  0  0  0
  199.2173  190.0309  158.4682 C   0  0  0  0  0  0  0  0  0  0  0  0
  200.4045  190.7204  158.1360 C   0  0  0  0  0  0  0  0  0  0  0  0
  201.6469  190.1352  158.4629 C   0  0  0  0  0  0  0  0  0  0  0  0
  201.6879  188.8928  159.1499 C   0  0  0  0  0  0  0  0  0  0  0  0
  200.4861  188.2546  159.5350 C   0  0  0  0  0  0  0  0  0  0  0  0
  200.3540  192.0719  157.4228 C   0  0  1  0  0  0  0  0  0  0  0  0
  199.6446  193.1581  158.1257 N   0  0  0  0  0  0  0  0  0  0  0  0
  198.2242  192.8683  158.4035 C   0  0  1  0  0  0  0  0  0  0  0  0
  197.4351  192.6364  157.0935 C   0  0  2  0  0  0  0  0  0  0  0  0
  200.3622  193.4955  159.3571 C   0  0  1  0  0  0  0  0  0  0  0  0
  199.8071  194.7638  160.0295 C   0  0  2  0  0  0  0  0  0  0  0  0
  196.6904  185.6105  158.3086 C   0  0  0  0  0  0  0  0  0  0  0  0
  196.7627  184.4805  157.4503 C   0  0  0  0  0  0  0  0  0  0  0  0
  196.3926  183.2000  157.9489 C   0  0  0  0  0  0  0  0  0  0  0  0
  195.9696  183.0523  159.2871 C   0  0  0  0  0  0  0  0  0  0  0  0
  195.9005  184.1730  160.1398 C   0  0  0  0  0  0  0  0  0  0  0  0
  196.2507  185.4451  159.6455 C   0  0  0  0  0  0  0  0  0  0  0  0
  198.2019  181.0332  155.0760 H   0  0  0  0  0  0  0  0  0  0  0  0
  197.8999  178.7704  154.1726 H   0  0  0  0  0  0  0  0  0  0  0  0
  196.8653  178.4400  151.9356 H   0  0  0  0  0  0  0  0  0  0  0  0
  197.6899  187.9160  156.0150 H   0  0  0  0  0  0  0  0  0  0  0  0
  196.7174  188.9158  158.0920 H   0  0  0  0  0  0  0  0  0  0  0  0
  197.4901  188.8297  160.4290 H   0  0  0  0  0  0  0  0  0  0  0  0
  198.1534  187.2508  160.1151 H   0  0  0  0  0  0  0  0  0  0  0  0
  198.2466  190.4345  158.2083 H   0  0  0  0  0  0  0  0  0  0  0  0
  202.5722  190.6175  158.1772 H   0  0  0  0  0  0  0  0  0  0  0  0
  202.6391  188.4306  159.3642 H   0  0  0  0  0  0  0  0  0  0  0  0
  200.5213  187.3162  160.0753 H   0  0  0  0  0  0  0  0  0  0  0  0
  201.3691  192.4016  157.2024 H   0  0  0  0  0  0  0  0  0  0  0  0
  199.9158  191.9040  156.4408 H   0  0  0  0  0  0  0  0  0  0  0  0
  198.1561  192.0446  159.0902 H   0  0  0  0  0  0  0  0  0  0  0  0
  197.7345  193.7177  158.8813 H   0  0  0  0  0  0  0  0  0  0  0  0
  196.3936  192.4206  157.3236 H   0  0  0  0  0  0  0  0  0  0  0  0
  197.7930  191.7905  156.5087 H   0  0  0  0  0  0  0  0  0  0  0  0
  197.4678  193.5074  156.4543 H   0  0  0  0  0  0  0  0  0  0  0  0
  200.3230  192.6547  160.0470 H   0  0  0  0  0  0  0  0  0  0  0  0
  201.4177  193.6667  159.1266 H   0  0  0  0  0  0  0  0  0  0  0  0
  200.3921  195.0150  160.9142 H   0  0  0  0  0  0  0  0  0  0  0  0
  198.7836  194.6456  160.3830 H   0  0  0  0  0  0  0  0  0  0  0  0
  199.8348  195.6114  159.3433 H   0  0  0  0  0  0  0  0  0  0  0  0
  196.4111  182.3142  157.3421 H   0  0  0  0  0  0  0  0  0  0  0  0
  195.6998  182.0772  159.6574 H   0  0  0  0  0  0  0  0  0  0  0  0
  195.5735  184.0624  161.1501 H   0  0  0  0  0  0  0  0  0  0  0  0
  196.1695  186.2893  160.3065 H   0  0  0  0  0  0  0  0  0  0  0  0
  196.8355  182.6792  155.6707 H   0  0  0  0  0  0  0  0  0  0  0  0
  1  2  1  0
  2  3  2  0
  2  9  1  0
  3  4  1  0
  3  6  1  0
  4  5  3  0
  6  7  2  0
  6 10  1  0
  7  8  1  0
  7 37  1  0
  8  9  2  0
  8 38  1  0
  9 39  1  0
 10 11  2  0
 10 12  1  0
 12 13  1  0
 12 64  1  0
 13 14  1  0
 13 32  2  0
 14 15  2  0
 15 16  1  0
 15 40  1  0
 16 17  1  0
 16 31  2  0
 17 18  1  0
 17 41  1  0
 18 19  1  0
 18 42  1  1
 18 43  1  0
 19 20  2  0
 19 24  1  0
 20 21  1  0
 20 44  1  0
 21 22  2  0
 21 25  1  0
 22 23  1  0
 22 45  1  0
 23 24  2  0
 23 46  1  0
 24 47  1  0
 25 26  1  0
 25 48  1  6
 25 49  1  0
 26 27  1  0
 26 29  1  0
 27 28  1  0
 27 50  1  1
 27 51  1  0
 28 52  1  1
 28 53  1  0
 28 54  1  0
 29 30  1  0
 29 55  1  1
 29 56  1  0
 30 57  1  1
 30 58  1  0
 30 59  1  0
 31 32  1  0
 31 36  1  0
 32 33  1  0
 33 34  2  0
 33 60  1  0
 34 35  1  0
 34 61  1  0
 35 36  2  0
 35 62  1  0
 36 63  1  0
M  END
>  <s_epik_cmdline>  (1359) 
J2VwaWtfcHl0aG9uJywgJy1waCcsICc3LjAwMDAwMCcsICctcGh0JywgJzIuMDAwMDAwJywgJy1tcycsICcxNicsICctdG4nLCAnOCcsICctbWEnLCAnMjAwJywgJy1pbWFlJywgJzxpbmZpbGUubWFlPicsICctb21hZScsICc8b3V0ZmlsZS5tYWU+Jw==

>  <s_epik_input>  (1359) 
RmMxYyhDI04pYyhbY0hdW2NIXVtjSF0xKUMoPU8pW05IXWMoYyhjMjMpW2NIXVtjSF1bY0hdW2NIXTMpbltjSF1jMltOSF1bQ0gyXWM0W2NIXWMoW2NIXVtjSF1bY0hdNClbQ0gyXU4oW0NIMl1bQ0gzXSlbQ0gyXVtDSDNd

>  <s_i_glide_gridfile>  (1359) 
ATP-Grid

>  <s_lp_Force_Field>  (1359) 
OPLS_2005

>  <s_lp_Variant>  (1359) 
rxn502b____EMOL44385606____EMOL7515103____EMOL44153840-1

>  <s_lp_label>  (1359) 
2631_sdstereoexpander_1_neutralizer_1_epik_1_stereoizer_1

>  <s_m_source_file>  (1359) 
ATP-VSW-LIGPREP-002-in.maegz

>  <s_sd_BIOSOLVEIT.INFINISEE\_QUERY\_NAME>  (1359) 
Ref-Lig

>  <s_sd_BIOSOLVEIT.INFINISEE\_QUERY\_SMILES>  (1359) 
S(c1nc2c(cc1C[NH2+]Cc3ccc(cc3)C[NH+](C)C)cccc2)Cc4ccccc4

>  <s_sd_BIOSOLVEIT.INFINISEE\_REACTION\_NAME>  (1359) 
rxn502b

>  <s_sd_BIOSOLVEIT.INFINISEE\_REAGENT1\_NAME>  (1359) 
EMOL44385606

>  <s_sd_BIOSOLVEIT.INFINISEE\_REAGENT1\_SMILES>  (1359) 
Fc1c(C#N)c(ccc1)C(=O)O

>  <s_sd_BIOSOLVEIT.INFINISEE\_REAGENT2\_NAME>  (1359) 
EMOL7515103

>  <s_sd_BIOSOLVEIT.INFINISEE\_REAGENT2\_SMILES>  (1359) 
Brc1c2c(c(nc1)N)cccc2

>  <s_sd_BIOSOLVEIT.INFINISEE\_REAGENT3\_NAME>  (1359) 
EMOL44153840

>  <s_sd_BIOSOLVEIT.INFINISEE\_REAGENT3\_SMILES>  (1359) 
N(Cc1cc(ccc1)CN)(CC)CC

>  <s_sd_BIOSOLVEIT.INFINISEE\_SPACE>  (1359) 
eXplore_7tr_2022-12

>  <s_vsw_compound_code>  (1359) 
84162

>  <s_vsw_variant>  (1359) 
84162-1

>  <r_epik_Charging_Adjusted_Penalty>  (1359) 
0.00608201851549458

>  <r_epik_Ionization_Penalty>  (1359) 
2.0830000000000002

>  <r_epik_Ionization_Penalty_Charging>  (1359) 
0

>  <r_epik_Ionization_Penalty_Neutral>  (1359) 
2.0830000000000002

>  <r_epik_State_Penalty>  (1359) 
0.0061000000000000004

>  <r_i_docking_score>  (1359) 
-3.23776842830741

>  <r_i_glide_ecoul>  (1359) 
-2.2589306831359899

>  <r_i_glide_eff_state_penalty>  (1359) 
0.0061000000000000004

>  <r_i_glide_einternal>  (1359) 
6.3145117759704599

>  <r_i_glide_emodel>  (1359) 
-46.647528102149103

>  <r_i_glide_energy>  (1359) 
-40.975082874298103

>  <r_i_glide_erotb>  (1359) 
0.69984952176722104

>  <r_i_glide_esite>  (1359) 
-0.047689951282552101

>  <r_i_glide_evdw>  (1359) 
-38.716152191162102

>  <r_i_glide_gscore>  (1359) 
-3.24386842830741

>  <r_i_glide_hbond>  (1359) 
0

>  <r_i_glide_ligand_efficiency>  (1359) 
-0.089938011897427894

>  <r_i_glide_ligand_efficiency_ln>  (1359) 
-0.706393596662655

>  <r_i_glide_ligand_efficiency_sa>  (1359) 
-0.29696877184079501

>  <r_i_glide_lipo>  (1359) 
-1.2341361462159199

>  <r_i_glide_metal>  (1359) 
-0

>  <r_i_glide_rewards>  (1359) 
-0.38724464054765501

>  <r_lp_Energy>  (1359) 
37.376458

>  <r_qp_ACxDN^.5/SA>  (1359) 
0.0140658

>  <r_qp_CIQPlogS>  (1359) 
-7.024

>  <r_qp_EA(eV)>  (1359) 
1.1850000000000001

>  <r_qp_FISA>  (1359) 
117.07599999999999

>  <r_qp_FOSA>  (1359) 
254.82400000000001

>  <r_qp_IP(eV)>  (1359) 
7.9459999999999997

>  <r_qp_Jm>  (1359) 
0.000120214183351509

>  <r_qp_PISA>  (1359) 
391.798

>  <r_qp_PSA>  (1359) 
85.370999999999995

>  <r_qp_PercentHumanOralAbsorption>  (1359) 
95.117000000000004

>  <r_qp_QPPCaco>  (1359) 
191.678

>  <r_qp_QPPMDCK>  (1359) 
153.25999999999999

>  <r_qp_QPlogBB>  (1359) 
-0.76800000000000002

>  <r_qp_QPlogHERG>  (1359) 
-7.4039999999999999

>  <r_qp_QPlogKhsa>  (1359) 
0.72799999999999998

>  <r_qp_QPlogKp>  (1359) 
-3.3999999999999999

>  <r_qp_QPlogPC16>  (1359) 
16.207999999999998

>  <r_qp_QPlogPo/w>  (1359) 
4.6660000000000004

>  <r_qp_QPlogPoct>  (1359) 
25.193000000000001

>  <r_qp_QPlogPw>  (1359) 
13.734

>  <r_qp_QPlogS>  (1359) 
-6.2030000000000003

>  <r_qp_QPpolrz>  (1359) 
52.298999999999999

>  <r_qp_SASA>  (1359) 
804.34299999999996

>  <r_qp_SAamideO>  (1359) 
0

>  <r_qp_SAfluorine>  (1359) 
40.645000000000003

>  <r_qp_WPSA>  (1359) 
40.645000000000003

>  <r_qp_accptHB>  (1359) 
8

>  <r_qp_dip^2/V>  (1359) 
0.020538899999999999

>  <r_qp_dipole>  (1359) 
5.601

>  <r_qp_donorHB>  (1359) 
2

>  <r_qp_glob>  (1359) 
0.79748370000000002

>  <r_qp_mol_MW>  (1359) 
481.57100000000003

>  <r_qp_volume>  (1359) 
1527.556

>  <r_sd_BIOSOLVEIT.INFINISEE\_FTREES\_SIMILARITY>  (1359) 
0.91000000000000003

>  <r_sd_BIOSOLVEIT.LOGP>  (1359) 
4.5346799999999998

>  <r_sd_BIOSOLVEIT.MOLECULAR\_WEIGHT>  (1359) 
482.57999999999998

>  <r_sd_BIOSOLVEIT.TPSA>  (1359) 
82.25

>  <i_epik_Tot_Q>  (1359) 
0

>  <i_epik_Tot_abs_Q>  (1359) 
0

>  <i_f3d_flags>  (1359) 
0

>  <i_i_glide_confnum>  (1359) 
5

>  <i_i_glide_lignum>  (1359) 
1226

>  <i_i_glide_posenum>  (1359) 
19

>  <i_i_glide_rotatable_bonds>  (1359) 
10

>  <i_lp_mmshare_version>  (1359) 
65135

>  <i_m_ct_format>  (1359) 
2

>  <i_m_source_file_index>  (1359) 
2631

>  <i_qp_#NandO>  (1359) 
6

>  <i_qp_#acid>  (1359) 
0

>  <i_qp_#amide>  (1359) 
0

>  <i_qp_#amidine>  (1359) 
0

>  <i_qp_#amine>  (1359) 
1

>  <i_qp_#in34>  (1359) 
0

>  <i_qp_#in56>  (1359) 
22

>  <i_qp_#metab>  (1359) 
7

>  <i_qp_#nonHatm>  (1359) 
36

>  <i_qp_#noncon>  (1359) 
0

>  <i_qp_#ringatoms>  (1359) 
22

>  <i_qp_#rotor>  (1359) 
10

>  <i_qp_#rtvFG>  (1359) 
0

>  <i_qp_#stars>  (1359) 
0

>  <i_qp_CNS>  (1359) 
0

>  <i_qp_HumanOralAbsorption>  (1359) 
1

>  <i_qp_RuleOfFive>  (1359) 
0

>  <i_qp_RuleOfThree>  (1359) 
2

>  <i_sd_BIOSOLVEIT.INFINISEE\_RESULT\_RANK>  (1359) 
44371

>  <i_sd_version>  (1359) 
0

>  <b_lp_Chiralities_Consistent>  (1359) 
1

>  <b_sd_chiral_flag>  (1359) 
0

>  <canonical_id>  (1359) 
ATP-HTVS-D60AE40A828F

>  <compound_code>  (1359) 
84162

>  <title>  (1359) 
rxn502b____EMOL44385606____EMOL7515103____EMOL44153840

>  <variant>  (1359) 
84162-1

>  <source_file>  (1359) 
运行/运行/ATP-VSW/ATP-VSW-DOCK_HTVS_1-002_lib.maegz

>  <canonical_smiles>  (1359) 
CCN(CC)Cc1cccc(CNc2cnc(NC(=O)c3cccc(F)c3C#N)c3ccccc23)c1

>  <scaffold>  (1359) 
O=C(Nc1ncc(NCc2ccccc2)c2ccccc12)c1ccccc1

>  <molecular_formula>  (1359) 
C29H28FN5O

$$$$
ATP-HTVS-D63540CFF382
     RDKit          3D

 53 56  0  0  0  0  0  0  0  0999 V2000
  198.7457  177.4360  151.0480 Cl  0  0  0  0  0  0  0  0  0  0  0  0
  198.1747  179.0643  151.0485 C   0  0  0  0  0  0  0  0  0  0  0  0
  198.9430  180.0680  150.4301 C   0  0  0  0  0  0  0  0  0  0  0  0
  198.4930  181.4008  150.4297 C   0  0  0  0  0  0  0  0  0  0  0  0
  197.2616  181.7429  151.0351 C   0  0  0  0  0  0  0  0  0  0  0  0
  196.4916  180.7292  151.6523 C   0  0  0  0  0  0  0  0  0  0  0  0
  196.9508  179.3982  151.6628 C   0  0  0  0  0  0  0  0  0  0  0  0
  196.7698  183.1896  151.0386 C   0  0  1  0  0  0  0  0  0  0  0  0
  197.3873  183.9707  152.2127 C   0  0  0  0  0  0  0  0  0  0  0  0
  198.0645  184.9751  151.9956 O   0  0  0  0  0  0  0  0  0  0  0  0
  197.1461  183.4794  153.4440 N   0  0  0  0  0  0  0  0  0  0  0  0
  197.3731  184.1057  154.7042 C   0  0  0  0  0  0  0  0  0  0  0  0
  197.4773  183.3099  155.8826 C   0  0  0  0  0  0  0  0  0  0  0  0
  197.3731  181.9015  155.8346 N   0  0  0  0  0  0  0  0  0  0  0  0
  198.3856  181.0392  155.3233 C   0  0  0  0  0  0  0  0  0  0  0  0
  199.6023  181.5699  154.8074 C   0  0  0  0  0  0  0  0  0  0  0  0
  200.6276  180.7314  154.3158 C   0  0  0  0  0  0  0  0  0  0  0  0
  200.4561  179.3354  154.3278 C   0  0  0  0  0  0  0  0  0  0  0  0
  199.2635  178.7884  154.8347 C   0  0  0  0  0  0  0  0  0  0  0  0
  198.2398  179.6291  155.3286 C   0  0  0  0  0  0  0  0  0  0  0  0
  196.0166  181.3742  156.0687 C   0  0  1  0  0  0  0  0  0  0  0  0
  195.3722  181.8308  157.3244 C   0  0  0  0  0  0  0  0  0  0  0  0
  194.8627  182.1678  158.3119 N   0  0  0  0  0  0  0  0  0  0  0  0
  197.6512  183.9871  157.1195 C   0  0  0  0  0  0  0  0  0  0  0  0
  197.6449  185.4100  157.1457 C   0  0  0  0  0  0  0  0  0  0  0  0
  197.5137  186.1479  156.0230 N   0  0  0  0  0  0  0  0  0  0  0  0
  197.3968  185.5127  154.8405 C   0  0  0  0  0  0  0  0  0  0  0  0
  197.7592  186.0682  158.3878 C   0  0  0  0  0  0  0  0  0  0  0  0
  197.8586  185.3454  159.5881 C   0  0  0  0  0  0  0  0  0  0  0  0
  197.8688  183.9380  159.5591 C   0  0  0  0  0  0  0  0  0  0  0  0
  197.7881  183.2605  158.3282 C   0  0  0  0  0  0  0  0  0  0  0  0
  196.9592  183.8949  149.6749 C   0  0  2  0  0  0  0  0  0  0  0  0
  199.8817  179.8208  149.9571 H   0  0  0  0  0  0  0  0  0  0  0  0
  199.1127  182.1492  149.9606 H   0  0  0  0  0  0  0  0  0  0  0  0
  195.5497  180.9688  152.1277 H   0  0  0  0  0  0  0  0  0  0  0  0
  196.3610  178.6333  152.1463 H   0  0  0  0  0  0  0  0  0  0  0  0
  195.6961  183.1695  151.2323 H   0  0  0  0  0  0  0  0  0  0  0  0
  196.7669  182.5459  153.4920 H   0  0  0  0  0  0  0  0  0  0  0  0
  199.7723  182.6351  154.7891 H   0  0  0  0  0  0  0  0  0  0  0  0
  201.5456  181.1591  153.9380 H   0  0  0  0  0  0  0  0  0  0  0  0
  201.2404  178.6859  153.9588 H   0  0  0  0  0  0  0  0  0  0  0  0
  199.1337  177.7187  154.8637 H   0  0  0  0  0  0  0  0  0  0  0  0
  197.3508  179.1589  155.7413 H   0  0  0  0  0  0  0  0  0  0  0  0
  195.3988  181.6729  155.2187 H   0  0  0  0  0  0  0  0  0  0  0  0
  195.9958  180.2831  156.0790 H   0  0  0  0  0  0  0  0  0  0  0  0
  197.2741  186.1750  153.9931 H   0  0  0  0  0  0  0  0  0  0  0  0
  197.7506  187.1515  158.4211 H   0  0  0  0  0  0  0  0  0  0  0  0
  197.9164  185.8618  160.5335 H   0  0  0  0  0  0  0  0  0  0  0  0
  197.9117  183.3677  160.4747 H   0  0  0  0  0  0  0  0  0  0  0  0
  197.8230  182.1903  158.3360 H   0  0  0  0  0  0  0  0  0  0  0  0
  198.0082  183.9643  149.3848 H   0  0  0  0  0  0  0  0  0  0  0  0
  196.5729  184.9149  149.6926 H   0  0  0  0  0  0  0  0  0  0  0  0
  196.4351  183.3610  148.8813 H   0  0  0  0  0  0  0  0  0  0  0  0
  1  2  1  0
  2  3  1  0
  2  7  2  0
  3  4  2  0
  3 33  1  0
  4  5  1  0
  4 34  1  0
  5  6  2  0
  5  8  1  0
  6  7  1  0
  6 35  1  0
  7 36  1  0
  8  9  1  0
  8 32  1  0
  8 37  1  1
  9 10  2  0
  9 11  1  0
 11 12  1  0
 11 38  1  0
 12 13  2  0
 12 27  1  0
 13 14  1  0
 13 24  1  0
 14 15  1  0
 14 21  1  0
 15 16  2  0
 15 20  1  0
 16 17  1  0
 16 39  1  0
 17 18  2  0
 17 40  1  0
 18 19  1  0
 18 41  1  0
 19 20  2  0
 19 42  1  0
 20 43  1  0
 21 22  1  0
 21 44  1  6
 21 45  1  0
 22 23  3  0
 24 25  1  0
 24 31  2  0
 25 26  1  0
 25 28  2  0
 26 27  2  0
 27 46  1  0
 28 29  1  0
 28 47  1  0
 29 30  2  0
 29 48  1  0
 30 31  1  0
 30 49  1  0
 31 50  1  0
 32 51  1  6
 32 52  1  0
 32 53  1  0
M  END
>  <s_epik_cmdline>  (1360) 
J2VwaWtfcHl0aG9uJywgJy1waCcsICc3LjAwMDAwMCcsICctcGh0JywgJzIuMDAwMDAwJywgJy1tcycsICcxNicsICctdG4nLCAnOCcsICctbWEnLCAnMjAwJywgJy1pbWFlJywgJzxpbmZpbGUubWFlPicsICctb21hZScsICc8b3V0ZmlsZS5tYWU+Jw==

>  <s_epik_input>  (1360) 
Q2xjMVtjSF1bY0hdYyhbY0hdW2NIXTEpW0NASF0oW0NIM10pQyg9TylbTkhdYyhbY0hdbmMoYzIzKVtjSF1bY0hdW2NIXVtjSF0zKWMyTihbQ0gyXUMjTiljNFtjSF1bY0hdW2NIXVtjSF1bY0hdNA==

>  <s_i_glide_gridfile>  (1360) 
ATP-Grid

>  <s_lp_Force_Field>  (1360) 
OPLS_2005

>  <s_lp_Variant>  (1360) 
rxn502b____EMOL49828498____EMOL30488121____EMOL712348-2

>  <s_lp_label>  (1360) 
2425_sdstereoexpander_2_neutralizer_1_epik_1_stereoizer_1

>  <s_m_source_file>  (1360) 
ATP-VSW-LIGPREP-003-in.maegz

>  <s_sd_BIOSOLVEIT.INFINISEE\_QUERY\_NAME>  (1360) 
Ref-Lig

>  <s_sd_BIOSOLVEIT.INFINISEE\_QUERY\_SMILES>  (1360) 
S(c1nc2c(cc1C[NH2+]Cc3ccc(cc3)C[NH+](C)C)cccc2)Cc4ccccc4

>  <s_sd_BIOSOLVEIT.INFINISEE\_REACTION\_NAME>  (1360) 
rxn502b

>  <s_sd_BIOSOLVEIT.INFINISEE\_REAGENT1\_NAME>  (1360) 
EMOL49828498

>  <s_sd_BIOSOLVEIT.INFINISEE\_REAGENT1\_SMILES>  (1360) 
Clc1ccc(cc1)C(C(Cl)=O)C

>  <s_sd_BIOSOLVEIT.INFINISEE\_REAGENT2\_NAME>  (1360) 
EMOL30488121

>  <s_sd_BIOSOLVEIT.INFINISEE\_REAGENT2\_SMILES>  (1360) 
Brc1c(N)cnc2c1cccc2

>  <s_sd_BIOSOLVEIT.INFINISEE\_REAGENT3\_NAME>  (1360) 
EMOL712348

>  <s_sd_BIOSOLVEIT.INFINISEE\_REAGENT3\_SMILES>  (1360) 
N#CCNc1ccccc1

>  <s_sd_BIOSOLVEIT.INFINISEE\_SPACE>  (1360) 
eXplore_7tr_2022-12

>  <s_vsw_compound_code>  (1360) 
77571

>  <s_vsw_variant>  (1360) 
77571-2

>  <r_epik_Charging_Adjusted_Penalty>  (1360) 
0.043938436173459001

>  <r_epik_Ionization_Penalty>  (1360) 
0.043900000000000002

>  <r_epik_Ionization_Penalty_Charging>  (1360) 
0

>  <r_epik_Ionization_Penalty_Neutral>  (1360) 
0.043900000000000002

>  <r_epik_State_Penalty>  (1360) 
0.043900000000000002

>  <r_i_docking_score>  (1360) 
-3.6532293934842799

>  <r_i_glide_ecoul>  (1360) 
-4.0489792823791504

>  <r_i_glide_eff_state_penalty>  (1360) 
0.043900000000000002

>  <r_i_glide_einternal>  (1360) 
3.9368994235992401

>  <r_i_glide_emodel>  (1360) 
-45.763029689537802

>  <r_i_glide_energy>  (1360) 
-38.394423007965102

>  <r_i_glide_erotb>  (1360) 
0.51361344666407005

>  <r_i_glide_esite>  (1360) 
-0.18316606398851101

>  <r_i_glide_evdw>  (1360) 
-34.345443725585902

>  <r_i_glide_gscore>  (1360) 
-3.6971293934842802

>  <r_i_glide_hbond>  (1360) 
0

>  <r_i_glide_ligand_efficiency>  (1360) 
-0.114163418546384

>  <r_i_glide_ligand_efficiency_ln>  (1360) 
-0.81805764447331997

>  <r_i_glide_ligand_efficiency_sa>  (1360) 
-0.362446260974917

>  <r_i_glide_lipo>  (1360) 
-1.3001656975236699

>  <r_i_glide_metal>  (1360) 
-0

>  <r_i_glide_rewards>  (1360) 
-0.40279199999999898

>  <r_lp_Energy>  (1360) 
28.146113

>  <r_qp_ACxDN^.5/SA>  (1360) 
0.0085568999999999992

>  <r_qp_CIQPlogS>  (1360) 
-8.3040000000000003

>  <r_qp_EA(eV)>  (1360) 
1.369

>  <r_qp_FISA>  (1360) 
87.463999999999999

>  <r_qp_FOSA>  (1360) 
115.19199999999999

>  <r_qp_IP(eV)>  (1360) 
8.7439999999999998

>  <r_qp_Jm>  (1360) 
0.030066107100029001

>  <r_qp_PISA>  (1360) 
386.12299999999999

>  <r_qp_PSA>  (1360) 
67.242999999999995

>  <r_qp_PercentHumanOralAbsorption>  (1360) 
100

>  <r_qp_QPPCaco>  (1360) 
1467.171

>  <r_qp_QPPMDCK>  (1360) 
1479.086

>  <r_qp_QPlogBB>  (1360) 
-0.48199999999999998

>  <r_qp_QPlogHERG>  (1360) 
-5.343

>  <r_qp_QPlogKhsa>  (1360) 
0.69699999999999995

>  <r_qp_QPlogKp>  (1360) 
-1.099

>  <r_qp_QPlogPC16>  (1360) 
13.893000000000001

>  <r_qp_QPlogPo/w>  (1360) 
4.9770000000000003

>  <r_qp_QPlogPoct>  (1360) 
19.635000000000002

>  <r_qp_QPlogPw>  (1360) 
9.8439999999999994

>  <r_qp_QPlogS>  (1360) 
-6.0670000000000002

>  <r_qp_QPpolrz>  (1360) 
43.511000000000003

>  <r_qp_SASA>  (1360) 
642.75800000000004

>  <r_qp_SAamideO>  (1360) 
0

>  <r_qp_SAfluorine>  (1360) 
0

>  <r_qp_WPSA>  (1360) 
53.978999999999999

>  <r_qp_accptHB>  (1360) 
5.5

>  <r_qp_dip^2/V>  (1360) 
0.0266716

>  <r_qp_dipole>  (1360) 
5.7999999999999998

>  <r_qp_donorHB>  (1360) 
1

>  <r_qp_glob>  (1360) 
0.87828759999999995

>  <r_qp_mol_MW>  (1360) 
440.93099999999998

>  <r_qp_volume>  (1360) 
1261.184

>  <r_sd_BIOSOLVEIT.INFINISEE\_FTREES\_SIMILARITY>  (1360) 
0.91700000000000004

>  <r_sd_BIOSOLVEIT.LOGP>  (1360) 
6.2920800000000003

>  <r_sd_BIOSOLVEIT.MOLECULAR\_WEIGHT>  (1360) 
440.93200000000002

>  <r_sd_BIOSOLVEIT.TPSA>  (1360) 
69.019999999999996

>  <i_epik_Tot_Q>  (1360) 
0

>  <i_epik_Tot_abs_Q>  (1360) 
0

>  <i_f3d_flags>  (1360) 
0

>  <i_i_glide_confnum>  (1360) 
3

>  <i_i_glide_lignum>  (1360) 
1038

>  <i_i_glide_posenum>  (1360) 
7

>  <i_i_glide_rotatable_bonds>  (1360) 
7

>  <i_lp_mmshare_version>  (1360) 
65135

>  <i_m_ct_format>  (1360) 
2

>  <i_m_source_file_index>  (1360) 
2425

>  <i_qp_#NandO>  (1360) 
5

>  <i_qp_#acid>  (1360) 
0

>  <i_qp_#amide>  (1360) 
0

>  <i_qp_#amidine>  (1360) 
0

>  <i_qp_#amine>  (1360) 
0

>  <i_qp_#in34>  (1360) 
0

>  <i_qp_#in56>  (1360) 
22

>  <i_qp_#metab>  (1360) 
5

>  <i_qp_#nonHatm>  (1360) 
32

>  <i_qp_#noncon>  (1360) 
0

>  <i_qp_#ringatoms>  (1360) 
22

>  <i_qp_#rotor>  (1360) 
7

>  <i_qp_#rtvFG>  (1360) 
0

>  <i_qp_#stars>  (1360) 
0

>  <i_qp_CNS>  (1360) 
0

>  <i_qp_HumanOralAbsorption>  (1360) 
3

>  <i_qp_RuleOfFive>  (1360) 
0

>  <i_qp_RuleOfThree>  (1360) 
1

>  <i_sd_BIOSOLVEIT.INFINISEE\_RESULT\_RANK>  (1360) 
22912

>  <i_sd_version>  (1360) 
0

>  <b_lp_Chiralities_Consistent>  (1360) 
1

>  <b_sd_chiral_flag>  (1360) 
0

>  <canonical_id>  (1360) 
ATP-HTVS-D63540CFF382

>  <compound_code>  (1360) 
77571

>  <title>  (1360) 
rxn502b____EMOL49828498____EMOL30488121____EMOL712348

>  <variant>  (1360) 
77571-2

>  <source_file>  (1360) 
运行/运行/ATP-VSW/ATP-VSW-DOCK_HTVS_1-003_lib/ATP-VSW-DOCK_HTVS_1-003_lib.mae

>  <canonical_smiles>  (1360) 
C[C@H](C(=O)Nc1cnc2ccccc2c1N(CC#N)c1ccccc1)c1ccc(Cl)cc1

>  <scaffold>  (1360) 
O=C(Cc1ccccc1)Nc1cnc2ccccc2c1Nc1ccccc1

>  <molecular_formula>  (1360) 
C26H21ClN4O

$$$$
ATP-HTVS-D650FAE25B13
     RDKit          3D

 58 60  0  0  0  0  0  0  0  0999 V2000
  198.2160  182.8220  156.7369 N   0  0  0  0  0  0  0  0  0  0  0  0
  197.4973  181.7681  156.9469 C   0  0  0  0  0  0  0  0  0  0  0  0
  197.9521  180.5075  156.7818 N   0  0  0  0  0  0  0  0  0  0  0  0
  199.2084  180.2838  156.3699 C   0  0  0  0  0  0  0  0  0  0  0  0
  199.5755  178.9583  156.1330 N   0  0  0  0  0  0  0  0  0  0  0  0
  200.8454  178.6880  155.4719 C   0  0  1  0  0  0  0  0  0  0  0  0
  200.9835  177.2357  155.1205 C   0  0  0  0  0  0  0  0  0  0  0  0
  201.3927  176.3242  156.1084 C   0  0  0  0  0  0  0  0  0  0  0  0
  201.4956  174.9649  155.7822 C   0  0  0  0  0  0  0  0  0  0  0  0
  201.2193  174.4989  154.4729 C   0  0  0  0  0  0  0  0  0  0  0  0
  200.8004  175.4296  153.4947 C   0  0  0  0  0  0  0  0  0  0  0  0
  200.6750  176.7919  153.8204 C   0  0  0  0  0  0  0  0  0  0  0  0
  201.3895  173.0293  154.1210 C   0  0  1  0  0  0  0  0  0  0  0  0
  202.8026  172.6393  153.8678 N   0  0  1  0  0  0  0  0  0  0  0  0
  203.2765  173.0486  152.5253 C   0  0  2  0  0  0  0  0  0  0  0  0
  203.7536  173.0484  154.9285 C   0  0  2  0  0  0  0  0  0  0  0  0
  200.0694  181.4003  156.1923 C   0  0  0  0  0  0  0  0  0  0  0  0
  199.5156  182.7113  156.4258 C   0  0  0  0  0  0  0  0  0  0  0  0
  200.3517  183.8637  156.4770 N   0  0  0  0  0  0  0  0  0  0  0  0
  199.9329  185.1441  157.0730 C   0  0  1  0  0  0  0  0  0  0  0  0
  198.7002  185.1922  157.9672 C   0  0  0  0  0  0  0  0  0  0  0  0
  198.5992  184.2856  159.0739 C   0  0  0  0  0  0  0  0  0  0  0  0
  197.4142  184.1696  159.7844 C   0  0  0  0  0  0  0  0  0  0  0  0
  196.2843  184.9335  159.4303 C   0  0  0  0  0  0  0  0  0  0  0  0
  196.3696  185.8368  158.3588 C   0  0  0  0  0  0  0  0  0  0  0  0
  197.5854  185.9762  157.6447 C   0  0  0  0  0  0  0  0  0  0  0  0
  201.7028  183.7858  155.9502 C   0  0  2  0  0  0  0  0  0  0  0  0
  196.2614  181.9078  157.5222 N   0  0  0  0  0  0  0  0  0  0  0  0
  198.9355  178.2159  156.4013 H   0  0  0  0  0  0  0  0  0  0  0  0
  200.9397  179.2918  154.5660 H   0  0  0  0  0  0  0  0  0  0  0  0
  201.6564  178.9813  156.1406 H   0  0  0  0  0  0  0  0  0  0  0  0
  201.6534  176.6615  157.1057 H   0  0  0  0  0  0  0  0  0  0  0  0
  201.8353  174.2835  156.5311 H   0  0  0  0  0  0  0  0  0  0  0  0
  200.5791  175.0946  152.4937 H   0  0  0  0  0  0  0  0  0  0  0  0
  200.3392  177.4880  153.0664 H   0  0  0  0  0  0  0  0  0  0  0  0
  200.9940  172.4203  154.9337 H   0  0  0  0  0  0  0  0  0  0  0  0
  200.7756  172.7822  153.2479 H   0  0  0  0  0  0  0  0  0  0  0  0
  203.2501  174.1292  152.4107 H   0  0  0  0  0  0  0  0  0  0  0  0
  202.6627  172.6076  151.7401 H   0  0  0  0  0  0  0  0  0  0  0  0
  204.3035  172.7233  152.3657 H   0  0  0  0  0  0  0  0  0  0  0  0
  203.8515  174.1277  154.9825 H   0  0  0  0  0  0  0  0  0  0  0  0
  204.7609  172.6713  154.7395 H   0  0  0  0  0  0  0  0  0  0  0  0
  203.4222  172.6686  155.8965 H   0  0  0  0  0  0  0  0  0  0  0  0
  201.1350  181.2614  155.9278 H   0  0  0  0  0  0  0  0  0  0  0  0
  200.7644  185.5394  157.6641 H   0  0  0  0  0  0  0  0  0  0  0  0
  199.7898  185.8663  156.2655 H   0  0  0  0  0  0  0  0  0  0  0  0
  199.4419  183.6655  159.3189 H   0  0  0  0  0  0  0  0  0  0  0  0
  197.3113  183.3797  160.5272 H   0  0  0  0  0  0  0  0  0  0  0  0
  195.3403  184.7878  159.9483 H   0  0  0  0  0  0  0  0  0  0  0  0
  195.4911  186.3948  158.0506 H   0  0  0  0  0  0  0  0  0  0  0  0
  197.5881  186.5686  156.7391 H   0  0  0  0  0  0  0  0  0  0  0  0
  202.3557  183.2119  156.6041 H   0  0  0  0  0  0  0  0  0  0  0  0
  202.1552  184.7731  155.8421 H   0  0  0  0  0  0  0  0  0  0  0  0
  201.7302  183.3286  154.9646 H   0  0  0  0  0  0  0  0  0  0  0  0
  195.9725  182.8270  157.7770 H   0  0  0  0  0  0  0  0  0  0  0  0
  195.6418  181.1245  157.7342 H   0  0  0  0  0  0  0  0  0  0  0  0
  202.8318  171.6046  153.9010 H   0  0  0  0  0  0  0  0  0  0  0  0
  197.3083  179.6740  157.0109 H   0  0  0  0  0  0  0  0  0  0  0  0
  1  2  1  0
  1 18  2  0
  2  3  2  0
  2 28  1  0
  3  4  1  0
  3 58  1  0
  4  5  1  0
  4 17  2  0
  5  6  1  0
  5 29  1  0
  6  7  1  0
  6 30  1  6
  6 31  1  0
  7  8  1  0
  7 12  2  0
  8  9  2  0
  8 32  1  0
  9 10  1  0
  9 33  1  0
 10 11  2  0
 10 13  1  0
 11 12  1  0
 11 34  1  0
 12 35  1  0
 13 14  1  0
 13 36  1  1
 13 37  1  0
 14 15  1  0
 14 16  1  0
 14 57  1  6
 15 38  1  1
 15 39  1  0
 15 40  1  0
 16 41  1  1
 16 42  1  0
 16 43  1  0
 17 18  1  0
 17 44  1  0
 18 19  1  0
 19 20  1  0
 19 27  1  0
 20 21  1  0
 20 45  1  1
 20 46  1  0
 21 22  2  0
 21 26  1  0
 22 23  1  0
 22 47  1  0
 23 24  2  0
 23 48  1  0
 24 25  1  0
 24 49  1  0
 25 26  2  0
 25 50  1  0
 26 51  1  0
 27 52  1  1
 27 53  1  0
 27 54  1  0
 28 55  1  0
 28 56  1  0
M  CHG  2   3   1  14   1
M  END
>  <s_epik_cmdline>  (1361) 
J2VwaWtfcHl0aG9uJywgJy1waCcsICc3LjAwMDAwMCcsICctcGh0JywgJzIuMDAwMDAwJywgJy1tcycsICcxNicsICctdG4nLCAnOCcsICctbWEnLCAnMjAwJywgJy1pbWFlJywgJzxpbmZpbGUubWFlPicsICctb21hZScsICc8b3V0ZmlsZS5tYWU+Jw==

>  <s_epik_input>  (1361) 
W2NIXTFbY0hdW2NIXVtjSF1bY0hdYzFbQ0gyXU4oW0NIM10pYyhuYzJbTkgyXSlbY0hdYyhuMilbTkhdW0NIMl1jM1tjSF1bY0hdYyhbY0hdW2NIXTMpW0NIMl1OKFtDSDNdKVtDSDNd

>  <s_i_glide_gridfile>  (1361) 
ATP-Grid

>  <s_lp_Force_Field>  (1361) 
OPLS_2005

>  <s_lp_Variant>  (1361) 
rxn102c____EMOL42620563____EMOL50155899-3

>  <s_lp_label>  (1361) 
2351_sdstereoexpander_1_neutralizer_1_epik_3_stereoizer_1

>  <s_m_source_file>  (1361) 
ATP-VSW-LIGPREP-003-in.maegz

>  <s_sd_BIOSOLVEIT.INFINISEE\_QUERY\_NAME>  (1361) 
Ref-Lig

>  <s_sd_BIOSOLVEIT.INFINISEE\_QUERY\_SMILES>  (1361) 
S(c1nc2c(cc1C[NH2+]Cc3ccc(cc3)C[NH+](C)C)cccc2)Cc4ccccc4

>  <s_sd_BIOSOLVEIT.INFINISEE\_REACTION\_NAME>  (1361) 
rxn102c

>  <s_sd_BIOSOLVEIT.INFINISEE\_REAGENT1\_NAME>  (1361) 
EMOL42620563

>  <s_sd_BIOSOLVEIT.INFINISEE\_REAGENT1\_SMILES>  (1361) 
Clc1nc(nc(N(Cc2ccccc2)C)c1)N

>  <s_sd_BIOSOLVEIT.INFINISEE\_REAGENT2\_NAME>  (1361) 
EMOL50155899

>  <s_sd_BIOSOLVEIT.INFINISEE\_REAGENT2\_SMILES>  (1361) 
N(Cc1ccc(cc1)CN)(C)C

>  <s_sd_BIOSOLVEIT.INFINISEE\_SPACE>  (1361) 
eXplore_7tr_2022-12

>  <s_vsw_compound_code>  (1361) 
75203

>  <s_vsw_variant>  (1361) 
75203-3

>  <r_epik_Charging_Adjusted_Penalty>  (1361) 
1.39363365130309

>  <r_epik_Ionization_Penalty>  (1361) 
0.59040000000000004

>  <r_epik_Ionization_Penalty_Charging>  (1361) 
0.59040000000000004

>  <r_epik_Ionization_Penalty_Neutral>  (1361) 
0

>  <r_epik_State_Penalty>  (1361) 
0.80330000000000001

>  <r_i_docking_score>  (1361) 
-4.25804006821489

>  <r_i_glide_ecoul>  (1361) 
-8.5755043029785192

>  <r_i_glide_eff_state_penalty>  (1361) 
0.80330000000000001

>  <r_i_glide_einternal>  (1361) 
2.6054573059082

>  <r_i_glide_emodel>  (1361) 
-52.710844960235796

>  <r_i_glide_energy>  (1361) 
-31.7673645019531

>  <r_i_glide_erotb>  (1361) 
0.94686472963185797

>  <r_i_glide_esite>  (1361) 
-0.42941081476431098

>  <r_i_glide_evdw>  (1361) 
-23.191860198974599

>  <r_i_glide_gscore>  (1361) 
-5.0613400682148901

>  <r_i_glide_hbond>  (1361) 
-0.66911444915577001

>  <r_i_glide_ligand_efficiency>  (1361) 
-0.15207285957910299

>  <r_i_glide_ligand_efficiency_ln>  (1361) 
-0.98288066923292206

>  <r_i_glide_ligand_efficiency_sa>  (1361) 
-0.46178276780658301

>  <r_i_glide_lipo>  (1361) 
-1.41044587853116

>  <r_i_glide_metal>  (1361) 
-0

>  <r_i_glide_rewards>  (1361) 
-1.053315

>  <r_lp_Energy>  (1361) 
17.002507999999999

>  <r_lp_tautomer_probability>  (1361) 
0.42498940569696197

>  <r_qp_ACxDN^.5/SA>  (1361) 
0.0128042

>  <r_qp_CIQPlogS>  (1361) 
-4.5510000000000002

>  <r_qp_EA(eV)>  (1361) 
0.025000000000000001

>  <r_qp_FISA>  (1361) 
99.622

>  <r_qp_FOSA>  (1361) 
309.85599999999999

>  <r_qp_IP(eV)>  (1361) 
8.0719999999999992

>  <r_qp_Jm>  (1361) 
0.0023635728660260798

>  <r_qp_PISA>  (1361) 
334.52100000000002

>  <r_qp_PSA>  (1361) 
66.635000000000005

>  <r_qp_PercentHumanOralAbsorption>  (1361) 
94.484999999999999

>  <r_qp_QPPCaco>  (1361) 
280.59899999999999

>  <r_qp_QPPMDCK>  (1361) 
138.572

>  <r_qp_QPlogBB>  (1361) 
-0.66900000000000004

>  <r_qp_QPlogHERG>  (1361) 
-7.3979999999999997

>  <r_qp_QPlogKhsa>  (1361) 
0.58799999999999997

>  <r_qp_QPlogKp>  (1361) 
-3.3759999999999999

>  <r_qp_QPlogPC16>  (1361) 
14.307

>  <r_qp_QPlogPo/w>  (1361) 
4.0519999999999996

>  <r_qp_QPlogPoct>  (1361) 
21.625

>  <r_qp_QPlogPw>  (1361) 
12.289

>  <r_qp_QPlogS>  (1361) 
-4.827

>  <r_qp_QPpolrz>  (1361) 
43.963999999999999

>  <r_qp_SASA>  (1361) 
743.99900000000002

>  <r_qp_SAamideO>  (1361) 
0

>  <r_qp_SAfluorine>  (1361) 
0

>  <r_qp_WPSA>  (1361) 
0

>  <r_qp_accptHB>  (1361) 
5.5

>  <r_qp_dip^2/V>  (1361) 
0.0021695

>  <r_qp_dipole>  (1361) 
1.6899999999999999

>  <r_qp_donorHB>  (1361) 
3

>  <r_qp_glob>  (1361) 
0.78096239999999995

>  <r_qp_mol_MW>  (1361) 
376.50299999999999

>  <r_qp_volume>  (1361) 
1316.9090000000001

>  <r_sd_BIOSOLVEIT.INFINISEE\_FTREES\_SIMILARITY>  (1361) 
0.92000000000000004

>  <r_sd_BIOSOLVEIT.LOGP>  (1361) 
1.9518

>  <r_sd_BIOSOLVEIT.MOLECULAR\_WEIGHT>  (1361) 
377.51299999999998

>  <r_sd_BIOSOLVEIT.TPSA>  (1361) 
71.510000000000005

>  <i_epik_Tot_Q>  (1361) 
2

>  <i_epik_Tot_abs_Q>  (1361) 
2

>  <i_f3d_flags>  (1361) 
0

>  <i_i_glide_confnum>  (1361) 
4

>  <i_i_glide_lignum>  (1361) 
980

>  <i_i_glide_posenum>  (1361) 
1

>  <i_i_glide_rotatable_bonds>  (1361) 
8

>  <i_lp_mmshare_version>  (1361) 
65135

>  <i_m_ct_format>  (1361) 
2

>  <i_m_source_file_index>  (1361) 
2351

>  <i_qp_#NandO>  (1361) 
6

>  <i_qp_#acid>  (1361) 
0

>  <i_qp_#amide>  (1361) 
0

>  <i_qp_#amidine>  (1361) 
0

>  <i_qp_#amine>  (1361) 
1

>  <i_qp_#in34>  (1361) 
0

>  <i_qp_#in56>  (1361) 
18

>  <i_qp_#metab>  (1361) 
4

>  <i_qp_#nonHatm>  (1361) 
28

>  <i_qp_#noncon>  (1361) 
0

>  <i_qp_#ringatoms>  (1361) 
18

>  <i_qp_#rotor>  (1361) 
9

>  <i_qp_#rtvFG>  (1361) 
0

>  <i_qp_#stars>  (1361) 
0

>  <i_qp_CNS>  (1361) 
0

>  <i_qp_HumanOralAbsorption>  (1361) 
3

>  <i_qp_RuleOfFive>  (1361) 
0

>  <i_qp_RuleOfThree>  (1361) 
0

>  <i_sd_BIOSOLVEIT.INFINISEE\_RESULT\_RANK>  (1361) 
16041

>  <i_sd_version>  (1361) 
0

>  <b_lp_Chiralities_Consistent>  (1361) 
1

>  <b_sd_chiral_flag>  (1361) 
0

>  <canonical_id>  (1361) 
ATP-HTVS-D650FAE25B13

>  <compound_code>  (1361) 
75203

>  <title>  (1361) 
rxn102c____EMOL42620563____EMOL50155899

>  <variant>  (1361) 
75203-3

>  <source_file>  (1361) 
运行/运行/ATP-VSW/ATP-VSW-DOCK_HTVS_1-003_lib/ATP-VSW-DOCK_HTVS_1-003_lib.mae

>  <canonical_smiles>  (1361) 
CN(Cc1ccccc1)c1cc(NCc2ccc(C[NH+](C)C)cc2)[nH+]c(N)n1

>  <scaffold>  (1361) 
c1ccc(CNc2cc(NCc3ccccc3)[nH+]cn2)cc1

>  <molecular_formula>  (1361) 
C22H30N6+2

$$$$
ATP-HTVS-D65E1879A1C4
     RDKit          3D

 56 58  0  0  0  0  0  0  0  0999 V2000
  200.3519  184.7537  159.6888 S   0  0  0  0  0  0  0  0  0  0  0  0
  199.2049  183.7260  158.8621 C   0  0  0  0  0  0  0  0  0  0  0  0
  197.8027  183.8125  159.3326 C   0  0  0  0  0  0  0  0  0  0  0  0
  197.4985  183.5682  160.4973 O   0  0  0  0  0  0  0  0  0  0  0  0
  196.8792  184.1718  158.4274 N   0  0  0  0  0  0  0  0  0  0  0  0
  197.0741  185.3467  157.6635 C   0  0  0  0  0  0  0  0  0  0  0  0
  196.8211  186.6229  158.2302 C   0  0  0  0  0  0  0  0  0  0  0  0
  197.0409  187.7796  157.4528 C   0  0  0  0  0  0  0  0  0  0  0  0
  197.5167  187.6626  156.1360 C   0  0  0  0  0  0  0  0  0  0  0  0
  197.7811  186.3939  155.5859 C   0  0  0  0  0  0  0  0  0  0  0  0
  197.5589  185.2361  156.3516 C   0  0  0  0  0  0  0  0  0  0  0  0
  195.5591  183.5390  158.4273 C   0  0  1  0  0  0  0  0  0  0  0  0
  195.6637  182.0608  157.9973 C   0  0  1  0  0  0  0  0  0  0  0  0
  194.3548  181.4417  157.7767 N   0  0  2  0  0  0  0  0  0  0  0  0
  199.8226  182.9503  157.8974 C   0  0  0  0  0  0  0  0  0  0  0  0
  199.1935  181.9521  157.1071 N   0  0  0  0  0  0  0  0  0  0  0  0
  199.7184  180.7735  156.5402 C   0  0  0  0  0  0  0  0  0  0  0  0
  201.0480  180.3255  156.7645 C   0  0  0  0  0  0  0  0  0  0  0  0
  201.5424  179.1910  156.0998 C   0  0  0  0  0  0  0  0  0  0  0  0
  200.7021  178.4272  155.2655 C   0  0  0  0  0  0  0  0  0  0  0  0
  199.3571  178.8207  155.0848 C   0  0  0  0  0  0  0  0  0  0  0  0
  198.8756  179.9849  155.7189 C   0  0  0  0  0  0  0  0  0  0  0  0
  201.2418  177.1760  154.6002 C   0  0  1  0  0  0  0  0  0  0  0  0
  200.9846  175.9534  155.4081 N   0  0  2  0  0  0  0  0  0  0  0  0
  201.6440  175.9592  156.7376 C   0  0  2  0  0  0  0  0  0  0  0  0
  201.3024  174.7207  154.6512 C   0  0  2  0  0  0  0  0  0  0  0  0
  201.2156  183.2651  157.7660 C   0  0  0  0  0  0  0  0  0  0  0  0
  201.6456  184.2006  158.6659 C   0  0  0  0  0  0  0  0  0  0  0  0
  194.5531  180.4687  157.5309 H   0  0  0  0  0  0  0  0  0  0  0  0
  193.9119  181.9244  156.9942 H   0  0  0  0  0  0  0  0  0  0  0  0
  196.4497  186.7208  159.2409 H   0  0  0  0  0  0  0  0  0  0  0  0
  196.8148  188.7576  157.8610 H   0  0  0  0  0  0  0  0  0  0  0  0
  197.6717  188.5465  155.5370 H   0  0  0  0  0  0  0  0  0  0  0  0
  198.1110  186.3118  154.5654 H   0  0  0  0  0  0  0  0  0  0  0  0
  197.7582  184.2596  155.9257 H   0  0  0  0  0  0  0  0  0  0  0  0
  195.0901  183.6184  159.4122 H   0  0  0  0  0  0  0  0  0  0  0  0
  194.9001  184.0837  157.7480 H   0  0  0  0  0  0  0  0  0  0  0  0
  196.2220  181.9814  157.0669 H   0  0  0  0  0  0  0  0  0  0  0  0
  196.1889  181.4683  158.7411 H   0  0  0  0  0  0  0  0  0  0  0  0
  198.1876  181.9791  157.0960 H   0  0  0  0  0  0  0  0  0  0  0  0
  201.7180  180.8331  157.4437 H   0  0  0  0  0  0  0  0  0  0  0  0
  202.5721  178.9005  156.2416 H   0  0  0  0  0  0  0  0  0  0  0  0
  198.6863  178.2317  154.4634 H   0  0  0  0  0  0  0  0  0  0  0  0
  197.8438  180.2644  155.5692 H   0  0  0  0  0  0  0  0  0  0  0  0
  200.7697  177.0760  153.6164 H   0  0  0  0  0  0  0  0  0  0  0  0
  202.3158  177.2853  154.4220 H   0  0  0  0  0  0  0  0  0  0  0  0
  202.7269  176.0309  156.6315 H   0  0  0  0  0  0  0  0  0  0  0  0
  201.4213  175.0447  157.2872 H   0  0  0  0  0  0  0  0  0  0  0  0
  201.3000  176.7883  157.3570 H   0  0  0  0  0  0  0  0  0  0  0  0
  202.3670  174.6736  154.4174 H   0  0  0  0  0  0  0  0  0  0  0  0
  200.7475  174.6887  153.7133 H   0  0  0  0  0  0  0  0  0  0  0  0
  201.0394  173.8327  155.2256 H   0  0  0  0  0  0  0  0  0  0  0  0
  201.8567  182.7838  157.0372 H   0  0  0  0  0  0  0  0  0  0  0  0
  202.6460  184.5886  158.7898 H   0  0  0  0  0  0  0  0  0  0  0  0
  193.7773  181.4678  158.5982 H   0  0  0  0  0  0  0  0  0  0  0  0
  199.9895  175.9454  155.5883 H   0  0  0  0  0  0  0  0  0  0  0  0
  1  2  1  0
  1 28  1  0
  2  3  1  0
  2 15  2  0
  3  4  2  0
  3  5  1  0
  5  6  1  0
  5 12  1  0
  6  7  2  0
  6 11  1  0
  7  8  1  0
  7 31  1  0
  8  9  2  0
  8 32  1  0
  9 10  1  0
  9 33  1  0
 10 11  2  0
 10 34  1  0
 11 35  1  0
 12 13  1  0
 12 36  1  1
 12 37  1  0
 13 14  1  0
 13 38  1  6
 13 39  1  0
 14 29  1  6
 14 30  1  0
 14 55  1  0
 15 16  1  0
 15 27  1  0
 16 17  1  0
 16 40  1  0
 17 18  1  0
 17 22  2  0
 18 19  2  0
 18 41  1  0
 19 20  1  0
 19 42  1  0
 20 21  2  0
 20 23  1  0
 21 22  1  0
 21 43  1  0
 22 44  1  0
 23 24  1  0
 23 45  1  6
 23 46  1  0
 24 25  1  0
 24 26  1  0
 24 56  1  1
 25 47  1  6
 25 48  1  0
 25 49  1  0
 26 50  1  6
 26 51  1  0
 26 52  1  0
 27 28  2  0
 27 53  1  0
 28 54  1  0
M  CHG  2  14   1  24   1
M  END
>  <s_epik_cmdline>  (1362) 
J2VwaWtfcHl0aG9uJywgJy1waCcsICc3LjAwMDAwMCcsICctcGh0JywgJzIuMDAwMDAwJywgJy1tcycsICcxNicsICctdG4nLCAnOCcsICctbWEnLCAnMjAwJywgJy1pbWFlJywgJzxpbmZpbGUubWFlPicsICctb21hZScsICc8b3V0ZmlsZS5tYWU+Jw==

>  <s_epik_input>  (1362) 
W2NIXTFbY0hdW2NIXVtjSF1bY0hdYzFOKFtDSDJdW0NIMl1bTkgyXSlDKD1PKWMyc1tjSF1bY0hdYzJbTkhdYzNbY0hdW2NIXWMoW2NIXVtjSF0zKVtDSDJdTihbQ0gzXSlbQ0gzXQ==

>  <s_i_glide_gridfile>  (1362) 
ATP-Grid

>  <s_lp_Force_Field>  (1362) 
OPLS_2005

>  <s_lp_Variant>  (1362) 
rxn514b____EMOL530647____EMOL1836585____EMOL2732950-1

>  <s_lp_label>  (1362) 
2830_sdstereoexpander_1_neutralizer_1_epik_1_stereoizer_1

>  <s_m_source_file>  (1362) 
ATP-VSW-LIGPREP-002-in.maegz

>  <s_sd_BIOSOLVEIT.INFINISEE\_QUERY\_NAME>  (1362) 
Ref-Lig

>  <s_sd_BIOSOLVEIT.INFINISEE\_QUERY\_SMILES>  (1362) 
S(c1nc2c(cc1C[NH2+]Cc3ccc(cc3)C[NH+](C)C)cccc2)Cc4ccccc4

>  <s_sd_BIOSOLVEIT.INFINISEE\_REACTION\_NAME>  (1362) 
rxn514b

>  <s_sd_BIOSOLVEIT.INFINISEE\_REAGENT1\_NAME>  (1362) 
EMOL530647

>  <s_sd_BIOSOLVEIT.INFINISEE\_REAGENT1\_SMILES>  (1362) 
N(c1ccccc1)CCN

>  <s_sd_BIOSOLVEIT.INFINISEE\_REAGENT2\_NAME>  (1362) 
EMOL1836585

>  <s_sd_BIOSOLVEIT.INFINISEE\_REAGENT2\_SMILES>  (1362) 
S1C(C(=O)O)=C(NC(=O)OC(C)(C)C)C=C1

>  <s_sd_BIOSOLVEIT.INFINISEE\_REAGENT3\_NAME>  (1362) 
EMOL2732950

>  <s_sd_BIOSOLVEIT.INFINISEE\_REAGENT3\_SMILES>  (1362) 
Brc1ccc(cc1)CN(C)C

>  <s_sd_BIOSOLVEIT.INFINISEE\_SPACE>  (1362) 
eXplore_7tr_2022-12

>  <s_vsw_compound_code>  (1362) 
90530

>  <s_vsw_variant>  (1362) 
90530-1

>  <r_epik_Charging_Adjusted_Penalty>  (1362) 
0.090167710907995594

>  <r_epik_Ionization_Penalty>  (1362) 
0.045100000000000001

>  <r_epik_Ionization_Penalty_Charging>  (1362) 
0.045100000000000001

>  <r_epik_Ionization_Penalty_Neutral>  (1362) 
0

>  <r_epik_State_Penalty>  (1362) 
0.045100000000000001

>  <r_i_docking_score>  (1362) 
-6.0971944712516803

>  <r_i_glide_ecoul>  (1362) 
-15.931653976440399

>  <r_i_glide_eff_state_penalty>  (1362) 
0.045100000000000001

>  <r_i_glide_einternal>  (1362) 
11.091632843017599

>  <r_i_glide_emodel>  (1362) 
-64.063825376842502

>  <r_i_glide_energy>  (1362) 
-42.327192306518597

>  <r_i_glide_erotb>  (1362) 
0.60967920390884101

>  <r_i_glide_esite>  (1362) 
-0.11069832461947

>  <r_i_glide_evdw>  (1362) 
-26.3955383300781

>  <r_i_glide_gscore>  (1362) 
-6.14229447125168

>  <r_i_glide_hbond>  (1362) 
-0.38116191938899102

>  <r_i_glide_ligand_efficiency>  (1362) 
-0.21775694540184601

>  <r_i_glide_ligand_efficiency_ln>  (1362) 
-1.4074115053735301

>  <r_i_glide_ligand_efficiency_sa>  (1362) 
-0.66123833822211497

>  <r_i_glide_lipo>  (1362) 
-1.09726783517701

>  <r_i_glide_metal>  (1362) 
-0

>  <r_i_glide_rewards>  (1362) 
-1.4533205830050799

>  <r_lp_Energy>  (1362) 
51.680922000000002

>  <r_lp_tautomer_probability>  (1362) 
0.99999274205267796

>  <r_qp_ACxDN^.5/SA>  (1362) 
0.0110426

>  <r_qp_CIQPlogS>  (1362) 
-3.895

>  <r_qp_EA(eV)>  (1362) 
0.67000000000000004

>  <r_qp_FISA>  (1362) 
83.799999999999997

>  <r_qp_FOSA>  (1362) 
262.02199999999999

>  <r_qp_IP(eV)>  (1362) 
8.1099999999999994

>  <r_qp_Jm>  (1362) 
0.0015483788366105001

>  <r_qp_PISA>  (1362) 
325.25299999999999

>  <r_qp_PSA>  (1362) 
67.512

>  <r_qp_PercentHumanOralAbsorption>  (1362) 
84.584999999999994

>  <r_qp_QPPCaco>  (1362) 
98.861999999999995

>  <r_qp_QPPMDCK>  (1362) 
75.558999999999997

>  <r_qp_QPlogBB>  (1362) 
0.049000000000000002

>  <r_qp_QPlogHERG>  (1362) 
-7.6040000000000001

>  <r_qp_QPlogKhsa>  (1362) 
0.59599999999999997

>  <r_qp_QPlogKp>  (1362) 
-5.1790000000000003

>  <r_qp_QPlogPC16>  (1362) 
13.721

>  <r_qp_QPlogPo/w>  (1362) 
3.746

>  <r_qp_QPlogPoct>  (1362) 
20.007999999999999

>  <r_qp_QPlogPw>  (1362) 
10.57

>  <r_qp_QPlogS>  (1362) 
-3.2269999999999999

>  <r_qp_QPpolrz>  (1362) 
42.487000000000002

>  <r_qp_SASA>  (1362) 
704.37699999999995

>  <r_qp_SAamideO>  (1362) 
0

>  <r_qp_SAfluorine>  (1362) 
0

>  <r_qp_WPSA>  (1362) 
33.302999999999997

>  <r_qp_accptHB>  (1362) 
5.5

>  <r_qp_dip^2/V>  (1362) 
0.0138964

>  <r_qp_dipole>  (1362) 
4.2210000000000001

>  <r_qp_donorHB>  (1362) 
2

>  <r_qp_glob>  (1362) 
0.81033900000000003

>  <r_qp_mol_MW>  (1362) 
394.53399999999999

>  <r_qp_volume>  (1362) 
1282.2139999999999

>  <r_sd_BIOSOLVEIT.INFINISEE\_FTREES\_SIMILARITY>  (1362) 
0.90600000000000003

>  <r_sd_BIOSOLVEIT.LOGP>  (1362) 
2.0249000000000001

>  <r_sd_BIOSOLVEIT.MOLECULAR\_WEIGHT>  (1362) 
396.55500000000001

>  <r_sd_BIOSOLVEIT.TPSA>  (1362) 
64.420000000000002

>  <i_epik_Tot_Q>  (1362) 
2

>  <i_epik_Tot_abs_Q>  (1362) 
2

>  <i_f3d_flags>  (1362) 
0

>  <i_i_glide_confnum>  (1362) 
1

>  <i_i_glide_lignum>  (1362) 
1386

>  <i_i_glide_posenum>  (1362) 
17

>  <i_i_glide_rotatable_bonds>  (1362) 
9

>  <i_lp_mmshare_version>  (1362) 
65135

>  <i_m_ct_format>  (1362) 
2

>  <i_m_source_file_index>  (1362) 
2830

>  <i_qp_#NandO>  (1362) 
5

>  <i_qp_#acid>  (1362) 
0

>  <i_qp_#amide>  (1362) 
0

>  <i_qp_#amidine>  (1362) 
0

>  <i_qp_#amine>  (1362) 
2

>  <i_qp_#in34>  (1362) 
0

>  <i_qp_#in56>  (1362) 
17

>  <i_qp_#metab>  (1362) 
7

>  <i_qp_#nonHatm>  (1362) 
28

>  <i_qp_#noncon>  (1362) 
0

>  <i_qp_#ringatoms>  (1362) 
17

>  <i_qp_#rotor>  (1362) 
9

>  <i_qp_#rtvFG>  (1362) 
0

>  <i_qp_#stars>  (1362) 
0

>  <i_qp_CNS>  (1362) 
1

>  <i_qp_HumanOralAbsorption>  (1362) 
2

>  <i_qp_RuleOfFive>  (1362) 
0

>  <i_qp_RuleOfThree>  (1362) 
1

>  <i_sd_BIOSOLVEIT.INFINISEE\_RESULT\_RANK>  (1362) 
66454

>  <i_sd_version>  (1362) 
0

>  <b_lp_Chiralities_Consistent>  (1362) 
1

>  <b_sd_chiral_flag>  (1362) 
0

>  <canonical_id>  (1362) 
ATP-HTVS-D65E1879A1C4

>  <compound_code>  (1362) 
90530

>  <title>  (1362) 
rxn514b____EMOL530647____EMOL1836585____EMOL2732950

>  <variant>  (1362) 
90530-1

>  <source_file>  (1362) 
运行/运行/ATP-VSW/ATP-VSW-DOCK_HTVS_1-002_lib.maegz

>  <canonical_smiles>  (1362) 
C[NH+](C)Cc1ccc(Nc2ccsc2C(=O)N(CC[NH3+])c2ccccc2)cc1

>  <scaffold>  (1362) 
O=C(Nc1ccccc1)c1sccc1Nc1ccccc1

>  <molecular_formula>  (1362) 
C22H28N4OS+2

$$$$
ATP-HTVS-D67E347CF5B0
     RDKit          3D

 56 59  0  0  0  0  0  0  0  0999 V2000
  198.5373  182.6234  153.0811 O   0  0  0  0  0  0  0  0  0  0  0  0
  198.2657  181.7791  153.9541 C   0  0  0  0  0  0  0  0  0  0  0  0
  197.9908  180.4653  153.6852 N   0  0  0  0  0  0  0  0  0  0  0  0
  197.9916  179.4101  154.7273 C   0  0  1  0  0  0  0  0  0  0  0  0
  199.2753  178.5793  154.7908 C   0  0  0  0  0  0  0  0  0  0  0  0
  199.7116  178.0912  156.0447 C   0  0  0  0  0  0  0  0  0  0  0  0
  200.8879  177.3201  156.1356 C   0  0  0  0  0  0  0  0  0  0  0  0
  201.6261  177.0161  154.9754 C   0  0  0  0  0  0  0  0  0  0  0  0
  201.1851  177.4841  153.7251 C   0  0  0  0  0  0  0  0  0  0  0  0
  200.0313  178.2668  153.6380 C   0  0  0  0  0  0  0  0  0  0  0  0
  197.7510  180.0452  152.3115 C   0  0  1  0  0  0  0  0  0  0  0  0
  196.2869  180.2053  151.9200 C   0  0  1  0  0  0  0  0  0  0  0  0
  196.1452  179.8592  150.5560 O   0  0  0  0  0  0  0  0  0  0  0  0
  198.1486  182.2307  155.3819 C   0  0  0  0  0  0  0  0  0  0  0  0
  199.2771  182.7340  156.1092 C   0  0  0  0  0  0  0  0  0  0  0  0
  199.0798  183.0595  157.4501 C   0  0  0  0  0  0  0  0  0  0  0  0
  197.9016  182.7786  158.0188 N   0  0  0  0  0  0  0  0  0  0  0  0
  196.8023  182.4522  157.3652 C   0  0  0  0  0  0  0  0  0  0  0  0
  195.5651  182.4423  158.0251 N   0  0  0  0  0  0  0  0  0  0  0  0
  195.4213  182.9286  159.4109 C   0  0  1  0  0  0  0  0  0  0  0  0
  195.7566  184.3995  159.7084 C   0  0  0  0  0  0  0  0  0  0  0  0
  197.0704  184.9034  159.6393 C   0  0  0  0  0  0  0  0  0  0  0  0
  197.4144  186.2278  159.7532 C   0  0  0  0  0  0  0  0  0  0  0  0
  196.4367  187.1183  160.1795 C   0  0  0  0  0  0  0  0  0  0  0  0
  195.1155  186.6546  160.3982 C   0  0  0  0  0  0  0  0  0  0  0  0
  194.7643  185.3070  160.1243 C   0  0  0  0  0  0  0  0  0  0  0  0
  196.8773  182.1225  155.9986 C   0  0  0  0  0  0  0  0  0  0  0  0
  200.1265  183.6551  158.1859 C   0  0  0  0  0  0  0  0  0  0  0  0
  201.3982  183.8165  157.6304 C   0  0  0  0  0  0  0  0  0  0  0  0
  201.6313  183.3971  156.3097 C   0  0  0  0  0  0  0  0  0  0  0  0
  200.5560  182.8782  155.5423 C   0  0  0  0  0  0  0  0  0  0  0  0
  197.7933  179.7823  155.7311 H   0  0  0  0  0  0  0  0  0  0  0  0
  197.1437  178.7459  154.5447 H   0  0  0  0  0  0  0  0  0  0  0  0
  199.1469  178.3134  156.9438 H   0  0  0  0  0  0  0  0  0  0  0  0
  201.2336  176.9650  157.0880 H   0  0  0  0  0  0  0  0  0  0  0  0
  202.5387  176.4366  155.0283 H   0  0  0  0  0  0  0  0  0  0  0  0
  201.7323  177.2691  152.8177 H   0  0  0  0  0  0  0  0  0  0  0  0
  199.7943  178.6001  152.6613 H   0  0  0  0  0  0  0  0  0  0  0  0
  198.4143  180.5967  151.6361 H   0  0  0  0  0  0  0  0  0  0  0  0
  197.9445  179.0032  152.1716 H   0  0  0  0  0  0  0  0  0  0  0  0
  195.6784  179.5335  152.5292 H   0  0  0  0  0  0  0  0  0  0  0  0
  195.9438  181.2301  152.0886 H   0  0  0  0  0  0  0  0  0  0  0  0
  196.5928  179.0393  150.4031 H   0  0  0  0  0  0  0  0  0  0  0  0
  194.8643  181.8286  157.6629 H   0  0  0  0  0  0  0  0  0  0  0  0
  194.3746  182.7400  159.7117 H   0  0  0  0  0  0  0  0  0  0  0  0
  196.0123  182.2859  160.0517 H   0  0  0  0  0  0  0  0  0  0  0  0
  197.9440  184.3284  159.5599 H   0  0  0  0  0  0  0  0  0  0  0  0
  198.4485  186.4966  159.6060 H   0  0  0  0  0  0  0  0  0  0  0  0
  196.7396  188.1496  160.3911 H   0  0  0  0  0  0  0  0  0  0  0  0
  194.3739  187.3536  160.7508 H   0  0  0  0  0  0  0  0  0  0  0  0
  193.7293  184.9736  160.2829 H   0  0  0  0  0  0  0  0  0  0  0  0
  196.0155  181.7520  155.4897 H   0  0  0  0  0  0  0  0  0  0  0  0
  199.9781  183.9828  159.2008 H   0  0  0  0  0  0  0  0  0  0  0  0
  202.2209  184.2241  158.2233 H   0  0  0  0  0  0  0  0  0  0  0  0
  202.6230  183.4756  155.8802 H   0  0  0  0  0  0  0  0  0  0  0  0
  200.7823  182.5530  154.5223 H   0  0  0  0  0  0  0  0  0  0  0  0
  1  2  2  0
  2  3  1  0
  2 14  1  0
  3  4  1  0
  3 11  1  0
  4  5  1  0
  4 32  1  1
  4 33  1  0
  5  6  2  0
  5 10  1  0
  6  7  1  0
  6 34  1  0
  7  8  2  0
  7 35  1  0
  8  9  1  0
  8 36  1  0
  9 10  2  0
  9 37  1  0
 10 38  1  0
 11 12  1  0
 11 39  1  6
 11 40  1  0
 12 13  1  0
 12 41  1  1
 12 42  1  0
 13 43  1  0
 14 15  1  0
 14 27  2  0
 15 16  1  0
 15 31  2  0
 16 17  1  0
 16 28  2  0
 17 18  2  0
 18 19  1  0
 18 27  1  0
 19 20  1  0
 19 44  1  0
 20 21  1  0
 20 45  1  1
 20 46  1  0
 21 22  2  0
 21 26  1  0
 22 23  1  0
 22 47  1  0
 23 24  2  0
 23 48  1  0
 24 25  1  0
 24 49  1  0
 25 26  2  0
 25 50  1  0
 26 51  1  0
 27 52  1  0
 28 29  1  0
 28 53  1  0
 29 30  2  0
 29 54  1  0
 30 31  1  0
 30 55  1  0
 31 56  1  0
M  END
>  <s_epik_cmdline>  (1363) 
J2VwaWtfcHl0aG9uJywgJy1waCcsICc3LjAwMDAwMCcsICctcGh0JywgJzIuMDAwMDAwJywgJy1tcycsICcxNicsICctdG4nLCAnOCcsICctbWEnLCAnMjAwJywgJy1pbWFlJywgJzxpbmZpbGUubWFlPicsICctb21hZScsICc8b3V0ZmlsZS5tYWU+Jw==

>  <s_epik_input>  (1363) 
W2NIXTFbY0hdW2NIXVtjSF1bY0hdYzFbQ0gyXU4oW0NIMl1bQ0gyXVtPSF0pQyg9TyljMltjSF1jKG5jKGMyMylbY0hdW2NIXVtjSF1bY0hdMylbTkhdW0NIMl1jNFtjSF1bY0hdW2NIXVtjSF1bY0hdNA==

>  <s_i_glide_gridfile>  (1363) 
ATP-Grid

>  <s_lp_Force_Field>  (1363) 
OPLS_2005

>  <s_lp_Variant>  (1363) 
m_527bcb____564576____4971430-1

>  <s_lp_label>  (1363) 
1021_sdstereoexpander_1_neutralizer_1_epik_1_stereoizer_1

>  <s_m_source_file>  (1363) 
ATP-VSW-LIGPREP-001-in.maegz

>  <s_sd_BIOSOLVEIT.INFINISEE\_QUERY\_NAME>  (1363) 
Ref-Lig

>  <s_sd_BIOSOLVEIT.INFINISEE\_QUERY\_SMILES>  (1363) 
S(c1nc2c(cc1C[NH2+]Cc3ccc(cc3)C[NH+](C)C)cccc2)Cc4ccccc4

>  <s_sd_BIOSOLVEIT.INFINISEE\_REACTION\_NAME>  (1363) 
m_527bcb

>  <s_sd_BIOSOLVEIT.INFINISEE\_REAGENT1\_SMILES>  (1363) 
[R1*]N(Cc1ccccc1)CCO

>  <s_sd_BIOSOLVEIT.INFINISEE\_REAGENT2\_SMILES>  (1363) 
[R1*]C(=O)c1c2c(nc(NCc3ccccc3)c1)cccc2

>  <s_sd_BIOSOLVEIT.INFINISEE\_SPACE>  (1363) 
REALSpace_44bn_2023-08

>  <s_vsw_compound_code>  (1363) 
32641

>  <s_vsw_variant>  (1363) 
32641-1

>  <r_epik_Charging_Adjusted_Penalty>  (1363) 
0

>  <r_epik_Ionization_Penalty>  (1363) 
0.00020000000000000001

>  <r_epik_Ionization_Penalty_Charging>  (1363) 
0

>  <r_epik_Ionization_Penalty_Neutral>  (1363) 
0.00020000000000000001

>  <r_epik_State_Penalty>  (1363) 
-0

>  <r_i_docking_score>  (1363) 
-3.4029107625536299

>  <r_i_glide_ecoul>  (1363) 
-1.9235970973968499

>  <r_i_glide_eff_state_penalty>  (1363) 
-0

>  <r_i_glide_einternal>  (1363) 
2.7297897338867201

>  <r_i_glide_emodel>  (1363) 
-43.7911638362799

>  <r_i_glide_energy>  (1363) 
-36.548341512680103

>  <r_i_glide_erotb>  (1363) 
0.93121287815819298

>  <r_i_glide_esite>  (1363) 
-0.080730947534888603

>  <r_i_glide_evdw>  (1363) 
-34.624744415283203

>  <r_i_glide_gscore>  (1363) 
-3.4029107625536299

>  <r_i_glide_hbond>  (1363) 
0

>  <r_i_glide_ligand_efficiency>  (1363) 
-0.10977131492108499

>  <r_i_glide_ligand_efficiency_ln>  (1363) 
-0.76746066364635801

>  <r_i_glide_ligand_efficiency_sa>  (1363) 
-0.34483348448594098

>  <r_i_glide_lipo>  (1363) 
-1.6301768168941599

>  <r_i_glide_metal>  (1363) 
-0

>  <r_i_glide_rewards>  (1363) 
-0.60343909090908998

>  <r_lp_Energy>  (1363) 
30.759829

>  <r_lp_tautomer_probability>  (1363) 
1

>  <r_qp_ACxDN^.5/SA>  (1363) 
0.0124718

>  <r_qp_CIQPlogS>  (1363) 
-6.3650000000000002

>  <r_qp_EA(eV)>  (1363) 
0.88500000000000001

>  <r_qp_FISA>  (1363) 
96.638999999999996

>  <r_qp_FOSA>  (1363) 
128.881

>  <r_qp_IP(eV)>  (1363) 
8.3689999999999998

>  <r_qp_Jm>  (1363) 
0.387595344363376

>  <r_qp_PISA>  (1363) 
477.51499999999999

>  <r_qp_PSA>  (1363) 
67.965999999999994

>  <r_qp_PercentHumanOralAbsorption>  (1363) 
100

>  <r_qp_QPPCaco>  (1363) 
1200.807

>  <r_qp_QPPMDCK>  (1363) 
602.90800000000002

>  <r_qp_QPlogBB>  (1363) 
-0.92500000000000004

>  <r_qp_QPlogHERG>  (1363) 
-6.6379999999999999

>  <r_qp_QPlogKhsa>  (1363) 
0.56299999999999994

>  <r_qp_QPlogKp>  (1363) 
-0.754

>  <r_qp_QPlogPC16>  (1363) 
14.914999999999999

>  <r_qp_QPlogPo/w>  (1363) 
4.6909999999999998

>  <r_qp_QPlogPoct>  (1363) 
21.536000000000001

>  <r_qp_QPlogPw>  (1363) 
12.367000000000001

>  <r_qp_QPlogS>  (1363) 
-5.2720000000000002

>  <r_qp_QPpolrz>  (1363) 
45.210000000000001

>  <r_qp_SASA>  (1363) 
703.03499999999997

>  <r_qp_SAamideO>  (1363) 
0

>  <r_qp_SAfluorine>  (1363) 
0

>  <r_qp_WPSA>  (1363) 
0

>  <r_qp_accptHB>  (1363) 
6.2000000000000002

>  <r_qp_dip^2/V>  (1363) 
0.0122039

>  <r_qp_dipole>  (1363) 
4.0039999999999996

>  <r_qp_donorHB>  (1363) 
2

>  <r_qp_glob>  (1363) 
0.82520839999999995

>  <r_qp_mol_MW>  (1363) 
411.50200000000001

>  <r_qp_volume>  (1363) 
1313.902

>  <r_sd_BIOSOLVEIT.INFINISEE\_FTREES\_SIMILARITY>  (1363) 
0.91500000000000004

>  <r_sd_BIOSOLVEIT.LOGP>  (1363) 
4.4816000000000003

>  <r_sd_BIOSOLVEIT.MOLECULAR\_WEIGHT>  (1363) 
411.50299999999999

>  <r_sd_BIOSOLVEIT.TPSA>  (1363) 
65.459999999999994

>  <i_epik_Tot_Q>  (1363) 
0

>  <i_epik_Tot_abs_Q>  (1363) 
0

>  <i_f3d_flags>  (1363) 
0

>  <i_i_glide_confnum>  (1363) 
6

>  <i_i_glide_lignum>  (1363) 
221

>  <i_i_glide_posenum>  (1363) 
6

>  <i_i_glide_rotatable_bonds>  (1363) 
10

>  <i_lp_mmshare_version>  (1363) 
65135

>  <i_m_ct_format>  (1363) 
2

>  <i_m_source_file_index>  (1363) 
1021

>  <i_qp_#NandO>  (1363) 
5

>  <i_qp_#acid>  (1363) 
0

>  <i_qp_#amide>  (1363) 
0

>  <i_qp_#amidine>  (1363) 
0

>  <i_qp_#amine>  (1363) 
0

>  <i_qp_#in34>  (1363) 
0

>  <i_qp_#in56>  (1363) 
22

>  <i_qp_#metab>  (1363) 
3

>  <i_qp_#nonHatm>  (1363) 
31

>  <i_qp_#noncon>  (1363) 
0

>  <i_qp_#ringatoms>  (1363) 
22

>  <i_qp_#rotor>  (1363) 
9

>  <i_qp_#rtvFG>  (1363) 
0

>  <i_qp_#stars>  (1363) 
1

>  <i_qp_CNS>  (1363) 
-1

>  <i_qp_HumanOralAbsorption>  (1363) 
3

>  <i_qp_RuleOfFive>  (1363) 
0

>  <i_qp_RuleOfThree>  (1363) 
0

>  <i_sd_BIOSOLVEIT.INFINISEE\_REAGENT1\_NAME>  (1363) 
564576

>  <i_sd_BIOSOLVEIT.INFINISEE\_REAGENT2\_NAME>  (1363) 
4971430

>  <i_sd_BIOSOLVEIT.INFINISEE\_RESULT\_RANK>  (1363) 
27435

>  <i_sd_version>  (1363) 
0

>  <b_lp_Chiralities_Consistent>  (1363) 
1

>  <b_sd_chiral_flag>  (1363) 
0

>  <canonical_id>  (1363) 
ATP-HTVS-D67E347CF5B0

>  <compound_code>  (1363) 
32641

>  <title>  (1363) 
m_527bcb____564576____4971430

>  <variant>  (1363) 
32641-1

>  <source_file>  (1363) 
运行/运行/ATP-VSW/ATP-VSW-DOCK_HTVS_1-001_lib/ATP-VSW-DOCK_HTVS_1-001_lib

>  <canonical_smiles>  (1363) 
O=C(c1cc(NCc2ccccc2)nc2ccccc12)N(CCO)Cc1ccccc1

>  <scaffold>  (1363) 
O=C(NCc1ccccc1)c1cc(NCc2ccccc2)nc2ccccc12

>  <molecular_formula>  (1363) 
C26H25N3O2

$$$$
ATP-HTVS-D68829BAAF56
     RDKit          3D

 67 70  0  0  0  0  0  0  0  0999 V2000
  198.3381  184.7374  158.2103 N   0  0  0  0  0  0  0  0  0  0  0  0
  198.7714  185.8542  158.7892 C   0  0  0  0  0  0  0  0  0  0  0  0
  198.0132  186.5833  159.6302 N   0  0  0  0  0  0  0  0  0  0  0  0
  196.7501  186.1884  159.9082 C   0  0  0  0  0  0  0  0  0  0  0  0
  196.2341  185.0126  159.3148 C   0  0  0  0  0  0  0  0  0  0  0  0
  197.0816  184.2981  158.4429 C   0  0  0  0  0  0  0  0  0  0  0  0
  196.6519  183.1579  157.7531 N   0  0  0  0  0  0  0  0  0  0  0  0
  197.4314  182.6082  156.6618 C   0  0  1  0  0  0  0  0  0  0  0  0
  196.6467  181.5626  155.8571 C   0  0  1  0  0  0  0  0  0  0  0  0
  197.4261  181.0110  154.6857 C   0  0  0  0  0  0  0  0  0  0  0  0
  197.4375  181.6897  153.4464 C   0  0  0  0  0  0  0  0  0  0  0  0
  198.1868  181.1812  152.3670 C   0  0  0  0  0  0  0  0  0  0  0  0
  198.9269  179.9881  152.5128 C   0  0  0  0  0  0  0  0  0  0  0  0
  198.8988  179.3032  153.7466 C   0  0  0  0  0  0  0  0  0  0  0  0
  198.1482  179.8084  154.8271 C   0  0  0  0  0  0  0  0  0  0  0  0
  199.7604  179.4539  151.3562 C   0  0  1  0  0  0  0  0  0  0  0  0
  198.9476  178.7165  150.3582 N   0  0  1  0  0  0  0  0  0  0  0  0
  199.6937  178.4714  149.1013 C   0  0  2  0  0  0  0  0  0  0  0  0
  198.3480  177.4716  150.8900 C   0  0  2  0  0  0  0  0  0  0  0  0
  194.9054  184.6402  159.5891 C   0  0  0  0  0  0  0  0  0  0  0  0
  194.1153  185.4316  160.4367 C   0  0  0  0  0  0  0  0  0  0  0  0
  194.6359  186.6098  161.0247 C   0  0  0  0  0  0  0  0  0  0  0  0
  195.9633  186.9796  160.7637 C   0  0  0  0  0  0  0  0  0  0  0  0
  200.0329  186.3302  158.5015 N   0  0  0  0  0  0  0  0  0  0  0  0
  201.0999  185.4877  157.9508 C   0  0  1  0  0  0  0  0  0  0  0  0
  201.5095  184.2755  158.7926 C   0  0  0  0  0  0  0  0  0  0  0  0
  201.8173  184.3457  160.1799 C   0  0  0  0  0  0  0  0  0  0  0  0
  202.2242  183.1754  160.8559 C   0  0  0  0  0  0  0  0  0  0  0  0
  202.3380  181.9472  160.1782 C   0  0  0  0  0  0  0  0  0  0  0  0
  202.0316  181.8715  158.8082 C   0  0  0  0  0  0  0  0  0  0  0  0
  202.1270  180.6521  158.1312 N   0  0  0  0  0  0  0  0  0  0  0  0
  201.6202  183.0295  158.1225 C   0  0  0  0  0  0  0  0  0  0  0  0
  201.7664  185.6396  160.9766 C   0  0  2  0  0  0  0  0  0  0  0  0
  195.6716  182.8977  157.7889 H   0  0  0  0  0  0  0  0  0  0  0  0
  197.7354  183.4195  155.9974 H   0  0  0  0  0  0  0  0  0  0  0  0
  198.3503  182.1558  157.0591 H   0  0  0  0  0  0  0  0  0  0  0  0
  196.3472  180.7431  156.5137 H   0  0  0  0  0  0  0  0  0  0  0  0
  195.7170  181.9883  155.4775 H   0  0  0  0  0  0  0  0  0  0  0  0
  196.8716  182.6037  153.3251 H   0  0  0  0  0  0  0  0  0  0  0  0
  198.1984  181.7178  151.4286 H   0  0  0  0  0  0  0  0  0  0  0  0
  199.4523  178.3846  153.8778 H   0  0  0  0  0  0  0  0  0  0  0  0
  198.1248  179.2721  155.7659 H   0  0  0  0  0  0  0  0  0  0  0  0
  200.2487  180.3023  150.8758 H   0  0  0  0  0  0  0  0  0  0  0  0
  200.5603  178.8157  151.7322 H   0  0  0  0  0  0  0  0  0  0  0  0
  200.5570  177.8269  149.2766 H   0  0  0  0  0  0  0  0  0  0  0  0
  200.0511  179.4070  148.6680 H   0  0  0  0  0  0  0  0  0  0  0  0
  199.0583  177.9885  148.3563 H   0  0  0  0  0  0  0  0  0  0  0  0
  199.1156  176.7760  151.2291 H   0  0  0  0  0  0  0  0  0  0  0  0
  197.7602  176.9690  150.1208 H   0  0  0  0  0  0  0  0  0  0  0  0
  197.6861  177.6854  151.7328 H   0  0  0  0  0  0  0  0  0  0  0  0
  194.4656  183.7615  159.1326 H   0  0  0  0  0  0  0  0  0  0  0  0
  193.0879  185.1642  160.6034 H   0  0  0  0  0  0  0  0  0  0  0  0
  194.0051  187.2182  161.6548 H   0  0  0  0  0  0  0  0  0  0  0  0
  196.3506  187.8834  161.2110 H   0  0  0  0  0  0  0  0  0  0  0  0
  200.3345  187.1302  159.0199 H   0  0  0  0  0  0  0  0  0  0  0  0
  200.7921  185.1601  156.9559 H   0  0  0  0  0  0  0  0  0  0  0  0
  201.9787  186.1144  157.8047 H   0  0  0  0  0  0  0  0  0  0  0  0
  202.4539  183.2118  161.9082 H   0  0  0  0  0  0  0  0  0  0  0  0
  202.6405  181.0603  160.7201 H   0  0  0  0  0  0  0  0  0  0  0  0
  201.7490  180.5453  157.2020 H   0  0  0  0  0  0  0  0  0  0  0  0
  202.2604  179.7902  158.6354 H   0  0  0  0  0  0  0  0  0  0  0  0
  201.4010  182.9668  157.0670 H   0  0  0  0  0  0  0  0  0  0  0  0
  201.9790  185.4663  162.0365 H   0  0  0  0  0  0  0  0  0  0  0  0
  200.7769  186.0876  160.9331 H   0  0  0  0  0  0  0  0  0  0  0  0
  202.4993  186.3527  160.5985 H   0  0  0  0  0  0  0  0  0  0  0  0
  198.3574  187.4283  160.0649 H   0  0  0  0  0  0  0  0  0  0  0  0
  198.1806  179.3280  150.1177 H   0  0  0  0  0  0  0  0  0  0  0  0
  1  2  1  0
  1  6  2  0
  2  3  2  0
  2 24  1  0
  3  4  1  0
  3 66  1  0
  4  5  1  0
  4 23  2  0
  5  6  1  0
  5 20  2  0
  6  7  1  0
  7  8  1  0
  7 34  1  0
  8  9  1  0
  8 35  1  6
  8 36  1  0
  9 10  1  0
  9 37  1  1
  9 38  1  0
 10 11  1  0
 10 15  2  0
 11 12  2  0
 11 39  1  0
 12 13  1  0
 12 40  1  0
 13 14  2  0
 13 16  1  0
 14 15  1  0
 14 41  1  0
 15 42  1  0
 16 17  1  0
 16 43  1  6
 16 44  1  0
 17 18  1  0
 17 19  1  0
 17 67  1  6
 18 45  1  1
 18 46  1  0
 18 47  1  0
 19 48  1  1
 19 49  1  0
 19 50  1  0
 20 21  1  0
 20 51  1  0
 21 22  2  0
 21 52  1  0
 22 23  1  0
 22 53  1  0
 23 54  1  0
 24 25  1  0
 24 55  1  0
 25 26  1  0
 25 56  1  6
 25 57  1  0
 26 27  2  0
 26 32  1  0
 27 28  1  0
 27 33  1  0
 28 29  2  0
 28 58  1  0
 29 30  1  0
 29 59  1  0
 30 31  1  0
 30 32  2  0
 31 60  1  0
 31 61  1  0
 32 62  1  0
 33 63  1  1
 33 64  1  0
 33 65  1  0
M  CHG  2   3   1  17   1
M  END
>  <s_epik_cmdline>  (1364) 
J2VwaWtfcHl0aG9uJywgJy1waCcsICc3LjAwMDAwMCcsICctcGh0JywgJzIuMDAwMDAwJywgJy1tcycsICcxNicsICctdG4nLCAnOCcsICctbWEnLCAnMjAwJywgJy1pbWFlJywgJzxpbmZpbGUubWFlPicsICctb21hZScsICc8b3V0ZmlsZS5tYWU+Jw==

>  <s_epik_input>  (1364) 
W05IMl1jKFtjSF0xKVtjSF1bY0hdYyhbQ0gzXSljMVtDSDJdW05IXWMobjIpbmMoYyhjMjMpW2NIXVtjSF1bY0hdW2NIXTMpW05IXVtDSDJdW0NIMl1jNFtjSF1bY0hdYyhbY0hdW2NIXTQpW0NIMl1OKFtDSDNdKVtDSDNd

>  <s_i_glide_gridfile>  (1364) 
ATP-Grid

>  <s_lp_Force_Field>  (1364) 
OPLS_2005

>  <s_lp_Variant>  (1364) 
m_282030aaa____21898820____22360182____21967972-1

>  <s_lp_label>  (1364) 
1103_sdstereoexpander_1_neutralizer_1_epik_1_stereoizer_1

>  <s_m_source_file>  (1364) 
ATP-VSW-LIGPREP-002-in.maegz

>  <s_sd_BIOSOLVEIT.INFINISEE\_QUERY\_NAME>  (1364) 
Ref-Lig

>  <s_sd_BIOSOLVEIT.INFINISEE\_QUERY\_SMILES>  (1364) 
S(c1nc2c(cc1C[NH2+]Cc3ccc(cc3)C[NH+](C)C)cccc2)Cc4ccccc4

>  <s_sd_BIOSOLVEIT.INFINISEE\_REACTION\_NAME>  (1364) 
m_282030aaa

>  <s_sd_BIOSOLVEIT.INFINISEE\_REAGENT1\_SMILES>  (1364) 
[R1*]NCc1c(ccc(N)c1)C

>  <s_sd_BIOSOLVEIT.INFINISEE\_REAGENT2\_SMILES>  (1364) 
[R2*]c1nc([R1*])c2c(n1)cccc2

>  <s_sd_BIOSOLVEIT.INFINISEE\_REAGENT3\_SMILES>  (1364) 
[R2*]NCCc1ccc(cc1)CN(C)C

>  <s_sd_BIOSOLVEIT.INFINISEE\_SPACE>  (1364) 
REALSpace_44bn_2023-08

>  <s_vsw_compound_code>  (1364) 
35266

>  <s_vsw_variant>  (1364) 
35266-1

>  <r_epik_Charging_Adjusted_Penalty>  (1364) 
0.11590579526111

>  <r_epik_Ionization_Penalty>  (1364) 
0.063

>  <r_epik_Ionization_Penalty_Charging>  (1364) 
0.054600000000000003

>  <r_epik_Ionization_Penalty_Neutral>  (1364) 
0.0083999999999999995

>  <r_epik_State_Penalty>  (1364) 
0.0613

>  <r_i_docking_score>  (1364) 
-3.8828199346423999

>  <r_i_glide_ecoul>  (1364) 
-5.1211676597595197

>  <r_i_glide_eff_state_penalty>  (1364) 
0.0613

>  <r_i_glide_einternal>  (1364) 
1.3802535533905

>  <r_i_glide_emodel>  (1364) 
-49.514869726124502

>  <r_i_glide_energy>  (1364) 
-35.171336650848403

>  <r_i_glide_erotb>  (1364) 
0.81614353935777395

>  <r_i_glide_esite>  (1364) 
-0.0361543055185947

>  <r_i_glide_evdw>  (1364) 
-30.050168991088899

>  <r_i_glide_gscore>  (1364) 
-3.9441199346424001

>  <r_i_glide_hbond>  (1364) 
0

>  <r_i_glide_ligand_efficiency>  (1364) 
-0.117661210140679

>  <r_i_glide_ligand_efficiency_ln>  (1364) 
-0.86351904929880097

>  <r_i_glide_ligand_efficiency_sa>  (1364) 
-0.37740237039521701

>  <r_i_glide_lipo>  (1364) 
-1.9554237117708499

>  <r_i_glide_metal>  (1364) 
-0

>  <r_i_glide_rewards>  (1364) 
-0.49800185819235698

>  <r_lp_Energy>  (1364) 
17.461807

>  <r_qp_ACxDN^.5/SA>  (1364) 
0.015192799999999999

>  <r_qp_CIQPlogS>  (1364) 
-5.8209999999999997

>  <r_qp_EA(eV)>  (1364) 
0.52500000000000002

>  <r_qp_FISA>  (1364) 
84.832999999999998

>  <r_qp_FOSA>  (1364) 
330.99900000000002

>  <r_qp_IP(eV)>  (1364) 
7.8940000000000001

>  <r_qp_Jm>  (1364) 
0.0179612173423918

>  <r_qp_PISA>  (1364) 
323.00200000000001

>  <r_qp_PSA>  (1364) 
70.971000000000004

>  <r_qp_PercentHumanOralAbsorption>  (1364) 
100

>  <r_qp_QPPCaco>  (1364) 
387.55200000000002

>  <r_qp_QPPMDCK>  (1364) 
196.45500000000001

>  <r_qp_QPlogBB>  (1364) 
-0.46400000000000002

>  <r_qp_QPlogHERG>  (1364) 
-6.5709999999999997

>  <r_qp_QPlogKhsa>  (1364) 
0.73599999999999999

>  <r_qp_QPlogKp>  (1364) 
-3.048

>  <r_qp_QPlogPC16>  (1364) 
15.061999999999999

>  <r_qp_QPlogPo/w>  (1364) 
4.5540000000000003

>  <r_qp_QPlogPoct>  (1364) 
24.077000000000002

>  <r_qp_QPlogPw>  (1364) 
13.102

>  <r_qp_QPlogS>  (1364) 
-4.3419999999999996

>  <r_qp_QPpolrz>  (1364) 
47.514000000000003

>  <r_qp_SASA>  (1364) 
738.83299999999997

>  <r_qp_SAamideO>  (1364) 
0

>  <r_qp_SAfluorine>  (1364) 
0

>  <r_qp_WPSA>  (1364) 
0

>  <r_qp_accptHB>  (1364) 
6

>  <r_qp_dip^2/V>  (1364) 
0.0080129999999999993

>  <r_qp_dipole>  (1364) 
3.3780000000000001

>  <r_qp_donorHB>  (1364) 
3.5

>  <r_qp_glob>  (1364) 
0.82865580000000005

>  <r_qp_mol_MW>  (1364) 
440.58999999999997

>  <r_qp_volume>  (1364) 
1424.405

>  <r_sd_BIOSOLVEIT.INFINISEE\_FTREES\_SIMILARITY>  (1364) 
0.91300000000000003

>  <r_sd_BIOSOLVEIT.LOGP>  (1364) 
3.4316200000000001

>  <r_sd_BIOSOLVEIT.MOLECULAR\_WEIGHT>  (1364) 
441.60000000000002

>  <r_sd_BIOSOLVEIT.TPSA>  (1364) 
80.299999999999997

>  <i_epik_Tot_Q>  (1364) 
2

>  <i_epik_Tot_abs_Q>  (1364) 
2

>  <i_f3d_flags>  (1364) 
0

>  <i_i_glide_confnum>  (1364) 
5

>  <i_i_glide_lignum>  (1364) 
368

>  <i_i_glide_posenum>  (1364) 
1

>  <i_i_glide_rotatable_bonds>  (1364) 
9

>  <i_lp_mmshare_version>  (1364) 
65135

>  <i_m_ct_format>  (1364) 
2

>  <i_m_source_file_index>  (1364) 
1103

>  <i_qp_#NandO>  (1364) 
6

>  <i_qp_#acid>  (1364) 
0

>  <i_qp_#amide>  (1364) 
0

>  <i_qp_#amidine>  (1364) 
0

>  <i_qp_#amine>  (1364) 
1

>  <i_qp_#in34>  (1364) 
0

>  <i_qp_#in56>  (1364) 
22

>  <i_qp_#metab>  (1364) 
7

>  <i_qp_#nonHatm>  (1364) 
33

>  <i_qp_#noncon>  (1364) 
0

>  <i_qp_#ringatoms>  (1364) 
22

>  <i_qp_#rotor>  (1364) 
10

>  <i_qp_#rtvFG>  (1364) 
0

>  <i_qp_#stars>  (1364) 
1

>  <i_qp_CNS>  (1364) 
0

>  <i_qp_HumanOralAbsorption>  (1364) 
3

>  <i_qp_RuleOfFive>  (1364) 
0

>  <i_qp_RuleOfThree>  (1364) 
1

>  <i_sd_BIOSOLVEIT.INFINISEE\_REAGENT1\_NAME>  (1364) 
21898820

>  <i_sd_BIOSOLVEIT.INFINISEE\_REAGENT2\_NAME>  (1364) 
22360182

>  <i_sd_BIOSOLVEIT.INFINISEE\_REAGENT3\_NAME>  (1364) 
21967972

>  <i_sd_BIOSOLVEIT.INFINISEE\_RESULT\_RANK>  (1364) 
33494

>  <i_sd_version>  (1364) 
0

>  <b_lp_Chiralities_Consistent>  (1364) 
1

>  <b_sd_chiral_flag>  (1364) 
0

>  <canonical_id>  (1364) 
ATP-HTVS-D68829BAAF56

>  <compound_code>  (1364) 
35266

>  <title>  (1364) 
m_282030aaa____21898820____22360182____21967972

>  <variant>  (1364) 
35266-1

>  <source_file>  (1364) 
运行/运行/ATP-VSW/ATP-VSW-DOCK_HTVS_1-002_lib.maegz

>  <canonical_smiles>  (1364) 
Cc1ccc(N)cc1CNc1nc(NCCc2ccc(C[NH+](C)C)cc2)c2ccccc2[nH+]1

>  <scaffold>  (1364) 
c1ccc(CCNc2nc(NCc3ccccc3)[nH+]c3ccccc23)cc1

>  <molecular_formula>  (1364) 
C27H34N6+2

$$$$
ATP-HTVS-D6CA2B69D609
     RDKit          3D

 47 50  0  0  0  0  0  0  0  0999 V2000
  199.9139  191.5076  155.4935 Cl  0  0  0  0  0  0  0  0  0  0  0  0
  199.0586  190.8898  156.8597 C   0  0  0  0  0  0  0  0  0  0  0  0
  199.2072  189.5403  157.1976 C   0  0  0  0  0  0  0  0  0  0  0  0
  198.5413  188.9821  158.3158 C   0  0  0  0  0  0  0  0  0  0  0  0
  197.6945  189.8286  159.0957 C   0  0  0  0  0  0  0  0  0  0  0  0
  196.9888  189.3538  160.2354 N   0  0  0  0  0  0  0  0  0  0  0  0
  196.3610  188.1564  160.2846 C   0  0  0  0  0  0  0  0  0  0  0  0
  195.8345  187.7279  161.3049 O   0  0  0  0  0  0  0  0  0  0  0  0
  196.2573  187.3169  158.9786 C   0  0  1  0  0  0  0  0  0  0  0  0
  197.5507  186.6592  158.5593 N   0  0  0  0  0  0  0  0  0  0  0  0
  198.7544  187.5122  158.7131 C   0  0  1  0  0  0  0  0  0  0  0  0
  199.9430  186.9106  157.9659 C   0  0  0  0  0  0  0  0  0  0  0  0
  199.7789  186.3953  156.6555 C   0  0  0  0  0  0  0  0  0  0  0  0
  198.5776  186.4425  156.0305 F   0  0  0  0  0  0  0  0  0  0  0  0
  200.8774  185.8800  155.9548 C   0  0  0  0  0  0  0  0  0  0  0  0
  202.1485  185.8773  156.5585 C   0  0  0  0  0  0  0  0  0  0  0  0
  202.3244  186.3873  157.8595 C   0  0  0  0  0  0  0  0  0  0  0  0
  201.2224  186.9035  158.5690 C   0  0  0  0  0  0  0  0  0  0  0  0
  197.7912  185.3488  159.1961 C   0  0  1  0  0  0  0  0  0  0  0  0
  196.7091  184.2859  158.9849 C   0  0  0  0  0  0  0  0  0  0  0  0
  196.9608  183.1842  158.1510 C   0  0  0  0  0  0  0  0  0  0  0  0
  195.9418  182.2192  157.9302 C   0  0  0  0  0  0  0  0  0  0  0  0
  194.6708  182.4131  158.5092 C   0  0  0  0  0  0  0  0  0  0  0  0
  193.6100  181.4310  158.2849 C   0  0  0  0  0  0  0  0  0  0  0  0
  192.7157  180.6225  158.1339 C   0  0  0  0  0  0  0  0  0  0  0  0
  194.4223  183.5229  159.3196 C   0  0  0  0  0  0  0  0  0  0  0  0
  195.4592  184.4099  159.6148 C   0  0  0  0  0  0  0  0  0  0  0  0
  197.5523  191.1897  158.7465 C   0  0  0  0  0  0  0  0  0  0  0  0
  198.2327  191.7193  157.6348 C   0  0  0  0  0  0  0  0  0  0  0  0
  199.8684  188.9677  156.5717 H   0  0  0  0  0  0  0  0  0  0  0  0
  196.8724  189.9741  161.0238 H   0  0  0  0  0  0  0  0  0  0  0  0
  195.4230  186.6809  159.0099 H   0  0  0  0  0  0  0  0  0  0  0  0
  195.9985  188.0153  158.1634 H   0  0  0  0  0  0  0  0  0  0  0  0
  199.0283  187.5327  159.7672 H   0  0  0  0  0  0  0  0  0  0  0  0
  200.7270  185.5112  154.9515 H   0  0  0  0  0  0  0  0  0  0  0  0
  202.9867  185.4779  156.0130 H   0  0  0  0  0  0  0  0  0  0  0  0
  203.3016  186.3842  158.3177 H   0  0  0  0  0  0  0  0  0  0  0  0
  201.3620  187.3167  159.5606 H   0  0  0  0  0  0  0  0  0  0  0  0
  198.6976  184.9097  158.7824 H   0  0  0  0  0  0  0  0  0  0  0  0
  197.9763  185.4598  160.2597 H   0  0  0  0  0  0  0  0  0  0  0  0
  197.9317  183.0249  157.6926 H   0  0  0  0  0  0  0  0  0  0  0  0
  196.1505  181.3475  157.3374 H   0  0  0  0  0  0  0  0  0  0  0  0
  191.9367  179.9123  157.9896 H   0  0  0  0  0  0  0  0  0  0  0  0
  193.4352  183.7224  159.7270 H   0  0  0  0  0  0  0  0  0  0  0  0
  195.2492  185.2280  160.3024 H   0  0  0  0  0  0  0  0  0  0  0  0
  196.9129  191.8336  159.3302 H   0  0  0  0  0  0  0  0  0  0  0  0
  198.1288  192.7579  157.3686 H   0  0  0  0  0  0  0  0  0  0  0  0
  1  2  1  0
  2  3  2  0
  2 29  1  0
  3  4  1  0
  3 30  1  0
  4  5  2  0
  4 11  1  0
  5  6  1  0
  5 28  1  0
  6  7  1  0
  6 31  1  0
  7  8  2  0
  7  9  1  0
  9 10  1  0
  9 32  1  1
  9 33  1  0
 10 11  1  0
 10 19  1  0
 11 12  1  0
 11 34  1  1
 12 13  1  0
 12 18  2  0
 13 14  1  0
 13 15  2  0
 15 16  1  0
 15 35  1  0
 16 17  2  0
 16 36  1  0
 17 18  1  0
 17 37  1  0
 18 38  1  0
 19 20  1  0
 19 39  1  6
 19 40  1  0
 20 21  1  0
 20 27  2  0
 21 22  2  0
 21 41  1  0
 22 23  1  0
 22 42  1  0
 23 24  1  0
 23 26  2  0
 24 25  3  0
 25 43  1  0
 26 27  1  0
 26 44  1  0
 27 45  1  0
 28 29  2  0
 28 46  1  0
 29 47  1  0
M  END
>  <s_epik_cmdline>  (1365) 
J2VwaWtfcHl0aG9uJywgJy1waCcsICc3LjAwMDAwMCcsICctcGh0JywgJzIuMDAwMDAwJywgJy1tcycsICcxNicsICctdG4nLCAnOCcsICctbWEnLCAnMjAwJywgJy1pbWFlJywgJzxpbmZpbGUubWFlPicsICctb21hZScsICc8b3V0ZmlsZS5tYWU+Jw==

>  <s_epik_input>  (1365) 
Q2xjKFtjSF0xKVtjSF1bY0hdYyhjMTIpW05IXUMoPU8pW0NIMl1OKFtDQEhdMmMzYyhGKVtjSF1bY0hdW2NIXVtjSF0zKVtDSDJdYzRbY0hdW2NIXWMoQyNbQ0hdKVtjSF1bY0hdNA==

>  <s_i_glide_gridfile>  (1365) 
ATP-Grid

>  <s_lp_Force_Field>  (1365) 
OPLS_2005

>  <s_lp_Variant>  (1365) 
m_2230bdc____14772912____22389152-1

>  <s_lp_label>  (1365) 
1783_sdstereoexpander_1_neutralizer_1_epik_1_stereoizer_1

>  <s_m_source_file>  (1365) 
ATP-VSW-LIGPREP-002-in.maegz

>  <s_sd_BIOSOLVEIT.INFINISEE\_QUERY\_NAME>  (1365) 
Ref-Lig

>  <s_sd_BIOSOLVEIT.INFINISEE\_QUERY\_SMILES>  (1365) 
S(c1nc2c(cc1C[NH2+]Cc3ccc(cc3)C[NH+](C)C)cccc2)Cc4ccccc4

>  <s_sd_BIOSOLVEIT.INFINISEE\_REACTION\_NAME>  (1365) 
m_2230bdc

>  <s_sd_BIOSOLVEIT.INFINISEE\_REAGENT1\_SMILES>  (1365) 
[R1*]N1C(c2c(F)cccc2)c3c(NC(=O)C1)ccc(Cl)c3

>  <s_sd_BIOSOLVEIT.INFINISEE\_REAGENT2\_SMILES>  (1365) 
[R1*]Cc1ccc(C#C)cc1

>  <s_sd_BIOSOLVEIT.INFINISEE\_SPACE>  (1365) 
REALSpace_44bn_2023-08

>  <s_vsw_compound_code>  (1365) 
57026

>  <s_vsw_variant>  (1365) 
57026-1

>  <r_epik_Charging_Adjusted_Penalty>  (1365) 
0.0073990967497685701

>  <r_epik_Ionization_Penalty>  (1365) 
0.0074000000000000003

>  <r_epik_Ionization_Penalty_Charging>  (1365) 
0

>  <r_epik_Ionization_Penalty_Neutral>  (1365) 
0.0074000000000000003

>  <r_epik_State_Penalty>  (1365) 
0.0074000000000000003

>  <r_i_docking_score>  (1365) 
-1.18273573419558

>  <r_i_glide_ecoul>  (1365) 
-0.392001032829285

>  <r_i_glide_eff_state_penalty>  (1365) 
0.0074000000000000003

>  <r_i_glide_einternal>  (1365) 
2.4113416671752899

>  <r_i_glide_emodel>  (1365) 
-36.416255596185898

>  <r_i_glide_energy>  (1365) 
-35.071009516716003

>  <r_i_glide_erotb>  (1365) 
0.479449907288925

>  <r_i_glide_esite>  (1365) 
-0.031079456501291701

>  <r_i_glide_evdw>  (1365) 
-34.679008483886697

>  <r_i_glide_gscore>  (1365) 
-1.1901357341955801

>  <r_i_glide_hbond>  (1365) 
0

>  <r_i_glide_ligand_efficiency>  (1365) 
-0.040783990834330298

>  <r_i_glide_ligand_efficiency_ln>  (1365) 
-0.27081649154031301

>  <r_i_glide_ligand_efficiency_sa>  (1365) 
-0.125301341118288

>  <r_i_glide_lipo>  (1365) 
-1.08450888757914

>  <r_i_glide_metal>  (1365) 
-0

>  <r_i_glide_rewards>  (1365) 
1.23875328171465

>  <r_lp_Energy>  (1365) 
53.394804000000001

>  <r_qp_ACxDN^.5/SA>  (1365) 
0.0082711999999999994

>  <r_qp_CIQPlogS>  (1365) 
-5.5099999999999998

>  <r_qp_EA(eV)>  (1365) 
0.48099999999999998

>  <r_qp_FISA>  (1365) 
66.561000000000007

>  <r_qp_FOSA>  (1365) 
76.558999999999997

>  <r_qp_IP(eV)>  (1365) 
9.3680000000000003

>  <r_qp_Jm>  (1365) 
0.0016401821253790301

>  <r_qp_PISA>  (1365) 
433.09199999999998

>  <r_qp_PSA>  (1365) 
42.518000000000001

>  <r_qp_PercentHumanOralAbsorption>  (1365) 
100

>  <r_qp_QPPCaco>  (1365) 
577.56700000000001

>  <r_qp_QPPMDCK>  (1365) 
942.37

>  <r_qp_QPlogBB>  (1365) 
0.34499999999999997

>  <r_qp_QPlogHERG>  (1365) 
-7.21

>  <r_qp_QPlogKhsa>  (1365) 
0.86499999999999999

>  <r_qp_QPlogKp>  (1365) 
-2.9950000000000001

>  <r_qp_QPlogPC16>  (1365) 
13.656000000000001

>  <r_qp_QPlogPo/w>  (1365) 
4.742

>  <r_qp_QPlogPoct>  (1365) 
20.181000000000001

>  <r_qp_QPlogPw>  (1365) 
10.721

>  <r_qp_QPlogS>  (1365) 
-5.3970000000000002

>  <r_qp_QPpolrz>  (1365) 
44.259999999999998

>  <r_qp_SASA>  (1365) 
666.33100000000002

>  <r_qp_SAamideO>  (1365) 
0

>  <r_qp_SAfluorine>  (1365) 
18.588000000000001

>  <r_qp_WPSA>  (1365) 
90.119

>  <r_qp_accptHB>  (1365) 
4.5

>  <r_qp_dip^2/V>  (1365) 
0.030383

>  <r_qp_dipole>  (1365) 
6.0490000000000004

>  <r_qp_donorHB>  (1365) 
1.5

>  <r_qp_glob>  (1365) 
0.82163549999999996

>  <r_qp_mol_MW>  (1365) 
404.87

>  <r_qp_volume>  (1365) 
1204.498

>  <r_sd_BIOSOLVEIT.INFINISEE\_FTREES\_SIMILARITY>  (1365) 
0.90400000000000003

>  <r_sd_BIOSOLVEIT.LOGP>  (1365) 
3.5870000000000002

>  <r_sd_BIOSOLVEIT.MOLECULAR\_WEIGHT>  (1365) 
405.87799999999999

>  <r_sd_BIOSOLVEIT.TPSA>  (1365) 
33.539999999999999

>  <i_epik_Tot_Q>  (1365) 
0

>  <i_epik_Tot_abs_Q>  (1365) 
0

>  <i_f3d_flags>  (1365) 
0

>  <i_i_glide_confnum>  (1365) 
6

>  <i_i_glide_lignum>  (1365) 
617

>  <i_i_glide_posenum>  (1365) 
13

>  <i_i_glide_rotatable_bonds>  (1365) 
4

>  <i_lp_mmshare_version>  (1365) 
65135

>  <i_m_ct_format>  (1365) 
2

>  <i_m_source_file_index>  (1365) 
1783

>  <i_qp_#NandO>  (1365) 
3

>  <i_qp_#acid>  (1365) 
0

>  <i_qp_#amide>  (1365) 
0

>  <i_qp_#amidine>  (1365) 
0

>  <i_qp_#amine>  (1365) 
1

>  <i_qp_#in34>  (1365) 
0

>  <i_qp_#in56>  (1365) 
18

>  <i_qp_#metab>  (1365) 
6

>  <i_qp_#nonHatm>  (1365) 
29

>  <i_qp_#noncon>  (1365) 
2

>  <i_qp_#ringatoms>  (1365) 
23

>  <i_qp_#rotor>  (1365) 
3

>  <i_qp_#rtvFG>  (1365) 
0

>  <i_qp_#stars>  (1365) 
0

>  <i_qp_CNS>  (1365) 
1

>  <i_qp_HumanOralAbsorption>  (1365) 
3

>  <i_qp_RuleOfFive>  (1365) 
0

>  <i_qp_RuleOfThree>  (1365) 
0

>  <i_sd_BIOSOLVEIT.INFINISEE\_REAGENT1\_NAME>  (1365) 
14772912

>  <i_sd_BIOSOLVEIT.INFINISEE\_REAGENT2\_NAME>  (1365) 
22389152

>  <i_sd_BIOSOLVEIT.INFINISEE\_RESULT\_RANK>  (1365) 
76685

>  <i_sd_version>  (1365) 
0

>  <b_lp_Chiralities_Consistent>  (1365) 
1

>  <b_sd_chiral_flag>  (1365) 
0

>  <canonical_id>  (1365) 
ATP-HTVS-D6CA2B69D609

>  <compound_code>  (1365) 
57026

>  <title>  (1365) 
m_2230bdc____14772912____22389152

>  <variant>  (1365) 
57026-1

>  <source_file>  (1365) 
运行/运行/ATP-VSW/ATP-VSW-DOCK_HTVS_1-002_lib.maegz

>  <canonical_smiles>  (1365) 
C#Cc1ccc(CN2CC(=O)Nc3ccc(Cl)cc3[C@@H]2c2ccccc2F)cc1

>  <scaffold>  (1365) 
O=C1CN(Cc2ccccc2)C(c2ccccc2)c2ccccc2N1

>  <molecular_formula>  (1365) 
C24H18ClFN2O

$$$$
ATP-HTVS-D7583D638CF7
     RDKit          3D

 58 61  0  0  0  0  0  0  0  0999 V2000
  196.6249  183.9430  150.4064 F   0  0  0  0  0  0  0  0  0  0  0  0
  196.8591  182.6260  150.6395 C   0  0  0  0  0  0  0  0  0  0  0  0
  197.5759  181.8500  149.7073 C   0  0  0  0  0  0  0  0  0  0  0  0
  197.7838  180.4797  149.9261 C   0  0  0  0  0  0  0  0  0  0  0  0
  197.3256  179.8725  151.1156 C   0  0  0  0  0  0  0  0  0  0  0  0
  197.5778  178.5464  151.3961 O   0  0  0  0  0  0  0  0  0  0  0  0
  198.7049  177.9164  150.7754 C   0  0  1  0  0  0  0  0  0  0  0  0
  199.5459  177.3630  151.8506 C   0  0  0  0  0  0  0  0  0  0  0  0
  200.2841  177.0294  152.7525 C   0  0  0  0  0  0  0  0  0  0  0  0
  201.1476  176.7070  153.8333 C   0  0  0  0  0  0  0  0  0  0  0  0
  201.6081  175.3624  154.0457 C   0  0  0  0  0  0  0  0  0  0  0  0
  202.3878  175.3689  155.2360 C   0  0  0  0  0  0  0  0  0  0  0  0
  202.3569  176.6644  155.6936 N   0  0  0  0  0  0  0  0  0  0  0  0
  201.6660  177.4894  154.8355 C   0  0  0  0  0  0  0  0  0  0  0  0
  201.5782  178.9373  155.1136 C   0  0  0  0  0  0  0  0  0  0  0  0
  201.1442  179.7373  154.2975 O   0  0  0  0  0  0  0  0  0  0  0  0
  201.9507  179.3079  156.3700 N   0  0  0  0  0  0  0  0  0  0  0  0
  201.7372  180.6073  156.9836 C   0  0  1  0  0  0  0  0  0  0  0  0
  200.3011  181.1232  156.9480 C   0  0  0  0  0  0  0  0  0  0  0  0
  200.0274  182.4193  157.4550 C   0  0  0  0  0  0  0  0  0  0  0  0
  198.7160  182.9510  157.3932 C   0  0  0  0  0  0  0  0  0  0  0  0
  197.6878  182.1828  156.7952 C   0  0  0  0  0  0  0  0  0  0  0  0
  197.9653  180.8946  156.2929 C   0  0  0  0  0  0  0  0  0  0  0  0
  199.2446  180.3452  156.4077 C   0  0  0  0  0  0  0  0  0  0  0  0
  196.2649  182.6906  156.7204 C   0  0  1  0  0  0  0  0  0  0  0  0
  195.3789  181.8165  157.5432 N   0  0  1  0  0  0  0  0  0  0  0  0
  195.5013  182.0768  158.9939 C   0  0  2  0  0  0  0  0  0  0  0  0
  203.0341  174.2287  155.7210 C   0  0  0  0  0  0  0  0  0  0  0  0
  202.9147  173.0320  155.0020 C   0  0  0  0  0  0  0  0  0  0  0  0
  202.1322  172.9881  153.8325 C   0  0  0  0  0  0  0  0  0  0  0  0
  201.4743  174.1342  153.3559 C   0  0  0  0  0  0  0  0  0  0  0  0
  196.5887  180.6454  152.0477 C   0  0  0  0  0  0  0  0  0  0  0  0
  196.3591  182.0213  151.8095 C   0  0  0  0  0  0  0  0  0  0  0  0
  194.4390  182.0522  157.2164 H   0  0  0  0  0  0  0  0  0  0  0  0
  197.9649  182.3061  148.8082 H   0  0  0  0  0  0  0  0  0  0  0  0
  198.3173  179.9054  149.1750 H   0  0  0  0  0  0  0  0  0  0  0  0
  198.3880  177.1159  150.0993 H   0  0  0  0  0  0  0  0  0  0  0  0
  199.3483  178.5991  150.2285 H   0  0  0  0  0  0  0  0  0  0  0  0
  202.8960  176.9992  156.4947 H   0  0  0  0  0  0  0  0  0  0  0  0
  202.4053  178.6281  156.9304 H   0  0  0  0  0  0  0  0  0  0  0  0
  202.0358  180.5053  158.0268 H   0  0  0  0  0  0  0  0  0  0  0  0
  202.4249  181.3292  156.5485 H   0  0  0  0  0  0  0  0  0  0  0  0
  200.8185  183.0149  157.9054 H   0  0  0  0  0  0  0  0  0  0  0  0
  198.5048  183.9294  157.8168 H   0  0  0  0  0  0  0  0  0  0  0  0
  197.1868  180.3084  155.8257 H   0  0  0  0  0  0  0  0  0  0  0  0
  199.4043  179.3246  156.0551 H   0  0  0  0  0  0  0  0  0  0  0  0
  196.2246  183.7372  157.0395 H   0  0  0  0  0  0  0  0  0  0  0  0
  195.9533  182.6440  155.6778 H   0  0  0  0  0  0  0  0  0  0  0  0
  194.8095  181.4359  159.5366 H   0  0  0  0  0  0  0  0  0  0  0  0
  195.2834  183.1164  159.2403 H   0  0  0  0  0  0  0  0  0  0  0  0
  196.5131  181.8454  159.3268 H   0  0  0  0  0  0  0  0  0  0  0  0
  203.6244  174.2771  156.6222 H   0  0  0  0  0  0  0  0  0  0  0  0
  203.4082  172.1392  155.3554 H   0  0  0  0  0  0  0  0  0  0  0  0
  202.0418  172.0503  153.3030 H   0  0  0  0  0  0  0  0  0  0  0  0
  200.8980  174.0890  152.4426 H   0  0  0  0  0  0  0  0  0  0  0  0
  196.2115  180.1861  152.9531 H   0  0  0  0  0  0  0  0  0  0  0  0
  195.8062  182.6114  152.5262 H   0  0  0  0  0  0  0  0  0  0  0  0
  195.5591  180.8418  157.3775 H   0  0  0  0  0  0  0  0  0  0  0  0
  1  2  1  0
  2  3  1  0
  2 33  2  0
  3  4  2  0
  3 35  1  0
  4  5  1  0
  4 36  1  0
  5  6  1  0
  5 32  2  0
  6  7  1  0
  7  8  1  0
  7 37  1  6
  7 38  1  0
  8  9  3  0
  9 10  1  0
 10 11  1  0
 10 14  2  0
 11 12  1  0
 11 31  2  0
 12 13  1  0
 12 28  2  0
 13 14  1  0
 13 39  1  0
 14 15  1  0
 15 16  2  0
 15 17  1  0
 17 18  1  0
 17 40  1  0
 18 19  1  0
 18 41  1  1
 18 42  1  0
 19 20  1  0
 19 24  2  0
 20 21  2  0
 20 43  1  0
 21 22  1  0
 21 44  1  0
 22 23  2  0
 22 25  1  0
 23 24  1  0
 23 45  1  0
 24 46  1  0
 25 26  1  0
 25 47  1  1
 25 48  1  0
 26 27  1  0
 26 34  1  6
 26 58  1  0
 27 49  1  1
 27 50  1  0
 27 51  1  0
 28 29  1  0
 28 52  1  0
 29 30  2  0
 29 53  1  0
 30 31  1  0
 30 54  1  0
 31 55  1  0
 32 33  1  0
 32 56  1  0
 33 57  1  0
M  CHG  1  26   1
M  END
>  <s_epik_cmdline>  (1366) 
J2VwaWtfcHl0aG9uJywgJy1waCcsICc3LjAwMDAwMCcsICctcGh0JywgJzIuMDAwMDAwJywgJy1tcycsICcxNicsICctdG4nLCAnOCcsICctbWEnLCAnMjAwJywgJy1pbWFlJywgJzxpbmZpbGUubWFlPicsICctb21hZScsICc8b3V0ZmlsZS5tYWU+Jw==

>  <s_epik_input>  (1366) 
RmMxW2NIXVtjSF1jKFtjSF1bY0hdMSlPW0NIMl1DI0NjMmMoW25IXWMoYzIzKVtjSF1bY0hdW2NIXVtjSF0zKUMoPU8pW05IXVtDSDJdYzRbY0hdW2NIXWMoW2NIXVtjSF00KVtDSDJdW05IXVtDSDNd

>  <s_i_glide_gridfile>  (1366) 
ATP-Grid

>  <s_lp_Force_Field>  (1366) 
OPLS_2005

>  <s_lp_Variant>  (1366) 
rxn513b____EMOL108753565____EMOL719673____EMOL32444451-1

>  <s_lp_label>  (1366) 
2648_sdstereoexpander_1_neutralizer_1_epik_1_stereoizer_1

>  <s_m_source_file>  (1366) 
ATP-VSW-LIGPREP-003-in.maegz

>  <s_sd_BIOSOLVEIT.INFINISEE\_QUERY\_NAME>  (1366) 
Ref-Lig

>  <s_sd_BIOSOLVEIT.INFINISEE\_QUERY\_SMILES>  (1366) 
S(c1nc2c(cc1C[NH2+]Cc3ccc(cc3)C[NH+](C)C)cccc2)Cc4ccccc4

>  <s_sd_BIOSOLVEIT.INFINISEE\_REACTION\_NAME>  (1366) 
rxn513b

>  <s_sd_BIOSOLVEIT.INFINISEE\_REAGENT1\_NAME>  (1366) 
EMOL108753565

>  <s_sd_BIOSOLVEIT.INFINISEE\_REAGENT1\_SMILES>  (1366) 
N(Cc1ccc(cc1)CN)C

>  <s_sd_BIOSOLVEIT.INFINISEE\_REAGENT2\_NAME>  (1366) 
EMOL719673

>  <s_sd_BIOSOLVEIT.INFINISEE\_REAGENT2\_SMILES>  (1366) 
BrC=1c2c(NC1C(=O)O)cccc2

>  <s_sd_BIOSOLVEIT.INFINISEE\_REAGENT3\_NAME>  (1366) 
EMOL32444451

>  <s_sd_BIOSOLVEIT.INFINISEE\_REAGENT3\_SMILES>  (1366) 
Fc1ccc(OCC#C)cc1

>  <s_sd_BIOSOLVEIT.INFINISEE\_SPACE>  (1366) 
eXplore_7tr_2022-12

>  <s_vsw_compound_code>  (1366) 
84707

>  <s_vsw_variant>  (1366) 
84707-1

>  <r_epik_Charging_Adjusted_Penalty>  (1366) 
0.036878850798054502

>  <r_epik_Ionization_Penalty>  (1366) 
0.0184

>  <r_epik_Ionization_Penalty_Charging>  (1366) 
0.0184

>  <r_epik_Ionization_Penalty_Neutral>  (1366) 
0

>  <r_epik_State_Penalty>  (1366) 
0.0184

>  <r_i_docking_score>  (1366) 
-6.2877975081350099

>  <r_i_glide_ecoul>  (1366) 
-17.205808639526399

>  <r_i_glide_eff_state_penalty>  (1366) 
0.0184

>  <r_i_glide_einternal>  (1366) 
8.4037437438964808

>  <r_i_glide_emodel>  (1366) 
-71.705895644410205

>  <r_i_glide_energy>  (1366) 
-48.271490097045898

>  <r_i_glide_erotb>  (1366) 
0.81645954966728895

>  <r_i_glide_esite>  (1366) 
-0.14787505069155599

>  <r_i_glide_evdw>  (1366) 
-31.065681457519499

>  <r_i_glide_gscore>  (1366) 
-6.3061975081350097

>  <r_i_glide_hbond>  (1366) 
-0.90295591184685497

>  <r_i_glide_ligand_efficiency>  (1366) 
-0.19053931842833399

>  <r_i_glide_ligand_efficiency_ln>  (1366) 
-1.3983736093361101

>  <r_i_glide_ligand_efficiency_sa>  (1366) 
-0.61116140436057698

>  <r_i_glide_lipo>  (1366) 
-1.1443366453275801

>  <r_i_glide_metal>  (1366) 
-0

>  <r_i_glide_rewards>  (1366) 
-0.79333408113138204

>  <r_lp_Energy>  (1366) 
12.165108999999999

>  <r_lp_tautomer_probability>  (1366) 
1

>  <r_qp_ACxDN^.5/SA>  (1366) 
0.01179

>  <r_qp_CIQPlogS>  (1366) 
-6.2949999999999999

>  <r_qp_EA(eV)>  (1366) 
0.71699999999999997

>  <r_qp_FISA>  (1366) 
92.424000000000007

>  <r_qp_FOSA>  (1366) 
164.93199999999999

>  <r_qp_IP(eV)>  (1366) 
8.4649999999999999

>  <r_qp_Jm>  (1366) 
0.016064339058105899

>  <r_qp_PISA>  (1366) 
399.02600000000001

>  <r_qp_PSA>  (1366) 
71.900999999999996

>  <r_qp_PercentHumanOralAbsorption>  (1366) 
100

>  <r_qp_QPPCaco>  (1366) 
328.358

>  <r_qp_QPPMDCK>  (1366) 
276.97199999999998

>  <r_qp_QPlogBB>  (1366) 
-0.34899999999999998

>  <r_qp_QPlogHERG>  (1366) 
-6.7249999999999996

>  <r_qp_QPlogKhsa>  (1366) 
0.80600000000000005

>  <r_qp_QPlogKp>  (1366) 
-3.016

>  <r_qp_QPlogPC16>  (1366) 
14.484999999999999

>  <r_qp_QPlogPo/w>  (1366) 
4.7930000000000001

>  <r_qp_QPlogPoct>  (1366) 
22.350000000000001

>  <r_qp_QPlogPw>  (1366) 
11.843

>  <r_qp_QPlogS>  (1366) 
-4.423

>  <r_qp_QPpolrz>  (1366) 
45.426000000000002

>  <r_qp_SASA>  (1366) 
697.81500000000005

>  <r_qp_SAamideO>  (1366) 
0

>  <r_qp_SAfluorine>  (1366) 
41.433999999999997

>  <r_qp_WPSA>  (1366) 
41.433999999999997

>  <r_qp_accptHB>  (1366) 
4.75

>  <r_qp_dip^2/V>  (1366) 
0.0072119999999999997

>  <r_qp_dipole>  (1366) 
3.1059999999999999

>  <r_qp_donorHB>  (1366) 
3

>  <r_qp_glob>  (1366) 
0.84152990000000005

>  <r_qp_mol_MW>  (1366) 
441.50400000000002

>  <r_qp_volume>  (1366) 
1338.0360000000001

>  <r_sd_BIOSOLVEIT.INFINISEE\_FTREES\_SIMILARITY>  (1366) 
0.91000000000000003

>  <r_sd_BIOSOLVEIT.LOGP>  (1366) 
3.3607

>  <r_sd_BIOSOLVEIT.MOLECULAR\_WEIGHT>  (1366) 
442.512

>  <r_sd_BIOSOLVEIT.TPSA>  (1366) 
70.730000000000004

>  <i_epik_Tot_Q>  (1366) 
1

>  <i_epik_Tot_abs_Q>  (1366) 
1

>  <i_f3d_flags>  (1366) 
0

>  <i_i_glide_confnum>  (1366) 
6

>  <i_i_glide_lignum>  (1366) 
1223

>  <i_i_glide_posenum>  (1366) 
4

>  <i_i_glide_rotatable_bonds>  (1366) 
10

>  <i_lp_mmshare_version>  (1366) 
65135

>  <i_m_ct_format>  (1366) 
2

>  <i_m_source_file_index>  (1366) 
2648

>  <i_qp_#NandO>  (1366) 
5

>  <i_qp_#acid>  (1366) 
0

>  <i_qp_#amide>  (1366) 
0

>  <i_qp_#amidine>  (1366) 
0

>  <i_qp_#amine>  (1366) 
1

>  <i_qp_#in34>  (1366) 
0

>  <i_qp_#in56>  (1366) 
21

>  <i_qp_#metab>  (1366) 
5

>  <i_qp_#nonHatm>  (1366) 
33

>  <i_qp_#noncon>  (1366) 
0

>  <i_qp_#ringatoms>  (1366) 
21

>  <i_qp_#rotor>  (1366) 
9

>  <i_qp_#rtvFG>  (1366) 
0

>  <i_qp_#stars>  (1366) 
0

>  <i_qp_CNS>  (1366) 
0

>  <i_qp_HumanOralAbsorption>  (1366) 
3

>  <i_qp_RuleOfFive>  (1366) 
0

>  <i_qp_RuleOfThree>  (1366) 
0

>  <i_sd_BIOSOLVEIT.INFINISEE\_RESULT\_RANK>  (1366) 
46152

>  <i_sd_version>  (1366) 
0

>  <b_lp_Chiralities_Consistent>  (1366) 
1

>  <b_sd_chiral_flag>  (1366) 
0

>  <canonical_id>  (1366) 
ATP-HTVS-D7583D638CF7

>  <compound_code>  (1366) 
84707

>  <title>  (1366) 
rxn513b____EMOL108753565____EMOL719673____EMOL32444451

>  <variant>  (1366) 
84707-1

>  <source_file>  (1366) 
运行/运行/ATP-VSW/ATP-VSW-DOCK_HTVS_1-003_lib/ATP-VSW-DOCK_HTVS_1-003_lib.mae

>  <canonical_smiles>  (1366) 
C[NH2+]Cc1ccc(CNC(=O)c2[nH]c3ccccc3c2C#CCOc2ccc(F)cc2)cc1

>  <scaffold>  (1366) 
O=C(NCc1ccccc1)c1[nH]c2ccccc2c1C#CCOc1ccccc1

>  <molecular_formula>  (1366) 
C27H25FN3O2+

$$$$
ATP-HTVS-D76C38158727
     RDKit          3D

 52 55  0  0  0  0  0  0  0  0999 V2000
  200.6979  177.3113  157.4115 Br  0  0  0  0  0  0  0  0  0  0  0  0
  199.9006  178.6890  156.3595 C   0  0  0  0  0  0  0  0  0  0  0  0
  199.9047  179.9947  156.8574 C   0  0  0  0  0  0  0  0  0  0  0  0
  199.4313  181.0893  156.0885 C   0  0  0  0  0  0  0  0  0  0  0  0
  198.8571  180.8127  154.8184 C   0  0  0  0  0  0  0  0  0  0  0  0
  198.3215  181.8404  153.9909 N   0  0  0  0  0  0  0  0  0  0  0  0
  197.6100  182.9015  154.4195 C   0  0  0  0  0  0  0  0  0  0  0  0
  197.2602  183.7837  153.6311 O   0  0  0  0  0  0  0  0  0  0  0  0
  197.1897  182.9696  155.9051 C   0  0  1  0  0  0  0  0  0  0  0  0
  198.2533  183.1073  156.9596 N   0  0  0  0  0  0  0  0  0  0  0  0
  199.5562  182.5426  156.5878 C   0  0  1  0  0  0  0  0  0  0  0  0
  200.6538  182.7568  157.6788 C   0  0  0  0  0  0  0  0  0  0  0  0
  200.4005  183.6367  158.7490 C   0  0  0  0  0  0  0  0  0  0  0  0
  201.2663  183.6136  159.9197 C   0  0  0  0  0  0  0  0  0  0  0  0
  202.3958  182.8266  159.9156 C   0  0  0  0  0  0  0  0  0  0  0  0
  202.7308  182.0427  158.7774 C   0  0  0  0  0  0  0  0  0  0  0  0
  201.8503  182.0210  157.6647 C   0  0  0  0  0  0  0  0  0  0  0  0
  197.7110  182.5945  158.2299 C   0  0  1  0  0  0  0  0  0  0  0  0
  196.6563  183.4963  158.8397 C   0  0  0  0  0  0  0  0  0  0  0  0
  195.3022  183.2073  158.5944 C   0  0  0  0  0  0  0  0  0  0  0  0
  194.2923  183.9837  159.1942 C   0  0  0  0  0  0  0  0  0  0  0  0
  194.6302  185.0671  160.0309 C   0  0  0  0  0  0  0  0  0  0  0  0
  193.5647  185.8386  160.5425 N   0  0  0  0  0  0  0  0  0  0  0  0
  193.5354  186.6385  161.6202 C   0  0  0  0  0  0  0  0  0  0  0  0
  194.4312  186.6980  162.4584 O   0  0  0  0  0  0  0  0  0  0  0  0
  192.2725  187.4501  161.8349 C   0  0  2  0  0  0  0  0  0  0  0  0
  195.9845  185.3677  160.2829 C   0  0  0  0  0  0  0  0  0  0  0  0
  196.9886  184.5844  159.6868 C   0  0  0  0  0  0  0  0  0  0  0  0
  198.8351  179.4827  154.3193 C   0  0  0  0  0  0  0  0  0  0  0  0
  199.3665  178.4185  155.0842 C   0  0  0  0  0  0  0  0  0  0  0  0
  200.3230  180.1418  157.8418 H   0  0  0  0  0  0  0  0  0  0  0  0
  198.4250  181.7397  152.9906 H   0  0  0  0  0  0  0  0  0  0  0  0
  196.4453  183.7605  156.0085 H   0  0  0  0  0  0  0  0  0  0  0  0
  196.6360  182.0413  156.0665 H   0  0  0  0  0  0  0  0  0  0  0  0
  199.9643  183.1203  155.7552 H   0  0  0  0  0  0  0  0  0  0  0  0
  199.5442  184.2777  158.7746 H   0  0  0  0  0  0  0  0  0  0  0  0
  200.9509  184.1891  160.7752 H   0  0  0  0  0  0  0  0  0  0  0  0
  203.0550  182.8176  160.7972 H   0  0  0  0  0  0  0  0  0  0  0  0
  203.6061  181.4119  158.7762 H   0  0  0  0  0  0  0  0  0  0  0  0
  202.1047  181.3735  156.8308 H   0  0  0  0  0  0  0  0  0  0  0  0
  197.3414  181.5668  158.0815 H   0  0  0  0  0  0  0  0  0  0  0  0
  198.4440  182.5795  159.0311 H   0  0  0  0  0  0  0  0  0  0  0  0
  195.0546  182.3646  157.9613 H   0  0  0  0  0  0  0  0  0  0  0  0
  193.2613  183.7404  158.9673 H   0  0  0  0  0  0  0  0  0  0  0  0
  192.7413  185.8302  159.9564 H   0  0  0  0  0  0  0  0  0  0  0  0
  191.7893  187.6942  160.8861 H   0  0  0  0  0  0  0  0  0  0  0  0
  192.5111  188.3846  162.3489 H   0  0  0  0  0  0  0  0  0  0  0  0
  191.5746  186.8868  162.4541 H   0  0  0  0  0  0  0  0  0  0  0  0
  196.2788  186.1985  160.9127 H   0  0  0  0  0  0  0  0  0  0  0  0
  198.0058  184.8361  159.9406 H   0  0  0  0  0  0  0  0  0  0  0  0
  198.3966  179.2594  153.3546 H   0  0  0  0  0  0  0  0  0  0  0  0
  199.3504  177.3968  154.7188 H   0  0  0  0  0  0  0  0  0  0  0  0
  1  2  1  0
  2  3  2  0
  2 30  1  0
  3  4  1  0
  3 31  1  0
  4  5  2  0
  4 11  1  0
  5  6  1  0
  5 29  1  0
  6  7  1  0
  6 32  1  0
  7  8  2  0
  7  9  1  0
  9 10  1  0
  9 33  1  6
  9 34  1  0
 10 11  1  0
 10 18  1  0
 11 12  1  0
 11 35  1  6
 12 13  2  0
 12 17  1  0
 13 14  1  0
 13 36  1  0
 14 15  2  0
 14 37  1  0
 15 16  1  0
 15 38  1  0
 16 17  2  0
 16 39  1  0
 17 40  1  0
 18 19  1  0
 18 41  1  6
 18 42  1  0
 19 20  1  0
 19 28  2  0
 20 21  2  0
 20 43  1  0
 21 22  1  0
 21 44  1  0
 22 23  1  0
 22 27  2  0
 23 24  1  0
 23 45  1  0
 24 25  2  0
 24 26  1  0
 26 46  1  6
 26 47  1  0
 26 48  1  0
 27 28  1  0
 27 49  1  0
 28 50  1  0
 29 30  2  0
 29 51  1  0
 30 52  1  0
M  END
>  <s_epik_cmdline>  (1367) 
J2VwaWtfcHl0aG9uJywgJy1waCcsICc3LjAwMDAwMCcsICctcGh0JywgJzIuMDAwMDAwJywgJy1tcycsICcxNicsICctdG4nLCAnOCcsICctbWEnLCAnMjAwJywgJy1pbWFlJywgJzxpbmZpbGUubWFlPicsICctb21hZScsICc8b3V0ZmlsZS5tYWU+Jw==

>  <s_epik_input>  (1367) 
QnJjKFtjSF0xKVtjSF1bY0hdYyhjMTIpW05IXUMoPU8pW0NIMl1OKFtDQEhdMmMzW2NIXVtjSF1bY0hdW2NIXVtjSF0zKVtDSDJdYzRbY0hdW2NIXWMoW2NIXVtjSF00KVtOSF1DKD1PKVtDSDNd

>  <s_i_glide_gridfile>  (1367) 
ATP-Grid

>  <s_lp_Force_Field>  (1367) 
OPLS_2005

>  <s_lp_Variant>  (1367) 
m_2230bdc____17626620____16613390-2

>  <s_lp_label>  (1367) 
1873_sdstereoexpander_3_neutralizer_1_epik_1_stereoizer_1

>  <s_m_source_file>  (1367) 
ATP-VSW-LIGPREP-002-in.maegz

>  <s_sd_BIOSOLVEIT.INFINISEE\_QUERY\_NAME>  (1367) 
Ref-Lig

>  <s_sd_BIOSOLVEIT.INFINISEE\_QUERY\_SMILES>  (1367) 
S(c1nc2c(cc1C[NH2+]Cc3ccc(cc3)C[NH+](C)C)cccc2)Cc4ccccc4

>  <s_sd_BIOSOLVEIT.INFINISEE\_REACTION\_NAME>  (1367) 
m_2230bdc

>  <s_sd_BIOSOLVEIT.INFINISEE\_REAGENT1\_SMILES>  (1367) 
[R1*]N1C(c2c(NC(=O)C1)ccc(Br)c2)c3ccccc3

>  <s_sd_BIOSOLVEIT.INFINISEE\_REAGENT2\_SMILES>  (1367) 
[R1*]Cc1ccc(NC(=O)C)cc1

>  <s_sd_BIOSOLVEIT.INFINISEE\_SPACE>  (1367) 
REALSpace_44bn_2023-08

>  <s_vsw_compound_code>  (1367) 
59906

>  <s_vsw_variant>  (1367) 
59906-2

>  <r_epik_Charging_Adjusted_Penalty>  (1367) 
0.0073316794013014502

>  <r_epik_Ionization_Penalty>  (1367) 
0.0073000000000000001

>  <r_epik_Ionization_Penalty_Charging>  (1367) 
0

>  <r_epik_Ionization_Penalty_Neutral>  (1367) 
0.0073000000000000001

>  <r_epik_State_Penalty>  (1367) 
0.0073000000000000001

>  <r_i_docking_score>  (1367) 
-2.6069266731723499

>  <r_i_glide_ecoul>  (1367) 
-5.4984607696533203

>  <r_i_glide_eff_state_penalty>  (1367) 
0.0073000000000000001

>  <r_i_glide_einternal>  (1367) 
6.5884566307067898

>  <r_i_glide_emodel>  (1367) 
-45.327591672379803

>  <r_i_glide_energy>  (1367) 
-41.8950099945068

>  <r_i_glide_erotb>  (1367) 
0.37395955071778397

>  <r_i_glide_esite>  (1367) 
-0.0413847678416795

>  <r_i_glide_evdw>  (1367) 
-36.396549224853501

>  <r_i_glide_gscore>  (1367) 
-2.6142266731723498

>  <r_i_glide_hbond>  (1367) 
-0.25192581671425901

>  <r_i_glide_ligand_efficiency>  (1367) 
-0.086897555772411594

>  <r_i_glide_ligand_efficiency_ln>  (1367) 
-0.59232214488590296

>  <r_i_glide_ligand_efficiency_sa>  (1367) 
-0.27001090967785601

>  <r_i_glide_lipo>  (1367) 
-1.4903470631437501

>  <r_i_glide_metal>  (1367) 
-0

>  <r_i_glide_rewards>  (1367) 
1.44006800050023

>  <r_lp_Energy>  (1367) 
60.731558999999997

>  <r_qp_ACxDN^.5/SA>  (1367) 
0.0152704

>  <r_qp_CIQPlogS>  (1367) 
-5.7000000000000002

>  <r_qp_EA(eV)>  (1367) 
0.376

>  <r_qp_FISA>  (1367) 
114.52500000000001

>  <r_qp_FOSA>  (1367) 
145.11000000000001

>  <r_qp_IP(eV)>  (1367) 
8.891

>  <r_qp_Jm>  (1367) 
0.0014784275190231301

>  <r_qp_PISA>  (1367) 
311.363

>  <r_qp_PSA>  (1367) 
82.197999999999993

>  <r_qp_PercentHumanOralAbsorption>  (1367) 
87.838999999999999

>  <r_qp_QPPCaco>  (1367) 
202.65700000000001

>  <r_qp_QPPMDCK>  (1367) 
258.392

>  <r_qp_QPlogBB>  (1367) 
-0.067000000000000004

>  <r_qp_QPlogHERG>  (1367) 
-6.0430000000000001

>  <r_qp_QPlogKhsa>  (1367) 
0.49099999999999999

>  <r_qp_QPlogKp>  (1367) 
-4.3079999999999998

>  <r_qp_QPlogPC16>  (1367) 
13.679

>  <r_qp_QPlogPo/w>  (1367) 
3.3490000000000002

>  <r_qp_QPlogPoct>  (1367) 
22.771000000000001

>  <r_qp_QPlogPw>  (1367) 
13.366

>  <r_qp_QPlogS>  (1367) 
-4.1890000000000001

>  <r_qp_QPpolrz>  (1367) 
44.244

>  <r_qp_SASA>  (1367) 
648.28099999999995

>  <r_qp_SAamideO>  (1367) 
0

>  <r_qp_SAfluorine>  (1367) 
0

>  <r_qp_WPSA>  (1367) 
77.283000000000001

>  <r_qp_accptHB>  (1367) 
7

>  <r_qp_dip^2/V>  (1367) 
0.058822800000000001

>  <r_qp_dipole>  (1367) 
8.5169999999999995

>  <r_qp_donorHB>  (1367) 
2

>  <r_qp_glob>  (1367) 
0.85785699999999998

>  <r_qp_mol_MW>  (1367) 
464.36099999999999

>  <r_qp_volume>  (1367) 
1233.1610000000001

>  <r_sd_BIOSOLVEIT.INFINISEE\_FTREES\_SIMILARITY>  (1367) 
0.90300000000000002

>  <r_sd_BIOSOLVEIT.LOGP>  (1367) 
3.5341

>  <r_sd_BIOSOLVEIT.MOLECULAR\_WEIGHT>  (1367) 
465.36900000000003

>  <r_sd_BIOSOLVEIT.TPSA>  (1367) 
62.640000000000001

>  <i_epik_Tot_Q>  (1367) 
0

>  <i_epik_Tot_abs_Q>  (1367) 
0

>  <i_f3d_flags>  (1367) 
0

>  <i_i_glide_confnum>  (1367) 
6

>  <i_i_glide_lignum>  (1367) 
665

>  <i_i_glide_posenum>  (1367) 
3

>  <i_i_glide_rotatable_bonds>  (1367) 
5

>  <i_lp_mmshare_version>  (1367) 
65135

>  <i_m_ct_format>  (1367) 
2

>  <i_m_source_file_index>  (1367) 
1873

>  <i_qp_#NandO>  (1367) 
5

>  <i_qp_#acid>  (1367) 
0

>  <i_qp_#amide>  (1367) 
0

>  <i_qp_#amidine>  (1367) 
0

>  <i_qp_#amine>  (1367) 
1

>  <i_qp_#in34>  (1367) 
0

>  <i_qp_#in56>  (1367) 
18

>  <i_qp_#metab>  (1367) 
6

>  <i_qp_#nonHatm>  (1367) 
30

>  <i_qp_#noncon>  (1367) 
2

>  <i_qp_#ringatoms>  (1367) 
23

>  <i_qp_#rotor>  (1367) 
3

>  <i_qp_#rtvFG>  (1367) 
0

>  <i_qp_#stars>  (1367) 
0

>  <i_qp_CNS>  (1367) 
1

>  <i_qp_HumanOralAbsorption>  (1367) 
3

>  <i_qp_RuleOfFive>  (1367) 
0

>  <i_qp_RuleOfThree>  (1367) 
0

>  <i_sd_BIOSOLVEIT.INFINISEE\_REAGENT1\_NAME>  (1367) 
17626620

>  <i_sd_BIOSOLVEIT.INFINISEE\_REAGENT2\_NAME>  (1367) 
16613390

>  <i_sd_BIOSOLVEIT.INFINISEE\_RESULT\_RANK>  (1367) 
82548

>  <i_sd_version>  (1367) 
0

>  <b_lp_Chiralities_Consistent>  (1367) 
1

>  <b_sd_chiral_flag>  (1367) 
0

>  <canonical_id>  (1367) 
ATP-HTVS-D76C38158727

>  <compound_code>  (1367) 
59906

>  <title>  (1367) 
m_2230bdc____17626620____16613390

>  <variant>  (1367) 
59906-2

>  <source_file>  (1367) 
运行/运行/ATP-VSW/ATP-VSW-DOCK_HTVS_1-002_lib.maegz

>  <canonical_smiles>  (1367) 
CC(=O)Nc1ccc(CN2CC(=O)Nc3ccc(Br)cc3[C@@H]2c2ccccc2)cc1

>  <scaffold>  (1367) 
O=C1CN(Cc2ccccc2)C(c2ccccc2)c2ccccc2N1

>  <molecular_formula>  (1367) 
C24H22BrN3O2

$$$$
ATP-HTVS-D773B3DD8BD5
     RDKit          3D

 59 62  0  0  0  0  0  0  0  0999 V2000
  202.3478  173.9147  155.1521 Cl  0  0  0  0  0  0  0  0  0  0  0  0
  201.9829  175.5882  155.3327 C   0  0  0  0  0  0  0  0  0  0  0  0
  202.2612  176.4853  154.2834 C   0  0  0  0  0  0  0  0  0  0  0  0
  201.9898  177.8557  154.4362 C   0  0  0  0  0  0  0  0  0  0  0  0
  201.4446  178.3397  155.6432 C   0  0  0  0  0  0  0  0  0  0  0  0
  201.1480  177.4356  156.6905 C   0  0  0  0  0  0  0  0  0  0  0  0
  201.4180  176.0642  156.5308 C   0  0  0  0  0  0  0  0  0  0  0  0
  201.1913  179.8345  155.8118 C   0  0  2  0  0  0  0  0  0  0  0  0
  202.3142  180.4798  156.5699 N   0  0  2  0  0  0  0  0  0  0  0  0
  202.0486  181.8769  157.0101 C   0  0  2  0  0  0  0  0  0  0  0  0
  203.6122  180.4071  155.8528 C   0  0  2  0  0  0  0  0  0  0  0  0
  199.7910  180.1056  156.4169 C   0  0  1  0  0  0  0  0  0  0  0  0
  198.6895  179.4393  155.7209 N   0  0  0  0  0  0  0  0  0  0  0  0
  198.0605  180.2041  154.7213 C   0  0  0  0  0  0  0  0  0  0  0  0
  197.3572  181.3891  155.0509 C   0  0  0  0  0  0  0  0  0  0  0  0
  197.1614  181.7936  156.3915 N   0  0  0  0  0  0  0  0  0  0  0  0
  197.5853  182.9709  156.8787 C   0  0  0  0  0  0  0  0  0  0  0  0
  198.5751  183.5620  156.4432 O   0  0  0  0  0  0  0  0  0  0  0  0
  196.8173  183.4911  158.0583 C   0  0  0  0  0  0  0  0  0  0  0  0
  197.4109  184.4117  158.9536 C   0  0  0  0  0  0  0  0  0  0  0  0
  196.6489  184.9791  159.9939 C   0  0  0  0  0  0  0  0  0  0  0  0
  195.2897  184.6429  160.1370 C   0  0  0  0  0  0  0  0  0  0  0  0
  194.6924  183.7328  159.2504 C   0  0  0  0  0  0  0  0  0  0  0  0
  195.4503  183.1691  158.2119 C   0  0  0  0  0  0  0  0  0  0  0  0
  196.7752  182.1653  154.0292 C   0  0  0  0  0  0  0  0  0  0  0  0
  196.8856  181.7894  152.7452 N   0  0  0  0  0  0  0  0  0  0  0  0
  197.5270  180.6670  152.3641 C   0  0  0  0  0  0  0  0  0  0  0  0
  198.1322  179.8347  153.3463 C   0  0  0  0  0  0  0  0  0  0  0  0
  198.7798  178.6533  152.9200 C   0  0  0  0  0  0  0  0  0  0  0  0
  198.8125  178.3075  151.5506 C   0  0  0  0  0  0  0  0  0  0  0  0
  198.2277  179.1549  150.5909 C   0  0  0  0  0  0  0  0  0  0  0  0
  197.5826  180.3385  150.9960 C   0  0  0  0  0  0  0  0  0  0  0  0
  202.6944  176.1194  153.3634 H   0  0  0  0  0  0  0  0  0  0  0  0
  202.2153  178.5363  153.6277 H   0  0  0  0  0  0  0  0  0  0  0  0
  200.7215  177.7765  157.6225 H   0  0  0  0  0  0  0  0  0  0  0  0
  201.1979  175.3783  157.3343 H   0  0  0  0  0  0  0  0  0  0  0  0
  201.1792  180.2897  154.8173 H   0  0  0  0  0  0  0  0  0  0  0  0
  201.7744  182.5090  156.1648 H   0  0  0  0  0  0  0  0  0  0  0  0
  202.9303  182.3159  157.4781 H   0  0  0  0  0  0  0  0  0  0  0  0
  201.2532  181.9260  157.7533 H   0  0  0  0  0  0  0  0  0  0  0  0
  203.5531  180.9045  154.8840 H   0  0  0  0  0  0  0  0  0  0  0  0
  203.9239  179.3782  155.6873 H   0  0  0  0  0  0  0  0  0  0  0  0
  204.4068  180.8815  156.4268 H   0  0  0  0  0  0  0  0  0  0  0  0
  199.7476  179.7804  157.4543 H   0  0  0  0  0  0  0  0  0  0  0  0
  199.6277  181.1756  156.4319 H   0  0  0  0  0  0  0  0  0  0  0  0
  198.0472  179.0223  156.3949 H   0  0  0  0  0  0  0  0  0  0  0  0
  196.5056  181.2452  156.9374 H   0  0  0  0  0  0  0  0  0  0  0  0
  198.4456  184.7075  158.8380 H   0  0  0  0  0  0  0  0  0  0  0  0
  197.1000  185.6922  160.6702 H   0  0  0  0  0  0  0  0  0  0  0  0
  194.7040  185.0921  160.9269 H   0  0  0  0  0  0  0  0  0  0  0  0
  193.6430  183.4850  159.3363 H   0  0  0  0  0  0  0  0  0  0  0  0
  194.9453  182.5102  157.5188 H   0  0  0  0  0  0  0  0  0  0  0  0
  196.2047  183.0643  154.2081 H   0  0  0  0  0  0  0  0  0  0  0  0
  199.2214  177.9923  153.6491 H   0  0  0  0  0  0  0  0  0  0  0  0
  199.2814  177.3890  151.2347 H   0  0  0  0  0  0  0  0  0  0  0  0
  198.2656  178.8936  149.5435 H   0  0  0  0  0  0  0  0  0  0  0  0
  197.1421  180.9787  150.2478 H   0  0  0  0  0  0  0  0  0  0  0  0
  196.4442  182.3760  152.0417 H   0  0  0  0  0  0  0  0  0  0  0  0
  202.4351  179.9302  157.4098 H   0  0  0  0  0  0  0  0  0  0  0  0
  1  2  1  0
  2  3  1  0
  2  7  2  0
  3  4  2  0
  3 33  1  0
  4  5  1  0
  4 34  1  0
  5  6  2  0
  5  8  1  0
  6  7  1  0
  6 35  1  0
  7 36  1  0
  8  9  1  0
  8 12  1  0
  8 37  1  6
  9 10  1  0
  9 11  1  0
  9 59  1  1
 10 38  1  6
 10 39  1  0
 10 40  1  0
 11 41  1  6
 11 42  1  0
 11 43  1  0
 12 13  1  0
 12 44  1  1
 12 45  1  0
 13 14  1  0
 13 46  1  0
 14 15  2  0
 14 28  1  0
 15 16  1  0
 15 25  1  0
 16 17  1  0
 16 47  1  0
 17 18  2  0
 17 19  1  0
 19 20  2  0
 19 24  1  0
 20 21  1  0
 20 48  1  0
 21 22  2  0
 21 49  1  0
 22 23  1  0
 22 50  1  0
 23 24  2  0
 23 51  1  0
 24 52  1  0
 25 26  2  0
 25 53  1  0
 26 27  1  0
 26 58  1  0
 27 28  1  0
 27 32  2  0
 28 29  2  0
 29 30  1  0
 29 54  1  0
 30 31  2  0
 30 55  1  0
 31 32  1  0
 31 56  1  0
 32 57  1  0
M  CHG  2   9   1  26   1
M  END
>  <s_epik_cmdline>  (1368) 
J2VwaWtfcHl0aG9uJywgJy1waCcsICc3LjAwMDAwMCcsICctcGh0JywgJzIuMDAwMDAwJywgJy1tcycsICcxNicsICctdG4nLCAnOCcsICctbWEnLCAnMjAwJywgJy1pbWFlJywgJzxpbmZpbGUubWFlPicsICctb21hZScsICc8b3V0ZmlsZS5tYWU+Jw==

>  <s_epik_input>  (1368) 
Q2xjMVtjSF1bY0hdYyhbY0hdW2NIXTEpW0NASF0oTihbQ0gzXSlbQ0gzXSlbQ0gyXVtOSF1jKGMoYzIzKVtjSF1bY0hdW2NIXVtjSF0zKWMoW2NIXW4yKVtOSF1DKD1PKWM0W2NIXVtjSF1bY0hdW2NIXVtjSF00

>  <s_i_glide_gridfile>  (1368) 
ATP-Grid

>  <s_lp_Force_Field>  (1368) 
OPLS_2005

>  <s_lp_Variant>  (1368) 
rxn502b____EMOL480353____EMOL30488121____EMOL13081280-2

>  <s_lp_label>  (1368) 
2410_sdstereoexpander_2_neutralizer_1_epik_1_stereoizer_1

>  <s_m_source_file>  (1368) 
ATP-VSW-LIGPREP-002-in.maegz

>  <s_sd_BIOSOLVEIT.INFINISEE\_QUERY\_NAME>  (1368) 
Ref-Lig

>  <s_sd_BIOSOLVEIT.INFINISEE\_QUERY\_SMILES>  (1368) 
S(c1nc2c(cc1C[NH2+]Cc3ccc(cc3)C[NH+](C)C)cccc2)Cc4ccccc4

>  <s_sd_BIOSOLVEIT.INFINISEE\_REACTION\_NAME>  (1368) 
rxn502b

>  <s_sd_BIOSOLVEIT.INFINISEE\_REAGENT1\_NAME>  (1368) 
EMOL480353

>  <s_sd_BIOSOLVEIT.INFINISEE\_REAGENT1\_SMILES>  (1368) 
ClC(=O)c1ccccc1

>  <s_sd_BIOSOLVEIT.INFINISEE\_REAGENT2\_NAME>  (1368) 
EMOL30488121

>  <s_sd_BIOSOLVEIT.INFINISEE\_REAGENT2\_SMILES>  (1368) 
Brc1c(N)cnc2c1cccc2

>  <s_sd_BIOSOLVEIT.INFINISEE\_REAGENT3\_NAME>  (1368) 
EMOL13081280

>  <s_sd_BIOSOLVEIT.INFINISEE\_REAGENT3\_SMILES>  (1368) 
Clc1ccc(cc1)C(N(C)C)CN

>  <s_sd_BIOSOLVEIT.INFINISEE\_SPACE>  (1368) 
eXplore_7tr_2022-12

>  <s_vsw_compound_code>  (1368) 
77090

>  <s_vsw_variant>  (1368) 
77090-2

>  <r_epik_Charging_Adjusted_Penalty>  (1368) 
0.40790577337017703

>  <r_epik_Ionization_Penalty>  (1368) 
0.2233

>  <r_epik_Ionization_Penalty_Charging>  (1368) 
0.2233

>  <r_epik_Ionization_Penalty_Neutral>  (1368) 
0.0001

>  <r_epik_State_Penalty>  (1368) 
0.18459999999999999

>  <r_i_docking_score>  (1368) 
-5.0822983019306198

>  <r_i_glide_ecoul>  (1368) 
-11.2426862716675

>  <r_i_glide_eff_state_penalty>  (1368) 
0.18459999999999999

>  <r_i_glide_einternal>  (1368) 
11.9772186279297

>  <r_i_glide_emodel>  (1368) 
-61.7550332611195

>  <r_i_glide_energy>  (1368) 
-45.884127616882303

>  <r_i_glide_erotb>  (1368) 
0.60127457464425704

>  <r_i_glide_esite>  (1368) 
-0.18368179174232499

>  <r_i_glide_evdw>  (1368) 
-34.641441345214801

>  <r_i_glide_gscore>  (1368) 
-5.2668983019306204

>  <r_i_glide_hbond>  (1368) 
-0.082608535074776404

>  <r_i_glide_ligand_efficiency>  (1368) 
-0.15882182193533201

>  <r_i_glide_ligand_efficiency_ln>  (1368) 
-1.1380651280216401

>  <r_i_glide_ligand_efficiency_sa>  (1368) 
-0.50422785384879698

>  <r_i_glide_lipo>  (1368) 
-1.5968494508378299

>  <r_i_glide_metal>  (1368) 
-0

>  <r_i_glide_rewards>  (1368) 
-0.58655809090908995

>  <r_lp_Energy>  (1368) 
47.848244999999999

>  <r_qp_ACxDN^.5/SA>  (1368) 
0.0131669

>  <r_qp_CIQPlogS>  (1368) 
-5.8730000000000002

>  <r_qp_EA(eV)>  (1368) 
0.89400000000000002

>  <r_qp_FISA>  (1368) 
71.650999999999996

>  <r_qp_FOSA>  (1368) 
150.28299999999999

>  <r_qp_IP(eV)>  (1368) 
8.3740000000000006

>  <r_qp_Jm>  (1368) 
0.028380239410816101

>  <r_qp_PISA>  (1368) 
419.77699999999999

>  <r_qp_PSA>  (1368) 
62.677

>  <r_qp_PercentHumanOralAbsorption>  (1368) 
100

>  <r_qp_QPPCaco>  (1368) 
516.80999999999995

>  <r_qp_QPPMDCK>  (1368) 
546.41099999999994

>  <r_qp_QPlogBB>  (1368) 
-0.0040000000000000001

>  <r_qp_QPlogHERG>  (1368) 
-6.9009999999999998

>  <r_qp_QPlogKhsa>  (1368) 
0.63800000000000001

>  <r_qp_QPlogKp>  (1368) 
-2.7519999999999998

>  <r_qp_QPlogPC16>  (1368) 
14.837999999999999

>  <r_qp_QPlogPo/w>  (1368) 
4.46

>  <r_qp_QPlogPoct>  (1368) 
22.959

>  <r_qp_QPlogPw>  (1368) 
12.548999999999999

>  <r_qp_QPlogS>  (1368) 
-4.4429999999999996

>  <r_qp_QPpolrz>  (1368) 
46.494

>  <r_qp_SASA>  (1368) 
698.14400000000001

>  <r_qp_SAamideO>  (1368) 
0

>  <r_qp_SAfluorine>  (1368) 
0

>  <r_qp_WPSA>  (1368) 
56.433999999999997

>  <r_qp_accptHB>  (1368) 
6.5

>  <r_qp_dip^2/V>  (1368) 
0.057980200000000003

>  <r_qp_dipole>  (1368) 
8.7739999999999991

>  <r_qp_donorHB>  (1368) 
2

>  <r_qp_glob>  (1368) 
0.83678819999999998

>  <r_qp_mol_MW>  (1368) 
444.96300000000002

>  <r_qp_volume>  (1368) 
1327.6800000000001

>  <r_sd_BIOSOLVEIT.INFINISEE\_FTREES\_SIMILARITY>  (1368) 
0.91800000000000004

>  <r_sd_BIOSOLVEIT.LOGP>  (1368) 
4.4382000000000001

>  <r_sd_BIOSOLVEIT.MOLECULAR\_WEIGHT>  (1368) 
445.971

>  <r_sd_BIOSOLVEIT.TPSA>  (1368) 
58.460000000000001

>  <i_epik_Tot_Q>  (1368) 
2

>  <i_epik_Tot_abs_Q>  (1368) 
2

>  <i_f3d_flags>  (1368) 
0

>  <i_i_glide_confnum>  (1368) 
6

>  <i_i_glide_lignum>  (1368) 
1018

>  <i_i_glide_posenum>  (1368) 
14

>  <i_i_glide_rotatable_bonds>  (1368) 
8

>  <i_lp_mmshare_version>  (1368) 
65135

>  <i_m_ct_format>  (1368) 
2

>  <i_m_source_file_index>  (1368) 
2410

>  <i_qp_#NandO>  (1368) 
5

>  <i_qp_#acid>  (1368) 
0

>  <i_qp_#amide>  (1368) 
0

>  <i_qp_#amidine>  (1368) 
0

>  <i_qp_#amine>  (1368) 
1

>  <i_qp_#in34>  (1368) 
0

>  <i_qp_#in56>  (1368) 
22

>  <i_qp_#metab>  (1368) 
5

>  <i_qp_#nonHatm>  (1368) 
32

>  <i_qp_#noncon>  (1368) 
0

>  <i_qp_#ringatoms>  (1368) 
22

>  <i_qp_#rotor>  (1368) 
7

>  <i_qp_#rtvFG>  (1368) 
0

>  <i_qp_#stars>  (1368) 
0

>  <i_qp_CNS>  (1368) 
1

>  <i_qp_HumanOralAbsorption>  (1368) 
3

>  <i_qp_RuleOfFive>  (1368) 
0

>  <i_qp_RuleOfThree>  (1368) 
0

>  <i_sd_BIOSOLVEIT.INFINISEE\_RESULT\_RANK>  (1368) 
21457

>  <i_sd_version>  (1368) 
0

>  <b_lp_Chiralities_Consistent>  (1368) 
1

>  <b_sd_chiral_flag>  (1368) 
0

>  <canonical_id>  (1368) 
ATP-HTVS-D773B3DD8BD5

>  <compound_code>  (1368) 
77090

>  <title>  (1368) 
rxn502b____EMOL480353____EMOL30488121____EMOL13081280

>  <variant>  (1368) 
77090-2

>  <source_file>  (1368) 
运行/运行/ATP-VSW/ATP-VSW-DOCK_HTVS_1-002_lib.maegz

>  <canonical_smiles>  (1368) 
C[NH+](C)[C@H](CNc1c(NC(=O)c2ccccc2)c[nH+]c2ccccc12)c1ccc(Cl)cc1

>  <scaffold>  (1368) 
O=C(Nc1c[nH+]c2ccccc2c1NCCc1ccccc1)c1ccccc1

>  <molecular_formula>  (1368) 
C26H27ClN4O+2

$$$$
ATP-HTVS-D78134F4C173
     RDKit          3D

 59 61  0  0  0  0  0  0  0  0999 V2000
  197.8157  183.1593  153.7840 S   0  0  0  0  0  0  0  0  0  0  0  0
  197.0895  182.1996  155.0495 C   0  0  0  0  0  0  0  0  0  0  0  0
  196.9238  182.8604  156.3701 C   0  0  0  0  0  0  0  0  0  0  0  0
  197.3289  184.0110  156.5498 O   0  0  0  0  0  0  0  0  0  0  0  0
  196.2791  182.1463  157.3144 N   0  0  0  0  0  0  0  0  0  0  0  0
  195.7212  182.6256  158.5889 C   0  0  1  0  0  0  0  0  0  0  0  0
  196.3219  183.9588  159.0330 C   0  0  0  0  0  0  0  0  0  0  0  0
  197.6707  184.0174  159.4201 C   0  0  0  0  0  0  0  0  0  0  0  0
  198.2691  185.2533  159.7280 C   0  0  0  0  0  0  0  0  0  0  0  0
  197.5069  186.4411  159.7014 C   0  0  0  0  0  0  0  0  0  0  0  0
  196.1505  186.3903  159.3405 C   0  0  0  0  0  0  0  0  0  0  0  0
  195.5580  185.1546  159.0123 C   0  0  0  0  0  0  0  0  0  0  0  0
  194.1774  182.6577  158.5220 C   0  0  1  0  0  0  0  0  0  0  0  0
  193.5034  181.3072  158.2517 C   0  0  2  0  0  0  0  0  0  0  0  0
  196.7519  180.9471  154.5920 C   0  0  0  0  0  0  0  0  0  0  0  0
  197.1093  180.7518  153.2231 C   0  0  0  0  0  0  0  0  0  0  0  0
  196.8956  179.5156  152.5977 N   0  0  0  0  0  0  0  0  0  0  0  0
  197.9819  178.8832  151.8552 C   0  0  1  0  0  0  0  0  0  0  0  0
  199.3337  178.7799  152.5646 C   0  0  0  0  0  0  0  0  0  0  0  0
  199.4352  178.7791  153.9749 C   0  0  0  0  0  0  0  0  0  0  0  0
  200.6963  178.7357  154.6050 C   0  0  0  0  0  0  0  0  0  0  0  0
  201.8665  178.6438  153.8215 C   0  0  0  0  0  0  0  0  0  0  0  0
  201.7698  178.5992  152.4176 C   0  0  0  0  0  0  0  0  0  0  0  0
  200.5092  178.6732  151.7931 C   0  0  0  0  0  0  0  0  0  0  0  0
  200.7862  178.7893  156.1180 C   0  0  1  0  0  0  0  0  0  0  0  0
  200.4671  177.4857  156.7618 N   0  0  1  0  0  0  0  0  0  0  0  0
  201.2413  176.3455  156.2194 C   0  0  2  0  0  0  0  0  0  0  0  0
  200.5996  177.5655  158.2268 C   0  0  2  0  0  0  0  0  0  0  0  0
  197.7048  181.8479  152.6546 C   0  0  0  0  0  0  0  0  0  0  0  0
  196.0101  181.2032  157.0834 H   0  0  0  0  0  0  0  0  0  0  0  0
  196.0005  181.8757  159.3328 H   0  0  0  0  0  0  0  0  0  0  0  0
  198.2655  183.1124  159.4264 H   0  0  0  0  0  0  0  0  0  0  0  0
  199.3211  185.2981  159.9560 H   0  0  0  0  0  0  0  0  0  0  0  0
  197.9699  187.3905  159.9143 H   0  0  0  0  0  0  0  0  0  0  0  0
  195.5671  187.2961  159.2620 H   0  0  0  0  0  0  0  0  0  0  0  0
  194.5297  185.1749  158.6880 H   0  0  0  0  0  0  0  0  0  0  0  0
  193.7903  183.0536  159.4535 H   0  0  0  0  0  0  0  0  0  0  0  0
  193.8433  183.3561  157.7627 H   0  0  0  0  0  0  0  0  0  0  0  0
  192.4235  181.4311  158.1307 H   0  0  0  0  0  0  0  0  0  0  0  0
  193.6791  180.6213  159.0794 H   0  0  0  0  0  0  0  0  0  0  0  0
  193.8693  180.8469  157.3368 H   0  0  0  0  0  0  0  0  0  0  0  0
  196.2842  180.1827  155.1957 H   0  0  0  0  0  0  0  0  0  0  0  0
  196.3136  178.8763  153.1182 H   0  0  0  0  0  0  0  0  0  0  0  0
  197.6580  177.8785  151.5871 H   0  0  0  0  0  0  0  0  0  0  0  0
  198.1176  179.4331  150.9230 H   0  0  0  0  0  0  0  0  0  0  0  0
  198.5491  178.8245  154.5893 H   0  0  0  0  0  0  0  0  0  0  0  0
  202.8384  178.5987  154.2922 H   0  0  0  0  0  0  0  0  0  0  0  0
  202.6660  178.5170  151.8197 H   0  0  0  0  0  0  0  0  0  0  0  0
  200.4505  178.6495  150.7148 H   0  0  0  0  0  0  0  0  0  0  0  0
  201.7821  179.1203  156.4119 H   0  0  0  0  0  0  0  0  0  0  0  0
  200.0883  179.5468  156.4797 H   0  0  0  0  0  0  0  0  0  0  0  0
  202.3122  176.5160  156.3317 H   0  0  0  0  0  0  0  0  0  0  0  0
  201.0244  176.1810  155.1636 H   0  0  0  0  0  0  0  0  0  0  0  0
  200.9875  175.4254  156.7462 H   0  0  0  0  0  0  0  0  0  0  0  0
  201.6198  177.8003  158.5299 H   0  0  0  0  0  0  0  0  0  0  0  0
  200.2971  176.6366  158.7140 H   0  0  0  0  0  0  0  0  0  0  0  0
  199.9485  178.3586  158.5768 H   0  0  0  0  0  0  0  0  0  0  0  0
  198.0923  181.9790  151.6521 H   0  0  0  0  0  0  0  0  0  0  0  0
  199.4875  177.3129  156.5892 H   0  0  0  0  0  0  0  0  0  0  0  0
  1  2  1  0
  1 29  1  0
  2  3  1  0
  2 15  2  0
  3  4  2  0
  3  5  1  0
  5  6  1  0
  5 30  1  0
  6  7  1  0
  6 13  1  0
  6 31  1  1
  7  8  2  0
  7 12  1  0
  8  9  1  0
  8 32  1  0
  9 10  2  0
  9 33  1  0
 10 11  1  0
 10 34  1  0
 11 12  2  0
 11 35  1  0
 12 36  1  0
 13 14  1  0
 13 37  1  1
 13 38  1  0
 14 39  1  6
 14 40  1  0
 14 41  1  0
 15 16  1  0
 15 42  1  0
 16 17  1  0
 16 29  2  0
 17 18  1  0
 17 43  1  0
 18 19  1  0
 18 44  1  6
 18 45  1  0
 19 20  2  0
 19 24  1  0
 20 21  1  0
 20 46  1  0
 21 22  2  0
 21 25  1  0
 22 23  1  0
 22 47  1  0
 23 24  2  0
 23 48  1  0
 24 49  1  0
 25 26  1  0
 25 50  1  6
 25 51  1  0
 26 27  1  0
 26 28  1  0
 26 59  1  1
 27 52  1  6
 27 53  1  0
 27 54  1  0
 28 55  1  6
 28 56  1  0
 28 57  1  0
 29 58  1  0
M  CHG  1  26   1
M  END
>  <s_epik_cmdline>  (1369) 
J2VwaWtfcHl0aG9uJywgJy1waCcsICc3LjAwMDAwMCcsICctcGh0JywgJzIuMDAwMDAwJywgJy1tcycsICcxNicsICctdG4nLCAnOCcsICctbWEnLCAnMjAwJywgJy1pbWFlJywgJzxpbmZpbGUubWFlPicsICctb21hZScsICc8b3V0ZmlsZS5tYWU+Jw==

>  <s_epik_input>  (1369) 
W2NIXTFbY0hdW2NIXWMoW0NIMl1OKFtDSDNdKVtDSDNdKVtjSF1jMVtDSDJdW05IXWMoW2NIXTIpW2NIXXNjMkMoPU8pW05IXVtDQEhdKFtDSDJdW0NIM10pYzNbY0hdW2NIXVtjSF1bY0hdW2NIXTM=

>  <s_i_glide_gridfile>  (1369) 
ATP-Grid

>  <s_lp_Force_Field>  (1369) 
OPLS_2005

>  <s_lp_Variant>  (1369) 
rxn512b____EMOL509166____EMOL720738____EMOL2873214-1

>  <s_lp_label>  (1369) 
2847_sdstereoexpander_1_neutralizer_1_epik_1_stereoizer_1

>  <s_m_source_file>  (1369) 
ATP-VSW-LIGPREP-001-in.maegz

>  <s_sd_BIOSOLVEIT.INFINISEE\_QUERY\_NAME>  (1369) 
Ref-Lig

>  <s_sd_BIOSOLVEIT.INFINISEE\_QUERY\_SMILES>  (1369) 
S(c1nc2c(cc1C[NH2+]Cc3ccc(cc3)C[NH+](C)C)cccc2)Cc4ccccc4

>  <s_sd_BIOSOLVEIT.INFINISEE\_REACTION\_NAME>  (1369) 
rxn512b

>  <s_sd_BIOSOLVEIT.INFINISEE\_REAGENT1\_NAME>  (1369) 
EMOL509166

>  <s_sd_BIOSOLVEIT.INFINISEE\_REAGENT1\_SMILES>  (1369) 
NC(c1ccccc1)CC

>  <s_sd_BIOSOLVEIT.INFINISEE\_REAGENT2\_NAME>  (1369) 
EMOL720738

>  <s_sd_BIOSOLVEIT.INFINISEE\_REAGENT2\_SMILES>  (1369) 
BrC1=CSC(C(=O)O)=C1

>  <s_sd_BIOSOLVEIT.INFINISEE\_REAGENT3\_NAME>  (1369) 
EMOL2873214

>  <s_sd_BIOSOLVEIT.INFINISEE\_REAGENT3\_SMILES>  (1369) 
N(Cc1cc(ccc1)CN)(C)C

>  <s_sd_BIOSOLVEIT.INFINISEE\_SPACE>  (1369) 
eXplore_7tr_2022-12

>  <s_vsw_compound_code>  (1369) 
91073

>  <s_vsw_variant>  (1369) 
91073-1

>  <r_epik_Charging_Adjusted_Penalty>  (1369) 
0.086140609825027206

>  <r_epik_Ionization_Penalty>  (1369) 
0.043099999999999999

>  <r_epik_Ionization_Penalty_Charging>  (1369) 
0.043099999999999999

>  <r_epik_Ionization_Penalty_Neutral>  (1369) 
0

>  <r_epik_State_Penalty>  (1369) 
0.043099999999999999

>  <r_i_docking_score>  (1369) 
-4.4075856409840002

>  <r_i_glide_ecoul>  (1369) 
-8.3369121551513707

>  <r_i_glide_eff_state_penalty>  (1369) 
0.043099999999999999

>  <r_i_glide_einternal>  (1369) 
8.63568210601807

>  <r_i_glide_emodel>  (1369) 
-55.577574161954402

>  <r_i_glide_energy>  (1369) 
-43.5440769195557

>  <r_i_glide_erotb>  (1369) 
0.825328389943362

>  <r_i_glide_esite>  (1369) 
-0.155925727092525

>  <r_i_glide_evdw>  (1369) 
-35.207164764404297

>  <r_i_glide_gscore>  (1369) 
-4.4506856409840001

>  <r_i_glide_hbond>  (1369) 
-0.073542419814746796

>  <r_i_glide_ligand_efficiency>  (1369) 
-0.15198571175806899

>  <r_i_glide_ligand_efficiency_ln>  (1369) 
-1.0092253450569799

>  <r_i_glide_ligand_efficiency_sa>  (1369) 
-0.46694825897403702

>  <r_i_glide_lipo>  (1369) 
-1.1873360497998999

>  <r_i_glide_metal>  (1369) 
-0

>  <r_i_glide_rewards>  (1369) 
-0.84831477272727096

>  <r_lp_Energy>  (1369) 
14.441268000000001

>  <r_lp_tautomer_probability>  (1369) 
0.99999274205267796

>  <r_qp_ACxDN^.5/SA>  (1369) 
0.010853

>  <r_qp_CIQPlogS>  (1369) 
-4.1559999999999997

>  <r_qp_EA(eV)>  (1369) 
0.65900000000000003

>  <r_qp_FISA>  (1369) 
60.146999999999998

>  <r_qp_FOSA>  (1369) 
276.82999999999998

>  <r_qp_IP(eV)>  (1369) 
8.4079999999999995

>  <r_qp_Jm>  (1369) 
0.0029060723272019699

>  <r_qp_PISA>  (1369) 
341.72699999999998

>  <r_qp_PSA>  (1369) 
53.847999999999999

>  <r_qp_PercentHumanOralAbsorption>  (1369) 
92.144000000000005

>  <r_qp_QPPCaco>  (1369) 
165.70099999999999

>  <r_qp_QPPMDCK>  (1369) 
140.06899999999999

>  <r_qp_QPlogBB>  (1369) 
0.318

>  <r_qp_QPlogHERG>  (1369) 
-7.4870000000000001

>  <r_qp_QPlogKhsa>  (1369) 
0.77200000000000002

>  <r_qp_QPlogKp>  (1369) 
-4.6849999999999996

>  <r_qp_QPlogPC16>  (1369) 
14.259

>  <r_qp_QPlogPo/w>  (1369) 
4.351

>  <r_qp_QPlogPoct>  (1369) 
21.373999999999999

>  <r_qp_QPlogPw>  (1369) 
10.552

>  <r_qp_QPlogS>  (1369) 
-3.4620000000000002

>  <r_qp_QPpolrz>  (1369) 
45.177999999999997

>  <r_qp_SASA>  (1369) 
716.68399999999997

>  <r_qp_SAamideO>  (1369) 
0

>  <r_qp_SAfluorine>  (1369) 
0

>  <r_qp_WPSA>  (1369) 
37.978999999999999

>  <r_qp_accptHB>  (1369) 
5.5

>  <r_qp_dip^2/V>  (1369) 
0.044235299999999998

>  <r_qp_dipole>  (1369) 
7.7149999999999999

>  <r_qp_donorHB>  (1369) 
2

>  <r_qp_glob>  (1369) 
0.82242119999999996

>  <r_qp_mol_MW>  (1369) 
407.57299999999998

>  <r_qp_volume>  (1369) 
1345.5050000000001

>  <r_sd_BIOSOLVEIT.INFINISEE\_FTREES\_SIMILARITY>  (1369) 
0.90500000000000003

>  <r_sd_BIOSOLVEIT.LOGP>  (1369) 
3.8858000000000001

>  <r_sd_BIOSOLVEIT.MOLECULAR\_WEIGHT>  (1369) 
408.58600000000001

>  <r_sd_BIOSOLVEIT.TPSA>  (1369) 
45.57

>  <i_epik_Tot_Q>  (1369) 
1

>  <i_epik_Tot_abs_Q>  (1369) 
1

>  <i_f3d_flags>  (1369) 
0

>  <i_i_glide_confnum>  (1369) 
8

>  <i_i_glide_lignum>  (1369) 
1309

>  <i_i_glide_posenum>  (1369) 
15

>  <i_i_glide_rotatable_bonds>  (1369) 
10

>  <i_lp_mmshare_version>  (1369) 
65135

>  <i_m_ct_format>  (1369) 
2

>  <i_m_source_file_index>  (1369) 
2847

>  <i_qp_#NandO>  (1369) 
4

>  <i_qp_#acid>  (1369) 
0

>  <i_qp_#amide>  (1369) 
0

>  <i_qp_#amidine>  (1369) 
0

>  <i_qp_#amine>  (1369) 
2

>  <i_qp_#in34>  (1369) 
0

>  <i_qp_#in56>  (1369) 
17

>  <i_qp_#metab>  (1369) 
7

>  <i_qp_#nonHatm>  (1369) 
29

>  <i_qp_#noncon>  (1369) 
0

>  <i_qp_#ringatoms>  (1369) 
17

>  <i_qp_#rotor>  (1369) 
9

>  <i_qp_#rtvFG>  (1369) 
0

>  <i_qp_#stars>  (1369) 
0

>  <i_qp_CNS>  (1369) 
1

>  <i_qp_HumanOralAbsorption>  (1369) 
3

>  <i_qp_RuleOfFive>  (1369) 
0

>  <i_qp_RuleOfThree>  (1369) 
1

>  <i_sd_BIOSOLVEIT.INFINISEE\_RESULT\_RANK>  (1369) 
68642

>  <i_sd_version>  (1369) 
0

>  <b_lp_Chiralities_Consistent>  (1369) 
1

>  <b_sd_chiral_flag>  (1369) 
0

>  <canonical_id>  (1369) 
ATP-HTVS-D78134F4C173

>  <compound_code>  (1369) 
91073

>  <title>  (1369) 
rxn512b____EMOL509166____EMOL720738____EMOL2873214

>  <variant>  (1369) 
91073-1

>  <source_file>  (1369) 
运行/运行/ATP-VSW/ATP-VSW-DOCK_HTVS_1-001_lib/ATP-VSW-DOCK_HTVS_1-001_lib

>  <canonical_smiles>  (1369) 
CC[C@@H](NC(=O)c1cc(NCc2cccc(C[NH+](C)C)c2)cs1)c1ccccc1

>  <scaffold>  (1369) 
O=C(NCc1ccccc1)c1cc(NCc2ccccc2)cs1

>  <molecular_formula>  (1369) 
C24H30N3OS+

$$$$
ATP-HTVS-D7F859CCB519
     RDKit          3D

 61 64  0  0  0  0  0  0  0  0999 V2000
  200.4038  175.2764  152.0184 Cl  0  0  0  0  0  0  0  0  0  0  0  0
  200.7462  175.6669  153.6697 C   0  0  0  0  0  0  0  0  0  0  0  0
  201.2761  174.7016  154.5621 C   0  0  0  0  0  0  0  0  0  0  0  0
  201.4910  175.0748  155.9081 C   0  0  0  0  0  0  0  0  0  0  0  0
  201.2250  176.3831  156.3530 C   0  0  0  0  0  0  0  0  0  0  0  0
  200.7008  177.3378  155.4630 C   0  0  0  0  0  0  0  0  0  0  0  0
  200.4381  178.6257  155.9951 N   0  0  0  0  0  0  0  0  0  0  0  0
  200.4011  179.8101  155.3485 C   0  0  0  0  0  0  0  0  0  0  0  0
  200.4991  179.9469  154.1304 O   0  0  0  0  0  0  0  0  0  0  0  0
  200.2063  180.9166  156.2709 C   0  0  0  0  0  0  0  0  0  0  0  0
  201.1618  181.1747  157.3838 C   0  0  0  0  0  0  0  0  0  0  0  0
  200.9620  182.3672  158.1293 C   0  0  0  0  0  0  0  0  0  0  0  0
  201.8354  182.6867  159.1954 C   0  0  0  0  0  0  0  0  0  0  0  0
  202.8957  181.8279  159.5399 C   0  0  0  0  0  0  0  0  0  0  0  0
  203.0944  180.6444  158.8088 C   0  0  0  0  0  0  0  0  0  0  0  0
  202.2522  180.3324  157.7268 C   0  0  0  0  0  0  0  0  0  0  0  0
  199.8148  183.2989  157.7983 C   0  0  0  0  0  0  0  0  0  0  0  0
  199.6841  184.3445  158.4380 O   0  0  0  0  0  0  0  0  0  0  0  0
  198.9622  182.9256  156.8039 N   0  0  0  0  0  0  0  0  0  0  0  0
  199.1984  181.7762  156.0304 C   0  0  0  0  0  0  0  0  0  0  0  0
  197.7953  183.7565  156.4715 C   0  0  1  0  0  0  0  0  0  0  0  0
  196.7520  183.8089  157.5861 C   0  0  0  0  0  0  0  0  0  0  0  0
  196.4916  185.0142  158.2856 C   0  0  0  0  0  0  0  0  0  0  0  0
  197.1967  186.1415  157.9186 O   0  0  0  0  0  0  0  0  0  0  0  0
  196.9447  187.3559  158.6069 C   0  0  2  0  0  0  0  0  0  0  0  0
  195.5137  185.0125  159.3137 C   0  0  0  0  0  0  0  0  0  0  0  0
  194.8072  183.8353  159.6252 C   0  0  0  0  0  0  0  0  0  0  0  0
  195.0752  182.6454  158.9335 C   0  0  0  0  0  0  0  0  0  0  0  0
  196.0493  182.6284  157.9202 C   0  0  0  0  0  0  0  0  0  0  0  0
  200.4580  176.9699  154.1216 C   0  0  0  0  0  0  0  0  0  0  0  0
  201.6099  173.2641  154.1331 C   0  0  1  0  0  0  0  0  0  0  0  0
  203.0633  173.0354  153.9002 N   0  0  2  0  0  0  0  0  0  0  0  0
  203.9349  173.2823  155.0754 C   0  0  2  0  0  0  0  0  0  0  0  0
  203.5631  173.7293  152.6935 C   0  0  2  0  0  0  0  0  0  0  0  0
  201.8770  174.3599  156.6088 H   0  0  0  0  0  0  0  0  0  0  0  0
  201.4480  176.6461  157.3735 H   0  0  0  0  0  0  0  0  0  0  0  0
  200.3685  178.6860  156.9992 H   0  0  0  0  0  0  0  0  0  0  0  0
  201.6961  183.6004  159.7572 H   0  0  0  0  0  0  0  0  0  0  0  0
  203.5536  182.0812  160.3581 H   0  0  0  0  0  0  0  0  0  0  0  0
  203.9051  179.9767  159.0602 H   0  0  0  0  0  0  0  0  0  0  0  0
  202.4871  179.4298  157.1833 H   0  0  0  0  0  0  0  0  0  0  0  0
  198.5158  181.6370  155.2004 H   0  0  0  0  0  0  0  0  0  0  0  0
  198.1478  184.7522  156.1955 H   0  0  0  0  0  0  0  0  0  0  0  0
  197.2814  183.3871  155.5824 H   0  0  0  0  0  0  0  0  0  0  0  0
  197.5739  188.1385  158.1852 H   0  0  0  0  0  0  0  0  0  0  0  0
  197.1857  187.2769  159.6677 H   0  0  0  0  0  0  0  0  0  0  0  0
  195.9078  187.6724  158.4916 H   0  0  0  0  0  0  0  0  0  0  0  0
  195.2782  185.9016  159.8750 H   0  0  0  0  0  0  0  0  0  0  0  0
  194.0516  183.8534  160.3978 H   0  0  0  0  0  0  0  0  0  0  0  0
  194.5378  181.7363  159.1685 H   0  0  0  0  0  0  0  0  0  0  0  0
  196.2352  181.7075  157.3869 H   0  0  0  0  0  0  0  0  0  0  0  0
  200.0468  177.6760  153.4162 H   0  0  0  0  0  0  0  0  0  0  0  0
  201.2597  172.5808  154.9120 H   0  0  0  0  0  0  0  0  0  0  0  0
  201.0546  172.9565  153.2361 H   0  0  0  0  0  0  0  0  0  0  0  0
  203.9851  174.3389  155.3443 H   0  0  0  0  0  0  0  0  0  0  0  0
  204.9564  172.9608  154.8784 H   0  0  0  0  0  0  0  0  0  0  0  0
  203.5734  172.7161  155.9362 H   0  0  0  0  0  0  0  0  0  0  0  0
  203.4590  174.8110  152.7813 H   0  0  0  0  0  0  0  0  0  0  0  0
  203.0136  173.4095  151.8066 H   0  0  0  0  0  0  0  0  0  0  0  0
  204.6215  173.5128  152.5317 H   0  0  0  0  0  0  0  0  0  0  0  0
  203.1471  172.0365  153.7313 H   0  0  0  0  0  0  0  0  0  0  0  0
  1  2  1  0
  2  3  2  0
  2 30  1  0
  3  4  1  0
  3 31  1  0
  4  5  2  0
  4 35  1  0
  5  6  1  0
  5 36  1  0
  6  7  1  0
  6 30  2  0
  7  8  1  0
  7 37  1  0
  8  9  2  0
  8 10  1  0
 10 11  1  0
 10 20  2  0
 11 12  1  0
 11 16  2  0
 12 13  2  0
 12 17  1  0
 13 14  1  0
 13 38  1  0
 14 15  2  0
 14 39  1  0
 15 16  1  0
 15 40  1  0
 16 41  1  0
 17 18  2  0
 17 19  1  0
 19 20  1  0
 19 21  1  0
 20 42  1  0
 21 22  1  0
 21 43  1  6
 21 44  1  0
 22 23  1  0
 22 29  2  0
 23 24  1  0
 23 26  2  0
 24 25  1  0
 25 45  1  6
 25 46  1  0
 25 47  1  0
 26 27  1  0
 26 48  1  0
 27 28  2  0
 27 49  1  0
 28 29  1  0
 28 50  1  0
 29 51  1  0
 30 52  1  0
 31 32  1  0
 31 53  1  1
 31 54  1  0
 32 33  1  0
 32 34  1  0
 32 61  1  6
 33 55  1  1
 33 56  1  0
 33 57  1  0
 34 58  1  1
 34 59  1  0
 34 60  1  0
M  CHG  1  32   1
M  END
>  <s_epik_cmdline>  (1370) 
J2VwaWtfcHl0aG9uJywgJy1waCcsICc3LjAwMDAwMCcsICctcGh0JywgJzIuMDAwMDAwJywgJy1tcycsICcxNicsICctdG4nLCAnOCcsICctbWEnLCAnMjAwJywgJy1pbWFlJywgJzxpbmZpbGUubWFlPicsICctb21hZScsICc8b3V0ZmlsZS5tYWU+Jw==

>  <s_epik_input>  (1370) 
W0NIM11OKFtDSDNdKVtDSDJdYyhjMUNsKVtjSF1bY0hdYyhbY0hdMSlbTkhdQyg9TyljMltjSF1uKGMoPU8pYyhjMjMpW2NIXVtjSF1bY0hdW2NIXTMpW0NIMl1jNGMoT1tDSDNdKVtjSF1bY0hdW2NIXVtjSF00

>  <s_i_glide_gridfile>  (1370) 
ATP-Grid

>  <s_lp_Force_Field>  (1370) 
OPLS_2005

>  <s_lp_Variant>  (1370) 
YAS_R001____OTV11186010____OTV1133304-1

>  <s_lp_label>  (1370) 
90_sdstereoexpander_1_neutralizer_1_epik_1_stereoizer_1

>  <s_m_source_file>  (1370) 
ATP-VSW-LIGPREP-001-in.maegz

>  <s_sd_BIOSOLVEIT.INFINISEE\_QUERY\_NAME>  (1370) 
Ref-Lig

>  <s_sd_BIOSOLVEIT.INFINISEE\_QUERY\_SMILES>  (1370) 
S(c1nc2c(cc1C[NH2+]Cc3ccc(cc3)C[NH+](C)C)cccc2)Cc4ccccc4

>  <s_sd_BIOSOLVEIT.INFINISEE\_REACTION\_NAME>  (1370) 
YAS_R001

>  <s_sd_BIOSOLVEIT.INFINISEE\_REAGENT1\_NAME>  (1370) 
OTV11186010

>  <s_sd_BIOSOLVEIT.INFINISEE\_REAGENT1\_SMILES>  (1370) 
O=C1N(C=C(c2c1cccc2)C(=O)O)Cc3c(OC)cccc3

>  <s_sd_BIOSOLVEIT.INFINISEE\_REAGENT2\_NAME>  (1370) 
OTV1133304

>  <s_sd_BIOSOLVEIT.INFINISEE\_REAGENT2\_SMILES>  (1370) 
Clc1c(ccc(N)c1)CN(C)C

>  <s_sd_BIOSOLVEIT.INFINISEE\_SPACE>  (1370) 
CHEMriya_12bn_2022-01

>  <s_vsw_compound_code>  (1370) 
2849

>  <s_vsw_variant>  (1370) 
2849-1

>  <r_epik_Charging_Adjusted_Penalty>  (1370) 
0.118663257388397

>  <r_epik_Ionization_Penalty>  (1370) 
0.059400000000000001

>  <r_epik_Ionization_Penalty_Charging>  (1370) 
0.059299999999999999

>  <r_epik_Ionization_Penalty_Neutral>  (1370) 
0

>  <r_epik_State_Penalty>  (1370) 
0.059299999999999999

>  <r_i_docking_score>  (1370) 
-4.87012516392093

>  <r_i_glide_ecoul>  (1370) 
-7.13332176208496

>  <r_i_glide_eff_state_penalty>  (1370) 
0.059299999999999999

>  <r_i_glide_einternal>  (1370) 
4.4464583396911603

>  <r_i_glide_emodel>  (1370) 
-59.587730064329101

>  <r_i_glide_energy>  (1370) 
-44.178392410278299

>  <r_i_glide_erotb>  (1370) 
0.53415330486428003

>  <r_i_glide_esite>  (1370) 
-0.130545855752252

>  <r_i_glide_evdw>  (1370) 
-37.045070648193402

>  <r_i_glide_gscore>  (1370) 
-4.9294251639209303

>  <r_i_glide_hbond>  (1370) 
-0.20000000000000001

>  <r_i_glide_ligand_efficiency>  (1370) 
-0.143238975409439

>  <r_i_glide_ligand_efficiency_ln>  (1370) 
-1.0759472510939501

>  <r_i_glide_ligand_efficiency_sa>  (1370) 
-0.464038674593858

>  <r_i_glide_lipo>  (1370) 
-1.828787270856

>  <r_i_glide_metal>  (1370) 
-0

>  <r_i_glide_rewards>  (1370) 
-0.381993545454545

>  <r_lp_Energy>  (1370) 
45.748010000000001

>  <r_lp_tautomer_probability>  (1370) 
1

>  <r_qp_ACxDN^.5/SA>  (1370) 
0.010537599999999999

>  <r_qp_CIQPlogS>  (1370) 
-5.8440000000000003

>  <r_qp_EA(eV)>  (1370) 
0.63900000000000001

>  <r_qp_FISA>  (1370) 
64.378

>  <r_qp_FOSA>  (1370) 
267.33999999999997

>  <r_qp_IP(eV)>  (1370) 
8.7799999999999994

>  <r_qp_Jm>  (1370) 
0.0054919446861969104

>  <r_qp_PISA>  (1370) 
399.86900000000003

>  <r_qp_PSA>  (1370) 
70.491

>  <r_qp_PercentHumanOralAbsorption>  (1370) 
100

>  <r_qp_QPPCaco>  (1370) 
605.75999999999999

>  <r_qp_QPPMDCK>  (1370) 
608.21600000000001

>  <r_qp_QPlogBB>  (1370) 
-0.021000000000000001

>  <r_qp_QPlogHERG>  (1370) 
-7.5599999999999996

>  <r_qp_QPlogKhsa>  (1370) 
0.58699999999999997

>  <r_qp_QPlogKp>  (1370) 
-2.6880000000000002

>  <r_qp_QPlogPC16>  (1370) 
15.601000000000001

>  <r_qp_QPlogPo/w>  (1370) 
4.5759999999999996

>  <r_qp_QPlogPoct>  (1370) 
23.553000000000001

>  <r_qp_QPlogPw>  (1370) 
12.826000000000001

>  <r_qp_QPlogS>  (1370) 
-5.25

>  <r_qp_QPpolrz>  (1370) 
51.073999999999998

>  <r_qp_SASA>  (1370) 
782.90800000000002

>  <r_qp_SAamideO>  (1370) 
0

>  <r_qp_SAfluorine>  (1370) 
0

>  <r_qp_WPSA>  (1370) 
51.320999999999998

>  <r_qp_accptHB>  (1370) 
8.25

>  <r_qp_dip^2/V>  (1370) 
0.040283199999999998

>  <r_qp_dipole>  (1370) 
7.6340000000000003

>  <r_qp_donorHB>  (1370) 
1

>  <r_qp_glob>  (1370) 
0.7902091

>  <r_qp_mol_MW>  (1370) 
475.97399999999999

>  <r_qp_volume>  (1370) 
1446.877

>  <r_sd_BIOSOLVEIT.INFINISEE\_FTREES\_SIMILARITY>  (1370) 
0.91000000000000003

>  <r_sd_BIOSOLVEIT.LOGP>  (1370) 
3.6086

>  <r_sd_BIOSOLVEIT.MOLECULAR\_WEIGHT>  (1370) 
476.98099999999999

>  <r_sd_BIOSOLVEIT.TPSA>  (1370) 
64.769999999999996

>  <i_epik_Tot_Q>  (1370) 
1

>  <i_epik_Tot_abs_Q>  (1370) 
1

>  <i_f3d_flags>  (1370) 
0

>  <i_i_glide_confnum>  (1370) 
2

>  <i_i_glide_lignum>  (1370) 
12

>  <i_i_glide_posenum>  (1370) 
11

>  <i_i_glide_rotatable_bonds>  (1370) 
8

>  <i_lp_mmshare_version>  (1370) 
65135

>  <i_m_ct_format>  (1370) 
2

>  <i_m_source_file_index>  (1370) 
90

>  <i_qp_#NandO>  (1370) 
6

>  <i_qp_#acid>  (1370) 
0

>  <i_qp_#amide>  (1370) 
0

>  <i_qp_#amidine>  (1370) 
0

>  <i_qp_#amine>  (1370) 
1

>  <i_qp_#in34>  (1370) 
0

>  <i_qp_#in56>  (1370) 
22

>  <i_qp_#metab>  (1370) 
4

>  <i_qp_#nonHatm>  (1370) 
34

>  <i_qp_#noncon>  (1370) 
0

>  <i_qp_#ringatoms>  (1370) 
22

>  <i_qp_#rotor>  (1370) 
7

>  <i_qp_#rtvFG>  (1370) 
0

>  <i_qp_#stars>  (1370) 
0

>  <i_qp_CNS>  (1370) 
1

>  <i_qp_HumanOralAbsorption>  (1370) 
3

>  <i_qp_RuleOfFive>  (1370) 
0

>  <i_qp_RuleOfThree>  (1370) 
0

>  <i_sd_BIOSOLVEIT.INFINISEE\_RESULT\_RANK>  (1370) 
47024

>  <i_sd_version>  (1370) 
0

>  <b_lp_Chiralities_Consistent>  (1370) 
1

>  <b_sd_chiral_flag>  (1370) 
0

>  <canonical_id>  (1370) 
ATP-HTVS-D7F859CCB519

>  <compound_code>  (1370) 
2849

>  <title>  (1370) 
YAS_R001____OTV11186010____OTV1133304

>  <variant>  (1370) 
2849-1

>  <source_file>  (1370) 
运行/运行/ATP-VSW/ATP-VSW-DOCK_HTVS_1-001_lib/ATP-VSW-DOCK_HTVS_1-001_lib

>  <canonical_smiles>  (1370) 
COc1ccccc1Cn1cc(C(=O)Nc2ccc(C[NH+](C)C)c(Cl)c2)c2ccccc2c1=O

>  <scaffold>  (1370) 
O=C(Nc1ccccc1)c1cn(Cc2ccccc2)c(=O)c2ccccc12

>  <molecular_formula>  (1370) 
C27H27ClN3O3+

$$$$
ATP-HTVS-D7FBECEDF81C
     RDKit          3D

 55 58  0  0  0  0  0  0  0  0999 V2000
  200.7763  177.9117  157.7746 Br  0  0  0  0  0  0  0  0  0  0  0  0
  201.6475  178.1093  155.9863 C   0  0  1  0  0  0  0  0  0  0  0  0
  201.9002  176.7190  155.4004 C   0  0  0  0  0  0  0  0  0  0  0  0
  203.1473  176.4119  154.8094 C   0  0  0  0  0  0  0  0  0  0  0  0
  203.3974  175.1262  154.2944 C   0  0  0  0  0  0  0  0  0  0  0  0
  202.4004  174.1353  154.3575 C   0  0  0  0  0  0  0  0  0  0  0  0
  201.1494  174.4389  154.9232 C   0  0  0  0  0  0  0  0  0  0  0  0
  200.8950  175.7252  155.4312 C   0  0  0  0  0  0  0  0  0  0  0  0
  200.8149  178.9508  155.0201 C   0  0  0  0  0  0  0  0  0  0  0  0
  201.3921  179.6778  154.2079 O   0  0  0  0  0  0  0  0  0  0  0  0
  199.4815  178.8337  155.0955 N   0  0  0  0  0  0  0  0  0  0  0  0
  198.5579  179.4681  154.2139 C   0  0  0  0  0  0  0  0  0  0  0  0
  197.6797  180.4503  154.7267 C   0  0  0  0  0  0  0  0  0  0  0  0
  197.7158  180.8357  156.0834 N   0  0  0  0  0  0  0  0  0  0  0  0
  197.3924  182.0947  156.6008 C   0  0  0  0  0  0  0  0  0  0  0  0
  197.7658  183.2760  155.9196 C   0  0  0  0  0  0  0  0  0  0  0  0
  197.4923  184.5362  156.4842 C   0  0  0  0  0  0  0  0  0  0  0  0
  196.8433  184.6377  157.7293 C   0  0  0  0  0  0  0  0  0  0  0  0
  196.6368  185.9230  158.2478 N   0  0  0  0  0  0  0  0  0  0  0  0
  195.5821  186.2006  159.2182 C   0  0  1  0  0  0  0  0  0  0  0  0
  196.1378  186.2224  160.6458 C   0  0  1  0  0  0  0  0  0  0  0  0
  195.1356  186.6417  161.5520 O   0  0  0  0  0  0  0  0  0  0  0  0
  196.4558  183.4527  158.4027 C   0  0  0  0  0  0  0  0  0  0  0  0
  196.7534  182.1939  157.8549 C   0  0  0  0  0  0  0  0  0  0  0  0
  196.7545  181.0322  153.8330 C   0  0  0  0  0  0  0  0  0  0  0  0
  196.6720  180.7030  152.5269 N   0  0  0  0  0  0  0  0  0  0  0  0
  197.4983  179.7626  152.0228 C   0  0  0  0  0  0  0  0  0  0  0  0
  198.4732  179.1052  152.8340 C   0  0  0  0  0  0  0  0  0  0  0  0
  199.2939  178.1104  152.2570 C   0  0  0  0  0  0  0  0  0  0  0  0
  199.1715  177.7646  150.8998 C   0  0  0  0  0  0  0  0  0  0  0  0
  198.2151  178.4090  150.0944 C   0  0  0  0  0  0  0  0  0  0  0  0
  197.3903  179.3988  150.6581 C   0  0  0  0  0  0  0  0  0  0  0  0
  202.5909  178.6295  156.1470 H   0  0  0  0  0  0  0  0  0  0  0  0
  203.9250  177.1626  154.7694 H   0  0  0  0  0  0  0  0  0  0  0  0
  204.3585  174.8891  153.8687 H   0  0  0  0  0  0  0  0  0  0  0  0
  202.5959  173.1382  153.9793 H   0  0  0  0  0  0  0  0  0  0  0  0
  200.3898  173.6778  154.9801 H   0  0  0  0  0  0  0  0  0  0  0  0
  199.9266  175.9425  155.8627 H   0  0  0  0  0  0  0  0  0  0  0  0
  199.0796  178.3673  155.8995 H   0  0  0  0  0  0  0  0  0  0  0  0
  197.8536  180.0952  156.7718 H   0  0  0  0  0  0  0  0  0  0  0  0
  198.2745  183.2200  154.9690 H   0  0  0  0  0  0  0  0  0  0  0  0
  197.8104  185.4155  155.9616 H   0  0  0  0  0  0  0  0  0  0  0  0
  197.0506  186.7199  157.7814 H   0  0  0  0  0  0  0  0  0  0  0  0
  195.1553  187.1754  158.9715 H   0  0  0  0  0  0  0  0  0  0  0  0
  194.7618  185.4858  159.1337 H   0  0  0  0  0  0  0  0  0  0  0  0
  196.4825  185.2283  160.9307 H   0  0  0  0  0  0  0  0  0  0  0  0
  196.9924  186.8943  160.7261 H   0  0  0  0  0  0  0  0  0  0  0  0
  194.9027  187.5355  161.3450 H   0  0  0  0  0  0  0  0  0  0  0  0
  195.9683  183.5025  159.3648 H   0  0  0  0  0  0  0  0  0  0  0  0
  196.4774  181.2933  158.3866 H   0  0  0  0  0  0  0  0  0  0  0  0
  196.0620  181.7813  154.1706 H   0  0  0  0  0  0  0  0  0  0  0  0
  200.0259  177.5694  152.8415 H   0  0  0  0  0  0  0  0  0  0  0  0
  199.8068  176.9928  150.4917 H   0  0  0  0  0  0  0  0  0  0  0  0
  198.1215  178.1273  149.0574 H   0  0  0  0  0  0  0  0  0  0  0  0
  196.6473  179.8832  150.0409 H   0  0  0  0  0  0  0  0  0  0  0  0
  1  2  1  0
  2  3  1  0
  2  9  1  0
  2 33  1  1
  3  4  2  0
  3  8  1  0
  4  5  1  0
  4 34  1  0
  5  6  2  0
  5 35  1  0
  6  7  1  0
  6 36  1  0
  7  8  2  0
  7 37  1  0
  8 38  1  0
  9 10  2  0
  9 11  1  0
 11 12  1  0
 11 39  1  0
 12 13  2  0
 12 28  1  0
 13 14  1  0
 13 25  1  0
 14 15  1  0
 14 40  1  0
 15 16  1  0
 15 24  2  0
 16 17  2  0
 16 41  1  0
 17 18  1  0
 17 42  1  0
 18 19  1  0
 18 23  2  0
 19 20  1  0
 19 43  1  0
 20 21  1  0
 20 44  1  6
 20 45  1  0
 21 22  1  0
 21 46  1  1
 21 47  1  0
 22 48  1  0
 23 24  1  0
 23 49  1  0
 24 50  1  0
 25 26  2  0
 25 51  1  0
 26 27  1  0
 27 28  1  0
 27 32  2  0
 28 29  2  0
 29 30  1  0
 29 52  1  0
 30 31  2  0
 30 53  1  0
 31 32  1  0
 31 54  1  0
 32 55  1  0
M  END
>  <s_epik_cmdline>  (1371) 
J2VwaWtfcHl0aG9uJywgJy1waCcsICc3LjAwMDAwMCcsICctcGh0JywgJzIuMDAwMDAwJywgJy1tcycsICcxNicsICctdG4nLCAnOCcsICctbWEnLCAnMjAwJywgJy1pbWFlJywgJzxpbmZpbGUubWFlPicsICctb21hZScsICc8b3V0ZmlsZS5tYWU+Jw==

>  <s_epik_input>  (1371) 
W2NIXTFbY0hdW2NIXVtjSF1bY0hdYzFbQ0BIXShCcilDKD1PKVtOSF1jKGMoYzIzKVtjSF1bY0hdW2NIXVtjSF0zKWMoW2NIXW4yKVtOSF1jNFtjSF1bY0hdYyhbY0hdW2NIXTQpW05IXVtDSDJdW0NIMl1bT0hd

>  <s_i_glide_gridfile>  (1371) 
ATP-Grid

>  <s_lp_Force_Field>  (1371) 
OPLS_2005

>  <s_lp_Variant>  (1371) 
rxn502b____EMOL535380____EMOL13728749____EMOL8314610-2

>  <s_lp_label>  (1371) 
2493_sdstereoexpander_2_neutralizer_1_epik_1_stereoizer_1

>  <s_m_source_file>  (1371) 
ATP-VSW-LIGPREP-002-in.maegz

>  <s_sd_BIOSOLVEIT.INFINISEE\_QUERY\_NAME>  (1371) 
Ref-Lig

>  <s_sd_BIOSOLVEIT.INFINISEE\_QUERY\_SMILES>  (1371) 
S(c1nc2c(cc1C[NH2+]Cc3ccc(cc3)C[NH+](C)C)cccc2)Cc4ccccc4

>  <s_sd_BIOSOLVEIT.INFINISEE\_REACTION\_NAME>  (1371) 
rxn502b

>  <s_sd_BIOSOLVEIT.INFINISEE\_REAGENT1\_NAME>  (1371) 
EMOL535380

>  <s_sd_BIOSOLVEIT.INFINISEE\_REAGENT1\_SMILES>  (1371) 
BrC(c1ccccc1)C(=O)O

>  <s_sd_BIOSOLVEIT.INFINISEE\_REAGENT2\_NAME>  (1371) 
EMOL13728749

>  <s_sd_BIOSOLVEIT.INFINISEE\_REAGENT2\_SMILES>  (1371) 
Brc1c(N)c2c(nc1)cccc2

>  <s_sd_BIOSOLVEIT.INFINISEE\_REAGENT3\_NAME>  (1371) 
EMOL8314610

>  <s_sd_BIOSOLVEIT.INFINISEE\_REAGENT3\_SMILES>  (1371) 
OCCNc1ccc(N)cc1

>  <s_sd_BIOSOLVEIT.INFINISEE\_SPACE>  (1371) 
eXplore_7tr_2022-12

>  <s_vsw_compound_code>  (1371) 
79746

>  <s_vsw_variant>  (1371) 
79746-2

>  <r_epik_Charging_Adjusted_Penalty>  (1371) 
0.026791330920666601

>  <r_epik_Ionization_Penalty>  (1371) 
0.0292

>  <r_epik_Ionization_Penalty_Charging>  (1371) 
0

>  <r_epik_Ionization_Penalty_Neutral>  (1371) 
0.0292

>  <r_epik_State_Penalty>  (1371) 
0.026800000000000001

>  <r_i_docking_score>  (1371) 
-3.55469757761565

>  <r_i_glide_ecoul>  (1371) 
-5.3448672294616699

>  <r_i_glide_eff_state_penalty>  (1371) 
0.026800000000000001

>  <r_i_glide_einternal>  (1371) 
5.9490079879760698

>  <r_i_glide_emodel>  (1371) 
-52.466922084836497

>  <r_i_glide_energy>  (1371) 
-45.088847637176499

>  <r_i_glide_erotb>  (1371) 
0.67448518600725005

>  <r_i_glide_esite>  (1371) 
-0.108485266892659

>  <r_i_glide_evdw>  (1371) 
-39.743980407714801

>  <r_i_glide_gscore>  (1371) 
-3.5814975776156501

>  <r_i_glide_hbond>  (1371) 
0

>  <r_i_glide_ligand_efficiency>  (1371) 
-0.11108429930048901

>  <r_i_glide_ligand_efficiency_ln>  (1371) 
-0.79599368502447498

>  <r_i_glide_ligand_efficiency_sa>  (1371) 
-0.352670666726073

>  <r_i_glide_lipo>  (1371) 
-1.2997937555616199

>  <r_i_glide_metal>  (1371) 
-0

>  <r_i_glide_rewards>  (1371) 
-0.058774636363635502

>  <r_lp_Energy>  (1371) 
40.078389999999999

>  <r_qp_ACxDN^.5/SA>  (1371) 
0.0178432

>  <r_qp_CIQPlogS>  (1371) 
-7.5640000000000001

>  <r_qp_EA(eV)>  (1371) 
1.075

>  <r_qp_FISA>  (1371) 
121.31699999999999

>  <r_qp_FOSA>  (1371) 
106.645

>  <r_qp_IP(eV)>  (1371) 
7.5800000000000001

>  <r_qp_Jm>  (1371) 
0.0295804144563315

>  <r_qp_PISA>  (1371) 
457.13200000000001

>  <r_qp_PSA>  (1371) 
89.328000000000003

>  <r_qp_PercentHumanOralAbsorption>  (1371) 
100

>  <r_qp_QPPCaco>  (1371) 
700.57399999999996

>  <r_qp_QPPMDCK>  (1371) 
773.13800000000003

>  <r_qp_QPlogBB>  (1371) 
-1.1040000000000001

>  <r_qp_QPlogHERG>  (1371) 
-7.0640000000000001

>  <r_qp_QPlogKhsa>  (1371) 
0.44400000000000001

>  <r_qp_QPlogKp>  (1371) 
-1.2809999999999999

>  <r_qp_QPlogPC16>  (1371) 
16.431999999999999

>  <r_qp_QPlogPo/w>  (1371) 
4.4829999999999997

>  <r_qp_QPlogPoct>  (1371) 
26.193000000000001

>  <r_qp_QPlogPw>  (1371) 
15.957000000000001

>  <r_qp_QPlogS>  (1371) 
-5.9390000000000001

>  <r_qp_QPpolrz>  (1371) 
47.101999999999997

>  <r_qp_SASA>  (1371) 
750.98500000000001

>  <r_qp_SAamideO>  (1371) 
0

>  <r_qp_SAfluorine>  (1371) 
0

>  <r_qp_WPSA>  (1371) 
65.891000000000005

>  <r_qp_accptHB>  (1371) 
6.7000000000000002

>  <r_qp_dip^2/V>  (1371) 
0.0505257

>  <r_qp_dipole>  (1371) 
8.3079999999999998

>  <r_qp_donorHB>  (1371) 
4

>  <r_qp_glob>  (1371) 
0.79282260000000004

>  <r_qp_mol_MW>  (1371) 
491.38600000000002

>  <r_qp_volume>  (1371) 
1366.0409999999999

>  <r_sd_BIOSOLVEIT.INFINISEE\_FTREES\_SIMILARITY>  (1371) 
0.91400000000000003

>  <r_sd_BIOSOLVEIT.LOGP>  (1371) 
5.4573

>  <r_sd_BIOSOLVEIT.MOLECULAR\_WEIGHT>  (1371) 
491.387

>  <r_sd_BIOSOLVEIT.TPSA>  (1371) 
86.280000000000001

>  <i_epik_Tot_Q>  (1371) 
0

>  <i_epik_Tot_abs_Q>  (1371) 
0

>  <i_f3d_flags>  (1371) 
0

>  <i_i_glide_confnum>  (1371) 
4

>  <i_i_glide_lignum>  (1371) 
1084

>  <i_i_glide_posenum>  (1371) 
6

>  <i_i_glide_rotatable_bonds>  (1371) 
10

>  <i_lp_mmshare_version>  (1371) 
65135

>  <i_m_ct_format>  (1371) 
2

>  <i_m_source_file_index>  (1371) 
2493

>  <i_qp_#NandO>  (1371) 
6

>  <i_qp_#acid>  (1371) 
0

>  <i_qp_#amide>  (1371) 
0

>  <i_qp_#amidine>  (1371) 
0

>  <i_qp_#amine>  (1371) 
0

>  <i_qp_#in34>  (1371) 
0

>  <i_qp_#in56>  (1371) 
22

>  <i_qp_#metab>  (1371) 
8

>  <i_qp_#nonHatm>  (1371) 
32

>  <i_qp_#noncon>  (1371) 
0

>  <i_qp_#ringatoms>  (1371) 
22

>  <i_qp_#rotor>  (1371) 
9

>  <i_qp_#rtvFG>  (1371) 
1

>  <i_qp_#stars>  (1371) 
2

>  <i_qp_CNS>  (1371) 
-2

>  <i_qp_HumanOralAbsorption>  (1371) 
3

>  <i_qp_RuleOfFive>  (1371) 
0

>  <i_qp_RuleOfThree>  (1371) 
2

>  <i_sd_BIOSOLVEIT.INFINISEE\_RESULT\_RANK>  (1371) 
29861

>  <i_sd_version>  (1371) 
0

>  <b_lp_Chiralities_Consistent>  (1371) 
1

>  <b_sd_chiral_flag>  (1371) 
0

>  <canonical_id>  (1371) 
ATP-HTVS-D7FBECEDF81C

>  <compound_code>  (1371) 
79746

>  <title>  (1371) 
rxn502b____EMOL535380____EMOL13728749____EMOL8314610

>  <variant>  (1371) 
79746-2

>  <source_file>  (1371) 
运行/运行/ATP-VSW/ATP-VSW-DOCK_HTVS_1-002_lib.maegz

>  <canonical_smiles>  (1371) 
O=C(Nc1c(Nc2ccc(NCCO)cc2)cnc2ccccc12)[C@@H](Br)c1ccccc1

>  <scaffold>  (1371) 
O=C(Cc1ccccc1)Nc1c(Nc2ccccc2)cnc2ccccc12

>  <molecular_formula>  (1371) 
C25H23BrN4O2

$$$$
ATP-HTVS-D806BF0778F9
     RDKit          3D

 52 55  0  0  0  0  0  0  0  0999 V2000
  196.6976  187.4625  160.1856 F   0  0  0  0  0  0  0  0  0  0  0  0
  196.4221  186.1859  159.8092 C   0  0  0  0  0  0  0  0  0  0  0  0
  197.4652  185.3216  159.3293 C   0  0  0  0  0  0  0  0  0  0  0  0
  197.1827  183.9836  159.0706 C   0  0  0  0  0  0  0  0  0  0  0  0
  195.8696  183.4834  159.1140 C   0  0  0  0  0  0  0  0  0  0  0  0
  194.8248  184.3257  159.5925 C   0  0  0  0  0  0  0  0  0  0  0  0
  195.1296  185.6426  159.9816 C   0  0  0  0  0  0  0  0  0  0  0  0
  195.5580  182.0782  158.6164 C   0  0  1  0  0  0  0  0  0  0  0  0
  195.8879  181.8440  157.1837 N   0  0  1  0  0  0  0  0  0  0  0  0
  197.2916  182.1150  156.8369 C   0  0  1  0  0  0  0  0  0  0  0  0
  197.5373  181.8250  155.3917 C   0  0  0  0  0  0  0  0  0  0  0  0
  198.3932  180.8565  154.7741 C   0  0  0  0  0  0  0  0  0  0  0  0
  198.4113  181.0306  153.4541 N   0  0  0  0  0  0  0  0  0  0  0  0
  197.6401  182.1226  153.2098 N   0  0  0  0  0  0  0  0  0  0  0  0
  197.4137  182.5674  151.8943 C   0  0  0  0  0  0  0  0  0  0  0  0
  198.0391  181.9061  150.8153 C   0  0  0  0  0  0  0  0  0  0  0  0
  197.8288  182.3444  149.4969 C   0  0  0  0  0  0  0  0  0  0  0  0
  196.9913  183.4452  149.2471 C   0  0  0  0  0  0  0  0  0  0  0  0
  196.3534  184.0989  150.3142 C   0  0  0  0  0  0  0  0  0  0  0  0
  196.5623  183.6640  151.6349 C   0  0  0  0  0  0  0  0  0  0  0  0
  197.1413  182.6463  154.3766 C   0  0  0  0  0  0  0  0  0  0  0  0
  199.1493  179.7816  155.4237 C   0  0  0  0  0  0  0  0  0  0  0  0
  199.1533  178.5177  154.8169 C   0  0  0  0  0  0  0  0  0  0  0  0
  199.8144  177.4444  155.4295 C   0  0  0  0  0  0  0  0  0  0  0  0
  200.4592  177.6190  156.6667 C   0  0  0  0  0  0  0  0  0  0  0  0
  201.0943  176.5829  157.2593 F   0  0  0  0  0  0  0  0  0  0  0  0
  200.4610  178.8819  157.2810 C   0  0  0  0  0  0  0  0  0  0  0  0
  199.8215  179.9644  156.6548 C   0  0  0  0  0  0  0  0  0  0  0  0
  198.8713  185.8558  159.0861 C   0  0  1  0  0  0  0  0  0  0  0  0
  199.8634  184.8802  159.3481 O   0  0  0  0  0  0  0  0  0  0  0  0
  195.7063  180.8438  157.0322 H   0  0  0  0  0  0  0  0  0  0  0  0
  197.9950  183.3429  158.7306 H   0  0  0  0  0  0  0  0  0  0  0  0
  193.8128  183.9297  159.7103 H   0  0  0  0  0  0  0  0  0  0  0  0
  194.3534  186.2626  160.4152 H   0  0  0  0  0  0  0  0  0  0  0  0
  196.0655  181.3602  159.2603 H   0  0  0  0  0  0  0  0  0  0  0  0
  194.5013  181.8617  158.7207 H   0  0  0  0  0  0  0  0  0  0  0  0
  197.5670  183.1499  156.9566 H   0  0  0  0  0  0  0  0  0  0  0  0
  197.8998  181.5208  157.5193 H   0  0  0  0  0  0  0  0  0  0  0  0
  198.6929  181.0618  150.9831 H   0  0  0  0  0  0  0  0  0  0  0  0
  198.3054  181.8327  148.6742 H   0  0  0  0  0  0  0  0  0  0  0  0
  196.8126  183.7747  148.2343 H   0  0  0  0  0  0  0  0  0  0  0  0
  195.7039  184.9370  150.1172 H   0  0  0  0  0  0  0  0  0  0  0  0
  196.0596  184.1898  152.4320 H   0  0  0  0  0  0  0  0  0  0  0  0
  196.5253  183.5420  154.4314 H   0  0  0  0  0  0  0  0  0  0  0  0
  198.6504  178.3859  153.8736 H   0  0  0  0  0  0  0  0  0  0  0  0
  199.8169  176.4815  154.9520 H   0  0  0  0  0  0  0  0  0  0  0  0
  200.9550  179.0244  158.2292 H   0  0  0  0  0  0  0  0  0  0  0  0
  199.8763  180.9254  157.1439 H   0  0  0  0  0  0  0  0  0  0  0  0
  198.9927  186.1812  158.0426 H   0  0  0  0  0  0  0  0  0  0  0  0
  199.0631  186.7170  159.7303 H   0  0  0  0  0  0  0  0  0  0  0  0
  199.7931  184.6165  160.2528 H   0  0  0  0  0  0  0  0  0  0  0  0
  195.2702  182.3962  156.5728 H   0  0  0  0  0  0  0  0  0  0  0  0
  1  2  1  0
  2  3  2  0
  2  7  1  0
  3  4  1  0
  3 29  1  0
  4  5  2  0
  4 32  1  0
  5  6  1  0
  5  8  1  0
  6  7  2  0
  6 33  1  0
  7 34  1  0
  8  9  1  0
  8 35  1  1
  8 36  1  0
  9 10  1  0
  9 31  1  6
  9 52  1  0
 10 11  1  0
 10 37  1  6
 10 38  1  0
 11 12  1  0
 11 21  2  0
 12 13  2  0
 12 22  1  0
 13 14  1  0
 14 15  1  0
 14 21  1  0
 15 16  2  0
 15 20  1  0
 16 17  1  0
 16 39  1  0
 17 18  2  0
 17 40  1  0
 18 19  1  0
 18 41  1  0
 19 20  2  0
 19 42  1  0
 20 43  1  0
 21 44  1  0
 22 23  1  0
 22 28  2  0
 23 24  2  0
 23 45  1  0
 24 25  1  0
 24 46  1  0
 25 26  1  0
 25 27  2  0
 27 28  1  0
 27 47  1  0
 28 48  1  0
 29 30  1  0
 29 49  1  6
 29 50  1  0
 30 51  1  0
M  CHG  1   9   1
M  END
>  <s_epik_cmdline>  (1372) 
J2VwaWtfcHl0aG9uJywgJy1waCcsICc3LjAwMDAwMCcsICctcGh0JywgJzIuMDAwMDAwJywgJy1tcycsICcxNicsICctdG4nLCAnOCcsICctbWEnLCAnMjAwJywgJy1pbWFlJywgJzxpbmZpbGUubWFlPicsICctb21hZScsICc8b3V0ZmlsZS5tYWU+Jw==

>  <s_epik_input>  (1372) 
RmMxYyhbQ0gyXVtPSF0pW2NIXWMoW2NIXVtjSF0xKVtDSDJdW05IXVtDSDJdYzJjKC1jM1tjSF1bY0hdYyhGKVtjSF1bY0hdMylubihbY0hdMiktYzRbY0hdW2NIXVtjSF1bY0hdW2NIXTQ=

>  <s_i_glide_gridfile>  (1372) 
ATP-Grid

>  <s_lp_Force_Field>  (1372) 
OPLS_2005

>  <s_lp_Variant>  (1372) 
m_270004bbb____8350422____7454738-1

>  <s_lp_label>  (1372) 
1977_sdstereoexpander_1_neutralizer_1_epik_1_stereoizer_1

>  <s_m_source_file>  (1372) 
ATP-VSW-LIGPREP-001-in.maegz

>  <s_sd_BIOSOLVEIT.INFINISEE\_QUERY\_NAME>  (1372) 
Ref-Lig

>  <s_sd_BIOSOLVEIT.INFINISEE\_QUERY\_SMILES>  (1372) 
S(c1nc2c(cc1C[NH2+]Cc3ccc(cc3)C[NH+](C)C)cccc2)Cc4ccccc4

>  <s_sd_BIOSOLVEIT.INFINISEE\_REACTION\_NAME>  (1372) 
m_270004bbb

>  <s_sd_BIOSOLVEIT.INFINISEE\_REAGENT1\_SMILES>  (1372) 
[R1*]NCc1cc(c(F)cc1)CO

>  <s_sd_BIOSOLVEIT.INFINISEE\_REAGENT2\_SMILES>  (1372) 
[R1*]CC=1C(=NN(c2ccccc2)C1)c3ccc(F)cc3

>  <s_sd_BIOSOLVEIT.INFINISEE\_SPACE>  (1372) 
REALSpace_44bn_2023-08

>  <s_vsw_compound_code>  (1372) 
63233

>  <s_vsw_variant>  (1372) 
63233-1

>  <r_epik_Charging_Adjusted_Penalty>  (1372) 
0.18108071364172801

>  <r_epik_Ionization_Penalty>  (1372) 
0.0906

>  <r_epik_Ionization_Penalty_Charging>  (1372) 
0.090499999999999997

>  <r_epik_Ionization_Penalty_Neutral>  (1372) 
0

>  <r_epik_State_Penalty>  (1372) 
0.090499999999999997

>  <r_i_docking_score>  (1372) 
-5.6299999254510302

>  <r_i_glide_ecoul>  (1372) 
-8.2994737625122106

>  <r_i_glide_eff_state_penalty>  (1372) 
0.090499999999999997

>  <r_i_glide_einternal>  (1372) 
3.3375017642974898

>  <r_i_glide_emodel>  (1372) 
-67.123881303203405

>  <r_i_glide_energy>  (1372) 
-44.946770668029799

>  <r_i_glide_erotb>  (1372) 
0.83315285192347999

>  <r_i_glide_esite>  (1372) 
-0.111015150384422

>  <r_i_glide_evdw>  (1372) 
-36.647296905517599

>  <r_i_glide_gscore>  (1372) 
-5.7204999254510298

>  <r_i_glide_hbond>  (1372) 
-0.38683339922279403

>  <r_i_glide_ligand_efficiency>  (1372) 
-0.187666664181701

>  <r_i_glide_ligand_efficiency_ln>  (1372) 
-1.2791973268249099

>  <r_i_glide_ligand_efficiency_sa>  (1372) 
-0.58312395856820198

>  <r_i_glide_lipo>  (1372) 
-1.60038748413544

>  <r_i_glide_metal>  (1372) 
-0

>  <r_i_glide_rewards>  (1372) 
-1.37813083397914

>  <r_lp_Energy>  (1372) 
16.772523

>  <r_lp_tautomer_probability>  (1372) 
1

>  <r_qp_ACxDN^.5/SA>  (1372) 
0.0086840000000000007

>  <r_qp_CIQPlogS>  (1372) 
-6.0129999999999999

>  <r_qp_EA(eV)>  (1372) 
0.64500000000000002

>  <r_qp_FISA>  (1372) 
66.352000000000004

>  <r_qp_FOSA>  (1372) 
91.844999999999999

>  <r_qp_IP(eV)>  (1372) 
8.8170000000000002

>  <r_qp_Jm>  (1372) 
0.0065972079156597198

>  <r_qp_PISA>  (1372) 
454.26400000000001

>  <r_qp_PSA>  (1372) 
48.825000000000003

>  <r_qp_PercentHumanOralAbsorption>  (1372) 
100

>  <r_qp_QPPCaco>  (1372) 
580.20500000000004

>  <r_qp_QPPMDCK>  (1372) 
749.00999999999999

>  <r_qp_QPlogBB>  (1372) 
0.11700000000000001

>  <r_qp_QPlogHERG>  (1372) 
-7.3520000000000003

>  <r_qp_QPlogKhsa>  (1372) 
0.86599999999999999

>  <r_qp_QPlogKp>  (1372) 
-2.629

>  <r_qp_QPlogPC16>  (1372) 
13.465999999999999

>  <r_qp_QPlogPo/w>  (1372) 
4.9880000000000004

>  <r_qp_QPlogPoct>  (1372) 
20.779

>  <r_qp_QPlogPw>  (1372) 
10.673999999999999

>  <r_qp_QPlogS>  (1372) 
-5.1600000000000001

>  <r_qp_QPpolrz>  (1372) 
44.228999999999999

>  <r_qp_SASA>  (1372) 
683.98400000000004

>  <r_qp_SAamideO>  (1372) 
0

>  <r_qp_SAfluorine>  (1372) 
71.522000000000006

>  <r_qp_WPSA>  (1372) 
71.522000000000006

>  <r_qp_accptHB>  (1372) 
4.2000000000000002

>  <r_qp_dip^2/V>  (1372) 
0.044920599999999998

>  <r_qp_dipole>  (1372) 
7.484

>  <r_qp_donorHB>  (1372) 
2

>  <r_qp_glob>  (1372) 
0.81906880000000004

>  <r_qp_mol_MW>  (1372) 
405.44600000000003

>  <r_qp_volume>  (1372) 
1246.8150000000001

>  <r_sd_BIOSOLVEIT.INFINISEE\_FTREES\_SIMILARITY>  (1372) 
0.90200000000000002

>  <r_sd_BIOSOLVEIT.LOGP>  (1372) 
3.5733999999999999

>  <r_sd_BIOSOLVEIT.MOLECULAR\_WEIGHT>  (1372) 
406.45400000000001

>  <r_sd_BIOSOLVEIT.TPSA>  (1372) 
54.659999999999997

>  <i_epik_Tot_Q>  (1372) 
1

>  <i_epik_Tot_abs_Q>  (1372) 
1

>  <i_f3d_flags>  (1372) 
0

>  <i_i_glide_confnum>  (1372) 
5

>  <i_i_glide_lignum>  (1372) 
602

>  <i_i_glide_posenum>  (1372) 
6

>  <i_i_glide_rotatable_bonds>  (1372) 
8

>  <i_lp_mmshare_version>  (1372) 
65135

>  <i_m_ct_format>  (1372) 
2

>  <i_m_source_file_index>  (1372) 
1977

>  <i_qp_#NandO>  (1372) 
4

>  <i_qp_#acid>  (1372) 
0

>  <i_qp_#amide>  (1372) 
0

>  <i_qp_#amidine>  (1372) 
0

>  <i_qp_#amine>  (1372) 
1

>  <i_qp_#in34>  (1372) 
0

>  <i_qp_#in56>  (1372) 
23

>  <i_qp_#metab>  (1372) 
4

>  <i_qp_#nonHatm>  (1372) 
30

>  <i_qp_#noncon>  (1372) 
0

>  <i_qp_#ringatoms>  (1372) 
23

>  <i_qp_#rotor>  (1372) 
6

>  <i_qp_#rtvFG>  (1372) 
0

>  <i_qp_#stars>  (1372) 
1

>  <i_qp_CNS>  (1372) 
1

>  <i_qp_HumanOralAbsorption>  (1372) 
3

>  <i_qp_RuleOfFive>  (1372) 
0

>  <i_qp_RuleOfThree>  (1372) 
0

>  <i_sd_BIOSOLVEIT.INFINISEE\_REAGENT1\_NAME>  (1372) 
8350422

>  <i_sd_BIOSOLVEIT.INFINISEE\_REAGENT2\_NAME>  (1372) 
7454738

>  <i_sd_BIOSOLVEIT.INFINISEE\_RESULT\_RANK>  (1372) 
89151

>  <i_sd_version>  (1372) 
0

>  <b_lp_Chiralities_Consistent>  (1372) 
1

>  <b_sd_chiral_flag>  (1372) 
0

>  <canonical_id>  (1372) 
ATP-HTVS-D806BF0778F9

>  <compound_code>  (1372) 
63233

>  <title>  (1372) 
m_270004bbb____8350422____7454738

>  <variant>  (1372) 
63233-1

>  <source_file>  (1372) 
运行/运行/ATP-VSW/ATP-VSW-DOCK_HTVS_1-001_lib/ATP-VSW-DOCK_HTVS_1-001_lib

>  <canonical_smiles>  (1372) 
OCc1cc(C[NH2+]Cc2cn(-c3ccccc3)nc2-c2ccc(F)cc2)ccc1F

>  <scaffold>  (1372) 
c1ccc(C[NH2+]Cc2cn(-c3ccccc3)nc2-c2ccccc2)cc1

>  <molecular_formula>  (1372) 
C24H22F2N3O+

$$$$
ATP-HTVS-D820D8B9E61C
     RDKit          3D

 65 68  0  0  0  0  0  0  0  0999 V2000
  200.0201  176.9978  152.1487 Cl  0  0  0  0  0  0  0  0  0  0  0  0
  199.6100  178.3057  153.2119 C   0  0  0  0  0  0  0  0  0  0  0  0
  200.2025  178.4506  154.4905 C   0  0  0  0  0  0  0  0  0  0  0  0
  199.8801  179.5803  155.2733 C   0  0  0  0  0  0  0  0  0  0  0  0
  198.8806  180.4954  154.8530 C   0  0  0  0  0  0  0  0  0  0  0  0
  198.4716  181.5852  155.6400 N   0  0  0  0  0  0  0  0  0  0  0  0
  199.2640  181.9952  156.7890 C   0  0  1  0  0  0  0  0  0  0  0  0
  198.5988  182.9933  157.6897 C   0  0  0  0  0  0  0  0  0  0  0  0
  199.1670  183.6797  158.8128 C   0  0  0  0  0  0  0  0  0  0  0  0
  198.2757  184.4798  159.3820 N   0  0  0  0  0  0  0  0  0  0  0  0
  197.1525  184.3630  158.6440 N   0  0  0  0  0  0  0  0  0  0  0  0
  197.3008  183.4230  157.6526 C   0  0  0  0  0  0  0  0  0  0  0  0
  195.9870  185.1711  158.9570 C   0  0  1  0  0  0  0  0  0  0  0  0
  196.3577  186.6361  159.1103 C   0  0  0  0  0  0  0  0  0  0  0  0
  196.3321  187.2461  160.3820 C   0  0  0  0  0  0  0  0  0  0  0  0
  196.7091  188.5950  160.5301 C   0  0  0  0  0  0  0  0  0  0  0  0
  197.1151  189.3400  159.4063 C   0  0  0  0  0  0  0  0  0  0  0  0
  197.1486  188.7338  158.1351 C   0  0  0  0  0  0  0  0  0  0  0  0
  196.7704  187.3846  157.9867 C   0  0  0  0  0  0  0  0  0  0  0  0
  200.5388  183.6371  159.3699 C   0  0  0  0  0  0  0  0  0  0  0  0
  201.3835  182.5215  159.1600 C   0  0  0  0  0  0  0  0  0  0  0  0
  202.7002  182.4888  159.6559 C   0  0  0  0  0  0  0  0  0  0  0  0
  203.1988  183.5853  160.3835 C   0  0  0  0  0  0  0  0  0  0  0  0
  202.3724  184.7021  160.6192 C   0  0  0  0  0  0  0  0  0  0  0  0
  201.0543  184.7285  160.1140 C   0  0  0  0  0  0  0  0  0  0  0  0
  203.5683  181.2774  159.3832 C   0  0  2  0  0  0  0  0  0  0  0  0
  198.2795  180.3221  153.5952 C   0  0  0  0  0  0  0  0  0  0  0  0
  198.6572  179.2476  152.7692 C   0  0  0  0  0  0  0  0  0  0  0  0
  201.2376  177.4561  155.0270 C   0  0  1  0  0  0  0  0  0  0  0  0
  200.7701  176.5343  156.0822 N   0  0  0  0  0  0  0  0  0  0  0  0
  201.8083  175.5516  156.4019 C   0  0  1  0  0  0  0  0  0  0  0  0
  202.0688  174.4872  155.3185 C   0  0  1  0  0  0  0  0  0  0  0  0
  203.0937  173.6073  155.7350 O   0  0  0  0  0  0  0  0  0  0  0  0
  200.3777  177.2442  157.3032 C   0  0  2  0  0  0  0  0  0  0  0  0
  200.3944  179.6968  156.2055 H   0  0  0  0  0  0  0  0  0  0  0  0
  197.8242  182.2498  155.2524 H   0  0  0  0  0  0  0  0  0  0  0  0
  199.4909  181.1092  157.3708 H   0  0  0  0  0  0  0  0  0  0  0  0
  200.2021  182.3897  156.4049 H   0  0  0  0  0  0  0  0  0  0  0  0
  196.4916  183.1649  156.9853 H   0  0  0  0  0  0  0  0  0  0  0  0
  195.2608  185.0681  158.1504 H   0  0  0  0  0  0  0  0  0  0  0  0
  195.5267  184.7803  159.8647 H   0  0  0  0  0  0  0  0  0  0  0  0
  196.0384  186.6779  161.2519 H   0  0  0  0  0  0  0  0  0  0  0  0
  196.6992  189.0541  161.5084 H   0  0  0  0  0  0  0  0  0  0  0  0
  197.4042  190.3746  159.5198 H   0  0  0  0  0  0  0  0  0  0  0  0
  197.4721  189.3037  157.2769 H   0  0  0  0  0  0  0  0  0  0  0  0
  196.8145  186.9195  157.0126 H   0  0  0  0  0  0  0  0  0  0  0  0
  201.0437  181.6473  158.6293 H   0  0  0  0  0  0  0  0  0  0  0  0
  204.2099  183.5755  160.7627 H   0  0  0  0  0  0  0  0  0  0  0  0
  202.7448  185.5472  161.1813 H   0  0  0  0  0  0  0  0  0  0  0  0
  200.4415  185.5984  160.3023 H   0  0  0  0  0  0  0  0  0  0  0  0
  204.2678  181.1083  160.2000 H   0  0  0  0  0  0  0  0  0  0  0  0
  204.1317  181.4189  158.4612 H   0  0  0  0  0  0  0  0  0  0  0  0
  202.9611  180.3792  159.2681 H   0  0  0  0  0  0  0  0  0  0  0  0
  197.5273  181.0204  153.2559 H   0  0  0  0  0  0  0  0  0  0  0  0
  198.2084  179.1374  151.7916 H   0  0  0  0  0  0  0  0  0  0  0  0
  201.6082  176.8815  154.1807 H   0  0  0  0  0  0  0  0  0  0  0  0
  202.1005  178.0174  155.3842 H   0  0  0  0  0  0  0  0  0  0  0  0
  202.7415  176.0658  156.6358 H   0  0  0  0  0  0  0  0  0  0  0  0
  201.5319  175.0354  157.3224 H   0  0  0  0  0  0  0  0  0  0  0  0
  201.1605  173.9166  155.1246 H   0  0  0  0  0  0  0  0  0  0  0  0
  202.3848  174.9222  154.3723 H   0  0  0  0  0  0  0  0  0  0  0  0
  203.1550  172.8866  155.1255 H   0  0  0  0  0  0  0  0  0  0  0  0
  200.0628  176.5880  158.1049 H   0  0  0  0  0  0  0  0  0  0  0  0
  199.5259  177.8950  157.1384 H   0  0  0  0  0  0  0  0  0  0  0  0
  201.1978  177.8310  157.7105 H   0  0  0  0  0  0  0  0  0  0  0  0
  1  2  1  0
  2  3  2  0
  2 28  1  0
  3  4  1  0
  3 29  1  0
  4  5  2  0
  4 35  1  0
  5  6  1  0
  5 27  1  0
  6  7  1  0
  6 36  1  0
  7  8  1  0
  7 37  1  1
  7 38  1  0
  8  9  1  0
  8 12  2  0
  9 10  2  0
  9 20  1  0
 10 11  1  0
 11 12  1  0
 11 13  1  0
 12 39  1  0
 13 14  1  0
 13 40  1  6
 13 41  1  0
 14 15  2  0
 14 19  1  0
 15 16  1  0
 15 42  1  0
 16 17  2  0
 16 43  1  0
 17 18  1  0
 17 44  1  0
 18 19  2  0
 18 45  1  0
 19 46  1  0
 20 21  2  0
 20 25  1  0
 21 22  1  0
 21 47  1  0
 22 23  2  0
 22 26  1  0
 23 24  1  0
 23 48  1  0
 24 25  2  0
 24 49  1  0
 25 50  1  0
 26 51  1  1
 26 52  1  0
 26 53  1  0
 27 28  2  0
 27 54  1  0
 28 55  1  0
 29 30  1  0
 29 56  1  6
 29 57  1  0
 30 31  1  0
 30 34  1  0
 31 32  1  0
 31 58  1  1
 31 59  1  0
 32 33  1  0
 32 60  1  6
 32 61  1  0
 33 62  1  0
 34 63  1  1
 34 64  1  0
 34 65  1  0
M  END
>  <s_epik_cmdline>  (1373) 
J2VwaWtfcHl0aG9uJywgJy1waCcsICc3LjAwMDAwMCcsICctcGh0JywgJzIuMDAwMDAwJywgJy1tcycsICcxNicsICctdG4nLCAnOCcsICctbWEnLCAnMjAwJywgJy1pbWFlJywgJzxpbmZpbGUubWFlPicsICctb21hZScsICc8b3V0ZmlsZS5tYWU+Jw==

>  <s_epik_input>  (1373) 
W09IXVtDSDJdW0NIMl1OKFtDSDNdKVtDSDJdYyhjMUNsKVtjSF1jKFtjSF1bY0hdMSlbTkhdW0NIMl1jMmMoLWMzW2NIXWMoW0NIM10pW2NIXVtjSF1bY0hdMylubihbY0hdMilbQ0gyXWM0W2NIXVtjSF1bY0hdW2NIXVtjSF00

>  <s_i_glide_gridfile>  (1373) 
ATP-Grid

>  <s_lp_Force_Field>  (1373) 
OPLS_2005

>  <s_lp_Variant>  (1373) 
m_270004bbb____24794408____7547616-3

>  <s_lp_label>  (1373) 
881_sdstereoexpander_1_neutralizer_1_epik_2_stereoizer_1

>  <s_m_source_file>  (1373) 
ATP-VSW-LIGPREP-003-in.maegz

>  <s_sd_BIOSOLVEIT.INFINISEE\_QUERY\_NAME>  (1373) 
Ref-Lig

>  <s_sd_BIOSOLVEIT.INFINISEE\_QUERY\_SMILES>  (1373) 
S(c1nc2c(cc1C[NH2+]Cc3ccc(cc3)C[NH+](C)C)cccc2)Cc4ccccc4

>  <s_sd_BIOSOLVEIT.INFINISEE\_REACTION\_NAME>  (1373) 
m_270004bbb

>  <s_sd_BIOSOLVEIT.INFINISEE\_REAGENT1\_SMILES>  (1373) 
[R1*]Nc1cc(c(Cl)cc1)CN(CCO)C

>  <s_sd_BIOSOLVEIT.INFINISEE\_REAGENT2\_SMILES>  (1373) 
[R1*]CC=1C(=NN(C1)Cc2ccccc2)c3cc(ccc3)C

>  <s_sd_BIOSOLVEIT.INFINISEE\_SPACE>  (1373) 
REALSpace_44bn_2023-08

>  <s_vsw_compound_code>  (1373) 
28163

>  <s_vsw_variant>  (1373) 
28163-3

>  <r_epik_Charging_Adjusted_Penalty>  (1373) 
1.7011324832771699

>  <r_epik_Ionization_Penalty>  (1373) 
1.7013

>  <r_epik_Ionization_Penalty_Charging>  (1373) 
0

>  <r_epik_Ionization_Penalty_Neutral>  (1373) 
1.7013

>  <r_epik_State_Penalty>  (1373) 
1.7011000000000001

>  <r_i_docking_score>  (1373) 
-2.2383101204096199

>  <r_i_glide_ecoul>  (1373) 
-2.5960962772369398

>  <r_i_glide_eff_state_penalty>  (1373) 
1.7011000000000001

>  <r_i_glide_einternal>  (1373) 
4.0204529762268102

>  <r_i_glide_emodel>  (1373) 
-49.3048478222778

>  <r_i_glide_energy>  (1373) 
-41.1031267642975

>  <r_i_glide_erotb>  (1373) 
0.896940206200187

>  <r_i_glide_esite>  (1373) 
-0.017957916391803001

>  <r_i_glide_evdw>  (1373) 
-38.507030487060497

>  <r_i_glide_gscore>  (1373) 
-3.9394101204096201

>  <r_i_glide_hbond>  (1373) 
0

>  <r_i_glide_ligand_efficiency>  (1373) 
-0.065832650600282802

>  <r_i_glide_ligand_efficiency_ln>  (1373) 
-0.49450548807077799

>  <r_i_glide_ligand_efficiency_sa>  (1373) 
-0.213272231543362

>  <r_i_glide_lipo>  (1373) 
-2.2443925280593802

>  <r_i_glide_metal>  (1373) 
-0

>  <r_i_glide_rewards>  (1373) 
-0.25923391622005298

>  <r_lp_Energy>  (1373) 
25.319689

>  <r_lp_tautomer_probability>  (1373) 
1

>  <r_qp_ACxDN^.5/SA>  (1373) 
0.012744399999999999

>  <r_qp_CIQPlogS>  (1373) 
-6.657

>  <r_qp_EA(eV)>  (1373) 
0.109

>  <r_qp_FISA>  (1373) 
77.852999999999994

>  <r_qp_FOSA>  (1373) 
244.715

>  <r_qp_IP(eV)>  (1373) 
8.1560000000000006

>  <r_qp_Jm>  (1373) 
0.077425887066360097

>  <r_qp_PISA>  (1373) 
316.37400000000002

>  <r_qp_PSA>  (1373) 
56.996000000000002

>  <r_qp_PercentHumanOralAbsorption>  (1373) 
100

>  <r_qp_QPPCaco>  (1373) 
451.35399999999998

>  <r_qp_QPPMDCK>  (1373) 
430.05599999999998

>  <r_qp_QPlogBB>  (1373) 
-0.185

>  <r_qp_QPlogHERG>  (1373) 
-5.6470000000000002

>  <r_qp_QPlogKhsa>  (1373) 
0.81100000000000005

>  <r_qp_QPlogKp>  (1373) 
-2.9420000000000002

>  <r_qp_QPlogPC16>  (1373) 
14.786

>  <r_qp_QPlogPo/w>  (1373) 
4.931

>  <r_qp_QPlogPoct>  (1373) 
22.356000000000002

>  <r_qp_QPlogPw>  (1373) 
10.904

>  <r_qp_QPlogS>  (1373) 
-3.8450000000000002

>  <r_qp_QPpolrz>  (1373) 
46.866

>  <r_qp_SASA>  (1373) 
687.99699999999996

>  <r_qp_SAamideO>  (1373) 
0

>  <r_qp_SAfluorine>  (1373) 
0

>  <r_qp_WPSA>  (1373) 
49.055

>  <r_qp_accptHB>  (1373) 
6.2000000000000002

>  <r_qp_dip^2/V>  (1373) 
0.019698

>  <r_qp_dipole>  (1373) 
5.2699999999999996

>  <r_qp_donorHB>  (1373) 
2

>  <r_qp_glob>  (1373) 
0.88378920000000005

>  <r_qp_mol_MW>  (1373) 
475.03199999999998

>  <r_qp_volume>  (1373) 
1409.7940000000001

>  <r_sd_BIOSOLVEIT.INFINISEE\_FTREES\_SIMILARITY>  (1373) 
0.92000000000000004

>  <r_sd_BIOSOLVEIT.LOGP>  (1373) 
4.1793199999999997

>  <r_sd_BIOSOLVEIT.MOLECULAR\_WEIGHT>  (1373) 
476.041

>  <r_sd_BIOSOLVEIT.TPSA>  (1373) 
54.520000000000003

>  <i_epik_Tot_Q>  (1373) 
0

>  <i_epik_Tot_abs_Q>  (1373) 
0

>  <i_f3d_flags>  (1373) 
0

>  <i_i_glide_confnum>  (1373) 
14

>  <i_i_glide_lignum>  (1373) 
350

>  <i_i_glide_posenum>  (1373) 
3

>  <i_i_glide_rotatable_bonds>  (1373) 
11

>  <i_lp_mmshare_version>  (1373) 
65135

>  <i_m_ct_format>  (1373) 
2

>  <i_m_source_file_index>  (1373) 
881

>  <i_qp_#NandO>  (1373) 
5

>  <i_qp_#acid>  (1373) 
0

>  <i_qp_#amide>  (1373) 
0

>  <i_qp_#amidine>  (1373) 
0

>  <i_qp_#amine>  (1373) 
1

>  <i_qp_#in34>  (1373) 
0

>  <i_qp_#in56>  (1373) 
23

>  <i_qp_#metab>  (1373) 
8

>  <i_qp_#nonHatm>  (1373) 
34

>  <i_qp_#noncon>  (1373) 
0

>  <i_qp_#ringatoms>  (1373) 
23

>  <i_qp_#rotor>  (1373) 
10

>  <i_qp_#rtvFG>  (1373) 
0

>  <i_qp_#stars>  (1373) 
0

>  <i_qp_CNS>  (1373) 
1

>  <i_qp_HumanOralAbsorption>  (1373) 
3

>  <i_qp_RuleOfFive>  (1373) 
0

>  <i_qp_RuleOfThree>  (1373) 
1

>  <i_sd_BIOSOLVEIT.INFINISEE\_REAGENT1\_NAME>  (1373) 
24794408

>  <i_sd_BIOSOLVEIT.INFINISEE\_REAGENT2\_NAME>  (1373) 
7547616

>  <i_sd_BIOSOLVEIT.INFINISEE\_RESULT\_RANK>  (1373) 
17270

>  <i_sd_version>  (1373) 
0

>  <b_lp_Chiralities_Consistent>  (1373) 
1

>  <b_sd_chiral_flag>  (1373) 
0

>  <canonical_id>  (1373) 
ATP-HTVS-D820D8B9E61C

>  <compound_code>  (1373) 
28163

>  <title>  (1373) 
m_270004bbb____24794408____7547616

>  <variant>  (1373) 
28163-3

>  <source_file>  (1373) 
运行/运行/ATP-VSW/ATP-VSW-DOCK_HTVS_1-003_lib/ATP-VSW-DOCK_HTVS_1-003_lib.mae

>  <canonical_smiles>  (1373) 
Cc1cccc(-c2nn(Cc3ccccc3)cc2CNc2ccc(Cl)c(CN(C)CCO)c2)c1

>  <scaffold>  (1373) 
c1ccc(Cn2cc(CNc3ccccc3)c(-c3ccccc3)n2)cc1

>  <molecular_formula>  (1373) 
C28H31ClN4O

$$$$
ATP-HTVS-D831575BA0F0
     RDKit          3D

 65 68  0  0  0  0  0  0  0  0999 V2000
  197.5657  185.0526  152.1852 O   0  0  0  0  0  0  0  0  0  0  0  0
  197.6723  184.0004  152.7993 C   0  0  0  0  0  0  0  0  0  0  0  0
  198.0641  183.9015  154.0825 N   0  0  0  0  0  0  0  0  0  0  0  0
  198.3412  184.9048  155.0584 C   0  0  0  0  0  0  0  0  0  0  0  0
  197.9394  186.1935  154.8658 N   0  0  0  0  0  0  0  0  0  0  0  0
  198.2409  187.1245  155.7965 C   0  0  0  0  0  0  0  0  0  0  0  0
  198.9763  186.8489  156.9627 C   0  0  0  0  0  0  0  0  0  0  0  0
  199.2046  187.8699  157.9128 N   0  0  0  0  0  0  0  0  0  0  0  0
  198.8053  187.7252  159.3200 C   0  0  1  0  0  0  0  0  0  0  0  0
  197.6177  186.8093  159.5601 C   0  0  0  0  0  0  0  0  0  0  0  0
  197.6569  185.4262  159.4399 C   0  0  0  0  0  0  0  0  0  0  0  0
  196.6272  184.5449  159.5518 C   0  0  0  0  0  0  0  0  0  0  0  0
  195.4400  185.1483  159.9859 C   0  0  0  0  0  0  0  0  0  0  0  0
  195.2970  186.5063  160.1399 C   0  0  0  0  0  0  0  0  0  0  0  0
  196.3773  187.3777  159.9305 C   0  0  0  0  0  0  0  0  0  0  0  0
  196.8238  183.0438  159.3240 C   0  0  1  0  0  0  0  0  0  0  0  0
  196.2435  182.5998  158.0240 N   0  0  2  0  0  0  0  0  0  0  0  0
  194.9306  181.9442  158.1497 C   0  0  1  0  0  0  0  0  0  0  0  0
  193.8327  182.9200  158.4775 C   0  0  2  0  0  0  0  0  0  0  0  0
  197.1205  181.6785  157.2875 C   0  0  1  0  0  0  0  0  0  0  0  0
  196.8133  181.5993  155.8259 C   0  0  2  0  0  0  0  0  0  0  0  0
  199.4929  185.5226  157.1064 C   0  0  0  0  0  0  0  0  0  0  0  0
  199.1297  184.5732  156.1655 C   0  0  0  0  0  0  0  0  0  0  0  0
  199.6221  183.2340  156.3842 C   0  0  0  0  0  0  0  0  0  0  0  0
  200.2480  182.8681  157.5704 C   0  0  0  0  0  0  0  0  0  0  0  0
  200.5697  183.8062  158.5325 C   0  0  0  0  0  0  0  0  0  0  0  0
  200.3149  185.1677  158.2084 C   0  0  0  0  0  0  0  0  0  0  0  0
  197.4550  182.6871  152.0875 C   0  0  0  0  0  0  0  0  0  0  0  0
  196.7541  181.6352  152.7079 C   0  0  0  0  0  0  0  0  0  0  0  0
  196.5098  180.3976  152.0959 C   0  0  0  0  0  0  0  0  0  0  0  0
  196.9377  180.2156  150.7802 C   0  0  0  0  0  0  0  0  0  0  0  0
  196.6902  179.0344  150.1660 O   0  0  0  0  0  0  0  0  0  0  0  0
  197.6084  181.2596  150.1164 C   0  0  0  0  0  0  0  0  0  0  0  0
  197.8691  182.4881  150.7576 C   0  0  0  0  0  0  0  0  0  0  0  0
  198.0844  182.9586  154.4492 H   0  0  0  0  0  0  0  0  0  0  0  0
  197.9067  188.1205  155.5481 H   0  0  0  0  0  0  0  0  0  0  0  0
  199.6039  188.7421  157.6106 H   0  0  0  0  0  0  0  0  0  0  0  0
  199.6600  187.3975  159.9149 H   0  0  0  0  0  0  0  0  0  0  0  0
  198.5880  188.7049  159.7262 H   0  0  0  0  0  0  0  0  0  0  0  0
  198.5028  184.8389  159.3013 H   0  0  0  0  0  0  0  0  0  0  0  0
  194.6276  184.5906  160.3274 H   0  0  0  0  0  0  0  0  0  0  0  0
  194.3483  186.8609  160.4487 H   0  0  0  0  0  0  0  0  0  0  0  0
  196.2736  188.4251  160.0884 H   0  0  0  0  0  0  0  0  0  0  0  0
  197.8985  182.7601  159.4055 H   0  0  0  0  0  0  0  0  0  0  0  0
  196.3449  182.5243  160.1434 H   0  0  0  0  0  0  0  0  0  0  0  0
  194.6509  181.4837  157.2123 H   0  0  0  0  0  0  0  0  0  0  0  0
  195.0089  181.1445  158.8799 H   0  0  0  0  0  0  0  0  0  0  0  0
  192.8578  182.4494  158.5036 H   0  0  0  0  0  0  0  0  0  0  0  0
  193.8182  183.7931  157.7973 H   0  0  0  0  0  0  0  0  0  0  0  0
  193.9149  183.1586  159.4777 H   0  0  0  0  0  0  0  0  0  0  0  0
  198.0389  182.0662  157.4235 H   0  0  0  0  0  0  0  0  0  0  0  0
  197.3135  180.6982  157.7216 H   0  0  0  0  0  0  0  0  0  0  0  0
  197.5801  181.0734  155.2446 H   0  0  0  0  0  0  0  0  0  0  0  0
  196.6673  182.6056  155.4412 H   0  0  0  0  0  0  0  0  0  0  0  0
  195.8783  181.0933  155.6324 H   0  0  0  0  0  0  0  0  0  0  0  0
  199.3128  182.4506  155.7130 H   0  0  0  0  0  0  0  0  0  0  0  0
  200.3790  181.8125  157.8134 H   0  0  0  0  0  0  0  0  0  0  0  0
  200.9052  183.5305  159.5162 H   0  0  0  0  0  0  0  0  0  0  0  0
  200.4340  185.8192  159.0496 H   0  0  0  0  0  0  0  0  0  0  0  0
  196.3081  181.7825  153.6316 H   0  0  0  0  0  0  0  0  0  0  0  0
  195.9772  179.6319  152.6466 H   0  0  0  0  0  0  0  0  0  0  0  0
  197.0854  178.9822  149.3127 H   0  0  0  0  0  0  0  0  0  0  0  0
  197.9308  181.1192  149.1000 H   0  0  0  0  0  0  0  0  0  0  0  0
  198.3755  183.2712  150.2322 H   0  0  0  0  0  0  0  0  0  0  0  0
  196.1559  183.4438  157.4605 H   0  0  0  0  0  0  0  0  0  0  0  0
  1  2  2  0
  2  3  1  0
  2 28  1  0
  3  4  1  0
  3 35  1  0
  4  5  1  0
  4 23  2  0
  5  6  2  0
  6  7  1  0
  6 36  1  0
  7  8  1  0
  7 22  2  0
  8  9  1  0
  8 37  1  0
  9 10  1  0
  9 38  1  1
  9 39  1  0
 10 11  2  0
 10 15  1  0
 11 12  1  0
 11 40  1  0
 12 13  2  0
 12 16  1  0
 13 14  1  0
 13 41  1  0
 14 15  2  0
 14 42  1  0
 15 43  1  0
 16 17  1  0
 16 44  1  6
 16 45  1  0
 17 18  1  0
 17 20  1  0
 17 65  1  6
 18 19  1  0
 18 46  1  6
 18 47  1  0
 19 48  1  1
 19 49  1  0
 19 50  1  0
 20 21  1  0
 20 51  1  6
 20 52  1  0
 21 53  1  6
 21 54  1  0
 21 55  1  0
 22 23  1  0
 22 27  1  0
 23 24  1  0
 24 25  2  0
 24 56  1  0
 25 26  1  0
 25 57  1  0
 26 27  2  0
 26 58  1  0
 27 59  1  0
 28 29  1  0
 28 34  2  0
 29 30  2  0
 29 60  1  0
 30 31  1  0
 30 61  1  0
 31 32  1  0
 31 33  2  0
 32 62  1  0
 33 34  1  0
 33 63  1  0
 34 64  1  0
M  CHG  1  17   1
M  END
>  <s_epik_cmdline>  (1374) 
J2VwaWtfcHl0aG9uJywgJy1waCcsICc3LjAwMDAwMCcsICctcGh0JywgJzIuMDAwMDAwJywgJy1tcycsICcxNicsICctdG4nLCAnOCcsICctbWEnLCAnMjAwJywgJy1pbWFlJywgJzxpbmZpbGUubWFlPicsICctb21hZScsICc8b3V0ZmlsZS5tYWU+Jw==

>  <s_epik_input>  (1374) 
W2NIXTFbY0hdYyhbT0hdKVtjSF1bY0hdYzFDKD1PKVtOSF1jKGMoYzIzKVtjSF1bY0hdW2NIXVtjSF0zKW5bY0hdYzJbTkhdW0NIMl1jNFtjSF1jKFtjSF1bY0hdW2NIXTQpW0NIMl1OKFtDSDJdW0NIM10pW0NIMl1bQ0gzXQ==

>  <s_i_glide_gridfile>  (1374) 
ATP-Grid

>  <s_lp_Force_Field>  (1374) 
OPLS_2005

>  <s_lp_Variant>  (1374) 
rxn502b____EMOL490868____EMOL7515103____EMOL44153840-1

>  <s_lp_label>  (1374) 
2367_sdstereoexpander_1_neutralizer_1_epik_1_stereoizer_1

>  <s_m_source_file>  (1374) 
ATP-VSW-LIGPREP-003-in.maegz

>  <s_sd_BIOSOLVEIT.INFINISEE\_QUERY\_NAME>  (1374) 
Ref-Lig

>  <s_sd_BIOSOLVEIT.INFINISEE\_QUERY\_SMILES>  (1374) 
S(c1nc2c(cc1C[NH2+]Cc3ccc(cc3)C[NH+](C)C)cccc2)Cc4ccccc4

>  <s_sd_BIOSOLVEIT.INFINISEE\_REACTION\_NAME>  (1374) 
rxn502b

>  <s_sd_BIOSOLVEIT.INFINISEE\_REAGENT1\_NAME>  (1374) 
EMOL490868

>  <s_sd_BIOSOLVEIT.INFINISEE\_REAGENT1\_SMILES>  (1374) 
O=C(O)c1ccc(O)cc1

>  <s_sd_BIOSOLVEIT.INFINISEE\_REAGENT2\_NAME>  (1374) 
EMOL7515103

>  <s_sd_BIOSOLVEIT.INFINISEE\_REAGENT2\_SMILES>  (1374) 
Brc1c2c(c(nc1)N)cccc2

>  <s_sd_BIOSOLVEIT.INFINISEE\_REAGENT3\_NAME>  (1374) 
EMOL44153840

>  <s_sd_BIOSOLVEIT.INFINISEE\_REAGENT3\_SMILES>  (1374) 
N(Cc1cc(ccc1)CN)(CC)CC

>  <s_sd_BIOSOLVEIT.INFINISEE\_SPACE>  (1374) 
eXplore_7tr_2022-12

>  <s_vsw_compound_code>  (1374) 
75715

>  <s_vsw_variant>  (1374) 
75715-1

>  <r_epik_Charging_Adjusted_Penalty>  (1374) 
0.054902380762800303

>  <r_epik_Ionization_Penalty>  (1374) 
0.037100000000000001

>  <r_epik_Ionization_Penalty_Charging>  (1374) 
0.017999999999999999

>  <r_epik_Ionization_Penalty_Neutral>  (1374) 
0.019099999999999999

>  <r_epik_State_Penalty>  (1374) 
0.036999999999999998

>  <r_i_docking_score>  (1374) 
-4.2906944272469296

>  <r_i_glide_ecoul>  (1374) 
-6.2113795280456499

>  <r_i_glide_eff_state_penalty>  (1374) 
0.036999999999999998

>  <r_i_glide_einternal>  (1374) 
11.395165443420399

>  <r_i_glide_emodel>  (1374) 
-54.090051583552601

>  <r_i_glide_energy>  (1374) 
-43.137671947479198

>  <r_i_glide_erotb>  (1374) 
0.77439018997812004

>  <r_i_glide_esite>  (1374) 
-0.071004800862572701

>  <r_i_glide_evdw>  (1374) 
-36.926292419433601

>  <r_i_glide_gscore>  (1374) 
-4.3276944272469304

>  <r_i_glide_hbond>  (1374) 
0

>  <r_i_glide_ligand_efficiency>  (1374) 
-0.126196894919027

>  <r_i_glide_ligand_efficiency_ln>  (1374) 
-0.94793474888100804

>  <r_i_glide_ligand_efficiency_sa>  (1374) 
-0.40882894958369598

>  <r_i_glide_lipo>  (1374) 
-1.7251355843657701

>  <r_i_glide_metal>  (1374) 
-0

>  <r_i_glide_rewards>  (1374) 
-0.52792268181818103

>  <r_lp_Energy>  (1374) 
36.842765

>  <r_lp_tautomer_probability>  (1374) 
0.999999999997365

>  <r_qp_ACxDN^.5/SA>  (1374) 
0.014685

>  <r_qp_CIQPlogS>  (1374) 
-5.694

>  <r_qp_EA(eV)>  (1374) 
0.83299999999999996

>  <r_qp_FISA>  (1374) 
119.262

>  <r_qp_FOSA>  (1374) 
271.36599999999999

>  <r_qp_IP(eV)>  (1374) 
7.6319999999999997

>  <r_qp_Jm>  (1374) 
0.00027082794501002999

>  <r_qp_PISA>  (1374) 
464.488

>  <r_qp_PSA>  (1374) 
82.334000000000003

>  <r_qp_PercentHumanOralAbsorption>  (1374) 
94.971000000000004

>  <r_qp_QPPCaco>  (1374) 
182.74199999999999

>  <r_qp_QPPMDCK>  (1374) 
87.168999999999997

>  <r_qp_QPlogBB>  (1374) 
-1.048

>  <r_qp_QPlogHERG>  (1374) 
-8.4920000000000009

>  <r_qp_QPlogKhsa>  (1374) 
0.78500000000000003

>  <r_qp_QPlogKp>  (1374) 
-3.1840000000000002

>  <r_qp_QPlogPC16>  (1374) 
17.597000000000001

>  <r_qp_QPlogPo/w>  (1374) 
4.7039999999999997

>  <r_qp_QPlogPoct>  (1374) 
26.681000000000001

>  <r_qp_QPlogPw>  (1374) 
15.077

>  <r_qp_QPlogS>  (1374) 
-6.0410000000000004

>  <r_qp_QPpolrz>  (1374) 
53.182000000000002

>  <r_qp_SASA>  (1374) 
855.11599999999999

>  <r_qp_SAamideO>  (1374) 
0

>  <r_qp_SAfluorine>  (1374) 
0

>  <r_qp_WPSA>  (1374) 
0

>  <r_qp_accptHB>  (1374) 
7.25

>  <r_qp_dip^2/V>  (1374) 
0.052980899999999997

>  <r_qp_dipole>  (1374) 
9.0099999999999998

>  <r_qp_donorHB>  (1374) 
3

>  <r_qp_glob>  (1374) 
0.75167050000000002

>  <r_qp_mol_MW>  (1374) 
454.57100000000003

>  <r_qp_volume>  (1374) 
1532.2560000000001

>  <r_sd_BIOSOLVEIT.INFINISEE\_FTREES\_SIMILARITY>  (1374) 
0.92000000000000004

>  <r_sd_BIOSOLVEIT.LOGP>  (1374) 
4.2294999999999998

>  <r_sd_BIOSOLVEIT.MOLECULAR\_WEIGHT>  (1374) 
455.57900000000001

>  <r_sd_BIOSOLVEIT.TPSA>  (1374) 
78.689999999999998

>  <i_epik_Tot_Q>  (1374) 
1

>  <i_epik_Tot_abs_Q>  (1374) 
1

>  <i_f3d_flags>  (1374) 
0

>  <i_i_glide_confnum>  (1374) 
4

>  <i_i_glide_lignum>  (1374) 
990

>  <i_i_glide_posenum>  (1374) 
19

>  <i_i_glide_rotatable_bonds>  (1374) 
11

>  <i_lp_mmshare_version>  (1374) 
65135

>  <i_m_ct_format>  (1374) 
2

>  <i_m_source_file_index>  (1374) 
2367

>  <i_qp_#NandO>  (1374) 
6

>  <i_qp_#acid>  (1374) 
0

>  <i_qp_#amide>  (1374) 
0

>  <i_qp_#amidine>  (1374) 
0

>  <i_qp_#amine>  (1374) 
1

>  <i_qp_#in34>  (1374) 
0

>  <i_qp_#in56>  (1374) 
22

>  <i_qp_#metab>  (1374) 
8

>  <i_qp_#nonHatm>  (1374) 
34

>  <i_qp_#noncon>  (1374) 
0

>  <i_qp_#ringatoms>  (1374) 
22

>  <i_qp_#rotor>  (1374) 
10

>  <i_qp_#rtvFG>  (1374) 
0

>  <i_qp_#stars>  (1374) 
2

>  <i_qp_CNS>  (1374) 
-2

>  <i_qp_HumanOralAbsorption>  (1374) 
3

>  <i_qp_RuleOfFive>  (1374) 
0

>  <i_qp_RuleOfThree>  (1374) 
2

>  <i_sd_BIOSOLVEIT.INFINISEE\_RESULT\_RANK>  (1374) 
17479

>  <i_sd_version>  (1374) 
0

>  <b_lp_Chiralities_Consistent>  (1374) 
1

>  <b_sd_chiral_flag>  (1374) 
0

>  <canonical_id>  (1374) 
ATP-HTVS-D831575BA0F0

>  <compound_code>  (1374) 
75715

>  <title>  (1374) 
rxn502b____EMOL490868____EMOL7515103____EMOL44153840

>  <variant>  (1374) 
75715-1

>  <source_file>  (1374) 
运行/运行/ATP-VSW/ATP-VSW-DOCK_HTVS_1-003_lib/ATP-VSW-DOCK_HTVS_1-003_lib.mae

>  <canonical_smiles>  (1374) 
CC[NH+](CC)Cc1cccc(CNc2cnc(NC(=O)c3ccc(O)cc3)c3ccccc23)c1

>  <scaffold>  (1374) 
O=C(Nc1ncc(NCc2ccccc2)c2ccccc12)c1ccccc1

>  <molecular_formula>  (1374) 
C28H31N4O2+

$$$$
ATP-HTVS-D839BC34DAE7
     RDKit          3D

 54 57  0  0  0  0  0  0  0  0999 V2000
  198.2632  185.8646  159.7364 F   0  0  0  0  0  0  0  0  0  0  0  0
  197.1186  185.1649  159.5498 C   0  0  0  0  0  0  0  0  0  0  0  0
  195.8849  185.6737  160.0078 C   0  0  0  0  0  0  0  0  0  0  0  0
  194.7005  184.9473  159.7564 C   0  0  0  0  0  0  0  0  0  0  0  0
  194.7499  183.7431  159.0176 C   0  0  0  0  0  0  0  0  0  0  0  0
  195.9901  183.2340  158.5572 C   0  0  0  0  0  0  0  0  0  0  0  0
  197.1738  183.9379  158.8620 C   0  0  0  0  0  0  0  0  0  0  0  0
  196.0677  181.9384  157.7573 C   0  0  1  0  0  0  0  0  0  0  0  0
  196.3631  182.1263  156.3403 N   0  0  0  0  0  0  0  0  0  0  0  0
  197.5109  182.5906  155.7930 C   0  0  0  0  0  0  0  0  0  0  0  0
  198.5257  182.8173  156.4535 O   0  0  0  0  0  0  0  0  0  0  0  0
  197.3869  182.8113  154.3474 C   0  0  0  0  0  0  0  0  0  0  0  0
  198.0054  184.0226  153.7368 C   0  0  0  0  0  0  0  0  0  0  0  0
  198.1016  184.0532  152.3221 C   0  0  0  0  0  0  0  0  0  0  0  0
  198.6947  185.1706  151.6886 C   0  0  0  0  0  0  0  0  0  0  0  0
  199.1628  186.2631  152.4434 C   0  0  0  0  0  0  0  0  0  0  0  0
  199.0370  186.2502  153.8424 C   0  0  0  0  0  0  0  0  0  0  0  0
  198.4536  185.1421  154.4823 C   0  0  0  0  0  0  0  0  0  0  0  0
  197.5587  182.9104  151.4893 C   0  0  0  0  0  0  0  0  0  0  0  0
  197.6659  182.9387  150.2595 O   0  0  0  0  0  0  0  0  0  0  0  0
  196.9343  181.8999  152.1571 N   0  0  0  0  0  0  0  0  0  0  0  0
  196.8756  181.8511  153.5558 C   0  0  0  0  0  0  0  0  0  0  0  0
  196.3403  180.7772  151.4324 C   0  0  1  0  0  0  0  0  0  0  0  0
  197.3013  179.6479  151.0698 C   0  0  0  0  0  0  0  0  0  0  0  0
  198.3215  179.2239  151.9533 C   0  0  0  0  0  0  0  0  0  0  0  0
  199.1659  178.1550  151.5984 C   0  0  0  0  0  0  0  0  0  0  0  0
  198.9928  177.4985  150.3653 C   0  0  0  0  0  0  0  0  0  0  0  0
  197.9786  177.9143  149.4826 C   0  0  0  0  0  0  0  0  0  0  0  0
  197.1403  178.9891  149.8322 C   0  0  0  0  0  0  0  0  0  0  0  0
  195.8388  186.9776  160.7887 C   0  0  1  0  0  0  0  0  0  0  0  0
  196.5820  188.0532  160.1058 N   0  0  2  0  0  0  0  0  0  0  0  0
  196.5511  188.9079  160.6488 H   0  0  0  0  0  0  0  0  0  0  0  0
  196.1781  188.2121  159.1941 H   0  0  0  0  0  0  0  0  0  0  0  0
  193.7504  185.3124  160.1263 H   0  0  0  0  0  0  0  0  0  0  0  0
  193.8277  183.2160  158.8175 H   0  0  0  0  0  0  0  0  0  0  0  0
  198.1363  183.5547  158.5339 H   0  0  0  0  0  0  0  0  0  0  0  0
  196.7848  181.2577  158.2165 H   0  0  0  0  0  0  0  0  0  0  0  0
  195.1086  181.4410  157.8019 H   0  0  0  0  0  0  0  0  0  0  0  0
  195.5820  181.9565  155.7150 H   0  0  0  0  0  0  0  0  0  0  0  0
  198.7872  185.2055  150.6107 H   0  0  0  0  0  0  0  0  0  0  0  0
  199.6105  187.1148  151.9480 H   0  0  0  0  0  0  0  0  0  0  0  0
  199.3856  187.0953  154.4216 H   0  0  0  0  0  0  0  0  0  0  0  0
  198.3689  185.1692  155.5583 H   0  0  0  0  0  0  0  0  0  0  0  0
  196.4712  180.9258  153.9458 H   0  0  0  0  0  0  0  0  0  0  0  0
  195.5326  180.3367  152.0198 H   0  0  0  0  0  0  0  0  0  0  0  0
  195.8572  181.1572  150.5287 H   0  0  0  0  0  0  0  0  0  0  0  0
  198.4592  179.7043  152.9122 H   0  0  0  0  0  0  0  0  0  0  0  0
  199.9447  177.8329  152.2740 H   0  0  0  0  0  0  0  0  0  0  0  0
  199.6370  176.6750  150.0937 H   0  0  0  0  0  0  0  0  0  0  0  0
  197.8347  177.4063  148.5415 H   0  0  0  0  0  0  0  0  0  0  0  0
  196.3550  179.2917  149.1575 H   0  0  0  0  0  0  0  0  0  0  0  0
  194.8074  187.2984  160.9455 H   0  0  0  0  0  0  0  0  0  0  0  0
  196.2838  186.8054  161.7675 H   0  0  0  0  0  0  0  0  0  0  0  0
  197.5436  187.7604  160.0009 H   0  0  0  0  0  0  0  0  0  0  0  0
  1  2  1  0
  2  3  2  0
  2  7  1  0
  3  4  1  0
  3 30  1  0
  4  5  2  0
  4 34  1  0
  5  6  1  0
  5 35  1  0
  6  7  2  0
  6  8  1  0
  7 36  1  0
  8  9  1  0
  8 37  1  1
  8 38  1  0
  9 10  1  0
  9 39  1  0
 10 11  2  0
 10 12  1  0
 12 13  1  0
 12 22  2  0
 13 14  1  0
 13 18  2  0
 14 15  2  0
 14 19  1  0
 15 16  1  0
 15 40  1  0
 16 17  2  0
 16 41  1  0
 17 18  1  0
 17 42  1  0
 18 43  1  0
 19 20  2  0
 19 21  1  0
 21 22  1  0
 21 23  1  0
 22 44  1  0
 23 24  1  0
 23 45  1  1
 23 46  1  0
 24 25  2  0
 24 29  1  0
 25 26  1  0
 25 47  1  0
 26 27  2  0
 26 48  1  0
 27 28  1  0
 27 49  1  0
 28 29  2  0
 28 50  1  0
 29 51  1  0
 30 31  1  0
 30 52  1  1
 30 53  1  0
 31 32  1  1
 31 33  1  0
 31 54  1  0
M  CHG  1  31   1
M  END
>  <s_epik_cmdline>  (1375) 
J2VwaWtfcHl0aG9uJywgJy1waCcsICc3LjAwMDAwMCcsICctcGh0JywgJzIuMDAwMDAwJywgJy1tcycsICcxNicsICctdG4nLCAnOCcsICctbWEnLCAnMjAwJywgJy1pbWFlJywgJzxpbmZpbGUubWFlPicsICctb21hZScsICc8b3V0ZmlsZS5tYWU+Jw==

>  <s_epik_input>  (1375) 
RmMxYyhbQ0gyXVtOSDJdKVtjSF1bY0hdYyhbY0hdMSlbQ0gyXVtOSF1DKD1PKWMyW2NIXW4oYyg9TyljKGMyMylbY0hdW2NIXVtjSF1bY0hdMylbQ0gyXWM0W2NIXVtjSF1bY0hdW2NIXVtjSF00

>  <s_i_glide_gridfile>  (1375) 
ATP-Grid

>  <s_lp_Force_Field>  (1375) 
OPLS_2005

>  <s_lp_Variant>  (1375) 
YAS_R001____OTV6666766____OTV2248677-1

>  <s_lp_label>  (1375) 
150_sdstereoexpander_1_neutralizer_1_epik_1_stereoizer_1

>  <s_m_source_file>  (1375) 
ATP-VSW-LIGPREP-003-in.maegz

>  <s_sd_BIOSOLVEIT.INFINISEE\_QUERY\_NAME>  (1375) 
Ref-Lig

>  <s_sd_BIOSOLVEIT.INFINISEE\_QUERY\_SMILES>  (1375) 
S(c1nc2c(cc1C[NH2+]Cc3ccc(cc3)C[NH+](C)C)cccc2)Cc4ccccc4

>  <s_sd_BIOSOLVEIT.INFINISEE\_REACTION\_NAME>  (1375) 
YAS_R001

>  <s_sd_BIOSOLVEIT.INFINISEE\_REAGENT1\_NAME>  (1375) 
OTV6666766

>  <s_sd_BIOSOLVEIT.INFINISEE\_REAGENT1\_SMILES>  (1375) 
O=C1N(C=C(c2c1cccc2)C(=O)O)Cc3ccccc3

>  <s_sd_BIOSOLVEIT.INFINISEE\_REAGENT2\_NAME>  (1375) 
OTV2248677

>  <s_sd_BIOSOLVEIT.INFINISEE\_REAGENT2\_SMILES>  (1375) 
Fc1c(ccc(c1)CN)CN

>  <s_sd_BIOSOLVEIT.INFINISEE\_SPACE>  (1375) 
CHEMriya_12bn_2022-01

>  <s_vsw_compound_code>  (1375) 
4771

>  <s_vsw_variant>  (1375) 
4771-1

>  <r_epik_Charging_Adjusted_Penalty>  (1375) 
0.064753474974633907

>  <r_epik_Ionization_Penalty>  (1375) 
0.032399999999999998

>  <r_epik_Ionization_Penalty_Charging>  (1375) 
0.032399999999999998

>  <r_epik_Ionization_Penalty_Neutral>  (1375) 
0

>  <r_epik_State_Penalty>  (1375) 
0.032399999999999998

>  <r_i_docking_score>  (1375) 
-4.8462619065264203

>  <r_i_glide_ecoul>  (1375) 
-6.8874206542968803

>  <r_i_glide_eff_state_penalty>  (1375) 
0.032399999999999998

>  <r_i_glide_einternal>  (1375) 
4.0017557144165004

>  <r_i_glide_emodel>  (1375) 
-56.620219168584697

>  <r_i_glide_energy>  (1375) 
-43.155384063720703

>  <r_i_glide_erotb>  (1375) 
0.68342894166924095

>  <r_i_glide_esite>  (1375) 
-0.115553226832247

>  <r_i_glide_evdw>  (1375) 
-36.2679634094238

>  <r_i_glide_gscore>  (1375) 
-4.8786619065264203

>  <r_i_glide_hbond>  (1375) 
-0.079344063947419996

>  <r_i_glide_ligand_efficiency>  (1375) 
-0.15633102924278799

>  <r_i_glide_ligand_efficiency_ln>  (1375) 
-1.0929805800125501

>  <r_i_glide_ligand_efficiency_sa>  (1375) 
-0.49109527006958797

>  <r_i_glide_lipo>  (1375) 
-1.8641361054740999

>  <r_i_glide_metal>  (1375) 
-0

>  <r_i_glide_rewards>  (1375) 
-0.65654618332617298

>  <r_lp_Energy>  (1375) 
29.689886999999999

>  <r_qp_ACxDN^.5/SA>  (1375) 
0.0155788

>  <r_qp_CIQPlogS>  (1375) 
-5.1980000000000004

>  <r_qp_EA(eV)>  (1375) 
0.76100000000000001

>  <r_qp_FISA>  (1375) 
134.14099999999999

>  <r_qp_FOSA>  (1375) 
127.905

>  <r_qp_IP(eV)>  (1375) 
8.9550000000000001

>  <r_qp_Jm>  (1375) 
0.00136792097992424

>  <r_qp_PISA>  (1375) 
432.56799999999998

>  <r_qp_PSA>  (1375) 
87.069000000000003

>  <r_qp_PercentHumanOralAbsorption>  (1375) 
85.986999999999995

>  <r_qp_QPPCaco>  (1375) 
132.05000000000001

>  <r_qp_QPPMDCK>  (1375) 
87.406000000000006

>  <r_qp_QPlogBB>  (1375) 
-0.79000000000000004

>  <r_qp_QPlogHERG>  (1375) 
-7.5629999999999997

>  <r_qp_QPlogKhsa>  (1375) 
0.495

>  <r_qp_QPlogKp>  (1375) 
-3.8580000000000001

>  <r_qp_QPlogPC16>  (1375) 
14.893000000000001

>  <r_qp_QPlogPo/w>  (1375) 
3.601

>  <r_qp_QPlogPoct>  (1375) 
23.757999999999999

>  <r_qp_QPlogPw>  (1375) 
14.574999999999999

>  <r_qp_QPlogS>  (1375) 
-4.6239999999999997

>  <r_qp_QPpolrz>  (1375) 
45.756999999999998

>  <r_qp_SASA>  (1375) 
722.66899999999998

>  <r_qp_SAamideO>  (1375) 
0

>  <r_qp_SAfluorine>  (1375) 
28.055

>  <r_qp_WPSA>  (1375) 
28.055

>  <r_qp_accptHB>  (1375) 
6.5

>  <r_qp_dip^2/V>  (1375) 
0.0274363

>  <r_qp_dipole>  (1375) 
5.9859999999999998

>  <r_qp_donorHB>  (1375) 
3

>  <r_qp_glob>  (1375) 
0.79965310000000001

>  <r_qp_mol_MW>  (1375) 
415.46600000000001

>  <r_qp_volume>  (1375) 
1306.213

>  <r_sd_BIOSOLVEIT.INFINISEE\_FTREES\_SIMILARITY>  (1375) 
0.90200000000000002

>  <r_sd_BIOSOLVEIT.LOGP>  (1375) 
2.8607999999999998

>  <r_sd_BIOSOLVEIT.MOLECULAR\_WEIGHT>  (1375) 
416.47399999999999

>  <r_sd_BIOSOLVEIT.TPSA>  (1375) 
78.739999999999995

>  <i_epik_Tot_Q>  (1375) 
1

>  <i_epik_Tot_abs_Q>  (1375) 
1

>  <i_f3d_flags>  (1375) 
0

>  <i_i_glide_confnum>  (1375) 
3

>  <i_i_glide_lignum>  (1375) 
191

>  <i_i_glide_posenum>  (1375) 
20

>  <i_i_glide_rotatable_bonds>  (1375) 
7

>  <i_lp_mmshare_version>  (1375) 
65135

>  <i_m_ct_format>  (1375) 
2

>  <i_m_source_file_index>  (1375) 
150

>  <i_qp_#NandO>  (1375) 
5

>  <i_qp_#acid>  (1375) 
0

>  <i_qp_#amide>  (1375) 
0

>  <i_qp_#amidine>  (1375) 
0

>  <i_qp_#amine>  (1375) 
1

>  <i_qp_#in34>  (1375) 
0

>  <i_qp_#in56>  (1375) 
22

>  <i_qp_#metab>  (1375) 
5

>  <i_qp_#nonHatm>  (1375) 
31

>  <i_qp_#noncon>  (1375) 
0

>  <i_qp_#ringatoms>  (1375) 
22

>  <i_qp_#rotor>  (1375) 
7

>  <i_qp_#rtvFG>  (1375) 
0

>  <i_qp_#stars>  (1375) 
0

>  <i_qp_CNS>  (1375) 
-1

>  <i_qp_HumanOralAbsorption>  (1375) 
3

>  <i_qp_RuleOfFive>  (1375) 
0

>  <i_qp_RuleOfThree>  (1375) 
0

>  <i_sd_BIOSOLVEIT.INFINISEE\_RESULT\_RANK>  (1375) 
86622

>  <i_sd_version>  (1375) 
0

>  <b_lp_Chiralities_Consistent>  (1375) 
1

>  <b_sd_chiral_flag>  (1375) 
0

>  <canonical_id>  (1375) 
ATP-HTVS-D839BC34DAE7

>  <compound_code>  (1375) 
4771

>  <title>  (1375) 
YAS_R001____OTV6666766____OTV2248677

>  <variant>  (1375) 
4771-1

>  <source_file>  (1375) 
运行/运行/ATP-VSW/ATP-VSW-DOCK_HTVS_1-003_lib/ATP-VSW-DOCK_HTVS_1-003_lib.mae

>  <canonical_smiles>  (1375) 
[NH3+]Cc1ccc(CNC(=O)c2cn(Cc3ccccc3)c(=O)c3ccccc23)cc1F

>  <scaffold>  (1375) 
O=C(NCc1ccccc1)c1cn(Cc2ccccc2)c(=O)c2ccccc12

>  <molecular_formula>  (1375) 
C25H23FN3O2+

$$$$
ATP-HTVS-D86CED65A6E1
     RDKit          3D

 55 57  0  0  0  0  0  0  0  0999 V2000
  194.2588  183.6525  158.8992 Cl  0  0  0  0  0  0  0  0  0  0  0  0
  195.9550  183.5049  158.6497 C   0  0  0  0  0  0  0  0  0  0  0  0
  197.0697  184.0912  159.8426 S   0  0  0  0  0  0  0  0  0  0  0  0
  198.4330  183.8026  158.7926 C   0  0  0  0  0  0  0  0  0  0  0  0
  199.7812  184.2143  159.2517 C   0  0  0  0  0  0  0  0  0  0  0  0
  200.5528  183.3898  159.7424 O   0  0  0  0  0  0  0  0  0  0  0  0
  200.1292  185.5261  159.0966 N   0  0  0  0  0  0  0  0  0  0  0  0
  199.2663  186.5824  158.6529 C   0  0  0  0  0  0  0  0  0  0  0  0
  198.4161  186.3976  157.5094 C   0  0  0  0  0  0  0  0  0  0  0  0
  197.4850  187.3900  157.1680 C   0  0  0  0  0  0  0  0  0  0  0  0
  196.5820  187.0835  156.1456 N   0  0  0  0  0  0  0  0  0  0  0  0
  197.4403  188.6409  157.8581 C   0  0  0  0  0  0  0  0  0  0  0  0
  198.3369  188.8697  158.9197 C   0  0  0  0  0  0  0  0  0  0  0  0
  199.2191  187.8402  159.3181 C   0  0  0  0  0  0  0  0  0  0  0  0
  201.5157  185.8830  159.4048 C   0  0  2  0  0  0  0  0  0  0  0  0
  197.9992  183.2424  157.5813 C   0  0  0  0  0  0  0  0  0  0  0  0
  198.8282  182.9729  156.4842 N   0  0  0  0  0  0  0  0  0  0  0  0
  198.5651  181.9167  155.5083 C   0  0  1  0  0  0  0  0  0  0  0  0
  199.2604  180.6072  155.8155 C   0  0  0  0  0  0  0  0  0  0  0  0
  198.6187  179.4017  155.4751 C   0  0  0  0  0  0  0  0  0  0  0  0
  199.2457  178.1731  155.7483 C   0  0  0  0  0  0  0  0  0  0  0  0
  200.5140  178.1373  156.3549 C   0  0  0  0  0  0  0  0  0  0  0  0
  201.1549  179.3442  156.7041 C   0  0  0  0  0  0  0  0  0  0  0  0
  200.5347  180.5743  156.4297 C   0  0  0  0  0  0  0  0  0  0  0  0
  201.2069  176.8086  156.6033 C   0  0  1  0  0  0  0  0  0  0  0  0
  201.8680  176.2597  155.3863 N   0  0  2  0  0  0  0  0  0  0  0  0
  202.7395  177.2268  154.6715 C   0  0  2  0  0  0  0  0  0  0  0  0
  200.9286  175.5740  154.4699 C   0  0  2  0  0  0  0  0  0  0  0  0
  196.5962  183.0666  157.5248 C   0  0  0  0  0  0  0  0  0  0  0  0
  198.4717  185.4955  156.9118 H   0  0  0  0  0  0  0  0  0  0  0  0
  195.9942  187.7572  155.6830 H   0  0  0  0  0  0  0  0  0  0  0  0
  196.7178  186.2234  155.6257 H   0  0  0  0  0  0  0  0  0  0  0  0
  196.7364  189.4049  157.5570 H   0  0  0  0  0  0  0  0  0  0  0  0
  198.3371  189.8092  159.4272 H   0  0  0  0  0  0  0  0  0  0  0  0
  199.8930  188.0415  160.1608 H   0  0  0  0  0  0  0  0  0  0  0  0
  201.7143  186.9452  159.2550 H   0  0  0  0  0  0  0  0  0  0  0  0
  202.1921  185.3644  158.7308 H   0  0  0  0  0  0  0  0  0  0  0  0
  201.7900  185.6232  160.4330 H   0  0  0  0  0  0  0  0  0  0  0  0
  199.7313  183.3936  156.4601 H   0  0  0  0  0  0  0  0  0  0  0  0
  197.4973  181.7149  155.4157 H   0  0  0  0  0  0  0  0  0  0  0  0
  198.8867  182.2596  154.5210 H   0  0  0  0  0  0  0  0  0  0  0  0
  197.6412  179.4138  155.0137 H   0  0  0  0  0  0  0  0  0  0  0  0
  198.7470  177.2533  155.4987 H   0  0  0  0  0  0  0  0  0  0  0  0
  202.1374  179.3262  157.1540 H   0  0  0  0  0  0  0  0  0  0  0  0
  201.0521  181.4869  156.6865 H   0  0  0  0  0  0  0  0  0  0  0  0
  201.9511  176.9396  157.3906 H   0  0  0  0  0  0  0  0  0  0  0  0
  200.4877  176.0972  157.0076 H   0  0  0  0  0  0  0  0  0  0  0  0
  202.1715  178.0693  154.2745 H   0  0  0  0  0  0  0  0  0  0  0  0
  203.2348  176.7537  153.8187 H   0  0  0  0  0  0  0  0  0  0  0  0
  203.5072  177.6175  155.3356 H   0  0  0  0  0  0  0  0  0  0  0  0
  200.2123  176.2695  154.0330 H   0  0  0  0  0  0  0  0  0  0  0  0
  200.3796  174.7978  155.0064 H   0  0  0  0  0  0  0  0  0  0  0  0
  201.4571  175.1004  153.6411 H   0  0  0  0  0  0  0  0  0  0  0  0
  196.0661  182.7432  156.6293 H   0  0  0  0  0  0  0  0  0  0  0  0
  202.4814  175.5343  155.7294 H   0  0  0  0  0  0  0  0  0  0  0  0
  1  2  1  0
  2  3  1  0
  2 29  2  0
  3  4  1  0
  4  5  1  0
  4 16  2  0
  5  6  2  0
  5  7  1  0
  7  8  1  0
  7 15  1  0
  8  9  1  0
  8 14  2  0
  9 10  2  0
  9 30  1  0
 10 11  1  0
 10 12  1  0
 11 31  1  0
 11 32  1  0
 12 13  2  0
 12 33  1  0
 13 14  1  0
 13 34  1  0
 14 35  1  0
 15 36  1  1
 15 37  1  0
 15 38  1  0
 16 17  1  0
 16 29  1  0
 17 18  1  0
 17 39  1  0
 18 19  1  0
 18 40  1  6
 18 41  1  0
 19 20  1  0
 19 24  2  0
 20 21  2  0
 20 42  1  0
 21 22  1  0
 21 43  1  0
 22 23  2  0
 22 25  1  0
 23 24  1  0
 23 44  1  0
 24 45  1  0
 25 26  1  0
 25 46  1  1
 25 47  1  0
 26 27  1  0
 26 28  1  0
 26 55  1  1
 27 48  1  6
 27 49  1  0
 27 50  1  0
 28 51  1  6
 28 52  1  0
 28 53  1  0
 29 54  1  0
M  CHG  1  26   1
M  END
>  <s_epik_cmdline>  (1376) 
J2VwaWtfcHl0aG9uJywgJy1waCcsICc3LjAwMDAwMCcsICctcGh0JywgJzIuMDAwMDAwJywgJy1tcycsICcxNicsICctdG4nLCAnOCcsICctbWEnLCAnMjAwJywgJy1pbWFlJywgJzxpbmZpbGUubWFlPicsICctb21hZScsICc8b3V0ZmlsZS5tYWU+Jw==

>  <s_epik_input>  (1376) 
W2NIXTFbY0hdW2NIXWMoW05IMl0pW2NIXWMxTihbQ0gzXSlDKD1PKWMoc2MyQ2wpYyhbY0hdMilbTkhdW0NIMl1jM1tjSF1bY0hdYyhbY0hdW2NIXTMpW0NIMl1OKFtDSDNdKVtDSDNd

>  <s_i_glide_gridfile>  (1376) 
ATP-Grid

>  <s_lp_Force_Field>  (1376) 
OPLS_2005

>  <s_lp_Variant>  (1376) 
rxn512b____EMOL300138311____EMOL49851977____EMOL50155899-1

>  <s_lp_label>  (1376) 
2329_sdstereoexpander_1_neutralizer_1_epik_1_stereoizer_1

>  <s_m_source_file>  (1376) 
ATP-VSW-LIGPREP-001-in.maegz

>  <s_sd_BIOSOLVEIT.INFINISEE\_QUERY\_NAME>  (1376) 
Ref-Lig

>  <s_sd_BIOSOLVEIT.INFINISEE\_QUERY\_SMILES>  (1376) 
S(c1nc2c(cc1C[NH2+]Cc3ccc(cc3)C[NH+](C)C)cccc2)Cc4ccccc4

>  <s_sd_BIOSOLVEIT.INFINISEE\_REACTION\_NAME>  (1376) 
rxn512b

>  <s_sd_BIOSOLVEIT.INFINISEE\_REAGENT1\_NAME>  (1376) 
EMOL300138311

>  <s_sd_BIOSOLVEIT.INFINISEE\_REAGENT1\_SMILES>  (1376) 
N(c1cc(N)ccc1)C

>  <s_sd_BIOSOLVEIT.INFINISEE\_REAGENT2\_NAME>  (1376) 
EMOL49851977

>  <s_sd_BIOSOLVEIT.INFINISEE\_REAGENT2\_SMILES>  (1376) 
BrC1=C(SC(Cl)=C1)C(=O)O

>  <s_sd_BIOSOLVEIT.INFINISEE\_REAGENT3\_NAME>  (1376) 
EMOL50155899

>  <s_sd_BIOSOLVEIT.INFINISEE\_REAGENT3\_SMILES>  (1376) 
N(Cc1ccc(cc1)CN)(C)C

>  <s_sd_BIOSOLVEIT.INFINISEE\_SPACE>  (1376) 
eXplore_7tr_2022-12

>  <s_vsw_compound_code>  (1376) 
74497

>  <s_vsw_variant>  (1376) 
74497-1

>  <r_epik_Charging_Adjusted_Penalty>  (1376) 
0.080189274810459593

>  <r_epik_Ionization_Penalty>  (1376) 
0.0407

>  <r_epik_Ionization_Penalty_Charging>  (1376) 
0.040099999999999997

>  <r_epik_Ionization_Penalty_Neutral>  (1376) 
0.00059999999999999995

>  <r_epik_State_Penalty>  (1376) 
0.040099999999999997

>  <r_i_docking_score>  (1376) 
-3.7855108923446599

>  <r_i_glide_ecoul>  (1376) 
-3.7857913970947301

>  <r_i_glide_eff_state_penalty>  (1376) 
0.040099999999999997

>  <r_i_glide_einternal>  (1376) 
9.2580833435058594

>  <r_i_glide_emodel>  (1376) 
-44.348484828737597

>  <r_i_glide_energy>  (1376) 
-37.0844020843506

>  <r_i_glide_erotb>  (1376) 
0.75256507117160198

>  <r_i_glide_esite>  (1376) 
-0.0059220456304599203

>  <r_i_glide_evdw>  (1376) 
-33.298610687255902

>  <r_i_glide_gscore>  (1376) 
-3.8256108923446601

>  <r_i_glide_hbond>  (1376) 
-0.12270885203325101

>  <r_i_glide_ligand_efficiency>  (1376) 
-0.130534858356712

>  <r_i_glide_ligand_efficiency_ln>  (1376) 
-0.86678600207313705

>  <r_i_glide_ligand_efficiency_sa>  (1376) 
-0.401044441217701

>  <r_i_glide_lipo>  (1376) 
-1.2809342861000499

>  <r_i_glide_metal>  (1376) 
-0

>  <r_i_glide_rewards>  (1376) 
-0.93581153582550003

>  <r_lp_Energy>  (1376) 
43.726151000000002

>  <r_lp_tautomer_probability>  (1376) 
0.99999274205267796

>  <r_qp_ACxDN^.5/SA>  (1376) 
0.0094882000000000005

>  <r_qp_CIQPlogS>  (1376) 
-4.4340000000000002

>  <r_qp_EA(eV)>  (1376) 
0.501

>  <r_qp_FISA>  (1376) 
99.753

>  <r_qp_FOSA>  (1376) 
264.97800000000001

>  <r_qp_IP(eV)>  (1376) 
8.0830000000000002

>  <r_qp_Jm>  (1376) 
1.4230311632285701e-05

>  <r_qp_PISA>  (1376) 
301.79700000000003

>  <r_qp_PSA>  (1376) 
69.790000000000006

>  <r_qp_PercentHumanOralAbsorption>  (1376) 
85.043000000000006

>  <r_qp_QPPCaco>  (1376) 
69.781999999999996

>  <r_qp_QPPMDCK>  (1376) 
132.95699999999999

>  <r_qp_QPlogBB>  (1376) 
0.02

>  <r_qp_QPlogHERG>  (1376) 
-8.1560000000000006

>  <r_qp_QPlogKhsa>  (1376) 
0.77700000000000002

>  <r_qp_QPlogKp>  (1376) 
-5.6520000000000001

>  <r_qp_QPlogPC16>  (1376) 
15.039

>  <r_qp_QPlogPo/w>  (1376) 
4.2869999999999999

>  <r_qp_QPlogPoct>  (1376) 
21.105

>  <r_qp_QPlogPw>  (1376) 
10.694000000000001

>  <r_qp_QPlogS>  (1376) 
-4.827

>  <r_qp_QPpolrz>  (1376) 
46.317999999999998

>  <r_qp_SASA>  (1376) 
774.48400000000004

>  <r_qp_SAamideO>  (1376) 
0

>  <r_qp_SAfluorine>  (1376) 
0

>  <r_qp_WPSA>  (1376) 
107.955

>  <r_qp_accptHB>  (1376) 
6

>  <r_qp_dip^2/V>  (1376) 
0.0088832000000000008

>  <r_qp_dipole>  (1376) 
3.4849999999999999

>  <r_qp_donorHB>  (1376) 
1.5

>  <r_qp_glob>  (1376) 
0.7693103

>  <r_qp_mol_MW>  (1376) 
428.97899999999998

>  <r_qp_volume>  (1376) 
1367.4880000000001

>  <r_sd_BIOSOLVEIT.INFINISEE\_FTREES\_SIMILARITY>  (1376) 
0.92200000000000004

>  <r_sd_BIOSOLVEIT.LOGP>  (1376) 
3.5169000000000001

>  <r_sd_BIOSOLVEIT.MOLECULAR\_WEIGHT>  (1376) 
429.99200000000002

>  <r_sd_BIOSOLVEIT.TPSA>  (1376) 
62.799999999999997

>  <i_epik_Tot_Q>  (1376) 
1

>  <i_epik_Tot_abs_Q>  (1376) 
1

>  <i_f3d_flags>  (1376) 
0

>  <i_i_glide_confnum>  (1376) 
5

>  <i_i_glide_lignum>  (1376) 
833

>  <i_i_glide_posenum>  (1376) 
15

>  <i_i_glide_rotatable_bonds>  (1376) 
8

>  <i_lp_mmshare_version>  (1376) 
65135

>  <i_m_ct_format>  (1376) 
2

>  <i_m_source_file_index>  (1376) 
2329

>  <i_qp_#NandO>  (1376) 
5

>  <i_qp_#acid>  (1376) 
0

>  <i_qp_#amide>  (1376) 
0

>  <i_qp_#amidine>  (1376) 
0

>  <i_qp_#amine>  (1376) 
2

>  <i_qp_#in34>  (1376) 
0

>  <i_qp_#in56>  (1376) 
17

>  <i_qp_#metab>  (1376) 
8

>  <i_qp_#nonHatm>  (1376) 
29

>  <i_qp_#noncon>  (1376) 
0

>  <i_qp_#ringatoms>  (1376) 
17

>  <i_qp_#rotor>  (1376) 
8

>  <i_qp_#rtvFG>  (1376) 
0

>  <i_qp_#stars>  (1376) 
0

>  <i_qp_CNS>  (1376) 
1

>  <i_qp_HumanOralAbsorption>  (1376) 
3

>  <i_qp_RuleOfFive>  (1376) 
0

>  <i_qp_RuleOfThree>  (1376) 
1

>  <i_sd_BIOSOLVEIT.INFINISEE\_RESULT\_RANK>  (1376) 
13939

>  <i_sd_version>  (1376) 
0

>  <b_lp_Chiralities_Consistent>  (1376) 
1

>  <b_sd_chiral_flag>  (1376) 
0

>  <canonical_id>  (1376) 
ATP-HTVS-D86CED65A6E1

>  <compound_code>  (1376) 
74497

>  <title>  (1376) 
rxn512b____EMOL300138311____EMOL49851977____EMOL50155899

>  <variant>  (1376) 
74497-1

>  <source_file>  (1376) 
运行/运行/ATP-VSW/ATP-VSW-DOCK_HTVS_1-001_lib/ATP-VSW-DOCK_HTVS_1-001_lib

>  <canonical_smiles>  (1376) 
CN(C(=O)c1sc(Cl)cc1NCc1ccc(C[NH+](C)C)cc1)c1cccc(N)c1

>  <scaffold>  (1376) 
O=C(Nc1ccccc1)c1sccc1NCc1ccccc1

>  <molecular_formula>  (1376) 
C22H26ClN4OS+

$$$$
ATP-HTVS-D8D752145B88
     RDKit          3D

 65 68  0  0  0  0  0  0  0  0999 V2000
  196.1996  182.3320  158.3168 O   0  0  0  0  0  0  0  0  0  0  0  0
  196.5466  183.4370  157.9057 C   0  0  0  0  0  0  0  0  0  0  0  0
  197.0101  183.7025  156.6660 N   0  0  0  0  0  0  0  0  0  0  0  0
  197.0630  182.8587  155.5128 C   0  0  0  0  0  0  0  0  0  0  0  0
  196.7973  181.5324  155.5826 N   0  0  0  0  0  0  0  0  0  0  0  0
  196.7458  180.7963  154.4584 C   0  0  0  0  0  0  0  0  0  0  0  0
  196.9939  181.3086  153.1692 C   0  0  0  0  0  0  0  0  0  0  0  0
  196.8998  180.4601  152.0442 N   0  0  0  0  0  0  0  0  0  0  0  0
  198.1332  180.1052  151.3374 C   0  0  1  0  0  0  0  0  0  0  0  0
  199.1657  179.3645  152.1651 C   0  0  0  0  0  0  0  0  0  0  0  0
  199.9095  180.0461  153.1512 C   0  0  0  0  0  0  0  0  0  0  0  0
  200.8136  179.3437  153.9686 C   0  0  0  0  0  0  0  0  0  0  0  0
  200.9894  177.9542  153.7879 C   0  0  0  0  0  0  0  0  0  0  0  0
  200.2935  177.2863  152.7565 C   0  0  0  0  0  0  0  0  0  0  0  0
  199.3864  177.9912  151.9458 C   0  0  0  0  0  0  0  0  0  0  0  0
  201.8880  177.1701  154.7204 C   0  0  1  0  0  0  0  0  0  0  0  0
  201.0938  176.4292  155.7416 N   0  0  1  0  0  0  0  0  0  0  0  0
  201.8979  175.4361  156.4952 C   0  0  1  0  0  0  0  0  0  0  0  0
  202.3849  174.2514  155.6386 C   0  0  2  0  0  0  0  0  0  0  0  0
  200.2829  177.3043  156.6385 C   0  0  1  0  0  0  0  0  0  0  0  0
  201.1337  178.2322  157.5284 C   0  0  2  0  0  0  0  0  0  0  0  0
  197.3192  182.6865  153.0776 C   0  0  0  0  0  0  0  0  0  0  0  0
  197.3588  183.4799  154.2644 C   0  0  0  0  0  0  0  0  0  0  0  0
  197.6566  184.8653  154.1556 C   0  0  0  0  0  0  0  0  0  0  0  0
  197.9531  185.4437  152.9076 C   0  0  0  0  0  0  0  0  0  0  0  0
  197.9341  184.6510  151.7455 C   0  0  0  0  0  0  0  0  0  0  0  0
  197.5871  183.2910  151.8240 C   0  0  0  0  0  0  0  0  0  0  0  0
  196.3928  184.6438  158.7905 C   0  0  0  0  0  0  0  0  0  0  0  0
  195.2968  184.7193  159.6791 C   0  0  0  0  0  0  0  0  0  0  0  0
  195.1370  185.8331  160.5267 C   0  0  0  0  0  0  0  0  0  0  0  0
  196.0784  186.8798  160.5014 C   0  0  0  0  0  0  0  0  0  0  0  0
  195.9200  187.9534  161.3297 O   0  0  0  0  0  0  0  0  0  0  0  0
  197.1781  186.8119  159.6232 C   0  0  0  0  0  0  0  0  0  0  0  0
  197.3335  185.7002  158.7702 C   0  0  0  0  0  0  0  0  0  0  0  0
  197.2348  184.6690  156.4944 H   0  0  0  0  0  0  0  0  0  0  0  0
  196.5004  179.7533  154.6002 H   0  0  0  0  0  0  0  0  0  0  0  0
  196.2792  179.6694  152.1694 H   0  0  0  0  0  0  0  0  0  0  0  0
  197.8567  179.4821  150.4823 H   0  0  0  0  0  0  0  0  0  0  0  0
  198.6364  180.9811  150.9242 H   0  0  0  0  0  0  0  0  0  0  0  0
  199.7747  181.1062  153.3061 H   0  0  0  0  0  0  0  0  0  0  0  0
  201.3503  179.8708  154.7448 H   0  0  0  0  0  0  0  0  0  0  0  0
  200.4347  176.2242  152.5950 H   0  0  0  0  0  0  0  0  0  0  0  0
  198.8438  177.4716  151.1685 H   0  0  0  0  0  0  0  0  0  0  0  0
  202.4582  176.4904  154.0860 H   0  0  0  0  0  0  0  0  0  0  0  0
  202.6199  177.8318  155.1872 H   0  0  0  0  0  0  0  0  0  0  0  0
  202.7493  175.9309  156.9509 H   0  0  0  0  0  0  0  0  0  0  0  0
  201.3039  175.0426  157.3232 H   0  0  0  0  0  0  0  0  0  0  0  0
  202.9352  173.5426  156.2573 H   0  0  0  0  0  0  0  0  0  0  0  0
  203.0645  174.5597  154.8457 H   0  0  0  0  0  0  0  0  0  0  0  0
  201.5473  173.7230  155.1895 H   0  0  0  0  0  0  0  0  0  0  0  0
  199.5851  177.9046  156.0548 H   0  0  0  0  0  0  0  0  0  0  0  0
  199.6430  176.6784  157.2646 H   0  0  0  0  0  0  0  0  0  0  0  0
  200.4870  178.8589  158.1428 H   0  0  0  0  0  0  0  0  0  0  0  0
  201.7554  178.9119  156.9465 H   0  0  0  0  0  0  0  0  0  0  0  0
  201.7866  177.6738  158.2000 H   0  0  0  0  0  0  0  0  0  0  0  0
  197.6564  185.5224  155.0144 H   0  0  0  0  0  0  0  0  0  0  0  0
  198.1826  186.5000  152.8381 H   0  0  0  0  0  0  0  0  0  0  0  0
  198.1690  185.0902  150.7849 H   0  0  0  0  0  0  0  0  0  0  0  0
  197.5334  182.7137  150.9098 H   0  0  0  0  0  0  0  0  0  0  0  0
  194.5710  183.9202  159.7178 H   0  0  0  0  0  0  0  0  0  0  0  0
  194.2933  185.8852  161.2009 H   0  0  0  0  0  0  0  0  0  0  0  0
  196.6474  188.5589  161.3106 H   0  0  0  0  0  0  0  0  0  0  0  0
  197.9076  187.6071  159.6028 H   0  0  0  0  0  0  0  0  0  0  0  0
  198.1934  185.6598  158.1172 H   0  0  0  0  0  0  0  0  0  0  0  0
  200.4117  175.8913  155.2289 H   0  0  0  0  0  0  0  0  0  0  0  0
  1  2  2  0
  2  3  1  0
  2 28  1  0
  3  4  1  0
  3 35  1  0
  4  5  1  0
  4 23  2  0
  5  6  2  0
  6  7  1  0
  6 36  1  0
  7  8  1  0
  7 22  2  0
  8  9  1  0
  8 37  1  0
  9 10  1  0
  9 38  1  6
  9 39  1  0
 10 11  1  0
 10 15  2  0
 11 12  2  0
 11 40  1  0
 12 13  1  0
 12 41  1  0
 13 14  2  0
 13 16  1  0
 14 15  1  0
 14 42  1  0
 15 43  1  0
 16 17  1  0
 16 44  1  6
 16 45  1  0
 17 18  1  0
 17 20  1  0
 17 65  1  6
 18 19  1  0
 18 46  1  1
 18 47  1  0
 19 48  1  1
 19 49  1  0
 19 50  1  0
 20 21  1  0
 20 51  1  6
 20 52  1  0
 21 53  1  1
 21 54  1  0
 21 55  1  0
 22 23  1  0
 22 27  1  0
 23 24  1  0
 24 25  2  0
 24 56  1  0
 25 26  1  0
 25 57  1  0
 26 27  2  0
 26 58  1  0
 27 59  1  0
 28 29  1  0
 28 34  2  0
 29 30  2  0
 29 60  1  0
 30 31  1  0
 30 61  1  0
 31 32  1  0
 31 33  2  0
 32 62  1  0
 33 34  1  0
 33 63  1  0
 34 64  1  0
M  CHG  1  17   1
M  END
>  <s_epik_cmdline>  (1377) 
J2VwaWtfcHl0aG9uJywgJy1waCcsICc3LjAwMDAwMCcsICctcGh0JywgJzIuMDAwMDAwJywgJy1tcycsICcxNicsICctdG4nLCAnOCcsICctbWEnLCAnMjAwJywgJy1pbWFlJywgJzxpbmZpbGUubWFlPicsICctb21hZScsICc8b3V0ZmlsZS5tYWU+Jw==

>  <s_epik_input>  (1377) 
W2NIXTFbY0hdYyhbT0hdKVtjSF1bY0hdYzFDKD1PKVtOSF1jKGMoYzIzKVtjSF1bY0hdW2NIXVtjSF0zKW5bY0hdYzJbTkhdW0NIMl1jNFtjSF1bY0hdYyhbY0hdW2NIXTQpW0NIMl1OKFtDSDJdW0NIM10pW0NIMl1bQ0gzXQ==

>  <s_i_glide_gridfile>  (1377) 
ATP-Grid

>  <s_lp_Force_Field>  (1377) 
OPLS_2005

>  <s_lp_Variant>  (1377) 
rxn502b____EMOL490868____EMOL7515103____EMOL2868412-1

>  <s_lp_label>  (1377) 
2367_sdstereoexpander_1_neutralizer_1_epik_1_stereoizer_1

>  <s_m_source_file>  (1377) 
ATP-VSW-LIGPREP-002-in.maegz

>  <s_sd_BIOSOLVEIT.INFINISEE\_QUERY\_NAME>  (1377) 
Ref-Lig

>  <s_sd_BIOSOLVEIT.INFINISEE\_QUERY\_SMILES>  (1377) 
S(c1nc2c(cc1C[NH2+]Cc3ccc(cc3)C[NH+](C)C)cccc2)Cc4ccccc4

>  <s_sd_BIOSOLVEIT.INFINISEE\_REACTION\_NAME>  (1377) 
rxn502b

>  <s_sd_BIOSOLVEIT.INFINISEE\_REAGENT1\_NAME>  (1377) 
EMOL490868

>  <s_sd_BIOSOLVEIT.INFINISEE\_REAGENT1\_SMILES>  (1377) 
O=C(O)c1ccc(O)cc1

>  <s_sd_BIOSOLVEIT.INFINISEE\_REAGENT2\_NAME>  (1377) 
EMOL7515103

>  <s_sd_BIOSOLVEIT.INFINISEE\_REAGENT2\_SMILES>  (1377) 
Brc1c2c(c(nc1)N)cccc2

>  <s_sd_BIOSOLVEIT.INFINISEE\_REAGENT3\_NAME>  (1377) 
EMOL2868412

>  <s_sd_BIOSOLVEIT.INFINISEE\_REAGENT3\_SMILES>  (1377) 
N(Cc1ccc(cc1)CN)(CC)CC

>  <s_sd_BIOSOLVEIT.INFINISEE\_SPACE>  (1377) 
eXplore_7tr_2022-12

>  <s_vsw_compound_code>  (1377) 
75714

>  <s_vsw_variant>  (1377) 
75714-1

>  <r_epik_Charging_Adjusted_Penalty>  (1377) 
0.050839968531061

>  <r_epik_Ionization_Penalty>  (1377) 
0.035099999999999999

>  <r_epik_Ionization_Penalty_Charging>  (1377) 
0.015900000000000001

>  <r_epik_Ionization_Penalty_Neutral>  (1377) 
0.019099999999999999

>  <r_epik_State_Penalty>  (1377) 
0.0349

>  <r_i_docking_score>  (1377) 
-4.4408120881995297

>  <r_i_glide_ecoul>  (1377) 
-2.2694783210754399

>  <r_i_glide_eff_state_penalty>  (1377) 
0.0349

>  <r_i_glide_einternal>  (1377) 
6.0177302360534703

>  <r_i_glide_emodel>  (1377) 
-57.809723042987798

>  <r_i_glide_energy>  (1377) 
-45.7291646003723

>  <r_i_glide_erotb>  (1377) 
0.77439018997812004

>  <r_i_glide_esite>  (1377) 
-0.052935729847191401

>  <r_i_glide_evdw>  (1377) 
-43.459686279296903

>  <r_i_glide_gscore>  (1377) 
-4.47571208819953

>  <r_i_glide_hbond>  (1377) 
0

>  <r_i_glide_ligand_efficiency>  (1377) 
-0.130612120241163

>  <r_i_glide_ligand_efficiency_ln>  (1377) 
-0.98109995084320301

>  <r_i_glide_ligand_efficiency_sa>  (1377) 
-0.42313256562577101

>  <r_i_glide_lipo>  (1377) 
-2.1558378043861199

>  <r_i_glide_metal>  (1377) 
-0

>  <r_i_glide_rewards>  (1377) 
-0.52792268181818103

>  <r_lp_Energy>  (1377) 
32.837868

>  <r_lp_tautomer_probability>  (1377) 
0.999999999997365

>  <r_qp_ACxDN^.5/SA>  (1377) 
0.015769200000000001

>  <r_qp_CIQPlogS>  (1377) 
-5.694

>  <r_qp_EA(eV)>  (1377) 
0.90000000000000002

>  <r_qp_FISA>  (1377) 
131.154

>  <r_qp_FOSA>  (1377) 
238.851

>  <r_qp_IP(eV)>  (1377) 
7.8179999999999996

>  <r_qp_Jm>  (1377) 
0.00121566698397117

>  <r_qp_PISA>  (1377) 
426.31900000000002

>  <r_qp_PSA>  (1377) 
80.864999999999995

>  <r_qp_PercentHumanOralAbsorption>  (1377) 
91.022999999999996

>  <r_qp_QPPCaco>  (1377) 
140.952

>  <r_qp_QPPMDCK>  (1377) 
65.837999999999994

>  <r_qp_QPlogBB>  (1377) 
-1.0289999999999999

>  <r_qp_QPlogHERG>  (1377) 
-7.6310000000000002

>  <r_qp_QPlogKhsa>  (1377) 
0.71999999999999997

>  <r_qp_QPlogKp>  (1377) 
-3.5369999999999999

>  <r_qp_QPlogPC16>  (1377) 
16.760000000000002

>  <r_qp_QPlogPo/w>  (1377) 
4.375

>  <r_qp_QPlogPoct>  (1377) 
26.007999999999999

>  <r_qp_QPlogPw>  (1377) 
14.757

>  <r_qp_QPlogS>  (1377) 
-5.0350000000000001

>  <r_qp_QPpolrz>  (1377) 
51.280000000000001

>  <r_qp_SASA>  (1377) 
796.32399999999996

>  <r_qp_SAamideO>  (1377) 
0

>  <r_qp_SAfluorine>  (1377) 
0

>  <r_qp_WPSA>  (1377) 
0

>  <r_qp_accptHB>  (1377) 
7.25

>  <r_qp_dip^2/V>  (1377) 
0.037429499999999997

>  <r_qp_dipole>  (1377) 
7.4779999999999998

>  <r_qp_donorHB>  (1377) 
3

>  <r_qp_glob>  (1377) 
0.79361990000000004

>  <r_qp_mol_MW>  (1377) 
454.57100000000003

>  <r_qp_volume>  (1377) 
1493.845

>  <r_sd_BIOSOLVEIT.INFINISEE\_FTREES\_SIMILARITY>  (1377) 
0.92000000000000004

>  <r_sd_BIOSOLVEIT.LOGP>  (1377) 
4.2294999999999998

>  <r_sd_BIOSOLVEIT.MOLECULAR\_WEIGHT>  (1377) 
455.57900000000001

>  <r_sd_BIOSOLVEIT.TPSA>  (1377) 
78.689999999999998

>  <i_epik_Tot_Q>  (1377) 
1

>  <i_epik_Tot_abs_Q>  (1377) 
1

>  <i_f3d_flags>  (1377) 
0

>  <i_i_glide_confnum>  (1377) 
3

>  <i_i_glide_lignum>  (1377) 
968

>  <i_i_glide_posenum>  (1377) 
7

>  <i_i_glide_rotatable_bonds>  (1377) 
11

>  <i_lp_mmshare_version>  (1377) 
65135

>  <i_m_ct_format>  (1377) 
2

>  <i_m_source_file_index>  (1377) 
2367

>  <i_qp_#NandO>  (1377) 
6

>  <i_qp_#acid>  (1377) 
0

>  <i_qp_#amide>  (1377) 
0

>  <i_qp_#amidine>  (1377) 
0

>  <i_qp_#amine>  (1377) 
1

>  <i_qp_#in34>  (1377) 
0

>  <i_qp_#in56>  (1377) 
22

>  <i_qp_#metab>  (1377) 
8

>  <i_qp_#nonHatm>  (1377) 
34

>  <i_qp_#noncon>  (1377) 
0

>  <i_qp_#ringatoms>  (1377) 
22

>  <i_qp_#rotor>  (1377) 
10

>  <i_qp_#rtvFG>  (1377) 
0

>  <i_qp_#stars>  (1377) 
1

>  <i_qp_CNS>  (1377) 
-2

>  <i_qp_HumanOralAbsorption>  (1377) 
3

>  <i_qp_RuleOfFive>  (1377) 
0

>  <i_qp_RuleOfThree>  (1377) 
1

>  <i_sd_BIOSOLVEIT.INFINISEE\_RESULT\_RANK>  (1377) 
17478

>  <i_sd_version>  (1377) 
0

>  <b_lp_Chiralities_Consistent>  (1377) 
1

>  <b_sd_chiral_flag>  (1377) 
0

>  <canonical_id>  (1377) 
ATP-HTVS-D8D752145B88

>  <compound_code>  (1377) 
75714

>  <title>  (1377) 
rxn502b____EMOL490868____EMOL7515103____EMOL2868412

>  <variant>  (1377) 
75714-1

>  <source_file>  (1377) 
运行/运行/ATP-VSW/ATP-VSW-DOCK_HTVS_1-002_lib.maegz

>  <canonical_smiles>  (1377) 
CC[NH+](CC)Cc1ccc(CNc2cnc(NC(=O)c3ccc(O)cc3)c3ccccc23)cc1

>  <scaffold>  (1377) 
O=C(Nc1ncc(NCc2ccccc2)c2ccccc12)c1ccccc1

>  <molecular_formula>  (1377) 
C28H31N4O2+

$$$$
ATP-HTVS-D8E733A39BE5
     RDKit          3D

 65 68  0  0  0  0  0  0  0  0999 V2000
  200.2297  177.4503  155.1162 O   0  0  0  0  0  0  0  0  0  0  0  0
  199.3212  178.1251  155.9652 C   0  0  1  0  0  0  0  0  0  0  0  0
  199.1845  179.5751  155.4979 C   0  0  2  0  0  0  0  0  0  0  0  0
  198.5009  180.3790  156.5130 N   0  0  0  0  0  0  0  0  0  0  0  0
  198.3184  181.7412  156.2552 C   0  0  0  0  0  0  0  0  0  0  0  0
  199.2149  182.3784  155.4288 N   0  0  0  0  0  0  0  0  0  0  0  0
  198.9645  183.6823  155.1880 C   0  0  0  0  0  0  0  0  0  0  0  0
  197.9266  184.3944  155.8140 C   0  0  0  0  0  0  0  0  0  0  0  0
  197.0587  183.7430  156.5788 N   0  0  0  0  0  0  0  0  0  0  0  0
  197.2566  182.4543  156.8534 C   0  0  0  0  0  0  0  0  0  0  0  0
  196.4432  181.8341  157.8567 N   0  0  0  0  0  0  0  0  0  0  0  0
  195.2222  182.4966  158.2839 C   0  0  1  0  0  0  0  0  0  0  0  0
  195.3596  183.7909  159.0878 C   0  0  0  0  0  0  0  0  0  0  0  0
  196.5697  184.5097  159.1837 C   0  0  0  0  0  0  0  0  0  0  0  0
  196.6277  185.7795  159.7373 C   0  0  0  0  0  0  0  0  0  0  0  0
  195.4958  186.3084  160.3921 C   0  0  0  0  0  0  0  0  0  0  0  0
  194.2977  185.5520  160.4246 C   0  0  0  0  0  0  0  0  0  0  0  0
  194.2143  184.3214  159.7235 C   0  0  0  0  0  0  0  0  0  0  0  0
  197.9242  186.5674  159.6273 C   0  0  1  0  0  0  0  0  0  0  0  0
  198.1418  187.2178  158.3057 N   0  0  1  0  0  0  0  0  0  0  0  0
  197.0754  188.1730  157.9245 C   0  0  2  0  0  0  0  0  0  0  0  0
  199.4905  187.8120  158.1774 C   0  0  2  0  0  0  0  0  0  0  0  0
  197.8089  185.7717  155.6590 C   0  0  0  0  0  0  0  0  0  0  0  0
  198.6934  186.4972  154.8241 C   0  0  0  0  0  0  0  0  0  0  0  0
  199.6678  185.7961  154.0897 C   0  0  0  0  0  0  0  0  0  0  0  0
  199.8220  184.4065  154.3047 C   0  0  0  0  0  0  0  0  0  0  0  0
  198.5661  179.6725  154.1013 C   0  0  0  0  0  0  0  0  0  0  0  0
  199.3956  179.6032  152.9644 C   0  0  0  0  0  0  0  0  0  0  0  0
  198.8392  179.6810  151.6730 C   0  0  0  0  0  0  0  0  0  0  0  0
  197.4472  179.8252  151.5123 C   0  0  0  0  0  0  0  0  0  0  0  0
  196.6140  179.9048  152.6439 C   0  0  0  0  0  0  0  0  0  0  0  0
  197.1712  179.8315  153.9342 C   0  0  0  0  0  0  0  0  0  0  0  0
  200.5866  176.1800  155.6187 C   0  0  2  0  0  0  0  0  0  0  0  0
  198.3503  177.6360  155.9562 H   0  0  0  0  0  0  0  0  0  0  0  0
  199.6866  178.1143  156.9940 H   0  0  0  0  0  0  0  0  0  0  0  0
  200.1893  179.9968  155.4420 H   0  0  0  0  0  0  0  0  0  0  0  0
  197.7378  179.8814  156.9824 H   0  0  0  0  0  0  0  0  0  0  0  0
  196.4235  180.8376  157.8923 H   0  0  0  0  0  0  0  0  0  0  0  0
  194.6755  182.6448  157.3584 H   0  0  0  0  0  0  0  0  0  0  0  0
  194.6275  181.7791  158.8475 H   0  0  0  0  0  0  0  0  0  0  0  0
  197.4873  184.1363  158.7849 H   0  0  0  0  0  0  0  0  0  0  0  0
  195.5608  187.2822  160.9172 H   0  0  0  0  0  0  0  0  0  0  0  0
  193.4352  185.9303  160.9595 H   0  0  0  0  0  0  0  0  0  0  0  0
  193.2578  183.7772  159.7222 H   0  0  0  0  0  0  0  0  0  0  0  0
  197.9491  187.3401  160.4088 H   0  0  0  0  0  0  0  0  0  0  0  0
  198.7451  185.8681  159.8066 H   0  0  0  0  0  0  0  0  0  0  0  0
  196.9951  188.9832  158.6432 H   0  0  0  0  0  0  0  0  0  0  0  0
  196.1091  187.6723  157.8508 H   0  0  0  0  0  0  0  0  0  0  0  0
  197.2774  188.5997  156.9418 H   0  0  0  0  0  0  0  0  0  0  0  0
  199.6159  188.6269  158.8920 H   0  0  0  0  0  0  0  0  0  0  0  0
  199.6491  188.2096  157.1728 H   0  0  0  0  0  0  0  0  0  0  0  0
  200.2692  187.0665  158.3562 H   0  0  0  0  0  0  0  0  0  0  0  0
  197.0375  186.2943  156.1648 H   0  0  0  0  0  0  0  0  0  0  0  0
  198.5537  187.5808  154.6661 H   0  0  0  0  0  0  0  0  0  0  0  0
  200.2785  186.3187  153.3575 H   0  0  0  0  0  0  0  0  0  0  0  0
  200.5733  183.8517  153.7141 H   0  0  0  0  0  0  0  0  0  0  0  0
  200.4648  179.4925  153.0814 H   0  0  0  0  0  0  0  0  0  0  0  0
  199.4801  179.6245  150.8048 H   0  0  0  0  0  0  0  0  0  0  0  0
  197.0182  179.8789  150.5226 H   0  0  0  0  0  0  0  0  0  0  0  0
  195.5483  180.0144  152.5284 H   0  0  0  0  0  0  0  0  0  0  0  0
  196.5215  179.8924  154.7951 H   0  0  0  0  0  0  0  0  0  0  0  0
  201.2757  175.6913  154.9339 H   0  0  0  0  0  0  0  0  0  0  0  0
  199.7092  175.5412  155.6856 H   0  0  0  0  0  0  0  0  0  0  0  0
  201.0780  176.2620  156.5928 H   0  0  0  0  0  0  0  0  0  0  0  0
  198.1221  186.4719  157.6188 H   0  0  0  0  0  0  0  0  0  0  0  0
  1  2  1  0
  1 33  1  0
  2  3  1  0
  2 34  1  1
  2 35  1  0
  3  4  1  0
  3 27  1  0
  3 36  1  6
  4  5  1  0
  4 37  1  0
  5  6  2  0
  5 10  1  0
  6  7  1  0
  7  8  1  0
  7 26  2  0
  8  9  1  0
  8 23  2  0
  9 10  2  0
 10 11  1  0
 11 12  1  0
 11 38  1  0
 12 13  1  0
 12 39  1  6
 12 40  1  0
 13 14  2  0
 13 18  1  0
 14 15  1  0
 14 41  1  0
 15 16  2  0
 15 19  1  0
 16 17  1  0
 16 42  1  0
 17 18  2  0
 17 43  1  0
 18 44  1  0
 19 20  1  0
 19 45  1  1
 19 46  1  0
 20 21  1  0
 20 22  1  0
 20 65  1  6
 21 47  1  1
 21 48  1  0
 21 49  1  0
 22 50  1  1
 22 51  1  0
 22 52  1  0
 23 24  1  0
 23 53  1  0
 24 25  2  0
 24 54  1  0
 25 26  1  0
 25 55  1  0
 26 56  1  0
 27 28  2  0
 27 32  1  0
 28 29  1  0
 28 57  1  0
 29 30  2  0
 29 58  1  0
 30 31  1  0
 30 59  1  0
 31 32  2  0
 31 60  1  0
 32 61  1  0
 33 62  1  6
 33 63  1  0
 33 64  1  0
M  CHG  1  20   1
M  END
>  <s_epik_cmdline>  (1378) 
J2VwaWtfcHl0aG9uJywgJy1waCcsICc3LjAwMDAwMCcsICctcGh0JywgJzIuMDAwMDAwJywgJy1tcycsICcxNicsICctdG4nLCAnOCcsICctbWEnLCAnMjAwJywgJy1pbWFlJywgJzxpbmZpbGUubWFlPicsICctb21hZScsICc8b3V0ZmlsZS5tYWU+Jw==

>  <s_epik_input>  (1378) 
W2NIXTFbY0hdW2NIXVtjSF1bY0hdYzFbQ0BIXShbQ0gyXU9bQ0gzXSlbTkhdYyhuMiljKG5jKGMyMylbY0hdW2NIXVtjSF1bY0hdMylbTkhdW0NIMl1jNFtjSF1jKFtjSF1bY0hdW2NIXTQpW0NIMl1OKFtDSDNdKVtDSDNd

>  <s_i_glide_gridfile>  (1378) 
ATP-Grid

>  <s_lp_Force_Field>  (1378) 
OPLS_2005

>  <s_lp_Variant>  (1378) 
m_282030aaa____21931794____23157418____21940090-1

>  <s_lp_label>  (1378) 
964_sdstereoexpander_1_neutralizer_1_epik_1_stereoizer_1

>  <s_m_source_file>  (1378) 
ATP-VSW-LIGPREP-003-in.maegz

>  <s_sd_BIOSOLVEIT.INFINISEE\_QUERY\_NAME>  (1378) 
Ref-Lig

>  <s_sd_BIOSOLVEIT.INFINISEE\_QUERY\_SMILES>  (1378) 
S(c1nc2c(cc1C[NH2+]Cc3ccc(cc3)C[NH+](C)C)cccc2)Cc4ccccc4

>  <s_sd_BIOSOLVEIT.INFINISEE\_REACTION\_NAME>  (1378) 
m_282030aaa

>  <s_sd_BIOSOLVEIT.INFINISEE\_REAGENT1\_SMILES>  (1378) 
[R1*]NC(c1ccccc1)COC

>  <s_sd_BIOSOLVEIT.INFINISEE\_REAGENT2\_SMILES>  (1378) 
[R1*]c1nc2c(nc1[R2*])cccc2

>  <s_sd_BIOSOLVEIT.INFINISEE\_REAGENT3\_SMILES>  (1378) 
[R2*]NCc1cc(ccc1)CN(C)C

>  <s_sd_BIOSOLVEIT.INFINISEE\_SPACE>  (1378) 
REALSpace_44bn_2023-08

>  <s_vsw_compound_code>  (1378) 
30819

>  <s_vsw_variant>  (1378) 
30819-1

>  <r_epik_Charging_Adjusted_Penalty>  (1378) 
0.088195370499548398

>  <r_epik_Ionization_Penalty>  (1378) 
0.044400000000000002

>  <r_epik_Ionization_Penalty_Charging>  (1378) 
0.0441

>  <r_epik_Ionization_Penalty_Neutral>  (1378) 
0.00029999999999999997

>  <r_epik_State_Penalty>  (1378) 
0.0441

>  <r_i_docking_score>  (1378) 
-4.5721480278722

>  <r_i_glide_ecoul>  (1378) 
-7.9768733978271502

>  <r_i_glide_eff_state_penalty>  (1378) 
0.0441

>  <r_i_glide_einternal>  (1378) 
1.51421630382538

>  <r_i_glide_emodel>  (1378) 
-57.559551867850303

>  <r_i_glide_energy>  (1378) 
-41.916746139526403

>  <r_i_glide_erotb>  (1378) 
0.81622115425911701

>  <r_i_glide_esite>  (1378) 
-0.17864378316198001

>  <r_i_glide_evdw>  (1378) 
-33.939872741699197

>  <r_i_glide_gscore>  (1378) 
-4.6162480278722002

>  <r_i_glide_hbond>  (1378) 
-0.20309245127380299

>  <r_i_glide_ligand_efficiency>  (1378) 
-0.13854994023855199

>  <r_i_glide_ligand_efficiency_ln>  (1378) 
-1.0168220480832599

>  <r_i_glide_ligand_efficiency_sa>  (1378) 
-0.44440368921607099

>  <r_i_glide_lipo>  (1378) 
-1.76568021002741

>  <r_i_glide_metal>  (1378) 
-0

>  <r_i_glide_rewards>  (1378) 
-0.39152809090909002

>  <r_lp_Energy>  (1378) 
24.648353

>  <r_qp_ACxDN^.5/SA>  (1378) 
0.0130565

>  <r_qp_CIQPlogS>  (1378) 
-5.7279999999999998

>  <r_qp_EA(eV)>  (1378) 
0.90400000000000003

>  <r_qp_FISA>  (1378) 
40.243000000000002

>  <r_qp_FOSA>  (1378) 
312.63499999999999

>  <r_qp_IP(eV)>  (1378) 
8.3409999999999993

>  <r_qp_Jm>  (1378) 
0.301308938477515

>  <r_qp_PISA>  (1378) 
372.83100000000002

>  <r_qp_PSA>  (1378) 
54.238999999999997

>  <r_qp_PercentHumanOralAbsorption>  (1378) 
100

>  <r_qp_QPPCaco>  (1378) 
1026.0699999999999

>  <r_qp_QPPMDCK>  (1378) 
562.74400000000003

>  <r_qp_QPlogBB>  (1378) 
-0.021999999999999999

>  <r_qp_QPlogHERG>  (1378) 
-6.6479999999999997

>  <r_qp_QPlogKhsa>  (1378) 
0.69599999999999995

>  <r_qp_QPlogKp>  (1378) 
-2.0499999999999998

>  <r_qp_QPlogPC16>  (1378) 
14.622999999999999

>  <r_qp_QPlogPo/w>  (1378) 
4.8520000000000003

>  <r_qp_QPlogPoct>  (1378) 
22.187000000000001

>  <r_qp_QPlogPw>  (1378) 
11.598000000000001

>  <r_qp_QPlogS>  (1378) 
-4.1159999999999997

>  <r_qp_QPpolrz>  (1378) 
47.475999999999999

>  <r_qp_SASA>  (1378) 
725.70899999999995

>  <r_qp_SAamideO>  (1378) 
0

>  <r_qp_SAfluorine>  (1378) 
0

>  <r_qp_WPSA>  (1378) 
0

>  <r_qp_accptHB>  (1378) 
6.7000000000000002

>  <r_qp_dip^2/V>  (1378) 
0.0101884

>  <r_qp_dipole>  (1378) 
3.7919999999999998

>  <r_qp_donorHB>  (1378) 
2

>  <r_qp_glob>  (1378) 
0.83856299999999995

>  <r_qp_mol_MW>  (1378) 
441.57499999999999

>  <r_qp_volume>  (1378) 
1411.5599999999999

>  <r_sd_BIOSOLVEIT.INFINISEE\_FTREES\_SIMILARITY>  (1378) 
0.91700000000000004

>  <r_sd_BIOSOLVEIT.LOGP>  (1378) 
3.6859999999999999

>  <r_sd_BIOSOLVEIT.MOLECULAR\_WEIGHT>  (1378) 
442.584

>  <r_sd_BIOSOLVEIT.TPSA>  (1378) 
63.509999999999998

>  <i_epik_Tot_Q>  (1378) 
1

>  <i_epik_Tot_abs_Q>  (1378) 
1

>  <i_f3d_flags>  (1378) 
0

>  <i_i_glide_confnum>  (1378) 
7

>  <i_i_glide_lignum>  (1378) 
366

>  <i_i_glide_posenum>  (1378) 
11

>  <i_i_glide_rotatable_bonds>  (1378) 
10

>  <i_lp_mmshare_version>  (1378) 
65135

>  <i_m_ct_format>  (1378) 
2

>  <i_m_source_file_index>  (1378) 
964

>  <i_qp_#NandO>  (1378) 
6

>  <i_qp_#acid>  (1378) 
0

>  <i_qp_#amide>  (1378) 
0

>  <i_qp_#amidine>  (1378) 
0

>  <i_qp_#amine>  (1378) 
1

>  <i_qp_#in34>  (1378) 
0

>  <i_qp_#in56>  (1378) 
22

>  <i_qp_#metab>  (1378) 
6

>  <i_qp_#nonHatm>  (1378) 
33

>  <i_qp_#noncon>  (1378) 
0

>  <i_qp_#ringatoms>  (1378) 
22

>  <i_qp_#rotor>  (1378) 
10

>  <i_qp_#rtvFG>  (1378) 
0

>  <i_qp_#stars>  (1378) 
0

>  <i_qp_CNS>  (1378) 
1

>  <i_qp_HumanOralAbsorption>  (1378) 
3

>  <i_qp_RuleOfFive>  (1378) 
0

>  <i_qp_RuleOfThree>  (1378) 
0

>  <i_sd_BIOSOLVEIT.INFINISEE\_REAGENT1\_NAME>  (1378) 
21931794

>  <i_sd_BIOSOLVEIT.INFINISEE\_REAGENT2\_NAME>  (1378) 
23157418

>  <i_sd_BIOSOLVEIT.INFINISEE\_REAGENT3\_NAME>  (1378) 
21940090

>  <i_sd_BIOSOLVEIT.INFINISEE\_RESULT\_RANK>  (1378) 
23513

>  <i_sd_version>  (1378) 
0

>  <b_lp_Chiralities_Consistent>  (1378) 
1

>  <b_sd_chiral_flag>  (1378) 
0

>  <canonical_id>  (1378) 
ATP-HTVS-D8E733A39BE5

>  <compound_code>  (1378) 
30819

>  <title>  (1378) 
m_282030aaa____21931794____23157418____21940090

>  <variant>  (1378) 
30819-1

>  <source_file>  (1378) 
运行/运行/ATP-VSW/ATP-VSW-DOCK_HTVS_1-003_lib/ATP-VSW-DOCK_HTVS_1-003_lib.mae

>  <canonical_smiles>  (1378) 
COC[C@H](Nc1nc2ccccc2nc1NCc1cccc(C[NH+](C)C)c1)c1ccccc1

>  <scaffold>  (1378) 
c1ccc(CNc2nc3ccccc3nc2NCc2ccccc2)cc1

>  <molecular_formula>  (1378) 
C27H32N5O+

$$$$
ATP-HTVS-D9159AF95984
     RDKit          3D

 60 63  0  0  0  0  0  0  0  0999 V2000
  200.1768  177.2776  146.0503 F   0  0  0  0  0  0  0  0  0  0  0  0
  199.6468  177.1092  147.2852 C   0  0  0  0  0  0  0  0  0  0  0  0
  199.0874  178.2053  147.9818 C   0  0  0  0  0  0  0  0  0  0  0  0
  199.1226  179.5127  147.3320 C   0  0  0  0  0  0  0  0  0  0  0  0
  199.1464  180.5498  146.8199 N   0  0  0  0  0  0  0  0  0  0  0  0
  198.5493  178.0092  149.2894 C   0  0  0  0  0  0  0  0  0  0  0  0
  198.5829  176.7114  149.8522 C   0  0  0  0  0  0  0  0  0  0  0  0
  199.1484  175.6329  149.1519 C   0  0  0  0  0  0  0  0  0  0  0  0
  199.6776  175.8301  147.8676 C   0  0  0  0  0  0  0  0  0  0  0  0
  197.9229  179.1220  150.0917 C   0  0  0  0  0  0  0  0  0  0  0  0
  197.0872  179.8746  149.5949 O   0  0  0  0  0  0  0  0  0  0  0  0
  198.3773  179.2057  151.3536 N   0  0  0  0  0  0  0  0  0  0  0  0
  198.0026  180.0920  152.4106 C   0  0  0  0  0  0  0  0  0  0  0  0
  198.7679  180.0808  153.6048 C   0  0  0  0  0  0  0  0  0  0  0  0
  199.8627  179.2175  153.7025 N   0  0  0  0  0  0  0  0  0  0  0  0
  199.6768  178.1765  154.6921 C   0  0  1  0  0  0  0  0  0  0  0  0
  200.2731  176.8596  154.2654 C   0  0  0  0  0  0  0  0  0  0  0  0
  200.7131  175.9922  155.2655 C   0  0  0  0  0  0  0  0  0  0  0  0
  201.1120  174.7101  154.9058 C   0  0  0  0  0  0  0  0  0  0  0  0
  201.2527  174.3081  153.5608 C   0  0  0  0  0  0  0  0  0  0  0  0
  200.8238  175.1898  152.5498 C   0  0  0  0  0  0  0  0  0  0  0  0
  200.2990  176.4464  152.9142 C   0  0  0  0  0  0  0  0  0  0  0  0
  201.8650  172.9641  153.1849 C   0  0  1  0  0  0  0  0  0  0  0  0
  203.1917  172.6839  153.8331 N   0  0  1  0  0  0  0  0  0  0  0  0
  204.3494  173.2519  153.1203 C   0  0  2  0  0  0  0  0  0  0  0  0
  203.3044  172.9049  155.2870 C   0  0  2  0  0  0  0  0  0  0  0  0
  198.4021  180.9334  154.6812 C   0  0  0  0  0  0  0  0  0  0  0  0
  197.2654  181.7653  154.5365 C   0  0  0  0  0  0  0  0  0  0  0  0
  196.5598  181.7400  153.3886 N   0  0  0  0  0  0  0  0  0  0  0  0
  196.8777  180.9495  152.3412 C   0  0  0  0  0  0  0  0  0  0  0  0
  196.8715  182.6236  155.5789 C   0  0  0  0  0  0  0  0  0  0  0  0
  197.6014  182.6653  156.7788 C   0  0  0  0  0  0  0  0  0  0  0  0
  198.7379  181.8559  156.9285 C   0  0  0  0  0  0  0  0  0  0  0  0
  199.1393  181.0010  155.8891 C   0  0  0  0  0  0  0  0  0  0  0  0
  198.1669  176.5255  150.8324 H   0  0  0  0  0  0  0  0  0  0  0  0
  199.1714  174.6500  149.5981 H   0  0  0  0  0  0  0  0  0  0  0  0
  200.1098  175.0009  147.3264 H   0  0  0  0  0  0  0  0  0  0  0  0
  199.1034  178.5443  151.5756 H   0  0  0  0  0  0  0  0  0  0  0  0
  200.1977  178.8341  152.8348 H   0  0  0  0  0  0  0  0  0  0  0  0
  200.1566  178.4383  155.6318 H   0  0  0  0  0  0  0  0  0  0  0  0
  198.6223  178.0099  154.9111 H   0  0  0  0  0  0  0  0  0  0  0  0
  200.7158  176.2508  156.3170 H   0  0  0  0  0  0  0  0  0  0  0  0
  201.2784  174.0878  155.7626 H   0  0  0  0  0  0  0  0  0  0  0  0
  200.8346  174.8901  151.5025 H   0  0  0  0  0  0  0  0  0  0  0  0
  199.9055  177.0846  152.1519 H   0  0  0  0  0  0  0  0  0  0  0  0
  201.1487  172.1760  153.4197 H   0  0  0  0  0  0  0  0  0  0  0  0
  202.0061  172.8938  152.1000 H   0  0  0  0  0  0  0  0  0  0  0  0
  204.2715  174.3331  153.1424 H   0  0  0  0  0  0  0  0  0  0  0  0
  204.3752  172.8922  152.0902 H   0  0  0  0  0  0  0  0  0  0  0  0
  205.2661  172.9373  153.6265 H   0  0  0  0  0  0  0  0  0  0  0  0
  203.3204  173.9722  155.4620 H   0  0  0  0  0  0  0  0  0  0  0  0
  204.2165  172.5681  155.7190 H   0  0  0  0  0  0  0  0  0  0  0  0
  202.4583  172.4099  155.7894 H   0  0  0  0  0  0  0  0  0  0  0  0
  196.2109  181.0284  151.4975 H   0  0  0  0  0  0  0  0  0  0  0  0
  195.9994  183.2468  155.4764 H   0  0  0  0  0  0  0  0  0  0  0  0
  197.2973  183.3206  157.5805 H   0  0  0  0  0  0  0  0  0  0  0  0
  199.3173  181.8920  157.8361 H   0  0  0  0  0  0  0  0  0  0  0  0
  200.0312  180.4170  156.0461 H   0  0  0  0  0  0  0  0  0  0  0  0
  203.2859  171.6836  153.7842 H   0  0  0  0  0  0  0  0  0  0  0  0
  195.7427  182.3536  153.3214 H   0  0  0  0  0  0  0  0  0  0  0  0
  1  2  1  0
  2  3  2  0
  2  9  1  0
  3  4  1  0
  3  6  1  0
  4  5  3  0
  6  7  2  0
  6 10  1  0
  7  8  1  0
  7 35  1  0
  8  9  2  0
  8 36  1  0
  9 37  1  0
 10 11  2  0
 10 12  1  0
 12 13  1  0
 12 38  1  0
 13 14  2  0
 13 30  1  0
 14 15  1  0
 14 27  1  0
 15 16  1  0
 15 39  1  0
 16 17  1  0
 16 40  1  1
 16 41  1  0
 17 18  1  0
 17 22  2  0
 18 19  2  0
 18 42  1  0
 19 20  1  0
 19 43  1  0
 20 21  2  0
 20 23  1  0
 21 22  1  0
 21 44  1  0
 22 45  1  0
 23 24  1  0
 23 46  1  1
 23 47  1  0
 24 25  1  0
 24 26  1  0
 24 59  1  1
 25 48  1  6
 25 49  1  0
 25 50  1  0
 26 51  1  6
 26 52  1  0
 26 53  1  0
 27 28  1  0
 27 34  2  0
 28 29  1  0
 28 31  2  0
 29 30  2  0
 29 60  1  0
 30 54  1  0
 31 32  1  0
 31 55  1  0
 32 33  2  0
 32 56  1  0
 33 34  1  0
 33 57  1  0
 34 58  1  0
M  CHG  2  24   1  29   1
M  END
>  <s_epik_cmdline>  (1379) 
J2VwaWtfcHl0aG9uJywgJy1waCcsICc3LjAwMDAwMCcsICctcGh0JywgJzIuMDAwMDAwJywgJy1tcycsICcxNicsICctdG4nLCAnOCcsICctbWEnLCAnMjAwJywgJy1pbWFlJywgJzxpbmZpbGUubWFlPicsICctb21hZScsICc8b3V0ZmlsZS5tYWU+Jw==

>  <s_epik_input>  (1379) 
W2NIXTFbY0hdW2NIXVtjSF1jKGMxMiluW2NIXWMoW05IXUMoPU8pYyhjKGMzRilDI04pW2NIXVtjSF1bY0hdMyljMltOSF1bQ0gyXWM0W2NIXVtjSF1jKFtjSF1bY0hdNClbQ0gyXU4oW0NIM10pW0NIM10=

>  <s_i_glide_gridfile>  (1379) 
ATP-Grid

>  <s_lp_Force_Field>  (1379) 
OPLS_2005

>  <s_lp_Variant>  (1379) 
rxn502b____EMOL44385606____EMOL30488121____EMOL50155899-1

>  <s_lp_label>  (1379) 
2325_sdstereoexpander_1_neutralizer_1_epik_1_stereoizer_1

>  <s_m_source_file>  (1379) 
ATP-VSW-LIGPREP-003-in.maegz

>  <s_sd_BIOSOLVEIT.INFINISEE\_QUERY\_NAME>  (1379) 
Ref-Lig

>  <s_sd_BIOSOLVEIT.INFINISEE\_QUERY\_SMILES>  (1379) 
S(c1nc2c(cc1C[NH2+]Cc3ccc(cc3)C[NH+](C)C)cccc2)Cc4ccccc4

>  <s_sd_BIOSOLVEIT.INFINISEE\_REACTION\_NAME>  (1379) 
rxn502b

>  <s_sd_BIOSOLVEIT.INFINISEE\_REAGENT1\_NAME>  (1379) 
EMOL44385606

>  <s_sd_BIOSOLVEIT.INFINISEE\_REAGENT1\_SMILES>  (1379) 
Fc1c(C#N)c(ccc1)C(=O)O

>  <s_sd_BIOSOLVEIT.INFINISEE\_REAGENT2\_NAME>  (1379) 
EMOL30488121

>  <s_sd_BIOSOLVEIT.INFINISEE\_REAGENT2\_SMILES>  (1379) 
Brc1c(N)cnc2c1cccc2

>  <s_sd_BIOSOLVEIT.INFINISEE\_REAGENT3\_NAME>  (1379) 
EMOL50155899

>  <s_sd_BIOSOLVEIT.INFINISEE\_REAGENT3\_SMILES>  (1379) 
N(Cc1ccc(cc1)CN)(C)C

>  <s_sd_BIOSOLVEIT.INFINISEE\_SPACE>  (1379) 
eXplore_7tr_2022-12

>  <s_vsw_compound_code>  (1379) 
74371

>  <s_vsw_variant>  (1379) 
74371-1

>  <r_epik_Charging_Adjusted_Penalty>  (1379) 
0.25647285186621399

>  <r_epik_Ionization_Penalty>  (1379) 
0.1454

>  <r_epik_Ionization_Penalty_Charging>  (1379) 
0.1203

>  <r_epik_Ionization_Penalty_Neutral>  (1379) 
0.025100000000000001

>  <r_epik_State_Penalty>  (1379) 
0.13619999999999999

>  <r_i_docking_score>  (1379) 
-5.0105463117056201

>  <r_i_glide_ecoul>  (1379) 
-13.2996873855591

>  <r_i_glide_eff_state_penalty>  (1379) 
0.13619999999999999

>  <r_i_glide_einternal>  (1379) 
4.2568635940551802

>  <r_i_glide_emodel>  (1379) 
-60.469175230348

>  <r_i_glide_energy>  (1379) 
-41.556672096252399

>  <r_i_glide_erotb>  (1379) 
0.677712426113254

>  <r_i_glide_esite>  (1379) 
-0.182781668551593

>  <r_i_glide_evdw>  (1379) 
-28.256984710693398

>  <r_i_glide_gscore>  (1379) 
-5.1467463117056198

>  <r_i_glide_hbond>  (1379) 
-0.318258593687822

>  <r_i_glide_ligand_efficiency>  (1379) 
-0.14736900916781201

>  <r_i_glide_ligand_efficiency_ln>  (1379) 
-1.10697022131937

>  <r_i_glide_ligand_efficiency_sa>  (1379) 
-0.477418380681431

>  <r_i_glide_lipo>  (1379) 
-1.3037384442901401

>  <r_i_glide_metal>  (1379) 
-0

>  <r_i_glide_rewards>  (1379) 
-0.611877687920792

>  <r_lp_Energy>  (1379) 
44.338065999999998

>  <r_qp_ACxDN^.5/SA>  (1379) 
0.014542100000000001

>  <r_qp_CIQPlogS>  (1379) 
-6.4640000000000004

>  <r_qp_EA(eV)>  (1379) 
1.3069999999999999

>  <r_qp_FISA>  (1379) 
131.417

>  <r_qp_FOSA>  (1379) 
201.81399999999999

>  <r_qp_IP(eV)>  (1379) 
8.7050000000000001

>  <r_qp_Jm>  (1379) 
5.84327978126841e-05

>  <r_qp_PISA>  (1379) 
404.06999999999999

>  <r_qp_PSA>  (1379) 
86.123000000000005

>  <r_qp_PercentHumanOralAbsorption>  (1379) 
88.474999999999994

>  <r_qp_QPPCaco>  (1379) 
140.143

>  <r_qp_QPPMDCK>  (1379) 
109.319

>  <r_qp_QPlogBB>  (1379) 
-0.83099999999999996

>  <r_qp_QPlogHERG>  (1379) 
-7.6159999999999997

>  <r_qp_QPlogKhsa>  (1379) 
0.54200000000000004

>  <r_qp_QPlogKp>  (1379) 
-3.8130000000000002

>  <r_qp_QPlogPC16>  (1379) 
15.535

>  <r_qp_QPlogPo/w>  (1379) 
3.9470000000000001

>  <r_qp_QPlogPoct>  (1379) 
25.791

>  <r_qp_QPlogPw>  (1379) 
14.292999999999999

>  <r_qp_QPlogS>  (1379) 
-6.077

>  <r_qp_QPpolrz>  (1379) 
49.682000000000002

>  <r_qp_SASA>  (1379) 
777.995

>  <r_qp_SAamideO>  (1379) 
0

>  <r_qp_SAfluorine>  (1379) 
40.694000000000003

>  <r_qp_WPSA>  (1379) 
40.694000000000003

>  <r_qp_accptHB>  (1379) 
8

>  <r_qp_dip^2/V>  (1379) 
0.12571560000000001

>  <r_qp_dipole>  (1379) 
13.395

>  <r_qp_donorHB>  (1379) 
2

>  <r_qp_glob>  (1379) 
0.78794909999999996

>  <r_qp_mol_MW>  (1379) 
453.51799999999997

>  <r_qp_volume>  (1379) 
1427.133

>  <r_sd_BIOSOLVEIT.INFINISEE\_FTREES\_SIMILARITY>  (1379) 
0.92200000000000004

>  <r_sd_BIOSOLVEIT.LOGP>  (1379) 
3.75448

>  <r_sd_BIOSOLVEIT.MOLECULAR\_WEIGHT>  (1379) 
454.52699999999999

>  <r_sd_BIOSOLVEIT.TPSA>  (1379) 
82.25

>  <i_epik_Tot_Q>  (1379) 
2

>  <i_epik_Tot_abs_Q>  (1379) 
2

>  <i_f3d_flags>  (1379) 
0

>  <i_i_glide_confnum>  (1379) 
9

>  <i_i_glide_lignum>  (1379) 
963

>  <i_i_glide_posenum>  (1379) 
17

>  <i_i_glide_rotatable_bonds>  (1379) 
8

>  <i_lp_mmshare_version>  (1379) 
65135

>  <i_m_ct_format>  (1379) 
2

>  <i_m_source_file_index>  (1379) 
2325

>  <i_qp_#NandO>  (1379) 
6

>  <i_qp_#acid>  (1379) 
0

>  <i_qp_#amide>  (1379) 
0

>  <i_qp_#amidine>  (1379) 
0

>  <i_qp_#amine>  (1379) 
1

>  <i_qp_#in34>  (1379) 
0

>  <i_qp_#in56>  (1379) 
22

>  <i_qp_#metab>  (1379) 
6

>  <i_qp_#nonHatm>  (1379) 
34

>  <i_qp_#noncon>  (1379) 
0

>  <i_qp_#ringatoms>  (1379) 
22

>  <i_qp_#rotor>  (1379) 
8

>  <i_qp_#rtvFG>  (1379) 
0

>  <i_qp_#stars>  (1379) 
1

>  <i_qp_CNS>  (1379) 
0

>  <i_qp_HumanOralAbsorption>  (1379) 
3

>  <i_qp_RuleOfFive>  (1379) 
0

>  <i_qp_RuleOfThree>  (1379) 
1

>  <i_sd_BIOSOLVEIT.INFINISEE\_RESULT\_RANK>  (1379) 
13590

>  <i_sd_version>  (1379) 
0

>  <b_lp_Chiralities_Consistent>  (1379) 
1

>  <b_sd_chiral_flag>  (1379) 
0

>  <canonical_id>  (1379) 
ATP-HTVS-D9159AF95984

>  <compound_code>  (1379) 
74371

>  <title>  (1379) 
rxn502b____EMOL44385606____EMOL30488121____EMOL50155899

>  <variant>  (1379) 
74371-1

>  <source_file>  (1379) 
运行/运行/ATP-VSW/ATP-VSW-DOCK_HTVS_1-003_lib/ATP-VSW-DOCK_HTVS_1-003_lib.mae

>  <canonical_smiles>  (1379) 
C[NH+](C)Cc1ccc(CNc2c(NC(=O)c3cccc(F)c3C#N)c[nH+]c3ccccc23)cc1

>  <scaffold>  (1379) 
O=C(Nc1c[nH+]c2ccccc2c1NCc1ccccc1)c1ccccc1

>  <molecular_formula>  (1379) 
C27H26FN5O+2

$$$$
ATP-HTVS-D925B2862DC5
     RDKit          3D

 56 60  0  0  0  0  0  0  0  0999 V2000
  196.2500  188.0926  160.8296 F   0  0  0  0  0  0  0  0  0  0  0  0
  195.9633  186.8603  160.3509 C   0  0  0  0  0  0  0  0  0  0  0  0
  196.8903  186.1899  159.5397 C   0  0  0  0  0  0  0  0  0  0  0  0
  196.5992  184.9155  159.0120 C   0  0  0  0  0  0  0  0  0  0  0  0
  195.3579  184.2820  159.3282 C   0  0  0  0  0  0  0  0  0  0  0  0
  195.0356  183.0609  158.8706 N   0  0  0  0  0  0  0  0  0  0  0  0
  195.8984  182.4297  158.0475 C   0  0  0  0  0  0  0  0  0  0  0  0
  197.1338  182.9830  157.6214 C   0  0  0  0  0  0  0  0  0  0  0  0
  197.5140  184.2482  158.1479 C   0  0  0  0  0  0  0  0  0  0  0  0
  198.7442  184.8778  157.8313 N   0  0  0  0  0  0  0  0  0  0  0  0
  199.9522  184.7033  158.5618 C   0  0  0  0  0  0  0  0  0  0  0  0
  201.1678  185.3522  158.2040 C   0  0  0  0  0  0  0  0  0  0  0  0
  202.3393  185.1655  158.9649 C   0  0  0  0  0  0  0  0  0  0  0  0
  202.3373  184.3328  160.1011 C   0  0  0  0  0  0  0  0  0  0  0  0
  201.1517  183.6681  160.4629 C   0  0  0  0  0  0  0  0  0  0  0  0
  199.9762  183.8485  159.6998 C   0  0  0  0  0  0  0  0  0  0  0  0
  198.7224  185.5624  156.5243 C   0  0  1  0  0  0  0  0  0  0  0  0
  197.7065  186.6284  156.5103 C   0  0  0  0  0  0  0  0  0  0  0  0
  196.9097  187.4679  156.5173 N   0  0  0  0  0  0  0  0  0  0  0  0
  198.0026  182.2065  156.6564 C   0  0  0  0  0  0  0  0  0  0  0  0
  199.2173  182.3924  156.5634 O   0  0  0  0  0  0  0  0  0  0  0  0
  197.3753  181.3218  155.8661 N   0  0  0  0  0  0  0  0  0  0  0  0
  198.0359  180.5568  154.8072 C   0  0  1  0  0  0  0  0  0  0  0  0
  198.9827  179.4450  155.2569 C   0  0  0  0  0  0  0  0  0  0  0  0
  199.4153  178.4726  154.3163 C   0  0  0  0  0  0  0  0  0  0  0  0
  200.2904  177.4673  154.7483 C   0  0  0  0  0  0  0  0  0  0  0  0
  200.7518  177.4033  156.0549 C   0  0  0  0  0  0  0  0  0  0  0  0
  201.6039  176.3275  156.3051 N   0  0  0  0  0  0  0  0  0  0  0  0
  201.8190  175.7047  154.9992 C   0  0  1  0  0  0  0  0  0  0  0  0
  200.8812  176.3497  153.9581 C   0  0  1  0  0  0  0  0  0  0  0  0
  200.3643  178.3644  156.9942 C   0  0  0  0  0  0  0  0  0  0  0  0
  199.4687  179.3580  156.6002 C   0  0  0  0  0  0  0  0  0  0  0  0
  194.4444  184.9685  160.1329 C   0  0  0  0  0  0  0  0  0  0  0  0
  194.7373  186.2481  160.6549 C   0  0  0  0  0  0  0  0  0  0  0  0
  197.8168  186.6945  159.3046 H   0  0  0  0  0  0  0  0  0  0  0  0
  195.5603  181.4493  157.7279 H   0  0  0  0  0  0  0  0  0  0  0  0
  201.2416  186.0072  157.3490 H   0  0  0  0  0  0  0  0  0  0  0  0
  203.2455  185.6772  158.6767 H   0  0  0  0  0  0  0  0  0  0  0  0
  203.2390  184.2088  160.6886 H   0  0  0  0  0  0  0  0  0  0  0  0
  201.1458  183.0300  161.3386 H   0  0  0  0  0  0  0  0  0  0  0  0
  199.0879  183.3176  160.0120 H   0  0  0  0  0  0  0  0  0  0  0  0
  199.6506  186.0506  156.2477 H   0  0  0  0  0  0  0  0  0  0  0  0
  198.4898  184.8346  155.7355 H   0  0  0  0  0  0  0  0  0  0  0  0
  196.3859  181.1800  155.9978 H   0  0  0  0  0  0  0  0  0  0  0  0
  197.2380  180.1360  154.2003 H   0  0  0  0  0  0  0  0  0  0  0  0
  198.5748  181.2500  154.1571 H   0  0  0  0  0  0  0  0  0  0  0  0
  199.0501  178.5112  153.2963 H   0  0  0  0  0  0  0  0  0  0  0  0
  202.4074  176.5259  156.8853 H   0  0  0  0  0  0  0  0  0  0  0  0
  202.8638  175.8679  154.7195 H   0  0  0  0  0  0  0  0  0  0  0  0
  201.6373  174.6300  155.0797 H   0  0  0  0  0  0  0  0  0  0  0  0
  200.0872  175.6803  153.6348 H   0  0  0  0  0  0  0  0  0  0  0  0
  201.4074  176.7361  153.0850 H   0  0  0  0  0  0  0  0  0  0  0  0
  200.7388  178.3349  158.0055 H   0  0  0  0  0  0  0  0  0  0  0  0
  199.1404  180.0481  157.3741 H   0  0  0  0  0  0  0  0  0  0  0  0
  193.4969  184.4971  160.3591 H   0  0  0  0  0  0  0  0  0  0  0  0
  194.0261  186.7548  161.2855 H   0  0  0  0  0  0  0  0  0  0  0  0
  1  2  1  0
  2  3  1  0
  2 34  2  0
  3  4  2  0
  3 35  1  0
  4  5  1  0
  4  9  1  0
  5  6  1  0
  5 33  2  0
  6  7  2  0
  7  8  1  0
  7 36  1  0
  8  9  2  0
  8 20  1  0
  9 10  1  0
 10 11  1  0
 10 17  1  0
 11 12  2  0
 11 16  1  0
 12 13  1  0
 12 37  1  0
 13 14  2  0
 13 38  1  0
 14 15  1  0
 14 39  1  0
 15 16  2  0
 15 40  1  0
 16 41  1  0
 17 18  1  0
 17 42  1  6
 17 43  1  0
 18 19  3  0
 20 21  2  0
 20 22  1  0
 22 23  1  0
 22 44  1  0
 23 24  1  0
 23 45  1  6
 23 46  1  0
 24 25  2  0
 24 32  1  0
 25 26  1  0
 25 47  1  0
 26 27  2  0
 26 30  1  0
 27 28  1  0
 27 31  1  0
 28 29  1  0
 28 48  1  0
 29 30  1  0
 29 49  1  6
 29 50  1  0
 30 51  1  6
 30 52  1  0
 31 32  2  0
 31 53  1  0
 32 54  1  0
 33 34  1  0
 33 55  1  0
 34 56  1  0
M  END
>  <s_epik_cmdline>  (1380) 
J2VwaWtfcHl0aG9uJywgJy1waCcsICc3LjAwMDAwMCcsICctcGh0JywgJzIuMDAwMDAwJywgJy1tcycsICcxNicsICctdG4nLCAnOCcsICctbWEnLCAnMjAwJywgJy1pbWFlJywgJzxpbmZpbGUubWFlPicsICctb21hZScsICc8b3V0ZmlsZS5tYWU+Jw==

>  <s_epik_input>  (1380) 
W2NIXTFbY0hdW2NIXVtjSF1bY0hdYzFOKFtDSDJdQyNOKWMyYyhbY0hdbmMoYzIzKVtjSF1bY0hdYyhGKVtjSF0zKUMoPU8pW05IXVtDSDJdYyhbY0hdNClbY0hdW2NIXWMoYzQ1KVtOSF1bQ0gyXVtDSDJdNQ==

>  <s_i_glide_gridfile>  (1380) 
ATP-Grid

>  <s_lp_Force_Field>  (1380) 
OPLS_2005

>  <s_lp_Variant>  (1380) 
rxn512c____EMOL712348____EMOL36725275____EMOL31531512-1

>  <s_lp_label>  (1380) 
2860_sdstereoexpander_1_neutralizer_1_epik_1_stereoizer_1

>  <s_m_source_file>  (1380) 
ATP-VSW-LIGPREP-003-in.maegz

>  <s_sd_BIOSOLVEIT.INFINISEE\_QUERY\_NAME>  (1380) 
Ref-Lig

>  <s_sd_BIOSOLVEIT.INFINISEE\_QUERY\_SMILES>  (1380) 
S(c1nc2c(cc1C[NH2+]Cc3ccc(cc3)C[NH+](C)C)cccc2)Cc4ccccc4

>  <s_sd_BIOSOLVEIT.INFINISEE\_REACTION\_NAME>  (1380) 
rxn512c

>  <s_sd_BIOSOLVEIT.INFINISEE\_REAGENT1\_NAME>  (1380) 
EMOL712348

>  <s_sd_BIOSOLVEIT.INFINISEE\_REAGENT1\_SMILES>  (1380) 
N#CCNc1ccccc1

>  <s_sd_BIOSOLVEIT.INFINISEE\_REAGENT2\_NAME>  (1380) 
EMOL36725275

>  <s_sd_BIOSOLVEIT.INFINISEE\_REAGENT2\_SMILES>  (1380) 
Clc1c2c(ncc1C(=O)O)ccc(F)c2

>  <s_sd_BIOSOLVEIT.INFINISEE\_REAGENT3\_NAME>  (1380) 
EMOL31531512

>  <s_sd_BIOSOLVEIT.INFINISEE\_REAGENT3\_SMILES>  (1380) 
N1c2c(cc(cc2)CN)CC1

>  <s_sd_BIOSOLVEIT.INFINISEE\_SPACE>  (1380) 
eXplore_7tr_2022-12

>  <s_vsw_compound_code>  (1380) 
91491

>  <s_vsw_variant>  (1380) 
91491-1

>  <r_epik_Charging_Adjusted_Penalty>  (1380) 
0

>  <r_epik_Ionization_Penalty>  (1380) 
0.0054000000000000003

>  <r_epik_Ionization_Penalty_Charging>  (1380) 
0

>  <r_epik_Ionization_Penalty_Neutral>  (1380) 
0.0054000000000000003

>  <r_epik_State_Penalty>  (1380) 
-0

>  <r_i_docking_score>  (1380) 
-4.6924240837626803

>  <r_i_glide_ecoul>  (1380) 
-2.8616960048675502

>  <r_i_glide_eff_state_penalty>  (1380) 
-0

>  <r_i_glide_einternal>  (1380) 
2.18757891654968

>  <r_i_glide_emodel>  (1380) 
-56.044589598568997

>  <r_i_glide_energy>  (1380) 
-43.628198385238598

>  <r_i_glide_erotb>  (1380) 
0.491973566375981

>  <r_i_glide_esite>  (1380) 
-0.080027987917604598

>  <r_i_glide_evdw>  (1380) 
-40.766502380371101

>  <r_i_glide_gscore>  (1380) 
-4.6924240837626803

>  <r_i_glide_hbond>  (1380) 
-0.201799252455551

>  <r_i_glide_ligand_efficiency>  (1380) 
-0.138012473051844

>  <r_i_glide_ligand_efficiency_ln>  (1380) 
-1.03668809814053

>  <r_i_glide_ligand_efficiency_sa>  (1380) 
-0.44710683589668998

>  <r_i_glide_lipo>  (1380) 
-1.73001788918888

>  <r_i_glide_metal>  (1380) 
-0

>  <r_i_glide_rewards>  (1380) 
-0.70497300082794401

>  <r_lp_Energy>  (1380) 
44.065176000000001

>  <r_lp_tautomer_probability>  (1380) 
1

>  <r_qp_ACxDN^.5/SA>  (1380) 
0.012319800000000001

>  <r_qp_CIQPlogS>  (1380) 
-7.0549999999999997

>  <r_qp_EA(eV)>  (1380) 
1.6679999999999999

>  <r_qp_FISA>  (1380) 
115.191

>  <r_qp_FOSA>  (1380) 
177.70099999999999

>  <r_qp_IP(eV)>  (1380) 
8.2189999999999994

>  <r_qp_Jm>  (1380) 
6.7009808232750605e-05

>  <r_qp_PISA>  (1380) 
406.339

>  <r_qp_PSA>  (1380) 
84.310000000000002

>  <r_qp_PercentHumanOralAbsorption>  (1380) 
93.713999999999999

>  <r_qp_QPPCaco>  (1380) 
199.73099999999999

>  <r_qp_QPPMDCK>  (1380) 
173.417

>  <r_qp_QPlogBB>  (1380) 
-0.54100000000000004

>  <r_qp_QPlogHERG>  (1380) 
-7.415

>  <r_qp_QPlogKhsa>  (1380) 
0.73599999999999999

>  <r_qp_QPlogKp>  (1380) 
-3.6019999999999999

>  <r_qp_QPlogPC16>  (1380) 
14.851000000000001

>  <r_qp_QPlogPo/w>  (1380) 
4.3710000000000004

>  <r_qp_QPlogPoct>  (1380) 
23.164000000000001

>  <r_qp_QPlogPw>  (1380) 
12.866

>  <r_qp_QPlogS>  (1380) 
-6.2270000000000003

>  <r_qp_QPpolrz>  (1380) 
48.222000000000001

>  <r_qp_SASA>  (1380) 
746.14499999999998

>  <r_qp_SAamideO>  (1380) 
0

>  <r_qp_SAfluorine>  (1380) 
46.914000000000001

>  <r_qp_WPSA>  (1380) 
46.914000000000001

>  <r_qp_accptHB>  (1380) 
6.5

>  <r_qp_dip^2/V>  (1380) 
0.028150399999999999

>  <r_qp_dipole>  (1380) 
6.2190000000000003

>  <r_qp_donorHB>  (1380) 
2

>  <r_qp_glob>  (1380) 
0.80109319999999995

>  <r_qp_mol_MW>  (1380) 
451.50200000000001

>  <r_qp_volume>  (1380) 
1374.079

>  <r_sd_BIOSOLVEIT.INFINISEE\_FTREES\_SIMILARITY>  (1380) 
0.90500000000000003

>  <r_sd_BIOSOLVEIT.LOGP>  (1380) 
4.9335800000000001

>  <r_sd_BIOSOLVEIT.MOLECULAR\_WEIGHT>  (1380) 
451.50299999999999

>  <r_sd_BIOSOLVEIT.TPSA>  (1380) 
81.049999999999997

>  <i_epik_Tot_Q>  (1380) 
0

>  <i_epik_Tot_abs_Q>  (1380) 
0

>  <i_f3d_flags>  (1380) 
0

>  <i_i_glide_confnum>  (1380) 
2

>  <i_i_glide_lignum>  (1380) 
1381

>  <i_i_glide_posenum>  (1380) 
10

>  <i_i_glide_rotatable_bonds>  (1380) 
7

>  <i_lp_mmshare_version>  (1380) 
65135

>  <i_m_ct_format>  (1380) 
2

>  <i_m_source_file_index>  (1380) 
2860

>  <i_qp_#NandO>  (1380) 
6

>  <i_qp_#acid>  (1380) 
0

>  <i_qp_#amide>  (1380) 
0

>  <i_qp_#amidine>  (1380) 
0

>  <i_qp_#amine>  (1380) 
1

>  <i_qp_#in34>  (1380) 
0

>  <i_qp_#in56>  (1380) 
25

>  <i_qp_#metab>  (1380) 
6

>  <i_qp_#nonHatm>  (1380) 
34

>  <i_qp_#noncon>  (1380) 
2

>  <i_qp_#ringatoms>  (1380) 
25

>  <i_qp_#rotor>  (1380) 
7

>  <i_qp_#rtvFG>  (1380) 
0

>  <i_qp_#stars>  (1380) 
0

>  <i_qp_CNS>  (1380) 
1

>  <i_qp_HumanOralAbsorption>  (1380) 
1

>  <i_qp_RuleOfFive>  (1380) 
0

>  <i_qp_RuleOfThree>  (1380) 
1

>  <i_sd_BIOSOLVEIT.INFINISEE\_RESULT\_RANK>  (1380) 
70114

>  <i_sd_version>  (1380) 
0

>  <b_lp_Chiralities_Consistent>  (1380) 
1

>  <b_sd_chiral_flag>  (1380) 
0

>  <canonical_id>  (1380) 
ATP-HTVS-D925B2862DC5

>  <compound_code>  (1380) 
91491

>  <title>  (1380) 
rxn512c____EMOL712348____EMOL36725275____EMOL31531512

>  <variant>  (1380) 
91491-1

>  <source_file>  (1380) 
运行/运行/ATP-VSW/ATP-VSW-DOCK_HTVS_1-003_lib/ATP-VSW-DOCK_HTVS_1-003_lib.mae

>  <canonical_smiles>  (1380) 
N#CCN(c1ccccc1)c1c(C(=O)NCc2ccc3c(c2)CCN3)cnc2ccc(F)cc12

>  <scaffold>  (1380) 
O=C(NCc1ccc2c(c1)CCN2)c1cnc2ccccc2c1Nc1ccccc1

>  <molecular_formula>  (1380) 
C27H22FN5O

$$$$
ATP-HTVS-D928A6F83D7E
     RDKit          3D

 54 56  0  0  0  0  0  0  0  0999 V2000
  203.8515  185.5850  159.4264 Cl  0  0  0  0  0  0  0  0  0  0  0  0
  202.6963  184.5612  158.6729 C   0  0  0  0  0  0  0  0  0  0  0  0
  203.1049  182.8756  158.4879 S   0  0  0  0  0  0  0  0  0  0  0  0
  201.5910  182.5544  157.6998 C   0  0  0  0  0  0  0  0  0  0  0  0
  201.2212  181.1721  157.3447 C   0  0  0  0  0  0  0  0  0  0  0  0
  201.9725  180.2521  157.6278 O   0  0  0  0  0  0  0  0  0  0  0  0
  199.9979  181.0035  156.7522 N   0  0  0  0  0  0  0  0  0  0  0  0
  199.3169  179.7450  156.4047 C   0  0  1  0  0  0  0  0  0  0  0  0
  198.2510  179.9289  155.3985 C   0  0  0  0  0  0  0  0  0  0  0  0
  197.4151  180.0553  154.6062 N   0  0  0  0  0  0  0  0  0  0  0  0
  200.2571  178.6377  155.9570 C   0  0  0  0  0  0  0  0  0  0  0  0
  200.2464  177.3779  156.5966 C   0  0  0  0  0  0  0  0  0  0  0  0
  201.1916  176.3894  156.2434 C   0  0  0  0  0  0  0  0  0  0  0  0
  202.1534  176.6601  155.2558 C   0  0  0  0  0  0  0  0  0  0  0  0
  203.0874  175.7347  154.9407 F   0  0  0  0  0  0  0  0  0  0  0  0
  202.1677  177.9157  154.6147 C   0  0  0  0  0  0  0  0  0  0  0  0
  201.2102  178.8913  154.9482 C   0  0  0  0  0  0  0  0  0  0  0  0
  200.8468  183.6896  157.5412 C   0  0  0  0  0  0  0  0  0  0  0  0
  201.4400  184.8419  158.1913 C   0  0  0  0  0  0  0  0  0  0  0  0
  200.7747  186.0910  158.3053 N   0  0  0  0  0  0  0  0  0  0  0  0
  199.4465  186.4757  157.8152 C   0  0  1  0  0  0  0  0  0  0  0  0
  198.3839  185.4167  157.9618 C   0  0  0  0  0  0  0  0  0  0  0  0
  197.8175  184.8081  156.8032 C   0  0  0  0  0  0  0  0  0  0  0  0
  197.0037  183.6809  156.9460 C   0  0  0  0  0  0  0  0  0  0  0  0
  196.6652  183.1806  158.2348 C   0  0  0  0  0  0  0  0  0  0  0  0
  197.1904  183.8126  159.3709 C   0  0  0  0  0  0  0  0  0  0  0  0
  198.0482  184.9266  159.2253 C   0  0  0  0  0  0  0  0  0  0  0  0
  195.7386  181.9912  158.3751 C   0  0  1  0  0  0  0  0  0  0  0  0
  194.3223  182.3898  158.2150 N   0  0  2  0  0  0  0  0  0  0  0  0
  193.9034  183.6108  158.9152 C   0  0  2  0  0  0  0  0  0  0  0  0
  193.3843  181.2604  158.3361 C   0  0  2  0  0  0  0  0  0  0  0  0
  199.3990  181.8094  156.6421 H   0  0  0  0  0  0  0  0  0  0  0  0
  198.7919  179.4503  157.3126 H   0  0  0  0  0  0  0  0  0  0  0  0
  199.5473  177.1802  157.4075 H   0  0  0  0  0  0  0  0  0  0  0  0
  201.2004  175.4469  156.7653 H   0  0  0  0  0  0  0  0  0  0  0  0
  202.9525  178.1564  153.9058 H   0  0  0  0  0  0  0  0  0  0  0  0
  201.2581  179.8664  154.4939 H   0  0  0  0  0  0  0  0  0  0  0  0
  199.8831  183.6936  157.0410 H   0  0  0  0  0  0  0  0  0  0  0  0
  201.2682  186.8086  158.8142 H   0  0  0  0  0  0  0  0  0  0  0  0
  199.1354  187.3818  158.3610 H   0  0  0  0  0  0  0  0  0  0  0  0
  199.5188  186.7957  156.7757 H   0  0  0  0  0  0  0  0  0  0  0  0
  198.0628  185.1696  155.8298 H   0  0  0  0  0  0  0  0  0  0  0  0
  196.6379  183.1584  156.0568 H   0  0  0  0  0  0  0  0  0  0  0  0
  197.0043  183.4080  160.3522 H   0  0  0  0  0  0  0  0  0  0  0  0
  198.5112  185.3624  160.1135 H   0  0  0  0  0  0  0  0  0  0  0  0
  196.0171  181.2526  157.6157 H   0  0  0  0  0  0  0  0  0  0  0  0
  195.8796  181.5291  159.3470 H   0  0  0  0  0  0  0  0  0  0  0  0
  194.0205  183.4818  159.9910 H   0  0  0  0  0  0  0  0  0  0  0  0
  192.8602  183.8531  158.6951 H   0  0  0  0  0  0  0  0  0  0  0  0
  194.4800  184.4896  158.6197 H   0  0  0  0  0  0  0  0  0  0  0  0
  193.4009  180.8826  159.3521 H   0  0  0  0  0  0  0  0  0  0  0  0
  193.6481  180.4342  157.6728 H   0  0  0  0  0  0  0  0  0  0  0  0
  192.3712  181.5650  158.0773 H   0  0  0  0  0  0  0  0  0  0  0  0
  194.2237  182.6303  157.1995 H   0  0  0  0  0  0  0  0  0  0  0  0
  1  2  1  0
  2  3  1  0
  2 19  2  0
  3  4  1  0
  4  5  1  0
  4 18  2  0
  5  6  2  0
  5  7  1  0
  7  8  1  0
  7 32  1  0
  8  9  1  0
  8 11  1  0
  8 33  1  1
  9 10  3  0
 11 12  1  0
 11 17  2  0
 12 13  2  0
 12 34  1  0
 13 14  1  0
 13 35  1  0
 14 15  1  0
 14 16  2  0
 16 17  1  0
 16 36  1  0
 17 37  1  0
 18 19  1  0
 18 38  1  0
 19 20  1  0
 20 21  1  0
 20 39  1  0
 21 22  1  0
 21 40  1  1
 21 41  1  0
 22 23  1  0
 22 27  2  0
 23 24  2  0
 23 42  1  0
 24 25  1  0
 24 43  1  0
 25 26  2  0
 25 28  1  0
 26 27  1  0
 26 44  1  0
 27 45  1  0
 28 29  1  0
 28 46  1  6
 28 47  1  0
 29 30  1  0
 29 31  1  0
 29 54  1  6
 30 48  1  1
 30 49  1  0
 30 50  1  0
 31 51  1  1
 31 52  1  0
 31 53  1  0
M  CHG  1  29   1
M  END
>  <s_epik_cmdline>  (1381) 
J2VwaWtfcHl0aG9uJywgJy1waCcsICc3LjAwMDAwMCcsICctcGh0JywgJzIuMDAwMDAwJywgJy1tcycsICcxNicsICctdG4nLCAnOCcsICctbWEnLCAnMjAwJywgJy1pbWFlJywgJzxpbmZpbGUubWFlPicsICctb21hZScsICc8b3V0ZmlsZS5tYWU+Jw==

>  <s_epik_input>  (1381) 
W2NIXTFbY0hdYyhGKVtjSF1bY0hdYzFbQ0BIXShDI04pW05IXUMoPU8pYyhzYzJDbClbY0hdYzJbTkhdW0NIMl1jM1tjSF1bY0hdYyhbY0hdW2NIXTMpW0NIMl1OKFtDSDNdKVtDSDNd

>  <s_i_glide_gridfile>  (1381) 
ATP-Grid

>  <s_lp_Force_Field>  (1381) 
OPLS_2005

>  <s_lp_Variant>  (1381) 
rxn512b____EMOL906257____EMOL44846536____EMOL50155899-1

>  <s_lp_label>  (1381) 
2922_sdstereoexpander_1_neutralizer_1_epik_1_stereoizer_1

>  <s_m_source_file>  (1381) 
ATP-VSW-LIGPREP-001-in.maegz

>  <s_sd_BIOSOLVEIT.INFINISEE\_QUERY\_NAME>  (1381) 
Ref-Lig

>  <s_sd_BIOSOLVEIT.INFINISEE\_QUERY\_SMILES>  (1381) 
S(c1nc2c(cc1C[NH2+]Cc3ccc(cc3)C[NH+](C)C)cccc2)Cc4ccccc4

>  <s_sd_BIOSOLVEIT.INFINISEE\_REACTION\_NAME>  (1381) 
rxn512b

>  <s_sd_BIOSOLVEIT.INFINISEE\_REAGENT1\_NAME>  (1381) 
EMOL906257

>  <s_sd_BIOSOLVEIT.INFINISEE\_REAGENT1\_SMILES>  (1381) 
Fc1ccc(cc1)C(N)C#N

>  <s_sd_BIOSOLVEIT.INFINISEE\_REAGENT2\_NAME>  (1381) 
EMOL44846536

>  <s_sd_BIOSOLVEIT.INFINISEE\_REAGENT2\_SMILES>  (1381) 
BrC1=C(Cl)SC(C(=O)O)=C1

>  <s_sd_BIOSOLVEIT.INFINISEE\_REAGENT3\_NAME>  (1381) 
EMOL50155899

>  <s_sd_BIOSOLVEIT.INFINISEE\_REAGENT3\_SMILES>  (1381) 
N(Cc1ccc(cc1)CN)(C)C

>  <s_sd_BIOSOLVEIT.INFINISEE\_SPACE>  (1381) 
eXplore_7tr_2022-12

>  <s_vsw_compound_code>  (1381) 
93473

>  <s_vsw_variant>  (1381) 
93473-1

>  <r_epik_Charging_Adjusted_Penalty>  (1381) 
0.080189274810459593

>  <r_epik_Ionization_Penalty>  (1381) 
0.040300000000000002

>  <r_epik_Ionization_Penalty_Charging>  (1381) 
0.040099999999999997

>  <r_epik_Ionization_Penalty_Neutral>  (1381) 
0.00020000000000000001

>  <r_epik_State_Penalty>  (1381) 
0.040099999999999997

>  <r_i_docking_score>  (1381) 
-3.60796794272557

>  <r_i_glide_ecoul>  (1381) 
-9.3505764007568395

>  <r_i_glide_eff_state_penalty>  (1381) 
0.040099999999999997

>  <r_i_glide_einternal>  (1381) 
3.2007322311401398

>  <r_i_glide_emodel>  (1381) 
-53.254852079149899

>  <r_i_glide_energy>  (1381) 
-40.983375549316399

>  <r_i_glide_erotb>  (1381) 
0.67113942638989199

>  <r_i_glide_esite>  (1381) 
-0.17445206541340699

>  <r_i_glide_evdw>  (1381) 
-31.632799148559599

>  <r_i_glide_gscore>  (1381) 
-3.6480679427255698

>  <r_i_glide_hbond>  (1381) 
-0.20000000000000001

>  <r_i_glide_ligand_efficiency>  (1381) 
-0.11638606266856701

>  <r_i_glide_ligand_efficiency_ln>  (1381) 
-0.813707342022993

>  <r_i_glide_ligand_efficiency_sa>  (1381) 
-0.36561292505654402

>  <r_i_glide_lipo>  (1381) 
-0.59725771059779798

>  <r_i_glide_metal>  (1381) 
-0

>  <r_i_glide_rewards>  (1381) 
-0.36327117556275001

>  <r_lp_Energy>  (1381) 
13.050025

>  <r_lp_tautomer_probability>  (1381) 
0.99999274205267796

>  <r_qp_ACxDN^.5/SA>  (1381) 
0.01304

>  <r_qp_CIQPlogS>  (1381) 
-5.5730000000000004

>  <r_qp_EA(eV)>  (1381) 
0.98099999999999998

>  <r_qp_FISA>  (1381) 
110.995

>  <r_qp_FOSA>  (1381) 
219.04400000000001

>  <r_qp_IP(eV)>  (1381) 
8.5150000000000006

>  <r_qp_Jm>  (1381) 
3.8774629876252097e-06

>  <r_qp_PISA>  (1381) 
274.017

>  <r_qp_PSA>  (1381) 
79.703000000000003

>  <r_qp_PercentHumanOralAbsorption>  (1381) 
81.953000000000003

>  <r_qp_QPPCaco>  (1381) 
54.591999999999999

>  <r_qp_QPPMDCK>  (1381) 
184.83500000000001

>  <r_qp_QPlogBB>  (1381) 
0.034000000000000002

>  <r_qp_QPlogHERG>  (1381) 
-7.5759999999999996

>  <r_qp_QPlogKhsa>  (1381) 
0.622

>  <r_qp_QPlogKp>  (1381) 
-5.8609999999999998

>  <r_qp_QPlogPC16>  (1381) 
14.898

>  <r_qp_QPlogPo/w>  (1381) 
4.085

>  <r_qp_QPlogPoct>  (1381) 
23.044

>  <r_qp_QPlogPw>  (1381) 
12.058

>  <r_qp_QPlogS>  (1381) 
-5.21

>  <r_qp_QPpolrz>  (1381) 
46.686

>  <r_qp_SASA>  (1381) 
759.16499999999996

>  <r_qp_SAamideO>  (1381) 
0

>  <r_qp_SAfluorine>  (1381) 
47.030000000000001

>  <r_qp_WPSA>  (1381) 
155.108

>  <r_qp_accptHB>  (1381) 
7

>  <r_qp_dip^2/V>  (1381) 
0.022507300000000001

>  <r_qp_dipole>  (1381) 
5.6120000000000001

>  <r_qp_donorHB>  (1381) 
2

>  <r_qp_glob>  (1381) 
0.79698290000000005

>  <r_qp_mol_MW>  (1381) 
456.964

>  <r_qp_volume>  (1381) 
1399.3610000000001

>  <r_sd_BIOSOLVEIT.INFINISEE\_FTREES\_SIMILARITY>  (1381) 
0.90400000000000003

>  <r_sd_BIOSOLVEIT.LOGP>  (1381) 
3.7918799999999999

>  <r_sd_BIOSOLVEIT.MOLECULAR\_WEIGHT>  (1381) 
457.97800000000001

>  <r_sd_BIOSOLVEIT.TPSA>  (1381) 
69.359999999999999

>  <i_epik_Tot_Q>  (1381) 
1

>  <i_epik_Tot_abs_Q>  (1381) 
1

>  <i_f3d_flags>  (1381) 
0

>  <i_i_glide_confnum>  (1381) 
8

>  <i_i_glide_lignum>  (1381) 
1360

>  <i_i_glide_posenum>  (1381) 
14

>  <i_i_glide_rotatable_bonds>  (1381) 
9

>  <i_lp_mmshare_version>  (1381) 
65135

>  <i_m_ct_format>  (1381) 
2

>  <i_m_source_file_index>  (1381) 
2922

>  <i_qp_#NandO>  (1381) 
5

>  <i_qp_#acid>  (1381) 
0

>  <i_qp_#amide>  (1381) 
0

>  <i_qp_#amidine>  (1381) 
0

>  <i_qp_#amine>  (1381) 
2

>  <i_qp_#in34>  (1381) 
0

>  <i_qp_#in56>  (1381) 
17

>  <i_qp_#metab>  (1381) 
6

>  <i_qp_#nonHatm>  (1381) 
31

>  <i_qp_#noncon>  (1381) 
0

>  <i_qp_#ringatoms>  (1381) 
17

>  <i_qp_#rotor>  (1381) 
9

>  <i_qp_#rtvFG>  (1381) 
0

>  <i_qp_#stars>  (1381) 
0

>  <i_qp_CNS>  (1381) 
1

>  <i_qp_HumanOralAbsorption>  (1381) 
3

>  <i_qp_RuleOfFive>  (1381) 
0

>  <i_qp_RuleOfThree>  (1381) 
0

>  <i_sd_BIOSOLVEIT.INFINISEE\_RESULT\_RANK>  (1381) 
77235

>  <i_sd_version>  (1381) 
0

>  <b_lp_Chiralities_Consistent>  (1381) 
1

>  <b_sd_chiral_flag>  (1381) 
0

>  <canonical_id>  (1381) 
ATP-HTVS-D928A6F83D7E

>  <compound_code>  (1381) 
93473

>  <title>  (1381) 
rxn512b____EMOL906257____EMOL44846536____EMOL50155899

>  <variant>  (1381) 
93473-1

>  <source_file>  (1381) 
运行/运行/ATP-VSW/ATP-VSW-DOCK_HTVS_1-001_lib/ATP-VSW-DOCK_HTVS_1-001_lib

>  <canonical_smiles>  (1381) 
C[NH+](C)Cc1ccc(CNc2cc(C(=O)N[C@@H](C#N)c3ccc(F)cc3)sc2Cl)cc1

>  <scaffold>  (1381) 
O=C(NCc1ccccc1)c1cc(NCc2ccccc2)cs1

>  <molecular_formula>  (1381) 
C23H23ClFN4OS+

$$$$
ATP-HTVS-D93071962BA3
     RDKit          3D

 45 48  0  0  0  0  0  0  0  0999 V2000
  196.8445  181.3234  150.9949 Br  0  0  0  0  0  0  0  0  0  0  0  0
  197.3911  183.1476  150.8453 C   0  0  0  0  0  0  0  0  0  0  0  0
  198.2089  183.8231  151.7935 C   0  0  0  0  0  0  0  0  0  0  0  0
  198.6105  185.1409  151.5662 C   0  0  0  0  0  0  0  0  0  0  0  0
  199.6472  185.9939  152.6763 Cl  0  0  0  0  0  0  0  0  0  0  0  0
  198.2009  185.8082  150.3972 C   0  0  0  0  0  0  0  0  0  0  0  0
  197.3745  185.1543  149.4596 C   0  0  0  0  0  0  0  0  0  0  0  0
  196.9760  183.8259  149.6859 C   0  0  0  0  0  0  0  0  0  0  0  0
  198.7504  183.1691  152.9950 C   0  0  1  0  0  0  0  0  0  0  0  0
  197.9925  183.2566  154.2588 N   0  0  0  0  0  0  0  0  0  0  0  0
  198.8695  183.0612  155.4184 C   0  0  1  0  0  0  0  0  0  0  0  0
  198.1096  183.1993  156.7591 C   0  0  0  0  0  0  0  0  0  0  0  0
  197.2254  182.1750  157.1704 C   0  0  0  0  0  0  0  0  0  0  0  0
  196.9482  181.0597  156.3577 N   0  0  0  0  0  0  0  0  0  0  0  0
  196.6520  181.1129  155.0446 C   0  0  0  0  0  0  0  0  0  0  0  0
  196.5137  180.0779  154.3714 O   0  0  0  0  0  0  0  0  0  0  0  0
  196.7203  182.4818  154.3078 C   0  0  1  0  0  0  0  0  0  0  0  0
  196.6386  182.2145  158.4505 C   0  0  0  0  0  0  0  0  0  0  0  0
  196.8620  183.3054  159.2883 C   0  0  0  0  0  0  0  0  0  0  0  0
  197.6835  184.3720  158.8747 C   0  0  0  0  0  0  0  0  0  0  0  0
  198.3147  184.3118  157.6061 C   0  0  0  0  0  0  0  0  0  0  0  0
  199.7255  181.7964  155.3971 C   0  0  0  0  0  0  0  0  0  0  0  0
  200.7038  181.5967  156.3726 C   0  0  0  0  0  0  0  0  0  0  0  0
  201.4314  180.3616  156.3529 C   0  0  0  0  0  0  0  0  0  0  0  0
  201.2036  179.3564  155.3777 C   0  0  0  0  0  0  0  0  0  0  0  0
  200.2176  179.5712  154.4011 C   0  0  0  0  0  0  0  0  0  0  0  0
  199.5369  180.7470  154.4238 C   0  0  0  0  0  0  0  0  0  0  0  0
  198.5124  186.8504  150.2186 H   0  0  0  0  0  0  0  0  0  0  0  0
  197.0357  185.6612  148.5723 H   0  0  0  0  0  0  0  0  0  0  0  0
  196.3445  183.3022  148.9719 H   0  0  0  0  0  0  0  0  0  0  0  0
  198.7493  182.1303  152.5657 H   0  0  0  0  0  0  0  0  0  0  0  0
  199.8026  183.3315  153.1351 H   0  0  0  0  0  0  0  0  0  0  0  0
  199.5756  183.9152  155.3956 H   0  0  0  0  0  0  0  0  0  0  0  0
  196.8632  180.1507  156.8048 H   0  0  0  0  0  0  0  0  0  0  0  0
  195.9763  183.0625  154.8472 H   0  0  0  0  0  0  0  0  0  0  0  0
  196.2833  182.3766  153.3313 H   0  0  0  0  0  0  0  0  0  0  0  0
  196.0119  181.3936  158.7595 H   0  0  0  0  0  0  0  0  0  0  0  0
  196.3848  183.3255  160.2675 H   0  0  0  0  0  0  0  0  0  0  0  0
  197.8434  185.2076  159.5338 H   0  0  0  0  0  0  0  0  0  0  0  0
  198.9590  185.1328  157.3202 H   0  0  0  0  0  0  0  0  0  0  0  0
  200.8669  182.3213  157.1314 H   0  0  0  0  0  0  0  0  0  0  0  0
  202.1899  180.1830  157.1384 H   0  0  0  0  0  0  0  0  0  0  0  0
  201.7365  178.4308  155.3649 H   0  0  0  0  0  0  0  0  0  0  0  0
  199.9534  178.8596  153.6537 H   0  0  0  0  0  0  0  0  0  0  0  0
  198.7358  180.7200  153.7029 H   0  0  0  0  0  0  0  0  0  0  0  0
  1  2  1  0
  2  3  1  0
  2  8  2  0
  3  4  2  0
  3  9  1  0
  4  5  1  0
  4  6  1  0
  6  7  2  0
  6 28  1  0
  7  8  1  0
  7 29  1  0
  8 30  1  0
  9 10  1  0
  9 31  1  6
  9 32  1  0
 10 11  1  0
 10 17  1  0
 11 12  1  0
 11 22  1  0
 11 33  1  1
 12 13  1  0
 12 21  2  0
 13 14  1  0
 13 18  2  0
 14 15  1  0
 14 34  1  0
 15 16  2  0
 15 17  1  0
 17 35  1  1
 17 36  1  0
 18 19  1  0
 18 37  1  0
 19 20  2  0
 19 38  1  0
 20 21  1  0
 20 39  1  0
 21 40  1  0
 22 23  2  0
 22 27  1  0
 23 24  1  0
 23 41  1  0
 24 25  2  0
 24 42  1  0
 25 26  1  0
 25 43  1  0
 26 27  2  0
 26 44  1  0
 27 45  1  0
M  END
>  <s_epik_cmdline>  (1382) 
J2VwaWtfcHl0aG9uJywgJy1waCcsICc3LjAwMDAwMCcsICctcGh0JywgJzIuMDAwMDAwJywgJy1tcycsICcxNicsICctdG4nLCAnOCcsICctbWEnLCAnMjAwJywgJy1pbWFlJywgJzxpbmZpbGUubWFlPicsICctb21hZScsICc8b3V0ZmlsZS5tYWU+Jw==

>  <s_epik_input>  (1382) 
W2NIXTFbY0hdW2NIXVtjSF1bY0hdYzFbQ0BIXTJOKFtDSDJdYyhjM0JyKWMoQ2wpW2NIXVtjSF1bY0hdMylbQ0gyXUMoPU8pW05IXWMoYzI0KVtjSF1bY0hdW2NIXVtjSF00

>  <s_i_glide_gridfile>  (1382) 
ATP-Grid

>  <s_lp_Force_Field>  (1382) 
OPLS_2005

>  <s_lp_Variant>  (1382) 
m_2230bdc____17849930____21069056-1

>  <s_lp_label>  (1382) 
987_sdstereoexpander_1_neutralizer_1_epik_1_stereoizer_1

>  <s_m_source_file>  (1382) 
ATP-VSW-LIGPREP-002-in.maegz

>  <s_sd_BIOSOLVEIT.INFINISEE\_QUERY\_NAME>  (1382) 
Ref-Lig

>  <s_sd_BIOSOLVEIT.INFINISEE\_QUERY\_SMILES>  (1382) 
S(c1nc2c(cc1C[NH2+]Cc3ccc(cc3)C[NH+](C)C)cccc2)Cc4ccccc4

>  <s_sd_BIOSOLVEIT.INFINISEE\_REACTION\_NAME>  (1382) 
m_2230bdc

>  <s_sd_BIOSOLVEIT.INFINISEE\_REAGENT1\_SMILES>  (1382) 
[R1*]N1C(c2c(NC(=O)C1)cccc2)c3ccccc3

>  <s_sd_BIOSOLVEIT.INFINISEE\_REAGENT2\_SMILES>  (1382) 
[R1*]Cc1c(Br)cccc1Cl

>  <s_sd_BIOSOLVEIT.INFINISEE\_SPACE>  (1382) 
REALSpace_44bn_2023-08

>  <s_vsw_compound_code>  (1382) 
31554

>  <s_vsw_variant>  (1382) 
31554-1

>  <r_epik_Charging_Adjusted_Penalty>  (1382) 
0.0087634984339075902

>  <r_epik_Ionization_Penalty>  (1382) 
0.0088000000000000005

>  <r_epik_Ionization_Penalty_Charging>  (1382) 
0

>  <r_epik_Ionization_Penalty_Neutral>  (1382) 
0.0088000000000000005

>  <r_epik_State_Penalty>  (1382) 
0.0088000000000000005

>  <r_i_docking_score>  (1382) 
-1.0358980951265899

>  <r_i_glide_ecoul>  (1382) 
-2.50062155723572

>  <r_i_glide_eff_state_penalty>  (1382) 
0.0088000000000000005

>  <r_i_glide_einternal>  (1382) 
2.6553606986999498

>  <r_i_glide_emodel>  (1382) 
-29.9721891873251

>  <r_i_glide_energy>  (1382) 
-29.087018728256201

>  <r_i_glide_erotb>  (1382) 
0.30712541175046898

>  <r_i_glide_esite>  (1382) 
-0.14987039525020099

>  <r_i_glide_evdw>  (1382) 
-26.586397171020501

>  <r_i_glide_gscore>  (1382) 
-1.0446980951265901

>  <r_i_glide_hbond>  (1382) 
-0.13590873537106599

>  <r_i_glide_ligand_efficiency>  (1382) 
-0.038366596115799699

>  <r_i_glide_ligand_efficiency_ln>  (1382) 
-0.24113999843064499

>  <r_i_glide_ligand_efficiency_sa>  (1382) 
-0.115099788220949

>  <r_i_glide_lipo>  (1382) 
-0.95635053396602199

>  <r_i_glide_metal>  (1382) 
-0

>  <r_i_glide_rewards>  (1382) 
1.5947192498466101

>  <r_lp_Energy>  (1382) 
39.328372000000002

>  <r_qp_ACxDN^.5/SA>  (1382) 
0.0071879999999999999

>  <r_qp_CIQPlogS>  (1382) 
-6.3120000000000003

>  <r_qp_EA(eV)>  (1382) 
0.379

>  <r_qp_FISA>  (1382) 
55.484999999999999

>  <r_qp_FOSA>  (1382) 
40.893999999999998

>  <r_qp_IP(eV)>  (1382) 
8.9149999999999991

>  <r_qp_Jm>  (1382) 
0.0075072935235876402

>  <r_qp_PISA>  (1382) 
437.495

>  <r_qp_PSA>  (1382) 
38.447000000000003

>  <r_qp_PercentHumanOralAbsorption>  (1382) 
100

>  <r_qp_QPPCaco>  (1382) 
735.58699999999999

>  <r_qp_QPPMDCK>  (1382) 
1256.0319999999999

>  <r_qp_QPlogBB>  (1382) 
0.55200000000000005

>  <r_qp_QPlogHERG>  (1382) 
-6.8220000000000001

>  <r_qp_QPlogKhsa>  (1382) 
0.78900000000000003

>  <r_qp_QPlogKp>  (1382) 
-2.8719999999999999

>  <r_qp_QPlogPC16>  (1382) 
13.244999999999999

>  <r_qp_QPlogPo/w>  (1382) 
4.5640000000000001

>  <r_qp_QPlogPoct>  (1382) 
18.684999999999999

>  <r_qp_QPlogPw>  (1382) 
10.067

>  <r_qp_QPlogS>  (1382) 
-4.8979999999999997

>  <r_qp_QPpolrz>  (1382) 
42.679000000000002

>  <r_qp_SASA>  (1382) 
626.04700000000003

>  <r_qp_SAamideO>  (1382) 
0

>  <r_qp_SAfluorine>  (1382) 
0

>  <r_qp_WPSA>  (1382) 
92.173000000000002

>  <r_qp_accptHB>  (1382) 
4.5

>  <r_qp_dip^2/V>  (1382) 
0.0092753000000000002

>  <r_qp_dipole>  (1382) 
3.2629999999999999

>  <r_qp_donorHB>  (1382) 
1

>  <r_qp_glob>  (1382) 
0.84689389999999998

>  <r_qp_mol_MW>  (1382) 
441.75400000000002

>  <r_qp_volume>  (1382) 
1147.9069999999999

>  <r_sd_BIOSOLVEIT.INFINISEE\_FTREES\_SIMILARITY>  (1382) 
0.91600000000000004

>  <r_sd_BIOSOLVEIT.LOGP>  (1382) 
4.2290999999999999

>  <r_sd_BIOSOLVEIT.MOLECULAR\_WEIGHT>  (1382) 
442.762

>  <r_sd_BIOSOLVEIT.TPSA>  (1382) 
33.539999999999999

>  <i_epik_Tot_Q>  (1382) 
0

>  <i_epik_Tot_abs_Q>  (1382) 
0

>  <i_f3d_flags>  (1382) 
0

>  <i_i_glide_confnum>  (1382) 
1

>  <i_i_glide_lignum>  (1382) 
310

>  <i_i_glide_posenum>  (1382) 
20

>  <i_i_glide_rotatable_bonds>  (1382) 
3

>  <i_lp_mmshare_version>  (1382) 
65135

>  <i_m_ct_format>  (1382) 
2

>  <i_m_source_file_index>  (1382) 
987

>  <i_qp_#NandO>  (1382) 
3

>  <i_qp_#acid>  (1382) 
0

>  <i_qp_#amide>  (1382) 
0

>  <i_qp_#amidine>  (1382) 
0

>  <i_qp_#amine>  (1382) 
1

>  <i_qp_#in34>  (1382) 
0

>  <i_qp_#in56>  (1382) 
18

>  <i_qp_#metab>  (1382) 
7

>  <i_qp_#nonHatm>  (1382) 
27

>  <i_qp_#noncon>  (1382) 
2

>  <i_qp_#ringatoms>  (1382) 
23

>  <i_qp_#rotor>  (1382) 
2

>  <i_qp_#rtvFG>  (1382) 
0

>  <i_qp_#stars>  (1382) 
0

>  <i_qp_CNS>  (1382) 
2

>  <i_qp_HumanOralAbsorption>  (1382) 
3

>  <i_qp_RuleOfFive>  (1382) 
0

>  <i_qp_RuleOfThree>  (1382) 
1

>  <i_sd_BIOSOLVEIT.INFINISEE\_REAGENT1\_NAME>  (1382) 
17849930

>  <i_sd_BIOSOLVEIT.INFINISEE\_REAGENT2\_NAME>  (1382) 
21069056

>  <i_sd_BIOSOLVEIT.INFINISEE\_RESULT\_RANK>  (1382) 
25050

>  <i_sd_version>  (1382) 
0

>  <b_lp_Chiralities_Consistent>  (1382) 
1

>  <b_sd_chiral_flag>  (1382) 
0

>  <canonical_id>  (1382) 
ATP-HTVS-D93071962BA3

>  <compound_code>  (1382) 
31554

>  <title>  (1382) 
m_2230bdc____17849930____21069056

>  <variant>  (1382) 
31554-1

>  <source_file>  (1382) 
运行/运行/ATP-VSW/ATP-VSW-DOCK_HTVS_1-002_lib.maegz

>  <canonical_smiles>  (1382) 
O=C1CN(Cc2c(Cl)cccc2Br)[C@H](c2ccccc2)c2ccccc2N1

>  <scaffold>  (1382) 
O=C1CN(Cc2ccccc2)C(c2ccccc2)c2ccccc2N1

>  <molecular_formula>  (1382) 
C22H18BrClN2O

$$$$
ATP-HTVS-D9724DB0D106
     RDKit          3D

 48 51  0  0  0  0  0  0  0  0999 V2000
  198.3566  186.6550  151.6853 I   0  0  0  0  0  0  0  0  0  0  0  0
  198.1939  185.3968  153.3439 C   0  0  0  0  0  0  0  0  0  0  0  0
  197.9900  185.9050  154.6440 C   0  0  0  0  0  0  0  0  0  0  0  0
  197.8849  185.0161  155.7394 C   0  0  0  0  0  0  0  0  0  0  0  0
  198.0250  183.6207  155.5446 C   0  0  0  0  0  0  0  0  0  0  0  0
  198.3096  183.1166  154.2467 C   0  0  0  0  0  0  0  0  0  0  0  0
  198.3363  184.0056  153.1521 C   0  0  0  0  0  0  0  0  0  0  0  0
  197.8974  182.6511  156.7172 C   0  0  1  0  0  0  0  0  0  0  0  0
  196.7612  181.5884  156.6351 C   0  0  2  0  0  0  0  0  0  0  0  0
  196.3281  181.3518  155.2680 N   0  0  0  0  0  0  0  0  0  0  0  0
  196.9037  180.4965  154.3457 C   0  0  0  0  0  0  0  0  0  0  0  0
  197.9212  179.7454  154.7504 N   0  0  0  0  0  0  0  0  0  0  0  0
  198.5848  179.0361  153.8130 C   0  0  0  0  0  0  0  0  0  0  0  0
  198.1482  179.0329  152.4601 C   0  0  0  0  0  0  0  0  0  0  0  0
  197.0320  179.8513  152.1516 C   0  0  0  0  0  0  0  0  0  0  0  0
  196.4220  180.5742  153.1156 N   0  0  0  0  0  0  0  0  0  0  0  0
  196.5841  179.9058  150.8099 C   0  0  0  0  0  0  0  0  0  0  0  0
  197.1939  179.1318  149.8073 C   0  0  0  0  0  0  0  0  0  0  0  0
  198.2693  178.2839  150.1314 C   0  0  0  0  0  0  0  0  0  0  0  0
  198.7511  178.2421  151.4516 C   0  0  0  0  0  0  0  0  0  0  0  0
  199.7497  178.2824  154.3295 C   0  0  0  0  0  0  0  0  0  0  0  0
  199.6445  177.5223  155.5168 C   0  0  0  0  0  0  0  0  0  0  0  0
  200.7454  176.7999  156.0166 C   0  0  0  0  0  0  0  0  0  0  0  0
  201.9735  176.8294  155.3327 C   0  0  0  0  0  0  0  0  0  0  0  0
  202.1008  177.5884  154.1554 C   0  0  0  0  0  0  0  0  0  0  0  0
  200.9983  178.3163  153.6661 C   0  0  0  0  0  0  0  0  0  0  0  0
  195.5537  182.0130  157.5077 C   0  0  1  0  0  0  0  0  0  0  0  0
  195.8339  181.8356  158.8788 O   0  0  0  0  0  0  0  0  0  0  0  0
  197.9227  186.9756  154.8006 H   0  0  0  0  0  0  0  0  0  0  0  0
  197.7089  185.4158  156.7357 H   0  0  0  0  0  0  0  0  0  0  0  0
  198.4737  182.0603  154.0823 H   0  0  0  0  0  0  0  0  0  0  0  0
  198.4724  183.6059  152.1542 H   0  0  0  0  0  0  0  0  0  0  0  0
  198.8507  182.1379  156.8153 H   0  0  0  0  0  0  0  0  0  0  0  0
  197.7930  183.2179  157.6389 H   0  0  0  0  0  0  0  0  0  0  0  0
  197.1376  180.6469  157.0508 H   0  0  0  0  0  0  0  0  0  0  0  0
  195.5974  181.9444  154.9120 H   0  0  0  0  0  0  0  0  0  0  0  0
  195.7595  180.5555  150.5629 H   0  0  0  0  0  0  0  0  0  0  0  0
  196.8261  179.1615  148.7910 H   0  0  0  0  0  0  0  0  0  0  0  0
  198.7213  177.6617  149.3721 H   0  0  0  0  0  0  0  0  0  0  0  0
  199.5573  177.5581  151.6712 H   0  0  0  0  0  0  0  0  0  0  0  0
  198.7081  177.4927  156.0554 H   0  0  0  0  0  0  0  0  0  0  0  0
  200.6437  176.2323  156.9292 H   0  0  0  0  0  0  0  0  0  0  0  0
  202.8217  176.2856  155.7225 H   0  0  0  0  0  0  0  0  0  0  0  0
  203.0448  177.6168  153.6299 H   0  0  0  0  0  0  0  0  0  0  0  0
  201.1207  178.9000  152.7646 H   0  0  0  0  0  0  0  0  0  0  0  0
  195.2926  183.0578  157.3266 H   0  0  0  0  0  0  0  0  0  0  0  0
  194.6707  181.4189  157.2771 H   0  0  0  0  0  0  0  0  0  0  0  0
  195.9560  180.9011  159.0075 H   0  0  0  0  0  0  0  0  0  0  0  0
  1  2  1  0
  2  3  1  0
  2  7  2  0
  3  4  2  0
  3 29  1  0
  4  5  1  0
  4 30  1  0
  5  6  2  0
  5  8  1  0
  6  7  1  0
  6 31  1  0
  7 32  1  0
  8  9  1  0
  8 33  1  1
  8 34  1  0
  9 10  1  0
  9 27  1  0
  9 35  1  1
 10 11  1  0
 10 36  1  0
 11 12  2  0
 11 16  1  0
 12 13  1  0
 13 14  2  0
 13 21  1  0
 14 15  1  0
 14 20  1  0
 15 16  2  0
 15 17  1  0
 17 18  2  0
 17 37  1  0
 18 19  1  0
 18 38  1  0
 19 20  2  0
 19 39  1  0
 20 40  1  0
 21 22  2  0
 21 26  1  0
 22 23  1  0
 22 41  1  0
 23 24  2  0
 23 42  1  0
 24 25  1  0
 24 43  1  0
 25 26  2  0
 25 44  1  0
 26 45  1  0
 27 28  1  0
 27 46  1  1
 27 47  1  0
 28 48  1  0
M  END
>  <s_epik_cmdline>  (1383) 
J2VwaWtfcHl0aG9uJywgJy1waCcsICc3LjAwMDAwMCcsICctcGh0JywgJzIuMDAwMDAwJywgJy1tcycsICcxNicsICctdG4nLCAnOCcsICctbWEnLCAnMjAwJywgJy1pbWFlJywgJzxpbmZpbGUubWFlPicsICctb21hZScsICc8b3V0ZmlsZS5tYWU+Jw==

>  <s_epik_input>  (1383) 
SWMxW2NIXVtjSF1jKFtjSF1bY0hdMSlbQ0gyXVtDQEBIXShbQ0gyXVtPSF0pW05IXWMobmMoYzIzKVtjSF1bY0hdW2NIXVtjSF0zKW5jMi1jNFtjSF1bY0hdW2NIXVtjSF1bY0hdNA==

>  <s_i_glide_gridfile>  (1383) 
ATP-Grid

>  <s_lp_Force_Field>  (1383) 
OPLS_2005

>  <s_lp_Variant>  (1383) 
m_27bbb____23573896____131187-2

>  <s_lp_label>  (1383) 
1981_sdstereoexpander_2_neutralizer_1_epik_1_stereoizer_1

>  <s_m_source_file>  (1383) 
ATP-VSW-LIGPREP-002-in.maegz

>  <s_sd_BIOSOLVEIT.INFINISEE\_QUERY\_NAME>  (1383) 
Ref-Lig

>  <s_sd_BIOSOLVEIT.INFINISEE\_QUERY\_SMILES>  (1383) 
S(c1nc2c(cc1C[NH2+]Cc3ccc(cc3)C[NH+](C)C)cccc2)Cc4ccccc4

>  <s_sd_BIOSOLVEIT.INFINISEE\_REACTION\_NAME>  (1383) 
m_27bbb

>  <s_sd_BIOSOLVEIT.INFINISEE\_REAGENT1\_SMILES>  (1383) 
[R1*]NC(CO)Cc1ccc(I)cc1

>  <s_sd_BIOSOLVEIT.INFINISEE\_REAGENT2\_SMILES>  (1383) 
[R1*]c1nc(c2c(n1)cccc2)c3ccccc3

>  <s_sd_BIOSOLVEIT.INFINISEE\_SPACE>  (1383) 
REALSpace_44bn_2023-08

>  <s_vsw_compound_code>  (1383) 
63362

>  <s_vsw_variant>  (1383) 
63362-2

>  <r_epik_Charging_Adjusted_Penalty>  (1383) 
0.0059250901344354802

>  <r_epik_Ionization_Penalty>  (1383) 
0.0061000000000000004

>  <r_epik_Ionization_Penalty_Charging>  (1383) 
0

>  <r_epik_Ionization_Penalty_Neutral>  (1383) 
0.0061000000000000004

>  <r_epik_State_Penalty>  (1383) 
0.0058999999999999999

>  <r_i_docking_score>  (1383) 
-2.9662541965637099

>  <r_i_glide_ecoul>  (1383) 
-3.5785892009735099

>  <r_i_glide_eff_state_penalty>  (1383) 
0.0058999999999999999

>  <r_i_glide_einternal>  (1383) 
4.6038861274719203

>  <r_i_glide_emodel>  (1383) 
-40.507724865031498

>  <r_i_glide_energy>  (1383) 
-35.497893095016501

>  <r_i_glide_erotb>  (1383) 
0.43779650065790499

>  <r_i_glide_esite>  (1383) 
-0.103955157755102

>  <r_i_glide_evdw>  (1383) 
-31.919303894043001

>  <r_i_glide_gscore>  (1383) 
-2.9721541965637099

>  <r_i_glide_hbond>  (1383) 
-0.14870099107397999

>  <r_i_glide_ligand_efficiency>  (1383) 
-0.105937649877275

>  <r_i_glide_ligand_efficiency_ln>  (1383) 
-0.68469856157454201

>  <r_i_glide_ligand_efficiency_sa>  (1383) 
-0.32168909896644798

>  <r_i_glide_lipo>  (1383) 
-0.89723781445344297

>  <r_i_glide_metal>  (1383) 
-0

>  <r_i_glide_rewards>  (1383) 
-0.12730315909091

>  <r_lp_Energy>  (1383) 
17.037434999999999

>  <r_qp_ACxDN^.5/SA>  (1383) 
0.0095119000000000002

>  <r_qp_CIQPlogS>  (1383) 
-8.5559999999999992

>  <r_qp_EA(eV)>  (1383) 
0.90700000000000003

>  <r_qp_FISA>  (1383) 
76.337999999999994

>  <r_qp_FOSA>  (1383) 
84.191999999999993

>  <r_qp_IP(eV)>  (1383) 
8.2370000000000001

>  <r_qp_Jm>  (1383) 
0.498234154081099

>  <r_qp_PISA>  (1383) 
399.779

>  <r_qp_PSA>  (1383) 
51.670000000000002

>  <r_qp_PercentHumanOralAbsorption>  (1383) 
100

>  <r_qp_QPPCaco>  (1383) 
1870.633

>  <r_qp_QPPMDCK>  (1383) 
2186.2190000000001

>  <r_qp_QPlogBB>  (1383) 
-0.38

>  <r_qp_QPlogHERG>  (1383) 
-5.6130000000000004

>  <r_qp_QPlogKhsa>  (1383) 
0.67000000000000004

>  <r_qp_QPlogKp>  (1383) 
-0.84599999999999997

>  <r_qp_QPlogPC16>  (1383) 
13.491

>  <r_qp_QPlogPo/w>  (1383) 
4.9649999999999999

>  <r_qp_QPlogPoct>  (1383) 
19.021999999999998

>  <r_qp_QPlogPw>  (1383) 
10.005000000000001

>  <r_qp_QPlogS>  (1383) 
-5.1390000000000002

>  <r_qp_QPpolrz>  (1383) 
40.457999999999998

>  <r_qp_SASA>  (1383) 
624.44899999999996

>  <r_qp_SAamideO>  (1383) 
0

>  <r_qp_SAfluorine>  (1383) 
0

>  <r_qp_WPSA>  (1383) 
64.140000000000001

>  <r_qp_accptHB>  (1383) 
4.2000000000000002

>  <r_qp_dip^2/V>  (1383) 
0.0097087000000000007

>  <r_qp_dipole>  (1383) 
3.387

>  <r_qp_donorHB>  (1383) 
2

>  <r_qp_glob>  (1383) 
0.86561049999999995

>  <r_qp_mol_MW>  (1383) 
481.33499999999998

>  <r_qp_volume>  (1383) 
1181.6300000000001

>  <r_sd_BIOSOLVEIT.INFINISEE\_FTREES\_SIMILARITY>  (1383) 
0.90200000000000002

>  <r_sd_BIOSOLVEIT.LOGP>  (1383) 
4.9169

>  <r_sd_BIOSOLVEIT.MOLECULAR\_WEIGHT>  (1383) 
481.33100000000002

>  <r_sd_BIOSOLVEIT.TPSA>  (1383) 
58.039999999999999

>  <i_epik_Tot_Q>  (1383) 
0

>  <i_epik_Tot_abs_Q>  (1383) 
0

>  <i_f3d_flags>  (1383) 
0

>  <i_i_glide_confnum>  (1383) 
5

>  <i_i_glide_lignum>  (1383) 
719

>  <i_i_glide_posenum>  (1383) 
9

>  <i_i_glide_rotatable_bonds>  (1383) 
7

>  <i_lp_mmshare_version>  (1383) 
65135

>  <i_m_ct_format>  (1383) 
2

>  <i_m_source_file_index>  (1383) 
1981

>  <i_qp_#NandO>  (1383) 
4

>  <i_qp_#acid>  (1383) 
0

>  <i_qp_#amide>  (1383) 
0

>  <i_qp_#amidine>  (1383) 
0

>  <i_qp_#amine>  (1383) 
0

>  <i_qp_#in34>  (1383) 
0

>  <i_qp_#in56>  (1383) 
22

>  <i_qp_#metab>  (1383) 
2

>  <i_qp_#nonHatm>  (1383) 
28

>  <i_qp_#noncon>  (1383) 
0

>  <i_qp_#ringatoms>  (1383) 
22

>  <i_qp_#rotor>  (1383) 
7

>  <i_qp_#rtvFG>  (1383) 
0

>  <i_qp_#stars>  (1383) 
0

>  <i_qp_CNS>  (1383) 
0

>  <i_qp_HumanOralAbsorption>  (1383) 
3

>  <i_qp_RuleOfFive>  (1383) 
0

>  <i_qp_RuleOfThree>  (1383) 
0

>  <i_sd_BIOSOLVEIT.INFINISEE\_REAGENT1\_NAME>  (1383) 
23573896

>  <i_sd_BIOSOLVEIT.INFINISEE\_REAGENT2\_NAME>  (1383) 
131187

>  <i_sd_BIOSOLVEIT.INFINISEE\_RESULT\_RANK>  (1383) 
89457

>  <i_sd_version>  (1383) 
0

>  <b_lp_Chiralities_Consistent>  (1383) 
1

>  <b_sd_chiral_flag>  (1383) 
0

>  <canonical_id>  (1383) 
ATP-HTVS-D9724DB0D106

>  <compound_code>  (1383) 
63362

>  <title>  (1383) 
m_27bbb____23573896____131187

>  <variant>  (1383) 
63362-2

>  <source_file>  (1383) 
运行/运行/ATP-VSW/ATP-VSW-DOCK_HTVS_1-002_lib.maegz

>  <canonical_smiles>  (1383) 
OC[C@H](Cc1ccc(I)cc1)Nc1nc(-c2ccccc2)c2ccccc2n1

>  <scaffold>  (1383) 
c1ccc(CCNc2nc(-c3ccccc3)c3ccccc3n2)cc1

>  <molecular_formula>  (1383) 
C23H20IN3O

$$$$
ATP-HTVS-DAC48F0443BB
     RDKit          3D

 56 59  0  0  0  0  0  0  0  0999 V2000
  197.2076  179.5292  152.0181 O   0  0  0  0  0  0  0  0  0  0  0  0
  196.9689  180.5162  152.7215 C   0  0  0  0  0  0  0  0  0  0  0  0
  197.4206  180.7090  153.9700 N   0  0  0  0  0  0  0  0  0  0  0  0
  198.3471  179.9580  154.7342 C   0  0  0  0  0  0  0  0  0  0  0  0
  198.8409  178.7650  154.3179 N   0  0  0  0  0  0  0  0  0  0  0  0
  199.7045  178.0716  155.0906 C   0  0  0  0  0  0  0  0  0  0  0  0
  200.1384  178.5663  156.3431 C   0  0  0  0  0  0  0  0  0  0  0  0
  199.6467  179.8190  156.7780 C   0  0  0  0  0  0  0  0  0  0  0  0
  198.7443  180.5475  155.9645 C   0  0  0  0  0  0  0  0  0  0  0  0
  198.2508  181.8034  156.3895 N   0  0  0  0  0  0  0  0  0  0  0  0
  198.4730  183.0379  155.7318 C   0  0  0  0  0  0  0  0  0  0  0  0
  199.5906  183.1975  154.8509 C   0  0  0  0  0  0  0  0  0  0  0  0
  199.7802  184.4062  154.1480 C   0  0  0  0  0  0  0  0  0  0  0  0
  198.8670  185.4704  154.2669 C   0  0  0  0  0  0  0  0  0  0  0  0
  197.7627  185.3356  155.1341 C   0  0  0  0  0  0  0  0  0  0  0  0
  197.5986  184.1557  155.8969 C   0  0  0  0  0  0  0  0  0  0  0  0
  197.2663  181.7131  157.4883 C   0  0  1  0  0  0  0  0  0  0  0  0
  197.5369  182.7087  158.5335 C   0  0  0  0  0  0  0  0  0  0  0  0
  197.7555  183.4856  159.3567 N   0  0  0  0  0  0  0  0  0  0  0  0
  195.8098  181.7363  156.9996 C   0  0  2  0  0  0  0  0  0  0  0  0
  201.0517  177.8271  157.1304 C   0  0  0  0  0  0  0  0  0  0  0  0
  201.5353  176.5840  156.6719 C   0  0  0  0  0  0  0  0  0  0  0  0
  201.1082  176.0802  155.4321 C   0  0  0  0  0  0  0  0  0  0  0  0
  200.2048  176.8236  154.6499 C   0  0  0  0  0  0  0  0  0  0  0  0
  196.0615  181.6158  152.1660 C   0  0  1  0  0  0  0  0  0  0  0  0
  196.8134  182.6238  151.3121 C   0  0  0  0  0  0  0  0  0  0  0  0
  197.1278  183.8905  151.8402 C   0  0  0  0  0  0  0  0  0  0  0  0
  197.7911  184.8516  151.0521 C   0  0  0  0  0  0  0  0  0  0  0  0
  198.1286  184.5601  149.7162 C   0  0  0  0  0  0  0  0  0  0  0  0
  197.8031  183.2955  149.1811 C   0  0  0  0  0  0  0  0  0  0  0  0
  197.1474  182.3327  149.9734 C   0  0  0  0  0  0  0  0  0  0  0  0
  198.8327  185.5923  148.8577 C   0  0  2  0  0  0  0  0  0  0  0  0
  197.1232  181.5578  154.4302 H   0  0  0  0  0  0  0  0  0  0  0  0
  199.9793  180.2117  157.7239 H   0  0  0  0  0  0  0  0  0  0  0  0
  200.2860  182.3891  154.7390 H   0  0  0  0  0  0  0  0  0  0  0  0
  200.6450  184.5202  153.4909 H   0  0  0  0  0  0  0  0  0  0  0  0
  198.9833  186.3855  153.7203 H   0  0  0  0  0  0  0  0  0  0  0  0
  197.0211  186.1090  155.2297 H   0  0  0  0  0  0  0  0  0  0  0  0
  196.7451  184.1542  156.5869 H   0  0  0  0  0  0  0  0  0  0  0  0
  197.4118  180.7634  157.9934 H   0  0  0  0  0  0  0  0  0  0  0  0
  195.1159  181.5738  157.8328 H   0  0  0  0  0  0  0  0  0  0  0  0
  195.5972  180.9442  156.2715 H   0  0  0  0  0  0  0  0  0  0  0  0
  195.5896  182.6974  156.5491 H   0  0  0  0  0  0  0  0  0  0  0  0
  201.4006  178.2076  158.0777 H   0  0  0  0  0  0  0  0  0  0  0  0
  202.2431  176.0245  157.2663 H   0  0  0  0  0  0  0  0  0  0  0  0
  201.4787  175.1255  155.0800 H   0  0  0  0  0  0  0  0  0  0  0  0
  199.8796  176.4351  153.6992 H   0  0  0  0  0  0  0  0  0  0  0  0
  195.3035  181.1208  151.5667 H   0  0  0  0  0  0  0  0  0  0  0  0
  195.5385  182.1363  152.9748 H   0  0  0  0  0  0  0  0  0  0  0  0
  196.8441  184.1275  152.8541 H   0  0  0  0  0  0  0  0  0  0  0  0
  198.0304  185.8157  151.4756 H   0  0  0  0  0  0  0  0  0  0  0  0
  198.0526  183.0669  148.1548 H   0  0  0  0  0  0  0  0  0  0  0  0
  196.9035  181.3682  149.5534 H   0  0  0  0  0  0  0  0  0  0  0  0
  198.2498  185.7955  147.9603 H   0  0  0  0  0  0  0  0  0  0  0  0
  199.8135  185.2266  148.5556 H   0  0  0  0  0  0  0  0  0  0  0  0
  198.9712  186.5314  149.3937 H   0  0  0  0  0  0  0  0  0  0  0  0
  1  2  2  0
  2  3  1  0
  2 25  1  0
  3  4  1  0
  3 33  1  0
  4  5  2  0
  4  9  1  0
  5  6  1  0
  6  7  1  0
  6 24  2  0
  7  8  1  0
  7 21  2  0
  8  9  2  0
  8 34  1  0
  9 10  1  0
 10 11  1  0
 10 17  1  0
 11 12  2  0
 11 16  1  0
 12 13  1  0
 12 35  1  0
 13 14  2  0
 13 36  1  0
 14 15  1  0
 14 37  1  0
 15 16  2  0
 15 38  1  0
 16 39  1  0
 17 18  1  0
 17 20  1  0
 17 40  1  1
 18 19  3  0
 20 41  1  1
 20 42  1  0
 20 43  1  0
 21 22  1  0
 21 44  1  0
 22 23  2  0
 22 45  1  0
 23 24  1  0
 23 46  1  0
 24 47  1  0
 25 26  1  0
 25 48  1  6
 25 49  1  0
 26 27  1  0
 26 31  2  0
 27 28  2  0
 27 50  1  0
 28 29  1  0
 28 51  1  0
 29 30  2  0
 29 32  1  0
 30 31  1  0
 30 52  1  0
 31 53  1  0
 32 54  1  6
 32 55  1  0
 32 56  1  0
M  END
>  <s_epik_cmdline>  (1384) 
J2VwaWtfcHl0aG9uJywgJy1waCcsICc3LjAwMDAwMCcsICctcGh0JywgJzIuMDAwMDAwJywgJy1tcycsICcxNicsICctdG4nLCAnOCcsICctbWEnLCAnMjAwJywgJy1pbWFlJywgJzxpbmZpbGUubWFlPicsICctb21hZScsICc8b3V0ZmlsZS5tYWU+Jw==

>  <s_epik_input>  (1384) 
W2NIXTFbY0hdYyhbQ0gzXSlbY0hdW2NIXWMxW0NIMl1DKD1PKVtOSF1jKG4yKWMoW2NIXWMoYzIzKVtjSF1bY0hdW2NIXVtjSF0zKU4oW0NAQEhdKEMjTilbQ0gzXSljNFtjSF1bY0hdW2NIXVtjSF1bY0hdNA==

>  <s_i_glide_gridfile>  (1384) 
ATP-Grid

>  <s_lp_Force_Field>  (1384) 
OPLS_2005

>  <s_lp_Variant>  (1384) 
rxn502b____EMOL532494____EMOL44466703____EMOL36790511-1

>  <s_lp_label>  (1384) 
2234_sdstereoexpander_1_neutralizer_1_epik_1_stereoizer_1

>  <s_m_source_file>  (1384) 
ATP-VSW-LIGPREP-003-in.maegz

>  <s_sd_BIOSOLVEIT.INFINISEE\_QUERY\_NAME>  (1384) 
Ref-Lig

>  <s_sd_BIOSOLVEIT.INFINISEE\_QUERY\_SMILES>  (1384) 
S(c1nc2c(cc1C[NH2+]Cc3ccc(cc3)C[NH+](C)C)cccc2)Cc4ccccc4

>  <s_sd_BIOSOLVEIT.INFINISEE\_REACTION\_NAME>  (1384) 
rxn502b

>  <s_sd_BIOSOLVEIT.INFINISEE\_REAGENT1\_NAME>  (1384) 
EMOL532494

>  <s_sd_BIOSOLVEIT.INFINISEE\_REAGENT1\_SMILES>  (1384) 
O=C(O)Cc1ccc(cc1)C

>  <s_sd_BIOSOLVEIT.INFINISEE\_REAGENT2\_NAME>  (1384) 
EMOL44466703

>  <s_sd_BIOSOLVEIT.INFINISEE\_REAGENT2\_SMILES>  (1384) 
Brc1c(nc2c(c1)cccc2)N

>  <s_sd_BIOSOLVEIT.INFINISEE\_REAGENT3\_NAME>  (1384) 
EMOL36790511

>  <s_sd_BIOSOLVEIT.INFINISEE\_REAGENT3\_SMILES>  (1384) 
N#CC(Nc1ccccc1)C

>  <s_sd_BIOSOLVEIT.INFINISEE\_SPACE>  (1384) 
eXplore_7tr_2022-12

>  <s_vsw_compound_code>  (1384) 
71459

>  <s_vsw_variant>  (1384) 
71459-1

>  <r_epik_Charging_Adjusted_Penalty>  (1384) 
0.00270695882333011

>  <r_epik_Ionization_Penalty>  (1384) 
0.0016999999999999999

>  <r_epik_Ionization_Penalty_Charging>  (1384) 
0

>  <r_epik_Ionization_Penalty_Neutral>  (1384) 
0.0016999999999999999

>  <r_epik_State_Penalty>  (1384) 
0.0027000000000000001

>  <r_i_docking_score>  (1384) 
-3.36244492137731

>  <r_i_glide_ecoul>  (1384) 
-3.41467261314392

>  <r_i_glide_eff_state_penalty>  (1384) 
0.0027000000000000001

>  <r_i_glide_einternal>  (1384) 
1.66966772079468

>  <r_i_glide_emodel>  (1384) 
-44.712945254368698

>  <r_i_glide_energy>  (1384) 
-37.193256139755199

>  <r_i_glide_erotb>  (1384) 
0.671614451574019

>  <r_i_glide_esite>  (1384) 
-0.066698080735489995

>  <r_i_glide_evdw>  (1384) 
-33.7785835266113

>  <r_i_glide_gscore>  (1384) 
-3.3651449213773099

>  <r_i_glide_hbond>  (1384) 
0

>  <r_i_glide_ligand_efficiency>  (1384) 
-0.10507640379304101

>  <r_i_glide_ligand_efficiency_ln>  (1384) 
-0.75294307468322796

>  <r_i_glide_ligand_efficiency_sa>  (1384) 
-0.33359678745082999

>  <r_i_glide_lipo>  (1384) 
-1.1268695198037499

>  <r_i_glide_metal>  (1384) 
-0

>  <r_i_glide_rewards>  (1384) 
-0.64206170410993102

>  <r_lp_Energy>  (1384) 
27.340606999999999

>  <r_qp_ACxDN^.5/SA>  (1384) 
0.0082123000000000005

>  <r_qp_CIQPlogS>  (1384) 
-7.8860000000000001

>  <r_qp_EA(eV)>  (1384) 
1.099

>  <r_qp_FISA>  (1384) 
110.169

>  <r_qp_FOSA>  (1384) 
160.91800000000001

>  <r_qp_IP(eV)>  (1384) 
8.782

>  <r_qp_Jm>  (1384) 
0.0069462145750877101

>  <r_qp_PISA>  (1384) 
398.64299999999997

>  <r_qp_PSA>  (1384) 
70.123999999999995

>  <r_qp_PercentHumanOralAbsorption>  (1384) 
100

>  <r_qp_QPPCaco>  (1384) 
893.64700000000005

>  <r_qp_QPPMDCK>  (1384) 
438.09300000000002

>  <r_qp_QPlogBB>  (1384) 
-0.85499999999999998

>  <r_qp_QPlogHERG>  (1384) 
-5.726

>  <r_qp_QPlogKhsa>  (1384) 
0.78300000000000003

>  <r_qp_QPlogKp>  (1384) 
-1.474

>  <r_qp_QPlogPC16>  (1384) 
14.045

>  <r_qp_QPlogPo/w>  (1384) 
4.8399999999999999

>  <r_qp_QPlogPoct>  (1384) 
19.896000000000001

>  <r_qp_QPlogPw>  (1384) 
10.130000000000001

>  <r_qp_QPlogS>  (1384) 
-6.3079999999999998

>  <r_qp_QPpolrz>  (1384) 
45.020000000000003

>  <r_qp_SASA>  (1384) 
669.73000000000002

>  <r_qp_SAamideO>  (1384) 
0

>  <r_qp_SAfluorine>  (1384) 
0

>  <r_qp_WPSA>  (1384) 
0

>  <r_qp_accptHB>  (1384) 
5.5

>  <r_qp_dip^2/V>  (1384) 
0.021368000000000002

>  <r_qp_dipole>  (1384) 
5.2619999999999996

>  <r_qp_donorHB>  (1384) 
1

>  <r_qp_glob>  (1384) 
0.85830949999999995

>  <r_qp_mol_MW>  (1384) 
420.51299999999998

>  <r_qp_volume>  (1384) 
1295.8900000000001

>  <r_sd_BIOSOLVEIT.INFINISEE\_FTREES\_SIMILARITY>  (1384) 
0.92800000000000005

>  <r_sd_BIOSOLVEIT.LOGP>  (1384) 
5.7746000000000004

>  <r_sd_BIOSOLVEIT.MOLECULAR\_WEIGHT>  (1384) 
420.51400000000001

>  <r_sd_BIOSOLVEIT.TPSA>  (1384) 
69.019999999999996

>  <i_epik_Tot_Q>  (1384) 
0

>  <i_epik_Tot_abs_Q>  (1384) 
0

>  <i_f3d_flags>  (1384) 
0

>  <i_i_glide_confnum>  (1384) 
4

>  <i_i_glide_lignum>  (1384) 
907

>  <i_i_glide_posenum>  (1384) 
18

>  <i_i_glide_rotatable_bonds>  (1384) 
7

>  <i_lp_mmshare_version>  (1384) 
65135

>  <i_m_ct_format>  (1384) 
2

>  <i_m_source_file_index>  (1384) 
2234

>  <i_qp_#NandO>  (1384) 
5

>  <i_qp_#acid>  (1384) 
0

>  <i_qp_#amide>  (1384) 
0

>  <i_qp_#amidine>  (1384) 
0

>  <i_qp_#amine>  (1384) 
0

>  <i_qp_#in34>  (1384) 
0

>  <i_qp_#in56>  (1384) 
22

>  <i_qp_#metab>  (1384) 
5

>  <i_qp_#nonHatm>  (1384) 
32

>  <i_qp_#noncon>  (1384) 
0

>  <i_qp_#ringatoms>  (1384) 
22

>  <i_qp_#rotor>  (1384) 
7

>  <i_qp_#rtvFG>  (1384) 
0

>  <i_qp_#stars>  (1384) 
0

>  <i_qp_CNS>  (1384) 
-1

>  <i_qp_HumanOralAbsorption>  (1384) 
1

>  <i_qp_RuleOfFive>  (1384) 
0

>  <i_qp_RuleOfThree>  (1384) 
1

>  <i_sd_BIOSOLVEIT.INFINISEE\_RESULT\_RANK>  (1384) 
6305

>  <i_sd_version>  (1384) 
0

>  <b_lp_Chiralities_Consistent>  (1384) 
1

>  <b_sd_chiral_flag>  (1384) 
0

>  <canonical_id>  (1384) 
ATP-HTVS-DAC48F0443BB

>  <compound_code>  (1384) 
71459

>  <title>  (1384) 
rxn502b____EMOL532494____EMOL44466703____EMOL36790511

>  <variant>  (1384) 
71459-1

>  <source_file>  (1384) 
运行/运行/ATP-VSW/ATP-VSW-DOCK_HTVS_1-003_lib/ATP-VSW-DOCK_HTVS_1-003_lib.mae

>  <canonical_smiles>  (1384) 
Cc1ccc(CC(=O)Nc2nc3ccccc3cc2N(c2ccccc2)[C@H](C)C#N)cc1

>  <scaffold>  (1384) 
O=C(Cc1ccccc1)Nc1nc2ccccc2cc1Nc1ccccc1

>  <molecular_formula>  (1384) 
C27H24N4O

$$$$
ATP-HTVS-DADEC6686275
     RDKit          3D

 52 55  0  0  0  0  0  0  0  0999 V2000
  203.1839  181.2000  157.7578 Cl  0  0  0  0  0  0  0  0  0  0  0  0
  201.9858  180.0533  157.2779 C   0  0  0  0  0  0  0  0  0  0  0  0
  201.7369  179.0394  158.1327 N   0  0  0  0  0  0  0  0  0  0  0  0
  200.8398  178.1023  157.7798 C   0  0  0  0  0  0  0  0  0  0  0  0
  200.1168  178.1515  156.5806 C   0  0  0  0  0  0  0  0  0  0  0  0
  200.3416  179.2224  155.6923 C   0  0  0  0  0  0  0  0  0  0  0  0
  201.3105  180.1926  156.0483 C   0  0  0  0  0  0  0  0  0  0  0  0
  201.6587  181.5304  155.0015 Cl  0  0  0  0  0  0  0  0  0  0  0  0
  199.5502  179.3158  154.4584 C   0  0  0  0  0  0  0  0  0  0  0  0
  198.5257  180.2807  154.2779 C   0  0  0  0  0  0  0  0  0  0  0  0
  197.8203  180.3445  153.1200 N   0  0  0  0  0  0  0  0  0  0  0  0
  198.0622  179.4762  152.1147 C   0  0  0  0  0  0  0  0  0  0  0  0
  199.0579  178.4756  152.2270 C   0  0  0  0  0  0  0  0  0  0  0  0
  199.7970  178.3958  153.4219 C   0  0  0  0  0  0  0  0  0  0  0  0
  199.2875  177.5534  151.1855 C   0  0  0  0  0  0  0  0  0  0  0  0
  198.5323  177.6369  150.0013 C   0  0  0  0  0  0  0  0  0  0  0  0
  197.5560  178.6406  149.8609 C   0  0  0  0  0  0  0  0  0  0  0  0
  197.3230  179.5479  150.9144 C   0  0  0  0  0  0  0  0  0  0  0  0
  198.3349  181.1956  155.3507 N   0  0  0  0  0  0  0  0  0  0  0  0
  197.3831  182.1234  155.5002 C   0  0  0  0  0  0  0  0  0  0  0  0
  196.3797  182.2243  154.8027 O   0  0  0  0  0  0  0  0  0  0  0  0
  197.6079  183.0614  156.6460 C   0  0  0  0  0  0  0  0  0  0  0  0
  196.9444  182.9365  157.8989 C   0  0  0  0  0  0  0  0  0  0  0  0
  197.2683  183.8340  158.9460 C   0  0  0  0  0  0  0  0  0  0  0  0
  198.1646  184.8950  158.7404 C   0  0  0  0  0  0  0  0  0  0  0  0
  198.8115  185.0253  157.5012 C   0  0  0  0  0  0  0  0  0  0  0  0
  198.5469  184.1017  156.4674 C   0  0  0  0  0  0  0  0  0  0  0  0
  195.9150  181.8420  158.1755 C   0  0  1  0  0  0  0  0  0  0  0  0
  194.4905  182.2858  158.1313 N   0  0  1  0  0  0  0  0  0  0  0  0
  193.5495  181.1526  158.2722 C   0  0  2  0  0  0  0  0  0  0  0  0
  194.1375  183.4060  159.0450 C   0  0  2  0  0  0  0  0  0  0  0  0
  200.6838  177.3023  158.4912 H   0  0  0  0  0  0  0  0  0  0  0  0
  199.3679  177.3992  156.3788 H   0  0  0  0  0  0  0  0  0  0  0  0
  200.5606  177.6401  153.5501 H   0  0  0  0  0  0  0  0  0  0  0  0
  200.0360  176.7811  151.2922 H   0  0  0  0  0  0  0  0  0  0  0  0
  198.7087  176.9309  149.1999 H   0  0  0  0  0  0  0  0  0  0  0  0
  196.9833  178.7030  148.9465 H   0  0  0  0  0  0  0  0  0  0  0  0
  196.5683  180.3105  150.8102 H   0  0  0  0  0  0  0  0  0  0  0  0
  199.0369  181.1739  156.0716 H   0  0  0  0  0  0  0  0  0  0  0  0
  196.7935  183.7425  159.9154 H   0  0  0  0  0  0  0  0  0  0  0  0
  198.3401  185.6104  159.5295 H   0  0  0  0  0  0  0  0  0  0  0  0
  199.5121  185.8353  157.3405 H   0  0  0  0  0  0  0  0  0  0  0  0
  199.0555  184.2106  155.5174 H   0  0  0  0  0  0  0  0  0  0  0  0
  196.0388  181.0474  157.4507 H   0  0  0  0  0  0  0  0  0  0  0  0
  196.1478  181.4135  159.1495 H   0  0  0  0  0  0  0  0  0  0  0  0
  193.6238  180.6948  159.2559 H   0  0  0  0  0  0  0  0  0  0  0  0
  193.7454  180.3932  157.5205 H   0  0  0  0  0  0  0  0  0  0  0  0
  192.5284  181.4872  158.1077 H   0  0  0  0  0  0  0  0  0  0  0  0
  194.3712  183.1350  160.0728 H   0  0  0  0  0  0  0  0  0  0  0  0
  193.0770  183.6511  158.9773 H   0  0  0  0  0  0  0  0  0  0  0  0
  194.6659  184.3234  158.7948 H   0  0  0  0  0  0  0  0  0  0  0  0
  194.3196  182.6051  157.1766 H   0  0  0  0  0  0  0  0  0  0  0  0
  1  2  1  0
  2  3  1  0
  2  7  2  0
  3  4  2  0
  4  5  1  0
  4 32  1  0
  5  6  2  0
  5 33  1  0
  6  7  1  0
  6  9  1  0
  7  8  1  0
  9 10  1  0
  9 14  2  0
 10 11  2  0
 10 19  1  0
 11 12  1  0
 12 13  1  0
 12 18  2  0
 13 14  1  0
 13 15  2  0
 14 34  1  0
 15 16  1  0
 15 35  1  0
 16 17  2  0
 16 36  1  0
 17 18  1  0
 17 37  1  0
 18 38  1  0
 19 20  1  0
 19 39  1  0
 20 21  2  0
 20 22  1  0
 22 23  1  0
 22 27  2  0
 23 24  2  0
 23 28  1  0
 24 25  1  0
 24 40  1  0
 25 26  2  0
 25 41  1  0
 26 27  1  0
 26 42  1  0
 27 43  1  0
 28 29  1  0
 28 44  1  6
 28 45  1  0
 29 30  1  0
 29 31  1  0
 29 52  1  6
 30 46  1  1
 30 47  1  0
 30 48  1  0
 31 49  1  1
 31 50  1  0
 31 51  1  0
M  CHG  1  29   1
M  END
>  <s_epik_cmdline>  (1385) 
J2VwaWtfcHl0aG9uJywgJy1waCcsICc3LjAwMDAwMCcsICctcGh0JywgJzIuMDAwMDAwJywgJy1tcycsICcxNicsICctdG4nLCAnOCcsICctbWEnLCAnMjAwJywgJy1pbWFlJywgJzxpbmZpbGUubWFlPicsICctb21hZScsICc8b3V0ZmlsZS5tYWU+Jw==

>  <s_epik_input>  (1385) 
Q2xjMW5bY0hdW2NIXWMoYzFDbCktYyhbY0hdYyhjMjMpW2NIXVtjSF1bY0hdW2NIXTMpYyhuMilbTkhdQyg9TyljNGMoW0NIMl1OKFtDSDNdKVtDSDNdKVtjSF1bY0hdW2NIXVtjSF00

>  <s_i_glide_gridfile>  (1385) 
ATP-Grid

>  <s_lp_Force_Field>  (1385) 
OPLS_2005

>  <s_lp_Variant>  (1385) 
rxn501b____EMOL5415347____EMOL44466703____EMOL1839456-1

>  <s_lp_label>  (1385) 
2993_sdstereoexpander_1_neutralizer_1_epik_1_stereoizer_1

>  <s_m_source_file>  (1385) 
ATP-VSW-LIGPREP-001-in.maegz

>  <s_sd_BIOSOLVEIT.INFINISEE\_QUERY\_NAME>  (1385) 
Ref-Lig

>  <s_sd_BIOSOLVEIT.INFINISEE\_QUERY\_SMILES>  (1385) 
S(c1nc2c(cc1C[NH2+]Cc3ccc(cc3)C[NH+](C)C)cccc2)Cc4ccccc4

>  <s_sd_BIOSOLVEIT.INFINISEE\_REACTION\_NAME>  (1385) 
rxn501b

>  <s_sd_BIOSOLVEIT.INFINISEE\_REAGENT1\_NAME>  (1385) 
EMOL5415347

>  <s_sd_BIOSOLVEIT.INFINISEE\_REAGENT1\_SMILES>  (1385) 
O=C(O)c1c(cccc1)CN(C)C

>  <s_sd_BIOSOLVEIT.INFINISEE\_REAGENT2\_NAME>  (1385) 
EMOL44466703

>  <s_sd_BIOSOLVEIT.INFINISEE\_REAGENT2\_SMILES>  (1385) 
Brc1c(nc2c(c1)cccc2)N

>  <s_sd_BIOSOLVEIT.INFINISEE\_REAGENT3\_NAME>  (1385) 
EMOL1839456

>  <s_sd_BIOSOLVEIT.INFINISEE\_REAGENT3\_SMILES>  (1385) 
Clc1nccc(c1Cl)B(O)O

>  <s_sd_BIOSOLVEIT.INFINISEE\_SPACE>  (1385) 
eXplore_7tr_2022-12

>  <s_vsw_compound_code>  (1385) 
95745

>  <s_vsw_variant>  (1385) 
95745-1

>  <r_epik_Charging_Adjusted_Penalty>  (1385) 
0.120106230221407

>  <r_epik_Ionization_Penalty>  (1385) 
0.060199999999999997

>  <r_epik_Ionization_Penalty_Charging>  (1385) 
0.060100000000000001

>  <r_epik_Ionization_Penalty_Neutral>  (1385) 
0.00020000000000000001

>  <r_epik_State_Penalty>  (1385) 
0.060100000000000001

>  <r_i_docking_score>  (1385) 
-3.79004662301231

>  <r_i_glide_ecoul>  (1385) 
-8.1957635879516602

>  <r_i_glide_eff_state_penalty>  (1385) 
0.060100000000000001

>  <r_i_glide_einternal>  (1385) 
4.0532164573669398

>  <r_i_glide_emodel>  (1385) 
-52.792219664869599

>  <r_i_glide_energy>  (1385) 
-40.240536689758301

>  <r_i_glide_erotb>  (1385) 
0.490273206343664

>  <r_i_glide_esite>  (1385) 
-0.15396239618400401

>  <r_i_glide_evdw>  (1385) 
-32.044773101806598

>  <r_i_glide_gscore>  (1385) 
-3.8501466230123098

>  <r_i_glide_hbond>  (1385) 
-0.20000000000000001

>  <r_i_glide_ligand_efficiency>  (1385) 
-0.122259568484268

>  <r_i_glide_ligand_efficiency_ln>  (1385) 
-0.85477166446906505

>  <r_i_glide_ligand_efficiency_sa>  (1385) 
-0.384063842566576

>  <r_i_glide_lipo>  (1385) 
-0.83000292170706802

>  <r_i_glide_metal>  (1385) 
-0

>  <r_i_glide_rewards>  (1385) 
-0.32485131818181701

>  <r_lp_Energy>  (1385) 
31.369517999999999

>  <r_qp_ACxDN^.5/SA>  (1385) 
0.0092589000000000005

>  <r_qp_CIQPlogS>  (1385) 
-6.0609999999999999

>  <r_qp_EA(eV)>  (1385) 
1.1930000000000001

>  <r_qp_FISA>  (1385) 
61.261000000000003

>  <r_qp_FOSA>  (1385) 
144.37200000000001

>  <r_qp_IP(eV)>  (1385) 
8.8510000000000009

>  <r_qp_Jm>  (1385) 
0.0060336234757116004

>  <r_qp_PISA>  (1385) 
396.93599999999998

>  <r_qp_PSA>  (1385) 
56.863999999999997

>  <r_qp_PercentHumanOralAbsorption>  (1385) 
100

>  <r_qp_QPPCaco>  (1385) 
648.43200000000002

>  <r_qp_QPPMDCK>  (1385) 
1201.4369999999999

>  <r_qp_QPlogBB>  (1385) 
0.309

>  <r_qp_QPlogHERG>  (1385) 
-6.9379999999999997

>  <r_qp_QPlogKhsa>  (1385) 
0.70699999999999996

>  <r_qp_QPlogKp>  (1385) 
-2.8330000000000002

>  <r_qp_QPlogPC16>  (1385) 
14.597

>  <r_qp_QPlogPo/w>  (1385) 
4.7270000000000003

>  <r_qp_QPlogPoct>  (1385) 
21.387

>  <r_qp_QPlogPw>  (1385) 
11.324

>  <r_qp_QPlogS>  (1385) 
-5.0410000000000004

>  <r_qp_QPpolrz>  (1385) 
47.137999999999998

>  <r_qp_SASA>  (1385) 
702.02599999999995

>  <r_qp_SAamideO>  (1385) 
0

>  <r_qp_SAfluorine>  (1385) 
0

>  <r_qp_WPSA>  (1385) 
99.456999999999994

>  <r_qp_accptHB>  (1385) 
6.5

>  <r_qp_dip^2/V>  (1385) 
0.0220126

>  <r_qp_dipole>  (1385) 
5.3849999999999998

>  <r_qp_donorHB>  (1385) 
1

>  <r_qp_glob>  (1385) 
0.82774590000000003

>  <r_qp_mol_MW>  (1385) 
451.35399999999998

>  <r_qp_volume>  (1385) 
1317.127

>  <r_sd_BIOSOLVEIT.INFINISEE\_FTREES\_SIMILARITY>  (1385) 
0.90300000000000002

>  <r_sd_BIOSOLVEIT.LOGP>  (1385) 
4.5004

>  <r_sd_BIOSOLVEIT.MOLECULAR\_WEIGHT>  (1385) 
452.363

>  <r_sd_BIOSOLVEIT.TPSA>  (1385) 
59.32

>  <i_epik_Tot_Q>  (1385) 
1

>  <i_epik_Tot_abs_Q>  (1385) 
1

>  <i_f3d_flags>  (1385) 
0

>  <i_i_glide_confnum>  (1385) 
2

>  <i_i_glide_lignum>  (1385) 
1437

>  <i_i_glide_posenum>  (1385) 
6

>  <i_i_glide_rotatable_bonds>  (1385) 
6

>  <i_lp_mmshare_version>  (1385) 
65135

>  <i_m_ct_format>  (1385) 
2

>  <i_m_source_file_index>  (1385) 
2993

>  <i_qp_#NandO>  (1385) 
5

>  <i_qp_#acid>  (1385) 
0

>  <i_qp_#amide>  (1385) 
0

>  <i_qp_#amidine>  (1385) 
0

>  <i_qp_#amine>  (1385) 
1

>  <i_qp_#in34>  (1385) 
0

>  <i_qp_#in56>  (1385) 
22

>  <i_qp_#metab>  (1385) 
3

>  <i_qp_#nonHatm>  (1385) 
31

>  <i_qp_#noncon>  (1385) 
0

>  <i_qp_#ringatoms>  (1385) 
22

>  <i_qp_#rotor>  (1385) 
5

>  <i_qp_#rtvFG>  (1385) 
0

>  <i_qp_#stars>  (1385) 
0

>  <i_qp_CNS>  (1385) 
1

>  <i_qp_HumanOralAbsorption>  (1385) 
3

>  <i_qp_RuleOfFive>  (1385) 
0

>  <i_qp_RuleOfThree>  (1385) 
0

>  <i_sd_BIOSOLVEIT.INFINISEE\_RESULT\_RANK>  (1385) 
85019

>  <i_sd_version>  (1385) 
0

>  <b_lp_Chiralities_Consistent>  (1385) 
1

>  <b_sd_chiral_flag>  (1385) 
0

>  <canonical_id>  (1385) 
ATP-HTVS-DADEC6686275

>  <compound_code>  (1385) 
95745

>  <title>  (1385) 
rxn501b____EMOL5415347____EMOL44466703____EMOL1839456

>  <variant>  (1385) 
95745-1

>  <source_file>  (1385) 
运行/运行/ATP-VSW/ATP-VSW-DOCK_HTVS_1-001_lib/ATP-VSW-DOCK_HTVS_1-001_lib

>  <canonical_smiles>  (1385) 
C[NH+](C)Cc1ccccc1C(=O)Nc1nc2ccccc2cc1-c1ccnc(Cl)c1Cl

>  <scaffold>  (1385) 
O=C(Nc1nc2ccccc2cc1-c1ccncc1)c1ccccc1

>  <molecular_formula>  (1385) 
C24H21Cl2N4O+

$$$$
ATP-HTVS-DB2D048ED873
     RDKit          3D

 64 67  0  0  0  0  0  0  0  0999 V2000
  198.5714  183.6222  159.5532 Cl  0  0  0  0  0  0  0  0  0  0  0  0
  196.8605  183.6648  159.4881 C   0  0  0  0  0  0  0  0  0  0  0  0
  196.1020  184.8151  159.8674 C   0  0  0  0  0  0  0  0  0  0  0  0
  194.6962  184.8037  159.7433 C   0  0  0  0  0  0  0  0  0  0  0  0
  194.0385  183.6825  159.2195 C   0  0  0  0  0  0  0  0  0  0  0  0
  194.8211  182.5680  158.8139 C   0  0  0  0  0  0  0  0  0  0  0  0
  194.1664  181.4830  158.2449 N   0  0  0  0  0  0  0  0  0  0  0  0
  196.1705  182.5546  158.9640 C   0  0  0  0  0  0  0  0  0  0  0  0
  196.7780  186.1109  160.2874 C   0  0  1  0  0  0  0  0  0  0  0  0
  196.8910  187.1526  159.2526 N   0  0  0  0  0  0  0  0  0  0  0  0
  197.4790  186.9852  158.0095 C   0  0  0  0  0  0  0  0  0  0  0  0
  197.5845  185.7555  157.4788 N   0  0  0  0  0  0  0  0  0  0  0  0
  198.1849  185.5686  156.2935 C   0  0  0  0  0  0  0  0  0  0  0  0
  198.2856  184.2719  155.7474 N   0  0  0  0  0  0  0  0  0  0  0  0
  197.1422  183.3762  155.9744 C   0  0  1  0  0  0  0  0  0  0  0  0
  197.1525  182.1322  155.0780 C   0  0  0  0  0  0  0  0  0  0  0  0
  197.5460  180.9165  155.6284 C   0  0  0  0  0  0  0  0  0  0  0  0
  197.7024  179.7701  154.8088 C   0  0  0  0  0  0  0  0  0  0  0  0
  197.3284  179.8504  153.4445 C   0  0  0  0  0  0  0  0  0  0  0  0
  196.8441  181.0651  152.9049 C   0  0  0  0  0  0  0  0  0  0  0  0
  196.7659  182.2140  153.7170 C   0  0  0  0  0  0  0  0  0  0  0  0
  198.3297  178.4942  155.3537 C   0  0  1  0  0  0  0  0  0  0  0  0
  199.3901  178.7187  156.3808 N   0  0  1  0  0  0  0  0  0  0  0  0
  200.0589  177.4590  156.7785 C   0  0  1  0  0  0  0  0  0  0  0  0
  200.6873  177.5529  158.1781 C   0  0  2  0  0  0  0  0  0  0  0  0
  200.3751  179.7977  156.0578 C   0  0  2  0  0  0  0  0  0  0  0  0
  198.6985  186.6815  155.5681 C   0  0  0  0  0  0  0  0  0  0  0  0
  198.5521  187.9515  156.1708 C   0  0  0  0  0  0  0  0  0  0  0  0
  197.9588  188.0913  157.3698 N   0  0  0  0  0  0  0  0  0  0  0  0
  199.0190  189.0982  155.4921 C   0  0  0  0  0  0  0  0  0  0  0  0
  199.5916  188.9629  154.2080 C   0  0  0  0  0  0  0  0  0  0  0  0
  199.7326  187.6870  153.6154 C   0  0  0  0  0  0  0  0  0  0  0  0
  199.2940  186.5425  154.3043 C   0  0  0  0  0  0  0  0  0  0  0  0
  194.1126  185.6732  159.9875 H   0  0  0  0  0  0  0  0  0  0  0  0
  192.9718  183.6927  159.0560 H   0  0  0  0  0  0  0  0  0  0  0  0
  194.6969  180.6259  158.0584 H   0  0  0  0  0  0  0  0  0  0  0  0
  193.1688  181.3730  158.2243 H   0  0  0  0  0  0  0  0  0  0  0  0
  196.7689  181.6651  158.6597 H   0  0  0  0  0  0  0  0  0  0  0  0
  196.1928  186.5253  161.1051 H   0  0  0  0  0  0  0  0  0  0  0  0
  197.7586  185.8811  160.6869 H   0  0  0  0  0  0  0  0  0  0  0  0
  196.7037  188.0915  159.5481 H   0  0  0  0  0  0  0  0  0  0  0  0
  198.9121  184.0895  154.9959 H   0  0  0  0  0  0  0  0  0  0  0  0
  197.2015  183.0294  157.0072 H   0  0  0  0  0  0  0  0  0  0  0  0
  196.2075  183.9254  155.8104 H   0  0  0  0  0  0  0  0  0  0  0  0
  197.7059  180.8367  156.6934 H   0  0  0  0  0  0  0  0  0  0  0  0
  197.4674  178.9917  152.7907 H   0  0  0  0  0  0  0  0  0  0  0  0
  196.5649  181.1202  151.8572 H   0  0  0  0  0  0  0  0  0  0  0  0
  196.4072  183.1478  153.3076 H   0  0  0  0  0  0  0  0  0  0  0  0
  197.5385  177.8400  155.7491 H   0  0  0  0  0  0  0  0  0  0  0  0
  198.7687  177.9388  154.5256 H   0  0  0  0  0  0  0  0  0  0  0  0
  199.3345  176.6378  156.7879 H   0  0  0  0  0  0  0  0  0  0  0  0
  200.8229  177.1862  156.0464 H   0  0  0  0  0  0  0  0  0  0  0  0
  201.1163  176.5973  158.4658 H   0  0  0  0  0  0  0  0  0  0  0  0
  199.9464  177.8116  158.9330 H   0  0  0  0  0  0  0  0  0  0  0  0
  201.4937  178.2833  158.2340 H   0  0  0  0  0  0  0  0  0  0  0  0
  200.9454  179.5296  155.1587 H   0  0  0  0  0  0  0  0  0  0  0  0
  201.1005  179.9159  156.8735 H   0  0  0  0  0  0  0  0  0  0  0  0
  199.9063  180.7793  155.8985 H   0  0  0  0  0  0  0  0  0  0  0  0
  198.8939  190.0789  155.9344 H   0  0  0  0  0  0  0  0  0  0  0  0
  199.9108  189.8501  153.6692 H   0  0  0  0  0  0  0  0  0  0  0  0
  200.1608  187.5901  152.6215 H   0  0  0  0  0  0  0  0  0  0  0  0
  199.3944  185.5779  153.8336 H   0  0  0  0  0  0  0  0  0  0  0  0
  197.8966  189.0184  157.7803 H   0  0  0  0  0  0  0  0  0  0  0  0
  198.8458  178.9563  157.1975 H   0  0  0  0  0  0  0  0  0  0  0  0
  1  2  1  0
  2  3  2  0
  2  8  1  0
  3  4  1  0
  3  9  1  0
  4  5  2  0
  4 34  1  0
  5  6  1  0
  5 35  1  0
  6  7  1  0
  6  8  2  0
  7 36  1  0
  7 37  1  0
  8 38  1  0
  9 10  1  0
  9 39  1  1
  9 40  1  0
 10 11  1  0
 10 41  1  0
 11 12  1  0
 11 29  2  0
 12 13  2  0
 13 14  1  0
 13 27  1  0
 14 15  1  0
 14 42  1  0
 15 16  1  0
 15 43  1  1
 15 44  1  0
 16 17  2  0
 16 21  1  0
 17 18  1  0
 17 45  1  0
 18 19  2  0
 18 22  1  0
 19 20  1  0
 19 46  1  0
 20 21  2  0
 20 47  1  0
 21 48  1  0
 22 23  1  0
 22 49  1  1
 22 50  1  0
 23 24  1  0
 23 26  1  0
 23 64  1  1
 24 25  1  0
 24 51  1  1
 24 52  1  0
 25 53  1  1
 25 54  1  0
 25 55  1  0
 26 56  1  6
 26 57  1  0
 26 58  1  0
 27 28  1  0
 27 33  2  0
 28 29  1  0
 28 30  2  0
 29 63  1  0
 30 31  1  0
 30 59  1  0
 31 32  2  0
 31 60  1  0
 32 33  1  0
 32 61  1  0
 33 62  1  0
M  CHG  2  23   1  29   1
M  END
>  <s_epik_cmdline>  (1386) 
J2VwaWtfcHl0aG9uJywgJy1waCcsICc3LjAwMDAwMCcsICctcGh0JywgJzIuMDAwMDAwJywgJy1tcycsICcxNicsICctdG4nLCAnOCcsICctbWEnLCAnMjAwJywgJy1pbWFlJywgJzxpbmZpbGUubWFlPicsICctb21hZScsICc8b3V0ZmlsZS5tYWU+Jw==

>  <s_epik_input>  (1386) 
W05IMl1jKFtjSF0xKVtjSF1bY0hdYyhjMUNsKVtDSDJdW05IXWMobmMoYzIzKVtjSF1bY0hdW2NIXVtjSF0zKW5jMltOSF1bQ0gyXWM0W2NIXWMoW2NIXVtjSF1bY0hdNClbQ0gyXU4oW0NIM10pW0NIMl1bQ0gzXQ==

>  <s_i_glide_gridfile>  (1386) 
ATP-Grid

>  <s_lp_Force_Field>  (1386) 
OPLS_2005

>  <s_lp_Variant>  (1386) 
m_282030aaa____21930070____22360182____21941646-1

>  <s_lp_label>  (1386) 
1662_sdstereoexpander_1_neutralizer_1_epik_1_stereoizer_1

>  <s_m_source_file>  (1386) 
ATP-VSW-LIGPREP-002-in.maegz

>  <s_sd_BIOSOLVEIT.INFINISEE\_QUERY\_NAME>  (1386) 
Ref-Lig

>  <s_sd_BIOSOLVEIT.INFINISEE\_QUERY\_SMILES>  (1386) 
S(c1nc2c(cc1C[NH2+]Cc3ccc(cc3)C[NH+](C)C)cccc2)Cc4ccccc4

>  <s_sd_BIOSOLVEIT.INFINISEE\_REACTION\_NAME>  (1386) 
m_282030aaa

>  <s_sd_BIOSOLVEIT.INFINISEE\_REAGENT1\_SMILES>  (1386) 
[R1*]NCc1cc(ccc1)CN(CC)C

>  <s_sd_BIOSOLVEIT.INFINISEE\_REAGENT2\_SMILES>  (1386) 
[R2*]c1nc([R1*])c2c(n1)cccc2

>  <s_sd_BIOSOLVEIT.INFINISEE\_REAGENT3\_SMILES>  (1386) 
[R2*]NCc1c(Cl)cc(N)cc1

>  <s_sd_BIOSOLVEIT.INFINISEE\_SPACE>  (1386) 
REALSpace_44bn_2023-08

>  <s_vsw_compound_code>  (1386) 
53154

>  <s_vsw_variant>  (1386) 
53154-1

>  <r_epik_Charging_Adjusted_Penalty>  (1386) 
0.089070388984551593

>  <r_epik_Ionization_Penalty>  (1386) 
0.046600000000000003

>  <r_epik_Ionization_Penalty_Charging>  (1386) 
0.044900000000000002

>  <r_epik_Ionization_Penalty_Neutral>  (1386) 
0.0016999999999999999

>  <r_epik_State_Penalty>  (1386) 
0.044200000000000003

>  <r_i_docking_score>  (1386) 
-4.6715667756238597

>  <r_i_glide_ecoul>  (1386) 
-8.2344131469726598

>  <r_i_glide_eff_state_penalty>  (1386) 
0.044200000000000003

>  <r_i_glide_einternal>  (1386) 
6.9697022438049299

>  <r_i_glide_emodel>  (1386) 
-63.613539171708403

>  <r_i_glide_energy>  (1386) 
-45.543075561523402

>  <r_i_glide_erotb>  (1386) 
0.75186040798557097

>  <r_i_glide_esite>  (1386) 
-0.19618757186328201

>  <r_i_glide_evdw>  (1386) 
-37.308662414550803

>  <r_i_glide_gscore>  (1386) 
-4.7157667756238597

>  <r_i_glide_hbond>  (1386) 
-0.25876394800984698

>  <r_i_glide_ligand_efficiency>  (1386) 
-0.141562629564359

>  <r_i_glide_ligand_efficiency_ln>  (1386) 
-1.0389322628205

>  <r_i_glide_ligand_efficiency_sa>  (1386) 
-0.454066993642949

>  <r_i_glide_lipo>  (1386) 
-1.2882985229026001

>  <r_i_glide_metal>  (1386) 
-0

>  <r_i_glide_rewards>  (1386) 
-0.62378204806026405

>  <r_lp_Energy>  (1386) 
29.228529000000002

>  <r_qp_ACxDN^.5/SA>  (1386) 
0.015953700000000001

>  <r_qp_CIQPlogS>  (1386) 
-6.2270000000000003

>  <r_qp_EA(eV)>  (1386) 
0.438

>  <r_qp_FISA>  (1386) 
97.459000000000003

>  <r_qp_FOSA>  (1386) 
217.035

>  <r_qp_IP(eV)>  (1386) 
7.7990000000000004

>  <r_qp_Jm>  (1386) 
0.051042567128394903

>  <r_qp_PISA>  (1386) 
369.07400000000001

>  <r_qp_PSA>  (1386) 
72.653999999999996

>  <r_qp_PercentHumanOralAbsorption>  (1386) 
96.900999999999996

>  <r_qp_QPPCaco>  (1386) 
294.16699999999997

>  <r_qp_QPPMDCK>  (1386) 
187.74600000000001

>  <r_qp_QPlogBB>  (1386) 
-0.47899999999999998

>  <r_qp_QPlogHERG>  (1386) 
-6.3520000000000003

>  <r_qp_QPlogKhsa>  (1386) 
0.66600000000000004

>  <r_qp_QPlogKp>  (1386) 
-3.1179999999999999

>  <r_qp_QPlogPC16>  (1386) 
15.266

>  <r_qp_QPlogPo/w>  (1386) 
4.4020000000000001

>  <r_qp_QPlogPoct>  (1386) 
24.100999999999999

>  <r_qp_QPlogPw>  (1386) 
13.423

>  <r_qp_QPlogS>  (1386) 
-3.8380000000000001

>  <r_qp_QPpolrz>  (1386) 
46.545999999999999

>  <r_qp_SASA>  (1386) 
703.59900000000005

>  <r_qp_SAamideO>  (1386) 
0

>  <r_qp_SAfluorine>  (1386) 
0

>  <r_qp_WPSA>  (1386) 
20.030999999999999

>  <r_qp_accptHB>  (1386) 
6

>  <r_qp_dip^2/V>  (1386) 
0.0099716000000000006

>  <r_qp_dipole>  (1386) 
3.722

>  <r_qp_donorHB>  (1386) 
3.5

>  <r_qp_glob>  (1386) 
0.85576609999999997

>  <r_qp_mol_MW>  (1386) 
461.00799999999998

>  <r_qp_volume>  (1386) 
1389.2249999999999

>  <r_sd_BIOSOLVEIT.INFINISEE\_FTREES\_SIMILARITY>  (1386) 
0.90500000000000003

>  <r_sd_BIOSOLVEIT.LOGP>  (1386) 
4.1242000000000001

>  <r_sd_BIOSOLVEIT.MOLECULAR\_WEIGHT>  (1386) 
462.01799999999997

>  <r_sd_BIOSOLVEIT.TPSA>  (1386) 
80.299999999999997

>  <i_epik_Tot_Q>  (1386) 
2

>  <i_epik_Tot_abs_Q>  (1386) 
2

>  <i_f3d_flags>  (1386) 
0

>  <i_i_glide_confnum>  (1386) 
10

>  <i_i_glide_lignum>  (1386) 
578

>  <i_i_glide_posenum>  (1386) 
8

>  <i_i_glide_rotatable_bonds>  (1386) 
9

>  <i_lp_mmshare_version>  (1386) 
65135

>  <i_m_ct_format>  (1386) 
2

>  <i_m_source_file_index>  (1386) 
1662

>  <i_qp_#NandO>  (1386) 
6

>  <i_qp_#acid>  (1386) 
0

>  <i_qp_#amide>  (1386) 
0

>  <i_qp_#amidine>  (1386) 
0

>  <i_qp_#amine>  (1386) 
1

>  <i_qp_#in34>  (1386) 
0

>  <i_qp_#in56>  (1386) 
22

>  <i_qp_#metab>  (1386) 
6

>  <i_qp_#nonHatm>  (1386) 
33

>  <i_qp_#noncon>  (1386) 
0

>  <i_qp_#ringatoms>  (1386) 
22

>  <i_qp_#rotor>  (1386) 
10

>  <i_qp_#rtvFG>  (1386) 
0

>  <i_qp_#stars>  (1386) 
1

>  <i_qp_CNS>  (1386) 
0

>  <i_qp_HumanOralAbsorption>  (1386) 
3

>  <i_qp_RuleOfFive>  (1386) 
0

>  <i_qp_RuleOfThree>  (1386) 
0

>  <i_sd_BIOSOLVEIT.INFINISEE\_REAGENT1\_NAME>  (1386) 
21930070

>  <i_sd_BIOSOLVEIT.INFINISEE\_REAGENT2\_NAME>  (1386) 
22360182

>  <i_sd_BIOSOLVEIT.INFINISEE\_REAGENT3\_NAME>  (1386) 
21941646

>  <i_sd_BIOSOLVEIT.INFINISEE\_RESULT\_RANK>  (1386) 
69548

>  <i_sd_version>  (1386) 
0

>  <b_lp_Chiralities_Consistent>  (1386) 
1

>  <b_sd_chiral_flag>  (1386) 
0

>  <canonical_id>  (1386) 
ATP-HTVS-DB2D048ED873

>  <compound_code>  (1386) 
53154

>  <title>  (1386) 
m_282030aaa____21930070____22360182____21941646

>  <variant>  (1386) 
53154-1

>  <source_file>  (1386) 
运行/运行/ATP-VSW/ATP-VSW-DOCK_HTVS_1-002_lib.maegz

>  <canonical_smiles>  (1386) 
CC[N@@H+](C)Cc1cccc(CNc2nc(NCc3ccc(N)cc3Cl)[nH+]c3ccccc23)c1

>  <scaffold>  (1386) 
c1ccc(CNc2nc(NCc3ccccc3)c3ccccc3[nH+]2)cc1

>  <molecular_formula>  (1386) 
C26H31ClN6+2

$$$$
ATP-HTVS-DB45F9B4D40D
     RDKit          3D

 66 69  0  0  0  0  0  0  0  0999 V2000
  199.9931  182.5974  157.9408 O   0  0  0  0  0  0  0  0  0  0  0  0
  198.9046  183.0787  157.6504 C   0  0  0  0  0  0  0  0  0  0  0  0
  198.1582  183.7700  158.5575 N   0  0  0  0  0  0  0  0  0  0  0  0
  196.7464  183.4985  158.6766 C   0  0  0  0  0  0  0  0  0  0  0  0
  195.8570  184.5178  159.1144 C   0  0  0  0  0  0  0  0  0  0  0  0
  194.4665  184.2783  159.2040 C   0  0  0  0  0  0  0  0  0  0  0  0
  193.9386  183.0419  158.8203 C   0  0  0  0  0  0  0  0  0  0  0  0
  194.7970  182.0047  158.4373 C   0  0  0  0  0  0  0  0  0  0  0  0
  196.1848  182.2208  158.4076 C   0  0  0  0  0  0  0  0  0  0  0  0
  196.3841  185.8220  159.5525 C   0  0  0  0  0  0  0  0  0  0  0  0
  195.6617  186.7710  159.8627 O   0  0  0  0  0  0  0  0  0  0  0  0
  197.8401  185.9013  159.6654 C   0  0  0  0  0  0  0  0  0  0  0  0
  198.6834  184.9173  159.2511 C   0  0  0  0  0  0  0  0  0  0  0  0
  200.1475  185.1568  159.4392 C   0  0  0  0  0  0  0  0  0  0  0  0
  200.9814  184.1745  160.0423 C   0  0  0  0  0  0  0  0  0  0  0  0
  202.3667  184.3796  160.1336 C   0  0  0  0  0  0  0  0  0  0  0  0
  202.9323  185.6205  159.7679 C   0  0  0  0  0  0  0  0  0  0  0  0
  202.1004  186.6339  159.2585 C   0  0  0  0  0  0  0  0  0  0  0  0
  200.7207  186.4058  159.0851 C   0  0  0  0  0  0  0  0  0  0  0  0
  198.3023  182.8062  156.2477 C   0  0  1  0  0  0  0  0  0  0  0  0
  199.3304  182.6860  155.0658 C   0  0  1  0  0  0  0  0  0  0  0  0
  200.3967  181.6843  155.2106 N   0  0  0  0  0  0  0  0  0  0  0  0
  200.2605  180.2730  155.3157 C   0  0  0  0  0  0  0  0  0  0  0  0
  201.4390  179.4528  155.3341 C   0  0  0  0  0  0  0  0  0  0  0  0
  201.3506  178.0285  155.4369 C   0  0  0  0  0  0  0  0  0  0  0  0
  200.0844  177.4108  155.5651 C   0  0  0  0  0  0  0  0  0  0  0  0
  198.9413  178.2245  155.6146 C   0  0  0  0  0  0  0  0  0  0  0  0
  199.0103  179.6234  155.4678 C   0  0  0  0  0  0  0  0  0  0  0  0
  202.8458  180.0640  155.2477 C   0  0  1  0  0  0  0  0  0  0  0  0
  203.4898  180.2559  156.5817 N   0  0  1  0  0  0  0  0  0  0  0  0
  204.8741  180.7513  156.4500 C   0  0  2  0  0  0  0  0  0  0  0  0
  202.7206  181.0496  157.5699 C   0  0  2  0  0  0  0  0  0  0  0  0
  198.6177  182.4111  153.7359 C   0  0  2  0  0  0  0  0  0  0  0  0
  200.0467  184.0618  154.9419 C   0  0  2  0  0  0  0  0  0  0  0  0
  193.7868  185.0472  159.5568 H   0  0  0  0  0  0  0  0  0  0  0  0
  192.8689  182.8815  158.8359 H   0  0  0  0  0  0  0  0  0  0  0  0
  194.3989  181.0377  158.1618 H   0  0  0  0  0  0  0  0  0  0  0  0
  196.7746  181.3492  158.1680 H   0  0  0  0  0  0  0  0  0  0  0  0
  198.2183  186.7960  160.1493 H   0  0  0  0  0  0  0  0  0  0  0  0
  200.5673  183.2359  160.3961 H   0  0  0  0  0  0  0  0  0  0  0  0
  202.9958  183.5776  160.4850 H   0  0  0  0  0  0  0  0  0  0  0  0
  203.9975  185.7746  159.8466 H   0  0  0  0  0  0  0  0  0  0  0  0
  202.5149  187.5959  158.9979 H   0  0  0  0  0  0  0  0  0  0  0  0
  200.1073  187.1889  158.6528 H   0  0  0  0  0  0  0  0  0  0  0  0
  197.7301  181.8963  156.3031 H   0  0  0  0  0  0  0  0  0  0  0  0
  197.6222  183.6568  156.0423 H   0  0  0  0  0  0  0  0  0  0  0  0
  201.3277  182.0829  155.2639 H   0  0  0  0  0  0  0  0  0  0  0  0
  202.2434  177.4070  155.3945 H   0  0  0  0  0  0  0  0  0  0  0  0
  199.9875  176.3244  155.6077 H   0  0  0  0  0  0  0  0  0  0  0  0
  197.9673  177.7789  155.7393 H   0  0  0  0  0  0  0  0  0  0  0  0
  198.0532  180.1309  155.5172 H   0  0  0  0  0  0  0  0  0  0  0  0
  203.4554  179.3817  154.6517 H   0  0  0  0  0  0  0  0  0  0  0  0
  202.8833  181.0070  154.6946 H   0  0  0  0  0  0  0  0  0  0  0  0
  204.8904  181.7403  155.9792 H   0  0  0  0  0  0  0  0  0  0  0  0
  205.4691  180.0654  155.8426 H   0  0  0  0  0  0  0  0  0  0  0  0
  205.3456  180.8349  157.4339 H   0  0  0  0  0  0  0  0  0  0  0  0
  202.5735  182.0688  157.2082 H   0  0  0  0  0  0  0  0  0  0  0  0
  203.2367  181.1226  158.5307 H   0  0  0  0  0  0  0  0  0  0  0  0
  201.7463  180.6187  157.7950 H   0  0  0  0  0  0  0  0  0  0  0  0
  197.8421  183.1545  153.5414 H   0  0  0  0  0  0  0  0  0  0  0  0
  198.1437  181.4299  153.7274 H   0  0  0  0  0  0  0  0  0  0  0  0
  199.3726  182.4146  152.9420 H   0  0  0  0  0  0  0  0  0  0  0  0
  199.3039  184.8671  154.8929 H   0  0  0  0  0  0  0  0  0  0  0  0
  200.6893  184.1248  154.0460 H   0  0  0  0  0  0  0  0  0  0  0  0
  200.6835  184.2985  155.8116 H   0  0  0  0  0  0  0  0  0  0  0  0
  203.5784  179.3035  156.9600 H   0  0  0  0  0  0  0  0  0  0  0  0
  1  2  2  0
  2  3  1  0
  2 20  1  0
  3  4  1  0
  3 13  1  0
  4  5  1  0
  4  9  2  0
  5  6  2  0
  5 10  1  0
  6  7  1  0
  6 35  1  0
  7  8  2  0
  7 36  1  0
  8  9  1  0
  8 37  1  0
  9 38  1  0
 10 11  2  0
 10 12  1  0
 12 13  2  0
 12 39  1  0
 13 14  1  0
 14 15  2  0
 14 19  1  0
 15 16  1  0
 15 40  1  0
 16 17  2  0
 16 41  1  0
 17 18  1  0
 17 42  1  0
 18 19  2  0
 18 43  1  0
 19 44  1  0
 20 21  1  0
 20 45  1  1
 20 46  1  0
 21 22  1  1
 21 33  1  0
 21 34  1  0
 22 23  1  0
 22 47  1  0
 23 24  1  0
 23 28  2  0
 24 25  2  0
 24 29  1  0
 25 26  1  0
 25 48  1  0
 26 27  2  0
 26 49  1  0
 27 28  1  0
 27 50  1  0
 28 51  1  0
 29 30  1  0
 29 52  1  6
 29 53  1  0
 30 31  1  0
 30 32  1  0
 30 66  1  1
 31 54  1  6
 31 55  1  0
 31 56  1  0
 32 57  1  6
 32 58  1  0
 32 59  1  0
 33 60  1  6
 33 61  1  0
 33 62  1  0
 34 63  1  6
 34 64  1  0
 34 65  1  0
M  CHG  1  30   1
M  END
>  <s_epik_cmdline>  (1387) 
J2VwaWtfcHl0aG9uJywgJy1waCcsICc3LjAwMDAwMCcsICctcGh0JywgJzIuMDAwMDAwJywgJy1tcycsICcxNicsICctdG4nLCAnOCcsICctbWEnLCAnMjAwJywgJy1pbWFlJywgJzxpbmZpbGUubWFlPicsICctb21hZScsICc8b3V0ZmlsZS5tYWU+Jw==

>  <s_epik_input>  (1387) 
W2NIXTFbY0hdW2NIXVtjSF1jKFtDSDJdTihbQ0gzXSlbQ0gzXSljMVtOSF1DKFtDSDNdKShbQ0gzXSlbQ0gyXUMoPU8pbjJjKC1jM1tjSF1bY0hdW2NIXVtjSF1bY0hdMylbY0hdYyg9TyljKGMyNClbY0hdW2NIXVtjSF1bY0hdNA==

>  <s_i_glide_gridfile>  (1387) 
ATP-Grid

>  <s_lp_Force_Field>  (1387) 
OPLS_2005

>  <s_lp_Variant>  (1387) 
rxn514b____EMOL2739194____EMOL2737150____EMOL975590-1

>  <s_lp_label>  (1387) 
2958_sdstereoexpander_1_neutralizer_1_epik_1_stereoizer_1

>  <s_m_source_file>  (1387) 
ATP-VSW-LIGPREP-001-in.maegz

>  <s_sd_BIOSOLVEIT.INFINISEE\_QUERY\_NAME>  (1387) 
Ref-Lig

>  <s_sd_BIOSOLVEIT.INFINISEE\_QUERY\_SMILES>  (1387) 
S(c1nc2c(cc1C[NH2+]Cc3ccc(cc3)C[NH+](C)C)cccc2)Cc4ccccc4

>  <s_sd_BIOSOLVEIT.INFINISEE\_REACTION\_NAME>  (1387) 
rxn514b

>  <s_sd_BIOSOLVEIT.INFINISEE\_REAGENT1\_NAME>  (1387) 
EMOL2739194

>  <s_sd_BIOSOLVEIT.INFINISEE\_REAGENT1\_SMILES>  (1387) 
O=C1c2c(NC(c3ccccc3)=C1)cccc2

>  <s_sd_BIOSOLVEIT.INFINISEE\_REAGENT2\_NAME>  (1387) 
EMOL2737150

>  <s_sd_BIOSOLVEIT.INFINISEE\_REAGENT2\_SMILES>  (1387) 
O=C(OC(C)(C)C)NC(CC(=O)O)(C)C

>  <s_sd_BIOSOLVEIT.INFINISEE\_REAGENT3\_NAME>  (1387) 
EMOL975590

>  <s_sd_BIOSOLVEIT.INFINISEE\_REAGENT3\_SMILES>  (1387) 
Brc1c(cccc1)CN(C)C

>  <s_sd_BIOSOLVEIT.INFINISEE\_SPACE>  (1387) 
eXplore_7tr_2022-12

>  <s_vsw_compound_code>  (1387) 
94625

>  <s_vsw_variant>  (1387) 
94625-1

>  <r_epik_Charging_Adjusted_Penalty>  (1387) 
0.079371046471228002

>  <r_epik_Ionization_Penalty>  (1387) 
0.039699999999999999

>  <r_epik_Ionization_Penalty_Charging>  (1387) 
0.039699999999999999

>  <r_epik_Ionization_Penalty_Neutral>  (1387) 
0

>  <r_epik_State_Penalty>  (1387) 
0.039699999999999999

>  <r_i_docking_score>  (1387) 
-3.7959219945111702

>  <r_i_glide_ecoul>  (1387) 
-7.5183672904968297

>  <r_i_glide_eff_state_penalty>  (1387) 
0.039699999999999999

>  <r_i_glide_einternal>  (1387) 
0.82783460617065396

>  <r_i_glide_emodel>  (1387) 
-51.668894722957504

>  <r_i_glide_energy>  (1387) 
-39.144557476043701

>  <r_i_glide_erotb>  (1387) 
0.68027403425459898

>  <r_i_glide_esite>  (1387) 
-0.036330962393584403

>  <r_i_glide_evdw>  (1387) 
-31.6261901855469

>  <r_i_glide_gscore>  (1387) 
-3.83562199451117

>  <r_i_glide_hbond>  (1387) 
0

>  <r_i_glide_ligand_efficiency>  (1387) 
-0.111644764544446

>  <r_i_glide_ligand_efficiency_ln>  (1387) 
-0.83862564059301703

>  <r_i_glide_ligand_efficiency_sa>  (1387) 
-0.36168569634388897

>  <r_i_glide_lipo>  (1387) 
-1.1640712005846301

>  <r_i_glide_metal>  (1387) 
-0

>  <r_i_glide_rewards>  (1387) 
-0.60642926293568999

>  <r_lp_Energy>  (1387) 
46.711315999999997

>  <r_qp_ACxDN^.5/SA>  (1387) 
0

>  <r_qp_CIQPlogS>  (1387) 
-5.7290000000000001

>  <r_qp_EA(eV)>  (1387) 
0.94099999999999995

>  <r_qp_FISA>  (1387) 
48.113

>  <r_qp_FOSA>  (1387) 
244.62

>  <r_qp_IP(eV)>  (1387) 
8.0380000000000003

>  <r_qp_Jm>  (1387) 
0.68169111064308596

>  <r_qp_PISA>  (1387) 
407.46899999999999

>  <r_qp_PSA>  (1387) 
60.024000000000001

>  <r_qp_PercentHumanOralAbsorption>  (1387) 
100

>  <r_qp_QPPCaco>  (1387) 
864.07000000000005

>  <r_qp_QPPMDCK>  (1387) 
467.35500000000002

>  <r_qp_QPlogBB>  (1387) 
0.11

>  <r_qp_QPlogHERG>  (1387) 
-6.4080000000000004

>  <r_qp_QPlogKhsa>  (1387) 
0.50700000000000001

>  <r_qp_QPlogKp>  (1387) 
-2.3610000000000002

>  <r_qp_QPlogPC16>  (1387) 
14.324

>  <r_qp_QPlogPo/w>  (1387) 
4.6260000000000003

>  <r_qp_QPlogPoct>  (1387) 
20.329000000000001

>  <r_qp_QPlogPw>  (1387) 
9.8539999999999992

>  <r_qp_QPlogS>  (1387) 
-3.4620000000000002

>  <r_qp_QPpolrz>  (1387) 
49.201999999999998

>  <r_qp_SASA>  (1387) 
700.20100000000002

>  <r_qp_SAamideO>  (1387) 
0

>  <r_qp_SAfluorine>  (1387) 
0

>  <r_qp_WPSA>  (1387) 
0

>  <r_qp_accptHB>  (1387) 
7

>  <r_qp_dip^2/V>  (1387) 
0.0094538000000000001

>  <r_qp_dipole>  (1387) 
3.6360000000000001

>  <r_qp_donorHB>  (1387) 
0

>  <r_qp_glob>  (1387) 
0.86364890000000005

>  <r_qp_mol_MW>  (1387) 
453.58300000000003

>  <r_qp_volume>  (1387) 
1398.2750000000001

>  <r_sd_BIOSOLVEIT.INFINISEE\_FTREES\_SIMILARITY>  (1387) 
0.90300000000000002

>  <r_sd_BIOSOLVEIT.LOGP>  (1387) 
4.1822999999999997

>  <r_sd_BIOSOLVEIT.MOLECULAR\_WEIGHT>  (1387) 
454.59100000000001

>  <r_sd_BIOSOLVEIT.TPSA>  (1387) 
53.850000000000001

>  <i_epik_Tot_Q>  (1387) 
1

>  <i_epik_Tot_abs_Q>  (1387) 
1

>  <i_f3d_flags>  (1387) 
0

>  <i_i_glide_confnum>  (1387) 
7

>  <i_i_glide_lignum>  (1387) 
1400

>  <i_i_glide_posenum>  (1387) 
2

>  <i_i_glide_rotatable_bonds>  (1387) 
8

>  <i_lp_mmshare_version>  (1387) 
65135

>  <i_m_ct_format>  (1387) 
2

>  <i_m_source_file_index>  (1387) 
2958

>  <i_qp_#NandO>  (1387) 
5

>  <i_qp_#acid>  (1387) 
0

>  <i_qp_#amide>  (1387) 
0

>  <i_qp_#amidine>  (1387) 
0

>  <i_qp_#amine>  (1387) 
1

>  <i_qp_#in34>  (1387) 
0

>  <i_qp_#in56>  (1387) 
22

>  <i_qp_#metab>  (1387) 
7

>  <i_qp_#nonHatm>  (1387) 
34

>  <i_qp_#noncon>  (1387) 
0

>  <i_qp_#ringatoms>  (1387) 
22

>  <i_qp_#rotor>  (1387) 
7

>  <i_qp_#rtvFG>  (1387) 
0

>  <i_qp_#stars>  (1387) 
0

>  <i_qp_CNS>  (1387) 
1

>  <i_qp_HumanOralAbsorption>  (1387) 
3

>  <i_qp_RuleOfFive>  (1387) 
0

>  <i_qp_RuleOfThree>  (1387) 
1

>  <i_sd_BIOSOLVEIT.INFINISEE\_RESULT\_RANK>  (1387) 
81089

>  <i_sd_version>  (1387) 
0

>  <b_lp_Chiralities_Consistent>  (1387) 
1

>  <b_sd_chiral_flag>  (1387) 
0

>  <canonical_id>  (1387) 
ATP-HTVS-DB45F9B4D40D

>  <compound_code>  (1387) 
94625

>  <title>  (1387) 
rxn514b____EMOL2739194____EMOL2737150____EMOL975590

>  <variant>  (1387) 
94625-1

>  <source_file>  (1387) 
运行/运行/ATP-VSW/ATP-VSW-DOCK_HTVS_1-001_lib/ATP-VSW-DOCK_HTVS_1-001_lib

>  <canonical_smiles>  (1387) 
C[NH+](C)Cc1ccccc1NC(C)(C)CC(=O)n1c(-c2ccccc2)cc(=O)c2ccccc21

>  <scaffold>  (1387) 
O=C(CCNc1ccccc1)n1c(-c2ccccc2)cc(=O)c2ccccc21

>  <molecular_formula>  (1387) 
C29H32N3O2+

$$$$
ATP-HTVS-DB6DF45B456E
     RDKit          3D

 58 60  0  0  0  0  0  0  0  0999 V2000
  199.6127  184.2952  159.7140 O   0  0  0  0  0  0  0  0  0  0  0  0
  200.4179  183.4173  158.9910 C   0  0  0  0  0  0  0  0  0  0  0  0
  201.4803  182.7686  159.6705 C   0  0  0  0  0  0  0  0  0  0  0  0
  201.6744  183.1222  160.9775 O   0  0  0  0  0  0  0  0  0  0  0  0
  202.7554  182.5161  161.6514 C   0  0  2  0  0  0  0  0  0  0  0  0
  202.2905  181.8179  158.9749 C   0  0  0  0  0  0  0  0  0  0  0  0
  202.0510  181.5188  157.6229 C   0  0  0  0  0  0  0  0  0  0  0  0
  201.0790  182.2328  156.9639 C   0  0  0  0  0  0  0  0  0  0  0  0
  200.2707  183.1728  157.6333 C   0  0  0  0  0  0  0  0  0  0  0  0
  198.5441  184.9574  159.0310 C   0  0  1  0  0  0  0  0  0  0  0  0
  197.4253  183.9935  158.7925 C   0  0  0  0  0  0  0  0  0  0  0  0
  197.2843  183.5284  157.5318 O   0  0  0  0  0  0  0  0  0  0  0  0
  196.3419  182.5594  157.5145 C   0  0  0  0  0  0  0  0  0  0  0  0
  195.7489  182.5083  158.7597 C   0  0  0  0  0  0  0  0  0  0  0  0
  196.4548  183.4410  159.5842 C   0  0  0  0  0  0  0  0  0  0  0  0
  196.1668  181.8340  156.2407 C   0  0  1  0  0  0  0  0  0  0  0  0
  196.9902  180.6178  156.1329 N   0  0  1  0  0  0  0  0  0  0  0  0
  198.4067  180.8188  156.3668 C   0  0  1  0  0  0  0  0  0  0  0  0
  199.2338  180.1597  155.3009 C   0  0  0  0  0  0  0  0  0  0  0  0
  199.5898  178.8646  155.4182 C   0  0  0  0  0  0  0  0  0  0  0  0
  200.5673  178.2369  154.6004 C   0  0  0  0  0  0  0  0  0  0  0  0
  201.0639  178.9828  153.4889 C   0  0  0  0  0  0  0  0  0  0  0  0
  200.6308  180.3144  153.3023 C   0  0  0  0  0  0  0  0  0  0  0  0
  199.7365  180.9345  154.1677 C   0  0  0  0  0  0  0  0  0  0  0  0
  200.9976  176.8050  154.8463 C   0  0  1  0  0  0  0  0  0  0  0  0
  201.6079  176.5284  156.1966 N   0  0  1  0  0  0  0  0  0  0  0  0
  200.7626  176.8382  157.3618 C   0  0  2  0  0  0  0  0  0  0  0  0
  202.0775  175.1433  156.3207 C   0  0  2  0  0  0  0  0  0  0  0  0
  196.6252  179.9037  156.8022 H   0  0  0  0  0  0  0  0  0  0  0  0
  202.7728  182.9027  162.6644 H   0  0  0  0  0  0  0  0  0  0  0  0
  203.7060  182.7507  161.1736 H   0  0  0  0  0  0  0  0  0  0  0  0
  202.6215  181.4355  161.6954 H   0  0  0  0  0  0  0  0  0  0  0  0
  203.1393  181.3125  159.4429 H   0  0  0  0  0  0  0  0  0  0  0  0
  202.6321  180.7860  157.0746 H   0  0  0  0  0  0  0  0  0  0  0  0
  200.9221  182.0815  155.9360 H   0  0  0  0  0  0  0  0  0  0  0  0
  199.5294  183.6581  157.0206 H   0  0  0  0  0  0  0  0  0  0  0  0
  198.1917  185.7749  159.6693 H   0  0  0  0  0  0  0  0  0  0  0  0
  198.8859  185.4286  158.1091 H   0  0  0  0  0  0  0  0  0  0  0  0
  194.9250  181.8507  159.0288 H   0  0  0  0  0  0  0  0  0  0  0  0
  196.2954  183.6612  160.6327 H   0  0  0  0  0  0  0  0  0  0  0  0
  195.1474  181.4757  156.1379 H   0  0  0  0  0  0  0  0  0  0  0  0
  196.3891  182.4821  155.4023 H   0  0  0  0  0  0  0  0  0  0  0  0
  198.5598  181.8586  156.2860 H   0  0  0  0  0  0  0  0  0  0  0  0
  198.6829  180.4815  157.3665 H   0  0  0  0  0  0  0  0  0  0  0  0
  199.1025  178.3523  156.2551 H   0  0  0  0  0  0  0  0  0  0  0  0
  201.7182  178.5264  152.7845 H   0  0  0  0  0  0  0  0  0  0  0  0
  201.0104  180.8911  152.4477 H   0  0  0  0  0  0  0  0  0  0  0  0
  199.4819  181.9709  154.0889 H   0  0  0  0  0  0  0  0  0  0  0  0
  200.1319  176.1694  154.6733 H   0  0  0  0  0  0  0  0  0  0  0  0
  201.7293  176.5272  154.0680 H   0  0  0  0  0  0  0  0  0  0  0  0
  199.7790  176.4162  157.2549 H   0  0  0  0  0  0  0  0  0  0  0  0
  200.6825  177.9581  157.4764 H   0  0  0  0  0  0  0  0  0  0  0  0
  201.1761  176.6056  158.3010 H   0  0  0  0  0  0  0  0  0  0  0  0
  201.2500  174.4297  156.1851 H   0  0  0  0  0  0  0  0  0  0  0  0
  202.4897  174.9836  157.3191 H   0  0  0  0  0  0  0  0  0  0  0  0
  202.8648  174.8920  155.5946 H   0  0  0  0  0  0  0  0  0  0  0  0
  196.9415  180.2371  155.1842 H   0  0  0  0  0  0  0  0  0  0  0  0
  202.4302  177.1181  156.2612 H   0  0  0  0  0  0  0  0  0  0  0  0
  1  2  1  0
  1 10  1  0
  2  3  1  0
  2  9  2  0
  3  4  1  0
  3  6  2  0
  4  5  1  0
  5 30  1  1
  5 31  1  0
  5 32  1  0
  6  7  1  0
  6 33  1  0
  7  8  2  0
  7 34  1  0
  8  9  1  0
  8 35  1  0
  9 36  1  0
 10 11  1  0
 10 37  1  1
 10 38  1  0
 11 12  1  0
 11 15  2  0
 12 13  1  0
 13 14  2  0
 13 16  1  0
 14 15  1  0
 14 39  1  0
 15 40  1  0
 16 17  1  0
 16 41  1  6
 16 42  1  0
 17 18  1  0
 17 29  1  1
 17 57  1  0
 18 19  1  0
 18 43  1  1
 18 44  1  0
 19 20  2  0
 19 24  1  0
 20 21  1  0
 20 45  1  0
 21 22  2  0
 21 25  1  0
 22 23  1  0
 22 46  1  0
 23 24  2  0
 23 47  1  0
 24 48  1  0
 25 26  1  0
 25 49  1  6
 25 50  1  0
 26 27  1  0
 26 28  1  0
 26 58  1  1
 27 51  1  6
 27 52  1  0
 27 53  1  0
 28 54  1  6
 28 55  1  0
 28 56  1  0
M  CHG  2  17   1  26   1
M  END
>  <s_epik_cmdline>  (1388) 
J2VwaWtfcHl0aG9uJywgJy1waCcsICc3LjAwMDAwMCcsICctcGh0JywgJzIuMDAwMDAwJywgJy1tcycsICcxNicsICctdG4nLCAnOCcsICctbWEnLCAnMjAwJywgJy1pbWFlJywgJzxpbmZpbGUubWFlPicsICctb21hZScsICc8b3V0ZmlsZS5tYWU+Jw==

>  <s_epik_input>  (1388) 
W2NIXTFbY0hdW2NIXVtjSF1jKE9bQ0gzXSljMU9bQ0gyXWMyb2MoW2NIXVtjSF0yKVtDSDJdW05IXVtDSDJdYzNbY0hdYyhbY0hdW2NIXVtjSF0zKVtDSDJdTihbQ0gzXSlbQ0gzXQ==

>  <s_i_glide_gridfile>  (1388) 
ATP-Grid

>  <s_lp_Force_Field>  (1388) 
OPLS_2005

>  <s_lp_Variant>  (1388) 
m_270004bbb____8349656____24720270-1

>  <s_lp_label>  (1388) 
734_sdstereoexpander_1_neutralizer_1_epik_1_stereoizer_1

>  <s_m_source_file>  (1388) 
ATP-VSW-LIGPREP-001-in.maegz

>  <s_sd_BIOSOLVEIT.INFINISEE\_QUERY\_NAME>  (1388) 
Ref-Lig

>  <s_sd_BIOSOLVEIT.INFINISEE\_QUERY\_SMILES>  (1388) 
S(c1nc2c(cc1C[NH2+]Cc3ccc(cc3)C[NH+](C)C)cccc2)Cc4ccccc4

>  <s_sd_BIOSOLVEIT.INFINISEE\_REACTION\_NAME>  (1388) 
m_270004bbb

>  <s_sd_BIOSOLVEIT.INFINISEE\_REAGENT1\_SMILES>  (1388) 
[R1*]NCc1cc(ccc1)CN(C)C

>  <s_sd_BIOSOLVEIT.INFINISEE\_REAGENT2\_SMILES>  (1388) 
[R1*]CC=1OC(=CC1)COc2c(OC)cccc2

>  <s_sd_BIOSOLVEIT.INFINISEE\_SPACE>  (1388) 
REALSpace_44bn_2023-08

>  <s_vsw_compound_code>  (1388) 
23457

>  <s_vsw_variant>  (1388) 
23457-1

>  <r_epik_Charging_Adjusted_Penalty>  (1388) 
0.180880389925271

>  <r_epik_Ionization_Penalty>  (1388) 
0.090700000000000003

>  <r_epik_Ionization_Penalty_Charging>  (1388) 
0.090700000000000003

>  <r_epik_Ionization_Penalty_Neutral>  (1388) 
0

>  <r_epik_State_Penalty>  (1388) 
0.090200000000000002

>  <r_i_docking_score>  (1388) 
-5.1275646244703301

>  <r_i_glide_ecoul>  (1388) 
-14.709337234497101

>  <r_i_glide_eff_state_penalty>  (1388) 
0.090200000000000002

>  <r_i_glide_einternal>  (1388) 
5.5544953346252397

>  <r_i_glide_emodel>  (1388) 
-62.726820522077702

>  <r_i_glide_energy>  (1388) 
-42.1919651031494

>  <r_i_glide_erotb>  (1388) 
1.0620272489378499

>  <r_i_glide_esite>  (1388) 
-0.10000000000000001

>  <r_i_glide_evdw>  (1388) 
-27.482627868652301

>  <r_i_glide_gscore>  (1388) 
-5.2177646244703304

>  <r_i_glide_hbond>  (1388) 
-0.20000000000000001

>  <r_i_glide_ligand_efficiency>  (1388) 
-0.183127308016797

>  <r_i_glide_ligand_efficiency_ln>  (1388) 
-1.1835924671670099

>  <r_i_glide_ligand_efficiency_sa>  (1388) 
-0.55608236335542405

>  <r_i_glide_lipo>  (1388) 
-1.14809557661918

>  <r_i_glide_metal>  (1388) 
-0

>  <r_i_glide_rewards>  (1388) 
-1.2511643181818199

>  <r_lp_Energy>  (1388) 
20.793475000000001

>  <r_lp_tautomer_probability>  (1388) 
1

>  <r_qp_ACxDN^.5/SA>  (1388) 
0.0069887999999999999

>  <r_qp_CIQPlogS>  (1388) 
-3.6739999999999999

>  <r_qp_EA(eV)>  (1388) 
-0.222

>  <r_qp_FISA>  (1388) 
15.130000000000001

>  <r_qp_FOSA>  (1388) 
389.12400000000002

>  <r_qp_IP(eV)>  (1388) 
8.6690000000000005

>  <r_qp_Jm>  (1388) 
0.0030522661324139202

>  <r_qp_PISA>  (1388) 
382.71499999999997

>  <r_qp_PSA>  (1388) 
42.555

>  <r_qp_PercentHumanOralAbsorption>  (1388) 
100

>  <r_qp_QPPCaco>  (1388) 
442.81400000000002

>  <r_qp_QPPMDCK>  (1388) 
251.02500000000001

>  <r_qp_QPlogBB>  (1388) 
0.57899999999999996

>  <r_qp_QPlogHERG>  (1388) 
-8.8480000000000008

>  <r_qp_QPlogKhsa>  (1388) 
0.75800000000000001

>  <r_qp_QPlogKp>  (1388) 
-3.6150000000000002

>  <r_qp_QPlogPC16>  (1388) 
14.076000000000001

>  <r_qp_QPlogPo/w>  (1388) 
4.7199999999999998

>  <r_qp_QPlogPoct>  (1388) 
18.579000000000001

>  <r_qp_QPlogPw>  (1388) 
8.9949999999999992

>  <r_qp_QPlogS>  (1388) 
-4.4800000000000004

>  <r_qp_QPpolrz>  (1388) 
45.085999999999999

>  <r_qp_SASA>  (1388) 
786.96799999999996

>  <r_qp_SAamideO>  (1388) 
0

>  <r_qp_SAfluorine>  (1388) 
0

>  <r_qp_WPSA>  (1388) 
0

>  <r_qp_accptHB>  (1388) 
5.5

>  <r_qp_dip^2/V>  (1388) 
0.0012025

>  <r_qp_dipole>  (1388) 
1.274

>  <r_qp_donorHB>  (1388) 
1

>  <r_qp_glob>  (1388) 
0.75044699999999998

>  <r_qp_mol_MW>  (1388) 
380.48599999999999

>  <r_qp_volume>  (1388) 
1349.4860000000001

>  <r_sd_BIOSOLVEIT.INFINISEE\_FTREES\_SIMILARITY>  (1388) 
0.92700000000000005

>  <r_sd_BIOSOLVEIT.LOGP>  (1388) 
1.7753000000000001

>  <r_sd_BIOSOLVEIT.MOLECULAR\_WEIGHT>  (1388) 
382.50099999999998

>  <r_sd_BIOSOLVEIT.TPSA>  (1388) 
52.649999999999999

>  <i_epik_Tot_Q>  (1388) 
2

>  <i_epik_Tot_abs_Q>  (1388) 
2

>  <i_f3d_flags>  (1388) 
0

>  <i_i_glide_confnum>  (1388) 
7

>  <i_i_glide_lignum>  (1388) 
112

>  <i_i_glide_posenum>  (1388) 
17

>  <i_i_glide_rotatable_bonds>  (1388) 
10

>  <i_lp_mmshare_version>  (1388) 
65135

>  <i_m_ct_format>  (1388) 
2

>  <i_m_source_file_index>  (1388) 
734

>  <i_qp_#NandO>  (1388) 
5

>  <i_qp_#acid>  (1388) 
0

>  <i_qp_#amide>  (1388) 
0

>  <i_qp_#amidine>  (1388) 
0

>  <i_qp_#amine>  (1388) 
2

>  <i_qp_#in34>  (1388) 
0

>  <i_qp_#in56>  (1388) 
17

>  <i_qp_#metab>  (1388) 
9

>  <i_qp_#nonHatm>  (1388) 
28

>  <i_qp_#noncon>  (1388) 
0

>  <i_qp_#ringatoms>  (1388) 
17

>  <i_qp_#rotor>  (1388) 
10

>  <i_qp_#rtvFG>  (1388) 
0

>  <i_qp_#stars>  (1388) 
1

>  <i_qp_CNS>  (1388) 
2

>  <i_qp_HumanOralAbsorption>  (1388) 
3

>  <i_qp_RuleOfFive>  (1388) 
0

>  <i_qp_RuleOfThree>  (1388) 
1

>  <i_sd_BIOSOLVEIT.INFINISEE\_REAGENT1\_NAME>  (1388) 
8349656

>  <i_sd_BIOSOLVEIT.INFINISEE\_REAGENT2\_NAME>  (1388) 
24720270

>  <i_sd_BIOSOLVEIT.INFINISEE\_RESULT\_RANK>  (1388) 
6668

>  <i_sd_version>  (1388) 
0

>  <b_lp_Chiralities_Consistent>  (1388) 
1

>  <b_sd_chiral_flag>  (1388) 
0

>  <canonical_id>  (1388) 
ATP-HTVS-DB6DF45B456E

>  <compound_code>  (1388) 
23457

>  <title>  (1388) 
m_270004bbb____8349656____24720270

>  <variant>  (1388) 
23457-1

>  <source_file>  (1388) 
运行/运行/ATP-VSW/ATP-VSW-DOCK_HTVS_1-001_lib/ATP-VSW-DOCK_HTVS_1-001_lib

>  <canonical_smiles>  (1388) 
COc1ccccc1OCc1ccc(C[NH2+]Cc2cccc(C[NH+](C)C)c2)o1

>  <scaffold>  (1388) 
c1ccc(C[NH2+]Cc2ccc(COc3ccccc3)o2)cc1

>  <molecular_formula>  (1388) 
C23H30N2O3+2

$$$$
ATP-HTVS-DB94924E5291
     RDKit          3D

 64 67  0  0  0  0  0  0  0  0999 V2000
  198.3648  182.6971  148.1042 F   0  0  0  0  0  0  0  0  0  0  0  0
  199.5043  181.9642  148.0388 C   0  0  0  0  0  0  0  0  0  0  0  0
  200.4716  182.2574  147.0555 C   0  0  0  0  0  0  0  0  0  0  0  0
  200.2549  183.2976  146.1516 N   0  0  0  0  0  0  0  0  0  0  0  0
  201.6560  181.4998  146.9863 C   0  0  0  0  0  0  0  0  0  0  0  0
  201.8708  180.4483  147.8976 C   0  0  0  0  0  0  0  0  0  0  0  0
  200.9034  180.1573  148.8773 C   0  0  0  0  0  0  0  0  0  0  0  0
  199.7138  180.9117  148.9582 C   0  0  0  0  0  0  0  0  0  0  0  0
  198.7076  180.6102  149.9859 C   0  0  0  0  0  0  0  0  0  0  0  0
  197.6152  179.7401  149.7350 C   0  0  0  0  0  0  0  0  0  0  0  0
  196.6862  179.4838  150.7655 C   0  0  0  0  0  0  0  0  0  0  0  0
  196.8336  180.0637  152.0349 C   0  0  0  0  0  0  0  0  0  0  0  0
  197.9271  180.9163  152.2999 C   0  0  0  0  0  0  0  0  0  0  0  0
  198.1608  181.5363  153.5586 N   0  0  0  0  0  0  0  0  0  0  0  0
  197.6588  181.2288  154.7704 C   0  0  0  0  0  0  0  0  0  0  0  0
  196.8074  180.3640  154.9797 O   0  0  0  0  0  0  0  0  0  0  0  0
  198.2427  182.0484  155.8987 C   0  0  0  0  0  0  0  0  0  0  0  0
  197.4387  182.6537  156.9123 C   0  0  0  0  0  0  0  0  0  0  0  0
  198.0621  183.4346  157.9218 C   0  0  0  0  0  0  0  0  0  0  0  0
  199.4665  183.5196  157.9909 C   0  0  0  0  0  0  0  0  0  0  0  0
  200.2610  182.9020  157.0083 C   0  0  0  0  0  0  0  0  0  0  0  0
  199.6509  182.1919  155.9588 C   0  0  0  0  0  0  0  0  0  0  0  0
  195.9051  182.5532  156.9533 C   0  0  1  0  0  0  0  0  0  0  0  0
  195.3270  181.7189  158.0467 N   0  0  1  0  0  0  0  0  0  0  0  0
  195.9101  181.9331  159.3792 C   0  0  2  0  0  0  0  0  0  0  0  0
  193.8522  181.7500  158.1274 C   0  0  2  0  0  0  0  0  0  0  0  0
  198.8449  181.1919  151.2640 C   0  0  0  0  0  0  0  0  0  0  0  0
  197.4483  179.0565  148.3772 C   0  0  2  0  0  0  0  0  0  0  0  0
  196.0385  178.8179  148.0173 C   0  0  0  0  0  0  0  0  0  0  0  0
  194.9303  178.6412  147.7311 N   0  0  0  0  0  0  0  0  0  0  0  0
  198.2682  177.7834  148.2554 C   0  0  0  0  0  0  0  0  0  0  0  0
  198.9579  177.5038  147.0589 C   0  0  0  0  0  0  0  0  0  0  0  0
  199.7117  176.3226  146.9320 C   0  0  0  0  0  0  0  0  0  0  0  0
  199.7711  175.4128  148.0103 C   0  0  0  0  0  0  0  0  0  0  0  0
  199.0925  175.6911  149.2084 C   0  0  0  0  0  0  0  0  0  0  0  0
  198.3422  176.8713  149.3354 C   0  0  0  0  0  0  0  0  0  0  0  0
  200.9548  183.5714  145.4774 H   0  0  0  0  0  0  0  0  0  0  0  0
  199.4380  183.8853  146.2311 H   0  0  0  0  0  0  0  0  0  0  0  0
  202.4021  181.7174  146.2363 H   0  0  0  0  0  0  0  0  0  0  0  0
  202.7787  179.8655  147.8440 H   0  0  0  0  0  0  0  0  0  0  0  0
  201.0754  179.3477  149.5719 H   0  0  0  0  0  0  0  0  0  0  0  0
  195.8562  178.8170  150.6069 H   0  0  0  0  0  0  0  0  0  0  0  0
  196.0937  179.8171  152.7811 H   0  0  0  0  0  0  0  0  0  0  0  0
  198.8642  182.2581  153.5659 H   0  0  0  0  0  0  0  0  0  0  0  0
  197.4854  183.9738  158.6564 H   0  0  0  0  0  0  0  0  0  0  0  0
  199.9198  184.0304  158.8286 H   0  0  0  0  0  0  0  0  0  0  0  0
  201.3420  182.9609  157.0741 H   0  0  0  0  0  0  0  0  0  0  0  0
  200.2780  181.7225  155.2161 H   0  0  0  0  0  0  0  0  0  0  0  0
  195.5216  183.5694  157.0257 H   0  0  0  0  0  0  0  0  0  0  0  0
  195.5627  182.1430  156.0122 H   0  0  0  0  0  0  0  0  0  0  0  0
  195.7526  182.9571  159.7246 H   0  0  0  0  0  0  0  0  0  0  0  0
  196.9675  181.7019  159.3129 H   0  0  0  0  0  0  0  0  0  0  0  0
  195.4471  181.2469  160.1135 H   0  0  0  0  0  0  0  0  0  0  0  0
  193.4826  182.7515  158.3549 H   0  0  0  0  0  0  0  0  0  0  0  0
  193.4989  181.0653  158.8997 H   0  0  0  0  0  0  0  0  0  0  0  0
  193.3965  181.4089  157.1983 H   0  0  0  0  0  0  0  0  0  0  0  0
  199.6855  181.8454  151.4511 H   0  0  0  0  0  0  0  0  0  0  0  0
  197.8045  179.7460  147.6150 H   0  0  0  0  0  0  0  0  0  0  0  0
  198.9062  178.1912  146.2238 H   0  0  0  0  0  0  0  0  0  0  0  0
  200.2271  176.1069  146.0126 H   0  0  0  0  0  0  0  0  0  0  0  0
  200.3302  174.4936  147.9145 H   0  0  0  0  0  0  0  0  0  0  0  0
  199.1325  174.9947  150.0332 H   0  0  0  0  0  0  0  0  0  0  0  0
  197.8226  177.0591  150.2599 H   0  0  0  0  0  0  0  0  0  0  0  0
  195.5453  180.7499  157.8213 H   0  0  0  0  0  0  0  0  0  0  0  0
  1  2  1  0
  2  3  1  0
  2  8  2  0
  3  4  1  0
  3  5  2  0
  4 37  1  0
  4 38  1  0
  5  6  1  0
  5 39  1  0
  6  7  2  0
  6 40  1  0
  7  8  1  0
  7 41  1  0
  8  9  1  0
  9 10  2  0
  9 27  1  0
 10 11  1  0
 10 28  1  0
 11 12  2  0
 11 42  1  0
 12 13  1  0
 12 43  1  0
 13 14  1  0
 13 27  2  0
 14 15  1  0
 14 44  1  0
 15 16  2  0
 15 17  1  0
 17 18  1  0
 17 22  2  0
 18 19  2  0
 18 23  1  0
 19 20  1  0
 19 45  1  0
 20 21  2  0
 20 46  1  0
 21 22  1  0
 21 47  1  0
 22 48  1  0
 23 24  1  0
 23 49  1  1
 23 50  1  0
 24 25  1  0
 24 26  1  0
 24 64  1  6
 25 51  1  1
 25 52  1  0
 25 53  1  0
 26 54  1  1
 26 55  1  0
 26 56  1  0
 27 57  1  0
 28 29  1  0
 28 31  1  0
 28 58  1  6
 29 30  3  0
 31 32  2  0
 31 36  1  0
 32 33  1  0
 32 59  1  0
 33 34  2  0
 33 60  1  0
 34 35  1  0
 34 61  1  0
 35 36  2  0
 35 62  1  0
 36 63  1  0
M  CHG  1  24   1
M  END
>  <s_epik_cmdline>  (1389) 
J2VwaWtfcHl0aG9uJywgJy1waCcsICc3LjAwMDAwMCcsICctcGh0JywgJzIuMDAwMDAwJywgJy1tcycsICcxNicsICctdG4nLCAnOCcsICctbWEnLCAnMjAwJywgJy1pbWFlJywgJzxpbmZpbGUubWFlPicsICctb21hZScsICc8b3V0ZmlsZS5tYWU+Jw==

>  <s_epik_input>  (1389) 
RmMxYyhbTkgyXSlbY0hdW2NIXVtjSF1jMS1jMmMoW0NASF0oQyNOKWMzW2NIXVtjSF1bY0hdW2NIXVtjSF0zKVtjSF1bY0hdYyhbY0hdMilbTkhdQyg9TyljNGMoW0NIMl1OKFtDSDNdKVtDSDNdKVtjSF1bY0hdW2NIXVtjSF00

>  <s_i_glide_gridfile>  (1389) 
ATP-Grid

>  <s_lp_Force_Field>  (1389) 
OPLS_2005

>  <s_lp_Variant>  (1389) 
rxn501c____EMOL5415347____EMOL713289____EMOL261548662-1

>  <s_lp_label>  (1389) 
2987_sdstereoexpander_1_neutralizer_1_epik_1_stereoizer_1

>  <s_m_source_file>  (1389) 
ATP-VSW-LIGPREP-001-in.maegz

>  <s_sd_BIOSOLVEIT.INFINISEE\_QUERY\_NAME>  (1389) 
Ref-Lig

>  <s_sd_BIOSOLVEIT.INFINISEE\_QUERY\_SMILES>  (1389) 
S(c1nc2c(cc1C[NH2+]Cc3ccc(cc3)C[NH+](C)C)cccc2)Cc4ccccc4

>  <s_sd_BIOSOLVEIT.INFINISEE\_REACTION\_NAME>  (1389) 
rxn501c

>  <s_sd_BIOSOLVEIT.INFINISEE\_REAGENT1\_NAME>  (1389) 
EMOL5415347

>  <s_sd_BIOSOLVEIT.INFINISEE\_REAGENT1\_SMILES>  (1389) 
O=C(O)c1c(cccc1)CN(C)C

>  <s_sd_BIOSOLVEIT.INFINISEE\_REAGENT2\_NAME>  (1389) 
EMOL713289

>  <s_sd_BIOSOLVEIT.INFINISEE\_REAGENT2\_SMILES>  (1389) 
Clc1c(ccc(N)c1)C(C#N)c2ccccc2

>  <s_sd_BIOSOLVEIT.INFINISEE\_REAGENT3\_NAME>  (1389) 
EMOL261548662

>  <s_sd_BIOSOLVEIT.INFINISEE\_REAGENT3\_SMILES>  (1389) 
Fc1c(N)cccc1B(O)O

>  <s_sd_BIOSOLVEIT.INFINISEE\_SPACE>  (1389) 
eXplore_7tr_2022-12

>  <s_vsw_compound_code>  (1389) 
95553

>  <s_vsw_variant>  (1389) 
95553-1

>  <r_epik_Charging_Adjusted_Penalty>  (1389) 
0.118481965668325

>  <r_epik_Ionization_Penalty>  (1389) 
0.059299999999999999

>  <r_epik_Ionization_Penalty_Charging>  (1389) 
0.059200000000000003

>  <r_epik_Ionization_Penalty_Neutral>  (1389) 
0.0001

>  <r_epik_State_Penalty>  (1389) 
0.059200000000000003

>  <r_i_docking_score>  (1389) 
-4.17672555543197

>  <r_i_glide_ecoul>  (1389) 
-8.8479175567627006

>  <r_i_glide_eff_state_penalty>  (1389) 
0.059200000000000003

>  <r_i_glide_einternal>  (1389) 
3.9339261054992698

>  <r_i_glide_emodel>  (1389) 
-50.727115261121902

>  <r_i_glide_energy>  (1389) 
-37.93701171875

>  <r_i_glide_erotb>  (1389) 
0.617034797925612

>  <r_i_glide_esite>  (1389) 
-0.124675372226104

>  <r_i_glide_evdw>  (1389) 
-29.089094161987301

>  <r_i_glide_gscore>  (1389) 
-4.2359255554319697

>  <r_i_glide_hbond>  (1389) 
-0.20000000000000001

>  <r_i_glide_ligand_efficiency>  (1389) 
-0.116020154317555

>  <r_i_glide_ligand_efficiency_ln>  (1389) 
-0.91124867411125698

>  <r_i_glide_ligand_efficiency_sa>  (1389) 
-0.38309010850448999

>  <r_i_glide_lipo>  (1389) 
-1.17708191205196

>  <r_i_glide_metal>  (1389) 
-0

>  <r_i_glide_rewards>  (1389) 
-0.56956072746574604

>  <r_lp_Energy>  (1389) 
39.277763

>  <r_qp_ACxDN^.5/SA>  (1389) 
0.013872499999999999

>  <r_qp_CIQPlogS>  (1389) 
-7.4320000000000004

>  <r_qp_EA(eV)>  (1389) 
0.40699999999999997

>  <r_qp_FISA>  (1389) 
146.42599999999999

>  <r_qp_FOSA>  (1389) 
157.43000000000001

>  <r_qp_IP(eV)>  (1389) 
8.5009999999999994

>  <r_qp_Jm>  (1389) 
2.9760524509097799e-05

>  <r_qp_PISA>  (1389) 
473.57400000000001

>  <r_qp_PSA>  (1389) 
87.799000000000007

>  <r_qp_PercentHumanOralAbsorption>  (1389) 
89.823999999999998

>  <r_qp_QPPCaco>  (1389) 
100.98099999999999

>  <r_qp_QPPMDCK>  (1389) 
59.390000000000001

>  <r_qp_QPlogBB>  (1389) 
-1.081

>  <r_qp_QPlogHERG>  (1389) 
-7.8600000000000003

>  <r_qp_QPlogKhsa>  (1389) 
0.84999999999999998

>  <r_qp_QPlogKp>  (1389) 
-3.7480000000000002

>  <r_qp_QPlogPC16>  (1389) 
16.988

>  <r_qp_QPlogPo/w>  (1389) 
4.6120000000000001

>  <r_qp_QPlogPoct>  (1389) 
26.300999999999998

>  <r_qp_QPlogPw>  (1389) 
14.435

>  <r_qp_QPlogS>  (1389) 
-6.4580000000000002

>  <r_qp_QPpolrz>  (1389) 
52.514000000000003

>  <r_qp_SASA>  (1389) 
797.83500000000004

>  <r_qp_SAamideO>  (1389) 
0

>  <r_qp_SAfluorine>  (1389) 
20.405000000000001

>  <r_qp_WPSA>  (1389) 
20.405000000000001

>  <r_qp_accptHB>  (1389) 
7

>  <r_qp_dip^2/V>  (1389) 
0.069172700000000004

>  <r_qp_dipole>  (1389) 
10.177

>  <r_qp_donorHB>  (1389) 
2.5

>  <r_qp_glob>  (1389) 
0.79335489999999997

>  <r_qp_mol_MW>  (1389) 
478.56799999999998

>  <r_qp_volume>  (1389) 
1497.3499999999999

>  <r_sd_BIOSOLVEIT.INFINISEE\_FTREES\_SIMILARITY>  (1389) 
0.90300000000000002

>  <r_sd_BIOSOLVEIT.LOGP>  (1389) 
4.6271800000000001

>  <r_sd_BIOSOLVEIT.MOLECULAR\_WEIGHT>  (1389) 
479.57600000000002

>  <r_sd_BIOSOLVEIT.TPSA>  (1389) 
83.349999999999994

>  <i_epik_Tot_Q>  (1389) 
1

>  <i_epik_Tot_abs_Q>  (1389) 
1

>  <i_f3d_flags>  (1389) 
0

>  <i_i_glide_confnum>  (1389) 
3

>  <i_i_glide_lignum>  (1389) 
1422

>  <i_i_glide_posenum>  (1389) 
14

>  <i_i_glide_rotatable_bonds>  (1389) 
8

>  <i_lp_mmshare_version>  (1389) 
65135

>  <i_m_ct_format>  (1389) 
2

>  <i_m_source_file_index>  (1389) 
2987

>  <i_qp_#NandO>  (1389) 
5

>  <i_qp_#acid>  (1389) 
0

>  <i_qp_#amide>  (1389) 
0

>  <i_qp_#amidine>  (1389) 
0

>  <i_qp_#amine>  (1389) 
1

>  <i_qp_#in34>  (1389) 
0

>  <i_qp_#in56>  (1389) 
24

>  <i_qp_#metab>  (1389) 
5

>  <i_qp_#nonHatm>  (1389) 
36

>  <i_qp_#noncon>  (1389) 
0

>  <i_qp_#ringatoms>  (1389) 
24

>  <i_qp_#rotor>  (1389) 
9

>  <i_qp_#rtvFG>  (1389) 
0

>  <i_qp_#stars>  (1389) 
1

>  <i_qp_CNS>  (1389) 
-2

>  <i_qp_HumanOralAbsorption>  (1389) 
1

>  <i_qp_RuleOfFive>  (1389) 
0

>  <i_qp_RuleOfThree>  (1389) 
1

>  <i_sd_BIOSOLVEIT.INFINISEE\_RESULT\_RANK>  (1389) 
84425

>  <i_sd_version>  (1389) 
0

>  <b_lp_Chiralities_Consistent>  (1389) 
1

>  <b_sd_chiral_flag>  (1389) 
0

>  <canonical_id>  (1389) 
ATP-HTVS-DB94924E5291

>  <compound_code>  (1389) 
95553

>  <title>  (1389) 
rxn501c____EMOL5415347____EMOL713289____EMOL261548662

>  <variant>  (1389) 
95553-1

>  <source_file>  (1389) 
运行/运行/ATP-VSW/ATP-VSW-DOCK_HTVS_1-001_lib/ATP-VSW-DOCK_HTVS_1-001_lib

>  <canonical_smiles>  (1389) 
C[NH+](C)Cc1ccccc1C(=O)Nc1ccc([C@H](C#N)c2ccccc2)c(-c2cccc(N)c2F)c1

>  <scaffold>  (1389) 
O=C(Nc1ccc(Cc2ccccc2)c(-c2ccccc2)c1)c1ccccc1

>  <molecular_formula>  (1389) 
C30H28FN4O+

$$$$
ATP-HTVS-DB99DC1A003A
     RDKit          3D

 55 58  0  0  0  0  0  0  0  0999 V2000
  197.6853  183.6412  155.4523 O   0  0  0  0  0  0  0  0  0  0  0  0
  197.4076  182.4987  155.8281 C   0  0  0  0  0  0  0  0  0  0  0  0
  196.7056  182.2177  156.9346 N   0  0  0  0  0  0  0  0  0  0  0  0
  196.1989  183.1700  157.8601 C   0  0  0  0  0  0  0  0  0  0  0  0
  196.9577  184.2956  158.2560 C   0  0  0  0  0  0  0  0  0  0  0  0
  196.4359  185.2150  159.1841 C   0  0  0  0  0  0  0  0  0  0  0  0
  195.1493  185.0205  159.7196 C   0  0  0  0  0  0  0  0  0  0  0  0
  194.3840  183.9129  159.3119 C   0  0  0  0  0  0  0  0  0  0  0  0
  194.9157  182.9763  158.4026 C   0  0  0  0  0  0  0  0  0  0  0  0
  197.2681  186.3917  159.6185 C   0  0  1  0  0  0  0  0  0  0  0  0
  196.9376  187.6567  158.8108 C   0  0  1  0  0  0  0  0  0  0  0  0
  197.6848  188.8476  159.2911 N   0  0  1  0  0  0  0  0  0  0  0  0
  197.7436  189.9274  158.2782 C   0  0  2  0  0  0  0  0  0  0  0  0
  197.1792  189.3592  160.5865 C   0  0  2  0  0  0  0  0  0  0  0  0
  197.8408  181.3099  155.0286 C   0  0  0  0  0  0  0  0  0  0  0  0
  197.5228  181.1387  153.6565 C   0  0  0  0  0  0  0  0  0  0  0  0
  197.9871  179.9619  153.0009 C   0  0  0  0  0  0  0  0  0  0  0  0
  198.7375  179.0367  153.6368 N   0  0  0  0  0  0  0  0  0  0  0  0
  199.0644  179.1987  154.9378 C   0  0  0  0  0  0  0  0  0  0  0  0
  199.8983  178.1306  155.5477 C   0  0  0  0  0  0  0  0  0  0  0  0
  200.3538  178.3708  156.8014 N   0  0  0  0  0  0  0  0  0  0  0  0
  201.1098  177.4378  157.4124 C   0  0  0  0  0  0  0  0  0  0  0  0
  201.4694  176.2192  156.8082 C   0  0  0  0  0  0  0  0  0  0  0  0
  201.0061  175.9603  155.5091 C   0  0  0  0  0  0  0  0  0  0  0  0
  200.2103  176.9267  154.8686 C   0  0  0  0  0  0  0  0  0  0  0  0
  198.6294  180.3259  155.6629 C   0  0  0  0  0  0  0  0  0  0  0  0
  197.6564  179.7490  151.6469 C   0  0  0  0  0  0  0  0  0  0  0  0
  196.8769  180.6768  150.9345 C   0  0  0  0  0  0  0  0  0  0  0  0
  196.4202  181.8407  151.5768 C   0  0  0  0  0  0  0  0  0  0  0  0
  196.7438  182.0733  152.9238 C   0  0  0  0  0  0  0  0  0  0  0  0
  196.4075  181.2525  157.0641 H   0  0  0  0  0  0  0  0  0  0  0  0
  197.9510  184.4718  157.8570 H   0  0  0  0  0  0  0  0  0  0  0  0
  194.7327  185.7215  160.4312 H   0  0  0  0  0  0  0  0  0  0  0  0
  193.3771  183.8016  159.6894 H   0  0  0  0  0  0  0  0  0  0  0  0
  194.3320  182.1368  158.0723 H   0  0  0  0  0  0  0  0  0  0  0  0
  197.0975  186.5092  160.6848 H   0  0  0  0  0  0  0  0  0  0  0  0
  198.3235  186.1521  159.5001 H   0  0  0  0  0  0  0  0  0  0  0  0
  197.1831  187.4655  157.7645 H   0  0  0  0  0  0  0  0  0  0  0  0
  195.8644  187.8737  158.8255 H   0  0  0  0  0  0  0  0  0  0  0  0
  196.7427  190.2750  158.0173 H   0  0  0  0  0  0  0  0  0  0  0  0
  198.2386  189.5862  157.3676 H   0  0  0  0  0  0  0  0  0  0  0  0
  198.3075  190.7786  158.6629 H   0  0  0  0  0  0  0  0  0  0  0  0
  196.1392  189.6694  160.4998 H   0  0  0  0  0  0  0  0  0  0  0  0
  197.7733  190.2099  160.9193 H   0  0  0  0  0  0  0  0  0  0  0  0
  197.2399  188.6095  161.3719 H   0  0  0  0  0  0  0  0  0  0  0  0
  201.4471  177.6732  158.4098 H   0  0  0  0  0  0  0  0  0  0  0  0
  202.0823  175.5044  157.3321 H   0  0  0  0  0  0  0  0  0  0  0  0
  201.2567  175.0338  155.0118 H   0  0  0  0  0  0  0  0  0  0  0  0
  199.8410  176.7421  153.8723 H   0  0  0  0  0  0  0  0  0  0  0  0
  198.9016  180.4362  156.7009 H   0  0  0  0  0  0  0  0  0  0  0  0
  198.0128  178.8589  151.1572 H   0  0  0  0  0  0  0  0  0  0  0  0
  196.6363  180.4979  149.8965 H   0  0  0  0  0  0  0  0  0  0  0  0
  195.8153  182.5571  151.0386 H   0  0  0  0  0  0  0  0  0  0  0  0
  196.3616  182.9694  153.3871 H   0  0  0  0  0  0  0  0  0  0  0  0
  198.6407  188.5558  159.4388 H   0  0  0  0  0  0  0  0  0  0  0  0
  1  2  2  0
  2  3  1  0
  2 15  1  0
  3  4  1  0
  3 31  1  0
  4  5  2  0
  4  9  1  0
  5  6  1  0
  5 32  1  0
  6  7  2  0
  6 10  1  0
  7  8  1  0
  7 33  1  0
  8  9  2  0
  8 34  1  0
  9 35  1  0
 10 11  1  0
 10 36  1  1
 10 37  1  0
 11 12  1  0
 11 38  1  6
 11 39  1  0
 12 13  1  0
 12 14  1  0
 12 55  1  1
 13 40  1  6
 13 41  1  0
 13 42  1  0
 14 43  1  6
 14 44  1  0
 14 45  1  0
 15 16  1  0
 15 26  2  0
 16 17  1  0
 16 30  2  0
 17 18  1  0
 17 27  2  0
 18 19  2  0
 19 20  1  0
 19 26  1  0
 20 21  1  0
 20 25  2  0
 21 22  2  0
 22 23  1  0
 22 46  1  0
 23 24  2  0
 23 47  1  0
 24 25  1  0
 24 48  1  0
 25 49  1  0
 26 50  1  0
 27 28  1  0
 27 51  1  0
 28 29  2  0
 28 52  1  0
 29 30  1  0
 29 53  1  0
 30 54  1  0
M  CHG  1  12   1
M  END
>  <s_epik_cmdline>  (1390) 
J2VwaWtfcHl0aG9uJywgJy1waCcsICc3LjAwMDAwMCcsICctcGh0JywgJzIuMDAwMDAwJywgJy1tcycsICcxNicsICctdG4nLCAnOCcsICctbWEnLCAnMjAwJywgJy1pbWFlJywgJzxpbmZpbGUubWFlPicsICctb21hZScsICc8b3V0ZmlsZS5tYWU+Jw==

>  <s_epik_input>  (1390) 
W0NIM11OKFtDSDNdKVtDSDJdW0NIMl1jKFtjSF1bY0hdW2NIXTEpW2NIXWMxW05IXUMoPU8pYzJbY0hdYyhuYyhjMjMpW2NIXVtjSF1bY0hdW2NIXTMpLWM0bltjSF1bY0hdW2NIXVtjSF00

>  <s_i_glide_gridfile>  (1390) 
ATP-Grid

>  <s_lp_Force_Field>  (1390) 
OPLS_2005

>  <s_lp_Variant>  (1390) 
m_22bbe____21011074____59141-1

>  <s_lp_label>  (1390) 
2112_sdstereoexpander_1_neutralizer_1_epik_1_stereoizer_1

>  <s_m_source_file>  (1390) 
ATP-VSW-LIGPREP-001-in.maegz

>  <s_sd_BIOSOLVEIT.INFINISEE\_QUERY\_NAME>  (1390) 
Ref-Lig

>  <s_sd_BIOSOLVEIT.INFINISEE\_QUERY\_SMILES>  (1390) 
S(c1nc2c(cc1C[NH2+]Cc3ccc(cc3)C[NH+](C)C)cccc2)Cc4ccccc4

>  <s_sd_BIOSOLVEIT.INFINISEE\_REACTION\_NAME>  (1390) 
m_22bbe

>  <s_sd_BIOSOLVEIT.INFINISEE\_REAGENT1\_SMILES>  (1390) 
[R1*]Nc1cc(ccc1)CCN(C)C

>  <s_sd_BIOSOLVEIT.INFINISEE\_REAGENT2\_SMILES>  (1390) 
[R1*]C(=O)c1c2c(nc(c3ncccc3)c1)cccc2

>  <s_sd_BIOSOLVEIT.INFINISEE\_SPACE>  (1390) 
REALSpace_44bn_2023-08

>  <s_vsw_compound_code>  (1390) 
67553

>  <s_vsw_variant>  (1390) 
67553-1

>  <r_epik_Charging_Adjusted_Penalty>  (1390) 
0.0083786032408328607

>  <r_epik_Ionization_Penalty>  (1390) 
0.0045999999999999999

>  <r_epik_Ionization_Penalty_Charging>  (1390) 
0.0041999999999999997

>  <r_epik_Ionization_Penalty_Neutral>  (1390) 
0.00040000000000000002

>  <r_epik_State_Penalty>  (1390) 
0.0041999999999999997

>  <r_i_docking_score>  (1390) 
-4.7860798173893597

>  <r_i_glide_ecoul>  (1390) 
-4.8514447212219203

>  <r_i_glide_eff_state_penalty>  (1390) 
0.0041999999999999997

>  <r_i_glide_einternal>  (1390) 
4.3236865997314498

>  <r_i_glide_emodel>  (1390) 
-60.860076421852803

>  <r_i_glide_energy>  (1390) 
-45.108299732208302

>  <r_i_glide_erotb>  (1390) 
0.74336557954494098

>  <r_i_glide_esite>  (1390) 
-0.093184116404256806

>  <r_i_glide_evdw>  (1390) 
-40.2568550109863

>  <r_i_glide_gscore>  (1390) 
-4.7902798173893597

>  <r_i_glide_hbond>  (1390) 
-0.019131517831999099

>  <r_i_glide_ligand_efficiency>  (1390) 
-0.15953599391297901

>  <r_i_glide_ligand_efficiency_ln>  (1390) 
-1.0874494830272401

>  <r_i_glide_ligand_efficiency_sa>  (1390) 
-0.49571542559405601

>  <r_i_glide_lipo>  (1390) 
-1.9818534857836201

>  <r_i_glide_metal>  (1390) 
-0

>  <r_i_glide_rewards>  (1390) 
-0.69891681818181695

>  <r_lp_Energy>  (1390) 
36.263679000000003

>  <r_qp_ACxDN^.5/SA>  (1390) 
0.0084469999999999996

>  <r_qp_CIQPlogS>  (1390) 
-4.9450000000000003

>  <r_qp_EA(eV)>  (1390) 
1.319

>  <r_qp_FISA>  (1390) 
60.765000000000001

>  <r_qp_FOSA>  (1390) 
207.99799999999999

>  <r_qp_IP(eV)>  (1390) 
8.8450000000000006

>  <r_qp_Jm>  (1390) 
0.0039248997071469

>  <r_qp_PISA>  (1390) 
500.74400000000003

>  <r_qp_PSA>  (1390) 
58.552

>  <r_qp_PercentHumanOralAbsorption>  (1390) 
100

>  <r_qp_QPPCaco>  (1390) 
655.48299999999995

>  <r_qp_QPPMDCK>  (1390) 
346.69999999999999

>  <r_qp_QPlogBB>  (1390) 
-0.088999999999999996

>  <r_qp_QPlogHERG>  (1390) 
-8.4190000000000005

>  <r_qp_QPlogKhsa>  (1390) 
0.71899999999999997

>  <r_qp_QPlogKp>  (1390) 
-2.3620000000000001

>  <r_qp_QPlogPC16>  (1390) 
15.115

>  <r_qp_QPlogPo/w>  (1390) 
4.6360000000000001

>  <r_qp_QPlogPoct>  (1390) 
21.286000000000001

>  <r_qp_QPlogPw>  (1390) 
11.933999999999999

>  <r_qp_QPlogS>  (1390) 
-5.6420000000000003

>  <r_qp_QPpolrz>  (1390) 
48.712000000000003

>  <r_qp_SASA>  (1390) 
769.50800000000004

>  <r_qp_SAamideO>  (1390) 
0

>  <r_qp_SAfluorine>  (1390) 
0

>  <r_qp_WPSA>  (1390) 
0

>  <r_qp_accptHB>  (1390) 
6.5

>  <r_qp_dip^2/V>  (1390) 
0.0204272

>  <r_qp_dipole>  (1390) 
5.2469999999999999

>  <r_qp_donorHB>  (1390) 
1

>  <r_qp_glob>  (1390) 
0.76680970000000004

>  <r_qp_mol_MW>  (1390) 
396.49099999999999

>  <r_qp_volume>  (1390) 
1347.731

>  <r_sd_BIOSOLVEIT.INFINISEE\_FTREES\_SIMILARITY>  (1390) 
0.90100000000000002

>  <r_sd_BIOSOLVEIT.LOGP>  (1390) 
3.2361

>  <r_sd_BIOSOLVEIT.MOLECULAR\_WEIGHT>  (1390) 
397.5

>  <r_sd_BIOSOLVEIT.TPSA>  (1390) 
59.32

>  <i_epik_Tot_Q>  (1390) 
1

>  <i_epik_Tot_abs_Q>  (1390) 
1

>  <i_f3d_flags>  (1390) 
0

>  <i_i_glide_confnum>  (1390) 
6

>  <i_i_glide_lignum>  (1390) 
663

>  <i_i_glide_posenum>  (1390) 
10

>  <i_i_glide_rotatable_bonds>  (1390) 
7

>  <i_lp_mmshare_version>  (1390) 
65135

>  <i_m_ct_format>  (1390) 
2

>  <i_m_source_file_index>  (1390) 
2112

>  <i_qp_#NandO>  (1390) 
5

>  <i_qp_#acid>  (1390) 
0

>  <i_qp_#amide>  (1390) 
0

>  <i_qp_#amidine>  (1390) 
0

>  <i_qp_#amine>  (1390) 
1

>  <i_qp_#in34>  (1390) 
0

>  <i_qp_#in56>  (1390) 
22

>  <i_qp_#metab>  (1390) 
4

>  <i_qp_#nonHatm>  (1390) 
30

>  <i_qp_#noncon>  (1390) 
0

>  <i_qp_#ringatoms>  (1390) 
22

>  <i_qp_#rotor>  (1390) 
6

>  <i_qp_#rtvFG>  (1390) 
0

>  <i_qp_#stars>  (1390) 
1

>  <i_qp_CNS>  (1390) 
1

>  <i_qp_HumanOralAbsorption>  (1390) 
3

>  <i_qp_RuleOfFive>  (1390) 
0

>  <i_qp_RuleOfThree>  (1390) 
0

>  <i_sd_BIOSOLVEIT.INFINISEE\_REAGENT1\_NAME>  (1390) 
21011074

>  <i_sd_BIOSOLVEIT.INFINISEE\_REAGENT2\_NAME>  (1390) 
59141

>  <i_sd_BIOSOLVEIT.INFINISEE\_RESULT\_RANK>  (1390) 
97991

>  <i_sd_version>  (1390) 
0

>  <b_lp_Chiralities_Consistent>  (1390) 
1

>  <b_sd_chiral_flag>  (1390) 
0

>  <canonical_id>  (1390) 
ATP-HTVS-DB99DC1A003A

>  <compound_code>  (1390) 
67553

>  <title>  (1390) 
m_22bbe____21011074____59141

>  <variant>  (1390) 
67553-1

>  <source_file>  (1390) 
运行/运行/ATP-VSW/ATP-VSW-DOCK_HTVS_1-001_lib/ATP-VSW-DOCK_HTVS_1-001_lib

>  <canonical_smiles>  (1390) 
C[NH+](C)CCc1cccc(NC(=O)c2cc(-c3ccccn3)nc3ccccc23)c1

>  <scaffold>  (1390) 
O=C(Nc1ccccc1)c1cc(-c2ccccn2)nc2ccccc12

>  <molecular_formula>  (1390) 
C25H25N4O+

$$$$
ATP-HTVS-DBA84DBB4449
     RDKit          3D

 50 53  0  0  0  0  0  0  0  0999 V2000
  198.9614  186.9746  155.0850 N   0  0  0  0  0  0  0  0  0  0  0  0
  198.5978  185.9446  154.2949 C   0  0  0  0  0  0  0  0  0  0  0  0
  198.1698  184.7492  154.8986 N   0  0  0  0  0  0  0  0  0  0  0  0
  198.0055  184.4055  156.2530 C   0  0  0  0  0  0  0  0  0  0  0  0
  197.1002  183.3671  156.5584 C   0  0  0  0  0  0  0  0  0  0  0  0
  196.8889  182.9646  157.8969 C   0  0  0  0  0  0  0  0  0  0  0  0
  197.5884  183.5988  158.9445 C   0  0  0  0  0  0  0  0  0  0  0  0
  198.4973  184.6288  158.6459 C   0  0  0  0  0  0  0  0  0  0  0  0
  198.7149  185.0183  157.3135 C   0  0  0  0  0  0  0  0  0  0  0  0
  195.9051  181.8489  158.2033 C   0  0  1  0  0  0  0  0  0  0  0  0
  194.4872  182.2906  158.1343 N   0  0  1  0  0  0  0  0  0  0  0  0
  193.5483  181.1651  158.3215 C   0  0  2  0  0  0  0  0  0  0  0  0
  194.1733  183.4491  158.9967 C   0  0  2  0  0  0  0  0  0  0  0  0
  198.6669  186.0612  152.8781 C   0  0  0  0  0  0  0  0  0  0  0  0
  199.1243  187.2024  152.3017 N   0  0  0  0  0  0  0  0  0  0  0  0
  199.4973  188.2299  153.1012 C   0  0  0  0  0  0  0  0  0  0  0  0
  199.4209  188.1058  154.5168 C   0  0  0  0  0  0  0  0  0  0  0  0
  199.8373  189.1787  155.3300 C   0  0  0  0  0  0  0  0  0  0  0  0
  200.3050  190.3793  154.7649 C   0  0  0  0  0  0  0  0  0  0  0  0
  200.3523  190.5137  153.3649 C   0  0  0  0  0  0  0  0  0  0  0  0
  199.9591  189.4399  152.5413 C   0  0  0  0  0  0  0  0  0  0  0  0
  198.2558  184.9974  151.9266 C   0  0  0  0  0  0  0  0  0  0  0  0
  199.0496  184.7000  150.7923 C   0  0  0  0  0  0  0  0  0  0  0  0
  198.6760  183.6877  149.8859 C   0  0  0  0  0  0  0  0  0  0  0  0
  197.5029  182.9409  150.1038 C   0  0  0  0  0  0  0  0  0  0  0  0
  196.7033  183.2181  151.2272 C   0  0  0  0  0  0  0  0  0  0  0  0
  197.0751  184.2387  152.1178 C   0  0  0  0  0  0  0  0  0  0  0  0
  197.7999  184.0753  154.2384 H   0  0  0  0  0  0  0  0  0  0  0  0
  196.5497  182.8726  155.7677 H   0  0  0  0  0  0  0  0  0  0  0  0
  197.4409  183.2946  159.9729 H   0  0  0  0  0  0  0  0  0  0  0  0
  199.0411  185.1236  159.4346 H   0  0  0  0  0  0  0  0  0  0  0  0
  199.4544  185.7865  157.1436 H   0  0  0  0  0  0  0  0  0  0  0  0
  196.0980  181.0540  157.4828 H   0  0  0  0  0  0  0  0  0  0  0  0
  196.1193  181.4354  159.1916 H   0  0  0  0  0  0  0  0  0  0  0  0
  193.6294  180.7559  159.3294 H   0  0  0  0  0  0  0  0  0  0  0  0
  193.7465  180.3695  157.6045 H   0  0  0  0  0  0  0  0  0  0  0  0
  192.5224  181.4916  158.1371 H   0  0  0  0  0  0  0  0  0  0  0  0
  194.3644  183.2228  160.0470 H   0  0  0  0  0  0  0  0  0  0  0  0
  193.1269  183.7390  158.8980 H   0  0  0  0  0  0  0  0  0  0  0  0
  194.7661  184.3306  158.7405 H   0  0  0  0  0  0  0  0  0  0  0  0
  199.7980  189.0678  156.4024 H   0  0  0  0  0  0  0  0  0  0  0  0
  200.6136  191.1919  155.4085 H   0  0  0  0  0  0  0  0  0  0  0  0
  200.6992  191.4410  152.9286 H   0  0  0  0  0  0  0  0  0  0  0  0
  200.0043  189.5502  151.4686 H   0  0  0  0  0  0  0  0  0  0  0  0
  199.9585  185.2601  150.6087 H   0  0  0  0  0  0  0  0  0  0  0  0
  199.2960  183.4813  149.0230 H   0  0  0  0  0  0  0  0  0  0  0  0
  197.2142  182.1632  149.4103 H   0  0  0  0  0  0  0  0  0  0  0  0
  195.7979  182.6585  151.4128 H   0  0  0  0  0  0  0  0  0  0  0  0
  196.4123  184.4479  152.9486 H   0  0  0  0  0  0  0  0  0  0  0  0
  194.3275  182.5993  157.1624 H   0  0  0  0  0  0  0  0  0  0  0  0
  1  2  2  0
  1 17  1  0
  2  3  1  0
  2 14  1  0
  3  4  1  0
  3 28  1  0
  4  5  2  0
  4  9  1  0
  5  6  1  0
  5 29  1  0
  6  7  2  0
  6 10  1  0
  7  8  1  0
  7 30  1  0
  8  9  2  0
  8 31  1  0
  9 32  1  0
 10 11  1  0
 10 33  1  6
 10 34  1  0
 11 12  1  0
 11 13  1  0
 11 50  1  6
 12 35  1  1
 12 36  1  0
 12 37  1  0
 13 38  1  1
 13 39  1  0
 13 40  1  0
 14 15  2  0
 14 22  1  0
 15 16  1  0
 16 17  1  0
 16 21  2  0
 17 18  2  0
 18 19  1  0
 18 41  1  0
 19 20  2  0
 19 42  1  0
 20 21  1  0
 20 43  1  0
 21 44  1  0
 22 23  2  0
 22 27  1  0
 23 24  1  0
 23 45  1  0
 24 25  2  0
 24 46  1  0
 25 26  1  0
 25 47  1  0
 26 27  2  0
 26 48  1  0
 27 49  1  0
M  CHG  1  11   1
M  END
>  <s_epik_cmdline>  (1391) 
J2VwaWtfcHl0aG9uJywgJy1waCcsICc3LjAwMDAwMCcsICctcGh0JywgJzIuMDAwMDAwJywgJy1tcycsICcxNicsICctdG4nLCAnOCcsICctbWEnLCAnMjAwJywgJy1pbWFlJywgJzxpbmZpbGUubWFlPicsICctb21hZScsICc8b3V0ZmlsZS5tYWU+Jw==

>  <s_epik_input>  (1391) 
W2NIXTFbY0hdW2NIXVtjSF1bY0hdYzEtYyhuMiljKG5jKGMyMylbY0hdW2NIXVtjSF1bY0hdMylbTkhdYzRbY0hdYyhbY0hdW2NIXVtjSF00KVtDSDJdTihbQ0gzXSlbQ0gzXQ==

>  <s_i_glide_gridfile>  (1391) 
ATP-Grid

>  <s_lp_Force_Field>  (1391) 
OPLS_2005

>  <s_lp_Variant>  (1391) 
rxn102c____EMOL1087657____EMOL3728368-1

>  <s_lp_label>  (1391) 
2354_sdstereoexpander_1_neutralizer_1_epik_1_stereoizer_1

>  <s_m_source_file>  (1391) 
ATP-VSW-LIGPREP-003-in.maegz

>  <s_sd_BIOSOLVEIT.INFINISEE\_QUERY\_NAME>  (1391) 
Ref-Lig

>  <s_sd_BIOSOLVEIT.INFINISEE\_QUERY\_SMILES>  (1391) 
S(c1nc2c(cc1C[NH2+]Cc3ccc(cc3)C[NH+](C)C)cccc2)Cc4ccccc4

>  <s_sd_BIOSOLVEIT.INFINISEE\_REACTION\_NAME>  (1391) 
rxn102c

>  <s_sd_BIOSOLVEIT.INFINISEE\_REAGENT1\_NAME>  (1391) 
EMOL1087657

>  <s_sd_BIOSOLVEIT.INFINISEE\_REAGENT1\_SMILES>  (1391) 
Clc1nc2c(nc1c3ccccc3)cccc2

>  <s_sd_BIOSOLVEIT.INFINISEE\_REAGENT2\_NAME>  (1391) 
EMOL3728368

>  <s_sd_BIOSOLVEIT.INFINISEE\_REAGENT2\_SMILES>  (1391) 
N(Cc1cc(N)ccc1)(C)C

>  <s_sd_BIOSOLVEIT.INFINISEE\_SPACE>  (1391) 
eXplore_7tr_2022-12

>  <s_vsw_compound_code>  (1391) 
75299

>  <s_vsw_variant>  (1391) 
75299-1

>  <r_epik_Charging_Adjusted_Penalty>  (1391) 
0.0905741757774641

>  <r_epik_Ionization_Penalty>  (1391) 
0.0453

>  <r_epik_Ionization_Penalty_Charging>  (1391) 
0.0453

>  <r_epik_Ionization_Penalty_Neutral>  (1391) 
0

>  <r_epik_State_Penalty>  (1391) 
0.0453

>  <r_i_docking_score>  (1391) 
-4.34363774423427

>  <r_i_glide_ecoul>  (1391) 
-9.5829076766967791

>  <r_i_glide_eff_state_penalty>  (1391) 
0.0453

>  <r_i_glide_einternal>  (1391) 
0.54533487558364901

>  <r_i_glide_emodel>  (1391) 
-52.925406630106501

>  <r_i_glide_energy>  (1391) 
-37.896142005920403

>  <r_i_glide_erotb>  (1391) 
0.60533368641083696

>  <r_i_glide_esite>  (1391) 
-0.10000000000000001

>  <r_i_glide_evdw>  (1391) 
-28.313234329223601

>  <r_i_glide_gscore>  (1391) 
-4.3889377442342701

>  <r_i_glide_hbond>  (1391) 
-0.20000000000000001

>  <r_i_glide_ligand_efficiency>  (1391) 
-0.160875472008677

>  <r_i_glide_ligand_efficiency_ln>  (1391) 
-1.0111272563928599

>  <r_i_glide_ligand_efficiency_sa>  (1391) 
-0.48262641549581098

>  <r_i_glide_lipo>  (1391) 
-0.85564301722486702

>  <r_i_glide_metal>  (1391) 
-0

>  <r_i_glide_rewards>  (1391) 
-0.98553054545454399

>  <r_lp_Energy>  (1391) 
35.506211

>  <r_qp_ACxDN^.5/SA>  (1391) 
0.0064151

>  <r_qp_CIQPlogS>  (1391) 
-4.8890000000000002

>  <r_qp_EA(eV)>  (1391) 
1.048

>  <r_qp_FISA>  (1391) 
19.858000000000001

>  <r_qp_FOSA>  (1391) 
180.74799999999999

>  <r_qp_IP(eV)>  (1391) 
8.1099999999999994

>  <r_qp_Jm>  (1391) 
0.030608975164720699

>  <r_qp_PISA>  (1391) 
500.86700000000002

>  <r_qp_PSA>  (1391) 
33.957999999999998

>  <r_qp_PercentHumanOralAbsorption>  (1391) 
100

>  <r_qp_QPPCaco>  (1391) 
1601.348

>  <r_qp_QPPMDCK>  (1391) 
910.447

>  <r_qp_QPlogBB>  (1391) 
0.44800000000000001

>  <r_qp_QPlogHERG>  (1391) 
-8.0660000000000007

>  <r_qp_QPlogKhsa>  (1391) 
0.84699999999999998

>  <r_qp_QPlogKp>  (1391) 
-1.704

>  <r_qp_QPlogPC16>  (1391) 
13.538

>  <r_qp_QPlogPo/w>  (1391) 
4.9930000000000003

>  <r_qp_QPlogPoct>  (1391) 
18.384

>  <r_qp_QPlogPw>  (1391) 
9.7430000000000003

>  <r_qp_QPlogS>  (1391) 
-5.3600000000000003

>  <r_qp_QPpolrz>  (1391) 
44.386000000000003

>  <r_qp_SASA>  (1391) 
701.47400000000005

>  <r_qp_SAamideO>  (1391) 
0

>  <r_qp_SAfluorine>  (1391) 
0

>  <r_qp_WPSA>  (1391) 
0

>  <r_qp_accptHB>  (1391) 
4.5

>  <r_qp_dip^2/V>  (1391) 
0.0052547999999999996

>  <r_qp_dipole>  (1391) 
2.536

>  <r_qp_donorHB>  (1391) 
1

>  <r_qp_glob>  (1391) 
0.78868609999999995

>  <r_qp_mol_MW>  (1391) 
354.45400000000001

>  <r_qp_volume>  (1391) 
1223.5619999999999

>  <r_sd_BIOSOLVEIT.INFINISEE\_FTREES\_SIMILARITY>  (1391) 
0.92000000000000004

>  <r_sd_BIOSOLVEIT.LOGP>  (1391) 
3.6848999999999998

>  <r_sd_BIOSOLVEIT.MOLECULAR\_WEIGHT>  (1391) 
355.46300000000002

>  <r_sd_BIOSOLVEIT.TPSA>  (1391) 
42.25

>  <i_epik_Tot_Q>  (1391) 
1

>  <i_epik_Tot_abs_Q>  (1391) 
1

>  <i_f3d_flags>  (1391) 
0

>  <i_i_glide_confnum>  (1391) 
5

>  <i_i_glide_lignum>  (1391) 
984

>  <i_i_glide_posenum>  (1391) 
8

>  <i_i_glide_rotatable_bonds>  (1391) 
5

>  <i_lp_mmshare_version>  (1391) 
65135

>  <i_m_ct_format>  (1391) 
2

>  <i_m_source_file_index>  (1391) 
2354

>  <i_qp_#NandO>  (1391) 
4

>  <i_qp_#acid>  (1391) 
0

>  <i_qp_#amide>  (1391) 
0

>  <i_qp_#amidine>  (1391) 
0

>  <i_qp_#amine>  (1391) 
1

>  <i_qp_#in34>  (1391) 
0

>  <i_qp_#in56>  (1391) 
22

>  <i_qp_#metab>  (1391) 
3

>  <i_qp_#nonHatm>  (1391) 
27

>  <i_qp_#noncon>  (1391) 
0

>  <i_qp_#ringatoms>  (1391) 
22

>  <i_qp_#rotor>  (1391) 
5

>  <i_qp_#rtvFG>  (1391) 
0

>  <i_qp_#stars>  (1391) 
1

>  <i_qp_CNS>  (1391) 
1

>  <i_qp_HumanOralAbsorption>  (1391) 
3

>  <i_qp_RuleOfFive>  (1391) 
0

>  <i_qp_RuleOfThree>  (1391) 
0

>  <i_sd_BIOSOLVEIT.INFINISEE\_RESULT\_RANK>  (1391) 
16259

>  <i_sd_version>  (1391) 
0

>  <b_lp_Chiralities_Consistent>  (1391) 
1

>  <b_sd_chiral_flag>  (1391) 
0

>  <canonical_id>  (1391) 
ATP-HTVS-DBA84DBB4449

>  <compound_code>  (1391) 
75299

>  <title>  (1391) 
rxn102c____EMOL1087657____EMOL3728368

>  <variant>  (1391) 
75299-1

>  <source_file>  (1391) 
运行/运行/ATP-VSW/ATP-VSW-DOCK_HTVS_1-003_lib/ATP-VSW-DOCK_HTVS_1-003_lib.mae

>  <canonical_smiles>  (1391) 
C[NH+](C)Cc1cccc(Nc2nc3ccccc3nc2-c2ccccc2)c1

>  <scaffold>  (1391) 
c1ccc(Nc2nc3ccccc3nc2-c2ccccc2)cc1

>  <molecular_formula>  (1391) 
C23H23N4+

$$$$
ATP-HTVS-DBCC5241A393
     RDKit          3D

 70 73  0  0  0  0  0  0  0  0999 V2000
  200.0041  186.4438  159.2378 O   0  0  0  0  0  0  0  0  0  0  0  0
  200.4083  185.2834  159.0991 C   0  0  0  0  0  0  0  0  0  0  0  0
  199.8406  184.4161  158.2249 N   0  0  0  0  0  0  0  0  0  0  0  0
  200.4310  183.1656  157.9233 C   0  0  0  0  0  0  0  0  0  0  0  0
  201.5185  182.6780  158.5578 C   0  0  0  0  0  0  0  0  0  0  0  0
  202.1427  183.4668  159.6579 C   0  0  0  0  0  0  0  0  0  0  0  0
  201.5739  184.7583  159.9210 C   0  0  0  0  0  0  0  0  0  0  0  0
  202.1089  185.5528  160.9502 C   0  0  0  0  0  0  0  0  0  0  0  0
  203.1968  185.1301  161.7276 C   0  0  0  0  0  0  0  0  0  0  0  0
  203.7456  183.8585  161.4841 C   0  0  0  0  0  0  0  0  0  0  0  0
  203.2225  183.0274  160.4732 C   0  0  0  0  0  0  0  0  0  0  0  0
  202.1221  181.4007  158.1459 C   0  0  0  0  0  0  0  0  0  0  0  0
  203.3109  181.1096  158.1770 O   0  0  0  0  0  0  0  0  0  0  0  0
  201.1941  180.5316  157.7203 N   0  0  0  0  0  0  0  0  0  0  0  0
  201.4668  179.1604  157.3564 C   0  0  1  0  0  0  0  0  0  0  0  0
  201.4872  179.0049  155.8114 C   0  0  1  0  0  0  0  0  0  0  0  0
  201.8467  177.6254  155.3371 N   0  0  1  0  0  0  0  0  0  0  0  0
  201.0469  176.5137  155.9334 C   0  0  1  0  0  0  0  0  0  0  0  0
  201.7164  175.1339  155.8016 C   0  0  2  0  0  0  0  0  0  0  0  0
  202.0744  177.4815  153.8503 C   0  0  1  0  0  0  0  0  0  0  0  0
  200.7906  177.5117  152.9399 C   0  0  2  0  0  0  0  0  0  0  0  0
  200.1799  179.4918  155.1920 C   0  0  0  0  0  0  0  0  0  0  0  0
  200.2022  180.4068  154.0973 C   0  0  0  0  0  0  0  0  0  0  0  0
  198.9987  180.8065  153.4920 C   0  0  0  0  0  0  0  0  0  0  0  0
  197.7620  180.3428  153.9747 C   0  0  0  0  0  0  0  0  0  0  0  0
  197.7313  179.4817  155.0890 C   0  0  0  0  0  0  0  0  0  0  0  0
  198.9298  179.0960  155.7054 C   0  0  0  0  0  0  0  0  0  0  0  0
  198.6608  184.8099  157.4257 C   0  0  1  0  0  0  0  0  0  0  0  0
  197.3795  185.0314  158.2337 C   0  0  0  0  0  0  0  0  0  0  0  0
  196.3869  184.0144  158.3117 C   0  0  0  0  0  0  0  0  0  0  0  0
  196.5840  182.8592  157.5758 O   0  0  0  0  0  0  0  0  0  0  0  0
  195.5958  181.8392  157.6413 C   0  0  2  0  0  0  0  0  0  0  0  0
  195.2428  184.2342  159.1297 C   0  0  0  0  0  0  0  0  0  0  0  0
  195.1119  185.4226  159.8810 C   0  0  0  0  0  0  0  0  0  0  0  0
  196.0992  186.4258  159.7807 C   0  0  0  0  0  0  0  0  0  0  0  0
  197.2018  186.2539  158.9266 C   0  0  0  0  0  0  0  0  0  0  0  0
  199.9533  182.6572  157.0878 H   0  0  0  0  0  0  0  0  0  0  0  0
  201.6844  186.5230  161.1459 H   0  0  0  0  0  0  0  0  0  0  0  0
  203.5853  185.7834  162.4986 H   0  0  0  0  0  0  0  0  0  0  0  0
  204.5736  183.5265  162.0844 H   0  0  0  0  0  0  0  0  0  0  0  0
  203.6810  182.0531  160.3431 H   0  0  0  0  0  0  0  0  0  0  0  0
  200.2294  180.8242  157.6934 H   0  0  0  0  0  0  0  0  0  0  0  0
  202.3534  178.7666  157.8346 H   0  0  0  0  0  0  0  0  0  0  0  0
  200.6626  178.6091  157.8237 H   0  0  0  0  0  0  0  0  0  0  0  0
  202.2966  179.6556  155.4600 H   0  0  0  0  0  0  0  0  0  0  0  0
  200.9146  176.6431  157.0074 H   0  0  0  0  0  0  0  0  0  0  0  0
  200.0481  176.4873  155.4982 H   0  0  0  0  0  0  0  0  0  0  0  0
  201.1586  174.4067  156.3919 H   0  0  0  0  0  0  0  0  0  0  0  0
  202.7378  175.1334  156.1918 H   0  0  0  0  0  0  0  0  0  0  0  0
  201.7246  174.7636  154.7736 H   0  0  0  0  0  0  0  0  0  0  0  0
  202.7944  178.2515  153.5476 H   0  0  0  0  0  0  0  0  0  0  0  0
  202.6207  176.5389  153.6973 H   0  0  0  0  0  0  0  0  0  0  0  0
  201.1071  177.3254  151.8957 H   0  0  0  0  0  0  0  0  0  0  0  0
  200.2608  178.4477  152.9667 H   0  0  0  0  0  0  0  0  0  0  0  0
  200.1182  176.6795  153.2168 H   0  0  0  0  0  0  0  0  0  0  0  0
  201.1422  180.8077  153.7471 H   0  0  0  0  0  0  0  0  0  0  0  0
  199.0358  181.3899  152.5848 H   0  0  0  0  0  0  0  0  0  0  0  0
  196.8497  180.5587  153.4435 H   0  0  0  0  0  0  0  0  0  0  0  0
  196.7998  179.0762  155.4527 H   0  0  0  0  0  0  0  0  0  0  0  0
  198.8603  178.3724  156.5020 H   0  0  0  0  0  0  0  0  0  0  0  0
  198.8798  185.7215  156.8729 H   0  0  0  0  0  0  0  0  0  0  0  0
  198.4621  184.0868  156.6345 H   0  0  0  0  0  0  0  0  0  0  0  0
  195.8536  181.0440  156.9411 H   0  0  0  0  0  0  0  0  0  0  0  0
  194.6142  182.2039  157.3497 H   0  0  0  0  0  0  0  0  0  0  0  0
  195.5283  181.4310  158.6505 H   0  0  0  0  0  0  0  0  0  0  0  0
  194.4381  183.5108  159.1881 H   0  0  0  0  0  0  0  0  0  0  0  0
  194.2314  185.5914  160.4955 H   0  0  0  0  0  0  0  0  0  0  0  0
  196.0167  187.3354  160.3578 H   0  0  0  0  0  0  0  0  0  0  0  0
  197.9441  187.0434  158.8518 H   0  0  0  0  0  0  0  0  0  0  0  0
  202.7556  177.5026  155.7671 H   0  0  0  0  0  0  0  0  0  0  0  0
  1  2  2  0
  2  3  1  0
  2  7  1  0
  3  4  1  0
  3 28  1  0
  4  5  2  0
  4 37  1  0
  5  6  1  0
  5 12  1  0
  6  7  1  0
  6 11  2  0
  7  8  2  0
  8  9  1  0
  8 38  1  0
  9 10  2  0
  9 39  1  0
 10 11  1  0
 10 40  1  0
 11 41  1  0
 12 13  2  0
 12 14  1  0
 14 15  1  0
 14 42  1  0
 15 16  1  0
 15 43  1  1
 15 44  1  0
 16 17  1  0
 16 22  1  0
 16 45  1  6
 17 18  1  0
 17 20  1  0
 17 70  1  1
 18 19  1  0
 18 46  1  1
 18 47  1  0
 19 48  1  1
 19 49  1  0
 19 50  1  0
 20 21  1  0
 20 51  1  6
 20 52  1  0
 21 53  1  6
 21 54  1  0
 21 55  1  0
 22 23  2  0
 22 27  1  0
 23 24  1  0
 23 56  1  0
 24 25  2  0
 24 57  1  0
 25 26  1  0
 25 58  1  0
 26 27  2  0
 26 59  1  0
 27 60  1  0
 28 29  1  0
 28 61  1  6
 28 62  1  0
 29 30  1  0
 29 36  2  0
 30 31  1  0
 30 33  2  0
 31 32  1  0
 32 63  1  6
 32 64  1  0
 32 65  1  0
 33 34  1  0
 33 66  1  0
 34 35  2  0
 34 67  1  0
 35 36  1  0
 35 68  1  0
 36 69  1  0
M  CHG  1  17   1
M  END
>  <s_epik_cmdline>  (1392) 
J2VwaWtfcHl0aG9uJywgJy1waCcsICc3LjAwMDAwMCcsICctcGh0JywgJzIuMDAwMDAwJywgJy1tcycsICcxNicsICctdG4nLCAnOCcsICctbWEnLCAnMjAwJywgJy1pbWFlJywgJzxpbmZpbGUubWFlPicsICctb21hZScsICc8b3V0ZmlsZS5tYWU+Jw==

>  <s_epik_input>  (1392) 
W2NIXTFbY0hdW2NIXVtjSF1jKE9bQ0gzXSljMVtDSDJdbihjKD1PKWMoYzIzKVtjSF1bY0hdW2NIXVtjSF0zKVtjSF1jMkMoPU8pW05IXVtDSDJdW0NAQEhdKE4oW0NIMl1bQ0gzXSlbQ0gyXVtDSDNdKWM0W2NIXVtjSF1bY0hdW2NIXVtjSF00

>  <s_i_glide_gridfile>  (1392) 
ATP-Grid

>  <s_lp_Force_Field>  (1392) 
OPLS_2005

>  <s_lp_Variant>  (1392) 
YAS_R001____OTV11186010____OTV7020410249-2

>  <s_lp_label>  (1392) 
148_sdstereoexpander_2_neutralizer_1_epik_1_stereoizer_1

>  <s_m_source_file>  (1392) 
ATP-VSW-LIGPREP-003-in.maegz

>  <s_sd_BIOSOLVEIT.INFINISEE\_QUERY\_NAME>  (1392) 
Ref-Lig

>  <s_sd_BIOSOLVEIT.INFINISEE\_QUERY\_SMILES>  (1392) 
S(c1nc2c(cc1C[NH2+]Cc3ccc(cc3)C[NH+](C)C)cccc2)Cc4ccccc4

>  <s_sd_BIOSOLVEIT.INFINISEE\_REACTION\_NAME>  (1392) 
YAS_R001

>  <s_sd_BIOSOLVEIT.INFINISEE\_REAGENT1\_NAME>  (1392) 
OTV11186010

>  <s_sd_BIOSOLVEIT.INFINISEE\_REAGENT1\_SMILES>  (1392) 
O=C1N(C=C(c2c1cccc2)C(=O)O)Cc3c(OC)cccc3

>  <s_sd_BIOSOLVEIT.INFINISEE\_REAGENT2\_NAME>  (1392) 
OTV7020410249

>  <s_sd_BIOSOLVEIT.INFINISEE\_REAGENT2\_SMILES>  (1392) 
N(C(c1ccccc1)CN)(CC)CC

>  <s_sd_BIOSOLVEIT.INFINISEE\_SPACE>  (1392) 
CHEMriya_12bn_2022-01

>  <s_vsw_compound_code>  (1392) 
4707

>  <s_vsw_variant>  (1392) 
4707-2

>  <r_epik_Charging_Adjusted_Penalty>  (1392) 
0.131395756644647

>  <r_epik_Ionization_Penalty>  (1392) 
0.065699999999999995

>  <r_epik_Ionization_Penalty_Charging>  (1392) 
0.065699999999999995

>  <r_epik_Ionization_Penalty_Neutral>  (1392) 
0

>  <r_epik_State_Penalty>  (1392) 
0.065699999999999995

>  <r_i_docking_score>  (1392) 
-4.3403287678025997

>  <r_i_glide_ecoul>  (1392) 
-7.3141422271728498

>  <r_i_glide_eff_state_penalty>  (1392) 
0.065699999999999995

>  <r_i_glide_einternal>  (1392) 
2.6025371551513699

>  <r_i_glide_emodel>  (1392) 
-56.543655877236198

>  <r_i_glide_energy>  (1392) 
-42.061780929565401

>  <r_i_glide_erotb>  (1392) 
0.60535024954427596

>  <r_i_glide_esite>  (1392) 
-0.0154030467927069

>  <r_i_glide_evdw>  (1392) 
-34.747638702392599

>  <r_i_glide_gscore>  (1392) 
-4.4060287678026002

>  <r_i_glide_hbond>  (1392) 
0

>  <r_i_glide_ligand_efficiency>  (1392) 
-0.120564687994517

>  <r_i_glide_ligand_efficiency_ln>  (1392) 
-0.94694247500253104

>  <r_i_glide_ligand_efficiency_sa>  (1392) 
-0.398095828068046

>  <r_i_glide_lipo>  (1392) 
-1.7602564435002099

>  <r_i_glide_metal>  (1392) 
-0

>  <r_i_glide_rewards>  (1392) 
-0.40121625785840798

>  <r_lp_Energy>  (1392) 
48.802508000000003

>  <r_lp_tautomer_probability>  (1392) 
1

>  <r_qp_ACxDN^.5/SA>  (1392) 
0.010435399999999999

>  <r_qp_CIQPlogS>  (1392) 
-6

>  <r_qp_EA(eV)>  (1392) 
0.53400000000000003

>  <r_qp_FISA>  (1392) 
65.097999999999999

>  <r_qp_FOSA>  (1392) 
337.78399999999999

>  <r_qp_IP(eV)>  (1392) 
8.7189999999999994

>  <r_qp_Jm>  (1392) 
0.035931523307902502

>  <r_qp_PISA>  (1392) 
387.69799999999998

>  <r_qp_PSA>  (1392) 
72.384

>  <r_qp_PercentHumanOralAbsorption>  (1392) 
100

>  <r_qp_QPPCaco>  (1392) 
596.32000000000005

>  <r_qp_QPPMDCK>  (1392) 
313.00400000000002

>  <r_qp_QPlogBB>  (1392) 
-0.29899999999999999

>  <r_qp_QPlogHERG>  (1392) 
-7.1509999999999998

>  <r_qp_QPlogKhsa>  (1392) 
0.69299999999999995

>  <r_qp_QPlogKp>  (1392) 
-2.456

>  <r_qp_QPlogPC16>  (1392) 
15.788

>  <r_qp_QPlogPo/w>  (1392) 
4.8920000000000003

>  <r_qp_QPlogPoct>  (1392) 
23.603999999999999

>  <r_qp_QPlogPw>  (1392) 
12.087

>  <r_qp_QPlogS>  (1392) 
-4.673

>  <r_qp_QPpolrz>  (1392) 
52.317

>  <r_qp_SASA>  (1392) 
790.58000000000004

>  <r_qp_SAamideO>  (1392) 
0

>  <r_qp_SAfluorine>  (1392) 
0

>  <r_qp_WPSA>  (1392) 
0

>  <r_qp_accptHB>  (1392) 
8.25

>  <r_qp_dip^2/V>  (1392) 
0.029167100000000001

>  <r_qp_dipole>  (1392) 
6.6779999999999999

>  <r_qp_donorHB>  (1392) 
1

>  <r_qp_glob>  (1392) 
0.81186740000000002

>  <r_qp_mol_MW>  (1392) 
483.60899999999998

>  <r_qp_volume>  (1392) 
1528.97

>  <r_sd_BIOSOLVEIT.INFINISEE\_FTREES\_SIMILARITY>  (1392) 
0.90300000000000002

>  <r_sd_BIOSOLVEIT.LOGP>  (1392) 
3.4542000000000002

>  <r_sd_BIOSOLVEIT.MOLECULAR\_WEIGHT>  (1392) 
484.61700000000002

>  <r_sd_BIOSOLVEIT.TPSA>  (1392) 
64.769999999999996

>  <i_epik_Tot_Q>  (1392) 
1

>  <i_epik_Tot_abs_Q>  (1392) 
1

>  <i_f3d_flags>  (1392) 
0

>  <i_i_glide_confnum>  (1392) 
3

>  <i_i_glide_lignum>  (1392) 
189

>  <i_i_glide_posenum>  (1392) 
9

>  <i_i_glide_rotatable_bonds>  (1392) 
11

>  <i_lp_mmshare_version>  (1392) 
65135

>  <i_m_ct_format>  (1392) 
2

>  <i_m_source_file_index>  (1392) 
148

>  <i_qp_#NandO>  (1392) 
6

>  <i_qp_#acid>  (1392) 
0

>  <i_qp_#amide>  (1392) 
0

>  <i_qp_#amidine>  (1392) 
0

>  <i_qp_#amine>  (1392) 
1

>  <i_qp_#in34>  (1392) 
0

>  <i_qp_#in56>  (1392) 
22

>  <i_qp_#metab>  (1392) 
5

>  <i_qp_#nonHatm>  (1392) 
36

>  <i_qp_#noncon>  (1392) 
0

>  <i_qp_#ringatoms>  (1392) 
22

>  <i_qp_#rotor>  (1392) 
10

>  <i_qp_#rtvFG>  (1392) 
0

>  <i_qp_#stars>  (1392) 
0

>  <i_qp_CNS>  (1392) 
1

>  <i_qp_HumanOralAbsorption>  (1392) 
3

>  <i_qp_RuleOfFive>  (1392) 
0

>  <i_qp_RuleOfThree>  (1392) 
0

>  <i_sd_BIOSOLVEIT.INFINISEE\_RESULT\_RANK>  (1392) 
85444

>  <i_sd_version>  (1392) 
0

>  <b_lp_Chiralities_Consistent>  (1392) 
1

>  <b_sd_chiral_flag>  (1392) 
0

>  <canonical_id>  (1392) 
ATP-HTVS-DBCC5241A393

>  <compound_code>  (1392) 
4707

>  <title>  (1392) 
YAS_R001____OTV11186010____OTV7020410249

>  <variant>  (1392) 
4707-2

>  <source_file>  (1392) 
运行/运行/ATP-VSW/ATP-VSW-DOCK_HTVS_1-003_lib/ATP-VSW-DOCK_HTVS_1-003_lib.mae

>  <canonical_smiles>  (1392) 
CC[NH+](CC)[C@H](CNC(=O)c1cn(Cc2ccccc2OC)c(=O)c2ccccc12)c1ccccc1

>  <scaffold>  (1392) 
O=C(NCCc1ccccc1)c1cn(Cc2ccccc2)c(=O)c2ccccc12

>  <molecular_formula>  (1392) 
C30H34N3O3+

$$$$
ATP-HTVS-DC065C207C84
     RDKit          3D

 60 63  0  0  0  0  0  0  0  0999 V2000
  197.5488  178.0376  149.1519 Cl  0  0  0  0  0  0  0  0  0  0  0  0
  197.5926  179.6079  149.8629 C   0  0  0  0  0  0  0  0  0  0  0  0
  198.2262  180.6613  149.1805 C   0  0  0  0  0  0  0  0  0  0  0  0
  198.2582  181.9488  149.7475 C   0  0  0  0  0  0  0  0  0  0  0  0
  197.6730  182.1970  151.0057 C   0  0  0  0  0  0  0  0  0  0  0  0
  197.7875  183.4775  151.4964 O   0  0  0  0  0  0  0  0  0  0  0  0
  197.4246  183.7218  152.8515 C   0  0  1  0  0  0  0  0  0  0  0  0
  197.9779  185.0353  153.3754 C   0  0  0  0  0  0  0  0  0  0  0  0
  198.7070  185.7917  152.5315 N   0  0  0  0  0  0  0  0  0  0  0  0
  199.2593  186.9389  152.9807 C   0  0  0  0  0  0  0  0  0  0  0  0
  199.1056  187.3887  154.3275 C   0  0  0  0  0  0  0  0  0  0  0  0
  198.3236  186.5855  155.2072 C   0  0  0  0  0  0  0  0  0  0  0  0
  197.7608  185.3917  154.7137 C   0  0  0  0  0  0  0  0  0  0  0  0
  198.0460  186.9506  156.6360 C   0  0  0  0  0  0  0  0  0  0  0  0
  198.9152  187.3930  157.3837 O   0  0  0  0  0  0  0  0  0  0  0  0
  196.7631  186.7980  157.0007 N   0  0  0  0  0  0  0  0  0  0  0  0
  196.2324  187.2568  158.2808 C   0  0  1  0  0  0  0  0  0  0  0  0
  196.5968  186.3004  159.4506 C   0  0  1  0  0  0  0  0  0  0  0  0
  196.3058  186.8816  160.7812 N   0  0  0  0  0  0  0  0  0  0  0  0
  196.8540  188.2311  160.9325 C   0  0  2  0  0  0  0  0  0  0  0  0
  194.9091  186.9326  161.1880 C   0  0  2  0  0  0  0  0  0  0  0  0
  196.0336  184.8870  159.1987 C   0  0  0  0  0  0  0  0  0  0  0  0
  194.6451  184.6527  159.2892 C   0  0  0  0  0  0  0  0  0  0  0  0
  194.0990  183.3911  159.0437 C   0  0  0  0  0  0  0  0  0  0  0  0
  194.9261  182.3112  158.6917 C   0  0  0  0  0  0  0  0  0  0  0  0
  194.3533  181.0710  158.5139 O   0  0  0  0  0  0  0  0  0  0  0  0
  196.3121  182.5203  158.5459 C   0  0  0  0  0  0  0  0  0  0  0  0
  196.8602  183.8079  158.8031 C   0  0  0  0  0  0  0  0  0  0  0  0
  199.7035  188.6171  154.7160 C   0  0  0  0  0  0  0  0  0  0  0  0
  200.4564  189.3752  153.8019 C   0  0  0  0  0  0  0  0  0  0  0  0
  200.6128  188.9272  152.4807 C   0  0  0  0  0  0  0  0  0  0  0  0
  200.0151  187.7190  152.0831 C   0  0  0  0  0  0  0  0  0  0  0  0
  197.0288  181.1323  151.6855 C   0  0  0  0  0  0  0  0  0  0  0  0
  196.9945  179.8430  151.1169 C   0  0  0  0  0  0  0  0  0  0  0  0
  198.6863  180.4815  148.2195 H   0  0  0  0  0  0  0  0  0  0  0  0
  198.7498  182.7520  149.2175 H   0  0  0  0  0  0  0  0  0  0  0  0
  196.3394  183.7278  152.9471 H   0  0  0  0  0  0  0  0  0  0  0  0
  197.8198  182.9412  153.5024 H   0  0  0  0  0  0  0  0  0  0  0  0
  197.1729  184.7449  155.3499 H   0  0  0  0  0  0  0  0  0  0  0  0
  196.1169  186.4218  156.3148 H   0  0  0  0  0  0  0  0  0  0  0  0
  196.5792  188.2751  158.4419 H   0  0  0  0  0  0  0  0  0  0  0  0
  195.1570  187.3040  158.1845 H   0  0  0  0  0  0  0  0  0  0  0  0
  197.6813  186.1864  159.4383 H   0  0  0  0  0  0  0  0  0  0  0  0
  196.6904  188.5873  161.9512 H   0  0  0  0  0  0  0  0  0  0  0  0
  196.3910  188.9364  160.2493 H   0  0  0  0  0  0  0  0  0  0  0  0
  197.9363  188.2427  160.7884 H   0  0  0  0  0  0  0  0  0  0  0  0
  194.7746  187.5145  162.0825 H   0  0  0  0  0  0  0  0  0  0  0  0
  194.5044  185.9219  161.2973 H   0  0  0  0  0  0  0  0  0  0  0  0
  194.3217  187.4156  160.4016 H   0  0  0  0  0  0  0  0  0  0  0  0
  193.9739  185.4535  159.5581 H   0  0  0  0  0  0  0  0  0  0  0  0
  193.0344  183.2518  159.1711 H   0  0  0  0  0  0  0  0  0  0  0  0
  194.9447  180.3787  158.1552 H   0  0  0  0  0  0  0  0  0  0  0  0
  196.9502  181.7078  158.2339 H   0  0  0  0  0  0  0  0  0  0  0  0
  197.9317  183.9591  158.6878 H   0  0  0  0  0  0  0  0  0  0  0  0
  199.6008  189.0094  155.7164 H   0  0  0  0  0  0  0  0  0  0  0  0
  200.9171  190.3006  154.1157 H   0  0  0  0  0  0  0  0  0  0  0  0
  201.1915  189.5043  151.7753 H   0  0  0  0  0  0  0  0  0  0  0  0
  200.1330  187.3751  151.0661 H   0  0  0  0  0  0  0  0  0  0  0  0
  196.5622  181.2782  152.6479 H   0  0  0  0  0  0  0  0  0  0  0  0
  196.5130  179.0355  151.6488 H   0  0  0  0  0  0  0  0  0  0  0  0
  1  2  1  0
  2  3  1  0
  2 34  2  0
  3  4  2  0
  3 35  1  0
  4  5  1  0
  4 36  1  0
  5  6  1  0
  5 33  2  0
  6  7  1  0
  7  8  1  0
  7 37  1  6
  7 38  1  0
  8  9  2  0
  8 13  1  0
  9 10  1  0
 10 11  1  0
 10 32  2  0
 11 12  1  0
 11 29  2  0
 12 13  2  0
 12 14  1  0
 13 39  1  0
 14 15  2  0
 14 16  1  0
 16 17  1  0
 16 40  1  0
 17 18  1  0
 17 41  1  1
 17 42  1  0
 18 19  1  0
 18 22  1  0
 18 43  1  1
 19 20  1  0
 19 21  1  0
 20 44  1  1
 20 45  1  0
 20 46  1  0
 21 47  1  1
 21 48  1  0
 21 49  1  0
 22 23  1  0
 22 28  2  0
 23 24  2  0
 23 50  1  0
 24 25  1  0
 24 51  1  0
 25 26  1  0
 25 27  2  0
 26 52  1  0
 27 28  1  0
 27 53  1  0
 28 54  1  0
 29 30  1  0
 29 55  1  0
 30 31  2  0
 30 56  1  0
 31 32  1  0
 31 57  1  0
 32 58  1  0
 33 34  1  0
 33 59  1  0
 34 60  1  0
M  END
>  <s_epik_cmdline>  (1393) 
J2VwaWtfcHl0aG9uJywgJy1waCcsICc3LjAwMDAwMCcsICctcGh0JywgJzIuMDAwMDAwJywgJy1tcycsICcxNicsICctdG4nLCAnOCcsICctbWEnLCAnMjAwJywgJy1pbWFlJywgJzxpbmZpbGUubWFlPicsICctb21hZScsICc8b3V0ZmlsZS5tYWU+Jw==

>  <s_epik_input>  (1393) 
Q2xjMVtjSF1bY0hdYyhbY0hdW2NIXTEpT1tDSDJdYyhuMilbY0hdYyhjKGMyMylbY0hdW2NIXVtjSF1bY0hdMylDKD1PKVtOSF1bQ0gyXVtDQEBIXShOKFtDSDNdKVtDSDNdKWM0W2NIXVtjSF1jKFtPSF0pW2NIXVtjSF00

>  <s_i_glide_gridfile>  (1393) 
ATP-Grid

>  <s_lp_Force_Field>  (1393) 
OPLS_2005

>  <s_lp_Variant>  (1393) 
YAS_R016____OTV5753507____OTV1000393____OTV2125330-4

>  <s_lp_label>  (1393) 
41_sdstereoexpander_2_neutralizer_1_epik_2_stereoizer_1

>  <s_m_source_file>  (1393) 
ATP-VSW-LIGPREP-002-in.maegz

>  <s_sd_BIOSOLVEIT.INFINISEE\_QUERY\_NAME>  (1393) 
Ref-Lig

>  <s_sd_BIOSOLVEIT.INFINISEE\_QUERY\_SMILES>  (1393) 
S(c1nc2c(cc1C[NH2+]Cc3ccc(cc3)C[NH+](C)C)cccc2)Cc4ccccc4

>  <s_sd_BIOSOLVEIT.INFINISEE\_REACTION\_NAME>  (1393) 
YAS_R016

>  <s_sd_BIOSOLVEIT.INFINISEE\_REAGENT1\_NAME>  (1393) 
OTV5753507

>  <s_sd_BIOSOLVEIT.INFINISEE\_REAGENT1\_SMILES>  (1393) 
Nc1ccccc1

>  <s_sd_BIOSOLVEIT.INFINISEE\_REAGENT2\_NAME>  (1393) 
OTV1000393

>  <s_sd_BIOSOLVEIT.INFINISEE\_REAGENT2\_SMILES>  (1393) 
Oc1ccc(cc1)C(N(C)C)CN

>  <s_sd_BIOSOLVEIT.INFINISEE\_REAGENT3\_NAME>  (1393) 
OTV2125330

>  <s_sd_BIOSOLVEIT.INFINISEE\_REAGENT3\_SMILES>  (1393) 
Clc1ccc(OCC(=O)C)cc1

>  <s_sd_BIOSOLVEIT.INFINISEE\_SPACE>  (1393) 
CHEMriya_12bn_2022-01

>  <s_vsw_compound_code>  (1393) 
1282

>  <s_vsw_variant>  (1393) 
1282-4

>  <r_epik_Charging_Adjusted_Penalty>  (1393) 
1.07210657075548

>  <r_epik_Ionization_Penalty>  (1393) 
1.0730999999999999

>  <r_epik_Ionization_Penalty_Charging>  (1393) 
0

>  <r_epik_Ionization_Penalty_Neutral>  (1393) 
1.0730999999999999

>  <r_epik_State_Penalty>  (1393) 
1.0721000000000001

>  <r_i_docking_score>  (1393) 
-3.7549203720876698

>  <r_i_glide_ecoul>  (1393) 
-8.9037227630615199

>  <r_i_glide_eff_state_penalty>  (1393) 
1.0721000000000001

>  <r_i_glide_einternal>  (1393) 
3.6919033527374299

>  <r_i_glide_emodel>  (1393) 
-57.670264692876003

>  <r_i_glide_energy>  (1393) 
-44.2147731781006

>  <r_i_glide_erotb>  (1393) 
0.71496161666077696

>  <r_i_glide_esite>  (1393) 
0

>  <r_i_glide_evdw>  (1393) 
-35.311050415039098

>  <r_i_glide_gscore>  (1393) 
-4.8270203720876701

>  <r_i_glide_hbond>  (1393) 
-0.13423084511486999

>  <r_i_glide_ligand_efficiency>  (1393) 
-0.11043883447316701

>  <r_i_glide_ligand_efficiency_ln>  (1393) 
-0.82956723214311201

>  <r_i_glide_ligand_efficiency_sa>  (1393) 
-0.35777895105804902

>  <r_i_glide_lipo>  (1393) 
-2.0533664873928199

>  <r_i_glide_metal>  (1393) 
-0

>  <r_i_glide_rewards>  (1393) 
-0.25327372102957602

>  <r_lp_Energy>  (1393) 
34.387728000000003

>  <r_lp_tautomer_probability>  (1393) 
0.999999999997365

>  <r_qp_ACxDN^.5/SA>  (1393) 
0.012373200000000001

>  <r_qp_CIQPlogS>  (1393) 
-6.3029999999999999

>  <r_qp_EA(eV)>  (1393) 
1.24

>  <r_qp_FISA>  (1393) 
103.998

>  <r_qp_FOSA>  (1393) 
195.274

>  <r_qp_IP(eV)>  (1393) 
8.9659999999999993

>  <r_qp_Jm>  (1393) 
0.000602230498813486

>  <r_qp_PISA>  (1393) 
429.13400000000001

>  <r_qp_PSA>  (1393) 
77.890000000000001

>  <r_qp_PercentHumanOralAbsorption>  (1393) 
100

>  <r_qp_QPPCaco>  (1393) 
255.02600000000001

>  <r_qp_QPPMDCK>  (1393) 
308.63099999999997

>  <r_qp_QPlogBB>  (1393) 
-0.54600000000000004

>  <r_qp_QPlogHERG>  (1393) 
-7.875

>  <r_qp_QPlogKhsa>  (1393) 
0.78100000000000003

>  <r_qp_QPlogKp>  (1393) 
-3.1230000000000002

>  <r_qp_QPlogPC16>  (1393) 
16.675999999999998

>  <r_qp_QPlogPo/w>  (1393) 
4.9160000000000004

>  <r_qp_QPlogPoct>  (1393) 
23.995999999999999

>  <r_qp_QPlogPw>  (1393) 
13.135

>  <r_qp_QPlogS>  (1393) 
-5.7750000000000004

>  <r_qp_QPpolrz>  (1393) 
50.756

>  <r_qp_SASA>  (1393) 
800.07899999999995

>  <r_qp_SAamideO>  (1393) 
0

>  <r_qp_SAfluorine>  (1393) 
0

>  <r_qp_WPSA>  (1393) 
71.671999999999997

>  <r_qp_accptHB>  (1393) 
7

>  <r_qp_dip^2/V>  (1393) 
0.0070429000000000004

>  <r_qp_dipole>  (1393) 
3.2109999999999999

>  <r_qp_donorHB>  (1393) 
2

>  <r_qp_glob>  (1393) 
0.77935489999999996

>  <r_qp_mol_MW>  (1393) 
475.97399999999999

>  <r_qp_volume>  (1393) 
1464.0450000000001

>  <r_sd_BIOSOLVEIT.INFINISEE\_FTREES\_SIMILARITY>  (1393) 
0.92000000000000004

>  <r_sd_BIOSOLVEIT.LOGP>  (1393) 
3.7884000000000002

>  <r_sd_BIOSOLVEIT.MOLECULAR\_WEIGHT>  (1393) 
476.98099999999999

>  <r_sd_BIOSOLVEIT.TPSA>  (1393) 
75.890000000000001

>  <i_epik_Tot_Q>  (1393) 
0

>  <i_epik_Tot_abs_Q>  (1393) 
0

>  <i_f3d_flags>  (1393) 
0

>  <i_i_glide_confnum>  (1393) 
10

>  <i_i_glide_lignum>  (1393) 
78

>  <i_i_glide_posenum>  (1393) 
2

>  <i_i_glide_rotatable_bonds>  (1393) 
10

>  <i_lp_mmshare_version>  (1393) 
65135

>  <i_m_ct_format>  (1393) 
2

>  <i_m_source_file_index>  (1393) 
41

>  <i_qp_#NandO>  (1393) 
6

>  <i_qp_#acid>  (1393) 
0

>  <i_qp_#amide>  (1393) 
0

>  <i_qp_#amidine>  (1393) 
0

>  <i_qp_#amine>  (1393) 
1

>  <i_qp_#in34>  (1393) 
0

>  <i_qp_#in56>  (1393) 
22

>  <i_qp_#metab>  (1393) 
5

>  <i_qp_#nonHatm>  (1393) 
34

>  <i_qp_#noncon>  (1393) 
0

>  <i_qp_#ringatoms>  (1393) 
22

>  <i_qp_#rotor>  (1393) 
9

>  <i_qp_#rtvFG>  (1393) 
0

>  <i_qp_#stars>  (1393) 
0

>  <i_qp_CNS>  (1393) 
1

>  <i_qp_HumanOralAbsorption>  (1393) 
3

>  <i_qp_RuleOfFive>  (1393) 
0

>  <i_qp_RuleOfThree>  (1393) 
1

>  <i_sd_BIOSOLVEIT.INFINISEE\_RESULT\_RANK>  (1393) 
16789

>  <i_sd_version>  (1393) 
0

>  <b_lp_Chiralities_Consistent>  (1393) 
1

>  <b_sd_chiral_flag>  (1393) 
0

>  <canonical_id>  (1393) 
ATP-HTVS-DC065C207C84

>  <compound_code>  (1393) 
1282

>  <title>  (1393) 
YAS_R016____OTV5753507____OTV1000393____OTV2125330

>  <variant>  (1393) 
1282-4

>  <source_file>  (1393) 
运行/运行/ATP-VSW/ATP-VSW-DOCK_HTVS_1-002_lib.maegz

>  <canonical_smiles>  (1393) 
CN(C)[C@H](CNC(=O)c1cc(COc2ccc(Cl)cc2)nc2ccccc12)c1ccc(O)cc1

>  <scaffold>  (1393) 
O=C(NCCc1ccccc1)c1cc(COc2ccccc2)nc2ccccc12

>  <molecular_formula>  (1393) 
C27H26ClN3O3

$$$$
ATP-HTVS-DC18FC237305
     RDKit          3D

 61 64  0  0  0  0  0  0  0  0999 V2000
  202.1828  179.0733  152.8942 F   0  0  0  0  0  0  0  0  0  0  0  0
  201.1169  178.9314  153.7160 C   0  0  0  0  0  0  0  0  0  0  0  0
  200.1893  179.9857  153.8712 C   0  0  0  0  0  0  0  0  0  0  0  0
  199.0460  179.8204  154.6906 C   0  0  0  0  0  0  0  0  0  0  0  0
  198.9037  178.5992  155.4009 C   0  0  0  0  0  0  0  0  0  0  0  0
  199.8334  177.5595  155.2613 C   0  0  0  0  0  0  0  0  0  0  0  0
  200.9303  177.7136  154.3995 C   0  0  0  0  0  0  0  0  0  0  0  0
  198.0505  180.9843  154.8616 C   0  0  1  0  0  0  0  0  0  0  0  0
  197.4763  181.4894  153.6121 N   0  0  0  0  0  0  0  0  0  0  0  0
  196.7779  182.7743  153.7563 C   0  0  2  0  0  0  0  0  0  0  0  0
  196.6116  180.5071  152.9926 C   0  0  2  0  0  0  0  0  0  0  0  0
  196.9784  180.6671  156.0020 C   0  0  1  0  0  0  0  0  0  0  0  0
  196.2216  181.8386  156.5130 N   0  0  1  0  0  0  0  0  0  0  0  0
  195.8351  181.8195  157.9309 C   0  0  1  0  0  0  0  0  0  0  0  0
  196.1406  183.1570  158.6012 C   0  0  0  0  0  0  0  0  0  0  0  0
  197.3915  183.8246  158.8981 C   0  0  0  0  0  0  0  0  0  0  0  0
  197.1743  184.9626  159.5381 N   0  0  0  0  0  0  0  0  0  0  0  0
  195.8344  185.0649  159.7184 N   0  0  0  0  0  0  0  0  0  0  0  0
  195.2937  186.1649  160.4125 C   0  0  0  0  0  0  0  0  0  0  0  0
  196.0583  187.3400  160.6343 C   0  0  0  0  0  0  0  0  0  0  0  0
  195.5215  188.4126  161.3538 C   0  0  0  0  0  0  0  0  0  0  0  0
  194.1960  188.3376  161.8461 C   0  0  0  0  0  0  0  0  0  0  0  0
  193.4336  187.1736  161.6445 C   0  0  0  0  0  0  0  0  0  0  0  0
  193.9696  186.1077  160.9172 C   0  0  0  0  0  0  0  0  0  0  0  0
  195.1903  183.9798  159.1483 C   0  0  0  0  0  0  0  0  0  0  0  0
  198.8056  183.4657  158.5744 C   0  0  0  0  0  0  0  0  0  0  0  0
  199.0679  182.7330  157.4085 C   0  0  0  0  0  0  0  0  0  0  0  0
  200.3527  182.2986  157.0609 C   0  0  0  0  0  0  0  0  0  0  0  0
  201.4652  182.6945  157.8257 C   0  0  0  0  0  0  0  0  0  0  0  0
  202.8250  182.2951  157.3763 N   0  0  0  0  0  0  0  0  0  0  0  0
  203.7758  182.6174  158.0931 O   0  0  0  0  0  0  0  0  0  0  0  0
  202.9314  181.6750  156.3254 O   0  0  0  0  0  0  0  0  0  0  0  0
  201.2415  183.5045  158.9770 C   0  0  0  0  0  0  0  0  0  0  0  0
  199.9157  183.8831  159.3586 C   0  0  0  0  0  0  0  0  0  0  0  0
  196.8485  182.6143  156.4536 H   0  0  0  0  0  0  0  0  0  0  0  0
  200.3737  180.9214  153.3610 H   0  0  0  0  0  0  0  0  0  0  0  0
  198.1004  178.4034  156.0950 H   0  0  0  0  0  0  0  0  0  0  0  0
  199.6662  176.6448  155.8129 H   0  0  0  0  0  0  0  0  0  0  0  0
  201.6157  176.8885  154.2669 H   0  0  0  0  0  0  0  0  0  0  0  0
  198.7072  181.8235  155.0726 H   0  0  0  0  0  0  0  0  0  0  0  0
  196.4109  183.1572  152.8031 H   0  0  0  0  0  0  0  0  0  0  0  0
  197.3924  183.5369  154.2566 H   0  0  0  0  0  0  0  0  0  0  0  0
  195.8714  182.6455  154.3280 H   0  0  0  0  0  0  0  0  0  0  0  0
  196.1414  180.9591  152.1196 H   0  0  0  0  0  0  0  0  0  0  0  0
  195.8245  180.2032  153.6796 H   0  0  0  0  0  0  0  0  0  0  0  0
  197.2042  179.6313  152.7054 H   0  0  0  0  0  0  0  0  0  0  0  0
  196.2897  179.8577  155.7502 H   0  0  0  0  0  0  0  0  0  0  0  0
  197.5473  180.3154  156.8736 H   0  0  0  0  0  0  0  0  0  0  0  0
  194.7683  181.5657  157.9533 H   0  0  0  0  0  0  0  0  0  0  0  0
  196.3464  181.0376  158.5084 H   0  0  0  0  0  0  0  0  0  0  0  0
  197.0689  187.4133  160.2538 H   0  0  0  0  0  0  0  0  0  0  0  0
  196.0939  189.3201  161.4739 H   0  0  0  0  0  0  0  0  0  0  0  0
  193.7699  189.1856  162.3553 H   0  0  0  0  0  0  0  0  0  0  0  0
  192.4226  187.1237  162.0213 H   0  0  0  0  0  0  0  0  0  0  0  0
  193.3683  185.2223  160.7805 H   0  0  0  0  0  0  0  0  0  0  0  0
  194.1109  183.8752  159.1999 H   0  0  0  0  0  0  0  0  0  0  0  0
  198.2583  182.5734  156.7344 H   0  0  0  0  0  0  0  0  0  0  0  0
  200.5140  181.6972  156.1804 H   0  0  0  0  0  0  0  0  0  0  0  0
  202.0785  183.8447  159.5735 H   0  0  0  0  0  0  0  0  0  0  0  0
  199.7363  184.5192  160.2284 H   0  0  0  0  0  0  0  0  0  0  0  0
  195.3854  182.0633  155.9248 H   0  0  0  0  0  0  0  0  0  0  0  0
  1  2  1  0
  2  3  2  0
  2  7  1  0
  3  4  1  0
  3 36  1  0
  4  5  2  0
  4  8  1  0
  5  6  1  0
  5 37  1  0
  6  7  2  0
  6 38  1  0
  7 39  1  0
  8  9  1  0
  8 12  1  0
  8 40  1  1
  9 10  1  0
  9 11  1  0
 10 41  1  6
 10 42  1  0
 10 43  1  0
 11 44  1  6
 11 45  1  0
 11 46  1  0
 12 13  1  0
 12 47  1  6
 12 48  1  0
 13 14  1  0
 13 35  1  1
 13 61  1  0
 14 15  1  0
 14 49  1  6
 14 50  1  0
 15 16  1  0
 15 25  2  0
 16 17  2  0
 16 26  1  0
 17 18  1  0
 18 19  1  0
 18 25  1  0
 19 20  2  0
 19 24  1  0
 20 21  1  0
 20 51  1  0
 21 22  2  0
 21 52  1  0
 22 23  1  0
 22 53  1  0
 23 24  2  0
 23 54  1  0
 24 55  1  0
 25 56  1  0
 26 27  1  0
 26 34  2  0
 27 28  2  0
 27 57  1  0
 28 29  1  0
 28 58  1  0
 29 30  1  0
 29 33  2  0
 30 31  1  0
 30 32  2  0
 33 34  1  0
 33 59  1  0
 34 60  1  0
M  CHG  3  13   1  30   1  31  -1
M  END
>  <s_epik_cmdline>  (1394) 
J2VwaWtfcHl0aG9uJywgJy1waCcsICc3LjAwMDAwMCcsICctcGh0JywgJzIuMDAwMDAwJywgJy1tcycsICcxNicsICctdG4nLCAnOCcsICctbWEnLCAnMjAwJywgJy1pbWFlJywgJzxpbmZpbGUubWFlPicsICctb21hZScsICc8b3V0ZmlsZS5tYWU+Jw==

>  <s_epik_input>  (1394) 
RmMxW2NIXWMoW2NIXVtjSF1bY0hdMSlbQ0BASF0oTihbQ0gzXSlbQ0gzXSlbQ0gyXVtOSF1bQ0gyXWMyYygtYzNbY0hdW2NIXWMoW04rXShbTy1dKT1PKVtjSF1bY0hdMylubihbY0hdMiktYzRbY0hdW2NIXVtjSF1bY0hdW2NIXTQ=

>  <s_i_glide_gridfile>  (1394) 
ATP-Grid

>  <s_lp_Force_Field>  (1394) 
OPLS_2005

>  <s_lp_Variant>  (1394) 
a4____181840____300740-1

>  <s_lp_label>  (1394) 
385_sdstereoexpander_1_neutralizer_1_epik_1_stereoizer_1

>  <s_m_source_file>  (1394) 
ATP-VSW-LIGPREP-003-in.maegz

>  <s_sd_BIOSOLVEIT.INFINISEE\_QUERY\_NAME>  (1394) 
Ref-Lig

>  <s_sd_BIOSOLVEIT.INFINISEE\_QUERY\_SMILES>  (1394) 
S(c1nc2c(cc1C[NH2+]Cc3ccc(cc3)C[NH+](C)C)cccc2)Cc4ccccc4

>  <s_sd_BIOSOLVEIT.INFINISEE\_REACTION\_NAME>  (1394) 
a4

>  <s_sd_BIOSOLVEIT.INFINISEE\_REAGENT1\_SMILES>  (1394) 
[R1*]NCC(N(C)C)c1cc(F)ccc1

>  <s_sd_BIOSOLVEIT.INFINISEE\_REAGENT2\_SMILES>  (1394) 
[R1*]CC=1C(=NN(c2ccccc2)C1)c3ccc([N+]([O-])=O)cc3

>  <s_sd_BIOSOLVEIT.INFINISEE\_SPACE>  (1394) 
FreedomSpace_5bn_2023-06

>  <s_vsw_compound_code>  (1394) 
12291

>  <s_vsw_variant>  (1394) 
12291-1

>  <r_epik_Charging_Adjusted_Penalty>  (1394) 
0.23931055740289101

>  <r_epik_Ionization_Penalty>  (1394) 
0.052299999999999999

>  <r_epik_Ionization_Penalty_Charging>  (1394) 
0.0458

>  <r_epik_Ionization_Penalty_Neutral>  (1394) 
0.0064999999999999997

>  <r_epik_State_Penalty>  (1394) 
0.19359999999999999

>  <r_i_docking_score>  (1394) 
-4.5677015790169504

>  <r_i_glide_ecoul>  (1394) 
-9.9443082809448207

>  <r_i_glide_eff_state_penalty>  (1394) 
0.19359999999999999

>  <r_i_glide_einternal>  (1394) 
14.5052690505981

>  <r_i_glide_emodel>  (1394) 
-52.298024713708799

>  <r_i_glide_energy>  (1394) 
-41.001181602477999

>  <r_i_glide_erotb>  (1394) 
0.56947162014835195

>  <r_i_glide_esite>  (1394) 
-0.094820316039894201

>  <r_i_glide_evdw>  (1394) 
-31.0568733215332

>  <r_i_glide_gscore>  (1394) 
-4.7613015790169504

>  <r_i_glide_hbond>  (1394) 
-0.20000000000000001

>  <r_i_glide_ligand_efficiency>  (1394) 
-0.13434416408873401

>  <r_i_glide_ligand_efficiency_ln>  (1394) 
-1.00913339849443

>  <r_i_glide_ligand_efficiency_sa>  (1394) 
-0.43522293890303698

>  <r_i_glide_lipo>  (1394) 
-1.3934233962687801

>  <r_i_glide_metal>  (1394) 
-0

>  <r_i_glide_rewards>  (1394) 
-0.59803957863824597

>  <r_lp_Energy>  (1394) 
25.723927

>  <r_lp_tautomer_probability>  (1394) 
1

>  <r_qp_ACxDN^.5/SA>  (1394) 
0.0076010000000000001

>  <r_qp_CIQPlogS>  (1394) 
-5.6509999999999998

>  <r_qp_EA(eV)>  (1394) 
1.2430000000000001

>  <r_qp_FISA>  (1394) 
84.552999999999997

>  <r_qp_FOSA>  (1394) 
191.02600000000001

>  <r_qp_IP(eV)>  (1394) 
9.1099999999999994

>  <r_qp_Jm>  (1394) 
0.00036619128760602399

>  <r_qp_PISA>  (1394) 
407.81400000000002

>  <r_qp_PSA>  (1394) 
72.180999999999997

>  <r_qp_PercentHumanOralAbsorption>  (1394) 
89.709999999999994

>  <r_qp_QPPCaco>  (1394) 
97.25

>  <r_qp_QPPMDCK>  (1394) 
80.974000000000004

>  <r_qp_QPlogBB>  (1394) 
0.215

>  <r_qp_QPlogHERG>  (1394) 
-7.7110000000000003

>  <r_qp_QPlogKhsa>  (1394) 
0.998

>  <r_qp_QPlogKp>  (1394) 
-5.0940000000000003

>  <r_qp_QPlogPC16>  (1394) 
14.43

>  <r_qp_QPlogPo/w>  (1394) 
4.6429999999999998

>  <r_qp_QPlogPoct>  (1394) 
21.989000000000001

>  <r_qp_QPlogPw>  (1394) 
10.162000000000001

>  <r_qp_QPlogS>  (1394) 
-4.0039999999999996

>  <r_qp_QPpolrz>  (1394) 
48.436999999999998

>  <r_qp_SASA>  (1394) 
723.59100000000001

>  <r_qp_SAamideO>  (1394) 
0

>  <r_qp_SAfluorine>  (1394) 
40.198999999999998

>  <r_qp_WPSA>  (1394) 
40.198999999999998

>  <r_qp_accptHB>  (1394) 
5.5

>  <r_qp_dip^2/V>  (1394) 
0.086773799999999998

>  <r_qp_dipole>  (1394) 
10.939

>  <r_qp_donorHB>  (1394) 
1

>  <r_qp_glob>  (1394) 
0.82807339999999996

>  <r_qp_mol_MW>  (1394) 
459.52199999999999

>  <r_qp_volume>  (1394) 
1379.0989999999999

>  <r_sd_BIOSOLVEIT.INFINISEE\_FTREES\_SIMILARITY>  (1394) 
0.90900000000000003

>  <r_sd_BIOSOLVEIT.LOGP>  (1394) 
2.5358000000000001

>  <r_sd_BIOSOLVEIT.MOLECULAR\_WEIGHT>  (1394) 
461.53800000000001

>  <r_sd_BIOSOLVEIT.TPSA>  (1394) 
84.689999999999998

>  <i_epik_Tot_Q>  (1394) 
1

>  <i_epik_Tot_abs_Q>  (1394) 
3

>  <i_f3d_flags>  (1394) 
0

>  <i_i_glide_confnum>  (1394) 
4

>  <i_i_glide_lignum>  (1394) 
227

>  <i_i_glide_posenum>  (1394) 
7

>  <i_i_glide_rotatable_bonds>  (1394) 
9

>  <i_lp_mmshare_version>  (1394) 
65135

>  <i_m_ct_format>  (1394) 
2

>  <i_m_source_file_index>  (1394) 
385

>  <i_qp_#NandO>  (1394) 
7

>  <i_qp_#acid>  (1394) 
0

>  <i_qp_#amide>  (1394) 
0

>  <i_qp_#amidine>  (1394) 
0

>  <i_qp_#amine>  (1394) 
2

>  <i_qp_#in34>  (1394) 
0

>  <i_qp_#in56>  (1394) 
23

>  <i_qp_#metab>  (1394) 
6

>  <i_qp_#nonHatm>  (1394) 
34

>  <i_qp_#noncon>  (1394) 
0

>  <i_qp_#ringatoms>  (1394) 
23

>  <i_qp_#rotor>  (1394) 
7

>  <i_qp_#rtvFG>  (1394) 
0

>  <i_qp_#stars>  (1394) 
0

>  <i_qp_CNS>  (1394) 
1

>  <i_qp_HumanOralAbsorption>  (1394) 
3

>  <i_qp_RuleOfFive>  (1394) 
0

>  <i_qp_RuleOfThree>  (1394) 
0

>  <i_sd_BIOSOLVEIT.INFINISEE\_REAGENT1\_NAME>  (1394) 
181840

>  <i_sd_BIOSOLVEIT.INFINISEE\_REAGENT2\_NAME>  (1394) 
300740

>  <i_sd_BIOSOLVEIT.INFINISEE\_RESULT\_RANK>  (1394) 
49223

>  <i_sd_version>  (1394) 
0

>  <b_lp_Chiralities_Consistent>  (1394) 
1

>  <b_sd_chiral_flag>  (1394) 
0

>  <canonical_id>  (1394) 
ATP-HTVS-DC18FC237305

>  <compound_code>  (1394) 
12291

>  <title>  (1394) 
a4____181840____300740

>  <variant>  (1394) 
12291-1

>  <source_file>  (1394) 
运行/运行/ATP-VSW/ATP-VSW-DOCK_HTVS_1-003_lib/ATP-VSW-DOCK_HTVS_1-003_lib.mae

>  <canonical_smiles>  (1394) 
CN(C)[C@@H](C[NH2+]Cc1cn(-c2ccccc2)nc1-c1ccc([N+](=O)[O-])cc1)c1cccc(F)c1

>  <scaffold>  (1394) 
c1ccc(CC[NH2+]Cc2cn(-c3ccccc3)nc2-c2ccccc2)cc1

>  <molecular_formula>  (1394) 
C26H27FN5O2+

$$$$
ATP-HTVS-DC20B32D34B9
     RDKit          3D

 58 61  0  0  0  0  0  0  0  0999 V2000
  202.3143  181.7807  158.9778 S   0  0  0  0  0  0  0  0  0  0  0  0
  202.1006  183.3541  159.7134 C   0  0  0  0  0  0  0  0  0  0  0  0
  201.1628  184.1524  158.9809 C   0  0  0  0  0  0  0  0  0  0  0  0
  200.9243  185.4552  159.4824 C   0  0  0  0  0  0  0  0  0  0  0  0
  201.5751  185.9412  160.6370 C   0  0  0  0  0  0  0  0  0  0  0  0
  202.4931  185.1338  161.3226 C   0  0  0  0  0  0  0  0  0  0  0  0
  203.1230  185.6002  162.4283 F   0  0  0  0  0  0  0  0  0  0  0  0
  202.7554  183.8349  160.8630 C   0  0  0  0  0  0  0  0  0  0  0  0
  200.6313  183.4238  157.8272 C   0  0  0  0  0  0  0  0  0  0  0  0
  199.7072  184.0301  156.9399 N   0  0  0  0  0  0  0  0  0  0  0  0
  198.4318  183.3530  156.6541 C   0  0  1  0  0  0  0  0  0  0  0  0
  197.4130  183.5063  157.7740 C   0  0  0  0  0  0  0  0  0  0  0  0
  197.4671  184.5591  158.6477 C   0  0  0  0  0  0  0  0  0  0  0  0
  196.4724  184.8068  159.6125 C   0  0  0  0  0  0  0  0  0  0  0  0
  195.4307  183.8583  159.7399 C   0  0  0  0  0  0  0  0  0  0  0  0
  195.3869  182.7234  158.9011 C   0  0  0  0  0  0  0  0  0  0  0  0
  196.3579  182.5370  157.9018 C   0  0  0  0  0  0  0  0  0  0  0  0
  196.5528  186.0538  160.4740 C   0  0  1  0  0  0  0  0  0  0  0  0
  196.2638  187.3185  159.7366 N   0  0  1  0  0  0  0  0  0  0  0  0
  196.1472  188.4798  160.6520 C   0  0  2  0  0  0  0  0  0  0  0  0
  197.1975  187.6199  158.6188 C   0  0  2  0  0  0  0  0  0  0  0  0
  201.1431  182.1597  157.7391 C   0  0  0  0  0  0  0  0  0  0  0  0
  200.9495  181.1028  156.7131 C   0  0  0  0  0  0  0  0  0  0  0  0
  200.6833  181.4337  155.5532 O   0  0  0  0  0  0  0  0  0  0  0  0
  201.0088  179.8381  157.1451 N   0  0  0  0  0  0  0  0  0  0  0  0
  201.0252  178.6311  156.3966 C   0  0  0  0  0  0  0  0  0  0  0  0
  201.1502  177.4309  157.1239 C   0  0  0  0  0  0  0  0  0  0  0  0
  201.2058  176.1948  156.4541 C   0  0  0  0  0  0  0  0  0  0  0  0
  201.1513  176.1369  155.0421 C   0  0  0  0  0  0  0  0  0  0  0  0
  201.2221  174.8450  154.3340 N   0  0  0  0  0  0  0  0  0  0  0  0
  201.4774  173.8404  154.9810 O   0  0  0  0  0  0  0  0  0  0  0  0
  201.0173  174.8413  153.1215 O   0  0  0  0  0  0  0  0  0  0  0  0
  201.0292  177.3399  154.3159 C   0  0  0  0  0  0  0  0  0  0  0  0
  200.9688  178.5734  154.9815 C   0  0  0  0  0  0  0  0  0  0  0  0
  200.2398  186.1118  158.9711 H   0  0  0  0  0  0  0  0  0  0  0  0
  201.3722  186.9380  161.0036 H   0  0  0  0  0  0  0  0  0  0  0  0
  203.4627  183.2101  161.3870 H   0  0  0  0  0  0  0  0  0  0  0  0
  199.6331  185.0284  156.9924 H   0  0  0  0  0  0  0  0  0  0  0  0
  198.0259  183.7601  155.7303 H   0  0  0  0  0  0  0  0  0  0  0  0
  198.5682  182.2963  156.4795 H   0  0  0  0  0  0  0  0  0  0  0  0
  198.2646  185.3058  158.5706 H   0  0  0  0  0  0  0  0  0  0  0  0
  194.6665  183.9916  160.4960 H   0  0  0  0  0  0  0  0  0  0  0  0
  194.6020  181.9886  159.0184 H   0  0  0  0  0  0  0  0  0  0  0  0
  196.2991  181.6866  157.2413 H   0  0  0  0  0  0  0  0  0  0  0  0
  195.8430  185.9448  161.2931 H   0  0  0  0  0  0  0  0  0  0  0  0
  197.5404  186.1057  160.9325 H   0  0  0  0  0  0  0  0  0  0  0  0
  197.0729  188.6438  161.2029 H   0  0  0  0  0  0  0  0  0  0  0  0
  195.3378  188.3483  161.3696 H   0  0  0  0  0  0  0  0  0  0  0  0
  195.9432  189.3861  160.0856 H   0  0  0  0  0  0  0  0  0  0  0  0
  198.2158  187.6967  159.0001 H   0  0  0  0  0  0  0  0  0  0  0  0
  196.9589  188.5949  158.1603 H   0  0  0  0  0  0  0  0  0  0  0  0
  197.1843  186.8607  157.8552 H   0  0  0  0  0  0  0  0  0  0  0  0
  201.1365  179.7256  158.1426 H   0  0  0  0  0  0  0  0  0  0  0  0
  201.1891  177.4521  158.2043 H   0  0  0  0  0  0  0  0  0  0  0  0
  201.2973  175.2899  157.0364 H   0  0  0  0  0  0  0  0  0  0  0  0
  200.9996  177.3333  153.2351 H   0  0  0  0  0  0  0  0  0  0  0  0
  200.9001  179.4532  154.3630 H   0  0  0  0  0  0  0  0  0  0  0  0
  195.3571  187.1897  159.3143 H   0  0  0  0  0  0  0  0  0  0  0  0
  1  2  1  0
  1 22  1  0
  2  3  1  0
  2  8  2  0
  3  4  2  0
  3  9  1  0
  4  5  1  0
  4 35  1  0
  5  6  2  0
  5 36  1  0
  6  7  1  0
  6  8  1  0
  8 37  1  0
  9 10  1  0
  9 22  2  0
 10 11  1  0
 10 38  1  0
 11 12  1  0
 11 39  1  6
 11 40  1  0
 12 13  2  0
 12 17  1  0
 13 14  1  0
 13 41  1  0
 14 15  2  0
 14 18  1  0
 15 16  1  0
 15 42  1  0
 16 17  2  0
 16 43  1  0
 17 44  1  0
 18 19  1  0
 18 45  1  1
 18 46  1  0
 19 20  1  0
 19 21  1  0
 19 58  1  6
 20 47  1  1
 20 48  1  0
 20 49  1  0
 21 50  1  1
 21 51  1  0
 21 52  1  0
 22 23  1  0
 23 24  2  0
 23 25  1  0
 25 26  1  0
 25 53  1  0
 26 27  1  0
 26 34  2  0
 27 28  2  0
 27 54  1  0
 28 29  1  0
 28 55  1  0
 29 30  1  0
 29 33  2  0
 30 31  1  0
 30 32  2  0
 33 34  1  0
 33 56  1  0
 34 57  1  0
M  CHG  3  19   1  30   1  31  -1
M  END
>  <s_epik_cmdline>  (1395) 
J2VwaWtfcHl0aG9uJywgJy1waCcsICc3LjAwMDAwMCcsICctcGh0JywgJzIuMDAwMDAwJywgJy1tcycsICcxNicsICctdG4nLCAnOCcsICctbWEnLCAnMjAwJywgJy1pbWFlJywgJzxpbmZpbGUubWFlPicsICctb21hZScsICc8b3V0ZmlsZS5tYWU+Jw==

>  <s_epik_input>  (1395) 
W08tXVtOK10oPU8pYyhbY0hdW2NIXTEpW2NIXVtjSF1jMVtOSF1DKD1PKWMoczIpYyhjKGMyMylbY0hdW2NIXWMoRilbY0hdMylbTkhdW0NIMl1jNFtjSF1jKFtjSF1bY0hdW2NIXTQpW0NIMl1OKFtDSDNdKVtDSDNd

>  <s_i_glide_gridfile>  (1395) 
ATP-Grid

>  <s_lp_Force_Field>  (1395) 
OPLS_2005

>  <s_lp_Variant>  (1395) 
rxn512c____EMOL486434____EMOL526741____EMOL2873214-1

>  <s_lp_label>  (1395) 
2665_sdstereoexpander_1_neutralizer_1_epik_1_stereoizer_1

>  <s_m_source_file>  (1395) 
ATP-VSW-LIGPREP-001-in.maegz

>  <s_sd_BIOSOLVEIT.INFINISEE\_QUERY\_NAME>  (1395) 
Ref-Lig

>  <s_sd_BIOSOLVEIT.INFINISEE\_QUERY\_SMILES>  (1395) 
S(c1nc2c(cc1C[NH2+]Cc3ccc(cc3)C[NH+](C)C)cccc2)Cc4ccccc4

>  <s_sd_BIOSOLVEIT.INFINISEE\_REACTION\_NAME>  (1395) 
rxn512c

>  <s_sd_BIOSOLVEIT.INFINISEE\_REAGENT1\_NAME>  (1395) 
EMOL486434

>  <s_sd_BIOSOLVEIT.INFINISEE\_REAGENT1\_SMILES>  (1395) 
[O-][N+](=O)c1ccc(N)cc1

>  <s_sd_BIOSOLVEIT.INFINISEE\_REAGENT2\_NAME>  (1395) 
EMOL526741

>  <s_sd_BIOSOLVEIT.INFINISEE\_REAGENT2\_SMILES>  (1395) 
ClC=1c2c(SC1C(=O)O)cc(F)cc2

>  <s_sd_BIOSOLVEIT.INFINISEE\_REAGENT3\_NAME>  (1395) 
EMOL2873214

>  <s_sd_BIOSOLVEIT.INFINISEE\_REAGENT3\_SMILES>  (1395) 
N(Cc1cc(ccc1)CN)(C)C

>  <s_sd_BIOSOLVEIT.INFINISEE\_SPACE>  (1395) 
eXplore_7tr_2022-12

>  <s_vsw_compound_code>  (1395) 
85249

>  <s_vsw_variant>  (1395) 
85249-1

>  <r_epik_Charging_Adjusted_Penalty>  (1395) 
0.086140609825027206

>  <r_epik_Ionization_Penalty>  (1395) 
0.043200000000000002

>  <r_epik_Ionization_Penalty_Charging>  (1395) 
0.043099999999999999

>  <r_epik_Ionization_Penalty_Neutral>  (1395) 
0.0001

>  <r_epik_State_Penalty>  (1395) 
0.043099999999999999

>  <r_i_docking_score>  (1395) 
-3.9507401898010199

>  <r_i_glide_ecoul>  (1395) 
-1.92595946788788

>  <r_i_glide_eff_state_penalty>  (1395) 
0.043099999999999999

>  <r_i_glide_einternal>  (1395) 
5.4649591445922896

>  <r_i_glide_emodel>  (1395) 
-49.221713265501002

>  <r_i_glide_energy>  (1395) 
-39.809828639030499

>  <r_i_glide_erotb>  (1395) 
0.617082908213614

>  <r_i_glide_esite>  (1395) 
-0.00283363314226534

>  <r_i_glide_evdw>  (1395) 
-37.883869171142599

>  <r_i_glide_gscore>  (1395) 
-3.9938401898010198

>  <r_i_glide_hbond>  (1395) 
0

>  <r_i_glide_ligand_efficiency>  (1395) 
-0.116198240876501

>  <r_i_glide_ligand_efficiency_ln>  (1395) 
-0.872829322435832

>  <r_i_glide_ligand_efficiency_sa>  (1395) 
-0.37643719198871101

>  <r_i_glide_lipo>  (1395) 
-2.07588641423024

>  <r_i_glide_metal>  (1395) 
-0

>  <r_i_glide_rewards>  (1395) 
-0.34911567190182202

>  <r_lp_Energy>  (1395) 
37.148791000000003

>  <r_qp_ACxDN^.5/SA>  (1395) 
0.0067520000000000002

>  <r_qp_CIQPlogS>  (1395) 
-5.923

>  <r_qp_EA(eV)>  (1395) 
1.468

>  <r_qp_FISA>  (1395) 
144.03800000000001

>  <r_qp_FOSA>  (1395) 
195.363

>  <r_qp_IP(eV)>  (1395) 
8.7029999999999994

>  <r_qp_Jm>  (1395) 
7.2918289107291199e-07

>  <r_qp_PISA>  (1395) 
392.16399999999999

>  <r_qp_PSA>  (1395) 
96.754999999999995

>  <r_qp_PercentHumanOralAbsorption>  (1395) 
80.652000000000001

>  <r_qp_QPPCaco>  (1395) 
26.533000000000001

>  <r_qp_QPPMDCK>  (1395) 
34.128999999999998

>  <r_qp_QPlogBB>  (1395) 
-0.57299999999999995

>  <r_qp_QPlogHERG>  (1395) 
-8.7119999999999997

>  <r_qp_QPlogKhsa>  (1395) 
1.133

>  <r_qp_QPlogKp>  (1395) 
-6.1500000000000004

>  <r_qp_QPlogPC16>  (1395) 
15.925000000000001

>  <r_qp_QPlogPo/w>  (1395) 
4.8200000000000003

>  <r_qp_QPlogPoct>  (1395) 
22.303999999999998

>  <r_qp_QPlogPw>  (1395) 
10.473000000000001

>  <r_qp_QPlogS>  (1395) 
-5.6669999999999998

>  <r_qp_QPpolrz>  (1395) 
50.600999999999999

>  <r_qp_SASA>  (1395) 
814.57299999999998

>  <r_qp_SAamideO>  (1395) 
0

>  <r_qp_SAfluorine>  (1395) 
47.085000000000001

>  <r_qp_WPSA>  (1395) 
83.007999999999996

>  <r_qp_accptHB>  (1395) 
5.5

>  <r_qp_dip^2/V>  (1395) 
0.043077799999999999

>  <r_qp_dipole>  (1395) 
7.9109999999999996

>  <r_qp_donorHB>  (1395) 
1

>  <r_qp_glob>  (1395) 
0.76161100000000004

>  <r_qp_mol_MW>  (1395) 
478.54000000000002

>  <r_qp_volume>  (1395) 
1452.9380000000001

>  <r_sd_BIOSOLVEIT.INFINISEE\_FTREES\_SIMILARITY>  (1395) 
0.90900000000000003

>  <r_sd_BIOSOLVEIT.LOGP>  (1395) 
4.4574999999999996

>  <r_sd_BIOSOLVEIT.MOLECULAR\_WEIGHT>  (1395) 
479.553

>  <r_sd_BIOSOLVEIT.TPSA>  (1395) 
91.390000000000001

>  <i_epik_Tot_Q>  (1395) 
1

>  <i_epik_Tot_abs_Q>  (1395) 
3

>  <i_f3d_flags>  (1395) 
0

>  <i_i_glide_confnum>  (1395) 
8

>  <i_i_glide_lignum>  (1395) 
1174

>  <i_i_glide_posenum>  (1395) 
14

>  <i_i_glide_rotatable_bonds>  (1395) 
9

>  <i_lp_mmshare_version>  (1395) 
65135

>  <i_m_ct_format>  (1395) 
2

>  <i_m_source_file_index>  (1395) 
2665

>  <i_qp_#NandO>  (1395) 
7

>  <i_qp_#acid>  (1395) 
0

>  <i_qp_#amide>  (1395) 
0

>  <i_qp_#amidine>  (1395) 
0

>  <i_qp_#amine>  (1395) 
2

>  <i_qp_#in34>  (1395) 
0

>  <i_qp_#in56>  (1395) 
21

>  <i_qp_#metab>  (1395) 
6

>  <i_qp_#nonHatm>  (1395) 
34

>  <i_qp_#noncon>  (1395) 
0

>  <i_qp_#ringatoms>  (1395) 
21

>  <i_qp_#rotor>  (1395) 
8

>  <i_qp_#rtvFG>  (1395) 
0

>  <i_qp_#stars>  (1395) 
0

>  <i_qp_CNS>  (1395) 
1

>  <i_qp_HumanOralAbsorption>  (1395) 
2

>  <i_qp_RuleOfFive>  (1395) 
0

>  <i_qp_RuleOfThree>  (1395) 
0

>  <i_sd_BIOSOLVEIT.INFINISEE\_RESULT\_RANK>  (1395) 
48231

>  <i_sd_version>  (1395) 
0

>  <b_lp_Chiralities_Consistent>  (1395) 
1

>  <b_sd_chiral_flag>  (1395) 
0

>  <canonical_id>  (1395) 
ATP-HTVS-DC20B32D34B9

>  <compound_code>  (1395) 
85249

>  <title>  (1395) 
rxn512c____EMOL486434____EMOL526741____EMOL2873214

>  <variant>  (1395) 
85249-1

>  <source_file>  (1395) 
运行/运行/ATP-VSW/ATP-VSW-DOCK_HTVS_1-001_lib/ATP-VSW-DOCK_HTVS_1-001_lib

>  <canonical_smiles>  (1395) 
C[NH+](C)Cc1cccc(CNc2c(C(=O)Nc3ccc([N+](=O)[O-])cc3)sc3cc(F)ccc23)c1

>  <scaffold>  (1395) 
O=C(Nc1ccccc1)c1sc2ccccc2c1NCc1ccccc1

>  <molecular_formula>  (1395) 
C25H24FN4O3S+

$$$$
ATP-HTVS-DC6B7BCD18A9
     RDKit          3D

 63 65  0  0  0  0  0  0  0  0999 V2000
  194.1467  182.9973  158.5775 O   0  0  0  0  0  0  0  0  0  0  0  0
  195.3661  183.6408  158.6769 C   0  0  0  0  0  0  0  0  0  0  0  0
  195.4343  184.8190  159.4672 C   0  0  0  0  0  0  0  0  0  0  0  0
  196.6480  185.5342  159.6040 C   0  0  0  0  0  0  0  0  0  0  0  0
  197.8197  185.0945  158.9469 C   0  0  0  0  0  0  0  0  0  0  0  0
  198.9848  185.8182  159.1004 O   0  0  0  0  0  0  0  0  0  0  0  0
  200.1502  185.3571  158.4288 C   0  0  2  0  0  0  0  0  0  0  0  0
  197.7415  183.9369  158.1473 C   0  0  0  0  0  0  0  0  0  0  0  0
  196.5321  183.2242  157.9790 C   0  0  0  0  0  0  0  0  0  0  0  0
  196.5011  182.0434  157.0214 C   0  0  1  0  0  0  0  0  0  0  0  0
  197.5936  182.0421  155.9608 C   0  0  1  0  0  0  0  0  0  0  0  0
  197.2758  181.0873  154.8802 N   0  0  1  0  0  0  0  0  0  0  0  0
  198.3434  180.9690  153.8616 C   0  0  1  0  0  0  0  0  0  0  0  0
  199.6624  180.5349  154.4928 C   0  0  0  0  0  0  0  0  0  0  0  0
  199.7613  179.3007  155.1735 C   0  0  0  0  0  0  0  0  0  0  0  0
  200.9739  178.9177  155.7902 C   0  0  0  0  0  0  0  0  0  0  0  0
  202.0900  179.7785  155.7263 C   0  0  0  0  0  0  0  0  0  0  0  0
  201.9948  181.0127  155.0574 C   0  0  0  0  0  0  0  0  0  0  0  0
  200.7839  181.3901  154.4439 C   0  0  0  0  0  0  0  0  0  0  0  0
  201.0787  177.5848  156.5120 C   0  0  1  0  0  0  0  0  0  0  0  0
  201.7581  176.5597  155.6840 N   0  0  1  0  0  0  0  0  0  0  0  0
  202.0699  175.3389  156.4599 C   0  0  2  0  0  0  0  0  0  0  0  0
  201.0438  176.2379  154.4269 C   0  0  2  0  0  0  0  0  0  0  0  0
  197.9041  180.0419  152.7263 C   0  0  2  0  0  0  0  0  0  0  0  0
  196.6900  186.7002  160.3956 C   0  0  0  0  0  0  0  0  0  0  0  0
  195.5448  187.1476  161.0740 C   0  0  0  0  0  0  0  0  0  0  0  0
  194.3349  186.4444  160.9361 C   0  0  0  0  0  0  0  0  0  0  0  0
  194.2830  185.2885  160.1356 C   0  0  0  0  0  0  0  0  0  0  0  0
  194.1358  181.6390  158.9719 C   0  0  2  0  0  0  0  0  0  0  0  0
  197.0770  180.1818  155.2839 H   0  0  0  0  0  0  0  0  0  0  0  0
  200.9825  186.0207  158.6533 H   0  0  0  0  0  0  0  0  0  0  0  0
  200.0176  185.3522  157.3455 H   0  0  0  0  0  0  0  0  0  0  0  0
  200.4297  184.3542  158.7554 H   0  0  0  0  0  0  0  0  0  0  0  0
  198.6274  183.6080  157.6316 H   0  0  0  0  0  0  0  0  0  0  0  0
  196.5916  181.1304  157.6035 H   0  0  0  0  0  0  0  0  0  0  0  0
  195.5397  182.0078  156.5181 H   0  0  0  0  0  0  0  0  0  0  0  0
  197.7474  183.0276  155.5016 H   0  0  0  0  0  0  0  0  0  0  0  0
  198.5148  181.7358  156.4511 H   0  0  0  0  0  0  0  0  0  0  0  0
  198.4819  181.9646  153.4416 H   0  0  0  0  0  0  0  0  0  0  0  0
  198.9023  178.6491  155.2386 H   0  0  0  0  0  0  0  0  0  0  0  0
  203.0244  179.4949  156.1894 H   0  0  0  0  0  0  0  0  0  0  0  0
  202.8506  181.6707  155.0158 H   0  0  0  0  0  0  0  0  0  0  0  0
  200.7262  182.3493  153.9480 H   0  0  0  0  0  0  0  0  0  0  0  0
  201.6408  177.7430  157.4352 H   0  0  0  0  0  0  0  0  0  0  0  0
  200.0861  177.2410  156.8104 H   0  0  0  0  0  0  0  0  0  0  0  0
  201.1528  174.8559  156.8046 H   0  0  0  0  0  0  0  0  0  0  0  0
  202.6831  175.5695  157.3356 H   0  0  0  0  0  0  0  0  0  0  0  0
  202.6246  174.6140  155.8544 H   0  0  0  0  0  0  0  0  0  0  0  0
  200.0463  175.8535  154.6380 H   0  0  0  0  0  0  0  0  0  0  0  0
  201.5822  175.4822  153.8538 H   0  0  0  0  0  0  0  0  0  0  0  0
  200.9433  177.1093  153.7860 H   0  0  0  0  0  0  0  0  0  0  0  0
  198.6800  179.9777  151.9614 H   0  0  0  0  0  0  0  0  0  0  0  0
  196.9971  180.4152  152.2480 H   0  0  0  0  0  0  0  0  0  0  0  0
  197.7025  179.0337  153.0901 H   0  0  0  0  0  0  0  0  0  0  0  0
  197.6094  187.2520  160.5170 H   0  0  0  0  0  0  0  0  0  0  0  0
  195.6021  188.0305  161.6915 H   0  0  0  0  0  0  0  0  0  0  0  0
  193.4521  186.7995  161.4362 H   0  0  0  0  0  0  0  0  0  0  0  0
  193.3403  184.7721  160.0329 H   0  0  0  0  0  0  0  0  0  0  0  0
  193.1168  181.2286  158.9722 H   0  0  0  0  0  0  0  0  0  0  0  0
  194.5290  181.5196  159.9867 H   0  0  0  0  0  0  0  0  0  0  0  0
  194.7442  181.0762  158.3144 H   0  0  0  0  0  0  0  0  0  0  0  0
  196.4341  181.4229  154.4309 H   0  0  0  0  0  0  0  0  0  0  0  0
  202.6494  176.9610  155.4305 H   0  0  0  0  0  0  0  0  0  0  0  0
  1  2  1  0
  1 29  1  0
  2  3  1  0
  2  9  2  0
  3  4  1  0
  3 28  2  0
  4  5  1  0
  4 25  2  0
  5  6  1  0
  5  8  2  0
  6  7  1  0
  7 31  1  6
  7 32  1  0
  7 33  1  0
  8  9  1  0
  8 34  1  0
  9 10  1  0
 10 11  1  0
 10 35  1  1
 10 36  1  0
 11 12  1  0
 11 37  1  6
 11 38  1  0
 12 13  1  0
 12 30  1  1
 12 62  1  0
 13 14  1  0
 13 24  1  0
 13 39  1  6
 14 15  1  0
 14 19  2  0
 15 16  2  0
 15 40  1  0
 16 17  1  0
 16 20  1  0
 17 18  2  0
 17 41  1  0
 18 19  1  0
 18 42  1  0
 19 43  1  0
 20 21  1  0
 20 44  1  1
 20 45  1  0
 21 22  1  0
 21 23  1  0
 21 63  1  6
 22 46  1  1
 22 47  1  0
 22 48  1  0
 23 49  1  1
 23 50  1  0
 23 51  1  0
 24 52  1  6
 24 53  1  0
 24 54  1  0
 25 26  1  0
 25 55  1  0
 26 27  2  0
 26 56  1  0
 27 28  1  0
 27 57  1  0
 28 58  1  0
 29 59  1  1
 29 60  1  0
 29 61  1  0
M  CHG  2  12   1  21   1
M  END
>  <s_epik_cmdline>  (1396) 
J2VwaWtfcHl0aG9uJywgJy1waCcsICc3LjAwMDAwMCcsICctcGh0JywgJzIuMDAwMDAwJywgJy1tcycsICcxNicsICctdG4nLCAnOCcsICctbWEnLCAnMjAwJywgJy1pbWFlJywgJzxpbmZpbGUubWFlPicsICctb21hZScsICc8b3V0ZmlsZS5tYWU+Jw==

>  <s_epik_input>  (1396) 
W2NIXTFbY0hdW2NIXVtjSF1jKGMxMiljKE9bQ0gzXSlbY0hdYyhjMk9bQ0gzXSlbQ0gyXVtDSDJdW05IXVtDQEhdKFtDSDNdKWMzW2NIXWMoW2NIXVtjSF1bY0hdMylbQ0gyXU4oW0NIM10pW0NIM10=

>  <s_i_glide_gridfile>  (1396) 
ATP-Grid

>  <s_lp_Force_Field>  (1396) 
OPLS_2005

>  <s_lp_Variant>  (1396) 
m_269862bba____21655320____10542754-1

>  <s_lp_label>  (1396) 
717_sdstereoexpander_1_neutralizer_1_epik_1_stereoizer_1

>  <s_m_source_file>  (1396) 
ATP-VSW-LIGPREP-002-in.maegz

>  <s_sd_BIOSOLVEIT.INFINISEE\_QUERY\_NAME>  (1396) 
Ref-Lig

>  <s_sd_BIOSOLVEIT.INFINISEE\_QUERY\_SMILES>  (1396) 
S(c1nc2c(cc1C[NH2+]Cc3ccc(cc3)C[NH+](C)C)cccc2)Cc4ccccc4

>  <s_sd_BIOSOLVEIT.INFINISEE\_REACTION\_NAME>  (1396) 
m_269862bba

>  <s_sd_BIOSOLVEIT.INFINISEE\_REAGENT1\_SMILES>  (1396) 
[R1*]NCCc1c(OC)c2c(c(OC)c1)cccc2

>  <s_sd_BIOSOLVEIT.INFINISEE\_REAGENT2\_SMILES>  (1396) 
[R1*]C(c1cc(ccc1)CN(C)C)C

>  <s_sd_BIOSOLVEIT.INFINISEE\_SPACE>  (1396) 
REALSpace_44bn_2023-08

>  <s_vsw_compound_code>  (1396) 
22914

>  <s_vsw_variant>  (1396) 
22914-1

>  <r_epik_Charging_Adjusted_Penalty>  (1396) 
0.15480038731048101

>  <r_epik_Ionization_Penalty>  (1396) 
0.077499999999999999

>  <r_epik_Ionization_Penalty_Charging>  (1396) 
0.077499999999999999

>  <r_epik_Ionization_Penalty_Neutral>  (1396) 
0

>  <r_epik_State_Penalty>  (1396) 
0.077299999999999994

>  <r_i_docking_score>  (1396) 
-5.3620619888279499

>  <r_i_glide_ecoul>  (1396) 
-10.9274606704712

>  <r_i_glide_eff_state_penalty>  (1396) 
0.077299999999999994

>  <r_i_glide_einternal>  (1396) 
7.9421510696411097

>  <r_i_glide_emodel>  (1396) 
-58.113811619423998

>  <r_i_glide_energy>  (1396) 
-40.672127723693798

>  <r_i_glide_erotb>  (1396) 
0.75336554446660398

>  <r_i_glide_esite>  (1396) 
-0.034569298529121197

>  <r_i_glide_evdw>  (1396) 
-29.744667053222699

>  <r_i_glide_gscore>  (1396) 
-5.4393619888279501

>  <r_i_glide_hbond>  (1396) 
0

>  <r_i_glide_ligand_efficiency>  (1396) 
-0.184898689269929

>  <r_i_glide_ligand_efficiency_ln>  (1396) 
-1.22777622528139

>  <r_i_glide_ligand_efficiency_sa>  (1396) 
-0.56806735345364601

>  <r_i_glide_lipo>  (1396) 
-1.86282619062453

>  <r_i_glide_metal>  (1396) 
-0

>  <r_i_glide_rewards>  (1396) 
-1.1689795909090901

>  <r_lp_Energy>  (1396) 
33.399096

>  <r_qp_ACxDN^.5/SA>  (1396) 
0.0067377000000000001

>  <r_qp_CIQPlogS>  (1396) 
-4.0590000000000002

>  <r_qp_EA(eV)>  (1396) 
0.60899999999999999

>  <r_qp_FISA>  (1396) 
13.689

>  <r_qp_FOSA>  (1396) 
441.41300000000001

>  <r_qp_IP(eV)>  (1396) 
8.1750000000000007

>  <r_qp_Jm>  (1396) 
0.0034863595386117599

>  <r_qp_PISA>  (1396) 
286.995

>  <r_qp_PSA>  (1396) 
32.021999999999998

>  <r_qp_PercentHumanOralAbsorption>  (1396) 
100

>  <r_qp_QPPCaco>  (1396) 
456.97399999999999

>  <r_qp_QPPMDCK>  (1396) 
259.71300000000002

>  <r_qp_QPlogBB>  (1396) 
0.67600000000000005

>  <r_qp_QPlogHERG>  (1396) 
-7.5609999999999999

>  <r_qp_QPlogKhsa>  (1396) 
0.96699999999999997

>  <r_qp_QPlogKp>  (1396) 
-4.0220000000000002

>  <r_qp_QPlogPC16>  (1396) 
13.279999999999999

>  <r_qp_QPlogPo/w>  (1396) 
4.9480000000000004

>  <r_qp_QPlogPoct>  (1396) 
18.579000000000001

>  <r_qp_QPlogPw>  (1396) 
7.9550000000000001

>  <r_qp_QPlogS>  (1396) 
-4.0300000000000002

>  <r_qp_QPpolrz>  (1396) 
45.414999999999999

>  <r_qp_SASA>  (1396) 
742.096

>  <r_qp_SAamideO>  (1396) 
0

>  <r_qp_SAfluorine>  (1396) 
0

>  <r_qp_WPSA>  (1396) 
0

>  <r_qp_accptHB>  (1396) 
5

>  <r_qp_dip^2/V>  (1396) 
0.0033478000000000002

>  <r_qp_dipole>  (1396) 
2.137

>  <r_qp_donorHB>  (1396) 
1

>  <r_qp_glob>  (1396) 
0.8017126

>  <r_qp_mol_MW>  (1396) 
392.54000000000002

>  <r_qp_volume>  (1396) 
1364.491

>  <r_sd_BIOSOLVEIT.INFINISEE\_FTREES\_SIMILARITY>  (1396) 
0.92900000000000005

>  <r_sd_BIOSOLVEIT.LOGP>  (1396) 
2.3685999999999998

>  <r_sd_BIOSOLVEIT.MOLECULAR\_WEIGHT>  (1396) 
394.55599999999998

>  <r_sd_BIOSOLVEIT.TPSA>  (1396) 
39.509999999999998

>  <i_epik_Tot_Q>  (1396) 
2

>  <i_epik_Tot_abs_Q>  (1396) 
2

>  <i_f3d_flags>  (1396) 
0

>  <i_i_glide_confnum>  (1396) 
3

>  <i_i_glide_lignum>  (1396) 
216

>  <i_i_glide_posenum>  (1396) 
2

>  <i_i_glide_rotatable_bonds>  (1396) 
9

>  <i_lp_mmshare_version>  (1396) 
65135

>  <i_m_ct_format>  (1396) 
2

>  <i_m_source_file_index>  (1396) 
717

>  <i_qp_#NandO>  (1396) 
4

>  <i_qp_#acid>  (1396) 
0

>  <i_qp_#amide>  (1396) 
0

>  <i_qp_#amidine>  (1396) 
0

>  <i_qp_#amine>  (1396) 
2

>  <i_qp_#in34>  (1396) 
0

>  <i_qp_#in56>  (1396) 
16

>  <i_qp_#metab>  (1396) 
8

>  <i_qp_#nonHatm>  (1396) 
29

>  <i_qp_#noncon>  (1396) 
0

>  <i_qp_#ringatoms>  (1396) 
16

>  <i_qp_#rotor>  (1396) 
9

>  <i_qp_#rtvFG>  (1396) 
0

>  <i_qp_#stars>  (1396) 
0

>  <i_qp_CNS>  (1396) 
2

>  <i_qp_HumanOralAbsorption>  (1396) 
3

>  <i_qp_RuleOfFive>  (1396) 
0

>  <i_qp_RuleOfThree>  (1396) 
1

>  <i_sd_BIOSOLVEIT.INFINISEE\_REAGENT1\_NAME>  (1396) 
21655320

>  <i_sd_BIOSOLVEIT.INFINISEE\_REAGENT2\_NAME>  (1396) 
10542754

>  <i_sd_BIOSOLVEIT.INFINISEE\_RESULT\_RANK>  (1396) 
5566

>  <i_sd_version>  (1396) 
0

>  <b_lp_Chiralities_Consistent>  (1396) 
1

>  <b_sd_chiral_flag>  (1396) 
0

>  <canonical_id>  (1396) 
ATP-HTVS-DC6B7BCD18A9

>  <compound_code>  (1396) 
22914

>  <title>  (1396) 
m_269862bba____21655320____10542754

>  <variant>  (1396) 
22914-1

>  <source_file>  (1396) 
运行/运行/ATP-VSW/ATP-VSW-DOCK_HTVS_1-002_lib.maegz

>  <canonical_smiles>  (1396) 
COc1cc(CC[NH2+][C@H](C)c2cccc(C[NH+](C)C)c2)c(OC)c2ccccc12

>  <scaffold>  (1396) 
c1ccc(C[NH2+]CCc2ccc3ccccc3c2)cc1

>  <molecular_formula>  (1396) 
C25H34N2O2+2

$$$$
ATP-HTVS-DC74BD16E68F
     RDKit          3D

 55 57  0  0  0  0  0  0  0  0999 V2000
  197.4819  184.2131  152.4438 F   0  0  0  0  0  0  0  0  0  0  0  0
  197.2364  183.1805  153.3001 C   0  0  0  0  0  0  0  0  0  0  0  0
  197.5442  183.3369  154.6049 N   0  0  0  0  0  0  0  0  0  0  0  0
  197.2246  182.3489  155.4860 C   0  0  0  0  0  0  0  0  0  0  0  0
  197.3311  182.4733  156.8908 N   0  0  0  0  0  0  0  0  0  0  0  0
  197.7829  183.5349  157.6004 C   0  0  0  0  0  0  0  0  0  0  0  0
  198.4020  184.4782  157.1143 O   0  0  0  0  0  0  0  0  0  0  0  0
  197.5857  183.4754  159.1273 C   0  0  1  0  0  0  0  0  0  0  0  0
  196.8796  182.3856  159.4389 F   0  0  0  0  0  0  0  0  0  0  0  0
  198.7881  183.3790  159.7192 F   0  0  0  0  0  0  0  0  0  0  0  0
  196.8679  184.7197  159.6441 C   0  0  0  0  0  0  0  0  0  0  0  0
  195.5062  184.6670  160.0522 C   0  0  0  0  0  0  0  0  0  0  0  0
  194.8508  185.8253  160.5058 C   0  0  0  0  0  0  0  0  0  0  0  0
  195.5359  187.0544  160.5520 C   0  0  0  0  0  0  0  0  0  0  0  0
  196.8831  187.1225  160.1357 C   0  0  0  0  0  0  0  0  0  0  0  0
  197.5463  185.9578  159.7097 C   0  0  0  0  0  0  0  0  0  0  0  0
  196.6935  181.1273  155.0470 C   0  0  0  0  0  0  0  0  0  0  0  0
  196.4105  180.9372  153.6817 C   0  0  0  0  0  0  0  0  0  0  0  0
  196.7014  181.9999  152.7774 C   0  0  0  0  0  0  0  0  0  0  0  0
  196.3531  181.9197  151.4209 N   0  0  0  0  0  0  0  0  0  0  0  0
  197.4538  181.7536  150.4870 C   0  0  1  0  0  0  0  0  0  0  0  0
  197.8114  180.3004  150.1865 C   0  0  0  0  0  0  0  0  0  0  0  0
  196.9481  179.5107  149.3929 C   0  0  0  0  0  0  0  0  0  0  0  0
  197.3253  178.1978  149.0344 C   0  0  0  0  0  0  0  0  0  0  0  0
  198.5392  177.6459  149.4771 C   0  0  0  0  0  0  0  0  0  0  0  0
  199.4094  178.4419  150.2589 C   0  0  0  0  0  0  0  0  0  0  0  0
  199.0389  179.7568  150.6123 C   0  0  0  0  0  0  0  0  0  0  0  0
  198.9285  176.2267  149.0596 C   0  0  1  0  0  0  0  0  0  0  0  0
  199.6972  176.1560  147.7779 N   0  0  1  0  0  0  0  0  0  0  0  0
  199.9111  174.7482  147.3546 C   0  0  2  0  0  0  0  0  0  0  0  0
  199.1334  176.9746  146.6821 C   0  0  2  0  0  0  0  0  0  0  0  0
  196.9225  181.7220  157.4411 H   0  0  0  0  0  0  0  0  0  0  0  0
  194.9584  183.7376  160.0065 H   0  0  0  0  0  0  0  0  0  0  0  0
  193.8081  185.7828  160.7845 H   0  0  0  0  0  0  0  0  0  0  0  0
  195.0399  187.9483  160.8912 H   0  0  0  0  0  0  0  0  0  0  0  0
  197.4110  188.0636  160.1691 H   0  0  0  0  0  0  0  0  0  0  0  0
  198.5843  186.0172  159.4167 H   0  0  0  0  0  0  0  0  0  0  0  0
  196.4051  180.3685  155.7557 H   0  0  0  0  0  0  0  0  0  0  0  0
  195.9654  180.0180  153.3332 H   0  0  0  0  0  0  0  0  0  0  0  0
  195.5133  181.3735  151.2086 H   0  0  0  0  0  0  0  0  0  0  0  0
  197.1863  182.2555  149.5566 H   0  0  0  0  0  0  0  0  0  0  0  0
  198.3475  182.2870  150.8415 H   0  0  0  0  0  0  0  0  0  0  0  0
  196.0291  179.9163  149.0059 H   0  0  0  0  0  0  0  0  0  0  0  0
  196.6696  177.6107  148.4114 H   0  0  0  0  0  0  0  0  0  0  0  0
  200.3610  178.0475  150.5754 H   0  0  0  0  0  0  0  0  0  0  0  0
  199.7410  180.3666  151.1597 H   0  0  0  0  0  0  0  0  0  0  0  0
  199.5259  175.7501  149.8354 H   0  0  0  0  0  0  0  0  0  0  0  0
  198.0166  175.6340  148.9929 H   0  0  0  0  0  0  0  0  0  0  0  0
  198.9645  174.2517  147.1344 H   0  0  0  0  0  0  0  0  0  0  0  0
  200.4162  174.1777  148.1348 H   0  0  0  0  0  0  0  0  0  0  0  0
  200.5282  174.7000  146.4550 H   0  0  0  0  0  0  0  0  0  0  0  0
  198.0916  176.6895  146.5350 H   0  0  0  0  0  0  0  0  0  0  0  0
  199.6769  176.8226  145.7457 H   0  0  0  0  0  0  0  0  0  0  0  0
  199.1760  178.0464  146.8877 H   0  0  0  0  0  0  0  0  0  0  0  0
  200.6061  176.5480  147.9716 H   0  0  0  0  0  0  0  0  0  0  0  0
  1  2  1  0
  2  3  2  0
  2 19  1  0
  3  4  1  0
  4  5  1  0
  4 17  2  0
  5  6  1  0
  5 32  1  0
  6  7  2  0
  6  8  1  0
  8  9  1  6
  8 10  1  0
  8 11  1  0
 11 12  2  0
 11 16  1  0
 12 13  1  0
 12 33  1  0
 13 14  2  0
 13 34  1  0
 14 15  1  0
 14 35  1  0
 15 16  2  0
 15 36  1  0
 16 37  1  0
 17 18  1  0
 17 38  1  0
 18 19  2  0
 18 39  1  0
 19 20  1  0
 20 21  1  0
 20 40  1  0
 21 22  1  0
 21 41  1  6
 21 42  1  0
 22 23  1  0
 22 27  2  0
 23 24  2  0
 23 43  1  0
 24 25  1  0
 24 44  1  0
 25 26  2  0
 25 28  1  0
 26 27  1  0
 26 45  1  0
 27 46  1  0
 28 29  1  0
 28 47  1  1
 28 48  1  0
 29 30  1  0
 29 31  1  0
 29 55  1  1
 30 49  1  6
 30 50  1  0
 30 51  1  0
 31 52  1  6
 31 53  1  0
 31 54  1  0
M  CHG  1  29   1
M  END
>  <s_epik_cmdline>  (1397) 
J2VwaWtfcHl0aG9uJywgJy1waCcsICc3LjAwMDAwMCcsICctcGh0JywgJzIuMDAwMDAwJywgJy1tcycsICcxNicsICctdG4nLCAnOCcsICctbWEnLCAnMjAwJywgJy1pbWFlJywgJzxpbmZpbGUubWFlPicsICctb21hZScsICc8b3V0ZmlsZS5tYWU+Jw==

>  <s_epik_input>  (1397) 
W2NIXTFbY0hdW2NIXVtjSF1bY0hdYzFDKEYpKEYpQyg9TylbTkhdYyhuYzJGKVtjSF1bY0hdYzJbTkhdW0NIMl1jM1tjSF1bY0hdYyhbY0hdW2NIXTMpW0NIMl1OKFtDSDNdKVtDSDNd

>  <s_i_glide_gridfile>  (1397) 
ATP-Grid

>  <s_lp_Force_Field>  (1397) 
OPLS_2005

>  <s_lp_Variant>  (1397) 
rxn502a____EMOL45480251____EMOL44468894____EMOL50155899-1

>  <s_lp_label>  (1397) 
2929_sdstereoexpander_1_neutralizer_1_epik_1_stereoizer_1

>  <s_m_source_file>  (1397) 
ATP-VSW-LIGPREP-001-in.maegz

>  <s_sd_BIOSOLVEIT.INFINISEE\_QUERY\_NAME>  (1397) 
Ref-Lig

>  <s_sd_BIOSOLVEIT.INFINISEE\_QUERY\_SMILES>  (1397) 
S(c1nc2c(cc1C[NH2+]Cc3ccc(cc3)C[NH+](C)C)cccc2)Cc4ccccc4

>  <s_sd_BIOSOLVEIT.INFINISEE\_REACTION\_NAME>  (1397) 
rxn502a

>  <s_sd_BIOSOLVEIT.INFINISEE\_REAGENT1\_NAME>  (1397) 
EMOL45480251

>  <s_sd_BIOSOLVEIT.INFINISEE\_REAGENT1\_SMILES>  (1397) 
FC(F)(c1ccccc1)C(=O)O

>  <s_sd_BIOSOLVEIT.INFINISEE\_REAGENT2\_NAME>  (1397) 
EMOL44468894

>  <s_sd_BIOSOLVEIT.INFINISEE\_REAGENT2\_SMILES>  (1397) 
Ic1c(F)nc(N)cc1

>  <s_sd_BIOSOLVEIT.INFINISEE\_REAGENT3\_NAME>  (1397) 
EMOL50155899

>  <s_sd_BIOSOLVEIT.INFINISEE\_REAGENT3\_SMILES>  (1397) 
N(Cc1ccc(cc1)CN)(C)C

>  <s_sd_BIOSOLVEIT.INFINISEE\_SPACE>  (1397) 
eXplore_7tr_2022-12

>  <s_vsw_compound_code>  (1397) 
93697

>  <s_vsw_variant>  (1397) 
93697-1

>  <r_epik_Charging_Adjusted_Penalty>  (1397) 
0.078407994868761793

>  <r_epik_Ionization_Penalty>  (1397) 
0.039199999999999999

>  <r_epik_Ionization_Penalty_Charging>  (1397) 
0.039199999999999999

>  <r_epik_Ionization_Penalty_Neutral>  (1397) 
0

>  <r_epik_State_Penalty>  (1397) 
0.039199999999999999

>  <r_i_docking_score>  (1397) 
-4.9195203402618004

>  <r_i_glide_ecoul>  (1397) 
-8.2217473983764595

>  <r_i_glide_eff_state_penalty>  (1397) 
0.039199999999999999

>  <r_i_glide_einternal>  (1397) 
10.058835029602101

>  <r_i_glide_emodel>  (1397) 
-52.8198841962977

>  <r_i_glide_energy>  (1397) 
-42.223937034606898

>  <r_i_glide_erotb>  (1397) 
0.75424386438402302

>  <r_i_glide_esite>  (1397) 
-0.087034493312994496

>  <r_i_glide_evdw>  (1397) 
-34.002189636230497

>  <r_i_glide_gscore>  (1397) 
-4.9587203402617996

>  <r_i_glide_hbond>  (1397) 
0

>  <r_i_glide_ligand_efficiency>  (1397) 
-0.158694204524574

>  <r_i_glide_ligand_efficiency_ln>  (1397) 
-1.1095026019212499

>  <r_i_glide_ligand_efficiency_sa>  (1397) 
-0.49851890316950498

>  <r_i_glide_lipo>  (1397) 
-1.9958983856952199

>  <r_i_glide_metal>  (1397) 
-0

>  <r_i_glide_rewards>  (1397) 
-0.69665973406962201

>  <r_lp_Energy>  (1397) 
26.036911

>  <r_lp_tautomer_probability>  (1397) 
0.999999999999999

>  <r_qp_ACxDN^.5/SA>  (1397) 
0.0118181

>  <r_qp_CIQPlogS>  (1397) 
-5.3019999999999996

>  <r_qp_EA(eV)>  (1397) 
0.44900000000000001

>  <r_qp_FISA>  (1397) 
61.466000000000001

>  <r_qp_FOSA>  (1397) 
206.91999999999999

>  <r_qp_IP(eV)>  (1397) 
8.2240000000000002

>  <r_qp_Jm>  (1397) 
0.0021395905712274302

>  <r_qp_PISA>  (1397) 
415.608

>  <r_qp_PSA>  (1397) 
62.932000000000002

>  <r_qp_PercentHumanOralAbsorption>  (1397) 
100

>  <r_qp_QPPCaco>  (1397) 
645.52999999999997

>  <r_qp_QPPMDCK>  (1397) 
1113.702

>  <r_qp_QPlogBB>  (1397) 
0.0060000000000000001

>  <r_qp_QPlogHERG>  (1397) 
-8.0739999999999998

>  <r_qp_QPlogKhsa>  (1397) 
0.63

>  <r_qp_QPlogKp>  (1397) 
-2.4830000000000001

>  <r_qp_QPlogPC16>  (1397) 
14.275

>  <r_qp_QPlogPo/w>  (1397) 
4.8170000000000002

>  <r_qp_QPlogPoct>  (1397) 
23.219000000000001

>  <r_qp_QPlogPw>  (1397) 
12.436

>  <r_qp_QPlogS>  (1397) 
-5.819

>  <r_qp_QPpolrz>  (1397) 
47.091999999999999

>  <r_qp_SASA>  (1397) 
777.82399999999996

>  <r_qp_SAamideO>  (1397) 
0

>  <r_qp_SAfluorine>  (1397) 
93.828999999999994

>  <r_qp_WPSA>  (1397) 
93.828999999999994

>  <r_qp_accptHB>  (1397) 
6.5

>  <r_qp_dip^2/V>  (1397) 
0.078607300000000005

>  <r_qp_dipole>  (1397) 
10.337999999999999

>  <r_qp_donorHB>  (1397) 
2

>  <r_qp_glob>  (1397) 
0.76308180000000003

>  <r_qp_mol_MW>  (1397) 
428.45600000000002

>  <r_qp_volume>  (1397) 
1359.662

>  <r_sd_BIOSOLVEIT.INFINISEE\_FTREES\_SIMILARITY>  (1397) 
0.90400000000000003

>  <r_sd_BIOSOLVEIT.LOGP>  (1397) 
3.2078000000000002

>  <r_sd_BIOSOLVEIT.MOLECULAR\_WEIGHT>  (1397) 
429.464

>  <r_sd_BIOSOLVEIT.TPSA>  (1397) 
58.460000000000001

>  <i_epik_Tot_Q>  (1397) 
1

>  <i_epik_Tot_abs_Q>  (1397) 
1

>  <i_f3d_flags>  (1397) 
0

>  <i_i_glide_confnum>  (1397) 
5

>  <i_i_glide_lignum>  (1397) 
1376

>  <i_i_glide_posenum>  (1397) 
18

>  <i_i_glide_rotatable_bonds>  (1397) 
9

>  <i_lp_mmshare_version>  (1397) 
65135

>  <i_m_ct_format>  (1397) 
2

>  <i_m_source_file_index>  (1397) 
2929

>  <i_qp_#NandO>  (1397) 
5

>  <i_qp_#acid>  (1397) 
0

>  <i_qp_#amide>  (1397) 
0

>  <i_qp_#amidine>  (1397) 
0

>  <i_qp_#amine>  (1397) 
1

>  <i_qp_#in34>  (1397) 
0

>  <i_qp_#in56>  (1397) 
18

>  <i_qp_#metab>  (1397) 
6

>  <i_qp_#nonHatm>  (1397) 
31

>  <i_qp_#noncon>  (1397) 
0

>  <i_qp_#ringatoms>  (1397) 
18

>  <i_qp_#rotor>  (1397) 
8

>  <i_qp_#rtvFG>  (1397) 
2

>  <i_qp_#stars>  (1397) 
0

>  <i_qp_CNS>  (1397) 
1

>  <i_qp_HumanOralAbsorption>  (1397) 
3

>  <i_qp_RuleOfFive>  (1397) 
0

>  <i_qp_RuleOfThree>  (1397) 
1

>  <i_sd_BIOSOLVEIT.INFINISEE\_RESULT\_RANK>  (1397) 
77970

>  <i_sd_version>  (1397) 
0

>  <b_lp_Chiralities_Consistent>  (1397) 
1

>  <b_sd_chiral_flag>  (1397) 
0

>  <canonical_id>  (1397) 
ATP-HTVS-DC74BD16E68F

>  <compound_code>  (1397) 
93697

>  <title>  (1397) 
rxn502a____EMOL45480251____EMOL44468894____EMOL50155899

>  <variant>  (1397) 
93697-1

>  <source_file>  (1397) 
运行/运行/ATP-VSW/ATP-VSW-DOCK_HTVS_1-001_lib/ATP-VSW-DOCK_HTVS_1-001_lib

>  <canonical_smiles>  (1397) 
C[NH+](C)Cc1ccc(CNc2ccc(NC(=O)C(F)(F)c3ccccc3)nc2F)cc1

>  <scaffold>  (1397) 
O=C(Cc1ccccc1)Nc1ccc(NCc2ccccc2)cn1

>  <molecular_formula>  (1397) 
C23H24F3N4O+

$$$$
ATP-HTVS-DCC6353C2378
     RDKit          3D

 63 66  0  0  0  0  0  0  0  0999 V2000
  197.5104  185.9139  149.7297 F   0  0  0  0  0  0  0  0  0  0  0  0
  197.5830  185.0754  150.7871 C   0  0  0  0  0  0  0  0  0  0  0  0
  198.2387  185.4866  151.9640 C   0  0  0  0  0  0  0  0  0  0  0  0
  198.3219  184.6377  153.0984 C   0  0  0  0  0  0  0  0  0  0  0  0
  197.7287  183.3580  153.0280 C   0  0  0  0  0  0  0  0  0  0  0  0
  197.7822  182.4561  154.1564 N   0  0  0  0  0  0  0  0  0  0  0  0
  196.5831  181.6668  154.4709 C   0  0  1  0  0  0  0  0  0  0  0  0
  196.9452  180.1679  154.6302 C   0  0  1  0  0  0  0  0  0  0  0  0
  198.1266  179.9784  155.5089 N   0  0  2  0  0  0  0  0  0  0  0  0
  199.3176  180.7200  155.0160 C   0  0  1  0  0  0  0  0  0  0  0  0
  199.0570  182.2297  154.8538 C   0  0  1  0  0  0  0  0  0  0  0  0
  198.4641  178.5639  155.7003 C   0  0  2  0  0  0  0  0  0  0  0  0
  197.0611  182.9479  151.8552 C   0  0  0  0  0  0  0  0  0  0  0  0
  196.9884  183.8048  150.7349 C   0  0  0  0  0  0  0  0  0  0  0  0
  199.0280  185.1974  154.3483 C   0  0  1  0  0  0  0  0  0  0  0  0
  198.0177  185.3629  155.4274 N   0  0  1  0  0  0  0  0  0  0  0  0
  198.6207  185.5888  156.7572 C   0  0  1  0  0  0  0  0  0  0  0  0
  197.5634  185.7123  157.8609 C   0  0  0  0  0  0  0  0  0  0  0  0
  197.4153  186.9442  158.5395 C   0  0  0  0  0  0  0  0  0  0  0  0
  198.2108  188.0082  158.1787 O   0  0  0  0  0  0  0  0  0  0  0  0
  199.0762  188.5122  159.1927 C   0  0  2  0  0  0  0  0  0  0  0  0
  196.4284  187.0853  159.5429 C   0  0  0  0  0  0  0  0  0  0  0  0
  196.2974  188.3143  160.1485 O   0  0  0  0  0  0  0  0  0  0  0  0
  195.5082  188.3740  161.3256 C   0  0  2  0  0  0  0  0  0  0  0  0
  195.5850  185.9955  159.8601 C   0  0  0  0  0  0  0  0  0  0  0  0
  195.7239  184.7569  159.2083 C   0  0  0  0  0  0  0  0  0  0  0  0
  196.7420  184.5991  158.2029 C   0  0  0  0  0  0  0  0  0  0  0  0
  196.8838  183.3383  157.5883 C   0  0  0  0  0  0  0  0  0  0  0  0
  196.0617  182.2638  157.9675 C   0  0  0  0  0  0  0  0  0  0  0  0
  195.0320  182.4194  158.9373 C   0  0  0  0  0  0  0  0  0  0  0  0
  194.8769  183.6825  159.5392 C   0  0  0  0  0  0  0  0  0  0  0  0
  197.3569  186.1052  155.2058 H   0  0  0  0  0  0  0  0  0  0  0  0
  198.6594  186.4771  152.0002 H   0  0  0  0  0  0  0  0  0  0  0  0
  196.1516  182.0482  155.3997 H   0  0  0  0  0  0  0  0  0  0  0  0
  195.7561  181.7895  153.7568 H   0  0  0  0  0  0  0  0  0  0  0  0
  196.0933  179.6003  155.0219 H   0  0  0  0  0  0  0  0  0  0  0  0
  197.1896  179.7767  153.6390 H   0  0  0  0  0  0  0  0  0  0  0  0
  200.1531  180.6160  155.7123 H   0  0  0  0  0  0  0  0  0  0  0  0
  199.6224  180.3162  154.0417 H   0  0  0  0  0  0  0  0  0  0  0  0
  199.9065  182.6194  154.2636 H   0  0  0  0  0  0  0  0  0  0  0  0
  199.0946  182.6461  155.8485 H   0  0  0  0  0  0  0  0  0  0  0  0
  198.7129  178.1270  154.7238 H   0  0  0  0  0  0  0  0  0  0  0  0
  197.6288  178.0235  156.1326 H   0  0  0  0  0  0  0  0  0  0  0  0
  199.3429  178.4539  156.3511 H   0  0  0  0  0  0  0  0  0  0  0  0
  196.5968  181.9779  151.7596 H   0  0  0  0  0  0  0  0  0  0  0  0
  196.4810  183.4972  149.8266 H   0  0  0  0  0  0  0  0  0  0  0  0
  199.8390  184.5676  154.6556 H   0  0  0  0  0  0  0  0  0  0  0  0
  199.4592  186.1979  154.1119 H   0  0  0  0  0  0  0  0  0  0  0  0
  199.3220  184.7907  157.0199 H   0  0  0  0  0  0  0  0  0  0  0  0
  199.2320  186.4861  156.6599 H   0  0  0  0  0  0  0  0  0  0  0  0
  199.2565  189.5710  159.0050 H   0  0  0  0  0  0  0  0  0  0  0  0
  200.0329  187.9923  159.1677 H   0  0  0  0  0  0  0  0  0  0  0  0
  198.7002  188.4174  160.2097 H   0  0  0  0  0  0  0  0  0  0  0  0
  195.5509  189.3811  161.7309 H   0  0  0  0  0  0  0  0  0  0  0  0
  195.8725  187.6777  162.0810 H   0  0  0  0  0  0  0  0  0  0  0  0
  194.4612  188.1466  161.1299 H   0  0  0  0  0  0  0  0  0  0  0  0
  194.7978  186.0663  160.5894 H   0  0  0  0  0  0  0  0  0  0  0  0
  197.6056  183.1923  156.8296 H   0  0  0  0  0  0  0  0  0  0  0  0
  196.1832  181.2993  157.5005 H   0  0  0  0  0  0  0  0  0  0  0  0
  194.4017  181.5692  159.1810 H   0  0  0  0  0  0  0  0  0  0  0  0
  194.1042  183.8176  160.2805 H   0  0  0  0  0  0  0  0  0  0  0  0
  197.8708  180.3356  156.4216 H   0  0  0  0  0  0  0  0  0  0  0  0
  197.4908  184.4978  155.4843 H   0  0  0  0  0  0  0  0  0  0  0  0
  1  2  1  0
  2  3  2  0
  2 14  1  0
  3  4  1  0
  3 33  1  0
  4  5  2  0
  4 15  1  0
  5  6  1  0
  5 13  1  0
  6  7  1  0
  6 11  1  0
  7  8  1  0
  7 34  1  1
  7 35  1  0
  8  9  1  0
  8 36  1  1
  8 37  1  0
  9 10  1  0
  9 12  1  0
  9 62  1  1
 10 11  1  0
 10 38  1  1
 10 39  1  0
 11 40  1  6
 11 41  1  0
 12 42  1  6
 12 43  1  0
 12 44  1  0
 13 14  2  0
 13 45  1  0
 14 46  1  0
 15 16  1  0
 15 47  1  1
 15 48  1  0
 16 17  1  0
 16 32  1  6
 16 63  1  0
 17 18  1  0
 17 49  1  1
 17 50  1  0
 18 19  2  0
 18 27  1  0
 19 20  1  0
 19 22  1  0
 20 21  1  0
 21 51  1  6
 21 52  1  0
 21 53  1  0
 22 23  1  0
 22 25  2  0
 23 24  1  0
 24 54  1  1
 24 55  1  0
 24 56  1  0
 25 26  1  0
 25 57  1  0
 26 27  1  0
 26 31  2  0
 27 28  2  0
 28 29  1  0
 28 58  1  0
 29 30  2  0
 29 59  1  0
 30 31  1  0
 30 60  1  0
 31 61  1  0
M  CHG  2   9   1  16   1
M  END
>  <s_epik_cmdline>  (1398) 
J2VwaWtfcHl0aG9uJywgJy1waCcsICc3LjAwMDAwMCcsICctcGh0JywgJzIuMDAwMDAwJywgJy1tcycsICcxNicsICctdG4nLCAnOCcsICctbWEnLCAnMjAwJywgJy1pbWFlJywgJzxpbmZpbGUubWFlPicsICctb21hZScsICc8b3V0ZmlsZS5tYWU+Jw==

>  <s_epik_input>  (1398) 
W0NIMl0xW0NIMl1OKFtDSDNdKVtDSDJdW0NIMl1OMWMoW2NIXVtjSF0yKWMoW2NIXWMyRilbQ0gyXVtOSF1bQ0gyXWMoYyhPW0NIM10pYyhbY0hdMylPW0NIM10pYyhjMzQpW2NIXVtjSF1bY0hdW2NIXTQ=

>  <s_i_glide_gridfile>  (1398) 
ATP-Grid

>  <s_lp_Force_Field>  (1398) 
OPLS_2005

>  <s_lp_Variant>  (1398) 
m_270004bbb____24497020____24720450-1

>  <s_lp_label>  (1398) 
1907_sdstereoexpander_1_neutralizer_1_epik_1_stereoizer_1

>  <s_m_source_file>  (1398) 
ATP-VSW-LIGPREP-001-in.maegz

>  <s_sd_BIOSOLVEIT.INFINISEE\_QUERY\_NAME>  (1398) 
Ref-Lig

>  <s_sd_BIOSOLVEIT.INFINISEE\_QUERY\_SMILES>  (1398) 
S(c1nc2c(cc1C[NH2+]Cc3ccc(cc3)C[NH+](C)C)cccc2)Cc4ccccc4

>  <s_sd_BIOSOLVEIT.INFINISEE\_REACTION\_NAME>  (1398) 
m_270004bbb

>  <s_sd_BIOSOLVEIT.INFINISEE\_REAGENT1\_SMILES>  (1398) 
[R1*]NCc1c(N2CCN(CC2)C)ccc(F)c1

>  <s_sd_BIOSOLVEIT.INFINISEE\_REAGENT2\_SMILES>  (1398) 
[R1*]Cc1c(OC)c(OC)cc2c1cccc2

>  <s_sd_BIOSOLVEIT.INFINISEE\_SPACE>  (1398) 
REALSpace_44bn_2023-08

>  <s_vsw_compound_code>  (1398) 
60993

>  <s_vsw_variant>  (1398) 
60993-1

>  <r_epik_Charging_Adjusted_Penalty>  (1398) 
0.41652710756630901

>  <r_epik_Ionization_Penalty>  (1398) 
0.20960000000000001

>  <r_epik_Ionization_Penalty_Charging>  (1398) 
0.20960000000000001

>  <r_epik_Ionization_Penalty_Neutral>  (1398) 
0

>  <r_epik_State_Penalty>  (1398) 
0.2069

>  <r_i_docking_score>  (1398) 
-4.6495622700719599

>  <r_i_glide_ecoul>  (1398) 
-9.0982580184936506

>  <r_i_glide_eff_state_penalty>  (1398) 
0.2069

>  <r_i_glide_einternal>  (1398) 
3.6871771812439

>  <r_i_glide_emodel>  (1398) 
-58.403008268251803

>  <r_i_glide_energy>  (1398) 
-41.039793968200698

>  <r_i_glide_erotb>  (1398) 
0.54776210747030696

>  <r_i_glide_esite>  (1398) 
-0.081934476324747096

>  <r_i_glide_evdw>  (1398) 
-31.941535949706999

>  <r_i_glide_gscore>  (1398) 
-4.85646227007196

>  <r_i_glide_hbond>  (1398) 
0

>  <r_i_glide_ligand_efficiency>  (1398) 
-0.149985879679741

>  <r_i_glide_ligand_efficiency_ln>  (1398) 
-1.0486187838721699

>  <r_i_glide_ligand_efficiency_sa>  (1398) 
-0.47116274001851899

>  <r_i_glide_lipo>  (1398) 
-1.3392190413853999

>  <r_i_glide_metal>  (1398) 
-0

>  <r_i_glide_rewards>  (1398) 
-1.0212553595727301

>  <r_lp_Energy>  (1398) 
54.423560999999999

>  <r_qp_ACxDN^.5/SA>  (1398) 
0.0081318999999999992

>  <r_qp_CIQPlogS>  (1398) 
-4.3890000000000002

>  <r_qp_EA(eV)>  (1398) 
0.68300000000000005

>  <r_qp_FISA>  (1398) 
7.7130000000000001

>  <r_qp_FOSA>  (1398) 
402.02499999999998

>  <r_qp_IP(eV)>  (1398) 
8.3979999999999997

>  <r_qp_Jm>  (1398) 
0.0014081550370230601

>  <r_qp_PISA>  (1398) 
281.11599999999999

>  <r_qp_PSA>  (1398) 
30.050999999999998

>  <r_qp_PercentHumanOralAbsorption>  (1398) 
100

>  <r_qp_QPPCaco>  (1398) 
520.66499999999996

>  <r_qp_QPPMDCK>  (1398) 
540.85400000000004

>  <r_qp_QPlogBB>  (1398) 
1.0349999999999999

>  <r_qp_QPlogHERG>  (1398) 
-7.4699999999999998

>  <r_qp_QPlogKhsa>  (1398) 
0.88200000000000001

>  <r_qp_QPlogKp>  (1398) 
-4.2210000000000001

>  <r_qp_QPlogPC16>  (1398) 
12.863

>  <r_qp_QPlogPo/w>  (1398) 
4.7249999999999996

>  <r_qp_QPlogPoct>  (1398) 
20.212

>  <r_qp_QPlogPw>  (1398) 
9.5269999999999992

>  <r_qp_QPlogS>  (1398) 
-4.258

>  <r_qp_QPpolrz>  (1398) 
47.215000000000003

>  <r_qp_SASA>  (1398) 
737.83100000000002

>  <r_qp_SAamideO>  (1398) 
0

>  <r_qp_SAfluorine>  (1398) 
46.976999999999997

>  <r_qp_WPSA>  (1398) 
46.976999999999997

>  <r_qp_accptHB>  (1398) 
6

>  <r_qp_dip^2/V>  (1398) 
0.0143105

>  <r_qp_dipole>  (1398) 
4.4160000000000004

>  <r_qp_donorHB>  (1398) 
1

>  <r_qp_glob>  (1398) 
0.80565710000000001

>  <r_qp_mol_MW>  (1398) 
423.529

>  <r_qp_volume>  (1398) 
1362.739

>  <r_sd_BIOSOLVEIT.INFINISEE\_FTREES\_SIMILARITY>  (1398) 
0.90300000000000002

>  <r_sd_BIOSOLVEIT.LOGP>  (1398) 
1.5944

>  <r_sd_BIOSOLVEIT.MOLECULAR\_WEIGHT>  (1398) 
425.54500000000002

>  <r_sd_BIOSOLVEIT.TPSA>  (1398) 
42.75

>  <i_epik_Tot_Q>  (1398) 
2

>  <i_epik_Tot_abs_Q>  (1398) 
2

>  <i_f3d_flags>  (1398) 
0

>  <i_i_glide_confnum>  (1398) 
2

>  <i_i_glide_lignum>  (1398) 
567

>  <i_i_glide_posenum>  (1398) 
17

>  <i_i_glide_rotatable_bonds>  (1398) 
7

>  <i_lp_mmshare_version>  (1398) 
65135

>  <i_m_ct_format>  (1398) 
2

>  <i_m_source_file_index>  (1398) 
1907

>  <i_qp_#NandO>  (1398) 
5

>  <i_qp_#acid>  (1398) 
0

>  <i_qp_#amide>  (1398) 
0

>  <i_qp_#amidine>  (1398) 
0

>  <i_qp_#amine>  (1398) 
2

>  <i_qp_#in34>  (1398) 
0

>  <i_qp_#in56>  (1398) 
22

>  <i_qp_#metab>  (1398) 
6

>  <i_qp_#nonHatm>  (1398) 
31

>  <i_qp_#noncon>  (1398) 
4

>  <i_qp_#ringatoms>  (1398) 
22

>  <i_qp_#rotor>  (1398) 
6

>  <i_qp_#rtvFG>  (1398) 
0

>  <i_qp_#stars>  (1398) 
0

>  <i_qp_CNS>  (1398) 
2

>  <i_qp_HumanOralAbsorption>  (1398) 
3

>  <i_qp_RuleOfFive>  (1398) 
0

>  <i_qp_RuleOfThree>  (1398) 
0

>  <i_sd_BIOSOLVEIT.INFINISEE\_REAGENT1\_NAME>  (1398) 
24497020

>  <i_sd_BIOSOLVEIT.INFINISEE\_REAGENT2\_NAME>  (1398) 
24720450

>  <i_sd_BIOSOLVEIT.INFINISEE\_RESULT\_RANK>  (1398) 
84792

>  <i_sd_version>  (1398) 
0

>  <b_lp_Chiralities_Consistent>  (1398) 
1

>  <b_sd_chiral_flag>  (1398) 
0

>  <canonical_id>  (1398) 
ATP-HTVS-DCC6353C2378

>  <compound_code>  (1398) 
60993

>  <title>  (1398) 
m_270004bbb____24497020____24720450

>  <variant>  (1398) 
60993-1

>  <source_file>  (1398) 
运行/运行/ATP-VSW/ATP-VSW-DOCK_HTVS_1-001_lib/ATP-VSW-DOCK_HTVS_1-001_lib

>  <canonical_smiles>  (1398) 
COc1cc2ccccc2c(C[NH2+]Cc2cc(F)ccc2N2CC[NH+](C)CC2)c1OC

>  <scaffold>  (1398) 
c1ccc(N2CC[NH2+]CC2)c(C[NH2+]Cc2cccc3ccccc23)c1

>  <molecular_formula>  (1398) 
C25H32FN3O2+2

$$$$
ATP-HTVS-DCF81E89AD2E
     RDKit          3D

 50 53  0  0  0  0  0  0  0  0999 V2000
  196.7224  186.9278  157.9018 Cl  0  0  0  0  0  0  0  0  0  0  0  0
  196.4694  185.2326  158.1351 C   0  0  0  0  0  0  0  0  0  0  0  0
  197.1547  184.2650  157.3629 C   0  0  0  0  0  0  0  0  0  0  0  0
  198.3189  184.7434  156.1211 S   0  0  0  0  0  0  0  0  0  0  0  0
  197.3096  185.3981  154.7712 C   0  0  1  0  0  0  0  0  0  0  0  0
  198.2065  185.8342  153.6420 C   0  0  0  0  0  0  0  0  0  0  0  0
  198.9679  187.0545  153.6445 C   0  0  0  0  0  0  0  0  0  0  0  0
  199.6716  187.0960  152.4206 C   0  0  0  0  0  0  0  0  0  0  0  0
  199.3680  185.9709  151.6899 O   0  0  0  0  0  0  0  0  0  0  0  0
  198.4801  185.2169  152.4279 C   0  0  0  0  0  0  0  0  0  0  0  0
  198.0716  183.9157  151.8356 C   0  0  0  0  0  0  0  0  0  0  0  0
  198.6506  183.4651  150.8490 O   0  0  0  0  0  0  0  0  0  0  0  0
  197.0480  183.2846  152.4241 N   0  0  0  0  0  0  0  0  0  0  0  0
  196.6293  181.9162  152.1790 C   0  0  1  0  0  0  0  0  0  0  0  0
  197.3571  180.9216  153.0736 C   0  0  0  0  0  0  0  0  0  0  0  0
  198.5553  180.3328  152.6276 C   0  0  0  0  0  0  0  0  0  0  0  0
  199.2359  179.3981  153.4328 C   0  0  0  0  0  0  0  0  0  0  0  0
  198.7341  179.0543  154.7067 C   0  0  0  0  0  0  0  0  0  0  0  0
  197.5424  179.6557  155.1613 C   0  0  0  0  0  0  0  0  0  0  0  0
  196.8596  180.5911  154.3549 C   0  0  0  0  0  0  0  0  0  0  0  0
  199.4675  178.0326  155.5677 C   0  0  1  0  0  0  0  0  0  0  0  0
  199.5686  178.4144  156.9275 O   0  0  0  0  0  0  0  0  0  0  0  0
  200.5331  188.1481  152.0615 C   0  0  0  0  0  0  0  0  0  0  0  0
  200.6916  189.2250  152.9543 C   0  0  0  0  0  0  0  0  0  0  0  0
  200.0022  189.2212  154.1847 C   0  0  0  0  0  0  0  0  0  0  0  0
  199.1533  188.1457  154.5262 C   0  0  0  0  0  0  0  0  0  0  0  0
  196.9125  182.8928  157.5731 C   0  0  0  0  0  0  0  0  0  0  0  0
  195.9904  182.4820  158.5549 C   0  0  0  0  0  0  0  0  0  0  0  0
  195.3109  183.4418  159.3262 C   0  0  0  0  0  0  0  0  0  0  0  0
  195.5473  184.8135  159.1156 C   0  0  0  0  0  0  0  0  0  0  0  0
  196.5911  184.6333  154.4922 H   0  0  0  0  0  0  0  0  0  0  0  0
  196.7207  186.2449  155.1246 H   0  0  0  0  0  0  0  0  0  0  0  0
  196.5779  183.7581  153.1877 H   0  0  0  0  0  0  0  0  0  0  0  0
  195.5587  181.8563  152.3770 H   0  0  0  0  0  0  0  0  0  0  0  0
  196.7597  181.6396  151.1314 H   0  0  0  0  0  0  0  0  0  0  0  0
  198.9565  180.5958  151.6600 H   0  0  0  0  0  0  0  0  0  0  0  0
  200.1479  178.9447  153.0680 H   0  0  0  0  0  0  0  0  0  0  0  0
  197.1465  179.3920  156.1336 H   0  0  0  0  0  0  0  0  0  0  0  0
  195.9513  181.0432  154.7265 H   0  0  0  0  0  0  0  0  0  0  0  0
  198.9440  177.0783  155.5121 H   0  0  0  0  0  0  0  0  0  0  0  0
  200.4706  177.8651  155.1733 H   0  0  0  0  0  0  0  0  0  0  0  0
  198.7113  178.2295  157.3499 H   0  0  0  0  0  0  0  0  0  0  0  0
  201.0546  188.1318  151.1157 H   0  0  0  0  0  0  0  0  0  0  0  0
  201.3426  190.0497  152.7021 H   0  0  0  0  0  0  0  0  0  0  0  0
  200.1229  190.0477  154.8703 H   0  0  0  0  0  0  0  0  0  0  0  0
  198.6272  188.1537  155.4691 H   0  0  0  0  0  0  0  0  0  0  0  0
  197.4286  182.1492  156.9833 H   0  0  0  0  0  0  0  0  0  0  0  0
  195.8100  181.4279  158.7109 H   0  0  0  0  0  0  0  0  0  0  0  0
  194.6024  183.1269  160.0753 H   0  0  0  0  0  0  0  0  0  0  0  0
  195.0187  185.5482  159.7036 H   0  0  0  0  0  0  0  0  0  0  0  0
  1  2  1  0
  2  3  1  0
  2 30  2  0
  3  4  1  0
  3 27  2  0
  4  5  1  0
  5  6  1  0
  5 31  1  6
  5 32  1  0
  6  7  1  0
  6 10  2  0
  7  8  1  0
  7 26  2  0
  8  9  1  0
  8 23  2  0
  9 10  1  0
 10 11  1  0
 11 12  2  0
 11 13  1  0
 13 14  1  0
 13 33  1  0
 14 15  1  0
 14 34  1  1
 14 35  1  0
 15 16  1  0
 15 20  2  0
 16 17  2  0
 16 36  1  0
 17 18  1  0
 17 37  1  0
 18 19  2  0
 18 21  1  0
 19 20  1  0
 19 38  1  0
 20 39  1  0
 21 22  1  0
 21 40  1  1
 21 41  1  0
 22 42  1  0
 23 24  1  0
 23 43  1  0
 24 25  2  0
 24 44  1  0
 25 26  1  0
 25 45  1  0
 26 46  1  0
 27 28  1  0
 27 47  1  0
 28 29  2  0
 28 48  1  0
 29 30  1  0
 29 49  1  0
 30 50  1  0
M  END
>  <s_epik_cmdline>  (1399) 
J2VwaWtfcHl0aG9uJywgJy1waCcsICc3LjAwMDAwMCcsICctcGh0JywgJzIuMDAwMDAwJywgJy1tcycsICcxNicsICctdG4nLCAnOCcsICctbWEnLCAnMjAwJywgJy1pbWFlJywgJzxpbmZpbGUubWFlPicsICctb21hZScsICc8b3V0ZmlsZS5tYWU+Jw==

>  <s_epik_input>  (1399) 
W2NIXTFbY0hdW2NIXVtjSF1jKGMxQ2wpU1tDSDJdYzJjKG9jKGMyMylbY0hdW2NIXVtjSF1bY0hdMylDKD1PKVtOSF1bQ0gyXWM0W2NIXVtjSF1jKFtjSF1bY0hdNClbQ0gyXVtPSF0=

>  <s_i_glide_gridfile>  (1399) 
ATP-Grid

>  <s_lp_Force_Field>  (1399) 
OPLS_2005

>  <s_lp_Variant>  (1399) 
a1____58183____286425-1

>  <s_lp_label>  (1399) 
578_sdstereoexpander_1_neutralizer_1_epik_1_stereoizer_1

>  <s_m_source_file>  (1399) 
ATP-VSW-LIGPREP-002-in.maegz

>  <s_sd_BIOSOLVEIT.INFINISEE\_QUERY\_NAME>  (1399) 
Ref-Lig

>  <s_sd_BIOSOLVEIT.INFINISEE\_QUERY\_SMILES>  (1399) 
S(c1nc2c(cc1C[NH2+]Cc3ccc(cc3)C[NH+](C)C)cccc2)Cc4ccccc4

>  <s_sd_BIOSOLVEIT.INFINISEE\_REACTION\_NAME>  (1399) 
a1

>  <s_sd_BIOSOLVEIT.INFINISEE\_REAGENT1\_SMILES>  (1399) 
[R1*]NCc1ccc(cc1)CO

>  <s_sd_BIOSOLVEIT.INFINISEE\_REAGENT2\_SMILES>  (1399) 
[R1*]C(=O)C=1Oc2c(cccc2)C1CSc3c(Cl)cccc3

>  <s_sd_BIOSOLVEIT.INFINISEE\_SPACE>  (1399) 
FreedomSpace_5bn_2023-06

>  <s_vsw_compound_code>  (1399) 
18466

>  <s_vsw_variant>  (1399) 
18466-1

>  <r_epik_Charging_Adjusted_Penalty>  (1399) 
0

>  <r_epik_Ionization_Penalty>  (1399) 
0

>  <r_epik_Ionization_Penalty_Charging>  (1399) 
0

>  <r_epik_Ionization_Penalty_Neutral>  (1399) 
0

>  <r_epik_State_Penalty>  (1399) 
-0

>  <r_i_docking_score>  (1399) 
-3.7402764348645499

>  <r_i_glide_ecoul>  (1399) 
-8.4042186737060494

>  <r_i_glide_eff_state_penalty>  (1399) 
-0

>  <r_i_glide_einternal>  (1399) 
3.14345455169678

>  <r_i_glide_emodel>  (1399) 
-50.5697643487443

>  <r_i_glide_energy>  (1399) 
-41.2770900726318

>  <r_i_glide_erotb>  (1399) 
0.83197266575028495

>  <r_i_glide_esite>  (1399) 
-0.0347271410030544

>  <r_i_glide_evdw>  (1399) 
-32.872871398925803

>  <r_i_glide_gscore>  (1399) 
-3.7402764348645499

>  <r_i_glide_hbond>  (1399) 
-0.16

>  <r_i_glide_ligand_efficiency>  (1399) 
-0.124675881162152

>  <r_i_glide_ligand_efficiency_ln>  (1399) 
-0.849831559577089

>  <r_i_glide_ligand_efficiency_sa>  (1399) 
-0.38739695021627402

>  <r_i_glide_lipo>  (1399) 
-1.04333362909936

>  <r_i_glide_metal>  (1399) 
-0

>  <r_i_glide_rewards>  (1399) 
-0.42991195951022299

>  <r_lp_Energy>  (1399) 
12.996383

>  <r_lp_tautomer_probability>  (1399) 
1

>  <r_qp_ACxDN^.5/SA>  (1399) 
0.011710999999999999

>  <r_qp_CIQPlogS>  (1399) 
-7.2199999999999998

>  <r_qp_EA(eV)>  (1399) 
0.78300000000000003

>  <r_qp_FISA>  (1399) 
65.349999999999994

>  <r_qp_FOSA>  (1399) 
127.041

>  <r_qp_IP(eV)>  (1399) 
8.7200000000000006

>  <r_qp_Jm>  (1399) 
1.3254487909688699

>  <r_qp_PISA>  (1399) 
354.55099999999999

>  <r_qp_PSA>  (1399) 
65.507999999999996

>  <r_qp_PercentHumanOralAbsorption>  (1399) 
100

>  <r_qp_QPPCaco>  (1399) 
2377.8499999999999

>  <r_qp_QPPMDCK>  (1399) 
3505.1419999999998

>  <r_qp_QPlogBB>  (1399) 
-0.28499999999999998

>  <r_qp_QPlogHERG>  (1399) 
-5.1909999999999998

>  <r_qp_QPlogKhsa>  (1399) 
0.56200000000000006

>  <r_qp_QPlogKp>  (1399) 
-0.70699999999999996

>  <r_qp_QPlogPC16>  (1399) 
13.558

>  <r_qp_QPlogPo/w>  (1399) 
4.9009999999999998

>  <r_qp_QPlogPoct>  (1399) 
20.161999999999999

>  <r_qp_QPlogPw>  (1399) 
10.401

>  <r_qp_QPlogS>  (1399) 
-4.8120000000000003

>  <r_qp_QPpolrz>  (1399) 
40.841000000000001

>  <r_qp_SASA>  (1399) 
627.947

>  <r_qp_SAamideO>  (1399) 
0

>  <r_qp_SAfluorine>  (1399) 
0

>  <r_qp_WPSA>  (1399) 
81.004999999999995

>  <r_qp_accptHB>  (1399) 
5.2000000000000002

>  <r_qp_dip^2/V>  (1399) 
0.044895200000000003

>  <r_qp_dipole>  (1399) 
7.3949999999999996

>  <r_qp_donorHB>  (1399) 
2

>  <r_qp_glob>  (1399) 
0.8783744

>  <r_qp_mol_MW>  (1399) 
437.94

>  <r_qp_volume>  (1399) 
1218.0239999999999

>  <r_sd_BIOSOLVEIT.INFINISEE\_FTREES\_SIMILARITY>  (1399) 
0.90200000000000002

>  <r_sd_BIOSOLVEIT.LOGP>  (1399) 
5.8007999999999997

>  <r_sd_BIOSOLVEIT.MOLECULAR\_WEIGHT>  (1399) 
437.94400000000002

>  <r_sd_BIOSOLVEIT.TPSA>  (1399) 
62.469999999999999

>  <i_epik_Tot_Q>  (1399) 
0

>  <i_epik_Tot_abs_Q>  (1399) 
0

>  <i_f3d_flags>  (1399) 
0

>  <i_i_glide_confnum>  (1399) 
7

>  <i_i_glide_lignum>  (1399) 
167

>  <i_i_glide_posenum>  (1399) 
3

>  <i_i_glide_rotatable_bonds>  (1399) 
9

>  <i_lp_mmshare_version>  (1399) 
65135

>  <i_m_ct_format>  (1399) 
2

>  <i_m_source_file_index>  (1399) 
578

>  <i_qp_#NandO>  (1399) 
4

>  <i_qp_#acid>  (1399) 
0

>  <i_qp_#amide>  (1399) 
0

>  <i_qp_#amidine>  (1399) 
0

>  <i_qp_#amine>  (1399) 
0

>  <i_qp_#in34>  (1399) 
0

>  <i_qp_#in56>  (1399) 
21

>  <i_qp_#metab>  (1399) 
4

>  <i_qp_#nonHatm>  (1399) 
30

>  <i_qp_#noncon>  (1399) 
0

>  <i_qp_#ringatoms>  (1399) 
21

>  <i_qp_#rotor>  (1399) 
8

>  <i_qp_#rtvFG>  (1399) 
0

>  <i_qp_#stars>  (1399) 
0

>  <i_qp_CNS>  (1399) 
0

>  <i_qp_HumanOralAbsorption>  (1399) 
3

>  <i_qp_RuleOfFive>  (1399) 
0

>  <i_qp_RuleOfThree>  (1399) 
0

>  <i_sd_BIOSOLVEIT.INFINISEE\_REAGENT1\_NAME>  (1399) 
58183

>  <i_sd_BIOSOLVEIT.INFINISEE\_REAGENT2\_NAME>  (1399) 
286425

>  <i_sd_BIOSOLVEIT.INFINISEE\_RESULT\_RANK>  (1399) 
91254

>  <i_sd_version>  (1399) 
0

>  <b_lp_Chiralities_Consistent>  (1399) 
1

>  <b_sd_chiral_flag>  (1399) 
0

>  <canonical_id>  (1399) 
ATP-HTVS-DCF81E89AD2E

>  <compound_code>  (1399) 
18466

>  <title>  (1399) 
a1____58183____286425

>  <variant>  (1399) 
18466-1

>  <source_file>  (1399) 
运行/运行/ATP-VSW/ATP-VSW-DOCK_HTVS_1-002_lib.maegz

>  <canonical_smiles>  (1399) 
O=C(NCc1ccc(CO)cc1)c1oc2ccccc2c1CSc1ccccc1Cl

>  <scaffold>  (1399) 
O=C(NCc1ccccc1)c1oc2ccccc2c1CSc1ccccc1

>  <molecular_formula>  (1399) 
C24H20ClNO3S

$$$$
ATP-HTVS-DD1946FA5AC5
     RDKit          3D

 64 66  0  0  0  0  0  0  0  0999 V2000
  201.8843  178.9526  156.4262 O   0  0  0  0  0  0  0  0  0  0  0  0
  201.7503  178.8470  155.2033 C   0  0  0  0  0  0  0  0  0  0  0  0
  202.5234  179.6584  154.4310 N   0  0  0  0  0  0  0  0  0  0  0  0
  202.2741  179.9897  153.0626 C   0  0  0  0  0  0  0  0  0  0  0  0
  203.0442  179.4016  152.1116 N   0  0  0  0  0  0  0  0  0  0  0  0
  202.7909  179.6717  150.8200 C   0  0  0  0  0  0  0  0  0  0  0  0
  201.7908  180.5566  150.4119 C   0  0  0  0  0  0  0  0  0  0  0  0
  201.0407  181.2293  151.3795 C   0  0  0  0  0  0  0  0  0  0  0  0
  201.2862  180.9481  152.7702 C   0  0  0  0  0  0  0  0  0  0  0  0
  200.5648  181.6100  153.7695 N   0  0  0  0  0  0  0  0  0  0  0  0
  199.3161  182.3109  153.4843 C   0  0  1  0  0  0  0  0  0  0  0  0
  198.4936  182.6057  154.7233 C   0  0  0  0  0  0  0  0  0  0  0  0
  198.0995  183.9283  155.0231 C   0  0  0  0  0  0  0  0  0  0  0  0
  197.3445  184.1932  156.1873 C   0  0  0  0  0  0  0  0  0  0  0  0
  196.9883  183.1360  157.0590 C   0  0  0  0  0  0  0  0  0  0  0  0
  197.4031  181.8222  156.7648 C   0  0  0  0  0  0  0  0  0  0  0  0
  198.1130  181.5587  155.5776 C   0  0  0  0  0  0  0  0  0  0  0  0
  196.1582  183.4036  158.3041 C   0  0  1  0  0  0  0  0  0  0  0  0
  194.7162  183.0782  158.1129 N   0  0  2  0  0  0  0  0  0  0  0  0
  193.8650  183.8245  159.0675 C   0  0  2  0  0  0  0  0  0  0  0  0
  194.4168  181.6281  158.1461 C   0  0  2  0  0  0  0  0  0  0  0  0
  203.7081  180.3162  155.0151 C   0  0  2  0  0  0  0  0  0  0  0  0
  200.6809  177.7945  154.6969 C   0  0  1  0  0  0  0  0  0  0  0  0
  201.3177  176.3819  154.6377 C   0  0  0  0  0  0  0  0  0  0  0  0
  201.1776  175.5598  153.4784 C   0  0  0  0  0  0  0  0  0  0  0  0
  201.6788  174.2539  153.4462 C   0  0  0  0  0  0  0  0  0  0  0  0
  202.3281  173.7137  154.5650 C   0  0  0  0  0  0  0  0  0  0  0  0
  202.4754  174.4974  155.7284 C   0  0  0  0  0  0  0  0  0  0  0  0
  201.9605  175.8138  155.7634 C   0  0  0  0  0  0  0  0  0  0  0  0
  199.5180  177.7269  155.7137 C   0  0  2  0  0  0  0  0  0  0  0  0
  199.9560  178.1701  153.3656 C   0  0  2  0  0  0  0  0  0  0  0  0
  203.3633  179.1172  150.0901 H   0  0  0  0  0  0  0  0  0  0  0  0
  201.5640  180.6923  149.3562 H   0  0  0  0  0  0  0  0  0  0  0  0
  200.2579  181.8885  151.0816 H   0  0  0  0  0  0  0  0  0  0  0  0
  200.6605  181.2466  154.7171 H   0  0  0  0  0  0  0  0  0  0  0  0
  199.5483  183.2440  152.9703 H   0  0  0  0  0  0  0  0  0  0  0  0
  198.7064  181.7065  152.8114 H   0  0  0  0  0  0  0  0  0  0  0  0
  198.3781  184.7366  154.3631 H   0  0  0  0  0  0  0  0  0  0  0  0
  197.0475  185.2106  156.3991 H   0  0  0  0  0  0  0  0  0  0  0  0
  197.1648  181.0019  157.4249 H   0  0  0  0  0  0  0  0  0  0  0  0
  198.3596  180.5451  155.3271 H   0  0  0  0  0  0  0  0  0  0  0  0
  196.5627  182.8558  159.1589 H   0  0  0  0  0  0  0  0  0  0  0  0
  196.2764  184.4624  158.5564 H   0  0  0  0  0  0  0  0  0  0  0  0
  194.1198  183.5649  160.0974 H   0  0  0  0  0  0  0  0  0  0  0  0
  192.8105  183.5942  158.9091 H   0  0  0  0  0  0  0  0  0  0  0  0
  193.9924  184.9006  158.9639 H   0  0  0  0  0  0  0  0  0  0  0  0
  194.7260  181.1848  159.0981 H   0  0  0  0  0  0  0  0  0  0  0  0
  194.9151  181.1103  157.3311 H   0  0  0  0  0  0  0  0  0  0  0  0
  193.3490  181.4451  158.0106 H   0  0  0  0  0  0  0  0  0  0  0  0
  204.2718  180.9040  154.2855 H   0  0  0  0  0  0  0  0  0  0  0  0
  204.4092  179.5769  155.4246 H   0  0  0  0  0  0  0  0  0  0  0  0
  203.4312  181.0035  155.8222 H   0  0  0  0  0  0  0  0  0  0  0  0
  200.6635  175.8895  152.5993 H   0  0  0  0  0  0  0  0  0  0  0  0
  201.5375  173.6670  152.5469 H   0  0  0  0  0  0  0  0  0  0  0  0
  202.7071  172.7016  154.5229 H   0  0  0  0  0  0  0  0  0  0  0  0
  202.9654  174.0698  156.5965 H   0  0  0  0  0  0  0  0  0  0  0  0
  202.0609  176.3728  156.6924 H   0  0  0  0  0  0  0  0  0  0  0  0
  199.8033  177.4353  156.7253 H   0  0  0  0  0  0  0  0  0  0  0  0
  198.7653  177.0173  155.3805 H   0  0  0  0  0  0  0  0  0  0  0  0
  199.0102  178.6744  155.8016 H   0  0  0  0  0  0  0  0  0  0  0  0
  200.6626  178.1050  152.5139 H   0  0  0  0  0  0  0  0  0  0  0  0
  199.5522  179.1753  153.4140 H   0  0  0  0  0  0  0  0  0  0  0  0
  199.1601  177.4783  153.1344 H   0  0  0  0  0  0  0  0  0  0  0  0
  194.4449  183.3569  157.1756 H   0  0  0  0  0  0  0  0  0  0  0  0
  1  2  2  0
  2  3  1  0
 23  2  1  1
  3  4  1  0
  3 22  1  0
  4  5  1  0
  4  9  2  0
  5  6  2  0
  6  7  1  0
  6 32  1  0
  7  8  2  0
  7 33  1  0
  8  9  1  0
  8 34  1  0
  9 10  1  0
 10 11  1  0
 10 35  1  0
 11 12  1  0
 11 36  1  6
 11 37  1  0
 12 13  1  0
 12 17  2  0
 13 14  2  0
 13 38  1  0
 14 15  1  0
 14 39  1  0
 15 16  2  0
 15 18  1  0
 16 17  1  0
 16 40  1  0
 17 41  1  0
 18 19  1  0
 18 42  1  1
 18 43  1  0
 19 20  1  0
 19 21  1  0
 19 64  1  6
 20 44  1  1
 20 45  1  0
 20 46  1  0
 21 47  1  1
 21 48  1  0
 21 49  1  0
 22 50  1  6
 22 51  1  0
 22 52  1  0
 23 24  1  0
 23 30  1  0
 23 31  1  0
 24 25  2  0
 24 29  1  0
 25 26  1  0
 25 53  1  0
 26 27  2  0
 26 54  1  0
 27 28  1  0
 27 55  1  0
 28 29  2  0
 28 56  1  0
 29 57  1  0
 30 58  1  1
 30 59  1  0
 30 60  1  0
 31 61  1  6
 31 62  1  0
 31 63  1  0
M  CHG  1  19   1
M  END
>  <s_epik_cmdline>  (1400) 
J2VwaWtfcHl0aG9uJywgJy1waCcsICc3LjAwMDAwMCcsICctcGh0JywgJzIuMDAwMDAwJywgJy1tcycsICcxNicsICctdG4nLCAnOCcsICctbWEnLCAnMjAwJywgJy1pbWFlJywgJzxpbmZpbGUubWFlPicsICctb21hZScsICc8b3V0ZmlsZS5tYWU+Jw==

>  <s_epik_input>  (1400) 
W2NIXTFbY0hdW2NIXVtjSF1bY0hdYzFDKFtDSDNdKShbQ0gzXSlDKD1PKU4oW0NIM10pYzJuW2NIXVtjSF1bY0hdYzJbTkhdW0NIMl1jM1tjSF1bY0hdYyhbY0hdW2NIXTMpW0NIMl1OKFtDSDNdKVtDSDNd

>  <s_i_glide_gridfile>  (1400) 
ATP-Grid

>  <s_lp_Force_Field>  (1400) 
OPLS_2005

>  <s_lp_Variant>  (1400) 
rxn502a____EMOL882167____EMOL45980405____EMOL50155899-1

>  <s_lp_label>  (1400) 
2913_sdstereoexpander_1_neutralizer_1_epik_1_stereoizer_1

>  <s_m_source_file>  (1400) 
ATP-VSW-LIGPREP-001-in.maegz

>  <s_sd_BIOSOLVEIT.INFINISEE\_QUERY\_NAME>  (1400) 
Ref-Lig

>  <s_sd_BIOSOLVEIT.INFINISEE\_QUERY\_SMILES>  (1400) 
S(c1nc2c(cc1C[NH2+]Cc3ccc(cc3)C[NH+](C)C)cccc2)Cc4ccccc4

>  <s_sd_BIOSOLVEIT.INFINISEE\_REACTION\_NAME>  (1400) 
rxn502a

>  <s_sd_BIOSOLVEIT.INFINISEE\_REAGENT1\_NAME>  (1400) 
EMOL882167

>  <s_sd_BIOSOLVEIT.INFINISEE\_REAGENT1\_SMILES>  (1400) 
O=C(O)C(c1ccccc1)(C)C

>  <s_sd_BIOSOLVEIT.INFINISEE\_REAGENT2\_NAME>  (1400) 
EMOL45980405

>  <s_sd_BIOSOLVEIT.INFINISEE\_REAGENT2\_SMILES>  (1400) 
Ic1c(nccc1)NC

>  <s_sd_BIOSOLVEIT.INFINISEE\_REAGENT3\_NAME>  (1400) 
EMOL50155899

>  <s_sd_BIOSOLVEIT.INFINISEE\_REAGENT3\_SMILES>  (1400) 
N(Cc1ccc(cc1)CN)(C)C

>  <s_sd_BIOSOLVEIT.INFINISEE\_SPACE>  (1400) 
eXplore_7tr_2022-12

>  <s_vsw_compound_code>  (1400) 
93185

>  <s_vsw_variant>  (1400) 
93185-1

>  <r_epik_Charging_Adjusted_Penalty>  (1400) 
0.098688987526384206

>  <r_epik_Ionization_Penalty>  (1400) 
0.059499999999999997

>  <r_epik_Ionization_Penalty_Charging>  (1400) 
0.039199999999999999

>  <r_epik_Ionization_Penalty_Neutral>  (1400) 
0.020299999999999999

>  <r_epik_State_Penalty>  (1400) 
0.059499999999999997

>  <r_i_docking_score>  (1400) 
-2.9578912720345798

>  <r_i_glide_ecoul>  (1400) 
-6.13498783111572

>  <r_i_glide_eff_state_penalty>  (1400) 
0.059499999999999997

>  <r_i_glide_einternal>  (1400) 
4.8577113151550302

>  <r_i_glide_emodel>  (1400) 
-38.646768859785702

>  <r_i_glide_energy>  (1400) 
-32.093335151672399

>  <r_i_glide_erotb>  (1400) 
0.79354665791498202

>  <r_i_glide_esite>  (1400) 
-0.095423030989449598

>  <r_i_glide_evdw>  (1400) 
-25.958347320556602

>  <r_i_glide_gscore>  (1400) 
-3.0173912720345801

>  <r_i_glide_hbond>  (1400) 
-0.18773763791586201

>  <r_i_glide_ligand_efficiency>  (1400) 
-0.095415847484986605

>  <r_i_glide_ligand_efficiency_ln>  (1400) 
-0.66709513032481604

>  <r_i_glide_ligand_efficiency_sa>  (1400) 
-0.29973749687776702

>  <r_i_glide_lipo>  (1400) 
-0.74756458398542902

>  <r_i_glide_metal>  (1400) 
-0

>  <r_i_glide_rewards>  (1400) 
-0.56204713636363501

>  <r_lp_Energy>  (1400) 
43.338039000000002

>  <r_lp_tautomer_probability>  (1400) 
0.999999999999999

>  <r_qp_ACxDN^.5/SA>  (1400) 
0.0094658999999999993

>  <r_qp_CIQPlogS>  (1400) 
-4.9100000000000001

>  <r_qp_EA(eV)>  (1400) 
0.24199999999999999

>  <r_qp_FISA>  (1400) 
33.271000000000001

>  <r_qp_FOSA>  (1400) 
359.33199999999999

>  <r_qp_IP(eV)>  (1400) 
8.5129999999999999

>  <r_qp_Jm>  (1400) 
0.0670432643442056

>  <r_qp_PISA>  (1400) 
346.88999999999999

>  <r_qp_PSA>  (1400) 
46.780999999999999

>  <r_qp_PercentHumanOralAbsorption>  (1400) 
100

>  <r_qp_QPPCaco>  (1400) 
1194.7829999999999

>  <r_qp_QPPMDCK>  (1400) 
663.39200000000005

>  <r_qp_QPlogBB>  (1400) 
0.14799999999999999

>  <r_qp_QPlogHERG>  (1400) 
-6.8700000000000001

>  <r_qp_QPlogKhsa>  (1400) 
0.68700000000000006

>  <r_qp_QPlogKp>  (1400) 
-2.2050000000000001

>  <r_qp_QPlogPC16>  (1400) 
14.085000000000001

>  <r_qp_QPlogPo/w>  (1400) 
4.7679999999999998

>  <r_qp_QPlogPoct>  (1400) 
21.07

>  <r_qp_QPlogPw>  (1400) 
10.68

>  <r_qp_QPlogS>  (1400) 
-4.5880000000000001

>  <r_qp_QPpolrz>  (1400) 
47.923000000000002

>  <r_qp_SASA>  (1400) 
739.49300000000005

>  <r_qp_SAamideO>  (1400) 
0

>  <r_qp_SAfluorine>  (1400) 
0

>  <r_qp_WPSA>  (1400) 
0

>  <r_qp_accptHB>  (1400) 
7

>  <r_qp_dip^2/V>  (1400) 
0.019574999999999999

>  <r_qp_dipole>  (1400) 
5.2290000000000001

>  <r_qp_donorHB>  (1400) 
1

>  <r_qp_glob>  (1400) 
0.81719980000000003

>  <r_qp_mol_MW>  (1400) 
416.565

>  <r_qp_volume>  (1400) 
1396.838

>  <r_sd_BIOSOLVEIT.INFINISEE\_FTREES\_SIMILARITY>  (1400) 
0.90400000000000003

>  <r_sd_BIOSOLVEIT.LOGP>  (1400) 
3.2787999999999999

>  <r_sd_BIOSOLVEIT.MOLECULAR\_WEIGHT>  (1400) 
417.57400000000001

>  <r_sd_BIOSOLVEIT.TPSA>  (1400) 
49.670000000000002

>  <i_epik_Tot_Q>  (1400) 
1

>  <i_epik_Tot_abs_Q>  (1400) 
1

>  <i_f3d_flags>  (1400) 
0

>  <i_i_glide_confnum>  (1400) 
4

>  <i_i_glide_lignum>  (1400) 
1357

>  <i_i_glide_posenum>  (1400) 
8

>  <i_i_glide_rotatable_bonds>  (1400) 
9

>  <i_lp_mmshare_version>  (1400) 
65135

>  <i_m_ct_format>  (1400) 
2

>  <i_m_source_file_index>  (1400) 
2913

>  <i_qp_#NandO>  (1400) 
5

>  <i_qp_#acid>  (1400) 
0

>  <i_qp_#amide>  (1400) 
0

>  <i_qp_#amidine>  (1400) 
0

>  <i_qp_#amine>  (1400) 
1

>  <i_qp_#in34>  (1400) 
0

>  <i_qp_#in56>  (1400) 
18

>  <i_qp_#metab>  (1400) 
9

>  <i_qp_#nonHatm>  (1400) 
31

>  <i_qp_#noncon>  (1400) 
0

>  <i_qp_#ringatoms>  (1400) 
18

>  <i_qp_#rotor>  (1400) 
8

>  <i_qp_#rtvFG>  (1400) 
0

>  <i_qp_#stars>  (1400) 
1

>  <i_qp_CNS>  (1400) 
1

>  <i_qp_HumanOralAbsorption>  (1400) 
3

>  <i_qp_RuleOfFive>  (1400) 
0

>  <i_qp_RuleOfThree>  (1400) 
1

>  <i_sd_BIOSOLVEIT.INFINISEE\_RESULT\_RANK>  (1400) 
76455

>  <i_sd_version>  (1400) 
0

>  <b_lp_Chiralities_Consistent>  (1400) 
1

>  <b_sd_chiral_flag>  (1400) 
0

>  <canonical_id>  (1400) 
ATP-HTVS-DD1946FA5AC5

>  <compound_code>  (1400) 
93185

>  <title>  (1400) 
rxn502a____EMOL882167____EMOL45980405____EMOL50155899

>  <variant>  (1400) 
93185-1

>  <source_file>  (1400) 
运行/运行/ATP-VSW/ATP-VSW-DOCK_HTVS_1-001_lib/ATP-VSW-DOCK_HTVS_1-001_lib

>  <canonical_smiles>  (1400) 
CN(C(=O)C(C)(C)c1ccccc1)c1ncccc1NCc1ccc(C[NH+](C)C)cc1

>  <scaffold>  (1400) 
O=C(Cc1ccccc1)Nc1ncccc1NCc1ccccc1

>  <molecular_formula>  (1400) 
C26H33N4O+

$$$$
ATP-HTVS-DD420CB019C5
     RDKit          3D

 56 60  0  0  0  0  0  0  0  0999 V2000
  198.3024  183.9781  153.6036 N   0  0  0  0  0  0  0  0  0  0  0  0
  197.9487  184.3756  152.3263 C   0  0  0  0  0  0  0  0  0  0  0  0
  197.0824  183.4247  151.7182 C   0  0  0  0  0  0  0  0  0  0  0  0
  196.9445  182.4096  152.6634 N   0  0  0  0  0  0  0  0  0  0  0  0
  197.6772  182.8062  153.7342 C   0  0  0  0  0  0  0  0  0  0  0  0
  197.7883  182.0014  154.9985 C   0  0  1  0  0  0  0  0  0  0  0  0
  196.7460  182.5912  155.8668 N   0  0  1  0  0  0  0  0  0  0  0  0
  196.8492  182.1772  157.2800 C   0  0  1  0  0  0  0  0  0  0  0  0
  196.1162  183.1618  158.1827 C   0  0  0  0  0  0  0  0  0  0  0  0
  196.7690  184.3201  158.6931 C   0  0  0  0  0  0  0  0  0  0  0  0
  198.1052  184.5877  158.3355 N   0  0  0  0  0  0  0  0  0  0  0  0
  198.8316  185.6355  159.0393 C   0  0  1  0  0  0  0  0  0  0  0  0
  197.9513  186.8540  159.3140 C   0  0  1  0  0  0  0  0  0  0  0  0
  196.7026  186.4607  160.1022 C   0  0  1  0  0  0  0  0  0  0  0  0
  196.0417  185.2143  159.5263 C   0  0  0  0  0  0  0  0  0  0  0  0
  194.6915  184.9613  159.8272 C   0  0  0  0  0  0  0  0  0  0  0  0
  194.0436  183.8390  159.2927 C   0  0  0  0  0  0  0  0  0  0  0  0
  194.7601  182.9343  158.4941 C   0  0  0  0  0  0  0  0  0  0  0  0
  196.1565  181.1997  152.5144 C   0  0  1  0  0  0  0  0  0  0  0  0
  196.8589  180.1597  151.6679 C   0  0  0  0  0  0  0  0  0  0  0  0
  197.8942  179.3831  152.2264 C   0  0  0  0  0  0  0  0  0  0  0  0
  198.5566  178.4202  151.4447 C   0  0  0  0  0  0  0  0  0  0  0  0
  198.1826  178.2235  150.1022 C   0  0  0  0  0  0  0  0  0  0  0  0
  197.1438  178.9922  149.5423 C   0  0  0  0  0  0  0  0  0  0  0  0
  196.4740  179.9509  150.3276 C   0  0  0  0  0  0  0  0  0  0  0  0
  196.5686  183.6277  150.4236 C   0  0  0  0  0  0  0  0  0  0  0  0
  196.9223  184.7880  149.7074 C   0  0  0  0  0  0  0  0  0  0  0  0
  197.7982  185.7305  150.2841 C   0  0  0  0  0  0  0  0  0  0  0  0
  198.3065  185.5258  151.5858 C   0  0  0  0  0  0  0  0  0  0  0  0
  196.8423  183.5953  155.8065 H   0  0  0  0  0  0  0  0  0  0  0  0
  197.6423  180.9309  154.8552 H   0  0  0  0  0  0  0  0  0  0  0  0
  198.7867  182.1463  155.4139 H   0  0  0  0  0  0  0  0  0  0  0  0
  196.4586  181.1671  157.4046 H   0  0  0  0  0  0  0  0  0  0  0  0
  197.8925  182.1215  157.5876 H   0  0  0  0  0  0  0  0  0  0  0  0
  198.6750  183.9000  157.8620 H   0  0  0  0  0  0  0  0  0  0  0  0
  199.2465  185.2320  159.9634 H   0  0  0  0  0  0  0  0  0  0  0  0
  199.6758  185.9275  158.4156 H   0  0  0  0  0  0  0  0  0  0  0  0
  198.5089  187.6220  159.8410 H   0  0  0  0  0  0  0  0  0  0  0  0
  197.6503  187.2885  158.3626 H   0  0  0  0  0  0  0  0  0  0  0  0
  196.9631  186.2432  161.1347 H   0  0  0  0  0  0  0  0  0  0  0  0
  195.9948  187.2910  160.1337 H   0  0  0  0  0  0  0  0  0  0  0  0
  194.1258  185.6449  160.4400 H   0  0  0  0  0  0  0  0  0  0  0  0
  192.9911  183.6894  159.4691 H   0  0  0  0  0  0  0  0  0  0  0  0
  194.2447  182.0806  158.0814 H   0  0  0  0  0  0  0  0  0  0  0  0
  195.9516  180.7698  153.4915 H   0  0  0  0  0  0  0  0  0  0  0  0
  195.2026  181.4776  152.0727 H   0  0  0  0  0  0  0  0  0  0  0  0
  198.1882  179.5113  153.2562 H   0  0  0  0  0  0  0  0  0  0  0  0
  199.3440  177.8263  151.8854 H   0  0  0  0  0  0  0  0  0  0  0  0
  198.6867  177.4765  149.5067 H   0  0  0  0  0  0  0  0  0  0  0  0
  196.8498  178.8311  148.5150 H   0  0  0  0  0  0  0  0  0  0  0  0
  195.6609  180.5184  149.9028 H   0  0  0  0  0  0  0  0  0  0  0  0
  195.9158  182.8941  149.9856 H   0  0  0  0  0  0  0  0  0  0  0  0
  196.5244  184.9566  148.7159 H   0  0  0  0  0  0  0  0  0  0  0  0
  198.0685  186.6208  149.7347 H   0  0  0  0  0  0  0  0  0  0  0  0
  198.9663  186.2563  152.0292 H   0  0  0  0  0  0  0  0  0  0  0  0
  195.8229  182.3592  155.5331 H   0  0  0  0  0  0  0  0  0  0  0  0
  1  2  1  0
  1  5  2  0
  2  3  1  0
  2 29  2  0
  3  4  1  0
  3 26  2  0
  4  5  1  0
  4 19  1  0
  5  6  1  0
  6  7  1  0
  6 31  1  6
  6 32  1  0
  7  8  1  0
  7 30  1  1
  7 56  1  0
  8  9  1  0
  8 33  1  6
  8 34  1  0
  9 10  1  0
  9 18  2  0
 10 11  1  0
 10 15  2  0
 11 12  1  0
 11 35  1  0
 12 13  1  0
 12 36  1  1
 12 37  1  0
 13 14  1  0
 13 38  1  1
 13 39  1  0
 14 15  1  0
 14 40  1  1
 14 41  1  0
 15 16  1  0
 16 17  2  0
 16 42  1  0
 17 18  1  0
 17 43  1  0
 18 44  1  0
 19 20  1  0
 19 45  1  1
 19 46  1  0
 20 21  2  0
 20 25  1  0
 21 22  1  0
 21 47  1  0
 22 23  2  0
 22 48  1  0
 23 24  1  0
 23 49  1  0
 24 25  2  0
 24 50  1  0
 25 51  1  0
 26 27  1  0
 26 52  1  0
 27 28  2  0
 27 53  1  0
 28 29  1  0
 28 54  1  0
 29 55  1  0
M  CHG  1   7   1
M  END
>  <s_epik_cmdline>  (1401) 
J2VwaWtfcHl0aG9uJywgJy1waCcsICc3LjAwMDAwMCcsICctcGh0JywgJzIuMDAwMDAwJywgJy1tcycsICcxNicsICctdG4nLCAnOCcsICctbWEnLCAnMjAwJywgJy1pbWFlJywgJzxpbmZpbGUubWFlPicsICctb21hZScsICc8b3V0ZmlsZS5tYWU+Jw==

>  <s_epik_input>  (1401) 
W2NIXTFbY0hdW2NIXVtjSF1bY0hdYzFbQ0gyXW4oYyhjMjMpW2NIXVtjSF1bY0hdW2NIXTMpYyhuMilbQ0gyXVtOSF1bQ0gyXWM0W2NIXVtjSF1bY0hdYyhjNDUpW0NIMl1bQ0gyXVtDSDJdW05IXTU=

>  <s_i_glide_gridfile>  (1401) 
ATP-Grid

>  <s_lp_Force_Field>  (1401) 
OPLS_2005

>  <s_lp_Variant>  (1401) 
m_270004bbb____25344900____24720860-1

>  <s_lp_label>  (1401) 
2074_sdstereoexpander_1_neutralizer_1_epik_1_stereoizer_1

>  <s_m_source_file>  (1401) 
ATP-VSW-LIGPREP-003-in.maegz

>  <s_sd_BIOSOLVEIT.INFINISEE\_QUERY\_NAME>  (1401) 
Ref-Lig

>  <s_sd_BIOSOLVEIT.INFINISEE\_QUERY\_SMILES>  (1401) 
S(c1nc2c(cc1C[NH2+]Cc3ccc(cc3)C[NH+](C)C)cccc2)Cc4ccccc4

>  <s_sd_BIOSOLVEIT.INFINISEE\_REACTION\_NAME>  (1401) 
m_270004bbb

>  <s_sd_BIOSOLVEIT.INFINISEE\_REAGENT1\_SMILES>  (1401) 
[R1*]NCc1c2NCCCc2ccc1

>  <s_sd_BIOSOLVEIT.INFINISEE\_REAGENT2\_SMILES>  (1401) 
[R1*]CC1=Nc2c(N1Cc3ccccc3)cccc2

>  <s_sd_BIOSOLVEIT.INFINISEE\_SPACE>  (1401) 
REALSpace_44bn_2023-08

>  <s_vsw_compound_code>  (1401) 
66339

>  <s_vsw_variant>  (1401) 
66339-1

>  <r_epik_Charging_Adjusted_Penalty>  (1401) 
0.48772589293357499

>  <r_epik_Ionization_Penalty>  (1401) 
0.34589999999999999

>  <r_epik_Ionization_Penalty_Charging>  (1401) 
0.34499999999999997

>  <r_epik_Ionization_Penalty_Neutral>  (1401) 
0.001

>  <r_epik_State_Penalty>  (1401) 
0.14269999999999999

>  <r_i_docking_score>  (1401) 
-5.3544063748784101

>  <r_i_glide_ecoul>  (1401) 
-7.6883468627929696

>  <r_i_glide_eff_state_penalty>  (1401) 
0.14269999999999999

>  <r_i_glide_einternal>  (1401) 
1.0752136707305899

>  <r_i_glide_emodel>  (1401) 
-60.806736422142798

>  <r_i_glide_energy>  (1401) 
-41.790981292724602

>  <r_i_glide_erotb>  (1401) 
0.66062745090574204

>  <r_i_glide_esite>  (1401) 
-0.109538850422051

>  <r_i_glide_evdw>  (1401) 
-34.102634429931598

>  <r_i_glide_gscore>  (1401) 
-5.4971063748784097

>  <r_i_glide_hbond>  (1401) 
-0.098657986287832802

>  <r_i_glide_ligand_efficiency>  (1401) 
-0.184634702582014

>  <r_i_glide_ligand_efficiency_ln>  (1401) 
-1.2260232838165701

>  <r_i_glide_ligand_efficiency_sa>  (1401) 
-0.56725630271151795

>  <r_i_glide_lipo>  (1401) 
-2.29689423815875

>  <r_i_glide_metal>  (1401) 
-0

>  <r_i_glide_rewards>  (1401) 
-0.79425899999999905

>  <r_lp_Energy>  (1401) 
15.101711999999999

>  <r_qp_ACxDN^.5/SA>  (1401) 
0.0091981000000000007

>  <r_qp_CIQPlogS>  (1401) 
-5.5469999999999997

>  <r_qp_EA(eV)>  (1401) 
0.099000000000000005

>  <r_qp_FISA>  (1401) 
35.701999999999998

>  <r_qp_FOSA>  (1401) 
215.51900000000001

>  <r_qp_IP(eV)>  (1401) 
8.1679999999999993

>  <r_qp_Jm>  (1401) 
0.31844273849945798

>  <r_qp_PISA>  (1401) 
363.78500000000003

>  <r_qp_PSA>  (1401) 
39.689

>  <r_qp_PercentHumanOralAbsorption>  (1401) 
100

>  <r_qp_QPPCaco>  (1401) 
1133.0229999999999

>  <r_qp_QPPMDCK>  (1401) 
626.40499999999997

>  <r_qp_QPlogBB>  (1401) 
0.29399999999999998

>  <r_qp_QPlogHERG>  (1401) 
-5.9119999999999999

>  <r_qp_QPlogKhsa>  (1401) 
0.76700000000000002

>  <r_qp_QPlogKp>  (1401) 
-2.383

>  <r_qp_QPlogPC16>  (1401) 
12.574999999999999

>  <r_qp_QPlogPo/w>  (1401) 
4.5490000000000004

>  <r_qp_QPlogPoct>  (1401) 
18.719999999999999

>  <r_qp_QPlogPw>  (1401) 
9.4619999999999997

>  <r_qp_QPlogS>  (1401) 
-3.6970000000000001

>  <r_qp_QPpolrz>  (1401) 
40.957999999999998

>  <r_qp_SASA>  (1401) 
615.005

>  <r_qp_SAamideO>  (1401) 
0

>  <r_qp_SAfluorine>  (1401) 
0

>  <r_qp_WPSA>  (1401) 
0

>  <r_qp_accptHB>  (1401) 
4

>  <r_qp_dip^2/V>  (1401) 
0.018351699999999999

>  <r_qp_dipole>  (1401) 
4.6669999999999998

>  <r_qp_donorHB>  (1401) 
2

>  <r_qp_glob>  (1401) 
0.88140249999999998

>  <r_qp_mol_MW>  (1401) 
382.50700000000001

>  <r_qp_volume>  (1401) 
1186.6759999999999

>  <r_sd_BIOSOLVEIT.INFINISEE\_FTREES\_SIMILARITY>  (1401) 
0.90100000000000002

>  <r_sd_BIOSOLVEIT.LOGP>  (1401) 
3.7063000000000001

>  <r_sd_BIOSOLVEIT.MOLECULAR\_WEIGHT>  (1401) 
383.51600000000002

>  <r_sd_BIOSOLVEIT.TPSA>  (1401) 
46.460000000000001

>  <i_epik_Tot_Q>  (1401) 
1

>  <i_epik_Tot_abs_Q>  (1401) 
1

>  <i_f3d_flags>  (1401) 
0

>  <i_i_glide_confnum>  (1401) 
2

>  <i_i_glide_lignum>  (1401) 
771

>  <i_i_glide_posenum>  (1401) 
9

>  <i_i_glide_rotatable_bonds>  (1401) 
6

>  <i_lp_mmshare_version>  (1401) 
65135

>  <i_m_ct_format>  (1401) 
2

>  <i_m_source_file_index>  (1401) 
2074

>  <i_qp_#NandO>  (1401) 
4

>  <i_qp_#acid>  (1401) 
0

>  <i_qp_#amide>  (1401) 
0

>  <i_qp_#amidine>  (1401) 
0

>  <i_qp_#amine>  (1401) 
1

>  <i_qp_#in34>  (1401) 
0

>  <i_qp_#in56>  (1401) 
25

>  <i_qp_#metab>  (1401) 
7

>  <i_qp_#nonHatm>  (1401) 
29

>  <i_qp_#noncon>  (1401) 
3

>  <i_qp_#ringatoms>  (1401) 
25

>  <i_qp_#rotor>  (1401) 
6

>  <i_qp_#rtvFG>  (1401) 
0

>  <i_qp_#stars>  (1401) 
0

>  <i_qp_CNS>  (1401) 
1

>  <i_qp_HumanOralAbsorption>  (1401) 
3

>  <i_qp_RuleOfFive>  (1401) 
0

>  <i_qp_RuleOfThree>  (1401) 
1

>  <i_sd_BIOSOLVEIT.INFINISEE\_REAGENT1\_NAME>  (1401) 
25344900

>  <i_sd_BIOSOLVEIT.INFINISEE\_REAGENT2\_NAME>  (1401) 
24720860

>  <i_sd_BIOSOLVEIT.INFINISEE\_RESULT\_RANK>  (1401) 
95557

>  <i_sd_version>  (1401) 
0

>  <b_lp_Chiralities_Consistent>  (1401) 
1

>  <b_sd_chiral_flag>  (1401) 
0

>  <canonical_id>  (1401) 
ATP-HTVS-DD420CB019C5

>  <compound_code>  (1401) 
66339

>  <title>  (1401) 
m_270004bbb____25344900____24720860

>  <variant>  (1401) 
66339-1

>  <source_file>  (1401) 
运行/运行/ATP-VSW/ATP-VSW-DOCK_HTVS_1-003_lib/ATP-VSW-DOCK_HTVS_1-003_lib.mae

>  <canonical_smiles>  (1401) 
c1ccc(Cn2c(C[NH2+]Cc3cccc4c3NCCC4)nc3ccccc32)cc1

>  <scaffold>  (1401) 
c1ccc(Cn2c(C[NH2+]Cc3cccc4c3NCCC4)nc3ccccc32)cc1

>  <molecular_formula>  (1401) 
C25H27N4+

$$$$
ATP-HTVS-DD59A7F9A26E
     RDKit          3D

 53 56  0  0  0  0  0  0  0  0999 V2000
  198.6187  185.4399  153.2563 Br  0  0  0  0  0  0  0  0  0  0  0  0
  197.8323  184.3101  154.5694 C   0  0  0  0  0  0  0  0  0  0  0  0
  197.7625  184.7638  155.8902 C   0  0  0  0  0  0  0  0  0  0  0  0
  197.1953  183.9599  156.9190 C   0  0  0  0  0  0  0  0  0  0  0  0
  196.6874  182.6835  156.5709 C   0  0  0  0  0  0  0  0  0  0  0  0
  196.0676  181.8387  157.5436 N   0  0  0  0  0  0  0  0  0  0  0  0
  195.2272  182.2230  158.5192 C   0  0  0  0  0  0  0  0  0  0  0  0
  194.7569  181.4336  159.3376 O   0  0  0  0  0  0  0  0  0  0  0  0
  194.7771  183.6714  158.6088 C   0  0  1  0  0  0  0  0  0  0  0  0
  195.8181  184.6863  158.9350 N   0  0  0  0  0  0  0  0  0  0  0  0
  197.1690  184.4226  158.3872 C   0  0  2  0  0  0  0  0  0  0  0  0
  198.0680  185.6448  158.5761 C   0  0  0  0  0  0  0  0  0  0  0  0
  197.5397  186.9397  158.3508 C   0  0  0  0  0  0  0  0  0  0  0  0
  198.3463  188.0811  158.4778 C   0  0  0  0  0  0  0  0  0  0  0  0
  199.7032  187.9321  158.8318 C   0  0  0  0  0  0  0  0  0  0  0  0
  200.2426  186.6453  159.0589 C   0  0  0  0  0  0  0  0  0  0  0  0
  199.4219  185.5028  158.9352 C   0  0  0  0  0  0  0  0  0  0  0  0
  195.8695  184.9113  160.3901 C   0  0  1  0  0  0  0  0  0  0  0  0
  194.9703  186.0509  160.8422 C   0  0  0  0  0  0  0  0  0  0  0  0
  193.5802  185.8826  160.9291 C   0  0  0  0  0  0  0  0  0  0  0  0
  192.7486  186.8783  161.4459 C   0  0  0  0  0  0  0  0  0  0  0  0
  193.2809  188.1127  161.8787 C   0  0  0  0  0  0  0  0  0  0  0  0
  192.4310  189.1245  162.3804 N   0  0  0  0  0  0  0  0  0  0  0  0
  190.9963  188.8802  162.5014 C   0  0  2  0  0  0  0  0  0  0  0  0
  192.9731  190.4463  162.6577 C   0  0  2  0  0  0  0  0  0  0  0  0
  194.6786  188.3095  161.7343 C   0  0  0  0  0  0  0  0  0  0  0  0
  195.5196  187.2905  161.2339 C   0  0  0  0  0  0  0  0  0  0  0  0
  196.7705  182.2243  155.2350 C   0  0  0  0  0  0  0  0  0  0  0  0
  197.3425  183.0355  154.2331 C   0  0  0  0  0  0  0  0  0  0  0  0
  198.1821  185.7410  156.0695 H   0  0  0  0  0  0  0  0  0  0  0  0
  196.1367  180.8296  157.4186 H   0  0  0  0  0  0  0  0  0  0  0  0
  194.2978  183.9198  157.6774 H   0  0  0  0  0  0  0  0  0  0  0  0
  193.9434  183.6888  159.2999 H   0  0  0  0  0  0  0  0  0  0  0  0
  197.6037  183.6060  158.9750 H   0  0  0  0  0  0  0  0  0  0  0  0
  196.5107  187.0622  158.0504 H   0  0  0  0  0  0  0  0  0  0  0  0
  197.9259  189.0620  158.2809 H   0  0  0  0  0  0  0  0  0  0  0  0
  200.3291  188.8097  158.9302 H   0  0  0  0  0  0  0  0  0  0  0  0
  201.2894  186.5361  159.3204 H   0  0  0  0  0  0  0  0  0  0  0  0
  199.8406  184.5192  159.0850 H   0  0  0  0  0  0  0  0  0  0  0  0
  195.6451  183.9845  160.9303 H   0  0  0  0  0  0  0  0  0  0  0  0
  196.8684  185.1653  160.7430 H   0  0  0  0  0  0  0  0  0  0  0  0
  193.1501  184.9370  160.6602 H   0  0  0  0  0  0  0  0  0  0  0  0
  191.6918  186.6647  161.4934 H   0  0  0  0  0  0  0  0  0  0  0  0
  190.8228  188.0444  163.1806 H   0  0  0  0  0  0  0  0  0  0  0  0
  190.5395  188.6458  161.5367 H   0  0  0  0  0  0  0  0  0  0  0  0
  190.4815  189.7507  162.9059 H   0  0  0  0  0  0  0  0  0  0  0  0
  193.4498  190.8743  161.7736 H   0  0  0  0  0  0  0  0  0  0  0  0
  193.7090  190.3736  163.4572 H   0  0  0  0  0  0  0  0  0  0  0  0
  192.1896  191.1300  162.9827 H   0  0  0  0  0  0  0  0  0  0  0  0
  195.1424  189.2352  162.0124 H   0  0  0  0  0  0  0  0  0  0  0  0
  196.5844  187.4653  161.1714 H   0  0  0  0  0  0  0  0  0  0  0  0
  196.3638  181.2606  154.9683 H   0  0  0  0  0  0  0  0  0  0  0  0
  197.3950  182.7008  153.2082 H   0  0  0  0  0  0  0  0  0  0  0  0
  1  2  1  0
  2  3  2  0
  2 29  1  0
  3  4  1  0
  3 30  1  0
  4  5  2  0
  4 11  1  0
  5  6  1  0
  5 28  1  0
  6  7  1  0
  6 31  1  0
  7  8  2  0
  7  9  1  0
  9 10  1  0
  9 32  1  6
  9 33  1  0
 10 11  1  0
 10 18  1  0
 11 12  1  0
 11 34  1  1
 12 13  2  0
 12 17  1  0
 13 14  1  0
 13 35  1  0
 14 15  2  0
 14 36  1  0
 15 16  1  0
 15 37  1  0
 16 17  2  0
 16 38  1  0
 17 39  1  0
 18 19  1  0
 18 40  1  1
 18 41  1  0
 19 20  1  0
 19 27  2  0
 20 21  2  0
 20 42  1  0
 21 22  1  0
 21 43  1  0
 22 23  1  0
 22 26  2  0
 23 24  1  0
 23 25  1  0
 24 44  1  1
 24 45  1  0
 24 46  1  0
 25 47  1  6
 25 48  1  0
 25 49  1  0
 26 27  1  0
 26 50  1  0
 27 51  1  0
 28 29  2  0
 28 52  1  0
 29 53  1  0
M  END
>  <s_epik_cmdline>  (1402) 
J2VwaWtfcHl0aG9uJywgJy1waCcsICc3LjAwMDAwMCcsICctcGh0JywgJzIuMDAwMDAwJywgJy1tcycsICcxNicsICctdG4nLCAnOCcsICctbWEnLCAnMjAwJywgJy1pbWFlJywgJzxpbmZpbGUubWFlPicsICctb21hZScsICc8b3V0ZmlsZS5tYWU+Jw==

>  <s_epik_input>  (1402) 
QnJjKFtjSF0xKVtjSF1bY0hdYyhjMTIpW05IXUMoPU8pW0NIMl1OKFtDQEBIXTJjM1tjSF1bY0hdW2NIXVtjSF1bY0hdMylbQ0gyXWM0W2NIXVtjSF1jKE4oW0NIM10pW0NIM10pW2NIXVtjSF00

>  <s_i_glide_gridfile>  (1402) 
ATP-Grid

>  <s_lp_Force_Field>  (1402) 
OPLS_2005

>  <s_lp_Variant>  (1402) 
m_270004bda____24170772____7547454-1

>  <s_lp_label>  (1402) 
942_sdstereoexpander_1_neutralizer_1_epik_1_stereoizer_1

>  <s_m_source_file>  (1402) 
ATP-VSW-LIGPREP-001-in.maegz

>  <s_sd_BIOSOLVEIT.INFINISEE\_QUERY\_NAME>  (1402) 
Ref-Lig

>  <s_sd_BIOSOLVEIT.INFINISEE\_QUERY\_SMILES>  (1402) 
S(c1nc2c(cc1C[NH2+]Cc3ccc(cc3)C[NH+](C)C)cccc2)Cc4ccccc4

>  <s_sd_BIOSOLVEIT.INFINISEE\_REACTION\_NAME>  (1402) 
m_270004bda

>  <s_sd_BIOSOLVEIT.INFINISEE\_REAGENT1\_SMILES>  (1402) 
[R1*]N1C(c2c(NC(=O)C1)ccc(Br)c2)c3ccccc3

>  <s_sd_BIOSOLVEIT.INFINISEE\_REAGENT2\_SMILES>  (1402) 
[R1*]Cc1ccc(N(C)C)cc1

>  <s_sd_BIOSOLVEIT.INFINISEE\_SPACE>  (1402) 
REALSpace_44bn_2023-08

>  <s_vsw_compound_code>  (1402) 
30113

>  <s_vsw_variant>  (1402) 
30113-1

>  <r_epik_Charging_Adjusted_Penalty>  (1402) 
0.0073316794013013799

>  <r_epik_Ionization_Penalty>  (1402) 
0.012500000000000001

>  <r_epik_Ionization_Penalty_Charging>  (1402) 
0

>  <r_epik_Ionization_Penalty_Neutral>  (1402) 
0.012500000000000001

>  <r_epik_State_Penalty>  (1402) 
0.0073000000000000001

>  <r_i_docking_score>  (1402) 
-1.7341039742609901

>  <r_i_glide_ecoul>  (1402) 
-2.8205842971801798

>  <r_i_glide_eff_state_penalty>  (1402) 
0.0073000000000000001

>  <r_i_glide_einternal>  (1402) 
1.00275218486786

>  <r_i_glide_emodel>  (1402) 
-37.764933735593999

>  <r_i_glide_energy>  (1402) 
-34.537249565124498

>  <r_i_glide_erotb>  (1402) 
0.29652521162338502

>  <r_i_glide_esite>  (1402) 
-0.195132151843149

>  <r_i_glide_evdw>  (1402) 
-31.7166652679443

>  <r_i_glide_gscore>  (1402) 
-1.7414039742609899

>  <r_i_glide_hbond>  (1402) 
-0.16

>  <r_i_glide_ligand_efficiency>  (1402) 
-0.059796688767620301

>  <r_i_glide_ligand_efficiency_ln>  (1402) 
-0.39706583702308001

>  <r_i_glide_ligand_efficiency_sa>  (1402) 
-0.18371437281485301

>  <r_i_glide_lipo>  (1402) 
-1.27308711720529

>  <r_i_glide_metal>  (1402) 
-0

>  <r_i_glide_rewards>  (1402) 
1.5992109911383099

>  <r_lp_Energy>  (1402) 
40.500767000000003

>  <r_qp_ACxDN^.5/SA>  (1402) 
0.0077229000000000004

>  <r_qp_CIQPlogS>  (1402) 
-6.0810000000000004

>  <r_qp_EA(eV)>  (1402) 
0.496

>  <r_qp_FISA>  (1402) 
72.433000000000007

>  <r_qp_FOSA>  (1402) 
206.80500000000001

>  <r_qp_IP(eV)>  (1402) 
8.0389999999999997

>  <r_qp_Jm>  (1402) 
0.00027920796472115101

>  <r_qp_PISA>  (1402) 
355.74799999999999

>  <r_qp_PSA>  (1402) 
46.293999999999997

>  <r_qp_PercentHumanOralAbsorption>  (1402) 
100

>  <r_qp_QPPCaco>  (1402) 
508.05900000000003

>  <r_qp_QPPMDCK>  (1402) 
696.85599999999999

>  <r_qp_QPlogBB>  (1402) 
0.218

>  <r_qp_QPlogHERG>  (1402) 
-7.173

>  <r_qp_QPlogKhsa>  (1402) 
0.88900000000000001

>  <r_qp_QPlogKp>  (1402) 
-3.3759999999999999

>  <r_qp_QPlogPC16>  (1402) 
13.951000000000001

>  <r_qp_QPlogPo/w>  (1402) 
4.702

>  <r_qp_QPlogPoct>  (1402) 
20.407

>  <r_qp_QPlogPw>  (1402) 
10.593

>  <r_qp_QPlogS>  (1402) 
-5.8319999999999999

>  <r_qp_QPpolrz>  (1402) 
46.597000000000001

>  <r_qp_SASA>  (1402) 
712.16399999999999

>  <r_qp_SAamideO>  (1402) 
0

>  <r_qp_SAfluorine>  (1402) 
0

>  <r_qp_WPSA>  (1402) 
77.179000000000002

>  <r_qp_accptHB>  (1402) 
5.5

>  <r_qp_dip^2/V>  (1402) 
0.0169944

>  <r_qp_dipole>  (1402) 
4.6660000000000004

>  <r_qp_donorHB>  (1402) 
1

>  <r_qp_glob>  (1402) 
0.80112510000000003

>  <r_qp_mol_MW>  (1402) 
450.37700000000001

>  <r_qp_volume>  (1402) 
1281.366

>  <r_sd_BIOSOLVEIT.INFINISEE\_FTREES\_SIMILARITY>  (1402) 
0.91700000000000004

>  <r_sd_BIOSOLVEIT.LOGP>  (1402) 
3.6417000000000002

>  <r_sd_BIOSOLVEIT.MOLECULAR\_WEIGHT>  (1402) 
451.38600000000002

>  <r_sd_BIOSOLVEIT.TPSA>  (1402) 
36.780000000000001

>  <i_epik_Tot_Q>  (1402) 
0

>  <i_epik_Tot_abs_Q>  (1402) 
0

>  <i_f3d_flags>  (1402) 
0

>  <i_i_glide_confnum>  (1402) 
2

>  <i_i_glide_lignum>  (1402) 
182

>  <i_i_glide_posenum>  (1402) 
6

>  <i_i_glide_rotatable_bonds>  (1402) 
4

>  <i_lp_mmshare_version>  (1402) 
65135

>  <i_m_ct_format>  (1402) 
2

>  <i_m_source_file_index>  (1402) 
942

>  <i_qp_#NandO>  (1402) 
4

>  <i_qp_#acid>  (1402) 
0

>  <i_qp_#amide>  (1402) 
0

>  <i_qp_#amidine>  (1402) 
0

>  <i_qp_#amine>  (1402) 
1

>  <i_qp_#in34>  (1402) 
0

>  <i_qp_#in56>  (1402) 
18

>  <i_qp_#metab>  (1402) 
7

>  <i_qp_#nonHatm>  (1402) 
29

>  <i_qp_#noncon>  (1402) 
2

>  <i_qp_#ringatoms>  (1402) 
23

>  <i_qp_#rotor>  (1402) 
3

>  <i_qp_#rtvFG>  (1402) 
0

>  <i_qp_#stars>  (1402) 
0

>  <i_qp_CNS>  (1402) 
1

>  <i_qp_HumanOralAbsorption>  (1402) 
3

>  <i_qp_RuleOfFive>  (1402) 
0

>  <i_qp_RuleOfThree>  (1402) 
2

>  <i_sd_BIOSOLVEIT.INFINISEE\_REAGENT1\_NAME>  (1402) 
24170772

>  <i_sd_BIOSOLVEIT.INFINISEE\_REAGENT2\_NAME>  (1402) 
7547454

>  <i_sd_BIOSOLVEIT.INFINISEE\_RESULT\_RANK>  (1402) 
21843

>  <i_sd_version>  (1402) 
0

>  <b_lp_Chiralities_Consistent>  (1402) 
1

>  <b_sd_chiral_flag>  (1402) 
0

>  <canonical_id>  (1402) 
ATP-HTVS-DD59A7F9A26E

>  <compound_code>  (1402) 
30113

>  <title>  (1402) 
m_270004bda____24170772____7547454

>  <variant>  (1402) 
30113-1

>  <source_file>  (1402) 
运行/运行/ATP-VSW/ATP-VSW-DOCK_HTVS_1-001_lib/ATP-VSW-DOCK_HTVS_1-001_lib

>  <canonical_smiles>  (1402) 
CN(C)c1ccc(CN2CC(=O)Nc3ccc(Br)cc3[C@H]2c2ccccc2)cc1

>  <scaffold>  (1402) 
O=C1CN(Cc2ccccc2)C(c2ccccc2)c2ccccc2N1

>  <molecular_formula>  (1402) 
C24H24BrN3O

$$$$
ATP-HTVS-DD7A369608E2
     RDKit          3D

 59 62  0  0  0  0  0  0  0  0999 V2000
  197.4095  184.6322  150.9709 O   0  0  0  0  0  0  0  0  0  0  0  0
  196.5317  183.7604  151.1039 C   0  0  0  0  0  0  0  0  0  0  0  0
  195.4009  183.7907  150.5544 O   0  0  0  0  0  0  0  0  0  0  0  0
  196.8206  182.5342  151.9636 C   0  0  1  0  0  0  0  0  0  0  0  0
  197.7302  182.8529  153.1701 C   0  0  1  0  0  0  0  0  0  0  0  0
  198.4032  181.6259  153.7767 C   0  0  0  0  0  0  0  0  0  0  0  0
  197.7689  180.8131  154.7475 C   0  0  0  0  0  0  0  0  0  0  0  0
  198.4507  179.7038  155.3012 C   0  0  0  0  0  0  0  0  0  0  0  0
  199.7618  179.4028  154.8983 C   0  0  0  0  0  0  0  0  0  0  0  0
  200.3946  180.2081  153.9361 C   0  0  0  0  0  0  0  0  0  0  0  0
  199.7197  181.3104  153.3780 C   0  0  0  0  0  0  0  0  0  0  0  0
  196.3751  181.1101  155.2416 C   0  0  1  0  0  0  0  0  0  0  0  0
  196.3600  182.2102  156.2155 N   0  0  1  0  0  0  0  0  0  0  0  0
  196.9122  181.8310  157.5543 C   0  0  1  0  0  0  0  0  0  0  0  0
  197.9664  182.8306  157.9732 C   0  0  0  0  0  0  0  0  0  0  0  0
  197.8582  184.0354  158.7451 C   0  0  0  0  0  0  0  0  0  0  0  0
  199.0496  184.5899  158.9435 N   0  0  0  0  0  0  0  0  0  0  0  0
  199.9400  183.7938  158.3176 N   0  0  0  0  0  0  0  0  0  0  0  0
  199.3078  182.7346  157.7030 C   0  0  0  0  0  0  0  0  0  0  0  0
  201.3599  184.1137  158.3531 C   0  0  1  0  0  0  0  0  0  0  0  0
  202.1361  183.0577  159.1163 C   0  0  0  0  0  0  0  0  0  0  0  0
  202.6027  181.9048  158.4500 C   0  0  0  0  0  0  0  0  0  0  0  0
  203.3162  180.9190  159.1571 C   0  0  0  0  0  0  0  0  0  0  0  0
  203.5683  181.0857  160.5324 C   0  0  0  0  0  0  0  0  0  0  0  0
  203.1044  182.2365  161.2002 C   0  0  0  0  0  0  0  0  0  0  0  0
  202.3857  183.2209  160.4952 C   0  0  0  0  0  0  0  0  0  0  0  0
  196.6672  184.6824  159.3422 C   0  0  0  0  0  0  0  0  0  0  0  0
  196.7910  185.9115  160.0602 C   0  0  0  0  0  0  0  0  0  0  0  0
  195.6543  186.5070  160.6495 C   0  0  0  0  0  0  0  0  0  0  0  0
  194.3854  185.8963  160.5446 C   0  0  0  0  0  0  0  0  0  0  0  0
  194.2626  184.6778  159.8338 C   0  0  0  0  0  0  0  0  0  0  0  0
  195.3742  184.0894  159.2106 C   0  0  0  0  0  0  0  0  0  0  0  0
  196.8911  182.9843  155.8150 H   0  0  0  0  0  0  0  0  0  0  0  0
  195.8690  182.1016  152.2958 H   0  0  0  0  0  0  0  0  0  0  0  0
  197.2872  181.7939  151.3147 H   0  0  0  0  0  0  0  0  0  0  0  0
  198.5262  183.5452  152.8908 H   0  0  0  0  0  0  0  0  0  0  0  0
  197.1450  183.3903  153.9161 H   0  0  0  0  0  0  0  0  0  0  0  0
  197.9771  179.0816  156.0506 H   0  0  0  0  0  0  0  0  0  0  0  0
  200.2749  178.5561  155.3267 H   0  0  0  0  0  0  0  0  0  0  0  0
  201.4015  179.9787  153.6246 H   0  0  0  0  0  0  0  0  0  0  0  0
  200.2205  181.9238  152.6469 H   0  0  0  0  0  0  0  0  0  0  0  0
  195.7041  181.3416  154.4180 H   0  0  0  0  0  0  0  0  0  0  0  0
  196.0112  180.2072  155.7319 H   0  0  0  0  0  0  0  0  0  0  0  0
  196.1046  181.7010  158.2682 H   0  0  0  0  0  0  0  0  0  0  0  0
  197.3675  180.8252  157.5086 H   0  0  0  0  0  0  0  0  0  0  0  0
  199.8659  181.9799  157.1681 H   0  0  0  0  0  0  0  0  0  0  0  0
  201.7207  184.1853  157.3279 H   0  0  0  0  0  0  0  0  0  0  0  0
  201.5079  185.0944  158.8134 H   0  0  0  0  0  0  0  0  0  0  0  0
  202.4124  181.7697  157.3951 H   0  0  0  0  0  0  0  0  0  0  0  0
  203.6694  180.0358  158.6439 H   0  0  0  0  0  0  0  0  0  0  0  0
  204.1153  180.3280  161.0730 H   0  0  0  0  0  0  0  0  0  0  0  0
  203.2944  182.3660  162.2548 H   0  0  0  0  0  0  0  0  0  0  0  0
  202.0270  184.0978  161.0156 H   0  0  0  0  0  0  0  0  0  0  0  0
  197.7423  186.4101  160.1539 H   0  0  0  0  0  0  0  0  0  0  0  0
  195.7579  187.4405  161.2070 H   0  0  0  0  0  0  0  0  0  0  0  0
  193.5169  186.3210  161.0150 H   0  0  0  0  0  0  0  0  0  0  0  0
  193.3099  184.1946  159.7415 H   0  0  0  0  0  0  0  0  0  0  0  0
  195.1618  183.2049  158.6432 H   0  0  0  0  0  0  0  0  0  0  0  0
  195.4075  182.5112  156.3001 H   0  0  0  0  0  0  0  0  0  0  0  0
  1  2  1  0
  2  3  2  0
  2  4  1  0
  4  5  1  0
  4 34  1  1
  4 35  1  0
  5  6  1  0
  5 36  1  6
  5 37  1  0
  6  7  1  0
  6 11  2  0
  7  8  2  0
  7 12  1  0
  8  9  1  0
  8 38  1  0
  9 10  2  0
  9 39  1  0
 10 11  1  0
 10 40  1  0
 11 41  1  0
 12 13  1  0
 12 42  1  6
 12 43  1  0
 13 14  1  0
 13 33  1  6
 13 59  1  0
 14 15  1  0
 14 44  1  1
 14 45  1  0
 15 16  1  0
 15 19  2  0
 16 17  2  0
 16 27  1  0
 17 18  1  0
 18 19  1  0
 18 20  1  0
 19 46  1  0
 20 21  1  0
 20 47  1  6
 20 48  1  0
 21 22  2  0
 21 26  1  0
 22 23  1  0
 22 49  1  0
 23 24  2  0
 23 50  1  0
 24 25  1  0
 24 51  1  0
 25 26  2  0
 25 52  1  0
 26 53  1  0
 27 28  2  0
 27 32  1  0
 28 29  1  0
 28 54  1  0
 29 30  2  0
 29 55  1  0
 30 31  1  0
 30 56  1  0
 31 32  2  0
 31 57  1  0
 32 58  1  0
M  CHG  2   1  -1  13   1
M  END
>  <s_epik_cmdline>  (1403) 
J2VwaWtfcHl0aG9uJywgJy1waCcsICc3LjAwMDAwMCcsICctcGh0JywgJzIuMDAwMDAwJywgJy1tcycsICcxNicsICctdG4nLCAnOCcsICctbWEnLCAnMjAwJywgJy1pbWFlJywgJzxpbmZpbGUubWFlPicsICctb21hZScsICc8b3V0ZmlsZS5tYWU+Jw==

>  <s_epik_input>  (1403) 
W09IXUMoPU8pW0NIMl1bQ0gyXWMxYyhbY0hdW2NIXVtjSF1bY0hdMSlbQ0gyXVtOSF1bQ0gyXWMyYygtYzNbY0hdW2NIXVtjSF1bY0hdW2NIXTMpbm4oW2NIXTIpW0NIMl1jNFtjSF1bY0hdW2NIXVtjSF1bY0hdNA==

>  <s_i_glide_gridfile>  (1403) 
ATP-Grid

>  <s_lp_Force_Field>  (1403) 
OPLS_2005

>  <s_lp_Variant>  (1403) 
m_271304bba____14772142____9305016-1

>  <s_lp_label>  (1403) 
1722_sdstereoexpander_1_neutralizer_1_epik_1_stereoizer_1

>  <s_m_source_file>  (1403) 
ATP-VSW-LIGPREP-002-in.maegz

>  <s_sd_BIOSOLVEIT.INFINISEE\_QUERY\_NAME>  (1403) 
Ref-Lig

>  <s_sd_BIOSOLVEIT.INFINISEE\_QUERY\_SMILES>  (1403) 
S(c1nc2c(cc1C[NH2+]Cc3ccc(cc3)C[NH+](C)C)cccc2)Cc4ccccc4

>  <s_sd_BIOSOLVEIT.INFINISEE\_REACTION\_NAME>  (1403) 
m_271304bba

>  <s_sd_BIOSOLVEIT.INFINISEE\_REAGENT1\_SMILES>  (1403) 
[R1*]NCc1c(cccc1)CCC(=O)O

>  <s_sd_BIOSOLVEIT.INFINISEE\_REAGENT2\_SMILES>  (1403) 
[R1*]CC=1C(=NN(C1)Cc2ccccc2)c3ccccc3

>  <s_sd_BIOSOLVEIT.INFINISEE\_SPACE>  (1403) 
REALSpace_44bn_2023-08

>  <s_vsw_compound_code>  (1403) 
55074

>  <s_vsw_variant>  (1403) 
55074-1

>  <r_epik_Charging_Adjusted_Penalty>  (1403) 
0.15049463874546101

>  <r_epik_Ionization_Penalty>  (1403) 
0.082100000000000006

>  <r_epik_Ionization_Penalty_Charging>  (1403) 
0.082100000000000006

>  <r_epik_Ionization_Penalty_Neutral>  (1403) 
0

>  <r_epik_State_Penalty>  (1403) 
0.068400000000000002

>  <r_i_docking_score>  (1403) 
-5.0564867163193199

>  <r_i_glide_ecoul>  (1403) 
-10.234794616699199

>  <r_i_glide_eff_state_penalty>  (1403) 
0.068400000000000002

>  <r_i_glide_einternal>  (1403) 
9.9021759033203107

>  <r_i_glide_emodel>  (1403) 
-58.667382263566502

>  <r_i_glide_energy>  (1403) 
-43.378242492675803

>  <r_i_glide_erotb>  (1403) 
0.986041834734114

>  <r_i_glide_esite>  (1403) 
-0.085985219554726794

>  <r_i_glide_evdw>  (1403) 
-33.143447875976598

>  <r_i_glide_gscore>  (1403) 
-5.1248867163193204

>  <r_i_glide_hbond>  (1403) 
-0.34680467392111702

>  <r_i_glide_ligand_efficiency>  (1403) 
-0.158015209884979

>  <r_i_glide_ligand_efficiency_ln>  (1403) 
-1.1322852104060199

>  <r_i_glide_ligand_efficiency_sa>  (1403) 
-0.50166702021723397

>  <r_i_glide_lipo>  (1403) 
-1.88226630863916

>  <r_i_glide_metal>  (1403) 
-0

>  <r_i_glide_rewards>  (1403) 
-0.60348076263471995

>  <r_lp_Energy>  (1403) 
5.6903189999999997

>  <r_lp_tautomer_probability>  (1403) 
1

>  <r_qp_ACxDN^.5/SA>  (1403) 
0.0097470999999999999

>  <r_qp_CIQPlogS>  (1403) 
-6.117

>  <r_qp_EA(eV)>  (1403) 
0.245

>  <r_qp_FISA>  (1403) 
103.922

>  <r_qp_FOSA>  (1403) 
122.22499999999999

>  <r_qp_IP(eV)>  (1403) 
9.0899999999999999

>  <r_qp_Jm>  (1403) 
0.0018070460084333899

>  <r_qp_PISA>  (1403) 
499.30700000000002

>  <r_qp_PSA>  (1403) 
77.683000000000007

>  <r_qp_PercentHumanOralAbsorption>  (1403) 
80.483000000000004

>  <r_qp_QPPCaco>  (1403) 
64.700999999999993

>  <r_qp_QPPMDCK>  (1403) 
36.091000000000001

>  <r_qp_QPlogBB>  (1403) 
-0.60499999999999998

>  <r_qp_QPlogHERG>  (1403) 
-5.71

>  <r_qp_QPlogKhsa>  (1403) 
0.76600000000000001

>  <r_qp_QPlogKp>  (1403) 
-2.8740000000000001

>  <r_qp_QPlogPC16>  (1403) 
15.628

>  <r_qp_QPlogPo/w>  (1403) 
3.6080000000000001

>  <r_qp_QPlogPoct>  (1403) 
22.167999999999999

>  <r_qp_QPlogPw>  (1403) 
11.436999999999999

>  <r_qp_QPlogS>  (1403) 
-5.4980000000000002

>  <r_qp_QPpolrz>  (1403) 
47.646999999999998

>  <r_qp_SASA>  (1403) 
725.45399999999995

>  <r_qp_SAamideO>  (1403) 
0

>  <r_qp_SAfluorine>  (1403) 
0

>  <r_qp_WPSA>  (1403) 
0

>  <r_qp_accptHB>  (1403) 
5

>  <r_qp_dip^2/V>  (1403) 
0.037417800000000001

>  <r_qp_dipole>  (1403) 
7.1589999999999998

>  <r_qp_donorHB>  (1403) 
2

>  <r_qp_glob>  (1403) 
0.82215139999999998

>  <r_qp_mol_MW>  (1403) 
425.529

>  <r_qp_volume>  (1403) 
1369.604

>  <r_sd_BIOSOLVEIT.INFINISEE\_FTREES\_SIMILARITY>  (1403) 
0.90500000000000003

>  <r_sd_BIOSOLVEIT.LOGP>  (1403) 
2.5445000000000002

>  <r_sd_BIOSOLVEIT.MOLECULAR\_WEIGHT>  (1403) 
425.529

>  <r_sd_BIOSOLVEIT.TPSA>  (1403) 
74.560000000000002

>  <i_epik_Tot_Q>  (1403) 
0

>  <i_epik_Tot_abs_Q>  (1403) 
2

>  <i_f3d_flags>  (1403) 
0

>  <i_i_glide_confnum>  (1403) 
4

>  <i_i_glide_lignum>  (1403) 
597

>  <i_i_glide_posenum>  (1403) 
15

>  <i_i_glide_rotatable_bonds>  (1403) 
10

>  <i_lp_mmshare_version>  (1403) 
65135

>  <i_m_ct_format>  (1403) 
2

>  <i_m_source_file_index>  (1403) 
1722

>  <i_qp_#NandO>  (1403) 
5

>  <i_qp_#acid>  (1403) 
1

>  <i_qp_#amide>  (1403) 
0

>  <i_qp_#amidine>  (1403) 
0

>  <i_qp_#amine>  (1403) 
1

>  <i_qp_#in34>  (1403) 
0

>  <i_qp_#in56>  (1403) 
23

>  <i_qp_#metab>  (1403) 
6

>  <i_qp_#nonHatm>  (1403) 
32

>  <i_qp_#noncon>  (1403) 
0

>  <i_qp_#ringatoms>  (1403) 
23

>  <i_qp_#rotor>  (1403) 
9

>  <i_qp_#rtvFG>  (1403) 
0

>  <i_qp_#stars>  (1403) 
1

>  <i_qp_CNS>  (1403) 
0

>  <i_qp_HumanOralAbsorption>  (1403) 
3

>  <i_qp_RuleOfFive>  (1403) 
0

>  <i_qp_RuleOfThree>  (1403) 
0

>  <i_sd_BIOSOLVEIT.INFINISEE\_REAGENT1\_NAME>  (1403) 
14772142

>  <i_sd_BIOSOLVEIT.INFINISEE\_REAGENT2\_NAME>  (1403) 
9305016

>  <i_sd_BIOSOLVEIT.INFINISEE\_RESULT\_RANK>  (1403) 
72958

>  <i_sd_version>  (1403) 
0

>  <b_lp_Chiralities_Consistent>  (1403) 
1

>  <b_sd_chiral_flag>  (1403) 
0

>  <canonical_id>  (1403) 
ATP-HTVS-DD7A369608E2

>  <compound_code>  (1403) 
55074

>  <title>  (1403) 
m_271304bba____14772142____9305016

>  <variant>  (1403) 
55074-1

>  <source_file>  (1403) 
运行/运行/ATP-VSW/ATP-VSW-DOCK_HTVS_1-002_lib.maegz

>  <canonical_smiles>  (1403) 
O=C([O-])CCc1ccccc1C[NH2+]Cc1cn(Cc2ccccc2)nc1-c1ccccc1

>  <scaffold>  (1403) 
c1ccc(C[NH2+]Cc2cn(Cc3ccccc3)nc2-c2ccccc2)cc1

>  <molecular_formula>  (1403) 
C27H27N3O2

$$$$
ATP-HTVS-DDBB6FEB6103
     RDKit          3D

 54 57  0  0  0  0  0  0  0  0999 V2000
  198.3785  178.4651  150.1619 F   0  0  0  0  0  0  0  0  0  0  0  0
  197.8834  179.2457  151.1493 C   0  0  0  0  0  0  0  0  0  0  0  0
  198.4082  179.1398  152.4558 C   0  0  0  0  0  0  0  0  0  0  0  0
  197.9081  179.9371  153.5131 C   0  0  0  0  0  0  0  0  0  0  0  0
  196.8775  180.8535  153.1794 C   0  0  0  0  0  0  0  0  0  0  0  0
  196.5079  181.5597  154.2991 O   0  0  0  0  0  0  0  0  0  0  0  0
  197.2937  181.1120  155.3221 C   0  0  0  0  0  0  0  0  0  0  0  0
  198.1654  180.1217  154.9196 C   0  0  0  0  0  0  0  0  0  0  0  0
  199.1928  179.3762  155.6594 C   0  0  0  0  0  0  0  0  0  0  0  0
  199.3703  177.9915  155.4461 C   0  0  0  0  0  0  0  0  0  0  0  0
  200.3484  177.2668  156.1561 C   0  0  0  0  0  0  0  0  0  0  0  0
  201.1483  177.9227  157.1079 C   0  0  0  0  0  0  0  0  0  0  0  0
  200.9837  179.3027  157.3307 C   0  0  0  0  0  0  0  0  0  0  0  0
  200.0145  180.0267  156.6065 C   0  0  0  0  0  0  0  0  0  0  0  0
  197.0582  181.7561  156.6430 C   0  0  1  0  0  0  0  0  0  0  0  0
  195.6830  181.5349  157.1271 N   0  0  1  0  0  0  0  0  0  0  0  0
  195.5231  181.6709  158.5892 C   0  0  1  0  0  0  0  0  0  0  0  0
  195.6932  183.0894  159.0753 C   0  0  0  0  0  0  0  0  0  0  0  0
  196.9902  183.5895  159.2960 C   0  0  0  0  0  0  0  0  0  0  0  0
  197.1635  184.9036  159.7584 C   0  0  0  0  0  0  0  0  0  0  0  0
  196.0439  185.7419  159.9521 C   0  0  0  0  0  0  0  0  0  0  0  0
  194.7530  185.2160  159.7650 C   0  0  0  0  0  0  0  0  0  0  0  0
  194.5636  183.8972  159.3162 C   0  0  0  0  0  0  0  0  0  0  0  0
  196.2256  187.1864  160.4049 C   0  0  1  0  0  0  0  0  0  0  0  0
  196.8746  188.1348  159.3620 C   0  0  1  0  0  0  0  0  0  0  0  0
  197.1347  189.3685  160.0031 O   0  0  0  0  0  0  0  0  0  0  0  0
  198.1963  187.6630  158.7296 C   0  0  2  0  0  0  0  0  0  0  0  0
  196.3502  180.9885  151.8867 C   0  0  0  0  0  0  0  0  0  0  0  0
  196.8573  180.1698  150.8614 C   0  0  0  0  0  0  0  0  0  0  0  0
  194.9935  182.0757  156.6017 H   0  0  0  0  0  0  0  0  0  0  0  0
  199.2072  178.4381  152.6447 H   0  0  0  0  0  0  0  0  0  0  0  0
  198.7533  177.4589  154.7435 H   0  0  0  0  0  0  0  0  0  0  0  0
  200.4733  176.2093  155.9786 H   0  0  0  0  0  0  0  0  0  0  0  0
  201.9005  177.3770  157.6553 H   0  0  0  0  0  0  0  0  0  0  0  0
  201.5990  179.8078  158.0603 H   0  0  0  0  0  0  0  0  0  0  0  0
  199.9111  181.0857  156.7871 H   0  0  0  0  0  0  0  0  0  0  0  0
  197.7242  181.3134  157.3786 H   0  0  0  0  0  0  0  0  0  0  0  0
  197.2849  182.8229  156.5848 H   0  0  0  0  0  0  0  0  0  0  0  0
  194.5354  181.2961  158.8701 H   0  0  0  0  0  0  0  0  0  0  0  0
  196.2512  181.0363  159.1005 H   0  0  0  0  0  0  0  0  0  0  0  0
  197.8634  182.9774  159.1215 H   0  0  0  0  0  0  0  0  0  0  0  0
  198.1626  185.2434  159.9557 H   0  0  0  0  0  0  0  0  0  0  0  0
  193.8847  185.8261  159.9500 H   0  0  0  0  0  0  0  0  0  0  0  0
  193.5680  183.5057  159.1503 H   0  0  0  0  0  0  0  0  0  0  0  0
  195.2544  187.6040  160.6874 H   0  0  0  0  0  0  0  0  0  0  0  0
  196.7897  187.1600  161.3319 H   0  0  0  0  0  0  0  0  0  0  0  0
  196.1704  188.3098  158.5472 H   0  0  0  0  0  0  0  0  0  0  0  0
  197.7833  189.2420  160.6847 H   0  0  0  0  0  0  0  0  0  0  0  0
  198.0506  186.7745  158.1119 H   0  0  0  0  0  0  0  0  0  0  0  0
  198.9270  187.4211  159.5036 H   0  0  0  0  0  0  0  0  0  0  0  0
  198.6440  188.4223  158.0884 H   0  0  0  0  0  0  0  0  0  0  0  0
  195.5680  181.7093  151.6981 H   0  0  0  0  0  0  0  0  0  0  0  0
  196.4746  180.2524  149.8551 H   0  0  0  0  0  0  0  0  0  0  0  0
  195.5184  180.5319  157.0107 H   0  0  0  0  0  0  0  0  0  0  0  0
  1  2  1  0
  2  3  1  0
  2 29  2  0
  3  4  2  0
  3 31  1  0
  4  5  1  0
  4  8  1  0
  5  6  1  0
  5 28  2  0
  6  7  1  0
  7  8  2  0
  7 15  1  0
  8  9  1  0
  9 10  2  0
  9 14  1  0
 10 11  1  0
 10 32  1  0
 11 12  2  0
 11 33  1  0
 12 13  1  0
 12 34  1  0
 13 14  2  0
 13 35  1  0
 14 36  1  0
 15 16  1  0
 15 37  1  1
 15 38  1  0
 16 17  1  0
 16 30  1  6
 16 54  1  0
 17 18  1  0
 17 39  1  6
 17 40  1  0
 18 19  1  0
 18 23  2  0
 19 20  2  0
 19 41  1  0
 20 21  1  0
 20 42  1  0
 21 22  2  0
 21 24  1  0
 22 23  1  0
 22 43  1  0
 23 44  1  0
 24 25  1  0
 24 45  1  1
 24 46  1  0
 25 26  1  0
 25 27  1  0
 25 47  1  6
 26 48  1  0
 27 49  1  6
 27 50  1  0
 27 51  1  0
 28 29  1  0
 28 52  1  0
 29 53  1  0
M  CHG  1  16   1
M  END
>  <s_epik_cmdline>  (1404) 
J2VwaWtfcHl0aG9uJywgJy1waCcsICc3LjAwMDAwMCcsICctcGh0JywgJzIuMDAwMDAwJywgJy1tcycsICcxNicsICctdG4nLCAnOCcsICctbWEnLCAnMjAwJywgJy1pbWFlJywgJzxpbmZpbGUubWFlPicsICctb21hZScsICc8b3V0ZmlsZS5tYWU+Jw==

>  <s_epik_input>  (1404) 
W2NIXTFbY0hdW2NIXVtjSF1bY0hdYzEtYzJjKG9jKGMyMylbY0hdW2NIXWMoRilbY0hdMylbQ0gyXVtOSF1bQ0gyXWM0W2NIXVtjSF1jKFtjSF1bY0hdNClbQ0gyXVtDQEBIXShbT0hdKVtDSDNd

>  <s_i_glide_gridfile>  (1404) 
ATP-Grid

>  <s_lp_Force_Field>  (1404) 
OPLS_2005

>  <s_lp_Variant>  (1404) 
m_270004bbb____15722580____21435080-2

>  <s_lp_label>  (1404) 
1350_sdstereoexpander_2_neutralizer_1_epik_1_stereoizer_1

>  <s_m_source_file>  (1404) 
ATP-VSW-LIGPREP-002-in.maegz

>  <s_sd_BIOSOLVEIT.INFINISEE\_QUERY\_NAME>  (1404) 
Ref-Lig

>  <s_sd_BIOSOLVEIT.INFINISEE\_QUERY\_SMILES>  (1404) 
S(c1nc2c(cc1C[NH2+]Cc3ccc(cc3)C[NH+](C)C)cccc2)Cc4ccccc4

>  <s_sd_BIOSOLVEIT.INFINISEE\_REACTION\_NAME>  (1404) 
m_270004bbb

>  <s_sd_BIOSOLVEIT.INFINISEE\_REAGENT1\_SMILES>  (1404) 
[R1*]NCC=1Oc2c(cc(F)cc2)C1c3ccccc3

>  <s_sd_BIOSOLVEIT.INFINISEE\_REAGENT2\_SMILES>  (1404) 
[R1*]Cc1ccc(cc1)CC(O)C

>  <s_sd_BIOSOLVEIT.INFINISEE\_SPACE>  (1404) 
REALSpace_44bn_2023-08

>  <s_vsw_compound_code>  (1404) 
43170

>  <s_vsw_variant>  (1404) 
43170-2

>  <r_epik_Charging_Adjusted_Penalty>  (1404) 
0.053392174155867098

>  <r_epik_Ionization_Penalty>  (1404) 
0.026700000000000002

>  <r_epik_Ionization_Penalty_Charging>  (1404) 
0.026700000000000002

>  <r_epik_Ionization_Penalty_Neutral>  (1404) 
0

>  <r_epik_State_Penalty>  (1404) 
0.026700000000000002

>  <r_i_docking_score>  (1404) 
-6.2931884913473199

>  <r_i_glide_ecoul>  (1404) 
-12.5337991714478

>  <r_i_glide_eff_state_penalty>  (1404) 
0.026700000000000002

>  <r_i_glide_einternal>  (1404) 
3.58681321144104

>  <r_i_glide_emodel>  (1404) 
-71.711513416561203

>  <r_i_glide_energy>  (1404) 
-48.056385993957498

>  <r_i_glide_erotb>  (1404) 
0.89549712765026701

>  <r_i_glide_esite>  (1404) 
-0.10000000000000001

>  <r_i_glide_evdw>  (1404) 
-35.522586822509801

>  <r_i_glide_gscore>  (1404) 
-6.3198884913473199

>  <r_i_glide_hbond>  (1404) 
-0.36895635862994602

>  <r_i_glide_ligand_efficiency>  (1404) 
-0.21700649970163199

>  <r_i_glide_ligand_efficiency_ln>  (1404) 
-1.44098058302746

>  <r_i_glide_ligand_efficiency_sa>  (1404) 
-0.66671271956817502

>  <r_i_glide_lipo>  (1404) 
-2.0263580051683601

>  <r_i_glide_metal>  (1404) 
-0

>  <r_i_glide_rewards>  (1404) 
-1.06387203835663

>  <r_lp_Energy>  (1404) 
10.844706

>  <r_qp_ACxDN^.5/SA>  (1404) 
0.0079141999999999997

>  <r_qp_CIQPlogS>  (1404) 
-5.7560000000000002

>  <r_qp_EA(eV)>  (1404) 
0.64800000000000002

>  <r_qp_FISA>  (1404) 
65.073999999999998

>  <r_qp_FOSA>  (1404) 
187.249

>  <r_qp_IP(eV)>  (1404) 
8.9039999999999999

>  <r_qp_Jm>  (1404) 
0.013007297173533499

>  <r_qp_PISA>  (1404) 
361.98200000000003

>  <r_qp_PSA>  (1404) 
43.585999999999999

>  <r_qp_PercentHumanOralAbsorption>  (1404) 
100

>  <r_qp_QPPCaco>  (1404) 
596.63

>  <r_qp_QPPMDCK>  (1404) 
565.60400000000004

>  <r_qp_QPlogBB>  (1404) 
0.035000000000000003

>  <r_qp_QPlogHERG>  (1404) 
-6.6319999999999997

>  <r_qp_QPlogKhsa>  (1404) 
0.85399999999999998

>  <r_qp_QPlogKp>  (1404) 
-2.8340000000000001

>  <r_qp_QPlogPC16>  (1404) 
12.734999999999999

>  <r_qp_QPlogPo/w>  (1404) 
4.8470000000000004

>  <r_qp_QPlogPoct>  (1404) 
18.806999999999999

>  <r_qp_QPlogPw>  (1404) 
9.2609999999999992

>  <r_qp_QPlogS>  (1404) 
-4.6420000000000003

>  <r_qp_QPpolrz>  (1404) 
41.741

>  <r_qp_SASA>  (1404) 
661.16800000000001

>  <r_qp_SAamideO>  (1404) 
0

>  <r_qp_SAfluorine>  (1404) 
46.863999999999997

>  <r_qp_WPSA>  (1404) 
46.863999999999997

>  <r_qp_accptHB>  (1404) 
3.7000000000000002

>  <r_qp_dip^2/V>  (1404) 
0.0025503000000000001

>  <r_qp_dipole>  (1404) 
1.766

>  <r_qp_donorHB>  (1404) 
2

>  <r_qp_glob>  (1404) 
0.83637790000000001

>  <r_qp_mol_MW>  (1404) 
389.46800000000002

>  <r_qp_volume>  (1404) 
1222.713

>  <r_sd_BIOSOLVEIT.INFINISEE\_FTREES\_SIMILARITY>  (1404) 
0.90900000000000003

>  <r_sd_BIOSOLVEIT.LOGP>  (1404) 
4.4257999999999997

>  <r_sd_BIOSOLVEIT.MOLECULAR\_WEIGHT>  (1404) 
390.476

>  <r_sd_BIOSOLVEIT.TPSA>  (1404) 
49.979999999999997

>  <i_epik_Tot_Q>  (1404) 
1

>  <i_epik_Tot_abs_Q>  (1404) 
1

>  <i_f3d_flags>  (1404) 
0

>  <i_i_glide_confnum>  (1404) 
8

>  <i_i_glide_lignum>  (1404) 
472

>  <i_i_glide_posenum>  (1404) 
13

>  <i_i_glide_rotatable_bonds>  (1404) 
8

>  <i_lp_mmshare_version>  (1404) 
65135

>  <i_m_ct_format>  (1404) 
2

>  <i_m_source_file_index>  (1404) 
1350

>  <i_qp_#NandO>  (1404) 
3

>  <i_qp_#acid>  (1404) 
0

>  <i_qp_#amide>  (1404) 
0

>  <i_qp_#amidine>  (1404) 
0

>  <i_qp_#amine>  (1404) 
1

>  <i_qp_#in34>  (1404) 
0

>  <i_qp_#in56>  (1404) 
21

>  <i_qp_#metab>  (1404) 
6

>  <i_qp_#nonHatm>  (1404) 
29

>  <i_qp_#noncon>  (1404) 
0

>  <i_qp_#ringatoms>  (1404) 
21

>  <i_qp_#rotor>  (1404) 
7

>  <i_qp_#rtvFG>  (1404) 
0

>  <i_qp_#stars>  (1404) 
0

>  <i_qp_CNS>  (1404) 
1

>  <i_qp_HumanOralAbsorption>  (1404) 
3

>  <i_qp_RuleOfFive>  (1404) 
0

>  <i_qp_RuleOfThree>  (1404) 
0

>  <i_sd_BIOSOLVEIT.INFINISEE\_REAGENT1\_NAME>  (1404) 
15722580

>  <i_sd_BIOSOLVEIT.INFINISEE\_REAGENT2\_NAME>  (1404) 
21435080

>  <i_sd_BIOSOLVEIT.INFINISEE\_RESULT\_RANK>  (1404) 
49582

>  <i_sd_version>  (1404) 
0

>  <b_lp_Chiralities_Consistent>  (1404) 
1

>  <b_sd_chiral_flag>  (1404) 
0

>  <canonical_id>  (1404) 
ATP-HTVS-DDBB6FEB6103

>  <compound_code>  (1404) 
43170

>  <title>  (1404) 
m_270004bbb____15722580____21435080

>  <variant>  (1404) 
43170-2

>  <source_file>  (1404) 
运行/运行/ATP-VSW/ATP-VSW-DOCK_HTVS_1-002_lib.maegz

>  <canonical_smiles>  (1404) 
C[C@H](O)Cc1ccc(C[NH2+]Cc2oc3ccc(F)cc3c2-c2ccccc2)cc1

>  <scaffold>  (1404) 
c1ccc(C[NH2+]Cc2oc3ccccc3c2-c2ccccc2)cc1

>  <molecular_formula>  (1404) 
C25H25FNO2+

$$$$
ATP-HTVS-DDC2C96F44C1
     RDKit          3D

 51 54  0  0  0  0  0  0  0  0999 V2000
  198.0584  183.8537  159.7154 Cl  0  0  0  0  0  0  0  0  0  0  0  0
  196.4149  183.5365  159.2692 C   0  0  0  0  0  0  0  0  0  0  0  0
  195.3643  184.4662  159.5152 C   0  0  0  0  0  0  0  0  0  0  0  0
  194.0428  184.1123  159.1747 C   0  0  0  0  0  0  0  0  0  0  0  0
  193.7650  182.8910  158.5408 C   0  0  0  0  0  0  0  0  0  0  0  0
  194.8050  181.9837  158.2888 C   0  0  0  0  0  0  0  0  0  0  0  0
  196.1241  182.3006  158.6583 C   0  0  0  0  0  0  0  0  0  0  0  0
  195.5923  185.8189  160.1328 C   0  0  0  0  0  0  0  0  0  0  0  0
  194.8595  186.2032  161.0424 O   0  0  0  0  0  0  0  0  0  0  0  0
  196.5760  186.5502  159.5719 N   0  0  0  0  0  0  0  0  0  0  0  0
  196.9749  187.8961  159.8370 C   0  0  0  0  0  0  0  0  0  0  0  0
  198.0599  188.4429  159.0960 C   0  0  0  0  0  0  0  0  0  0  0  0
  198.7124  187.6363  158.1389 N   0  0  0  0  0  0  0  0  0  0  0  0
  198.2993  187.7726  156.7293 C   0  0  1  0  0  0  0  0  0  0  0  0
  198.9696  188.8997  156.0494 C   0  0  0  0  0  0  0  0  0  0  0  0
  199.4947  189.7642  155.4898 N   0  0  0  0  0  0  0  0  0  0  0  0
  198.4900  186.5200  155.8911 C   0  0  0  0  0  0  0  0  0  0  0  0
  199.7874  186.0484  155.5909 C   0  0  0  0  0  0  0  0  0  0  0  0
  199.9607  184.9119  154.7748 C   0  0  0  0  0  0  0  0  0  0  0  0
  198.8368  184.2601  154.2330 C   0  0  0  0  0  0  0  0  0  0  0  0
  197.5434  184.7401  154.5161 C   0  0  0  0  0  0  0  0  0  0  0  0
  197.3712  185.8632  155.3426 C   0  0  0  0  0  0  0  0  0  0  0  0
  200.0673  187.2267  158.5025 C   0  0  2  0  0  0  0  0  0  0  0  0
  198.4604  189.7875  159.3552 C   0  0  0  0  0  0  0  0  0  0  0  0
  197.7398  190.5551  160.3080 C   0  0  0  0  0  0  0  0  0  0  0  0
  196.7259  189.9830  160.9832 N   0  0  0  0  0  0  0  0  0  0  0  0
  196.3367  188.7071  160.8094 C   0  0  0  0  0  0  0  0  0  0  0  0
  198.0824  191.8978  160.5654 C   0  0  0  0  0  0  0  0  0  0  0  0
  199.1372  192.5050  159.8699 C   0  0  0  0  0  0  0  0  0  0  0  0
  199.8709  191.7576  158.9356 C   0  0  0  0  0  0  0  0  0  0  0  0
  199.5649  190.3994  158.7096 C   0  0  0  0  0  0  0  0  0  0  0  0
  193.2294  184.7903  159.3656 H   0  0  0  0  0  0  0  0  0  0  0  0
  192.7548  182.6511  158.2282 H   0  0  0  0  0  0  0  0  0  0  0  0
  194.5890  181.0522  157.7975 H   0  0  0  0  0  0  0  0  0  0  0  0
  196.9087  181.5870  158.4684 H   0  0  0  0  0  0  0  0  0  0  0  0
  197.1154  186.0756  158.8596 H   0  0  0  0  0  0  0  0  0  0  0  0
  197.2357  188.0272  156.7267 H   0  0  0  0  0  0  0  0  0  0  0  0
  200.6643  186.5452  155.9639 H   0  0  0  0  0  0  0  0  0  0  0  0
  200.9573  184.5547  154.5611 H   0  0  0  0  0  0  0  0  0  0  0  0
  198.9741  183.3974  153.5945 H   0  0  0  0  0  0  0  0  0  0  0  0
  196.6807  184.2453  154.0887 H   0  0  0  0  0  0  0  0  0  0  0  0
  196.3741  186.2341  155.5322 H   0  0  0  0  0  0  0  0  0  0  0  0
  200.3198  187.5024  159.5319 H   0  0  0  0  0  0  0  0  0  0  0  0
  200.7929  187.7032  157.8466 H   0  0  0  0  0  0  0  0  0  0  0  0
  200.1814  186.1450  158.4132 H   0  0  0  0  0  0  0  0  0  0  0  0
  195.5226  188.4096  161.4473 H   0  0  0  0  0  0  0  0  0  0  0  0
  197.5510  192.4759  161.3064 H   0  0  0  0  0  0  0  0  0  0  0  0
  199.4030  193.5337  160.0625 H   0  0  0  0  0  0  0  0  0  0  0  0
  200.6848  192.2084  158.3894 H   0  0  0  0  0  0  0  0  0  0  0  0
  200.2033  189.8519  158.0318 H   0  0  0  0  0  0  0  0  0  0  0  0
  196.2388  190.5348  161.6894 H   0  0  0  0  0  0  0  0  0  0  0  0
  1  2  1  0
  2  3  1  0
  2  7  2  0
  3  4  2  0
  3  8  1  0
  4  5  1  0
  4 32  1  0
  5  6  2  0
  5 33  1  0
  6  7  1  0
  6 34  1  0
  7 35  1  0
  8  9  2  0
  8 10  1  0
 10 11  1  0
 10 36  1  0
 11 12  2  0
 11 27  1  0
 12 13  1  0
 12 24  1  0
 13 14  1  0
 13 23  1  0
 14 15  1  0
 14 17  1  0
 14 37  1  1
 15 16  3  0
 17 18  2  0
 17 22  1  0
 18 19  1  0
 18 38  1  0
 19 20  2  0
 19 39  1  0
 20 21  1  0
 20 40  1  0
 21 22  2  0
 21 41  1  0
 22 42  1  0
 23 43  1  1
 23 44  1  0
 23 45  1  0
 24 25  1  0
 24 31  2  0
 25 26  1  0
 25 28  2  0
 26 27  2  0
 26 51  1  0
 27 46  1  0
 28 29  1  0
 28 47  1  0
 29 30  2  0
 29 48  1  0
 30 31  1  0
 30 49  1  0
 31 50  1  0
M  CHG  1  26   1
M  END
>  <s_epik_cmdline>  (1405) 
J2VwaWtfcHl0aG9uJywgJy1waCcsICc3LjAwMDAwMCcsICctcGh0JywgJzIuMDAwMDAwJywgJy1tcycsICcxNicsICctdG4nLCAnOCcsICctbWEnLCAnMjAwJywgJy1pbWFlJywgJzxpbmZpbGUubWFlPicsICctb21hZScsICc8b3V0ZmlsZS5tYWU+Jw==

>  <s_epik_input>  (1405) 
W2NIXTFbY0hdW2NIXVtjSF1jKGMxQ2wpQyg9TylbTkhdYyhbY0hdbmMoYzIzKVtjSF1bY0hdW2NIXVtjSF0zKWMyTihbQ0gzXSlbQ0BASF0oQyNOKWM0W2NIXVtjSF1bY0hdW2NIXVtjSF00

>  <s_i_glide_gridfile>  (1405) 
ATP-Grid

>  <s_lp_Force_Field>  (1405) 
OPLS_2005

>  <s_lp_Variant>  (1405) 
rxn502b____EMOL480988____EMOL30488121____EMOL24630243-1

>  <s_lp_label>  (1405) 
2468_sdstereoexpander_1_neutralizer_1_epik_1_stereoizer_1

>  <s_m_source_file>  (1405) 
ATP-VSW-LIGPREP-003-in.maegz

>  <s_sd_BIOSOLVEIT.INFINISEE\_QUERY\_NAME>  (1405) 
Ref-Lig

>  <s_sd_BIOSOLVEIT.INFINISEE\_QUERY\_SMILES>  (1405) 
S(c1nc2c(cc1C[NH2+]Cc3ccc(cc3)C[NH+](C)C)cccc2)Cc4ccccc4

>  <s_sd_BIOSOLVEIT.INFINISEE\_REACTION\_NAME>  (1405) 
rxn502b

>  <s_sd_BIOSOLVEIT.INFINISEE\_REAGENT1\_NAME>  (1405) 
EMOL480988

>  <s_sd_BIOSOLVEIT.INFINISEE\_REAGENT1\_SMILES>  (1405) 
Clc1c(cccc1)C(=O)O

>  <s_sd_BIOSOLVEIT.INFINISEE\_REAGENT2\_NAME>  (1405) 
EMOL30488121

>  <s_sd_BIOSOLVEIT.INFINISEE\_REAGENT2\_SMILES>  (1405) 
Brc1c(N)cnc2c1cccc2

>  <s_sd_BIOSOLVEIT.INFINISEE\_REAGENT3\_NAME>  (1405) 
EMOL24630243

>  <s_sd_BIOSOLVEIT.INFINISEE\_REAGENT3\_SMILES>  (1405) 
N#CC(NC)c1ccccc1

>  <s_sd_BIOSOLVEIT.INFINISEE\_SPACE>  (1405) 
eXplore_7tr_2022-12

>  <s_vsw_compound_code>  (1405) 
78947

>  <s_vsw_variant>  (1405) 
78947-1

>  <r_epik_Charging_Adjusted_Penalty>  (1405) 
0.24711713607581701

>  <r_epik_Ionization_Penalty>  (1405) 
0.1237

>  <r_epik_Ionization_Penalty_Charging>  (1405) 
0.1236

>  <r_epik_Ionization_Penalty_Neutral>  (1405) 
0.0001

>  <r_epik_State_Penalty>  (1405) 
0.1236

>  <r_i_docking_score>  (1405) 
-4.0020476853332001

>  <r_i_glide_ecoul>  (1405) 
-4.0019073486328098

>  <r_i_glide_eff_state_penalty>  (1405) 
0.1236

>  <r_i_glide_einternal>  (1405) 
1.61446332931519

>  <r_i_glide_emodel>  (1405) 
-51.552888750622799

>  <r_i_glide_energy>  (1405) 
-39.552036285400398

>  <r_i_glide_erotb>  (1405) 
0.650749481362773

>  <r_i_glide_esite>  (1405) 
-0.022036662010942801

>  <r_i_glide_evdw>  (1405) 
-35.550128936767599

>  <r_i_glide_gscore>  (1405) 
-4.1256476853331998

>  <r_i_glide_hbond>  (1405) 
0

>  <r_i_glide_ligand_efficiency>  (1405) 
-0.129098312430103

>  <r_i_glide_ligand_efficiency_ln>  (1405) 
-0.90258440107472104

>  <r_i_glide_ligand_efficiency_sa>  (1405) 
-0.40554694046009099

>  <r_i_glide_lipo>  (1405) 
-1.21080018970031

>  <r_i_glide_metal>  (1405) 
-0

>  <r_i_glide_rewards>  (1405) 
-1.1657677658514201

>  <r_lp_Energy>  (1405) 
40.591419000000002

>  <r_qp_ACxDN^.5/SA>  (1405) 
0.0091351000000000002

>  <r_qp_CIQPlogS>  (1405) 
-7.8129999999999997

>  <r_qp_EA(eV)>  (1405) 
1.2090000000000001

>  <r_qp_FISA>  (1405) 
109.447

>  <r_qp_FOSA>  (1405) 
58.073999999999998

>  <r_qp_IP(eV)>  (1405) 
8.8100000000000005

>  <r_qp_Jm>  (1405) 
0.0097118002530070004

>  <r_qp_PISA>  (1405) 
444.98200000000003

>  <r_qp_PSA>  (1405) 
67.960999999999999

>  <r_qp_PercentHumanOralAbsorption>  (1405) 
100

>  <r_qp_QPPCaco>  (1405) 
907.846

>  <r_qp_QPPMDCK>  (1405) 
779.24800000000005

>  <r_qp_QPlogBB>  (1405) 
-0.68600000000000005

>  <r_qp_QPlogHERG>  (1405) 
-5.9889999999999999

>  <r_qp_QPlogKhsa>  (1405) 
0.60699999999999998

>  <r_qp_QPlogKp>  (1405) 
-1.393

>  <r_qp_QPlogPC16>  (1405) 
14.298999999999999

>  <r_qp_QPlogPo/w>  (1405) 
4.585

>  <r_qp_QPlogPoct>  (1405) 
19.992000000000001

>  <r_qp_QPlogPw>  (1405) 
11.138

>  <r_qp_QPlogS>  (1405) 
-6.25

>  <r_qp_QPpolrz>  (1405) 
44.383000000000003

>  <r_qp_SASA>  (1405) 
656.80999999999995

>  <r_qp_SAamideO>  (1405) 
0

>  <r_qp_SAfluorine>  (1405) 
0

>  <r_qp_WPSA>  (1405) 
44.305999999999997

>  <r_qp_accptHB>  (1405) 
6

>  <r_qp_dip^2/V>  (1405) 
0.0032810000000000001

>  <r_qp_dipole>  (1405) 
2.0270000000000001

>  <r_qp_donorHB>  (1405) 
1

>  <r_qp_glob>  (1405) 
0.8557169

>  <r_qp_mol_MW>  (1405) 
426.904

>  <r_qp_volume>  (1405) 
1252.873

>  <r_sd_BIOSOLVEIT.INFINISEE\_FTREES\_SIMILARITY>  (1405) 
0.91500000000000004

>  <r_sd_BIOSOLVEIT.LOGP>  (1405) 
5.8415800000000004

>  <r_sd_BIOSOLVEIT.MOLECULAR\_WEIGHT>  (1405) 
426.90499999999997

>  <r_sd_BIOSOLVEIT.TPSA>  (1405) 
69.019999999999996

>  <i_epik_Tot_Q>  (1405) 
1

>  <i_epik_Tot_abs_Q>  (1405) 
1

>  <i_f3d_flags>  (1405) 
0

>  <i_i_glide_confnum>  (1405) 
2

>  <i_i_glide_lignum>  (1405) 
1060

>  <i_i_glide_posenum>  (1405) 
15

>  <i_i_glide_rotatable_bonds>  (1405) 
6

>  <i_lp_mmshare_version>  (1405) 
65135

>  <i_m_ct_format>  (1405) 
2

>  <i_m_source_file_index>  (1405) 
2468

>  <i_qp_#NandO>  (1405) 
5

>  <i_qp_#acid>  (1405) 
0

>  <i_qp_#amide>  (1405) 
0

>  <i_qp_#amidine>  (1405) 
0

>  <i_qp_#amine>  (1405) 
0

>  <i_qp_#in34>  (1405) 
0

>  <i_qp_#in56>  (1405) 
22

>  <i_qp_#metab>  (1405) 
4

>  <i_qp_#nonHatm>  (1405) 
31

>  <i_qp_#noncon>  (1405) 
0

>  <i_qp_#ringatoms>  (1405) 
22

>  <i_qp_#rotor>  (1405) 
6

>  <i_qp_#rtvFG>  (1405) 
0

>  <i_qp_#stars>  (1405) 
0

>  <i_qp_CNS>  (1405) 
0

>  <i_qp_HumanOralAbsorption>  (1405) 
1

>  <i_qp_RuleOfFive>  (1405) 
0

>  <i_qp_RuleOfThree>  (1405) 
1

>  <i_sd_BIOSOLVEIT.INFINISEE\_RESULT\_RANK>  (1405) 
27580

>  <i_sd_version>  (1405) 
0

>  <b_lp_Chiralities_Consistent>  (1405) 
1

>  <b_sd_chiral_flag>  (1405) 
0

>  <canonical_id>  (1405) 
ATP-HTVS-DDC2C96F44C1

>  <compound_code>  (1405) 
78947

>  <title>  (1405) 
rxn502b____EMOL480988____EMOL30488121____EMOL24630243

>  <variant>  (1405) 
78947-1

>  <source_file>  (1405) 
运行/运行/ATP-VSW/ATP-VSW-DOCK_HTVS_1-003_lib/ATP-VSW-DOCK_HTVS_1-003_lib.mae

>  <canonical_smiles>  (1405) 
CN(c1c(NC(=O)c2ccccc2Cl)c[nH+]c2ccccc12)[C@@H](C#N)c1ccccc1

>  <scaffold>  (1405) 
O=C(Nc1c[nH+]c2ccccc2c1NCc1ccccc1)c1ccccc1

>  <molecular_formula>  (1405) 
C25H20ClN4O+

$$$$
ATP-HTVS-DDCEA98BB6BE
     RDKit          3D

 67 70  0  0  0  0  0  0  0  0999 V2000
  198.9186  176.2771  148.3918 F   0  0  0  0  0  0  0  0  0  0  0  0
  198.3221  177.2595  149.1086 C   0  0  0  0  0  0  0  0  0  0  0  0
  198.5923  177.4128  150.4855 C   0  0  0  0  0  0  0  0  0  0  0  0
  199.5193  176.5191  151.1608 C   0  0  0  0  0  0  0  0  0  0  0  0
  200.2542  175.8065  151.7015 N   0  0  0  0  0  0  0  0  0  0  0  0
  197.9451  178.4278  151.2172 C   0  0  0  0  0  0  0  0  0  0  0  0
  197.0193  179.2852  150.5786 C   0  0  0  0  0  0  0  0  0  0  0  0
  196.7613  179.1347  149.2025 C   0  0  0  0  0  0  0  0  0  0  0  0
  197.4130  178.1254  148.4693 C   0  0  0  0  0  0  0  0  0  0  0  0
  196.3350  180.3854  151.3580 C   0  0  1  0  0  0  0  0  0  0  0  0
  197.3138  181.5699  151.4824 C   0  0  0  0  0  0  0  0  0  0  0  0
  198.3486  181.4489  152.0967 O   0  0  0  0  0  0  0  0  0  0  0  0
  196.9644  182.6897  150.7955 N   0  0  0  0  0  0  0  0  0  0  0  0
  197.7720  183.8570  150.7045 C   0  0  0  0  0  0  0  0  0  0  0  0
  198.0869  184.6442  151.8438 C   0  0  0  0  0  0  0  0  0  0  0  0
  197.6090  184.3006  153.1178 N   0  0  0  0  0  0  0  0  0  0  0  0
  198.4855  184.4876  154.2622 C   0  0  1  0  0  0  0  0  0  0  0  0
  198.1695  183.5617  155.4263 C   0  0  0  0  0  0  0  0  0  0  0  0
  198.1367  184.0720  156.7339 C   0  0  0  0  0  0  0  0  0  0  0  0
  197.8069  183.2275  157.8233 C   0  0  0  0  0  0  0  0  0  0  0  0
  197.5409  181.8575  157.5960 C   0  0  0  0  0  0  0  0  0  0  0  0
  197.6156  181.3400  156.2981 C   0  0  0  0  0  0  0  0  0  0  0  0
  197.9238  182.1755  155.1896 C   0  0  0  0  0  0  0  0  0  0  0  0
  197.6753  183.7973  159.2318 C   0  0  1  0  0  0  0  0  0  0  0  0
  196.4067  184.5065  159.4962 N   0  0  0  0  0  0  0  0  0  0  0  0
  195.2911  183.5654  159.3183 C   0  0  1  0  0  0  0  0  0  0  0  0
  193.9208  184.2070  159.5655 C   0  0  2  0  0  0  0  0  0  0  0  0
  196.2682  185.7284  158.6859 C   0  0  1  0  0  0  0  0  0  0  0  0
  197.3057  186.7940  159.0682 C   0  0  2  0  0  0  0  0  0  0  0  0
  198.8893  185.7894  151.6397 C   0  0  0  0  0  0  0  0  0  0  0  0
  199.3571  186.1788  150.4342 N   0  0  0  0  0  0  0  0  0  0  0  0
  199.0534  185.4371  149.3507 C   0  0  0  0  0  0  0  0  0  0  0  0
  198.2522  184.2665  149.4352 C   0  0  0  0  0  0  0  0  0  0  0  0
  197.9686  183.5270  148.2630 C   0  0  0  0  0  0  0  0  0  0  0  0
  198.4538  183.9436  147.0095 C   0  0  0  0  0  0  0  0  0  0  0  0
  199.2347  185.1038  146.9181 C   0  0  0  0  0  0  0  0  0  0  0  0
  199.5390  185.8365  148.0816 C   0  0  0  0  0  0  0  0  0  0  0  0
  198.1577  178.5608  152.2685 H   0  0  0  0  0  0  0  0  0  0  0  0
  196.0674  179.7969  148.7043 H   0  0  0  0  0  0  0  0  0  0  0  0
  197.2039  178.0030  147.4168 H   0  0  0  0  0  0  0  0  0  0  0  0
  195.4093  180.6698  150.8672 H   0  0  0  0  0  0  0  0  0  0  0  0
  196.0593  180.0300  152.3493 H   0  0  0  0  0  0  0  0  0  0  0  0
  196.2048  182.6211  150.1464 H   0  0  0  0  0  0  0  0  0  0  0  0
  197.0258  183.4800  153.1753 H   0  0  0  0  0  0  0  0  0  0  0  0
  199.5172  184.3076  153.9725 H   0  0  0  0  0  0  0  0  0  0  0  0
  198.4201  185.5291  154.5839 H   0  0  0  0  0  0  0  0  0  0  0  0
  198.3248  185.1252  156.8982 H   0  0  0  0  0  0  0  0  0  0  0  0
  197.2538  181.2059  158.4148 H   0  0  0  0  0  0  0  0  0  0  0  0
  197.4207  180.2962  156.1319 H   0  0  0  0  0  0  0  0  0  0  0  0
  197.9607  181.7519  154.1933 H   0  0  0  0  0  0  0  0  0  0  0  0
  197.7969  182.9767  159.9487 H   0  0  0  0  0  0  0  0  0  0  0  0
  198.5408  184.4500  159.4035 H   0  0  0  0  0  0  0  0  0  0  0  0
  195.2681  183.1473  158.3139 H   0  0  0  0  0  0  0  0  0  0  0  0
  195.4312  182.7274  160.0093 H   0  0  0  0  0  0  0  0  0  0  0  0
  193.1149  183.4695  159.4765 H   0  0  0  0  0  0  0  0  0  0  0  0
  193.7199  184.9332  158.8124 H   0  0  0  0  0  0  0  0  0  0  0  0
  193.8690  184.7004  160.5303 H   0  0  0  0  0  0  0  0  0  0  0  0
  196.2936  185.4993  157.6195 H   0  0  0  0  0  0  0  0  0  0  0  0
  195.3049  186.2078  158.8579 H   0  0  0  0  0  0  0  0  0  0  0  0
  197.1200  187.7013  158.4933 H   0  0  0  0  0  0  0  0  0  0  0  0
  198.3355  186.4966  158.8734 H   0  0  0  0  0  0  0  0  0  0  0  0
  197.2134  187.0436  160.1266 H   0  0  0  0  0  0  0  0  0  0  0  0
  199.1532  186.4386  152.4626 H   0  0  0  0  0  0  0  0  0  0  0  0
  197.3753  182.6334  148.3103 H   0  0  0  0  0  0  0  0  0  0  0  0
  198.2254  183.3687  146.1230 H   0  0  0  0  0  0  0  0  0  0  0  0
  199.6056  185.4327  145.9566 H   0  0  0  0  0  0  0  0  0  0  0  0
  200.1351  186.7314  148.0050 H   0  0  0  0  0  0  0  0  0  0  0  0
  1  2  1  0
  2  3  2  0
  2  9  1  0
  3  4  1  0
  3  6  1  0
  4  5  3  0
  6  7  2  0
  6 38  1  0
  7  8  1  0
  7 10  1  0
  8  9  2  0
  8 39  1  0
  9 40  1  0
 10 11  1  0
 10 41  1  6
 10 42  1  0
 11 12  2  0
 11 13  1  0
 13 14  1  0
 13 43  1  0
 14 15  2  0
 14 33  1  0
 15 16  1  0
 15 30  1  0
 16 17  1  0
 16 44  1  0
 17 18  1  0
 17 45  1  6
 17 46  1  0
 18 19  2  0
 18 23  1  0
 19 20  1  0
 19 47  1  0
 20 21  2  0
 20 24  1  0
 21 22  1  0
 21 48  1  0
 22 23  2  0
 22 49  1  0
 23 50  1  0
 24 25  1  0
 24 51  1  1
 24 52  1  0
 25 26  1  0
 25 28  1  0
 26 27  1  0
 26 53  1  6
 26 54  1  0
 27 55  1  1
 27 56  1  0
 27 57  1  0
 28 29  1  0
 28 58  1  6
 28 59  1  0
 29 60  1  6
 29 61  1  0
 29 62  1  0
 30 31  2  0
 30 63  1  0
 31 32  1  0
 32 33  1  0
 32 37  2  0
 33 34  2  0
 34 35  1  0
 34 64  1  0
 35 36  2  0
 35 65  1  0
 36 37  1  0
 36 66  1  0
 37 67  1  0
M  END
>  <s_epik_cmdline>  (1406) 
J2VwaWtfcHl0aG9uJywgJy1waCcsICc3LjAwMDAwMCcsICctcGh0JywgJzIuMDAwMDAwJywgJy1tcycsICcxNicsICctdG4nLCAnOCcsICctbWEnLCAnMjAwJywgJy1pbWFlJywgJzxpbmZpbGUubWFlPicsICctb21hZScsICc8b3V0ZmlsZS5tYWU+Jw==

>  <s_epik_input>  (1406) 
RmMxYyhDI04pW2NIXWMoW2NIXVtjSF0xKVtDSDJdQyg9TylbTkhdYyhjKGMyMylbY0hdW2NIXVtjSF1bY0hdMyljKFtjSF1uMilbTkhdW0NIMl1jNFtjSF1jKFtjSF1bY0hdW2NIXTQpW0NIMl1OKFtDSDJdW0NIM10pW0NIMl1bQ0gzXQ==

>  <s_i_glide_gridfile>  (1406) 
ATP-Grid

>  <s_lp_Force_Field>  (1406) 
OPLS_2005

>  <s_lp_Variant>  (1406) 
rxn502b____EMOL44690203____EMOL13728749____EMOL44153840-2

>  <s_lp_label>  (1406) 
2550_sdstereoexpander_1_neutralizer_1_epik_2_stereoizer_1

>  <s_m_source_file>  (1406) 
ATP-VSW-LIGPREP-001-in.maegz

>  <s_sd_BIOSOLVEIT.INFINISEE\_QUERY\_NAME>  (1406) 
Ref-Lig

>  <s_sd_BIOSOLVEIT.INFINISEE\_QUERY\_SMILES>  (1406) 
S(c1nc2c(cc1C[NH2+]Cc3ccc(cc3)C[NH+](C)C)cccc2)Cc4ccccc4

>  <s_sd_BIOSOLVEIT.INFINISEE\_REACTION\_NAME>  (1406) 
rxn502b

>  <s_sd_BIOSOLVEIT.INFINISEE\_REAGENT1\_NAME>  (1406) 
EMOL44690203

>  <s_sd_BIOSOLVEIT.INFINISEE\_REAGENT1\_SMILES>  (1406) 
Fc1c(C#N)cc(cc1)CC(=O)O

>  <s_sd_BIOSOLVEIT.INFINISEE\_REAGENT2\_NAME>  (1406) 
EMOL13728749

>  <s_sd_BIOSOLVEIT.INFINISEE\_REAGENT2\_SMILES>  (1406) 
Brc1c(N)c2c(nc1)cccc2

>  <s_sd_BIOSOLVEIT.INFINISEE\_REAGENT3\_NAME>  (1406) 
EMOL44153840

>  <s_sd_BIOSOLVEIT.INFINISEE\_REAGENT3\_SMILES>  (1406) 
N(Cc1cc(ccc1)CN)(CC)CC

>  <s_sd_BIOSOLVEIT.INFINISEE\_SPACE>  (1406) 
eXplore_7tr_2022-12

>  <s_vsw_compound_code>  (1406) 
81569

>  <s_vsw_variant>  (1406) 
81569-2

>  <r_epik_Charging_Adjusted_Penalty>  (1406) 
2.0980802955973901

>  <r_epik_Ionization_Penalty>  (1406) 
2.0981000000000001

>  <r_epik_Ionization_Penalty_Charging>  (1406) 
0

>  <r_epik_Ionization_Penalty_Neutral>  (1406) 
2.0981000000000001

>  <r_epik_State_Penalty>  (1406) 
2.0981000000000001

>  <r_i_docking_score>  (1406) 
-2.1939151195008302

>  <r_i_glide_ecoul>  (1406) 
-2.0257120132446298

>  <r_i_glide_eff_state_penalty>  (1406) 
2.0981000000000001

>  <r_i_glide_einternal>  (1406) 
3.0454366207122798

>  <r_i_glide_emodel>  (1406) 
-50.756067069315201

>  <r_i_glide_energy>  (1406) 
-40.318745613098102

>  <r_i_glide_erotb>  (1406) 
0.74702967543385901

>  <r_i_glide_esite>  (1406) 
-0.017661418041182399

>  <r_i_glide_evdw>  (1406) 
-38.293033599853501

>  <r_i_glide_gscore>  (1406) 
-4.2920151195008298

>  <r_i_glide_hbond>  (1406) 
0

>  <r_i_glide_ligand_efficiency>  (1406) 
-0.059295003229752098

>  <r_i_glide_ligand_efficiency_ln>  (1406) 
-0.47580875675201101

>  <r_i_glide_ligand_efficiency_sa>  (1406) 
-0.197584105217777

>  <r_i_glide_lipo>  (1406) 
-2.3647392291783098

>  <r_i_glide_metal>  (1406) 
-0

>  <r_i_glide_rewards>  (1406) 
-0.43813566573582002

>  <r_lp_Energy>  (1406) 
35.462727000000001

>  <r_qp_ACxDN^.5/SA>  (1406) 
0.0141488

>  <r_qp_CIQPlogS>  (1406) 
-7.306

>  <r_qp_EA(eV)>  (1406) 
1.0860000000000001

>  <r_qp_FISA>  (1406) 
107.19499999999999

>  <r_qp_FOSA>  (1406) 
251.25800000000001

>  <r_qp_IP(eV)>  (1406) 
8.4100000000000001

>  <r_qp_Jm>  (1406) 
0.00043409728196865197

>  <r_qp_PISA>  (1406) 
399.55599999999998

>  <r_qp_PSA>  (1406) 
84.569999999999993

>  <r_qp_PercentHumanOralAbsorption>  (1406) 
100

>  <r_qp_QPPCaco>  (1406) 
237.83099999999999

>  <r_qp_QPPMDCK>  (1406) 
195.88900000000001

>  <r_qp_QPlogBB>  (1406) 
-0.69699999999999995

>  <r_qp_QPlogHERG>  (1406) 
-7.2919999999999998

>  <r_qp_QPlogKhsa>  (1406) 
0.72599999999999998

>  <r_qp_QPlogKp>  (1406) 
-3.0939999999999999

>  <r_qp_QPlogPC16>  (1406) 
16.251000000000001

>  <r_qp_QPlogPo/w>  (1406) 
4.8330000000000002

>  <r_qp_QPlogPoct>  (1406) 
25.199999999999999

>  <r_qp_QPlogPw>  (1406) 
13.488

>  <r_qp_QPlogS>  (1406) 
-5.9630000000000001

>  <r_qp_QPpolrz>  (1406) 
52.240000000000002

>  <r_qp_SASA>  (1406) 
799.62300000000005

>  <r_qp_SAamideO>  (1406) 
0

>  <r_qp_SAfluorine>  (1406) 
41.613999999999997

>  <r_qp_WPSA>  (1406) 
41.613999999999997

>  <r_qp_accptHB>  (1406) 
8

>  <r_qp_dip^2/V>  (1406) 
0.023591500000000001

>  <r_qp_dipole>  (1406) 
6.0279999999999996

>  <r_qp_donorHB>  (1406) 
2

>  <r_qp_glob>  (1406) 
0.80663499999999999

>  <r_qp_mol_MW>  (1406) 
495.59800000000001

>  <r_qp_volume>  (1406) 
1540.2660000000001

>  <r_sd_BIOSOLVEIT.INFINISEE\_FTREES\_SIMILARITY>  (1406) 
0.91300000000000003

>  <r_sd_BIOSOLVEIT.LOGP>  (1406) 
4.4635800000000003

>  <r_sd_BIOSOLVEIT.MOLECULAR\_WEIGHT>  (1406) 
496.60700000000003

>  <r_sd_BIOSOLVEIT.TPSA>  (1406) 
82.25

>  <i_epik_Tot_Q>  (1406) 
0

>  <i_epik_Tot_abs_Q>  (1406) 
0

>  <i_f3d_flags>  (1406) 
0

>  <i_i_glide_confnum>  (1406) 
13

>  <i_i_glide_lignum>  (1406) 
1022

>  <i_i_glide_posenum>  (1406) 
4

>  <i_i_glide_rotatable_bonds>  (1406) 
11

>  <i_lp_mmshare_version>  (1406) 
65135

>  <i_m_ct_format>  (1406) 
2

>  <i_m_source_file_index>  (1406) 
2550

>  <i_qp_#NandO>  (1406) 
6

>  <i_qp_#acid>  (1406) 
0

>  <i_qp_#amide>  (1406) 
0

>  <i_qp_#amidine>  (1406) 
0

>  <i_qp_#amine>  (1406) 
1

>  <i_qp_#in34>  (1406) 
0

>  <i_qp_#in56>  (1406) 
22

>  <i_qp_#metab>  (1406) 
7

>  <i_qp_#nonHatm>  (1406) 
37

>  <i_qp_#noncon>  (1406) 
0

>  <i_qp_#ringatoms>  (1406) 
22

>  <i_qp_#rotor>  (1406) 
11

>  <i_qp_#rtvFG>  (1406) 
0

>  <i_qp_#stars>  (1406) 
0

>  <i_qp_CNS>  (1406) 
1

>  <i_qp_HumanOralAbsorption>  (1406) 
3

>  <i_qp_RuleOfFive>  (1406) 
0

>  <i_qp_RuleOfThree>  (1406) 
2

>  <i_sd_BIOSOLVEIT.INFINISEE\_RESULT\_RANK>  (1406) 
35671

>  <i_sd_version>  (1406) 
0

>  <b_lp_Chiralities_Consistent>  (1406) 
1

>  <b_sd_chiral_flag>  (1406) 
0

>  <canonical_id>  (1406) 
ATP-HTVS-DDCEA98BB6BE

>  <compound_code>  (1406) 
81569

>  <title>  (1406) 
rxn502b____EMOL44690203____EMOL13728749____EMOL44153840

>  <variant>  (1406) 
81569-2

>  <source_file>  (1406) 
运行/运行/ATP-VSW/ATP-VSW-DOCK_HTVS_1-001_lib/ATP-VSW-DOCK_HTVS_1-001_lib

>  <canonical_smiles>  (1406) 
CCN(CC)Cc1cccc(CNc2cnc3ccccc3c2NC(=O)Cc2ccc(F)c(C#N)c2)c1

>  <scaffold>  (1406) 
O=C(Cc1ccccc1)Nc1c(NCc2ccccc2)cnc2ccccc12

>  <molecular_formula>  (1406) 
C30H30FN5O

$$$$
ATP-HTVS-DDD75C103081
     RDKit          3D

 60 62  0  0  0  0  0  0  0  0999 V2000
  204.7964  174.3310  154.5132 Cl  0  0  0  0  0  0  0  0  0  0  0  0
  203.5145  175.4200  154.9055 C   0  0  0  0  0  0  0  0  0  0  0  0
  202.5663  175.0795  155.8956 C   0  0  0  0  0  0  0  0  0  0  0  0
  201.5475  175.9886  156.2339 C   0  0  0  0  0  0  0  0  0  0  0  0
  201.4693  177.2408  155.5873 C   0  0  0  0  0  0  0  0  0  0  0  0
  202.4132  177.5652  154.5873 C   0  0  0  0  0  0  0  0  0  0  0  0
  203.4393  176.6668  154.2491 C   0  0  0  0  0  0  0  0  0  0  0  0
  200.3675  178.2433  155.9459 C   0  0  2  0  0  0  0  0  0  0  0  0
  200.5639  178.8470  157.3663 C   0  0  1  0  0  0  0  0  0  0  0  0
  201.2818  180.1558  157.3660 N   0  0  2  0  0  0  0  0  0  0  0  0
  200.7299  181.2016  156.4641 C   0  0  2  0  0  0  0  0  0  0  0  0
  202.7426  180.0297  157.2284 C   0  0  2  0  0  0  0  0  0  0  0  0
  198.9579  177.6082  155.7478 C   0  0  1  0  0  0  0  0  0  0  0  0
  197.8680  178.6103  155.7212 N   0  0  1  0  0  0  0  0  0  0  0  0
  198.0637  179.7843  154.8192 C   0  0  1  0  0  0  0  0  0  0  0  0
  198.0475  179.4138  153.3443 C   0  0  0  0  0  0  0  0  0  0  0  0
  196.9159  179.6529  152.5542 C   0  0  0  0  0  0  0  0  0  0  0  0
  196.8643  179.3444  151.2474 N   0  0  0  0  0  0  0  0  0  0  0  0
  197.9415  178.7632  150.6501 C   0  0  0  0  0  0  0  0  0  0  0  0
  197.8519  178.4366  149.2886 N   0  0  0  0  0  0  0  0  0  0  0  0
  198.7078  177.5802  148.5620 C   0  0  0  0  0  0  0  0  0  0  0  0
  199.1300  177.9059  147.2522 C   0  0  0  0  0  0  0  0  0  0  0  0
  199.9526  177.0227  146.5300 C   0  0  0  0  0  0  0  0  0  0  0  0
  200.3807  175.8182  147.1144 C   0  0  0  0  0  0  0  0  0  0  0  0
  199.9795  175.4917  148.4226 C   0  0  0  0  0  0  0  0  0  0  0  0
  199.1375  176.3636  149.1386 C   0  0  0  0  0  0  0  0  0  0  0  0
  196.8345  179.1697  148.5406 C   0  0  2  0  0  0  0  0  0  0  0  0
  199.1296  178.5094  151.3717 C   0  0  0  0  0  0  0  0  0  0  0  0
  199.1787  178.8315  152.7290 C   0  0  0  0  0  0  0  0  0  0  0  0
  197.0073  178.1514  155.4986 H   0  0  0  0  0  0  0  0  0  0  0  0
  202.6433  174.1234  156.4061 H   0  0  0  0  0  0  0  0  0  0  0  0
  200.8318  175.7173  156.9952 H   0  0  0  0  0  0  0  0  0  0  0  0
  202.3609  178.5157  154.0810 H   0  0  0  0  0  0  0  0  0  0  0  0
  204.1675  176.9479  153.5030 H   0  0  0  0  0  0  0  0  0  0  0  0
  200.4690  179.0676  155.2375 H   0  0  0  0  0  0  0  0  0  0  0  0
  199.5941  179.0085  157.8132 H   0  0  0  0  0  0  0  0  0  0  0  0
  201.0534  178.1444  158.0415 H   0  0  0  0  0  0  0  0  0  0  0  0
  200.8532  180.9180  155.4231 H   0  0  0  0  0  0  0  0  0  0  0  0
  201.2134  182.1767  156.6290 H   0  0  0  0  0  0  0  0  0  0  0  0
  199.6722  181.3454  156.6601 H   0  0  0  0  0  0  0  0  0  0  0  0
  203.0081  179.5676  156.2768 H   0  0  0  0  0  0  0  0  0  0  0  0
  203.1295  179.4383  158.0508 H   0  0  0  0  0  0  0  0  0  0  0  0
  203.2050  181.0207  157.2553 H   0  0  0  0  0  0  0  0  0  0  0  0
  198.9425  177.0300  154.8331 H   0  0  0  0  0  0  0  0  0  0  0  0
  198.7497  176.8849  156.5269 H   0  0  0  0  0  0  0  0  0  0  0  0
  197.2566  180.5190  155.0069 H   0  0  0  0  0  0  0  0  0  0  0  0
  199.0448  180.2691  154.9569 H   0  0  0  0  0  0  0  0  0  0  0  0
  196.0392  180.1083  152.9867 H   0  0  0  0  0  0  0  0  0  0  0  0
  198.8341  178.8311  146.7805 H   0  0  0  0  0  0  0  0  0  0  0  0
  200.2473  177.2716  145.5207 H   0  0  0  0  0  0  0  0  0  0  0  0
  201.0149  175.1427  146.5589 H   0  0  0  0  0  0  0  0  0  0  0  0
  200.3116  174.5743  148.8827 H   0  0  0  0  0  0  0  0  0  0  0  0
  198.8293  176.0863  150.1362 H   0  0  0  0  0  0  0  0  0  0  0  0
  196.7571  178.8462  147.5091 H   0  0  0  0  0  0  0  0  0  0  0  0
  197.0785  180.2271  148.5795 H   0  0  0  0  0  0  0  0  0  0  0  0
  195.8477  179.0286  148.9866 H   0  0  0  0  0  0  0  0  0  0  0  0
  200.0114  178.0669  150.9246 H   0  0  0  0  0  0  0  0  0  0  0  0
  200.1004  178.6076  153.2402 H   0  0  0  0  0  0  0  0  0  0  0  0
  201.1306  180.5101  158.2972 H   0  0  0  0  0  0  0  0  0  0  0  0
  197.7177  178.9110  156.6950 H   0  0  0  0  0  0  0  0  0  0  0  0
  1  2  1  0
  2  3  1  0
  2  7  2  0
  3  4  2  0
  3 31  1  0
  4  5  1  0
  4 32  1  0
  5  6  2  0
  5  8  1  0
  6  7  1  0
  6 33  1  0
  7 34  1  0
  8  9  1  0
  8 13  1  0
  8 35  1  6
  9 10  1  0
  9 36  1  1
  9 37  1  0
 10 11  1  0
 10 12  1  0
 10 59  1  1
 11 38  1  6
 11 39  1  0
 11 40  1  0
 12 41  1  6
 12 42  1  0
 12 43  1  0
 13 14  1  0
 13 44  1  6
 13 45  1  0
 14 15  1  0
 14 30  1  6
 14 60  1  0
 15 16  1  0
 15 46  1  6
 15 47  1  0
 16 17  1  0
 16 29  2  0
 17 18  2  0
 17 48  1  0
 18 19  1  0
 19 20  1  0
 19 28  2  0
 20 21  1  0
 20 27  1  0
 21 22  2  0
 21 26  1  0
 22 23  1  0
 22 49  1  0
 23 24  2  0
 23 50  1  0
 24 25  1  0
 24 51  1  0
 25 26  2  0
 25 52  1  0
 26 53  1  0
 27 54  1  6
 27 55  1  0
 27 56  1  0
 28 29  1  0
 28 57  1  0
 29 58  1  0
M  CHG  2  10   1  14   1
M  END
>  <s_epik_cmdline>  (1407) 
J2VwaWtfcHl0aG9uJywgJy1waCcsICc3LjAwMDAwMCcsICctcGh0JywgJzIuMDAwMDAwJywgJy1tcycsICcxNicsICctdG4nLCAnOCcsICctbWEnLCAnMjAwJywgJy1pbWFlJywgJzxpbmZpbGUubWFlPicsICctb21hZScsICc8b3V0ZmlsZS5tYWU+Jw==

>  <s_epik_input>  (1407) 
Q2xjMVtjSF1bY0hdYyhbY0hdW2NIXTEpW0NASF0oW0NIMl1OKFtDSDNdKVtDSDNdKVtDSDJdW05IXVtDSDJdYzJbY0hdbmMoW2NIXVtjSF0yKU4oW0NIM10pYzNbY0hdW2NIXVtjSF1bY0hdW2NIXTM=

>  <s_i_glide_gridfile>  (1407) 
ATP-Grid

>  <s_lp_Force_Field>  (1407) 
OPLS_2005

>  <s_lp_Variant>  (1407) 
m_270004bbb____23846716____9705990-2

>  <s_lp_label>  (1407) 
1071_sdstereoexpander_2_neutralizer_1_epik_1_stereoizer_1

>  <s_m_source_file>  (1407) 
ATP-VSW-LIGPREP-001-in.maegz

>  <s_sd_BIOSOLVEIT.INFINISEE\_QUERY\_NAME>  (1407) 
Ref-Lig

>  <s_sd_BIOSOLVEIT.INFINISEE\_QUERY\_SMILES>  (1407) 
S(c1nc2c(cc1C[NH2+]Cc3ccc(cc3)C[NH+](C)C)cccc2)Cc4ccccc4

>  <s_sd_BIOSOLVEIT.INFINISEE\_REACTION\_NAME>  (1407) 
m_270004bbb

>  <s_sd_BIOSOLVEIT.INFINISEE\_REAGENT1\_SMILES>  (1407) 
[R1*]NCC(c1ccc(Cl)cc1)CN(C)C

>  <s_sd_BIOSOLVEIT.INFINISEE\_REAGENT2\_SMILES>  (1407) 
[R1*]Cc1cnc(N(c2ccccc2)C)cc1

>  <s_sd_BIOSOLVEIT.INFINISEE\_SPACE>  (1407) 
REALSpace_44bn_2023-08

>  <s_vsw_compound_code>  (1407) 
34241

>  <s_vsw_variant>  (1407) 
34241-2

>  <r_epik_Charging_Adjusted_Penalty>  (1407) 
0.420577518309453

>  <r_epik_Ionization_Penalty>  (1407) 
0.22

>  <r_epik_Ionization_Penalty_Charging>  (1407) 
0.2082

>  <r_epik_Ionization_Penalty_Neutral>  (1407) 
0.0118

>  <r_epik_State_Penalty>  (1407) 
0.21240000000000001

>  <r_i_docking_score>  (1407) 
-4.3500860888241704

>  <r_i_glide_ecoul>  (1407) 
-12.7077436447144

>  <r_i_glide_eff_state_penalty>  (1407) 
0.21240000000000001

>  <r_i_glide_einternal>  (1407) 
9.59997653961182

>  <r_i_glide_emodel>  (1407) 
-53.150532705064698

>  <r_i_glide_energy>  (1407) 
-39.256257057189899

>  <r_i_glide_erotb>  (1407) 
0.81664796158483599

>  <r_i_glide_esite>  (1407) 
-0.10000000000000001

>  <r_i_glide_evdw>  (1407) 
-26.5485134124756

>  <r_i_glide_gscore>  (1407) 
-4.5624860888241701

>  <r_i_glide_hbond>  (1407) 
-0.13572669740718199

>  <r_i_glide_ligand_efficiency>  (1407) 
-0.150002968580144

>  <r_i_glide_ligand_efficiency_ln>  (1407) 
-0.996059405675214

>  <r_i_glide_ligand_efficiency_sa>  (1407) 
-0.460856643754321

>  <r_i_glide_lipo>  (1407) 
-1.0778822265799799

>  <r_i_glide_metal>  (1407) 
-0

>  <r_i_glide_rewards>  (1407) 
-0.83193790909090704

>  <r_lp_Energy>  (1407) 
32.838521

>  <r_lp_tautomer_probability>  (1407) 
1

>  <r_qp_ACxDN^.5/SA>  (1407) 
0.0072842000000000002

>  <r_qp_CIQPlogS>  (1407) 
-4.516

>  <r_qp_EA(eV)>  (1407) 
0.223

>  <r_qp_FISA>  (1407) 
19.420999999999999

>  <r_qp_FOSA>  (1407) 
284.82400000000001

>  <r_qp_IP(eV)>  (1407) 
8.1370000000000005

>  <r_qp_Jm>  (1407) 
0.022979079140986999

>  <r_qp_PISA>  (1407) 
327.75999999999999

>  <r_qp_PSA>  (1407) 
28.652999999999999

>  <r_qp_PercentHumanOralAbsorption>  (1407) 
100

>  <r_qp_QPPCaco>  (1407) 
403.20499999999998

>  <r_qp_QPPMDCK>  (1407) 
450.63299999999998

>  <r_qp_QPlogBB>  (1407) 
0.76900000000000002

>  <r_qp_QPlogHERG>  (1407) 
-7.1079999999999997

>  <r_qp_QPlogKhsa>  (1407) 
0.82099999999999995

>  <r_qp_QPlogKp>  (1407) 
-3.984

>  <r_qp_QPlogPC16>  (1407) 
13.382

>  <r_qp_QPlogPo/w>  (1407) 
4.806

>  <r_qp_QPlogPoct>  (1407) 
18.440999999999999

>  <r_qp_QPlogPw>  (1407) 
8.1560000000000006

>  <r_qp_QPlogS>  (1407) 
-3.266

>  <r_qp_QPpolrz>  (1407) 
43.462000000000003

>  <r_qp_SASA>  (1407) 
686.42100000000005

>  <r_qp_SAamideO>  (1407) 
0

>  <r_qp_SAfluorine>  (1407) 
0

>  <r_qp_WPSA>  (1407) 
54.415999999999997

>  <r_qp_accptHB>  (1407) 
5

>  <r_qp_dip^2/V>  (1407) 
0.0056137000000000001

>  <r_qp_dipole>  (1407) 
2.7080000000000002

>  <r_qp_donorHB>  (1407) 
1

>  <r_qp_glob>  (1407) 
0.84177060000000004

>  <r_qp_mol_MW>  (1407) 
408.97300000000001

>  <r_qp_volume>  (1407) 
1305.9580000000001

>  <r_sd_BIOSOLVEIT.INFINISEE\_FTREES\_SIMILARITY>  (1407) 
0.91400000000000003

>  <r_sd_BIOSOLVEIT.LOGP>  (1407) 
2.4946000000000002

>  <r_sd_BIOSOLVEIT.MOLECULAR\_WEIGHT>  (1407) 
410.99000000000001

>  <r_sd_BIOSOLVEIT.TPSA>  (1407) 
37.18

>  <i_epik_Tot_Q>  (1407) 
2

>  <i_epik_Tot_abs_Q>  (1407) 
2

>  <i_f3d_flags>  (1407) 
0

>  <i_i_glide_confnum>  (1407) 
5

>  <i_i_glide_lignum>  (1407) 
237

>  <i_i_glide_posenum>  (1407) 
14

>  <i_i_glide_rotatable_bonds>  (1407) 
9

>  <i_lp_mmshare_version>  (1407) 
65135

>  <i_m_ct_format>  (1407) 
2

>  <i_m_source_file_index>  (1407) 
1071

>  <i_qp_#NandO>  (1407) 
4

>  <i_qp_#acid>  (1407) 
0

>  <i_qp_#amide>  (1407) 
0

>  <i_qp_#amidine>  (1407) 
0

>  <i_qp_#amine>  (1407) 
2

>  <i_qp_#in34>  (1407) 
0

>  <i_qp_#in56>  (1407) 
18

>  <i_qp_#metab>  (1407) 
6

>  <i_qp_#nonHatm>  (1407) 
29

>  <i_qp_#noncon>  (1407) 
0

>  <i_qp_#ringatoms>  (1407) 
18

>  <i_qp_#rotor>  (1407) 
9

>  <i_qp_#rtvFG>  (1407) 
0

>  <i_qp_#stars>  (1407) 
0

>  <i_qp_CNS>  (1407) 
2

>  <i_qp_HumanOralAbsorption>  (1407) 
3

>  <i_qp_RuleOfFive>  (1407) 
0

>  <i_qp_RuleOfThree>  (1407) 
0

>  <i_sd_BIOSOLVEIT.INFINISEE\_REAGENT1\_NAME>  (1407) 
23846716

>  <i_sd_BIOSOLVEIT.INFINISEE\_REAGENT2\_NAME>  (1407) 
9705990

>  <i_sd_BIOSOLVEIT.INFINISEE\_RESULT\_RANK>  (1407) 
31242

>  <i_sd_version>  (1407) 
0

>  <b_lp_Chiralities_Consistent>  (1407) 
1

>  <b_sd_chiral_flag>  (1407) 
0

>  <canonical_id>  (1407) 
ATP-HTVS-DDD75C103081

>  <compound_code>  (1407) 
34241

>  <title>  (1407) 
m_270004bbb____23846716____9705990

>  <variant>  (1407) 
34241-2

>  <source_file>  (1407) 
运行/运行/ATP-VSW/ATP-VSW-DOCK_HTVS_1-001_lib/ATP-VSW-DOCK_HTVS_1-001_lib

>  <canonical_smiles>  (1407) 
CN(c1ccccc1)c1ccc(C[NH2+]C[C@@H](C[NH+](C)C)c2ccc(Cl)cc2)cn1

>  <scaffold>  (1407) 
c1ccc(CC[NH2+]Cc2ccc(Nc3ccccc3)nc2)cc1

>  <molecular_formula>  (1407) 
C24H31ClN4+2

$$$$
ATP-HTVS-DDECBBA12C43
     RDKit          3D

 62 65  0  0  0  0  0  0  0  0999 V2000
  199.0398  178.6601  154.1188 N   0  0  0  0  0  0  0  0  0  0  0  0
  199.6701  178.3928  155.3068 N   0  0  0  0  0  0  0  0  0  0  0  0
  199.8403  179.5720  156.0572 C   0  0  0  0  0  0  0  0  0  0  0  0
  199.2643  180.5926  155.3396 C   0  0  0  0  0  0  0  0  0  0  0  0
  198.7715  179.9422  154.1592 C   0  0  0  0  0  0  0  0  0  0  0  0
  198.0353  180.5524  153.0325 C   0  0  0  0  0  0  0  0  0  0  0  0
  197.1923  181.6733  153.2349 C   0  0  0  0  0  0  0  0  0  0  0  0
  196.5379  182.3022  152.1620 C   0  0  0  0  0  0  0  0  0  0  0  0
  196.6574  181.7926  150.8628 C   0  0  0  0  0  0  0  0  0  0  0  0
  197.4511  180.6492  150.6334 C   0  0  0  0  0  0  0  0  0  0  0  0
  198.1438  180.0423  151.7118 C   0  0  0  0  0  0  0  0  0  0  0  0
  199.1776  182.0460  155.7049 C   0  0  1  0  0  0  0  0  0  0  0  0
  197.8449  182.3754  156.2475 N   0  0  1  0  0  0  0  0  0  0  0  0
  197.6115  181.9850  157.6448 C   0  0  1  0  0  0  0  0  0  0  0  0
  196.3895  182.6768  158.2148 C   0  0  0  0  0  0  0  0  0  0  0  0
  196.4644  183.9007  158.9325 C   0  0  0  0  0  0  0  0  0  0  0  0
  195.2874  184.4536  159.4816 C   0  0  0  0  0  0  0  0  0  0  0  0
  194.0393  183.8432  159.2753 C   0  0  0  0  0  0  0  0  0  0  0  0
  193.9600  182.6542  158.5328 C   0  0  0  0  0  0  0  0  0  0  0  0
  195.1317  182.0706  158.0198 C   0  0  0  0  0  0  0  0  0  0  0  0
  197.7660  184.6542  159.1477 C   0  0  1  0  0  0  0  0  0  0  0  0
  198.0958  185.5806  158.0273 N   0  0  2  0  0  0  0  0  0  0  0  0
  199.5472  185.9159  157.9869 C   0  0  1  0  0  0  0  0  0  0  0  0
  200.0569  186.5635  159.2878 C   0  0  2  0  0  0  0  0  0  0  0  0
  197.2012  186.7687  157.9344 C   0  0  1  0  0  0  0  0  0  0  0  0
  197.1942  187.3935  156.5331 C   0  0  2  0  0  0  0  0  0  0  0  0
  200.5296  179.4737  157.3004 C   0  0  0  0  0  0  0  0  0  0  0  0
  200.9653  178.2401  157.7359 C   0  0  0  0  0  0  0  0  0  0  0  0
  200.7498  177.0813  156.9504 C   0  0  0  0  0  0  0  0  0  0  0  0
  200.1094  177.1745  155.7334 C   0  0  0  0  0  0  0  0  0  0  0  0
  197.6942  183.3695  156.1610 H   0  0  0  0  0  0  0  0  0  0  0  0
  196.9918  182.1048  154.2051 H   0  0  0  0  0  0  0  0  0  0  0  0
  195.9440  183.1750  152.3660 H   0  0  0  0  0  0  0  0  0  0  0  0
  196.1281  182.2841  150.0596 H   0  0  0  0  0  0  0  0  0  0  0  0
  197.5319  180.2385  149.6269 H   0  0  0  0  0  0  0  0  0  0  0  0
  198.7566  179.1722  151.5135 H   0  0  0  0  0  0  0  0  0  0  0  0
  199.9846  182.3319  156.3871 H   0  0  0  0  0  0  0  0  0  0  0  0
  199.3471  182.6490  154.8099 H   0  0  0  0  0  0  0  0  0  0  0  0
  197.4852  180.9012  157.6923 H   0  0  0  0  0  0  0  0  0  0  0  0
  198.5015  182.2325  158.2108 H   0  0  0  0  0  0  0  0  0  0  0  0
  195.3236  185.3726  160.0453 H   0  0  0  0  0  0  0  0  0  0  0  0
  193.1400  184.2934  159.6843 H   0  0  0  0  0  0  0  0  0  0  0  0
  193.0048  182.1816  158.3563 H   0  0  0  0  0  0  0  0  0  0  0  0
  195.0415  181.1576  157.4528 H   0  0  0  0  0  0  0  0  0  0  0  0
  197.6734  185.2111  160.0784 H   0  0  0  0  0  0  0  0  0  0  0  0
  198.5887  183.9605  159.3163 H   0  0  0  0  0  0  0  0  0  0  0  0
  200.1059  184.9973  157.8003 H   0  0  0  0  0  0  0  0  0  0  0  0
  199.7755  186.5691  157.1452 H   0  0  0  0  0  0  0  0  0  0  0  0
  201.1245  186.7825  159.2339 H   0  0  0  0  0  0  0  0  0  0  0  0
  199.9167  185.8972  160.1337 H   0  0  0  0  0  0  0  0  0  0  0  0
  199.5468  187.5042  159.5081 H   0  0  0  0  0  0  0  0  0  0  0  0
  196.1687  186.4915  158.1411 H   0  0  0  0  0  0  0  0  0  0  0  0
  197.4642  187.5156  158.6827 H   0  0  0  0  0  0  0  0  0  0  0  0
  196.4991  188.2325  156.5153 H   0  0  0  0  0  0  0  0  0  0  0  0
  196.8665  186.6807  155.7745 H   0  0  0  0  0  0  0  0  0  0  0  0
  198.1674  187.7816  156.2346 H   0  0  0  0  0  0  0  0  0  0  0  0
  200.7086  180.3629  157.8962 H   0  0  0  0  0  0  0  0  0  0  0  0
  201.4725  178.1566  158.6908 H   0  0  0  0  0  0  0  0  0  0  0  0
  201.0951  176.1134  157.3034 H   0  0  0  0  0  0  0  0  0  0  0  0
  199.9196  176.3284  155.0848 H   0  0  0  0  0  0  0  0  0  0  0  0
  197.9142  185.0685  157.1780 H   0  0  0  0  0  0  0  0  0  0  0  0
  197.1491  181.8957  155.7102 H   0  0  0  0  0  0  0  0  0  0  0  0
  1  2  1  0
  1  5  2  0
  2  3  1  0
  2 30  1  0
  3  4  2  0
  3 27  1  0
  4  5  1  0
  4 12  1  0
  5  6  1  0
  6  7  2  0
  6 11  1  0
  7  8  1  0
  7 32  1  0
  8  9  2  0
  8 33  1  0
  9 10  1  0
  9 34  1  0
 10 11  2  0
 10 35  1  0
 11 36  1  0
 12 13  1  0
 12 37  1  1
 12 38  1  0
 13 14  1  0
 13 31  1  1
 13 62  1  0
 14 15  1  0
 14 39  1  6
 14 40  1  0
 15 16  1  0
 15 20  2  0
 16 17  2  0
 16 21  1  0
 17 18  1  0
 17 41  1  0
 18 19  2  0
 18 42  1  0
 19 20  1  0
 19 43  1  0
 20 44  1  0
 21 22  1  0
 21 45  1  1
 21 46  1  0
 22 23  1  0
 22 25  1  0
 22 61  1  6
 23 24  1  0
 23 47  1  6
 23 48  1  0
 24 49  1  6
 24 50  1  0
 24 51  1  0
 25 26  1  0
 25 52  1  1
 25 53  1  0
 26 54  1  1
 26 55  1  0
 26 56  1  0
 27 28  2  0
 27 57  1  0
 28 29  1  0
 28 58  1  0
 29 30  2  0
 29 59  1  0
 30 60  1  0
M  CHG  2  13   1  22   1
M  END
>  <s_epik_cmdline>  (1408) 
J2VwaWtfcHl0aG9uJywgJy1waCcsICc3LjAwMDAwMCcsICctcGh0JywgJzIuMDAwMDAwJywgJy1tcycsICcxNicsICctdG4nLCAnOCcsICctbWEnLCAnMjAwJywgJy1pbWFlJywgJzxpbmZpbGUubWFlPicsICctb21hZScsICc8b3V0ZmlsZS5tYWU+Jw==

>  <s_epik_input>  (1408) 
W2NIXTFbY0hdW2NIXVtjSF1bY0hdYzEtYyhuMiljKGMobjIzKVtjSF1bY0hdW2NIXVtjSF0zKVtDSDJdW05IXVtDSDJdYzRjKFtjSF1bY0hdW2NIXVtjSF00KVtDSDJdTihbQ0gyXVtDSDNdKVtDSDJdW0NIM10=

>  <s_i_glide_gridfile>  (1408) 
ATP-Grid

>  <s_lp_Force_Field>  (1408) 
OPLS_2005

>  <s_lp_Variant>  (1408) 
m_270004bbb____8289034____16711616-1

>  <s_lp_label>  (1408) 
1029_sdstereoexpander_1_neutralizer_1_epik_1_stereoizer_1

>  <s_m_source_file>  (1408) 
ATP-VSW-LIGPREP-003-in.maegz

>  <s_sd_BIOSOLVEIT.INFINISEE\_QUERY\_NAME>  (1408) 
Ref-Lig

>  <s_sd_BIOSOLVEIT.INFINISEE\_QUERY\_SMILES>  (1408) 
S(c1nc2c(cc1C[NH2+]Cc3ccc(cc3)C[NH+](C)C)cccc2)Cc4ccccc4

>  <s_sd_BIOSOLVEIT.INFINISEE\_REACTION\_NAME>  (1408) 
m_270004bbb

>  <s_sd_BIOSOLVEIT.INFINISEE\_REAGENT1\_SMILES>  (1408) 
[R1*]NCc1c(cccc1)CN(CC)CC

>  <s_sd_BIOSOLVEIT.INFINISEE\_REAGENT2\_SMILES>  (1408) 
[R1*]CC=1C(=NN2C1C=CC=C2)c3ccccc3

>  <s_sd_BIOSOLVEIT.INFINISEE\_SPACE>  (1408) 
REALSpace_44bn_2023-08

>  <s_vsw_compound_code>  (1408) 
32899

>  <s_vsw_variant>  (1408) 
32899-1

>  <r_epik_Charging_Adjusted_Penalty>  (1408) 
0.29564749702097198

>  <r_epik_Ionization_Penalty>  (1408) 
0.14810000000000001

>  <r_epik_Ionization_Penalty_Charging>  (1408) 
0.14810000000000001

>  <r_epik_Ionization_Penalty_Neutral>  (1408) 
0

>  <r_epik_State_Penalty>  (1408) 
0.14749999999999999

>  <r_i_docking_score>  (1408) 
-3.8482525612474299

>  <r_i_glide_ecoul>  (1408) 
-6.0350184440612802

>  <r_i_glide_eff_state_penalty>  (1408) 
0.14749999999999999

>  <r_i_glide_einternal>  (1408) 
3.0497710704803498

>  <r_i_glide_emodel>  (1408) 
-56.814647140097698

>  <r_i_glide_energy>  (1408) 
-41.050040721893303

>  <r_i_glide_erotb>  (1408) 
0.85534673059382005

>  <r_i_glide_esite>  (1408) 
-0.061471672406075102

>  <r_i_glide_evdw>  (1408) 
-35.015022277832003

>  <r_i_glide_gscore>  (1408) 
-3.9957525612474298

>  <r_i_glide_hbond>  (1408) 
0

>  <r_i_glide_ligand_efficiency>  (1408) 
-0.128275085374914

>  <r_i_glide_ligand_efficiency_ln>  (1408) 
-0.874364911985406

>  <r_i_glide_ligand_efficiency_sa>  (1408) 
-0.39858051452905702

>  <r_i_glide_lipo>  (1408) 
-1.2306174662071101

>  <r_i_glide_metal>  (1408) 
-0

>  <r_i_glide_rewards>  (1408) 
-0.90300627272727096

>  <r_lp_Energy>  (1408) 
28.276350999999998

>  <r_qp_ACxDN^.5/SA>  (1408) 
0.0068237000000000003

>  <r_qp_CIQPlogS>  (1408) 
-4.6829999999999998

>  <r_qp_EA(eV)>  (1408) 
0.73499999999999999

>  <r_qp_FISA>  (1408) 
20.085999999999999

>  <r_qp_FOSA>  (1408) 
222.179

>  <r_qp_IP(eV)>  (1408) 
8.6750000000000007

>  <r_qp_Jm>  (1408) 
0.084412044983814397

>  <r_qp_PISA>  (1408) 
417.19799999999998

>  <r_qp_PSA>  (1408) 
29.518000000000001

>  <r_qp_PercentHumanOralAbsorption>  (1408) 
100

>  <r_qp_QPPCaco>  (1408) 
397.39499999999998

>  <r_qp_QPPMDCK>  (1408) 
223.31399999999999

>  <r_qp_QPlogBB>  (1408) 
0.70199999999999996

>  <r_qp_QPlogHERG>  (1408) 
-7.0590000000000002

>  <r_qp_QPlogKhsa>  (1408) 
0.94399999999999995

>  <r_qp_QPlogKp>  (1408) 
-3.7770000000000001

>  <r_qp_QPlogPC16>  (1408) 
13.538

>  <r_qp_QPlogPo/w>  (1408) 
4.8479999999999999

>  <r_qp_QPlogPoct>  (1408) 
18.544

>  <r_qp_QPlogPw>  (1408) 
8.4130000000000003

>  <r_qp_QPlogS>  (1408) 
-2.8969999999999998

>  <r_qp_QPpolrz>  (1408) 
44.506

>  <r_qp_SASA>  (1408) 
659.46400000000006

>  <r_qp_SAamideO>  (1408) 
0

>  <r_qp_SAfluorine>  (1408) 
0

>  <r_qp_WPSA>  (1408) 
0

>  <r_qp_accptHB>  (1408) 
4.5

>  <r_qp_dip^2/V>  (1408) 
0.0045672000000000004

>  <r_qp_dipole>  (1408) 
2.4319999999999999

>  <r_qp_donorHB>  (1408) 
1

>  <r_qp_glob>  (1408) 
0.87112400000000001

>  <r_qp_mol_MW>  (1408) 
398.55000000000001

>  <r_qp_volume>  (1408) 
1294.6690000000001

>  <r_sd_BIOSOLVEIT.INFINISEE\_FTREES\_SIMILARITY>  (1408) 
0.91500000000000004

>  <r_sd_BIOSOLVEIT.LOGP>  (1408) 
2.6896

>  <r_sd_BIOSOLVEIT.MOLECULAR\_WEIGHT>  (1408) 
400.56700000000001

>  <r_sd_BIOSOLVEIT.TPSA>  (1408) 
38.869999999999997

>  <i_epik_Tot_Q>  (1408) 
2

>  <i_epik_Tot_abs_Q>  (1408) 
2

>  <i_f3d_flags>  (1408) 
0

>  <i_i_glide_confnum>  (1408) 
2

>  <i_i_glide_lignum>  (1408) 
392

>  <i_i_glide_posenum>  (1408) 
18

>  <i_i_glide_rotatable_bonds>  (1408) 
9

>  <i_lp_mmshare_version>  (1408) 
65135

>  <i_m_ct_format>  (1408) 
2

>  <i_m_source_file_index>  (1408) 
1029

>  <i_qp_#NandO>  (1408) 
4

>  <i_qp_#acid>  (1408) 
0

>  <i_qp_#amide>  (1408) 
0

>  <i_qp_#amidine>  (1408) 
0

>  <i_qp_#amine>  (1408) 
2

>  <i_qp_#in34>  (1408) 
0

>  <i_qp_#in56>  (1408) 
21

>  <i_qp_#metab>  (1408) 
5

>  <i_qp_#nonHatm>  (1408) 
30

>  <i_qp_#noncon>  (1408) 
0

>  <i_qp_#ringatoms>  (1408) 
21

>  <i_qp_#rotor>  (1408) 
8

>  <i_qp_#rtvFG>  (1408) 
0

>  <i_qp_#stars>  (1408) 
0

>  <i_qp_CNS>  (1408) 
2

>  <i_qp_HumanOralAbsorption>  (1408) 
3

>  <i_qp_RuleOfFive>  (1408) 
0

>  <i_qp_RuleOfThree>  (1408) 
0

>  <i_sd_BIOSOLVEIT.INFINISEE\_REAGENT1\_NAME>  (1408) 
8289034

>  <i_sd_BIOSOLVEIT.INFINISEE\_REAGENT2\_NAME>  (1408) 
16711616

>  <i_sd_BIOSOLVEIT.INFINISEE\_RESULT\_RANK>  (1408) 
28029

>  <i_sd_version>  (1408) 
0

>  <b_lp_Chiralities_Consistent>  (1408) 
1

>  <b_sd_chiral_flag>  (1408) 
0

>  <canonical_id>  (1408) 
ATP-HTVS-DDECBBA12C43

>  <compound_code>  (1408) 
32899

>  <title>  (1408) 
m_270004bbb____8289034____16711616

>  <variant>  (1408) 
32899-1

>  <source_file>  (1408) 
运行/运行/ATP-VSW/ATP-VSW-DOCK_HTVS_1-003_lib/ATP-VSW-DOCK_HTVS_1-003_lib.mae

>  <canonical_smiles>  (1408) 
CC[NH+](CC)Cc1ccccc1C[NH2+]Cc1c(-c2ccccc2)nn2ccccc12

>  <scaffold>  (1408) 
c1ccc(C[NH2+]Cc2c(-c3ccccc3)nn3ccccc23)cc1

>  <molecular_formula>  (1408) 
C26H32N4+2

$$$$
ATP-HTVS-DE3670B8C5ED
     RDKit          3D

 64 67  0  0  0  0  0  0  0  0999 V2000
  199.9567  182.2688  157.5910 O   0  0  0  0  0  0  0  0  0  0  0  0
  199.4331  183.3451  157.9910 C   0  0  0  0  0  0  0  0  0  0  0  0
  199.7932  183.9848  159.0113 O   0  0  0  0  0  0  0  0  0  0  0  0
  198.2958  183.9404  157.1104 C   0  0  1  0  0  0  0  0  0  0  0  0
  197.7893  183.0060  156.0673 N   0  0  1  0  0  0  0  0  0  0  0  0
  198.7750  182.5095  155.0969 C   0  0  1  0  0  0  0  0  0  0  0  0
  198.0822  182.0109  153.8383 C   0  0  0  0  0  0  0  0  0  0  0  0
  197.6838  182.9232  152.8500 C   0  0  0  0  0  0  0  0  0  0  0  0
  197.0803  182.4781  151.6438 C   0  0  0  0  0  0  0  0  0  0  0  0
  196.6779  183.3249  150.6317 O   0  0  0  0  0  0  0  0  0  0  0  0
  197.0396  184.6989  150.6837 C   0  0  1  0  0  0  0  0  0  0  0  0
  198.4569  184.9589  150.1917 C   0  0  0  0  0  0  0  0  0  0  0  0
  199.5210  185.1633  151.1012 C   0  0  0  0  0  0  0  0  0  0  0  0
  200.8274  185.3985  150.6316 C   0  0  0  0  0  0  0  0  0  0  0  0
  201.0761  185.4553  149.2462 C   0  0  0  0  0  0  0  0  0  0  0  0
  200.0174  185.2722  148.3341 C   0  0  0  0  0  0  0  0  0  0  0  0
  198.7126  185.0205  148.8057 C   0  0  0  0  0  0  0  0  0  0  0  0
  196.8542  181.0936  151.4630 C   0  0  0  0  0  0  0  0  0  0  0  0
  196.2811  180.7250  150.2654 O   0  0  0  0  0  0  0  0  0  0  0  0
  196.0840  179.3517  149.9655 C   0  0  1  0  0  0  0  0  0  0  0  0
  197.2908  178.6871  149.3067 C   0  0  0  0  0  0  0  0  0  0  0  0
  198.4733  178.4149  150.0367 C   0  0  0  0  0  0  0  0  0  0  0  0
  199.5712  177.7929  149.4113 C   0  0  0  0  0  0  0  0  0  0  0  0
  199.4990  177.4315  148.0534 C   0  0  0  0  0  0  0  0  0  0  0  0
  198.3226  177.6932  147.3230 C   0  0  0  0  0  0  0  0  0  0  0  0
  197.2216  178.3151  147.9453 C   0  0  0  0  0  0  0  0  0  0  0  0
  197.2063  180.1806  152.4908 C   0  0  0  0  0  0  0  0  0  0  0  0
  197.8442  180.6347  153.6591 C   0  0  0  0  0  0  0  0  0  0  0  0
  197.1732  184.4403  158.0111 C   0  0  0  0  0  0  0  0  0  0  0  0
  197.2104  185.7651  158.4988 C   0  0  0  0  0  0  0  0  0  0  0  0
  196.2064  186.2246  159.3702 C   0  0  0  0  0  0  0  0  0  0  0  0
  195.1496  185.3713  159.7439 C   0  0  0  0  0  0  0  0  0  0  0  0
  195.0976  184.0602  159.2367 C   0  0  0  0  0  0  0  0  0  0  0  0
  196.1081  183.5901  158.3796 C   0  0  0  0  0  0  0  0  0  0  0  0
  194.0694  185.8787  160.6763 C   0  0  2  0  0  0  0  0  0  0  0  0
  197.3677  182.2122  156.5199 H   0  0  0  0  0  0  0  0  0  0  0  0
  198.7314  184.7931  156.5852 H   0  0  0  0  0  0  0  0  0  0  0  0
  199.4851  183.2853  154.8012 H   0  0  0  0  0  0  0  0  0  0  0  0
  199.3426  181.6979  155.5595 H   0  0  0  0  0  0  0  0  0  0  0  0
  197.8552  183.9681  153.0595 H   0  0  0  0  0  0  0  0  0  0  0  0
  196.3481  185.2567  150.0489 H   0  0  0  0  0  0  0  0  0  0  0  0
  196.9158  185.0883  151.6887 H   0  0  0  0  0  0  0  0  0  0  0  0
  199.3582  185.1438  152.1691 H   0  0  0  0  0  0  0  0  0  0  0  0
  201.6337  185.5358  151.3384 H   0  0  0  0  0  0  0  0  0  0  0  0
  202.0777  185.6411  148.8889 H   0  0  0  0  0  0  0  0  0  0  0  0
  200.2070  185.3209  147.2712 H   0  0  0  0  0  0  0  0  0  0  0  0
  197.9019  184.8780  148.1054 H   0  0  0  0  0  0  0  0  0  0  0  0
  195.7443  178.7881  150.8348 H   0  0  0  0  0  0  0  0  0  0  0  0
  195.2368  179.3264  149.2796 H   0  0  0  0  0  0  0  0  0  0  0  0
  198.5836  178.6689  151.0854 H   0  0  0  0  0  0  0  0  0  0  0  0
  200.4635  177.6008  149.9865 H   0  0  0  0  0  0  0  0  0  0  0  0
  200.3470  176.9573  147.5803 H   0  0  0  0  0  0  0  0  0  0  0  0
  198.2653  177.4158  146.2791 H   0  0  0  0  0  0  0  0  0  0  0  0
  196.3263  178.5053  147.3712 H   0  0  0  0  0  0  0  0  0  0  0  0
  197.0322  179.1185  152.4289 H   0  0  0  0  0  0  0  0  0  0  0  0
  198.1587  179.9215  154.4109 H   0  0  0  0  0  0  0  0  0  0  0  0
  198.0321  186.4188  158.2467 H   0  0  0  0  0  0  0  0  0  0  0  0
  196.2602  187.2258  159.7699 H   0  0  0  0  0  0  0  0  0  0  0  0
  194.2925  183.3968  159.5084 H   0  0  0  0  0  0  0  0  0  0  0  0
  196.0514  182.5692  158.0312 H   0  0  0  0  0  0  0  0  0  0  0  0
  193.3297  185.1057  160.8852 H   0  0  0  0  0  0  0  0  0  0  0  0
  193.5556  186.7177  160.2138 H   0  0  0  0  0  0  0  0  0  0  0  0
  194.4975  186.2288  161.6159 H   0  0  0  0  0  0  0  0  0  0  0  0
  197.0643  183.4959  155.5676 H   0  0  0  0  0  0  0  0  0  0  0  0
  1  2  1  0
  2  3  2  0
  2  4  1  0
  4  5  1  0
  4 29  1  0
  4 37  1  6
  5  6  1  0
  5 36  1  1
  5 64  1  0
  6  7  1  0
  6 38  1  6
  6 39  1  0
  7  8  2  0
  7 28  1  0
  8  9  1  0
  8 40  1  0
  9 10  1  0
  9 18  2  0
 10 11  1  0
 11 12  1  0
 11 41  1  6
 11 42  1  0
 12 13  2  0
 12 17  1  0
 13 14  1  0
 13 43  1  0
 14 15  2  0
 14 44  1  0
 15 16  1  0
 15 45  1  0
 16 17  2  0
 16 46  1  0
 17 47  1  0
 18 19  1  0
 18 27  1  0
 19 20  1  0
 20 21  1  0
 20 48  1  1
 20 49  1  0
 21 22  2  0
 21 26  1  0
 22 23  1  0
 22 50  1  0
 23 24  2  0
 23 51  1  0
 24 25  1  0
 24 52  1  0
 25 26  2  0
 25 53  1  0
 26 54  1  0
 27 28  2  0
 27 55  1  0
 28 56  1  0
 29 30  1  0
 29 34  2  0
 30 31  2  0
 30 57  1  0
 31 32  1  0
 31 58  1  0
 32 33  2  0
 32 35  1  0
 33 34  1  0
 33 59  1  0
 34 60  1  0
 35 61  1  1
 35 62  1  0
 35 63  1  0
M  CHG  2   1  -1   5   1
M  END
>  <s_epik_cmdline>  (1409) 
J2VwaWtfcHl0aG9uJywgJy1waCcsICc3LjAwMDAwMCcsICctcGh0JywgJzIuMDAwMDAwJywgJy1tcycsICcxNicsICctdG4nLCAnOCcsICctbWEnLCAnMjAwJywgJy1pbWFlJywgJzxpbmZpbGUubWFlPicsICctb21hZScsICc8b3V0ZmlsZS5tYWU+Jw==

>  <s_epik_input>  (1409) 
W2NIXTFbY0hdYyhbQ0gzXSlbY0hdW2NIXWMxW0NAQEhdKEMoPU8pW09IXSlbTkhdW0NIMl1jMltjSF1jKE9bQ0gyXWMzW2NIXVtjSF1bY0hdW2NIXVtjSF0zKWMoW2NIXVtjSF0yKU9bQ0gyXWM0W2NIXVtjSF1bY0hdW2NIXVtjSF00

>  <s_i_glide_gridfile>  (1409) 
ATP-Grid

>  <s_lp_Force_Field>  (1409) 
OPLS_2005

>  <s_lp_Variant>  (1409) 
m_271304bca____8910674____9304626-2

>  <s_lp_label>  (1409) 
1672_sdstereoexpander_2_neutralizer_1_epik_1_stereoizer_1

>  <s_m_source_file>  (1409) 
ATP-VSW-LIGPREP-001-in.maegz

>  <s_sd_BIOSOLVEIT.INFINISEE\_QUERY\_NAME>  (1409) 
Ref-Lig

>  <s_sd_BIOSOLVEIT.INFINISEE\_QUERY\_SMILES>  (1409) 
S(c1nc2c(cc1C[NH2+]Cc3ccc(cc3)C[NH+](C)C)cccc2)Cc4ccccc4

>  <s_sd_BIOSOLVEIT.INFINISEE\_REACTION\_NAME>  (1409) 
m_271304bca

>  <s_sd_BIOSOLVEIT.INFINISEE\_REAGENT1\_SMILES>  (1409) 
[R1*]NC(c1ccc(cc1)C)C(=O)O

>  <s_sd_BIOSOLVEIT.INFINISEE\_REAGENT2\_SMILES>  (1409) 
[R1*]Cc1cc(OCc2ccccc2)c(OCc3ccccc3)cc1

>  <s_sd_BIOSOLVEIT.INFINISEE\_SPACE>  (1409) 
REALSpace_44bn_2023-08

>  <s_vsw_compound_code>  (1409) 
53473

>  <s_vsw_variant>  (1409) 
53473-2

>  <r_epik_Charging_Adjusted_Penalty>  (1409) 
0.078718149113993399

>  <r_epik_Ionization_Penalty>  (1409) 
0.039399999999999998

>  <r_epik_Ionization_Penalty_Charging>  (1409) 
0.039399999999999998

>  <r_epik_Ionization_Penalty_Neutral>  (1409) 
0

>  <r_epik_State_Penalty>  (1409) 
0.039399999999999998

>  <r_i_docking_score>  (1409) 
-3.1188645256653

>  <r_i_glide_ecoul>  (1409) 
-1.4159568548202499

>  <r_i_glide_eff_state_penalty>  (1409) 
0.039399999999999998

>  <r_i_glide_einternal>  (1409) 
5.7944931983947798

>  <r_i_glide_emodel>  (1409) 
-39.223645971280703

>  <r_i_glide_energy>  (1409) 
-34.316549658775301

>  <r_i_glide_erotb>  (1409) 
0.92326096877577501

>  <r_i_glide_esite>  (1409) 
-0.015685878054875899

>  <r_i_glide_evdw>  (1409) 
-32.900592803955099

>  <r_i_glide_gscore>  (1409) 
-3.1582645256653001

>  <r_i_glide_hbond>  (1409) 
0

>  <r_i_glide_ligand_efficiency>  (1409) 
-0.089110415019008599

>  <r_i_glide_ligand_efficiency_ln>  (1409) 
-0.68465998285223395

>  <r_i_glide_ligand_efficiency_sa>  (1409) 
-0.29148607611015798

>  <r_i_glide_lipo>  (1409) 
-1.98017201696798

>  <r_i_glide_metal>  (1409) 
-0

>  <r_i_glide_rewards>  (1409) 
-0.228244430997426

>  <r_lp_Energy>  (1409) 
20.829242000000001

>  <r_lp_tautomer_probability>  (1409) 
1

>  <r_qp_ACxDN^.5/SA>  (1409) 
0.0080727000000000004

>  <r_qp_CIQPlogS>  (1409) 
-7.0330000000000004

>  <r_qp_EA(eV)>  (1409) 
0.19500000000000001

>  <r_qp_FISA>  (1409) 
101.965

>  <r_qp_FOSA>  (1409) 
200.99299999999999

>  <r_qp_IP(eV)>  (1409) 
8.8789999999999996

>  <r_qp_Jm>  (1409) 
2.6730291949137601e-05

>  <r_qp_PISA>  (1409) 
572.96699999999998

>  <r_qp_PSA>  (1409) 
72.986999999999995

>  <r_qp_PercentHumanOralAbsorption>  (1409) 
88.304000000000002

>  <r_qp_QPPCaco>  (1409) 
67.525000000000006

>  <r_qp_QPPMDCK>  (1409) 
37.796999999999997

>  <r_qp_QPlogBB>  (1409) 
-0.93200000000000005

>  <r_qp_QPlogHERG>  (1409) 
-7.3390000000000004

>  <r_qp_QPlogKhsa>  (1409) 
1.167

>  <r_qp_QPlogKp>  (1409) 
-2.387

>  <r_qp_QPlogPC16>  (1409) 
18.370999999999999

>  <r_qp_QPlogPo/w>  (1409) 
4.8869999999999996

>  <r_qp_QPlogPoct>  (1409) 
24.263999999999999

>  <r_qp_QPlogPw>  (1409) 
11.846

>  <r_qp_QPlogS>  (1409) 
-7.8559999999999999

>  <r_qp_QPpolrz>  (1409) 
54.755000000000003

>  <r_qp_SASA>  (1409) 
875.92499999999995

>  <r_qp_SAamideO>  (1409) 
0

>  <r_qp_SAfluorine>  (1409) 
0

>  <r_qp_WPSA>  (1409) 
0

>  <r_qp_accptHB>  (1409) 
5

>  <r_qp_dip^2/V>  (1409) 
0.029898999999999998

>  <r_qp_dipole>  (1409) 
6.8330000000000002

>  <r_qp_donorHB>  (1409) 
2

>  <r_qp_glob>  (1409) 
0.74319409999999997

>  <r_qp_mol_MW>  (1409) 
467.56299999999999

>  <r_qp_volume>  (1409) 
1561.73

>  <r_sd_BIOSOLVEIT.INFINISEE\_FTREES\_SIMILARITY>  (1409) 
0.90500000000000003

>  <r_sd_BIOSOLVEIT.LOGP>  (1409) 
3.7076199999999999

>  <r_sd_BIOSOLVEIT.MOLECULAR\_WEIGHT>  (1409) 
467.56200000000001

>  <r_sd_BIOSOLVEIT.TPSA>  (1409) 
75.200000000000003

>  <i_epik_Tot_Q>  (1409) 
0

>  <i_epik_Tot_abs_Q>  (1409) 
2

>  <i_f3d_flags>  (1409) 
0

>  <i_i_glide_confnum>  (1409) 
13

>  <i_i_glide_lignum>  (1409) 
462

>  <i_i_glide_posenum>  (1409) 
11

>  <i_i_glide_rotatable_bonds>  (1409) 
11

>  <i_lp_mmshare_version>  (1409) 
65135

>  <i_m_ct_format>  (1409) 
2

>  <i_m_source_file_index>  (1409) 
1672

>  <i_qp_#NandO>  (1409) 
5

>  <i_qp_#acid>  (1409) 
1

>  <i_qp_#amide>  (1409) 
0

>  <i_qp_#amidine>  (1409) 
0

>  <i_qp_#amine>  (1409) 
1

>  <i_qp_#in34>  (1409) 
0

>  <i_qp_#in56>  (1409) 
24

>  <i_qp_#metab>  (1409) 
8

>  <i_qp_#nonHatm>  (1409) 
35

>  <i_qp_#noncon>  (1409) 
0

>  <i_qp_#ringatoms>  (1409) 
24

>  <i_qp_#rotor>  (1409) 
11

>  <i_qp_#rtvFG>  (1409) 
0

>  <i_qp_#stars>  (1409) 
4

>  <i_qp_CNS>  (1409) 
-1

>  <i_qp_HumanOralAbsorption>  (1409) 
1

>  <i_qp_RuleOfFive>  (1409) 
0

>  <i_qp_RuleOfThree>  (1409) 
2

>  <i_sd_BIOSOLVEIT.INFINISEE\_REAGENT1\_NAME>  (1409) 
8910674

>  <i_sd_BIOSOLVEIT.INFINISEE\_REAGENT2\_NAME>  (1409) 
9304626

>  <i_sd_BIOSOLVEIT.INFINISEE\_RESULT\_RANK>  (1409) 
70111

>  <i_sd_version>  (1409) 
0

>  <b_lp_Chiralities_Consistent>  (1409) 
1

>  <b_sd_chiral_flag>  (1409) 
0

>  <canonical_id>  (1409) 
ATP-HTVS-DE3670B8C5ED

>  <compound_code>  (1409) 
53473

>  <title>  (1409) 
m_271304bca____8910674____9304626

>  <variant>  (1409) 
53473-2

>  <source_file>  (1409) 
运行/运行/ATP-VSW/ATP-VSW-DOCK_HTVS_1-001_lib/ATP-VSW-DOCK_HTVS_1-001_lib

>  <canonical_smiles>  (1409) 
Cc1ccc([C@H]([NH2+]Cc2ccc(OCc3ccccc3)c(OCc3ccccc3)c2)C(=O)[O-])cc1

>  <scaffold>  (1409) 
c1ccc(C[NH2+]Cc2ccc(OCc3ccccc3)c(OCc3ccccc3)c2)cc1

>  <molecular_formula>  (1409) 
C30H29NO4

$$$$
ATP-HTVS-DED96A59EB26
     RDKit          3D

 71 74  0  0  0  0  0  0  0  0999 V2000
  198.5800  181.6361  154.9613 O   0  0  0  0  0  0  0  0  0  0  0  0
  197.9682  180.8327  155.6601 C   0  0  0  0  0  0  0  0  0  0  0  0
  197.5533  181.0956  156.9218 N   0  0  0  0  0  0  0  0  0  0  0  0
  197.7258  182.3071  157.6772 C   0  0  0  0  0  0  0  0  0  0  0  0
  199.0016  182.9106  157.8858 C   0  0  0  0  0  0  0  0  0  0  0  0
  200.1695  182.3818  157.3029 N   0  0  0  0  0  0  0  0  0  0  0  0
  201.3796  183.1647  157.0194 C   0  0  1  0  0  0  0  0  0  0  0  0
  201.2323  184.6005  156.5047 C   0  0  0  0  0  0  0  0  0  0  0  0
  200.0315  185.0598  155.9292 C   0  0  0  0  0  0  0  0  0  0  0  0
  199.8730  186.4105  155.5717 C   0  0  0  0  0  0  0  0  0  0  0  0
  200.9533  187.3050  155.7245 C   0  0  0  0  0  0  0  0  0  0  0  0
  202.1797  186.8407  156.2270 C   0  0  0  0  0  0  0  0  0  0  0  0
  202.3181  185.4976  156.6271 C   0  0  0  0  0  0  0  0  0  0  0  0
  198.5312  186.8895  155.0476 C   0  0  1  0  0  0  0  0  0  0  0  0
  198.3598  186.6239  153.5895 N   0  0  2  0  0  0  0  0  0  0  0  0
  198.1466  185.1886  153.2362 C   0  0  1  0  0  0  0  0  0  0  0  0
  196.8518  184.5999  153.8333 C   0  0  2  0  0  0  0  0  0  0  0  0
  199.3521  187.3112  152.7242 C   0  0  1  0  0  0  0  0  0  0  0  0
  199.3416  188.8528  152.8713 C   0  0  2  0  0  0  0  0  0  0  0  0
  199.0604  184.0813  158.6796 C   0  0  0  0  0  0  0  0  0  0  0  0
  197.9860  184.6611  159.2188 N   0  0  0  0  0  0  0  0  0  0  0  0
  196.7815  184.1116  159.0368 C   0  0  0  0  0  0  0  0  0  0  0  0
  196.5897  182.9127  158.2814 C   0  0  0  0  0  0  0  0  0  0  0  0
  195.2805  182.3914  158.1390 C   0  0  0  0  0  0  0  0  0  0  0  0
  194.1832  183.0469  158.7323 C   0  0  0  0  0  0  0  0  0  0  0  0
  194.3719  184.2241  159.4791 C   0  0  0  0  0  0  0  0  0  0  0  0
  195.6678  184.7448  159.6222 C   0  0  0  0  0  0  0  0  0  0  0  0
  197.6238  179.4491  155.0891 C   0  0  1  0  0  0  0  0  0  0  0  0
  198.8932  178.6738  154.7362 C   0  0  0  0  0  0  0  0  0  0  0  0
  199.4014  178.6720  153.4133 C   0  0  0  0  0  0  0  0  0  0  0  0
  198.7353  179.4267  152.4682 O   0  0  0  0  0  0  0  0  0  0  0  0
  199.1753  179.3663  151.1201 C   0  0  2  0  0  0  0  0  0  0  0  0
  200.5479  177.8881  153.1199 C   0  0  0  0  0  0  0  0  0  0  0  0
  201.1714  177.1227  154.1245 C   0  0  0  0  0  0  0  0  0  0  0  0
  200.6703  177.1424  155.4376 C   0  0  0  0  0  0  0  0  0  0  0  0
  199.5396  177.9215  155.7406 C   0  0  0  0  0  0  0  0  0  0  0  0
  196.9285  180.4011  157.3338 H   0  0  0  0  0  0  0  0  0  0  0  0
  200.0516  181.5353  156.7647 H   0  0  0  0  0  0  0  0  0  0  0  0
  201.9648  183.2119  157.9384 H   0  0  0  0  0  0  0  0  0  0  0  0
  201.9857  182.6178  156.2917 H   0  0  0  0  0  0  0  0  0  0  0  0
  199.2039  184.3714  155.8043 H   0  0  0  0  0  0  0  0  0  0  0  0
  200.8579  188.3473  155.4601 H   0  0  0  0  0  0  0  0  0  0  0  0
  203.0056  187.5332  156.3154 H   0  0  0  0  0  0  0  0  0  0  0  0
  203.2563  185.1692  157.0525 H   0  0  0  0  0  0  0  0  0  0  0  0
  197.7333  186.4267  155.6292 H   0  0  0  0  0  0  0  0  0  0  0  0
  198.4046  187.9575  155.2459 H   0  0  0  0  0  0  0  0  0  0  0  0
  198.0708  185.0982  152.1484 H   0  0  0  0  0  0  0  0  0  0  0  0
  199.0111  184.5837  153.5044 H   0  0  0  0  0  0  0  0  0  0  0  0
  196.7265  183.5643  153.5190 H   0  0  0  0  0  0  0  0  0  0  0  0
  195.9743  185.1536  153.4977 H   0  0  0  0  0  0  0  0  0  0  0  0
  196.8389  184.5816  154.9253 H   0  0  0  0  0  0  0  0  0  0  0  0
  200.3550  186.9166  152.9146 H   0  0  0  0  0  0  0  0  0  0  0  0
  199.1355  187.0771  151.6763 H   0  0  0  0  0  0  0  0  0  0  0  0
  200.0369  189.3191  152.1725 H   0  0  0  0  0  0  0  0  0  0  0  0
  199.6266  189.1986  153.8667 H   0  0  0  0  0  0  0  0  0  0  0  0
  198.3485  189.2559  152.6721 H   0  0  0  0  0  0  0  0  0  0  0  0
  199.9677  184.6218  158.8876 H   0  0  0  0  0  0  0  0  0  0  0  0
  195.0953  181.4915  157.5662 H   0  0  0  0  0  0  0  0  0  0  0  0
  193.1842  182.6617  158.5918 H   0  0  0  0  0  0  0  0  0  0  0  0
  193.5314  184.7338  159.9262 H   0  0  0  0  0  0  0  0  0  0  0  0
  195.8218  185.6541  160.1859 H   0  0  0  0  0  0  0  0  0  0  0  0
  197.0078  178.8502  155.7639 H   0  0  0  0  0  0  0  0  0  0  0  0
  197.0106  179.6288  154.2061 H   0  0  0  0  0  0  0  0  0  0  0  0
  198.5413  180.0070  150.5076 H   0  0  0  0  0  0  0  0  0  0  0  0
  199.0998  178.3524  150.7245 H   0  0  0  0  0  0  0  0  0  0  0  0
  200.2005  179.7226  151.0139 H   0  0  0  0  0  0  0  0  0  0  0  0
  200.9635  177.8455  152.1244 H   0  0  0  0  0  0  0  0  0  0  0  0
  202.0393  176.5239  153.8876 H   0  0  0  0  0  0  0  0  0  0  0  0
  201.1420  176.5502  156.2092 H   0  0  0  0  0  0  0  0  0  0  0  0
  199.1469  177.9197  156.7483 H   0  0  0  0  0  0  0  0  0  0  0  0
  197.4733  187.0810  153.3821 H   0  0  0  0  0  0  0  0  0  0  0  0
  1  2  2  0
  2  3  1  0
  2 28  1  0
  3  4  1  0
  3 37  1  0
  4  5  2  0
  4 23  1  0
  5  6  1  0
  5 20  1  0
  6  7  1  0
  6 38  1  0
  7  8  1  0
  7 39  1  1
  7 40  1  0
  8  9  2  0
  8 13  1  0
  9 10  1  0
  9 41  1  0
 10 11  2  0
 10 14  1  0
 11 12  1  0
 11 42  1  0
 12 13  2  0
 12 43  1  0
 13 44  1  0
 14 15  1  0
 14 45  1  1
 14 46  1  0
 15 16  1  0
 15 18  1  0
 15 71  1  6
 16 17  1  0
 16 47  1  6
 16 48  1  0
 17 49  1  6
 17 50  1  0
 17 51  1  0
 18 19  1  0
 18 52  1  1
 18 53  1  0
 19 54  1  6
 19 55  1  0
 19 56  1  0
 20 21  2  0
 20 57  1  0
 21 22  1  0
 22 23  1  0
 22 27  2  0
 23 24  2  0
 24 25  1  0
 24 58  1  0
 25 26  2  0
 25 59  1  0
 26 27  1  0
 26 60  1  0
 27 61  1  0
 28 29  1  0
 28 62  1  1
 28 63  1  0
 29 30  1  0
 29 36  2  0
 30 31  1  0
 30 33  2  0
 31 32  1  0
 32 64  1  6
 32 65  1  0
 32 66  1  0
 33 34  1  0
 33 67  1  0
 34 35  2  0
 34 68  1  0
 35 36  1  0
 35 69  1  0
 36 70  1  0
M  CHG  1  15   1
M  END
>  <s_epik_cmdline>  (1410) 
J2VwaWtfcHl0aG9uJywgJy1waCcsICc3LjAwMDAwMCcsICctcGh0JywgJzIuMDAwMDAwJywgJy1tcycsICcxNicsICctdG4nLCAnOCcsICctbWEnLCAnMjAwJywgJy1pbWFlJywgJzxpbmZpbGUubWFlPicsICctb21hZScsICc8b3V0ZmlsZS5tYWU+Jw==

>  <s_epik_input>  (1410) 
W2NIXTFbY0hdW2NIXVtjSF1jKE9bQ0gzXSljMVtDSDJdQyg9TylbTkhdYyhjKGMyMylbY0hdW2NIXVtjSF1bY0hdMyljKFtjSF1uMilbTkhdW0NIMl1jNFtjSF1jKFtjSF1bY0hdW2NIXTQpW0NIMl1OKFtDSDJdW0NIM10pW0NIMl1bQ0gzXQ==

>  <s_i_glide_gridfile>  (1410) 
ATP-Grid

>  <s_lp_Force_Field>  (1410) 
OPLS_2005

>  <s_lp_Variant>  (1410) 
rxn502b____EMOL32280493____EMOL13728749____EMOL44153840-1

>  <s_lp_label>  (1410) 
2417_sdstereoexpander_1_neutralizer_1_epik_1_stereoizer_1

>  <s_m_source_file>  (1410) 
ATP-VSW-LIGPREP-003-in.maegz

>  <s_sd_BIOSOLVEIT.INFINISEE\_QUERY\_NAME>  (1410) 
Ref-Lig

>  <s_sd_BIOSOLVEIT.INFINISEE\_QUERY\_SMILES>  (1410) 
S(c1nc2c(cc1C[NH2+]Cc3ccc(cc3)C[NH+](C)C)cccc2)Cc4ccccc4

>  <s_sd_BIOSOLVEIT.INFINISEE\_REACTION\_NAME>  (1410) 
rxn502b

>  <s_sd_BIOSOLVEIT.INFINISEE\_REAGENT1\_NAME>  (1410) 
EMOL32280493

>  <s_sd_BIOSOLVEIT.INFINISEE\_REAGENT1\_SMILES>  (1410) 
ClC(=O)Cc1c(OC)cccc1

>  <s_sd_BIOSOLVEIT.INFINISEE\_REAGENT2\_NAME>  (1410) 
EMOL13728749

>  <s_sd_BIOSOLVEIT.INFINISEE\_REAGENT2\_SMILES>  (1410) 
Brc1c(N)c2c(nc1)cccc2

>  <s_sd_BIOSOLVEIT.INFINISEE\_REAGENT3\_NAME>  (1410) 
EMOL44153840

>  <s_sd_BIOSOLVEIT.INFINISEE\_REAGENT3\_SMILES>  (1410) 
N(Cc1cc(ccc1)CN)(CC)CC

>  <s_sd_BIOSOLVEIT.INFINISEE\_SPACE>  (1410) 
eXplore_7tr_2022-12

>  <s_vsw_compound_code>  (1410) 
77315

>  <s_vsw_variant>  (1410) 
77315-1

>  <r_epik_Charging_Adjusted_Penalty>  (1410) 
0.054738710490287598

>  <r_epik_Ionization_Penalty>  (1410) 
0.036799999999999999

>  <r_epik_Ionization_Penalty_Charging>  (1410) 
0.017999999999999999

>  <r_epik_Ionization_Penalty_Neutral>  (1410) 
0.018800000000000001

>  <r_epik_State_Penalty>  (1410) 
0.036799999999999999

>  <r_i_docking_score>  (1410) 
-3.8615472601887002

>  <r_i_glide_ecoul>  (1410) 
-10.701078414916999

>  <r_i_glide_eff_state_penalty>  (1410) 
0.036799999999999999

>  <r_i_glide_einternal>  (1410) 
1.28593957424164

>  <r_i_glide_emodel>  (1410) 
-57.018643946528201

>  <r_i_glide_energy>  (1410) 
-44.332986831665004

>  <r_i_glide_erotb>  (1410) 
0.78120818554331595

>  <r_i_glide_esite>  (1410) 
-0.174368725042094

>  <r_i_glide_evdw>  (1410) 
-33.631908416747997

>  <r_i_glide_gscore>  (1410) 
-3.8983472601887001

>  <r_i_glide_hbond>  (1410) 
-0.16

>  <r_i_glide_ligand_efficiency>  (1410) 
-0.10726520167190801

>  <r_i_glide_ligand_efficiency_ln>  (1410) 
-0.84248528522266897

>  <r_i_glide_ligand_efficiency_sa>  (1410) 
-0.35418189183557902

>  <r_i_glide_lipo>  (1410) 
-0.94677840125133494

>  <r_i_glide_metal>  (1410) 
-0

>  <r_i_glide_rewards>  (1410) 
-0.111651136363634

>  <r_lp_Energy>  (1410) 
36.995790999999997

>  <r_lp_tautomer_probability>  (1410) 
1

>  <r_qp_ACxDN^.5/SA>  (1410) 
0.014915400000000001

>  <r_qp_CIQPlogS>  (1410) 
-6.3390000000000004

>  <r_qp_EA(eV)>  (1410) 
0.79300000000000004

>  <r_qp_FISA>  (1410) 
43.701999999999998

>  <r_qp_FOSA>  (1410) 
297.43599999999998

>  <r_qp_IP(eV)>  (1410) 
8.1709999999999994

>  <r_qp_Jm>  (1410) 
2.79867882905587

>  <r_qp_PISA>  (1410) 
346.27800000000002

>  <r_qp_PSA>  (1410) 
59.719999999999999

>  <r_qp_PercentHumanOralAbsorption>  (1410) 
100

>  <r_qp_QPPCaco>  (1410) 
951.41899999999998

>  <r_qp_QPPMDCK>  (1410) 
518.62400000000002

>  <r_qp_QPlogBB>  (1410) 
-0.065000000000000002

>  <r_qp_QPlogHERG>  (1410) 
-5.6230000000000002

>  <r_qp_QPlogKhsa>  (1410) 
0.64800000000000002

>  <r_qp_QPlogKp>  (1410) 
-2.1120000000000001

>  <r_qp_QPlogPC16>  (1410) 
14.603

>  <r_qp_QPlogPo/w>  (1410) 
4.7489999999999997

>  <r_qp_QPlogPoct>  (1410) 
22.713999999999999

>  <r_qp_QPlogPw>  (1410) 
11.67

>  <r_qp_QPlogS>  (1410) 
-3.125

>  <r_qp_QPpolrz>  (1410) 
47.427999999999997

>  <r_qp_SASA>  (1410) 
687.41600000000005

>  <r_qp_SAamideO>  (1410) 
0

>  <r_qp_SAfluorine>  (1410) 
0

>  <r_qp_WPSA>  (1410) 
0

>  <r_qp_accptHB>  (1410) 
7.25

>  <r_qp_dip^2/V>  (1410) 
0.015347299999999999

>  <r_qp_dipole>  (1410) 
4.6890000000000001

>  <r_qp_donorHB>  (1410) 
2

>  <r_qp_glob>  (1410) 
0.89410590000000001

>  <r_qp_mol_MW>  (1410) 
482.62400000000002

>  <r_qp_volume>  (1410) 
1432.732

>  <r_sd_BIOSOLVEIT.INFINISEE\_FTREES\_SIMILARITY>  (1410) 
0.91700000000000004

>  <r_sd_BIOSOLVEIT.LOGP>  (1410) 
4.4614000000000003

>  <r_sd_BIOSOLVEIT.MOLECULAR\_WEIGHT>  (1410) 
483.63299999999998

>  <r_sd_BIOSOLVEIT.TPSA>  (1410) 
67.689999999999998

>  <i_epik_Tot_Q>  (1410) 
1

>  <i_epik_Tot_abs_Q>  (1410) 
1

>  <i_f3d_flags>  (1410) 
0

>  <i_i_glide_confnum>  (1410) 
17

>  <i_i_glide_lignum>  (1410) 
1030

>  <i_i_glide_posenum>  (1410) 
11

>  <i_i_glide_rotatable_bonds>  (1410) 
12

>  <i_lp_mmshare_version>  (1410) 
65135

>  <i_m_ct_format>  (1410) 
2

>  <i_m_source_file_index>  (1410) 
2417

>  <i_qp_#NandO>  (1410) 
6

>  <i_qp_#acid>  (1410) 
0

>  <i_qp_#amide>  (1410) 
0

>  <i_qp_#amidine>  (1410) 
0

>  <i_qp_#amine>  (1410) 
1

>  <i_qp_#in34>  (1410) 
0

>  <i_qp_#in56>  (1410) 
22

>  <i_qp_#metab>  (1410) 
8

>  <i_qp_#nonHatm>  (1410) 
36

>  <i_qp_#noncon>  (1410) 
0

>  <i_qp_#ringatoms>  (1410) 
22

>  <i_qp_#rotor>  (1410) 
11

>  <i_qp_#rtvFG>  (1410) 
0

>  <i_qp_#stars>  (1410) 
0

>  <i_qp_CNS>  (1410) 
1

>  <i_qp_HumanOralAbsorption>  (1410) 
3

>  <i_qp_RuleOfFive>  (1410) 
0

>  <i_qp_RuleOfThree>  (1410) 
1

>  <i_sd_BIOSOLVEIT.INFINISEE\_RESULT\_RANK>  (1410) 
22160

>  <i_sd_version>  (1410) 
0

>  <b_lp_Chiralities_Consistent>  (1410) 
1

>  <b_sd_chiral_flag>  (1410) 
0

>  <canonical_id>  (1410) 
ATP-HTVS-DED96A59EB26

>  <compound_code>  (1410) 
77315

>  <title>  (1410) 
rxn502b____EMOL32280493____EMOL13728749____EMOL44153840

>  <variant>  (1410) 
77315-1

>  <source_file>  (1410) 
运行/运行/ATP-VSW/ATP-VSW-DOCK_HTVS_1-003_lib/ATP-VSW-DOCK_HTVS_1-003_lib.mae

>  <canonical_smiles>  (1410) 
CC[NH+](CC)Cc1cccc(CNc2cnc3ccccc3c2NC(=O)Cc2ccccc2OC)c1

>  <scaffold>  (1410) 
O=C(Cc1ccccc1)Nc1c(NCc2ccccc2)cnc2ccccc12

>  <molecular_formula>  (1410) 
C30H35N4O2+

$$$$
ATP-HTVS-DF13A29C86DC
     RDKit          3D

 59 62  0  0  0  0  0  0  0  0999 V2000
  196.1083  186.2167  159.3666 F   0  0  0  0  0  0  0  0  0  0  0  0
  195.8905  184.9601  158.9121 C   0  0  0  0  0  0  0  0  0  0  0  0
  196.7498  184.3832  157.9482 C   0  0  0  0  0  0  0  0  0  0  0  0
  197.8480  185.2045  157.4500 C   0  0  0  0  0  0  0  0  0  0  0  0
  198.7171  185.8598  157.0584 N   0  0  0  0  0  0  0  0  0  0  0  0
  196.4899  183.0608  157.4898 C   0  0  0  0  0  0  0  0  0  0  0  0
  195.3867  182.3492  158.0206 C   0  0  0  0  0  0  0  0  0  0  0  0
  194.5328  182.9422  158.9526 C   0  0  0  0  0  0  0  0  0  0  0  0
  194.7844  184.2453  159.4047 C   0  0  0  0  0  0  0  0  0  0  0  0
  197.3397  182.3724  156.4507 C   0  0  0  0  0  0  0  0  0  0  0  0
  198.5365  182.6087  156.3097 O   0  0  0  0  0  0  0  0  0  0  0  0
  196.6713  181.4944  155.6667 N   0  0  0  0  0  0  0  0  0  0  0  0
  197.2106  180.7599  154.5651 C   0  0  0  0  0  0  0  0  0  0  0  0
  196.6006  180.8858  153.3474 N   0  0  0  0  0  0  0  0  0  0  0  0
  197.0897  180.1442  152.3221 C   0  0  0  0  0  0  0  0  0  0  0  0
  198.1754  179.2198  152.4975 C   0  0  0  0  0  0  0  0  0  0  0  0
  198.7304  179.0115  153.7527 C   0  0  0  0  0  0  0  0  0  0  0  0
  198.2941  179.8184  154.8057 C   0  0  0  0  0  0  0  0  0  0  0  0
  198.8183  179.6087  156.1080 N   0  0  0  0  0  0  0  0  0  0  0  0
  200.2661  179.5470  156.3339 C   0  0  1  0  0  0  0  0  0  0  0  0
  200.8798  178.1976  155.9634 C   0  0  0  0  0  0  0  0  0  0  0  0
  200.8284  177.1252  156.8512 C   0  0  0  0  0  0  0  0  0  0  0  0
  201.2425  175.8305  156.4226 C   0  0  0  0  0  0  0  0  0  0  0  0
  201.7240  175.6522  155.0986 C   0  0  0  0  0  0  0  0  0  0  0  0
  201.7888  176.7298  154.2282 C   0  0  0  0  0  0  0  0  0  0  0  0
  201.4220  178.0383  154.6670 C   0  0  0  0  0  0  0  0  0  0  0  0
  202.1374  174.2688  154.6083 C   0  0  1  0  0  0  0  0  0  0  0  0
  201.1331  173.6003  153.7292 N   0  0  1  0  0  0  0  0  0  0  0  0
  200.8299  174.3199  152.4579 C   0  0  2  0  0  0  0  0  0  0  0  0
  201.5057  172.1878  153.4577 C   0  0  2  0  0  0  0  0  0  0  0  0
  198.6689  178.4638  151.4091 C   0  0  0  0  0  0  0  0  0  0  0  0
  198.1093  178.5690  150.1292 C   0  0  0  0  0  0  0  0  0  0  0  0
  197.0313  179.4487  149.9359 C   0  0  0  0  0  0  0  0  0  0  0  0
  196.5223  180.2255  151.0177 C   0  0  0  0  0  0  0  0  0  0  0  0
  195.1461  181.3448  157.7020 H   0  0  0  0  0  0  0  0  0  0  0  0
  193.6817  182.3860  159.3108 H   0  0  0  0  0  0  0  0  0  0  0  0
  194.1275  184.6986  160.1329 H   0  0  0  0  0  0  0  0  0  0  0  0
  195.6743  181.3597  155.8634 H   0  0  0  0  0  0  0  0  0  0  0  0
  199.3969  178.1645  153.8807 H   0  0  0  0  0  0  0  0  0  0  0  0
  198.3094  179.9641  156.9012 H   0  0  0  0  0  0  0  0  0  0  0  0
  200.7984  180.3390  155.7965 H   0  0  0  0  0  0  0  0  0  0  0  0
  200.4813  179.7078  157.3945 H   0  0  0  0  0  0  0  0  0  0  0  0
  200.3943  177.2449  157.8346 H   0  0  0  0  0  0  0  0  0  0  0  0
  201.2075  175.0349  157.1284 H   0  0  0  0  0  0  0  0  0  0  0  0
  202.0965  176.6461  153.1991 H   0  0  0  0  0  0  0  0  0  0  0  0
  201.4493  178.8637  153.9711 H   0  0  0  0  0  0  0  0  0  0  0  0
  203.0769  174.3857  154.0744 H   0  0  0  0  0  0  0  0  0  0  0  0
  202.3427  173.6491  155.4760 H   0  0  0  0  0  0  0  0  0  0  0  0
  201.7512  174.4388  151.8729 H   0  0  0  0  0  0  0  0  0  0  0  0
  200.3983  175.3088  152.6559 H   0  0  0  0  0  0  0  0  0  0  0  0
  200.0988  173.7680  151.8511 H   0  0  0  0  0  0  0  0  0  0  0  0
  202.4627  172.1297  152.9409 H   0  0  0  0  0  0  0  0  0  0  0  0
  200.7521  171.7188  152.8179 H   0  0  0  0  0  0  0  0  0  0  0  0
  201.5968  171.6133  154.3830 H   0  0  0  0  0  0  0  0  0  0  0  0
  199.4901  177.7940  151.5716 H   0  0  0  0  0  0  0  0  0  0  0  0
  198.5144  177.9704  149.3033 H   0  0  0  0  0  0  0  0  0  0  0  0
  196.6009  179.5354  148.9516 H   0  0  0  0  0  0  0  0  0  0  0  0
  195.6776  180.9012  150.8514 H   0  0  0  0  0  0  0  0  0  0  0  0
  200.2717  173.5663  154.2598 H   0  0  0  0  0  0  0  0  0  0  0  0
  1  2  1  0
  2  3  2  0
  2  9  1  0
  3  4  1  0
  3  6  1  0
  4  5  3  0
  6  7  2  0
  6 10  1  0
  7  8  1  0
  7 35  1  0
  8  9  2  0
  8 36  1  0
  9 37  1  0
 10 11  2  0
 10 12  1  0
 12 13  1  0
 12 38  1  0
 13 14  2  0
 13 18  1  0
 14 15  1  0
 15 16  1  0
 15 34  2  0
 16 17  1  0
 16 31  2  0
 17 18  2  0
 17 39  1  0
 18 19  1  0
 19 20  1  0
 19 40  1  0
 20 21  1  0
 20 41  1  6
 20 42  1  0
 21 22  1  0
 21 26  2  0
 22 23  2  0
 22 43  1  0
 23 24  1  0
 23 44  1  0
 24 25  2  0
 24 27  1  0
 25 26  1  0
 25 45  1  0
 26 46  1  0
 27 28  1  0
 27 47  1  6
 27 48  1  0
 28 29  1  0
 28 30  1  0
 28 59  1  1
 29 49  1  6
 29 50  1  0
 29 51  1  0
 30 52  1  6
 30 53  1  0
 30 54  1  0
 31 32  1  0
 31 55  1  0
 32 33  2  0
 32 56  1  0
 33 34  1  0
 33 57  1  0
 34 58  1  0
M  CHG  1  28   1
M  END
>  <s_epik_cmdline>  (1411) 
J2VwaWtfcHl0aG9uJywgJy1waCcsICc3LjAwMDAwMCcsICctcGh0JywgJzIuMDAwMDAwJywgJy1tcycsICcxNicsICctdG4nLCAnOCcsICctbWEnLCAnMjAwJywgJy1pbWFlJywgJzxpbmZpbGUubWFlPicsICctb21hZScsICc8b3V0ZmlsZS5tYWU+Jw==

>  <s_epik_input>  (1411) 
RmMxYyhDI04pYyhbY0hdW2NIXVtjSF0xKUMoPU8pW05IXWMobjIpYyhbY0hdYyhjMjMpW2NIXVtjSF1bY0hdW2NIXTMpW05IXVtDSDJdYzRbY0hdW2NIXWMoW2NIXVtjSF00KVtDSDJdTihbQ0gzXSlbQ0gzXQ==

>  <s_i_glide_gridfile>  (1411) 
ATP-Grid

>  <s_lp_Force_Field>  (1411) 
OPLS_2005

>  <s_lp_Variant>  (1411) 
rxn502b____EMOL44385606____EMOL44466703____EMOL50155899-1

>  <s_lp_label>  (1411) 
2326_sdstereoexpander_1_neutralizer_1_epik_1_stereoizer_1

>  <s_m_source_file>  (1411) 
ATP-VSW-LIGPREP-003-in.maegz

>  <s_sd_BIOSOLVEIT.INFINISEE\_QUERY\_NAME>  (1411) 
Ref-Lig

>  <s_sd_BIOSOLVEIT.INFINISEE\_QUERY\_SMILES>  (1411) 
S(c1nc2c(cc1C[NH2+]Cc3ccc(cc3)C[NH+](C)C)cccc2)Cc4ccccc4

>  <s_sd_BIOSOLVEIT.INFINISEE\_REACTION\_NAME>  (1411) 
rxn502b

>  <s_sd_BIOSOLVEIT.INFINISEE\_REAGENT1\_NAME>  (1411) 
EMOL44385606

>  <s_sd_BIOSOLVEIT.INFINISEE\_REAGENT1\_SMILES>  (1411) 
Fc1c(C#N)c(ccc1)C(=O)O

>  <s_sd_BIOSOLVEIT.INFINISEE\_REAGENT2\_NAME>  (1411) 
EMOL44466703

>  <s_sd_BIOSOLVEIT.INFINISEE\_REAGENT2\_SMILES>  (1411) 
Brc1c(nc2c(c1)cccc2)N

>  <s_sd_BIOSOLVEIT.INFINISEE\_REAGENT3\_NAME>  (1411) 
EMOL50155899

>  <s_sd_BIOSOLVEIT.INFINISEE\_REAGENT3\_SMILES>  (1411) 
N(Cc1ccc(cc1)CN)(C)C

>  <s_sd_BIOSOLVEIT.INFINISEE\_SPACE>  (1411) 
eXplore_7tr_2022-12

>  <s_vsw_compound_code>  (1411) 
74403

>  <s_vsw_variant>  (1411) 
74403-1

>  <r_epik_Charging_Adjusted_Penalty>  (1411) 
0.078469348875319506

>  <r_epik_Ionization_Penalty>  (1411) 
0.040800000000000003

>  <r_epik_Ionization_Penalty_Charging>  (1411) 
0.039199999999999999

>  <r_epik_Ionization_Penalty_Neutral>  (1411) 
0.0016000000000000001

>  <r_epik_State_Penalty>  (1411) 
0.039300000000000002

>  <r_i_docking_score>  (1411) 
-4.75652940885682

>  <r_i_glide_ecoul>  (1411) 
-6.4285049438476598

>  <r_i_glide_eff_state_penalty>  (1411) 
0.039300000000000002

>  <r_i_glide_einternal>  (1411) 
10.5940856933594

>  <r_i_glide_emodel>  (1411) 
-59.190896760815598

>  <r_i_glide_energy>  (1411) 
-46.839847564697301

>  <r_i_glide_erotb>  (1411) 
0.68044991927848297

>  <r_i_glide_esite>  (1411) 
-0.17596007792402399

>  <r_i_glide_evdw>  (1411) 
-40.411342620849602

>  <r_i_glide_gscore>  (1411) 
-4.7958294088568199

>  <r_i_glide_hbond>  (1411) 
0

>  <r_i_glide_ligand_efficiency>  (1411) 
-0.13989792378990701

>  <r_i_glide_ligand_efficiency_ln>  (1411) 
-1.05085076254729

>  <r_i_glide_ligand_efficiency_sa>  (1411) 
-0.45321496435126601

>  <r_i_glide_lipo>  (1411) 
-1.6517702587524501

>  <r_i_glide_metal>  (1411) 
-0

>  <r_i_glide_rewards>  (1411) 
-0.66370611883920205

>  <r_lp_Energy>  (1411) 
32.309435000000001

>  <r_qp_ACxDN^.5/SA>  (1411) 
0.0135677

>  <r_qp_CIQPlogS>  (1411) 
-6.4640000000000004

>  <r_qp_EA(eV)>  (1411) 
1.1499999999999999

>  <r_qp_FISA>  (1411) 
118.13500000000001

>  <r_qp_FOSA>  (1411) 
210.209

>  <r_qp_IP(eV)>  (1411) 
8.3059999999999992

>  <r_qp_Jm>  (1411) 
1.83671242499223e-05

>  <r_qp_PISA>  (1411) 
464.83600000000001

>  <r_qp_PSA>  (1411) 
86.076999999999998

>  <r_qp_PercentHumanOralAbsorption>  (1411) 
93.558000000000007

>  <r_qp_QPPCaco>  (1411) 
187.29300000000001

>  <r_qp_QPPMDCK>  (1411) 
149.56100000000001

>  <r_qp_QPlogBB>  (1411) 
-0.80500000000000005

>  <r_qp_QPlogHERG>  (1411) 
-8.4529999999999994

>  <r_qp_QPlogKhsa>  (1411) 
0.66200000000000003

>  <r_qp_QPlogKp>  (1411) 
-3.3540000000000001

>  <r_qp_QPlogPC16>  (1411) 
16.609999999999999

>  <r_qp_QPlogPo/w>  (1411) 
4.4299999999999997

>  <r_qp_QPlogPoct>  (1411) 
26.617000000000001

>  <r_qp_QPlogPw>  (1411) 
14.75

>  <r_qp_QPlogS>  (1411) 
-7.0389999999999997

>  <r_qp_QPpolrz>  (1411) 
52.491

>  <r_qp_SASA>  (1411) 
833.87199999999996

>  <r_qp_SAamideO>  (1411) 
0

>  <r_qp_SAfluorine>  (1411) 
40.692

>  <r_qp_WPSA>  (1411) 
40.692

>  <r_qp_accptHB>  (1411) 
8

>  <r_qp_dip^2/V>  (1411) 
0.12332410000000001

>  <r_qp_dipole>  (1411) 
13.523

>  <r_qp_donorHB>  (1411) 
2

>  <r_qp_glob>  (1411) 
0.75414939999999997

>  <r_qp_mol_MW>  (1411) 
453.51799999999997

>  <r_qp_volume>  (1411) 
1482.817

>  <r_sd_BIOSOLVEIT.INFINISEE\_FTREES\_SIMILARITY>  (1411) 
0.92200000000000004

>  <r_sd_BIOSOLVEIT.LOGP>  (1411) 
3.75448

>  <r_sd_BIOSOLVEIT.MOLECULAR\_WEIGHT>  (1411) 
454.52699999999999

>  <r_sd_BIOSOLVEIT.TPSA>  (1411) 
82.25

>  <i_epik_Tot_Q>  (1411) 
1

>  <i_epik_Tot_abs_Q>  (1411) 
1

>  <i_f3d_flags>  (1411) 
0

>  <i_i_glide_confnum>  (1411) 
6

>  <i_i_glide_lignum>  (1411) 
967

>  <i_i_glide_posenum>  (1411) 
19

>  <i_i_glide_rotatable_bonds>  (1411) 
8

>  <i_lp_mmshare_version>  (1411) 
65135

>  <i_m_ct_format>  (1411) 
2

>  <i_m_source_file_index>  (1411) 
2326

>  <i_qp_#NandO>  (1411) 
6

>  <i_qp_#acid>  (1411) 
0

>  <i_qp_#amide>  (1411) 
0

>  <i_qp_#amidine>  (1411) 
0

>  <i_qp_#amine>  (1411) 
1

>  <i_qp_#in34>  (1411) 
0

>  <i_qp_#in56>  (1411) 
22

>  <i_qp_#metab>  (1411) 
5

>  <i_qp_#nonHatm>  (1411) 
34

>  <i_qp_#noncon>  (1411) 
0

>  <i_qp_#ringatoms>  (1411) 
22

>  <i_qp_#rotor>  (1411) 
8

>  <i_qp_#rtvFG>  (1411) 
0

>  <i_qp_#stars>  (1411) 
3

>  <i_qp_CNS>  (1411) 
0

>  <i_qp_HumanOralAbsorption>  (1411) 
1

>  <i_qp_RuleOfFive>  (1411) 
0

>  <i_qp_RuleOfThree>  (1411) 
1

>  <i_sd_BIOSOLVEIT.INFINISEE\_RESULT\_RANK>  (1411) 
13622

>  <i_sd_version>  (1411) 
0

>  <b_lp_Chiralities_Consistent>  (1411) 
1

>  <b_sd_chiral_flag>  (1411) 
0

>  <canonical_id>  (1411) 
ATP-HTVS-DF13A29C86DC

>  <compound_code>  (1411) 
74403

>  <title>  (1411) 
rxn502b____EMOL44385606____EMOL44466703____EMOL50155899

>  <variant>  (1411) 
74403-1

>  <source_file>  (1411) 
运行/运行/ATP-VSW/ATP-VSW-DOCK_HTVS_1-003_lib/ATP-VSW-DOCK_HTVS_1-003_lib.mae

>  <canonical_smiles>  (1411) 
C[NH+](C)Cc1ccc(CNc2cc3ccccc3nc2NC(=O)c2cccc(F)c2C#N)cc1

>  <scaffold>  (1411) 
O=C(Nc1nc2ccccc2cc1NCc1ccccc1)c1ccccc1

>  <molecular_formula>  (1411) 
C27H25FN5O+

$$$$
ATP-HTVS-DF25A3EF4846
     RDKit          3D

 49 51  0  0  0  0  0  0  0  0999 V2000
  193.1709  186.8684  162.1761 Br  0  0  0  0  0  0  0  0  0  0  0  0
  194.5096  186.2928  160.9533 C   0  0  0  0  0  0  0  0  0  0  0  0
  194.3232  185.1397  160.1310 C   0  0  0  0  0  0  0  0  0  0  0  0
  195.3315  184.7652  159.2013 C   0  0  0  0  0  0  0  0  0  0  0  0
  196.5379  185.5085  159.1366 C   0  0  0  0  0  0  0  0  0  0  0  0
  196.7357  186.6449  159.9712 C   0  0  0  0  0  0  0  0  0  0  0  0
  195.7216  187.0192  160.8778 C   0  0  0  0  0  0  0  0  0  0  0  0
  197.6415  185.0707  158.2008 C   0  0  1  0  0  0  0  0  0  0  0  0
  198.8343  184.7639  158.8765 O   0  0  0  0  0  0  0  0  0  0  0  0
  199.7942  185.7237  159.0703 C   0  0  0  0  0  0  0  0  0  0  0  0
  200.9761  185.3113  159.7160 C   0  0  0  0  0  0  0  0  0  0  0  0
  201.9532  186.1921  160.0880 N   0  0  0  0  0  0  0  0  0  0  0  0
  201.7663  187.4987  159.7913 C   0  0  0  0  0  0  0  0  0  0  0  0
  200.6341  187.9919  159.1222 C   0  0  0  0  0  0  0  0  0  0  0  0
  199.6564  187.0894  158.7114 C   0  0  0  0  0  0  0  0  0  0  0  0
  201.1925  183.9591  160.0449 N   0  0  0  0  0  0  0  0  0  0  0  0
  201.3638  182.8965  159.1246 C   0  0  0  0  0  0  0  0  0  0  0  0
  200.6645  182.8566  157.8841 C   0  0  0  0  0  0  0  0  0  0  0  0
  200.7385  181.7313  157.0453 C   0  0  0  0  0  0  0  0  0  0  0  0
  201.6071  180.6795  157.3676 C   0  0  0  0  0  0  0  0  0  0  0  0
  202.3868  180.7284  158.5408 C   0  0  0  0  0  0  0  0  0  0  0  0
  202.2422  181.8286  159.4187 C   0  0  0  0  0  0  0  0  0  0  0  0
  201.7213  179.5087  156.3876 C   0  0  1  0  0  0  0  0  0  0  0  0
  200.7338  178.4343  156.6738 N   0  0  1  0  0  0  0  0  0  0  0  0
  200.7030  177.4241  155.5900 C   0  0  2  0  0  0  0  0  0  0  0  0
  200.9353  177.8035  157.9974 C   0  0  2  0  0  0  0  0  0  0  0  0
  193.4049  184.5432  160.2089 H   0  0  0  0  0  0  0  0  0  0  0  0
  195.2095  183.8681  158.6146 H   0  0  0  0  0  0  0  0  0  0  0  0
  197.6707  187.1925  160.0059 H   0  0  0  0  0  0  0  0  0  0  0  0
  195.9138  187.8590  161.5217 H   0  0  0  0  0  0  0  0  0  0  0  0
  197.3630  184.1597  157.6865 H   0  0  0  0  0  0  0  0  0  0  0  0
  197.7980  185.7915  157.3950 H   0  0  0  0  0  0  0  0  0  0  0  0
  202.5340  188.2099  160.1429 H   0  0  0  0  0  0  0  0  0  0  0  0
  200.4872  189.0448  158.9694 H   0  0  0  0  0  0  0  0  0  0  0  0
  198.7859  187.4730  158.1900 H   0  0  0  0  0  0  0  0  0  0  0  0
  201.7325  183.8723  160.9091 H   0  0  0  0  0  0  0  0  0  0  0  0
  200.0131  183.6542  157.5121 H   0  0  0  0  0  0  0  0  0  0  0  0
  200.1068  181.6729  156.1738 H   0  0  0  0  0  0  0  0  0  0  0  0
  203.0878  179.9289  158.7655 H   0  0  0  0  0  0  0  0  0  0  0  0
  202.8284  181.8324  160.3305 H   0  0  0  0  0  0  0  0  0  0  0  0
  201.5363  179.9063  155.3876 H   0  0  0  0  0  0  0  0  0  0  0  0
  202.7419  179.1178  156.3747 H   0  0  0  0  0  0  0  0  0  0  0  0
  201.6879  176.9651  155.4742 H   0  0  0  0  0  0  0  0  0  0  0  0
  200.4234  177.8816  154.6387 H   0  0  0  0  0  0  0  0  0  0  0  0
  199.9779  176.6367  155.8170 H   0  0  0  0  0  0  0  0  0  0  0  0
  201.9366  177.3758  158.0506 H   0  0  0  0  0  0  0  0  0  0  0  0
  200.1934  177.0283  158.1897 H   0  0  0  0  0  0  0  0  0  0  0  0
  200.8473  178.5255  158.8045 H   0  0  0  0  0  0  0  0  0  0  0  0
  199.8091  178.8528  156.7003 H   0  0  0  0  0  0  0  0  0  0  0  0
  1  2  1  0
  2  3  1  0
  2  7  2  0
  3  4  2  0
  3 27  1  0
  4  5  1  0
  4 28  1  0
  5  6  2  0
  5  8  1  0
  6  7  1  0
  6 29  1  0
  7 30  1  0
  8  9  1  0
  8 31  1  6
  8 32  1  0
  9 10  1  0
 10 11  2  0
 10 15  1  0
 11 12  1  0
 11 16  1  0
 12 13  2  0
 13 14  1  0
 13 33  1  0
 14 15  2  0
 14 34  1  0
 15 35  1  0
 16 17  1  0
 16 36  1  0
 17 18  1  0
 17 22  2  0
 18 19  2  0
 18 37  1  0
 19 20  1  0
 19 38  1  0
 20 21  2  0
 20 23  1  0
 21 22  1  0
 21 39  1  0
 22 40  1  0
 23 24  1  0
 23 41  1  6
 23 42  1  0
 24 25  1  0
 24 26  1  0
 24 49  1  1
 25 43  1  6
 25 44  1  0
 25 45  1  0
 26 46  1  6
 26 47  1  0
 26 48  1  0
M  CHG  1  24   1
M  END
>  <s_epik_cmdline>  (1412) 
J2VwaWtfcHl0aG9uJywgJy1waCcsICc3LjAwMDAwMCcsICctcGh0JywgJzIuMDAwMDAwJywgJy1tcycsICcxNicsICctdG4nLCAnOCcsICctbWEnLCAnMjAwJywgJy1pbWFlJywgJzxpbmZpbGUubWFlPicsICctb21hZScsICc8b3V0ZmlsZS5tYWU+Jw==

>  <s_epik_input>  (1412) 
QnJjMVtjSF1bY0hdYyhbY0hdW2NIXTEpW0NIMl1PYzJjKG5bY0hdW2NIXVtjSF0yKVtOSF1jM1tjSF1bY0hdYyhbY0hdW2NIXTMpW0NIMl1OKFtDSDNdKVtDSDNd

>  <s_i_glide_gridfile>  (1412) 
ATP-Grid

>  <s_lp_Force_Field>  (1412) 
OPLS_2005

>  <s_lp_Variant>  (1412) 
rxn102b____EMOL2732950____EMOL36800816-1

>  <s_lp_label>  (1412) 
2890_sdstereoexpander_1_neutralizer_1_epik_1_stereoizer_1

>  <s_m_source_file>  (1412) 
ATP-VSW-LIGPREP-002-in.maegz

>  <s_sd_BIOSOLVEIT.INFINISEE\_QUERY\_NAME>  (1412) 
Ref-Lig

>  <s_sd_BIOSOLVEIT.INFINISEE\_QUERY\_SMILES>  (1412) 
S(c1nc2c(cc1C[NH2+]Cc3ccc(cc3)C[NH+](C)C)cccc2)Cc4ccccc4

>  <s_sd_BIOSOLVEIT.INFINISEE\_REACTION\_NAME>  (1412) 
rxn102b

>  <s_sd_BIOSOLVEIT.INFINISEE\_REAGENT1\_NAME>  (1412) 
EMOL2732950

>  <s_sd_BIOSOLVEIT.INFINISEE\_REAGENT1\_SMILES>  (1412) 
Brc1ccc(cc1)CN(C)C

>  <s_sd_BIOSOLVEIT.INFINISEE\_REAGENT2\_NAME>  (1412) 
EMOL36800816

>  <s_sd_BIOSOLVEIT.INFINISEE\_REAGENT2\_SMILES>  (1412) 
Brc1ccc(cc1)COc2c(nccc2)N

>  <s_sd_BIOSOLVEIT.INFINISEE\_SPACE>  (1412) 
eXplore_7tr_2022-12

>  <s_vsw_compound_code>  (1412) 
92450

>  <s_vsw_variant>  (1412) 
92450-1

>  <r_epik_Charging_Adjusted_Penalty>  (1412) 
0.115746795039494

>  <r_epik_Ionization_Penalty>  (1412) 
0.081299999999999997

>  <r_epik_Ionization_Penalty_Charging>  (1412) 
0.037100000000000001

>  <r_epik_Ionization_Penalty_Neutral>  (1412) 
0.044200000000000003

>  <r_epik_State_Penalty>  (1412) 
0.078700000000000006

>  <r_i_docking_score>  (1412) 
-4.6528216184112097

>  <r_i_glide_ecoul>  (1412) 
-7.05239009857178

>  <r_i_glide_eff_state_penalty>  (1412) 
0.078700000000000006

>  <r_i_glide_einternal>  (1412) 
9.2061986923217791

>  <r_i_glide_emodel>  (1412) 
-49.074324885045101

>  <r_i_glide_energy>  (1412) 
-37.791796684265101

>  <r_i_glide_erotb>  (1412) 
0.69282285418884704

>  <r_i_glide_esite>  (1412) 
-0.0027892074898771698

>  <r_i_glide_evdw>  (1412) 
-30.739406585693398

>  <r_i_glide_gscore>  (1412) 
-4.7315216184112101

>  <r_i_glide_hbond>  (1412) 
0

>  <r_i_glide_ligand_efficiency>  (1412) 
-0.17895467763120099

>  <r_i_glide_ligand_efficiency_ln>  (1412) 
-1.0926998899308999

>  <r_i_glide_ligand_efficiency_sa>  (1412) 
-0.530152528329777

>  <r_i_glide_lipo>  (1412) 
-2.0108001937670199

>  <r_i_glide_metal>  (1412) 
-0

>  <r_i_glide_rewards>  (1412) 
-0.81592622727272701

>  <r_lp_Energy>  (1412) 
21.162610999999998

>  <r_lp_tautomer_probability>  (1412) 
0.99999940445316104

>  <r_qp_ACxDN^.5/SA>  (1412) 
0.0069595000000000004

>  <r_qp_CIQPlogS>  (1412) 
-5.9359999999999999

>  <r_qp_EA(eV)>  (1412) 
0.34599999999999997

>  <r_qp_FISA>  (1412) 
42.195999999999998

>  <r_qp_FOSA>  (1412) 
176.339

>  <r_qp_IP(eV)>  (1412) 
8.0050000000000008

>  <r_qp_Jm>  (1412) 
0.22476714116367899

>  <r_qp_PISA>  (1412) 
334.02600000000001

>  <r_qp_PSA>  (1412) 
33.128999999999998

>  <r_qp_PercentHumanOralAbsorption>  (1412) 
100

>  <r_qp_QPPCaco>  (1412) 
983.23000000000002

>  <r_qp_QPPMDCK>  (1412) 
1118.5070000000001

>  <r_qp_QPlogBB>  (1412) 
0.308

>  <r_qp_QPlogHERG>  (1412) 
-6.0099999999999998

>  <r_qp_QPlogKhsa>  (1412) 
0.624

>  <r_qp_QPlogKp>  (1412) 
-2.5110000000000001

>  <r_qp_QPlogPC16>  (1412) 
12.186

>  <r_qp_QPlogPo/w>  (1412) 
4.4960000000000004

>  <r_qp_QPlogPoct>  (1412) 
16.462

>  <r_qp_QPlogPw>  (1412) 
7.875

>  <r_qp_QPlogS>  (1412) 
-3.7519999999999998

>  <r_qp_QPpolrz>  (1412) 
38.350000000000001

>  <r_qp_SASA>  (1412) 
610.67499999999995

>  <r_qp_SAamideO>  (1412) 
0

>  <r_qp_SAfluorine>  (1412) 
0

>  <r_qp_WPSA>  (1412) 
58.113999999999997

>  <r_qp_accptHB>  (1412) 
4.25

>  <r_qp_dip^2/V>  (1412) 
0.0040660000000000002

>  <r_qp_dipole>  (1412) 
2.157

>  <r_qp_donorHB>  (1412) 
1

>  <r_qp_glob>  (1412) 
0.86656429999999995

>  <r_qp_mol_MW>  (1412) 
412.32799999999997

>  <r_qp_volume>  (1412) 
1144.6389999999999

>  <r_sd_BIOSOLVEIT.INFINISEE\_FTREES\_SIMILARITY>  (1412) 
0.90500000000000003

>  <r_sd_BIOSOLVEIT.LOGP>  (1412) 
3.8111999999999999

>  <r_sd_BIOSOLVEIT.MOLECULAR\_WEIGHT>  (1412) 
413.33699999999999

>  <r_sd_BIOSOLVEIT.TPSA>  (1412) 
38.590000000000003

>  <i_epik_Tot_Q>  (1412) 
1

>  <i_epik_Tot_abs_Q>  (1412) 
1

>  <i_f3d_flags>  (1412) 
0

>  <i_i_glide_confnum>  (1412) 
1

>  <i_i_glide_lignum>  (1412) 
1430

>  <i_i_glide_posenum>  (1412) 
9

>  <i_i_glide_rotatable_bonds>  (1412) 
7

>  <i_lp_mmshare_version>  (1412) 
65135

>  <i_m_ct_format>  (1412) 
2

>  <i_m_source_file_index>  (1412) 
2890

>  <i_qp_#NandO>  (1412) 
4

>  <i_qp_#acid>  (1412) 
0

>  <i_qp_#amide>  (1412) 
0

>  <i_qp_#amidine>  (1412) 
0

>  <i_qp_#amine>  (1412) 
1

>  <i_qp_#in34>  (1412) 
0

>  <i_qp_#in56>  (1412) 
18

>  <i_qp_#metab>  (1412) 
6

>  <i_qp_#nonHatm>  (1412) 
26

>  <i_qp_#noncon>  (1412) 
0

>  <i_qp_#ringatoms>  (1412) 
18

>  <i_qp_#rotor>  (1412) 
7

>  <i_qp_#rtvFG>  (1412) 
0

>  <i_qp_#stars>  (1412) 
0

>  <i_qp_CNS>  (1412) 
1

>  <i_qp_HumanOralAbsorption>  (1412) 
3

>  <i_qp_RuleOfFive>  (1412) 
0

>  <i_qp_RuleOfThree>  (1412) 
0

>  <i_sd_BIOSOLVEIT.INFINISEE\_RESULT\_RANK>  (1412) 
73520

>  <i_sd_version>  (1412) 
0

>  <b_lp_Chiralities_Consistent>  (1412) 
1

>  <b_sd_chiral_flag>  (1412) 
0

>  <canonical_id>  (1412) 
ATP-HTVS-DF25A3EF4846

>  <compound_code>  (1412) 
92450

>  <title>  (1412) 
rxn102b____EMOL2732950____EMOL36800816

>  <variant>  (1412) 
92450-1

>  <source_file>  (1412) 
运行/运行/ATP-VSW/ATP-VSW-DOCK_HTVS_1-002_lib.maegz

>  <canonical_smiles>  (1412) 
C[NH+](C)Cc1ccc(Nc2ncccc2OCc2ccc(Br)cc2)cc1

>  <scaffold>  (1412) 
c1ccc(COc2cccnc2Nc2ccccc2)cc1

>  <molecular_formula>  (1412) 
C21H23BrN3O+

$$$$
ATP-HTVS-DF2EF65723F2
     RDKit          3D

 63 66  0  0  0  0  0  0  0  0999 V2000
  199.1146  184.7712  159.0334 S   0  0  0  0  0  0  0  0  0  0  0  0
  200.3012  183.4966  158.9763 C   0  0  0  0  0  0  0  0  0  0  0  0
  200.1630  182.7261  157.7664 C   0  0  0  0  0  0  0  0  0  0  0  0
  201.1369  181.7060  157.5623 C   0  0  0  0  0  0  0  0  0  0  0  0
  202.1972  181.4815  158.4757 C   0  0  0  0  0  0  0  0  0  0  0  0
  202.2817  182.2264  159.6719 C   0  0  0  0  0  0  0  0  0  0  0  0
  201.3118  183.2172  159.9267 C   0  0  0  0  0  0  0  0  0  0  0  0
  198.9830  183.1535  157.0042 C   0  0  0  0  0  0  0  0  0  0  0  0
  198.5673  182.5798  155.7968 N   0  0  0  0  0  0  0  0  0  0  0  0
  199.5188  182.1529  154.7919 C   0  0  1  0  0  0  0  0  0  0  0  0
  198.8442  181.5495  153.5950 C   0  0  0  0  0  0  0  0  0  0  0  0
  198.0580  180.3871  153.7411 C   0  0  0  0  0  0  0  0  0  0  0  0
  197.4624  179.7910  152.6088 C   0  0  0  0  0  0  0  0  0  0  0  0
  197.6469  180.3683  151.3310 C   0  0  0  0  0  0  0  0  0  0  0  0
  198.4127  181.5462  151.2033 C   0  0  0  0  0  0  0  0  0  0  0  0
  199.0315  182.1216  152.3310 C   0  0  0  0  0  0  0  0  0  0  0  0
  197.0231  179.7321  150.0984 C   0  0  1  0  0  0  0  0  0  0  0  0
  198.0150  179.0065  149.2575 N   0  0  1  0  0  0  0  0  0  0  0  0
  197.3711  178.1470  148.2356 C   0  0  2  0  0  0  0  0  0  0  0  0
  199.0329  179.8920  148.6384 C   0  0  2  0  0  0  0  0  0  0  0  0
  198.2959  184.1679  157.6176 C   0  0  0  0  0  0  0  0  0  0  0  0
  196.9902  184.7493  157.1327 C   0  0  1  0  0  0  0  0  0  0  0  0
  196.7454  186.1411  157.5443 N   0  0  0  0  0  0  0  0  0  0  0  0
  196.4260  186.5753  158.8053 C   0  0  0  0  0  0  0  0  0  0  0  0
  196.3055  187.7713  159.0428 O   0  0  0  0  0  0  0  0  0  0  0  0
  196.2367  185.6083  160.0031 C   0  0  1  0  0  0  0  0  0  0  0  0
  195.7045  184.2911  159.6646 N   0  0  0  0  0  0  0  0  0  0  0  0
  194.3783  184.0361  159.3157 C   0  0  0  0  0  0  0  0  0  0  0  0
  194.2730  182.7256  158.9297 C   0  0  0  0  0  0  0  0  0  0  0  0
  195.5781  182.1512  159.0173 C   0  0  0  0  0  0  0  0  0  0  0  0
  196.4333  183.1157  159.5400 C   0  0  0  0  0  0  0  0  0  0  0  0
  196.8725  187.0876  156.4292 C   0  0  2  0  0  0  0  0  0  0  0  0
  201.1142  181.0717  156.6921 H   0  0  0  0  0  0  0  0  0  0  0  0
  202.9530  180.7375  158.2286 H   0  0  0  0  0  0  0  0  0  0  0  0
  203.1003  182.0456  160.3580 H   0  0  0  0  0  0  0  0  0  0  0  0
  201.3654  183.7798  160.8504 H   0  0  0  0  0  0  0  0  0  0  0  0
  197.7219  182.9841  155.4142 H   0  0  0  0  0  0  0  0  0  0  0  0
  200.1507  182.9915  154.5061 H   0  0  0  0  0  0  0  0  0  0  0  0
  200.1409  181.3634  155.1833 H   0  0  0  0  0  0  0  0  0  0  0  0
  197.9189  179.9471  154.7188 H   0  0  0  0  0  0  0  0  0  0  0  0
  196.8636  178.8976  152.7372 H   0  0  0  0  0  0  0  0  0  0  0  0
  198.5539  182.0243  150.2407 H   0  0  0  0  0  0  0  0  0  0  0  0
  199.6625  182.9922  152.2122 H   0  0  0  0  0  0  0  0  0  0  0  0
  196.2385  179.0463  150.4225 H   0  0  0  0  0  0  0  0  0  0  0  0
  196.5289  180.5102  149.5154 H   0  0  0  0  0  0  0  0  0  0  0  0
  196.7532  178.7377  147.5564 H   0  0  0  0  0  0  0  0  0  0  0  0
  196.7504  177.3768  148.6900 H   0  0  0  0  0  0  0  0  0  0  0  0
  198.1251  177.6335  147.6370 H   0  0  0  0  0  0  0  0  0  0  0  0
  198.5516  180.6325  147.9982 H   0  0  0  0  0  0  0  0  0  0  0  0
  199.7378  179.3191  148.0325 H   0  0  0  0  0  0  0  0  0  0  0  0
  199.6215  180.4157  149.3941 H   0  0  0  0  0  0  0  0  0  0  0  0
  196.9544  184.6753  156.0351 H   0  0  0  0  0  0  0  0  0  0  0  0
  196.1555  184.1430  157.4394 H   0  0  0  0  0  0  0  0  0  0  0  0
  197.1803  185.4807  160.5354 H   0  0  0  0  0  0  0  0  0  0  0  0
  195.5663  186.0720  160.7298 H   0  0  0  0  0  0  0  0  0  0  0  0
  193.6464  184.8245  159.3474 H   0  0  0  0  0  0  0  0  0  0  0  0
  193.3810  182.2573  158.5251 H   0  0  0  0  0  0  0  0  0  0  0  0
  195.8687  181.1678  158.7151 H   0  0  0  0  0  0  0  0  0  0  0  0
  197.4792  183.0463  159.7740 H   0  0  0  0  0  0  0  0  0  0  0  0
  197.5151  187.9366  156.6736 H   0  0  0  0  0  0  0  0  0  0  0  0
  195.8889  187.4540  156.1326 H   0  0  0  0  0  0  0  0  0  0  0  0
  197.3158  186.6336  155.5402 H   0  0  0  0  0  0  0  0  0  0  0  0
  198.5133  178.3847  149.8787 H   0  0  0  0  0  0  0  0  0  0  0  0
  1  2  1  0
  1 21  1  0
  2  3  1  0
  2  7  2  0
  3  4  2  0
  3  8  1  0
  4  5  1  0
  4 33  1  0
  5  6  2  0
  5 34  1  0
  6  7  1  0
  6 35  1  0
  7 36  1  0
  8  9  1  0
  8 21  2  0
  9 10  1  0
  9 37  1  0
 10 11  1  0
 10 38  1  6
 10 39  1  0
 11 12  1  0
 11 16  2  0
 12 13  2  0
 12 40  1  0
 13 14  1  0
 13 41  1  0
 14 15  2  0
 14 17  1  0
 15 16  1  0
 15 42  1  0
 16 43  1  0
 17 18  1  0
 17 44  1  1
 17 45  1  0
 18 19  1  0
 18 20  1  0
 18 63  1  1
 19 46  1  6
 19 47  1  0
 19 48  1  0
 20 49  1  6
 20 50  1  0
 20 51  1  0
 21 22  1  0
 22 23  1  0
 22 52  1  6
 22 53  1  0
 23 24  1  0
 23 32  1  0
 24 25  2  0
 24 26  1  0
 26 27  1  0
 26 54  1  1
 26 55  1  0
 27 28  1  0
 27 31  1  0
 28 29  2  0
 28 56  1  0
 29 30  1  0
 29 57  1  0
 30 31  2  0
 30 58  1  0
 31 59  1  0
 32 60  1  1
 32 61  1  0
 32 62  1  0
M  CHG  1  18   1
M  END
>  <s_epik_cmdline>  (1413) 
J2VwaWtfcHl0aG9uJywgJy1waCcsICc3LjAwMDAwMCcsICctcGh0JywgJzIuMDAwMDAwJywgJy1tcycsICcxNicsICctdG4nLCAnOCcsICctbWEnLCAnMjAwJywgJy1pbWFlJywgJzxpbmZpbGUubWFlPicsICctb21hZScsICc8b3V0ZmlsZS5tYWU+Jw==

>  <s_epik_input>  (1413) 
W2NIXTFbY0hdW2NIXVtjSF1uMVtDSDJdQyg9TylOKFtDSDNdKVtDSDJdYyhzMiljKGMoYzIzKVtjSF1bY0hdW2NIXVtjSF0zKVtOSF1bQ0gyXWM0W2NIXVtjSF1jKFtjSF1bY0hdNClbQ0gyXU4oW0NIM10pW0NIM10=

>  <s_i_glide_gridfile>  (1413) 
ATP-Grid

>  <s_lp_Force_Field>  (1413) 
OPLS_2005

>  <s_lp_Variant>  (1413) 
rxn502c____EMOL707808____EMOL49259969____EMOL50155899-1

>  <s_lp_label>  (1413) 
2428_sdstereoexpander_1_neutralizer_1_epik_1_stereoizer_1

>  <s_m_source_file>  (1413) 
ATP-VSW-LIGPREP-003-in.maegz

>  <s_sd_BIOSOLVEIT.INFINISEE\_QUERY\_NAME>  (1413) 
Ref-Lig

>  <s_sd_BIOSOLVEIT.INFINISEE\_QUERY\_SMILES>  (1413) 
S(c1nc2c(cc1C[NH2+]Cc3ccc(cc3)C[NH+](C)C)cccc2)Cc4ccccc4

>  <s_sd_BIOSOLVEIT.INFINISEE\_REACTION\_NAME>  (1413) 
rxn502c

>  <s_sd_BIOSOLVEIT.INFINISEE\_REAGENT1\_NAME>  (1413) 
EMOL707808

>  <s_sd_BIOSOLVEIT.INFINISEE\_REAGENT1\_SMILES>  (1413) 
O=C(O)CN1C=CC=C1

>  <s_sd_BIOSOLVEIT.INFINISEE\_REAGENT2\_NAME>  (1413) 
EMOL49259969

>  <s_sd_BIOSOLVEIT.INFINISEE\_REAGENT2\_SMILES>  (1413) 
ClC=1c2c(SC1CNC)cccc2

>  <s_sd_BIOSOLVEIT.INFINISEE\_REAGENT3\_NAME>  (1413) 
EMOL50155899

>  <s_sd_BIOSOLVEIT.INFINISEE\_REAGENT3\_SMILES>  (1413) 
N(Cc1ccc(cc1)CN)(C)C

>  <s_sd_BIOSOLVEIT.INFINISEE\_SPACE>  (1413) 
eXplore_7tr_2022-12

>  <s_vsw_compound_code>  (1413) 
77667

>  <s_vsw_variant>  (1413) 
77667-1

>  <r_epik_Charging_Adjusted_Penalty>  (1413) 
0.080189274810459593

>  <r_epik_Ionization_Penalty>  (1413) 
0.040099999999999997

>  <r_epik_Ionization_Penalty_Charging>  (1413) 
0.040099999999999997

>  <r_epik_Ionization_Penalty_Neutral>  (1413) 
0

>  <r_epik_State_Penalty>  (1413) 
0.040099999999999997

>  <r_i_docking_score>  (1413) 
-4.0019792152298104

>  <r_i_glide_ecoul>  (1413) 
-3.2398142814636199

>  <r_i_glide_eff_state_penalty>  (1413) 
0.040099999999999997

>  <r_i_glide_einternal>  (1413) 
1.6452444791793801

>  <r_i_glide_emodel>  (1413) 
-50.533657689395802

>  <r_i_glide_energy>  (1413) 
-40.262946605682401

>  <r_i_glide_erotb>  (1413) 
0.79960111039747495

>  <r_i_glide_esite>  (1413) 
-0.0060309067334926199

>  <r_i_glide_evdw>  (1413) 
-37.0231323242188

>  <r_i_glide_gscore>  (1413) 
-4.0420792152298102

>  <r_i_glide_hbond>  (1413) 
0

>  <r_i_glide_ligand_efficiency>  (1413) 
-0.12506185047593199

>  <r_i_glide_ligand_efficiency_ln>  (1413) 
-0.89615223612324002

>  <r_i_glide_ligand_efficiency_sa>  (1413) 
-0.397046625554481

>  <r_i_glide_lipo>  (1413) 
-1.5264405022666501

>  <r_i_glide_metal>  (1413) 
-0

>  <r_i_glide_rewards>  (1413) 
-0.97208015819665905

>  <r_lp_Energy>  (1413) 
28.963241

>  <r_qp_ACxDN^.5/SA>  (1413) 
0.0079866999999999994

>  <r_qp_CIQPlogS>  (1413) 
-4.1550000000000002

>  <r_qp_EA(eV)>  (1413) 
0.82099999999999995

>  <r_qp_FISA>  (1413) 
44.646999999999998

>  <r_qp_FOSA>  (1413) 
310.48200000000003

>  <r_qp_IP(eV)>  (1413) 
8.3179999999999996

>  <r_qp_Jm>  (1413) 
0.0041263782548819402

>  <r_qp_PISA>  (1413) 
439.02499999999998

>  <r_qp_PSA>  (1413) 
45.930999999999997

>  <r_qp_PercentHumanOralAbsorption>  (1413) 
91.869

>  <r_qp_QPPCaco>  (1413) 
146.196

>  <r_qp_QPPMDCK>  (1413) 
160.35599999999999

>  <r_qp_QPlogBB>  (1413) 
0.36899999999999999

>  <r_qp_QPlogHERG>  (1413) 
-7.3710000000000004

>  <r_qp_QPlogKhsa>  (1413) 
0.64700000000000002

>  <r_qp_QPlogKp>  (1413) 
-4.0570000000000004

>  <r_qp_QPlogPC16>  (1413) 
15.962999999999999

>  <r_qp_QPlogPo/w>  (1413) 
4.4699999999999998

>  <r_qp_QPlogPoct>  (1413) 
22.864999999999998

>  <r_qp_QPlogPw>  (1413) 
12.728999999999999

>  <r_qp_QPlogS>  (1413) 
-3.9769999999999999

>  <r_qp_QPpolrz>  (1413) 
51.674999999999997

>  <r_qp_SASA>  (1413) 
813.85500000000002

>  <r_qp_SAamideO>  (1413) 
25.297999999999998

>  <r_qp_SAfluorine>  (1413) 
0

>  <r_qp_WPSA>  (1413) 
19.701000000000001

>  <r_qp_accptHB>  (1413) 
6.5

>  <r_qp_dip^2/V>  (1413) 
0.067741499999999996

>  <r_qp_dipole>  (1413) 
10.029

>  <r_qp_donorHB>  (1413) 
1

>  <r_qp_glob>  (1413) 
0.77333229999999997

>  <r_qp_mol_MW>  (1413) 
446.60899999999998

>  <r_qp_volume>  (1413) 
1484.643

>  <r_sd_BIOSOLVEIT.INFINISEE\_FTREES\_SIMILARITY>  (1413) 
0.91700000000000004

>  <r_sd_BIOSOLVEIT.LOGP>  (1413) 
3.6179999999999999

>  <r_sd_BIOSOLVEIT.MOLECULAR\_WEIGHT>  (1413) 
447.62299999999999

>  <r_sd_BIOSOLVEIT.TPSA>  (1413) 
41.710000000000001

>  <i_epik_Tot_Q>  (1413) 
1

>  <i_epik_Tot_abs_Q>  (1413) 
1

>  <i_f3d_flags>  (1413) 
0

>  <i_i_glide_confnum>  (1413) 
1

>  <i_i_glide_lignum>  (1413) 
1040

>  <i_i_glide_posenum>  (1413) 
11

>  <i_i_glide_rotatable_bonds>  (1413) 
10

>  <i_lp_mmshare_version>  (1413) 
65135

>  <i_m_ct_format>  (1413) 
2

>  <i_m_source_file_index>  (1413) 
2428

>  <i_qp_#NandO>  (1413) 
5

>  <i_qp_#acid>  (1413) 
0

>  <i_qp_#amide>  (1413) 
1

>  <i_qp_#amidine>  (1413) 
0

>  <i_qp_#amine>  (1413) 
2

>  <i_qp_#in34>  (1413) 
0

>  <i_qp_#in56>  (1413) 
20

>  <i_qp_#metab>  (1413) 
7

>  <i_qp_#nonHatm>  (1413) 
32

>  <i_qp_#noncon>  (1413) 
0

>  <i_qp_#ringatoms>  (1413) 
20

>  <i_qp_#rotor>  (1413) 
9

>  <i_qp_#rtvFG>  (1413) 
0

>  <i_qp_#stars>  (1413) 
0

>  <i_qp_CNS>  (1413) 
1

>  <i_qp_HumanOralAbsorption>  (1413) 
3

>  <i_qp_RuleOfFive>  (1413) 
0

>  <i_qp_RuleOfThree>  (1413) 
1

>  <i_sd_BIOSOLVEIT.INFINISEE\_RESULT\_RANK>  (1413) 
23116

>  <i_sd_version>  (1413) 
0

>  <b_lp_Chiralities_Consistent>  (1413) 
1

>  <b_sd_chiral_flag>  (1413) 
0

>  <canonical_id>  (1413) 
ATP-HTVS-DF2EF65723F2

>  <compound_code>  (1413) 
77667

>  <title>  (1413) 
rxn502c____EMOL707808____EMOL49259969____EMOL50155899

>  <variant>  (1413) 
77667-1

>  <source_file>  (1413) 
运行/运行/ATP-VSW/ATP-VSW-DOCK_HTVS_1-003_lib/ATP-VSW-DOCK_HTVS_1-003_lib.mae

>  <canonical_smiles>  (1413) 
CN(Cc1sc2ccccc2c1NCc1ccc(C[NH+](C)C)cc1)C(=O)Cn1cccc1

>  <scaffold>  (1413) 
O=C(Cn1cccc1)NCc1sc2ccccc2c1NCc1ccccc1

>  <molecular_formula>  (1413) 
C26H31N4OS+

$$$$
ATP-HTVS-DF60AB231AB0
     RDKit          3D

 58 61  0  0  0  0  0  0  0  0999 V2000
  196.0977  178.8596  148.0057 F   0  0  0  0  0  0  0  0  0  0  0  0
  197.2656  178.2588  147.6733 C   0  0  0  0  0  0  0  0  0  0  0  0
  197.7876  177.2514  148.5018 C   0  0  0  0  0  0  0  0  0  0  0  0
  199.0123  176.6225  148.1811 C   0  0  0  0  0  0  0  0  0  0  0  0
  199.7010  177.0068  147.0099 C   0  0  0  0  0  0  0  0  0  0  0  0
  199.1743  178.0135  146.1762 C   0  0  0  0  0  0  0  0  0  0  0  0
  197.9594  178.6432  146.5085 C   0  0  0  0  0  0  0  0  0  0  0  0
  199.5686  175.5214  149.0719 C   0  0  1  0  0  0  0  0  0  0  0  0
  199.6515  175.9846  150.5306 C   0  0  0  0  0  0  0  0  0  0  0  0
  198.7769  175.6408  151.3252 O   0  0  0  0  0  0  0  0  0  0  0  0
  200.7127  176.7626  150.8212 N   0  0  0  0  0  0  0  0  0  0  0  0
  201.1010  177.3376  152.0643 C   0  0  0  0  0  0  0  0  0  0  0  0
  200.5079  176.9778  153.2214 N   0  0  0  0  0  0  0  0  0  0  0  0
  200.9237  177.5032  154.3860 C   0  0  0  0  0  0  0  0  0  0  0  0
  201.9598  178.4621  154.4867 C   0  0  0  0  0  0  0  0  0  0  0  0
  202.3176  179.0058  155.7357 N   0  0  0  0  0  0  0  0  0  0  0  0
  201.9548  180.3824  156.0829 C   0  0  1  0  0  0  0  0  0  0  0  0
  200.4778  180.7264  155.9745 C   0  0  0  0  0  0  0  0  0  0  0  0
  200.0705  182.0508  155.6832 C   0  0  0  0  0  0  0  0  0  0  0  0
  198.6969  182.3561  155.5677 C   0  0  0  0  0  0  0  0  0  0  0  0
  197.7333  181.3345  155.7137 C   0  0  0  0  0  0  0  0  0  0  0  0
  198.1414  180.0165  155.9902 C   0  0  0  0  0  0  0  0  0  0  0  0
  199.4977  179.7273  156.1783 C   0  0  0  0  0  0  0  0  0  0  0  0
  196.2559  181.6431  155.6356 C   0  0  1  0  0  0  0  0  0  0  0  0
  195.5837  181.4425  156.9366 N   0  0  1  0  0  0  0  0  0  0  0  0
  196.1589  182.2112  158.0599 C   0  0  2  0  0  0  0  0  0  0  0  0
  202.5947  178.8486  153.2829 C   0  0  0  0  0  0  0  0  0  0  0  0
  202.1710  178.2775  152.0486 C   0  0  0  0  0  0  0  0  0  0  0  0
  202.8399  178.6423  150.8518 C   0  0  0  0  0  0  0  0  0  0  0  0
  203.9019  179.5654  150.8820 C   0  0  0  0  0  0  0  0  0  0  0  0
  204.3120  180.1385  152.0977 C   0  0  0  0  0  0  0  0  0  0  0  0
  203.6666  179.7780  153.2907 C   0  0  0  0  0  0  0  0  0  0  0  0
  194.6283  181.7340  156.7833 H   0  0  0  0  0  0  0  0  0  0  0  0
  197.2325  176.9632  149.3796 H   0  0  0  0  0  0  0  0  0  0  0  0
  200.6267  176.5226  146.7371 H   0  0  0  0  0  0  0  0  0  0  0  0
  199.7038  178.2985  145.2788 H   0  0  0  0  0  0  0  0  0  0  0  0
  197.5647  179.4205  145.8702 H   0  0  0  0  0  0  0  0  0  0  0  0
  198.9192  174.6485  149.0021 H   0  0  0  0  0  0  0  0  0  0  0  0
  200.5555  175.2088  148.7265 H   0  0  0  0  0  0  0  0  0  0  0  0
  201.3133  176.9895  150.0450 H   0  0  0  0  0  0  0  0  0  0  0  0
  200.4047  177.1431  155.2565 H   0  0  0  0  0  0  0  0  0  0  0  0
  202.8738  178.4601  156.3871 H   0  0  0  0  0  0  0  0  0  0  0  0
  202.2689  180.5704  157.1022 H   0  0  0  0  0  0  0  0  0  0  0  0
  202.5103  181.0873  155.4575 H   0  0  0  0  0  0  0  0  0  0  0  0
  200.8076  182.8375  155.5698 H   0  0  0  0  0  0  0  0  0  0  0  0
  198.3887  183.3763  155.3847 H   0  0  0  0  0  0  0  0  0  0  0  0
  197.4210  179.2208  156.1196 H   0  0  0  0  0  0  0  0  0  0  0  0
  199.7762  178.7278  156.4876 H   0  0  0  0  0  0  0  0  0  0  0  0
  196.1176  182.6782  155.3146 H   0  0  0  0  0  0  0  0  0  0  0  0
  195.7980  181.0081  154.8724 H   0  0  0  0  0  0  0  0  0  0  0  0
  195.6073  182.0128  158.9811 H   0  0  0  0  0  0  0  0  0  0  0  0
  196.1215  183.2838  157.8564 H   0  0  0  0  0  0  0  0  0  0  0  0
  197.1946  181.9340  158.2491 H   0  0  0  0  0  0  0  0  0  0  0  0
  202.5656  178.2233  149.8963 H   0  0  0  0  0  0  0  0  0  0  0  0
  204.4043  179.8375  149.9624 H   0  0  0  0  0  0  0  0  0  0  0  0
  205.1284  180.8473  152.1222 H   0  0  0  0  0  0  0  0  0  0  0  0
  204.0169  180.1995  154.2159 H   0  0  0  0  0  0  0  0  0  0  0  0
  195.5900  180.4558  157.2239 H   0  0  0  0  0  0  0  0  0  0  0  0
  1  2  1  0
  2  3  2  0
  2  7  1  0
  3  4  1  0
  3 34  1  0
  4  5  2  0
  4  8  1  0
  5  6  1  0
  5 35  1  0
  6  7  2  0
  6 36  1  0
  7 37  1  0
  8  9  1  0
  8 38  1  1
  8 39  1  0
  9 10  2  0
  9 11  1  0
 11 12  1  0
 11 40  1  0
 12 13  1  0
 12 28  2  0
 13 14  2  0
 14 15  1  0
 14 41  1  0
 15 16  1  0
 15 27  2  0
 16 17  1  0
 16 42  1  0
 17 18  1  0
 17 43  1  1
 17 44  1  0
 18 19  1  0
 18 23  2  0
 19 20  2  0
 19 45  1  0
 20 21  1  0
 20 46  1  0
 21 22  2  0
 21 24  1  0
 22 23  1  0
 22 47  1  0
 23 48  1  0
 24 25  1  0
 24 49  1  6
 24 50  1  0
 25 26  1  0
 25 33  1  6
 25 58  1  0
 26 51  1  1
 26 52  1  0
 26 53  1  0
 27 28  1  0
 27 32  1  0
 28 29  1  0
 29 30  2  0
 29 54  1  0
 30 31  1  0
 30 55  1  0
 31 32  2  0
 31 56  1  0
 32 57  1  0
M  CHG  1  25   1
M  END
>  <s_epik_cmdline>  (1414) 
J2VwaWtfcHl0aG9uJywgJy1waCcsICc3LjAwMDAwMCcsICctcGh0JywgJzIuMDAwMDAwJywgJy1tcycsICcxNicsICctdG4nLCAnOCcsICctbWEnLCAnMjAwJywgJy1pbWFlJywgJzxpbmZpbGUubWFlPicsICctb21hZScsICc8b3V0ZmlsZS5tYWU+Jw==

>  <s_epik_input>  (1414) 
RmMxW2NIXWMoW2NIXVtjSF1bY0hdMSlbQ0gyXUMoPU8pW05IXWMoYyhjMjMpW2NIXVtjSF1bY0hdW2NIXTMpbltjSF1jMltOSF1bQ0gyXWM0W2NIXVtjSF1jKFtjSF1bY0hdNClbQ0gyXVtOSF1bQ0gzXQ==

>  <s_i_glide_gridfile>  (1414) 
ATP-Grid

>  <s_lp_Force_Field>  (1414) 
OPLS_2005

>  <s_lp_Variant>  (1414) 
rxn502b____EMOL491637____EMOL7515103____EMOL108753565-1

>  <s_lp_label>  (1414) 
2360_sdstereoexpander_1_neutralizer_1_epik_1_stereoizer_1

>  <s_m_source_file>  (1414) 
ATP-VSW-LIGPREP-003-in.maegz

>  <s_sd_BIOSOLVEIT.INFINISEE\_QUERY\_NAME>  (1414) 
Ref-Lig

>  <s_sd_BIOSOLVEIT.INFINISEE\_QUERY\_SMILES>  (1414) 
S(c1nc2c(cc1C[NH2+]Cc3ccc(cc3)C[NH+](C)C)cccc2)Cc4ccccc4

>  <s_sd_BIOSOLVEIT.INFINISEE\_REACTION\_NAME>  (1414) 
rxn502b

>  <s_sd_BIOSOLVEIT.INFINISEE\_REAGENT1\_NAME>  (1414) 
EMOL491637

>  <s_sd_BIOSOLVEIT.INFINISEE\_REAGENT1\_SMILES>  (1414) 
Fc1cc(ccc1)CC(=O)O

>  <s_sd_BIOSOLVEIT.INFINISEE\_REAGENT2\_NAME>  (1414) 
EMOL7515103

>  <s_sd_BIOSOLVEIT.INFINISEE\_REAGENT2\_SMILES>  (1414) 
Brc1c2c(c(nc1)N)cccc2

>  <s_sd_BIOSOLVEIT.INFINISEE\_REAGENT3\_NAME>  (1414) 
EMOL108753565

>  <s_sd_BIOSOLVEIT.INFINISEE\_REAGENT3\_SMILES>  (1414) 
N(Cc1ccc(cc1)CN)C

>  <s_sd_BIOSOLVEIT.INFINISEE\_SPACE>  (1414) 
eXplore_7tr_2022-12

>  <s_vsw_compound_code>  (1414) 
75491

>  <s_vsw_variant>  (1414) 
75491-1

>  <r_epik_Charging_Adjusted_Penalty>  (1414) 
0.054338548398899802

>  <r_epik_Ionization_Penalty>  (1414) 
0.032500000000000001

>  <r_epik_Ionization_Penalty_Charging>  (1414) 
0.016

>  <r_epik_Ionization_Penalty_Neutral>  (1414) 
0.0166

>  <r_epik_State_Penalty>  (1414) 
0.038399999999999997

>  <r_i_docking_score>  (1414) 
-5.0211739604986096

>  <r_i_glide_ecoul>  (1414) 
-15.935111045837401

>  <r_i_glide_eff_state_penalty>  (1414) 
0.038399999999999997

>  <r_i_glide_einternal>  (1414) 
10.2487697601318

>  <r_i_glide_emodel>  (1414) 
-53.6502447260645

>  <r_i_glide_energy>  (1414) 
-39.578761100769

>  <r_i_glide_erotb>  (1414) 
0.75408111517189202

>  <r_i_glide_esite>  (1414) 
-0.1216375552579

>  <r_i_glide_evdw>  (1414) 
-23.643650054931602

>  <r_i_glide_gscore>  (1414) 
-5.0595739604986099

>  <r_i_glide_hbond>  (1414) 
-0.64207463762079997

>  <r_i_glide_ligand_efficiency>  (1414) 
-0.156911686265582

>  <r_i_glide_ligand_efficiency_ln>  (1414) 
-1.1243777217883999

>  <r_i_glide_ligand_efficiency_sa>  (1414) 
-0.49816355111267602

>  <r_i_glide_lipo>  (1414) 
-0.45095750971800502

>  <r_i_glide_metal>  (1414) 
-0

>  <r_i_glide_rewards>  (1414) 
-1.0265362134516101

>  <r_lp_Energy>  (1414) 
25.863547000000001

>  <r_qp_ACxDN^.5/SA>  (1414) 
0.012913300000000001

>  <r_qp_CIQPlogS>  (1414) 
-5.6369999999999996

>  <r_qp_EA(eV)>  (1414) 
0.86099999999999999

>  <r_qp_FISA>  (1414) 
86.548000000000002

>  <r_qp_FOSA>  (1414) 
202.18100000000001

>  <r_qp_IP(eV)>  (1414) 
7.6829999999999998

>  <r_qp_Jm>  (1414) 
0.00060276116965746098

>  <r_qp_PISA>  (1414) 
469.05799999999999

>  <r_qp_PSA>  (1414) 
70.632000000000005

>  <r_qp_PercentHumanOralAbsorption>  (1414) 
100

>  <r_qp_QPPCaco>  (1414) 
373.30500000000001

>  <r_qp_QPPMDCK>  (1414) 
341.26400000000001

>  <r_qp_QPlogBB>  (1414) 
-0.40899999999999997

>  <r_qp_QPlogHERG>  (1414) 
-8.4100000000000001

>  <r_qp_QPlogKhsa>  (1414) 
0.79200000000000004

>  <r_qp_QPlogKp>  (1414) 
-2.7570000000000001

>  <r_qp_QPlogPC16>  (1414) 
15.944000000000001

>  <r_qp_QPlogPo/w>  (1414) 
4.8929999999999998

>  <r_qp_QPlogPoct>  (1414) 
25.141999999999999

>  <r_qp_QPlogPw>  (1414) 
13.991

>  <r_qp_QPlogS>  (1414) 
-6.0949999999999998

>  <r_qp_QPpolrz>  (1414) 
49.893000000000001

>  <r_qp_SASA>  (1414) 
804.77700000000004

>  <r_qp_SAamideO>  (1414) 
0

>  <r_qp_SAfluorine>  (1414) 
46.990000000000002

>  <r_qp_WPSA>  (1414) 
46.990000000000002

>  <r_qp_accptHB>  (1414) 
6

>  <r_qp_dip^2/V>  (1414) 
0.063233499999999998

>  <r_qp_dipole>  (1414) 
9.4659999999999993

>  <r_qp_donorHB>  (1414) 
3

>  <r_qp_glob>  (1414) 
0.75808520000000001

>  <r_qp_mol_MW>  (1414) 
428.50799999999998

>  <r_qp_volume>  (1414) 
1416.9110000000001

>  <r_sd_BIOSOLVEIT.INFINISEE\_FTREES\_SIMILARITY>  (1414) 
0.92000000000000004

>  <r_sd_BIOSOLVEIT.LOGP>  (1414) 
3.8603999999999998

>  <r_sd_BIOSOLVEIT.MOLECULAR\_WEIGHT>  (1414) 
429.51600000000002

>  <r_sd_BIOSOLVEIT.TPSA>  (1414) 
70.629999999999995

>  <i_epik_Tot_Q>  (1414) 
1

>  <i_epik_Tot_abs_Q>  (1414) 
1

>  <i_f3d_flags>  (1414) 
0

>  <i_i_glide_confnum>  (1414) 
7

>  <i_i_glide_lignum>  (1414) 
988

>  <i_i_glide_posenum>  (1414) 
18

>  <i_i_glide_rotatable_bonds>  (1414) 
9

>  <i_lp_mmshare_version>  (1414) 
65135

>  <i_m_ct_format>  (1414) 
2

>  <i_m_source_file_index>  (1414) 
2360

>  <i_qp_#NandO>  (1414) 
5

>  <i_qp_#acid>  (1414) 
0

>  <i_qp_#amide>  (1414) 
0

>  <i_qp_#amidine>  (1414) 
0

>  <i_qp_#amine>  (1414) 
1

>  <i_qp_#in34>  (1414) 
0

>  <i_qp_#in56>  (1414) 
22

>  <i_qp_#metab>  (1414) 
8

>  <i_qp_#nonHatm>  (1414) 
32

>  <i_qp_#noncon>  (1414) 
0

>  <i_qp_#ringatoms>  (1414) 
22

>  <i_qp_#rotor>  (1414) 
8

>  <i_qp_#rtvFG>  (1414) 
0

>  <i_qp_#stars>  (1414) 
2

>  <i_qp_CNS>  (1414) 
0

>  <i_qp_HumanOralAbsorption>  (1414) 
3

>  <i_qp_RuleOfFive>  (1414) 
0

>  <i_qp_RuleOfThree>  (1414) 
2

>  <i_sd_BIOSOLVEIT.INFINISEE\_RESULT\_RANK>  (1414) 
16764

>  <i_sd_version>  (1414) 
0

>  <b_lp_Chiralities_Consistent>  (1414) 
1

>  <b_sd_chiral_flag>  (1414) 
0

>  <canonical_id>  (1414) 
ATP-HTVS-DF60AB231AB0

>  <compound_code>  (1414) 
75491

>  <title>  (1414) 
rxn502b____EMOL491637____EMOL7515103____EMOL108753565

>  <variant>  (1414) 
75491-1

>  <source_file>  (1414) 
运行/运行/ATP-VSW/ATP-VSW-DOCK_HTVS_1-003_lib/ATP-VSW-DOCK_HTVS_1-003_lib.mae

>  <canonical_smiles>  (1414) 
C[NH2+]Cc1ccc(CNc2cnc(NC(=O)Cc3cccc(F)c3)c3ccccc23)cc1

>  <scaffold>  (1414) 
O=C(Cc1ccccc1)Nc1ncc(NCc2ccccc2)c2ccccc12

>  <molecular_formula>  (1414) 
C26H26FN4O+

$$$$
ATP-HTVS-DF8AF7E8BFB3
     RDKit          3D

 55 58  0  0  0  0  0  0  0  0999 V2000
  199.1983  185.7057  158.3797 O   0  0  0  0  0  0  0  0  0  0  0  0
  198.3199  184.8579  158.5419 C   0  0  0  0  0  0  0  0  0  0  0  0
  198.3757  183.5406  158.2372 N   0  0  0  0  0  0  0  0  0  0  0  0
  197.0760  182.8501  158.4566 C   0  0  1  0  0  0  0  0  0  0  0  0
  196.2547  183.9387  159.1078 C   0  0  0  0  0  0  0  0  0  0  0  0
  196.9990  185.0902  159.1657 C   0  0  0  0  0  0  0  0  0  0  0  0
  196.5187  186.2701  159.7493 C   0  0  0  0  0  0  0  0  0  0  0  0
  195.1990  186.2523  160.2509 C   0  0  0  0  0  0  0  0  0  0  0  0
  194.4087  185.0811  160.1494 C   0  0  0  0  0  0  0  0  0  0  0  0
  194.9363  183.8930  159.6029 C   0  0  0  0  0  0  0  0  0  0  0  0
  196.4062  182.4007  157.1450 C   0  0  1  0  0  0  0  0  0  0  0  0
  197.1311  181.2574  156.5662 N   0  0  1  0  0  0  0  0  0  0  0  0
  196.9440  181.0599  155.1249 C   0  0  1  0  0  0  0  0  0  0  0  0
  198.0140  180.1074  154.5464 C   0  0  2  0  0  0  0  0  0  0  0  0
  197.8049  179.8435  153.0552 C   0  0  0  0  0  0  0  0  0  0  0  0
  198.9239  179.7176  152.2003 C   0  0  0  0  0  0  0  0  0  0  0  0
  198.7424  179.5096  150.8164 C   0  0  0  0  0  0  0  0  0  0  0  0
  197.4445  179.4232  150.2746 C   0  0  0  0  0  0  0  0  0  0  0  0
  196.3288  179.5374  151.1225 C   0  0  0  0  0  0  0  0  0  0  0  0
  196.5068  179.7426  152.5000 C   0  0  0  0  0  0  0  0  0  0  0  0
  198.1381  178.7988  155.3480 C   0  0  2  0  0  0  0  0  0  0  0  0
  199.5953  182.8348  157.7964 C   0  0  1  0  0  0  0  0  0  0  0  0
  200.7495  182.7690  158.8040 C   0  0  0  0  0  0  0  0  0  0  0  0
  200.7820  183.5841  159.9629 C   0  0  0  0  0  0  0  0  0  0  0  0
  201.9115  183.5256  160.7990 C   0  0  0  0  0  0  0  0  0  0  0  0
  202.9834  182.6292  160.5465 C   0  0  0  0  0  0  0  0  0  0  0  0
  202.9200  181.7697  159.4253 C   0  0  0  0  0  0  0  0  0  0  0  0
  201.8077  181.8530  158.5499 C   0  0  0  0  0  0  0  0  0  0  0  0
  198.1189  181.3894  156.7178 H   0  0  0  0  0  0  0  0  0  0  0  0
  197.1957  182.0225  159.1507 H   0  0  0  0  0  0  0  0  0  0  0  0
  197.1410  187.1530  159.8206 H   0  0  0  0  0  0  0  0  0  0  0  0
  194.7787  187.1653  160.6676 H   0  0  0  0  0  0  0  0  0  0  0  0
  193.3795  185.1056  160.4823 H   0  0  0  0  0  0  0  0  0  0  0  0
  194.3389  182.9899  159.5167 H   0  0  0  0  0  0  0  0  0  0  0  0
  195.3643  182.1044  157.3045 H   0  0  0  0  0  0  0  0  0  0  0  0
  196.3944  183.2425  156.4521 H   0  0  0  0  0  0  0  0  0  0  0  0
  195.9440  180.6660  155.0219 H   0  0  0  0  0  0  0  0  0  0  0  0
  196.9861  182.0136  154.5917 H   0  0  0  0  0  0  0  0  0  0  0  0
  198.9712  180.6243  154.6366 H   0  0  0  0  0  0  0  0  0  0  0  0
  199.9290  179.7826  152.5976 H   0  0  0  0  0  0  0  0  0  0  0  0
  199.5980  179.4187  150.1636 H   0  0  0  0  0  0  0  0  0  0  0  0
  197.2970  179.2746  149.2140 H   0  0  0  0  0  0  0  0  0  0  0  0
  195.3251  179.4740  150.7295 H   0  0  0  0  0  0  0  0  0  0  0  0
  195.6197  179.8272  153.1051 H   0  0  0  0  0  0  0  0  0  0  0  0
  198.9359  178.1626  154.9635 H   0  0  0  0  0  0  0  0  0  0  0  0
  197.2089  178.2398  155.3406 H   0  0  0  0  0  0  0  0  0  0  0  0
  198.3823  178.9905  156.3936 H   0  0  0  0  0  0  0  0  0  0  0  0
  199.3623  181.8044  157.5656 H   0  0  0  0  0  0  0  0  0  0  0  0
  199.9354  183.2800  156.8604 H   0  0  0  0  0  0  0  0  0  0  0  0
  199.9683  184.2686  160.2005 H   0  0  0  0  0  0  0  0  0  0  0  0
  201.9571  184.1909  161.6502 H   0  0  0  0  0  0  0  0  0  0  0  0
  203.8366  182.6013  161.2285 H   0  0  0  0  0  0  0  0  0  0  0  0
  203.7096  181.0528  159.2442 H   0  0  0  0  0  0  0  0  0  0  0  0
  201.7735  181.1847  157.6824 H   0  0  0  0  0  0  0  0  0  0  0  0
  196.8243  180.4106  157.0444 H   0  0  0  0  0  0  0  0  0  0  0  0
  1  2  2  0
  2  3  1  0
  2  6  1  0
  3  4  1  0
  3 22  1  0
  4  5  1  0
  4 11  1  0
  4 30  1  1
  5  6  1  0
  5 10  2  0
  6  7  2  0
  7  8  1  0
  7 31  1  0
  8  9  2  0
  8 32  1  0
  9 10  1  0
  9 33  1  0
 10 34  1  0
 11 12  1  0
 11 35  1  1
 11 36  1  0
 12 13  1  0
 12 29  1  6
 12 55  1  0
 13 14  1  0
 13 37  1  1
 13 38  1  0
 14 15  1  0
 14 21  1  0
 14 39  1  6
 15 16  2  0
 15 20  1  0
 16 17  1  0
 16 40  1  0
 17 18  2  0
 17 41  1  0
 18 19  1  0
 18 42  1  0
 19 20  2  0
 19 43  1  0
 20 44  1  0
 21 45  1  6
 21 46  1  0
 21 47  1  0
 22 23  1  0
 22 48  1  6
 22 49  1  0
 23 24  2  0
 23 28  1  0
 24 25  1  0
 24 50  1  0
 25 26  2  0
 25 51  1  0
 26 27  1  0
 26 52  1  0
 27 28  2  0
 27 53  1  0
 28 54  1  0
M  CHG  1  12   1
M  END
>  <s_epik_cmdline>  (1415) 
J2VwaWtfcHl0aG9uJywgJy1waCcsICc3LjAwMDAwMCcsICctcGh0JywgJzIuMDAwMDAwJywgJy1tcycsICcxNicsICctdG4nLCAnOCcsICctbWEnLCAnMjAwJywgJy1pbWFlJywgJzxpbmZpbGUubWFlPicsICctb21hZScsICc8b3V0ZmlsZS5tYWU+Jw==

>  <s_epik_input>  (1415) 
W2NIXTFbY0hdW2NIXVtjSF1bY0hdYzFbQ0gyXU4oQyg9TyljKGMyMylbY0hdW2NIXVtjSF1bY0hdMylbQ0BASF0yW0NIMl1bTkhdW0NIMl1bQ0BASF0oW0NIM10pYzRbY0hdW2NIXVtjSF1bY0hdW2NIXTQ=

>  <s_i_glide_gridfile>  (1415) 
ATP-Grid

>  <s_lp_Force_Field>  (1415) 
OPLS_2005

>  <s_lp_Variant>  (1415) 
m_270004bbb____12219716____9143636-4

>  <s_lp_label>  (1415) 
952_sdstereoexpander_4_neutralizer_1_epik_1_stereoizer_1

>  <s_m_source_file>  (1415) 
ATP-VSW-LIGPREP-001-in.maegz

>  <s_sd_BIOSOLVEIT.INFINISEE\_QUERY\_NAME>  (1415) 
Ref-Lig

>  <s_sd_BIOSOLVEIT.INFINISEE\_QUERY\_SMILES>  (1415) 
S(c1nc2c(cc1C[NH2+]Cc3ccc(cc3)C[NH+](C)C)cccc2)Cc4ccccc4

>  <s_sd_BIOSOLVEIT.INFINISEE\_REACTION\_NAME>  (1415) 
m_270004bbb

>  <s_sd_BIOSOLVEIT.INFINISEE\_REAGENT1\_SMILES>  (1415) 
[R1*]NCC1N(C(=O)c2c1cccc2)Cc3ccccc3

>  <s_sd_BIOSOLVEIT.INFINISEE\_REAGENT2\_SMILES>  (1415) 
[R1*]CC(c1ccccc1)C

>  <s_sd_BIOSOLVEIT.INFINISEE\_SPACE>  (1415) 
REALSpace_44bn_2023-08

>  <s_vsw_compound_code>  (1415) 
30433

>  <s_vsw_variant>  (1415) 
30433-4

>  <r_epik_Charging_Adjusted_Penalty>  (1415) 
0.0089723763734406801

>  <r_epik_Ionization_Penalty>  (1415) 
0.0044999999999999997

>  <r_epik_Ionization_Penalty_Charging>  (1415) 
0.0044999999999999997

>  <r_epik_Ionization_Penalty_Neutral>  (1415) 
0

>  <r_epik_State_Penalty>  (1415) 
0.0044999999999999997

>  <r_i_docking_score>  (1415) 
-5.9784173299467902

>  <r_i_glide_ecoul>  (1415) 
-9.4189081192016602

>  <r_i_glide_eff_state_penalty>  (1415) 
0.0044999999999999997

>  <r_i_glide_einternal>  (1415) 
8.3799495697021502

>  <r_i_glide_emodel>  (1415) 
-60.571791015160997

>  <r_i_glide_energy>  (1415) 
-41.642888069152797

>  <r_i_glide_erotb>  (1415) 
0.83924340879109005

>  <r_i_glide_esite>  (1415) 
-0.089153786151516395

>  <r_i_glide_evdw>  (1415) 
-32.2239799499512

>  <r_i_glide_gscore>  (1415) 
-5.9829173299467904

>  <r_i_glide_hbond>  (1415) 
-0.20000000000000001

>  <r_i_glide_ligand_efficiency>  (1415) 
-0.21351490464095699

>  <r_i_glide_ligand_efficiency_ln>  (1415) 
-1.3799942537119501

>  <r_i_glide_ligand_efficiency_sa>  (1415) 
-0.64835700404366003

>  <r_i_glide_lipo>  (1415) 
-2.30313362218318

>  <r_i_glide_metal>  (1415) 
-0

>  <r_i_glide_rewards>  (1415) 
-1.2058381150253801

>  <r_lp_Energy>  (1415) 
48.052312000000001

>  <r_qp_ACxDN^.5/SA>  (1415) 
0.0077885000000000003

>  <r_qp_CIQPlogS>  (1415) 
-5.0919999999999996

>  <r_qp_EA(eV)>  (1415) 
0.13600000000000001

>  <r_qp_FISA>  (1415) 
34.893000000000001

>  <r_qp_FOSA>  (1415) 
169.47200000000001

>  <r_qp_IP(eV)>  (1415) 
9.0779999999999994

>  <r_qp_Jm>  (1415) 
3.1873057444872201

>  <r_qp_PISA>  (1415) 
373.40800000000002

>  <r_qp_PSA>  (1415) 
35.087000000000003

>  <r_qp_PercentHumanOralAbsorption>  (1415) 
100

>  <r_qp_QPPCaco>  (1415) 
1153.203

>  <r_qp_QPPMDCK>  (1415) 
638.47299999999996

>  <r_qp_QPlogBB>  (1415) 
0.27000000000000002

>  <r_qp_QPlogHERG>  (1415) 
-5.2050000000000001

>  <r_qp_QPlogKhsa>  (1415) 
0.65900000000000003

>  <r_qp_QPlogKp>  (1415) 
-2.238

>  <r_qp_QPlogPC16>  (1415) 
12.398999999999999

>  <r_qp_QPlogPo/w>  (1415) 
4.4329999999999998

>  <r_qp_QPlogPoct>  (1415) 
17.178000000000001

>  <r_qp_QPlogPw>  (1415) 
8.2400000000000002

>  <r_qp_QPlogS>  (1415) 
-2.8279999999999998

>  <r_qp_QPpolrz>  (1415) 
39.631

>  <r_qp_SASA>  (1415) 
577.77300000000002

>  <r_qp_SAamideO>  (1415) 
0

>  <r_qp_SAfluorine>  (1415) 
0

>  <r_qp_WPSA>  (1415) 
0

>  <r_qp_accptHB>  (1415) 
4.5

>  <r_qp_dip^2/V>  (1415) 
0.017296599999999999

>  <r_qp_dipole>  (1415) 
4.4930000000000003

>  <r_qp_donorHB>  (1415) 
1

>  <r_qp_glob>  (1415) 
0.92794390000000004

>  <r_qp_mol_MW>  (1415) 
370.49299999999999

>  <r_qp_volume>  (1415) 
1167.27

>  <r_sd_BIOSOLVEIT.INFINISEE\_FTREES\_SIMILARITY>  (1415) 
0.91700000000000004

>  <r_sd_BIOSOLVEIT.LOGP>  (1415) 
3.7507999999999999

>  <r_sd_BIOSOLVEIT.MOLECULAR\_WEIGHT>  (1415) 
371.50099999999998

>  <r_sd_BIOSOLVEIT.TPSA>  (1415) 
36.920000000000002

>  <i_epik_Tot_Q>  (1415) 
1

>  <i_epik_Tot_abs_Q>  (1415) 
1

>  <i_f3d_flags>  (1415) 
0

>  <i_i_glide_confnum>  (1415) 
2

>  <i_i_glide_lignum>  (1415) 
191

>  <i_i_glide_posenum>  (1415) 
2

>  <i_i_glide_rotatable_bonds>  (1415) 
7

>  <i_lp_mmshare_version>  (1415) 
65135

>  <i_m_ct_format>  (1415) 
2

>  <i_m_source_file_index>  (1415) 
952

>  <i_qp_#NandO>  (1415) 
3

>  <i_qp_#acid>  (1415) 
0

>  <i_qp_#amide>  (1415) 
0

>  <i_qp_#amidine>  (1415) 
0

>  <i_qp_#amine>  (1415) 
1

>  <i_qp_#in34>  (1415) 
0

>  <i_qp_#in56>  (1415) 
21

>  <i_qp_#metab>  (1415) 
5

>  <i_qp_#nonHatm>  (1415) 
28

>  <i_qp_#noncon>  (1415) 
1

>  <i_qp_#ringatoms>  (1415) 
21

>  <i_qp_#rotor>  (1415) 
7

>  <i_qp_#rtvFG>  (1415) 
0

>  <i_qp_#stars>  (1415) 
0

>  <i_qp_CNS>  (1415) 
1

>  <i_qp_HumanOralAbsorption>  (1415) 
3

>  <i_qp_RuleOfFive>  (1415) 
0

>  <i_qp_RuleOfThree>  (1415) 
0

>  <i_sd_BIOSOLVEIT.INFINISEE\_REAGENT1\_NAME>  (1415) 
12219716

>  <i_sd_BIOSOLVEIT.INFINISEE\_REAGENT2\_NAME>  (1415) 
9143636

>  <i_sd_BIOSOLVEIT.INFINISEE\_RESULT\_RANK>  (1415) 
22548

>  <i_sd_version>  (1415) 
0

>  <b_lp_Chiralities_Consistent>  (1415) 
1

>  <b_sd_chiral_flag>  (1415) 
0

>  <canonical_id>  (1415) 
ATP-HTVS-DF8AF7E8BFB3

>  <compound_code>  (1415) 
30433

>  <title>  (1415) 
m_270004bbb____12219716____9143636

>  <variant>  (1415) 
30433-4

>  <source_file>  (1415) 
运行/运行/ATP-VSW/ATP-VSW-DOCK_HTVS_1-001_lib/ATP-VSW-DOCK_HTVS_1-001_lib

>  <canonical_smiles>  (1415) 
C[C@H](C[NH2+]C[C@@H]1c2ccccc2C(=O)N1Cc1ccccc1)c1ccccc1

>  <scaffold>  (1415) 
O=C1c2ccccc2C(C[NH2+]CCc2ccccc2)N1Cc1ccccc1

>  <molecular_formula>  (1415) 
C25H27N2O+

$$$$
ATP-HTVS-DF95DE08029D
     RDKit          3D

 45 48  0  0  0  0  0  0  0  0999 V2000
  197.2755  181.4022  155.8258 Cl  0  0  0  0  0  0  0  0  0  0  0  0
  196.7576  182.4493  157.0935 C   0  0  0  0  0  0  0  0  0  0  0  0
  197.5684  183.5296  157.4758 C   0  0  0  0  0  0  0  0  0  0  0  0
  197.1612  184.4181  158.5077 C   0  0  0  0  0  0  0  0  0  0  0  0
  195.9082  184.2003  159.1358 C   0  0  0  0  0  0  0  0  0  0  0  0
  195.4370  185.0394  160.1785 N   0  0  0  0  0  0  0  0  0  0  0  0
  195.5564  186.3732  160.2416 C   0  0  0  0  0  0  0  0  0  0  0  0
  195.1747  186.9946  161.2298 O   0  0  0  0  0  0  0  0  0  0  0  0
  196.1347  187.1209  159.0243 C   0  0  1  0  0  0  0  0  0  0  0  0
  197.5753  186.9080  158.7085 N   0  0  0  0  0  0  0  0  0  0  0  0
  198.0863  185.5513  158.9895 C   0  0  2  0  0  0  0  0  0  0  0  0
  199.5043  185.3684  158.4374 C   0  0  0  0  0  0  0  0  0  0  0  0
  200.4586  184.5685  159.1096 C   0  0  0  0  0  0  0  0  0  0  0  0
  200.1369  183.9531  160.2743 F   0  0  0  0  0  0  0  0  0  0  0  0
  201.7544  184.4087  158.5715 C   0  0  0  0  0  0  0  0  0  0  0  0
  202.1043  185.0293  157.3582 C   0  0  0  0  0  0  0  0  0  0  0  0
  201.1559  185.8178  156.6815 C   0  0  0  0  0  0  0  0  0  0  0  0
  199.8613  185.9651  157.2068 C   0  0  0  0  0  0  0  0  0  0  0  0
  198.4008  187.9141  159.3940 C   0  0  1  0  0  0  0  0  0  0  0  0
  198.2886  189.2951  158.7856 C   0  0  0  0  0  0  0  0  0  0  0  0
  198.8048  189.5536  157.4960 C   0  0  0  0  0  0  0  0  0  0  0  0
  198.7225  190.8486  156.9514 C   0  0  0  0  0  0  0  0  0  0  0  0
  199.2222  191.0972  155.7162 F   0  0  0  0  0  0  0  0  0  0  0  0
  198.1168  191.8824  157.6924 C   0  0  0  0  0  0  0  0  0  0  0  0
  198.0239  193.1286  157.1726 F   0  0  0  0  0  0  0  0  0  0  0  0
  197.6033  191.6209  158.9778 C   0  0  0  0  0  0  0  0  0  0  0  0
  197.6885  190.3286  159.5257 C   0  0  0  0  0  0  0  0  0  0  0  0
  195.1094  183.0973  158.7649 C   0  0  0  0  0  0  0  0  0  0  0  0
  195.5327  182.2310  157.7435 C   0  0  0  0  0  0  0  0  0  0  0  0
  198.5085  183.6315  156.9507 H   0  0  0  0  0  0  0  0  0  0  0  0
  194.8994  184.5987  160.9056 H   0  0  0  0  0  0  0  0  0  0  0  0
  195.5513  186.8137  158.1518 H   0  0  0  0  0  0  0  0  0  0  0  0
  195.9124  188.1834  159.1285 H   0  0  0  0  0  0  0  0  0  0  0  0
  198.1589  185.4470  160.0759 H   0  0  0  0  0  0  0  0  0  0  0  0
  202.4708  183.7874  159.0865 H   0  0  0  0  0  0  0  0  0  0  0  0
  203.0871  184.8979  156.9394 H   0  0  0  0  0  0  0  0  0  0  0  0
  201.4061  186.2980  155.7456 H   0  0  0  0  0  0  0  0  0  0  0  0
  199.1307  186.5459  156.6605 H   0  0  0  0  0  0  0  0  0  0  0  0
  198.1439  187.9437  160.4574 H   0  0  0  0  0  0  0  0  0  0  0  0
  199.4697  187.6967  159.3546 H   0  0  0  0  0  0  0  0  0  0  0  0
  199.2804  188.7707  156.9221 H   0  0  0  0  0  0  0  0  0  0  0  0
  197.1491  192.4130  159.5519 H   0  0  0  0  0  0  0  0  0  0  0  0
  197.3110  190.1262  160.5178 H   0  0  0  0  0  0  0  0  0  0  0  0
  194.1589  182.9231  159.2445 H   0  0  0  0  0  0  0  0  0  0  0  0
  194.9087  181.4042  157.4419 H   0  0  0  0  0  0  0  0  0  0  0  0
  1  2  1  0
  2  3  2  0
  2 29  1  0
  3  4  1  0
  3 30  1  0
  4  5  2  0
  4 11  1  0
  5  6  1  0
  5 28  1  0
  6  7  1  0
  6 31  1  0
  7  8  2  0
  7  9  1  0
  9 10  1  0
  9 32  1  6
  9 33  1  0
 10 11  1  0
 10 19  1  0
 11 12  1  0
 11 34  1  1
 12 13  1  0
 12 18  2  0
 13 14  1  0
 13 15  2  0
 15 16  1  0
 15 35  1  0
 16 17  2  0
 16 36  1  0
 17 18  1  0
 17 37  1  0
 18 38  1  0
 19 20  1  0
 19 39  1  1
 19 40  1  0
 20 21  2  0
 20 27  1  0
 21 22  1  0
 21 41  1  0
 22 23  1  0
 22 24  2  0
 24 25  1  0
 24 26  1  0
 26 27  2  0
 26 42  1  0
 27 43  1  0
 28 29  2  0
 28 44  1  0
 29 45  1  0
M  END
>  <s_epik_cmdline>  (1416) 
J2VwaWtfcHl0aG9uJywgJy1waCcsICc3LjAwMDAwMCcsICctcGh0JywgJzIuMDAwMDAwJywgJy1tcycsICcxNicsICctdG4nLCAnOCcsICctbWEnLCAnMjAwJywgJy1pbWFlJywgJzxpbmZpbGUubWFlPicsICctb21hZScsICc8b3V0ZmlsZS5tYWU+Jw==

>  <s_epik_input>  (1416) 
Q2xjKFtjSF0xKVtjSF1bY0hdYyhjMTIpW05IXUMoPU8pW0NIMl1OKFtDQEBIXTJjM2MoRilbY0hdW2NIXVtjSF1bY0hdMylbQ0gyXWM0W2NIXWMoRiljKEYpW2NIXVtjSF00

>  <s_i_glide_gridfile>  (1416) 
ATP-Grid

>  <s_lp_Force_Field>  (1416) 
OPLS_2005

>  <s_lp_Variant>  (1416) 
m_2230bdc____14772912____666418-2

>  <s_lp_label>  (1416) 
1875_sdstereoexpander_3_neutralizer_1_epik_1_stereoizer_1

>  <s_m_source_file>  (1416) 
ATP-VSW-LIGPREP-002-in.maegz

>  <s_sd_BIOSOLVEIT.INFINISEE\_QUERY\_NAME>  (1416) 
Ref-Lig

>  <s_sd_BIOSOLVEIT.INFINISEE\_QUERY\_SMILES>  (1416) 
S(c1nc2c(cc1C[NH2+]Cc3ccc(cc3)C[NH+](C)C)cccc2)Cc4ccccc4

>  <s_sd_BIOSOLVEIT.INFINISEE\_REACTION\_NAME>  (1416) 
m_2230bdc

>  <s_sd_BIOSOLVEIT.INFINISEE\_REAGENT1\_SMILES>  (1416) 
[R1*]N1C(c2c(F)cccc2)c3c(NC(=O)C1)ccc(Cl)c3

>  <s_sd_BIOSOLVEIT.INFINISEE\_REAGENT2\_SMILES>  (1416) 
[R1*]Cc1cc(F)c(F)cc1

>  <s_sd_BIOSOLVEIT.INFINISEE\_SPACE>  (1416) 
REALSpace_44bn_2023-08

>  <s_vsw_compound_code>  (1416) 
59970

>  <s_vsw_variant>  (1416) 
59970-2

>  <r_epik_Charging_Adjusted_Penalty>  (1416) 
0.0073990967497685701

>  <r_epik_Ionization_Penalty>  (1416) 
0.0074000000000000003

>  <r_epik_Ionization_Penalty_Charging>  (1416) 
0

>  <r_epik_Ionization_Penalty_Neutral>  (1416) 
0.0074000000000000003

>  <r_epik_State_Penalty>  (1416) 
0.0074000000000000003

>  <r_i_docking_score>  (1416) 
-1.58336500416447

>  <r_i_glide_ecoul>  (1416) 
-0.60361874103546098

>  <r_i_glide_eff_state_penalty>  (1416) 
0.0074000000000000003

>  <r_i_glide_einternal>  (1416) 
0.32202485203742998

>  <r_i_glide_emodel>  (1416) 
-36.296760898617201

>  <r_i_glide_energy>  (1416) 
-33.173111081123402

>  <r_i_glide_erotb>  (1416) 
0.341187845109652

>  <r_i_glide_esite>  (1416) 
0

>  <r_i_glide_evdw>  (1416) 
-32.569492340087898

>  <r_i_glide_gscore>  (1416) 
-1.5907650041644701

>  <r_i_glide_hbond>  (1416) 
0

>  <r_i_glide_ligand_efficiency>  (1416) 
-0.054598793247050699

>  <r_i_glide_ligand_efficiency_ln>  (1416) 
-0.36255043528145298

>  <r_i_glide_ligand_efficiency_sa>  (1416) 
-0.167744790966775

>  <r_i_glide_lipo>  (1416) 
-0.87150542029105904

>  <r_i_glide_metal>  (1416) 
-0

>  <r_i_glide_rewards>  (1416) 
0.65856999917665004

>  <r_lp_Energy>  (1416) 
38.936323000000002

>  <r_qp_ACxDN^.5/SA>  (1416) 
0.0069718000000000002

>  <r_qp_CIQPlogS>  (1416) 
-5.798

>  <r_qp_EA(eV)>  (1416) 
0.65400000000000003

>  <r_qp_FISA>  (1416) 
57.262

>  <r_qp_FOSA>  (1416) 
48.496000000000002

>  <r_qp_IP(eV)>  (1416) 
9.1720000000000006

>  <r_qp_Jm>  (1416) 
0.00061257818174958502

>  <r_qp_PISA>  (1416) 
356.24900000000002

>  <r_qp_PSA>  (1416) 
39.834000000000003

>  <r_qp_PercentHumanOralAbsorption>  (1416) 
100

>  <r_qp_QPPCaco>  (1416) 
707.59100000000001

>  <r_qp_QPPMDCK>  (1416) 
3809.0300000000002

>  <r_qp_QPlogBB>  (1416) 
0.73399999999999999

>  <r_qp_QPlogHERG>  (1416) 
-6.7489999999999997

>  <r_qp_QPlogKhsa>  (1416) 
0.81599999999999995

>  <r_qp_QPlogKp>  (1416) 
-3.1899999999999999

>  <r_qp_QPlogPC16>  (1416) 
11.917

>  <r_qp_QPlogPo/w>  (1416) 
4.8780000000000001

>  <r_qp_QPlogPoct>  (1416) 
18.905999999999999

>  <r_qp_QPlogPw>  (1416) 
9.6050000000000004

>  <r_qp_QPlogS>  (1416) 
-5.6420000000000003

>  <r_qp_QPpolrz>  (1416) 
42.411000000000001

>  <r_qp_SASA>  (1416) 
645.46000000000004

>  <r_qp_SAamideO>  (1416) 
0

>  <r_qp_SAfluorine>  (1416) 
111.904

>  <r_qp_WPSA>  (1416) 
183.452

>  <r_qp_accptHB>  (1416) 
4.5

>  <r_qp_dip^2/V>  (1416) 
0.013181

>  <r_qp_dipole>  (1416) 
3.911

>  <r_qp_donorHB>  (1416) 
1

>  <r_qp_glob>  (1416) 
0.82746200000000003

>  <r_qp_mol_MW>  (1416) 
416.82900000000001

>  <r_qp_volume>  (1416) 
1160.5889999999999

>  <r_sd_BIOSOLVEIT.INFINISEE\_FTREES\_SIMILARITY>  (1416) 
0.90300000000000002

>  <r_sd_BIOSOLVEIT.LOGP>  (1416) 
3.8839000000000001

>  <r_sd_BIOSOLVEIT.MOLECULAR\_WEIGHT>  (1416) 
417.83600000000001

>  <r_sd_BIOSOLVEIT.TPSA>  (1416) 
33.539999999999999

>  <i_epik_Tot_Q>  (1416) 
0

>  <i_epik_Tot_abs_Q>  (1416) 
0

>  <i_f3d_flags>  (1416) 
0

>  <i_i_glide_confnum>  (1416) 
4

>  <i_i_glide_lignum>  (1416) 
667

>  <i_i_glide_posenum>  (1416) 
12

>  <i_i_glide_rotatable_bonds>  (1416) 
3

>  <i_lp_mmshare_version>  (1416) 
65135

>  <i_m_ct_format>  (1416) 
2

>  <i_m_source_file_index>  (1416) 
1875

>  <i_qp_#NandO>  (1416) 
3

>  <i_qp_#acid>  (1416) 
0

>  <i_qp_#amide>  (1416) 
0

>  <i_qp_#amidine>  (1416) 
0

>  <i_qp_#amine>  (1416) 
1

>  <i_qp_#in34>  (1416) 
0

>  <i_qp_#in56>  (1416) 
18

>  <i_qp_#metab>  (1416) 
6

>  <i_qp_#nonHatm>  (1416) 
29

>  <i_qp_#noncon>  (1416) 
2

>  <i_qp_#ringatoms>  (1416) 
23

>  <i_qp_#rotor>  (1416) 
2

>  <i_qp_#rtvFG>  (1416) 
0

>  <i_qp_#stars>  (1416) 
1

>  <i_qp_CNS>  (1416) 
2

>  <i_qp_HumanOralAbsorption>  (1416) 
3

>  <i_qp_RuleOfFive>  (1416) 
0

>  <i_qp_RuleOfThree>  (1416) 
0

>  <i_sd_BIOSOLVEIT.INFINISEE\_REAGENT1\_NAME>  (1416) 
14772912

>  <i_sd_BIOSOLVEIT.INFINISEE\_REAGENT2\_NAME>  (1416) 
666418

>  <i_sd_BIOSOLVEIT.INFINISEE\_RESULT\_RANK>  (1416) 
82668

>  <i_sd_version>  (1416) 
0

>  <b_lp_Chiralities_Consistent>  (1416) 
1

>  <b_sd_chiral_flag>  (1416) 
0

>  <canonical_id>  (1416) 
ATP-HTVS-DF95DE08029D

>  <compound_code>  (1416) 
59970

>  <title>  (1416) 
m_2230bdc____14772912____666418

>  <variant>  (1416) 
59970-2

>  <source_file>  (1416) 
运行/运行/ATP-VSW/ATP-VSW-DOCK_HTVS_1-002_lib.maegz

>  <canonical_smiles>  (1416) 
O=C1CN(Cc2ccc(F)c(F)c2)[C@H](c2ccccc2F)c2cc(Cl)ccc2N1

>  <scaffold>  (1416) 
O=C1CN(Cc2ccccc2)C(c2ccccc2)c2ccccc2N1

>  <molecular_formula>  (1416) 
C22H16ClF3N2O

$$$$
ATP-HTVS-DF96FF74234A
     RDKit          3D

 56 58  0  0  0  0  0  0  0  0999 V2000
  202.1490  186.5601  154.3841 Cl  0  0  0  0  0  0  0  0  0  0  0  0
  200.8121  185.7481  153.6582 C   0  0  0  0  0  0  0  0  0  0  0  0
  199.6711  186.4777  153.2717 C   0  0  0  0  0  0  0  0  0  0  0  0
  198.5555  185.8200  152.7143 C   0  0  0  0  0  0  0  0  0  0  0  0
  198.5980  184.4271  152.4642 C   0  0  0  0  0  0  0  0  0  0  0  0
  197.4859  183.7538  151.8453 N   0  0  0  0  0  0  0  0  0  0  0  0
  197.1477  182.4965  152.4414 C   0  0  0  0  0  0  0  0  0  0  0  0
  196.7845  181.0121  151.5505 S   0  0  0  0  0  0  0  0  0  0  0  0
  196.5853  180.1880  153.0775 C   0  0  0  0  0  0  0  0  0  0  0  0
  196.7493  181.0362  154.1468 C   0  0  0  0  0  0  0  0  0  0  0  0
  197.0870  182.3402  153.7681 N   0  0  0  0  0  0  0  0  0  0  0  0
  196.5757  180.7019  155.5986 C   0  0  1  0  0  0  0  0  0  0  0  0
  195.9900  181.8431  156.3414 N   0  0  1  0  0  0  0  0  0  0  0  0
  195.9565  181.6514  157.8072 C   0  0  1  0  0  0  0  0  0  0  0  0
  195.9799  182.9728  158.5352 C   0  0  0  0  0  0  0  0  0  0  0  0
  194.7698  183.6058  158.8698 C   0  0  0  0  0  0  0  0  0  0  0  0
  194.7868  184.8406  159.5394 C   0  0  0  0  0  0  0  0  0  0  0  0
  196.0144  185.4535  159.8683 C   0  0  0  0  0  0  0  0  0  0  0  0
  197.2278  184.8069  159.5471 C   0  0  0  0  0  0  0  0  0  0  0  0
  197.2104  183.5719  158.8742 C   0  0  0  0  0  0  0  0  0  0  0  0
  196.0295  186.8257  160.5166 C   0  0  1  0  0  0  0  0  0  0  0  0
  196.3888  187.9427  159.5941 N   0  0  2  0  0  0  0  0  0  0  0  0
  196.2163  187.6549  158.1482 C   0  0  2  0  0  0  0  0  0  0  0  0
  197.7197  188.5156  159.8922 C   0  0  2  0  0  0  0  0  0  0  0  0
  196.8376  184.2143  150.7357 C   0  0  0  0  0  0  0  0  0  0  0  0
  195.7496  183.7614  150.3799 O   0  0  0  0  0  0  0  0  0  0  0  0
  197.4019  185.3944  149.9323 C   0  0  2  0  0  0  0  0  0  0  0  0
  199.7520  183.6992  152.8635 C   0  0  0  0  0  0  0  0  0  0  0  0
  200.8449  184.3560  153.4674 C   0  0  0  0  0  0  0  0  0  0  0  0
  196.5795  182.6347  156.1350 H   0  0  0  0  0  0  0  0  0  0  0  0
  199.6429  187.5457  153.4063 H   0  0  0  0  0  0  0  0  0  0  0  0
  197.6704  186.4039  152.4785 H   0  0  0  0  0  0  0  0  0  0  0  0
  196.3345  179.1373  153.0982 H   0  0  0  0  0  0  0  0  0  0  0  0
  195.9492  179.8143  155.7051 H   0  0  0  0  0  0  0  0  0  0  0  0
  197.5466  180.4406  156.0284 H   0  0  0  0  0  0  0  0  0  0  0  0
  195.0484  181.1109  158.0792 H   0  0  0  0  0  0  0  0  0  0  0  0
  196.8065  181.0632  158.1554 H   0  0  0  0  0  0  0  0  0  0  0  0
  193.8264  183.1688  158.5788 H   0  0  0  0  0  0  0  0  0  0  0  0
  193.8530  185.3319  159.7680 H   0  0  0  0  0  0  0  0  0  0  0  0
  198.1736  185.2678  159.7893 H   0  0  0  0  0  0  0  0  0  0  0  0
  198.1450  183.1053  158.5963 H   0  0  0  0  0  0  0  0  0  0  0  0
  195.0546  187.0350  160.9603 H   0  0  0  0  0  0  0  0  0  0  0  0
  196.7379  186.7782  161.3345 H   0  0  0  0  0  0  0  0  0  0  0  0
  196.8864  186.8658  157.7995 H   0  0  0  0  0  0  0  0  0  0  0  0
  196.4210  188.5390  157.5434 H   0  0  0  0  0  0  0  0  0  0  0  0
  195.1888  187.3492  157.9422 H   0  0  0  0  0  0  0  0  0  0  0  0
  198.5092  187.7824  159.7189 H   0  0  0  0  0  0  0  0  0  0  0  0
  197.7839  188.8480  160.9312 H   0  0  0  0  0  0  0  0  0  0  0  0
  197.9158  189.3845  159.2606 H   0  0  0  0  0  0  0  0  0  0  0  0
  197.1600  186.3513  150.3998 H   0  0  0  0  0  0  0  0  0  0  0  0
  196.9998  185.3963  148.9148 H   0  0  0  0  0  0  0  0  0  0  0  0
  198.4874  185.3453  149.8475 H   0  0  0  0  0  0  0  0  0  0  0  0
  199.8087  182.6277  152.7151 H   0  0  0  0  0  0  0  0  0  0  0  0
  201.7076  183.7849  153.7821 H   0  0  0  0  0  0  0  0  0  0  0  0
  195.7281  188.6771  159.8063 H   0  0  0  0  0  0  0  0  0  0  0  0
  195.0487  182.0674  156.0164 H   0  0  0  0  0  0  0  0  0  0  0  0
  1  2  1  0
  2  3  1  0
  2 29  2  0
  3  4  2  0
  3 31  1  0
  4  5  1  0
  4 32  1  0
  5  6  1  0
  5 28  2  0
  6  7  1  0
  6 25  1  0
  7  8  1  0
  7 11  2  0
  8  9  1  0
  9 10  2  0
  9 33  1  0
 10 11  1  0
 10 12  1  0
 12 13  1  0
 12 34  1  6
 12 35  1  0
 13 14  1  0
 13 30  1  1
 13 56  1  0
 14 15  1  0
 14 36  1  6
 14 37  1  0
 15 16  1  0
 15 20  2  0
 16 17  2  0
 16 38  1  0
 17 18  1  0
 17 39  1  0
 18 19  2  0
 18 21  1  0
 19 20  1  0
 19 40  1  0
 20 41  1  0
 21 22  1  0
 21 42  1  1
 21 43  1  0
 22 23  1  0
 22 24  1  0
 22 55  1  1
 23 44  1  6
 23 45  1  0
 23 46  1  0
 24 47  1  1
 24 48  1  0
 24 49  1  0
 25 26  2  0
 25 27  1  0
 27 50  1  1
 27 51  1  0
 27 52  1  0
 28 29  1  0
 28 53  1  0
 29 54  1  0
M  CHG  2  13   1  22   1
M  END
>  <s_epik_cmdline>  (1417) 
J2VwaWtfcHl0aG9uJywgJy1waCcsICc3LjAwMDAwMCcsICctcGh0JywgJzIuMDAwMDAwJywgJy1tcycsICcxNicsICctdG4nLCAnOCcsICctbWEnLCAnMjAwJywgJy1pbWFlJywgJzxpbmZpbGUubWFlPicsICctb21hZScsICc8b3V0ZmlsZS5tYWU+Jw==

>  <s_epik_input>  (1417) 
Q2xjMVtjSF1bY0hdYyhbY0hdW2NIXTEpTihDKD1PKVtDSDNdKWMyc1tjSF1jKG4yKVtDSDJdW05IXVtDSDJdYzNbY0hdW2NIXWMoW2NIXVtjSF0zKVtDSDJdTihbQ0gzXSlbQ0gzXQ==

>  <s_i_glide_gridfile>  (1417) 
ATP-Grid

>  <s_lp_Force_Field>  (1417) 
OPLS_2005

>  <s_lp_Variant>  (1417) 
m_270004bbb____8288884____7548974-1

>  <s_lp_label>  (1417) 
1011_sdstereoexpander_1_neutralizer_1_epik_1_stereoizer_1

>  <s_m_source_file>  (1417) 
ATP-VSW-LIGPREP-003-in.maegz

>  <s_sd_BIOSOLVEIT.INFINISEE\_QUERY\_NAME>  (1417) 
Ref-Lig

>  <s_sd_BIOSOLVEIT.INFINISEE\_QUERY\_SMILES>  (1417) 
S(c1nc2c(cc1C[NH2+]Cc3ccc(cc3)C[NH+](C)C)cccc2)Cc4ccccc4

>  <s_sd_BIOSOLVEIT.INFINISEE\_REACTION\_NAME>  (1417) 
m_270004bbb

>  <s_sd_BIOSOLVEIT.INFINISEE\_REAGENT1\_SMILES>  (1417) 
[R1*]NCc1ccc(cc1)CN(C)C

>  <s_sd_BIOSOLVEIT.INFINISEE\_REAGENT2\_SMILES>  (1417) 
[R1*]CC=1N=C(SC1)N(c2ccc(Cl)cc2)C(=O)C

>  <s_sd_BIOSOLVEIT.INFINISEE\_SPACE>  (1417) 
REALSpace_44bn_2023-08

>  <s_vsw_compound_code>  (1417) 
32323

>  <s_vsw_variant>  (1417) 
32323-1

>  <r_epik_Charging_Adjusted_Penalty>  (1417) 
0.42435712099276002

>  <r_epik_Ionization_Penalty>  (1417) 
0.21249999999999999

>  <r_epik_Ionization_Penalty_Charging>  (1417) 
0.21249999999999999

>  <r_epik_Ionization_Penalty_Neutral>  (1417) 
0

>  <r_epik_State_Penalty>  (1417) 
0.21190000000000001

>  <r_i_docking_score>  (1417) 
-5.7135784593553698

>  <r_i_glide_ecoul>  (1417) 
-14.546216011047401

>  <r_i_glide_eff_state_penalty>  (1417) 
0.21190000000000001

>  <r_i_glide_einternal>  (1417) 
8.1856231689453107

>  <r_i_glide_emodel>  (1417) 
-72.222316622920999

>  <r_i_glide_energy>  (1417) 
-48.336777687072797

>  <r_i_glide_erotb>  (1417) 
0.74937990826423195

>  <r_i_glide_esite>  (1417) 
-0.090499872219273997

>  <r_i_glide_evdw>  (1417) 
-33.790561676025398

>  <r_i_glide_gscore>  (1417) 
-5.9254784593553698

>  <r_i_glide_hbond>  (1417) 
-0.31158194295281899

>  <r_i_glide_ligand_efficiency>  (1417) 
-0.197019946874323

>  <r_i_glide_ligand_efficiency_ln>  (1417) 
-1.30826458334357

>  <r_i_glide_ligand_efficiency_sa>  (1417) 
-0.60530769709829702

>  <r_i_glide_lipo>  (1417) 
-1.8074802599294499

>  <r_i_glide_metal>  (1417) 
-0

>  <r_i_glide_rewards>  (1417) 
-0.59383580705967898

>  <r_lp_Energy>  (1417) 
32.581882

>  <r_lp_tautomer_probability>  (1417) 
1

>  <r_qp_ACxDN^.5/SA>  (1417) 
0.0101689

>  <r_qp_CIQPlogS>  (1417) 
-3.6469999999999998

>  <r_qp_EA(eV)>  (1417) 
1.125

>  <r_qp_FISA>  (1417) 
57.235999999999997

>  <r_qp_FOSA>  (1417) 
320.86900000000003

>  <r_qp_IP(eV)>  (1417) 
9.0050000000000008

>  <r_qp_Jm>  (1417) 
0.00029162342853985098

>  <r_qp_PISA>  (1417) 
298.81299999999999

>  <r_qp_PSA>  (1417) 
58.344999999999999

>  <r_qp_PercentHumanOralAbsorption>  (1417) 
90.341999999999999

>  <r_qp_QPPCaco>  (1417) 
176.57499999999999

>  <r_qp_QPPMDCK>  (1417) 
371.19299999999998

>  <r_qp_QPlogBB>  (1417) 
0.499

>  <r_qp_QPlogHERG>  (1417) 
-8.1820000000000004

>  <r_qp_QPlogKhsa>  (1417) 
0.439

>  <r_qp_QPlogKp>  (1417) 
-4.8789999999999996

>  <r_qp_QPlogPC16>  (1417) 
14.879

>  <r_qp_QPlogPo/w>  (1417) 
3.9590000000000001

>  <r_qp_QPlogPoct>  (1417) 
21.771000000000001

>  <r_qp_QPlogPw>  (1417) 
11.653

>  <r_qp_QPlogS>  (1417) 
-4.2889999999999997

>  <r_qp_QPpolrz>  (1417) 
47.323999999999998

>  <r_qp_SASA>  (1417) 
786.71600000000001

>  <r_qp_SAamideO>  (1417) 
0

>  <r_qp_SAfluorine>  (1417) 
0

>  <r_qp_WPSA>  (1417) 
109.798

>  <r_qp_accptHB>  (1417) 
8

>  <r_qp_dip^2/V>  (1417) 
0.021551000000000001

>  <r_qp_dipole>  (1417) 
5.4800000000000004

>  <r_qp_donorHB>  (1417) 
1

>  <r_qp_glob>  (1417) 
0.76685910000000002

>  <r_qp_mol_MW>  (1417) 
428.97899999999998

>  <r_qp_volume>  (1417) 
1393.327

>  <r_sd_BIOSOLVEIT.INFINISEE\_FTREES\_SIMILARITY>  (1417) 
0.91600000000000004

>  <r_sd_BIOSOLVEIT.LOGP>  (1417) 
2.3892000000000002

>  <r_sd_BIOSOLVEIT.TPSA>  (1417) 
54.25

>  <i_epik_Tot_Q>  (1417) 
2

>  <i_epik_Tot_abs_Q>  (1417) 
2

>  <i_f3d_flags>  (1417) 
0

>  <i_i_glide_confnum>  (1417) 
9

>  <i_i_glide_lignum>  (1417) 
378

>  <i_i_glide_posenum>  (1417) 
14

>  <i_i_glide_rotatable_bonds>  (1417) 
9

>  <i_lp_mmshare_version>  (1417) 
65135

>  <i_m_ct_format>  (1417) 
2

>  <i_m_source_file_index>  (1417) 
1011

>  <i_qp_#NandO>  (1417) 
5

>  <i_qp_#acid>  (1417) 
0

>  <i_qp_#amide>  (1417) 
0

>  <i_qp_#amidine>  (1417) 
0

>  <i_qp_#amine>  (1417) 
2

>  <i_qp_#in34>  (1417) 
0

>  <i_qp_#in56>  (1417) 
17

>  <i_qp_#metab>  (1417) 
6

>  <i_qp_#nonHatm>  (1417) 
29

>  <i_qp_#noncon>  (1417) 
0

>  <i_qp_#ringatoms>  (1417) 
17

>  <i_qp_#rotor>  (1417) 
8

>  <i_qp_#rtvFG>  (1417) 
0

>  <i_qp_#stars>  (1417) 
0

>  <i_qp_CNS>  (1417) 
2

>  <i_qp_HumanOralAbsorption>  (1417) 
3

>  <i_qp_RuleOfFive>  (1417) 
0

>  <i_qp_RuleOfThree>  (1417) 
0

>  <i_sd_BIOSOLVEIT.INFINISEE\_REAGENT1\_NAME>  (1417) 
8288884

>  <i_sd_BIOSOLVEIT.INFINISEE\_REAGENT2\_NAME>  (1417) 
7548974

>  <i_sd_BIOSOLVEIT.INFINISEE\_RESULT\_RANK>  (1417) 
26723

>  <i_sd_BIOSOLVEIT.MOLECULAR\_WEIGHT>  (1417) 
431

>  <i_sd_version>  (1417) 
0

>  <b_lp_Chiralities_Consistent>  (1417) 
1

>  <b_sd_chiral_flag>  (1417) 
0

>  <canonical_id>  (1417) 
ATP-HTVS-DF96FF74234A

>  <compound_code>  (1417) 
32323

>  <title>  (1417) 
m_270004bbb____8288884____7548974

>  <variant>  (1417) 
32323-1

>  <source_file>  (1417) 
运行/运行/ATP-VSW/ATP-VSW-DOCK_HTVS_1-003_lib/ATP-VSW-DOCK_HTVS_1-003_lib.mae

>  <canonical_smiles>  (1417) 
CC(=O)N(c1ccc(Cl)cc1)c1nc(C[NH2+]Cc2ccc(C[NH+](C)C)cc2)cs1

>  <scaffold>  (1417) 
c1ccc(C[NH2+]Cc2csc(Nc3ccccc3)n2)cc1

>  <molecular_formula>  (1417) 
C22H27ClN4OS+2

$$$$
ATP-HTVS-DFB30BBC8B3D
     RDKit          3D

 68 72  0  0  0  0  0  0  0  0999 V2000
  200.0874  185.7127  156.4251 N   0  0  0  0  0  0  0  0  0  0  0  0
  199.4701  184.5920  156.8458 C   0  0  0  0  0  0  0  0  0  0  0  0
  198.2528  184.1248  156.3109 C   0  0  0  0  0  0  0  0  0  0  0  0
  197.6541  184.8721  155.2713 C   0  0  0  0  0  0  0  0  0  0  0  0
  198.2995  186.0387  154.8206 C   0  0  0  0  0  0  0  0  0  0  0  0
  199.5068  186.4213  155.4339 C   0  0  0  0  0  0  0  0  0  0  0  0
  197.6414  182.8289  156.8296 C   0  0  1  0  0  0  0  0  0  0  0  0
  196.3636  183.0677  157.5085 N   0  0  0  0  0  0  0  0  0  0  0  0
  195.6954  181.8596  157.9758 C   0  0  1  0  0  0  0  0  0  0  0  0
  194.6440  182.3463  158.9529 C   0  0  1  0  0  0  0  0  0  0  0  0
  195.1930  183.6710  159.4605 C   0  0  1  0  0  0  0  0  0  0  0  0
  196.5266  183.8474  158.7298 C   0  0  1  0  0  0  0  0  0  0  0  0
  197.4569  181.8398  155.6625 C   0  0  1  0  0  0  0  0  0  0  0  0
  197.4711  180.4259  156.1189 N   0  0  1  0  0  0  0  0  0  0  0  0
  197.0214  179.4434  155.1158 C   0  0  1  0  0  0  0  0  0  0  0  0
  197.7940  179.5912  153.8344 C   0  0  0  0  0  0  0  0  0  0  0  0
  199.0444  178.9995  153.4644 C   0  0  0  0  0  0  0  0  0  0  0  0
  199.4272  179.4171  152.2638 N   0  0  0  0  0  0  0  0  0  0  0  0
  198.4650  180.2623  151.8387 N   0  0  0  0  0  0  0  0  0  0  0  0
  197.4669  180.3908  152.7711 C   0  0  0  0  0  0  0  0  0  0  0  0
  198.5743  180.8988  150.5385 C   0  0  1  0  0  0  0  0  0  0  0  0
  198.3051  179.8953  149.4315 C   0  0  0  0  0  0  0  0  0  0  0  0
  196.9915  179.4393  149.1920 C   0  0  0  0  0  0  0  0  0  0  0  0
  196.7449  178.5069  148.1649 C   0  0  0  0  0  0  0  0  0  0  0  0
  197.8077  178.0113  147.3890 C   0  0  0  0  0  0  0  0  0  0  0  0
  199.1215  178.4560  147.6317 C   0  0  0  0  0  0  0  0  0  0  0  0
  199.3695  179.3970  148.6511 C   0  0  0  0  0  0  0  0  0  0  0  0
  199.8963  178.0456  154.2031 C   0  0  0  0  0  0  0  0  0  0  0  0
  199.7926  177.8983  155.6100 C   0  0  0  0  0  0  0  0  0  0  0  0
  200.5644  176.9470  156.2935 C   0  0  0  0  0  0  0  0  0  0  0  0
  201.4807  176.1435  155.5936 C   0  0  0  0  0  0  0  0  0  0  0  0
  201.6150  176.2871  154.1958 C   0  0  0  0  0  0  0  0  0  0  0  0
  200.8187  177.2251  153.5065 C   0  0  0  0  0  0  0  0  0  0  0  0
  202.3267  175.1452  156.3506 C   0  0  2  0  0  0  0  0  0  0  0  0
  198.4003  180.1909  156.4250 H   0  0  0  0  0  0  0  0  0  0  0  0
  199.9680  184.0443  157.6301 H   0  0  0  0  0  0  0  0  0  0  0  0
  196.7245  184.5596  154.8172 H   0  0  0  0  0  0  0  0  0  0  0  0
  197.8799  186.6353  154.0212 H   0  0  0  0  0  0  0  0  0  0  0  0
  200.0275  187.3159  155.1177 H   0  0  0  0  0  0  0  0  0  0  0  0
  198.3580  182.3914  157.5288 H   0  0  0  0  0  0  0  0  0  0  0  0
  195.2224  181.3095  157.1624 H   0  0  0  0  0  0  0  0  0  0  0  0
  196.4059  181.2218  158.5027 H   0  0  0  0  0  0  0  0  0  0  0  0
  193.6952  182.4874  158.4362 H   0  0  0  0  0  0  0  0  0  0  0  0
  194.5000  181.6037  159.7361 H   0  0  0  0  0  0  0  0  0  0  0  0
  194.5077  184.4763  159.2043 H   0  0  0  0  0  0  0  0  0  0  0  0
  195.3417  183.6719  160.5353 H   0  0  0  0  0  0  0  0  0  0  0  0
  197.3418  183.4296  159.3255 H   0  0  0  0  0  0  0  0  0  0  0  0
  196.7511  184.8969  158.5167 H   0  0  0  0  0  0  0  0  0  0  0  0
  196.5396  182.0731  155.1254 H   0  0  0  0  0  0  0  0  0  0  0  0
  198.2702  181.9707  154.9523 H   0  0  0  0  0  0  0  0  0  0  0  0
  197.1112  178.4446  155.5518 H   0  0  0  0  0  0  0  0  0  0  0  0
  195.9581  179.6305  154.9528 H   0  0  0  0  0  0  0  0  0  0  0  0
  196.6244  181.0460  152.6116 H   0  0  0  0  0  0  0  0  0  0  0  0
  197.8608  181.7216  150.4761 H   0  0  0  0  0  0  0  0  0  0  0  0
  199.5718  181.3311  150.4375 H   0  0  0  0  0  0  0  0  0  0  0  0
  196.1726  179.8083  149.7923 H   0  0  0  0  0  0  0  0  0  0  0  0
  195.7380  178.1676  147.9700 H   0  0  0  0  0  0  0  0  0  0  0  0
  197.6133  177.2916  146.6073 H   0  0  0  0  0  0  0  0  0  0  0  0
  199.9389  178.0757  147.0344 H   0  0  0  0  0  0  0  0  0  0  0  0
  200.3812  179.7296  148.8357 H   0  0  0  0  0  0  0  0  0  0  0  0
  199.1256  178.4915  156.2158 H   0  0  0  0  0  0  0  0  0  0  0  0
  200.4423  176.8346  157.3580 H   0  0  0  0  0  0  0  0  0  0  0  0
  202.3272  175.6745  153.6474 H   0  0  0  0  0  0  0  0  0  0  0  0
  200.9288  177.3067  152.4336 H   0  0  0  0  0  0  0  0  0  0  0  0
  203.2376  174.9018  155.7955 H   0  0  0  0  0  0  0  0  0  0  0  0
  201.7533  174.2355  156.5148 H   0  0  0  0  0  0  0  0  0  0  0  0
  202.6149  175.5551  157.3217 H   0  0  0  0  0  0  0  0  0  0  0  0
  196.8375  180.2936  156.9058 H   0  0  0  0  0  0  0  0  0  0  0  0
  1  2  1  0
  1  6  2  0
  2  3  2  0
  2 36  1  0
  3  4  1  0
  3  7  1  0
  4  5  2  0
  4 37  1  0
  5  6  1  0
  5 38  1  0
  6 39  1  0
  7  8  1  0
  7 13  1  0
  7 40  1  1
  8  9  1  0
  8 12  1  0
  9 10  1  0
  9 41  1  6
  9 42  1  0
 10 11  1  0
 10 43  1  6
 10 44  1  0
 11 12  1  0
 11 45  1  1
 11 46  1  0
 12 47  1  1
 12 48  1  0
 13 14  1  0
 13 49  1  6
 13 50  1  0
 14 15  1  0
 14 35  1  1
 14 68  1  0
 15 16  1  0
 15 51  1  1
 15 52  1  0
 16 17  1  0
 16 20  2  0
 17 18  2  0
 17 28  1  0
 18 19  1  0
 19 20  1  0
 19 21  1  0
 20 53  1  0
 21 22  1  0
 21 54  1  1
 21 55  1  0
 22 23  2  0
 22 27  1  0
 23 24  1  0
 23 56  1  0
 24 25  2  0
 24 57  1  0
 25 26  1  0
 25 58  1  0
 26 27  2  0
 26 59  1  0
 27 60  1  0
 28 29  1  0
 28 33  2  0
 29 30  2  0
 29 61  1  0
 30 31  1  0
 30 62  1  0
 31 32  2  0
 31 34  1  0
 32 33  1  0
 32 63  1  0
 33 64  1  0
 34 65  1  6
 34 66  1  0
 34 67  1  0
M  CHG  1  14   1
M  END
>  <s_epik_cmdline>  (1418) 
J2VwaWtfcHl0aG9uJywgJy1waCcsICc3LjAwMDAwMCcsICctcGh0JywgJzIuMDAwMDAwJywgJy1tcycsICcxNicsICctdG4nLCAnOCcsICctbWEnLCAnMjAwJywgJy1pbWFlJywgJzxpbmZpbGUubWFlPicsICctb21hZScsICc8b3V0ZmlsZS5tYWU+Jw==

>  <s_epik_input>  (1418) 
W2NIXTFbY0hdW2NIXW5bY0hdYzFbQ0BASF0oTjJbQ0gyXVtDSDJdW0NIMl1bQ0gyXTIpW0NIMl1bTkhdW0NIMl1jM2MoLWM0W2NIXVtjSF1jKFtDSDNdKVtjSF1bY0hdNClubihbY0hdMylbQ0gyXWM1W2NIXVtjSF1bY0hdW2NIXVtjSF01

>  <s_i_glide_gridfile>  (1418) 
ATP-Grid

>  <s_lp_Force_Field>  (1418) 
OPLS_2005

>  <s_lp_Variant>  (1418) 
m_270004bbb____21668748____7547626-1

>  <s_lp_label>  (1418) 
2047_sdstereoexpander_1_neutralizer_1_epik_1_stereoizer_1

>  <s_m_source_file>  (1418) 
ATP-VSW-LIGPREP-002-in.maegz

>  <s_sd_BIOSOLVEIT.INFINISEE\_QUERY\_NAME>  (1418) 
Ref-Lig

>  <s_sd_BIOSOLVEIT.INFINISEE\_QUERY\_SMILES>  (1418) 
S(c1nc2c(cc1C[NH2+]Cc3ccc(cc3)C[NH+](C)C)cccc2)Cc4ccccc4

>  <s_sd_BIOSOLVEIT.INFINISEE\_REACTION\_NAME>  (1418) 
m_270004bbb

>  <s_sd_BIOSOLVEIT.INFINISEE\_REAGENT1\_SMILES>  (1418) 
[R1*]NCC(N1CCCC1)c2cnccc2

>  <s_sd_BIOSOLVEIT.INFINISEE\_REAGENT2\_SMILES>  (1418) 
[R1*]CC=1C(=NN(C1)Cc2ccccc2)c3ccc(cc3)C

>  <s_sd_BIOSOLVEIT.INFINISEE\_SPACE>  (1418) 
REALSpace_44bn_2023-08

>  <s_vsw_compound_code>  (1418) 
65474

>  <s_vsw_variant>  (1418) 
65474-1

>  <r_epik_Charging_Adjusted_Penalty>  (1418) 
0.27787355072731501

>  <r_epik_Ionization_Penalty>  (1418) 
0.039800000000000002

>  <r_epik_Ionization_Penalty_Charging>  (1418) 
0.0206

>  <r_epik_Ionization_Penalty_Neutral>  (1418) 
0.019300000000000001

>  <r_epik_State_Penalty>  (1418) 
0.25729999999999997

>  <r_i_docking_score>  (1418) 
-4.0335046177462797

>  <r_i_glide_ecoul>  (1418) 
-9.4878950119018608

>  <r_i_glide_eff_state_penalty>  (1418) 
0.25729999999999997

>  <r_i_glide_einternal>  (1418) 
3.68278956413269

>  <r_i_glide_emodel>  (1418) 
-58.577459859762598

>  <r_i_glide_energy>  (1418) 
-43.873583793640101

>  <r_i_glide_erotb>  (1418) 
0.88157475745951397

>  <r_i_glide_esite>  (1418) 
-0.10000000000000001

>  <r_i_glide_evdw>  (1418) 
-34.385688781738303

>  <r_i_glide_gscore>  (1418) 
-4.2908046177462804

>  <r_i_glide_hbond>  (1418) 
-0.182886151109905

>  <r_i_glide_ligand_efficiency>  (1418) 
-0.118632488757244

>  <r_i_glide_ligand_efficiency_ln>  (1418) 
-0.89111430603251096

>  <r_i_glide_ligand_efficiency_sa>  (1418) 
-0.38432321014113102

>  <r_i_glide_lipo>  (1418) 
-1.19393854867257

>  <r_i_glide_metal>  (1418) 
-0

>  <r_i_glide_rewards>  (1418) 
-0.553085984551134

>  <r_lp_Energy>  (1418) 
36.984915999999998

>  <r_lp_tautomer_probability>  (1418) 
1

>  <r_qp_ACxDN^.5/SA>  (1418) 
0.0084691999999999996

>  <r_qp_CIQPlogS>  (1418) 
-5.1189999999999998

>  <r_qp_EA(eV)>  (1418) 
0.192

>  <r_qp_FISA>  (1418) 
38.042000000000002

>  <r_qp_FOSA>  (1418) 
339.178

>  <r_qp_IP(eV)>  (1418) 
8.6340000000000003

>  <r_qp_Jm>  (1418) 
0.0024580490700039002

>  <r_qp_PISA>  (1418) 
390.26600000000002

>  <r_qp_PSA>  (1418) 
44.445

>  <r_qp_PercentHumanOralAbsorption>  (1418) 
100

>  <r_qp_QPPCaco>  (1418) 
268.50299999999999

>  <r_qp_QPPMDCK>  (1418) 
146.17400000000001

>  <r_qp_QPlogBB>  (1418) 
0.497

>  <r_qp_QPlogHERG>  (1418) 
-7.8300000000000001

>  <r_qp_QPlogKhsa>  (1418) 
0.997

>  <r_qp_QPlogKp>  (1418) 
-4.2030000000000003

>  <r_qp_QPlogPC16>  (1418) 
15.103

>  <r_qp_QPlogPo/w>  (1418) 
4.952

>  <r_qp_QPlogPoct>  (1418) 
22.074999999999999

>  <r_qp_QPlogPw>  (1418) 
10.582000000000001

>  <r_qp_QPlogS>  (1418) 
-4.0609999999999999

>  <r_qp_QPpolrz>  (1418) 
51.366

>  <r_qp_SASA>  (1418) 
767.48599999999999

>  <r_qp_SAamideO>  (1418) 
0

>  <r_qp_SAfluorine>  (1418) 
0

>  <r_qp_WPSA>  (1418) 
0

>  <r_qp_accptHB>  (1418) 
6.5

>  <r_qp_dip^2/V>  (1418) 
0.0159925

>  <r_qp_dipole>  (1418) 
4.8529999999999998

>  <r_qp_donorHB>  (1418) 
1

>  <r_qp_glob>  (1418) 
0.81557679999999999

>  <r_qp_mol_MW>  (1418) 
451.613

>  <r_qp_volume>  (1418) 
1472.499

>  <r_sd_BIOSOLVEIT.INFINISEE\_FTREES\_SIMILARITY>  (1418) 
0.90200000000000002

>  <r_sd_BIOSOLVEIT.LOGP>  (1418) 
2.7852199999999998

>  <r_sd_BIOSOLVEIT.MOLECULAR\_WEIGHT>  (1418) 
453.63099999999997

>  <r_sd_BIOSOLVEIT.TPSA>  (1418) 
51.759999999999998

>  <i_epik_Tot_Q>  (1418) 
1

>  <i_epik_Tot_abs_Q>  (1418) 
1

>  <i_f3d_flags>  (1418) 
0

>  <i_i_glide_confnum>  (1418) 
9

>  <i_i_glide_lignum>  (1418) 
737

>  <i_i_glide_posenum>  (1418) 
20

>  <i_i_glide_rotatable_bonds>  (1418) 
9

>  <i_lp_mmshare_version>  (1418) 
65135

>  <i_m_ct_format>  (1418) 
2

>  <i_m_source_file_index>  (1418) 
2047

>  <i_qp_#NandO>  (1418) 
5

>  <i_qp_#acid>  (1418) 
0

>  <i_qp_#amide>  (1418) 
0

>  <i_qp_#amidine>  (1418) 
0

>  <i_qp_#amine>  (1418) 
2

>  <i_qp_#in34>  (1418) 
0

>  <i_qp_#in56>  (1418) 
28

>  <i_qp_#metab>  (1418) 
9

>  <i_qp_#nonHatm>  (1418) 
34

>  <i_qp_#noncon>  (1418) 
4

>  <i_qp_#ringatoms>  (1418) 
28

>  <i_qp_#rotor>  (1418) 
8

>  <i_qp_#rtvFG>  (1418) 
0

>  <i_qp_#stars>  (1418) 
1

>  <i_qp_CNS>  (1418) 
2

>  <i_qp_HumanOralAbsorption>  (1418) 
3

>  <i_qp_RuleOfFive>  (1418) 
0

>  <i_qp_RuleOfThree>  (1418) 
1

>  <i_sd_BIOSOLVEIT.INFINISEE\_REAGENT1\_NAME>  (1418) 
21668748

>  <i_sd_BIOSOLVEIT.INFINISEE\_REAGENT2\_NAME>  (1418) 
7547626

>  <i_sd_BIOSOLVEIT.INFINISEE\_RESULT\_RANK>  (1418) 
93758

>  <i_sd_version>  (1418) 
0

>  <b_lp_Chiralities_Consistent>  (1418) 
1

>  <b_sd_chiral_flag>  (1418) 
0

>  <canonical_id>  (1418) 
ATP-HTVS-DFB30BBC8B3D

>  <compound_code>  (1418) 
65474

>  <title>  (1418) 
m_270004bbb____21668748____7547626

>  <variant>  (1418) 
65474-1

>  <source_file>  (1418) 
运行/运行/ATP-VSW/ATP-VSW-DOCK_HTVS_1-002_lib.maegz

>  <canonical_smiles>  (1418) 
Cc1ccc(-c2nn(Cc3ccccc3)cc2C[NH2+]C[C@@H](c2cccnc2)N2CCCC2)cc1

>  <scaffold>  (1418) 
c1ccc(Cn2cc(C[NH2+]CC(c3cccnc3)N3CCCC3)c(-c3ccccc3)n2)cc1

>  <molecular_formula>  (1418) 
C29H34N5+

$$$$
ATP-HTVS-DFD60D9DE448
     RDKit          3D

 52 55  0  0  0  0  0  0  0  0999 V2000
  199.8009  175.4037  151.6631 S   0  0  0  0  0  0  0  0  0  0  0  0
  200.8766  174.8735  152.9616 C   0  0  0  0  0  0  0  0  0  0  0  0
  201.0179  173.4919  153.2190 C   0  0  0  0  0  0  0  0  0  0  0  0
  200.3547  172.5802  152.4632 F   0  0  0  0  0  0  0  0  0  0  0  0
  201.8431  173.0522  154.2740 C   0  0  0  0  0  0  0  0  0  0  0  0
  202.5325  173.9880  155.0710 C   0  0  0  0  0  0  0  0  0  0  0  0
  202.4032  175.3660  154.8052 C   0  0  0  0  0  0  0  0  0  0  0  0
  201.5813  175.8124  153.7543 C   0  0  0  0  0  0  0  0  0  0  0  0
  199.7314  177.2075  151.7581 C   0  0  1  0  0  0  0  0  0  0  0  0
  198.8928  177.7588  150.6499 C   0  0  0  0  0  0  0  0  0  0  0  0
  199.1045  177.5134  149.2570 C   0  0  0  0  0  0  0  0  0  0  0  0
  198.1096  178.2429  148.5663 C   0  0  0  0  0  0  0  0  0  0  0  0
  197.3145  178.8978  149.4783 O   0  0  0  0  0  0  0  0  0  0  0  0
  197.8160  178.6237  150.7287 C   0  0  0  0  0  0  0  0  0  0  0  0
  197.1329  179.2473  151.8739 C   0  0  0  0  0  0  0  0  0  0  0  0
  195.9453  179.5459  151.8123 O   0  0  0  0  0  0  0  0  0  0  0  0
  197.9104  179.5565  152.9235 N   0  0  0  0  0  0  0  0  0  0  0  0
  197.4988  180.3353  154.0802 C   0  0  1  0  0  0  0  0  0  0  0  0
  197.4609  181.8592  153.8589 C   0  0  0  0  0  0  0  0  0  0  0  0
  197.2595  182.7482  154.9511 C   0  0  0  0  0  0  0  0  0  0  0  0
  197.1984  184.1451  154.7235 C   0  0  0  0  0  0  0  0  0  0  0  0
  197.3295  184.6716  153.4269 C   0  0  0  0  0  0  0  0  0  0  0  0
  197.5382  183.8006  152.3434 C   0  0  0  0  0  0  0  0  0  0  0  0
  197.6134  182.4123  152.5609 C   0  0  0  0  0  0  0  0  0  0  0  0
  197.1025  182.2336  156.3804 C   0  0  1  0  0  0  0  0  0  0  0  0
  195.8719  181.4367  156.5372 N   0  0  2  0  0  0  0  0  0  0  0  0
  197.9957  178.2514  147.1695 C   0  0  0  0  0  0  0  0  0  0  0  0
  198.9138  177.4912  146.4183 C   0  0  0  0  0  0  0  0  0  0  0  0
  199.9163  176.7447  147.0729 C   0  0  0  0  0  0  0  0  0  0  0  0
  200.0174  176.7669  148.4773 C   0  0  0  0  0  0  0  0  0  0  0  0
  195.7787  181.0925  157.4837 H   0  0  0  0  0  0  0  0  0  0  0  0
  195.9088  180.6270  155.9374 H   0  0  0  0  0  0  0  0  0  0  0  0
  201.9378  171.9925  154.4696 H   0  0  0  0  0  0  0  0  0  0  0  0
  203.1584  173.6509  155.8862 H   0  0  0  0  0  0  0  0  0  0  0  0
  202.9293  176.0927  155.4072 H   0  0  0  0  0  0  0  0  0  0  0  0
  201.5156  176.8802  153.5926 H   0  0  0  0  0  0  0  0  0  0  0  0
  199.3230  177.4414  152.7378 H   0  0  0  0  0  0  0  0  0  0  0  0
  200.7315  177.6417  151.6935 H   0  0  0  0  0  0  0  0  0  0  0  0
  198.8757  179.2630  152.8957 H   0  0  0  0  0  0  0  0  0  0  0  0
  196.5229  179.9718  154.4124 H   0  0  0  0  0  0  0  0  0  0  0  0
  198.2047  180.1122  154.8818 H   0  0  0  0  0  0  0  0  0  0  0  0
  197.0348  184.8315  155.5413 H   0  0  0  0  0  0  0  0  0  0  0  0
  197.2684  185.7383  153.2558 H   0  0  0  0  0  0  0  0  0  0  0  0
  197.6363  184.1869  151.3389 H   0  0  0  0  0  0  0  0  0  0  0  0
  197.7792  181.7984  151.6885 H   0  0  0  0  0  0  0  0  0  0  0  0
  197.9744  181.6427  156.6661 H   0  0  0  0  0  0  0  0  0  0  0  0
  197.0698  183.0784  157.0763 H   0  0  0  0  0  0  0  0  0  0  0  0
  197.2133  178.8155  146.6835 H   0  0  0  0  0  0  0  0  0  0  0  0
  198.8440  177.4516  145.3414 H   0  0  0  0  0  0  0  0  0  0  0  0
  200.5986  176.1421  146.4924 H   0  0  0  0  0  0  0  0  0  0  0  0
  200.7879  176.1880  148.9666 H   0  0  0  0  0  0  0  0  0  0  0  0
  195.0563  181.9944  156.2985 H   0  0  0  0  0  0  0  0  0  0  0  0
  1  2  1  0
  1  9  1  0
  2  3  1  0
  2  8  2  0
  3  4  1  0
  3  5  2  0
  5  6  1  0
  5 33  1  0
  6  7  2  0
  6 34  1  0
  7  8  1  0
  7 35  1  0
  8 36  1  0
  9 10  1  0
  9 37  1  1
  9 38  1  0
 10 11  1  0
 10 14  2  0
 11 12  1  0
 11 30  2  0
 12 13  1  0
 12 27  2  0
 13 14  1  0
 14 15  1  0
 15 16  2  0
 15 17  1  0
 17 18  1  0
 17 39  1  0
 18 19  1  0
 18 40  1  1
 18 41  1  0
 19 20  1  0
 19 24  2  0
 20 21  2  0
 20 25  1  0
 21 22  1  0
 21 42  1  0
 22 23  2  0
 22 43  1  0
 23 24  1  0
 23 44  1  0
 24 45  1  0
 25 26  1  0
 25 46  1  1
 25 47  1  0
 26 31  1  1
 26 32  1  0
 26 52  1  0
 27 28  1  0
 27 48  1  0
 28 29  2  0
 28 49  1  0
 29 30  1  0
 29 50  1  0
 30 51  1  0
M  CHG  1  26   1
M  END
>  <s_epik_cmdline>  (1419) 
J2VwaWtfcHl0aG9uJywgJy1waCcsICc3LjAwMDAwMCcsICctcGh0JywgJzIuMDAwMDAwJywgJy1tcycsICcxNicsICctdG4nLCAnOCcsICctbWEnLCAnMjAwJywgJy1pbWFlJywgJzxpbmZpbGUubWFlPicsICctb21hZScsICc8b3V0ZmlsZS5tYWU+Jw==

>  <s_epik_input>  (1419) 
W2NIXTFbY0hdW2NIXVtjSF1jKEYpYzFTW0NIMl1jMmMob2MoYzIzKVtjSF1bY0hdW2NIXVtjSF0zKUMoPU8pW05IXVtDSDJdYzRjKFtDSDJdW05IMl0pW2NIXVtjSF1bY0hdW2NIXTQ=

>  <s_i_glide_gridfile>  (1419) 
ATP-Grid

>  <s_lp_Force_Field>  (1419) 
OPLS_2005

>  <s_lp_Variant>  (1419) 
m_272430bbb____11499548____10044804-1

>  <s_lp_label>  (1419) 
1946_sdstereoexpander_1_neutralizer_1_epik_1_stereoizer_1

>  <s_m_source_file>  (1419) 
ATP-VSW-LIGPREP-002-in.maegz

>  <s_sd_BIOSOLVEIT.INFINISEE\_QUERY\_NAME>  (1419) 
Ref-Lig

>  <s_sd_BIOSOLVEIT.INFINISEE\_QUERY\_SMILES>  (1419) 
S(c1nc2c(cc1C[NH2+]Cc3ccc(cc3)C[NH+](C)C)cccc2)Cc4ccccc4

>  <s_sd_BIOSOLVEIT.INFINISEE\_REACTION\_NAME>  (1419) 
m_272430bbb

>  <s_sd_BIOSOLVEIT.INFINISEE\_REAGENT1\_SMILES>  (1419) 
[R1*]NCc1c(cccc1)CN

>  <s_sd_BIOSOLVEIT.INFINISEE\_REAGENT2\_SMILES>  (1419) 
[R1*]C(=O)C=1Oc2c(cccc2)C1CSc3c(F)cccc3

>  <s_sd_BIOSOLVEIT.INFINISEE\_SPACE>  (1419) 
REALSpace_44bn_2023-08

>  <s_vsw_compound_code>  (1419) 
62242

>  <s_vsw_variant>  (1419) 
62242-1

>  <r_epik_Charging_Adjusted_Penalty>  (1419) 
0.0547632744096661

>  <r_epik_Ionization_Penalty>  (1419) 
0.027400000000000001

>  <r_epik_Ionization_Penalty_Charging>  (1419) 
0.027400000000000001

>  <r_epik_Ionization_Penalty_Neutral>  (1419) 
0

>  <r_epik_State_Penalty>  (1419) 
0.027400000000000001

>  <r_i_docking_score>  (1419) 
-4.5780485965504196

>  <r_i_glide_ecoul>  (1419) 
-8.7347202301025408

>  <r_i_glide_eff_state_penalty>  (1419) 
0.027400000000000001

>  <r_i_glide_einternal>  (1419) 
2.5682461261749299

>  <r_i_glide_emodel>  (1419) 
-61.299650187474001

>  <r_i_glide_energy>  (1419) 
-42.940530776977504

>  <r_i_glide_erotb>  (1419) 
0.78018423984505403

>  <r_i_glide_esite>  (1419) 
-0.13630182777563099

>  <r_i_glide_evdw>  (1419) 
-34.205810546875

>  <r_i_glide_gscore>  (1419) 
-4.6054485965504197

>  <r_i_glide_hbond>  (1419) 
-0.27861773684448299

>  <r_i_glide_ligand_efficiency>  (1419) 
-0.152601619885014

>  <r_i_glide_ligand_efficiency_ln>  (1419) 
-1.04018252297094

>  <r_i_glide_ligand_efficiency_sa>  (1419) 
-0.47416871323034998

>  <r_i_glide_lipo>  (1419) 
-1.02175715947521

>  <r_i_glide_metal>  (1419) 
-0

>  <r_i_glide_rewards>  (1419) 
-0.92845755044102396

>  <r_lp_Energy>  (1419) 
15.250408

>  <r_qp_ACxDN^.5/SA>  (1419) 
0.012457899999999999

>  <r_qp_CIQPlogS>  (1419) 
-5.9630000000000001

>  <r_qp_EA(eV)>  (1419) 
0.875

>  <r_qp_FISA>  (1419) 
87.224000000000004

>  <r_qp_FOSA>  (1419) 
89.138000000000005

>  <r_qp_IP(eV)>  (1419) 
8.9499999999999993

>  <r_qp_Jm>  (1419) 
0.120245387405535

>  <r_qp_PISA>  (1419) 
389.75099999999998

>  <r_qp_PSA>  (1419) 
66.968999999999994

>  <r_qp_PercentHumanOralAbsorption>  (1419) 
100

>  <r_qp_QPPCaco>  (1419) 
367.83800000000002

>  <r_qp_QPPMDCK>  (1419) 
393.44900000000001

>  <r_qp_QPlogBB>  (1419) 
-0.128

>  <r_qp_QPlogHERG>  (1419) 
-6.0910000000000002

>  <r_qp_QPlogKhsa>  (1419) 
0.57499999999999996

>  <r_qp_QPlogKp>  (1419) 
-3.0489999999999999

>  <r_qp_QPlogPC16>  (1419) 
13.606999999999999

>  <r_qp_QPlogPo/w>  (1419) 
4.2069999999999999

>  <r_qp_QPlogPoct>  (1419) 
20.952000000000002

>  <r_qp_QPlogPw>  (1419) 
11.552

>  <r_qp_QPlogS>  (1419) 
-3.4950000000000001

>  <r_qp_QPpolrz>  (1419) 
40.878

>  <r_qp_SASA>  (1419) 
625.64700000000005

>  <r_qp_SAamideO>  (1419) 
0

>  <r_qp_SAfluorine>  (1419) 
26.84

>  <r_qp_WPSA>  (1419) 
59.534999999999997

>  <r_qp_accptHB>  (1419) 
4.5

>  <r_qp_dip^2/V>  (1419) 
0.019103999999999999

>  <r_qp_dipole>  (1419) 
4.8090000000000002

>  <r_qp_donorHB>  (1419) 
3

>  <r_qp_glob>  (1419) 
0.87799400000000005

>  <r_qp_mol_MW>  (1419) 
420.5

>  <r_qp_volume>  (1419) 
1210.5540000000001

>  <r_sd_BIOSOLVEIT.INFINISEE\_FTREES\_SIMILARITY>  (1419) 
0.90200000000000002

>  <r_sd_BIOSOLVEIT.LOGP>  (1419) 
4.5361000000000002

>  <r_sd_BIOSOLVEIT.MOLECULAR\_WEIGHT>  (1419) 
421.51299999999998

>  <r_sd_BIOSOLVEIT.TPSA>  (1419) 
69.879999999999995

>  <i_epik_Tot_Q>  (1419) 
1

>  <i_epik_Tot_abs_Q>  (1419) 
1

>  <i_f3d_flags>  (1419) 
0

>  <i_i_glide_confnum>  (1419) 
3

>  <i_i_glide_lignum>  (1419) 
704

>  <i_i_glide_posenum>  (1419) 
3

>  <i_i_glide_rotatable_bonds>  (1419) 
8

>  <i_lp_mmshare_version>  (1419) 
65135

>  <i_m_ct_format>  (1419) 
2

>  <i_m_source_file_index>  (1419) 
1946

>  <i_qp_#NandO>  (1419) 
4

>  <i_qp_#acid>  (1419) 
0

>  <i_qp_#amide>  (1419) 
0

>  <i_qp_#amidine>  (1419) 
0

>  <i_qp_#amine>  (1419) 
1

>  <i_qp_#in34>  (1419) 
0

>  <i_qp_#in56>  (1419) 
21

>  <i_qp_#metab>  (1419) 
6

>  <i_qp_#nonHatm>  (1419) 
30

>  <i_qp_#noncon>  (1419) 
0

>  <i_qp_#ringatoms>  (1419) 
21

>  <i_qp_#rotor>  (1419) 
8

>  <i_qp_#rtvFG>  (1419) 
0

>  <i_qp_#stars>  (1419) 
0

>  <i_qp_CNS>  (1419) 
0

>  <i_qp_HumanOralAbsorption>  (1419) 
3

>  <i_qp_RuleOfFive>  (1419) 
0

>  <i_qp_RuleOfThree>  (1419) 
0

>  <i_sd_BIOSOLVEIT.INFINISEE\_REAGENT1\_NAME>  (1419) 
11499548

>  <i_sd_BIOSOLVEIT.INFINISEE\_REAGENT2\_NAME>  (1419) 
10044804

>  <i_sd_BIOSOLVEIT.INFINISEE\_RESULT\_RANK>  (1419) 
87304

>  <i_sd_version>  (1419) 
0

>  <b_lp_Chiralities_Consistent>  (1419) 
1

>  <b_sd_chiral_flag>  (1419) 
0

>  <canonical_id>  (1419) 
ATP-HTVS-DFD60D9DE448

>  <compound_code>  (1419) 
62242

>  <title>  (1419) 
m_272430bbb____11499548____10044804

>  <variant>  (1419) 
62242-1

>  <source_file>  (1419) 
运行/运行/ATP-VSW/ATP-VSW-DOCK_HTVS_1-002_lib.maegz

>  <canonical_smiles>  (1419) 
[NH3+]Cc1ccccc1CNC(=O)c1oc2ccccc2c1CSc1ccccc1F

>  <scaffold>  (1419) 
O=C(NCc1ccccc1)c1oc2ccccc2c1CSc1ccccc1

>  <molecular_formula>  (1419) 
C24H22FN2O2S+

$$$$
ATP-HTVS-DFE69C12D963
     RDKit          3D

 60 63  0  0  0  0  0  0  0  0999 V2000
  198.6012  183.1634  154.8437 S   0  0  0  0  0  0  0  0  0  0  0  0
  197.7751  182.0518  153.7667 C   0  0  0  0  0  0  0  0  0  0  0  0
  198.3117  180.7194  153.8611 C   0  0  0  0  0  0  0  0  0  0  0  0
  197.7919  179.7571  152.9199 C   0  0  0  0  0  0  0  0  0  0  0  0
  196.7909  180.1234  151.9772 C   0  0  0  0  0  0  0  0  0  0  0  0
  196.2697  181.4225  151.9352 C   0  0  0  0  0  0  0  0  0  0  0  0
  196.7413  182.3883  152.8458 C   0  0  0  0  0  0  0  0  0  0  0  0
  199.3410  180.6369  154.9187 C   0  0  0  0  0  0  0  0  0  0  0  0
  200.0611  179.4432  155.2238 N   0  0  0  0  0  0  0  0  0  0  0  0
  199.5072  178.1070  154.9674 C   0  0  1  0  0  0  0  0  0  0  0  0
  200.4617  176.9717  155.2147 C   0  0  0  0  0  0  0  0  0  0  0  0
  201.0021  176.2719  154.1114 C   0  0  0  0  0  0  0  0  0  0  0  0
  201.8888  175.1964  154.3150 C   0  0  0  0  0  0  0  0  0  0  0  0
  202.2260  174.8383  155.6350 C   0  0  0  0  0  0  0  0  0  0  0  0
  201.6623  175.5317  156.7258 C   0  0  0  0  0  0  0  0  0  0  0  0
  200.7818  176.6071  156.5227 C   0  0  0  0  0  0  0  0  0  0  0  0
  202.4832  174.4360  153.1401 C   0  0  1  0  0  0  0  0  0  0  0  0
  202.0144  173.0267  153.0783 N   0  0  2  0  0  0  0  0  0  0  0  0
  202.7857  172.2329  152.0996 C   0  0  2  0  0  0  0  0  0  0  0  0
  200.5564  172.9044  152.8535 C   0  0  2  0  0  0  0  0  0  0  0  0
  199.4845  181.8456  155.5773 C   0  0  0  0  0  0  0  0  0  0  0  0
  200.3076  182.2323  156.7693 C   0  0  0  0  0  0  0  0  0  0  0  0
  201.5314  182.0956  156.6926 O   0  0  0  0  0  0  0  0  0  0  0  0
  199.7094  182.6707  157.9159 N   0  0  0  0  0  0  0  0  0  0  0  0
  198.3070  182.9651  158.0370 C   0  0  0  0  0  0  0  0  0  0  0  0
  197.8353  184.2565  158.4151 C   0  0  0  0  0  0  0  0  0  0  0  0
  198.7287  185.3695  158.6966 C   0  0  0  0  0  0  0  0  0  0  0  0
  199.4431  186.2556  158.9223 N   0  0  0  0  0  0  0  0  0  0  0  0
  196.4430  184.5068  158.4696 C   0  0  0  0  0  0  0  0  0  0  0  0
  195.5203  183.4917  158.1586 C   0  0  0  0  0  0  0  0  0  0  0  0
  195.9806  182.2171  157.7957 C   0  0  0  0  0  0  0  0  0  0  0  0
  197.3569  181.9491  157.7578 C   0  0  0  0  0  0  0  0  0  0  0  0
  200.5343  182.8476  159.1260 C   0  0  2  0  0  0  0  0  0  0  0  0
  198.1203  178.7536  152.8098 H   0  0  0  0  0  0  0  0  0  0  0  0
  196.4625  179.3493  151.3112 H   0  0  0  0  0  0  0  0  0  0  0  0
  195.5096  181.6580  151.2020 H   0  0  0  0  0  0  0  0  0  0  0  0
  196.3259  183.4018  152.8432 H   0  0  0  0  0  0  0  0  0  0  0  0
  200.8508  179.4948  155.8530 H   0  0  0  0  0  0  0  0  0  0  0  0
  198.5653  177.9531  155.5225 H   0  0  0  0  0  0  0  0  0  0  0  0
  199.3450  177.9337  153.9225 H   0  0  0  0  0  0  0  0  0  0  0  0
  200.7376  176.5508  153.1024 H   0  0  0  0  0  0  0  0  0  0  0  0
  202.9073  174.0234  155.8246 H   0  0  0  0  0  0  0  0  0  0  0  0
  201.8912  175.2254  157.7368 H   0  0  0  0  0  0  0  0  0  0  0  0
  200.3246  177.1369  157.3496 H   0  0  0  0  0  0  0  0  0  0  0  0
  202.2574  174.9454  152.1993 H   0  0  0  0  0  0  0  0  0  0  0  0
  203.5678  174.4632  153.2540 H   0  0  0  0  0  0  0  0  0  0  0  0
  202.6455  172.6151  151.0886 H   0  0  0  0  0  0  0  0  0  0  0  0
  202.4696  171.1899  152.0980 H   0  0  0  0  0  0  0  0  0  0  0  0
  203.8493  172.2588  152.3402 H   0  0  0  0  0  0  0  0  0  0  0  0
  200.2561  173.3716  151.9135 H   0  0  0  0  0  0  0  0  0  0  0  0
  199.9944  173.3684  153.6610 H   0  0  0  0  0  0  0  0  0  0  0  0
  200.2655  171.8548  152.8283 H   0  0  0  0  0  0  0  0  0  0  0  0
  196.0731  185.4962  158.7069 H   0  0  0  0  0  0  0  0  0  0  0  0
  194.4571  183.6871  158.1499 H   0  0  0  0  0  0  0  0  0  0  0  0
  195.2817  181.4522  157.4834 H   0  0  0  0  0  0  0  0  0  0  0  0
  197.6657  180.9556  157.4662 H   0  0  0  0  0  0  0  0  0  0  0  0
  199.9263  183.1320  159.9843 H   0  0  0  0  0  0  0  0  0  0  0  0
  201.2936  183.6201  158.9893 H   0  0  0  0  0  0  0  0  0  0  0  0
  201.0283  181.9168  159.4068 H   0  0  0  0  0  0  0  0  0  0  0  0
  202.2072  172.5975  153.9754 H   0  0  0  0  0  0  0  0  0  0  0  0
  1  2  1  0
  1 21  1  0
  2  3  1  0
  2  7  2  0
  3  4  2  0
  3  8  1  0
  4  5  1  0
  4 34  1  0
  5  6  2  0
  5 35  1  0
  6  7  1  0
  6 36  1  0
  7 37  1  0
  8  9  1  0
  8 21  2  0
  9 10  1  0
  9 38  1  0
 10 11  1  0
 10 39  1  1
 10 40  1  0
 11 12  2  0
 11 16  1  0
 12 13  1  0
 12 41  1  0
 13 14  2  0
 13 17  1  0
 14 15  1  0
 14 42  1  0
 15 16  2  0
 15 43  1  0
 16 44  1  0
 17 18  1  0
 17 45  1  6
 17 46  1  0
 18 19  1  0
 18 20  1  0
 18 60  1  1
 19 47  1  6
 19 48  1  0
 19 49  1  0
 20 50  1  6
 20 51  1  0
 20 52  1  0
 21 22  1  0
 22 23  2  0
 22 24  1  0
 24 25  1  0
 24 33  1  0
 25 26  1  0
 25 32  2  0
 26 27  1  0
 26 29  2  0
 27 28  3  0
 29 30  1  0
 29 53  1  0
 30 31  2  0
 30 54  1  0
 31 32  1  0
 31 55  1  0
 32 56  1  0
 33 57  1  1
 33 58  1  0
 33 59  1  0
M  CHG  1  18   1
M  END
>  <s_epik_cmdline>  (1420) 
J2VwaWtfcHl0aG9uJywgJy1waCcsICc3LjAwMDAwMCcsICctcGh0JywgJzIuMDAwMDAwJywgJy1tcycsICcxNicsICctdG4nLCAnOCcsICctbWEnLCAnMjAwJywgJy1pbWFlJywgJzxpbmZpbGUubWFlPicsICctb21hZScsICc8b3V0ZmlsZS5tYWU+Jw==

>  <s_epik_input>  (1420) 
W2NIXTFbY0hdW2NIXVtjSF1jKEMjTiljMU4oW0NIM10pQyg9TyljKHMyKWMoYyhjMjMpW2NIXVtjSF1bY0hdW2NIXTMpW05IXVtDSDJdYzRbY0hdYyhbY0hdW2NIXVtjSF00KVtDSDJdTihbQ0gzXSlbQ0gzXQ==

>  <s_i_glide_gridfile>  (1420) 
ATP-Grid

>  <s_lp_Force_Field>  (1420) 
OPLS_2005

>  <s_lp_Variant>  (1420) 
rxn512c____EMOL35875322____EMOL523944____EMOL2873214-1

>  <s_lp_label>  (1420) 
2183_sdstereoexpander_1_neutralizer_1_epik_1_stereoizer_1

>  <s_m_source_file>  (1420) 
ATP-VSW-LIGPREP-001-in.maegz

>  <s_sd_BIOSOLVEIT.INFINISEE\_QUERY\_NAME>  (1420) 
Ref-Lig

>  <s_sd_BIOSOLVEIT.INFINISEE\_QUERY\_SMILES>  (1420) 
S(c1nc2c(cc1C[NH2+]Cc3ccc(cc3)C[NH+](C)C)cccc2)Cc4ccccc4

>  <s_sd_BIOSOLVEIT.INFINISEE\_REACTION\_NAME>  (1420) 
rxn512c

>  <s_sd_BIOSOLVEIT.INFINISEE\_REAGENT1\_NAME>  (1420) 
EMOL35875322

>  <s_sd_BIOSOLVEIT.INFINISEE\_REAGENT1\_SMILES>  (1420) 
N#Cc1c(NC)cccc1

>  <s_sd_BIOSOLVEIT.INFINISEE\_REAGENT2\_NAME>  (1420) 
EMOL523944

>  <s_sd_BIOSOLVEIT.INFINISEE\_REAGENT2\_SMILES>  (1420) 
ClC=1c2c(SC1C(=O)O)cccc2

>  <s_sd_BIOSOLVEIT.INFINISEE\_REAGENT3\_NAME>  (1420) 
EMOL2873214

>  <s_sd_BIOSOLVEIT.INFINISEE\_REAGENT3\_SMILES>  (1420) 
N(Cc1cc(ccc1)CN)(C)C

>  <s_sd_BIOSOLVEIT.INFINISEE\_SPACE>  (1420) 
eXplore_7tr_2022-12

>  <s_vsw_compound_code>  (1420) 
69825

>  <s_vsw_variant>  (1420) 
69825-1

>  <r_epik_Charging_Adjusted_Penalty>  (1420) 
0.086140609825027206

>  <r_epik_Ionization_Penalty>  (1420) 
0.043099999999999999

>  <r_epik_Ionization_Penalty_Charging>  (1420) 
0.043099999999999999

>  <r_epik_Ionization_Penalty_Neutral>  (1420) 
0

>  <r_epik_State_Penalty>  (1420) 
0.043099999999999999

>  <r_i_docking_score>  (1420) 
-3.7926818770738899

>  <r_i_glide_ecoul>  (1420) 
-5.69431400299072

>  <r_i_glide_eff_state_penalty>  (1420) 
0.043099999999999999

>  <r_i_glide_einternal>  (1420) 
6.6170139312744096

>  <r_i_glide_emodel>  (1420) 
-48.801216934893297

>  <r_i_glide_energy>  (1420) 
-38.675801277160602

>  <r_i_glide_erotb>  (1420) 
0.67752607461633796

>  <r_i_glide_esite>  (1420) 
-0.064872711829319404

>  <r_i_glide_evdw>  (1420) 
-32.981487274169901

>  <r_i_glide_gscore>  (1420) 
-3.8357818770738898

>  <r_i_glide_hbond>  (1420) 
0

>  <r_i_glide_ligand_efficiency>  (1420) 
-0.114929753850724

>  <r_i_glide_ligand_efficiency_ln>  (1420) 
-0.84347281200544799

>  <r_i_glide_ligand_efficiency_sa>  (1420) 
-0.36864113058451498

>  <r_i_glide_lipo>  (1420) 
-1.3204210920541199

>  <r_i_glide_metal>  (1420) 
-0

>  <r_i_glide_rewards>  (1420) 
-0.62479268364968599

>  <r_lp_Energy>  (1420) 
48.006748000000002

>  <r_qp_ACxDN^.5/SA>  (1420) 
0

>  <r_qp_CIQPlogS>  (1420) 
-5.8739999999999997

>  <r_qp_EA(eV)>  (1420) 
0.76000000000000001

>  <r_qp_FISA>  (1420) 
91.197000000000003

>  <r_qp_FOSA>  (1420) 
250.08199999999999

>  <r_qp_IP(eV)>  (1420) 
8.0510000000000002

>  <r_qp_Jm>  (1420) 
4.5613466012021898e-05

>  <r_qp_PISA>  (1420) 
412.03800000000001

>  <r_qp_PSA>  (1420) 
65.983999999999995

>  <r_qp_PercentHumanOralAbsorption>  (1420) 
87.673000000000002

>  <r_qp_QPPCaco>  (1420) 
84.116

>  <r_qp_QPPMDCK>  (1420) 
55.987000000000002

>  <r_qp_QPlogBB>  (1420) 
-0.017999999999999999

>  <r_qp_QPlogHERG>  (1420) 
-8.2119999999999997

>  <r_qp_QPlogKhsa>  (1420) 
0.754

>  <r_qp_QPlogKp>  (1420) 
-5.1059999999999999

>  <r_qp_QPlogPC16>  (1420) 
15.457000000000001

>  <r_qp_QPlogPo/w>  (1420) 
4.4880000000000004

>  <r_qp_QPlogPoct>  (1420) 
21.670000000000002

>  <r_qp_QPlogPw>  (1420) 
9.657

>  <r_qp_QPlogS>  (1420) 
-4.8929999999999998

>  <r_qp_QPpolrz>  (1420) 
50.744999999999997

>  <r_qp_SASA>  (1420) 
776.69299999999998

>  <r_qp_SAamideO>  (1420) 
0

>  <r_qp_SAfluorine>  (1420) 
0

>  <r_qp_WPSA>  (1420) 
23.376000000000001

>  <r_qp_accptHB>  (1420) 
6.5

>  <r_qp_dip^2/V>  (1420) 
0.084638699999999997

>  <r_qp_dipole>  (1420) 
11.085000000000001

>  <r_qp_donorHB>  (1420) 
0

>  <r_qp_glob>  (1420) 
0.79833909999999997

>  <r_qp_mol_MW>  (1420) 
454.589

>  <r_qp_volume>  (1420) 
1451.8040000000001

>  <r_sd_BIOSOLVEIT.INFINISEE\_FTREES\_SIMILARITY>  (1420) 
0.93600000000000005

>  <r_sd_BIOSOLVEIT.LOGP>  (1420) 
4.3061800000000003

>  <r_sd_BIOSOLVEIT.MOLECULAR\_WEIGHT>  (1420) 
455.60199999999998

>  <r_sd_BIOSOLVEIT.TPSA>  (1420) 
60.57

>  <i_epik_Tot_Q>  (1420) 
1

>  <i_epik_Tot_abs_Q>  (1420) 
1

>  <i_f3d_flags>  (1420) 
0

>  <i_i_glide_confnum>  (1420) 
8

>  <i_i_glide_lignum>  (1420) 
699

>  <i_i_glide_posenum>  (1420) 
8

>  <i_i_glide_rotatable_bonds>  (1420) 
8

>  <i_lp_mmshare_version>  (1420) 
65135

>  <i_m_ct_format>  (1420) 
2

>  <i_m_source_file_index>  (1420) 
2183

>  <i_qp_#NandO>  (1420) 
5

>  <i_qp_#acid>  (1420) 
0

>  <i_qp_#amide>  (1420) 
0

>  <i_qp_#amidine>  (1420) 
0

>  <i_qp_#amine>  (1420) 
2

>  <i_qp_#in34>  (1420) 
0

>  <i_qp_#in56>  (1420) 
21

>  <i_qp_#metab>  (1420) 
6

>  <i_qp_#nonHatm>  (1420) 
33

>  <i_qp_#noncon>  (1420) 
0

>  <i_qp_#ringatoms>  (1420) 
21

>  <i_qp_#rotor>  (1420) 
8

>  <i_qp_#rtvFG>  (1420) 
0

>  <i_qp_#stars>  (1420) 
0

>  <i_qp_CNS>  (1420) 
1

>  <i_qp_HumanOralAbsorption>  (1420) 
3

>  <i_qp_RuleOfFive>  (1420) 
0

>  <i_qp_RuleOfThree>  (1420) 
0

>  <i_sd_BIOSOLVEIT.INFINISEE\_RESULT\_RANK>  (1420) 
2274

>  <i_sd_version>  (1420) 
0

>  <b_lp_Chiralities_Consistent>  (1420) 
1

>  <b_sd_chiral_flag>  (1420) 
0

>  <canonical_id>  (1420) 
ATP-HTVS-DFE69C12D963

>  <compound_code>  (1420) 
69825

>  <title>  (1420) 
rxn512c____EMOL35875322____EMOL523944____EMOL2873214

>  <variant>  (1420) 
69825-1

>  <source_file>  (1420) 
运行/运行/ATP-VSW/ATP-VSW-DOCK_HTVS_1-001_lib/ATP-VSW-DOCK_HTVS_1-001_lib

>  <canonical_smiles>  (1420) 
CN(C(=O)c1sc2ccccc2c1NCc1cccc(C[NH+](C)C)c1)c1ccccc1C#N

>  <scaffold>  (1420) 
O=C(Nc1ccccc1)c1sc2ccccc2c1NCc1ccccc1

>  <molecular_formula>  (1420) 
C27H27N4OS+

$$$$
ATP-HTVS-E0074D38582E
     RDKit          3D

 59 62  0  0  0  0  0  0  0  0999 V2000
  196.5045  187.8288  156.5339 O   0  0  0  0  0  0  0  0  0  0  0  0
  196.7514  187.4112  157.6721 C   0  0  0  0  0  0  0  0  0  0  0  0
  195.9571  187.4458  158.6518 O   0  0  0  0  0  0  0  0  0  0  0  0
  198.1441  186.8155  157.8953 C   0  0  1  0  0  0  0  0  0  0  0  0
  198.1978  185.7172  158.9772 C   0  0  1  0  0  0  0  0  0  0  0  0
  197.2204  184.5647  158.7605 C   0  0  0  0  0  0  0  0  0  0  0  0
  197.3600  183.7052  157.6524 C   0  0  0  0  0  0  0  0  0  0  0  0
  196.4456  182.6596  157.4090 C   0  0  0  0  0  0  0  0  0  0  0  0
  195.3530  182.4884  158.2779 C   0  0  0  0  0  0  0  0  0  0  0  0
  195.1858  183.3693  159.3663 C   0  0  0  0  0  0  0  0  0  0  0  0
  196.1198  184.3930  159.6191 C   0  0  0  0  0  0  0  0  0  0  0  0
  196.6020  181.7614  156.1975 C   0  0  1  0  0  0  0  0  0  0  0  0
  197.4796  180.6208  156.5329 N   0  0  1  0  0  0  0  0  0  0  0  0
  198.0485  179.8843  155.3794 C   0  0  1  0  0  0  0  0  0  0  0  0
  199.3358  179.2012  155.7746 C   0  0  0  0  0  0  0  0  0  0  0  0
  200.6495  179.7638  155.9635 C   0  0  0  0  0  0  0  0  0  0  0  0
  201.5190  178.8250  156.3023 N   0  0  0  0  0  0  0  0  0  0  0  0
  200.8356  177.6651  156.3304 N   0  0  0  0  0  0  0  0  0  0  0  0
  199.5157  177.8634  156.0010 C   0  0  0  0  0  0  0  0  0  0  0  0
  201.5099  176.4208  156.6598 C   0  0  1  0  0  0  0  0  0  0  0  0
  202.0137  175.7237  155.4047 C   0  0  0  0  0  0  0  0  0  0  0  0
  201.4978  174.4624  155.0346 C   0  0  0  0  0  0  0  0  0  0  0  0
  201.9671  173.8158  153.8734 C   0  0  0  0  0  0  0  0  0  0  0  0
  202.9506  174.4294  153.0761 C   0  0  0  0  0  0  0  0  0  0  0  0
  203.4718  175.6866  153.4397 C   0  0  0  0  0  0  0  0  0  0  0  0
  203.0057  176.3294  154.6060 C   0  0  0  0  0  0  0  0  0  0  0  0
  201.1318  181.1580  155.8442 C   0  0  0  0  0  0  0  0  0  0  0  0
  202.4762  181.4378  155.4784 C   0  0  0  0  0  0  0  0  0  0  0  0
  202.9301  182.7786  155.3686 C   0  0  0  0  0  0  0  0  0  0  0  0
  202.0482  183.8549  155.6037 C   0  0  0  0  0  0  0  0  0  0  0  0
  200.7218  183.5888  155.9526 C   0  0  0  0  0  0  0  0  0  0  0  0
  200.2932  182.2644  156.0844 C   0  0  0  0  0  0  0  0  0  0  0  0
  198.2274  180.9366  157.0976 H   0  0  0  0  0  0  0  0  0  0  0  0
  198.4983  186.4204  156.9413 H   0  0  0  0  0  0  0  0  0  0  0  0
  198.8203  187.6340  158.1467 H   0  0  0  0  0  0  0  0  0  0  0  0
  199.2073  185.3105  159.0246 H   0  0  0  0  0  0  0  0  0  0  0  0
  198.0178  186.1801  159.9480 H   0  0  0  0  0  0  0  0  0  0  0  0
  198.1588  183.9030  156.9567 H   0  0  0  0  0  0  0  0  0  0  0  0
  194.6247  181.7162  158.0803 H   0  0  0  0  0  0  0  0  0  0  0  0
  194.3249  183.2789  160.0086 H   0  0  0  0  0  0  0  0  0  0  0  0
  195.9626  185.0836  160.4369 H   0  0  0  0  0  0  0  0  0  0  0  0
  195.6318  181.4162  155.8326 H   0  0  0  0  0  0  0  0  0  0  0  0
  197.0471  182.3509  155.3930 H   0  0  0  0  0  0  0  0  0  0  0  0
  197.3001  179.1814  154.9992 H   0  0  0  0  0  0  0  0  0  0  0  0
  198.2575  180.5735  154.5638 H   0  0  0  0  0  0  0  0  0  0  0  0
  198.8158  177.0403  155.9689 H   0  0  0  0  0  0  0  0  0  0  0  0
  202.3436  176.6240  157.3288 H   0  0  0  0  0  0  0  0  0  0  0  0
  200.8087  175.7863  157.2055 H   0  0  0  0  0  0  0  0  0  0  0  0
  200.7412  173.9888  155.6384 H   0  0  0  0  0  0  0  0  0  0  0  0
  201.5719  172.8485  153.6010 H   0  0  0  0  0  0  0  0  0  0  0  0
  203.3083  173.9328  152.1858 H   0  0  0  0  0  0  0  0  0  0  0  0
  204.2266  176.1600  152.8295 H   0  0  0  0  0  0  0  0  0  0  0  0
  203.4079  177.2928  154.8847 H   0  0  0  0  0  0  0  0  0  0  0  0
  203.1692  180.6264  155.2896 H   0  0  0  0  0  0  0  0  0  0  0  0
  203.9611  182.9863  155.0979 H   0  0  0  0  0  0  0  0  0  0  0  0
  202.3662  184.8867  155.5341 H   0  0  0  0  0  0  0  0  0  0  0  0
  200.0533  184.4127  156.1275 H   0  0  0  0  0  0  0  0  0  0  0  0
  199.2690  182.1356  156.4086 H   0  0  0  0  0  0  0  0  0  0  0  0
  196.9185  179.9536  157.1045 H   0  0  0  0  0  0  0  0  0  0  0  0
  1  2  1  0
  2  3  2  0
  2  4  1  0
  4  5  1  0
  4 34  1  6
  4 35  1  0
  5  6  1  0
  5 36  1  1
  5 37  1  0
  6  7  2  0
  6 11  1  0
  7  8  1  0
  7 38  1  0
  8  9  2  0
  8 12  1  0
  9 10  1  0
  9 39  1  0
 10 11  2  0
 10 40  1  0
 11 41  1  0
 12 13  1  0
 12 42  1  6
 12 43  1  0
 13 14  1  0
 13 33  1  1
 13 59  1  0
 14 15  1  0
 14 44  1  6
 14 45  1  0
 15 16  1  0
 15 19  2  0
 16 17  2  0
 16 27  1  0
 17 18  1  0
 18 19  1  0
 18 20  1  0
 19 46  1  0
 20 21  1  0
 20 47  1  1
 20 48  1  0
 21 22  2  0
 21 26  1  0
 22 23  1  0
 22 49  1  0
 23 24  2  0
 23 50  1  0
 24 25  1  0
 24 51  1  0
 25 26  2  0
 25 52  1  0
 26 53  1  0
 27 28  2  0
 27 32  1  0
 28 29  1  0
 28 54  1  0
 29 30  2  0
 29 55  1  0
 30 31  1  0
 30 56  1  0
 31 32  2  0
 31 57  1  0
 32 58  1  0
M  CHG  2   1  -1  13   1
M  END
>  <s_epik_cmdline>  (1421) 
J2VwaWtfcHl0aG9uJywgJy1waCcsICc3LjAwMDAwMCcsICctcGh0JywgJzIuMDAwMDAwJywgJy1tcycsICcxNicsICctdG4nLCAnOCcsICctbWEnLCAnMjAwJywgJy1pbWFlJywgJzxpbmZpbGUubWFlPicsICctb21hZScsICc8b3V0ZmlsZS5tYWU+Jw==

>  <s_epik_input>  (1421) 
W09IXUMoPU8pW0NIMl1bQ0gyXWMxW2NIXWMoW2NIXVtjSF1bY0hdMSlbQ0gyXVtOSF1bQ0gyXWMyYygtYzNbY0hdW2NIXVtjSF1bY0hdW2NIXTMpbm4oW2NIXTIpW0NIMl1jNFtjSF1bY0hdW2NIXVtjSF1bY0hdNA==

>  <s_i_glide_gridfile>  (1421) 
ATP-Grid

>  <s_lp_Force_Field>  (1421) 
OPLS_2005

>  <s_lp_Variant>  (1421) 
m_271304bba____12332452____9305016-1

>  <s_lp_label>  (1421) 
1722_sdstereoexpander_1_neutralizer_1_epik_1_stereoizer_1

>  <s_m_source_file>  (1421) 
ATP-VSW-LIGPREP-001-in.maegz

>  <s_sd_BIOSOLVEIT.INFINISEE\_QUERY\_NAME>  (1421) 
Ref-Lig

>  <s_sd_BIOSOLVEIT.INFINISEE\_QUERY\_SMILES>  (1421) 
S(c1nc2c(cc1C[NH2+]Cc3ccc(cc3)C[NH+](C)C)cccc2)Cc4ccccc4

>  <s_sd_BIOSOLVEIT.INFINISEE\_REACTION\_NAME>  (1421) 
m_271304bba

>  <s_sd_BIOSOLVEIT.INFINISEE\_REAGENT1\_SMILES>  (1421) 
[R1*]NCc1cc(ccc1)CCC(=O)O

>  <s_sd_BIOSOLVEIT.INFINISEE\_REAGENT2\_SMILES>  (1421) 
[R1*]CC=1C(=NN(C1)Cc2ccccc2)c3ccccc3

>  <s_sd_BIOSOLVEIT.INFINISEE\_SPACE>  (1421) 
REALSpace_44bn_2023-08

>  <s_vsw_compound_code>  (1421) 
55073

>  <s_vsw_variant>  (1421) 
55073-1

>  <r_epik_Charging_Adjusted_Penalty>  (1421) 
0.16792602585372399

>  <r_epik_Ionization_Penalty>  (1421) 
0.087599999999999997

>  <r_epik_Ionization_Penalty_Charging>  (1421) 
0.087599999999999997

>  <r_epik_Ionization_Penalty_Neutral>  (1421) 
0

>  <r_epik_State_Penalty>  (1421) 
0.080299999999999996

>  <r_i_docking_score>  (1421) 
-4.2839940467872797

>  <r_i_glide_ecoul>  (1421) 
-8.0854644775390607

>  <r_i_glide_eff_state_penalty>  (1421) 
0.080299999999999996

>  <r_i_glide_einternal>  (1421) 
2.28419733047485

>  <r_i_glide_emodel>  (1421) 
-52.8625642317771

>  <r_i_glide_energy>  (1421) 
-39.003761291503899

>  <r_i_glide_erotb>  (1421) 
0.986041834734114

>  <r_i_glide_esite>  (1421) 
-0.10000000000000001

>  <r_i_glide_evdw>  (1421) 
-30.918296813964801

>  <r_i_glide_gscore>  (1421) 
-4.3642940467872799

>  <r_i_glide_hbond>  (1421) 
-0.31531450963820701

>  <r_i_glide_ligand_efficiency>  (1421) 
-0.13387481396210299

>  <r_i_glide_ligand_efficiency_ln>  (1421) 
-0.95930304434292601

>  <r_i_glide_ligand_efficiency_sa>  (1421) 
-0.42502604053996801

>  <r_i_glide_lipo>  (1421) 
-1.0938627249731601

>  <r_i_glide_metal>  (1421) 
-0

>  <r_i_glide_rewards>  (1421) 
-1.08242413458093

>  <r_lp_Energy>  (1421) 
13.878450000000001

>  <r_lp_tautomer_probability>  (1421) 
1

>  <r_qp_ACxDN^.5/SA>  (1421) 
0.0086557000000000005

>  <r_qp_CIQPlogS>  (1421) 
-6.117

>  <r_qp_EA(eV)>  (1421) 
0.24299999999999999

>  <r_qp_FISA>  (1421) 
125.21599999999999

>  <r_qp_FOSA>  (1421) 
163.416

>  <r_qp_IP(eV)>  (1421) 
8.9160000000000004

>  <r_qp_Jm>  (1421) 
2.19980971547323e-05

>  <r_qp_PISA>  (1421) 
528.28999999999996

>  <r_qp_PSA>  (1421) 
79.296000000000006

>  <r_qp_PercentHumanOralAbsorption>  (1421) 
78.909000000000006

>  <r_qp_QPPCaco>  (1421) 
40.642000000000003

>  <r_qp_QPPMDCK>  (1421) 
21.834

>  <r_qp_QPlogBB>  (1421) 
-1.0349999999999999

>  <r_qp_QPlogHERG>  (1421) 
-6.8920000000000003

>  <r_qp_QPlogKhsa>  (1421) 
0.94599999999999995

>  <r_qp_QPlogKp>  (1421) 
-3.165

>  <r_qp_QPlogPC16>  (1421) 
17.010999999999999

>  <r_qp_QPlogPo/w>  (1421) 
3.956

>  <r_qp_QPlogPoct>  (1421) 
23.359000000000002

>  <r_qp_QPlogPw>  (1421) 
11.999000000000001

>  <r_qp_QPlogS>  (1421) 
-7.1219999999999999

>  <r_qp_QPpolrz>  (1421) 
51.052999999999997

>  <r_qp_SASA>  (1421) 
816.92200000000003

>  <r_qp_SAamideO>  (1421) 
0

>  <r_qp_SAfluorine>  (1421) 
0

>  <r_qp_WPSA>  (1421) 
0

>  <r_qp_accptHB>  (1421) 
5

>  <r_qp_dip^2/V>  (1421) 
0.0469551

>  <r_qp_dipole>  (1421) 
8.2449999999999992

>  <r_qp_donorHB>  (1421) 
2

>  <r_qp_glob>  (1421) 
0.75762980000000002

>  <r_qp_mol_MW>  (1421) 
425.529

>  <r_qp_volume>  (1421) 
1447.8019999999999

>  <r_sd_BIOSOLVEIT.INFINISEE\_FTREES\_SIMILARITY>  (1421) 
0.90500000000000003

>  <r_sd_BIOSOLVEIT.LOGP>  (1421) 
2.5445000000000002

>  <r_sd_BIOSOLVEIT.MOLECULAR\_WEIGHT>  (1421) 
425.529

>  <r_sd_BIOSOLVEIT.TPSA>  (1421) 
74.560000000000002

>  <i_epik_Tot_Q>  (1421) 
0

>  <i_epik_Tot_abs_Q>  (1421) 
2

>  <i_f3d_flags>  (1421) 
0

>  <i_i_glide_confnum>  (1421) 
12

>  <i_i_glide_lignum>  (1421) 
482

>  <i_i_glide_posenum>  (1421) 
13

>  <i_i_glide_rotatable_bonds>  (1421) 
10

>  <i_lp_mmshare_version>  (1421) 
65135

>  <i_m_ct_format>  (1421) 
2

>  <i_m_source_file_index>  (1421) 
1722

>  <i_qp_#NandO>  (1421) 
5

>  <i_qp_#acid>  (1421) 
1

>  <i_qp_#amide>  (1421) 
0

>  <i_qp_#amidine>  (1421) 
0

>  <i_qp_#amine>  (1421) 
1

>  <i_qp_#in34>  (1421) 
0

>  <i_qp_#in56>  (1421) 
23

>  <i_qp_#metab>  (1421) 
6

>  <i_qp_#nonHatm>  (1421) 
32

>  <i_qp_#noncon>  (1421) 
0

>  <i_qp_#ringatoms>  (1421) 
23

>  <i_qp_#rotor>  (1421) 
9

>  <i_qp_#rtvFG>  (1421) 
0

>  <i_qp_#stars>  (1421) 
2

>  <i_qp_CNS>  (1421) 
-2

>  <i_qp_HumanOralAbsorption>  (1421) 
1

>  <i_qp_RuleOfFive>  (1421) 
0

>  <i_qp_RuleOfThree>  (1421) 
1

>  <i_sd_BIOSOLVEIT.INFINISEE\_REAGENT1\_NAME>  (1421) 
12332452

>  <i_sd_BIOSOLVEIT.INFINISEE\_REAGENT2\_NAME>  (1421) 
9305016

>  <i_sd_BIOSOLVEIT.INFINISEE\_RESULT\_RANK>  (1421) 
72957

>  <i_sd_version>  (1421) 
0

>  <b_lp_Chiralities_Consistent>  (1421) 
1

>  <b_sd_chiral_flag>  (1421) 
0

>  <canonical_id>  (1421) 
ATP-HTVS-E0074D38582E

>  <compound_code>  (1421) 
55073

>  <title>  (1421) 
m_271304bba____12332452____9305016

>  <variant>  (1421) 
55073-1

>  <source_file>  (1421) 
运行/运行/ATP-VSW/ATP-VSW-DOCK_HTVS_1-001_lib/ATP-VSW-DOCK_HTVS_1-001_lib

>  <canonical_smiles>  (1421) 
O=C([O-])CCc1cccc(C[NH2+]Cc2cn(Cc3ccccc3)nc2-c2ccccc2)c1

>  <scaffold>  (1421) 
c1ccc(C[NH2+]Cc2cn(Cc3ccccc3)nc2-c2ccccc2)cc1

>  <molecular_formula>  (1421) 
C27H27N3O2

$$$$
ATP-HTVS-E00D3A602E3C
     RDKit          3D

 63 66  0  0  0  0  0  0  0  0999 V2000
  198.8273  185.3008  158.6054 N   0  0  0  0  0  0  0  0  0  0  0  0
  198.1940  184.1334  158.5474 C   0  0  0  0  0  0  0  0  0  0  0  0
  196.9692  183.9487  159.0408 N   0  0  0  0  0  0  0  0  0  0  0  0
  196.3200  184.9786  159.6194 C   0  0  0  0  0  0  0  0  0  0  0  0
  196.9425  186.2449  159.7326 C   0  0  0  0  0  0  0  0  0  0  0  0
  198.2415  186.3583  159.1983 C   0  0  0  0  0  0  0  0  0  0  0  0
  198.9699  187.5506  159.2737 N   0  0  0  0  0  0  0  0  0  0  0  0
  200.4283  187.5438  159.1550 C   0  0  1  0  0  0  0  0  0  0  0  0
  200.9579  188.7965  158.4477 C   0  0  1  0  0  0  0  0  0  0  0  0
  200.4650  190.0879  159.0749 C   0  0  0  0  0  0  0  0  0  0  0  0
  201.2655  190.7629  160.0155 C   0  0  0  0  0  0  0  0  0  0  0  0
  200.7868  191.9337  160.6358 C   0  0  0  0  0  0  0  0  0  0  0  0
  199.5052  192.4230  160.3140 C   0  0  0  0  0  0  0  0  0  0  0  0
  199.0200  193.5761  160.9296 N   0  0  0  0  0  0  0  0  0  0  0  0
  198.7072  191.7551  159.3648 C   0  0  0  0  0  0  0  0  0  0  0  0
  199.1919  190.5941  158.7361 C   0  0  0  0  0  0  0  0  0  0  0  0
  196.2536  187.3083  160.3641 C   0  0  0  0  0  0  0  0  0  0  0  0
  194.9613  187.0927  160.8822 C   0  0  0  0  0  0  0  0  0  0  0  0
  194.3423  185.8389  160.7429 C   0  0  0  0  0  0  0  0  0  0  0  0
  195.0268  184.7740  160.1211 C   0  0  0  0  0  0  0  0  0  0  0  0
  198.8328  183.0579  157.9714 N   0  0  0  0  0  0  0  0  0  0  0  0
  200.1219  183.1383  157.2913 C   0  0  1  0  0  0  0  0  0  0  0  0
  200.6962  181.8101  156.8458 C   0  0  0  0  0  0  0  0  0  0  0  0
  199.8785  180.6580  156.6989 C   0  0  0  0  0  0  0  0  0  0  0  0
  200.4420  179.4156  156.3393 C   0  0  0  0  0  0  0  0  0  0  0  0
  199.5979  178.2903  156.2505 N   0  0  0  0  0  0  0  0  0  0  0  0
  200.1287  176.9341  156.1683 C   0  0  2  0  0  0  0  0  0  0  0  0
  201.0162  176.5805  157.3851 C   0  0  2  0  0  0  0  0  0  0  0  0
  200.7480  176.6271  154.7833 C   0  0  2  0  0  0  0  0  0  0  0  0
  201.8413  179.3509  156.0873 C   0  0  0  0  0  0  0  0  0  0  0  0
  202.6391  180.4976  156.2080 C   0  0  0  0  0  0  0  0  0  0  0  0
  202.0818  181.7305  156.5813 C   0  0  0  0  0  0  0  0  0  0  0  0
  198.5725  188.3157  159.8039 H   0  0  0  0  0  0  0  0  0  0  0  0
  200.8271  187.4902  160.1693 H   0  0  0  0  0  0  0  0  0  0  0  0
  200.8185  186.6775  158.6170 H   0  0  0  0  0  0  0  0  0  0  0  0
  202.0469  188.7709  158.4666 H   0  0  0  0  0  0  0  0  0  0  0  0
  200.6677  188.7803  157.3964 H   0  0  0  0  0  0  0  0  0  0  0  0
  202.2381  190.3769  160.2827 H   0  0  0  0  0  0  0  0  0  0  0  0
  201.4021  192.4399  161.3640 H   0  0  0  0  0  0  0  0  0  0  0  0
  198.0932  193.9252  160.7290 H   0  0  0  0  0  0  0  0  0  0  0  0
  199.5438  194.0812  161.6426 H   0  0  0  0  0  0  0  0  0  0  0  0
  197.7212  192.1177  159.1204 H   0  0  0  0  0  0  0  0  0  0  0  0
  198.5744  190.0756  158.0198 H   0  0  0  0  0  0  0  0  0  0  0  0
  196.6863  188.2929  160.4575 H   0  0  0  0  0  0  0  0  0  0  0  0
  194.4259  187.9088  161.3526 H   0  0  0  0  0  0  0  0  0  0  0  0
  193.3363  185.6908  161.1147 H   0  0  0  0  0  0  0  0  0  0  0  0
  194.5465  183.8086  160.0318 H   0  0  0  0  0  0  0  0  0  0  0  0
  198.3610  182.1683  157.9801 H   0  0  0  0  0  0  0  0  0  0  0  0
  200.0276  183.7717  156.4050 H   0  0  0  0  0  0  0  0  0  0  0  0
  200.8540  183.6212  157.9471 H   0  0  0  0  0  0  0  0  0  0  0  0
  198.8105  180.6945  156.8902 H   0  0  0  0  0  0  0  0  0  0  0  0
  198.6914  178.3475  156.7193 H   0  0  0  0  0  0  0  0  0  0  0  0
  199.2473  176.3037  156.2526 H   0  0  0  0  0  0  0  0  0  0  0  0
  201.3331  175.5435  157.3431 H   0  0  0  0  0  0  0  0  0  0  0  0
  200.4646  176.7158  158.3162 H   0  0  0  0  0  0  0  0  0  0  0  0
  201.9189  177.1826  157.4733 H   0  0  0  0  0  0  0  0  0  0  0  0
  201.0393  175.5750  154.7341 H   0  0  0  0  0  0  0  0  0  0  0  0
  201.6075  177.2247  154.5422 H   0  0  0  0  0  0  0  0  0  0  0  0
  199.9975  176.7614  153.9915 H   0  0  0  0  0  0  0  0  0  0  0  0
  202.3413  178.4364  155.8311 H   0  0  0  0  0  0  0  0  0  0  0  0
  203.6955  180.4111  156.0195 H   0  0  0  0  0  0  0  0  0  0  0  0
  202.7235  182.5989  156.6800 H   0  0  0  0  0  0  0  0  0  0  0  0
  196.5067  183.0399  158.9832 H   0  0  0  0  0  0  0  0  0  0  0  0
  1  2  1  0
  1  6  2  0
  2  3  2  0
  2 21  1  0
  3  4  1  0
  3 63  1  0
  4  5  1  0
  4 20  2  0
  5  6  1  0
  5 17  2  0
  6  7  1  0
  7  8  1  0
  7 33  1  0
  8  9  1  0
  8 34  1  1
  8 35  1  0
  9 10  1  0
  9 36  1  6
  9 37  1  0
 10 11  1  0
 10 16  2  0
 11 12  2  0
 11 38  1  0
 12 13  1  0
 12 39  1  0
 13 14  1  0
 13 15  2  0
 14 40  1  0
 14 41  1  0
 15 16  1  0
 15 42  1  0
 16 43  1  0
 17 18  1  0
 17 44  1  0
 18 19  2  0
 18 45  1  0
 19 20  1  0
 19 46  1  0
 20 47  1  0
 21 22  1  0
 21 48  1  0
 22 23  1  0
 22 49  1  6
 22 50  1  0
 23 24  1  0
 23 32  2  0
 24 25  2  0
 24 51  1  0
 25 26  1  0
 25 30  1  0
 26 27  1  0
 26 52  1  0
 27 28  1  0
 27 29  1  0
 27 53  1  1
 28 54  1  6
 28 55  1  0
 28 56  1  0
 29 57  1  1
 29 58  1  0
 29 59  1  0
 30 31  2  0
 30 60  1  0
 31 32  1  0
 31 61  1  0
 32 62  1  0
M  CHG  1   3   1
M  END
>  <s_epik_cmdline>  (1422) 
J2VwaWtfcHl0aG9uJywgJy1waCcsICc3LjAwMDAwMCcsICctcGh0JywgJzIuMDAwMDAwJywgJy1tcycsICcxNicsICctdG4nLCAnOCcsICctbWEnLCAnMjAwJywgJy1pbWFlJywgJzxpbmZpbGUubWFlPicsICctb21hZScsICc8b3V0ZmlsZS5tYWU+Jw==

>  <s_epik_input>  (1422) 
W0NIM11bQ0hdKFtDSDNdKVtOSF1jKFtjSF1bY0hdW2NIXTEpW2NIXWMxW0NIMl1bTkhdYyhuMiluYyhjKGMyMylbY0hdW2NIXVtjSF1bY0hdMylbTkhdW0NIMl1bQ0gyXWM0W2NIXVtjSF1jKFtOSDJdKVtjSF1bY0hdNA==

>  <s_i_glide_gridfile>  (1422) 
ATP-Grid

>  <s_lp_Force_Field>  (1422) 
OPLS_2005

>  <s_lp_Variant>  (1422) 
m_282030aaa____21928756____22360182____21960652-1

>  <s_lp_label>  (1422) 
1532_sdstereoexpander_1_neutralizer_1_epik_1_stereoizer_1

>  <s_m_source_file>  (1422) 
ATP-VSW-LIGPREP-001-in.maegz

>  <s_sd_BIOSOLVEIT.INFINISEE\_QUERY\_NAME>  (1422) 
Ref-Lig

>  <s_sd_BIOSOLVEIT.INFINISEE\_QUERY\_SMILES>  (1422) 
S(c1nc2c(cc1C[NH2+]Cc3ccc(cc3)C[NH+](C)C)cccc2)Cc4ccccc4

>  <s_sd_BIOSOLVEIT.INFINISEE\_REACTION\_NAME>  (1422) 
m_282030aaa

>  <s_sd_BIOSOLVEIT.INFINISEE\_REAGENT1\_SMILES>  (1422) 
[R1*]NCCc1ccc(N)cc1

>  <s_sd_BIOSOLVEIT.INFINISEE\_REAGENT2\_SMILES>  (1422) 
[R2*]c1nc([R1*])c2c(n1)cccc2

>  <s_sd_BIOSOLVEIT.INFINISEE\_REAGENT3\_SMILES>  (1422) 
[R2*]NCc1cc(NC(C)C)ccc1

>  <s_sd_BIOSOLVEIT.INFINISEE\_SPACE>  (1422) 
REALSpace_44bn_2023-08

>  <s_vsw_compound_code>  (1422) 
48993

>  <s_vsw_variant>  (1422) 
48993-1

>  <r_epik_Charging_Adjusted_Penalty>  (1422) 
0.0616045907586329

>  <r_epik_Ionization_Penalty>  (1422) 
0.049200000000000001

>  <r_epik_Ionization_Penalty_Charging>  (1422) 
0.013599999999999999

>  <r_epik_Ionization_Penalty_Neutral>  (1422) 
0.0356

>  <r_epik_State_Penalty>  (1422) 
0.048000000000000001

>  <r_i_docking_score>  (1422) 
-3.7679145120162301

>  <r_i_glide_ecoul>  (1422) 
-5.12084865570068

>  <r_i_glide_eff_state_penalty>  (1422) 
0.048000000000000001

>  <r_i_glide_einternal>  (1422) 
4.1334061622619602

>  <r_i_glide_emodel>  (1422) 
-42.5970048058077

>  <r_i_glide_energy>  (1422) 
-33.163165092468297

>  <r_i_glide_erotb>  (1422) 
0.86891800121438401

>  <r_i_glide_esite>  (1422) 
-0.13951359841851499

>  <r_i_glide_evdw>  (1422) 
-28.042316436767599

>  <r_i_glide_gscore>  (1422) 
-3.8159145120162301

>  <r_i_glide_hbond>  (1422) 
-0.30399999999999999

>  <r_i_glide_ligand_efficiency>  (1422) 
-0.117747328500507

>  <r_i_glide_ligand_efficiency_ln>  (1422) 
-0.84373876871088405

>  <r_i_glide_ligand_efficiency_sa>  (1422) 
-0.37382446582444201

>  <r_i_glide_lipo>  (1422) 
-1.5067702183588401

>  <r_i_glide_metal>  (1422) 
-0

>  <r_i_glide_rewards>  (1422) 
-0.56430557625978295

>  <r_lp_Energy>  (1422) 
12.720287000000001

>  <r_qp_ACxDN^.5/SA>  (1422) 
0.015476500000000001

>  <r_qp_CIQPlogS>  (1422) 
-6.8140000000000001

>  <r_qp_EA(eV)>  (1422) 
0.51700000000000002

>  <r_qp_FISA>  (1422) 
116.68000000000001

>  <r_qp_FOSA>  (1422) 
220.78700000000001

>  <r_qp_IP(eV)>  (1422) 
7.9379999999999997

>  <r_qp_Jm>  (1422) 
0.28020562035094598

>  <r_qp_PISA>  (1422) 
347.86700000000002

>  <r_qp_PSA>  (1422) 
80.174000000000007

>  <r_qp_PercentHumanOralAbsorption>  (1422) 
100

>  <r_qp_QPPCaco>  (1422) 
775.21299999999997

>  <r_qp_QPPMDCK>  (1422) 
375.68799999999999

>  <r_qp_QPlogBB>  (1422) 
-1.109

>  <r_qp_QPlogHERG>  (1422) 
-5.5759999999999996

>  <r_qp_QPlogKhsa>  (1422) 
0.55100000000000005

>  <r_qp_QPlogKp>  (1422) 
-1.484

>  <r_qp_QPlogPC16>  (1422) 
14.811

>  <r_qp_QPlogPo/w>  (1422) 
4.4619999999999997

>  <r_qp_QPlogPoct>  (1422) 
24.071999999999999

>  <r_qp_QPlogPw>  (1422) 
13.837999999999999

>  <r_qp_QPlogS>  (1422) 
-4.6980000000000004

>  <r_qp_QPpolrz>  (1422) 
43.899999999999999

>  <r_qp_SASA>  (1422) 
685.33399999999995

>  <r_qp_SAamideO>  (1422) 
0

>  <r_qp_SAfluorine>  (1422) 
0

>  <r_qp_WPSA>  (1422) 
0

>  <r_qp_accptHB>  (1422) 
5

>  <r_qp_dip^2/V>  (1422) 
0.014588800000000001

>  <r_qp_dipole>  (1422) 
4.4020000000000001

>  <r_qp_donorHB>  (1422) 
4.5

>  <r_qp_glob>  (1422) 
0.85263319999999998

>  <r_qp_mol_MW>  (1422) 
426.56299999999999

>  <r_qp_volume>  (1422) 
1328.1569999999999

>  <r_sd_BIOSOLVEIT.INFINISEE\_FTREES\_SIMILARITY>  (1422) 
0.90700000000000003

>  <r_sd_BIOSOLVEIT.LOGP>  (1422) 
5.2990000000000004

>  <r_sd_BIOSOLVEIT.MOLECULAR\_WEIGHT>  (1422) 
426.565

>  <r_sd_BIOSOLVEIT.TPSA>  (1422) 
87.890000000000001

>  <i_epik_Tot_Q>  (1422) 
1

>  <i_epik_Tot_abs_Q>  (1422) 
1

>  <i_f3d_flags>  (1422) 
0

>  <i_i_glide_confnum>  (1422) 
2

>  <i_i_glide_lignum>  (1422) 
407

>  <i_i_glide_posenum>  (1422) 
19

>  <i_i_glide_rotatable_bonds>  (1422) 
9

>  <i_lp_mmshare_version>  (1422) 
65135

>  <i_m_ct_format>  (1422) 
2

>  <i_m_source_file_index>  (1422) 
1532

>  <i_qp_#NandO>  (1422) 
6

>  <i_qp_#acid>  (1422) 
0

>  <i_qp_#amide>  (1422) 
0

>  <i_qp_#amidine>  (1422) 
0

>  <i_qp_#amine>  (1422) 
0

>  <i_qp_#in34>  (1422) 
0

>  <i_qp_#in56>  (1422) 
22

>  <i_qp_#metab>  (1422) 
7

>  <i_qp_#nonHatm>  (1422) 
32

>  <i_qp_#noncon>  (1422) 
0

>  <i_qp_#ringatoms>  (1422) 
22

>  <i_qp_#rotor>  (1422) 
10

>  <i_qp_#rtvFG>  (1422) 
0

>  <i_qp_#stars>  (1422) 
0

>  <i_qp_CNS>  (1422) 
-2

>  <i_qp_HumanOralAbsorption>  (1422) 
3

>  <i_qp_RuleOfFive>  (1422) 
0

>  <i_qp_RuleOfThree>  (1422) 
1

>  <i_sd_BIOSOLVEIT.INFINISEE\_REAGENT1\_NAME>  (1422) 
21928756

>  <i_sd_BIOSOLVEIT.INFINISEE\_REAGENT2\_NAME>  (1422) 
22360182

>  <i_sd_BIOSOLVEIT.INFINISEE\_REAGENT3\_NAME>  (1422) 
21960652

>  <i_sd_BIOSOLVEIT.INFINISEE\_RESULT\_RANK>  (1422) 
61296

>  <i_sd_version>  (1422) 
0

>  <b_lp_Chiralities_Consistent>  (1422) 
1

>  <b_sd_chiral_flag>  (1422) 
0

>  <canonical_id>  (1422) 
ATP-HTVS-E00D3A602E3C

>  <compound_code>  (1422) 
48993

>  <title>  (1422) 
m_282030aaa____21928756____22360182____21960652

>  <variant>  (1422) 
48993-1

>  <source_file>  (1422) 
运行/运行/ATP-VSW/ATP-VSW-DOCK_HTVS_1-001_lib/ATP-VSW-DOCK_HTVS_1-001_lib

>  <canonical_smiles>  (1422) 
CC(C)Nc1cccc(CNc2nc(NCCc3ccc(N)cc3)c3ccccc3[nH+]2)c1

>  <scaffold>  (1422) 
c1ccc(CCNc2nc(NCc3ccccc3)[nH+]c3ccccc23)cc1

>  <molecular_formula>  (1422) 
C26H31N6+

$$$$
ATP-HTVS-E027274C2018
     RDKit          3D

 49 52  0  0  0  0  0  0  0  0999 V2000
  193.1501  183.5122  158.8394 F   0  0  0  0  0  0  0  0  0  0  0  0
  194.4669  183.7802  158.9312 C   0  0  0  0  0  0  0  0  0  0  0  0
  195.3956  182.9957  158.2179 C   0  0  0  0  0  0  0  0  0  0  0  0
  196.7834  183.2644  158.3122 C   0  0  0  0  0  0  0  0  0  0  0  0
  197.2146  184.3439  159.1352 C   0  0  0  0  0  0  0  0  0  0  0  0
  198.5303  184.6272  159.2301 N   0  0  0  0  0  0  0  0  0  0  0  0
  199.5002  183.9458  158.5785 C   0  0  0  0  0  0  0  0  0  0  0  0
  200.9111  184.3585  158.7897 C   0  0  0  0  0  0  0  0  0  0  0  0
  201.2487  185.6119  159.3565 C   0  0  0  0  0  0  0  0  0  0  0  0
  202.5065  186.0416  159.5693 N   0  0  0  0  0  0  0  0  0  0  0  0
  203.5204  185.2282  159.2181 C   0  0  0  0  0  0  0  0  0  0  0  0
  203.3175  183.9619  158.6433 C   0  0  0  0  0  0  0  0  0  0  0  0
  201.9983  183.5232  158.4319 C   0  0  0  0  0  0  0  0  0  0  0  0
  199.1127  182.8745  157.7427 C   0  0  0  0  0  0  0  0  0  0  0  0
  197.7545  182.5107  157.6077 C   0  0  0  0  0  0  0  0  0  0  0  0
  197.3704  181.4439  156.7890 N   0  0  0  0  0  0  0  0  0  0  0  0
  198.3000  180.3741  156.4433 C   0  0  1  0  0  0  0  0  0  0  0  0
  197.7080  179.4016  155.4088 C   0  0  2  0  0  0  0  0  0  0  0  0
  198.5640  178.2739  155.4362 O   0  0  0  0  0  0  0  0  0  0  0  0
  197.5472  180.0454  154.0213 C   0  0  0  0  0  0  0  0  0  0  0  0
  198.2254  179.5341  152.8899 C   0  0  0  0  0  0  0  0  0  0  0  0
  198.0887  180.1460  151.6296 C   0  0  0  0  0  0  0  0  0  0  0  0
  197.2784  181.2914  151.4838 C   0  0  0  0  0  0  0  0  0  0  0  0
  196.5990  181.8125  152.5968 C   0  0  0  0  0  0  0  0  0  0  0  0
  196.7157  181.1829  153.8459 C   0  0  0  0  0  0  0  0  0  0  0  0
  197.1389  181.9492  150.1295 C   0  0  2  0  0  0  0  0  0  0  0  0
  196.2837  185.1289  159.8456 C   0  0  0  0  0  0  0  0  0  0  0  0
  194.9099  184.8443  159.7394 C   0  0  0  0  0  0  0  0  0  0  0  0
  195.0101  182.2056  157.5904 H   0  0  0  0  0  0  0  0  0  0  0  0
  200.4750  186.3100  159.6516 H   0  0  0  0  0  0  0  0  0  0  0  0
  204.5202  185.5974  159.3983 H   0  0  0  0  0  0  0  0  0  0  0  0
  204.1589  183.3368  158.3696 H   0  0  0  0  0  0  0  0  0  0  0  0
  201.8482  182.5453  157.9976 H   0  0  0  0  0  0  0  0  0  0  0  0
  199.8686  182.3310  157.1973 H   0  0  0  0  0  0  0  0  0  0  0  0
  196.3975  181.1602  156.7999 H   0  0  0  0  0  0  0  0  0  0  0  0
  199.2310  180.7610  156.0248 H   0  0  0  0  0  0  0  0  0  0  0  0
  198.5655  179.8308  157.3550 H   0  0  0  0  0  0  0  0  0  0  0  0
  196.7303  179.0480  155.7341 H   0  0  0  0  0  0  0  0  0  0  0  0
  198.4452  177.8696  156.2916 H   0  0  0  0  0  0  0  0  0  0  0  0
  198.8623  178.6639  152.9723 H   0  0  0  0  0  0  0  0  0  0  0  0
  198.6171  179.7407  150.7788 H   0  0  0  0  0  0  0  0  0  0  0  0
  195.9795  182.6952  152.5102 H   0  0  0  0  0  0  0  0  0  0  0  0
  196.1423  181.6054  154.6599 H   0  0  0  0  0  0  0  0  0  0  0  0
  196.3915  182.7444  150.1557 H   0  0  0  0  0  0  0  0  0  0  0  0
  196.8278  181.2054  149.3947 H   0  0  0  0  0  0  0  0  0  0  0  0
  198.0947  182.3762  149.8212 H   0  0  0  0  0  0  0  0  0  0  0  0
  196.6095  185.9474  160.4712 H   0  0  0  0  0  0  0  0  0  0  0  0
  194.1803  185.4399  160.2729 H   0  0  0  0  0  0  0  0  0  0  0  0
  198.8040  185.4033  159.8334 H   0  0  0  0  0  0  0  0  0  0  0  0
  1  2  1  0
  2  3  1  0
  2 28  2  0
  3  4  2  0
  3 29  1  0
  4  5  1  0
  4 15  1  0
  5  6  1  0
  5 27  2  0
  6  7  2  0
  6 49  1  0
  7  8  1  0
  7 14  1  0
  8  9  2  0
  8 13  1  0
  9 10  1  0
  9 30  1  0
 10 11  2  0
 11 12  1  0
 11 31  1  0
 12 13  2  0
 12 32  1  0
 13 33  1  0
 14 15  2  0
 14 34  1  0
 15 16  1  0
 16 17  1  0
 16 35  1  0
 17 18  1  0
 17 36  1  6
 17 37  1  0
 18 19  1  0
 18 20  1  0
 18 38  1  1
 19 39  1  0
 20 21  1  0
 20 25  2  0
 21 22  2  0
 21 40  1  0
 22 23  1  0
 22 41  1  0
 23 24  2  0
 23 26  1  0
 24 25  1  0
 24 42  1  0
 25 43  1  0
 26 44  1  1
 26 45  1  0
 26 46  1  0
 27 28  1  0
 27 47  1  0
 28 48  1  0
M  CHG  1   6   1
M  END
>  <s_epik_cmdline>  (1423) 
J2VwaWtfcHl0aG9uJywgJy1waCcsICc3LjAwMDAwMCcsICctcGh0JywgJzIuMDAwMDAwJywgJy1tcycsICcxNicsICctdG4nLCAnOCcsICctbWEnLCAnMjAwJywgJy1pbWFlJywgJzxpbmZpbGUubWFlPicsICctb21hZScsICc8b3V0ZmlsZS5tYWU+Jw==

>  <s_epik_input>  (1423) 
RmMoW2NIXTEpW2NIXVtjSF1jKGMxMiluYygtYzNbY0hdbltjSF1bY0hdW2NIXTMpW2NIXWMyW05IXVtDSDJdW0NASF0oW09IXSljNFtjSF1bY0hdYyhbQ0gzXSlbY0hdW2NIXTQ=

>  <s_i_glide_gridfile>  (1423) 
ATP-Grid

>  <s_lp_Force_Field>  (1423) 
OPLS_2005

>  <s_lp_Variant>  (1423) 
YAS_R004____OTV1506428____OTV2084332____OTV1055862-1

>  <s_lp_label>  (1423) 
62_sdstereoexpander_1_neutralizer_1_epik_1_stereoizer_1

>  <s_m_source_file>  (1423) 
ATP-VSW-LIGPREP-001-in.maegz

>  <s_sd_BIOSOLVEIT.INFINISEE\_QUERY\_NAME>  (1423) 
Ref-Lig

>  <s_sd_BIOSOLVEIT.INFINISEE\_QUERY\_SMILES>  (1423) 
S(c1nc2c(cc1C[NH2+]Cc3ccc(cc3)C[NH+](C)C)cccc2)Cc4ccccc4

>  <s_sd_BIOSOLVEIT.INFINISEE\_REACTION\_NAME>  (1423) 
YAS_R004

>  <s_sd_BIOSOLVEIT.INFINISEE\_REAGENT1\_NAME>  (1423) 
OTV1506428

>  <s_sd_BIOSOLVEIT.INFINISEE\_REAGENT1\_SMILES>  (1423) 
Fc1ccc(N)cc1

>  <s_sd_BIOSOLVEIT.INFINISEE\_REAGENT2\_NAME>  (1423) 
OTV2084332

>  <s_sd_BIOSOLVEIT.INFINISEE\_REAGENT2\_SMILES>  (1423) 
O=C(O)c1cnccc1

>  <s_sd_BIOSOLVEIT.INFINISEE\_REAGENT3\_NAME>  (1423) 
OTV1055862

>  <s_sd_BIOSOLVEIT.INFINISEE\_REAGENT3\_SMILES>  (1423) 
OC(c1ccc(cc1)C)CN

>  <s_sd_BIOSOLVEIT.INFINISEE\_SPACE>  (1423) 
CHEMriya_12bn_2022-01

>  <s_vsw_compound_code>  (1423) 
1953

>  <s_vsw_variant>  (1423) 
1953-1

>  <r_epik_Charging_Adjusted_Penalty>  (1423) 
0.170837739863552

>  <r_epik_Ionization_Penalty>  (1423) 
0.085599999999999996

>  <r_epik_Ionization_Penalty_Charging>  (1423) 
0.085400000000000004

>  <r_epik_Ionization_Penalty_Neutral>  (1423) 
0.00020000000000000001

>  <r_epik_State_Penalty>  (1423) 
0.085400000000000004

>  <r_i_docking_score>  (1423) 
-4.22789681101212

>  <r_i_glide_ecoul>  (1423) 
-8.5198249816894496

>  <r_i_glide_eff_state_penalty>  (1423) 
0.085400000000000004

>  <r_i_glide_einternal>  (1423) 
1.9984723329544101

>  <r_i_glide_emodel>  (1423) 
-50.899419280029903

>  <r_i_glide_energy>  (1423) 
-38.289157867431598

>  <r_i_glide_erotb>  (1423) 
0.68959128703268902

>  <r_i_glide_esite>  (1423) 
-0.13750731026902399

>  <r_i_glide_evdw>  (1423) 
-29.769332885742202

>  <r_i_glide_gscore>  (1423) 
-4.3132968110121199

>  <r_i_glide_hbond>  (1423) 
-0.141318495951921

>  <r_i_glide_ligand_efficiency>  (1423) 
-0.15099631467900401

>  <r_i_glide_ligand_efficiency_ln>  (1423) 
-0.97592272042603501

>  <r_i_glide_ligand_efficiency_sa>  (1423) 
-0.45851374343884499

>  <r_i_glide_lipo>  (1423) 
-1.10146787528334

>  <r_i_glide_metal>  (1423) 
-0

>  <r_i_glide_rewards>  (1423) 
-0.85615402499999904

>  <r_lp_Energy>  (1423) 
29.096630000000001

>  <r_qp_ACxDN^.5/SA>  (1423) 
0.0104954

>  <r_qp_CIQPlogS>  (1423) 
-5.9809999999999999

>  <r_qp_EA(eV)>  (1423) 
1.002

>  <r_qp_FISA>  (1423) 
81.912999999999997

>  <r_qp_FOSA>  (1423) 
121.339

>  <r_qp_IP(eV)>  (1423) 
8.3059999999999992

>  <r_qp_Jm>  (1423) 
0.028882013943696799

>  <r_qp_PISA>  (1423) 
450.58100000000002

>  <r_qp_PSA>  (1423) 
54.829999999999998

>  <r_qp_PercentHumanOralAbsorption>  (1423) 
100

>  <r_qp_QPPCaco>  (1423) 
1656.223

>  <r_qp_QPPMDCK>  (1423) 
1541.105

>  <r_qp_QPlogBB>  (1423) 
-0.56299999999999994

>  <r_qp_QPlogHERG>  (1423) 
-7.1139999999999999

>  <r_qp_QPlogKhsa>  (1423) 
0.59799999999999998

>  <r_qp_QPlogKp>  (1423) 
-0.86599999999999999

>  <r_qp_QPlogPC16>  (1423) 
13.507

>  <r_qp_QPlogPo/w>  (1423) 
4.7240000000000002

>  <r_qp_QPlogPoct>  (1423) 
20.763000000000002

>  <r_qp_QPlogPw>  (1423) 
11.772

>  <r_qp_QPlogS>  (1423) 
-6.2460000000000004

>  <r_qp_QPpolrz>  (1423) 
43.098999999999997

>  <r_qp_SASA>  (1423) 
700.68200000000002

>  <r_qp_SAamideO>  (1423) 
0

>  <r_qp_SAfluorine>  (1423) 
46.848999999999997

>  <r_qp_WPSA>  (1423) 
46.848999999999997

>  <r_qp_accptHB>  (1423) 
5.2000000000000002

>  <r_qp_dip^2/V>  (1423) 
0.047295799999999999

>  <r_qp_dipole>  (1423) 
7.5940000000000003

>  <r_qp_donorHB>  (1423) 
2

>  <r_qp_glob>  (1423) 
0.78781049999999997

>  <r_qp_mol_MW>  (1423) 
373.42899999999997

>  <r_qp_volume>  (1423) 
1219.4580000000001

>  <r_sd_BIOSOLVEIT.INFINISEE\_FTREES\_SIMILARITY>  (1423) 
0.91500000000000004

>  <r_sd_BIOSOLVEIT.LOGP>  (1423) 
4.8898200000000003

>  <r_sd_BIOSOLVEIT.MOLECULAR\_WEIGHT>  (1423) 
373.42899999999997

>  <r_sd_BIOSOLVEIT.TPSA>  (1423) 
58.039999999999999

>  <i_epik_Tot_Q>  (1423) 
1

>  <i_epik_Tot_abs_Q>  (1423) 
1

>  <i_f3d_flags>  (1423) 
0

>  <i_i_glide_confnum>  (1423) 
5

>  <i_i_glide_lignum>  (1423) 
8

>  <i_i_glide_posenum>  (1423) 
12

>  <i_i_glide_rotatable_bonds>  (1423) 
6

>  <i_lp_mmshare_version>  (1423) 
65135

>  <i_m_ct_format>  (1423) 
2

>  <i_m_source_file_index>  (1423) 
62

>  <i_qp_#NandO>  (1423) 
4

>  <i_qp_#acid>  (1423) 
0

>  <i_qp_#amide>  (1423) 
0

>  <i_qp_#amidine>  (1423) 
0

>  <i_qp_#amine>  (1423) 
0

>  <i_qp_#in34>  (1423) 
0

>  <i_qp_#in56>  (1423) 
22

>  <i_qp_#metab>  (1423) 
6

>  <i_qp_#nonHatm>  (1423) 
28

>  <i_qp_#noncon>  (1423) 
0

>  <i_qp_#ringatoms>  (1423) 
22

>  <i_qp_#rotor>  (1423) 
6

>  <i_qp_#rtvFG>  (1423) 
0

>  <i_qp_#stars>  (1423) 
1

>  <i_qp_CNS>  (1423) 
0

>  <i_qp_HumanOralAbsorption>  (1423) 
1

>  <i_qp_RuleOfFive>  (1423) 
0

>  <i_qp_RuleOfThree>  (1423) 
1

>  <i_sd_BIOSOLVEIT.INFINISEE\_RESULT\_RANK>  (1423) 
29396

>  <i_sd_version>  (1423) 
0

>  <b_lp_Chiralities_Consistent>  (1423) 
1

>  <b_sd_chiral_flag>  (1423) 
0

>  <canonical_id>  (1423) 
ATP-HTVS-E027274C2018

>  <compound_code>  (1423) 
1953

>  <title>  (1423) 
YAS_R004____OTV1506428____OTV2084332____OTV1055862

>  <variant>  (1423) 
1953-1

>  <source_file>  (1423) 
运行/运行/ATP-VSW/ATP-VSW-DOCK_HTVS_1-001_lib/ATP-VSW-DOCK_HTVS_1-001_lib

>  <canonical_smiles>  (1423) 
Cc1ccc([C@@H](O)CNc2cc(-c3cccnc3)[nH+]c3ccc(F)cc23)cc1

>  <scaffold>  (1423) 
c1ccc(CCNc2cc(-c3cccnc3)[nH+]c3ccccc23)cc1

>  <molecular_formula>  (1423) 
C23H21FN3O+

$$$$
ATP-HTVS-E0444895C82B
     RDKit          3D

 63 66  0  0  0  0  0  0  0  0999 V2000
  197.4942  184.7502  159.3482 N   0  0  0  0  0  0  0  0  0  0  0  0
  197.4729  183.7027  158.5162 C   0  0  0  0  0  0  0  0  0  0  0  0
  198.6734  183.3407  157.8831 N   0  0  0  0  0  0  0  0  0  0  0  0
  199.9410  184.0728  157.9585 C   0  0  1  0  0  0  0  0  0  0  0  0
  199.8361  185.5866  158.0517 C   0  0  0  0  0  0  0  0  0  0  0  0
  198.9214  186.2740  157.2371 C   0  0  0  0  0  0  0  0  0  0  0  0
  198.6322  187.6343  157.4659 C   0  0  0  0  0  0  0  0  0  0  0  0
  199.3093  188.3206  158.4977 C   0  0  0  0  0  0  0  0  0  0  0  0
  199.0357  189.6604  158.7619 N   0  0  0  0  0  0  0  0  0  0  0  0
  200.2484  187.6396  159.3002 C   0  0  0  0  0  0  0  0  0  0  0  0
  200.5110  186.2764  159.0821 C   0  0  0  0  0  0  0  0  0  0  0  0
  197.5451  188.3013  156.6460 C   0  0  2  0  0  0  0  0  0  0  0  0
  196.2648  183.0031  158.2484 C   0  0  0  0  0  0  0  0  0  0  0  0
  195.0940  183.4166  158.7852 N   0  0  0  0  0  0  0  0  0  0  0  0
  195.1171  184.5291  159.5585 C   0  0  0  0  0  0  0  0  0  0  0  0
  196.3252  185.2228  159.8194 C   0  0  0  0  0  0  0  0  0  0  0  0
  196.3196  186.4157  160.5427 C   0  0  0  0  0  0  0  0  0  0  0  0
  195.1455  186.9223  161.1160 C   0  0  0  0  0  0  0  0  0  0  0  0
  193.9425  186.2044  160.9314 C   0  0  0  0  0  0  0  0  0  0  0  0
  193.9332  185.0382  160.1444 C   0  0  0  0  0  0  0  0  0  0  0  0
  196.2410  181.8407  157.4558 N   0  0  0  0  0  0  0  0  0  0  0  0
  196.4911  181.9751  156.0255 C   0  0  1  0  0  0  0  0  0  0  0  0
  197.5603  181.0262  155.4882 C   0  0  0  0  0  0  0  0  0  0  0  0
  198.6057  180.5587  156.3152 C   0  0  0  0  0  0  0  0  0  0  0  0
  199.5896  179.6869  155.8191 C   0  0  0  0  0  0  0  0  0  0  0  0
  199.5375  179.2769  154.4707 C   0  0  0  0  0  0  0  0  0  0  0  0
  198.4826  179.7084  153.6452 C   0  0  0  0  0  0  0  0  0  0  0  0
  197.5016  180.5884  154.1456 C   0  0  0  0  0  0  0  0  0  0  0  0
  200.6634  179.1729  156.7616 C   0  0  1  0  0  0  0  0  0  0  0  0
  200.3378  177.8143  157.2604 N   0  0  2  0  0  0  0  0  0  0  0  0
  201.0062  177.5204  158.5413 C   0  0  2  0  0  0  0  0  0  0  0  0
  200.6026  176.7491  156.2639 C   0  0  2  0  0  0  0  0  0  0  0  0
  198.6299  182.5433  157.2692 H   0  0  0  0  0  0  0  0  0  0  0  0
  200.4862  183.6903  158.8179 H   0  0  0  0  0  0  0  0  0  0  0  0
  200.5466  183.8289  157.0811 H   0  0  0  0  0  0  0  0  0  0  0  0
  198.3545  185.7312  156.4914 H   0  0  0  0  0  0  0  0  0  0  0  0
  199.6140  190.1761  159.4089 H   0  0  0  0  0  0  0  0  0  0  0  0
  198.4733  190.2043  158.1226 H   0  0  0  0  0  0  0  0  0  0  0  0
  200.7177  188.1440  160.1338 H   0  0  0  0  0  0  0  0  0  0  0  0
  201.1428  185.7389  159.7641 H   0  0  0  0  0  0  0  0  0  0  0  0
  196.7685  188.7305  157.2845 H   0  0  0  0  0  0  0  0  0  0  0  0
  197.0619  187.6028  155.9608 H   0  0  0  0  0  0  0  0  0  0  0  0
  197.9934  189.0972  156.0590 H   0  0  0  0  0  0  0  0  0  0  0  0
  197.2386  186.9644  160.6524 H   0  0  0  0  0  0  0  0  0  0  0  0
  195.1765  187.8147  161.7163 H   0  0  0  0  0  0  0  0  0  0  0  0
  193.0321  186.5623  161.3964 H   0  0  0  0  0  0  0  0  0  0  0  0
  193.0006  184.5062  159.9690 H   0  0  0  0  0  0  0  0  0  0  0  0
  195.5172  181.1595  157.6598 H   0  0  0  0  0  0  0  0  0  0  0  0
  195.5549  181.7473  155.5135 H   0  0  0  0  0  0  0  0  0  0  0  0
  196.7454  183.0039  155.7481 H   0  0  0  0  0  0  0  0  0  0  0  0
  198.6578  180.8422  157.3503 H   0  0  0  0  0  0  0  0  0  0  0  0
  200.2789  178.6014  154.0678 H   0  0  0  0  0  0  0  0  0  0  0  0
  198.4252  179.3503  152.6289 H   0  0  0  0  0  0  0  0  0  0  0  0
  196.6967  180.9167  153.5009 H   0  0  0  0  0  0  0  0  0  0  0  0
  201.6473  179.1969  156.2912 H   0  0  0  0  0  0  0  0  0  0  0  0
  200.7270  179.8568  157.6108 H   0  0  0  0  0  0  0  0  0  0  0  0
  202.0835  177.5418  158.4032 H   0  0  0  0  0  0  0  0  0  0  0  0
  200.7308  176.5353  158.9119 H   0  0  0  0  0  0  0  0  0  0  0  0
  200.7453  178.2401  159.3156 H   0  0  0  0  0  0  0  0  0  0  0  0
  201.6528  176.7471  155.9628 H   0  0  0  0  0  0  0  0  0  0  0  0
  199.9807  176.8471  155.3765 H   0  0  0  0  0  0  0  0  0  0  0  0
  200.3716  175.7746  156.6803 H   0  0  0  0  0  0  0  0  0  0  0  0
  199.3391  177.8151  157.4644 H   0  0  0  0  0  0  0  0  0  0  0  0
  1  2  2  0
  1 16  1  0
  2  3  1  0
  2 13  1  0
  3  4  1  0
  3 33  1  0
  4  5  1  0
  4 34  1  1
  4 35  1  0
  5  6  2  0
  5 11  1  0
  6  7  1  0
  6 36  1  0
  7  8  2  0
  7 12  1  0
  8  9  1  0
  8 10  1  0
  9 37  1  0
  9 38  1  0
 10 11  2  0
 10 39  1  0
 11 40  1  0
 12 41  1  1
 12 42  1  0
 12 43  1  0
 13 14  2  0
 13 21  1  0
 14 15  1  0
 15 16  1  0
 15 20  2  0
 16 17  2  0
 17 18  1  0
 17 44  1  0
 18 19  2  0
 18 45  1  0
 19 20  1  0
 19 46  1  0
 20 47  1  0
 21 22  1  0
 21 48  1  0
 22 23  1  0
 22 49  1  6
 22 50  1  0
 23 24  2  0
 23 28  1  0
 24 25  1  0
 24 51  1  0
 25 26  2  0
 25 29  1  0
 26 27  1  0
 26 52  1  0
 27 28  2  0
 27 53  1  0
 28 54  1  0
 29 30  1  0
 29 55  1  6
 29 56  1  0
 30 31  1  0
 30 32  1  0
 30 63  1  1
 31 57  1  6
 31 58  1  0
 31 59  1  0
 32 60  1  6
 32 61  1  0
 32 62  1  0
M  CHG  1  30   1
M  END
>  <s_epik_cmdline>  (1424) 
J2VwaWtfcHl0aG9uJywgJy1waCcsICc3LjAwMDAwMCcsICctcGh0JywgJzIuMDAwMDAwJywgJy1tcycsICcxNicsICctdG4nLCAnOCcsICctbWEnLCAnMjAwJywgJy1pbWFlJywgJzxpbmZpbGUubWFlPicsICctb21hZScsICc8b3V0ZmlsZS5tYWU+Jw==

>  <s_epik_input>  (1424) 
W2NIXTFbY0hdYyhbTkgyXSljKFtDSDNdKVtjSF1jMVtDSDJdW05IXWMobmMoYzIzKVtjSF1bY0hdW2NIXVtjSF0zKWMobjIpW05IXVtDSDJdYzRbY0hdYyhbY0hdW2NIXVtjSF00KVtDSDJdTihbQ0gzXSlbQ0gzXQ==

>  <s_i_glide_gridfile>  (1424) 
ATP-Grid

>  <s_lp_Force_Field>  (1424) 
OPLS_2005

>  <s_lp_Variant>  (1424) 
m_282030aaa____21928796____23157418____21941636-1

>  <s_lp_label>  (1424) 
1997_sdstereoexpander_1_neutralizer_1_epik_1_stereoizer_1

>  <s_m_source_file>  (1424) 
ATP-VSW-LIGPREP-001-in.maegz

>  <s_sd_BIOSOLVEIT.INFINISEE\_QUERY\_NAME>  (1424) 
Ref-Lig

>  <s_sd_BIOSOLVEIT.INFINISEE\_QUERY\_SMILES>  (1424) 
S(c1nc2c(cc1C[NH2+]Cc3ccc(cc3)C[NH+](C)C)cccc2)Cc4ccccc4

>  <s_sd_BIOSOLVEIT.INFINISEE\_REACTION\_NAME>  (1424) 
m_282030aaa

>  <s_sd_BIOSOLVEIT.INFINISEE\_REAGENT1\_SMILES>  (1424) 
[R1*]NCc1cc(ccc1)CN(C)C

>  <s_sd_BIOSOLVEIT.INFINISEE\_REAGENT2\_SMILES>  (1424) 
[R1*]c1nc2c(nc1[R2*])cccc2

>  <s_sd_BIOSOLVEIT.INFINISEE\_REAGENT3\_SMILES>  (1424) 
[R2*]NCc1cc(c(N)cc1)C

>  <s_sd_BIOSOLVEIT.INFINISEE\_SPACE>  (1424) 
REALSpace_44bn_2023-08

>  <s_vsw_compound_code>  (1424) 
63873

>  <s_vsw_variant>  (1424) 
63873-1

>  <r_epik_Charging_Adjusted_Penalty>  (1424) 
0.098085949290879895

>  <r_epik_Ionization_Penalty>  (1424) 
0.054399999999999997

>  <r_epik_Ionization_Penalty_Charging>  (1424) 
0.0441

>  <r_epik_Ionization_Penalty_Neutral>  (1424) 
0.0103

>  <r_epik_State_Penalty>  (1424) 
0.053999999999999999

>  <r_i_docking_score>  (1424) 
-4.46030894923791

>  <r_i_glide_ecoul>  (1424) 
-7.85280418395996

>  <r_i_glide_eff_state_penalty>  (1424) 
0.053999999999999999

>  <r_i_glide_einternal>  (1424) 
6.4197793006896999

>  <r_i_glide_emodel>  (1424) 
-56.053160151172698

>  <r_i_glide_energy>  (1424) 
-43.009481430053697

>  <r_i_glide_erotb>  (1424) 
0.76030325106258601

>  <r_i_glide_esite>  (1424) 
-0.17422680396198201

>  <r_i_glide_evdw>  (1424) 
-35.1566772460938

>  <r_i_glide_gscore>  (1424) 
-4.5143089492379103

>  <r_i_glide_hbond>  (1424) 
-0.29127994603294499

>  <r_i_glide_ligand_efficiency>  (1424) 
-0.13938465466368499

>  <r_i_glide_ligand_efficiency_ln>  (1424) 
-0.99878475716434301

>  <r_i_glide_ligand_efficiency_sa>  (1424) 
-0.44251869437149699

>  <r_i_glide_lipo>  (1424) 
-1.3794728240432499

>  <r_i_glide_metal>  (1424) 
-0

>  <r_i_glide_rewards>  (1424) 
-0.49387813636363498

>  <r_lp_Energy>  (1424) 
25.991743

>  <r_qp_ACxDN^.5/SA>  (1424) 
0.016106800000000001

>  <r_qp_CIQPlogS>  (1424) 
-5.5439999999999996

>  <r_qp_EA(eV)>  (1424) 
0.61199999999999999

>  <r_qp_FISA>  (1424) 
76.507000000000005

>  <r_qp_FOSA>  (1424) 
248.78299999999999

>  <r_qp_IP(eV)>  (1424) 
7.9409999999999998

>  <r_qp_Jm>  (1424) 
0.10216179465753999

>  <r_qp_PISA>  (1424) 
371.61900000000003

>  <r_qp_PSA>  (1424) 
71.141999999999996

>  <r_qp_PercentHumanOralAbsorption>  (1424) 
100

>  <r_qp_QPPCaco>  (1424) 
464.81999999999999

>  <r_qp_QPPMDCK>  (1424) 
239.114

>  <r_qp_QPlogBB>  (1424) 
-0.28799999999999998

>  <r_qp_QPlogHERG>  (1424) 
-6.4699999999999998

>  <r_qp_QPlogKhsa>  (1424) 
0.61199999999999999

>  <r_qp_QPlogKp>  (1424) 
-2.819

>  <r_qp_QPlogPC16>  (1424) 
14.693

>  <r_qp_QPlogPo/w>  (1424) 
4.2480000000000002

>  <r_qp_QPlogPoct>  (1424) 
24.027000000000001

>  <r_qp_QPlogPw>  (1424) 
13.494999999999999

>  <r_qp_QPlogS>  (1424) 
-3.802

>  <r_qp_QPpolrz>  (1424) 
45.792000000000002

>  <r_qp_SASA>  (1424) 
696.90899999999999

>  <r_qp_SAamideO>  (1424) 
0

>  <r_qp_SAfluorine>  (1424) 
0

>  <r_qp_WPSA>  (1424) 
0

>  <r_qp_accptHB>  (1424) 
6

>  <r_qp_dip^2/V>  (1424) 
0.039103800000000001

>  <r_qp_dipole>  (1424) 
7.2759999999999998

>  <r_qp_donorHB>  (1424) 
3.5

>  <r_qp_glob>  (1424) 
0.8492016

>  <r_qp_mol_MW>  (1424) 
426.56299999999999

>  <r_qp_volume>  (1424) 
1353.7329999999999

>  <r_sd_BIOSOLVEIT.INFINISEE\_FTREES\_SIMILARITY>  (1424) 
0.90200000000000002

>  <r_sd_BIOSOLVEIT.LOGP>  (1424) 
3.3891200000000001

>  <r_sd_BIOSOLVEIT.MOLECULAR\_WEIGHT>  (1424) 
427.57299999999998

>  <r_sd_BIOSOLVEIT.TPSA>  (1424) 
80.299999999999997

>  <i_epik_Tot_Q>  (1424) 
1

>  <i_epik_Tot_abs_Q>  (1424) 
1

>  <i_f3d_flags>  (1424) 
0

>  <i_i_glide_confnum>  (1424) 
6

>  <i_i_glide_lignum>  (1424) 
607

>  <i_i_glide_posenum>  (1424) 
9

>  <i_i_glide_rotatable_bonds>  (1424) 
8

>  <i_lp_mmshare_version>  (1424) 
65135

>  <i_m_ct_format>  (1424) 
2

>  <i_m_source_file_index>  (1424) 
1997

>  <i_qp_#NandO>  (1424) 
6

>  <i_qp_#acid>  (1424) 
0

>  <i_qp_#amide>  (1424) 
0

>  <i_qp_#amidine>  (1424) 
0

>  <i_qp_#amine>  (1424) 
1

>  <i_qp_#in34>  (1424) 
0

>  <i_qp_#in56>  (1424) 
22

>  <i_qp_#metab>  (1424) 
7

>  <i_qp_#nonHatm>  (1424) 
32

>  <i_qp_#noncon>  (1424) 
0

>  <i_qp_#ringatoms>  (1424) 
22

>  <i_qp_#rotor>  (1424) 
9

>  <i_qp_#rtvFG>  (1424) 
0

>  <i_qp_#stars>  (1424) 
0

>  <i_qp_CNS>  (1424) 
0

>  <i_qp_HumanOralAbsorption>  (1424) 
3

>  <i_qp_RuleOfFive>  (1424) 
0

>  <i_qp_RuleOfThree>  (1424) 
1

>  <i_sd_BIOSOLVEIT.INFINISEE\_REAGENT1\_NAME>  (1424) 
21928796

>  <i_sd_BIOSOLVEIT.INFINISEE\_REAGENT2\_NAME>  (1424) 
23157418

>  <i_sd_BIOSOLVEIT.INFINISEE\_REAGENT3\_NAME>  (1424) 
21941636

>  <i_sd_BIOSOLVEIT.INFINISEE\_RESULT\_RANK>  (1424) 
90558

>  <i_sd_version>  (1424) 
0

>  <b_lp_Chiralities_Consistent>  (1424) 
1

>  <b_sd_chiral_flag>  (1424) 
0

>  <canonical_id>  (1424) 
ATP-HTVS-E0444895C82B

>  <compound_code>  (1424) 
63873

>  <title>  (1424) 
m_282030aaa____21928796____23157418____21941636

>  <variant>  (1424) 
63873-1

>  <source_file>  (1424) 
运行/运行/ATP-VSW/ATP-VSW-DOCK_HTVS_1-001_lib/ATP-VSW-DOCK_HTVS_1-001_lib

>  <canonical_smiles>  (1424) 
Cc1cc(CNc2nc3ccccc3nc2NCc2cccc(C[NH+](C)C)c2)ccc1N

>  <scaffold>  (1424) 
c1ccc(CNc2nc3ccccc3nc2NCc2ccccc2)cc1

>  <molecular_formula>  (1424) 
C26H31N6+

$$$$
ATP-HTVS-E05E864FAEC7
     RDKit          3D

 57 60  0  0  0  0  0  0  0  0999 V2000
  195.8634  183.1975  150.7889 O   0  0  0  0  0  0  0  0  0  0  0  0
  196.5150  182.5187  151.5785 C   0  0  0  0  0  0  0  0  0  0  0  0
  196.9716  182.8578  152.8178 N   0  0  0  0  0  0  0  0  0  0  0  0
  197.6672  181.7192  153.4763 C   0  0  2  0  0  0  0  0  0  0  0  0
  197.6738  180.6534  152.3967 C   0  0  0  0  0  0  0  0  0  0  0  0
  196.9946  181.1404  151.3019 C   0  0  0  0  0  0  0  0  0  0  0  0
  196.8484  180.3944  150.1258 C   0  0  0  0  0  0  0  0  0  0  0  0
  197.3970  179.0947  150.0839 C   0  0  0  0  0  0  0  0  0  0  0  0
  198.0783  178.5757  151.2137 C   0  0  0  0  0  0  0  0  0  0  0  0
  198.2338  179.3539  152.3884 C   0  0  0  0  0  0  0  0  0  0  0  0
  196.9310  181.2126  154.7484 C   0  0  1  0  0  0  0  0  0  0  0  0
  196.7471  182.2990  155.7384 N   0  0  1  0  0  0  0  0  0  0  0  0
  197.0750  181.9650  157.1391 C   0  0  1  0  0  0  0  0  0  0  0  0
  196.4014  182.9592  158.0723 C   0  0  0  0  0  0  0  0  0  0  0  0
  197.0859  184.1178  158.5312 C   0  0  0  0  0  0  0  0  0  0  0  0
  198.3704  184.3231  158.0739 O   0  0  0  0  0  0  0  0  0  0  0  0
  199.0551  185.4930  158.4997 C   0  0  2  0  0  0  0  0  0  0  0  0
  196.4189  185.0147  159.4073 C   0  0  0  0  0  0  0  0  0  0  0  0
  195.0871  184.7743  159.7921 C   0  0  0  0  0  0  0  0  0  0  0  0
  194.4031  183.6469  159.3032 C   0  0  0  0  0  0  0  0  0  0  0  0
  195.0598  182.7224  158.4573 C   0  0  0  0  0  0  0  0  0  0  0  0
  194.4535  181.5941  157.9421 O   0  0  0  0  0  0  0  0  0  0  0  0
  193.0754  181.3799  158.1814 C   0  0  2  0  0  0  0  0  0  0  0  0
  196.9278  184.2095  153.4050 C   0  0  1  0  0  0  0  0  0  0  0  0
  198.0213  185.1560  152.9098 C   0  0  0  0  0  0  0  0  0  0  0  0
  198.2891  185.3286  151.5237 C   0  0  0  0  0  0  0  0  0  0  0  0
  199.2885  186.2382  151.1198 C   0  0  0  0  0  0  0  0  0  0  0  0
  200.0144  186.9814  152.0834 C   0  0  0  0  0  0  0  0  0  0  0  0
  199.7518  186.8048  153.4605 C   0  0  0  0  0  0  0  0  0  0  0  0
  198.7580  185.8933  153.8661 C   0  0  0  0  0  0  0  0  0  0  0  0
  197.3490  183.0864  155.4898 H   0  0  0  0  0  0  0  0  0  0  0  0
  198.6933  181.9973  153.7095 H   0  0  0  0  0  0  0  0  0  0  0  0
  196.3515  180.8049  149.2643 H   0  0  0  0  0  0  0  0  0  0  0  0
  197.2909  178.4935  149.1871 H   0  0  0  0  0  0  0  0  0  0  0  0
  198.4800  177.5743  151.1692 H   0  0  0  0  0  0  0  0  0  0  0  0
  198.7531  178.9558  153.2476 H   0  0  0  0  0  0  0  0  0  0  0  0
  195.9464  180.8380  154.4807 H   0  0  0  0  0  0  0  0  0  0  0  0
  197.4556  180.3547  155.1654 H   0  0  0  0  0  0  0  0  0  0  0  0
  196.7627  180.9723  157.4153 H   0  0  0  0  0  0  0  0  0  0  0  0
  198.1510  181.9821  157.2698 H   0  0  0  0  0  0  0  0  0  0  0  0
  200.0496  185.5053  158.0544 H   0  0  0  0  0  0  0  0  0  0  0  0
  199.1785  185.5130  159.5843 H   0  0  0  0  0  0  0  0  0  0  0  0
  198.5364  186.3976  158.1768 H   0  0  0  0  0  0  0  0  0  0  0  0
  196.8993  185.9004  159.7977 H   0  0  0  0  0  0  0  0  0  0  0  0
  194.5821  185.4570  160.4643 H   0  0  0  0  0  0  0  0  0  0  0  0
  193.3744  183.5140  159.5950 H   0  0  0  0  0  0  0  0  0  0  0  0
  192.7430  180.4739  157.6758 H   0  0  0  0  0  0  0  0  0  0  0  0
  192.4658  182.2047  157.8029 H   0  0  0  0  0  0  0  0  0  0  0  0
  192.8985  181.2245  159.2452 H   0  0  0  0  0  0  0  0  0  0  0  0
  195.9875  184.6848  153.1047 H   0  0  0  0  0  0  0  0  0  0  0  0
  196.9758  184.1653  154.4907 H   0  0  0  0  0  0  0  0  0  0  0  0
  197.7326  184.7889  150.7622 H   0  0  0  0  0  0  0  0  0  0  0  0
  199.4780  186.3661  150.0628 H   0  0  0  0  0  0  0  0  0  0  0  0
  200.7716  187.6896  151.7608 H   0  0  0  0  0  0  0  0  0  0  0  0
  200.2966  187.3719  154.2078 H   0  0  0  0  0  0  0  0  0  0  0  0
  198.5559  185.7704  154.9236 H   0  0  0  0  0  0  0  0  0  0  0  0
  195.7502  182.5615  155.7301 H   0  0  0  0  0  0  0  0  0  0  0  0
  1  2  2  0
  2  3  1  0
  2  6  1  0
  3  4  1  0
  3 24  1  0
  4  5  1  0
  4 11  1  0
  4 32  1  1
  5  6  1  0
  5 10  2  0
  6  7  2  0
  7  8  1  0
  7 33  1  0
  8  9  2  0
  8 34  1  0
  9 10  1  0
  9 35  1  0
 10 36  1  0
 11 12  1  0
 11 37  1  6
 11 38  1  0
 12 13  1  0
 12 31  1  6
 12 57  1  0
 13 14  1  0
 13 39  1  1
 13 40  1  0
 14 15  2  0
 14 21  1  0
 15 16  1  0
 15 18  1  0
 16 17  1  0
 17 41  1  6
 17 42  1  0
 17 43  1  0
 18 19  2  0
 18 44  1  0
 19 20  1  0
 19 45  1  0
 20 21  2  0
 20 46  1  0
 21 22  1  0
 22 23  1  0
 23 47  1  6
 23 48  1  0
 23 49  1  0
 24 25  1  0
 24 50  1  1
 24 51  1  0
 25 26  2  0
 25 30  1  0
 26 27  1  0
 26 52  1  0
 27 28  2  0
 27 53  1  0
 28 29  1  0
 28 54  1  0
 29 30  2  0
 29 55  1  0
 30 56  1  0
M  CHG  1  12   1
M  END
>  <s_epik_cmdline>  (1425) 
J2VwaWtfcHl0aG9uJywgJy1waCcsICc3LjAwMDAwMCcsICctcGh0JywgJzIuMDAwMDAwJywgJy1tcycsICcxNicsICctdG4nLCAnOCcsICctbWEnLCAnMjAwJywgJy1pbWFlJywgJzxpbmZpbGUubWFlPicsICctb21hZScsICc8b3V0ZmlsZS5tYWU+Jw==

>  <s_epik_input>  (1425) 
W2NIXTFbY0hdW2NIXVtjSF1bY0hdYzFbQ0gyXU4oQyg9TyljKGMyMylbY0hdW2NIXVtjSF1bY0hdMylbQ0BIXTJbQ0gyXVtOSF1bQ0gyXWM0YyhPW0NIM10pW2NIXVtjSF1bY0hdYzRPW0NIM10=

>  <s_i_glide_gridfile>  (1425) 
ATP-Grid

>  <s_lp_Force_Field>  (1425) 
OPLS_2005

>  <s_lp_Variant>  (1425) 
m_270004bbb____12219716____10115208-1

>  <s_lp_label>  (1425) 
1909_sdstereoexpander_1_neutralizer_1_epik_1_stereoizer_1

>  <s_m_source_file>  (1425) 
ATP-VSW-LIGPREP-001-in.maegz

>  <s_sd_BIOSOLVEIT.INFINISEE\_QUERY\_NAME>  (1425) 
Ref-Lig

>  <s_sd_BIOSOLVEIT.INFINISEE\_QUERY\_SMILES>  (1425) 
S(c1nc2c(cc1C[NH2+]Cc3ccc(cc3)C[NH+](C)C)cccc2)Cc4ccccc4

>  <s_sd_BIOSOLVEIT.INFINISEE\_REACTION\_NAME>  (1425) 
m_270004bbb

>  <s_sd_BIOSOLVEIT.INFINISEE\_REAGENT1\_SMILES>  (1425) 
[R1*]NCC1N(C(=O)c2c1cccc2)Cc3ccccc3

>  <s_sd_BIOSOLVEIT.INFINISEE\_REAGENT2\_SMILES>  (1425) 
[R1*]Cc1c(OC)cccc1OC

>  <s_sd_BIOSOLVEIT.INFINISEE\_SPACE>  (1425) 
REALSpace_44bn_2023-08

>  <s_vsw_compound_code>  (1425) 
61057

>  <s_vsw_variant>  (1425) 
61057-1

>  <r_epik_Charging_Adjusted_Penalty>  (1425) 
0.099254901158930806

>  <r_epik_Ionization_Penalty>  (1425) 
0.049599999999999998

>  <r_epik_Ionization_Penalty_Charging>  (1425) 
0.049599999999999998

>  <r_epik_Ionization_Penalty_Neutral>  (1425) 
0

>  <r_epik_State_Penalty>  (1425) 
0.049599999999999998

>  <r_i_docking_score>  (1425) 
-4.04070251326538

>  <r_i_glide_ecoul>  (1425) 
-5.2638840675354004

>  <r_i_glide_eff_state_penalty>  (1425) 
0.049599999999999998

>  <r_i_glide_einternal>  (1425) 
10.48011302948

>  <r_i_glide_emodel>  (1425) 
-49.021970956236103

>  <r_i_glide_energy>  (1425) 
-40.080103397369399

>  <r_i_glide_erotb>  (1425) 
0.72358067980095497

>  <r_i_glide_esite>  (1425) 
-0.119747772392479

>  <r_i_glide_evdw>  (1425) 
-34.816219329833999

>  <r_i_glide_gscore>  (1425) 
-4.0903025132653799

>  <r_i_glide_hbond>  (1425) 
-0.15419723882169201

>  <r_i_glide_ligand_efficiency>  (1425) 
-0.134690083775513

>  <r_i_glide_ligand_efficiency_ln>  (1425) 
-0.91809163799406102

>  <r_i_glide_ligand_efficiency_sa>  (1425) 
-0.41851340606243898

>  <r_i_glide_lipo>  (1425) 
-1.35154560523015

>  <r_i_glide_metal>  (1425) 
-0

>  <r_i_glide_rewards>  (1425) 
-0.657998999999999

>  <r_lp_Energy>  (1425) 
47.216042000000002

>  <r_lp_tautomer_probability>  (1425) 
1

>  <r_qp_ACxDN^.5/SA>  (1425) 
0.0086987000000000002

>  <r_qp_CIQPlogS>  (1425) 
-5.1429999999999998

>  <r_qp_EA(eV)>  (1425) 
0.11700000000000001

>  <r_qp_FISA>  (1425) 
42.695

>  <r_qp_FOSA>  (1425) 
236.589

>  <r_qp_IP(eV)>  (1425) 
9.0120000000000005

>  <r_qp_Jm>  (1425) 
0.227653947528143

>  <r_qp_PISA>  (1425) 
410.476

>  <r_qp_PSA>  (1425) 
54.831000000000003

>  <r_qp_PercentHumanOralAbsorption>  (1425) 
100

>  <r_qp_QPPCaco>  (1425) 
972.57399999999996

>  <r_qp_QPPMDCK>  (1425) 
531.09900000000005

>  <r_qp_QPlogBB>  (1425) 
0.070000000000000007

>  <r_qp_QPlogHERG>  (1425) 
-6.9199999999999999

>  <r_qp_QPlogKhsa>  (1425) 
0.624

>  <r_qp_QPlogKp>  (1425) 
-2.1549999999999998

>  <r_qp_QPlogPC16>  (1425) 
13.651999999999999

>  <r_qp_QPlogPo/w>  (1425) 
4.5640000000000001

>  <r_qp_QPlogPoct>  (1425) 
19.972000000000001

>  <r_qp_QPlogPw>  (1425) 
10.071

>  <r_qp_QPlogS>  (1425) 
-4.093

>  <r_qp_QPpolrz>  (1425) 
44.445

>  <r_qp_SASA>  (1425) 
689.75999999999999

>  <r_qp_SAamideO>  (1425) 
0

>  <r_qp_SAfluorine>  (1425) 
0

>  <r_qp_WPSA>  (1425) 
0

>  <r_qp_accptHB>  (1425) 
6

>  <r_qp_dip^2/V>  (1425) 
0.054815599999999999

>  <r_qp_dipole>  (1425) 
8.4239999999999995

>  <r_qp_donorHB>  (1425) 
1

>  <r_qp_glob>  (1425) 
0.83289089999999999

>  <r_qp_mol_MW>  (1425) 
402.49200000000002

>  <r_qp_volume>  (1425) 
1294.7370000000001

>  <r_sd_BIOSOLVEIT.INFINISEE\_FTREES\_SIMILARITY>  (1425) 
0.90300000000000002

>  <r_sd_BIOSOLVEIT.LOGP>  (1425) 
3.1644999999999999

>  <r_sd_BIOSOLVEIT.MOLECULAR\_WEIGHT>  (1425) 
403.49900000000002

>  <r_sd_BIOSOLVEIT.TPSA>  (1425) 
55.380000000000003

>  <i_epik_Tot_Q>  (1425) 
1

>  <i_epik_Tot_abs_Q>  (1425) 
1

>  <i_f3d_flags>  (1425) 
0

>  <i_i_glide_confnum>  (1425) 
5

>  <i_i_glide_lignum>  (1425) 
573

>  <i_i_glide_posenum>  (1425) 
4

>  <i_i_glide_rotatable_bonds>  (1425) 
8

>  <i_lp_mmshare_version>  (1425) 
65135

>  <i_m_ct_format>  (1425) 
2

>  <i_m_source_file_index>  (1425) 
1909

>  <i_qp_#NandO>  (1425) 
5

>  <i_qp_#acid>  (1425) 
0

>  <i_qp_#amide>  (1425) 
0

>  <i_qp_#amidine>  (1425) 
0

>  <i_qp_#amine>  (1425) 
1

>  <i_qp_#in34>  (1425) 
0

>  <i_qp_#in56>  (1425) 
21

>  <i_qp_#metab>  (1425) 
6

>  <i_qp_#nonHatm>  (1425) 
30

>  <i_qp_#noncon>  (1425) 
1

>  <i_qp_#ringatoms>  (1425) 
21

>  <i_qp_#rotor>  (1425) 
8

>  <i_qp_#rtvFG>  (1425) 
0

>  <i_qp_#stars>  (1425) 
0

>  <i_qp_CNS>  (1425) 
1

>  <i_qp_HumanOralAbsorption>  (1425) 
3

>  <i_qp_RuleOfFive>  (1425) 
0

>  <i_qp_RuleOfThree>  (1425) 
0

>  <i_sd_BIOSOLVEIT.INFINISEE\_REAGENT1\_NAME>  (1425) 
12219716

>  <i_sd_BIOSOLVEIT.INFINISEE\_REAGENT2\_NAME>  (1425) 
10115208

>  <i_sd_BIOSOLVEIT.INFINISEE\_RESULT\_RANK>  (1425) 
84903

>  <i_sd_version>  (1425) 
0

>  <b_lp_Chiralities_Consistent>  (1425) 
1

>  <b_sd_chiral_flag>  (1425) 
0

>  <canonical_id>  (1425) 
ATP-HTVS-E05E864FAEC7

>  <compound_code>  (1425) 
61057

>  <title>  (1425) 
m_270004bbb____12219716____10115208

>  <variant>  (1425) 
61057-1

>  <source_file>  (1425) 
运行/运行/ATP-VSW/ATP-VSW-DOCK_HTVS_1-001_lib/ATP-VSW-DOCK_HTVS_1-001_lib

>  <canonical_smiles>  (1425) 
COc1cccc(OC)c1C[NH2+]C[C@H]1c2ccccc2C(=O)N1Cc1ccccc1

>  <scaffold>  (1425) 
O=C1c2ccccc2C(C[NH2+]Cc2ccccc2)N1Cc1ccccc1

>  <molecular_formula>  (1425) 
C25H27N2O3+

$$$$
ATP-HTVS-E0849D225AC7
     RDKit          3D

 56 59  0  0  0  0  0  0  0  0999 V2000
  196.6610  179.7214  151.8334 O   0  0  0  0  0  0  0  0  0  0  0  0
  197.8791  179.9134  151.9138 C   0  0  0  0  0  0  0  0  0  0  0  0
  198.5098  181.0340  151.4597 N   0  0  0  0  0  0  0  0  0  0  0  0
  197.7900  182.1191  150.8648 C   0  0  0  0  0  0  0  0  0  0  0  0
  196.6753  182.7014  151.5141 C   0  0  0  0  0  0  0  0  0  0  0  0
  196.0045  183.7942  150.9347 C   0  0  0  0  0  0  0  0  0  0  0  0
  196.4353  184.3232  149.7047 C   0  0  0  0  0  0  0  0  0  0  0  0
  197.5447  183.7583  149.0547 C   0  0  0  0  0  0  0  0  0  0  0  0
  198.2216  182.6653  149.6314 C   0  0  0  0  0  0  0  0  0  0  0  0
  199.9814  181.1053  151.4350 C   0  0  2  0  0  0  0  0  0  0  0  0
  198.7402  178.8385  152.5312 C   0  0  0  0  0  0  0  0  0  0  0  0
  199.0927  178.9516  153.9013 C   0  0  0  0  0  0  0  0  0  0  0  0
  198.6414  180.0580  154.5921 O   0  0  0  0  0  0  0  0  0  0  0  0
  198.6025  180.0127  156.0151 C   0  0  1  0  0  0  0  0  0  0  0  0
  198.1716  181.3841  156.5282 C   0  0  0  0  0  0  0  0  0  0  0  0
  198.8508  182.3649  156.2370 O   0  0  0  0  0  0  0  0  0  0  0  0
  197.0521  181.4379  157.2706 N   0  0  0  0  0  0  0  0  0  0  0  0
  196.5808  182.5565  158.0119 C   0  0  0  0  0  0  0  0  0  0  0  0
  197.4728  183.4763  158.6125 C   0  0  0  0  0  0  0  0  0  0  0  0
  196.9842  184.5600  159.3552 C   0  0  0  0  0  0  0  0  0  0  0  0
  195.5996  184.7301  159.5268 C   0  0  0  0  0  0  0  0  0  0  0  0
  194.7011  183.8022  158.9538 C   0  0  0  0  0  0  0  0  0  0  0  0
  195.1940  182.7078  158.2081 C   0  0  0  0  0  0  0  0  0  0  0  0
  195.0923  185.9149  160.3206 C   0  0  2  0  0  0  0  0  0  0  0  0
  199.9026  177.9525  154.4963 C   0  0  0  0  0  0  0  0  0  0  0  0
  200.3477  176.8550  153.7458 C   0  0  0  0  0  0  0  0  0  0  0  0
  199.9884  176.7267  152.3933 C   0  0  0  0  0  0  0  0  0  0  0  0
  199.1832  177.7184  151.7676 C   0  0  0  0  0  0  0  0  0  0  0  0
  198.8451  177.5433  150.4008 C   0  0  0  0  0  0  0  0  0  0  0  0
  199.2920  176.4152  149.6863 C   0  0  0  0  0  0  0  0  0  0  0  0
  200.0839  175.4419  150.3216 C   0  0  0  0  0  0  0  0  0  0  0  0
  200.4315  175.5995  151.6742 C   0  0  0  0  0  0  0  0  0  0  0  0
  196.3358  182.3298  152.4720 H   0  0  0  0  0  0  0  0  0  0  0  0
  195.1673  184.2301  151.4596 H   0  0  0  0  0  0  0  0  0  0  0  0
  195.9192  185.1577  149.2554 H   0  0  0  0  0  0  0  0  0  0  0  0
  197.8794  184.1674  148.1116 H   0  0  0  0  0  0  0  0  0  0  0  0
  199.0754  182.2548  149.1121 H   0  0  0  0  0  0  0  0  0  0  0  0
  200.3396  182.1011  151.1805 H   0  0  0  0  0  0  0  0  0  0  0  0
  200.3877  180.4068  150.7044 H   0  0  0  0  0  0  0  0  0  0  0  0
  200.4185  180.8858  152.4057 H   0  0  0  0  0  0  0  0  0  0  0  0
  197.9185  179.2272  156.3361 H   0  0  0  0  0  0  0  0  0  0  0  0
  199.5843  179.8221  156.4514 H   0  0  0  0  0  0  0  0  0  0  0  0
  196.5104  180.5706  157.3584 H   0  0  0  0  0  0  0  0  0  0  0  0
  198.5391  183.3584  158.5208 H   0  0  0  0  0  0  0  0  0  0  0  0
  197.6786  185.2508  159.7975 H   0  0  0  0  0  0  0  0  0  0  0  0
  193.6329  183.9290  159.0729 H   0  0  0  0  0  0  0  0  0  0  0  0
  194.5062  182.0002  157.7614 H   0  0  0  0  0  0  0  0  0  0  0  0
  194.0038  185.9791  160.3064 H   0  0  0  0  0  0  0  0  0  0  0  0
  195.4964  186.8405  159.9081 H   0  0  0  0  0  0  0  0  0  0  0  0
  195.4239  185.8332  161.3555 H   0  0  0  0  0  0  0  0  0  0  0  0
  200.2091  177.9980  155.5299 H   0  0  0  0  0  0  0  0  0  0  0  0
  200.9581  176.1019  154.2255 H   0  0  0  0  0  0  0  0  0  0  0  0
  198.2355  178.2644  149.8752 H   0  0  0  0  0  0  0  0  0  0  0  0
  199.0285  176.2925  148.6467 H   0  0  0  0  0  0  0  0  0  0  0  0
  200.4280  174.5786  149.7734 H   0  0  0  0  0  0  0  0  0  0  0  0
  201.0368  174.8454  152.1595 H   0  0  0  0  0  0  0  0  0  0  0  0
  1  2  2  0
  2  3  1  0
  2 11  1  0
  3  4  1  0
  3 10  1  0
  4  5  2  0
  4  9  1  0
  5  6  1  0
  5 33  1  0
  6  7  2  0
  6 34  1  0
  7  8  1  0
  7 35  1  0
  8  9  2  0
  8 36  1  0
  9 37  1  0
 10 38  1  6
 10 39  1  0
 10 40  1  0
 11 12  2  0
 11 28  1  0
 12 13  1  0
 12 25  1  0
 13 14  1  0
 14 15  1  0
 14 41  1  6
 14 42  1  0
 15 16  2  0
 15 17  1  0
 17 18  1  0
 17 43  1  0
 18 19  1  0
 18 23  2  0
 19 20  2  0
 19 44  1  0
 20 21  1  0
 20 45  1  0
 21 22  2  0
 21 24  1  0
 22 23  1  0
 22 46  1  0
 23 47  1  0
 24 48  1  1
 24 49  1  0
 24 50  1  0
 25 26  2  0
 25 51  1  0
 26 27  1  0
 26 52  1  0
 27 28  1  0
 27 32  2  0
 28 29  2  0
 29 30  1  0
 29 53  1  0
 30 31  2  0
 30 54  1  0
 31 32  1  0
 31 55  1  0
 32 56  1  0
M  END
>  <s_epik_cmdline>  (1426) 
J2VwaWtfcHl0aG9uJywgJy1waCcsICc3LjAwMDAwMCcsICctcGh0JywgJzIuMDAwMDAwJywgJy1tcycsICcxNicsICctdG4nLCAnOCcsICctbWEnLCAnMjAwJywgJy1pbWFlJywgJzxpbmZpbGUubWFlPicsICctb21hZScsICc8b3V0ZmlsZS5tYWU+Jw==

>  <s_epik_input>  (1426) 
W2NIXTFbY0hdW2NIXVtjSF1bY0hdYzFOKFtDSDNdKUMoPU8pYyhjKGMyMylbY0hdW2NIXVtjSF1bY0hdMyljKFtjSF1bY0hdMilPW0NIMl1DKD1PKVtOSF1jNFtjSF1bY0hdYyhbQ0gzXSlbY0hdW2NIXTQ=

>  <s_i_glide_gridfile>  (1426) 
ATP-Grid

>  <s_lp_Force_Field>  (1426) 
OPLS_2005

>  <s_lp_Variant>  (1426) 
YAT_R021a____OTV1262439____OTV0133160093____OTV999670-1

>  <s_lp_label>  (1426) 
112_sdstereoexpander_1_neutralizer_1_epik_1_stereoizer_1

>  <s_m_source_file>  (1426) 
ATP-VSW-LIGPREP-002-in.maegz

>  <s_sd_BIOSOLVEIT.INFINISEE\_QUERY\_NAME>  (1426) 
Ref-Lig

>  <s_sd_BIOSOLVEIT.INFINISEE\_QUERY\_SMILES>  (1426) 
S(c1nc2c(cc1C[NH2+]Cc3ccc(cc3)C[NH+](C)C)cccc2)Cc4ccccc4

>  <s_sd_BIOSOLVEIT.INFINISEE\_REACTION\_NAME>  (1426) 
YAT_R021a

>  <s_sd_BIOSOLVEIT.INFINISEE\_REAGENT1\_NAME>  (1426) 
OTV1262439

>  <s_sd_BIOSOLVEIT.INFINISEE\_REAGENT1\_SMILES>  (1426) 
O=C(O)c1c(O)ccc2c1cccc2

>  <s_sd_BIOSOLVEIT.INFINISEE\_REAGENT2\_NAME>  (1426) 
OTV0133160093

>  <s_sd_BIOSOLVEIT.INFINISEE\_REAGENT2\_SMILES>  (1426) 
ClCC(=O)Nc1ccc(cc1)C

>  <s_sd_BIOSOLVEIT.INFINISEE\_REAGENT3\_NAME>  (1426) 
OTV999670

>  <s_sd_BIOSOLVEIT.INFINISEE\_REAGENT3\_SMILES>  (1426) 
N(c1ccccc1)C

>  <s_sd_BIOSOLVEIT.INFINISEE\_SPACE>  (1426) 
CHEMriya_12bn_2022-01

>  <s_vsw_compound_code>  (1426) 
3554

>  <s_vsw_variant>  (1426) 
3554-1

>  <r_epik_Charging_Adjusted_Penalty>  (1426) 
0

>  <r_epik_Ionization_Penalty>  (1426) 
0

>  <r_epik_Ionization_Penalty_Charging>  (1426) 
0

>  <r_epik_Ionization_Penalty_Neutral>  (1426) 
0

>  <r_epik_State_Penalty>  (1426) 
-0

>  <r_i_docking_score>  (1426) 
-4.3978356832346304

>  <r_i_glide_ecoul>  (1426) 
-4.6540908813476598

>  <r_i_glide_eff_state_penalty>  (1426) 
-0

>  <r_i_glide_einternal>  (1426) 
6.3558979034423801

>  <r_i_glide_emodel>  (1426) 
-51.126134609355198

>  <r_i_glide_energy>  (1426) 
-41.372890472412102

>  <r_i_glide_erotb>  (1426) 
0.88033796849446699

>  <r_i_glide_esite>  (1426) 
-0.14503821156296101

>  <r_i_glide_evdw>  (1426) 
-36.718799591064503

>  <r_i_glide_gscore>  (1426) 
-4.3978356832346304

>  <r_i_glide_hbond>  (1426) 
-0.16

>  <r_i_glide_ligand_efficiency>  (1426) 
-0.137432365101082

>  <r_i_glide_ligand_efficiency_ln>  (1426) 
-0.984795289949293

>  <r_i_glide_ligand_efficiency_sa>  (1426) 
-0.436320561367813

>  <r_i_glide_lipo>  (1426) 
-1.86945417299845

>  <r_i_glide_metal>  (1426) 
-0

>  <r_i_glide_rewards>  (1426) 
-0.56962765541230898

>  <r_lp_Energy>  (1426) 
52.202342999999999

>  <r_lp_tautomer_probability>  (1426) 
1

>  <r_qp_ACxDN^.5/SA>  (1426) 
0.0088696000000000001

>  <r_qp_CIQPlogS>  (1426) 
-6.6630000000000003

>  <r_qp_EA(eV)>  (1426) 
0.93300000000000005

>  <r_qp_FISA>  (1426) 
74.863

>  <r_qp_FOSA>  (1426) 
185.63900000000001

>  <r_qp_IP(eV)>  (1426) 
8.6379999999999999

>  <r_qp_Jm>  (1426) 
0.115665405317702

>  <r_qp_PISA>  (1426) 
444.15199999999999

>  <r_qp_PSA>  (1426) 
65.469999999999999

>  <r_qp_PercentHumanOralAbsorption>  (1426) 
100

>  <r_qp_QPPCaco>  (1426) 
1931.835

>  <r_qp_QPPMDCK>  (1426) 
1007.975

>  <r_qp_QPlogBB>  (1426) 
-0.52800000000000002

>  <r_qp_QPlogHERG>  (1426) 
-6.4550000000000001

>  <r_qp_QPlogKhsa>  (1426) 
0.72899999999999998

>  <r_qp_QPlogKp>  (1426) 
-0.75900000000000001

>  <r_qp_QPlogPC16>  (1426) 
14.369

>  <r_qp_QPlogPo/w>  (1426) 
4.9710000000000001

>  <r_qp_QPlogPoct>  (1426) 
21.527999999999999

>  <r_qp_QPlogPw>  (1426) 
11.243

>  <r_qp_QPlogS>  (1426) 
-5.806

>  <r_qp_QPpolrz>  (1426) 
47.137999999999998

>  <r_qp_SASA>  (1426) 
704.65499999999997

>  <r_qp_SAamideO>  (1426) 
0

>  <r_qp_SAfluorine>  (1426) 
0

>  <r_qp_WPSA>  (1426) 
0

>  <r_qp_accptHB>  (1426) 
6.25

>  <r_qp_dip^2/V>  (1426) 
0.070246400000000001

>  <r_qp_dipole>  (1426) 
9.6359999999999992

>  <r_qp_donorHB>  (1426) 
1

>  <r_qp_glob>  (1426) 
0.82665679999999997

>  <r_qp_mol_MW>  (1426) 
424.49799999999999

>  <r_qp_volume>  (1426) 
1321.9190000000001

>  <r_sd_BIOSOLVEIT.INFINISEE\_FTREES\_SIMILARITY>  (1426) 
0.90700000000000003

>  <r_sd_BIOSOLVEIT.LOGP>  (1426) 
5.4423199999999996

>  <r_sd_BIOSOLVEIT.MOLECULAR\_WEIGHT>  (1426) 
424.49799999999999

>  <r_sd_BIOSOLVEIT.TPSA>  (1426) 
58.640000000000001

>  <i_epik_Tot_Q>  (1426) 
0

>  <i_epik_Tot_abs_Q>  (1426) 
0

>  <i_f3d_flags>  (1426) 
0

>  <i_i_glide_confnum>  (1426) 
10

>  <i_i_glide_lignum>  (1426) 
100

>  <i_i_glide_posenum>  (1426) 
8

>  <i_i_glide_rotatable_bonds>  (1426) 
8

>  <i_lp_mmshare_version>  (1426) 
65135

>  <i_m_ct_format>  (1426) 
2

>  <i_m_source_file_index>  (1426) 
112

>  <i_qp_#NandO>  (1426) 
5

>  <i_qp_#acid>  (1426) 
0

>  <i_qp_#amide>  (1426) 
0

>  <i_qp_#amidine>  (1426) 
0

>  <i_qp_#amine>  (1426) 
0

>  <i_qp_#in34>  (1426) 
0

>  <i_qp_#in56>  (1426) 
22

>  <i_qp_#metab>  (1426) 
4

>  <i_qp_#nonHatm>  (1426) 
32

>  <i_qp_#noncon>  (1426) 
0

>  <i_qp_#ringatoms>  (1426) 
22

>  <i_qp_#rotor>  (1426) 
6

>  <i_qp_#rtvFG>  (1426) 
0

>  <i_qp_#stars>  (1426) 
0

>  <i_qp_CNS>  (1426) 
0

>  <i_qp_HumanOralAbsorption>  (1426) 
3

>  <i_qp_RuleOfFive>  (1426) 
0

>  <i_qp_RuleOfThree>  (1426) 
1

>  <i_sd_BIOSOLVEIT.INFINISEE\_RESULT\_RANK>  (1426) 
60147

>  <i_sd_version>  (1426) 
0

>  <b_lp_Chiralities_Consistent>  (1426) 
1

>  <b_sd_chiral_flag>  (1426) 
0

>  <canonical_id>  (1426) 
ATP-HTVS-E0849D225AC7

>  <compound_code>  (1426) 
3554

>  <title>  (1426) 
YAT_R021a____OTV1262439____OTV0133160093____OTV999670

>  <variant>  (1426) 
3554-1

>  <source_file>  (1426) 
运行/运行/ATP-VSW/ATP-VSW-DOCK_HTVS_1-002_lib.maegz

>  <canonical_smiles>  (1426) 
Cc1ccc(NC(=O)COc2ccc3ccccc3c2C(=O)N(C)c2ccccc2)cc1

>  <scaffold>  (1426) 
O=C(COc1ccc2ccccc2c1C(=O)Nc1ccccc1)Nc1ccccc1

>  <molecular_formula>  (1426) 
C27H24N2O3

$$$$
ATP-HTVS-E08CF4D489F1
     RDKit          3D

 56 59  0  0  0  0  0  0  0  0999 V2000
  196.8654  187.4169  156.6597 Cl  0  0  0  0  0  0  0  0  0  0  0  0
  197.2128  185.7987  156.1945 C   0  0  0  0  0  0  0  0  0  0  0  0
  197.3516  185.4680  154.8372 C   0  0  0  0  0  0  0  0  0  0  0  0
  197.6082  184.1351  154.4620 C   0  0  0  0  0  0  0  0  0  0  0  0
  197.7386  183.1052  155.4301 C   0  0  0  0  0  0  0  0  0  0  0  0
  197.5898  183.4623  156.7970 C   0  0  0  0  0  0  0  0  0  0  0  0
  197.3312  184.7996  157.1769 C   0  0  0  0  0  0  0  0  0  0  0  0
  198.0143  181.7036  155.0165 C   0  0  0  0  0  0  0  0  0  0  0  0
  198.2226  180.6293  155.8651 N   0  0  0  0  0  0  0  0  0  0  0  0
  198.4410  179.5353  155.1470 C   0  0  0  0  0  0  0  0  0  0  0  0
  198.3018  179.8970  153.8575 N   0  0  0  0  0  0  0  0  0  0  0  0
  198.3802  178.9912  152.8177 N   0  0  0  0  0  0  0  0  0  0  0  0
  197.9786  179.1435  151.6290 C   0  0  0  0  0  0  0  0  0  0  0  0
  198.2717  178.1109  150.6078 C   0  0  0  0  0  0  0  0  0  0  0  0
  197.8300  178.3683  149.3107 C   0  0  0  0  0  0  0  0  0  0  0  0
  198.0407  177.4400  148.2694 C   0  0  0  0  0  0  0  0  0  0  0  0
  198.7392  176.2382  148.5086 C   0  0  0  0  0  0  0  0  0  0  0  0
  199.2225  175.9705  149.7966 C   0  0  0  0  0  0  0  0  0  0  0  0
  198.9875  176.8838  150.8457 C   0  0  0  0  0  0  0  0  0  0  0  0
  198.0861  181.2604  153.7225 C   0  0  0  0  0  0  0  0  0  0  0  0
  198.7127  178.3082  155.6841 N   0  0  0  0  0  0  0  0  0  0  0  0
  199.8197  177.4465  155.5130 C   0  0  0  0  0  0  0  0  0  0  0  0
  200.3360  176.7498  156.6331 C   0  0  0  0  0  0  0  0  0  0  0  0
  201.4157  175.8245  156.4951 C   0  0  0  0  0  0  0  0  0  0  0  0
  201.9694  175.5575  155.2131 C   0  0  0  0  0  0  0  0  0  0  0  0
  202.9609  174.5604  155.0519 N   0  0  0  0  0  0  0  0  0  0  0  0
  203.3874  174.1692  153.6952 C   0  0  1  0  0  0  0  0  0  0  0  0
  202.2869  173.4280  152.8839 C   0  0  1  0  0  0  0  0  0  0  0  0
  201.8292  172.2551  153.6341 N   0  0  2  0  0  0  0  0  0  0  0  0
  201.5089  176.2923  154.1243 C   0  0  0  0  0  0  0  0  0  0  0  0
  200.4871  177.2404  154.2557 C   0  0  0  0  0  0  0  0  0  0  0  0
  201.0851  171.7895  153.1521 H   0  0  0  0  0  0  0  0  0  0  0  0
  201.5233  172.5301  154.5536 H   0  0  0  0  0  0  0  0  0  0  0  0
  197.2491  186.2262  154.0782 H   0  0  0  0  0  0  0  0  0  0  0  0
  197.7010  183.9126  153.4108 H   0  0  0  0  0  0  0  0  0  0  0  0
  197.6675  182.7058  157.5714 H   0  0  0  0  0  0  0  0  0  0  0  0
  197.2124  185.0419  158.2204 H   0  0  0  0  0  0  0  0  0  0  0  0
  197.4124  180.0470  151.2882 H   0  0  0  0  0  0  0  0  0  0  0  0
  197.2959  179.2835  149.1168 H   0  0  0  0  0  0  0  0  0  0  0  0
  197.6552  177.6571  147.2923 H   0  0  0  0  0  0  0  0  0  0  0  0
  198.8900  175.5321  147.6973 H   0  0  0  0  0  0  0  0  0  0  0  0
  199.7562  175.0414  149.9736 H   0  0  0  0  0  0  0  0  0  0  0  0
  199.3630  176.5629  151.8044 H   0  0  0  0  0  0  0  0  0  0  0  0
  197.9889  181.7863  152.7973 H   0  0  0  0  0  0  0  0  0  0  0  0
  198.2937  178.1721  156.6097 H   0  0  0  0  0  0  0  0  0  0  0  0
  199.8963  176.8920  157.6150 H   0  0  0  0  0  0  0  0  0  0  0  0
  201.7866  175.2642  157.3569 H   0  0  0  0  0  0  0  0  0  0  0  0
  203.5356  174.3217  155.8544 H   0  0  0  0  0  0  0  0  0  0  0  0
  203.7675  175.0272  153.1239 H   0  0  0  0  0  0  0  0  0  0  0  0
  204.2510  173.5060  153.8166 H   0  0  0  0  0  0  0  0  0  0  0  0
  201.3701  174.0035  152.7072 H   0  0  0  0  0  0  0  0  0  0  0  0
  202.6501  173.1353  151.8950 H   0  0  0  0  0  0  0  0  0  0  0  0
  201.8742  176.1862  153.1198 H   0  0  0  0  0  0  0  0  0  0  0  0
  200.2973  177.7259  153.3121 H   0  0  0  0  0  0  0  0  0  0  0  0
  202.5621  171.5446  153.7470 H   0  0  0  0  0  0  0  0  0  0  0  0
  198.1736  180.6454  156.8830 H   0  0  0  0  0  0  0  0  0  0  0  0
  1  2  1  0
  2  3  1  0
  2  7  2  0
  3  4  2  0
  3 34  1  0
  4  5  1  0
  4 35  1  0
  5  6  2  0
  5  8  1  0
  6  7  1  0
  6 36  1  0
  7 37  1  0
  8  9  1  0
  8 20  2  0
  9 10  2  0
  9 56  1  0
 10 11  1  0
 10 21  1  0
 11 12  1  0
 11 20  1  0
 12 13  2  0
 13 14  1  0
 13 38  1  0
 14 15  2  0
 14 19  1  0
 15 16  1  0
 15 39  1  0
 16 17  2  0
 16 40  1  0
 17 18  1  0
 17 41  1  0
 18 19  2  0
 18 42  1  0
 19 43  1  0
 20 44  1  0
 21 22  1  0
 21 45  1  0
 22 23  1  0
 22 31  2  0
 23 24  2  0
 23 46  1  0
 24 25  1  0
 24 47  1  0
 25 26  1  0
 25 30  2  0
 26 27  1  0
 26 48  1  0
 27 28  1  0
 27 49  1  6
 27 50  1  0
 28 29  1  0
 28 51  1  6
 28 52  1  0
 29 32  1  6
 29 33  1  0
 29 55  1  0
 30 31  1  0
 30 53  1  0
 31 54  1  0
M  CHG  2   9   1  29   1
M  END
>  <s_epik_Chemistry_Notes>  (1427) 
This compound has an imine and may undergo hydrolysis.

>  <s_epik_cmdline>  (1427) 
J2VwaWtfcHl0aG9uJywgJy1waCcsICc3LjAwMDAwMCcsICctcGh0JywgJzIuMDAwMDAwJywgJy1tcycsICcxNicsICctdG4nLCAnOCcsICctbWEnLCAnMjAwJywgJy1pbWFlJywgJzxpbmZpbGUubWFlPicsICctb21hZScsICc8b3V0ZmlsZS5tYWU+Jw==

>  <s_epik_input>  (1427) 
W05IMl1bQ0gyXVtDSDJdW05IXWMoW2NIXVtjSF0xKVtjSF1bY0hdYzFbTkhdYyhuYzItYyhbY0hdW2NIXTMpW2NIXVtjSF1jM0NsKW4oW2NIXTIpL049W0NIXS9jNFtjSF1bY0hdW2NIXVtjSF1bY0hdNA==

>  <s_i_glide_gridfile>  (1427) 
ATP-Grid

>  <s_lp_Force_Field>  (1427) 
OPLS_2005

>  <s_lp_Variant>  (1427) 
rxn102c____EMOL49832880____EMOL27484968-1

>  <s_lp_label>  (1427) 
2358_sdstereoexpander_1_neutralizer_1_epik_1_stereoizer_1

>  <s_m_source_file>  (1427) 
ATP-VSW-LIGPREP-003-in.maegz

>  <s_sd_BIOSOLVEIT.INFINISEE\_QUERY\_NAME>  (1427) 
Ref-Lig

>  <s_sd_BIOSOLVEIT.INFINISEE\_QUERY\_SMILES>  (1427) 
S(c1nc2c(cc1C[NH2+]Cc3ccc(cc3)C[NH+](C)C)cccc2)Cc4ccccc4

>  <s_sd_BIOSOLVEIT.INFINISEE\_REACTION\_NAME>  (1427) 
rxn102c

>  <s_sd_BIOSOLVEIT.INFINISEE\_REAGENT1\_NAME>  (1427) 
EMOL49832880

>  <s_sd_BIOSOLVEIT.INFINISEE\_REAGENT1\_SMILES>  (1427) 
Clc1ccc(NCCN)cc1

>  <s_sd_BIOSOLVEIT.INFINISEE\_REAGENT2\_NAME>  (1427) 
EMOL27484968

>  <s_sd_BIOSOLVEIT.INFINISEE\_REAGENT2\_SMILES>  (1427) 
Clc1ccc(cc1)C=2N=C(N(N=Cc3ccccc3)C2)N

>  <s_sd_BIOSOLVEIT.INFINISEE\_SPACE>  (1427) 
eXplore_7tr_2022-12

>  <s_vsw_compound_code>  (1427) 
75427

>  <s_vsw_variant>  (1427) 
75427-1

>  <r_epik_Charging_Adjusted_Penalty>  (1427) 
0.344920690874638

>  <r_epik_Ionization_Penalty>  (1427) 
0.34510000000000002

>  <r_epik_Ionization_Penalty_Charging>  (1427) 
0.00040000000000000002

>  <r_epik_Ionization_Penalty_Neutral>  (1427) 
0.34470000000000001

>  <r_epik_State_Penalty>  (1427) 
0.34460000000000002

>  <r_i_docking_score>  (1427) 
-5.31324249686981

>  <r_i_glide_ecoul>  (1427) 
-11.8954267501831

>  <r_i_glide_eff_state_penalty>  (1427) 
0.34460000000000002

>  <r_i_glide_einternal>  (1427) 
17.511703491210898

>  <r_i_glide_emodel>  (1427) 
-61.080546938626703

>  <r_i_glide_energy>  (1427) 
-43.483653068542502

>  <r_i_glide_erotb>  (1427) 
0.74326415059566397

>  <r_i_glide_esite>  (1427) 
-0.31585026340554501

>  <r_i_glide_evdw>  (1427) 
-31.5882263183594

>  <r_i_glide_gscore>  (1427) 
-5.6578424968698098

>  <r_i_glide_hbond>  (1427) 
-0.40000000000000002

>  <r_i_glide_ligand_efficiency>  (1427) 
-0.17139491925386499

>  <r_i_glide_ligand_efficiency_ln>  (1427) 
-1.1982990143713701

>  <r_i_glide_ligand_efficiency_sa>  (1427) 
-0.53841668264597098

>  <r_i_glide_lipo>  (1427) 
-1.56143866955774

>  <r_i_glide_metal>  (1427) 
-0

>  <r_i_glide_rewards>  (1427) 
-0.760092386056754

>  <r_lp_Energy>  (1427) 
39.887726999999998

>  <r_qp_ACxDN^.5/SA>  (1427) 
0.013663399999999999

>  <r_qp_CIQPlogS>  (1427) 
-5.806

>  <r_qp_EA(eV)>  (1427) 
1.016

>  <r_qp_FISA>  (1427) 
94.308000000000007

>  <r_qp_FOSA>  (1427) 
101.32599999999999

>  <r_qp_IP(eV)>  (1427) 
7.4349999999999996

>  <r_qp_Jm>  (1427) 
0.0012356179764888601

>  <r_qp_PISA>  (1427) 
537.74400000000003

>  <r_qp_PSA>  (1427) 
72.641000000000005

>  <r_qp_PercentHumanOralAbsorption>  (1427) 
100

>  <r_qp_QPPCaco>  (1427) 
315.11799999999999

>  <r_qp_QPPMDCK>  (1427) 
388.04300000000001

>  <r_qp_QPlogBB>  (1427) 
-0.52100000000000002

>  <r_qp_QPlogHERG>  (1427) 
-8.8610000000000007

>  <r_qp_QPlogKhsa>  (1427) 
0.67100000000000004

>  <r_qp_QPlogKp>  (1427) 
-2.5619999999999998

>  <r_qp_QPlogPC16>  (1427) 
17.373999999999999

>  <r_qp_QPlogPo/w>  (1427) 
4.8559999999999999

>  <r_qp_QPlogPoct>  (1427) 
26.186

>  <r_qp_QPlogPw>  (1427) 
15.272

>  <r_qp_QPlogS>  (1427) 
-5.9809999999999999

>  <r_qp_QPpolrz>  (1427) 
49.079999999999998

>  <r_qp_SASA>  (1427) 
805.072

>  <r_qp_SAamideO>  (1427) 
0

>  <r_qp_SAfluorine>  (1427) 
0

>  <r_qp_WPSA>  (1427) 
71.694000000000003

>  <r_qp_accptHB>  (1427) 
5.5

>  <r_qp_dip^2/V>  (1427) 
0.059747099999999997

>  <r_qp_dipole>  (1427) 
9.1340000000000003

>  <r_qp_donorHB>  (1427) 
4

>  <r_qp_glob>  (1427) 
0.75041800000000003

>  <r_qp_mol_MW>  (1427) 
430.93900000000002

>  <r_qp_volume>  (1427) 
1396.2380000000001

>  <r_sd_BIOSOLVEIT.INFINISEE\_FTREES\_SIMILARITY>  (1427) 
0.92000000000000004

>  <r_sd_BIOSOLVEIT.LOGP>  (1427) 
4.4831000000000003

>  <r_sd_BIOSOLVEIT.MOLECULAR\_WEIGHT>  (1427) 
431.94900000000001

>  <r_sd_BIOSOLVEIT.TPSA>  (1427) 
81.879999999999995

>  <i_epik_Tot_Q>  (1427) 
2

>  <i_epik_Tot_abs_Q>  (1427) 
2

>  <i_f3d_flags>  (1427) 
0

>  <i_i_glide_confnum>  (1427) 
5

>  <i_i_glide_lignum>  (1427) 
986

>  <i_i_glide_posenum>  (1427) 
3

>  <i_i_glide_rotatable_bonds>  (1427) 
8

>  <i_lp_mmshare_version>  (1427) 
65135

>  <i_m_ct_format>  (1427) 
2

>  <i_m_source_file_index>  (1427) 
2358

>  <i_qp_#NandO>  (1427) 
6

>  <i_qp_#acid>  (1427) 
0

>  <i_qp_#amide>  (1427) 
0

>  <i_qp_#amidine>  (1427) 
0

>  <i_qp_#amine>  (1427) 
1

>  <i_qp_#in34>  (1427) 
0

>  <i_qp_#in56>  (1427) 
23

>  <i_qp_#metab>  (1427) 
5

>  <i_qp_#nonHatm>  (1427) 
31

>  <i_qp_#noncon>  (1427) 
0

>  <i_qp_#ringatoms>  (1427) 
23

>  <i_qp_#rotor>  (1427) 
9

>  <i_qp_#rtvFG>  (1427) 
0

>  <i_qp_#stars>  (1427) 
2

>  <i_qp_CNS>  (1427) 
0

>  <i_qp_HumanOralAbsorption>  (1427) 
3

>  <i_qp_RuleOfFive>  (1427) 
0

>  <i_qp_RuleOfThree>  (1427) 
1

>  <i_sd_BIOSOLVEIT.INFINISEE\_RESULT\_RANK>  (1427) 
16623

>  <i_sd_version>  (1427) 
0

>  <b_lp_Chiralities_Consistent>  (1427) 
1

>  <b_sd_chiral_flag>  (1427) 
0

>  <canonical_id>  (1427) 
ATP-HTVS-E08CF4D489F1

>  <compound_code>  (1427) 
75427

>  <title>  (1427) 
rxn102c____EMOL49832880____EMOL27484968

>  <variant>  (1427) 
75427-1

>  <source_file>  (1427) 
运行/运行/ATP-VSW/ATP-VSW-DOCK_HTVS_1-003_lib/ATP-VSW-DOCK_HTVS_1-003_lib.mae

>  <canonical_smiles>  (1427) 
[NH3+]CCNc1ccc(Nc2[nH+]c(-c3ccc(Cl)cc3)cn2/N=C/c2ccccc2)cc1

>  <scaffold>  (1427) 
C(=Nn1cc(-c2ccccc2)[nH+]c1Nc1ccccc1)c1ccccc1

>  <molecular_formula>  (1427) 
C24H25ClN6+2

$$$$
ATP-HTVS-E08F75BAC913
     RDKit          3D

 64 67  0  0  0  0  0  0  0  0999 V2000
  203.1355  178.8004  148.0195 F   0  0  0  0  0  0  0  0  0  0  0  0
  201.9102  178.9509  148.5751 C   0  0  0  0  0  0  0  0  0  0  0  0
  200.7582  178.7282  147.7981 C   0  0  0  0  0  0  0  0  0  0  0  0
  199.4664  178.8764  148.3621 C   0  0  0  0  0  0  0  0  0  0  0  0
  199.3589  179.2471  149.7163 C   0  0  0  0  0  0  0  0  0  0  0  0
  200.5112  179.4472  150.5156 C   0  0  0  0  0  0  0  0  0  0  0  0
  201.7914  179.3140  149.9286 C   0  0  0  0  0  0  0  0  0  0  0  0
  200.3275  179.8468  151.9559 C   0  0  0  0  0  0  0  0  0  0  0  0
  199.3455  180.5180  152.2708 O   0  0  0  0  0  0  0  0  0  0  0  0
  201.2454  179.3822  152.8324 N   0  0  0  0  0  0  0  0  0  0  0  0
  201.1291  179.3534  154.2555 C   0  0  0  0  0  0  0  0  0  0  0  0
  200.9715  180.5345  155.0406 C   0  0  0  0  0  0  0  0  0  0  0  0
  200.8361  181.8051  154.4352 N   0  0  0  0  0  0  0  0  0  0  0  0
  200.2600  182.9692  155.1285 C   0  0  1  0  0  0  0  0  0  0  0  0
  199.0363  182.7588  156.0226 C   0  0  0  0  0  0  0  0  0  0  0  0
  198.8893  183.5394  157.1868 C   0  0  0  0  0  0  0  0  0  0  0  0
  197.8009  183.3443  158.0625 C   0  0  0  0  0  0  0  0  0  0  0  0
  196.8411  182.3533  157.7796 C   0  0  0  0  0  0  0  0  0  0  0  0
  196.9709  181.5857  156.6030 C   0  0  0  0  0  0  0  0  0  0  0  0
  198.0518  181.7934  155.7225 C   0  0  0  0  0  0  0  0  0  0  0  0
  195.7086  182.0767  158.7500 C   0  0  1  0  0  0  0  0  0  0  0  0
  194.3829  182.3794  158.1471 N   0  0  2  0  0  0  0  0  0  0  0  0
  193.7997  183.6463  158.6400 C   0  0  2  0  0  0  0  0  0  0  0  0
  193.4326  181.2523  158.2373 C   0  0  2  0  0  0  0  0  0  0  0  0
  200.9433  180.3788  156.4517 C   0  0  0  0  0  0  0  0  0  0  0  0
  201.0008  179.1989  157.0765 N   0  0  0  0  0  0  0  0  0  0  0  0
  201.1210  178.0863  156.3470 C   0  0  0  0  0  0  0  0  0  0  0  0
  201.2137  178.0970  154.9254 C   0  0  0  0  0  0  0  0  0  0  0  0
  201.3722  176.8744  154.2269 C   0  0  0  0  0  0  0  0  0  0  0  0
  201.4375  175.6560  154.9383 C   0  0  0  0  0  0  0  0  0  0  0  0
  201.3492  175.6509  156.3381 C   0  0  0  0  0  0  0  0  0  0  0  0
  201.1692  176.8589  157.0250 C   0  0  0  0  0  0  0  0  0  0  0  0
  198.2262  178.6430  147.5715 C   0  0  0  0  0  0  0  0  0  0  0  0
  197.0906  178.6126  148.0542 O   0  0  0  0  0  0  0  0  0  0  0  0
  198.4964  178.4869  146.2668 O   0  0  0  0  0  0  0  0  0  0  0  0
  197.4644  178.2393  145.3395 C   0  0  2  0  0  0  0  0  0  0  0  0
  200.8983  178.4310  146.7652 H   0  0  0  0  0  0  0  0  0  0  0  0
  198.3806  179.3754  150.1501 H   0  0  0  0  0  0  0  0  0  0  0  0
  202.6920  179.4926  150.4990 H   0  0  0  0  0  0  0  0  0  0  0  0
  201.9406  178.7705  152.4564 H   0  0  0  0  0  0  0  0  0  0  0  0
  200.8107  181.8128  153.4343 H   0  0  0  0  0  0  0  0  0  0  0  0
  201.0524  183.3979  155.7251 H   0  0  0  0  0  0  0  0  0  0  0  0
  199.9902  183.7099  154.3768 H   0  0  0  0  0  0  0  0  0  0  0  0
  199.6360  184.2783  157.4496 H   0  0  0  0  0  0  0  0  0  0  0  0
  197.7313  183.9251  158.9751 H   0  0  0  0  0  0  0  0  0  0  0  0
  196.2666  180.7919  156.3963 H   0  0  0  0  0  0  0  0  0  0  0  0
  198.1576  181.1715  154.8473 H   0  0  0  0  0  0  0  0  0  0  0  0
  195.7854  181.0405  159.0785 H   0  0  0  0  0  0  0  0  0  0  0  0
  195.8553  182.6405  159.6765 H   0  0  0  0  0  0  0  0  0  0  0  0
  193.6131  183.6291  159.7141 H   0  0  0  0  0  0  0  0  0  0  0  0
  192.8459  183.8215  158.1459 H   0  0  0  0  0  0  0  0  0  0  0  0
  194.4562  184.4921  158.4247 H   0  0  0  0  0  0  0  0  0  0  0  0
  193.1981  181.0079  159.2736 H   0  0  0  0  0  0  0  0  0  0  0  0
  193.8575  180.3695  157.7626 H   0  0  0  0  0  0  0  0  0  0  0  0
  192.5069  181.4811  157.7052 H   0  0  0  0  0  0  0  0  0  0  0  0
  200.8461  181.2031  157.1634 H   0  0  0  0  0  0  0  0  0  0  0  0
  201.4342  176.8350  153.1487 H   0  0  0  0  0  0  0  0  0  0  0  0
  201.5304  174.7076  154.4215 H   0  0  0  0  0  0  0  0  0  0  0  0
  201.3992  174.7263  156.8929 H   0  0  0  0  0  0  0  0  0  0  0  0
  201.0885  176.8635  158.1040 H   0  0  0  0  0  0  0  0  0  0  0  0
  197.8998  178.1831  144.3423 H   0  0  0  0  0  0  0  0  0  0  0  0
  196.7383  179.0385  145.3209 H   0  0  0  0  0  0  0  0  0  0  0  0
  196.9576  177.3016  145.5761 H   0  0  0  0  0  0  0  0  0  0  0  0
  194.4939  182.5114  157.1409 H   0  0  0  0  0  0  0  0  0  0  0  0
  1  2  1  0
  2  3  2  0
  2  7  1  0
  3  4  1  0
  3 37  1  0
  4  5  2  0
  4 33  1  0
  5  6  1  0
  5 38  1  0
  6  7  2  0
  6  8  1  0
  7 39  1  0
  8  9  2  0
  8 10  1  0
 10 11  1  0
 10 40  1  0
 11 12  2  0
 11 28  1  0
 12 13  1  0
 12 25  1  0
 13 14  1  0
 13 41  1  0
 14 15  1  0
 14 42  1  1
 14 43  1  0
 15 16  1  0
 15 20  2  0
 16 17  2  0
 16 44  1  0
 17 18  1  0
 17 45  1  0
 18 19  2  0
 18 21  1  0
 19 20  1  0
 19 46  1  0
 20 47  1  0
 21 22  1  0
 21 48  1  1
 21 49  1  0
 22 23  1  0
 22 24  1  0
 22 64  1  6
 23 50  1  1
 23 51  1  0
 23 52  1  0
 24 53  1  1
 24 54  1  0
 24 55  1  0
 25 26  2  0
 25 56  1  0
 26 27  1  0
 27 28  1  0
 27 32  2  0
 28 29  2  0
 29 30  1  0
 29 57  1  0
 30 31  2  0
 30 58  1  0
 31 32  1  0
 31 59  1  0
 32 60  1  0
 33 34  2  0
 33 35  1  0
 35 36  1  0
 36 61  1  6
 36 62  1  0
 36 63  1  0
M  CHG  1  22   1
M  END
>  <s_epik_Chemistry_Notes>  (1428) 
This compound has an ester and may undergo hydrolysis at high or low pH.

>  <s_epik_cmdline>  (1428) 
J2VwaWtfcHl0aG9uJywgJy1waCcsICc3LjAwMDAwMCcsICctcGh0JywgJzIuMDAwMDAwJywgJy1tcycsICcxNicsICctdG4nLCAnOCcsICctbWEnLCAnMjAwJywgJy1pbWFlJywgJzxpbmZpbGUubWFlPicsICctb21hZScsICc8b3V0ZmlsZS5tYWU+Jw==

>  <s_epik_input>  (1428) 
RmMxW2NIXWMoQyg9TylPW0NIM10pW2NIXWMoW2NIXTEpQyg9TylbTkhdYyhjKGMyMylbY0hdW2NIXVtjSF1bY0hdMyljKFtjSF1uMilbTkhdW0NIMl1jNFtjSF1bY0hdYyhbY0hdW2NIXTQpW0NIMl1OKFtDSDNdKVtDSDNd

>  <s_i_glide_gridfile>  (1428) 
ATP-Grid

>  <s_lp_Force_Field>  (1428) 
OPLS_2005

>  <s_lp_Variant>  (1428) 
rxn502b____EMOL2730723____EMOL13728749____EMOL50155899-1

>  <s_lp_label>  (1428) 
2536_sdstereoexpander_1_neutralizer_1_epik_1_stereoizer_1

>  <s_m_source_file>  (1428) 
ATP-VSW-LIGPREP-002-in.maegz

>  <s_sd_BIOSOLVEIT.INFINISEE\_QUERY\_NAME>  (1428) 
Ref-Lig

>  <s_sd_BIOSOLVEIT.INFINISEE\_QUERY\_SMILES>  (1428) 
S(c1nc2c(cc1C[NH2+]Cc3ccc(cc3)C[NH+](C)C)cccc2)Cc4ccccc4

>  <s_sd_BIOSOLVEIT.INFINISEE\_REACTION\_NAME>  (1428) 
rxn502b

>  <s_sd_BIOSOLVEIT.INFINISEE\_REAGENT1\_NAME>  (1428) 
EMOL2730723

>  <s_sd_BIOSOLVEIT.INFINISEE\_REAGENT1\_SMILES>  (1428) 
Fc1cc(cc(c1)C(=O)O)C(=O)OC

>  <s_sd_BIOSOLVEIT.INFINISEE\_REAGENT2\_NAME>  (1428) 
EMOL13728749

>  <s_sd_BIOSOLVEIT.INFINISEE\_REAGENT2\_SMILES>  (1428) 
Brc1c(N)c2c(nc1)cccc2

>  <s_sd_BIOSOLVEIT.INFINISEE\_REAGENT3\_NAME>  (1428) 
EMOL50155899

>  <s_sd_BIOSOLVEIT.INFINISEE\_REAGENT3\_SMILES>  (1428) 
N(Cc1ccc(cc1)CN)(C)C

>  <s_sd_BIOSOLVEIT.INFINISEE\_SPACE>  (1428) 
eXplore_7tr_2022-12

>  <s_vsw_compound_code>  (1428) 
81122

>  <s_vsw_variant>  (1428) 
81122-1

>  <r_epik_Charging_Adjusted_Penalty>  (1428) 
0.11763899382156499

>  <r_epik_Ionization_Penalty>  (1428) 
0.0785

>  <r_epik_Ionization_Penalty_Charging>  (1428) 
0.039199999999999999

>  <r_epik_Ionization_Penalty_Neutral>  (1428) 
0.039300000000000002

>  <r_epik_State_Penalty>  (1428) 
0.078399999999999997

>  <r_i_docking_score>  (1428) 
-3.0024595811924701

>  <r_i_glide_ecoul>  (1428) 
-6.7756824493408203

>  <r_i_glide_eff_state_penalty>  (1428) 
0.078399999999999997

>  <r_i_glide_einternal>  (1428) 
3.7948963642120401

>  <r_i_glide_emodel>  (1428) 
-46.824402824560302

>  <r_i_glide_energy>  (1428) 
-38.101835250854499

>  <r_i_glide_erotb>  (1428) 
0.68422620515914501

>  <r_i_glide_esite>  (1428) 
-0.10000000000000001

>  <r_i_glide_evdw>  (1428) 
-31.3261528015137

>  <r_i_glide_gscore>  (1428) 
-3.0808595811924699

>  <r_i_glide_hbond>  (1428) 
-0.17773415469534201

>  <r_i_glide_ligand_efficiency>  (1428) 
-0.083401655033124203

>  <r_i_glide_ligand_efficiency_ln>  (1428) 
-0.65505556353254701

>  <r_i_glide_ligand_efficiency_sa>  (1428) 
-0.27538619702783201

>  <r_i_glide_lipo>  (1428) 
-0.75354889258798097

>  <r_i_glide_metal>  (1428) 
-0

>  <r_i_glide_rewards>  (1428) 
-0.151142731591485

>  <r_lp_Energy>  (1428) 
35.640647999999999

>  <r_qp_ACxDN^.5/SA>  (1428) 
0.015901100000000001

>  <r_qp_CIQPlogS>  (1428) 
-5.9279999999999999

>  <r_qp_EA(eV)>  (1428) 
1.1419999999999999

>  <r_qp_FISA>  (1428) 
112.348

>  <r_qp_FOSA>  (1428) 
257.84399999999999

>  <r_qp_IP(eV)>  (1428) 
8.3569999999999993

>  <r_qp_Jm>  (1428) 
0.0027278236048773699

>  <r_qp_PISA>  (1428) 
338.96100000000001

>  <r_qp_PSA>  (1428) 
91.882000000000005

>  <r_qp_PercentHumanOralAbsorption>  (1428) 
91.805999999999997

>  <r_qp_QPPCaco>  (1428) 
212.52199999999999

>  <r_qp_QPPMDCK>  (1428) 
185.232

>  <r_qp_QPlogBB>  (1428) 
-0.52500000000000002

>  <r_qp_QPlogHERG>  (1428) 
-6.8220000000000001

>  <r_qp_QPlogKhsa>  (1428) 
0.52100000000000002

>  <r_qp_QPlogKp>  (1428) 
-3.6909999999999998

>  <r_qp_QPlogPC16>  (1428) 
14.943

>  <r_qp_QPlogPo/w>  (1428) 
3.9630000000000001

>  <r_qp_QPlogPoct>  (1428) 
24.501999999999999

>  <r_qp_QPlogPw>  (1428) 
14.162000000000001

>  <r_qp_QPlogS>  (1428) 
-4.5609999999999999

>  <r_qp_QPpolrz>  (1428) 
49.796999999999997

>  <r_qp_SASA>  (1428) 
755.97400000000005

>  <r_qp_SAamideO>  (1428) 
0

>  <r_qp_SAfluorine>  (1428) 
46.820999999999998

>  <r_qp_WPSA>  (1428) 
46.820999999999998

>  <r_qp_accptHB>  (1428) 
8.5

>  <r_qp_dip^2/V>  (1428) 
0.0105351

>  <r_qp_dipole>  (1428) 
3.9020000000000001

>  <r_qp_donorHB>  (1428) 
2

>  <r_qp_glob>  (1428) 
0.81786499999999995

>  <r_qp_mol_MW>  (1428) 
486.54500000000002

>  <r_qp_volume>  (1428) 
1445.556

>  <r_sd_BIOSOLVEIT.INFINISEE\_FTREES\_SIMILARITY>  (1428) 
0.91300000000000003

>  <r_sd_BIOSOLVEIT.LOGP>  (1428) 
3.6694

>  <r_sd_BIOSOLVEIT.MOLECULAR\_WEIGHT>  (1428) 
487.55200000000002

>  <r_sd_BIOSOLVEIT.TPSA>  (1428) 
84.760000000000005

>  <i_epik_Tot_Q>  (1428) 
1

>  <i_epik_Tot_abs_Q>  (1428) 
1

>  <i_f3d_flags>  (1428) 
0

>  <i_i_glide_confnum>  (1428) 
8

>  <i_i_glide_lignum>  (1428) 
1119

>  <i_i_glide_posenum>  (1428) 
2

>  <i_i_glide_rotatable_bonds>  (1428) 
10

>  <i_lp_mmshare_version>  (1428) 
65135

>  <i_m_ct_format>  (1428) 
2

>  <i_m_source_file_index>  (1428) 
2536

>  <i_qp_#NandO>  (1428) 
7

>  <i_qp_#acid>  (1428) 
0

>  <i_qp_#amide>  (1428) 
0

>  <i_qp_#amidine>  (1428) 
0

>  <i_qp_#amine>  (1428) 
1

>  <i_qp_#in34>  (1428) 
0

>  <i_qp_#in56>  (1428) 
22

>  <i_qp_#metab>  (1428) 
6

>  <i_qp_#nonHatm>  (1428) 
36

>  <i_qp_#noncon>  (1428) 
0

>  <i_qp_#ringatoms>  (1428) 
22

>  <i_qp_#rotor>  (1428) 
8

>  <i_qp_#rtvFG>  (1428) 
1

>  <i_qp_#stars>  (1428) 
0

>  <i_qp_CNS>  (1428) 
1

>  <i_qp_HumanOralAbsorption>  (1428) 
3

>  <i_qp_RuleOfFive>  (1428) 
0

>  <i_qp_RuleOfThree>  (1428) 
0

>  <i_sd_BIOSOLVEIT.INFINISEE\_RESULT\_RANK>  (1428) 
34115

>  <i_sd_version>  (1428) 
0

>  <b_lp_Chiralities_Consistent>  (1428) 
1

>  <b_sd_chiral_flag>  (1428) 
0

>  <canonical_id>  (1428) 
ATP-HTVS-E08F75BAC913

>  <compound_code>  (1428) 
81122

>  <title>  (1428) 
rxn502b____EMOL2730723____EMOL13728749____EMOL50155899

>  <variant>  (1428) 
81122-1

>  <source_file>  (1428) 
运行/运行/ATP-VSW/ATP-VSW-DOCK_HTVS_1-002_lib.maegz

>  <canonical_smiles>  (1428) 
COC(=O)c1cc(F)cc(C(=O)Nc2c(NCc3ccc(C[NH+](C)C)cc3)cnc3ccccc23)c1

>  <scaffold>  (1428) 
O=C(Nc1c(NCc2ccccc2)cnc2ccccc12)c1ccccc1

>  <molecular_formula>  (1428) 
C28H28FN4O3+

$$$$
ATP-HTVS-E0D09F3A28CB
     RDKit          3D

 58 61  0  0  0  0  0  0  0  0999 V2000
  200.2415  184.1615  159.4947 N   0  0  0  0  0  0  0  0  0  0  0  0
  199.1852  184.0892  159.0272 C   0  0  0  0  0  0  0  0  0  0  0  0
  197.8415  183.9985  158.4348 C   0  0  2  0  0  0  0  0  0  0  0  0
  197.8636  184.3445  156.9510 C   0  0  0  0  0  0  0  0  0  0  0  0
  197.3934  183.3980  156.1138 N   0  0  0  0  0  0  0  0  0  0  0  0
  197.3097  183.6917  154.7946 C   0  0  0  0  0  0  0  0  0  0  0  0
  196.7470  182.7573  153.9288 N   0  0  0  0  0  0  0  0  0  0  0  0
  197.1186  181.3544  154.0360 C   0  0  1  0  0  0  0  0  0  0  0  0
  198.3818  181.0419  153.2386 C   0  0  0  0  0  0  0  0  0  0  0  0
  199.3634  180.1320  153.7069 C   0  0  0  0  0  0  0  0  0  0  0  0
  199.2340  179.4727  154.9383 N   0  0  0  0  0  0  0  0  0  0  0  0
  199.0540  178.0351  154.9756 C   0  0  1  0  0  0  0  0  0  0  0  0
  200.0278  177.3878  155.9694 C   0  0  1  0  0  0  0  0  0  0  0  0
  199.9974  178.0762  157.2878 N   0  0  2  0  0  0  0  0  0  0  0  0
  200.2793  179.5327  157.1455 C   0  0  1  0  0  0  0  0  0  0  0  0
  199.2640  180.1947  156.2011 C   0  0  1  0  0  0  0  0  0  0  0  0
  200.9393  177.4555  158.2430 C   0  0  2  0  0  0  0  0  0  0  0  0
  200.5008  179.8666  152.9079 C   0  0  0  0  0  0  0  0  0  0  0  0
  200.6679  180.5055  151.6636 C   0  0  0  0  0  0  0  0  0  0  0  0
  199.6963  181.4009  151.1972 C   0  0  0  0  0  0  0  0  0  0  0  0
  198.5597  181.6555  151.9758 C   0  0  0  0  0  0  0  0  0  0  0  0
  197.7413  184.9139  154.2553 C   0  0  0  0  0  0  0  0  0  0  0  0
  198.2787  185.8786  155.1186 C   0  0  0  0  0  0  0  0  0  0  0  0
  198.3347  185.5982  156.4987 C   0  0  0  0  0  0  0  0  0  0  0  0
  196.8150  184.8143  159.2112 C   0  0  0  0  0  0  0  0  0  0  0  0
  195.5181  184.2949  159.4097 C   0  0  0  0  0  0  0  0  0  0  0  0
  194.5593  185.0372  160.1261 C   0  0  0  0  0  0  0  0  0  0  0  0
  194.8881  186.3014  160.6491 C   0  0  0  0  0  0  0  0  0  0  0  0
  196.1786  186.8274  160.4518 C   0  0  0  0  0  0  0  0  0  0  0  0
  197.1375  186.0885  159.7329 C   0  0  0  0  0  0  0  0  0  0  0  0
  197.5641  182.9480  158.5348 H   0  0  0  0  0  0  0  0  0  0  0  0
  195.9104  183.0236  153.4155 H   0  0  0  0  0  0  0  0  0  0  0  0
  197.1941  181.0983  155.0906 H   0  0  0  0  0  0  0  0  0  0  0  0
  196.3141  180.7305  153.6488 H   0  0  0  0  0  0  0  0  0  0  0  0
  198.0310  177.8567  155.2966 H   0  0  0  0  0  0  0  0  0  0  0  0
  199.1677  177.5880  153.9891 H   0  0  0  0  0  0  0  0  0  0  0  0
  199.8176  176.3204  156.0744 H   0  0  0  0  0  0  0  0  0  0  0  0
  201.0336  177.4684  155.5512 H   0  0  0  0  0  0  0  0  0  0  0  0
  200.3263  180.0214  158.1191 H   0  0  0  0  0  0  0  0  0  0  0  0
  201.2791  179.6721  156.7307 H   0  0  0  0  0  0  0  0  0  0  0  0
  199.5031  181.2430  156.0260 H   0  0  0  0  0  0  0  0  0  0  0  0
  198.2795  180.1621  156.6709 H   0  0  0  0  0  0  0  0  0  0  0  0
  201.9543  177.5207  157.8632 H   0  0  0  0  0  0  0  0  0  0  0  0
  200.7397  176.3978  158.3979 H   0  0  0  0  0  0  0  0  0  0  0  0
  200.9126  177.9480  159.2172 H   0  0  0  0  0  0  0  0  0  0  0  0
  201.2559  179.1772  153.2626 H   0  0  0  0  0  0  0  0  0  0  0  0
  201.5510  180.3164  151.0717 H   0  0  0  0  0  0  0  0  0  0  0  0
  199.8186  181.8932  150.2462 H   0  0  0  0  0  0  0  0  0  0  0  0
  197.8163  182.3336  151.5894 H   0  0  0  0  0  0  0  0  0  0  0  0
  197.6739  185.0990  153.1918 H   0  0  0  0  0  0  0  0  0  0  0  0
  198.6464  186.8170  154.7279 H   0  0  0  0  0  0  0  0  0  0  0  0
  198.7337  186.3265  157.1846 H   0  0  0  0  0  0  0  0  0  0  0  0
  195.2509  183.3311  158.9980 H   0  0  0  0  0  0  0  0  0  0  0  0
  193.5620  184.6427  160.2525 H   0  0  0  0  0  0  0  0  0  0  0  0
  194.1467  186.8758  161.1841 H   0  0  0  0  0  0  0  0  0  0  0  0
  196.4324  187.8010  160.8466 H   0  0  0  0  0  0  0  0  0  0  0  0
  198.1227  186.5096  159.5949 H   0  0  0  0  0  0  0  0  0  0  0  0
  199.0377  177.9694  157.6475 H   0  0  0  0  0  0  0  0  0  0  0  0
  1  2  3  0
  2  3  1  0
  3  4  1  0
  3 25  1  0
  3 31  1  6
  4  5  1  0
  4 24  2  0
  5  6  2  0
  6  7  1  0
  6 22  1  0
  7  8  1  0
  7 32  1  0
  8  9  1  0
  8 33  1  1
  8 34  1  0
  9 10  1  0
  9 21  2  0
 10 11  1  0
 10 18  2  0
 11 12  1  0
 11 16  1  0
 12 13  1  0
 12 35  1  1
 12 36  1  0
 13 14  1  0
 13 37  1  1
 13 38  1  0
 14 15  1  0
 14 17  1  0
 14 58  1  1
 15 16  1  0
 15 39  1  1
 15 40  1  0
 16 41  1  6
 16 42  1  0
 17 43  1  6
 17 44  1  0
 17 45  1  0
 18 19  1  0
 18 46  1  0
 19 20  2  0
 19 47  1  0
 20 21  1  0
 20 48  1  0
 21 49  1  0
 22 23  2  0
 22 50  1  0
 23 24  1  0
 23 51  1  0
 24 52  1  0
 25 26  2  0
 25 30  1  0
 26 27  1  0
 26 53  1  0
 27 28  2  0
 27 54  1  0
 28 29  1  0
 28 55  1  0
 29 30  2  0
 29 56  1  0
 30 57  1  0
M  CHG  1  14   1
M  END
>  <s_epik_cmdline>  (1429) 
J2VwaWtfcHl0aG9uJywgJy1waCcsICc3LjAwMDAwMCcsICctcGh0JywgJzIuMDAwMDAwJywgJy1tcycsICcxNicsICctdG4nLCAnOCcsICctbWEnLCAnMjAwJywgJy1pbWFlJywgJzxpbmZpbGUubWFlPicsICctb21hZScsICc8b3V0ZmlsZS5tYWU+Jw==

>  <s_epik_input>  (1429) 
W2NIXTFbY0hdW2NIXVtjSF1bY0hdYzFbQ0BIXShDI04pYzJuYyhbY0hdW2NIXVtjSF0yKVtOSF1bQ0gyXWMzYyhbY0hdW2NIXVtjSF1bY0hdMylONFtDSDJdW0NIMl1OKFtDSDNdKVtDSDJdW0NIMl00

>  <s_i_glide_gridfile>  (1429) 
ATP-Grid

>  <s_lp_Force_Field>  (1429) 
OPLS_2005

>  <s_lp_Variant>  (1429) 
rxn102c____EMOL4852476____EMOL725234-2

>  <s_lp_label>  (1429) 
2927_sdstereoexpander_2_neutralizer_1_epik_1_stereoizer_1

>  <s_m_source_file>  (1429) 
ATP-VSW-LIGPREP-001-in.maegz

>  <s_sd_BIOSOLVEIT.INFINISEE\_QUERY\_NAME>  (1429) 
Ref-Lig

>  <s_sd_BIOSOLVEIT.INFINISEE\_QUERY\_SMILES>  (1429) 
S(c1nc2c(cc1C[NH2+]Cc3ccc(cc3)C[NH+](C)C)cccc2)Cc4ccccc4

>  <s_sd_BIOSOLVEIT.INFINISEE\_REACTION\_NAME>  (1429) 
rxn102c

>  <s_sd_BIOSOLVEIT.INFINISEE\_REAGENT1\_NAME>  (1429) 
EMOL4852476

>  <s_sd_BIOSOLVEIT.INFINISEE\_REAGENT1\_SMILES>  (1429) 
Clc1nc(ccc1)C(C#N)c2ccccc2

>  <s_sd_BIOSOLVEIT.INFINISEE\_REAGENT2\_NAME>  (1429) 
EMOL725234

>  <s_sd_BIOSOLVEIT.INFINISEE\_REAGENT2\_SMILES>  (1429) 
N1(c2c(cccc2)CN)CCN(CC1)C

>  <s_sd_BIOSOLVEIT.INFINISEE\_SPACE>  (1429) 
eXplore_7tr_2022-12

>  <s_vsw_compound_code>  (1429) 
93633

>  <s_vsw_variant>  (1429) 
93633-2

>  <r_epik_Charging_Adjusted_Penalty>  (1429) 
0.12949746992303099

>  <r_epik_Ionization_Penalty>  (1429) 
0.066199999999999995

>  <r_epik_Ionization_Penalty_Charging>  (1429) 
0.064699999999999994

>  <r_epik_Ionization_Penalty_Neutral>  (1429) 
0.0014

>  <r_epik_State_Penalty>  (1429) 
0.064699999999999994

>  <r_i_docking_score>  (1429) 
-4.9167101194801202

>  <r_i_glide_ecoul>  (1429) 
-9.7027206420898402

>  <r_i_glide_eff_state_penalty>  (1429) 
0.064699999999999994

>  <r_i_glide_einternal>  (1429) 
8.8237123489379901

>  <r_i_glide_emodel>  (1429) 
-52.038928334149801

>  <r_i_glide_energy>  (1429) 
-39.434280395507798

>  <r_i_glide_erotb>  (1429) 
0.73990867034457597

>  <r_i_glide_esite>  (1429) 
-0.17750969343273701

>  <r_i_glide_evdw>  (1429) 
-29.731559753418001

>  <r_i_glide_gscore>  (1429) 
-4.9814101194801204

>  <r_i_glide_hbond>  (1429) 
-0.34869330100240198

>  <r_i_glide_ligand_efficiency>  (1429) 
-0.163890337316004

>  <r_i_glide_ligand_efficiency_ln>  (1429) 
-1.1171301109934

>  <r_i_glide_ligand_efficiency_sa>  (1429) 
-0.50924538294268196

>  <r_i_glide_lipo>  (1429) 
-1.4419008772953901

>  <r_i_glide_metal>  (1429) 
-0

>  <r_i_glide_rewards>  (1429) 
-0.81122883410978697

>  <r_lp_Energy>  (1429) 
44.806201000000001

>  <r_lp_tautomer_probability>  (1429) 
0.99999977220005198

>  <r_qp_ACxDN^.5/SA>  (1429) 
0.0079454999999999994

>  <r_qp_CIQPlogS>  (1429) 
-6.0279999999999996

>  <r_qp_EA(eV)>  (1429) 
0.127

>  <r_qp_FISA>  (1429) 
75.959000000000003

>  <r_qp_FOSA>  (1429) 
245.97300000000001

>  <r_qp_IP(eV)>  (1429) 
8.3300000000000001

>  <r_qp_Jm>  (1429) 
0.00013726864899363299

>  <r_qp_PISA>  (1429) 
433.21199999999999

>  <r_qp_PSA>  (1429) 
54.668999999999997

>  <r_qp_PercentHumanOralAbsorption>  (1429) 
100

>  <r_qp_QPPCaco>  (1429) 
470.41899999999998

>  <r_qp_QPPMDCK>  (1429) 
242.22800000000001

>  <r_qp_QPlogBB>  (1429) 
-0.22

>  <r_qp_QPlogHERG>  (1429) 
-7.7949999999999999

>  <r_qp_QPlogKhsa>  (1429) 
0.86099999999999999

>  <r_qp_QPlogKp>  (1429) 
-2.8799999999999999

>  <r_qp_QPlogPC16>  (1429) 
14.756

>  <r_qp_QPlogPo/w>  (1429) 
4.742

>  <r_qp_QPlogPoct>  (1429) 
21.305

>  <r_qp_QPlogPw>  (1429) 
11.051

>  <r_qp_QPlogS>  (1429) 
-6.5819999999999999

>  <r_qp_QPpolrz>  (1429) 
48.488999999999997

>  <r_qp_SASA>  (1429) 
755.14400000000001

>  <r_qp_SAamideO>  (1429) 
0

>  <r_qp_SAfluorine>  (1429) 
0

>  <r_qp_WPSA>  (1429) 
0

>  <r_qp_accptHB>  (1429) 
6

>  <r_qp_dip^2/V>  (1429) 
0.042811599999999998

>  <r_qp_dipole>  (1429) 
7.6260000000000003

>  <r_qp_donorHB>  (1429) 
1

>  <r_qp_glob>  (1429) 
0.78547279999999997

>  <r_qp_mol_MW>  (1429) 
397.52199999999999

>  <r_qp_volume>  (1429) 
1358.2940000000001

>  <r_sd_BIOSOLVEIT.INFINISEE\_FTREES\_SIMILARITY>  (1429) 
0.90400000000000003

>  <r_sd_BIOSOLVEIT.LOGP>  (1429) 
2.6838799999999998

>  <r_sd_BIOSOLVEIT.MOLECULAR\_WEIGHT>  (1429) 
398.53100000000001

>  <r_sd_BIOSOLVEIT.TPSA>  (1429) 
56.390000000000001

>  <i_epik_Tot_Q>  (1429) 
1

>  <i_epik_Tot_abs_Q>  (1429) 
1

>  <i_f3d_flags>  (1429) 
0

>  <i_i_glide_confnum>  (1429) 
6

>  <i_i_glide_lignum>  (1429) 
1373

>  <i_i_glide_posenum>  (1429) 
12

>  <i_i_glide_rotatable_bonds>  (1429) 
6

>  <i_lp_mmshare_version>  (1429) 
65135

>  <i_m_ct_format>  (1429) 
2

>  <i_m_source_file_index>  (1429) 
2927

>  <i_qp_#NandO>  (1429) 
5

>  <i_qp_#acid>  (1429) 
0

>  <i_qp_#amide>  (1429) 
0

>  <i_qp_#amidine>  (1429) 
0

>  <i_qp_#amine>  (1429) 
1

>  <i_qp_#in34>  (1429) 
0

>  <i_qp_#in56>  (1429) 
24

>  <i_qp_#metab>  (1429) 
5

>  <i_qp_#nonHatm>  (1429) 
30

>  <i_qp_#noncon>  (1429) 
4

>  <i_qp_#ringatoms>  (1429) 
24

>  <i_qp_#rotor>  (1429) 
6

>  <i_qp_#rtvFG>  (1429) 
0

>  <i_qp_#stars>  (1429) 
1

>  <i_qp_CNS>  (1429) 
1

>  <i_qp_HumanOralAbsorption>  (1429) 
1

>  <i_qp_RuleOfFive>  (1429) 
0

>  <i_qp_RuleOfThree>  (1429) 
1

>  <i_sd_BIOSOLVEIT.INFINISEE\_RESULT\_RANK>  (1429) 
77746

>  <i_sd_version>  (1429) 
0

>  <b_lp_Chiralities_Consistent>  (1429) 
1

>  <b_sd_chiral_flag>  (1429) 
0

>  <canonical_id>  (1429) 
ATP-HTVS-E0D09F3A28CB

>  <compound_code>  (1429) 
93633

>  <title>  (1429) 
rxn102c____EMOL4852476____EMOL725234

>  <variant>  (1429) 
93633-2

>  <source_file>  (1429) 
运行/运行/ATP-VSW/ATP-VSW-DOCK_HTVS_1-001_lib/ATP-VSW-DOCK_HTVS_1-001_lib

>  <canonical_smiles>  (1429) 
C[NH+]1CCN(c2ccccc2CNc2cccc([C@@H](C#N)c3ccccc3)n2)CC1

>  <scaffold>  (1429) 
c1ccc(Cc2cccc(NCc3ccccc3N3CC[NH2+]CC3)n2)cc1

>  <molecular_formula>  (1429) 
C25H28N5+

$$$$
ATP-HTVS-E0E8748999A4
     RDKit          3D

 60 63  0  0  0  0  0  0  0  0999 V2000
  193.5979  186.6652  161.7132 Cl  0  0  0  0  0  0  0  0  0  0  0  0
  194.6448  185.9699  160.5341 C   0  0  0  0  0  0  0  0  0  0  0  0
  195.6714  186.7057  160.0557 N   0  0  0  0  0  0  0  0  0  0  0  0
  196.4804  186.1513  159.1293 C   0  0  0  0  0  0  0  0  0  0  0  0
  196.3239  184.8257  158.6652 C   0  0  0  0  0  0  0  0  0  0  0  0
  195.2510  184.0641  159.1588 C   0  0  0  0  0  0  0  0  0  0  0  0
  194.3964  184.6517  160.1046 C   0  0  0  0  0  0  0  0  0  0  0  0
  197.6143  187.0278  158.6170 C   0  0  1  0  0  0  0  0  0  0  0  0
  197.5475  187.2038  157.0867 C   0  0  0  0  0  0  0  0  0  0  0  0
  196.4696  187.4376  156.5335 O   0  0  0  0  0  0  0  0  0  0  0  0
  198.7059  187.0834  156.4098 N   0  0  0  0  0  0  0  0  0  0  0  0
  198.8572  187.2111  155.0008 C   0  0  0  0  0  0  0  0  0  0  0  0
  198.4708  186.1617  154.1195 C   0  0  0  0  0  0  0  0  0  0  0  0
  197.9048  184.9545  154.5786 N   0  0  0  0  0  0  0  0  0  0  0  0
  197.4617  183.9079  153.6615 C   0  0  1  0  0  0  0  0  0  0  0  0
  197.8318  182.5070  154.0859 C   0  0  0  0  0  0  0  0  0  0  0  0
  196.9741  181.7637  154.9205 C   0  0  0  0  0  0  0  0  0  0  0  0
  197.3372  180.4570  155.3057 C   0  0  0  0  0  0  0  0  0  0  0  0
  198.5472  179.8864  154.8569 C   0  0  0  0  0  0  0  0  0  0  0  0
  199.3894  180.6310  154.0004 C   0  0  0  0  0  0  0  0  0  0  0  0
  199.0310  181.9369  153.6214 C   0  0  0  0  0  0  0  0  0  0  0  0
  198.9717  178.5092  155.3423 C   0  0  1  0  0  0  0  0  0  0  0  0
  199.5507  178.5256  156.7070 N   0  0  2  0  0  0  0  0  0  0  0  0
  200.5429  179.6013  156.9554 C   0  0  2  0  0  0  0  0  0  0  0  0
  200.0870  177.2051  157.0908 C   0  0  2  0  0  0  0  0  0  0  0  0
  198.7049  186.3756  152.7334 C   0  0  0  0  0  0  0  0  0  0  0  0
  199.3056  187.4661  152.2347 N   0  0  0  0  0  0  0  0  0  0  0  0
  199.6846  188.4451  153.0648 C   0  0  0  0  0  0  0  0  0  0  0  0
  199.4843  188.3774  154.4720 C   0  0  0  0  0  0  0  0  0  0  0  0
  199.9007  189.4695  155.2793 C   0  0  0  0  0  0  0  0  0  0  0  0
  200.4891  190.6160  154.6898 C   0  0  0  0  0  0  0  0  0  0  0  0
  200.6846  190.6751  153.2971 C   0  0  0  0  0  0  0  0  0  0  0  0
  200.2864  189.5865  152.5049 C   0  0  0  0  0  0  0  0  0  0  0  0
  196.9939  184.3990  157.9330 H   0  0  0  0  0  0  0  0  0  0  0  0
  195.0863  183.0514  158.8178 H   0  0  0  0  0  0  0  0  0  0  0  0
  193.5502  184.1112  160.4945 H   0  0  0  0  0  0  0  0  0  0  0  0
  197.5882  188.0088  159.0999 H   0  0  0  0  0  0  0  0  0  0  0  0
  198.5514  186.5585  158.9205 H   0  0  0  0  0  0  0  0  0  0  0  0
  199.5551  187.0482  156.9523 H   0  0  0  0  0  0  0  0  0  0  0  0
  197.5134  184.9352  155.5127 H   0  0  0  0  0  0  0  0  0  0  0  0
  196.3793  183.9580  153.5543 H   0  0  0  0  0  0  0  0  0  0  0  0
  197.8622  184.0112  152.6488 H   0  0  0  0  0  0  0  0  0  0  0  0
  196.0368  182.1809  155.2618 H   0  0  0  0  0  0  0  0  0  0  0  0
  196.6968  179.8902  155.9699 H   0  0  0  0  0  0  0  0  0  0  0  0
  200.3260  180.2145  153.6487 H   0  0  0  0  0  0  0  0  0  0  0  0
  199.6753  182.5048  152.9635 H   0  0  0  0  0  0  0  0  0  0  0  0
  198.1071  177.8456  155.3507 H   0  0  0  0  0  0  0  0  0  0  0  0
  199.6892  178.0900  154.6347 H   0  0  0  0  0  0  0  0  0  0  0  0
  201.3935  179.5048  156.2764 H   0  0  0  0  0  0  0  0  0  0  0  0
  200.9255  179.5557  157.9758 H   0  0  0  0  0  0  0  0  0  0  0  0
  200.1163  180.5964  156.8293 H   0  0  0  0  0  0  0  0  0  0  0  0
  200.9279  176.9122  156.4587 H   0  0  0  0  0  0  0  0  0  0  0  0
  199.3063  176.4509  156.9989 H   0  0  0  0  0  0  0  0  0  0  0  0
  200.4270  177.2063  158.1282 H   0  0  0  0  0  0  0  0  0  0  0  0
  198.4232  185.6798  151.9590 H   0  0  0  0  0  0  0  0  0  0  0  0
  199.7596  189.4649  156.3568 H   0  0  0  0  0  0  0  0  0  0  0  0
  200.7830  191.4625  155.2964 H   0  0  0  0  0  0  0  0  0  0  0  0
  201.1237  191.5495  152.8294 H   0  0  0  0  0  0  0  0  0  0  0  0
  200.4225  189.6270  151.4337 H   0  0  0  0  0  0  0  0  0  0  0  0
  198.7562  178.6492  157.3317 H   0  0  0  0  0  0  0  0  0  0  0  0
  1  2  1  0
  2  3  2  0
  2  7  1  0
  3  4  1  0
  4  5  2  0
  4  8  1  0
  5  6  1  0
  5 34  1  0
  6  7  2  0
  6 35  1  0
  7 36  1  0
  8  9  1  0
  8 37  1  1
  8 38  1  0
  9 10  2  0
  9 11  1  0
 11 12  1  0
 11 39  1  0
 12 13  2  0
 12 29  1  0
 13 14  1  0
 13 26  1  0
 14 15  1  0
 14 40  1  0
 15 16  1  0
 15 41  1  6
 15 42  1  0
 16 17  1  0
 16 21  2  0
 17 18  2  0
 17 43  1  0
 18 19  1  0
 18 44  1  0
 19 20  2  0
 19 22  1  0
 20 21  1  0
 20 45  1  0
 21 46  1  0
 22 23  1  0
 22 47  1  1
 22 48  1  0
 23 24  1  0
 23 25  1  0
 23 60  1  1
 24 49  1  6
 24 50  1  0
 24 51  1  0
 25 52  1  6
 25 53  1  0
 25 54  1  0
 26 27  2  0
 26 55  1  0
 27 28  1  0
 28 29  1  0
 28 33  2  0
 29 30  2  0
 30 31  1  0
 30 56  1  0
 31 32  2  0
 31 57  1  0
 32 33  1  0
 32 58  1  0
 33 59  1  0
M  CHG  1  23   1
M  END
>  <s_epik_cmdline>  (1430) 
J2VwaWtfcHl0aG9uJywgJy1waCcsICc3LjAwMDAwMCcsICctcGh0JywgJzIuMDAwMDAwJywgJy1tcycsICcxNicsICctdG4nLCAnOCcsICctbWEnLCAnMjAwJywgJy1pbWFlJywgJzxpbmZpbGUubWFlPicsICctb21hZScsICc8b3V0ZmlsZS5tYWU+Jw==

>  <s_epik_input>  (1430) 
Q2xjMW5jKFtjSF1bY0hdW2NIXTEpW0NIMl1DKD1PKVtOSF1jKGMoYzIzKVtjSF1bY0hdW2NIXVtjSF0zKWMoW2NIXW4yKVtOSF1bQ0gyXWM0W2NIXVtjSF1jKFtjSF1bY0hdNClbQ0gyXU4oW0NIM10pW0NIM10=

>  <s_i_glide_gridfile>  (1430) 
ATP-Grid

>  <s_lp_Force_Field>  (1430) 
OPLS_2005

>  <s_lp_Variant>  (1430) 
rxn502b____EMOL4351685____EMOL13728749____EMOL50155899-1

>  <s_lp_label>  (1430) 
2590_sdstereoexpander_1_neutralizer_1_epik_1_stereoizer_1

>  <s_m_source_file>  (1430) 
ATP-VSW-LIGPREP-001-in.maegz

>  <s_sd_BIOSOLVEIT.INFINISEE\_QUERY\_NAME>  (1430) 
Ref-Lig

>  <s_sd_BIOSOLVEIT.INFINISEE\_QUERY\_SMILES>  (1430) 
S(c1nc2c(cc1C[NH2+]Cc3ccc(cc3)C[NH+](C)C)cccc2)Cc4ccccc4

>  <s_sd_BIOSOLVEIT.INFINISEE\_REACTION\_NAME>  (1430) 
rxn502b

>  <s_sd_BIOSOLVEIT.INFINISEE\_REAGENT1\_NAME>  (1430) 
EMOL4351685

>  <s_sd_BIOSOLVEIT.INFINISEE\_REAGENT1\_SMILES>  (1430) 
Clc1nc(ccc1)CC(=O)O

>  <s_sd_BIOSOLVEIT.INFINISEE\_REAGENT2\_NAME>  (1430) 
EMOL13728749

>  <s_sd_BIOSOLVEIT.INFINISEE\_REAGENT2\_SMILES>  (1430) 
Brc1c(N)c2c(nc1)cccc2

>  <s_sd_BIOSOLVEIT.INFINISEE\_REAGENT3\_NAME>  (1430) 
EMOL50155899

>  <s_sd_BIOSOLVEIT.INFINISEE\_REAGENT3\_SMILES>  (1430) 
N(Cc1ccc(cc1)CN)(C)C

>  <s_sd_BIOSOLVEIT.INFINISEE\_SPACE>  (1430) 
eXplore_7tr_2022-12

>  <s_vsw_compound_code>  (1430) 
82849

>  <s_vsw_variant>  (1430) 
82849-1

>  <r_epik_Charging_Adjusted_Penalty>  (1430) 
0.096687349815358203

>  <r_epik_Ionization_Penalty>  (1430) 
0.057500000000000002

>  <r_epik_Ionization_Penalty_Charging>  (1430) 
0.039199999999999999

>  <r_epik_Ionization_Penalty_Neutral>  (1430) 
0.0183

>  <r_epik_State_Penalty>  (1430) 
0.057500000000000002

>  <r_i_docking_score>  (1430) 
-4.7976800966728801

>  <r_i_glide_ecoul>  (1430) 
-9.2812833786010707

>  <r_i_glide_eff_state_penalty>  (1430) 
0.057500000000000002

>  <r_i_glide_einternal>  (1430) 
5.4166693687439

>  <r_i_glide_emodel>  (1430) 
-63.340500060184802

>  <r_i_glide_energy>  (1430) 
-46.922499656677203

>  <r_i_glide_erotb>  (1430) 
0.66318972102634199

>  <r_i_glide_esite>  (1430) 
-0.10000000000000001

>  <r_i_glide_evdw>  (1430) 
-37.6412162780762

>  <r_i_glide_gscore>  (1430) 
-4.8551800966728802

>  <r_i_glide_hbond>  (1430) 
-0.26576651974420101

>  <r_i_glide_ligand_efficiency>  (1430) 
-0.14538424535372399

>  <r_i_glide_ligand_efficiency_ln>  (1430) 
-1.0669792124419699

>  <r_i_glide_ligand_efficiency_sa>  (1430) 
-0.46632495746910202

>  <r_i_glide_lipo>  (1430) 
-1.44022591518096

>  <r_i_glide_metal>  (1430) 
-0

>  <r_i_glide_rewards>  (1430) 
-0.43812406208008797

>  <r_lp_Energy>  (1430) 
35.796061999999999

>  <r_qp_ACxDN^.5/SA>  (1430) 
0.014955599999999999

>  <r_qp_CIQPlogS>  (1430) 
-5.7869999999999999

>  <r_qp_EA(eV)>  (1430) 
0.85299999999999998

>  <r_qp_FISA>  (1430) 
59.993000000000002

>  <r_qp_FOSA>  (1430) 
210.98500000000001

>  <r_qp_IP(eV)>  (1430) 
8.1910000000000007

>  <r_qp_Jm>  (1430) 
0.114670079807642

>  <r_qp_PISA>  (1430) 
396.642

>  <r_qp_PSA>  (1430) 
66.230000000000004

>  <r_qp_PercentHumanOralAbsorption>  (1430) 
100

>  <r_qp_QPPCaco>  (1430) 
666.62900000000002

>  <r_qp_QPPMDCK>  (1430) 
596.61099999999999

>  <r_qp_QPlogBB>  (1430) 
0.014999999999999999

>  <r_qp_QPlogHERG>  (1430) 
-6.7400000000000002

>  <r_qp_QPlogKhsa>  (1430) 
0.52000000000000002

>  <r_qp_QPlogKp>  (1430) 
-2.5219999999999998

>  <r_qp_QPlogPC16>  (1430) 
14.832000000000001

>  <r_qp_QPlogPo/w>  (1430) 
4.306

>  <r_qp_QPlogPoct>  (1430) 
23.190999999999999

>  <r_qp_QPlogPw>  (1430) 
13.098000000000001

>  <r_qp_QPlogS>  (1430) 
-4.0810000000000004

>  <r_qp_QPpolrz>  (1430) 
47.206000000000003

>  <r_qp_SASA>  (1430) 
709.20799999999997

>  <r_qp_SAamideO>  (1430) 
0

>  <r_qp_SAfluorine>  (1430) 
0

>  <r_qp_WPSA>  (1430) 
41.588999999999999

>  <r_qp_accptHB>  (1430) 
7.5

>  <r_qp_dip^2/V>  (1430) 
0.029953799999999999

>  <r_qp_dipole>  (1430) 
6.399

>  <r_qp_donorHB>  (1430) 
2

>  <r_qp_glob>  (1430) 
0.83993499999999999

>  <r_qp_mol_MW>  (1430) 
459.97699999999998

>  <r_qp_volume>  (1430) 
1367.0409999999999

>  <r_sd_BIOSOLVEIT.INFINISEE\_FTREES\_SIMILARITY>  (1430) 
0.91100000000000003

>  <r_sd_BIOSOLVEIT.LOGP>  (1430) 
3.7210000000000001

>  <r_sd_BIOSOLVEIT.MOLECULAR\_WEIGHT>  (1430) 
460.98599999999999

>  <r_sd_BIOSOLVEIT.TPSA>  (1430) 
71.349999999999994

>  <i_epik_Tot_Q>  (1430) 
1

>  <i_epik_Tot_abs_Q>  (1430) 
1

>  <i_f3d_flags>  (1430) 
0

>  <i_i_glide_confnum>  (1430) 
7

>  <i_i_glide_lignum>  (1430) 
1070

>  <i_i_glide_posenum>  (1430) 
1

>  <i_i_glide_rotatable_bonds>  (1430) 
9

>  <i_lp_mmshare_version>  (1430) 
65135

>  <i_m_ct_format>  (1430) 
2

>  <i_m_source_file_index>  (1430) 
2590

>  <i_qp_#NandO>  (1430) 
6

>  <i_qp_#acid>  (1430) 
0

>  <i_qp_#amide>  (1430) 
0

>  <i_qp_#amidine>  (1430) 
0

>  <i_qp_#amine>  (1430) 
1

>  <i_qp_#in34>  (1430) 
0

>  <i_qp_#in56>  (1430) 
22

>  <i_qp_#metab>  (1430) 
7

>  <i_qp_#nonHatm>  (1430) 
33

>  <i_qp_#noncon>  (1430) 
0

>  <i_qp_#ringatoms>  (1430) 
22

>  <i_qp_#rotor>  (1430) 
8

>  <i_qp_#rtvFG>  (1430) 
0

>  <i_qp_#stars>  (1430) 
0

>  <i_qp_CNS>  (1430) 
1

>  <i_qp_HumanOralAbsorption>  (1430) 
3

>  <i_qp_RuleOfFive>  (1430) 
0

>  <i_qp_RuleOfThree>  (1430) 
1

>  <i_sd_BIOSOLVEIT.INFINISEE\_RESULT\_RANK>  (1430) 
40466

>  <i_sd_version>  (1430) 
0

>  <b_lp_Chiralities_Consistent>  (1430) 
1

>  <b_sd_chiral_flag>  (1430) 
0

>  <canonical_id>  (1430) 
ATP-HTVS-E0E8748999A4

>  <compound_code>  (1430) 
82849

>  <title>  (1430) 
rxn502b____EMOL4351685____EMOL13728749____EMOL50155899

>  <variant>  (1430) 
82849-1

>  <source_file>  (1430) 
运行/运行/ATP-VSW/ATP-VSW-DOCK_HTVS_1-001_lib/ATP-VSW-DOCK_HTVS_1-001_lib

>  <canonical_smiles>  (1430) 
C[NH+](C)Cc1ccc(CNc2cnc3ccccc3c2NC(=O)Cc2cccc(Cl)n2)cc1

>  <scaffold>  (1430) 
O=C(Cc1ccccn1)Nc1c(NCc2ccccc2)cnc2ccccc12

>  <molecular_formula>  (1430) 
C26H27ClN5O+

$$$$
ATP-HTVS-E124973F868C
     RDKit          3D

 63 66  0  0  0  0  0  0  0  0999 V2000
  200.9661  182.9225  158.2068 S   0  0  0  0  0  0  0  0  0  0  0  0
  202.5015  182.3963  158.8539 C   0  0  0  0  0  0  0  0  0  0  0  0
  202.9567  181.2299  158.1631 C   0  0  0  0  0  0  0  0  0  0  0  0
  204.2065  180.7137  158.5856 C   0  0  0  0  0  0  0  0  0  0  0  0
  204.9581  181.3040  159.6227 C   0  0  0  0  0  0  0  0  0  0  0  0
  204.4737  182.4472  160.2804 C   0  0  0  0  0  0  0  0  0  0  0  0
  203.2411  182.9966  159.8950 C   0  0  0  0  0  0  0  0  0  0  0  0
  202.0259  180.7946  157.1279 C   0  0  0  0  0  0  0  0  0  0  0  0
  202.3488  179.6456  156.3725 N   0  0  0  0  0  0  0  0  0  0  0  0
  201.3722  178.8338  155.6748 C   0  0  1  0  0  0  0  0  0  0  0  0
  201.8300  177.4098  155.4529 C   0  0  0  0  0  0  0  0  0  0  0  0
  202.8596  177.1194  154.5338 C   0  0  0  0  0  0  0  0  0  0  0  0
  203.2868  175.7907  154.3523 C   0  0  0  0  0  0  0  0  0  0  0  0
  202.6716  174.7438  155.0764 C   0  0  0  0  0  0  0  0  0  0  0  0
  201.6410  175.0418  155.9909 C   0  0  0  0  0  0  0  0  0  0  0  0
  201.2203  176.3676  156.1790 C   0  0  0  0  0  0  0  0  0  0  0  0
  203.0837  173.2947  154.8548 C   0  0  1  0  0  0  0  0  0  0  0  0
  202.3465  172.6435  153.7431 N   0  0  1  0  0  0  0  0  0  0  0  0
  200.8717  172.6905  153.8906 C   0  0  2  0  0  0  0  0  0  0  0  0
  202.7778  173.1007  152.4066 C   0  0  2  0  0  0  0  0  0  0  0  0
  200.9260  181.6327  157.0286 C   0  0  0  0  0  0  0  0  0  0  0  0
  199.7851  181.5772  156.0355 C   0  0  1  0  0  0  0  0  0  0  0  0
  198.4691  181.8540  156.6290 N   0  0  0  0  0  0  0  0  0  0  0  0
  198.0130  183.1267  156.7631 C   0  0  0  0  0  0  0  0  0  0  0  0
  198.5606  184.0735  156.1964 O   0  0  0  0  0  0  0  0  0  0  0  0
  196.8894  183.4091  157.7395 C   0  0  0  0  0  0  0  0  0  0  0  0
  196.9718  184.4405  158.7329 C   0  0  0  0  0  0  0  0  0  0  0  0
  198.1618  185.2894  158.9072 C   0  0  0  0  0  0  0  0  0  0  0  0
  199.1022  185.9522  159.0496 N   0  0  0  0  0  0  0  0  0  0  0  0
  195.8887  184.6621  159.6190 C   0  0  0  0  0  0  0  0  0  0  0  0
  195.9557  185.6475  160.5510 F   0  0  0  0  0  0  0  0  0  0  0  0
  194.7283  183.8720  159.5384 C   0  0  0  0  0  0  0  0  0  0  0  0
  194.6387  182.8647  158.5573 C   0  0  0  0  0  0  0  0  0  0  0  0
  195.6920  182.6534  157.6440 C   0  0  0  0  0  0  0  0  0  0  0  0
  197.7199  180.6374  156.9704 C   0  0  2  0  0  0  0  0  0  0  0  0
  204.6044  179.8392  158.0874 H   0  0  0  0  0  0  0  0  0  0  0  0
  205.9056  180.8768  159.9117 H   0  0  0  0  0  0  0  0  0  0  0  0
  205.0462  182.9059  161.0731 H   0  0  0  0  0  0  0  0  0  0  0  0
  202.8574  183.8809  160.3836 H   0  0  0  0  0  0  0  0  0  0  0  0
  203.1838  179.1398  156.6484 H   0  0  0  0  0  0  0  0  0  0  0  0
  200.4418  178.8012  156.2442 H   0  0  0  0  0  0  0  0  0  0  0  0
  201.1676  179.2745  154.7018 H   0  0  0  0  0  0  0  0  0  0  0  0
  203.3215  177.9228  153.9768 H   0  0  0  0  0  0  0  0  0  0  0  0
  204.0704  175.5795  153.6412 H   0  0  0  0  0  0  0  0  0  0  0  0
  201.1494  174.2511  156.5316 H   0  0  0  0  0  0  0  0  0  0  0  0
  200.4192  176.5858  156.8734 H   0  0  0  0  0  0  0  0  0  0  0  0
  204.1577  173.2513  154.6667 H   0  0  0  0  0  0  0  0  0  0  0  0
  202.9205  172.7255  155.7754 H   0  0  0  0  0  0  0  0  0  0  0  0
  200.4977  173.7169  153.8681 H   0  0  0  0  0  0  0  0  0  0  0  0
  200.5652  172.2405  154.8342 H   0  0  0  0  0  0  0  0  0  0  0  0
  200.3722  172.1585  153.0798 H   0  0  0  0  0  0  0  0  0  0  0  0
  202.5461  174.1577  152.2513 H   0  0  0  0  0  0  0  0  0  0  0  0
  202.2741  172.5369  151.6214 H   0  0  0  0  0  0  0  0  0  0  0  0
  203.8521  172.9600  152.2803 H   0  0  0  0  0  0  0  0  0  0  0  0
  199.9970  182.2609  155.2047 H   0  0  0  0  0  0  0  0  0  0  0  0
  199.7054  180.6006  155.5498 H   0  0  0  0  0  0  0  0  0  0  0  0
  193.9030  184.0455  160.2129 H   0  0  0  0  0  0  0  0  0  0  0  0
  193.7533  182.2513  158.4804 H   0  0  0  0  0  0  0  0  0  0  0  0
  195.5545  181.9164  156.8573 H   0  0  0  0  0  0  0  0  0  0  0  0
  197.2476  180.6949  157.9487 H   0  0  0  0  0  0  0  0  0  0  0  0
  198.3583  179.7348  156.9815 H   0  0  0  0  0  0  0  0  0  0  0  0
  196.9530  180.4648  156.2200 H   0  0  0  0  0  0  0  0  0  0  0  0
  202.6255  171.6592  153.7949 H   0  0  0  0  0  0  0  0  0  0  0  0
  1  2  1  0
  1 21  1  0
  2  3  1  0
  2  7  2  0
  3  4  2  0
  3  8  1  0
  4  5  1  0
  4 36  1  0
  5  6  2  0
  5 37  1  0
  6  7  1  0
  6 38  1  0
  7 39  1  0
  8  9  1  0
  8 21  2  0
  9 10  1  0
  9 40  1  0
 10 11  1  0
 10 41  1  1
 10 42  1  0
 11 12  1  0
 11 16  2  0
 12 13  2  0
 12 43  1  0
 13 14  1  0
 13 44  1  0
 14 15  2  0
 14 17  1  0
 15 16  1  0
 15 45  1  0
 16 46  1  0
 17 18  1  0
 17 47  1  6
 17 48  1  0
 18 19  1  0
 18 20  1  0
 18 63  1  6
 19 49  1  1
 19 50  1  0
 19 51  1  0
 20 52  1  6
 20 53  1  0
 20 54  1  0
 21 22  1  0
 22 23  1  0
 22 55  1  6
 22 56  1  0
 23 24  1  0
 23 35  1  0
 24 25  2  0
 24 26  1  0
 26 27  1  0
 26 34  2  0
 27 28  1  0
 27 30  2  0
 28 29  3  0
 30 31  1  0
 30 32  1  0
 32 33  2  0
 32 57  1  0
 33 34  1  0
 33 58  1  0
 34 59  1  0
 35 60  1  1
 35 61  1  0
 35 62  1  0
M  CHG  1  18   1
M  END
>  <s_epik_cmdline>  (1431) 
J2VwaWtfcHl0aG9uJywgJy1waCcsICc3LjAwMDAwMCcsICctcGh0JywgJzIuMDAwMDAwJywgJy1tcycsICcxNicsICctdG4nLCAnOCcsICctbWEnLCAnMjAwJywgJy1pbWFlJywgJzxpbmZpbGUubWFlPicsICctb21hZScsICc8b3V0ZmlsZS5tYWU+Jw==

>  <s_epik_input>  (1431) 
W2NIXTFbY0hdW2NIXWMoRiljKEMjTiljMUMoPU8pTihbQ0gzXSlbQ0gyXWMoczIpYyhjKGMyMylbY0hdW2NIXVtjSF1bY0hdMylbTkhdW0NIMl1jNFtjSF1bY0hdYyhbY0hdW2NIXTQpW0NIMl1OKFtDSDNdKVtDSDNd

>  <s_i_glide_gridfile>  (1431) 
ATP-Grid

>  <s_lp_Force_Field>  (1431) 
OPLS_2005

>  <s_lp_Variant>  (1431) 
rxn502c____EMOL44385606____EMOL49259969____EMOL50155899-1

>  <s_lp_label>  (1431) 
2373_sdstereoexpander_1_neutralizer_1_epik_1_stereoizer_1

>  <s_m_source_file>  (1431) 
ATP-VSW-LIGPREP-002-in.maegz

>  <s_sd_BIOSOLVEIT.INFINISEE\_QUERY\_NAME>  (1431) 
Ref-Lig

>  <s_sd_BIOSOLVEIT.INFINISEE\_QUERY\_SMILES>  (1431) 
S(c1nc2c(cc1C[NH2+]Cc3ccc(cc3)C[NH+](C)C)cccc2)Cc4ccccc4

>  <s_sd_BIOSOLVEIT.INFINISEE\_REACTION\_NAME>  (1431) 
rxn502c

>  <s_sd_BIOSOLVEIT.INFINISEE\_REAGENT1\_NAME>  (1431) 
EMOL44385606

>  <s_sd_BIOSOLVEIT.INFINISEE\_REAGENT1\_SMILES>  (1431) 
Fc1c(C#N)c(ccc1)C(=O)O

>  <s_sd_BIOSOLVEIT.INFINISEE\_REAGENT2\_NAME>  (1431) 
EMOL49259969

>  <s_sd_BIOSOLVEIT.INFINISEE\_REAGENT2\_SMILES>  (1431) 
ClC=1c2c(SC1CNC)cccc2

>  <s_sd_BIOSOLVEIT.INFINISEE\_REAGENT3\_NAME>  (1431) 
EMOL50155899

>  <s_sd_BIOSOLVEIT.INFINISEE\_REAGENT3\_SMILES>  (1431) 
N(Cc1ccc(cc1)CN)(C)C

>  <s_sd_BIOSOLVEIT.INFINISEE\_SPACE>  (1431) 
eXplore_7tr_2022-12

>  <s_vsw_compound_code>  (1431) 
75906

>  <s_vsw_variant>  (1431) 
75906-1

>  <r_epik_Charging_Adjusted_Penalty>  (1431) 
0.080189274810459593

>  <r_epik_Ionization_Penalty>  (1431) 
0.040099999999999997

>  <r_epik_Ionization_Penalty_Charging>  (1431) 
0.040099999999999997

>  <r_epik_Ionization_Penalty_Neutral>  (1431) 
0

>  <r_epik_State_Penalty>  (1431) 
0.040099999999999997

>  <r_i_docking_score>  (1431) 
-5.3852822103634503

>  <r_i_glide_ecoul>  (1431) 
-11.954080581665

>  <r_i_glide_eff_state_penalty>  (1431) 
0.040099999999999997

>  <r_i_glide_einternal>  (1431) 
4.7431826591491699

>  <r_i_glide_emodel>  (1431) 
-65.022992696373393

>  <r_i_glide_energy>  (1431) 
-46.687372207641602

>  <r_i_glide_erotb>  (1431) 
0.68405367091274105

>  <r_i_glide_esite>  (1431) 
-0.16267739775284601

>  <r_i_glide_evdw>  (1431) 
-34.733291625976598

>  <r_i_glide_gscore>  (1431) 
-5.4253822103634501

>  <r_i_glide_hbond>  (1431) 
-0.52000000000000002

>  <r_i_glide_ligand_efficiency>  (1431) 
-0.153865206010384

>  <r_i_glide_ligand_efficiency_ln>  (1431) 
-1.1821889650738699

>  <r_i_glide_ligand_efficiency_sa>  (1431) 
-0.50330329109432204

>  <r_i_glide_lipo>  (1431) 
-1.24426720817606

>  <r_i_glide_metal>  (1431) 
-0

>  <r_i_glide_rewards>  (1431) 
-0.65271460679869697

>  <r_lp_Energy>  (1431) 
36.320577999999998

>  <r_qp_ACxDN^.5/SA>  (1431) 
0.0088912999999999996

>  <r_qp_CIQPlogS>  (1431) 
-6.2629999999999999

>  <r_qp_EA(eV)>  (1431) 
0.88100000000000001

>  <r_qp_FISA>  (1431) 
87.552999999999997

>  <r_qp_FOSA>  (1431) 
272.00700000000001

>  <r_qp_IP(eV)>  (1431) 
7.8550000000000004

>  <r_qp_Jm>  (1431) 
5.1741154041180896e-06

>  <r_qp_PISA>  (1431) 
429.899

>  <r_qp_PSA>  (1431) 
67.236000000000004

>  <r_qp_PercentHumanOralAbsorption>  (1431) 
90.241

>  <r_qp_QPPCaco>  (1431) 
91.081999999999994

>  <r_qp_QPPMDCK>  (1431) 
89.852000000000004

>  <r_qp_QPlogBB>  (1431) 
-0.050000000000000003

>  <r_qp_QPlogHERG>  (1431) 
-8.8550000000000004

>  <r_qp_QPlogKhsa>  (1431) 
0.89500000000000002

>  <r_qp_QPlogKp>  (1431) 
-4.8799999999999999

>  <r_qp_QPlogPC16>  (1431) 
16.454000000000001

>  <r_qp_QPlogPo/w>  (1431) 
4.8209999999999997

>  <r_qp_QPlogPoct>  (1431) 
24.376999999999999

>  <r_qp_QPlogPw>  (1431) 
12.154999999999999

>  <r_qp_QPlogS>  (1431) 
-6.0940000000000003

>  <r_qp_QPpolrz>  (1431) 
53.722000000000001

>  <r_qp_SASA>  (1431) 
843.51999999999998

>  <r_qp_SAamideO>  (1431) 
0

>  <r_qp_SAfluorine>  (1431) 
40.875999999999998

>  <r_qp_WPSA>  (1431) 
54.061

>  <r_qp_accptHB>  (1431) 
7.5

>  <r_qp_dip^2/V>  (1431) 
0.061806

>  <r_qp_dipole>  (1431) 
9.75

>  <r_qp_donorHB>  (1431) 
1

>  <r_qp_glob>  (1431) 
0.76389609999999997

>  <r_qp_mol_MW>  (1431) 
486.60599999999999

>  <r_qp_volume>  (1431) 
1537.9670000000001

>  <r_sd_BIOSOLVEIT.INFINISEE\_FTREES\_SIMILARITY>  (1431) 
0.91900000000000004

>  <r_sd_BIOSOLVEIT.LOGP>  (1431) 
4.4408799999999999

>  <r_sd_BIOSOLVEIT.MOLECULAR\_WEIGHT>  (1431) 
487.61900000000003

>  <r_sd_BIOSOLVEIT.TPSA>  (1431) 
60.57

>  <i_epik_Tot_Q>  (1431) 
1

>  <i_epik_Tot_abs_Q>  (1431) 
1

>  <i_f3d_flags>  (1431) 
0

>  <i_i_glide_confnum>  (1431) 
10

>  <i_i_glide_lignum>  (1431) 
978

>  <i_i_glide_posenum>  (1431) 
15

>  <i_i_glide_rotatable_bonds>  (1431) 
9

>  <i_lp_mmshare_version>  (1431) 
65135

>  <i_m_ct_format>  (1431) 
2

>  <i_m_source_file_index>  (1431) 
2373

>  <i_qp_#NandO>  (1431) 
5

>  <i_qp_#acid>  (1431) 
0

>  <i_qp_#amide>  (1431) 
0

>  <i_qp_#amidine>  (1431) 
0

>  <i_qp_#amine>  (1431) 
2

>  <i_qp_#in34>  (1431) 
0

>  <i_qp_#in56>  (1431) 
21

>  <i_qp_#metab>  (1431) 
7

>  <i_qp_#nonHatm>  (1431) 
35

>  <i_qp_#noncon>  (1431) 
0

>  <i_qp_#ringatoms>  (1431) 
21

>  <i_qp_#rotor>  (1431) 
9

>  <i_qp_#rtvFG>  (1431) 
0

>  <i_qp_#stars>  (1431) 
1

>  <i_qp_CNS>  (1431) 
1

>  <i_qp_HumanOralAbsorption>  (1431) 
3

>  <i_qp_RuleOfFive>  (1431) 
0

>  <i_qp_RuleOfThree>  (1431) 
2

>  <i_sd_BIOSOLVEIT.INFINISEE\_RESULT\_RANK>  (1431) 
17889

>  <i_sd_version>  (1431) 
0

>  <b_lp_Chiralities_Consistent>  (1431) 
1

>  <b_sd_chiral_flag>  (1431) 
0

>  <canonical_id>  (1431) 
ATP-HTVS-E124973F868C

>  <compound_code>  (1431) 
75906

>  <title>  (1431) 
rxn502c____EMOL44385606____EMOL49259969____EMOL50155899

>  <variant>  (1431) 
75906-1

>  <source_file>  (1431) 
运行/运行/ATP-VSW/ATP-VSW-DOCK_HTVS_1-002_lib.maegz

>  <canonical_smiles>  (1431) 
CN(Cc1sc2ccccc2c1NCc1ccc(C[NH+](C)C)cc1)C(=O)c1cccc(F)c1C#N

>  <scaffold>  (1431) 
O=C(NCc1sc2ccccc2c1NCc1ccccc1)c1ccccc1

>  <molecular_formula>  (1431) 
C28H28FN4OS+

$$$$
ATP-HTVS-E14A9B461B4E
     RDKit          3D

 64 67  0  0  0  0  0  0  0  0999 V2000
  202.0572  175.4277  156.9289 F   0  0  0  0  0  0  0  0  0  0  0  0
  201.5524  175.8521  155.7485 C   0  0  0  0  0  0  0  0  0  0  0  0
  200.7770  177.0320  155.6924 C   0  0  0  0  0  0  0  0  0  0  0  0
  200.2458  177.4627  154.4445 C   0  0  0  0  0  0  0  0  0  0  0  0
  200.5064  176.6897  153.2888 C   0  0  0  0  0  0  0  0  0  0  0  0
  201.2864  175.5234  153.3560 C   0  0  0  0  0  0  0  0  0  0  0  0
  201.8090  175.1013  154.5882 C   0  0  0  0  0  0  0  0  0  0  0  0
  199.4100  178.6648  154.3169 C   0  0  0  0  0  0  0  0  0  0  0  0
  199.5134  179.4426  153.2453 N   0  0  0  0  0  0  0  0  0  0  0  0
  198.5916  180.4230  153.4060 N   0  0  0  0  0  0  0  0  0  0  0  0
  198.4060  181.4633  152.4276 C   0  0  0  0  0  0  0  0  0  0  0  0
  199.3341  182.2574  152.2954 O   0  0  0  0  0  0  0  0  0  0  0  0
  197.1252  181.5117  151.5365 C   0  0  1  0  0  0  0  0  0  0  0  0
  195.9756  181.8387  152.3550 N   0  0  0  0  0  0  0  0  0  0  0  0
  197.3011  182.5378  150.4009 C   0  0  0  0  0  0  0  0  0  0  0  0
  196.5938  183.7722  150.3864 C   0  0  0  0  0  0  0  0  0  0  0  0
  196.7534  184.6831  149.3270 C   0  0  0  0  0  0  0  0  0  0  0  0
  197.6287  184.3875  148.2697 C   0  0  0  0  0  0  0  0  0  0  0  0
  198.3519  183.1768  148.2742 C   0  0  0  0  0  0  0  0  0  0  0  0
  198.1857  182.2610  149.3311 C   0  0  0  0  0  0  0  0  0  0  0  0
  196.7901  180.1115  150.9730 C   0  0  2  0  0  0  0  0  0  0  0  0
  197.9414  180.3044  154.6279 C   0  0  0  0  0  0  0  0  0  0  0  0
  198.4093  179.1553  155.1981 C   0  0  0  0  0  0  0  0  0  0  0  0
  196.8868  181.2234  155.1765 C   0  0  1  0  0  0  0  0  0  0  0  0
  196.9677  181.4470  156.6972 C   0  0  1  0  0  0  0  0  0  0  0  0
  195.6505  181.8298  157.2511 N   0  0  1  0  0  0  0  0  0  0  0  0
  195.6390  182.0726  158.7059 C   0  0  1  0  0  0  0  0  0  0  0  0
  196.1087  183.4774  159.0399 C   0  0  0  0  0  0  0  0  0  0  0  0
  197.4884  183.7724  159.0887 C   0  0  0  0  0  0  0  0  0  0  0  0
  197.9228  185.0852  159.3475 C   0  0  0  0  0  0  0  0  0  0  0  0
  196.9820  186.1020  159.6039 C   0  0  0  0  0  0  0  0  0  0  0  0
  195.6053  185.8090  159.5778 C   0  0  0  0  0  0  0  0  0  0  0  0
  195.1678  184.5013  159.2866 C   0  0  0  0  0  0  0  0  0  0  0  0
  200.5560  177.8074  156.9864 C   0  0  2  0  0  0  0  0  0  0  0  0
  196.2820  181.9330  153.3154 H   0  0  0  0  0  0  0  0  0  0  0  0
  195.5901  182.7335  152.0894 H   0  0  0  0  0  0  0  0  0  0  0  0
  195.2425  182.6145  156.7537 H   0  0  0  0  0  0  0  0  0  0  0  0
  200.0939  176.9892  152.3338 H   0  0  0  0  0  0  0  0  0  0  0  0
  201.4788  174.9480  152.4652 H   0  0  0  0  0  0  0  0  0  0  0  0
  202.4125  174.2121  154.6486 H   0  0  0  0  0  0  0  0  0  0  0  0
  195.9165  184.0493  151.1790 H   0  0  0  0  0  0  0  0  0  0  0  0
  196.1982  185.6084  149.3185 H   0  0  0  0  0  0  0  0  0  0  0  0
  197.7470  185.0919  147.4590 H   0  0  0  0  0  0  0  0  0  0  0  0
  199.0265  182.9518  147.4580 H   0  0  0  0  0  0  0  0  0  0  0  0
  198.7503  181.3403  149.3112 H   0  0  0  0  0  0  0  0  0  0  0  0
  197.5750  179.7055  150.3321 H   0  0  0  0  0  0  0  0  0  0  0  0
  195.8752  180.1352  150.3805 H   0  0  0  0  0  0  0  0  0  0  0  0
  196.6279  179.3736  151.7583 H   0  0  0  0  0  0  0  0  0  0  0  0
  198.0706  178.7238  156.1306 H   0  0  0  0  0  0  0  0  0  0  0  0
  196.9561  182.2169  154.7354 H   0  0  0  0  0  0  0  0  0  0  0  0
  195.9206  180.8081  154.9015 H   0  0  0  0  0  0  0  0  0  0  0  0
  197.2974  180.5584  157.2323 H   0  0  0  0  0  0  0  0  0  0  0  0
  197.7275  182.2097  156.8790 H   0  0  0  0  0  0  0  0  0  0  0  0
  194.6155  181.9354  159.0633 H   0  0  0  0  0  0  0  0  0  0  0  0
  196.2464  181.3273  159.2237 H   0  0  0  0  0  0  0  0  0  0  0  0
  198.2230  182.9984  158.9187 H   0  0  0  0  0  0  0  0  0  0  0  0
  198.9796  185.3084  159.3613 H   0  0  0  0  0  0  0  0  0  0  0  0
  197.3209  187.1057  159.8250 H   0  0  0  0  0  0  0  0  0  0  0  0
  194.8829  186.5890  159.7677 H   0  0  0  0  0  0  0  0  0  0  0  0
  194.1071  184.2959  159.2446 H   0  0  0  0  0  0  0  0  0  0  0  0
  199.5796  177.5626  157.4079 H   0  0  0  0  0  0  0  0  0  0  0  0
  200.6077  178.8831  156.8144 H   0  0  0  0  0  0  0  0  0  0  0  0
  201.3103  177.5701  157.7367 H   0  0  0  0  0  0  0  0  0  0  0  0
  195.0447  181.0360  157.0966 H   0  0  0  0  0  0  0  0  0  0  0  0
  1  2  1  0
  2  3  2  0
  2  7  1  0
  3  4  1  0
  3 34  1  0
  4  5  2  0
  4  8  1  0
  5  6  1  0
  5 38  1  0
  6  7  2  0
  6 39  1  0
  7 40  1  0
  8  9  2  0
  8 23  1  0
  9 10  1  0
 10 11  1  0
 10 22  1  0
 11 12  2  0
 11 13  1  0
 13 14  1  1
 13 15  1  0
 13 21  1  0
 14 35  1  0
 14 36  1  0
 15 16  2  0
 15 20  1  0
 16 17  1  0
 16 41  1  0
 17 18  2  0
 17 42  1  0
 18 19  1  0
 18 43  1  0
 19 20  2  0
 19 44  1  0
 20 45  1  0
 21 46  1  6
 21 47  1  0
 21 48  1  0
 22 23  2  0
 22 24  1  0
 23 49  1  0
 24 25  1  0
 24 50  1  6
 24 51  1  0
 25 26  1  0
 25 52  1  1
 25 53  1  0
 26 27  1  0
 26 37  1  6
 26 64  1  0
 27 28  1  0
 27 54  1  1
 27 55  1  0
 28 29  2  0
 28 33  1  0
 29 30  1  0
 29 56  1  0
 30 31  2  0
 30 57  1  0
 31 32  1  0
 31 58  1  0
 32 33  2  0
 32 59  1  0
 33 60  1  0
 34 61  1  1
 34 62  1  0
 34 63  1  0
M  CHG  1  26   1
M  END
>  <s_epik_cmdline>  (1432) 
J2VwaWtfcHl0aG9uJywgJy1waCcsICc3LjAwMDAwMCcsICctcGh0JywgJzIuMDAwMDAwJywgJy1tcycsICcxNicsICctdG4nLCAnOCcsICctbWEnLCAnMjAwJywgJy1pbWFlJywgJzxpbmZpbGUubWFlPicsICctb21hZScsICc8b3V0ZmlsZS5tYWU+Jw==

>  <s_epik_input>  (1432) 
W2NIXTFbY0hdW2NIXVtjSF1bY0hdYzFbQ0BAXShbTkgyXSkoW0NIM10pQyg9TyluKG5jMi1jKGMoYzNGKVtDSDNdKVtjSF1bY0hdW2NIXTMpYyhbY0hdMilbQ0gyXVtDSDJdW05IXVtDSDJdYzRbY0hdW2NIXVtjSF1bY0hdW2NIXTQ=

>  <s_i_glide_gridfile>  (1432) 
ATP-Grid

>  <s_lp_Force_Field>  (1432) 
OPLS_2005

>  <s_lp_Variant>  (1432) 
Shen____49239300____25682261____40180766-2

>  <s_lp_label>  (1432) 
648_sdstereoexpander_2_neutralizer_1_epik_1_stereoizer_1

>  <s_m_source_file>  (1432) 
ATP-VSW-LIGPREP-001-in.maegz

>  <s_sd_BIOSOLVEIT.INFINISEE\_QUERY\_NAME>  (1432) 
Ref-Lig

>  <s_sd_BIOSOLVEIT.INFINISEE\_QUERY\_SMILES>  (1432) 
S(c1nc2c(cc1C[NH2+]Cc3ccc(cc3)C[NH+](C)C)cccc2)Cc4ccccc4

>  <s_sd_BIOSOLVEIT.INFINISEE\_REACTION\_NAME>  (1432) 
Shen

>  <s_sd_BIOSOLVEIT.INFINISEE\_REAGENT1\_SMILES>  (1432) 
O=C(CCNCc1ccccc1)C

>  <s_sd_BIOSOLVEIT.INFINISEE\_REAGENT2\_SMILES>  (1432) 
Fc1c(c(ccc1)C(=O)OCC)C

>  <s_sd_BIOSOLVEIT.INFINISEE\_REAGENT3\_SMILES>  (1432) 
O=C(NN)C(N)(c1ccccc1)C

>  <s_sd_BIOSOLVEIT.INFINISEE\_SPACE>  (1432) 
KnowledgeSpace_290tr_2019-05

>  <s_vsw_compound_code>  (1432) 
20705

>  <s_vsw_variant>  (1432) 
20705-2

>  <r_epik_Charging_Adjusted_Penalty>  (1432) 
0.065241008616714599

>  <r_epik_Ionization_Penalty>  (1432) 
0.035999999999999997

>  <r_epik_Ionization_Penalty_Charging>  (1432) 
0.0293

>  <r_epik_Ionization_Penalty_Neutral>  (1432) 
0.0067000000000000002

>  <r_epik_State_Penalty>  (1432) 
0.035999999999999997

>  <r_i_docking_score>  (1432) 
-6.2029762667687303

>  <r_i_glide_ecoul>  (1432) 
-9.7884683609008807

>  <r_i_glide_eff_state_penalty>  (1432) 
0.035999999999999997

>  <r_i_glide_einternal>  (1432) 
20.292097091674801

>  <r_i_glide_emodel>  (1432) 
-66.905475042759605

>  <r_i_glide_energy>  (1432) 
-48.847077369689899

>  <r_i_glide_erotb>  (1432) 
0.76826713990077899

>  <r_i_glide_esite>  (1432) 
-0.102297399779664

>  <r_i_glide_evdw>  (1432) 
-39.058609008789098

>  <r_i_glide_gscore>  (1432) 
-6.2389762667687299

>  <r_i_glide_hbond>  (1432) 
-0.19803006455577499

>  <r_i_glide_ligand_efficiency>  (1432) 
-0.182440478434374

>  <r_i_glide_ligand_efficiency_ln>  (1432) 
-1.3704114449201401

>  <r_i_glide_ligand_efficiency_sa>  (1432) 
-0.591036326271974

>  <r_i_glide_lipo>  (1432) 
-2.3213679854867602

>  <r_i_glide_metal>  (1432) 
-0

>  <r_i_glide_rewards>  (1432) 
-0.964347252272726

>  <r_lp_Energy>  (1432) 
31.015933

>  <r_qp_ACxDN^.5/SA>  (1432) 
0.012962

>  <r_qp_CIQPlogS>  (1432) 
-5.2080000000000002

>  <r_qp_EA(eV)>  (1432) 
0.72799999999999998

>  <r_qp_FISA>  (1432) 
66.600999999999999

>  <r_qp_FOSA>  (1432) 
189.482

>  <r_qp_IP(eV)>  (1432) 
9.3569999999999993

>  <r_qp_Jm>  (1432) 
0.00036192839482369801

>  <r_qp_PISA>  (1432) 
507.512

>  <r_qp_PSA>  (1432) 
66.819000000000003

>  <r_qp_PercentHumanOralAbsorption>  (1432) 
94.096000000000004

>  <r_qp_QPPCaco>  (1432) 
143.91999999999999

>  <r_qp_QPPMDCK>  (1432) 
120.548

>  <r_qp_QPlogBB>  (1432) 
0.24299999999999999

>  <r_qp_QPlogHERG>  (1432) 
-8.9600000000000009

>  <r_qp_QPlogKhsa>  (1432) 
0.95199999999999996

>  <r_qp_QPlogKp>  (1432) 
-4.3159999999999998

>  <r_qp_QPlogPC16>  (1432) 
16.5

>  <r_qp_QPlogPo/w>  (1432) 
4.8719999999999999

>  <r_qp_QPlogPoct>  (1432) 
25.254999999999999

>  <r_qp_QPlogPw>  (1432) 
14.106

>  <r_qp_QPlogS>  (1432) 
-4.7850000000000001

>  <r_qp_QPpolrz>  (1432) 
52.433999999999997

>  <r_qp_SASA>  (1432) 
801.75199999999995

>  <r_qp_SAamideO>  (1432) 
0

>  <r_qp_SAfluorine>  (1432) 
38.156999999999996

>  <r_qp_WPSA>  (1432) 
38.156999999999996

>  <r_qp_accptHB>  (1432) 
6

>  <r_qp_dip^2/V>  (1432) 
0.0028057999999999998

>  <r_qp_dipole>  (1432) 
2.032

>  <r_qp_donorHB>  (1432) 
3

>  <r_qp_glob>  (1432) 
0.7802673

>  <r_qp_mol_MW>  (1432) 
456.56200000000001

>  <r_qp_volume>  (1432) 
1471.22

>  <r_sd_BIOSOLVEIT.INFINISEE\_FTREES\_SIMILARITY>  (1432) 
0.91100000000000003

>  <r_sd_BIOSOLVEIT.LOGP>  (1432) 
3.1012200000000001

>  <r_sd_BIOSOLVEIT.MOLECULAR\_WEIGHT>  (1432) 
458.57799999999997

>  <r_sd_BIOSOLVEIT.TPSA>  (1432) 
79.140000000000001

>  <i_epik_Tot_Q>  (1432) 
1

>  <i_epik_Tot_abs_Q>  (1432) 
1

>  <i_f3d_flags>  (1432) 
0

>  <i_i_glide_confnum>  (1432) 
4

>  <i_i_glide_lignum>  (1432) 
87

>  <i_i_glide_posenum>  (1432) 
3

>  <i_i_glide_rotatable_bonds>  (1432) 
9

>  <i_lp_mmshare_version>  (1432) 
65135

>  <i_m_ct_format>  (1432) 
2

>  <i_m_source_file_index>  (1432) 
648

>  <i_qp_#NandO>  (1432) 
5

>  <i_qp_#acid>  (1432) 
0

>  <i_qp_#amide>  (1432) 
0

>  <i_qp_#amidine>  (1432) 
0

>  <i_qp_#amine>  (1432) 
2

>  <i_qp_#in34>  (1432) 
0

>  <i_qp_#in56>  (1432) 
23

>  <i_qp_#metab>  (1432) 
6

>  <i_qp_#nonHatm>  (1432) 
34

>  <i_qp_#noncon>  (1432) 
0

>  <i_qp_#ringatoms>  (1432) 
23

>  <i_qp_#rotor>  (1432) 
8

>  <i_qp_#rtvFG>  (1432) 
0

>  <i_qp_#stars>  (1432) 
1

>  <i_qp_CNS>  (1432) 
1

>  <i_qp_HumanOralAbsorption>  (1432) 
3

>  <i_qp_RuleOfFive>  (1432) 
0

>  <i_qp_RuleOfThree>  (1432) 
0

>  <i_sd_BIOSOLVEIT.INFINISEE\_REAGENT1\_NAME>  (1432) 
49239300

>  <i_sd_BIOSOLVEIT.INFINISEE\_REAGENT2\_NAME>  (1432) 
25682261

>  <i_sd_BIOSOLVEIT.INFINISEE\_REAGENT3\_NAME>  (1432) 
40180766

>  <i_sd_BIOSOLVEIT.INFINISEE\_RESULT\_RANK>  (1432) 
39950

>  <i_sd_version>  (1432) 
0

>  <b_lp_Chiralities_Consistent>  (1432) 
1

>  <b_sd_chiral_flag>  (1432) 
0

>  <canonical_id>  (1432) 
ATP-HTVS-E14A9B461B4E

>  <compound_code>  (1432) 
20705

>  <title>  (1432) 
Shen____49239300____25682261____40180766

>  <variant>  (1432) 
20705-2

>  <source_file>  (1432) 
运行/运行/ATP-VSW/ATP-VSW-DOCK_HTVS_1-001_lib/ATP-VSW-DOCK_HTVS_1-001_lib

>  <canonical_smiles>  (1432) 
Cc1c(F)cccc1-c1cc(CC[NH2+]Cc2ccccc2)n(C(=O)[C@@](C)(N)c2ccccc2)n1

>  <scaffold>  (1432) 
O=C(Cc1ccccc1)n1nc(-c2ccccc2)cc1CC[NH2+]Cc1ccccc1

>  <molecular_formula>  (1432) 
C28H30FN4O+

$$$$
ATP-HTVS-E1C245C409AF
     RDKit          3D

 61 64  0  0  0  0  0  0  0  0999 V2000
  196.4393  181.9299  151.9722 S   0  0  0  0  0  0  0  0  0  0  0  0
  197.1494  182.7035  153.3778 C   0  0  0  0  0  0  0  0  0  0  0  0
  197.7491  181.7452  154.2588 C   0  0  0  0  0  0  0  0  0  0  0  0
  198.3503  182.2800  155.4334 C   0  0  0  0  0  0  0  0  0  0  0  0
  198.3651  183.6582  155.7103 C   0  0  0  0  0  0  0  0  0  0  0  0
  197.7601  184.5614  154.8263 C   0  0  0  0  0  0  0  0  0  0  0  0
  197.1485  184.0809  153.6564 C   0  0  0  0  0  0  0  0  0  0  0  0
  197.6158  180.3897  153.7339 C   0  0  0  0  0  0  0  0  0  0  0  0
  198.1392  179.2296  154.3520 N   0  0  0  0  0  0  0  0  0  0  0  0
  199.0634  179.1731  155.4710 C   0  0  1  0  0  0  0  0  0  0  0  0
  199.8911  177.9029  155.5022 C   0  0  0  0  0  0  0  0  0  0  0  0
  200.2242  177.2489  154.3052 C   0  0  0  0  0  0  0  0  0  0  0  0
  201.0000  176.0833  154.3113 C   0  0  0  0  0  0  0  0  0  0  0  0
  201.4842  175.5561  155.5346 C   0  0  0  0  0  0  0  0  0  0  0  0
  202.2586  174.3846  155.5532 N   0  0  0  0  0  0  0  0  0  0  0  0
  202.4690  173.5866  154.3498 C   0  0  1  0  0  0  0  0  0  0  0  0
  201.2229  172.7738  153.9503 C   0  0  1  0  0  0  0  0  0  0  0  0
  201.5555  171.8437  152.9396 O   0  0  0  0  0  0  0  0  0  0  0  0
  201.1694  176.2285  156.7308 C   0  0  0  0  0  0  0  0  0  0  0  0
  200.3748  177.3936  156.7244 C   0  0  0  0  0  0  0  0  0  0  0  0
  196.9301  180.3618  152.5360 C   0  0  0  0  0  0  0  0  0  0  0  0
  196.6195  179.1621  151.6872 C   0  0  1  0  0  0  0  0  0  0  0  0
  197.5054  179.0535  150.5118 N   0  0  0  0  0  0  0  0  0  0  0  0
  197.0213  179.2254  149.2553 C   0  0  0  0  0  0  0  0  0  0  0  0
  195.8274  179.4391  149.0169 O   0  0  0  0  0  0  0  0  0  0  0  0
  197.9581  179.1244  148.0811 C   0  0  0  0  0  0  0  0  0  0  0  0
  199.1040  179.9475  148.0310 C   0  0  0  0  0  0  0  0  0  0  0  0
  199.9987  179.8508  146.9377 C   0  0  0  0  0  0  0  0  0  0  0  0
  201.2151  180.6505  146.9452 C   0  0  0  0  0  0  0  0  0  0  0  0
  202.2254  181.3281  146.9776 C   0  0  0  0  0  0  0  0  0  0  0  0
  199.7115  178.9901  145.8632 C   0  0  0  0  0  0  0  0  0  0  0  0
  198.5323  178.2187  145.8750 C   0  0  0  0  0  0  0  0  0  0  0  0
  197.6608  178.2799  146.9857 C   0  0  0  0  0  0  0  0  0  0  0  0
  198.8913  178.6665  150.8395 C   0  0  2  0  0  0  0  0  0  0  0  0
  198.8033  181.6345  156.1637 H   0  0  0  0  0  0  0  0  0  0  0  0
  198.8331  184.0131  156.6186 H   0  0  0  0  0  0  0  0  0  0  0  0
  197.7494  185.6182  155.0513 H   0  0  0  0  0  0  0  0  0  0  0  0
  196.6540  184.7632  152.9803 H   0  0  0  0  0  0  0  0  0  0  0  0
  198.0002  178.3490  153.8827 H   0  0  0  0  0  0  0  0  0  0  0  0
  199.7935  179.9804  155.3971 H   0  0  0  0  0  0  0  0  0  0  0  0
  198.4983  179.2754  156.4014 H   0  0  0  0  0  0  0  0  0  0  0  0
  199.9012  177.6136  153.3510 H   0  0  0  0  0  0  0  0  0  0  0  0
  201.1908  175.6345  153.3540 H   0  0  0  0  0  0  0  0  0  0  0  0
  202.7446  174.1184  156.4058 H   0  0  0  0  0  0  0  0  0  0  0  0
  202.7829  174.2237  153.5211 H   0  0  0  0  0  0  0  0  0  0  0  0
  203.3064  172.9120  154.5280 H   0  0  0  0  0  0  0  0  0  0  0  0
  200.8318  172.2293  154.8136 H   0  0  0  0  0  0  0  0  0  0  0  0
  200.4146  173.4069  153.5869 H   0  0  0  0  0  0  0  0  0  0  0  0
  202.1593  171.2142  153.3058 H   0  0  0  0  0  0  0  0  0  0  0  0
  201.5163  175.8419  157.6804 H   0  0  0  0  0  0  0  0  0  0  0  0
  200.1272  177.8963  157.6520 H   0  0  0  0  0  0  0  0  0  0  0  0
  196.7187  178.2514  152.2739 H   0  0  0  0  0  0  0  0  0  0  0  0
  195.5527  179.1924  151.4327 H   0  0  0  0  0  0  0  0  0  0  0  0
  199.3004  180.6361  148.8324 H   0  0  0  0  0  0  0  0  0  0  0  0
  203.1052  181.9288  146.9819 H   0  0  0  0  0  0  0  0  0  0  0  0
  200.3900  178.9181  145.0197 H   0  0  0  0  0  0  0  0  0  0  0  0
  198.3078  177.5861  145.0302 H   0  0  0  0  0  0  0  0  0  0  0  0
  196.7581  177.6728  146.9805 H   0  0  0  0  0  0  0  0  0  0  0  0
  199.0601  177.6063  150.6552 H   0  0  0  0  0  0  0  0  0  0  0  0
  199.0933  178.8500  151.8882 H   0  0  0  0  0  0  0  0  0  0  0  0
  199.6437  179.2662  150.2896 H   0  0  0  0  0  0  0  0  0  0  0  0
  1  2  1  0
  1 21  1  0
  2  3  1  0
  2  7  2  0
  3  4  2  0
  3  8  1  0
  4  5  1  0
  4 35  1  0
  5  6  2  0
  5 36  1  0
  6  7  1  0
  6 37  1  0
  7 38  1  0
  8  9  1  0
  8 21  2  0
  9 10  1  0
  9 39  1  0
 10 11  1  0
 10 40  1  6
 10 41  1  0
 11 12  1  0
 11 20  2  0
 12 13  2  0
 12 42  1  0
 13 14  1  0
 13 43  1  0
 14 15  1  0
 14 19  2  0
 15 16  1  0
 15 44  1  0
 16 17  1  0
 16 45  1  6
 16 46  1  0
 17 18  1  0
 17 47  1  1
 17 48  1  0
 18 49  1  0
 19 20  1  0
 19 50  1  0
 20 51  1  0
 21 22  1  0
 22 23  1  0
 22 52  1  1
 22 53  1  0
 23 24  1  0
 23 34  1  0
 24 25  2  0
 24 26  1  0
 26 27  1  0
 26 33  2  0
 27 28  2  0
 27 54  1  0
 28 29  1  0
 28 31  1  0
 29 30  3  0
 30 55  1  0
 31 32  2  0
 31 56  1  0
 32 33  1  0
 32 57  1  0
 33 58  1  0
 34 59  1  1
 34 60  1  0
 34 61  1  0
M  END
>  <s_epik_cmdline>  (1433) 
J2VwaWtfcHl0aG9uJywgJy1waCcsICc3LjAwMDAwMCcsICctcGh0JywgJzIuMDAwMDAwJywgJy1tcycsICcxNicsICctdG4nLCAnOCcsICctbWEnLCAnMjAwJywgJy1pbWFlJywgJzxpbmZpbGUubWFlPicsICctb21hZScsICc8b3V0ZmlsZS5tYWU+Jw==

>  <s_epik_input>  (1433) 
W2NIXTFbY0hdW2NIXWMoQyNbQ0hdKVtjSF1jMUMoPU8pTihbQ0gzXSlbQ0gyXWMoczIpYyhjKGMyMylbY0hdW2NIXVtjSF1bY0hdMylbTkhdW0NIMl1jNFtjSF1bY0hdYyhbY0hdW2NIXTQpW05IXVtDSDJdW0NIMl1bT0hd

>  <s_i_glide_gridfile>  (1433) 
ATP-Grid

>  <s_lp_Force_Field>  (1433) 
OPLS_2005

>  <s_lp_Variant>  (1433) 
rxn502c____EMOL31600582____EMOL49259969____EMOL324170366-1

>  <s_lp_label>  (1433) 
2453_sdstereoexpander_1_neutralizer_1_epik_1_stereoizer_1

>  <s_m_source_file>  (1433) 
ATP-VSW-LIGPREP-001-in.maegz

>  <s_sd_BIOSOLVEIT.INFINISEE\_QUERY\_NAME>  (1433) 
Ref-Lig

>  <s_sd_BIOSOLVEIT.INFINISEE\_QUERY\_SMILES>  (1433) 
S(c1nc2c(cc1C[NH2+]Cc3ccc(cc3)C[NH+](C)C)cccc2)Cc4ccccc4

>  <s_sd_BIOSOLVEIT.INFINISEE\_REACTION\_NAME>  (1433) 
rxn502c

>  <s_sd_BIOSOLVEIT.INFINISEE\_REAGENT1\_NAME>  (1433) 
EMOL31600582

>  <s_sd_BIOSOLVEIT.INFINISEE\_REAGENT1\_SMILES>  (1433) 
O=C(O)c1cc(C#C)ccc1

>  <s_sd_BIOSOLVEIT.INFINISEE\_REAGENT2\_NAME>  (1433) 
EMOL49259969

>  <s_sd_BIOSOLVEIT.INFINISEE\_REAGENT2\_SMILES>  (1433) 
ClC=1c2c(SC1CNC)cccc2

>  <s_sd_BIOSOLVEIT.INFINISEE\_REAGENT3\_NAME>  (1433) 
EMOL324170366

>  <s_sd_BIOSOLVEIT.INFINISEE\_REAGENT3\_SMILES>  (1433) 
OCCNc1ccc(cc1)CN

>  <s_sd_BIOSOLVEIT.INFINISEE\_SPACE>  (1433) 
eXplore_7tr_2022-12

>  <s_vsw_compound_code>  (1433) 
78465

>  <s_vsw_variant>  (1433) 
78465-1

>  <r_epik_Charging_Adjusted_Penalty>  (1433) 
0.0083718636805958195

>  <r_epik_Ionization_Penalty>  (1433) 
0.0083999999999999995

>  <r_epik_Ionization_Penalty_Charging>  (1433) 
0

>  <r_epik_Ionization_Penalty_Neutral>  (1433) 
0.0083999999999999995

>  <r_epik_State_Penalty>  (1433) 
0.0083999999999999995

>  <r_i_docking_score>  (1433) 
-3.1565926277222198

>  <r_i_glide_ecoul>  (1433) 
-4.5862865447998002

>  <r_i_glide_eff_state_penalty>  (1433) 
0.0083999999999999995

>  <r_i_glide_einternal>  (1433) 
4.3194007873535201

>  <r_i_glide_emodel>  (1433) 
-48.905011005116201

>  <r_i_glide_energy>  (1433) 
-41.7559719085693

>  <r_i_glide_erotb>  (1433) 
1.00754068083644

>  <r_i_glide_esite>  (1433) 
-0.0314270249908968

>  <r_i_glide_evdw>  (1433) 
-37.169685363769503

>  <r_i_glide_gscore>  (1433) 
-3.1649926277222198

>  <r_i_glide_hbond>  (1433) 
-0.16

>  <r_i_glide_ligand_efficiency>  (1433) 
-0.092840959638888901

>  <r_i_glide_ligand_efficiency_ln>  (1433) 
-0.69737985088801602

>  <r_i_glide_ligand_efficiency_sa>  (1433) 
-0.30076866813453101

>  <r_i_glide_lipo>  (1433) 
-1.0486376457459401

>  <r_i_glide_metal>  (1433) 
-0

>  <r_i_glide_rewards>  (1433) 
-0.38604138791338399

>  <r_lp_Energy>  (1433) 
39.974530000000001

>  <r_qp_ACxDN^.5/SA>  (1433) 
0.0152172

>  <r_qp_CIQPlogS>  (1433) 
-6.0819999999999999

>  <r_qp_EA(eV)>  (1433) 
0.40699999999999997

>  <r_qp_FISA>  (1433) 
103.06100000000001

>  <r_qp_FOSA>  (1433) 
215.922

>  <r_qp_IP(eV)>  (1433) 
7.7670000000000003

>  <r_qp_Jm>  (1433) 
0.00235466956284002

>  <r_qp_PISA>  (1433) 
475.697

>  <r_qp_PSA>  (1433) 
71.665000000000006

>  <r_qp_PercentHumanOralAbsorption>  (1433) 
100

>  <r_qp_QPPCaco>  (1433) 
260.29700000000003

>  <r_qp_QPPMDCK>  (1433) 
184.26499999999999

>  <r_qp_QPlogBB>  (1433) 
-0.79400000000000004

>  <r_qp_QPlogHERG>  (1433) 
-8.2789999999999999

>  <r_qp_QPlogKhsa>  (1433) 
0.71599999999999997

>  <r_qp_QPlogKp>  (1433) 
-2.75

>  <r_qp_QPlogPC16>  (1433) 
17.411999999999999

>  <r_qp_QPlogPo/w>  (1433) 
4.8479999999999999

>  <r_qp_QPlogPoct>  (1433) 
26.600999999999999

>  <r_qp_QPlogPw>  (1433) 
14.948

>  <r_qp_QPlogS>  (1433) 
-5.5499999999999998

>  <r_qp_QPpolrz>  (1433) 
51.212000000000003

>  <r_qp_SASA>  (1433) 
823.71000000000004

>  <r_qp_SAamideO>  (1433) 
0

>  <r_qp_SAfluorine>  (1433) 
0

>  <r_qp_WPSA>  (1433) 
29.029

>  <r_qp_accptHB>  (1433) 
6.7000000000000002

>  <r_qp_dip^2/V>  (1433) 
0.0567784

>  <r_qp_dipole>  (1433) 
9.218

>  <r_qp_donorHB>  (1433) 
3.5

>  <r_qp_glob>  (1433) 
0.76811529999999995

>  <r_qp_mol_MW>  (1433) 
469.60000000000002

>  <r_qp_volume>  (1433) 
1496.4190000000001

>  <r_sd_BIOSOLVEIT.INFINISEE\_FTREES\_SIMILARITY>  (1433) 
0.91600000000000004

>  <r_sd_BIOSOLVEIT.LOGP>  (1433) 
5.1711

>  <r_sd_BIOSOLVEIT.MOLECULAR\_WEIGHT>  (1433) 
469.60500000000002

>  <r_sd_BIOSOLVEIT.TPSA>  (1433) 
64.599999999999994

>  <i_epik_Tot_Q>  (1433) 
0

>  <i_epik_Tot_abs_Q>  (1433) 
0

>  <i_f3d_flags>  (1433) 
0

>  <i_i_glide_confnum>  (1433) 
7

>  <i_i_glide_lignum>  (1433) 
961

>  <i_i_glide_posenum>  (1433) 
7

>  <i_i_glide_rotatable_bonds>  (1433) 
12

>  <i_lp_mmshare_version>  (1433) 
65135

>  <i_m_ct_format>  (1433) 
2

>  <i_m_source_file_index>  (1433) 
2453

>  <i_qp_#NandO>  (1433) 
5

>  <i_qp_#acid>  (1433) 
0

>  <i_qp_#amide>  (1433) 
0

>  <i_qp_#amidine>  (1433) 
0

>  <i_qp_#amine>  (1433) 
1

>  <i_qp_#in34>  (1433) 
0

>  <i_qp_#in56>  (1433) 
21

>  <i_qp_#metab>  (1433) 
8

>  <i_qp_#nonHatm>  (1433) 
34

>  <i_qp_#noncon>  (1433) 
0

>  <i_qp_#ringatoms>  (1433) 
21

>  <i_qp_#rotor>  (1433) 
11

>  <i_qp_#rtvFG>  (1433) 
0

>  <i_qp_#stars>  (1433) 
2

>  <i_qp_CNS>  (1433) 
-1

>  <i_qp_HumanOralAbsorption>  (1433) 
3

>  <i_qp_RuleOfFive>  (1433) 
0

>  <i_qp_RuleOfThree>  (1433) 
1

>  <i_sd_BIOSOLVEIT.INFINISEE\_RESULT\_RANK>  (1433) 
25880

>  <i_sd_version>  (1433) 
0

>  <b_lp_Chiralities_Consistent>  (1433) 
1

>  <b_sd_chiral_flag>  (1433) 
0

>  <canonical_id>  (1433) 
ATP-HTVS-E1C245C409AF

>  <compound_code>  (1433) 
78465

>  <title>  (1433) 
rxn502c____EMOL31600582____EMOL49259969____EMOL324170366

>  <variant>  (1433) 
78465-1

>  <source_file>  (1433) 
运行/运行/ATP-VSW/ATP-VSW-DOCK_HTVS_1-001_lib/ATP-VSW-DOCK_HTVS_1-001_lib

>  <canonical_smiles>  (1433) 
C#Cc1cccc(C(=O)N(C)Cc2sc3ccccc3c2NCc2ccc(NCCO)cc2)c1

>  <scaffold>  (1433) 
O=C(NCc1sc2ccccc2c1NCc1ccccc1)c1ccccc1

>  <molecular_formula>  (1433) 
C28H27N3O2S

$$$$
ATP-HTVS-E1C6EE43BDB1
     RDKit          3D

 66 69  0  0  0  0  0  0  0  0999 V2000
  199.9456  182.9908  155.0146 N   0  0  0  0  0  0  0  0  0  0  0  0
  198.7019  182.7169  155.4706 C   0  0  0  0  0  0  0  0  0  0  0  0
  197.7403  182.3756  154.5075 N   0  0  0  0  0  0  0  0  0  0  0  0
  198.1732  181.4990  153.4228 C   0  0  1  0  0  0  0  0  0  0  0  0
  198.9127  180.2404  153.8509 C   0  0  0  0  0  0  0  0  0  0  0  0
  200.1739  179.9212  153.2960 C   0  0  0  0  0  0  0  0  0  0  0  0
  200.8234  178.7198  153.6402 C   0  0  0  0  0  0  0  0  0  0  0  0
  200.2118  177.8274  154.5492 C   0  0  0  0  0  0  0  0  0  0  0  0
  198.9800  178.1745  155.1348 C   0  0  0  0  0  0  0  0  0  0  0  0
  198.3297  179.3734  154.7935 C   0  0  0  0  0  0  0  0  0  0  0  0
  200.8699  176.4992  154.8888 C   0  0  1  0  0  0  0  0  0  0  0  0
  201.7043  176.5596  156.1185 N   0  0  2  0  0  0  0  0  0  0  0  0
  202.4198  175.2851  156.3660 C   0  0  2  0  0  0  0  0  0  0  0  0
  200.9519  177.0014  157.3168 C   0  0  2  0  0  0  0  0  0  0  0  0
  196.8500  183.4621  154.1381 C   0  0  2  0  0  0  0  0  0  0  0  0
  198.3935  182.7868  156.8525 C   0  0  0  0  0  0  0  0  0  0  0  0
  199.3516  183.0809  157.7610 N   0  0  0  0  0  0  0  0  0  0  0  0
  200.5937  183.3792  157.3052 C   0  0  0  0  0  0  0  0  0  0  0  0
  200.9040  183.3099  155.9154 C   0  0  0  0  0  0  0  0  0  0  0  0
  202.2120  183.6013  155.4849 C   0  0  0  0  0  0  0  0  0  0  0  0
  203.2003  184.0139  156.4006 C   0  0  0  0  0  0  0  0  0  0  0  0
  202.8728  184.1544  157.7657 C   0  0  0  0  0  0  0  0  0  0  0  0
  201.5752  183.8318  158.2063 C   0  0  0  0  0  0  0  0  0  0  0  0
  197.0777  182.6255  157.3181 N   0  0  0  0  0  0  0  0  0  0  0  0
  196.7319  182.7440  158.7318 C   0  0  1  0  0  0  0  0  0  0  0  0
  196.5493  184.1664  159.2489 C   0  0  0  0  0  0  0  0  0  0  0  0
  195.2718  184.5881  159.6955 C   0  0  0  0  0  0  0  0  0  0  0  0
  195.0862  185.9160  160.1401 C   0  0  0  0  0  0  0  0  0  0  0  0
  196.1599  186.8349  160.1401 C   0  0  0  0  0  0  0  0  0  0  0  0
  195.9348  188.1488  160.5818 N   0  0  0  0  0  0  0  0  0  0  0  0
  196.9851  189.1500  160.4255 C   0  0  2  0  0  0  0  0  0  0  0  0
  197.4316  186.4014  159.7048 C   0  0  0  0  0  0  0  0  0  0  0  0
  197.6308  185.0773  159.2886 C   0  0  0  0  0  0  0  0  0  0  0  0
  197.2968  181.1682  152.8657 H   0  0  0  0  0  0  0  0  0  0  0  0
  198.7895  182.0676  152.7276 H   0  0  0  0  0  0  0  0  0  0  0  0
  200.6474  180.6019  152.6038 H   0  0  0  0  0  0  0  0  0  0  0  0
  201.7869  178.4892  153.2074 H   0  0  0  0  0  0  0  0  0  0  0  0
  198.5029  177.5193  155.8469 H   0  0  0  0  0  0  0  0  0  0  0  0
  197.3872  179.6168  155.2661 H   0  0  0  0  0  0  0  0  0  0  0  0
  200.0952  175.7392  155.0115 H   0  0  0  0  0  0  0  0  0  0  0  0
  201.4794  176.1748  154.0424 H   0  0  0  0  0  0  0  0  0  0  0  0
  201.7246  174.4568  156.5061 H   0  0  0  0  0  0  0  0  0  0  0  0
  203.0271  175.3528  157.2671 H   0  0  0  0  0  0  0  0  0  0  0  0
  203.0868  175.0352  155.5386 H   0  0  0  0  0  0  0  0  0  0  0  0
  200.1364  176.3073  157.5154 H   0  0  0  0  0  0  0  0  0  0  0  0
  200.5336  178.0009  157.2099 H   0  0  0  0  0  0  0  0  0  0  0  0
  201.5986  177.0582  158.1892 H   0  0  0  0  0  0  0  0  0  0  0  0
  196.5374  184.0499  155.0014 H   0  0  0  0  0  0  0  0  0  0  0  0
  195.9518  183.0644  153.6576 H   0  0  0  0  0  0  0  0  0  0  0  0
  197.3460  184.1380  153.4451 H   0  0  0  0  0  0  0  0  0  0  0  0
  202.4631  183.5072  154.4389 H   0  0  0  0  0  0  0  0  0  0  0  0
  204.2065  184.2218  156.0658 H   0  0  0  0  0  0  0  0  0  0  0  0
  203.6163  184.4888  158.4723 H   0  0  0  0  0  0  0  0  0  0  0  0
  201.3143  183.9684  159.2460 H   0  0  0  0  0  0  0  0  0  0  0  0
  196.3264  182.5122  156.6440 H   0  0  0  0  0  0  0  0  0  0  0  0
  195.8206  182.1701  158.8937 H   0  0  0  0  0  0  0  0  0  0  0  0
  197.4891  182.2448  159.3340 H   0  0  0  0  0  0  0  0  0  0  0  0
  194.4340  183.9053  159.6889 H   0  0  0  0  0  0  0  0  0  0  0  0
  194.1008  186.2304  160.4748 H   0  0  0  0  0  0  0  0  0  0  0  0
  194.9865  188.4750  160.6934 H   0  0  0  0  0  0  0  0  0  0  0  0
  196.6018  190.1236  160.7339 H   0  0  0  0  0  0  0  0  0  0  0  0
  197.3252  189.2295  159.3899 H   0  0  0  0  0  0  0  0  0  0  0  0
  197.8448  188.9049  161.0501 H   0  0  0  0  0  0  0  0  0  0  0  0
  198.2782  187.0665  159.6808 H   0  0  0  0  0  0  0  0  0  0  0  0
  198.6393  184.7994  158.9839 H   0  0  0  0  0  0  0  0  0  0  0  0
  202.4192  177.2585  155.9626 H   0  0  0  0  0  0  0  0  0  0  0  0
  1  2  2  0
  1 19  1  0
  2  3  1  0
  2 16  1  0
  3  4  1  0
  3 15  1  0
  4  5  1  0
  4 34  1  6
  4 35  1  0
  5  6  1  0
  5 10  2  0
  6  7  2  0
  6 36  1  0
  7  8  1  0
  7 37  1  0
  8  9  2  0
  8 11  1  0
  9 10  1  0
  9 38  1  0
 10 39  1  0
 11 12  1  0
 11 40  1  1
 11 41  1  0
 12 13  1  0
 12 14  1  0
 12 66  1  6
 13 42  1  1
 13 43  1  0
 13 44  1  0
 14 45  1  1
 14 46  1  0
 14 47  1  0
 15 48  1  1
 15 49  1  0
 15 50  1  0
 16 17  2  0
 16 24  1  0
 17 18  1  0
 18 19  1  0
 18 23  2  0
 19 20  2  0
 20 21  1  0
 20 51  1  0
 21 22  2  0
 21 52  1  0
 22 23  1  0
 22 53  1  0
 23 54  1  0
 24 25  1  0
 24 55  1  0
 25 26  1  0
 25 56  1  6
 25 57  1  0
 26 27  1  0
 26 33  2  0
 27 28  2  0
 27 58  1  0
 28 29  1  0
 28 59  1  0
 29 30  1  0
 29 32  2  0
 30 31  1  0
 30 60  1  0
 31 61  1  1
 31 62  1  0
 31 63  1  0
 32 33  1  0
 32 64  1  0
 33 65  1  0
M  CHG  1  12   1
M  END
>  <s_epik_cmdline>  (1434) 
J2VwaWtfcHl0aG9uJywgJy1waCcsICc3LjAwMDAwMCcsICctcGh0JywgJzIuMDAwMDAwJywgJy1tcycsICcxNicsICctdG4nLCAnOCcsICctbWEnLCAnMjAwJywgJy1pbWFlJywgJzxpbmZpbGUubWFlPicsICctb21hZScsICc8b3V0ZmlsZS5tYWU+Jw==

>  <s_epik_input>  (1434) 
W0NIM11bTkhdYyhbY0hdW2NIXTEpW2NIXVtjSF1jMVtDSDJdW05IXWMobjIpYyhuYyhjMjMpW2NIXVtjSF1bY0hdW2NIXTMpTihbQ0gzXSlbQ0gyXWM0W2NIXVtjSF1jKFtjSF1bY0hdNClbQ0gyXU4oW0NIM10pW0NIM10=

>  <s_i_glide_gridfile>  (1434) 
ATP-Grid

>  <s_lp_Force_Field>  (1434) 
OPLS_2005

>  <s_lp_Variant>  (1434) 
m_282030aaa____21933634____23157418____21938276-1

>  <s_lp_label>  (1434) 
1831_sdstereoexpander_1_neutralizer_1_epik_1_stereoizer_1

>  <s_m_source_file>  (1434) 
ATP-VSW-LIGPREP-003-in.maegz

>  <s_sd_BIOSOLVEIT.INFINISEE\_QUERY\_NAME>  (1434) 
Ref-Lig

>  <s_sd_BIOSOLVEIT.INFINISEE\_QUERY\_SMILES>  (1434) 
S(c1nc2c(cc1C[NH2+]Cc3ccc(cc3)C[NH+](C)C)cccc2)Cc4ccccc4

>  <s_sd_BIOSOLVEIT.INFINISEE\_REACTION\_NAME>  (1434) 
m_282030aaa

>  <s_sd_BIOSOLVEIT.INFINISEE\_REAGENT1\_SMILES>  (1434) 
[R1*]N(Cc1ccc(cc1)CN(C)C)C

>  <s_sd_BIOSOLVEIT.INFINISEE\_REAGENT2\_SMILES>  (1434) 
[R1*]c1nc2c(nc1[R2*])cccc2

>  <s_sd_BIOSOLVEIT.INFINISEE\_REAGENT3\_SMILES>  (1434) 
[R2*]NCc1ccc(NC)cc1

>  <s_sd_BIOSOLVEIT.INFINISEE\_SPACE>  (1434) 
REALSpace_44bn_2023-08

>  <s_vsw_compound_code>  (1434) 
58563

>  <s_vsw_variant>  (1434) 
58563-1

>  <r_epik_Charging_Adjusted_Penalty>  (1434) 
0.099783582013035596

>  <r_epik_Ionization_Penalty>  (1434) 
0.065600000000000006

>  <r_epik_Ionization_Penalty_Charging>  (1434) 
0.036499999999999998

>  <r_epik_Ionization_Penalty_Neutral>  (1434) 
0.029100000000000001

>  <r_epik_State_Penalty>  (1434) 
0.063299999999999995

>  <r_i_docking_score>  (1434) 
-4.2350556188792998

>  <r_i_glide_ecoul>  (1434) 
-7.0216627120971697

>  <r_i_glide_eff_state_penalty>  (1434) 
0.063299999999999995

>  <r_i_glide_einternal>  (1434) 
1.59548115730286

>  <r_i_glide_emodel>  (1434) 
-49.875601779728399

>  <r_i_glide_energy>  (1434) 
-36.708525657653801

>  <r_i_glide_erotb>  (1434) 
0.71708767460341705

>  <r_i_glide_esite>  (1434) 
-0.053870767997994798

>  <r_i_glide_evdw>  (1434) 
-29.686862945556602

>  <r_i_glide_gscore>  (1434) 
-4.2983556188792997

>  <r_i_glide_hbond>  (1434) 
-0.133011637938349

>  <r_i_glide_ligand_efficiency>  (1434) 
-0.12833501875391801

>  <r_i_glide_ligand_efficiency_ln>  (1434) 
-0.94185444169431998

>  <r_i_glide_ligand_efficiency_sa>  (1434) 
-0.41163897791408399

>  <r_i_glide_lipo>  (1434) 
-1.6677259698175999

>  <r_i_glide_metal>  (1434) 
-0

>  <r_i_glide_rewards>  (1434) 
-0.62324236363636198

>  <r_lp_Energy>  (1434) 
29.911653999999999

>  <r_qp_ACxDN^.5/SA>  (1434) 
0.012614500000000001

>  <r_qp_CIQPlogS>  (1434) 
-5.9779999999999998

>  <r_qp_EA(eV)>  (1434) 
0.749

>  <r_qp_FISA>  (1434) 
35.219999999999999

>  <r_qp_FOSA>  (1434) 
330.76100000000002

>  <r_qp_IP(eV)>  (1434) 
8.1639999999999997

>  <r_qp_Jm>  (1434) 
0.57765560323540299

>  <r_qp_PISA>  (1434) 
306.68200000000002

>  <r_qp_PSA>  (1434) 
49.435000000000002

>  <r_qp_PercentHumanOralAbsorption>  (1434) 
100

>  <r_qp_QPPCaco>  (1434) 
1145.018

>  <r_qp_QPPMDCK>  (1434) 
633.57600000000002

>  <r_qp_QPlogBB>  (1434) 
0.11799999999999999

>  <r_qp_QPlogHERG>  (1434) 
-5.6289999999999996

>  <r_qp_QPlogKhsa>  (1434) 
0.753

>  <r_qp_QPlogKp>  (1434) 
-2.2869999999999999

>  <r_qp_QPlogPC16>  (1434) 
13.647

>  <r_qp_QPlogPo/w>  (1434) 
4.7869999999999999

>  <r_qp_QPlogPoct>  (1434) 
21.126999999999999

>  <r_qp_QPlogPw>  (1434) 
10.516999999999999

>  <r_qp_QPlogS>  (1434) 
-3.5960000000000001

>  <r_qp_QPpolrz>  (1434) 
45.381

>  <r_qp_SASA>  (1434) 
672.66300000000001

>  <r_qp_SAamideO>  (1434) 
0

>  <r_qp_SAfluorine>  (1434) 
0

>  <r_qp_WPSA>  (1434) 
0

>  <r_qp_accptHB>  (1434) 
6

>  <r_qp_dip^2/V>  (1434) 
0.010244700000000001

>  <r_qp_dipole>  (1434) 
3.7309999999999999

>  <r_qp_donorHB>  (1434) 
2

>  <r_qp_glob>  (1434) 
0.88206430000000002

>  <r_qp_mol_MW>  (1434) 
440.58999999999997

>  <r_qp_volume>  (1434) 
1358.9369999999999

>  <r_sd_BIOSOLVEIT.INFINISEE\_FTREES\_SIMILARITY>  (1434) 
0.90300000000000002

>  <r_sd_BIOSOLVEIT.LOGP>  (1434) 
3.5644999999999998

>  <r_sd_BIOSOLVEIT.MOLECULAR\_WEIGHT>  (1434) 
441.60000000000002

>  <r_sd_BIOSOLVEIT.TPSA>  (1434) 
57.520000000000003

>  <i_epik_Tot_Q>  (1434) 
1

>  <i_epik_Tot_abs_Q>  (1434) 
1

>  <i_f3d_flags>  (1434) 
0

>  <i_i_glide_confnum>  (1434) 
3

>  <i_i_glide_lignum>  (1434) 
685

>  <i_i_glide_posenum>  (1434) 
7

>  <i_i_glide_rotatable_bonds>  (1434) 
9

>  <i_lp_mmshare_version>  (1434) 
65135

>  <i_m_ct_format>  (1434) 
2

>  <i_m_source_file_index>  (1434) 
1831

>  <i_qp_#NandO>  (1434) 
6

>  <i_qp_#acid>  (1434) 
0

>  <i_qp_#amide>  (1434) 
0

>  <i_qp_#amidine>  (1434) 
0

>  <i_qp_#amine>  (1434) 
1

>  <i_qp_#in34>  (1434) 
0

>  <i_qp_#in56>  (1434) 
22

>  <i_qp_#metab>  (1434) 
6

>  <i_qp_#nonHatm>  (1434) 
33

>  <i_qp_#noncon>  (1434) 
0

>  <i_qp_#ringatoms>  (1434) 
22

>  <i_qp_#rotor>  (1434) 
9

>  <i_qp_#rtvFG>  (1434) 
0

>  <i_qp_#stars>  (1434) 
0

>  <i_qp_CNS>  (1434) 
1

>  <i_qp_HumanOralAbsorption>  (1434) 
3

>  <i_qp_RuleOfFive>  (1434) 
0

>  <i_qp_RuleOfThree>  (1434) 
0

>  <i_sd_BIOSOLVEIT.INFINISEE\_REAGENT1\_NAME>  (1434) 
21933634

>  <i_sd_BIOSOLVEIT.INFINISEE\_REAGENT2\_NAME>  (1434) 
23157418

>  <i_sd_BIOSOLVEIT.INFINISEE\_REAGENT3\_NAME>  (1434) 
21938276

>  <i_sd_BIOSOLVEIT.INFINISEE\_RESULT\_RANK>  (1434) 
79896

>  <i_sd_version>  (1434) 
0

>  <b_lp_Chiralities_Consistent>  (1434) 
1

>  <b_sd_chiral_flag>  (1434) 
0

>  <canonical_id>  (1434) 
ATP-HTVS-E1C6EE43BDB1

>  <compound_code>  (1434) 
58563

>  <title>  (1434) 
m_282030aaa____21933634____23157418____21938276

>  <variant>  (1434) 
58563-1

>  <source_file>  (1434) 
运行/运行/ATP-VSW/ATP-VSW-DOCK_HTVS_1-003_lib/ATP-VSW-DOCK_HTVS_1-003_lib.mae

>  <canonical_smiles>  (1434) 
CNc1ccc(CNc2nc3ccccc3nc2N(C)Cc2ccc(C[NH+](C)C)cc2)cc1

>  <scaffold>  (1434) 
c1ccc(CNc2nc3ccccc3nc2NCc2ccccc2)cc1

>  <molecular_formula>  (1434) 
C27H33N6+

$$$$
ATP-HTVS-E1CE322086D6
     RDKit          3D

 51 54  0  0  0  0  0  0  0  0999 V2000
  192.3701  187.7176  162.8862 S   0  0  0  0  0  0  0  0  0  0  0  0
  193.7586  187.4759  161.8715 C   0  0  0  0  0  0  0  0  0  0  0  0
  193.9071  186.2690  161.1569 C   0  0  0  0  0  0  0  0  0  0  0  0
  195.0490  186.0510  160.3568 C   0  0  0  0  0  0  0  0  0  0  0  0
  196.0392  187.0664  160.2841 C   0  0  0  0  0  0  0  0  0  0  0  0
  195.8752  188.2870  160.9492 C   0  0  0  0  0  0  0  0  0  0  0  0
  194.7271  188.4951  161.7306 C   0  0  0  0  0  0  0  0  0  0  0  0
  195.1982  184.7480  159.6116 C   0  0  0  0  0  0  0  0  0  0  0  0
  194.3643  183.8517  159.7305 O   0  0  0  0  0  0  0  0  0  0  0  0
  196.2775  184.6866  158.8201 N   0  0  0  0  0  0  0  0  0  0  0  0
  196.7467  183.6637  157.9629 C   0  0  0  0  0  0  0  0  0  0  0  0
  197.9346  183.9052  157.2225 C   0  0  0  0  0  0  0  0  0  0  0  0
  198.5552  185.1848  157.2614 N   0  0  0  0  0  0  0  0  0  0  0  0
  199.5462  185.5742  158.2051 C   0  0  0  0  0  0  0  0  0  0  0  0
  200.1233  186.8732  158.2295 C   0  0  0  0  0  0  0  0  0  0  0  0
  201.1087  187.2195  159.1771 C   0  0  0  0  0  0  0  0  0  0  0  0
  201.5347  186.2808  160.1328 C   0  0  0  0  0  0  0  0  0  0  0  0
  200.9814  184.9873  160.1294 C   0  0  0  0  0  0  0  0  0  0  0  0
  200.0019  184.6382  159.1730 C   0  0  0  0  0  0  0  0  0  0  0  0
  198.0479  186.1633  156.2616 C   0  0  1  0  0  0  0  0  0  0  0  0
  197.7257  185.5450  154.9604 C   0  0  0  0  0  0  0  0  0  0  0  0
  197.4794  185.0480  153.9445 N   0  0  0  0  0  0  0  0  0  0  0  0
  196.8814  187.0369  156.7746 C   0  0  2  0  0  0  0  0  0  0  0  0
  198.4897  182.8373  156.4555 C   0  0  0  0  0  0  0  0  0  0  0  0
  197.8056  181.5846  156.4246 C   0  0  0  0  0  0  0  0  0  0  0  0
  196.6655  181.4408  157.1181 N   0  0  0  0  0  0  0  0  0  0  0  0
  196.1099  182.4021  157.8575 C   0  0  0  0  0  0  0  0  0  0  0  0
  198.3192  180.5020  155.6912 C   0  0  0  0  0  0  0  0  0  0  0  0
  199.5204  180.6430  154.9723 C   0  0  0  0  0  0  0  0  0  0  0  0
  200.2155  181.8694  155.0076 C   0  0  0  0  0  0  0  0  0  0  0  0
  199.7073  182.9597  155.7456 C   0  0  0  0  0  0  0  0  0  0  0  0
  193.1459  185.5007  161.2280 H   0  0  0  0  0  0  0  0  0  0  0  0
  196.9559  186.9568  159.7298 H   0  0  0  0  0  0  0  0  0  0  0  0
  196.6235  189.0583  160.8583 H   0  0  0  0  0  0  0  0  0  0  0  0
  194.6120  189.4485  162.2355 H   0  0  0  0  0  0  0  0  0  0  0  0
  196.8168  185.5356  158.7657 H   0  0  0  0  0  0  0  0  0  0  0  0
  199.8509  187.6602  157.5473 H   0  0  0  0  0  0  0  0  0  0  0  0
  201.5225  188.2159  159.1695 H   0  0  0  0  0  0  0  0  0  0  0  0
  202.2746  186.5651  160.8728 H   0  0  0  0  0  0  0  0  0  0  0  0
  201.3029  184.2676  160.8704 H   0  0  0  0  0  0  0  0  0  0  0  0
  199.6098  183.6331  159.2091 H   0  0  0  0  0  0  0  0  0  0  0  0
  198.8391  186.8197  155.9133 H   0  0  0  0  0  0  0  0  0  0  0  0
  196.6087  187.7799  156.0311 H   0  0  0  0  0  0  0  0  0  0  0  0
  197.1512  187.5915  157.6720 H   0  0  0  0  0  0  0  0  0  0  0  0
  195.9732  186.4640  156.9647 H   0  0  0  0  0  0  0  0  0  0  0  0
  195.2143  182.0903  158.3720 H   0  0  0  0  0  0  0  0  0  0  0  0
  197.7910  179.5565  155.6877 H   0  0  0  0  0  0  0  0  0  0  0  0
  199.9046  179.8131  154.4023 H   0  0  0  0  0  0  0  0  0  0  0  0
  201.1372  181.9680  154.4539 H   0  0  0  0  0  0  0  0  0  0  0  0
  200.2645  183.8858  155.7589 H   0  0  0  0  0  0  0  0  0  0  0  0
  196.2210  180.4900  157.1786 H   0  0  0  0  0  0  0  0  0  0  0  0
  1  2  1  0
  2  3  2  0
  2  7  1  0
  3  4  1  0
  3 32  1  0
  4  5  2  0
  4  8  1  0
  5  6  1  0
  5 33  1  0
  6  7  2  0
  6 34  1  0
  7 35  1  0
  8  9  2  0
  8 10  1  0
 10 11  1  0
 10 36  1  0
 11 12  2  0
 11 27  1  0
 12 13  1  0
 12 24  1  0
 13 14  1  0
 13 20  1  0
 14 15  2  0
 14 19  1  0
 15 16  1  0
 15 37  1  0
 16 17  2  0
 16 38  1  0
 17 18  1  0
 17 39  1  0
 18 19  2  0
 18 40  1  0
 19 41  1  0
 20 21  1  0
 20 23  1  0
 20 42  1  6
 21 22  3  0
 23 43  1  6
 23 44  1  0
 23 45  1  0
 24 25  1  0
 24 31  2  0
 25 26  1  0
 25 28  2  0
 26 27  2  0
 26 51  1  0
 27 46  1  0
 28 29  1  0
 28 47  1  0
 29 30  2  0
 29 48  1  0
 30 31  1  0
 30 49  1  0
 31 50  1  0
M  CHG  2   1  -1  26   1
M  END
>  <s_epik_cmdline>  (1435) 
J2VwaWtfcHl0aG9uJywgJy1waCcsICc3LjAwMDAwMCcsICctcGh0JywgJzIuMDAwMDAwJywgJy1tcycsICcxNicsICctdG4nLCAnOCcsICctbWEnLCAnMjAwJywgJy1pbWFlJywgJzxpbmZpbGUubWFlPicsICctb21hZScsICc8b3V0ZmlsZS5tYWU+Jw==

>  <s_epik_input>  (1435) 
W2NIXTFbY0hdW2NIXVtjSF1jKGMxMiluW2NIXWMoW05IXUMoPU8pYyhbY0hdYzNbU0hdKVtjSF1bY0hdW2NIXTMpYzJOKFtDQEBIXShDI04pW0NIM10pYzRbY0hdW2NIXVtjSF1bY0hdW2NIXTQ=

>  <s_i_glide_gridfile>  (1435) 
ATP-Grid

>  <s_lp_Force_Field>  (1435) 
OPLS_2005

>  <s_lp_Variant>  (1435) 
rxn502b____EMOL509335____EMOL30488121____EMOL36790511-3

>  <s_lp_label>  (1435) 
2898_sdstereoexpander_1_neutralizer_1_epik_2_stereoizer_1

>  <s_m_source_file>  (1435) 
ATP-VSW-LIGPREP-001-in.maegz

>  <s_sd_BIOSOLVEIT.INFINISEE\_QUERY\_NAME>  (1435) 
Ref-Lig

>  <s_sd_BIOSOLVEIT.INFINISEE\_QUERY\_SMILES>  (1435) 
S(c1nc2c(cc1C[NH2+]Cc3ccc(cc3)C[NH+](C)C)cccc2)Cc4ccccc4

>  <s_sd_BIOSOLVEIT.INFINISEE\_REACTION\_NAME>  (1435) 
rxn502b

>  <s_sd_BIOSOLVEIT.INFINISEE\_REAGENT1\_NAME>  (1435) 
EMOL509335

>  <s_sd_BIOSOLVEIT.INFINISEE\_REAGENT1\_SMILES>  (1435) 
Sc1cc(ccc1)C(=O)O

>  <s_sd_BIOSOLVEIT.INFINISEE\_REAGENT2\_NAME>  (1435) 
EMOL30488121

>  <s_sd_BIOSOLVEIT.INFINISEE\_REAGENT2\_SMILES>  (1435) 
Brc1c(N)cnc2c1cccc2

>  <s_sd_BIOSOLVEIT.INFINISEE\_REAGENT3\_NAME>  (1435) 
EMOL36790511

>  <s_sd_BIOSOLVEIT.INFINISEE\_REAGENT3\_SMILES>  (1435) 
N#CC(Nc1ccccc1)C

>  <s_sd_BIOSOLVEIT.INFINISEE\_SPACE>  (1435) 
eXplore_7tr_2022-12

>  <s_vsw_compound_code>  (1435) 
92705

>  <s_vsw_variant>  (1435) 
92705-3

>  <r_epik_Charging_Adjusted_Penalty>  (1435) 
4.0903007398015498

>  <r_epik_Ionization_Penalty>  (1435) 
2.0434000000000001

>  <r_epik_Ionization_Penalty_Charging>  (1435) 
2.0434000000000001

>  <r_epik_Ionization_Penalty_Neutral>  (1435) 
0

>  <r_epik_State_Penalty>  (1435) 
2.0468999999999999

>  <r_i_docking_score>  (1435) 
-2.9940518669057199

>  <r_i_glide_ecoul>  (1435) 
-7.0785975456237802

>  <r_i_glide_eff_state_penalty>  (1435) 
2.0468999999999999

>  <r_i_glide_einternal>  (1435) 
1.6210472583770801

>  <r_i_glide_emodel>  (1435) 
-57.419079298435697

>  <r_i_glide_energy>  (1435) 
-39.448482036590597

>  <r_i_glide_erotb>  (1435) 
0.55014688354471297

>  <r_i_glide_esite>  (1435) 
-0.10000000000000001

>  <r_i_glide_evdw>  (1435) 
-32.369884490966797

>  <r_i_glide_gscore>  (1435) 
-5.0409518669057096

>  <r_i_glide_hbond>  (1435) 
-0.20000000000000001

>  <r_i_glide_ligand_efficiency>  (1435) 
-0.096582318287281102

>  <r_i_glide_ligand_efficiency_ln>  (1435) 
-0.67525045265740002

>  <r_i_glide_ligand_efficiency_sa>  (1435) 
-0.30340182568348001

>  <r_i_glide_lipo>  (1435) 
-1.41759183322931

>  <r_i_glide_metal>  (1435) 
-0

>  <r_i_glide_rewards>  (1435) 
-1.19322306082921

>  <r_lp_Energy>  (1435) 
35.968919999999997

>  <r_qp_ACxDN^.5/SA>  (1435) 
0.0116198

>  <r_qp_CIQPlogS>  (1435) 
-7.718

>  <r_qp_EA(eV)>  (1435) 
1.3

>  <r_qp_FISA>  (1435) 
108.785

>  <r_qp_FOSA>  (1435) 
68.887

>  <r_qp_IP(eV)>  (1435) 
8.7140000000000004

>  <r_qp_Jm>  (1435) 
0.0043704729382798603

>  <r_qp_PISA>  (1435) 
458.39600000000002

>  <r_qp_PSA>  (1435) 
69.462000000000003

>  <r_qp_PercentHumanOralAbsorption>  (1435) 
100

>  <r_qp_QPPCaco>  (1435) 
921.07299999999998

>  <r_qp_QPPMDCK>  (1435) 
925.505

>  <r_qp_QPlogBB>  (1435) 
-0.749

>  <r_qp_QPlogHERG>  (1435) 
-6.3170000000000002

>  <r_qp_QPlogKhsa>  (1435) 
0.71499999999999997

>  <r_qp_QPlogKp>  (1435) 
-1.238

>  <r_qp_QPlogPC16>  (1435) 
15.244

>  <r_qp_QPlogPo/w>  (1435) 
4.9509999999999996

>  <r_qp_QPlogPoct>  (1435) 
22.036000000000001

>  <r_qp_QPlogPw>  (1435) 
12.266

>  <r_qp_QPlogS>  (1435) 
-6.75

>  <r_qp_QPpolrz>  (1435) 
46.494

>  <r_qp_SASA>  (1435) 
692.77200000000005

>  <r_qp_SAamideO>  (1435) 
0

>  <r_qp_SAfluorine>  (1435) 
0

>  <r_qp_WPSA>  (1435) 
56.704000000000001

>  <r_qp_accptHB>  (1435) 
6

>  <r_qp_dip^2/V>  (1435) 
0.012947

>  <r_qp_dipole>  (1435) 
4.1319999999999997

>  <r_qp_donorHB>  (1435) 
1.8

>  <r_qp_glob>  (1435) 
0.83937170000000005

>  <r_qp_mol_MW>  (1435) 
424.51900000000001

>  <r_qp_volume>  (1435) 
1318.4670000000001

>  <r_sd_BIOSOLVEIT.INFINISEE\_FTREES\_SIMILARITY>  (1435) 
0.90400000000000003

>  <r_sd_BIOSOLVEIT.LOGP>  (1435) 
6.2061799999999998

>  <r_sd_BIOSOLVEIT.MOLECULAR\_WEIGHT>  (1435) 
424.52499999999998

>  <r_sd_BIOSOLVEIT.TPSA>  (1435) 
69.019999999999996

>  <i_epik_Tot_Q>  (1435) 
0

>  <i_epik_Tot_abs_Q>  (1435) 
2

>  <i_f3d_flags>  (1435) 
0

>  <i_i_glide_confnum>  (1435) 
1

>  <i_i_glide_lignum>  (1435) 
1341

>  <i_i_glide_posenum>  (1435) 
6

>  <i_i_glide_rotatable_bonds>  (1435) 
6

>  <i_lp_mmshare_version>  (1435) 
65135

>  <i_m_ct_format>  (1435) 
2

>  <i_m_source_file_index>  (1435) 
2898

>  <i_qp_#NandO>  (1435) 
5

>  <i_qp_#acid>  (1435) 
0

>  <i_qp_#amide>  (1435) 
0

>  <i_qp_#amidine>  (1435) 
0

>  <i_qp_#amine>  (1435) 
0

>  <i_qp_#in34>  (1435) 
0

>  <i_qp_#in56>  (1435) 
22

>  <i_qp_#metab>  (1435) 
5

>  <i_qp_#nonHatm>  (1435) 
31

>  <i_qp_#noncon>  (1435) 
0

>  <i_qp_#ringatoms>  (1435) 
22

>  <i_qp_#rotor>  (1435) 
7

>  <i_qp_#rtvFG>  (1435) 
1

>  <i_qp_#stars>  (1435) 
2

>  <i_qp_CNS>  (1435) 
-1

>  <i_qp_HumanOralAbsorption>  (1435) 
1

>  <i_qp_RuleOfFive>  (1435) 
0

>  <i_qp_RuleOfThree>  (1435) 
1

>  <i_sd_BIOSOLVEIT.INFINISEE\_RESULT\_RANK>  (1435) 
74604

>  <i_sd_version>  (1435) 
0

>  <b_lp_Chiralities_Consistent>  (1435) 
1

>  <b_sd_chiral_flag>  (1435) 
0

>  <canonical_id>  (1435) 
ATP-HTVS-E1CE322086D6

>  <compound_code>  (1435) 
92705

>  <title>  (1435) 
rxn502b____EMOL509335____EMOL30488121____EMOL36790511

>  <variant>  (1435) 
92705-3

>  <source_file>  (1435) 
运行/运行/ATP-VSW/ATP-VSW-DOCK_HTVS_1-001_lib/ATP-VSW-DOCK_HTVS_1-001_lib

>  <canonical_smiles>  (1435) 
C[C@H](C#N)N(c1ccccc1)c1c(NC(=O)c2cccc([S-])c2)c[nH+]c2ccccc12

>  <scaffold>  (1435) 
O=C(Nc1c[nH+]c2ccccc2c1Nc1ccccc1)c1ccccc1

>  <molecular_formula>  (1435) 
C25H20N4OS

$$$$
ATP-HTVS-E1EEBF193F90
     RDKit          3D

 59 62  0  0  0  0  0  0  0  0999 V2000
  201.2114  185.8586  160.1154 Br  0  0  0  0  0  0  0  0  0  0  0  0
  202.0998  184.1847  160.3392 C   0  0  0  0  0  0  0  0  0  0  0  0
  201.8247  183.0632  159.5145 C   0  0  0  0  0  0  0  0  0  0  0  0
  202.5618  181.8721  159.7062 C   0  0  0  0  0  0  0  0  0  0  0  0
  202.3491  180.7941  158.9139 F   0  0  0  0  0  0  0  0  0  0  0  0
  203.5416  181.7944  160.7104 C   0  0  0  0  0  0  0  0  0  0  0  0
  203.8021  182.9022  161.5329 C   0  0  0  0  0  0  0  0  0  0  0  0
  203.0796  184.0929  161.3467 C   0  0  0  0  0  0  0  0  0  0  0  0
  200.7782  183.1098  158.4090 C   0  0  1  0  0  0  0  0  0  0  0  0
  199.4750  183.5912  158.8414 N   0  0  0  0  0  0  0  0  0  0  0  0
  198.2614  183.1714  158.2765 C   0  0  0  0  0  0  0  0  0  0  0  0
  198.2884  182.2309  157.3090 N   0  0  0  0  0  0  0  0  0  0  0  0
  197.1412  181.7760  156.7928 C   0  0  0  0  0  0  0  0  0  0  0  0
  195.9497  182.2400  157.1820 N   0  0  0  0  0  0  0  0  0  0  0  0
  195.8621  183.1770  158.1486 C   0  0  0  0  0  0  0  0  0  0  0  0
  197.0370  183.6953  158.7365 C   0  0  0  0  0  0  0  0  0  0  0  0
  196.9323  184.6950  159.7335 C   0  0  0  0  0  0  0  0  0  0  0  0
  195.6667  185.1584  160.1369 C   0  0  0  0  0  0  0  0  0  0  0  0
  194.4986  184.6347  159.5444 C   0  0  0  0  0  0  0  0  0  0  0  0
  194.5976  183.6436  158.5480 C   0  0  0  0  0  0  0  0  0  0  0  0
  197.1720  180.8039  155.8119 N   0  0  0  0  0  0  0  0  0  0  0  0
  198.3352  179.9624  155.5347 C   0  0  1  0  0  0  0  0  0  0  0  0
  198.4486  179.4160  154.1139 C   0  0  0  0  0  0  0  0  0  0  0  0
  197.4862  179.7114  153.1237 C   0  0  0  0  0  0  0  0  0  0  0  0
  197.6424  179.2381  151.8033 C   0  0  0  0  0  0  0  0  0  0  0  0
  198.7531  178.4226  151.4847 C   0  0  0  0  0  0  0  0  0  0  0  0
  199.7074  178.1079  152.4714 C   0  0  0  0  0  0  0  0  0  0  0  0
  199.5565  178.6039  153.7813 C   0  0  0  0  0  0  0  0  0  0  0  0
  196.6240  179.6158  150.7368 C   0  0  1  0  0  0  0  0  0  0  0  0
  196.7686  181.0144  150.2418 N   0  0  1  0  0  0  0  0  0  0  0  0
  196.5476  182.0668  151.2668 C   0  0  2  0  0  0  0  0  0  0  0  0
  198.0202  181.2375  149.4861 C   0  0  2  0  0  0  0  0  0  0  0  0
  204.0985  180.8783  160.8385 H   0  0  0  0  0  0  0  0  0  0  0  0
  204.5649  182.8430  162.2941 H   0  0  0  0  0  0  0  0  0  0  0  0
  203.2877  184.9479  161.9727 H   0  0  0  0  0  0  0  0  0  0  0  0
  201.1472  183.7627  157.6141 H   0  0  0  0  0  0  0  0  0  0  0  0
  200.6848  182.1180  157.9607 H   0  0  0  0  0  0  0  0  0  0  0  0
  199.4600  184.3340  159.5208 H   0  0  0  0  0  0  0  0  0  0  0  0
  197.8114  185.1225  160.1894 H   0  0  0  0  0  0  0  0  0  0  0  0
  195.5880  185.9221  160.8945 H   0  0  0  0  0  0  0  0  0  0  0  0
  193.5240  184.9991  159.8479 H   0  0  0  0  0  0  0  0  0  0  0  0
  193.7062  183.2529  158.0763 H   0  0  0  0  0  0  0  0  0  0  0  0
  196.2802  180.3817  155.6069 H   0  0  0  0  0  0  0  0  0  0  0  0
  199.2568  180.5099  155.7459 H   0  0  0  0  0  0  0  0  0  0  0  0
  198.3091  179.1204  156.2232 H   0  0  0  0  0  0  0  0  0  0  0  0
  196.6219  180.3103  153.3653 H   0  0  0  0  0  0  0  0  0  0  0  0
  198.8881  178.0404  150.4785 H   0  0  0  0  0  0  0  0  0  0  0  0
  200.5551  177.4826  152.2256 H   0  0  0  0  0  0  0  0  0  0  0  0
  200.3001  178.3658  154.5314 H   0  0  0  0  0  0  0  0  0  0  0  0
  196.7179  178.9275  149.8943 H   0  0  0  0  0  0  0  0  0  0  0  0
  195.6184  179.4584  151.1357 H   0  0  0  0  0  0  0  0  0  0  0  0
  197.3075  182.0246  152.0511 H   0  0  0  0  0  0  0  0  0  0  0  0
  195.5706  181.9427  151.7339 H   0  0  0  0  0  0  0  0  0  0  0  0
  196.5695  183.0661  150.8145 H   0  0  0  0  0  0  0  0  0  0  0  0
  198.8946  181.1104  150.1247 H   0  0  0  0  0  0  0  0  0  0  0  0
  198.0459  182.2490  149.0795 H   0  0  0  0  0  0  0  0  0  0  0  0
  198.1046  180.5446  148.6463 H   0  0  0  0  0  0  0  0  0  0  0  0
  195.0732  181.9258  156.7534 H   0  0  0  0  0  0  0  0  0  0  0  0
  196.0283  181.1221  149.5638 H   0  0  0  0  0  0  0  0  0  0  0  0
  1  2  1  0
  2  3  1  0
  2  8  2  0
  3  4  2  0
  3  9  1  0
  4  5  1  0
  4  6  1  0
  6  7  2  0
  6 33  1  0
  7  8  1  0
  7 34  1  0
  8 35  1  0
  9 10  1  0
  9 36  1  6
  9 37  1  0
 10 11  1  0
 10 38  1  0
 11 12  2  0
 11 16  1  0
 12 13  1  0
 13 14  2  0
 13 21  1  0
 14 15  1  0
 14 58  1  0
 15 16  1  0
 15 20  2  0
 16 17  2  0
 17 18  1  0
 17 39  1  0
 18 19  2  0
 18 40  1  0
 19 20  1  0
 19 41  1  0
 20 42  1  0
 21 22  1  0
 21 43  1  0
 22 23  1  0
 22 44  1  1
 22 45  1  0
 23 24  2  0
 23 28  1  0
 24 25  1  0
 24 46  1  0
 25 26  2  0
 25 29  1  0
 26 27  1  0
 26 47  1  0
 27 28  2  0
 27 48  1  0
 28 49  1  0
 29 30  1  0
 29 50  1  6
 29 51  1  0
 30 31  1  0
 30 32  1  0
 30 59  1  6
 31 52  1  1
 31 53  1  0
 31 54  1  0
 32 55  1  1
 32 56  1  0
 32 57  1  0
M  CHG  2  14   1  30   1
M  END
>  <s_epik_cmdline>  (1436) 
J2VwaWtfcHl0aG9uJywgJy1waCcsICc3LjAwMDAwMCcsICctcGh0JywgJzIuMDAwMDAwJywgJy1tcycsICcxNicsICctdG4nLCAnOCcsICctbWEnLCAnMjAwJywgJy1pbWFlJywgJzxpbmZpbGUubWFlPicsICctb21hZScsICc8b3V0ZmlsZS5tYWU+Jw==

>  <s_epik_input>  (1436) 
W2NIXTFbY0hdW2NIXWMoRiljKGMxQnIpW0NIMl1bTkhdYyhjKGMyMylbY0hdW2NIXVtjSF1bY0hdMyluYyhuMilbTkhdW0NIMl1jNFtjSF1jKFtjSF1bY0hdW2NIXTQpW0NIMl1OKFtDSDNdKVtDSDNd

>  <s_i_glide_gridfile>  (1436) 
ATP-Grid

>  <s_lp_Force_Field>  (1436) 
OPLS_2005

>  <s_lp_Variant>  (1436) 
m_282030aaa____21914690____22360182____21940090-1

>  <s_lp_label>  (1436) 
1223_sdstereoexpander_1_neutralizer_1_epik_1_stereoizer_1

>  <s_m_source_file>  (1436) 
ATP-VSW-LIGPREP-002-in.maegz

>  <s_sd_BIOSOLVEIT.INFINISEE\_QUERY\_NAME>  (1436) 
Ref-Lig

>  <s_sd_BIOSOLVEIT.INFINISEE\_QUERY\_SMILES>  (1436) 
S(c1nc2c(cc1C[NH2+]Cc3ccc(cc3)C[NH+](C)C)cccc2)Cc4ccccc4

>  <s_sd_BIOSOLVEIT.INFINISEE\_REACTION\_NAME>  (1436) 
m_282030aaa

>  <s_sd_BIOSOLVEIT.INFINISEE\_REAGENT1\_SMILES>  (1436) 
[R1*]NCc1c(Br)cccc1F

>  <s_sd_BIOSOLVEIT.INFINISEE\_REAGENT2\_SMILES>  (1436) 
[R2*]c1nc([R1*])c2c(n1)cccc2

>  <s_sd_BIOSOLVEIT.INFINISEE\_REAGENT3\_SMILES>  (1436) 
[R2*]NCc1cc(ccc1)CN(C)C

>  <s_sd_BIOSOLVEIT.INFINISEE\_SPACE>  (1436) 
REALSpace_44bn_2023-08

>  <s_vsw_compound_code>  (1436) 
39106

>  <s_vsw_variant>  (1436) 
39106-1

>  <r_epik_Charging_Adjusted_Penalty>  (1436) 
0.127173381830783

>  <r_epik_Ionization_Penalty>  (1436) 
0.0608

>  <r_epik_Ionization_Penalty_Charging>  (1436) 
0.0608

>  <r_epik_Ionization_Penalty_Neutral>  (1436) 
0

>  <r_epik_State_Penalty>  (1436) 
0.066400000000000001

>  <r_i_docking_score>  (1436) 
-3.90988889867968

>  <r_i_glide_ecoul>  (1436) 
-3.6426007747650102

>  <r_i_glide_eff_state_penalty>  (1436) 
0.066400000000000001

>  <r_i_glide_einternal>  (1436) 
3.7887504100799601

>  <r_i_glide_emodel>  (1436) 
-51.927894861793099

>  <r_i_glide_energy>  (1436) 
-37.699943304061897

>  <r_i_glide_erotb>  (1436) 
0.57925022298457096

>  <r_i_glide_esite>  (1436) 
-0.244272721725627

>  <r_i_glide_evdw>  (1436) 
-34.057342529296903

>  <r_i_glide_gscore>  (1436) 
-3.9762888986796701

>  <r_i_glide_hbond>  (1436) 
-0.126479054152355

>  <r_i_glide_ligand_efficiency>  (1436) 
-0.12218402808374

>  <r_i_glide_ligand_efficiency_ln>  (1436) 
-0.87553070396044397

>  <r_i_glide_ligand_efficiency_sa>  (1436) 
-0.38791010897954997

>  <r_i_glide_lipo>  (1436) 
-1.8464409934514201

>  <r_i_glide_metal>  (1436) 
-0

>  <r_i_glide_rewards>  (1436) 
-0.089089109655252394

>  <r_lp_Energy>  (1436) 
17.508583000000002

>  <r_qp_ACxDN^.5/SA>  (1436) 
0.0113449

>  <r_qp_CIQPlogS>  (1436) 
-7.4630000000000001

>  <r_qp_EA(eV)>  (1436) 
0.64800000000000002

>  <r_qp_FISA>  (1436) 
42.218000000000004

>  <r_qp_FOSA>  (1436) 
192.30199999999999

>  <r_qp_IP(eV)>  (1436) 
8.1080000000000005

>  <r_qp_Jm>  (1436) 
0.54295306416071398

>  <r_qp_PISA>  (1436) 
323.11799999999999

>  <r_qp_PSA>  (1436) 
45.606000000000002

>  <r_qp_PercentHumanOralAbsorption>  (1436) 
100

>  <r_qp_QPPCaco>  (1436) 
982.75400000000002

>  <r_qp_QPPMDCK>  (1436) 
1229.3050000000001

>  <r_qp_QPlogBB>  (1436) 
0.29799999999999999

>  <r_qp_QPlogHERG>  (1436) 
-5.3159999999999998

>  <r_qp_QPlogKhsa>  (1436) 
0.72799999999999998

>  <r_qp_QPlogKp>  (1436) 
-2.4540000000000002

>  <r_qp_QPlogPC16>  (1436) 
13.272

>  <r_qp_QPlogPo/w>  (1436) 
4.8079999999999998

>  <r_qp_QPlogPoct>  (1436) 
19.923999999999999

>  <r_qp_QPlogPw>  (1436) 
9.8170000000000002

>  <r_qp_QPlogS>  (1436) 
-3.5049999999999999

>  <r_qp_QPpolrz>  (1436) 
42.310000000000002

>  <r_qp_SASA>  (1436) 
623.28200000000004

>  <r_qp_SAamideO>  (1436) 
0

>  <r_qp_SAfluorine>  (1436) 
17.288

>  <r_qp_WPSA>  (1436) 
65.644000000000005

>  <r_qp_accptHB>  (1436) 
5

>  <r_qp_dip^2/V>  (1436) 
0.0068840000000000004

>  <r_qp_dipole>  (1436) 
2.948

>  <r_qp_donorHB>  (1436) 
2

>  <r_qp_glob>  (1436) 
0.90624070000000001

>  <r_qp_mol_MW>  (1436) 
494.40800000000002

>  <r_qp_volume>  (1436) 
1262.248

>  <r_sd_BIOSOLVEIT.INFINISEE\_FTREES\_SIMILARITY>  (1436) 
0.91100000000000003

>  <r_sd_BIOSOLVEIT.LOGP>  (1436) 
4.4001000000000001

>  <r_sd_BIOSOLVEIT.MOLECULAR\_WEIGHT>  (1436) 
495.41699999999997

>  <r_sd_BIOSOLVEIT.TPSA>  (1436) 
54.280000000000001

>  <i_epik_Tot_Q>  (1436) 
2

>  <i_epik_Tot_abs_Q>  (1436) 
2

>  <i_f3d_flags>  (1436) 
0

>  <i_i_glide_confnum>  (1436) 
2

>  <i_i_glide_lignum>  (1436) 
429

>  <i_i_glide_posenum>  (1436) 
1

>  <i_i_glide_rotatable_bonds>  (1436) 
8

>  <i_lp_mmshare_version>  (1436) 
65135

>  <i_m_ct_format>  (1436) 
2

>  <i_m_source_file_index>  (1436) 
1223

>  <i_qp_#NandO>  (1436) 
5

>  <i_qp_#acid>  (1436) 
0

>  <i_qp_#amide>  (1436) 
0

>  <i_qp_#amidine>  (1436) 
0

>  <i_qp_#amine>  (1436) 
1

>  <i_qp_#in34>  (1436) 
0

>  <i_qp_#in56>  (1436) 
22

>  <i_qp_#metab>  (1436) 
4

>  <i_qp_#nonHatm>  (1436) 
32

>  <i_qp_#noncon>  (1436) 
0

>  <i_qp_#ringatoms>  (1436) 
22

>  <i_qp_#rotor>  (1436) 
8

>  <i_qp_#rtvFG>  (1436) 
0

>  <i_qp_#stars>  (1436) 
0

>  <i_qp_CNS>  (1436) 
1

>  <i_qp_HumanOralAbsorption>  (1436) 
3

>  <i_qp_RuleOfFive>  (1436) 
0

>  <i_qp_RuleOfThree>  (1436) 
0

>  <i_sd_BIOSOLVEIT.INFINISEE\_REAGENT1\_NAME>  (1436) 
21914690

>  <i_sd_BIOSOLVEIT.INFINISEE\_REAGENT2\_NAME>  (1436) 
22360182

>  <i_sd_BIOSOLVEIT.INFINISEE\_REAGENT3\_NAME>  (1436) 
21940090

>  <i_sd_BIOSOLVEIT.INFINISEE\_RESULT\_RANK>  (1436) 
41710

>  <i_sd_version>  (1436) 
0

>  <b_lp_Chiralities_Consistent>  (1436) 
1

>  <b_sd_chiral_flag>  (1436) 
0

>  <canonical_id>  (1436) 
ATP-HTVS-E1EEBF193F90

>  <compound_code>  (1436) 
39106

>  <title>  (1436) 
m_282030aaa____21914690____22360182____21940090

>  <variant>  (1436) 
39106-1

>  <source_file>  (1436) 
运行/运行/ATP-VSW/ATP-VSW-DOCK_HTVS_1-002_lib.maegz

>  <canonical_smiles>  (1436) 
C[NH+](C)Cc1cccc(CNc2nc(NCc3c(F)cccc3Br)c3ccccc3[nH+]2)c1

>  <scaffold>  (1436) 
c1ccc(CNc2nc(NCc3ccccc3)c3ccccc3[nH+]2)cc1

>  <molecular_formula>  (1436) 
C25H27BrFN5+2

$$$$
ATP-HTVS-E2020C00AE4E
     RDKit          3D

 53 56  0  0  0  0  0  0  0  0999 V2000
  198.7417  182.0617  153.5080 O   0  0  0  0  0  0  0  0  0  0  0  0
  198.1586  182.9857  154.0732 C   0  0  0  0  0  0  0  0  0  0  0  0
  198.4676  183.4355  155.3006 N   0  0  0  0  0  0  0  0  0  0  0  0
  199.4987  183.0089  156.1877 C   0  0  0  0  0  0  0  0  0  0  0  0
  199.4679  183.4617  157.5297 C   0  0  0  0  0  0  0  0  0  0  0  0
  198.4335  184.3237  157.9601 N   0  0  0  0  0  0  0  0  0  0  0  0
  197.1144  183.9356  158.2953 C   0  0  0  0  0  0  0  0  0  0  0  0
  196.1904  184.8370  158.8885 C   0  0  0  0  0  0  0  0  0  0  0  0
  194.8588  184.4494  159.1331 C   0  0  0  0  0  0  0  0  0  0  0  0
  194.4289  183.1488  158.8121 C   0  0  0  0  0  0  0  0  0  0  0  0
  195.3423  182.2355  158.2648 C   0  0  0  0  0  0  0  0  0  0  0  0
  196.6718  182.6192  158.0154 C   0  0  0  0  0  0  0  0  0  0  0  0
  198.8138  185.7391  158.0286 C   0  0  1  0  0  0  0  0  0  0  0  0
  197.9484  186.6065  157.2088 C   0  0  0  0  0  0  0  0  0  0  0  0
  197.2635  187.2889  156.5733 N   0  0  0  0  0  0  0  0  0  0  0  0
  200.5064  183.0527  158.4110 C   0  0  0  0  0  0  0  0  0  0  0  0
  201.5282  182.1947  157.9139 C   0  0  0  0  0  0  0  0  0  0  0  0
  201.5510  181.7812  156.6335 N   0  0  0  0  0  0  0  0  0  0  0  0
  200.5707  182.1692  155.7989 C   0  0  0  0  0  0  0  0  0  0  0  0
  202.5493  181.7653  158.7852 C   0  0  0  0  0  0  0  0  0  0  0  0
  202.5792  182.1728  160.1308 C   0  0  0  0  0  0  0  0  0  0  0  0
  201.5705  183.0223  160.6203 C   0  0  0  0  0  0  0  0  0  0  0  0
  200.5384  183.4575  159.7664 C   0  0  0  0  0  0  0  0  0  0  0  0
  196.9823  183.6777  153.3749 C   0  0  1  0  0  0  0  0  0  0  0  0
  197.3762  184.1757  151.9885 C   0  0  0  0  0  0  0  0  0  0  0  0
  197.1849  183.3923  150.8218 C   0  0  0  0  0  0  0  0  0  0  0  0
  197.5630  183.9095  149.5639 C   0  0  0  0  0  0  0  0  0  0  0  0
  198.1263  185.1949  149.4584 C   0  0  0  0  0  0  0  0  0  0  0  0
  198.3225  185.9714  150.6160 C   0  0  0  0  0  0  0  0  0  0  0  0
  197.9508  185.4610  151.8728 C   0  0  0  0  0  0  0  0  0  0  0  0
  196.5872  181.9958  150.8884 C   0  0  2  0  0  0  0  0  0  0  0  0
  197.8435  184.1326  155.6809 H   0  0  0  0  0  0  0  0  0  0  0  0
  196.4673  185.8496  159.1410 H   0  0  0  0  0  0  0  0  0  0  0  0
  194.1564  185.1593  159.5398 H   0  0  0  0  0  0  0  0  0  0  0  0
  193.4016  182.8554  158.9606 H   0  0  0  0  0  0  0  0  0  0  0  0
  195.0171  181.2395  158.0126 H   0  0  0  0  0  0  0  0  0  0  0  0
  197.3324  181.8875  157.5678 H   0  0  0  0  0  0  0  0  0  0  0  0
  198.8175  186.0846  159.0612 H   0  0  0  0  0  0  0  0  0  0  0  0
  199.8237  185.8864  157.6450 H   0  0  0  0  0  0  0  0  0  0  0  0
  200.6964  181.8014  154.7926 H   0  0  0  0  0  0  0  0  0  0  0  0
  203.3204  181.1093  158.4071 H   0  0  0  0  0  0  0  0  0  0  0  0
  203.3692  181.8302  160.7848 H   0  0  0  0  0  0  0  0  0  0  0  0
  201.5853  183.3302  161.6557 H   0  0  0  0  0  0  0  0  0  0  0  0
  199.7634  184.0952  160.1630 H   0  0  0  0  0  0  0  0  0  0  0  0
  196.1617  182.9652  153.3215 H   0  0  0  0  0  0  0  0  0  0  0  0
  196.6144  184.5227  153.9617 H   0  0  0  0  0  0  0  0  0  0  0  0
  197.4187  183.3247  148.6675 H   0  0  0  0  0  0  0  0  0  0  0  0
  198.4091  185.5844  148.4916 H   0  0  0  0  0  0  0  0  0  0  0  0
  198.7581  186.9576  150.5395 H   0  0  0  0  0  0  0  0  0  0  0  0
  198.1071  186.0649  152.7556 H   0  0  0  0  0  0  0  0  0  0  0  0
  196.5710  181.5223  149.9065 H   0  0  0  0  0  0  0  0  0  0  0  0
  195.5644  182.0359  151.2627 H   0  0  0  0  0  0  0  0  0  0  0  0
  197.1704  181.3519  151.5465 H   0  0  0  0  0  0  0  0  0  0  0  0
  1  2  2  0
  2  3  1  0
  2 24  1  0
  3  4  1  0
  3 32  1  0
  4  5  2  0
  4 19  1  0
  5  6  1  0
  5 16  1  0
  6  7  1  0
  6 13  1  0
  7  8  2  0
  7 12  1  0
  8  9  1  0
  8 33  1  0
  9 10  2  0
  9 34  1  0
 10 11  1  0
 10 35  1  0
 11 12  2  0
 11 36  1  0
 12 37  1  0
 13 14  1  0
 13 38  1  1
 13 39  1  0
 14 15  3  0
 16 17  1  0
 16 23  2  0
 17 18  1  0
 17 20  2  0
 18 19  2  0
 19 40  1  0
 20 21  1  0
 20 41  1  0
 21 22  2  0
 21 42  1  0
 22 23  1  0
 22 43  1  0
 23 44  1  0
 24 25  1  0
 24 45  1  6
 24 46  1  0
 25 26  1  0
 25 30  2  0
 26 27  2  0
 26 31  1  0
 27 28  1  0
 27 47  1  0
 28 29  2  0
 28 48  1  0
 29 30  1  0
 29 49  1  0
 30 50  1  0
 31 51  1  6
 31 52  1  0
 31 53  1  0
M  END
>  <s_epik_cmdline>  (1437) 
J2VwaWtfcHl0aG9uJywgJy1waCcsICc3LjAwMDAwMCcsICctcGh0JywgJzIuMDAwMDAwJywgJy1tcycsICcxNicsICctdG4nLCAnOCcsICctbWEnLCAnMjAwJywgJy1pbWFlJywgJzxpbmZpbGUubWFlPicsICctb21hZScsICc8b3V0ZmlsZS5tYWU+Jw==

>  <s_epik_input>  (1437) 
W2NIXTFbY0hdW2NIXVtjSF1jKFtDSDNdKWMxW0NIMl1DKD1PKVtOSF1jKFtjSF1uYyhjMjMpW2NIXVtjSF1bY0hdW2NIXTMpYzJOKFtDSDJdQyNOKWM0W2NIXVtjSF1bY0hdW2NIXVtjSF00

>  <s_i_glide_gridfile>  (1437) 
ATP-Grid

>  <s_lp_Force_Field>  (1437) 
OPLS_2005

>  <s_lp_Variant>  (1437) 
rxn502b____EMOL1014130____EMOL30488121____EMOL712348-1

>  <s_lp_label>  (1437) 
2215_sdstereoexpander_1_neutralizer_1_epik_1_stereoizer_1

>  <s_m_source_file>  (1437) 
ATP-VSW-LIGPREP-002-in.maegz

>  <s_sd_BIOSOLVEIT.INFINISEE\_QUERY\_NAME>  (1437) 
Ref-Lig

>  <s_sd_BIOSOLVEIT.INFINISEE\_QUERY\_SMILES>  (1437) 
S(c1nc2c(cc1C[NH2+]Cc3ccc(cc3)C[NH+](C)C)cccc2)Cc4ccccc4

>  <s_sd_BIOSOLVEIT.INFINISEE\_REACTION\_NAME>  (1437) 
rxn502b

>  <s_sd_BIOSOLVEIT.INFINISEE\_REAGENT1\_NAME>  (1437) 
EMOL1014130

>  <s_sd_BIOSOLVEIT.INFINISEE\_REAGENT1\_SMILES>  (1437) 
ClC(=O)Cc1c(cccc1)C

>  <s_sd_BIOSOLVEIT.INFINISEE\_REAGENT2\_NAME>  (1437) 
EMOL30488121

>  <s_sd_BIOSOLVEIT.INFINISEE\_REAGENT2\_SMILES>  (1437) 
Brc1c(N)cnc2c1cccc2

>  <s_sd_BIOSOLVEIT.INFINISEE\_REAGENT3\_NAME>  (1437) 
EMOL712348

>  <s_sd_BIOSOLVEIT.INFINISEE\_REAGENT3\_SMILES>  (1437) 
N#CCNc1ccccc1

>  <s_sd_BIOSOLVEIT.INFINISEE\_SPACE>  (1437) 
eXplore_7tr_2022-12

>  <s_vsw_compound_code>  (1437) 
70850

>  <s_vsw_variant>  (1437) 
70850-1

>  <r_epik_Charging_Adjusted_Penalty>  (1437) 
0.040260200712683603

>  <r_epik_Ionization_Penalty>  (1437) 
0.040300000000000002

>  <r_epik_Ionization_Penalty_Charging>  (1437) 
0

>  <r_epik_Ionization_Penalty_Neutral>  (1437) 
0.040300000000000002

>  <r_epik_State_Penalty>  (1437) 
0.040300000000000002

>  <r_i_docking_score>  (1437) 
-3.7657455544476099

>  <r_i_glide_ecoul>  (1437) 
-2.6084673404693599

>  <r_i_glide_eff_state_penalty>  (1437) 
0.040300000000000002

>  <r_i_glide_einternal>  (1437) 
1.41242098808289

>  <r_i_glide_emodel>  (1437) 
-44.067294825828903

>  <r_i_glide_energy>  (1437) 
-35.589451074600198

>  <r_i_glide_erotb>  (1437) 
0.71403191557007395

>  <r_i_glide_esite>  (1437) 
-0.0035525413232065902

>  <r_i_glide_evdw>  (1437) 
-32.980983734130902

>  <r_i_glide_gscore>  (1437) 
-3.8060455544476102

>  <r_i_glide_hbond>  (1437) 
0

>  <r_i_glide_ligand_efficiency>  (1437) 
-0.121475663046697

>  <r_i_glide_ligand_efficiency_ln>  (1437) 
-0.84929102876941498

>  <r_i_glide_ligand_efficiency_sa>  (1437) 
-0.38160129719450597

>  <r_i_glide_lipo>  (1437) 
-1.7531216225191999

>  <r_i_glide_metal>  (1437) 
-0

>  <r_i_glide_rewards>  (1437) 
-0.72308401839833303

>  <r_lp_Energy>  (1437) 
30.038910000000001

>  <r_qp_ACxDN^.5/SA>  (1437) 
0.0081553000000000007

>  <r_qp_CIQPlogS>  (1437) 
-7.5990000000000002

>  <r_qp_EA(eV)>  (1437) 
1.3540000000000001

>  <r_qp_FISA>  (1437) 
112.11

>  <r_qp_FOSA>  (1437) 
85.040999999999997

>  <r_qp_IP(eV)>  (1437) 
8.798

>  <r_qp_Jm>  (1437) 
0.0096646913252278407

>  <r_qp_PISA>  (1437) 
477.25999999999999

>  <r_qp_PSA>  (1437) 
71.439999999999998

>  <r_qp_PercentHumanOralAbsorption>  (1437) 
100

>  <r_qp_QPPCaco>  (1437) 
856.56799999999998

>  <r_qp_QPPMDCK>  (1437) 
418.47899999999998

>  <r_qp_QPlogBB>  (1437) 
-0.91100000000000003

>  <r_qp_QPlogHERG>  (1437) 
-6.3529999999999998

>  <r_qp_QPlogKhsa>  (1437) 
0.71699999999999997

>  <r_qp_QPlogKp>  (1437) 
-1.232

>  <r_qp_QPlogPC16>  (1437) 
14.419

>  <r_qp_QPlogPo/w>  (1437) 
4.7720000000000002

>  <r_qp_QPlogPoct>  (1437) 
19.849

>  <r_qp_QPlogPw>  (1437) 
10.689

>  <r_qp_QPlogS>  (1437) 
-6.391

>  <r_qp_QPpolrz>  (1437) 
44.890999999999998

>  <r_qp_SASA>  (1437) 
674.41099999999994

>  <r_qp_SAamideO>  (1437) 
0

>  <r_qp_SAfluorine>  (1437) 
0

>  <r_qp_WPSA>  (1437) 
0

>  <r_qp_accptHB>  (1437) 
5.5

>  <r_qp_dip^2/V>  (1437) 
0.0163827

>  <r_qp_dipole>  (1437) 
4.5679999999999996

>  <r_qp_donorHB>  (1437) 
1

>  <r_qp_glob>  (1437) 
0.84268989999999999

>  <r_qp_mol_MW>  (1437) 
406.48599999999999

>  <r_qp_volume>  (1437) 
1273.9159999999999

>  <r_sd_BIOSOLVEIT.INFINISEE\_FTREES\_SIMILARITY>  (1437) 
0.93000000000000005

>  <r_sd_BIOSOLVEIT.LOGP>  (1437) 
5.3860999999999999

>  <r_sd_BIOSOLVEIT.MOLECULAR\_WEIGHT>  (1437) 
406.48700000000002

>  <r_sd_BIOSOLVEIT.TPSA>  (1437) 
69.019999999999996

>  <i_epik_Tot_Q>  (1437) 
0

>  <i_epik_Tot_abs_Q>  (1437) 
0

>  <i_f3d_flags>  (1437) 
0

>  <i_i_glide_confnum>  (1437) 
2

>  <i_i_glide_lignum>  (1437) 
859

>  <i_i_glide_posenum>  (1437) 
8

>  <i_i_glide_rotatable_bonds>  (1437) 
7

>  <i_lp_mmshare_version>  (1437) 
65135

>  <i_m_ct_format>  (1437) 
2

>  <i_m_source_file_index>  (1437) 
2215

>  <i_qp_#NandO>  (1437) 
5

>  <i_qp_#acid>  (1437) 
0

>  <i_qp_#amide>  (1437) 
0

>  <i_qp_#amidine>  (1437) 
0

>  <i_qp_#amine>  (1437) 
0

>  <i_qp_#in34>  (1437) 
0

>  <i_qp_#in56>  (1437) 
22

>  <i_qp_#metab>  (1437) 
6

>  <i_qp_#nonHatm>  (1437) 
31

>  <i_qp_#noncon>  (1437) 
0

>  <i_qp_#ringatoms>  (1437) 
22

>  <i_qp_#rotor>  (1437) 
7

>  <i_qp_#rtvFG>  (1437) 
0

>  <i_qp_#stars>  (1437) 
1

>  <i_qp_CNS>  (1437) 
-1

>  <i_qp_HumanOralAbsorption>  (1437) 
1

>  <i_qp_RuleOfFive>  (1437) 
0

>  <i_qp_RuleOfThree>  (1437) 
1

>  <i_sd_BIOSOLVEIT.INFINISEE\_RESULT\_RANK>  (1437) 
4880

>  <i_sd_version>  (1437) 
0

>  <b_lp_Chiralities_Consistent>  (1437) 
1

>  <b_sd_chiral_flag>  (1437) 
0

>  <canonical_id>  (1437) 
ATP-HTVS-E2020C00AE4E

>  <compound_code>  (1437) 
70850

>  <title>  (1437) 
rxn502b____EMOL1014130____EMOL30488121____EMOL712348

>  <variant>  (1437) 
70850-1

>  <source_file>  (1437) 
运行/运行/ATP-VSW/ATP-VSW-DOCK_HTVS_1-002_lib.maegz

>  <canonical_smiles>  (1437) 
Cc1ccccc1CC(=O)Nc1cnc2ccccc2c1N(CC#N)c1ccccc1

>  <scaffold>  (1437) 
O=C(Cc1ccccc1)Nc1cnc2ccccc2c1Nc1ccccc1

>  <molecular_formula>  (1437) 
C26H22N4O

$$$$
ATP-HTVS-E20398B5FF99
     RDKit          3D

 60 63  0  0  0  0  0  0  0  0999 V2000
  198.5084  183.1276  152.4878 O   0  0  0  0  0  0  0  0  0  0  0  0
  198.4360  184.0179  153.3418 C   0  0  0  0  0  0  0  0  0  0  0  0
  197.8394  183.6801  154.6410 N   0  0  0  0  0  0  0  0  0  0  0  0
  197.7469  184.5680  155.6436 N   0  0  0  0  0  0  0  0  0  0  0  0
  197.1525  183.9746  156.6539 C   0  0  0  0  0  0  0  0  0  0  0  0
  196.8556  184.7670  157.8485 C   0  0  0  0  0  0  0  0  0  0  0  0
  196.2929  184.0941  158.8778 N   0  0  0  0  0  0  0  0  0  0  0  0
  195.9926  184.7748  159.9970 C   0  0  0  0  0  0  0  0  0  0  0  0
  196.2420  186.1532  160.1522 C   0  0  0  0  0  0  0  0  0  0  0  0
  196.8186  186.8601  159.0836 C   0  0  0  0  0  0  0  0  0  0  0  0
  197.1268  186.1567  157.9076 C   0  0  0  0  0  0  0  0  0  0  0  0
  196.8813  182.6155  156.3721 C   0  0  0  0  0  0  0  0  0  0  0  0
  197.3145  182.4616  155.0788 C   0  0  0  0  0  0  0  0  0  0  0  0
  197.2971  181.2133  154.2560 C   0  0  1  0  0  0  0  0  0  0  0  0
  196.9534  179.9221  155.0460 C   0  0  1  0  0  0  0  0  0  0  0  0
  197.9497  179.6063  156.1102 N   0  0  1  0  0  0  0  0  0  0  0  0
  199.0832  178.7437  155.7161 C   0  0  1  0  0  0  0  0  0  0  0  0
  199.9695  179.4129  154.6730 C   0  0  0  0  0  0  0  0  0  0  0  0
  200.9668  180.3312  155.0848 C   0  0  0  0  0  0  0  0  0  0  0  0
  201.7145  181.0390  154.1213 C   0  0  0  0  0  0  0  0  0  0  0  0
  201.4559  180.8617  152.7528 C   0  0  0  0  0  0  0  0  0  0  0  0
  200.4574  179.9565  152.3358 C   0  0  0  0  0  0  0  0  0  0  0  0
  199.7386  179.2116  153.2990 C   0  0  0  0  0  0  0  0  0  0  0  0
  198.9988  185.4376  152.9881 C   0  0  1  0  0  0  0  0  0  0  0  0
  198.4118  186.5037  153.7810 N   0  0  0  0  0  0  0  0  0  0  0  0
  200.5287  185.4275  153.1594 C   0  0  0  0  0  0  0  0  0  0  0  0
  201.4018  185.1973  152.0592 C   0  0  0  0  0  0  0  0  0  0  0  0
  202.7958  185.2351  152.2293 C   0  0  0  0  0  0  0  0  0  0  0  0
  203.3513  185.4838  153.4951 C   0  0  0  0  0  0  0  0  0  0  0  0
  202.5041  185.6856  154.6036 C   0  0  0  0  0  0  0  0  0  0  0  0
  201.1038  185.6503  154.4313 C   0  0  0  0  0  0  0  0  0  0  0  0
  198.5501  185.8385  151.5674 C   0  0  2  0  0  0  0  0  0  0  0  0
  198.2728  180.4571  156.5440 H   0  0  0  0  0  0  0  0  0  0  0  0
  197.7380  187.0483  153.2590 H   0  0  0  0  0  0  0  0  0  0  0  0
  197.8606  186.0189  154.4952 H   0  0  0  0  0  0  0  0  0  0  0  0
  195.5594  184.1996  160.7988 H   0  0  0  0  0  0  0  0  0  0  0  0
  196.0089  186.6562  161.0759 H   0  0  0  0  0  0  0  0  0  0  0  0
  197.0314  187.9139  159.1628 H   0  0  0  0  0  0  0  0  0  0  0  0
  197.5661  186.6754  157.0682 H   0  0  0  0  0  0  0  0  0  0  0  0
  196.4299  181.8858  157.0337 H   0  0  0  0  0  0  0  0  0  0  0  0
  196.5941  181.3264  153.4152 H   0  0  0  0  0  0  0  0  0  0  0  0
  198.2779  181.1303  153.8173 H   0  0  0  0  0  0  0  0  0  0  0  0
  195.9868  180.0354  155.5225 H   0  0  0  0  0  0  0  0  0  0  0  0
  196.8565  179.0653  154.3788 H   0  0  0  0  0  0  0  0  0  0  0  0
  199.6736  178.4961  156.6041 H   0  0  0  0  0  0  0  0  0  0  0  0
  198.7069  177.7903  155.3346 H   0  0  0  0  0  0  0  0  0  0  0  0
  201.1313  180.5204  156.1301 H   0  0  0  0  0  0  0  0  0  0  0  0
  202.4454  181.7677  154.4392 H   0  0  0  0  0  0  0  0  0  0  0  0
  201.9870  181.4507  152.0160 H   0  0  0  0  0  0  0  0  0  0  0  0
  200.2164  179.8649  151.2889 H   0  0  0  0  0  0  0  0  0  0  0  0
  198.9564  178.5472  152.9617 H   0  0  0  0  0  0  0  0  0  0  0  0
  201.0214  185.0026  151.0725 H   0  0  0  0  0  0  0  0  0  0  0  0
  203.4397  185.0849  151.3759 H   0  0  0  0  0  0  0  0  0  0  0  0
  204.4238  185.5232  153.6180 H   0  0  0  0  0  0  0  0  0  0  0  0
  202.9311  185.8806  155.5757 H   0  0  0  0  0  0  0  0  0  0  0  0
  200.4684  185.8138  155.2940 H   0  0  0  0  0  0  0  0  0  0  0  0
  198.9131  185.1647  150.7891 H   0  0  0  0  0  0  0  0  0  0  0  0
  198.8784  186.8526  151.3204 H   0  0  0  0  0  0  0  0  0  0  0  0
  197.4651  185.8170  151.4894 H   0  0  0  0  0  0  0  0  0  0  0  0
  197.4501  179.0813  156.8375 H   0  0  0  0  0  0  0  0  0  0  0  0
  1  2  2  0
  2  3  1  0
  2 24  1  0
  3  4  1  0
  3 13  1  0
  4  5  2  0
  5  6  1  0
  5 12  1  0
  6  7  1  0
  6 11  2  0
  7  8  2  0
  8  9  1  0
  8 36  1  0
  9 10  2  0
  9 37  1  0
 10 11  1  0
 10 38  1  0
 11 39  1  0
 12 13  2  0
 12 40  1  0
 13 14  1  0
 14 15  1  0
 14 41  1  6
 14 42  1  0
 15 16  1  0
 15 43  1  1
 15 44  1  0
 16 17  1  0
 16 33  1  1
 16 60  1  0
 17 18  1  0
 17 45  1  1
 17 46  1  0
 18 19  2  0
 18 23  1  0
 19 20  1  0
 19 47  1  0
 20 21  2  0
 20 48  1  0
 21 22  1  0
 21 49  1  0
 22 23  2  0
 22 50  1  0
 23 51  1  0
 24 25  1  1
 24 26  1  0
 24 32  1  0
 25 34  1  0
 25 35  1  0
 26 27  2  0
 26 31  1  0
 27 28  1  0
 27 52  1  0
 28 29  2  0
 28 53  1  0
 29 30  1  0
 29 54  1  0
 30 31  2  0
 30 55  1  0
 31 56  1  0
 32 57  1  6
 32 58  1  0
 32 59  1  0
M  CHG  1  16   1
M  END
>  <s_epik_cmdline>  (1438) 
J2VwaWtfcHl0aG9uJywgJy1waCcsICc3LjAwMDAwMCcsICctcGh0JywgJzIuMDAwMDAwJywgJy1tcycsICcxNicsICctdG4nLCAnOCcsICctbWEnLCAnMjAwJywgJy1pbWFlJywgJzxpbmZpbGUubWFlPicsICctb21hZScsICc8b3V0ZmlsZS5tYWU+Jw==

>  <s_epik_input>  (1438) 
W2NIXTFbY0hdW2NIXVtjSF1bY0hdYzFbQ0BAXShbTkgyXSkoW0NIM10pQyg9TyluMm5jKC1jM25bY0hdW2NIXVtjSF1bY0hdMylbY0hdYzJbQ0gyXVtDSDJdW05IXVtDSDJdYzRbY0hdW2NIXVtjSF1bY0hdW2NIXTQ=

>  <s_i_glide_gridfile>  (1438) 
ATP-Grid

>  <s_lp_Force_Field>  (1438) 
OPLS_2005

>  <s_lp_Variant>  (1438) 
Shen____49239300____530956____40180766-2

>  <s_lp_label>  (1438) 
656_sdstereoexpander_2_neutralizer_1_epik_1_stereoizer_1

>  <s_m_source_file>  (1438) 
ATP-VSW-LIGPREP-001-in.maegz

>  <s_sd_BIOSOLVEIT.INFINISEE\_QUERY\_NAME>  (1438) 
Ref-Lig

>  <s_sd_BIOSOLVEIT.INFINISEE\_QUERY\_SMILES>  (1438) 
S(c1nc2c(cc1C[NH2+]Cc3ccc(cc3)C[NH+](C)C)cccc2)Cc4ccccc4

>  <s_sd_BIOSOLVEIT.INFINISEE\_REACTION\_NAME>  (1438) 
Shen

>  <s_sd_BIOSOLVEIT.INFINISEE\_REAGENT1\_SMILES>  (1438) 
O=C(CCNCc1ccccc1)C

>  <s_sd_BIOSOLVEIT.INFINISEE\_REAGENT2\_SMILES>  (1438) 
O=C(OCC)c1ncccc1

>  <s_sd_BIOSOLVEIT.INFINISEE\_REAGENT3\_SMILES>  (1438) 
O=C(NN)C(N)(c1ccccc1)C

>  <s_sd_BIOSOLVEIT.INFINISEE\_SPACE>  (1438) 
KnowledgeSpace_290tr_2019-05

>  <s_vsw_compound_code>  (1438) 
20961

>  <s_vsw_variant>  (1438) 
20961-2

>  <r_epik_Charging_Adjusted_Penalty>  (1438) 
0.064919483162042602

>  <r_epik_Ionization_Penalty>  (1438) 
0.038199999999999998

>  <r_epik_Ionization_Penalty_Charging>  (1438) 
0.0293

>  <r_epik_Ionization_Penalty_Neutral>  (1438) 
0.0088999999999999999

>  <r_epik_State_Penalty>  (1438) 
0.035700000000000003

>  <r_i_docking_score>  (1438) 
-3.8507738871394599

>  <r_i_glide_ecoul>  (1438) 
-9.4169397354125994

>  <r_i_glide_eff_state_penalty>  (1438) 
0.035700000000000003

>  <r_i_glide_einternal>  (1438) 
5.84867191314697

>  <r_i_glide_emodel>  (1438) 
-43.178622574357703

>  <r_i_glide_energy>  (1438) 
-33.4662828445435

>  <r_i_glide_erotb>  (1438) 
0.87272429201832702

>  <r_i_glide_esite>  (1438) 
-0.108248050102505

>  <r_i_glide_evdw>  (1438) 
-24.049343109130898

>  <r_i_glide_gscore>  (1438) 
-3.8864738871394602

>  <r_i_glide_hbond>  (1438) 
-0.62103910236162696

>  <r_i_glide_ligand_efficiency>  (1438) 
-0.120336683973108

>  <r_i_glide_ligand_efficiency_ln>  (1438) 
-0.86229324146223596

>  <r_i_glide_ligand_efficiency_sa>  (1438) 
-0.38204515701719799

>  <r_i_glide_lipo>  (1438) 
-0.91399441092522504

>  <r_i_glide_metal>  (1438) 
-0

>  <r_i_glide_rewards>  (1438) 
-0.50090849999999898

>  <r_lp_Energy>  (1438) 
28.908193000000001

>  <r_qp_ACxDN^.5/SA>  (1438) 
0.015505

>  <r_qp_CIQPlogS>  (1438) 
-4.226

>  <r_qp_EA(eV)>  (1438) 
0.75800000000000001

>  <r_qp_FISA>  (1438) 
75.079999999999998

>  <r_qp_FOSA>  (1438) 
153.94800000000001

>  <r_qp_IP(eV)>  (1438) 
9.3179999999999996

>  <r_qp_Jm>  (1438) 
0.0022002732001302301

>  <r_qp_PISA>  (1438) 
552.93799999999999

>  <r_qp_PSA>  (1438) 
79.173000000000002

>  <r_qp_PercentHumanOralAbsorption>  (1438) 
87.379000000000005

>  <r_qp_QPPCaco>  (1438) 
119.595

>  <r_qp_QPPMDCK>  (1438) 
60.984999999999999

>  <r_qp_QPlogBB>  (1438) 
0.052999999999999999

>  <r_qp_QPlogHERG>  (1438) 
-9.1980000000000004

>  <r_qp_QPlogKhsa>  (1438) 
0.628

>  <r_qp_QPlogKp>  (1438) 
-4.3129999999999997

>  <r_qp_QPlogPC16>  (1438) 
16.599

>  <r_qp_QPlogPo/w>  (1438) 
3.9700000000000002

>  <r_qp_QPlogPoct>  (1438) 
25.16

>  <r_qp_QPlogPw>  (1438) 
15.397

>  <r_qp_QPlogS>  (1438) 
-3.9740000000000002

>  <r_qp_QPpolrz>  (1438) 
50.561

>  <r_qp_SASA>  (1438) 
781.96600000000001

>  <r_qp_SAamideO>  (1438) 
0

>  <r_qp_SAfluorine>  (1438) 
0

>  <r_qp_WPSA>  (1438) 
0

>  <r_qp_accptHB>  (1438) 
7

>  <r_qp_dip^2/V>  (1438) 
0.0116402

>  <r_qp_dipole>  (1438) 
4.056

>  <r_qp_donorHB>  (1438) 
3

>  <r_qp_glob>  (1438) 
0.7789777

>  <r_qp_mol_MW>  (1438) 
425.53199999999998

>  <r_qp_volume>  (1438) 
1413.585

>  <r_sd_BIOSOLVEIT.INFINISEE\_FTREES\_SIMILARITY>  (1438) 
0.90200000000000002

>  <r_sd_BIOSOLVEIT.LOGP>  (1438) 
2.0487000000000002

>  <r_sd_BIOSOLVEIT.MOLECULAR\_WEIGHT>  (1438) 
427.54899999999998

>  <r_sd_BIOSOLVEIT.TPSA>  (1438) 
92.030000000000001

>  <i_epik_Tot_Q>  (1438) 
1

>  <i_epik_Tot_abs_Q>  (1438) 
1

>  <i_f3d_flags>  (1438) 
0

>  <i_i_glide_confnum>  (1438) 
9

>  <i_i_glide_lignum>  (1438) 
92

>  <i_i_glide_posenum>  (1438) 
20

>  <i_i_glide_rotatable_bonds>  (1438) 
9

>  <i_lp_mmshare_version>  (1438) 
65135

>  <i_m_ct_format>  (1438) 
2

>  <i_m_source_file_index>  (1438) 
656

>  <i_qp_#NandO>  (1438) 
6

>  <i_qp_#acid>  (1438) 
0

>  <i_qp_#amide>  (1438) 
0

>  <i_qp_#amidine>  (1438) 
0

>  <i_qp_#amine>  (1438) 
2

>  <i_qp_#in34>  (1438) 
0

>  <i_qp_#in56>  (1438) 
23

>  <i_qp_#metab>  (1438) 
6

>  <i_qp_#nonHatm>  (1438) 
32

>  <i_qp_#noncon>  (1438) 
0

>  <i_qp_#ringatoms>  (1438) 
23

>  <i_qp_#rotor>  (1438) 
8

>  <i_qp_#rtvFG>  (1438) 
0

>  <i_qp_#stars>  (1438) 
1

>  <i_qp_CNS>  (1438) 
1

>  <i_qp_HumanOralAbsorption>  (1438) 
3

>  <i_qp_RuleOfFive>  (1438) 
0

>  <i_qp_RuleOfThree>  (1438) 
0

>  <i_sd_BIOSOLVEIT.INFINISEE\_REAGENT1\_NAME>  (1438) 
49239300

>  <i_sd_BIOSOLVEIT.INFINISEE\_REAGENT2\_NAME>  (1438) 
530956

>  <i_sd_BIOSOLVEIT.INFINISEE\_REAGENT3\_NAME>  (1438) 
40180766

>  <i_sd_BIOSOLVEIT.INFINISEE\_RESULT\_RANK>  (1438) 
93705

>  <i_sd_version>  (1438) 
0

>  <b_lp_Chiralities_Consistent>  (1438) 
1

>  <b_sd_chiral_flag>  (1438) 
0

>  <canonical_id>  (1438) 
ATP-HTVS-E20398B5FF99

>  <compound_code>  (1438) 
20961

>  <title>  (1438) 
Shen____49239300____530956____40180766

>  <variant>  (1438) 
20961-2

>  <source_file>  (1438) 
运行/运行/ATP-VSW/ATP-VSW-DOCK_HTVS_1-001_lib/ATP-VSW-DOCK_HTVS_1-001_lib

>  <canonical_smiles>  (1438) 
C[C@@](N)(C(=O)n1nc(-c2ccccn2)cc1CC[NH2+]Cc1ccccc1)c1ccccc1

>  <scaffold>  (1438) 
O=C(Cc1ccccc1)n1nc(-c2ccccn2)cc1CC[NH2+]Cc1ccccc1

>  <molecular_formula>  (1438) 
C26H28N5O+

$$$$
ATP-HTVS-E22DE85EEE62
     RDKit          3D

 54 56  0  0  0  0  0  0  0  0999 V2000
  197.4011  179.7175  153.6042 O   0  0  0  0  0  0  0  0  0  0  0  0
  197.3950  180.5822  154.6727 C   0  0  0  0  0  0  0  0  0  0  0  0
  198.0768  180.1852  155.8522 C   0  0  0  0  0  0  0  0  0  0  0  0
  198.0894  181.0136  156.9384 N   0  0  0  0  0  0  0  0  0  0  0  0
  197.4729  182.2220  156.9565 C   0  0  0  0  0  0  0  0  0  0  0  0
  196.7933  182.6602  155.8026 C   0  0  0  0  0  0  0  0  0  0  0  0
  196.7425  181.8390  154.6723 C   0  0  0  0  0  0  0  0  0  0  0  0
  197.5005  183.0553  158.2202 C   0  0  1  0  0  0  0  0  0  0  0  0
  196.5416  182.6342  159.1675 O   0  0  0  0  0  0  0  0  0  0  0  0
  198.7005  178.9416  155.9653 N   0  0  0  0  0  0  0  0  0  0  0  0
  200.1514  178.9170  155.9771 C   0  0  1  0  0  0  0  0  0  0  0  0
  200.7385  177.5422  155.7210 C   0  0  0  0  0  0  0  0  0  0  0  0
  200.8094  177.0917  154.3925 C   0  0  0  0  0  0  0  0  0  0  0  0
  201.3524  175.8197  154.0936 C   0  0  0  0  0  0  0  0  0  0  0  0
  201.8481  174.9955  155.1345 C   0  0  0  0  0  0  0  0  0  0  0  0
  202.4239  173.7483  154.8415 N   0  0  0  0  0  0  0  0  0  0  0  0
  202.4435  173.1723  153.5173 C   0  0  1  0  0  0  0  0  0  0  0  0
  201.2469  172.2343  153.2937 C   0  0  1  0  0  0  0  0  0  0  0  0
  201.4564  171.4368  152.1475 O   0  0  0  0  0  0  0  0  0  0  0  0
  201.7841  175.4729  156.4603 C   0  0  0  0  0  0  0  0  0  0  0  0
  201.2225  176.7234  156.7680 C   0  0  0  0  0  0  0  0  0  0  0  0
  196.7920  180.1146  152.3810 C   0  0  1  0  0  0  0  0  0  0  0  0
  197.2583  179.2682  151.2119 C   0  0  0  0  0  0  0  0  0  0  0  0
  198.3110  178.3417  151.3813 C   0  0  0  0  0  0  0  0  0  0  0  0
  198.7667  177.5799  150.2941 C   0  0  0  0  0  0  0  0  0  0  0  0
  198.1852  177.7467  149.0252 C   0  0  0  0  0  0  0  0  0  0  0  0
  197.1457  178.6846  148.8453 C   0  0  0  0  0  0  0  0  0  0  0  0
  196.6848  179.4436  149.9346 C   0  0  0  0  0  0  0  0  0  0  0  0
  196.2761  183.6050  155.7970 H   0  0  0  0  0  0  0  0  0  0  0  0
  196.1702  182.1900  153.8316 H   0  0  0  0  0  0  0  0  0  0  0  0
  198.4972  183.0266  158.6543 H   0  0  0  0  0  0  0  0  0  0  0  0
  197.3006  184.0965  157.9671 H   0  0  0  0  0  0  0  0  0  0  0  0
  196.7487  181.7618  159.4658 H   0  0  0  0  0  0  0  0  0  0  0  0
  198.3402  178.4341  156.7720 H   0  0  0  0  0  0  0  0  0  0  0  0
  200.5167  179.5942  155.1987 H   0  0  0  0  0  0  0  0  0  0  0  0
  200.5099  179.3343  156.9199 H   0  0  0  0  0  0  0  0  0  0  0  0
  200.4628  177.7329  153.5999 H   0  0  0  0  0  0  0  0  0  0  0  0
  201.4098  175.4898  153.0570 H   0  0  0  0  0  0  0  0  0  0  0  0
  202.6576  173.1330  155.6104 H   0  0  0  0  0  0  0  0  0  0  0  0
  202.4381  173.9554  152.7583 H   0  0  0  0  0  0  0  0  0  0  0  0
  203.3689  172.5943  153.4038 H   0  0  0  0  0  0  0  0  0  0  0  0
  201.1385  171.5580  154.1335 H   0  0  0  0  0  0  0  0  0  0  0  0
  200.3201  172.7906  153.2074 H   0  0  0  0  0  0  0  0  0  0  0  0
  202.1629  170.8573  152.3776 H   0  0  0  0  0  0  0  0  0  0  0  0
  202.1967  174.8746  157.2511 H   0  0  0  0  0  0  0  0  0  0  0  0
  201.1907  177.0589  157.7940 H   0  0  0  0  0  0  0  0  0  0  0  0
  195.7046  180.0466  152.4828 H   0  0  0  0  0  0  0  0  0  0  0  0
  197.0490  181.1383  152.1067 H   0  0  0  0  0  0  0  0  0  0  0  0
  198.7749  178.2118  152.3444 H   0  0  0  0  0  0  0  0  0  0  0  0
  199.5667  176.8692  150.4436 H   0  0  0  0  0  0  0  0  0  0  0  0
  198.5344  177.1554  148.1916 H   0  0  0  0  0  0  0  0  0  0  0  0
  196.7068  178.8101  147.8702 H   0  0  0  0  0  0  0  0  0  0  0  0
  195.8949  180.1699  149.7947 H   0  0  0  0  0  0  0  0  0  0  0  0
  198.5288  180.6906  157.7935 H   0  0  0  0  0  0  0  0  0  0  0  0
  1  2  1  0
  1 22  1  0
  2  3  2  0
  2  7  1  0
  3  4  1  0
  3 10  1  0
  4  5  2  0
  4 54  1  0
  5  6  1  0
  5  8  1  0
  6  7  2  0
  6 29  1  0
  7 30  1  0
  8  9  1  0
  8 31  1  1
  8 32  1  0
  9 33  1  0
 10 11  1  0
 10 34  1  0
 11 12  1  0
 11 35  1  6
 11 36  1  0
 12 13  1  0
 12 21  2  0
 13 14  2  0
 13 37  1  0
 14 15  1  0
 14 38  1  0
 15 16  1  0
 15 20  2  0
 16 17  1  0
 16 39  1  0
 17 18  1  0
 17 40  1  6
 17 41  1  0
 18 19  1  0
 18 42  1  1
 18 43  1  0
 19 44  1  0
 20 21  1  0
 20 45  1  0
 21 46  1  0
 22 23  1  0
 22 47  1  1
 22 48  1  0
 23 24  2  0
 23 28  1  0
 24 25  1  0
 24 49  1  0
 25 26  2  0
 25 50  1  0
 26 27  1  0
 26 51  1  0
 27 28  2  0
 27 52  1  0
 28 53  1  0
M  CHG  1   4   1
M  END
>  <s_epik_cmdline>  (1439) 
J2VwaWtfcHl0aG9uJywgJy1waCcsICc3LjAwMDAwMCcsICctcGh0JywgJzIuMDAwMDAwJywgJy1tcycsICcxNicsICctdG4nLCAnOCcsICctbWEnLCAnMjAwJywgJy1pbWFlJywgJzxpbmZpbGUubWFlPicsICctb21hZScsICc8b3V0ZmlsZS5tYWU+Jw==

>  <s_epik_input>  (1439) 
W2NIXTFbY0hdW2NIXVtjSF1bY0hdYzFbQ0gyXU9jMmMobmMoW2NIXVtjSF0yKVtDSDJdW09IXSlbTkhdW0NIMl1jM1tjSF1bY0hdYyhbY0hdW2NIXTMpW05IXVtDSDJdW0NIMl1bT0hd

>  <s_i_glide_gridfile>  (1439) 
ATP-Grid

>  <s_lp_Force_Field>  (1439) 
OPLS_2005

>  <s_lp_Variant>  (1439) 
rxn102c____EMOL30152961____EMOL324170366-1

>  <s_lp_label>  (1439) 
2572_sdstereoexpander_1_neutralizer_1_epik_1_stereoizer_1

>  <s_m_source_file>  (1439) 
ATP-VSW-LIGPREP-001-in.maegz

>  <s_sd_BIOSOLVEIT.INFINISEE\_QUERY\_NAME>  (1439) 
Ref-Lig

>  <s_sd_BIOSOLVEIT.INFINISEE\_QUERY\_SMILES>  (1439) 
S(c1nc2c(cc1C[NH2+]Cc3ccc(cc3)C[NH+](C)C)cccc2)Cc4ccccc4

>  <s_sd_BIOSOLVEIT.INFINISEE\_REACTION\_NAME>  (1439) 
rxn102c

>  <s_sd_BIOSOLVEIT.INFINISEE\_REAGENT1\_NAME>  (1439) 
EMOL30152961

>  <s_sd_BIOSOLVEIT.INFINISEE\_REAGENT1\_SMILES>  (1439) 
Clc1nc(ccc1OCc2ccccc2)CO

>  <s_sd_BIOSOLVEIT.INFINISEE\_REAGENT2\_NAME>  (1439) 
EMOL324170366

>  <s_sd_BIOSOLVEIT.INFINISEE\_REAGENT2\_SMILES>  (1439) 
OCCNc1ccc(cc1)CN

>  <s_sd_BIOSOLVEIT.INFINISEE\_SPACE>  (1439) 
eXplore_7tr_2022-12

>  <s_vsw_compound_code>  (1439) 
82273

>  <s_vsw_variant>  (1439) 
82273-1

>  <r_epik_Charging_Adjusted_Penalty>  (1439) 
0.62215796293903702

>  <r_epik_Ionization_Penalty>  (1439) 
0.31709999999999999

>  <r_epik_Ionization_Penalty_Charging>  (1439) 
0.30520000000000003

>  <r_epik_Ionization_Penalty_Neutral>  (1439) 
0.011900000000000001

>  <r_epik_State_Penalty>  (1439) 
0.31690000000000002

>  <r_i_docking_score>  (1439) 
-4.6682834695339102

>  <r_i_glide_ecoul>  (1439) 
-11.0406131744385

>  <r_i_glide_eff_state_penalty>  (1439) 
0.31690000000000002

>  <r_i_glide_einternal>  (1439) 
12.9003658294678

>  <r_i_glide_emodel>  (1439) 
-56.356195709243501

>  <r_i_glide_energy>  (1439) 
-43.029388427734403

>  <r_i_glide_erotb>  (1439) 
1.34029240775087

>  <r_i_glide_esite>  (1439) 
-0.17923717585679499

>  <r_i_glide_evdw>  (1439) 
-31.988775253295898

>  <r_i_glide_gscore>  (1439) 
-4.9851834695339097

>  <r_i_glide_hbond>  (1439) 
-0.44084353856556202

>  <r_i_glide_ligand_efficiency>  (1439) 
-0.16672440962621099

>  <r_i_glide_ligand_efficiency_ln>  (1439) 
-1.0775768915270101

>  <r_i_glide_ligand_efficiency_sa>  (1439) 
-0.50627350305109797

>  <r_i_glide_lipo>  (1439) 
-1.6348199240318599

>  <r_i_glide_metal>  (1439) 
-0

>  <r_i_glide_rewards>  (1439) 
-0.81504449999999895

>  <r_lp_Energy>  (1439) 
26.437452

>  <r_lp_tautomer_probability>  (1439) 
0.99999809609972101

>  <r_qp_ACxDN^.5/SA>  (1439) 
0.019577199999999999

>  <r_qp_CIQPlogS>  (1439) 
-5.1609999999999996

>  <r_qp_EA(eV)>  (1439) 
-0.13900000000000001

>  <r_qp_FISA>  (1439) 
148.321

>  <r_qp_FOSA>  (1439) 
210.345

>  <r_qp_IP(eV)>  (1439) 
7.8860000000000001

>  <r_qp_Jm>  (1439) 
0.39980287712547802

>  <r_qp_PISA>  (1439) 
320.69499999999999

>  <r_qp_PSA>  (1439) 
84.956000000000003

>  <r_qp_PercentHumanOralAbsorption>  (1439) 
91.540999999999997

>  <r_qp_QPPCaco>  (1439) 
388.48099999999999

>  <r_qp_QPPMDCK>  (1439) 
178.036

>  <r_qp_QPlogBB>  (1439) 
-1.6359999999999999

>  <r_qp_QPlogHERG>  (1439) 
-5.9989999999999997

>  <r_qp_QPlogKhsa>  (1439) 
0.017999999999999999

>  <r_qp_QPlogKp>  (1439) 
-1.9710000000000001

>  <r_qp_QPlogPC16>  (1439) 
13.891

>  <r_qp_QPlogPo/w>  (1439) 
3.117

>  <r_qp_QPlogPoct>  (1439) 
22.367000000000001

>  <r_qp_QPlogPw>  (1439) 
14.305999999999999

>  <r_qp_QPlogS>  (1439) 
-4.0060000000000002

>  <r_qp_QPpolrz>  (1439) 
38.539000000000001

>  <r_qp_SASA>  (1439) 
679.36099999999999

>  <r_qp_SAamideO>  (1439) 
0

>  <r_qp_SAfluorine>  (1439) 
0

>  <r_qp_WPSA>  (1439) 
0

>  <r_qp_accptHB>  (1439) 
6.6500000000000004

>  <r_qp_dip^2/V>  (1439) 
0.024667499999999998

>  <r_qp_dipole>  (1439) 
5.5140000000000002

>  <r_qp_donorHB>  (1439) 
4

>  <r_qp_glob>  (1439) 
0.81844119999999998

>  <r_qp_mol_MW>  (1439) 
379.45800000000003

>  <r_qp_volume>  (1439) 
1232.777

>  <r_sd_BIOSOLVEIT.INFINISEE\_FTREES\_SIMILARITY>  (1439) 
0.91200000000000003

>  <r_sd_BIOSOLVEIT.LOGP>  (1439) 
3.1692

>  <r_sd_BIOSOLVEIT.MOLECULAR\_WEIGHT>  (1439) 
379.45800000000003

>  <r_sd_BIOSOLVEIT.TPSA>  (1439) 
86.640000000000001

>  <i_epik_Tot_Q>  (1439) 
1

>  <i_epik_Tot_abs_Q>  (1439) 
1

>  <i_f3d_flags>  (1439) 
0

>  <i_i_glide_confnum>  (1439) 
13

>  <i_i_glide_lignum>  (1439) 
1038

>  <i_i_glide_posenum>  (1439) 
19

>  <i_i_glide_rotatable_bonds>  (1439) 
12

>  <i_lp_mmshare_version>  (1439) 
65135

>  <i_m_ct_format>  (1439) 
2

>  <i_m_source_file_index>  (1439) 
2572

>  <i_qp_#NandO>  (1439) 
6

>  <i_qp_#acid>  (1439) 
0

>  <i_qp_#amide>  (1439) 
0

>  <i_qp_#amidine>  (1439) 
0

>  <i_qp_#amine>  (1439) 
0

>  <i_qp_#in34>  (1439) 
0

>  <i_qp_#in56>  (1439) 
18

>  <i_qp_#metab>  (1439) 
9

>  <i_qp_#nonHatm>  (1439) 
28

>  <i_qp_#noncon>  (1439) 
0

>  <i_qp_#ringatoms>  (1439) 
18

>  <i_qp_#rotor>  (1439) 
12

>  <i_qp_#rtvFG>  (1439) 
0

>  <i_qp_#stars>  (1439) 
2

>  <i_qp_CNS>  (1439) 
-2

>  <i_qp_HumanOralAbsorption>  (1439) 
3

>  <i_qp_RuleOfFive>  (1439) 
0

>  <i_qp_RuleOfThree>  (1439) 
1

>  <i_sd_BIOSOLVEIT.INFINISEE\_RESULT\_RANK>  (1439) 
38087

>  <i_sd_version>  (1439) 
0

>  <b_lp_Chiralities_Consistent>  (1439) 
1

>  <b_sd_chiral_flag>  (1439) 
0

>  <canonical_id>  (1439) 
ATP-HTVS-E22DE85EEE62

>  <compound_code>  (1439) 
82273

>  <title>  (1439) 
rxn102c____EMOL30152961____EMOL324170366

>  <variant>  (1439) 
82273-1

>  <source_file>  (1439) 
运行/运行/ATP-VSW/ATP-VSW-DOCK_HTVS_1-001_lib/ATP-VSW-DOCK_HTVS_1-001_lib

>  <canonical_smiles>  (1439) 
OCCNc1ccc(CNc2[nH+]c(CO)ccc2OCc2ccccc2)cc1

>  <scaffold>  (1439) 
c1ccc(CNc2[nH+]cccc2OCc2ccccc2)cc1

>  <molecular_formula>  (1439) 
C22H26N3O3+

$$$$
ATP-HTVS-E2321FC28CB2
     RDKit          3D

 53 56  0  0  0  0  0  0  0  0999 V2000
  196.7600  180.3260  152.9042 N   0  0  0  0  0  0  0  0  0  0  0  0
  197.5016  180.0852  154.0112 C   0  0  0  0  0  0  0  0  0  0  0  0
  197.1237  180.7274  155.1983 N   0  0  0  0  0  0  0  0  0  0  0  0
  196.7797  182.1371  155.0935 C   0  0  1  0  0  0  0  0  0  0  0  0
  196.7486  182.8449  156.4330 C   0  0  0  0  0  0  0  0  0  0  0  0
  195.9610  182.3472  157.4875 C   0  0  0  0  0  0  0  0  0  0  0  0
  195.8646  183.0588  158.7001 C   0  0  0  0  0  0  0  0  0  0  0  0
  196.5766  184.2668  158.8694 C   0  0  0  0  0  0  0  0  0  0  0  0
  197.4098  184.7353  157.8344 C   0  0  0  0  0  0  0  0  0  0  0  0
  197.4804  184.0377  156.6078 C   0  0  0  0  0  0  0  0  0  0  0  0
  196.4488  185.0724  160.1506 C   0  0  1  0  0  0  0  0  0  0  0  0
  195.6820  186.3363  159.9818 N   0  0  1  0  0  0  0  0  0  0  0  0
  195.1448  186.8610  161.2601 C   0  0  2  0  0  0  0  0  0  0  0  0
  196.4356  187.3864  159.2554 C   0  0  2  0  0  0  0  0  0  0  0  0
  198.6310  179.2305  153.9721 C   0  0  0  0  0  0  0  0  0  0  0  0
  199.0052  178.6385  152.8169 N   0  0  0  0  0  0  0  0  0  0  0  0
  198.2724  178.8777  151.7056 C   0  0  0  0  0  0  0  0  0  0  0  0
  197.1290  179.7290  151.7508 C   0  0  0  0  0  0  0  0  0  0  0  0
  196.3907  179.9542  150.5698 C   0  0  0  0  0  0  0  0  0  0  0  0
  196.7745  179.3597  149.3535 C   0  0  0  0  0  0  0  0  0  0  0  0
  197.9034  178.5246  149.3074 C   0  0  0  0  0  0  0  0  0  0  0  0
  198.6409  178.2840  150.4811 C   0  0  0  0  0  0  0  0  0  0  0  0
  199.4869  178.9379  155.1393 C   0  0  0  0  0  0  0  0  0  0  0  0
  199.7704  177.6035  155.5117 C   0  0  0  0  0  0  0  0  0  0  0  0
  200.5953  177.3214  156.6192 C   0  0  0  0  0  0  0  0  0  0  0  0
  201.1505  178.3739  157.3692 C   0  0  0  0  0  0  0  0  0  0  0  0
  200.8738  179.7059  157.0134 C   0  0  0  0  0  0  0  0  0  0  0  0
  200.0509  179.9835  155.9055 C   0  0  0  0  0  0  0  0  0  0  0  0
  197.6232  180.4561  156.0341 H   0  0  0  0  0  0  0  0  0  0  0  0
  197.4956  182.6316  154.4372 H   0  0  0  0  0  0  0  0  0  0  0  0
  195.8033  182.2300  154.6146 H   0  0  0  0  0  0  0  0  0  0  0  0
  195.4037  181.4311  157.3598 H   0  0  0  0  0  0  0  0  0  0  0  0
  195.2361  182.6707  159.4878 H   0  0  0  0  0  0  0  0  0  0  0  0
  197.9479  185.6654  157.9626 H   0  0  0  0  0  0  0  0  0  0  0  0
  198.0606  184.4444  155.7913 H   0  0  0  0  0  0  0  0  0  0  0  0
  195.9626  184.4473  160.8993 H   0  0  0  0  0  0  0  0  0  0  0  0
  197.4492  185.2852  160.5301 H   0  0  0  0  0  0  0  0  0  0  0  0
  195.9452  187.0825  161.9650 H   0  0  0  0  0  0  0  0  0  0  0  0
  194.4619  186.1561  161.7302 H   0  0  0  0  0  0  0  0  0  0  0  0
  194.5906  187.7852  161.0953 H   0  0  0  0  0  0  0  0  0  0  0  0
  197.3427  187.6507  159.7993 H   0  0  0  0  0  0  0  0  0  0  0  0
  195.8488  188.3059  159.1620 H   0  0  0  0  0  0  0  0  0  0  0  0
  196.7499  187.0424  158.2470 H   0  0  0  0  0  0  0  0  0  0  0  0
  195.5282  180.6025  150.6041 H   0  0  0  0  0  0  0  0  0  0  0  0
  196.2085  179.5450  148.4529 H   0  0  0  0  0  0  0  0  0  0  0  0
  198.2066  178.0713  148.3747 H   0  0  0  0  0  0  0  0  0  0  0  0
  199.5095  177.6430  150.4434 H   0  0  0  0  0  0  0  0  0  0  0  0
  199.3482  176.7857  154.9447 H   0  0  0  0  0  0  0  0  0  0  0  0
  200.8029  176.2968  156.8927 H   0  0  0  0  0  0  0  0  0  0  0  0
  201.7857  178.1611  158.2151 H   0  0  0  0  0  0  0  0  0  0  0  0
  201.2964  180.5186  157.5854 H   0  0  0  0  0  0  0  0  0  0  0  0
  199.8537  181.0116  155.6405 H   0  0  0  0  0  0  0  0  0  0  0  0
  194.8795  186.1021  159.4154 H   0  0  0  0  0  0  0  0  0  0  0  0
  1  2  2  0
  1 18  1  0
  2  3  1  0
  2 15  1  0
  3  4  1  0
  3 29  1  0
  4  5  1  0
  4 30  1  6
  4 31  1  0
  5  6  1  0
  5 10  2  0
  6  7  2  0
  6 32  1  0
  7  8  1  0
  7 33  1  0
  8  9  2  0
  8 11  1  0
  9 10  1  0
  9 34  1  0
 10 35  1  0
 11 12  1  0
 11 36  1  1
 11 37  1  0
 12 13  1  0
 12 14  1  0
 12 53  1  6
 13 38  1  1
 13 39  1  0
 13 40  1  0
 14 41  1  1
 14 42  1  0
 14 43  1  0
 15 16  2  0
 15 23  1  0
 16 17  1  0
 17 18  1  0
 17 22  2  0
 18 19  2  0
 19 20  1  0
 19 44  1  0
 20 21  2  0
 20 45  1  0
 21 22  1  0
 21 46  1  0
 22 47  1  0
 23 24  2  0
 23 28  1  0
 24 25  1  0
 24 48  1  0
 25 26  2  0
 25 49  1  0
 26 27  1  0
 26 50  1  0
 27 28  2  0
 27 51  1  0
 28 52  1  0
M  CHG  1  12   1
M  END
>  <s_epik_cmdline>  (1440) 
J2VwaWtfcHl0aG9uJywgJy1waCcsICc3LjAwMDAwMCcsICctcGh0JywgJzIuMDAwMDAwJywgJy1tcycsICcxNicsICctdG4nLCAnOCcsICctbWEnLCAnMjAwJywgJy1pbWFlJywgJzxpbmZpbGUubWFlPicsICctb21hZScsICc8b3V0ZmlsZS5tYWU+Jw==

>  <s_epik_input>  (1440) 
W2NIXTFbY0hdW2NIXVtjSF1bY0hdYzEtYyhuMiljKG5jKGMyMylbY0hdW2NIXVtjSF1bY0hdMylbTkhdW0NIMl1jNFtjSF1bY0hdYyhbY0hdW2NIXTQpW0NIMl1OKFtDSDNdKVtDSDNd

>  <s_i_glide_gridfile>  (1440) 
ATP-Grid

>  <s_lp_Force_Field>  (1440) 
OPLS_2005

>  <s_lp_Variant>  (1440) 
rxn102c____EMOL1087657____EMOL50155899-1

>  <s_lp_label>  (1440) 
2185_sdstereoexpander_1_neutralizer_1_epik_1_stereoizer_1

>  <s_m_source_file>  (1440) 
ATP-VSW-LIGPREP-001-in.maegz

>  <s_sd_BIOSOLVEIT.INFINISEE\_QUERY\_NAME>  (1440) 
Ref-Lig

>  <s_sd_BIOSOLVEIT.INFINISEE\_QUERY\_SMILES>  (1440) 
S(c1nc2c(cc1C[NH2+]Cc3ccc(cc3)C[NH+](C)C)cccc2)Cc4ccccc4

>  <s_sd_BIOSOLVEIT.INFINISEE\_REACTION\_NAME>  (1440) 
rxn102c

>  <s_sd_BIOSOLVEIT.INFINISEE\_REAGENT1\_NAME>  (1440) 
EMOL1087657

>  <s_sd_BIOSOLVEIT.INFINISEE\_REAGENT1\_SMILES>  (1440) 
Clc1nc2c(nc1c3ccccc3)cccc2

>  <s_sd_BIOSOLVEIT.INFINISEE\_REAGENT2\_NAME>  (1440) 
EMOL50155899

>  <s_sd_BIOSOLVEIT.INFINISEE\_REAGENT2\_SMILES>  (1440) 
N(Cc1ccc(cc1)CN)(C)C

>  <s_sd_BIOSOLVEIT.INFINISEE\_SPACE>  (1440) 
eXplore_7tr_2022-12

>  <s_vsw_compound_code>  (1440) 
69889

>  <s_vsw_variant>  (1440) 
69889-1

>  <r_epik_Charging_Adjusted_Penalty>  (1440) 
0.078407994868761793

>  <r_epik_Ionization_Penalty>  (1440) 
0.039300000000000002

>  <r_epik_Ionization_Penalty_Charging>  (1440) 
0.039199999999999999

>  <r_epik_Ionization_Penalty_Neutral>  (1440) 
0.0001

>  <r_epik_State_Penalty>  (1440) 
0.039199999999999999

>  <r_i_docking_score>  (1440) 
-4.0080424672651001

>  <r_i_glide_ecoul>  (1440) 
-2.2567479610443102

>  <r_i_glide_eff_state_penalty>  (1440) 
0.039199999999999999

>  <r_i_glide_einternal>  (1440) 
1.1954827308654801

>  <r_i_glide_emodel>  (1440) 
-49.417068264638701

>  <r_i_glide_energy>  (1440) 
-38.486358404159503

>  <r_i_glide_erotb>  (1440) 
0.70619338775823304

>  <r_i_glide_esite>  (1440) 
-0.060498720861161197

>  <r_i_glide_evdw>  (1440) 
-36.229610443115199

>  <r_i_glide_gscore>  (1440) 
-4.0472424672651002

>  <r_i_glide_hbond>  (1440) 
0

>  <r_i_glide_ligand_efficiency>  (1440) 
-0.14314437383089601

>  <r_i_glide_ligand_efficiency_ln>  (1440) 
-0.92517388268519296

>  <r_i_glide_ligand_efficiency_sa>  (1440) 
-0.43467062647814297

>  <r_i_glide_lipo>  (1440) 
-1.6530496451224901

>  <r_i_glide_metal>  (1440) 
-0

>  <r_i_glide_rewards>  (1440) 
-0.88989477272727102

>  <r_lp_Energy>  (1440) 
30.681363000000001

>  <r_qp_ACxDN^.5/SA>  (1440) 
0.0067695999999999997

>  <r_qp_CIQPlogS>  (1440) 
-5.1749999999999998

>  <r_qp_EA(eV)>  (1440) 
1.002

>  <r_qp_FISA>  (1440) 
28.465

>  <r_qp_FOSA>  (1440) 
207.36099999999999

>  <r_qp_IP(eV)>  (1440) 
8.5869999999999997

>  <r_qp_Jm>  (1440) 
0.102371276668678

>  <r_qp_PISA>  (1440) 
428.90899999999999

>  <r_qp_PSA>  (1440) 
36.070999999999998

>  <r_qp_PercentHumanOralAbsorption>  (1440) 
100

>  <r_qp_QPPCaco>  (1440) 
1326.989

>  <r_qp_QPPMDCK>  (1440) 
743.07799999999997

>  <r_qp_QPlogBB>  (1440) 
0.33200000000000002

>  <r_qp_QPlogHERG>  (1440) 
-6.8730000000000002

>  <r_qp_QPlogKhsa>  (1440) 
0.878

>  <r_qp_QPlogKp>  (1440) 
-2.02

>  <r_qp_QPlogPC16>  (1440) 
13.212999999999999

>  <r_qp_QPlogPo/w>  (1440) 
4.9939999999999998

>  <r_qp_QPlogPoct>  (1440) 
18.295999999999999

>  <r_qp_QPlogPw>  (1440) 
9.0039999999999996

>  <r_qp_QPlogS>  (1440) 
-4.5369999999999999

>  <r_qp_QPpolrz>  (1440) 
43.847999999999999

>  <r_qp_SASA>  (1440) 
664.73400000000004

>  <r_qp_SAamideO>  (1440) 
0

>  <r_qp_SAfluorine>  (1440) 
0

>  <r_qp_WPSA>  (1440) 
0

>  <r_qp_accptHB>  (1440) 
4.5

>  <r_qp_dip^2/V>  (1440) 
0.0039636999999999997

>  <r_qp_dipole>  (1440) 
2.2200000000000002

>  <r_qp_donorHB>  (1440) 
1

>  <r_qp_glob>  (1440) 
0.84122079999999999

>  <r_qp_mol_MW>  (1440) 
368.48000000000002

>  <r_qp_volume>  (1440) 
1243.3389999999999

>  <r_sd_BIOSOLVEIT.INFINISEE\_FTREES\_SIMILARITY>  (1440) 
0.93600000000000005

>  <r_sd_BIOSOLVEIT.LOGP>  (1440) 
3.5533999999999999

>  <r_sd_BIOSOLVEIT.MOLECULAR\_WEIGHT>  (1440) 
369.49000000000001

>  <r_sd_BIOSOLVEIT.TPSA>  (1440) 
42.25

>  <i_epik_Tot_Q>  (1440) 
1

>  <i_epik_Tot_abs_Q>  (1440) 
1

>  <i_f3d_flags>  (1440) 
0

>  <i_i_glide_confnum>  (1440) 
3

>  <i_i_glide_lignum>  (1440) 
701

>  <i_i_glide_posenum>  (1440) 
11

>  <i_i_glide_rotatable_bonds>  (1440) 
6

>  <i_lp_mmshare_version>  (1440) 
65135

>  <i_m_ct_format>  (1440) 
2

>  <i_m_source_file_index>  (1440) 
2185

>  <i_qp_#NandO>  (1440) 
4

>  <i_qp_#acid>  (1440) 
0

>  <i_qp_#amide>  (1440) 
0

>  <i_qp_#amidine>  (1440) 
0

>  <i_qp_#amine>  (1440) 
1

>  <i_qp_#in34>  (1440) 
0

>  <i_qp_#in56>  (1440) 
22

>  <i_qp_#metab>  (1440) 
3

>  <i_qp_#nonHatm>  (1440) 
28

>  <i_qp_#noncon>  (1440) 
0

>  <i_qp_#ringatoms>  (1440) 
22

>  <i_qp_#rotor>  (1440) 
6

>  <i_qp_#rtvFG>  (1440) 
0

>  <i_qp_#stars>  (1440) 
0

>  <i_qp_CNS>  (1440) 
1

>  <i_qp_HumanOralAbsorption>  (1440) 
3

>  <i_qp_RuleOfFive>  (1440) 
0

>  <i_qp_RuleOfThree>  (1440) 
0

>  <i_sd_BIOSOLVEIT.INFINISEE\_RESULT\_RANK>  (1440) 
2421

>  <i_sd_version>  (1440) 
0

>  <b_lp_Chiralities_Consistent>  (1440) 
1

>  <b_sd_chiral_flag>  (1440) 
0

>  <canonical_id>  (1440) 
ATP-HTVS-E2321FC28CB2

>  <compound_code>  (1440) 
69889

>  <title>  (1440) 
rxn102c____EMOL1087657____EMOL50155899

>  <variant>  (1440) 
69889-1

>  <source_file>  (1440) 
运行/运行/ATP-VSW/ATP-VSW-DOCK_HTVS_1-001_lib/ATP-VSW-DOCK_HTVS_1-001_lib

>  <canonical_smiles>  (1440) 
C[NH+](C)Cc1ccc(CNc2nc3ccccc3nc2-c2ccccc2)cc1

>  <scaffold>  (1440) 
c1ccc(CNc2nc3ccccc3nc2-c2ccccc2)cc1

>  <molecular_formula>  (1440) 
C24H25N4+

$$$$
ATP-HTVS-E2660D394356
     RDKit          3D

 66 69  0  0  0  0  0  0  0  0999 V2000
  199.1248  186.6595  151.0911 F   0  0  0  0  0  0  0  0  0  0  0  0
  199.3362  187.2121  152.3092 C   0  0  0  0  0  0  0  0  0  0  0  0
  198.8177  186.5900  153.4615 C   0  0  0  0  0  0  0  0  0  0  0  0
  199.0297  187.1568  154.7376 C   0  0  0  0  0  0  0  0  0  0  0  0
  199.7752  188.3547  154.8402 C   0  0  0  0  0  0  0  0  0  0  0  0
  200.2883  188.9787  153.6861 C   0  0  0  0  0  0  0  0  0  0  0  0
  200.0713  188.4068  152.4196 C   0  0  0  0  0  0  0  0  0  0  0  0
  198.4222  186.5114  155.9827 C   0  0  2  0  0  0  0  0  0  0  0  0
  197.4713  187.5008  156.7079 C   0  0  1  0  0  0  0  0  0  0  0  0
  196.1813  187.4347  156.1446 O   0  0  0  0  0  0  0  0  0  0  0  0
  199.5194  185.9473  156.9272 C   0  0  1  0  0  0  0  0  0  0  0  0
  198.9865  185.2231  158.0743 N   0  0  0  0  0  0  0  0  0  0  0  0
  198.2957  184.0327  157.8124 C   0  0  0  0  0  0  0  0  0  0  0  0
  198.9467  183.0628  157.1458 N   0  0  0  0  0  0  0  0  0  0  0  0
  198.3307  181.8979  156.9222 C   0  0  0  0  0  0  0  0  0  0  0  0
  197.0650  181.6604  157.2913 N   0  0  0  0  0  0  0  0  0  0  0  0
  196.3589  182.6116  157.9301 C   0  0  0  0  0  0  0  0  0  0  0  0
  196.9572  183.8567  158.2361 C   0  0  0  0  0  0  0  0  0  0  0  0
  196.1943  184.8317  158.9185 C   0  0  0  0  0  0  0  0  0  0  0  0
  194.8518  184.5732  159.2515 C   0  0  0  0  0  0  0  0  0  0  0  0
  194.2677  183.3336  158.9294 C   0  0  0  0  0  0  0  0  0  0  0  0
  195.0370  182.3355  158.3005 C   0  0  0  0  0  0  0  0  0  0  0  0
  199.0803  180.9015  156.3526 N   0  0  0  0  0  0  0  0  0  0  0  0
  198.5435  179.6310  155.9020 C   0  0  1  0  0  0  0  0  0  0  0  0
  199.5460  178.5129  155.9531 C   0  0  0  0  0  0  0  0  0  0  0  0
  199.7234  177.7030  154.8232 C   0  0  0  0  0  0  0  0  0  0  0  0
  200.5856  176.5940  154.8717 C   0  0  0  0  0  0  0  0  0  0  0  0
  201.3153  176.3266  156.0561 C   0  0  0  0  0  0  0  0  0  0  0  0
  202.3174  175.1837  156.1293 N   0  0  1  0  0  0  0  0  0  0  0  0
  202.6254  174.4594  154.8692 C   0  0  2  0  0  0  0  0  0  0  0  0
  203.3967  173.1644  155.1611 C   0  0  2  0  0  0  0  0  0  0  0  0
  203.4128  175.3438  153.8685 C   0  0  2  0  0  0  0  0  0  0  0  0
  201.1444  177.1482  157.1957 C   0  0  0  0  0  0  0  0  0  0  0  0
  200.2537  178.2355  157.1415 C   0  0  0  0  0  0  0  0  0  0  0  0
  198.2433  185.6812  153.3509 H   0  0  0  0  0  0  0  0  0  0  0  0
  199.9530  188.8169  155.7997 H   0  0  0  0  0  0  0  0  0  0  0  0
  200.8512  189.8980  153.7702 H   0  0  0  0  0  0  0  0  0  0  0  0
  200.4646  188.8820  151.5334 H   0  0  0  0  0  0  0  0  0  0  0  0
  197.8410  185.6456  155.6407 H   0  0  0  0  0  0  0  0  0  0  0  0
  197.3349  187.2562  157.7605 H   0  0  0  0  0  0  0  0  0  0  0  0
  197.8461  188.5275  156.7032 H   0  0  0  0  0  0  0  0  0  0  0  0
  196.2576  187.4381  155.1967 H   0  0  0  0  0  0  0  0  0  0  0  0
  200.2090  185.2979  156.3803 H   0  0  0  0  0  0  0  0  0  0  0  0
  200.1151  186.7795  157.3079 H   0  0  0  0  0  0  0  0  0  0  0  0
  198.5446  185.8072  158.7562 H   0  0  0  0  0  0  0  0  0  0  0  0
  196.5998  185.7954  159.1767 H   0  0  0  0  0  0  0  0  0  0  0  0
  194.2550  185.3382  159.7234 H   0  0  0  0  0  0  0  0  0  0  0  0
  193.2291  183.1550  159.1597 H   0  0  0  0  0  0  0  0  0  0  0  0
  194.5901  181.3824  158.0564 H   0  0  0  0  0  0  0  0  0  0  0  0
  200.0402  181.1161  156.1260 H   0  0  0  0  0  0  0  0  0  0  0  0
  197.6772  179.3176  156.4945 H   0  0  0  0  0  0  0  0  0  0  0  0
  198.1905  179.7512  154.8795 H   0  0  0  0  0  0  0  0  0  0  0  0
  199.1883  177.8917  153.9037 H   0  0  0  0  0  0  0  0  0  0  0  0
  200.6414  176.0062  153.9730 H   0  0  0  0  0  0  0  0  0  0  0  0
  203.1913  175.5349  156.5019 H   0  0  0  0  0  0  0  0  0  0  0  0
  201.6944  174.1002  154.4355 H   0  0  0  0  0  0  0  0  0  0  0  0
  203.5618  172.6228  154.2330 H   0  0  0  0  0  0  0  0  0  0  0  0
  202.8391  172.5016  155.8225 H   0  0  0  0  0  0  0  0  0  0  0  0
  204.3612  173.3745  155.6111 H   0  0  0  0  0  0  0  0  0  0  0  0
  203.6015  174.7986  152.9399 H   0  0  0  0  0  0  0  0  0  0  0  0
  204.3802  175.6528  154.2814 H   0  0  0  0  0  0  0  0  0  0  0  0
  202.8985  176.2620  153.5822 H   0  0  0  0  0  0  0  0  0  0  0  0
  201.6641  176.9758  158.1277 H   0  0  0  0  0  0  0  0  0  0  0  0
  200.0867  178.8191  158.0341 H   0  0  0  0  0  0  0  0  0  0  0  0
  196.6215  180.7508  157.1732 H   0  0  0  0  0  0  0  0  0  0  0  0
  201.9995  174.4886  156.7940 H   0  0  0  0  0  0  0  0  0  0  0  0
  1  2  1  0
  2  3  2  0
  2  7  1  0
  3  4  1  0
  3 35  1  0
  4  5  2  0
  4  8  1  0
  5  6  1  0
  5 36  1  0
  6  7  2  0
  6 37  1  0
  7 38  1  0
  8  9  1  0
  8 11  1  0
  8 39  1  6
  9 10  1  0
  9 40  1  1
  9 41  1  0
 10 42  1  0
 11 12  1  0
 11 43  1  6
 11 44  1  0
 12 13  1  0
 12 45  1  0
 13 14  2  0
 13 18  1  0
 14 15  1  0
 15 16  2  0
 15 23  1  0
 16 17  1  0
 16 65  1  0
 17 18  1  0
 17 22  2  0
 18 19  2  0
 19 20  1  0
 19 46  1  0
 20 21  2  0
 20 47  1  0
 21 22  1  0
 21 48  1  0
 22 49  1  0
 23 24  1  0
 23 50  1  0
 24 25  1  0
 24 51  1  1
 24 52  1  0
 25 26  1  0
 25 34  2  0
 26 27  2  0
 26 53  1  0
 27 28  1  0
 27 54  1  0
 28 29  1  0
 28 33  2  0
 29 30  1  0
 29 55  1  1
 29 66  1  0
 30 31  1  0
 30 32  1  0
 30 56  1  6
 31 57  1  6
 31 58  1  0
 31 59  1  0
 32 60  1  6
 32 61  1  0
 32 62  1  0
 33 34  1  0
 33 63  1  0
 34 64  1  0
M  CHG  2  16   1  29   1
M  END
>  <s_epik_cmdline>  (1441) 
J2VwaWtfcHl0aG9uJywgJy1waCcsICc3LjAwMDAwMCcsICctcGh0JywgJzIuMDAwMDAwJywgJy1tcycsICcxNicsICctdG4nLCAnOCcsICctbWEnLCAnMjAwJywgJy1pbWFlJywgJzxpbmZpbGUubWFlPicsICctb21hZScsICc8b3V0ZmlsZS5tYWU+Jw==

>  <s_epik_input>  (1441) 
RmMxW2NIXWMoW2NIXVtjSF1bY0hdMSlbQ0BIXShbQ0gyXVtPSF0pW0NIMl1bTkhdYyhjKGMyMylbY0hdW2NIXVtjSF1bY0hdMyluYyhuMilbTkhdW0NIMl1jNFtjSF1bY0hdYyhbY0hdW2NIXTQpW05IXVtDSF0oW0NIM10pW0NIM10=

>  <s_i_glide_gridfile>  (1441) 
ATP-Grid

>  <s_lp_Force_Field>  (1441) 
OPLS_2005

>  <s_lp_Variant>  (1441) 
m_282030aaa____21899930____22360182____21979096-4

>  <s_lp_label>  (1441) 
1965_sdstereoexpander_2_neutralizer_1_epik_2_stereoizer_1

>  <s_m_source_file>  (1441) 
ATP-VSW-LIGPREP-002-in.maegz

>  <s_sd_BIOSOLVEIT.INFINISEE\_QUERY\_NAME>  (1441) 
Ref-Lig

>  <s_sd_BIOSOLVEIT.INFINISEE\_QUERY\_SMILES>  (1441) 
S(c1nc2c(cc1C[NH2+]Cc3ccc(cc3)C[NH+](C)C)cccc2)Cc4ccccc4

>  <s_sd_BIOSOLVEIT.INFINISEE\_REACTION\_NAME>  (1441) 
m_282030aaa

>  <s_sd_BIOSOLVEIT.INFINISEE\_REAGENT1\_SMILES>  (1441) 
[R1*]NCC(c1cc(F)ccc1)CO

>  <s_sd_BIOSOLVEIT.INFINISEE\_REAGENT2\_SMILES>  (1441) 
[R2*]c1nc([R1*])c2c(n1)cccc2

>  <s_sd_BIOSOLVEIT.INFINISEE\_REAGENT3\_SMILES>  (1441) 
[R2*]NCc1ccc(NC(C)C)cc1

>  <s_sd_BIOSOLVEIT.INFINISEE\_SPACE>  (1441) 
REALSpace_44bn_2023-08

>  <s_vsw_compound_code>  (1441) 
62850

>  <s_vsw_variant>  (1441) 
62850-4

>  <r_epik_Charging_Adjusted_Penalty>  (1441) 
1.90222491976644

>  <r_epik_Ionization_Penalty>  (1441) 
0.94820000000000004

>  <r_epik_Ionization_Penalty_Charging>  (1441) 
0.94820000000000004

>  <r_epik_Ionization_Penalty_Neutral>  (1441) 
0

>  <r_epik_State_Penalty>  (1441) 
0.95399999999999996

>  <r_i_docking_score>  (1441) 
-4.4530252736880103

>  <r_i_glide_ecoul>  (1441) 
-9.3629407882690394

>  <r_i_glide_eff_state_penalty>  (1441) 
0.95399999999999996

>  <r_i_glide_einternal>  (1441) 
7.2039051055908203

>  <r_i_glide_emodel>  (1441) 
-62.309304395103702

>  <r_i_glide_energy>  (1441) 
-42.404231071472203

>  <r_i_glide_erotb>  (1441) 
0.75614878094372895

>  <r_i_glide_esite>  (1441) 
-0.15353990233045101

>  <r_i_glide_evdw>  (1441) 
-33.041290283203097

>  <r_i_glide_gscore>  (1441) 
-5.40702527368801

>  <r_i_glide_hbond>  (1441) 
-0.78430196294899202

>  <r_i_glide_ligand_efficiency>  (1441) 
-0.13097133157905899

>  <r_i_glide_ligand_efficiency_ln>  (1441) 
-0.98379818608585701

>  <r_i_glide_ligand_efficiency_sa>  (1441) 
-0.42429627091380501

>  <r_i_glide_lipo>  (1441) 
-1.54488769752397

>  <r_i_glide_metal>  (1441) 
-0

>  <r_i_glide_rewards>  (1441) 
-0.62393885942780902

>  <r_lp_Energy>  (1441) 
21.455126

>  <r_qp_ACxDN^.5/SA>  (1441) 
0.016333799999999999

>  <r_qp_CIQPlogS>  (1441) 
-7.2919999999999998

>  <r_qp_EA(eV)>  (1441) 
0.71899999999999997

>  <r_qp_FISA>  (1441) 
104.039

>  <r_qp_FOSA>  (1441) 
268.23700000000002

>  <r_qp_IP(eV)>  (1441) 
8.1120000000000001

>  <r_qp_Jm>  (1441) 
0.45742863511729098

>  <r_qp_PISA>  (1441) 
316.24599999999998

>  <r_qp_PSA>  (1441) 
76.679000000000002

>  <r_qp_PercentHumanOralAbsorption>  (1441) 
100

>  <r_qp_QPPCaco>  (1441) 
1021.639

>  <r_qp_QPPMDCK>  (1441) 
570.15800000000002

>  <r_qp_QPlogBB>  (1441) 
-1.0129999999999999

>  <r_qp_QPlogHERG>  (1441) 
-5.2939999999999996

>  <r_qp_QPlogKhsa>  (1441) 
0.61399999999999999

>  <r_qp_QPlogKp>  (1441) 
-1.2669999999999999

>  <r_qp_QPlogPC16>  (1441) 
14.805999999999999

>  <r_qp_QPlogPo/w>  (1441) 
4.7619999999999996

>  <r_qp_QPlogPoct>  (1441) 
24.074000000000002

>  <r_qp_QPlogPw>  (1441) 
13.307

>  <r_qp_QPlogS>  (1441) 
-4.7350000000000003

>  <r_qp_QPpolrz>  (1441) 
45.206000000000003

>  <r_qp_SASA>  (1441) 
697.94000000000005

>  <r_qp_SAamideO>  (1441) 
0

>  <r_qp_SAfluorine>  (1441) 
9.4190000000000005

>  <r_qp_WPSA>  (1441) 
9.4190000000000005

>  <r_qp_accptHB>  (1441) 
5.7000000000000002

>  <r_qp_dip^2/V>  (1441) 
0.0099445999999999996

>  <r_qp_dipole>  (1441) 
3.71

>  <r_qp_donorHB>  (1441) 
4

>  <r_qp_glob>  (1441) 
0.86069300000000004

>  <r_qp_mol_MW>  (1441) 
459.565

>  <r_qp_volume>  (1441) 
1384.3710000000001

>  <r_sd_BIOSOLVEIT.INFINISEE\_FTREES\_SIMILARITY>  (1441) 
0.90200000000000002

>  <r_sd_BIOSOLVEIT.LOGP>  (1441) 
5.3893000000000004

>  <r_sd_BIOSOLVEIT.MOLECULAR\_WEIGHT>  (1441) 
459.56599999999997

>  <r_sd_BIOSOLVEIT.TPSA>  (1441) 
82.099999999999994

>  <i_epik_Tot_Q>  (1441) 
2

>  <i_epik_Tot_abs_Q>  (1441) 
2

>  <i_f3d_flags>  (1441) 
0

>  <i_i_glide_confnum>  (1441) 
3

>  <i_i_glide_lignum>  (1441) 
708

>  <i_i_glide_posenum>  (1441) 
2

>  <i_i_glide_rotatable_bonds>  (1441) 
11

>  <i_lp_mmshare_version>  (1441) 
65135

>  <i_m_ct_format>  (1441) 
2

>  <i_m_source_file_index>  (1441) 
1965

>  <i_qp_#NandO>  (1441) 
6

>  <i_qp_#acid>  (1441) 
0

>  <i_qp_#amide>  (1441) 
0

>  <i_qp_#amidine>  (1441) 
0

>  <i_qp_#amine>  (1441) 
0

>  <i_qp_#in34>  (1441) 
0

>  <i_qp_#in56>  (1441) 
22

>  <i_qp_#metab>  (1441) 
6

>  <i_qp_#nonHatm>  (1441) 
34

>  <i_qp_#noncon>  (1441) 
0

>  <i_qp_#ringatoms>  (1441) 
22

>  <i_qp_#rotor>  (1441) 
11

>  <i_qp_#rtvFG>  (1441) 
0

>  <i_qp_#stars>  (1441) 
0

>  <i_qp_CNS>  (1441) 
-2

>  <i_qp_HumanOralAbsorption>  (1441) 
3

>  <i_qp_RuleOfFive>  (1441) 
0

>  <i_qp_RuleOfThree>  (1441) 
0

>  <i_sd_BIOSOLVEIT.INFINISEE\_REAGENT1\_NAME>  (1441) 
21899930

>  <i_sd_BIOSOLVEIT.INFINISEE\_REAGENT2\_NAME>  (1441) 
22360182

>  <i_sd_BIOSOLVEIT.INFINISEE\_REAGENT3\_NAME>  (1441) 
21979096

>  <i_sd_BIOSOLVEIT.INFINISEE\_RESULT\_RANK>  (1441) 
88397

>  <i_sd_version>  (1441) 
0

>  <b_lp_Chiralities_Consistent>  (1441) 
1

>  <b_sd_chiral_flag>  (1441) 
0

>  <canonical_id>  (1441) 
ATP-HTVS-E2660D394356

>  <compound_code>  (1441) 
62850

>  <title>  (1441) 
m_282030aaa____21899930____22360182____21979096

>  <variant>  (1441) 
62850-4

>  <source_file>  (1441) 
运行/运行/ATP-VSW/ATP-VSW-DOCK_HTVS_1-002_lib.maegz

>  <canonical_smiles>  (1441) 
CC(C)[NH2+]c1ccc(CNc2nc(NC[C@@H](CO)c3cccc(F)c3)c3ccccc3[nH+]2)cc1

>  <scaffold>  (1441) 
c1ccc(CCNc2nc(NCc3ccccc3)[nH+]c3ccccc23)cc1

>  <molecular_formula>  (1441) 
C27H32FN5O+2

$$$$
ATP-HTVS-E27332E37A66
     RDKit          3D

 61 64  0  0  0  0  0  0  0  0999 V2000
  196.3680  189.7875  160.8203 Cl  0  0  0  0  0  0  0  0  0  0  0  0
  196.3502  188.1980  160.1528 C   0  0  0  0  0  0  0  0  0  0  0  0
  195.9178  187.1198  160.9323 C   0  0  0  0  0  0  0  0  0  0  0  0
  195.9058  185.8206  160.4024 C   0  0  0  0  0  0  0  0  0  0  0  0
  196.3082  185.5575  159.0670 C   0  0  0  0  0  0  0  0  0  0  0  0
  196.7290  186.6642  158.2916 C   0  0  0  0  0  0  0  0  0  0  0  0
  196.7596  187.9674  158.8215 C   0  0  0  0  0  0  0  0  0  0  0  0
  196.3013  184.1642  158.5233 C   0  0  2  0  0  0  0  0  0  0  0  0
  195.2545  183.2810  159.1221 N   0  0  0  0  0  0  0  0  0  0  0  0
  193.9116  183.7816  158.8072 C   0  0  2  0  0  0  0  0  0  0  0  0
  195.2979  181.8938  158.6626 C   0  0  2  0  0  0  0  0  0  0  0  0
  197.7678  183.6886  158.7354 C   0  0  0  0  0  0  0  0  0  0  0  0
  198.3315  183.8410  159.8258 O   0  0  0  0  0  0  0  0  0  0  0  0
  198.3379  183.1201  157.6755 N   0  0  0  0  0  0  0  0  0  0  0  0
  199.6108  182.5080  157.5033 C   0  0  0  0  0  0  0  0  0  0  0  0
  200.6371  182.7845  158.3266 N   0  0  0  0  0  0  0  0  0  0  0  0
  201.8420  182.2116  158.1483 C   0  0  0  0  0  0  0  0  0  0  0  0
  202.0777  181.3249  157.0621 C   0  0  0  0  0  0  0  0  0  0  0  0
  201.0177  181.0207  156.1922 C   0  0  0  0  0  0  0  0  0  0  0  0
  199.7401  181.5967  156.4180 C   0  0  0  0  0  0  0  0  0  0  0  0
  198.6514  181.2150  155.5871 N   0  0  0  0  0  0  0  0  0  0  0  0
  198.4266  182.0698  154.3972 C   0  0  2  0  0  0  0  0  0  0  0  0
  197.8441  183.3718  154.7635 C   0  0  0  0  0  0  0  0  0  0  0  0
  197.4052  184.4000  155.0596 N   0  0  0  0  0  0  0  0  0  0  0  0
  197.6449  181.4543  153.2376 C   0  0  0  0  0  0  0  0  0  0  0  0
  197.3427  182.2633  152.1117 C   0  0  0  0  0  0  0  0  0  0  0  0
  196.5883  181.7564  151.0317 C   0  0  0  0  0  0  0  0  0  0  0  0
  196.0963  180.4329  151.0875 C   0  0  0  0  0  0  0  0  0  0  0  0
  196.3871  179.6275  152.2028 C   0  0  0  0  0  0  0  0  0  0  0  0
  197.1971  180.1134  153.2449 C   0  0  0  0  0  0  0  0  0  0  0  0
  197.5398  180.5814  156.2845 C   0  0  2  0  0  0  0  0  0  0  0  0
  203.3683  180.7640  156.8901 C   0  0  0  0  0  0  0  0  0  0  0  0
  204.4069  181.0906  157.7839 C   0  0  0  0  0  0  0  0  0  0  0  0
  204.1656  181.9639  158.8610 C   0  0  0  0  0  0  0  0  0  0  0  0
  202.8855  182.5131  159.0386 C   0  0  0  0  0  0  0  0  0  0  0  0
  195.6038  187.2810  161.9538 H   0  0  0  0  0  0  0  0  0  0  0  0
  195.5930  185.0065  161.0318 H   0  0  0  0  0  0  0  0  0  0  0  0
  197.0535  186.5004  157.2672 H   0  0  0  0  0  0  0  0  0  0  0  0
  197.0984  188.7953  158.2148 H   0  0  0  0  0  0  0  0  0  0  0  0
  196.1031  184.2178  157.4500 H   0  0  0  0  0  0  0  0  0  0  0  0
  193.1419  183.1563  159.2642 H   0  0  0  0  0  0  0  0  0  0  0  0
  193.7202  183.8000  157.7307 H   0  0  0  0  0  0  0  0  0  0  0  0
  193.7535  184.7875  159.1970 H   0  0  0  0  0  0  0  0  0  0  0  0
  194.5029  181.2882  159.1010 H   0  0  0  0  0  0  0  0  0  0  0  0
  196.2341  181.4108  158.9397 H   0  0  0  0  0  0  0  0  0  0  0  0
  195.1541  181.8450  157.5828 H   0  0  0  0  0  0  0  0  0  0  0  0
  197.7198  182.9736  156.8964 H   0  0  0  0  0  0  0  0  0  0  0  0
  201.1695  180.3238  155.3746 H   0  0  0  0  0  0  0  0  0  0  0  0
  199.3963  182.3341  153.9817 H   0  0  0  0  0  0  0  0  0  0  0  0
  197.6963  183.2894  152.0754 H   0  0  0  0  0  0  0  0  0  0  0  0
  196.4143  182.3772  150.1606 H   0  0  0  0  0  0  0  0  0  0  0  0
  195.5089  180.0433  150.2696 H   0  0  0  0  0  0  0  0  0  0  0  0
  195.9798  178.6287  152.2659 H   0  0  0  0  0  0  0  0  0  0  0  0
  197.4432  179.4460  154.0648 H   0  0  0  0  0  0  0  0  0  0  0  0
  197.9153  179.8479  156.9979 H   0  0  0  0  0  0  0  0  0  0  0  0
  196.7687  180.1380  155.6815 H   0  0  0  0  0  0  0  0  0  0  0  0
  197.0547  181.3353  156.8809 H   0  0  0  0  0  0  0  0  0  0  0  0
  203.5681  180.0820  156.0725 H   0  0  0  0  0  0  0  0  0  0  0  0
  205.3902  180.6645  157.6486 H   0  0  0  0  0  0  0  0  0  0  0  0
  204.9558  182.2170  159.5502 H   0  0  0  0  0  0  0  0  0  0  0  0
  202.6854  183.1856  159.8578 H   0  0  0  0  0  0  0  0  0  0  0  0
  1  2  1  0
  2  3  1  0
  2  7  2  0
  3  4  2  0
  3 36  1  0
  4  5  1  0
  4 37  1  0
  5  6  2  0
  5  8  1  0
  6  7  1  0
  6 38  1  0
  7 39  1  0
  8  9  1  0
  8 12  1  0
  8 40  1  6
  9 10  1  0
  9 11  1  0
 10 41  1  1
 10 42  1  0
 10 43  1  0
 11 44  1  1
 11 45  1  0
 11 46  1  0
 12 13  2  0
 12 14  1  0
 14 15  1  0
 14 47  1  0
 15 16  2  0
 15 20  1  0
 16 17  1  0
 17 18  1  0
 17 35  2  0
 18 19  1  0
 18 32  2  0
 19 20  2  0
 19 48  1  0
 20 21  1  0
 21 22  1  0
 21 31  1  0
 22 23  1  0
 22 25  1  0
 22 49  1  6
 23 24  3  0
 25 26  2  0
 25 30  1  0
 26 27  1  0
 26 50  1  0
 27 28  2  0
 27 51  1  0
 28 29  1  0
 28 52  1  0
 29 30  2  0
 29 53  1  0
 30 54  1  0
 31 55  1  1
 31 56  1  0
 31 57  1  0
 32 33  1  0
 32 58  1  0
 33 34  2  0
 33 59  1  0
 34 35  1  0
 34 60  1  0
 35 61  1  0
M  END
>  <s_epik_cmdline>  (1442) 
J2VwaWtfcHl0aG9uJywgJy1waCcsICc3LjAwMDAwMCcsICctcGh0JywgJzIuMDAwMDAwJywgJy1tcycsICcxNicsICctdG4nLCAnOCcsICctbWEnLCAnMjAwJywgJy1pbWFlJywgJzxpbmZpbGUubWFlPicsICctb21hZScsICc8b3V0ZmlsZS5tYWU+Jw==

>  <s_epik_input>  (1442) 
Q2xjMVtjSF1bY0hdYyhbY0hdW2NIXTEpW0NASF0oTihbQ0gzXSlbQ0gzXSlDKD1PKVtOSF1jKG4yKWMoW2NIXWMoYzIzKVtjSF1bY0hdW2NIXVtjSF0zKU4oW0NIM10pW0NASF0oQyNOKWM0W2NIXVtjSF1bY0hdW2NIXVtjSF00

>  <s_i_glide_gridfile>  (1442) 
ATP-Grid

>  <s_lp_Force_Field>  (1442) 
OPLS_2005

>  <s_lp_Variant>  (1442) 
rxn502b____EMOL331054254____EMOL44466703____EMOL24630243-4

>  <s_lp_label>  (1442) 
2652_sdstereoexpander_4_neutralizer_1_epik_1_stereoizer_1

>  <s_m_source_file>  (1442) 
ATP-VSW-LIGPREP-002-in.maegz

>  <s_sd_BIOSOLVEIT.INFINISEE\_QUERY\_NAME>  (1442) 
Ref-Lig

>  <s_sd_BIOSOLVEIT.INFINISEE\_QUERY\_SMILES>  (1442) 
S(c1nc2c(cc1C[NH2+]Cc3ccc(cc3)C[NH+](C)C)cccc2)Cc4ccccc4

>  <s_sd_BIOSOLVEIT.INFINISEE\_REACTION\_NAME>  (1442) 
rxn502b

>  <s_sd_BIOSOLVEIT.INFINISEE\_REAGENT1\_NAME>  (1442) 
EMOL331054254

>  <s_sd_BIOSOLVEIT.INFINISEE\_REAGENT1\_SMILES>  (1442) 
Clc1ccc(cc1)C(N(C)C)C(=O)O

>  <s_sd_BIOSOLVEIT.INFINISEE\_REAGENT2\_NAME>  (1442) 
EMOL44466703

>  <s_sd_BIOSOLVEIT.INFINISEE\_REAGENT2\_SMILES>  (1442) 
Brc1c(nc2c(c1)cccc2)N

>  <s_sd_BIOSOLVEIT.INFINISEE\_REAGENT3\_NAME>  (1442) 
EMOL24630243

>  <s_sd_BIOSOLVEIT.INFINISEE\_REAGENT3\_SMILES>  (1442) 
N#CC(NC)c1ccccc1

>  <s_sd_BIOSOLVEIT.INFINISEE\_SPACE>  (1442) 
eXplore_7tr_2022-12

>  <s_vsw_compound_code>  (1442) 
84834

>  <s_vsw_variant>  (1442) 
84834-4

>  <r_epik_Charging_Adjusted_Penalty>  (1442) 
0.13647503986833801

>  <r_epik_Ionization_Penalty>  (1442) 
0.12470000000000001

>  <r_epik_Ionization_Penalty_Charging>  (1442) 
0

>  <r_epik_Ionization_Penalty_Neutral>  (1442) 
0.12470000000000001

>  <r_epik_State_Penalty>  (1442) 
0.13650000000000001

>  <r_i_docking_score>  (1442) 
-4.0697130338406096

>  <r_i_glide_ecoul>  (1442) 
-2.96187496185303

>  <r_i_glide_eff_state_penalty>  (1442) 
0.13650000000000001

>  <r_i_glide_einternal>  (1442) 
6.5292162895202601

>  <r_i_glide_emodel>  (1442) 
-53.929462066338097

>  <r_i_glide_energy>  (1442) 
-44.898169517517097

>  <r_i_glide_erotb>  (1442) 
0.52008322312743205

>  <r_i_glide_esite>  (1442) 
-0.040706684606942101

>  <r_i_glide_evdw>  (1442) 
-41.936294555664098

>  <r_i_glide_gscore>  (1442) 
-4.2062130338406103

>  <r_i_glide_hbond>  (1442) 
0

>  <r_i_glide_ligand_efficiency>  (1442) 
-0.116277515252589

>  <r_i_glide_ligand_efficiency_ln>  (1442) 
-0.89339233334235602

>  <r_i_glide_ligand_efficiency_sa>  (1442) 
-0.38035146232442202

>  <r_i_glide_lipo>  (1442) 
-1.94466072758227

>  <r_i_glide_metal>  (1442) 
-0

>  <r_i_glide_rewards>  (1442) 
-0.19983287271766501

>  <r_lp_Energy>  (1442) 
37.269998999999999

>  <r_qp_ACxDN^.5/SA>  (1442) 
0.010635800000000001

>  <r_qp_CIQPlogS>  (1442) 
-7.1109999999999998

>  <r_qp_EA(eV)>  (1442) 
1.0089999999999999

>  <r_qp_FISA>  (1442) 
60.366

>  <r_qp_FOSA>  (1442) 
198.542

>  <r_qp_IP(eV)>  (1442) 
8.6609999999999996

>  <r_qp_Jm>  (1442) 
0.0034090370454671198

>  <r_qp_PISA>  (1442) 
424.57499999999999

>  <r_qp_PSA>  (1442) 
70.537999999999997

>  <r_qp_PercentHumanOralAbsorption>  (1442) 
100

>  <r_qp_QPPCaco>  (1442) 
661.22900000000004

>  <r_qp_QPPMDCK>  (1442) 
832.48099999999999

>  <r_qp_QPlogBB>  (1442) 
0.055

>  <r_qp_QPlogHERG>  (1442) 
-7.1429999999999998

>  <r_qp_QPlogKhsa>  (1442) 
0.621

>  <r_qp_QPlogKp>  (1442) 
-2.431

>  <r_qp_QPlogPC16>  (1442) 
15.752000000000001

>  <r_qp_QPlogPo/w>  (1442) 
4.8380000000000001

>  <r_qp_QPlogPoct>  (1442) 
23.782

>  <r_qp_QPlogPw>  (1442) 
12.432

>  <r_qp_QPlogS>  (1442) 
-5.7210000000000001

>  <r_qp_QPpolrz>  (1442) 
50.747999999999998

>  <r_qp_SASA>  (1442) 
752.17899999999997

>  <r_qp_SAamideO>  (1442) 
0

>  <r_qp_SAfluorine>  (1442) 
0

>  <r_qp_WPSA>  (1442) 
68.697000000000003

>  <r_qp_accptHB>  (1442) 
8

>  <r_qp_dip^2/V>  (1442) 
0.058355600000000001

>  <r_qp_dipole>  (1442) 
9.1950000000000003

>  <r_qp_donorHB>  (1442) 
1

>  <r_qp_glob>  (1442) 
0.82325029999999999

>  <r_qp_mol_MW>  (1442) 
483.99900000000002

>  <r_qp_volume>  (1442) 
1448.8800000000001

>  <r_sd_BIOSOLVEIT.INFINISEE\_FTREES\_SIMILARITY>  (1442) 
0.91000000000000003

>  <r_sd_BIOSOLVEIT.LOGP>  (1442) 
4.4135799999999996

>  <r_sd_BIOSOLVEIT.MOLECULAR\_WEIGHT>  (1442) 
485.00799999999998

>  <r_sd_BIOSOLVEIT.TPSA>  (1442) 
73.459999999999994

>  <i_epik_Tot_Q>  (1442) 
0

>  <i_epik_Tot_abs_Q>  (1442) 
0

>  <i_f3d_flags>  (1442) 
0

>  <i_i_glide_confnum>  (1442) 
4

>  <i_i_glide_lignum>  (1442) 
1250

>  <i_i_glide_posenum>  (1442) 
13

>  <i_i_glide_rotatable_bonds>  (1442) 
8

>  <i_lp_mmshare_version>  (1442) 
65135

>  <i_m_ct_format>  (1442) 
2

>  <i_m_source_file_index>  (1442) 
2652

>  <i_qp_#NandO>  (1442) 
6

>  <i_qp_#acid>  (1442) 
0

>  <i_qp_#amide>  (1442) 
0

>  <i_qp_#amidine>  (1442) 
0

>  <i_qp_#amine>  (1442) 
1

>  <i_qp_#in34>  (1442) 
0

>  <i_qp_#in56>  (1442) 
22

>  <i_qp_#metab>  (1442) 
5

>  <i_qp_#nonHatm>  (1442) 
35

>  <i_qp_#noncon>  (1442) 
0

>  <i_qp_#ringatoms>  (1442) 
22

>  <i_qp_#rotor>  (1442) 
8

>  <i_qp_#rtvFG>  (1442) 
0

>  <i_qp_#stars>  (1442) 
0

>  <i_qp_CNS>  (1442) 
1

>  <i_qp_HumanOralAbsorption>  (1442) 
3

>  <i_qp_RuleOfFive>  (1442) 
0

>  <i_qp_RuleOfThree>  (1442) 
1

>  <i_sd_BIOSOLVEIT.INFINISEE\_RESULT\_RANK>  (1442) 
46648

>  <i_sd_version>  (1442) 
0

>  <b_lp_Chiralities_Consistent>  (1442) 
1

>  <b_sd_chiral_flag>  (1442) 
0

>  <canonical_id>  (1442) 
ATP-HTVS-E27332E37A66

>  <compound_code>  (1442) 
84834

>  <title>  (1442) 
rxn502b____EMOL331054254____EMOL44466703____EMOL24630243

>  <variant>  (1442) 
84834-4

>  <source_file>  (1442) 
运行/运行/ATP-VSW/ATP-VSW-DOCK_HTVS_1-002_lib.maegz

>  <canonical_smiles>  (1442) 
CN(C)[C@H](C(=O)Nc1nc2ccccc2cc1N(C)[C@H](C#N)c1ccccc1)c1ccc(Cl)cc1

>  <scaffold>  (1442) 
O=C(Cc1ccccc1)Nc1nc2ccccc2cc1NCc1ccccc1

>  <molecular_formula>  (1442) 
C28H26ClN5O

$$$$
ATP-HTVS-E298C966C019
     RDKit          3D

 64 67  0  0  0  0  0  0  0  0999 V2000
  197.3047  186.3044  156.9922 N   0  0  0  0  0  0  0  0  0  0  0  0
  198.1884  186.3125  155.9866 C   0  0  0  0  0  0  0  0  0  0  0  0
  199.2987  187.0637  156.0167 N   0  0  0  0  0  0  0  0  0  0  0  0
  199.5615  187.8542  157.0824 C   0  0  0  0  0  0  0  0  0  0  0  0
  198.6618  187.8961  158.1692 C   0  0  0  0  0  0  0  0  0  0  0  0
  197.5122  187.0866  158.0712 C   0  0  0  0  0  0  0  0  0  0  0  0
  196.5480  187.0773  159.0906 N   0  0  0  0  0  0  0  0  0  0  0  0
  196.5524  185.9910  160.0599 C   0  0  1  0  0  0  0  0  0  0  0  0
  195.8813  184.7107  159.5714 C   0  0  0  0  0  0  0  0  0  0  0  0
  196.6340  183.5692  159.1970 C   0  0  0  0  0  0  0  0  0  0  0  0
  195.9714  182.3996  158.7645 C   0  0  0  0  0  0  0  0  0  0  0  0
  194.5667  182.3804  158.6680 C   0  0  0  0  0  0  0  0  0  0  0  0
  193.9330  181.2127  158.2285 N   0  0  0  0  0  0  0  0  0  0  0  0
  193.8154  183.5256  159.0029 C   0  0  0  0  0  0  0  0  0  0  0  0
  194.4662  184.6721  159.5024 C   0  0  0  0  0  0  0  0  0  0  0  0
  198.1546  183.5982  159.1982 C   0  0  2  0  0  0  0  0  0  0  0  0
  198.9382  188.7235  159.2813 C   0  0  0  0  0  0  0  0  0  0  0  0
  200.1116  189.4994  159.3009 C   0  0  0  0  0  0  0  0  0  0  0  0
  201.0067  189.4567  158.2146 C   0  0  0  0  0  0  0  0  0  0  0  0
  200.7353  188.6351  157.1027 C   0  0  0  0  0  0  0  0  0  0  0  0
  197.9709  185.5430  154.8569 N   0  0  0  0  0  0  0  0  0  0  0  0
  197.2748  184.2668  154.8676 C   0  0  1  0  0  0  0  0  0  0  0  0
  198.0585  183.0555  155.3687 C   0  0  0  0  0  0  0  0  0  0  0  0
  199.4071  182.8407  154.9501 C   0  0  0  0  0  0  0  0  0  0  0  0
  200.1137  181.7218  155.4312 C   0  0  0  0  0  0  0  0  0  0  0  0
  199.4839  180.8279  156.3387 C   0  0  0  0  0  0  0  0  0  0  0  0
  198.1469  181.0406  156.7245 C   0  0  0  0  0  0  0  0  0  0  0  0
  197.4135  182.1404  156.2403 C   0  0  0  0  0  0  0  0  0  0  0  0
  200.2341  179.6036  156.8769 C   0  0  1  0  0  0  0  0  0  0  0  0
  199.5490  178.3249  156.5563 N   0  0  1  0  0  0  0  0  0  0  0  0
  199.2570  178.1571  155.1162 C   0  0  2  0  0  0  0  0  0  0  0  0
  200.2735  177.1651  157.1116 C   0  0  2  0  0  0  0  0  0  0  0  0
  195.7710  187.7187  159.0535 H   0  0  0  0  0  0  0  0  0  0  0  0
  197.5821  185.8037  160.3757 H   0  0  0  0  0  0  0  0  0  0  0  0
  196.0273  186.3221  160.9478 H   0  0  0  0  0  0  0  0  0  0  0  0
  196.5459  181.4929  158.5139 H   0  0  0  0  0  0  0  0  0  0  0  0
  192.9450  181.1541  158.0702 H   0  0  0  0  0  0  0  0  0  0  0  0
  194.5064  180.4340  157.9136 H   0  0  0  0  0  0  0  0  0  0  0  0
  192.7332  183.5124  158.9195 H   0  0  0  0  0  0  0  0  0  0  0  0
  193.8795  185.5218  159.8162 H   0  0  0  0  0  0  0  0  0  0  0  0
  198.5724  182.6314  158.9143 H   0  0  0  0  0  0  0  0  0  0  0  0
  198.5594  183.8389  160.1772 H   0  0  0  0  0  0  0  0  0  0  0  0
  198.5326  184.3241  158.4789 H   0  0  0  0  0  0  0  0  0  0  0  0
  198.2684  188.7664  160.1261 H   0  0  0  0  0  0  0  0  0  0  0  0
  200.3205  190.1214  160.1601 H   0  0  0  0  0  0  0  0  0  0  0  0
  201.9072  190.0524  158.2357 H   0  0  0  0  0  0  0  0  0  0  0  0
  201.4297  188.6080  156.2787 H   0  0  0  0  0  0  0  0  0  0  0  0
  198.6214  185.6674  154.1019 H   0  0  0  0  0  0  0  0  0  0  0  0
  196.4312  184.3726  155.5293 H   0  0  0  0  0  0  0  0  0  0  0  0
  196.8959  184.0471  153.8740 H   0  0  0  0  0  0  0  0  0  0  0  0
  199.8824  183.5155  154.2534 H   0  0  0  0  0  0  0  0  0  0  0  0
  201.1242  181.5337  155.0956 H   0  0  0  0  0  0  0  0  0  0  0  0
  197.6729  180.3614  157.4073 H   0  0  0  0  0  0  0  0  0  0  0  0
  196.3858  182.2564  156.5964 H   0  0  0  0  0  0  0  0  0  0  0  0
  201.2444  179.5881  156.4690 H   0  0  0  0  0  0  0  0  0  0  0  0
  200.3499  179.6900  157.9593 H   0  0  0  0  0  0  0  0  0  0  0  0
  200.1770  178.1713  154.5247 H   0  0  0  0  0  0  0  0  0  0  0  0
  198.5973  178.9382  154.7342 H   0  0  0  0  0  0  0  0  0  0  0  0
  198.7551  177.2059  154.9387 H   0  0  0  0  0  0  0  0  0  0  0  0
  201.2634  177.0616  156.6611 H   0  0  0  0  0  0  0  0  0  0  0  0
  199.7177  176.2441  156.9311 H   0  0  0  0  0  0  0  0  0  0  0  0
  200.3963  177.2664  158.1912 H   0  0  0  0  0  0  0  0  0  0  0  0
  199.9613  187.0532  155.2447 H   0  0  0  0  0  0  0  0  0  0  0  0
  198.6530  178.3075  157.0467 H   0  0  0  0  0  0  0  0  0  0  0  0
  1  2  1  0
  1  6  2  0
  2  3  2  0
  2 21  1  0
  3  4  1  0
  3 63  1  0
  4  5  1  0
  4 20  2  0
  5  6  1  0
  5 17  2  0
  6  7  1  0
  7  8  1  0
  7 33  1  0
  8  9  1  0
  8 34  1  1
  8 35  1  0
  9 10  2  0
  9 15  1  0
 10 11  1  0
 10 16  1  0
 11 12  2  0
 11 36  1  0
 12 13  1  0
 12 14  1  0
 13 37  1  0
 13 38  1  0
 14 15  2  0
 14 39  1  0
 15 40  1  0
 16 41  1  6
 16 42  1  0
 16 43  1  0
 17 18  1  0
 17 44  1  0
 18 19  2  0
 18 45  1  0
 19 20  1  0
 19 46  1  0
 20 47  1  0
 21 22  1  0
 21 48  1  0
 22 23  1  0
 22 49  1  1
 22 50  1  0
 23 24  1  0
 23 28  2  0
 24 25  2  0
 24 51  1  0
 25 26  1  0
 25 52  1  0
 26 27  2  0
 26 29  1  0
 27 28  1  0
 27 53  1  0
 28 54  1  0
 29 30  1  0
 29 55  1  6
 29 56  1  0
 30 31  1  0
 30 32  1  0
 30 64  1  1
 31 57  1  6
 31 58  1  0
 31 59  1  0
 32 60  1  6
 32 61  1  0
 32 62  1  0
M  CHG  2   3   1  30   1
M  END
>  <s_epik_cmdline>  (1443) 
J2VwaWtfcHl0aG9uJywgJy1waCcsICc3LjAwMDAwMCcsICctcGh0JywgJzIuMDAwMDAwJywgJy1tcycsICcxNicsICctdG4nLCAnOCcsICctbWEnLCAnMjAwJywgJy1pbWFlJywgJzxpbmZpbGUubWFlPicsICctb21hZScsICc8b3V0ZmlsZS5tYWU+Jw==

>  <s_epik_input>  (1443) 
W2NIXTFbY0hdYyhbTkgyXSlbY0hdYyhbQ0gzXSljMVtDSDJdW05IXWMoYyhjMjMpW2NIXVtjSF1bY0hdW2NIXTMpbmMobjIpW05IXVtDSDJdYzRbY0hdW2NIXWMoW2NIXVtjSF00KVtDSDJdTihbQ0gzXSlbQ0gzXQ==

>  <s_i_glide_gridfile>  (1443) 
ATP-Grid

>  <s_lp_Force_Field>  (1443) 
OPLS_2005

>  <s_lp_Variant>  (1443) 
m_282030aaa____21929760____22360182____21977402-1

>  <s_lp_label>  (1443) 
1924_sdstereoexpander_1_neutralizer_1_epik_1_stereoizer_1

>  <s_m_source_file>  (1443) 
ATP-VSW-LIGPREP-001-in.maegz

>  <s_sd_BIOSOLVEIT.INFINISEE\_QUERY\_NAME>  (1443) 
Ref-Lig

>  <s_sd_BIOSOLVEIT.INFINISEE\_QUERY\_SMILES>  (1443) 
S(c1nc2c(cc1C[NH2+]Cc3ccc(cc3)C[NH+](C)C)cccc2)Cc4ccccc4

>  <s_sd_BIOSOLVEIT.INFINISEE\_REACTION\_NAME>  (1443) 
m_282030aaa

>  <s_sd_BIOSOLVEIT.INFINISEE\_REAGENT1\_SMILES>  (1443) 
[R1*]NCc1ccc(cc1)CN(C)C

>  <s_sd_BIOSOLVEIT.INFINISEE\_REAGENT2\_SMILES>  (1443) 
[R2*]c1nc([R1*])c2c(n1)cccc2

>  <s_sd_BIOSOLVEIT.INFINISEE\_REAGENT3\_SMILES>  (1443) 
[R2*]NCc1c(cc(N)cc1)C

>  <s_sd_BIOSOLVEIT.INFINISEE\_SPACE>  (1443) 
REALSpace_44bn_2023-08

>  <s_vsw_compound_code>  (1443) 
61537

>  <s_vsw_variant>  (1443) 
61537-1

>  <r_epik_Charging_Adjusted_Penalty>  (1443) 
0.136764600630639

>  <r_epik_Ionization_Penalty>  (1443) 
0.084400000000000003

>  <r_epik_Ionization_Penalty_Charging>  (1443) 
0.055899999999999998

>  <r_epik_Ionization_Penalty_Neutral>  (1443) 
0.028500000000000001

>  <r_epik_State_Penalty>  (1443) 
0.080799999999999997

>  <r_i_docking_score>  (1443) 
-4.6360237373465996

>  <r_i_glide_ecoul>  (1443) 
-11.168972969055201

>  <r_i_glide_eff_state_penalty>  (1443) 
0.080799999999999997

>  <r_i_glide_einternal>  (1443) 
11.8865966796875

>  <r_i_glide_emodel>  (1443) 
-56.805609290344798

>  <r_i_glide_energy>  (1443) 
-42.038275718689

>  <r_i_glide_erotb>  (1443) 
0.75706870877358701

>  <r_i_glide_esite>  (1443) 
-0.198448204636132

>  <r_i_glide_evdw>  (1443) 
-30.8693027496338

>  <r_i_glide_gscore>  (1443) 
-4.7168237373466004

>  <r_i_glide_hbond>  (1443) 
-0.35999999999999999

>  <r_i_glide_ligand_efficiency>  (1443) 
-0.14487574179208099

>  <r_i_glide_ligand_efficiency_ln>  (1443) 
-1.0381320880261

>  <r_i_glide_ligand_efficiency_sa>  (1443) 
-0.45995180931948898

>  <r_i_glide_lipo>  (1443) 
-1.1536557989256699

>  <r_i_glide_metal>  (1443) 
-0

>  <r_i_glide_rewards>  (1443) 
-0.54297735971841599

>  <r_lp_Energy>  (1443) 
25.235610000000001

>  <r_qp_ACxDN^.5/SA>  (1443) 
0.0153963

>  <r_qp_CIQPlogS>  (1443) 
-5.5439999999999996

>  <r_qp_EA(eV)>  (1443) 
0.42599999999999999

>  <r_qp_FISA>  (1443) 
102.371

>  <r_qp_FOSA>  (1443) 
227.62899999999999

>  <r_qp_IP(eV)>  (1443) 
7.8739999999999997

>  <r_qp_Jm>  (1443) 
0.0123279854761693

>  <r_qp_PISA>  (1443) 
399.06900000000002

>  <r_qp_PSA>  (1443) 
72.748999999999995

>  <r_qp_PercentHumanOralAbsorption>  (1443) 
95.153000000000006

>  <r_qp_QPPCaco>  (1443) 
264.24799999999999

>  <r_qp_QPPMDCK>  (1443) 
129.86500000000001

>  <r_qp_QPlogBB>  (1443) 
-0.58899999999999997

>  <r_qp_QPlogHERG>  (1443) 
-7.0339999999999998

>  <r_qp_QPlogKhsa>  (1443) 
0.66000000000000003

>  <r_qp_QPlogKp>  (1443) 
-3.1989999999999998

>  <r_qp_QPlogPC16>  (1443) 
15.349

>  <r_qp_QPlogPo/w>  (1443) 
4.2450000000000001

>  <r_qp_QPlogPoct>  (1443) 
24.407

>  <r_qp_QPlogPw>  (1443) 
13.935

>  <r_qp_QPlogS>  (1443) 
-4.3399999999999999

>  <r_qp_QPpolrz>  (1443) 
47.131

>  <r_qp_SASA>  (1443) 
729.06899999999996

>  <r_qp_SAamideO>  (1443) 
0

>  <r_qp_SAfluorine>  (1443) 
0

>  <r_qp_WPSA>  (1443) 
0

>  <r_qp_accptHB>  (1443) 
6

>  <r_qp_dip^2/V>  (1443) 
0.0274451

>  <r_qp_dipole>  (1443) 
6.1559999999999997

>  <r_qp_donorHB>  (1443) 
3.5

>  <r_qp_glob>  (1443) 
0.82245679999999999

>  <r_qp_mol_MW>  (1443) 
426.56299999999999

>  <r_qp_volume>  (1443) 
1380.624

>  <r_sd_BIOSOLVEIT.INFINISEE\_FTREES\_SIMILARITY>  (1443) 
0.90300000000000002

>  <r_sd_BIOSOLVEIT.LOGP>  (1443) 
3.3891200000000001

>  <r_sd_BIOSOLVEIT.MOLECULAR\_WEIGHT>  (1443) 
427.57299999999998

>  <r_sd_BIOSOLVEIT.TPSA>  (1443) 
80.299999999999997

>  <i_epik_Tot_Q>  (1443) 
2

>  <i_epik_Tot_abs_Q>  (1443) 
2

>  <i_f3d_flags>  (1443) 
0

>  <i_i_glide_confnum>  (1443) 
5

>  <i_i_glide_lignum>  (1443) 
585

>  <i_i_glide_posenum>  (1443) 
3

>  <i_i_glide_rotatable_bonds>  (1443) 
8

>  <i_lp_mmshare_version>  (1443) 
65135

>  <i_m_ct_format>  (1443) 
2

>  <i_m_source_file_index>  (1443) 
1924

>  <i_qp_#NandO>  (1443) 
6

>  <i_qp_#acid>  (1443) 
0

>  <i_qp_#amide>  (1443) 
0

>  <i_qp_#amidine>  (1443) 
0

>  <i_qp_#amine>  (1443) 
1

>  <i_qp_#in34>  (1443) 
0

>  <i_qp_#in56>  (1443) 
22

>  <i_qp_#metab>  (1443) 
7

>  <i_qp_#nonHatm>  (1443) 
32

>  <i_qp_#noncon>  (1443) 
0

>  <i_qp_#ringatoms>  (1443) 
22

>  <i_qp_#rotor>  (1443) 
9

>  <i_qp_#rtvFG>  (1443) 
0

>  <i_qp_#stars>  (1443) 
1

>  <i_qp_CNS>  (1443) 
0

>  <i_qp_HumanOralAbsorption>  (1443) 
3

>  <i_qp_RuleOfFive>  (1443) 
0

>  <i_qp_RuleOfThree>  (1443) 
1

>  <i_sd_BIOSOLVEIT.INFINISEE\_REAGENT1\_NAME>  (1443) 
21929760

>  <i_sd_BIOSOLVEIT.INFINISEE\_REAGENT2\_NAME>  (1443) 
22360182

>  <i_sd_BIOSOLVEIT.INFINISEE\_REAGENT3\_NAME>  (1443) 
21977402

>  <i_sd_BIOSOLVEIT.INFINISEE\_RESULT\_RANK>  (1443) 
86011

>  <i_sd_version>  (1443) 
0

>  <b_lp_Chiralities_Consistent>  (1443) 
1

>  <b_sd_chiral_flag>  (1443) 
0

>  <canonical_id>  (1443) 
ATP-HTVS-E298C966C019

>  <compound_code>  (1443) 
61537

>  <title>  (1443) 
m_282030aaa____21929760____22360182____21977402

>  <variant>  (1443) 
61537-1

>  <source_file>  (1443) 
运行/运行/ATP-VSW/ATP-VSW-DOCK_HTVS_1-001_lib/ATP-VSW-DOCK_HTVS_1-001_lib

>  <canonical_smiles>  (1443) 
Cc1cc(N)ccc1CNc1nc(NCc2ccc(C[NH+](C)C)cc2)[nH+]c2ccccc12

>  <scaffold>  (1443) 
c1ccc(CNc2nc(NCc3ccccc3)c3ccccc3[nH+]2)cc1

>  <molecular_formula>  (1443) 
C26H32N6+2

$$$$
ATP-HTVS-E2A28C61F774
     RDKit          3D

 60 63  0  0  0  0  0  0  0  0999 V2000
  195.4546  184.3957  160.1063 Cl  0  0  0  0  0  0  0  0  0  0  0  0
  196.1338  183.8411  158.6173 C   0  0  0  0  0  0  0  0  0  0  0  0
  195.9254  182.5225  158.1837 C   0  0  0  0  0  0  0  0  0  0  0  0
  196.5151  182.0625  156.9875 C   0  0  0  0  0  0  0  0  0  0  0  0
  197.3282  182.9077  156.1873 C   0  0  0  0  0  0  0  0  0  0  0  0
  197.4879  184.2492  156.6277 C   0  0  0  0  0  0  0  0  0  0  0  0
  196.9091  184.7092  157.8319 C   0  0  0  0  0  0  0  0  0  0  0  0
  197.9785  182.4200  154.9305 C   0  0  0  0  0  0  0  0  0  0  0  0
  197.4013  181.2531  154.4088 N   0  0  0  0  0  0  0  0  0  0  0  0
  197.7131  180.5417  153.2321 C   0  0  0  0  0  0  0  0  0  0  0  0
  198.9483  179.8609  153.0352 C   0  0  0  0  0  0  0  0  0  0  0  0
  199.1767  179.1499  151.8927 N   0  0  0  0  0  0  0  0  0  0  0  0
  198.2669  179.1279  150.9030 C   0  0  0  0  0  0  0  0  0  0  0  0
  197.0235  179.8000  151.0214 C   0  0  0  0  0  0  0  0  0  0  0  0
  196.7458  180.5034  152.2094 C   0  0  0  0  0  0  0  0  0  0  0  0
  196.0899  179.7572  149.9634 C   0  0  0  0  0  0  0  0  0  0  0  0
  196.3848  179.0342  148.7917 C   0  0  0  0  0  0  0  0  0  0  0  0
  197.6226  178.3755  148.6580 C   0  0  0  0  0  0  0  0  0  0  0  0
  198.5564  178.4371  149.7110 C   0  0  0  0  0  0  0  0  0  0  0  0
  199.8878  179.9212  154.0781 N   0  0  0  0  0  0  0  0  0  0  0  0
  201.1890  179.5999  154.0843 C   0  0  0  0  0  0  0  0  0  0  0  0
  201.7807  178.9989  153.1633 O   0  0  0  0  0  0  0  0  0  0  0  0
  201.9513  180.0319  155.2909 C   0  0  0  0  0  0  0  0  0  0  0  0
  201.4163  179.9366  156.6102 C   0  0  0  0  0  0  0  0  0  0  0  0
  202.2342  180.3268  157.7038 C   0  0  0  0  0  0  0  0  0  0  0  0
  203.5544  180.7907  157.5185 C   0  0  0  0  0  0  0  0  0  0  0  0
  204.0731  180.8929  156.2191 C   0  0  0  0  0  0  0  0  0  0  0  0
  203.2720  180.5228  155.1204 C   0  0  0  0  0  0  0  0  0  0  0  0
  199.9939  179.4223  156.9221 C   0  0  1  0  0  0  0  0  0  0  0  0
  199.9520  177.9670  157.2682 N   0  0  2  0  0  0  0  0  0  0  0  0
  200.8597  177.5705  158.3675 C   0  0  2  0  0  0  0  0  0  0  0  0
  200.1147  177.1043  156.0827 C   0  0  2  0  0  0  0  0  0  0  0  0
  199.0273  183.0846  154.3892 C   0  0  0  0  0  0  0  0  0  0  0  0
  199.6935  182.7725  153.1686 C   0  0  0  0  0  0  0  0  0  0  0  0
  200.2947  182.5600  152.2002 N   0  0  0  0  0  0  0  0  0  0  0  0
  195.3314  181.8430  158.7803 H   0  0  0  0  0  0  0  0  0  0  0  0
  196.3206  181.0402  156.7085 H   0  0  0  0  0  0  0  0  0  0  0  0
  198.0565  184.9702  156.0607 H   0  0  0  0  0  0  0  0  0  0  0  0
  197.0620  185.7253  158.1596 H   0  0  0  0  0  0  0  0  0  0  0  0
  196.4603  181.0923  154.7506 H   0  0  0  0  0  0  0  0  0  0  0  0
  195.8005  181.0279  152.3128 H   0  0  0  0  0  0  0  0  0  0  0  0
  195.1405  180.2621  150.0736 H   0  0  0  0  0  0  0  0  0  0  0  0
  195.6625  178.9836  147.9887 H   0  0  0  0  0  0  0  0  0  0  0  0
  197.8521  177.8155  147.7646 H   0  0  0  0  0  0  0  0  0  0  0  0
  199.5128  177.9404  149.6176 H   0  0  0  0  0  0  0  0  0  0  0  0
  199.5670  180.4701  154.8687 H   0  0  0  0  0  0  0  0  0  0  0  0
  201.8942  180.2415  158.7232 H   0  0  0  0  0  0  0  0  0  0  0  0
  204.1792  181.0321  158.3737 H   0  0  0  0  0  0  0  0  0  0  0  0
  205.0865  181.2406  156.0683 H   0  0  0  0  0  0  0  0  0  0  0  0
  203.7026  180.5879  154.1294 H   0  0  0  0  0  0  0  0  0  0  0  0
  199.6447  180.0132  157.7334 H   0  0  0  0  0  0  0  0  0  0  0  0
  199.2385  179.6284  156.1354 H   0  0  0  0  0  0  0  0  0  0  0  0
  201.9126  177.6948  158.0860 H   0  0  0  0  0  0  0  0  0  0  0  0
  200.7420  176.5137  158.6522 H   0  0  0  0  0  0  0  0  0  0  0  0
  200.6793  178.1735  159.2615 H   0  0  0  0  0  0  0  0  0  0  0  0
  201.0970  177.2455  155.6244 H   0  0  0  0  0  0  0  0  0  0  0  0
  199.3569  177.3244  155.3340 H   0  0  0  0  0  0  0  0  0  0  0  0
  200.0354  176.0485  156.3393 H   0  0  0  0  0  0  0  0  0  0  0  0
  199.4252  183.9538  154.9017 H   0  0  0  0  0  0  0  0  0  0  0  0
  198.9914  177.8228  157.6131 H   0  0  0  0  0  0  0  0  0  0  0  0
  1  2  1  0
  2  3  1  0
  2  7  2  0
  3  4  2  0
  3 36  1  0
  4  5  1  0
  4 37  1  0
  5  6  2  0
  5  8  1  0
  6  7  1  0
  6 38  1  0
  7 39  1  0
  8  9  1  0
  8 33  2  0
  9 10  1  0
  9 40  1  0
 10 11  1  0
 10 15  2  0
 11 12  2  0
 11 20  1  0
 12 13  1  0
 13 14  1  0
 13 19  2  0
 14 15  1  0
 14 16  2  0
 15 41  1  0
 16 17  1  0
 16 42  1  0
 17 18  2  0
 17 43  1  0
 18 19  1  0
 18 44  1  0
 19 45  1  0
 20 21  1  0
 20 46  1  0
 21 22  2  0
 21 23  1  0
 23 24  1  0
 23 28  2  0
 24 25  2  0
 24 29  1  0
 25 26  1  0
 25 47  1  0
 26 27  2  0
 26 48  1  0
 27 28  1  0
 27 49  1  0
 28 50  1  0
 29 30  1  0
 29 51  1  1
 29 52  1  0
 30 31  1  0
 30 32  1  0
 30 60  1  1
 31 53  1  6
 31 54  1  0
 31 55  1  0
 32 56  1  6
 32 57  1  0
 32 58  1  0
 33 34  1  0
 33 59  1  0
 34 35  3  0
M  CHG  1  30   1
M  END
>  <s_epik_cmdline>  (1444) 
J2VwaWtfcHl0aG9uJywgJy1waCcsICc3LjAwMDAwMCcsICctcGh0JywgJzIuMDAwMDAwJywgJy1tcycsICcxNicsICctdG4nLCAnOCcsICctbWEnLCAnMjAwJywgJy1pbWFlJywgJzxpbmZpbGUubWFlPicsICctb21hZScsICc8b3V0ZmlsZS5tYWU+Jw==

>  <s_epik_input>  (1444) 
Q2xjMVtjSF1bY0hdYyhbY0hdW2NIXTEpL0MoPVtDSF0vQyNOKVtOSF1jKFtjSF1jKGMyMylbY0hdW2NIXVtjSF1bY0hdMyljKG4yKVtOSF1DKD1PKWM0YyhbQ0gyXU4oW0NIM10pW0NIM10pW2NIXVtjSF1bY0hdW2NIXTQ=

>  <s_i_glide_gridfile>  (1444) 
ATP-Grid

>  <s_lp_Force_Field>  (1444) 
OPLS_2005

>  <s_lp_Variant>  (1444) 
rxn502b____EMOL5415347____EMOL44466703____EMOL36798766-1

>  <s_lp_label>  (1444) 
2792_sdstereoexpander_1_neutralizer_1_epik_1_stereoizer_1

>  <s_m_source_file>  (1444) 
ATP-VSW-LIGPREP-001-in.maegz

>  <s_sd_BIOSOLVEIT.INFINISEE\_QUERY\_NAME>  (1444) 
Ref-Lig

>  <s_sd_BIOSOLVEIT.INFINISEE\_QUERY\_SMILES>  (1444) 
S(c1nc2c(cc1C[NH2+]Cc3ccc(cc3)C[NH+](C)C)cccc2)Cc4ccccc4

>  <s_sd_BIOSOLVEIT.INFINISEE\_REACTION\_NAME>  (1444) 
rxn502b

>  <s_sd_BIOSOLVEIT.INFINISEE\_REAGENT1\_NAME>  (1444) 
EMOL5415347

>  <s_sd_BIOSOLVEIT.INFINISEE\_REAGENT1\_SMILES>  (1444) 
O=C(O)c1c(cccc1)CN(C)C

>  <s_sd_BIOSOLVEIT.INFINISEE\_REAGENT2\_NAME>  (1444) 
EMOL44466703

>  <s_sd_BIOSOLVEIT.INFINISEE\_REAGENT2\_SMILES>  (1444) 
Brc1c(nc2c(c1)cccc2)N

>  <s_sd_BIOSOLVEIT.INFINISEE\_REAGENT3\_NAME>  (1444) 
EMOL36798766

>  <s_sd_BIOSOLVEIT.INFINISEE\_REAGENT3\_SMILES>  (1444) 
Clc1ccc(cc1)C(N)=CC#N

>  <s_sd_BIOSOLVEIT.INFINISEE\_SPACE>  (1444) 
eXplore_7tr_2022-12

>  <s_vsw_compound_code>  (1444) 
89313

>  <s_vsw_variant>  (1444) 
89313-1

>  <r_epik_Charging_Adjusted_Penalty>  (1444) 
0.53078606917400994

>  <r_epik_Ionization_Penalty>  (1444) 
0.060900000000000003

>  <r_epik_Ionization_Penalty_Charging>  (1444) 
0.060100000000000001

>  <r_epik_Ionization_Penalty_Neutral>  (1444) 
0.00080000000000000004

>  <r_epik_State_Penalty>  (1444) 
0.47070000000000001

>  <r_i_docking_score>  (1444) 
-3.74761987849398

>  <r_i_glide_ecoul>  (1444) 
-10.9221038818359

>  <r_i_glide_eff_state_penalty>  (1444) 
0.47070000000000001

>  <r_i_glide_einternal>  (1444) 
9.1560707092285192

>  <r_i_glide_emodel>  (1444) 
-55.313091844140999

>  <r_i_glide_energy>  (1444) 
-44.133106231689503

>  <r_i_glide_erotb>  (1444) 
0.60908126067546098

>  <r_i_glide_esite>  (1444) 
-0.11933938667918199

>  <r_i_glide_evdw>  (1444) 
-33.211002349853501

>  <r_i_glide_gscore>  (1444) 
-4.2183198784939799

>  <r_i_glide_hbond>  (1444) 
-0.20000000000000001

>  <r_i_glide_ligand_efficiency>  (1444) 
-0.10707485367125601

>  <r_i_glide_ligand_efficiency_ln>  (1444) 
-0.82268573727133798

>  <r_i_glide_ligand_efficiency_sa>  (1444) 
-0.35024894609733398

>  <r_i_glide_lipo>  (1444) 
-1.0931758254494599

>  <r_i_glide_metal>  (1444) 
-0

>  <r_i_glide_rewards>  (1444) 
-0.116020227272727

>  <r_lp_Energy>  (1444) 
39.302159000000003

>  <r_lp_tautomer_probability>  (1444) 
0.49999997495000098

>  <r_qp_ACxDN^.5/SA>  (1444) 
0.0153048

>  <r_qp_CIQPlogS>  (1444) 
-7.032

>  <r_qp_EA(eV)>  (1444) 
1.462

>  <r_qp_FISA>  (1444) 
91.552000000000007

>  <r_qp_FOSA>  (1444) 
122.57299999999999

>  <r_qp_IP(eV)>  (1444) 
8.5690000000000008

>  <r_qp_Jm>  (1444) 
0.0033371890832774201

>  <r_qp_PISA>  (1444) 
458.44400000000002

>  <r_qp_PSA>  (1444) 
77.393000000000001

>  <r_qp_PercentHumanOralAbsorption>  (1444) 
100

>  <r_qp_QPPCaco>  (1444) 
334.66399999999999

>  <r_qp_QPPMDCK>  (1444) 
388.63400000000001

>  <r_qp_QPlogBB>  (1444) 
-0.30599999999999999

>  <r_qp_QPlogHERG>  (1444) 
-7.218

>  <r_qp_QPlogKhsa>  (1444) 
0.52800000000000002

>  <r_qp_QPlogKp>  (1444) 
-2.79

>  <r_qp_QPlogPC16>  (1444) 
16.202000000000002

>  <r_qp_QPlogPo/w>  (1444) 
4.4080000000000004

>  <r_qp_QPlogPoct>  (1444) 
25.07

>  <r_qp_QPlogPw>  (1444) 
14.086

>  <r_qp_QPlogS>  (1444) 
-5.3689999999999998

>  <r_qp_QPpolrz>  (1444) 
49.491

>  <r_qp_SASA>  (1444) 
739.22799999999995

>  <r_qp_SAamideO>  (1444) 
0

>  <r_qp_SAfluorine>  (1444) 
0

>  <r_qp_WPSA>  (1444) 
66.658000000000001

>  <r_qp_accptHB>  (1444) 
8

>  <r_qp_dip^2/V>  (1444) 
0.065241800000000003

>  <r_qp_dipole>  (1444) 
9.6440000000000001

>  <r_qp_donorHB>  (1444) 
2

>  <r_qp_glob>  (1444) 
0.82861399999999996

>  <r_qp_mol_MW>  (1444) 
481.983

>  <r_qp_volume>  (1444) 
1425.4380000000001

>  <r_sd_BIOSOLVEIT.INFINISEE\_FTREES\_SIMILARITY>  (1444) 
0.90600000000000003

>  <r_sd_BIOSOLVEIT.LOGP>  (1444) 
4.7615800000000004

>  <r_sd_BIOSOLVEIT.MOLECULAR\_WEIGHT>  (1444) 
482.99299999999999

>  <r_sd_BIOSOLVEIT.TPSA>  (1444) 
82.25

>  <i_epik_Tot_Q>  (1444) 
1

>  <i_epik_Tot_abs_Q>  (1444) 
1

>  <i_f3d_flags>  (1444) 
0

>  <i_i_glide_confnum>  (1444) 
10

>  <i_i_glide_lignum>  (1444) 
1262

>  <i_i_glide_posenum>  (1444) 
16

>  <i_i_glide_rotatable_bonds>  (1444) 
8

>  <i_lp_mmshare_version>  (1444) 
65135

>  <i_m_ct_format>  (1444) 
2

>  <i_m_source_file_index>  (1444) 
2792

>  <i_qp_#NandO>  (1444) 
6

>  <i_qp_#acid>  (1444) 
0

>  <i_qp_#amide>  (1444) 
0

>  <i_qp_#amidine>  (1444) 
0

>  <i_qp_#amine>  (1444) 
1

>  <i_qp_#in34>  (1444) 
0

>  <i_qp_#in56>  (1444) 
22

>  <i_qp_#metab>  (1444) 
3

>  <i_qp_#nonHatm>  (1444) 
35

>  <i_qp_#noncon>  (1444) 
0

>  <i_qp_#ringatoms>  (1444) 
22

>  <i_qp_#rotor>  (1444) 
9

>  <i_qp_#rtvFG>  (1444) 
0

>  <i_qp_#stars>  (1444) 
1

>  <i_qp_CNS>  (1444) 
1

>  <i_qp_HumanOralAbsorption>  (1444) 
3

>  <i_qp_RuleOfFive>  (1444) 
0

>  <i_qp_RuleOfThree>  (1444) 
0

>  <i_sd_BIOSOLVEIT.INFINISEE\_RESULT\_RANK>  (1444) 
62946

>  <i_sd_version>  (1444) 
0

>  <b_lp_Chiralities_Consistent>  (1444) 
1

>  <b_sd_chiral_flag>  (1444) 
0

>  <canonical_id>  (1444) 
ATP-HTVS-E2A28C61F774

>  <compound_code>  (1444) 
89313

>  <title>  (1444) 
rxn502b____EMOL5415347____EMOL44466703____EMOL36798766

>  <variant>  (1444) 
89313-1

>  <source_file>  (1444) 
运行/运行/ATP-VSW/ATP-VSW-DOCK_HTVS_1-001_lib/ATP-VSW-DOCK_HTVS_1-001_lib

>  <canonical_smiles>  (1444) 
C[NH+](C)Cc1ccccc1C(=O)Nc1nc2ccccc2cc1N/C(=C\C#N)c1ccc(Cl)cc1

>  <scaffold>  (1444) 
C=C(Nc1cc2ccccc2nc1NC(=O)c1ccccc1)c1ccccc1

>  <molecular_formula>  (1444) 
C28H25ClN5O+

$$$$
ATP-HTVS-E2AE692EC3A5
     RDKit          3D

 62 65  0  0  0  0  0  0  0  0999 V2000
  201.2405  179.2355  157.0683 O   0  0  0  0  0  0  0  0  0  0  0  0
  200.5550  178.8713  156.1026 C   0  0  0  0  0  0  0  0  0  0  0  0
  199.5863  179.5869  155.5333 N   0  0  0  0  0  0  0  0  0  0  0  0
  199.0742  180.8753  155.8466 C   0  0  0  0  0  0  0  0  0  0  0  0
  199.4963  181.5636  156.9243 N   0  0  0  0  0  0  0  0  0  0  0  0
  198.9923  182.7824  157.2023 C   0  0  0  0  0  0  0  0  0  0  0  0
  198.0404  183.4017  156.3558 C   0  0  0  0  0  0  0  0  0  0  0  0
  197.5947  182.6998  155.2162 C   0  0  0  0  0  0  0  0  0  0  0  0
  198.1046  181.4105  154.9517 C   0  0  0  0  0  0  0  0  0  0  0  0
  197.6479  180.7311  153.7953 N   0  0  0  0  0  0  0  0  0  0  0  0
  198.4514  180.9509  152.5888 C   0  0  2  0  0  0  0  0  0  0  0  0
  198.5318  182.3856  152.2511 C   0  0  0  0  0  0  0  0  0  0  0  0
  198.5964  183.5099  151.9885 N   0  0  0  0  0  0  0  0  0  0  0  0
  198.0005  180.1396  151.3770 C   0  0  0  0  0  0  0  0  0  0  0  0
  196.7617  180.4055  150.7518 C   0  0  0  0  0  0  0  0  0  0  0  0
  196.3507  179.6414  149.6416 C   0  0  0  0  0  0  0  0  0  0  0  0
  197.1686  178.6113  149.1473 C   0  0  0  0  0  0  0  0  0  0  0  0
  198.4014  178.3358  149.7703 C   0  0  0  0  0  0  0  0  0  0  0  0
  198.8170  179.1023  150.8775 C   0  0  0  0  0  0  0  0  0  0  0  0
  197.0755  179.4082  154.0349 C   0  0  2  0  0  0  0  0  0  0  0  0
  197.5576  184.6896  156.6385 C   0  0  0  0  0  0  0  0  0  0  0  0
  198.0081  185.3687  157.7883 C   0  0  0  0  0  0  0  0  0  0  0  0
  198.9376  184.7537  158.6483 C   0  0  0  0  0  0  0  0  0  0  0  0
  199.4258  183.4715  158.3527 C   0  0  0  0  0  0  0  0  0  0  0  0
  200.7337  177.5091  155.4944 C   0  0  0  0  0  0  0  0  0  0  0  0
  200.4973  177.2536  154.1241 C   0  0  0  0  0  0  0  0  0  0  0  0
  200.7205  175.9645  153.5957 C   0  0  0  0  0  0  0  0  0  0  0  0
  201.1711  174.9110  154.4263 C   0  0  0  0  0  0  0  0  0  0  0  0
  201.3594  175.1772  155.7982 C   0  0  0  0  0  0  0  0  0  0  0  0
  201.1871  176.4493  156.3165 C   0  0  0  0  0  0  0  0  0  0  0  0
  201.3782  173.5009  153.8833 C   0  0  1  0  0  0  0  0  0  0  0  0
  202.7875  173.0358  153.9494 N   0  0  1  0  0  0  0  0  0  0  0  0
  203.6434  173.6719  152.9281 C   0  0  2  0  0  0  0  0  0  0  0  0
  203.3860  173.1076  155.2944 C   0  0  2  0  0  0  0  0  0  0  0  0
  199.0987  179.1402  154.7737 H   0  0  0  0  0  0  0  0  0  0  0  0
  196.8768  183.1376  154.5426 H   0  0  0  0  0  0  0  0  0  0  0  0
  199.4756  180.6504  152.8193 H   0  0  0  0  0  0  0  0  0  0  0  0
  196.1201  181.1879  151.1293 H   0  0  0  0  0  0  0  0  0  0  0  0
  195.3980  179.8356  149.1673 H   0  0  0  0  0  0  0  0  0  0  0  0
  196.8525  178.0210  148.2976 H   0  0  0  0  0  0  0  0  0  0  0  0
  199.0257  177.5343  149.4000 H   0  0  0  0  0  0  0  0  0  0  0  0
  199.7636  178.8799  151.3445 H   0  0  0  0  0  0  0  0  0  0  0  0
  196.5438  179.3666  154.9909 H   0  0  0  0  0  0  0  0  0  0  0  0
  197.8722  178.6676  154.0504 H   0  0  0  0  0  0  0  0  0  0  0  0
  196.3805  179.1076  153.2413 H   0  0  0  0  0  0  0  0  0  0  0  0
  196.8469  185.1631  155.9771 H   0  0  0  0  0  0  0  0  0  0  0  0
  197.6360  186.3563  158.0117 H   0  0  0  0  0  0  0  0  0  0  0  0
  199.2810  185.2715  159.5319 H   0  0  0  0  0  0  0  0  0  0  0  0
  200.1417  182.9984  159.0088 H   0  0  0  0  0  0  0  0  0  0  0  0
  200.1398  178.0318  153.4612 H   0  0  0  0  0  0  0  0  0  0  0  0
  200.5205  175.7817  152.5461 H   0  0  0  0  0  0  0  0  0  0  0  0
  201.7025  174.3718  156.4420 H   0  0  0  0  0  0  0  0  0  0  0  0
  201.3762  176.6450  157.3638 H   0  0  0  0  0  0  0  0  0  0  0  0
  200.7300  172.8047  154.4266 H   0  0  0  0  0  0  0  0  0  0  0  0
  201.0335  173.4547  152.8498 H   0  0  0  0  0  0  0  0  0  0  0  0
  203.6970  174.7486  153.0843 H   0  0  0  0  0  0  0  0  0  0  0  0
  203.2658  173.4937  151.9195 H   0  0  0  0  0  0  0  0  0  0  0  0
  204.6563  173.2762  152.9736 H   0  0  0  0  0  0  0  0  0  0  0  0
  203.4383  174.1207  155.6622 H   0  0  0  0  0  0  0  0  0  0  0  0
  204.3536  172.6214  155.2756 H   0  0  0  0  0  0  0  0  0  0  0  0
  202.7993  172.5563  156.0130 H   0  0  0  0  0  0  0  0  0  0  0  0
  202.7753  172.0381  153.7312 H   0  0  0  0  0  0  0  0  0  0  0  0
  1  2  2  0
  2  3  1  0
  2 25  1  0
  3  4  1  0
  3 35  1  0
  4  5  2  0
  4  9  1  0
  5  6  1  0
  6  7  1  0
  6 24  2  0
  7  8  1  0
  7 21  2  0
  8  9  2  0
  8 36  1  0
  9 10  1  0
 10 11  1  0
 10 20  1  0
 11 12  1  0
 11 14  1  0
 11 37  1  1
 12 13  3  0
 14 15  2  0
 14 19  1  0
 15 16  1  0
 15 38  1  0
 16 17  2  0
 16 39  1  0
 17 18  1  0
 17 40  1  0
 18 19  2  0
 18 41  1  0
 19 42  1  0
 20 43  1  1
 20 44  1  0
 20 45  1  0
 21 22  1  0
 21 46  1  0
 22 23  2  0
 22 47  1  0
 23 24  1  0
 23 48  1  0
 24 49  1  0
 25 26  1  0
 25 30  2  0
 26 27  2  0
 26 50  1  0
 27 28  1  0
 27 51  1  0
 28 29  2  0
 28 31  1  0
 29 30  1  0
 29 52  1  0
 30 53  1  0
 31 32  1  0
 31 54  1  1
 31 55  1  0
 32 33  1  0
 32 34  1  0
 32 62  1  6
 33 56  1  1
 33 57  1  0
 33 58  1  0
 34 59  1  1
 34 60  1  0
 34 61  1  0
M  CHG  1  32   1
M  END
>  <s_epik_cmdline>  (1445) 
J2VwaWtfcHl0aG9uJywgJy1waCcsICc3LjAwMDAwMCcsICctcGh0JywgJzIuMDAwMDAwJywgJy1tcycsICcxNicsICctdG4nLCAnOCcsICctbWEnLCAnMjAwJywgJy1pbWFlJywgJzxpbmZpbGUubWFlPicsICctb21hZScsICc8b3V0ZmlsZS5tYWU+Jw==

>  <s_epik_input>  (1445) 
W0NIM11OKFtDSDNdKVtDSDJdYyhbY0hdW2NIXTEpW2NIXVtjSF1jMUMoPU8pW05IXWMobjIpYyhbY0hdYyhjMjMpW2NIXVtjSF1bY0hdW2NIXTMpTihbQ0gzXSlbQ0BIXShDI04pYzRbY0hdW2NIXVtjSF1bY0hdW2NIXTQ=

>  <s_i_glide_gridfile>  (1445) 
ATP-Grid

>  <s_lp_Force_Field>  (1445) 
OPLS_2005

>  <s_lp_Variant>  (1445) 
rxn502b____EMOL18624763____EMOL44466703____EMOL24630243-2

>  <s_lp_label>  (1445) 
2188_sdstereoexpander_2_neutralizer_1_epik_1_stereoizer_1

>  <s_m_source_file>  (1445) 
ATP-VSW-LIGPREP-001-in.maegz

>  <s_sd_BIOSOLVEIT.INFINISEE\_QUERY\_NAME>  (1445) 
Ref-Lig

>  <s_sd_BIOSOLVEIT.INFINISEE\_QUERY\_SMILES>  (1445) 
S(c1nc2c(cc1C[NH2+]Cc3ccc(cc3)C[NH+](C)C)cccc2)Cc4ccccc4

>  <s_sd_BIOSOLVEIT.INFINISEE\_REACTION\_NAME>  (1445) 
rxn502b

>  <s_sd_BIOSOLVEIT.INFINISEE\_REAGENT1\_NAME>  (1445) 
EMOL18624763

>  <s_sd_BIOSOLVEIT.INFINISEE\_REAGENT1\_SMILES>  (1445) 
O=C(O)c1ccc(cc1)CN(C)C

>  <s_sd_BIOSOLVEIT.INFINISEE\_REAGENT2\_NAME>  (1445) 
EMOL44466703

>  <s_sd_BIOSOLVEIT.INFINISEE\_REAGENT2\_SMILES>  (1445) 
Brc1c(nc2c(c1)cccc2)N

>  <s_sd_BIOSOLVEIT.INFINISEE\_REAGENT3\_NAME>  (1445) 
EMOL24630243

>  <s_sd_BIOSOLVEIT.INFINISEE\_REAGENT3\_SMILES>  (1445) 
N#CC(NC)c1ccccc1

>  <s_sd_BIOSOLVEIT.INFINISEE\_SPACE>  (1445) 
eXplore_7tr_2022-12

>  <s_vsw_compound_code>  (1445) 
69985

>  <s_vsw_variant>  (1445) 
69985-2

>  <r_epik_Charging_Adjusted_Penalty>  (1445) 
0.10433640840748

>  <r_epik_Ionization_Penalty>  (1445) 
0.052200000000000003

>  <r_epik_Ionization_Penalty_Charging>  (1445) 
0.052200000000000003

>  <r_epik_Ionization_Penalty_Neutral>  (1445) 
0

>  <r_epik_State_Penalty>  (1445) 
0.052200000000000003

>  <r_i_docking_score>  (1445) 
-4.1865040286276596

>  <r_i_glide_ecoul>  (1445) 
-5.7141165733337402

>  <r_i_glide_eff_state_penalty>  (1445) 
0.052200000000000003

>  <r_i_glide_einternal>  (1445) 
5.9951353073120099

>  <r_i_glide_emodel>  (1445) 
-50.483170171451199

>  <r_i_glide_energy>  (1445) 
-39.774613857269301

>  <r_i_glide_erotb>  (1445) 
0.69137857178598805

>  <r_i_glide_esite>  (1445) 
-0.15679770155985501

>  <r_i_glide_evdw>  (1445) 
-34.060497283935497

>  <r_i_glide_gscore>  (1445) 
-4.2387040286276596

>  <r_i_glide_hbond>  (1445) 
-0.20000000000000001

>  <r_i_glide_ligand_efficiency>  (1445) 
-0.123132471430225

>  <r_i_glide_ligand_efficiency_ln>  (1445) 
-0.92491616738432003

>  <r_i_glide_ligand_efficiency_sa>  (1445) 
-0.398901407096931

>  <r_i_glide_lipo>  (1445) 
-1.45101632138423

>  <r_i_glide_metal>  (1445) 
-0

>  <r_i_glide_rewards>  (1445) 
-0.56212622727272599

>  <r_lp_Energy>  (1445) 
34.721355000000003

>  <r_qp_ACxDN^.5/SA>  (1445) 
0.0100506

>  <r_qp_CIQPlogS>  (1445) 
-6.4109999999999996

>  <r_qp_EA(eV)>  (1445) 
1.069

>  <r_qp_FISA>  (1445) 
102.56100000000001

>  <r_qp_FOSA>  (1445) 
240.74799999999999

>  <r_qp_IP(eV)>  (1445) 
8.7520000000000007

>  <r_qp_Jm>  (1445) 
0.000223831816554884

>  <r_qp_PISA>  (1445) 
452.66399999999999

>  <r_qp_PSA>  (1445) 
77.668999999999997

>  <r_qp_PercentHumanOralAbsorption>  (1445) 
96.289000000000001

>  <r_qp_QPPCaco>  (1445) 
263.15600000000001

>  <r_qp_QPPMDCK>  (1445) 
129.285

>  <r_qp_QPlogBB>  (1445) 
-0.626

>  <r_qp_QPlogHERG>  (1445) 
-7.8730000000000002

>  <r_qp_QPlogKhsa>  (1445) 
0.66400000000000003

>  <r_qp_QPlogKp>  (1445) 
-3.1099999999999999

>  <r_qp_QPlogPC16>  (1445) 
16.135999999999999

>  <r_qp_QPlogPo/w>  (1445) 
4.4450000000000003

>  <r_qp_QPlogPoct>  (1445) 
23.382000000000001

>  <r_qp_QPlogPw>  (1445) 
12.991

>  <r_qp_QPlogS>  (1445) 
-6.1929999999999996

>  <r_qp_QPpolrz>  (1445) 
51.962000000000003

>  <r_qp_SASA>  (1445) 
795.97299999999996

>  <r_qp_SAamideO>  (1445) 
0

>  <r_qp_SAfluorine>  (1445) 
0

>  <r_qp_WPSA>  (1445) 
0

>  <r_qp_accptHB>  (1445) 
8

>  <r_qp_dip^2/V>  (1445) 
0.016601399999999999

>  <r_qp_dipole>  (1445) 
4.944

>  <r_qp_donorHB>  (1445) 
1

>  <r_qp_glob>  (1445) 
0.78639530000000002

>  <r_qp_mol_MW>  (1445) 
449.55399999999997

>  <r_qp_volume>  (1445) 
1472.519

>  <r_sd_BIOSOLVEIT.INFINISEE\_FTREES\_SIMILARITY>  (1445) 
0.93500000000000005

>  <r_sd_BIOSOLVEIT.LOGP>  (1445) 
3.8326799999999999

>  <r_sd_BIOSOLVEIT.MOLECULAR\_WEIGHT>  (1445) 
450.56299999999999

>  <r_sd_BIOSOLVEIT.TPSA>  (1445) 
73.459999999999994

>  <i_epik_Tot_Q>  (1445) 
1

>  <i_epik_Tot_abs_Q>  (1445) 
1

>  <i_f3d_flags>  (1445) 
0

>  <i_i_glide_confnum>  (1445) 
7

>  <i_i_glide_lignum>  (1445) 
703

>  <i_i_glide_posenum>  (1445) 
3

>  <i_i_glide_rotatable_bonds>  (1445) 
8

>  <i_lp_mmshare_version>  (1445) 
65135

>  <i_m_ct_format>  (1445) 
2

>  <i_m_source_file_index>  (1445) 
2188

>  <i_qp_#NandO>  (1445) 
6

>  <i_qp_#acid>  (1445) 
0

>  <i_qp_#amide>  (1445) 
0

>  <i_qp_#amidine>  (1445) 
0

>  <i_qp_#amine>  (1445) 
1

>  <i_qp_#in34>  (1445) 
0

>  <i_qp_#in56>  (1445) 
22

>  <i_qp_#metab>  (1445) 
5

>  <i_qp_#nonHatm>  (1445) 
34

>  <i_qp_#noncon>  (1445) 
0

>  <i_qp_#ringatoms>  (1445) 
22

>  <i_qp_#rotor>  (1445) 
8

>  <i_qp_#rtvFG>  (1445) 
0

>  <i_qp_#stars>  (1445) 
1

>  <i_qp_CNS>  (1445) 
1

>  <i_qp_HumanOralAbsorption>  (1445) 
3

>  <i_qp_RuleOfFive>  (1445) 
0

>  <i_qp_RuleOfThree>  (1445) 
1

>  <i_sd_BIOSOLVEIT.INFINISEE\_RESULT\_RANK>  (1445) 
2597

>  <i_sd_version>  (1445) 
0

>  <b_lp_Chiralities_Consistent>  (1445) 
1

>  <b_sd_chiral_flag>  (1445) 
0

>  <canonical_id>  (1445) 
ATP-HTVS-E2AE692EC3A5

>  <compound_code>  (1445) 
69985

>  <title>  (1445) 
rxn502b____EMOL18624763____EMOL44466703____EMOL24630243

>  <variant>  (1445) 
69985-2

>  <source_file>  (1445) 
运行/运行/ATP-VSW/ATP-VSW-DOCK_HTVS_1-001_lib/ATP-VSW-DOCK_HTVS_1-001_lib

>  <canonical_smiles>  (1445) 
CN(c1cc2ccccc2nc1NC(=O)c1ccc(C[NH+](C)C)cc1)[C@H](C#N)c1ccccc1

>  <scaffold>  (1445) 
O=C(Nc1nc2ccccc2cc1NCc1ccccc1)c1ccccc1

>  <molecular_formula>  (1445) 
C28H28N5O+

$$$$
ATP-HTVS-E2D3668E21DF
     RDKit          3D

 67 70  0  0  0  0  0  0  0  0999 V2000
  198.0937  183.2110  155.1803 N   0  0  0  0  0  0  0  0  0  0  0  0
  198.2213  184.4940  155.5299 C   0  0  0  0  0  0  0  0  0  0  0  0
  197.6153  185.0028  156.6120 N   0  0  0  0  0  0  0  0  0  0  0  0
  196.8302  184.2239  157.3724 C   0  0  0  0  0  0  0  0  0  0  0  0
  196.6167  182.8699  157.0176 C   0  0  0  0  0  0  0  0  0  0  0  0
  197.2643  182.3955  155.8605 C   0  0  0  0  0  0  0  0  0  0  0  0
  197.0979  181.0828  155.3929 N   0  0  0  0  0  0  0  0  0  0  0  0
  196.9660  180.8510  153.9563 C   0  0  1  0  0  0  0  0  0  0  0  0
  198.1217  180.0031  153.4015 C   0  0  1  0  0  0  0  0  0  0  0  0
  197.9193  179.5368  151.9614 C   0  0  0  0  0  0  0  0  0  0  0  0
  198.5096  178.3291  151.5454 C   0  0  0  0  0  0  0  0  0  0  0  0
  198.2891  177.8363  150.2433 C   0  0  0  0  0  0  0  0  0  0  0  0
  197.5531  178.5899  149.3052 C   0  0  0  0  0  0  0  0  0  0  0  0
  196.9708  179.8079  149.7188 C   0  0  0  0  0  0  0  0  0  0  0  0
  197.1485  180.2761  151.0345 C   0  0  0  0  0  0  0  0  0  0  0  0
  197.3596  178.0894  147.8772 C   0  0  1  0  0  0  0  0  0  0  0  0
  198.5548  178.3193  147.0189 N   0  0  1  0  0  0  0  0  0  0  0  0
  199.6642  177.3628  147.2551 C   0  0  2  0  0  0  0  0  0  0  0  0
  198.2176  178.3776  145.5791 C   0  0  2  0  0  0  0  0  0  0  0  0
  195.7516  182.0808  157.7871 C   0  0  0  0  0  0  0  0  0  0  0  0
  195.1398  182.6105  158.9394 C   0  0  0  0  0  0  0  0  0  0  0  0
  195.3765  183.9523  159.3111 C   0  0  0  0  0  0  0  0  0  0  0  0
  196.2133  184.7628  158.5178 C   0  0  0  0  0  0  0  0  0  0  0  0
  198.9946  185.3448  154.7694 N   0  0  0  0  0  0  0  0  0  0  0  0
  199.7974  184.9503  153.6184 C   0  0  1  0  0  0  0  0  0  0  0  0
  199.0707  184.8627  152.2765 C   0  0  0  0  0  0  0  0  0  0  0  0
  197.7476  184.3735  152.1789 C   0  0  0  0  0  0  0  0  0  0  0  0
  197.1199  184.2303  150.9352 C   0  0  0  0  0  0  0  0  0  0  0  0
  195.8361  183.7051  150.9174 N   0  0  0  0  0  0  0  0  0  0  0  0
  197.7835  184.6116  149.7600 C   0  0  0  0  0  0  0  0  0  0  0  0
  199.0939  185.1250  149.8384 C   0  0  0  0  0  0  0  0  0  0  0  0
  199.7415  185.2417  151.0910 C   0  0  0  0  0  0  0  0  0  0  0  0
  199.7993  185.5406  148.5648 C   0  0  2  0  0  0  0  0  0  0  0  0
  196.5638  180.4487  155.9811 H   0  0  0  0  0  0  0  0  0  0  0  0
  196.0302  180.3180  153.8015 H   0  0  0  0  0  0  0  0  0  0  0  0
  196.8779  181.7837  153.3996 H   0  0  0  0  0  0  0  0  0  0  0  0
  199.0571  180.5625  153.4604 H   0  0  0  0  0  0  0  0  0  0  0  0
  198.2454  179.1204  154.0296 H   0  0  0  0  0  0  0  0  0  0  0  0
  199.1225  177.7466  152.2237 H   0  0  0  0  0  0  0  0  0  0  0  0
  198.6989  176.8681  149.9960 H   0  0  0  0  0  0  0  0  0  0  0  0
  196.3679  180.3951  149.0428 H   0  0  0  0  0  0  0  0  0  0  0  0
  196.6766  181.2034  151.3105 H   0  0  0  0  0  0  0  0  0  0  0  0
  197.0871  177.0380  147.8826 H   0  0  0  0  0  0  0  0  0  0  0  0
  196.4955  178.6132  147.4594 H   0  0  0  0  0  0  0  0  0  0  0  0
  199.3311  176.3439  147.0586 H   0  0  0  0  0  0  0  0  0  0  0  0
  200.0559  177.4119  148.2646 H   0  0  0  0  0  0  0  0  0  0  0  0
  200.5109  177.5754  146.6053 H   0  0  0  0  0  0  0  0  0  0  0  0
  197.7613  177.4458  145.2528 H   0  0  0  0  0  0  0  0  0  0  0  0
  199.1131  178.5341  144.9734 H   0  0  0  0  0  0  0  0  0  0  0  0
  197.5254  179.1893  145.3534 H   0  0  0  0  0  0  0  0  0  0  0  0
  195.5434  181.0560  157.5179 H   0  0  0  0  0  0  0  0  0  0  0  0
  194.5014  181.9768  159.5375 H   0  0  0  0  0  0  0  0  0  0  0  0
  194.8983  184.3613  160.1957 H   0  0  0  0  0  0  0  0  0  0  0  0
  196.3786  185.7927  158.8028 H   0  0  0  0  0  0  0  0  0  0  0  0
  199.0105  186.3174  155.0386 H   0  0  0  0  0  0  0  0  0  0  0  0
  200.6147  185.6671  153.5356 H   0  0  0  0  0  0  0  0  0  0  0  0
  200.2719  183.9908  153.8325 H   0  0  0  0  0  0  0  0  0  0  0  0
  197.1578  184.0900  153.0313 H   0  0  0  0  0  0  0  0  0  0  0  0
  195.3159  183.6730  150.0482 H   0  0  0  0  0  0  0  0  0  0  0  0
  195.3324  183.5686  151.7819 H   0  0  0  0  0  0  0  0  0  0  0  0
  197.2846  184.5191  148.8038 H   0  0  0  0  0  0  0  0  0  0  0  0
  200.7514  185.6268  151.1385 H   0  0  0  0  0  0  0  0  0  0  0  0
  200.8577  185.7421  148.7395 H   0  0  0  0  0  0  0  0  0  0  0  0
  199.3346  186.4419  148.1648 H   0  0  0  0  0  0  0  0  0  0  0  0
  199.7128  184.7469  147.8199 H   0  0  0  0  0  0  0  0  0  0  0  0
  197.7219  185.9798  156.8701 H   0  0  0  0  0  0  0  0  0  0  0  0
  198.8945  179.2402  147.2545 H   0  0  0  0  0  0  0  0  0  0  0  0
  1  2  1  0
  1  6  2  0
  2  3  2  0
  2 24  1  0
  3  4  1  0
  3 66  1  0
  4  5  1  0
  4 23  2  0
  5  6  1  0
  5 20  2  0
  6  7  1  0
  7  8  1  0
  7 34  1  0
  8  9  1  0
  8 35  1  1
  8 36  1  0
  9 10  1  0
  9 37  1  6
  9 38  1  0
 10 11  1  0
 10 15  2  0
 11 12  2  0
 11 39  1  0
 12 13  1  0
 12 40  1  0
 13 14  2  0
 13 16  1  0
 14 15  1  0
 14 41  1  0
 15 42  1  0
 16 17  1  0
 16 43  1  1
 16 44  1  0
 17 18  1  0
 17 19  1  0
 17 67  1  1
 18 45  1  6
 18 46  1  0
 18 47  1  0
 19 48  1  6
 19 49  1  0
 19 50  1  0
 20 21  1  0
 20 51  1  0
 21 22  2  0
 21 52  1  0
 22 23  1  0
 22 53  1  0
 23 54  1  0
 24 25  1  0
 24 55  1  0
 25 26  1  0
 25 56  1  6
 25 57  1  0
 26 27  2  0
 26 32  1  0
 27 28  1  0
 27 58  1  0
 28 29  1  0
 28 30  2  0
 29 59  1  0
 29 60  1  0
 30 31  1  0
 30 61  1  0
 31 32  2  0
 31 33  1  0
 32 62  1  0
 33 63  1  1
 33 64  1  0
 33 65  1  0
M  CHG  2   3   1  17   1
M  END
>  <s_epik_cmdline>  (1446) 
J2VwaWtfcHl0aG9uJywgJy1waCcsICc3LjAwMDAwMCcsICctcGh0JywgJzIuMDAwMDAwJywgJy1tcycsICcxNicsICctdG4nLCAnOCcsICctbWEnLCAnMjAwJywgJy1pbWFlJywgJzxpbmZpbGUubWFlPicsICctb21hZScsICc8b3V0ZmlsZS5tYWU+Jw==

>  <s_epik_input>  (1446) 
W2NIXTFjKFtDSDNdKVtjSF1jKFtOSDJdKVtjSF1jMVtDSDJdW05IXWMobjIpbmMoYyhjMjMpW2NIXVtjSF1bY0hdW2NIXTMpW05IXVtDSDJdW0NIMl1jNFtjSF1bY0hdYyhbY0hdW2NIXTQpW0NIMl1OKFtDSDNdKVtDSDNd

>  <s_i_glide_gridfile>  (1446) 
ATP-Grid

>  <s_lp_Force_Field>  (1446) 
OPLS_2005

>  <s_lp_Variant>  (1446) 
m_282030aaa____21905082____22360182____21967972-1

>  <s_lp_label>  (1446) 
1103_sdstereoexpander_1_neutralizer_1_epik_1_stereoizer_1

>  <s_m_source_file>  (1446) 
ATP-VSW-LIGPREP-001-in.maegz

>  <s_sd_BIOSOLVEIT.INFINISEE\_QUERY\_NAME>  (1446) 
Ref-Lig

>  <s_sd_BIOSOLVEIT.INFINISEE\_QUERY\_SMILES>  (1446) 
S(c1nc2c(cc1C[NH2+]Cc3ccc(cc3)C[NH+](C)C)cccc2)Cc4ccccc4

>  <s_sd_BIOSOLVEIT.INFINISEE\_REACTION\_NAME>  (1446) 
m_282030aaa

>  <s_sd_BIOSOLVEIT.INFINISEE\_REAGENT1\_SMILES>  (1446) 
[R1*]NCc1cc(N)cc(c1)C

>  <s_sd_BIOSOLVEIT.INFINISEE\_REAGENT2\_SMILES>  (1446) 
[R2*]c1nc([R1*])c2c(n1)cccc2

>  <s_sd_BIOSOLVEIT.INFINISEE\_REAGENT3\_SMILES>  (1446) 
[R2*]NCCc1ccc(cc1)CN(C)C

>  <s_sd_BIOSOLVEIT.INFINISEE\_SPACE>  (1446) 
REALSpace_44bn_2023-08

>  <s_vsw_compound_code>  (1446) 
35265

>  <s_vsw_variant>  (1446) 
35265-1

>  <r_epik_Charging_Adjusted_Penalty>  (1446) 
0.108225052375217

>  <r_epik_Ionization_Penalty>  (1446) 
0.059499999999999997

>  <r_epik_Ionization_Penalty_Charging>  (1446) 
0.054600000000000003

>  <r_epik_Ionization_Penalty_Neutral>  (1446) 
0.0048999999999999998

>  <r_epik_State_Penalty>  (1446) 
0.053699999999999998

>  <r_i_docking_score>  (1446) 
-3.5871588864067898

>  <r_i_glide_ecoul>  (1446) 
-6.7903547286987296

>  <r_i_glide_eff_state_penalty>  (1446) 
0.053699999999999998

>  <r_i_glide_einternal>  (1446) 
4.7421946525573704

>  <r_i_glide_emodel>  (1446) 
-51.397970302373203

>  <r_i_glide_energy>  (1446) 
-39.7912244796753

>  <r_i_glide_erotb>  (1446) 
0.81614353935777395

>  <r_i_glide_esite>  (1446) 
-0.066108208847384706

>  <r_i_glide_evdw>  (1446) 
-33.000869750976598

>  <r_i_glide_gscore>  (1446) 
-3.6408588864067899

>  <r_i_glide_hbond>  (1446) 
-0.111892709322957

>  <r_i_glide_ligand_efficiency>  (1446) 
-0.108701784436569

>  <r_i_glide_ligand_efficiency_ln>  (1446) 
-0.79776556302217905

>  <r_i_glide_ligand_efficiency_sa>  (1446) 
-0.34866470490573298

>  <r_i_glide_lipo>  (1446) 
-1.2173018315624

>  <r_i_glide_metal>  (1446) 
-0

>  <r_i_glide_rewards>  (1446) 
-0.39310297917818299

>  <r_lp_Energy>  (1446) 
19.899041

>  <r_qp_ACxDN^.5/SA>  (1446) 
0.0151352

>  <r_qp_CIQPlogS>  (1446) 
-5.8209999999999997

>  <r_qp_EA(eV)>  (1446) 
0.46300000000000002

>  <r_qp_FISA>  (1446) 
89.906999999999996

>  <r_qp_FOSA>  (1446) 
355.84500000000003

>  <r_qp_IP(eV)>  (1446) 
7.8949999999999996

>  <r_qp_Jm>  (1446) 
0.010417310607424001

>  <r_qp_PISA>  (1446) 
295.89600000000002

>  <r_qp_PSA>  (1446) 
70.855999999999995

>  <r_qp_PercentHumanOralAbsorption>  (1446) 
100

>  <r_qp_QPPCaco>  (1446) 
346.90300000000002

>  <r_qp_QPPMDCK>  (1446) 
174.28100000000001

>  <r_qp_QPlogBB>  (1446) 
-0.51700000000000002

>  <r_qp_QPlogHERG>  (1446) 
-6.4699999999999998

>  <r_qp_QPlogKhsa>  (1446) 
0.74399999999999999

>  <r_qp_QPlogKp>  (1446) 
-3.2370000000000001

>  <r_qp_QPlogPC16>  (1446) 
14.943

>  <r_qp_QPlogPo/w>  (1446) 
4.5090000000000003

>  <r_qp_QPlogPoct>  (1446) 
24.047000000000001

>  <r_qp_QPlogPw>  (1446) 
12.958

>  <r_qp_QPlogS>  (1446) 
-4.3899999999999997

>  <r_qp_QPpolrz>  (1446) 
47.401000000000003

>  <r_qp_SASA>  (1446) 
741.64800000000002

>  <r_qp_SAamideO>  (1446) 
0

>  <r_qp_SAfluorine>  (1446) 
0

>  <r_qp_WPSA>  (1446) 
0

>  <r_qp_accptHB>  (1446) 
6

>  <r_qp_dip^2/V>  (1446) 
0.0105407

>  <r_qp_dipole>  (1446) 
3.8799999999999999

>  <r_qp_donorHB>  (1446) 
3.5

>  <r_qp_glob>  (1446) 
0.82691420000000004

>  <r_qp_mol_MW>  (1446) 
440.58999999999997

>  <r_qp_volume>  (1446) 
1428.037

>  <r_sd_BIOSOLVEIT.INFINISEE\_FTREES\_SIMILARITY>  (1446) 
0.91300000000000003

>  <r_sd_BIOSOLVEIT.LOGP>  (1446) 
3.4316200000000001

>  <r_sd_BIOSOLVEIT.MOLECULAR\_WEIGHT>  (1446) 
441.60000000000002

>  <r_sd_BIOSOLVEIT.TPSA>  (1446) 
80.299999999999997

>  <i_epik_Tot_Q>  (1446) 
2

>  <i_epik_Tot_abs_Q>  (1446) 
2

>  <i_f3d_flags>  (1446) 
0

>  <i_i_glide_confnum>  (1446) 
9

>  <i_i_glide_lignum>  (1446) 
260

>  <i_i_glide_posenum>  (1446) 
4

>  <i_i_glide_rotatable_bonds>  (1446) 
9

>  <i_lp_mmshare_version>  (1446) 
65135

>  <i_m_ct_format>  (1446) 
2

>  <i_m_source_file_index>  (1446) 
1103

>  <i_qp_#NandO>  (1446) 
6

>  <i_qp_#acid>  (1446) 
0

>  <i_qp_#amide>  (1446) 
0

>  <i_qp_#amidine>  (1446) 
0

>  <i_qp_#amine>  (1446) 
1

>  <i_qp_#in34>  (1446) 
0

>  <i_qp_#in56>  (1446) 
22

>  <i_qp_#metab>  (1446) 
8

>  <i_qp_#nonHatm>  (1446) 
33

>  <i_qp_#noncon>  (1446) 
0

>  <i_qp_#ringatoms>  (1446) 
22

>  <i_qp_#rotor>  (1446) 
10

>  <i_qp_#rtvFG>  (1446) 
0

>  <i_qp_#stars>  (1446) 
1

>  <i_qp_CNS>  (1446) 
0

>  <i_qp_HumanOralAbsorption>  (1446) 
3

>  <i_qp_RuleOfFive>  (1446) 
0

>  <i_qp_RuleOfThree>  (1446) 
1

>  <i_sd_BIOSOLVEIT.INFINISEE\_REAGENT1\_NAME>  (1446) 
21905082

>  <i_sd_BIOSOLVEIT.INFINISEE\_REAGENT2\_NAME>  (1446) 
22360182

>  <i_sd_BIOSOLVEIT.INFINISEE\_REAGENT3\_NAME>  (1446) 
21967972

>  <i_sd_BIOSOLVEIT.INFINISEE\_RESULT\_RANK>  (1446) 
33493

>  <i_sd_version>  (1446) 
0

>  <b_lp_Chiralities_Consistent>  (1446) 
1

>  <b_sd_chiral_flag>  (1446) 
0

>  <canonical_id>  (1446) 
ATP-HTVS-E2D3668E21DF

>  <compound_code>  (1446) 
35265

>  <title>  (1446) 
m_282030aaa____21905082____22360182____21967972

>  <variant>  (1446) 
35265-1

>  <source_file>  (1446) 
运行/运行/ATP-VSW/ATP-VSW-DOCK_HTVS_1-001_lib/ATP-VSW-DOCK_HTVS_1-001_lib

>  <canonical_smiles>  (1446) 
Cc1cc(N)cc(CNc2nc(NCCc3ccc(C[NH+](C)C)cc3)c3ccccc3[nH+]2)c1

>  <scaffold>  (1446) 
c1ccc(CCNc2nc(NCc3ccccc3)[nH+]c3ccccc23)cc1

>  <molecular_formula>  (1446) 
C27H34N6+2

$$$$
ATP-HTVS-E317819F970C
     RDKit          3D

 58 61  0  0  0  0  0  0  0  0999 V2000
  189.9138  188.9288  160.9278 F   0  0  0  0  0  0  0  0  0  0  0  0
  190.9015  188.6768  161.7963 C   0  0  0  0  0  0  0  0  0  0  0  0
  190.8594  189.2470  163.0733 C   0  0  0  0  0  0  0  0  0  0  0  0
  191.9650  189.0819  163.9200 C   0  0  0  0  0  0  0  0  0  0  0  0
  191.9669  189.6339  165.1594 F   0  0  0  0  0  0  0  0  0  0  0  0
  193.0814  188.3592  163.4772 C   0  0  0  0  0  0  0  0  0  0  0  0
  193.1262  187.7699  162.2100 C   0  0  0  0  0  0  0  0  0  0  0  0
  191.9932  187.9041  161.3902 C   0  0  0  0  0  0  0  0  0  0  0  0
  194.4016  187.0604  161.7583 C   0  0  1  0  0  0  0  0  0  0  0  0
  194.3566  186.4894  160.4219 N   0  0  0  0  0  0  0  0  0  0  0  0
  195.4034  185.6958  159.9692 C   0  0  0  0  0  0  0  0  0  0  0  0
  196.6523  186.1620  160.1024 N   0  0  0  0  0  0  0  0  0  0  0  0
  197.6580  185.3417  159.7300 C   0  0  0  0  0  0  0  0  0  0  0  0
  197.5232  184.1112  159.3141 N   0  0  0  0  0  0  0  0  0  0  0  0
  196.3121  183.6756  159.0352 C   0  0  0  0  0  0  0  0  0  0  0  0
  195.1499  184.4403  159.3838 C   0  0  0  0  0  0  0  0  0  0  0  0
  193.8405  183.9094  159.1423 C   0  0  0  0  0  0  0  0  0  0  0  0
  193.7050  182.6660  158.4882 C   0  0  0  0  0  0  0  0  0  0  0  0
  194.8377  181.9617  158.0800 C   0  0  0  0  0  0  0  0  0  0  0  0
  196.1205  182.4781  158.3394 C   0  0  0  0  0  0  0  0  0  0  0  0
  198.9140  185.9250  159.6075 N   0  0  0  0  0  0  0  0  0  0  0  0
  200.1172  185.3593  158.9983 C   0  0  1  0  0  0  0  0  0  0  0  0
  199.9177  184.3025  157.9123 C   0  0  0  0  0  0  0  0  0  0  0  0
  198.9169  184.4869  156.9307 C   0  0  0  0  0  0  0  0  0  0  0  0
  198.5587  183.4604  156.0558 C   0  0  0  0  0  0  0  0  0  0  0  0
  199.2607  182.2425  156.0906 C   0  0  0  0  0  0  0  0  0  0  0  0
  200.2962  182.0539  157.0302 C   0  0  0  0  0  0  0  0  0  0  0  0
  200.6213  183.0842  157.9383 C   0  0  0  0  0  0  0  0  0  0  0  0
  197.3875  183.6704  155.1081 C   0  0  1  0  0  0  0  0  0  0  0  0
  197.8350  184.2885  153.8374 N   0  0  1  0  0  0  0  0  0  0  0  0
  196.7592  184.3896  152.8330 C   0  0  2  0  0  0  0  0  0  0  0  0
  198.5111  185.5959  154.0266 C   0  0  2  0  0  0  0  0  0  0  0  0
  190.0000  189.8253  163.3864 H   0  0  0  0  0  0  0  0  0  0  0  0
  193.9216  188.2492  164.1296 H   0  0  0  0  0  0  0  0  0  0  0  0
  191.9669  187.5148  160.3700 H   0  0  0  0  0  0  0  0  0  0  0  0
  195.2463  187.7631  161.7947 H   0  0  0  0  0  0  0  0  0  0  0  0
  194.6138  186.2547  162.4670 H   0  0  0  0  0  0  0  0  0  0  0  0
  193.4402  186.2224  160.0628 H   0  0  0  0  0  0  0  0  0  0  0  0
  192.9499  184.4207  159.4744 H   0  0  0  0  0  0  0  0  0  0  0  0
  192.7509  182.1974  158.3531 H   0  0  0  0  0  0  0  0  0  0  0  0
  194.7289  181.0404  157.5518 H   0  0  0  0  0  0  0  0  0  0  0  0
  196.9793  181.9435  157.9630 H   0  0  0  0  0  0  0  0  0  0  0  0
  198.9961  186.8382  160.0128 H   0  0  0  0  0  0  0  0  0  0  0  0
  200.6856  186.1882  158.5750 H   0  0  0  0  0  0  0  0  0  0  0  0
  200.7498  184.9412  159.7774 H   0  0  0  0  0  0  0  0  0  0  0  0
  198.3888  185.4369  156.9092 H   0  0  0  0  0  0  0  0  0  0  0  0
  198.9729  181.4201  155.4316 H   0  0  0  0  0  0  0  0  0  0  0  0
  200.7938  181.0964  157.0991 H   0  0  0  0  0  0  0  0  0  0  0  0
  201.3282  182.8859  158.7351 H   0  0  0  0  0  0  0  0  0  0  0  0
  196.8875  182.7123  154.9147 H   0  0  0  0  0  0  0  0  0  0  0  0
  196.6202  184.2884  155.5804 H   0  0  0  0  0  0  0  0  0  0  0  0
  195.9496  185.0100  153.2241 H   0  0  0  0  0  0  0  0  0  0  0  0
  196.3621  183.4084  152.5635 H   0  0  0  0  0  0  0  0  0  0  0  0
  197.1453  184.8625  151.9289 H   0  0  0  0  0  0  0  0  0  0  0  0
  197.8337  186.3195  154.4872 H   0  0  0  0  0  0  0  0  0  0  0  0
  198.8820  185.9930  153.0816 H   0  0  0  0  0  0  0  0  0  0  0  0
  199.4047  185.5202  154.6422 H   0  0  0  0  0  0  0  0  0  0  0  0
  198.5200  183.6468  153.4698 H   0  0  0  0  0  0  0  0  0  0  0  0
  1  2  1  0
  2  3  1  0
  2  8  2  0
  3  4  2  0
  3 33  1  0
  4  5  1  0
  4  6  1  0
  6  7  2  0
  6 34  1  0
  7  8  1  0
  7  9  1  0
  8 35  1  0
  9 10  1  0
  9 36  1  6
  9 37  1  0
 10 11  1  0
 10 38  1  0
 11 12  1  0
 11 16  2  0
 12 13  2  0
 13 14  1  0
 13 21  1  0
 14 15  2  0
 15 16  1  0
 15 20  1  0
 16 17  1  0
 17 18  2  0
 17 39  1  0
 18 19  1  0
 18 40  1  0
 19 20  2  0
 19 41  1  0
 20 42  1  0
 21 22  1  0
 21 43  1  0
 22 23  1  0
 22 44  1  6
 22 45  1  0
 23 24  2  0
 23 28  1  0
 24 25  1  0
 24 46  1  0
 25 26  2  0
 25 29  1  0
 26 27  1  0
 26 47  1  0
 27 28  2  0
 27 48  1  0
 28 49  1  0
 29 30  1  0
 29 50  1  6
 29 51  1  0
 30 31  1  0
 30 32  1  0
 30 58  1  6
 31 52  1  1
 31 53  1  0
 31 54  1  0
 32 55  1  1
 32 56  1  0
 32 57  1  0
M  CHG  1  30   1
M  END
>  <s_epik_cmdline>  (1447) 
J2VwaWtfcHl0aG9uJywgJy1waCcsICc3LjAwMDAwMCcsICctcGh0JywgJzIuMDAwMDAwJywgJy1tcycsICcxNicsICctdG4nLCAnOCcsICctbWEnLCAnMjAwJywgJy1pbWFlJywgJzxpbmZpbGUubWFlPicsICctb21hZScsICc8b3V0ZmlsZS5tYWU+Jw==

>  <s_epik_input>  (1447) 
RmMxW2NIXWMoRilbY0hdYyhbY0hdMSlbQ0gyXVtOSF1jKGMoYzIzKVtjSF1bY0hdW2NIXVtjSF0zKW5jKG4yKVtOSF1bQ0gyXWM0W2NIXWMoW2NIXVtjSF1bY0hdNClbQ0gyXU4oW0NIM10pW0NIM10=

>  <s_i_glide_gridfile>  (1447) 
ATP-Grid

>  <s_lp_Force_Field>  (1447) 
OPLS_2005

>  <s_lp_Variant>  (1447) 
m_282030aaa____21928704____22360182____21940090-3

>  <s_lp_label>  (1447) 
1002_sdstereoexpander_1_neutralizer_1_epik_3_stereoizer_1

>  <s_m_source_file>  (1447) 
ATP-VSW-LIGPREP-003-in.maegz

>  <s_sd_BIOSOLVEIT.INFINISEE\_QUERY\_NAME>  (1447) 
Ref-Lig

>  <s_sd_BIOSOLVEIT.INFINISEE\_QUERY\_SMILES>  (1447) 
S(c1nc2c(cc1C[NH2+]Cc3ccc(cc3)C[NH+](C)C)cccc2)Cc4ccccc4

>  <s_sd_BIOSOLVEIT.INFINISEE\_REACTION\_NAME>  (1447) 
m_282030aaa

>  <s_sd_BIOSOLVEIT.INFINISEE\_REAGENT1\_SMILES>  (1447) 
[R1*]NCc1cc(F)cc(F)c1

>  <s_sd_BIOSOLVEIT.INFINISEE\_REAGENT2\_SMILES>  (1447) 
[R2*]c1nc([R1*])c2c(n1)cccc2

>  <s_sd_BIOSOLVEIT.INFINISEE\_REAGENT3\_SMILES>  (1447) 
[R2*]NCc1cc(ccc1)CN(C)C

>  <s_sd_BIOSOLVEIT.INFINISEE\_SPACE>  (1447) 
REALSpace_44bn_2023-08

>  <s_vsw_compound_code>  (1447) 
32035

>  <s_vsw_variant>  (1447) 
32035-3

>  <r_epik_Charging_Adjusted_Penalty>  (1447) 
2.2034273795158001

>  <r_epik_Ionization_Penalty>  (1447) 
2.3361000000000001

>  <r_epik_Ionization_Penalty_Charging>  (1447) 
0.0441

>  <r_epik_Ionization_Penalty_Neutral>  (1447) 
2.2919999999999998

>  <r_epik_State_Penalty>  (1447) 
2.1593

>  <r_i_docking_score>  (1447) 
-2.380741576248

>  <r_i_glide_ecoul>  (1447) 
-3.9501905441284202

>  <r_i_glide_eff_state_penalty>  (1447) 
2.1593

>  <r_i_glide_einternal>  (1447) 
3.80393409729004

>  <r_i_glide_emodel>  (1447) 
-45.823758807940401

>  <r_i_glide_energy>  (1447) 
-34.805560111999498

>  <r_i_glide_erotb>  (1447) 
0.73844633624998501

>  <r_i_glide_esite>  (1447) 
-0.0104299754825772

>  <r_i_glide_evdw>  (1447) 
-30.855369567871101

>  <r_i_glide_gscore>  (1447) 
-4.540041576248

>  <r_i_glide_hbond>  (1447) 
-0.16835210736015299

>  <r_i_glide_ligand_efficiency>  (1447) 
-0.074398174257749999

>  <r_i_glide_ligand_efficiency_ln>  (1447) 
-0.53311293548627203

>  <r_i_glide_ligand_efficiency_sa>  (1447) 
-0.236199479889663

>  <r_i_glide_lipo>  (1447) 
-1.7831366455603399

>  <r_i_glide_metal>  (1447) 
-0

>  <r_i_glide_rewards>  (1447) 
-1.1812721240821

>  <r_lp_Energy>  (1447) 
7.3198080000000001

>  <r_qp_ACxDN^.5/SA>  (1447) 
0.0119471

>  <r_qp_CIQPlogS>  (1447) 
-6.2190000000000003

>  <r_qp_EA(eV)>  (1447) 
0.876

>  <r_qp_FISA>  (1447) 
42.692999999999998

>  <r_qp_FOSA>  (1447) 
193.321

>  <r_qp_IP(eV)>  (1447) 
8.327

>  <r_qp_Jm>  (1447) 
1.4073029271973201

>  <r_qp_PISA>  (1447) 
297.85700000000003

>  <r_qp_PSA>  (1447) 
45.713999999999999

>  <r_qp_PercentHumanOralAbsorption>  (1447) 
100

>  <r_qp_QPPCaco>  (1447) 
972.60699999999997

>  <r_qp_QPPMDCK>  (1447) 
1103.8019999999999

>  <r_qp_QPlogBB>  (1447) 
0.29399999999999998

>  <r_qp_QPlogHERG>  (1447) 
-4.7869999999999999

>  <r_qp_QPlogKhsa>  (1447) 
0.623

>  <r_qp_QPlogKp>  (1447) 
-2.552

>  <r_qp_QPlogPC16>  (1447) 
12.201000000000001

>  <r_qp_QPlogPo/w>  (1447) 
4.4790000000000001

>  <r_qp_QPlogPoct>  (1447) 
19.158000000000001

>  <r_qp_QPlogPw>  (1447) 
9.5700000000000003

>  <r_qp_QPlogS>  (1447) 
-2.9369999999999998

>  <r_qp_QPpolrz>  (1447) 
40.265999999999998

>  <r_qp_SASA>  (1447) 
591.86699999999996

>  <r_qp_SAamideO>  (1447) 
0

>  <r_qp_SAfluorine>  (1447) 
57.996000000000002

>  <r_qp_WPSA>  (1447) 
57.996000000000002

>  <r_qp_accptHB>  (1447) 
5

>  <r_qp_dip^2/V>  (1447) 
0.0045640000000000003

>  <r_qp_dipole>  (1447) 
2.3570000000000002

>  <r_qp_donorHB>  (1447) 
2

>  <r_qp_glob>  (1447) 
0.93149959999999998

>  <r_qp_mol_MW>  (1447) 
433.50299999999999

>  <r_qp_volume>  (1447) 
1217.201

>  <r_sd_BIOSOLVEIT.INFINISEE\_FTREES\_SIMILARITY>  (1447) 
0.91600000000000004

>  <r_sd_BIOSOLVEIT.LOGP>  (1447) 
3.7766999999999999

>  <r_sd_BIOSOLVEIT.MOLECULAR\_WEIGHT>  (1447) 
434.51100000000002

>  <r_sd_BIOSOLVEIT.TPSA>  (1447) 
54.280000000000001

>  <i_epik_Tot_Q>  (1447) 
1

>  <i_epik_Tot_abs_Q>  (1447) 
1

>  <i_f3d_flags>  (1447) 
0

>  <i_i_glide_confnum>  (1447) 
8

>  <i_i_glide_lignum>  (1447) 
376

>  <i_i_glide_posenum>  (1447) 
20

>  <i_i_glide_rotatable_bonds>  (1447) 
8

>  <i_lp_mmshare_version>  (1447) 
65135

>  <i_m_ct_format>  (1447) 
2

>  <i_m_source_file_index>  (1447) 
1002

>  <i_qp_#NandO>  (1447) 
5

>  <i_qp_#acid>  (1447) 
0

>  <i_qp_#amide>  (1447) 
0

>  <i_qp_#amidine>  (1447) 
0

>  <i_qp_#amine>  (1447) 
1

>  <i_qp_#in34>  (1447) 
0

>  <i_qp_#in56>  (1447) 
22

>  <i_qp_#metab>  (1447) 
4

>  <i_qp_#nonHatm>  (1447) 
32

>  <i_qp_#noncon>  (1447) 
0

>  <i_qp_#ringatoms>  (1447) 
22

>  <i_qp_#rotor>  (1447) 
8

>  <i_qp_#rtvFG>  (1447) 
0

>  <i_qp_#stars>  (1447) 
0

>  <i_qp_CNS>  (1447) 
1

>  <i_qp_HumanOralAbsorption>  (1447) 
3

>  <i_qp_RuleOfFive>  (1447) 
0

>  <i_qp_RuleOfThree>  (1447) 
0

>  <i_sd_BIOSOLVEIT.INFINISEE\_REAGENT1\_NAME>  (1447) 
21928704

>  <i_sd_BIOSOLVEIT.INFINISEE\_REAGENT2\_NAME>  (1447) 
22360182

>  <i_sd_BIOSOLVEIT.INFINISEE\_REAGENT3\_NAME>  (1447) 
21940090

>  <i_sd_BIOSOLVEIT.INFINISEE\_RESULT\_RANK>  (1447) 
26115

>  <i_sd_version>  (1447) 
0

>  <b_lp_Chiralities_Consistent>  (1447) 
1

>  <b_sd_chiral_flag>  (1447) 
0

>  <canonical_id>  (1447) 
ATP-HTVS-E317819F970C

>  <compound_code>  (1447) 
32035

>  <title>  (1447) 
m_282030aaa____21928704____22360182____21940090

>  <variant>  (1447) 
32035-3

>  <source_file>  (1447) 
运行/运行/ATP-VSW/ATP-VSW-DOCK_HTVS_1-003_lib/ATP-VSW-DOCK_HTVS_1-003_lib.mae

>  <canonical_smiles>  (1447) 
C[NH+](C)Cc1cccc(CNc2nc(NCc3cc(F)cc(F)c3)c3ccccc3n2)c1

>  <scaffold>  (1447) 
c1ccc(CNc2nc(NCc3ccccc3)c3ccccc3n2)cc1

>  <molecular_formula>  (1447) 
C25H26F2N5+

$$$$
ATP-HTVS-E340B301DB22
     RDKit          3D

 54 56  0  0  0  0  0  0  0  0999 V2000
  197.3190  184.5926  147.9318 Cl  0  0  0  0  0  0  0  0  0  0  0  0
  197.5470  184.7790  149.6243 C   0  0  0  0  0  0  0  0  0  0  0  0
  198.3797  186.1792  150.2037 S   0  0  0  0  0  0  0  0  0  0  0  0
  198.2350  185.6305  151.8556 C   0  0  0  0  0  0  0  0  0  0  0  0
  198.8968  186.4954  152.8716 C   0  0  0  0  0  0  0  0  0  0  0  0
  199.6435  187.4180  152.5153 O   0  0  0  0  0  0  0  0  0  0  0  0
  198.6320  186.2418  154.1573 N   0  0  0  0  0  0  0  0  0  0  0  0
  199.2383  186.8557  155.3404 C   0  0  1  0  0  0  0  0  0  0  0  0
  199.4233  188.3129  155.2004 C   0  0  0  0  0  0  0  0  0  0  0  0
  199.5618  189.4600  155.0903 N   0  0  0  0  0  0  0  0  0  0  0  0
  198.4394  186.5551  156.6015 C   0  0  0  0  0  0  0  0  0  0  0  0
  197.0711  186.8998  156.6814 C   0  0  0  0  0  0  0  0  0  0  0  0
  196.3433  186.6783  157.8708 C   0  0  0  0  0  0  0  0  0  0  0  0
  196.9786  186.1025  158.9898 C   0  0  0  0  0  0  0  0  0  0  0  0
  196.2788  185.8952  160.1364 F   0  0  0  0  0  0  0  0  0  0  0  0
  198.3387  185.7483  158.9149 C   0  0  0  0  0  0  0  0  0  0  0  0
  199.0662  185.9782  157.7292 C   0  0  0  0  0  0  0  0  0  0  0  0
  197.5764  184.4125  151.9242 C   0  0  0  0  0  0  0  0  0  0  0  0
  197.3160  183.6730  153.0971 N   0  0  0  0  0  0  0  0  0  0  0  0
  196.9194  182.2826  153.1382 C   0  0  1  0  0  0  0  0  0  0  0  0
  197.7645  181.5253  154.1335 C   0  0  0  0  0  0  0  0  0  0  0  0
  197.2902  181.2740  155.4322 C   0  0  0  0  0  0  0  0  0  0  0  0
  198.0745  180.5299  156.3371 C   0  0  0  0  0  0  0  0  0  0  0  0
  199.3524  180.0512  155.9473 C   0  0  0  0  0  0  0  0  0  0  0  0
  199.8367  180.3483  154.6601 C   0  0  0  0  0  0  0  0  0  0  0  0
  199.0446  181.0753  153.7504 C   0  0  0  0  0  0  0  0  0  0  0  0
  200.1760  179.1747  156.8811 C   0  0  1  0  0  0  0  0  0  0  0  0
  199.9298  177.7129  156.7212 N   0  0  1  0  0  0  0  0  0  0  0  0
  199.8371  177.2499  155.3127 C   0  0  2  0  0  0  0  0  0  0  0  0
  200.9181  176.9130  157.4740 C   0  0  2  0  0  0  0  0  0  0  0  0
  197.1699  183.9383  150.6331 C   0  0  0  0  0  0  0  0  0  0  0  0
  197.9640  185.5140  154.3598 H   0  0  0  0  0  0  0  0  0  0  0  0
  200.2332  186.4140  155.4442 H   0  0  0  0  0  0  0  0  0  0  0  0
  196.5751  187.3427  155.8336 H   0  0  0  0  0  0  0  0  0  0  0  0
  195.3035  186.9547  157.9336 H   0  0  0  0  0  0  0  0  0  0  0  0
  198.8210  185.3134  159.7800 H   0  0  0  0  0  0  0  0  0  0  0  0
  200.1091  185.7062  157.7003 H   0  0  0  0  0  0  0  0  0  0  0  0
  197.5419  184.0430  154.0090 H   0  0  0  0  0  0  0  0  0  0  0  0
  195.8733  182.2345  153.4353 H   0  0  0  0  0  0  0  0  0  0  0  0
  197.0204  181.7867  152.1726 H   0  0  0  0  0  0  0  0  0  0  0  0
  196.3030  181.6042  155.7266 H   0  0  0  0  0  0  0  0  0  0  0  0
  197.6736  180.2925  157.3120 H   0  0  0  0  0  0  0  0  0  0  0  0
  200.8015  179.9794  154.3386 H   0  0  0  0  0  0  0  0  0  0  0  0
  199.4053  181.2524  152.7481 H   0  0  0  0  0  0  0  0  0  0  0  0
  201.2332  179.3957  156.7230 H   0  0  0  0  0  0  0  0  0  0  0  0
  199.9617  179.4384  157.9146 H   0  0  0  0  0  0  0  0  0  0  0  0
  200.7693  177.4638  154.7910 H   0  0  0  0  0  0  0  0  0  0  0  0
  199.0182  177.7238  154.7703 H   0  0  0  0  0  0  0  0  0  0  0  0
  199.6644  176.1785  155.2604 H   0  0  0  0  0  0  0  0  0  0  0  0
  201.9323  177.1206  157.1264 H   0  0  0  0  0  0  0  0  0  0  0  0
  200.7444  175.8441  157.3363 H   0  0  0  0  0  0  0  0  0  0  0  0
  200.8727  177.1312  158.5429 H   0  0  0  0  0  0  0  0  0  0  0  0
  196.6408  183.0156  150.4586 H   0  0  0  0  0  0  0  0  0  0  0  0
  199.0168  177.5650  157.1449 H   0  0  0  0  0  0  0  0  0  0  0  0
  1  2  1  0
  2  3  1  0
  2 31  2  0
  3  4  1  0
  4  5  1  0
  4 18  2  0
  5  6  2  0
  5  7  1  0
  7  8  1  0
  7 32  1  0
  8  9  1  0
  8 11  1  0
  8 33  1  1
  9 10  3  0
 11 12  1  0
 11 17  2  0
 12 13  2  0
 12 34  1  0
 13 14  1  0
 13 35  1  0
 14 15  1  0
 14 16  2  0
 16 17  1  0
 16 36  1  0
 17 37  1  0
 18 19  1  0
 18 31  1  0
 19 20  1  0
 19 38  1  0
 20 21  1  0
 20 39  1  1
 20 40  1  0
 21 22  1  0
 21 26  2  0
 22 23  2  0
 22 41  1  0
 23 24  1  0
 23 42  1  0
 24 25  2  0
 24 27  1  0
 25 26  1  0
 25 43  1  0
 26 44  1  0
 27 28  1  0
 27 45  1  6
 27 46  1  0
 28 29  1  0
 28 30  1  0
 28 54  1  1
 29 47  1  6
 29 48  1  0
 29 49  1  0
 30 50  1  6
 30 51  1  0
 30 52  1  0
 31 53  1  0
M  CHG  1  28   1
M  END
>  <s_epik_cmdline>  (1448) 
J2VwaWtfcHl0aG9uJywgJy1waCcsICc3LjAwMDAwMCcsICctcGh0JywgJzIuMDAwMDAwJywgJy1tcycsICcxNicsICctdG4nLCAnOCcsICctbWEnLCAnMjAwJywgJy1pbWFlJywgJzxpbmZpbGUubWFlPicsICctb21hZScsICc8b3V0ZmlsZS5tYWU+Jw==

>  <s_epik_input>  (1448) 
W2NIXTFbY0hdYyhGKVtjSF1bY0hdYzFbQ0BIXShDI04pW05IXUMoPU8pYyhzYzJDbCljKFtjSF0yKVtOSF1bQ0gyXWMzW2NIXVtjSF1jKFtjSF1bY0hdMylbQ0gyXU4oW0NIM10pW0NIM10=

>  <s_i_glide_gridfile>  (1448) 
ATP-Grid

>  <s_lp_Force_Field>  (1448) 
OPLS_2005

>  <s_lp_Variant>  (1448) 
rxn512b____EMOL906257____EMOL49851977____EMOL50155899-1

>  <s_lp_label>  (1448) 
2922_sdstereoexpander_1_neutralizer_1_epik_1_stereoizer_1

>  <s_m_source_file>  (1448) 
ATP-VSW-LIGPREP-002-in.maegz

>  <s_sd_BIOSOLVEIT.INFINISEE\_QUERY\_NAME>  (1448) 
Ref-Lig

>  <s_sd_BIOSOLVEIT.INFINISEE\_QUERY\_SMILES>  (1448) 
S(c1nc2c(cc1C[NH2+]Cc3ccc(cc3)C[NH+](C)C)cccc2)Cc4ccccc4

>  <s_sd_BIOSOLVEIT.INFINISEE\_REACTION\_NAME>  (1448) 
rxn512b

>  <s_sd_BIOSOLVEIT.INFINISEE\_REAGENT1\_NAME>  (1448) 
EMOL906257

>  <s_sd_BIOSOLVEIT.INFINISEE\_REAGENT1\_SMILES>  (1448) 
Fc1ccc(cc1)C(N)C#N

>  <s_sd_BIOSOLVEIT.INFINISEE\_REAGENT2\_NAME>  (1448) 
EMOL49851977

>  <s_sd_BIOSOLVEIT.INFINISEE\_REAGENT2\_SMILES>  (1448) 
BrC1=C(SC(Cl)=C1)C(=O)O

>  <s_sd_BIOSOLVEIT.INFINISEE\_REAGENT3\_NAME>  (1448) 
EMOL50155899

>  <s_sd_BIOSOLVEIT.INFINISEE\_REAGENT3\_SMILES>  (1448) 
N(Cc1ccc(cc1)CN)(C)C

>  <s_sd_BIOSOLVEIT.INFINISEE\_SPACE>  (1448) 
eXplore_7tr_2022-12

>  <s_vsw_compound_code>  (1448) 
93474

>  <s_vsw_variant>  (1448) 
93474-1

>  <r_epik_Charging_Adjusted_Penalty>  (1448) 
0.080189274810459593

>  <r_epik_Ionization_Penalty>  (1448) 
0.0402

>  <r_epik_Ionization_Penalty_Charging>  (1448) 
0.040099999999999997

>  <r_epik_Ionization_Penalty_Neutral>  (1448) 
0.0001

>  <r_epik_State_Penalty>  (1448) 
0.040099999999999997

>  <r_i_docking_score>  (1448) 
-4.8808655148148397

>  <r_i_glide_ecoul>  (1448) 
-8.3978805541992205

>  <r_i_glide_eff_state_penalty>  (1448) 
0.040099999999999997

>  <r_i_glide_einternal>  (1448) 
4.68544626235962

>  <r_i_glide_emodel>  (1448) 
-58.848273101199403

>  <r_i_glide_energy>  (1448) 
-43.105354309082003

>  <r_i_glide_erotb>  (1448) 
0.67113942638989199

>  <r_i_glide_esite>  (1448) 
-0.134873404681882

>  <r_i_glide_evdw>  (1448) 
-34.707473754882798

>  <r_i_glide_gscore>  (1448) 
-4.9209655148148403

>  <r_i_glide_hbond>  (1448) 
-0.20000000000000001

>  <r_i_glide_ligand_efficiency>  (1448) 
-0.15744727467144701

>  <r_i_glide_ligand_efficiency_ln>  (1448) 
-1.1007847541548299

>  <r_i_glide_ligand_efficiency_sa>  (1448) 
-0.494601821858484

>  <r_i_glide_lipo>  (1448) 
-1.5989118792301

>  <r_i_glide_metal>  (1448) 
-0

>  <r_i_glide_rewards>  (1448) 
-0.66326388641873002

>  <r_lp_Energy>  (1448) 
20.298898999999999

>  <r_lp_tautomer_probability>  (1448) 
0.99999274205267796

>  <r_qp_ACxDN^.5/SA>  (1448) 
0.0073740999999999998

>  <r_qp_CIQPlogS>  (1448) 
-6.0330000000000004

>  <r_qp_EA(eV)>  (1448) 
0.89400000000000002

>  <r_qp_FISA>  (1448) 
108.12

>  <r_qp_FOSA>  (1448) 
222.47399999999999

>  <r_qp_IP(eV)>  (1448) 
8.4420000000000002

>  <r_qp_Jm>  (1448) 
2.5811208074396402e-07

>  <r_qp_PISA>  (1448) 
324.38200000000001

>  <r_qp_PSA>  (1448) 
77.384

>  <r_qp_PercentHumanOralAbsorption>  (1448) 
87.186000000000007

>  <r_qp_QPPCaco>  (1448) 
58.130000000000003

>  <r_qp_QPPMDCK>  (1448) 
206.94399999999999

>  <r_qp_QPlogBB>  (1448) 
-0.062

>  <r_qp_QPlogHERG>  (1448) 
-8.5199999999999996

>  <r_qp_QPlogKhsa>  (1448) 
0.90900000000000003

>  <r_qp_QPlogKp>  (1448) 
-5.6310000000000002

>  <r_qp_QPlogPC16>  (1448) 
15.542

>  <r_qp_QPlogPo/w>  (1448) 
4.8949999999999996

>  <r_qp_QPlogPoct>  (1448) 
21.472000000000001

>  <r_qp_QPlogPw>  (1448) 
10.064

>  <r_qp_QPlogS>  (1448) 
-6.6180000000000003

>  <r_qp_QPpolrz>  (1448) 
48.286000000000001

>  <r_qp_SASA>  (1448) 
813.66200000000003

>  <r_qp_SAamideO>  (1448) 
0

>  <r_qp_SAfluorine>  (1448) 
47.027000000000001

>  <r_qp_WPSA>  (1448) 
158.68600000000001

>  <r_qp_accptHB>  (1448) 
6

>  <r_qp_dip^2/V>  (1448) 
0.021609900000000001

>  <r_qp_dipole>  (1448) 
5.5540000000000003

>  <r_qp_donorHB>  (1448) 
1

>  <r_qp_glob>  (1448) 
0.75347019999999998

>  <r_qp_mol_MW>  (1448) 
456.964

>  <r_qp_volume>  (1448) 
1427.307

>  <r_sd_BIOSOLVEIT.INFINISEE\_FTREES\_SIMILARITY>  (1448) 
0.90400000000000003

>  <r_sd_BIOSOLVEIT.LOGP>  (1448) 
3.7918799999999999

>  <r_sd_BIOSOLVEIT.MOLECULAR\_WEIGHT>  (1448) 
457.97800000000001

>  <r_sd_BIOSOLVEIT.TPSA>  (1448) 
69.359999999999999

>  <i_epik_Tot_Q>  (1448) 
1

>  <i_epik_Tot_abs_Q>  (1448) 
1

>  <i_f3d_flags>  (1448) 
0

>  <i_i_glide_confnum>  (1448) 
7

>  <i_i_glide_lignum>  (1448) 
1446

>  <i_i_glide_posenum>  (1448) 
17

>  <i_i_glide_rotatable_bonds>  (1448) 
9

>  <i_lp_mmshare_version>  (1448) 
65135

>  <i_m_ct_format>  (1448) 
2

>  <i_m_source_file_index>  (1448) 
2922

>  <i_qp_#NandO>  (1448) 
5

>  <i_qp_#acid>  (1448) 
0

>  <i_qp_#amide>  (1448) 
0

>  <i_qp_#amidine>  (1448) 
0

>  <i_qp_#amine>  (1448) 
2

>  <i_qp_#in34>  (1448) 
0

>  <i_qp_#in56>  (1448) 
17

>  <i_qp_#metab>  (1448) 
6

>  <i_qp_#nonHatm>  (1448) 
31

>  <i_qp_#noncon>  (1448) 
0

>  <i_qp_#ringatoms>  (1448) 
17

>  <i_qp_#rotor>  (1448) 
9

>  <i_qp_#rtvFG>  (1448) 
0

>  <i_qp_#stars>  (1448) 
1

>  <i_qp_CNS>  (1448) 
1

>  <i_qp_HumanOralAbsorption>  (1448) 
1

>  <i_qp_RuleOfFive>  (1448) 
0

>  <i_qp_RuleOfThree>  (1448) 
1

>  <i_sd_BIOSOLVEIT.INFINISEE\_RESULT\_RANK>  (1448) 
77236

>  <i_sd_version>  (1448) 
0

>  <b_lp_Chiralities_Consistent>  (1448) 
1

>  <b_sd_chiral_flag>  (1448) 
0

>  <canonical_id>  (1448) 
ATP-HTVS-E340B301DB22

>  <compound_code>  (1448) 
93474

>  <title>  (1448) 
rxn512b____EMOL906257____EMOL49851977____EMOL50155899

>  <variant>  (1448) 
93474-1

>  <source_file>  (1448) 
运行/运行/ATP-VSW/ATP-VSW-DOCK_HTVS_1-002_lib.maegz

>  <canonical_smiles>  (1448) 
C[NH+](C)Cc1ccc(CNc2cc(Cl)sc2C(=O)N[C@@H](C#N)c2ccc(F)cc2)cc1

>  <scaffold>  (1448) 
O=C(NCc1ccccc1)c1sccc1NCc1ccccc1

>  <molecular_formula>  (1448) 
C23H23ClFN4OS+

$$$$
ATP-HTVS-E35DF7DBF452
     RDKit          3D

 63 66  0  0  0  0  0  0  0  0999 V2000
  198.9178  182.5278  157.1006 O   0  0  0  0  0  0  0  0  0  0  0  0
  197.9457  182.4601  156.3517 C   0  0  0  0  0  0  0  0  0  0  0  0
  197.6454  181.3852  155.6080 N   0  0  0  0  0  0  0  0  0  0  0  0
  198.4548  180.2328  155.4989 C   0  0  0  0  0  0  0  0  0  0  0  0
  198.9633  179.5109  156.5288 N   0  0  0  0  0  0  0  0  0  0  0  0
  199.6338  178.3997  156.0118 C   0  0  0  0  0  0  0  0  0  0  0  0
  199.5577  178.4847  154.6044 C   0  0  0  0  0  0  0  0  0  0  0  0
  198.8123  179.6367  154.3279 N   0  0  0  0  0  0  0  0  0  0  0  0
  198.5653  180.0289  152.9388 C   0  0  1  0  0  0  0  0  0  0  0  0
  197.2769  179.3913  152.3768 C   0  0  1  0  0  0  0  0  0  0  0  0
  196.9899  179.7997  150.9136 C   0  0  1  0  0  0  0  0  0  0  0  0
  196.9999  181.3052  150.6703 C   0  0  0  0  0  0  0  0  0  0  0  0
  197.6954  181.8442  149.5677 C   0  0  0  0  0  0  0  0  0  0  0  0
  197.7139  183.2381  149.3515 C   0  0  0  0  0  0  0  0  0  0  0  0
  197.0544  184.1014  150.2462 C   0  0  0  0  0  0  0  0  0  0  0  0
  196.3682  183.5679  151.3519 C   0  0  0  0  0  0  0  0  0  0  0  0
  196.3381  182.1794  151.5589 C   0  0  0  0  0  0  0  0  0  0  0  0
  200.1313  177.5229  153.7750 C   0  0  0  0  0  0  0  0  0  0  0  0
  200.7872  176.4487  154.4121 C   0  0  0  0  0  0  0  0  0  0  0  0
  200.8589  176.3580  155.8175 C   0  0  0  0  0  0  0  0  0  0  0  0
  200.2783  177.3401  156.6468 C   0  0  0  0  0  0  0  0  0  0  0  0
  197.0953  183.4772  156.1467 N   0  0  0  0  0  0  0  0  0  0  0  0
  197.2571  184.8331  156.6765 C   0  0  1  0  0  0  0  0  0  0  0  0
  196.5649  185.1261  158.0137 C   0  0  0  0  0  0  0  0  0  0  0  0
  196.4949  186.4560  158.5097 C   0  0  0  0  0  0  0  0  0  0  0  0
  197.1028  187.5049  157.7850 N   0  0  0  0  0  0  0  0  0  0  0  0
  197.3384  188.8189  158.3780 C   0  0  1  0  0  0  0  0  0  0  0  0
  198.3111  188.7865  159.5791 C   0  0  1  0  0  0  0  0  0  0  0  0
  198.4470  190.0711  160.1357 O   0  0  0  0  0  0  0  0  0  0  0  0
  195.8206  186.6976  159.7306 C   0  0  0  0  0  0  0  0  0  0  0  0
  195.2705  185.6428  160.4708 C   0  0  0  0  0  0  0  0  0  0  0  0
  195.3271  184.3321  159.9690 C   0  0  0  0  0  0  0  0  0  0  0  0
  195.9559  184.0776  158.7455 C   0  0  0  0  0  0  0  0  0  0  0  0
  198.5153  181.1140  152.9248 H   0  0  0  0  0  0  0  0  0  0  0  0
  199.4264  179.7607  152.3322 H   0  0  0  0  0  0  0  0  0  0  0  0
  197.3271  178.3104  152.4170 H   0  0  0  0  0  0  0  0  0  0  0  0
  196.4308  179.6751  153.0053 H   0  0  0  0  0  0  0  0  0  0  0  0
  197.7342  179.3244  150.2695 H   0  0  0  0  0  0  0  0  0  0  0  0
  196.0202  179.4067  150.5983 H   0  0  0  0  0  0  0  0  0  0  0  0
  198.2131  181.1925  148.8747 H   0  0  0  0  0  0  0  0  0  0  0  0
  198.2524  183.6436  148.5072 H   0  0  0  0  0  0  0  0  0  0  0  0
  197.0863  185.1687  150.0949 H   0  0  0  0  0  0  0  0  0  0  0  0
  195.8702  184.2167  152.0583 H   0  0  0  0  0  0  0  0  0  0  0  0
  195.7977  181.7965  152.4132 H   0  0  0  0  0  0  0  0  0  0  0  0
  200.0638  177.5734  152.6981 H   0  0  0  0  0  0  0  0  0  0  0  0
  201.2509  175.6798  153.8112 H   0  0  0  0  0  0  0  0  0  0  0  0
  201.3630  175.5166  156.2727 H   0  0  0  0  0  0  0  0  0  0  0  0
  200.2867  177.2611  157.7253 H   0  0  0  0  0  0  0  0  0  0  0  0
  196.2848  183.3232  155.5651 H   0  0  0  0  0  0  0  0  0  0  0  0
  198.3138  185.0978  156.7577 H   0  0  0  0  0  0  0  0  0  0  0  0
  196.8341  185.5008  155.9193 H   0  0  0  0  0  0  0  0  0  0  0  0
  197.6267  187.2764  156.9491 H   0  0  0  0  0  0  0  0  0  0  0  0
  197.7559  189.4568  157.5961 H   0  0  0  0  0  0  0  0  0  0  0  0
  196.3780  189.2678  158.6366 H   0  0  0  0  0  0  0  0  0  0  0  0
  197.9525  188.1690  160.4000 H   0  0  0  0  0  0  0  0  0  0  0  0
  199.2846  188.3972  159.2954 H   0  0  0  0  0  0  0  0  0  0  0  0
  198.7682  189.9544  161.0341 H   0  0  0  0  0  0  0  0  0  0  0  0
  195.7224  187.6976  160.1312 H   0  0  0  0  0  0  0  0  0  0  0  0
  194.8004  185.8460  161.4181 H   0  0  0  0  0  0  0  0  0  0  0  0
  194.8801  183.5150  160.5108 H   0  0  0  0  0  0  0  0  0  0  0  0
  195.9708  183.0610  158.3832 H   0  0  0  0  0  0  0  0  0  0  0  0
  198.7534  179.6721  157.5069 H   0  0  0  0  0  0  0  0  0  0  0  0
  196.8958  181.4722  154.9443 H   0  0  0  0  0  0  0  0  0  0  0  0
  1  2  2  0
  2  3  1  0
  2 22  1  0
  3  4  1  0
  3 63  1  0
  4  5  2  0
  4  8  1  0
  5  6  1  0
  5 62  1  0
  6  7  1  0
  6 21  2  0
  7  8  1  0
  7 18  2  0
  8  9  1  0
  9 10  1  0
  9 34  1  1
  9 35  1  0
 10 11  1  0
 10 36  1  6
 10 37  1  0
 11 12  1  0
 11 38  1  6
 11 39  1  0
 12 13  2  0
 12 17  1  0
 13 14  1  0
 13 40  1  0
 14 15  2  0
 14 41  1  0
 15 16  1  0
 15 42  1  0
 16 17  2  0
 16 43  1  0
 17 44  1  0
 18 19  1  0
 18 45  1  0
 19 20  2  0
 19 46  1  0
 20 21  1  0
 20 47  1  0
 21 48  1  0
 22 23  1  0
 22 49  1  0
 23 24  1  0
 23 50  1  1
 23 51  1  0
 24 25  1  0
 24 33  2  0
 25 26  1  0
 25 30  2  0
 26 27  1  0
 26 52  1  0
 27 28  1  0
 27 53  1  6
 27 54  1  0
 28 29  1  0
 28 55  1  1
 28 56  1  0
 29 57  1  0
 30 31  1  0
 30 58  1  0
 31 32  2  0
 31 59  1  0
 32 33  1  0
 32 60  1  0
 33 61  1  0
M  CHG  1   5   1
M  END
>  <s_epik_cmdline>  (1449) 
J2VwaWtfcHl0aG9uJywgJy1waCcsICc3LjAwMDAwMCcsICctcGh0JywgJzIuMDAwMDAwJywgJy1tcycsICcxNicsICctdG4nLCAnOCcsICctbWEnLCAnMjAwJywgJy1pbWFlJywgJzxpbmZpbGUubWFlPicsICctb21hZScsICc8b3V0ZmlsZS5tYWU+Jw==

>  <s_epik_input>  (1449) 
W09IXVtDSDJdW0NIMl1bTkhdYyhbY0hdW2NIXVtjSF1bY0hdMSljMVtDSDJdW05IXUMoPU8pW05IXWMobjIpbihjKGMyMylbY0hdW2NIXVtjSF1bY0hdMylbQ0gyXVtDSDJdW0NIMl1jNFtjSF1bY0hdW2NIXVtjSF1bY0hdNA==

>  <s_i_glide_gridfile>  (1449) 
ATP-Grid

>  <s_lp_Force_Field>  (1449) 
OPLS_2005

>  <s_lp_Variant>  (1449) 
m_2430bbb____22526218____22586948-2

>  <s_lp_label>  (1449) 
1589_sdstereoexpander_1_neutralizer_1_epik_2_stereoizer_1

>  <s_m_source_file>  (1449) 
ATP-VSW-LIGPREP-002-in.maegz

>  <s_sd_BIOSOLVEIT.INFINISEE\_QUERY\_NAME>  (1449) 
Ref-Lig

>  <s_sd_BIOSOLVEIT.INFINISEE\_QUERY\_SMILES>  (1449) 
S(c1nc2c(cc1C[NH2+]Cc3ccc(cc3)C[NH+](C)C)cccc2)Cc4ccccc4

>  <s_sd_BIOSOLVEIT.INFINISEE\_REACTION\_NAME>  (1449) 
m_2430bbb

>  <s_sd_BIOSOLVEIT.INFINISEE\_REAGENT1\_SMILES>  (1449) 
[R1*]C(=O)NC1=Nc2c(N1CCCc3ccccc3)cccc2

>  <s_sd_BIOSOLVEIT.INFINISEE\_REAGENT2\_SMILES>  (1449) 
[R1*]NCc1c(NCCO)cccc1

>  <s_sd_BIOSOLVEIT.INFINISEE\_SPACE>  (1449) 
REALSpace_44bn_2023-08

>  <s_vsw_compound_code>  (1449) 
50818

>  <s_vsw_variant>  (1449) 
50818-2

>  <r_epik_Charging_Adjusted_Penalty>  (1449) 
2.1900804456694898

>  <r_epik_Ionization_Penalty>  (1449) 
1.4582999999999999

>  <r_epik_Ionization_Penalty_Charging>  (1449) 
1.4235

>  <r_epik_Ionization_Penalty_Neutral>  (1449) 
0.0349

>  <r_epik_State_Penalty>  (1449) 
0.76659999999999995

>  <r_i_docking_score>  (1449) 
-4.3975102751983002

>  <r_i_glide_ecoul>  (1449) 
-8.5575723648071307

>  <r_i_glide_eff_state_penalty>  (1449) 
0.76659999999999995

>  <r_i_glide_einternal>  (1449) 
7.22117042541504

>  <r_i_glide_emodel>  (1449) 
-63.1984268849627

>  <r_i_glide_energy>  (1449) 
-46.3868951797485

>  <r_i_glide_erotb>  (1449) 
1.11327562244221

>  <r_i_glide_esite>  (1449) 
-0.249058854015862

>  <r_i_glide_evdw>  (1449) 
-37.829322814941399

>  <r_i_glide_gscore>  (1449) 
-5.1641102751982997

>  <r_i_glide_hbond>  (1449) 
-0.16185238609293201

>  <r_i_glide_ligand_efficiency>  (1449) 
-0.133257887127221

>  <r_i_glide_ligand_efficiency_ln>  (1449) 
-0.97798351611447298

>  <r_i_glide_ligand_efficiency_sa>  (1449) 
-0.427429247205101

>  <r_i_glide_lipo>  (1449) 
-2.0882956166090301

>  <r_i_glide_metal>  (1449) 
-0

>  <r_i_glide_rewards>  (1449) 
-0.60307704545454399

>  <r_lp_Energy>  (1449) 
32.045603999999997

>  <r_qp_ACxDN^.5/SA>  (1449) 
0.0147207

>  <r_qp_CIQPlogS>  (1449) 
-6.0960000000000001

>  <r_qp_EA(eV)>  (1449) 
0.058999999999999997

>  <r_qp_FISA>  (1449) 
125.91800000000001

>  <r_qp_FOSA>  (1449) 
209.78200000000001

>  <r_qp_IP(eV)>  (1449) 
7.9770000000000003

>  <r_qp_Jm>  (1449) 
0.029781678754186799

>  <r_qp_PISA>  (1449) 
506.649

>  <r_qp_PSA>  (1449) 
94.665000000000006

>  <r_qp_PercentHumanOralAbsorption>  (1449) 
100

>  <r_qp_QPPCaco>  (1449) 
399.25

>  <r_qp_QPPMDCK>  (1449) 
302.08999999999997

>  <r_qp_QPlogBB>  (1449) 
-1.601

>  <r_qp_QPlogHERG>  (1449) 
-6.6580000000000004

>  <r_qp_QPlogKhsa>  (1449) 
0.38400000000000001

>  <r_qp_QPlogKp>  (1449) 
-0.999

>  <r_qp_QPlogPC16>  (1449) 
17.763000000000002

>  <r_qp_QPlogPo/w>  (1449) 
4.5199999999999996

>  <r_qp_QPlogPoct>  (1449) 
26.920999999999999

>  <r_qp_QPlogPw>  (1449) 
17.452999999999999

>  <r_qp_QPlogS>  (1449) 
-6.1740000000000004

>  <r_qp_QPpolrz>  (1449) 
51.090000000000003

>  <r_qp_SASA>  (1449) 
842.34900000000005

>  <r_qp_SAamideO>  (1449) 
25.196999999999999

>  <r_qp_SAfluorine>  (1449) 
0

>  <r_qp_WPSA>  (1449) 
0

>  <r_qp_accptHB>  (1449) 
6.2000000000000002

>  <r_qp_dip^2/V>  (1449) 
0.056920100000000001

>  <r_qp_dipole>  (1449) 
9.1969999999999992

>  <r_qp_donorHB>  (1449) 
4

>  <r_qp_glob>  (1449) 
0.747618

>  <r_qp_mol_MW>  (1449) 
443.54700000000003

>  <r_qp_volume>  (1449) 
1485.97

>  <r_sd_BIOSOLVEIT.INFINISEE\_FTREES\_SIMILARITY>  (1449) 
0.90600000000000003

>  <r_sd_BIOSOLVEIT.LOGP>  (1449) 
4.3949999999999996

>  <r_sd_BIOSOLVEIT.MOLECULAR\_WEIGHT>  (1449) 
443.548

>  <r_sd_BIOSOLVEIT.TPSA>  (1449) 
91.209999999999994

>  <i_epik_Tot_Q>  (1449) 
1

>  <i_epik_Tot_abs_Q>  (1449) 
1

>  <i_f3d_flags>  (1449) 
0

>  <i_i_glide_confnum>  (1449) 
15

>  <i_i_glide_lignum>  (1449) 
552

>  <i_i_glide_posenum>  (1449) 
9

>  <i_i_glide_rotatable_bonds>  (1449) 
13

>  <i_lp_mmshare_version>  (1449) 
65135

>  <i_m_ct_format>  (1449) 
2

>  <i_m_source_file_index>  (1449) 
1589

>  <i_qp_#NandO>  (1449) 
7

>  <i_qp_#acid>  (1449) 
0

>  <i_qp_#amide>  (1449) 
1

>  <i_qp_#amidine>  (1449) 
0

>  <i_qp_#amine>  (1449) 
0

>  <i_qp_#in34>  (1449) 
0

>  <i_qp_#in56>  (1449) 
21

>  <i_qp_#metab>  (1449) 
7

>  <i_qp_#nonHatm>  (1449) 
33

>  <i_qp_#noncon>  (1449) 
0

>  <i_qp_#ringatoms>  (1449) 
21

>  <i_qp_#rotor>  (1449) 
11

>  <i_qp_#rtvFG>  (1449) 
0

>  <i_qp_#stars>  (1449) 
2

>  <i_qp_CNS>  (1449) 
-2

>  <i_qp_HumanOralAbsorption>  (1449) 
3

>  <i_qp_RuleOfFive>  (1449) 
0

>  <i_qp_RuleOfThree>  (1449) 
2

>  <i_sd_BIOSOLVEIT.INFINISEE\_REAGENT1\_NAME>  (1449) 
22526218

>  <i_sd_BIOSOLVEIT.INFINISEE\_REAGENT2\_NAME>  (1449) 
22586948

>  <i_sd_BIOSOLVEIT.INFINISEE\_RESULT\_RANK>  (1449) 
65062

>  <i_sd_version>  (1449) 
0

>  <b_lp_Chiralities_Consistent>  (1449) 
1

>  <b_sd_chiral_flag>  (1449) 
0

>  <canonical_id>  (1449) 
ATP-HTVS-E35DF7DBF452

>  <compound_code>  (1449) 
50818

>  <title>  (1449) 
m_2430bbb____22526218____22586948

>  <variant>  (1449) 
50818-2

>  <source_file>  (1449) 
运行/运行/ATP-VSW/ATP-VSW-DOCK_HTVS_1-002_lib.maegz

>  <canonical_smiles>  (1449) 
O=C(NCc1ccccc1NCCO)Nc1[nH+]c2ccccc2n1CCCc1ccccc1

>  <scaffold>  (1449) 
O=C(NCc1ccccc1)Nc1[nH+]c2ccccc2n1CCCc1ccccc1

>  <molecular_formula>  (1449) 
C26H30N5O2+

$$$$
ATP-HTVS-E366C71D7075
     RDKit          3D

 68 71  0  0  0  0  0  0  0  0999 V2000
  198.7773  184.2055  156.9066 O   0  0  0  0  0  0  0  0  0  0  0  0
  197.5857  184.3000  156.6509 C   0  0  0  0  0  0  0  0  0  0  0  0
  197.2030  184.8702  155.5005 N   0  0  0  0  0  0  0  0  0  0  0  0
  197.9946  185.5888  154.6037 C   0  0  0  0  0  0  0  0  0  0  0  0
  198.3140  184.9999  153.3373 C   0  0  0  0  0  0  0  0  0  0  0  0
  197.9026  183.7029  152.9479 N   0  0  0  0  0  0  0  0  0  0  0  0
  197.0131  183.5614  151.7762 C   0  0  1  0  0  0  0  0  0  0  0  0
  197.3457  184.5038  150.6812 C   0  0  0  0  0  0  0  0  0  0  0  0
  197.6129  185.2352  149.8228 N   0  0  0  0  0  0  0  0  0  0  0  0
  196.9527  182.1209  151.2560 C   0  0  0  0  0  0  0  0  0  0  0  0
  196.3520  181.1110  152.0405 C   0  0  0  0  0  0  0  0  0  0  0  0
  196.3305  179.7697  151.6092 C   0  0  0  0  0  0  0  0  0  0  0  0
  196.9163  179.4270  150.3755 C   0  0  0  0  0  0  0  0  0  0  0  0
  197.5348  180.4167  149.5914 C   0  0  0  0  0  0  0  0  0  0  0  0
  197.5594  181.7521  150.0336 C   0  0  0  0  0  0  0  0  0  0  0  0
  198.7897  182.5934  153.2851 C   0  0  2  0  0  0  0  0  0  0  0  0
  199.1713  185.7607  152.5084 C   0  0  0  0  0  0  0  0  0  0  0  0
  199.6574  186.9667  152.8171 N   0  0  0  0  0  0  0  0  0  0  0  0
  199.3596  187.5219  154.0072 C   0  0  0  0  0  0  0  0  0  0  0  0
  198.5345  186.8534  154.9603 C   0  0  0  0  0  0  0  0  0  0  0  0
  198.2692  187.4676  156.2103 C   0  0  0  0  0  0  0  0  0  0  0  0
  198.8127  188.7175  156.5107 C   0  0  0  0  0  0  0  0  0  0  0  0
  199.6220  189.3781  155.5677 C   0  0  0  0  0  0  0  0  0  0  0  0
  199.8763  188.7766  154.3238 C   0  0  0  0  0  0  0  0  0  0  0  0
  196.5026  183.5663  157.5264 C   0  0  1  0  0  0  0  0  0  0  0  0
  196.8961  182.1986  158.0301 N   0  0  2  0  0  0  0  0  0  0  0  0
  197.2254  181.1933  156.9703 C   0  0  1  0  0  0  0  0  0  0  0  0
  198.3715  181.5358  156.0289 C   0  0  2  0  0  0  0  0  0  0  0  0
  195.9156  181.6452  159.0373 C   0  0  1  0  0  0  0  0  0  0  0  0
  194.4458  181.5241  158.5342 C   0  0  2  0  0  0  0  0  0  0  0  0
  196.2873  184.5883  158.6216 C   0  0  0  0  0  0  0  0  0  0  0  0
  194.9799  184.8371  159.1378 C   0  0  0  0  0  0  0  0  0  0  0  0
  194.7434  185.7896  160.1595 C   0  0  0  0  0  0  0  0  0  0  0  0
  195.8039  186.5659  160.6697 C   0  0  0  0  0  0  0  0  0  0  0  0
  197.0968  186.3536  160.1890 C   0  0  0  0  0  0  0  0  0  0  0  0
  197.3387  185.3672  159.2201 C   0  0  0  0  0  0  0  0  0  0  0  0
  196.1959  184.8166  155.2527 H   0  0  0  0  0  0  0  0  0  0  0  0
  195.9913  183.8170  152.0839 H   0  0  0  0  0  0  0  0  0  0  0  0
  195.9830  181.3598  153.0215 H   0  0  0  0  0  0  0  0  0  0  0  0
  195.8780  179.0022  152.2252 H   0  0  0  0  0  0  0  0  0  0  0  0
  196.8956  178.4062  150.0244 H   0  0  0  0  0  0  0  0  0  0  0  0
  197.9926  180.1591  148.6453 H   0  0  0  0  0  0  0  0  0  0  0  0
  198.0710  182.4821  149.4277 H   0  0  0  0  0  0  0  0  0  0  0  0
  199.5550  182.9091  153.9746 H   0  0  0  0  0  0  0  0  0  0  0  0
  199.2633  182.1532  152.4147 H   0  0  0  0  0  0  0  0  0  0  0  0
  198.2115  181.8633  153.7887 H   0  0  0  0  0  0  0  0  0  0  0  0
  199.4935  185.3435  151.5675 H   0  0  0  0  0  0  0  0  0  0  0  0
  197.6447  186.9888  156.9515 H   0  0  0  0  0  0  0  0  0  0  0  0
  198.6098  189.1671  157.4698 H   0  0  0  0  0  0  0  0  0  0  0  0
  200.0425  190.3379  155.7976 H   0  0  0  0  0  0  0  0  0  0  0  0
  200.5004  189.2763  153.5945 H   0  0  0  0  0  0  0  0  0  0  0  0
  195.5961  183.4780  156.9377 H   0  0  0  0  0  0  0  0  0  0  0  0
  197.5050  180.2658  157.4745 H   0  0  0  0  0  0  0  0  0  0  0  0
  196.3173  180.9970  156.3942 H   0  0  0  0  0  0  0  0  0  0  0  0
  198.5269  180.7862  155.2442 H   0  0  0  0  0  0  0  0  0  0  0  0
  199.2810  181.8290  156.5651 H   0  0  0  0  0  0  0  0  0  0  0  0
  197.9943  182.3988  155.5016 H   0  0  0  0  0  0  0  0  0  0  0  0
  196.2729  180.6774  159.4133 H   0  0  0  0  0  0  0  0  0  0  0  0
  195.9311  182.2496  159.9436 H   0  0  0  0  0  0  0  0  0  0  0  0
  193.8243  181.1333  159.3605 H   0  0  0  0  0  0  0  0  0  0  0  0
  194.3505  180.8445  157.6749 H   0  0  0  0  0  0  0  0  0  0  0  0
  194.0240  182.4759  158.2117 H   0  0  0  0  0  0  0  0  0  0  0  0
  194.1160  184.3297  158.7204 H   0  0  0  0  0  0  0  0  0  0  0  0
  193.7325  185.9355  160.5170 H   0  0  0  0  0  0  0  0  0  0  0  0
  195.6343  187.3074  161.4385 H   0  0  0  0  0  0  0  0  0  0  0  0
  197.9398  186.9404  160.5289 H   0  0  0  0  0  0  0  0  0  0  0  0
  198.3809  185.2598  158.9372 H   0  0  0  0  0  0  0  0  0  0  0  0
  197.7426  182.3739  158.5431 H   0  0  0  0  0  0  0  0  0  0  0  0
  1  2  2  0
  2  3  1  0
  2 25  1  0
  3  4  1  0
  3 37  1  0
  4  5  2  0
  4 20  1  0
  5  6  1  0
  5 17  1  0
  6  7  1  0
  6 16  1  0
  7  8  1  0
  7 10  1  0
  7 38  1  1
  8  9  3  0
 10 11  2  0
 10 15  1  0
 11 12  1  0
 11 39  1  0
 12 13  2  0
 12 40  1  0
 13 14  1  0
 13 41  1  0
 14 15  2  0
 14 42  1  0
 15 43  1  0
 16 44  1  1
 16 45  1  0
 16 46  1  0
 17 18  2  0
 17 47  1  0
 18 19  1  0
 19 20  1  0
 19 24  2  0
 20 21  2  0
 21 22  1  0
 21 48  1  0
 22 23  2  0
 22 49  1  0
 23 24  1  0
 23 50  1  0
 24 51  1  0
 25 26  1  0
 25 31  1  0
 25 52  1  6
 26 27  1  0
 26 29  1  0
 26 68  1  1
 27 28  1  0
 27 53  1  1
 27 54  1  0
 28 55  1  6
 28 56  1  0
 28 57  1  0
 29 30  1  0
 29 58  1  1
 29 59  1  0
 30 60  1  1
 30 61  1  0
 30 62  1  0
 31 32  2  0
 31 36  1  0
 32 33  1  0
 32 63  1  0
 33 34  2  0
 33 64  1  0
 34 35  1  0
 34 65  1  0
 35 36  2  0
 35 66  1  0
 36 67  1  0
M  CHG  1  26   1
M  END
>  <s_epik_cmdline>  (1450) 
J2VwaWtfcHl0aG9uJywgJy1waCcsICc3LjAwMDAwMCcsICctcGh0JywgJzIuMDAwMDAwJywgJy1tcycsICcxNicsICctdG4nLCAnOCcsICctbWEnLCAnMjAwJywgJy1pbWFlJywgJzxpbmZpbGUubWFlPicsICctb21hZScsICc8b3V0ZmlsZS5tYWU+Jw==

>  <s_epik_input>  (1450) 
W2NIXTFbY0hdW2NIXVtjSF1bY0hdYzFbQ0BIXShOKFtDSDJdW0NIM10pW0NIMl1bQ0gzXSlDKD1PKVtOSF1jKGMoYzIzKVtjSF1bY0hdW2NIXVtjSF0zKWMoW2NIXW4yKU4oW0NIM10pW0NAQEhdKEMjTiljNFtjSF1bY0hdW2NIXVtjSF1bY0hdNA==

>  <s_i_glide_gridfile>  (1450) 
ATP-Grid

>  <s_lp_Force_Field>  (1450) 
OPLS_2005

>  <s_lp_Variant>  (1450) 
rxn502b____EMOL5759977____EMOL13728749____EMOL24630243-7

>  <s_lp_label>  (1450) 
2576_sdstereoexpander_3_neutralizer_1_epik_2_stereoizer_1

>  <s_m_source_file>  (1450) 
ATP-VSW-LIGPREP-003-in.maegz

>  <s_sd_BIOSOLVEIT.INFINISEE\_QUERY\_NAME>  (1450) 
Ref-Lig

>  <s_sd_BIOSOLVEIT.INFINISEE\_QUERY\_SMILES>  (1450) 
S(c1nc2c(cc1C[NH2+]Cc3ccc(cc3)C[NH+](C)C)cccc2)Cc4ccccc4

>  <s_sd_BIOSOLVEIT.INFINISEE\_REACTION\_NAME>  (1450) 
rxn502b

>  <s_sd_BIOSOLVEIT.INFINISEE\_REAGENT1\_NAME>  (1450) 
EMOL5759977

>  <s_sd_BIOSOLVEIT.INFINISEE\_REAGENT1\_SMILES>  (1450) 
O=C(O)C(N(CC)CC)c1ccccc1

>  <s_sd_BIOSOLVEIT.INFINISEE\_REAGENT2\_NAME>  (1450) 
EMOL13728749

>  <s_sd_BIOSOLVEIT.INFINISEE\_REAGENT2\_SMILES>  (1450) 
Brc1c(N)c2c(nc1)cccc2

>  <s_sd_BIOSOLVEIT.INFINISEE\_REAGENT3\_NAME>  (1450) 
EMOL24630243

>  <s_sd_BIOSOLVEIT.INFINISEE\_REAGENT3\_SMILES>  (1450) 
N#CC(NC)c1ccccc1

>  <s_sd_BIOSOLVEIT.INFINISEE\_SPACE>  (1450) 
eXplore_7tr_2022-12

>  <s_vsw_compound_code>  (1450) 
82403

>  <s_vsw_variant>  (1450) 
82403-7

>  <r_epik_Charging_Adjusted_Penalty>  (1450) 
1.0466797791119

>  <r_epik_Ionization_Penalty>  (1450) 
0.58909999999999996

>  <r_epik_Ionization_Penalty_Charging>  (1450) 
0.58589999999999998

>  <r_epik_Ionization_Penalty_Neutral>  (1450) 
0.0032000000000000002

>  <r_epik_State_Penalty>  (1450) 
0.46079999999999999

>  <r_i_docking_score>  (1450) 
-4.4212486592033802

>  <r_i_glide_ecoul>  (1450) 
-7.1755709648132298

>  <r_i_glide_eff_state_penalty>  (1450) 
0.46079999999999999

>  <r_i_glide_einternal>  (1450) 
11.2567081451416

>  <r_i_glide_emodel>  (1450) 
-58.2923986245629

>  <r_i_glide_energy>  (1450) 
-44.135741710662799

>  <r_i_glide_erotb>  (1450) 
0.61929813176120196

>  <r_i_glide_esite>  (1450) 
-0.080920057209956903

>  <r_i_glide_evdw>  (1450) 
-36.960170745849602

>  <r_i_glide_gscore>  (1450) 
-4.88204865920338

>  <r_i_glide_hbond>  (1450) 
0

>  <r_i_glide_ligand_efficiency>  (1450) 
-0.122812462755649

>  <r_i_glide_ligand_efficiency_ln>  (1450) 
-0.96459700910336199

>  <r_i_glide_ligand_efficiency_sa>  (1450) 
-0.405517816792342

>  <r_i_glide_lipo>  (1450) 
-1.9636732935608101

>  <r_i_glide_metal>  (1450) 
-0

>  <r_i_glide_rewards>  (1450) 
-0.53240925817935203

>  <r_lp_Energy>  (1450) 
46.035310000000003

>  <r_qp_ACxDN^.5/SA>  (1450) 
0.0109084

>  <r_qp_CIQPlogS>  (1450) 
-6.9809999999999999

>  <r_qp_EA(eV)>  (1450) 
1.1870000000000001

>  <r_qp_FISA>  (1450) 
83.799000000000007

>  <r_qp_FOSA>  (1450) 
228.11699999999999

>  <r_qp_IP(eV)>  (1450) 
8.7260000000000009

>  <r_qp_Jm>  (1450) 
0.0169847070315014

>  <r_qp_PISA>  (1450) 
421.46600000000001

>  <r_qp_PSA>  (1450) 
70.072999999999993

>  <r_qp_PercentHumanOralAbsorption>  (1450) 
100

>  <r_qp_QPPCaco>  (1450) 
396.39800000000002

>  <r_qp_QPPMDCK>  (1450) 
201.30699999999999

>  <r_qp_QPlogBB>  (1450) 
-0.41399999999999998

>  <r_qp_QPlogHERG>  (1450) 
-6.6970000000000001

>  <r_qp_QPlogKhsa>  (1450) 
0.58999999999999997

>  <r_qp_QPlogKp>  (1450) 
-2.6819999999999999

>  <r_qp_QPlogPC16>  (1450) 
15.468999999999999

>  <r_qp_QPlogPo/w>  (1450) 
4.516

>  <r_qp_QPlogPoct>  (1450) 
23.216999999999999

>  <r_qp_QPlogPw>  (1450) 
12.058999999999999

>  <r_qp_QPlogS>  (1450) 
-4.7670000000000003

>  <r_qp_QPpolrz>  (1450) 
50.009

>  <r_qp_SASA>  (1450) 
733.38199999999995

>  <r_qp_SAamideO>  (1450) 
0

>  <r_qp_SAfluorine>  (1450) 
0

>  <r_qp_WPSA>  (1450) 
0

>  <r_qp_accptHB>  (1450) 
8

>  <r_qp_dip^2/V>  (1450) 
0.048595800000000001

>  <r_qp_dipole>  (1450) 
8.4320000000000004

>  <r_qp_donorHB>  (1450) 
1

>  <r_qp_glob>  (1450) 
0.8499177

>  <r_qp_mol_MW>  (1450) 
477.608

>  <r_qp_volume>  (1450) 
1463.232

>  <r_sd_BIOSOLVEIT.INFINISEE\_FTREES\_SIMILARITY>  (1450) 
0.91200000000000003

>  <r_sd_BIOSOLVEIT.LOGP>  (1450) 
4.5403799999999999

>  <r_sd_BIOSOLVEIT.MOLECULAR\_WEIGHT>  (1450) 
478.61700000000002

>  <r_sd_BIOSOLVEIT.TPSA>  (1450) 
73.459999999999994

>  <i_epik_Tot_Q>  (1450) 
1

>  <i_epik_Tot_abs_Q>  (1450) 
1

>  <i_f3d_flags>  (1450) 
0

>  <i_i_glide_confnum>  (1450) 
10

>  <i_i_glide_lignum>  (1450) 
1151

>  <i_i_glide_posenum>  (1450) 
20

>  <i_i_glide_rotatable_bonds>  (1450) 
10

>  <i_lp_mmshare_version>  (1450) 
65135

>  <i_m_ct_format>  (1450) 
2

>  <i_m_source_file_index>  (1450) 
2576

>  <i_qp_#NandO>  (1450) 
6

>  <i_qp_#acid>  (1450) 
0

>  <i_qp_#amide>  (1450) 
0

>  <i_qp_#amidine>  (1450) 
0

>  <i_qp_#amine>  (1450) 
1

>  <i_qp_#in34>  (1450) 
0

>  <i_qp_#in56>  (1450) 
22

>  <i_qp_#metab>  (1450) 
7

>  <i_qp_#nonHatm>  (1450) 
36

>  <i_qp_#noncon>  (1450) 
0

>  <i_qp_#ringatoms>  (1450) 
22

>  <i_qp_#rotor>  (1450) 
10

>  <i_qp_#rtvFG>  (1450) 
0

>  <i_qp_#stars>  (1450) 
0

>  <i_qp_CNS>  (1450) 
1

>  <i_qp_HumanOralAbsorption>  (1450) 
3

>  <i_qp_RuleOfFive>  (1450) 
0

>  <i_qp_RuleOfThree>  (1450) 
1

>  <i_sd_BIOSOLVEIT.INFINISEE\_RESULT\_RANK>  (1450) 
38602

>  <i_sd_version>  (1450) 
0

>  <b_lp_Chiralities_Consistent>  (1450) 
1

>  <b_sd_chiral_flag>  (1450) 
0

>  <canonical_id>  (1450) 
ATP-HTVS-E366C71D7075

>  <compound_code>  (1450) 
82403

>  <title>  (1450) 
rxn502b____EMOL5759977____EMOL13728749____EMOL24630243

>  <variant>  (1450) 
82403-7

>  <source_file>  (1450) 
运行/运行/ATP-VSW/ATP-VSW-DOCK_HTVS_1-003_lib/ATP-VSW-DOCK_HTVS_1-003_lib.mae

>  <canonical_smiles>  (1450) 
CC[NH+](CC)[C@H](C(=O)Nc1c(N(C)[C@@H](C#N)c2ccccc2)cnc2ccccc12)c1ccccc1

>  <scaffold>  (1450) 
O=C(Cc1ccccc1)Nc1c(NCc2ccccc2)cnc2ccccc12

>  <molecular_formula>  (1450) 
C30H32N5O+

$$$$
ATP-HTVS-E381363CD12F
     RDKit          3D

 65 68  0  0  0  0  0  0  0  0999 V2000
  196.2535  187.9632  160.7476 F   0  0  0  0  0  0  0  0  0  0  0  0
  196.0788  186.6960  160.2914 C   0  0  0  0  0  0  0  0  0  0  0  0
  197.0954  186.0607  159.5812 C   0  0  0  0  0  0  0  0  0  0  0  0
  196.9205  184.7581  159.0235 C   0  0  0  0  0  0  0  0  0  0  0  0
  195.6804  184.0935  159.2628 C   0  0  0  0  0  0  0  0  0  0  0  0
  195.4505  182.8504  158.7896 N   0  0  0  0  0  0  0  0  0  0  0  0
  196.3924  182.2333  158.0775 C   0  0  0  0  0  0  0  0  0  0  0  0
  197.6566  182.8116  157.7491 C   0  0  0  0  0  0  0  0  0  0  0  0
  197.9219  184.1191  158.2493 C   0  0  0  0  0  0  0  0  0  0  0  0
  199.1569  184.7862  157.9945 N   0  0  0  0  0  0  0  0  0  0  0  0
  200.2613  184.7555  158.8578 C   0  0  0  0  0  0  0  0  0  0  0  0
  201.1689  185.8443  158.9261 C   0  0  0  0  0  0  0  0  0  0  0  0
  202.2752  185.7990  159.7781 C   0  0  0  0  0  0  0  0  0  0  0  0
  202.4927  184.6770  160.5981 C   0  0  0  0  0  0  0  0  0  0  0  0
  201.5971  183.5906  160.5572 C   0  0  0  0  0  0  0  0  0  0  0  0
  200.4869  183.6278  159.6805 C   0  0  0  0  0  0  0  0  0  0  0  0
  199.2348  185.7583  156.8559 C   0  0  2  0  0  0  0  0  0  0  0  0
  198.1766  186.8059  156.9038 C   0  0  0  0  0  0  0  0  0  0  0  0
  197.3609  187.6325  156.9219 N   0  0  0  0  0  0  0  0  0  0  0  0
  199.2608  185.0449  155.5235 C   0  0  2  0  0  0  0  0  0  0  0  0
  198.6176  181.9874  156.8874 C   0  0  0  0  0  0  0  0  0  0  0  0
  199.7551  181.8027  157.2852 O   0  0  0  0  0  0  0  0  0  0  0  0
  198.1684  181.5324  155.6838 N   0  0  0  0  0  0  0  0  0  0  0  0
  198.8575  180.4391  155.0218 C   0  0  0  0  0  0  0  0  0  0  0  0
  199.4308  180.5173  153.7245 C   0  0  0  0  0  0  0  0  0  0  0  0
  199.9305  179.4282  153.0815 C   0  0  0  0  0  0  0  0  0  0  0  0
  200.0178  178.1499  153.7423 C   0  0  0  0  0  0  0  0  0  0  0  0
  199.5368  178.0659  155.0641 C   0  0  0  0  0  0  0  0  0  0  0  0
  198.9467  179.1765  155.7229 C   0  0  0  0  0  0  0  0  0  0  0  0
  197.0485  182.2269  154.9979 C   0  0  1  0  0  0  0  0  0  0  0  0
  197.3432  182.5758  153.5053 C   0  0  1  0  0  0  0  0  0  0  0  0
  196.6371  183.6953  152.9321 N   0  0  2  0  0  0  0  0  0  0  0  0
  196.7251  183.7160  151.4370 C   0  0  2  0  0  0  0  0  0  0  0  0
  197.1127  184.9908  153.4427 C   0  0  2  0  0  0  0  0  0  0  0  0
  194.6801  184.7379  160.0042 C   0  0  0  0  0  0  0  0  0  0  0  0
  194.8617  186.0398  160.5199 C   0  0  0  0  0  0  0  0  0  0  0  0
  198.0148  186.6073  159.4337 H   0  0  0  0  0  0  0  0  0  0  0  0
  196.1506  181.2464  157.7271 H   0  0  0  0  0  0  0  0  0  0  0  0
  201.0365  186.7549  158.3589 H   0  0  0  0  0  0  0  0  0  0  0  0
  202.9401  186.6483  159.7988 H   0  0  0  0  0  0  0  0  0  0  0  0
  203.3425  184.6648  161.2621 H   0  0  0  0  0  0  0  0  0  0  0  0
  201.7610  182.7318  161.1780 H   0  0  0  0  0  0  0  0  0  0  0  0
  199.8213  182.7773  159.6640 H   0  0  0  0  0  0  0  0  0  0  0  0
  200.1702  186.3056  156.7961 H   0  0  0  0  0  0  0  0  0  0  0  0
  199.1646  185.8620  154.7919 H   0  0  0  0  0  0  0  0  0  0  0  0
  198.3931  184.4268  155.4956 H   0  0  0  0  0  0  0  0  0  0  0  0
  200.1730  184.4684  155.3037 H   0  0  0  0  0  0  0  0  0  0  0  0
  199.4848  181.4296  153.1377 H   0  0  0  0  0  0  0  0  0  0  0  0
  200.2972  179.5255  152.0680 H   0  0  0  0  0  0  0  0  0  0  0  0
  200.4677  177.3206  153.2266 H   0  0  0  0  0  0  0  0  0  0  0  0
  199.6035  177.1104  155.5875 H   0  0  0  0  0  0  0  0  0  0  0  0
  198.5573  179.0622  156.7190 H   0  0  0  0  0  0  0  0  0  0  0  0
  196.1381  181.6290  155.1164 H   0  0  0  0  0  0  0  0  0  0  0  0
  196.7703  183.1726  155.4863 H   0  0  0  0  0  0  0  0  0  0  0  0
  198.4006  182.8339  153.3973 H   0  0  0  0  0  0  0  0  0  0  0  0
  197.1487  181.6504  152.9262 H   0  0  0  0  0  0  0  0  0  0  0  0
  197.7828  183.7487  151.1091 H   0  0  0  0  0  0  0  0  0  0  0  0
  196.2446  184.6167  151.0708 H   0  0  0  0  0  0  0  0  0  0  0  0
  196.2467  182.8342  151.0058 H   0  0  0  0  0  0  0  0  0  0  0  0
  198.1969  185.0340  153.2420 H   0  0  0  0  0  0  0  0  0  0  0  0
  196.9260  185.0420  154.5094 H   0  0  0  0  0  0  0  0  0  0  0  0
  196.7391  185.8856  152.9713 H   0  0  0  0  0  0  0  0  0  0  0  0
  193.7447  184.2316  160.1771 H   0  0  0  0  0  0  0  0  0  0  0  0
  194.0758  186.5244  161.0751 H   0  0  0  0  0  0  0  0  0  0  0  0
  195.6092  183.6296  153.1945 H   0  0  0  0  0  0  0  0  0  0  0  0
  1  2  1  0
  2  3  1  0
  2 36  2  0
  3  4  2  0
  3 37  1  0
  4  5  1  0
  4  9  1  0
  5  6  1  0
  5 35  2  0
  6  7  2  0
  7  8  1  0
  7 38  1  0
  8  9  2  0
  8 21  1  0
  9 10  1  0
 10 11  1  0
 10 17  1  0
 11 12  2  0
 11 16  1  0
 12 13  1  0
 12 39  1  0
 13 14  2  0
 13 40  1  0
 14 15  1  0
 14 41  1  0
 15 16  2  0
 15 42  1  0
 16 43  1  0
 17 18  1  0
 17 20  1  0
 17 44  1  1
 18 19  3  0
 20 45  1  6
 20 46  1  0
 20 47  1  0
 21 22  2  0
 21 23  1  0
 23 24  1  0
 23 30  1  0
 24 25  2  0
 24 29  1  0
 25 26  1  0
 25 48  1  0
 26 27  2  0
 26 49  1  0
 27 28  1  0
 27 50  1  0
 28 29  2  0
 28 51  1  0
 29 52  1  0
 30 31  1  0
 30 53  1  6
 30 54  1  0
 31 32  1  0
 31 55  1  1
 31 56  1  0
 32 33  1  0
 32 34  1  0
 32 65  1  6
 33 57  1  1
 33 58  1  0
 33 59  1  0
 34 60  1  1
 34 61  1  0
 34 62  1  0
 35 36  1  0
 35 63  1  0
 36 64  1  0
M  CHG  1  32   1
M  END
>  <s_epik_cmdline>  (1451) 
J2VwaWtfcHl0aG9uJywgJy1waCcsICc3LjAwMDAwMCcsICctcGh0JywgJzIuMDAwMDAwJywgJy1tcycsICcxNicsICctdG4nLCAnOCcsICctbWEnLCAnMjAwJywgJy1pbWFlJywgJzxpbmZpbGUubWFlPicsICctb21hZScsICc8b3V0ZmlsZS5tYWU+Jw==

>  <s_epik_input>  (1451) 
W2NIXTFbY0hdW2NIXVtjSF1bY0hdYzFOKFtDSDJdW0NIMl1OKFtDSDNdKVtDSDNdKUMoPU8pYyhbY0hdbmMoYzIzKVtjSF1bY0hdYyhGKVtjSF0yKWMzTihbQ0BIXShDI04pW0NIM10pYzRbY0hdW2NIXVtjSF1bY0hdW2NIXTQ=

>  <s_i_glide_gridfile>  (1451) 
ATP-Grid

>  <s_lp_Force_Field>  (1451) 
OPLS_2005

>  <s_lp_Variant>  (1451) 
rxn512c____EMOL36790511____EMOL36725275____EMOL6215666-2

>  <s_lp_label>  (1451) 
2971_sdstereoexpander_2_neutralizer_1_epik_1_stereoizer_1

>  <s_m_source_file>  (1451) 
ATP-VSW-LIGPREP-002-in.maegz

>  <s_sd_BIOSOLVEIT.INFINISEE\_QUERY\_NAME>  (1451) 
Ref-Lig

>  <s_sd_BIOSOLVEIT.INFINISEE\_QUERY\_SMILES>  (1451) 
S(c1nc2c(cc1C[NH2+]Cc3ccc(cc3)C[NH+](C)C)cccc2)Cc4ccccc4

>  <s_sd_BIOSOLVEIT.INFINISEE\_REACTION\_NAME>  (1451) 
rxn512c

>  <s_sd_BIOSOLVEIT.INFINISEE\_REAGENT1\_NAME>  (1451) 
EMOL36790511

>  <s_sd_BIOSOLVEIT.INFINISEE\_REAGENT1\_SMILES>  (1451) 
N#CC(Nc1ccccc1)C

>  <s_sd_BIOSOLVEIT.INFINISEE\_REAGENT2\_NAME>  (1451) 
EMOL36725275

>  <s_sd_BIOSOLVEIT.INFINISEE\_REAGENT2\_SMILES>  (1451) 
Clc1c2c(ncc1C(=O)O)ccc(F)c2

>  <s_sd_BIOSOLVEIT.INFINISEE\_REAGENT3\_NAME>  (1451) 
EMOL6215666

>  <s_sd_BIOSOLVEIT.INFINISEE\_REAGENT3\_SMILES>  (1451) 
N(CCNc1ccccc1)(C)C

>  <s_sd_BIOSOLVEIT.INFINISEE\_SPACE>  (1451) 
eXplore_7tr_2022-12

>  <s_vsw_compound_code>  (1451) 
95042

>  <s_vsw_variant>  (1451) 
95042-2

>  <r_epik_Charging_Adjusted_Penalty>  (1451) 
0.0373083265753942

>  <r_epik_Ionization_Penalty>  (1451) 
0.018800000000000001

>  <r_epik_Ionization_Penalty_Charging>  (1451) 
0.018700000000000001

>  <r_epik_Ionization_Penalty_Neutral>  (1451) 
0.00020000000000000001

>  <r_epik_State_Penalty>  (1451) 
0.018700000000000001

>  <r_i_docking_score>  (1451) 
-4.6070230630941102

>  <r_i_glide_ecoul>  (1451) 
-6.7660999298095703

>  <r_i_glide_eff_state_penalty>  (1451) 
0.018700000000000001

>  <r_i_glide_einternal>  (1451) 
12.1092987060547

>  <r_i_glide_emodel>  (1451) 
-52.918599453444898

>  <r_i_glide_energy>  (1451) 
-42.976758956909201

>  <r_i_glide_erotb>  (1451) 
0.61003200819035097

>  <r_i_glide_esite>  (1451) 
-0.142110786011961

>  <r_i_glide_evdw>  (1451) 
-36.210659027099602

>  <r_i_glide_gscore>  (1451) 
-4.6257230630941102

>  <r_i_glide_hbond>  (1451) 
-0.20000000000000001

>  <r_i_glide_ligand_efficiency>  (1451) 
-0.127972862863725

>  <r_i_glide_ligand_efficiency_ln>  (1451) 
-1.0051279649879501

>  <r_i_glide_ligand_efficiency_sa>  (1451) 
-0.422557082504042

>  <r_i_glide_lipo>  (1451) 
-1.62050916385418

>  <r_i_glide_metal>  (1451) 
-0

>  <r_i_glide_rewards>  (1451) 
-0.44768718059189699

>  <r_lp_Energy>  (1451) 
58.556190000000001

>  <r_qp_ACxDN^.5/SA>  (1451) 
0

>  <r_qp_CIQPlogS>  (1451) 
-6.8600000000000003

>  <r_qp_EA(eV)>  (1451) 
1.3899999999999999

>  <r_qp_FISA>  (1451) 
84.257000000000005

>  <r_qp_FOSA>  (1451) 
253.822

>  <r_qp_IP(eV)>  (1451) 
9.0269999999999992

>  <r_qp_Jm>  (1451) 
0.0023243852072130102

>  <r_qp_PISA>  (1451) 
402.48500000000001

>  <r_qp_PSA>  (1451) 
65.320999999999998

>  <r_qp_PercentHumanOralAbsorption>  (1451) 
100

>  <r_qp_QPPCaco>  (1451) 
392.452

>  <r_qp_QPPMDCK>  (1451) 
358.39999999999998

>  <r_qp_QPlogBB>  (1451) 
-0.31900000000000001

>  <r_qp_QPlogHERG>  (1451) 
-7.2270000000000003

>  <r_qp_QPlogKhsa>  (1451) 
0.503

>  <r_qp_QPlogKp>  (1451) 
-2.8530000000000002

>  <r_qp_QPlogPC16>  (1451) 
15.404

>  <r_qp_QPlogPo/w>  (1451) 
4.8419999999999996

>  <r_qp_QPlogPoct>  (1451) 
22.699999999999999

>  <r_qp_QPlogPw>  (1451) 
10.835000000000001

>  <r_qp_QPlogS>  (1451) 
-5.4630000000000001

>  <r_qp_QPpolrz>  (1451) 
52.662999999999997

>  <r_qp_SASA>  (1451) 
787.15200000000004

>  <r_qp_SAamideO>  (1451) 
0

>  <r_qp_SAfluorine>  (1451) 
46.588000000000001

>  <r_qp_WPSA>  (1451) 
46.588000000000001

>  <r_qp_accptHB>  (1451) 
8

>  <r_qp_dip^2/V>  (1451) 
0.042783300000000003

>  <r_qp_dipole>  (1451) 
8.0589999999999993

>  <r_qp_donorHB>  (1451) 
0

>  <r_qp_glob>  (1451) 
0.8115156

>  <r_qp_mol_MW>  (1451) 
481.57100000000003

>  <r_qp_volume>  (1451) 
1518.05

>  <r_sd_BIOSOLVEIT.INFINISEE\_FTREES\_SIMILARITY>  (1451) 
0.90300000000000002

>  <r_sd_BIOSOLVEIT.LOGP>  (1451) 
4.2153799999999997

>  <r_sd_BIOSOLVEIT.MOLECULAR\_WEIGHT>  (1451) 
482.57999999999998

>  <r_sd_BIOSOLVEIT.TPSA>  (1451) 
64.670000000000002

>  <i_epik_Tot_Q>  (1451) 
1

>  <i_epik_Tot_abs_Q>  (1451) 
1

>  <i_f3d_flags>  (1451) 
0

>  <i_i_glide_confnum>  (1451) 
3

>  <i_i_glide_lignum>  (1451) 
25

>  <i_i_glide_posenum>  (1451) 
9

>  <i_i_glide_rotatable_bonds>  (1451) 
9

>  <i_lp_mmshare_version>  (1451) 
65135

>  <i_m_ct_format>  (1451) 
2

>  <i_m_source_file_index>  (1451) 
2971

>  <i_qp_#NandO>  (1451) 
6

>  <i_qp_#acid>  (1451) 
0

>  <i_qp_#amide>  (1451) 
0

>  <i_qp_#amidine>  (1451) 
0

>  <i_qp_#amine>  (1451) 
1

>  <i_qp_#in34>  (1451) 
0

>  <i_qp_#in56>  (1451) 
22

>  <i_qp_#metab>  (1451) 
6

>  <i_qp_#nonHatm>  (1451) 
36

>  <i_qp_#noncon>  (1451) 
0

>  <i_qp_#ringatoms>  (1451) 
22

>  <i_qp_#rotor>  (1451) 
9

>  <i_qp_#rtvFG>  (1451) 
0

>  <i_qp_#stars>  (1451) 
0

>  <i_qp_CNS>  (1451) 
1

>  <i_qp_HumanOralAbsorption>  (1451) 
3

>  <i_qp_RuleOfFive>  (1451) 
0

>  <i_qp_RuleOfThree>  (1451) 
0

>  <i_sd_BIOSOLVEIT.INFINISEE\_RESULT\_RANK>  (1451) 
82604

>  <i_sd_version>  (1451) 
0

>  <b_lp_Chiralities_Consistent>  (1451) 
1

>  <b_sd_chiral_flag>  (1451) 
0

>  <canonical_id>  (1451) 
ATP-HTVS-E381363CD12F

>  <compound_code>  (1451) 
95042

>  <title>  (1451) 
rxn512c____EMOL36790511____EMOL36725275____EMOL6215666

>  <variant>  (1451) 
95042-2

>  <source_file>  (1451) 
运行/运行/ATP-VSW/ATP-VSW-DOCK_HTVS_1-003_lib/ATP-VSW-DOCK_HTVS_1-003_lib.mae

>  <canonical_smiles>  (1451) 
C[C@@H](C#N)N(c1ccccc1)c1c(C(=O)N(CC[NH+](C)C)c2ccccc2)cnc2ccc(F)cc12

>  <scaffold>  (1451) 
O=C(Nc1ccccc1)c1cnc2ccccc2c1Nc1ccccc1

>  <molecular_formula>  (1451) 
C29H29FN5O+

$$$$
ATP-HTVS-E38D6BC47DFC
     RDKit          3D

 56 59  0  0  0  0  0  0  0  0999 V2000
  195.4895  179.4351  150.7253 O   0  0  0  0  0  0  0  0  0  0  0  0
  196.6773  179.7877  150.5392 C   0  0  0  0  0  0  0  0  0  0  0  0
  197.3603  179.4258  149.5663 O   0  0  0  0  0  0  0  0  0  0  0  0
  197.3230  180.7033  151.5972 C   0  0  2  0  0  0  0  0  0  0  0  0
  197.2701  180.1207  152.9327 N   0  0  0  0  0  0  0  0  0  0  0  0
  198.3396  179.3227  153.3818 C   0  0  0  0  0  0  0  0  0  0  0  0
  198.6235  179.1797  154.7632 C   0  0  0  0  0  0  0  0  0  0  0  0
  197.8500  179.9074  155.7210 N   0  0  0  0  0  0  0  0  0  0  0  0
  197.7814  181.2487  155.7489 C   0  0  0  0  0  0  0  0  0  0  0  0
  198.6089  181.9775  155.1958 O   0  0  0  0  0  0  0  0  0  0  0  0
  196.5757  181.8567  156.4628 C   0  0  1  0  0  0  0  0  0  0  0  0
  196.9663  182.9482  157.4391 C   0  0  0  0  0  0  0  0  0  0  0  0
  196.9912  182.6684  158.8185 C   0  0  0  0  0  0  0  0  0  0  0  0
  197.3665  183.6688  159.7350 C   0  0  0  0  0  0  0  0  0  0  0  0
  197.7109  184.9545  159.2734 C   0  0  0  0  0  0  0  0  0  0  0  0
  197.6731  185.2425  157.8955 C   0  0  0  0  0  0  0  0  0  0  0  0
  197.2938  184.2414  156.9791 C   0  0  0  0  0  0  0  0  0  0  0  0
  199.6426  178.2724  155.1733 C   0  0  0  0  0  0  0  0  0  0  0  0
  200.3771  177.5938  154.1628 C   0  0  0  0  0  0  0  0  0  0  0  0
  200.1329  177.7640  152.8541 N   0  0  0  0  0  0  0  0  0  0  0  0
  199.1547  178.5924  152.4737 C   0  0  0  0  0  0  0  0  0  0  0  0
  201.3932  176.6880  154.5330 C   0  0  0  0  0  0  0  0  0  0  0  0
  201.6755  176.4347  155.8846 C   0  0  0  0  0  0  0  0  0  0  0  0
  200.9480  177.0999  156.8826 C   0  0  0  0  0  0  0  0  0  0  0  0
  199.9491  178.0299  156.5335 C   0  0  0  0  0  0  0  0  0  0  0  0
  196.7071  182.1195  151.5592 C   0  0  1  0  0  0  0  0  0  0  0  0
  197.0834  182.9851  150.3472 C   0  0  0  0  0  0  0  0  0  0  0  0
  196.4524  184.2351  150.1656 C   0  0  0  0  0  0  0  0  0  0  0  0
  196.8024  185.0482  149.0674 C   0  0  0  0  0  0  0  0  0  0  0  0
  197.7672  184.6076  148.1384 C   0  0  0  0  0  0  0  0  0  0  0  0
  198.1629  185.4468  147.0272 C   0  0  0  0  0  0  0  0  0  0  0  0
  198.5484  186.1695  146.1176 C   0  0  0  0  0  0  0  0  0  0  0  0
  198.3833  183.3618  148.3032 C   0  0  0  0  0  0  0  0  0  0  0  0
  198.0643  182.5685  149.4099 C   0  0  0  0  0  0  0  0  0  0  0  0
  198.3887  180.8298  151.4078 H   0  0  0  0  0  0  0  0  0  0  0  0
  196.7367  180.6273  153.6280 H   0  0  0  0  0  0  0  0  0  0  0  0
  197.2405  179.3829  156.3457 H   0  0  0  0  0  0  0  0  0  0  0  0
  195.9400  182.2810  155.6912 H   0  0  0  0  0  0  0  0  0  0  0  0
  195.9937  181.0811  156.9581 H   0  0  0  0  0  0  0  0  0  0  0  0
  196.7418  181.6760  159.1690 H   0  0  0  0  0  0  0  0  0  0  0  0
  197.4041  183.4389  160.7897 H   0  0  0  0  0  0  0  0  0  0  0  0
  198.0103  185.7157  159.9781 H   0  0  0  0  0  0  0  0  0  0  0  0
  197.9472  186.2245  157.5377 H   0  0  0  0  0  0  0  0  0  0  0  0
  197.2744  184.4614  155.9207 H   0  0  0  0  0  0  0  0  0  0  0  0
  199.0026  178.6023  151.4118 H   0  0  0  0  0  0  0  0  0  0  0  0
  201.9518  176.1864  153.7601 H   0  0  0  0  0  0  0  0  0  0  0  0
  202.4589  175.7374  156.1478 H   0  0  0  0  0  0  0  0  0  0  0  0
  201.1606  176.9008  157.9213 H   0  0  0  0  0  0  0  0  0  0  0  0
  199.3965  178.5247  157.3188 H   0  0  0  0  0  0  0  0  0  0  0  0
  195.6181  182.0443  151.6384 H   0  0  0  0  0  0  0  0  0  0  0  0
  197.0157  182.6732  152.4498 H   0  0  0  0  0  0  0  0  0  0  0  0
  195.7084  184.5685  150.8773 H   0  0  0  0  0  0  0  0  0  0  0  0
  196.3367  186.0119  148.9366 H   0  0  0  0  0  0  0  0  0  0  0  0
  198.8669  186.8074  145.3237 H   0  0  0  0  0  0  0  0  0  0  0  0
  199.1132  182.9914  147.6021 H   0  0  0  0  0  0  0  0  0  0  0  0
  198.6036  181.6380  149.4812 H   0  0  0  0  0  0  0  0  0  0  0  0
  1  2  1  0
  2  3  2  0
  2  4  1  0
  4  5  1  0
  4 26  1  0
  4 35  1  6
  5  6  1  0
  5 36  1  0
  6  7  2  0
  6 21  1  0
  7  8  1  0
  7 18  1  0
  8  9  1  0
  8 37  1  0
  9 10  2  0
  9 11  1  0
 11 12  1  0
 11 38  1  6
 11 39  1  0
 12 13  2  0
 12 17  1  0
 13 14  1  0
 13 40  1  0
 14 15  2  0
 14 41  1  0
 15 16  1  0
 15 42  1  0
 16 17  2  0
 16 43  1  0
 17 44  1  0
 18 19  1  0
 18 25  2  0
 19 20  1  0
 19 22  2  0
 20 21  2  0
 21 45  1  0
 22 23  1  0
 22 46  1  0
 23 24  2  0
 23 47  1  0
 24 25  1  0
 24 48  1  0
 25 49  1  0
 26 27  1  0
 26 50  1  1
 26 51  1  0
 27 28  1  0
 27 34  2  0
 28 29  2  0
 28 52  1  0
 29 30  1  0
 29 53  1  0
 30 31  1  0
 30 33  2  0
 31 32  3  0
 32 54  1  0
 33 34  1  0
 33 55  1  0
 34 56  1  0
M  CHG  1   1  -1
M  END
>  <s_epik_cmdline>  (1452) 
J2VwaWtfcHl0aG9uJywgJy1waCcsICc3LjAwMDAwMCcsICctcGh0JywgJzIuMDAwMDAwJywgJy1tcycsICcxNicsICctdG4nLCAnOCcsICctbWEnLCAnMjAwJywgJy1pbWFlJywgJzxpbmZpbGUubWFlPicsICctb21hZScsICc8b3V0ZmlsZS5tYWU+Jw==

>  <s_epik_input>  (1452) 
W0NIXSNDYyhbY0hdW2NIXTEpW2NIXVtjSF1jMVtDSDJdW0NASF0oQyg9TylbT0hdKVtOSF1jKFtjSF1uYyhjMjMpW2NIXVtjSF1bY0hdW2NIXTMpYzJbTkhdQyg9TylbQ0gyXWM0W2NIXVtjSF1bY0hdW2NIXVtjSF00

>  <s_i_glide_gridfile>  (1452) 
ATP-Grid

>  <s_lp_Force_Field>  (1452) 
OPLS_2005

>  <s_lp_Variant>  (1452) 
rxn502b____EMOL530620____EMOL13728749____EMOL49863303-1

>  <s_lp_label>  (1452) 
3013_sdstereoexpander_1_neutralizer_1_epik_1_stereoizer_1

>  <s_m_source_file>  (1452) 
ATP-VSW-LIGPREP-001-in.maegz

>  <s_sd_BIOSOLVEIT.INFINISEE\_QUERY\_NAME>  (1452) 
Ref-Lig

>  <s_sd_BIOSOLVEIT.INFINISEE\_QUERY\_SMILES>  (1452) 
S(c1nc2c(cc1C[NH2+]Cc3ccc(cc3)C[NH+](C)C)cccc2)Cc4ccccc4

>  <s_sd_BIOSOLVEIT.INFINISEE\_REACTION\_NAME>  (1452) 
rxn502b

>  <s_sd_BIOSOLVEIT.INFINISEE\_REAGENT1\_NAME>  (1452) 
EMOL530620

>  <s_sd_BIOSOLVEIT.INFINISEE\_REAGENT1\_SMILES>  (1452) 
ClC(=O)Cc1ccccc1

>  <s_sd_BIOSOLVEIT.INFINISEE\_REAGENT2\_NAME>  (1452) 
EMOL13728749

>  <s_sd_BIOSOLVEIT.INFINISEE\_REAGENT2\_SMILES>  (1452) 
Brc1c(N)c2c(nc1)cccc2

>  <s_sd_BIOSOLVEIT.INFINISEE\_REAGENT3\_NAME>  (1452) 
EMOL49863303

>  <s_sd_BIOSOLVEIT.INFINISEE\_REAGENT3\_SMILES>  (1452) 
O=C(O)C(N)Cc1ccc(C#C)cc1

>  <s_sd_BIOSOLVEIT.INFINISEE\_SPACE>  (1452) 
eXplore_7tr_2022-12

>  <s_vsw_compound_code>  (1452) 
96385

>  <s_vsw_variant>  (1452) 
96385-1

>  <r_epik_Charging_Adjusted_Penalty>  (1452) 
0.024926457410490401

>  <r_epik_Ionization_Penalty>  (1452) 
0.025000000000000001

>  <r_epik_Ionization_Penalty_Charging>  (1452) 
0.00020000000000000001

>  <r_epik_Ionization_Penalty_Neutral>  (1452) 
0.0247

>  <r_epik_State_Penalty>  (1452) 
0.0247

>  <r_i_docking_score>  (1452) 
-3.9129454134308999

>  <r_i_glide_ecoul>  (1452) 
-1.40793073177338

>  <r_i_glide_eff_state_penalty>  (1452) 
0.0247

>  <r_i_glide_einternal>  (1452) 
5.7573208808898899

>  <r_i_glide_emodel>  (1452) 
-49.561068012436003

>  <r_i_glide_energy>  (1452) 
-40.519850134849499

>  <r_i_glide_erotb>  (1452) 
0.79676464021683702

>  <r_i_glide_esite>  (1452) 
-0.14011577125300101

>  <r_i_glide_evdw>  (1452) 
-39.1119194030762

>  <r_i_glide_gscore>  (1452) 
-3.9376454134309

>  <r_i_glide_hbond>  (1452) 
-0.128645219561623

>  <r_i_glide_ligand_efficiency>  (1452) 
-0.115086629806791

>  <r_i_glide_ligand_efficiency_ln>  (1452) 
-0.86447939622810399

>  <r_i_glide_ligand_efficiency_sa>  (1452) 
-0.372836003653082

>  <r_i_glide_lipo>  (1452) 
-1.72028819845082

>  <r_i_glide_metal>  (1452) 
-0

>  <r_i_glide_rewards>  (1452) 
-0.57857528446248196

>  <r_lp_Energy>  (1452) 
27.436601

>  <r_qp_ACxDN^.5/SA>  (1452) 
0.0180196

>  <r_qp_CIQPlogS>  (1452) 
-6.8650000000000002

>  <r_qp_EA(eV)>  (1452) 
1.1419999999999999

>  <r_qp_FISA>  (1452) 
123.989

>  <r_qp_FOSA>  (1452) 
104.387

>  <r_qp_IP(eV)>  (1452) 
8.6910000000000007

>  <r_qp_Jm>  (1452) 
0.56555214558457301

>  <r_qp_PISA>  (1452) 
446.46699999999998

>  <r_qp_PSA>  (1452) 
99.427000000000007

>  <r_qp_PercentHumanOralAbsorption>  (1452) 
93.811999999999998

>  <r_qp_QPPCaco>  (1452) 
167.38399999999999

>  <r_qp_QPPMDCK>  (1452) 
91.141000000000005

>  <r_qp_QPlogBB>  (1452) 
-1.099

>  <r_qp_QPlogHERG>  (1452) 
-4.1340000000000003

>  <r_qp_QPlogKhsa>  (1452) 
0.28100000000000003

>  <r_qp_QPlogKp>  (1452) 
-1.3680000000000001

>  <r_qp_QPlogPC16>  (1452) 
15.193

>  <r_qp_QPlogPo/w>  (1452) 
4.6230000000000002

>  <r_qp_QPlogPoct>  (1452) 
24.07

>  <r_qp_QPlogPw>  (1452) 
14.766999999999999

>  <r_qp_QPlogS>  (1452) 
-4.5330000000000004

>  <r_qp_QPpolrz>  (1452) 
44.857999999999997

>  <r_qp_SASA>  (1452) 
674.84299999999996

>  <r_qp_SAamideO>  (1452) 
0

>  <r_qp_SAfluorine>  (1452) 
0

>  <r_qp_WPSA>  (1452) 
0

>  <r_qp_accptHB>  (1452) 
6.5

>  <r_qp_dip^2/V>  (1452) 
0.0188608

>  <r_qp_dipole>  (1452) 
4.9749999999999996

>  <r_qp_donorHB>  (1452) 
3.5

>  <r_qp_glob>  (1452) 
0.85908070000000003

>  <r_qp_mol_MW>  (1452) 
449.50799999999998

>  <r_qp_volume>  (1452) 
1312.5239999999999

>  <r_sd_BIOSOLVEIT.INFINISEE\_FTREES\_SIMILARITY>  (1452) 
0.90200000000000002

>  <r_sd_BIOSOLVEIT.LOGP>  (1452) 
3.1703999999999999

>  <r_sd_BIOSOLVEIT.MOLECULAR\_WEIGHT>  (1452) 
448.5

>  <r_sd_BIOSOLVEIT.TPSA>  (1452) 
94.150000000000006

>  <i_epik_Tot_Q>  (1452) 
-1

>  <i_epik_Tot_abs_Q>  (1452) 
1

>  <i_f3d_flags>  (1452) 
0

>  <i_i_glide_confnum>  (1452) 
5

>  <i_i_glide_lignum>  (1452) 
1461

>  <i_i_glide_posenum>  (1452) 
16

>  <i_i_glide_rotatable_bonds>  (1452) 
10

>  <i_lp_mmshare_version>  (1452) 
65135

>  <i_m_ct_format>  (1452) 
2

>  <i_m_source_file_index>  (1452) 
3013

>  <i_qp_#NandO>  (1452) 
6

>  <i_qp_#acid>  (1452) 
1

>  <i_qp_#amide>  (1452) 
0

>  <i_qp_#amidine>  (1452) 
0

>  <i_qp_#amine>  (1452) 
0

>  <i_qp_#in34>  (1452) 
0

>  <i_qp_#in56>  (1452) 
22

>  <i_qp_#metab>  (1452) 
6

>  <i_qp_#nonHatm>  (1452) 
34

>  <i_qp_#noncon>  (1452) 
0

>  <i_qp_#ringatoms>  (1452) 
22

>  <i_qp_#rotor>  (1452) 
9

>  <i_qp_#rtvFG>  (1452) 
0

>  <i_qp_#stars>  (1452) 
0

>  <i_qp_CNS>  (1452) 
-2

>  <i_qp_HumanOralAbsorption>  (1452) 
3

>  <i_qp_RuleOfFive>  (1452) 
0

>  <i_qp_RuleOfThree>  (1452) 
0

>  <i_sd_BIOSOLVEIT.INFINISEE\_RESULT\_RANK>  (1452) 
87233

>  <i_sd_version>  (1452) 
0

>  <b_lp_Chiralities_Consistent>  (1452) 
1

>  <b_sd_chiral_flag>  (1452) 
0

>  <canonical_id>  (1452) 
ATP-HTVS-E38D6BC47DFC

>  <compound_code>  (1452) 
96385

>  <title>  (1452) 
rxn502b____EMOL530620____EMOL13728749____EMOL49863303

>  <variant>  (1452) 
96385-1

>  <source_file>  (1452) 
运行/运行/ATP-VSW/ATP-VSW-DOCK_HTVS_1-001_lib/ATP-VSW-DOCK_HTVS_1-001_lib

>  <canonical_smiles>  (1452) 
C#Cc1ccc(C[C@@H](Nc2cnc3ccccc3c2NC(=O)Cc2ccccc2)C(=O)[O-])cc1

>  <scaffold>  (1452) 
O=C(Cc1ccccc1)Nc1c(NCCc2ccccc2)cnc2ccccc12

>  <molecular_formula>  (1452) 
C28H22N3O3-

$$$$
ATP-HTVS-E3DAAD165412
     RDKit          3D

 66 69  0  0  0  0  0  0  0  0999 V2000
  203.5398  181.2124  158.7868 O   0  0  0  0  0  0  0  0  0  0  0  0
  202.4097  181.5976  158.4765 C   0  0  0  0  0  0  0  0  0  0  0  0
  201.5500  180.7653  157.8636 N   0  0  0  0  0  0  0  0  0  0  0  0
  201.7721  179.3441  157.6193 C   0  0  1  0  0  0  0  0  0  0  0  0
  201.6826  179.0106  156.1102 C   0  0  1  0  0  0  0  0  0  0  0  0
  201.9451  177.5732  155.7897 N   0  0  2  0  0  0  0  0  0  0  0  0
  202.1147  177.3123  154.3437 C   0  0  2  0  0  0  0  0  0  0  0  0
  200.9724  176.6083  156.3819 C   0  0  2  0  0  0  0  0  0  0  0  0
  200.3921  179.5490  155.4853 C   0  0  0  0  0  0  0  0  0  0  0  0
  199.1543  179.0595  155.9405 C   0  0  0  0  0  0  0  0  0  0  0  0
  197.9469  179.5090  155.3465 C   0  0  0  0  0  0  0  0  0  0  0  0
  197.9843  180.4711  154.3197 C   0  0  0  0  0  0  0  0  0  0  0  0
  199.2234  180.9863  153.8831 C   0  0  0  0  0  0  0  0  0  0  0  0
  200.4212  180.5237  154.4624 C   0  0  0  0  0  0  0  0  0  0  0  0
  196.6879  180.9544  153.7020 C   0  0  2  0  0  0  0  0  0  0  0  0
  201.8801  182.9504  158.7399 C   0  0  0  0  0  0  0  0  0  0  0  0
  202.6941  184.0069  159.4156 C   0  0  0  0  0  0  0  0  0  0  0  0
  203.8436  183.8026  159.8113 O   0  0  0  0  0  0  0  0  0  0  0  0
  202.0597  185.3488  159.5912 C   0  0  0  0  0  0  0  0  0  0  0  0
  200.7215  185.5840  159.1737 C   0  0  0  0  0  0  0  0  0  0  0  0
  199.9980  184.5070  158.6091 N   0  0  0  0  0  0  0  0  0  0  0  0
  200.6086  183.2790  158.3936 C   0  0  0  0  0  0  0  0  0  0  0  0
  198.5594  184.6407  158.3743 C   0  0  1  0  0  0  0  0  0  0  0  0
  197.7320  184.2468  159.6122 C   0  0  1  0  0  0  0  0  0  0  0  0
  196.3480  183.7523  159.2501 C   0  0  0  0  0  0  0  0  0  0  0  0
  195.2134  184.5478  159.5096 C   0  0  0  0  0  0  0  0  0  0  0  0
  193.9341  184.0712  159.1573 C   0  0  0  0  0  0  0  0  0  0  0  0
  193.7861  182.8222  158.5246 C   0  0  0  0  0  0  0  0  0  0  0  0
  194.9149  182.0242  158.2848 C   0  0  0  0  0  0  0  0  0  0  0  0
  196.1929  182.4864  158.6441 C   0  0  0  0  0  0  0  0  0  0  0  0
  200.1792  186.8855  159.3336 C   0  0  0  0  0  0  0  0  0  0  0  0
  200.9382  187.9163  159.9144 C   0  0  0  0  0  0  0  0  0  0  0  0
  202.2526  187.6724  160.3410 C   0  0  0  0  0  0  0  0  0  0  0  0
  202.8139  186.3938  160.1745 C   0  0  0  0  0  0  0  0  0  0  0  0
  200.6415  181.1201  157.6043 H   0  0  0  0  0  0  0  0  0  0  0  0
  202.7302  179.0383  158.0429 H   0  0  0  0  0  0  0  0  0  0  0  0
  201.0023  178.8147  158.1734 H   0  0  0  0  0  0  0  0  0  0  0  0
  202.5043  179.5546  155.6451 H   0  0  0  0  0  0  0  0  0  0  0  0
  201.2529  177.6442  153.7648 H   0  0  0  0  0  0  0  0  0  0  0  0
  202.2389  176.2482  154.1466 H   0  0  0  0  0  0  0  0  0  0  0  0
  202.9967  177.8239  153.9574 H   0  0  0  0  0  0  0  0  0  0  0  0
  199.9381  176.7910  156.0257 H   0  0  0  0  0  0  0  0  0  0  0  0
  200.9282  176.6846  157.4654 H   0  0  0  0  0  0  0  0  0  0  0  0
  201.2644  175.5701  156.1727 H   0  0  0  0  0  0  0  0  0  0  0  0
  199.1322  178.3174  156.7137 H   0  0  0  0  0  0  0  0  0  0  0  0
  197.0059  179.0995  155.6881 H   0  0  0  0  0  0  0  0  0  0  0  0
  199.2588  181.7416  153.1113 H   0  0  0  0  0  0  0  0  0  0  0  0
  201.3665  180.9175  154.1163 H   0  0  0  0  0  0  0  0  0  0  0  0
  196.8516  181.3474  152.6971 H   0  0  0  0  0  0  0  0  0  0  0  0
  196.2586  181.7409  154.3229 H   0  0  0  0  0  0  0  0  0  0  0  0
  195.9644  180.1400  153.6365 H   0  0  0  0  0  0  0  0  0  0  0  0
  199.9358  182.5886  157.9073 H   0  0  0  0  0  0  0  0  0  0  0  0
  198.2638  185.6274  158.0143 H   0  0  0  0  0  0  0  0  0  0  0  0
  198.3060  183.9794  157.5418 H   0  0  0  0  0  0  0  0  0  0  0  0
  198.2259  183.4486  160.1676 H   0  0  0  0  0  0  0  0  0  0  0  0
  197.6592  185.0965  160.2928 H   0  0  0  0  0  0  0  0  0  0  0  0
  195.3097  185.5185  159.9743 H   0  0  0  0  0  0  0  0  0  0  0  0
  193.0548  184.6588  159.3544 H   0  0  0  0  0  0  0  0  0  0  0  0
  192.8107  182.4752  158.2297 H   0  0  0  0  0  0  0  0  0  0  0  0
  194.7841  181.0606  157.8168 H   0  0  0  0  0  0  0  0  0  0  0  0
  197.0510  181.8600  158.4477 H   0  0  0  0  0  0  0  0  0  0  0  0
  199.1676  187.1295  159.0393 H   0  0  0  0  0  0  0  0  0  0  0  0
  200.4991  188.8912  160.0541 H   0  0  0  0  0  0  0  0  0  0  0  0
  202.8275  188.4629  160.8042 H   0  0  0  0  0  0  0  0  0  0  0  0
  203.8302  186.2231  160.5058 H   0  0  0  0  0  0  0  0  0  0  0  0
  202.8263  177.3887  156.2284 H   0  0  0  0  0  0  0  0  0  0  0  0
  1  2  2  0
  2  3  1  0
  2 16  1  0
  3  4  1  0
  3 35  1  0
  4  5  1  0
  4 36  1  1
  4 37  1  0
  5  6  1  0
  5  9  1  0
  5 38  1  6
  6  7  1  0
  6  8  1  0
  6 66  1  1
  7 39  1  6
  7 40  1  0
  7 41  1  0
  8 42  1  6
  8 43  1  0
  8 44  1  0
  9 10  1  0
  9 14  2  0
 10 11  2  0
 10 45  1  0
 11 12  1  0
 11 46  1  0
 12 13  2  0
 12 15  1  0
 13 14  1  0
 13 47  1  0
 14 48  1  0
 15 49  1  6
 15 50  1  0
 15 51  1  0
 16 17  1  0
 16 22  2  0
 17 18  2  0
 17 19  1  0
 19 20  1  0
 19 34  2  0
 20 21  1  0
 20 31  2  0
 21 22  1  0
 21 23  1  0
 22 52  1  0
 23 24  1  0
 23 53  1  6
 23 54  1  0
 24 25  1  0
 24 55  1  1
 24 56  1  0
 25 26  2  0
 25 30  1  0
 26 27  1  0
 26 57  1  0
 27 28  2  0
 27 58  1  0
 28 29  1  0
 28 59  1  0
 29 30  2  0
 29 60  1  0
 30 61  1  0
 31 32  1  0
 31 62  1  0
 32 33  2  0
 32 63  1  0
 33 34  1  0
 33 64  1  0
 34 65  1  0
M  CHG  1   6   1
M  END
>  <s_epik_cmdline>  (1453) 
J2VwaWtfcHl0aG9uJywgJy1waCcsICc3LjAwMDAwMCcsICctcGh0JywgJzIuMDAwMDAwJywgJy1tcycsICcxNicsICctdG4nLCAnOCcsICctbWEnLCAnMjAwJywgJy1pbWFlJywgJzxpbmZpbGUubWFlPicsICctb21hZScsICc8b3V0ZmlsZS5tYWU+Jw==

>  <s_epik_input>  (1453) 
W2NIXTFbY0hdYyhbQ0gzXSlbY0hdW2NIXWMxW0NASF0oTihbQ0gzXSlbQ0gzXSlbQ0gyXVtOSF1DKD1PKWMoYzI9TylbY0hdbihjKGMyMylbY0hdW2NIXVtjSF1bY0hdMylbQ0gyXVtDSDJdYzRbY0hdW2NIXVtjSF1bY0hdW2NIXTQ=

>  <s_i_glide_gridfile>  (1453) 
ATP-Grid

>  <s_lp_Force_Field>  (1453) 
OPLS_2005

>  <s_lp_Variant>  (1453) 
YAS_R014____OTV5753507____OTV2889217____OTV7020410266-2

>  <s_lp_label>  (1453) 
153_sdstereoexpander_2_neutralizer_1_epik_1_stereoizer_1

>  <s_m_source_file>  (1453) 
ATP-VSW-LIGPREP-001-in.maegz

>  <s_sd_BIOSOLVEIT.INFINISEE\_QUERY\_NAME>  (1453) 
Ref-Lig

>  <s_sd_BIOSOLVEIT.INFINISEE\_QUERY\_SMILES>  (1453) 
S(c1nc2c(cc1C[NH2+]Cc3ccc(cc3)C[NH+](C)C)cccc2)Cc4ccccc4

>  <s_sd_BIOSOLVEIT.INFINISEE\_REACTION\_NAME>  (1453) 
YAS_R014

>  <s_sd_BIOSOLVEIT.INFINISEE\_REAGENT1\_NAME>  (1453) 
OTV5753507

>  <s_sd_BIOSOLVEIT.INFINISEE\_REAGENT1\_SMILES>  (1453) 
Nc1ccccc1

>  <s_sd_BIOSOLVEIT.INFINISEE\_REAGENT2\_NAME>  (1453) 
OTV2889217

>  <s_sd_BIOSOLVEIT.INFINISEE\_REAGENT2\_SMILES>  (1453) 
BrCCc1ccccc1

>  <s_sd_BIOSOLVEIT.INFINISEE\_REAGENT3\_NAME>  (1453) 
OTV7020410266

>  <s_sd_BIOSOLVEIT.INFINISEE\_REAGENT3\_SMILES>  (1453) 
N(C(c1ccc(cc1)C)CN)(C)C

>  <s_sd_BIOSOLVEIT.INFINISEE\_SPACE>  (1453) 
CHEMriya_12bn_2022-01

>  <s_vsw_compound_code>  (1453) 
4865

>  <s_vsw_variant>  (1453) 
4865-2

>  <r_epik_Charging_Adjusted_Penalty>  (1453) 
0.28900750911122502

>  <r_epik_Ionization_Penalty>  (1453) 
0.14449999999999999

>  <r_epik_Ionization_Penalty_Charging>  (1453) 
0.14449999999999999

>  <r_epik_Ionization_Penalty_Neutral>  (1453) 
0

>  <r_epik_State_Penalty>  (1453) 
0.14449999999999999

>  <r_i_docking_score>  (1453) 
-3.81299423918562

>  <r_i_glide_ecoul>  (1453) 
-9.1499652862548793

>  <r_i_glide_eff_state_penalty>  (1453) 
0.14449999999999999

>  <r_i_glide_einternal>  (1453) 
4.7401614189147896

>  <r_i_glide_emodel>  (1453) 
-54.370185420326202

>  <r_i_glide_energy>  (1453) 
-41.458192825317397

>  <r_i_glide_erotb>  (1453) 
0.77745603914811301

>  <r_i_glide_esite>  (1453) 
-0.030053855232751399

>  <r_i_glide_evdw>  (1453) 
-32.3082275390625

>  <r_i_glide_gscore>  (1453) 
-3.9574942391856198

>  <r_i_glide_hbond>  (1453) 
0

>  <r_i_glide_ligand_efficiency>  (1453) 
-0.112146889387812

>  <r_i_glide_ligand_efficiency_ln>  (1453) 
-0.84239737830184502

>  <r_i_glide_ligand_efficiency_sa>  (1453) 
-0.36331238591025999

>  <r_i_glide_lipo>  (1453) 
-1.0570660531268701

>  <r_i_glide_metal>  (1453) 
-0

>  <r_i_glide_rewards>  (1453) 
-0.65992420008275399

>  <r_lp_Energy>  (1453) 
28.529540999999998

>  <r_qp_ACxDN^.5/SA>  (1453) 
0

>  <r_qp_CIQPlogS>  (1453) 
-6.1929999999999996

>  <r_qp_EA(eV)>  (1453) 
0.51500000000000001

>  <r_qp_FISA>  (1453) 
80.969999999999999

>  <r_qp_FOSA>  (1453) 
291.291

>  <r_qp_IP(eV)>  (1453) 
8.5190000000000001

>  <r_qp_Jm>  (1453) 
0.029343350033195201

>  <r_qp_PISA>  (1453) 
341.91300000000001

>  <r_qp_PSA>  (1453) 
68.519000000000005

>  <r_qp_PercentHumanOralAbsorption>  (1453) 
100

>  <r_qp_QPPCaco>  (1453) 
421.66000000000003

>  <r_qp_QPPMDCK>  (1453) 
215.208

>  <r_qp_QPlogBB>  (1453) 
-0.25900000000000001

>  <r_qp_QPlogHERG>  (1453) 
-6.2370000000000001

>  <r_qp_QPlogKhsa>  (1453) 
0.79100000000000004

>  <r_qp_QPlogKp>  (1453) 
-3.1019999999999999

>  <r_qp_QPlogPC16>  (1453) 
14.272

>  <r_qp_QPlogPo/w>  (1453) 
4.9400000000000004

>  <r_qp_QPlogPoct>  (1453) 
20.736999999999998

>  <r_qp_QPlogPw>  (1453) 
8.4600000000000009

>  <r_qp_QPlogS>  (1453) 
-4.0869999999999997

>  <r_qp_QPpolrz>  (1453) 
48.738

>  <r_qp_SASA>  (1453) 
714.17499999999995

>  <r_qp_SAamideO>  (1453) 
0

>  <r_qp_SAfluorine>  (1453) 
0

>  <r_qp_WPSA>  (1453) 
0

>  <r_qp_accptHB>  (1453) 
6

>  <r_qp_dip^2/V>  (1453) 
0.090649499999999994

>  <r_qp_dipole>  (1453) 
11.339

>  <r_qp_donorHB>  (1453) 
0

>  <r_qp_glob>  (1453) 
0.85484510000000002

>  <r_qp_mol_MW>  (1453) 
453.58300000000003

>  <r_qp_volume>  (1453) 
1418.3720000000001

>  <r_sd_BIOSOLVEIT.INFINISEE\_FTREES\_SIMILARITY>  (1453) 
0.90200000000000002

>  <r_sd_BIOSOLVEIT.LOGP>  (1453) 
3.1263200000000002

>  <r_sd_BIOSOLVEIT.MOLECULAR\_WEIGHT>  (1453) 
454.59100000000001

>  <r_sd_BIOSOLVEIT.TPSA>  (1453) 
53.850000000000001

>  <i_epik_Tot_Q>  (1453) 
1

>  <i_epik_Tot_abs_Q>  (1453) 
1

>  <i_f3d_flags>  (1453) 
0

>  <i_i_glide_confnum>  (1453) 
7

>  <i_i_glide_lignum>  (1453) 
34

>  <i_i_glide_posenum>  (1453) 
2

>  <i_i_glide_rotatable_bonds>  (1453) 
9

>  <i_lp_mmshare_version>  (1453) 
65135

>  <i_m_ct_format>  (1453) 
2

>  <i_m_source_file_index>  (1453) 
153

>  <i_qp_#NandO>  (1453) 
5

>  <i_qp_#acid>  (1453) 
0

>  <i_qp_#amide>  (1453) 
0

>  <i_qp_#amidine>  (1453) 
0

>  <i_qp_#amine>  (1453) 
1

>  <i_qp_#in34>  (1453) 
0

>  <i_qp_#in56>  (1453) 
22

>  <i_qp_#metab>  (1453) 
6

>  <i_qp_#nonHatm>  (1453) 
34

>  <i_qp_#noncon>  (1453) 
0

>  <i_qp_#ringatoms>  (1453) 
22

>  <i_qp_#rotor>  (1453) 
8

>  <i_qp_#rtvFG>  (1453) 
0

>  <i_qp_#stars>  (1453) 
0

>  <i_qp_CNS>  (1453) 
1

>  <i_qp_HumanOralAbsorption>  (1453) 
3

>  <i_qp_RuleOfFive>  (1453) 
0

>  <i_qp_RuleOfThree>  (1453) 
0

>  <i_sd_BIOSOLVEIT.INFINISEE\_RESULT\_RANK>  (1453) 
88693

>  <i_sd_version>  (1453) 
0

>  <b_lp_Chiralities_Consistent>  (1453) 
1

>  <b_sd_chiral_flag>  (1453) 
0

>  <canonical_id>  (1453) 
ATP-HTVS-E3DAAD165412

>  <compound_code>  (1453) 
4865

>  <title>  (1453) 
YAS_R014____OTV5753507____OTV2889217____OTV7020410266

>  <variant>  (1453) 
4865-2

>  <source_file>  (1453) 
运行/运行/ATP-VSW/ATP-VSW-DOCK_HTVS_1-001_lib/ATP-VSW-DOCK_HTVS_1-001_lib

>  <canonical_smiles>  (1453) 
Cc1ccc([C@@H](CNC(=O)c2cn(CCc3ccccc3)c3ccccc3c2=O)[NH+](C)C)cc1

>  <scaffold>  (1453) 
O=C(NCCc1ccccc1)c1cn(CCc2ccccc2)c2ccccc2c1=O

>  <molecular_formula>  (1453) 
C29H32N3O2+

$$$$
ATP-HTVS-E3E3C457ADC4
     RDKit          3D

 48 51  0  0  0  0  0  0  0  0999 V2000
  195.0983  186.4055  161.3605 O   0  0  0  0  0  0  0  0  0  0  0  0
  195.5524  185.6909  160.2930 C   0  0  0  0  0  0  0  0  0  0  0  0
  196.8013  185.9753  159.6991 C   0  0  0  0  0  0  0  0  0  0  0  0
  197.2418  185.2377  158.5773 C   0  0  0  0  0  0  0  0  0  0  0  0
  196.4010  184.2437  158.0192 C   0  0  0  0  0  0  0  0  0  0  0  0
  195.1464  183.9844  158.6216 C   0  0  0  0  0  0  0  0  0  0  0  0
  194.7424  184.6774  159.7587 C   0  0  0  0  0  0  0  0  0  0  0  0
  196.8305  183.4937  156.7503 C   0  0  1  0  0  0  0  0  0  0  0  0
  196.8478  181.9499  156.9249 C   0  0  1  0  0  0  0  0  0  0  0  0
  195.5081  181.4360  157.0927 N   0  0  2  0  0  0  0  0  0  0  0  0
  197.3872  181.2132  155.7158 C   0  0  0  0  0  0  0  0  0  0  0  0
  196.6060  180.9635  154.6706 N   0  0  0  0  0  0  0  0  0  0  0  0
  197.4296  180.2545  153.8344 C   0  0  0  0  0  0  0  0  0  0  0  0
  198.7410  180.1145  154.3930 C   0  0  0  0  0  0  0  0  0  0  0  0
  198.6727  180.7815  155.6252 N   0  0  0  0  0  0  0  0  0  0  0  0
  199.7954  180.9150  156.4873 C   0  0  0  0  0  0  0  0  0  0  0  0
  199.9352  181.9703  157.3229 C   0  0  0  0  0  0  0  0  0  0  0  0
  201.0031  182.2047  158.2856 C   0  0  0  0  0  0  0  0  0  0  0  0
  200.8142  183.2213  159.1650 N   0  0  0  0  0  0  0  0  0  0  0  0
  201.7578  183.4621  160.0924 C   0  0  0  0  0  0  0  0  0  0  0  0
  202.9346  182.7007  160.1801 C   0  0  0  0  0  0  0  0  0  0  0  0
  203.1302  181.6343  159.2808 C   0  0  0  0  0  0  0  0  0  0  0  0
  202.1429  181.3816  158.3152 C   0  0  0  0  0  0  0  0  0  0  0  0
  199.7585  179.4539  153.6873 C   0  0  0  0  0  0  0  0  0  0  0  0
  199.4892  178.9317  152.4058 C   0  0  0  0  0  0  0  0  0  0  0  0
  198.2042  179.0622  151.8388 C   0  0  0  0  0  0  0  0  0  0  0  0
  197.1801  179.7092  152.5537 C   0  0  0  0  0  0  0  0  0  0  0  0
  195.5525  180.3759  157.3228 H   0  0  0  0  0  0  0  0  0  0  0  0
  194.9302  181.6392  156.2963 H   0  0  0  0  0  0  0  0  0  0  0  0
  195.6432  187.1544  161.5350 H   0  0  0  0  0  0  0  0  0  0  0  0
  197.4228  186.7664  160.0940 H   0  0  0  0  0  0  0  0  0  0  0  0
  198.2017  185.4752  158.1333 H   0  0  0  0  0  0  0  0  0  0  0  0
  194.4123  183.2989  158.2218 H   0  0  0  0  0  0  0  0  0  0  0  0
  193.7693  184.4396  160.1787 H   0  0  0  0  0  0  0  0  0  0  0  0
  196.1756  183.7516  155.9160 H   0  0  0  0  0  0  0  0  0  0  0  0
  197.7881  183.9041  156.4107 H   0  0  0  0  0  0  0  0  0  0  0  0
  197.3777  181.6119  157.8212 H   0  0  0  0  0  0  0  0  0  0  0  0
  200.4853  180.0643  156.3705 H   0  0  0  0  0  0  0  0  0  0  0  0
  199.2567  182.7818  157.3763 H   0  0  0  0  0  0  0  0  0  0  0  0
  201.5824  184.2901  160.7698 H   0  0  0  0  0  0  0  0  0  0  0  0
  203.6893  182.9254  160.9068 H   0  0  0  0  0  0  0  0  0  0  0  0
  204.0003  181.0034  159.2878 H   0  0  0  0  0  0  0  0  0  0  0  0
  202.2508  180.5595  157.6207 H   0  0  0  0  0  0  0  0  0  0  0  0
  200.7575  179.3728  154.0984 H   0  0  0  0  0  0  0  0  0  0  0  0
  200.2599  178.4335  151.8385 H   0  0  0  0  0  0  0  0  0  0  0  0
  198.0009  178.6630  150.8541 H   0  0  0  0  0  0  0  0  0  0  0  0
  196.1989  179.8208  152.1247 H   0  0  0  0  0  0  0  0  0  0  0  0
  195.1458  181.8355  157.9206 H   0  0  0  0  0  0  0  0  0  0  0  0
  1  2  1  0
  1 30  1  0
  2  3  1  0
  2  7  2  0
  3  4  2  0
  3 31  1  0
  4  5  1  0
  4 32  1  0
  5  6  2  0
  5  8  1  0
  6  7  1  0
  6 33  1  0
  7 34  1  0
  8  9  1  0
  8 35  1  6
  8 36  1  0
  9 10  1  0
  9 11  1  0
  9 37  1  1
 10 28  1  1
 10 29  1  0
 10 48  1  0
 11 12  2  0
 11 15  1  0
 12 13  1  0
 13 14  1  0
 13 27  2  0
 14 15  1  0
 14 24  2  0
 15 16  1  0
 16 17  2  0
 16 38  1  0
 17 18  1  0
 17 39  1  0
 18 19  1  0
 18 23  2  0
 19 20  2  0
 20 21  1  0
 20 40  1  0
 21 22  2  0
 21 41  1  0
 22 23  1  0
 22 42  1  0
 23 43  1  0
 24 25  1  0
 24 44  1  0
 25 26  2  0
 25 45  1  0
 26 27  1  0
 26 46  1  0
 27 47  1  0
M  CHG  1  10   1
M  END
>  <s_epik_cmdline>  (1454) 
J2VwaWtfcHl0aG9uJywgJy1waCcsICc3LjAwMDAwMCcsICctcGh0JywgJzIuMDAwMDAwJywgJy1tcycsICcxNicsICctdG4nLCAnOCcsICctbWEnLCAnMjAwJywgJy1pbWFlJywgJzxpbmZpbGUubWFlPicsICctb21hZScsICc8b3V0ZmlsZS5tYWU+Jw==

>  <s_epik_input>  (1454) 
W09IXWMxW2NIXVtjSF1jKFtjSF1bY0hdMSlbQ0gyXVtDQEBIXShbTkgyXSljKG4yKW4oYyhjMjMpW2NIXVtjSF1bY0hdW2NIXTMpL1tDSF09W0NIXS9jNG5bY0hdW2NIXVtjSF1bY0hdNA==

>  <s_i_glide_gridfile>  (1454) 
ATP-Grid

>  <s_lp_Force_Field>  (1454) 
OPLS_2005

>  <s_lp_Variant>  (1454) 
N-ArylationHeterocycle____96400727____6834858-1

>  <s_lp_label>  (1454) 
653_sdstereoexpander_1_neutralizer_1_epik_1_stereoizer_1

>  <s_m_source_file>  (1454) 
ATP-VSW-LIGPREP-003-in.maegz

>  <s_sd_BIOSOLVEIT.INFINISEE\_QUERY\_NAME>  (1454) 
Ref-Lig

>  <s_sd_BIOSOLVEIT.INFINISEE\_QUERY\_SMILES>  (1454) 
S(c1nc2c(cc1C[NH2+]Cc3ccc(cc3)C[NH+](C)C)cccc2)Cc4ccccc4

>  <s_sd_BIOSOLVEIT.INFINISEE\_REACTION\_NAME>  (1454) 
N-ArylationHeterocycle

>  <s_sd_BIOSOLVEIT.INFINISEE\_REAGENT1\_SMILES>  (1454) 
OB(O)C=Cc1ncccc1

>  <s_sd_BIOSOLVEIT.INFINISEE\_REAGENT2\_SMILES>  (1454) 
Oc1ccc(cc1)CC(N)C2=Nc3c(N2)cccc3

>  <s_sd_BIOSOLVEIT.INFINISEE\_SPACE>  (1454) 
KnowledgeSpace_290tr_2019-05

>  <s_vsw_compound_code>  (1454) 
20867

>  <s_vsw_variant>  (1454) 
20867-1

>  <r_epik_Charging_Adjusted_Penalty>  (1454) 
0.460704767246922

>  <r_epik_Ionization_Penalty>  (1454) 
0.2324

>  <r_epik_Ionization_Penalty_Charging>  (1454) 
0.23039999999999999

>  <r_epik_Ionization_Penalty_Neutral>  (1454) 
0.002

>  <r_epik_State_Penalty>  (1454) 
0.23039999999999999

>  <r_i_docking_score>  (1454) 
-6.0259023009575303

>  <r_i_glide_ecoul>  (1454) 
-16.723741531372099

>  <r_i_glide_eff_state_penalty>  (1454) 
0.23039999999999999

>  <r_i_glide_einternal>  (1454) 
5.9766440391540501

>  <r_i_glide_emodel>  (1454) 
-67.147822689829496

>  <r_i_glide_energy>  (1454) 
-44.622138977050803

>  <r_i_glide_erotb>  (1454) 
0.74924531622476997

>  <r_i_glide_esite>  (1454) 
-0.184979878844688

>  <r_i_glide_evdw>  (1454) 
-27.8983974456787

>  <r_i_glide_gscore>  (1454) 
-6.2563023009575298

>  <r_i_glide_hbond>  (1454) 
-0.29117131372190502

>  <r_i_glide_ligand_efficiency>  (1454) 
-0.22318156670213099

>  <r_i_glide_ligand_efficiency_ln>  (1454) 
-1.4027307108992699

>  <r_i_glide_ligand_efficiency_sa>  (1454) 
-0.66954469937082195

>  <r_i_glide_lipo>  (1454) 
-1.4288358226259601

>  <r_i_glide_metal>  (1454) 
-0

>  <r_i_glide_rewards>  (1454) 
-1.1970795000000001

>  <r_lp_Energy>  (1454) 
16.022815000000001

>  <r_lp_tautomer_probability>  (1454) 
0.999999999997365

>  <r_qp_ACxDN^.5/SA>  (1454) 
0.012478700000000001

>  <r_qp_CIQPlogS>  (1454) 
-4.7699999999999996

>  <r_qp_EA(eV)>  (1454) 
0.90400000000000003

>  <r_qp_FISA>  (1454) 
113.521

>  <r_qp_FOSA>  (1454) 
52.412999999999997

>  <r_qp_IP(eV)>  (1454) 
8.4819999999999993

>  <r_qp_Jm>  (1454) 
0.15461511684655399

>  <r_qp_PISA>  (1454) 
423.96699999999998

>  <r_qp_PSA>  (1454) 
73.122

>  <r_qp_PercentHumanOralAbsorption>  (1454) 
87.635000000000005

>  <r_qp_QPPCaco>  (1454) 
207.148

>  <r_qp_QPPMDCK>  (1454) 
99.817999999999998

>  <r_qp_QPlogBB>  (1454) 
-0.443

>  <r_qp_QPlogHERG>  (1454) 
-6.266

>  <r_qp_QPlogKhsa>  (1454) 
0.38400000000000001

>  <r_qp_QPlogKp>  (1454) 
-3.5089999999999999

>  <r_qp_QPlogPC16>  (1454) 
13.055

>  <r_qp_QPlogPo/w>  (1454) 
3.2850000000000001

>  <r_qp_QPlogPoct>  (1454) 
19.555

>  <r_qp_QPlogPw>  (1454) 
11.831

>  <r_qp_QPlogS>  (1454) 
-2.8540000000000001

>  <r_qp_QPpolrz>  (1454) 
37.700000000000003

>  <r_qp_SASA>  (1454) 
589.90200000000004

>  <r_qp_SAamideO>  (1454) 
0

>  <r_qp_SAfluorine>  (1454) 
0

>  <r_qp_WPSA>  (1454) 
0

>  <r_qp_accptHB>  (1454) 
4.25

>  <r_qp_dip^2/V>  (1454) 
0.0171218

>  <r_qp_dipole>  (1454) 
4.3529999999999998

>  <r_qp_donorHB>  (1454) 
3

>  <r_qp_glob>  (1454) 
0.87727580000000005

>  <r_qp_mol_MW>  (1454) 
356.42599999999999

>  <r_qp_volume>  (1454) 
1106.9449999999999

>  <r_sd_BIOSOLVEIT.INFINISEE\_FTREES\_SIMILARITY>  (1454) 
0.90400000000000003

>  <r_sd_BIOSOLVEIT.LOGP>  (1454) 
3.2905000000000002

>  <r_sd_BIOSOLVEIT.MOLECULAR\_WEIGHT>  (1454) 
357.435

>  <r_sd_BIOSOLVEIT.TPSA>  (1454) 
78.579999999999998

>  <i_epik_Tot_Q>  (1454) 
1

>  <i_epik_Tot_abs_Q>  (1454) 
1

>  <i_f3d_flags>  (1454) 
0

>  <i_i_glide_confnum>  (1454) 
4

>  <i_i_glide_lignum>  (1454) 
283

>  <i_i_glide_posenum>  (1454) 
8

>  <i_i_glide_rotatable_bonds>  (1454) 
6

>  <i_lp_mmshare_version>  (1454) 
65135

>  <i_m_ct_format>  (1454) 
2

>  <i_m_source_file_index>  (1454) 
653

>  <i_qp_#NandO>  (1454) 
5

>  <i_qp_#acid>  (1454) 
0

>  <i_qp_#amide>  (1454) 
0

>  <i_qp_#amidine>  (1454) 
0

>  <i_qp_#amine>  (1454) 
1

>  <i_qp_#in34>  (1454) 
0

>  <i_qp_#in56>  (1454) 
21

>  <i_qp_#metab>  (1454) 
6

>  <i_qp_#nonHatm>  (1454) 
27

>  <i_qp_#noncon>  (1454) 
0

>  <i_qp_#ringatoms>  (1454) 
21

>  <i_qp_#rotor>  (1454) 
7

>  <i_qp_#rtvFG>  (1454) 
0

>  <i_qp_#stars>  (1454) 
0

>  <i_qp_CNS>  (1454) 
0

>  <i_qp_HumanOralAbsorption>  (1454) 
3

>  <i_qp_RuleOfFive>  (1454) 
0

>  <i_qp_RuleOfThree>  (1454) 
0

>  <i_sd_BIOSOLVEIT.INFINISEE\_REAGENT1\_NAME>  (1454) 
96400727

>  <i_sd_BIOSOLVEIT.INFINISEE\_REAGENT2\_NAME>  (1454) 
6834858

>  <i_sd_BIOSOLVEIT.INFINISEE\_RESULT\_RANK>  (1454) 
78020

>  <i_sd_version>  (1454) 
0

>  <b_lp_Chiralities_Consistent>  (1454) 
1

>  <b_sd_chiral_flag>  (1454) 
0

>  <canonical_id>  (1454) 
ATP-HTVS-E3E3C457ADC4

>  <compound_code>  (1454) 
20867

>  <title>  (1454) 
N-ArylationHeterocycle____96400727____6834858

>  <variant>  (1454) 
20867-1

>  <source_file>  (1454) 
运行/运行/ATP-VSW/ATP-VSW-DOCK_HTVS_1-003_lib/ATP-VSW-DOCK_HTVS_1-003_lib.mae

>  <canonical_smiles>  (1454) 
[NH3+][C@H](Cc1ccc(O)cc1)c1nc2ccccc2n1/C=C/c1ccccn1

>  <scaffold>  (1454) 
C(=Cn1c(CCc2ccccc2)nc2ccccc21)c1ccccn1

>  <molecular_formula>  (1454) 
C22H21N4O+

$$$$
ATP-HTVS-E4024F0AB59A
     RDKit          3D

 62 64  0  0  0  0  0  0  0  0999 V2000
  197.3672  180.6340  152.0656 O   0  0  0  0  0  0  0  0  0  0  0  0
  198.1577  179.8798  152.9002 C   0  0  0  0  0  0  0  0  0  0  0  0
  199.3438  179.2776  152.3990 C   0  0  0  0  0  0  0  0  0  0  0  0
  200.1554  178.4801  153.2496 C   0  0  0  0  0  0  0  0  0  0  0  0
  199.7956  178.2795  154.6036 C   0  0  0  0  0  0  0  0  0  0  0  0
  200.5998  177.4771  155.3891 O   0  0  0  0  0  0  0  0  0  0  0  0
  200.1611  177.1535  156.7028 C   0  0  2  0  0  0  0  0  0  0  0  0
  198.6294  178.9138  155.0914 C   0  0  0  0  0  0  0  0  0  0  0  0
  197.8244  179.7240  154.2653 C   0  0  0  0  0  0  0  0  0  0  0  0
  196.6228  180.4041  154.9051 C   0  0  1  0  0  0  0  0  0  0  0  0
  197.0463  181.4171  155.9788 C   0  0  1  0  0  0  0  0  0  0  0  0
  195.9355  181.7563  156.8860 N   0  0  1  0  0  0  0  0  0  0  0  0
  196.3119  182.4274  158.1484 C   0  0  1  0  0  0  0  0  0  0  0  0
  196.6596  183.9019  157.9261 C   0  0  0  0  0  0  0  0  0  0  0  0
  197.7482  184.2390  157.0885 C   0  0  0  0  0  0  0  0  0  0  0  0
  198.0224  185.5890  156.7743 C   0  0  0  0  0  0  0  0  0  0  0  0
  197.2264  186.6075  157.3367 C   0  0  0  0  0  0  0  0  0  0  0  0
  196.1649  186.2823  158.1975 C   0  0  0  0  0  0  0  0  0  0  0  0
  195.8980  184.9393  158.5044 C   0  0  0  0  0  0  0  0  0  0  0  0
  197.5342  188.0597  157.0375 C   0  0  1  0  0  0  0  0  0  0  0  0
  198.4148  188.6732  158.0318 N   0  0  0  0  0  0  0  0  0  0  0  0
  197.7863  188.7550  159.3497 C   0  0  2  0  0  0  0  0  0  0  0  0
  198.7379  190.0241  157.6007 C   0  0  2  0  0  0  0  0  0  0  0  0
  195.1937  182.2059  159.1759 C   0  0  2  0  0  0  0  0  0  0  0  0
  201.3261  177.8717  152.7361 C   0  0  0  0  0  0  0  0  0  0  0  0
  201.6998  178.0627  151.3958 C   0  0  0  0  0  0  0  0  0  0  0  0
  200.9011  178.8574  150.5498 C   0  0  0  0  0  0  0  0  0  0  0  0
  199.7305  179.4579  151.0496 C   0  0  0  0  0  0  0  0  0  0  0  0
  196.1721  179.9854  151.6534 C   0  0  2  0  0  0  0  0  0  0  0  0
  195.1972  182.2534  156.3870 H   0  0  0  0  0  0  0  0  0  0  0  0
  200.8971  176.5045  157.1778 H   0  0  0  0  0  0  0  0  0  0  0  0
  199.2101  176.6204  156.6750 H   0  0  0  0  0  0  0  0  0  0  0  0
  200.0544  178.0379  157.3332 H   0  0  0  0  0  0  0  0  0  0  0  0
  198.3313  178.7918  156.1198 H   0  0  0  0  0  0  0  0  0  0  0  0
  196.0477  180.9720  154.1857 H   0  0  0  0  0  0  0  0  0  0  0  0
  195.9747  179.6234  155.3042 H   0  0  0  0  0  0  0  0  0  0  0  0
  197.8593  181.0074  156.5791 H   0  0  0  0  0  0  0  0  0  0  0  0
  197.4431  182.3134  155.4946 H   0  0  0  0  0  0  0  0  0  0  0  0
  197.1973  181.9321  158.5385 H   0  0  0  0  0  0  0  0  0  0  0  0
  198.3734  183.4723  156.6396 H   0  0  0  0  0  0  0  0  0  0  0  0
  198.8214  185.8448  156.0925 H   0  0  0  0  0  0  0  0  0  0  0  0
  195.5555  187.0543  158.6463 H   0  0  0  0  0  0  0  0  0  0  0  0
  195.0618  184.7490  159.1552 H   0  0  0  0  0  0  0  0  0  0  0  0
  198.0164  188.1128  156.0592 H   0  0  0  0  0  0  0  0  0  0  0  0
  196.6028  188.6219  156.9572 H   0  0  0  0  0  0  0  0  0  0  0  0
  198.4306  189.2653  160.0691 H   0  0  0  0  0  0  0  0  0  0  0  0
  197.5965  187.7648  159.7640 H   0  0  0  0  0  0  0  0  0  0  0  0
  196.8372  189.2921  159.2986 H   0  0  0  0  0  0  0  0  0  0  0  0
  199.4020  190.5067  158.3213 H   0  0  0  0  0  0  0  0  0  0  0  0
  197.8352  190.6307  157.5029 H   0  0  0  0  0  0  0  0  0  0  0  0
  199.2478  190.0088  156.6361 H   0  0  0  0  0  0  0  0  0  0  0  0
  195.4583  182.6728  160.1238 H   0  0  0  0  0  0  0  0  0  0  0  0
  195.0167  181.1479  159.3820 H   0  0  0  0  0  0  0  0  0  0  0  0
  194.2463  182.6267  158.8398 H   0  0  0  0  0  0  0  0  0  0  0  0
  201.9507  177.2588  153.3706 H   0  0  0  0  0  0  0  0  0  0  0  0
  202.6001  177.6051  151.0158 H   0  0  0  0  0  0  0  0  0  0  0  0
  201.1915  179.0062  149.5211 H   0  0  0  0  0  0  0  0  0  0  0  0
  199.1282  180.0612  150.3846 H   0  0  0  0  0  0  0  0  0  0  0  0
  195.5846  180.6698  151.0416 H   0  0  0  0  0  0  0  0  0  0  0  0
  195.5502  179.6853  152.4975 H   0  0  0  0  0  0  0  0  0  0  0  0
  196.3863  179.0965  151.0590 H   0  0  0  0  0  0  0  0  0  0  0  0
  195.5688  180.8660  157.1696 H   0  0  0  0  0  0  0  0  0  0  0  0
  1  2  1  0
  1 29  1  0
  2  3  1  0
  2  9  2  0
  3  4  1  0
  3 28  2  0
  4  5  1  0
  4 25  2  0
  5  6  1  0
  5  8  2  0
  6  7  1  0
  7 31  1  1
  7 32  1  0
  7 33  1  0
  8  9  1  0
  8 34  1  0
  9 10  1  0
 10 11  1  0
 10 35  1  6
 10 36  1  0
 11 12  1  0
 11 37  1  1
 11 38  1  0
 12 13  1  0
 12 30  1  6
 12 62  1  0
 13 14  1  0
 13 24  1  0
 13 39  1  1
 14 15  1  0
 14 19  2  0
 15 16  2  0
 15 40  1  0
 16 17  1  0
 16 41  1  0
 17 18  2  0
 17 20  1  0
 18 19  1  0
 18 42  1  0
 19 43  1  0
 20 21  1  0
 20 44  1  6
 20 45  1  0
 21 22  1  0
 21 23  1  0
 22 46  1  1
 22 47  1  0
 22 48  1  0
 23 49  1  1
 23 50  1  0
 23 51  1  0
 24 52  1  1
 24 53  1  0
 24 54  1  0
 25 26  1  0
 25 55  1  0
 26 27  2  0
 26 56  1  0
 27 28  1  0
 27 57  1  0
 28 58  1  0
 29 59  1  6
 29 60  1  0
 29 61  1  0
M  CHG  1  12   1
M  END
>  <s_epik_cmdline>  (1455) 
J2VwaWtfcHl0aG9uJywgJy1waCcsICc3LjAwMDAwMCcsICctcGh0JywgJzIuMDAwMDAwJywgJy1tcycsICcxNicsICctdG4nLCAnOCcsICctbWEnLCAnMjAwJywgJy1pbWFlJywgJzxpbmZpbGUubWFlPicsICctb21hZScsICc8b3V0ZmlsZS5tYWU+Jw==

>  <s_epik_input>  (1455) 
W2NIXTFbY0hdW2NIXVtjSF1jKGMxMiljKE9bQ0gzXSlbY0hdYyhjMk9bQ0gzXSlbQ0gyXVtDSDJdW05IXVtDQEhdKFtDSDNdKWMzW2NIXVtjSF1jKFtjSF1bY0hdMylbQ0gyXU4oW0NIM10pW0NIM10=

>  <s_i_glide_gridfile>  (1455) 
ATP-Grid

>  <s_lp_Force_Field>  (1455) 
OPLS_2005

>  <s_lp_Variant>  (1455) 
m_269862bba____21655320____10542750-3

>  <s_lp_label>  (1455) 
717_sdstereoexpander_1_neutralizer_1_epik_2_stereoizer_1

>  <s_m_source_file>  (1455) 
ATP-VSW-LIGPREP-001-in.maegz

>  <s_sd_BIOSOLVEIT.INFINISEE\_QUERY\_NAME>  (1455) 
Ref-Lig

>  <s_sd_BIOSOLVEIT.INFINISEE\_QUERY\_SMILES>  (1455) 
S(c1nc2c(cc1C[NH2+]Cc3ccc(cc3)C[NH+](C)C)cccc2)Cc4ccccc4

>  <s_sd_BIOSOLVEIT.INFINISEE\_REACTION\_NAME>  (1455) 
m_269862bba

>  <s_sd_BIOSOLVEIT.INFINISEE\_REAGENT1\_SMILES>  (1455) 
[R1*]NCCc1c(OC)c2c(c(OC)c1)cccc2

>  <s_sd_BIOSOLVEIT.INFINISEE\_REAGENT2\_SMILES>  (1455) 
[R1*]C(c1ccc(cc1)CN(C)C)C

>  <s_sd_BIOSOLVEIT.INFINISEE\_SPACE>  (1455) 
REALSpace_44bn_2023-08

>  <s_vsw_compound_code>  (1455) 
22913

>  <s_vsw_variant>  (1455) 
22913-3

>  <r_epik_Charging_Adjusted_Penalty>  (1455) 
1.5095790358586101

>  <r_epik_Ionization_Penalty>  (1455) 
1.4761

>  <r_epik_Ionization_Penalty_Charging>  (1455) 
0.019400000000000001

>  <r_epik_Ionization_Penalty_Neutral>  (1455) 
1.4567000000000001

>  <r_epik_State_Penalty>  (1455) 
1.4901

>  <r_i_docking_score>  (1455) 
-3.2482775022881798

>  <r_i_glide_ecoul>  (1455) 
-11.5546169281006

>  <r_i_glide_eff_state_penalty>  (1455) 
1.4901

>  <r_i_glide_einternal>  (1455) 
6.4812264442443803

>  <r_i_glide_emodel>  (1455) 
-54.910243718108397

>  <r_i_glide_energy>  (1455) 
-40.196111679077099

>  <r_i_glide_erotb>  (1455) 
0.75683757422795905

>  <r_i_glide_esite>  (1455) 
-0.10000000000000001

>  <r_i_glide_evdw>  (1455) 
-28.641494750976602

>  <r_i_glide_gscore>  (1455) 
-4.7383775022881798

>  <r_i_glide_hbond>  (1455) 
-0.40000000000000002

>  <r_i_glide_ligand_efficiency>  (1455) 
-0.11200956904442

>  <r_i_glide_ligand_efficiency_ln>  (1455) 
-0.74377317881354599

>  <r_i_glide_ligand_efficiency_sa>  (1455) 
-0.34412888322673102

>  <r_i_glide_lipo>  (1455) 
-0.87909589066131899

>  <r_i_glide_metal>  (1455) 
-0

>  <r_i_glide_rewards>  (1455) 
-0.950851909090907

>  <r_lp_Energy>  (1455) 
28.762329000000001

>  <r_qp_ACxDN^.5/SA>  (1455) 
0.0079515999999999996

>  <r_qp_CIQPlogS>  (1455) 
-4.0590000000000002

>  <r_qp_EA(eV)>  (1455) 
0.33600000000000002

>  <r_qp_FISA>  (1455) 
5.9729999999999999

>  <r_qp_FOSA>  (1455) 
429.42599999999999

>  <r_qp_IP(eV)>  (1455) 
7.9050000000000002

>  <r_qp_Jm>  (1455) 
0.24013881267783699

>  <r_qp_PISA>  (1455) 
193.40199999999999

>  <r_qp_PSA>  (1455) 
25.039999999999999

>  <r_qp_PercentHumanOralAbsorption>  (1455) 
100

>  <r_qp_QPPCaco>  (1455) 
540.82899999999995

>  <r_qp_QPPMDCK>  (1455) 
311.58699999999999

>  <r_qp_QPlogBB>  (1455) 
0.76800000000000002

>  <r_qp_QPlogHERG>  (1455) 
-5.6440000000000001

>  <r_qp_QPlogKhsa>  (1455) 
0.68799999999999994

>  <r_qp_QPlogKp>  (1455) 
-4.2089999999999996

>  <r_qp_QPlogPC16>  (1455) 
11.513

>  <r_qp_QPlogPo/w>  (1455) 
4.2009999999999996

>  <r_qp_QPlogPoct>  (1455) 
16.789000000000001

>  <r_qp_QPlogPw>  (1455) 
6.9930000000000003

>  <r_qp_QPlogS>  (1455) 
-2.004

>  <r_qp_QPpolrz>  (1455) 
39.951000000000001

>  <r_qp_SASA>  (1455) 
628.80100000000004

>  <r_qp_SAamideO>  (1455) 
0

>  <r_qp_SAfluorine>  (1455) 
0

>  <r_qp_WPSA>  (1455) 
0

>  <r_qp_accptHB>  (1455) 
5

>  <r_qp_dip^2/V>  (1455) 
0.003081

>  <r_qp_dipole>  (1455) 
1.9630000000000001

>  <r_qp_donorHB>  (1455) 
1

>  <r_qp_glob>  (1455) 
0.89261230000000003

>  <r_qp_mol_MW>  (1455) 
392.54000000000002

>  <r_qp_volume>  (1455) 
1250.308

>  <r_sd_BIOSOLVEIT.INFINISEE\_FTREES\_SIMILARITY>  (1455) 
0.92900000000000005

>  <r_sd_BIOSOLVEIT.LOGP>  (1455) 
2.3685999999999998

>  <r_sd_BIOSOLVEIT.MOLECULAR\_WEIGHT>  (1455) 
394.55599999999998

>  <r_sd_BIOSOLVEIT.TPSA>  (1455) 
39.509999999999998

>  <i_epik_Tot_Q>  (1455) 
1

>  <i_epik_Tot_abs_Q>  (1455) 
1

>  <i_f3d_flags>  (1455) 
0

>  <i_i_glide_confnum>  (1455) 
6

>  <i_i_glide_lignum>  (1455) 
103

>  <i_i_glide_posenum>  (1455) 
3

>  <i_i_glide_rotatable_bonds>  (1455) 
9

>  <i_lp_mmshare_version>  (1455) 
65135

>  <i_m_ct_format>  (1455) 
2

>  <i_m_source_file_index>  (1455) 
717

>  <i_qp_#NandO>  (1455) 
4

>  <i_qp_#acid>  (1455) 
0

>  <i_qp_#amide>  (1455) 
0

>  <i_qp_#amidine>  (1455) 
0

>  <i_qp_#amine>  (1455) 
2

>  <i_qp_#in34>  (1455) 
0

>  <i_qp_#in56>  (1455) 
16

>  <i_qp_#metab>  (1455) 
8

>  <i_qp_#nonHatm>  (1455) 
29

>  <i_qp_#noncon>  (1455) 
0

>  <i_qp_#ringatoms>  (1455) 
16

>  <i_qp_#rotor>  (1455) 
9

>  <i_qp_#rtvFG>  (1455) 
0

>  <i_qp_#stars>  (1455) 
1

>  <i_qp_CNS>  (1455) 
2

>  <i_qp_HumanOralAbsorption>  (1455) 
3

>  <i_qp_RuleOfFive>  (1455) 
0

>  <i_qp_RuleOfThree>  (1455) 
1

>  <i_sd_BIOSOLVEIT.INFINISEE\_REAGENT1\_NAME>  (1455) 
21655320

>  <i_sd_BIOSOLVEIT.INFINISEE\_REAGENT2\_NAME>  (1455) 
10542750

>  <i_sd_BIOSOLVEIT.INFINISEE\_RESULT\_RANK>  (1455) 
5565

>  <i_sd_version>  (1455) 
0

>  <b_lp_Chiralities_Consistent>  (1455) 
1

>  <b_sd_chiral_flag>  (1455) 
0

>  <canonical_id>  (1455) 
ATP-HTVS-E4024F0AB59A

>  <compound_code>  (1455) 
22913

>  <title>  (1455) 
m_269862bba____21655320____10542750

>  <variant>  (1455) 
22913-3

>  <source_file>  (1455) 
运行/运行/ATP-VSW/ATP-VSW-DOCK_HTVS_1-001_lib/ATP-VSW-DOCK_HTVS_1-001_lib

>  <canonical_smiles>  (1455) 
COc1cc(CC[NH2+][C@H](C)c2ccc(CN(C)C)cc2)c(OC)c2ccccc12

>  <scaffold>  (1455) 
c1ccc(C[NH2+]CCc2ccc3ccccc3c2)cc1

>  <molecular_formula>  (1455) 
C25H33N2O2+

$$$$
ATP-HTVS-E41D62FB159D
     RDKit          3D

 69 72  0  0  0  0  0  0  0  0999 V2000
  200.0619  189.1358  152.6546 O   0  0  0  0  0  0  0  0  0  0  0  0
  199.6031  188.0379  153.4076 C   0  0  1  0  0  0  0  0  0  0  0  0
  199.7993  186.7653  152.5843 C   0  0  1  0  0  0  0  0  0  0  0  0
  199.2690  185.5500  153.3111 C   0  0  0  0  0  0  0  0  0  0  0  0
  200.1525  184.6446  153.9294 C   0  0  0  0  0  0  0  0  0  0  0  0
  199.6281  183.5058  154.5707 C   0  0  0  0  0  0  0  0  0  0  0  0
  198.2249  183.2936  154.6255 C   0  0  0  0  0  0  0  0  0  0  0  0
  197.3574  184.2013  154.0265 C   0  0  0  0  0  0  0  0  0  0  0  0
  197.8694  185.3321  153.3508 C   0  0  0  0  0  0  0  0  0  0  0  0
  197.6836  182.1032  155.4078 C   0  0  1  0  0  0  0  0  0  0  0  0
  196.8253  182.4692  156.5503 N   0  0  0  0  0  0  0  0  0  0  0  0
  197.2012  183.3963  157.5432 C   0  0  0  0  0  0  0  0  0  0  0  0
  198.4890  183.8318  157.6196 N   0  0  0  0  0  0  0  0  0  0  0  0
  198.8149  184.8428  158.4283 C   0  0  0  0  0  0  0  0  0  0  0  0
  197.9273  185.4438  159.2421 N   0  0  0  0  0  0  0  0  0  0  0  0
  196.6541  184.9971  159.2632 C   0  0  0  0  0  0  0  0  0  0  0  0
  196.2436  183.9463  158.4213 C   0  0  0  0  0  0  0  0  0  0  0  0
  194.8982  183.5069  158.4432 C   0  0  0  0  0  0  0  0  0  0  0  0
  193.9769  184.1364  159.3161 C   0  0  0  0  0  0  0  0  0  0  0  0
  194.3933  185.1837  160.1263 C   0  0  0  0  0  0  0  0  0  0  0  0
  195.7321  185.6325  160.1268 C   0  0  0  0  0  0  0  0  0  0  0  0
  200.1070  185.3683  158.4062 N   0  0  0  0  0  0  0  0  0  0  0  0
  201.2411  184.7503  157.7272 C   0  0  1  0  0  0  0  0  0  0  0  0
  201.7884  183.4994  158.4064 C   0  0  0  0  0  0  0  0  0  0  0  0
  201.8461  182.2826  157.7021 C   0  0  0  0  0  0  0  0  0  0  0  0
  202.2207  181.0819  158.3479 C   0  0  0  0  0  0  0  0  0  0  0  0
  202.6925  181.1450  159.6837 C   0  0  0  0  0  0  0  0  0  0  0  0
  202.7062  182.3764  160.3730 C   0  0  0  0  0  0  0  0  0  0  0  0
  202.2389  183.5567  159.7502 C   0  0  0  0  0  0  0  0  0  0  0  0
  202.1335  179.7480  157.6144 C   0  0  1  0  0  0  0  0  0  0  0  0
  200.7642  179.1386  157.5394 N   0  0  2  0  0  0  0  0  0  0  0  0
  200.7339  177.6894  157.2052 C   0  0  1  0  0  0  0  0  0  0  0  0
  201.3053  177.3836  155.8010 C   0  0  2  0  0  0  0  0  0  0  0  0
  199.8218  179.8811  156.7110 C   0  0  2  0  0  0  0  0  0  0  0  0
  199.9943  189.9140  153.1847 H   0  0  0  0  0  0  0  0  0  0  0  0
  200.1555  187.9693  154.3456 H   0  0  0  0  0  0  0  0  0  0  0  0
  198.5509  188.1821  153.6569 H   0  0  0  0  0  0  0  0  0  0  0  0
  199.2592  186.8207  151.6401 H   0  0  0  0  0  0  0  0  0  0  0  0
  200.8525  186.6079  152.3474 H   0  0  0  0  0  0  0  0  0  0  0  0
  201.2278  184.8147  153.9323 H   0  0  0  0  0  0  0  0  0  0  0  0
  200.3012  182.8079  155.0281 H   0  0  0  0  0  0  0  0  0  0  0  0
  196.2973  184.0190  154.0901 H   0  0  0  0  0  0  0  0  0  0  0  0
  197.1683  186.0174  152.8926 H   0  0  0  0  0  0  0  0  0  0  0  0
  197.0671  181.4776  154.7133 H   0  0  0  0  0  0  0  0  0  0  0  0
  198.5628  181.6200  155.7380 H   0  0  0  0  0  0  0  0  0  0  0  0
  195.8518  182.1593  156.5754 H   0  0  0  0  0  0  0  0  0  0  0  0
  194.5363  182.7373  157.7854 H   0  0  0  0  0  0  0  0  0  0  0  0
  192.9407  183.8194  159.3090 H   0  0  0  0  0  0  0  0  0  0  0  0
  193.6750  185.6697  160.7816 H   0  0  0  0  0  0  0  0  0  0  0  0
  196.0367  186.4456  160.7635 H   0  0  0  0  0  0  0  0  0  0  0  0
  200.3072  186.1174  159.0475 H   0  0  0  0  0  0  0  0  0  0  0  0
  200.9527  184.5240  156.7000 H   0  0  0  0  0  0  0  0  0  0  0  0
  202.0458  185.4805  157.6513 H   0  0  0  0  0  0  0  0  0  0  0  0
  201.5652  182.2602  156.6562 H   0  0  0  0  0  0  0  0  0  0  0  0
  203.0167  180.2404  160.1888 H   0  0  0  0  0  0  0  0  0  0  0  0
  203.0697  182.4167  161.3936 H   0  0  0  0  0  0  0  0  0  0  0  0
  202.2397  184.4960  160.2895 H   0  0  0  0  0  0  0  0  0  0  0  0
  202.5660  179.8770  156.6221 H   0  0  0  0  0  0  0  0  0  0  0  0
  202.7570  179.0603  158.1700 H   0  0  0  0  0  0  0  0  0  0  0  0
  201.2372  177.1169  157.9964 H   0  0  0  0  0  0  0  0  0  0  0  0
  199.6881  177.3720  157.2255 H   0  0  0  0  0  0  0  0  0  0  0  0
  201.3020  176.3122  155.6017 H   0  0  0  0  0  0  0  0  0  0  0  0
  202.3344  177.7304  155.6932 H   0  0  0  0  0  0  0  0  0  0  0  0
  200.7223  177.8552  155.0033 H   0  0  0  0  0  0  0  0  0  0  0  0
  200.1944  179.9903  155.6828 H   0  0  0  0  0  0  0  0  0  0  0  0
  199.7050  180.8752  157.1663 H   0  0  0  0  0  0  0  0  0  0  0  0
  198.8137  179.4321  156.7234 H   0  0  0  0  0  0  0  0  0  0  0  0
  198.1790  186.2376  159.8278 H   0  0  0  0  0  0  0  0  0  0  0  0
  200.3673  179.1873  158.4688 H   0  0  0  0  0  0  0  0  0  0  0  0
  1  2  1  0
  1 35  1  0
  2  3  1  0
  2 36  1  1
  2 37  1  0
  3  4  1  0
  3 38  1  6
  3 39  1  0
  4  5  1  0
  4  9  2  0
  5  6  2  0
  5 40  1  0
  6  7  1  0
  6 41  1  0
  7  8  2  0
  7 10  1  0
  8  9  1  0
  8 42  1  0
  9 43  1  0
 10 11  1  0
 10 44  1  6
 10 45  1  0
 11 12  1  0
 11 46  1  0
 12 13  2  0
 12 17  1  0
 13 14  1  0
 14 15  2  0
 14 22  1  0
 15 16  1  0
 15 68  1  0
 16 17  1  0
 16 21  2  0
 17 18  2  0
 18 19  1  0
 18 47  1  0
 19 20  2  0
 19 48  1  0
 20 21  1  0
 20 49  1  0
 21 50  1  0
 22 23  1  0
 22 51  1  0
 23 24  1  0
 23 52  1  6
 23 53  1  0
 24 25  2  0
 24 29  1  0
 25 26  1  0
 25 54  1  0
 26 27  2  0
 26 30  1  0
 27 28  1  0
 27 55  1  0
 28 29  2  0
 28 56  1  0
 29 57  1  0
 30 31  1  0
 30 58  1  6
 30 59  1  0
 31 32  1  0
 31 34  1  0
 31 69  1  1
 32 33  1  0
 32 60  1  1
 32 61  1  0
 33 62  1  6
 33 63  1  0
 33 64  1  0
 34 65  1  6
 34 66  1  0
 34 67  1  0
M  CHG  2  15   1  31   1
M  END
>  <s_epik_cmdline>  (1456) 
J2VwaWtfcHl0aG9uJywgJy1waCcsICc3LjAwMDAwMCcsICctcGh0JywgJzIuMDAwMDAwJywgJy1tcycsICcxNicsICctdG4nLCAnOCcsICctbWEnLCAnMjAwJywgJy1pbWFlJywgJzxpbmZpbGUubWFlPicsICctb21hZScsICc8b3V0ZmlsZS5tYWU+Jw==

>  <s_epik_input>  (1456) 
W09IXVtDSDJdW0NIMl1jMVtjSF1bY0hdYyhbY0hdW2NIXTEpW0NIMl1bTkhdYyhjKGMyMylbY0hdW2NIXVtjSF1bY0hdMyluYyhuMilbTkhdW0NIMl1jNFtjSF1jKFtjSF1bY0hdW2NIXTQpW0NIMl1OKFtDSDNdKVtDSDJdW0NIM10=

>  <s_i_glide_gridfile>  (1456) 
ATP-Grid

>  <s_lp_Force_Field>  (1456) 
OPLS_2005

>  <s_lp_Variant>  (1456) 
m_282030aaa____21930070____22360182____21958260-2

>  <s_lp_label>  (1456) 
2111_sdstereoexpander_1_neutralizer_1_epik_1_stereoizer_2

>  <s_m_source_file>  (1456) 
ATP-VSW-LIGPREP-001-in.maegz

>  <s_sd_BIOSOLVEIT.INFINISEE\_QUERY\_NAME>  (1456) 
Ref-Lig

>  <s_sd_BIOSOLVEIT.INFINISEE\_QUERY\_SMILES>  (1456) 
S(c1nc2c(cc1C[NH2+]Cc3ccc(cc3)C[NH+](C)C)cccc2)Cc4ccccc4

>  <s_sd_BIOSOLVEIT.INFINISEE\_REACTION\_NAME>  (1456) 
m_282030aaa

>  <s_sd_BIOSOLVEIT.INFINISEE\_REAGENT1\_SMILES>  (1456) 
[R1*]NCc1cc(ccc1)CN(CC)C

>  <s_sd_BIOSOLVEIT.INFINISEE\_REAGENT2\_SMILES>  (1456) 
[R2*]c1nc([R1*])c2c(n1)cccc2

>  <s_sd_BIOSOLVEIT.INFINISEE\_REAGENT3\_SMILES>  (1456) 
[R2*]NCc1ccc(cc1)CCO

>  <s_sd_BIOSOLVEIT.INFINISEE\_SPACE>  (1456) 
REALSpace_44bn_2023-08

>  <s_vsw_compound_code>  (1456) 
67521

>  <s_vsw_variant>  (1456) 
67521-2

>  <r_epik_Charging_Adjusted_Penalty>  (1456) 
0.096911179285179602

>  <r_epik_Ionization_Penalty>  (1456) 
0.044900000000000002

>  <r_epik_Ionization_Penalty_Charging>  (1456) 
0.044900000000000002

>  <r_epik_Ionization_Penalty_Neutral>  (1456) 
0

>  <r_epik_State_Penalty>  (1456) 
0.051999999999999998

>  <r_i_docking_score>  (1456) 
-3.6882327088320399

>  <r_i_glide_ecoul>  (1456) 
-8.5942687988281197

>  <r_i_glide_eff_state_penalty>  (1456) 
0.051999999999999998

>  <r_i_glide_einternal>  (1456) 
2.64772605895996

>  <r_i_glide_emodel>  (1456) 
-52.935051804755297

>  <r_i_glide_energy>  (1456) 
-39.426996231079102

>  <r_i_glide_erotb>  (1456) 
0.96015054588139703

>  <r_i_glide_esite>  (1456) 
-0.052600469914239098

>  <r_i_glide_evdw>  (1456) 
-30.832727432251001

>  <r_i_glide_gscore>  (1456) 
-3.74023270883204

>  <r_i_glide_hbond>  (1456) 
0

>  <r_i_glide_ligand_efficiency>  (1456) 
-0.10847743261270699

>  <r_i_glide_ligand_efficiency_ln>  (1456) 
-0.81483405680434595

>  <r_i_glide_ligand_efficiency_sa>  (1456) 
-0.35142477045132497

>  <r_i_glide_lipo>  (1456) 
-1.24388897740634

>  <r_i_glide_metal>  (1456) 
-0

>  <r_i_glide_rewards>  (1456) 
-0.57311711595608195

>  <r_lp_Energy>  (1456) 
16.887706000000001

>  <r_qp_ACxDN^.5/SA>  (1456) 
0.014703900000000001

>  <r_qp_CIQPlogS>  (1456) 
-5.9180000000000001

>  <r_qp_EA(eV)>  (1456) 
0.66700000000000004

>  <r_qp_FISA>  (1456) 
93.834999999999994

>  <r_qp_FOSA>  (1456) 
314.90199999999999

>  <r_qp_IP(eV)>  (1456) 
8.0960000000000001

>  <r_qp_Jm>  (1456) 
0.012097914504588801

>  <r_qp_PISA>  (1456) 
380.49200000000002

>  <r_qp_PSA>  (1456) 
67.334000000000003

>  <r_qp_PercentHumanOralAbsorption>  (1456) 
100

>  <r_qp_QPPCaco>  (1456) 
318.39400000000001

>  <r_qp_QPPMDCK>  (1456) 
158.852

>  <r_qp_QPlogBB>  (1456) 
-0.74199999999999999

>  <r_qp_QPlogHERG>  (1456) 
-7.3319999999999999

>  <r_qp_QPlogKhsa>  (1456) 
0.71799999999999997

>  <r_qp_QPlogKp>  (1456) 
-2.819

>  <r_qp_QPlogPC16>  (1456) 
16.093

>  <r_qp_QPlogPo/w>  (1456) 
4.7599999999999998

>  <r_qp_QPlogPoct>  (1456) 
24.227

>  <r_qp_QPlogPw>  (1456) 
13.191000000000001

>  <r_qp_QPlogS>  (1456) 
-4.7569999999999997

>  <r_qp_QPpolrz>  (1456) 
49.314

>  <r_qp_SASA>  (1456) 
789.22900000000004

>  <r_qp_SAamideO>  (1456) 
0

>  <r_qp_SAfluorine>  (1456) 
0

>  <r_qp_WPSA>  (1456) 
0

>  <r_qp_accptHB>  (1456) 
6.7000000000000002

>  <r_qp_dip^2/V>  (1456) 
0.0015338999999999999

>  <r_qp_dipole>  (1456) 
1.5109999999999999

>  <r_qp_donorHB>  (1456) 
3

>  <r_qp_glob>  (1456) 
0.79857500000000003

>  <r_qp_mol_MW>  (1456) 
455.60199999999998

>  <r_qp_volume>  (1456) 
1487.7529999999999

>  <r_sd_BIOSOLVEIT.INFINISEE\_FTREES\_SIMILARITY>  (1456) 
0.90100000000000002

>  <r_sd_BIOSOLVEIT.LOGP>  (1456) 
3.4234

>  <r_sd_BIOSOLVEIT.MOLECULAR\_WEIGHT>  (1456) 
456.61099999999999

>  <r_sd_BIOSOLVEIT.TPSA>  (1456) 
74.510000000000005

>  <i_epik_Tot_Q>  (1456) 
2

>  <i_epik_Tot_abs_Q>  (1456) 
2

>  <i_f3d_flags>  (1456) 
0

>  <i_i_glide_confnum>  (1456) 
14

>  <i_i_glide_lignum>  (1456) 
660

>  <i_i_glide_posenum>  (1456) 
2

>  <i_i_glide_rotatable_bonds>  (1456) 
12

>  <i_lp_mmshare_version>  (1456) 
65135

>  <i_m_ct_format>  (1456) 
2

>  <i_m_source_file_index>  (1456) 
2111

>  <i_qp_#NandO>  (1456) 
6

>  <i_qp_#acid>  (1456) 
0

>  <i_qp_#amide>  (1456) 
0

>  <i_qp_#amidine>  (1456) 
0

>  <i_qp_#amine>  (1456) 
1

>  <i_qp_#in34>  (1456) 
0

>  <i_qp_#in56>  (1456) 
22

>  <i_qp_#metab>  (1456) 
6

>  <i_qp_#nonHatm>  (1456) 
34

>  <i_qp_#noncon>  (1456) 
0

>  <i_qp_#ringatoms>  (1456) 
22

>  <i_qp_#rotor>  (1456) 
12

>  <i_qp_#rtvFG>  (1456) 
0

>  <i_qp_#stars>  (1456) 
0

>  <i_qp_CNS>  (1456) 
-1

>  <i_qp_HumanOralAbsorption>  (1456) 
3

>  <i_qp_RuleOfFive>  (1456) 
0

>  <i_qp_RuleOfThree>  (1456) 
0

>  <i_sd_BIOSOLVEIT.INFINISEE\_REAGENT1\_NAME>  (1456) 
21930070

>  <i_sd_BIOSOLVEIT.INFINISEE\_REAGENT2\_NAME>  (1456) 
22360182

>  <i_sd_BIOSOLVEIT.INFINISEE\_REAGENT3\_NAME>  (1456) 
21958260

>  <i_sd_BIOSOLVEIT.INFINISEE\_RESULT\_RANK>  (1456) 
97915

>  <i_sd_version>  (1456) 
0

>  <b_lp_Chiralities_Consistent>  (1456) 
1

>  <b_sd_chiral_flag>  (1456) 
0

>  <canonical_id>  (1456) 
ATP-HTVS-E41D62FB159D

>  <compound_code>  (1456) 
67521

>  <title>  (1456) 
m_282030aaa____21930070____22360182____21958260

>  <variant>  (1456) 
67521-2

>  <source_file>  (1456) 
运行/运行/ATP-VSW/ATP-VSW-DOCK_HTVS_1-001_lib/ATP-VSW-DOCK_HTVS_1-001_lib

>  <canonical_smiles>  (1456) 
CC[N@H+](C)Cc1cccc(CNc2nc(NCc3ccc(CCO)cc3)c3ccccc3[nH+]2)c1

>  <scaffold>  (1456) 
c1ccc(CNc2nc(NCc3ccccc3)c3ccccc3[nH+]2)cc1

>  <molecular_formula>  (1456) 
C28H35N5O+2

$$$$
ATP-HTVS-E4A79D64766C
     RDKit          3D

 63 66  0  0  0  0  0  0  0  0999 V2000
  193.5538  185.5031  160.9133 F   0  0  0  0  0  0  0  0  0  0  0  0
  194.7440  185.7236  160.3035 C   0  0  0  0  0  0  0  0  0  0  0  0
  195.1495  184.9198  159.2131 C   0  0  0  0  0  0  0  0  0  0  0  0
  196.3482  185.2298  158.5276 C   0  0  0  0  0  0  0  0  0  0  0  0
  197.1693  186.3072  158.9957 C   0  0  0  0  0  0  0  0  0  0  0  0
  196.7600  187.0763  160.1009 C   0  0  0  0  0  0  0  0  0  0  0  0
  195.5468  186.7937  160.7451 C   0  0  0  0  0  0  0  0  0  0  0  0
  198.4781  186.5945  158.2877 C   0  0  1  0  0  0  0  0  0  0  0  0
  199.6264  185.9057  158.8691 N   0  0  0  0  0  0  0  0  0  0  0  0
  200.0409  184.6360  158.5278 C   0  0  0  0  0  0  0  0  0  0  0  0
  199.4564  183.9956  157.5069 N   0  0  0  0  0  0  0  0  0  0  0  0
  199.8757  182.7642  157.1426 C   0  0  0  0  0  0  0  0  0  0  0  0
  199.2450  182.1373  156.0618 N   0  0  0  0  0  0  0  0  0  0  0  0
  198.2239  182.8365  155.2953 C   0  0  1  0  0  0  0  0  0  0  0  0
  197.6691  182.0803  154.1005 C   0  0  0  0  0  0  0  0  0  0  0  0
  197.3377  182.8166  152.9438 C   0  0  0  0  0  0  0  0  0  0  0  0
  196.8109  182.1747  151.8073 C   0  0  0  0  0  0  0  0  0  0  0  0
  196.5991  180.7813  151.8327 C   0  0  0  0  0  0  0  0  0  0  0  0
  196.9172  180.0389  152.9879 C   0  0  0  0  0  0  0  0  0  0  0  0
  197.4475  180.6840  154.1226 C   0  0  0  0  0  0  0  0  0  0  0  0
  196.4605  182.9863  150.5724 C   0  0  1  0  0  0  0  0  0  0  0  0
  197.3610  184.0467  150.3208 O   0  0  0  0  0  0  0  0  0  0  0  0
  200.9194  182.1258  157.8529 C   0  0  0  0  0  0  0  0  0  0  0  0
  201.4918  182.8495  158.9295 C   0  0  0  0  0  0  0  0  0  0  0  0
  201.0436  184.0875  159.2350 N   0  0  0  0  0  0  0  0  0  0  0  0
  202.5232  182.2752  159.6978 C   0  0  0  0  0  0  0  0  0  0  0  0
  202.9805  180.9795  159.4004 C   0  0  0  0  0  0  0  0  0  0  0  0
  202.4077  180.2531  158.3370 C   0  0  0  0  0  0  0  0  0  0  0  0
  201.3810  180.8286  157.5598 C   0  0  0  0  0  0  0  0  0  0  0  0
  194.2841  183.7546  158.7365 C   0  0  1  0  0  0  0  0  0  0  0  0
  194.8645  182.4087  158.9944 N   0  0  1  0  0  0  0  0  0  0  0  0
  193.9072  181.3379  158.6576 C   0  0  2  0  0  0  0  0  0  0  0  0
  196.1640  182.1577  158.3447 C   0  0  2  0  0  0  0  0  0  0  0  0
  196.6464  184.6759  157.6692 H   0  0  0  0  0  0  0  0  0  0  0  0
  197.3713  187.9000  160.4526 H   0  0  0  0  0  0  0  0  0  0  0  0
  195.2096  187.4054  161.5722 H   0  0  0  0  0  0  0  0  0  0  0  0
  198.3790  186.3362  157.2337 H   0  0  0  0  0  0  0  0  0  0  0  0
  198.6618  187.6716  158.3189 H   0  0  0  0  0  0  0  0  0  0  0  0
  200.0860  186.3484  159.6511 H   0  0  0  0  0  0  0  0  0  0  0  0
  199.6396  181.2942  155.6682 H   0  0  0  0  0  0  0  0  0  0  0  0
  197.3807  183.0794  155.9460 H   0  0  0  0  0  0  0  0  0  0  0  0
  198.6252  183.7935  154.9563 H   0  0  0  0  0  0  0  0  0  0  0  0
  197.4872  183.8833  152.9353 H   0  0  0  0  0  0  0  0  0  0  0  0
  196.1911  180.2761  150.9670 H   0  0  0  0  0  0  0  0  0  0  0  0
  196.7513  178.9705  152.9967 H   0  0  0  0  0  0  0  0  0  0  0  0
  197.6721  180.1034  155.0073 H   0  0  0  0  0  0  0  0  0  0  0  0
  196.4528  182.3285  149.7027 H   0  0  0  0  0  0  0  0  0  0  0  0
  195.4568  183.3915  150.6904 H   0  0  0  0  0  0  0  0  0  0  0  0
  197.1047  184.4845  149.5159 H   0  0  0  0  0  0  0  0  0  0  0  0
  202.9641  182.8162  160.5228 H   0  0  0  0  0  0  0  0  0  0  0  0
  203.7673  180.5292  159.9908 H   0  0  0  0  0  0  0  0  0  0  0  0
  202.7499  179.2509  158.1245 H   0  0  0  0  0  0  0  0  0  0  0  0
  200.9493  180.2402  156.7624 H   0  0  0  0  0  0  0  0  0  0  0  0
  193.3072  183.8153  159.2223 H   0  0  0  0  0  0  0  0  0  0  0  0
  194.0627  183.8569  157.6752 H   0  0  0  0  0  0  0  0  0  0  0  0
  193.6801  181.3116  157.5887 H   0  0  0  0  0  0  0  0  0  0  0  0
  192.9690  181.4367  159.1983 H   0  0  0  0  0  0  0  0  0  0  0  0
  194.3443  180.3795  158.9373 H   0  0  0  0  0  0  0  0  0  0  0  0
  196.0393  182.2603  157.2681 H   0  0  0  0  0  0  0  0  0  0  0  0
  196.5205  181.1326  158.5311 H   0  0  0  0  0  0  0  0  0  0  0  0
  196.9313  182.8676  158.6759 H   0  0  0  0  0  0  0  0  0  0  0  0
  201.4812  184.5848  160.0043 H   0  0  0  0  0  0  0  0  0  0  0  0
  195.0269  182.3510  159.9870 H   0  0  0  0  0  0  0  0  0  0  0  0
  1  2  1  0
  2  3  2  0
  2  7  1  0
  3  4  1  0
  3 30  1  0
  4  5  2  0
  4 34  1  0
  5  6  1  0
  5  8  1  0
  6  7  2  0
  6 35  1  0
  7 36  1  0
  8  9  1  0
  8 37  1  6
  8 38  1  0
  9 10  1  0
  9 39  1  0
 10 11  1  0
 10 25  2  0
 11 12  2  0
 12 13  1  0
 12 23  1  0
 13 14  1  0
 13 40  1  0
 14 15  1  0
 14 41  1  1
 14 42  1  0
 15 16  1  0
 15 20  2  0
 16 17  2  0
 16 43  1  0
 17 18  1  0
 17 21  1  0
 18 19  2  0
 18 44  1  0
 19 20  1  0
 19 45  1  0
 20 46  1  0
 21 22  1  0
 21 47  1  6
 21 48  1  0
 22 49  1  0
 23 24  1  0
 23 29  2  0
 24 25  1  0
 24 26  2  0
 25 62  1  0
 26 27  1  0
 26 50  1  0
 27 28  2  0
 27 51  1  0
 28 29  1  0
 28 52  1  0
 29 53  1  0
 30 31  1  0
 30 54  1  1
 30 55  1  0
 31 32  1  0
 31 33  1  0
 31 63  1  1
 32 56  1  6
 32 57  1  0
 32 58  1  0
 33 59  1  6
 33 60  1  0
 33 61  1  0
M  CHG  2  25   1  31   1
M  END
>  <s_epik_cmdline>  (1457) 
J2VwaWtfcHl0aG9uJywgJy1waCcsICc3LjAwMDAwMCcsICctcGh0JywgJzIuMDAwMDAwJywgJy1tcycsICcxNicsICctdG4nLCAnOCcsICctbWEnLCAnMjAwJywgJy1pbWFlJywgJzxpbmZpbGUubWFlPicsICctb21hZScsICc8b3V0ZmlsZS5tYWU+Jw==

>  <s_epik_input>  (1457) 
W0NIM11OKFtDSDNdKVtDSDJdYyhjMUYpW2NIXWMoW2NIXVtjSF0xKVtDSDJdW05IXWMobmMoYzIzKVtjSF1bY0hdW2NIXVtjSF0zKW5jMltOSF1bQ0gyXWM0W2NIXWMoW0NIMl1bT0hdKVtjSF1bY0hdW2NIXTQ=

>  <s_i_glide_gridfile>  (1457) 
ATP-Grid

>  <s_lp_Force_Field>  (1457) 
OPLS_2005

>  <s_lp_Variant>  (1457) 
m_282030aaa____21922106____22360182____21968946-1

>  <s_lp_label>  (1457) 
1653_sdstereoexpander_1_neutralizer_1_epik_1_stereoizer_1

>  <s_m_source_file>  (1457) 
ATP-VSW-LIGPREP-001-in.maegz

>  <s_sd_BIOSOLVEIT.INFINISEE\_QUERY\_NAME>  (1457) 
Ref-Lig

>  <s_sd_BIOSOLVEIT.INFINISEE\_QUERY\_SMILES>  (1457) 
S(c1nc2c(cc1C[NH2+]Cc3ccc(cc3)C[NH+](C)C)cccc2)Cc4ccccc4

>  <s_sd_BIOSOLVEIT.INFINISEE\_REACTION\_NAME>  (1457) 
m_282030aaa

>  <s_sd_BIOSOLVEIT.INFINISEE\_REAGENT1\_SMILES>  (1457) 
[R1*]NCc1cc(ccc1)CO

>  <s_sd_BIOSOLVEIT.INFINISEE\_REAGENT2\_SMILES>  (1457) 
[R2*]c1nc([R1*])c2c(n1)cccc2

>  <s_sd_BIOSOLVEIT.INFINISEE\_REAGENT3\_SMILES>  (1457) 
[R2*]NCc1cc(c(F)cc1)CN(C)C

>  <s_sd_BIOSOLVEIT.INFINISEE\_SPACE>  (1457) 
REALSpace_44bn_2023-08

>  <s_vsw_compound_code>  (1457) 
52865

>  <s_vsw_variant>  (1457) 
52865-1

>  <r_epik_Charging_Adjusted_Penalty>  (1457) 
0.14452346793224499

>  <r_epik_Ionization_Penalty>  (1457) 
0.0683

>  <r_epik_Ionization_Penalty_Charging>  (1457) 
0.0683

>  <r_epik_Ionization_Penalty_Neutral>  (1457) 
0

>  <r_epik_State_Penalty>  (1457) 
0.076200000000000004

>  <r_i_docking_score>  (1457) 
-4.4691980404195499

>  <r_i_glide_ecoul>  (1457) 
-7.1886768341064498

>  <r_i_glide_eff_state_penalty>  (1457) 
0.076200000000000004

>  <r_i_glide_einternal>  (1457) 
3.2386236190795898

>  <r_i_glide_emodel>  (1457) 
-56.707496533914501

>  <r_i_glide_energy>  (1457) 
-39.658651351928697

>  <r_i_glide_erotb>  (1457) 
0.79982463678156301

>  <r_i_glide_esite>  (1457) 
-0.087286156615809296

>  <r_i_glide_evdw>  (1457) 
-32.469974517822301

>  <r_i_glide_gscore>  (1457) 
-4.54539804041955

>  <r_i_glide_hbond>  (1457) 
0

>  <r_i_glide_ligand_efficiency>  (1457) 
-0.13543024364907699

>  <r_i_glide_ligand_efficiency_ln>  (1457) 
-0.99392650392029602

>  <r_i_glide_ligand_efficiency_sa>  (1457) 
-0.43439715531782402

>  <r_i_glide_lipo>  (1457) 
-1.9210782210692801

>  <r_i_glide_metal>  (1457) 
-0

>  <r_i_glide_rewards>  (1457) 
-0.63505804850894998

>  <r_lp_Energy>  (1457) 
16.962553

>  <r_qp_ACxDN^.5/SA>  (1457) 
0.015923799999999998

>  <r_qp_CIQPlogS>  (1457) 
-5.718

>  <r_qp_EA(eV)>  (1457) 
0.63400000000000001

>  <r_qp_FISA>  (1457) 
80.954999999999998

>  <r_qp_FOSA>  (1457) 
232.72900000000001

>  <r_qp_IP(eV)>  (1457) 
8.0820000000000007

>  <r_qp_Jm>  (1457) 
0.0468715033710385

>  <r_qp_PISA>  (1457) 
381.14400000000001

>  <r_qp_PSA>  (1457) 
68.724000000000004

>  <r_qp_PercentHumanOralAbsorption>  (1457) 
100

>  <r_qp_QPPCaco>  (1457) 
421.80099999999999

>  <r_qp_QPPMDCK>  (1457) 
330.32799999999997

>  <r_qp_QPlogBB>  (1457) 
-0.34200000000000003

>  <r_qp_QPlogHERG>  (1457) 
-6.8390000000000004

>  <r_qp_QPlogKhsa>  (1457) 
0.59299999999999997

>  <r_qp_QPlogKp>  (1457) 
-2.7709999999999999

>  <r_qp_QPlogPC16>  (1457) 
14.867000000000001

>  <r_qp_QPlogPo/w>  (1457) 
4.4409999999999998

>  <r_qp_QPlogPoct>  (1457) 
23.975000000000001

>  <r_qp_QPlogPw>  (1457) 
13.414999999999999

>  <r_qp_QPlogS>  (1457) 
-4.2069999999999999

>  <r_qp_QPpolrz>  (1457) 
46.969000000000001

>  <r_qp_SASA>  (1457) 
728.76900000000001

>  <r_qp_SAamideO>  (1457) 
0

>  <r_qp_SAfluorine>  (1457) 
33.941000000000003

>  <r_qp_WPSA>  (1457) 
33.941000000000003

>  <r_qp_accptHB>  (1457) 
6.7000000000000002

>  <r_qp_dip^2/V>  (1457) 
0.022927699999999999

>  <r_qp_dipole>  (1457) 
5.6589999999999998

>  <r_qp_donorHB>  (1457) 
3

>  <r_qp_glob>  (1457) 
0.82924699999999996

>  <r_qp_mol_MW>  (1457) 
445.53800000000001

>  <r_qp_volume>  (1457) 
1396.8920000000001

>  <r_sd_BIOSOLVEIT.INFINISEE\_FTREES\_SIMILARITY>  (1457) 
0.90500000000000003

>  <r_sd_BIOSOLVEIT.LOGP>  (1457) 
3.1299000000000001

>  <r_sd_BIOSOLVEIT.MOLECULAR\_WEIGHT>  (1457) 
446.54700000000003

>  <r_sd_BIOSOLVEIT.TPSA>  (1457) 
74.510000000000005

>  <i_epik_Tot_Q>  (1457) 
2

>  <i_epik_Tot_abs_Q>  (1457) 
2

>  <i_f3d_flags>  (1457) 
0

>  <i_i_glide_confnum>  (1457) 
10

>  <i_i_glide_lignum>  (1457) 
442

>  <i_i_glide_posenum>  (1457) 
18

>  <i_i_glide_rotatable_bonds>  (1457) 
10

>  <i_lp_mmshare_version>  (1457) 
65135

>  <i_m_ct_format>  (1457) 
2

>  <i_m_source_file_index>  (1457) 
1653

>  <i_qp_#NandO>  (1457) 
6

>  <i_qp_#acid>  (1457) 
0

>  <i_qp_#amide>  (1457) 
0

>  <i_qp_#amidine>  (1457) 
0

>  <i_qp_#amine>  (1457) 
1

>  <i_qp_#in34>  (1457) 
0

>  <i_qp_#in56>  (1457) 
22

>  <i_qp_#metab>  (1457) 
5

>  <i_qp_#nonHatm>  (1457) 
33

>  <i_qp_#noncon>  (1457) 
0

>  <i_qp_#ringatoms>  (1457) 
22

>  <i_qp_#rotor>  (1457) 
10

>  <i_qp_#rtvFG>  (1457) 
0

>  <i_qp_#stars>  (1457) 
0

>  <i_qp_CNS>  (1457) 
0

>  <i_qp_HumanOralAbsorption>  (1457) 
3

>  <i_qp_RuleOfFive>  (1457) 
0

>  <i_qp_RuleOfThree>  (1457) 
0

>  <i_sd_BIOSOLVEIT.INFINISEE\_REAGENT1\_NAME>  (1457) 
21922106

>  <i_sd_BIOSOLVEIT.INFINISEE\_REAGENT2\_NAME>  (1457) 
22360182

>  <i_sd_BIOSOLVEIT.INFINISEE\_REAGENT3\_NAME>  (1457) 
21968946

>  <i_sd_BIOSOLVEIT.INFINISEE\_RESULT\_RANK>  (1457) 
69013

>  <i_sd_version>  (1457) 
0

>  <b_lp_Chiralities_Consistent>  (1457) 
1

>  <b_sd_chiral_flag>  (1457) 
0

>  <canonical_id>  (1457) 
ATP-HTVS-E4A79D64766C

>  <compound_code>  (1457) 
52865

>  <title>  (1457) 
m_282030aaa____21922106____22360182____21968946

>  <variant>  (1457) 
52865-1

>  <source_file>  (1457) 
运行/运行/ATP-VSW/ATP-VSW-DOCK_HTVS_1-001_lib/ATP-VSW-DOCK_HTVS_1-001_lib

>  <canonical_smiles>  (1457) 
C[NH+](C)Cc1cc(CNc2nc(NCc3cccc(CO)c3)c3ccccc3[nH+]2)ccc1F

>  <scaffold>  (1457) 
c1ccc(CNc2nc(NCc3ccccc3)c3ccccc3[nH+]2)cc1

>  <molecular_formula>  (1457) 
C26H30FN5O+2

$$$$
ATP-HTVS-E4F433E7DDB9
     RDKit          3D

 55 58  0  0  0  0  0  0  0  0999 V2000
  200.7218  179.6377  151.0169 F   0  0  0  0  0  0  0  0  0  0  0  0
  199.8935  179.4862  152.0807 C   0  0  0  0  0  0  0  0  0  0  0  0
  200.4331  179.4112  153.3805 C   0  0  0  0  0  0  0  0  0  0  0  0
  199.5748  179.3414  154.5002 C   0  0  0  0  0  0  0  0  0  0  0  0
  198.1755  179.3807  154.3005 C   0  0  0  0  0  0  0  0  0  0  0  0
  197.6519  179.3959  153.0008 C   0  0  0  0  0  0  0  0  0  0  0  0
  198.5072  179.4962  151.8950 C   0  0  0  0  0  0  0  0  0  0  0  0
  197.1795  179.3666  155.4334 C   0  0  1  0  0  0  0  0  0  0  0  0
  197.1644  180.6453  156.1767 N   0  0  1  0  0  0  0  0  0  0  0  0
  196.2997  181.7078  155.6159 C   0  0  1  0  0  0  0  0  0  0  0  0
  197.0964  182.9208  155.1788 C   0  0  0  0  0  0  0  0  0  0  0  0
  197.5317  183.1005  153.8649 N   0  0  0  0  0  0  0  0  0  0  0  0
  198.2385  184.3474  153.8358 C   0  0  0  0  0  0  0  0  0  0  0  0
  198.1713  184.9252  155.0304 N   0  0  0  0  0  0  0  0  0  0  0  0
  197.4680  184.0502  155.8684 C   0  0  0  0  0  0  0  0  0  0  0  0
  197.2000  184.4377  157.2608 C   0  0  0  0  0  0  0  0  0  0  0  0
  197.1408  185.8066  157.6048 C   0  0  0  0  0  0  0  0  0  0  0  0
  196.8830  186.1952  158.9305 C   0  0  0  0  0  0  0  0  0  0  0  0
  196.6751  185.2187  159.9202 C   0  0  0  0  0  0  0  0  0  0  0  0
  196.7362  183.8541  159.5939 C   0  0  0  0  0  0  0  0  0  0  0  0
  196.9993  183.4670  158.2713 C   0  0  0  0  0  0  0  0  0  0  0  0
  198.8202  184.7893  152.6931 N   0  0  0  0  0  0  0  0  0  0  0  0
  198.7590  183.9838  151.6360 C   0  0  0  0  0  0  0  0  0  0  0  0
  198.0614  182.7330  151.6251 C   0  0  0  0  0  0  0  0  0  0  0  0
  197.3711  182.3433  152.7512 C   0  0  0  0  0  0  0  0  0  0  0  0
  200.2087  179.2365  155.8949 C   0  0  1  0  0  0  0  0  0  0  0  0
  199.9469  177.9286  156.5409 N   0  0  2  0  0  0  0  0  0  0  0  0
  200.6373  177.7966  157.8382 C   0  0  2  0  0  0  0  0  0  0  0  0
  200.1988  176.7713  155.6525 C   0  0  2  0  0  0  0  0  0  0  0  0
  196.7752  180.3984  157.0901 H   0  0  0  0  0  0  0  0  0  0  0  0
  201.5012  179.3960  153.5022 H   0  0  0  0  0  0  0  0  0  0  0  0
  196.5678  179.3672  152.8469 H   0  0  0  0  0  0  0  0  0  0  0  0
  198.0893  179.6299  150.9088 H   0  0  0  0  0  0  0  0  0  0  0  0
  196.1650  179.1170  155.1381 H   0  0  0  0  0  0  0  0  0  0  0  0
  197.4580  178.5187  156.0278 H   0  0  0  0  0  0  0  0  0  0  0  0
  195.6887  181.3196  154.8033 H   0  0  0  0  0  0  0  0  0  0  0  0
  195.5518  181.9789  156.3721 H   0  0  0  0  0  0  0  0  0  0  0  0
  197.2945  186.5649  156.8485 H   0  0  0  0  0  0  0  0  0  0  0  0
  196.8434  187.2417  159.1847 H   0  0  0  0  0  0  0  0  0  0  0  0
  196.4739  185.5154  160.9339 H   0  0  0  0  0  0  0  0  0  0  0  0
  196.5866  183.0938  160.3455 H   0  0  0  0  0  0  0  0  0  0  0  0
  197.0582  182.4150  158.0599 H   0  0  0  0  0  0  0  0  0  0  0  0
  199.2321  184.3319  150.7084 H   0  0  0  0  0  0  0  0  0  0  0  0
  198.0459  182.1225  150.7270 H   0  0  0  0  0  0  0  0  0  0  0  0
  196.7077  181.4773  152.8175 H   0  0  0  0  0  0  0  0  0  0  0  0
  201.2877  179.3640  155.7961 H   0  0  0  0  0  0  0  0  0  0  0  0
  199.8669  180.0520  156.5350 H   0  0  0  0  0  0  0  0  0  0  0  0
  201.7204  177.8060  157.7081 H   0  0  0  0  0  0  0  0  0  0  0  0
  200.3554  176.8666  158.3335 H   0  0  0  0  0  0  0  0  0  0  0  0
  200.3620  178.6158  158.5008 H   0  0  0  0  0  0  0  0  0  0  0  0
  201.2449  176.7259  155.3437 H   0  0  0  0  0  0  0  0  0  0  0  0
  199.5698  176.7814  154.7607 H   0  0  0  0  0  0  0  0  0  0  0  0
  199.9564  175.8555  156.1750 H   0  0  0  0  0  0  0  0  0  0  0  0
  198.9581  177.8878  156.7829 H   0  0  0  0  0  0  0  0  0  0  0  0
  198.0975  181.0070  156.3040 H   0  0  0  0  0  0  0  0  0  0  0  0
  1  2  1  0
  2  3  2  0
  2  7  1  0
  3  4  1  0
  3 31  1  0
  4  5  2  0
  4 26  1  0
  5  6  1  0
  5  8  1  0
  6  7  2  0
  6 32  1  0
  7 33  1  0
  8  9  1  0
  8 34  1  6
  8 35  1  0
  9 10  1  0
  9 30  1  1
  9 55  1  0
 10 11  1  0
 10 36  1  6
 10 37  1  0
 11 12  1  0
 11 15  2  0
 12 13  1  0
 12 25  1  0
 13 14  2  0
 13 22  1  0
 14 15  1  0
 15 16  1  0
 16 17  2  0
 16 21  1  0
 17 18  1  0
 17 38  1  0
 18 19  2  0
 18 39  1  0
 19 20  1  0
 19 40  1  0
 20 21  2  0
 20 41  1  0
 21 42  1  0
 22 23  2  0
 23 24  1  0
 23 43  1  0
 24 25  2  0
 24 44  1  0
 25 45  1  0
 26 27  1  0
 26 46  1  6
 26 47  1  0
 27 28  1  0
 27 29  1  0
 27 54  1  1
 28 48  1  6
 28 49  1  0
 28 50  1  0
 29 51  1  6
 29 52  1  0
 29 53  1  0
M  CHG  2   9   1  27   1
M  END
>  <s_epik_cmdline>  (1458) 
J2VwaWtfcHl0aG9uJywgJy1waCcsICc3LjAwMDAwMCcsICctcGh0JywgJzIuMDAwMDAwJywgJy1tcycsICcxNicsICctdG4nLCAnOCcsICctbWEnLCAnMjAwJywgJy1pbWFlJywgJzxpbmZpbGUubWFlPicsICctb21hZScsICc8b3V0ZmlsZS5tYWU+Jw==

>  <s_epik_input>  (1458) 
RmMxW2NIXWMoW0NIMl1OKFtDSDNdKVtDSDNdKWMoW2NIXVtjSF0xKVtDSDJdW05IXVtDSDJdYzJjKG5jKG4yMyluW2NIXVtjSF1bY0hdMyktYzRbY0hdW2NIXVtjSF1bY0hdW2NIXTQ=

>  <s_i_glide_gridfile>  (1458) 
ATP-Grid

>  <s_lp_Force_Field>  (1458) 
OPLS_2005

>  <s_lp_Variant>  (1458) 
m_270004bbb____24792668____14597188-1

>  <s_lp_label>  (1458) 
1850_sdstereoexpander_1_neutralizer_1_epik_1_stereoizer_1

>  <s_m_source_file>  (1458) 
ATP-VSW-LIGPREP-002-in.maegz

>  <s_sd_BIOSOLVEIT.INFINISEE\_QUERY\_NAME>  (1458) 
Ref-Lig

>  <s_sd_BIOSOLVEIT.INFINISEE\_QUERY\_SMILES>  (1458) 
S(c1nc2c(cc1C[NH2+]Cc3ccc(cc3)C[NH+](C)C)cccc2)Cc4ccccc4

>  <s_sd_BIOSOLVEIT.INFINISEE\_REACTION\_NAME>  (1458) 
m_270004bbb

>  <s_sd_BIOSOLVEIT.INFINISEE\_REAGENT1\_SMILES>  (1458) 
[R1*]NCc1c(cc(F)cc1)CN(C)C

>  <s_sd_BIOSOLVEIT.INFINISEE\_REAGENT2\_SMILES>  (1458) 
[R1*]CC=1N2C(=NC1c3ccccc3)N=CC=C2

>  <s_sd_BIOSOLVEIT.INFINISEE\_SPACE>  (1458) 
REALSpace_44bn_2023-08

>  <s_vsw_compound_code>  (1458) 
59170

>  <s_vsw_variant>  (1458) 
59170-1

>  <r_epik_Charging_Adjusted_Penalty>  (1458) 
0.93987391296589595

>  <r_epik_Ionization_Penalty>  (1458) 
0.47420000000000001

>  <r_epik_Ionization_Penalty_Charging>  (1458) 
0.47420000000000001

>  <r_epik_Ionization_Penalty_Neutral>  (1458) 
0

>  <r_epik_State_Penalty>  (1458) 
0.4657

>  <r_i_docking_score>  (1458) 
-4.90464186367557

>  <r_i_glide_ecoul>  (1458) 
-15.835325241088899

>  <r_i_glide_eff_state_penalty>  (1458) 
0.4657

>  <r_i_glide_einternal>  (1458) 
4.83172559738159

>  <r_i_glide_emodel>  (1458) 
-66.417037899764296

>  <r_i_glide_energy>  (1458) 
-43.351802825927699

>  <r_i_glide_erotb>  (1458) 
0.76399945820474502

>  <r_i_glide_esite>  (1458) 
-0.20148040058217201

>  <r_i_glide_evdw>  (1458) 
-27.516477584838899

>  <r_i_glide_gscore>  (1458) 
-5.37034186367557

>  <r_i_glide_hbond>  (1458) 
-0.35048159283592001

>  <r_i_glide_ligand_efficiency>  (1458) 
-0.169125581506054

>  <r_i_glide_ligand_efficiency_ln>  (1458) 
-1.12303861579507

>  <r_i_glide_ligand_efficiency_sa>  (1458) 
-0.519607369131729

>  <r_i_glide_lipo>  (1458) 
-0.86637786532967898

>  <r_i_glide_metal>  (1458) 
-0

>  <r_i_glide_rewards>  (1458) 
-0.96487879772727103

>  <r_lp_Energy>  (1458) 
26.214683000000001

>  <r_qp_ACxDN^.5/SA>  (1458) 
0.0086990999999999995

>  <r_qp_CIQPlogS>  (1458) 
-3.8959999999999999

>  <r_qp_EA(eV)>  (1458) 
0.997

>  <r_qp_FISA>  (1458) 
50.384

>  <r_qp_FOSA>  (1458) 
207.92699999999999

>  <r_qp_IP(eV)>  (1458) 
8.9629999999999992

>  <r_qp_Jm>  (1458) 
0.0035051556101027099

>  <r_qp_PISA>  (1458) 
384.44799999999998

>  <r_qp_PSA>  (1458) 
44.094000000000001

>  <r_qp_PercentHumanOralAbsorption>  (1458) 
92.165999999999997

>  <r_qp_QPPCaco>  (1458) 
205.072

>  <r_qp_QPPMDCK>  (1458) 
197.53999999999999

>  <r_qp_QPlogBB>  (1458) 
0.625

>  <r_qp_QPlogHERG>  (1458) 
-7.5860000000000003

>  <r_qp_QPlogKhsa>  (1458) 
0.68200000000000005

>  <r_qp_QPlogKp>  (1458) 
-4.6429999999999998

>  <r_qp_QPlogPC16>  (1458) 
13.138

>  <r_qp_QPlogPo/w>  (1458) 
4.0720000000000001

>  <r_qp_QPlogPoct>  (1458) 
20.384

>  <r_qp_QPlogPw>  (1458) 
10.404

>  <r_qp_QPlogS>  (1458) 
-3.403

>  <r_qp_QPpolrz>  (1458) 
45.107999999999997

>  <r_qp_SASA>  (1458) 
689.72799999999995

>  <r_qp_SAamideO>  (1458) 
0

>  <r_qp_SAfluorine>  (1458) 
46.969000000000001

>  <r_qp_WPSA>  (1458) 
46.969000000000001

>  <r_qp_accptHB>  (1458) 
6

>  <r_qp_dip^2/V>  (1458) 
0.047784

>  <r_qp_dipole>  (1458) 
7.8369999999999997

>  <r_qp_donorHB>  (1458) 
1

>  <r_qp_glob>  (1458) 
0.82893510000000004

>  <r_qp_mol_MW>  (1458) 
389.47399999999999

>  <r_qp_volume>  (1458) 
1285.4349999999999

>  <r_sd_BIOSOLVEIT.INFINISEE\_FTREES\_SIMILARITY>  (1458) 
0.90300000000000002

>  <r_sd_BIOSOLVEIT.LOGP>  (1458) 
1.4435

>  <r_sd_BIOSOLVEIT.MOLECULAR\_WEIGHT>  (1458) 
391.49099999999999

>  <r_sd_BIOSOLVEIT.TPSA>  (1458) 
51.759999999999998

>  <i_epik_Tot_Q>  (1458) 
2

>  <i_epik_Tot_abs_Q>  (1458) 
2

>  <i_f3d_flags>  (1458) 
0

>  <i_i_glide_confnum>  (1458) 
5

>  <i_i_glide_lignum>  (1458) 
653

>  <i_i_glide_posenum>  (1458) 
11

>  <i_i_glide_rotatable_bonds>  (1458) 
7

>  <i_lp_mmshare_version>  (1458) 
65135

>  <i_m_ct_format>  (1458) 
2

>  <i_m_source_file_index>  (1458) 
1850

>  <i_qp_#NandO>  (1458) 
5

>  <i_qp_#acid>  (1458) 
0

>  <i_qp_#amide>  (1458) 
0

>  <i_qp_#amidine>  (1458) 
0

>  <i_qp_#amine>  (1458) 
2

>  <i_qp_#in34>  (1458) 
0

>  <i_qp_#in56>  (1458) 
21

>  <i_qp_#metab>  (1458) 
6

>  <i_qp_#nonHatm>  (1458) 
29

>  <i_qp_#noncon>  (1458) 
0

>  <i_qp_#ringatoms>  (1458) 
21

>  <i_qp_#rotor>  (1458) 
6

>  <i_qp_#rtvFG>  (1458) 
0

>  <i_qp_#stars>  (1458) 
0

>  <i_qp_CNS>  (1458) 
2

>  <i_qp_HumanOralAbsorption>  (1458) 
3

>  <i_qp_RuleOfFive>  (1458) 
0

>  <i_qp_RuleOfThree>  (1458) 
0

>  <i_sd_BIOSOLVEIT.INFINISEE\_REAGENT1\_NAME>  (1458) 
24792668

>  <i_sd_BIOSOLVEIT.INFINISEE\_REAGENT2\_NAME>  (1458) 
14597188

>  <i_sd_BIOSOLVEIT.INFINISEE\_RESULT\_RANK>  (1458) 
81227

>  <i_sd_version>  (1458) 
0

>  <b_lp_Chiralities_Consistent>  (1458) 
1

>  <b_sd_chiral_flag>  (1458) 
0

>  <canonical_id>  (1458) 
ATP-HTVS-E4F433E7DDB9

>  <compound_code>  (1458) 
59170

>  <title>  (1458) 
m_270004bbb____24792668____14597188

>  <variant>  (1458) 
59170-1

>  <source_file>  (1458) 
运行/运行/ATP-VSW/ATP-VSW-DOCK_HTVS_1-002_lib.maegz

>  <canonical_smiles>  (1458) 
C[NH+](C)Cc1cc(F)ccc1C[NH2+]Cc1c(-c2ccccc2)nc2ncccn12

>  <scaffold>  (1458) 
c1ccc(C[NH2+]Cc2c(-c3ccccc3)nc3ncccn23)cc1

>  <molecular_formula>  (1458) 
C23H26FN5+2

$$$$
ATP-HTVS-E4F9B23534EC
     RDKit          3D

 62 65  0  0  0  0  0  0  0  0999 V2000
  198.2422  185.0805  146.8214 F   0  0  0  0  0  0  0  0  0  0  0  0
  198.6457  183.8894  147.3185 C   0  0  0  0  0  0  0  0  0  0  0  0
  197.9648  183.3328  148.4168 C   0  0  0  0  0  0  0  0  0  0  0  0
  196.8929  184.0082  148.9327 O   0  0  0  0  0  0  0  0  0  0  0  0
  198.3619  182.0732  148.9393 C   0  0  0  0  0  0  0  0  0  0  0  0
  197.6417  181.4614  150.0755 C   0  0  0  0  0  0  0  0  0  0  0  0
  197.0016  180.1848  149.9982 C   0  0  0  0  0  0  0  0  0  0  0  0
  196.3162  179.6851  151.1163 C   0  0  0  0  0  0  0  0  0  0  0  0
  196.3452  180.3888  152.3497 C   0  0  0  0  0  0  0  0  0  0  0  0
  196.9416  181.6468  152.4279 C   0  0  0  0  0  0  0  0  0  0  0  0
  196.8614  182.3044  153.6884 N   0  0  0  0  0  0  0  0  0  0  0  0
  197.5294  183.3756  154.1386 C   0  0  0  0  0  0  0  0  0  0  0  0
  198.2329  184.1200  153.4571 O   0  0  0  0  0  0  0  0  0  0  0  0
  197.3109  183.6573  155.5988 C   0  0  0  0  0  0  0  0  0  0  0  0
  196.8833  182.6410  156.4860 C   0  0  0  0  0  0  0  0  0  0  0  0
  196.7323  182.9125  157.8597 C   0  0  0  0  0  0  0  0  0  0  0  0
  197.0310  184.1869  158.3663 C   0  0  0  0  0  0  0  0  0  0  0  0
  197.4975  185.1960  157.4939 C   0  0  0  0  0  0  0  0  0  0  0  0
  197.6202  184.9345  156.1102 C   0  0  0  0  0  0  0  0  0  0  0  0
  196.7879  184.4869  159.8383 C   0  0  1  0  0  0  0  0  0  0  0  0
  195.5214  185.1705  160.1275 N   0  0  0  0  0  0  0  0  0  0  0  0
  195.4711  186.5225  159.5800 C   0  0  2  0  0  0  0  0  0  0  0  0
  194.3697  184.4023  159.6717 C   0  0  2  0  0  0  0  0  0  0  0  0
  197.5892  182.1772  151.2923 C   0  0  0  0  0  0  0  0  0  0  0  0
  197.0773  179.3050  148.7330 C   0  0  2  0  0  0  0  0  0  0  0  0
  195.7364  178.9951  148.1670 C   0  0  0  0  0  0  0  0  0  0  0  0
  194.6975  178.7404  147.7319 N   0  0  0  0  0  0  0  0  0  0  0  0
  197.9568  178.0588  148.8737 C   0  0  0  0  0  0  0  0  0  0  0  0
  198.3657  177.3898  147.6930 C   0  0  0  0  0  0  0  0  0  0  0  0
  199.1673  176.2312  147.7693 C   0  0  0  0  0  0  0  0  0  0  0  0
  199.5643  175.7256  149.0246 C   0  0  0  0  0  0  0  0  0  0  0  0
  199.1775  176.3884  150.1981 C   0  0  0  0  0  0  0  0  0  0  0  0
  198.4026  177.5627  150.1244 C   0  0  0  0  0  0  0  0  0  0  0  0
  199.4621  181.4083  148.3555 C   0  0  0  0  0  0  0  0  0  0  0  0
  200.1267  181.9571  147.2378 C   0  0  0  0  0  0  0  0  0  0  0  0
  199.7203  183.2010  146.7260 C   0  0  0  0  0  0  0  0  0  0  0  0
  196.7024  184.8020  148.4523 H   0  0  0  0  0  0  0  0  0  0  0  0
  195.8292  178.7361  151.0899 H   0  0  0  0  0  0  0  0  0  0  0  0
  195.8972  179.9367  153.2173 H   0  0  0  0  0  0  0  0  0  0  0  0
  196.2748  181.8525  154.3741 H   0  0  0  0  0  0  0  0  0  0  0  0
  196.6343  181.6421  156.1597 H   0  0  0  0  0  0  0  0  0  0  0  0
  196.3575  182.1340  158.5126 H   0  0  0  0  0  0  0  0  0  0  0  0
  197.7251  186.1818  157.8560 H   0  0  0  0  0  0  0  0  0  0  0  0
  197.9357  185.7334  155.4527 H   0  0  0  0  0  0  0  0  0  0  0  0
  196.8237  183.5503  160.4074 H   0  0  0  0  0  0  0  0  0  0  0  0
  197.6140  185.0904  160.2076 H   0  0  0  0  0  0  0  0  0  0  0  0
  194.5568  187.0320  159.8842 H   0  0  0  0  0  0  0  0  0  0  0  0
  195.4720  186.5159  158.4924 H   0  0  0  0  0  0  0  0  0  0  0  0
  196.3177  187.1127  159.9319 H   0  0  0  0  0  0  0  0  0  0  0  0
  193.4360  184.9077  159.9264 H   0  0  0  0  0  0  0  0  0  0  0  0
  194.3614  183.4157  160.1372 H   0  0  0  0  0  0  0  0  0  0  0  0
  194.3760  184.2647  158.5907 H   0  0  0  0  0  0  0  0  0  0  0  0
  198.0813  183.1304  151.3322 H   0  0  0  0  0  0  0  0  0  0  0  0
  197.5448  179.8349  147.9151 H   0  0  0  0  0  0  0  0  0  0  0  0
  198.0682  177.7596  146.7178 H   0  0  0  0  0  0  0  0  0  0  0  0
  199.4766  175.7212  146.8663 H   0  0  0  0  0  0  0  0  0  0  0  0
  200.1686  174.8304  149.0984 H   0  0  0  0  0  0  0  0  0  0  0  0
  199.4609  176.0252  151.1709 H   0  0  0  0  0  0  0  0  0  0  0  0
  198.1858  178.0228  151.0774 H   0  0  0  0  0  0  0  0  0  0  0  0
  199.7868  180.4497  148.7310 H   0  0  0  0  0  0  0  0  0  0  0  0
  200.9361  181.4129  146.7744 H   0  0  0  0  0  0  0  0  0  0  0  0
  200.2261  183.6231  145.8684 H   0  0  0  0  0  0  0  0  0  0  0  0
  1  2  1  0
  2  3  2  0
  2 36  1  0
  3  4  1  0
  3  5  1  0
  4 37  1  0
  5  6  1  0
  5 34  2  0
  6  7  2  0
  6 24  1  0
  7  8  1  0
  7 25  1  0
  8  9  2  0
  8 38  1  0
  9 10  1  0
  9 39  1  0
 10 11  1  0
 10 24  2  0
 11 12  1  0
 11 40  1  0
 12 13  2  0
 12 14  1  0
 14 15  1  0
 14 19  2  0
 15 16  2  0
 15 41  1  0
 16 17  1  0
 16 42  1  0
 17 18  2  0
 17 20  1  0
 18 19  1  0
 18 43  1  0
 19 44  1  0
 20 21  1  0
 20 45  1  1
 20 46  1  0
 21 22  1  0
 21 23  1  0
 22 47  1  6
 22 48  1  0
 22 49  1  0
 23 50  1  6
 23 51  1  0
 23 52  1  0
 24 53  1  0
 25 26  1  0
 25 28  1  0
 25 54  1  6
 26 27  3  0
 28 29  2  0
 28 33  1  0
 29 30  1  0
 29 55  1  0
 30 31  2  0
 30 56  1  0
 31 32  1  0
 31 57  1  0
 32 33  2  0
 32 58  1  0
 33 59  1  0
 34 35  1  0
 34 60  1  0
 35 36  2  0
 35 61  1  0
 36 62  1  0
M  END
>  <s_epik_cmdline>  (1459) 
J2VwaWtfcHl0aG9uJywgJy1waCcsICc3LjAwMDAwMCcsICctcGh0JywgJzIuMDAwMDAwJywgJy1tcycsICcxNicsICctdG4nLCAnOCcsICctbWEnLCAnMjAwJywgJy1pbWFlJywgJzxpbmZpbGUubWFlPicsICctb21hZScsICc8b3V0ZmlsZS5tYWU+Jw==

>  <s_epik_input>  (1459) 
W2NIXTFbY0hdW2NIXVtjSF1bY0hdYzFbQ0BASF0oQyNOKWMoYzItYyhjKGMzRilbT0hdKVtjSF1bY0hdW2NIXTMpW2NIXVtjSF1jKFtjSF0yKVtOSF1DKD1PKWM0W2NIXVtjSF1jKFtjSF1bY0hdNClbQ0gyXU4oW0NIM10pW0NIM10=

>  <s_i_glide_gridfile>  (1459) 
ATP-Grid

>  <s_lp_Force_Field>  (1459) 
OPLS_2005

>  <s_lp_Variant>  (1459) 
rxn501c____EMOL18624763____EMOL713289____EMOL17116155-3

>  <s_lp_label>  (1459) 
2989_sdstereoexpander_1_neutralizer_1_epik_2_stereoizer_1

>  <s_m_source_file>  (1459) 
ATP-VSW-LIGPREP-001-in.maegz

>  <s_sd_BIOSOLVEIT.INFINISEE\_QUERY\_NAME>  (1459) 
Ref-Lig

>  <s_sd_BIOSOLVEIT.INFINISEE\_QUERY\_SMILES>  (1459) 
S(c1nc2c(cc1C[NH2+]Cc3ccc(cc3)C[NH+](C)C)cccc2)Cc4ccccc4

>  <s_sd_BIOSOLVEIT.INFINISEE\_REACTION\_NAME>  (1459) 
rxn501c

>  <s_sd_BIOSOLVEIT.INFINISEE\_REAGENT1\_NAME>  (1459) 
EMOL18624763

>  <s_sd_BIOSOLVEIT.INFINISEE\_REAGENT1\_SMILES>  (1459) 
O=C(O)c1ccc(cc1)CN(C)C

>  <s_sd_BIOSOLVEIT.INFINISEE\_REAGENT2\_NAME>  (1459) 
EMOL713289

>  <s_sd_BIOSOLVEIT.INFINISEE\_REAGENT2\_SMILES>  (1459) 
Clc1c(ccc(N)c1)C(C#N)c2ccccc2

>  <s_sd_BIOSOLVEIT.INFINISEE\_REAGENT3\_NAME>  (1459) 
EMOL17116155

>  <s_sd_BIOSOLVEIT.INFINISEE\_REAGENT3\_SMILES>  (1459) 
Fc1c(O)c(ccc1)B(O)O

>  <s_sd_BIOSOLVEIT.INFINISEE\_SPACE>  (1459) 
eXplore_7tr_2022-12

>  <s_vsw_compound_code>  (1459) 
95617

>  <s_vsw_variant>  (1459) 
95617-3

>  <r_epik_Charging_Adjusted_Penalty>  (1459) 
1.46282787253901

>  <r_epik_Ionization_Penalty>  (1459) 
1.4628000000000001

>  <r_epik_Ionization_Penalty_Charging>  (1459) 
0

>  <r_epik_Ionization_Penalty_Neutral>  (1459) 
1.4628000000000001

>  <r_epik_State_Penalty>  (1459) 
1.4628000000000001

>  <r_i_docking_score>  (1459) 
-3.5157236182439799

>  <r_i_glide_ecoul>  (1459) 
-3.50392818450928

>  <r_i_glide_eff_state_penalty>  (1459) 
1.4628000000000001

>  <r_i_glide_einternal>  (1459) 
5.6769266128540004

>  <r_i_glide_emodel>  (1459) 
-54.885202213492697

>  <r_i_glide_energy>  (1459) 
-43.586031913757303

>  <r_i_glide_erotb>  (1459) 
0.61708930453222499

>  <r_i_glide_esite>  (1459) 
-0.069174654561433194

>  <r_i_glide_evdw>  (1459) 
-40.082103729247997

>  <r_i_glide_gscore>  (1459) 
-4.9785236182439796

>  <r_i_glide_hbond>  (1459) 
0

>  <r_i_glide_ligand_efficiency>  (1459) 
-0.097658989395666002

>  <r_i_glide_ligand_efficiency_ln>  (1459) 
-0.76703590962541002

>  <r_i_glide_ligand_efficiency_sa>  (1459) 
-0.32246287779987698

>  <r_i_glide_lipo>  (1459) 
-2.52166557695397

>  <r_i_glide_metal>  (1459) 
-0

>  <r_i_glide_rewards>  (1459) 
-0.47507827712200201

>  <r_lp_Energy>  (1459) 
38.887345000000003

>  <r_lp_tautomer_probability>  (1459) 
0.999999999997365

>  <r_qp_ACxDN^.5/SA>  (1459) 
0.011550700000000001

>  <r_qp_CIQPlogS>  (1459) 
-7.593

>  <r_qp_EA(eV)>  (1459) 
0.53700000000000003

>  <r_qp_FISA>  (1459) 
138.55500000000001

>  <r_qp_FOSA>  (1459) 
181.36099999999999

>  <r_qp_IP(eV)>  (1459) 
8.9169999999999998

>  <r_qp_Jm>  (1459) 
7.6340970796022103e-06

>  <r_qp_PISA>  (1459) 
468.42599999999999

>  <r_qp_PSA>  (1459) 
87.710999999999999

>  <r_qp_PercentHumanOralAbsorption>  (1459) 
93.364000000000004

>  <r_qp_QPPCaco>  (1459) 
119.919

>  <r_qp_QPPMDCK>  (1459) 
89.391999999999996

>  <r_qp_QPlogBB>  (1459) 
-1.042

>  <r_qp_QPlogHERG>  (1459) 
-8.2029999999999994

>  <r_qp_QPlogKhsa>  (1459) 
0.94899999999999995

>  <r_qp_QPlogKp>  (1459) 
-3.621

>  <r_qp_QPlogPC16>  (1459) 
16.940000000000001

>  <r_qp_QPlogPo/w>  (1459) 
4.9889999999999999

>  <r_qp_QPlogPoct>  (1459) 
24.789000000000001

>  <r_qp_QPlogPw>  (1459) 
13.443

>  <r_qp_QPlogS>  (1459) 
-7.1769999999999996

>  <r_qp_QPpolrz>  (1459) 
53.027000000000001

>  <r_qp_SASA>  (1459) 
826.43600000000004

>  <r_qp_SAamideO>  (1459) 
0

>  <r_qp_SAfluorine>  (1459) 
38.094999999999999

>  <r_qp_WPSA>  (1459) 
38.094999999999999

>  <r_qp_accptHB>  (1459) 
6.75

>  <r_qp_dip^2/V>  (1459) 
0.0138656

>  <r_qp_dipole>  (1459) 
4.5780000000000003

>  <r_qp_donorHB>  (1459) 
2

>  <r_qp_glob>  (1459) 
0.77068760000000003

>  <r_qp_mol_MW>  (1459) 
479.553

>  <r_qp_volume>  (1459) 
1511.4159999999999

>  <r_sd_BIOSOLVEIT.INFINISEE\_FTREES\_SIMILARITY>  (1459) 
0.90300000000000002

>  <r_sd_BIOSOLVEIT.LOGP>  (1459) 
4.7505800000000002

>  <r_sd_BIOSOLVEIT.MOLECULAR\_WEIGHT>  (1459) 
480.56

>  <r_sd_BIOSOLVEIT.TPSA>  (1459) 
77.560000000000002

>  <i_epik_Tot_Q>  (1459) 
0

>  <i_epik_Tot_abs_Q>  (1459) 
0

>  <i_f3d_flags>  (1459) 
0

>  <i_i_glide_confnum>  (1459) 
5

>  <i_i_glide_lignum>  (1459) 
1427

>  <i_i_glide_posenum>  (1459) 
15

>  <i_i_glide_rotatable_bonds>  (1459) 
9

>  <i_lp_mmshare_version>  (1459) 
65135

>  <i_m_ct_format>  (1459) 
2

>  <i_m_source_file_index>  (1459) 
2989

>  <i_qp_#NandO>  (1459) 
5

>  <i_qp_#acid>  (1459) 
0

>  <i_qp_#amide>  (1459) 
0

>  <i_qp_#amidine>  (1459) 
0

>  <i_qp_#amine>  (1459) 
1

>  <i_qp_#in34>  (1459) 
0

>  <i_qp_#in56>  (1459) 
24

>  <i_qp_#metab>  (1459) 
5

>  <i_qp_#nonHatm>  (1459) 
36

>  <i_qp_#noncon>  (1459) 
0

>  <i_qp_#ringatoms>  (1459) 
24

>  <i_qp_#rotor>  (1459) 
9

>  <i_qp_#rtvFG>  (1459) 
0

>  <i_qp_#stars>  (1459) 
2

>  <i_qp_CNS>  (1459) 
-2

>  <i_qp_HumanOralAbsorption>  (1459) 
1

>  <i_qp_RuleOfFive>  (1459) 
0

>  <i_qp_RuleOfThree>  (1459) 
1

>  <i_sd_BIOSOLVEIT.INFINISEE\_RESULT\_RANK>  (1459) 
84666

>  <i_sd_version>  (1459) 
0

>  <b_lp_Chiralities_Consistent>  (1459) 
1

>  <b_sd_chiral_flag>  (1459) 
0

>  <canonical_id>  (1459) 
ATP-HTVS-E4F9B23534EC

>  <compound_code>  (1459) 
95617

>  <title>  (1459) 
rxn501c____EMOL18624763____EMOL713289____EMOL17116155

>  <variant>  (1459) 
95617-3

>  <source_file>  (1459) 
运行/运行/ATP-VSW/ATP-VSW-DOCK_HTVS_1-001_lib/ATP-VSW-DOCK_HTVS_1-001_lib

>  <canonical_smiles>  (1459) 
CN(C)Cc1ccc(C(=O)Nc2ccc([C@H](C#N)c3ccccc3)c(-c3cccc(F)c3O)c2)cc1

>  <scaffold>  (1459) 
O=C(Nc1ccc(Cc2ccccc2)c(-c2ccccc2)c1)c1ccccc1

>  <molecular_formula>  (1459) 
C30H26FN3O2

$$$$
ATP-HTVS-E50B3258D66C
     RDKit          3D

 64 68  0  0  0  0  0  0  0  0999 V2000
  196.7550  184.1040  148.5970 O   0  0  0  0  0  0  0  0  0  0  0  0
  197.5125  184.6498  149.5792 C   0  0  0  0  0  0  0  0  0  0  0  0
  198.5985  185.2783  149.0150 C   0  0  0  0  0  0  0  0  0  0  0  0
  198.5593  185.1419  147.6658 O   0  0  0  0  0  0  0  0  0  0  0  0
  197.4080  184.3919  147.3897 C   0  0  1  0  0  0  0  0  0  0  0  0
  199.5488  185.9407  149.8024 C   0  0  0  0  0  0  0  0  0  0  0  0
  199.3565  185.9422  151.2063 C   0  0  0  0  0  0  0  0  0  0  0  0
  198.2450  185.2806  151.8040 C   0  0  0  0  0  0  0  0  0  0  0  0
  197.3027  184.6244  150.9693 C   0  0  0  0  0  0  0  0  0  0  0  0
  198.1042  185.3162  153.3267 C   0  0  1  0  0  0  0  0  0  0  0  0
  196.9591  184.5935  153.9138 N   0  0  0  0  0  0  0  0  0  0  0  0
  197.1484  183.7665  155.0390 C   0  0  0  0  0  0  0  0  0  0  0  0
  196.9848  182.4755  154.8992 N   0  0  0  0  0  0  0  0  0  0  0  0
  197.1639  181.6383  155.9098 C   0  0  0  0  0  0  0  0  0  0  0  0
  197.4432  182.0829  157.1290 N   0  0  0  0  0  0  0  0  0  0  0  0
  197.5750  183.4083  157.3842 C   0  0  0  0  0  0  0  0  0  0  0  0
  197.4381  184.3059  156.3006 C   0  0  0  0  0  0  0  0  0  0  0  0
  197.5326  185.7139  156.5542 C   0  0  0  0  0  0  0  0  0  0  0  0
  197.7466  186.1956  157.8649 C   0  0  0  0  0  0  0  0  0  0  0  0
  197.8824  185.2722  158.9347 C   0  0  0  0  0  0  0  0  0  0  0  0
  197.8127  183.8720  158.6921 C   0  0  0  0  0  0  0  0  0  0  0  0
  197.1796  180.2722  155.6874 N   0  0  0  0  0  0  0  0  0  0  0  0
  197.1414  179.6051  154.4126 C   0  0  1  0  0  0  0  0  0  0  0  0
  197.9658  180.3012  153.3012 C   0  0  1  0  0  0  0  0  0  0  0  0
  197.6815  179.6768  151.9703 C   0  0  0  0  0  0  0  0  0  0  0  0
  196.5418  180.0736  151.2387 C   0  0  0  0  0  0  0  0  0  0  0  0
  196.3312  179.5782  149.9373 C   0  0  0  0  0  0  0  0  0  0  0  0
  197.2450  178.6463  149.3877 C   0  0  0  0  0  0  0  0  0  0  0  0
  198.3572  178.2196  150.1570 C   0  0  0  0  0  0  0  0  0  0  0  0
  198.5899  178.7537  151.4295 C   0  0  0  0  0  0  0  0  0  0  0  0
  197.0314  178.0884  147.9913 C   0  0  1  0  0  0  0  0  0  0  0  0
  197.9616  178.6104  146.9869 N   0  0  0  0  0  0  0  0  0  0  0  0
  199.3311  178.1484  147.2090 C   0  0  2  0  0  0  0  0  0  0  0  0
  197.5482  178.1390  145.6721 C   0  0  2  0  0  0  0  0  0  0  0  0
  197.6792  183.4574  146.8946 H   0  0  0  0  0  0  0  0  0  0  0  0
  196.7594  184.9688  146.7320 H   0  0  0  0  0  0  0  0  0  0  0  0
  200.3984  186.4317  149.3479 H   0  0  0  0  0  0  0  0  0  0  0  0
  200.0802  186.4578  151.8251 H   0  0  0  0  0  0  0  0  0  0  0  0
  196.4337  184.1262  151.3690 H   0  0  0  0  0  0  0  0  0  0  0  0
  199.0464  184.9776  153.7530 H   0  0  0  0  0  0  0  0  0  0  0  0
  197.9983  186.3612  153.6049 H   0  0  0  0  0  0  0  0  0  0  0  0
  196.1968  184.3234  153.3149 H   0  0  0  0  0  0  0  0  0  0  0  0
  197.3793  186.4306  155.7659 H   0  0  0  0  0  0  0  0  0  0  0  0
  197.7864  187.2655  158.0612 H   0  0  0  0  0  0  0  0  0  0  0  0
  198.0500  185.6434  159.9618 H   0  0  0  0  0  0  0  0  0  0  0  0
  197.8985  183.1761  159.5225 H   0  0  0  0  0  0  0  0  0  0  0  0
  197.0651  179.6983  156.5166 H   0  0  0  0  0  0  0  0  0  0  0  0
  197.5314  178.6121  154.5938 H   0  0  0  0  0  0  0  0  0  0  0  0
  196.0987  179.4941  154.1344 H   0  0  0  0  0  0  0  0  0  0  0  0
  197.7094  181.3280  153.1120 H   0  0  0  0  0  0  0  0  0  0  0  0
  199.0383  180.2348  153.5499 H   0  0  0  0  0  0  0  0  0  0  0  0
  195.8501  180.7952  151.6574 H   0  0  0  0  0  0  0  0  0  0  0  0
  195.4584  179.8970  149.3716 H   0  0  0  0  0  0  0  0  0  0  0  0
  199.0671  177.4944  149.7612 H   0  0  0  0  0  0  0  0  0  0  0  0
  199.4898  178.5072  151.9737 H   0  0  0  0  0  0  0  0  0  0  0  0
  197.1017  177.0036  148.0567 H   0  0  0  0  0  0  0  0  0  0  0  0
  196.0035  178.3111  147.6998 H   0  0  0  0  0  0  0  0  0  0  0  0
  199.9916  178.4630  146.3912 H   0  0  0  0  0  0  0  0  0  0  0  0
  199.3506  177.0597  147.2593 H   0  0  0  0  0  0  0  0  0  0  0  0
  199.7270  178.5408  148.1486 H   0  0  0  0  0  0  0  0  0  0  0  0
  198.2529  178.4776  144.9092 H   0  0  0  0  0  0  0  0  0  0  0  0
  196.5575  178.5074  145.3919 H   0  0  0  0  0  0  0  0  0  0  0  0
  197.5240  177.0484  145.6520 H   0  0  0  0  0  0  0  0  0  0  0  0
  197.5821  181.4422  157.9264 H   0  0  0  0  0  0  0  0  0  0  0  0
  1  2  1  0
  1  5  1  0
  2  3  2  0
  2  9  1  0
  3  4  1  0
  3  6  1  0
  4  5  1  0
  5 35  1  6
  5 36  1  0
  6  7  2  0
  6 37  1  0
  7  8  1  0
  7 38  1  0
  8  9  2  0
  8 10  1  0
  9 39  1  0
 10 11  1  0
 10 40  1  1
 10 41  1  0
 11 12  1  0
 11 42  1  0
 12 13  2  0
 12 17  1  0
 13 14  1  0
 14 15  2  0
 14 22  1  0
 15 16  1  0
 15 64  1  0
 16 17  1  0
 16 21  2  0
 17 18  2  0
 18 19  1  0
 18 43  1  0
 19 20  2  0
 19 44  1  0
 20 21  1  0
 20 45  1  0
 21 46  1  0
 22 23  1  0
 22 47  1  0
 23 24  1  0
 23 48  1  1
 23 49  1  0
 24 25  1  0
 24 50  1  6
 24 51  1  0
 25 26  1  0
 25 30  2  0
 26 27  2  0
 26 52  1  0
 27 28  1  0
 27 53  1  0
 28 29  2  0
 28 31  1  0
 29 30  1  0
 29 54  1  0
 30 55  1  0
 31 32  1  0
 31 56  1  1
 31 57  1  0
 32 33  1  0
 32 34  1  0
 33 58  1  6
 33 59  1  0
 33 60  1  0
 34 61  1  6
 34 62  1  0
 34 63  1  0
M  CHG  1  15   1
M  END
>  <s_epik_Chemistry_Notes>  (1460) 
This compound contains an acetal/aminal-like group ( X-CH(R)-Y where X, Y are N, S, or O) that may be acid/base labile, releasing an aldehyde.

>  <s_epik_cmdline>  (1460) 
J2VwaWtfcHl0aG9uJywgJy1waCcsICc3LjAwMDAwMCcsICctcGh0JywgJzIuMDAwMDAwJywgJy1tcycsICcxNicsICctdG4nLCAnOCcsICctbWEnLCAnMjAwJywgJy1pbWFlJywgJzxpbmZpbGUubWFlPicsICctb21hZScsICc8b3V0ZmlsZS5tYWU+Jw==

>  <s_epik_input>  (1460) 
TzFbQ0gyXU9jKGMxMilbY0hdW2NIXWMoW2NIXTIpW0NIMl1bTkhdYyhjKGMzNClbY0hdW2NIXVtjSF1bY0hdNCluYyhuMylbTkhdW0NIMl1bQ0gyXWM1W2NIXVtjSF1jKFtjSF1bY0hdNSlbQ0gyXU4oW0NIM10pW0NIM10=

>  <s_i_glide_gridfile>  (1460) 
ATP-Grid

>  <s_lp_Force_Field>  (1460) 
OPLS_2005

>  <s_lp_Variant>  (1460) 
m_282030aaa____21931302____22360182____21967972-2

>  <s_lp_label>  (1460) 
2021_sdstereoexpander_1_neutralizer_1_epik_2_stereoizer_1

>  <s_m_source_file>  (1460) 
ATP-VSW-LIGPREP-002-in.maegz

>  <s_sd_BIOSOLVEIT.INFINISEE\_QUERY\_NAME>  (1460) 
Ref-Lig

>  <s_sd_BIOSOLVEIT.INFINISEE\_QUERY\_SMILES>  (1460) 
S(c1nc2c(cc1C[NH2+]Cc3ccc(cc3)C[NH+](C)C)cccc2)Cc4ccccc4

>  <s_sd_BIOSOLVEIT.INFINISEE\_REACTION\_NAME>  (1460) 
m_282030aaa

>  <s_sd_BIOSOLVEIT.INFINISEE\_REAGENT1\_SMILES>  (1460) 
[R1*]NCc1cc2OCOc2cc1

>  <s_sd_BIOSOLVEIT.INFINISEE\_REAGENT2\_SMILES>  (1460) 
[R2*]c1nc([R1*])c2c(n1)cccc2

>  <s_sd_BIOSOLVEIT.INFINISEE\_REAGENT3\_SMILES>  (1460) 
[R2*]NCCc1ccc(cc1)CN(C)C

>  <s_sd_BIOSOLVEIT.INFINISEE\_SPACE>  (1460) 
REALSpace_44bn_2023-08

>  <s_vsw_compound_code>  (1460) 
64642

>  <s_vsw_variant>  (1460) 
64642-2

>  <r_epik_Charging_Adjusted_Penalty>  (1460) 
1.6432822327416701

>  <r_epik_Ionization_Penalty>  (1460) 
1.6177999999999999

>  <r_epik_Ionization_Penalty_Charging>  (1460) 
0.0146

>  <r_epik_Ionization_Penalty_Neutral>  (1460) 
1.6032

>  <r_epik_State_Penalty>  (1460) 
1.6287

>  <r_i_docking_score>  (1460) 
-2.4636696100414999

>  <r_i_glide_ecoul>  (1460) 
-2.7237548828125

>  <r_i_glide_eff_state_penalty>  (1460) 
1.6287

>  <r_i_glide_einternal>  (1460) 
10.9614210128784

>  <r_i_glide_emodel>  (1460) 
-46.538082662157997

>  <r_i_glide_energy>  (1460) 
-36.616199493408203

>  <r_i_glide_erotb>  (1460) 
0.77134249875098504

>  <r_i_glide_esite>  (1460) 
-0.22791525354591899

>  <r_i_glide_evdw>  (1460) 
-33.892444610595703

>  <r_i_glide_gscore>  (1460) 
-4.0923696100414997

>  <r_i_glide_hbond>  (1460) 
-0.21671830661434599

>  <r_i_glide_ligand_efficiency>  (1460) 
-0.072460870883573406

>  <r_i_glide_ligand_efficiency_ln>  (1460) 
-0.54429372045003299

>  <r_i_glide_ligand_efficiency_sa>  (1460) 
-0.23474509216933601

>  <r_i_glide_lipo>  (1460) 
-1.70363255822562

>  <r_i_glide_metal>  (1460) 
-0

>  <r_i_glide_rewards>  (1460) 
-0.61226052745493298

>  <r_lp_Energy>  (1460) 
28.278409

>  <r_lp_tautomer_probability>  (1460) 
1

>  <r_qp_ACxDN^.5/SA>  (1460) 
0.012730699999999999

>  <r_qp_CIQPlogS>  (1460) 
-6.2009999999999996

>  <r_qp_EA(eV)>  (1460) 
0.63

>  <r_qp_FISA>  (1460) 
51.414999999999999

>  <r_qp_FOSA>  (1460) 
336.83100000000002

>  <r_qp_IP(eV)>  (1460) 
8.0440000000000005

>  <r_qp_Jm>  (1460) 
0.077150523607315197

>  <r_qp_PISA>  (1460) 
333.81700000000001

>  <r_qp_PSA>  (1460) 
65.688000000000002

>  <r_qp_PercentHumanOralAbsorption>  (1460) 
100

>  <r_qp_QPPCaco>  (1460) 
803.95799999999997

>  <r_qp_QPPMDCK>  (1460) 
432.31299999999999

>  <r_qp_QPlogBB>  (1460) 
-0.075999999999999998

>  <r_qp_QPlogHERG>  (1460) 
-6.5700000000000003

>  <r_qp_QPlogKhsa>  (1460) 
0.69799999999999995

>  <r_qp_QPlogKp>  (1460) 
-2.4900000000000002

>  <r_qp_QPlogPC16>  (1460) 
14.201000000000001

>  <r_qp_QPlogPo/w>  (1460) 
4.6340000000000003

>  <r_qp_QPlogPoct>  (1460) 
21.745000000000001

>  <r_qp_QPlogPw>  (1460) 
11.423999999999999

>  <r_qp_QPlogS>  (1460) 
-4.282

>  <r_qp_QPpolrz>  (1460) 
46.656999999999996

>  <r_qp_SASA>  (1460) 
722.06299999999999

>  <r_qp_SAamideO>  (1460) 
0

>  <r_qp_SAfluorine>  (1460) 
0

>  <r_qp_WPSA>  (1460) 
0

>  <r_qp_accptHB>  (1460) 
6.5

>  <r_qp_dip^2/V>  (1460) 
0.0077862000000000001

>  <r_qp_dipole>  (1460) 
3.2829999999999999

>  <r_qp_donorHB>  (1460) 
2

>  <r_qp_glob>  (1460) 
0.83193550000000005

>  <r_qp_mol_MW>  (1460) 
455.55799999999999

>  <r_qp_volume>  (1460) 
1384.3620000000001

>  <r_sd_BIOSOLVEIT.INFINISEE\_FTREES\_SIMILARITY>  (1460) 
0.90200000000000002

>  <r_sd_BIOSOLVEIT.LOGP>  (1460) 
3.2696999999999998

>  <r_sd_BIOSOLVEIT.MOLECULAR\_WEIGHT>  (1460) 
456.56700000000001

>  <r_sd_BIOSOLVEIT.TPSA>  (1460) 
72.739999999999995

>  <i_epik_Tot_Q>  (1460) 
1

>  <i_epik_Tot_abs_Q>  (1460) 
1

>  <i_f3d_flags>  (1460) 
0

>  <i_i_glide_confnum>  (1460) 
14

>  <i_i_glide_lignum>  (1460) 
736

>  <i_i_glide_posenum>  (1460) 
6

>  <i_i_glide_rotatable_bonds>  (1460) 
9

>  <i_lp_mmshare_version>  (1460) 
65135

>  <i_m_ct_format>  (1460) 
2

>  <i_m_source_file_index>  (1460) 
2021

>  <i_qp_#NandO>  (1460) 
7

>  <i_qp_#acid>  (1460) 
0

>  <i_qp_#amide>  (1460) 
0

>  <i_qp_#amidine>  (1460) 
0

>  <i_qp_#amine>  (1460) 
1

>  <i_qp_#in34>  (1460) 
0

>  <i_qp_#in56>  (1460) 
25

>  <i_qp_#metab>  (1460) 
4

>  <i_qp_#nonHatm>  (1460) 
34

>  <i_qp_#noncon>  (1460) 
1

>  <i_qp_#ringatoms>  (1460) 
25

>  <i_qp_#rotor>  (1460) 
9

>  <i_qp_#rtvFG>  (1460) 
1

>  <i_qp_#stars>  (1460) 
0

>  <i_qp_CNS>  (1460) 
1

>  <i_qp_HumanOralAbsorption>  (1460) 
3

>  <i_qp_RuleOfFive>  (1460) 
0

>  <i_qp_RuleOfThree>  (1460) 
0

>  <i_sd_BIOSOLVEIT.INFINISEE\_REAGENT1\_NAME>  (1460) 
21931302

>  <i_sd_BIOSOLVEIT.INFINISEE\_REAGENT2\_NAME>  (1460) 
22360182

>  <i_sd_BIOSOLVEIT.INFINISEE\_REAGENT3\_NAME>  (1460) 
21967972

>  <i_sd_BIOSOLVEIT.INFINISEE\_RESULT\_RANK>  (1460) 
92324

>  <i_sd_version>  (1460) 
0

>  <b_lp_Chiralities_Consistent>  (1460) 
1

>  <b_sd_chiral_flag>  (1460) 
0

>  <canonical_id>  (1460) 
ATP-HTVS-E50B3258D66C

>  <compound_code>  (1460) 
64642

>  <title>  (1460) 
m_282030aaa____21931302____22360182____21967972

>  <variant>  (1460) 
64642-2

>  <source_file>  (1460) 
运行/运行/ATP-VSW/ATP-VSW-DOCK_HTVS_1-002_lib.maegz

>  <canonical_smiles>  (1460) 
CN(C)Cc1ccc(CCNc2nc(NCc3ccc4c(c3)OCO4)c3ccccc3[nH+]2)cc1

>  <scaffold>  (1460) 
c1ccc(CCNc2nc(NCc3ccc4c(c3)OCO4)c3ccccc3[nH+]2)cc1

>  <molecular_formula>  (1460) 
C27H30N5O2+

$$$$
ATP-HTVS-E5267662EBE5
     RDKit          3D

 62 65  0  0  0  0  0  0  0  0999 V2000
  199.2219  183.6133  155.6497 O   0  0  0  0  0  0  0  0  0  0  0  0
  198.1156  184.1407  155.7263 C   0  0  0  0  0  0  0  0  0  0  0  0
  197.5630  184.8479  154.7237 N   0  0  0  0  0  0  0  0  0  0  0  0
  198.1972  185.2144  153.4972 C   0  0  0  0  0  0  0  0  0  0  0  0
  197.9363  184.5011  152.2876 C   0  0  0  0  0  0  0  0  0  0  0  0
  197.0751  183.3957  152.1043 N   0  0  0  0  0  0  0  0  0  0  0  0
  196.4280  182.6034  153.1542 C   0  0  1  0  0  0  0  0  0  0  0  0
  197.2536  181.4430  153.6929 C   0  0  0  0  0  0  0  0  0  0  0  0
  198.3560  180.9259  152.9826 C   0  0  0  0  0  0  0  0  0  0  0  0
  199.1226  179.8636  153.5018 C   0  0  0  0  0  0  0  0  0  0  0  0
  198.7816  179.3077  154.7550 C   0  0  0  0  0  0  0  0  0  0  0  0
  197.6829  179.8264  155.4653 C   0  0  0  0  0  0  0  0  0  0  0  0
  196.9036  180.8646  154.9201 C   0  0  0  0  0  0  0  0  0  0  0  0
  199.5947  178.1579  155.3416 C   0  0  1  0  0  0  0  0  0  0  0  0
  199.9428  178.3231  156.7759 N   0  0  2  0  0  0  0  0  0  0  0  0
  200.6460  179.5952  157.0632 C   0  0  2  0  0  0  0  0  0  0  0  0
  200.6898  177.1606  157.2988 C   0  0  2  0  0  0  0  0  0  0  0  0
  198.5900  184.9539  151.1201 C   0  0  0  0  0  0  0  0  0  0  0  0
  199.4210  186.0104  151.0658 N   0  0  0  0  0  0  0  0  0  0  0  0
  199.6433  186.7150  152.1905 C   0  0  0  0  0  0  0  0  0  0  0  0
  199.0387  186.3693  153.4352 C   0  0  0  0  0  0  0  0  0  0  0  0
  199.2668  187.1888  154.5664 C   0  0  0  0  0  0  0  0  0  0  0  0
  200.1044  188.3143  154.4837 C   0  0  0  0  0  0  0  0  0  0  0  0
  200.7268  188.6340  153.2666 C   0  0  0  0  0  0  0  0  0  0  0  0
  200.4909  187.8387  152.1327 C   0  0  0  0  0  0  0  0  0  0  0  0
  197.2708  183.9301  156.9586 C   0  0  0  0  0  0  0  0  0  0  0  0
  196.7581  185.0489  157.6795 C   0  0  0  0  0  0  0  0  0  0  0  0
  197.0945  186.3167  157.2523 O   0  0  0  0  0  0  0  0  0  0  0  0
  196.5785  187.4241  157.9696 C   0  0  2  0  0  0  0  0  0  0  0  0
  195.9118  184.8091  158.8061 C   0  0  0  0  0  0  0  0  0  0  0  0
  195.5546  183.4953  159.1786 C   0  0  0  0  0  0  0  0  0  0  0  0
  196.0904  182.4053  158.4576 C   0  0  0  0  0  0  0  0  0  0  0  0
  196.9854  182.6170  157.3885 C   0  0  0  0  0  0  0  0  0  0  0  0
  196.5663  185.0160  154.7683 H   0  0  0  0  0  0  0  0  0  0  0  0
  197.1540  182.9208  151.2228 H   0  0  0  0  0  0  0  0  0  0  0  0
  196.0814  183.2199  153.9682 H   0  0  0  0  0  0  0  0  0  0  0  0
  195.5205  182.1854  152.7263 H   0  0  0  0  0  0  0  0  0  0  0  0
  198.6437  181.3455  152.0157 H   0  0  0  0  0  0  0  0  0  0  0  0
  199.9492  179.4649  152.9360 H   0  0  0  0  0  0  0  0  0  0  0  0
  197.4540  179.4514  156.4565 H   0  0  0  0  0  0  0  0  0  0  0  0
  196.0681  181.2600  155.5299 H   0  0  0  0  0  0  0  0  0  0  0  0
  199.0093  177.2527  155.2184 H   0  0  0  0  0  0  0  0  0  0  0  0
  200.5082  178.0322  154.7632 H   0  0  0  0  0  0  0  0  0  0  0  0
  201.5897  179.6604  156.5150 H   0  0  0  0  0  0  0  0  0  0  0  0
  200.8840  179.6695  158.1174 H   0  0  0  0  0  0  0  0  0  0  0  0
  200.0408  180.4685  156.8166 H   0  0  0  0  0  0  0  0  0  0  0  0
  201.6534  177.0481  156.7964 H   0  0  0  0  0  0  0  0  0  0  0  0
  200.1216  176.2416  157.1415 H   0  0  0  0  0  0  0  0  0  0  0  0
  200.8740  177.2558  158.3703 H   0  0  0  0  0  0  0  0  0  0  0  0
  198.4310  184.4558  150.1739 H   0  0  0  0  0  0  0  0  0  0  0  0
  198.7963  186.9708  155.5116 H   0  0  0  0  0  0  0  0  0  0  0  0
  200.2691  188.9294  155.3558 H   0  0  0  0  0  0  0  0  0  0  0  0
  201.3783  189.4921  153.2015 H   0  0  0  0  0  0  0  0  0  0  0  0
  200.9645  188.0953  151.1962 H   0  0  0  0  0  0  0  0  0  0  0  0
  196.9212  188.3438  157.4921 H   0  0  0  0  0  0  0  0  0  0  0  0
  196.9378  187.4140  159.0014 H   0  0  0  0  0  0  0  0  0  0  0  0
  195.4866  187.4159  157.9561 H   0  0  0  0  0  0  0  0  0  0  0  0
  195.5145  185.6259  159.4054 H   0  0  0  0  0  0  0  0  0  0  0  0
  194.9064  183.3256  160.0344 H   0  0  0  0  0  0  0  0  0  0  0  0
  195.8156  181.4045  158.7384 H   0  0  0  0  0  0  0  0  0  0  0  0
  197.4222  181.7587  156.9036 H   0  0  0  0  0  0  0  0  0  0  0  0
  199.0538  178.3272  157.2840 H   0  0  0  0  0  0  0  0  0  0  0  0
  1  2  2  0
  2  3  1  0
  2 26  1  0
  3  4  1  0
  3 34  1  0
  4  5  2  0
  4 21  1  0
  5  6  1  0
  5 18  1  0
  6  7  1  0
  6 35  1  0
  7  8  1  0
  7 36  1  1
  7 37  1  0
  8  9  1  0
  8 13  2  0
  9 10  2  0
  9 38  1  0
 10 11  1  0
 10 39  1  0
 11 12  2  0
 11 14  1  0
 12 13  1  0
 12 40  1  0
 13 41  1  0
 14 15  1  0
 14 42  1  1
 14 43  1  0
 15 16  1  0
 15 17  1  0
 15 62  1  1
 16 44  1  6
 16 45  1  0
 16 46  1  0
 17 47  1  6
 17 48  1  0
 17 49  1  0
 18 19  2  0
 18 50  1  0
 19 20  1  0
 20 21  1  0
 20 25  2  0
 21 22  2  0
 22 23  1  0
 22 51  1  0
 23 24  2  0
 23 52  1  0
 24 25  1  0
 24 53  1  0
 25 54  1  0
 26 27  1  0
 26 33  2  0
 27 28  1  0
 27 30  2  0
 28 29  1  0
 29 55  1  6
 29 56  1  0
 29 57  1  0
 30 31  1  0
 30 58  1  0
 31 32  2  0
 31 59  1  0
 32 33  1  0
 32 60  1  0
 33 61  1  0
M  CHG  1  15   1
M  END
>  <s_epik_cmdline>  (1461) 
J2VwaWtfcHl0aG9uJywgJy1waCcsICc3LjAwMDAwMCcsICctcGh0JywgJzIuMDAwMDAwJywgJy1tcycsICcxNicsICctdG4nLCAnOCcsICctbWEnLCAnMjAwJywgJy1pbWFlJywgJzxpbmZpbGUubWFlPicsICctb21hZScsICc8b3V0ZmlsZS5tYWU+Jw==

>  <s_epik_input>  (1461) 
W2NIXTFbY0hdW2NIXVtjSF1jKE9bQ0gzXSljMUMoPU8pW05IXWMoYyhjMjMpW2NIXVtjSF1bY0hdW2NIXTMpYyhbY0hdbjIpW05IXVtDSDJdYzRbY0hdW2NIXWMoW2NIXVtjSF00KVtDSDJdTihbQ0gzXSlbQ0gzXQ==

>  <s_i_glide_gridfile>  (1461) 
ATP-Grid

>  <s_lp_Force_Field>  (1461) 
OPLS_2005

>  <s_lp_Variant>  (1461) 
rxn502b____EMOL485008____EMOL13728749____EMOL50155899-1

>  <s_lp_label>  (1461) 
2245_sdstereoexpander_1_neutralizer_1_epik_1_stereoizer_1

>  <s_m_source_file>  (1461) 
ATP-VSW-LIGPREP-002-in.maegz

>  <s_sd_BIOSOLVEIT.INFINISEE\_QUERY\_NAME>  (1461) 
Ref-Lig

>  <s_sd_BIOSOLVEIT.INFINISEE\_QUERY\_SMILES>  (1461) 
S(c1nc2c(cc1C[NH2+]Cc3ccc(cc3)C[NH+](C)C)cccc2)Cc4ccccc4

>  <s_sd_BIOSOLVEIT.INFINISEE\_REACTION\_NAME>  (1461) 
rxn502b

>  <s_sd_BIOSOLVEIT.INFINISEE\_REAGENT1\_NAME>  (1461) 
EMOL485008

>  <s_sd_BIOSOLVEIT.INFINISEE\_REAGENT1\_SMILES>  (1461) 
O=C(O)c1c(OC)cccc1

>  <s_sd_BIOSOLVEIT.INFINISEE\_REAGENT2\_NAME>  (1461) 
EMOL13728749

>  <s_sd_BIOSOLVEIT.INFINISEE\_REAGENT2\_SMILES>  (1461) 
Brc1c(N)c2c(nc1)cccc2

>  <s_sd_BIOSOLVEIT.INFINISEE\_REAGENT3\_NAME>  (1461) 
EMOL50155899

>  <s_sd_BIOSOLVEIT.INFINISEE\_REAGENT3\_SMILES>  (1461) 
N(Cc1ccc(cc1)CN)(C)C

>  <s_sd_BIOSOLVEIT.INFINISEE\_SPACE>  (1461) 
eXplore_7tr_2022-12

>  <s_vsw_compound_code>  (1461) 
71810

>  <s_vsw_variant>  (1461) 
71810-1

>  <r_epik_Charging_Adjusted_Penalty>  (1461) 
0.11763899382156499

>  <r_epik_Ionization_Penalty>  (1461) 
0.078399999999999997

>  <r_epik_Ionization_Penalty_Charging>  (1461) 
0.039199999999999999

>  <r_epik_Ionization_Penalty_Neutral>  (1461) 
0.039199999999999999

>  <r_epik_State_Penalty>  (1461) 
0.078399999999999997

>  <r_i_docking_score>  (1461) 
-3.6288842608318301

>  <r_i_glide_ecoul>  (1461) 
-8.1131744384765607

>  <r_i_glide_eff_state_penalty>  (1461) 
0.078399999999999997

>  <r_i_glide_einternal>  (1461) 
7.5826506614685103

>  <r_i_glide_emodel>  (1461) 
-52.281397301962301

>  <r_i_glide_energy>  (1461) 
-42.379856109619098

>  <r_i_glide_erotb>  (1461) 
0.71722435937715501

>  <r_i_glide_esite>  (1461) 
-0.11437969330893701

>  <r_i_glide_evdw>  (1461) 
-34.266681671142599

>  <r_i_glide_gscore>  (1461) 
-3.7072842608318299

>  <r_i_glide_hbond>  (1461) 
-0.20000000000000001

>  <r_i_glide_ligand_efficiency>  (1461) 
-0.109966189722177

>  <r_i_glide_ligand_efficiency_ln>  (1461) 
-0.80704507025188099

>  <r_i_glide_ligand_efficiency_sa>  (1461) 
-0.35272032826161998

>  <r_i_glide_lipo>  (1461) 
-0.78126022302598397

>  <r_i_glide_metal>  (1461) 
-0

>  <r_i_glide_rewards>  (1461) 
-0.39855845454545302

>  <r_lp_Energy>  (1461) 
40.976146999999997

>  <r_lp_tautomer_probability>  (1461) 
1

>  <r_qp_ACxDN^.5/SA>  (1461) 
0.0145962

>  <r_qp_CIQPlogS>  (1461) 
-5.4950000000000001

>  <r_qp_EA(eV)>  (1461) 
0.77600000000000002

>  <r_qp_FISA>  (1461) 
57.435000000000002

>  <r_qp_FOSA>  (1461) 
258.57999999999998

>  <r_qp_IP(eV)>  (1461) 
8.1609999999999996

>  <r_qp_Jm>  (1461) 
0.18462776354486601

>  <r_qp_PISA>  (1461) 
386.43299999999999

>  <r_qp_PSA>  (1461) 
60.365000000000002

>  <r_qp_PercentHumanOralAbsorption>  (1461) 
100

>  <r_qp_QPPCaco>  (1461) 
704.92100000000005

>  <r_qp_QPPMDCK>  (1461) 
375.04899999999998

>  <r_qp_QPlogBB>  (1461) 
-0.058999999999999997

>  <r_qp_QPlogHERG>  (1461) 
-6.6459999999999999

>  <r_qp_QPlogKhsa>  (1461) 
0.53400000000000003

>  <r_qp_QPlogKp>  (1461) 
-2.5110000000000001

>  <r_qp_QPlogPC16>  (1461) 
14.333

>  <r_qp_QPlogPo/w>  (1461) 
4.1749999999999998

>  <r_qp_QPlogPoct>  (1461) 
22.684999999999999

>  <r_qp_QPlogPw>  (1461) 
12.734999999999999

>  <r_qp_QPlogS>  (1461) 
-3.8660000000000001

>  <r_qp_QPpolrz>  (1461) 
46.595999999999997

>  <r_qp_SASA>  (1461) 
702.44799999999998

>  <r_qp_SAamideO>  (1461) 
0

>  <r_qp_SAfluorine>  (1461) 
0

>  <r_qp_WPSA>  (1461) 
0

>  <r_qp_accptHB>  (1461) 
7.25

>  <r_qp_dip^2/V>  (1461) 
0.035227099999999997

>  <r_qp_dipole>  (1461) 
6.907

>  <r_qp_donorHB>  (1461) 
2

>  <r_qp_glob>  (1461) 
0.84271050000000003

>  <r_qp_mol_MW>  (1461) 
440.54399999999998

>  <r_qp_volume>  (1461) 
1354.2270000000001

>  <r_sd_BIOSOLVEIT.INFINISEE\_FTREES\_SIMILARITY>  (1461) 
0.92700000000000005

>  <r_sd_BIOSOLVEIT.LOGP>  (1461) 
3.7523

>  <r_sd_BIOSOLVEIT.MOLECULAR\_WEIGHT>  (1461) 
441.55200000000002

>  <r_sd_BIOSOLVEIT.TPSA>  (1461) 
67.689999999999998

>  <i_epik_Tot_Q>  (1461) 
1

>  <i_epik_Tot_abs_Q>  (1461) 
1

>  <i_f3d_flags>  (1461) 
0

>  <i_i_glide_confnum>  (1461) 
2

>  <i_i_glide_lignum>  (1461) 
886

>  <i_i_glide_posenum>  (1461) 
9

>  <i_i_glide_rotatable_bonds>  (1461) 
9

>  <i_lp_mmshare_version>  (1461) 
65135

>  <i_m_ct_format>  (1461) 
2

>  <i_m_source_file_index>  (1461) 
2245

>  <i_qp_#NandO>  (1461) 
6

>  <i_qp_#acid>  (1461) 
0

>  <i_qp_#amide>  (1461) 
0

>  <i_qp_#amidine>  (1461) 
0

>  <i_qp_#amine>  (1461) 
1

>  <i_qp_#in34>  (1461) 
0

>  <i_qp_#in56>  (1461) 
22

>  <i_qp_#metab>  (1461) 
7

>  <i_qp_#nonHatm>  (1461) 
33

>  <i_qp_#noncon>  (1461) 
0

>  <i_qp_#ringatoms>  (1461) 
22

>  <i_qp_#rotor>  (1461) 
8

>  <i_qp_#rtvFG>  (1461) 
0

>  <i_qp_#stars>  (1461) 
0

>  <i_qp_CNS>  (1461) 
1

>  <i_qp_HumanOralAbsorption>  (1461) 
3

>  <i_qp_RuleOfFive>  (1461) 
0

>  <i_qp_RuleOfThree>  (1461) 
1

>  <i_sd_BIOSOLVEIT.INFINISEE\_RESULT\_RANK>  (1461) 
7291

>  <i_sd_version>  (1461) 
0

>  <b_lp_Chiralities_Consistent>  (1461) 
1

>  <b_sd_chiral_flag>  (1461) 
0

>  <canonical_id>  (1461) 
ATP-HTVS-E5267662EBE5

>  <compound_code>  (1461) 
71810

>  <title>  (1461) 
rxn502b____EMOL485008____EMOL13728749____EMOL50155899

>  <variant>  (1461) 
71810-1

>  <source_file>  (1461) 
运行/运行/ATP-VSW/ATP-VSW-DOCK_HTVS_1-002_lib.maegz

>  <canonical_smiles>  (1461) 
COc1ccccc1C(=O)Nc1c(NCc2ccc(C[NH+](C)C)cc2)cnc2ccccc12

>  <scaffold>  (1461) 
O=C(Nc1c(NCc2ccccc2)cnc2ccccc12)c1ccccc1

>  <molecular_formula>  (1461) 
C27H29N4O2+

$$$$
ATP-HTVS-E53927646B4E
     RDKit          3D

 56 59  0  0  0  0  0  0  0  0999 V2000
  199.8087  184.5593  159.7073 O   0  0  0  0  0  0  0  0  0  0  0  0
  199.0264  184.0211  158.9239 C   0  0  0  0  0  0  0  0  0  0  0  0
  199.3024  183.3482  157.7877 N   0  0  0  0  0  0  0  0  0  0  0  0
  198.0777  182.9534  157.0457 C   0  0  2  0  0  0  0  0  0  0  0  0
  196.9832  183.4685  157.9508 C   0  0  0  0  0  0  0  0  0  0  0  0
  197.5574  184.0704  159.0475 C   0  0  0  0  0  0  0  0  0  0  0  0
  196.7930  184.6594  160.0658 C   0  0  0  0  0  0  0  0  0  0  0  0
  195.3881  184.6102  159.9498 C   0  0  0  0  0  0  0  0  0  0  0  0
  194.7871  183.9884  158.8310 C   0  0  0  0  0  0  0  0  0  0  0  0
  195.5914  183.4184  157.8182 C   0  0  0  0  0  0  0  0  0  0  0  0
  197.9895  181.4301  156.8299 C   0  0  1  0  0  0  0  0  0  0  0  0
  196.8121  181.0297  156.0355 N   0  0  1  0  0  0  0  0  0  0  0  0
  196.9195  179.7218  155.3683 C   0  0  1  0  0  0  0  0  0  0  0  0
  198.0159  179.6945  154.3146 C   0  0  0  0  0  0  0  0  0  0  0  0
  199.2777  179.0844  154.5618 C   0  0  0  0  0  0  0  0  0  0  0  0
  199.5186  178.4381  155.8204 N   0  0  0  0  0  0  0  0  0  0  0  0
  200.7015  178.2243  156.4267 C   0  0  0  0  0  0  0  0  0  0  0  0
  201.7904  178.5383  155.9623 O   0  0  0  0  0  0  0  0  0  0  0  0
  200.6373  177.5841  157.8071 C   0  0  2  0  0  0  0  0  0  0  0  0
  200.2516  179.1143  153.5351 C   0  0  0  0  0  0  0  0  0  0  0  0
  199.9907  179.7483  152.3062 C   0  0  0  0  0  0  0  0  0  0  0  0
  198.7428  180.3474  152.0695 C   0  0  0  0  0  0  0  0  0  0  0  0
  197.7585  180.3170  153.0718 C   0  0  0  0  0  0  0  0  0  0  0  0
  200.6306  183.2642  157.1637 C   0  0  1  0  0  0  0  0  0  0  0  0
  201.6714  182.5392  158.0084 C   0  0  0  0  0  0  0  0  0  0  0  0
  202.3399  183.2029  159.0674 C   0  0  0  0  0  0  0  0  0  0  0  0
  203.2445  182.4957  159.8963 C   0  0  0  0  0  0  0  0  0  0  0  0
  203.5231  181.1368  159.6291 C   0  0  0  0  0  0  0  0  0  0  0  0
  202.8920  180.4964  158.5454 C   0  0  0  0  0  0  0  0  0  0  0  0
  201.9712  181.1875  157.7368 C   0  0  0  0  0  0  0  0  0  0  0  0
  196.0282  180.9630  156.6714 H   0  0  0  0  0  0  0  0  0  0  0  0
  198.0592  183.4812  156.0896 H   0  0  0  0  0  0  0  0  0  0  0  0
  197.2606  185.1487  160.9047 H   0  0  0  0  0  0  0  0  0  0  0  0
  194.7844  185.0662  160.7174 H   0  0  0  0  0  0  0  0  0  0  0  0
  193.7113  183.9753  158.7411 H   0  0  0  0  0  0  0  0  0  0  0  0
  195.1468  182.9563  156.9371 H   0  0  0  0  0  0  0  0  0  0  0  0
  198.9183  181.1091  156.3573 H   0  0  0  0  0  0  0  0  0  0  0  0
  197.9194  180.8870  157.7687 H   0  0  0  0  0  0  0  0  0  0  0  0
  197.0970  178.9225  156.0831 H   0  0  0  0  0  0  0  0  0  0  0  0
  195.9604  179.4939  154.9077 H   0  0  0  0  0  0  0  0  0  0  0  0
  198.7106  178.2031  156.3805 H   0  0  0  0  0  0  0  0  0  0  0  0
  200.1158  178.2323  158.5113 H   0  0  0  0  0  0  0  0  0  0  0  0
  201.6490  177.4286  158.1832 H   0  0  0  0  0  0  0  0  0  0  0  0
  200.1231  176.6288  157.7580 H   0  0  0  0  0  0  0  0  0  0  0  0
  201.2196  178.6530  153.6511 H   0  0  0  0  0  0  0  0  0  0  0  0
  200.7583  179.7690  151.5482 H   0  0  0  0  0  0  0  0  0  0  0  0
  198.5485  180.8291  151.1229 H   0  0  0  0  0  0  0  0  0  0  0  0
  196.7964  180.7773  152.8804 H   0  0  0  0  0  0  0  0  0  0  0  0
  200.5482  182.7447  156.2082 H   0  0  0  0  0  0  0  0  0  0  0  0
  201.0007  184.2557  156.9121 H   0  0  0  0  0  0  0  0  0  0  0  0
  202.1653  184.2465  159.2762 H   0  0  0  0  0  0  0  0  0  0  0  0
  203.7234  182.9975  160.7324 H   0  0  0  0  0  0  0  0  0  0  0  0
  204.2285  180.5976  160.2462 H   0  0  0  0  0  0  0  0  0  0  0  0
  203.1128  179.4650  158.3273 H   0  0  0  0  0  0  0  0  0  0  0  0
  201.4928  180.6719  156.8953 H   0  0  0  0  0  0  0  0  0  0  0  0
  196.6136  181.7407  155.3385 H   0  0  0  0  0  0  0  0  0  0  0  0
  1  2  2  0
  2  3  1  0
  2  6  1  0
  3  4  1  0
  3 24  1  0
  4  5  1  0
  4 11  1  0
  4 32  1  6
  5  6  1  0
  5 10  2  0
  6  7  2  0
  7  8  1  0
  7 33  1  0
  8  9  2  0
  8 34  1  0
  9 10  1  0
  9 35  1  0
 10 36  1  0
 11 12  1  0
 11 37  1  6
 11 38  1  0
 12 13  1  0
 12 31  1  1
 12 56  1  0
 13 14  1  0
 13 39  1  1
 13 40  1  0
 14 15  1  0
 14 23  2  0
 15 16  1  0
 15 20  2  0
 16 17  1  0
 16 41  1  0
 17 18  2  0
 17 19  1  0
 19 42  1  1
 19 43  1  0
 19 44  1  0
 20 21  1  0
 20 45  1  0
 21 22  2  0
 21 46  1  0
 22 23  1  0
 22 47  1  0
 23 48  1  0
 24 25  1  0
 24 49  1  6
 24 50  1  0
 25 26  2  0
 25 30  1  0
 26 27  1  0
 26 51  1  0
 27 28  2  0
 27 52  1  0
 28 29  1  0
 28 53  1  0
 29 30  2  0
 29 54  1  0
 30 55  1  0
M  CHG  1  12   1
M  END
>  <s_epik_cmdline>  (1462) 
J2VwaWtfcHl0aG9uJywgJy1waCcsICc3LjAwMDAwMCcsICctcGh0JywgJzIuMDAwMDAwJywgJy1tcycsICcxNicsICctdG4nLCAnOCcsICctbWEnLCAnMjAwJywgJy1pbWFlJywgJzxpbmZpbGUubWFlPicsICctb21hZScsICc8b3V0ZmlsZS5tYWU+Jw==

>  <s_epik_input>  (1462) 
W2NIXTFbY0hdW2NIXVtjSF1bY0hdYzFbQ0gyXU4oQyg9TyljKGMyMylbY0hdW2NIXVtjSF1bY0hdMylbQ0BIXTJbQ0gyXVtOSF1bQ0gyXWM0YyhbTkhdQyg9TylbQ0gzXSlbY0hdW2NIXVtjSF1bY0hdNA==

>  <s_i_glide_gridfile>  (1462) 
ATP-Grid

>  <s_lp_Force_Field>  (1462) 
OPLS_2005

>  <s_lp_Variant>  (1462) 
m_270004bbb____12219716____7678070-1

>  <s_lp_label>  (1462) 
1026_sdstereoexpander_1_neutralizer_1_epik_1_stereoizer_1

>  <s_m_source_file>  (1462) 
ATP-VSW-LIGPREP-002-in.maegz

>  <s_sd_BIOSOLVEIT.INFINISEE\_QUERY\_NAME>  (1462) 
Ref-Lig

>  <s_sd_BIOSOLVEIT.INFINISEE\_QUERY\_SMILES>  (1462) 
S(c1nc2c(cc1C[NH2+]Cc3ccc(cc3)C[NH+](C)C)cccc2)Cc4ccccc4

>  <s_sd_BIOSOLVEIT.INFINISEE\_REACTION\_NAME>  (1462) 
m_270004bbb

>  <s_sd_BIOSOLVEIT.INFINISEE\_REAGENT1\_SMILES>  (1462) 
[R1*]NCC1N(C(=O)c2c1cccc2)Cc3ccccc3

>  <s_sd_BIOSOLVEIT.INFINISEE\_REAGENT2\_SMILES>  (1462) 
[R1*]Cc1c(NC(=O)C)cccc1

>  <s_sd_BIOSOLVEIT.INFINISEE\_SPACE>  (1462) 
REALSpace_44bn_2023-08

>  <s_vsw_compound_code>  (1462) 
32802

>  <s_vsw_variant>  (1462) 
32802-1

>  <r_epik_Charging_Adjusted_Penalty>  (1462) 
0.121580837503503

>  <r_epik_Ionization_Penalty>  (1462) 
0.0608

>  <r_epik_Ionization_Penalty_Charging>  (1462) 
0.0608

>  <r_epik_Ionization_Penalty_Neutral>  (1462) 
0

>  <r_epik_State_Penalty>  (1462) 
0.0608

>  <r_i_docking_score>  (1462) 
-4.3072637742462696

>  <r_i_glide_ecoul>  (1462) 
-9.9296941757202095

>  <r_i_glide_eff_state_penalty>  (1462) 
0.0608

>  <r_i_glide_einternal>  (1462) 
3.3286297321319598

>  <r_i_glide_emodel>  (1462) 
-53.874816199417303

>  <r_i_glide_energy>  (1462) 
-39.137478828430197

>  <r_i_glide_erotb>  (1462) 
0.85560142518069704

>  <r_i_glide_esite>  (1462) 
-0.16461507518299201

>  <r_i_glide_evdw>  (1462) 
-29.20778465271

>  <r_i_glide_gscore>  (1462) 
-4.36806377424627

>  <r_i_glide_hbond>  (1462) 
-0.047940020545491797

>  <r_i_glide_ligand_efficiency>  (1462) 
-0.14357545914154199

>  <r_i_glide_ligand_efficiency_ln>  (1462) 
-0.97865726090648197

>  <r_i_glide_ligand_efficiency_sa>  (1462) 
-0.44612233319606698

>  <r_i_glide_lipo>  (1462) 
-1.03392163878816

>  <r_i_glide_metal>  (1462) 
-0

>  <r_i_glide_rewards>  (1462) 
-1.02734510591679

>  <r_lp_Energy>  (1462) 
49.832740999999999

>  <r_qp_ACxDN^.5/SA>  (1462) 
0.015141099999999999

>  <r_qp_CIQPlogS>  (1462) 
-4.6520000000000001

>  <r_qp_EA(eV)>  (1462) 
0.315

>  <r_qp_FISA>  (1462) 
57.799999999999997

>  <r_qp_FOSA>  (1462) 
145.93600000000001

>  <r_qp_IP(eV)>  (1462) 
8.8360000000000003

>  <r_qp_Jm>  (1462) 
0.82925064387536995

>  <r_qp_PISA>  (1462) 
450.08100000000002

>  <r_qp_PSA>  (1462) 
71.953000000000003

>  <r_qp_PercentHumanOralAbsorption>  (1462) 
100

>  <r_qp_QPPCaco>  (1462) 
699.33100000000002

>  <r_qp_QPPMDCK>  (1462) 
371.83499999999998

>  <r_qp_QPlogBB>  (1462) 
0.019

>  <r_qp_QPlogHERG>  (1462) 
-6.665

>  <r_qp_QPlogKhsa>  (1462) 
0.377

>  <r_qp_QPlogKp>  (1462) 
-2.3900000000000001

>  <r_qp_QPlogPC16>  (1462) 
13.901

>  <r_qp_QPlogPo/w>  (1462) 
3.7410000000000001

>  <r_qp_QPlogPoct>  (1462) 
22.170000000000002

>  <r_qp_QPlogPw>  (1462) 
13.026999999999999

>  <r_qp_QPlogS>  (1462) 
-3.2930000000000001

>  <r_qp_QPpolrz>  (1462) 
43.845999999999997

>  <r_qp_SASA>  (1462) 
653.81700000000001

>  <r_qp_SAamideO>  (1462) 
0

>  <r_qp_SAfluorine>  (1462) 
0

>  <r_qp_WPSA>  (1462) 
0

>  <r_qp_accptHB>  (1462) 
7

>  <r_qp_dip^2/V>  (1462) 
0.065769599999999998

>  <r_qp_dipole>  (1462) 
9.0830000000000002

>  <r_qp_donorHB>  (1462) 
2

>  <r_qp_glob>  (1462) 
0.86028130000000003

>  <r_qp_mol_MW>  (1462) 
399.49099999999999

>  <r_qp_volume>  (1462) 
1254.289

>  <r_sd_BIOSOLVEIT.INFINISEE\_FTREES\_SIMILARITY>  (1462) 
0.91500000000000004

>  <r_sd_BIOSOLVEIT.LOGP>  (1462) 
3.1057000000000001

>  <r_sd_BIOSOLVEIT.MOLECULAR\_WEIGHT>  (1462) 
400.49900000000002

>  <r_sd_BIOSOLVEIT.TPSA>  (1462) 
66.019999999999996

>  <i_epik_Tot_Q>  (1462) 
1

>  <i_epik_Tot_abs_Q>  (1462) 
1

>  <i_f3d_flags>  (1462) 
0

>  <i_i_glide_confnum>  (1462) 
4

>  <i_i_glide_lignum>  (1462) 
331

>  <i_i_glide_posenum>  (1462) 
2

>  <i_i_glide_rotatable_bonds>  (1462) 
8

>  <i_lp_mmshare_version>  (1462) 
65135

>  <i_m_ct_format>  (1462) 
2

>  <i_m_source_file_index>  (1462) 
1026

>  <i_qp_#NandO>  (1462) 
5

>  <i_qp_#acid>  (1462) 
0

>  <i_qp_#amide>  (1462) 
0

>  <i_qp_#amidine>  (1462) 
0

>  <i_qp_#amine>  (1462) 
1

>  <i_qp_#in34>  (1462) 
0

>  <i_qp_#in56>  (1462) 
21

>  <i_qp_#metab>  (1462) 
5

>  <i_qp_#nonHatm>  (1462) 
30

>  <i_qp_#noncon>  (1462) 
1

>  <i_qp_#ringatoms>  (1462) 
21

>  <i_qp_#rotor>  (1462) 
7

>  <i_qp_#rtvFG>  (1462) 
0

>  <i_qp_#stars>  (1462) 
1

>  <i_qp_CNS>  (1462) 
1

>  <i_qp_HumanOralAbsorption>  (1462) 
3

>  <i_qp_RuleOfFive>  (1462) 
0

>  <i_qp_RuleOfThree>  (1462) 
0

>  <i_sd_BIOSOLVEIT.INFINISEE\_REAGENT1\_NAME>  (1462) 
12219716

>  <i_sd_BIOSOLVEIT.INFINISEE\_REAGENT2\_NAME>  (1462) 
7678070

>  <i_sd_BIOSOLVEIT.INFINISEE\_RESULT\_RANK>  (1462) 
27808

>  <i_sd_version>  (1462) 
0

>  <b_lp_Chiralities_Consistent>  (1462) 
1

>  <b_sd_chiral_flag>  (1462) 
0

>  <canonical_id>  (1462) 
ATP-HTVS-E53927646B4E

>  <compound_code>  (1462) 
32802

>  <title>  (1462) 
m_270004bbb____12219716____7678070

>  <variant>  (1462) 
32802-1

>  <source_file>  (1462) 
运行/运行/ATP-VSW/ATP-VSW-DOCK_HTVS_1-002_lib.maegz

>  <canonical_smiles>  (1462) 
CC(=O)Nc1ccccc1C[NH2+]C[C@H]1c2ccccc2C(=O)N1Cc1ccccc1

>  <scaffold>  (1462) 
O=C1c2ccccc2C(C[NH2+]Cc2ccccc2)N1Cc1ccccc1

>  <molecular_formula>  (1462) 
C25H26N3O2+

$$$$
ATP-HTVS-E53B79A527AF
     RDKit          3D

 53 56  0  0  0  0  0  0  0  0999 V2000
  199.3003  187.0364  155.4095 O   0  0  0  0  0  0  0  0  0  0  0  0
  198.3007  186.3621  155.1744 C   0  0  0  0  0  0  0  0  0  0  0  0
  198.0237  185.8040  153.9811 N   0  0  0  0  0  0  0  0  0  0  0  0
  198.7726  185.8687  152.7704 C   0  0  0  0  0  0  0  0  0  0  0  0
  198.5566  184.8835  151.7711 C   0  0  0  0  0  0  0  0  0  0  0  0
  197.6275  183.8458  151.9854 N   0  0  0  0  0  0  0  0  0  0  0  0
  196.5150  183.8385  151.2296 C   0  0  0  0  0  0  0  0  0  0  0  0
  195.5914  183.8392  150.5367 N   0  0  0  0  0  0  0  0  0  0  0  0
  197.8354  182.8530  152.9683 C   0  0  0  0  0  0  0  0  0  0  0  0
  196.7512  182.0837  153.4500 C   0  0  0  0  0  0  0  0  0  0  0  0
  196.9396  181.1222  154.4616 C   0  0  0  0  0  0  0  0  0  0  0  0
  198.2202  180.9081  155.0008 C   0  0  0  0  0  0  0  0  0  0  0  0
  199.3128  181.6537  154.5229 C   0  0  0  0  0  0  0  0  0  0  0  0
  199.1246  182.6157  153.5116 C   0  0  0  0  0  0  0  0  0  0  0  0
  199.2926  184.9821  150.5577 C   0  0  0  0  0  0  0  0  0  0  0  0
  200.1927  186.0711  150.3917 C   0  0  0  0  0  0  0  0  0  0  0  0
  200.3839  187.0006  151.3472 N   0  0  0  0  0  0  0  0  0  0  0  0
  199.6967  186.9041  152.4979 C   0  0  0  0  0  0  0  0  0  0  0  0
  200.9208  186.1872  149.1906 C   0  0  0  0  0  0  0  0  0  0  0  0
  200.7835  185.2387  148.1617 C   0  0  0  0  0  0  0  0  0  0  0  0
  199.8982  184.1604  148.3261 C   0  0  0  0  0  0  0  0  0  0  0  0
  199.1570  184.0302  149.5152 C   0  0  0  0  0  0  0  0  0  0  0  0
  197.2693  186.1153  156.2772 C   0  0  1  0  0  0  0  0  0  0  0  0
  197.8956  186.0513  157.6873 C   0  0  1  0  0  0  0  0  0  0  0  0
  196.8658  186.0840  158.8046 C   0  0  0  0  0  0  0  0  0  0  0  0
  196.0377  184.9684  159.1006 C   0  0  0  0  0  0  0  0  0  0  0  0
  195.1035  185.0632  160.1487 C   0  0  0  0  0  0  0  0  0  0  0  0
  194.9948  186.2383  160.9169 C   0  0  0  0  0  0  0  0  0  0  0  0
  195.8193  187.3402  160.6296 C   0  0  0  0  0  0  0  0  0  0  0  0
  196.7461  187.2628  159.5753 C   0  0  0  0  0  0  0  0  0  0  0  0
  196.1192  183.6639  158.3244 C   0  0  2  0  0  0  0  0  0  0  0  0
  197.2216  185.1909  153.9539 H   0  0  0  0  0  0  0  0  0  0  0  0
  195.7530  182.2356  153.0670 H   0  0  0  0  0  0  0  0  0  0  0  0
  196.0983  180.5589  154.8354 H   0  0  0  0  0  0  0  0  0  0  0  0
  198.3575  180.1762  155.7854 H   0  0  0  0  0  0  0  0  0  0  0  0
  200.2982  181.4955  154.9368 H   0  0  0  0  0  0  0  0  0  0  0  0
  199.9825  183.1751  153.1689 H   0  0  0  0  0  0  0  0  0  0  0  0
  199.8869  187.7128  153.1877 H   0  0  0  0  0  0  0  0  0  0  0  0
  201.6094  187.0113  149.0729 H   0  0  0  0  0  0  0  0  0  0  0  0
  201.3592  185.3404  147.2522 H   0  0  0  0  0  0  0  0  0  0  0  0
  199.7985  183.4240  147.5408 H   0  0  0  0  0  0  0  0  0  0  0  0
  198.4978  183.1829  149.6185 H   0  0  0  0  0  0  0  0  0  0  0  0
  196.5378  186.9228  156.2308 H   0  0  0  0  0  0  0  0  0  0  0  0
  196.7417  185.1921  156.0504 H   0  0  0  0  0  0  0  0  0  0  0  0
  198.5147  185.1600  157.7914 H   0  0  0  0  0  0  0  0  0  0  0  0
  198.5723  186.8920  157.8418 H   0  0  0  0  0  0  0  0  0  0  0  0
  194.4699  184.2195  160.3776 H   0  0  0  0  0  0  0  0  0  0  0  0
  194.2813  186.2945  161.7243 H   0  0  0  0  0  0  0  0  0  0  0  0
  195.7431  188.2447  161.2174 H   0  0  0  0  0  0  0  0  0  0  0  0
  197.3702  188.1219  159.3670 H   0  0  0  0  0  0  0  0  0  0  0  0
  195.5404  182.8758  158.8078 H   0  0  0  0  0  0  0  0  0  0  0  0
  197.1481  183.3149  158.2370 H   0  0  0  0  0  0  0  0  0  0  0  0
  195.6960  183.7831  157.3306 H   0  0  0  0  0  0  0  0  0  0  0  0
  1  2  2  0
  2  3  1  0
  2 23  1  0
  3  4  1  0
  3 32  1  0
  4  5  2  0
  4 18  1  0
  5  6  1  0
  5 15  1  0
  6  7  1  0
  6  9  1  0
  7  8  3  0
  9 10  2  0
  9 14  1  0
 10 11  1  0
 10 33  1  0
 11 12  2  0
 11 34  1  0
 12 13  1  0
 12 35  1  0
 13 14  2  0
 13 36  1  0
 14 37  1  0
 15 16  1  0
 15 22  2  0
 16 17  1  0
 16 19  2  0
 17 18  2  0
 18 38  1  0
 19 20  1  0
 19 39  1  0
 20 21  2  0
 20 40  1  0
 21 22  1  0
 21 41  1  0
 22 42  1  0
 23 24  1  0
 23 43  1  1
 23 44  1  0
 24 25  1  0
 24 45  1  6
 24 46  1  0
 25 26  1  0
 25 30  2  0
 26 27  2  0
 26 31  1  0
 27 28  1  0
 27 47  1  0
 28 29  2  0
 28 48  1  0
 29 30  1  0
 29 49  1  0
 30 50  1  0
 31 51  1  1
 31 52  1  0
 31 53  1  0
M  END
>  <s_epik_cmdline>  (1463) 
J2VwaWtfcHl0aG9uJywgJy1waCcsICc3LjAwMDAwMCcsICctcGh0JywgJzIuMDAwMDAwJywgJy1tcycsICcxNicsICctdG4nLCAnOCcsICctbWEnLCAnMjAwJywgJy1pbWFlJywgJzxpbmZpbGUubWFlPicsICctb21hZScsICc8b3V0ZmlsZS5tYWU+Jw==

>  <s_epik_input>  (1463) 
W2NIXTFbY0hdW2NIXVtjSF1jKFtDSDNdKWMxW0NIMl1bQ0gyXUMoPU8pW05IXWMoW2NIXW5jKGMyMylbY0hdW2NIXVtjSF1bY0hdMyljMk4oQyNOKWM0W2NIXVtjSF1bY0hdW2NIXVtjSF00

>  <s_i_glide_gridfile>  (1463) 
ATP-Grid

>  <s_lp_Force_Field>  (1463) 
OPLS_2005

>  <s_lp_Variant>  (1463) 
rxn502b____EMOL507679____EMOL30488121____EMOL36822768-1

>  <s_lp_label>  (1463) 
2505_sdstereoexpander_1_neutralizer_1_epik_1_stereoizer_1

>  <s_m_source_file>  (1463) 
ATP-VSW-LIGPREP-001-in.maegz

>  <s_sd_BIOSOLVEIT.INFINISEE\_QUERY\_NAME>  (1463) 
Ref-Lig

>  <s_sd_BIOSOLVEIT.INFINISEE\_QUERY\_SMILES>  (1463) 
S(c1nc2c(cc1C[NH2+]Cc3ccc(cc3)C[NH+](C)C)cccc2)Cc4ccccc4

>  <s_sd_BIOSOLVEIT.INFINISEE\_REACTION\_NAME>  (1463) 
rxn502b

>  <s_sd_BIOSOLVEIT.INFINISEE\_REAGENT1\_NAME>  (1463) 
EMOL507679

>  <s_sd_BIOSOLVEIT.INFINISEE\_REAGENT1\_SMILES>  (1463) 
O=C(O)CCc1c(cccc1)C

>  <s_sd_BIOSOLVEIT.INFINISEE\_REAGENT2\_NAME>  (1463) 
EMOL30488121

>  <s_sd_BIOSOLVEIT.INFINISEE\_REAGENT2\_SMILES>  (1463) 
Brc1c(N)cnc2c1cccc2

>  <s_sd_BIOSOLVEIT.INFINISEE\_REAGENT3\_NAME>  (1463) 
EMOL36822768

>  <s_sd_BIOSOLVEIT.INFINISEE\_REAGENT3\_SMILES>  (1463) 
N#CNc1ccccc1

>  <s_sd_BIOSOLVEIT.INFINISEE\_SPACE>  (1463) 
eXplore_7tr_2022-12

>  <s_vsw_compound_code>  (1463) 
80129

>  <s_vsw_variant>  (1463) 
80129-1

>  <r_epik_Charging_Adjusted_Penalty>  (1463) 
0.0051804986598443402

>  <r_epik_Ionization_Penalty>  (1463) 
0.0051999999999999998

>  <r_epik_Ionization_Penalty_Charging>  (1463) 
0

>  <r_epik_Ionization_Penalty_Neutral>  (1463) 
0.0051999999999999998

>  <r_epik_State_Penalty>  (1463) 
0.0051999999999999998

>  <r_i_docking_score>  (1463) 
-3.4528666126526302

>  <r_i_glide_ecoul>  (1463) 
-1.8959978818893399

>  <r_i_glide_eff_state_penalty>  (1463) 
0.0051999999999999998

>  <r_i_glide_einternal>  (1463) 
1.2470285892486599

>  <r_i_glide_emodel>  (1463) 
-39.7755605586459

>  <r_i_glide_energy>  (1463) 
-32.940908312797497

>  <r_i_glide_erotb>  (1463) 
0.83303723483175196

>  <r_i_glide_esite>  (1463) 
-0.0045960309902689104

>  <r_i_glide_evdw>  (1463) 
-31.0449104309082

>  <r_i_glide_gscore>  (1463) 
-3.45806661265263

>  <r_i_glide_hbond>  (1463) 
-0.235645183101509

>  <r_i_glide_ligand_efficiency>  (1463) 
-0.111382793956536

>  <r_i_glide_ligand_efficiency_ln>  (1463) 
-0.77872723880662698

>  <r_i_glide_ligand_efficiency_sa>  (1463) 
-0.349895753543848

>  <r_i_glide_lipo>  (1463) 
-1.5765747932001599

>  <r_i_glide_metal>  (1463) 
-0

>  <r_i_glide_rewards>  (1463) 
-0.63764263636363505

>  <r_lp_Energy>  (1463) 
29.855716000000001

>  <r_qp_ACxDN^.5/SA>  (1463) 
0.0087042000000000005

>  <r_qp_CIQPlogS>  (1463) 
-6.5990000000000002

>  <r_qp_EA(eV)>  (1463) 
1.423

>  <r_qp_FISA>  (1463) 
88.384

>  <r_qp_FOSA>  (1463) 
114.684

>  <r_qp_IP(eV)>  (1463) 
8.7650000000000006

>  <r_qp_Jm>  (1463) 
1.0067993085276401

>  <r_qp_PISA>  (1463) 
428.80700000000002

>  <r_qp_PSA>  (1463) 
68.662000000000006

>  <r_qp_PercentHumanOralAbsorption>  (1463) 
100

>  <r_qp_QPPCaco>  (1463) 
1437.9849999999999

>  <r_qp_QPPMDCK>  (1463) 
732.59500000000003

>  <r_qp_QPlogBB>  (1463) 
-0.622

>  <r_qp_QPlogHERG>  (1463) 
-5.5439999999999996

>  <r_qp_QPlogKhsa>  (1463) 
0.61199999999999999

>  <r_qp_QPlogKp>  (1463) 
-0.96599999999999997

>  <r_qp_QPlogPC16>  (1463) 
13.547000000000001

>  <r_qp_QPlogPo/w>  (1463) 
4.6159999999999997

>  <r_qp_QPlogPoct>  (1463) 
19.411000000000001

>  <r_qp_QPlogPw>  (1463) 
10.096

>  <r_qp_QPlogS>  (1463) 
-4.6399999999999997

>  <r_qp_QPpolrz>  (1463) 
42.656999999999996

>  <r_qp_SASA>  (1463) 
631.875

>  <r_qp_SAamideO>  (1463) 
0

>  <r_qp_SAfluorine>  (1463) 
0

>  <r_qp_WPSA>  (1463) 
0

>  <r_qp_accptHB>  (1463) 
5.5

>  <r_qp_dip^2/V>  (1463) 
0.047338199999999997

>  <r_qp_dipole>  (1463) 
7.6299999999999999

>  <r_qp_donorHB>  (1463) 
1

>  <r_qp_glob>  (1463) 
0.87846120000000005

>  <r_qp_mol_MW>  (1463) 
406.48599999999999

>  <r_qp_volume>  (1463) 
1229.655

>  <r_sd_BIOSOLVEIT.INFINISEE\_FTREES\_SIMILARITY>  (1463) 
0.91400000000000003

>  <r_sd_BIOSOLVEIT.LOGP>  (1463) 
5.7336999999999998

>  <r_sd_BIOSOLVEIT.MOLECULAR\_WEIGHT>  (1463) 
406.48700000000002

>  <r_sd_BIOSOLVEIT.TPSA>  (1463) 
69.019999999999996

>  <i_epik_Tot_Q>  (1463) 
0

>  <i_epik_Tot_abs_Q>  (1463) 
0

>  <i_f3d_flags>  (1463) 
0

>  <i_i_glide_confnum>  (1463) 
4

>  <i_i_glide_lignum>  (1463) 
987

>  <i_i_glide_posenum>  (1463) 
9

>  <i_i_glide_rotatable_bonds>  (1463) 
7

>  <i_lp_mmshare_version>  (1463) 
65135

>  <i_m_ct_format>  (1463) 
2

>  <i_m_source_file_index>  (1463) 
2505

>  <i_qp_#NandO>  (1463) 
5

>  <i_qp_#acid>  (1463) 
0

>  <i_qp_#amide>  (1463) 
0

>  <i_qp_#amidine>  (1463) 
0

>  <i_qp_#amine>  (1463) 
0

>  <i_qp_#in34>  (1463) 
0

>  <i_qp_#in56>  (1463) 
22

>  <i_qp_#metab>  (1463) 
5

>  <i_qp_#nonHatm>  (1463) 
31

>  <i_qp_#noncon>  (1463) 
0

>  <i_qp_#ringatoms>  (1463) 
22

>  <i_qp_#rotor>  (1463) 
7

>  <i_qp_#rtvFG>  (1463) 
0

>  <i_qp_#stars>  (1463) 
0

>  <i_qp_CNS>  (1463) 
0

>  <i_qp_HumanOralAbsorption>  (1463) 
3

>  <i_qp_RuleOfFive>  (1463) 
0

>  <i_qp_RuleOfThree>  (1463) 
0

>  <i_sd_BIOSOLVEIT.INFINISEE\_RESULT\_RANK>  (1463) 
31260

>  <i_sd_version>  (1463) 
0

>  <b_lp_Chiralities_Consistent>  (1463) 
1

>  <b_sd_chiral_flag>  (1463) 
0

>  <canonical_id>  (1463) 
ATP-HTVS-E53B79A527AF

>  <compound_code>  (1463) 
80129

>  <title>  (1463) 
rxn502b____EMOL507679____EMOL30488121____EMOL36822768

>  <variant>  (1463) 
80129-1

>  <source_file>  (1463) 
运行/运行/ATP-VSW/ATP-VSW-DOCK_HTVS_1-001_lib/ATP-VSW-DOCK_HTVS_1-001_lib

>  <canonical_smiles>  (1463) 
Cc1ccccc1CCC(=O)Nc1cnc2ccccc2c1N(C#N)c1ccccc1

>  <scaffold>  (1463) 
O=C(CCc1ccccc1)Nc1cnc2ccccc2c1Nc1ccccc1

>  <molecular_formula>  (1463) 
C26H22N4O

$$$$
ATP-HTVS-E5655BB07D18
     RDKit          3D

 61 64  0  0  0  0  0  0  0  0999 V2000
  200.8502  176.0599  156.5596 F   0  0  0  0  0  0  0  0  0  0  0  0
  200.5625  177.3801  156.4727 C   0  0  0  0  0  0  0  0  0  0  0  0
  201.1529  178.2926  157.3657 C   0  0  0  0  0  0  0  0  0  0  0  0
  200.8596  179.6656  157.2666 C   0  0  0  0  0  0  0  0  0  0  0  0
  199.9617  180.1302  156.2772 C   0  0  0  0  0  0  0  0  0  0  0  0
  199.3903  179.2185  155.3707 C   0  0  0  0  0  0  0  0  0  0  0  0
  199.6651  177.8372  155.4915 C   0  0  0  0  0  0  0  0  0  0  0  0
  199.6172  181.6105  156.1979 C   0  0  1  0  0  0  0  0  0  0  0  0
  198.2026  181.9039  155.9079 N   0  0  0  0  0  0  0  0  0  0  0  0
  197.8799  183.2446  155.6047 C   0  0  0  0  0  0  0  0  0  0  0  0
  197.5150  183.5725  154.2696 C   0  0  0  0  0  0  0  0  0  0  0  0
  197.5548  182.5496  153.2800 N   0  0  0  0  0  0  0  0  0  0  0  0
  197.0248  182.5200  152.0465 C   0  0  0  0  0  0  0  0  0  0  0  0
  196.3508  183.4245  151.5415 O   0  0  0  0  0  0  0  0  0  0  0  0
  197.3445  181.2693  151.2662 C   0  0  0  0  0  0  0  0  0  0  0  0
  197.6525  181.2923  149.8765 C   0  0  0  0  0  0  0  0  0  0  0  0
  197.8762  180.0687  149.2008 C   0  0  0  0  0  0  0  0  0  0  0  0
  197.8341  178.8425  149.8844 C   0  0  0  0  0  0  0  0  0  0  0  0
  197.5690  178.8213  151.2595 C   0  0  0  0  0  0  0  0  0  0  0  0
  197.3074  180.0229  151.9438 C   0  0  0  0  0  0  0  0  0  0  0  0
  197.7459  182.5985  149.0685 C   0  0  1  0  0  0  0  0  0  0  0  0
  198.7481  182.6114  148.0024 N   0  0  0  0  0  0  0  0  0  0  0  0
  198.6206  183.8489  147.2416 C   0  0  2  0  0  0  0  0  0  0  0  0
  200.0959  182.5495  148.5647 C   0  0  2  0  0  0  0  0  0  0  0  0
  197.1510  184.9008  153.9656 C   0  0  0  0  0  0  0  0  0  0  0  0
  197.1516  185.8373  154.9267 N   0  0  0  0  0  0  0  0  0  0  0  0
  197.5162  185.5928  156.2102 C   0  0  0  0  0  0  0  0  0  0  0  0
  197.8864  184.2756  156.5920 C   0  0  0  0  0  0  0  0  0  0  0  0
  198.2372  184.0463  157.9483 C   0  0  0  0  0  0  0  0  0  0  0  0
  198.2659  185.1092  158.8735 C   0  0  0  0  0  0  0  0  0  0  0  0
  197.8931  186.4072  158.4790 C   0  0  0  0  0  0  0  0  0  0  0  0
  197.5058  186.6505  157.1468 C   0  0  0  0  0  0  0  0  0  0  0  0
  197.1071  181.1329  156.4924 C   0  0  2  0  0  0  0  0  0  0  0  0
  201.8404  177.9392  158.1200 H   0  0  0  0  0  0  0  0  0  0  0  0
  201.3068  180.3595  157.9728 H   0  0  0  0  0  0  0  0  0  0  0  0
  198.7174  179.5528  154.6028 H   0  0  0  0  0  0  0  0  0  0  0  0
  199.1698  177.1428  154.8300 H   0  0  0  0  0  0  0  0  0  0  0  0
  199.9199  182.0676  157.1400 H   0  0  0  0  0  0  0  0  0  0  0  0
  200.2410  182.0626  155.4259 H   0  0  0  0  0  0  0  0  0  0  0  0
  198.0132  181.7026  153.5894 H   0  0  0  0  0  0  0  0  0  0  0  0
  198.0844  180.0605  148.1415 H   0  0  0  0  0  0  0  0  0  0  0  0
  198.0151  177.9171  149.3593 H   0  0  0  0  0  0  0  0  0  0  0  0
  197.5458  177.8838  151.7893 H   0  0  0  0  0  0  0  0  0  0  0  0
  197.0692  179.9707  152.9945 H   0  0  0  0  0  0  0  0  0  0  0  0
  196.7605  182.7811  148.6353 H   0  0  0  0  0  0  0  0  0  0  0  0
  197.9598  183.4470  149.7180 H   0  0  0  0  0  0  0  0  0  0  0  0
  199.3595  183.8839  146.4401 H   0  0  0  0  0  0  0  0  0  0  0  0
  198.7645  184.7256  147.8758 H   0  0  0  0  0  0  0  0  0  0  0  0
  197.6324  183.9188  146.7837 H   0  0  0  0  0  0  0  0  0  0  0  0
  200.8410  182.5696  147.7693 H   0  0  0  0  0  0  0  0  0  0  0  0
  200.2455  181.6261  149.1247 H   0  0  0  0  0  0  0  0  0  0  0  0
  200.2900  183.3876  149.2356 H   0  0  0  0  0  0  0  0  0  0  0  0
  196.8508  185.2634  152.9933 H   0  0  0  0  0  0  0  0  0  0  0  0
  198.4871  183.0588  158.3024 H   0  0  0  0  0  0  0  0  0  0  0  0
  198.5704  184.9197  159.8903 H   0  0  0  0  0  0  0  0  0  0  0  0
  197.8951  187.2109  159.2048 H   0  0  0  0  0  0  0  0  0  0  0  0
  197.2086  187.6508  156.8625 H   0  0  0  0  0  0  0  0  0  0  0  0
  196.1298  181.5986  156.3185 H   0  0  0  0  0  0  0  0  0  0  0  0
  197.2443  181.0304  157.5703 H   0  0  0  0  0  0  0  0  0  0  0  0
  197.0453  180.1263  156.0709 H   0  0  0  0  0  0  0  0  0  0  0  0
  196.8644  186.7808  154.6566 H   0  0  0  0  0  0  0  0  0  0  0  0
  1  2  1  0
  2  3  1  0
  2  7  2  0
  3  4  2  0
  3 34  1  0
  4  5  1  0
  4 35  1  0
  5  6  2  0
  5  8  1  0
  6  7  1  0
  6 36  1  0
  7 37  1  0
  8  9  1  0
  8 38  1  1
  8 39  1  0
  9 10  1  0
  9 33  1  0
 10 11  2  0
 10 28  1  0
 11 12  1  0
 11 25  1  0
 12 13  1  0
 12 40  1  0
 13 14  2  0
 13 15  1  0
 15 16  1  0
 15 20  2  0
 16 17  2  0
 16 21  1  0
 17 18  1  0
 17 41  1  0
 18 19  2  0
 18 42  1  0
 19 20  1  0
 19 43  1  0
 20 44  1  0
 21 22  1  0
 21 45  1  6
 21 46  1  0
 22 23  1  0
 22 24  1  0
 23 47  1  6
 23 48  1  0
 23 49  1  0
 24 50  1  6
 24 51  1  0
 24 52  1  0
 25 26  2  0
 25 53  1  0
 26 27  1  0
 26 61  1  0
 27 28  1  0
 27 32  2  0
 28 29  2  0
 29 30  1  0
 29 54  1  0
 30 31  2  0
 30 55  1  0
 31 32  1  0
 31 56  1  0
 32 57  1  0
 33 58  1  1
 33 59  1  0
 33 60  1  0
M  CHG  1  26   1
M  END
>  <s_epik_cmdline>  (1464) 
J2VwaWtfcHl0aG9uJywgJy1waCcsICc3LjAwMDAwMCcsICctcGh0JywgJzIuMDAwMDAwJywgJy1tcycsICcxNicsICctdG4nLCAnOCcsICctbWEnLCAnMjAwJywgJy1pbWFlJywgJzxpbmZpbGUubWFlPicsICctb21hZScsICc8b3V0ZmlsZS5tYWU+Jw==

>  <s_epik_input>  (1464) 
RmMxW2NIXVtjSF1jKFtjSF1bY0hdMSlbQ0gyXU4oW0NIM10pYyhjKGMyMylbY0hdW2NIXVtjSF1bY0hdMyljKFtjSF1uMilbTkhdQyg9TyljNGMoW0NIMl1OKFtDSDNdKVtDSDNdKVtjSF1bY0hdW2NIXVtjSF00

>  <s_i_glide_gridfile>  (1464) 
ATP-Grid

>  <s_lp_Force_Field>  (1464) 
OPLS_2005

>  <s_lp_Variant>  (1464) 
rxn502b____EMOL5415347____EMOL30488121____EMOL523557-2

>  <s_lp_label>  (1464) 
2763_sdstereoexpander_1_neutralizer_1_epik_2_stereoizer_1

>  <s_m_source_file>  (1464) 
ATP-VSW-LIGPREP-002-in.maegz

>  <s_sd_BIOSOLVEIT.INFINISEE\_QUERY\_NAME>  (1464) 
Ref-Lig

>  <s_sd_BIOSOLVEIT.INFINISEE\_QUERY\_SMILES>  (1464) 
S(c1nc2c(cc1C[NH2+]Cc3ccc(cc3)C[NH+](C)C)cccc2)Cc4ccccc4

>  <s_sd_BIOSOLVEIT.INFINISEE\_REACTION\_NAME>  (1464) 
rxn502b

>  <s_sd_BIOSOLVEIT.INFINISEE\_REAGENT1\_NAME>  (1464) 
EMOL5415347

>  <s_sd_BIOSOLVEIT.INFINISEE\_REAGENT1\_SMILES>  (1464) 
O=C(O)c1c(cccc1)CN(C)C

>  <s_sd_BIOSOLVEIT.INFINISEE\_REAGENT2\_NAME>  (1464) 
EMOL30488121

>  <s_sd_BIOSOLVEIT.INFINISEE\_REAGENT2\_SMILES>  (1464) 
Brc1c(N)cnc2c1cccc2

>  <s_sd_BIOSOLVEIT.INFINISEE\_REAGENT3\_NAME>  (1464) 
EMOL523557

>  <s_sd_BIOSOLVEIT.INFINISEE\_REAGENT3\_SMILES>  (1464) 
Fc1ccc(cc1)CNC

>  <s_sd_BIOSOLVEIT.INFINISEE\_SPACE>  (1464) 
eXplore_7tr_2022-12

>  <s_vsw_compound_code>  (1464) 
88386

>  <s_vsw_variant>  (1464) 
88386-2

>  <r_epik_Charging_Adjusted_Penalty>  (1464) 
1.45674015033597

>  <r_epik_Ionization_Penalty>  (1464) 
1.4079999999999999

>  <r_epik_Ionization_Penalty_Charging>  (1464) 
0.043099999999999999

>  <r_epik_Ionization_Penalty_Neutral>  (1464) 
1.3648

>  <r_epik_State_Penalty>  (1464) 
1.4136

>  <r_i_docking_score>  (1464) 
-2.4029527483972202

>  <r_i_glide_ecoul>  (1464) 
-5.6897168159484899

>  <r_i_glide_eff_state_penalty>  (1464) 
1.4136

>  <r_i_glide_einternal>  (1464) 
1.32451736927032

>  <r_i_glide_emodel>  (1464) 
-49.671130285836902

>  <r_i_glide_energy>  (1464) 
-38.513775348663302

>  <r_i_glide_erotb>  (1464) 
0.71138917051285899

>  <r_i_glide_esite>  (1464) 
-0.054522486142449103

>  <r_i_glide_evdw>  (1464) 
-32.824058532714801

>  <r_i_glide_gscore>  (1464) 
-3.8165527483972199

>  <r_i_glide_hbond>  (1464) 
0

>  <r_i_glide_ligand_efficiency>  (1464) 
-0.072816749951430906

>  <r_i_glide_ligand_efficiency_ln>  (1464) 
-0.53440424942008302

>  <r_i_glide_ligand_efficiency_sa>  (1464) 
-0.23356222499571899

>  <r_i_glide_lipo>  (1464) 
-1.14611009933694

>  <r_i_glide_metal>  (1464) 
-0

>  <r_i_glide_rewards>  (1464) 
-0.83264888440267404

>  <r_lp_Energy>  (1464) 
43.592218000000003

>  <r_qp_ACxDN^.5/SA>  (1464) 
0.0097566000000000007

>  <r_qp_CIQPlogS>  (1464) 
-5.8810000000000002

>  <r_qp_EA(eV)>  (1464) 
1.1279999999999999

>  <r_qp_FISA>  (1464) 
54.179000000000002

>  <r_qp_FOSA>  (1464) 
182.47399999999999

>  <r_qp_IP(eV)>  (1464) 
8.718

>  <r_qp_Jm>  (1464) 
0.211872893414595

>  <r_qp_PISA>  (1464) 
395.12400000000002

>  <r_qp_PSA>  (1464) 
46.298999999999999

>  <r_qp_PercentHumanOralAbsorption>  (1464) 
100

>  <r_qp_QPPCaco>  (1464) 
756.87300000000005

>  <r_qp_QPPMDCK>  (1464) 
625.33100000000002

>  <r_qp_QPlogBB>  (1464) 
0.156

>  <r_qp_QPlogHERG>  (1464) 
-6.1139999999999999

>  <r_qp_QPlogKhsa>  (1464) 
0.68300000000000005

>  <r_qp_QPlogKp>  (1464) 
-2.5169999999999999

>  <r_qp_QPlogPC16>  (1464) 
13.712

>  <r_qp_QPlogPo/w>  (1464) 
4.6349999999999998

>  <r_qp_QPlogPoct>  (1464) 
21.027000000000001

>  <r_qp_QPlogPw>  (1464) 
10.714

>  <r_qp_QPlogS>  (1464) 
-3.8029999999999999

>  <r_qp_QPpolrz>  (1464) 
46.374000000000002

>  <r_qp_SASA>  (1464) 
666.21400000000006

>  <r_qp_SAamideO>  (1464) 
0

>  <r_qp_SAfluorine>  (1464) 
34.436

>  <r_qp_WPSA>  (1464) 
34.436

>  <r_qp_accptHB>  (1464) 
6.5

>  <r_qp_dip^2/V>  (1464) 
0.031343700000000002

>  <r_qp_dipole>  (1464) 
6.4580000000000002

>  <r_qp_donorHB>  (1464) 
1

>  <r_qp_glob>  (1464) 
0.87816450000000001

>  <r_qp_mol_MW>  (1464) 
442.53500000000003

>  <r_qp_volume>  (1464) 
1330.567

>  <r_sd_BIOSOLVEIT.INFINISEE\_FTREES\_SIMILARITY>  (1464) 
0.90700000000000003

>  <r_sd_BIOSOLVEIT.LOGP>  (1464) 
3.9070999999999998

>  <r_sd_BIOSOLVEIT.MOLECULAR\_WEIGHT>  (1464) 
443.54300000000001

>  <r_sd_BIOSOLVEIT.TPSA>  (1464) 
49.670000000000002

>  <i_epik_Tot_Q>  (1464) 
1

>  <i_epik_Tot_abs_Q>  (1464) 
1

>  <i_f3d_flags>  (1464) 
0

>  <i_i_glide_confnum>  (1464) 
2

>  <i_i_glide_lignum>  (1464) 
1335

>  <i_i_glide_posenum>  (1464) 
6

>  <i_i_glide_rotatable_bonds>  (1464) 
8

>  <i_lp_mmshare_version>  (1464) 
65135

>  <i_m_ct_format>  (1464) 
2

>  <i_m_source_file_index>  (1464) 
2763

>  <i_qp_#NandO>  (1464) 
5

>  <i_qp_#acid>  (1464) 
0

>  <i_qp_#amide>  (1464) 
0

>  <i_qp_#amidine>  (1464) 
0

>  <i_qp_#amine>  (1464) 
1

>  <i_qp_#in34>  (1464) 
0

>  <i_qp_#in56>  (1464) 
22

>  <i_qp_#metab>  (1464) 
5

>  <i_qp_#nonHatm>  (1464) 
33

>  <i_qp_#noncon>  (1464) 
0

>  <i_qp_#ringatoms>  (1464) 
22

>  <i_qp_#rotor>  (1464) 
7

>  <i_qp_#rtvFG>  (1464) 
0

>  <i_qp_#stars>  (1464) 
0

>  <i_qp_CNS>  (1464) 
1

>  <i_qp_HumanOralAbsorption>  (1464) 
3

>  <i_qp_RuleOfFive>  (1464) 
0

>  <i_qp_RuleOfThree>  (1464) 
0

>  <i_sd_BIOSOLVEIT.INFINISEE\_RESULT\_RANK>  (1464) 
59476

>  <i_sd_version>  (1464) 
0

>  <b_lp_Chiralities_Consistent>  (1464) 
1

>  <b_sd_chiral_flag>  (1464) 
0

>  <canonical_id>  (1464) 
ATP-HTVS-E5655BB07D18

>  <compound_code>  (1464) 
88386

>  <title>  (1464) 
rxn502b____EMOL5415347____EMOL30488121____EMOL523557

>  <variant>  (1464) 
88386-2

>  <source_file>  (1464) 
运行/运行/ATP-VSW/ATP-VSW-DOCK_HTVS_1-002_lib.maegz

>  <canonical_smiles>  (1464) 
CN(C)Cc1ccccc1C(=O)Nc1c[nH+]c2ccccc2c1N(C)Cc1ccc(F)cc1

>  <scaffold>  (1464) 
O=C(Nc1c[nH+]c2ccccc2c1NCc1ccccc1)c1ccccc1

>  <molecular_formula>  (1464) 
C27H28FN4O+

$$$$
ATP-HTVS-E5C360ABD75A
     RDKit          3D

 63 66  0  0  0  0  0  0  0  0999 V2000
  198.3592  175.9568  149.4537 O   0  0  0  0  0  0  0  0  0  0  0  0
  198.4494  177.0320  150.0531 C   0  0  0  0  0  0  0  0  0  0  0  0
  197.8820  178.1811  149.5992 N   0  0  0  0  0  0  0  0  0  0  0  0
  197.9823  179.3847  150.3116 C   0  0  0  0  0  0  0  0  0  0  0  0
  198.6664  179.5099  151.4648 C   0  0  0  0  0  0  0  0  0  0  0  0
  199.3677  178.3352  152.0430 C   0  0  0  0  0  0  0  0  0  0  0  0
  199.2362  177.1034  151.3464 C   0  0  0  0  0  0  0  0  0  0  0  0
  199.8491  175.9370  151.8579 C   0  0  0  0  0  0  0  0  0  0  0  0
  200.5961  175.9840  153.0505 C   0  0  0  0  0  0  0  0  0  0  0  0
  200.7624  177.2073  153.7227 C   0  0  0  0  0  0  0  0  0  0  0  0
  200.1720  178.3766  153.2142 C   0  0  0  0  0  0  0  0  0  0  0  0
  198.7310  180.8197  152.1057 C   0  0  0  0  0  0  0  0  0  0  0  0
  199.0673  181.8523  151.5302 O   0  0  0  0  0  0  0  0  0  0  0  0
  198.3495  180.7445  153.3940 N   0  0  0  0  0  0  0  0  0  0  0  0
  198.3617  181.7212  154.4228 C   0  0  0  0  0  0  0  0  0  0  0  0
  197.7305  181.3637  155.6347 C   0  0  0  0  0  0  0  0  0  0  0  0
  197.6995  182.2610  156.7204 C   0  0  0  0  0  0  0  0  0  0  0  0
  198.3266  183.5189  156.6019 C   0  0  0  0  0  0  0  0  0  0  0  0
  198.9583  183.8832  155.3962 C   0  0  0  0  0  0  0  0  0  0  0  0
  198.9816  182.9884  154.3097 C   0  0  0  0  0  0  0  0  0  0  0  0
  196.9986  181.8625  158.0079 C   0  0  1  0  0  0  0  0  0  0  0  0
  195.5531  182.2361  157.9915 N   0  0  1  0  0  0  0  0  0  0  0  0
  194.7313  181.4616  158.9500 C   0  0  1  0  0  0  0  0  0  0  0  0
  193.3838  181.0214  158.3586 C   0  0  2  0  0  0  0  0  0  0  0  0
  195.3022  183.6994  158.0752 C   0  0  1  0  0  0  0  0  0  0  0  0
  195.5762  184.3217  159.4566 C   0  0  2  0  0  0  0  0  0  0  0  0
  197.1734  178.2214  148.3101 C   0  0  1  0  0  0  0  0  0  0  0  0
  197.9733  178.8483  147.1673 C   0  0  0  0  0  0  0  0  0  0  0  0
  197.5818  178.6020  145.8306 C   0  0  0  0  0  0  0  0  0  0  0  0
  198.2868  179.1943  144.7617 C   0  0  0  0  0  0  0  0  0  0  0  0
  199.3884  180.0343  145.0117 C   0  0  0  0  0  0  0  0  0  0  0  0
  199.7847  180.2827  146.3389 C   0  0  0  0  0  0  0  0  0  0  0  0
  199.0893  179.6901  147.4085 C   0  0  0  0  0  0  0  0  0  0  0  0
  197.4809  180.2253  149.8547 H   0  0  0  0  0  0  0  0  0  0  0  0
  199.7335  174.9898  151.3500 H   0  0  0  0  0  0  0  0  0  0  0  0
  201.0433  175.0857  153.4484 H   0  0  0  0  0  0  0  0  0  0  0  0
  201.3373  177.2552  154.6371 H   0  0  0  0  0  0  0  0  0  0  0  0
  200.3510  179.2909  153.7561 H   0  0  0  0  0  0  0  0  0  0  0  0
  198.0448  179.8297  153.6813 H   0  0  0  0  0  0  0  0  0  0  0  0
  197.2732  180.3879  155.7424 H   0  0  0  0  0  0  0  0  0  0  0  0
  198.3111  184.2201  157.4226 H   0  0  0  0  0  0  0  0  0  0  0  0
  199.4256  184.8532  155.3023 H   0  0  0  0  0  0  0  0  0  0  0  0
  199.4967  183.2922  153.4124 H   0  0  0  0  0  0  0  0  0  0  0  0
  197.1484  180.7866  158.1165 H   0  0  0  0  0  0  0  0  0  0  0  0
  197.4974  182.3120  158.8634 H   0  0  0  0  0  0  0  0  0  0  0  0
  195.2656  180.5938  159.3327 H   0  0  0  0  0  0  0  0  0  0  0  0
  194.5414  182.0850  159.8279 H   0  0  0  0  0  0  0  0  0  0  0  0
  192.7905  180.5062  159.1110 H   0  0  0  0  0  0  0  0  0  0  0  0
  193.5101  180.3409  157.5221 H   0  0  0  0  0  0  0  0  0  0  0  0
  192.8028  181.8740  158.0142 H   0  0  0  0  0  0  0  0  0  0  0  0
  195.9166  184.2174  157.3499 H   0  0  0  0  0  0  0  0  0  0  0  0
  194.2702  183.8796  157.7761 H   0  0  0  0  0  0  0  0  0  0  0  0
  195.3980  185.4004  159.4351 H   0  0  0  0  0  0  0  0  0  0  0  0
  196.6152  184.2003  159.7592 H   0  0  0  0  0  0  0  0  0  0  0  0
  194.9435  183.8714  160.2264 H   0  0  0  0  0  0  0  0  0  0  0  0
  196.8561  177.2234  147.9982 H   0  0  0  0  0  0  0  0  0  0  0  0
  196.2428  178.7782  148.4342 H   0  0  0  0  0  0  0  0  0  0  0  0
  196.7378  177.9572  145.6156 H   0  0  0  0  0  0  0  0  0  0  0  0
  197.9923  179.0039  143.7393 H   0  0  0  0  0  0  0  0  0  0  0  0
  199.9380  180.4794  144.1949 H   0  0  0  0  0  0  0  0  0  0  0  0
  200.6247  180.9252  146.5516 H   0  0  0  0  0  0  0  0  0  0  0  0
  199.4417  179.9162  148.4044 H   0  0  0  0  0  0  0  0  0  0  0  0
  195.2262  181.9551  157.0767 H   0  0  0  0  0  0  0  0  0  0  0  0
  1  2  2  0
  2  3  1  0
  2  7  1  0
  3  4  1  0
  3 27  1  0
  4  5  2  0
  4 34  1  0
  5  6  1  0
  5 12  1  0
  6  7  1  0
  6 11  2  0
  7  8  2  0
  8  9  1  0
  8 35  1  0
  9 10  2  0
  9 36  1  0
 10 11  1  0
 10 37  1  0
 11 38  1  0
 12 13  2  0
 12 14  1  0
 14 15  1  0
 14 39  1  0
 15 16  2  0
 15 20  1  0
 16 17  1  0
 16 40  1  0
 17 18  2  0
 17 21  1  0
 18 19  1  0
 18 41  1  0
 19 20  2  0
 19 42  1  0
 20 43  1  0
 21 22  1  0
 21 44  1  1
 21 45  1  0
 22 23  1  0
 22 25  1  0
 22 63  1  6
 23 24  1  0
 23 46  1  1
 23 47  1  0
 24 48  1  1
 24 49  1  0
 24 50  1  0
 25 26  1  0
 25 51  1  6
 25 52  1  0
 26 53  1  6
 26 54  1  0
 26 55  1  0
 27 28  1  0
 27 56  1  6
 27 57  1  0
 28 29  2  0
 28 33  1  0
 29 30  1  0
 29 58  1  0
 30 31  2  0
 30 59  1  0
 31 32  1  0
 31 60  1  0
 32 33  2  0
 32 61  1  0
 33 62  1  0
M  CHG  1  22   1
M  END
>  <s_epik_cmdline>  (1465) 
J2VwaWtfcHl0aG9uJywgJy1waCcsICc3LjAwMDAwMCcsICctcGh0JywgJzIuMDAwMDAwJywgJy1tcycsICcxNicsICctdG4nLCAnOCcsICctbWEnLCAnMjAwJywgJy1pbWFlJywgJzxpbmZpbGUubWFlPicsICctb21hZScsICc8b3V0ZmlsZS5tYWU+Jw==

>  <s_epik_input>  (1465) 
W2NIXTFbY0hdW2NIXVtjSF1bY0hdYzFbQ0gyXW4oYyg9TyljKGMyMylbY0hdW2NIXVtjSF1bY0hdMylbY0hdYzJDKD1PKVtOSF1jNFtjSF1jKFtjSF1bY0hdW2NIXTQpW0NIMl1OKFtDSDJdW0NIM10pW0NIMl1bQ0gzXQ==

>  <s_i_glide_gridfile>  (1465) 
ATP-Grid

>  <s_lp_Force_Field>  (1465) 
OPLS_2005

>  <s_lp_Variant>  (1465) 
a1____54790____409552-1

>  <s_lp_label>  (1465) 
261_sdstereoexpander_1_neutralizer_1_epik_1_stereoizer_1

>  <s_m_source_file>  (1465) 
ATP-VSW-LIGPREP-001-in.maegz

>  <s_sd_BIOSOLVEIT.INFINISEE\_QUERY\_NAME>  (1465) 
Ref-Lig

>  <s_sd_BIOSOLVEIT.INFINISEE\_QUERY\_SMILES>  (1465) 
S(c1nc2c(cc1C[NH2+]Cc3ccc(cc3)C[NH+](C)C)cccc2)Cc4ccccc4

>  <s_sd_BIOSOLVEIT.INFINISEE\_REACTION\_NAME>  (1465) 
a1

>  <s_sd_BIOSOLVEIT.INFINISEE\_REAGENT1\_SMILES>  (1465) 
[R1*]Nc1cc(ccc1)CN(CC)CC

>  <s_sd_BIOSOLVEIT.INFINISEE\_REAGENT2\_SMILES>  (1465) 
[R1*]C(=O)C=1c2c(cccc2)C(=O)N(C1)Cc3ccccc3

>  <s_sd_BIOSOLVEIT.INFINISEE\_SPACE>  (1465) 
FreedomSpace_5bn_2023-06

>  <s_vsw_compound_code>  (1465) 
8321

>  <s_vsw_variant>  (1465) 
8321-1

>  <r_epik_Charging_Adjusted_Penalty>  (1465) 
0.041729173490953599

>  <r_epik_Ionization_Penalty>  (1465) 
0.020899999999999998

>  <r_epik_Ionization_Penalty_Charging>  (1465) 
0.020899999999999998

>  <r_epik_Ionization_Penalty_Neutral>  (1465) 
0

>  <r_epik_State_Penalty>  (1465) 
0.020899999999999998

>  <r_i_docking_score>  (1465) 
-3.5252644725142499

>  <r_i_glide_ecoul>  (1465) 
-6.7653307914733896

>  <r_i_glide_eff_state_penalty>  (1465) 
0.020899999999999998

>  <r_i_glide_einternal>  (1465) 
5.7990179061889604

>  <r_i_glide_emodel>  (1465) 
-49.5736155961619

>  <r_i_glide_energy>  (1465) 
-39.664714336395299

>  <r_i_glide_erotb>  (1465) 
0.72014684000360996

>  <r_i_glide_esite>  (1465) 
-0.0933094570037169

>  <r_i_glide_evdw>  (1465) 
-32.899383544921903

>  <r_i_glide_gscore>  (1465) 
-3.54616447251425

>  <r_i_glide_hbond>  (1465) 
-0.026830807167018599

>  <r_i_glide_ligand_efficiency>  (1465) 
-0.106826196136796

>  <r_i_glide_ligand_efficiency_ln>  (1465) 
-0.78400056584460198

>  <r_i_glide_ligand_efficiency_sa>  (1465) 
-0.34264869105228102

>  <r_i_glide_lipo>  (1465) 
-0.96377514536693598

>  <r_i_glide_metal>  (1465) 
-0

>  <r_i_glide_rewards>  (1465) 
-0.52262710701309001

>  <r_lp_Energy>  (1465) 
46.961286000000001

>  <r_qp_ACxDN^.5/SA>  (1465) 
0.0094628999999999998

>  <r_qp_CIQPlogS>  (1465) 
-5.4119999999999999

>  <r_qp_EA(eV)>  (1465) 
0.69699999999999995

>  <r_qp_FISA>  (1465) 
68.019999999999996

>  <r_qp_FOSA>  (1465) 
270.41500000000002

>  <r_qp_IP(eV)>  (1465) 
8.8030000000000008

>  <r_qp_Jm>  (1465) 
0.0069717150263102004

>  <r_qp_PISA>  (1465) 
454.13600000000002

>  <r_qp_PSA>  (1465) 
64.741

>  <r_qp_PercentHumanOralAbsorption>  (1465) 
100

>  <r_qp_QPPCaco>  (1465) 
559.45500000000004

>  <r_qp_QPPMDCK>  (1465) 
292.142

>  <r_qp_QPlogBB>  (1465) 
-0.251

>  <r_qp_QPlogHERG>  (1465) 
-7.8609999999999998

>  <r_qp_QPlogKhsa>  (1465) 
0.755

>  <r_qp_QPlogKp>  (1465) 
-2.468

>  <r_qp_QPlogPC16>  (1465) 
15.840999999999999

>  <r_qp_QPlogPo/w>  (1465) 
4.8639999999999999

>  <r_qp_QPlogPoct>  (1465) 
22.963000000000001

>  <r_qp_QPlogPw>  (1465) 
12.266

>  <r_qp_QPlogS>  (1465) 
-5.3319999999999999

>  <r_qp_QPpolrz>  (1465) 
51.734999999999999

>  <r_qp_SASA>  (1465) 
792.57100000000003

>  <r_qp_SAamideO>  (1465) 
0

>  <r_qp_SAfluorine>  (1465) 
0

>  <r_qp_WPSA>  (1465) 
0

>  <r_qp_accptHB>  (1465) 
7.5

>  <r_qp_dip^2/V>  (1465) 
0.023626299999999999

>  <r_qp_dipole>  (1465) 
5.8860000000000001

>  <r_qp_donorHB>  (1465) 
1

>  <r_qp_glob>  (1465) 
0.78760980000000003

>  <r_qp_mol_MW>  (1465) 
439.55599999999998

>  <r_qp_volume>  (1465) 
1466.48

>  <r_sd_BIOSOLVEIT.INFINISEE\_FTREES\_SIMILARITY>  (1465) 
0.91600000000000004

>  <r_sd_BIOSOLVEIT.LOGP>  (1465) 
3.7267999999999999

>  <r_sd_BIOSOLVEIT.MOLECULAR\_WEIGHT>  (1465) 
440.56400000000002

>  <r_sd_BIOSOLVEIT.TPSA>  (1465) 
55.539999999999999

>  <i_epik_Tot_Q>  (1465) 
1

>  <i_epik_Tot_abs_Q>  (1465) 
1

>  <i_f3d_flags>  (1465) 
0

>  <i_i_glide_confnum>  (1465) 
3

>  <i_i_glide_lignum>  (1465) 
48

>  <i_i_glide_posenum>  (1465) 
19

>  <i_i_glide_rotatable_bonds>  (1465) 
9

>  <i_lp_mmshare_version>  (1465) 
65135

>  <i_m_ct_format>  (1465) 
2

>  <i_m_source_file_index>  (1465) 
261

>  <i_qp_#NandO>  (1465) 
5

>  <i_qp_#acid>  (1465) 
0

>  <i_qp_#amide>  (1465) 
0

>  <i_qp_#amidine>  (1465) 
0

>  <i_qp_#amine>  (1465) 
1

>  <i_qp_#in34>  (1465) 
0

>  <i_qp_#in56>  (1465) 
22

>  <i_qp_#metab>  (1465) 
4

>  <i_qp_#nonHatm>  (1465) 
33

>  <i_qp_#noncon>  (1465) 
0

>  <i_qp_#ringatoms>  (1465) 
22

>  <i_qp_#rotor>  (1465) 
8

>  <i_qp_#rtvFG>  (1465) 
0

>  <i_qp_#stars>  (1465) 
1

>  <i_qp_CNS>  (1465) 
1

>  <i_qp_HumanOralAbsorption>  (1465) 
3

>  <i_qp_RuleOfFive>  (1465) 
0

>  <i_qp_RuleOfThree>  (1465) 
0

>  <i_sd_BIOSOLVEIT.INFINISEE\_REAGENT1\_NAME>  (1465) 
54790

>  <i_sd_BIOSOLVEIT.INFINISEE\_REAGENT2\_NAME>  (1465) 
409552

>  <i_sd_BIOSOLVEIT.INFINISEE\_RESULT\_RANK>  (1465) 
25371

>  <i_sd_version>  (1465) 
0

>  <b_lp_Chiralities_Consistent>  (1465) 
1

>  <b_sd_chiral_flag>  (1465) 
0

>  <canonical_id>  (1465) 
ATP-HTVS-E5C360ABD75A

>  <compound_code>  (1465) 
8321

>  <title>  (1465) 
a1____54790____409552

>  <variant>  (1465) 
8321-1

>  <source_file>  (1465) 
运行/运行/ATP-VSW/ATP-VSW-DOCK_HTVS_1-001_lib/ATP-VSW-DOCK_HTVS_1-001_lib

>  <canonical_smiles>  (1465) 
CC[NH+](CC)Cc1cccc(NC(=O)c2cn(Cc3ccccc3)c(=O)c3ccccc23)c1

>  <scaffold>  (1465) 
O=C(Nc1ccccc1)c1cn(Cc2ccccc2)c(=O)c2ccccc12

>  <molecular_formula>  (1465) 
C28H30N3O2+

$$$$
ATP-HTVS-E60052B60ACE
     RDKit          3D

 51 54  0  0  0  0  0  0  0  0999 V2000
  197.5813  187.0643  155.7614 O   0  0  0  0  0  0  0  0  0  0  0  0
  198.0603  186.1732  156.4468 C   0  0  0  0  0  0  0  0  0  0  0  0
  199.2672  186.3865  157.0059 N   0  0  0  0  0  0  0  0  0  0  0  0
  200.0558  185.7211  157.9894 C   0  0  0  0  0  0  0  0  0  0  0  0
  199.6054  184.7034  158.8734 C   0  0  0  0  0  0  0  0  0  0  0  0
  200.5057  184.1689  159.8302 C   0  0  0  0  0  0  0  0  0  0  0  0
  201.8229  184.6484  159.9436 C   0  0  0  0  0  0  0  0  0  0  0  0
  202.2555  185.6786  159.0943 C   0  0  0  0  0  0  0  0  0  0  0  0
  201.3774  186.2069  158.1306 C   0  0  0  0  0  0  0  0  0  0  0  0
  198.1799  184.1862  158.8555 C   0  0  2  0  0  0  0  0  0  0  0  0
  197.7357  183.8596  157.5041 N   0  0  0  0  0  0  0  0  0  0  0  0
  198.0936  182.6546  156.8951 C   0  0  0  0  0  0  0  0  0  0  0  0
  197.1355  181.9512  156.1306 C   0  0  0  0  0  0  0  0  0  0  0  0
  197.4605  180.7059  155.5542 C   0  0  0  0  0  0  0  0  0  0  0  0
  198.7520  180.1649  155.7134 C   0  0  0  0  0  0  0  0  0  0  0  0
  199.7198  180.8824  156.4293 C   0  0  0  0  0  0  0  0  0  0  0  0
  199.3901  182.1066  157.0379 C   0  0  0  0  0  0  0  0  0  0  0  0
  199.0932  178.8106  155.1115 C   0  0  1  0  0  0  0  0  0  0  0  0
  199.1488  177.7379  156.1312 N   0  0  1  0  0  0  0  0  0  0  0  0
  200.3699  177.7197  156.9732 C   0  0  2  0  0  0  0  0  0  0  0  0
  197.1910  184.9252  156.6714 C   0  0  1  0  0  0  0  0  0  0  0  0
  197.2248  185.1735  159.5440 C   0  0  0  0  0  0  0  0  0  0  0  0
  197.6070  186.5123  159.8132 C   0  0  0  0  0  0  0  0  0  0  0  0
  196.6859  187.4254  160.3587 C   0  0  0  0  0  0  0  0  0  0  0  0
  195.3679  187.0193  160.6373 C   0  0  0  0  0  0  0  0  0  0  0  0
  194.9733  185.6907  160.3708 C   0  0  0  0  0  0  0  0  0  0  0  0
  195.8983  184.7707  159.8309 C   0  0  0  0  0  0  0  0  0  0  0  0
  198.3699  177.8347  156.7733 H   0  0  0  0  0  0  0  0  0  0  0  0
  199.6515  187.2757  156.7237 H   0  0  0  0  0  0  0  0  0  0  0  0
  200.1746  183.4041  160.5185 H   0  0  0  0  0  0  0  0  0  0  0  0
  202.4802  184.2564  160.7085 H   0  0  0  0  0  0  0  0  0  0  0  0
  203.2456  186.0919  159.2100 H   0  0  0  0  0  0  0  0  0  0  0  0
  201.7149  187.0330  157.5168 H   0  0  0  0  0  0  0  0  0  0  0  0
  198.1553  183.2548  159.4230 H   0  0  0  0  0  0  0  0  0  0  0  0
  196.1363  182.3468  156.0081 H   0  0  0  0  0  0  0  0  0  0  0  0
  196.6940  180.1707  155.0124 H   0  0  0  0  0  0  0  0  0  0  0  0
  200.7214  180.4988  156.5556 H   0  0  0  0  0  0  0  0  0  0  0  0
  200.1656  182.5792  157.6180 H   0  0  0  0  0  0  0  0  0  0  0  0
  198.3316  178.5410  154.3825 H   0  0  0  0  0  0  0  0  0  0  0  0
  200.0383  178.8716  154.5706 H   0  0  0  0  0  0  0  0  0  0  0  0
  200.3564  176.8670  157.6631 H   0  0  0  0  0  0  0  0  0  0  0  0
  200.4625  178.6245  157.5882 H   0  0  0  0  0  0  0  0  0  0  0  0
  201.2710  177.6341  156.3601 H   0  0  0  0  0  0  0  0  0  0  0  0
  196.3094  185.2905  157.1824 H   0  0  0  0  0  0  0  0  0  0  0  0
  196.8505  184.5529  155.6986 H   0  0  0  0  0  0  0  0  0  0  0  0
  198.6072  186.8781  159.6242 H   0  0  0  0  0  0  0  0  0  0  0  0
  197.0048  188.4423  160.5322 H   0  0  0  0  0  0  0  0  0  0  0  0
  194.6636  187.7409  161.0423 H   0  0  0  0  0  0  0  0  0  0  0  0
  193.9473  185.3906  160.5233 H   0  0  0  0  0  0  0  0  0  0  0  0
  195.5793  183.7659  159.5760 H   0  0  0  0  0  0  0  0  0  0  0  0
  199.0769  176.8402  155.6706 H   0  0  0  0  0  0  0  0  0  0  0  0
  1  2  2  0
  2  3  1  0
  2 21  1  0
  3  4  1  0
  3 29  1  0
  4  5  1  0
  4  9  2  0
  5  6  2  0
  5 10  1  0
  6  7  1  0
  6 30  1  0
  7  8  2  0
  7 31  1  0
  8  9  1  0
  8 32  1  0
  9 33  1  0
 10 11  1  0
 10 22  1  0
 10 34  1  1
 11 12  1  0
 11 21  1  0
 12 13  1  0
 12 17  2  0
 13 14  2  0
 13 35  1  0
 14 15  1  0
 14 36  1  0
 15 16  2  0
 15 18  1  0
 16 17  1  0
 16 37  1  0
 17 38  1  0
 18 19  1  0
 18 39  1  6
 18 40  1  0
 19 20  1  0
 19 28  1  1
 19 51  1  0
 20 41  1  1
 20 42  1  0
 20 43  1  0
 21 44  1  1
 21 45  1  0
 22 23  2  0
 22 27  1  0
 23 24  1  0
 23 46  1  0
 24 25  2  0
 24 47  1  0
 25 26  1  0
 25 48  1  0
 26 27  2  0
 26 49  1  0
 27 50  1  0
M  CHG  1  19   1
M  END
>  <s_epik_cmdline>  (1466) 
J2VwaWtfcHl0aG9uJywgJy1waCcsICc3LjAwMDAwMCcsICctcGh0JywgJzIuMDAwMDAwJywgJy1tcycsICcxNicsICctdG4nLCAnOCcsICctbWEnLCAnMjAwJywgJy1pbWFlJywgJzxpbmZpbGUubWFlPicsICctb21hZScsICc8b3V0ZmlsZS5tYWU+Jw==

>  <s_epik_input>  (1466) 
W2NIXTFbY0hdW2NIXVtjSF1bY0hdYzFbQ0BIXShjKGMyMylbY0hdW2NIXVtjSF1bY0hdMylOKFtDSDJdQyg9TylbTkhdMiljNFtjSF1bY0hdYyhbY0hdW2NIXTQpW0NIMl1bTkhdW0NIM10=

>  <s_i_glide_gridfile>  (1466) 
ATP-Grid

>  <s_lp_Force_Field>  (1466) 
OPLS_2005

>  <s_lp_Variant>  (1466) 
rxn102c____EMOL724419____EMOL6185419-1

>  <s_lp_label>  (1466) 
2930_sdstereoexpander_1_neutralizer_1_epik_1_stereoizer_1

>  <s_m_source_file>  (1466) 
ATP-VSW-LIGPREP-003-in.maegz

>  <s_sd_BIOSOLVEIT.INFINISEE\_QUERY\_NAME>  (1466) 
Ref-Lig

>  <s_sd_BIOSOLVEIT.INFINISEE\_QUERY\_SMILES>  (1466) 
S(c1nc2c(cc1C[NH2+]Cc3ccc(cc3)C[NH+](C)C)cccc2)Cc4ccccc4

>  <s_sd_BIOSOLVEIT.INFINISEE\_REACTION\_NAME>  (1466) 
rxn102c

>  <s_sd_BIOSOLVEIT.INFINISEE\_REAGENT1\_NAME>  (1466) 
EMOL724419

>  <s_sd_BIOSOLVEIT.INFINISEE\_REAGENT1\_SMILES>  (1466) 
Clc1ccc(cc1)CNC

>  <s_sd_BIOSOLVEIT.INFINISEE\_REAGENT2\_NAME>  (1466) 
EMOL6185419

>  <s_sd_BIOSOLVEIT.INFINISEE\_REAGENT2\_SMILES>  (1466) 
O=C1Nc2c(cccc2)C(NC1)c3ccccc3

>  <s_sd_BIOSOLVEIT.INFINISEE\_SPACE>  (1466) 
eXplore_7tr_2022-12

>  <s_vsw_compound_code>  (1466) 
93731

>  <s_vsw_variant>  (1466) 
93731-1

>  <r_epik_Charging_Adjusted_Penalty>  (1466) 
0.035712003608012098

>  <r_epik_Ionization_Penalty>  (1466) 
0.017899999999999999

>  <r_epik_Ionization_Penalty_Charging>  (1466) 
0.017899999999999999

>  <r_epik_Ionization_Penalty_Neutral>  (1466) 
0

>  <r_epik_State_Penalty>  (1466) 
0.017899999999999999

>  <r_i_docking_score>  (1466) 
-3.64853374409515

>  <r_i_glide_ecoul>  (1466) 
-8.1667394638061506

>  <r_i_glide_eff_state_penalty>  (1466) 
0.017899999999999999

>  <r_i_glide_einternal>  (1466) 
2.8172316551208501

>  <r_i_glide_emodel>  (1466) 
-45.867283897203002

>  <r_i_glide_energy>  (1466) 
-34.728896141052203

>  <r_i_glide_erotb>  (1466) 
0.447253222696117

>  <r_i_glide_esite>  (1466) 
-0.106450526014309

>  <r_i_glide_evdw>  (1466) 
-26.562156677246101

>  <r_i_glide_gscore>  (1466) 
-3.66643374409515

>  <r_i_glide_hbond>  (1466) 
-0.20000000000000001

>  <r_i_glide_ligand_efficiency>  (1466) 
-0.13513087941093099

>  <r_i_glide_ligand_efficiency_ln>  (1466) 
-0.84931850484553995

>  <r_i_glide_ligand_efficiency_sa>  (1466) 
-0.40539263778742501

>  <r_i_glide_lipo>  (1466) 
-1.57113494268343

>  <r_i_glide_metal>  (1466) 
-0

>  <r_i_glide_rewards>  (1466) 
0.31701725533969899

>  <r_lp_Energy>  (1466) 
51.9208

>  <r_qp_ACxDN^.5/SA>  (1466) 
0.0107776

>  <r_qp_CIQPlogS>  (1466) 
-4.319

>  <r_qp_EA(eV)>  (1466) 
0.152

>  <r_qp_FISA>  (1466) 
88.457999999999998

>  <r_qp_FOSA>  (1466) 
168.66200000000001

>  <r_qp_IP(eV)>  (1466) 
9.1739999999999995

>  <r_qp_Jm>  (1466) 
0.0015036619232254001

>  <r_qp_PISA>  (1466) 
398.97199999999998

>  <r_qp_PSA>  (1466) 
57.369

>  <r_qp_PercentHumanOralAbsorption>  (1466) 
94.822000000000003

>  <r_qp_QPPCaco>  (1466) 
358.05700000000002

>  <r_qp_QPPMDCK>  (1466) 
180.345

>  <r_qp_QPlogBB>  (1466) 
-0.025999999999999999

>  <r_qp_QPlogHERG>  (1466) 
-6.9989999999999997

>  <r_qp_QPlogKhsa>  (1466) 
0.72799999999999998

>  <r_qp_QPlogKp>  (1466) 
-3.6150000000000002

>  <r_qp_QPlogPC16>  (1466) 
13.099

>  <r_qp_QPlogPo/w>  (1466) 
3.786

>  <r_qp_QPlogPoct>  (1466) 
20.562999999999999

>  <r_qp_QPlogPw>  (1466) 
12.026999999999999

>  <r_qp_QPlogS>  (1466) 
-4.7610000000000001

>  <r_qp_QPpolrz>  (1466) 
43.723999999999997

>  <r_qp_SASA>  (1466) 
656.09199999999998

>  <r_qp_SAamideO>  (1466) 
0

>  <r_qp_SAfluorine>  (1466) 
0

>  <r_qp_WPSA>  (1466) 
0

>  <r_qp_accptHB>  (1466) 
5

>  <r_qp_dip^2/V>  (1466) 
0.0251392

>  <r_qp_dipole>  (1466) 
5.4539999999999997

>  <r_qp_donorHB>  (1466) 
2

>  <r_qp_glob>  (1466) 
0.82459320000000003

>  <r_qp_mol_MW>  (1466) 
357.45400000000001

>  <r_qp_volume>  (1466) 
1183.202

>  <r_sd_BIOSOLVEIT.INFINISEE\_FTREES\_SIMILARITY>  (1466) 
0.90400000000000003

>  <r_sd_BIOSOLVEIT.LOGP>  (1466) 
2.9279000000000002

>  <r_sd_BIOSOLVEIT.MOLECULAR\_WEIGHT>  (1466) 
358.46300000000002

>  <r_sd_BIOSOLVEIT.TPSA>  (1466) 
48.950000000000003

>  <i_epik_Tot_Q>  (1466) 
1

>  <i_epik_Tot_abs_Q>  (1466) 
1

>  <i_f3d_flags>  (1466) 
0

>  <i_i_glide_confnum>  (1466) 
6

>  <i_i_glide_lignum>  (1466) 
1445

>  <i_i_glide_posenum>  (1466) 
20

>  <i_i_glide_rotatable_bonds>  (1466) 
4

>  <i_lp_mmshare_version>  (1466) 
65135

>  <i_m_ct_format>  (1466) 
2

>  <i_m_source_file_index>  (1466) 
2930

>  <i_qp_#NandO>  (1466) 
4

>  <i_qp_#acid>  (1466) 
0

>  <i_qp_#amide>  (1466) 
0

>  <i_qp_#amidine>  (1466) 
0

>  <i_qp_#amine>  (1466) 
1

>  <i_qp_#in34>  (1466) 
0

>  <i_qp_#in56>  (1466) 
18

>  <i_qp_#metab>  (1466) 
7

>  <i_qp_#nonHatm>  (1466) 
27

>  <i_qp_#noncon>  (1466) 
2

>  <i_qp_#ringatoms>  (1466) 
23

>  <i_qp_#rotor>  (1466) 
2

>  <i_qp_#rtvFG>  (1466) 
0

>  <i_qp_#stars>  (1466) 
0

>  <i_qp_CNS>  (1466) 
1

>  <i_qp_HumanOralAbsorption>  (1466) 
3

>  <i_qp_RuleOfFive>  (1466) 
0

>  <i_qp_RuleOfThree>  (1466) 
1

>  <i_sd_BIOSOLVEIT.INFINISEE\_RESULT\_RANK>  (1466) 
78096

>  <i_sd_version>  (1466) 
0

>  <b_lp_Chiralities_Consistent>  (1466) 
1

>  <b_sd_chiral_flag>  (1466) 
0

>  <canonical_id>  (1466) 
ATP-HTVS-E60052B60ACE

>  <compound_code>  (1466) 
93731

>  <title>  (1466) 
rxn102c____EMOL724419____EMOL6185419

>  <variant>  (1466) 
93731-1

>  <source_file>  (1466) 
运行/运行/ATP-VSW/ATP-VSW-DOCK_HTVS_1-003_lib/ATP-VSW-DOCK_HTVS_1-003_lib.mae

>  <canonical_smiles>  (1466) 
C[NH2+]Cc1ccc(N2CC(=O)Nc3ccccc3[C@H]2c2ccccc2)cc1

>  <scaffold>  (1466) 
O=C1CN(c2ccccc2)C(c2ccccc2)c2ccccc2N1

>  <molecular_formula>  (1466) 
C23H24N3O+

$$$$
ATP-HTVS-E624AA265EBA
     RDKit          3D

 61 64  0  0  0  0  0  0  0  0999 V2000
  199.7038  182.4080  145.9746 Cl  0  0  0  0  0  0  0  0  0  0  0  0
  198.7521  183.1780  147.1996 C   0  0  0  0  0  0  0  0  0  0  0  0
  198.3799  182.5675  148.4409 C   0  0  0  0  0  0  0  0  0  0  0  0
  197.5948  183.3234  149.3455 C   0  0  0  0  0  0  0  0  0  0  0  0
  197.1647  184.6231  149.0332 C   0  0  0  0  0  0  0  0  0  0  0  0
  197.5271  185.1997  147.8096 C   0  0  0  0  0  0  0  0  0  0  0  0
  198.3287  184.4880  146.9076 C   0  0  0  0  0  0  0  0  0  0  0  0
  197.2241  182.7394  150.6183 C   0  0  0  0  0  0  0  0  0  0  0  0
  197.5882  181.4870  150.9567 C   0  0  0  0  0  0  0  0  0  0  0  0
  198.3409  180.6721  150.0457 N   0  0  0  0  0  0  0  0  0  0  0  0
  198.6490  179.3028  150.3632 C   0  0  0  0  0  0  0  0  0  0  0  0
  199.5347  178.9730  151.4154 C   0  0  0  0  0  0  0  0  0  0  0  0
  199.7721  177.6295  151.7601 C   0  0  0  0  0  0  0  0  0  0  0  0
  199.2035  176.5917  150.9968 C   0  0  0  0  0  0  0  0  0  0  0  0
  198.3832  176.9011  149.8958 C   0  0  0  0  0  0  0  0  0  0  0  0
  198.0963  178.2475  149.5931 C   0  0  0  0  0  0  0  0  0  0  0  0
  198.7536  181.1470  148.8295 C   0  0  0  0  0  0  0  0  0  0  0  0
  199.4163  180.4551  148.0553 O   0  0  0  0  0  0  0  0  0  0  0  0
  197.2786  180.9303  152.3584 C   0  0  1  0  0  0  0  0  0  0  0  0
  197.1459  181.9951  153.3641 N   0  0  0  0  0  0  0  0  0  0  0  0
  197.2436  181.5365  154.7483 C   0  0  1  0  0  0  0  0  0  0  0  0
  198.5095  180.7384  155.0630 C   0  0  0  0  0  0  0  0  0  0  0  0
  199.7804  181.2070  154.6653 C   0  0  0  0  0  0  0  0  0  0  0  0
  200.9335  180.4375  154.9161 C   0  0  0  0  0  0  0  0  0  0  0  0
  200.8256  179.2030  155.5850 C   0  0  0  0  0  0  0  0  0  0  0  0
  199.5625  178.7390  155.9980 C   0  0  0  0  0  0  0  0  0  0  0  0
  198.4105  179.5018  155.7346 C   0  0  0  0  0  0  0  0  0  0  0  0
  197.1223  182.7739  155.6522 C   0  0  1  0  0  0  0  0  0  0  0  0
  196.8748  182.4294  157.1332 C   0  0  1  0  0  0  0  0  0  0  0  0
  195.5307  181.8428  157.3379 N   0  0  1  0  0  0  0  0  0  0  0  0
  195.0309  181.9677  158.7162 C   0  0  2  0  0  0  0  0  0  0  0  0
  196.0614  179.9944  152.3513 C   0  0  2  0  0  0  0  0  0  0  0  0
  196.2665  182.4926  153.2485 H   0  0  0  0  0  0  0  0  0  0  0  0
  194.8546  182.2450  156.6990 H   0  0  0  0  0  0  0  0  0  0  0  0
  196.5491  185.1772  149.7266 H   0  0  0  0  0  0  0  0  0  0  0  0
  197.1676  186.1839  147.5604 H   0  0  0  0  0  0  0  0  0  0  0  0
  198.6026  184.9462  145.9711 H   0  0  0  0  0  0  0  0  0  0  0  0
  196.6605  183.3732  151.2903 H   0  0  0  0  0  0  0  0  0  0  0  0
  200.0368  179.7483  151.9873 H   0  0  0  0  0  0  0  0  0  0  0  0
  200.3811  177.4017  152.6257 H   0  0  0  0  0  0  0  0  0  0  0  0
  199.4059  175.5546  151.2531 H   0  0  0  0  0  0  0  0  0  0  0  0
  197.9713  176.1098  149.2848 H   0  0  0  0  0  0  0  0  0  0  0  0
  197.4571  178.4678  148.7446 H   0  0  0  0  0  0  0  0  0  0  0  0
  198.1265  180.3441  152.6826 H   0  0  0  0  0  0  0  0  0  0  0  0
  196.3848  180.8990  154.9368 H   0  0  0  0  0  0  0  0  0  0  0  0
  199.8643  182.1430  154.1333 H   0  0  0  0  0  0  0  0  0  0  0  0
  201.9005  180.7892  154.5831 H   0  0  0  0  0  0  0  0  0  0  0  0
  201.7117  178.6162  155.7878 H   0  0  0  0  0  0  0  0  0  0  0  0
  199.4667  177.8007  156.5266 H   0  0  0  0  0  0  0  0  0  0  0  0
  197.4511  179.1198  156.0598 H   0  0  0  0  0  0  0  0  0  0  0  0
  198.0271  183.3791  155.5612 H   0  0  0  0  0  0  0  0  0  0  0  0
  196.3202  183.4188  155.3079 H   0  0  0  0  0  0  0  0  0  0  0  0
  197.6369  181.7610  157.5311 H   0  0  0  0  0  0  0  0  0  0  0  0
  196.9617  183.3619  157.6939 H   0  0  0  0  0  0  0  0  0  0  0  0
  194.0518  181.4940  158.7932 H   0  0  0  0  0  0  0  0  0  0  0  0
  194.9280  183.0188  158.9951 H   0  0  0  0  0  0  0  0  0  0  0  0
  195.7041  181.4760  159.4172 H   0  0  0  0  0  0  0  0  0  0  0  0
  196.1982  179.1613  151.6610 H   0  0  0  0  0  0  0  0  0  0  0  0
  195.1445  180.5183  152.0694 H   0  0  0  0  0  0  0  0  0  0  0  0
  195.9458  179.5210  153.3302 H   0  0  0  0  0  0  0  0  0  0  0  0
  195.5718  180.8351  157.1771 H   0  0  0  0  0  0  0  0  0  0  0  0
  1  2  1  0
  2  3  2  0
  2  7  1  0
  3  4  1  0
  3 17  1  0
  4  5  2  0
  4  8  1  0
  5  6  1  0
  5 35  1  0
  6  7  2  0
  6 36  1  0
  7 37  1  0
  8  9  2  0
  8 38  1  0
  9 10  1  0
  9 19  1  0
 10 11  1  0
 10 17  1  0
 11 12  2  0
 11 16  1  0
 12 13  1  0
 12 39  1  0
 13 14  2  0
 13 40  1  0
 14 15  1  0
 14 41  1  0
 15 16  2  0
 15 42  1  0
 16 43  1  0
 17 18  2  0
 19 20  1  0
 19 32  1  0
 19 44  1  1
 20 21  1  0
 20 33  1  0
 21 22  1  0
 21 28  1  0
 21 45  1  1
 22 23  2  0
 22 27  1  0
 23 24  1  0
 23 46  1  0
 24 25  2  0
 24 47  1  0
 25 26  1  0
 25 48  1  0
 26 27  2  0
 26 49  1  0
 27 50  1  0
 28 29  1  0
 28 51  1  1
 28 52  1  0
 29 30  1  0
 29 53  1  1
 29 54  1  0
 30 31  1  0
 30 34  1  6
 30 61  1  0
 31 55  1  6
 31 56  1  0
 31 57  1  0
 32 58  1  6
 32 59  1  0
 32 60  1  0
M  CHG  1  30   1
M  END
>  <s_epik_cmdline>  (1467) 
J2VwaWtfcHl0aG9uJywgJy1waCcsICc3LjAwMDAwMCcsICctcGh0JywgJzIuMDAwMDAwJywgJy1tcycsICcxNicsICctdG4nLCAnOCcsICctbWEnLCAnMjAwJywgJy1pbWFlJywgJzxpbmZpbGUubWFlPicsICctb21hZScsICc8b3V0ZmlsZS5tYWU+Jw==

>  <s_epik_input>  (1467) 
Q2xjMVtjSF1bY0hdW2NIXWMoYzEyKVtjSF1jKG4oYzI9TyktYzNbY0hdW2NIXVtjSF1bY0hdW2NIXTMpW0NASF0oW0NIM10pW05IXVtDQEhdKFtDSDJdW0NIMl1bTkhdW0NIM10pYzRbY0hdW2NIXVtjSF1bY0hdW2NIXTQ=

>  <s_i_glide_gridfile>  (1467) 
ATP-Grid

>  <s_lp_Force_Field>  (1467) 
OPLS_2005

>  <s_lp_Variant>  (1467) 
rxn207____EMOL42767466____EMOL76738571-2

>  <s_lp_label>  (1467) 
2707_sdstereoexpander_2_neutralizer_1_epik_1_stereoizer_1

>  <s_m_source_file>  (1467) 
ATP-VSW-LIGPREP-001-in.maegz

>  <s_sd_BIOSOLVEIT.INFINISEE\_QUERY\_NAME>  (1467) 
Ref-Lig

>  <s_sd_BIOSOLVEIT.INFINISEE\_QUERY\_SMILES>  (1467) 
S(c1nc2c(cc1C[NH2+]Cc3ccc(cc3)C[NH+](C)C)cccc2)Cc4ccccc4

>  <s_sd_BIOSOLVEIT.INFINISEE\_REACTION\_NAME>  (1467) 
rxn207

>  <s_sd_BIOSOLVEIT.INFINISEE\_REAGENT1\_NAME>  (1467) 
EMOL42767466

>  <s_sd_BIOSOLVEIT.INFINISEE\_REAGENT1\_SMILES>  (1467) 
O=C(c1ccccc1)CCNC

>  <s_sd_BIOSOLVEIT.INFINISEE\_REAGENT2\_NAME>  (1467) 
EMOL76738571

>  <s_sd_BIOSOLVEIT.INFINISEE\_REAGENT2\_SMILES>  (1467) 
Clc1c2c(ccc1)C=C(N(c3ccccc3)C2=O)C(N)C

>  <s_sd_BIOSOLVEIT.INFINISEE\_SPACE>  (1467) 
eXplore_7tr_2022-12

>  <s_vsw_compound_code>  (1467) 
86593

>  <s_vsw_variant>  (1467) 
86593-2

>  <r_epik_Charging_Adjusted_Penalty>  (1467) 
0.17125217737387299

>  <r_epik_Ionization_Penalty>  (1467) 
0.17130000000000001

>  <r_epik_Ionization_Penalty_Charging>  (1467) 
0.00020000000000000001

>  <r_epik_Ionization_Penalty_Neutral>  (1467) 
0.17100000000000001

>  <r_epik_State_Penalty>  (1467) 
0.17100000000000001

>  <r_i_docking_score>  (1467) 
-4.8691399614856898

>  <r_i_glide_ecoul>  (1467) 
-11.5768041610718

>  <r_i_glide_eff_state_penalty>  (1467) 
0.17100000000000001

>  <r_i_glide_einternal>  (1467) 
5.3494615554809597

>  <r_i_glide_emodel>  (1467) 
-59.383623119224801

>  <r_i_glide_energy>  (1467) 
-41.808762550353997

>  <r_i_glide_erotb>  (1467) 
0.60122598096609603

>  <r_i_glide_esite>  (1467) 
-0.10000000000000001

>  <r_i_glide_evdw>  (1467) 
-30.231958389282202

>  <r_i_glide_gscore>  (1467) 
-5.0401399614856901

>  <r_i_glide_hbond>  (1467) 
-0.40000000000000002

>  <r_i_glide_ligand_efficiency>  (1467) 
-0.152160623796428

>  <r_i_glide_ligand_efficiency_ln>  (1467) 
-1.0903331651191099

>  <r_i_glide_ligand_efficiency_sa>  (1467) 
-0.48307986800709801

>  <r_i_glide_lipo>  (1467) 
-1.51564301701822

>  <r_i_glide_metal>  (1467) 
-0

>  <r_i_glide_rewards>  (1467) 
-0.37760438180869499

>  <r_lp_Energy>  (1467) 
50.545195999999997

>  <r_qp_ACxDN^.5/SA>  (1467) 
0.0120932

>  <r_qp_CIQPlogS>  (1467) 
-5.0380000000000003

>  <r_qp_EA(eV)>  (1467) 
0.44500000000000001

>  <r_qp_FISA>  (1467) 
50.740000000000002

>  <r_qp_FOSA>  (1467) 
218.036

>  <r_qp_IP(eV)>  (1467) 
8.5039999999999996

>  <r_qp_Jm>  (1467) 
0.0041380342844522904

>  <r_qp_PISA>  (1467) 
375.71100000000001

>  <r_qp_PSA>  (1467) 
51.601999999999997

>  <r_qp_PercentHumanOralAbsorption>  (1467) 
94.462000000000003

>  <r_qp_QPPCaco>  (1467) 
203.48500000000001

>  <r_qp_QPPMDCK>  (1467) 
222.79400000000001

>  <r_qp_QPlogBB>  (1467) 
0.60899999999999999

>  <r_qp_QPlogHERG>  (1467) 
-7.2270000000000003

>  <r_qp_QPlogKhsa>  (1467) 
0.83599999999999997

>  <r_qp_QPlogKp>  (1467) 
-4.5839999999999996

>  <r_qp_QPlogPC16>  (1467) 
14.710000000000001

>  <r_qp_QPlogPo/w>  (1467) 
4.4740000000000002

>  <r_qp_QPlogPoct>  (1467) 
22.709

>  <r_qp_QPlogPw>  (1467) 
11.624000000000001

>  <r_qp_QPlogS>  (1467) 
-3.448

>  <r_qp_QPpolrz>  (1467) 
47.606000000000002

>  <r_qp_SASA>  (1467) 
701.65899999999999

>  <r_qp_SAamideO>  (1467) 
0

>  <r_qp_SAfluorine>  (1467) 
0

>  <r_qp_WPSA>  (1467) 
57.171999999999997

>  <r_qp_accptHB>  (1467) 
6

>  <r_qp_dip^2/V>  (1467) 
0.038795499999999997

>  <r_qp_dipole>  (1467) 
7.2800000000000002

>  <r_qp_donorHB>  (1467) 
2

>  <r_qp_glob>  (1467) 
0.84853069999999997

>  <r_qp_mol_MW>  (1467) 
445.99099999999999

>  <r_qp_volume>  (1467) 
1365.9749999999999

>  <r_sd_BIOSOLVEIT.INFINISEE\_FTREES\_SIMILARITY>  (1467) 
0.90800000000000003

>  <r_sd_BIOSOLVEIT.LOGP>  (1467) 
3.5931000000000002

>  <r_sd_BIOSOLVEIT.MOLECULAR\_WEIGHT>  (1467) 
448.00700000000001

>  <r_sd_BIOSOLVEIT.TPSA>  (1467) 
55.219999999999999

>  <i_epik_Tot_Q>  (1467) 
1

>  <i_epik_Tot_abs_Q>  (1467) 
1

>  <i_f3d_flags>  (1467) 
0

>  <i_i_glide_confnum>  (1467) 
6

>  <i_i_glide_lignum>  (1467) 
1199

>  <i_i_glide_posenum>  (1467) 
7

>  <i_i_glide_rotatable_bonds>  (1467) 
8

>  <i_lp_mmshare_version>  (1467) 
65135

>  <i_m_ct_format>  (1467) 
2

>  <i_m_source_file_index>  (1467) 
2707

>  <i_qp_#NandO>  (1467) 
4

>  <i_qp_#acid>  (1467) 
0

>  <i_qp_#amide>  (1467) 
0

>  <i_qp_#amidine>  (1467) 
0

>  <i_qp_#amine>  (1467) 
2

>  <i_qp_#in34>  (1467) 
0

>  <i_qp_#in56>  (1467) 
22

>  <i_qp_#metab>  (1467) 
5

>  <i_qp_#nonHatm>  (1467) 
32

>  <i_qp_#noncon>  (1467) 
0

>  <i_qp_#ringatoms>  (1467) 
22

>  <i_qp_#rotor>  (1467) 
7

>  <i_qp_#rtvFG>  (1467) 
0

>  <i_qp_#stars>  (1467) 
0

>  <i_qp_CNS>  (1467) 
2

>  <i_qp_HumanOralAbsorption>  (1467) 
3

>  <i_qp_RuleOfFive>  (1467) 
0

>  <i_qp_RuleOfThree>  (1467) 
0

>  <i_sd_BIOSOLVEIT.INFINISEE\_RESULT\_RANK>  (1467) 
53374

>  <i_sd_version>  (1467) 
0

>  <b_lp_Chiralities_Consistent>  (1467) 
1

>  <b_sd_chiral_flag>  (1467) 
0

>  <canonical_id>  (1467) 
ATP-HTVS-E624AA265EBA

>  <compound_code>  (1467) 
86593

>  <title>  (1467) 
rxn207____EMOL42767466____EMOL76738571

>  <variant>  (1467) 
86593-2

>  <source_file>  (1467) 
运行/运行/ATP-VSW/ATP-VSW-DOCK_HTVS_1-001_lib/ATP-VSW-DOCK_HTVS_1-001_lib

>  <canonical_smiles>  (1467) 
C[NH2+]CC[C@@H](N[C@@H](C)c1cc2cccc(Cl)c2c(=O)n1-c1ccccc1)c1ccccc1

>  <scaffold>  (1467) 
O=c1c2ccccc2cc(CNCc2ccccc2)n1-c1ccccc1

>  <molecular_formula>  (1467) 
C27H29ClN3O+

$$$$
ATP-HTVS-E6B57BB86B33
     RDKit          3D

 55 57  0  0  0  0  0  0  0  0999 V2000
  199.0647  178.2619  155.3399 S   0  0  0  0  0  0  0  0  0  0  0  0
  199.2404  179.9524  154.9514 C   0  0  0  0  0  0  0  0  0  0  0  0
  200.5521  180.3425  155.0453 C   0  0  0  0  0  0  0  0  0  0  0  0
  201.4247  179.2862  155.4527 C   0  0  0  0  0  0  0  0  0  0  0  0
  202.8165  179.4400  155.5879 N   0  0  0  0  0  0  0  0  0  0  0  0
  203.5124  180.7079  155.4216 C   0  0  1  0  0  0  0  0  0  0  0  0
  203.5112  181.6149  156.6425 C   0  0  0  0  0  0  0  0  0  0  0  0
  203.3880  183.0109  156.4758 C   0  0  0  0  0  0  0  0  0  0  0  0
  203.4133  183.8661  157.5939 C   0  0  0  0  0  0  0  0  0  0  0  0
  203.5700  183.3327  158.8901 C   0  0  0  0  0  0  0  0  0  0  0  0
  203.7117  181.9377  159.0565 C   0  0  0  0  0  0  0  0  0  0  0  0
  203.6796  181.0832  157.9395 C   0  0  0  0  0  0  0  0  0  0  0  0
  203.5645  184.2507  160.1022 C   0  0  1  0  0  0  0  0  0  0  0  0
  202.1909  184.5614  160.5772 N   0  0  1  0  0  0  0  0  0  0  0  0
  201.3925  183.3623  160.9325 C   0  0  2  0  0  0  0  0  0  0  0  0
  202.2017  185.5570  161.6735 C   0  0  2  0  0  0  0  0  0  0  0  0
  200.7623  178.1095  155.6725 C   0  0  0  0  0  0  0  0  0  0  0  0
  198.0539  180.7733  154.5561 C   0  0  1  0  0  0  0  0  0  0  0  0
  197.9102  182.0063  155.4508 C   0  0  0  0  0  0  0  0  0  0  0  0
  198.5085  183.0370  155.1398 O   0  0  0  0  0  0  0  0  0  0  0  0
  197.1237  181.8687  156.5348 N   0  0  0  0  0  0  0  0  0  0  0  0
  196.7451  182.8439  157.4996 C   0  0  0  0  0  0  0  0  0  0  0  0
  195.6523  182.5171  158.3297 C   0  0  0  0  0  0  0  0  0  0  0  0
  195.2011  183.4229  159.3092 C   0  0  0  0  0  0  0  0  0  0  0  0
  195.8468  184.6621  159.4798 C   0  0  0  0  0  0  0  0  0  0  0  0
  195.3905  185.5902  160.5015 C   0  0  0  0  0  0  0  0  0  0  0  0
  195.0179  186.3846  161.3507 C   0  0  0  0  0  0  0  0  0  0  0  0
  196.9439  184.9954  158.6606 C   0  0  0  0  0  0  0  0  0  0  0  0
  197.3926  184.0928  157.6772 C   0  0  0  0  0  0  0  0  0  0  0  0
  200.8970  181.3448  154.8313 H   0  0  0  0  0  0  0  0  0  0  0  0
  203.3299  178.7051  156.0701 H   0  0  0  0  0  0  0  0  0  0  0  0
  204.5477  180.4901  155.1579 H   0  0  0  0  0  0  0  0  0  0  0  0
  203.0989  181.2462  154.5653 H   0  0  0  0  0  0  0  0  0  0  0  0
  203.2767  183.4302  155.4875 H   0  0  0  0  0  0  0  0  0  0  0  0
  203.3133  184.9311  157.4473 H   0  0  0  0  0  0  0  0  0  0  0  0
  203.8356  181.5136  160.0420 H   0  0  0  0  0  0  0  0  0  0  0  0
  203.7870  180.0171  158.0838 H   0  0  0  0  0  0  0  0  0  0  0  0
  204.1454  183.7962  160.9064 H   0  0  0  0  0  0  0  0  0  0  0  0
  204.0746  185.1801  159.8396 H   0  0  0  0  0  0  0  0  0  0  0  0
  201.8705  182.7952  161.7325 H   0  0  0  0  0  0  0  0  0  0  0  0
  201.2504  182.7031  160.0766 H   0  0  0  0  0  0  0  0  0  0  0  0
  200.3944  183.6438  161.2642 H   0  0  0  0  0  0  0  0  0  0  0  0
  202.7022  185.1602  162.5578 H   0  0  0  0  0  0  0  0  0  0  0  0
  201.1861  185.8322  161.9552 H   0  0  0  0  0  0  0  0  0  0  0  0
  202.7155  186.4720  161.3751 H   0  0  0  0  0  0  0  0  0  0  0  0
  201.1628  177.1579  155.9901 H   0  0  0  0  0  0  0  0  0  0  0  0
  198.1646  181.1062  153.5226 H   0  0  0  0  0  0  0  0  0  0  0  0
  197.1360  180.1831  154.5968 H   0  0  0  0  0  0  0  0  0  0  0  0
  196.6851  180.9610  156.6500 H   0  0  0  0  0  0  0  0  0  0  0  0
  195.1456  181.5693  158.2054 H   0  0  0  0  0  0  0  0  0  0  0  0
  194.3531  183.1613  159.9245 H   0  0  0  0  0  0  0  0  0  0  0  0
  194.6938  187.0927  162.0797 H   0  0  0  0  0  0  0  0  0  0  0  0
  197.4422  185.9457  158.7778 H   0  0  0  0  0  0  0  0  0  0  0  0
  198.2371  184.3900  157.0751 H   0  0  0  0  0  0  0  0  0  0  0  0
  201.7160  184.9961  159.7979 H   0  0  0  0  0  0  0  0  0  0  0  0
  1  2  1  0
  1 17  1  0
  2  3  2  0
  2 18  1  0
  3  4  1  0
  3 30  1  0
  4  5  1  0
  4 17  2  0
  5  6  1  0
  5 31  1  0
  6  7  1  0
  6 32  1  6
  6 33  1  0
  7  8  1  0
  7 12  2  0
  8  9  2  0
  8 34  1  0
  9 10  1  0
  9 35  1  0
 10 11  2  0
 10 13  1  0
 11 12  1  0
 11 36  1  0
 12 37  1  0
 13 14  1  0
 13 38  1  1
 13 39  1  0
 14 15  1  0
 14 16  1  0
 14 55  1  6
 15 40  1  1
 15 41  1  0
 15 42  1  0
 16 43  1  1
 16 44  1  0
 16 45  1  0
 17 46  1  0
 18 19  1  0
 18 47  1  6
 18 48  1  0
 19 20  2  0
 19 21  1  0
 21 22  1  0
 21 49  1  0
 22 23  1  0
 22 29  2  0
 23 24  2  0
 23 50  1  0
 24 25  1  0
 24 51  1  0
 25 26  1  0
 25 28  2  0
 26 27  3  0
 27 52  1  0
 28 29  1  0
 28 53  1  0
 29 54  1  0
M  CHG  1  14   1
M  END
>  <s_epik_cmdline>  (1468) 
J2VwaWtfcHl0aG9uJywgJy1waCcsICc3LjAwMDAwMCcsICctcGh0JywgJzIuMDAwMDAwJywgJy1tcycsICcxNicsICctdG4nLCAnOCcsICctbWEnLCAnMjAwJywgJy1pbWFlJywgJzxpbmZpbGUubWFlPicsICctb21hZScsICc8b3V0ZmlsZS5tYWU+Jw==

>  <s_epik_input>  (1468) 
W0NIXSNDYyhbY0hdW2NIXTEpW2NIXVtjSF1jMVtOSF1DKD1PKVtDSDJdYzJzW2NIXWMoW2NIXTIpW05IXVtDSDJdYzNbY0hdW2NIXWMoW2NIXVtjSF0zKVtDSDJdTihbQ0gzXSlbQ0gzXQ==

>  <s_i_glide_gridfile>  (1468) 
ATP-Grid

>  <s_lp_Force_Field>  (1468) 
OPLS_2005

>  <s_lp_Variant>  (1468) 
rxn512b____EMOL510742____EMOL15801711____EMOL50155899-1

>  <s_lp_label>  (1468) 
3114_sdstereoexpander_1_neutralizer_1_epik_1_stereoizer_1

>  <s_m_source_file>  (1468) 
ATP-VSW-LIGPREP-001-in.maegz

>  <s_sd_BIOSOLVEIT.INFINISEE\_QUERY\_NAME>  (1468) 
Ref-Lig

>  <s_sd_BIOSOLVEIT.INFINISEE\_QUERY\_SMILES>  (1468) 
S(c1nc2c(cc1C[NH2+]Cc3ccc(cc3)C[NH+](C)C)cccc2)Cc4ccccc4

>  <s_sd_BIOSOLVEIT.INFINISEE\_REACTION\_NAME>  (1468) 
rxn512b

>  <s_sd_BIOSOLVEIT.INFINISEE\_REAGENT1\_NAME>  (1468) 
EMOL510742

>  <s_sd_BIOSOLVEIT.INFINISEE\_REAGENT1\_SMILES>  (1468) 
Nc1ccc(C#C)cc1

>  <s_sd_BIOSOLVEIT.INFINISEE\_REAGENT2\_NAME>  (1468) 
EMOL15801711

>  <s_sd_BIOSOLVEIT.INFINISEE\_REAGENT2\_SMILES>  (1468) 
BrC1=CSC(=C1)CC(=O)O

>  <s_sd_BIOSOLVEIT.INFINISEE\_REAGENT3\_NAME>  (1468) 
EMOL50155899

>  <s_sd_BIOSOLVEIT.INFINISEE\_REAGENT3\_SMILES>  (1468) 
N(Cc1ccc(cc1)CN)(C)C

>  <s_sd_BIOSOLVEIT.INFINISEE\_SPACE>  (1468) 
eXplore_7tr_2022-12

>  <s_vsw_compound_code>  (1468) 
99617

>  <s_vsw_variant>  (1468) 
99617-1

>  <r_epik_Charging_Adjusted_Penalty>  (1468) 
0.080189274810459593

>  <r_epik_Ionization_Penalty>  (1468) 
0.040099999999999997

>  <r_epik_Ionization_Penalty_Charging>  (1468) 
0.040099999999999997

>  <r_epik_Ionization_Penalty_Neutral>  (1468) 
0

>  <r_epik_State_Penalty>  (1468) 
0.040099999999999997

>  <r_i_docking_score>  (1468) 
-3.6794598105955099

>  <r_i_glide_ecoul>  (1468) 
-7.6854233741760298

>  <r_i_glide_eff_state_penalty>  (1468) 
0.040099999999999997

>  <r_i_glide_einternal>  (1468) 
1.6611565351486199

>  <r_i_glide_emodel>  (1468) 
-47.203277463229497

>  <r_i_glide_energy>  (1468) 
-37.236618518829303

>  <r_i_glide_erotb>  (1468) 
1.08027571968596

>  <r_i_glide_esite>  (1468) 
-0.11293840420432701

>  <r_i_glide_evdw>  (1468) 
-29.551195144653299

>  <r_i_glide_gscore>  (1468) 
-3.7195598105955101

>  <r_i_glide_hbond>  (1468) 
-0.33060950215320301

>  <r_i_glide_ligand_efficiency>  (1468) 
-0.12687792450329299

>  <r_i_glide_ligand_efficiency_ln>  (1468) 
-0.84250299357598202

>  <r_i_glide_ligand_efficiency_sa>  (1468) 
-0.389809181822033

>  <r_i_glide_lipo>  (1468) 
-1.0751103151103201

>  <r_i_glide_metal>  (1468) 
-0

>  <r_i_glide_rewards>  (1468) 
-0.65080404545454396

>  <r_lp_Energy>  (1468) 
18.695222000000001

>  <r_lp_tautomer_probability>  (1468) 
0.99999274205267796

>  <r_qp_ACxDN^.5/SA>  (1468) 
0.0112917

>  <r_qp_CIQPlogS>  (1468) 
-4.0279999999999996

>  <r_qp_EA(eV)>  (1468) 
0.33500000000000002

>  <r_qp_FISA>  (1468) 
63.32

>  <r_qp_FOSA>  (1468) 
288.15300000000002

>  <r_qp_IP(eV)>  (1468) 
8.2639999999999993

>  <r_qp_Jm>  (1468) 
0.00042565279339687201

>  <r_qp_PISA>  (1468) 
374.03399999999999

>  <r_qp_PSA>  (1468) 
54.143999999999998

>  <r_qp_PercentHumanOralAbsorption>  (1468) 
92.135000000000005

>  <r_qp_QPPCaco>  (1468) 
154.61099999999999

>  <r_qp_QPPMDCK>  (1468) 
141.36099999999999

>  <r_qp_QPlogBB>  (1468) 
0.22600000000000001

>  <r_qp_QPlogHERG>  (1468) 
-8.3970000000000002

>  <r_qp_QPlogKhsa>  (1468) 
0.77800000000000002

>  <r_qp_QPlogKp>  (1468) 
-4.6299999999999999

>  <r_qp_QPlogPC16>  (1468) 
15.090999999999999

>  <r_qp_QPlogPo/w>  (1468) 
4.4420000000000002

>  <r_qp_QPlogPoct>  (1468) 
22.484999999999999

>  <r_qp_QPlogPw>  (1468) 
11.657

>  <r_qp_QPlogS>  (1468) 
-4.3470000000000004

>  <r_qp_QPpolrz>  (1468) 
46.588000000000001

>  <r_qp_SASA>  (1468) 
770.14999999999998

>  <r_qp_SAamideO>  (1468) 
0

>  <r_qp_SAfluorine>  (1468) 
0

>  <r_qp_WPSA>  (1468) 
44.643000000000001

>  <r_qp_accptHB>  (1468) 
5.5

>  <r_qp_dip^2/V>  (1468) 
0.043867700000000003

>  <r_qp_dipole>  (1468) 
7.7610000000000001

>  <r_qp_donorHB>  (1468) 
2.5

>  <r_qp_glob>  (1468) 
0.77573150000000002

>  <r_qp_mol_MW>  (1468) 
403.541

>  <r_qp_volume>  (1468) 
1373.037

>  <r_sd_BIOSOLVEIT.INFINISEE\_FTREES\_SIMILARITY>  (1468) 
0.90100000000000002

>  <r_sd_BIOSOLVEIT.LOGP>  (1468) 
3.1671999999999998

>  <r_sd_BIOSOLVEIT.MOLECULAR\_WEIGHT>  (1468) 
404.55399999999997

>  <r_sd_BIOSOLVEIT.TPSA>  (1468) 
45.57

>  <i_epik_Tot_Q>  (1468) 
1

>  <i_epik_Tot_abs_Q>  (1468) 
1

>  <i_f3d_flags>  (1468) 
0

>  <i_i_glide_confnum>  (1468) 
5

>  <i_i_glide_lignum>  (1468) 
63

>  <i_i_glide_posenum>  (1468) 
12

>  <i_i_glide_rotatable_bonds>  (1468) 
10

>  <i_lp_mmshare_version>  (1468) 
65135

>  <i_m_ct_format>  (1468) 
2

>  <i_m_source_file_index>  (1468) 
3114

>  <i_qp_#NandO>  (1468) 
4

>  <i_qp_#acid>  (1468) 
0

>  <i_qp_#amide>  (1468) 
0

>  <i_qp_#amidine>  (1468) 
0

>  <i_qp_#amine>  (1468) 
2

>  <i_qp_#in34>  (1468) 
0

>  <i_qp_#in56>  (1468) 
17

>  <i_qp_#metab>  (1468) 
6

>  <i_qp_#nonHatm>  (1468) 
29

>  <i_qp_#noncon>  (1468) 
0

>  <i_qp_#ringatoms>  (1468) 
17

>  <i_qp_#rotor>  (1468) 
9

>  <i_qp_#rtvFG>  (1468) 
0

>  <i_qp_#stars>  (1468) 
0

>  <i_qp_CNS>  (1468) 
1

>  <i_qp_HumanOralAbsorption>  (1468) 
3

>  <i_qp_RuleOfFive>  (1468) 
0

>  <i_qp_RuleOfThree>  (1468) 
0

>  <i_sd_BIOSOLVEIT.INFINISEE\_RESULT\_RANK>  (1468) 
98737

>  <i_sd_version>  (1468) 
0

>  <b_lp_Chiralities_Consistent>  (1468) 
1

>  <b_sd_chiral_flag>  (1468) 
0

>  <canonical_id>  (1468) 
ATP-HTVS-E6B57BB86B33

>  <compound_code>  (1468) 
99617

>  <title>  (1468) 
rxn512b____EMOL510742____EMOL15801711____EMOL50155899

>  <variant>  (1468) 
99617-1

>  <source_file>  (1468) 
运行/运行/ATP-VSW/ATP-VSW-DOCK_HTVS_1-002_lib.maegz

>  <canonical_smiles>  (1468) 
C#Cc1ccc(NC(=O)Cc2cc(NCc3ccc(C[NH+](C)C)cc3)cs2)cc1

>  <scaffold>  (1468) 
O=C(Cc1cc(NCc2ccccc2)cs1)Nc1ccccc1

>  <molecular_formula>  (1468) 
C24H26N3OS+

$$$$
ATP-HTVS-E6C07A7730FF
     RDKit          3D

 71 74  0  0  0  0  0  0  0  0999 V2000
  199.0817  178.3952  148.4027 O   0  0  0  0  0  0  0  0  0  0  0  0
  198.0099  178.6699  148.9394 C   0  0  0  0  0  0  0  0  0  0  0  0
  196.8215  178.6590  148.3000 O   0  0  0  0  0  0  0  0  0  0  0  0
  196.7571  178.2725  146.9375 C   0  0  2  0  0  0  0  0  0  0  0  0
  197.8787  179.0439  150.3753 C   0  0  0  0  0  0  0  0  0  0  0  0
  198.8535  178.6316  151.3136 C   0  0  0  0  0  0  0  0  0  0  0  0
  198.7416  179.0056  152.6693 C   0  0  0  0  0  0  0  0  0  0  0  0
  197.6629  179.8067  153.1103 C   0  0  0  0  0  0  0  0  0  0  0  0
  196.6805  180.1986  152.1744 C   0  0  0  0  0  0  0  0  0  0  0  0
  196.7889  179.8237  150.8218 C   0  0  0  0  0  0  0  0  0  0  0  0
  197.5795  180.2190  154.5579 C   0  0  0  0  0  0  0  0  0  0  0  0
  198.0121  179.4986  155.4435 O   0  0  0  0  0  0  0  0  0  0  0  0
  197.0923  181.4646  154.7478 N   0  0  0  0  0  0  0  0  0  0  0  0
  197.1223  182.2785  155.9175 C   0  0  0  0  0  0  0  0  0  0  0  0
  197.2010  183.6788  155.8062 C   0  0  0  0  0  0  0  0  0  0  0  0
  197.2545  184.2409  154.5275 N   0  0  0  0  0  0  0  0  0  0  0  0
  198.5398  184.8358  154.1768 C   0  0  1  0  0  0  0  0  0  0  0  0
  198.7801  184.9663  152.6911 C   0  0  0  0  0  0  0  0  0  0  0  0
  198.4435  186.1569  152.0327 C   0  0  0  0  0  0  0  0  0  0  0  0
  198.6572  186.2817  150.6511 C   0  0  0  0  0  0  0  0  0  0  0  0
  199.1858  185.2046  149.9138 C   0  0  0  0  0  0  0  0  0  0  0  0
  199.5423  184.0129  150.5881 C   0  0  0  0  0  0  0  0  0  0  0  0
  199.3543  183.8979  151.9816 C   0  0  0  0  0  0  0  0  0  0  0  0
  199.2641  185.2879  148.4029 C   0  0  1  0  0  0  0  0  0  0  0  0
  197.9540  185.0308  147.7253 N   0  0  2  0  0  0  0  0  0  0  0  0
  197.1868  183.8378  148.2224 C   0  0  1  0  0  0  0  0  0  0  0  0
  196.5325  183.9896  149.6396 C   0  0  2  0  0  0  0  0  0  0  0  0
  198.0988  185.0292  146.2374 C   0  0  1  0  0  0  0  0  0  0  0  0
  198.9615  183.8644  145.6998 C   0  0  2  0  0  0  0  0  0  0  0  0
  197.2375  184.4604  156.9988 C   0  0  0  0  0  0  0  0  0  0  0  0
  197.1914  183.8338  158.2669 C   0  0  0  0  0  0  0  0  0  0  0  0
  197.1041  182.5048  158.3332 N   0  0  0  0  0  0  0  0  0  0  0  0
  197.0711  181.7386  157.2233 C   0  0  0  0  0  0  0  0  0  0  0  0
  197.2328  184.5731  159.4562 C   0  0  0  0  0  0  0  0  0  0  0  0
  197.3226  185.9833  159.3982 C   0  0  0  0  0  0  0  0  0  0  0  0
  197.3582  186.6297  158.1520 C   0  0  0  0  0  0  0  0  0  0  0  0
  197.3018  185.8873  156.9625 C   0  0  0  0  0  0  0  0  0  0  0  0
  195.7232  178.3315  146.5926 H   0  0  0  0  0  0  0  0  0  0  0  0
  197.1179  177.2564  146.7945 H   0  0  0  0  0  0  0  0  0  0  0  0
  197.3495  178.9472  146.3180 H   0  0  0  0  0  0  0  0  0  0  0  0
  199.6874  178.0179  151.0024 H   0  0  0  0  0  0  0  0  0  0  0  0
  199.4915  178.6711  153.3717 H   0  0  0  0  0  0  0  0  0  0  0  0
  195.8352  180.7974  152.4808 H   0  0  0  0  0  0  0  0  0  0  0  0
  196.0305  180.1596  150.1290 H   0  0  0  0  0  0  0  0  0  0  0  0
  196.8155  181.9366  153.9060 H   0  0  0  0  0  0  0  0  0  0  0  0
  196.8754  183.6677  153.7883 H   0  0  0  0  0  0  0  0  0  0  0  0
  198.6183  185.8399  154.5856 H   0  0  0  0  0  0  0  0  0  0  0  0
  199.3500  184.2618  154.6221 H   0  0  0  0  0  0  0  0  0  0  0  0
  197.9547  186.9653  152.5600 H   0  0  0  0  0  0  0  0  0  0  0  0
  198.3048  187.1433  150.1275 H   0  0  0  0  0  0  0  0  0  0  0  0
  199.9134  183.1670  150.0385 H   0  0  0  0  0  0  0  0  0  0  0  0
  199.5158  182.9512  152.4632 H   0  0  0  0  0  0  0  0  0  0  0  0
  199.6434  186.2707  148.0949 H   0  0  0  0  0  0  0  0  0  0  0  0
  200.0075  184.5474  148.0997 H   0  0  0  0  0  0  0  0  0  0  0  0
  196.3807  183.6518  147.4950 H   0  0  0  0  0  0  0  0  0  0  0  0
  197.8374  182.9534  148.1650 H   0  0  0  0  0  0  0  0  0  0  0  0
  196.0189  183.0520  149.9107 H   0  0  0  0  0  0  0  0  0  0  0  0
  195.8590  184.8649  149.6675 H   0  0  0  0  0  0  0  0  0  0  0  0
  197.2511  184.1050  150.4378 H   0  0  0  0  0  0  0  0  0  0  0  0
  197.1188  184.9885  145.7583 H   0  0  0  0  0  0  0  0  0  0  0  0
  198.5333  185.9736  145.9056 H   0  0  0  0  0  0  0  0  0  0  0  0
  199.0894  183.9183  144.6169 H   0  0  0  0  0  0  0  0  0  0  0  0
  198.5243  182.8914  145.9330 H   0  0  0  0  0  0  0  0  0  0  0  0
  199.9717  183.8735  146.1038 H   0  0  0  0  0  0  0  0  0  0  0  0
  196.9901  180.7294  157.4376 H   0  0  0  0  0  0  0  0  0  0  0  0
  197.1991  184.0875  160.4190 H   0  0  0  0  0  0  0  0  0  0  0  0
  197.3562  186.5648  160.3063 H   0  0  0  0  0  0  0  0  0  0  0  0
  197.4203  187.7096  158.1014 H   0  0  0  0  0  0  0  0  0  0  0  0
  197.2927  186.4222  156.0305 H   0  0  0  0  0  0  0  0  0  0  0  0
  197.3521  185.8196  147.9187 H   0  0  0  0  0  0  0  0  0  0  0  0
  197.0553  182.0227  159.2326 H   0  0  0  0  0  0  0  0  0  0  0  0
  1  2  2  0
  2  3  1  0
  2  5  1  0
  3  4  1  0
  4 38  1  6
  4 39  1  0
  4 40  1  0
  5  6  1  0
  5 10  2  0
  6  7  2  0
  6 41  1  0
  7  8  1  0
  7 42  1  0
  8  9  2  0
  8 11  1  0
  9 10  1  0
  9 43  1  0
 10 44  1  0
 11 12  2  0
 11 13  1  0
 13 14  1  0
 13 45  1  0
 14 15  2  0
 14 33  1  0
 15 16  1  0
 15 30  1  0
 16 17  1  0
 16 46  1  0
 17 18  1  0
 17 47  1  1
 17 48  1  0
 18 19  1  0
 18 23  2  0
 19 20  2  0
 19 49  1  0
 20 21  1  0
 20 50  1  0
 21 22  2  0
 21 24  1  0
 22 23  1  0
 22 51  1  0
 23 52  1  0
 24 25  1  0
 24 53  1  1
 24 54  1  0
 25 26  1  0
 25 28  1  0
 25 70  1  6
 26 27  1  0
 26 55  1  6
 26 56  1  0
 27 57  1  1
 27 58  1  0
 27 59  1  0
 28 29  1  0
 28 60  1  6
 28 61  1  0
 29 62  1  6
 29 63  1  0
 29 64  1  0
 30 31  1  0
 30 37  2  0
 31 32  1  0
 31 34  2  0
 32 33  2  0
 32 71  1  0
 33 65  1  0
 34 35  1  0
 34 66  1  0
 35 36  2  0
 35 67  1  0
 36 37  1  0
 36 68  1  0
 37 69  1  0
M  CHG  2  25   1  32   1
M  END
>  <s_epik_Chemistry_Notes>  (1469) 
This compound has an ester and may undergo hydrolysis at high or low pH.

>  <s_epik_cmdline>  (1469) 
J2VwaWtfcHl0aG9uJywgJy1waCcsICc3LjAwMDAwMCcsICctcGh0JywgJzIuMDAwMDAwJywgJy1tcycsICcxNicsICctdG4nLCAnOCcsICctbWEnLCAnMjAwJywgJy1pbWFlJywgJzxpbmZpbGUubWFlPicsICctb21hZScsICc8b3V0ZmlsZS5tYWU+Jw==

>  <s_epik_input>  (1469) 
W0NIM11PQyg9TyljMVtjSF1bY0hdYyhbY0hdW2NIXTEpQyg9TylbTkhdYyhbY0hdbmMoYzIzKVtjSF1bY0hdW2NIXVtjSF0zKWMyW05IXVtDSDJdYzRbY0hdW2NIXWMoW2NIXVtjSF00KVtDSDJdTihbQ0gyXVtDSDNdKVtDSDJdW0NIM10=

>  <s_i_glide_gridfile>  (1469) 
ATP-Grid

>  <s_lp_Force_Field>  (1469) 
OPLS_2005

>  <s_lp_Variant>  (1469) 
rxn502b____EMOL497927____EMOL30488121____EMOL2868412-1

>  <s_lp_label>  (1469) 
2812_sdstereoexpander_1_neutralizer_1_epik_1_stereoizer_1

>  <s_m_source_file>  (1469) 
ATP-VSW-LIGPREP-002-in.maegz

>  <s_sd_BIOSOLVEIT.INFINISEE\_QUERY\_NAME>  (1469) 
Ref-Lig

>  <s_sd_BIOSOLVEIT.INFINISEE\_QUERY\_SMILES>  (1469) 
S(c1nc2c(cc1C[NH2+]Cc3ccc(cc3)C[NH+](C)C)cccc2)Cc4ccccc4

>  <s_sd_BIOSOLVEIT.INFINISEE\_REACTION\_NAME>  (1469) 
rxn502b

>  <s_sd_BIOSOLVEIT.INFINISEE\_REAGENT1\_NAME>  (1469) 
EMOL497927

>  <s_sd_BIOSOLVEIT.INFINISEE\_REAGENT1\_SMILES>  (1469) 
O=C(OC)c1ccc(cc1)C(=O)O

>  <s_sd_BIOSOLVEIT.INFINISEE\_REAGENT2\_NAME>  (1469) 
EMOL30488121

>  <s_sd_BIOSOLVEIT.INFINISEE\_REAGENT2\_SMILES>  (1469) 
Brc1c(N)cnc2c1cccc2

>  <s_sd_BIOSOLVEIT.INFINISEE\_REAGENT3\_NAME>  (1469) 
EMOL2868412

>  <s_sd_BIOSOLVEIT.INFINISEE\_REAGENT3\_SMILES>  (1469) 
N(Cc1ccc(cc1)CN)(CC)CC

>  <s_sd_BIOSOLVEIT.INFINISEE\_SPACE>  (1469) 
eXplore_7tr_2022-12

>  <s_vsw_compound_code>  (1469) 
89954

>  <s_vsw_variant>  (1469) 
89954-1

>  <r_epik_Charging_Adjusted_Penalty>  (1469) 
0.19199600449860099

>  <r_epik_Ionization_Penalty>  (1469) 
0.0974

>  <r_epik_Ionization_Penalty_Charging>  (1469) 
0.097000000000000003

>  <r_epik_Ionization_Penalty_Neutral>  (1469) 
0.00040000000000000002

>  <r_epik_State_Penalty>  (1469) 
0.095000000000000001

>  <r_i_docking_score>  (1469) 
-4.8796523620576497

>  <r_i_glide_ecoul>  (1469) 
-7.1141448020935103

>  <r_i_glide_eff_state_penalty>  (1469) 
0.095000000000000001

>  <r_i_glide_einternal>  (1469) 
4.3522071838378897

>  <r_i_glide_emodel>  (1469) 
-66.102094374990401

>  <r_i_glide_energy>  (1469) 
-48.303582668304401

>  <r_i_glide_erotb>  (1469) 
0.73874427223618899

>  <r_i_glide_esite>  (1469) 
-0.115537610742552

>  <r_i_glide_evdw>  (1469) 
-41.189437866210902

>  <r_i_glide_gscore>  (1469) 
-4.9746523620576504

>  <r_i_glide_hbond>  (1469) 
0

>  <r_i_glide_ligand_efficiency>  (1469) 
-0.13188249627182799

>  <r_i_glide_ligand_efficiency_ln>  (1469) 
-1.0582822020484199

>  <r_i_glide_ligand_efficiency_sa>  (1469) 
-0.43946173539764899

>  <r_i_glide_lipo>  (1469) 
-2.14404307311719

>  <r_i_glide_metal>  (1469) 
-0

>  <r_i_glide_rewards>  (1469) 
-0.327222336809531

>  <r_lp_Energy>  (1469) 
43.780417

>  <r_qp_ACxDN^.5/SA>  (1469) 
0.0151863

>  <r_qp_CIQPlogS>  (1469) 
-6.1289999999999996

>  <r_qp_EA(eV)>  (1469) 
1.1890000000000001

>  <r_qp_FISA>  (1469) 
115.172

>  <r_qp_FOSA>  (1469) 
332.36500000000001

>  <r_qp_IP(eV)>  (1469) 
8.5500000000000007

>  <r_qp_Jm>  (1469) 
0.0033833749878575802

>  <r_qp_PISA>  (1469) 
344.01799999999997

>  <r_qp_PSA>  (1469) 
95.093999999999994

>  <r_qp_PercentHumanOralAbsorption>  (1469) 
93.757000000000005

>  <r_qp_QPPCaco>  (1469) 
199.81100000000001

>  <r_qp_QPPMDCK>  (1469) 
96.003

>  <r_qp_QPlogBB>  (1469) 
-0.79400000000000004

>  <r_qp_QPlogHERG>  (1469) 
-6.8760000000000003

>  <r_qp_QPlogKhsa>  (1469) 
0.68999999999999995

>  <r_qp_QPlogKp>  (1469) 
-3.5329999999999999

>  <r_qp_QPlogPC16>  (1469) 
16.167999999999999

>  <r_qp_QPlogPo/w>  (1469) 
4.3780000000000001

>  <r_qp_QPlogPoct>  (1469) 
25.285

>  <r_qp_QPlogPw>  (1469) 
13.843

>  <r_qp_QPlogS>  (1469) 
-4.6340000000000003

>  <r_qp_QPpolrz>  (1469) 
52.481999999999999

>  <r_qp_SASA>  (1469) 
791.55600000000004

>  <r_qp_SAamideO>  (1469) 
0

>  <r_qp_SAfluorine>  (1469) 
0

>  <r_qp_WPSA>  (1469) 
0

>  <r_qp_accptHB>  (1469) 
8.5

>  <r_qp_dip^2/V>  (1469) 
0.016791400000000001

>  <r_qp_dipole>  (1469) 
5.0910000000000002

>  <r_qp_donorHB>  (1469) 
2

>  <r_qp_glob>  (1469) 
0.81600419999999996

>  <r_qp_mol_MW>  (1469) 
496.608

>  <r_qp_volume>  (1469) 
1543.5239999999999

>  <r_sd_BIOSOLVEIT.INFINISEE\_FTREES\_SIMILARITY>  (1469) 
0.90600000000000003

>  <r_sd_BIOSOLVEIT.LOGP>  (1469) 
4.3105000000000002

>  <r_sd_BIOSOLVEIT.MOLECULAR\_WEIGHT>  (1469) 
497.61599999999999

>  <r_sd_BIOSOLVEIT.TPSA>  (1469) 
84.760000000000005

>  <i_epik_Tot_Q>  (1469) 
2

>  <i_epik_Tot_abs_Q>  (1469) 
2

>  <i_f3d_flags>  (1469) 
0

>  <i_i_glide_confnum>  (1469) 
13

>  <i_i_glide_lignum>  (1469) 
1364

>  <i_i_glide_posenum>  (1469) 
17

>  <i_i_glide_rotatable_bonds>  (1469) 
12

>  <i_lp_mmshare_version>  (1469) 
65135

>  <i_m_ct_format>  (1469) 
2

>  <i_m_source_file_index>  (1469) 
2812

>  <i_qp_#NandO>  (1469) 
7

>  <i_qp_#acid>  (1469) 
0

>  <i_qp_#amide>  (1469) 
0

>  <i_qp_#amidine>  (1469) 
0

>  <i_qp_#amine>  (1469) 
1

>  <i_qp_#in34>  (1469) 
0

>  <i_qp_#in56>  (1469) 
22

>  <i_qp_#metab>  (1469) 
6

>  <i_qp_#nonHatm>  (1469) 
37

>  <i_qp_#noncon>  (1469) 
0

>  <i_qp_#ringatoms>  (1469) 
22

>  <i_qp_#rotor>  (1469) 
10

>  <i_qp_#rtvFG>  (1469) 
1

>  <i_qp_#stars>  (1469) 
0

>  <i_qp_CNS>  (1469) 
0

>  <i_qp_HumanOralAbsorption>  (1469) 
3

>  <i_qp_RuleOfFive>  (1469) 
0

>  <i_qp_RuleOfThree>  (1469) 
0

>  <i_sd_BIOSOLVEIT.INFINISEE\_RESULT\_RANK>  (1469) 
64766

>  <i_sd_version>  (1469) 
0

>  <b_lp_Chiralities_Consistent>  (1469) 
1

>  <b_sd_chiral_flag>  (1469) 
0

>  <canonical_id>  (1469) 
ATP-HTVS-E6C07A7730FF

>  <compound_code>  (1469) 
89954

>  <title>  (1469) 
rxn502b____EMOL497927____EMOL30488121____EMOL2868412

>  <variant>  (1469) 
89954-1

>  <source_file>  (1469) 
运行/运行/ATP-VSW/ATP-VSW-DOCK_HTVS_1-002_lib.maegz

>  <canonical_smiles>  (1469) 
CC[NH+](CC)Cc1ccc(CNc2c(NC(=O)c3ccc(C(=O)OC)cc3)c[nH+]c3ccccc23)cc1

>  <scaffold>  (1469) 
O=C(Nc1c[nH+]c2ccccc2c1NCc1ccccc1)c1ccccc1

>  <molecular_formula>  (1469) 
C30H34N4O3+2

$$$$
ATP-HTVS-E6E3A92D5598
     RDKit          3D

 53 55  0  0  0  0  0  0  0  0999 V2000
  197.5027  180.3578  154.5208 S   0  0  0  0  0  0  0  0  0  0  0  0
  196.7575  180.8534  153.0286 C   0  0  0  0  0  0  0  0  0  0  0  0
  196.8585  182.1977  152.8166 C   0  0  0  0  0  0  0  0  0  0  0  0
  197.5609  182.8588  153.8605 C   0  0  0  0  0  0  0  0  0  0  0  0
  197.6742  184.2656  153.8683 N   0  0  0  0  0  0  0  0  0  0  0  0
  198.1171  185.1008  154.9857 C   0  0  1  0  0  0  0  0  0  0  0  0
  197.8125  184.6468  156.4147 C   0  0  0  0  0  0  0  0  0  0  0  0
  196.8390  183.6445  156.6866 C   0  0  0  0  0  0  0  0  0  0  0  0
  196.7573  183.0738  157.9740 C   0  0  0  0  0  0  0  0  0  0  0  0
  197.4458  183.6756  159.0576 C   0  0  0  0  0  0  0  0  0  0  0  0
  198.2982  184.7722  158.8102 C   0  0  0  0  0  0  0  0  0  0  0  0
  198.4888  185.2497  157.4982 C   0  0  0  0  0  0  0  0  0  0  0  0
  195.8573  181.8748  158.1794 C   0  0  1  0  0  0  0  0  0  0  0  0
  194.4241  182.2524  158.1238 N   0  0  1  0  0  0  0  0  0  0  0  0
  193.5208  181.0970  158.3587 C   0  0  2  0  0  0  0  0  0  0  0  0
  194.1163  183.3815  159.0611 C   0  0  2  0  0  0  0  0  0  0  0  0
  198.0936  181.9793  154.7859 C   0  0  0  0  0  0  0  0  0  0  0  0
  196.1037  179.8311  152.1611 C   0  0  1  0  0  0  0  0  0  0  0  0
  197.1104  179.3688  151.1142 C   0  0  0  0  0  0  0  0  0  0  0  0
  198.2074  178.9369  151.4807 O   0  0  0  0  0  0  0  0  0  0  0  0
  196.7246  179.4644  149.8335 N   0  0  0  0  0  0  0  0  0  0  0  0
  197.4735  179.0475  148.7033 C   0  0  0  0  0  0  0  0  0  0  0  0
  196.8268  178.4520  147.5994 C   0  0  0  0  0  0  0  0  0  0  0  0
  195.4834  178.2532  147.6155 F   0  0  0  0  0  0  0  0  0  0  0  0
  197.5757  178.0760  146.4644 C   0  0  0  0  0  0  0  0  0  0  0  0
  198.9671  178.2995  146.4256 C   0  0  0  0  0  0  0  0  0  0  0  0
  199.6078  178.9098  147.5187 C   0  0  0  0  0  0  0  0  0  0  0  0
  198.8644  179.2905  148.6467 C   0  0  0  0  0  0  0  0  0  0  0  0
  196.4078  182.7190  151.9916 H   0  0  0  0  0  0  0  0  0  0  0  0
  197.2468  184.7650  153.0994 H   0  0  0  0  0  0  0  0  0  0  0  0
  199.1947  185.1892  154.8734 H   0  0  0  0  0  0  0  0  0  0  0  0
  197.7238  186.1103  154.8470 H   0  0  0  0  0  0  0  0  0  0  0  0
  196.2272  183.2422  155.9046 H   0  0  0  0  0  0  0  0  0  0  0  0
  197.3225  183.2857  160.0544 H   0  0  0  0  0  0  0  0  0  0  0  0
  198.8150  185.2502  159.6459 H   0  0  0  0  0  0  0  0  0  0  0  0
  199.2059  186.0370  157.3131 H   0  0  0  0  0  0  0  0  0  0  0  0
  196.0677  181.1564  157.3909 H   0  0  0  0  0  0  0  0  0  0  0  0
  196.0967  181.3815  159.1146 H   0  0  0  0  0  0  0  0  0  0  0  0
  193.6954  180.6378  159.3284 H   0  0  0  0  0  0  0  0  0  0  0  0
  193.6481  180.3403  157.5844 H   0  0  0  0  0  0  0  0  0  0  0  0
  192.4830  181.4214  158.3018 H   0  0  0  0  0  0  0  0  0  0  0  0
  194.3452  183.0977  160.0840 H   0  0  0  0  0  0  0  0  0  0  0  0
  193.0713  183.6725  158.9858 H   0  0  0  0  0  0  0  0  0  0  0  0
  194.6996  184.2719  158.8257 H   0  0  0  0  0  0  0  0  0  0  0  0
  198.6821  182.1829  155.6571 H   0  0  0  0  0  0  0  0  0  0  0  0
  195.8087  178.9597  152.7511 H   0  0  0  0  0  0  0  0  0  0  0  0
  195.2070  180.2475  151.6954 H   0  0  0  0  0  0  0  0  0  0  0  0
  195.7938  179.8133  149.6605 H   0  0  0  0  0  0  0  0  0  0  0  0
  197.0887  177.6132  145.6184 H   0  0  0  0  0  0  0  0  0  0  0  0
  199.5395  178.0109  145.5533 H   0  0  0  0  0  0  0  0  0  0  0  0
  200.6696  179.1012  147.4965 H   0  0  0  0  0  0  0  0  0  0  0  0
  199.3743  179.7777  149.4629 H   0  0  0  0  0  0  0  0  0  0  0  0
  194.2285  182.5685  157.2016 H   0  0  0  0  0  0  0  0  0  0  0  0
  1  2  1  0
  1 17  1  0
  2  3  2  0
  2 18  1  0
  3  4  1  0
  3 29  1  0
  4  5  1  0
  4 17  2  0
  5  6  1  0
  5 30  1  0
  6  7  1  0
  6 31  1  1
  6 32  1  0
  7  8  2  0
  7 12  1  0
  8  9  1  0
  8 33  1  0
  9 10  2  0
  9 13  1  0
 10 11  1  0
 10 34  1  0
 11 12  2  0
 11 35  1  0
 12 36  1  0
 13 14  1  0
 13 37  1  6
 13 38  1  0
 14 15  1  0
 14 16  1  0
 14 53  1  6
 15 39  1  1
 15 40  1  0
 15 41  1  0
 16 42  1  1
 16 43  1  0
 16 44  1  0
 17 45  1  0
 18 19  1  0
 18 46  1  1
 18 47  1  0
 19 20  2  0
 19 21  1  0
 21 22  1  0
 21 48  1  0
 22 23  1  0
 22 28  2  0
 23 24  1  0
 23 25  2  0
 25 26  1  0
 25 49  1  0
 26 27  2  0
 26 50  1  0
 27 28  1  0
 27 51  1  0
 28 52  1  0
M  CHG  1  14   1
M  END
>  <s_epik_cmdline>  (1470) 
J2VwaWtfcHl0aG9uJywgJy1waCcsICc3LjAwMDAwMCcsICctcGh0JywgJzIuMDAwMDAwJywgJy1tcycsICcxNicsICctdG4nLCAnOCcsICctbWEnLCAnMjAwJywgJy1pbWFlJywgJzxpbmZpbGUubWFlPicsICctb21hZScsICc8b3V0ZmlsZS5tYWU+Jw==

>  <s_epik_input>  (1470) 
W2NIXTFbY0hdW2NIXVtjSF1jKEYpYzFbTkhdQyg9TylbQ0gyXWMyc1tjSF1jKFtjSF0yKVtOSF1bQ0gyXWMzW2NIXWMoW2NIXVtjSF1bY0hdMylbQ0gyXU4oW0NIM10pW0NIM10=

>  <s_i_glide_gridfile>  (1470) 
ATP-Grid

>  <s_lp_Force_Field>  (1470) 
OPLS_2005

>  <s_lp_Variant>  (1470) 
rxn512b____EMOL511418____EMOL15801711____EMOL2873214-1

>  <s_lp_label>  (1470) 
2805_sdstereoexpander_1_neutralizer_1_epik_1_stereoizer_1

>  <s_m_source_file>  (1470) 
ATP-VSW-LIGPREP-003-in.maegz

>  <s_sd_BIOSOLVEIT.INFINISEE\_QUERY\_NAME>  (1470) 
Ref-Lig

>  <s_sd_BIOSOLVEIT.INFINISEE\_QUERY\_SMILES>  (1470) 
S(c1nc2c(cc1C[NH2+]Cc3ccc(cc3)C[NH+](C)C)cccc2)Cc4ccccc4

>  <s_sd_BIOSOLVEIT.INFINISEE\_REACTION\_NAME>  (1470) 
rxn512b

>  <s_sd_BIOSOLVEIT.INFINISEE\_REAGENT1\_NAME>  (1470) 
EMOL511418

>  <s_sd_BIOSOLVEIT.INFINISEE\_REAGENT1\_SMILES>  (1470) 
Fc1c(N)cccc1

>  <s_sd_BIOSOLVEIT.INFINISEE\_REAGENT2\_NAME>  (1470) 
EMOL15801711

>  <s_sd_BIOSOLVEIT.INFINISEE\_REAGENT2\_SMILES>  (1470) 
BrC1=CSC(=C1)CC(=O)O

>  <s_sd_BIOSOLVEIT.INFINISEE\_REAGENT3\_NAME>  (1470) 
EMOL2873214

>  <s_sd_BIOSOLVEIT.INFINISEE\_REAGENT3\_SMILES>  (1470) 
N(Cc1cc(ccc1)CN)(C)C

>  <s_sd_BIOSOLVEIT.INFINISEE\_SPACE>  (1470) 
eXplore_7tr_2022-12

>  <s_vsw_compound_code>  (1470) 
89731

>  <s_vsw_variant>  (1470) 
89731-1

>  <r_epik_Charging_Adjusted_Penalty>  (1470) 
0.086140609825027206

>  <r_epik_Ionization_Penalty>  (1470) 
0.043099999999999999

>  <r_epik_Ionization_Penalty_Charging>  (1470) 
0.043099999999999999

>  <r_epik_Ionization_Penalty_Neutral>  (1470) 
0

>  <r_epik_State_Penalty>  (1470) 
0.043099999999999999

>  <r_i_docking_score>  (1470) 
-4.4945714183162702

>  <r_i_glide_ecoul>  (1470) 
-10.012371063232401

>  <r_i_glide_eff_state_penalty>  (1470) 
0.043099999999999999

>  <r_i_glide_einternal>  (1470) 
3.1984045505523699

>  <r_i_glide_emodel>  (1470) 
-60.198905290584101

>  <r_i_glide_energy>  (1470) 
-44.521141052246101

>  <r_i_glide_erotb>  (1470) 
0.86324828570185597

>  <r_i_glide_esite>  (1470) 
-0.11578170955356

>  <r_i_glide_evdw>  (1470) 
-34.5087699890137

>  <r_i_glide_gscore>  (1470) 
-4.5376714183162701

>  <r_i_glide_hbond>  (1470) 
-0.20000000000000001

>  <r_i_glide_ligand_efficiency>  (1470) 
-0.16052040779700999

>  <r_i_glide_ligand_efficiency_ln>  (1470) 
-1.03747904969853

>  <r_i_glide_ligand_efficiency_sa>  (1470) 
-0.48743449953597301

>  <r_i_glide_lipo>  (1470) 
-0.96624481704752396

>  <r_i_glide_metal>  (1470) 
-0

>  <r_i_glide_rewards>  (1470) 
-0.89159901848149203

>  <r_lp_Energy>  (1470) 
19.732616

>  <r_lp_tautomer_probability>  (1470) 
0.99999274205267796

>  <r_qp_ACxDN^.5/SA>  (1470) 
0.010457299999999999

>  <r_qp_CIQPlogS>  (1470) 
-3.9540000000000002

>  <r_qp_EA(eV)>  (1470) 
0.27800000000000002

>  <r_qp_FISA>  (1470) 
61.148000000000003

>  <r_qp_FOSA>  (1470) 
267.35199999999998

>  <r_qp_IP(eV)>  (1470) 
8.1370000000000005

>  <r_qp_Jm>  (1470) 
0.00038527529251125998

>  <r_qp_PISA>  (1470) 
346.82299999999998

>  <r_qp_PSA>  (1470) 
53.759999999999998

>  <r_qp_PercentHumanOralAbsorption>  (1470) 
91.191999999999993

>  <r_qp_QPPCaco>  (1470) 
162.11799999999999

>  <r_qp_QPPMDCK>  (1470) 
200.99299999999999

>  <r_qp_QPlogBB>  (1470) 
0.374

>  <r_qp_QPlogHERG>  (1470) 
-8.2230000000000008

>  <r_qp_QPlogKhsa>  (1470) 
0.69399999999999995

>  <r_qp_QPlogKp>  (1470) 
-4.782

>  <r_qp_QPlogPC16>  (1470) 
13.933999999999999

>  <r_qp_QPlogPo/w>  (1470) 
4.218

>  <r_qp_QPlogPoct>  (1470) 
20.643000000000001

>  <r_qp_QPlogPw>  (1470) 
10.890000000000001

>  <r_qp_QPlogS>  (1470) 
-4.2320000000000002

>  <r_qp_QPpolrz>  (1470) 
44.448999999999998

>  <r_qp_SASA>  (1470) 
743.80600000000004

>  <r_qp_SAamideO>  (1470) 
0

>  <r_qp_SAfluorine>  (1470) 
28.777000000000001

>  <r_qp_WPSA>  (1470) 
68.483000000000004

>  <r_qp_accptHB>  (1470) 
5.5

>  <r_qp_dip^2/V>  (1470) 
0.0104698

>  <r_qp_dipole>  (1470) 
3.7029999999999998

>  <r_qp_donorHB>  (1470) 
2

>  <r_qp_glob>  (1470) 
0.77844579999999997

>  <r_qp_mol_MW>  (1470) 
397.50900000000001

>  <r_qp_volume>  (1470) 
1310.04

>  <r_sd_BIOSOLVEIT.INFINISEE\_FTREES\_SIMILARITY>  (1470) 
0.90600000000000003

>  <r_sd_BIOSOLVEIT.LOGP>  (1470) 
3.3250000000000002

>  <r_sd_BIOSOLVEIT.MOLECULAR\_WEIGHT>  (1470) 
398.52300000000002

>  <r_sd_BIOSOLVEIT.TPSA>  (1470) 
45.57

>  <i_epik_Tot_Q>  (1470) 
1

>  <i_epik_Tot_abs_Q>  (1470) 
1

>  <i_f3d_flags>  (1470) 
0

>  <i_i_glide_confnum>  (1470) 
9

>  <i_i_glide_lignum>  (1470) 
1335

>  <i_i_glide_posenum>  (1470) 
14

>  <i_i_glide_rotatable_bonds>  (1470) 
9

>  <i_lp_mmshare_version>  (1470) 
65135

>  <i_m_ct_format>  (1470) 
2

>  <i_m_source_file_index>  (1470) 
2805

>  <i_qp_#NandO>  (1470) 
4

>  <i_qp_#acid>  (1470) 
0

>  <i_qp_#amide>  (1470) 
0

>  <i_qp_#amidine>  (1470) 
0

>  <i_qp_#amine>  (1470) 
2

>  <i_qp_#in34>  (1470) 
0

>  <i_qp_#in56>  (1470) 
17

>  <i_qp_#metab>  (1470) 
7

>  <i_qp_#nonHatm>  (1470) 
28

>  <i_qp_#noncon>  (1470) 
0

>  <i_qp_#ringatoms>  (1470) 
17

>  <i_qp_#rotor>  (1470) 
8

>  <i_qp_#rtvFG>  (1470) 
0

>  <i_qp_#stars>  (1470) 
0

>  <i_qp_CNS>  (1470) 
1

>  <i_qp_HumanOralAbsorption>  (1470) 
3

>  <i_qp_RuleOfFive>  (1470) 
0

>  <i_qp_RuleOfThree>  (1470) 
1

>  <i_sd_BIOSOLVEIT.INFINISEE\_RESULT\_RANK>  (1470) 
64057

>  <i_sd_version>  (1470) 
0

>  <b_lp_Chiralities_Consistent>  (1470) 
1

>  <b_sd_chiral_flag>  (1470) 
0

>  <canonical_id>  (1470) 
ATP-HTVS-E6E3A92D5598

>  <compound_code>  (1470) 
89731

>  <title>  (1470) 
rxn512b____EMOL511418____EMOL15801711____EMOL2873214

>  <variant>  (1470) 
89731-1

>  <source_file>  (1470) 
运行/运行/ATP-VSW/ATP-VSW-DOCK_HTVS_1-003_lib/ATP-VSW-DOCK_HTVS_1-003_lib.mae

>  <canonical_smiles>  (1470) 
C[NH+](C)Cc1cccc(CNc2csc(CC(=O)Nc3ccccc3F)c2)c1

>  <scaffold>  (1470) 
O=C(Cc1cc(NCc2ccccc2)cs1)Nc1ccccc1

>  <molecular_formula>  (1470) 
C22H25FN3OS+

$$$$
ATP-HTVS-E6F8A3974F14
     RDKit          3D

 60 63  0  0  0  0  0  0  0  0999 V2000
  198.4542  181.1330  154.4693 O   0  0  0  0  0  0  0  0  0  0  0  0
  198.2478  180.3470  155.4049 C   0  0  0  0  0  0  0  0  0  0  0  0
  197.5619  180.6135  156.5031 N   0  0  0  0  0  0  0  0  0  0  0  0
  196.8781  181.9013  156.8130 C   0  0  2  0  0  0  0  0  0  0  0  0
  197.8606  183.0049  156.6017 C   0  0  0  0  0  0  0  0  0  0  0  0
  197.4655  184.1208  155.9368 O   0  0  0  0  0  0  0  0  0  0  0  0
  198.5940  184.9131  155.9377 C   0  0  0  0  0  0  0  0  0  0  0  0
  199.6046  184.2212  156.6462 C   0  0  0  0  0  0  0  0  0  0  0  0
  199.1438  183.0043  157.0569 N   0  0  0  0  0  0  0  0  0  0  0  0
  200.8457  184.8718  156.8444 C   0  0  0  0  0  0  0  0  0  0  0  0
  201.0577  186.1561  156.2987 C   0  0  0  0  0  0  0  0  0  0  0  0
  200.0400  186.8003  155.5555 C   0  0  0  0  0  0  0  0  0  0  0  0
  198.7825  186.1859  155.3828 C   0  0  0  0  0  0  0  0  0  0  0  0
  196.2161  181.8843  158.2203 C   0  0  1  0  0  0  0  0  0  0  0  0
  196.0888  183.2301  158.9221 C   0  0  0  0  0  0  0  0  0  0  0  0
  197.2614  183.9606  159.2892 C   0  0  0  0  0  0  0  0  0  0  0  0
  197.1453  185.2633  159.7835 C   0  0  0  0  0  0  0  0  0  0  0  0
  195.8793  185.8250  160.0726 C   0  0  0  0  0  0  0  0  0  0  0  0
  194.7223  185.0557  159.8168 C   0  0  0  0  0  0  0  0  0  0  0  0
  194.8202  183.7765  159.2225 C   0  0  0  0  0  0  0  0  0  0  0  0
  198.7454  179.1093  155.4188 N   0  0  0  0  0  0  0  0  0  0  0  0
  199.6601  178.6134  154.4118 C   0  0  1  0  0  0  0  0  0  0  0  0
  200.3861  177.3541  154.8272 C   0  0  0  0  0  0  0  0  0  0  0  0
  200.7862  176.4481  153.8421 C   0  0  0  0  0  0  0  0  0  0  0  0
  201.3688  175.2022  154.1982 C   0  0  0  0  0  0  0  0  0  0  0  0
  201.6403  174.1836  153.2727 N   0  0  0  0  0  0  0  0  0  0  0  0
  201.3330  174.2612  151.8449 C   0  0  2  0  0  0  0  0  0  0  0  0
  199.8256  174.5563  151.5686 C   0  0  2  0  0  0  0  0  0  0  0  0
  201.7498  172.9571  151.1598 C   0  0  2  0  0  0  0  0  0  0  0  0
  201.6597  174.9547  155.5683 C   0  0  0  0  0  0  0  0  0  0  0  0
  201.3273  175.9076  156.5480 C   0  0  0  0  0  0  0  0  0  0  0  0
  200.6767  177.1010  156.2042 C   0  0  0  0  0  0  0  0  0  0  0  0
  197.3713  179.8806  157.1762 H   0  0  0  0  0  0  0  0  0  0  0  0
  196.0833  182.0315  156.0706 H   0  0  0  0  0  0  0  0  0  0  0  0
  201.6078  184.3782  157.4278 H   0  0  0  0  0  0  0  0  0  0  0  0
  202.0153  186.6328  156.4309 H   0  0  0  0  0  0  0  0  0  0  0  0
  200.2306  187.7634  155.1033 H   0  0  0  0  0  0  0  0  0  0  0  0
  197.9855  186.6537  154.8222 H   0  0  0  0  0  0  0  0  0  0  0  0
  195.2283  181.4393  158.1361 H   0  0  0  0  0  0  0  0  0  0  0  0
  196.7638  181.2305  158.8994 H   0  0  0  0  0  0  0  0  0  0  0  0
  198.2381  183.5357  159.1237 H   0  0  0  0  0  0  0  0  0  0  0  0
  198.0425  185.8430  159.9514 H   0  0  0  0  0  0  0  0  0  0  0  0
  195.8102  186.8163  160.4912 H   0  0  0  0  0  0  0  0  0  0  0  0
  193.7440  185.4636  160.0613 H   0  0  0  0  0  0  0  0  0  0  0  0
  193.9126  183.2226  158.9962 H   0  0  0  0  0  0  0  0  0  0  0  0
  198.5205  178.5187  156.2153 H   0  0  0  0  0  0  0  0  0  0  0  0
  199.0737  178.4392  153.5056 H   0  0  0  0  0  0  0  0  0  0  0  0
  200.4116  179.3626  154.1562 H   0  0  0  0  0  0  0  0  0  0  0  0
  200.6182  176.7035  152.8104 H   0  0  0  0  0  0  0  0  0  0  0  0
  202.0850  173.3420  153.5999 H   0  0  0  0  0  0  0  0  0  0  0  0
  201.9435  175.0649  151.4340 H   0  0  0  0  0  0  0  0  0  0  0  0
  199.6644  174.5621  150.4762 H   0  0  0  0  0  0  0  0  0  0  0  0
  199.4394  175.4502  151.9422 H   0  0  0  0  0  0  0  0  0  0  0  0
  199.2202  173.7252  151.9712 H   0  0  0  0  0  0  0  0  0  0  0  0
  201.5608  173.0023  150.0870 H   0  0  0  0  0  0  0  0  0  0  0  0
  201.1759  172.1108  151.5421 H   0  0  0  0  0  0  0  0  0  0  0  0
  202.8051  172.7184  151.2912 H   0  0  0  0  0  0  0  0  0  0  0  0
  202.1356  174.0335  155.8573 H   0  0  0  0  0  0  0  0  0  0  0  0
  201.5685  175.7180  157.5852 H   0  0  0  0  0  0  0  0  0  0  0  0
  200.4253  177.8166  156.9687 H   0  0  0  0  0  0  0  0  0  0  0  0
  1  2  2  0
  2  3  1  0
  2 21  1  0
  3  4  1  0
  3 33  1  0
  4  5  1  0
  4 14  1  0
  4 34  1  6
  5  6  1  0
  5  9  2  0
  6  7  1  0
  7  8  1  0
  7 13  2  0
  8  9  1  0
  8 10  2  0
 10 11  1  0
 10 35  1  0
 11 12  2  0
 11 36  1  0
 12 13  1  0
 12 37  1  0
 13 38  1  0
 14 15  1  0
 14 39  1  6
 14 40  1  0
 15 16  2  0
 15 20  1  0
 16 17  1  0
 16 41  1  0
 17 18  2  0
 17 42  1  0
 18 19  1  0
 18 43  1  0
 19 20  2  0
 19 44  1  0
 20 45  1  0
 21 22  1  0
 21 46  1  0
 22 23  1  0
 22 47  1  6
 22 48  1  0
 23 24  1  0
 23 32  2  0
 24 25  2  0
 24 49  1  0
 25 26  1  0
 25 30  1  0
 26 27  1  0
 26 50  1  0
 27 28  1  0
 27 29  1  0
 27 51  1  6
 28 52  1  6
 28 53  1  0
 28 54  1  0
 29 55  1  6
 29 56  1  0
 29 57  1  0
 30 31  2  0
 30 58  1  0
 31 32  1  0
 31 59  1  0
 32 60  1  0
M  END
>  <s_epik_cmdline>  (1471) 
J2VwaWtfcHl0aG9uJywgJy1waCcsICc3LjAwMDAwMCcsICctcGh0JywgJzIuMDAwMDAwJywgJy1tcycsICcxNicsICctdG4nLCAnOCcsICctbWEnLCAnMjAwJywgJy1pbWFlJywgJzxpbmZpbGUubWFlPicsICctb21hZScsICc8b3V0ZmlsZS5tYWU+Jw==

>  <s_epik_input>  (1471) 
W0NIM11bQ0hdKFtDSDNdKVtOSF1jKFtjSF1bY0hdW2NIXTEpW2NIXWMxW0NIMl1bTkhdQyg9TylbTkhdW0NASF0oYyhvMiluYyhjMjMpW2NIXVtjSF1bY0hdW2NIXTMpW0NIMl1jNFtjSF1bY0hdW2NIXVtjSF1bY0hdNA==

>  <s_i_glide_gridfile>  (1471) 
ATP-Grid

>  <s_lp_Force_Field>  (1471) 
OPLS_2005

>  <s_lp_Variant>  (1471) 
m_2708bba____23832064____6950696-2

>  <s_lp_label>  (1471) 
1885_sdstereoexpander_2_neutralizer_1_epik_1_stereoizer_1

>  <s_m_source_file>  (1471) 
ATP-VSW-LIGPREP-003-in.maegz

>  <s_sd_BIOSOLVEIT.INFINISEE\_QUERY\_NAME>  (1471) 
Ref-Lig

>  <s_sd_BIOSOLVEIT.INFINISEE\_QUERY\_SMILES>  (1471) 
S(c1nc2c(cc1C[NH2+]Cc3ccc(cc3)C[NH+](C)C)cccc2)Cc4ccccc4

>  <s_sd_BIOSOLVEIT.INFINISEE\_REACTION\_NAME>  (1471) 
m_2708bba

>  <s_sd_BIOSOLVEIT.INFINISEE\_REAGENT1\_SMILES>  (1471) 
[R1*]C(=O)NC(C=1Oc2c(N1)cccc2)Cc3ccccc3

>  <s_sd_BIOSOLVEIT.INFINISEE\_REAGENT2\_SMILES>  (1471) 
[R1*]NCc1cc(NC(C)C)ccc1

>  <s_sd_BIOSOLVEIT.INFINISEE\_SPACE>  (1471) 
REALSpace_44bn_2023-08

>  <s_vsw_compound_code>  (1471) 
60291

>  <s_vsw_variant>  (1471) 
60291-2

>  <r_epik_Charging_Adjusted_Penalty>  (1471) 
0.020646884835791999

>  <r_epik_Ionization_Penalty>  (1471) 
0.0207

>  <r_epik_Ionization_Penalty_Charging>  (1471) 
0

>  <r_epik_Ionization_Penalty_Neutral>  (1471) 
0.0207

>  <r_epik_State_Penalty>  (1471) 
0.0206

>  <r_i_docking_score>  (1471) 
-4.5354176087824696

>  <r_i_glide_ecoul>  (1471) 
-6.4787268638610804

>  <r_i_glide_eff_state_penalty>  (1471) 
0.0206

>  <r_i_glide_einternal>  (1471) 
5.0932698249816903

>  <r_i_glide_emodel>  (1471) 
-52.8593327282262

>  <r_i_glide_energy>  (1471) 
-41.975408077239997

>  <r_i_glide_erotb>  (1471) 
0.97356474773853996

>  <r_i_glide_esite>  (1471) 
-0.21600893989112499

>  <r_i_glide_evdw>  (1471) 
-35.496681213378899

>  <r_i_glide_gscore>  (1471) 
-4.5560176087824704

>  <r_i_glide_hbond>  (1471) 
-0.19782671791025899

>  <r_i_glide_ligand_efficiency>  (1471) 
-0.14173180027445201

>  <r_i_glide_ligand_efficiency_ln>  (1471) 
-1.0156036334211

>  <r_i_glide_ligand_efficiency_sa>  (1471) 
-0.44997041718619801

>  <r_i_glide_lipo>  (1471) 
-1.88178169938061

>  <r_i_glide_metal>  (1471) 
-0

>  <r_i_glide_rewards>  (1471) 
-0.487321909090908

>  <r_lp_Energy>  (1471) 
8.7244050000000009

>  <r_qp_ACxDN^.5/SA>  (1471) 
0.011919300000000001

>  <r_qp_CIQPlogS>  (1471) 
-6.3499999999999996

>  <r_qp_EA(eV)>  (1471) 
0.68200000000000005

>  <r_qp_FISA>  (1471) 
77.415000000000006

>  <r_qp_FOSA>  (1471) 
233.875

>  <r_qp_IP(eV)>  (1471) 
8.0009999999999994

>  <r_qp_Jm>  (1471) 
0.267155126283456

>  <r_qp_PISA>  (1471) 
415.28399999999999

>  <r_qp_PSA>  (1471) 
78.653000000000006

>  <r_qp_PercentHumanOralAbsorption>  (1471) 
100

>  <r_qp_QPPCaco>  (1471) 
1338.4300000000001

>  <r_qp_QPPMDCK>  (1471) 
949.06299999999999

>  <r_qp_QPlogBB>  (1471) 
-0.69399999999999995

>  <r_qp_QPlogHERG>  (1471) 
-5.117

>  <r_qp_QPlogKhsa>  (1471) 
0.52100000000000002

>  <r_qp_QPlogKp>  (1471) 
-0.71499999999999997

>  <r_qp_QPlogPC16>  (1471) 
14.978

>  <r_qp_QPlogPo/w>  (1471) 
4.6680000000000001

>  <r_qp_QPlogPoct>  (1471) 
23.210999999999999

>  <r_qp_QPlogPw>  (1471) 
13.630000000000001

>  <r_qp_QPlogS>  (1471) 
-5.4900000000000002

>  <r_qp_QPpolrz>  (1471) 
46.985999999999997

>  <r_qp_SASA>  (1471) 
726.57399999999996

>  <r_qp_SAamideO>  (1471) 
16.981999999999999

>  <r_qp_SAfluorine>  (1471) 
0

>  <r_qp_WPSA>  (1471) 
0

>  <r_qp_accptHB>  (1471) 
5

>  <r_qp_dip^2/V>  (1471) 
0.043772800000000001

>  <r_qp_dipole>  (1471) 
7.7069999999999999

>  <r_qp_donorHB>  (1471) 
3

>  <r_qp_glob>  (1471) 
0.81587270000000001

>  <r_qp_mol_MW>  (1471) 
428.53300000000002

>  <r_qp_volume>  (1471) 
1357.0809999999999

>  <r_sd_BIOSOLVEIT.INFINISEE\_FTREES\_SIMILARITY>  (1471) 
0.90300000000000002

>  <r_sd_BIOSOLVEIT.LOGP>  (1471) 
5.4313000000000002

>  <r_sd_BIOSOLVEIT.MOLECULAR\_WEIGHT>  (1471) 
428.53300000000002

>  <r_sd_BIOSOLVEIT.TPSA>  (1471) 
79.189999999999998

>  <i_epik_Tot_Q>  (1471) 
0

>  <i_epik_Tot_abs_Q>  (1471) 
0

>  <i_f3d_flags>  (1471) 
0

>  <i_i_glide_confnum>  (1471) 
2

>  <i_i_glide_lignum>  (1471) 
711

>  <i_i_glide_posenum>  (1471) 
14

>  <i_i_glide_rotatable_bonds>  (1471) 
10

>  <i_lp_mmshare_version>  (1471) 
65135

>  <i_m_ct_format>  (1471) 
2

>  <i_m_source_file_index>  (1471) 
1885

>  <i_qp_#NandO>  (1471) 
6

>  <i_qp_#acid>  (1471) 
0

>  <i_qp_#amide>  (1471) 
1

>  <i_qp_#amidine>  (1471) 
0

>  <i_qp_#amine>  (1471) 
0

>  <i_qp_#in34>  (1471) 
0

>  <i_qp_#in56>  (1471) 
21

>  <i_qp_#metab>  (1471) 
7

>  <i_qp_#nonHatm>  (1471) 
32

>  <i_qp_#noncon>  (1471) 
0

>  <i_qp_#ringatoms>  (1471) 
21

>  <i_qp_#rotor>  (1471) 
8

>  <i_qp_#rtvFG>  (1471) 
0

>  <i_qp_#stars>  (1471) 
0

>  <i_qp_CNS>  (1471) 
-1

>  <i_qp_HumanOralAbsorption>  (1471) 
3

>  <i_qp_RuleOfFive>  (1471) 
0

>  <i_qp_RuleOfThree>  (1471) 
1

>  <i_sd_BIOSOLVEIT.INFINISEE\_REAGENT1\_NAME>  (1471) 
23832064

>  <i_sd_BIOSOLVEIT.INFINISEE\_REAGENT2\_NAME>  (1471) 
6950696

>  <i_sd_BIOSOLVEIT.INFINISEE\_RESULT\_RANK>  (1471) 
83359

>  <i_sd_version>  (1471) 
0

>  <b_lp_Chiralities_Consistent>  (1471) 
1

>  <b_sd_chiral_flag>  (1471) 
0

>  <canonical_id>  (1471) 
ATP-HTVS-E6F8A3974F14

>  <compound_code>  (1471) 
60291

>  <title>  (1471) 
m_2708bba____23832064____6950696

>  <variant>  (1471) 
60291-2

>  <source_file>  (1471) 
运行/运行/ATP-VSW/ATP-VSW-DOCK_HTVS_1-003_lib/ATP-VSW-DOCK_HTVS_1-003_lib.mae

>  <canonical_smiles>  (1471) 
CC(C)Nc1cccc(CNC(=O)N[C@@H](Cc2ccccc2)c2nc3ccccc3o2)c1

>  <scaffold>  (1471) 
O=C(NCc1ccccc1)NC(Cc1ccccc1)c1nc2ccccc2o1

>  <molecular_formula>  (1471) 
C26H28N4O2

$$$$
ATP-HTVS-E71202E475AE
     RDKit          3D

 56 58  0  0  0  0  0  0  0  0999 V2000
  196.9532  183.4024  156.0788 O   0  0  0  0  0  0  0  0  0  0  0  0
  196.5557  182.3489  156.5650 C   0  0  0  0  0  0  0  0  0  0  0  0
  196.0952  182.2522  157.8283 N   0  0  0  0  0  0  0  0  0  0  0  0
  195.8229  183.3578  158.6756 C   0  0  0  0  0  0  0  0  0  0  0  0
  196.8341  184.1975  159.2284 C   0  0  0  0  0  0  0  0  0  0  0  0
  196.4213  185.2426  160.0925 C   0  0  0  0  0  0  0  0  0  0  0  0
  195.0519  185.4022  160.3785 C   0  0  0  0  0  0  0  0  0  0  0  0
  194.6320  186.3930  161.2544 O   0  0  0  0  0  0  0  0  0  0  0  0
  193.2165  186.5330  161.4702 C   0  0  1  0  0  0  0  0  0  0  0  0
  192.8748  187.5246  162.5568 C   0  0  0  0  0  0  0  0  0  0  0  0
  191.9527  187.1769  163.5690 C   0  0  0  0  0  0  0  0  0  0  0  0
  191.6130  188.1131  164.5645 C   0  0  0  0  0  0  0  0  0  0  0  0
  192.1926  189.3965  164.5492 C   0  0  0  0  0  0  0  0  0  0  0  0
  193.0970  189.7534  163.5299 C   0  0  0  0  0  0  0  0  0  0  0  0
  193.4321  188.8183  162.5324 C   0  0  0  0  0  0  0  0  0  0  0  0
  194.1071  184.5884  159.8616 N   0  0  0  0  0  0  0  0  0  0  0  0
  194.4850  183.6019  159.0366 C   0  0  0  0  0  0  0  0  0  0  0  0
  198.3153  183.9857  158.9547 C   0  0  2  0  0  0  0  0  0  0  0  0
  196.5322  181.1667  155.9501 N   0  0  0  0  0  0  0  0  0  0  0  0
  197.0903  180.8797  154.6465 C   0  0  0  0  0  0  0  0  0  0  0  0
  197.8108  179.6695  154.4635 C   0  0  0  0  0  0  0  0  0  0  0  0
  198.3082  179.3793  153.1651 C   0  0  0  0  0  0  0  0  0  0  0  0
  198.1324  180.2768  152.0967 C   0  0  0  0  0  0  0  0  0  0  0  0
  197.4750  181.4999  152.3183 C   0  0  0  0  0  0  0  0  0  0  0  0
  196.9456  181.7905  153.5939 C   0  0  0  0  0  0  0  0  0  0  0  0
  198.0844  178.6925  155.5965 C   0  0  1  0  0  0  0  0  0  0  0  0
  199.1928  179.0742  156.5357 N   0  0  2  0  0  0  0  0  0  0  0  0
  199.2476  180.4750  156.9962 C   0  0  2  0  0  0  0  0  0  0  0  0
  200.5300  178.6455  156.0597 C   0  0  2  0  0  0  0  0  0  0  0  0
  195.7202  181.3588  158.1084 H   0  0  0  0  0  0  0  0  0  0  0  0
  197.1395  185.9099  160.5582 H   0  0  0  0  0  0  0  0  0  0  0  0
  192.7381  186.8513  160.5438 H   0  0  0  0  0  0  0  0  0  0  0  0
  192.7673  185.5874  161.7636 H   0  0  0  0  0  0  0  0  0  0  0  0
  191.5023  186.1937  163.5903 H   0  0  0  0  0  0  0  0  0  0  0  0
  190.9161  187.8435  165.3432 H   0  0  0  0  0  0  0  0  0  0  0  0
  191.9394  190.1110  165.3190 H   0  0  0  0  0  0  0  0  0  0  0  0
  193.5349  190.7393  163.5059 H   0  0  0  0  0  0  0  0  0  0  0  0
  194.1128  189.0864  161.7369 H   0  0  0  0  0  0  0  0  0  0  0  0
  193.6930  182.9594  158.6716 H   0  0  0  0  0  0  0  0  0  0  0  0
  198.9372  184.7095  159.4978 H   0  0  0  0  0  0  0  0  0  0  0  0
  198.5201  184.1029  157.8916 H   0  0  0  0  0  0  0  0  0  0  0  0
  198.6002  182.9747  159.2613 H   0  0  0  0  0  0  0  0  0  0  0  0
  196.2369  180.3705  156.5319 H   0  0  0  0  0  0  0  0  0  0  0  0
  198.8295  178.4430  152.9940 H   0  0  0  0  0  0  0  0  0  0  0  0
  198.5033  180.0207  151.1162 H   0  0  0  0  0  0  0  0  0  0  0  0
  197.3594  182.2102  151.5113 H   0  0  0  0  0  0  0  0  0  0  0  0
  196.4589  182.7554  153.7340 H   0  0  0  0  0  0  0  0  0  0  0  0
  197.1524  178.5409  156.1476 H   0  0  0  0  0  0  0  0  0  0  0  0
  198.3359  177.7226  155.1876 H   0  0  0  0  0  0  0  0  0  0  0  0
  199.3073  181.1669  156.1418 H   0  0  0  0  0  0  0  0  0  0  0  0
  200.1175  180.7068  157.6140 H   0  0  0  0  0  0  0  0  0  0  0  0
  198.3209  180.6560  157.5380 H   0  0  0  0  0  0  0  0  0  0  0  0
  200.7721  179.1553  155.1274 H   0  0  0  0  0  0  0  0  0  0  0  0
  200.5845  177.5657  155.9073 H   0  0  0  0  0  0  0  0  0  0  0  0
  201.2914  178.9219  156.7973 H   0  0  0  0  0  0  0  0  0  0  0  0
  198.9563  178.5252  157.3465 H   0  0  0  0  0  0  0  0  0  0  0  0
  1  2  2  0
  2  3  1  0
  2 19  1  0
  3  4  1  0
  3 30  1  0
  4  5  2  0
  4 17  1  0
  5  6  1  0
  5 18  1  0
  6  7  2  0
  6 31  1  0
  7  8  1  0
  7 16  1  0
  8  9  1  0
  9 10  1  0
  9 32  1  6
  9 33  1  0
 10 11  2  0
 10 15  1  0
 11 12  1  0
 11 34  1  0
 12 13  2  0
 12 35  1  0
 13 14  1  0
 13 36  1  0
 14 15  2  0
 14 37  1  0
 15 38  1  0
 16 17  2  0
 17 39  1  0
 18 40  1  1
 18 41  1  0
 18 42  1  0
 19 20  1  0
 19 43  1  0
 20 21  1  0
 20 25  2  0
 21 22  2  0
 21 26  1  0
 22 23  1  0
 22 44  1  0
 23 24  2  0
 23 45  1  0
 24 25  1  0
 24 46  1  0
 25 47  1  0
 26 27  1  0
 26 48  1  1
 26 49  1  0
 27 28  1  0
 27 29  1  0
 27 56  1  1
 28 50  1  6
 28 51  1  0
 28 52  1  0
 29 53  1  6
 29 54  1  0
 29 55  1  0
M  CHG  1  27   1
M  END
>  <s_epik_cmdline>  (1472) 
J2VwaWtfcHl0aG9uJywgJy1waCcsICc3LjAwMDAwMCcsICctcGh0JywgJzIuMDAwMDAwJywgJy1tcycsICcxNicsICctdG4nLCAnOCcsICctbWEnLCAnMjAwJywgJy1pbWFlJywgJzxpbmZpbGUubWFlPicsICctb21hZScsICc8b3V0ZmlsZS5tYWU+Jw==

>  <s_epik_input>  (1472) 
W2NIXTFbY0hdW2NIXVtjSF1jKFtDSDJdTihbQ0gzXSlbQ0gzXSljMVtOSF1DKD1PKVtOSF1jMmMoW0NIM10pW2NIXWMobltjSF0yKU9bQ0gyXWMzW2NIXVtjSF1bY0hdW2NIXVtjSF0z

>  <s_i_glide_gridfile>  (1472) 
ATP-Grid

>  <s_lp_Force_Field>  (1472) 
OPLS_2005

>  <s_lp_Variant>  (1472) 
rxn203____EMOL44691345____EMOL42077534-1

>  <s_lp_label>  (1472) 
2757_sdstereoexpander_1_neutralizer_1_epik_1_stereoizer_1

>  <s_m_source_file>  (1472) 
ATP-VSW-LIGPREP-003-in.maegz

>  <s_sd_BIOSOLVEIT.INFINISEE\_QUERY\_NAME>  (1472) 
Ref-Lig

>  <s_sd_BIOSOLVEIT.INFINISEE\_QUERY\_SMILES>  (1472) 
S(c1nc2c(cc1C[NH2+]Cc3ccc(cc3)C[NH+](C)C)cccc2)Cc4ccccc4

>  <s_sd_BIOSOLVEIT.INFINISEE\_REACTION\_NAME>  (1472) 
rxn203

>  <s_sd_BIOSOLVEIT.INFINISEE\_REAGENT1\_NAME>  (1472) 
EMOL44691345

>  <s_sd_BIOSOLVEIT.INFINISEE\_REAGENT1\_SMILES>  (1472) 
N(Cc1c(N)cccc1)(C)C

>  <s_sd_BIOSOLVEIT.INFINISEE\_REAGENT2\_NAME>  (1472) 
EMOL42077534

>  <s_sd_BIOSOLVEIT.INFINISEE\_REAGENT2\_SMILES>  (1472) 
O(c1ncc(N)c(c1)C)Cc2ccccc2

>  <s_sd_BIOSOLVEIT.INFINISEE\_SPACE>  (1472) 
eXplore_7tr_2022-12

>  <s_vsw_compound_code>  (1472) 
88195

>  <s_vsw_variant>  (1472) 
88195-1

>  <r_epik_Charging_Adjusted_Penalty>  (1472) 
0.080819884641968098

>  <r_epik_Ionization_Penalty>  (1472) 
0.040599999999999997

>  <r_epik_Ionization_Penalty_Charging>  (1472) 
0.040399999999999998

>  <r_epik_Ionization_Penalty_Neutral>  (1472) 
0.00020000000000000001

>  <r_epik_State_Penalty>  (1472) 
0.040399999999999998

>  <r_i_docking_score>  (1472) 
-6.1984132273742798

>  <r_i_glide_ecoul>  (1472) 
-13.7553758621216

>  <r_i_glide_eff_state_penalty>  (1472) 
0.040399999999999998

>  <r_i_glide_einternal>  (1472) 
7.7063498497009304

>  <r_i_glide_emodel>  (1472) 
-76.973752447875796

>  <r_i_glide_energy>  (1472) 
-52.315617561340297

>  <r_i_glide_erotb>  (1472) 
1.01865829184723

>  <r_i_glide_esite>  (1472) 
-0.33831834188579002

>  <r_i_glide_evdw>  (1472) 
-38.5602416992188

>  <r_i_glide_gscore>  (1472) 
-6.2388132273742798

>  <r_i_glide_hbond>  (1472) 
-0.38456488748655898

>  <r_i_glide_ligand_efficiency>  (1472) 
-0.21373838715083701

>  <r_i_glide_ligand_efficiency_ln>  (1472) 
-1.4192794508709701

>  <r_i_glide_ligand_efficiency_sa>  (1472) 
-0.65667204240140298

>  <r_i_glide_lipo>  (1472) 
-1.8034021892063501

>  <r_i_glide_metal>  (1472) 
-0

>  <r_i_glide_rewards>  (1472) 
-0.73986763636363595

>  <r_lp_Energy>  (1472) 
28.588678999999999

>  <r_lp_tautomer_probability>  (1472) 
1

>  <r_qp_ACxDN^.5/SA>  (1472) 
0.0092624000000000005

>  <r_qp_CIQPlogS>  (1472) 
-4.468

>  <r_qp_EA(eV)>  (1472) 
0.098000000000000004

>  <r_qp_FISA>  (1472) 
60.168999999999997

>  <r_qp_FOSA>  (1472) 
282.86500000000001

>  <r_qp_IP(eV)>  (1472) 
8.5809999999999995

>  <r_qp_Jm>  (1472) 
0.0079351193770489797

>  <r_qp_PISA>  (1472) 
420.37900000000002

>  <r_qp_PSA>  (1472) 
68.480000000000004

>  <r_qp_PercentHumanOralAbsorption>  (1472) 
100

>  <r_qp_QPPCaco>  (1472) 
456.83699999999999

>  <r_qp_QPPMDCK>  (1472) 
351.613

>  <r_qp_QPlogBB>  (1472) 
-0.13500000000000001

>  <r_qp_QPlogHERG>  (1472) 
-6.5990000000000002

>  <r_qp_QPlogKhsa>  (1472) 
0.58899999999999997

>  <r_qp_QPlogKp>  (1472) 
-2.5379999999999998

>  <r_qp_QPlogPC16>  (1472) 
14.694000000000001

>  <r_qp_QPlogPo/w>  (1472) 
4.3479999999999999

>  <r_qp_QPlogPoct>  (1472) 
21.858000000000001

>  <r_qp_QPlogPw>  (1472) 
12.646000000000001

>  <r_qp_QPlogS>  (1472) 
-5.1539999999999999

>  <r_qp_QPpolrz>  (1472) 
47.064999999999998

>  <r_qp_SASA>  (1472) 
763.41300000000001

>  <r_qp_SAamideO>  (1472) 
20.408999999999999

>  <r_qp_SAfluorine>  (1472) 
0

>  <r_qp_WPSA>  (1472) 
0

>  <r_qp_accptHB>  (1472) 
5

>  <r_qp_dip^2/V>  (1472) 
0.068097299999999999

>  <r_qp_dipole>  (1472) 
9.5589999999999993

>  <r_qp_donorHB>  (1472) 
2

>  <r_qp_glob>  (1472) 
0.77066389999999996

>  <r_qp_mol_MW>  (1472) 
390.48399999999998

>  <r_qp_volume>  (1472) 
1341.8050000000001

>  <r_sd_BIOSOLVEIT.INFINISEE\_FTREES\_SIMILARITY>  (1472) 
0.90700000000000003

>  <r_sd_BIOSOLVEIT.LOGP>  (1472) 
3.25752

>  <r_sd_BIOSOLVEIT.MOLECULAR\_WEIGHT>  (1472) 
391.49200000000002

>  <r_sd_BIOSOLVEIT.TPSA>  (1472) 
67.689999999999998

>  <i_epik_Tot_Q>  (1472) 
1

>  <i_epik_Tot_abs_Q>  (1472) 
1

>  <i_f3d_flags>  (1472) 
0

>  <i_i_glide_confnum>  (1472) 
5

>  <i_i_glide_lignum>  (1472) 
1313

>  <i_i_glide_posenum>  (1472) 
12

>  <i_i_glide_rotatable_bonds>  (1472) 
9

>  <i_lp_mmshare_version>  (1472) 
65135

>  <i_m_ct_format>  (1472) 
2

>  <i_m_source_file_index>  (1472) 
2757

>  <i_qp_#NandO>  (1472) 
6

>  <i_qp_#acid>  (1472) 
0

>  <i_qp_#amide>  (1472) 
1

>  <i_qp_#amidine>  (1472) 
0

>  <i_qp_#amine>  (1472) 
1

>  <i_qp_#in34>  (1472) 
0

>  <i_qp_#in56>  (1472) 
18

>  <i_qp_#metab>  (1472) 
7

>  <i_qp_#nonHatm>  (1472) 
29

>  <i_qp_#noncon>  (1472) 
0

>  <i_qp_#ringatoms>  (1472) 
18

>  <i_qp_#rotor>  (1472) 
7

>  <i_qp_#rtvFG>  (1472) 
0

>  <i_qp_#stars>  (1472) 
0

>  <i_qp_CNS>  (1472) 
1

>  <i_qp_HumanOralAbsorption>  (1472) 
3

>  <i_qp_RuleOfFive>  (1472) 
0

>  <i_qp_RuleOfThree>  (1472) 
1

>  <i_sd_BIOSOLVEIT.INFINISEE\_RESULT\_RANK>  (1472) 
58966

>  <i_sd_version>  (1472) 
0

>  <b_lp_Chiralities_Consistent>  (1472) 
1

>  <b_sd_chiral_flag>  (1472) 
0

>  <canonical_id>  (1472) 
ATP-HTVS-E71202E475AE

>  <compound_code>  (1472) 
88195

>  <title>  (1472) 
rxn203____EMOL44691345____EMOL42077534

>  <variant>  (1472) 
88195-1

>  <source_file>  (1472) 
运行/运行/ATP-VSW/ATP-VSW-DOCK_HTVS_1-003_lib/ATP-VSW-DOCK_HTVS_1-003_lib.mae

>  <canonical_smiles>  (1472) 
Cc1cc(OCc2ccccc2)ncc1NC(=O)Nc1ccccc1C[NH+](C)C

>  <scaffold>  (1472) 
O=C(Nc1ccccc1)Nc1ccc(OCc2ccccc2)nc1

>  <molecular_formula>  (1472) 
C23H27N4O2+

$$$$
ATP-HTVS-E78B37070E90
     RDKit          3D

 53 56  0  0  0  0  0  0  0  0999 V2000
  198.0077  179.6044  152.2033 N   0  0  0  0  0  0  0  0  0  0  0  0
  198.6859  178.5056  151.7219 C   0  0  0  0  0  0  0  0  0  0  0  0
  199.5770  177.9630  152.6952 C   0  0  0  0  0  0  0  0  0  0  0  0
  199.4245  178.8088  153.7935 N   0  0  0  0  0  0  0  0  0  0  0  0
  200.0267  178.7326  155.0811 C   0  0  0  0  0  0  0  0  0  0  0  0
  199.9452  177.5353  155.8291 C   0  0  0  0  0  0  0  0  0  0  0  0
  200.5185  177.4448  157.1140 C   0  0  0  0  0  0  0  0  0  0  0  0
  201.1537  178.5660  157.6796 C   0  0  0  0  0  0  0  0  0  0  0  0
  201.2617  179.7578  156.9364 C   0  0  0  0  0  0  0  0  0  0  0  0
  200.7534  179.8215  155.6242 C   0  0  0  0  0  0  0  0  0  0  0  0
  198.4976  179.7403  153.4405 C   0  0  0  0  0  0  0  0  0  0  0  0
  197.9793  180.8293  154.3339 C   0  0  1  0  0  0  0  0  0  0  0  0
  196.8686  180.3605  155.2866 C   0  0  1  0  0  0  0  0  0  0  0  0
  196.3795  181.4742  156.1122 N   0  0  1  0  0  0  0  0  0  0  0  0
  197.3229  181.9839  157.1393 C   0  0  1  0  0  0  0  0  0  0  0  0
  196.7624  183.2224  157.8206 C   0  0  0  0  0  0  0  0  0  0  0  0
  195.7001  183.1498  158.7563 C   0  0  0  0  0  0  0  0  0  0  0  0
  195.2609  184.3340  159.3827 C   0  0  0  0  0  0  0  0  0  0  0  0
  195.8493  185.5768  159.0755 C   0  0  0  0  0  0  0  0  0  0  0  0
  196.8862  185.6484  158.1289 C   0  0  0  0  0  0  0  0  0  0  0  0
  197.3388  184.4749  157.5032 C   0  0  0  0  0  0  0  0  0  0  0  0
  195.0341  181.8334  159.1255 C   0  0  1  0  0  0  0  0  0  0  0  0
  193.8688  181.4367  158.1935 C   0  0  2  0  0  0  0  0  0  0  0  0
  200.3371  176.8130  152.4415 C   0  0  0  0  0  0  0  0  0  0  0  0
  200.2233  176.1842  151.1808 C   0  0  0  0  0  0  0  0  0  0  0  0
  199.3602  176.7151  150.1989 C   0  0  0  0  0  0  0  0  0  0  0  0
  198.5967  177.8660  150.4649 C   0  0  0  0  0  0  0  0  0  0  0  0
  196.0513  182.2244  155.5246 H   0  0  0  0  0  0  0  0  0  0  0  0
  199.4297  176.6677  155.4262 H   0  0  0  0  0  0  0  0  0  0  0  0
  200.4635  176.5250  157.6787 H   0  0  0  0  0  0  0  0  0  0  0  0
  201.5736  178.5111  158.6793 H   0  0  0  0  0  0  0  0  0  0  0  0
  201.7444  180.6215  157.3658 H   0  0  0  0  0  0  0  0  0  0  0  0
  200.9217  180.7240  155.0471 H   0  0  0  0  0  0  0  0  0  0  0  0
  198.8063  181.2662  154.8841 H   0  0  0  0  0  0  0  0  0  0  0  0
  197.5777  181.6250  153.6856 H   0  0  0  0  0  0  0  0  0  0  0  0
  196.0230  179.9655  154.7088 H   0  0  0  0  0  0  0  0  0  0  0  0
  197.1959  179.5399  155.9226 H   0  0  0  0  0  0  0  0  0  0  0  0
  197.5314  181.1940  157.8527 H   0  0  0  0  0  0  0  0  0  0  0  0
  198.2858  182.2921  156.7275 H   0  0  0  0  0  0  0  0  0  0  0  0
  194.4640  184.3026  160.1129 H   0  0  0  0  0  0  0  0  0  0  0  0
  195.4987  186.4819  159.5562 H   0  0  0  0  0  0  0  0  0  0  0  0
  197.3386  186.5982  157.8859 H   0  0  0  0  0  0  0  0  0  0  0  0
  198.1406  184.5452  156.7849 H   0  0  0  0  0  0  0  0  0  0  0  0
  195.7828  181.0455  159.2292 H   0  0  0  0  0  0  0  0  0  0  0  0
  194.6278  181.9581  160.1161 H   0  0  0  0  0  0  0  0  0  0  0  0
  193.4081  180.5054  158.5420 H   0  0  0  0  0  0  0  0  0  0  0  0
  194.1599  181.2750  157.1714 H   0  0  0  0  0  0  0  0  0  0  0  0
  193.0992  182.2170  158.1902 H   0  0  0  0  0  0  0  0  0  0  0  0
  200.9913  176.4088  153.2012 H   0  0  0  0  0  0  0  0  0  0  0  0
  200.7971  175.2966  150.9680 H   0  0  0  0  0  0  0  0  0  0  0  0
  199.2788  176.2334  149.2348 H   0  0  0  0  0  0  0  0  0  0  0  0
  197.9277  178.2731  149.7210 H   0  0  0  0  0  0  0  0  0  0  0  0
  195.5899  181.1058  156.6416 H   0  0  0  0  0  0  0  0  0  0  0  0
  1  2  1  0
  1 11  2  0
  2  3  1  0
  2 27  2  0
  3  4  1  0
  3 24  2  0
  4  5  1  0
  4 11  1  0
  5  6  2  0
  5 10  1  0
  6  7  1  0
  6 29  1  0
  7  8  2  0
  7 30  1  0
  8  9  1  0
  8 31  1  0
  9 10  2  0
  9 32  1  0
 10 33  1  0
 11 12  1  0
 12 13  1  0
 12 34  1  1
 12 35  1  0
 13 14  1  0
 13 36  1  6
 13 37  1  0
 14 15  1  0
 14 28  1  6
 14 53  1  0
 15 16  1  0
 15 38  1  1
 15 39  1  0
 16 17  1  0
 16 21  2  0
 17 18  2  0
 17 22  1  0
 18 19  1  0
 18 40  1  0
 19 20  2  0
 19 41  1  0
 20 21  1  0
 20 42  1  0
 21 43  1  0
 22 23  1  0
 22 44  1  1
 22 45  1  0
 23 46  1  1
 23 47  1  0
 23 48  1  0
 24 25  1  0
 24 49  1  0
 25 26  2  0
 25 50  1  0
 26 27  1  0
 26 51  1  0
 27 52  1  0
M  CHG  1  14   1
M  END
>  <s_epik_cmdline>  (1473) 
J2VwaWtfcHl0aG9uJywgJy1waCcsICc3LjAwMDAwMCcsICctcGh0JywgJzIuMDAwMDAwJywgJy1tcycsICcxNicsICctdG4nLCAnOCcsICctbWEnLCAnMjAwJywgJy1pbWFlJywgJzxpbmZpbGUubWFlPicsICctb21hZScsICc8b3V0ZmlsZS5tYWU+Jw==

>  <s_epik_input>  (1473) 
W2NIXTFbY0hdW2NIXVtjSF1bY0hdYzEtbihjKGMyMylbY0hdW2NIXVtjSF1bY0hdMyljKG4yKVtDSDJdW0NIMl1bTkhdW0NIMl1jNGMoW0NIMl1bQ0gzXSlbY0hdW2NIXVtjSF1bY0hdNA==

>  <s_i_glide_gridfile>  (1473) 
ATP-Grid

>  <s_lp_Force_Field>  (1473) 
OPLS_2005

>  <s_lp_Variant>  (1473) 
m_270004bbb____21660890____13581200-1

>  <s_lp_label>  (1473) 
1798_sdstereoexpander_1_neutralizer_1_epik_1_stereoizer_1

>  <s_m_source_file>  (1473) 
ATP-VSW-LIGPREP-003-in.maegz

>  <s_sd_BIOSOLVEIT.INFINISEE\_QUERY\_NAME>  (1473) 
Ref-Lig

>  <s_sd_BIOSOLVEIT.INFINISEE\_QUERY\_SMILES>  (1473) 
S(c1nc2c(cc1C[NH2+]Cc3ccc(cc3)C[NH+](C)C)cccc2)Cc4ccccc4

>  <s_sd_BIOSOLVEIT.INFINISEE\_REACTION\_NAME>  (1473) 
m_270004bbb

>  <s_sd_BIOSOLVEIT.INFINISEE\_REAGENT1\_SMILES>  (1473) 
[R1*]NCCC1=Nc2c(N1c3ccccc3)cccc2

>  <s_sd_BIOSOLVEIT.INFINISEE\_REAGENT2\_SMILES>  (1473) 
[R1*]Cc1c(cccc1)CC

>  <s_sd_BIOSOLVEIT.INFINISEE\_SPACE>  (1473) 
REALSpace_44bn_2023-08

>  <s_vsw_compound_code>  (1473) 
57507

>  <s_vsw_variant>  (1473) 
57507-1

>  <r_epik_Charging_Adjusted_Penalty>  (1473) 
0.092453036312000803

>  <r_epik_Ionization_Penalty>  (1473) 
0.055

>  <r_epik_Ionization_Penalty_Charging>  (1473) 
0.041799999999999997

>  <r_epik_Ionization_Penalty_Neutral>  (1473) 
0.0132

>  <r_epik_State_Penalty>  (1473) 
0.050599999999999999

>  <r_i_docking_score>  (1473) 
-4.0609343025679596

>  <r_i_glide_ecoul>  (1473) 
-6.6925492286682102

>  <r_i_glide_eff_state_penalty>  (1473) 
0.050599999999999999

>  <r_i_glide_einternal>  (1473) 
1.6196268796920801

>  <r_i_glide_emodel>  (1473) 
-51.460541303899099

>  <r_i_glide_energy>  (1473) 
-37.590071201324498

>  <r_i_glide_erotb>  (1473) 
0.90334400049374897

>  <r_i_glide_esite>  (1473) 
-0.085710926498321002

>  <r_i_glide_evdw>  (1473) 
-30.8975219726562

>  <r_i_glide_gscore>  (1473) 
-4.1115343025679598

>  <r_i_glide_hbond>  (1473) 
-0.030416167503381199

>  <r_i_glide_ligand_efficiency>  (1473) 
-0.150404974169184

>  <r_i_glide_ligand_efficiency_ln>  (1473) 
-0.94531855590343805

>  <r_i_glide_ligand_efficiency_sa>  (1473) 
-0.45121492201184099

>  <r_i_glide_lipo>  (1473) 
-1.1464700443087901

>  <r_i_glide_metal>  (1473) 
-0

>  <r_i_glide_rewards>  (1473) 
-1.2035226818181799

>  <r_lp_Energy>  (1473) 
16.293794999999999

>  <r_qp_ACxDN^.5/SA>  (1473) 
0.0050063

>  <r_qp_CIQPlogS>  (1473) 
-5.4420000000000002

>  <r_qp_EA(eV)>  (1473) 
0.44700000000000001

>  <r_qp_FISA>  (1473) 
34.609000000000002

>  <r_qp_FOSA>  (1473) 
152.81200000000001

>  <r_qp_IP(eV)>  (1473) 
8.5649999999999995

>  <r_qp_Jm>  (1473) 
0.28385625228970102

>  <r_qp_PISA>  (1473) 
411.81999999999999

>  <r_qp_PSA>  (1473) 
27.215

>  <r_qp_PercentHumanOralAbsorption>  (1473) 
100

>  <r_qp_QPPCaco>  (1473) 
1160.385

>  <r_qp_QPPMDCK>  (1473) 
642.77200000000005

>  <r_qp_QPlogBB>  (1473) 
0.30599999999999999

>  <r_qp_QPlogHERG>  (1473) 
-6.0880000000000001

>  <r_qp_QPlogKhsa>  (1473) 
0.92500000000000004

>  <r_qp_QPlogKp>  (1473) 
-2.1930000000000001

>  <r_qp_QPlogPC16>  (1473) 
12.343999999999999

>  <r_qp_QPlogPo/w>  (1473) 
4.96

>  <r_qp_QPlogPoct>  (1473) 
16.378

>  <r_qp_QPlogPw>  (1473) 
7.2939999999999996

>  <r_qp_QPlogS>  (1473) 
-3.9049999999999998

>  <r_qp_QPpolrz>  (1473) 
39.857999999999997

>  <r_qp_SASA>  (1473) 
599.24099999999999

>  <r_qp_SAamideO>  (1473) 
0

>  <r_qp_SAfluorine>  (1473) 
0

>  <r_qp_WPSA>  (1473) 
0

>  <r_qp_accptHB>  (1473) 
3

>  <r_qp_dip^2/V>  (1473) 
0.016157100000000001

>  <r_qp_dipole>  (1473) 
4.306

>  <r_qp_donorHB>  (1473) 
1

>  <r_qp_glob>  (1473) 
0.8846849

>  <r_qp_mol_MW>  (1473) 
355.48200000000003

>  <r_qp_volume>  (1473) 
1147.7249999999999

>  <r_sd_BIOSOLVEIT.INFINISEE\_FTREES\_SIMILARITY>  (1473) 
0.90400000000000003

>  <r_sd_BIOSOLVEIT.LOGP>  (1473) 
3.8940000000000001

>  <r_sd_BIOSOLVEIT.MOLECULAR\_WEIGHT>  (1473) 
356.49000000000001

>  <r_sd_BIOSOLVEIT.TPSA>  (1473) 
34.43

>  <i_epik_Tot_Q>  (1473) 
1

>  <i_epik_Tot_abs_Q>  (1473) 
1

>  <i_f3d_flags>  (1473) 
0

>  <i_i_glide_confnum>  (1473) 
2

>  <i_i_glide_lignum>  (1473) 
668

>  <i_i_glide_posenum>  (1473) 
11

>  <i_i_glide_rotatable_bonds>  (1473) 
7

>  <i_lp_mmshare_version>  (1473) 
65135

>  <i_m_ct_format>  (1473) 
2

>  <i_m_source_file_index>  (1473) 
1798

>  <i_qp_#NandO>  (1473) 
3

>  <i_qp_#acid>  (1473) 
0

>  <i_qp_#amide>  (1473) 
0

>  <i_qp_#amidine>  (1473) 
0

>  <i_qp_#amine>  (1473) 
1

>  <i_qp_#in34>  (1473) 
0

>  <i_qp_#in56>  (1473) 
21

>  <i_qp_#metab>  (1473) 
4

>  <i_qp_#nonHatm>  (1473) 
27

>  <i_qp_#noncon>  (1473) 
0

>  <i_qp_#ringatoms>  (1473) 
21

>  <i_qp_#rotor>  (1473) 
6

>  <i_qp_#rtvFG>  (1473) 
0

>  <i_qp_#stars>  (1473) 
0

>  <i_qp_CNS>  (1473) 
1

>  <i_qp_HumanOralAbsorption>  (1473) 
3

>  <i_qp_RuleOfFive>  (1473) 
0

>  <i_qp_RuleOfThree>  (1473) 
0

>  <i_sd_BIOSOLVEIT.INFINISEE\_REAGENT1\_NAME>  (1473) 
21660890

>  <i_sd_BIOSOLVEIT.INFINISEE\_REAGENT2\_NAME>  (1473) 
13581200

>  <i_sd_BIOSOLVEIT.INFINISEE\_RESULT\_RANK>  (1473) 
77780

>  <i_sd_version>  (1473) 
0

>  <b_lp_Chiralities_Consistent>  (1473) 
1

>  <b_sd_chiral_flag>  (1473) 
0

>  <canonical_id>  (1473) 
ATP-HTVS-E78B37070E90

>  <compound_code>  (1473) 
57507

>  <title>  (1473) 
m_270004bbb____21660890____13581200

>  <variant>  (1473) 
57507-1

>  <source_file>  (1473) 
运行/运行/ATP-VSW/ATP-VSW-DOCK_HTVS_1-003_lib/ATP-VSW-DOCK_HTVS_1-003_lib.mae

>  <canonical_smiles>  (1473) 
CCc1ccccc1C[NH2+]CCc1nc2ccccc2n1-c1ccccc1

>  <scaffold>  (1473) 
c1ccc(C[NH2+]CCc2nc3ccccc3n2-c2ccccc2)cc1

>  <molecular_formula>  (1473) 
C24H26N3+

$$$$
ATP-HTVS-E79C34F2E4E5
     RDKit          3D

 72 75  0  0  0  0  0  0  0  0999 V2000
  199.3906  184.7996  155.0219 O   0  0  0  0  0  0  0  0  0  0  0  0
  198.2786  184.6280  154.5293 C   0  0  0  0  0  0  0  0  0  0  0  0
  197.1895  185.3439  154.8630 N   0  0  0  0  0  0  0  0  0  0  0  0
  197.1577  186.4342  155.8431 C   0  0  1  0  0  0  0  0  0  0  0  0
  197.6026  186.0082  157.2788 C   0  0  1  0  0  0  0  0  0  0  0  0
  197.7164  187.1058  158.2561 N   0  0  0  0  0  0  0  0  0  0  0  0
  198.3353  188.3495  157.7602 C   0  0  1  0  0  0  0  0  0  0  0  0
  198.0577  189.5206  158.7130 C   0  0  2  0  0  0  0  0  0  0  0  0
  198.3972  186.6286  159.4772 C   0  0  1  0  0  0  0  0  0  0  0  0
  199.8953  186.2567  159.3145 C   0  0  2  0  0  0  0  0  0  0  0  0
  196.7191  184.8654  157.7953 C   0  0  0  0  0  0  0  0  0  0  0  0
  197.0497  183.5514  157.4249 C   0  0  0  0  0  0  0  0  0  0  0  0
  196.2201  182.4667  157.7617 C   0  0  0  0  0  0  0  0  0  0  0  0
  195.0797  182.6804  158.5381 C   0  0  0  0  0  0  0  0  0  0  0  0
  194.7598  183.9930  158.9822 C   0  0  0  0  0  0  0  0  0  0  0  0
  195.5801  185.0878  158.5950 C   0  0  0  0  0  0  0  0  0  0  0  0
  194.2017  181.5115  158.9363 C   0  0  2  0  0  0  0  0  0  0  0  0
  197.9876  183.6457  153.5071 C   0  0  0  0  0  0  0  0  0  0  0  0
  197.7458  182.2986  153.8282 N   0  0  0  0  0  0  0  0  0  0  0  0
  197.2289  181.4273  152.8409 C   0  0  0  0  0  0  0  0  0  0  0  0
  197.1978  181.8649  151.4933 C   0  0  0  0  0  0  0  0  0  0  0  0
  196.7485  180.9987  150.4745 C   0  0  0  0  0  0  0  0  0  0  0  0
  196.3055  179.7041  150.7886 C   0  0  0  0  0  0  0  0  0  0  0  0
  196.3051  179.2726  152.1227 C   0  0  0  0  0  0  0  0  0  0  0  0
  196.7525  180.1258  153.1406 C   0  0  0  0  0  0  0  0  0  0  0  0
  197.6375  183.2424  151.1235 C   0  0  0  0  0  0  0  0  0  0  0  0
  197.7157  183.6438  149.9622 O   0  0  0  0  0  0  0  0  0  0  0  0
  197.9680  184.1222  152.2497 C   0  0  0  0  0  0  0  0  0  0  0  0
  198.2355  181.6143  155.0330 C   0  0  1  0  0  0  0  0  0  0  0  0
  199.3229  180.5900  154.8673 C   0  0  0  0  0  0  0  0  0  0  0  0
  199.3688  179.4910  155.7457 C   0  0  0  0  0  0  0  0  0  0  0  0
  200.3946  178.5341  155.6433 C   0  0  0  0  0  0  0  0  0  0  0  0
  200.3353  177.4661  156.5126 O   0  0  0  0  0  0  0  0  0  0  0  0
  201.2881  176.4307  156.3511 C   0  0  2  0  0  0  0  0  0  0  0  0
  201.3922  178.7120  154.6503 C   0  0  0  0  0  0  0  0  0  0  0  0
  201.3753  179.8409  153.8042 C   0  0  0  0  0  0  0  0  0  0  0  0
  200.3362  180.7828  153.9127 C   0  0  0  0  0  0  0  0  0  0  0  0
  196.3211  185.1425  154.3840 H   0  0  0  0  0  0  0  0  0  0  0  0
  197.7851  187.2130  155.4014 H   0  0  0  0  0  0  0  0  0  0  0  0
  196.1465  186.8416  155.8976 H   0  0  0  0  0  0  0  0  0  0  0  0
  198.6074  185.6130  157.1704 H   0  0  0  0  0  0  0  0  0  0  0  0
  199.4041  188.2181  157.5657 H   0  0  0  0  0  0  0  0  0  0  0  0
  197.8949  188.6759  156.8158 H   0  0  0  0  0  0  0  0  0  0  0  0
  198.4895  190.4307  158.2965 H   0  0  0  0  0  0  0  0  0  0  0  0
  198.4985  189.3921  159.7037 H   0  0  0  0  0  0  0  0  0  0  0  0
  196.9764  189.6656  158.8230 H   0  0  0  0  0  0  0  0  0  0  0  0
  198.3047  187.4097  160.2226 H   0  0  0  0  0  0  0  0  0  0  0  0
  197.8615  185.7816  159.9161 H   0  0  0  0  0  0  0  0  0  0  0  0
  200.3472  186.0356  160.2809 H   0  0  0  0  0  0  0  0  0  0  0  0
  200.4989  187.0594  158.8919 H   0  0  0  0  0  0  0  0  0  0  0  0
  200.0340  185.3687  158.6971 H   0  0  0  0  0  0  0  0  0  0  0  0
  197.9384  183.4538  156.8544 H   0  0  0  0  0  0  0  0  0  0  0  0
  196.4353  181.4645  157.4384 H   0  0  0  0  0  0  0  0  0  0  0  0
  193.8832  184.1650  159.6010 H   0  0  0  0  0  0  0  0  0  0  0  0
  195.3138  186.0935  158.8988 H   0  0  0  0  0  0  0  0  0  0  0  0
  193.1427  181.8010  158.9330 H   0  0  0  0  0  0  0  0  0  0  0  0
  194.4902  181.1728  159.9381 H   0  0  0  0  0  0  0  0  0  0  0  0
  194.3144  180.6561  158.2627 H   0  0  0  0  0  0  0  0  0  0  0  0
  196.7505  181.3252  149.4422 H   0  0  0  0  0  0  0  0  0  0  0  0
  195.9539  179.0483  150.0118 H   0  0  0  0  0  0  0  0  0  0  0  0
  195.9577  178.2835  152.3845 H   0  0  0  0  0  0  0  0  0  0  0  0
  196.7273  179.7300  154.1437 H   0  0  0  0  0  0  0  0  0  0  0  0
  198.1944  185.1628  152.0345 H   0  0  0  0  0  0  0  0  0  0  0  0
  198.7946  182.2669  155.6860 H   0  0  0  0  0  0  0  0  0  0  0  0
  197.3938  181.1759  155.5647 H   0  0  0  0  0  0  0  0  0  0  0  0
  198.6250  179.3887  156.5242 H   0  0  0  0  0  0  0  0  0  0  0  0
  201.1012  175.6579  157.0931 H   0  0  0  0  0  0  0  0  0  0  0  0
  202.2986  176.8029  156.5086 H   0  0  0  0  0  0  0  0  0  0  0  0
  201.2165  175.9749  155.3632 H   0  0  0  0  0  0  0  0  0  0  0  0
  202.1788  177.9880  154.5103 H   0  0  0  0  0  0  0  0  0  0  0  0
  202.1436  179.9735  153.0503 H   0  0  0  0  0  0  0  0  0  0  0  0
  200.3374  181.6674  153.2887 H   0  0  0  0  0  0  0  0  0  0  0  0
  1  2  2  0
  2  3  1  0
  2 18  1  0
  3  4  1  0
  3 38  1  0
  4  5  1  0
  4 39  1  6
  4 40  1  0
  5  6  1  0
  5 11  1  0
  5 41  1  6
  6  7  1  0
  6  9  1  0
  7  8  1  0
  7 42  1  6
  7 43  1  0
  8 44  1  6
  8 45  1  0
  8 46  1  0
  9 10  1  0
  9 47  1  1
  9 48  1  0
 10 49  1  1
 10 50  1  0
 10 51  1  0
 11 12  1  0
 11 16  2  0
 12 13  2  0
 12 52  1  0
 13 14  1  0
 13 53  1  0
 14 15  2  0
 14 17  1  0
 15 16  1  0
 15 54  1  0
 16 55  1  0
 17 56  1  1
 17 57  1  0
 17 58  1  0
 18 19  1  0
 18 28  2  0
 19 20  1  0
 19 29  1  0
 20 21  1  0
 20 25  2  0
 21 22  2  0
 21 26  1  0
 22 23  1  0
 22 59  1  0
 23 24  2  0
 23 60  1  0
 24 25  1  0
 24 61  1  0
 25 62  1  0
 26 27  2  0
 26 28  1  0
 28 63  1  0
 29 30  1  0
 29 64  1  1
 29 65  1  0
 30 31  1  0
 30 37  2  0
 31 32  2  0
 31 66  1  0
 32 33  1  0
 32 35  1  0
 33 34  1  0
 34 67  1  1
 34 68  1  0
 34 69  1  0
 35 36  2  0
 35 70  1  0
 36 37  1  0
 36 71  1  0
 37 72  1  0
M  END
>  <s_epik_cmdline>  (1474) 
J2VwaWtfcHl0aG9uJywgJy1waCcsICc3LjAwMDAwMCcsICctcGh0JywgJzIuMDAwMDAwJywgJy1tcycsICcxNicsICctdG4nLCAnOCcsICctbWEnLCAnMjAwJywgJy1pbWFlJywgJzxpbmZpbGUubWFlPicsICctb21hZScsICc8b3V0ZmlsZS5tYWU+Jw==

>  <s_epik_input>  (1474) 
W2NIXTFbY0hdW2NIXWMoT1tDSDNdKVtjSF1jMVtDSDJdbjJjKFtjSF1jKD1PKWMoYzIzKVtjSF1bY0hdW2NIXVtjSF0zKUMoPU8pW05IXVtDSDJdW0NAQEhdKE4oW0NIMl1bQ0gzXSlbQ0gyXVtDSDNdKWM0W2NIXVtjSF1jKFtDSDNdKVtjSF1bY0hdNA==

>  <s_i_glide_gridfile>  (1474) 
ATP-Grid

>  <s_lp_Force_Field>  (1474) 
OPLS_2005

>  <s_lp_Variant>  (1474) 
YAS_R012____OTV5753507____OTV998643____OTV7020410267-4

>  <s_lp_label>  (1474) 
167_sdstereoexpander_2_neutralizer_1_epik_2_stereoizer_1

>  <s_m_source_file>  (1474) 
ATP-VSW-LIGPREP-001-in.maegz

>  <s_sd_BIOSOLVEIT.INFINISEE\_QUERY\_NAME>  (1474) 
Ref-Lig

>  <s_sd_BIOSOLVEIT.INFINISEE\_QUERY\_SMILES>  (1474) 
S(c1nc2c(cc1C[NH2+]Cc3ccc(cc3)C[NH+](C)C)cccc2)Cc4ccccc4

>  <s_sd_BIOSOLVEIT.INFINISEE\_REACTION\_NAME>  (1474) 
YAS_R012

>  <s_sd_BIOSOLVEIT.INFINISEE\_REAGENT1\_NAME>  (1474) 
OTV5753507

>  <s_sd_BIOSOLVEIT.INFINISEE\_REAGENT1\_SMILES>  (1474) 
Nc1ccccc1

>  <s_sd_BIOSOLVEIT.INFINISEE\_REAGENT2\_NAME>  (1474) 
OTV998643

>  <s_sd_BIOSOLVEIT.INFINISEE\_REAGENT2\_SMILES>  (1474) 
ClCc1cc(OC)ccc1

>  <s_sd_BIOSOLVEIT.INFINISEE\_REAGENT3\_NAME>  (1474) 
OTV7020410267

>  <s_sd_BIOSOLVEIT.INFINISEE\_REAGENT3\_SMILES>  (1474) 
N(C(c1ccc(cc1)C)CN)(CC)CC

>  <s_sd_BIOSOLVEIT.INFINISEE\_SPACE>  (1474) 
CHEMriya_12bn_2022-01

>  <s_vsw_compound_code>  (1474) 
5313

>  <s_vsw_variant>  (1474) 
5313-4

>  <r_epik_Charging_Adjusted_Penalty>  (1474) 
1.3698831760976899

>  <r_epik_Ionization_Penalty>  (1474) 
1.3698999999999999

>  <r_epik_Ionization_Penalty_Charging>  (1474) 
0

>  <r_epik_Ionization_Penalty_Neutral>  (1474) 
1.3698999999999999

>  <r_epik_State_Penalty>  (1474) 
1.3698999999999999

>  <r_i_docking_score>  (1474) 
-1.5789444488875299

>  <r_i_glide_ecoul>  (1474) 
-0.58864903450012196

>  <r_i_glide_eff_state_penalty>  (1474) 
1.3698999999999999

>  <r_i_glide_einternal>  (1474) 
6.7473483085632298

>  <r_i_glide_emodel>  (1474) 
-44.518316250337698

>  <r_i_glide_energy>  (1474) 
-39.404078722000101

>  <r_i_glide_erotb>  (1474) 
0.65905321918736204

>  <r_i_glide_esite>  (1474) 
-0.0119725426026728

>  <r_i_glide_evdw>  (1474) 
-38.8154296875

>  <r_i_glide_gscore>  (1474) 
-2.9488444488875301

>  <r_i_glide_hbond>  (1474) 
0

>  <r_i_glide_ligand_efficiency>  (1474) 
-0.0426741742942576

>  <r_i_glide_ligand_efficiency_ln>  (1474) 
-0.34243603525399902

>  <r_i_glide_ligand_efficiency_sa>  (1474) 
-0.14219981591311601

>  <r_i_glide_lipo>  (1474) 
-1.54154354575778

>  <r_i_glide_metal>  (1474) 
-0

>  <r_i_glide_rewards>  (1474) 
-0.025312740164424499

>  <r_lp_Energy>  (1474) 
36.753936000000003

>  <r_lp_tautomer_probability>  (1474) 
1

>  <r_qp_ACxDN^.5/SA>  (1474) 
0.010083699999999999

>  <r_qp_CIQPlogS>  (1474) 
-6.4930000000000003

>  <r_qp_EA(eV)>  (1474) 
0.66700000000000004

>  <r_qp_FISA>  (1474) 
87.534999999999997

>  <r_qp_FOSA>  (1474) 
353.75900000000001

>  <r_qp_IP(eV)>  (1474) 
8.6519999999999992

>  <r_qp_Jm>  (1474) 
0.0135522815075709

>  <r_qp_PISA>  (1474) 
327.274

>  <r_qp_PSA>  (1474) 
72.700000000000003

>  <r_qp_PercentHumanOralAbsorption>  (1474) 
100

>  <r_qp_QPPCaco>  (1474) 
365.34899999999999

>  <r_qp_QPPMDCK>  (1474) 
184.31800000000001

>  <r_qp_QPlogBB>  (1474) 
-0.46600000000000003

>  <r_qp_QPlogHERG>  (1474) 
-6.3970000000000002

>  <r_qp_QPlogKhsa>  (1474) 
0.85599999999999998

>  <r_qp_QPlogKp>  (1474) 
-3.0819999999999999

>  <r_qp_QPlogPC16>  (1474) 
15.539

>  <r_qp_QPlogPo/w>  (1474) 
4.9930000000000003

>  <r_qp_QPlogPoct>  (1474) 
24.149000000000001

>  <r_qp_QPlogPw>  (1474) 
11.282999999999999

>  <r_qp_QPlogS>  (1474) 
-4.4829999999999997

>  <r_qp_QPpolrz>  (1474) 
52.347999999999999

>  <r_qp_SASA>  (1474) 
768.56700000000001

>  <r_qp_SAamideO>  (1474) 
0

>  <r_qp_SAfluorine>  (1474) 
0

>  <r_qp_WPSA>  (1474) 
0

>  <r_qp_accptHB>  (1474) 
7.75

>  <r_qp_dip^2/V>  (1474) 
0.076464799999999999

>  <r_qp_dipole>  (1474) 
10.866

>  <r_qp_donorHB>  (1474) 
1

>  <r_qp_glob>  (1474) 
0.84064519999999998

>  <r_qp_mol_MW>  (1474) 
497.63600000000002

>  <r_qp_volume>  (1474) 
1544.1679999999999

>  <r_sd_BIOSOLVEIT.INFINISEE\_FTREES\_SIMILARITY>  (1474) 
0.90100000000000002

>  <r_sd_BIOSOLVEIT.LOGP>  (1474) 
3.87262

>  <r_sd_BIOSOLVEIT.MOLECULAR\_WEIGHT>  (1474) 
498.64299999999997

>  <r_sd_BIOSOLVEIT.TPSA>  (1474) 
63.079999999999998

>  <i_epik_Tot_Q>  (1474) 
0

>  <i_epik_Tot_abs_Q>  (1474) 
0

>  <i_f3d_flags>  (1474) 
0

>  <i_i_glide_confnum>  (1474) 
4

>  <i_i_glide_lignum>  (1474) 
37

>  <i_i_glide_posenum>  (1474) 
5

>  <i_i_glide_rotatable_bonds>  (1474) 
11

>  <i_lp_mmshare_version>  (1474) 
65135

>  <i_m_ct_format>  (1474) 
2

>  <i_m_source_file_index>  (1474) 
167

>  <i_qp_#NandO>  (1474) 
6

>  <i_qp_#acid>  (1474) 
0

>  <i_qp_#amide>  (1474) 
0

>  <i_qp_#amidine>  (1474) 
0

>  <i_qp_#amine>  (1474) 
1

>  <i_qp_#in34>  (1474) 
0

>  <i_qp_#in56>  (1474) 
22

>  <i_qp_#metab>  (1474) 
7

>  <i_qp_#nonHatm>  (1474) 
37

>  <i_qp_#noncon>  (1474) 
0

>  <i_qp_#ringatoms>  (1474) 
22

>  <i_qp_#rotor>  (1474) 
10

>  <i_qp_#rtvFG>  (1474) 
0

>  <i_qp_#stars>  (1474) 
0

>  <i_qp_CNS>  (1474) 
1

>  <i_qp_HumanOralAbsorption>  (1474) 
3

>  <i_qp_RuleOfFive>  (1474) 
0

>  <i_qp_RuleOfThree>  (1474) 
1

>  <i_sd_BIOSOLVEIT.INFINISEE\_RESULT\_RANK>  (1474) 
99551

>  <i_sd_version>  (1474) 
0

>  <b_lp_Chiralities_Consistent>  (1474) 
1

>  <b_sd_chiral_flag>  (1474) 
0

>  <canonical_id>  (1474) 
ATP-HTVS-E79C34F2E4E5

>  <compound_code>  (1474) 
5313

>  <title>  (1474) 
YAS_R012____OTV5753507____OTV998643____OTV7020410267

>  <variant>  (1474) 
5313-4

>  <source_file>  (1474) 
运行/运行/ATP-VSW/ATP-VSW-DOCK_HTVS_1-001_lib/ATP-VSW-DOCK_HTVS_1-001_lib

>  <canonical_smiles>  (1474) 
CCN(CC)[C@H](CNC(=O)c1cc(=O)c2ccccc2n1Cc1cccc(OC)c1)c1ccc(C)cc1

>  <scaffold>  (1474) 
O=C(NCCc1ccccc1)c1cc(=O)c2ccccc2n1Cc1ccccc1

>  <molecular_formula>  (1474) 
C31H35N3O3

$$$$
ATP-HTVS-E7B44E0E6F2B
     RDKit          3D

 56 59  0  0  0  0  0  0  0  0999 V2000
  200.9815  181.6251  156.4306 N   0  0  0  0  0  0  0  0  0  0  0  0
  199.6741  181.4055  156.5665 C   0  0  0  0  0  0  0  0  0  0  0  0
  199.1115  180.2187  156.3325 N   0  0  0  0  0  0  0  0  0  0  0  0
  199.8687  179.1785  155.9538 C   0  0  0  0  0  0  0  0  0  0  0  0
  201.2580  179.3324  155.7815 C   0  0  0  0  0  0  0  0  0  0  0  0
  201.7904  180.6099  156.0582 C   0  0  0  0  0  0  0  0  0  0  0  0
  203.1677  180.8565  155.9243 N   0  0  0  0  0  0  0  0  0  0  0  0
  203.8351  181.9447  156.6341 C   0  0  1  0  0  0  0  0  0  0  0  0
  203.5235  182.0796  158.1196 C   0  0  0  0  0  0  0  0  0  0  0  0
  203.2458  183.3553  158.6523 C   0  0  0  0  0  0  0  0  0  0  0  0
  202.9315  183.5023  160.0161 C   0  0  0  0  0  0  0  0  0  0  0  0
  202.8949  182.3736  160.8559 C   0  0  0  0  0  0  0  0  0  0  0  0
  203.1831  181.0988  160.3309 C   0  0  0  0  0  0  0  0  0  0  0  0
  203.5010  180.9505  158.9665 C   0  0  0  0  0  0  0  0  0  0  0  0
  202.0320  178.2137  155.3911 C   0  0  0  0  0  0  0  0  0  0  0  0
  201.4100  176.9672  155.1696 C   0  0  0  0  0  0  0  0  0  0  0  0
  200.0183  176.8316  155.3454 C   0  0  0  0  0  0  0  0  0  0  0  0
  199.2492  177.9434  155.7290 C   0  0  0  0  0  0  0  0  0  0  0  0
  198.8951  182.4647  156.9777 N   0  0  0  0  0  0  0  0  0  0  0  0
  197.4448  182.3729  157.1229 C   0  0  1  0  0  0  0  0  0  0  0  0
  196.7779  183.5172  157.8817 C   0  0  0  0  0  0  0  0  0  0  0  0
  195.6576  183.2906  158.7263 C   0  0  0  0  0  0  0  0  0  0  0  0
  195.0551  184.3769  159.3966 C   0  0  0  0  0  0  0  0  0  0  0  0
  195.5549  185.6802  159.2335 C   0  0  0  0  0  0  0  0  0  0  0  0
  196.6506  185.9112  158.3846 C   0  0  0  0  0  0  0  0  0  0  0  0
  197.2572  184.8348  157.7109 C   0  0  0  0  0  0  0  0  0  0  0  0
  195.0681  181.9047  158.9258 C   0  0  1  0  0  0  0  0  0  0  0  0
  194.3472  181.4389  157.7326 N   0  0  1  0  0  0  0  0  0  0  0  0
  192.8855  181.3591  157.8757 C   0  0  2  0  0  0  0  0  0  0  0  0
  194.4986  182.0488  156.9305 H   0  0  0  0  0  0  0  0  0  0  0  0
  203.7496  180.1202  155.5548 H   0  0  0  0  0  0  0  0  0  0  0  0
  204.9115  181.7903  156.5351 H   0  0  0  0  0  0  0  0  0  0  0  0
  203.6081  182.8788  156.1180 H   0  0  0  0  0  0  0  0  0  0  0  0
  203.2672  184.2256  158.0130 H   0  0  0  0  0  0  0  0  0  0  0  0
  202.7138  184.4821  160.4144 H   0  0  0  0  0  0  0  0  0  0  0  0
  202.6479  182.4899  161.9014 H   0  0  0  0  0  0  0  0  0  0  0  0
  203.1535  180.2330  160.9741 H   0  0  0  0  0  0  0  0  0  0  0  0
  203.7192  179.9676  158.5713 H   0  0  0  0  0  0  0  0  0  0  0  0
  203.1076  178.2783  155.2917 H   0  0  0  0  0  0  0  0  0  0  0  0
  202.0054  176.1078  154.8923 H   0  0  0  0  0  0  0  0  0  0  0  0
  199.5489  175.8698  155.2045 H   0  0  0  0  0  0  0  0  0  0  0  0
  198.1855  177.8344  155.8951 H   0  0  0  0  0  0  0  0  0  0  0  0
  199.3521  183.3515  157.1254 H   0  0  0  0  0  0  0  0  0  0  0  0
  197.0040  182.3232  156.1255 H   0  0  0  0  0  0  0  0  0  0  0  0
  197.2193  181.4261  157.6111 H   0  0  0  0  0  0  0  0  0  0  0  0
  194.2022  184.2206  160.0383 H   0  0  0  0  0  0  0  0  0  0  0  0
  195.0822  186.5083  159.7422 H   0  0  0  0  0  0  0  0  0  0  0  0
  197.0218  186.9140  158.2422 H   0  0  0  0  0  0  0  0  0  0  0  0
  198.0845  185.0386  157.0469 H   0  0  0  0  0  0  0  0  0  0  0  0
  195.8383  181.1882  159.2196 H   0  0  0  0  0  0  0  0  0  0  0  0
  194.3682  181.9227  159.7520 H   0  0  0  0  0  0  0  0  0  0  0  0
  192.4223  181.0267  156.9484 H   0  0  0  0  0  0  0  0  0  0  0  0
  192.5078  182.3587  158.0888 H   0  0  0  0  0  0  0  0  0  0  0  0
  192.6004  180.6750  158.6770 H   0  0  0  0  0  0  0  0  0  0  0  0
  194.7218  180.4963  157.5416 H   0  0  0  0  0  0  0  0  0  0  0  0
  198.1131  180.0480  156.4808 H   0  0  0  0  0  0  0  0  0  0  0  0
  1  2  1  0
  1  6  2  0
  2  3  2  0
  2 19  1  0
  3  4  1  0
  3 56  1  0
  4  5  1  0
  4 18  2  0
  5  6  1  0
  5 15  2  0
  6  7  1  0
  7  8  1  0
  7 31  1  0
  8  9  1  0
  8 32  1  1
  8 33  1  0
  9 10  2  0
  9 14  1  0
 10 11  1  0
 10 34  1  0
 11 12  2  0
 11 35  1  0
 12 13  1  0
 12 36  1  0
 13 14  2  0
 13 37  1  0
 14 38  1  0
 15 16  1  0
 15 39  1  0
 16 17  2  0
 16 40  1  0
 17 18  1  0
 17 41  1  0
 18 42  1  0
 19 20  1  0
 19 43  1  0
 20 21  1  0
 20 44  1  6
 20 45  1  0
 21 22  1  0
 21 26  2  0
 22 23  2  0
 22 27  1  0
 23 24  1  0
 23 46  1  0
 24 25  2  0
 24 47  1  0
 25 26  1  0
 25 48  1  0
 26 49  1  0
 27 28  1  0
 27 50  1  1
 27 51  1  0
 28 29  1  0
 28 30  1  6
 28 55  1  0
 29 52  1  6
 29 53  1  0
 29 54  1  0
M  CHG  2   3   1  28   1
M  END
>  <s_epik_cmdline>  (1475) 
J2VwaWtfcHl0aG9uJywgJy1waCcsICc3LjAwMDAwMCcsICctcGh0JywgJzIuMDAwMDAwJywgJy1tcycsICcxNicsICctdG4nLCAnOCcsICctbWEnLCAnMjAwJywgJy1pbWFlJywgJzxpbmZpbGUubWFlPicsICctb21hZScsICc8b3V0ZmlsZS5tYWU+Jw==

>  <s_epik_input>  (1475) 
W2NIXTFbY0hdW2NIXVtjSF1jKFtDSDJdW05IXVtDSDNdKWMxW0NIMl1bTkhdYyhuMiluYyhjKGMyMylbY0hdW2NIXVtjSF1bY0hdMylbTkhdW0NIMl1jNFtjSF1bY0hdW2NIXVtjSF1bY0hdNA==

>  <s_i_glide_gridfile>  (1475) 
ATP-Grid

>  <s_lp_Force_Field>  (1475) 
OPLS_2005

>  <s_lp_Variant>  (1475) 
m_270166bbb____16815848____17625580-1

>  <s_lp_label>  (1475) 
1455_sdstereoexpander_1_neutralizer_1_epik_1_stereoizer_1

>  <s_m_source_file>  (1475) 
ATP-VSW-LIGPREP-001-in.maegz

>  <s_sd_BIOSOLVEIT.INFINISEE\_QUERY\_NAME>  (1475) 
Ref-Lig

>  <s_sd_BIOSOLVEIT.INFINISEE\_QUERY\_SMILES>  (1475) 
S(c1nc2c(cc1C[NH2+]Cc3ccc(cc3)C[NH+](C)C)cccc2)Cc4ccccc4

>  <s_sd_BIOSOLVEIT.INFINISEE\_REACTION\_NAME>  (1475) 
m_270166bbb

>  <s_sd_BIOSOLVEIT.INFINISEE\_REAGENT1\_SMILES>  (1475) 
[R1*]NCc1c(cccc1)CNC

>  <s_sd_BIOSOLVEIT.INFINISEE\_REAGENT2\_SMILES>  (1475) 
[R1*]c1nc(NCc2ccccc2)c3c(n1)cccc3

>  <s_sd_BIOSOLVEIT.INFINISEE\_SPACE>  (1475) 
REALSpace_44bn_2023-08

>  <s_vsw_compound_code>  (1475) 
46529

>  <s_vsw_variant>  (1475) 
46529-1

>  <r_epik_Charging_Adjusted_Penalty>  (1475) 
0.070807474325244105

>  <r_epik_Ionization_Penalty>  (1475) 
0.032300000000000002

>  <r_epik_Ionization_Penalty_Charging>  (1475) 
0.032300000000000002

>  <r_epik_Ionization_Penalty_Neutral>  (1475) 
0

>  <r_epik_State_Penalty>  (1475) 
0.0385

>  <r_i_docking_score>  (1475) 
-5.7644550907633203

>  <r_i_glide_ecoul>  (1475) 
-13.362468719482401

>  <r_i_glide_eff_state_penalty>  (1475) 
0.0385

>  <r_i_glide_einternal>  (1475) 
4.4036898612976101

>  <r_i_glide_emodel>  (1475) 
-67.971815024312093

>  <r_i_glide_energy>  (1475) 
-42.186117172241197

>  <r_i_glide_erotb>  (1475) 
0.64141496604622805

>  <r_i_glide_esite>  (1475) 
-0.179039082183891

>  <r_i_glide_evdw>  (1475) 
-28.8236484527588

>  <r_i_glide_gscore>  (1475) 
-5.8029550907633203

>  <r_i_glide_hbond>  (1475) 
-0.36520584169904002

>  <r_i_glide_ligand_efficiency>  (1475) 
-0.19877431347459701

>  <r_i_glide_ligand_efficiency_ln>  (1475) 
-1.3199140418159301

>  <r_i_glide_ligand_efficiency_sa>  (1475) 
-0.61069766711669105

>  <r_i_glide_lipo>  (1475) 
-1.1439224932754

>  <r_i_glide_metal>  (1475) 
-0

>  <r_i_glide_rewards>  (1475) 
-1.3106499090909101

>  <r_lp_Energy>  (1475) 
17.621537

>  <r_qp_ACxDN^.5/SA>  (1475) 
0.0115893

>  <r_qp_CIQPlogS>  (1475) 
-5.2809999999999997

>  <r_qp_EA(eV)>  (1475) 
0.60299999999999998

>  <r_qp_FISA>  (1475) 
47.154000000000003

>  <r_qp_FOSA>  (1475) 
147.726

>  <r_qp_IP(eV)>  (1475) 
7.9930000000000003

>  <r_qp_Jm>  (1475) 
0.35159226931318299

>  <r_qp_PISA>  (1475) 
477.65499999999997

>  <r_qp_PSA>  (1475) 
53.997

>  <r_qp_PercentHumanOralAbsorption>  (1475) 
100

>  <r_qp_QPPCaco>  (1475) 
882.35299999999995

>  <r_qp_QPPMDCK>  (1475) 
478.05200000000002

>  <r_qp_QPlogBB>  (1475) 
0.025000000000000001

>  <r_qp_QPlogHERG>  (1475) 
-7.266

>  <r_qp_QPlogKhsa>  (1475) 
0.63100000000000001

>  <r_qp_QPlogKp>  (1475) 
-2

>  <r_qp_QPlogPC16>  (1475) 
14.141

>  <r_qp_QPlogPo/w>  (1475) 
4.5330000000000004

>  <r_qp_QPlogPoct>  (1475) 
21.026

>  <r_qp_QPlogPw>  (1475) 
11.968999999999999

>  <r_qp_QPlogS>  (1475) 
-4.0369999999999999

>  <r_qp_QPpolrz>  (1475) 
43.012999999999998

>  <r_qp_SASA>  (1475) 
672.53399999999999

>  <r_qp_SAamideO>  (1475) 
0

>  <r_qp_SAfluorine>  (1475) 
0

>  <r_qp_WPSA>  (1475) 
0

>  <r_qp_accptHB>  (1475) 
4.5

>  <r_qp_dip^2/V>  (1475) 
0.0075582999999999996

>  <r_qp_dipole>  (1475) 
3.0649999999999999

>  <r_qp_donorHB>  (1475) 
3

>  <r_qp_glob>  (1475) 
0.83128460000000004

>  <r_qp_mol_MW>  (1475) 
383.495

>  <r_qp_volume>  (1475) 
1242.9359999999999

>  <r_sd_BIOSOLVEIT.INFINISEE\_FTREES\_SIMILARITY>  (1475) 
0.90800000000000003

>  <r_sd_BIOSOLVEIT.LOGP>  (1475) 
3.5472000000000001

>  <r_sd_BIOSOLVEIT.MOLECULAR\_WEIGHT>  (1475) 
384.50400000000002

>  <r_sd_BIOSOLVEIT.TPSA>  (1475) 
66.450000000000003

>  <i_epik_Tot_Q>  (1475) 
2

>  <i_epik_Tot_abs_Q>  (1475) 
2

>  <i_f3d_flags>  (1475) 
0

>  <i_i_glide_confnum>  (1475) 
4

>  <i_i_glide_lignum>  (1475) 
379

>  <i_i_glide_posenum>  (1475) 
13

>  <i_i_glide_rotatable_bonds>  (1475) 
8

>  <i_lp_mmshare_version>  (1475) 
65135

>  <i_m_ct_format>  (1475) 
2

>  <i_m_source_file_index>  (1475) 
1455

>  <i_qp_#NandO>  (1475) 
5

>  <i_qp_#acid>  (1475) 
0

>  <i_qp_#amide>  (1475) 
0

>  <i_qp_#amidine>  (1475) 
0

>  <i_qp_#amine>  (1475) 
1

>  <i_qp_#in34>  (1475) 
0

>  <i_qp_#in56>  (1475) 
22

>  <i_qp_#metab>  (1475) 
5

>  <i_qp_#nonHatm>  (1475) 
29

>  <i_qp_#noncon>  (1475) 
0

>  <i_qp_#ringatoms>  (1475) 
22

>  <i_qp_#rotor>  (1475) 
8

>  <i_qp_#rtvFG>  (1475) 
0

>  <i_qp_#stars>  (1475) 
1

>  <i_qp_CNS>  (1475) 
1

>  <i_qp_HumanOralAbsorption>  (1475) 
3

>  <i_qp_RuleOfFive>  (1475) 
0

>  <i_qp_RuleOfThree>  (1475) 
0

>  <i_sd_BIOSOLVEIT.INFINISEE\_REAGENT1\_NAME>  (1475) 
16815848

>  <i_sd_BIOSOLVEIT.INFINISEE\_REAGENT2\_NAME>  (1475) 
17625580

>  <i_sd_BIOSOLVEIT.INFINISEE\_RESULT\_RANK>  (1475) 
56317

>  <i_sd_version>  (1475) 
0

>  <b_lp_Chiralities_Consistent>  (1475) 
1

>  <b_sd_chiral_flag>  (1475) 
0

>  <canonical_id>  (1475) 
ATP-HTVS-E7B44E0E6F2B

>  <compound_code>  (1475) 
46529

>  <title>  (1475) 
m_270166bbb____16815848____17625580

>  <variant>  (1475) 
46529-1

>  <source_file>  (1475) 
运行/运行/ATP-VSW/ATP-VSW-DOCK_HTVS_1-001_lib/ATP-VSW-DOCK_HTVS_1-001_lib

>  <canonical_smiles>  (1475) 
C[NH2+]Cc1ccccc1CNc1nc(NCc2ccccc2)c2ccccc2[nH+]1

>  <scaffold>  (1475) 
c1ccc(CNc2nc(NCc3ccccc3)c3ccccc3[nH+]2)cc1

>  <molecular_formula>  (1475) 
C24H27N5+2

$$$$
ATP-HTVS-E7CE93BF7585
     RDKit          3D

 49 52  0  0  0  0  0  0  0  0999 V2000
  197.1521  191.4339  161.4615 O   0  0  0  0  0  0  0  0  0  0  0  0
  197.4578  191.2352  160.2875 C   0  0  0  0  0  0  0  0  0  0  0  0
  198.2809  192.0671  159.6269 N   0  0  0  0  0  0  0  0  0  0  0  0
  198.7321  191.8995  158.2853 C   0  0  0  0  0  0  0  0  0  0  0  0
  199.1077  190.6259  157.7743 C   0  0  0  0  0  0  0  0  0  0  0  0
  199.5563  190.5335  156.4275 C   0  0  0  0  0  0  0  0  0  0  0  0
  199.6374  191.6776  155.6182 C   0  0  0  0  0  0  0  0  0  0  0  0
  199.2777  192.9376  156.1281 C   0  0  0  0  0  0  0  0  0  0  0  0
  198.8310  193.0458  157.4580 C   0  0  0  0  0  0  0  0  0  0  0  0
  199.0875  189.3923  158.6998 C   0  0  1  0  0  0  0  0  0  0  0  0
  197.7280  188.9619  159.0903 N   0  0  0  0  0  0  0  0  0  0  0  0
  197.8119  187.9402  160.1459 C   0  0  1  0  0  0  0  0  0  0  0  0
  196.6515  186.9629  160.1365 C   0  0  0  0  0  0  0  0  0  0  0  0
  196.7022  185.8098  159.3180 C   0  0  0  0  0  0  0  0  0  0  0  0
  195.6509  184.8736  159.3042 C   0  0  0  0  0  0  0  0  0  0  0  0
  195.7899  183.7753  158.4860 O   0  0  0  0  0  0  0  0  0  0  0  0
  194.7389  182.8176  158.4641 C   0  0  2  0  0  0  0  0  0  0  0  0
  194.5260  185.1110  160.1298 C   0  0  0  0  0  0  0  0  0  0  0  0
  194.4650  186.2630  160.9437 C   0  0  0  0  0  0  0  0  0  0  0  0
  195.5325  187.1806  160.9571 C   0  0  0  0  0  0  0  0  0  0  0  0
  196.8263  190.0640  159.5130 C   0  0  1  0  0  0  0  0  0  0  0  0
  199.8434  188.2282  158.0551 C   0  0  0  0  0  0  0  0  0  0  0  0
  201.2116  188.0071  158.3144 C   0  0  0  0  0  0  0  0  0  0  0  0
  201.8925  186.9419  157.6842 C   0  0  0  0  0  0  0  0  0  0  0  0
  201.2075  186.0923  156.7935 C   0  0  0  0  0  0  0  0  0  0  0  0
  199.8409  186.3076  156.5331 C   0  0  0  0  0  0  0  0  0  0  0  0
  199.1675  187.3715  157.1552 C   0  0  0  0  0  0  0  0  0  0  0  0
  198.5420  192.9254  160.0934 H   0  0  0  0  0  0  0  0  0  0  0  0
  199.8673  189.5992  155.9750 H   0  0  0  0  0  0  0  0  0  0  0  0
  199.9884  191.5761  154.6025 H   0  0  0  0  0  0  0  0  0  0  0  0
  199.3564  193.8111  155.4988 H   0  0  0  0  0  0  0  0  0  0  0  0
  198.5548  194.0143  157.8475 H   0  0  0  0  0  0  0  0  0  0  0  0
  199.6394  189.6628  159.6077 H   0  0  0  0  0  0  0  0  0  0  0  0
  198.6878  187.3009  160.0628 H   0  0  0  0  0  0  0  0  0  0  0  0
  197.9088  188.4243  161.1196 H   0  0  0  0  0  0  0  0  0  0  0  0
  197.5685  185.6293  158.6914 H   0  0  0  0  0  0  0  0  0  0  0  0
  194.9874  182.0166  157.7702 H   0  0  0  0  0  0  0  0  0  0  0  0
  193.7988  183.2618  158.1334 H   0  0  0  0  0  0  0  0  0  0  0  0
  194.5966  182.3689  159.4476 H   0  0  0  0  0  0  0  0  0  0  0  0
  193.6844  184.4328  160.1456 H   0  0  0  0  0  0  0  0  0  0  0  0
  193.5984  186.4439  161.5640 H   0  0  0  0  0  0  0  0  0  0  0  0
  195.4890  188.0504  161.5932 H   0  0  0  0  0  0  0  0  0  0  0  0
  195.9691  189.6910  160.0755 H   0  0  0  0  0  0  0  0  0  0  0  0
  196.3820  190.4777  158.6077 H   0  0  0  0  0  0  0  0  0  0  0  0
  201.7464  188.6632  158.9901 H   0  0  0  0  0  0  0  0  0  0  0  0
  202.9438  186.7883  157.8734 H   0  0  0  0  0  0  0  0  0  0  0  0
  201.7260  185.2828  156.3001 H   0  0  0  0  0  0  0  0  0  0  0  0
  199.3042  185.6710  155.8437 H   0  0  0  0  0  0  0  0  0  0  0  0
  198.1222  187.5270  156.9420 H   0  0  0  0  0  0  0  0  0  0  0  0
  1  2  2  0
  2  3  1  0
  2 21  1  0
  3  4  1  0
  3 28  1  0
  4  5  1  0
  4  9  2  0
  5  6  2  0
  5 10  1  0
  6  7  1  0
  6 29  1  0
  7  8  2  0
  7 30  1  0
  8  9  1  0
  8 31  1  0
  9 32  1  0
 10 11  1  0
 10 22  1  0
 10 33  1  1
 11 12  1  0
 11 21  1  0
 12 13  1  0
 12 34  1  6
 12 35  1  0
 13 14  1  0
 13 20  2  0
 14 15  2  0
 14 36  1  0
 15 16  1  0
 15 18  1  0
 16 17  1  0
 17 37  1  6
 17 38  1  0
 17 39  1  0
 18 19  2  0
 18 40  1  0
 19 20  1  0
 19 41  1  0
 20 42  1  0
 21 43  1  1
 21 44  1  0
 22 23  2  0
 22 27  1  0
 23 24  1  0
 23 45  1  0
 24 25  2  0
 24 46  1  0
 25 26  1  0
 25 47  1  0
 26 27  2  0
 26 48  1  0
 27 49  1  0
M  END
>  <s_epik_cmdline>  (1476) 
J2VwaWtfcHl0aG9uJywgJy1waCcsICc3LjAwMDAwMCcsICctcGh0JywgJzIuMDAwMDAwJywgJy1tcycsICcxNicsICctdG4nLCAnOCcsICctbWEnLCAnMjAwJywgJy1pbWFlJywgJzxpbmZpbGUubWFlPicsICctb21hZScsICc8b3V0ZmlsZS5tYWU+Jw==

>  <s_epik_input>  (1476) 
W2NIXTFbY0hdW2NIXVtjSF1bY0hdYzFbQ0BASF0oYyhjMjMpW2NIXVtjSF1bY0hdW2NIXTMpTihbQ0gyXUMoPU8pW05IXTIpW0NIMl1jNFtjSF1jKE9bQ0gzXSlbY0hdW2NIXVtjSF00

>  <s_i_glide_gridfile>  (1476) 
ATP-Grid

>  <s_lp_Force_Field>  (1476) 
OPLS_2005

>  <s_lp_Variant>  (1476) 
m_2230bdc____17849930____666466-2

>  <s_lp_label>  (1476) 
1274_sdstereoexpander_2_neutralizer_1_epik_1_stereoizer_1

>  <s_m_source_file>  (1476) 
ATP-VSW-LIGPREP-002-in.maegz

>  <s_sd_BIOSOLVEIT.INFINISEE\_QUERY\_NAME>  (1476) 
Ref-Lig

>  <s_sd_BIOSOLVEIT.INFINISEE\_QUERY\_SMILES>  (1476) 
S(c1nc2c(cc1C[NH2+]Cc3ccc(cc3)C[NH+](C)C)cccc2)Cc4ccccc4

>  <s_sd_BIOSOLVEIT.INFINISEE\_REACTION\_NAME>  (1476) 
m_2230bdc

>  <s_sd_BIOSOLVEIT.INFINISEE\_REAGENT1\_SMILES>  (1476) 
[R1*]N1C(c2c(NC(=O)C1)cccc2)c3ccccc3

>  <s_sd_BIOSOLVEIT.INFINISEE\_REAGENT2\_SMILES>  (1476) 
[R1*]Cc1cc(OC)ccc1

>  <s_sd_BIOSOLVEIT.INFINISEE\_SPACE>  (1476) 
REALSpace_44bn_2023-08

>  <s_vsw_compound_code>  (1476) 
40738

>  <s_vsw_variant>  (1476) 
40738-2

>  <r_epik_Charging_Adjusted_Penalty>  (1476) 
0.0087634984339075902

>  <r_epik_Ionization_Penalty>  (1476) 
0.0088000000000000005

>  <r_epik_Ionization_Penalty_Charging>  (1476) 
0

>  <r_epik_Ionization_Penalty_Neutral>  (1476) 
0.0088000000000000005

>  <r_epik_State_Penalty>  (1476) 
0.0088000000000000005

>  <r_i_docking_score>  (1476) 
-1.6483935427943801

>  <r_i_glide_ecoul>  (1476) 
-2.3989913463592498

>  <r_i_glide_eff_state_penalty>  (1476) 
0.0088000000000000005

>  <r_i_glide_einternal>  (1476) 
1.8762525320053101

>  <r_i_glide_emodel>  (1476) 
-31.188749032053

>  <r_i_glide_energy>  (1476) 
-29.008887052536

>  <r_i_glide_erotb>  (1476) 
0.44730476290996002

>  <r_i_glide_esite>  (1476) 
-0.012238103618971201

>  <r_i_glide_evdw>  (1476) 
-26.6098957061768

>  <r_i_glide_gscore>  (1476) 
-1.65719354279438

>  <r_i_glide_hbond>  (1476) 
-0.097844001602017797

>  <r_i_glide_ligand_efficiency>  (1476) 
-0.061051612696088199

>  <r_i_glide_ligand_efficiency_ln>  (1476) 
-0.383718840871067

>  <r_i_glide_ligand_efficiency_sa>  (1476) 
-0.18315483788704801

>  <r_i_glide_lipo>  (1476) 
-1.34165515029113

>  <r_i_glide_metal>  (1476) 
-0

>  <r_i_glide_rewards>  (1476) 
1.0375824370705

>  <r_lp_Energy>  (1476) 
41.839225999999996

>  <r_lp_tautomer_probability>  (1476) 
1

>  <r_qp_ACxDN^.5/SA>  (1476) 
0.0081428999999999998

>  <r_qp_CIQPlogS>  (1476) 
-4.3040000000000003

>  <r_qp_EA(eV)>  (1476) 
0.28699999999999998

>  <r_qp_FISA>  (1476) 
53.441000000000003

>  <r_qp_FOSA>  (1476) 
142.91399999999999

>  <r_qp_IP(eV)>  (1476) 
8.9269999999999996

>  <r_qp_Jm>  (1476) 
0.029134634870638301

>  <r_qp_PISA>  (1476) 
448.38099999999997

>  <r_qp_PSA>  (1476) 
49.805

>  <r_qp_PercentHumanOralAbsorption>  (1476) 
100

>  <r_qp_QPPCaco>  (1476) 
769.16099999999994

>  <r_qp_QPPMDCK>  (1476) 
412.12400000000002

>  <r_qp_QPlogBB>  (1476) 
0.26100000000000001

>  <r_qp_QPlogHERG>  (1476) 
-7.1849999999999996

>  <r_qp_QPlogKhsa>  (1476) 
0.62

>  <r_qp_QPlogKp>  (1476) 
-2.6989999999999998

>  <r_qp_QPlogPC16>  (1476) 
12.747

>  <r_qp_QPlogPo/w>  (1476) 
3.9900000000000002

>  <r_qp_QPlogPoct>  (1476) 
18.556999999999999

>  <r_qp_QPlogPw>  (1476) 
10.657999999999999

>  <r_qp_QPlogS>  (1476) 
-4.391

>  <r_qp_QPpolrz>  (1476) 
42.588999999999999

>  <r_qp_SASA>  (1476) 
644.73699999999997

>  <r_qp_SAamideO>  (1476) 
0

>  <r_qp_SAfluorine>  (1476) 
0

>  <r_qp_WPSA>  (1476) 
0

>  <r_qp_accptHB>  (1476) 
5.25

>  <r_qp_dip^2/V>  (1476) 
0.0129596

>  <r_qp_dipole>  (1476) 
3.8759999999999999

>  <r_qp_donorHB>  (1476) 
1

>  <r_qp_glob>  (1476) 
0.82768730000000001

>  <r_qp_mol_MW>  (1476) 
358.43900000000002

>  <r_qp_volume>  (1476) 
1159.1130000000001

>  <r_sd_BIOSOLVEIT.INFINISEE\_FTREES\_SIMILARITY>  (1476) 
0.91000000000000003

>  <r_sd_BIOSOLVEIT.LOGP>  (1476) 
2.8218000000000001

>  <r_sd_BIOSOLVEIT.MOLECULAR\_WEIGHT>  (1476) 
359.447

>  <r_sd_BIOSOLVEIT.TPSA>  (1476) 
42.770000000000003

>  <i_epik_Tot_Q>  (1476) 
0

>  <i_epik_Tot_abs_Q>  (1476) 
0

>  <i_f3d_flags>  (1476) 
0

>  <i_i_glide_confnum>  (1476) 
2

>  <i_i_glide_lignum>  (1476) 
446

>  <i_i_glide_posenum>  (1476) 
1

>  <i_i_glide_rotatable_bonds>  (1476) 
4

>  <i_lp_mmshare_version>  (1476) 
65135

>  <i_m_ct_format>  (1476) 
2

>  <i_m_source_file_index>  (1476) 
1274

>  <i_qp_#NandO>  (1476) 
4

>  <i_qp_#acid>  (1476) 
0

>  <i_qp_#amide>  (1476) 
0

>  <i_qp_#amidine>  (1476) 
0

>  <i_qp_#amine>  (1476) 
1

>  <i_qp_#in34>  (1476) 
0

>  <i_qp_#in56>  (1476) 
18

>  <i_qp_#metab>  (1476) 
8

>  <i_qp_#nonHatm>  (1476) 
27

>  <i_qp_#noncon>  (1476) 
2

>  <i_qp_#ringatoms>  (1476) 
23

>  <i_qp_#rotor>  (1476) 
3

>  <i_qp_#rtvFG>  (1476) 
0

>  <i_qp_#stars>  (1476) 
0

>  <i_qp_CNS>  (1476) 
1

>  <i_qp_HumanOralAbsorption>  (1476) 
3

>  <i_qp_RuleOfFive>  (1476) 
0

>  <i_qp_RuleOfThree>  (1476) 
1

>  <i_sd_BIOSOLVEIT.INFINISEE\_REAGENT1\_NAME>  (1476) 
17849930

>  <i_sd_BIOSOLVEIT.INFINISEE\_REAGENT2\_NAME>  (1476) 
666466

>  <i_sd_BIOSOLVEIT.INFINISEE\_RESULT\_RANK>  (1476) 
45114

>  <i_sd_version>  (1476) 
0

>  <b_lp_Chiralities_Consistent>  (1476) 
1

>  <b_sd_chiral_flag>  (1476) 
0

>  <canonical_id>  (1476) 
ATP-HTVS-E7CE93BF7585

>  <compound_code>  (1476) 
40738

>  <title>  (1476) 
m_2230bdc____17849930____666466

>  <variant>  (1476) 
40738-2

>  <source_file>  (1476) 
运行/运行/ATP-VSW/ATP-VSW-DOCK_HTVS_1-002_lib.maegz

>  <canonical_smiles>  (1476) 
COc1cccc(CN2CC(=O)Nc3ccccc3[C@@H]2c2ccccc2)c1

>  <scaffold>  (1476) 
O=C1CN(Cc2ccccc2)C(c2ccccc2)c2ccccc2N1

>  <molecular_formula>  (1476) 
C23H22N2O2

$$$$
ATP-HTVS-E7DA22DA6C24
     RDKit          3D

 66 69  0  0  0  0  0  0  0  0999 V2000
  197.6340  183.4910  151.9406 S   0  0  1  0  0  0  0  0  0  0  0  0
  198.3171  184.1093  150.7917 O   0  0  0  0  0  0  0  0  0  0  0  0
  197.9948  183.8904  153.3098 O   0  0  0  0  0  0  0  0  0  0  0  0
  195.9532  183.7873  151.7313 N   0  0  0  0  0  0  0  0  0  0  0  0
  197.7129  181.6994  151.7684 C   0  0  0  0  0  0  0  0  0  0  0  0
  197.3263  180.8047  152.8007 C   0  0  0  0  0  0  0  0  0  0  0  0
  197.4055  179.4161  152.5618 C   0  0  0  0  0  0  0  0  0  0  0  0
  197.8677  178.9081  151.3354 C   0  0  0  0  0  0  0  0  0  0  0  0
  198.2291  179.7958  150.3082 C   0  0  0  0  0  0  0  0  0  0  0  0
  198.1432  181.1857  150.5247 C   0  0  0  0  0  0  0  0  0  0  0  0
  196.8497  181.2759  154.1723 C   0  0  1  0  0  0  0  0  0  0  0  0
  197.8631  181.1427  155.2295 N   0  0  0  0  0  0  0  0  0  0  0  0
  197.6226  181.9079  156.3861 C   0  0  0  0  0  0  0  0  0  0  0  0
  196.3471  182.1380  156.7774 N   0  0  0  0  0  0  0  0  0  0  0  0
  196.1047  182.8102  157.9044 C   0  0  0  0  0  0  0  0  0  0  0  0
  197.0924  183.2732  158.6634 N   0  0  0  0  0  0  0  0  0  0  0  0
  198.3653  183.0974  158.3320 C   0  0  0  0  0  0  0  0  0  0  0  0
  198.7078  182.3591  157.1806 C   0  0  0  0  0  0  0  0  0  0  0  0
  200.0857  182.1775  156.8528 C   0  0  0  0  0  0  0  0  0  0  0  0
  201.0724  182.7237  157.7030 C   0  0  0  0  0  0  0  0  0  0  0  0
  200.7219  183.4891  158.8290 C   0  0  0  0  0  0  0  0  0  0  0  0
  199.3581  183.6661  159.1469 C   0  0  0  0  0  0  0  0  0  0  0  0
  194.7930  183.0468  158.3357 N   0  0  0  0  0  0  0  0  0  0  0  0
  194.3873  184.0874  159.2567 C   0  0  1  0  0  0  0  0  0  0  0  0
  195.2251  185.3789  159.4364 C   0  0  0  0  0  0  0  0  0  0  0  0
  195.1103  186.1258  160.6368 C   0  0  0  0  0  0  0  0  0  0  0  0
  195.9591  187.2328  160.8650 C   0  0  0  0  0  0  0  0  0  0  0  0
  196.9213  187.5958  159.8913 C   0  0  0  0  0  0  0  0  0  0  0  0
  197.7589  188.6989  160.1405 N   0  0  0  0  0  0  0  0  0  0  0  0
  198.4631  189.3912  159.0807 C   0  0  2  0  0  0  0  0  0  0  0  0
  199.5050  190.3234  159.7035 C   0  0  2  0  0  0  0  0  0  0  0  0
  197.4820  190.1666  158.1851 C   0  0  2  0  0  0  0  0  0  0  0  0
  197.0300  186.8422  158.7058 C   0  0  0  0  0  0  0  0  0  0  0  0
  196.1518  185.8019  158.4487 C   0  0  0  0  0  0  0  0  0  0  0  0
  198.2640  179.7845  155.6101 C   0  0  2  0  0  0  0  0  0  0  0  0
  195.8048  184.7852  151.6372 H   0  0  0  0  0  0  0  0  0  0  0  0
  195.3728  183.4743  152.5257 H   0  0  0  0  0  0  0  0  0  0  0  0
  197.1365  178.7166  153.3407 H   0  0  0  0  0  0  0  0  0  0  0  0
  197.9527  177.8394  151.1910 H   0  0  0  0  0  0  0  0  0  0  0  0
  198.5781  179.4088  149.3610 H   0  0  0  0  0  0  0  0  0  0  0  0
  198.4166  181.8572  149.7259 H   0  0  0  0  0  0  0  0  0  0  0  0
  196.4829  182.3004  154.1302 H   0  0  0  0  0  0  0  0  0  0  0  0
  195.9642  180.6943  154.4429 H   0  0  0  0  0  0  0  0  0  0  0  0
  200.3644  181.6235  155.9807 H   0  0  0  0  0  0  0  0  0  0  0  0
  202.1203  182.5221  157.4900 H   0  0  0  0  0  0  0  0  0  0  0  0
  201.4830  183.8988  159.4698 H   0  0  0  0  0  0  0  0  0  0  0  0
  199.0898  184.2886  159.9806 H   0  0  0  0  0  0  0  0  0  0  0  0
  194.1596  182.9449  157.5391 H   0  0  0  0  0  0  0  0  0  0  0  0
  193.3457  184.3858  159.0952 H   0  0  0  0  0  0  0  0  0  0  0  0
  194.4064  183.5183  160.1859 H   0  0  0  0  0  0  0  0  0  0  0  0
  194.4036  185.8367  161.4013 H   0  0  0  0  0  0  0  0  0  0  0  0
  195.8470  187.8117  161.7708 H   0  0  0  0  0  0  0  0  0  0  0  0
  197.7916  189.0935  161.0767 H   0  0  0  0  0  0  0  0  0  0  0  0
  199.0050  188.6657  158.4693 H   0  0  0  0  0  0  0  0  0  0  0  0
  200.0663  190.8436  158.9320 H   0  0  0  0  0  0  0  0  0  0  0  0
  200.2118  189.7590  160.3124 H   0  0  0  0  0  0  0  0  0  0  0  0
  199.0314  191.0648  160.3458 H   0  0  0  0  0  0  0  0  0  0  0  0
  198.0130  190.6902  157.3934 H   0  0  0  0  0  0  0  0  0  0  0  0
  196.9235  190.9045  158.7607 H   0  0  0  0  0  0  0  0  0  0  0  0
  196.7567  189.5021  157.7148 H   0  0  0  0  0  0  0  0  0  0  0  0
  197.8233  187.0290  157.9993 H   0  0  0  0  0  0  0  0  0  0  0  0
  196.2625  185.2216  157.5156 H   0  0  0  0  0  0  0  0  0  0  0  0
  198.9692  179.7675  156.4442 H   0  0  0  0  0  0  0  0  0  0  0  0
  198.7729  179.2898  154.7827 H   0  0  0  0  0  0  0  0  0  0  0  0
  197.3974  179.1837  155.9067 H   0  0  0  0  0  0  0  0  0  0  0  0
  196.8472  183.8160  159.5225 H   0  0  0  0  0  0  0  0  0  0  0  0
  1  2  2  0
  1  3  2  0
  1  4  1  6
  1  5  1  0
  4 36  1  0
  4 37  1  0
  5  6  1  0
  5 10  2  0
  6  7  2  0
  6 11  1  0
  7  8  1  0
  7 38  1  0
  8  9  2  0
  8 39  1  0
  9 10  1  0
  9 40  1  0
 10 41  1  0
 11 12  1  0
 11 42  1  6
 11 43  1  0
 12 13  1  0
 12 35  1  0
 13 14  2  0
 13 18  1  0
 14 15  1  0
 15 16  2  0
 15 23  1  0
 16 17  1  0
 16 66  1  0
 17 18  1  0
 17 22  2  0
 18 19  2  0
 19 20  1  0
 19 44  1  0
 20 21  2  0
 20 45  1  0
 21 22  1  0
 21 46  1  0
 22 47  1  0
 23 24  1  0
 23 48  1  0
 24 25  1  0
 24 49  1  6
 24 50  1  0
 25 26  1  0
 25 34  2  0
 26 27  2  0
 26 51  1  0
 27 28  1  0
 27 52  1  0
 28 29  1  0
 28 33  2  0
 29 30  1  0
 29 53  1  0
 30 31  1  0
 30 32  1  0
 30 54  1  6
 31 55  1  6
 31 56  1  0
 31 57  1  0
 32 58  1  6
 32 59  1  0
 32 60  1  0
 33 34  1  0
 33 61  1  0
 34 62  1  0
 35 63  1  1
 35 64  1  0
 35 65  1  0
M  CHG  1  16   1
M  END
>  <s_epik_cmdline>  (1477) 
J2VwaWtfcHl0aG9uJywgJy1waCcsICc3LjAwMDAwMCcsICctcGh0JywgJzIuMDAwMDAwJywgJy1tcycsICcxNicsICctdG4nLCAnOCcsICctbWEnLCAnMjAwJywgJy1pbWFlJywgJzxpbmZpbGUubWFlPicsICctb21hZScsICc8b3V0ZmlsZS5tYWU+Jw==

>  <s_epik_input>  (1477) 
W2NIXTFbY0hdW2NIXVtjSF1jKGMxUyg9TykoPU8pW05IMl0pW0NIMl1OKFtDSDNdKWMoYyhjMjMpW2NIXVtjSF1bY0hdW2NIXTMpbmMobjIpW05IXVtDSDJdYzRbY0hdW2NIXWMoW2NIXVtjSF00KVtOSF1bQ0hdKFtDSDNdKVtDSDNd

>  <s_i_glide_gridfile>  (1477) 
ATP-Grid

>  <s_lp_Force_Field>  (1477) 
OPLS_2005

>  <s_lp_Variant>  (1477) 
m_282030aaa____21909402____22360182____21979096-1

>  <s_lp_label>  (1477) 
958_sdstereoexpander_1_neutralizer_1_epik_1_stereoizer_1

>  <s_m_source_file>  (1477) 
ATP-VSW-LIGPREP-002-in.maegz

>  <s_sd_BIOSOLVEIT.INFINISEE\_QUERY\_NAME>  (1477) 
Ref-Lig

>  <s_sd_BIOSOLVEIT.INFINISEE\_QUERY\_SMILES>  (1477) 
S(c1nc2c(cc1C[NH2+]Cc3ccc(cc3)C[NH+](C)C)cccc2)Cc4ccccc4

>  <s_sd_BIOSOLVEIT.INFINISEE\_REACTION\_NAME>  (1477) 
m_282030aaa

>  <s_sd_BIOSOLVEIT.INFINISEE\_REAGENT1\_SMILES>  (1477) 
[R1*]N(Cc1c(S(=O)(=O)N)cccc1)C

>  <s_sd_BIOSOLVEIT.INFINISEE\_REAGENT2\_SMILES>  (1477) 
[R2*]c1nc([R1*])c2c(n1)cccc2

>  <s_sd_BIOSOLVEIT.INFINISEE\_REAGENT3\_SMILES>  (1477) 
[R2*]NCc1ccc(NC(C)C)cc1

>  <s_sd_BIOSOLVEIT.INFINISEE\_SPACE>  (1477) 
REALSpace_44bn_2023-08

>  <s_vsw_compound_code>  (1477) 
30626

>  <s_vsw_variant>  (1477) 
30626-1

>  <r_epik_Charging_Adjusted_Penalty>  (1477) 
0.15519838282513701

>  <r_epik_Ionization_Penalty>  (1477) 
0.14480000000000001

>  <r_epik_Ionization_Penalty_Charging>  (1477) 
0.0074999999999999997

>  <r_epik_Ionization_Penalty_Neutral>  (1477) 
0.13730000000000001

>  <r_epik_State_Penalty>  (1477) 
0.1477

>  <r_i_docking_score>  (1477) 
-4.0897493608392201

>  <r_i_glide_ecoul>  (1477) 
-2.7119989395141602

>  <r_i_glide_eff_state_penalty>  (1477) 
0.1477

>  <r_i_glide_einternal>  (1477) 
3.1175794601440399

>  <r_i_glide_emodel>  (1477) 
-52.331234615037701

>  <r_i_glide_energy>  (1477) 
-37.6269884109497

>  <r_i_glide_erotb>  (1477) 
0.58962600263380904

>  <r_i_glide_esite>  (1477) 
-0.26253920380387402

>  <r_i_glide_evdw>  (1477) 
-34.914989471435497

>  <r_i_glide_gscore>  (1477) 
-4.2374493608392196

>  <r_i_glide_hbond>  (1477) 
-0.41449868932360601

>  <r_i_glide_ligand_efficiency>  (1477) 
-0.116849981738263

>  <r_i_glide_ligand_efficiency_ln>  (1477) 
-0.89779075180087098

>  <r_i_glide_ligand_efficiency_sa>  (1477) 
-0.38222403815720601

>  <r_i_glide_lipo>  (1477) 
-1.94041547402847

>  <r_i_glide_metal>  (1477) 
-0

>  <r_i_glide_rewards>  (1477) 
-0.057072681818181301

>  <r_lp_Energy>  (1477) 
35.362909000000002

>  <r_qp_ACxDN^.5/SA>  (1477) 
0.020335300000000001

>  <r_qp_CIQPlogS>  (1477) 
-6.8940000000000001

>  <r_qp_EA(eV)>  (1477) 
0.76200000000000001

>  <r_qp_FISA>  (1477) 
149.04599999999999

>  <r_qp_FOSA>  (1477) 
244.06

>  <r_qp_IP(eV)>  (1477) 
8.0459999999999994

>  <r_qp_Jm>  (1477) 
0.0034492657475082501

>  <r_qp_PISA>  (1477) 
442.87799999999999

>  <r_qp_PSA>  (1477) 
108.291

>  <r_qp_PercentHumanOralAbsorption>  (1477) 
100

>  <r_qp_QPPCaco>  (1477) 
382.37799999999999

>  <r_qp_QPPMDCK>  (1477) 
175.01499999999999

>  <r_qp_QPlogBB>  (1477) 
-1.7170000000000001

>  <r_qp_QPlogHERG>  (1477) 
-7.3710000000000004

>  <r_qp_QPlogKhsa>  (1477) 
0.51700000000000002

>  <r_qp_QPlogKp>  (1477) 
-1.746

>  <r_qp_QPlogPC16>  (1477) 
17.757000000000001

>  <r_qp_QPlogPo/w>  (1477) 
4.3570000000000002

>  <r_qp_QPlogPoct>  (1477) 
28.492000000000001

>  <r_qp_QPlogPw>  (1477) 
17.782

>  <r_qp_QPlogS>  (1477) 
-6.407

>  <r_qp_QPpolrz>  (1477) 
53.069000000000003

>  <r_qp_SASA>  (1477) 
835.98400000000004

>  <r_qp_SAamideO>  (1477) 
0

>  <r_qp_SAfluorine>  (1477) 
0

>  <r_qp_WPSA>  (1477) 
0

>  <r_qp_accptHB>  (1477) 
8.5

>  <r_qp_dip^2/V>  (1477) 
0.0171562

>  <r_qp_dipole>  (1477) 
5.1310000000000002

>  <r_qp_donorHB>  (1477) 
4

>  <r_qp_glob>  (1477) 
0.7696518

>  <r_qp_mol_MW>  (1477) 
490.62200000000001

>  <r_qp_volume>  (1477) 
1534.585

>  <r_sd_BIOSOLVEIT.INFINISEE\_FTREES\_SIMILARITY>  (1477) 
0.91700000000000004

>  <r_sd_BIOSOLVEIT.LOGP>  (1477) 
4.9965999999999999

>  <r_sd_BIOSOLVEIT.MOLECULAR\_WEIGHT>  (1477) 
490.62799999999999

>  <r_sd_BIOSOLVEIT.TPSA>  (1477) 
113.23999999999999

>  <i_epik_Tot_Q>  (1477) 
1

>  <i_epik_Tot_abs_Q>  (1477) 
1

>  <i_f3d_flags>  (1477) 
0

>  <i_i_glide_confnum>  (1477) 
8

>  <i_i_glide_lignum>  (1477) 
297

>  <i_i_glide_posenum>  (1477) 
10

>  <i_i_glide_rotatable_bonds>  (1477) 
9

>  <i_lp_mmshare_version>  (1477) 
65135

>  <i_m_ct_format>  (1477) 
2

>  <i_m_source_file_index>  (1477) 
958

>  <i_qp_#NandO>  (1477) 
8

>  <i_qp_#acid>  (1477) 
0

>  <i_qp_#amide>  (1477) 
0

>  <i_qp_#amidine>  (1477) 
0

>  <i_qp_#amine>  (1477) 
0

>  <i_qp_#in34>  (1477) 
0

>  <i_qp_#in56>  (1477) 
22

>  <i_qp_#metab>  (1477) 
4

>  <i_qp_#nonHatm>  (1477) 
35

>  <i_qp_#noncon>  (1477) 
0

>  <i_qp_#ringatoms>  (1477) 
22

>  <i_qp_#rotor>  (1477) 
10

>  <i_qp_#rtvFG>  (1477) 
0

>  <i_qp_#stars>  (1477) 
0

>  <i_qp_CNS>  (1477) 
-2

>  <i_qp_HumanOralAbsorption>  (1477) 
1

>  <i_qp_RuleOfFive>  (1477) 
0

>  <i_qp_RuleOfThree>  (1477) 
1

>  <i_sd_BIOSOLVEIT.INFINISEE\_REAGENT1\_NAME>  (1477) 
21909402

>  <i_sd_BIOSOLVEIT.INFINISEE\_REAGENT2\_NAME>  (1477) 
22360182

>  <i_sd_BIOSOLVEIT.INFINISEE\_REAGENT3\_NAME>  (1477) 
21979096

>  <i_sd_BIOSOLVEIT.INFINISEE\_RESULT\_RANK>  (1477) 
23045

>  <i_sd_version>  (1477) 
0

>  <b_lp_Chiralities_Consistent>  (1477) 
1

>  <b_sd_chiral_flag>  (1477) 
0

>  <canonical_id>  (1477) 
ATP-HTVS-E7DA22DA6C24

>  <compound_code>  (1477) 
30626

>  <title>  (1477) 
m_282030aaa____21909402____22360182____21979096

>  <variant>  (1477) 
30626-1

>  <source_file>  (1477) 
运行/运行/ATP-VSW/ATP-VSW-DOCK_HTVS_1-002_lib.maegz

>  <canonical_smiles>  (1477) 
CC(C)Nc1ccc(CNc2nc(N(C)Cc3ccccc3S(N)(=O)=O)c3ccccc3[nH+]2)cc1

>  <scaffold>  (1477) 
c1ccc(CNc2nc(NCc3ccccc3)c3ccccc3[nH+]2)cc1

>  <molecular_formula>  (1477) 
C26H31N6O2S+

$$$$
ATP-HTVS-E80053830AA7
     RDKit          3D

 52 54  0  0  0  0  0  0  0  0999 V2000
  198.4749  185.6174  159.7286 O   0  0  0  0  0  0  0  0  0  0  0  0
  198.6200  186.5160  158.6574 N   0  0  0  0  0  0  0  0  0  0  0  0
  197.7009  187.4297  158.6591 C   0  0  0  0  0  0  0  0  0  0  0  0
  197.6306  188.4698  157.7607 N   0  0  0  0  0  0  0  0  0  0  0  0
  196.6064  187.4323  159.6531 C   0  0  0  0  0  0  0  0  0  0  0  0
  196.3771  188.4901  160.5313 N   0  0  0  0  0  0  0  0  0  0  0  0
  195.3655  188.2027  161.2810 N   0  0  0  0  0  0  0  0  0  0  0  0
  194.9155  186.9779  160.9144 N   0  0  0  0  0  0  0  0  0  0  0  0
  195.6831  186.4556  159.8989 C   0  0  0  0  0  0  0  0  0  0  0  0
  193.7801  186.3680  161.5867 C   0  0  1  0  0  0  0  0  0  0  0  0
  192.6939  187.3676  161.9498 C   0  0  0  0  0  0  0  0  0  0  0  0
  191.6136  187.5987  161.0745 C   0  0  0  0  0  0  0  0  0  0  0  0
  190.6498  188.5765  161.3867 C   0  0  0  0  0  0  0  0  0  0  0  0
  190.7478  189.3143  162.5811 C   0  0  0  0  0  0  0  0  0  0  0  0
  191.8150  189.0759  163.4671 C   0  0  0  0  0  0  0  0  0  0  0  0
  192.7785  188.0983  163.1519 C   0  0  0  0  0  0  0  0  0  0  0  0
  199.3861  184.5483  159.5318 C   0  0  1  0  0  0  0  0  0  0  0  0
  198.9563  183.6472  158.3927 C   0  0  0  0  0  0  0  0  0  0  0  0
  197.5821  183.4229  158.1798 C   0  0  0  0  0  0  0  0  0  0  0  0
  197.1482  182.5377  157.1752 C   0  0  0  0  0  0  0  0  0  0  0  0
  198.1018  181.9178  156.3383 C   0  0  0  0  0  0  0  0  0  0  0  0
  199.4810  182.1432  156.5507 C   0  0  0  0  0  0  0  0  0  0  0  0
  199.9088  182.9978  157.5852 C   0  0  0  0  0  0  0  0  0  0  0  0
  195.6570  182.2712  156.9958 C   0  0  1  0  0  0  0  0  0  0  0  0
  195.0239  181.4365  158.0420 N   0  0  1  0  0  0  0  0  0  0  0  0
  195.4962  181.6997  159.4053 C   0  0  2  0  0  0  0  0  0  0  0  0
  193.5449  181.4293  157.9982 C   0  0  2  0  0  0  0  0  0  0  0  0
  198.3137  188.6050  157.0315 H   0  0  0  0  0  0  0  0  0  0  0  0
  196.9354  189.2045  157.8063 H   0  0  0  0  0  0  0  0  0  0  0  0
  195.5126  185.4881  159.4492 H   0  0  0  0  0  0  0  0  0  0  0  0
  193.3623  185.5920  160.9415 H   0  0  0  0  0  0  0  0  0  0  0  0
  194.1410  185.8822  162.4918 H   0  0  0  0  0  0  0  0  0  0  0  0
  191.5433  187.0560  160.1430 H   0  0  0  0  0  0  0  0  0  0  0  0
  189.8423  188.7709  160.6983 H   0  0  0  0  0  0  0  0  0  0  0  0
  190.0058  190.0654  162.8124 H   0  0  0  0  0  0  0  0  0  0  0  0
  191.9072  189.6521  164.3765 H   0  0  0  0  0  0  0  0  0  0  0  0
  193.6080  187.9344  163.8161 H   0  0  0  0  0  0  0  0  0  0  0  0
  200.3899  184.9383  159.3696 H   0  0  0  0  0  0  0  0  0  0  0  0
  199.4420  183.9306  160.4299 H   0  0  0  0  0  0  0  0  0  0  0  0
  196.8718  183.9480  158.7986 H   0  0  0  0  0  0  0  0  0  0  0  0
  197.7868  181.2445  155.5518 H   0  0  0  0  0  0  0  0  0  0  0  0
  200.2113  181.6600  155.9229 H   0  0  0  0  0  0  0  0  0  0  0  0
  200.9646  183.1547  157.7724 H   0  0  0  0  0  0  0  0  0  0  0  0
  195.1594  183.2475  156.9532 H   0  0  0  0  0  0  0  0  0  0  0  0
  195.5480  181.8003  156.0150 H   0  0  0  0  0  0  0  0  0  0  0  0
  195.2504  182.7153  159.7151 H   0  0  0  0  0  0  0  0  0  0  0  0
  196.5707  181.5629  159.4463 H   0  0  0  0  0  0  0  0  0  0  0  0
  195.0454  181.0179  160.1220 H   0  0  0  0  0  0  0  0  0  0  0  0
  193.1567  182.4393  158.1281 H   0  0  0  0  0  0  0  0  0  0  0  0
  193.1409  180.8156  158.8010 H   0  0  0  0  0  0  0  0  0  0  0  0
  193.1637  181.0366  157.0583 H   0  0  0  0  0  0  0  0  0  0  0  0
  195.3231  180.4379  157.8613 H   0  0  0  0  0  0  0  0  0  0  0  0
  1  2  1  0
  1 17  1  0
  2  3  2  0
  3  4  1  0
  3  5  1  0
  4 28  1  0
  4 29  1  0
  5  6  1  0
  5  9  2  0
  6  7  2  0
  7  8  1  0
  8  9  1  0
  8 10  1  0
  9 30  1  0
 10 11  1  0
 10 31  1  6
 10 32  1  0
 11 12  2  0
 11 16  1  0
 12 13  1  0
 12 33  1  0
 13 14  2  0
 13 34  1  0
 14 15  1  0
 14 35  1  0
 15 16  2  0
 15 36  1  0
 16 37  1  0
 17 18  1  0
 17 38  1  6
 17 39  1  0
 18 19  2  0
 18 23  1  0
 19 20  1  0
 19 40  1  0
 20 21  2  0
 20 24  1  0
 21 22  1  0
 21 41  1  0
 22 23  2  0
 22 42  1  0
 23 43  1  0
 24 25  1  0
 24 44  1  6
 24 45  1  0
 25 26  1  0
 25 27  1  0
 25 52  1  6
 26 46  1  1
 26 47  1  0
 26 48  1  0
 27 49  1  1
 27 50  1  0
 27 51  1  0
M  CHG  1  25   1
M  END
>  <s_epik_Chemistry_Notes>  (1478) 
This compound has an imine and may undergo hydrolysis.

>  <s_epik_cmdline>  (1478) 
J2VwaWtfcHl0aG9uJywgJy1waCcsICc3LjAwMDAwMCcsICctcGh0JywgJzIuMDAwMDAwJywgJy1tcycsICcxNicsICctdG4nLCAnOCcsICctbWEnLCAnMjAwJywgJy1pbWFlJywgJzxpbmZpbGUubWFlPicsICctb21hZScsICc8b3V0ZmlsZS5tYWU+Jw==

>  <s_epik_input>  (1478) 
W2NIXTFbY0hdW2NIXWMoW0NIMl1OKFtDSDNdKVtDSDNdKVtjSF1jMVtDSDJdTy9OPUMoL1tOSDJdKWMybm5uKFtjSF0yKVtDSDJdYzNbY0hdW2NIXVtjSF1bY0hdW2NIXTM=

>  <s_i_glide_gridfile>  (1478) 
ATP-Grid

>  <s_lp_Force_Field>  (1478) 
OPLS_2005

>  <s_lp_Variant>  (1478) 
m_34bea____10269714____18339488-1

>  <s_lp_label>  (1478) 
1603_sdstereoexpander_1_neutralizer_1_epik_1_stereoizer_1

>  <s_m_source_file>  (1478) 
ATP-VSW-LIGPREP-003-in.maegz

>  <s_sd_BIOSOLVEIT.INFINISEE\_QUERY\_NAME>  (1478) 
Ref-Lig

>  <s_sd_BIOSOLVEIT.INFINISEE\_QUERY\_SMILES>  (1478) 
S(c1nc2c(cc1C[NH2+]Cc3ccc(cc3)C[NH+](C)C)cccc2)Cc4ccccc4

>  <s_sd_BIOSOLVEIT.INFINISEE\_REACTION\_NAME>  (1478) 
m_34bea

>  <s_sd_BIOSOLVEIT.INFINISEE\_REAGENT1\_SMILES>  (1478) 
[R1*]ON=C(N)C=1N=NN(C1)Cc2ccccc2

>  <s_sd_BIOSOLVEIT.INFINISEE\_REAGENT2\_SMILES>  (1478) 
[R1*]Cc1cc(ccc1)CN(C)C

>  <s_sd_BIOSOLVEIT.INFINISEE\_SPACE>  (1478) 
REALSpace_44bn_2023-08

>  <s_vsw_compound_code>  (1478) 
51267

>  <s_vsw_variant>  (1478) 
51267-1

>  <r_epik_Charging_Adjusted_Penalty>  (1478) 
0.091200281150559503

>  <r_epik_Ionization_Penalty>  (1478) 
0.046699999999999998

>  <r_epik_Ionization_Penalty_Charging>  (1478) 
0.045600000000000002

>  <r_epik_Ionization_Penalty_Neutral>  (1478) 
0.0011000000000000001

>  <r_epik_State_Penalty>  (1478) 
0.045600000000000002

>  <r_i_docking_score>  (1478) 
-5.7167649192954499

>  <r_i_glide_ecoul>  (1478) 
-11.6442861557007

>  <r_i_glide_eff_state_penalty>  (1478) 
0.045600000000000002

>  <r_i_glide_einternal>  (1478) 
6.2362093925476101

>  <r_i_glide_emodel>  (1478) 
-56.532876308910303

>  <r_i_glide_energy>  (1478) 
-39.712349891662598

>  <r_i_glide_erotb>  (1478) 
1.0082278008496

>  <r_i_glide_esite>  (1478) 
-0.10000000000000001

>  <r_i_glide_evdw>  (1478) 
-28.0680637359619

>  <r_i_glide_gscore>  (1478) 
-5.7623649192954502

>  <r_i_glide_hbond>  (1478) 
-0.11179398500894799

>  <r_i_glide_ligand_efficiency>  (1478) 
-0.21173203404797999

>  <r_i_glide_ligand_efficiency_ln>  (1478) 
-1.3307686249763899

>  <r_i_glide_ligand_efficiency_sa>  (1478) 
-0.63519610144610505

>  <r_i_glide_lipo>  (1478) 
-1.8383221018751901

>  <r_i_glide_metal>  (1478) 
-0

>  <r_i_glide_rewards>  (1478) 
-1.57043052310772

>  <r_lp_Energy>  (1478) 
18.143204999999998

>  <r_qp_ACxDN^.5/SA>  (1478) 
0.0161

>  <r_qp_CIQPlogS>  (1478) 
-3.5329999999999999

>  <r_qp_EA(eV)>  (1478) 
0.48899999999999999

>  <r_qp_FISA>  (1478) 
100.887

>  <r_qp_FOSA>  (1478) 
225.92500000000001

>  <r_qp_IP(eV)>  (1478) 
8.5649999999999995

>  <r_qp_Jm>  (1478) 
0.22409898876357501

>  <r_qp_PISA>  (1478) 
349.55099999999999

>  <r_qp_PSA>  (1478) 
81.462999999999994

>  <r_qp_PercentHumanOralAbsorption>  (1478) 
87.341999999999999

>  <r_qp_QPPCaco>  (1478) 
272.95299999999997

>  <r_qp_QPPMDCK>  (1478) 
134.49600000000001

>  <r_qp_QPlogBB>  (1478) 
-0.63900000000000001

>  <r_qp_QPlogHERG>  (1478) 
-6.8239999999999998

>  <r_qp_QPlogKhsa>  (1478) 
0.033000000000000002

>  <r_qp_QPlogKp>  (1478) 
-3.25

>  <r_qp_QPlogPC16>  (1478) 
13.278

>  <r_qp_QPlogPo/w>  (1478) 
2.8679999999999999

>  <r_qp_QPlogPoct>  (1478) 
21.053000000000001

>  <r_qp_QPlogPw>  (1478) 
12.718

>  <r_qp_QPlogS>  (1478) 
-2.9609999999999999

>  <r_qp_QPpolrz>  (1478) 
39.988999999999997

>  <r_qp_SASA>  (1478) 
676.36300000000006

>  <r_qp_SAamideO>  (1478) 
0

>  <r_qp_SAfluorine>  (1478) 
0

>  <r_qp_WPSA>  (1478) 
0

>  <r_qp_accptHB>  (1478) 
7.7000000000000002

>  <r_qp_dip^2/V>  (1478) 
0.070822099999999999

>  <r_qp_dipole>  (1478) 
9.3330000000000002

>  <r_qp_donorHB>  (1478) 
2

>  <r_qp_glob>  (1478) 
0.82085249999999998

>  <r_qp_mol_MW>  (1478) 
364.44900000000001

>  <r_qp_volume>  (1478) 
1230.0419999999999

>  <r_sd_BIOSOLVEIT.INFINISEE\_FTREES\_SIMILARITY>  (1478) 
0.90600000000000003

>  <r_sd_BIOSOLVEIT.LOGP>  (1478) 
0.80800000000000005

>  <r_sd_BIOSOLVEIT.MOLECULAR\_WEIGHT>  (1478) 
365.459

>  <r_sd_BIOSOLVEIT.TPSA>  (1478) 
82.760000000000005

>  <i_epik_Tot_Q>  (1478) 
1

>  <i_epik_Tot_abs_Q>  (1478) 
1

>  <i_f3d_flags>  (1478) 
0

>  <i_i_glide_confnum>  (1478) 
8

>  <i_i_glide_lignum>  (1478) 
608

>  <i_i_glide_posenum>  (1478) 
17

>  <i_i_glide_rotatable_bonds>  (1478) 
8

>  <i_lp_mmshare_version>  (1478) 
65135

>  <i_m_ct_format>  (1478) 
2

>  <i_m_source_file_index>  (1478) 
1603

>  <i_qp_#NandO>  (1478) 
7

>  <i_qp_#acid>  (1478) 
0

>  <i_qp_#amide>  (1478) 
0

>  <i_qp_#amidine>  (1478) 
0

>  <i_qp_#amine>  (1478) 
1

>  <i_qp_#in34>  (1478) 
0

>  <i_qp_#in56>  (1478) 
17

>  <i_qp_#metab>  (1478) 
4

>  <i_qp_#nonHatm>  (1478) 
27

>  <i_qp_#noncon>  (1478) 
0

>  <i_qp_#ringatoms>  (1478) 
17

>  <i_qp_#rotor>  (1478) 
10

>  <i_qp_#rtvFG>  (1478) 
0

>  <i_qp_#stars>  (1478) 
0

>  <i_qp_CNS>  (1478) 
1

>  <i_qp_HumanOralAbsorption>  (1478) 
3

>  <i_qp_RuleOfFive>  (1478) 
0

>  <i_qp_RuleOfThree>  (1478) 
0

>  <i_sd_BIOSOLVEIT.INFINISEE\_REAGENT1\_NAME>  (1478) 
10269714

>  <i_sd_BIOSOLVEIT.INFINISEE\_REAGENT2\_NAME>  (1478) 
18339488

>  <i_sd_BIOSOLVEIT.INFINISEE\_RESULT\_RANK>  (1478) 
66060

>  <i_sd_version>  (1478) 
0

>  <b_lp_Chiralities_Consistent>  (1478) 
1

>  <b_sd_chiral_flag>  (1478) 
0

>  <canonical_id>  (1478) 
ATP-HTVS-E80053830AA7

>  <compound_code>  (1478) 
51267

>  <title>  (1478) 
m_34bea____10269714____18339488

>  <variant>  (1478) 
51267-1

>  <source_file>  (1478) 
运行/运行/ATP-VSW/ATP-VSW-DOCK_HTVS_1-003_lib/ATP-VSW-DOCK_HTVS_1-003_lib.mae

>  <canonical_smiles>  (1478) 
C[NH+](C)Cc1cccc(CO/N=C(/N)c2cn(Cc3ccccc3)nn2)c1

>  <scaffold>  (1478) 
C(=NOCc1ccccc1)c1cn(Cc2ccccc2)nn1

>  <molecular_formula>  (1478) 
C20H25N6O+

$$$$
ATP-HTVS-E80A62EE0257
     RDKit          3D

 62 65  0  0  0  0  0  0  0  0999 V2000
  197.4592  186.3569  156.6704 N   0  0  0  0  0  0  0  0  0  0  0  0
  197.9917  185.5966  155.6702 N   0  0  0  0  0  0  0  0  0  0  0  0
  198.5131  186.1778  154.4877 C   0  0  0  0  0  0  0  0  0  0  0  0
  198.4358  185.4624  153.2596 C   0  0  0  0  0  0  0  0  0  0  0  0
  198.9772  186.0369  152.0853 C   0  0  0  0  0  0  0  0  0  0  0  0
  199.5956  187.2950  152.1420 C   0  0  0  0  0  0  0  0  0  0  0  0
  199.6936  187.9823  153.3710 C   0  0  0  0  0  0  0  0  0  0  0  0
  199.1521  187.4094  154.5400 C   0  0  0  0  0  0  0  0  0  0  0  0
  197.9698  184.2646  155.9729 C   0  0  0  0  0  0  0  0  0  0  0  0
  197.2726  184.1075  157.1603 C   0  0  0  0  0  0  0  0  0  0  0  0
  197.0395  185.4690  157.5677 C   0  0  0  0  0  0  0  0  0  0  0  0
  196.4189  185.9855  158.7944 C   0  0  0  0  0  0  0  0  0  0  0  0
  196.9479  187.1471  159.4036 C   0  0  0  0  0  0  0  0  0  0  0  0
  196.3462  187.6824  160.5598 C   0  0  0  0  0  0  0  0  0  0  0  0
  195.2310  187.0454  161.1328 C   0  0  0  0  0  0  0  0  0  0  0  0
  194.7010  185.8874  160.5314 C   0  0  0  0  0  0  0  0  0  0  0  0
  195.2843  185.3672  159.3671 C   0  0  0  0  0  0  0  0  0  0  0  0
  196.8877  182.7950  157.8713 C   0  0  1  0  0  0  0  0  0  0  0  0
  196.2123  181.8097  156.9870 N   0  0  1  0  0  0  0  0  0  0  0  0
  197.1106  181.2937  155.9081 C   0  0  1  0  0  0  0  0  0  0  0  0
  196.3553  180.3104  155.0040 C   0  0  1  0  0  0  0  0  0  0  0  0
  197.2833  179.8116  153.9244 C   0  0  0  0  0  0  0  0  0  0  0  0
  196.9844  180.0065  152.5547 C   0  0  0  0  0  0  0  0  0  0  0  0
  197.8661  179.5403  151.5700 C   0  0  0  0  0  0  0  0  0  0  0  0
  199.0406  178.8269  151.9191 C   0  0  0  0  0  0  0  0  0  0  0  0
  199.3504  178.6508  153.2852 C   0  0  0  0  0  0  0  0  0  0  0  0
  198.4850  179.1481  154.2747 C   0  0  0  0  0  0  0  0  0  0  0  0
  199.9564  178.2544  150.8443 C   0  0  1  0  0  0  0  0  0  0  0  0
  199.4458  177.0545  150.1662 N   0  0  0  0  0  0  0  0  0  0  0  0
  200.4688  176.5080  149.2818 C   0  0  2  0  0  0  0  0  0  0  0  0
  198.2816  177.3555  149.3385 C   0  0  2  0  0  0  0  0  0  0  0  0
  195.9003  181.0157  157.5423 H   0  0  0  0  0  0  0  0  0  0  0  0
  197.9595  184.4978  153.1826 H   0  0  0  0  0  0  0  0  0  0  0  0
  198.9058  185.5169  151.1344 H   0  0  0  0  0  0  0  0  0  0  0  0
  200.0085  187.7452  151.2529 H   0  0  0  0  0  0  0  0  0  0  0  0
  200.1695  188.9487  153.4262 H   0  0  0  0  0  0  0  0  0  0  0  0
  199.2306  187.9278  155.4876 H   0  0  0  0  0  0  0  0  0  0  0  0
  198.4128  183.5570  155.3013 H   0  0  0  0  0  0  0  0  0  0  0  0
  197.8074  187.6439  158.9721 H   0  0  0  0  0  0  0  0  0  0  0  0
  196.7511  188.5819  161.0039 H   0  0  0  0  0  0  0  0  0  0  0  0
  194.7620  187.4626  162.0082 H   0  0  0  0  0  0  0  0  0  0  0  0
  193.8157  185.4165  160.9337 H   0  0  0  0  0  0  0  0  0  0  0  0
  194.8027  184.5241  158.8932 H   0  0  0  0  0  0  0  0  0  0  0  0
  197.7469  182.3451  158.3735 H   0  0  0  0  0  0  0  0  0  0  0  0
  196.1927  182.9434  158.6931 H   0  0  0  0  0  0  0  0  0  0  0  0
  197.4201  182.0248  155.2370 H   0  0  0  0  0  0  0  0  0  0  0  0
  197.9644  180.7822  156.4136 H   0  0  0  0  0  0  0  0  0  0  0  0
  195.9529  179.4487  155.5307 H   0  0  0  0  0  0  0  0  0  0  0  0
  195.5613  180.9093  154.5460 H   0  0  0  0  0  0  0  0  0  0  0  0
  196.0671  180.4966  152.2469 H   0  0  0  0  0  0  0  0  0  0  0  0
  197.6193  179.7133  150.5357 H   0  0  0  0  0  0  0  0  0  0  0  0
  200.2449  178.1192  153.5847 H   0  0  0  0  0  0  0  0  0  0  0  0
  198.7338  178.9997  155.3150 H   0  0  0  0  0  0  0  0  0  0  0  0
  200.1729  179.0387  150.1139 H   0  0  0  0  0  0  0  0  0  0  0  0
  200.9122  178.0135  151.3132 H   0  0  0  0  0  0  0  0  0  0  0  0
  200.0859  175.6219  148.7730 H   0  0  0  0  0  0  0  0  0  0  0  0
  201.3616  176.2093  149.8344 H   0  0  0  0  0  0  0  0  0  0  0  0
  200.7611  177.2305  148.5160 H   0  0  0  0  0  0  0  0  0  0  0  0
  197.9299  176.4774  148.7851 H   0  0  0  0  0  0  0  0  0  0  0  0
  198.5152  178.1569  148.6337 H   0  0  0  0  0  0  0  0  0  0  0  0
  197.4406  177.6674  149.9578 H   0  0  0  0  0  0  0  0  0  0  0  0
  195.3822  182.2224  156.5689 H   0  0  0  0  0  0  0  0  0  0  0  0
  1  2  1  0
  1 11  2  0
  2  3  1  0
  2  9  1  0
  3  4  2  0
  3  8  1  0
  4  5  1  0
  4 33  1  0
  5  6  2  0
  5 34  1  0
  6  7  1  0
  6 35  1  0
  7  8  2  0
  7 36  1  0
  8 37  1  0
  9 10  2  0
  9 38  1  0
 10 11  1  0
 10 18  1  0
 11 12  1  0
 12 13  2  0
 12 17  1  0
 13 14  1  0
 13 39  1  0
 14 15  2  0
 14 40  1  0
 15 16  1  0
 15 41  1  0
 16 17  2  0
 16 42  1  0
 17 43  1  0
 18 19  1  0
 18 44  1  1
 18 45  1  0
 19 20  1  0
 19 32  1  1
 19 62  1  0
 20 21  1  0
 20 46  1  6
 20 47  1  0
 21 22  1  0
 21 48  1  1
 21 49  1  0
 22 23  1  0
 22 27  2  0
 23 24  2  0
 23 50  1  0
 24 25  1  0
 24 51  1  0
 25 26  2  0
 25 28  1  0
 26 27  1  0
 26 52  1  0
 27 53  1  0
 28 29  1  0
 28 54  1  6
 28 55  1  0
 29 30  1  0
 29 31  1  0
 30 56  1  6
 30 57  1  0
 30 58  1  0
 31 59  1  6
 31 60  1  0
 31 61  1  0
M  CHG  1  19   1
M  END
>  <s_epik_cmdline>  (1479) 
J2VwaWtfcHl0aG9uJywgJy1waCcsICc3LjAwMDAwMCcsICctcGh0JywgJzIuMDAwMDAwJywgJy1tcycsICcxNicsICctdG4nLCAnOCcsICctbWEnLCAnMjAwJywgJy1pbWFlJywgJzxpbmZpbGUubWFlPicsICctb21hZScsICc8b3V0ZmlsZS5tYWU+Jw==

>  <s_epik_input>  (1479) 
W2NIXTFbY0hdW2NIXVtjSF1bY0hdYzEtbjJuYygtYzNbY0hdW2NIXVtjSF1bY0hdW2NIXTMpYyhbY0hdMilbQ0gyXVtOSF1bQ0gyXVtDSDJdYzRbY0hdW2NIXWMoW2NIXVtjSF00KVtDSDJdTihbQ0gzXSlbQ0gzXQ==

>  <s_i_glide_gridfile>  (1479) 
ATP-Grid

>  <s_lp_Force_Field>  (1479) 
OPLS_2005

>  <s_lp_Variant>  (1479) 
m_270004bbb____15775648____7547684-2

>  <s_lp_label>  (1479) 
710_sdstereoexpander_1_neutralizer_1_epik_2_stereoizer_1

>  <s_m_source_file>  (1479) 
ATP-VSW-LIGPREP-002-in.maegz

>  <s_sd_BIOSOLVEIT.INFINISEE\_QUERY\_NAME>  (1479) 
Ref-Lig

>  <s_sd_BIOSOLVEIT.INFINISEE\_QUERY\_SMILES>  (1479) 
S(c1nc2c(cc1C[NH2+]Cc3ccc(cc3)C[NH+](C)C)cccc2)Cc4ccccc4

>  <s_sd_BIOSOLVEIT.INFINISEE\_REACTION\_NAME>  (1479) 
m_270004bbb

>  <s_sd_BIOSOLVEIT.INFINISEE\_REAGENT1\_SMILES>  (1479) 
[R1*]NCCc1ccc(cc1)CN(C)C

>  <s_sd_BIOSOLVEIT.INFINISEE\_REAGENT2\_SMILES>  (1479) 
[R1*]CC=1C(=NN(c2ccccc2)C1)c3ccccc3

>  <s_sd_BIOSOLVEIT.INFINISEE\_SPACE>  (1479) 
REALSpace_44bn_2023-08

>  <s_vsw_compound_code>  (1479) 
22690

>  <s_vsw_variant>  (1479) 
22690-2

>  <r_epik_Charging_Adjusted_Penalty>  (1479) 
1.5366075603790701

>  <r_epik_Ionization_Penalty>  (1479) 
1.5099

>  <r_epik_Ionization_Penalty_Charging>  (1479) 
0.0048999999999999998

>  <r_epik_Ionization_Penalty_Neutral>  (1479) 
1.5048999999999999

>  <r_epik_State_Penalty>  (1479) 
1.5317000000000001

>  <r_i_docking_score>  (1479) 
-3.6153494182696702

>  <r_i_glide_ecoul>  (1479) 
-9.0502958297729492

>  <r_i_glide_eff_state_penalty>  (1479) 
1.5317000000000001

>  <r_i_glide_einternal>  (1479) 
3.8535270690918

>  <r_i_glide_emodel>  (1479) 
-58.8188812008407

>  <r_i_glide_energy>  (1479) 
-41.004267692565897

>  <r_i_glide_erotb>  (1479) 
0.93094244198405296

>  <r_i_glide_esite>  (1479) 
-0.10000000000000001

>  <r_i_glide_evdw>  (1479) 
-31.953971862793001

>  <r_i_glide_gscore>  (1479) 
-5.1470494182696704

>  <r_i_glide_hbond>  (1479) 
-0.36832945896486602

>  <r_i_glide_ligand_efficiency>  (1479) 
-0.116624174782893

>  <r_i_glide_ligand_efficiency_ln>  (1479) 
-0.81537209097324503

>  <r_i_glide_ligand_efficiency_sa>  (1479) 
-0.36636092584473101

>  <r_i_glide_lipo>  (1479) 
-1.7751762791335499

>  <r_i_glide_metal>  (1479) 
-0

>  <r_i_glide_rewards>  (1479) 
-0.87924315454971302

>  <r_lp_Energy>  (1479) 
19.163235

>  <r_lp_tautomer_probability>  (1479) 
1

>  <r_qp_ACxDN^.5/SA>  (1479) 
0.0071634999999999997

>  <r_qp_CIQPlogS>  (1479) 
-5.0499999999999998

>  <r_qp_EA(eV)>  (1479) 
0.46300000000000002

>  <r_qp_FISA>  (1479) 
14.016999999999999

>  <r_qp_FOSA>  (1479) 
234.11500000000001

>  <r_qp_IP(eV)>  (1479) 
8.6319999999999997

>  <r_qp_Jm>  (1479) 
0.16606847800572

>  <r_qp_PISA>  (1479) 
380.05000000000001

>  <r_qp_PSA>  (1479) 
25.518000000000001

>  <r_qp_PercentHumanOralAbsorption>  (1479) 
100

>  <r_qp_QPPCaco>  (1479) 
453.70499999999998

>  <r_qp_QPPMDCK>  (1479) 
257.70499999999998

>  <r_qp_QPlogBB>  (1479) 
0.82499999999999996

>  <r_qp_QPlogHERG>  (1479) 
-6.2889999999999997

>  <r_qp_QPlogKhsa>  (1479) 
0.95999999999999996

>  <r_qp_QPlogKp>  (1479) 
-3.8919999999999999

>  <r_qp_QPlogPC16>  (1479) 
13.173999999999999

>  <r_qp_QPlogPo/w>  (1479) 
4.7690000000000001

>  <r_qp_QPlogPoct>  (1479) 
18.498999999999999

>  <r_qp_QPlogPw>  (1479) 
8.2639999999999993

>  <r_qp_QPlogS>  (1479) 
-2.5009999999999999

>  <r_qp_QPpolrz>  (1479) 
44.223999999999997

>  <r_qp_SASA>  (1479) 
628.18299999999999

>  <r_qp_SAamideO>  (1479) 
0

>  <r_qp_SAfluorine>  (1479) 
0

>  <r_qp_WPSA>  (1479) 
0

>  <r_qp_accptHB>  (1479) 
4.5

>  <r_qp_dip^2/V>  (1479) 
0.0035233

>  <r_qp_dipole>  (1479) 
2.1240000000000001

>  <r_qp_donorHB>  (1479) 
1

>  <r_qp_glob>  (1479) 
0.90778650000000005

>  <r_qp_mol_MW>  (1479) 
410.56099999999998

>  <r_qp_volume>  (1479) 
1280.433

>  <r_sd_BIOSOLVEIT.INFINISEE\_FTREES\_SIMILARITY>  (1479) 
0.93000000000000005

>  <r_sd_BIOSOLVEIT.LOGP>  (1479) 
2.4899

>  <r_sd_BIOSOLVEIT.MOLECULAR\_WEIGHT>  (1479) 
412.57799999999997

>  <r_sd_BIOSOLVEIT.TPSA>  (1479) 
38.869999999999997

>  <i_epik_Tot_Q>  (1479) 
1

>  <i_epik_Tot_abs_Q>  (1479) 
1

>  <i_f3d_flags>  (1479) 
0

>  <i_i_glide_confnum>  (1479) 
5

>  <i_i_glide_lignum>  (1479) 
211

>  <i_i_glide_posenum>  (1479) 
17

>  <i_i_glide_rotatable_bonds>  (1479) 
9

>  <i_lp_mmshare_version>  (1479) 
65135

>  <i_m_ct_format>  (1479) 
2

>  <i_m_source_file_index>  (1479) 
710

>  <i_qp_#NandO>  (1479) 
4

>  <i_qp_#acid>  (1479) 
0

>  <i_qp_#amide>  (1479) 
0

>  <i_qp_#amidine>  (1479) 
0

>  <i_qp_#amine>  (1479) 
2

>  <i_qp_#in34>  (1479) 
0

>  <i_qp_#in56>  (1479) 
23

>  <i_qp_#metab>  (1479) 
5

>  <i_qp_#nonHatm>  (1479) 
31

>  <i_qp_#noncon>  (1479) 
0

>  <i_qp_#ringatoms>  (1479) 
23

>  <i_qp_#rotor>  (1479) 
7

>  <i_qp_#rtvFG>  (1479) 
0

>  <i_qp_#stars>  (1479) 
0

>  <i_qp_CNS>  (1479) 
2

>  <i_qp_HumanOralAbsorption>  (1479) 
3

>  <i_qp_RuleOfFive>  (1479) 
0

>  <i_qp_RuleOfThree>  (1479) 
0

>  <i_sd_BIOSOLVEIT.INFINISEE\_REAGENT1\_NAME>  (1479) 
15775648

>  <i_sd_BIOSOLVEIT.INFINISEE\_REAGENT2\_NAME>  (1479) 
7547684

>  <i_sd_BIOSOLVEIT.INFINISEE\_RESULT\_RANK>  (1479) 
5008

>  <i_sd_version>  (1479) 
0

>  <b_lp_Chiralities_Consistent>  (1479) 
1

>  <b_sd_chiral_flag>  (1479) 
0

>  <canonical_id>  (1479) 
ATP-HTVS-E80A62EE0257

>  <compound_code>  (1479) 
22690

>  <title>  (1479) 
m_270004bbb____15775648____7547684

>  <variant>  (1479) 
22690-2

>  <source_file>  (1479) 
运行/运行/ATP-VSW/ATP-VSW-DOCK_HTVS_1-002_lib.maegz

>  <canonical_smiles>  (1479) 
CN(C)Cc1ccc(CC[NH2+]Cc2cn(-c3ccccc3)nc2-c2ccccc2)cc1

>  <scaffold>  (1479) 
c1ccc(CC[NH2+]Cc2cn(-c3ccccc3)nc2-c2ccccc2)cc1

>  <molecular_formula>  (1479) 
C27H31N4+

$$$$
ATP-HTVS-E82D7E524403
     RDKit          3D

 61 64  0  0  0  0  0  0  0  0999 V2000
  198.8189  183.4408  159.1761 Cl  0  0  0  0  0  0  0  0  0  0  0  0
  197.3956  184.3463  159.4971 C   0  0  0  0  0  0  0  0  0  0  0  0
  196.1050  183.7564  159.5011 C   0  0  0  0  0  0  0  0  0  0  0  0
  194.9963  184.5827  159.8006 C   0  0  0  0  0  0  0  0  0  0  0  0
  195.1535  185.9639  160.0275 C   0  0  0  0  0  0  0  0  0  0  0  0
  196.4270  186.5501  159.9408 C   0  0  0  0  0  0  0  0  0  0  0  0
  196.5891  187.9327  160.0554 N   0  0  0  0  0  0  0  0  0  0  0  0
  197.5428  185.7345  159.6734 C   0  0  0  0  0  0  0  0  0  0  0  0
  195.8810  182.2830  159.1413 C   0  0  1  0  0  0  0  0  0  0  0  0
  195.9199  181.8395  157.7264 N   0  0  0  0  0  0  0  0  0  0  0  0
  196.4480  182.5751  156.6338 C   0  0  0  0  0  0  0  0  0  0  0  0
  196.6671  181.9583  155.4584 N   0  0  0  0  0  0  0  0  0  0  0  0
  197.2959  182.6439  154.4716 C   0  0  0  0  0  0  0  0  0  0  0  0
  197.4943  181.9842  153.2453 N   0  0  0  0  0  0  0  0  0  0  0  0
  198.8536  181.6641  152.7952 C   0  0  1  0  0  0  0  0  0  0  0  0
  199.8743  181.1417  153.8078 C   0  0  0  0  0  0  0  0  0  0  0  0
  199.4834  180.4455  154.9709 C   0  0  0  0  0  0  0  0  0  0  0  0
  200.4399  179.9831  155.8938 C   0  0  0  0  0  0  0  0  0  0  0  0
  201.8124  180.1750  155.6302 C   0  0  0  0  0  0  0  0  0  0  0  0
  202.2132  180.8339  154.4516 C   0  0  0  0  0  0  0  0  0  0  0  0
  201.2493  181.3247  153.5486 C   0  0  0  0  0  0  0  0  0  0  0  0
  199.9696  179.2553  157.1428 C   0  0  1  0  0  0  0  0  0  0  0  0
  199.9689  177.7779  156.9934 N   0  0  2  0  0  0  0  0  0  0  0  0
  201.2801  177.1615  157.2599 C   0  0  2  0  0  0  0  0  0  0  0  0
  199.3676  177.3081  155.7221 C   0  0  2  0  0  0  0  0  0  0  0  0
  197.7045  183.9903  154.6510 C   0  0  0  0  0  0  0  0  0  0  0  0
  197.4156  184.5517  155.9148 C   0  0  0  0  0  0  0  0  0  0  0  0
  196.7841  183.8356  156.8505 N   0  0  0  0  0  0  0  0  0  0  0  0
  197.7767  185.8844  156.1952 C   0  0  0  0  0  0  0  0  0  0  0  0
  198.4502  186.6661  155.2322 C   0  0  0  0  0  0  0  0  0  0  0  0
  198.7281  186.1129  153.9573 C   0  0  0  0  0  0  0  0  0  0  0  0
  198.3475  184.7813  153.6638 C   0  0  0  0  0  0  0  0  0  0  0  0
  194.0033  184.1747  159.7901 H   0  0  0  0  0  0  0  0  0  0  0  0
  194.2876  186.5841  160.1919 H   0  0  0  0  0  0  0  0  0  0  0  0
  197.5161  188.2930  160.2304 H   0  0  0  0  0  0  0  0  0  0  0  0
  195.8595  188.4650  160.4983 H   0  0  0  0  0  0  0  0  0  0  0  0
  198.5145  186.1914  159.5081 H   0  0  0  0  0  0  0  0  0  0  0  0
  196.6064  181.7008  159.7130 H   0  0  0  0  0  0  0  0  0  0  0  0
  194.9039  181.9911  159.5396 H   0  0  0  0  0  0  0  0  0  0  0  0
  195.7201  180.8635  157.5796 H   0  0  0  0  0  0  0  0  0  0  0  0
  196.7215  181.4197  152.9263 H   0  0  0  0  0  0  0  0  0  0  0  0
  198.7517  180.9270  151.9921 H   0  0  0  0  0  0  0  0  0  0  0  0
  199.2861  182.5502  152.3271 H   0  0  0  0  0  0  0  0  0  0  0  0
  198.4447  180.2255  155.1574 H   0  0  0  0  0  0  0  0  0  0  0  0
  202.5600  179.7938  156.3132 H   0  0  0  0  0  0  0  0  0  0  0  0
  203.2651  180.9554  154.2347 H   0  0  0  0  0  0  0  0  0  0  0  0
  201.5681  181.8301  152.6476 H   0  0  0  0  0  0  0  0  0  0  0  0
  200.5901  179.5521  157.9867 H   0  0  0  0  0  0  0  0  0  0  0  0
  198.9510  179.5870  157.3823 H   0  0  0  0  0  0  0  0  0  0  0  0
  201.9912  177.4919  156.5142 H   0  0  0  0  0  0  0  0  0  0  0  0
  201.2202  176.0788  157.2148 H   0  0  0  0  0  0  0  0  0  0  0  0
  201.6409  177.4474  158.2417 H   0  0  0  0  0  0  0  0  0  0  0  0
  199.9409  177.6344  154.8547 H   0  0  0  0  0  0  0  0  0  0  0  0
  198.3440  177.6814  155.6171 H   0  0  0  0  0  0  0  0  0  0  0  0
  199.3360  176.2203  155.6829 H   0  0  0  0  0  0  0  0  0  0  0  0
  197.5663  186.3297  157.1472 H   0  0  0  0  0  0  0  0  0  0  0  0
  198.7144  187.6951  155.4563 H   0  0  0  0  0  0  0  0  0  0  0  0
  199.1878  186.7317  153.1946 H   0  0  0  0  0  0  0  0  0  0  0  0
  198.5353  184.4069  152.6686 H   0  0  0  0  0  0  0  0  0  0  0  0
  196.5607  184.2878  157.7569 H   0  0  0  0  0  0  0  0  0  0  0  0
  199.3075  177.4635  157.7060 H   0  0  0  0  0  0  0  0  0  0  0  0
  1  2  1  0
  2  3  2  0
  2  8  1  0
  3  4  1  0
  3  9  1  0
  4  5  2  0
  4 33  1  0
  5  6  1  0
  5 34  1  0
  6  7  1  0
  6  8  2  0
  7 35  1  0
  7 36  1  0
  8 37  1  0
  9 10  1  0
  9 38  1  1
  9 39  1  0
 10 11  1  0
 10 40  1  0
 11 12  1  0
 11 28  2  0
 12 13  2  0
 13 14  1  0
 13 26  1  0
 14 15  1  0
 14 41  1  0
 15 16  1  0
 15 42  1  6
 15 43  1  0
 16 17  2  0
 16 21  1  0
 17 18  1  0
 17 44  1  0
 18 19  2  0
 18 22  1  0
 19 20  1  0
 19 45  1  0
 20 21  2  0
 20 46  1  0
 21 47  1  0
 22 23  1  0
 22 48  1  1
 22 49  1  0
 23 24  1  0
 23 25  1  0
 23 61  1  1
 24 50  1  6
 24 51  1  0
 24 52  1  0
 25 53  1  6
 25 54  1  0
 25 55  1  0
 26 27  1  0
 26 32  2  0
 27 28  1  0
 27 29  2  0
 28 60  1  0
 29 30  1  0
 29 56  1  0
 30 31  2  0
 30 57  1  0
 31 32  1  0
 31 58  1  0
 32 59  1  0
M  CHG  2  23   1  28   1
M  END
>  <s_epik_cmdline>  (1480) 
J2VwaWtfcHl0aG9uJywgJy1waCcsICc3LjAwMDAwMCcsICctcGh0JywgJzIuMDAwMDAwJywgJy1tcycsICcxNicsICctdG4nLCAnOCcsICctbWEnLCAnMjAwJywgJy1pbWFlJywgJzxpbmZpbGUubWFlPicsICctb21hZScsICc8b3V0ZmlsZS5tYWU+Jw==

>  <s_epik_input>  (1480) 
W05IMl1jKFtjSF0xKVtjSF1bY0hdYyhjMUNsKVtDSDJdW05IXWMobmMoYzIzKVtjSF1bY0hdW2NIXVtjSF0zKW5jMltOSF1bQ0gyXWM0W2NIXWMoW2NIXVtjSF1bY0hdNClbQ0gyXU4oW0NIM10pW0NIM10=

>  <s_i_glide_gridfile>  (1480) 
ATP-Grid

>  <s_lp_Force_Field>  (1480) 
OPLS_2005

>  <s_lp_Variant>  (1480) 
m_282030aaa____21928796____22360182____21941646-1

>  <s_lp_label>  (1480) 
1213_sdstereoexpander_1_neutralizer_1_epik_1_stereoizer_1

>  <s_m_source_file>  (1480) 
ATP-VSW-LIGPREP-002-in.maegz

>  <s_sd_BIOSOLVEIT.INFINISEE\_QUERY\_NAME>  (1480) 
Ref-Lig

>  <s_sd_BIOSOLVEIT.INFINISEE\_QUERY\_SMILES>  (1480) 
S(c1nc2c(cc1C[NH2+]Cc3ccc(cc3)C[NH+](C)C)cccc2)Cc4ccccc4

>  <s_sd_BIOSOLVEIT.INFINISEE\_REACTION\_NAME>  (1480) 
m_282030aaa

>  <s_sd_BIOSOLVEIT.INFINISEE\_REAGENT1\_SMILES>  (1480) 
[R1*]NCc1cc(ccc1)CN(C)C

>  <s_sd_BIOSOLVEIT.INFINISEE\_REAGENT2\_SMILES>  (1480) 
[R2*]c1nc([R1*])c2c(n1)cccc2

>  <s_sd_BIOSOLVEIT.INFINISEE\_REAGENT3\_SMILES>  (1480) 
[R2*]NCc1c(Cl)cc(N)cc1

>  <s_sd_BIOSOLVEIT.INFINISEE\_SPACE>  (1480) 
REALSpace_44bn_2023-08

>  <s_vsw_compound_code>  (1480) 
38786

>  <s_vsw_variant>  (1480) 
38786-1

>  <r_epik_Charging_Adjusted_Penalty>  (1480) 
0.12044243362958

>  <r_epik_Ionization_Penalty>  (1480) 
0.0625

>  <r_epik_Ionization_Penalty_Charging>  (1480) 
0.0608

>  <r_epik_Ionization_Penalty_Neutral>  (1480) 
0.0016999999999999999

>  <r_epik_State_Penalty>  (1480) 
0.0596

>  <r_i_docking_score>  (1480) 
-5.12016903990044

>  <r_i_glide_ecoul>  (1480) 
-10.6309213638306

>  <r_i_glide_eff_state_penalty>  (1480) 
0.0596

>  <r_i_glide_einternal>  (1480) 
9.4580221176147496

>  <r_i_glide_emodel>  (1480) 
-62.548693855325503

>  <r_i_glide_energy>  (1480) 
-41.6720514297485

>  <r_i_glide_erotb>  (1480) 
0.69576385238525196

>  <r_i_glide_esite>  (1480) 
-0.30176474073579002

>  <r_i_glide_evdw>  (1480) 
-31.041130065918001

>  <r_i_glide_gscore>  (1480) 
-5.1797690399004397

>  <r_i_glide_hbond>  (1480) 
-0.35289242535297999

>  <r_i_glide_ligand_efficiency>  (1480) 
-0.160005282496889

>  <r_i_glide_ligand_efficiency_ln>  (1480) 
-1.14654541857041

>  <r_i_glide_ligand_efficiency_sa>  (1480) 
-0.50798510692521304

>  <r_i_glide_lipo>  (1480) 
-1.7263900637809899

>  <r_i_glide_metal>  (1480) 
-0

>  <r_i_glide_rewards>  (1480) 
-0.347790954545453

>  <r_lp_Energy>  (1480) 
16.085742

>  <r_qp_ACxDN^.5/SA>  (1480) 
0.0161812

>  <r_qp_CIQPlogS>  (1480) 
-5.9480000000000004

>  <r_qp_EA(eV)>  (1480) 
0.49399999999999999

>  <r_qp_FISA>  (1480) 
83.322999999999993

>  <r_qp_FOSA>  (1480) 
225.38800000000001

>  <r_qp_IP(eV)>  (1480) 
7.923

>  <r_qp_Jm>  (1480) 
0.037812382238655601

>  <r_qp_PISA>  (1480) 
330.84500000000003

>  <r_qp_PSA>  (1480) 
70.150999999999996

>  <r_qp_PercentHumanOralAbsorption>  (1480) 
100

>  <r_qp_QPPCaco>  (1480) 
400.54300000000001

>  <r_qp_QPPMDCK>  (1480) 
403.05099999999999

>  <r_qp_QPlogBB>  (1480) 
-0.23100000000000001

>  <r_qp_QPlogHERG>  (1480) 
-6.3940000000000001

>  <r_qp_QPlogKhsa>  (1480) 
0.53900000000000003

>  <r_qp_QPlogKp>  (1480) 
-3.0880000000000001

>  <r_qp_QPlogPC16>  (1480) 
14.608000000000001

>  <r_qp_QPlogPo/w>  (1480) 
4.1900000000000004

>  <r_qp_QPlogPoct>  (1480) 
23.481999999999999

>  <r_qp_QPlogPw>  (1480) 
13.276

>  <r_qp_QPlogS>  (1480) 
-3.984

>  <r_qp_QPpolrz>  (1480) 
44.340000000000003

>  <r_qp_SASA>  (1480) 
693.70299999999997

>  <r_qp_SAamideO>  (1480) 
0

>  <r_qp_SAfluorine>  (1480) 
0

>  <r_qp_WPSA>  (1480) 
54.148000000000003

>  <r_qp_accptHB>  (1480) 
6

>  <r_qp_dip^2/V>  (1480) 
0.022245999999999998

>  <r_qp_dipole>  (1480) 
5.4340000000000002

>  <r_qp_donorHB>  (1480) 
3.5

>  <r_qp_glob>  (1480) 
0.84192509999999998

>  <r_qp_mol_MW>  (1480) 
446.98099999999999

>  <r_qp_volume>  (1480) 
1327.1579999999999

>  <r_sd_BIOSOLVEIT.INFINISEE\_FTREES\_SIMILARITY>  (1480) 
0.91100000000000003

>  <r_sd_BIOSOLVEIT.LOGP>  (1480) 
3.7341000000000002

>  <r_sd_BIOSOLVEIT.MOLECULAR\_WEIGHT>  (1480) 
447.99099999999999

>  <r_sd_BIOSOLVEIT.TPSA>  (1480) 
80.299999999999997

>  <i_epik_Tot_Q>  (1480) 
2

>  <i_epik_Tot_abs_Q>  (1480) 
2

>  <i_f3d_flags>  (1480) 
0

>  <i_i_glide_confnum>  (1480) 
2

>  <i_i_glide_lignum>  (1480) 
420

>  <i_i_glide_posenum>  (1480) 
19

>  <i_i_glide_rotatable_bonds>  (1480) 
8

>  <i_lp_mmshare_version>  (1480) 
65135

>  <i_m_ct_format>  (1480) 
2

>  <i_m_source_file_index>  (1480) 
1213

>  <i_qp_#NandO>  (1480) 
6

>  <i_qp_#acid>  (1480) 
0

>  <i_qp_#amide>  (1480) 
0

>  <i_qp_#amidine>  (1480) 
0

>  <i_qp_#amine>  (1480) 
1

>  <i_qp_#in34>  (1480) 
0

>  <i_qp_#in56>  (1480) 
22

>  <i_qp_#metab>  (1480) 
6

>  <i_qp_#nonHatm>  (1480) 
32

>  <i_qp_#noncon>  (1480) 
0

>  <i_qp_#ringatoms>  (1480) 
22

>  <i_qp_#rotor>  (1480) 
9

>  <i_qp_#rtvFG>  (1480) 
0

>  <i_qp_#stars>  (1480) 
0

>  <i_qp_CNS>  (1480) 
0

>  <i_qp_HumanOralAbsorption>  (1480) 
3

>  <i_qp_RuleOfFive>  (1480) 
0

>  <i_qp_RuleOfThree>  (1480) 
0

>  <i_sd_BIOSOLVEIT.INFINISEE\_REAGENT1\_NAME>  (1480) 
21928796

>  <i_sd_BIOSOLVEIT.INFINISEE\_REAGENT2\_NAME>  (1480) 
22360182

>  <i_sd_BIOSOLVEIT.INFINISEE\_REAGENT3\_NAME>  (1480) 
21941646

>  <i_sd_BIOSOLVEIT.INFINISEE\_RESULT\_RANK>  (1480) 
41083

>  <i_sd_version>  (1480) 
0

>  <b_lp_Chiralities_Consistent>  (1480) 
1

>  <b_sd_chiral_flag>  (1480) 
0

>  <canonical_id>  (1480) 
ATP-HTVS-E82D7E524403

>  <compound_code>  (1480) 
38786

>  <title>  (1480) 
m_282030aaa____21928796____22360182____21941646

>  <variant>  (1480) 
38786-1

>  <source_file>  (1480) 
运行/运行/ATP-VSW/ATP-VSW-DOCK_HTVS_1-002_lib.maegz

>  <canonical_smiles>  (1480) 
C[NH+](C)Cc1cccc(CNc2nc(NCc3ccc(N)cc3Cl)[nH+]c3ccccc23)c1

>  <scaffold>  (1480) 
c1ccc(CNc2nc(NCc3ccccc3)c3ccccc3[nH+]2)cc1

>  <molecular_formula>  (1480) 
C25H29ClN6+2

$$$$
ATP-HTVS-E85A4EEDAC38
     RDKit          3D

 58 61  0  0  0  0  0  0  0  0999 V2000
  200.7446  177.4417  158.2535 Cl  0  0  0  0  0  0  0  0  0  0  0  0
  201.0802  176.9894  156.6275 C   0  0  0  0  0  0  0  0  0  0  0  0
  201.8261  175.8254  156.3541 C   0  0  0  0  0  0  0  0  0  0  0  0
  202.1223  175.4764  155.0237 C   0  0  0  0  0  0  0  0  0  0  0  0
  202.8380  174.3595  154.7542 F   0  0  0  0  0  0  0  0  0  0  0  0
  201.6784  176.2965  153.9658 C   0  0  0  0  0  0  0  0  0  0  0  0
  200.9088  177.4503  154.2394 C   0  0  0  0  0  0  0  0  0  0  0  0
  200.6272  177.8019  155.5729 C   0  0  0  0  0  0  0  0  0  0  0  0
  200.4644  178.3469  153.1277 C   0  0  0  0  0  0  0  0  0  0  0  0
  201.2349  178.6539  152.2162 O   0  0  0  0  0  0  0  0  0  0  0  0
  199.1557  178.6578  153.1442 N   0  0  0  0  0  0  0  0  0  0  0  0
  198.4382  179.2619  152.0686 C   0  0  0  0  0  0  0  0  0  0  0  0
  197.8151  180.5220  152.2658 C   0  0  0  0  0  0  0  0  0  0  0  0
  197.9131  181.1879  153.5038 N   0  0  0  0  0  0  0  0  0  0  0  0
  197.7253  182.6360  153.5879 C   0  0  1  0  0  0  0  0  0  0  0  0
  197.5833  183.1701  154.9979 C   0  0  0  0  0  0  0  0  0  0  0  0
  196.8065  182.4815  155.9536 C   0  0  0  0  0  0  0  0  0  0  0  0
  196.6461  183.0107  157.2538 C   0  0  0  0  0  0  0  0  0  0  0  0
  197.2601  184.2356  157.5912 C   0  0  0  0  0  0  0  0  0  0  0  0
  198.0123  184.9331  156.6287 C   0  0  0  0  0  0  0  0  0  0  0  0
  198.1663  184.4070  155.3351 C   0  0  0  0  0  0  0  0  0  0  0  0
  195.8544  182.2380  158.2910 C   0  0  1  0  0  0  0  0  0  0  0  0
  194.3900  182.4373  158.1330 N   0  0  1  0  0  0  0  0  0  0  0  0
  193.6215  181.2413  158.5278 C   0  0  2  0  0  0  0  0  0  0  0  0
  193.8949  183.6681  158.7924 C   0  0  2  0  0  0  0  0  0  0  0  0
  197.0951  181.0640  151.1711 C   0  0  0  0  0  0  0  0  0  0  0  0
  196.9517  180.4476  149.9839 N   0  0  0  0  0  0  0  0  0  0  0  0
  197.5238  179.2449  149.7945 C   0  0  0  0  0  0  0  0  0  0  0  0
  198.2684  178.5932  150.8183 C   0  0  0  0  0  0  0  0  0  0  0  0
  198.7895  177.2990  150.5645 C   0  0  0  0  0  0  0  0  0  0  0  0
  198.6298  176.6848  149.3128 C   0  0  0  0  0  0  0  0  0  0  0  0
  197.9148  177.3395  148.2986 C   0  0  0  0  0  0  0  0  0  0  0  0
  197.3573  178.6050  148.5499 C   0  0  0  0  0  0  0  0  0  0  0  0
  202.1945  175.2075  157.1575 H   0  0  0  0  0  0  0  0  0  0  0  0
  201.9002  176.0209  152.9447 H   0  0  0  0  0  0  0  0  0  0  0  0
  200.0658  178.6968  155.8063 H   0  0  0  0  0  0  0  0  0  0  0  0
  198.6143  178.3799  153.9487 H   0  0  0  0  0  0  0  0  0  0  0  0
  198.5049  180.7872  154.2185 H   0  0  0  0  0  0  0  0  0  0  0  0
  198.5905  183.1022  153.1019 H   0  0  0  0  0  0  0  0  0  0  0  0
  196.8381  182.9889  153.0770 H   0  0  0  0  0  0  0  0  0  0  0  0
  196.3199  181.5536  155.6820 H   0  0  0  0  0  0  0  0  0  0  0  0
  197.1649  184.6368  158.5884 H   0  0  0  0  0  0  0  0  0  0  0  0
  198.4845  185.8699  156.8869 H   0  0  0  0  0  0  0  0  0  0  0  0
  198.7349  184.9566  154.5982 H   0  0  0  0  0  0  0  0  0  0  0  0
  196.1350  181.1962  158.1666 H   0  0  0  0  0  0  0  0  0  0  0  0
  196.1746  182.4934  159.2983 H   0  0  0  0  0  0  0  0  0  0  0  0
  193.7863  181.0365  159.5770 H   0  0  0  0  0  0  0  0  0  0  0  0
  193.9342  180.3728  157.9532 H   0  0  0  0  0  0  0  0  0  0  0  0
  192.5600  181.3688  158.3309 H   0  0  0  0  0  0  0  0  0  0  0  0
  194.0889  183.6501  159.8628 H   0  0  0  0  0  0  0  0  0  0  0  0
  192.8174  183.7776  158.6480 H   0  0  0  0  0  0  0  0  0  0  0  0
  194.3757  184.5530  158.3782 H   0  0  0  0  0  0  0  0  0  0  0  0
  196.5898  182.0146  151.2119 H   0  0  0  0  0  0  0  0  0  0  0  0
  199.3353  176.7388  151.3076 H   0  0  0  0  0  0  0  0  0  0  0  0
  199.0604  175.7096  149.1397 H   0  0  0  0  0  0  0  0  0  0  0  0
  197.7801  176.8614  147.3367 H   0  0  0  0  0  0  0  0  0  0  0  0
  196.7910  179.0972  147.7705 H   0  0  0  0  0  0  0  0  0  0  0  0
  194.1955  182.5570  157.1284 H   0  0  0  0  0  0  0  0  0  0  0  0
  1  2  1  0
  2  3  1  0
  2  8  2  0
  3  4  2  0
  3 34  1  0
  4  5  1  0
  4  6  1  0
  6  7  2  0
  6 35  1  0
  7  8  1  0
  7  9  1  0
  8 36  1  0
  9 10  2  0
  9 11  1  0
 11 12  1  0
 11 37  1  0
 12 13  2  0
 12 29  1  0
 13 14  1  0
 13 26  1  0
 14 15  1  0
 14 38  1  0
 15 16  1  0
 15 39  1  6
 15 40  1  0
 16 17  2  0
 16 21  1  0
 17 18  1  0
 17 41  1  0
 18 19  2  0
 18 22  1  0
 19 20  1  0
 19 42  1  0
 20 21  2  0
 20 43  1  0
 21 44  1  0
 22 23  1  0
 22 45  1  6
 22 46  1  0
 23 24  1  0
 23 25  1  0
 23 58  1  6
 24 47  1  1
 24 48  1  0
 24 49  1  0
 25 50  1  1
 25 51  1  0
 25 52  1  0
 26 27  2  0
 26 53  1  0
 27 28  1  0
 28 29  1  0
 28 33  2  0
 29 30  2  0
 30 31  1  0
 30 54  1  0
 31 32  2  0
 31 55  1  0
 32 33  1  0
 32 56  1  0
 33 57  1  0
M  CHG  1  23   1
M  END
>  <s_epik_cmdline>  (1481) 
J2VwaWtfcHl0aG9uJywgJy1waCcsICc3LjAwMDAwMCcsICctcGh0JywgJzIuMDAwMDAwJywgJy1tcycsICcxNicsICctdG4nLCAnOCcsICctbWEnLCAnMjAwJywgJy1pbWFlJywgJzxpbmZpbGUubWFlPicsICctb21hZScsICc8b3V0ZmlsZS5tYWU+Jw==

>  <s_epik_input>  (1481) 
Q2xjMVtjSF1jKEYpW2NIXWMoW2NIXTEpQyg9TylbTkhdYyhjKGMyMylbY0hdW2NIXVtjSF1bY0hdMyljKFtjSF1uMilbTkhdW0NIMl1jNFtjSF1jKFtjSF1bY0hdW2NIXTQpW0NIMl1OKFtDSDNdKVtDSDNd

>  <s_i_glide_gridfile>  (1481) 
ATP-Grid

>  <s_lp_Force_Field>  (1481) 
OPLS_2005

>  <s_lp_Variant>  (1481) 
rxn502b____EMOL567199____EMOL13728749____EMOL2873214-1

>  <s_lp_label>  (1481) 
2241_sdstereoexpander_1_neutralizer_1_epik_1_stereoizer_1

>  <s_m_source_file>  (1481) 
ATP-VSW-LIGPREP-001-in.maegz

>  <s_sd_BIOSOLVEIT.INFINISEE\_QUERY\_NAME>  (1481) 
Ref-Lig

>  <s_sd_BIOSOLVEIT.INFINISEE\_QUERY\_SMILES>  (1481) 
S(c1nc2c(cc1C[NH2+]Cc3ccc(cc3)C[NH+](C)C)cccc2)Cc4ccccc4

>  <s_sd_BIOSOLVEIT.INFINISEE\_REACTION\_NAME>  (1481) 
rxn502b

>  <s_sd_BIOSOLVEIT.INFINISEE\_REAGENT1\_NAME>  (1481) 
EMOL567199

>  <s_sd_BIOSOLVEIT.INFINISEE\_REAGENT1\_SMILES>  (1481) 
Clc1cc(F)cc(c1)C(=O)O

>  <s_sd_BIOSOLVEIT.INFINISEE\_REAGENT2\_NAME>  (1481) 
EMOL13728749

>  <s_sd_BIOSOLVEIT.INFINISEE\_REAGENT2\_SMILES>  (1481) 
Brc1c(N)c2c(nc1)cccc2

>  <s_sd_BIOSOLVEIT.INFINISEE\_REAGENT3\_NAME>  (1481) 
EMOL2873214

>  <s_sd_BIOSOLVEIT.INFINISEE\_REAGENT3\_SMILES>  (1481) 
N(Cc1cc(ccc1)CN)(C)C

>  <s_sd_BIOSOLVEIT.INFINISEE\_SPACE>  (1481) 
eXplore_7tr_2022-12

>  <s_vsw_compound_code>  (1481) 
71681

>  <s_vsw_variant>  (1481) 
71681-1

>  <r_epik_Charging_Adjusted_Penalty>  (1481) 
0.127426369452352

>  <r_epik_Ionization_Penalty>  (1481) 
0.083400000000000002

>  <r_epik_Ionization_Penalty_Charging>  (1481) 
0.0441

>  <r_epik_Ionization_Penalty_Neutral>  (1481) 
0.039300000000000002

>  <r_epik_State_Penalty>  (1481) 
0.083299999999999999

>  <r_i_docking_score>  (1481) 
-4.5976362464148002

>  <r_i_glide_ecoul>  (1481) 
-9.1657075881958008

>  <r_i_glide_eff_state_penalty>  (1481) 
0.083299999999999999

>  <r_i_glide_einternal>  (1481) 
4.4256429672241202

>  <r_i_glide_emodel>  (1481) 
-63.932645085799003

>  <r_i_glide_energy>  (1481) 
-47.257393836975098

>  <r_i_glide_erotb>  (1481) 
0.65545897505428696

>  <r_i_glide_esite>  (1481) 
-0.106431057663064

>  <r_i_glide_evdw>  (1481) 
-38.091686248779297

>  <r_i_glide_gscore>  (1481) 
-4.6809362464147997

>  <r_i_glide_hbond>  (1481) 
-0.20000000000000001

>  <r_i_glide_ligand_efficiency>  (1481) 
-0.139322310497418

>  <r_i_glide_ligand_efficiency_ln>  (1481) 
-1.0224904959162

>  <r_i_glide_ligand_efficiency_sa>  (1481) 
-0.44688109333396597

>  <r_i_glide_lipo>  (1481) 
-1.37321140510879

>  <r_i_glide_metal>  (1481) 
-0

>  <r_i_glide_rewards>  (1481) 
-0.37731230802890098

>  <r_lp_Energy>  (1481) 
30.720600000000001

>  <r_qp_ACxDN^.5/SA>  (1481) 
0.012775999999999999

>  <r_qp_CIQPlogS>  (1481) 
-6.2350000000000003

>  <r_qp_EA(eV)>  (1481) 
1.103

>  <r_qp_FISA>  (1481) 
56.619

>  <r_qp_FOSA>  (1481) 
162.489

>  <r_qp_IP(eV)>  (1481) 
8.3710000000000004

>  <r_qp_Jm>  (1481) 
0.0131811880793722

>  <r_qp_PISA>  (1481) 
399.96499999999997

>  <r_qp_PSA>  (1481) 
58.950000000000003

>  <r_qp_PercentHumanOralAbsorption>  (1481) 
100

>  <r_qp_QPPCaco>  (1481) 
717.59799999999996

>  <r_qp_QPPMDCK>  (1481) 
1357.1579999999999

>  <r_qp_QPlogBB>  (1481) 
0.23400000000000001

>  <r_qp_QPlogHERG>  (1481) 
-6.976

>  <r_qp_QPlogKhsa>  (1481) 
0.72399999999999998

>  <r_qp_QPlogKp>  (1481) 
-2.5449999999999999

>  <r_qp_QPlogPC16>  (1481) 
14.843999999999999

>  <r_qp_QPlogPo/w>  (1481) 
4.9219999999999997

>  <r_qp_QPlogPoct>  (1481) 
22.914000000000001

>  <r_qp_QPlogPw>  (1481) 
12.379

>  <r_qp_QPlogS>  (1481) 
-5.0010000000000003

>  <r_qp_QPpolrz>  (1481) 
47.722999999999999

>  <r_qp_SASA>  (1481) 
719.50599999999997

>  <r_qp_SAamideO>  (1481) 
0

>  <r_qp_SAfluorine>  (1481) 
28.898

>  <r_qp_WPSA>  (1481) 
100.434

>  <r_qp_accptHB>  (1481) 
6.5

>  <r_qp_dip^2/V>  (1481) 
0.0173419

>  <r_qp_dipole>  (1481) 
4.8620000000000001

>  <r_qp_donorHB>  (1481) 
2

>  <r_qp_glob>  (1481) 
0.8263336

>  <r_qp_mol_MW>  (1481) 
462.95299999999997

>  <r_qp_volume>  (1481) 
1363.1300000000001

>  <r_sd_BIOSOLVEIT.INFINISEE\_FTREES\_SIMILARITY>  (1481) 
0.92700000000000005

>  <r_sd_BIOSOLVEIT.LOGP>  (1481) 
4.5362

>  <r_sd_BIOSOLVEIT.MOLECULAR\_WEIGHT>  (1481) 
463.96199999999999

>  <r_sd_BIOSOLVEIT.TPSA>  (1481) 
58.460000000000001

>  <i_epik_Tot_Q>  (1481) 
1

>  <i_epik_Tot_abs_Q>  (1481) 
1

>  <i_f3d_flags>  (1481) 
0

>  <i_i_glide_confnum>  (1481) 
4

>  <i_i_glide_lignum>  (1481) 
761

>  <i_i_glide_posenum>  (1481) 
18

>  <i_i_glide_rotatable_bonds>  (1481) 
8

>  <i_lp_mmshare_version>  (1481) 
65135

>  <i_m_ct_format>  (1481) 
2

>  <i_m_source_file_index>  (1481) 
2241

>  <i_qp_#NandO>  (1481) 
5

>  <i_qp_#acid>  (1481) 
0

>  <i_qp_#amide>  (1481) 
0

>  <i_qp_#amidine>  (1481) 
0

>  <i_qp_#amine>  (1481) 
1

>  <i_qp_#in34>  (1481) 
0

>  <i_qp_#in56>  (1481) 
22

>  <i_qp_#metab>  (1481) 
6

>  <i_qp_#nonHatm>  (1481) 
33

>  <i_qp_#noncon>  (1481) 
0

>  <i_qp_#ringatoms>  (1481) 
22

>  <i_qp_#rotor>  (1481) 
7

>  <i_qp_#rtvFG>  (1481) 
0

>  <i_qp_#stars>  (1481) 
0

>  <i_qp_CNS>  (1481) 
1

>  <i_qp_HumanOralAbsorption>  (1481) 
3

>  <i_qp_RuleOfFive>  (1481) 
0

>  <i_qp_RuleOfThree>  (1481) 
0

>  <i_sd_BIOSOLVEIT.INFINISEE\_RESULT\_RANK>  (1481) 
6946

>  <i_sd_version>  (1481) 
0

>  <b_lp_Chiralities_Consistent>  (1481) 
1

>  <b_sd_chiral_flag>  (1481) 
0

>  <canonical_id>  (1481) 
ATP-HTVS-E85A4EEDAC38

>  <compound_code>  (1481) 
71681

>  <title>  (1481) 
rxn502b____EMOL567199____EMOL13728749____EMOL2873214

>  <variant>  (1481) 
71681-1

>  <source_file>  (1481) 
运行/运行/ATP-VSW/ATP-VSW-DOCK_HTVS_1-001_lib/ATP-VSW-DOCK_HTVS_1-001_lib

>  <canonical_smiles>  (1481) 
C[NH+](C)Cc1cccc(CNc2cnc3ccccc3c2NC(=O)c2cc(F)cc(Cl)c2)c1

>  <scaffold>  (1481) 
O=C(Nc1c(NCc2ccccc2)cnc2ccccc12)c1ccccc1

>  <molecular_formula>  (1481) 
C26H25ClFN4O+

$$$$
ATP-HTVS-E85D4903F0A1
     RDKit          3D

 55 57  0  0  0  0  0  0  0  0999 V2000
  201.9188  172.3796  151.7525 Cl  0  0  0  0  0  0  0  0  0  0  0  0
  201.9843  173.4179  153.1302 C   0  0  0  0  0  0  0  0  0  0  0  0
  201.1480  174.5453  153.1976 C   0  0  0  0  0  0  0  0  0  0  0  0
  201.1840  175.3854  154.3251 C   0  0  0  0  0  0  0  0  0  0  0  0
  202.0455  175.0942  155.4104 C   0  0  0  0  0  0  0  0  0  0  0  0
  202.0495  175.8224  156.5772 O   0  0  0  0  0  0  0  0  0  0  0  0
  200.8125  176.3785  157.0105 C   0  0  1  0  0  0  0  0  0  0  0  0
  200.7446  177.8330  156.6714 C   0  0  0  0  0  0  0  0  0  0  0  0
  201.5442  179.0988  157.6045 S   0  0  0  0  0  0  0  0  0  0  0  0
  200.8088  180.2950  156.5716 C   0  0  0  0  0  0  0  0  0  0  0  0
  199.9943  179.7208  155.6292 C   0  0  0  0  0  0  0  0  0  0  0  0
  199.9496  178.3265  155.7170 N   0  0  0  0  0  0  0  0  0  0  0  0
  199.1693  180.4334  154.6003 C   0  0  1  0  0  0  0  0  0  0  0  0
  198.2983  181.5192  155.0121 N   0  0  0  0  0  0  0  0  0  0  0  0
  197.3581  181.0904  156.0428 C   0  0  1  0  0  0  0  0  0  0  0  0
  196.5737  182.3077  156.5860 C   0  0  2  0  0  0  0  0  0  0  0  0
  197.5100  183.3711  157.1418 C   0  0  0  0  0  0  0  0  0  0  0  0
  198.1494  183.1699  158.3913 C   0  0  0  0  0  0  0  0  0  0  0  0
  198.9939  184.1454  158.9273 C   0  0  0  0  0  0  0  0  0  0  0  0
  199.2116  185.3518  158.2274 C   0  0  0  0  0  0  0  0  0  0  0  0
  200.1868  186.5885  158.9329 Cl  0  0  0  0  0  0  0  0  0  0  0  0
  198.5863  185.5601  156.9857 C   0  0  0  0  0  0  0  0  0  0  0  0
  197.7516  184.5617  156.4382 C   0  0  0  0  0  0  0  0  0  0  0  0
  195.5178  181.8626  157.6344 C   0  0  1  0  0  0  0  0  0  0  0  0
  194.6763  182.9742  158.1599 N   0  0  2  0  0  0  0  0  0  0  0  0
  195.2834  183.7636  159.2864 C   0  0  2  0  0  0  0  0  0  0  0  0
  193.3051  182.5279  158.5104 C   0  0  2  0  0  0  0  0  0  0  0  0
  202.9128  173.9884  155.3175 C   0  0  0  0  0  0  0  0  0  0  0  0
  202.8736  173.1484  154.1879 C   0  0  0  0  0  0  0  0  0  0  0  0
  197.7821  181.8579  154.2133 H   0  0  0  0  0  0  0  0  0  0  0  0
  200.4595  174.7557  152.3881 H   0  0  0  0  0  0  0  0  0  0  0  0
  200.5120  176.2329  154.3227 H   0  0  0  0  0  0  0  0  0  0  0  0
  199.9640  175.8684  156.5730 H   0  0  0  0  0  0  0  0  0  0  0  0
  200.7552  176.2560  158.0903 H   0  0  0  0  0  0  0  0  0  0  0  0
  201.0015  181.3462  156.7297 H   0  0  0  0  0  0  0  0  0  0  0  0
  199.8470  180.8545  153.8546 H   0  0  0  0  0  0  0  0  0  0  0  0
  198.5578  179.7147  154.0572 H   0  0  0  0  0  0  0  0  0  0  0  0
  196.6870  180.3177  155.6542 H   0  0  0  0  0  0  0  0  0  0  0  0
  197.8997  180.6513  156.8778 H   0  0  0  0  0  0  0  0  0  0  0  0
  196.0383  182.7448  155.7459 H   0  0  0  0  0  0  0  0  0  0  0  0
  198.0399  182.2441  158.9045 H   0  0  0  0  0  0  0  0  0  0  0  0
  199.4242  184.0074  159.9064 H   0  0  0  0  0  0  0  0  0  0  0  0
  198.7128  186.4992  156.4703 H   0  0  0  0  0  0  0  0  0  0  0  0
  197.2415  184.7539  155.5022 H   0  0  0  0  0  0  0  0  0  0  0  0
  194.8705  181.1508  157.1233 H   0  0  0  0  0  0  0  0  0  0  0  0
  195.9637  181.3110  158.4606 H   0  0  0  0  0  0  0  0  0  0  0  0
  195.4919  183.0765  160.1250 H   0  0  0  0  0  0  0  0  0  0  0  0
  194.5518  184.5043  159.6652 H   0  0  0  0  0  0  0  0  0  0  0  0
  196.2146  184.2596  158.9884 H   0  0  0  0  0  0  0  0  0  0  0  0
  193.3780  181.7455  159.2525 H   0  0  0  0  0  0  0  0  0  0  0  0
  192.7548  182.1218  157.6508 H   0  0  0  0  0  0  0  0  0  0  0  0
  192.7354  183.3687  158.8905 H   0  0  0  0  0  0  0  0  0  0  0  0
  203.5718  173.7789  156.1454 H   0  0  0  0  0  0  0  0  0  0  0  0
  203.5143  172.2820  154.1488 H   0  0  0  0  0  0  0  0  0  0  0  0
  194.5283  183.5752  157.3672 H   0  0  0  0  0  0  0  0  0  0  0  0
  1  2  1  0
  2  3  1  0
  2 29  2  0
  3  4  2  0
  3 31  1  0
  4  5  1  0
  4 32  1  0
  5  6  1  0
  5 28  2  0
  6  7  1  0
  7  8  1  0
  7 33  1  6
  7 34  1  0
  8  9  1  0
  8 12  2  0
  9 10  1  0
 10 11  2  0
 10 35  1  0
 11 12  1  0
 11 13  1  0
 13 14  1  0
 13 36  1  6
 13 37  1  0
 14 15  1  0
 14 30  1  0
 15 16  1  0
 15 38  1  6
 15 39  1  0
 16 17  1  0
 16 24  1  0
 16 40  1  6
 17 18  1  0
 17 23  2  0
 18 19  2  0
 18 41  1  0
 19 20  1  0
 19 42  1  0
 20 21  1  0
 20 22  2  0
 22 23  1  0
 22 43  1  0
 23 44  1  0
 24 25  1  0
 24 45  1  6
 24 46  1  0
 25 26  1  0
 25 27  1  0
 25 55  1  6
 26 47  1  1
 26 48  1  0
 26 49  1  0
 27 50  1  1
 27 51  1  0
 27 52  1  0
 28 29  1  0
 28 53  1  0
 29 54  1  0
M  CHG  1  25   1
M  END
>  <s_epik_cmdline>  (1482) 
J2VwaWtfcHl0aG9uJywgJy1waCcsICc3LjAwMDAwMCcsICctcGh0JywgJzIuMDAwMDAwJywgJy1tcycsICcxNicsICctdG4nLCAnOCcsICctbWEnLCAnMjAwJywgJy1pbWFlJywgJzxpbmZpbGUubWFlPicsICctb21hZScsICc8b3V0ZmlsZS5tYWU+Jw==

>  <s_epik_input>  (1482) 
Q2xjMVtjSF1bY0hdYyhbY0hdW2NIXTEpT1tDSDJdYzJzW2NIXWMobjIpW0NIMl1bTkhdW0NIMl1bQ0BASF0oW0NIMl1OKFtDSDNdKVtDSDNdKWMzW2NIXVtjSF1jKENsKVtjSF1bY0hdMw==

>  <s_i_glide_gridfile>  (1482) 
ATP-Grid

>  <s_lp_Force_Field>  (1482) 
OPLS_2005

>  <s_lp_Variant>  (1482) 
m_270004bbb____23846716____7548984-4

>  <s_lp_label>  (1482) 
1508_sdstereoexpander_2_neutralizer_1_epik_2_stereoizer_1

>  <s_m_source_file>  (1482) 
ATP-VSW-LIGPREP-003-in.maegz

>  <s_sd_BIOSOLVEIT.INFINISEE\_QUERY\_NAME>  (1482) 
Ref-Lig

>  <s_sd_BIOSOLVEIT.INFINISEE\_QUERY\_SMILES>  (1482) 
S(c1nc2c(cc1C[NH2+]Cc3ccc(cc3)C[NH+](C)C)cccc2)Cc4ccccc4

>  <s_sd_BIOSOLVEIT.INFINISEE\_REACTION\_NAME>  (1482) 
m_270004bbb

>  <s_sd_BIOSOLVEIT.INFINISEE\_REAGENT1\_SMILES>  (1482) 
[R1*]NCC(c1ccc(Cl)cc1)CN(C)C

>  <s_sd_BIOSOLVEIT.INFINISEE\_REAGENT2\_SMILES>  (1482) 
[R1*]CC=1N=C(SC1)COc2ccc(Cl)cc2

>  <s_sd_BIOSOLVEIT.INFINISEE\_SPACE>  (1482) 
REALSpace_44bn_2023-08

>  <s_vsw_compound_code>  (1482) 
48227

>  <s_vsw_variant>  (1482) 
48227-4

>  <r_epik_Charging_Adjusted_Penalty>  (1482) 
1.4808842197182599

>  <r_epik_Ionization_Penalty>  (1482) 
1.4576

>  <r_epik_Ionization_Penalty_Charging>  (1482) 
0.0025999999999999999

>  <r_epik_Ionization_Penalty_Neutral>  (1482) 
1.4550000000000001

>  <r_epik_State_Penalty>  (1482) 
1.4782999999999999

>  <r_i_docking_score>  (1482) 
-1.8845040735073899

>  <r_i_glide_ecoul>  (1482) 
-6.3995089530944798

>  <r_i_glide_eff_state_penalty>  (1482) 
1.4782999999999999

>  <r_i_glide_einternal>  (1482) 
8.5699272155761701

>  <r_i_glide_emodel>  (1482) 
-46.158236843581001

>  <r_i_glide_energy>  (1482) 
-38.740096569061301

>  <r_i_glide_erotb>  (1482) 
0.78735478411663995

>  <r_i_glide_esite>  (1482) 
-0.085622024812353204

>  <r_i_glide_evdw>  (1482) 
-32.340587615966797

>  <r_i_glide_gscore>  (1482) 
-3.3628040735073901

>  <r_i_glide_hbond>  (1482) 
-0.071599704689025906

>  <r_i_glide_ligand_efficiency>  (1482) 
-0.064982899086461696

>  <r_i_glide_ligand_efficiency_ln>  (1482) 
-0.43150364593305501

>  <r_i_glide_ligand_efficiency_sa>  (1482) 
-0.19964805402109101

>  <r_i_glide_lipo>  (1482) 
-1.0848409952692299

>  <r_i_glide_metal>  (1482) 
-0

>  <r_i_glide_rewards>  (1482) 
-0.33114040909090797

>  <r_lp_Energy>  (1482) 
20.871117999999999

>  <r_lp_tautomer_probability>  (1482) 
1

>  <r_qp_ACxDN^.5/SA>  (1482) 
0.0083174000000000008

>  <r_qp_CIQPlogS>  (1482) 
-5.0010000000000003

>  <r_qp_EA(eV)>  (1482) 
0.79400000000000004

>  <r_qp_FISA>  (1482) 
16.074000000000002

>  <r_qp_FOSA>  (1482) 
259.67599999999999

>  <r_qp_IP(eV)>  (1482) 
8.7899999999999991

>  <r_qp_Jm>  (1482) 
0.0173571858694671

>  <r_qp_PISA>  (1482) 
259.84800000000001

>  <r_qp_PSA>  (1482) 
35.905000000000001

>  <r_qp_PercentHumanOralAbsorption>  (1482) 
100

>  <r_qp_QPPCaco>  (1482) 
433.77600000000001

>  <r_qp_QPPMDCK>  (1482) 
1750.2139999999999

>  <r_qp_QPlogBB>  (1482) 
0.98699999999999999

>  <r_qp_QPlogHERG>  (1482) 
-6.8410000000000002

>  <r_qp_QPlogKhsa>  (1482) 
0.63900000000000001

>  <r_qp_QPlogKp>  (1482) 
-4.0650000000000004

>  <r_qp_QPlogPC16>  (1482) 
13.647

>  <r_qp_QPlogPo/w>  (1482) 
4.8540000000000001

>  <r_qp_QPlogPoct>  (1482) 
19.210999999999999

>  <r_qp_QPlogPw>  (1482) 
8.2370000000000001

>  <r_qp_QPlogS>  (1482) 
-3.3490000000000002

>  <r_qp_QPpolrz>  (1482) 
42.399000000000001

>  <r_qp_SASA>  (1482) 
691.322

>  <r_qp_SAamideO>  (1482) 
0

>  <r_qp_SAfluorine>  (1482) 
0

>  <r_qp_WPSA>  (1482) 
155.72399999999999

>  <r_qp_accptHB>  (1482) 
5.75

>  <r_qp_dip^2/V>  (1482) 
0.035256700000000002

>  <r_qp_dipole>  (1482) 
6.7999999999999998

>  <r_qp_donorHB>  (1482) 
1

>  <r_qp_glob>  (1482) 
0.83822770000000002

>  <r_qp_mol_MW>  (1482) 
450.42500000000001

>  <r_qp_volume>  (1482) 
1311.644

>  <r_sd_BIOSOLVEIT.INFINISEE\_FTREES\_SIMILARITY>  (1482) 
0.90700000000000003

>  <r_sd_BIOSOLVEIT.LOGP>  (1482) 
3.0206

>  <r_sd_BIOSOLVEIT.MOLECULAR\_WEIGHT>  (1482) 
452.44600000000003

>  <r_sd_BIOSOLVEIT.TPSA>  (1482) 
43.170000000000002

>  <i_epik_Tot_Q>  (1482) 
1

>  <i_epik_Tot_abs_Q>  (1482) 
1

>  <i_f3d_flags>  (1482) 
0

>  <i_i_glide_confnum>  (1482) 
9

>  <i_i_glide_lignum>  (1482) 
575

>  <i_i_glide_posenum>  (1482) 
16

>  <i_i_glide_rotatable_bonds>  (1482) 
10

>  <i_lp_mmshare_version>  (1482) 
65135

>  <i_m_ct_format>  (1482) 
2

>  <i_m_source_file_index>  (1482) 
1508

>  <i_qp_#NandO>  (1482) 
4

>  <i_qp_#acid>  (1482) 
0

>  <i_qp_#amide>  (1482) 
0

>  <i_qp_#amidine>  (1482) 
0

>  <i_qp_#amine>  (1482) 
2

>  <i_qp_#in34>  (1482) 
0

>  <i_qp_#in56>  (1482) 
17

>  <i_qp_#metab>  (1482) 
7

>  <i_qp_#nonHatm>  (1482) 
29

>  <i_qp_#noncon>  (1482) 
0

>  <i_qp_#ringatoms>  (1482) 
17

>  <i_qp_#rotor>  (1482) 
10

>  <i_qp_#rtvFG>  (1482) 
0

>  <i_qp_#stars>  (1482) 
0

>  <i_qp_CNS>  (1482) 
2

>  <i_qp_HumanOralAbsorption>  (1482) 
3

>  <i_qp_RuleOfFive>  (1482) 
0

>  <i_qp_RuleOfThree>  (1482) 
1

>  <i_sd_BIOSOLVEIT.INFINISEE\_REAGENT1\_NAME>  (1482) 
23846716

>  <i_sd_BIOSOLVEIT.INFINISEE\_REAGENT2\_NAME>  (1482) 
7548984

>  <i_sd_BIOSOLVEIT.INFINISEE\_RESULT\_RANK>  (1482) 
59938

>  <i_sd_version>  (1482) 
0

>  <b_lp_Chiralities_Consistent>  (1482) 
1

>  <b_sd_chiral_flag>  (1482) 
0

>  <canonical_id>  (1482) 
ATP-HTVS-E85D4903F0A1

>  <compound_code>  (1482) 
48227

>  <title>  (1482) 
m_270004bbb____23846716____7548984

>  <variant>  (1482) 
48227-4

>  <source_file>  (1482) 
运行/运行/ATP-VSW/ATP-VSW-DOCK_HTVS_1-003_lib/ATP-VSW-DOCK_HTVS_1-003_lib.mae

>  <canonical_smiles>  (1482) 
C[NH+](C)C[C@H](CNCc1csc(COc2ccc(Cl)cc2)n1)c1ccc(Cl)cc1

>  <scaffold>  (1482) 
c1ccc(CCNCc2csc(COc3ccccc3)n2)cc1

>  <molecular_formula>  (1482) 
C22H26Cl2N3OS+

$$$$
ATP-HTVS-E888CD26917F
     RDKit          3D

 52 55  0  0  0  0  0  0  0  0999 V2000
  202.1821  184.0017  160.1572 Br  0  0  0  0  0  0  0  0  0  0  0  0
  201.6372  182.6868  158.9005 C   0  0  0  0  0  0  0  0  0  0  0  0
  200.4111  182.8464  158.2384 C   0  0  0  0  0  0  0  0  0  0  0  0
  199.9510  181.8765  157.3061 C   0  0  0  0  0  0  0  0  0  0  0  0
  200.7662  180.7409  157.0497 C   0  0  0  0  0  0  0  0  0  0  0  0
  200.3532  179.7084  156.1604 N   0  0  0  0  0  0  0  0  0  0  0  0
  199.7321  179.8795  154.9825 C   0  0  0  0  0  0  0  0  0  0  0  0
  199.3714  178.9249  154.2971 O   0  0  0  0  0  0  0  0  0  0  0  0
  199.5413  181.3137  154.4619 C   0  0  1  0  0  0  0  0  0  0  0  0
  198.5811  182.1880  155.2022 N   0  0  0  0  0  0  0  0  0  0  0  0
  198.5527  181.9825  156.6654 C   0  0  2  0  0  0  0  0  0  0  0  0
  197.7175  183.0627  157.3628 C   0  0  0  0  0  0  0  0  0  0  0  0
  196.8412  182.7417  158.4261 C   0  0  0  0  0  0  0  0  0  0  0  0
  196.1031  183.7612  159.0673 C   0  0  0  0  0  0  0  0  0  0  0  0
  196.2415  185.1005  158.6595 C   0  0  0  0  0  0  0  0  0  0  0  0
  197.1165  185.4246  157.6027 C   0  0  0  0  0  0  0  0  0  0  0  0
  197.8474  184.4106  156.9630 C   0  0  0  0  0  0  0  0  0  0  0  0
  197.2180  182.0611  154.6595 C   0  0  1  0  0  0  0  0  0  0  0  0
  197.1077  182.5083  153.2148 C   0  0  0  0  0  0  0  0  0  0  0  0
  196.7235  181.5783  152.2328 C   0  0  0  0  0  0  0  0  0  0  0  0
  196.6162  181.9804  150.8911 C   0  0  0  0  0  0  0  0  0  0  0  0
  196.8902  183.3088  150.5097 C   0  0  0  0  0  0  0  0  0  0  0  0
  196.7779  183.6027  149.1691 O   0  0  0  0  0  0  0  0  0  0  0  0
  197.1283  184.9036  148.7214 C   0  0  1  0  0  0  0  0  0  0  0  0
  197.2746  184.8636  147.1998 C   0  0  2  0  0  0  0  0  0  0  0  0
  197.2798  184.2412  151.5036 C   0  0  0  0  0  0  0  0  0  0  0  0
  197.3934  183.8398  152.8483 C   0  0  0  0  0  0  0  0  0  0  0  0
  201.9938  180.5850  157.7324 C   0  0  0  0  0  0  0  0  0  0  0  0
  202.4377  181.5578  158.6504 C   0  0  0  0  0  0  0  0  0  0  0  0
  199.8291  183.7201  158.5047 H   0  0  0  0  0  0  0  0  0  0  0  0
  200.6067  178.7658  156.4019 H   0  0  0  0  0  0  0  0  0  0  0  0
  200.5172  181.8055  154.4998 H   0  0  0  0  0  0  0  0  0  0  0  0
  199.3106  181.2652  153.3937 H   0  0  0  0  0  0  0  0  0  0  0  0
  198.0465  181.0344  156.8591 H   0  0  0  0  0  0  0  0  0  0  0  0
  196.7301  181.7148  158.7535 H   0  0  0  0  0  0  0  0  0  0  0  0
  195.4466  183.5127  159.8857 H   0  0  0  0  0  0  0  0  0  0  0  0
  195.6885  185.8855  159.1503 H   0  0  0  0  0  0  0  0  0  0  0  0
  197.2400  186.4469  157.2813 H   0  0  0  0  0  0  0  0  0  0  0  0
  198.5124  184.6664  156.1508 H   0  0  0  0  0  0  0  0  0  0  0  0
  196.8492  181.0373  154.7711 H   0  0  0  0  0  0  0  0  0  0  0  0
  196.4999  182.6959  155.1839 H   0  0  0  0  0  0  0  0  0  0  0  0
  196.5137  180.5580  152.5165 H   0  0  0  0  0  0  0  0  0  0  0  0
  196.3334  181.2500  150.1484 H   0  0  0  0  0  0  0  0  0  0  0  0
  196.3584  185.6173  149.0188 H   0  0  0  0  0  0  0  0  0  0  0  0
  198.0814  185.2274  149.1402 H   0  0  0  0  0  0  0  0  0  0  0  0
  197.5608  185.8416  146.8160 H   0  0  0  0  0  0  0  0  0  0  0  0
  196.3501  184.5712  146.7159 H   0  0  0  0  0  0  0  0  0  0  0  0
  198.0460  184.1502  146.9078 H   0  0  0  0  0  0  0  0  0  0  0  0
  197.5066  185.2681  151.2634 H   0  0  0  0  0  0  0  0  0  0  0  0
  197.6976  184.5571  153.5984 H   0  0  0  0  0  0  0  0  0  0  0  0
  202.6058  179.7125  157.5489 H   0  0  0  0  0  0  0  0  0  0  0  0
  203.3766  181.4344  159.1697 H   0  0  0  0  0  0  0  0  0  0  0  0
  1  2  1  0
  2  3  2  0
  2 29  1  0
  3  4  1  0
  3 30  1  0
  4  5  2  0
  4 11  1  0
  5  6  1  0
  5 28  1  0
  6  7  1  0
  6 31  1  0
  7  8  2  0
  7  9  1  0
  9 10  1  0
  9 32  1  6
  9 33  1  0
 10 11  1  0
 10 18  1  0
 11 12  1  0
 11 34  1  6
 12 13  2  0
 12 17  1  0
 13 14  1  0
 13 35  1  0
 14 15  2  0
 14 36  1  0
 15 16  1  0
 15 37  1  0
 16 17  2  0
 16 38  1  0
 17 39  1  0
 18 19  1  0
 18 40  1  6
 18 41  1  0
 19 20  1  0
 19 27  2  0
 20 21  2  0
 20 42  1  0
 21 22  1  0
 21 43  1  0
 22 23  1  0
 22 26  2  0
 23 24  1  0
 24 25  1  0
 24 44  1  6
 24 45  1  0
 25 46  1  6
 25 47  1  0
 25 48  1  0
 26 27  1  0
 26 49  1  0
 27 50  1  0
 28 29  2  0
 28 51  1  0
 29 52  1  0
M  END
>  <s_epik_cmdline>  (1483) 
J2VwaWtfcHl0aG9uJywgJy1waCcsICc3LjAwMDAwMCcsICctcGh0JywgJzIuMDAwMDAwJywgJy1tcycsICcxNicsICctdG4nLCAnOCcsICctbWEnLCAnMjAwJywgJy1pbWFlJywgJzxpbmZpbGUubWFlPicsICctb21hZScsICc8b3V0ZmlsZS5tYWU+Jw==

>  <s_epik_input>  (1483) 
QnJjKFtjSF0xKVtjSF1bY0hdYyhjMTIpW05IXUMoPU8pW0NIMl1OKFtDQEBIXTJjM1tjSF1bY0hdW2NIXVtjSF1bY0hdMylbQ0gyXWM0W2NIXVtjSF1jKFtjSF1bY0hdNClPW0NIMl1bQ0gzXQ==

>  <s_i_glide_gridfile>  (1483) 
ATP-Grid

>  <s_lp_Force_Field>  (1483) 
OPLS_2005

>  <s_lp_Variant>  (1483) 
m_270004bda____24170772____7547522-1

>  <s_lp_label>  (1483) 
1925_sdstereoexpander_1_neutralizer_1_epik_1_stereoizer_1

>  <s_m_source_file>  (1483) 
ATP-VSW-LIGPREP-002-in.maegz

>  <s_sd_BIOSOLVEIT.INFINISEE\_QUERY\_NAME>  (1483) 
Ref-Lig

>  <s_sd_BIOSOLVEIT.INFINISEE\_QUERY\_SMILES>  (1483) 
S(c1nc2c(cc1C[NH2+]Cc3ccc(cc3)C[NH+](C)C)cccc2)Cc4ccccc4

>  <s_sd_BIOSOLVEIT.INFINISEE\_REACTION\_NAME>  (1483) 
m_270004bda

>  <s_sd_BIOSOLVEIT.INFINISEE\_REAGENT1\_SMILES>  (1483) 
[R1*]N1C(c2c(NC(=O)C1)ccc(Br)c2)c3ccccc3

>  <s_sd_BIOSOLVEIT.INFINISEE\_REAGENT2\_SMILES>  (1483) 
[R1*]Cc1ccc(OCC)cc1

>  <s_sd_BIOSOLVEIT.INFINISEE\_SPACE>  (1483) 
REALSpace_44bn_2023-08

>  <s_vsw_compound_code>  (1483) 
61570

>  <s_vsw_variant>  (1483) 
61570-1

>  <r_epik_Charging_Adjusted_Penalty>  (1483) 
0.0073316794013014502

>  <r_epik_Ionization_Penalty>  (1483) 
0.0073000000000000001

>  <r_epik_Ionization_Penalty_Charging>  (1483) 
0

>  <r_epik_Ionization_Penalty_Neutral>  (1483) 
0.0073000000000000001

>  <r_epik_State_Penalty>  (1483) 
0.0073000000000000001

>  <r_i_docking_score>  (1483) 
-0.96296455449450902

>  <r_i_glide_ecoul>  (1483) 
-1.86802983283997

>  <r_i_glide_eff_state_penalty>  (1483) 
0.0073000000000000001

>  <r_i_glide_einternal>  (1483) 
1.07449066638947

>  <r_i_glide_emodel>  (1483) 
-34.7794445237231

>  <r_i_glide_energy>  (1483) 
-33.267098665237398

>  <r_i_glide_erotb>  (1483) 
0.39379973139459101

>  <r_i_glide_esite>  (1483) 
-0.026952475205571601

>  <r_i_glide_evdw>  (1483) 
-31.3990688323975

>  <r_i_glide_gscore>  (1483) 
-0.97026455449450899

>  <r_i_glide_hbond>  (1483) 
0

>  <r_i_glide_ligand_efficiency>  (1483) 
-0.0332056742929141

>  <r_i_glide_ligand_efficiency_ln>  (1483) 
-0.22049446430504099

>  <r_i_glide_ligand_efficiency_sa>  (1483) 
-0.102018351723855

>  <r_i_glide_lipo>  (1483) 
-1.12836949608132

>  <r_i_glide_metal>  (1483) 
-0

>  <r_i_glide_rewards>  (1483) 
1.6414156019436601

>  <r_lp_Energy>  (1483) 
41.997402999999998

>  <r_lp_tautomer_probability>  (1483) 
1

>  <r_qp_ACxDN^.5/SA>  (1483) 
0.0073661000000000004

>  <r_qp_CIQPlogS>  (1483) 
-6.2039999999999997

>  <r_qp_EA(eV)>  (1483) 
0.47299999999999998

>  <r_qp_FISA>  (1483) 
62.113

>  <r_qp_FOSA>  (1483) 
191.339

>  <r_qp_IP(eV)>  (1483) 
8.8759999999999994

>  <r_qp_Jm>  (1483) 
0.00076134192014496805

>  <r_qp_PISA>  (1483) 
381.923

>  <r_qp_PSA>  (1483) 
50.868000000000002

>  <r_qp_PercentHumanOralAbsorption>  (1483) 
100

>  <r_qp_QPPCaco>  (1483) 
636.48299999999995

>  <r_qp_QPPMDCK>  (1483) 
890.95500000000004

>  <r_qp_QPlogBB>  (1483) 
0.26400000000000001

>  <r_qp_QPlogHERG>  (1483) 
-7.3090000000000002

>  <r_qp_QPlogKhsa>  (1483) 
0.89800000000000002

>  <r_qp_QPlogKp>  (1483) 
-2.9969999999999999

>  <r_qp_QPlogPC16>  (1483) 
14.064

>  <r_qp_QPlogPo/w>  (1483) 
4.9089999999999998

>  <r_qp_QPlogPoct>  (1483) 
19.931000000000001

>  <r_qp_QPlogPw>  (1483) 
10.234999999999999

>  <r_qp_QPlogS>  (1483) 
-5.7759999999999998

>  <r_qp_QPpolrz>  (1483) 
46.198

>  <r_qp_SASA>  (1483) 
712.72199999999998

>  <r_qp_SAamideO>  (1483) 
0

>  <r_qp_SAfluorine>  (1483) 
0

>  <r_qp_WPSA>  (1483) 
77.346999999999994

>  <r_qp_accptHB>  (1483) 
5.25

>  <r_qp_dip^2/V>  (1483) 
0.0055991000000000001

>  <r_qp_dipole>  (1483) 
2.6779999999999999

>  <r_qp_donorHB>  (1483) 
1

>  <r_qp_glob>  (1483) 
0.80041819999999997

>  <r_qp_mol_MW>  (1483) 
451.36200000000002

>  <r_qp_volume>  (1483) 
1281.173

>  <r_sd_BIOSOLVEIT.INFINISEE\_FTREES\_SIMILARITY>  (1483) 
0.90300000000000002

>  <r_sd_BIOSOLVEIT.LOGP>  (1483) 
3.9744000000000002

>  <r_sd_BIOSOLVEIT.MOLECULAR\_WEIGHT>  (1483) 
452.37

>  <r_sd_BIOSOLVEIT.TPSA>  (1483) 
42.770000000000003

>  <i_epik_Tot_Q>  (1483) 
0

>  <i_epik_Tot_abs_Q>  (1483) 
0

>  <i_f3d_flags>  (1483) 
0

>  <i_i_glide_confnum>  (1483) 
3

>  <i_i_glide_lignum>  (1483) 
695

>  <i_i_glide_posenum>  (1483) 
17

>  <i_i_glide_rotatable_bonds>  (1483) 
5

>  <i_lp_mmshare_version>  (1483) 
65135

>  <i_m_ct_format>  (1483) 
2

>  <i_m_source_file_index>  (1483) 
1925

>  <i_qp_#NandO>  (1483) 
4

>  <i_qp_#acid>  (1483) 
0

>  <i_qp_#amide>  (1483) 
0

>  <i_qp_#amidine>  (1483) 
0

>  <i_qp_#amine>  (1483) 
1

>  <i_qp_#in34>  (1483) 
0

>  <i_qp_#in56>  (1483) 
18

>  <i_qp_#metab>  (1483) 
7

>  <i_qp_#nonHatm>  (1483) 
29

>  <i_qp_#noncon>  (1483) 
2

>  <i_qp_#ringatoms>  (1483) 
23

>  <i_qp_#rotor>  (1483) 
4

>  <i_qp_#rtvFG>  (1483) 
0

>  <i_qp_#stars>  (1483) 
0

>  <i_qp_CNS>  (1483) 
1

>  <i_qp_HumanOralAbsorption>  (1483) 
3

>  <i_qp_RuleOfFive>  (1483) 
0

>  <i_qp_RuleOfThree>  (1483) 
2

>  <i_sd_BIOSOLVEIT.INFINISEE\_REAGENT1\_NAME>  (1483) 
24170772

>  <i_sd_BIOSOLVEIT.INFINISEE\_REAGENT2\_NAME>  (1483) 
7547522

>  <i_sd_BIOSOLVEIT.INFINISEE\_RESULT\_RANK>  (1483) 
86059

>  <i_sd_version>  (1483) 
0

>  <b_lp_Chiralities_Consistent>  (1483) 
1

>  <b_sd_chiral_flag>  (1483) 
0

>  <canonical_id>  (1483) 
ATP-HTVS-E888CD26917F

>  <compound_code>  (1483) 
61570

>  <title>  (1483) 
m_270004bda____24170772____7547522

>  <variant>  (1483) 
61570-1

>  <source_file>  (1483) 
运行/运行/ATP-VSW/ATP-VSW-DOCK_HTVS_1-002_lib.maegz

>  <canonical_smiles>  (1483) 
CCOc1ccc(CN2CC(=O)Nc3ccc(Br)cc3[C@H]2c2ccccc2)cc1

>  <scaffold>  (1483) 
O=C1CN(Cc2ccccc2)C(c2ccccc2)c2ccccc2N1

>  <molecular_formula>  (1483) 
C24H23BrN2O2

$$$$
ATP-HTVS-E89D68A8E825
     RDKit          3D

 59 62  0  0  0  0  0  0  0  0999 V2000
  201.3928  171.9906  152.1328 Cl  0  0  0  0  0  0  0  0  0  0  0  0
  201.5654  173.3406  153.1917 C   0  0  0  0  0  0  0  0  0  0  0  0
  201.0327  174.5884  152.8105 C   0  0  0  0  0  0  0  0  0  0  0  0
  201.1383  175.7014  153.6750 C   0  0  0  0  0  0  0  0  0  0  0  0
  201.7962  175.5501  154.9159 C   0  0  0  0  0  0  0  0  0  0  0  0
  201.8990  176.6036  155.7578 F   0  0  0  0  0  0  0  0  0  0  0  0
  202.3353  174.3047  155.2912 C   0  0  0  0  0  0  0  0  0  0  0  0
  202.2206  173.1983  154.4293 C   0  0  0  0  0  0  0  0  0  0  0  0
  200.5275  177.0578  153.3408 C   0  0  1  0  0  0  0  0  0  0  0  0
  199.8990  177.1835  152.0287 N   0  0  0  0  0  0  0  0  0  0  0  0
  198.9641  178.2025  151.7561 C   0  0  0  0  0  0  0  0  0  0  0  0
  198.6918  179.1069  152.7179 N   0  0  0  0  0  0  0  0  0  0  0  0
  197.7810  180.0582  152.5105 C   0  0  0  0  0  0  0  0  0  0  0  0
  197.1111  180.1677  151.3546 N   0  0  0  0  0  0  0  0  0  0  0  0
  197.3610  179.2968  150.3501 C   0  0  0  0  0  0  0  0  0  0  0  0
  198.2981  178.2557  150.5171 C   0  0  0  0  0  0  0  0  0  0  0  0
  198.5172  177.3324  149.4628 C   0  0  0  0  0  0  0  0  0  0  0  0
  197.8165  177.4745  148.2476 C   0  0  0  0  0  0  0  0  0  0  0  0
  196.8933  178.5234  148.0824 C   0  0  0  0  0  0  0  0  0  0  0  0
  196.6574  179.4328  149.1371 C   0  0  0  0  0  0  0  0  0  0  0  0
  197.5176  180.9827  153.5097 N   0  0  0  0  0  0  0  0  0  0  0  0
  198.5200  181.3601  154.4982 C   0  0  1  0  0  0  0  0  0  0  0  0
  197.9870  182.2816  155.5831 C   0  0  0  0  0  0  0  0  0  0  0  0
  197.0795  181.7887  156.5466 C   0  0  0  0  0  0  0  0  0  0  0  0
  196.5898  182.6308  157.5723 C   0  0  0  0  0  0  0  0  0  0  0  0
  197.0285  183.9708  157.6331 C   0  0  0  0  0  0  0  0  0  0  0  0
  196.5918  184.7922  158.6183 F   0  0  0  0  0  0  0  0  0  0  0  0
  197.9314  184.4655  156.6726 C   0  0  0  0  0  0  0  0  0  0  0  0
  198.4108  183.6249  155.6510 C   0  0  0  0  0  0  0  0  0  0  0  0
  195.6058  182.0890  158.6006 C   0  0  1  0  0  0  0  0  0  0  0  0
  194.2056  182.2946  158.1526 N   0  0  1  0  0  0  0  0  0  0  0  0
  193.3360  181.1231  158.3764 C   0  0  2  0  0  0  0  0  0  0  0  0
  193.6110  183.5549  158.6446 C   0  0  2  0  0  0  0  0  0  0  0  0
  200.5298  174.6580  151.8571 H   0  0  0  0  0  0  0  0  0  0  0  0
  202.8306  174.1978  156.2453 H   0  0  0  0  0  0  0  0  0  0  0  0
  202.6287  172.2405  154.7206 H   0  0  0  0  0  0  0  0  0  0  0  0
  199.8162  177.2890  154.1360 H   0  0  0  0  0  0  0  0  0  0  0  0
  201.3136  177.8091  153.3876 H   0  0  0  0  0  0  0  0  0  0  0  0
  200.2296  176.6028  151.2787 H   0  0  0  0  0  0  0  0  0  0  0  0
  199.2131  176.5126  149.5560 H   0  0  0  0  0  0  0  0  0  0  0  0
  197.9794  176.7773  147.4336 H   0  0  0  0  0  0  0  0  0  0  0  0
  196.3640  178.6262  147.1447 H   0  0  0  0  0  0  0  0  0  0  0  0
  195.9498  180.2320  148.9991 H   0  0  0  0  0  0  0  0  0  0  0  0
  196.8374  181.6947  153.3060 H   0  0  0  0  0  0  0  0  0  0  0  0
  198.9591  180.4777  154.9656 H   0  0  0  0  0  0  0  0  0  0  0  0
  199.3302  181.8620  153.9726 H   0  0  0  0  0  0  0  0  0  0  0  0
  196.7732  180.7516  156.5056 H   0  0  0  0  0  0  0  0  0  0  0  0
  198.2642  185.4918  156.7376 H   0  0  0  0  0  0  0  0  0  0  0  0
  199.1179  184.0213  154.9383 H   0  0  0  0  0  0  0  0  0  0  0  0
  195.8354  181.0402  158.7679 H   0  0  0  0  0  0  0  0  0  0  0  0
  195.7763  182.5531  159.5773 H   0  0  0  0  0  0  0  0  0  0  0  0
  193.2887  180.8675  159.4307 H   0  0  0  0  0  0  0  0  0  0  0  0
  193.6892  180.2422  157.8404 H   0  0  0  0  0  0  0  0  0  0  0  0
  192.3267  181.3231  158.0191 H   0  0  0  0  0  0  0  0  0  0  0  0
  193.5562  183.5791  159.7342 H   0  0  0  0  0  0  0  0  0  0  0  0
  192.6001  183.6768  158.2620 H   0  0  0  0  0  0  0  0  0  0  0  0
  194.1850  184.4241  158.3282 H   0  0  0  0  0  0  0  0  0  0  0  0
  196.4345  180.9109  151.2017 H   0  0  0  0  0  0  0  0  0  0  0  0
  194.2055  182.3929  157.1320 H   0  0  0  0  0  0  0  0  0  0  0  0
  1  2  1  0
  2  3  2  0
  2  8  1  0
  3  4  1  0
  3 34  1  0
  4  5  2  0
  4  9  1  0
  5  6  1  0
  5  7  1  0
  7  8  2  0
  7 35  1  0
  8 36  1  0
  9 10  1  0
  9 37  1  1
  9 38  1  0
 10 11  1  0
 10 39  1  0
 11 12  2  0
 11 16  1  0
 12 13  1  0
 13 14  2  0
 13 21  1  0
 14 15  1  0
 14 58  1  0
 15 16  1  0
 15 20  2  0
 16 17  2  0
 17 18  1  0
 17 40  1  0
 18 19  2  0
 18 41  1  0
 19 20  1  0
 19 42  1  0
 20 43  1  0
 21 22  1  0
 21 44  1  0
 22 23  1  0
 22 45  1  1
 22 46  1  0
 23 24  2  0
 23 29  1  0
 24 25  1  0
 24 47  1  0
 25 26  2  0
 25 30  1  0
 26 27  1  0
 26 28  1  0
 28 29  2  0
 28 48  1  0
 29 49  1  0
 30 31  1  0
 30 50  1  1
 30 51  1  0
 31 32  1  0
 31 33  1  0
 31 59  1  6
 32 52  1  1
 32 53  1  0
 32 54  1  0
 33 55  1  1
 33 56  1  0
 33 57  1  0
M  CHG  2  14   1  31   1
M  END
>  <s_epik_cmdline>  (1484) 
J2VwaWtfcHl0aG9uJywgJy1waCcsICc3LjAwMDAwMCcsICctcGh0JywgJzIuMDAwMDAwJywgJy1tcycsICcxNicsICctdG4nLCAnOCcsICctbWEnLCAnMjAwJywgJy1pbWFlJywgJzxpbmZpbGUubWFlPicsICctb21hZScsICc8b3V0ZmlsZS5tYWU+Jw==

>  <s_epik_input>  (1484) 
Q2xjMVtjSF1jKGMoRilbY0hdW2NIXTEpW0NIMl1bTkhdYyhjKGMyMylbY0hdW2NIXVtjSF1bY0hdMyluYyhuMilbTkhdW0NIMl1jNFtjSF1jKGMoRilbY0hdW2NIXTQpW0NIMl1OKFtDSDNdKVtDSDNd

>  <s_i_glide_gridfile>  (1484) 
ATP-Grid

>  <s_lp_Force_Field>  (1484) 
OPLS_2005

>  <s_lp_Variant>  (1484) 
m_282030aaa____21928534____22360182____21968946-1

>  <s_lp_label>  (1484) 
1547_sdstereoexpander_1_neutralizer_1_epik_1_stereoizer_1

>  <s_m_source_file>  (1484) 
ATP-VSW-LIGPREP-003-in.maegz

>  <s_sd_BIOSOLVEIT.INFINISEE\_QUERY\_NAME>  (1484) 
Ref-Lig

>  <s_sd_BIOSOLVEIT.INFINISEE\_QUERY\_SMILES>  (1484) 
S(c1nc2c(cc1C[NH2+]Cc3ccc(cc3)C[NH+](C)C)cccc2)Cc4ccccc4

>  <s_sd_BIOSOLVEIT.INFINISEE\_REACTION\_NAME>  (1484) 
m_282030aaa

>  <s_sd_BIOSOLVEIT.INFINISEE\_REAGENT1\_SMILES>  (1484) 
[R1*]NCc1c(F)ccc(Cl)c1

>  <s_sd_BIOSOLVEIT.INFINISEE\_REAGENT2\_SMILES>  (1484) 
[R2*]c1nc([R1*])c2c(n1)cccc2

>  <s_sd_BIOSOLVEIT.INFINISEE\_REAGENT3\_SMILES>  (1484) 
[R2*]NCc1cc(c(F)cc1)CN(C)C

>  <s_sd_BIOSOLVEIT.INFINISEE\_SPACE>  (1484) 
REALSpace_44bn_2023-08

>  <s_vsw_compound_code>  (1484) 
49475

>  <s_vsw_variant>  (1484) 
49475-1

>  <r_epik_Charging_Adjusted_Penalty>  (1484) 
0.143543054616562

>  <r_epik_Ionization_Penalty>  (1484) 
0.0683

>  <r_epik_Ionization_Penalty_Charging>  (1484) 
0.0683

>  <r_epik_Ionization_Penalty_Neutral>  (1484) 
0

>  <r_epik_State_Penalty>  (1484) 
0.075200000000000003

>  <r_i_docking_score>  (1484) 
-4.2274951356254

>  <r_i_glide_ecoul>  (1484) 
-8.2307977676391602

>  <r_i_glide_eff_state_penalty>  (1484) 
0.075200000000000003

>  <r_i_glide_einternal>  (1484) 
3.5710542201995801

>  <r_i_glide_emodel>  (1484) 
-61.3224770711372

>  <r_i_glide_energy>  (1484) 
-43.450955390930197

>  <r_i_glide_erotb>  (1484) 
0.64027124935075597

>  <r_i_glide_esite>  (1484) 
-0.11525153468907499

>  <r_i_glide_evdw>  (1484) 
-35.220157623291001

>  <r_i_glide_gscore>  (1484) 
-4.3026951356253997

>  <r_i_glide_hbond>  (1484) 
-0.20000000000000001

>  <r_i_glide_ligand_efficiency>  (1484) 
-0.12810591320077

>  <r_i_glide_ligand_efficiency_ln>  (1484) 
-0.94017302936474101

>  <r_i_glide_ligand_efficiency_sa>  (1484) 
-0.41090411398802501

>  <r_i_glide_lipo>  (1484) 
-1.25374752260734

>  <r_i_glide_metal>  (1484) 
-0

>  <r_i_glide_rewards>  (1484) 
-0.37833978136931901

>  <r_lp_Energy>  (1484) 
15.76835

>  <r_qp_ACxDN^.5/SA>  (1484) 
0.011583

>  <r_qp_CIQPlogS>  (1484) 
-6.9210000000000003

>  <r_qp_EA(eV)>  (1484) 
0.82399999999999995

>  <r_qp_FISA>  (1484) 
41.598999999999997

>  <r_qp_FOSA>  (1484) 
190.238

>  <r_qp_IP(eV)>  (1484) 
8.3040000000000003

>  <r_qp_Jm>  (1484) 
0.47865919768778697

>  <r_qp_PISA>  (1484) 
284.37099999999998

>  <r_qp_PSA>  (1484) 
45.590000000000003

>  <r_qp_PercentHumanOralAbsorption>  (1484) 
100

>  <r_qp_QPPCaco>  (1484) 
996.12400000000002

>  <r_qp_QPPMDCK>  (1484) 
1789.6669999999999

>  <r_qp_QPlogBB>  (1484) 
0.38600000000000001

>  <r_qp_QPlogHERG>  (1484) 
-4.8490000000000002

>  <r_qp_QPlogKhsa>  (1484) 
0.72899999999999998

>  <r_qp_QPlogKp>  (1484) 
-2.5790000000000002

>  <r_qp_QPlogPC16>  (1484) 
12.737

>  <r_qp_QPlogPo/w>  (1484) 
4.8659999999999997

>  <r_qp_QPlogPoct>  (1484) 
19.831

>  <r_qp_QPlogPw>  (1484) 
9.5280000000000005

>  <r_qp_QPlogS>  (1484) 
-3.411

>  <r_qp_QPpolrz>  (1484) 
41.813000000000002

>  <r_qp_SASA>  (1484) 
610.47000000000003

>  <r_qp_SAamideO>  (1484) 
0

>  <r_qp_SAfluorine>  (1484) 
53.094999999999999

>  <r_qp_WPSA>  (1484) 
94.262

>  <r_qp_accptHB>  (1484) 
5

>  <r_qp_dip^2/V>  (1484) 
0.0031128000000000002

>  <r_qp_dipole>  (1484) 
1.98

>  <r_qp_donorHB>  (1484) 
2

>  <r_qp_glob>  (1484) 
0.92371239999999999

>  <r_qp_mol_MW>  (1484) 
467.94799999999998

>  <r_qp_volume>  (1484) 
1259.0820000000001

>  <r_sd_BIOSOLVEIT.INFINISEE\_FTREES\_SIMILARITY>  (1484) 
0.90700000000000003

>  <r_sd_BIOSOLVEIT.LOGP>  (1484) 
4.4301000000000004

>  <r_sd_BIOSOLVEIT.MOLECULAR\_WEIGHT>  (1484) 
468.95699999999999

>  <r_sd_BIOSOLVEIT.TPSA>  (1484) 
54.280000000000001

>  <i_epik_Tot_Q>  (1484) 
2

>  <i_epik_Tot_abs_Q>  (1484) 
2

>  <i_f3d_flags>  (1484) 
0

>  <i_i_glide_confnum>  (1484) 
5

>  <i_i_glide_lignum>  (1484) 
589

>  <i_i_glide_posenum>  (1484) 
18

>  <i_i_glide_rotatable_bonds>  (1484) 
8

>  <i_lp_mmshare_version>  (1484) 
65135

>  <i_m_ct_format>  (1484) 
2

>  <i_m_source_file_index>  (1484) 
1547

>  <i_qp_#NandO>  (1484) 
5

>  <i_qp_#acid>  (1484) 
0

>  <i_qp_#amide>  (1484) 
0

>  <i_qp_#amidine>  (1484) 
0

>  <i_qp_#amine>  (1484) 
1

>  <i_qp_#in34>  (1484) 
0

>  <i_qp_#in56>  (1484) 
22

>  <i_qp_#metab>  (1484) 
4

>  <i_qp_#nonHatm>  (1484) 
33

>  <i_qp_#noncon>  (1484) 
0

>  <i_qp_#ringatoms>  (1484) 
22

>  <i_qp_#rotor>  (1484) 
8

>  <i_qp_#rtvFG>  (1484) 
0

>  <i_qp_#stars>  (1484) 
0

>  <i_qp_CNS>  (1484) 
1

>  <i_qp_HumanOralAbsorption>  (1484) 
3

>  <i_qp_RuleOfFive>  (1484) 
0

>  <i_qp_RuleOfThree>  (1484) 
0

>  <i_sd_BIOSOLVEIT.INFINISEE\_REAGENT1\_NAME>  (1484) 
21928534

>  <i_sd_BIOSOLVEIT.INFINISEE\_REAGENT2\_NAME>  (1484) 
22360182

>  <i_sd_BIOSOLVEIT.INFINISEE\_REAGENT3\_NAME>  (1484) 
21968946

>  <i_sd_BIOSOLVEIT.INFINISEE\_RESULT\_RANK>  (1484) 
62160

>  <i_sd_version>  (1484) 
0

>  <b_lp_Chiralities_Consistent>  (1484) 
1

>  <b_sd_chiral_flag>  (1484) 
0

>  <canonical_id>  (1484) 
ATP-HTVS-E89D68A8E825

>  <compound_code>  (1484) 
49475

>  <title>  (1484) 
m_282030aaa____21928534____22360182____21968946

>  <variant>  (1484) 
49475-1

>  <source_file>  (1484) 
运行/运行/ATP-VSW/ATP-VSW-DOCK_HTVS_1-003_lib/ATP-VSW-DOCK_HTVS_1-003_lib.mae

>  <canonical_smiles>  (1484) 
C[NH+](C)Cc1cc(CNc2nc(NCc3cc(Cl)ccc3F)c3ccccc3[nH+]2)ccc1F

>  <scaffold>  (1484) 
c1ccc(CNc2nc(NCc3ccccc3)c3ccccc3[nH+]2)cc1

>  <molecular_formula>  (1484) 
C25H26ClF2N5+2

$$$$
ATP-HTVS-E8C4233BC4EE
     RDKit          3D

 44 47  0  0  0  0  0  0  0  0999 V2000
  199.5203  195.0048  158.5121 Cl  0  0  0  0  0  0  0  0  0  0  0  0
  198.8205  193.4913  158.9633 C   0  0  0  0  0  0  0  0  0  0  0  0
  198.1331  192.7132  158.0093 C   0  0  0  0  0  0  0  0  0  0  0  0
  198.0149  193.1448  156.7307 F   0  0  0  0  0  0  0  0  0  0  0  0
  197.5508  191.4874  158.3862 C   0  0  0  0  0  0  0  0  0  0  0  0
  197.6505  191.0264  159.7157 C   0  0  0  0  0  0  0  0  0  0  0  0
  198.3350  191.8145  160.6687 C   0  0  0  0  0  0  0  0  0  0  0  0
  198.9224  193.0403  160.2942 C   0  0  0  0  0  0  0  0  0  0  0  0
  196.9998  189.7360  160.1247 C   0  0  0  0  0  0  0  0  0  0  0  0
  196.3644  189.6658  161.1778 O   0  0  0  0  0  0  0  0  0  0  0  0
  197.1994  188.7165  159.2680 N   0  0  0  0  0  0  0  0  0  0  0  0
  196.7491  187.3631  159.3482 C   0  0  0  0  0  0  0  0  0  0  0  0
  197.4158  186.3542  158.5967 C   0  0  0  0  0  0  0  0  0  0  0  0
  198.5041  186.7101  157.7670 N   0  0  0  0  0  0  0  0  0  0  0  0
  199.6109  187.1709  158.3825 C   0  0  0  0  0  0  0  0  0  0  0  0
  200.5181  187.6121  158.9589 N   0  0  0  0  0  0  0  0  0  0  0  0
  198.4865  186.5279  156.3588 C   0  0  0  0  0  0  0  0  0  0  0  0
  199.5077  187.0906  155.5466 C   0  0  0  0  0  0  0  0  0  0  0  0
  199.5426  186.8546  154.1540 C   0  0  0  0  0  0  0  0  0  0  0  0
  198.5721  186.0349  153.5464 C   0  0  0  0  0  0  0  0  0  0  0  0
  197.5484  185.4753  154.3294 C   0  0  0  0  0  0  0  0  0  0  0  0
  197.4901  185.7519  155.7197 C   0  0  0  0  0  0  0  0  0  0  0  0
  196.9608  185.0075  158.7052 C   0  0  0  0  0  0  0  0  0  0  0  0
  195.7981  184.7468  159.4972 C   0  0  0  0  0  0  0  0  0  0  0  0
  195.1596  185.7213  160.1780 N   0  0  0  0  0  0  0  0  0  0  0  0
  195.6207  186.9854  160.1055 C   0  0  0  0  0  0  0  0  0  0  0  0
  195.2988  183.4290  159.5543 C   0  0  0  0  0  0  0  0  0  0  0  0
  195.9159  182.3794  158.8536 C   0  0  0  0  0  0  0  0  0  0  0  0
  197.0639  182.6332  158.0909 C   0  0  0  0  0  0  0  0  0  0  0  0
  197.6042  183.9473  158.0383 C   0  0  0  0  0  0  0  0  0  0  0  0
  197.0161  190.9126  157.6440 H   0  0  0  0  0  0  0  0  0  0  0  0
  198.4216  191.4626  161.6861 H   0  0  0  0  0  0  0  0  0  0  0  0
  199.4465  193.6405  161.0261 H   0  0  0  0  0  0  0  0  0  0  0  0
  197.8507  188.9032  158.5191 H   0  0  0  0  0  0  0  0  0  0  0  0
  200.2893  187.6985  155.9894 H   0  0  0  0  0  0  0  0  0  0  0  0
  200.3191  187.3046  153.5527 H   0  0  0  0  0  0  0  0  0  0  0  0
  198.5963  185.8412  152.4786 H   0  0  0  0  0  0  0  0  0  0  0  0
  196.7990  184.8338  153.8912 H   0  0  0  0  0  0  0  0  0  0  0  0
  196.6863  185.3057  156.2741 H   0  0  0  0  0  0  0  0  0  0  0  0
  195.0373  187.7050  160.6561 H   0  0  0  0  0  0  0  0  0  0  0  0
  194.4076  183.2305  160.1299 H   0  0  0  0  0  0  0  0  0  0  0  0
  195.5111  181.3724  158.8748 H   0  0  0  0  0  0  0  0  0  0  0  0
  197.5310  181.8405  157.5290 H   0  0  0  0  0  0  0  0  0  0  0  0
  198.5098  184.0844  157.4778 H   0  0  0  0  0  0  0  0  0  0  0  0
  1  2  1  0
  2  3  2  0
  2  8  1  0
  3  4  1  0
  3  5  1  0
  5  6  2  0
  5 31  1  0
  6  7  1  0
  6  9  1  0
  7  8  2  0
  7 32  1  0
  8 33  1  0
  9 10  2  0
  9 11  1  0
 11 12  1  0
 11 34  1  0
 12 13  2  0
 12 26  1  0
 13 14  1  0
 13 23  1  0
 14 15  1  0
 14 17  1  0
 15 16  3  0
 17 18  2  0
 17 22  1  0
 18 19  1  0
 18 35  1  0
 19 20  2  0
 19 36  1  0
 20 21  1  0
 20 37  1  0
 21 22  2  0
 21 38  1  0
 22 39  1  0
 23 24  1  0
 23 30  2  0
 24 25  1  0
 24 27  2  0
 25 26  2  0
 26 40  1  0
 27 28  1  0
 27 41  1  0
 28 29  2  0
 28 42  1  0
 29 30  1  0
 29 43  1  0
 30 44  1  0
M  END
>  <s_epik_cmdline>  (1485) 
J2VwaWtfcHl0aG9uJywgJy1waCcsICc3LjAwMDAwMCcsICctcGh0JywgJzIuMDAwMDAwJywgJy1tcycsICcxNicsICctdG4nLCAnOCcsICctbWEnLCAnMjAwJywgJy1pbWFlJywgJzxpbmZpbGUubWFlPicsICctb21hZScsICc8b3V0ZmlsZS5tYWU+Jw==

>  <s_epik_input>  (1485) 
Q2xjMWMoRilbY0hdYyhbY0hdW2NIXTEpQyg9TylbTkhdYyhbY0hdbmMoYzIzKVtjSF1bY0hdW2NIXVtjSF0zKWMyTihDI04pYzRbY0hdW2NIXVtjSF1bY0hdW2NIXTQ=

>  <s_i_glide_gridfile>  (1485) 
ATP-Grid

>  <s_lp_Force_Field>  (1485) 
OPLS_2005

>  <s_lp_Variant>  (1485) 
rxn502b____EMOL4849440____EMOL30488121____EMOL36822768-1

>  <s_lp_label>  (1485) 
3093_sdstereoexpander_1_neutralizer_1_epik_1_stereoizer_1

>  <s_m_source_file>  (1485) 
ATP-VSW-LIGPREP-002-in.maegz

>  <s_sd_BIOSOLVEIT.INFINISEE\_QUERY\_NAME>  (1485) 
Ref-Lig

>  <s_sd_BIOSOLVEIT.INFINISEE\_QUERY\_SMILES>  (1485) 
S(c1nc2c(cc1C[NH2+]Cc3ccc(cc3)C[NH+](C)C)cccc2)Cc4ccccc4

>  <s_sd_BIOSOLVEIT.INFINISEE\_REACTION\_NAME>  (1485) 
rxn502b

>  <s_sd_BIOSOLVEIT.INFINISEE\_REAGENT1\_NAME>  (1485) 
EMOL4849440

>  <s_sd_BIOSOLVEIT.INFINISEE\_REAGENT1\_SMILES>  (1485) 
Clc1c(F)cc(cc1)C(Cl)=O

>  <s_sd_BIOSOLVEIT.INFINISEE\_REAGENT2\_NAME>  (1485) 
EMOL30488121

>  <s_sd_BIOSOLVEIT.INFINISEE\_REAGENT2\_SMILES>  (1485) 
Brc1c(N)cnc2c1cccc2

>  <s_sd_BIOSOLVEIT.INFINISEE\_REAGENT3\_NAME>  (1485) 
EMOL36822768

>  <s_sd_BIOSOLVEIT.INFINISEE\_REAGENT3\_SMILES>  (1485) 
N#CNc1ccccc1

>  <s_sd_BIOSOLVEIT.INFINISEE\_SPACE>  (1485) 
eXplore_7tr_2022-12

>  <s_vsw_compound_code>  (1485) 
98946

>  <s_vsw_variant>  (1485) 
98946-1

>  <r_epik_Charging_Adjusted_Penalty>  (1485) 
0

>  <r_epik_Ionization_Penalty>  (1485) 
0.0019

>  <r_epik_Ionization_Penalty_Charging>  (1485) 
0

>  <r_epik_Ionization_Penalty_Neutral>  (1485) 
0.0019

>  <r_epik_State_Penalty>  (1485) 
-0

>  <r_i_docking_score>  (1485) 
-3.5148716185109201

>  <r_i_glide_ecoul>  (1485) 
-0.86676168441772505

>  <r_i_glide_eff_state_penalty>  (1485) 
-0

>  <r_i_glide_einternal>  (1485) 
1.7517069578170801

>  <r_i_glide_emodel>  (1485) 
-44.090943320535999

>  <r_i_glide_energy>  (1485) 
-36.734349727630601

>  <r_i_glide_erotb>  (1485) 
0.56861827962665701

>  <r_i_glide_esite>  (1485) 
-0.0198257246127139

>  <r_i_glide_evdw>  (1485) 
-35.867588043212898

>  <r_i_glide_gscore>  (1485) 
-3.5148716185109201

>  <r_i_glide_hbond>  (1485) 
0

>  <r_i_glide_ligand_efficiency>  (1485) 
-0.117162387283697

>  <r_i_glide_ligand_efficiency_ln>  (1485) 
-0.79861712931936002

>  <r_i_glide_ligand_efficiency_sa>  (1485) 
-0.36405077783032302

>  <r_i_glide_lipo>  (1485) 
-1.4613212154245001

>  <r_i_glide_metal>  (1485) 
-0

>  <r_i_glide_rewards>  (1485) 
-0.67894930327705205

>  <r_lp_Energy>  (1485) 
32.682191000000003

>  <r_lp_tautomer_probability>  (1485) 
1

>  <r_qp_ACxDN^.5/SA>  (1485) 
0.0079805999999999992

>  <r_qp_CIQPlogS>  (1485) 
-6.8109999999999999

>  <r_qp_EA(eV)>  (1485) 
1.5920000000000001

>  <r_qp_FISA>  (1485) 
125.25700000000001

>  <r_qp_FOSA>  (1485) 
0

>  <r_qp_IP(eV)>  (1485) 
9.016

>  <r_qp_Jm>  (1485) 
0.0025917047329346802

>  <r_qp_PISA>  (1485) 
454.08800000000002

>  <r_qp_PSA>  (1485) 
72.260999999999996

>  <r_qp_PercentHumanOralAbsorption>  (1485) 
100

>  <r_qp_QPPCaco>  (1485) 
642.82299999999998

>  <r_qp_QPPMDCK>  (1485) 
1226.1700000000001

>  <r_qp_QPlogBB>  (1485) 
-0.73399999999999999

>  <r_qp_QPlogHERG>  (1485) 
-6.7370000000000001

>  <r_qp_QPlogKhsa>  (1485) 
0.70999999999999996

>  <r_qp_QPlogKp>  (1485) 
-1.748

>  <r_qp_QPlogPC16>  (1485) 
14.326000000000001

>  <r_qp_QPlogPo/w>  (1485) 
4.8780000000000001

>  <r_qp_QPlogPoct>  (1485) 
20.420000000000002

>  <r_qp_QPlogPw>  (1485) 
11.135999999999999

>  <r_qp_QPlogS>  (1485) 
-6.4580000000000002

>  <r_qp_QPpolrz>  (1485) 
44.801000000000002

>  <r_qp_SASA>  (1485) 
689.17100000000005

>  <r_qp_SAamideO>  (1485) 
0

>  <r_qp_SAfluorine>  (1485) 
41.249000000000002

>  <r_qp_WPSA>  (1485) 
109.827

>  <r_qp_accptHB>  (1485) 
5.5

>  <r_qp_dip^2/V>  (1485) 
0.023545799999999999

>  <r_qp_dipole>  (1485) 
5.4139999999999997

>  <r_qp_donorHB>  (1485) 
1

>  <r_qp_glob>  (1485) 
0.81215680000000001

>  <r_qp_mol_MW>  (1485) 
416.84100000000001

>  <r_qp_volume>  (1485) 
1245.096

>  <r_sd_BIOSOLVEIT.INFINISEE\_FTREES\_SIMILARITY>  (1485) 
0.90100000000000002

>  <r_sd_BIOSOLVEIT.LOGP>  (1485) 
5.8987800000000004

>  <r_sd_BIOSOLVEIT.MOLECULAR\_WEIGHT>  (1485) 
416.84199999999998

>  <r_sd_BIOSOLVEIT.TPSA>  (1485) 
69.019999999999996

>  <i_epik_Tot_Q>  (1485) 
0

>  <i_epik_Tot_abs_Q>  (1485) 
0

>  <i_f3d_flags>  (1485) 
0

>  <i_i_glide_confnum>  (1485) 
5

>  <i_i_glide_lignum>  (1485) 
139

>  <i_i_glide_posenum>  (1485) 
17

>  <i_i_glide_rotatable_bonds>  (1485) 
5

>  <i_lp_mmshare_version>  (1485) 
65135

>  <i_m_ct_format>  (1485) 
2

>  <i_m_source_file_index>  (1485) 
3093

>  <i_qp_#NandO>  (1485) 
5

>  <i_qp_#acid>  (1485) 
0

>  <i_qp_#amide>  (1485) 
0

>  <i_qp_#amidine>  (1485) 
0

>  <i_qp_#amine>  (1485) 
0

>  <i_qp_#in34>  (1485) 
0

>  <i_qp_#in56>  (1485) 
22

>  <i_qp_#metab>  (1485) 
2

>  <i_qp_#nonHatm>  (1485) 
30

>  <i_qp_#noncon>  (1485) 
0

>  <i_qp_#ringatoms>  (1485) 
22

>  <i_qp_#rotor>  (1485) 
5

>  <i_qp_#rtvFG>  (1485) 
0

>  <i_qp_#stars>  (1485) 
1

>  <i_qp_CNS>  (1485) 
-1

>  <i_qp_HumanOralAbsorption>  (1485) 
1

>  <i_qp_RuleOfFive>  (1485) 
0

>  <i_qp_RuleOfThree>  (1485) 
1

>  <i_sd_BIOSOLVEIT.INFINISEE\_RESULT\_RANK>  (1485) 
96097

>  <i_sd_version>  (1485) 
0

>  <b_lp_Chiralities_Consistent>  (1485) 
1

>  <b_sd_chiral_flag>  (1485) 
0

>  <canonical_id>  (1485) 
ATP-HTVS-E8C4233BC4EE

>  <compound_code>  (1485) 
98946

>  <title>  (1485) 
rxn502b____EMOL4849440____EMOL30488121____EMOL36822768

>  <variant>  (1485) 
98946-1

>  <source_file>  (1485) 
运行/运行/ATP-VSW/ATP-VSW-DOCK_HTVS_1-003_lib/ATP-VSW-DOCK_HTVS_1-003_lib.mae

>  <canonical_smiles>  (1485) 
N#CN(c1ccccc1)c1c(NC(=O)c2ccc(Cl)c(F)c2)cnc2ccccc12

>  <scaffold>  (1485) 
O=C(Nc1cnc2ccccc2c1Nc1ccccc1)c1ccccc1

>  <molecular_formula>  (1485) 
C23H14ClFN4O

$$$$
ATP-HTVS-E8F6FC3C759E
     RDKit          3D

 58 61  0  0  0  0  0  0  0  0999 V2000
  198.6183  185.8856  152.3051 S   0  0  0  0  0  0  0  0  0  0  0  0
  198.3566  185.2092  150.7145 C   0  0  0  0  0  0  0  0  0  0  0  0
  197.5427  184.0317  150.7729 C   0  0  0  0  0  0  0  0  0  0  0  0
  197.2220  183.4225  149.5373 C   0  0  0  0  0  0  0  0  0  0  0  0
  197.6876  183.9404  148.3141 C   0  0  0  0  0  0  0  0  0  0  0  0
  198.5057  185.0808  148.3004 C   0  0  0  0  0  0  0  0  0  0  0  0
  198.8414  185.7173  149.5035 C   0  0  0  0  0  0  0  0  0  0  0  0
  197.1846  183.7016  152.1352 C   0  0  0  0  0  0  0  0  0  0  0  0
  196.3493  182.6006  152.4332 N   0  0  0  0  0  0  0  0  0  0  0  0
  196.7719  181.2130  152.3673 C   0  0  1  0  0  0  0  0  0  0  0  0
  197.6313  180.7595  153.5385 C   0  0  0  0  0  0  0  0  0  0  0  0
  197.1319  180.7729  154.8617 C   0  0  0  0  0  0  0  0  0  0  0  0
  197.9503  180.3465  155.9308 C   0  0  0  0  0  0  0  0  0  0  0  0
  199.2601  179.8968  155.6856 C   0  0  0  0  0  0  0  0  0  0  0  0
  199.7558  179.8861  154.3650 C   0  0  0  0  0  0  0  0  0  0  0  0
  198.9424  180.3040  153.2989 C   0  0  0  0  0  0  0  0  0  0  0  0
  200.1387  179.3812  156.8201 C   0  0  1  0  0  0  0  0  0  0  0  0
  199.9474  177.9310  157.0957 N   0  0  2  0  0  0  0  0  0  0  0  0
  200.9071  177.4319  158.1079 C   0  0  2  0  0  0  0  0  0  0  0  0
  199.9421  177.0748  155.8871 C   0  0  2  0  0  0  0  0  0  0  0  0
  197.6454  184.6372  153.0306 C   0  0  0  0  0  0  0  0  0  0  0  0
  197.5792  184.6957  154.5043 C   0  0  0  0  0  0  0  0  0  0  0  0
  197.8387  183.6901  155.1587 O   0  0  0  0  0  0  0  0  0  0  0  0
  197.2351  185.8738  155.0541 N   0  0  0  0  0  0  0  0  0  0  0  0
  197.1373  186.1697  156.4452 C   0  0  0  0  0  0  0  0  0  0  0  0
  196.7695  185.1924  157.4039 C   0  0  0  0  0  0  0  0  0  0  0  0
  196.6420  185.5250  158.7597 C   0  0  0  0  0  0  0  0  0  0  0  0
  196.8434  186.8493  159.1813 C   0  0  0  0  0  0  0  0  0  0  0  0
  196.6869  187.1687  160.5280 N   0  0  0  0  0  0  0  0  0  0  0  0
  197.1900  187.8391  158.2368 C   0  0  0  0  0  0  0  0  0  0  0  0
  197.3239  187.5042  156.8704 C   0  0  0  0  0  0  0  0  0  0  0  0
  196.5890  182.5482  149.5529 H   0  0  0  0  0  0  0  0  0  0  0  0
  197.4249  183.4609  147.3841 H   0  0  0  0  0  0  0  0  0  0  0  0
  198.8793  185.4715  147.3684 H   0  0  0  0  0  0  0  0  0  0  0  0
  199.4585  186.6025  149.5103 H   0  0  0  0  0  0  0  0  0  0  0  0
  195.7090  182.7982  153.1949 H   0  0  0  0  0  0  0  0  0  0  0  0
  195.8813  180.5870  152.3452 H   0  0  0  0  0  0  0  0  0  0  0  0
  197.2963  181.0462  151.4214 H   0  0  0  0  0  0  0  0  0  0  0  0
  196.1241  181.1043  155.0670 H   0  0  0  0  0  0  0  0  0  0  0  0
  197.5488  180.3506  156.9377 H   0  0  0  0  0  0  0  0  0  0  0  0
  200.7468  179.5236  154.1596 H   0  0  0  0  0  0  0  0  0  0  0  0
  199.3167  180.2500  152.2877 H   0  0  0  0  0  0  0  0  0  0  0  0
  201.1914  179.5766  156.5819 H   0  0  0  0  0  0  0  0  0  0  0  0
  199.9292  179.9600  157.7233 H   0  0  0  0  0  0  0  0  0  0  0  0
  201.9402  177.5583  157.7656 H   0  0  0  0  0  0  0  0  0  0  0  0
  200.7431  176.3689  158.2888 H   0  0  0  0  0  0  0  0  0  0  0  0
  200.7983  177.9485  159.0658 H   0  0  0  0  0  0  0  0  0  0  0  0
  200.8946  177.1576  155.3624 H   0  0  0  0  0  0  0  0  0  0  0  0
  199.1411  177.3390  155.2006 H   0  0  0  0  0  0  0  0  0  0  0  0
  199.7793  176.0267  156.1408 H   0  0  0  0  0  0  0  0  0  0  0  0
  197.0637  186.6428  154.4121 H   0  0  0  0  0  0  0  0  0  0  0  0
  196.5216  184.1769  157.1353 H   0  0  0  0  0  0  0  0  0  0  0  0
  196.3613  184.7596  159.4638 H   0  0  0  0  0  0  0  0  0  0  0  0
  196.9819  188.0663  160.8946 H   0  0  0  0  0  0  0  0  0  0  0  0
  196.5874  186.4267  161.2023 H   0  0  0  0  0  0  0  0  0  0  0  0
  197.3415  188.8634  158.5556 H   0  0  0  0  0  0  0  0  0  0  0  0
  197.5543  188.2760  156.1473 H   0  0  0  0  0  0  0  0  0  0  0  0
  199.0124  177.8359  157.5006 H   0  0  0  0  0  0  0  0  0  0  0  0
  1  2  1  0
  1 21  1  0
  2  3  1  0
  2  7  2  0
  3  4  2  0
  3  8  1  0
  4  5  1  0
  4 32  1  0
  5  6  2  0
  5 33  1  0
  6  7  1  0
  6 34  1  0
  7 35  1  0
  8  9  1  0
  8 21  2  0
  9 10  1  0
  9 36  1  0
 10 11  1  0
 10 37  1  6
 10 38  1  0
 11 12  1  0
 11 16  2  0
 12 13  2  0
 12 39  1  0
 13 14  1  0
 13 40  1  0
 14 15  2  0
 14 17  1  0
 15 16  1  0
 15 41  1  0
 16 42  1  0
 17 18  1  0
 17 43  1  6
 17 44  1  0
 18 19  1  0
 18 20  1  0
 18 58  1  1
 19 45  1  6
 19 46  1  0
 19 47  1  0
 20 48  1  6
 20 49  1  0
 20 50  1  0
 21 22  1  0
 22 23  2  0
 22 24  1  0
 24 25  1  0
 24 51  1  0
 25 26  1  0
 25 31  2  0
 26 27  2  0
 26 52  1  0
 27 28  1  0
 27 53  1  0
 28 29  1  0
 28 30  2  0
 29 54  1  0
 29 55  1  0
 30 31  1  0
 30 56  1  0
 31 57  1  0
M  CHG  1  18   1
M  END
>  <s_epik_cmdline>  (1486) 
J2VwaWtfcHl0aG9uJywgJy1waCcsICc3LjAwMDAwMCcsICctcGh0JywgJzIuMDAwMDAwJywgJy1tcycsICcxNicsICctdG4nLCAnOCcsICctbWEnLCAnMjAwJywgJy1pbWFlJywgJzxpbmZpbGUubWFlPicsICctb21hZScsICc8b3V0ZmlsZS5tYWU+Jw==

>  <s_epik_input>  (1486) 
W2NIXTFbY0hdYyhbTkgyXSlbY0hdW2NIXWMxW05IXUMoPU8pYyhzMiljKGMoYzIzKVtjSF1bY0hdW2NIXVtjSF0zKVtOSF1bQ0gyXWM0W2NIXVtjSF1jKFtjSF1bY0hdNClbQ0gyXU4oW0NIM10pW0NIM10=

>  <s_i_glide_gridfile>  (1486) 
ATP-Grid

>  <s_lp_Force_Field>  (1486) 
OPLS_2005

>  <s_lp_Variant>  (1486) 
rxn512c____EMOL493827____EMOL523944____EMOL50155899-1

>  <s_lp_label>  (1486) 
2295_sdstereoexpander_1_neutralizer_1_epik_1_stereoizer_1

>  <s_m_source_file>  (1486) 
ATP-VSW-LIGPREP-003-in.maegz

>  <s_sd_BIOSOLVEIT.INFINISEE\_QUERY\_NAME>  (1486) 
Ref-Lig

>  <s_sd_BIOSOLVEIT.INFINISEE\_QUERY\_SMILES>  (1486) 
S(c1nc2c(cc1C[NH2+]Cc3ccc(cc3)C[NH+](C)C)cccc2)Cc4ccccc4

>  <s_sd_BIOSOLVEIT.INFINISEE\_REACTION\_NAME>  (1486) 
rxn512c

>  <s_sd_BIOSOLVEIT.INFINISEE\_REAGENT1\_NAME>  (1486) 
EMOL493827

>  <s_sd_BIOSOLVEIT.INFINISEE\_REAGENT1\_SMILES>  (1486) 
Nc1ccc(N)cc1

>  <s_sd_BIOSOLVEIT.INFINISEE\_REAGENT2\_NAME>  (1486) 
EMOL523944

>  <s_sd_BIOSOLVEIT.INFINISEE\_REAGENT2\_SMILES>  (1486) 
ClC=1c2c(SC1C(=O)O)cccc2

>  <s_sd_BIOSOLVEIT.INFINISEE\_REAGENT3\_NAME>  (1486) 
EMOL50155899

>  <s_sd_BIOSOLVEIT.INFINISEE\_REAGENT3\_SMILES>  (1486) 
N(Cc1ccc(cc1)CN)(C)C

>  <s_sd_BIOSOLVEIT.INFINISEE\_SPACE>  (1486) 
eXplore_7tr_2022-12

>  <s_vsw_compound_code>  (1486) 
73411

>  <s_vsw_variant>  (1486) 
73411-1

>  <r_epik_Charging_Adjusted_Penalty>  (1486) 
0.080189274810459593

>  <r_epik_Ionization_Penalty>  (1486) 
0.042200000000000001

>  <r_epik_Ionization_Penalty_Charging>  (1486) 
0.040099999999999997

>  <r_epik_Ionization_Penalty_Neutral>  (1486) 
0.0020999999999999999

>  <r_epik_State_Penalty>  (1486) 
0.040099999999999997

>  <r_i_docking_score>  (1486) 
-5.5961029304799403

>  <r_i_glide_ecoul>  (1486) 
-10.767991065979

>  <r_i_glide_eff_state_penalty>  (1486) 
0.040099999999999997

>  <r_i_glide_einternal>  (1486) 
10.545228958129901

>  <r_i_glide_emodel>  (1486) 
-62.412069553834499

>  <r_i_glide_energy>  (1486) 
-45.733498573303201

>  <r_i_glide_erotb>  (1486) 
0.74755813993047004

>  <r_i_glide_esite>  (1486) 
-0.16534544415317701

>  <r_i_glide_evdw>  (1486) 
-34.965507507324197

>  <r_i_glide_gscore>  (1486) 
-5.6362029304799401

>  <r_i_glide_hbond>  (1486) 
-0.63018978029655004

>  <r_i_glide_ligand_efficiency>  (1486) 
-0.18051944937032099

>  <r_i_glide_ligand_efficiency_ln>  (1486) 
-1.2620927107816799

>  <r_i_glide_ligand_efficiency_sa>  (1486) 
-0.56708030498315798

>  <r_i_glide_lipo>  (1486) 
-1.7185908681950599

>  <r_i_glide_metal>  (1486) 
-0

>  <r_i_glide_rewards>  (1486) 
-0.50616094250255905

>  <r_lp_Energy>  (1486) 
37.390794

>  <r_qp_ACxDN^.5/SA>  (1486) 
0.0110072

>  <r_qp_CIQPlogS>  (1486) 
-4.8090000000000002

>  <r_qp_EA(eV)>  (1486) 
0.72499999999999998

>  <r_qp_FISA>  (1486) 
107.43899999999999

>  <r_qp_FOSA>  (1486) 
202.684

>  <r_qp_IP(eV)>  (1486) 
7.7300000000000004

>  <r_qp_Jm>  (1486) 
3.3396939373995701e-05

>  <r_qp_PISA>  (1486) 
444.35000000000002

>  <r_qp_PSA>  (1486) 
77.400999999999996

>  <r_qp_PercentHumanOralAbsorption>  (1486) 
84.108999999999995

>  <r_qp_QPPCaco>  (1486) 
59.000999999999998

>  <r_qp_QPPMDCK>  (1486) 
44.512

>  <r_qp_QPlogBB>  (1486) 
-0.254

>  <r_qp_QPlogHERG>  (1486) 
-8.8870000000000005

>  <r_qp_QPlogKhsa>  (1486) 
0.88800000000000001

>  <r_qp_QPlogKp>  (1486) 
-5.2910000000000004

>  <r_qp_QPlogPC16>  (1486) 
16.148

>  <r_qp_QPlogPo/w>  (1486) 
4.3499999999999996

>  <r_qp_QPlogPoct>  (1486) 
23.073

>  <r_qp_QPlogPw>  (1486) 
12.701000000000001

>  <r_qp_QPlogS>  (1486) 
-4.819

>  <r_qp_QPpolrz>  (1486) 
48.996000000000002

>  <r_qp_SASA>  (1486) 
790.05499999999995

>  <r_qp_SAamideO>  (1486) 
0

>  <r_qp_SAfluorine>  (1486) 
0

>  <r_qp_WPSA>  (1486) 
35.582999999999998

>  <r_qp_accptHB>  (1486) 
5.5

>  <r_qp_dip^2/V>  (1486) 
0.0047272

>  <r_qp_dipole>  (1486) 
2.573

>  <r_qp_donorHB>  (1486) 
2.5

>  <r_qp_glob>  (1486) 
0.76619409999999999

>  <r_qp_mol_MW>  (1486) 
430.56700000000001

>  <r_qp_volume>  (1486) 
1400.383

>  <r_sd_BIOSOLVEIT.INFINISEE\_FTREES\_SIMILARITY>  (1486) 
0.92300000000000004

>  <r_sd_BIOSOLVEIT.LOGP>  (1486) 
3.9923999999999999

>  <r_sd_BIOSOLVEIT.MOLECULAR\_WEIGHT>  (1486) 
431.57999999999998

>  <r_sd_BIOSOLVEIT.TPSA>  (1486) 
71.590000000000003

>  <i_epik_Tot_Q>  (1486) 
1

>  <i_epik_Tot_abs_Q>  (1486) 
1

>  <i_f3d_flags>  (1486) 
0

>  <i_i_glide_confnum>  (1486) 
4

>  <i_i_glide_lignum>  (1486) 
939

>  <i_i_glide_posenum>  (1486) 
19

>  <i_i_glide_rotatable_bonds>  (1486) 
8

>  <i_lp_mmshare_version>  (1486) 
65135

>  <i_m_ct_format>  (1486) 
2

>  <i_m_source_file_index>  (1486) 
2295

>  <i_qp_#NandO>  (1486) 
5

>  <i_qp_#acid>  (1486) 
0

>  <i_qp_#amide>  (1486) 
0

>  <i_qp_#amidine>  (1486) 
0

>  <i_qp_#amine>  (1486) 
2

>  <i_qp_#in34>  (1486) 
0

>  <i_qp_#in56>  (1486) 
21

>  <i_qp_#metab>  (1486) 
7

>  <i_qp_#nonHatm>  (1486) 
31

>  <i_qp_#noncon>  (1486) 
0

>  <i_qp_#ringatoms>  (1486) 
21

>  <i_qp_#rotor>  (1486) 
8

>  <i_qp_#rtvFG>  (1486) 
0

>  <i_qp_#stars>  (1486) 
1

>  <i_qp_CNS>  (1486) 
0

>  <i_qp_HumanOralAbsorption>  (1486) 
2

>  <i_qp_RuleOfFive>  (1486) 
0

>  <i_qp_RuleOfThree>  (1486) 
1

>  <i_sd_BIOSOLVEIT.INFINISEE\_RESULT\_RANK>  (1486) 
11267

>  <i_sd_version>  (1486) 
0

>  <b_lp_Chiralities_Consistent>  (1486) 
1

>  <b_sd_chiral_flag>  (1486) 
0

>  <canonical_id>  (1486) 
ATP-HTVS-E8F6FC3C759E

>  <compound_code>  (1486) 
73411

>  <title>  (1486) 
rxn512c____EMOL493827____EMOL523944____EMOL50155899

>  <variant>  (1486) 
73411-1

>  <source_file>  (1486) 
运行/运行/ATP-VSW/ATP-VSW-DOCK_HTVS_1-003_lib/ATP-VSW-DOCK_HTVS_1-003_lib.mae

>  <canonical_smiles>  (1486) 
C[NH+](C)Cc1ccc(CNc2c(C(=O)Nc3ccc(N)cc3)sc3ccccc23)cc1

>  <scaffold>  (1486) 
O=C(Nc1ccccc1)c1sc2ccccc2c1NCc1ccccc1

>  <molecular_formula>  (1486) 
C25H27N4OS+

$$$$
ATP-HTVS-E912078D9741
     RDKit          3D

 65 68  0  0  0  0  0  0  0  0999 V2000
  200.1890  180.8415  152.9799 O   0  0  0  0  0  0  0  0  0  0  0  0
  199.2013  181.3382  153.5209 C   0  0  0  0  0  0  0  0  0  0  0  0
  198.0286  180.7423  153.8399 N   0  0  0  0  0  0  0  0  0  0  0  0
  197.0713  181.6509  154.5214 C   0  0  2  0  0  0  0  0  0  0  0  0
  197.8147  182.9720  154.4633 C   0  0  0  0  0  0  0  0  0  0  0  0
  199.0613  182.7602  153.9062 C   0  0  0  0  0  0  0  0  0  0  0  0
  199.9878  183.8088  153.7360 C   0  0  0  0  0  0  0  0  0  0  0  0
  199.6020  185.1018  154.1602 C   0  0  0  0  0  0  0  0  0  0  0  0
  198.3142  185.3254  154.7096 C   0  0  0  0  0  0  0  0  0  0  0  0
  197.4078  184.2568  154.8762 C   0  0  0  0  0  0  0  0  0  0  0  0
  196.7967  181.2065  155.9835 C   0  0  1  0  0  0  0  0  0  0  0  0
  195.9528  182.1817  156.7044 N   0  0  1  0  0  0  0  0  0  0  0  0
  195.8134  181.9580  158.1622 C   0  0  1  0  0  0  0  0  0  0  0  0
  195.7124  183.2870  158.9066 C   0  0  0  0  0  0  0  0  0  0  0  0
  196.8819  184.0274  159.1954 C   0  0  0  0  0  0  0  0  0  0  0  0
  198.0742  183.5178  158.7346 O   0  0  0  0  0  0  0  0  0  0  0  0
  199.2683  184.2376  158.9729 C   0  0  1  0  0  0  0  0  0  0  0  0
  199.3625  185.4756  158.0354 C   0  0  1  0  0  0  0  0  0  0  0  0
  200.6273  186.2415  158.1548 N   0  0  1  0  0  0  0  0  0  0  0  0
  200.7963  186.9008  159.4693 C   0  0  2  0  0  0  0  0  0  0  0  0
  201.8186  185.4758  157.7250 C   0  0  2  0  0  0  0  0  0  0  0  0
  196.7791  185.2357  159.9284 C   0  0  0  0  0  0  0  0  0  0  0  0
  195.5252  185.7206  160.3345 C   0  0  0  0  0  0  0  0  0  0  0  0
  194.3654  184.9875  160.0329 C   0  0  0  0  0  0  0  0  0  0  0  0
  194.4531  183.7803  159.3156 C   0  0  0  0  0  0  0  0  0  0  0  0
  197.6594  179.3821  153.4485 C   0  0  1  0  0  0  0  0  0  0  0  0
  197.4924  179.1931  151.9461 C   0  0  0  0  0  0  0  0  0  0  0  0
  196.3553  179.7103  151.2918 C   0  0  0  0  0  0  0  0  0  0  0  0
  196.1957  179.5245  149.9026 C   0  0  0  0  0  0  0  0  0  0  0  0
  197.1688  178.8252  149.1648 C   0  0  0  0  0  0  0  0  0  0  0  0
  198.3040  178.3085  149.8150 C   0  0  0  0  0  0  0  0  0  0  0  0
  198.4648  178.4900  151.2017 C   0  0  0  0  0  0  0  0  0  0  0  0
  196.4056  183.0725  156.5909 H   0  0  0  0  0  0  0  0  0  0  0  0
  196.1512  181.7301  153.9469 H   0  0  0  0  0  0  0  0  0  0  0  0
  200.9613  183.6244  153.3031 H   0  0  0  0  0  0  0  0  0  0  0  0
  200.2920  185.9264  154.0615 H   0  0  0  0  0  0  0  0  0  0  0  0
  198.0293  186.3139  155.0310 H   0  0  0  0  0  0  0  0  0  0  0  0
  196.4344  184.4388  155.3054 H   0  0  0  0  0  0  0  0  0  0  0  0
  196.3096  180.2327  155.9930 H   0  0  0  0  0  0  0  0  0  0  0  0
  197.7512  181.0752  156.4978 H   0  0  0  0  0  0  0  0  0  0  0  0
  194.9233  181.3493  158.3425 H   0  0  0  0  0  0  0  0  0  0  0  0
  196.6608  181.3868  158.5582 H   0  0  0  0  0  0  0  0  0  0  0  0
  199.3809  184.4670  160.0334 H   0  0  0  0  0  0  0  0  0  0  0  0
  200.0554  183.5264  158.7316 H   0  0  0  0  0  0  0  0  0  0  0  0
  199.2861  185.1141  157.0109 H   0  0  0  0  0  0  0  0  0  0  0  0
  198.5472  186.1984  158.1636 H   0  0  0  0  0  0  0  0  0  0  0  0
  200.9284  186.1687  160.2664 H   0  0  0  0  0  0  0  0  0  0  0  0
  199.9244  187.5117  159.7114 H   0  0  0  0  0  0  0  0  0  0  0  0
  201.6680  187.5578  159.4673 H   0  0  0  0  0  0  0  0  0  0  0  0
  202.0099  184.6230  158.3779 H   0  0  0  0  0  0  0  0  0  0  0  0
  202.7094  186.1064  157.7253 H   0  0  0  0  0  0  0  0  0  0  0  0
  201.6819  185.0984  156.7103 H   0  0  0  0  0  0  0  0  0  0  0  0
  197.6385  185.8263  160.2041 H   0  0  0  0  0  0  0  0  0  0  0  0
  195.4669  186.6547  160.8764 H   0  0  0  0  0  0  0  0  0  0  0  0
  193.4043  185.3608  160.3546 H   0  0  0  0  0  0  0  0  0  0  0  0
  193.5572  183.2253  159.0914 H   0  0  0  0  0  0  0  0  0  0  0  0
  198.4024  178.6801  153.8335 H   0  0  0  0  0  0  0  0  0  0  0  0
  196.7206  179.1075  153.9279 H   0  0  0  0  0  0  0  0  0  0  0  0
  195.5977  180.2355  151.8508 H   0  0  0  0  0  0  0  0  0  0  0  0
  195.3148  179.8922  149.4055 H   0  0  0  0  0  0  0  0  0  0  0  0
  197.0387  178.6755  148.1012 H   0  0  0  0  0  0  0  0  0  0  0  0
  199.0458  177.7622  149.2468 H   0  0  0  0  0  0  0  0  0  0  0  0
  199.3383  178.0894  151.6955 H   0  0  0  0  0  0  0  0  0  0  0  0
  200.5342  186.9991  157.4946 H   0  0  0  0  0  0  0  0  0  0  0  0
  195.0232  182.2371  156.2732 H   0  0  0  0  0  0  0  0  0  0  0  0
  1  2  2  0
  2  3  1  0
  2  6  1  0
  3  4  1  0
  3 26  1  0
  4  5  1  0
  4 11  1  0
  4 34  1  6
  5  6  1  0
  5 10  2  0
  6  7  2  0
  7  8  1  0
  7 35  1  0
  8  9  2  0
  8 36  1  0
  9 10  1  0
  9 37  1  0
 10 38  1  0
 11 12  1  0
 11 39  1  6
 11 40  1  0
 12 13  1  0
 12 33  1  1
 12 65  1  0
 13 14  1  0
 13 41  1  6
 13 42  1  0
 14 15  1  0
 14 25  2  0
 15 16  1  0
 15 22  2  0
 16 17  1  0
 17 18  1  0
 17 43  1  1
 17 44  1  0
 18 19  1  0
 18 45  1  6
 18 46  1  0
 19 20  1  0
 19 21  1  0
 19 64  1  6
 20 47  1  1
 20 48  1  0
 20 49  1  0
 21 50  1  1
 21 51  1  0
 21 52  1  0
 22 23  1  0
 22 53  1  0
 23 24  2  0
 23 54  1  0
 24 25  1  0
 24 55  1  0
 25 56  1  0
 26 27  1  0
 26 57  1  1
 26 58  1  0
 27 28  2  0
 27 32  1  0
 28 29  1  0
 28 59  1  0
 29 30  2  0
 29 60  1  0
 30 31  1  0
 30 61  1  0
 31 32  2  0
 31 62  1  0
 32 63  1  0
M  CHG  2  12   1  19   1
M  END
>  <s_epik_cmdline>  (1487) 
J2VwaWtfcHl0aG9uJywgJy1waCcsICc3LjAwMDAwMCcsICctcGh0JywgJzIuMDAwMDAwJywgJy1tcycsICcxNicsICctdG4nLCAnOCcsICctbWEnLCAnMjAwJywgJy1pbWFlJywgJzxpbmZpbGUubWFlPicsICctb21hZScsICc8b3V0ZmlsZS5tYWU+Jw==

>  <s_epik_input>  (1487) 
W2NIXTFbY0hdW2NIXVtjSF1bY0hdYzFbQ0gyXU4oQyg9TyljKGMyMylbY0hdW2NIXVtjSF1bY0hdMylbQ0BIXTJbQ0gyXVtOSF1bQ0gyXWM0YyhbY0hdW2NIXVtjSF1bY0hdNClPW0NIMl1bQ0gyXU4oW0NIM10pW0NIM10=

>  <s_i_glide_gridfile>  (1487) 
ATP-Grid

>  <s_lp_Force_Field>  (1487) 
OPLS_2005

>  <s_lp_Variant>  (1487) 
a4____241569____436756-1

>  <s_lp_label>  (1487) 
175_sdstereoexpander_1_neutralizer_1_epik_1_stereoizer_1

>  <s_m_source_file>  (1487) 
ATP-VSW-LIGPREP-003-in.maegz

>  <s_sd_BIOSOLVEIT.INFINISEE\_QUERY\_NAME>  (1487) 
Ref-Lig

>  <s_sd_BIOSOLVEIT.INFINISEE\_QUERY\_SMILES>  (1487) 
S(c1nc2c(cc1C[NH2+]Cc3ccc(cc3)C[NH+](C)C)cccc2)Cc4ccccc4

>  <s_sd_BIOSOLVEIT.INFINISEE\_REACTION\_NAME>  (1487) 
a4

>  <s_sd_BIOSOLVEIT.INFINISEE\_REAGENT1\_SMILES>  (1487) 
[R1*]NCC1N(C(=O)c2c1cccc2)Cc3ccccc3

>  <s_sd_BIOSOLVEIT.INFINISEE\_REAGENT2\_SMILES>  (1487) 
[R1*]Cc1c(OCCN(C)C)cccc1

>  <s_sd_BIOSOLVEIT.INFINISEE\_SPACE>  (1487) 
FreedomSpace_5bn_2023-06

>  <s_vsw_compound_code>  (1487) 
5571

>  <s_vsw_variant>  (1487) 
5571-1

>  <r_epik_Charging_Adjusted_Penalty>  (1487) 
0.167479455107377

>  <r_epik_Ionization_Penalty>  (1487) 
0.084000000000000005

>  <r_epik_Ionization_Penalty_Charging>  (1487) 
0.084000000000000005

>  <r_epik_Ionization_Penalty_Neutral>  (1487) 
0

>  <r_epik_State_Penalty>  (1487) 
0.083500000000000005

>  <r_i_docking_score>  (1487) 
-5.1242756747561904

>  <r_i_glide_ecoul>  (1487) 
-12.5873670578003

>  <r_i_glide_eff_state_penalty>  (1487) 
0.083500000000000005

>  <r_i_glide_einternal>  (1487) 
4.0134210586547896

>  <r_i_glide_emodel>  (1487) 
-64.653416414766397

>  <r_i_glide_energy>  (1487) 
-44.103571891784703

>  <r_i_glide_erotb>  (1487) 
0.961163370027871

>  <r_i_glide_esite>  (1487) 
-0.096560382091971

>  <r_i_glide_evdw>  (1487) 
-31.5162048339844

>  <r_i_glide_gscore>  (1487) 
-5.2077756747561903

>  <r_i_glide_hbond>  (1487) 
-0.20000000000000001

>  <r_i_glide_ligand_efficiency>  (1487) 
-0.16013361483613101

>  <r_i_glide_ligand_efficiency_ln>  (1487) 
-1.14746500605726

>  <r_i_glide_ligand_efficiency_sa>  (1487) 
-0.50839253670537099

>  <r_i_glide_lipo>  (1487) 
-1.9418939532319199

>  <r_i_glide_metal>  (1487) 
-0

>  <r_i_glide_rewards>  (1487) 
-0.46656940909090799

>  <r_lp_Energy>  (1487) 
57.922688999999998

>  <r_lp_tautomer_probability>  (1487) 
1

>  <r_qp_ACxDN^.5/SA>  (1487) 
0.0107733

>  <r_qp_CIQPlogS>  (1487) 
-4.1379999999999999

>  <r_qp_EA(eV)>  (1487) 
0.191

>  <r_qp_FISA>  (1487) 
15.592000000000001

>  <r_qp_FOSA>  (1487) 
264.92500000000001

>  <r_qp_IP(eV)>  (1487) 
8.8219999999999992

>  <r_qp_Jm>  (1487) 
1.8262858636444601

>  <r_qp_PISA>  (1487) 
392.44

>  <r_qp_PSA>  (1487) 
47.703000000000003

>  <r_qp_PercentHumanOralAbsorption>  (1487) 
100

>  <r_qp_QPPCaco>  (1487) 
438.36900000000003

>  <r_qp_QPPMDCK>  (1487) 
248.30199999999999

>  <r_qp_QPlogBB>  (1487) 
0.622

>  <r_qp_QPlogHERG>  (1487) 
-6.9029999999999996

>  <r_qp_QPlogKhsa>  (1487) 
0.42699999999999999

>  <r_qp_QPlogKp>  (1487) 
-3.5899999999999999

>  <r_qp_QPlogPC16>  (1487) 
13.722

>  <r_qp_QPlogPo/w>  (1487) 
3.9830000000000001

>  <r_qp_QPlogPoct>  (1487) 
20.103999999999999

>  <r_qp_QPlogPw>  (1487) 
10.513999999999999

>  <r_qp_QPlogS>  (1487) 
-1.782

>  <r_qp_QPpolrz>  (1487) 
44.802999999999997

>  <r_qp_SASA>  (1487) 
672.95699999999999

>  <r_qp_SAamideO>  (1487) 
0

>  <r_qp_SAfluorine>  (1487) 
0

>  <r_qp_WPSA>  (1487) 
0

>  <r_qp_accptHB>  (1487) 
7.25

>  <r_qp_dip^2/V>  (1487) 
0.0097219999999999997

>  <r_qp_dipole>  (1487) 
3.609

>  <r_qp_donorHB>  (1487) 
1

>  <r_qp_glob>  (1487) 
0.87350170000000005

>  <r_qp_mol_MW>  (1487) 
429.56099999999998

>  <r_qp_volume>  (1487) 
1340.075

>  <r_sd_BIOSOLVEIT.INFINISEE\_FTREES\_SIMILARITY>  (1487) 
0.93200000000000005

>  <r_sd_BIOSOLVEIT.LOGP>  (1487) 
1.6706000000000001

>  <r_sd_BIOSOLVEIT.MOLECULAR\_WEIGHT>  (1487) 
431.577

>  <r_sd_BIOSOLVEIT.TPSA>  (1487) 
50.590000000000003

>  <i_epik_Tot_Q>  (1487) 
2

>  <i_epik_Tot_abs_Q>  (1487) 
2

>  <i_f3d_flags>  (1487) 
0

>  <i_i_glide_confnum>  (1487) 
2

>  <i_i_glide_lignum>  (1487) 
213

>  <i_i_glide_posenum>  (1487) 
13

>  <i_i_glide_rotatable_bonds>  (1487) 
10

>  <i_lp_mmshare_version>  (1487) 
65135

>  <i_m_ct_format>  (1487) 
2

>  <i_m_source_file_index>  (1487) 
175

>  <i_qp_#NandO>  (1487) 
5

>  <i_qp_#acid>  (1487) 
0

>  <i_qp_#amide>  (1487) 
0

>  <i_qp_#amidine>  (1487) 
0

>  <i_qp_#amine>  (1487) 
2

>  <i_qp_#in34>  (1487) 
0

>  <i_qp_#in56>  (1487) 
21

>  <i_qp_#metab>  (1487) 
6

>  <i_qp_#nonHatm>  (1487) 
32

>  <i_qp_#noncon>  (1487) 
1

>  <i_qp_#ringatoms>  (1487) 
21

>  <i_qp_#rotor>  (1487) 
10

>  <i_qp_#rtvFG>  (1487) 
0

>  <i_qp_#stars>  (1487) 
0

>  <i_qp_CNS>  (1487) 
2

>  <i_qp_HumanOralAbsorption>  (1487) 
3

>  <i_qp_RuleOfFive>  (1487) 
0

>  <i_qp_RuleOfThree>  (1487) 
0

>  <i_sd_BIOSOLVEIT.INFINISEE\_REAGENT1\_NAME>  (1487) 
241569

>  <i_sd_BIOSOLVEIT.INFINISEE\_REAGENT2\_NAME>  (1487) 
436756

>  <i_sd_BIOSOLVEIT.INFINISEE\_RESULT\_RANK>  (1487) 
3852

>  <i_sd_version>  (1487) 
0

>  <b_lp_Chiralities_Consistent>  (1487) 
1

>  <b_sd_chiral_flag>  (1487) 
0

>  <canonical_id>  (1487) 
ATP-HTVS-E912078D9741

>  <compound_code>  (1487) 
5571

>  <title>  (1487) 
a4____241569____436756

>  <variant>  (1487) 
5571-1

>  <source_file>  (1487) 
运行/运行/ATP-VSW/ATP-VSW-DOCK_HTVS_1-003_lib/ATP-VSW-DOCK_HTVS_1-003_lib.mae

>  <canonical_smiles>  (1487) 
C[NH+](C)CCOc1ccccc1C[NH2+]C[C@H]1c2ccccc2C(=O)N1Cc1ccccc1

>  <scaffold>  (1487) 
O=C1c2ccccc2C(C[NH2+]Cc2ccccc2)N1Cc1ccccc1

>  <molecular_formula>  (1487) 
C27H33N3O2+2

$$$$
ATP-HTVS-EAB5C9B34043
     RDKit          3D

 55 58  0  0  0  0  0  0  0  0999 V2000
  195.2002  190.2053  161.8499 O   0  0  0  0  0  0  0  0  0  0  0  0
  194.7887  189.0429  161.7373 C   0  0  0  0  0  0  0  0  0  0  0  0
  195.4013  188.0817  160.9898 N   0  0  0  0  0  0  0  0  0  0  0  0
  196.4344  188.2230  160.0222 C   0  0  0  0  0  0  0  0  0  0  0  0
  196.5056  187.2941  158.9632 C   0  0  0  0  0  0  0  0  0  0  0  0
  195.5727  186.2324  158.9139 N   0  0  0  0  0  0  0  0  0  0  0  0
  195.8515  184.8580  159.0008 C   0  0  0  0  0  0  0  0  0  0  0  0
  194.7705  183.9439  158.9575 C   0  0  0  0  0  0  0  0  0  0  0  0
  195.0218  182.5590  158.9271 C   0  0  0  0  0  0  0  0  0  0  0  0
  196.3479  182.0938  158.9202 C   0  0  0  0  0  0  0  0  0  0  0  0
  197.4199  182.9921  158.9770 C   0  0  0  0  0  0  0  0  0  0  0  0
  197.1732  184.3687  159.0746 C   0  0  0  0  0  0  0  0  0  0  0  0
  197.5275  187.4642  157.9861 C   0  0  0  0  0  0  0  0  0  0  0  0
  198.4477  188.5421  158.1432 C   0  0  0  0  0  0  0  0  0  0  0  0
  198.3534  189.4259  159.1564 N   0  0  0  0  0  0  0  0  0  0  0  0
  197.3831  189.2629  160.0757 C   0  0  0  0  0  0  0  0  0  0  0  0
  199.5035  188.6828  157.2281 C   0  0  0  0  0  0  0  0  0  0  0  0
  199.6745  187.7659  156.1734 C   0  0  0  0  0  0  0  0  0  0  0  0
  198.7645  186.7114  156.0125 C   0  0  0  0  0  0  0  0  0  0  0  0
  197.6737  186.5844  156.8845 C   0  0  0  0  0  0  0  0  0  0  0  0
  193.5439  188.6095  162.4496 C   0  0  0  0  0  0  0  0  0  0  0  0
  192.4634  189.4842  162.7554 C   0  0  0  0  0  0  0  0  0  0  0  0
  191.3686  188.9795  163.4951 C   0  0  0  0  0  0  0  0  0  0  0  0
  191.3405  187.6700  163.9646 C   0  0  0  0  0  0  0  0  0  0  0  0
  192.3825  186.7931  163.6593 C   0  0  0  0  0  0  0  0  0  0  0  0
  193.4886  187.2685  162.9285 C   0  0  0  0  0  0  0  0  0  0  0  0
  192.3385  190.9461  162.3052 C   0  0  1  0  0  0  0  0  0  0  0  0
  191.6330  191.0811  161.0030 N   0  0  1  0  0  0  0  0  0  0  0  0
  190.3287  190.3721  160.8706 C   0  0  2  0  0  0  0  0  0  0  0  0
  191.4756  192.5013  160.6583 C   0  0  2  0  0  0  0  0  0  0  0  0
  194.9087  187.1911  160.9237 H   0  0  0  0  0  0  0  0  0  0  0  0
  194.6243  186.4560  158.6207 H   0  0  0  0  0  0  0  0  0  0  0  0
  193.7473  184.2966  158.9058 H   0  0  0  0  0  0  0  0  0  0  0  0
  194.2115  181.8463  158.8834 H   0  0  0  0  0  0  0  0  0  0  0  0
  196.5538  181.0319  158.8630 H   0  0  0  0  0  0  0  0  0  0  0  0
  198.4388  182.6381  158.9257 H   0  0  0  0  0  0  0  0  0  0  0  0
  198.0393  185.0196  159.1297 H   0  0  0  0  0  0  0  0  0  0  0  0
  197.4038  190.0080  160.8528 H   0  0  0  0  0  0  0  0  0  0  0  0
  200.1968  189.5011  157.3603 H   0  0  0  0  0  0  0  0  0  0  0  0
  200.5085  187.8660  155.4916 H   0  0  0  0  0  0  0  0  0  0  0  0
  198.8981  185.9734  155.2369 H   0  0  0  0  0  0  0  0  0  0  0  0
  196.9775  185.7746  156.7052 H   0  0  0  0  0  0  0  0  0  0  0  0
  190.5033  189.5822  163.7114 H   0  0  0  0  0  0  0  0  0  0  0  0
  190.5148  187.3481  164.5736 H   0  0  0  0  0  0  0  0  0  0  0  0
  192.3568  185.7855  164.0439 H   0  0  0  0  0  0  0  0  0  0  0  0
  194.3267  186.6007  162.7886 H   0  0  0  0  0  0  0  0  0  0  0  0
  191.7463  191.4438  163.0917 H   0  0  0  0  0  0  0  0  0  0  0  0
  193.2838  191.4861  162.2442 H   0  0  0  0  0  0  0  0  0  0  0  0
  189.6407  190.7019  161.6556 H   0  0  0  0  0  0  0  0  0  0  0  0
  190.4437  189.2847  160.9349 H   0  0  0  0  0  0  0  0  0  0  0  0
  189.8457  190.5702  159.9081 H   0  0  0  0  0  0  0  0  0  0  0  0
  190.8297  193.0108  161.3707 H   0  0  0  0  0  0  0  0  0  0  0  0
  191.0205  192.6143  159.6816 H   0  0  0  0  0  0  0  0  0  0  0  0
  192.4385  193.0062  160.6505 H   0  0  0  0  0  0  0  0  0  0  0  0
  192.2466  190.6526  160.3123 H   0  0  0  0  0  0  0  0  0  0  0  0
  1  2  2  0
  2  3  1  0
  2 21  1  0
  3  4  1  0
  3 31  1  0
  4  5  2  0
  4 16  1  0
  5  6  1  0
  5 13  1  0
  6  7  1  0
  6 32  1  0
  7  8  2  0
  7 12  1  0
  8  9  1  0
  8 33  1  0
  9 10  2  0
  9 34  1  0
 10 11  1  0
 10 35  1  0
 11 12  2  0
 11 36  1  0
 12 37  1  0
 13 14  1  0
 13 20  2  0
 14 15  1  0
 14 17  2  0
 15 16  2  0
 16 38  1  0
 17 18  1  0
 17 39  1  0
 18 19  2  0
 18 40  1  0
 19 20  1  0
 19 41  1  0
 20 42  1  0
 21 22  1  0
 21 26  2  0
 22 23  2  0
 22 27  1  0
 23 24  1  0
 23 43  1  0
 24 25  2  0
 24 44  1  0
 25 26  1  0
 25 45  1  0
 26 46  1  0
 27 28  1  0
 27 47  1  1
 27 48  1  0
 28 29  1  0
 28 30  1  0
 28 55  1  6
 29 49  1  1
 29 50  1  0
 29 51  1  0
 30 52  1  1
 30 53  1  0
 30 54  1  0
M  CHG  1  28   1
M  END
>  <s_epik_cmdline>  (1488) 
J2VwaWtfcHl0aG9uJywgJy1waCcsICc3LjAwMDAwMCcsICctcGh0JywgJzIuMDAwMDAwJywgJy1tcycsICcxNicsICctdG4nLCAnOCcsICctbWEnLCAnMjAwJywgJy1pbWFlJywgJzxpbmZpbGUubWFlPicsICctb21hZScsICc8b3V0ZmlsZS5tYWU+Jw==

>  <s_epik_input>  (1488) 
W2NIXTFbY0hdW2NIXVtjSF1jKFtDSDJdTihbQ0gzXSlbQ0gzXSljMUMoPU8pW05IXWMoW2NIXW5jKGMyMylbY0hdW2NIXVtjSF1bY0hdMyljMltOSF1jNFtjSF1bY0hdW2NIXVtjSF1bY0hdNA==

>  <s_i_glide_gridfile>  (1488) 
ATP-Grid

>  <s_lp_Force_Field>  (1488) 
OPLS_2005

>  <s_lp_Variant>  (1488) 
rxn502b____EMOL5415347____EMOL30488121____EMOL477532-1

>  <s_lp_label>  (1488) 
2834_sdstereoexpander_1_neutralizer_1_epik_1_stereoizer_1

>  <s_m_source_file>  (1488) 
ATP-VSW-LIGPREP-003-in.maegz

>  <s_sd_BIOSOLVEIT.INFINISEE\_QUERY\_NAME>  (1488) 
Ref-Lig

>  <s_sd_BIOSOLVEIT.INFINISEE\_QUERY\_SMILES>  (1488) 
S(c1nc2c(cc1C[NH2+]Cc3ccc(cc3)C[NH+](C)C)cccc2)Cc4ccccc4

>  <s_sd_BIOSOLVEIT.INFINISEE\_REACTION\_NAME>  (1488) 
rxn502b

>  <s_sd_BIOSOLVEIT.INFINISEE\_REAGENT1\_NAME>  (1488) 
EMOL5415347

>  <s_sd_BIOSOLVEIT.INFINISEE\_REAGENT1\_SMILES>  (1488) 
O=C(O)c1c(cccc1)CN(C)C

>  <s_sd_BIOSOLVEIT.INFINISEE\_REAGENT2\_NAME>  (1488) 
EMOL30488121

>  <s_sd_BIOSOLVEIT.INFINISEE\_REAGENT2\_SMILES>  (1488) 
Brc1c(N)cnc2c1cccc2

>  <s_sd_BIOSOLVEIT.INFINISEE\_REAGENT3\_NAME>  (1488) 
EMOL477532

>  <s_sd_BIOSOLVEIT.INFINISEE\_REAGENT3\_SMILES>  (1488) 
Nc1ccccc1

>  <s_sd_BIOSOLVEIT.INFINISEE\_SPACE>  (1488) 
eXplore_7tr_2022-12

>  <s_vsw_compound_code>  (1488) 
90659

>  <s_vsw_variant>  (1488) 
90659-1

>  <r_epik_Charging_Adjusted_Penalty>  (1488) 
0.35627078087863001

>  <r_epik_Ionization_Penalty>  (1488) 
0.29720000000000002

>  <r_epik_Ionization_Penalty_Charging>  (1488) 
0.060100000000000001

>  <r_epik_Ionization_Penalty_Neutral>  (1488) 
0.23719999999999999

>  <r_epik_State_Penalty>  (1488) 
0.29620000000000002

>  <r_i_docking_score>  (1488) 
-4.8450897655796998

>  <r_i_glide_ecoul>  (1488) 
-5.8042120933532697

>  <r_i_glide_eff_state_penalty>  (1488) 
0.29620000000000002

>  <r_i_glide_einternal>  (1488) 
4.1606316566467303

>  <r_i_glide_emodel>  (1488) 
-53.701955314551498

>  <r_i_glide_energy>  (1488) 
-36.911324977874798

>  <r_i_glide_erotb>  (1488) 
0.74336557954494098

>  <r_i_glide_esite>  (1488) 
-0.0420876999546295

>  <r_i_glide_evdw>  (1488) 
-31.107112884521499

>  <r_i_glide_gscore>  (1488) 
-5.1412897655796996

>  <r_i_glide_hbond>  (1488) 
-0.32000000000000001

>  <r_i_glide_ligand_efficiency>  (1488) 
-0.16150299218599001

>  <r_i_glide_ligand_efficiency_ln>  (1488) 
-1.10085718622097

>  <r_i_glide_ligand_efficiency_sa>  (1488) 
-0.50182734656018202

>  <r_i_glide_lipo>  (1488) 
-2.39766336875913

>  <r_i_glide_metal>  (1488) 
-0

>  <r_i_glide_rewards>  (1488) 
-0.69891681818181695

>  <r_lp_Energy>  (1488) 
36.339083000000002

>  <r_qp_ACxDN^.5/SA>  (1488) 
0.013068

>  <r_qp_CIQPlogS>  (1488) 
-5.0940000000000003

>  <r_qp_EA(eV)>  (1488) 
1.2110000000000001

>  <r_qp_FISA>  (1488) 
61.405999999999999

>  <r_qp_FOSA>  (1488) 
103.538

>  <r_qp_IP(eV)>  (1488) 
8.4770000000000003

>  <r_qp_Jm>  (1488) 
0.30189295660715698

>  <r_qp_PISA>  (1488) 
484.37299999999999

>  <r_qp_PSA>  (1488) 
57.518000000000001

>  <r_qp_PercentHumanOralAbsorption>  (1488) 
100

>  <r_qp_QPPCaco>  (1488) 
646.38400000000001

>  <r_qp_QPPMDCK>  (1488) 
341.50200000000001

>  <r_qp_QPlogBB>  (1488) 
0.042999999999999997

>  <r_qp_QPlogHERG>  (1488) 
-6.8849999999999998

>  <r_qp_QPlogKhsa>  (1488) 
0.53800000000000003

>  <r_qp_QPlogKp>  (1488) 
-2.431

>  <r_qp_QPlogPC16>  (1488) 
13.984999999999999

>  <r_qp_QPlogPo/w>  (1488) 
4.0179999999999998

>  <r_qp_QPlogPoct>  (1488) 
21.417999999999999

>  <r_qp_QPlogPw>  (1488) 
12.51

>  <r_qp_QPlogS>  (1488) 
-3.6869999999999998

>  <r_qp_QPpolrz>  (1488) 
44.000999999999998

>  <r_qp_SASA>  (1488) 
649.31700000000001

>  <r_qp_SAamideO>  (1488) 
0

>  <r_qp_SAfluorine>  (1488) 
0

>  <r_qp_WPSA>  (1488) 
0

>  <r_qp_accptHB>  (1488) 
6

>  <r_qp_dip^2/V>  (1488) 
0.040107900000000002

>  <r_qp_dipole>  (1488) 
7.0350000000000001

>  <r_qp_donorHB>  (1488) 
2

>  <r_qp_glob>  (1488) 
0.85684419999999994

>  <r_qp_mol_MW>  (1488) 
396.49099999999999

>  <r_qp_volume>  (1488) 
1233.9300000000001

>  <r_sd_BIOSOLVEIT.INFINISEE\_FTREES\_SIMILARITY>  (1488) 
0.90600000000000003

>  <r_sd_BIOSOLVEIT.LOGP>  (1488) 
3.8752

>  <r_sd_BIOSOLVEIT.MOLECULAR\_WEIGHT>  (1488) 
397.5

>  <r_sd_BIOSOLVEIT.TPSA>  (1488) 
58.460000000000001

>  <i_epik_Tot_Q>  (1488) 
1

>  <i_epik_Tot_abs_Q>  (1488) 
1

>  <i_f3d_flags>  (1488) 
0

>  <i_i_glide_confnum>  (1488) 
5

>  <i_i_glide_lignum>  (1488) 
1360

>  <i_i_glide_posenum>  (1488) 
20

>  <i_i_glide_rotatable_bonds>  (1488) 
7

>  <i_lp_mmshare_version>  (1488) 
65135

>  <i_m_ct_format>  (1488) 
2

>  <i_m_source_file_index>  (1488) 
2834

>  <i_qp_#NandO>  (1488) 
5

>  <i_qp_#acid>  (1488) 
0

>  <i_qp_#amide>  (1488) 
0

>  <i_qp_#amidine>  (1488) 
0

>  <i_qp_#amine>  (1488) 
1

>  <i_qp_#in34>  (1488) 
0

>  <i_qp_#in56>  (1488) 
22

>  <i_qp_#metab>  (1488) 
5

>  <i_qp_#nonHatm>  (1488) 
30

>  <i_qp_#noncon>  (1488) 
0

>  <i_qp_#ringatoms>  (1488) 
22

>  <i_qp_#rotor>  (1488) 
6

>  <i_qp_#rtvFG>  (1488) 
0

>  <i_qp_#stars>  (1488) 
1

>  <i_qp_CNS>  (1488) 
1

>  <i_qp_HumanOralAbsorption>  (1488) 
3

>  <i_qp_RuleOfFive>  (1488) 
0

>  <i_qp_RuleOfThree>  (1488) 
0

>  <i_sd_BIOSOLVEIT.INFINISEE\_RESULT\_RANK>  (1488) 
66850

>  <i_sd_version>  (1488) 
0

>  <b_lp_Chiralities_Consistent>  (1488) 
1

>  <b_sd_chiral_flag>  (1488) 
0

>  <canonical_id>  (1488) 
ATP-HTVS-EAB5C9B34043

>  <compound_code>  (1488) 
90659

>  <title>  (1488) 
rxn502b____EMOL5415347____EMOL30488121____EMOL477532

>  <variant>  (1488) 
90659-1

>  <source_file>  (1488) 
运行/运行/ATP-VSW/ATP-VSW-DOCK_HTVS_1-003_lib/ATP-VSW-DOCK_HTVS_1-003_lib.mae

>  <canonical_smiles>  (1488) 
C[NH+](C)Cc1ccccc1C(=O)Nc1cnc2ccccc2c1Nc1ccccc1

>  <scaffold>  (1488) 
O=C(Nc1cnc2ccccc2c1Nc1ccccc1)c1ccccc1

>  <molecular_formula>  (1488) 
C25H25N4O+

$$$$
ATP-HTVS-EAC68E01988F
     RDKit          3D

 69 72  0  0  0  0  0  0  0  0999 V2000
  198.6776  179.6512  153.3556 O   0  0  0  0  0  0  0  0  0  0  0  0
  198.0692  179.4402  154.4047 C   0  0  0  0  0  0  0  0  0  0  0  0
  198.4453  178.5614  155.3430 N   0  0  0  0  0  0  0  0  0  0  0  0
  199.5655  177.6920  155.3499 C   0  0  0  0  0  0  0  0  0  0  0  0
  200.0377  177.2837  156.6130 C   0  0  0  0  0  0  0  0  0  0  0  0
  201.1569  176.4393  156.7226 C   0  0  0  0  0  0  0  0  0  0  0  0
  201.8100  175.9763  155.5643 C   0  0  0  0  0  0  0  0  0  0  0  0
  201.3254  176.3528  154.2958 C   0  0  0  0  0  0  0  0  0  0  0  0
  200.2040  177.2009  154.1861 C   0  0  0  0  0  0  0  0  0  0  0  0
  203.0295  175.0843  155.6758 C   0  0  2  0  0  0  0  0  0  0  0  0
  196.7627  180.1872  154.7093 C   0  0  1  0  0  0  0  0  0  0  0  0
  196.8170  181.6193  154.4099 N   0  0  0  0  0  0  0  0  0  0  0  0
  196.9084  182.6011  155.3974 C   0  0  0  0  0  0  0  0  0  0  0  0
  197.0924  183.8632  155.1254 N   0  0  0  0  0  0  0  0  0  0  0  0
  197.3090  184.8617  155.9799 C   0  0  0  0  0  0  0  0  0  0  0  0
  197.5986  186.1323  155.4858 N   0  0  0  0  0  0  0  0  0  0  0  0
  198.7176  186.9270  156.0038 C   0  0  1  0  0  0  0  0  0  0  0  0
  199.3012  187.9291  155.0217 C   0  0  0  0  0  0  0  0  0  0  0  0
  199.7291  187.5493  153.7236 C   0  0  0  0  0  0  0  0  0  0  0  0
  200.2516  188.5197  152.8488 C   0  0  0  0  0  0  0  0  0  0  0  0
  200.3601  189.8584  153.2528 C   0  0  0  0  0  0  0  0  0  0  0  0
  199.9558  190.2379  154.5437 C   0  0  0  0  0  0  0  0  0  0  0  0
  199.4307  189.2751  155.4256 C   0  0  0  0  0  0  0  0  0  0  0  0
  199.6169  186.1107  153.2271 C   0  0  1  0  0  0  0  0  0  0  0  0
  198.3601  185.9288  152.4714 N   0  0  1  0  0  0  0  0  0  0  0  0
  198.3666  186.3959  151.0945 C   0  0  2  0  0  0  0  0  0  0  0  0
  198.0119  184.5221  152.3590 C   0  0  2  0  0  0  0  0  0  0  0  0
  197.1551  184.5566  157.3421 C   0  0  0  0  0  0  0  0  0  0  0  0
  196.8600  183.2093  157.6287 C   0  0  0  0  0  0  0  0  0  0  0  0
  196.7692  182.2425  156.7121 N   0  0  0  0  0  0  0  0  0  0  0  0
  196.6204  182.8455  158.9905 C   0  0  0  0  0  0  0  0  0  0  0  0
  196.7039  183.8274  159.9828 C   0  0  0  0  0  0  0  0  0  0  0  0
  197.0017  185.1621  159.6783 C   0  0  0  0  0  0  0  0  0  0  0  0
  197.2226  185.5242  158.3306 C   0  0  0  0  0  0  0  0  0  0  0  0
  196.7936  181.9169  152.9696 C   0  0  2  0  0  0  0  0  0  0  0  0
  197.9182  178.5851  156.2120 H   0  0  0  0  0  0  0  0  0  0  0  0
  199.5535  177.6302  157.5117 H   0  0  0  0  0  0  0  0  0  0  0  0
  201.5162  176.1586  157.7014 H   0  0  0  0  0  0  0  0  0  0  0  0
  201.8179  175.9967  153.4031 H   0  0  0  0  0  0  0  0  0  0  0  0
  199.8521  177.4545  153.1968 H   0  0  0  0  0  0  0  0  0  0  0  0
  202.9363  174.2265  155.0098 H   0  0  0  0  0  0  0  0  0  0  0  0
  203.1546  174.7121  156.6935 H   0  0  0  0  0  0  0  0  0  0  0  0
  203.9254  175.6394  155.3954 H   0  0  0  0  0  0  0  0  0  0  0  0
  195.9516  179.7356  154.1377 H   0  0  0  0  0  0  0  0  0  0  0  0
  196.4933  180.0437  155.7480 H   0  0  0  0  0  0  0  0  0  0  0  0
  196.8846  186.6461  154.9837 H   0  0  0  0  0  0  0  0  0  0  0  0
  198.3797  187.5312  156.8357 H   0  0  0  0  0  0  0  0  0  0  0  0
  199.5127  186.2839  156.3867 H   0  0  0  0  0  0  0  0  0  0  0  0
  200.5661  188.2334  151.8573 H   0  0  0  0  0  0  0  0  0  0  0  0
  200.7637  190.5914  152.5715 H   0  0  0  0  0  0  0  0  0  0  0  0
  200.0446  191.2688  154.8544 H   0  0  0  0  0  0  0  0  0  0  0  0
  199.1186  189.5862  156.4139 H   0  0  0  0  0  0  0  0  0  0  0  0
  200.4790  185.8489  152.6115 H   0  0  0  0  0  0  0  0  0  0  0  0
  199.6871  185.4425  154.0887 H   0  0  0  0  0  0  0  0  0  0  0  0
  199.1453  185.8893  150.5208 H   0  0  0  0  0  0  0  0  0  0  0  0
  198.5484  187.4382  151.0896 H   0  0  0  0  0  0  0  0  0  0  0  0
  197.4057  186.2005  150.6248 H   0  0  0  0  0  0  0  0  0  0  0  0
  198.7877  183.8826  151.9283 H   0  0  0  0  0  0  0  0  0  0  0  0
  196.9956  184.3372  152.0047 H   0  0  0  0  0  0  0  0  0  0  0  0
  198.1240  184.1930  153.2932 H   0  0  0  0  0  0  0  0  0  0  0  0
  196.3957  181.8213  159.2187 H   0  0  0  0  0  0  0  0  0  0  0  0
  196.5385  183.5487  160.9899 H   0  0  0  0  0  0  0  0  0  0  0  0
  197.0655  185.9245  160.4331 H   0  0  0  0  0  0  0  0  0  0  0  0
  197.4036  186.5698  158.1334 H   0  0  0  0  0  0  0  0  0  0  0  0
  195.9709  182.5992  152.7076 H   0  0  0  0  0  0  0  0  0  0  0  0
  196.7593  181.0641  152.2924 H   0  0  0  0  0  0  0  0  0  0  0  0
  197.7521  182.2725  152.7162 H   0  0  0  0  0  0  0  0  0  0  0  0
  196.5318  181.3030  156.9359 H   0  0  0  0  0  0  0  0  0  0  0  0
  197.6261  186.3653  152.9988 H   0  0  0  0  0  0  0  0  0  0  0  0
  1  2  2  0
  2  3  1  0
  2 11  1  0
  3  4  1  0
  3 36  1  0
  4  5  1  0
  4  9  2  0
  5  6  2  0
  5 37  1  0
  6  7  1  0
  6 38  1  0
  7  8  2  0
  7 10  1  0
  8  9  1  0
  8 39  1  0
  9 40  1  0
 10 41  1  6
 10 42  1  0
 10 43  1  0
 11 12  1  0
 11 44  1  6
 11 45  1  0
 12 13  1  0
 12 35  1  0
 13 14  1  0
 13 30  2  0
 14 15  2  0
 15 16  1  0
 15 28  1  0
 16 17  1  0
 16 46  1  0
 17 18  1  0
 17 47  1  1
 17 48  1  0
 18 19  1  0
 18 23  2  0
 19 20  2  0
 19 24  1  0
 20 21  1  0
 20 49  1  0
 21 22  2  0
 21 50  1  0
 22 23  1  0
 22 51  1  0
 23 52  1  0
 24 25  1  0
 24 53  1  6
 24 54  1  0
 25 26  1  0
 25 27  1  0
 25 69  1  1
 26 55  1  6
 26 56  1  0
 26 57  1  0
 27 58  1  6
 27 59  1  0
 27 60  1  0
 28 29  1  0
 28 34  2  0
 29 30  1  0
 29 31  2  0
 30 68  1  0
 31 32  1  0
 31 61  1  0
 32 33  2  0
 32 62  1  0
 33 34  1  0
 33 63  1  0
 34 64  1  0
 35 65  1  1
 35 66  1  0
 35 67  1  0
M  CHG  2  25   1  30   1
M  END
>  <s_epik_cmdline>  (1489) 
J2VwaWtfcHl0aG9uJywgJy1waCcsICc3LjAwMDAwMCcsICctcGh0JywgJzIuMDAwMDAwJywgJy1tcycsICcxNicsICctdG4nLCAnOCcsICctbWEnLCAnMjAwJywgJy1pbWFlJywgJzxpbmZpbGUubWFlPicsICctb21hZScsICc8b3V0ZmlsZS5tYWU+Jw==

>  <s_epik_input>  (1489) 
W2NIXTFbY0hdYyhbQ0gzXSlbY0hdW2NIXWMxW05IXUMoPU8pW0NIMl1OKFtDSDNdKWMobmMoYzIzKVtjSF1bY0hdW2NIXVtjSF0zKW5jMltOSF1bQ0gyXWM0YyhbQ0gyXU4oW0NIM10pW0NIM10pW2NIXVtjSF1bY0hdW2NIXTQ=

>  <s_i_glide_gridfile>  (1489) 
ATP-Grid

>  <s_lp_Force_Field>  (1489) 
OPLS_2005

>  <s_lp_Variant>  (1489) 
m_282030aaa____21930824____22360182____21973156-1

>  <s_lp_label>  (1489) 
1737_sdstereoexpander_1_neutralizer_1_epik_1_stereoizer_1

>  <s_m_source_file>  (1489) 
ATP-VSW-LIGPREP-001-in.maegz

>  <s_sd_BIOSOLVEIT.INFINISEE\_QUERY\_NAME>  (1489) 
Ref-Lig

>  <s_sd_BIOSOLVEIT.INFINISEE\_QUERY\_SMILES>  (1489) 
S(c1nc2c(cc1C[NH2+]Cc3ccc(cc3)C[NH+](C)C)cccc2)Cc4ccccc4

>  <s_sd_BIOSOLVEIT.INFINISEE\_REACTION\_NAME>  (1489) 
m_282030aaa

>  <s_sd_BIOSOLVEIT.INFINISEE\_REAGENT1\_SMILES>  (1489) 
[R1*]N(CC(=O)Nc1ccc(cc1)C)C

>  <s_sd_BIOSOLVEIT.INFINISEE\_REAGENT2\_SMILES>  (1489) 
[R2*]c1nc([R1*])c2c(n1)cccc2

>  <s_sd_BIOSOLVEIT.INFINISEE\_REAGENT3\_SMILES>  (1489) 
[R2*]NCc1c(cccc1)CN(C)C

>  <s_sd_BIOSOLVEIT.INFINISEE\_SPACE>  (1489) 
REALSpace_44bn_2023-08

>  <s_vsw_compound_code>  (1489) 
55553

>  <s_vsw_variant>  (1489) 
55553-1

>  <r_epik_Charging_Adjusted_Penalty>  (1489) 
0.080162188494638603

>  <r_epik_Ionization_Penalty>  (1489) 
0.0419

>  <r_epik_Ionization_Penalty_Charging>  (1489) 
0.0419

>  <r_epik_Ionization_Penalty_Neutral>  (1489) 
0

>  <r_epik_State_Penalty>  (1489) 
0.038300000000000001

>  <r_i_docking_score>  (1489) 
-4.2370920396405598

>  <r_i_glide_ecoul>  (1489) 
-6.4656143188476598

>  <r_i_glide_eff_state_penalty>  (1489) 
0.038300000000000001

>  <r_i_glide_einternal>  (1489) 
11.4707536697388

>  <r_i_glide_emodel>  (1489) 
-53.435186526735301

>  <r_i_glide_energy>  (1489) 
-40.7486763000488

>  <r_i_glide_erotb>  (1489) 
0.82112538518450695

>  <r_i_glide_esite>  (1489) 
-0.277500656886909

>  <r_i_glide_evdw>  (1489) 
-34.2830619812012

>  <r_i_glide_gscore>  (1489) 
-4.2753920396405602

>  <r_i_glide_hbond>  (1489) 
-0.33509410758531399

>  <r_i_glide_ligand_efficiency>  (1489) 
-0.121059772561159

>  <r_i_glide_ligand_efficiency_ln>  (1489) 
-0.930135739892332

>  <r_i_glide_ligand_efficiency_sa>  (1489) 
-0.39599454307460003

>  <r_i_glide_lipo>  (1489) 
-1.5995353225565401

>  <r_i_glide_metal>  (1489) 
-0

>  <r_i_glide_rewards>  (1489) 
-0.20039209090908899

>  <r_lp_Energy>  (1489) 
18.177527999999999

>  <r_lp_tautomer_probability>  (1489) 
0.99350799999861505

>  <r_qp_ACxDN^.5/SA>  (1489) 
0.0142963

>  <r_qp_CIQPlogS>  (1489) 
-5.96

>  <r_qp_EA(eV)>  (1489) 
0.44600000000000001

>  <r_qp_FISA>  (1489) 
36.167000000000002

>  <r_qp_FOSA>  (1489) 
296.25400000000002

>  <r_qp_IP(eV)>  (1489) 
7.8650000000000002

>  <r_qp_Jm>  (1489) 
0.27425125053277699

>  <r_qp_PISA>  (1489) 
409.49200000000002

>  <r_qp_PSA>  (1489) 
63.600999999999999

>  <r_qp_PercentHumanOralAbsorption>  (1489) 
100

>  <r_qp_QPPCaco>  (1489) 
1121.577

>  <r_qp_QPPMDCK>  (1489) 
619.56799999999998

>  <r_qp_QPlogBB>  (1489) 
0.080000000000000002

>  <r_qp_QPlogHERG>  (1489) 
-6.7629999999999999

>  <r_qp_QPlogKhsa>  (1489) 
0.74399999999999999

>  <r_qp_QPlogKp>  (1489) 
-1.9419999999999999

>  <r_qp_QPlogPC16>  (1489) 
15.34

>  <r_qp_QPlogPo/w>  (1489) 
4.9619999999999997

>  <r_qp_QPlogPoct>  (1489) 
24.131

>  <r_qp_QPlogPw>  (1489) 
12.867000000000001

>  <r_qp_QPlogS>  (1489) 
-4.2910000000000004

>  <r_qp_QPpolrz>  (1489) 
50.762

>  <r_qp_SASA>  (1489) 
741.91300000000001

>  <r_qp_SAamideO>  (1489) 
0

>  <r_qp_SAfluorine>  (1489) 
0

>  <r_qp_WPSA>  (1489) 
0

>  <r_qp_accptHB>  (1489) 
7.5

>  <r_qp_dip^2/V>  (1489) 
0.028109599999999998

>  <r_qp_dipole>  (1489) 
6.4260000000000002

>  <r_qp_donorHB>  (1489) 
2

>  <r_qp_glob>  (1489) 
0.84230260000000001

>  <r_qp_mol_MW>  (1489) 
468.60000000000002

>  <r_qp_volume>  (1489) 
1468.8720000000001

>  <r_sd_BIOSOLVEIT.INFINISEE\_FTREES\_SIMILARITY>  (1489) 
0.90400000000000003

>  <r_sd_BIOSOLVEIT.LOGP>  (1489) 
3.26972

>  <r_sd_BIOSOLVEIT.MOLECULAR\_WEIGHT>  (1489) 
469.61000000000001

>  <r_sd_BIOSOLVEIT.TPSA>  (1489) 
74.590000000000003

>  <i_epik_Tot_Q>  (1489) 
2

>  <i_epik_Tot_abs_Q>  (1489) 
2

>  <i_f3d_flags>  (1489) 
0

>  <i_i_glide_confnum>  (1489) 
10

>  <i_i_glide_lignum>  (1489) 
492

>  <i_i_glide_posenum>  (1489) 
5

>  <i_i_glide_rotatable_bonds>  (1489) 
10

>  <i_lp_mmshare_version>  (1489) 
65135

>  <i_m_ct_format>  (1489) 
2

>  <i_m_source_file_index>  (1489) 
1737

>  <i_qp_#NandO>  (1489) 
7

>  <i_qp_#acid>  (1489) 
0

>  <i_qp_#amide>  (1489) 
0

>  <i_qp_#amidine>  (1489) 
0

>  <i_qp_#amine>  (1489) 
1

>  <i_qp_#in34>  (1489) 
0

>  <i_qp_#in56>  (1489) 
22

>  <i_qp_#metab>  (1489) 
6

>  <i_qp_#nonHatm>  (1489) 
35

>  <i_qp_#noncon>  (1489) 
0

>  <i_qp_#ringatoms>  (1489) 
22

>  <i_qp_#rotor>  (1489) 
9

>  <i_qp_#rtvFG>  (1489) 
0

>  <i_qp_#stars>  (1489) 
1

>  <i_qp_CNS>  (1489) 
1

>  <i_qp_HumanOralAbsorption>  (1489) 
3

>  <i_qp_RuleOfFive>  (1489) 
0

>  <i_qp_RuleOfThree>  (1489) 
0

>  <i_sd_BIOSOLVEIT.INFINISEE\_REAGENT1\_NAME>  (1489) 
21930824

>  <i_sd_BIOSOLVEIT.INFINISEE\_REAGENT2\_NAME>  (1489) 
22360182

>  <i_sd_BIOSOLVEIT.INFINISEE\_REAGENT3\_NAME>  (1489) 
21973156

>  <i_sd_BIOSOLVEIT.INFINISEE\_RESULT\_RANK>  (1489) 
73870

>  <i_sd_version>  (1489) 
0

>  <b_lp_Chiralities_Consistent>  (1489) 
1

>  <b_sd_chiral_flag>  (1489) 
0

>  <canonical_id>  (1489) 
ATP-HTVS-EAC68E01988F

>  <compound_code>  (1489) 
55553

>  <title>  (1489) 
m_282030aaa____21930824____22360182____21973156

>  <variant>  (1489) 
55553-1

>  <source_file>  (1489) 
运行/运行/ATP-VSW/ATP-VSW-DOCK_HTVS_1-001_lib/ATP-VSW-DOCK_HTVS_1-001_lib

>  <canonical_smiles>  (1489) 
Cc1ccc(NC(=O)CN(C)c2nc(NCc3ccccc3C[NH+](C)C)c3ccccc3[nH+]2)cc1

>  <scaffold>  (1489) 
O=C(CNc1nc(NCc2ccccc2)c2ccccc2[nH+]1)Nc1ccccc1

>  <molecular_formula>  (1489) 
C28H34N6O+2

$$$$
ATP-HTVS-EAD1C8AFD4A9
     RDKit          3D

 63 67  0  0  0  0  0  0  0  0999 V2000
  196.9277  181.0501  150.9316 N   0  0  0  0  0  0  0  0  0  0  0  0
  197.9523  180.2147  150.6830 C   0  0  0  0  0  0  0  0  0  0  0  0
  198.7368  179.5110  151.6297 C   0  0  0  0  0  0  0  0  0  0  0  0
  198.4105  179.6738  153.0149 C   0  0  0  0  0  0  0  0  0  0  0  0
  197.3253  180.5128  153.2496 C   0  0  0  0  0  0  0  0  0  0  0  0
  196.6371  181.2022  152.2550 C   0  0  0  0  0  0  0  0  0  0  0  0
  199.1363  178.9586  154.0988 C   0  0  0  0  0  0  0  0  0  0  0  0
  199.7973  177.8458  153.8143 N   0  0  0  0  0  0  0  0  0  0  0  0
  200.3306  177.3944  154.9646 N   0  0  0  0  0  0  0  0  0  0  0  0
  201.1015  176.2012  154.9784 C   0  0  0  0  0  0  0  0  0  0  0  0
  201.8316  175.8271  156.1208 C   0  0  0  0  0  0  0  0  0  0  0  0
  202.5955  174.6482  156.1393 C   0  0  0  0  0  0  0  0  0  0  0  0
  202.6365  173.8207  154.9906 C   0  0  0  0  0  0  0  0  0  0  0  0
  201.9139  174.1806  153.8473 C   0  0  0  0  0  0  0  0  0  0  0  0
  201.1474  175.3630  153.8270 C   0  0  0  0  0  0  0  0  0  0  0  0
  200.0118  178.2451  156.0093 C   0  0  0  0  0  0  0  0  0  0  0  0
  199.2252  179.2601  155.5120 C   0  0  0  0  0  0  0  0  0  0  0  0
  198.6595  180.4211  156.2945 C   0  0  1  0  0  0  0  0  0  0  0  0
  197.1939  180.4282  156.2375 N   0  0  1  0  0  0  0  0  0  0  0  0
  196.5541  181.7408  155.9973 C   0  0  1  0  0  0  0  0  0  0  0  0
  196.5145  182.5337  157.2207 C   0  0  0  0  0  0  0  0  0  0  0  0
  197.4781  183.5202  157.4235 C   0  0  0  0  0  0  0  0  0  0  0  0
  197.4675  184.2443  158.6300 C   0  0  0  0  0  0  0  0  0  0  0  0
  196.4723  183.9589  159.5899 C   0  0  0  0  0  0  0  0  0  0  0  0
  195.4891  182.9874  159.3407 C   0  0  0  0  0  0  0  0  0  0  0  0
  195.5150  182.2499  158.1529 C   0  0  0  0  0  0  0  0  0  0  0  0
  198.5077  185.3211  158.8642 C   0  0  1  0  0  0  0  0  0  0  0  0
  197.9338  186.6689  158.7069 N   0  0  1  0  0  0  0  0  0  0  0  0
  196.9062  187.0171  159.7005 C   0  0  1  0  0  0  0  0  0  0  0  0
  196.7690  188.5278  159.6116 C   0  0  1  0  0  0  0  0  0  0  0  0
  198.1053  189.0089  159.0272 C   0  0  1  0  0  0  0  0  0  0  0  0
  198.9303  187.7397  158.8218 C   0  0  1  0  0  0  0  0  0  0  0  0
  196.9895  179.8648  155.4200 H   0  0  0  0  0  0  0  0  0  0  0  0
  198.1719  180.1003  149.6436 H   0  0  0  0  0  0  0  0  0  0  0  0
  199.5579  178.8470  151.3625 H   0  0  0  0  0  0  0  0  0  0  0  0
  196.8703  180.5921  154.1752 H   0  0  0  0  0  0  0  0  0  0  0  0
  195.8156  181.8363  152.5792 H   0  0  0  0  0  0  0  0  0  0  0  0
  201.8257  176.4447  157.0099 H   0  0  0  0  0  0  0  0  0  0  0  0
  203.1497  174.3732  157.0197 H   0  0  0  0  0  0  0  0  0  0  0  0
  203.2200  172.9102  155.0031 H   0  0  0  0  0  0  0  0  0  0  0  0
  201.9415  173.5464  152.9668 H   0  0  0  0  0  0  0  0  0  0  0  0
  200.5993  175.6151  152.9352 H   0  0  0  0  0  0  0  0  0  0  0  0
  200.3664  178.0623  157.0126 H   0  0  0  0  0  0  0  0  0  0  0  0
  198.9347  180.3737  157.3353 H   0  0  0  0  0  0  0  0  0  0  0  0
  199.0661  181.3568  155.9118 H   0  0  0  0  0  0  0  0  0  0  0  0
  197.0962  182.3181  155.2344 H   0  0  0  0  0  0  0  0  0  0  0  0
  195.5526  181.5962  155.5831 H   0  0  0  0  0  0  0  0  0  0  0  0
  198.2403  183.7111  156.6770 H   0  0  0  0  0  0  0  0  0  0  0  0
  196.4333  184.5061  160.5184 H   0  0  0  0  0  0  0  0  0  0  0  0
  194.7298  182.7794  160.0811 H   0  0  0  0  0  0  0  0  0  0  0  0
  194.7868  181.4756  157.9666 H   0  0  0  0  0  0  0  0  0  0  0  0
  198.9269  185.2039  159.8630 H   0  0  0  0  0  0  0  0  0  0  0  0
  199.3210  185.1972  158.1437 H   0  0  0  0  0  0  0  0  0  0  0  0
  195.9558  186.5100  159.5440 H   0  0  0  0  0  0  0  0  0  0  0  0
  197.2824  186.7444  160.6870 H   0  0  0  0  0  0  0  0  0  0  0  0
  195.9481  188.7751  158.9351 H   0  0  0  0  0  0  0  0  0  0  0  0
  196.5485  188.9666  160.5866 H   0  0  0  0  0  0  0  0  0  0  0  0
  197.9328  189.5009  158.0686 H   0  0  0  0  0  0  0  0  0  0  0  0
  198.6092  189.7161  159.6881 H   0  0  0  0  0  0  0  0  0  0  0  0
  199.5304  187.5556  159.7148 H   0  0  0  0  0  0  0  0  0  0  0  0
  199.6057  187.7908  157.9685 H   0  0  0  0  0  0  0  0  0  0  0  0
  197.5128  186.7258  157.7912 H   0  0  0  0  0  0  0  0  0  0  0  0
  196.7265  179.9226  156.9924 H   0  0  0  0  0  0  0  0  0  0  0  0
  1  2  2  0
  1  6  1  0
  2  3  1  0
  2 34  1  0
  3  4  2  0
  3 35  1  0
  4  5  1  0
  4  7  1  0
  5  6  2  0
  5 36  1  0
  6 37  1  0
  7  8  2  0
  7 17  1  0
  8  9  1  0
  9 10  1  0
  9 16  1  0
 10 11  2  0
 10 15  1  0
 11 12  1  0
 11 38  1  0
 12 13  2  0
 12 39  1  0
 13 14  1  0
 13 40  1  0
 14 15  2  0
 14 41  1  0
 15 42  1  0
 16 17  2  0
 16 43  1  0
 17 18  1  0
 18 19  1  0
 18 44  1  1
 18 45  1  0
 19 20  1  0
 19 33  1  6
 19 63  1  0
 20 21  1  0
 20 46  1  6
 20 47  1  0
 21 22  2  0
 21 26  1  0
 22 23  1  0
 22 48  1  0
 23 24  2  0
 23 27  1  0
 24 25  1  0
 24 49  1  0
 25 26  2  0
 25 50  1  0
 26 51  1  0
 27 28  1  0
 27 52  1  1
 27 53  1  0
 28 29  1  0
 28 32  1  0
 28 62  1  6
 29 30  1  0
 29 54  1  6
 29 55  1  0
 30 31  1  0
 30 56  1  6
 30 57  1  0
 31 32  1  0
 31 58  1  6
 31 59  1  0
 32 60  1  1
 32 61  1  0
M  CHG  2  19   1  28   1
M  END
>  <s_epik_cmdline>  (1490) 
J2VwaWtfcHl0aG9uJywgJy1waCcsICc3LjAwMDAwMCcsICctcGh0JywgJzIuMDAwMDAwJywgJy1tcycsICcxNicsICctdG4nLCAnOCcsICctbWEnLCAnMjAwJywgJy1pbWFlJywgJzxpbmZpbGUubWFlPicsICctb21hZScsICc8b3V0ZmlsZS5tYWU+Jw==

>  <s_epik_input>  (1490) 
W2NIXTFbY0hdbltjSF1bY0hdYzEtYzJubigtYzNbY0hdW2NIXVtjSF1bY0hdW2NIXTMpW2NIXWMyW0NIMl1bTkhdW0NIMl1jNFtjSF1jKFtjSF1bY0hdW2NIXTQpW0NIMl1ONVtDSDJdW0NIMl1bQ0gyXVtDSDJdNQ==

>  <s_i_glide_gridfile>  (1490) 
ATP-Grid

>  <s_lp_Force_Field>  (1490) 
OPLS_2005

>  <s_lp_Variant>  (1490) 
m_270004bbb____8349660____7547806-1

>  <s_lp_label>  (1490) 
1194_sdstereoexpander_1_neutralizer_1_epik_1_stereoizer_1

>  <s_m_source_file>  (1490) 
ATP-VSW-LIGPREP-002-in.maegz

>  <s_sd_BIOSOLVEIT.INFINISEE\_QUERY\_NAME>  (1490) 
Ref-Lig

>  <s_sd_BIOSOLVEIT.INFINISEE\_QUERY\_SMILES>  (1490) 
S(c1nc2c(cc1C[NH2+]Cc3ccc(cc3)C[NH+](C)C)cccc2)Cc4ccccc4

>  <s_sd_BIOSOLVEIT.INFINISEE\_REACTION\_NAME>  (1490) 
m_270004bbb

>  <s_sd_BIOSOLVEIT.INFINISEE\_REAGENT1\_SMILES>  (1490) 
[R1*]NCc1cc(ccc1)CN2CCCC2

>  <s_sd_BIOSOLVEIT.INFINISEE\_REAGENT2\_SMILES>  (1490) 
[R1*]CC=1C(=NN(c2ccccc2)C1)c3ccncc3

>  <s_sd_BIOSOLVEIT.INFINISEE\_SPACE>  (1490) 
REALSpace_44bn_2023-08

>  <s_vsw_compound_code>  (1490) 
38178

>  <s_vsw_variant>  (1490) 
38178-1

>  <r_epik_Charging_Adjusted_Penalty>  (1490) 
0.23797658898560101

>  <r_epik_Ionization_Penalty>  (1490) 
0.12470000000000001

>  <r_epik_Ionization_Penalty_Charging>  (1490) 
0.12

>  <r_epik_Ionization_Penalty_Neutral>  (1490) 
0.0047000000000000002

>  <r_epik_State_Penalty>  (1490) 
0.11799999999999999

>  <r_i_docking_score>  (1490) 
-5.26198123496492

>  <r_i_glide_ecoul>  (1490) 
-12.4464359283447

>  <r_i_glide_eff_state_penalty>  (1490) 
0.11799999999999999

>  <r_i_glide_einternal>  (1490) 
4.4899101257324201

>  <r_i_glide_emodel>  (1490) 
-74.0618767567845

>  <r_i_glide_energy>  (1490) 
-50.213010787963903

>  <r_i_glide_erotb>  (1490) 
0.87630884457119895

>  <r_i_glide_esite>  (1490) 
-0.108631722078295

>  <r_i_glide_evdw>  (1490) 
-37.766574859619098

>  <r_i_glide_gscore>  (1490) 
-5.3799812349649203

>  <r_i_glide_hbond>  (1490) 
-0.20000000000000001

>  <r_i_glide_ligand_efficiency>  (1490) 
-0.164436913592654

>  <r_i_glide_ligand_efficiency_ln>  (1490) 
-1.17830103469979

>  <r_i_glide_ligand_efficiency_sa>  (1490) 
-0.52205465863566403

>  <r_i_glide_lipo>  (1490) 
-1.45987699795243

>  <r_i_glide_metal>  (1490) 
-0

>  <r_i_glide_rewards>  (1490) 
-0.73248722727272497

>  <r_lp_Energy>  (1490) 
35.928795000000001

>  <r_lp_tautomer_probability>  (1490) 
1

>  <r_qp_ACxDN^.5/SA>  (1490) 
0.0079755999999999994

>  <r_qp_CIQPlogS>  (1490) 
-4.7489999999999997

>  <r_qp_EA(eV)>  (1490) 
0.68000000000000005

>  <r_qp_FISA>  (1490) 
33.456000000000003

>  <r_qp_FOSA>  (1490) 
247.25899999999999

>  <r_qp_IP(eV)>  (1490) 
8.6180000000000003

>  <r_qp_Jm>  (1490) 
0.0019565708625746002

>  <r_qp_PISA>  (1490) 
471.57999999999998

>  <r_qp_PSA>  (1490) 
44.646000000000001

>  <r_qp_PercentHumanOralAbsorption>  (1490) 
100

>  <r_qp_QPPCaco>  (1490) 
296.78199999999998

>  <r_qp_QPPMDCK>  (1490) 
162.88399999999999

>  <r_qp_QPlogBB>  (1490) 
0.66200000000000003

>  <r_qp_QPlogHERG>  (1490) 
-8.2530000000000001

>  <r_qp_QPlogKhsa>  (1490) 
1.0509999999999999

>  <r_qp_QPlogKp>  (1490) 
-4.024

>  <r_qp_QPlogPC16>  (1490) 
15.214

>  <r_qp_QPlogPo/w>  (1490) 
4.9790000000000001

>  <r_qp_QPlogPoct>  (1490) 
22.085000000000001

>  <r_qp_QPlogPw>  (1490) 
11.016

>  <r_qp_QPlogS>  (1490) 
-4.3109999999999999

>  <r_qp_QPpolrz>  (1490) 
51.454999999999998

>  <r_qp_SASA>  (1490) 
752.29399999999998

>  <r_qp_SAamideO>  (1490) 
0

>  <r_qp_SAfluorine>  (1490) 
0

>  <r_qp_WPSA>  (1490) 
0

>  <r_qp_accptHB>  (1490) 
6

>  <r_qp_dip^2/V>  (1490) 
0.023545799999999999

>  <r_qp_dipole>  (1490) 
5.7889999999999997

>  <r_qp_donorHB>  (1490) 
1

>  <r_qp_glob>  (1490) 
0.81338650000000001

>  <r_qp_mol_MW>  (1490) 
423.56

>  <r_qp_volume>  (1490) 
1423.2449999999999

>  <r_sd_BIOSOLVEIT.INFINISEE\_FTREES\_SIMILARITY>  (1490) 
0.91100000000000003

>  <r_sd_BIOSOLVEIT.LOGP>  (1490) 
2.3765999999999998

>  <r_sd_BIOSOLVEIT.MOLECULAR\_WEIGHT>  (1490) 
425.577

>  <r_sd_BIOSOLVEIT.TPSA>  (1490) 
51.759999999999998

>  <i_epik_Tot_Q>  (1490) 
2

>  <i_epik_Tot_abs_Q>  (1490) 
2

>  <i_f3d_flags>  (1490) 
0

>  <i_i_glide_confnum>  (1490) 
9

>  <i_i_glide_lignum>  (1490) 
411

>  <i_i_glide_posenum>  (1490) 
5

>  <i_i_glide_rotatable_bonds>  (1490) 
8

>  <i_lp_mmshare_version>  (1490) 
65135

>  <i_m_ct_format>  (1490) 
2

>  <i_m_source_file_index>  (1490) 
1194

>  <i_qp_#NandO>  (1490) 
5

>  <i_qp_#acid>  (1490) 
0

>  <i_qp_#amide>  (1490) 
0

>  <i_qp_#amidine>  (1490) 
0

>  <i_qp_#amine>  (1490) 
2

>  <i_qp_#in34>  (1490) 
0

>  <i_qp_#in56>  (1490) 
28

>  <i_qp_#metab>  (1490) 
7

>  <i_qp_#nonHatm>  (1490) 
32

>  <i_qp_#noncon>  (1490) 
4

>  <i_qp_#ringatoms>  (1490) 
28

>  <i_qp_#rotor>  (1490) 
6

>  <i_qp_#rtvFG>  (1490) 
0

>  <i_qp_#stars>  (1490) 
1

>  <i_qp_CNS>  (1490) 
2

>  <i_qp_HumanOralAbsorption>  (1490) 
3

>  <i_qp_RuleOfFive>  (1490) 
0

>  <i_qp_RuleOfThree>  (1490) 
1

>  <i_sd_BIOSOLVEIT.INFINISEE\_REAGENT1\_NAME>  (1490) 
8349660

>  <i_sd_BIOSOLVEIT.INFINISEE\_REAGENT2\_NAME>  (1490) 
7547806

>  <i_sd_BIOSOLVEIT.INFINISEE\_RESULT\_RANK>  (1490) 
39763

>  <i_sd_version>  (1490) 
0

>  <b_lp_Chiralities_Consistent>  (1490) 
1

>  <b_sd_chiral_flag>  (1490) 
0

>  <canonical_id>  (1490) 
ATP-HTVS-EAD1C8AFD4A9

>  <compound_code>  (1490) 
38178

>  <title>  (1490) 
m_270004bbb____8349660____7547806

>  <variant>  (1490) 
38178-1

>  <source_file>  (1490) 
运行/运行/ATP-VSW/ATP-VSW-DOCK_HTVS_1-002_lib.maegz

>  <canonical_smiles>  (1490) 
c1ccc(-n2cc(C[NH2+]Cc3cccc(C[NH+]4CCCC4)c3)c(-c3ccncc3)n2)cc1

>  <scaffold>  (1490) 
c1ccc(-n2cc(C[NH2+]Cc3cccc(C[NH+]4CCCC4)c3)c(-c3ccncc3)n2)cc1

>  <molecular_formula>  (1490) 
C27H31N5+2

$$$$
ATP-HTVS-EAE06126CF40
     RDKit          3D

 59 62  0  0  0  0  0  0  0  0999 V2000
  200.3501  184.2052  159.7164 S   0  0  0  0  0  0  0  0  0  0  0  0
  200.0333  185.8211  159.1333 C   0  0  0  0  0  0  0  0  0  0  0  0
  200.9280  186.7186  159.6694 C   0  0  0  0  0  0  0  0  0  0  0  0
  201.8732  186.1116  160.5490 C   0  0  0  0  0  0  0  0  0  0  0  0
  201.6966  184.7609  160.6721 C   0  0  0  0  0  0  0  0  0  0  0  0
  198.9105  186.1044  158.1798 C   0  0  2  0  0  0  0  0  0  0  0  0
  197.5684  185.8353  158.8457 C   0  0  0  0  0  0  0  0  0  0  0  0
  196.7531  184.6330  158.8070 C   0  0  0  0  0  0  0  0  0  0  0  0
  195.5249  184.9097  159.4876 C   0  0  0  0  0  0  0  0  0  0  0  0
  195.6458  186.2019  159.9685 N   0  0  0  0  0  0  0  0  0  0  0  0
  196.8604  186.7523  159.5839 C   0  0  0  0  0  0  0  0  0  0  0  0
  194.4784  183.9681  159.5692 C   0  0  0  0  0  0  0  0  0  0  0  0
  194.6404  182.7102  158.9516 C   0  0  0  0  0  0  0  0  0  0  0  0
  195.8486  182.3982  158.3171 C   0  0  0  0  0  0  0  0  0  0  0  0
  196.9013  183.3403  158.2616 C   0  0  0  0  0  0  0  0  0  0  0  0
  199.1279  185.3632  156.8361 C   0  0  1  0  0  0  0  0  0  0  0  0
  197.9574  185.4922  155.9646 N   0  0  0  0  0  0  0  0  0  0  0  0
  198.0375  184.7282  154.7290 C   0  0  1  0  0  0  0  0  0  0  0  0
  198.2156  183.2309  154.9289 C   0  0  0  0  0  0  0  0  0  0  0  0
  199.5045  182.6691  154.7876 C   0  0  0  0  0  0  0  0  0  0  0  0
  199.7104  181.3028  154.9642 C   0  0  0  0  0  0  0  0  0  0  0  0
  198.6370  180.4624  155.3724 C   0  0  0  0  0  0  0  0  0  0  0  0
  197.3544  181.0249  155.5112 C   0  0  0  0  0  0  0  0  0  0  0  0
  197.1366  182.4008  155.2604 C   0  0  0  0  0  0  0  0  0  0  0  0
  198.8717  178.9671  155.6214 C   0  0  2  0  0  0  0  0  0  0  0  0
  199.5908  178.6446  156.8973 N   0  0  1  0  0  0  0  0  0  0  0  0
  199.9853  177.2299  157.0386 C   0  0  2  0  0  0  0  0  0  0  0  0
  200.7154  179.5290  157.2783 C   0  0  2  0  0  0  0  0  0  0  0  0
  199.5213  178.3391  154.3668 C   0  0  2  0  0  0  0  0  0  0  0  0
  197.7699  186.4614  155.7572 H   0  0  0  0  0  0  0  0  0  0  0  0
  200.9220  187.7772  159.4720 H   0  0  0  0  0  0  0  0  0  0  0  0
  202.6353  186.6875  161.0586 H   0  0  0  0  0  0  0  0  0  0  0  0
  202.2648  184.0639  161.2802 H   0  0  0  0  0  0  0  0  0  0  0  0
  198.9487  187.1660  157.9463 H   0  0  0  0  0  0  0  0  0  0  0  0
  194.9472  186.7117  160.4954 H   0  0  0  0  0  0  0  0  0  0  0  0
  197.1235  187.7684  159.8550 H   0  0  0  0  0  0  0  0  0  0  0  0
  193.5526  184.2145  160.0810 H   0  0  0  0  0  0  0  0  0  0  0  0
  193.8531  181.9671  158.9856 H   0  0  0  0  0  0  0  0  0  0  0  0
  195.9596  181.4289  157.8564 H   0  0  0  0  0  0  0  0  0  0  0  0
  197.8151  183.0677  157.7453 H   0  0  0  0  0  0  0  0  0  0  0  0
  200.0190  185.7441  156.3356 H   0  0  0  0  0  0  0  0  0  0  0  0
  199.3135  184.3085  157.0436 H   0  0  0  0  0  0  0  0  0  0  0  0
  197.1097  184.8882  154.1746 H   0  0  0  0  0  0  0  0  0  0  0  0
  198.8479  185.1227  154.1102 H   0  0  0  0  0  0  0  0  0  0  0  0
  200.3489  183.3107  154.5735 H   0  0  0  0  0  0  0  0  0  0  0  0
  200.7073  180.9024  154.8447 H   0  0  0  0  0  0  0  0  0  0  0  0
  196.5118  180.4063  155.8213 H   0  0  0  0  0  0  0  0  0  0  0  0
  196.1386  182.8146  155.3738 H   0  0  0  0  0  0  0  0  0  0  0  0
  197.8859  178.5048  155.7269 H   0  0  0  0  0  0  0  0  0  0  0  0
  200.7391  176.9403  156.2975 H   0  0  0  0  0  0  0  0  0  0  0  0
  199.1194  176.5843  156.9257 H   0  0  0  0  0  0  0  0  0  0  0  0
  200.4119  177.0362  158.0258 H   0  0  0  0  0  0  0  0  0  0  0  0
  201.4663  179.5423  156.4827 H   0  0  0  0  0  0  0  0  0  0  0  0
  201.2155  179.1948  158.1765 H   0  0  0  0  0  0  0  0  0  0  0  0
  200.3864  180.5572  157.4586 H   0  0  0  0  0  0  0  0  0  0  0  0
  198.9645  178.6322  153.4709 H   0  0  0  0  0  0  0  0  0  0  0  0
  199.5246  177.2503  154.3957 H   0  0  0  0  0  0  0  0  0  0  0  0
  200.5492  178.6860  154.2390 H   0  0  0  0  0  0  0  0  0  0  0  0
  198.8625  178.7416  157.6197 H   0  0  0  0  0  0  0  0  0  0  0  0
  1  2  1  0
  1  5  1  0
  2  3  2  0
  2  6  1  0
  3  4  1  0
  3 31  1  0
  4  5  2  0
  4 32  1  0
  5 33  1  0
  6  7  1  0
  6 16  1  0
  6 34  1  6
  7  8  1  0
  7 11  2  0
  8  9  1  0
  8 15  2  0
  9 10  1  0
  9 12  2  0
 10 11  1  0
 10 35  1  0
 11 36  1  0
 12 13  1  0
 12 37  1  0
 13 14  2  0
 13 38  1  0
 14 15  1  0
 14 39  1  0
 15 40  1  0
 16 17  1  0
 16 41  1  6
 16 42  1  0
 17 18  1  0
 17 30  1  0
 18 19  1  0
 18 43  1  6
 18 44  1  0
 19 20  1  0
 19 24  2  0
 20 21  2  0
 20 45  1  0
 21 22  1  0
 21 46  1  0
 22 23  2  0
 22 25  1  0
 23 24  1  0
 23 47  1  0
 24 48  1  0
 25 26  1  0
 25 29  1  0
 25 49  1  1
 26 27  1  0
 26 28  1  0
 26 59  1  1
 27 50  1  6
 27 51  1  0
 27 52  1  0
 28 53  1  6
 28 54  1  0
 28 55  1  0
 29 56  1  6
 29 57  1  0
 29 58  1  0
M  CHG  1  26   1
M  END
>  <s_epik_cmdline>  (1491) 
J2VwaWtfcHl0aG9uJywgJy1waCcsICc3LjAwMDAwMCcsICctcGh0JywgJzIuMDAwMDAwJywgJy1tcycsICcxNicsICctdG4nLCAnOCcsICctbWEnLCAnMjAwJywgJy1pbWFlJywgJzxpbmZpbGUubWFlPicsICctb21hZScsICc8b3V0ZmlsZS5tYWU+Jw==

>  <s_epik_input>  (1491) 
W2NIXTFbY0hdW2NIXVtjSF1jKGMxMilbbkhdW2NIXWMyW0NAQEhdKGMzc1tjSF1bY0hdW2NIXTMpW0NIMl1bTkhdW0NIMl1jNFtjSF1bY0hdYyhbY0hdW2NIXTQpW0NAQEhdKFtDSDNdKU4oW0NIM10pW0NIM10=

>  <s_i_glide_gridfile>  (1491) 
ATP-Grid

>  <s_lp_Force_Field>  (1491) 
OPLS_2005

>  <s_lp_Variant>  (1491) 
a4____269397____411479-5

>  <s_lp_label>  (1491) 
498_sdstereoexpander_1_neutralizer_1_epik_2_stereoizer_1

>  <s_m_source_file>  (1491) 
ATP-VSW-LIGPREP-003-in.maegz

>  <s_sd_BIOSOLVEIT.INFINISEE\_QUERY\_NAME>  (1491) 
Ref-Lig

>  <s_sd_BIOSOLVEIT.INFINISEE\_QUERY\_SMILES>  (1491) 
S(c1nc2c(cc1C[NH2+]Cc3ccc(cc3)C[NH+](C)C)cccc2)Cc4ccccc4

>  <s_sd_BIOSOLVEIT.INFINISEE\_REACTION\_NAME>  (1491) 
a4

>  <s_sd_BIOSOLVEIT.INFINISEE\_REAGENT1\_SMILES>  (1491) 
[R1*]NCC(C=1SC=CC1)C=2c3c(NC2)cccc3

>  <s_sd_BIOSOLVEIT.INFINISEE\_REAGENT2\_SMILES>  (1491) 
[R1*]Cc1ccc(cc1)C(N(C)C)C

>  <s_sd_BIOSOLVEIT.INFINISEE\_SPACE>  (1491) 
FreedomSpace_5bn_2023-06

>  <s_vsw_compound_code>  (1491) 
15907

>  <s_vsw_variant>  (1491) 
15907-5

>  <r_epik_Charging_Adjusted_Penalty>  (1491) 
1.3927815097718299

>  <r_epik_Ionization_Penalty>  (1491) 
1.3507

>  <r_epik_Ionization_Penalty_Charging>  (1491) 
0.042999999999999997

>  <r_epik_Ionization_Penalty_Neutral>  (1491) 
1.3077000000000001

>  <r_epik_State_Penalty>  (1491) 
1.3498000000000001

>  <r_i_docking_score>  (1491) 
-2.8375207949068701

>  <r_i_glide_ecoul>  (1491) 
-8.1856050491333008

>  <r_i_glide_eff_state_penalty>  (1491) 
1.3498000000000001

>  <r_i_glide_einternal>  (1491) 
4.0058617591857901

>  <r_i_glide_emodel>  (1491) 
-54.619609292214697

>  <r_i_glide_energy>  (1491) 
-41.740376472473102

>  <r_i_glide_erotb>  (1491) 
0.84005333291961604

>  <r_i_glide_esite>  (1491) 
-0.10000000000000001

>  <r_i_glide_evdw>  (1491) 
-33.554771423339801

>  <r_i_glide_gscore>  (1491) 
-4.1873207949068698

>  <r_i_glide_hbond>  (1491) 
-0.14258376498617101

>  <r_i_glide_ligand_efficiency>  (1491) 
-0.097845544651961103

>  <r_i_glide_ligand_efficiency_ln>  (1491) 
-0.64972030871461695

>  <r_i_glide_ligand_efficiency_sa>  (1491) 
-0.30061251281519902

>  <r_i_glide_lipo>  (1491) 
-1.2287005797578801

>  <r_i_glide_metal>  (1491) 
-0

>  <r_i_glide_rewards>  (1491) 
-0.65051045454545298

>  <r_lp_Energy>  (1491) 
14.047903

>  <r_qp_ACxDN^.5/SA>  (1491) 
0.0074939000000000004

>  <r_qp_CIQPlogS>  (1491) 
-5.0119999999999996

>  <r_qp_EA(eV)>  (1491) 
0.14599999999999999

>  <r_qp_FISA>  (1491) 
41.881999999999998

>  <r_qp_FOSA>  (1491) 
251.697

>  <r_qp_IP(eV)>  (1491) 
8.1340000000000003

>  <r_qp_Jm>  (1491) 
0.0065582779290183401

>  <r_qp_PISA>  (1491) 
325.36399999999998

>  <r_qp_PSA>  (1491) 
30.937000000000001

>  <r_qp_PercentHumanOralAbsorption>  (1491) 
100

>  <r_qp_QPPCaco>  (1491) 
246.90700000000001

>  <r_qp_QPPMDCK>  (1491) 
225.517

>  <r_qp_QPlogBB>  (1491) 
0.60499999999999998

>  <r_qp_QPlogHERG>  (1491) 
-6.7599999999999998

>  <r_qp_QPlogKhsa>  (1491) 
1.0089999999999999

>  <r_qp_QPlogKp>  (1491) 
-4.5019999999999998

>  <r_qp_QPlogPC16>  (1491) 
13.419

>  <r_qp_QPlogPo/w>  (1491) 
4.8609999999999998

>  <r_qp_QPlogPoct>  (1491) 
19.073

>  <r_qp_QPlogPw>  (1491) 
8.4329999999999998

>  <r_qp_QPlogS>  (1491) 
-3.2869999999999999

>  <r_qp_QPpolrz>  (1491) 
42.988999999999997

>  <r_qp_SASA>  (1491) 
660.50400000000002

>  <r_qp_SAamideO>  (1491) 
0

>  <r_qp_SAfluorine>  (1491) 
0

>  <r_qp_WPSA>  (1491) 
41.560000000000002

>  <r_qp_accptHB>  (1491) 
3.5

>  <r_qp_dip^2/V>  (1491) 
0.0060099999999999997

>  <r_qp_dipole>  (1491) 
2.7719999999999998

>  <r_qp_donorHB>  (1491) 
2

>  <r_qp_glob>  (1491) 
0.86257300000000003

>  <r_qp_mol_MW>  (1491) 
403.584

>  <r_qp_volume>  (1491) 
1278.672

>  <r_sd_BIOSOLVEIT.INFINISEE\_FTREES\_SIMILARITY>  (1491) 
0.90400000000000003

>  <r_sd_BIOSOLVEIT.LOGP>  (1491) 
3.3304

>  <r_sd_BIOSOLVEIT.MOLECULAR\_WEIGHT>  (1491) 
405.60599999999999

>  <r_sd_BIOSOLVEIT.TPSA>  (1491) 
36.840000000000003

>  <i_epik_Tot_Q>  (1491) 
1

>  <i_epik_Tot_abs_Q>  (1491) 
1

>  <i_f3d_flags>  (1491) 
0

>  <i_i_glide_confnum>  (1491) 
9

>  <i_i_glide_lignum>  (1491) 
239

>  <i_i_glide_posenum>  (1491) 
11

>  <i_i_glide_rotatable_bonds>  (1491) 
8

>  <i_lp_mmshare_version>  (1491) 
65135

>  <i_m_ct_format>  (1491) 
2

>  <i_m_source_file_index>  (1491) 
498

>  <i_qp_#NandO>  (1491) 
3

>  <i_qp_#acid>  (1491) 
0

>  <i_qp_#amide>  (1491) 
0

>  <i_qp_#amidine>  (1491) 
0

>  <i_qp_#amine>  (1491) 
2

>  <i_qp_#in34>  (1491) 
0

>  <i_qp_#in56>  (1491) 
20

>  <i_qp_#metab>  (1491) 
6

>  <i_qp_#nonHatm>  (1491) 
29

>  <i_qp_#noncon>  (1491) 
0

>  <i_qp_#ringatoms>  (1491) 
20

>  <i_qp_#rotor>  (1491) 
8

>  <i_qp_#rtvFG>  (1491) 
0

>  <i_qp_#stars>  (1491) 
0

>  <i_qp_CNS>  (1491) 
2

>  <i_qp_HumanOralAbsorption>  (1491) 
3

>  <i_qp_RuleOfFive>  (1491) 
0

>  <i_qp_RuleOfThree>  (1491) 
0

>  <i_sd_BIOSOLVEIT.INFINISEE\_REAGENT1\_NAME>  (1491) 
269397

>  <i_sd_BIOSOLVEIT.INFINISEE\_REAGENT2\_NAME>  (1491) 
411479

>  <i_sd_BIOSOLVEIT.INFINISEE\_RESULT\_RANK>  (1491) 
74212

>  <i_sd_version>  (1491) 
0

>  <b_lp_Chiralities_Consistent>  (1491) 
1

>  <b_sd_chiral_flag>  (1491) 
0

>  <canonical_id>  (1491) 
ATP-HTVS-EAE06126CF40

>  <compound_code>  (1491) 
15907

>  <title>  (1491) 
a4____269397____411479

>  <variant>  (1491) 
15907-5

>  <source_file>  (1491) 
运行/运行/ATP-VSW/ATP-VSW-DOCK_HTVS_1-003_lib/ATP-VSW-DOCK_HTVS_1-003_lib.mae

>  <canonical_smiles>  (1491) 
C[C@H](c1ccc(CNC[C@H](c2cccs2)c2c[nH]c3ccccc23)cc1)[NH+](C)C

>  <scaffold>  (1491) 
c1ccc(CNCC(c2cccs2)c2c[nH]c3ccccc23)cc1

>  <molecular_formula>  (1491) 
C25H30N3S+

$$$$
ATP-HTVS-EB0B96E798C5
     RDKit          3D

 55 58  0  0  0  0  0  0  0  0999 V2000
  196.5296  181.4353  157.2990 N   0  0  0  0  0  0  0  0  0  0  0  0
  196.0770  182.6165  157.9008 C   0  0  0  0  0  0  0  0  0  0  0  0
  196.9773  183.6456  157.5388 C   0  0  0  0  0  0  0  0  0  0  0  0
  197.9344  183.0311  156.7246 N   0  0  0  0  0  0  0  0  0  0  0  0
  197.6602  181.6968  156.5957 C   0  0  0  0  0  0  0  0  0  0  0  0
  198.4419  180.6912  155.8236 C   0  0  1  0  0  0  0  0  0  0  0  0
  199.3402  179.9113  156.6533 N   0  0  0  0  0  0  0  0  0  0  0  0
  199.8424  178.6836  156.2059 C   0  0  0  0  0  0  0  0  0  0  0  0
  200.5458  177.8796  157.1229 C   0  0  0  0  0  0  0  0  0  0  0  0
  201.0790  176.6401  156.7227 C   0  0  0  0  0  0  0  0  0  0  0  0
  200.9160  176.1843  155.3998 C   0  0  0  0  0  0  0  0  0  0  0  0
  201.4697  174.9422  155.0603 N   0  0  0  0  0  0  0  0  0  0  0  0
  201.3656  174.4058  153.7077 C   0  0  1  0  0  0  0  0  0  0  0  0
  201.6832  172.9048  153.6623 C   0  0  1  0  0  0  0  0  0  0  0  0
  203.0259  172.6371  154.1735 N   0  0  2  0  0  0  0  0  0  0  0  0
  200.2052  176.9874  154.4803 C   0  0  0  0  0  0  0  0  0  0  0  0
  199.6708  178.2252  154.8805 C   0  0  0  0  0  0  0  0  0  0  0  0
  199.0316  183.8431  156.1537 C   0  0  1  0  0  0  0  0  0  0  0  0
  198.6732  184.3940  154.7805 C   0  0  0  0  0  0  0  0  0  0  0  0
  198.1059  183.5565  153.7925 C   0  0  0  0  0  0  0  0  0  0  0  0
  197.7784  184.0629  152.5214 C   0  0  0  0  0  0  0  0  0  0  0  0
  198.0150  185.4171  152.2269 C   0  0  0  0  0  0  0  0  0  0  0  0
  198.5806  186.2577  153.2036 C   0  0  0  0  0  0  0  0  0  0  0  0
  198.9082  185.7512  154.4763 C   0  0  0  0  0  0  0  0  0  0  0  0
  196.8166  184.9687  157.9755 C   0  0  0  0  0  0  0  0  0  0  0  0
  195.7129  185.2326  158.8136 C   0  0  0  0  0  0  0  0  0  0  0  0
  194.8153  184.2065  159.1786 C   0  0  0  0  0  0  0  0  0  0  0  0
  194.9873  182.8776  158.7235 C   0  0  0  0  0  0  0  0  0  0  0  0
  203.1952  171.6005  154.1340 H   0  0  0  0  0  0  0  0  0  0  0  0
  203.1067  172.9327  155.1235 H   0  0  0  0  0  0  0  0  0  0  0  0
  197.7327  180.0482  155.3017 H   0  0  0  0  0  0  0  0  0  0  0  0
  199.0498  181.1931  155.0694 H   0  0  0  0  0  0  0  0  0  0  0  0
  199.4033  180.1419  157.6339 H   0  0  0  0  0  0  0  0  0  0  0  0
  200.6793  178.2087  158.1426 H   0  0  0  0  0  0  0  0  0  0  0  0
  201.6158  176.0394  157.4419 H   0  0  0  0  0  0  0  0  0  0  0  0
  201.9960  174.4447  155.7628 H   0  0  0  0  0  0  0  0  0  0  0  0
  200.3550  174.5674  153.3240 H   0  0  0  0  0  0  0  0  0  0  0  0
  202.0430  174.9608  153.0553 H   0  0  0  0  0  0  0  0  0  0  0  0
  200.9535  172.3515  154.2543 H   0  0  0  0  0  0  0  0  0  0  0  0
  201.6053  172.5412  152.6369 H   0  0  0  0  0  0  0  0  0  0  0  0
  200.0531  176.6761  153.4597 H   0  0  0  0  0  0  0  0  0  0  0  0
  199.1347  178.8074  154.1480 H   0  0  0  0  0  0  0  0  0  0  0  0
  199.2759  184.6589  156.8393 H   0  0  0  0  0  0  0  0  0  0  0  0
  199.9281  183.2278  156.0818 H   0  0  0  0  0  0  0  0  0  0  0  0
  197.9066  182.5155  153.9899 H   0  0  0  0  0  0  0  0  0  0  0  0
  197.3402  183.4068  151.7813 H   0  0  0  0  0  0  0  0  0  0  0  0
  197.7563  185.8069  151.2548 H   0  0  0  0  0  0  0  0  0  0  0  0
  198.7520  187.2980  152.9786 H   0  0  0  0  0  0  0  0  0  0  0  0
  199.3381  186.4076  155.2171 H   0  0  0  0  0  0  0  0  0  0  0  0
  197.4947  185.7680  157.6989 H   0  0  0  0  0  0  0  0  0  0  0  0
  195.5429  186.2383  159.1747 H   0  0  0  0  0  0  0  0  0  0  0  0
  193.9702  184.4500  159.8117 H   0  0  0  0  0  0  0  0  0  0  0  0
  194.2974  182.0987  159.0023 H   0  0  0  0  0  0  0  0  0  0  0  0
  203.7044  173.0997  153.6100 H   0  0  0  0  0  0  0  0  0  0  0  0
  196.1256  180.4885  157.3712 H   0  0  0  0  0  0  0  0  0  0  0  0
  1  2  1  0
  1  5  2  0
  1 55  1  0
  2  3  1  0
  2 28  2  0
  3  4  1  0
  3 25  2  0
  4  5  1  0
  4 18  1  0
  5  6  1  0
  6  7  1  0
  6 31  1  6
  6 32  1  0
  7  8  1  0
  7 33  1  0
  8  9  1  0
  8 17  2  0
  9 10  2  0
  9 34  1  0
 10 11  1  0
 10 35  1  0
 11 12  1  0
 11 16  2  0
 12 13  1  0
 12 36  1  0
 13 14  1  0
 13 37  1  6
 13 38  1  0
 14 15  1  0
 14 39  1  1
 14 40  1  0
 15 29  1  1
 15 30  1  0
 15 54  1  0
 16 17  1  0
 16 41  1  0
 17 42  1  0
 18 19  1  0
 18 43  1  1
 18 44  1  0
 19 20  2  0
 19 24  1  0
 20 21  1  0
 20 45  1  0
 21 22  2  0
 21 46  1  0
 22 23  1  0
 22 47  1  0
 23 24  2  0
 23 48  1  0
 24 49  1  0
 25 26  1  0
 25 50  1  0
 26 27  2  0
 26 51  1  0
 27 28  1  0
 27 52  1  0
 28 53  1  0
M  CHG  2   1   1  15   1
M  END
>  <s_epik_cmdline>  (1492) 
J2VwaWtfcHl0aG9uJywgJy1waCcsICc3LjAwMDAwMCcsICctcGh0JywgJzIuMDAwMDAwJywgJy1tcycsICcxNicsICctdG4nLCAnOCcsICctbWEnLCAnMjAwJywgJy1pbWFlJywgJzxpbmZpbGUubWFlPicsICctb21hZScsICc8b3V0ZmlsZS5tYWU+Jw==

>  <s_epik_input>  (1492) 
W2NIXTFbY0hdW2NIXVtjSF1bY0hdYzFbQ0gyXW4oYyhjMjMpW2NIXVtjSF1bY0hdW2NIXTMpYyhuMilbQ0gyXVtOSF1jNFtjSF1bY0hdYyhbY0hdW2NIXTQpW05IXVtDSDJdW0NIMl1bTkgyXQ==

>  <s_i_glide_gridfile>  (1492) 
ATP-Grid

>  <s_lp_Force_Field>  (1492) 
OPLS_2005

>  <s_lp_Variant>  (1492) 
rxn102c____EMOL49832880____EMOL44693140-2

>  <s_lp_label>  (1492) 
2809_sdstereoexpander_1_neutralizer_1_epik_2_stereoizer_1

>  <s_m_source_file>  (1492) 
ATP-VSW-LIGPREP-003-in.maegz

>  <s_sd_BIOSOLVEIT.INFINISEE\_QUERY\_NAME>  (1492) 
Ref-Lig

>  <s_sd_BIOSOLVEIT.INFINISEE\_QUERY\_SMILES>  (1492) 
S(c1nc2c(cc1C[NH2+]Cc3ccc(cc3)C[NH+](C)C)cccc2)Cc4ccccc4

>  <s_sd_BIOSOLVEIT.INFINISEE\_REACTION\_NAME>  (1492) 
rxn102c

>  <s_sd_BIOSOLVEIT.INFINISEE\_REAGENT1\_NAME>  (1492) 
EMOL49832880

>  <s_sd_BIOSOLVEIT.INFINISEE\_REAGENT1\_SMILES>  (1492) 
Clc1ccc(NCCN)cc1

>  <s_sd_BIOSOLVEIT.INFINISEE\_REAGENT2\_NAME>  (1492) 
EMOL44693140

>  <s_sd_BIOSOLVEIT.INFINISEE\_REAGENT2\_SMILES>  (1492) 
N=1c2c(N(C1CN)Cc3ccccc3)cccc2

>  <s_sd_BIOSOLVEIT.INFINISEE\_SPACE>  (1492) 
eXplore_7tr_2022-12

>  <s_vsw_compound_code>  (1492) 
89859

>  <s_vsw_variant>  (1492) 
89859-2

>  <r_epik_Charging_Adjusted_Penalty>  (1492) 
1.0420241013913401

>  <r_epik_Ionization_Penalty>  (1492) 
0.52239999999999998

>  <r_epik_Ionization_Penalty_Charging>  (1492) 
0.5212

>  <r_epik_Ionization_Penalty_Neutral>  (1492) 
0.0011999999999999999

>  <r_epik_State_Penalty>  (1492) 
0.52080000000000004

>  <r_i_docking_score>  (1492) 
-5.7056666821813096

>  <r_i_glide_ecoul>  (1492) 
-18.184394836425799

>  <r_i_glide_eff_state_penalty>  (1492) 
0.52080000000000004

>  <r_i_glide_einternal>  (1492) 
7.2092413902282697

>  <r_i_glide_emodel>  (1492) 
-73.488104646289301

>  <r_i_glide_energy>  (1492) 
-47.709484100341797

>  <r_i_glide_erotb>  (1492) 
0.96976399640540101

>  <r_i_glide_esite>  (1492) 
-0.333458695707333

>  <r_i_glide_evdw>  (1492) 
-29.525089263916001

>  <r_i_glide_gscore>  (1492) 
-6.2264666821813099

>  <r_i_glide_hbond>  (1492) 
-0.338398861725901

>  <r_i_glide_ligand_efficiency>  (1492) 
-0.20377381007790399

>  <r_i_glide_ligand_efficiency_ln>  (1492) 
-1.31703539590068

>  <r_i_glide_ligand_efficiency_sa>  (1492) 
-0.61877730375235096

>  <r_i_glide_lipo>  (1492) 
-1.0079183870392601

>  <r_i_glide_metal>  (1492) 
-0

>  <r_i_glide_rewards>  (1492) 
-1.3125410454545401

>  <r_lp_Energy>  (1492) 
22.119392000000001

>  <r_qp_ACxDN^.5/SA>  (1492) 
0.0127454

>  <r_qp_CIQPlogS>  (1492) 
-4.8550000000000004

>  <r_qp_EA(eV)>  (1492) 
0.29399999999999998

>  <r_qp_FISA>  (1492) 
112.596

>  <r_qp_FOSA>  (1492) 
135.60499999999999

>  <r_qp_IP(eV)>  (1492) 
7.4359999999999999

>  <r_qp_Jm>  (1492) 
0.0146129412720679

>  <r_qp_PISA>  (1492) 
457.93400000000003

>  <r_qp_PSA>  (1492) 
67.310000000000002

>  <r_qp_PercentHumanOralAbsorption>  (1492) 
91.119

>  <r_qp_QPPCaco>  (1492) 
211.37200000000001

>  <r_qp_QPPMDCK>  (1492) 
102.02

>  <r_qp_QPlogBB>  (1492) 
-0.76900000000000002

>  <r_qp_QPlogHERG>  (1492) 
-7.7649999999999997

>  <r_qp_QPlogKhsa>  (1492) 
0.47399999999999998

>  <r_qp_QPlogKp>  (1492) 
-3.1800000000000002

>  <r_qp_QPlogPC16>  (1492) 
14.808999999999999

>  <r_qp_QPlogPo/w>  (1492) 
3.8530000000000002

>  <r_qp_QPlogPoct>  (1492) 
22.507999999999999

>  <r_qp_QPlogPw>  (1492) 
13.605

>  <r_qp_QPlogS>  (1492) 
-4.2249999999999996

>  <r_qp_QPpolrz>  (1492) 
42.456000000000003

>  <r_qp_SASA>  (1492) 
706.13599999999997

>  <r_qp_SAamideO>  (1492) 
0

>  <r_qp_SAfluorine>  (1492) 
0

>  <r_qp_WPSA>  (1492) 
0

>  <r_qp_accptHB>  (1492) 
4.5

>  <r_qp_dip^2/V>  (1492) 
0.015996699999999999

>  <r_qp_dipole>  (1492) 
4.4710000000000001

>  <r_qp_donorHB>  (1492) 
4

>  <r_qp_glob>  (1492) 
0.79462880000000002

>  <r_qp_mol_MW>  (1492) 
371.48399999999998

>  <r_qp_volume>  (1492) 
1249.7729999999999

>  <r_sd_BIOSOLVEIT.INFINISEE\_FTREES\_SIMILARITY>  (1492) 
0.90600000000000003

>  <r_sd_BIOSOLVEIT.LOGP>  (1492) 
3.3504999999999998

>  <r_sd_BIOSOLVEIT.MOLECULAR\_WEIGHT>  (1492) 
372.49299999999999

>  <r_sd_BIOSOLVEIT.TPSA>  (1492) 
69.519999999999996

>  <i_epik_Tot_Q>  (1492) 
2

>  <i_epik_Tot_abs_Q>  (1492) 
2

>  <i_f3d_flags>  (1492) 
0

>  <i_i_glide_confnum>  (1492) 
4

>  <i_i_glide_lignum>  (1492) 
1341

>  <i_i_glide_posenum>  (1492) 
19

>  <i_i_glide_rotatable_bonds>  (1492) 
8

>  <i_lp_mmshare_version>  (1492) 
65135

>  <i_m_ct_format>  (1492) 
2

>  <i_m_source_file_index>  (1492) 
2809

>  <i_qp_#NandO>  (1492) 
5

>  <i_qp_#acid>  (1492) 
0

>  <i_qp_#amide>  (1492) 
0

>  <i_qp_#amidine>  (1492) 
0

>  <i_qp_#amine>  (1492) 
1

>  <i_qp_#in34>  (1492) 
0

>  <i_qp_#in56>  (1492) 
21

>  <i_qp_#metab>  (1492) 
9

>  <i_qp_#nonHatm>  (1492) 
28

>  <i_qp_#noncon>  (1492) 
0

>  <i_qp_#ringatoms>  (1492) 
21

>  <i_qp_#rotor>  (1492) 
9

>  <i_qp_#rtvFG>  (1492) 
0

>  <i_qp_#stars>  (1492) 
3

>  <i_qp_CNS>  (1492) 
-1

>  <i_qp_HumanOralAbsorption>  (1492) 
3

>  <i_qp_RuleOfFive>  (1492) 
0

>  <i_qp_RuleOfThree>  (1492) 
1

>  <i_sd_BIOSOLVEIT.INFINISEE\_RESULT\_RANK>  (1492) 
64392

>  <i_sd_version>  (1492) 
0

>  <b_lp_Chiralities_Consistent>  (1492) 
1

>  <b_sd_chiral_flag>  (1492) 
0

>  <canonical_id>  (1492) 
ATP-HTVS-EB0B96E798C5

>  <compound_code>  (1492) 
89859

>  <title>  (1492) 
rxn102c____EMOL49832880____EMOL44693140

>  <variant>  (1492) 
89859-2

>  <source_file>  (1492) 
运行/运行/ATP-VSW/ATP-VSW-DOCK_HTVS_1-003_lib/ATP-VSW-DOCK_HTVS_1-003_lib.mae

>  <canonical_smiles>  (1492) 
[NH3+]CCNc1ccc(NCc2[nH+]c3ccccc3n2Cc2ccccc2)cc1

>  <scaffold>  (1492) 
c1ccc(Cn2c(CNc3ccccc3)[nH+]c3ccccc32)cc1

>  <molecular_formula>  (1492) 
C23H27N5+2

$$$$
ATP-HTVS-EB12E3425930
     RDKit          3D

 61 64  0  0  0  0  0  0  0  0999 V2000
  196.9290  181.3999  152.1192 S   0  0  1  0  0  0  0  0  0  0  0  0
  196.0329  180.3331  152.5811 O   0  0  0  0  0  0  0  0  0  0  0  0
  197.8345  181.1579  150.9897 O   0  0  0  0  0  0  0  0  0  0  0  0
  195.9650  182.7712  151.7167 N   0  0  0  0  0  0  0  0  0  0  0  0
  196.5966  183.8958  151.0320 C   0  0  2  0  0  0  0  0  0  0  0  0
  197.9009  182.0395  153.5484 C   0  0  1  0  0  0  0  0  0  0  0  0
  198.7095  180.9357  154.2190 C   0  0  0  0  0  0  0  0  0  0  0  0
  198.4943  180.5437  155.5682 C   0  0  0  0  0  0  0  0  0  0  0  0
  199.3179  179.5451  156.1336 C   0  0  0  0  0  0  0  0  0  0  0  0
  200.3349  178.9311  155.3787 C   0  0  0  0  0  0  0  0  0  0  0  0
  200.5361  179.3103  154.0411 C   0  0  0  0  0  0  0  0  0  0  0  0
  199.7338  180.3136  153.4707 C   0  0  0  0  0  0  0  0  0  0  0  0
  197.4065  181.1567  156.4437 C   0  0  1  0  0  0  0  0  0  0  0  0
  197.7193  182.5180  156.8368 N   0  0  0  0  0  0  0  0  0  0  0  0
  196.8103  182.9759  157.8814 C   0  0  1  0  0  0  0  0  0  0  0  0
  197.0652  184.4083  158.3326 C   0  0  0  0  0  0  0  0  0  0  0  0
  196.0939  185.0728  159.1138 C   0  0  0  0  0  0  0  0  0  0  0  0
  196.3250  186.3876  159.5962 C   0  0  0  0  0  0  0  0  0  0  0  0
  195.4298  187.0736  160.3864 O   0  0  0  0  0  0  0  0  0  0  0  0
  194.3640  186.3581  160.9870 C   0  0  1  0  0  0  0  0  0  0  0  0
  193.5815  187.2139  161.9755 C   0  0  0  0  0  0  0  0  0  0  0  0
  192.5499  186.6379  162.7401 C   0  0  0  0  0  0  0  0  0  0  0  0
  191.8078  187.4239  163.6472 C   0  0  0  0  0  0  0  0  0  0  0  0
  192.1019  188.7927  163.7968 C   0  0  0  0  0  0  0  0  0  0  0  0
  193.1341  189.3748  163.0414 C   0  0  0  0  0  0  0  0  0  0  0  0
  193.8725  188.5872  162.1380 C   0  0  0  0  0  0  0  0  0  0  0  0
  197.5368  187.0424  159.2668 C   0  0  0  0  0  0  0  0  0  0  0  0
  198.5076  186.3775  158.4786 C   0  0  0  0  0  0  0  0  0  0  0  0
  198.2737  185.0720  158.0230 C   0  0  0  0  0  0  0  0  0  0  0  0
  199.7253  187.0101  158.1590 C   0  0  0  0  0  0  0  0  0  0  0  0
  199.9905  188.3087  158.6256 C   0  0  0  0  0  0  0  0  0  0  0  0
  199.0304  188.9780  159.4077 C   0  0  0  0  0  0  0  0  0  0  0  0
  197.8096  188.3502  159.7261 C   0  0  0  0  0  0  0  0  0  0  0  0
  198.6667  182.5282  157.1827 H   0  0  0  0  0  0  0  0  0  0  0  0
  195.3199  183.0416  152.4751 H   0  0  0  0  0  0  0  0  0  0  0  0
  195.8540  184.6337  150.7449 H   0  0  0  0  0  0  0  0  0  0  0  0
  197.0899  183.5505  150.1247 H   0  0  0  0  0  0  0  0  0  0  0  0
  197.3432  184.3720  151.6654 H   0  0  0  0  0  0  0  0  0  0  0  0
  198.5766  182.8174  153.1925 H   0  0  0  0  0  0  0  0  0  0  0  0
  197.1996  182.5108  154.2304 H   0  0  0  0  0  0  0  0  0  0  0  0
  199.1701  179.2363  157.1615 H   0  0  0  0  0  0  0  0  0  0  0  0
  200.9536  178.1645  155.8222 H   0  0  0  0  0  0  0  0  0  0  0  0
  201.3067  178.8389  153.4513 H   0  0  0  0  0  0  0  0  0  0  0  0
  199.9085  180.6019  152.4440 H   0  0  0  0  0  0  0  0  0  0  0  0
  196.4392  181.1173  155.9412 H   0  0  0  0  0  0  0  0  0  0  0  0
  197.3223  180.5549  157.3462 H   0  0  0  0  0  0  0  0  0  0  0  0
  195.7771  182.8811  157.5381 H   0  0  0  0  0  0  0  0  0  0  0  0
  196.9127  182.3305  158.7571 H   0  0  0  0  0  0  0  0  0  0  0  0
  195.1727  184.5502  159.3293 H   0  0  0  0  0  0  0  0  0  0  0  0
  193.6745  185.9854  160.2305 H   0  0  0  0  0  0  0  0  0  0  0  0
  194.7861  185.5060  161.5135 H   0  0  0  0  0  0  0  0  0  0  0  0
  192.3213  185.5883  162.6283 H   0  0  0  0  0  0  0  0  0  0  0  0
  191.0132  186.9812  164.2266 H   0  0  0  0  0  0  0  0  0  0  0  0
  191.5304  189.3977  164.4857 H   0  0  0  0  0  0  0  0  0  0  0  0
  193.3678  190.4241  163.1494 H   0  0  0  0  0  0  0  0  0  0  0  0
  194.6593  189.0570  161.5590 H   0  0  0  0  0  0  0  0  0  0  0  0
  199.0459  184.5953  157.4349 H   0  0  0  0  0  0  0  0  0  0  0  0
  200.4655  186.4943  157.5662 H   0  0  0  0  0  0  0  0  0  0  0  0
  200.9321  188.7833  158.3944 H   0  0  0  0  0  0  0  0  0  0  0  0
  199.2429  189.9669  159.7904 H   0  0  0  0  0  0  0  0  0  0  0  0
  197.0992  188.8809  160.3419 H   0  0  0  0  0  0  0  0  0  0  0  0
  1  2  2  0
  1  3  2  0
  1  4  1  6
  1  6  1  0
  4  5  1  0
  4 35  1  0
  5 36  1  6
  5 37  1  0
  5 38  1  0
  6  7  1  0
  6 39  1  6
  6 40  1  0
  7  8  1  0
  7 12  2  0
  8  9  2  0
  8 13  1  0
  9 10  1  0
  9 41  1  0
 10 11  2  0
 10 42  1  0
 11 12  1  0
 11 43  1  0
 12 44  1  0
 13 14  1  0
 13 45  1  6
 13 46  1  0
 14 15  1  0
 14 34  1  0
 15 16  1  0
 15 47  1  6
 15 48  1  0
 16 17  1  0
 16 29  2  0
 17 18  2  0
 17 49  1  0
 18 19  1  0
 18 27  1  0
 19 20  1  0
 20 21  1  0
 20 50  1  6
 20 51  1  0
 21 22  2  0
 21 26  1  0
 22 23  1  0
 22 52  1  0
 23 24  2  0
 23 53  1  0
 24 25  1  0
 24 54  1  0
 25 26  2  0
 25 55  1  0
 26 56  1  0
 27 28  1  0
 27 33  2  0
 28 29  1  0
 28 30  2  0
 29 57  1  0
 30 31  1  0
 30 58  1  0
 31 32  2  0
 31 59  1  0
 32 33  1  0
 32 60  1  0
 33 61  1  0
M  END
>  <s_epik_cmdline>  (1493) 
J2VwaWtfcHl0aG9uJywgJy1waCcsICc3LjAwMDAwMCcsICctcGh0JywgJzIuMDAwMDAwJywgJy1tcycsICcxNicsICctdG4nLCAnOCcsICctbWEnLCAnMjAwJywgJy1pbWFlJywgJzxpbmZpbGUubWFlPicsICctb21hZScsICc8b3V0ZmlsZS5tYWU+Jw==

>  <s_epik_input>  (1493) 
W0NIM11bTkhdUyg9TykoPU8pW0NIMl1jMWMoW2NIXVtjSF1bY0hdW2NIXTEpW0NIMl1bTkhdW0NIMl1jKFtjSF1jKGMyMylbY0hdW2NIXVtjSF1bY0hdMylbY0hdYzJPW0NIMl1jNFtjSF1bY0hdW2NIXVtjSF1bY0hdNA==

>  <s_i_glide_gridfile>  (1493) 
ATP-Grid

>  <s_lp_Force_Field>  (1493) 
OPLS_2005

>  <s_lp_Variant>  (1493) 
m_207bba____3310522____7963830-2

>  <s_lp_label>  (1493) 
1388_sdstereoexpander_1_neutralizer_1_epik_2_stereoizer_1

>  <s_m_source_file>  (1493) 
ATP-VSW-LIGPREP-003-in.maegz

>  <s_sd_BIOSOLVEIT.INFINISEE\_QUERY\_NAME>  (1493) 
Ref-Lig

>  <s_sd_BIOSOLVEIT.INFINISEE\_QUERY\_SMILES>  (1493) 
S(c1nc2c(cc1C[NH2+]Cc3ccc(cc3)C[NH+](C)C)cccc2)Cc4ccccc4

>  <s_sd_BIOSOLVEIT.INFINISEE\_REACTION\_NAME>  (1493) 
m_207bba

>  <s_sd_BIOSOLVEIT.INFINISEE\_REAGENT1\_SMILES>  (1493) 
[R1*]NCc1c(cccc1)CS(=O)(=O)NC

>  <s_sd_BIOSOLVEIT.INFINISEE\_REAGENT2\_SMILES>  (1493) 
[R1*]Cc1cc(OCc2ccccc2)c3c(c1)cccc3

>  <s_sd_BIOSOLVEIT.INFINISEE\_SPACE>  (1493) 
REALSpace_44bn_2023-08

>  <s_vsw_compound_code>  (1493) 
44387

>  <s_vsw_variant>  (1493) 
44387-2

>  <r_epik_Charging_Adjusted_Penalty>  (1493) 
1.32223323034582

>  <r_epik_Ionization_Penalty>  (1493) 
1.3223

>  <r_epik_Ionization_Penalty_Charging>  (1493) 
0

>  <r_epik_Ionization_Penalty_Neutral>  (1493) 
1.3223

>  <r_epik_State_Penalty>  (1493) 
1.3222

>  <r_i_docking_score>  (1493) 
-2.5768865078732901

>  <r_i_glide_ecoul>  (1493) 
-3.9501485824585001

>  <r_i_glide_eff_state_penalty>  (1493) 
1.3222

>  <r_i_glide_einternal>  (1493) 
4.21572065353394

>  <r_i_glide_emodel>  (1493) 
-49.568210843639498

>  <r_i_glide_energy>  (1493) 
-40.526621818542502

>  <r_i_glide_erotb>  (1493) 
0.85398603639848802

>  <r_i_glide_esite>  (1493) 
-0.042415356446984097

>  <r_i_glide_evdw>  (1493) 
-36.576473236083999

>  <r_i_glide_gscore>  (1493) 
-3.8990865078732901

>  <r_i_glide_hbond>  (1493) 
-0.16

>  <r_i_glide_ligand_efficiency>  (1493) 
-0.078087469935554293

>  <r_i_glide_ligand_efficiency_ln>  (1493) 
-0.57308621694675199

>  <r_i_glide_ligand_efficiency_sa>  (1493) 
-0.25046824026888598

>  <r_i_glide_lipo>  (1493) 
-1.8138873098546899

>  <r_i_glide_metal>  (1493) 
-0

>  <r_i_glide_rewards>  (1493) 
-0.31542392879713099

>  <r_lp_Energy>  (1493) 
24.233872999999999

>  <r_qp_ACxDN^.5/SA>  (1493) 
0.013340100000000001

>  <r_qp_CIQPlogS>  (1493) 
-6.0899999999999999

>  <r_qp_EA(eV)>  (1493) 
0.85999999999999999

>  <r_qp_FISA>  (1493) 
64.932000000000002

>  <r_qp_FOSA>  (1493) 
141.56399999999999

>  <r_qp_IP(eV)>  (1493) 
8.5329999999999995

>  <r_qp_Jm>  (1493) 
0.51522319339946698

>  <r_qp_PISA>  (1493) 
509.08699999999999

>  <r_qp_PSA>  (1493) 
62.920999999999999

>  <r_qp_PercentHumanOralAbsorption>  (1493) 
100

>  <r_qp_QPPCaco>  (1493) 
598.48000000000002

>  <r_qp_QPPMDCK>  (1493) 
314.22899999999998

>  <r_qp_QPlogBB>  (1493) 
-0.25800000000000001

>  <r_qp_QPlogHERG>  (1493) 
-7.3230000000000004

>  <r_qp_QPlogKhsa>  (1493) 
0.59799999999999998

>  <r_qp_QPlogKp>  (1493) 
-2.0249999999999999

>  <r_qp_QPlogPC16>  (1493) 
15.470000000000001

>  <r_qp_QPlogPo/w>  (1493) 
4.6120000000000001

>  <r_qp_QPlogPoct>  (1493) 
22.806000000000001

>  <r_qp_QPlogPw>  (1493) 
12.718

>  <r_qp_QPlogS>  (1493) 
-3.9260000000000002

>  <r_qp_QPpolrz>  (1493) 
47.450000000000003

>  <r_qp_SASA>  (1493) 
715.58399999999995

>  <r_qp_SAamideO>  (1493) 
0

>  <r_qp_SAfluorine>  (1493) 
0

>  <r_qp_WPSA>  (1493) 
0

>  <r_qp_accptHB>  (1493) 
6.75

>  <r_qp_dip^2/V>  (1493) 
0.030552699999999999

>  <r_qp_dipole>  (1493) 
6.4889999999999999

>  <r_qp_donorHB>  (1493) 
2

>  <r_qp_glob>  (1493) 
0.83705039999999997

>  <r_qp_mol_MW>  (1493) 
460.58999999999997

>  <r_qp_volume>  (1493) 
1378.385

>  <r_sd_BIOSOLVEIT.INFINISEE\_FTREES\_SIMILARITY>  (1493) 
0.90900000000000003

>  <r_sd_BIOSOLVEIT.LOGP>  (1493) 
4.3822000000000001

>  <r_sd_BIOSOLVEIT.MOLECULAR\_WEIGHT>  (1493) 
461.60199999999998

>  <r_sd_BIOSOLVEIT.TPSA>  (1493) 
72.010000000000005

>  <i_epik_Tot_Q>  (1493) 
0

>  <i_epik_Tot_abs_Q>  (1493) 
0

>  <i_f3d_flags>  (1493) 
0

>  <i_i_glide_confnum>  (1493) 
6

>  <i_i_glide_lignum>  (1493) 
534

>  <i_i_glide_posenum>  (1493) 
20

>  <i_i_glide_rotatable_bonds>  (1493) 
10

>  <i_lp_mmshare_version>  (1493) 
65135

>  <i_m_ct_format>  (1493) 
2

>  <i_m_source_file_index>  (1493) 
1388

>  <i_qp_#NandO>  (1493) 
5

>  <i_qp_#acid>  (1493) 
0

>  <i_qp_#amide>  (1493) 
0

>  <i_qp_#amidine>  (1493) 
0

>  <i_qp_#amine>  (1493) 
1

>  <i_qp_#in34>  (1493) 
0

>  <i_qp_#in56>  (1493) 
22

>  <i_qp_#metab>  (1493) 
6

>  <i_qp_#nonHatm>  (1493) 
33

>  <i_qp_#noncon>  (1493) 
0

>  <i_qp_#ringatoms>  (1493) 
22

>  <i_qp_#rotor>  (1493) 
10

>  <i_qp_#rtvFG>  (1493) 
0

>  <i_qp_#stars>  (1493) 
1

>  <i_qp_CNS>  (1493) 
1

>  <i_qp_HumanOralAbsorption>  (1493) 
3

>  <i_qp_RuleOfFive>  (1493) 
0

>  <i_qp_RuleOfThree>  (1493) 
0

>  <i_sd_BIOSOLVEIT.INFINISEE\_REAGENT1\_NAME>  (1493) 
3310522

>  <i_sd_BIOSOLVEIT.INFINISEE\_REAGENT2\_NAME>  (1493) 
7963830

>  <i_sd_BIOSOLVEIT.INFINISEE\_RESULT\_RANK>  (1493) 
51932

>  <i_sd_version>  (1493) 
0

>  <b_lp_Chiralities_Consistent>  (1493) 
1

>  <b_sd_chiral_flag>  (1493) 
0

>  <canonical_id>  (1493) 
ATP-HTVS-EB12E3425930

>  <compound_code>  (1493) 
44387

>  <title>  (1493) 
m_207bba____3310522____7963830

>  <variant>  (1493) 
44387-2

>  <source_file>  (1493) 
运行/运行/ATP-VSW/ATP-VSW-DOCK_HTVS_1-003_lib/ATP-VSW-DOCK_HTVS_1-003_lib.mae

>  <canonical_smiles>  (1493) 
CNS(=O)(=O)Cc1ccccc1CNCc1cc(OCc2ccccc2)c2ccccc2c1

>  <scaffold>  (1493) 
c1ccc(CNCc2cc(OCc3ccccc3)c3ccccc3c2)cc1

>  <molecular_formula>  (1493) 
C27H28N2O3S

$$$$
ATP-HTVS-EB1E3022AC0C
     RDKit          3D

 71 74  0  0  0  0  0  0  0  0999 V2000
  199.9554  181.3434  156.4219 N   0  0  0  0  0  0  0  0  0  0  0  0
  199.6733  182.5450  156.9273 C   0  0  0  0  0  0  0  0  0  0  0  0
  200.3611  183.0856  157.9410 N   0  0  0  0  0  0  0  0  0  0  0  0
  201.3914  182.4133  158.4946 C   0  0  0  0  0  0  0  0  0  0  0  0
  201.7504  181.1351  157.9961 C   0  0  0  0  0  0  0  0  0  0  0  0
  200.9848  180.6347  156.9273 C   0  0  0  0  0  0  0  0  0  0  0  0
  201.2785  179.3891  156.3493 N   0  0  0  0  0  0  0  0  0  0  0  0
  200.3998  178.7815  155.3634 C   0  0  1  0  0  0  0  0  0  0  0  0
  200.7558  177.3404  155.0418 C   0  0  0  0  0  0  0  0  0  0  0  0
  200.6302  176.8594  153.7213 C   0  0  0  0  0  0  0  0  0  0  0  0
  200.9566  175.5204  153.4155 C   0  0  0  0  0  0  0  0  0  0  0  0
  201.4057  174.6508  154.4330 C   0  0  0  0  0  0  0  0  0  0  0  0
  201.5045  175.1326  155.7524 C   0  0  0  0  0  0  0  0  0  0  0  0
  201.1880  176.4655  156.0607 C   0  0  0  0  0  0  0  0  0  0  0  0
  201.8066  173.2122  154.1248 C   0  0  1  0  0  0  0  0  0  0  0  0
  203.2668  173.0376  153.9287 N   0  0  2  0  0  0  0  0  0  0  0  0
  204.0931  173.4473  155.0883 C   0  0  2  0  0  0  0  0  0  0  0  0
  203.7596  173.6280  152.6662 C   0  0  2  0  0  0  0  0  0  0  0  0
  202.8234  180.4357  158.5954 C   0  0  0  0  0  0  0  0  0  0  0  0
  203.5176  181.0048  159.6793 C   0  0  0  0  0  0  0  0  0  0  0  0
  203.1568  182.2760  160.1683 C   0  0  0  0  0  0  0  0  0  0  0  0
  202.0942  182.9795  159.5720 C   0  0  0  0  0  0  0  0  0  0  0  0
  198.6406  183.2482  156.3470 N   0  0  0  0  0  0  0  0  0  0  0  0
  198.4102  184.6707  156.5953 C   0  0  1  0  0  0  0  0  0  0  0  0
  197.5219  185.3379  155.5201 C   0  0  1  0  0  0  0  0  0  0  0  0
  197.2607  186.7979  155.7622 N   0  0  2  0  0  0  0  0  0  0  0  0
  198.3868  187.7299  155.4905 C   0  0  2  0  0  0  0  0  0  0  0  0
  196.6431  187.1111  157.0819 C   0  0  2  0  0  0  0  0  0  0  0  0
  198.0098  185.0184  154.0995 C   0  0  0  0  0  0  0  0  0  0  0  0
  199.2210  185.5618  153.6220 C   0  0  0  0  0  0  0  0  0  0  0  0
  199.6146  185.3433  152.2870 C   0  0  0  0  0  0  0  0  0  0  0  0
  198.8305  184.5414  151.4246 C   0  0  0  0  0  0  0  0  0  0  0  0
  197.6593  183.9385  151.9101 C   0  0  0  0  0  0  0  0  0  0  0  0
  197.2490  184.1859  153.2404 C   0  0  0  0  0  0  0  0  0  0  0  0
  202.0560  178.8508  156.6959 H   0  0  0  0  0  0  0  0  0  0  0  0
  199.3697  178.7950  155.7191 H   0  0  0  0  0  0  0  0  0  0  0  0
  200.4480  179.3774  154.4522 H   0  0  0  0  0  0  0  0  0  0  0  0
  200.2847  177.5140  152.9358 H   0  0  0  0  0  0  0  0  0  0  0  0
  200.8725  175.1703  152.3948 H   0  0  0  0  0  0  0  0  0  0  0  0
  201.8530  174.4809  156.5341 H   0  0  0  0  0  0  0  0  0  0  0  0
  201.3010  176.8021  157.0827 H   0  0  0  0  0  0  0  0  0  0  0  0
  201.4761  172.5574  154.9330 H   0  0  0  0  0  0  0  0  0  0  0  0
  201.2730  172.8730  153.2367 H   0  0  0  0  0  0  0  0  0  0  0  0
  204.0380  174.5228  155.2818 H   0  0  0  0  0  0  0  0  0  0  0  0
  205.1509  173.2293  154.9239 H   0  0  0  0  0  0  0  0  0  0  0  0
  203.7659  172.9188  155.9853 H   0  0  0  0  0  0  0  0  0  0  0  0
  203.6515  174.7184  152.6567 H   0  0  0  0  0  0  0  0  0  0  0  0
  203.2133  173.2290  151.8088 H   0  0  0  0  0  0  0  0  0  0  0  0
  204.8173  173.4039  152.5158 H   0  0  0  0  0  0  0  0  0  0  0  0
  203.1136  179.4531  158.2531 H   0  0  0  0  0  0  0  0  0  0  0  0
  204.3303  180.4634  160.1429 H   0  0  0  0  0  0  0  0  0  0  0  0
  203.6913  182.7101  160.9972 H   0  0  0  0  0  0  0  0  0  0  0  0
  201.8219  183.9512  159.9542 H   0  0  0  0  0  0  0  0  0  0  0  0
  198.1325  182.7791  155.6106 H   0  0  0  0  0  0  0  0  0  0  0  0
  197.9782  184.7675  157.5938 H   0  0  0  0  0  0  0  0  0  0  0  0
  199.3810  185.1600  156.6082 H   0  0  0  0  0  0  0  0  0  0  0  0
  196.5576  184.8489  155.6052 H   0  0  0  0  0  0  0  0  0  0  0  0
  199.2749  187.4381  156.0499 H   0  0  0  0  0  0  0  0  0  0  0  0
  198.1506  188.7573  155.8291 H   0  0  0  0  0  0  0  0  0  0  0  0
  198.6879  187.6803  154.4386 H   0  0  0  0  0  0  0  0  0  0  0  0
  197.3145  186.8621  157.9045 H   0  0  0  0  0  0  0  0  0  0  0  0
  195.6885  186.6069  157.2446 H   0  0  0  0  0  0  0  0  0  0  0  0
  196.4482  188.1788  157.1698 H   0  0  0  0  0  0  0  0  0  0  0  0
  199.8046  186.2100  154.2662 H   0  0  0  0  0  0  0  0  0  0  0  0
  200.5048  185.8359  151.9053 H   0  0  0  0  0  0  0  0  0  0  0  0
  199.1456  184.3877  150.3942 H   0  0  0  0  0  0  0  0  0  0  0  0
  197.0837  183.2837  151.2821 H   0  0  0  0  0  0  0  0  0  0  0  0
  196.3385  183.7106  153.6008 H   0  0  0  0  0  0  0  0  0  0  0  0
  200.1269  184.0027  158.3264 H   0  0  0  0  0  0  0  0  0  0  0  0
  203.3888  172.0255  153.8473 H   0  0  0  0  0  0  0  0  0  0  0  0
  196.5704  187.0489  155.0619 H   0  0  0  0  0  0  0  0  0  0  0  0
  1  2  1  0
  1  6  2  0
  2  3  2  0
  2 23  1  0
  3  4  1  0
  3 69  1  0
  4  5  1  0
  4 22  2  0
  5  6  1  0
  5 19  2  0
  6  7  1  0
  7  8  1  0
  7 35  1  0
  8  9  1  0
  8 36  1  1
  8 37  1  0
  9 10  1  0
  9 14  2  0
 10 11  2  0
 10 38  1  0
 11 12  1  0
 11 39  1  0
 12 13  2  0
 12 15  1  0
 13 14  1  0
 13 40  1  0
 14 41  1  0
 15 16  1  0
 15 42  1  1
 15 43  1  0
 16 17  1  0
 16 18  1  0
 16 70  1  6
 17 44  1  1
 17 45  1  0
 17 46  1  0
 18 47  1  1
 18 48  1  0
 18 49  1  0
 19 20  1  0
 19 50  1  0
 20 21  2  0
 20 51  1  0
 21 22  1  0
 21 52  1  0
 22 53  1  0
 23 24  1  0
 23 54  1  0
 24 25  1  0
 24 55  1  1
 24 56  1  0
 25 26  1  0
 25 29  1  0
 25 57  1  6
 26 27  1  0
 26 28  1  0
 26 71  1  6
 27 58  1  1
 27 59  1  0
 27 60  1  0
 28 61  1  1
 28 62  1  0
 28 63  1  0
 29 30  2  0
 29 34  1  0
 30 31  1  0
 30 64  1  0
 31 32  2  0
 31 65  1  0
 32 33  1  0
 32 66  1  0
 33 34  2  0
 33 67  1  0
 34 68  1  0
M  CHG  3   3   1  16   1  26   1
M  END
>  <s_epik_cmdline>  (1494) 
J2VwaWtfcHl0aG9uJywgJy1waCcsICc3LjAwMDAwMCcsICctcGh0JywgJzIuMDAwMDAwJywgJy1tcycsICcxNicsICctdG4nLCAnOCcsICctbWEnLCAnMjAwJywgJy1pbWFlJywgJzxpbmZpbGUubWFlPicsICctb21hZScsICc8b3V0ZmlsZS5tYWU+Jw==

>  <s_epik_input>  (1494) 
W2NIXTFbY0hdW2NIXVtjSF1bY0hdYzFbQ0BIXShOKFtDSDNdKVtDSDNdKVtDSDJdW05IXWMobjIpbmMoYyhjMjMpW2NIXVtjSF1bY0hdW2NIXTMpW05IXVtDSDJdYzRbY0hdW2NIXWMoW2NIXVtjSF00KVtDSDJdTihbQ0gzXSlbQ0gzXQ==

>  <s_i_glide_gridfile>  (1494) 
ATP-Grid

>  <s_lp_Force_Field>  (1494) 
OPLS_2005

>  <s_lp_Variant>  (1494) 
m_282030aaa____21930822____22360182____21945542-2

>  <s_lp_label>  (1494) 
1558_sdstereoexpander_2_neutralizer_1_epik_1_stereoizer_1

>  <s_m_source_file>  (1494) 
ATP-VSW-LIGPREP-002-in.maegz

>  <s_sd_BIOSOLVEIT.INFINISEE\_QUERY\_NAME>  (1494) 
Ref-Lig

>  <s_sd_BIOSOLVEIT.INFINISEE\_QUERY\_SMILES>  (1494) 
S(c1nc2c(cc1C[NH2+]Cc3ccc(cc3)C[NH+](C)C)cccc2)Cc4ccccc4

>  <s_sd_BIOSOLVEIT.INFINISEE\_REACTION\_NAME>  (1494) 
m_282030aaa

>  <s_sd_BIOSOLVEIT.INFINISEE\_REAGENT1\_SMILES>  (1494) 
[R1*]NCC(N(C)C)c1ccccc1

>  <s_sd_BIOSOLVEIT.INFINISEE\_REAGENT2\_SMILES>  (1494) 
[R2*]c1nc([R1*])c2c(n1)cccc2

>  <s_sd_BIOSOLVEIT.INFINISEE\_REAGENT3\_SMILES>  (1494) 
[R2*]NCc1ccc(cc1)CN(C)C

>  <s_sd_BIOSOLVEIT.INFINISEE\_SPACE>  (1494) 
REALSpace_44bn_2023-08

>  <s_vsw_compound_code>  (1494) 
49826

>  <s_vsw_variant>  (1494) 
49826-2

>  <r_epik_Charging_Adjusted_Penalty>  (1494) 
0.266109744610945

>  <r_epik_Ionization_Penalty>  (1494) 
0.18659999999999999

>  <r_epik_Ionization_Penalty_Charging>  (1494) 
0.18659999999999999

>  <r_epik_Ionization_Penalty_Neutral>  (1494) 
0.0001

>  <r_epik_State_Penalty>  (1494) 
0.079500000000000001

>  <r_i_docking_score>  (1494) 
-4.65351111779992

>  <r_i_glide_ecoul>  (1494) 
-11.0645961761475

>  <r_i_glide_eff_state_penalty>  (1494) 
0.079500000000000001

>  <r_i_glide_einternal>  (1494) 
2.7047522068023699

>  <r_i_glide_emodel>  (1494) 
-64.643381418519297

>  <r_i_glide_energy>  (1494) 
-39.676832199096701

>  <r_i_glide_erotb>  (1494) 
0.67204340170982202

>  <r_i_glide_esite>  (1494) 
-0.105208091998042

>  <r_i_glide_evdw>  (1494) 
-28.612236022949201

>  <r_i_glide_gscore>  (1494) 
-4.7330111177999203

>  <r_i_glide_hbond>  (1494) 
-0.20000000000000001

>  <r_i_glide_ligand_efficiency>  (1494) 
-0.13686797405293899

>  <r_i_glide_ligand_efficiency_ln>  (1494) 
-1.0280911324876301

>  <r_i_glide_ligand_efficiency_sa>  (1494) 
-0.44339910343764599

>  <r_i_glide_lipo>  (1494) 
-1.49568324539667

>  <r_i_glide_metal>  (1494) 
-0

>  <r_i_glide_rewards>  (1494) 
-0.51386195454545303

>  <r_lp_Energy>  (1494) 
24.909037999999999

>  <r_qp_ACxDN^.5/SA>  (1494) 
0.012419400000000001

>  <r_qp_CIQPlogS>  (1494) 
-4.8250000000000002

>  <r_qp_EA(eV)>  (1494) 
0.49099999999999999

>  <r_qp_FISA>  (1494) 
38.277999999999999

>  <r_qp_FOSA>  (1494) 
363.55399999999997

>  <r_qp_IP(eV)>  (1494) 
7.9450000000000003

>  <r_qp_Jm>  (1494) 
0.0042826765987412398

>  <r_qp_PISA>  (1494) 
395.267

>  <r_qp_PSA>  (1494) 
49.988999999999997

>  <r_qp_PercentHumanOralAbsorption>  (1494) 
100

>  <r_qp_QPPCaco>  (1494) 
267.12299999999999

>  <r_qp_QPPMDCK>  (1494) 
145.36199999999999

>  <r_qp_QPlogBB>  (1494) 
0.35899999999999999

>  <r_qp_QPlogHERG>  (1494) 
-8.1029999999999998

>  <r_qp_QPlogKhsa>  (1494) 
0.88700000000000001

>  <r_qp_QPlogKp>  (1494) 
-3.9980000000000002

>  <r_qp_QPlogPC16>  (1494) 
15.81

>  <r_qp_QPlogPo/w>  (1494) 
4.8620000000000001

>  <r_qp_QPlogPoct>  (1494) 
23.736999999999998

>  <r_qp_QPlogPw>  (1494) 
12.205

>  <r_qp_QPlogS>  (1494) 
-4.0279999999999996

>  <r_qp_QPpolrz>  (1494) 
51.811

>  <r_qp_SASA>  (1494) 
797.09900000000005

>  <r_qp_SAamideO>  (1494) 
0

>  <r_qp_SAfluorine>  (1494) 
0

>  <r_qp_WPSA>  (1494) 
0

>  <r_qp_accptHB>  (1494) 
7

>  <r_qp_dip^2/V>  (1494) 
0.0084413000000000005

>  <r_qp_dipole>  (1494) 
3.5760000000000001

>  <r_qp_donorHB>  (1494) 
2

>  <r_qp_glob>  (1494) 
0.80014989999999997

>  <r_qp_mol_MW>  (1494) 
454.61700000000002

>  <r_qp_volume>  (1494) 
1514.5309999999999

>  <r_sd_BIOSOLVEIT.INFINISEE\_FTREES\_SIMILARITY>  (1494) 
0.90600000000000003

>  <r_sd_BIOSOLVEIT.LOGP>  (1494) 
2.1840999999999999

>  <r_sd_BIOSOLVEIT.MOLECULAR\_WEIGHT>  (1494) 
456.63400000000001

>  <r_sd_BIOSOLVEIT.TPSA>  (1494) 
58.719999999999999

>  <i_epik_Tot_Q>  (1494) 
3

>  <i_epik_Tot_abs_Q>  (1494) 
3

>  <i_f3d_flags>  (1494) 
0

>  <i_i_glide_confnum>  (1494) 
4

>  <i_i_glide_lignum>  (1494) 
537

>  <i_i_glide_posenum>  (1494) 
10

>  <i_i_glide_rotatable_bonds>  (1494) 
10

>  <i_lp_mmshare_version>  (1494) 
65135

>  <i_m_ct_format>  (1494) 
2

>  <i_m_source_file_index>  (1494) 
1558

>  <i_qp_#NandO>  (1494) 
6

>  <i_qp_#acid>  (1494) 
0

>  <i_qp_#amide>  (1494) 
0

>  <i_qp_#amidine>  (1494) 
0

>  <i_qp_#amine>  (1494) 
2

>  <i_qp_#in34>  (1494) 
0

>  <i_qp_#in56>  (1494) 
22

>  <i_qp_#metab>  (1494) 
7

>  <i_qp_#nonHatm>  (1494) 
34

>  <i_qp_#noncon>  (1494) 
0

>  <i_qp_#ringatoms>  (1494) 
22

>  <i_qp_#rotor>  (1494) 
10

>  <i_qp_#rtvFG>  (1494) 
0

>  <i_qp_#stars>  (1494) 
0

>  <i_qp_CNS>  (1494) 
1

>  <i_qp_HumanOralAbsorption>  (1494) 
3

>  <i_qp_RuleOfFive>  (1494) 
0

>  <i_qp_RuleOfThree>  (1494) 
1

>  <i_sd_BIOSOLVEIT.INFINISEE\_REAGENT1\_NAME>  (1494) 
21930822

>  <i_sd_BIOSOLVEIT.INFINISEE\_REAGENT2\_NAME>  (1494) 
22360182

>  <i_sd_BIOSOLVEIT.INFINISEE\_REAGENT3\_NAME>  (1494) 
21945542

>  <i_sd_BIOSOLVEIT.INFINISEE\_RESULT\_RANK>  (1494) 
62887

>  <i_sd_version>  (1494) 
0

>  <b_lp_Chiralities_Consistent>  (1494) 
1

>  <b_sd_chiral_flag>  (1494) 
0

>  <canonical_id>  (1494) 
ATP-HTVS-EB1E3022AC0C

>  <compound_code>  (1494) 
49826

>  <title>  (1494) 
m_282030aaa____21930822____22360182____21945542

>  <variant>  (1494) 
49826-2

>  <source_file>  (1494) 
运行/运行/ATP-VSW/ATP-VSW-DOCK_HTVS_1-002_lib.maegz

>  <canonical_smiles>  (1494) 
C[NH+](C)Cc1ccc(CNc2nc(NC[C@H](c3ccccc3)[NH+](C)C)[nH+]c3ccccc23)cc1

>  <scaffold>  (1494) 
c1ccc(CCNc2nc(NCc3ccccc3)c3ccccc3[nH+]2)cc1

>  <molecular_formula>  (1494) 
C28H37N6+3

$$$$
ATP-HTVS-EB500473345C
     RDKit          3D

 70 73  0  0  0  0  0  0  0  0999 V2000
  197.1708  185.0401  154.1058 O   0  0  0  0  0  0  0  0  0  0  0  0
  198.0210  185.5774  154.8232 C   0  0  0  0  0  0  0  0  0  0  0  0
  198.4318  185.1000  155.9597 O   0  0  0  0  0  0  0  0  0  0  0  0
  197.7655  184.0291  156.4183 C   0  0  2  0  0  0  0  0  0  0  0  0
  198.7709  186.7979  154.5154 C   0  0  0  0  0  0  0  0  0  0  0  0
  198.9430  187.8328  155.4715 C   0  0  0  0  0  0  0  0  0  0  0  0
  199.5694  188.9832  155.1604 N   0  0  0  0  0  0  0  0  0  0  0  0
  200.1468  189.1346  153.9623 C   0  0  0  0  0  0  0  0  0  0  0  0
  200.0425  188.1497  152.9559 C   0  0  0  0  0  0  0  0  0  0  0  0
  199.3296  186.9530  153.2207 C   0  0  0  0  0  0  0  0  0  0  0  0
  199.1886  185.9030  152.1902 C   0  0  0  0  0  0  0  0  0  0  0  0
  199.8828  184.6783  152.3082 C   0  0  0  0  0  0  0  0  0  0  0  0
  199.7330  183.6811  151.3305 C   0  0  0  0  0  0  0  0  0  0  0  0
  198.8880  183.8978  150.2265 C   0  0  0  0  0  0  0  0  0  0  0  0
  198.1866  185.1125  150.1050 C   0  0  0  0  0  0  0  0  0  0  0  0
  198.3334  186.1080  151.0868 C   0  0  0  0  0  0  0  0  0  0  0  0
  200.6441  188.3748  151.7066 C   0  0  0  0  0  0  0  0  0  0  0  0
  201.3339  189.5697  151.4465 C   0  0  0  0  0  0  0  0  0  0  0  0
  201.4581  190.5394  152.4548 C   0  0  0  0  0  0  0  0  0  0  0  0
  200.8732  190.3114  153.7099 C   0  0  0  0  0  0  0  0  0  0  0  0
  198.4082  187.8101  156.9146 C   0  0  1  0  0  0  0  0  0  0  0  0
  199.4595  187.7346  157.9769 N   0  0  2  0  0  0  0  0  0  0  0  0
  198.8885  187.5498  159.3438 C   0  0  1  0  0  0  0  0  0  0  0  0
  197.8674  186.4506  159.4269 C   0  0  0  0  0  0  0  0  0  0  0  0
  196.4789  186.7421  159.5967 C   0  0  0  0  0  0  0  0  0  0  0  0
  195.5289  185.6993  159.5957 C   0  0  0  0  0  0  0  0  0  0  0  0
  195.9467  184.3545  159.4579 C   0  0  0  0  0  0  0  0  0  0  0  0
  197.3360  184.0766  159.4226 C   0  0  0  0  0  0  0  0  0  0  0  0
  198.2761  185.1218  159.3118 C   0  0  0  0  0  0  0  0  0  0  0  0
  194.9185  183.2316  159.3774 C   0  0  1  0  0  0  0  0  0  0  0  0
  194.7746  182.5157  158.0919 N   0  0  2  0  0  0  0  0  0  0  0  0
  193.7288  181.5056  158.0766 C   0  0  2  0  0  0  0  0  0  0  0  0
  195.9833  181.8429  157.5915 C   0  0  2  0  0  0  0  0  0  0  0  0
  200.4357  188.8666  157.9563 C   0  0  1  0  0  0  0  0  0  0  0  0
  199.7533  190.2337  158.1648 C   0  0  2  0  0  0  0  0  0  0  0  0
  198.2834  183.7521  157.3502 H   0  0  0  0  0  0  0  0  0  0  0  0
  197.8789  183.1158  155.8364 H   0  0  0  0  0  0  0  0  0  0  0  0
  196.7100  184.2426  156.6130 H   0  0  0  0  0  0  0  0  0  0  0  0
  200.5235  184.5051  153.1604 H   0  0  0  0  0  0  0  0  0  0  0  0
  200.2697  182.7484  151.4283 H   0  0  0  0  0  0  0  0  0  0  0  0
  198.7779  183.1334  149.4726 H   0  0  0  0  0  0  0  0  0  0  0  0
  197.5379  185.2826  149.2607 H   0  0  0  0  0  0  0  0  0  0  0  0
  197.7905  187.0361  150.9992 H   0  0  0  0  0  0  0  0  0  0  0  0
  200.5578  187.6489  150.9096 H   0  0  0  0  0  0  0  0  0  0  0  0
  201.7662  189.7394  150.4731 H   0  0  0  0  0  0  0  0  0  0  0  0
  201.9948  191.4580  152.2596 H   0  0  0  0  0  0  0  0  0  0  0  0
  200.9787  191.0544  154.4858 H   0  0  0  0  0  0  0  0  0  0  0  0
  197.7609  188.6620  157.0845 H   0  0  0  0  0  0  0  0  0  0  0  0
  197.7068  186.9951  157.0435 H   0  0  0  0  0  0  0  0  0  0  0  0
  199.6928  187.3236  160.0464 H   0  0  0  0  0  0  0  0  0  0  0  0
  198.4133  188.4554  159.7006 H   0  0  0  0  0  0  0  0  0  0  0  0
  196.1606  187.7551  159.7176 H   0  0  0  0  0  0  0  0  0  0  0  0
  194.4909  185.9263  159.7161 H   0  0  0  0  0  0  0  0  0  0  0  0
  197.7033  183.0810  159.3038 H   0  0  0  0  0  0  0  0  0  0  0  0
  199.3048  184.8801  159.0625 H   0  0  0  0  0  0  0  0  0  0  0  0
  195.2706  182.4474  160.0704 H   0  0  0  0  0  0  0  0  0  0  0  0
  193.9621  183.5913  159.7261 H   0  0  0  0  0  0  0  0  0  0  0  0
  193.9628  180.7046  158.7869 H   0  0  0  0  0  0  0  0  0  0  0  0
  193.6975  181.0381  157.0705 H   0  0  0  0  0  0  0  0  0  0  0  0
  192.7371  181.9238  158.2637 H   0  0  0  0  0  0  0  0  0  0  0  0
  196.4425  181.1203  158.2451 H   0  0  0  0  0  0  0  0  0  0  0  0
  196.6926  182.5614  157.6697 H   0  0  0  0  0  0  0  0  0  0  0  0
  195.9592  181.5848  156.5336 H   0  0  0  0  0  0  0  0  0  0  0  0
  201.2130  188.7247  158.7059 H   0  0  0  0  0  0  0  0  0  0  0  0
  201.0132  188.8616  157.0331 H   0  0  0  0  0  0  0  0  0  0  0  0
  200.4861  191.0349  158.1529 H   0  0  0  0  0  0  0  0  0  0  0  0
  199.2535  190.2827  159.1301 H   0  0  0  0  0  0  0  0  0  0  0  0
  199.0068  190.4609  157.3993 H   0  0  0  0  0  0  0  0  0  0  0  0
  194.5000  183.2205  157.4151 H   0  0  0  0  0  0  0  0  0  0  0  0
  200.0022  186.9002  157.7909 H   0  0  0  0  0  0  0  0  0  0  0  0
  1  2  2  0
  2  3  1  0
  2  5  1  0
  3  4  1  0
  4 36  1  1
  4 37  1  0
  4 38  1  0
  5  6  1  0
  5 10  2  0
  6  7  2  0
  6 21  1  0
  7  8  1  0
  8  9  1  0
  8 20  2  0
  9 10  1  0
  9 17  2  0
 10 11  1  0
 11 12  2  0
 11 16  1  0
 12 13  1  0
 12 39  1  0
 13 14  2  0
 13 40  1  0
 14 15  1  0
 14 41  1  0
 15 16  2  0
 15 42  1  0
 16 43  1  0
 17 18  1  0
 17 44  1  0
 18 19  2  0
 18 45  1  0
 19 20  1  0
 19 46  1  0
 20 47  1  0
 21 22  1  0
 21 48  1  1
 21 49  1  0
 22 23  1  0
 22 34  1  0
 22 70  1  6
 23 24  1  0
 23 50  1  1
 23 51  1  0
 24 25  1  0
 24 29  2  0
 25 26  2  0
 25 52  1  0
 26 27  1  0
 26 53  1  0
 27 28  2  0
 27 30  1  0
 28 29  1  0
 28 54  1  0
 29 55  1  0
 30 31  1  0
 30 56  1  1
 30 57  1  0
 31 32  1  0
 31 33  1  0
 31 69  1  6
 32 58  1  1
 32 59  1  0
 32 60  1  0
 33 61  1  1
 33 62  1  0
 33 63  1  0
 34 35  1  0
 34 64  1  1
 34 65  1  0
 35 66  1  1
 35 67  1  0
 35 68  1  0
M  CHG  2  22   1  31   1
M  END
>  <s_epik_Chemistry_Notes>  (1495) 
This compound has an ester and may undergo hydrolysis at high or low pH.

>  <s_epik_cmdline>  (1495) 
J2VwaWtfcHl0aG9uJywgJy1waCcsICc3LjAwMDAwMCcsICctcGh0JywgJzIuMDAwMDAwJywgJy1tcycsICcxNicsICctdG4nLCAnOCcsICctbWEnLCAnMjAwJywgJy1pbWFlJywgJzxpbmZpbGUubWFlPicsICctb21hZScsICc8b3V0ZmlsZS5tYWU+Jw==

>  <s_epik_input>  (1495) 
W2NIXTFbY0hdW2NIXVtjSF1bY0hdYzEtYyhjKGMyMylbY0hdW2NIXVtjSF1bY0hdMyljKEMoPU8pT1tDSDNdKWMobjIpW0NIMl1OKFtDSDJdW0NIM10pW0NIMl1jNFtjSF1bY0hdYyhbY0hdW2NIXTQpW0NIMl1OKFtDSDNdKVtDSDNd

>  <s_i_glide_gridfile>  (1495) 
ATP-Grid

>  <s_lp_Force_Field>  (1495) 
OPLS_2005

>  <s_lp_Variant>  (1495) 
m_2230bec____12332212____681304-2

>  <s_lp_label>  (1495) 
1399_sdstereoexpander_1_neutralizer_1_epik_1_stereoizer_2

>  <s_m_source_file>  (1495) 
ATP-VSW-LIGPREP-002-in.maegz

>  <s_sd_BIOSOLVEIT.INFINISEE\_QUERY\_NAME>  (1495) 
Ref-Lig

>  <s_sd_BIOSOLVEIT.INFINISEE\_QUERY\_SMILES>  (1495) 
S(c1nc2c(cc1C[NH2+]Cc3ccc(cc3)C[NH+](C)C)cccc2)Cc4ccccc4

>  <s_sd_BIOSOLVEIT.INFINISEE\_REACTION\_NAME>  (1495) 
m_2230bec

>  <s_sd_BIOSOLVEIT.INFINISEE\_REAGENT1\_SMILES>  (1495) 
[R1*]N(Cc1ccc(cc1)CN(C)C)CC

>  <s_sd_BIOSOLVEIT.INFINISEE\_REAGENT2\_SMILES>  (1495) 
[R1*]Cc1nc2c(c(c3ccccc3)c1C(=O)OC)cccc2

>  <s_sd_BIOSOLVEIT.INFINISEE\_SPACE>  (1495) 
REALSpace_44bn_2023-08

>  <s_vsw_compound_code>  (1495) 
44738

>  <s_vsw_variant>  (1495) 
44738-2

>  <r_epik_Charging_Adjusted_Penalty>  (1495) 
0.58560678929026899

>  <r_epik_Ionization_Penalty>  (1495) 
0.29039999999999999

>  <r_epik_Ionization_Penalty_Charging>  (1495) 
0.29039999999999999

>  <r_epik_Ionization_Penalty_Neutral>  (1495) 
0

>  <r_epik_State_Penalty>  (1495) 
0.29520000000000002

>  <r_i_docking_score>  (1495) 
-4.1077202743778001

>  <r_i_glide_ecoul>  (1495) 
-8.7629337310790998

>  <r_i_glide_eff_state_penalty>  (1495) 
0.29520000000000002

>  <r_i_glide_einternal>  (1495) 
4.2905559539794904

>  <r_i_glide_emodel>  (1495) 
-54.227507656201801

>  <r_i_glide_energy>  (1495) 
-39.355531692504897

>  <r_i_glide_erotb>  (1495) 
0.64111512473545795

>  <r_i_glide_esite>  (1495) 
-0.099460772792829499

>  <r_i_glide_evdw>  (1495) 
-30.592597961425799

>  <r_i_glide_gscore>  (1495) 
-4.4029202743778004

>  <r_i_glide_hbond>  (1495) 
-0.100936431714806

>  <r_i_glide_ligand_efficiency>  (1495) 
-0.117363436410794

>  <r_i_glide_ligand_efficiency_ln>  (1495) 
-0.90173576616552598

>  <r_i_glide_ligand_efficiency_sa>  (1495) 
-0.38390358243633999

>  <r_i_glide_lipo>  (1495) 
-1.7346876592516201

>  <r_i_glide_metal>  (1495) 
-0

>  <r_i_glide_rewards>  (1495) 
-0.26488057762084599

>  <r_lp_Energy>  (1495) 
34.450203000000002

>  <r_qp_ACxDN^.5/SA>  (1495) 
0

>  <r_qp_CIQPlogS>  (1495) 
-4.9790000000000001

>  <r_qp_EA(eV)>  (1495) 
1.0900000000000001

>  <r_qp_FISA>  (1495) 
23.931999999999999

>  <r_qp_FOSA>  (1495) 
338.94

>  <r_qp_IP(eV)>  (1495) 
8.8249999999999993

>  <r_qp_Jm>  (1495) 
0.0313889407527944

>  <r_qp_PISA>  (1495) 
416.61200000000002

>  <r_qp_PSA>  (1495) 
46.976999999999997

>  <r_qp_PercentHumanOralAbsorption>  (1495) 
100

>  <r_qp_QPPCaco>  (1495) 
365.38499999999999

>  <r_qp_QPPMDCK>  (1495) 
203.93600000000001

>  <r_qp_QPlogBB>  (1495) 
0.57799999999999996

>  <r_qp_QPlogHERG>  (1495) 
-7.9589999999999996

>  <r_qp_QPlogKhsa>  (1495) 
0.73699999999999999

>  <r_qp_QPlogKp>  (1495) 
-3.754

>  <r_qp_QPlogPC16>  (1495) 
15.263

>  <r_qp_QPlogPo/w>  (1495) 
4.9829999999999997

>  <r_qp_QPlogPoct>  (1495) 
21.074999999999999

>  <r_qp_QPlogPw>  (1495) 
9.5009999999999994

>  <r_qp_QPlogS>  (1495) 
-3.419

>  <r_qp_QPpolrz>  (1495) 
52.338999999999999

>  <r_qp_SASA>  (1495) 
779.48400000000004

>  <r_qp_SAamideO>  (1495) 
0

>  <r_qp_SAfluorine>  (1495) 
0

>  <r_qp_WPSA>  (1495) 
0

>  <r_qp_accptHB>  (1495) 
7

>  <r_qp_dip^2/V>  (1495) 
0.0079918000000000003

>  <r_qp_dipole>  (1495) 
3.4700000000000002

>  <r_qp_donorHB>  (1495) 
0

>  <r_qp_glob>  (1495) 
0.81536149999999996

>  <r_qp_mol_MW>  (1495) 
467.61000000000001

>  <r_qp_volume>  (1495) 
1506.568

>  <r_sd_BIOSOLVEIT.INFINISEE\_FTREES\_SIMILARITY>  (1495) 
0.90800000000000003

>  <r_sd_BIOSOLVEIT.LOGP>  (1495) 
2.9379

>  <r_sd_BIOSOLVEIT.MOLECULAR\_WEIGHT>  (1495) 
469.62599999999998

>  <r_sd_BIOSOLVEIT.TPSA>  (1495) 
48.07

>  <i_epik_Tot_Q>  (1495) 
2

>  <i_epik_Tot_abs_Q>  (1495) 
2

>  <i_f3d_flags>  (1495) 
0

>  <i_i_glide_confnum>  (1495) 
6

>  <i_i_glide_lignum>  (1495) 
495

>  <i_i_glide_posenum>  (1495) 
3

>  <i_i_glide_rotatable_bonds>  (1495) 
10

>  <i_lp_mmshare_version>  (1495) 
65135

>  <i_m_ct_format>  (1495) 
2

>  <i_m_source_file_index>  (1495) 
1399

>  <i_qp_#NandO>  (1495) 
5

>  <i_qp_#acid>  (1495) 
0

>  <i_qp_#amide>  (1495) 
0

>  <i_qp_#amidine>  (1495) 
0

>  <i_qp_#amine>  (1495) 
2

>  <i_qp_#in34>  (1495) 
0

>  <i_qp_#in56>  (1495) 
22

>  <i_qp_#metab>  (1495) 
5

>  <i_qp_#nonHatm>  (1495) 
35

>  <i_qp_#noncon>  (1495) 
0

>  <i_qp_#ringatoms>  (1495) 
22

>  <i_qp_#rotor>  (1495) 
9

>  <i_qp_#rtvFG>  (1495) 
1

>  <i_qp_#stars>  (1495) 
0

>  <i_qp_CNS>  (1495) 
2

>  <i_qp_HumanOralAbsorption>  (1495) 
3

>  <i_qp_RuleOfFive>  (1495) 
0

>  <i_qp_RuleOfThree>  (1495) 
0

>  <i_sd_BIOSOLVEIT.INFINISEE\_REAGENT1\_NAME>  (1495) 
12332212

>  <i_sd_BIOSOLVEIT.INFINISEE\_REAGENT2\_NAME>  (1495) 
681304

>  <i_sd_BIOSOLVEIT.INFINISEE\_RESULT\_RANK>  (1495) 
52564

>  <i_sd_version>  (1495) 
0

>  <b_lp_Chiralities_Consistent>  (1495) 
1

>  <b_sd_chiral_flag>  (1495) 
0

>  <canonical_id>  (1495) 
ATP-HTVS-EB500473345C

>  <compound_code>  (1495) 
44738

>  <title>  (1495) 
m_2230bec____12332212____681304

>  <variant>  (1495) 
44738-2

>  <source_file>  (1495) 
运行/运行/ATP-VSW/ATP-VSW-DOCK_HTVS_1-002_lib.maegz

>  <canonical_smiles>  (1495) 
CC[N@@H+](Cc1ccc(C[NH+](C)C)cc1)Cc1nc2ccccc2c(-c2ccccc2)c1C(=O)OC

>  <scaffold>  (1495) 
c1ccc(C[NH2+]Cc2cc(-c3ccccc3)c3ccccc3n2)cc1

>  <molecular_formula>  (1495) 
C30H35N3O2+2

$$$$
ATP-HTVS-EB51C7366B34
     RDKit          3D

 60 63  0  0  0  0  0  0  0  0999 V2000
  197.9989  180.9583  154.1130 O   0  0  0  0  0  0  0  0  0  0  0  0
  197.7378  180.3637  155.1605 C   0  0  0  0  0  0  0  0  0  0  0  0
  197.1541  180.9320  156.2211 N   0  0  0  0  0  0  0  0  0  0  0  0
  197.2217  182.3141  156.5643 C   0  0  0  0  0  0  0  0  0  0  0  0
  198.2060  183.1060  156.0750 N   0  0  0  0  0  0  0  0  0  0  0  0
  198.3875  184.3941  156.4313 C   0  0  0  0  0  0  0  0  0  0  0  0
  197.5334  185.0036  157.3804 C   0  0  0  0  0  0  0  0  0  0  0  0
  197.8013  186.3119  157.8344 N   0  0  0  0  0  0  0  0  0  0  0  0
  198.2682  187.2478  156.8105 C   0  0  1  0  0  0  0  0  0  0  0  0
  198.2809  188.6469  157.2771 C   0  0  0  0  0  0  0  0  0  0  0  0
  198.2997  189.7423  157.6475 N   0  0  0  0  0  0  0  0  0  0  0  0
  198.4026  186.3960  159.1723 C   0  0  1  0  0  0  0  0  0  0  0  0
  199.6943  185.6171  159.3587 C   0  0  0  0  0  0  0  0  0  0  0  0
  199.6780  184.2070  159.4660 C   0  0  0  0  0  0  0  0  0  0  0  0
  200.8724  183.4951  159.6556 C   0  0  0  0  0  0  0  0  0  0  0  0
  202.0940  184.1873  159.7818 C   0  0  0  0  0  0  0  0  0  0  0  0
  202.1122  185.5935  159.7048 C   0  0  0  0  0  0  0  0  0  0  0  0
  200.9177  186.3075  159.4892 C   0  0  0  0  0  0  0  0  0  0  0  0
  196.4665  184.2219  157.9131 C   0  0  0  0  0  0  0  0  0  0  0  0
  196.3262  182.8636  157.5052 C   0  0  0  0  0  0  0  0  0  0  0  0
  195.2739  182.0815  158.0334 C   0  0  0  0  0  0  0  0  0  0  0  0
  194.3573  182.6383  158.9288 C   0  0  0  0  0  0  0  0  0  0  0  0
  194.4907  183.9786  159.3340 C   0  0  0  0  0  0  0  0  0  0  0  0
  195.5404  184.7661  158.8297 C   0  0  0  0  0  0  0  0  0  0  0  0
  198.1198  178.9012  155.3047 C   0  0  1  0  0  0  0  0  0  0  0  0
  199.5197  178.7958  155.9697 C   0  0  1  0  0  0  0  0  0  0  0  0
  200.2459  177.4802  155.7267 C   0  0  0  0  0  0  0  0  0  0  0  0
  200.3726  176.9763  154.4115 C   0  0  0  0  0  0  0  0  0  0  0  0
  201.0526  175.7685  154.1783 C   0  0  0  0  0  0  0  0  0  0  0  0
  201.6415  175.0647  155.2487 C   0  0  0  0  0  0  0  0  0  0  0  0
  201.5497  175.5817  156.5547 C   0  0  0  0  0  0  0  0  0  0  0  0
  200.8454  176.7796  156.7982 C   0  0  0  0  0  0  0  0  0  0  0  0
  202.3619  173.7612  154.9839 C   0  0  2  0  0  0  0  0  0  0  0  0
  196.7459  180.3060  156.9134 H   0  0  0  0  0  0  0  0  0  0  0  0
  199.2697  184.8595  156.0186 H   0  0  0  0  0  0  0  0  0  0  0  0
  199.2894  187.0138  156.5147 H   0  0  0  0  0  0  0  0  0  0  0  0
  197.6323  187.1930  155.9245 H   0  0  0  0  0  0  0  0  0  0  0  0
  198.5808  187.4412  159.4314 H   0  0  0  0  0  0  0  0  0  0  0  0
  197.6898  186.0524  159.9223 H   0  0  0  0  0  0  0  0  0  0  0  0
  198.7506  183.6576  159.4130 H   0  0  0  0  0  0  0  0  0  0  0  0
  200.8497  182.4171  159.7132 H   0  0  0  0  0  0  0  0  0  0  0  0
  203.0107  183.6370  159.9388 H   0  0  0  0  0  0  0  0  0  0  0  0
  203.0456  186.1271  159.8171 H   0  0  0  0  0  0  0  0  0  0  0  0
  200.9420  187.3901  159.4452 H   0  0  0  0  0  0  0  0  0  0  0  0
  195.1147  181.0506  157.7572 H   0  0  0  0  0  0  0  0  0  0  0  0
  193.5571  182.0168  159.2860 H   0  0  0  0  0  0  0  0  0  0  0  0
  193.7673  184.4076  160.0099 H   0  0  0  0  0  0  0  0  0  0  0  0
  195.6105  185.7973  159.1358 H   0  0  0  0  0  0  0  0  0  0  0  0
  197.3712  178.3346  155.8611 H   0  0  0  0  0  0  0  0  0  0  0  0
  198.1213  178.5100  154.2886 H   0  0  0  0  0  0  0  0  0  0  0  0
  200.1895  179.5849  155.6290 H   0  0  0  0  0  0  0  0  0  0  0  0
  199.4062  178.9491  157.0439 H   0  0  0  0  0  0  0  0  0  0  0  0
  199.9591  177.5128  153.5697 H   0  0  0  0  0  0  0  0  0  0  0  0
  201.1130  175.3815  153.1730 H   0  0  0  0  0  0  0  0  0  0  0  0
  202.0075  175.0463  157.3756 H   0  0  0  0  0  0  0  0  0  0  0  0
  200.7653  177.1556  157.8120 H   0  0  0  0  0  0  0  0  0  0  0  0
  202.6299  173.2541  155.9107 H   0  0  0  0  0  0  0  0  0  0  0  0
  203.2743  173.9572  154.4246 H   0  0  0  0  0  0  0  0  0  0  0  0
  201.7364  173.0890  154.3967 H   0  0  0  0  0  0  0  0  0  0  0  0
  198.8733  182.6871  155.4205 H   0  0  0  0  0  0  0  0  0  0  0  0
  1  2  2  0
  2  3  1  0
  2 25  1  0
  3  4  1  0
  3 34  1  0
  4  5  2  0
  4 20  1  0
  5  6  1  0
  5 60  1  0
  6  7  2  0
  6 35  1  0
  7  8  1  0
  7 19  1  0
  8  9  1  0
  8 12  1  0
  9 10  1  0
  9 36  1  6
  9 37  1  0
 10 11  3  0
 12 13  1  0
 12 38  1  1
 12 39  1  0
 13 14  2  0
 13 18  1  0
 14 15  1  0
 14 40  1  0
 15 16  2  0
 15 41  1  0
 16 17  1  0
 16 42  1  0
 17 18  2  0
 17 43  1  0
 18 44  1  0
 19 20  1  0
 19 24  2  0
 20 21  2  0
 21 22  1  0
 21 45  1  0
 22 23  2  0
 22 46  1  0
 23 24  1  0
 23 47  1  0
 24 48  1  0
 25 26  1  0
 25 49  1  1
 25 50  1  0
 26 27  1  0
 26 51  1  6
 26 52  1  0
 27 28  1  0
 27 32  2  0
 28 29  2  0
 28 53  1  0
 29 30  1  0
 29 54  1  0
 30 31  2  0
 30 33  1  0
 31 32  1  0
 31 55  1  0
 32 56  1  0
 33 57  1  1
 33 58  1  0
 33 59  1  0
M  CHG  1   5   1
M  END
>  <s_epik_cmdline>  (1496) 
J2VwaWtfcHl0aG9uJywgJy1waCcsICc3LjAwMDAwMCcsICctcGh0JywgJzIuMDAwMDAwJywgJy1tcycsICcxNicsICctdG4nLCAnOCcsICctbWEnLCAnMjAwJywgJy1pbWFlJywgJzxpbmZpbGUubWFlPicsICctb21hZScsICc8b3V0ZmlsZS5tYWU+Jw==

>  <s_epik_input>  (1496) 
W2NIXTFbY0hdYyhbQ0gzXSlbY0hdW2NIXWMxW0NIMl1bQ0gyXUMoPU8pW05IXWMoYyhjMjMpW2NIXVtjSF1bY0hdW2NIXTMpbltjSF1jMk4oW0NIMl1DI04pW0NIMl1jNFtjSF1bY0hdW2NIXVtjSF1bY0hdNA==

>  <s_i_glide_gridfile>  (1496) 
ATP-Grid

>  <s_lp_Force_Field>  (1496) 
OPLS_2005

>  <s_lp_Variant>  (1496) 
rxn502b____EMOL39121351____EMOL7515103____EMOL300091282-2

>  <s_lp_label>  (1496) 
2598_sdstereoexpander_1_neutralizer_1_epik_2_stereoizer_1

>  <s_m_source_file>  (1496) 
ATP-VSW-LIGPREP-002-in.maegz

>  <s_sd_BIOSOLVEIT.INFINISEE\_QUERY\_NAME>  (1496) 
Ref-Lig

>  <s_sd_BIOSOLVEIT.INFINISEE\_QUERY\_SMILES>  (1496) 
S(c1nc2c(cc1C[NH2+]Cc3ccc(cc3)C[NH+](C)C)cccc2)Cc4ccccc4

>  <s_sd_BIOSOLVEIT.INFINISEE\_REACTION\_NAME>  (1496) 
rxn502b

>  <s_sd_BIOSOLVEIT.INFINISEE\_REAGENT1\_NAME>  (1496) 
EMOL39121351

>  <s_sd_BIOSOLVEIT.INFINISEE\_REAGENT1\_SMILES>  (1496) 
ClC(=O)CCc1ccc(cc1)C

>  <s_sd_BIOSOLVEIT.INFINISEE\_REAGENT2\_NAME>  (1496) 
EMOL7515103

>  <s_sd_BIOSOLVEIT.INFINISEE\_REAGENT2\_SMILES>  (1496) 
Brc1c2c(c(nc1)N)cccc2

>  <s_sd_BIOSOLVEIT.INFINISEE\_REAGENT3\_NAME>  (1496) 
EMOL300091282

>  <s_sd_BIOSOLVEIT.INFINISEE\_REAGENT3\_SMILES>  (1496) 
N#CCNCc1ccccc1

>  <s_sd_BIOSOLVEIT.INFINISEE\_SPACE>  (1496) 
eXplore_7tr_2022-12

>  <s_vsw_compound_code>  (1496) 
83106

>  <s_vsw_variant>  (1496) 
83106-2

>  <r_epik_Charging_Adjusted_Penalty>  (1496) 
4.5809679152890803

>  <r_epik_Ionization_Penalty>  (1496) 
2.3481000000000001

>  <r_epik_Ionization_Penalty_Charging>  (1496) 
2.2898000000000001

>  <r_epik_Ionization_Penalty_Neutral>  (1496) 
0.058299999999999998

>  <r_epik_State_Penalty>  (1496) 
2.2911000000000001

>  <r_i_docking_score>  (1496) 
-3.1878307179681

>  <r_i_glide_ecoul>  (1496) 
-10.793537139892599

>  <r_i_glide_eff_state_penalty>  (1496) 
2.2911000000000001

>  <r_i_glide_einternal>  (1496) 
10.4172267913818

>  <r_i_glide_emodel>  (1496) 
-62.6005590168376

>  <r_i_glide_energy>  (1496) 
-46.533714294433601

>  <r_i_glide_erotb>  (1496) 
0.84030275005691701

>  <r_i_glide_esite>  (1496) 
-0.15434806302968601

>  <r_i_glide_evdw>  (1496) 
-35.740177154541001

>  <r_i_glide_gscore>  (1496) 
-5.4789307179681002

>  <r_i_glide_hbond>  (1496) 
-0.16

>  <r_i_glide_ligand_efficiency>  (1496) 
-0.096600930847518196

>  <r_i_glide_ligand_efficiency_ln>  (1496) 
-0.70895704597201403

>  <r_i_glide_ligand_efficiency_sa>  (1496) 
-0.30985080164183598

>  <r_i_glide_lipo>  (1496) 
-1.74907904439607

>  <r_i_glide_metal>  (1496) 
-0

>  <r_i_glide_rewards>  (1496) 
-0.84976693188832297

>  <r_lp_Energy>  (1496) 
36.617404999999998

>  <r_qp_ACxDN^.5/SA>  (1496) 
0.0087975999999999992

>  <r_qp_CIQPlogS>  (1496) 
-7.9699999999999998

>  <r_qp_EA(eV)>  (1496) 
1.1639999999999999

>  <r_qp_FISA>  (1496) 
116.95

>  <r_qp_FOSA>  (1496) 
196.91200000000001

>  <r_qp_IP(eV)>  (1496) 
8.4369999999999994

>  <r_qp_Jm>  (1496) 
0.0129405381728727

>  <r_qp_PISA>  (1496) 
368.13999999999999

>  <r_qp_PSA>  (1496) 
72.021000000000001

>  <r_qp_PercentHumanOralAbsorption>  (1496) 
100

>  <r_qp_QPPCaco>  (1496) 
770.66700000000003

>  <r_qp_QPPMDCK>  (1496) 
373.30700000000002

>  <r_qp_QPlogBB>  (1496) 
-1.0109999999999999

>  <r_qp_QPlogHERG>  (1496) 
-5.4039999999999999

>  <r_qp_QPlogKhsa>  (1496) 
0.76700000000000002

>  <r_qp_QPlogKp>  (1496) 
-1.514

>  <r_qp_QPlogPC16>  (1496) 
14.407999999999999

>  <r_qp_QPlogPo/w>  (1496) 
4.9379999999999997

>  <r_qp_QPlogPoct>  (1496) 
20.850999999999999

>  <r_qp_QPlogPw>  (1496) 
10.048999999999999

>  <r_qp_QPlogS>  (1496) 
-6.0119999999999996

>  <r_qp_QPpolrz>  (1496) 
45.892000000000003

>  <r_qp_SASA>  (1496) 
682.00099999999998

>  <r_qp_SAamideO>  (1496) 
0

>  <r_qp_SAfluorine>  (1496) 
0

>  <r_qp_WPSA>  (1496) 
0

>  <r_qp_accptHB>  (1496) 
6

>  <r_qp_dip^2/V>  (1496) 
0.049870900000000003

>  <r_qp_dipole>  (1496) 
8.2270000000000003

>  <r_qp_donorHB>  (1496) 
1

>  <r_qp_glob>  (1496) 
0.86917869999999997

>  <r_qp_mol_MW>  (1496) 
434.54000000000002

>  <r_qp_volume>  (1496) 
1357.0429999999999

>  <r_sd_BIOSOLVEIT.INFINISEE\_FTREES\_SIMILARITY>  (1496) 
0.91100000000000003

>  <r_sd_BIOSOLVEIT.LOGP>  (1496) 
5.6447000000000003

>  <r_sd_BIOSOLVEIT.MOLECULAR\_WEIGHT>  (1496) 
434.54000000000002

>  <r_sd_BIOSOLVEIT.TPSA>  (1496) 
69.019999999999996

>  <i_epik_Tot_Q>  (1496) 
1

>  <i_epik_Tot_abs_Q>  (1496) 
1

>  <i_f3d_flags>  (1496) 
0

>  <i_i_glide_confnum>  (1496) 
11

>  <i_i_glide_lignum>  (1496) 
1180

>  <i_i_glide_posenum>  (1496) 
9

>  <i_i_glide_rotatable_bonds>  (1496) 
9

>  <i_lp_mmshare_version>  (1496) 
65135

>  <i_m_ct_format>  (1496) 
2

>  <i_m_source_file_index>  (1496) 
2598

>  <i_qp_#NandO>  (1496) 
5

>  <i_qp_#acid>  (1496) 
0

>  <i_qp_#amide>  (1496) 
0

>  <i_qp_#amidine>  (1496) 
0

>  <i_qp_#amine>  (1496) 
0

>  <i_qp_#in34>  (1496) 
0

>  <i_qp_#in56>  (1496) 
22

>  <i_qp_#metab>  (1496) 
7

>  <i_qp_#nonHatm>  (1496) 
33

>  <i_qp_#noncon>  (1496) 
0

>  <i_qp_#ringatoms>  (1496) 
22

>  <i_qp_#rotor>  (1496) 
9

>  <i_qp_#rtvFG>  (1496) 
0

>  <i_qp_#stars>  (1496) 
0

>  <i_qp_CNS>  (1496) 
-2

>  <i_qp_HumanOralAbsorption>  (1496) 
3

>  <i_qp_RuleOfFive>  (1496) 
0

>  <i_qp_RuleOfThree>  (1496) 
2

>  <i_sd_BIOSOLVEIT.INFINISEE\_RESULT\_RANK>  (1496) 
41186

>  <i_sd_version>  (1496) 
0

>  <b_lp_Chiralities_Consistent>  (1496) 
1

>  <b_sd_chiral_flag>  (1496) 
0

>  <canonical_id>  (1496) 
ATP-HTVS-EB51C7366B34

>  <compound_code>  (1496) 
83106

>  <title>  (1496) 
rxn502b____EMOL39121351____EMOL7515103____EMOL300091282

>  <variant>  (1496) 
83106-2

>  <source_file>  (1496) 
运行/运行/ATP-VSW/ATP-VSW-DOCK_HTVS_1-002_lib.maegz

>  <canonical_smiles>  (1496) 
Cc1ccc(CCC(=O)Nc2[nH+]cc(N(CC#N)Cc3ccccc3)c3ccccc23)cc1

>  <scaffold>  (1496) 
O=C(CCc1ccccc1)Nc1[nH+]cc(NCc2ccccc2)c2ccccc12

>  <molecular_formula>  (1496) 
C28H27N4O+

$$$$
ATP-HTVS-EBA0F745595A
     RDKit          3D

 56 58  0  0  0  0  0  0  0  0999 V2000
  197.1530  182.5803  153.1387 S   0  0  0  0  0  0  0  0  0  0  0  0
  197.1897  181.2610  154.2789 C   0  0  0  0  0  0  0  0  0  0  0  0
  197.2690  180.0449  153.6480 C   0  0  0  0  0  0  0  0  0  0  0  0
  197.2835  180.1732  152.2248 C   0  0  0  0  0  0  0  0  0  0  0  0
  197.3821  179.0344  151.4136 N   0  0  0  0  0  0  0  0  0  0  0  0
  197.3483  179.1035  149.9635 C   0  0  1  0  0  0  0  0  0  0  0  0
  198.2464  178.0947  149.2684 C   0  0  0  0  0  0  0  0  0  0  0  0
  198.9266  178.4837  148.1184 C   0  0  0  0  0  0  0  0  0  0  0  0
  199.6551  177.5244  147.3660 C   0  0  0  0  0  0  0  0  0  0  0  0
  199.7788  176.2108  147.8551 C   0  0  0  0  0  0  0  0  0  0  0  0
  199.1478  175.8329  149.0549 C   0  0  0  0  0  0  0  0  0  0  0  0
  198.3571  176.7654  149.7599 C   0  0  0  0  0  0  0  0  0  0  0  0
  200.2557  177.9346  146.0244 C   0  0  1  0  0  0  0  0  0  0  0  0
  199.2529  178.2914  145.0072 N   0  0  2  0  0  0  0  0  0  0  0  0
  199.7355  179.3490  144.0784 C   0  0  2  0  0  0  0  0  0  0  0  0
  197.8473  178.5596  145.3940 C   0  0  2  0  0  0  0  0  0  0  0  0
  197.2195  181.4719  151.8054 C   0  0  0  0  0  0  0  0  0  0  0  0
  197.0657  181.5170  155.7316 C   0  0  1  0  0  0  0  0  0  0  0  0
  198.3572  182.0603  156.3944 C   0  0  0  0  0  0  0  0  0  0  0  0
  199.4421  181.7389  155.9088 O   0  0  0  0  0  0  0  0  0  0  0  0
  198.2687  182.8615  157.4913 N   0  0  0  0  0  0  0  0  0  0  0  0
  197.0298  183.2155  158.1045 C   0  0  0  0  0  0  0  0  0  0  0  0
  196.7080  184.5624  158.3985 C   0  0  0  0  0  0  0  0  0  0  0  0
  197.5668  185.5687  158.0955 F   0  0  0  0  0  0  0  0  0  0  0  0
  195.4648  184.8806  158.9901 C   0  0  0  0  0  0  0  0  0  0  0  0
  194.5266  183.8668  159.2614 C   0  0  0  0  0  0  0  0  0  0  0  0
  194.8447  182.5252  158.9715 C   0  0  0  0  0  0  0  0  0  0  0  0
  196.0986  182.2032  158.4432 C   0  0  0  0  0  0  0  0  0  0  0  0
  199.5053  183.3499  158.1218 C   0  0  2  0  0  0  0  0  0  0  0  0
  197.3007  179.0922  154.1580 H   0  0  0  0  0  0  0  0  0  0  0  0
  197.6006  178.1502  151.8363 H   0  0  0  0  0  0  0  0  0  0  0  0
  196.3153  178.9676  149.6416 H   0  0  0  0  0  0  0  0  0  0  0  0
  197.6242  180.0939  149.6178 H   0  0  0  0  0  0  0  0  0  0  0  0
  198.8536  179.5079  147.7360 H   0  0  0  0  0  0  0  0  0  0  0  0
  200.3443  175.4711  147.2961 H   0  0  0  0  0  0  0  0  0  0  0  0
  199.2564  174.8232  149.4318 H   0  0  0  0  0  0  0  0  0  0  0  0
  197.8569  176.4460  150.6606 H   0  0  0  0  0  0  0  0  0  0  0  0
  200.9397  178.7626  146.1987 H   0  0  0  0  0  0  0  0  0  0  0  0
  200.8726  177.1267  145.6395 H   0  0  0  0  0  0  0  0  0  0  0  0
  199.9453  180.2574  144.6314 H   0  0  0  0  0  0  0  0  0  0  0  0
  198.9899  179.5864  143.3261 H   0  0  0  0  0  0  0  0  0  0  0  0
  200.6327  179.0534  143.5445 H   0  0  0  0  0  0  0  0  0  0  0  0
  197.8336  179.4413  146.0254 H   0  0  0  0  0  0  0  0  0  0  0  0
  197.4447  177.7071  145.9775 H   0  0  0  0  0  0  0  0  0  0  0  0
  197.2027  178.6435  144.5265 H   0  0  0  0  0  0  0  0  0  0  0  0
  197.2325  181.8751  150.8049 H   0  0  0  0  0  0  0  0  0  0  0  0
  196.2269  182.2068  155.8499 H   0  0  0  0  0  0  0  0  0  0  0  0
  196.7890  180.5822  156.2242 H   0  0  0  0  0  0  0  0  0  0  0  0
  195.2258  185.9113  159.2103 H   0  0  0  0  0  0  0  0  0  0  0  0
  193.5622  184.1123  159.6898 H   0  0  0  0  0  0  0  0  0  0  0  0
  194.1362  181.7310  159.1563 H   0  0  0  0  0  0  0  0  0  0  0  0
  196.3349  181.1573  158.2755 H   0  0  0  0  0  0  0  0  0  0  0  0
  199.3123  184.1024  158.8860 H   0  0  0  0  0  0  0  0  0  0  0  0
  200.1943  183.7830  157.3960 H   0  0  0  0  0  0  0  0  0  0  0  0
  200.0095  182.5246  158.6263 H   0  0  0  0  0  0  0  0  0  0  0  0
  199.2019  177.4852  144.3576 H   0  0  0  0  0  0  0  0  0  0  0  0
  1  2  1  0
  1 17  1  0
  2  3  2  0
  2 18  1  0
  3  4  1  0
  3 30  1  0
  4  5  1  0
  4 17  2  0
  5  6  1  0
  5 31  1  0
  6  7  1  0
  6 32  1  6
  6 33  1  0
  7  8  2  0
  7 12  1  0
  8  9  1  0
  8 34  1  0
  9 10  2  0
  9 13  1  0
 10 11  1  0
 10 35  1  0
 11 12  2  0
 11 36  1  0
 12 37  1  0
 13 14  1  0
 13 38  1  1
 13 39  1  0
 14 15  1  0
 14 16  1  0
 14 56  1  6
 15 40  1  1
 15 41  1  0
 15 42  1  0
 16 43  1  1
 16 44  1  0
 16 45  1  0
 17 46  1  0
 18 19  1  0
 18 47  1  6
 18 48  1  0
 19 20  2  0
 19 21  1  0
 21 22  1  0
 21 29  1  0
 22 23  1  0
 22 28  2  0
 23 24  1  0
 23 25  2  0
 25 26  1  0
 25 49  1  0
 26 27  2  0
 26 50  1  0
 27 28  1  0
 27 51  1  0
 28 52  1  0
 29 53  1  1
 29 54  1  0
 29 55  1  0
M  CHG  1  14   1
M  END
>  <s_epik_cmdline>  (1497) 
J2VwaWtfcHl0aG9uJywgJy1waCcsICc3LjAwMDAwMCcsICctcGh0JywgJzIuMDAwMDAwJywgJy1tcycsICcxNicsICctdG4nLCAnOCcsICctbWEnLCAnMjAwJywgJy1pbWFlJywgJzxpbmZpbGUubWFlPicsICctb21hZScsICc8b3V0ZmlsZS5tYWU+Jw==

>  <s_epik_input>  (1497) 
W2NIXTFbY0hdW2NIXVtjSF1jKEYpYzFOKFtDSDNdKUMoPU8pW0NIMl1jMnNbY0hdYyhbY0hdMilbTkhdW0NIMl1jM1tjSF1jKFtjSF1bY0hdW2NIXTMpW0NIMl1OKFtDSDNdKVtDSDNd

>  <s_i_glide_gridfile>  (1497) 
ATP-Grid

>  <s_lp_Force_Field>  (1497) 
OPLS_2005

>  <s_lp_Variant>  (1497) 
rxn512b____EMOL2726699____EMOL15801711____EMOL2873214-1

>  <s_lp_label>  (1497) 
2494_sdstereoexpander_1_neutralizer_1_epik_1_stereoizer_1

>  <s_m_source_file>  (1497) 
ATP-VSW-LIGPREP-001-in.maegz

>  <s_sd_BIOSOLVEIT.INFINISEE\_QUERY\_NAME>  (1497) 
Ref-Lig

>  <s_sd_BIOSOLVEIT.INFINISEE\_QUERY\_SMILES>  (1497) 
S(c1nc2c(cc1C[NH2+]Cc3ccc(cc3)C[NH+](C)C)cccc2)Cc4ccccc4

>  <s_sd_BIOSOLVEIT.INFINISEE\_REACTION\_NAME>  (1497) 
rxn512b

>  <s_sd_BIOSOLVEIT.INFINISEE\_REAGENT1\_NAME>  (1497) 
EMOL2726699

>  <s_sd_BIOSOLVEIT.INFINISEE\_REAGENT1\_SMILES>  (1497) 
Fc1c(NC)cccc1

>  <s_sd_BIOSOLVEIT.INFINISEE\_REAGENT2\_NAME>  (1497) 
EMOL15801711

>  <s_sd_BIOSOLVEIT.INFINISEE\_REAGENT2\_SMILES>  (1497) 
BrC1=CSC(=C1)CC(=O)O

>  <s_sd_BIOSOLVEIT.INFINISEE\_REAGENT3\_NAME>  (1497) 
EMOL2873214

>  <s_sd_BIOSOLVEIT.INFINISEE\_REAGENT3\_SMILES>  (1497) 
N(Cc1cc(ccc1)CN)(C)C

>  <s_sd_BIOSOLVEIT.INFINISEE\_SPACE>  (1497) 
eXplore_7tr_2022-12

>  <s_vsw_compound_code>  (1497) 
79777

>  <s_vsw_variant>  (1497) 
79777-1

>  <r_epik_Charging_Adjusted_Penalty>  (1497) 
0.086140609825027206

>  <r_epik_Ionization_Penalty>  (1497) 
0.043099999999999999

>  <r_epik_Ionization_Penalty_Charging>  (1497) 
0.043099999999999999

>  <r_epik_Ionization_Penalty_Neutral>  (1497) 
0

>  <r_epik_State_Penalty>  (1497) 
0.043099999999999999

>  <r_i_docking_score>  (1497) 
-4.2996764045154396

>  <r_i_glide_ecoul>  (1497) 
-6.6682672500610396

>  <r_i_glide_eff_state_penalty>  (1497) 
0.043099999999999999

>  <r_i_glide_einternal>  (1497) 
8.02575588226318

>  <r_i_glide_emodel>  (1497) 
-52.843153547207301

>  <r_i_glide_energy>  (1497) 
-41.394368171691902

>  <r_i_glide_erotb>  (1497) 
0.81107677863442396

>  <r_i_glide_esite>  (1497) 
-0.13428791242254401

>  <r_i_glide_evdw>  (1497) 
-34.726100921630902

>  <r_i_glide_gscore>  (1497) 
-4.3427764045154396

>  <r_i_glide_hbond>  (1497) 
-0.20000000000000001

>  <r_i_glide_ligand_efficiency>  (1497) 
-0.148264703603981

>  <r_i_glide_ligand_efficiency_ln>  (1497) 
-0.98451686624781698

>  <r_i_glide_ligand_efficiency_sa>  (1497) 
-0.45551614302655002

>  <r_i_glide_lipo>  (1497) 
-1.1746746799318299

>  <r_i_glide_metal>  (1497) 
-0

>  <r_i_glide_rewards>  (1497) 
-0.90834545720479398

>  <r_lp_Energy>  (1497) 
26.291446000000001

>  <r_lp_tautomer_probability>  (1497) 
0.99999274205267796

>  <r_qp_ACxDN^.5/SA>  (1497) 
0.0091839

>  <r_qp_CIQPlogS>  (1497) 
-4.1040000000000001

>  <r_qp_EA(eV)>  (1497) 
0.246

>  <r_qp_FISA>  (1497) 
22.484000000000002

>  <r_qp_FOSA>  (1497) 
256.90600000000001

>  <r_qp_IP(eV)>  (1497) 
7.8929999999999998

>  <r_qp_Jm>  (1497) 
0.071104767607410801

>  <r_qp_PISA>  (1497) 
303.17000000000002

>  <r_qp_PSA>  (1497) 
41.284999999999997

>  <r_qp_PercentHumanOralAbsorption>  (1497) 
100

>  <r_qp_QPPCaco>  (1497) 
377.12599999999998

>  <r_qp_QPPMDCK>  (1497) 
515.19399999999996

>  <r_qp_QPlogBB>  (1497) 
0.85299999999999998

>  <r_qp_QPlogHERG>  (1497) 
-6.5819999999999999

>  <r_qp_QPlogKhsa>  (1497) 
0.56699999999999995

>  <r_qp_QPlogKp>  (1497) 
-4.2229999999999999

>  <r_qp_QPlogPC16>  (1497) 
12.641999999999999

>  <r_qp_QPlogPo/w>  (1497) 
4.1660000000000004

>  <r_qp_QPlogPoct>  (1497) 
18.920999999999999

>  <r_qp_QPlogPw>  (1497) 
9.141

>  <r_qp_QPlogS>  (1497) 
-2.5390000000000001

>  <r_qp_QPpolrz>  (1497) 
42.335999999999999

>  <r_qp_SASA>  (1497) 
653.32100000000003

>  <r_qp_SAamideO>  (1497) 
0

>  <r_qp_SAfluorine>  (1497) 
27.321000000000002

>  <r_qp_WPSA>  (1497) 
70.760999999999996

>  <r_qp_accptHB>  (1497) 
6

>  <r_qp_dip^2/V>  (1497) 
0.017467900000000001

>  <r_qp_dipole>  (1497) 
4.7060000000000004

>  <r_qp_donorHB>  (1497) 
1

>  <r_qp_glob>  (1497) 
0.86703989999999997

>  <r_qp_mol_MW>  (1497) 
411.536

>  <r_qp_volume>  (1497) 
1267.654

>  <r_sd_BIOSOLVEIT.INFINISEE\_FTREES\_SIMILARITY>  (1497) 
0.91400000000000003

>  <r_sd_BIOSOLVEIT.LOGP>  (1497) 
3.3492999999999999

>  <r_sd_BIOSOLVEIT.MOLECULAR\_WEIGHT>  (1497) 
412.54899999999998

>  <r_sd_BIOSOLVEIT.TPSA>  (1497) 
36.780000000000001

>  <i_epik_Tot_Q>  (1497) 
1

>  <i_epik_Tot_abs_Q>  (1497) 
1

>  <i_f3d_flags>  (1497) 
0

>  <i_i_glide_confnum>  (1497) 
7

>  <i_i_glide_lignum>  (1497) 
982

>  <i_i_glide_posenum>  (1497) 
8

>  <i_i_glide_rotatable_bonds>  (1497) 
9

>  <i_lp_mmshare_version>  (1497) 
65135

>  <i_m_ct_format>  (1497) 
2

>  <i_m_source_file_index>  (1497) 
2494

>  <i_qp_#NandO>  (1497) 
4

>  <i_qp_#acid>  (1497) 
0

>  <i_qp_#amide>  (1497) 
0

>  <i_qp_#amidine>  (1497) 
0

>  <i_qp_#amine>  (1497) 
2

>  <i_qp_#in34>  (1497) 
0

>  <i_qp_#in56>  (1497) 
17

>  <i_qp_#metab>  (1497) 
8

>  <i_qp_#nonHatm>  (1497) 
29

>  <i_qp_#noncon>  (1497) 
0

>  <i_qp_#ringatoms>  (1497) 
17

>  <i_qp_#rotor>  (1497) 
8

>  <i_qp_#rtvFG>  (1497) 
0

>  <i_qp_#stars>  (1497) 
1

>  <i_qp_CNS>  (1497) 
2

>  <i_qp_HumanOralAbsorption>  (1497) 
3

>  <i_qp_RuleOfFive>  (1497) 
0

>  <i_qp_RuleOfThree>  (1497) 
1

>  <i_sd_BIOSOLVEIT.INFINISEE\_RESULT\_RANK>  (1497) 
29984

>  <i_sd_version>  (1497) 
0

>  <b_lp_Chiralities_Consistent>  (1497) 
1

>  <b_sd_chiral_flag>  (1497) 
0

>  <canonical_id>  (1497) 
ATP-HTVS-EBA0F745595A

>  <compound_code>  (1497) 
79777

>  <title>  (1497) 
rxn512b____EMOL2726699____EMOL15801711____EMOL2873214

>  <variant>  (1497) 
79777-1

>  <source_file>  (1497) 
运行/运行/ATP-VSW/ATP-VSW-DOCK_HTVS_1-001_lib/ATP-VSW-DOCK_HTVS_1-001_lib

>  <canonical_smiles>  (1497) 
CN(C(=O)Cc1cc(NCc2cccc(C[NH+](C)C)c2)cs1)c1ccccc1F

>  <scaffold>  (1497) 
O=C(Cc1cc(NCc2ccccc2)cs1)Nc1ccccc1

>  <molecular_formula>  (1497) 
C23H27FN3OS+

$$$$
ATP-HTVS-EBADA6179138
     RDKit          3D

 59 62  0  0  0  0  0  0  0  0999 V2000
  199.5185  177.3439  150.1907 F   0  0  0  0  0  0  0  0  0  0  0  0
  198.7603  178.3268  150.7278 C   0  0  0  0  0  0  0  0  0  0  0  0
  199.2086  179.0235  151.8637 C   0  0  0  0  0  0  0  0  0  0  0  0
  198.4187  180.0405  152.4535 C   0  0  0  0  0  0  0  0  0  0  0  0
  197.1523  180.3547  151.8775 C   0  0  0  0  0  0  0  0  0  0  0  0
  196.3585  181.3160  152.3888 N   0  0  0  0  0  0  0  0  0  0  0  0
  196.7740  181.9946  153.4703 C   0  0  0  0  0  0  0  0  0  0  0  0
  198.0017  181.7716  154.1275 C   0  0  0  0  0  0  0  0  0  0  0  0
  198.8530  180.7591  153.6020 C   0  0  0  0  0  0  0  0  0  0  0  0
  200.1194  180.5025  154.1725 N   0  0  0  0  0  0  0  0  0  0  0  0
  200.3740  179.6111  155.2351 C   0  0  0  0  0  0  0  0  0  0  0  0
  199.6766  178.3824  155.3134 C   0  0  0  0  0  0  0  0  0  0  0  0
  199.9284  177.4794  156.3664 C   0  0  0  0  0  0  0  0  0  0  0  0
  200.8604  177.8019  157.3710 C   0  0  0  0  0  0  0  0  0  0  0  0
  201.5440  179.0258  157.3087 C   0  0  0  0  0  0  0  0  0  0  0  0
  201.3143  179.9197  156.2507 C   0  0  0  0  0  0  0  0  0  0  0  0
  201.1761  181.3985  153.6937 C   0  0  1  0  0  0  0  0  0  0  0  0
  202.1121  180.7110  152.7907 C   0  0  0  0  0  0  0  0  0  0  0  0
  202.8466  180.1743  152.0756 N   0  0  0  0  0  0  0  0  0  0  0  0
  198.3686  182.6393  155.3048 C   0  0  0  0  0  0  0  0  0  0  0  0
  199.5169  183.0581  155.4631 O   0  0  0  0  0  0  0  0  0  0  0  0
  197.3609  182.8823  156.1564 N   0  0  0  0  0  0  0  0  0  0  0  0
  197.4016  183.6888  157.3318 C   0  0  0  0  0  0  0  0  0  0  0  0
  196.6069  183.3271  158.4552 C   0  0  0  0  0  0  0  0  0  0  0  0
  196.6485  184.1273  159.6143 C   0  0  0  0  0  0  0  0  0  0  0  0
  197.3922  185.3260  159.6374 C   0  0  0  0  0  0  0  0  0  0  0  0
  198.1522  185.7043  158.5212 C   0  0  0  0  0  0  0  0  0  0  0  0
  198.1606  184.8848  157.3766 C   0  0  0  0  0  0  0  0  0  0  0  0
  195.6913  182.0992  158.4415 C   0  0  1  0  0  0  0  0  0  0  0  0
  194.2589  182.4112  158.1317 N   0  0  2  0  0  0  0  0  0  0  0  0
  193.7227  183.6130  158.8234 C   0  0  2  0  0  0  0  0  0  0  0  0
  193.3920  181.2263  158.3259 C   0  0  2  0  0  0  0  0  0  0  0  0
  196.7174  179.6521  150.7368 C   0  0  0  0  0  0  0  0  0  0  0  0
  197.5156  178.6474  150.1574 C   0  0  0  0  0  0  0  0  0  0  0  0
  200.1705  178.7604  152.2734 H   0  0  0  0  0  0  0  0  0  0  0  0
  196.0952  182.7587  153.8129 H   0  0  0  0  0  0  0  0  0  0  0  0
  198.9362  178.1207  154.5701 H   0  0  0  0  0  0  0  0  0  0  0  0
  199.3834  176.5433  156.4231 H   0  0  0  0  0  0  0  0  0  0  0  0
  201.0385  177.1177  158.1877 H   0  0  0  0  0  0  0  0  0  0  0  0
  202.2653  179.2825  158.0730 H   0  0  0  0  0  0  0  0  0  0  0  0
  201.8569  180.8512  156.2615 H   0  0  0  0  0  0  0  0  0  0  0  0
  200.7391  182.2347  153.1407 H   0  0  0  0  0  0  0  0  0  0  0  0
  201.7552  181.8448  154.4986 H   0  0  0  0  0  0  0  0  0  0  0  0
  196.5061  182.3726  155.9880 H   0  0  0  0  0  0  0  0  0  0  0  0
  196.0808  183.8585  160.4911 H   0  0  0  0  0  0  0  0  0  0  0  0
  197.3458  185.9651  160.5103 H   0  0  0  0  0  0  0  0  0  0  0  0
  198.7074  186.6328  158.5377 H   0  0  0  0  0  0  0  0  0  0  0  0
  198.7337  185.2113  156.5211 H   0  0  0  0  0  0  0  0  0  0  0  0
  196.0477  181.3711  157.7079 H   0  0  0  0  0  0  0  0  0  0  0  0
  195.7826  181.5854  159.4048 H   0  0  0  0  0  0  0  0  0  0  0  0
  193.8672  183.5094  159.8948 H   0  0  0  0  0  0  0  0  0  0  0  0
  192.6540  183.7538  158.6205 H   0  0  0  0  0  0  0  0  0  0  0  0
  194.2192  184.5295  158.5047 H   0  0  0  0  0  0  0  0  0  0  0  0
  193.4301  180.8859  159.3550 H   0  0  0  0  0  0  0  0  0  0  0  0
  193.6998  180.3910  157.6966 H   0  0  0  0  0  0  0  0  0  0  0  0
  192.3608  181.4621  158.0738 H   0  0  0  0  0  0  0  0  0  0  0  0
  195.7555  179.8911  150.3049 H   0  0  0  0  0  0  0  0  0  0  0  0
  197.1713  178.1052  149.2879 H   0  0  0  0  0  0  0  0  0  0  0  0
  194.1763  182.6265  157.1441 H   0  0  0  0  0  0  0  0  0  0  0  0
  1  2  1  0
  2  3  1  0
  2 34  2  0
  3  4  2  0
  3 35  1  0
  4  5  1  0
  4  9  1  0
  5  6  1  0
  5 33  2  0
  6  7  2  0
  7  8  1  0
  7 36  1  0
  8  9  2  0
  8 20  1  0
  9 10  1  0
 10 11  1  0
 10 17  1  0
 11 12  2  0
 11 16  1  0
 12 13  1  0
 12 37  1  0
 13 14  2  0
 13 38  1  0
 14 15  1  0
 14 39  1  0
 15 16  2  0
 15 40  1  0
 16 41  1  0
 17 18  1  0
 17 42  1  6
 17 43  1  0
 18 19  3  0
 20 21  2  0
 20 22  1  0
 22 23  1  0
 22 44  1  0
 23 24  1  0
 23 28  2  0
 24 25  2  0
 24 29  1  0
 25 26  1  0
 25 45  1  0
 26 27  2  0
 26 46  1  0
 27 28  1  0
 27 47  1  0
 28 48  1  0
 29 30  1  0
 29 49  1  6
 29 50  1  0
 30 31  1  0
 30 32  1  0
 30 59  1  6
 31 51  1  1
 31 52  1  0
 31 53  1  0
 32 54  1  1
 32 55  1  0
 32 56  1  0
 33 34  1  0
 33 57  1  0
 34 58  1  0
M  CHG  1  30   1
M  END
>  <s_epik_cmdline>  (1498) 
J2VwaWtfcHl0aG9uJywgJy1waCcsICc3LjAwMDAwMCcsICctcGh0JywgJzIuMDAwMDAwJywgJy1tcycsICcxNicsICctdG4nLCAnOCcsICctbWEnLCAnMjAwJywgJy1pbWFlJywgJzxpbmZpbGUubWFlPicsICctb21hZScsICc8b3V0ZmlsZS5tYWU+Jw==

>  <s_epik_input>  (1498) 
W2NIXTFbY0hdW2NIXVtjSF1jKFtDSDJdTihbQ0gzXSlbQ0gzXSljMVtOSF1DKD1PKWMoW2NIXW5jKGMyMylbY0hdW2NIXWMoRilbY0hdMiljM04oW0NIMl1DI04pYzRbY0hdW2NIXVtjSF1bY0hdW2NIXTQ=

>  <s_i_glide_gridfile>  (1498) 
ATP-Grid

>  <s_lp_Force_Field>  (1498) 
OPLS_2005

>  <s_lp_Variant>  (1498) 
rxn512c____EMOL712348____EMOL36725275____EMOL44691345-1

>  <s_lp_label>  (1498) 
2201_sdstereoexpander_1_neutralizer_1_epik_1_stereoizer_1

>  <s_m_source_file>  (1498) 
ATP-VSW-LIGPREP-003-in.maegz

>  <s_sd_BIOSOLVEIT.INFINISEE\_QUERY\_NAME>  (1498) 
Ref-Lig

>  <s_sd_BIOSOLVEIT.INFINISEE\_QUERY\_SMILES>  (1498) 
S(c1nc2c(cc1C[NH2+]Cc3ccc(cc3)C[NH+](C)C)cccc2)Cc4ccccc4

>  <s_sd_BIOSOLVEIT.INFINISEE\_REACTION\_NAME>  (1498) 
rxn512c

>  <s_sd_BIOSOLVEIT.INFINISEE\_REAGENT1\_NAME>  (1498) 
EMOL712348

>  <s_sd_BIOSOLVEIT.INFINISEE\_REAGENT1\_SMILES>  (1498) 
N#CCNc1ccccc1

>  <s_sd_BIOSOLVEIT.INFINISEE\_REAGENT2\_NAME>  (1498) 
EMOL36725275

>  <s_sd_BIOSOLVEIT.INFINISEE\_REAGENT2\_SMILES>  (1498) 
Clc1c2c(ncc1C(=O)O)ccc(F)c2

>  <s_sd_BIOSOLVEIT.INFINISEE\_REAGENT3\_NAME>  (1498) 
EMOL44691345

>  <s_sd_BIOSOLVEIT.INFINISEE\_REAGENT3\_SMILES>  (1498) 
N(Cc1c(N)cccc1)(C)C

>  <s_sd_BIOSOLVEIT.INFINISEE\_SPACE>  (1498) 
eXplore_7tr_2022-12

>  <s_vsw_compound_code>  (1498) 
70403

>  <s_vsw_variant>  (1498) 
70403-1

>  <r_epik_Charging_Adjusted_Penalty>  (1498) 
0.098595088431982794

>  <r_epik_Ionization_Penalty>  (1498) 
0.050900000000000001

>  <r_epik_Ionization_Penalty_Charging>  (1498) 
0.049299999999999997

>  <r_epik_Ionization_Penalty_Neutral>  (1498) 
0.0016000000000000001

>  <r_epik_State_Penalty>  (1498) 
0.049299999999999997

>  <r_i_docking_score>  (1498) 
-4.1999627210405297

>  <r_i_glide_ecoul>  (1498) 
-9.2444915771484393

>  <r_i_glide_eff_state_penalty>  (1498) 
0.049299999999999997

>  <r_i_glide_einternal>  (1498) 
4.6915717124939

>  <r_i_glide_emodel>  (1498) 
-59.307003698102299

>  <r_i_glide_energy>  (1498) 
-44.534332275390597

>  <r_i_glide_erotb>  (1498) 
0.58324278795298601

>  <r_i_glide_esite>  (1498) 
-0.132240445864097

>  <r_i_glide_evdw>  (1498) 
-35.289840698242202

>  <r_i_glide_gscore>  (1498) 
-4.2492627210405303

>  <r_i_glide_hbond>  (1498) 
-0.20000000000000001

>  <r_i_glide_ligand_efficiency>  (1498) 
-0.123528315324721

>  <r_i_glide_ligand_efficiency_ln>  (1498) 
-0.92788957004185801

>  <r_i_glide_ligand_efficiency_sa>  (1498) 
-0.40018378764749601

>  <r_i_glide_lipo>  (1498) 
-0.97833370329546498

>  <r_i_glide_metal>  (1498) 
-0

>  <r_i_glide_rewards>  (1498) 
-0.37076558834957801

>  <r_lp_Energy>  (1498) 
39.012165000000003

>  <r_qp_ACxDN^.5/SA>  (1498) 
0.0106648

>  <r_qp_CIQPlogS>  (1498) 
-6.6959999999999997

>  <r_qp_EA(eV)>  (1498) 
1.641

>  <r_qp_FISA>  (1498) 
94.942999999999998

>  <r_qp_FOSA>  (1498) 
153.529

>  <r_qp_IP(eV)>  (1498) 
8.5090000000000003

>  <r_qp_Jm>  (1498) 
0.0038327301439789602

>  <r_qp_PISA>  (1498) 
410.11099999999999

>  <r_qp_PSA>  (1498) 
72.549999999999997

>  <r_qp_PercentHumanOralAbsorption>  (1498) 
95.965999999999994

>  <r_qp_QPPCaco>  (1498) 
310.78300000000002

>  <r_qp_QPPMDCK>  (1498) 
271.834

>  <r_qp_QPlogBB>  (1498) 
-0.29699999999999999

>  <r_qp_QPlogHERG>  (1498) 
-6.7220000000000004

>  <r_qp_QPlogKhsa>  (1498) 
0.504

>  <r_qp_QPlogKp>  (1498) 
-3.1190000000000002

>  <r_qp_QPlogPC16>  (1498) 
14.314

>  <r_qp_QPlogPo/w>  (1498) 
4.1689999999999996

>  <r_qp_QPlogPoct>  (1498) 
22.32

>  <r_qp_QPlogPw>  (1498) 
11.949999999999999

>  <r_qp_QPlogS>  (1498) 
-4.9539999999999997

>  <r_qp_QPpolrz>  (1498) 
47.139000000000003

>  <r_qp_SASA>  (1498) 
703.24699999999996

>  <r_qp_SAamideO>  (1498) 
0

>  <r_qp_SAfluorine>  (1498) 
44.664000000000001

>  <r_qp_WPSA>  (1498) 
44.664000000000001

>  <r_qp_accptHB>  (1498) 
7.5

>  <r_qp_dip^2/V>  (1498) 
0.057399899999999997

>  <r_qp_dipole>  (1498) 
8.8420000000000005

>  <r_qp_donorHB>  (1498) 
1

>  <r_qp_glob>  (1498) 
0.84503139999999999

>  <r_qp_mol_MW>  (1498) 
453.51799999999997

>  <r_qp_volume>  (1498) 
1362.144

>  <r_sd_BIOSOLVEIT.INFINISEE\_FTREES\_SIMILARITY>  (1498) 
0.93200000000000005

>  <r_sd_BIOSOLVEIT.LOGP>  (1498) 
3.9323800000000002

>  <r_sd_BIOSOLVEIT.MOLECULAR\_WEIGHT>  (1498) 
454.52699999999999

>  <r_sd_BIOSOLVEIT.TPSA>  (1498) 
73.459999999999994

>  <i_epik_Tot_Q>  (1498) 
1

>  <i_epik_Tot_abs_Q>  (1498) 
1

>  <i_f3d_flags>  (1498) 
0

>  <i_i_glide_confnum>  (1498) 
7

>  <i_i_glide_lignum>  (1498) 
849

>  <i_i_glide_posenum>  (1498) 
2

>  <i_i_glide_rotatable_bonds>  (1498) 
8

>  <i_lp_mmshare_version>  (1498) 
65135

>  <i_m_ct_format>  (1498) 
2

>  <i_m_source_file_index>  (1498) 
2201

>  <i_qp_#NandO>  (1498) 
6

>  <i_qp_#acid>  (1498) 
0

>  <i_qp_#amide>  (1498) 
0

>  <i_qp_#amidine>  (1498) 
0

>  <i_qp_#amine>  (1498) 
1

>  <i_qp_#in34>  (1498) 
0

>  <i_qp_#in56>  (1498) 
22

>  <i_qp_#metab>  (1498) 
7

>  <i_qp_#nonHatm>  (1498) 
34

>  <i_qp_#noncon>  (1498) 
0

>  <i_qp_#ringatoms>  (1498) 
22

>  <i_qp_#rotor>  (1498) 
8

>  <i_qp_#rtvFG>  (1498) 
0

>  <i_qp_#stars>  (1498) 
0

>  <i_qp_CNS>  (1498) 
1

>  <i_qp_HumanOralAbsorption>  (1498) 
3

>  <i_qp_RuleOfFive>  (1498) 
0

>  <i_qp_RuleOfThree>  (1498) 
1

>  <i_sd_BIOSOLVEIT.INFINISEE\_RESULT\_RANK>  (1498) 
3769

>  <i_sd_version>  (1498) 
0

>  <b_lp_Chiralities_Consistent>  (1498) 
1

>  <b_sd_chiral_flag>  (1498) 
0

>  <canonical_id>  (1498) 
ATP-HTVS-EBADA6179138

>  <compound_code>  (1498) 
70403

>  <title>  (1498) 
rxn512c____EMOL712348____EMOL36725275____EMOL44691345

>  <variant>  (1498) 
70403-1

>  <source_file>  (1498) 
运行/运行/ATP-VSW/ATP-VSW-DOCK_HTVS_1-003_lib/ATP-VSW-DOCK_HTVS_1-003_lib.mae

>  <canonical_smiles>  (1498) 
C[NH+](C)Cc1ccccc1NC(=O)c1cnc2ccc(F)cc2c1N(CC#N)c1ccccc1

>  <scaffold>  (1498) 
O=C(Nc1ccccc1)c1cnc2ccccc2c1Nc1ccccc1

>  <molecular_formula>  (1498) 
C27H25FN5O+

$$$$
ATP-HTVS-EBCFEAF5D9E7
     RDKit          3D

 66 69  0  0  0  0  0  0  0  0999 V2000
  198.9986  186.7757  151.4342 O   0  0  0  0  0  0  0  0  0  0  0  0
  198.4047  185.7599  150.7170 C   0  0  0  0  0  0  0  0  0  0  0  0
  198.6129  185.7271  149.3253 C   0  0  0  0  0  0  0  0  0  0  0  0
  197.9801  184.7488  148.5186 C   0  0  0  0  0  0  0  0  0  0  0  0
  198.1517  184.7091  147.0722 C   0  0  0  0  0  0  0  0  0  0  0  0
  198.2858  184.6723  145.9166 N   0  0  0  0  0  0  0  0  0  0  0  0
  197.1476  183.7866  149.1181 C   0  0  0  0  0  0  0  0  0  0  0  0
  196.9483  183.7921  150.5073 C   0  0  0  0  0  0  0  0  0  0  0  0
  197.5869  184.7601  151.3085 C   0  0  0  0  0  0  0  0  0  0  0  0
  198.6570  186.9225  152.8124 C   0  0  1  0  0  0  0  0  0  0  0  0
  199.4636  185.9796  153.7301 C   0  0  1  0  0  0  0  0  0  0  0  0
  198.9857  186.0319  155.1106 N   0  0  0  0  0  0  0  0  0  0  0  0
  198.2114  185.0872  155.7591 C   0  0  0  0  0  0  0  0  0  0  0  0
  197.9052  183.9531  155.1293 N   0  0  0  0  0  0  0  0  0  0  0  0
  197.1985  183.0405  155.8326 C   0  0  0  0  0  0  0  0  0  0  0  0
  196.8663  181.8570  155.1612 N   0  0  0  0  0  0  0  0  0  0  0  0
  197.4994  180.6036  155.5605 C   0  0  1  0  0  0  0  0  0  0  0  0
  199.0173  180.5732  155.3111 C   0  0  1  0  0  0  0  0  0  0  0  0
  199.6109  179.1981  155.5674 C   0  0  0  0  0  0  0  0  0  0  0  0
  199.5754  178.2222  154.5506 C   0  0  0  0  0  0  0  0  0  0  0  0
  200.1155  176.9436  154.7802 C   0  0  0  0  0  0  0  0  0  0  0  0
  200.7223  176.6357  156.0151 C   0  0  0  0  0  0  0  0  0  0  0  0
  200.7490  177.6083  157.0373 C   0  0  0  0  0  0  0  0  0  0  0  0
  200.1932  178.8838  156.8133 C   0  0  0  0  0  0  0  0  0  0  0  0
  201.3393  175.2643  156.2407 C   0  0  1  0  0  0  0  0  0  0  0  0
  202.7464  175.1877  155.7851 N   0  0  1  0  0  0  0  0  0  0  0  0
  203.3956  173.9238  156.2089 C   0  0  2  0  0  0  0  0  0  0  0  0
  202.9267  175.4170  154.3308 C   0  0  2  0  0  0  0  0  0  0  0  0
  196.7709  183.2910  157.1558 C   0  0  0  0  0  0  0  0  0  0  0  0
  197.1419  184.5402  157.7170 C   0  0  0  0  0  0  0  0  0  0  0  0
  197.8734  185.4202  156.9994 N   0  0  0  0  0  0  0  0  0  0  0  0
  196.7108  184.8434  159.0256 C   0  0  0  0  0  0  0  0  0  0  0  0
  195.9231  183.9334  159.7602 C   0  0  0  0  0  0  0  0  0  0  0  0
  195.5527  182.7032  159.1866 C   0  0  0  0  0  0  0  0  0  0  0  0
  195.9652  182.3839  157.8853 C   0  0  0  0  0  0  0  0  0  0  0  0
  199.2565  186.4759  148.8685 H   0  0  0  0  0  0  0  0  0  0  0  0
  196.6577  183.0428  148.5100 H   0  0  0  0  0  0  0  0  0  0  0  0
  196.3044  183.0713  150.9780 H   0  0  0  0  0  0  0  0  0  0  0  0
  197.4064  184.7228  152.3761 H   0  0  0  0  0  0  0  0  0  0  0  0
  198.8323  187.9638  153.1056 H   0  0  0  0  0  0  0  0  0  0  0  0
  197.6006  186.7024  152.9282 H   0  0  0  0  0  0  0  0  0  0  0  0
  199.4199  184.9534  153.3649 H   0  0  0  0  0  0  0  0  0  0  0  0
  200.5245  186.2505  153.7034 H   0  0  0  0  0  0  0  0  0  0  0  0
  199.1654  186.8752  155.6378 H   0  0  0  0  0  0  0  0  0  0  0  0
  196.4572  181.9396  154.2426 H   0  0  0  0  0  0  0  0  0  0  0  0
  197.3159  180.3859  156.6128 H   0  0  0  0  0  0  0  0  0  0  0  0
  197.0165  179.8030  154.9976 H   0  0  0  0  0  0  0  0  0  0  0  0
  199.2382  180.8584  154.2815 H   0  0  0  0  0  0  0  0  0  0  0  0
  199.5191  181.3020  155.9523 H   0  0  0  0  0  0  0  0  0  0  0  0
  199.1347  178.4489  153.5903 H   0  0  0  0  0  0  0  0  0  0  0  0
  200.0788  176.2088  153.9909 H   0  0  0  0  0  0  0  0  0  0  0  0
  201.1961  177.3880  157.9962 H   0  0  0  0  0  0  0  0  0  0  0  0
  200.2101  179.6173  157.6050 H   0  0  0  0  0  0  0  0  0  0  0  0
  201.3073  175.0472  157.3106 H   0  0  0  0  0  0  0  0  0  0  0  0
  200.7461  174.4961  155.7426 H   0  0  0  0  0  0  0  0  0  0  0  0
  202.9075  173.0555  155.7617 H   0  0  0  0  0  0  0  0  0  0  0  0
  203.3719  173.8134  157.2935 H   0  0  0  0  0  0  0  0  0  0  0  0
  204.4398  173.9026  155.9017 H   0  0  0  0  0  0  0  0  0  0  0  0
  202.3606  174.6852  153.7511 H   0  0  0  0  0  0  0  0  0  0  0  0
  203.9758  175.3382  154.0450 H   0  0  0  0  0  0  0  0  0  0  0  0
  202.6046  176.4159  154.0361 H   0  0  0  0  0  0  0  0  0  0  0  0
  196.9789  185.7943  159.4635 H   0  0  0  0  0  0  0  0  0  0  0  0
  195.6001  184.1752  160.7629 H   0  0  0  0  0  0  0  0  0  0  0  0
  194.9477  181.9938  159.7350 H   0  0  0  0  0  0  0  0  0  0  0  0
  195.6339  181.4488  157.4543 H   0  0  0  0  0  0  0  0  0  0  0  0
  203.2171  175.9477  156.2625 H   0  0  0  0  0  0  0  0  0  0  0  0
  1  2  1  0
  1 10  1  0
  2  3  1  0
  2  9  2  0
  3  4  2  0
  3 36  1  0
  4  5  1  0
  4  7  1  0
  5  6  3  0
  7  8  2  0
  7 37  1  0
  8  9  1  0
  8 38  1  0
  9 39  1  0
 10 11  1  0
 10 40  1  1
 10 41  1  0
 11 12  1  0
 11 42  1  6
 11 43  1  0
 12 13  1  0
 12 44  1  0
 13 14  2  0
 13 31  1  0
 14 15  1  0
 15 16  1  0
 15 29  2  0
 16 17  1  0
 16 45  1  0
 17 18  1  0
 17 46  1  1
 17 47  1  0
 18 19  1  0
 18 48  1  6
 18 49  1  0
 19 20  1  0
 19 24  2  0
 20 21  2  0
 20 50  1  0
 21 22  1  0
 21 51  1  0
 22 23  2  0
 22 25  1  0
 23 24  1  0
 23 52  1  0
 24 53  1  0
 25 26  1  0
 25 54  1  1
 25 55  1  0
 26 27  1  0
 26 28  1  0
 26 66  1  1
 27 56  1  6
 27 57  1  0
 27 58  1  0
 28 59  1  6
 28 60  1  0
 28 61  1  0
 29 30  1  0
 29 35  1  0
 30 31  2  0
 30 32  1  0
 32 33  2  0
 32 62  1  0
 33 34  1  0
 33 63  1  0
 34 35  2  0
 34 64  1  0
 35 65  1  0
M  CHG  1  26   1
M  END
>  <s_epik_cmdline>  (1499) 
J2VwaWtfcHl0aG9uJywgJy1waCcsICc3LjAwMDAwMCcsICctcGh0JywgJzIuMDAwMDAwJywgJy1tcycsICcxNicsICctdG4nLCAnOCcsICctbWEnLCAnMjAwJywgJy1pbWFlJywgJzxpbmZpbGUubWFlPicsICctb21hZScsICc8b3V0ZmlsZS5tYWU+Jw==

>  <s_epik_input>  (1499) 
W2NIXTFbY0hdW2NIXWMoQyNOKVtjSF1jMU9bQ0gyXVtDSDJdW05IXWMobmMoYzIzKVtjSF1bY0hdW2NIXVtjSF0zKW5jMltOSF1bQ0gyXVtDSDJdYzRbY0hdW2NIXWMoW2NIXVtjSF00KVtDSDJdTihbQ0gzXSlbQ0gzXQ==

>  <s_i_glide_gridfile>  (1499) 
ATP-Grid

>  <s_lp_Force_Field>  (1499) 
OPLS_2005

>  <s_lp_Variant>  (1499) 
m_282030aaa____21926476____22360182____21967972-3

>  <s_lp_label>  (1499) 
903_sdstereoexpander_1_neutralizer_1_epik_3_stereoizer_1

>  <s_m_source_file>  (1499) 
ATP-VSW-LIGPREP-001-in.maegz

>  <s_sd_BIOSOLVEIT.INFINISEE\_QUERY\_NAME>  (1499) 
Ref-Lig

>  <s_sd_BIOSOLVEIT.INFINISEE\_QUERY\_SMILES>  (1499) 
S(c1nc2c(cc1C[NH2+]Cc3ccc(cc3)C[NH+](C)C)cccc2)Cc4ccccc4

>  <s_sd_BIOSOLVEIT.INFINISEE\_REACTION\_NAME>  (1499) 
m_282030aaa

>  <s_sd_BIOSOLVEIT.INFINISEE\_REAGENT1\_SMILES>  (1499) 
[R1*]NCCOc1cc(C#N)ccc1

>  <s_sd_BIOSOLVEIT.INFINISEE\_REAGENT2\_SMILES>  (1499) 
[R2*]c1nc([R1*])c2c(n1)cccc2

>  <s_sd_BIOSOLVEIT.INFINISEE\_REAGENT3\_SMILES>  (1499) 
[R2*]NCCc1ccc(cc1)CN(C)C

>  <s_sd_BIOSOLVEIT.INFINISEE\_SPACE>  (1499) 
REALSpace_44bn_2023-08

>  <s_vsw_compound_code>  (1499) 
28865

>  <s_vsw_variant>  (1499) 
28865-3

>  <r_epik_Charging_Adjusted_Penalty>  (1499) 
2.1716830581847999

>  <r_epik_Ionization_Penalty>  (1499) 
2.2974999999999999

>  <r_epik_Ionization_Penalty_Charging>  (1499) 
0.041000000000000002

>  <r_epik_Ionization_Penalty_Neutral>  (1499) 
2.2565

>  <r_epik_State_Penalty>  (1499) 
2.1307

>  <r_i_docking_score>  (1499) 
-2.1871830626455799

>  <r_i_glide_ecoul>  (1499) 
-4.3619351387023899

>  <r_i_glide_eff_state_penalty>  (1499) 
2.1307

>  <r_i_glide_einternal>  (1499) 
12.478452682495099

>  <r_i_glide_emodel>  (1499) 
-56.420453397412501

>  <r_i_glide_energy>  (1499) 
-47.498310565948501

>  <r_i_glide_erotb>  (1499) 
0.92315372883095703

>  <r_i_glide_esite>  (1499) 
-0.047422638724306597

>  <r_i_glide_evdw>  (1499) 
-43.136375427246101

>  <r_i_glide_gscore>  (1499) 
-4.3178830626455804

>  <r_i_glide_hbond>  (1499) 
0

>  <r_i_glide_ligand_efficiency>  (1499) 
-0.0624909446470166

>  <r_i_glide_ligand_efficiency_ln>  (1499) 
-0.48013522416341198

>  <r_i_glide_ligand_efficiency_sa>  (1499) 
-0.20441202348446399

>  <r_i_glide_lipo>  (1499) 
-1.87226730852431

>  <r_i_glide_metal>  (1499) 
-0

>  <r_i_glide_rewards>  (1499) 
-0.51023780206025904

>  <r_lp_Energy>  (1499) 
13.866849999999999

>  <r_qp_ACxDN^.5/SA>  (1499) 
0.0125275

>  <r_qp_CIQPlogS>  (1499) 
-7.016

>  <r_qp_EA(eV)>  (1499) 
0.67600000000000005

>  <r_qp_FISA>  (1499) 
121.879

>  <r_qp_FOSA>  (1499) 
296.52800000000002

>  <r_qp_IP(eV)>  (1499) 
8.1400000000000006

>  <r_qp_Jm>  (1499) 
0.000156824698235141

>  <r_qp_PISA>  (1499) 
400.03199999999998

>  <r_qp_PSA>  (1499) 
78.469999999999999

>  <r_qp_PercentHumanOralAbsorption>  (1499) 
94.778000000000006

>  <r_qp_QPPCaco>  (1499) 
172.59100000000001

>  <r_qp_QPPMDCK>  (1499) 
81.947999999999993

>  <r_qp_QPlogBB>  (1499) 
-1.091

>  <r_qp_QPlogHERG>  (1499) 
-7.6959999999999997

>  <r_qp_QPlogKhsa>  (1499) 
0.76100000000000001

>  <r_qp_QPlogKp>  (1499) 
-3.2669999999999999

>  <r_qp_QPlogPC16>  (1499) 
16.606999999999999

>  <r_qp_QPlogPo/w>  (1499) 
4.7469999999999999

>  <r_qp_QPlogPoct>  (1499) 
24.024000000000001

>  <r_qp_QPlogPw>  (1499) 
12.662000000000001

>  <r_qp_QPlogS>  (1499) 
-6.2060000000000004

>  <r_qp_QPpolrz>  (1499) 
50.866999999999997

>  <r_qp_SASA>  (1499) 
818.44000000000005

>  <r_qp_SAamideO>  (1499) 
0

>  <r_qp_SAfluorine>  (1499) 
0

>  <r_qp_WPSA>  (1499) 
0

>  <r_qp_accptHB>  (1499) 
7.25

>  <r_qp_dip^2/V>  (1499) 
0.024270199999999999

>  <r_qp_dipole>  (1499) 
6.0780000000000003

>  <r_qp_donorHB>  (1499) 
2

>  <r_qp_glob>  (1499) 
0.78180870000000002

>  <r_qp_mol_MW>  (1499) 
466.58499999999998

>  <r_qp_volume>  (1499) 
1521.8910000000001

>  <r_sd_BIOSOLVEIT.INFINISEE\_FTREES\_SIMILARITY>  (1499) 
0.91900000000000004

>  <r_sd_BIOSOLVEIT.LOGP>  (1499) 
3.29148

>  <r_sd_BIOSOLVEIT.MOLECULAR\_WEIGHT>  (1499) 
467.59399999999999

>  <r_sd_BIOSOLVEIT.TPSA>  (1499) 
87.299999999999997

>  <i_epik_Tot_Q>  (1499) 
1

>  <i_epik_Tot_abs_Q>  (1499) 
1

>  <i_f3d_flags>  (1499) 
0

>  <i_i_glide_confnum>  (1499) 
3

>  <i_i_glide_lignum>  (1499) 
160

>  <i_i_glide_posenum>  (1499) 
12

>  <i_i_glide_rotatable_bonds>  (1499) 
11

>  <i_lp_mmshare_version>  (1499) 
65135

>  <i_m_ct_format>  (1499) 
2

>  <i_m_source_file_index>  (1499) 
903

>  <i_qp_#NandO>  (1499) 
7

>  <i_qp_#acid>  (1499) 
0

>  <i_qp_#amide>  (1499) 
0

>  <i_qp_#amidine>  (1499) 
0

>  <i_qp_#amine>  (1499) 
1

>  <i_qp_#in34>  (1499) 
0

>  <i_qp_#in56>  (1499) 
22

>  <i_qp_#metab>  (1499) 
4

>  <i_qp_#nonHatm>  (1499) 
35

>  <i_qp_#noncon>  (1499) 
0

>  <i_qp_#ringatoms>  (1499) 
22

>  <i_qp_#rotor>  (1499) 
12

>  <i_qp_#rtvFG>  (1499) 
0

>  <i_qp_#stars>  (1499) 
0

>  <i_qp_CNS>  (1499) 
-2

>  <i_qp_HumanOralAbsorption>  (1499) 
1

>  <i_qp_RuleOfFive>  (1499) 
0

>  <i_qp_RuleOfThree>  (1499) 
1

>  <i_sd_BIOSOLVEIT.INFINISEE\_REAGENT1\_NAME>  (1499) 
21926476

>  <i_sd_BIOSOLVEIT.INFINISEE\_REAGENT2\_NAME>  (1499) 
22360182

>  <i_sd_BIOSOLVEIT.INFINISEE\_REAGENT3\_NAME>  (1499) 
21967972

>  <i_sd_BIOSOLVEIT.INFINISEE\_RESULT\_RANK>  (1499) 
19001

>  <i_sd_version>  (1499) 
0

>  <b_lp_Chiralities_Consistent>  (1499) 
1

>  <b_sd_chiral_flag>  (1499) 
0

>  <canonical_id>  (1499) 
ATP-HTVS-EBCFEAF5D9E7

>  <compound_code>  (1499) 
28865

>  <title>  (1499) 
m_282030aaa____21926476____22360182____21967972

>  <variant>  (1499) 
28865-3

>  <source_file>  (1499) 
运行/运行/ATP-VSW/ATP-VSW-DOCK_HTVS_1-001_lib/ATP-VSW-DOCK_HTVS_1-001_lib

>  <canonical_smiles>  (1499) 
C[NH+](C)Cc1ccc(CCNc2nc(NCCOc3cccc(C#N)c3)nc3ccccc23)cc1

>  <scaffold>  (1499) 
c1ccc(CCNc2nc(NCCOc3ccccc3)nc3ccccc23)cc1

>  <molecular_formula>  (1499) 
C28H31N6O+

$$$$
ATP-HTVS-EBFF1A375D8B
     RDKit          3D

 64 67  0  0  0  0  0  0  0  0999 V2000
  198.9260  182.6024  154.7547 O   0  0  0  0  0  0  0  0  0  0  0  0
  199.0325  181.7277  155.6009 C   0  0  0  0  0  0  0  0  0  0  0  0
  198.7352  181.9451  156.8946 N   0  0  0  0  0  0  0  0  0  0  0  0
  198.4767  183.2825  157.4420 C   0  0  1  0  0  0  0  0  0  0  0  0
  197.1072  183.3343  158.0303 C   0  0  0  0  0  0  0  0  0  0  0  0
  196.5030  184.5866  158.2888 C   0  0  0  0  0  0  0  0  0  0  0  0
  195.2333  184.6736  158.8883 C   0  0  0  0  0  0  0  0  0  0  0  0
  194.5249  183.5020  159.2012 C   0  0  0  0  0  0  0  0  0  0  0  0
  195.0909  182.2471  158.9267 C   0  0  0  0  0  0  0  0  0  0  0  0
  196.3651  182.1712  158.3498 C   0  0  0  0  0  0  0  0  0  0  0  0
  199.4751  183.5809  158.5595 C   0  0  0  0  0  0  0  0  0  0  0  0
  199.2191  183.4371  159.7506 O   0  0  0  0  0  0  0  0  0  0  0  0
  200.8798  183.9964  158.1600 C   0  0  2  0  0  0  0  0  0  0  0  0
  199.5785  180.3881  155.2690 C   0  0  0  0  0  0  0  0  0  0  0  0
  199.3985  179.3367  156.1747 N   0  0  0  0  0  0  0  0  0  0  0  0
  200.0086  178.1744  155.7459 C   0  0  0  0  0  0  0  0  0  0  0  0
  200.6157  178.4926  154.5001 C   0  0  0  0  0  0  0  0  0  0  0  0
  201.3071  177.4325  153.8482 C   0  0  0  0  0  0  0  0  0  0  0  0
  201.3714  176.1349  154.4067 C   0  0  0  0  0  0  0  0  0  0  0  0
  200.7559  175.8614  155.6423 C   0  0  0  0  0  0  0  0  0  0  0  0
  200.0701  176.8911  156.3133 C   0  0  0  0  0  0  0  0  0  0  0  0
  200.3363  179.8873  154.2150 C   0  0  0  0  0  0  0  0  0  0  0  0
  200.8352  180.5265  153.0474 N   0  0  0  0  0  0  0  0  0  0  0  0
  200.0514  181.5254  152.3037 C   0  0  1  0  0  0  0  0  0  0  0  0
  198.7760  180.9248  151.7084 C   0  0  0  0  0  0  0  0  0  0  0  0
  198.9036  179.8928  150.7495 C   0  0  0  0  0  0  0  0  0  0  0  0
  197.7662  179.2622  150.2049 C   0  0  0  0  0  0  0  0  0  0  0  0
  196.4780  179.7196  150.5791 C   0  0  0  0  0  0  0  0  0  0  0  0
  196.3440  180.7683  151.5142 C   0  0  0  0  0  0  0  0  0  0  0  0
  197.4841  181.3551  152.1007 C   0  0  0  0  0  0  0  0  0  0  0  0
  197.9469  178.1124  149.2198 C   0  0  1  0  0  0  0  0  0  0  0  0
  198.5229  176.8784  149.7816 N   0  0  0  0  0  0  0  0  0  0  0  0
  198.5454  175.8444  148.7490 C   0  0  2  0  0  0  0  0  0  0  0  0
  199.8978  177.0592  150.2593 C   0  0  2  0  0  0  0  0  0  0  0  0
  198.6787  181.1580  157.5585 H   0  0  0  0  0  0  0  0  0  0  0  0
  198.5718  184.0608  156.6852 H   0  0  0  0  0  0  0  0  0  0  0  0
  197.0329  185.4981  158.0457 H   0  0  0  0  0  0  0  0  0  0  0  0
  194.7954  185.6385  159.0915 H   0  0  0  0  0  0  0  0  0  0  0  0
  193.5440  183.5687  159.6387 H   0  0  0  0  0  0  0  0  0  0  0  0
  194.5778  181.3286  159.1711 H   0  0  0  0  0  0  0  0  0  0  0  0
  196.7604  181.1789  158.1901 H   0  0  0  0  0  0  0  0  0  0  0  0
  201.1901  183.5100  157.2318 H   0  0  0  0  0  0  0  0  0  0  0  0
  201.5778  183.7171  158.9492 H   0  0  0  0  0  0  0  0  0  0  0  0
  200.9165  185.0765  158.0309 H   0  0  0  0  0  0  0  0  0  0  0  0
  198.8399  179.3678  157.0183 H   0  0  0  0  0  0  0  0  0  0  0  0
  201.7878  177.6085  152.8982 H   0  0  0  0  0  0  0  0  0  0  0  0
  201.8879  175.3335  153.8903 H   0  0  0  0  0  0  0  0  0  0  0  0
  200.8028  174.8683  156.0697 H   0  0  0  0  0  0  0  0  0  0  0  0
  199.5742  176.6932  157.2551 H   0  0  0  0  0  0  0  0  0  0  0  0
  201.4934  179.9583  152.5078 H   0  0  0  0  0  0  0  0  0  0  0  0
  199.8523  182.4066  152.8670 H   0  0  0  0  0  0  0  0  0  0  0  0
  200.6752  181.8308  151.4383 H   0  0  0  0  0  0  0  0  0  0  0  0
  199.8906  179.5654  150.4632 H   0  0  0  0  0  0  0  0  0  0  0  0
  195.5882  179.2783  150.1351 H   0  0  0  0  0  0  0  0  0  0  0  0
  195.3585  181.1397  151.7673 H   0  0  0  0  0  0  0  0  0  0  0  0
  197.3549  182.1640  152.8224 H   0  0  0  0  0  0  0  0  0  0  0  0
  196.9688  177.8870  148.7902 H   0  0  0  0  0  0  0  0  0  0  0  0
  198.5604  178.4737  148.3907 H   0  0  0  0  0  0  0  0  0  0  0  0
  198.9972  174.9374  149.1464 H   0  0  0  0  0  0  0  0  0  0  0  0
  199.1229  176.1592  147.8801 H   0  0  0  0  0  0  0  0  0  0  0  0
  197.5468  175.5899  148.4150 H   0  0  0  0  0  0  0  0  0  0  0  0
  200.3515  176.0807  150.5314 H   0  0  0  0  0  0  0  0  0  0  0  0
  199.9316  177.7544  151.0829 H   0  0  0  0  0  0  0  0  0  0  0  0
  200.5006  177.4757  149.4467 H   0  0  0  0  0  0  0  0  0  0  0  0
  1  2  2  0
  2  3  1  0
  2 14  1  0
  3  4  1  0
  3 35  1  0
  4  5  1  0
  4 11  1  0
  4 36  1  6
  5  6  2  0
  5 10  1  0
  6  7  1  0
  6 37  1  0
  7  8  2  0
  7 38  1  0
  8  9  1  0
  8 39  1  0
  9 10  2  0
  9 40  1  0
 10 41  1  0
 11 12  2  0
 11 13  1  0
 13 42  1  6
 13 43  1  0
 13 44  1  0
 14 15  1  0
 14 22  2  0
 15 16  1  0
 15 45  1  0
 16 17  1  0
 16 21  2  0
 17 18  2  0
 17 22  1  0
 18 19  1  0
 18 46  1  0
 19 20  2  0
 19 47  1  0
 20 21  1  0
 20 48  1  0
 21 49  1  0
 22 23  1  0
 23 24  1  0
 23 50  1  0
 24 25  1  0
 24 51  1  1
 24 52  1  0
 25 26  2  0
 25 30  1  0
 26 27  1  0
 26 53  1  0
 27 28  2  0
 27 31  1  0
 28 29  1  0
 28 54  1  0
 29 30  2  0
 29 55  1  0
 30 56  1  0
 31 32  1  0
 31 57  1  6
 31 58  1  0
 32 33  1  0
 32 34  1  0
 33 59  1  1
 33 60  1  0
 33 61  1  0
 34 62  1  1
 34 63  1  0
 34 64  1  0
M  END
>  <s_epik_cmdline>  (1500) 
J2VwaWtfcHl0aG9uJywgJy1waCcsICc3LjAwMDAwMCcsICctcGh0JywgJzIuMDAwMDAwJywgJy1tcycsICcxNicsICctdG4nLCAnOCcsICctbWEnLCAnMjAwJywgJy1pbWFlJywgJzxpbmZpbGUubWFlPicsICctb21hZScsICc8b3V0ZmlsZS5tYWU+Jw==

>  <s_epik_input>  (1500) 
W2NIXTFbY0hdW2NIXVtjSF1bY0hdYzFbQ0BASF0oQyg9TylbQ0gzXSlbTkhdQyg9TyljKFtuSF0yKWMoYyhjMjMpW2NIXVtjSF1bY0hdW2NIXTMpW05IXVtDSDJdYzRbY0hdYyhbY0hdW2NIXVtjSF00KVtDSDJdTihbQ0gzXSlbQ0gzXQ==

>  <s_i_glide_gridfile>  (1500) 
ATP-Grid

>  <s_lp_Force_Field>  (1500) 
OPLS_2005

>  <s_lp_Variant>  (1500) 
rxn512b____EMOL725587____EMOL719673____EMOL2873214-4

>  <s_lp_label>  (1500) 
2418_sdstereoexpander_2_neutralizer_1_epik_2_stereoizer_1

>  <s_m_source_file>  (1500) 
ATP-VSW-LIGPREP-003-in.maegz

>  <s_sd_BIOSOLVEIT.INFINISEE\_QUERY\_NAME>  (1500) 
Ref-Lig

>  <s_sd_BIOSOLVEIT.INFINISEE\_QUERY\_SMILES>  (1500) 
S(c1nc2c(cc1C[NH2+]Cc3ccc(cc3)C[NH+](C)C)cccc2)Cc4ccccc4

>  <s_sd_BIOSOLVEIT.INFINISEE\_REACTION\_NAME>  (1500) 
rxn512b

>  <s_sd_BIOSOLVEIT.INFINISEE\_REAGENT1\_NAME>  (1500) 
EMOL725587

>  <s_sd_BIOSOLVEIT.INFINISEE\_REAGENT1\_SMILES>  (1500) 
O=C(C(N)c1ccccc1)C

>  <s_sd_BIOSOLVEIT.INFINISEE\_REAGENT2\_NAME>  (1500) 
EMOL719673

>  <s_sd_BIOSOLVEIT.INFINISEE\_REAGENT2\_SMILES>  (1500) 
BrC=1c2c(NC1C(=O)O)cccc2

>  <s_sd_BIOSOLVEIT.INFINISEE\_REAGENT3\_NAME>  (1500) 
EMOL2873214

>  <s_sd_BIOSOLVEIT.INFINISEE\_REAGENT3\_SMILES>  (1500) 
N(Cc1cc(ccc1)CN)(C)C

>  <s_sd_BIOSOLVEIT.INFINISEE\_SPACE>  (1500) 
eXplore_7tr_2022-12

>  <s_vsw_compound_code>  (1500) 
77347

>  <s_vsw_variant>  (1500) 
77347-4

>  <r_epik_Charging_Adjusted_Penalty>  (1500) 
1.5727818128328499

>  <r_epik_Ionization_Penalty>  (1500) 
1.5728

>  <r_epik_Ionization_Penalty_Charging>  (1500) 
0

>  <r_epik_Ionization_Penalty_Neutral>  (1500) 
1.5728

>  <r_epik_State_Penalty>  (1500) 
1.5728

>  <r_i_docking_score>  (1500) 
-1.94035670481426

>  <r_i_glide_ecoul>  (1500) 
-3.7465991973877002

>  <r_i_glide_eff_state_penalty>  (1500) 
1.5728

>  <r_i_glide_einternal>  (1500) 
4.6778721809387198

>  <r_i_glide_emodel>  (1500) 
-46.175851208377303

>  <r_i_glide_energy>  (1500) 
-39.292318344116197

>  <r_i_glide_erotb>  (1500) 
0.68032817308906901

>  <r_i_glide_esite>  (1500) 
-0.095736305721891707

>  <r_i_glide_evdw>  (1500) 
-35.545719146728501

>  <r_i_glide_gscore>  (1500) 
-3.5131567048142598

>  <r_i_glide_hbond>  (1500) 
-0.00818197152149709

>  <r_i_glide_ligand_efficiency>  (1500) 
-0.057069314847478202

>  <r_i_glide_ligand_efficiency_ln>  (1500) 
-0.42867922125553698

>  <r_i_glide_ligand_efficiency_sa>  (1500) 
-0.18488242565339

>  <r_i_glide_lipo>  (1500) 
-1.3535304507899999

>  <r_i_glide_metal>  (1500) 
-0

>  <r_i_glide_rewards>  (1500) 
-0.39676031292536101

>  <r_lp_Energy>  (1500) 
22.212716

>  <r_lp_tautomer_probability>  (1500) 
0.99999996999999996

>  <r_qp_ACxDN^.5/SA>  (1500) 
0.0079477999999999997

>  <r_qp_CIQPlogS>  (1500) 
-5.3109999999999999

>  <r_qp_EA(eV)>  (1500) 
0.34399999999999997

>  <r_qp_FISA>  (1500) 
100.54900000000001

>  <r_qp_FOSA>  (1500) 
287.32100000000003

>  <r_qp_IP(eV)>  (1500) 
7.7359999999999998

>  <r_qp_Jm>  (1500) 
3.8387648522455197e-05

>  <r_qp_PISA>  (1500) 
420.99200000000002

>  <r_qp_PSA>  (1500) 
92.376999999999995

>  <r_qp_PercentHumanOralAbsorption>  (1500) 
88.941999999999993

>  <r_qp_QPPCaco>  (1500) 
68.578999999999994

>  <r_qp_QPPMDCK>  (1500) 
33.433

>  <r_qp_QPlogBB>  (1500) 
-0.27800000000000002

>  <r_qp_QPlogHERG>  (1500) 
-8.5180000000000007

>  <r_qp_QPlogKhsa>  (1500) 
1.1539999999999999

>  <r_qp_QPlogKp>  (1500) 
-5.1509999999999998

>  <r_qp_QPlogPC16>  (1500) 
16.196000000000002

>  <r_qp_QPlogPo/w>  (1500) 
4.9749999999999996

>  <r_qp_QPlogPoct>  (1500) 
22.388000000000002

>  <r_qp_QPlogPw>  (1500) 
10.723000000000001

>  <r_qp_QPlogS>  (1500) 
-4.923

>  <r_qp_QPpolrz>  (1500) 
51.957000000000001

>  <r_qp_SASA>  (1500) 
808.86199999999997

>  <r_qp_SAamideO>  (1500) 
0

>  <r_qp_SAfluorine>  (1500) 
0

>  <r_qp_WPSA>  (1500) 
0

>  <r_qp_accptHB>  (1500) 
5.75

>  <r_qp_dip^2/V>  (1500) 
0.0141855

>  <r_qp_dipole>  (1500) 
4.6070000000000002

>  <r_qp_donorHB>  (1500) 
1.25

>  <r_qp_glob>  (1500) 
0.7820646

>  <r_qp_mol_MW>  (1500) 
454.57100000000003

>  <r_qp_volume>  (1500) 
1495.989

>  <r_sd_BIOSOLVEIT.INFINISEE\_FTREES\_SIMILARITY>  (1500) 
0.91700000000000004

>  <r_sd_BIOSOLVEIT.LOGP>  (1500) 
3.4845999999999999

>  <r_sd_BIOSOLVEIT.MOLECULAR\_WEIGHT>  (1500) 
455.57900000000001

>  <r_sd_BIOSOLVEIT.TPSA>  (1500) 
78.430000000000007

>  <i_epik_Tot_Q>  (1500) 
0

>  <i_epik_Tot_abs_Q>  (1500) 
0

>  <i_f3d_flags>  (1500) 
0

>  <i_i_glide_confnum>  (1500) 
11

>  <i_i_glide_lignum>  (1500) 
1032

>  <i_i_glide_posenum>  (1500) 
3

>  <i_i_glide_rotatable_bonds>  (1500) 
10

>  <i_lp_mmshare_version>  (1500) 
65135

>  <i_m_ct_format>  (1500) 
2

>  <i_m_source_file_index>  (1500) 
2418

>  <i_qp_#NandO>  (1500) 
6

>  <i_qp_#acid>  (1500) 
0

>  <i_qp_#amide>  (1500) 
0

>  <i_qp_#amidine>  (1500) 
0

>  <i_qp_#amine>  (1500) 
2

>  <i_qp_#in34>  (1500) 
0

>  <i_qp_#in56>  (1500) 
21

>  <i_qp_#metab>  (1500) 
7

>  <i_qp_#nonHatm>  (1500) 
34

>  <i_qp_#noncon>  (1500) 
0

>  <i_qp_#ringatoms>  (1500) 
21

>  <i_qp_#rotor>  (1500) 
9

>  <i_qp_#rtvFG>  (1500) 
1

>  <i_qp_#stars>  (1500) 
1

>  <i_qp_CNS>  (1500) 
1

>  <i_qp_HumanOralAbsorption>  (1500) 
3

>  <i_qp_RuleOfFive>  (1500) 
0

>  <i_qp_RuleOfThree>  (1500) 
1

>  <i_sd_BIOSOLVEIT.INFINISEE\_RESULT\_RANK>  (1500) 
22246

>  <i_sd_version>  (1500) 
0

>  <b_lp_Chiralities_Consistent>  (1500) 
1

>  <b_sd_chiral_flag>  (1500) 
0

>  <canonical_id>  (1500) 
ATP-HTVS-EBFF1A375D8B

>  <compound_code>  (1500) 
77347

>  <title>  (1500) 
rxn512b____EMOL725587____EMOL719673____EMOL2873214

>  <variant>  (1500) 
77347-4

>  <source_file>  (1500) 
运行/运行/ATP-VSW/ATP-VSW-DOCK_HTVS_1-003_lib/ATP-VSW-DOCK_HTVS_1-003_lib.mae

>  <canonical_smiles>  (1500) 
CC(=O)[C@@H](NC(=O)c1[nH]c2ccccc2c1NCc1cccc(CN(C)C)c1)c1ccccc1

>  <scaffold>  (1500) 
O=C(NCc1ccccc1)c1[nH]c2ccccc2c1NCc1ccccc1

>  <molecular_formula>  (1500) 
C28H30N4O2

$$$$
ATP-HTVS-EC2D3AD3168F
     RDKit          3D

 62 65  0  0  0  0  0  0  0  0999 V2000
  199.0079  181.7654  154.1283 O   0  0  0  0  0  0  0  0  0  0  0  0
  198.2305  180.9736  154.6565 C   0  0  0  0  0  0  0  0  0  0  0  0
  198.5042  180.3661  155.8246 N   0  0  0  0  0  0  0  0  0  0  0  0
  199.7208  180.5207  156.5576 C   0  0  0  0  0  0  0  0  0  0  0  0
  200.2182  181.7744  157.0109 C   0  0  0  0  0  0  0  0  0  0  0  0
  199.5079  182.9383  156.7304 N   0  0  0  0  0  0  0  0  0  0  0  0
  198.7525  183.4668  157.8603 C   0  0  1  0  0  0  0  0  0  0  0  0
  197.2507  183.5799  157.5264 C   0  0  1  0  0  0  0  0  0  0  0  0
  196.5129  184.4890  158.5016 C   0  0  0  0  0  0  0  0  0  0  0  0
  196.9794  185.8006  158.7329 C   0  0  0  0  0  0  0  0  0  0  0  0
  196.3245  186.6406  159.6483 C   0  0  0  0  0  0  0  0  0  0  0  0
  195.1658  186.2049  160.3340 C   0  0  0  0  0  0  0  0  0  0  0  0
  194.5136  187.0400  161.2678 N   0  0  0  0  0  0  0  0  0  0  0  0
  195.1266  188.3055  161.6531 C   0  0  2  0  0  0  0  0  0  0  0  0
  193.1462  186.7461  161.6828 C   0  0  2  0  0  0  0  0  0  0  0  0
  194.6795  184.9053  160.0553 C   0  0  0  0  0  0  0  0  0  0  0  0
  195.3459  184.0508  159.1568 C   0  0  0  0  0  0  0  0  0  0  0  0
  201.4218  181.8275  157.7560 C   0  0  0  0  0  0  0  0  0  0  0  0
  202.1049  180.6228  158.0405 C   0  0  0  0  0  0  0  0  0  0  0  0
  201.5922  179.4524  157.5892 N   0  0  0  0  0  0  0  0  0  0  0  0
  200.4442  179.3638  156.8843 C   0  0  0  0  0  0  0  0  0  0  0  0
  203.3022  180.6376  158.7900 C   0  0  0  0  0  0  0  0  0  0  0  0
  203.8183  181.8623  159.2665 C   0  0  0  0  0  0  0  0  0  0  0  0
  203.1513  183.0679  158.9776 C   0  0  0  0  0  0  0  0  0  0  0  0
  201.9681  183.0499  158.2179 C   0  0  0  0  0  0  0  0  0  0  0  0
  196.8837  180.6610  153.9733 C   0  0  1  0  0  0  0  0  0  0  0  0
  196.9877  180.5615  152.4434 C   0  0  0  0  0  0  0  0  0  0  0  0
  197.0598  181.6995  151.5819 C   0  0  0  0  0  0  0  0  0  0  0  0
  197.0735  183.0718  152.0737 C   0  0  0  0  0  0  0  0  0  0  0  0
  197.0940  184.1659  152.4544 N   0  0  0  0  0  0  0  0  0  0  0  0
  197.1475  181.5166  150.1857 C   0  0  0  0  0  0  0  0  0  0  0  0
  197.1510  180.2275  149.6294 C   0  0  0  0  0  0  0  0  0  0  0  0
  197.0838  179.1053  150.4653 C   0  0  0  0  0  0  0  0  0  0  0  0
  196.9923  179.2737  151.8598 C   0  0  0  0  0  0  0  0  0  0  0  0
  197.8695  179.6456  156.1474 H   0  0  0  0  0  0  0  0  0  0  0  0
  198.9618  182.8469  155.8807 H   0  0  0  0  0  0  0  0  0  0  0  0
  198.8778  182.8846  158.7692 H   0  0  0  0  0  0  0  0  0  0  0  0
  199.1730  184.4454  158.0657 H   0  0  0  0  0  0  0  0  0  0  0  0
  197.0790  183.9801  156.5331 H   0  0  0  0  0  0  0  0  0  0  0  0
  196.8037  182.5842  157.5282 H   0  0  0  0  0  0  0  0  0  0  0  0
  197.8504  186.1770  158.2171 H   0  0  0  0  0  0  0  0  0  0  0  0
  196.7321  187.6307  159.7939 H   0  0  0  0  0  0  0  0  0  0  0  0
  195.2725  188.9744  160.8057 H   0  0  0  0  0  0  0  0  0  0  0  0
  196.1031  188.1123  162.0991 H   0  0  0  0  0  0  0  0  0  0  0  0
  194.5059  188.8350  162.3775 H   0  0  0  0  0  0  0  0  0  0  0  0
  193.1105  185.8467  162.2862 H   0  0  0  0  0  0  0  0  0  0  0  0
  192.4908  186.6192  160.8197 H   0  0  0  0  0  0  0  0  0  0  0  0
  192.7383  187.5493  162.2963 H   0  0  0  0  0  0  0  0  0  0  0  0
  193.7777  184.5410  160.5233 H   0  0  0  0  0  0  0  0  0  0  0  0
  194.9515  183.0588  158.9766 H   0  0  0  0  0  0  0  0  0  0  0  0
  200.1162  178.3752  156.5836 H   0  0  0  0  0  0  0  0  0  0  0  0
  203.8411  179.7327  158.9916 H   0  0  0  0  0  0  0  0  0  0  0  0
  204.7352  181.8732  159.8355 H   0  0  0  0  0  0  0  0  0  0  0  0
  203.5618  184.0050  159.3246 H   0  0  0  0  0  0  0  0  0  0  0  0
  201.4818  183.9893  157.9990 H   0  0  0  0  0  0  0  0  0  0  0  0
  196.5104  179.7161  154.3539 H   0  0  0  0  0  0  0  0  0  0  0  0
  196.1412  181.4035  154.2502 H   0  0  0  0  0  0  0  0  0  0  0  0
  197.2052  182.3704  149.5244 H   0  0  0  0  0  0  0  0  0  0  0  0
  197.2067  180.0849  148.5592 H   0  0  0  0  0  0  0  0  0  0  0  0
  197.0890  178.1198  150.0258 H   0  0  0  0  0  0  0  0  0  0  0  0
  196.9292  178.3957  152.4844 H   0  0  0  0  0  0  0  0  0  0  0  0
  202.1018  178.5939  157.7883 H   0  0  0  0  0  0  0  0  0  0  0  0
  1  2  2  0
  2  3  1  0
  2 26  1  0
  3  4  1  0
  3 35  1  0
  4  5  2  0
  4 21  1  0
  5  6  1  0
  5 18  1  0
  6  7  1  0
  6 36  1  0
  7  8  1  0
  7 37  1  1
  7 38  1  0
  8  9  1  0
  8 39  1  6
  8 40  1  0
  9 10  1  0
  9 17  2  0
 10 11  2  0
 10 41  1  0
 11 12  1  0
 11 42  1  0
 12 13  1  0
 12 16  2  0
 13 14  1  0
 13 15  1  0
 14 43  1  6
 14 44  1  0
 14 45  1  0
 15 46  1  1
 15 47  1  0
 15 48  1  0
 16 17  1  0
 16 49  1  0
 17 50  1  0
 18 19  1  0
 18 25  2  0
 19 20  1  0
 19 22  2  0
 20 21  2  0
 20 62  1  0
 21 51  1  0
 22 23  1  0
 22 52  1  0
 23 24  2  0
 23 53  1  0
 24 25  1  0
 24 54  1  0
 25 55  1  0
 26 27  1  0
 26 56  1  1
 26 57  1  0
 27 28  1  0
 27 34  2  0
 28 29  1  0
 28 31  2  0
 29 30  3  0
 31 32  1  0
 31 58  1  0
 32 33  2  0
 32 59  1  0
 33 34  1  0
 33 60  1  0
 34 61  1  0
M  CHG  1  20   1
M  END
>  <s_epik_cmdline>  (1501) 
J2VwaWtfcHl0aG9uJywgJy1waCcsICc3LjAwMDAwMCcsICctcGh0JywgJzIuMDAwMDAwJywgJy1tcycsICcxNicsICctdG4nLCAnOCcsICctbWEnLCAnMjAwJywgJy1pbWFlJywgJzxpbmZpbGUubWFlPicsICctb21hZScsICc8b3V0ZmlsZS5tYWU+Jw==

>  <s_epik_input>  (1501) 
W2NIXTFbY0hdW2NIXVtjSF1jKEMjTiljMVtDSDJdQyg9TylbTkhdYyhbY0hdbmMoYzIzKVtjSF1bY0hdW2NIXVtjSF0zKWMyW05IXVtDSDJdW0NIMl1jNFtjSF1bY0hdYyhOKFtDSDNdKVtDSDNdKVtjSF1bY0hdNA==

>  <s_i_glide_gridfile>  (1501) 
ATP-Grid

>  <s_lp_Force_Field>  (1501) 
OPLS_2005

>  <s_lp_Variant>  (1501) 
rxn502b____EMOL3801098____EMOL30488121____EMOL109645890-1

>  <s_lp_label>  (1501) 
2601_sdstereoexpander_1_neutralizer_1_epik_1_stereoizer_1

>  <s_m_source_file>  (1501) 
ATP-VSW-LIGPREP-001-in.maegz

>  <s_sd_BIOSOLVEIT.INFINISEE\_QUERY\_NAME>  (1501) 
Ref-Lig

>  <s_sd_BIOSOLVEIT.INFINISEE\_QUERY\_SMILES>  (1501) 
S(c1nc2c(cc1C[NH2+]Cc3ccc(cc3)C[NH+](C)C)cccc2)Cc4ccccc4

>  <s_sd_BIOSOLVEIT.INFINISEE\_REACTION\_NAME>  (1501) 
rxn502b

>  <s_sd_BIOSOLVEIT.INFINISEE\_REAGENT1\_NAME>  (1501) 
EMOL3801098

>  <s_sd_BIOSOLVEIT.INFINISEE\_REAGENT1\_SMILES>  (1501) 
O=C(O)Cc1c(C#N)cccc1

>  <s_sd_BIOSOLVEIT.INFINISEE\_REAGENT2\_NAME>  (1501) 
EMOL30488121

>  <s_sd_BIOSOLVEIT.INFINISEE\_REAGENT2\_SMILES>  (1501) 
Brc1c(N)cnc2c1cccc2

>  <s_sd_BIOSOLVEIT.INFINISEE\_REAGENT3\_NAME>  (1501) 
EMOL109645890

>  <s_sd_BIOSOLVEIT.INFINISEE\_REAGENT3\_SMILES>  (1501) 
N(c1ccc(cc1)CCN)(C)C

>  <s_sd_BIOSOLVEIT.INFINISEE\_SPACE>  (1501) 
eXplore_7tr_2022-12

>  <s_vsw_compound_code>  (1501) 
83201

>  <s_vsw_variant>  (1501) 
83201-1

>  <r_epik_Charging_Adjusted_Penalty>  (1501) 
0.078336884153070802

>  <r_epik_Ionization_Penalty>  (1501) 
0.053400000000000003

>  <r_epik_Ionization_Penalty_Charging>  (1501) 
0.024899999999999999

>  <r_epik_Ionization_Penalty_Neutral>  (1501) 
0.028400000000000002

>  <r_epik_State_Penalty>  (1501) 
0.053400000000000003

>  <r_i_docking_score>  (1501) 
-4.9021885860031702

>  <r_i_glide_ecoul>  (1501) 
-7.4223971366882298

>  <r_i_glide_eff_state_penalty>  (1501) 
0.053400000000000003

>  <r_i_glide_einternal>  (1501) 
7.9400067329406703

>  <r_i_glide_emodel>  (1501) 
-57.825760492782102

>  <r_i_glide_energy>  (1501) 
-44.531013011932401

>  <r_i_glide_erotb>  (1501) 
0.79014693918398604

>  <r_i_glide_esite>  (1501) 
-0.095639820808215301

>  <r_i_glide_evdw>  (1501) 
-37.108615875244098

>  <r_i_glide_gscore>  (1501) 
-4.9555885860031701

>  <r_i_glide_hbond>  (1501) 
0

>  <r_i_glide_ligand_efficiency>  (1501) 
-0.14418201723538701

>  <r_i_glide_ligand_efficiency_ln>  (1501) 
-1.08303096038044

>  <r_i_glide_ligand_efficiency_sa>  (1501) 
-0.467093764018707

>  <r_i_glide_lipo>  (1501) 
-1.9080235363843601

>  <r_i_glide_metal>  (1501) 
-0

>  <r_i_glide_rewards>  (1501) 
-0.77328180372913802

>  <r_lp_Energy>  (1501) 
36.399233000000002

>  <r_qp_ACxDN^.5/SA>  (1501) 
0.013194900000000001

>  <r_qp_CIQPlogS>  (1501) 
-7.8200000000000003

>  <r_qp_EA(eV)>  (1501) 
0.94499999999999995

>  <r_qp_FISA>  (1501) 
134.648

>  <r_qp_FOSA>  (1501) 
216.12799999999999

>  <r_qp_IP(eV)>  (1501) 
8.1929999999999996

>  <r_qp_Jm>  (1501) 
0.00126836071722479

>  <r_qp_PISA>  (1501) 
399.47399999999999

>  <r_qp_PSA>  (1501) 
85.185000000000002

>  <r_qp_PercentHumanOralAbsorption>  (1501) 
100

>  <r_qp_QPPCaco>  (1501) 
523.64200000000005

>  <r_qp_QPPMDCK>  (1501) 
245.84399999999999

>  <r_qp_QPlogBB>  (1501) 
-1.331

>  <r_qp_QPlogHERG>  (1501) 
-6.4359999999999999

>  <r_qp_QPlogKhsa>  (1501) 
0.69099999999999995

>  <r_qp_QPlogKp>  (1501) 
-1.73

>  <r_qp_QPlogPC16>  (1501) 
15.621

>  <r_qp_QPlogPo/w>  (1501) 
4.6769999999999996

>  <r_qp_QPlogPoct>  (1501) 
24.814

>  <r_qp_QPlogPw>  (1501) 
12.997

>  <r_qp_QPlogS>  (1501) 
-6.8200000000000003

>  <r_qp_QPpolrz>  (1501) 
48.743000000000002

>  <r_qp_SASA>  (1501) 
750.25

>  <r_qp_SAamideO>  (1501) 
0

>  <r_qp_SAfluorine>  (1501) 
0

>  <r_qp_WPSA>  (1501) 
0

>  <r_qp_accptHB>  (1501) 
7

>  <r_qp_dip^2/V>  (1501) 
0.12528010000000001

>  <r_qp_dipole>  (1501) 
13.342000000000001

>  <r_qp_donorHB>  (1501) 
2

>  <r_qp_glob>  (1501) 
0.81467049999999996

>  <r_qp_mol_MW>  (1501) 
449.55399999999997

>  <r_qp_volume>  (1501) 
1420.8040000000001

>  <r_sd_BIOSOLVEIT.INFINISEE\_FTREES\_SIMILARITY>  (1501) 
0.91100000000000003

>  <r_sd_BIOSOLVEIT.LOGP>  (1501) 
5.0082800000000001

>  <r_sd_BIOSOLVEIT.MOLECULAR\_WEIGHT>  (1501) 
449.55500000000001

>  <r_sd_BIOSOLVEIT.TPSA>  (1501) 
81.049999999999997

>  <i_epik_Tot_Q>  (1501) 
1

>  <i_epik_Tot_abs_Q>  (1501) 
1

>  <i_f3d_flags>  (1501) 
0

>  <i_i_glide_confnum>  (1501) 
12

>  <i_i_glide_lignum>  (1501) 
1084

>  <i_i_glide_posenum>  (1501) 
3

>  <i_i_glide_rotatable_bonds>  (1501) 
9

>  <i_lp_mmshare_version>  (1501) 
65135

>  <i_m_ct_format>  (1501) 
2

>  <i_m_source_file_index>  (1501) 
2601

>  <i_qp_#NandO>  (1501) 
6

>  <i_qp_#acid>  (1501) 
0

>  <i_qp_#amide>  (1501) 
0

>  <i_qp_#amidine>  (1501) 
0

>  <i_qp_#amine>  (1501) 
0

>  <i_qp_#in34>  (1501) 
0

>  <i_qp_#in56>  (1501) 
22

>  <i_qp_#metab>  (1501) 
6

>  <i_qp_#nonHatm>  (1501) 
34

>  <i_qp_#noncon>  (1501) 
0

>  <i_qp_#ringatoms>  (1501) 
22

>  <i_qp_#rotor>  (1501) 
9

>  <i_qp_#rtvFG>  (1501) 
0

>  <i_qp_#stars>  (1501) 
2

>  <i_qp_CNS>  (1501) 
-2

>  <i_qp_HumanOralAbsorption>  (1501) 
1

>  <i_qp_RuleOfFive>  (1501) 
0

>  <i_qp_RuleOfThree>  (1501) 
1

>  <i_sd_BIOSOLVEIT.INFINISEE\_RESULT\_RANK>  (1501) 
41651

>  <i_sd_version>  (1501) 
0

>  <b_lp_Chiralities_Consistent>  (1501) 
1

>  <b_sd_chiral_flag>  (1501) 
0

>  <canonical_id>  (1501) 
ATP-HTVS-EC2D3AD3168F

>  <compound_code>  (1501) 
83201

>  <title>  (1501) 
rxn502b____EMOL3801098____EMOL30488121____EMOL109645890

>  <variant>  (1501) 
83201-1

>  <source_file>  (1501) 
运行/运行/ATP-VSW/ATP-VSW-DOCK_HTVS_1-001_lib/ATP-VSW-DOCK_HTVS_1-001_lib

>  <canonical_smiles>  (1501) 
CN(C)c1ccc(CCNc2c(NC(=O)Cc3ccccc3C#N)c[nH+]c3ccccc23)cc1

>  <scaffold>  (1501) 
O=C(Cc1ccccc1)Nc1c[nH+]c2ccccc2c1NCCc1ccccc1

>  <molecular_formula>  (1501) 
C28H28N5O+

$$$$
ATP-HTVS-EC4610FFE6DC
     RDKit          3D

 59 61  0  0  0  0  0  0  0  0999 V2000
  196.5506  179.5928  151.7439 Br  0  0  0  0  0  0  0  0  0  0  0  0
  196.8461  181.4451  152.0964 C   0  0  0  0  0  0  0  0  0  0  0  0
  197.4697  181.8992  153.2830 C   0  0  0  0  0  0  0  0  0  0  0  0
  197.6094  183.2887  153.5045 C   0  0  0  0  0  0  0  0  0  0  0  0
  197.1505  184.2157  152.5491 C   0  0  0  0  0  0  0  0  0  0  0  0
  196.5565  183.7578  151.3601 C   0  0  0  0  0  0  0  0  0  0  0  0
  196.4100  182.3766  151.1371 C   0  0  0  0  0  0  0  0  0  0  0  0
  197.9704  180.9625  154.2896 C   0  0  0  0  0  0  0  0  0  0  0  0
  198.8967  180.0731  153.9584 N   0  0  0  0  0  0  0  0  0  0  0  0
  199.1215  179.3695  155.0885 N   0  0  0  0  0  0  0  0  0  0  0  0
  198.3741  179.8463  156.1360 C   0  0  0  0  0  0  0  0  0  0  0  0
  197.6136  180.8772  155.6637 C   0  0  0  0  0  0  0  0  0  0  0  0
  196.6540  181.7295  156.4286 C   0  0  1  0  0  0  0  0  0  0  0  0
  196.7661  181.4431  157.8739 N   0  0  1  0  0  0  0  0  0  0  0  0
  196.0150  182.3674  158.7294 C   0  0  1  0  0  0  0  0  0  0  0  0
  196.7158  183.7432  158.8332 C   0  0  1  0  0  0  0  0  0  0  0  0
  195.9331  184.7655  159.6347 C   0  0  0  0  0  0  0  0  0  0  0  0
  194.5427  184.6353  159.8133 C   0  0  0  0  0  0  0  0  0  0  0  0
  193.8257  185.6035  160.5379 C   0  0  0  0  0  0  0  0  0  0  0  0
  194.4847  186.7048  161.0997 C   0  0  0  0  0  0  0  0  0  0  0  0
  195.8711  186.8678  160.8911 C   0  0  0  0  0  0  0  0  0  0  0  0
  196.5956  185.9043  160.1400 C   0  0  0  0  0  0  0  0  0  0  0  0
  193.6847  187.7313  161.8826 C   0  0  1  0  0  0  0  0  0  0  0  0
  193.1715  187.2579  163.1768 N   0  0  0  0  0  0  0  0  0  0  0  0
  192.6907  188.4024  163.9314 C   0  0  2  0  0  0  0  0  0  0  0  0
  192.0646  186.3170  163.0522 C   0  0  2  0  0  0  0  0  0  0  0  0
  200.0872  178.2908  155.0913 C   0  0  1  0  0  0  0  0  0  0  0  0
  200.0144  177.4462  156.3728 C   0  0  1  0  0  0  0  0  0  0  0  0
  200.9931  176.3462  156.3922 C   0  0  0  0  0  0  0  0  0  0  0  0
  201.7610  175.4828  156.4067 N   0  0  0  0  0  0  0  0  0  0  0  0
  196.3709  180.5049  157.9900 H   0  0  0  0  0  0  0  0  0  0  0  0
  198.0810  183.6551  154.4044 H   0  0  0  0  0  0  0  0  0  0  0  0
  197.2634  185.2751  152.7270 H   0  0  0  0  0  0  0  0  0  0  0  0
  196.2072  184.4620  150.6210 H   0  0  0  0  0  0  0  0  0  0  0  0
  195.9563  182.0179  150.2278 H   0  0  0  0  0  0  0  0  0  0  0  0
  198.4394  179.4400  157.1290 H   0  0  0  0  0  0  0  0  0  0  0  0
  196.8726  182.7791  156.2347 H   0  0  0  0  0  0  0  0  0  0  0  0
  195.6197  181.5699  156.1121 H   0  0  0  0  0  0  0  0  0  0  0  0
  195.0145  182.4070  158.2969 H   0  0  0  0  0  0  0  0  0  0  0  0
  195.9235  181.9256  159.7211 H   0  0  0  0  0  0  0  0  0  0  0  0
  197.7003  183.6212  159.2872 H   0  0  0  0  0  0  0  0  0  0  0  0
  196.8719  184.2076  157.8591 H   0  0  0  0  0  0  0  0  0  0  0  0
  193.9570  183.8217  159.3972 H   0  0  0  0  0  0  0  0  0  0  0  0
  192.7549  185.4960  160.5540 H   0  0  0  0  0  0  0  0  0  0  0  0
  196.3884  187.7336  161.2860 H   0  0  0  0  0  0  0  0  0  0  0  0
  197.6575  186.0397  159.9856 H   0  0  0  0  0  0  0  0  0  0  0  0
  194.3430  188.5969  162.0299 H   0  0  0  0  0  0  0  0  0  0  0  0
  192.8557  188.0902  161.2675 H   0  0  0  0  0  0  0  0  0  0  0  0
  192.3312  188.0660  164.9044 H   0  0  0  0  0  0  0  0  0  0  0  0
  191.8730  188.9018  163.4082 H   0  0  0  0  0  0  0  0  0  0  0  0
  193.4919  189.1243  164.0996 H   0  0  0  0  0  0  0  0  0  0  0  0
  191.6633  186.0464  164.0318 H   0  0  0  0  0  0  0  0  0  0  0  0
  192.3985  185.3949  162.5697 H   0  0  0  0  0  0  0  0  0  0  0  0
  191.2668  186.7363  162.4459 H   0  0  0  0  0  0  0  0  0  0  0  0
  199.9073  177.6638  154.2173 H   0  0  0  0  0  0  0  0  0  0  0  0
  201.0753  178.7336  154.9850 H   0  0  0  0  0  0  0  0  0  0  0  0
  200.2092  178.0553  157.2564 H   0  0  0  0  0  0  0  0  0  0  0  0
  199.0213  177.0117  156.4899 H   0  0  0  0  0  0  0  0  0  0  0  0
  197.7357  181.4157  158.1777 H   0  0  0  0  0  0  0  0  0  0  0  0
  1  2  1  0
  2  3  1  0
  2  7  2  0
  3  4  2  0
  3  8  1  0
  4  5  1  0
  4 32  1  0
  5  6  2  0
  5 33  1  0
  6  7  1  0
  6 34  1  0
  7 35  1  0
  8  9  2  0
  8 12  1  0
  9 10  1  0
 10 11  1  0
 10 27  1  0
 11 12  2  0
 11 36  1  0
 12 13  1  0
 13 14  1  0
 13 37  1  1
 13 38  1  0
 14 15  1  0
 14 31  1  6
 14 59  1  0
 15 16  1  0
 15 39  1  6
 15 40  1  0
 16 17  1  0
 16 41  1  1
 16 42  1  0
 17 18  1  0
 17 22  2  0
 18 19  2  0
 18 43  1  0
 19 20  1  0
 19 44  1  0
 20 21  2  0
 20 23  1  0
 21 22  1  0
 21 45  1  0
 22 46  1  0
 23 24  1  0
 23 47  1  1
 23 48  1  0
 24 25  1  0
 24 26  1  0
 25 49  1  1
 25 50  1  0
 25 51  1  0
 26 52  1  1
 26 53  1  0
 26 54  1  0
 27 28  1  0
 27 55  1  6
 27 56  1  0
 28 29  1  0
 28 57  1  1
 28 58  1  0
 29 30  3  0
M  CHG  1  14   1
M  END
>  <s_epik_cmdline>  (1502) 
J2VwaWtfcHl0aG9uJywgJy1waCcsICc3LjAwMDAwMCcsICctcGh0JywgJzIuMDAwMDAwJywgJy1tcycsICcxNicsICctdG4nLCAnOCcsICctbWEnLCAnMjAwJywgJy1pbWFlJywgJzxpbmZpbGUubWFlPicsICctb21hZScsICc8b3V0ZmlsZS5tYWU+Jw==

>  <s_epik_input>  (1502) 
W2NIXTFbY0hdW2NIXVtjSF1jKGMxQnIpLWMybm4oW0NIMl1bQ0gyXUMjTilbY0hdYzJbQ0gyXVtOSF1bQ0gyXVtDSDJdYzNbY0hdW2NIXWMoW2NIXVtjSF0zKVtDSDJdTihbQ0gzXSlbQ0gzXQ==

>  <s_i_glide_gridfile>  (1502) 
ATP-Grid

>  <s_lp_Force_Field>  (1502) 
OPLS_2005

>  <s_lp_Variant>  (1502) 
m_270004bbb____15775648____24715140-2

>  <s_lp_label>  (1502) 
1329_sdstereoexpander_1_neutralizer_1_epik_2_stereoizer_1

>  <s_m_source_file>  (1502) 
ATP-VSW-LIGPREP-002-in.maegz

>  <s_sd_BIOSOLVEIT.INFINISEE\_QUERY\_NAME>  (1502) 
Ref-Lig

>  <s_sd_BIOSOLVEIT.INFINISEE\_QUERY\_SMILES>  (1502) 
S(c1nc2c(cc1C[NH2+]Cc3ccc(cc3)C[NH+](C)C)cccc2)Cc4ccccc4

>  <s_sd_BIOSOLVEIT.INFINISEE\_REACTION\_NAME>  (1502) 
m_270004bbb

>  <s_sd_BIOSOLVEIT.INFINISEE\_REAGENT1\_SMILES>  (1502) 
[R1*]NCCc1ccc(cc1)CN(C)C

>  <s_sd_BIOSOLVEIT.INFINISEE\_REAGENT2\_SMILES>  (1502) 
[R1*]CC=1C(=NN(C1)CCC#N)c2c(Br)cccc2

>  <s_sd_BIOSOLVEIT.INFINISEE\_SPACE>  (1502) 
REALSpace_44bn_2023-08

>  <s_vsw_compound_code>  (1502) 
42498

>  <s_vsw_variant>  (1502) 
42498-2

>  <r_epik_Charging_Adjusted_Penalty>  (1502) 
1.5366075603790701

>  <r_epik_Ionization_Penalty>  (1502) 
1.5099

>  <r_epik_Ionization_Penalty_Charging>  (1502) 
0.0048999999999999998

>  <r_epik_Ionization_Penalty_Neutral>  (1502) 
1.5048999999999999

>  <r_epik_State_Penalty>  (1502) 
1.5317000000000001

>  <r_i_docking_score>  (1502) 
-5.0925649705249203

>  <r_i_glide_ecoul>  (1502) 
-14.3016719818115

>  <r_i_glide_eff_state_penalty>  (1502) 
1.5317000000000001

>  <r_i_glide_einternal>  (1502) 
8.9876470565795898

>  <r_i_glide_emodel>  (1502) 
-79.139774702187395

>  <r_i_glide_energy>  (1502) 
-53.283128738403299

>  <r_i_glide_erotb>  (1502) 
0.73898634556759202

>  <r_i_glide_esite>  (1502) 
-0.13300314974312599

>  <r_i_glide_evdw>  (1502) 
-38.981456756591797

>  <r_i_glide_gscore>  (1502) 
-6.6242649705249201

>  <r_i_glide_hbond>  (1502) 
-0.39647394113194301

>  <r_i_glide_ligand_efficiency>  (1502) 
-0.16975216568416401

>  <r_i_glide_ligand_efficiency_ln>  (1502) 
-1.15708624924285

>  <r_i_glide_ligand_efficiency_sa>  (1502) 
-0.52745944657190202

>  <r_i_glide_lipo>  (1502) 
-2.0100348691732002

>  <r_i_glide_metal>  (1502) 
-0

>  <r_i_glide_rewards>  (1502) 
-0.72941572094291995

>  <r_lp_Energy>  (1502) 
17.774933999999998

>  <r_lp_tautomer_probability>  (1502) 
1

>  <r_qp_ACxDN^.5/SA>  (1502) 
0.0081554000000000001

>  <r_qp_CIQPlogS>  (1502) 
-6.0220000000000002

>  <r_qp_EA(eV)>  (1502) 
0.21099999999999999

>  <r_qp_FISA>  (1502) 
75.007999999999996

>  <r_qp_FOSA>  (1502) 
363.19200000000001

>  <r_qp_IP(eV)>  (1502) 
9.0039999999999996

>  <r_qp_Jm>  (1502) 
2.02443389680813e-05

>  <r_qp_PISA>  (1502) 
321.327

>  <r_qp_PSA>  (1502) 
59.137

>  <r_qp_PercentHumanOralAbsorption>  (1502) 
90.706999999999994

>  <r_qp_QPPCaco>  (1502) 
119.785

>  <r_qp_QPPMDCK>  (1502) 
98.031999999999996

>  <r_qp_QPlogBB>  (1502) 
0.014999999999999999

>  <r_qp_QPlogHERG>  (1502) 
-8.1739999999999995

>  <r_qp_QPlogKhsa>  (1502) 
0.80600000000000005

>  <r_qp_QPlogKp>  (1502) 
-4.9349999999999996

>  <r_qp_QPlogPC16>  (1502) 
15.058

>  <r_qp_QPlogPo/w>  (1502) 
4.5359999999999996

>  <r_qp_QPlogPoct>  (1502) 
20.992000000000001

>  <r_qp_QPlogPw>  (1502) 
10.007

>  <r_qp_QPlogS>  (1502) 
-5.4269999999999996

>  <r_qp_QPpolrz>  (1502) 
48.148000000000003

>  <r_qp_SASA>  (1502) 
797.02200000000005

>  <r_qp_SAamideO>  (1502) 
0

>  <r_qp_SAfluorine>  (1502) 
0

>  <r_qp_WPSA>  (1502) 
37.494999999999997

>  <r_qp_accptHB>  (1502) 
6.5

>  <r_qp_dip^2/V>  (1502) 
0.020948499999999998

>  <r_qp_dipole>  (1502) 
5.4939999999999998

>  <r_qp_donorHB>  (1502) 
1

>  <r_qp_glob>  (1502) 
0.77398549999999999

>  <r_qp_mol_MW>  (1502) 
466.423

>  <r_qp_volume>  (1502) 
1440.646

>  <r_sd_BIOSOLVEIT.INFINISEE\_FTREES\_SIMILARITY>  (1502) 
0.90900000000000003

>  <r_sd_BIOSOLVEIT.LOGP>  (1502) 
2.1768800000000001

>  <r_sd_BIOSOLVEIT.MOLECULAR\_WEIGHT>  (1502) 
468.44

>  <r_sd_BIOSOLVEIT.TPSA>  (1502) 
62.659999999999997

>  <i_epik_Tot_Q>  (1502) 
1

>  <i_epik_Tot_abs_Q>  (1502) 
1

>  <i_f3d_flags>  (1502) 
0

>  <i_i_glide_confnum>  (1502) 
9

>  <i_i_glide_lignum>  (1502) 
464

>  <i_i_glide_posenum>  (1502) 
17

>  <i_i_glide_rotatable_bonds>  (1502) 
10

>  <i_lp_mmshare_version>  (1502) 
65135

>  <i_m_ct_format>  (1502) 
2

>  <i_m_source_file_index>  (1502) 
1329

>  <i_qp_#NandO>  (1502) 
5

>  <i_qp_#acid>  (1502) 
0

>  <i_qp_#amide>  (1502) 
0

>  <i_qp_#amidine>  (1502) 
0

>  <i_qp_#amine>  (1502) 
2

>  <i_qp_#in34>  (1502) 
0

>  <i_qp_#in56>  (1502) 
17

>  <i_qp_#metab>  (1502) 
6

>  <i_qp_#nonHatm>  (1502) 
30

>  <i_qp_#noncon>  (1502) 
0

>  <i_qp_#ringatoms>  (1502) 
17

>  <i_qp_#rotor>  (1502) 
10

>  <i_qp_#rtvFG>  (1502) 
0

>  <i_qp_#stars>  (1502) 
0

>  <i_qp_CNS>  (1502) 
1

>  <i_qp_HumanOralAbsorption>  (1502) 
3

>  <i_qp_RuleOfFive>  (1502) 
0

>  <i_qp_RuleOfThree>  (1502) 
0

>  <i_sd_BIOSOLVEIT.INFINISEE\_REAGENT1\_NAME>  (1502) 
15775648

>  <i_sd_BIOSOLVEIT.INFINISEE\_REAGENT2\_NAME>  (1502) 
24715140

>  <i_sd_BIOSOLVEIT.INFINISEE\_RESULT\_RANK>  (1502) 
48282

>  <i_sd_version>  (1502) 
0

>  <b_lp_Chiralities_Consistent>  (1502) 
1

>  <b_sd_chiral_flag>  (1502) 
0

>  <canonical_id>  (1502) 
ATP-HTVS-EC4610FFE6DC

>  <compound_code>  (1502) 
42498

>  <title>  (1502) 
m_270004bbb____15775648____24715140

>  <variant>  (1502) 
42498-2

>  <source_file>  (1502) 
运行/运行/ATP-VSW/ATP-VSW-DOCK_HTVS_1-002_lib.maegz

>  <canonical_smiles>  (1502) 
CN(C)Cc1ccc(CC[NH2+]Cc2cn(CCC#N)nc2-c2ccccc2Br)cc1

>  <scaffold>  (1502) 
c1ccc(CC[NH2+]Cc2c[nH]nc2-c2ccccc2)cc1

>  <molecular_formula>  (1502) 
C24H29BrN5+

$$$$
ATP-HTVS-EC5DC094D49F
     RDKit          3D

 64 67  0  0  0  0  0  0  0  0999 V2000
  199.9038  176.5399  151.3301 F   0  0  0  0  0  0  0  0  0  0  0  0
  199.8502  177.4850  152.2937 C   0  0  0  0  0  0  0  0  0  0  0  0
  200.6256  177.3436  153.4609 C   0  0  0  0  0  0  0  0  0  0  0  0
  200.5512  178.3071  154.4988 C   0  0  0  0  0  0  0  0  0  0  0  0
  199.6730  179.4265  154.3438 C   0  0  0  0  0  0  0  0  0  0  0  0
  198.9243  179.5656  153.1544 C   0  0  0  0  0  0  0  0  0  0  0  0
  199.0068  178.5995  152.1341 C   0  0  0  0  0  0  0  0  0  0  0  0
  199.5487  180.5268  155.3793 C   0  0  1  0  0  0  0  0  0  0  0  0
  198.3373  180.4690  156.1887 N   0  0  0  0  0  0  0  0  0  0  0  0
  197.8365  181.5970  156.8160 C   0  0  0  0  0  0  0  0  0  0  0  0
  198.5980  182.6780  156.9638 N   0  0  0  0  0  0  0  0  0  0  0  0
  198.1585  183.7190  157.6896 C   0  0  0  0  0  0  0  0  0  0  0  0
  199.0183  184.8095  157.9203 N   0  0  0  0  0  0  0  0  0  0  0  0
  200.4459  184.7882  157.6259 C   0  0  1  0  0  0  0  0  0  0  0  0
  201.2585  183.6166  158.1851 C   0  0  0  0  0  0  0  0  0  0  0  0
  201.8225  183.5943  159.4929 C   0  0  0  0  0  0  0  0  0  0  0  0
  201.6864  184.7049  160.3378 N   0  0  0  0  0  0  0  0  0  0  0  0
  202.6955  184.8896  161.3694 C   0  0  2  0  0  0  0  0  0  0  0  0
  202.5130  182.4282  159.9277 C   0  0  0  0  0  0  0  0  0  0  0  0
  202.6458  181.3268  159.0602 C   0  0  0  0  0  0  0  0  0  0  0  0
  202.1468  181.3870  157.7518 C   0  0  0  0  0  0  0  0  0  0  0  0
  201.4740  182.5328  157.3203 C   0  0  0  0  0  0  0  0  0  0  0  0
  196.8596  183.7060  158.2514 C   0  0  0  0  0  0  0  0  0  0  0  0
  196.0890  182.5428  158.0537 C   0  0  0  0  0  0  0  0  0  0  0  0
  196.6314  181.5227  157.3825 N   0  0  0  0  0  0  0  0  0  0  0  0
  194.7825  182.4137  158.5710 C   0  0  0  0  0  0  0  0  0  0  0  0
  194.2132  183.5157  159.2367 C   0  0  0  0  0  0  0  0  0  0  0  0
  194.9753  184.6792  159.4724 C   0  0  0  0  0  0  0  0  0  0  0  0
  196.3058  184.7677  159.0020 C   0  0  0  0  0  0  0  0  0  0  0  0
  201.4579  178.1087  155.7268 C   0  0  1  0  0  0  0  0  0  0  0  0
  200.6952  177.9320  156.9940 N   0  0  2  0  0  0  0  0  0  0  0  0
  201.5344  178.0492  158.2153 C   0  0  2  0  0  0  0  0  0  0  0  0
  199.9112  176.6902  156.9940 C   0  0  2  0  0  0  0  0  0  0  0  0
  201.2759  176.4826  153.5585 H   0  0  0  0  0  0  0  0  0  0  0  0
  198.2864  180.4306  153.0317 H   0  0  0  0  0  0  0  0  0  0  0  0
  198.4027  178.7107  151.2445 H   0  0  0  0  0  0  0  0  0  0  0  0
  200.4199  180.4465  156.0200 H   0  0  0  0  0  0  0  0  0  0  0  0
  199.6132  181.4913  154.8544 H   0  0  0  0  0  0  0  0  0  0  0  0
  197.7885  179.6102  156.2270 H   0  0  0  0  0  0  0  0  0  0  0  0
  198.6192  185.6588  158.2852 H   0  0  0  0  0  0  0  0  0  0  0  0
  200.5626  184.7982  156.5388 H   0  0  0  0  0  0  0  0  0  0  0  0
  200.8929  185.7089  157.9870 H   0  0  0  0  0  0  0  0  0  0  0  0
  201.1896  185.5038  159.9758 H   0  0  0  0  0  0  0  0  0  0  0  0
  202.5418  185.8680  161.8178 H   0  0  0  0  0  0  0  0  0  0  0  0
  203.7130  184.8335  160.9658 H   0  0  0  0  0  0  0  0  0  0  0  0
  202.5759  184.1229  162.1380 H   0  0  0  0  0  0  0  0  0  0  0  0
  202.9603  182.3398  160.9153 H   0  0  0  0  0  0  0  0  0  0  0  0
  203.1337  180.4227  159.4172 H   0  0  0  0  0  0  0  0  0  0  0  0
  202.2479  180.5267  157.0909 H   0  0  0  0  0  0  0  0  0  0  0  0
  201.0773  182.6006  156.3074 H   0  0  0  0  0  0  0  0  0  0  0  0
  194.2223  181.4899  158.3758 H   0  0  0  0  0  0  0  0  0  0  0  0
  193.1768  183.4805  159.5578 H   0  0  0  0  0  0  0  0  0  0  0  0
  194.5109  185.5062  159.9882 H   0  0  0  0  0  0  0  0  0  0  0  0
  196.8506  185.6914  159.1634 H   0  0  0  0  0  0  0  0  0  0  0  0
  202.1095  177.2397  155.5865 H   0  0  0  0  0  0  0  0  0  0  0  0
  202.1461  178.9478  155.7637 H   0  0  0  0  0  0  0  0  0  0  0  0
  202.2712  177.2593  158.1401 H   0  0  0  0  0  0  0  0  0  0  0  0
  200.9085  177.8931  159.1210 H   0  0  0  0  0  0  0  0  0  0  0  0
  202.0614  178.9902  158.2236 H   0  0  0  0  0  0  0  0  0  0  0  0
  200.5916  175.8274  156.9343 H   0  0  0  0  0  0  0  0  0  0  0  0
  199.1655  176.6313  156.1853 H   0  0  0  0  0  0  0  0  0  0  0  0
  199.3734  176.6562  157.9490 H   0  0  0  0  0  0  0  0  0  0  0  0
  196.1208  180.5960  157.4022 H   0  0  0  0  0  0  0  0  0  0  0  0
  200.0165  178.6737  157.0374 H   0  0  0  0  0  0  0  0  0  0  0  0
  1  2  1  0
  2  3  2  0
  2  7  1  0
  3  4  1  0
  3 34  1  0
  4  5  2  0
  4 30  1  0
  5  6  1  0
  5  8  1  0
  6  7  2  0
  6 35  1  0
  7 36  1  0
  8  9  1  0
  8 37  1  1
  8 38  1  0
  9 10  1  0
  9 39  1  0
 10 11  1  0
 10 25  2  0
 11 12  2  0
 12 13  1  0
 12 23  1  0
 13 14  1  0
 13 40  1  0
 14 15  1  0
 14 41  1  6
 14 42  1  0
 15 16  1  0
 15 22  2  0
 16 17  1  0
 16 19  2  0
 17 18  1  0
 17 43  1  0
 18 44  1  1
 18 45  1  0
 18 46  1  0
 19 20  1  0
 19 47  1  0
 20 21  2  0
 20 48  1  0
 21 22  1  0
 21 49  1  0
 22 50  1  0
 23 24  1  0
 23 29  2  0
 24 25  1  0
 24 26  2  0
 25 63  1  0
 26 27  1  0
 26 51  1  0
 27 28  2  0
 27 52  1  0
 28 29  1  0
 28 53  1  0
 29 54  1  0
 30 31  1  0
 30 55  1  6
 30 56  1  0
 31 32  1  0
 31 33  1  0
 31 64  1  1
 32 57  1  6
 32 58  1  0
 32 59  1  0
 33 60  1  1
 33 61  1  0
 33 62  1  0
M  CHG  2  25   1  31   1
M  END
>  <s_epik_cmdline>  (1503) 
J2VwaWtfcHl0aG9uJywgJy1waCcsICc3LjAwMDAwMCcsICctcGh0JywgJzIuMDAwMDAwJywgJy1tcycsICcxNicsICctdG4nLCAnOCcsICctbWEnLCAnMjAwJywgJy1pbWFlJywgJzxpbmZpbGUubWFlPicsICctb21hZScsICc8b3V0ZmlsZS5tYWU+Jw==

>  <s_epik_input>  (1503) 
RmMxW2NIXWMoW0NIMl1OKFtDSDNdKVtDSDNdKWMoW2NIXVtjSF0xKVtDSDJdW05IXWMobmMoYzIzKVtjSF1bY0hdW2NIXVtjSF0zKW5jMltOSF1bQ0gyXWM0YyhbTkhdW0NIM10pW2NIXVtjSF1bY0hdW2NIXTQ=

>  <s_i_glide_gridfile>  (1503) 
ATP-Grid

>  <s_lp_Force_Field>  (1503) 
OPLS_2005

>  <s_lp_Variant>  (1503) 
m_282030aaa____21924026____22360182____21974936-1

>  <s_lp_label>  (1503) 
1617_sdstereoexpander_1_neutralizer_1_epik_1_stereoizer_1

>  <s_m_source_file>  (1503) 
ATP-VSW-LIGPREP-003-in.maegz

>  <s_sd_BIOSOLVEIT.INFINISEE\_QUERY\_NAME>  (1503) 
Ref-Lig

>  <s_sd_BIOSOLVEIT.INFINISEE\_QUERY\_SMILES>  (1503) 
S(c1nc2c(cc1C[NH2+]Cc3ccc(cc3)C[NH+](C)C)cccc2)Cc4ccccc4

>  <s_sd_BIOSOLVEIT.INFINISEE\_REACTION\_NAME>  (1503) 
m_282030aaa

>  <s_sd_BIOSOLVEIT.INFINISEE\_REAGENT1\_SMILES>  (1503) 
[R1*]NCc1c(NC)cccc1

>  <s_sd_BIOSOLVEIT.INFINISEE\_REAGENT2\_SMILES>  (1503) 
[R2*]c1nc([R1*])c2c(n1)cccc2

>  <s_sd_BIOSOLVEIT.INFINISEE\_REAGENT3\_SMILES>  (1503) 
[R2*]NCc1c(cc(F)cc1)CN(C)C

>  <s_sd_BIOSOLVEIT.INFINISEE\_SPACE>  (1503) 
REALSpace_44bn_2023-08

>  <s_vsw_compound_code>  (1503) 
51715

>  <s_vsw_variant>  (1503) 
51715-1

>  <r_epik_Charging_Adjusted_Penalty>  (1503) 
0.127862181543833

>  <r_epik_Ionization_Penalty>  (1503) 
0.067100000000000007

>  <r_epik_Ionization_Penalty_Charging>  (1503) 
0.0613

>  <r_epik_Ionization_Penalty_Neutral>  (1503) 
0.0057999999999999996

>  <r_epik_State_Penalty>  (1503) 
0.066600000000000006

>  <r_i_docking_score>  (1503) 
-3.9530696492342798

>  <r_i_glide_ecoul>  (1503) 
-8.1791095733642596

>  <r_i_glide_eff_state_penalty>  (1503) 
0.066600000000000006

>  <r_i_glide_einternal>  (1503) 
2.6101331710815399

>  <r_i_glide_emodel>  (1503) 
-51.402660717610502

>  <r_i_glide_energy>  (1503) 
-35.7230319976807

>  <r_i_glide_erotb>  (1503) 
0.70265357449120003

>  <r_i_glide_esite>  (1503) 
-0.22372404661202799

>  <r_i_glide_evdw>  (1503) 
-27.543922424316399

>  <r_i_glide_gscore>  (1503) 
-4.0196696492342801

>  <r_i_glide_hbond>  (1503) 
-0.20000000000000001

>  <r_i_glide_ligand_efficiency>  (1503) 
-0.119789989370736

>  <r_i_glide_ligand_efficiency_ln>  (1503) 
-0.87914222209047799

>  <r_i_glide_ligand_efficiency_sa>  (1503) 
-0.38423050284864801

>  <r_i_glide_lipo>  (1503) 
-1.0044484567799301

>  <r_i_glide_metal>  (1503) 
-0

>  <r_i_glide_rewards>  (1503) 
-0.69008816311306098

>  <r_lp_Energy>  (1503) 
24.698900999999999

>  <r_qp_ACxDN^.5/SA>  (1503) 
0.0149204

>  <r_qp_CIQPlogS>  (1503) 
-5.9569999999999999

>  <r_qp_EA(eV)>  (1503) 
0.51400000000000001

>  <r_qp_FISA>  (1503) 
43.887

>  <r_qp_FOSA>  (1503) 
223.685

>  <r_qp_IP(eV)>  (1503) 
7.9039999999999999

>  <r_qp_Jm>  (1503) 
0.24288662561879401

>  <r_qp_PISA>  (1503) 
381.97000000000003

>  <r_qp_PSA>  (1503) 
52.773000000000003

>  <r_qp_PercentHumanOralAbsorption>  (1503) 
100

>  <r_qp_QPPCaco>  (1503) 
947.596

>  <r_qp_QPPMDCK>  (1503) 
933.85299999999995

>  <r_qp_QPlogBB>  (1503) 
0.13100000000000001

>  <r_qp_QPlogHERG>  (1503) 
-6.4909999999999997

>  <r_qp_QPlogKhsa>  (1503) 
0.66300000000000003

>  <r_qp_QPlogKp>  (1503) 
-2.181

>  <r_qp_QPlogPC16>  (1503) 
14.144

>  <r_qp_QPlogPo/w>  (1503) 
4.7830000000000004

>  <r_qp_QPlogPoct>  (1503) 
23.120999999999999

>  <r_qp_QPlogPw>  (1503) 
12.627000000000001

>  <r_qp_QPlogS>  (1503) 
-4.0810000000000004

>  <r_qp_QPpolrz>  (1503) 
46.018000000000001

>  <r_qp_SASA>  (1503) 
696.51400000000001

>  <r_qp_SAamideO>  (1503) 
0

>  <r_qp_SAfluorine>  (1503) 
46.972999999999999

>  <r_qp_WPSA>  (1503) 
46.972999999999999

>  <r_qp_accptHB>  (1503) 
6

>  <r_qp_dip^2/V>  (1503) 
0.013203899999999999

>  <r_qp_dipole>  (1503) 
4.2329999999999997

>  <r_qp_donorHB>  (1503) 
3

>  <r_qp_glob>  (1503) 
0.85100659999999995

>  <r_qp_mol_MW>  (1503) 
444.55399999999997

>  <r_qp_volume>  (1503) 
1356.8969999999999

>  <r_sd_BIOSOLVEIT.INFINISEE\_FTREES\_SIMILARITY>  (1503) 
0.90600000000000003

>  <r_sd_BIOSOLVEIT.LOGP>  (1503) 
3.6793

>  <r_sd_BIOSOLVEIT.MOLECULAR\_WEIGHT>  (1503) 
445.56299999999999

>  <r_sd_BIOSOLVEIT.TPSA>  (1503) 
66.310000000000002

>  <i_epik_Tot_Q>  (1503) 
2

>  <i_epik_Tot_abs_Q>  (1503) 
2

>  <i_f3d_flags>  (1503) 
0

>  <i_i_glide_confnum>  (1503) 
7

>  <i_i_glide_lignum>  (1503) 
616

>  <i_i_glide_posenum>  (1503) 
8

>  <i_i_glide_rotatable_bonds>  (1503) 
9

>  <i_lp_mmshare_version>  (1503) 
65135

>  <i_m_ct_format>  (1503) 
2

>  <i_m_source_file_index>  (1503) 
1617

>  <i_qp_#NandO>  (1503) 
6

>  <i_qp_#acid>  (1503) 
0

>  <i_qp_#amide>  (1503) 
0

>  <i_qp_#amidine>  (1503) 
0

>  <i_qp_#amine>  (1503) 
1

>  <i_qp_#in34>  (1503) 
0

>  <i_qp_#in56>  (1503) 
22

>  <i_qp_#metab>  (1503) 
8

>  <i_qp_#nonHatm>  (1503) 
33

>  <i_qp_#noncon>  (1503) 
0

>  <i_qp_#ringatoms>  (1503) 
22

>  <i_qp_#rotor>  (1503) 
9

>  <i_qp_#rtvFG>  (1503) 
0

>  <i_qp_#stars>  (1503) 
0

>  <i_qp_CNS>  (1503) 
1

>  <i_qp_HumanOralAbsorption>  (1503) 
3

>  <i_qp_RuleOfFive>  (1503) 
0

>  <i_qp_RuleOfThree>  (1503) 
1

>  <i_sd_BIOSOLVEIT.INFINISEE\_REAGENT1\_NAME>  (1503) 
21924026

>  <i_sd_BIOSOLVEIT.INFINISEE\_REAGENT2\_NAME>  (1503) 
22360182

>  <i_sd_BIOSOLVEIT.INFINISEE\_REAGENT3\_NAME>  (1503) 
21974936

>  <i_sd_BIOSOLVEIT.INFINISEE\_RESULT\_RANK>  (1503) 
66955

>  <i_sd_version>  (1503) 
0

>  <b_lp_Chiralities_Consistent>  (1503) 
1

>  <b_sd_chiral_flag>  (1503) 
0

>  <canonical_id>  (1503) 
ATP-HTVS-EC5DC094D49F

>  <compound_code>  (1503) 
51715

>  <title>  (1503) 
m_282030aaa____21924026____22360182____21974936

>  <variant>  (1503) 
51715-1

>  <source_file>  (1503) 
运行/运行/ATP-VSW/ATP-VSW-DOCK_HTVS_1-003_lib/ATP-VSW-DOCK_HTVS_1-003_lib.mae

>  <canonical_smiles>  (1503) 
CNc1ccccc1CNc1nc(NCc2ccc(F)cc2C[NH+](C)C)[nH+]c2ccccc12

>  <scaffold>  (1503) 
c1ccc(CNc2nc(NCc3ccccc3)c3ccccc3[nH+]2)cc1

>  <molecular_formula>  (1503) 
C26H31FN6+2

$$$$
ATP-HTVS-ECFCDEE54331
     RDKit          3D

 66 69  0  0  0  0  0  0  0  0999 V2000
  196.3427  183.4715  150.1940 Cl  0  0  0  0  0  0  0  0  0  0  0  0
  197.4714  184.5000  151.0155 C   0  0  0  0  0  0  0  0  0  0  0  0
  197.4177  184.6082  152.4171 C   0  0  0  0  0  0  0  0  0  0  0  0
  198.3316  185.4443  153.0903 C   0  0  0  0  0  0  0  0  0  0  0  0
  198.2745  185.5002  154.5037 N   0  0  0  0  0  0  0  0  0  0  0  0
  198.7318  186.4851  155.3006 C   0  0  0  0  0  0  0  0  0  0  0  0
  199.3035  187.5014  154.9172 O   0  0  0  0  0  0  0  0  0  0  0  0
  198.5211  186.3030  156.7921 C   0  0  1  0  0  0  0  0  0  0  0  0
  199.0558  185.0439  157.2910 N   0  0  0  0  0  0  0  0  0  0  0  0
  198.2368  183.9073  157.3388 C   0  0  0  0  0  0  0  0  0  0  0  0
  198.6527  182.8288  156.6775 N   0  0  0  0  0  0  0  0  0  0  0  0
  197.9550  181.7098  156.6893 C   0  0  0  0  0  0  0  0  0  0  0  0
  196.7619  181.5977  157.2964 N   0  0  0  0  0  0  0  0  0  0  0  0
  196.2737  182.6630  157.9473 C   0  0  0  0  0  0  0  0  0  0  0  0
  196.9947  183.8672  158.0040 C   0  0  0  0  0  0  0  0  0  0  0  0
  196.4626  184.9671  158.7138 C   0  0  0  0  0  0  0  0  0  0  0  0
  195.2079  184.8645  159.3249 C   0  0  0  0  0  0  0  0  0  0  0  0
  194.4992  183.6573  159.2599 C   0  0  0  0  0  0  0  0  0  0  0  0
  195.0319  182.5458  158.5835 C   0  0  0  0  0  0  0  0  0  0  0  0
  198.4410  180.5899  156.0701 N   0  0  0  0  0  0  0  0  0  0  0  0
  199.7777  180.6311  155.5751 C   0  0  1  0  0  0  0  0  0  0  0  0
  200.8874  180.9110  156.5824 C   0  0  0  0  0  0  0  0  0  0  0  0
  201.3429  180.0389  157.6273 C   0  0  0  0  0  0  0  0  0  0  0  0
  202.3428  180.4976  158.5142 C   0  0  0  0  0  0  0  0  0  0  0  0
  202.8848  181.7838  158.3816 C   0  0  0  0  0  0  0  0  0  0  0  0
  202.4871  182.6099  157.3243 C   0  0  0  0  0  0  0  0  0  0  0  0
  201.5049  182.1761  156.4306 C   0  0  0  0  0  0  0  0  0  0  0  0
  200.7878  178.6257  157.8204 C   0  0  1  0  0  0  0  0  0  0  0  0
  201.3188  177.6387  156.8272 N   0  0  2  0  0  0  0  0  0  0  0  0
  201.0833  178.0094  155.4197 C   0  0  2  0  0  0  0  0  0  0  0  0
  200.8158  176.2866  157.0196 C   0  0  2  0  0  0  0  0  0  0  0  0
  200.4633  184.9382  157.6411 C   0  0  2  0  0  0  0  0  0  0  0  0
  199.2911  186.1667  152.3429 C   0  0  0  0  0  0  0  0  0  0  0  0
  199.3367  186.0553  150.9441 C   0  0  0  0  0  0  0  0  0  0  0  0
  198.4243  185.2202  150.2779 C   0  0  0  0  0  0  0  0  0  0  0  0
  196.6665  184.0597  152.9692 H   0  0  0  0  0  0  0  0  0  0  0  0
  197.8716  184.6991  154.9646 H   0  0  0  0  0  0  0  0  0  0  0  0
  198.9714  187.1307  157.3367 H   0  0  0  0  0  0  0  0  0  0  0  0
  197.4556  186.3724  156.9431 H   0  0  0  0  0  0  0  0  0  0  0  0
  196.9851  185.9022  158.7999 H   0  0  0  0  0  0  0  0  0  0  0  0
  194.7982  185.7214  159.8378 H   0  0  0  0  0  0  0  0  0  0  0  0
  193.5356  183.5861  159.7326 H   0  0  0  0  0  0  0  0  0  0  0  0
  194.4797  181.6246  158.5406 H   0  0  0  0  0  0  0  0  0  0  0  0
  198.0392  179.6958  156.3057 H   0  0  0  0  0  0  0  0  0  0  0  0
  199.7801  179.7139  155.1908 H   0  0  0  0  0  0  0  0  0  0  0  0
  199.9216  181.1123  154.6065 H   0  0  0  0  0  0  0  0  0  0  0  0
  202.6842  179.8670  159.3215 H   0  0  0  0  0  0  0  0  0  0  0  0
  203.6209  182.1486  159.0824 H   0  0  0  0  0  0  0  0  0  0  0  0
  202.8478  183.6203  157.2392 H   0  0  0  0  0  0  0  0  0  0  0  0
  201.1183  182.8340  155.6664 H   0  0  0  0  0  0  0  0  0  0  0  0
  201.0471  178.2490  158.8268 H   0  0  0  0  0  0  0  0  0  0  0  0
  199.7033  178.6690  157.8090 H   0  0  0  0  0  0  0  0  0  0  0  0
  199.9917  177.9335  155.2611 H   0  0  0  0  0  0  0  0  0  0  0  0
  201.4947  177.3911  154.6594 H   0  0  0  0  0  0  0  0  0  0  0  0
  201.5553  178.9794  155.2356 H   0  0  0  0  0  0  0  0  0  0  0  0
  199.7291  176.2429  156.9803 H   0  0  0  0  0  0  0  0  0  0  0  0
  201.1656  175.8958  157.9934 H   0  0  0  0  0  0  0  0  0  0  0  0
  201.2127  175.6242  156.2453 H   0  0  0  0  0  0  0  0  0  0  0  0
  200.6655  183.9419  157.9966 H   0  0  0  0  0  0  0  0  0  0  0  0
  200.7223  185.5919  158.4719 H   0  0  0  0  0  0  0  0  0  0  0  0
  201.1101  185.1767  156.7902 H   0  0  0  0  0  0  0  0  0  0  0  0
  200.0096  186.8093  152.8254 H   0  0  0  0  0  0  0  0  0  0  0  0
  200.0756  186.6135  150.3888 H   0  0  0  0  0  0  0  0  0  0  0  0
  198.4648  185.1341  149.2021 H   0  0  0  0  0  0  0  0  0  0  0  0
  196.2517  180.7095  157.2762 H   0  0  0  0  0  0  0  0  0  0  0  0
  202.3161  177.6523  156.9088 H   0  0  0  0  0  0  0  0  0  0  0  0
  1  2  1  0
  2  3  2  0
  2 35  1  0
  3  4  1  0
  3 36  1  0
  4  5  1  0
  4 33  2  0
  5  6  1  0
  5 37  1  0
  6  7  2  0
  6  8  1  0
  8  9  1  0
  8 38  1  1
  8 39  1  0
  9 10  1  0
  9 32  1  0
 10 11  2  0
 10 15  1  0
 11 12  1  0
 12 13  2  0
 12 20  1  0
 13 14  1  0
 13 65  1  0
 14 15  1  0
 14 19  2  0
 15 16  2  0
 16 17  1  0
 16 40  1  0
 17 18  2  0
 17 41  1  0
 18 19  1  0
 18 42  1  0
 19 43  1  0
 20 21  1  0
 20 44  1  0
 21 22  1  0
 21 45  1  6
 21 46  1  0
 22 23  1  0
 22 27  2  0
 23 24  2  0
 23 28  1  0
 24 25  1  0
 24 47  1  0
 25 26  2  0
 25 48  1  0
 26 27  1  0
 26 49  1  0
 27 50  1  0
 28 29  1  0
 28 51  1  1
 28 52  1  0
 29 30  1  0
 29 31  1  0
 29 66  1  6
 30 53  1  6
 30 54  1  0
 30 55  1  0
 31 56  1  1
 31 57  1  0
 31 58  1  0
 32 59  1  1
 32 60  1  0
 32 61  1  0
 33 34  1  0
 33 62  1  0
 34 35  2  0
 34 63  1  0
 35 64  1  0
M  CHG  2  13   1  29   1
M  END
>  <s_epik_cmdline>  (1504) 
J2VwaWtfcHl0aG9uJywgJy1waCcsICc3LjAwMDAwMCcsICctcGh0JywgJzIuMDAwMDAwJywgJy1tcycsICcxNicsICctdG4nLCAnOCcsICctbWEnLCAnMjAwJywgJy1pbWFlJywgJzxpbmZpbGUubWFlPicsICctb21hZScsICc8b3V0ZmlsZS5tYWU+Jw==

>  <s_epik_input>  (1504) 
Q2xjMVtjSF1jKFtjSF1bY0hdW2NIXTEpW05IXUMoPU8pW0NIMl1OKFtDSDNdKWMoYyhjMjMpW2NIXVtjSF1bY0hdW2NIXTMpbmMobjIpW05IXVtDSDJdYzRjKFtDSDJdTihbQ0gzXSlbQ0gzXSlbY0hdW2NIXVtjSF1bY0hdNA==

>  <s_i_glide_gridfile>  (1504) 
ATP-Grid

>  <s_lp_Force_Field>  (1504) 
OPLS_2005

>  <s_lp_Variant>  (1504) 
m_282030aaa____21890682____22360182____21973156-1

>  <s_lp_label>  (1504) 
1491_sdstereoexpander_1_neutralizer_1_epik_1_stereoizer_1

>  <s_m_source_file>  (1504) 
ATP-VSW-LIGPREP-002-in.maegz

>  <s_sd_BIOSOLVEIT.INFINISEE\_QUERY\_NAME>  (1504) 
Ref-Lig

>  <s_sd_BIOSOLVEIT.INFINISEE\_QUERY\_SMILES>  (1504) 
S(c1nc2c(cc1C[NH2+]Cc3ccc(cc3)C[NH+](C)C)cccc2)Cc4ccccc4

>  <s_sd_BIOSOLVEIT.INFINISEE\_REACTION\_NAME>  (1504) 
m_282030aaa

>  <s_sd_BIOSOLVEIT.INFINISEE\_REAGENT1\_SMILES>  (1504) 
[R1*]N(CC(=O)Nc1cc(Cl)ccc1)C

>  <s_sd_BIOSOLVEIT.INFINISEE\_REAGENT2\_SMILES>  (1504) 
[R2*]c1nc([R1*])c2c(n1)cccc2

>  <s_sd_BIOSOLVEIT.INFINISEE\_REAGENT3\_SMILES>  (1504) 
[R2*]NCc1c(cccc1)CN(C)C

>  <s_sd_BIOSOLVEIT.INFINISEE\_SPACE>  (1504) 
REALSpace_44bn_2023-08

>  <s_vsw_compound_code>  (1504) 
47682

>  <s_vsw_variant>  (1504) 
47682-1

>  <r_epik_Charging_Adjusted_Penalty>  (1504) 
0.080241410673556904

>  <r_epik_Ionization_Penalty>  (1504) 
0.0419

>  <r_epik_Ionization_Penalty_Charging>  (1504) 
0.0419

>  <r_epik_Ionization_Penalty_Neutral>  (1504) 
0

>  <r_epik_State_Penalty>  (1504) 
0.038300000000000001

>  <r_i_docking_score>  (1504) 
-4.0427630704109996

>  <r_i_glide_ecoul>  (1504) 
-7.6182432174682599

>  <r_i_glide_eff_state_penalty>  (1504) 
0.038300000000000001

>  <r_i_glide_einternal>  (1504) 
5.6586780548095703

>  <r_i_glide_emodel>  (1504) 
-56.677387481162597

>  <r_i_glide_energy>  (1504) 
-40.6143026351929

>  <r_i_glide_erotb>  (1504) 
0.67537164987395504

>  <r_i_glide_esite>  (1504) 
-0.20065130479403101

>  <r_i_glide_evdw>  (1504) 
-32.996059417724602

>  <r_i_glide_gscore>  (1504) 
-4.081063070411

>  <r_i_glide_hbond>  (1504) 
-0.20000000000000001

>  <r_i_glide_ligand_efficiency>  (1504) 
-0.11550751629745699

>  <r_i_glide_ligand_efficiency_ln>  (1504) 
-0.88747621824734502

>  <r_i_glide_ligand_efficiency_sa>  (1504) 
-0.37783274468639599

>  <r_i_glide_lipo>  (1504) 
-1.2765309880162401

>  <r_i_glide_metal>  (1504) 
-0

>  <r_i_glide_rewards>  (1504) 
-0.28671297396821699

>  <r_lp_Energy>  (1504) 
28.375298999999998

>  <r_qp_ACxDN^.5/SA>  (1504) 
0.015233

>  <r_qp_CIQPlogS>  (1504) 
-6.3700000000000001

>  <r_qp_EA(eV)>  (1504) 
1.0940000000000001

>  <r_qp_FISA>  (1504) 
53.322000000000003

>  <r_qp_FOSA>  (1504) 
191.125

>  <r_qp_IP(eV)>  (1504) 
8.4909999999999997

>  <r_qp_Jm>  (1504) 
0.37644302911014199

>  <r_qp_PISA>  (1504) 
390.32600000000002

>  <r_qp_PSA>  (1504) 
67.492999999999995

>  <r_qp_PercentHumanOralAbsorption>  (1504) 
100

>  <r_qp_QPPCaco>  (1504) 
771.17200000000003

>  <r_qp_QPPMDCK>  (1504) 
897.96199999999999

>  <r_qp_QPlogBB>  (1504) 
0.11

>  <r_qp_QPlogHERG>  (1504) 
-6.0810000000000004

>  <r_qp_QPlogKhsa>  (1504) 
0.65200000000000002

>  <r_qp_QPlogKp>  (1504) 
-2.3260000000000001

>  <r_qp_QPlogPC16>  (1504) 
15.333

>  <r_qp_QPlogPo/w>  (1504) 
4.7999999999999998

>  <r_qp_QPlogPoct>  (1504) 
23.786999999999999

>  <r_qp_QPlogPw>  (1504) 
12.765000000000001

>  <r_qp_QPlogS>  (1504) 
-3.7879999999999998

>  <r_qp_QPpolrz>  (1504) 
48.753

>  <r_qp_SASA>  (1504) 
696.29300000000001

>  <r_qp_SAamideO>  (1504) 
0

>  <r_qp_SAfluorine>  (1504) 
0

>  <r_qp_WPSA>  (1504) 
61.520000000000003

>  <r_qp_accptHB>  (1504) 
7.5

>  <r_qp_dip^2/V>  (1504) 
0.018775699999999999

>  <r_qp_dipole>  (1504) 
5.1689999999999996

>  <r_qp_donorHB>  (1504) 
2

>  <r_qp_glob>  (1504) 
0.87880849999999999

>  <r_qp_mol_MW>  (1504) 
489.01900000000001

>  <r_qp_volume>  (1504) 
1423.252

>  <r_sd_BIOSOLVEIT.INFINISEE\_FTREES\_SIMILARITY>  (1504) 
0.90700000000000003

>  <r_sd_BIOSOLVEIT.LOGP>  (1504) 
3.6147

>  <r_sd_BIOSOLVEIT.MOLECULAR\_WEIGHT>  (1504) 
490.02800000000002

>  <r_sd_BIOSOLVEIT.TPSA>  (1504) 
74.590000000000003

>  <i_epik_Tot_Q>  (1504) 
2

>  <i_epik_Tot_abs_Q>  (1504) 
2

>  <i_f3d_flags>  (1504) 
0

>  <i_i_glide_confnum>  (1504) 
2

>  <i_i_glide_lignum>  (1504) 
512

>  <i_i_glide_posenum>  (1504) 
8

>  <i_i_glide_rotatable_bonds>  (1504) 
10

>  <i_lp_mmshare_version>  (1504) 
65135

>  <i_m_ct_format>  (1504) 
2

>  <i_m_source_file_index>  (1504) 
1491

>  <i_qp_#NandO>  (1504) 
7

>  <i_qp_#acid>  (1504) 
0

>  <i_qp_#amide>  (1504) 
0

>  <i_qp_#amidine>  (1504) 
0

>  <i_qp_#amine>  (1504) 
1

>  <i_qp_#in34>  (1504) 
0

>  <i_qp_#in56>  (1504) 
22

>  <i_qp_#metab>  (1504) 
5

>  <i_qp_#nonHatm>  (1504) 
35

>  <i_qp_#noncon>  (1504) 
0

>  <i_qp_#ringatoms>  (1504) 
22

>  <i_qp_#rotor>  (1504) 
9

>  <i_qp_#rtvFG>  (1504) 
0

>  <i_qp_#stars>  (1504) 
0

>  <i_qp_CNS>  (1504) 
1

>  <i_qp_HumanOralAbsorption>  (1504) 
3

>  <i_qp_RuleOfFive>  (1504) 
0

>  <i_qp_RuleOfThree>  (1504) 
0

>  <i_sd_BIOSOLVEIT.INFINISEE\_REAGENT1\_NAME>  (1504) 
21890682

>  <i_sd_BIOSOLVEIT.INFINISEE\_REAGENT2\_NAME>  (1504) 
22360182

>  <i_sd_BIOSOLVEIT.INFINISEE\_REAGENT3\_NAME>  (1504) 
21973156

>  <i_sd_BIOSOLVEIT.INFINISEE\_RESULT\_RANK>  (1504) 
58636

>  <i_sd_version>  (1504) 
0

>  <b_lp_Chiralities_Consistent>  (1504) 
1

>  <b_sd_chiral_flag>  (1504) 
0

>  <canonical_id>  (1504) 
ATP-HTVS-ECFCDEE54331

>  <compound_code>  (1504) 
47682

>  <title>  (1504) 
m_282030aaa____21890682____22360182____21973156

>  <variant>  (1504) 
47682-1

>  <source_file>  (1504) 
运行/运行/ATP-VSW/ATP-VSW-DOCK_HTVS_1-002_lib.maegz

>  <canonical_smiles>  (1504) 
CN(CC(=O)Nc1cccc(Cl)c1)c1nc(NCc2ccccc2C[NH+](C)C)[nH+]c2ccccc12

>  <scaffold>  (1504) 
O=C(CNc1nc(NCc2ccccc2)[nH+]c2ccccc12)Nc1ccccc1

>  <molecular_formula>  (1504) 
C27H31ClN6O+2

$$$$
ATP-HTVS-ED186549DA4C
     RDKit          3D

 67 71  0  0  0  0  0  0  0  0999 V2000
  199.8492  178.0291  154.1008 O   0  0  0  0  0  0  0  0  0  0  0  0
  199.3443  178.4428  155.1361 C   0  0  0  0  0  0  0  0  0  0  0  0
  198.3769  179.3720  155.1497 N   0  0  0  0  0  0  0  0  0  0  0  0
  198.0221  180.2514  154.1005 C   0  0  0  0  0  0  0  0  0  0  0  0
  198.4813  180.1283  152.8340 N   0  0  0  0  0  0  0  0  0  0  0  0
  198.0894  180.9748  151.8619 C   0  0  0  0  0  0  0  0  0  0  0  0
  197.1836  182.0329  152.1251 C   0  0  0  0  0  0  0  0  0  0  0  0
  196.7109  182.1848  153.4420 C   0  0  0  0  0  0  0  0  0  0  0  0
  197.1293  181.2970  154.4468 C   0  0  0  0  0  0  0  0  0  0  0  0
  196.6158  181.4680  155.7426 N   0  0  0  0  0  0  0  0  0  0  0  0
  197.5378  181.6182  156.8618 C   0  0  1  0  0  0  0  0  0  0  0  0
  197.2872  182.8323  157.7372 C   0  0  0  0  0  0  0  0  0  0  0  0
  198.3651  183.4352  158.4180 C   0  0  0  0  0  0  0  0  0  0  0  0
  198.1510  184.5713  159.2205 C   0  0  0  0  0  0  0  0  0  0  0  0
  196.8542  185.1095  159.3476 C   0  0  0  0  0  0  0  0  0  0  0  0
  195.7729  184.4963  158.6809 C   0  0  0  0  0  0  0  0  0  0  0  0
  195.9859  183.3558  157.8875 C   0  0  0  0  0  0  0  0  0  0  0  0
  196.6195  186.3645  160.1635 C   0  0  1  0  0  0  0  0  0  0  0  0
  197.1153  187.5979  159.4997 N   0  0  1  0  0  0  0  0  0  0  0  0
  196.6324  187.7663  158.1083 C   0  0  2  0  0  0  0  0  0  0  0  0
  196.8569  188.8021  160.3229 C   0  0  2  0  0  0  0  0  0  0  0  0
  196.7699  182.9016  151.0959 C   0  0  0  0  0  0  0  0  0  0  0  0
  197.2650  182.7260  149.7865 C   0  0  0  0  0  0  0  0  0  0  0  0
  198.1668  181.6803  149.5126 C   0  0  0  0  0  0  0  0  0  0  0  0
  198.5727  180.8131  150.5428 C   0  0  0  0  0  0  0  0  0  0  0  0
  199.7498  177.8563  156.4911 C   0  0  1  0  0  0  0  0  0  0  0  0
  201.2709  177.7013  156.7168 C   0  0  1  0  0  0  0  0  0  0  0  0
  201.9362  176.7351  155.7533 C   0  0  0  0  0  0  0  0  0  0  0  0
  201.8284  175.3418  155.9710 C   0  0  0  0  0  0  0  0  0  0  0  0
  202.4030  174.4976  155.0120 C   0  0  0  0  0  0  0  0  0  0  0  0
  202.4174  173.1461  154.9794 O   0  0  0  0  0  0  0  0  0  0  0  0
  203.1156  172.8030  153.8125 C   0  0  1  0  0  0  0  0  0  0  0  0
  203.4648  173.9677  153.1184 O   0  0  0  0  0  0  0  0  0  0  0  0
  203.0362  174.9901  153.8917 C   0  0  0  0  0  0  0  0  0  0  0  0
  203.1534  176.3635  153.6484 C   0  0  0  0  0  0  0  0  0  0  0  0
  202.6180  177.2382  154.6173 C   0  0  0  0  0  0  0  0  0  0  0  0
  197.9113  179.5710  156.0255 H   0  0  0  0  0  0  0  0  0  0  0  0
  196.0114  182.9715  153.6857 H   0  0  0  0  0  0  0  0  0  0  0  0
  195.7136  181.9274  155.8368 H   0  0  0  0  0  0  0  0  0  0  0  0
  197.4744  180.7318  157.4966 H   0  0  0  0  0  0  0  0  0  0  0  0
  198.5703  181.6802  156.5103 H   0  0  0  0  0  0  0  0  0  0  0  0
  199.3661  183.0324  158.3160 H   0  0  0  0  0  0  0  0  0  0  0  0
  198.9893  185.0285  159.7262 H   0  0  0  0  0  0  0  0  0  0  0  0
  194.7725  184.8942  158.7561 H   0  0  0  0  0  0  0  0  0  0  0  0
  195.1437  182.9064  157.3800 H   0  0  0  0  0  0  0  0  0  0  0  0
  195.5553  186.4560  160.3855 H   0  0  0  0  0  0  0  0  0  0  0  0
  197.1286  186.2433  161.1141 H   0  0  0  0  0  0  0  0  0  0  0  0
  195.5482  187.7975  158.0941 H   0  0  0  0  0  0  0  0  0  0  0  0
  196.9539  186.9484  157.4601 H   0  0  0  0  0  0  0  0  0  0  0  0
  197.0164  188.6880  157.6662 H   0  0  0  0  0  0  0  0  0  0  0  0
  195.7861  188.9722  160.4512 H   0  0  0  0  0  0  0  0  0  0  0  0
  197.2824  189.6916  159.8565 H   0  0  0  0  0  0  0  0  0  0  0  0
  197.3022  188.7071  161.3149 H   0  0  0  0  0  0  0  0  0  0  0  0
  196.0797  183.7013  151.3132 H   0  0  0  0  0  0  0  0  0  0  0  0
  196.9543  183.3951  148.9956 H   0  0  0  0  0  0  0  0  0  0  0  0
  198.5464  181.5453  148.5107 H   0  0  0  0  0  0  0  0  0  0  0  0
  199.2647  180.0088  150.3306 H   0  0  0  0  0  0  0  0  0  0  0  0
  199.3908  178.5134  157.2799 H   0  0  0  0  0  0  0  0  0  0  0  0
  199.2399  176.9013  156.6193 H   0  0  0  0  0  0  0  0  0  0  0  0
  201.7636  178.6729  156.6635 H   0  0  0  0  0  0  0  0  0  0  0  0
  201.4483  177.3443  157.7332 H   0  0  0  0  0  0  0  0  0  0  0  0
  201.3014  174.9463  156.8285 H   0  0  0  0  0  0  0  0  0  0  0  0
  204.0303  172.2729  154.0808 H   0  0  0  0  0  0  0  0  0  0  0  0
  202.4766  172.1909  153.1774 H   0  0  0  0  0  0  0  0  0  0  0  0
  203.6191  176.7408  152.7503 H   0  0  0  0  0  0  0  0  0  0  0  0
  202.6607  178.3029  154.4469 H   0  0  0  0  0  0  0  0  0  0  0  0
  198.1193  187.5040  159.4396 H   0  0  0  0  0  0  0  0  0  0  0  0
  1  2  2  0
  2  3  1  0
  2 26  1  0
  3  4  1  0
  3 37  1  0
  4  5  2  0
  4  9  1  0
  5  6  1  0
  6  7  1  0
  6 25  2  0
  7  8  1  0
  7 22  2  0
  8  9  2  0
  8 38  1  0
  9 10  1  0
 10 11  1  0
 10 39  1  0
 11 12  1  0
 11 40  1  1
 11 41  1  0
 12 13  1  0
 12 17  2  0
 13 14  2  0
 13 42  1  0
 14 15  1  0
 14 43  1  0
 15 16  2  0
 15 18  1  0
 16 17  1  0
 16 44  1  0
 17 45  1  0
 18 19  1  0
 18 46  1  1
 18 47  1  0
 19 20  1  0
 19 21  1  0
 19 67  1  6
 20 48  1  1
 20 49  1  0
 20 50  1  0
 21 51  1  1
 21 52  1  0
 21 53  1  0
 22 23  1  0
 22 54  1  0
 23 24  2  0
 23 55  1  0
 24 25  1  0
 24 56  1  0
 25 57  1  0
 26 27  1  0
 26 58  1  1
 26 59  1  0
 27 28  1  0
 27 60  1  1
 27 61  1  0
 28 29  2  0
 28 36  1  0
 29 30  1  0
 29 62  1  0
 30 31  1  0
 30 34  2  0
 31 32  1  0
 32 33  1  0
 32 63  1  1
 32 64  1  0
 33 34  1  0
 34 35  1  0
 35 36  2  0
 35 65  1  0
 36 66  1  0
M  CHG  1  19   1
M  END
>  <s_epik_Chemistry_Notes>  (1505) 
This compound contains an acetal/aminal-like group ( X-CH(R)-Y where X, Y are N, S, or O) that may be acid/base labile, releasing an aldehyde.

>  <s_epik_cmdline>  (1505) 
J2VwaWtfcHl0aG9uJywgJy1waCcsICc3LjAwMDAwMCcsICctcGh0JywgJzIuMDAwMDAwJywgJy1tcycsICcxNicsICctdG4nLCAnOCcsICctbWEnLCAnMjAwJywgJy1pbWFlJywgJzxpbmZpbGUubWFlPicsICctb21hZScsICc8b3V0ZmlsZS5tYWU+Jw==

>  <s_epik_input>  (1505) 
TzFbQ0gyXU9jKGMxMilbY0hdW2NIXWMoW2NIXTIpW0NIMl1bQ0gyXUMoPU8pW05IXWMobjMpYyhbY0hdYyhjMzQpW2NIXVtjSF1bY0hdW2NIXTQpW05IXVtDSDJdYzVbY0hdW2NIXWMoW2NIXVtjSF01KVtDSDJdTihbQ0gzXSlbQ0gzXQ==

>  <s_i_glide_gridfile>  (1505) 
ATP-Grid

>  <s_lp_Force_Field>  (1505) 
OPLS_2005

>  <s_lp_Variant>  (1505) 
rxn502b____EMOL527362____EMOL44466703____EMOL50155899-1

>  <s_lp_label>  (1505) 
2578_sdstereoexpander_1_neutralizer_1_epik_1_stereoizer_1

>  <s_m_source_file>  (1505) 
ATP-VSW-LIGPREP-002-in.maegz

>  <s_sd_BIOSOLVEIT.INFINISEE\_QUERY\_NAME>  (1505) 
Ref-Lig

>  <s_sd_BIOSOLVEIT.INFINISEE\_QUERY\_SMILES>  (1505) 
S(c1nc2c(cc1C[NH2+]Cc3ccc(cc3)C[NH+](C)C)cccc2)Cc4ccccc4

>  <s_sd_BIOSOLVEIT.INFINISEE\_REACTION\_NAME>  (1505) 
rxn502b

>  <s_sd_BIOSOLVEIT.INFINISEE\_REAGENT1\_NAME>  (1505) 
EMOL527362

>  <s_sd_BIOSOLVEIT.INFINISEE\_REAGENT1\_SMILES>  (1505) 
O=C(O)CCc1cc2OCOc2cc1

>  <s_sd_BIOSOLVEIT.INFINISEE\_REAGENT2\_NAME>  (1505) 
EMOL44466703

>  <s_sd_BIOSOLVEIT.INFINISEE\_REAGENT2\_SMILES>  (1505) 
Brc1c(nc2c(c1)cccc2)N

>  <s_sd_BIOSOLVEIT.INFINISEE\_REAGENT3\_NAME>  (1505) 
EMOL50155899

>  <s_sd_BIOSOLVEIT.INFINISEE\_REAGENT3\_SMILES>  (1505) 
N(Cc1ccc(cc1)CN)(C)C

>  <s_sd_BIOSOLVEIT.INFINISEE\_SPACE>  (1505) 
eXplore_7tr_2022-12

>  <s_vsw_compound_code>  (1505) 
82466

>  <s_vsw_variant>  (1505) 
82466-1

>  <r_epik_Charging_Adjusted_Penalty>  (1505) 
0.086682501927380501

>  <r_epik_Ionization_Penalty>  (1505) 
0.048000000000000001

>  <r_epik_Ionization_Penalty_Charging>  (1505) 
0.039199999999999999

>  <r_epik_Ionization_Penalty_Neutral>  (1505) 
0.0088000000000000005

>  <r_epik_State_Penalty>  (1505) 
0.047500000000000001

>  <r_i_docking_score>  (1505) 
-4.4172401586628602

>  <r_i_glide_ecoul>  (1505) 
-7.9903726577758798

>  <r_i_glide_eff_state_penalty>  (1505) 
0.047500000000000001

>  <r_i_glide_einternal>  (1505) 
8.5384082794189506

>  <r_i_glide_emodel>  (1505) 
-59.095706369512797

>  <r_i_glide_energy>  (1505) 
-46.765114784240701

>  <r_i_glide_erotb>  (1505) 
0.69452035073392704

>  <r_i_glide_esite>  (1505) 
-0.26487613379101399

>  <r_i_glide_evdw>  (1505) 
-38.774742126464801

>  <r_i_glide_gscore>  (1505) 
-4.4647401586628597

>  <r_i_glide_hbond>  (1505) 
-0.0638180951798447

>  <r_i_glide_ligand_efficiency>  (1505) 
-0.12270111551841301

>  <r_i_glide_ligand_efficiency_ln>  (1505) 
-0.96372246258259098

>  <r_i_glide_ligand_efficiency_sa>  (1505) 
-0.40515015631606

>  <r_i_glide_lipo>  (1505) 
-1.5813285481635799

>  <r_i_glide_metal>  (1505) 
-0

>  <r_i_glide_rewards>  (1505) 
-0.111944727272726

>  <r_lp_Energy>  (1505) 
37.980891

>  <r_lp_tautomer_probability>  (1505) 
1

>  <r_qp_ACxDN^.5/SA>  (1505) 
0.013582199999999999

>  <r_qp_CIQPlogS>  (1505) 
-6.1589999999999998

>  <r_qp_EA(eV)>  (1505) 
0.73199999999999998

>  <r_qp_FISA>  (1505) 
67.805000000000007

>  <r_qp_FOSA>  (1505) 
348.178

>  <r_qp_IP(eV)>  (1505) 
8.3450000000000006

>  <r_qp_Jm>  (1505) 
0.0031749972237480099

>  <r_qp_PISA>  (1505) 
416.99599999999998

>  <r_qp_PSA>  (1505) 
82.219999999999999

>  <r_qp_PercentHumanOralAbsorption>  (1505) 
100

>  <r_qp_QPPCaco>  (1505) 
562.08799999999997

>  <r_qp_QPPMDCK>  (1505) 
293.62799999999999

>  <r_qp_QPlogBB>  (1505) 
-0.33100000000000002

>  <r_qp_QPlogHERG>  (1505) 
-7.8710000000000004

>  <r_qp_QPlogKhsa>  (1505) 
0.80100000000000005

>  <r_qp_QPlogKp>  (1505) 
-2.4990000000000001

>  <r_qp_QPlogPC16>  (1505) 
16.597999999999999

>  <r_qp_QPlogPo/w>  (1505) 
4.9749999999999996

>  <r_qp_QPlogPoct>  (1505) 
25.363

>  <r_qp_QPlogPw>  (1505) 
13.845000000000001

>  <r_qp_QPlogS>  (1505) 
-5.6829999999999998

>  <r_qp_QPpolrz>  (1505) 
53.890999999999998

>  <r_qp_SASA>  (1505) 
832.97799999999995

>  <r_qp_SAamideO>  (1505) 
0

>  <r_qp_SAfluorine>  (1505) 
0

>  <r_qp_WPSA>  (1505) 
0

>  <r_qp_accptHB>  (1505) 
8

>  <r_qp_dip^2/V>  (1505) 
0.027015999999999998

>  <r_qp_dipole>  (1505) 
6.4610000000000003

>  <r_qp_donorHB>  (1505) 
2

>  <r_qp_glob>  (1505) 
0.77600860000000005

>  <r_qp_mol_MW>  (1505) 
482.58100000000002

>  <r_qp_volume>  (1505) 
1545.2639999999999

>  <r_sd_BIOSOLVEIT.INFINISEE\_FTREES\_SIMILARITY>  (1505) 
0.91200000000000003

>  <r_sd_BIOSOLVEIT.LOGP>  (1505) 
3.7913999999999999

>  <r_sd_BIOSOLVEIT.MOLECULAR\_WEIGHT>  (1505) 
483.589

>  <r_sd_BIOSOLVEIT.TPSA>  (1505) 
76.920000000000002

>  <i_epik_Tot_Q>  (1505) 
1

>  <i_epik_Tot_abs_Q>  (1505) 
1

>  <i_f3d_flags>  (1505) 
0

>  <i_i_glide_confnum>  (1505) 
1

>  <i_i_glide_lignum>  (1505) 
1159

>  <i_i_glide_posenum>  (1505) 
19

>  <i_i_glide_rotatable_bonds>  (1505) 
10

>  <i_lp_mmshare_version>  (1505) 
65135

>  <i_m_ct_format>  (1505) 
2

>  <i_m_source_file_index>  (1505) 
2578

>  <i_qp_#NandO>  (1505) 
7

>  <i_qp_#acid>  (1505) 
0

>  <i_qp_#amide>  (1505) 
0

>  <i_qp_#amidine>  (1505) 
0

>  <i_qp_#amine>  (1505) 
1

>  <i_qp_#in34>  (1505) 
0

>  <i_qp_#in56>  (1505) 
25

>  <i_qp_#metab>  (1505) 
7

>  <i_qp_#nonHatm>  (1505) 
36

>  <i_qp_#noncon>  (1505) 
1

>  <i_qp_#ringatoms>  (1505) 
25

>  <i_qp_#rotor>  (1505) 
9

>  <i_qp_#rtvFG>  (1505) 
1

>  <i_qp_#stars>  (1505) 
0

>  <i_qp_CNS>  (1505) 
1

>  <i_qp_HumanOralAbsorption>  (1505) 
3

>  <i_qp_RuleOfFive>  (1505) 
0

>  <i_qp_RuleOfThree>  (1505) 
1

>  <i_sd_BIOSOLVEIT.INFINISEE\_RESULT\_RANK>  (1505) 
38817

>  <i_sd_version>  (1505) 
0

>  <b_lp_Chiralities_Consistent>  (1505) 
1

>  <b_sd_chiral_flag>  (1505) 
0

>  <canonical_id>  (1505) 
ATP-HTVS-ED186549DA4C

>  <compound_code>  (1505) 
82466

>  <title>  (1505) 
rxn502b____EMOL527362____EMOL44466703____EMOL50155899

>  <variant>  (1505) 
82466-1

>  <source_file>  (1505) 
运行/运行/ATP-VSW/ATP-VSW-DOCK_HTVS_1-002_lib.maegz

>  <canonical_smiles>  (1505) 
C[NH+](C)Cc1ccc(CNc2cc3ccccc3nc2NC(=O)CCc2ccc3c(c2)OCO3)cc1

>  <scaffold>  (1505) 
O=C(CCc1ccc2c(c1)OCO2)Nc1nc2ccccc2cc1NCc1ccccc1

>  <molecular_formula>  (1505) 
C29H31N4O3+

$$$$
ATP-HTVS-ED381154F376
     RDKit          3D

 58 61  0  0  0  0  0  0  0  0999 V2000
  198.3034  186.2360  150.5322 Cl  0  0  0  0  0  0  0  0  0  0  0  0
  197.8492  184.5716  150.5552 C   0  0  0  0  0  0  0  0  0  0  0  0
  198.1799  183.7384  149.4711 C   0  0  0  0  0  0  0  0  0  0  0  0
  197.8279  182.3752  149.5011 C   0  0  0  0  0  0  0  0  0  0  0  0
  197.1417  181.8324  150.6056 C   0  0  0  0  0  0  0  0  0  0  0  0
  196.8482  180.4854  150.5507 O   0  0  0  0  0  0  0  0  0  0  0  0
  196.3495  179.8361  151.7157 C   0  0  1  0  0  0  0  0  0  0  0  0
  197.3732  179.7015  152.8325 C   0  0  0  0  0  0  0  0  0  0  0  0
  197.0774  180.2921  153.9870 N   0  0  0  0  0  0  0  0  0  0  0  0
  197.9498  180.1478  155.0065 C   0  0  0  0  0  0  0  0  0  0  0  0
  197.6714  180.8235  156.2074 N   0  0  0  0  0  0  0  0  0  0  0  0
  196.3499  181.4220  156.4023 C   0  0  1  0  0  0  0  0  0  0  0  0
  196.1817  182.0849  157.7964 C   0  0  2  0  0  0  0  0  0  0  0  0
  194.7556  182.4493  158.0853 N   0  0  2  0  0  0  0  0  0  0  0  0
  194.5657  183.4635  159.1536 C   0  0  2  0  0  0  0  0  0  0  0  0
  193.8822  181.2747  158.3104 C   0  0  2  0  0  0  0  0  0  0  0  0
  197.1205  183.2873  157.9364 C   0  0  0  0  0  0  0  0  0  0  0  0
  197.1609  184.2879  156.9375 C   0  0  0  0  0  0  0  0  0  0  0  0
  197.9876  185.4149  157.0930 C   0  0  0  0  0  0  0  0  0  0  0  0
  198.7797  185.5571  158.2460 C   0  0  0  0  0  0  0  0  0  0  0  0
  199.5695  186.6583  158.3943 O   0  0  0  0  0  0  0  0  0  0  0  0
  198.7533  184.5608  159.2423 C   0  0  0  0  0  0  0  0  0  0  0  0
  197.9225  183.4350  159.0889 C   0  0  0  0  0  0  0  0  0  0  0  0
  199.1219  179.3674  154.8566 C   0  0  0  0  0  0  0  0  0  0  0  0
  199.3338  178.7752  153.5823 C   0  0  0  0  0  0  0  0  0  0  0  0
  198.4550  178.9723  152.5760 N   0  0  0  0  0  0  0  0  0  0  0  0
  200.4757  177.9729  153.3844 C   0  0  0  0  0  0  0  0  0  0  0  0
  201.4080  177.7735  154.4215 C   0  0  0  0  0  0  0  0  0  0  0  0
  201.2040  178.3799  155.6747 C   0  0  0  0  0  0  0  0  0  0  0  0
  200.0625  179.1730  155.8964 C   0  0  0  0  0  0  0  0  0  0  0  0
  196.7912  182.6857  151.6819 C   0  0  0  0  0  0  0  0  0  0  0  0
  197.1541  184.0454  151.6591 C   0  0  0  0  0  0  0  0  0  0  0  0
  198.7082  184.1407  148.6204 H   0  0  0  0  0  0  0  0  0  0  0  0
  198.0916  181.7392  148.6695 H   0  0  0  0  0  0  0  0  0  0  0  0
  195.4400  180.3174  152.0693 H   0  0  0  0  0  0  0  0  0  0  0  0
  196.0464  178.8322  151.4250 H   0  0  0  0  0  0  0  0  0  0  0  0
  198.0513  180.3650  157.0223 H   0  0  0  0  0  0  0  0  0  0  0  0
  196.1476  182.1401  155.6078 H   0  0  0  0  0  0  0  0  0  0  0  0
  195.6217  180.6352  156.2591 H   0  0  0  0  0  0  0  0  0  0  0  0
  196.4755  181.3567  158.5568 H   0  0  0  0  0  0  0  0  0  0  0  0
  194.9929  183.1151  160.0935 H   0  0  0  0  0  0  0  0  0  0  0  0
  193.5103  183.6707  159.3249 H   0  0  0  0  0  0  0  0  0  0  0  0
  195.0204  184.4230  158.9107 H   0  0  0  0  0  0  0  0  0  0  0  0
  194.2389  180.6790  159.1502 H   0  0  0  0  0  0  0  0  0  0  0  0
  193.8318  180.6363  157.4300 H   0  0  0  0  0  0  0  0  0  0  0  0
  192.8591  181.5889  158.5206 H   0  0  0  0  0  0  0  0  0  0  0  0
  196.5502  184.2127  156.0500 H   0  0  0  0  0  0  0  0  0  0  0  0
  197.9998  186.1794  156.3299 H   0  0  0  0  0  0  0  0  0  0  0  0
  200.0459  186.6790  159.2098 H   0  0  0  0  0  0  0  0  0  0  0  0
  199.3565  184.6616  160.1316 H   0  0  0  0  0  0  0  0  0  0  0  0
  197.8994  182.6810  159.8636 H   0  0  0  0  0  0  0  0  0  0  0  0
  200.6314  177.5076  152.4225 H   0  0  0  0  0  0  0  0  0  0  0  0
  202.2802  177.1569  154.2558 H   0  0  0  0  0  0  0  0  0  0  0  0
  201.9277  178.2313  156.4659 H   0  0  0  0  0  0  0  0  0  0  0  0
  199.9276  179.6295  156.8657 H   0  0  0  0  0  0  0  0  0  0  0  0
  196.2479  182.3343  152.5447 H   0  0  0  0  0  0  0  0  0  0  0  0
  196.8947  184.6788  152.4942 H   0  0  0  0  0  0  0  0  0  0  0  0
  194.4040  182.8462  157.2139 H   0  0  0  0  0  0  0  0  0  0  0  0
  1  2  1  0
  2  3  1  0
  2 32  2  0
  3  4  2  0
  3 33  1  0
  4  5  1  0
  4 34  1  0
  5  6  1  0
  5 31  2  0
  6  7  1  0
  7  8  1  0
  7 35  1  1
  7 36  1  0
  8  9  2  0
  8 26  1  0
  9 10  1  0
 10 11  1  0
 10 24  2  0
 11 12  1  0
 11 37  1  0
 12 13  1  0
 12 38  1  6
 12 39  1  0
 13 14  1  0
 13 17  1  0
 13 40  1  1
 14 15  1  0
 14 16  1  0
 14 58  1  6
 15 41  1  1
 15 42  1  0
 15 43  1  0
 16 44  1  1
 16 45  1  0
 16 46  1  0
 17 18  1  0
 17 23  2  0
 18 19  2  0
 18 47  1  0
 19 20  1  0
 19 48  1  0
 20 21  1  0
 20 22  2  0
 21 49  1  0
 22 23  1  0
 22 50  1  0
 23 51  1  0
 24 25  1  0
 24 30  1  0
 25 26  2  0
 25 27  1  0
 27 28  2  0
 27 52  1  0
 28 29  1  0
 28 53  1  0
 29 30  2  0
 29 54  1  0
 30 55  1  0
 31 32  1  0
 31 56  1  0
 32 57  1  0
M  CHG  1  14   1
M  END
>  <s_epik_cmdline>  (1506) 
J2VwaWtfcHl0aG9uJywgJy1waCcsICc3LjAwMDAwMCcsICctcGh0JywgJzIuMDAwMDAwJywgJy1tcycsICcxNicsICctdG4nLCAnOCcsICctbWEnLCAnMjAwJywgJy1pbWFlJywgJzxpbmZpbGUubWFlPicsICctb21hZScsICc8b3V0ZmlsZS5tYWU+Jw==

>  <s_epik_input>  (1506) 
Q2xjMVtjSF1bY0hdYyhbY0hdW2NIXTEpT1tDSDJdYyhuYyhjMjMpW2NIXVtjSF1bY0hdW2NIXTMpbmMyW05IXVtDSDJdW0NASF0oTihbQ0gzXSlbQ0gzXSljNFtjSF1bY0hdYyhbT0hdKVtjSF1bY0hdNA==

>  <s_i_glide_gridfile>  (1506) 
ATP-Grid

>  <s_lp_Force_Field>  (1506) 
OPLS_2005

>  <s_lp_Variant>  (1506) 
YAS_R006____OTV5753507____OTV999465____OTV1000393-1

>  <s_lp_label>  (1506) 
108_sdstereoexpander_1_neutralizer_1_epik_1_stereoizer_1

>  <s_m_source_file>  (1506) 
ATP-VSW-LIGPREP-001-in.maegz

>  <s_sd_BIOSOLVEIT.INFINISEE\_QUERY\_NAME>  (1506) 
Ref-Lig

>  <s_sd_BIOSOLVEIT.INFINISEE\_QUERY\_SMILES>  (1506) 
S(c1nc2c(cc1C[NH2+]Cc3ccc(cc3)C[NH+](C)C)cccc2)Cc4ccccc4

>  <s_sd_BIOSOLVEIT.INFINISEE\_REACTION\_NAME>  (1506) 
YAS_R006

>  <s_sd_BIOSOLVEIT.INFINISEE\_REAGENT1\_NAME>  (1506) 
OTV5753507

>  <s_sd_BIOSOLVEIT.INFINISEE\_REAGENT1\_SMILES>  (1506) 
Nc1ccccc1

>  <s_sd_BIOSOLVEIT.INFINISEE\_REAGENT2\_NAME>  (1506) 
OTV999465

>  <s_sd_BIOSOLVEIT.INFINISEE\_REAGENT2\_SMILES>  (1506) 
Clc1ccc(OCC(=O)O)cc1

>  <s_sd_BIOSOLVEIT.INFINISEE\_REAGENT3\_NAME>  (1506) 
OTV1000393

>  <s_sd_BIOSOLVEIT.INFINISEE\_REAGENT3\_SMILES>  (1506) 
Oc1ccc(cc1)C(N(C)C)CN

>  <s_sd_BIOSOLVEIT.INFINISEE\_SPACE>  (1506) 
CHEMriya_12bn_2022-01

>  <s_vsw_compound_code>  (1506) 
3425

>  <s_vsw_variant>  (1506) 
3425-1

>  <r_epik_Charging_Adjusted_Penalty>  (1506) 
0.072945810160635505

>  <r_epik_Ionization_Penalty>  (1506) 
0.042200000000000001

>  <r_epik_Ionization_Penalty_Charging>  (1506) 
0.036499999999999998

>  <r_epik_Ionization_Penalty_Neutral>  (1506) 
0.0057999999999999996

>  <r_epik_State_Penalty>  (1506) 
0.036499999999999998

>  <r_i_docking_score>  (1506) 
-4.6795303145686002

>  <r_i_glide_ecoul>  (1506) 
-10.3661699295044

>  <r_i_glide_eff_state_penalty>  (1506) 
0.036499999999999998

>  <r_i_glide_einternal>  (1506) 
2.4221546649932901

>  <r_i_glide_emodel>  (1506) 
-64.418901066215895

>  <r_i_glide_energy>  (1506) 
-46.546669960022001

>  <r_i_glide_erotb>  (1506) 
0.69306302670410602

>  <r_i_glide_esite>  (1506) 
-0.18128025226771299

>  <r_i_glide_evdw>  (1506) 
-36.180500030517599

>  <r_i_glide_gscore>  (1506) 
-4.7160303145685996

>  <r_i_glide_hbond>  (1506) 
-0.20000000000000001

>  <r_i_glide_ligand_efficiency>  (1506) 
-0.14623532233026901

>  <r_i_glide_ligand_efficiency_ln>  (1506) 
-1.0478743966106101

>  <r_i_glide_ligand_efficiency_sa>  (1506) 
-0.46426820846761102

>  <r_i_glide_lipo>  (1506) 
-1.1849664820835499

>  <r_i_glide_metal>  (1506) 
-0

>  <r_i_glide_rewards>  (1506) 
-0.478896115969904

>  <r_lp_Energy>  (1506) 
17.022202

>  <r_lp_tautomer_probability>  (1506) 
0.99997800023936201

>  <r_qp_ACxDN^.5/SA>  (1506) 
0.0131769

>  <r_qp_CIQPlogS>  (1506) 
-6.1459999999999999

>  <r_qp_EA(eV)>  (1506) 
1.069

>  <r_qp_FISA>  (1506) 
80.676000000000002

>  <r_qp_FOSA>  (1506) 
178.14599999999999

>  <r_qp_IP(eV)>  (1506) 
8.6790000000000003

>  <r_qp_Jm>  (1506) 
0.16387633849514499

>  <r_qp_PISA>  (1506) 
324.00999999999999

>  <r_qp_PSA>  (1506) 
65.031999999999996

>  <r_qp_PercentHumanOralAbsorption>  (1506) 
100

>  <r_qp_QPPCaco>  (1506) 
424.37700000000001

>  <r_qp_QPPMDCK>  (1506) 
468.488

>  <r_qp_QPlogBB>  (1506) 
-0.107

>  <r_qp_QPlogHERG>  (1506) 
-5.5629999999999997

>  <r_qp_QPlogKhsa>  (1506) 
0.58599999999999997

>  <r_qp_QPlogKp>  (1506) 
-3.0630000000000002

>  <r_qp_QPlogPC16>  (1506) 
13.976000000000001

>  <r_qp_QPlogPo/w>  (1506) 
4.319

>  <r_qp_QPlogPoct>  (1506) 
20.986000000000001

>  <r_qp_QPlogPw>  (1506) 
10.897

>  <r_qp_QPlogS>  (1506) 
-3.3740000000000001

>  <r_qp_QPpolrz>  (1506) 
42.899999999999999

>  <r_qp_SASA>  (1506) 
643.95399999999995

>  <r_qp_SAamideO>  (1506) 
0

>  <r_qp_SAfluorine>  (1506) 
0

>  <r_qp_WPSA>  (1506) 
61.122

>  <r_qp_accptHB>  (1506) 
6

>  <r_qp_dip^2/V>  (1506) 
0.022636799999999999

>  <r_qp_dipole>  (1506) 
5.4100000000000001

>  <r_qp_donorHB>  (1506) 
2

>  <r_qp_glob>  (1506) 
0.89126130000000003

>  <r_qp_mol_MW>  (1506) 
448.95100000000002

>  <r_qp_volume>  (1506) 
1292.8309999999999

>  <r_sd_BIOSOLVEIT.INFINISEE\_FTREES\_SIMILARITY>  (1506) 
0.90700000000000003

>  <r_sd_BIOSOLVEIT.LOGP>  (1506) 
3.8654999999999999

>  <r_sd_BIOSOLVEIT.MOLECULAR\_WEIGHT>  (1506) 
449.959

>  <r_sd_BIOSOLVEIT.TPSA>  (1506) 
71.709999999999994

>  <i_epik_Tot_Q>  (1506) 
1

>  <i_epik_Tot_abs_Q>  (1506) 
1

>  <i_f3d_flags>  (1506) 
0

>  <i_i_glide_confnum>  (1506) 
7

>  <i_i_glide_lignum>  (1506) 
16

>  <i_i_glide_posenum>  (1506) 
19

>  <i_i_glide_rotatable_bonds>  (1506) 
9

>  <i_lp_mmshare_version>  (1506) 
65135

>  <i_m_ct_format>  (1506) 
2

>  <i_m_source_file_index>  (1506) 
108

>  <i_qp_#NandO>  (1506) 
6

>  <i_qp_#acid>  (1506) 
0

>  <i_qp_#amide>  (1506) 
0

>  <i_qp_#amidine>  (1506) 
0

>  <i_qp_#amine>  (1506) 
1

>  <i_qp_#in34>  (1506) 
0

>  <i_qp_#in56>  (1506) 
22

>  <i_qp_#metab>  (1506) 
5

>  <i_qp_#nonHatm>  (1506) 
32

>  <i_qp_#noncon>  (1506) 
0

>  <i_qp_#ringatoms>  (1506) 
22

>  <i_qp_#rotor>  (1506) 
9

>  <i_qp_#rtvFG>  (1506) 
0

>  <i_qp_#stars>  (1506) 
0

>  <i_qp_CNS>  (1506) 
1

>  <i_qp_HumanOralAbsorption>  (1506) 
3

>  <i_qp_RuleOfFive>  (1506) 
0

>  <i_qp_RuleOfThree>  (1506) 
0

>  <i_sd_BIOSOLVEIT.INFINISEE\_RESULT\_RANK>  (1506) 
57690

>  <i_sd_version>  (1506) 
0

>  <b_lp_Chiralities_Consistent>  (1506) 
1

>  <b_sd_chiral_flag>  (1506) 
0

>  <canonical_id>  (1506) 
ATP-HTVS-ED381154F376

>  <compound_code>  (1506) 
3425

>  <title>  (1506) 
YAS_R006____OTV5753507____OTV999465____OTV1000393

>  <variant>  (1506) 
3425-1

>  <source_file>  (1506) 
运行/运行/ATP-VSW/ATP-VSW-DOCK_HTVS_1-001_lib/ATP-VSW-DOCK_HTVS_1-001_lib

>  <canonical_smiles>  (1506) 
C[NH+](C)[C@@H](CNc1nc(COc2ccc(Cl)cc2)nc2ccccc12)c1ccc(O)cc1

>  <scaffold>  (1506) 
c1ccc(CCNc2nc(COc3ccccc3)nc3ccccc23)cc1

>  <molecular_formula>  (1506) 
C25H26ClN4O2+

$$$$
ATP-HTVS-ED9FB8DD8268
     RDKit          3D

 63 66  0  0  0  0  0  0  0  0999 V2000
  196.3806  187.4821  157.3943 O   0  0  0  0  0  0  0  0  0  0  0  0
  197.1917  186.7587  157.9726 C   0  0  0  0  0  0  0  0  0  0  0  0
  198.4393  186.5287  157.5338 N   0  0  0  0  0  0  0  0  0  0  0  0
  198.9833  187.0736  156.3419 C   0  0  0  0  0  0  0  0  0  0  0  0
  199.2810  186.1860  155.2798 C   0  0  0  0  0  0  0  0  0  0  0  0
  199.0026  184.8099  155.3979 N   0  0  0  0  0  0  0  0  0  0  0  0
  198.8296  184.0190  154.1817 C   0  0  1  0  0  0  0  0  0  0  0  0
  198.4169  182.5733  154.4026 C   0  0  0  0  0  0  0  0  0  0  0  0
  199.3775  181.5918  154.7113 C   0  0  0  0  0  0  0  0  0  0  0  0
  198.9854  180.2671  155.0012 C   0  0  0  0  0  0  0  0  0  0  0  0
  197.6228  179.9152  154.9257 C   0  0  0  0  0  0  0  0  0  0  0  0
  196.6690  180.8891  154.5733 C   0  0  0  0  0  0  0  0  0  0  0  0
  197.0579  182.2163  154.3259 C   0  0  0  0  0  0  0  0  0  0  0  0
  200.0197  179.2477  155.4458 C   0  0  1  0  0  0  0  0  0  0  0  0
  200.2704  179.3170  156.9102 N   0  0  1  0  0  0  0  0  0  0  0  0
  200.9066  178.0954  157.4567 C   0  0  2  0  0  0  0  0  0  0  0  0
  201.0255  180.5358  157.3016 C   0  0  2  0  0  0  0  0  0  0  0  0
  199.8227  186.7433  154.0991 C   0  0  0  0  0  0  0  0  0  0  0  0
  200.0593  188.0554  153.9358 N   0  0  0  0  0  0  0  0  0  0  0  0
  199.7949  188.9084  154.9470 C   0  0  0  0  0  0  0  0  0  0  0  0
  199.2640  188.4584  156.1893 C   0  0  0  0  0  0  0  0  0  0  0  0
  199.0462  189.3967  157.2282 C   0  0  0  0  0  0  0  0  0  0  0  0
  199.3017  190.7648  157.0287 C   0  0  0  0  0  0  0  0  0  0  0  0
  199.7940  191.2147  155.7923 C   0  0  0  0  0  0  0  0  0  0  0  0
  200.0417  190.2850  154.7654 C   0  0  0  0  0  0  0  0  0  0  0  0
  196.8180  186.0873  159.2907 C   0  0  1  0  0  0  0  0  0  0  0  0
  196.1079  184.7724  159.0041 C   0  0  0  0  0  0  0  0  0  0  0  0
  196.8142  183.6799  158.4517 C   0  0  0  0  0  0  0  0  0  0  0  0
  196.1709  182.4495  158.2163 C   0  0  0  0  0  0  0  0  0  0  0  0
  196.9047  181.4359  157.6989 O   0  0  0  0  0  0  0  0  0  0  0  0
  194.7981  182.3022  158.5197 C   0  0  0  0  0  0  0  0  0  0  0  0
  194.1334  181.1171  158.3697 O   0  0  0  0  0  0  0  0  0  0  0  0
  194.0892  183.4069  159.0396 C   0  0  0  0  0  0  0  0  0  0  0  0
  194.7384  184.6286  159.2968 C   0  0  0  0  0  0  0  0  0  0  0  0
  198.9351  185.7448  157.9355 H   0  0  0  0  0  0  0  0  0  0  0  0
  198.3970  184.5348  156.1573 H   0  0  0  0  0  0  0  0  0  0  0  0
  198.0825  184.5140  153.5560 H   0  0  0  0  0  0  0  0  0  0  0  0
  199.7619  184.0134  153.6241 H   0  0  0  0  0  0  0  0  0  0  0  0
  200.4166  181.8743  154.7453 H   0  0  0  0  0  0  0  0  0  0  0  0
  197.2986  178.9108  155.1607 H   0  0  0  0  0  0  0  0  0  0  0  0
  195.6238  180.6372  154.5210 H   0  0  0  0  0  0  0  0  0  0  0  0
  196.3055  182.9572  154.0862 H   0  0  0  0  0  0  0  0  0  0  0  0
  199.6772  178.2517  155.1750 H   0  0  0  0  0  0  0  0  0  0  0  0
  200.9480  179.4100  154.9010 H   0  0  0  0  0  0  0  0  0  0  0  0
  201.8719  177.9103  156.9861 H   0  0  0  0  0  0  0  0  0  0  0  0
  200.2714  177.2250  157.3046 H   0  0  0  0  0  0  0  0  0  0  0  0
  201.0710  178.1973  158.5309 H   0  0  0  0  0  0  0  0  0  0  0  0
  202.0220  180.5372  156.8480 H   0  0  0  0  0  0  0  0  0  0  0  0
  201.1544  180.6079  158.3827 H   0  0  0  0  0  0  0  0  0  0  0  0
  200.5116  181.4483  156.9939 H   0  0  0  0  0  0  0  0  0  0  0  0
  200.0722  186.1325  153.2428 H   0  0  0  0  0  0  0  0  0  0  0  0
  198.6727  189.0903  158.1926 H   0  0  0  0  0  0  0  0  0  0  0  0
  199.1145  191.4759  157.8213 H   0  0  0  0  0  0  0  0  0  0  0  0
  199.9862  192.2659  155.6314 H   0  0  0  0  0  0  0  0  0  0  0  0
  200.4288  190.6331  153.8177 H   0  0  0  0  0  0  0  0  0  0  0  0
  197.7043  185.8923  159.9063 H   0  0  0  0  0  0  0  0  0  0  0  0
  196.1642  186.7477  159.8687 H   0  0  0  0  0  0  0  0  0  0  0  0
  197.8641  183.7795  158.2137 H   0  0  0  0  0  0  0  0  0  0  0  0
  196.4524  180.5784  157.7137 H   0  0  0  0  0  0  0  0  0  0  0  0
  194.7023  180.3746  158.1434 H   0  0  0  0  0  0  0  0  0  0  0  0
  193.0311  183.3200  159.2671 H   0  0  0  0  0  0  0  0  0  0  0  0
  194.1792  185.4530  159.7271 H   0  0  0  0  0  0  0  0  0  0  0  0
  199.3576  179.3727  157.3459 H   0  0  0  0  0  0  0  0  0  0  0  0
  1  2  2  0
  2  3  1  0
  2 26  1  0
  3  4  1  0
  3 35  1  0
  4  5  2  0
  4 21  1  0
  5  6  1  0
  5 18  1  0
  6  7  1  0
  6 36  1  0
  7  8  1  0
  7 37  1  6
  7 38  1  0
  8  9  2  0
  8 13  1  0
  9 10  1  0
  9 39  1  0
 10 11  2  0
 10 14  1  0
 11 12  1  0
 11 40  1  0
 12 13  2  0
 12 41  1  0
 13 42  1  0
 14 15  1  0
 14 43  1  1
 14 44  1  0
 15 16  1  0
 15 17  1  0
 15 63  1  1
 16 45  1  6
 16 46  1  0
 16 47  1  0
 17 48  1  6
 17 49  1  0
 17 50  1  0
 18 19  2  0
 18 51  1  0
 19 20  1  0
 20 21  1  0
 20 25  2  0
 21 22  2  0
 22 23  1  0
 22 52  1  0
 23 24  2  0
 23 53  1  0
 24 25  1  0
 24 54  1  0
 25 55  1  0
 26 27  1  0
 26 56  1  1
 26 57  1  0
 27 28  2  0
 27 34  1  0
 28 29  1  0
 28 58  1  0
 29 30  1  0
 29 31  2  0
 30 59  1  0
 31 32  1  0
 31 33  1  0
 32 60  1  0
 33 34  2  0
 33 61  1  0
 34 62  1  0
M  CHG  1  15   1
M  END
>  <s_epik_cmdline>  (1507) 
J2VwaWtfcHl0aG9uJywgJy1waCcsICc3LjAwMDAwMCcsICctcGh0JywgJzIuMDAwMDAwJywgJy1tcycsICcxNicsICctdG4nLCAnOCcsICctbWEnLCAnMjAwJywgJy1pbWFlJywgJzxpbmZpbGUubWFlPicsICctb21hZScsICc8b3V0ZmlsZS5tYWU+Jw==

>  <s_epik_input>  (1507) 
W2NIXTFbY0hdYyhbT0hdKWMoW09IXSlbY0hdYzFbQ0gyXUMoPU8pW05IXWMoYyhjMjMpW2NIXVtjSF1bY0hdW2NIXTMpYyhbY0hdbjIpW05IXVtDSDJdYzRbY0hdYyhbY0hdW2NIXVtjSF00KVtDSDJdTihbQ0gzXSlbQ0gzXQ==

>  <s_i_glide_gridfile>  (1507) 
ATP-Grid

>  <s_lp_Force_Field>  (1507) 
OPLS_2005

>  <s_lp_Variant>  (1507) 
rxn502b____EMOL502826____EMOL13728749____EMOL2873214-1

>  <s_lp_label>  (1507) 
2347_sdstereoexpander_1_neutralizer_1_epik_1_stereoizer_1

>  <s_m_source_file>  (1507) 
ATP-VSW-LIGPREP-001-in.maegz

>  <s_sd_BIOSOLVEIT.INFINISEE\_QUERY\_NAME>  (1507) 
Ref-Lig

>  <s_sd_BIOSOLVEIT.INFINISEE\_QUERY\_SMILES>  (1507) 
S(c1nc2c(cc1C[NH2+]Cc3ccc(cc3)C[NH+](C)C)cccc2)Cc4ccccc4

>  <s_sd_BIOSOLVEIT.INFINISEE\_REACTION\_NAME>  (1507) 
rxn502b

>  <s_sd_BIOSOLVEIT.INFINISEE\_REAGENT1\_NAME>  (1507) 
EMOL502826

>  <s_sd_BIOSOLVEIT.INFINISEE\_REAGENT1\_SMILES>  (1507) 
O=C(O)Cc1cc(O)c(O)cc1

>  <s_sd_BIOSOLVEIT.INFINISEE\_REAGENT2\_NAME>  (1507) 
EMOL13728749

>  <s_sd_BIOSOLVEIT.INFINISEE\_REAGENT2\_SMILES>  (1507) 
Brc1c(N)c2c(nc1)cccc2

>  <s_sd_BIOSOLVEIT.INFINISEE\_REAGENT3\_NAME>  (1507) 
EMOL2873214

>  <s_sd_BIOSOLVEIT.INFINISEE\_REAGENT3\_SMILES>  (1507) 
N(Cc1cc(ccc1)CN)(C)C

>  <s_sd_BIOSOLVEIT.INFINISEE\_SPACE>  (1507) 
eXplore_7tr_2022-12

>  <s_vsw_compound_code>  (1507) 
75073

>  <s_vsw_variant>  (1507) 
75073-1

>  <r_epik_Charging_Adjusted_Penalty>  (1507) 
0.109531906320061

>  <r_epik_Ionization_Penalty>  (1507) 
0.070099999999999996

>  <r_epik_Ionization_Penalty_Charging>  (1507) 
0.0441

>  <r_epik_Ionization_Penalty_Neutral>  (1507) 
0.025999999999999999

>  <r_epik_State_Penalty>  (1507) 
0.0654

>  <r_i_docking_score>  (1507) 
-4.5693670135520303

>  <r_i_glide_ecoul>  (1507) 
-15.662715911865201

>  <r_i_glide_eff_state_penalty>  (1507) 
0.0654

>  <r_i_glide_einternal>  (1507) 
3.1471393108367902

>  <r_i_glide_emodel>  (1507) 
-64.718653042528302

>  <r_i_glide_energy>  (1507) 
-47.187257766723597

>  <r_i_glide_erotb>  (1507) 
0.76832291082790805

>  <r_i_glide_esite>  (1507) 
-0.037980686133783803

>  <r_i_glide_evdw>  (1507) 
-31.524541854858398

>  <r_i_glide_gscore>  (1507) 
-4.6347670135520298

>  <r_i_glide_hbond>  (1507) 
0

>  <r_i_glide_ligand_efficiency>  (1507) 
-0.13439314745741299

>  <r_i_glide_ligand_efficiency_ln>  (1507) 
-1.00950133969709

>  <r_i_glide_ligand_efficiency_sa>  (1507) 
-0.43538162600208802

>  <r_i_glide_lipo>  (1507) 
-0.97854015972606001

>  <r_i_glide_metal>  (1507) 
-0

>  <r_i_glide_rewards>  (1507) 
-0.46093459899739297

>  <r_lp_Energy>  (1507) 
24.578772000000001

>  <r_lp_tautomer_probability>  (1507) 
0.99999999999977596

>  <r_qp_ACxDN^.5/SA>  (1507) 
0.0243523

>  <r_qp_CIQPlogS>  (1507) 
-5.3639999999999999

>  <r_qp_EA(eV)>  (1507) 
0.80500000000000005

>  <r_qp_FISA>  (1507) 
123.51600000000001

>  <r_qp_FOSA>  (1507) 
183.74100000000001

>  <r_qp_IP(eV)>  (1507) 
8.2870000000000008

>  <r_qp_Jm>  (1507) 
0.34187720764277202

>  <r_qp_PISA>  (1507) 
349.76499999999999

>  <r_qp_PSA>  (1507) 
106.23099999999999

>  <r_qp_PercentHumanOralAbsorption>  (1507) 
84.649000000000001

>  <r_qp_QPPCaco>  (1507) 
166.53100000000001

>  <r_qp_QPPMDCK>  (1507) 
78.841999999999999

>  <r_qp_QPlogBB>  (1507) 
-0.66700000000000004

>  <r_qp_QPlogHERG>  (1507) 
-5.6150000000000002

>  <r_qp_QPlogKhsa>  (1507) 
0.26700000000000002

>  <r_qp_QPlogKp>  (1507) 
-3.6659999999999999

>  <r_qp_QPlogPC16>  (1507) 
14.903

>  <r_qp_QPlogPo/w>  (1507) 
3.0640000000000001

>  <r_qp_QPlogPoct>  (1507) 
25.533999999999999

>  <r_qp_QPlogPw>  (1507) 
16.052

>  <r_qp_QPlogS>  (1507) 
-2.4590000000000001

>  <r_qp_QPpolrz>  (1507) 
44.482999999999997

>  <r_qp_SASA>  (1507) 
657.02200000000005

>  <r_qp_SAamideO>  (1507) 
0

>  <r_qp_SAfluorine>  (1507) 
0

>  <r_qp_WPSA>  (1507) 
0

>  <r_qp_accptHB>  (1507) 
8

>  <r_qp_dip^2/V>  (1507) 
0.0260495

>  <r_qp_dipole>  (1507) 
5.9130000000000003

>  <r_qp_donorHB>  (1507) 
4

>  <r_qp_glob>  (1507) 
0.89565989999999995

>  <r_qp_mol_MW>  (1507) 
456.54300000000001

>  <r_qp_volume>  (1507) 
1342.261

>  <r_sd_BIOSOLVEIT.INFINISEE\_FTREES\_SIMILARITY>  (1507) 
0.92100000000000004

>  <r_sd_BIOSOLVEIT.LOGP>  (1507) 
3.0838000000000001

>  <r_sd_BIOSOLVEIT.MOLECULAR\_WEIGHT>  (1507) 
457.55099999999999

>  <r_sd_BIOSOLVEIT.TPSA>  (1507) 
98.920000000000002

>  <i_epik_Tot_Q>  (1507) 
1

>  <i_epik_Tot_abs_Q>  (1507) 
1

>  <i_f3d_flags>  (1507) 
0

>  <i_i_glide_confnum>  (1507) 
7

>  <i_i_glide_lignum>  (1507) 
845

>  <i_i_glide_posenum>  (1507) 
1

>  <i_i_glide_rotatable_bonds>  (1507) 
11

>  <i_lp_mmshare_version>  (1507) 
65135

>  <i_m_ct_format>  (1507) 
2

>  <i_m_source_file_index>  (1507) 
2347

>  <i_qp_#NandO>  (1507) 
7

>  <i_qp_#acid>  (1507) 
0

>  <i_qp_#amide>  (1507) 
0

>  <i_qp_#amidine>  (1507) 
0

>  <i_qp_#amine>  (1507) 
1

>  <i_qp_#in34>  (1507) 
0

>  <i_qp_#in56>  (1507) 
22

>  <i_qp_#metab>  (1507) 
9

>  <i_qp_#nonHatm>  (1507) 
34

>  <i_qp_#noncon>  (1507) 
0

>  <i_qp_#ringatoms>  (1507) 
22

>  <i_qp_#rotor>  (1507) 
10

>  <i_qp_#rtvFG>  (1507) 
0

>  <i_qp_#stars>  (1507) 
1

>  <i_qp_CNS>  (1507) 
0

>  <i_qp_HumanOralAbsorption>  (1507) 
2

>  <i_qp_RuleOfFive>  (1507) 
0

>  <i_qp_RuleOfThree>  (1507) 
1

>  <i_sd_BIOSOLVEIT.INFINISEE\_RESULT\_RANK>  (1507) 
15688

>  <i_sd_version>  (1507) 
0

>  <b_lp_Chiralities_Consistent>  (1507) 
1

>  <b_sd_chiral_flag>  (1507) 
0

>  <canonical_id>  (1507) 
ATP-HTVS-ED9FB8DD8268

>  <compound_code>  (1507) 
75073

>  <title>  (1507) 
rxn502b____EMOL502826____EMOL13728749____EMOL2873214

>  <variant>  (1507) 
75073-1

>  <source_file>  (1507) 
运行/运行/ATP-VSW/ATP-VSW-DOCK_HTVS_1-001_lib/ATP-VSW-DOCK_HTVS_1-001_lib

>  <canonical_smiles>  (1507) 
C[NH+](C)Cc1cccc(CNc2cnc3ccccc3c2NC(=O)Cc2ccc(O)c(O)c2)c1

>  <scaffold>  (1507) 
O=C(Cc1ccccc1)Nc1c(NCc2ccccc2)cnc2ccccc12

>  <molecular_formula>  (1507) 
C27H29N4O3+

$$$$
ATP-HTVS-EDD9885A2235
     RDKit          3D

 50 53  0  0  0  0  0  0  0  0999 V2000
  195.9467  179.8445  150.9441 Cl  0  0  0  0  0  0  0  0  0  0  0  0
  197.1903  179.4819  152.0943 C   0  0  0  0  0  0  0  0  0  0  0  0
  196.9875  179.7346  153.4590 C   0  0  0  0  0  0  0  0  0  0  0  0
  198.0239  179.5374  154.3911 C   0  0  0  0  0  0  0  0  0  0  0  0
  199.2623  179.0443  153.9434 C   0  0  0  0  0  0  0  0  0  0  0  0
  199.4732  178.7611  152.5711 C   0  0  0  0  0  0  0  0  0  0  0  0
  198.4317  178.9939  151.6491 C   0  0  0  0  0  0  0  0  0  0  0  0
  197.8154  179.8733  155.8686 C   0  0  1  0  0  0  0  0  0  0  0  0
  198.1412  181.3432  156.1721 C   0  0  0  0  0  0  0  0  0  0  0  0
  199.3122  181.7254  156.1633 O   0  0  0  0  0  0  0  0  0  0  0  0
  197.1088  182.1571  156.4749 N   0  0  0  0  0  0  0  0  0  0  0  0
  197.1678  183.5835  156.5481 C   0  0  0  0  0  0  0  0  0  0  0  0
  197.5557  184.3623  155.4122 C   0  0  0  0  0  0  0  0  0  0  0  0
  197.8597  183.8131  154.1517 N   0  0  0  0  0  0  0  0  0  0  0  0
  199.0643  183.9824  153.4195 C   0  0  0  0  0  0  0  0  0  0  0  0
  200.0918  184.8062  153.9148 C   0  0  0  0  0  0  0  0  0  0  0  0
  201.2430  185.0817  153.1459 C   0  0  0  0  0  0  0  0  0  0  0  0
  201.3891  184.5030  151.8691 C   0  0  0  0  0  0  0  0  0  0  0  0
  200.4080  183.6266  151.3865 C   0  0  0  0  0  0  0  0  0  0  0  0
  199.2680  183.3422  152.1631 C   0  0  0  0  0  0  0  0  0  0  0  0
  196.7960  182.9975  153.5718 C   0  0  1  0  0  0  0  0  0  0  0  0
  196.3077  183.5019  152.2648 C   0  0  0  0  0  0  0  0  0  0  0  0
  195.9331  183.8343  151.2197 N   0  0  0  0  0  0  0  0  0  0  0  0
  197.5372  185.7603  155.5206 C   0  0  0  0  0  0  0  0  0  0  0  0
  197.1821  186.4241  156.6298 N   0  0  0  0  0  0  0  0  0  0  0  0
  196.8039  185.7139  157.7094 C   0  0  0  0  0  0  0  0  0  0  0  0
  196.7639  184.2839  157.7191 C   0  0  0  0  0  0  0  0  0  0  0  0
  196.3237  183.6144  158.8877 C   0  0  0  0  0  0  0  0  0  0  0  0
  195.9498  184.3499  160.0294 C   0  0  0  0  0  0  0  0  0  0  0  0
  196.0081  185.7553  160.0203 C   0  0  0  0  0  0  0  0  0  0  0  0
  196.4312  186.4241  158.8613 C   0  0  0  0  0  0  0  0  0  0  0  0
  196.0120  180.0835  153.7968 H   0  0  0  0  0  0  0  0  0  0  0  0
  200.0795  178.8987  154.6465 H   0  0  0  0  0  0  0  0  0  0  0  0
  200.4248  178.3917  152.2354 H   0  0  0  0  0  0  0  0  0  0  0  0
  198.6052  178.8255  150.5890 H   0  0  0  0  0  0  0  0  0  0  0  0
  196.7805  179.6727  156.1332 H   0  0  0  0  0  0  0  0  0  0  0  0
  198.4436  179.2320  156.4982 H   0  0  0  0  0  0  0  0  0  0  0  0
  196.1991  181.7270  156.5794 H   0  0  0  0  0  0  0  0  0  0  0  0
  200.0163  185.2621  154.8893 H   0  0  0  0  0  0  0  0  0  0  0  0
  201.9951  185.7496  153.5348 H   0  0  0  0  0  0  0  0  0  0  0  0
  202.2632  184.7251  151.2719 H   0  0  0  0  0  0  0  0  0  0  0  0
  200.5074  183.1741  150.4069 H   0  0  0  0  0  0  0  0  0  0  0  0
  198.5652  182.6396  151.7408 H   0  0  0  0  0  0  0  0  0  0  0  0
  197.2427  182.0495  153.4100 H   0  0  0  0  0  0  0  0  0  0  0  0
  195.9416  182.8780  154.2696 H   0  0  0  0  0  0  0  0  0  0  0  0
  197.7863  186.3588  154.6548 H   0  0  0  0  0  0  0  0  0  0  0  0
  196.2780  182.5335  158.9278 H   0  0  0  0  0  0  0  0  0  0  0  0
  195.6252  183.8387  160.9224 H   0  0  0  0  0  0  0  0  0  0  0  0
  195.7324  186.3274  160.8914 H   0  0  0  0  0  0  0  0  0  0  0  0
  196.4772  187.5035  158.8438 H   0  0  0  0  0  0  0  0  0  0  0  0
  1  2  1  0
  2  3  2  0
  2  7  1  0
  3  4  1  0
  3 32  1  0
  4  5  2  0
  4  8  1  0
  5  6  1  0
  5 33  1  0
  6  7  2  0
  6 34  1  0
  7 35  1  0
  8  9  1  0
  8 36  1  1
  8 37  1  0
  9 10  2  0
  9 11  1  0
 11 12  1  0
 11 38  1  0
 12 13  2  0
 12 27  1  0
 13 14  1  0
 13 24  1  0
 14 15  1  0
 14 21  1  0
 15 16  2  0
 15 20  1  0
 16 17  1  0
 16 39  1  0
 17 18  2  0
 17 40  1  0
 18 19  1  0
 18 41  1  0
 19 20  2  0
 19 42  1  0
 20 43  1  0
 21 22  1  0
 21 44  1  6
 21 45  1  0
 22 23  3  0
 24 25  2  0
 24 46  1  0
 25 26  1  0
 26 27  1  0
 26 31  2  0
 27 28  2  0
 28 29  1  0
 28 47  1  0
 29 30  2  0
 29 48  1  0
 30 31  1  0
 30 49  1  0
 31 50  1  0
M  END
>  <s_epik_cmdline>  (1508) 
J2VwaWtfcHl0aG9uJywgJy1waCcsICc3LjAwMDAwMCcsICctcGh0JywgJzIuMDAwMDAwJywgJy1tcycsICcxNicsICctdG4nLCAnOCcsICctbWEnLCAnMjAwJywgJy1pbWFlJywgJzxpbmZpbGUubWFlPicsICctb21hZScsICc8b3V0ZmlsZS5tYWU+Jw==

>  <s_epik_input>  (1508) 
Q2xjMVtjSF1jKFtjSF1bY0hdW2NIXTEpW0NIMl1DKD1PKVtOSF1jKGMoYzIzKVtjSF1bY0hdW2NIXVtjSF0zKWMoW2NIXW4yKU4oW0NIMl1DI04pYzRbY0hdW2NIXVtjSF1bY0hdW2NIXTQ=

>  <s_i_glide_gridfile>  (1508) 
ATP-Grid

>  <s_lp_Force_Field>  (1508) 
OPLS_2005

>  <s_lp_Variant>  (1508) 
rxn502b____EMOL492715____EMOL13728749____EMOL712348-1

>  <s_lp_label>  (1508) 
2280_sdstereoexpander_1_neutralizer_1_epik_1_stereoizer_1

>  <s_m_source_file>  (1508) 
ATP-VSW-LIGPREP-001-in.maegz

>  <s_sd_BIOSOLVEIT.INFINISEE\_QUERY\_NAME>  (1508) 
Ref-Lig

>  <s_sd_BIOSOLVEIT.INFINISEE\_QUERY\_SMILES>  (1508) 
S(c1nc2c(cc1C[NH2+]Cc3ccc(cc3)C[NH+](C)C)cccc2)Cc4ccccc4

>  <s_sd_BIOSOLVEIT.INFINISEE\_REACTION\_NAME>  (1508) 
rxn502b

>  <s_sd_BIOSOLVEIT.INFINISEE\_REAGENT1\_NAME>  (1508) 
EMOL492715

>  <s_sd_BIOSOLVEIT.INFINISEE\_REAGENT1\_SMILES>  (1508) 
Clc1cc(ccc1)CC(=O)O

>  <s_sd_BIOSOLVEIT.INFINISEE\_REAGENT2\_NAME>  (1508) 
EMOL13728749

>  <s_sd_BIOSOLVEIT.INFINISEE\_REAGENT2\_SMILES>  (1508) 
Brc1c(N)c2c(nc1)cccc2

>  <s_sd_BIOSOLVEIT.INFINISEE\_REAGENT3\_NAME>  (1508) 
EMOL712348

>  <s_sd_BIOSOLVEIT.INFINISEE\_REAGENT3\_SMILES>  (1508) 
N#CCNc1ccccc1

>  <s_sd_BIOSOLVEIT.INFINISEE\_SPACE>  (1508) 
eXplore_7tr_2022-12

>  <s_vsw_compound_code>  (1508) 
72929

>  <s_vsw_variant>  (1508) 
72929-1

>  <r_epik_Charging_Adjusted_Penalty>  (1508) 
0.00118189044408678

>  <r_epik_Ionization_Penalty>  (1508) 
0.0011999999999999999

>  <r_epik_Ionization_Penalty_Charging>  (1508) 
0

>  <r_epik_Ionization_Penalty_Neutral>  (1508) 
0.0011999999999999999

>  <r_epik_State_Penalty>  (1508) 
0.0011999999999999999

>  <r_i_docking_score>  (1508) 
-3.8829215144498899

>  <r_i_glide_ecoul>  (1508) 
-5.1322145462036097

>  <r_i_glide_eff_state_penalty>  (1508) 
0.0011999999999999999

>  <r_i_glide_einternal>  (1508) 
3.01503682136536

>  <r_i_glide_emodel>  (1508) 
-46.441567998013298

>  <r_i_glide_energy>  (1508) 
-37.435494422912598

>  <r_i_glide_erotb>  (1508) 
0.54461146686817496

>  <r_i_glide_esite>  (1508) 
-0.19360369161327301

>  <r_i_glide_evdw>  (1508) 
-32.303279876708999

>  <r_i_glide_gscore>  (1508) 
-3.8841215144498902

>  <r_i_glide_hbond>  (1508) 
0

>  <r_i_glide_ligand_efficiency>  (1508) 
-0.12525553272418999

>  <r_i_glide_ligand_efficiency_ln>  (1508) 
-0.87571779876183897

>  <r_i_glide_ligand_efficiency_sa>  (1508) 
-0.39347530665435099

>  <r_i_glide_lipo>  (1508) 
-1.3517053412115301

>  <r_i_glide_metal>  (1508) 
-0

>  <r_i_glide_rewards>  (1508) 
-0.49842777272727201

>  <r_lp_Energy>  (1508) 
32.599697999999997

>  <r_qp_ACxDN^.5/SA>  (1508) 
0.0088661

>  <r_qp_CIQPlogS>  (1508) 
-8.0169999999999995

>  <r_qp_EA(eV)>  (1508) 
1.347

>  <r_qp_FISA>  (1508) 
106.64100000000001

>  <r_qp_FOSA>  (1508) 
67.441999999999993

>  <r_qp_IP(eV)>  (1508) 
8.6470000000000002

>  <r_qp_Jm>  (1508) 
0.034329274100479798

>  <r_qp_PISA>  (1508) 
393.48500000000001

>  <r_qp_PSA>  (1508) 
69.869

>  <r_qp_PercentHumanOralAbsorption>  (1508) 
100

>  <r_qp_QPPCaco>  (1508) 
965.20699999999999

>  <r_qp_QPPMDCK>  (1508) 
926.447

>  <r_qp_QPlogBB>  (1508) 
-0.63500000000000001

>  <r_qp_QPlogHERG>  (1508) 
-5.2599999999999998

>  <r_qp_QPlogKhsa>  (1508) 
0.56399999999999995

>  <r_qp_QPlogKp>  (1508) 
-1.427

>  <r_qp_QPlogPC16>  (1508) 
13.648999999999999

>  <r_qp_QPlogPo/w>  (1508) 
4.5330000000000004

>  <r_qp_QPlogPoct>  (1508) 
19.446000000000002

>  <r_qp_QPlogPw>  (1508) 
9.9700000000000006

>  <r_qp_QPlogS>  (1508) 
-5.6680000000000001

>  <r_qp_QPpolrz>  (1508) 
41.563000000000002

>  <r_qp_SASA>  (1508) 
620.34100000000001

>  <r_qp_SAamideO>  (1508) 
0

>  <r_qp_SAfluorine>  (1508) 
0

>  <r_qp_WPSA>  (1508) 
52.774000000000001

>  <r_qp_accptHB>  (1508) 
5.5

>  <r_qp_dip^2/V>  (1508) 
0.055084899999999999

>  <r_qp_dipole>  (1508) 
8.1669999999999998

>  <r_qp_donorHB>  (1508) 
1

>  <r_qp_glob>  (1508) 
0.88560150000000004

>  <r_qp_mol_MW>  (1508) 
426.904

>  <r_qp_volume>  (1508) 
1210.7550000000001

>  <r_sd_BIOSOLVEIT.INFINISEE\_FTREES\_SIMILARITY>  (1508) 
0.92400000000000004

>  <r_sd_BIOSOLVEIT.LOGP>  (1508) 
5.7310800000000004

>  <r_sd_BIOSOLVEIT.MOLECULAR\_WEIGHT>  (1508) 
426.90499999999997

>  <r_sd_BIOSOLVEIT.TPSA>  (1508) 
69.019999999999996

>  <i_epik_Tot_Q>  (1508) 
0

>  <i_epik_Tot_abs_Q>  (1508) 
0

>  <i_f3d_flags>  (1508) 
0

>  <i_i_glide_confnum>  (1508) 
3

>  <i_i_glide_lignum>  (1508) 
808

>  <i_i_glide_posenum>  (1508) 
19

>  <i_i_glide_rotatable_bonds>  (1508) 
7

>  <i_lp_mmshare_version>  (1508) 
65135

>  <i_m_ct_format>  (1508) 
2

>  <i_m_source_file_index>  (1508) 
2280

>  <i_qp_#NandO>  (1508) 
5

>  <i_qp_#acid>  (1508) 
0

>  <i_qp_#amide>  (1508) 
0

>  <i_qp_#amidine>  (1508) 
0

>  <i_qp_#amine>  (1508) 
0

>  <i_qp_#in34>  (1508) 
0

>  <i_qp_#in56>  (1508) 
22

>  <i_qp_#metab>  (1508) 
5

>  <i_qp_#nonHatm>  (1508) 
31

>  <i_qp_#noncon>  (1508) 
0

>  <i_qp_#ringatoms>  (1508) 
22

>  <i_qp_#rotor>  (1508) 
7

>  <i_qp_#rtvFG>  (1508) 
0

>  <i_qp_#stars>  (1508) 
0

>  <i_qp_CNS>  (1508) 
0

>  <i_qp_HumanOralAbsorption>  (1508) 
3

>  <i_qp_RuleOfFive>  (1508) 
0

>  <i_qp_RuleOfThree>  (1508) 
0

>  <i_sd_BIOSOLVEIT.INFINISEE\_RESULT\_RANK>  (1508) 
10130

>  <i_sd_version>  (1508) 
0

>  <b_lp_Chiralities_Consistent>  (1508) 
1

>  <b_sd_chiral_flag>  (1508) 
0

>  <canonical_id>  (1508) 
ATP-HTVS-EDD9885A2235

>  <compound_code>  (1508) 
72929

>  <title>  (1508) 
rxn502b____EMOL492715____EMOL13728749____EMOL712348

>  <variant>  (1508) 
72929-1

>  <source_file>  (1508) 
运行/运行/ATP-VSW/ATP-VSW-DOCK_HTVS_1-001_lib/ATP-VSW-DOCK_HTVS_1-001_lib

>  <canonical_smiles>  (1508) 
N#CCN(c1ccccc1)c1cnc2ccccc2c1NC(=O)Cc1cccc(Cl)c1

>  <scaffold>  (1508) 
O=C(Cc1ccccc1)Nc1c(Nc2ccccc2)cnc2ccccc12

>  <molecular_formula>  (1508) 
C25H19ClN4O

$$$$
ATP-HTVS-EE25A0930777
     RDKit          3D

 61 63  0  0  0  0  0  0  0  0999 V2000
  198.5643  184.2006  158.7037 O   0  0  0  0  0  0  0  0  0  0  0  0
  197.2321  184.1391  159.0784 C   0  0  0  0  0  0  0  0  0  0  0  0
  196.7231  185.1262  159.8415 N   0  0  0  0  0  0  0  0  0  0  0  0
  195.3890  185.1540  160.0707 C   0  0  0  0  0  0  0  0  0  0  0  0
  194.5204  184.1435  159.6328 C   0  0  0  0  0  0  0  0  0  0  0  0
  195.0533  183.0637  158.9069 C   0  0  0  0  0  0  0  0  0  0  0  0
  196.4277  183.0773  158.5922 C   0  0  0  0  0  0  0  0  0  0  0  0
  197.0686  181.9679  157.7832 C   0  0  1  0  0  0  0  0  0  0  0  0
  196.7504  182.0248  156.3583 N   0  0  0  0  0  0  0  0  0  0  0  0
  197.0659  180.8114  155.5773 C   0  0  1  0  0  0  0  0  0  0  0  0
  196.9853  181.0993  154.0706 C   0  0  0  0  0  0  0  0  0  0  0  0
  197.1659  182.4120  153.5661 C   0  0  0  0  0  0  0  0  0  0  0  0
  197.0928  182.6976  152.1795 C   0  0  0  0  0  0  0  0  0  0  0  0
  197.2748  184.0207  151.7042 N   0  0  0  0  0  0  0  0  0  0  0  0
  197.2408  184.2955  150.2726 C   0  0  2  0  0  0  0  0  0  0  0  0
  197.5444  185.1110  152.6382 C   0  0  2  0  0  0  0  0  0  0  0  0
  196.8409  181.6220  151.2959 C   0  0  0  0  0  0  0  0  0  0  0  0
  196.6722  180.3103  151.7802 C   0  0  0  0  0  0  0  0  0  0  0  0
  196.7492  180.0487  153.1604 C   0  0  0  0  0  0  0  0  0  0  0  0
  198.4383  180.1676  155.9325 C   0  0  1  0  0  0  0  0  0  0  0  0
  198.4060  178.7726  155.6900 O   0  0  0  0  0  0  0  0  0  0  0  0
  194.1641  181.9003  158.5015 C   0  0  2  0  0  0  0  0  0  0  0  0
  194.8836  186.3747  160.7875 C   0  0  2  0  0  0  0  0  0  0  0  0
  199.3542  185.3417  159.0482 C   0  0  1  0  0  0  0  0  0  0  0  0
  198.7994  186.6602  158.5162 C   0  0  0  0  0  0  0  0  0  0  0  0
  197.9518  186.6855  157.3993 C   0  0  0  0  0  0  0  0  0  0  0  0
  197.3203  187.8853  157.0113 C   0  0  0  0  0  0  0  0  0  0  0  0
  197.5841  189.0770  157.7170 C   0  0  0  0  0  0  0  0  0  0  0  0
  198.4620  189.0682  158.8134 C   0  0  0  0  0  0  0  0  0  0  0  0
  199.0712  187.8660  159.2193 C   0  0  0  0  0  0  0  0  0  0  0  0
  195.7628  182.2289  156.2408 H   0  0  0  0  0  0  0  0  0  0  0  0
  193.4658  184.1943  159.8482 H   0  0  0  0  0  0  0  0  0  0  0  0
  198.1459  182.0370  157.9085 H   0  0  0  0  0  0  0  0  0  0  0  0
  196.7542  181.0282  158.2145 H   0  0  0  0  0  0  0  0  0  0  0  0
  196.2882  180.0810  155.7970 H   0  0  0  0  0  0  0  0  0  0  0  0
  197.3693  183.2092  154.2590 H   0  0  0  0  0  0  0  0  0  0  0  0
  197.9561  183.6663  149.7437 H   0  0  0  0  0  0  0  0  0  0  0  0
  197.4982  185.3330  150.0614 H   0  0  0  0  0  0  0  0  0  0  0  0
  196.2436  184.1084  149.8758 H   0  0  0  0  0  0  0  0  0  0  0  0
  196.7655  185.1765  153.3995 H   0  0  0  0  0  0  0  0  0  0  0  0
  197.5777  186.0759  152.1329 H   0  0  0  0  0  0  0  0  0  0  0  0
  198.5045  184.9643  153.1351 H   0  0  0  0  0  0  0  0  0  0  0  0
  196.7782  181.7759  150.2295 H   0  0  0  0  0  0  0  0  0  0  0  0
  196.4911  179.5005  151.0910 H   0  0  0  0  0  0  0  0  0  0  0  0
  196.6265  179.0377  153.5245 H   0  0  0  0  0  0  0  0  0  0  0  0
  199.2502  180.6588  155.3933 H   0  0  0  0  0  0  0  0  0  0  0  0
  198.6933  180.2072  156.9906 H   0  0  0  0  0  0  0  0  0  0  0  0
  197.9588  178.3726  156.4254 H   0  0  0  0  0  0  0  0  0  0  0  0
  194.0845  181.8129  157.4151 H   0  0  0  0  0  0  0  0  0  0  0  0
  193.1623  182.0042  158.9157 H   0  0  0  0  0  0  0  0  0  0  0  0
  194.5851  180.9682  158.8859 H   0  0  0  0  0  0  0  0  0  0  0  0
  194.0220  186.1187  161.3981 H   0  0  0  0  0  0  0  0  0  0  0  0
  194.5868  187.1359  160.0695 H   0  0  0  0  0  0  0  0  0  0  0  0
  195.6619  186.7958  161.4211 H   0  0  0  0  0  0  0  0  0  0  0  0
  199.4736  185.3871  160.1324 H   0  0  0  0  0  0  0  0  0  0  0  0
  200.3510  185.1966  158.6249 H   0  0  0  0  0  0  0  0  0  0  0  0
  197.7188  185.7793  156.8595 H   0  0  0  0  0  0  0  0  0  0  0  0
  196.6108  187.8545  156.2003 H   0  0  0  0  0  0  0  0  0  0  0  0
  197.0894  189.9911  157.4296 H   0  0  0  0  0  0  0  0  0  0  0  0
  198.6371  189.9680  159.3827 H   0  0  0  0  0  0  0  0  0  0  0  0
  199.7070  187.8577  160.0944 H   0  0  0  0  0  0  0  0  0  0  0  0
  1  2  1  0
  1 24  1  0
  2  3  2  0
  2  7  1  0
  3  4  1  0
  4  5  2  0
  4 23  1  0
  5  6  1  0
  5 32  1  0
  6  7  2  0
  6 22  1  0
  7  8  1  0
  8  9  1  0
  8 33  1  6
  8 34  1  0
  9 10  1  0
  9 31  1  0
 10 11  1  0
 10 20  1  0
 10 35  1  1
 11 12  1  0
 11 19  2  0
 12 13  2  0
 12 36  1  0
 13 14  1  0
 13 17  1  0
 14 15  1  0
 14 16  1  0
 15 37  1  6
 15 38  1  0
 15 39  1  0
 16 40  1  1
 16 41  1  0
 16 42  1  0
 17 18  2  0
 17 43  1  0
 18 19  1  0
 18 44  1  0
 19 45  1  0
 20 21  1  0
 20 46  1  6
 20 47  1  0
 21 48  1  0
 22 49  1  6
 22 50  1  0
 22 51  1  0
 23 52  1  1
 23 53  1  0
 23 54  1  0
 24 25  1  0
 24 55  1  1
 24 56  1  0
 25 26  2  0
 25 30  1  0
 26 27  1  0
 26 57  1  0
 27 28  2  0
 27 58  1  0
 28 29  1  0
 28 59  1  0
 29 30  2  0
 29 60  1  0
 30 61  1  0
M  END
>  <s_epik_cmdline>  (1509) 
J2VwaWtfcHl0aG9uJywgJy1waCcsICc3LjAwMDAwMCcsICctcGh0JywgJzIuMDAwMDAwJywgJy1tcycsICcxNicsICctdG4nLCAnOCcsICctbWEnLCAnMjAwJywgJy1pbWFlJywgJzxpbmZpbGUubWFlPicsICctb21hZScsICc8b3V0ZmlsZS5tYWU+Jw==

>  <s_epik_input>  (1509) 
W2NIXTFbY0hdW2NIXVtjSF1bY0hdYzFbQ0gyXU9jMm5jKFtDSDNdKVtjSF1jKFtDSDNdKWMyW0NIMl1bTkhdW0NASF0oW0NIMl1bT0hdKWMzW2NIXWMoTihbQ0gzXSlbQ0gzXSlbY0hdW2NIXVtjSF0z

>  <s_i_glide_gridfile>  (1509) 
ATP-Grid

>  <s_lp_Force_Field>  (1509) 
OPLS_2005

>  <s_lp_Variant>  (1509) 
m_2230bbb____17853394____10178420-4

>  <s_lp_label>  (1509) 
1934_sdstereoexpander_2_neutralizer_1_epik_2_stereoizer_1

>  <s_m_source_file>  (1509) 
ATP-VSW-LIGPREP-001-in.maegz

>  <s_sd_BIOSOLVEIT.INFINISEE\_QUERY\_NAME>  (1509) 
Ref-Lig

>  <s_sd_BIOSOLVEIT.INFINISEE\_QUERY\_SMILES>  (1509) 
S(c1nc2c(cc1C[NH2+]Cc3ccc(cc3)C[NH+](C)C)cccc2)Cc4ccccc4

>  <s_sd_BIOSOLVEIT.INFINISEE\_REACTION\_NAME>  (1509) 
m_2230bbb

>  <s_sd_BIOSOLVEIT.INFINISEE\_REAGENT1\_SMILES>  (1509) 
[R1*]NC(c1cc(N(C)C)ccc1)CO

>  <s_sd_BIOSOLVEIT.INFINISEE\_REAGENT2\_SMILES>  (1509) 
[R1*]Cc1c(OCc2ccccc2)nc(cc1C)C

>  <s_sd_BIOSOLVEIT.INFINISEE\_SPACE>  (1509) 
REALSpace_44bn_2023-08

>  <s_vsw_compound_code>  (1509) 
61857

>  <s_vsw_variant>  (1509) 
61857-4

>  <r_epik_Charging_Adjusted_Penalty>  (1509) 
0.74799491272136798

>  <r_epik_Ionization_Penalty>  (1509) 
0.75639999999999996

>  <r_epik_Ionization_Penalty_Charging>  (1509) 
0

>  <r_epik_Ionization_Penalty_Neutral>  (1509) 
0.75639999999999996

>  <r_epik_State_Penalty>  (1509) 
0.748

>  <r_i_docking_score>  (1509) 
-3.8060185235778698

>  <r_i_glide_ecoul>  (1509) 
-6.0493116378784197

>  <r_i_glide_eff_state_penalty>  (1509) 
0.748

>  <r_i_glide_einternal>  (1509) 
4.7732906341552699

>  <r_i_glide_emodel>  (1509) 
-57.4784577901668

>  <r_i_glide_energy>  (1509) 
-45.489676475524902

>  <r_i_glide_erotb>  (1509) 
0.95605141401149296

>  <r_i_glide_esite>  (1509) 
0

>  <r_i_glide_evdw>  (1509) 
-39.440364837646499

>  <r_i_glide_gscore>  (1509) 
-4.5540185235778701

>  <r_i_glide_hbond>  (1509) 
-0.211875023181025

>  <r_i_glide_ligand_efficiency>  (1509) 
-0.12686728411926201

>  <r_i_glide_ligand_efficiency_ln>  (1509) 
-0.86476887845018402

>  <r_i_glide_ligand_efficiency_sa>  (1509) 
-0.394206148710531

>  <r_i_glide_lipo>  (1509) 
-1.7359233383442101

>  <r_i_glide_metal>  (1509) 
-0

>  <r_i_glide_rewards>  (1509) 
-0.68285658850004305

>  <r_lp_Energy>  (1509) 
24.368117999999999

>  <r_lp_tautomer_probability>  (1509) 
1

>  <r_qp_ACxDN^.5/SA>  (1509) 
0.0099293999999999997

>  <r_qp_CIQPlogS>  (1509) 
-5.3369999999999997

>  <r_qp_EA(eV)>  (1509) 
0.091999999999999998

>  <r_qp_FISA>  (1509) 
55.145000000000003

>  <r_qp_FOSA>  (1509) 
408.11700000000002

>  <r_qp_IP(eV)>  (1509) 
7.8570000000000002

>  <r_qp_Jm>  (1509) 
0.0119027091741165

>  <r_qp_PISA>  (1509) 
277.36099999999999

>  <r_qp_PSA>  (1509) 
52.094999999999999

>  <r_qp_PercentHumanOralAbsorption>  (1509) 
100

>  <r_qp_QPPCaco>  (1509) 
741.072

>  <r_qp_QPPMDCK>  (1509) 
395.88

>  <r_qp_QPlogBB>  (1509) 
-0.20599999999999999

>  <r_qp_QPlogHERG>  (1509) 
-6.7130000000000001

>  <r_qp_QPlogKhsa>  (1509) 
0.84799999999999998

>  <r_qp_QPlogKp>  (1509) 
-2.661

>  <r_qp_QPlogPC16>  (1509) 
13.789

>  <r_qp_QPlogPo/w>  (1509) 
4.9729999999999999

>  <r_qp_QPlogPoct>  (1509) 
20.291

>  <r_qp_QPlogPw>  (1509) 
9.609

>  <r_qp_QPlogS>  (1509) 
-4.8710000000000004

>  <r_qp_QPpolrz>  (1509) 
44.997999999999998

>  <r_qp_SASA>  (1509) 
740.62300000000005

>  <r_qp_SAamideO>  (1509) 
0

>  <r_qp_SAfluorine>  (1509) 
0

>  <r_qp_WPSA>  (1509) 
0

>  <r_qp_accptHB>  (1509) 
5.2000000000000002

>  <r_qp_dip^2/V>  (1509) 
0.0117065

>  <r_qp_dipole>  (1509) 
4.008

>  <r_qp_donorHB>  (1509) 
2

>  <r_qp_glob>  (1509) 
0.8064152

>  <r_qp_mol_MW>  (1509) 
405.53899999999999

>  <r_qp_volume>  (1509) 
1372.4179999999999

>  <r_sd_BIOSOLVEIT.INFINISEE\_FTREES\_SIMILARITY>  (1509) 
0.90200000000000002

>  <r_sd_BIOSOLVEIT.LOGP>  (1509) 
3.1404399999999999

>  <r_sd_BIOSOLVEIT.MOLECULAR\_WEIGHT>  (1509) 
406.54700000000003

>  <r_sd_BIOSOLVEIT.TPSA>  (1509) 
62.200000000000003

>  <i_epik_Tot_Q>  (1509) 
0

>  <i_epik_Tot_abs_Q>  (1509) 
0

>  <i_f3d_flags>  (1509) 
0

>  <i_i_glide_confnum>  (1509) 
16

>  <i_i_glide_lignum>  (1509) 
594

>  <i_i_glide_posenum>  (1509) 
8

>  <i_i_glide_rotatable_bonds>  (1509) 
10

>  <i_lp_mmshare_version>  (1509) 
65135

>  <i_m_ct_format>  (1509) 
2

>  <i_m_source_file_index>  (1509) 
1934

>  <i_qp_#NandO>  (1509) 
5

>  <i_qp_#acid>  (1509) 
0

>  <i_qp_#amide>  (1509) 
0

>  <i_qp_#amidine>  (1509) 
0

>  <i_qp_#amine>  (1509) 
1

>  <i_qp_#in34>  (1509) 
0

>  <i_qp_#in56>  (1509) 
18

>  <i_qp_#metab>  (1509) 
12

>  <i_qp_#nonHatm>  (1509) 
30

>  <i_qp_#noncon>  (1509) 
0

>  <i_qp_#ringatoms>  (1509) 
18

>  <i_qp_#rotor>  (1509) 
10

>  <i_qp_#rtvFG>  (1509) 
0

>  <i_qp_#stars>  (1509) 
2

>  <i_qp_CNS>  (1509) 
1

>  <i_qp_HumanOralAbsorption>  (1509) 
1

>  <i_qp_RuleOfFive>  (1509) 
0

>  <i_qp_RuleOfThree>  (1509) 
1

>  <i_sd_BIOSOLVEIT.INFINISEE\_REAGENT1\_NAME>  (1509) 
17853394

>  <i_sd_BIOSOLVEIT.INFINISEE\_REAGENT2\_NAME>  (1509) 
10178420

>  <i_sd_BIOSOLVEIT.INFINISEE\_RESULT\_RANK>  (1509) 
86626

>  <i_sd_version>  (1509) 
0

>  <b_lp_Chiralities_Consistent>  (1509) 
1

>  <b_sd_chiral_flag>  (1509) 
0

>  <canonical_id>  (1509) 
ATP-HTVS-EE25A0930777

>  <compound_code>  (1509) 
61857

>  <title>  (1509) 
m_2230bbb____17853394____10178420

>  <variant>  (1509) 
61857-4

>  <source_file>  (1509) 
运行/运行/ATP-VSW/ATP-VSW-DOCK_HTVS_1-001_lib/ATP-VSW-DOCK_HTVS_1-001_lib

>  <canonical_smiles>  (1509) 
Cc1cc(C)c(CN[C@H](CO)c2cccc(N(C)C)c2)c(OCc2ccccc2)n1

>  <scaffold>  (1509) 
c1ccc(CNCc2cccnc2OCc2ccccc2)cc1

>  <molecular_formula>  (1509) 
C25H31N3O2

$$$$
ATP-HTVS-EE3EC74621FE
     RDKit          3D

 66 69  0  0  0  0  0  0  0  0999 V2000
  199.0452  180.7516  156.5089 N   0  0  0  0  0  0  0  0  0  0  0  0
  198.1646  181.1767  155.5709 C   0  0  0  0  0  0  0  0  0  0  0  0
  197.6869  182.4908  155.6437 N   0  0  0  0  0  0  0  0  0  0  0  0
  198.3567  183.4875  156.4722 C   0  0  1  0  0  0  0  0  0  0  0  0
  197.3947  184.3480  157.2717 C   0  0  0  0  0  0  0  0  0  0  0  0
  196.3815  183.8114  158.1209 C   0  0  0  0  0  0  0  0  0  0  0  0
  195.5919  184.7103  158.8824 C   0  0  0  0  0  0  0  0  0  0  0  0
  194.5983  184.2497  159.7444 N   0  0  0  0  0  0  0  0  0  0  0  0
  195.7873  186.1019  158.7881 C   0  0  0  0  0  0  0  0  0  0  0  0
  196.7856  186.6202  157.9495 C   0  0  0  0  0  0  0  0  0  0  0  0
  197.5871  185.7419  157.2022 C   0  0  0  0  0  0  0  0  0  0  0  0
  196.1551  182.2967  158.2382 C   0  0  2  0  0  0  0  0  0  0  0  0
  197.7226  180.3055  154.5446 C   0  0  0  0  0  0  0  0  0  0  0  0
  198.1832  179.0484  154.4597 N   0  0  0  0  0  0  0  0  0  0  0  0
  199.0851  178.6152  155.3754 C   0  0  0  0  0  0  0  0  0  0  0  0
  199.5163  179.4895  156.4170 C   0  0  0  0  0  0  0  0  0  0  0  0
  200.4924  179.0210  157.3254 C   0  0  0  0  0  0  0  0  0  0  0  0
  201.0364  177.7287  157.2256 C   0  0  0  0  0  0  0  0  0  0  0  0
  200.6102  176.8709  156.1972 C   0  0  0  0  0  0  0  0  0  0  0  0
  199.6382  177.3249  155.2830 C   0  0  0  0  0  0  0  0  0  0  0  0
  196.8006  180.7480  153.5766 N   0  0  0  0  0  0  0  0  0  0  0  0
  196.7582  180.0892  152.2807 C   0  0  1  0  0  0  0  0  0  0  0  0
  197.7070  180.7660  151.2811 C   0  0  1  0  0  0  0  0  0  0  0  0
  197.8539  179.9472  150.0164 C   0  0  0  0  0  0  0  0  0  0  0  0
  199.1537  179.6440  149.5397 C   0  0  0  0  0  0  0  0  0  0  0  0
  199.3251  178.8156  148.4211 C   0  0  0  0  0  0  0  0  0  0  0  0
  198.2015  178.3101  147.7345 C   0  0  0  0  0  0  0  0  0  0  0  0
  196.9013  178.6382  148.1949 C   0  0  0  0  0  0  0  0  0  0  0  0
  196.7274  179.4411  149.3382 C   0  0  0  0  0  0  0  0  0  0  0  0
  198.4030  177.4425  146.4959 C   0  0  1  0  0  0  0  0  0  0  0  0
  199.0132  178.1631  145.3435 N   0  0  1  0  0  0  0  0  0  0  0  0
  198.1263  179.1850  144.7511 C   0  0  2  0  0  0  0  0  0  0  0  0
  200.3798  178.6955  145.5719 C   0  0  2  0  0  0  0  0  0  0  0  0
  196.9068  182.7898  155.0698 H   0  0  0  0  0  0  0  0  0  0  0  0
  199.0679  183.0601  157.1811 H   0  0  0  0  0  0  0  0  0  0  0  0
  198.9579  184.1224  155.8118 H   0  0  0  0  0  0  0  0  0  0  0  0
  194.0123  184.8798  160.2724 H   0  0  0  0  0  0  0  0  0  0  0  0
  194.4324  183.2592  159.8532 H   0  0  0  0  0  0  0  0  0  0  0  0
  195.1643  186.7832  159.3482 H   0  0  0  0  0  0  0  0  0  0  0  0
  196.9386  187.6898  157.8808 H   0  0  0  0  0  0  0  0  0  0  0  0
  198.3733  186.1550  156.5832 H   0  0  0  0  0  0  0  0  0  0  0  0
  195.1800  182.0537  158.6886 H   0  0  0  0  0  0  0  0  0  0  0  0
  196.9235  181.8495  158.8843 H   0  0  0  0  0  0  0  0  0  0  0  0
  196.1897  181.8184  157.2501 H   0  0  0  0  0  0  0  0  0  0  0  0
  200.8278  179.6732  158.1172 H   0  0  0  0  0  0  0  0  0  0  0  0
  201.7829  177.4001  157.9337 H   0  0  0  0  0  0  0  0  0  0  0  0
  201.0214  175.8801  156.1083 H   0  0  0  0  0  0  0  0  0  0  0  0
  199.3228  176.6662  154.4868 H   0  0  0  0  0  0  0  0  0  0  0  0
  196.5823  181.7297  153.5870 H   0  0  0  0  0  0  0  0  0  0  0  0
  196.9978  179.0271  152.3522 H   0  0  0  0  0  0  0  0  0  0  0  0
  195.7311  180.1265  151.9112 H   0  0  0  0  0  0  0  0  0  0  0  0
  197.3584  181.7693  151.0330 H   0  0  0  0  0  0  0  0  0  0  0  0
  198.6911  180.8850  151.7413 H   0  0  0  0  0  0  0  0  0  0  0  0
  200.0242  180.0725  150.0313 H   0  0  0  0  0  0  0  0  0  0  0  0
  200.3160  178.6000  148.0462 H   0  0  0  0  0  0  0  0  0  0  0  0
  196.0246  178.2519  147.6770 H   0  0  0  0  0  0  0  0  0  0  0  0
  195.7278  179.6491  149.6955 H   0  0  0  0  0  0  0  0  0  0  0  0
  199.0139  176.5818  146.7695 H   0  0  0  0  0  0  0  0  0  0  0  0
  197.4522  177.0190  146.1837 H   0  0  0  0  0  0  0  0  0  0  0  0
  197.9458  179.9895  145.4656 H   0  0  0  0  0  0  0  0  0  0  0  0
  197.1674  178.7596  144.4469 H   0  0  0  0  0  0  0  0  0  0  0  0
  198.5833  179.6270  143.8626 H   0  0  0  0  0  0  0  0  0  0  0  0
  200.3779  179.4464  146.3689 H   0  0  0  0  0  0  0  0  0  0  0  0
  200.8190  179.0643  144.6176 H   0  0  0  0  0  0  0  0  0  0  0  0
  201.0351  177.8947  145.9204 H   0  0  0  0  0  0  0  0  0  0  0  0
  199.1129  177.4708  144.6045 H   0  0  0  0  0  0  0  0  0  0  0  0
  1  2  2  0
  1 16  1  0
  2  3  1  0
  2 13  1  0
  3  4  1  0
  3 34  1  0
  4  5  1  0
  4 35  1  1
  4 36  1  0
  5  6  1  0
  5 11  2  0
  6  7  2  0
  6 12  1  0
  7  8  1  0
  7  9  1  0
  8 37  1  0
  8 38  1  0
  9 10  2  0
  9 39  1  0
 10 11  1  0
 10 40  1  0
 11 41  1  0
 12 42  1  1
 12 43  1  0
 12 44  1  0
 13 14  2  0
 13 21  1  0
 14 15  1  0
 15 16  1  0
 15 20  2  0
 16 17  2  0
 17 18  1  0
 17 45  1  0
 18 19  2  0
 18 46  1  0
 19 20  1  0
 19 47  1  0
 20 48  1  0
 21 22  1  0
 21 49  1  0
 22 23  1  0
 22 50  1  1
 22 51  1  0
 23 24  1  0
 23 52  1  6
 23 53  1  0
 24 25  1  0
 24 29  2  0
 25 26  2  0
 25 54  1  0
 26 27  1  0
 26 55  1  0
 27 28  2  0
 27 30  1  0
 28 29  1  0
 28 56  1  0
 29 57  1  0
 30 31  1  0
 30 58  1  1
 30 59  1  0
 31 32  1  0
 31 33  1  0
 31 66  1  6
 32 60  1  1
 32 61  1  0
 32 62  1  0
 33 63  1  1
 33 64  1  0
 33 65  1  0
M  CHG  1  31   1
M  END
>  <s_epik_cmdline>  (1510) 
J2VwaWtfcHl0aG9uJywgJy1waCcsICc3LjAwMDAwMCcsICctcGh0JywgJzIuMDAwMDAwJywgJy1tcycsICcxNicsICctdG4nLCAnOCcsICctbWEnLCAnMjAwJywgJy1pbWFlJywgJzxpbmZpbGUubWFlPicsICctb21hZScsICc8b3V0ZmlsZS5tYWU+Jw==

>  <s_epik_input>  (1510) 
W2NIXTFbY0hdW2NIXWMoW05IMl0pYyhbQ0gzXSljMVtDSDJdW05IXWMobmMoYzIzKVtjSF1bY0hdW2NIXVtjSF0zKWMobjIpW05IXVtDSDJdW0NIMl1jNFtjSF1bY0hdYyhbY0hdW2NIXTQpW0NIMl1OKFtDSDNdKVtDSDNd

>  <s_i_glide_gridfile>  (1510) 
ATP-Grid

>  <s_lp_Force_Field>  (1510) 
OPLS_2005

>  <s_lp_Variant>  (1510) 
m_282030aaa____21926464____23157418____21961622-1

>  <s_lp_label>  (1510) 
1131_sdstereoexpander_1_neutralizer_1_epik_1_stereoizer_1

>  <s_m_source_file>  (1510) 
ATP-VSW-LIGPREP-003-in.maegz

>  <s_sd_BIOSOLVEIT.INFINISEE\_QUERY\_NAME>  (1510) 
Ref-Lig

>  <s_sd_BIOSOLVEIT.INFINISEE\_QUERY\_SMILES>  (1510) 
S(c1nc2c(cc1C[NH2+]Cc3ccc(cc3)C[NH+](C)C)cccc2)Cc4ccccc4

>  <s_sd_BIOSOLVEIT.INFINISEE\_REACTION\_NAME>  (1510) 
m_282030aaa

>  <s_sd_BIOSOLVEIT.INFINISEE\_REAGENT1\_SMILES>  (1510) 
[R1*]NCCc1ccc(cc1)CN(C)C

>  <s_sd_BIOSOLVEIT.INFINISEE\_REAGENT2\_SMILES>  (1510) 
[R1*]c1nc2c(nc1[R2*])cccc2

>  <s_sd_BIOSOLVEIT.INFINISEE\_REAGENT3\_SMILES>  (1510) 
[R2*]NCc1c(c(N)ccc1)C

>  <s_sd_BIOSOLVEIT.INFINISEE\_SPACE>  (1510) 
REALSpace_44bn_2023-08

>  <s_vsw_compound_code>  (1510) 
36163

>  <s_vsw_variant>  (1510) 
36163-1

>  <r_epik_Charging_Adjusted_Penalty>  (1510) 
0.081936508424468604

>  <r_epik_Ionization_Penalty>  (1510) 
0.043099999999999999

>  <r_epik_Ionization_Penalty_Charging>  (1510) 
0.041000000000000002

>  <r_epik_Ionization_Penalty_Neutral>  (1510) 
0.0020999999999999999

>  <r_epik_State_Penalty>  (1510) 
0.041000000000000002

>  <r_i_docking_score>  (1510) 
-4.3081457433859702

>  <r_i_glide_ecoul>  (1510) 
-5.7192506790161097

>  <r_i_glide_eff_state_penalty>  (1510) 
0.041000000000000002

>  <r_i_glide_einternal>  (1510) 
3.99660325050354

>  <r_i_glide_emodel>  (1510) 
-58.3617500761572

>  <r_i_glide_energy>  (1510) 
-44.781586647033699

>  <r_i_glide_erotb>  (1510) 
0.81952877097533405

>  <r_i_glide_esite>  (1510) 
-0.118487720958059

>  <r_i_glide_evdw>  (1510) 
-39.062335968017599

>  <r_i_glide_gscore>  (1510) 
-4.3491457433859697

>  <r_i_glide_hbond>  (1510) 
-0.20000000000000001

>  <r_i_glide_ligand_efficiency>  (1510) 
-0.13054987101169599

>  <r_i_glide_ligand_efficiency_ln>  (1510) 
-0.95810930694419305

>  <r_i_glide_ligand_efficiency_sa>  (1510) 
-0.41874319255849601

>  <r_i_glide_lipo>  (1510) 
-1.41594002951359

>  <r_i_glide_metal>  (1510) 
-0

>  <r_i_glide_rewards>  (1510) 
-0.62324236363636198

>  <r_lp_Energy>  (1510) 
28.4437

>  <r_qp_ACxDN^.5/SA>  (1510) 
0.015384800000000001

>  <r_qp_CIQPlogS>  (1510) 
-5.8209999999999997

>  <r_qp_EA(eV)>  (1510) 
0.68700000000000006

>  <r_qp_FISA>  (1510) 
83.867999999999995

>  <r_qp_FOSA>  (1510) 
333.39999999999998

>  <r_qp_IP(eV)>  (1510) 
8.016

>  <r_qp_Jm>  (1510) 
0.024552862848629401

>  <r_qp_PISA>  (1510) 
312.346

>  <r_qp_PSA>  (1510) 
69.863

>  <r_qp_PercentHumanOralAbsorption>  (1510) 
100

>  <r_qp_QPPCaco>  (1510) 
395.80599999999998

>  <r_qp_QPPMDCK>  (1510) 
200.98099999999999

>  <r_qp_QPlogBB>  (1510) 
-0.44500000000000001

>  <r_qp_QPlogHERG>  (1510) 
-6.4349999999999996

>  <r_qp_QPlogKhsa>  (1510) 
0.70599999999999996

>  <r_qp_QPlogKp>  (1510) 
-3.0670000000000002

>  <r_qp_QPlogPC16>  (1510) 
14.852

>  <r_qp_QPlogPo/w>  (1510) 
4.4710000000000001

>  <r_qp_QPlogPoct>  (1510) 
24.018999999999998

>  <r_qp_QPlogPw>  (1510) 
13

>  <r_qp_QPlogS>  (1510) 
-4.1870000000000003

>  <r_qp_QPpolrz>  (1510) 
46.884999999999998

>  <r_qp_SASA>  (1510) 
729.61400000000003

>  <r_qp_SAamideO>  (1510) 
0

>  <r_qp_SAfluorine>  (1510) 
0

>  <r_qp_WPSA>  (1510) 
0

>  <r_qp_accptHB>  (1510) 
6

>  <r_qp_dip^2/V>  (1510) 
0.020190699999999999

>  <r_qp_dipole>  (1510) 
5.3380000000000001

>  <r_qp_donorHB>  (1510) 
3.5

>  <r_qp_glob>  (1510) 
0.83393879999999998

>  <r_qp_mol_MW>  (1510) 
440.58999999999997

>  <r_qp_volume>  (1510) 
1411.2159999999999

>  <r_sd_BIOSOLVEIT.INFINISEE\_FTREES\_SIMILARITY>  (1510) 
0.91300000000000003

>  <r_sd_BIOSOLVEIT.LOGP>  (1510) 
3.4316200000000001

>  <r_sd_BIOSOLVEIT.MOLECULAR\_WEIGHT>  (1510) 
441.60000000000002

>  <r_sd_BIOSOLVEIT.TPSA>  (1510) 
80.299999999999997

>  <i_epik_Tot_Q>  (1510) 
1

>  <i_epik_Tot_abs_Q>  (1510) 
1

>  <i_f3d_flags>  (1510) 
0

>  <i_i_glide_confnum>  (1510) 
6

>  <i_i_glide_lignum>  (1510) 
438

>  <i_i_glide_posenum>  (1510) 
13

>  <i_i_glide_rotatable_bonds>  (1510) 
9

>  <i_lp_mmshare_version>  (1510) 
65135

>  <i_m_ct_format>  (1510) 
2

>  <i_m_source_file_index>  (1510) 
1131

>  <i_qp_#NandO>  (1510) 
6

>  <i_qp_#acid>  (1510) 
0

>  <i_qp_#amide>  (1510) 
0

>  <i_qp_#amidine>  (1510) 
0

>  <i_qp_#amine>  (1510) 
1

>  <i_qp_#in34>  (1510) 
0

>  <i_qp_#in56>  (1510) 
22

>  <i_qp_#metab>  (1510) 
7

>  <i_qp_#nonHatm>  (1510) 
33

>  <i_qp_#noncon>  (1510) 
0

>  <i_qp_#ringatoms>  (1510) 
22

>  <i_qp_#rotor>  (1510) 
10

>  <i_qp_#rtvFG>  (1510) 
0

>  <i_qp_#stars>  (1510) 
0

>  <i_qp_CNS>  (1510) 
0

>  <i_qp_HumanOralAbsorption>  (1510) 
3

>  <i_qp_RuleOfFive>  (1510) 
0

>  <i_qp_RuleOfThree>  (1510) 
1

>  <i_sd_BIOSOLVEIT.INFINISEE\_REAGENT1\_NAME>  (1510) 
21926464

>  <i_sd_BIOSOLVEIT.INFINISEE\_REAGENT2\_NAME>  (1510) 
23157418

>  <i_sd_BIOSOLVEIT.INFINISEE\_REAGENT3\_NAME>  (1510) 
21961622

>  <i_sd_BIOSOLVEIT.INFINISEE\_RESULT\_RANK>  (1510) 
35507

>  <i_sd_version>  (1510) 
0

>  <b_lp_Chiralities_Consistent>  (1510) 
1

>  <b_sd_chiral_flag>  (1510) 
0

>  <canonical_id>  (1510) 
ATP-HTVS-EE3EC74621FE

>  <compound_code>  (1510) 
36163

>  <title>  (1510) 
m_282030aaa____21926464____23157418____21961622

>  <variant>  (1510) 
36163-1

>  <source_file>  (1510) 
运行/运行/ATP-VSW/ATP-VSW-DOCK_HTVS_1-003_lib/ATP-VSW-DOCK_HTVS_1-003_lib.mae

>  <canonical_smiles>  (1510) 
Cc1c(N)cccc1CNc1nc2ccccc2nc1NCCc1ccc(C[NH+](C)C)cc1

>  <scaffold>  (1510) 
c1ccc(CCNc2nc3ccccc3nc2NCc2ccccc2)cc1

>  <molecular_formula>  (1510) 
C27H33N6+

$$$$
ATP-HTVS-EE5B82122D17
     RDKit          3D

 69 72  0  0  0  0  0  0  0  0999 V2000
  200.0740  179.7950  154.6105 O   0  0  0  0  0  0  0  0  0  0  0  0
  198.9171  180.1767  154.4248 C   0  0  0  0  0  0  0  0  0  0  0  0
  198.2130  180.9314  155.3000 N   0  0  0  0  0  0  0  0  0  0  0  0
  198.6892  181.7407  156.3656 C   0  0  0  0  0  0  0  0  0  0  0  0
  199.9995  182.0800  156.4630 N   0  0  0  0  0  0  0  0  0  0  0  0
  200.4142  182.8363  157.4930 C   0  0  0  0  0  0  0  0  0  0  0  0
  199.5500  183.3367  158.4928 C   0  0  0  0  0  0  0  0  0  0  0  0
  200.1063  184.0726  159.5598 N   0  0  0  0  0  0  0  0  0  0  0  0
  199.7664  185.4856  159.6229 C   0  0  1  0  0  0  0  0  0  0  0  0
  199.9078  186.2854  158.3561 C   0  0  0  0  0  0  0  0  0  0  0  0
  198.8917  187.1844  157.9696 C   0  0  0  0  0  0  0  0  0  0  0  0
  199.0627  188.0010  156.8330 C   0  0  0  0  0  0  0  0  0  0  0  0
  200.2564  187.9087  156.0923 C   0  0  0  0  0  0  0  0  0  0  0  0
  201.2469  186.9644  156.4454 C   0  0  0  0  0  0  0  0  0  0  0  0
  201.0793  186.1622  157.5789 C   0  0  0  0  0  0  0  0  0  0  0  0
  200.4858  188.8009  154.9016 C   0  0  1  0  0  0  0  0  0  0  0  0
  199.7868  188.3790  153.6590 N   0  0  2  0  0  0  0  0  0  0  0  0
  199.9659  186.9408  153.2919 C   0  0  1  0  0  0  0  0  0  0  0  0
  198.9406  186.4317  152.2678 C   0  0  2  0  0  0  0  0  0  0  0  0
  200.0374  189.3419  152.5472 C   0  0  1  0  0  0  0  0  0  0  0  0
  201.5208  189.5293  152.1625 C   0  0  2  0  0  0  0  0  0  0  0  0
  198.1693  183.0364  158.3745 C   0  0  0  0  0  0  0  0  0  0  0  0
  197.7287  182.2382  157.2892 C   0  0  0  0  0  0  0  0  0  0  0  0
  196.3520  181.9113  157.1864 C   0  0  0  0  0  0  0  0  0  0  0  0
  195.4313  182.3705  158.1459 C   0  0  0  0  0  0  0  0  0  0  0  0
  195.8726  183.1494  159.2256 C   0  0  0  0  0  0  0  0  0  0  0  0
  197.2343  183.4648  159.3527 C   0  0  0  0  0  0  0  0  0  0  0  0
  198.1541  179.7616  153.1893 C   0  0  0  0  0  0  0  0  0  0  0  0
  198.7663  178.9202  152.2222 C   0  0  0  0  0  0  0  0  0  0  0  0
  198.0958  178.5843  151.0165 C   0  0  0  0  0  0  0  0  0  0  0  0
  196.8212  179.1234  150.7729 C   0  0  0  0  0  0  0  0  0  0  0  0
  196.2071  179.9585  151.7168 C   0  0  0  0  0  0  0  0  0  0  0  0
  196.8696  180.2900  152.9054 C   0  0  0  0  0  0  0  0  0  0  0  0
  198.7574  177.6679  150.0361 C   0  0  0  0  0  0  0  0  0  0  0  0
  199.8563  177.1591  150.2077 O   0  0  0  0  0  0  0  0  0  0  0  0
  197.9923  177.3634  148.7393 C   0  0  2  0  0  0  0  0  0  0  0  0
  197.2194  180.9971  155.1317 H   0  0  0  0  0  0  0  0  0  0  0  0
  201.4655  183.0662  157.5052 H   0  0  0  0  0  0  0  0  0  0  0  0
  201.0781  183.8857  159.7495 H   0  0  0  0  0  0  0  0  0  0  0  0
  198.7685  185.6582  160.0202 H   0  0  0  0  0  0  0  0  0  0  0  0
  200.4569  185.9413  160.3469 H   0  0  0  0  0  0  0  0  0  0  0  0
  197.9778  187.2634  158.5436 H   0  0  0  0  0  0  0  0  0  0  0  0
  198.2917  188.7030  156.5488 H   0  0  0  0  0  0  0  0  0  0  0  0
  202.1495  186.8635  155.8589 H   0  0  0  0  0  0  0  0  0  0  0  0
  201.8495  185.4532  157.8509 H   0  0  0  0  0  0  0  0  0  0  0  0
  200.1961  189.8228  155.1650 H   0  0  0  0  0  0  0  0  0  0  0  0
  201.5689  188.8033  154.7758 H   0  0  0  0  0  0  0  0  0  0  0  0
  200.9846  186.7627  152.9542 H   0  0  0  0  0  0  0  0  0  0  0  0
  199.8233  186.2987  154.1645 H   0  0  0  0  0  0  0  0  0  0  0  0
  199.0651  185.3622  152.1178 H   0  0  0  0  0  0  0  0  0  0  0  0
  199.0316  186.9017  151.2890 H   0  0  0  0  0  0  0  0  0  0  0  0
  197.9252  186.5886  152.6297 H   0  0  0  0  0  0  0  0  0  0  0  0
  199.5151  189.0210  151.6520 H   0  0  0  0  0  0  0  0  0  0  0  0
  199.5896  190.3029  152.8122 H   0  0  0  0  0  0  0  0  0  0  0  0
  201.6077  190.1677  151.2917 H   0  0  0  0  0  0  0  0  0  0  0  0
  201.9845  188.5802  151.8989 H   0  0  0  0  0  0  0  0  0  0  0  0
  202.1237  189.9890  152.9508 H   0  0  0  0  0  0  0  0  0  0  0  0
  195.9584  181.2747  156.4050 H   0  0  0  0  0  0  0  0  0  0  0  0
  194.3889  182.0851  158.0585 H   0  0  0  0  0  0  0  0  0  0  0  0
  195.1758  183.4743  159.9832 H   0  0  0  0  0  0  0  0  0  0  0  0
  197.5525  184.0000  160.2313 H   0  0  0  0  0  0  0  0  0  0  0  0
  199.7538  178.5171  152.4091 H   0  0  0  0  0  0  0  0  0  0  0  0
  196.2758  178.9095  149.8628 H   0  0  0  0  0  0  0  0  0  0  0  0
  195.2243  180.3563  151.5186 H   0  0  0  0  0  0  0  0  0  0  0  0
  196.3522  180.9558  153.5839 H   0  0  0  0  0  0  0  0  0  0  0  0
  197.0349  176.8991  148.9637 H   0  0  0  0  0  0  0  0  0  0  0  0
  198.5530  176.6841  148.1037 H   0  0  0  0  0  0  0  0  0  0  0  0
  197.8093  178.2841  148.1855 H   0  0  0  0  0  0  0  0  0  0  0  0
  198.8013  188.4467  153.8864 H   0  0  0  0  0  0  0  0  0  0  0  0
  1  2  2  0
  2  3  1  0
  2 28  1  0
  3  4  1  0
  3 37  1  0
  4  5  1  0
  4 23  2  0
  5  6  2  0
  6  7  1  0
  6 38  1  0
  7  8  1  0
  7 22  2  0
  8  9  1  0
  8 39  1  0
  9 10  1  0
  9 40  1  1
  9 41  1  0
 10 11  1  0
 10 15  2  0
 11 12  2  0
 11 42  1  0
 12 13  1  0
 12 43  1  0
 13 14  2  0
 13 16  1  0
 14 15  1  0
 14 44  1  0
 15 45  1  0
 16 17  1  0
 16 46  1  1
 16 47  1  0
 17 18  1  0
 17 20  1  0
 17 69  1  1
 18 19  1  0
 18 48  1  6
 18 49  1  0
 19 50  1  6
 19 51  1  0
 19 52  1  0
 20 21  1  0
 20 53  1  6
 20 54  1  0
 21 55  1  6
 21 56  1  0
 21 57  1  0
 22 23  1  0
 22 27  1  0
 23 24  1  0
 24 25  2  0
 24 58  1  0
 25 26  1  0
 25 59  1  0
 26 27  2  0
 26 60  1  0
 27 61  1  0
 28 29  2  0
 28 33  1  0
 29 30  1  0
 29 62  1  0
 30 31  2  0
 30 34  1  0
 31 32  1  0
 31 63  1  0
 32 33  2  0
 32 64  1  0
 33 65  1  0
 34 35  2  0
 34 36  1  0
 36 66  1  1
 36 67  1  0
 36 68  1  0
M  CHG  1  17   1
M  END
>  <s_epik_cmdline>  (1511) 
J2VwaWtfcHl0aG9uJywgJy1waCcsICc3LjAwMDAwMCcsICctcGh0JywgJzIuMDAwMDAwJywgJy1tcycsICcxNicsICctdG4nLCAnOCcsICctbWEnLCAnMjAwJywgJy1pbWFlJywgJzxpbmZpbGUubWFlPicsICctb21hZScsICc8b3V0ZmlsZS5tYWU+Jw==

>  <s_epik_input>  (1511) 
W2NIXTFbY0hdW2NIXWMoQyg9TylbQ0gzXSlbY0hdYzFDKD1PKVtOSF1jKGMoYzIzKVtjSF1bY0hdW2NIXVtjSF0zKW5bY0hdYzJbTkhdW0NIMl1jNFtjSF1bY0hdYyhbY0hdW2NIXTQpW0NIMl1OKFtDSDJdW0NIM10pW0NIMl1bQ0gzXQ==

>  <s_i_glide_gridfile>  (1511) 
ATP-Grid

>  <s_lp_Force_Field>  (1511) 
OPLS_2005

>  <s_lp_Variant>  (1511) 
rxn502c____EMOL492224____EMOL29936549____EMOL2868412-1

>  <s_lp_label>  (1511) 
2628_sdstereoexpander_1_neutralizer_1_epik_1_stereoizer_1

>  <s_m_source_file>  (1511) 
ATP-VSW-LIGPREP-002-in.maegz

>  <s_sd_BIOSOLVEIT.INFINISEE\_QUERY\_NAME>  (1511) 
Ref-Lig

>  <s_sd_BIOSOLVEIT.INFINISEE\_QUERY\_SMILES>  (1511) 
S(c1nc2c(cc1C[NH2+]Cc3ccc(cc3)C[NH+](C)C)cccc2)Cc4ccccc4

>  <s_sd_BIOSOLVEIT.INFINISEE\_REACTION\_NAME>  (1511) 
rxn502c

>  <s_sd_BIOSOLVEIT.INFINISEE\_REAGENT1\_NAME>  (1511) 
EMOL492224

>  <s_sd_BIOSOLVEIT.INFINISEE\_REAGENT1\_SMILES>  (1511) 
O=C(O)c1cc(ccc1)C(=O)C

>  <s_sd_BIOSOLVEIT.INFINISEE\_REAGENT2\_NAME>  (1511) 
EMOL29936549

>  <s_sd_BIOSOLVEIT.INFINISEE\_REAGENT2\_SMILES>  (1511) 
Clc1c2c(c(nc1)N)cccc2

>  <s_sd_BIOSOLVEIT.INFINISEE\_REAGENT3\_NAME>  (1511) 
EMOL2868412

>  <s_sd_BIOSOLVEIT.INFINISEE\_REAGENT3\_SMILES>  (1511) 
N(Cc1ccc(cc1)CN)(CC)CC

>  <s_sd_BIOSOLVEIT.INFINISEE\_SPACE>  (1511) 
eXplore_7tr_2022-12

>  <s_vsw_compound_code>  (1511) 
84066

>  <s_vsw_variant>  (1511) 
84066-1

>  <r_epik_Charging_Adjusted_Penalty>  (1511) 
0.031839065509258802

>  <r_epik_Ionization_Penalty>  (1511) 
0.0161

>  <r_epik_Ionization_Penalty_Charging>  (1511) 
0.015900000000000001

>  <r_epik_Ionization_Penalty_Neutral>  (1511) 
0.0001

>  <r_epik_State_Penalty>  (1511) 
0.015900000000000001

>  <r_i_docking_score>  (1511) 
-3.0139903977360398

>  <r_i_glide_ecoul>  (1511) 
-3.20340800285339

>  <r_i_glide_eff_state_penalty>  (1511) 
0.015900000000000001

>  <r_i_glide_einternal>  (1511) 
8.2808446884155291

>  <r_i_glide_emodel>  (1511) 
-41.063652059477199

>  <r_i_glide_energy>  (1511) 
-36.827923536300702

>  <r_i_glide_erotb>  (1511) 
0.699730791427293

>  <r_i_glide_esite>  (1511) 
-0.041148857618049199

>  <r_i_glide_evdw>  (1511) 
-33.624515533447301

>  <r_i_glide_gscore>  (1511) 
-3.0298903977360401

>  <r_i_glide_hbond>  (1511) 
0

>  <r_i_glide_ligand_efficiency>  (1511) 
-0.083721955492667796

>  <r_i_glide_ligand_efficiency_ln>  (1511) 
-0.657571276175693

>  <r_i_glide_ligand_efficiency_sa>  (1511) 
-0.27644380584176897

>  <r_i_glide_lipo>  (1511) 
-1.2886666650010401

>  <r_i_glide_metal>  (1511) 
-0

>  <r_i_glide_rewards>  (1511) 
-0.23806868944387499

>  <r_lp_Energy>  (1511) 
36.266418000000002

>  <r_lp_tautomer_probability>  (1511) 
0.99995000000000001

>  <r_qp_ACxDN^.5/SA>  (1511) 
0.015313500000000001

>  <r_qp_CIQPlogS>  (1511) 
-5.8090000000000002

>  <r_qp_EA(eV)>  (1511) 
1.0629999999999999

>  <r_qp_FISA>  (1511) 
110.794

>  <r_qp_FOSA>  (1511) 
310.97300000000001

>  <r_qp_IP(eV)>  (1511) 
8.0180000000000007

>  <r_qp_Jm>  (1511) 
0.0059613133529198602

>  <r_qp_PISA>  (1511) 
363.21300000000002

>  <r_qp_PSA>  (1511) 
86.409999999999997

>  <r_qp_PercentHumanOralAbsorption>  (1511) 
94.201999999999998

>  <r_qp_QPPCaco>  (1511) 
219.857

>  <r_qp_QPPMDCK>  (1511) 
106.45399999999999

>  <r_qp_QPlogBB>  (1511) 
-0.748

>  <r_qp_QPlogHERG>  (1511) 
-6.9539999999999997

>  <r_qp_QPlogKhsa>  (1511) 
0.64600000000000002

>  <r_qp_QPlogKp>  (1511) 
-3.3839999999999999

>  <r_qp_QPlogPC16>  (1511) 
16.123000000000001

>  <r_qp_QPlogPo/w>  (1511) 
4.327

>  <r_qp_QPlogPoct>  (1511) 
25.440000000000001

>  <r_qp_QPlogPw>  (1511) 
13.928000000000001

>  <r_qp_QPlogS>  (1511) 
-4.5220000000000002

>  <r_qp_QPpolrz>  (1511) 
51.994

>  <r_qp_SASA>  (1511) 
784.98000000000002

>  <r_qp_SAamideO>  (1511) 
0

>  <r_qp_SAfluorine>  (1511) 
0

>  <r_qp_WPSA>  (1511) 
0

>  <r_qp_accptHB>  (1511) 
8.5

>  <r_qp_dip^2/V>  (1511) 
0.0401269

>  <r_qp_dipole>  (1511) 
7.827

>  <r_qp_donorHB>  (1511) 
2

>  <r_qp_glob>  (1511) 
0.81686840000000005

>  <r_qp_mol_MW>  (1511) 
480.608

>  <r_qp_volume>  (1511) 
1526.751

>  <r_sd_BIOSOLVEIT.INFINISEE\_FTREES\_SIMILARITY>  (1511) 
0.91000000000000003

>  <r_sd_BIOSOLVEIT.LOGP>  (1511) 
4.7264999999999997

>  <r_sd_BIOSOLVEIT.MOLECULAR\_WEIGHT>  (1511) 
481.61700000000002

>  <r_sd_BIOSOLVEIT.TPSA>  (1511) 
75.530000000000001

>  <i_epik_Tot_Q>  (1511) 
1

>  <i_epik_Tot_abs_Q>  (1511) 
1

>  <i_f3d_flags>  (1511) 
0

>  <i_i_glide_confnum>  (1511) 
2

>  <i_i_glide_lignum>  (1511) 
1224

>  <i_i_glide_posenum>  (1511) 
17

>  <i_i_glide_rotatable_bonds>  (1511) 
11

>  <i_lp_mmshare_version>  (1511) 
65135

>  <i_m_ct_format>  (1511) 
2

>  <i_m_source_file_index>  (1511) 
2628

>  <i_qp_#NandO>  (1511) 
6

>  <i_qp_#acid>  (1511) 
0

>  <i_qp_#amide>  (1511) 
0

>  <i_qp_#amidine>  (1511) 
0

>  <i_qp_#amine>  (1511) 
1

>  <i_qp_#in34>  (1511) 
0

>  <i_qp_#in56>  (1511) 
22

>  <i_qp_#metab>  (1511) 
6

>  <i_qp_#nonHatm>  (1511) 
36

>  <i_qp_#noncon>  (1511) 
0

>  <i_qp_#ringatoms>  (1511) 
22

>  <i_qp_#rotor>  (1511) 
10

>  <i_qp_#rtvFG>  (1511) 
0

>  <i_qp_#stars>  (1511) 
0

>  <i_qp_CNS>  (1511) 
0

>  <i_qp_HumanOralAbsorption>  (1511) 
3

>  <i_qp_RuleOfFive>  (1511) 
0

>  <i_qp_RuleOfThree>  (1511) 
0

>  <i_sd_BIOSOLVEIT.INFINISEE\_RESULT\_RANK>  (1511) 
44105

>  <i_sd_version>  (1511) 
0

>  <b_lp_Chiralities_Consistent>  (1511) 
1

>  <b_sd_chiral_flag>  (1511) 
0

>  <canonical_id>  (1511) 
ATP-HTVS-EE5B82122D17

>  <compound_code>  (1511) 
84066

>  <title>  (1511) 
rxn502c____EMOL492224____EMOL29936549____EMOL2868412

>  <variant>  (1511) 
84066-1

>  <source_file>  (1511) 
运行/运行/ATP-VSW/ATP-VSW-DOCK_HTVS_1-002_lib.maegz

>  <canonical_smiles>  (1511) 
CC[NH+](CC)Cc1ccc(CNc2cnc(NC(=O)c3cccc(C(C)=O)c3)c3ccccc23)cc1

>  <scaffold>  (1511) 
O=C(Nc1ncc(NCc2ccccc2)c2ccccc12)c1ccccc1

>  <molecular_formula>  (1511) 
C30H33N4O2+

$$$$
ATP-HTVS-EE6CCEFDAAD0
     RDKit          3D

 52 55  0  0  0  0  0  0  0  0999 V2000
  198.7498  187.0734  153.1130 O   0  0  0  0  0  0  0  0  0  0  0  0
  198.2505  185.8098  153.4787 C   0  0  1  0  0  0  0  0  0  0  0  0
  199.2827  184.7338  153.1122 C   0  0  1  0  0  0  0  0  0  0  0  0
  198.8254  183.4017  153.4928 N   0  0  0  0  0  0  0  0  0  0  0  0
  197.9947  182.6082  152.6692 C   0  0  0  0  0  0  0  0  0  0  0  0
  197.5480  181.3358  153.1281 C   0  0  0  0  0  0  0  0  0  0  0  0
  196.7278  180.5299  152.3038 C   0  0  0  0  0  0  0  0  0  0  0  0
  196.3477  180.9715  151.0225 C   0  0  0  0  0  0  0  0  0  0  0  0
  196.7738  182.2322  150.5670 C   0  0  0  0  0  0  0  0  0  0  0  0
  197.5817  183.0454  151.3843 C   0  0  0  0  0  0  0  0  0  0  0  0
  197.9297  180.8142  154.5063 C   0  0  1  0  0  0  0  0  0  0  0  0
  197.3320  181.6500  155.5692 N   0  0  1  0  0  0  0  0  0  0  0  0
  197.8083  181.3481  156.9354 C   0  0  1  0  0  0  0  0  0  0  0  0
  197.8697  182.6097  157.7954 C   0  0  0  0  0  0  0  0  0  0  0  0
  196.6595  183.1246  158.3473 C   0  0  0  0  0  0  0  0  0  0  0  0
  196.7004  184.2589  159.1942 C   0  0  0  0  0  0  0  0  0  0  0  0
  197.9233  184.8732  159.4913 C   0  0  0  0  0  0  0  0  0  0  0  0
  199.1216  184.3745  158.9546 C   0  0  0  0  0  0  0  0  0  0  0  0
  199.1108  183.2476  158.0928 C   0  0  0  0  0  0  0  0  0  0  0  0
  200.3567  182.7941  157.5793 C   0  0  0  0  0  0  0  0  0  0  0  0
  201.5597  183.4320  157.9330 C   0  0  0  0  0  0  0  0  0  0  0  0
  201.5495  184.5400  158.7951 C   0  0  0  0  0  0  0  0  0  0  0  0
  200.3281  185.0101  159.3048 C   0  0  0  0  0  0  0  0  0  0  0  0
  195.5177  184.7911  159.7479 C   0  0  0  0  0  0  0  0  0  0  0  0
  194.2739  184.2151  159.4417 C   0  0  0  0  0  0  0  0  0  0  0  0
  194.2159  183.0931  158.5992 C   0  0  0  0  0  0  0  0  0  0  0  0
  195.3972  182.5422  158.0731 C   0  0  0  0  0  0  0  0  0  0  0  0
  197.5658  182.6100  155.3541 H   0  0  0  0  0  0  0  0  0  0  0  0
  198.0680  187.7010  153.3162 H   0  0  0  0  0  0  0  0  0  0  0  0
  198.0298  185.8057  154.5491 H   0  0  0  0  0  0  0  0  0  0  0  0
  197.3006  185.6359  152.9643 H   0  0  0  0  0  0  0  0  0  0  0  0
  199.5431  184.7839  152.0520 H   0  0  0  0  0  0  0  0  0  0  0  0
  200.2132  184.9261  153.6530 H   0  0  0  0  0  0  0  0  0  0  0  0
  199.2598  183.0179  154.3207 H   0  0  0  0  0  0  0  0  0  0  0  0
  196.3860  179.5615  152.6448 H   0  0  0  0  0  0  0  0  0  0  0  0
  195.7232  180.3506  150.3968 H   0  0  0  0  0  0  0  0  0  0  0  0
  196.4915  182.5869  149.5889 H   0  0  0  0  0  0  0  0  0  0  0  0
  197.8743  184.0019  150.9842 H   0  0  0  0  0  0  0  0  0  0  0  0
  197.6220  179.7753  154.6387 H   0  0  0  0  0  0  0  0  0  0  0  0
  199.0187  180.8239  154.5824 H   0  0  0  0  0  0  0  0  0  0  0  0
  197.1473  180.6382  157.4062 H   0  0  0  0  0  0  0  0  0  0  0  0
  198.7564  180.8122  156.9297 H   0  0  0  0  0  0  0  0  0  0  0  0
  197.9435  185.7335  160.1468 H   0  0  0  0  0  0  0  0  0  0  0  0
  200.4487  181.9485  156.9178 H   0  0  0  0  0  0  0  0  0  0  0  0
  202.4987  183.0672  157.5402 H   0  0  0  0  0  0  0  0  0  0  0  0
  202.4722  185.0360  159.0573 H   0  0  0  0  0  0  0  0  0  0  0  0
  200.3264  185.8607  159.9738 H   0  0  0  0  0  0  0  0  0  0  0  0
  195.5592  185.6533  160.3987 H   0  0  0  0  0  0  0  0  0  0  0  0
  193.3634  184.6425  159.8355 H   0  0  0  0  0  0  0  0  0  0  0  0
  193.2649  182.6562  158.3317 H   0  0  0  0  0  0  0  0  0  0  0  0
  195.2746  181.6790  157.4351 H   0  0  0  0  0  0  0  0  0  0  0  0
  196.3240  181.5728  155.5502 H   0  0  0  0  0  0  0  0  0  0  0  0
  1  2  1  0
  1 29  1  0
  2  3  1  0
  2 30  1  1
  2 31  1  0
  3  4  1  0
  3 32  1  6
  3 33  1  0
  4  5  1  0
  4 34  1  0
  5  6  1  0
  5 10  2  0
  6  7  2  0
  6 11  1  0
  7  8  1  0
  7 35  1  0
  8  9  2  0
  8 36  1  0
  9 10  1  0
  9 37  1  0
 10 38  1  0
 11 12  1  0
 11 39  1  1
 11 40  1  0
 12 13  1  0
 12 28  1  6
 12 52  1  0
 13 14  1  0
 13 41  1  1
 13 42  1  0
 14 15  2  0
 14 19  1  0
 15 16  1  0
 15 27  1  0
 16 17  2  0
 16 24  1  0
 17 18  1  0
 17 43  1  0
 18 19  1  0
 18 23  2  0
 19 20  2  0
 20 21  1  0
 20 44  1  0
 21 22  2  0
 21 45  1  0
 22 23  1  0
 22 46  1  0
 23 47  1  0
 24 25  2  0
 24 48  1  0
 25 26  1  0
 25 49  1  0
 26 27  2  0
 26 50  1  0
 27 51  1  0
M  CHG  1  12   1
M  END
>  <s_epik_cmdline>  (1512) 
J2VwaWtfcHl0aG9uJywgJy1waCcsICc3LjAwMDAwMCcsICctcGh0JywgJzIuMDAwMDAwJywgJy1tcycsICcxNicsICctdG4nLCAnOCcsICctbWEnLCAnMjAwJywgJy1pbWFlJywgJzxpbmZpbGUubWFlPicsICctb21hZScsICc8b3V0ZmlsZS5tYWU+Jw==

>  <s_epik_input>  (1512) 
W09IXVtDSDJdW0NIMl1bTkhdYzFjKFtjSF1bY0hdW2NIXVtjSF0xKVtDSDJdW05IXVtDSDJdYzJjKFtjSF1bY0hdW2NIXVtjSF0zKWMzW2NIXWMoYzI0KVtjSF1bY0hdW2NIXVtjSF00

>  <s_i_glide_gridfile>  (1512) 
ATP-Grid

>  <s_lp_Force_Field>  (1512) 
OPLS_2005

>  <s_lp_Variant>  (1512) 
m_270004bbb____25289968____7547452-1

>  <s_lp_label>  (1512) 
1039_sdstereoexpander_1_neutralizer_1_epik_1_stereoizer_1

>  <s_m_source_file>  (1512) 
ATP-VSW-LIGPREP-001-in.maegz

>  <s_sd_BIOSOLVEIT.INFINISEE\_QUERY\_NAME>  (1512) 
Ref-Lig

>  <s_sd_BIOSOLVEIT.INFINISEE\_QUERY\_SMILES>  (1512) 
S(c1nc2c(cc1C[NH2+]Cc3ccc(cc3)C[NH+](C)C)cccc2)Cc4ccccc4

>  <s_sd_BIOSOLVEIT.INFINISEE\_REACTION\_NAME>  (1512) 
m_270004bbb

>  <s_sd_BIOSOLVEIT.INFINISEE\_REAGENT1\_SMILES>  (1512) 
[R1*]NCc1c(NCCO)cccc1

>  <s_sd_BIOSOLVEIT.INFINISEE\_REAGENT2\_SMILES>  (1512) 
[R1*]Cc1c2c(cc3c1cccc3)cccc2

>  <s_sd_BIOSOLVEIT.INFINISEE\_SPACE>  (1512) 
REALSpace_44bn_2023-08

>  <s_vsw_compound_code>  (1512) 
33217

>  <s_vsw_variant>  (1512) 
33217-1

>  <r_epik_Charging_Adjusted_Penalty>  (1512) 
0.14494090118670899

>  <r_epik_Ionization_Penalty>  (1512) 
0.1115

>  <r_epik_Ionization_Penalty_Charging>  (1512) 
0.1115

>  <r_epik_Ionization_Penalty_Neutral>  (1512) 
0

>  <r_epik_State_Penalty>  (1512) 
0.033399999999999999

>  <r_i_docking_score>  (1512) 
-4.5756941014165804

>  <r_i_glide_ecoul>  (1512) 
-8.1038074493408203

>  <r_i_glide_eff_state_penalty>  (1512) 
0.033399999999999999

>  <r_i_glide_einternal>  (1512) 
2.8115832805633501

>  <r_i_glide_emodel>  (1512) 
-50.900350129112397

>  <r_i_glide_energy>  (1512) 
-36.993820190429702

>  <r_i_glide_erotb>  (1512) 
0.89891624171600903

>  <r_i_glide_esite>  (1512) 
-0.038724255735872598

>  <r_i_glide_evdw>  (1512) 
-28.890012741088899

>  <r_i_glide_gscore>  (1512) 
-4.6090941014165798

>  <r_i_glide_hbond>  (1512) 
-0.318115474063347

>  <r_i_glide_ligand_efficiency>  (1512) 
-0.16947015190431799

>  <r_i_glide_ligand_efficiency_ln>  (1512) 
-1.06514615059686

>  <r_i_glide_ligand_efficiency_sa>  (1512) 
-0.50841045515440797

>  <r_i_glide_lipo>  (1512) 
-1.2942904497869001

>  <r_i_glide_metal>  (1512) 
-0

>  <r_i_glide_rewards>  (1512) 
-1.1968084090909099

>  <r_lp_Energy>  (1512) 
24.312863

>  <r_qp_ACxDN^.5/SA>  (1512) 
0.011899699999999999

>  <r_qp_CIQPlogS>  (1512) 
-4.7279999999999998

>  <r_qp_EA(eV)>  (1512) 
1.3580000000000001

>  <r_qp_FISA>  (1512) 
35.100999999999999

>  <r_qp_FOSA>  (1512) 
125.244

>  <r_qp_IP(eV)>  (1512) 
7.7300000000000004

>  <r_qp_Jm>  (1512) 
4.1135499192944698

>  <r_qp_PISA>  (1512) 
450.98399999999998

>  <r_qp_PSA>  (1512) 
44.033999999999999

>  <r_qp_PercentHumanOralAbsorption>  (1512) 
100

>  <r_qp_QPPCaco>  (1512) 
1147.9939999999999

>  <r_qp_QPPMDCK>  (1512) 
635.35599999999999

>  <r_qp_QPlogBB>  (1512) 
0.16400000000000001

>  <r_qp_QPlogHERG>  (1512) 
-6.6539999999999999

>  <r_qp_QPlogKhsa>  (1512) 
0.41399999999999998

>  <r_qp_QPlogKp>  (1512) 
-1.8720000000000001

>  <r_qp_QPlogPC16>  (1512) 
12.914999999999999

>  <r_qp_QPlogPo/w>  (1512) 
4.0469999999999997

>  <r_qp_QPlogPoct>  (1512) 
19.242999999999999

>  <r_qp_QPlogPw>  (1512) 
11.263

>  <r_qp_QPlogS>  (1512) 
-3.0659999999999998

>  <r_qp_QPpolrz>  (1512) 
38.478000000000002

>  <r_qp_SASA>  (1512) 
611.32899999999995

>  <r_qp_SAamideO>  (1512) 
0

>  <r_qp_SAfluorine>  (1512) 
0

>  <r_qp_WPSA>  (1512) 
0

>  <r_qp_accptHB>  (1512) 
4.2000000000000002

>  <r_qp_dip^2/V>  (1512) 
0.0073492000000000002

>  <r_qp_dipole>  (1512) 
2.8889999999999998

>  <r_qp_donorHB>  (1512) 
3

>  <r_qp_glob>  (1512) 
0.86126369999999997

>  <r_qp_mol_MW>  (1512) 
356.46600000000001

>  <r_qp_volume>  (1512) 
1135.9760000000001

>  <r_sd_BIOSOLVEIT.INFINISEE\_FTREES\_SIMILARITY>  (1512) 
0.91500000000000004

>  <r_sd_BIOSOLVEIT.LOGP>  (1512) 
3.6608000000000001

>  <r_sd_BIOSOLVEIT.MOLECULAR\_WEIGHT>  (1512) 
357.47500000000002

>  <r_sd_BIOSOLVEIT.TPSA>  (1512) 
48.869999999999997

>  <i_epik_Tot_Q>  (1512) 
1

>  <i_epik_Tot_abs_Q>  (1512) 
1

>  <i_f3d_flags>  (1512) 
0

>  <i_i_glide_confnum>  (1512) 
2

>  <i_i_glide_lignum>  (1512) 
227

>  <i_i_glide_posenum>  (1512) 
4

>  <i_i_glide_rotatable_bonds>  (1512) 
8

>  <i_lp_mmshare_version>  (1512) 
65135

>  <i_m_ct_format>  (1512) 
2

>  <i_m_source_file_index>  (1512) 
1039

>  <i_qp_#NandO>  (1512) 
3

>  <i_qp_#acid>  (1512) 
0

>  <i_qp_#amide>  (1512) 
0

>  <i_qp_#amidine>  (1512) 
0

>  <i_qp_#amine>  (1512) 
1

>  <i_qp_#in34>  (1512) 
0

>  <i_qp_#in56>  (1512) 
20

>  <i_qp_#metab>  (1512) 
8

>  <i_qp_#nonHatm>  (1512) 
27

>  <i_qp_#noncon>  (1512) 
0

>  <i_qp_#ringatoms>  (1512) 
20

>  <i_qp_#rotor>  (1512) 
8

>  <i_qp_#rtvFG>  (1512) 
0

>  <i_qp_#stars>  (1512) 
2

>  <i_qp_CNS>  (1512) 
1

>  <i_qp_HumanOralAbsorption>  (1512) 
3

>  <i_qp_RuleOfFive>  (1512) 
0

>  <i_qp_RuleOfThree>  (1512) 
1

>  <i_sd_BIOSOLVEIT.INFINISEE\_REAGENT1\_NAME>  (1512) 
25289968

>  <i_sd_BIOSOLVEIT.INFINISEE\_REAGENT2\_NAME>  (1512) 
7547452

>  <i_sd_BIOSOLVEIT.INFINISEE\_RESULT\_RANK>  (1512) 
28863

>  <i_sd_version>  (1512) 
0

>  <b_lp_Chiralities_Consistent>  (1512) 
1

>  <b_sd_chiral_flag>  (1512) 
0

>  <canonical_id>  (1512) 
ATP-HTVS-EE6CCEFDAAD0

>  <compound_code>  (1512) 
33217

>  <title>  (1512) 
m_270004bbb____25289968____7547452

>  <variant>  (1512) 
33217-1

>  <source_file>  (1512) 
运行/运行/ATP-VSW/ATP-VSW-DOCK_HTVS_1-001_lib/ATP-VSW-DOCK_HTVS_1-001_lib

>  <canonical_smiles>  (1512) 
OCCNc1ccccc1C[NH2+]Cc1c2ccccc2cc2ccccc12

>  <scaffold>  (1512) 
c1ccc(C[NH2+]Cc2c3ccccc3cc3ccccc23)cc1

>  <molecular_formula>  (1512) 
C24H25N2O+

$$$$
ATP-HTVS-EE8A818A3017
     RDKit          3D

 56 59  0  0  0  0  0  0  0  0999 V2000
  204.2565  181.0880  152.7597 O   0  0  0  0  0  0  0  0  0  0  0  0
  203.3862  180.3197  152.0182 C   0  0  0  0  0  0  0  0  0  0  0  0
  202.2030  180.0925  152.7642 C   0  0  0  0  0  0  0  0  0  0  0  0
  201.1951  179.3129  152.1485 C   0  0  0  0  0  0  0  0  0  0  0  0
  201.3733  178.7941  150.8475 C   0  0  0  0  0  0  0  0  0  0  0  0
  202.5669  179.0383  150.1367 C   0  0  0  0  0  0  0  0  0  0  0  0
  203.5881  179.8085  150.7242 C   0  0  0  0  0  0  0  0  0  0  0  0
  202.3860  180.7704  154.0252 C   0  0  0  0  0  0  0  0  0  0  0  0
  203.6369  181.3385  153.9537 C   0  0  0  0  0  0  0  0  0  0  0  0
  201.4499  180.8304  155.2014 C   0  0  1  0  0  0  0  0  0  0  0  0
  200.1896  181.2899  154.6265 N   0  0  0  0  0  0  0  0  0  0  0  0
  199.0668  181.5801  155.4165 C   0  0  0  0  0  0  0  0  0  0  0  0
  199.1705  181.9337  156.7809 C   0  0  0  0  0  0  0  0  0  0  0  0
  198.0167  182.2250  157.5288 C   0  0  0  0  0  0  0  0  0  0  0  0
  196.7518  182.1482  156.9176 C   0  0  0  0  0  0  0  0  0  0  0  0
  195.5197  182.4464  157.7269 N   0  0  1  0  0  0  0  0  0  0  0  0
  195.5505  183.7280  158.4705 C   0  0  1  0  0  0  0  0  0  0  0  0
  194.3442  183.8625  159.3996 C   0  0  1  0  0  0  0  0  0  0  0  0
  194.3983  185.0905  160.0900 O   0  0  0  0  0  0  0  0  0  0  0  0
  196.6285  181.8012  155.5601 C   0  0  0  0  0  0  0  0  0  0  0  0
  197.7913  181.5186  154.8126 C   0  0  0  0  0  0  0  0  0  0  0  0
  201.3114  179.4947  155.8108 C   0  0  0  0  0  0  0  0  0  0  0  0
  201.1212  178.3776  156.2626 C   0  0  0  0  0  0  0  0  0  0  0  0
  200.8185  177.0259  156.7498 C   0  0  1  0  0  0  0  0  0  0  0  0
  200.5828  176.1684  155.6304 O   0  0  0  0  0  0  0  0  0  0  0  0
  201.5074  175.2189  155.2424 C   0  0  0  0  0  0  0  0  0  0  0  0
  201.2889  174.5887  153.9948 C   0  0  0  0  0  0  0  0  0  0  0  0
  202.1617  173.5853  153.5260 C   0  0  0  0  0  0  0  0  0  0  0  0
  203.2715  173.2039  154.3020 C   0  0  0  0  0  0  0  0  0  0  0  0
  203.4953  173.8225  155.5449 C   0  0  0  0  0  0  0  0  0  0  0  0
  202.6216  174.8174  156.0177 C   0  0  0  0  0  0  0  0  0  0  0  0
  200.2804  179.1039  152.6829 H   0  0  0  0  0  0  0  0  0  0  0  0
  200.5917  178.2014  150.3953 H   0  0  0  0  0  0  0  0  0  0  0  0
  202.6965  178.6315  149.1431 H   0  0  0  0  0  0  0  0  0  0  0  0
  204.5105  180.0024  150.1976 H   0  0  0  0  0  0  0  0  0  0  0  0
  204.2092  181.9302  154.6525 H   0  0  0  0  0  0  0  0  0  0  0  0
  201.8157  181.5390  155.9486 H   0  0  0  0  0  0  0  0  0  0  0  0
  200.0177  180.9966  153.6765 H   0  0  0  0  0  0  0  0  0  0  0  0
  200.1286  181.9809  157.2758 H   0  0  0  0  0  0  0  0  0  0  0  0
  198.1166  182.4751  158.5732 H   0  0  0  0  0  0  0  0  0  0  0  0
  194.7207  182.4891  157.1004 H   0  0  0  0  0  0  0  0  0  0  0  0
  196.4521  183.8050  159.0797 H   0  0  0  0  0  0  0  0  0  0  0  0
  195.5898  184.5489  157.7560 H   0  0  0  0  0  0  0  0  0  0  0  0
  193.4061  183.7970  158.8513 H   0  0  0  0  0  0  0  0  0  0  0  0
  194.3676  183.0539  160.1324 H   0  0  0  0  0  0  0  0  0  0  0  0
  194.1205  185.7766  159.4998 H   0  0  0  0  0  0  0  0  0  0  0  0
  195.6567  181.7527  155.0886 H   0  0  0  0  0  0  0  0  0  0  0  0
  197.6945  181.2525  153.7712 H   0  0  0  0  0  0  0  0  0  0  0  0
  201.5989  176.7231  157.4445 H   0  0  0  0  0  0  0  0  0  0  0  0
  199.8901  177.0871  157.3193 H   0  0  0  0  0  0  0  0  0  0  0  0
  200.4374  174.8694  153.3878 H   0  0  0  0  0  0  0  0  0  0  0  0
  201.9823  173.1014  152.5741 H   0  0  0  0  0  0  0  0  0  0  0  0
  203.9424  172.4299  153.9541 H   0  0  0  0  0  0  0  0  0  0  0  0
  204.3345  173.5260  156.1514 H   0  0  0  0  0  0  0  0  0  0  0  0
  202.8371  175.2324  156.9885 H   0  0  0  0  0  0  0  0  0  0  0  0
  195.3529  181.6826  158.3673 H   0  0  0  0  0  0  0  0  0  0  0  0
  1  2  1  0
  1  9  1  0
  2  3  1  0
  2  7  2  0
  3  4  2  0
  3  8  1  0
  4  5  1  0
  4 32  1  0
  5  6  2  0
  5 33  1  0
  6  7  1  0
  6 34  1  0
  7 35  1  0
  8  9  2  0
  8 10  1  0
  9 36  1  0
 10 11  1  0
 10 22  1  0
 10 37  1  1
 11 12  1  0
 11 38  1  0
 12 13  1  0
 12 21  2  0
 13 14  2  0
 13 39  1  0
 14 15  1  0
 14 40  1  0
 15 16  1  0
 15 20  2  0
 16 17  1  0
 16 41  1  6
 16 56  1  0
 17 18  1  0
 17 42  1  1
 17 43  1  0
 18 19  1  0
 18 44  1  6
 18 45  1  0
 19 46  1  0
 20 21  1  0
 20 47  1  0
 21 48  1  0
 22 23  3  0
 23 24  1  0
 24 25  1  0
 24 49  1  1
 24 50  1  0
 25 26  1  0
 26 27  2  0
 26 31  1  0
 27 28  1  0
 27 51  1  0
 28 29  2  0
 28 52  1  0
 29 30  1  0
 29 53  1  0
 30 31  2  0
 30 54  1  0
 31 55  1  0
M  CHG  1  16   1
M  END
>  <s_epik_cmdline>  (1513) 
J2VwaWtfcHl0aG9uJywgJy1waCcsICc3LjAwMDAwMCcsICctcGh0JywgJzIuMDAwMDAwJywgJy1tcycsICcxNicsICctdG4nLCAnOCcsICctbWEnLCAnMjAwJywgJy1pbWFlJywgJzxpbmZpbGUubWFlPicsICctb21hZScsICc8b3V0ZmlsZS5tYWU+Jw==

>  <s_epik_input>  (1513) 
W09IXVtDSDJdW0NIMl1bTkhdYyhbY0hdW2NIXTEpW2NIXVtjSF1jMVtOSF1bQ0BIXShjKFtjSF1vMiljKGMyMylbY0hdW2NIXVtjSF1bY0hdMylDI0NbQ0gyXU9jNFtjSF1bY0hdW2NIXVtjSF1bY0hdNA==

>  <s_i_glide_gridfile>  (1513) 
ATP-Grid

>  <s_lp_Force_Field>  (1513) 
OPLS_2005

>  <s_lp_Variant>  (1513) 
rxn403____EMOL8314610____EMOL24201912____EMOL530791-4

>  <s_lp_label>  (1513) 
2254_sdstereoexpander_2_neutralizer_1_epik_2_stereoizer_1

>  <s_m_source_file>  (1513) 
ATP-VSW-LIGPREP-001-in.maegz

>  <s_sd_BIOSOLVEIT.INFINISEE\_QUERY\_NAME>  (1513) 
Ref-Lig

>  <s_sd_BIOSOLVEIT.INFINISEE\_QUERY\_SMILES>  (1513) 
S(c1nc2c(cc1C[NH2+]Cc3ccc(cc3)C[NH+](C)C)cccc2)Cc4ccccc4

>  <s_sd_BIOSOLVEIT.INFINISEE\_REACTION\_NAME>  (1513) 
rxn403

>  <s_sd_BIOSOLVEIT.INFINISEE\_REAGENT1\_NAME>  (1513) 
EMOL8314610

>  <s_sd_BIOSOLVEIT.INFINISEE\_REAGENT1\_SMILES>  (1513) 
OCCNc1ccc(N)cc1

>  <s_sd_BIOSOLVEIT.INFINISEE\_REAGENT2\_NAME>  (1513) 
EMOL24201912

>  <s_sd_BIOSOLVEIT.INFINISEE\_REAGENT2\_SMILES>  (1513) 
O=CC=1c2c(OC1)cccc2

>  <s_sd_BIOSOLVEIT.INFINISEE\_REAGENT3\_NAME>  (1513) 
EMOL530791

>  <s_sd_BIOSOLVEIT.INFINISEE\_REAGENT3\_SMILES>  (1513) 
O(c1ccccc1)CC#C

>  <s_sd_BIOSOLVEIT.INFINISEE\_SPACE>  (1513) 
eXplore_7tr_2022-12

>  <s_vsw_compound_code>  (1513) 
72097

>  <s_vsw_variant>  (1513) 
72097-4

>  <r_epik_Charging_Adjusted_Penalty>  (1513) 
1.30690819367976

>  <r_epik_Ionization_Penalty>  (1513) 
0.39910000000000001

>  <r_epik_Ionization_Penalty_Charging>  (1513) 
0.39910000000000001

>  <r_epik_Ionization_Penalty_Neutral>  (1513) 
0

>  <r_epik_State_Penalty>  (1513) 
0.90780000000000005

>  <r_i_docking_score>  (1513) 
-2.9581124675027102

>  <r_i_glide_ecoul>  (1513) 
-9.7911233901977504

>  <r_i_glide_eff_state_penalty>  (1513) 
0.90780000000000005

>  <r_i_glide_einternal>  (1513) 
1.8565878868103001

>  <r_i_glide_emodel>  (1513) 
-48.289972144982301

>  <r_i_glide_energy>  (1513) 
-34.874304771423297

>  <r_i_glide_erotb>  (1513) 
1.0385198835346101

>  <r_i_glide_esite>  (1513) 
-0.079906533659511295

>  <r_i_glide_evdw>  (1513) 
-25.0831813812256

>  <r_i_glide_gscore>  (1513) 
-3.8659124675027101

>  <r_i_glide_hbond>  (1513) 
-0.48829705975320697

>  <r_i_glide_ligand_efficiency>  (1513) 
-0.095422982822668007

>  <r_i_glide_ligand_efficiency_ln>  (1513) 
-0.66714501668170501

>  <r_i_glide_ligand_efficiency_sa>  (1513) 
-0.29975991168948202

>  <r_i_glide_lipo>  (1513) 
-1.02354868003366

>  <r_i_glide_metal>  (1513) 
-0

>  <r_i_glide_rewards>  (1513) 
-0.589852499999999

>  <r_lp_Energy>  (1513) 
20.123373000000001

>  <r_lp_tautomer_probability>  (1513) 
1

>  <r_qp_ACxDN^.5/SA>  (1513) 
0.012371099999999999

>  <r_qp_CIQPlogS>  (1513) 
-6.6870000000000003

>  <r_qp_EA(eV)>  (1513) 
0.38700000000000001

>  <r_qp_FISA>  (1513) 
74.921000000000006

>  <r_qp_FOSA>  (1513) 
162.00899999999999

>  <r_qp_IP(eV)>  (1513) 
8.0540000000000003

>  <r_qp_Jm>  (1513) 
2.3901988993093402

>  <r_qp_PISA>  (1513) 
456.11099999999999

>  <r_qp_PSA>  (1513) 
63.829999999999998

>  <r_qp_PercentHumanOralAbsorption>  (1513) 
100

>  <r_qp_QPPCaco>  (1513) 
1929.3889999999999

>  <r_qp_QPPMDCK>  (1513) 
1006.596

>  <r_qp_QPlogBB>  (1513) 
-0.82799999999999996

>  <r_qp_QPlogHERG>  (1513) 
-6.4939999999999998

>  <r_qp_QPlogKhsa>  (1513) 
0.56000000000000005

>  <r_qp_QPlogKp>  (1513) 
-0.23699999999999999

>  <r_qp_QPlogPC16>  (1513) 
14.635999999999999

>  <r_qp_QPlogPo/w>  (1513) 
4.9779999999999998

>  <r_qp_QPlogPoct>  (1513) 
21.16

>  <r_qp_QPlogPw>  (1513) 
11.842000000000001

>  <r_qp_QPlogS>  (1513) 
-5

>  <r_qp_QPpolrz>  (1513) 
42.844000000000001

>  <r_qp_SASA>  (1513) 
693.04200000000003

>  <r_qp_SAamideO>  (1513) 
0

>  <r_qp_SAfluorine>  (1513) 
0

>  <r_qp_WPSA>  (1513) 
0

>  <r_qp_accptHB>  (1513) 
4.9500000000000002

>  <r_qp_dip^2/V>  (1513) 
0.0034643999999999999

>  <r_qp_dipole>  (1513) 
2.1160000000000001

>  <r_qp_donorHB>  (1513) 
3

>  <r_qp_glob>  (1513) 
0.82777469999999997

>  <r_qp_mol_MW>  (1513) 
412.48700000000002

>  <r_qp_volume>  (1513) 
1291.991

>  <r_sd_BIOSOLVEIT.INFINISEE\_FTREES\_SIMILARITY>  (1513) 
0.92600000000000005

>  <r_sd_BIOSOLVEIT.LOGP>  (1513) 
5.0726000000000004

>  <r_sd_BIOSOLVEIT.MOLECULAR\_WEIGHT>  (1513) 
412.48700000000002

>  <r_sd_BIOSOLVEIT.TPSA>  (1513) 
66.659999999999997

>  <i_epik_Tot_Q>  (1513) 
1

>  <i_epik_Tot_abs_Q>  (1513) 
1

>  <i_f3d_flags>  (1513) 
0

>  <i_i_glide_confnum>  (1513) 
1

>  <i_i_glide_lignum>  (1513) 
777

>  <i_i_glide_posenum>  (1513) 
7

>  <i_i_glide_rotatable_bonds>  (1513) 
11

>  <i_lp_mmshare_version>  (1513) 
65135

>  <i_m_ct_format>  (1513) 
2

>  <i_m_source_file_index>  (1513) 
2254

>  <i_qp_#NandO>  (1513) 
5

>  <i_qp_#acid>  (1513) 
0

>  <i_qp_#amide>  (1513) 
0

>  <i_qp_#amidine>  (1513) 
0

>  <i_qp_#amine>  (1513) 
0

>  <i_qp_#in34>  (1513) 
0

>  <i_qp_#in56>  (1513) 
21

>  <i_qp_#metab>  (1513) 
9

>  <i_qp_#nonHatm>  (1513) 
31

>  <i_qp_#noncon>  (1513) 
0

>  <i_qp_#ringatoms>  (1513) 
21

>  <i_qp_#rotor>  (1513) 
11

>  <i_qp_#rtvFG>  (1513) 
0

>  <i_qp_#stars>  (1513) 
2

>  <i_qp_CNS>  (1513) 
-1

>  <i_qp_HumanOralAbsorption>  (1513) 
3

>  <i_qp_RuleOfFive>  (1513) 
0

>  <i_qp_RuleOfThree>  (1513) 
1

>  <i_sd_BIOSOLVEIT.INFINISEE\_RESULT\_RANK>  (1513) 
7948

>  <i_sd_version>  (1513) 
0

>  <b_lp_Chiralities_Consistent>  (1513) 
1

>  <b_sd_chiral_flag>  (1513) 
0

>  <canonical_id>  (1513) 
ATP-HTVS-EE8A818A3017

>  <compound_code>  (1513) 
72097

>  <title>  (1513) 
rxn403____EMOL8314610____EMOL24201912____EMOL530791

>  <variant>  (1513) 
72097-4

>  <source_file>  (1513) 
运行/运行/ATP-VSW/ATP-VSW-DOCK_HTVS_1-001_lib/ATP-VSW-DOCK_HTVS_1-001_lib

>  <canonical_smiles>  (1513) 
OCC[NH2+]c1ccc(N[C@@H](C#CCOc2ccccc2)c2coc3ccccc23)cc1

>  <scaffold>  (1513) 
C(#CC(Nc1ccccc1)c1coc2ccccc12)COc1ccccc1

>  <molecular_formula>  (1513) 
C26H25N2O3+

$$$$
ATP-HTVS-EE9B34D8B24D
     RDKit          3D

 46 48  0  0  0  0  0  0  0  0999 V2000
  194.3478  182.3394  158.5413 S   0  0  0  0  0  0  0  0  0  0  0  0
  196.0108  182.6774  158.1279 C   0  0  0  0  0  0  0  0  0  0  0  0
  196.4546  183.8414  158.5995 N   0  0  0  0  0  0  0  0  0  0  0  0
  195.4897  184.5609  159.3060 C   0  0  0  0  0  0  0  0  0  0  0  0
  195.8228  185.8801  159.8663 C   0  0  0  0  0  0  0  0  0  0  0  0
  194.9683  186.5015  160.8036 C   0  0  0  0  0  0  0  0  0  0  0  0
  195.2772  187.7739  161.3257 C   0  0  0  0  0  0  0  0  0  0  0  0
  196.4440  188.4424  160.9131 C   0  0  0  0  0  0  0  0  0  0  0  0
  196.7516  189.6612  161.4400 O   0  0  0  0  0  0  0  0  0  0  0  0
  197.3049  187.8327  159.9790 C   0  0  0  0  0  0  0  0  0  0  0  0
  196.9943  186.5610  159.4604 C   0  0  0  0  0  0  0  0  0  0  0  0
  194.2916  183.8821  159.3553 C   0  0  0  0  0  0  0  0  0  0  0  0
  196.7377  181.8037  157.3436 N   0  0  0  0  0  0  0  0  0  0  0  0
  197.9407  181.9391  156.5412 C   0  0  1  0  0  0  0  0  0  0  0  0
  198.2361  183.3598  156.0841 C   0  0  0  0  0  0  0  0  0  0  0  0
  199.4399  183.9933  156.4487 C   0  0  0  0  0  0  0  0  0  0  0  0
  199.7408  185.2811  155.9569 C   0  0  0  0  0  0  0  0  0  0  0  0
  198.8276  185.9467  155.1066 C   0  0  0  0  0  0  0  0  0  0  0  0
  197.5829  185.3495  154.8205 C   0  0  0  0  0  0  0  0  0  0  0  0
  197.3042  184.0480  155.2784 C   0  0  0  0  0  0  0  0  0  0  0  0
  199.1929  187.2795  154.4677 C   0  0  1  0  0  0  0  0  0  0  0  0
  199.6752  187.1197  153.0643 N   0  0  1  0  0  0  0  0  0  0  0  0
  198.7039  186.4765  152.1425 C   0  0  2  0  0  0  0  0  0  0  0  0
  200.1778  188.3910  152.4978 C   0  0  2  0  0  0  0  0  0  0  0  0
  194.0646  186.0112  161.1309 H   0  0  0  0  0  0  0  0  0  0  0  0
  194.6173  188.2433  162.0391 H   0  0  0  0  0  0  0  0  0  0  0  0
  197.6811  189.7431  161.6335 H   0  0  0  0  0  0  0  0  0  0  0  0
  198.2090  188.3320  159.6599 H   0  0  0  0  0  0  0  0  0  0  0  0
  197.6684  186.1090  158.7464 H   0  0  0  0  0  0  0  0  0  0  0  0
  193.3709  184.1970  159.8166 H   0  0  0  0  0  0  0  0  0  0  0  0
  196.3347  180.8683  157.3268 H   0  0  0  0  0  0  0  0  0  0  0  0
  198.7883  181.5397  157.0964 H   0  0  0  0  0  0  0  0  0  0  0  0
  197.8148  181.3206  155.6529 H   0  0  0  0  0  0  0  0  0  0  0  0
  200.1421  183.4789  157.0872 H   0  0  0  0  0  0  0  0  0  0  0  0
  200.6881  185.7314  156.2205 H   0  0  0  0  0  0  0  0  0  0  0  0
  196.8461  185.8565  154.2196 H   0  0  0  0  0  0  0  0  0  0  0  0
  196.3723  183.5733  155.0023 H   0  0  0  0  0  0  0  0  0  0  0  0
  198.3434  187.9651  154.5023 H   0  0  0  0  0  0  0  0  0  0  0  0
  199.9766  187.7526  155.0685 H   0  0  0  0  0  0  0  0  0  0  0  0
  197.7868  187.0625  152.0931 H   0  0  0  0  0  0  0  0  0  0  0  0
  198.4474  185.4630  152.4551 H   0  0  0  0  0  0  0  0  0  0  0  0
  199.1074  186.4057  151.1289 H   0  0  0  0  0  0  0  0  0  0  0  0
  199.3925  189.1472  152.4769 H   0  0  0  0  0  0  0  0  0  0  0  0
  200.5218  188.2438  151.4741 H   0  0  0  0  0  0  0  0  0  0  0  0
  201.0177  188.7838  153.0717 H   0  0  0  0  0  0  0  0  0  0  0  0
  200.4677  186.4960  153.1154 H   0  0  0  0  0  0  0  0  0  0  0  0
  1  2  1  0
  1 12  1  0
  2  3  2  0
  2 13  1  0
  3  4  1  0
  4  5  1  0
  4 12  2  0
  5  6  1  0
  5 11  2  0
  6  7  2  0
  6 25  1  0
  7  8  1  0
  7 26  1  0
  8  9  1  0
  8 10  2  0
  9 27  1  0
 10 11  1  0
 10 28  1  0
 11 29  1  0
 12 30  1  0
 13 14  1  0
 13 31  1  0
 14 15  1  0
 14 32  1  1
 14 33  1  0
 15 16  1  0
 15 20  2  0
 16 17  2  0
 16 34  1  0
 17 18  1  0
 17 35  1  0
 18 19  2  0
 18 21  1  0
 19 20  1  0
 19 36  1  0
 20 37  1  0
 21 22  1  0
 21 38  1  6
 21 39  1  0
 22 23  1  0
 22 24  1  0
 22 46  1  1
 23 40  1  6
 23 41  1  0
 23 42  1  0
 24 43  1  6
 24 44  1  0
 24 45  1  0
M  CHG  1  22   1
M  END
>  <s_epik_cmdline>  (1514) 
J2VwaWtfcHl0aG9uJywgJy1waCcsICc3LjAwMDAwMCcsICctcGh0JywgJzIuMDAwMDAwJywgJy1tcycsICcxNicsICctdG4nLCAnOCcsICctbWEnLCAnMjAwJywgJy1pbWFlJywgJzxpbmZpbGUubWFlPicsICctb21hZScsICc8b3V0ZmlsZS5tYWU+Jw==

>  <s_epik_input>  (1514) 
W2NIXTFbY0hdYyhbT0hdKVtjSF1bY0hdYzEtYyhuMilbY0hdc2MyW05IXVtDSDJdYzNbY0hdW2NIXWMoW2NIXVtjSF0zKVtDSDJdTihbQ0gzXSlbQ0gzXQ==

>  <s_i_glide_gridfile>  (1514) 
ATP-Grid

>  <s_lp_Force_Field>  (1514) 
OPLS_2005

>  <s_lp_Variant>  (1514) 
WXDL_15E____QS5063____LN00171853____BT0555-1

>  <s_lp_label>  (1514) 
636_sdstereoexpander_1_neutralizer_1_epik_1_stereoizer_1

>  <s_m_source_file>  (1514) 
ATP-VSW-LIGPREP-003-in.maegz

>  <s_sd_BIOSOLVEIT.INFINISEE\_QUERY\_NAME>  (1514) 
Ref-Lig

>  <s_sd_BIOSOLVEIT.INFINISEE\_QUERY\_SMILES>  (1514) 
S(c1nc2c(cc1C[NH2+]Cc3ccc(cc3)C[NH+](C)C)cccc2)Cc4ccccc4

>  <s_sd_BIOSOLVEIT.INFINISEE\_REACTION\_NAME>  (1514) 
WXDL_15E

>  <s_sd_BIOSOLVEIT.INFINISEE\_REAGENT1\_NAME>  (1514) 
QS5063

>  <s_sd_BIOSOLVEIT.INFINISEE\_REAGENT1\_SMILES>  (1514) 
O=Cc1ccc(cc1)CN(C)C

>  <s_sd_BIOSOLVEIT.INFINISEE\_REAGENT2\_NAME>  (1514) 
LN00171853

>  <s_sd_BIOSOLVEIT.INFINISEE\_REAGENT2\_SMILES>  (1514) 
BrC=1N=C(SC1)NC(=O)OC(C)(C)C

>  <s_sd_BIOSOLVEIT.INFINISEE\_REAGENT3\_NAME>  (1514) 
BT0555

>  <s_sd_BIOSOLVEIT.INFINISEE\_REAGENT3\_SMILES>  (1514) 
Oc1ccc(cc1)B(O)O

>  <s_sd_BIOSOLVEIT.INFINISEE\_SPACE>  (1514) 
GalaXi_12bn_2023-03

>  <s_vsw_compound_code>  (1514) 
20323

>  <s_vsw_variant>  (1514) 
20323-1

>  <r_epik_Charging_Adjusted_Penalty>  (1514) 
0.082222346837749205

>  <r_epik_Ionization_Penalty>  (1514) 
0.045100000000000001

>  <r_epik_Ionization_Penalty_Charging>  (1514) 
0.041099999999999998

>  <r_epik_Ionization_Penalty_Neutral>  (1514) 
0.0040000000000000001

>  <r_epik_State_Penalty>  (1514) 
0.041099999999999998

>  <r_i_docking_score>  (1514) 
-5.0100704054629999

>  <r_i_glide_ecoul>  (1514) 
-7.6795964241027797

>  <r_i_glide_eff_state_penalty>  (1514) 
0.041099999999999998

>  <r_i_glide_einternal>  (1514) 
2.9029009342193599

>  <r_i_glide_emodel>  (1514) 
-53.895510802044001

>  <r_i_glide_energy>  (1514) 
-39.238817691803

>  <r_i_glide_erotb>  (1514) 
0.81687508301151401

>  <r_i_glide_esite>  (1514) 
-0.094157775576132197

>  <r_i_glide_evdw>  (1514) 
-31.559221267700199

>  <r_i_glide_gscore>  (1514) 
-5.051170405463

>  <r_i_glide_hbond>  (1514) 
-0.30399999999999999

>  <r_i_glide_ligand_efficiency>  (1514) 
-0.208752933560958

>  <r_i_glide_ligand_efficiency_ln>  (1514) 
-1.1991397451779

>  <r_i_glide_ligand_efficiency_sa>  (1514) 
-0.60214765681952098

>  <r_i_glide_lipo>  (1514) 
-1.65223818589796

>  <r_i_glide_metal>  (1514) 
-0

>  <r_i_glide_rewards>  (1514) 
-1.0877490000000001

>  <r_lp_Energy>  (1514) 
6.4874939999999999

>  <r_lp_tautomer_probability>  (1514) 
0.999999999997365

>  <r_qp_ACxDN^.5/SA>  (1514) 
0.0121438

>  <r_qp_CIQPlogS>  (1514) 
-4.1230000000000002

>  <r_qp_EA(eV)>  (1514) 
0.33600000000000002

>  <r_qp_FISA>  (1514) 
66.067999999999998

>  <r_qp_FOSA>  (1514) 
179.61000000000001

>  <r_qp_IP(eV)>  (1514) 
8.2260000000000009

>  <r_qp_Jm>  (1514) 
0.34766040756133298

>  <r_qp_PISA>  (1514) 
253.916

>  <r_qp_PSA>  (1514) 
46.981000000000002

>  <r_qp_PercentHumanOralAbsorption>  (1514) 
95.667000000000002

>  <r_qp_QPPCaco>  (1514) 
583.822

>  <r_qp_QPPMDCK>  (1514) 
601.25

>  <r_qp_QPlogBB>  (1514) 
0.191

>  <r_qp_QPlogHERG>  (1514) 
-5.0469999999999997

>  <r_qp_QPlogKhsa>  (1514) 
0.29499999999999998

>  <r_qp_QPlogKp>  (1514) 
-3.3290000000000002

>  <r_qp_QPlogPC16>  (1514) 
11.244999999999999

>  <r_qp_QPlogPo/w>  (1514) 
3.2810000000000001

>  <r_qp_QPlogPoct>  (1514) 
16.981000000000002

>  <r_qp_QPlogPw>  (1514) 
9.5299999999999994

>  <r_qp_QPlogS>  (1514) 
-2.6600000000000001

>  <r_qp_QPpolrz>  (1514) 
34.393000000000001

>  <r_qp_SASA>  (1514) 
553.16200000000003

>  <r_qp_SAamideO>  (1514) 
0

>  <r_qp_SAfluorine>  (1514) 
0

>  <r_qp_WPSA>  (1514) 
53.567999999999998

>  <r_qp_accptHB>  (1514) 
4.75

>  <r_qp_dip^2/V>  (1514) 
0.0114906

>  <r_qp_dipole>  (1514) 
3.472

>  <r_qp_donorHB>  (1514) 
2

>  <r_qp_glob>  (1514) 
0.90250850000000005

>  <r_qp_mol_MW>  (1514) 
339.45400000000001

>  <r_qp_volume>  (1514) 
1048.838

>  <r_sd_BIOSOLVEIT.INFINISEE\_FTREES\_SIMILARITY>  (1514) 
0.90600000000000003

>  <r_sd_BIOSOLVEIT.LOGP>  (1514) 
2.7723

>  <r_sd_BIOSOLVEIT.MOLECULAR\_WEIGHT>  (1514) 
340.46800000000002

>  <r_sd_BIOSOLVEIT.TPSA>  (1514) 
49.590000000000003

>  <i_epik_Tot_Q>  (1514) 
1

>  <i_epik_Tot_abs_Q>  (1514) 
1

>  <i_f3d_flags>  (1514) 
0

>  <i_i_glide_confnum>  (1514) 
1

>  <i_i_glide_lignum>  (1514) 
263

>  <i_i_glide_posenum>  (1514) 
17

>  <i_i_glide_rotatable_bonds>  (1514) 
7

>  <i_lp_mmshare_version>  (1514) 
65135

>  <i_m_ct_format>  (1514) 
2

>  <i_m_source_file_index>  (1514) 
636

>  <i_qp_#NandO>  (1514) 
4

>  <i_qp_#acid>  (1514) 
0

>  <i_qp_#amide>  (1514) 
0

>  <i_qp_#amidine>  (1514) 
0

>  <i_qp_#amine>  (1514) 
1

>  <i_qp_#in34>  (1514) 
0

>  <i_qp_#in56>  (1514) 
17

>  <i_qp_#metab>  (1514) 
5

>  <i_qp_#nonHatm>  (1514) 
24

>  <i_qp_#noncon>  (1514) 
0

>  <i_qp_#ringatoms>  (1514) 
17

>  <i_qp_#rotor>  (1514) 
6

>  <i_qp_#rtvFG>  (1514) 
0

>  <i_qp_#stars>  (1514) 
0

>  <i_qp_CNS>  (1514) 
1

>  <i_qp_HumanOralAbsorption>  (1514) 
3

>  <i_qp_RuleOfFive>  (1514) 
0

>  <i_qp_RuleOfThree>  (1514) 
0

>  <i_sd_BIOSOLVEIT.INFINISEE\_RESULT\_RANK>  (1514) 
65160

>  <i_sd_version>  (1514) 
0

>  <b_lp_Chiralities_Consistent>  (1514) 
1

>  <b_sd_chiral_flag>  (1514) 
0

>  <canonical_id>  (1514) 
ATP-HTVS-EE9B34D8B24D

>  <compound_code>  (1514) 
20323

>  <title>  (1514) 
WXDL_15E____QS5063____LN00171853____BT0555

>  <variant>  (1514) 
20323-1

>  <source_file>  (1514) 
运行/运行/ATP-VSW/ATP-VSW-DOCK_HTVS_1-003_lib/ATP-VSW-DOCK_HTVS_1-003_lib.mae

>  <canonical_smiles>  (1514) 
C[NH+](C)Cc1ccc(CNc2nc(-c3ccc(O)cc3)cs2)cc1

>  <scaffold>  (1514) 
c1ccc(CNc2nc(-c3ccccc3)cs2)cc1

>  <molecular_formula>  (1514) 
C19H22N3OS+

$$$$
ATP-HTVS-EEA70E20167C
     RDKit          3D

 55 57  0  0  0  0  0  0  0  0999 V2000
  196.3784  179.3841  149.0663 Cl  0  0  0  0  0  0  0  0  0  0  0  0
  196.6819  180.5146  150.3389 C   0  0  0  0  0  0  0  0  0  0  0  0
  196.3262  180.1580  151.6575 C   0  0  0  0  0  0  0  0  0  0  0  0
  196.5201  181.0600  152.7362 C   0  0  0  0  0  0  0  0  0  0  0  0
  197.1763  182.3014  152.5016 C   0  0  0  0  0  0  0  0  0  0  0  0
  197.5032  182.6760  151.1667 C   0  0  0  0  0  0  0  0  0  0  0  0
  197.2398  181.7903  150.0963 C   0  0  0  0  0  0  0  0  0  0  0  0
  197.4694  183.2229  153.6582 C   0  0  0  0  0  0  0  0  0  0  0  0
  197.1913  184.4142  153.5291 O   0  0  0  0  0  0  0  0  0  0  0  0
  198.0898  182.7398  154.7749 N   0  0  0  0  0  0  0  0  0  0  0  0
  198.5809  181.4180  154.8964 C   0  0  0  0  0  0  0  0  0  0  0  0
  199.8594  181.1177  154.5810 N   0  0  0  0  0  0  0  0  0  0  0  0
  200.2912  179.8402  154.7163 C   0  0  0  0  0  0  0  0  0  0  0  0
  199.4538  178.7864  155.1473 C   0  0  0  0  0  0  0  0  0  0  0  0
  199.8880  177.4415  155.2746 N   0  0  0  0  0  0  0  0  0  0  0  0
  201.3006  177.1831  155.4904 C   0  0  1  0  0  0  0  0  0  0  0  0
  201.7072  175.7352  155.3240 C   0  0  0  0  0  0  0  0  0  0  0  0
  201.1435  174.9540  154.2984 C   0  0  0  0  0  0  0  0  0  0  0  0
  201.5225  173.6058  154.1345 C   0  0  0  0  0  0  0  0  0  0  0  0
  202.5010  173.0542  154.9859 C   0  0  0  0  0  0  0  0  0  0  0  0
  203.1001  173.8467  155.9823 C   0  0  0  0  0  0  0  0  0  0  0  0
  202.6923  175.1793  156.1512 C   0  0  0  0  0  0  0  0  0  0  0  0
  200.8841  172.7713  153.0378 C   0  0  1  0  0  0  0  0  0  0  0  0
  201.5625  172.9262  151.7254 N   0  0  1  0  0  0  0  0  0  0  0  0
  201.4499  174.2872  151.1525 C   0  0  2  0  0  0  0  0  0  0  0  0
  202.9601  172.4364  151.7401 C   0  0  2  0  0  0  0  0  0  0  0  0
  198.1206  179.1122  155.4666 C   0  0  0  0  0  0  0  0  0  0  0  0
  197.6924  180.4328  155.3617 C   0  0  0  0  0  0  0  0  0  0  0  0
  198.3665  183.6475  155.8899 C   0  0  2  0  0  0  0  0  0  0  0  0
  195.8856  179.1944  151.8683 H   0  0  0  0  0  0  0  0  0  0  0  0
  196.1695  180.7770  153.7419 H   0  0  0  0  0  0  0  0  0  0  0  0
  197.9351  183.6436  150.9736 H   0  0  0  0  0  0  0  0  0  0  0  0
  197.4683  182.0916  149.0811 H   0  0  0  0  0  0  0  0  0  0  0  0
  201.3195  179.6890  154.4489 H   0  0  0  0  0  0  0  0  0  0  0  0
  199.2587  176.8368  155.7850 H   0  0  0  0  0  0  0  0  0  0  0  0
  201.9121  177.7336  154.7704 H   0  0  0  0  0  0  0  0  0  0  0  0
  201.5791  177.5342  156.4839 H   0  0  0  0  0  0  0  0  0  0  0  0
  200.3981  175.3895  153.6529 H   0  0  0  0  0  0  0  0  0  0  0  0
  202.7879  172.0187  154.9119 H   0  0  0  0  0  0  0  0  0  0  0  0
  203.8437  173.4249  156.6451 H   0  0  0  0  0  0  0  0  0  0  0  0
  203.1333  175.7729  156.9317 H   0  0  0  0  0  0  0  0  0  0  0  0
  200.9048  171.7238  153.3332 H   0  0  0  0  0  0  0  0  0  0  0  0
  199.8283  173.0395  152.9422 H   0  0  0  0  0  0  0  0  0  0  0  0
  201.9507  175.0273  151.7751 H   0  0  0  0  0  0  0  0  0  0  0  0
  200.4024  174.5732  151.0457 H   0  0  0  0  0  0  0  0  0  0  0  0
  201.9159  174.3353  150.1674 H   0  0  0  0  0  0  0  0  0  0  0  0
  203.5834  173.0257  152.4126 H   0  0  0  0  0  0  0  0  0  0  0  0
  203.4047  172.4949  150.7457 H   0  0  0  0  0  0  0  0  0  0  0  0
  203.0027  171.3962  152.0677 H   0  0  0  0  0  0  0  0  0  0  0  0
  197.4187  178.3376  155.7666 H   0  0  0  0  0  0  0  0  0  0  0  0
  196.6886  180.7037  155.6683 H   0  0  0  0  0  0  0  0  0  0  0  0
  198.8937  183.1349  156.6994 H   0  0  0  0  0  0  0  0  0  0  0  0
  197.4336  184.0384  156.3005 H   0  0  0  0  0  0  0  0  0  0  0  0
  198.9890  184.4911  155.5760 H   0  0  0  0  0  0  0  0  0  0  0  0
  201.0612  172.3277  151.0846 H   0  0  0  0  0  0  0  0  0  0  0  0
  1  2  1  0
  2  3  1  0
  2  7  2  0
  3  4  2  0
  3 30  1  0
  4  5  1  0
  4 31  1  0
  5  6  2  0
  5  8  1  0
  6  7  1  0
  6 32  1  0
  7 33  1  0
  8  9  2  0
  8 10  1  0
 10 11  1  0
 10 29  1  0
 11 12  1  0
 11 28  2  0
 12 13  2  0
 13 14  1  0
 13 34  1  0
 14 15  1  0
 14 27  2  0
 15 16  1  0
 15 35  1  0
 16 17  1  0
 16 36  1  6
 16 37  1  0
 17 18  2  0
 17 22  1  0
 18 19  1  0
 18 38  1  0
 19 20  2  0
 19 23  1  0
 20 21  1  0
 20 39  1  0
 21 22  2  0
 21 40  1  0
 22 41  1  0
 23 24  1  0
 23 42  1  1
 23 43  1  0
 24 25  1  0
 24 26  1  0
 24 55  1  6
 25 44  1  1
 25 45  1  0
 25 46  1  0
 26 47  1  1
 26 48  1  0
 26 49  1  0
 27 28  1  0
 27 50  1  0
 28 51  1  0
 29 52  1  1
 29 53  1  0
 29 54  1  0
M  CHG  1  24   1
M  END
>  <s_epik_cmdline>  (1515) 
J2VwaWtfcHl0aG9uJywgJy1waCcsICc3LjAwMDAwMCcsICctcGh0JywgJzIuMDAwMDAwJywgJy1tcycsICcxNicsICctdG4nLCAnOCcsICctbWEnLCAnMjAwJywgJy1pbWFlJywgJzxpbmZpbGUubWFlPicsICctb21hZScsICc8b3V0ZmlsZS5tYWU+Jw==

>  <s_epik_input>  (1515) 
Q2xjMVtjSF1bY0hdYyhbY0hdW2NIXTEpQyg9TylOKFtDSDNdKWMybltjSF1jKFtjSF1bY0hdMilbTkhdW0NIMl1jM1tjSF1jKFtjSF1bY0hdW2NIXTMpW0NIMl1OKFtDSDNdKVtDSDNd

>  <s_i_glide_gridfile>  (1515) 
ATP-Grid

>  <s_lp_Force_Field>  (1515) 
OPLS_2005

>  <s_lp_Variant>  (1515) 
rxn502a____EMOL480990____EMOL43618924____EMOL2873214-1

>  <s_lp_label>  (1515) 
2891_sdstereoexpander_1_neutralizer_1_epik_1_stereoizer_1

>  <s_m_source_file>  (1515) 
ATP-VSW-LIGPREP-003-in.maegz

>  <s_sd_BIOSOLVEIT.INFINISEE\_QUERY\_NAME>  (1515) 
Ref-Lig

>  <s_sd_BIOSOLVEIT.INFINISEE\_QUERY\_SMILES>  (1515) 
S(c1nc2c(cc1C[NH2+]Cc3ccc(cc3)C[NH+](C)C)cccc2)Cc4ccccc4

>  <s_sd_BIOSOLVEIT.INFINISEE\_REACTION\_NAME>  (1515) 
rxn502a

>  <s_sd_BIOSOLVEIT.INFINISEE\_REAGENT1\_NAME>  (1515) 
EMOL480990

>  <s_sd_BIOSOLVEIT.INFINISEE\_REAGENT1\_SMILES>  (1515) 
Clc1ccc(cc1)C(=O)O

>  <s_sd_BIOSOLVEIT.INFINISEE\_REAGENT2\_NAME>  (1515) 
EMOL43618924

>  <s_sd_BIOSOLVEIT.INFINISEE\_REAGENT2\_SMILES>  (1515) 
Ic1cnc(NC)cc1

>  <s_sd_BIOSOLVEIT.INFINISEE\_REAGENT3\_NAME>  (1515) 
EMOL2873214

>  <s_sd_BIOSOLVEIT.INFINISEE\_REAGENT3\_SMILES>  (1515) 
N(Cc1cc(ccc1)CN)(C)C

>  <s_sd_BIOSOLVEIT.INFINISEE\_SPACE>  (1515) 
eXplore_7tr_2022-12

>  <s_vsw_compound_code>  (1515) 
92483

>  <s_vsw_variant>  (1515) 
92483-1

>  <r_epik_Charging_Adjusted_Penalty>  (1515) 
0.088195370499548398

>  <r_epik_Ionization_Penalty>  (1515) 
0.044200000000000003

>  <r_epik_Ionization_Penalty_Charging>  (1515) 
0.0441

>  <r_epik_Ionization_Penalty_Neutral>  (1515) 
0.0001

>  <r_epik_State_Penalty>  (1515) 
0.0441

>  <r_i_docking_score>  (1515) 
-4.0902733674433804

>  <r_i_glide_ecoul>  (1515) 
-8.0029506683349592

>  <r_i_glide_eff_state_penalty>  (1515) 
0.0441

>  <r_i_glide_einternal>  (1515) 
3.5192458629608199

>  <r_i_glide_emodel>  (1515) 
-50.390102741916003

>  <r_i_glide_energy>  (1515) 
-38.3036499023438

>  <r_i_glide_erotb>  (1515) 
0.82042919597903496

>  <r_i_glide_esite>  (1515) 
-0.062401923110870998

>  <r_i_glide_evdw>  (1515) 
-30.3006992340088

>  <r_i_glide_gscore>  (1515) 
-4.1343733674433798

>  <r_i_glide_hbond>  (1515) 
0

>  <r_i_glide_ligand_efficiency>  (1515) 
-0.14104390922218599

>  <r_i_glide_ligand_efficiency_ln>  (1515) 
-0.93656888076117495

>  <r_i_glide_ligand_efficiency_sa>  (1515) 
-0.43333157497744301

>  <r_i_glide_lipo>  (1515) 
-1.56281926017905

>  <r_i_glide_metal>  (1515) 
-0

>  <r_i_glide_rewards>  (1515) 
-0.61410381818181703

>  <r_lp_Energy>  (1515) 
34.281821999999998

>  <r_lp_tautomer_probability>  (1515) 
0.999999999999999

>  <r_qp_ACxDN^.5/SA>  (1515) 
0.010822999999999999

>  <r_qp_CIQPlogS>  (1515) 
-4.7549999999999999

>  <r_qp_EA(eV)>  (1515) 
0.41099999999999998

>  <r_qp_FISA>  (1515) 
72.418999999999997

>  <r_qp_FOSA>  (1515) 
260.68299999999999

>  <r_qp_IP(eV)>  (1515) 
8.6210000000000004

>  <r_qp_Jm>  (1515) 
0.105583474107559

>  <r_qp_PISA>  (1515) 
273.21100000000001

>  <r_qp_PSA>  (1515) 
57.869999999999997

>  <r_qp_PercentHumanOralAbsorption>  (1515) 
96.882000000000005

>  <r_qp_QPPCaco>  (1515) 
508.214

>  <r_qp_QPPMDCK>  (1515) 
438.64600000000002

>  <r_qp_QPlogBB>  (1515) 
-0.001

>  <r_qp_QPlogHERG>  (1515) 
-5.6959999999999997

>  <r_qp_QPlogKhsa>  (1515) 
0.36399999999999999

>  <r_qp_QPlogKp>  (1515) 
-3.282

>  <r_qp_QPlogPC16>  (1515) 
12.792

>  <r_qp_QPlogPo/w>  (1515) 
3.673

>  <r_qp_QPlogPoct>  (1515) 
19.701000000000001

>  <r_qp_QPlogPw>  (1515) 
10.456

>  <r_qp_QPlogS>  (1515) 
-3.306

>  <r_qp_QPpolrz>  (1515) 
42.017000000000003

>  <r_qp_SASA>  (1515) 
646.76800000000003

>  <r_qp_SAamideO>  (1515) 
0

>  <r_qp_SAfluorine>  (1515) 
0

>  <r_qp_WPSA>  (1515) 
40.454999999999998

>  <r_qp_accptHB>  (1515) 
7

>  <r_qp_dip^2/V>  (1515) 
0.037354999999999999

>  <r_qp_dipole>  (1515) 
6.835

>  <r_qp_donorHB>  (1515) 
1

>  <r_qp_glob>  (1515) 
0.86804000000000003

>  <r_qp_mol_MW>  (1515) 
408.93000000000001

>  <r_qp_volume>  (1515) 
1250.7919999999999

>  <r_sd_BIOSOLVEIT.INFINISEE\_FTREES\_SIMILARITY>  (1515) 
0.90400000000000003

>  <r_sd_BIOSOLVEIT.LOGP>  (1515) 
3.2682000000000002

>  <r_sd_BIOSOLVEIT.MOLECULAR\_WEIGHT>  (1515) 
409.93799999999999

>  <r_sd_BIOSOLVEIT.TPSA>  (1515) 
49.670000000000002

>  <i_epik_Tot_Q>  (1515) 
1

>  <i_epik_Tot_abs_Q>  (1515) 
1

>  <i_f3d_flags>  (1515) 
0

>  <i_i_glide_confnum>  (1515) 
9

>  <i_i_glide_lignum>  (1515) 
1408

>  <i_i_glide_posenum>  (1515) 
4

>  <i_i_glide_rotatable_bonds>  (1515) 
8

>  <i_lp_mmshare_version>  (1515) 
65135

>  <i_m_ct_format>  (1515) 
2

>  <i_m_source_file_index>  (1515) 
2891

>  <i_qp_#NandO>  (1515) 
5

>  <i_qp_#acid>  (1515) 
0

>  <i_qp_#amide>  (1515) 
0

>  <i_qp_#amidine>  (1515) 
0

>  <i_qp_#amine>  (1515) 
1

>  <i_qp_#in34>  (1515) 
0

>  <i_qp_#in56>  (1515) 
18

>  <i_qp_#metab>  (1515) 
6

>  <i_qp_#nonHatm>  (1515) 
29

>  <i_qp_#noncon>  (1515) 
0

>  <i_qp_#ringatoms>  (1515) 
18

>  <i_qp_#rotor>  (1515) 
7

>  <i_qp_#rtvFG>  (1515) 
0

>  <i_qp_#stars>  (1515) 
0

>  <i_qp_CNS>  (1515) 
1

>  <i_qp_HumanOralAbsorption>  (1515) 
3

>  <i_qp_RuleOfFive>  (1515) 
0

>  <i_qp_RuleOfThree>  (1515) 
0

>  <i_sd_BIOSOLVEIT.INFINISEE\_RESULT\_RANK>  (1515) 
73738

>  <i_sd_version>  (1515) 
0

>  <b_lp_Chiralities_Consistent>  (1515) 
1

>  <b_sd_chiral_flag>  (1515) 
0

>  <canonical_id>  (1515) 
ATP-HTVS-EEA70E20167C

>  <compound_code>  (1515) 
92483

>  <title>  (1515) 
rxn502a____EMOL480990____EMOL43618924____EMOL2873214

>  <variant>  (1515) 
92483-1

>  <source_file>  (1515) 
运行/运行/ATP-VSW/ATP-VSW-DOCK_HTVS_1-003_lib/ATP-VSW-DOCK_HTVS_1-003_lib.mae

>  <canonical_smiles>  (1515) 
CN(C(=O)c1ccc(Cl)cc1)c1ccc(NCc2cccc(C[NH+](C)C)c2)cn1

>  <scaffold>  (1515) 
O=C(Nc1ccc(NCc2ccccc2)cn1)c1ccccc1

>  <molecular_formula>  (1515) 
C23H26ClN4O+

$$$$
ATP-HTVS-EEBB6926EC22
     RDKit          3D

 49 52  0  0  0  0  0  0  0  0999 V2000
  194.6142  186.6349  161.3148 Br  0  0  0  0  0  0  0  0  0  0  0  0
  195.5761  185.7054  159.9573 C   0  0  0  0  0  0  0  0  0  0  0  0
  196.0193  186.3600  158.7941 C   0  0  0  0  0  0  0  0  0  0  0  0
  196.7447  185.6421  157.8204 C   0  0  0  0  0  0  0  0  0  0  0  0
  197.0432  184.2726  158.0062 C   0  0  0  0  0  0  0  0  0  0  0  0
  196.5997  183.6252  159.1832 C   0  0  0  0  0  0  0  0  0  0  0  0
  195.8624  184.3432  160.1364 C   0  0  0  0  0  0  0  0  0  0  0  0
  197.8238  183.5301  156.9346 C   0  0  2  0  0  0  0  0  0  0  0  0
  197.7508  182.0729  157.0569 N   0  0  0  0  0  0  0  0  0  0  0  0
  196.9492  181.4033  156.0472 C   0  0  1  0  0  0  0  0  0  0  0  0
  197.7850  180.4069  155.2670 C   0  0  0  0  0  0  0  0  0  0  0  0
  197.9497  180.2220  153.8429 C   0  0  0  0  0  0  0  0  0  0  0  0
  198.7381  179.1770  153.6020 N   0  0  0  0  0  0  0  0  0  0  0  0
  199.1161  178.6640  154.7951 N   0  0  0  0  0  0  0  0  0  0  0  0
  199.9516  177.5089  154.8897 C   0  0  0  0  0  0  0  0  0  0  0  0
  200.3636  176.8076  153.7278 C   0  0  0  0  0  0  0  0  0  0  0  0
  201.1833  175.6620  153.8274 C   0  0  0  0  0  0  0  0  0  0  0  0
  201.6034  175.2070  155.0901 C   0  0  0  0  0  0  0  0  0  0  0  0
  201.2075  175.8931  156.2526 C   0  0  0  0  0  0  0  0  0  0  0  0
  200.3817  177.0307  156.1556 C   0  0  0  0  0  0  0  0  0  0  0  0
  198.5582  179.4173  155.8136 C   0  0  0  0  0  0  0  0  0  0  0  0
  197.3977  180.9810  152.6967 C   0  0  0  0  0  0  0  0  0  0  0  0
  196.9338  182.3185  152.7997 C   0  0  0  0  0  0  0  0  0  0  0  0
  196.3759  182.9486  151.6816 C   0  0  0  0  0  0  0  0  0  0  0  0
  196.3502  182.3891  150.4630 N   0  0  0  0  0  0  0  0  0  0  0  0
  196.8388  181.1375  150.3147 C   0  0  0  0  0  0  0  0  0  0  0  0
  197.3499  180.3905  151.4048 C   0  0  0  0  0  0  0  0  0  0  0  0
  199.2969  183.9442  156.8997 C   0  0  2  0  0  0  0  0  0  0  0  0
  197.3217  181.8476  157.9483 H   0  0  0  0  0  0  0  0  0  0  0  0
  195.8055  187.4124  158.6526 H   0  0  0  0  0  0  0  0  0  0  0  0
  197.0747  186.1508  156.9245 H   0  0  0  0  0  0  0  0  0  0  0  0
  196.8075  182.5894  159.4054 H   0  0  0  0  0  0  0  0  0  0  0  0
  195.5433  183.8376  161.0220 H   0  0  0  0  0  0  0  0  0  0  0  0
  197.4129  183.8860  155.9933 H   0  0  0  0  0  0  0  0  0  0  0  0
  196.1608  180.8703  156.5844 H   0  0  0  0  0  0  0  0  0  0  0  0
  196.3991  182.1339  155.4344 H   0  0  0  0  0  0  0  0  0  0  0  0
  200.0503  177.1387  152.7480 H   0  0  0  0  0  0  0  0  0  0  0  0
  201.4851  175.1395  152.9329 H   0  0  0  0  0  0  0  0  0  0  0  0
  202.2276  174.3288  155.1697 H   0  0  0  0  0  0  0  0  0  0  0  0
  201.5222  175.5461  157.2245 H   0  0  0  0  0  0  0  0  0  0  0  0
  200.0827  177.5196  157.0691 H   0  0  0  0  0  0  0  0  0  0  0  0
  198.7291  179.1763  156.8544 H   0  0  0  0  0  0  0  0  0  0  0  0
  196.9905  182.9410  153.7001 H   0  0  0  0  0  0  0  0  0  0  0  0
  195.9612  183.9370  151.7947 H   0  0  0  0  0  0  0  0  0  0  0  0
  196.8232  180.7391  149.3124 H   0  0  0  0  0  0  0  0  0  0  0  0
  197.7400  179.4028  151.2094 H   0  0  0  0  0  0  0  0  0  0  0  0
  199.3912  185.0172  156.7183 H   0  0  0  0  0  0  0  0  0  0  0  0
  199.8210  183.4315  156.0904 H   0  0  0  0  0  0  0  0  0  0  0  0
  199.7921  183.7063  157.8421 H   0  0  0  0  0  0  0  0  0  0  0  0
  1  2  1  0
  2  3  1  0
  2  7  2  0
  3  4  2  0
  3 30  1  0
  4  5  1  0
  4 31  1  0
  5  6  2  0
  5  8  1  0
  6  7  1  0
  6 32  1  0
  7 33  1  0
  8  9  1  0
  8 28  1  0
  8 34  1  6
  9 10  1  0
  9 29  1  0
 10 11  1  0
 10 35  1  1
 10 36  1  0
 11 12  1  0
 11 21  2  0
 12 13  2  0
 12 22  1  0
 13 14  1  0
 14 15  1  0
 14 21  1  0
 15 16  2  0
 15 20  1  0
 16 17  1  0
 16 37  1  0
 17 18  2  0
 17 38  1  0
 18 19  1  0
 18 39  1  0
 19 20  2  0
 19 40  1  0
 20 41  1  0
 21 42  1  0
 22 23  2  0
 22 27  1  0
 23 24  1  0
 23 43  1  0
 24 25  2  0
 24 44  1  0
 25 26  1  0
 26 27  2  0
 26 45  1  0
 27 46  1  0
 28 47  1  6
 28 48  1  0
 28 49  1  0
M  END
>  <s_epik_cmdline>  (1516) 
J2VwaWtfcHl0aG9uJywgJy1waCcsICc3LjAwMDAwMCcsICctcGh0JywgJzIuMDAwMDAwJywgJy1tcycsICcxNicsICctdG4nLCAnOCcsICctbWEnLCAnMjAwJywgJy1pbWFlJywgJzxpbmZpbGUubWFlPicsICctb21hZScsICc8b3V0ZmlsZS5tYWU+Jw==

>  <s_epik_input>  (1516) 
QnJjMVtjSF1bY0hdYyhbY0hdW2NIXTEpW0NAQEhdKFtDSDNdKVtOSF1bQ0gyXWMyYygtYzNbY0hdW2NIXW5bY0hdW2NIXTMpbm4oW2NIXTIpLWM0W2NIXVtjSF1bY0hdW2NIXVtjSF00

>  <s_i_glide_gridfile>  (1516) 
ATP-Grid

>  <s_lp_Force_Field>  (1516) 
OPLS_2005

>  <s_lp_Variant>  (1516) 
m_269862bba____7196292____7200142-3

>  <s_lp_label>  (1516) 
1744_sdstereoexpander_1_neutralizer_1_epik_2_stereoizer_1

>  <s_m_source_file>  (1516) 
ATP-VSW-LIGPREP-003-in.maegz

>  <s_sd_BIOSOLVEIT.INFINISEE\_QUERY\_NAME>  (1516) 
Ref-Lig

>  <s_sd_BIOSOLVEIT.INFINISEE\_QUERY\_SMILES>  (1516) 
S(c1nc2c(cc1C[NH2+]Cc3ccc(cc3)C[NH+](C)C)cccc2)Cc4ccccc4

>  <s_sd_BIOSOLVEIT.INFINISEE\_REACTION\_NAME>  (1516) 
m_269862bba

>  <s_sd_BIOSOLVEIT.INFINISEE\_REAGENT1\_SMILES>  (1516) 
[R1*]NCC=1C(=NN(c2ccccc2)C1)c3ccncc3

>  <s_sd_BIOSOLVEIT.INFINISEE\_REAGENT2\_SMILES>  (1516) 
[R1*]C(c1ccc(Br)cc1)C

>  <s_sd_BIOSOLVEIT.INFINISEE\_SPACE>  (1516) 
REALSpace_44bn_2023-08

>  <s_vsw_compound_code>  (1516) 
55779

>  <s_vsw_variant>  (1516) 
55779-3

>  <r_epik_Charging_Adjusted_Penalty>  (1516) 
1.12745320901785

>  <r_epik_Ionization_Penalty>  (1516) 
1.1274999999999999

>  <r_epik_Ionization_Penalty_Charging>  (1516) 
0

>  <r_epik_Ionization_Penalty_Neutral>  (1516) 
1.1274999999999999

>  <r_epik_State_Penalty>  (1516) 
1.1274999999999999

>  <r_i_docking_score>  (1516) 
-3.0421257997542801

>  <r_i_glide_ecoul>  (1516) 
-3.2957298755645801

>  <r_i_glide_eff_state_penalty>  (1516) 
1.1274999999999999

>  <r_i_glide_einternal>  (1516) 
4.6484289169311497

>  <r_i_glide_emodel>  (1516) 
-50.917678370136798

>  <r_i_glide_energy>  (1516) 
-41.398009538650498

>  <r_i_glide_erotb>  (1516) 
0.53002522749575598

>  <r_i_glide_esite>  (1516) 
-0.0324325300235574

>  <r_i_glide_evdw>  (1516) 
-38.102279663085902

>  <r_i_glide_gscore>  (1516) 
-4.1696257997542796

>  <r_i_glide_hbond>  (1516) 
0

>  <r_i_glide_ligand_efficiency>  (1516) 
-0.108647349991224

>  <r_i_glide_ligand_efficiency_ln>  (1516) 
-0.70221195527799496

>  <r_i_glide_ligand_efficiency_sa>  (1516) 
-0.32991734444041598

>  <r_i_glide_lipo>  (1516) 
-1.8132698509193099

>  <r_i_glide_metal>  (1516) 
-0

>  <r_i_glide_rewards>  (1516) 
-0.45447518181818097

>  <r_lp_Energy>  (1516) 
18.355720999999999

>  <r_lp_tautomer_probability>  (1516) 
1

>  <r_qp_ACxDN^.5/SA>  (1516) 
0.0063565000000000002

>  <r_qp_CIQPlogS>  (1516) 
-6.7709999999999999

>  <r_qp_EA(eV)>  (1516) 
0.76400000000000001

>  <r_qp_FISA>  (1516) 
47.070999999999998

>  <r_qp_FOSA>  (1516) 
120.691

>  <r_qp_IP(eV)>  (1516) 
9.0060000000000002

>  <r_qp_Jm>  (1516) 
0.019095446906204801

>  <r_qp_PISA>  (1516) 
397.39499999999998

>  <r_qp_PSA>  (1516) 
39.447000000000003

>  <r_qp_PercentHumanOralAbsorption>  (1516) 
100

>  <r_qp_QPPCaco>  (1516) 
883.93700000000001

>  <r_qp_QPPMDCK>  (1516) 
1075.4079999999999

>  <r_qp_QPlogBB>  (1516) 
0.45700000000000002

>  <r_qp_QPlogHERG>  (1516) 
-6.3659999999999997

>  <r_qp_QPlogKhsa>  (1516) 
0.92500000000000004

>  <r_qp_QPlogKp>  (1516) 
-2.6659999999999999

>  <r_qp_QPlogPC16>  (1516) 
13.115

>  <r_qp_QPlogPo/w>  (1516) 
4.9530000000000003

>  <r_qp_QPlogPoct>  (1516) 
18.463999999999999

>  <r_qp_QPlogPw>  (1516) 
8.8019999999999996

>  <r_qp_QPlogS>  (1516) 
-4.6900000000000004

>  <r_qp_QPpolrz>  (1516) 
42.713999999999999

>  <r_qp_SASA>  (1516) 
629.27800000000002

>  <r_qp_SAamideO>  (1516) 
0

>  <r_qp_SAfluorine>  (1516) 
0

>  <r_qp_WPSA>  (1516) 
64.120999999999995

>  <r_qp_accptHB>  (1516) 
4

>  <r_qp_dip^2/V>  (1516) 
0.029268700000000002

>  <r_qp_dipole>  (1516) 
5.9029999999999996

>  <r_qp_donorHB>  (1516) 
1

>  <r_qp_glob>  (1516) 
0.86322520000000003

>  <r_qp_mol_MW>  (1516) 
433.35000000000002

>  <r_qp_volume>  (1516) 
1190.4269999999999

>  <r_sd_BIOSOLVEIT.INFINISEE\_FTREES\_SIMILARITY>  (1516) 
0.90400000000000003

>  <r_sd_BIOSOLVEIT.LOGP>  (1516) 
4.5213999999999999

>  <r_sd_BIOSOLVEIT.MOLECULAR\_WEIGHT>  (1516) 
434.35899999999998

>  <r_sd_BIOSOLVEIT.TPSA>  (1516) 
47.32

>  <i_epik_Tot_Q>  (1516) 
0

>  <i_epik_Tot_abs_Q>  (1516) 
0

>  <i_f3d_flags>  (1516) 
0

>  <i_i_glide_confnum>  (1516) 
3

>  <i_i_glide_lignum>  (1516) 
648

>  <i_i_glide_posenum>  (1516) 
10

>  <i_i_glide_rotatable_bonds>  (1516) 
6

>  <i_lp_mmshare_version>  (1516) 
65135

>  <i_m_ct_format>  (1516) 
2

>  <i_m_source_file_index>  (1516) 
1744

>  <i_qp_#NandO>  (1516) 
4

>  <i_qp_#acid>  (1516) 
0

>  <i_qp_#amide>  (1516) 
0

>  <i_qp_#amidine>  (1516) 
0

>  <i_qp_#amine>  (1516) 
1

>  <i_qp_#in34>  (1516) 
0

>  <i_qp_#in56>  (1516) 
23

>  <i_qp_#metab>  (1516) 
5

>  <i_qp_#nonHatm>  (1516) 
28

>  <i_qp_#noncon>  (1516) 
0

>  <i_qp_#ringatoms>  (1516) 
23

>  <i_qp_#rotor>  (1516) 
4

>  <i_qp_#rtvFG>  (1516) 
0

>  <i_qp_#stars>  (1516) 
0

>  <i_qp_CNS>  (1516) 
2

>  <i_qp_HumanOralAbsorption>  (1516) 
3

>  <i_qp_RuleOfFive>  (1516) 
0

>  <i_qp_RuleOfThree>  (1516) 
0

>  <i_sd_BIOSOLVEIT.INFINISEE\_REAGENT1\_NAME>  (1516) 
7196292

>  <i_sd_BIOSOLVEIT.INFINISEE\_REAGENT2\_NAME>  (1516) 
7200142

>  <i_sd_BIOSOLVEIT.INFINISEE\_RESULT\_RANK>  (1516) 
74301

>  <i_sd_version>  (1516) 
0

>  <b_lp_Chiralities_Consistent>  (1516) 
1

>  <b_sd_chiral_flag>  (1516) 
0

>  <canonical_id>  (1516) 
ATP-HTVS-EEBB6926EC22

>  <compound_code>  (1516) 
55779

>  <title>  (1516) 
m_269862bba____7196292____7200142

>  <variant>  (1516) 
55779-3

>  <source_file>  (1516) 
运行/运行/ATP-VSW/ATP-VSW-DOCK_HTVS_1-003_lib/ATP-VSW-DOCK_HTVS_1-003_lib.mae

>  <canonical_smiles>  (1516) 
C[C@@H](NCc1cn(-c2ccccc2)nc1-c1ccncc1)c1ccc(Br)cc1

>  <scaffold>  (1516) 
c1ccc(CNCc2cn(-c3ccccc3)nc2-c2ccncc2)cc1

>  <molecular_formula>  (1516) 
C23H21BrN4

$$$$
ATP-HTVS-EEE4DEAD393E
     RDKit          3D

 64 67  0  0  0  0  0  0  0  0999 V2000
  200.7231  182.3266  154.9852 O   0  0  0  0  0  0  0  0  0  0  0  0
  200.2478  181.6535  155.9017 C   0  0  0  0  0  0  0  0  0  0  0  0
  200.6119  180.3499  156.1365 N   0  0  0  0  0  0  0  0  0  0  0  0
  201.6750  179.6040  155.4064 C   0  0  1  0  0  0  0  0  0  0  0  0
  201.0789  178.6422  154.3849 C   0  0  0  0  0  0  0  0  0  0  0  0
  200.1468  179.1072  153.4287 C   0  0  0  0  0  0  0  0  0  0  0  0
  199.5885  178.2191  152.4916 C   0  0  0  0  0  0  0  0  0  0  0  0
  199.9537  176.8596  152.5046 C   0  0  0  0  0  0  0  0  0  0  0  0
  200.8716  176.3878  153.4627 C   0  0  0  0  0  0  0  0  0  0  0  0
  201.4345  177.2779  154.3990 C   0  0  0  0  0  0  0  0  0  0  0  0
  202.8156  180.4286  154.7654 C   0  0  2  0  0  0  0  0  0  0  0  0
  200.0108  179.4552  157.1566 C   0  0  2  0  0  0  0  0  0  0  0  0
  199.2868  182.2450  156.8484 C   0  0  0  0  0  0  0  0  0  0  0  0
  199.8735  183.3063  157.7011 C   0  0  0  0  0  0  0  0  0  0  0  0
  201.0438  183.6810  157.6794 O   0  0  0  0  0  0  0  0  0  0  0  0
  199.0153  183.8782  158.5745 N   0  0  0  0  0  0  0  0  0  0  0  0
  197.6422  183.5627  158.7044 C   0  0  0  0  0  0  0  0  0  0  0  0
  197.0828  182.5801  157.8601 C   0  0  0  0  0  0  0  0  0  0  0  0
  195.7206  182.2456  157.9897 C   0  0  0  0  0  0  0  0  0  0  0  0
  194.9155  182.8941  158.9337 C   0  0  0  0  0  0  0  0  0  0  0  0
  195.4747  183.8851  159.7660 C   0  0  0  0  0  0  0  0  0  0  0  0
  196.8392  184.2188  159.6611 C   0  0  0  0  0  0  0  0  0  0  0  0
  197.9723  181.9354  156.8772 C   0  0  0  0  0  0  0  0  0  0  0  0
  197.3638  181.0063  156.0497 N   0  0  0  0  0  0  0  0  0  0  0  0
  197.0995  181.1708  154.6760 C   0  0  0  0  0  0  0  0  0  0  0  0
  197.1486  182.4313  154.0657 C   0  0  0  0  0  0  0  0  0  0  0  0
  196.7874  182.5696  152.7127 C   0  0  0  0  0  0  0  0  0  0  0  0
  196.4095  181.4359  151.9582 C   0  0  0  0  0  0  0  0  0  0  0  0
  196.4189  180.1620  152.5649 C   0  0  0  0  0  0  0  0  0  0  0  0
  196.7533  180.0366  153.9268 C   0  0  0  0  0  0  0  0  0  0  0  0
  196.7610  183.9556  152.0917 C   0  0  1  0  0  0  0  0  0  0  0  0
  198.0355  184.3514  151.4977 N   0  0  0  0  0  0  0  0  0  0  0  0
  197.9513  185.7392  151.0648 C   0  0  2  0  0  0  0  0  0  0  0  0
  198.3606  183.5188  150.3443 C   0  0  2  0  0  0  0  0  0  0  0  0
  202.1920  179.0002  156.1584 H   0  0  0  0  0  0  0  0  0  0  0  0
  199.8558  180.1454  153.4132 H   0  0  0  0  0  0  0  0  0  0  0  0
  198.8797  178.5838  151.7650 H   0  0  0  0  0  0  0  0  0  0  0  0
  199.5261  176.1775  151.7847 H   0  0  0  0  0  0  0  0  0  0  0  0
  201.1458  175.3421  153.4765 H   0  0  0  0  0  0  0  0  0  0  0  0
  202.1369  176.9093  155.1365 H   0  0  0  0  0  0  0  0  0  0  0  0
  203.6412  179.7818  154.4535 H   0  0  0  0  0  0  0  0  0  0  0  0
  203.2252  181.1603  155.4633 H   0  0  0  0  0  0  0  0  0  0  0  0
  202.4821  180.9570  153.8726 H   0  0  0  0  0  0  0  0  0  0  0  0
  200.4895  179.6402  158.1359 H   0  0  0  0  0  0  0  0  0  0  0  0
  200.1761  178.3980  156.9140 H   0  0  0  0  0  0  0  0  0  0  0  0
  198.9305  179.5158  157.2811 H   0  0  0  0  0  0  0  0  0  0  0  0
  199.3880  184.6087  159.1637 H   0  0  0  0  0  0  0  0  0  0  0  0
  195.2749  181.4850  157.3666 H   0  0  0  0  0  0  0  0  0  0  0  0
  193.8764  182.6120  159.0112 H   0  0  0  0  0  0  0  0  0  0  0  0
  194.8482  184.3841  160.4882 H   0  0  0  0  0  0  0  0  0  0  0  0
  197.2596  184.9787  160.3054 H   0  0  0  0  0  0  0  0  0  0  0  0
  196.9013  180.2233  156.5016 H   0  0  0  0  0  0  0  0  0  0  0  0
  197.4240  183.3152  154.6320 H   0  0  0  0  0  0  0  0  0  0  0  0
  196.1142  181.5409  150.9289 H   0  0  0  0  0  0  0  0  0  0  0  0
  196.1453  179.2867  151.9943 H   0  0  0  0  0  0  0  0  0  0  0  0
  196.7585  179.0638  154.3991 H   0  0  0  0  0  0  0  0  0  0  0  0
  195.9520  184.0008  151.3635 H   0  0  0  0  0  0  0  0  0  0  0  0
  196.4975  184.6587  152.8870 H   0  0  0  0  0  0  0  0  0  0  0  0
  198.8981  186.0563  150.6276 H   0  0  0  0  0  0  0  0  0  0  0  0
  197.7427  186.3941  151.9120 H   0  0  0  0  0  0  0  0  0  0  0  0
  197.1667  185.8734  150.3193 H   0  0  0  0  0  0  0  0  0  0  0  0
  199.3022  183.8322  149.8958 H   0  0  0  0  0  0  0  0  0  0  0  0
  197.5786  183.5721  149.5851 H   0  0  0  0  0  0  0  0  0  0  0  0
  198.4862  182.4747  150.6328 H   0  0  0  0  0  0  0  0  0  0  0  0
  1  2  2  0
  2  3  1  0
  2 13  1  0
  3  4  1  0
  3 12  1  0
  4  5  1  0
  4 11  1  0
  4 35  1  1
  5  6  2  0
  5 10  1  0
  6  7  1  0
  6 36  1  0
  7  8  2  0
  7 37  1  0
  8  9  1  0
  8 38  1  0
  9 10  2  0
  9 39  1  0
 10 40  1  0
 11 41  1  6
 11 42  1  0
 11 43  1  0
 12 44  1  1
 12 45  1  0
 12 46  1  0
 13 14  1  0
 13 23  2  0
 14 15  2  0
 14 16  1  0
 16 17  1  0
 16 47  1  0
 17 18  1  0
 17 22  2  0
 18 19  2  0
 18 23  1  0
 19 20  1  0
 19 48  1  0
 20 21  2  0
 20 49  1  0
 21 22  1  0
 21 50  1  0
 22 51  1  0
 23 24  1  0
 24 25  1  0
 24 52  1  0
 25 26  2  0
 25 30  1  0
 26 27  1  0
 26 53  1  0
 27 28  2  0
 27 31  1  0
 28 29  1  0
 28 54  1  0
 29 30  2  0
 29 55  1  0
 30 56  1  0
 31 32  1  0
 31 57  1  6
 31 58  1  0
 32 33  1  0
 32 34  1  0
 33 59  1  6
 33 60  1  0
 33 61  1  0
 34 62  1  6
 34 63  1  0
 34 64  1  0
M  END
>  <s_epik_cmdline>  (1517) 
J2VwaWtfcHl0aG9uJywgJy1waCcsICc3LjAwMDAwMCcsICctcGh0JywgJzIuMDAwMDAwJywgJy1tcycsICcxNicsICctdG4nLCAnOCcsICctbWEnLCAnMjAwJywgJy1pbWFlJywgJzxpbmZpbGUubWFlPicsICctb21hZScsICc8b3V0ZmlsZS5tYWU+Jw==

>  <s_epik_input>  (1517) 
W2NIXTFbY0hdW2NIXVtjSF1bY0hdYzFbQ0BASF0oW0NIM10pTihbQ0gzXSlDKD1PKWMoYyg9TylbbkhdMiljKGMoYzIzKVtjSF1bY0hdW2NIXVtjSF0zKVtOSF1jNFtjSF1jKFtjSF1bY0hdW2NIXTQpW0NIMl1OKFtDSDNdKVtDSDNd

>  <s_i_glide_gridfile>  (1517) 
ATP-Grid

>  <s_lp_Force_Field>  (1517) 
OPLS_2005

>  <s_lp_Variant>  (1517) 
rxn512c____EMOL25685613____EMOL43362984____EMOL3728368-3

>  <s_lp_label>  (1517) 
2600_sdstereoexpander_1_neutralizer_1_epik_2_stereoizer_1

>  <s_m_source_file>  (1517) 
ATP-VSW-LIGPREP-001-in.maegz

>  <s_sd_BIOSOLVEIT.INFINISEE\_QUERY\_NAME>  (1517) 
Ref-Lig

>  <s_sd_BIOSOLVEIT.INFINISEE\_QUERY\_SMILES>  (1517) 
S(c1nc2c(cc1C[NH2+]Cc3ccc(cc3)C[NH+](C)C)cccc2)Cc4ccccc4

>  <s_sd_BIOSOLVEIT.INFINISEE\_REACTION\_NAME>  (1517) 
rxn512c

>  <s_sd_BIOSOLVEIT.INFINISEE\_REAGENT1\_NAME>  (1517) 
EMOL25685613

>  <s_sd_BIOSOLVEIT.INFINISEE\_REAGENT1\_SMILES>  (1517) 
N(C(c1ccccc1)C)C

>  <s_sd_BIOSOLVEIT.INFINISEE\_REAGENT2\_NAME>  (1517) 
EMOL43362984

>  <s_sd_BIOSOLVEIT.INFINISEE\_REAGENT2\_SMILES>  (1517) 
ClC=1c2c(NC(=O)C1C(=O)O)cccc2

>  <s_sd_BIOSOLVEIT.INFINISEE\_REAGENT3\_NAME>  (1517) 
EMOL3728368

>  <s_sd_BIOSOLVEIT.INFINISEE\_REAGENT3\_SMILES>  (1517) 
N(Cc1cc(N)ccc1)(C)C

>  <s_sd_BIOSOLVEIT.INFINISEE\_SPACE>  (1517) 
eXplore_7tr_2022-12

>  <s_vsw_compound_code>  (1517) 
83169

>  <s_vsw_variant>  (1517) 
83169-3

>  <r_epik_Charging_Adjusted_Penalty>  (1517) 
1.5459642435308001

>  <r_epik_Ionization_Penalty>  (1517) 
1.5462

>  <r_epik_Ionization_Penalty_Charging>  (1517) 
0

>  <r_epik_Ionization_Penalty_Neutral>  (1517) 
1.5462

>  <r_epik_State_Penalty>  (1517) 
1.546

>  <r_i_docking_score>  (1517) 
0.16404378057249999

>  <r_i_glide_ecoul>  (1517) 
-2.6861515045165998

>  <r_i_glide_eff_state_penalty>  (1517) 
1.546

>  <r_i_glide_einternal>  (1517) 
4.2861828804016104

>  <r_i_glide_emodel>  (1517) 
-39.784798689588698

>  <r_i_glide_energy>  (1517) 
-38.470762252807603

>  <r_i_glide_erotb>  (1517) 
0.58313843407634502

>  <r_i_glide_esite>  (1517) 
-0.083145663951048498

>  <r_i_glide_evdw>  (1517) 
-35.784610748291001

>  <r_i_glide_gscore>  (1517) 
-1.3819562194274999

>  <r_i_glide_hbond>  (1517) 
-0.131671446682007

>  <r_i_glide_ligand_efficiency>  (1517) 
0.0048248170756617697

>  <r_i_glide_ligand_efficiency_ln>  (1517) 
0.0362418724006549

>  <r_i_glide_ligand_efficiency_sa>  (1517) 
0.015630534318946

>  <r_i_glide_lipo>  (1517) 
-1.02594896779004

>  <r_i_glide_metal>  (1517) 
-0

>  <r_i_glide_rewards>  (1517) 
1.46782468801129

>  <r_lp_Energy>  (1517) 
62.924244000000002

>  <r_qp_ACxDN^.5/SA>  (1517) 
0

>  <r_qp_CIQPlogS>  (1517) 
-6.2140000000000004

>  <r_qp_EA(eV)>  (1517) 
1.1719999999999999

>  <r_qp_FISA>  (1517) 
89.272999999999996

>  <r_qp_FOSA>  (1517) 
240.648

>  <r_qp_IP(eV)>  (1517) 
8.4800000000000004

>  <r_qp_Jm>  (1517) 
0.036208595761113203

>  <r_qp_PISA>  (1517) 
361.36900000000003

>  <r_qp_PSA>  (1517) 
73.403000000000006

>  <r_qp_PercentHumanOralAbsorption>  (1517) 
100

>  <r_qp_QPPCaco>  (1517) 
351.74000000000001

>  <r_qp_QPPMDCK>  (1517) 
176.90899999999999

>  <r_qp_QPlogBB>  (1517) 
-0.246

>  <r_qp_QPlogHERG>  (1517) 
-6.0839999999999996

>  <r_qp_QPlogKhsa>  (1517) 
0.74199999999999999

>  <r_qp_QPlogKp>  (1517) 
-3.282

>  <r_qp_QPlogPC16>  (1517) 
14.192

>  <r_qp_QPlogPo/w>  (1517) 
4.7000000000000002

>  <r_qp_QPlogPoct>  (1517) 
19.960000000000001

>  <r_qp_QPlogPw>  (1517) 
8.8140000000000001

>  <r_qp_QPlogS>  (1517) 
-3.8159999999999998

>  <r_qp_QPpolrz>  (1517) 
48.308999999999997

>  <r_qp_SASA>  (1517) 
691.28999999999996

>  <r_qp_SAamideO>  (1517) 
0

>  <r_qp_SAfluorine>  (1517) 
0

>  <r_qp_WPSA>  (1517) 
0

>  <r_qp_accptHB>  (1517) 
6

>  <r_qp_dip^2/V>  (1517) 
0.0338631

>  <r_qp_dipole>  (1517) 
6.8529999999999998

>  <r_qp_donorHB>  (1517) 
0

>  <r_qp_glob>  (1517) 
0.87005699999999997

>  <r_qp_mol_MW>  (1517) 
454.57100000000003

>  <r_qp_volume>  (1517) 
1386.962

>  <r_sd_BIOSOLVEIT.INFINISEE\_FTREES\_SIMILARITY>  (1517) 
0.91100000000000003

>  <r_sd_BIOSOLVEIT.LOGP>  (1517) 
3.7494000000000001

>  <r_sd_BIOSOLVEIT.MOLECULAR\_WEIGHT>  (1517) 
455.57900000000001

>  <r_sd_BIOSOLVEIT.TPSA>  (1517) 
69.640000000000001

>  <i_epik_Tot_Q>  (1517) 
0

>  <i_epik_Tot_abs_Q>  (1517) 
0

>  <i_f3d_flags>  (1517) 
0

>  <i_i_glide_confnum>  (1517) 
1

>  <i_i_glide_lignum>  (1517) 
1083

>  <i_i_glide_posenum>  (1517) 
3

>  <i_i_glide_rotatable_bonds>  (1517) 
8

>  <i_lp_mmshare_version>  (1517) 
65135

>  <i_m_ct_format>  (1517) 
2

>  <i_m_source_file_index>  (1517) 
2600

>  <i_qp_#NandO>  (1517) 
6

>  <i_qp_#acid>  (1517) 
0

>  <i_qp_#amide>  (1517) 
0

>  <i_qp_#amidine>  (1517) 
0

>  <i_qp_#amine>  (1517) 
1

>  <i_qp_#in34>  (1517) 
0

>  <i_qp_#in56>  (1517) 
22

>  <i_qp_#metab>  (1517) 
6

>  <i_qp_#nonHatm>  (1517) 
34

>  <i_qp_#noncon>  (1517) 
0

>  <i_qp_#ringatoms>  (1517) 
22

>  <i_qp_#rotor>  (1517) 
7

>  <i_qp_#rtvFG>  (1517) 
0

>  <i_qp_#stars>  (1517) 
0

>  <i_qp_CNS>  (1517) 
1

>  <i_qp_HumanOralAbsorption>  (1517) 
3

>  <i_qp_RuleOfFive>  (1517) 
0

>  <i_qp_RuleOfThree>  (1517) 
0

>  <i_sd_BIOSOLVEIT.INFINISEE\_RESULT\_RANK>  (1517) 
41467

>  <i_sd_version>  (1517) 
0

>  <b_lp_Chiralities_Consistent>  (1517) 
1

>  <b_sd_chiral_flag>  (1517) 
0

>  <canonical_id>  (1517) 
ATP-HTVS-EEE4DEAD393E

>  <compound_code>  (1517) 
83169

>  <title>  (1517) 
rxn512c____EMOL25685613____EMOL43362984____EMOL3728368

>  <variant>  (1517) 
83169-3

>  <source_file>  (1517) 
运行/运行/ATP-VSW/ATP-VSW-DOCK_HTVS_1-001_lib/ATP-VSW-DOCK_HTVS_1-001_lib

>  <canonical_smiles>  (1517) 
C[C@H](c1ccccc1)N(C)C(=O)c1c(Nc2cccc(CN(C)C)c2)c2ccccc2[nH]c1=O

>  <scaffold>  (1517) 
O=C(NCc1ccccc1)c1c(Nc2ccccc2)c2ccccc2[nH]c1=O

>  <molecular_formula>  (1517) 
C28H30N4O2

$$$$
ATP-HTVS-EF007D703862
     RDKit          3D

 52 55  0  0  0  0  0  0  0  0999 V2000
  194.3017  181.8364  158.4486 Br  0  0  0  0  0  0  0  0  0  0  0  0
  196.0223  182.4572  157.9772 C   0  0  0  0  0  0  0  0  0  0  0  0
  196.5853  183.5732  158.6310 C   0  0  0  0  0  0  0  0  0  0  0  0
  197.7985  184.1219  158.1454 C   0  0  0  0  0  0  0  0  0  0  0  0
  198.4645  183.5076  157.0325 C   0  0  0  0  0  0  0  0  0  0  0  0
  199.7089  183.9863  156.5440 N   0  0  0  0  0  0  0  0  0  0  0  0
  200.0730  185.2731  156.4168 C   0  0  0  0  0  0  0  0  0  0  0  0
  201.2275  185.5836  156.1417 O   0  0  0  0  0  0  0  0  0  0  0  0
  199.0085  186.3668  156.6246 C   0  0  1  0  0  0  0  0  0  0  0  0
  198.4243  186.5422  158.0018 N   0  0  0  0  0  0  0  0  0  0  0  0
  198.4209  185.3299  158.8444 C   0  0  2  0  0  0  0  0  0  0  0  0
  199.8023  184.9956  159.4055 C   0  0  0  0  0  0  0  0  0  0  0  0
  200.0845  183.6758  159.8269 C   0  0  0  0  0  0  0  0  0  0  0  0
  201.3729  183.3051  160.2446 C   0  0  0  0  0  0  0  0  0  0  0  0
  202.3966  184.2709  160.2797 C   0  0  0  0  0  0  0  0  0  0  0  0
  202.1258  185.6052  159.9130 C   0  0  0  0  0  0  0  0  0  0  0  0
  200.8303  185.9709  159.4975 C   0  0  0  0  0  0  0  0  0  0  0  0
  197.1318  187.2500  157.8893 C   0  0  1  0  0  0  0  0  0  0  0  0
  196.3179  187.3505  159.1787 C   0  0  0  0  0  0  0  0  0  0  0  0
  196.4924  188.4163  160.1043 C   0  0  0  0  0  0  0  0  0  0  0  0
  197.4306  189.4553  159.8473 N   0  0  0  0  0  0  0  0  0  0  0  0
  197.4879  190.6885  160.3706 C   0  0  0  0  0  0  0  0  0  0  0  0
  196.7699  191.1236  161.2757 O   0  0  0  0  0  0  0  0  0  0  0  0
  198.5340  191.6162  159.7664 C   0  0  2  0  0  0  0  0  0  0  0  0
  195.7306  188.3829  161.3109 C   0  0  0  0  0  0  0  0  0  0  0  0
  194.8609  187.3183  161.6048 C   0  0  0  0  0  0  0  0  0  0  0  0
  194.6945  186.2857  160.6660 C   0  0  0  0  0  0  0  0  0  0  0  0
  195.3796  186.3209  159.4395 C   0  0  0  0  0  0  0  0  0  0  0  0
  197.9489  182.3195  156.4704 C   0  0  0  0  0  0  0  0  0  0  0  0
  196.7110  181.8212  156.9187 C   0  0  0  0  0  0  0  0  0  0  0  0
  196.0642  184.0330  159.4565 H   0  0  0  0  0  0  0  0  0  0  0  0
  200.4208  183.2870  156.3920 H   0  0  0  0  0  0  0  0  0  0  0  0
  199.4049  187.3260  156.2821 H   0  0  0  0  0  0  0  0  0  0  0  0
  198.2143  186.1046  155.9238 H   0  0  0  0  0  0  0  0  0  0  0  0
  197.8796  185.5073  159.7705 H   0  0  0  0  0  0  0  0  0  0  0  0
  199.3213  182.9129  159.7721 H   0  0  0  0  0  0  0  0  0  0  0  0
  201.5654  182.2727  160.4985 H   0  0  0  0  0  0  0  0  0  0  0  0
  203.3892  183.9836  160.5871 H   0  0  0  0  0  0  0  0  0  0  0  0
  202.9171  186.3410  159.8937 H   0  0  0  0  0  0  0  0  0  0  0  0
  200.6610  186.9847  159.1668 H   0  0  0  0  0  0  0  0  0  0  0  0
  197.3205  188.2537  157.4918 H   0  0  0  0  0  0  0  0  0  0  0  0
  196.4758  186.7632  157.1600 H   0  0  0  0  0  0  0  0  0  0  0  0
  198.0823  189.2597  159.0975 H   0  0  0  0  0  0  0  0  0  0  0  0
  198.7150  191.3686  158.7193 H   0  0  0  0  0  0  0  0  0  0  0  0
  199.4645  191.5248  160.3301 H   0  0  0  0  0  0  0  0  0  0  0  0
  198.1794  192.6470  159.8271 H   0  0  0  0  0  0  0  0  0  0  0  0
  195.8354  189.1324  162.0683 H   0  0  0  0  0  0  0  0  0  0  0  0
  194.3235  187.3134  162.5473 H   0  0  0  0  0  0  0  0  0  0  0  0
  194.0428  185.4556  160.9053 H   0  0  0  0  0  0  0  0  0  0  0  0
  195.2072  185.5250  158.7466 H   0  0  0  0  0  0  0  0  0  0  0  0
  198.5097  181.7878  155.7222 H   0  0  0  0  0  0  0  0  0  0  0  0
  196.2937  180.9266  156.4707 H   0  0  0  0  0  0  0  0  0  0  0  0
  1  2  1  0
  2  3  2  0
  2 30  1  0
  3  4  1  0
  3 31  1  0
  4  5  2  0
  4 11  1  0
  5  6  1  0
  5 29  1  0
  6  7  1  0
  6 32  1  0
  7  8  2  0
  7  9  1  0
  9 10  1  0
  9 33  1  6
  9 34  1  0
 10 11  1  0
 10 18  1  0
 11 12  1  0
 11 35  1  1
 12 13  2  0
 12 17  1  0
 13 14  1  0
 13 36  1  0
 14 15  2  0
 14 37  1  0
 15 16  1  0
 15 38  1  0
 16 17  2  0
 16 39  1  0
 17 40  1  0
 18 19  1  0
 18 41  1  6
 18 42  1  0
 19 20  1  0
 19 28  2  0
 20 21  1  0
 20 25  2  0
 21 22  1  0
 21 43  1  0
 22 23  2  0
 22 24  1  0
 24 44  1  6
 24 45  1  0
 24 46  1  0
 25 26  1  0
 25 47  1  0
 26 27  2  0
 26 48  1  0
 27 28  1  0
 27 49  1  0
 28 50  1  0
 29 30  2  0
 29 51  1  0
 30 52  1  0
M  END
>  <s_epik_cmdline>  (1518) 
J2VwaWtfcHl0aG9uJywgJy1waCcsICc3LjAwMDAwMCcsICctcGh0JywgJzIuMDAwMDAwJywgJy1tcycsICcxNicsICctdG4nLCAnOCcsICctbWEnLCAnMjAwJywgJy1pbWFlJywgJzxpbmZpbGUubWFlPicsICctb21hZScsICc8b3V0ZmlsZS5tYWU+Jw==

>  <s_epik_input>  (1518) 
QnJjKFtjSF0xKVtjSF1bY0hdYyhjMTIpW05IXUMoPU8pW0NIMl1OKFtDQEBIXTJjM1tjSF1bY0hdW2NIXVtjSF1bY0hdMylbQ0gyXWM0YyhbTkhdQyg9TylbQ0gzXSlbY0hdW2NIXVtjSF1bY0hdNA==

>  <s_i_glide_gridfile>  (1518) 
ATP-Grid

>  <s_lp_Force_Field>  (1518) 
OPLS_2005

>  <s_lp_Variant>  (1518) 
m_2230bdc____17626620____15113324-1

>  <s_lp_label>  (1518) 
1873_sdstereoexpander_1_neutralizer_1_epik_1_stereoizer_1

>  <s_m_source_file>  (1518) 
ATP-VSW-LIGPREP-003-in.maegz

>  <s_sd_BIOSOLVEIT.INFINISEE\_QUERY\_NAME>  (1518) 
Ref-Lig

>  <s_sd_BIOSOLVEIT.INFINISEE\_QUERY\_SMILES>  (1518) 
S(c1nc2c(cc1C[NH2+]Cc3ccc(cc3)C[NH+](C)C)cccc2)Cc4ccccc4

>  <s_sd_BIOSOLVEIT.INFINISEE\_REACTION\_NAME>  (1518) 
m_2230bdc

>  <s_sd_BIOSOLVEIT.INFINISEE\_REAGENT1\_SMILES>  (1518) 
[R1*]N1C(c2c(NC(=O)C1)ccc(Br)c2)c3ccccc3

>  <s_sd_BIOSOLVEIT.INFINISEE\_REAGENT2\_SMILES>  (1518) 
[R1*]Cc1c(NC(=O)C)cccc1

>  <s_sd_BIOSOLVEIT.INFINISEE\_SPACE>  (1518) 
REALSpace_44bn_2023-08

>  <s_vsw_compound_code>  (1518) 
59907

>  <s_vsw_variant>  (1518) 
59907-1

>  <r_epik_Charging_Adjusted_Penalty>  (1518) 
0.0073316794013014502

>  <r_epik_Ionization_Penalty>  (1518) 
0.0073000000000000001

>  <r_epik_Ionization_Penalty_Charging>  (1518) 
0

>  <r_epik_Ionization_Penalty_Neutral>  (1518) 
0.0073000000000000001

>  <r_epik_State_Penalty>  (1518) 
0.0073000000000000001

>  <r_i_docking_score>  (1518) 
-1.45833639657194

>  <r_i_glide_ecoul>  (1518) 
-0.610040724277496

>  <r_i_glide_eff_state_penalty>  (1518) 
0.0073000000000000001

>  <r_i_glide_einternal>  (1518) 
4.3892412185668901

>  <r_i_glide_emodel>  (1518) 
-36.285696510660799

>  <r_i_glide_energy>  (1518) 
-35.057416975498199

>  <r_i_glide_erotb>  (1518) 
0.37395955071778397

>  <r_i_glide_esite>  (1518) 
-0.063326629423797506

>  <r_i_glide_evdw>  (1518) 
-34.447376251220703

>  <r_i_glide_gscore>  (1518) 
-1.4656363965719399

>  <r_i_glide_hbond>  (1518) 
0

>  <r_i_glide_ligand_efficiency>  (1518) 
-0.0486112132190646

>  <r_i_glide_ligand_efficiency_ln>  (1518) 
-0.33134991914886203

>  <r_i_glide_ligand_efficiency_sa>  (1518) 
-0.15104634169688499

>  <r_i_glide_lipo>  (1518) 
-1.6825540289783301

>  <r_i_glide_metal>  (1518) 
-0

>  <r_i_glide_rewards>  (1518) 
1.7201596323150701

>  <r_lp_Energy>  (1518) 
41.047508999999998

>  <r_qp_ACxDN^.5/SA>  (1518) 
0.015365500000000001

>  <r_qp_CIQPlogS>  (1518) 
-5.7000000000000002

>  <r_qp_EA(eV)>  (1518) 
0.66100000000000003

>  <r_qp_FISA>  (1518) 
95.867000000000004

>  <r_qp_FOSA>  (1518) 
107.733

>  <r_qp_IP(eV)>  (1518) 
8.9930000000000003

>  <r_qp_Jm>  (1518) 
0.00739362460259537

>  <r_qp_PISA>  (1518) 
376.75200000000001

>  <r_qp_PSA>  (1518) 
74.584000000000003

>  <r_qp_PercentHumanOralAbsorption>  (1518) 
91.554000000000002

>  <r_qp_QPPCaco>  (1518) 
304.572

>  <r_qp_QPPMDCK>  (1518) 
339.06

>  <r_qp_QPlogBB>  (1518) 
0.070999999999999994

>  <r_qp_QPlogHERG>  (1518) 
-6.3440000000000003

>  <r_qp_QPlogKhsa>  (1518) 
0.46600000000000003

>  <r_qp_QPlogKp>  (1518) 
-3.734

>  <r_qp_QPlogPC16>  (1518) 
13.824999999999999

>  <r_qp_QPlogPo/w>  (1518) 
3.4420000000000002

>  <r_qp_QPlogPoct>  (1518) 
22.016999999999999

>  <r_qp_QPlogPw>  (1518) 
13.669

>  <r_qp_QPlogS>  (1518) 
-4.0640000000000001

>  <r_qp_QPpolrz>  (1518) 
44.468000000000004

>  <r_qp_SASA>  (1518) 
644.26599999999996

>  <r_qp_SAamideO>  (1518) 
0

>  <r_qp_SAfluorine>  (1518) 
0

>  <r_qp_WPSA>  (1518) 
63.912999999999997

>  <r_qp_accptHB>  (1518) 
7

>  <r_qp_dip^2/V>  (1518) 
0.002147

>  <r_qp_dipole>  (1518) 
1.621

>  <r_qp_donorHB>  (1518) 
2

>  <r_qp_glob>  (1518) 
0.8585199

>  <r_qp_mol_MW>  (1518) 
464.36099999999999

>  <r_qp_volume>  (1518) 
1223.1389999999999

>  <r_sd_BIOSOLVEIT.INFINISEE\_FTREES\_SIMILARITY>  (1518) 
0.90300000000000002

>  <r_sd_BIOSOLVEIT.LOGP>  (1518) 
3.5341

>  <r_sd_BIOSOLVEIT.MOLECULAR\_WEIGHT>  (1518) 
465.36900000000003

>  <r_sd_BIOSOLVEIT.TPSA>  (1518) 
62.640000000000001

>  <i_epik_Tot_Q>  (1518) 
0

>  <i_epik_Tot_abs_Q>  (1518) 
0

>  <i_f3d_flags>  (1518) 
0

>  <i_i_glide_confnum>  (1518) 
4

>  <i_i_glide_lignum>  (1518) 
703

>  <i_i_glide_posenum>  (1518) 
16

>  <i_i_glide_rotatable_bonds>  (1518) 
5

>  <i_lp_mmshare_version>  (1518) 
65135

>  <i_m_ct_format>  (1518) 
2

>  <i_m_source_file_index>  (1518) 
1873

>  <i_qp_#NandO>  (1518) 
5

>  <i_qp_#acid>  (1518) 
0

>  <i_qp_#amide>  (1518) 
0

>  <i_qp_#amidine>  (1518) 
0

>  <i_qp_#amine>  (1518) 
1

>  <i_qp_#in34>  (1518) 
0

>  <i_qp_#in56>  (1518) 
18

>  <i_qp_#metab>  (1518) 
7

>  <i_qp_#nonHatm>  (1518) 
30

>  <i_qp_#noncon>  (1518) 
2

>  <i_qp_#ringatoms>  (1518) 
23

>  <i_qp_#rotor>  (1518) 
3

>  <i_qp_#rtvFG>  (1518) 
0

>  <i_qp_#stars>  (1518) 
0

>  <i_qp_CNS>  (1518) 
1

>  <i_qp_HumanOralAbsorption>  (1518) 
3

>  <i_qp_RuleOfFive>  (1518) 
0

>  <i_qp_RuleOfThree>  (1518) 
1

>  <i_sd_BIOSOLVEIT.INFINISEE\_REAGENT1\_NAME>  (1518) 
17626620

>  <i_sd_BIOSOLVEIT.INFINISEE\_REAGENT2\_NAME>  (1518) 
15113324

>  <i_sd_BIOSOLVEIT.INFINISEE\_RESULT\_RANK>  (1518) 
82549

>  <i_sd_version>  (1518) 
0

>  <b_lp_Chiralities_Consistent>  (1518) 
1

>  <b_sd_chiral_flag>  (1518) 
0

>  <canonical_id>  (1518) 
ATP-HTVS-EF007D703862

>  <compound_code>  (1518) 
59907

>  <title>  (1518) 
m_2230bdc____17626620____15113324

>  <variant>  (1518) 
59907-1

>  <source_file>  (1518) 
运行/运行/ATP-VSW/ATP-VSW-DOCK_HTVS_1-003_lib/ATP-VSW-DOCK_HTVS_1-003_lib.mae

>  <canonical_smiles>  (1518) 
CC(=O)Nc1ccccc1CN1CC(=O)Nc2ccc(Br)cc2[C@H]1c1ccccc1

>  <scaffold>  (1518) 
O=C1CN(Cc2ccccc2)C(c2ccccc2)c2ccccc2N1

>  <molecular_formula>  (1518) 
C24H22BrN3O2

$$$$
ATP-HTVS-EF0129487CC6
     RDKit          3D

 68 71  0  0  0  0  0  0  0  0999 V2000
  198.6547  184.0852  152.2144 O   0  0  0  0  0  0  0  0  0  0  0  0
  197.9615  183.4766  153.0236 C   0  0  0  0  0  0  0  0  0  0  0  0
  197.3479  182.3013  152.8030 N   0  0  0  0  0  0  0  0  0  0  0  0
  197.3914  181.4873  151.6365 C   0  0  0  0  0  0  0  0  0  0  0  0
  198.4420  181.5143  150.6861 C   0  0  0  0  0  0  0  0  0  0  0  0
  198.4521  180.6788  149.5349 C   0  0  0  0  0  0  0  0  0  0  0  0
  199.5987  180.8049  148.5932 C   0  0  0  0  0  0  0  0  0  0  0  0
  199.4445  180.7816  147.1911 C   0  0  0  0  0  0  0  0  0  0  0  0
  200.5239  180.7133  146.3242 C   0  0  0  0  0  0  0  0  0  0  0  0
  201.8643  180.9050  146.8162 C   0  0  0  0  0  0  0  0  0  0  0  0
  202.0285  181.0917  148.2124 C   0  0  0  0  0  0  0  0  0  0  0  0
  200.9305  180.9935  149.0994 C   0  0  0  0  0  0  0  0  0  0  0  0
  200.2822  180.4803  144.8390 C   0  0  1  0  0  0  0  0  0  0  0  0
  200.1266  179.0398  144.5190 N   0  0  2  0  0  0  0  0  0  0  0  0
  197.3753  179.7744  149.3431 C   0  0  0  0  0  0  0  0  0  0  0  0
  196.3237  179.7424  150.3188 C   0  0  0  0  0  0  0  0  0  0  0  0
  196.3430  180.5780  151.4539 C   0  0  0  0  0  0  0  0  0  0  0  0
  197.2894  178.7696  148.1720 C   0  0  2  0  0  0  0  0  0  0  0  0
  195.9187  178.4704  147.7545 C   0  0  0  0  0  0  0  0  0  0  0  0
  194.8116  178.2395  147.4826 N   0  0  0  0  0  0  0  0  0  0  0  0
  198.1810  177.5662  148.3395 C   0  0  0  0  0  0  0  0  0  0  0  0
  198.3548  176.9681  149.6152 C   0  0  0  0  0  0  0  0  0  0  0  0
  199.1770  175.8400  149.7433 C   0  0  0  0  0  0  0  0  0  0  0  0
  199.8321  175.3150  148.6081 C   0  0  0  0  0  0  0  0  0  0  0  0
  199.6787  175.9205  147.3495 C   0  0  0  0  0  0  0  0  0  0  0  0
  198.8502  177.0441  147.2262 C   0  0  0  0  0  0  0  0  0  0  0  0
  197.7219  184.0530  154.3873 C   0  0  0  0  0  0  0  0  0  0  0  0
  197.7076  185.4479  154.5806 C   0  0  0  0  0  0  0  0  0  0  0  0
  197.5044  185.9990  155.8698 C   0  0  0  0  0  0  0  0  0  0  0  0
  197.3438  185.1461  156.9835 C   0  0  0  0  0  0  0  0  0  0  0  0
  197.4081  183.7437  156.7782 C   0  0  0  0  0  0  0  0  0  0  0  0
  197.5589  183.2018  155.5097 C   0  0  0  0  0  0  0  0  0  0  0  0
  197.0723  185.6990  158.3775 C   0  0  1  0  0  0  0  0  0  0  0  0
  195.6517  185.5453  158.8292 N   0  0  2  0  0  0  0  0  0  0  0  0
  195.3894  186.2587  160.1025 C   0  0  2  0  0  0  0  0  0  0  0  0
  195.1701  184.1370  158.9165 C   0  0  2  0  0  0  0  0  0  0  0  0
  199.9548  178.8831  143.5283 H   0  0  0  0  0  0  0  0  0  0  0  0
  199.3437  178.6431  145.0126 H   0  0  0  0  0  0  0  0  0  0  0  0
  196.7272  181.9860  153.5290 H   0  0  0  0  0  0  0  0  0  0  0  0
  199.2671  182.1901  150.8631 H   0  0  0  0  0  0  0  0  0  0  0  0
  198.4471  180.7816  146.7375 H   0  0  0  0  0  0  0  0  0  0  0  0
  202.7052  180.9824  146.1399 H   0  0  0  0  0  0  0  0  0  0  0  0
  203.0295  181.3244  148.6113 H   0  0  0  0  0  0  0  0  0  0  0  0
  201.1174  181.1297  150.1591 H   0  0  0  0  0  0  0  0  0  0  0  0
  199.3562  180.9938  144.5671 H   0  0  0  0  0  0  0  0  0  0  0  0
  201.0862  180.9131  144.2457 H   0  0  0  0  0  0  0  0  0  0  0  0
  195.5067  179.0479  150.2179 H   0  0  0  0  0  0  0  0  0  0  0  0
  195.5325  180.5013  152.1859 H   0  0  0  0  0  0  0  0  0  0  0  0
  197.5485  179.2063  147.2226 H   0  0  0  0  0  0  0  0  0  0  0  0
  197.8603  177.3880  150.4854 H   0  0  0  0  0  0  0  0  0  0  0  0
  199.2753  175.3730  150.7228 H   0  0  0  0  0  0  0  0  0  0  0  0
  200.4268  174.4308  148.7153 H   0  0  0  0  0  0  0  0  0  0  0  0
  200.1640  175.4933  146.4800 H   0  0  0  0  0  0  0  0  0  0  0  0
  198.7190  177.4946  146.2554 H   0  0  0  0  0  0  0  0  0  0  0  0
  197.8638  186.1172  153.7437 H   0  0  0  0  0  0  0  0  0  0  0  0
  197.4853  187.0714  155.9912 H   0  0  0  0  0  0  0  0  0  0  0  0
  197.3263  183.0483  157.6023 H   0  0  0  0  0  0  0  0  0  0  0  0
  197.5352  182.1247  155.4020 H   0  0  0  0  0  0  0  0  0  0  0  0
  197.7449  185.2129  159.0855 H   0  0  0  0  0  0  0  0  0  0  0  0
  197.3375  186.7578  158.3827 H   0  0  0  0  0  0  0  0  0  0  0  0
  196.0105  185.8623  160.9085 H   0  0  0  0  0  0  0  0  0  0  0  0
  194.3459  186.1262  160.3932 H   0  0  0  0  0  0  0  0  0  0  0  0
  195.5763  187.3308  160.0124 H   0  0  0  0  0  0  0  0  0  0  0  0
  195.8111  183.5673  159.6037 H   0  0  0  0  0  0  0  0  0  0  0  0
  195.1474  183.6467  157.9405 H   0  0  0  0  0  0  0  0  0  0  0  0
  194.1267  184.0792  159.2483 H   0  0  0  0  0  0  0  0  0  0  0  0
  200.9646  178.5423  144.7820 H   0  0  0  0  0  0  0  0  0  0  0  0
  195.0720  185.9972  158.1329 H   0  0  0  0  0  0  0  0  0  0  0  0
  1  2  2  0
  2  3  1  0
  2 27  1  0
  3  4  1  0
  3 39  1  0
  4  5  2  0
  4 17  1  0
  5  6  1  0
  5 40  1  0
  6  7  1  0
  6 15  2  0
  7  8  2  0
  7 12  1  0
  8  9  1  0
  8 41  1  0
  9 10  2  0
  9 13  1  0
 10 11  1  0
 10 42  1  0
 11 12  2  0
 11 43  1  0
 12 44  1  0
 13 14  1  0
 13 45  1  6
 13 46  1  0
 14 37  1  6
 14 38  1  0
 14 67  1  0
 15 16  1  0
 15 18  1  0
 16 17  2  0
 16 47  1  0
 17 48  1  0
 18 19  1  0
 18 21  1  0
 18 49  1  6
 19 20  3  0
 21 22  2  0
 21 26  1  0
 22 23  1  0
 22 50  1  0
 23 24  2  0
 23 51  1  0
 24 25  1  0
 24 52  1  0
 25 26  2  0
 25 53  1  0
 26 54  1  0
 27 28  1  0
 27 32  2  0
 28 29  2  0
 28 55  1  0
 29 30  1  0
 29 56  1  0
 30 31  2  0
 30 33  1  0
 31 32  1  0
 31 57  1  0
 32 58  1  0
 33 34  1  0
 33 59  1  1
 33 60  1  0
 34 35  1  0
 34 36  1  0
 34 68  1  6
 35 61  1  1
 35 62  1  0
 35 63  1  0
 36 64  1  1
 36 65  1  0
 36 66  1  0
M  CHG  2  14   1  34   1
M  END
>  <s_epik_cmdline>  (1519) 
J2VwaWtfcHl0aG9uJywgJy1waCcsICc3LjAwMDAwMCcsICctcGh0JywgJzIuMDAwMDAwJywgJy1tcycsICcxNicsICctdG4nLCAnOCcsICctbWEnLCAnMjAwJywgJy1pbWFlJywgJzxpbmZpbGUubWFlPicsICctb21hZScsICc8b3V0ZmlsZS5tYWU+Jw==

>  <s_epik_input>  (1519) 
W0NIM11OKFtDSDNdKVtDSDJdYyhbY0hdW2NIXTEpW2NIXVtjSF1jMUMoPU8pW05IXWMyW2NIXWMoLWMzW2NIXWMoW0NIMl1bTkgyXSlbY0hdW2NIXVtjSF0zKWMoW2NIXVtjSF0yKVtDQEhdKEMjTiljNFtjSF1bY0hdW2NIXVtjSF1bY0hdNA==

>  <s_i_glide_gridfile>  (1519) 
ATP-Grid

>  <s_lp_Force_Field>  (1519) 
OPLS_2005

>  <s_lp_Variant>  (1519) 
rxn501c____EMOL18624763____EMOL713289____EMOL728416-1

>  <s_lp_label>  (1519) 
2900_sdstereoexpander_1_neutralizer_1_epik_1_stereoizer_1

>  <s_m_source_file>  (1519) 
ATP-VSW-LIGPREP-001-in.maegz

>  <s_sd_BIOSOLVEIT.INFINISEE\_QUERY\_NAME>  (1519) 
Ref-Lig

>  <s_sd_BIOSOLVEIT.INFINISEE\_QUERY\_SMILES>  (1519) 
S(c1nc2c(cc1C[NH2+]Cc3ccc(cc3)C[NH+](C)C)cccc2)Cc4ccccc4

>  <s_sd_BIOSOLVEIT.INFINISEE\_REACTION\_NAME>  (1519) 
rxn501c

>  <s_sd_BIOSOLVEIT.INFINISEE\_REAGENT1\_NAME>  (1519) 
EMOL18624763

>  <s_sd_BIOSOLVEIT.INFINISEE\_REAGENT1\_SMILES>  (1519) 
O=C(O)c1ccc(cc1)CN(C)C

>  <s_sd_BIOSOLVEIT.INFINISEE\_REAGENT2\_NAME>  (1519) 
EMOL713289

>  <s_sd_BIOSOLVEIT.INFINISEE\_REAGENT2\_SMILES>  (1519) 
Clc1c(ccc(N)c1)C(C#N)c2ccccc2

>  <s_sd_BIOSOLVEIT.INFINISEE\_REAGENT3\_NAME>  (1519) 
EMOL728416

>  <s_sd_BIOSOLVEIT.INFINISEE\_REAGENT3\_SMILES>  (1519) 
OB(O)c1cc(ccc1)CN

>  <s_sd_BIOSOLVEIT.INFINISEE\_SPACE>  (1519) 
eXplore_7tr_2022-12

>  <s_vsw_compound_code>  (1519) 
92769

>  <s_vsw_variant>  (1519) 
92769-1

>  <r_epik_Charging_Adjusted_Penalty>  (1519) 
0.16613344158921101

>  <r_epik_Ionization_Penalty>  (1519) 
0.083099999999999993

>  <r_epik_Ionization_Penalty_Charging>  (1519) 
0.083099999999999993

>  <r_epik_Ionization_Penalty_Neutral>  (1519) 
0

>  <r_epik_State_Penalty>  (1519) 
0.083099999999999993

>  <r_i_docking_score>  (1519) 
-5.0564443851169099

>  <r_i_glide_ecoul>  (1519) 
-9.6665229797363299

>  <r_i_glide_eff_state_penalty>  (1519) 
0.083099999999999993

>  <r_i_glide_einternal>  (1519) 
3.0941247940063499

>  <r_i_glide_emodel>  (1519) 
-59.406100071012503

>  <r_i_glide_energy>  (1519) 
-40.652177810668903

>  <r_i_glide_erotb>  (1519) 
0.624044426333216

>  <r_i_glide_esite>  (1519) 
-0.099395327194802194

>  <r_i_glide_evdw>  (1519) 
-30.985654830932599

>  <r_i_glide_gscore>  (1519) 
-5.1395443851169098

>  <r_i_glide_hbond>  (1519) 
-0.013883410311234801

>  <r_i_glide_ligand_efficiency>  (1519) 
-0.14045678847547

>  <r_i_glide_ligand_efficiency_ln>  (1519) 
-1.10317955549238

>  <r_i_glide_ligand_efficiency_sa>  (1519) 
-0.46377809660539698

>  <r_i_glide_lipo>  (1519) 
-2.08074133847723

>  <r_i_glide_metal>  (1519) 
-0

>  <r_i_glide_rewards>  (1519) 
-0.57030754695977703

>  <r_lp_Energy>  (1519) 
36.246485999999997

>  <r_qp_ACxDN^.5/SA>  (1519) 
0.0138076

>  <r_qp_CIQPlogS>  (1519) 
-6.2560000000000002

>  <r_qp_EA(eV)>  (1519) 
0.57299999999999995

>  <r_qp_FISA>  (1519) 
166.227

>  <r_qp_FOSA>  (1519) 
233.94300000000001

>  <r_qp_IP(eV)>  (1519) 
9.0410000000000004

>  <r_qp_Jm>  (1519) 
2.04853535478332e-07

>  <r_qp_PISA>  (1519) 
477.92599999999999

>  <r_qp_PSA>  (1519) 
91.682000000000002

>  <r_qp_PercentHumanOralAbsorption>  (1519) 
74.081999999999994

>  <r_qp_QPPCaco>  (1519) 
16.344000000000001

>  <r_qp_QPPMDCK>  (1519) 
7.0949999999999998

>  <r_qp_QPlogBB>  (1519) 
-1.2070000000000001

>  <r_qp_QPlogHERG>  (1519) 
-9.2929999999999993

>  <r_qp_QPlogKhsa>  (1519) 
0.98699999999999999

>  <r_qp_QPlogKp>  (1519) 
-6.0650000000000004

>  <r_qp_QPlogPC16>  (1519) 
18.591999999999999

>  <r_qp_QPlogPo/w>  (1519) 
4.3410000000000002

>  <r_qp_QPlogPoct>  (1519) 
27.25

>  <r_qp_QPlogPw>  (1519) 
15.297000000000001

>  <r_qp_QPlogS>  (1519) 
-6.2999999999999998

>  <r_qp_QPpolrz>  (1519) 
55.707999999999998

>  <r_qp_SASA>  (1519) 
878.096

>  <r_qp_SAamideO>  (1519) 
0

>  <r_qp_SAfluorine>  (1519) 
0

>  <r_qp_WPSA>  (1519) 
0

>  <r_qp_accptHB>  (1519) 
7

>  <r_qp_dip^2/V>  (1519) 
0.020127900000000001

>  <r_qp_dipole>  (1519) 
5.6609999999999996

>  <r_qp_donorHB>  (1519) 
3

>  <r_qp_glob>  (1519) 
0.7509574

>  <r_qp_mol_MW>  (1519) 
474.60399999999998

>  <r_qp_volume>  (1519) 
1592.1659999999999

>  <r_sd_BIOSOLVEIT.INFINISEE\_FTREES\_SIMILARITY>  (1519) 
0.90400000000000003

>  <r_sd_BIOSOLVEIT.LOGP>  (1519) 
3.64778

>  <r_sd_BIOSOLVEIT.MOLECULAR\_WEIGHT>  (1519) 
476.62099999999998

>  <r_sd_BIOSOLVEIT.TPSA>  (1519) 
84.969999999999999

>  <i_epik_Tot_Q>  (1519) 
2

>  <i_epik_Tot_abs_Q>  (1519) 
2

>  <i_f3d_flags>  (1519) 
0

>  <i_i_glide_confnum>  (1519) 
3

>  <i_i_glide_lignum>  (1519) 
1345

>  <i_i_glide_posenum>  (1519) 
20

>  <i_i_glide_rotatable_bonds>  (1519) 
9

>  <i_lp_mmshare_version>  (1519) 
65135

>  <i_m_ct_format>  (1519) 
2

>  <i_m_source_file_index>  (1519) 
2900

>  <i_qp_#NandO>  (1519) 
5

>  <i_qp_#acid>  (1519) 
0

>  <i_qp_#amide>  (1519) 
0

>  <i_qp_#amidine>  (1519) 
0

>  <i_qp_#amine>  (1519) 
2

>  <i_qp_#in34>  (1519) 
0

>  <i_qp_#in56>  (1519) 
24

>  <i_qp_#metab>  (1519) 
7

>  <i_qp_#nonHatm>  (1519) 
36

>  <i_qp_#noncon>  (1519) 
0

>  <i_qp_#ringatoms>  (1519) 
24

>  <i_qp_#rotor>  (1519) 
10

>  <i_qp_#rtvFG>  (1519) 
0

>  <i_qp_#stars>  (1519) 
2

>  <i_qp_CNS>  (1519) 
-2

>  <i_qp_HumanOralAbsorption>  (1519) 
1

>  <i_qp_RuleOfFive>  (1519) 
0

>  <i_qp_RuleOfThree>  (1519) 
3

>  <i_sd_BIOSOLVEIT.INFINISEE\_RESULT\_RANK>  (1519) 
74867

>  <i_sd_version>  (1519) 
0

>  <b_lp_Chiralities_Consistent>  (1519) 
1

>  <b_sd_chiral_flag>  (1519) 
0

>  <canonical_id>  (1519) 
ATP-HTVS-EF0129487CC6

>  <compound_code>  (1519) 
92769

>  <title>  (1519) 
rxn501c____EMOL18624763____EMOL713289____EMOL728416

>  <variant>  (1519) 
92769-1

>  <source_file>  (1519) 
运行/运行/ATP-VSW/ATP-VSW-DOCK_HTVS_1-001_lib/ATP-VSW-DOCK_HTVS_1-001_lib

>  <canonical_smiles>  (1519) 
C[NH+](C)Cc1ccc(C(=O)Nc2ccc([C@H](C#N)c3ccccc3)c(-c3cccc(C[NH3+])c3)c2)cc1

>  <scaffold>  (1519) 
O=C(Nc1ccc(Cc2ccccc2)c(-c2ccccc2)c1)c1ccccc1

>  <molecular_formula>  (1519) 
C31H32N4O+2

$$$$
ATP-HTVS-EF17DB58F500
     RDKit          3D

 66 69  0  0  0  0  0  0  0  0999 V2000
  201.9871  188.2012  160.6001 F   0  0  0  0  0  0  0  0  0  0  0  0
  201.5887  186.9906  160.1301 C   0  0  0  0  0  0  0  0  0  0  0  0
  201.7636  185.8445  160.9266 C   0  0  0  0  0  0  0  0  0  0  0  0
  201.3295  184.5775  160.4563 C   0  0  0  0  0  0  0  0  0  0  0  0
  200.7546  184.4854  159.1865 C   0  0  0  0  0  0  0  0  0  0  0  0
  200.6905  185.6248  158.3556 C   0  0  0  0  0  0  0  0  0  0  0  0
  201.0213  186.9159  158.8704 C   0  0  0  0  0  0  0  0  0  0  0  0
  200.1217  183.1606  158.7558 C   0  0  1  0  0  0  0  0  0  0  0  0
  199.2318  183.2842  157.6114 N   0  0  0  0  0  0  0  0  0  0  0  0
  197.8312  183.2011  157.8423 C   0  0  0  0  0  0  0  0  0  0  0  0
  197.1282  182.1020  157.3042 C   0  0  0  0  0  0  0  0  0  0  0  0
  197.7797  181.0827  156.5557 N   0  0  0  0  0  0  0  0  0  0  0  0
  198.5445  181.2533  155.4520 C   0  0  0  0  0  0  0  0  0  0  0  0
  198.7917  182.3416  154.9399 O   0  0  0  0  0  0  0  0  0  0  0  0
  199.1231  179.9895  154.8816 C   0  0  0  0  0  0  0  0  0  0  0  0
  199.7995  180.0144  153.6395 C   0  0  0  0  0  0  0  0  0  0  0  0
  200.3413  178.8200  153.1047 C   0  0  0  0  0  0  0  0  0  0  0  0
  200.1686  177.6068  153.7839 C   0  0  0  0  0  0  0  0  0  0  0  0
  199.4134  177.5990  154.9744 C   0  0  0  0  0  0  0  0  0  0  0  0
  198.9582  178.7791  155.5439 C   0  0  0  0  0  0  0  0  0  0  0  0
  200.7849  176.3198  153.2413 C   0  0  1  0  0  0  0  0  0  0  0  0
  201.7841  175.6725  154.1480 N   0  0  1  0  0  0  0  0  0  0  0  0
  201.3120  175.4755  155.5450 C   0  0  1  0  0  0  0  0  0  0  0  0
  202.3748  175.0478  156.5224 C   0  0  2  0  0  0  0  0  0  0  0  0
  202.3396  174.4165  153.5546 C   0  0  1  0  0  0  0  0  0  0  0  0
  201.2841  173.2983  153.4315 C   0  0  2  0  0  0  0  0  0  0  0  0
  195.7520  181.9686  157.6248 C   0  0  0  0  0  0  0  0  0  0  0  0
  195.1299  182.9025  158.3797 N   0  0  0  0  0  0  0  0  0  0  0  0
  195.7310  183.9927  158.8754 C   0  0  0  0  0  0  0  0  0  0  0  0
  197.1365  184.1832  158.6158 C   0  0  0  0  0  0  0  0  0  0  0  0
  197.6998  185.3394  159.1348 C   0  0  0  0  0  0  0  0  0  0  0  0
  197.0405  186.2972  159.8677 C   0  0  0  0  0  0  0  0  0  0  0  0
  195.6622  186.1095  160.1410 C   0  0  0  0  0  0  0  0  0  0  0  0
  195.0310  184.9548  159.6364 C   0  0  0  0  0  0  0  0  0  0  0  0
  201.2097  182.2213  158.4881 C   0  0  0  0  0  0  0  0  0  0  0  0
  202.0668  181.4794  158.2700 N   0  0  0  0  0  0  0  0  0  0  0  0
  202.2481  185.9117  161.8916 H   0  0  0  0  0  0  0  0  0  0  0  0
  201.3931  183.7192  161.0955 H   0  0  0  0  0  0  0  0  0  0  0  0
  200.1239  185.6066  157.4243 H   0  0  0  0  0  0  0  0  0  0  0  0
  200.7437  187.7790  158.3113 H   0  0  0  0  0  0  0  0  0  0  0  0
  199.5441  182.7327  159.5752 H   0  0  0  0  0  0  0  0  0  0  0  0
  199.5353  182.6927  156.8433 H   0  0  0  0  0  0  0  0  0  0  0  0
  197.6628  180.1404  156.8944 H   0  0  0  0  0  0  0  0  0  0  0  0
  199.9118  180.9312  153.0823 H   0  0  0  0  0  0  0  0  0  0  0  0
  200.8590  178.8477  152.1526 H   0  0  0  0  0  0  0  0  0  0  0  0
  199.1653  176.6896  155.5143 H   0  0  0  0  0  0  0  0  0  0  0  0
  198.4755  178.6991  156.4853 H   0  0  0  0  0  0  0  0  0  0  0  0
  199.9607  175.6611  152.9896 H   0  0  0  0  0  0  0  0  0  0  0  0
  201.2732  176.5531  152.2941 H   0  0  0  0  0  0  0  0  0  0  0  0
  201.0884  176.4043  156.0048 H   0  0  0  0  0  0  0  0  0  0  0  0
  200.4400  174.8166  155.5715 H   0  0  0  0  0  0  0  0  0  0  0  0
  201.9427  175.0174  157.5233 H   0  0  0  0  0  0  0  0  0  0  0  0
  203.1417  175.8219  156.5272 H   0  0  0  0  0  0  0  0  0  0  0  0
  202.8179  174.0613  156.3069 H   0  0  0  0  0  0  0  0  0  0  0  0
  202.7762  174.6299  152.5733 H   0  0  0  0  0  0  0  0  0  0  0  0
  203.1718  174.0697  154.1666 H   0  0  0  0  0  0  0  0  0  0  0  0
  201.7183  172.4131  152.9733 H   0  0  0  0  0  0  0  0  0  0  0  0
  200.4479  173.5990  152.8015 H   0  0  0  0  0  0  0  0  0  0  0  0
  200.8766  172.9943  154.3983 H   0  0  0  0  0  0  0  0  0  0  0  0
  195.1250  181.1672  157.3083 H   0  0  0  0  0  0  0  0  0  0  0  0
  198.6719  185.5819  158.9804 H   0  0  0  0  0  0  0  0  0  0  0  0
  197.6000  187.1618  160.2132 H   0  0  0  0  0  0  0  0  0  0  0  0
  195.1626  186.8822  160.7258 H   0  0  0  0  0  0  0  0  0  0  0  0
  193.9877  184.8416  159.8304 H   0  0  0  0  0  0  0  0  0  0  0  0
  202.5527  176.3311  154.2112 H   0  0  0  0  0  0  0  0  0  0  0  0
  194.1309  182.8079  158.5690 H   0  0  0  0  0  0  0  0  0  0  0  0
  1  2  1  0
  2  3  1  0
  2  7  2  0
  3  4  2  0
  3 37  1  0
  4  5  1  0
  4 38  1  0
  5  6  2  0
  5  8  1  0
  6  7  1  0
  6 39  1  0
  7 40  1  0
  8  9  1  0
  8 35  1  0
  8 41  1  1
  9 10  1  0
  9 42  1  0
 10 11  2  0
 10 30  1  0
 11 12  1  0
 11 27  1  0
 12 13  1  0
 12 43  1  0
 13 14  2  0
 13 15  1  0
 15 16  1  0
 15 20  2  0
 16 17  2  0
 16 44  1  0
 17 18  1  0
 17 45  1  0
 18 19  2  0
 18 21  1  0
 19 20  1  0
 19 46  1  0
 20 47  1  0
 21 22  1  0
 21 48  1  6
 21 49  1  0
 22 23  1  0
 22 25  1  0
 22 65  1  1
 23 24  1  0
 23 50  1  1
 23 51  1  0
 24 52  1  1
 24 53  1  0
 24 54  1  0
 25 26  1  0
 25 55  1  6
 25 56  1  0
 26 57  1  6
 26 58  1  0
 26 59  1  0
 27 28  2  0
 27 60  1  0
 28 29  1  0
 28 66  1  0
 29 30  1  0
 29 34  2  0
 30 31  2  0
 31 32  1  0
 31 61  1  0
 32 33  2  0
 32 62  1  0
 33 34  1  0
 33 63  1  0
 34 64  1  0
 35 36  3  0
M  CHG  2  22   1  28   1
M  END
>  <s_epik_cmdline>  (1520) 
J2VwaWtfcHl0aG9uJywgJy1waCcsICc3LjAwMDAwMCcsICctcGh0JywgJzIuMDAwMDAwJywgJy1tcycsICcxNicsICctdG4nLCAnOCcsICctbWEnLCAnMjAwJywgJy1pbWFlJywgJzxpbmZpbGUubWFlPicsICctb21hZScsICc8b3V0ZmlsZS5tYWU+Jw==

>  <s_epik_input>  (1520) 
RmMxW2NIXVtjSF1jKFtjSF1bY0hdMSlbQ0BIXShDI04pW05IXWMoYyhjMjMpW2NIXVtjSF1bY0hdW2NIXTMpYyhbY0hdbjIpW05IXUMoPU8pYzRbY0hdW2NIXWMoW2NIXVtjSF00KVtDSDJdTihbQ0gyXVtDSDNdKVtDSDJdW0NIM10=

>  <s_i_glide_gridfile>  (1520) 
ATP-Grid

>  <s_lp_Force_Field>  (1520) 
OPLS_2005

>  <s_lp_Variant>  (1520) 
rxn502b____EMOL30405402____EMOL30488121____EMOL906257-1

>  <s_lp_label>  (1520) 
2761_sdstereoexpander_1_neutralizer_1_epik_1_stereoizer_1

>  <s_m_source_file>  (1520) 
ATP-VSW-LIGPREP-001-in.maegz

>  <s_sd_BIOSOLVEIT.INFINISEE\_QUERY\_NAME>  (1520) 
Ref-Lig

>  <s_sd_BIOSOLVEIT.INFINISEE\_QUERY\_SMILES>  (1520) 
S(c1nc2c(cc1C[NH2+]Cc3ccc(cc3)C[NH+](C)C)cccc2)Cc4ccccc4

>  <s_sd_BIOSOLVEIT.INFINISEE\_REACTION\_NAME>  (1520) 
rxn502b

>  <s_sd_BIOSOLVEIT.INFINISEE\_REAGENT1\_NAME>  (1520) 
EMOL30405402

>  <s_sd_BIOSOLVEIT.INFINISEE\_REAGENT1\_SMILES>  (1520) 
O=C(O)c1ccc(cc1)CN(CC)CC

>  <s_sd_BIOSOLVEIT.INFINISEE\_REAGENT2\_NAME>  (1520) 
EMOL30488121

>  <s_sd_BIOSOLVEIT.INFINISEE\_REAGENT2\_SMILES>  (1520) 
Brc1c(N)cnc2c1cccc2

>  <s_sd_BIOSOLVEIT.INFINISEE\_REAGENT3\_NAME>  (1520) 
EMOL906257

>  <s_sd_BIOSOLVEIT.INFINISEE\_REAGENT3\_SMILES>  (1520) 
Fc1ccc(cc1)C(N)C#N

>  <s_sd_BIOSOLVEIT.INFINISEE\_SPACE>  (1520) 
eXplore_7tr_2022-12

>  <s_vsw_compound_code>  (1520) 
88321

>  <s_vsw_variant>  (1520) 
88321-1

>  <r_epik_Charging_Adjusted_Penalty>  (1520) 
0.827094044871997

>  <r_epik_Ionization_Penalty>  (1520) 
0.26319999999999999

>  <r_epik_Ionization_Penalty_Charging>  (1520) 
0.26169999999999999

>  <r_epik_Ionization_Penalty_Neutral>  (1520) 
0.0015

>  <r_epik_State_Penalty>  (1520) 
0.56530000000000002

>  <r_i_docking_score>  (1520) 
-4.5332501841968904

>  <r_i_glide_ecoul>  (1520) 
-10.7064018249512

>  <r_i_glide_eff_state_penalty>  (1520) 
0.56530000000000002

>  <r_i_glide_einternal>  (1520) 
12.337548255920399

>  <r_i_glide_emodel>  (1520) 
-62.180978451077102

>  <r_i_glide_energy>  (1520) 
-45.827194213867202

>  <r_i_glide_erotb>  (1520) 
0.69452465000959196

>  <r_i_glide_esite>  (1520) 
-0.16801914232205301

>  <r_i_glide_evdw>  (1520) 
-35.120792388916001

>  <r_i_glide_gscore>  (1520) 
-5.0985501841968901

>  <r_i_glide_hbond>  (1520) 
0

>  <r_i_glide_ligand_efficiency>  (1520) 
-0.12592361622769099

>  <r_i_glide_ligand_efficiency_ln>  (1520) 
-0.98903271592542896

>  <r_i_glide_ligand_efficiency_sa>  (1520) 
-0.41579061920489901

>  <r_i_glide_lipo>  (1520) 
-1.85017431368494

>  <r_i_glide_metal>  (1520) 
-0

>  <r_i_glide_rewards>  (1520) 
-0.41288148501101302

>  <r_lp_Energy>  (1520) 
43.881892000000001

>  <r_qp_ACxDN^.5/SA>  (1520) 
0.0135747

>  <r_qp_CIQPlogS>  (1520) 
-7.024

>  <r_qp_EA(eV)>  (1520) 
1.23

>  <r_qp_FISA>  (1520) 
115.33499999999999

>  <r_qp_FOSA>  (1520) 
252.40100000000001

>  <r_qp_IP(eV)>  (1520) 
8.7539999999999996

>  <r_qp_Jm>  (1520) 
4.74990147207667e-05

>  <r_qp_PISA>  (1520) 
418.68200000000002

>  <r_qp_PSA>  (1520) 
83.834999999999994

>  <r_qp_PercentHumanOralAbsorption>  (1520) 
96.177000000000007

>  <r_qp_QPPCaco>  (1520) 
199.102

>  <r_qp_QPPMDCK>  (1520) 
173.05699999999999

>  <r_qp_QPlogBB>  (1520) 
-0.80900000000000005

>  <r_qp_QPlogHERG>  (1520) 
-7.9119999999999999

>  <r_qp_QPlogKhsa>  (1520) 
0.745

>  <r_qp_QPlogKp>  (1520) 
-3.2730000000000001

>  <r_qp_QPlogPC16>  (1520) 
16.611000000000001

>  <r_qp_QPlogPo/w>  (1520) 
4.7960000000000003

>  <r_qp_QPlogPoct>  (1520) 
25.620999999999999

>  <r_qp_QPlogPw>  (1520) 
13.977

>  <r_qp_QPlogS>  (1520) 
-6.7329999999999997

>  <r_qp_QPpolrz>  (1520) 
53.073999999999998

>  <r_qp_SASA>  (1520) 
833.43799999999999

>  <r_qp_SAamideO>  (1520) 
0

>  <r_qp_SAfluorine>  (1520) 
47.020000000000003

>  <r_qp_WPSA>  (1520) 
47.020000000000003

>  <r_qp_accptHB>  (1520) 
8

>  <r_qp_dip^2/V>  (1520) 
0.035551699999999999

>  <r_qp_dipole>  (1520) 
7.4009999999999998

>  <r_qp_donorHB>  (1520) 
2

>  <r_qp_glob>  (1520) 
0.77398529999999999

>  <r_qp_mol_MW>  (1520) 
481.57100000000003

>  <r_qp_volume>  (1520) 
1540.499

>  <r_sd_BIOSOLVEIT.INFINISEE\_FTREES\_SIMILARITY>  (1520) 
0.90700000000000003

>  <r_sd_BIOSOLVEIT.LOGP>  (1520) 
4.7276800000000003

>  <r_sd_BIOSOLVEIT.MOLECULAR\_WEIGHT>  (1520) 
482.57999999999998

>  <r_sd_BIOSOLVEIT.TPSA>  (1520) 
82.25

>  <i_epik_Tot_Q>  (1520) 
2

>  <i_epik_Tot_abs_Q>  (1520) 
2

>  <i_f3d_flags>  (1520) 
0

>  <i_i_glide_confnum>  (1520) 
2

>  <i_i_glide_lignum>  (1520) 
1240

>  <i_i_glide_posenum>  (1520) 
20

>  <i_i_glide_rotatable_bonds>  (1520) 
10

>  <i_lp_mmshare_version>  (1520) 
65135

>  <i_m_ct_format>  (1520) 
2

>  <i_m_source_file_index>  (1520) 
2761

>  <i_qp_#NandO>  (1520) 
6

>  <i_qp_#acid>  (1520) 
0

>  <i_qp_#amide>  (1520) 
0

>  <i_qp_#amidine>  (1520) 
0

>  <i_qp_#amine>  (1520) 
1

>  <i_qp_#in34>  (1520) 
0

>  <i_qp_#in56>  (1520) 
22

>  <i_qp_#metab>  (1520) 
6

>  <i_qp_#nonHatm>  (1520) 
36

>  <i_qp_#noncon>  (1520) 
0

>  <i_qp_#ringatoms>  (1520) 
22

>  <i_qp_#rotor>  (1520) 
10

>  <i_qp_#rtvFG>  (1520) 
0

>  <i_qp_#stars>  (1520) 
1

>  <i_qp_CNS>  (1520) 
0

>  <i_qp_HumanOralAbsorption>  (1520) 
1

>  <i_qp_RuleOfFive>  (1520) 
0

>  <i_qp_RuleOfThree>  (1520) 
1

>  <i_sd_BIOSOLVEIT.INFINISEE\_RESULT\_RANK>  (1520) 
59300

>  <i_sd_version>  (1520) 
0

>  <b_lp_Chiralities_Consistent>  (1520) 
1

>  <b_sd_chiral_flag>  (1520) 
0

>  <canonical_id>  (1520) 
ATP-HTVS-EF17DB58F500

>  <compound_code>  (1520) 
88321

>  <title>  (1520) 
rxn502b____EMOL30405402____EMOL30488121____EMOL906257

>  <variant>  (1520) 
88321-1

>  <source_file>  (1520) 
运行/运行/ATP-VSW/ATP-VSW-DOCK_HTVS_1-001_lib/ATP-VSW-DOCK_HTVS_1-001_lib

>  <canonical_smiles>  (1520) 
CC[NH+](CC)Cc1ccc(C(=O)Nc2c[nH+]c3ccccc3c2N[C@@H](C#N)c2ccc(F)cc2)cc1

>  <scaffold>  (1520) 
O=C(Nc1c[nH+]c2ccccc2c1NCc1ccccc1)c1ccccc1

>  <molecular_formula>  (1520) 
C29H30FN5O+2

$$$$
ATP-HTVS-EF3EA56789AA
     RDKit          3D

 62 65  0  0  0  0  0  0  0  0999 V2000
  199.7935  178.0714  152.8664 F   0  0  0  0  0  0  0  0  0  0  0  0
  200.1116  177.7184  154.1356 C   0  0  0  0  0  0  0  0  0  0  0  0
  199.5873  178.4437  155.2272 C   0  0  0  0  0  0  0  0  0  0  0  0
  199.9497  178.0709  156.5406 C   0  0  0  0  0  0  0  0  0  0  0  0
  200.8070  176.9794  156.7624 C   0  0  0  0  0  0  0  0  0  0  0  0
  201.3233  176.2536  155.6721 C   0  0  0  0  0  0  0  0  0  0  0  0
  202.2190  175.1311  155.9021 C   0  0  0  0  0  0  0  0  0  0  0  0
  202.9298  174.2377  156.0835 N   0  0  0  0  0  0  0  0  0  0  0  0
  200.9719  176.6251  154.3591 C   0  0  0  0  0  0  0  0  0  0  0  0
  198.6830  179.6397  154.9758 C   0  0  1  0  0  0  0  0  0  0  0  0
  197.8196  180.0061  156.0935 N   0  0  0  0  0  0  0  0  0  0  0  0
  197.5495  181.2973  156.4973 C   0  0  0  0  0  0  0  0  0  0  0  0
  198.0865  182.3209  155.8351 N   0  0  0  0  0  0  0  0  0  0  0  0
  197.8594  183.5776  156.2565 C   0  0  0  0  0  0  0  0  0  0  0  0
  198.4633  184.6124  155.5309 N   0  0  0  0  0  0  0  0  0  0  0  0
  198.5845  184.4746  154.0865 C   0  0  1  0  0  0  0  0  0  0  0  0
  197.2224  184.5623  153.3692 C   0  0  1  0  0  0  0  0  0  0  0  0
  197.3831  184.6332  151.8633 C   0  0  0  0  0  0  0  0  0  0  0  0
  196.8166  183.6435  151.0352 C   0  0  0  0  0  0  0  0  0  0  0  0
  196.9463  183.7383  149.6358 C   0  0  0  0  0  0  0  0  0  0  0  0
  197.6399  184.8185  149.0544 C   0  0  0  0  0  0  0  0  0  0  0  0
  198.2041  185.8081  149.8844 C   0  0  0  0  0  0  0  0  0  0  0  0
  198.0744  185.7178  151.2811 C   0  0  0  0  0  0  0  0  0  0  0  0
  197.7642  184.9234  147.5428 C   0  0  1  0  0  0  0  0  0  0  0  0
  199.1300  185.1453  147.0710 N   0  0  0  0  0  0  0  0  0  0  0  0
  199.9622  183.9745  147.3277 C   0  0  2  0  0  0  0  0  0  0  0  0
  199.1091  185.3974  145.6372 C   0  0  2  0  0  0  0  0  0  0  0  0
  197.0647  183.8358  157.3908 C   0  0  0  0  0  0  0  0  0  0  0  0
  196.5047  182.7087  158.0325 C   0  0  0  0  0  0  0  0  0  0  0  0
  196.7735  181.4684  157.5656 N   0  0  0  0  0  0  0  0  0  0  0  0
  195.6737  182.8733  159.1553 C   0  0  0  0  0  0  0  0  0  0  0  0
  195.3853  184.1680  159.6344 C   0  0  0  0  0  0  0  0  0  0  0  0
  195.9385  185.2975  158.9961 C   0  0  0  0  0  0  0  0  0  0  0  0
  196.7770  185.1347  157.8751 C   0  0  0  0  0  0  0  0  0  0  0  0
  199.5754  178.6125  157.3983 H   0  0  0  0  0  0  0  0  0  0  0  0
  201.0667  176.7116  157.7758 H   0  0  0  0  0  0  0  0  0  0  0  0
  201.3692  176.0783  153.5159 H   0  0  0  0  0  0  0  0  0  0  0  0
  199.3273  180.4712  154.6873 H   0  0  0  0  0  0  0  0  0  0  0  0
  198.0486  179.4387  154.1128 H   0  0  0  0  0  0  0  0  0  0  0  0
  197.3921  179.2646  156.6438 H   0  0  0  0  0  0  0  0  0  0  0  0
  198.3821  185.5495  155.8871 H   0  0  0  0  0  0  0  0  0  0  0  0
  199.2393  185.2801  153.7539 H   0  0  0  0  0  0  0  0  0  0  0  0
  199.0915  183.5439  153.8183 H   0  0  0  0  0  0  0  0  0  0  0  0
  196.6029  183.7024  153.6332 H   0  0  0  0  0  0  0  0  0  0  0  0
  196.6660  185.4439  153.6930 H   0  0  0  0  0  0  0  0  0  0  0  0
  196.2757  182.8143  151.4681 H   0  0  0  0  0  0  0  0  0  0  0  0
  196.5152  182.9784  149.0051 H   0  0  0  0  0  0  0  0  0  0  0  0
  198.7421  186.6360  149.4474 H   0  0  0  0  0  0  0  0  0  0  0  0
  198.5001  186.4913  151.9029 H   0  0  0  0  0  0  0  0  0  0  0  0
  197.3439  184.0325  147.0725 H   0  0  0  0  0  0  0  0  0  0  0  0
  197.1459  185.7652  147.2296 H   0  0  0  0  0  0  0  0  0  0  0  0
  200.9753  184.1367  146.9568 H   0  0  0  0  0  0  0  0  0  0  0  0
  199.5606  183.0837  146.8417 H   0  0  0  0  0  0  0  0  0  0  0  0
  200.0369  183.7737  148.3973 H   0  0  0  0  0  0  0  0  0  0  0  0
  200.1180  185.5753  145.2631 H   0  0  0  0  0  0  0  0  0  0  0  0
  198.5167  186.2853  145.4150 H   0  0  0  0  0  0  0  0  0  0  0  0
  198.6855  184.5538  145.0900 H   0  0  0  0  0  0  0  0  0  0  0  0
  195.2498  182.0072  159.6432 H   0  0  0  0  0  0  0  0  0  0  0  0
  194.7425  184.2986  160.4933 H   0  0  0  0  0  0  0  0  0  0  0  0
  195.7112  186.2894  159.3621 H   0  0  0  0  0  0  0  0  0  0  0  0
  197.1712  186.0137  157.3898 H   0  0  0  0  0  0  0  0  0  0  0  0
  196.3252  180.6409  157.9955 H   0  0  0  0  0  0  0  0  0  0  0  0
  1  2  1  0
  2  3  2  0
  2  9  1  0
  3  4  1  0
  3 10  1  0
  4  5  2  0
  4 35  1  0
  5  6  1  0
  5 36  1  0
  6  7  1  0
  6  9  2  0
  7  8  3  0
  9 37  1  0
 10 11  1  0
 10 38  1  6
 10 39  1  0
 11 12  1  0
 11 40  1  0
 12 13  1  0
 12 30  2  0
 13 14  2  0
 14 15  1  0
 14 28  1  0
 15 16  1  0
 15 41  1  0
 16 17  1  0
 16 42  1  6
 16 43  1  0
 17 18  1  0
 17 44  1  6
 17 45  1  0
 18 19  1  0
 18 23  2  0
 19 20  2  0
 19 46  1  0
 20 21  1  0
 20 47  1  0
 21 22  2  0
 21 24  1  0
 22 23  1  0
 22 48  1  0
 23 49  1  0
 24 25  1  0
 24 50  1  6
 24 51  1  0
 25 26  1  0
 25 27  1  0
 26 52  1  6
 26 53  1  0
 26 54  1  0
 27 55  1  6
 27 56  1  0
 27 57  1  0
 28 29  1  0
 28 34  2  0
 29 30  1  0
 29 31  2  0
 30 62  1  0
 31 32  1  0
 31 58  1  0
 32 33  2  0
 32 59  1  0
 33 34  1  0
 33 60  1  0
 34 61  1  0
M  CHG  1  30   1
M  END
>  <s_epik_cmdline>  (1521) 
J2VwaWtfcHl0aG9uJywgJy1waCcsICc3LjAwMDAwMCcsICctcGh0JywgJzIuMDAwMDAwJywgJy1tcycsICcxNicsICctdG4nLCAnOCcsICctbWEnLCAnMjAwJywgJy1pbWFlJywgJzxpbmZpbGUubWFlPicsICctb21hZScsICc8b3V0ZmlsZS5tYWU+Jw==

>  <s_epik_input>  (1521) 
TiNDYyhbY0hdMSlbY0hdW2NIXWMoYzFGKVtDSDJdW05IXWMobmMoYzIzKVtjSF1bY0hdW2NIXVtjSF0zKW5jMltOSF1bQ0gyXVtDSDJdYzRbY0hdW2NIXWMoW2NIXVtjSF00KVtDSDJdTihbQ0gzXSlbQ0gzXQ==

>  <s_i_glide_gridfile>  (1521) 
ATP-Grid

>  <s_lp_Force_Field>  (1521) 
OPLS_2005

>  <s_lp_Variant>  (1521) 
m_282030aaa____21926464____22360182____21944940-2

>  <s_lp_label>  (1521) 
943_sdstereoexpander_1_neutralizer_1_epik_2_stereoizer_1

>  <s_m_source_file>  (1521) 
ATP-VSW-LIGPREP-001-in.maegz

>  <s_sd_BIOSOLVEIT.INFINISEE\_QUERY\_NAME>  (1521) 
Ref-Lig

>  <s_sd_BIOSOLVEIT.INFINISEE\_QUERY\_SMILES>  (1521) 
S(c1nc2c(cc1C[NH2+]Cc3ccc(cc3)C[NH+](C)C)cccc2)Cc4ccccc4

>  <s_sd_BIOSOLVEIT.INFINISEE\_REACTION\_NAME>  (1521) 
m_282030aaa

>  <s_sd_BIOSOLVEIT.INFINISEE\_REAGENT1\_SMILES>  (1521) 
[R1*]NCCc1ccc(cc1)CN(C)C

>  <s_sd_BIOSOLVEIT.INFINISEE\_REAGENT2\_SMILES>  (1521) 
[R2*]c1nc([R1*])c2c(n1)cccc2

>  <s_sd_BIOSOLVEIT.INFINISEE\_REAGENT3\_SMILES>  (1521) 
[R2*]NCc1c(F)cc(C#N)cc1

>  <s_sd_BIOSOLVEIT.INFINISEE\_SPACE>  (1521) 
REALSpace_44bn_2023-08

>  <s_vsw_compound_code>  (1521) 
30145

>  <s_vsw_variant>  (1521) 
30145-2

>  <r_epik_Charging_Adjusted_Penalty>  (1521) 
1.6469983952326499

>  <r_epik_Ionization_Penalty>  (1521) 
1.6189

>  <r_epik_Ionization_Penalty_Charging>  (1521) 
0.015599999999999999

>  <r_epik_Ionization_Penalty_Neutral>  (1521) 
1.6032

>  <r_epik_State_Penalty>  (1521) 
1.6314

>  <r_i_docking_score>  (1521) 
-3.31985533975518

>  <r_i_glide_ecoul>  (1521) 
-3.9892618656158398

>  <r_i_glide_eff_state_penalty>  (1521) 
1.6314

>  <r_i_glide_einternal>  (1521) 
3.1504707336425799

>  <r_i_glide_emodel>  (1521) 
-60.648912217979102

>  <r_i_glide_energy>  (1521) 
-42.2731096744537

>  <r_i_glide_erotb>  (1521) 
0.77445676109865103

>  <r_i_glide_esite>  (1521) 
-0.26991984710044797

>  <r_i_glide_evdw>  (1521) 
-38.283847808837898

>  <r_i_glide_gscore>  (1521) 
-4.9512553397551802

>  <r_i_glide_hbond>  (1521) 
-0.50101114979271699

>  <r_i_glide_ligand_efficiency>  (1521) 
-0.097642804110446596

>  <r_i_glide_ligand_efficiency_ln>  (1521) 
-0.73344916334005705

>  <r_i_glide_ligand_efficiency_sa>  (1521) 
-0.31632478013420301

>  <r_i_glide_lipo>  (1521) 
-1.7727410495681399

>  <r_i_glide_metal>  (1521) 
-0

>  <r_i_glide_rewards>  (1521) 
-0.66945838410825798

>  <r_lp_Energy>  (1521) 
18.711144000000001

>  <r_qp_ACxDN^.5/SA>  (1521) 
0.012729000000000001

>  <r_qp_CIQPlogS>  (1521) 
-7.0659999999999998

>  <r_qp_EA(eV)>  (1521) 
0.79200000000000004

>  <r_qp_FISA>  (1521) 
91.244

>  <r_qp_FOSA>  (1521) 
251.59200000000001

>  <r_qp_IP(eV)>  (1521) 
8.1760000000000002

>  <r_qp_Jm>  (1521) 
0.0023198338170293299

>  <r_qp_PISA>  (1521) 
353.40300000000002

>  <r_qp_PSA>  (1521) 
71.808000000000007

>  <r_qp_PercentHumanOralAbsorption>  (1521) 
100

>  <r_qp_QPPCaco>  (1521) 
336.92500000000001

>  <r_qp_QPPMDCK>  (1521) 
234.179

>  <r_qp_QPlogBB>  (1521) 
-0.44900000000000001

>  <r_qp_QPlogHERG>  (1521) 
-6.6079999999999997

>  <r_qp_QPlogKhsa>  (1521) 
0.68200000000000005

>  <r_qp_QPlogKp>  (1521) 
-3.0590000000000002

>  <r_qp_QPlogPC16>  (1521) 
14.523

>  <r_qp_QPlogPo/w>  (1521) 
4.5380000000000003

>  <r_qp_QPlogPoct>  (1521) 
22.015000000000001

>  <r_qp_QPlogPw>  (1521) 
11.616

>  <r_qp_QPlogS>  (1521) 
-5.2329999999999997

>  <r_qp_QPpolrz>  (1521) 
46.555999999999997

>  <r_qp_SASA>  (1521) 
722.16099999999994

>  <r_qp_SAamideO>  (1521) 
0

>  <r_qp_SAfluorine>  (1521) 
25.922000000000001

>  <r_qp_WPSA>  (1521) 
25.922000000000001

>  <r_qp_accptHB>  (1521) 
6.5

>  <r_qp_dip^2/V>  (1521) 
0.0050504

>  <r_qp_dipole>  (1521) 
2.653

>  <r_qp_donorHB>  (1521) 
2

>  <r_qp_glob>  (1521) 
0.83535680000000001

>  <r_qp_mol_MW>  (1521) 
454.54899999999998

>  <r_qp_volume>  (1521) 
1393.193

>  <r_sd_BIOSOLVEIT.INFINISEE\_FTREES\_SIMILARITY>  (1521) 
0.91700000000000004

>  <r_sd_BIOSOLVEIT.LOGP>  (1521) 
3.5517799999999999

>  <r_sd_BIOSOLVEIT.MOLECULAR\_WEIGHT>  (1521) 
455.55799999999999

>  <r_sd_BIOSOLVEIT.TPSA>  (1521) 
78.069999999999993

>  <i_epik_Tot_Q>  (1521) 
1

>  <i_epik_Tot_abs_Q>  (1521) 
1

>  <i_f3d_flags>  (1521) 
0

>  <i_i_glide_confnum>  (1521) 
4

>  <i_i_glide_lignum>  (1521) 
184

>  <i_i_glide_posenum>  (1521) 
15

>  <i_i_glide_rotatable_bonds>  (1521) 
9

>  <i_lp_mmshare_version>  (1521) 
65135

>  <i_m_ct_format>  (1521) 
2

>  <i_m_source_file_index>  (1521) 
943

>  <i_qp_#NandO>  (1521) 
6

>  <i_qp_#acid>  (1521) 
0

>  <i_qp_#amide>  (1521) 
0

>  <i_qp_#amidine>  (1521) 
0

>  <i_qp_#amine>  (1521) 
1

>  <i_qp_#in34>  (1521) 
0

>  <i_qp_#in56>  (1521) 
22

>  <i_qp_#metab>  (1521) 
4

>  <i_qp_#nonHatm>  (1521) 
34

>  <i_qp_#noncon>  (1521) 
0

>  <i_qp_#ringatoms>  (1521) 
22

>  <i_qp_#rotor>  (1521) 
10

>  <i_qp_#rtvFG>  (1521) 
0

>  <i_qp_#stars>  (1521) 
0

>  <i_qp_CNS>  (1521) 
1

>  <i_qp_HumanOralAbsorption>  (1521) 
3

>  <i_qp_RuleOfFive>  (1521) 
0

>  <i_qp_RuleOfThree>  (1521) 
0

>  <i_sd_BIOSOLVEIT.INFINISEE\_REAGENT1\_NAME>  (1521) 
21926464

>  <i_sd_BIOSOLVEIT.INFINISEE\_REAGENT2\_NAME>  (1521) 
22360182

>  <i_sd_BIOSOLVEIT.INFINISEE\_REAGENT3\_NAME>  (1521) 
21944940

>  <i_sd_BIOSOLVEIT.INFINISEE\_RESULT\_RANK>  (1521) 
21901

>  <i_sd_version>  (1521) 
0

>  <b_lp_Chiralities_Consistent>  (1521) 
1

>  <b_sd_chiral_flag>  (1521) 
0

>  <canonical_id>  (1521) 
ATP-HTVS-EF3EA56789AA

>  <compound_code>  (1521) 
30145

>  <title>  (1521) 
m_282030aaa____21926464____22360182____21944940

>  <variant>  (1521) 
30145-2

>  <source_file>  (1521) 
运行/运行/ATP-VSW/ATP-VSW-DOCK_HTVS_1-001_lib/ATP-VSW-DOCK_HTVS_1-001_lib

>  <canonical_smiles>  (1521) 
CN(C)Cc1ccc(CCNc2nc(NCc3ccc(C#N)cc3F)[nH+]c3ccccc23)cc1

>  <scaffold>  (1521) 
c1ccc(CCNc2nc(NCc3ccccc3)[nH+]c3ccccc23)cc1

>  <molecular_formula>  (1521) 
C27H28FN6+

$$$$
ATP-HTVS-EF5E324DB424
     RDKit          3D

 63 67  0  0  0  0  0  0  0  0999 V2000
  197.2962  180.9419  152.9292 O   0  0  0  0  0  0  0  0  0  0  0  0
  197.8705  179.8830  153.1800 C   0  0  0  0  0  0  0  0  0  0  0  0
  198.1643  179.4744  154.4221 N   0  0  0  0  0  0  0  0  0  0  0  0
  197.9110  180.2202  155.6364 C   0  0  1  0  0  0  0  0  0  0  0  0
  199.1341  180.9716  156.1689 C   0  0  0  0  0  0  0  0  0  0  0  0
  199.0014  182.1978  156.8802 C   0  0  0  0  0  0  0  0  0  0  0  0
  197.7443  182.7620  157.1723 N   0  0  0  0  0  0  0  0  0  0  0  0
  197.4472  184.1687  156.9490 C   0  0  1  0  0  0  0  0  0  0  0  0
  196.8069  184.7776  158.2171 C   0  0  1  0  0  0  0  0  0  0  0  0
  195.6336  184.0013  158.6307 N   0  0  0  0  0  0  0  0  0  0  0  0
  196.0348  182.6286  158.9369 C   0  0  1  0  0  0  0  0  0  0  0  0
  196.6342  181.9752  157.6949 C   0  0  1  0  0  0  0  0  0  0  0  0
  195.0422  184.5852  159.8188 C   0  0  2  0  0  0  0  0  0  0  0  0
  200.1676  182.8634  157.3250 C   0  0  0  0  0  0  0  0  0  0  0  0
  201.4468  182.3252  157.0897 C   0  0  0  0  0  0  0  0  0  0  0  0
  201.5768  181.1062  156.4081 C   0  0  0  0  0  0  0  0  0  0  0  0
  200.4291  180.4357  155.9520 C   0  0  0  0  0  0  0  0  0  0  0  0
  198.2357  178.9427  152.1057 C   0  0  0  0  0  0  0  0  0  0  0  0
  197.6049  179.1114  150.8959 O   0  0  0  0  0  0  0  0  0  0  0  0
  198.0961  178.1540  150.0434 C   0  0  0  0  0  0  0  0  0  0  0  0
  199.0666  177.3784  150.7179 C   0  0  0  0  0  0  0  0  0  0  0  0
  199.6794  176.3385  149.9815 C   0  0  0  0  0  0  0  0  0  0  0  0
  199.3230  176.0951  148.6382 C   0  0  0  0  0  0  0  0  0  0  0  0
  198.3470  176.8878  148.0023 C   0  0  0  0  0  0  0  0  0  0  0  0
  197.7229  177.9322  148.7071 C   0  0  0  0  0  0  0  0  0  0  0  0
  199.1529  177.9064  152.0501 C   0  0  0  0  0  0  0  0  0  0  0  0
  200.0615  177.4033  153.1399 C   0  0  1  0  0  0  0  0  0  0  0  0
  200.4058  176.0442  152.9388 O   0  0  0  0  0  0  0  0  0  0  0  0
  201.1626  175.4151  153.8981 C   0  0  0  0  0  0  0  0  0  0  0  0
  201.5598  174.0935  153.6189 C   0  0  0  0  0  0  0  0  0  0  0  0
  202.3553  173.3710  154.5256 C   0  0  0  0  0  0  0  0  0  0  0  0
  202.7570  173.9677  155.7351 C   0  0  0  0  0  0  0  0  0  0  0  0
  202.3492  175.2792  156.0393 C   0  0  0  0  0  0  0  0  0  0  0  0
  201.5608  176.0048  155.1299 C   0  0  0  0  0  0  0  0  0  0  0  0
  198.5918  178.5670  154.5393 H   0  0  0  0  0  0  0  0  0  0  0  0
  197.0829  180.9030  155.4426 H   0  0  0  0  0  0  0  0  0  0  0  0
  197.5841  179.5041  156.3938 H   0  0  0  0  0  0  0  0  0  0  0  0
  198.3387  184.7213  156.6552 H   0  0  0  0  0  0  0  0  0  0  0  0
  196.7515  184.2375  156.1090 H   0  0  0  0  0  0  0  0  0  0  0  0
  197.5418  184.7946  159.0188 H   0  0  0  0  0  0  0  0  0  0  0  0
  196.5122  185.8088  158.0181 H   0  0  0  0  0  0  0  0  0  0  0  0
  196.7627  182.6080  159.7433 H   0  0  0  0  0  0  0  0  0  0  0  0
  195.1739  182.0403  159.2589 H   0  0  0  0  0  0  0  0  0  0  0  0
  195.8538  181.8773  156.9329 H   0  0  0  0  0  0  0  0  0  0  0  0
  196.9798  180.9880  157.9792 H   0  0  0  0  0  0  0  0  0  0  0  0
  194.1693  184.0069  160.1279 H   0  0  0  0  0  0  0  0  0  0  0  0
  194.7174  185.6053  159.6129 H   0  0  0  0  0  0  0  0  0  0  0  0
  195.7568  184.6004  160.6450 H   0  0  0  0  0  0  0  0  0  0  0  0
  200.0830  183.7955  157.8673 H   0  0  0  0  0  0  0  0  0  0  0  0
  202.3252  182.8440  157.4461 H   0  0  0  0  0  0  0  0  0  0  0  0
  202.5555  180.6882  156.2322 H   0  0  0  0  0  0  0  0  0  0  0  0
  200.5627  179.4977  155.4380 H   0  0  0  0  0  0  0  0  0  0  0  0
  200.4264  175.7177  150.4531 H   0  0  0  0  0  0  0  0  0  0  0  0
  199.8025  175.2929  148.0982 H   0  0  0  0  0  0  0  0  0  0  0  0
  198.0795  176.6940  146.9739 H   0  0  0  0  0  0  0  0  0  0  0  0
  196.9713  178.5490  148.2394 H   0  0  0  0  0  0  0  0  0  0  0  0
  200.9693  178.0081  153.1828 H   0  0  0  0  0  0  0  0  0  0  0  0
  199.5693  177.4630  154.1068 H   0  0  0  0  0  0  0  0  0  0  0  0
  201.2549  173.6358  152.6883 H   0  0  0  0  0  0  0  0  0  0  0  0
  202.6573  172.3584  154.2913 H   0  0  0  0  0  0  0  0  0  0  0  0
  203.3682  173.4139  156.4323 H   0  0  0  0  0  0  0  0  0  0  0  0
  202.6543  175.7369  156.9682 H   0  0  0  0  0  0  0  0  0  0  0  0
  201.2830  177.0106  155.4030 H   0  0  0  0  0  0  0  0  0  0  0  0
  1  2  2  0
  2  3  1  0
  2 18  1  0
  3  4  1  0
  3 35  1  0
  4  5  1  0
  4 36  1  6
  4 37  1  0
  5  6  1  0
  5 17  2  0
  6  7  1  0
  6 14  2  0
  7  8  1  0
  7 12  1  0
  8  9  1  0
  8 38  1  6
  8 39  1  0
  9 10  1  0
  9 40  1  1
  9 41  1  0
 10 11  1  0
 10 13  1  0
 11 12  1  0
 11 42  1  1
 11 43  1  0
 12 44  1  6
 12 45  1  0
 13 46  1  1
 13 47  1  0
 13 48  1  0
 14 15  1  0
 14 49  1  0
 15 16  2  0
 15 50  1  0
 16 17  1  0
 16 51  1  0
 17 52  1  0
 18 19  1  0
 18 26  2  0
 19 20  1  0
 20 21  1  0
 20 25  2  0
 21 22  2  0
 21 26  1  0
 22 23  1  0
 22 53  1  0
 23 24  2  0
 23 54  1  0
 24 25  1  0
 24 55  1  0
 25 56  1  0
 26 27  1  0
 27 28  1  0
 27 57  1  1
 27 58  1  0
 28 29  1  0
 29 30  2  0
 29 34  1  0
 30 31  1  0
 30 59  1  0
 31 32  2  0
 31 60  1  0
 32 33  1  0
 32 61  1  0
 33 34  2  0
 33 62  1  0
 34 63  1  0
M  END
>  <s_epik_cmdline>  (1522) 
J2VwaWtfcHl0aG9uJywgJy1waCcsICc3LjAwMDAwMCcsICctcGh0JywgJzIuMDAwMDAwJywgJy1tcycsICcxNicsICctdG4nLCAnOCcsICctbWEnLCAnMjAwJywgJy1pbWFlJywgJzxpbmZpbGUubWFlPicsICctb21hZScsICc8b3V0ZmlsZS5tYWU+Jw==

>  <s_epik_input>  (1522) 
W2NIXTFbY0hdW2NIXVtjSF1bY0hdYzFPW0NIMl1jKGMoYzIzKVtjSF1bY0hdW2NIXVtjSF0zKWMobzIpQyg9TylbTkhdW0NIMl1jNGMoW2NIXVtjSF1bY0hdW2NIXTQpTjVbQ0gyXVtDSDJdTihbQ0gzXSlbQ0gyXVtDSDJdNQ==

>  <s_i_glide_gridfile>  (1522) 
ATP-Grid

>  <s_lp_Force_Field>  (1522) 
OPLS_2005

>  <s_lp_Variant>  (1522) 
m_11bba____3307916____54761-2

>  <s_lp_label>  (1522) 
1361_sdstereoexpander_1_neutralizer_1_epik_2_stereoizer_1

>  <s_m_source_file>  (1522) 
ATP-VSW-LIGPREP-001-in.maegz

>  <s_sd_BIOSOLVEIT.INFINISEE\_QUERY\_NAME>  (1522) 
Ref-Lig

>  <s_sd_BIOSOLVEIT.INFINISEE\_QUERY\_SMILES>  (1522) 
S(c1nc2c(cc1C[NH2+]Cc3ccc(cc3)C[NH+](C)C)cccc2)Cc4ccccc4

>  <s_sd_BIOSOLVEIT.INFINISEE\_REACTION\_NAME>  (1522) 
m_11bba

>  <s_sd_BIOSOLVEIT.INFINISEE\_REAGENT1\_SMILES>  (1522) 
[R1*]NCc1c(N2CCN(CC2)C)cccc1

>  <s_sd_BIOSOLVEIT.INFINISEE\_REAGENT2\_SMILES>  (1522) 
[R1*]C(=O)C=1Oc2c(cccc2)C1COc3ccccc3

>  <s_sd_BIOSOLVEIT.INFINISEE\_SPACE>  (1522) 
REALSpace_44bn_2023-08

>  <s_vsw_compound_code>  (1522) 
43521

>  <s_vsw_variant>  (1522) 
43521-2

>  <r_epik_Charging_Adjusted_Penalty>  (1522) 
1.3437320740432099

>  <r_epik_Ionization_Penalty>  (1522) 
1.3458000000000001

>  <r_epik_Ionization_Penalty_Charging>  (1522) 
0

>  <r_epik_Ionization_Penalty_Neutral>  (1522) 
1.3458000000000001

>  <r_epik_State_Penalty>  (1522) 
1.3436999999999999

>  <r_i_docking_score>  (1522) 
-2.2978468768912998

>  <r_i_glide_ecoul>  (1522) 
-2.6426315307617201

>  <r_i_glide_eff_state_penalty>  (1522) 
1.3436999999999999

>  <r_i_glide_einternal>  (1522) 
1.5103409290313701

>  <r_i_glide_emodel>  (1522) 
-48.951178313657302

>  <r_i_glide_energy>  (1522) 
-40.139205932617202

>  <r_i_glide_erotb>  (1522) 
0.77446190658770298

>  <r_i_glide_esite>  (1522) 
-0.056432647965469103

>  <r_i_glide_evdw>  (1522) 
-37.496574401855497

>  <r_i_glide_gscore>  (1522) 
-3.6415468768913

>  <r_i_glide_hbond>  (1522) 
0

>  <r_i_glide_ligand_efficiency>  (1522) 
-0.067583731673273598

>  <r_i_glide_ligand_efficiency_ln>  (1522) 
-0.50765882752703595

>  <r_i_glide_ligand_efficiency_sa>  (1522) 
-0.21894505444574799

>  <r_i_glide_lipo>  (1522) 
-1.76303235368406

>  <r_i_glide_metal>  (1522) 
-0

>  <r_i_glide_rewards>  (1522) 
-0.32532033212244099

>  <r_lp_Energy>  (1522) 
47.549196999999999

>  <r_lp_tautomer_probability>  (1522) 
1

>  <r_qp_ACxDN^.5/SA>  (1522) 
0.0094266999999999997

>  <r_qp_CIQPlogS>  (1522) 
-6.085

>  <r_qp_EA(eV)>  (1522) 
0.75700000000000001

>  <r_qp_FISA>  (1522) 
31.670000000000002

>  <r_qp_FOSA>  (1522) 
188.113

>  <r_qp_IP(eV)>  (1522) 
8.6479999999999997

>  <r_qp_Jm>  (1522) 
0.16616374697563899

>  <r_qp_PISA>  (1522) 
496.26900000000001

>  <r_qp_PSA>  (1522) 
57.545000000000002

>  <r_qp_PercentHumanOralAbsorption>  (1522) 
100

>  <r_qp_QPPCaco>  (1522) 
1237.287

>  <r_qp_QPPMDCK>  (1522) 
688.93700000000001

>  <r_qp_QPlogBB>  (1522) 
0.29699999999999999

>  <r_qp_QPlogHERG>  (1522) 
-7.3099999999999996

>  <r_qp_QPlogKhsa>  (1522) 
0.76600000000000001

>  <r_qp_QPlogKp>  (1522) 
-1.8420000000000001

>  <r_qp_QPlogPC16>  (1522) 
14.871

>  <r_qp_QPlogPo/w>  (1522) 
4.915

>  <r_qp_QPlogPoct>  (1522) 
21.827000000000002

>  <r_qp_QPlogPw>  (1522) 
11.823

>  <r_qp_QPlogS>  (1522) 
-4.5960000000000001

>  <r_qp_QPpolrz>  (1522) 
49.655999999999999

>  <r_qp_SASA>  (1522) 
716.053

>  <r_qp_SAamideO>  (1522) 
0

>  <r_qp_SAfluorine>  (1522) 
0

>  <r_qp_WPSA>  (1522) 
0

>  <r_qp_accptHB>  (1522) 
6.75

>  <r_qp_dip^2/V>  (1522) 
0.013761900000000001

>  <r_qp_dipole>  (1522) 
4.3460000000000001

>  <r_qp_donorHB>  (1522) 
1

>  <r_qp_glob>  (1522) 
0.83408170000000004

>  <r_qp_mol_MW>  (1522) 
455.55500000000001

>  <r_qp_volume>  (1522) 
1372.4069999999999

>  <r_sd_BIOSOLVEIT.INFINISEE\_FTREES\_SIMILARITY>  (1522) 
0.90900000000000003

>  <r_sd_BIOSOLVEIT.LOGP>  (1522) 
3.2765

>  <r_sd_BIOSOLVEIT.MOLECULAR\_WEIGHT>  (1522) 
456.56299999999999

>  <r_sd_BIOSOLVEIT.TPSA>  (1522) 
59.149999999999999

>  <i_epik_Tot_Q>  (1522) 
0

>  <i_epik_Tot_abs_Q>  (1522) 
0

>  <i_f3d_flags>  (1522) 
0

>  <i_i_glide_confnum>  (1522) 
6

>  <i_i_glide_lignum>  (1522) 
362

>  <i_i_glide_posenum>  (1522) 
2

>  <i_i_glide_rotatable_bonds>  (1522) 
8

>  <i_lp_mmshare_version>  (1522) 
65135

>  <i_m_ct_format>  (1522) 
2

>  <i_m_source_file_index>  (1522) 
1361

>  <i_qp_#NandO>  (1522) 
6

>  <i_qp_#acid>  (1522) 
0

>  <i_qp_#amide>  (1522) 
0

>  <i_qp_#amidine>  (1522) 
0

>  <i_qp_#amine>  (1522) 
1

>  <i_qp_#in34>  (1522) 
0

>  <i_qp_#in56>  (1522) 
27

>  <i_qp_#metab>  (1522) 
5

>  <i_qp_#nonHatm>  (1522) 
34

>  <i_qp_#noncon>  (1522) 
4

>  <i_qp_#ringatoms>  (1522) 
27

>  <i_qp_#rotor>  (1522) 
6

>  <i_qp_#rtvFG>  (1522) 
0

>  <i_qp_#stars>  (1522) 
1

>  <i_qp_CNS>  (1522) 
1

>  <i_qp_HumanOralAbsorption>  (1522) 
3

>  <i_qp_RuleOfFive>  (1522) 
0

>  <i_qp_RuleOfThree>  (1522) 
0

>  <i_sd_BIOSOLVEIT.INFINISEE\_REAGENT1\_NAME>  (1522) 
3307916

>  <i_sd_BIOSOLVEIT.INFINISEE\_REAGENT2\_NAME>  (1522) 
54761

>  <i_sd_BIOSOLVEIT.INFINISEE\_RESULT\_RANK>  (1522) 
50241

>  <i_sd_version>  (1522) 
0

>  <b_lp_Chiralities_Consistent>  (1522) 
1

>  <b_sd_chiral_flag>  (1522) 
0

>  <canonical_id>  (1522) 
ATP-HTVS-EF5E324DB424

>  <compound_code>  (1522) 
43521

>  <title>  (1522) 
m_11bba____3307916____54761

>  <variant>  (1522) 
43521-2

>  <source_file>  (1522) 
运行/运行/ATP-VSW/ATP-VSW-DOCK_HTVS_1-001_lib/ATP-VSW-DOCK_HTVS_1-001_lib

>  <canonical_smiles>  (1522) 
CN1CCN(c2ccccc2CNC(=O)c2oc3ccccc3c2COc2ccccc2)CC1

>  <scaffold>  (1522) 
O=C(NCc1ccccc1N1CCNCC1)c1oc2ccccc2c1COc1ccccc1

>  <molecular_formula>  (1522) 
C28H29N3O3

$$$$
ATP-HTVS-EFBD886B8952
     RDKit          3D

 69 71  0  0  0  0  0  0  0  0999 V2000
  197.0065  182.4112  153.0313 N   0  0  0  0  0  0  0  0  0  0  0  0
  196.9062  181.1900  152.4616 C   0  0  0  0  0  0  0  0  0  0  0  0
  196.9762  181.1317  151.0515 N   0  0  0  0  0  0  0  0  0  0  0  0
  197.2204  182.2219  150.1813 C   0  0  0  0  0  0  0  0  0  0  0  0
  196.5048  183.4355  150.3217 C   0  0  0  0  0  0  0  0  0  0  0  0
  196.7506  184.5192  149.4544 C   0  0  0  0  0  0  0  0  0  0  0  0
  197.6971  184.4033  148.4242 C   0  0  0  0  0  0  0  0  0  0  0  0
  198.4136  183.2007  148.2708 C   0  0  0  0  0  0  0  0  0  0  0  0
  198.1838  182.1263  149.1498 C   0  0  0  0  0  0  0  0  0  0  0  0
  197.0162  179.7989  150.4441 C   0  0  2  0  0  0  0  0  0  0  0  0
  196.7740  180.0156  153.2591 C   0  0  0  0  0  0  0  0  0  0  0  0
  196.7443  180.1305  154.6623 C   0  0  0  0  0  0  0  0  0  0  0  0
  196.8176  181.4168  155.2260 C   0  0  0  0  0  0  0  0  0  0  0  0
  196.9258  182.5227  154.3660 C   0  0  0  0  0  0  0  0  0  0  0  0
  196.8949  181.6305  156.7170 C   0  0  1  0  0  0  0  0  0  0  0  0
  195.5556  181.9086  157.2932 N   0  0  1  0  0  0  0  0  0  0  0  0
  195.5082  182.4400  158.6814 C   0  0  1  0  0  0  0  0  0  0  0  0
  196.3674  183.6653  158.8836 C   0  0  0  0  0  0  0  0  0  0  0  0
  197.7869  183.5571  158.9268 C   0  0  0  0  0  0  0  0  0  0  0  0
  198.5974  184.6926  158.9223 C   0  0  0  0  0  0  0  0  0  0  0  0
  198.0072  185.9997  158.9462 C   0  0  0  0  0  0  0  0  0  0  0  0
  196.6058  186.0917  159.0314 C   0  0  0  0  0  0  0  0  0  0  0  0
  195.7836  184.9493  158.9933 C   0  0  0  0  0  0  0  0  0  0  0  0
  200.1145  184.5409  158.8559 C   0  0  1  0  0  0  0  0  0  0  0  0
  200.7913  185.0562  160.0802 N   0  0  1  0  0  0  0  0  0  0  0  0
  202.0377  184.3146  160.4344 C   0  0  1  0  0  0  0  0  0  0  0  0
  201.8075  182.8472  160.8585 C   0  0  1  0  0  0  0  0  0  0  0  0
  203.1166  182.1084  161.1539 C   0  0  1  0  0  0  0  0  0  0  0  0
  203.8704  182.6802  162.3608 C   0  0  2  0  0  0  0  0  0  0  0  0
  200.9890  186.5432  160.1181 C   0  0  1  0  0  0  0  0  0  0  0  0
  201.9628  187.0317  159.0107 C   0  0  2  0  0  0  0  0  0  0  0  0
  194.9377  182.4184  156.6569 H   0  0  0  0  0  0  0  0  0  0  0  0
  195.7601  183.5473  151.0966 H   0  0  0  0  0  0  0  0  0  0  0  0
  196.2017  185.4383  149.5782 H   0  0  0  0  0  0  0  0  0  0  0  0
  197.8744  185.2333  147.7549 H   0  0  0  0  0  0  0  0  0  0  0  0
  199.1396  183.1005  147.4789 H   0  0  0  0  0  0  0  0  0  0  0  0
  198.7677  181.2278  149.0107 H   0  0  0  0  0  0  0  0  0  0  0  0
  197.1254  179.8150  149.3617 H   0  0  0  0  0  0  0  0  0  0  0  0
  196.0876  179.2654  150.6482 H   0  0  0  0  0  0  0  0  0  0  0  0
  197.8476  179.2171  150.8459 H   0  0  0  0  0  0  0  0  0  0  0  0
  196.7200  179.0249  152.8383 H   0  0  0  0  0  0  0  0  0  0  0  0
  196.6832  179.2566  155.2989 H   0  0  0  0  0  0  0  0  0  0  0  0
  197.0030  183.5240  154.7639 H   0  0  0  0  0  0  0  0  0  0  0  0
  197.3422  180.7495  157.2040 H   0  0  0  0  0  0  0  0  0  0  0  0
  197.5664  182.4763  156.8332 H   0  0  0  0  0  0  0  0  0  0  0  0
  194.4677  182.7114  158.8794 H   0  0  0  0  0  0  0  0  0  0  0  0
  195.7755  181.6762  159.4221 H   0  0  0  0  0  0  0  0  0  0  0  0
  198.2370  182.5552  158.8907 H   0  0  0  0  0  0  0  0  0  0  0  0
  198.6024  186.8883  158.8542 H   0  0  0  0  0  0  0  0  0  0  0  0
  196.1548  187.0766  159.1100 H   0  0  0  0  0  0  0  0  0  0  0  0
  194.6980  185.0622  158.9745 H   0  0  0  0  0  0  0  0  0  0  0  0
  200.3160  183.4817  158.7045 H   0  0  0  0  0  0  0  0  0  0  0  0
  200.5021  184.9850  157.9419 H   0  0  0  0  0  0  0  0  0  0  0  0
  202.7499  184.3496  159.6103 H   0  0  0  0  0  0  0  0  0  0  0  0
  202.4812  184.8549  161.2711 H   0  0  0  0  0  0  0  0  0  0  0  0
  201.1739  182.8059  161.7325 H   0  0  0  0  0  0  0  0  0  0  0  0
  201.3026  182.2673  160.0871 H   0  0  0  0  0  0  0  0  0  0  0  0
  202.8781  181.0575  161.3354 H   0  0  0  0  0  0  0  0  0  0  0  0
  203.7513  182.1285  160.2648 H   0  0  0  0  0  0  0  0  0  0  0  0
  204.7800  182.1104  162.5486 H   0  0  0  0  0  0  0  0  0  0  0  0
  203.2415  182.6441  163.2526 H   0  0  0  0  0  0  0  0  0  0  0  0
  204.1667  183.7175  162.1995 H   0  0  0  0  0  0  0  0  0  0  0  0
  200.0609  187.0741  160.0411 H   0  0  0  0  0  0  0  0  0  0  0  0
  201.4337  186.8018  161.1035 H   0  0  0  0  0  0  0  0  0  0  0  0
  202.0815  188.1076  159.0744 H   0  0  0  0  0  0  0  0  0  0  0  0
  201.5823  186.8351  158.0104 H   0  0  0  0  0  0  0  0  0  0  0  0
  202.9616  186.5908  159.0688 H   0  0  0  0  0  0  0  0  0  0  0  0
  200.1665  184.8394  160.8405 H   0  0  0  0  0  0  0  0  0  0  0  0
  195.1559  180.9868  157.3805 H   0  0  0  0  0  0  0  0  0  0  0  0
  1  2  1  0
  1 14  2  0
  2  3  1  0
  2 11  2  0
  3  4  1  0
  3 10  1  0
  4  5  2  0
  4  9  1  0
  5  6  1  0
  5 33  1  0
  6  7  2  0
  6 34  1  0
  7  8  1  0
  7 35  1  0
  8  9  2  0
  8 36  1  0
  9 37  1  0
 10 38  1  6
 10 39  1  0
 10 40  1  0
 11 12  1  0
 11 41  1  0
 12 13  2  0
 12 42  1  0
 13 14  1  0
 13 15  1  0
 14 43  1  0
 15 16  1  0
 15 44  1  1
 15 45  1  0
 16 17  1  0
 16 32  1  6
 16 69  1  0
 17 18  1  0
 17 46  1  1
 17 47  1  0
 18 19  2  0
 18 23  1  0
 19 20  1  0
 19 48  1  0
 20 21  2  0
 20 24  1  0
 21 22  1  0
 21 49  1  0
 22 23  2  0
 22 50  1  0
 23 51  1  0
 24 25  1  0
 24 52  1  6
 24 53  1  0
 25 26  1  0
 25 30  1  0
 25 68  1  1
 26 27  1  0
 26 54  1  6
 26 55  1  0
 27 28  1  0
 27 56  1  1
 27 57  1  0
 28 29  1  0
 28 58  1  1
 28 59  1  0
 29 60  1  1
 29 61  1  0
 29 62  1  0
 30 31  1  0
 30 63  1  6
 30 64  1  0
 31 65  1  6
 31 66  1  0
 31 67  1  0
M  CHG  2  16   1  25   1
M  END
>  <s_epik_cmdline>  (1523) 
J2VwaWtfcHl0aG9uJywgJy1waCcsICc3LjAwMDAwMCcsICctcGh0JywgJzIuMDAwMDAwJywgJy1tcycsICcxNicsICctdG4nLCAnOCcsICctbWEnLCAnMjAwJywgJy1pbWFlJywgJzxpbmZpbGUubWFlPicsICctb21hZScsICc8b3V0ZmlsZS5tYWU+Jw==

>  <s_epik_input>  (1523) 
W2NIXTFbY0hdW2NIXVtjSF1bY0hdYzFOKFtDSDNdKWMybltjSF1jKFtjSF1bY0hdMilbQ0gyXVtOSF1bQ0gyXWMzW2NIXWMoW2NIXVtjSF1bY0hdMylbQ0gyXU4oW0NIMl1bQ0gzXSlbQ0gyXVtDSDJdW0NIMl1bQ0gzXQ==

>  <s_i_glide_gridfile>  (1523) 
ATP-Grid

>  <s_lp_Force_Field>  (1523) 
OPLS_2005

>  <s_lp_Variant>  (1523) 
m_270004bbb____23868334____9705990-1

>  <s_lp_label>  (1523) 
1395_sdstereoexpander_1_neutralizer_1_epik_1_stereoizer_1

>  <s_m_source_file>  (1523) 
ATP-VSW-LIGPREP-003-in.maegz

>  <s_sd_BIOSOLVEIT.INFINISEE\_QUERY\_NAME>  (1523) 
Ref-Lig

>  <s_sd_BIOSOLVEIT.INFINISEE\_QUERY\_SMILES>  (1523) 
S(c1nc2c(cc1C[NH2+]Cc3ccc(cc3)C[NH+](C)C)cccc2)Cc4ccccc4

>  <s_sd_BIOSOLVEIT.INFINISEE\_REACTION\_NAME>  (1523) 
m_270004bbb

>  <s_sd_BIOSOLVEIT.INFINISEE\_REAGENT1\_SMILES>  (1523) 
[R1*]NCc1cc(ccc1)CN(CCCC)CC

>  <s_sd_BIOSOLVEIT.INFINISEE\_REAGENT2\_SMILES>  (1523) 
[R1*]Cc1cnc(N(c2ccccc2)C)cc1

>  <s_sd_BIOSOLVEIT.INFINISEE\_SPACE>  (1523) 
REALSpace_44bn_2023-08

>  <s_vsw_compound_code>  (1523) 
44611

>  <s_vsw_variant>  (1523) 
44611-1

>  <r_epik_Charging_Adjusted_Penalty>  (1523) 
0.26068223896161002

>  <r_epik_Ionization_Penalty>  (1523) 
0.1421

>  <r_epik_Ionization_Penalty_Charging>  (1523) 
0.1285

>  <r_epik_Ionization_Penalty_Neutral>  (1523) 
0.013599999999999999

>  <r_epik_State_Penalty>  (1523) 
0.13220000000000001

>  <r_i_docking_score>  (1523) 
-5.3896519219103398

>  <r_i_glide_ecoul>  (1523) 
-11.537544250488301

>  <r_i_glide_eff_state_penalty>  (1523) 
0.13220000000000001

>  <r_i_glide_einternal>  (1523) 
6.5371971130371103

>  <r_i_glide_emodel>  (1523) 
-69.621347296608107

>  <r_i_glide_energy>  (1523) 
-46.742099761962898

>  <r_i_glide_erotb>  (1523) 
1.1285003218734699

>  <r_i_glide_esite>  (1523) 
-0.10000000000000001

>  <r_i_glide_evdw>  (1523) 
-35.204555511474602

>  <r_i_glide_gscore>  (1523) 
-5.5218519219103399

>  <r_i_glide_hbond>  (1523) 
-0.36876351627274101

>  <r_i_glide_ligand_efficiency>  (1523) 
-0.17385973941646299

>  <r_i_glide_ligand_efficiency_ln>  (1523) 
-1.21553168138566

>  <r_i_glide_ligand_efficiency_sa>  (1523) 
-0.54615962100751603

>  <r_i_glide_lipo>  (1523) 
-2.1358480870913699

>  <r_i_glide_metal>  (1523) 
-0

>  <r_i_glide_rewards>  (1523) 
-0.55488122727272504

>  <r_lp_Energy>  (1523) 
25.484219

>  <r_lp_tautomer_probability>  (1523) 
1

>  <r_qp_ACxDN^.5/SA>  (1523) 
0.0072030999999999996

>  <r_qp_CIQPlogS>  (1523) 
-4.6719999999999997

>  <r_qp_EA(eV)>  (1523) 
-0.16500000000000001

>  <r_qp_FISA>  (1523) 
26.363

>  <r_qp_FOSA>  (1523) 
372.82400000000001

>  <r_qp_IP(eV)>  (1523) 
7.8639999999999999

>  <r_qp_Jm>  (1523) 
0.100298217021279

>  <r_qp_PISA>  (1523) 
294.95600000000002

>  <r_qp_PSA>  (1523) 
29.763999999999999

>  <r_qp_PercentHumanOralAbsorption>  (1523) 
100

>  <r_qp_QPPCaco>  (1523) 
346.49900000000002

>  <r_qp_QPPMDCK>  (1523) 
192.56700000000001

>  <r_qp_QPlogBB>  (1523) 
0.40200000000000002

>  <r_qp_QPlogHERG>  (1523) 
-6.5940000000000003

>  <r_qp_QPlogKhsa>  (1523) 
0.90700000000000003

>  <r_qp_QPlogKp>  (1523) 
-3.9390000000000001

>  <r_qp_QPlogPC16>  (1523) 
13.455

>  <r_qp_QPlogPo/w>  (1523) 
4.9960000000000004

>  <r_qp_QPlogPoct>  (1523) 
18.460999999999999

>  <r_qp_QPlogPw>  (1523) 
7.3179999999999996

>  <r_qp_QPlogS>  (1523) 
-2.6789999999999998

>  <r_qp_QPpolrz>  (1523) 
44.213000000000001

>  <r_qp_SASA>  (1523) 
694.14300000000003

>  <r_qp_SAamideO>  (1523) 
0

>  <r_qp_SAfluorine>  (1523) 
0

>  <r_qp_WPSA>  (1523) 
0

>  <r_qp_accptHB>  (1523) 
5

>  <r_qp_dip^2/V>  (1523) 
0.0073102999999999996

>  <r_qp_dipole>  (1523) 
3.177

>  <r_qp_donorHB>  (1523) 
1

>  <r_qp_glob>  (1523) 
0.86386470000000004

>  <r_qp_mol_MW>  (1523) 
416.608

>  <r_qp_volume>  (1523) 
1380.684

>  <r_sd_BIOSOLVEIT.INFINISEE\_FTREES\_SIMILARITY>  (1523) 
0.90900000000000003

>  <r_sd_BIOSOLVEIT.LOGP>  (1523) 
3.3180000000000001

>  <r_sd_BIOSOLVEIT.MOLECULAR\_WEIGHT>  (1523) 
418.625

>  <r_sd_BIOSOLVEIT.TPSA>  (1523) 
37.18

>  <i_epik_Tot_Q>  (1523) 
2

>  <i_epik_Tot_abs_Q>  (1523) 
2

>  <i_f3d_flags>  (1523) 
0

>  <i_i_glide_confnum>  (1523) 
20

>  <i_i_glide_lignum>  (1523) 
544

>  <i_i_glide_posenum>  (1523) 
15

>  <i_i_glide_rotatable_bonds>  (1523) 
12

>  <i_lp_mmshare_version>  (1523) 
65135

>  <i_m_ct_format>  (1523) 
2

>  <i_m_source_file_index>  (1523) 
1395

>  <i_qp_#NandO>  (1523) 
4

>  <i_qp_#acid>  (1523) 
0

>  <i_qp_#amide>  (1523) 
0

>  <i_qp_#amidine>  (1523) 
0

>  <i_qp_#amine>  (1523) 
2

>  <i_qp_#in34>  (1523) 
0

>  <i_qp_#in56>  (1523) 
18

>  <i_qp_#metab>  (1523) 
8

>  <i_qp_#nonHatm>  (1523) 
31

>  <i_qp_#noncon>  (1523) 
0

>  <i_qp_#ringatoms>  (1523) 
18

>  <i_qp_#rotor>  (1523) 
12

>  <i_qp_#rtvFG>  (1523) 
0

>  <i_qp_#stars>  (1523) 
1

>  <i_qp_CNS>  (1523) 
1

>  <i_qp_HumanOralAbsorption>  (1523) 
3

>  <i_qp_RuleOfFive>  (1523) 
0

>  <i_qp_RuleOfThree>  (1523) 
1

>  <i_sd_BIOSOLVEIT.INFINISEE\_REAGENT1\_NAME>  (1523) 
23868334

>  <i_sd_BIOSOLVEIT.INFINISEE\_REAGENT2\_NAME>  (1523) 
9705990

>  <i_sd_BIOSOLVEIT.INFINISEE\_RESULT\_RANK>  (1523) 
52317

>  <i_sd_version>  (1523) 
0

>  <b_lp_Chiralities_Consistent>  (1523) 
1

>  <b_sd_chiral_flag>  (1523) 
0

>  <canonical_id>  (1523) 
ATP-HTVS-EFBD886B8952

>  <compound_code>  (1523) 
44611

>  <title>  (1523) 
m_270004bbb____23868334____9705990

>  <variant>  (1523) 
44611-1

>  <source_file>  (1523) 
运行/运行/ATP-VSW/ATP-VSW-DOCK_HTVS_1-003_lib/ATP-VSW-DOCK_HTVS_1-003_lib.mae

>  <canonical_smiles>  (1523) 
CCCC[N@@H+](CC)Cc1cccc(C[NH2+]Cc2ccc(N(C)c3ccccc3)nc2)c1

>  <scaffold>  (1523) 
c1ccc(C[NH2+]Cc2ccc(Nc3ccccc3)nc2)cc1

>  <molecular_formula>  (1523) 
C27H38N4+2

$$$$
ATP-HTVS-EFE421C91038
     RDKit          3D

 58 61  0  0  0  0  0  0  0  0999 V2000
  195.8047  184.2351  150.2141 O   0  0  0  0  0  0  0  0  0  0  0  0
  197.0170  184.3046  150.0299 C   0  0  0  0  0  0  0  0  0  0  0  0
  197.9484  184.0822  150.9773 N   0  0  0  0  0  0  0  0  0  0  0  0
  197.6761  183.7018  152.3205 C   0  0  0  0  0  0  0  0  0  0  0  0
  197.8373  182.3559  152.7362 C   0  0  0  0  0  0  0  0  0  0  0  0
  198.1810  181.3941  151.7815 N   0  0  0  0  0  0  0  0  0  0  0  0
  197.1368  180.4218  151.4947 C   0  0  1  0  0  0  0  0  0  0  0  0
  197.4288  179.6383  150.2404 C   0  0  0  0  0  0  0  0  0  0  0  0
  198.7070  179.0772  150.0158 C   0  0  0  0  0  0  0  0  0  0  0  0
  198.9612  178.3438  148.8414 C   0  0  0  0  0  0  0  0  0  0  0  0
  197.9362  178.1649  147.8877 C   0  0  0  0  0  0  0  0  0  0  0  0
  196.6510  178.6968  148.1321 C   0  0  0  0  0  0  0  0  0  0  0  0
  196.4022  179.4335  149.3028 C   0  0  0  0  0  0  0  0  0  0  0  0
  198.2120  177.4073  146.6021 C   0  0  1  0  0  0  0  0  0  0  0  0
  198.9232  178.2308  145.5995 N   0  0  1  0  0  0  0  0  0  0  0  0
  198.1656  179.3931  145.0976 C   0  0  2  0  0  0  0  0  0  0  0  0
  197.6433  182.0275  154.1041 C   0  0  0  0  0  0  0  0  0  0  0  0
  197.2659  183.0545  155.0125 C   0  0  0  0  0  0  0  0  0  0  0  0
  197.1440  184.3271  154.5657 N   0  0  0  0  0  0  0  0  0  0  0  0
  197.3204  184.6825  153.2727 C   0  0  0  0  0  0  0  0  0  0  0  0
  197.0529  182.7685  156.3805 C   0  0  0  0  0  0  0  0  0  0  0  0
  197.1760  181.4436  156.8411 C   0  0  0  0  0  0  0  0  0  0  0  0
  197.5735  180.4298  155.9542 C   0  0  0  0  0  0  0  0  0  0  0  0
  197.8408  180.7164  154.6047 C   0  0  0  0  0  0  0  0  0  0  0  0
  197.5841  184.6188  148.7348 C   0  0  0  0  0  0  0  0  0  0  0  0
  198.1455  184.8871  147.6822 C   0  0  0  0  0  0  0  0  0  0  0  0
  198.8537  185.1981  146.4477 C   0  0  0  0  0  0  0  0  0  0  0  0
  199.6482  186.3608  146.3522 C   0  0  0  0  0  0  0  0  0  0  0  0
  200.3324  186.6596  145.1578 C   0  0  0  0  0  0  0  0  0  0  0  0
  200.2348  185.7902  144.0545 C   0  0  0  0  0  0  0  0  0  0  0  0
  199.4484  184.6252  144.1463 C   0  0  0  0  0  0  0  0  0  0  0  0
  198.7577  184.3300  145.3391 C   0  0  0  0  0  0  0  0  0  0  0  0
  199.7872  178.5556  146.0054 H   0  0  0  0  0  0  0  0  0  0  0  0
  198.9097  184.0749  150.6806 H   0  0  0  0  0  0  0  0  0  0  0  0
  198.5311  181.8052  150.9302 H   0  0  0  0  0  0  0  0  0  0  0  0
  197.0345  179.6733  152.2807 H   0  0  0  0  0  0  0  0  0  0  0  0
  196.1808  180.9442  151.4048 H   0  0  0  0  0  0  0  0  0  0  0  0
  199.4957  179.2030  150.7455 H   0  0  0  0  0  0  0  0  0  0  0  0
  199.9490  177.9337  148.6743 H   0  0  0  0  0  0  0  0  0  0  0  0
  195.8511  178.5596  147.4195 H   0  0  0  0  0  0  0  0  0  0  0  0
  195.4173  179.8391  149.4971 H   0  0  0  0  0  0  0  0  0  0  0  0
  198.8156  176.5339  146.8495 H   0  0  0  0  0  0  0  0  0  0  0  0
  197.2769  177.0399  146.1795 H   0  0  0  0  0  0  0  0  0  0  0  0
  198.7443  179.9138  144.3347 H   0  0  0  0  0  0  0  0  0  0  0  0
  197.9566  180.1019  145.9002 H   0  0  0  0  0  0  0  0  0  0  0  0
  197.2202  179.0771  144.6552 H   0  0  0  0  0  0  0  0  0  0  0  0
  197.2080  185.7374  153.0525 H   0  0  0  0  0  0  0  0  0  0  0  0
  196.7475  183.5407  157.0777 H   0  0  0  0  0  0  0  0  0  0  0  0
  196.9723  181.1898  157.8784 H   0  0  0  0  0  0  0  0  0  0  0  0
  197.6492  179.4183  156.3281 H   0  0  0  0  0  0  0  0  0  0  0  0
  198.1851  179.9032  153.9828 H   0  0  0  0  0  0  0  0  0  0  0  0
  199.7364  187.0337  147.1930 H   0  0  0  0  0  0  0  0  0  0  0  0
  200.9299  187.5570  145.0828 H   0  0  0  0  0  0  0  0  0  0  0  0
  200.7571  186.0220  143.1361 H   0  0  0  0  0  0  0  0  0  0  0  0
  199.3742  183.9597  143.2985 H   0  0  0  0  0  0  0  0  0  0  0  0
  198.1563  183.4357  145.4025 H   0  0  0  0  0  0  0  0  0  0  0  0
  199.1472  177.6467  144.7947 H   0  0  0  0  0  0  0  0  0  0  0  0
  196.8971  185.0504  155.2395 H   0  0  0  0  0  0  0  0  0  0  0  0
  1  2  2  0
  2  3  1  0
  2 25  1  0
  3  4  1  0
  3 34  1  0
  4  5  2  0
  4 20  1  0
  5  6  1  0
  5 17  1  0
  6  7  1  0
  6 35  1  0
  7  8  1  0
  7 36  1  1
  7 37  1  0
  8  9  1  0
  8 13  2  0
  9 10  2  0
  9 38  1  0
 10 11  1  0
 10 39  1  0
 11 12  2  0
 11 14  1  0
 12 13  1  0
 12 40  1  0
 13 41  1  0
 14 15  1  0
 14 42  1  1
 14 43  1  0
 15 16  1  0
 15 33  1  1
 15 57  1  0
 16 44  1  6
 16 45  1  0
 16 46  1  0
 17 18  1  0
 17 24  2  0
 18 19  1  0
 18 21  2  0
 19 20  2  0
 19 58  1  0
 20 47  1  0
 21 22  1  0
 21 48  1  0
 22 23  2  0
 22 49  1  0
 23 24  1  0
 23 50  1  0
 24 51  1  0
 25 26  3  0
 26 27  1  0
 27 28  2  0
 27 32  1  0
 28 29  1  0
 28 52  1  0
 29 30  2  0
 29 53  1  0
 30 31  1  0
 30 54  1  0
 31 32  2  0
 31 55  1  0
 32 56  1  0
M  CHG  2  15   1  19   1
M  END
>  <s_epik_cmdline>  (1524) 
J2VwaWtfcHl0aG9uJywgJy1waCcsICc3LjAwMDAwMCcsICctcGh0JywgJzIuMDAwMDAwJywgJy1tcycsICcxNicsICctdG4nLCAnOCcsICctbWEnLCAnMjAwJywgJy1pbWFlJywgJzxpbmZpbGUubWFlPicsICctb21hZScsICc8b3V0ZmlsZS5tYWU+Jw==

>  <s_epik_input>  (1524) 
W2NIXTFbY0hdW2NIXVtjSF1bY0hdYzFDI0NDKD1PKVtOSF1jKFtjSF1uYyhjMjMpW2NIXVtjSF1bY0hdW2NIXTMpYzJbTkhdW0NIMl1jNFtjSF1bY0hdYyhbY0hdW2NIXTQpW0NIMl1bTkhdW0NIM10=

>  <s_i_glide_gridfile>  (1524) 
ATP-Grid

>  <s_lp_Force_Field>  (1524) 
OPLS_2005

>  <s_lp_Variant>  (1524) 
rxn502b____EMOL530803____EMOL30488121____EMOL108753565-1

>  <s_lp_label>  (1524) 
2369_sdstereoexpander_1_neutralizer_1_epik_1_stereoizer_1

>  <s_m_source_file>  (1524) 
ATP-VSW-LIGPREP-002-in.maegz

>  <s_sd_BIOSOLVEIT.INFINISEE\_QUERY\_NAME>  (1524) 
Ref-Lig

>  <s_sd_BIOSOLVEIT.INFINISEE\_QUERY\_SMILES>  (1524) 
S(c1nc2c(cc1C[NH2+]Cc3ccc(cc3)C[NH+](C)C)cccc2)Cc4ccccc4

>  <s_sd_BIOSOLVEIT.INFINISEE\_REACTION\_NAME>  (1524) 
rxn502b

>  <s_sd_BIOSOLVEIT.INFINISEE\_REAGENT1\_NAME>  (1524) 
EMOL530803

>  <s_sd_BIOSOLVEIT.INFINISEE\_REAGENT1\_SMILES>  (1524) 
O=C(O)C#Cc1ccccc1

>  <s_sd_BIOSOLVEIT.INFINISEE\_REAGENT2\_NAME>  (1524) 
EMOL30488121

>  <s_sd_BIOSOLVEIT.INFINISEE\_REAGENT2\_SMILES>  (1524) 
Brc1c(N)cnc2c1cccc2

>  <s_sd_BIOSOLVEIT.INFINISEE\_REAGENT3\_NAME>  (1524) 
EMOL108753565

>  <s_sd_BIOSOLVEIT.INFINISEE\_REAGENT3\_SMILES>  (1524) 
N(Cc1ccc(cc1)CN)C

>  <s_sd_BIOSOLVEIT.INFINISEE\_SPACE>  (1524) 
eXplore_7tr_2022-12

>  <s_vsw_compound_code>  (1524) 
75778

>  <s_vsw_variant>  (1524) 
75778-1

>  <r_epik_Charging_Adjusted_Penalty>  (1524) 
0.20282043882783099

>  <r_epik_Ionization_Penalty>  (1524) 
0.1014

>  <r_epik_Ionization_Penalty_Charging>  (1524) 
0.1014

>  <r_epik_Ionization_Penalty_Neutral>  (1524) 
0

>  <r_epik_State_Penalty>  (1524) 
0.1014

>  <r_i_docking_score>  (1524) 
-5.50975727056192

>  <r_i_glide_ecoul>  (1524) 
-12.094628334045399

>  <r_i_glide_eff_state_penalty>  (1524) 
0.1014

>  <r_i_glide_einternal>  (1524) 
5.8445720672607404

>  <r_i_glide_emodel>  (1524) 
-64.826659902647606

>  <r_i_glide_energy>  (1524) 
-44.631081581115701

>  <r_i_glide_erotb>  (1524) 
0.77680331847907602

>  <r_i_glide_esite>  (1524) 
-0.062722171833429805

>  <r_i_glide_evdw>  (1524) 
-32.536453247070298

>  <r_i_glide_gscore>  (1524) 
-5.6111572705619199

>  <r_i_glide_hbond>  (1524) 
-0.28193000841202098

>  <r_i_glide_ligand_efficiency>  (1524) 
-0.17217991470506

>  <r_i_glide_ligand_efficiency_ln>  (1524) 
-1.2337848431895999

>  <r_i_glide_ligand_efficiency_sa>  (1524) 
-0.54663715482971398

>  <r_i_glide_lipo>  (1524) 
-1.3680623741681099

>  <r_i_glide_metal>  (1524) 
-0

>  <r_i_glide_rewards>  (1524) 
-1.2342291221671

>  <r_lp_Energy>  (1524) 
30.034344999999998

>  <r_qp_ACxDN^.5/SA>  (1524) 
0.0149879

>  <r_qp_CIQPlogS>  (1524) 
-5.4790000000000001

>  <r_qp_EA(eV)>  (1524) 
1.036

>  <r_qp_FISA>  (1524) 
117

>  <r_qp_FOSA>  (1524) 
104.041

>  <r_qp_IP(eV)>  (1524) 
8.5500000000000007

>  <r_qp_Jm>  (1524) 
0.021415422458563801

>  <r_qp_PISA>  (1524) 
472.33800000000002

>  <r_qp_PSA>  (1524) 
76.548000000000002

>  <r_qp_PercentHumanOralAbsorption>  (1524) 
90.793999999999997

>  <r_qp_QPPCaco>  (1524) 
191.994

>  <r_qp_QPPMDCK>  (1524) 
91.950000000000003

>  <r_qp_QPlogBB>  (1524) 
-0.63500000000000001

>  <r_qp_QPlogHERG>  (1524) 
-7.1550000000000002

>  <r_qp_QPlogKhsa>  (1524) 
0.58299999999999996

>  <r_qp_QPlogKp>  (1524) 
-3.306

>  <r_qp_QPlogPC16>  (1524) 
15.233000000000001

>  <r_qp_QPlogPo/w>  (1524) 
3.9249999999999998

>  <r_qp_QPlogPoct>  (1524) 
24.036999999999999

>  <r_qp_QPlogPw>  (1524) 
13.936

>  <r_qp_QPlogS>  (1524) 
-3.9870000000000001

>  <r_qp_QPpolrz>  (1524) 
45.792999999999999

>  <r_qp_SASA>  (1524) 
693.37900000000002

>  <r_qp_SAamideO>  (1524) 
0

>  <r_qp_SAfluorine>  (1524) 
0

>  <r_qp_WPSA>  (1524) 
0

>  <r_qp_accptHB>  (1524) 
6

>  <r_qp_dip^2/V>  (1524) 
0.068850300000000003

>  <r_qp_dipole>  (1524) 
9.5099999999999998

>  <r_qp_donorHB>  (1524) 
3

>  <r_qp_glob>  (1524) 
0.83660440000000003

>  <r_qp_mol_MW>  (1524) 
420.51299999999998

>  <r_qp_volume>  (1524) 
1313.6769999999999

>  <r_sd_BIOSOLVEIT.INFINISEE\_FTREES\_SIMILARITY>  (1524) 
0.91900000000000004

>  <r_sd_BIOSOLVEIT.LOGP>  (1524) 
3.5303

>  <r_sd_BIOSOLVEIT.MOLECULAR\_WEIGHT>  (1524) 
421.52199999999999

>  <r_sd_BIOSOLVEIT.TPSA>  (1524) 
70.629999999999995

>  <i_epik_Tot_Q>  (1524) 
2

>  <i_epik_Tot_abs_Q>  (1524) 
2

>  <i_f3d_flags>  (1524) 
0

>  <i_i_glide_confnum>  (1524) 
8

>  <i_i_glide_lignum>  (1524) 
973

>  <i_i_glide_posenum>  (1524) 
16

>  <i_i_glide_rotatable_bonds>  (1524) 
9

>  <i_lp_mmshare_version>  (1524) 
65135

>  <i_m_ct_format>  (1524) 
2

>  <i_m_source_file_index>  (1524) 
2369

>  <i_qp_#NandO>  (1524) 
5

>  <i_qp_#acid>  (1524) 
0

>  <i_qp_#amide>  (1524) 
0

>  <i_qp_#amidine>  (1524) 
0

>  <i_qp_#amine>  (1524) 
1

>  <i_qp_#in34>  (1524) 
0

>  <i_qp_#in56>  (1524) 
22

>  <i_qp_#metab>  (1524) 
6

>  <i_qp_#nonHatm>  (1524) 
32

>  <i_qp_#noncon>  (1524) 
0

>  <i_qp_#ringatoms>  (1524) 
22

>  <i_qp_#rotor>  (1524) 
8

>  <i_qp_#rtvFG>  (1524) 
0

>  <i_qp_#stars>  (1524) 
1

>  <i_qp_CNS>  (1524) 
0

>  <i_qp_HumanOralAbsorption>  (1524) 
3

>  <i_qp_RuleOfFive>  (1524) 
0

>  <i_qp_RuleOfThree>  (1524) 
0

>  <i_sd_BIOSOLVEIT.INFINISEE\_RESULT\_RANK>  (1524) 
17647

>  <i_sd_version>  (1524) 
0

>  <b_lp_Chiralities_Consistent>  (1524) 
1

>  <b_sd_chiral_flag>  (1524) 
0

>  <canonical_id>  (1524) 
ATP-HTVS-EFE421C91038

>  <compound_code>  (1524) 
75778

>  <title>  (1524) 
rxn502b____EMOL530803____EMOL30488121____EMOL108753565

>  <variant>  (1524) 
75778-1

>  <source_file>  (1524) 
运行/运行/ATP-VSW/ATP-VSW-DOCK_HTVS_1-002_lib.maegz

>  <canonical_smiles>  (1524) 
C[NH2+]Cc1ccc(CNc2c(NC(=O)C#Cc3ccccc3)c[nH+]c3ccccc23)cc1

>  <scaffold>  (1524) 
O=C(C#Cc1ccccc1)Nc1c[nH+]c2ccccc2c1NCc1ccccc1

>  <molecular_formula>  (1524) 
C27H26N4O+2

$$$$
ATP-HTVS-F056EC0EC7E7
     RDKit          3D

 60 63  0  0  0  0  0  0  0  0999 V2000
  196.6783  183.0032  150.7142 Cl  0  0  0  0  0  0  0  0  0  0  0  0
  197.1387  182.0276  152.0737 C   0  0  0  0  0  0  0  0  0  0  0  0
  197.7754  180.7468  151.9789 C   0  0  0  0  0  0  0  0  0  0  0  0
  198.0705  180.0542  153.1885 C   0  0  0  0  0  0  0  0  0  0  0  0
  197.7681  180.6260  154.4426 C   0  0  0  0  0  0  0  0  0  0  0  0
  197.1485  181.8785  154.5235 C   0  0  0  0  0  0  0  0  0  0  0  0
  196.8450  182.5737  153.3405 C   0  0  0  0  0  0  0  0  0  0  0  0
  198.7126  178.7381  153.1254 C   0  0  0  0  0  0  0  0  0  0  0  0
  199.0666  178.1841  151.9395 C   0  0  0  0  0  0  0  0  0  0  0  0
  198.7791  178.8690  150.7064 N   0  0  0  0  0  0  0  0  0  0  0  0
  199.0992  178.2328  149.4803 C   0  0  0  0  0  0  0  0  0  0  0  0
  198.0623  177.8930  148.5659 C   0  0  0  0  0  0  0  0  0  0  0  0
  198.3526  177.2617  147.3480 C   0  0  0  0  0  0  0  0  0  0  0  0
  199.6841  176.9438  147.0161 C   0  0  0  0  0  0  0  0  0  0  0  0
  200.7206  177.2697  147.9250 C   0  0  0  0  0  0  0  0  0  0  0  0
  200.4307  177.9395  149.1147 C   0  0  0  0  0  0  0  0  0  0  0  0
  198.1510  180.0910  150.6665 C   0  0  0  0  0  0  0  0  0  0  0  0
  197.8876  180.6451  149.6047 O   0  0  0  0  0  0  0  0  0  0  0  0
  199.7637  176.7904  151.9011 C   0  0  1  0  0  0  0  0  0  0  0  0
  200.2817  176.3667  153.1829 N   0  0  0  0  0  0  0  0  0  0  0  0
  201.3463  175.4621  153.3546 C   0  0  0  0  0  0  0  0  0  0  0  0
  201.7648  175.1309  154.6756 C   0  0  0  0  0  0  0  0  0  0  0  0
  202.8388  174.2203  154.8569 C   0  0  0  0  0  0  0  0  0  0  0  0
  203.2921  173.8538  156.1425 N   0  0  0  0  0  0  0  0  0  0  0  0
  203.5169  173.6740  153.7496 C   0  0  0  0  0  0  0  0  0  0  0  0
  203.1308  174.0299  152.4435 C   0  0  0  0  0  0  0  0  0  0  0  0
  202.0548  174.9138  152.2533 C   0  0  0  0  0  0  0  0  0  0  0  0
  201.0705  175.7958  155.8795 C   0  0  1  0  0  0  0  0  0  0  0  0
  201.5819  177.1402  156.2208 N   0  0  2  0  0  0  0  0  0  0  0  0
  200.9594  177.6908  157.4283 C   0  0  2  0  0  0  0  0  0  0  0  0
  201.5295  178.1393  155.1331 C   0  0  2  0  0  0  0  0  0  0  0  0
  198.8577  175.6585  151.3226 C   0  0  2  0  0  0  0  0  0  0  0  0
  198.0038  180.0987  155.3531 H   0  0  0  0  0  0  0  0  0  0  0  0
  196.8951  182.3077  155.4848 H   0  0  0  0  0  0  0  0  0  0  0  0
  196.3764  183.5504  153.4090 H   0  0  0  0  0  0  0  0  0  0  0  0
  198.8094  178.2060  154.0536 H   0  0  0  0  0  0  0  0  0  0  0  0
  197.0224  178.1033  148.8125 H   0  0  0  0  0  0  0  0  0  0  0  0
  197.5466  177.0200  146.6547 H   0  0  0  0  0  0  0  0  0  0  0  0
  199.9149  176.4485  146.0864 H   0  0  0  0  0  0  0  0  0  0  0  0
  201.7439  177.0100  147.6793 H   0  0  0  0  0  0  0  0  0  0  0  0
  201.2439  178.2111  149.7909 H   0  0  0  0  0  0  0  0  0  0  0  0
  200.6480  176.9079  151.2770 H   0  0  0  0  0  0  0  0  0  0  0  0
  199.7726  176.6913  154.0284 H   0  0  0  0  0  0  0  0  0  0  0  0
  203.9205  173.0668  156.2229 H   0  0  0  0  0  0  0  0  0  0  0  0
  202.7343  174.0294  156.9505 H   0  0  0  0  0  0  0  0  0  0  0  0
  204.3309  172.9743  153.8939 H   0  0  0  0  0  0  0  0  0  0  0  0
  203.6723  173.6196  151.5965 H   0  0  0  0  0  0  0  0  0  0  0  0
  201.8172  175.1628  151.2291 H   0  0  0  0  0  0  0  0  0  0  0  0
  199.9900  175.8345  155.7041 H   0  0  0  0  0  0  0  0  0  0  0  0
  201.1533  175.1367  156.7382 H   0  0  0  0  0  0  0  0  0  0  0  0
  199.8774  177.7957  157.3018 H   0  0  0  0  0  0  0  0  0  0  0  0
  201.3510  178.6845  157.6493 H   0  0  0  0  0  0  0  0  0  0  0  0
  201.1309  177.0711  158.3083 H   0  0  0  0  0  0  0  0  0  0  0  0
  200.5423  178.2976  154.8678 H   0  0  0  0  0  0  0  0  0  0  0  0
  202.1152  177.7966  154.2378 H   0  0  0  0  0  0  0  0  0  0  0  0
  201.9780  179.1006  155.4240 H   0  0  0  0  0  0  0  0  0  0  0  0
  198.4109  175.8849  150.3500 H   0  0  0  0  0  0  0  0  0  0  0  0
  198.0466  175.4362  152.0038 H   0  0  0  0  0  0  0  0  0  0  0  0
  199.4409  174.7465  151.1861 H   0  0  0  0  0  0  0  0  0  0  0  0
  202.5727  177.0120  156.4704 H   0  0  0  0  0  0  0  0  0  0  0  0
  1  2  1  0
  2  3  2  0
  2  7  1  0
  3  4  1  0
  3 17  1  0
  4  5  2  0
  4  8  1  0
  5  6  1  0
  5 33  1  0
  6  7  2  0
  6 34  1  0
  7 35  1  0
  8  9  2  0
  8 36  1  0
  9 10  1  0
  9 19  1  0
 10 11  1  0
 10 17  1  0
 11 12  2  0
 11 16  1  0
 12 13  1  0
 12 37  1  0
 13 14  2  0
 13 38  1  0
 14 15  1  0
 14 39  1  0
 15 16  2  0
 15 40  1  0
 16 41  1  0
 17 18  2  0
 19 20  1  0
 19 32  1  0
 19 42  1  6
 20 21  1  0
 20 43  1  0
 21 22  1  0
 21 27  2  0
 22 23  2  0
 22 28  1  0
 23 24  1  0
 23 25  1  0
 24 44  1  0
 24 45  1  0
 25 26  2  0
 25 46  1  0
 26 27  1  0
 26 47  1  0
 27 48  1  0
 28 29  1  0
 28 49  1  6
 28 50  1  0
 29 30  1  0
 29 31  1  0
 29 60  1  1
 30 51  1  6
 30 52  1  0
 30 53  1  0
 31 54  1  6
 31 55  1  0
 31 56  1  0
 32 57  1  6
 32 58  1  0
 32 59  1  0
M  CHG  1  29   1
M  END
>  <s_epik_cmdline>  (1525) 
J2VwaWtfcHl0aG9uJywgJy1waCcsICc3LjAwMDAwMCcsICctcGh0JywgJzIuMDAwMDAwJywgJy1tcycsICcxNicsICctdG4nLCAnOCcsICctbWEnLCAnMjAwJywgJy1pbWFlJywgJzxpbmZpbGUubWFlPicsICctb21hZScsICc8b3V0ZmlsZS5tYWU+Jw==

>  <s_epik_input>  (1525) 
Q2xjMVtjSF1bY0hdW2NIXWMoYzEyKVtjSF1jKG4oYzI9TyktYzNbY0hdW2NIXVtjSF1bY0hdW2NIXTMpW0NASF0oW0NIM10pW05IXWM0YyhbQ0gyXU4oW0NIM10pW0NIM10pYyhbTkgyXSlbY0hdW2NIXVtjSF00

>  <s_i_glide_gridfile>  (1525) 
ATP-Grid

>  <s_lp_Force_Field>  (1525) 
OPLS_2005

>  <s_lp_Variant>  (1525) 
rxn102b____EMOL37561843____EMOL76738571-2

>  <s_lp_label>  (1525) 
2428_sdstereoexpander_2_neutralizer_1_epik_1_stereoizer_1

>  <s_m_source_file>  (1525) 
ATP-VSW-LIGPREP-002-in.maegz

>  <s_sd_BIOSOLVEIT.INFINISEE\_QUERY\_NAME>  (1525) 
Ref-Lig

>  <s_sd_BIOSOLVEIT.INFINISEE\_QUERY\_SMILES>  (1525) 
S(c1nc2c(cc1C[NH2+]Cc3ccc(cc3)C[NH+](C)C)cccc2)Cc4ccccc4

>  <s_sd_BIOSOLVEIT.INFINISEE\_REACTION\_NAME>  (1525) 
rxn102b

>  <s_sd_BIOSOLVEIT.INFINISEE\_REAGENT1\_NAME>  (1525) 
EMOL37561843

>  <s_sd_BIOSOLVEIT.INFINISEE\_REAGENT1\_SMILES>  (1525) 
Brc1c(c(N)ccc1)CN(C)C

>  <s_sd_BIOSOLVEIT.INFINISEE\_REAGENT2\_NAME>  (1525) 
EMOL76738571

>  <s_sd_BIOSOLVEIT.INFINISEE\_REAGENT2\_SMILES>  (1525) 
Clc1c2c(ccc1)C=C(N(c3ccccc3)C2=O)C(N)C

>  <s_sd_BIOSOLVEIT.INFINISEE\_SPACE>  (1525) 
eXplore_7tr_2022-12

>  <s_vsw_compound_code>  (1525) 
77666

>  <s_vsw_variant>  (1525) 
77666-2

>  <r_epik_Charging_Adjusted_Penalty>  (1525) 
0.078118566042409798

>  <r_epik_Ionization_Penalty>  (1525) 
0.039100000000000003

>  <r_epik_Ionization_Penalty_Charging>  (1525) 
0.039100000000000003

>  <r_epik_Ionization_Penalty_Neutral>  (1525) 
0

>  <r_epik_State_Penalty>  (1525) 
0.039100000000000003

>  <r_i_docking_score>  (1525) 
-4.1759875206685297

>  <r_i_glide_ecoul>  (1525) 
-7.3603792190551802

>  <r_i_glide_eff_state_penalty>  (1525) 
0.039100000000000003

>  <r_i_glide_einternal>  (1525) 
0.99924612045288097

>  <r_i_glide_emodel>  (1525) 
-53.524233348336402

>  <r_i_glide_energy>  (1525) 
-39.163628578186

>  <r_i_glide_erotb>  (1525) 
0.49901520318446502

>  <r_i_glide_esite>  (1525) 
0

>  <r_i_glide_evdw>  (1525) 
-31.803249359130898

>  <r_i_glide_gscore>  (1525) 
-4.2150875206685301

>  <r_i_glide_hbond>  (1525) 
0

>  <r_i_glide_ligand_efficiency>  (1525) 
-0.130499610020892

>  <r_i_glide_ligand_efficiency_ln>  (1525) 
-0.93511743899823097

>  <r_i_glide_ligand_efficiency_sa>  (1525) 
-0.41431043597857597

>  <r_i_glide_lipo>  (1525) 
-1.3977352056567101

>  <r_i_glide_metal>  (1525) 
-0

>  <r_i_glide_rewards>  (1525) 
-0.62214816738146606

>  <r_lp_Energy>  (1525) 
51.454421000000004

>  <r_qp_ACxDN^.5/SA>  (1525) 
0.015714700000000002

>  <r_qp_CIQPlogS>  (1525) 
-5.681

>  <r_qp_EA(eV)>  (1525) 
0.53400000000000003

>  <r_qp_FISA>  (1525) 
76.406000000000006

>  <r_qp_FOSA>  (1525) 
208.90799999999999

>  <r_qp_IP(eV)>  (1525) 
7.9029999999999996

>  <r_qp_Jm>  (1525) 
0.0093973794170141896

>  <r_qp_PISA>  (1525) 
359.37900000000002

>  <r_qp_PSA>  (1525) 
59.881

>  <r_qp_PercentHumanOralAbsorption>  (1525) 
100

>  <r_qp_QPPCaco>  (1525) 
465.84399999999999

>  <r_qp_QPPMDCK>  (1525) 
508.40800000000002

>  <r_qp_QPlogBB>  (1525) 
0.017999999999999999

>  <r_qp_QPlogHERG>  (1525) 
-6.6289999999999996

>  <r_qp_QPlogKhsa>  (1525) 
0.60899999999999999

>  <r_qp_QPlogKp>  (1525) 
-3.1480000000000001

>  <r_qp_QPlogPC16>  (1525) 
14.718

>  <r_qp_QPlogPo/w>  (1525) 
4.1870000000000003

>  <r_qp_QPlogPoct>  (1525) 
23.928999999999998

>  <r_qp_QPlogPw>  (1525) 
13.632

>  <r_qp_QPlogS>  (1525) 
-4.5289999999999999

>  <r_qp_QPpolrz>  (1525) 
47.170000000000002

>  <r_qp_SASA>  (1525) 
704.30899999999997

>  <r_qp_SAamideO>  (1525) 
0

>  <r_qp_SAfluorine>  (1525) 
0

>  <r_qp_WPSA>  (1525) 
59.616

>  <r_qp_accptHB>  (1525) 
7

>  <r_qp_dip^2/V>  (1525) 
0.040379499999999999

>  <r_qp_dipole>  (1525) 
7.3639999999999999

>  <r_qp_donorHB>  (1525) 
2.5

>  <r_qp_glob>  (1525) 
0.83580840000000001

>  <r_qp_mol_MW>  (1525) 
446.97800000000001

>  <r_qp_volume>  (1525) 
1342.942

>  <r_sd_BIOSOLVEIT.INFINISEE\_FTREES\_SIMILARITY>  (1525) 
0.91700000000000004

>  <r_sd_BIOSOLVEIT.LOGP>  (1525) 
4.0438999999999998

>  <r_sd_BIOSOLVEIT.MOLECULAR\_WEIGHT>  (1525) 
447.98700000000002

>  <r_sd_BIOSOLVEIT.TPSA>  (1525) 
64.489999999999995

>  <i_epik_Tot_Q>  (1525) 
1

>  <i_epik_Tot_abs_Q>  (1525) 
1

>  <i_f3d_flags>  (1525) 
0

>  <i_i_glide_confnum>  (1525) 
1

>  <i_i_glide_lignum>  (1525) 
1037

>  <i_i_glide_posenum>  (1525) 
3

>  <i_i_glide_rotatable_bonds>  (1525) 
6

>  <i_lp_mmshare_version>  (1525) 
65135

>  <i_m_ct_format>  (1525) 
2

>  <i_m_source_file_index>  (1525) 
2428

>  <i_qp_#NandO>  (1525) 
5

>  <i_qp_#acid>  (1525) 
0

>  <i_qp_#amide>  (1525) 
0

>  <i_qp_#amidine>  (1525) 
0

>  <i_qp_#amine>  (1525) 
1

>  <i_qp_#in34>  (1525) 
0

>  <i_qp_#in56>  (1525) 
22

>  <i_qp_#metab>  (1525) 
9

>  <i_qp_#nonHatm>  (1525) 
32

>  <i_qp_#noncon>  (1525) 
0

>  <i_qp_#ringatoms>  (1525) 
22

>  <i_qp_#rotor>  (1525) 
6

>  <i_qp_#rtvFG>  (1525) 
0

>  <i_qp_#stars>  (1525) 
1

>  <i_qp_CNS>  (1525) 
1

>  <i_qp_HumanOralAbsorption>  (1525) 
3

>  <i_qp_RuleOfFive>  (1525) 
0

>  <i_qp_RuleOfThree>  (1525) 
1

>  <i_sd_BIOSOLVEIT.INFINISEE\_RESULT\_RANK>  (1525) 
23103

>  <i_sd_version>  (1525) 
0

>  <b_lp_Chiralities_Consistent>  (1525) 
1

>  <b_sd_chiral_flag>  (1525) 
0

>  <canonical_id>  (1525) 
ATP-HTVS-F056EC0EC7E7

>  <compound_code>  (1525) 
77666

>  <title>  (1525) 
rxn102b____EMOL37561843____EMOL76738571

>  <variant>  (1525) 
77666-2

>  <source_file>  (1525) 
运行/运行/ATP-VSW/ATP-VSW-DOCK_HTVS_1-002_lib.maegz

>  <canonical_smiles>  (1525) 
C[C@H](Nc1cccc(N)c1C[NH+](C)C)c1cc2cccc(Cl)c2c(=O)n1-c1ccccc1

>  <scaffold>  (1525) 
O=c1c2ccccc2cc(CNc2ccccc2)n1-c1ccccc1

>  <molecular_formula>  (1525) 
C26H28ClN4O+

$$$$
ATP-HTVS-F05D07B9382E
     RDKit          3D

 63 66  0  0  0  0  0  0  0  0999 V2000
  199.8213  182.1494  155.3727 N   0  0  0  0  0  0  0  0  0  0  0  0
  201.1912  181.9710  155.3312 C   0  0  0  0  0  0  0  0  0  0  0  0
  201.5593  180.7815  156.0063 C   0  0  0  0  0  0  0  0  0  0  0  0
  200.3580  180.2573  156.4974 N   0  0  0  0  0  0  0  0  0  0  0  0
  199.3886  181.1041  156.0911 C   0  0  0  0  0  0  0  0  0  0  0  0
  197.9186  180.9000  156.3810 C   0  0  1  0  0  0  0  0  0  0  0  0
  197.3792  181.7554  157.4475 N   0  0  0  0  0  0  0  0  0  0  0  0
  197.4843  183.2171  157.2887 C   0  0  2  0  0  0  0  0  0  0  0  0
  196.6273  183.9557  158.3022 C   0  0  0  0  0  0  0  0  0  0  0  0
  197.1420  185.0894  158.9736 C   0  0  0  0  0  0  0  0  0  0  0  0
  196.3391  185.7988  159.8898 C   0  0  0  0  0  0  0  0  0  0  0  0
  195.0201  185.3752  160.1404 C   0  0  0  0  0  0  0  0  0  0  0  0
  194.4973  184.2531  159.4661 C   0  0  0  0  0  0  0  0  0  0  0  0
  195.2987  183.5501  158.5457 C   0  0  0  0  0  0  0  0  0  0  0  0
  197.1270  183.6690  155.8487 C   0  0  1  0  0  0  0  0  0  0  0  0
  197.5208  185.0195  155.4328 N   0  0  0  0  0  0  0  0  0  0  0  0
  198.9661  185.2647  155.5591 C   0  0  1  0  0  0  0  0  0  0  0  0
  199.4094  186.7106  155.3391 C   0  0  2  0  0  0  0  0  0  0  0  0
  197.0364  185.2470  154.0653 C   0  0  1  0  0  0  0  0  0  0  0  0
  197.5665  184.3081  152.9603 C   0  0  2  0  0  0  0  0  0  0  0  0
  200.2032  179.0259  157.2460 C   0  0  1  0  0  0  0  0  0  0  0  0
  200.4995  177.8166  156.3757 C   0  0  0  0  0  0  0  0  0  0  0  0
  201.2218  176.7431  156.9285 C   0  0  0  0  0  0  0  0  0  0  0  0
  201.5503  175.6210  156.1441 C   0  0  0  0  0  0  0  0  0  0  0  0
  201.1481  175.5642  154.7953 C   0  0  0  0  0  0  0  0  0  0  0  0
  200.4126  176.6284  154.2365 C   0  0  0  0  0  0  0  0  0  0  0  0
  200.0862  177.7514  155.0250 C   0  0  0  0  0  0  0  0  0  0  0  0
  202.9003  180.3634  156.0516 C   0  0  0  0  0  0  0  0  0  0  0  0
  203.8985  181.1447  155.4236 C   0  0  0  0  0  0  0  0  0  0  0  0
  203.5506  182.3454  154.7760 C   0  0  0  0  0  0  0  0  0  0  0  0
  202.2031  182.7628  154.7332 C   0  0  0  0  0  0  0  0  0  0  0  0
  196.4503  181.4585  157.7228 H   0  0  0  0  0  0  0  0  0  0  0  0
  197.3662  181.0442  155.4594 H   0  0  0  0  0  0  0  0  0  0  0  0
  197.7154  179.8507  156.6274 H   0  0  0  0  0  0  0  0  0  0  0  0
  198.5155  183.4627  157.5174 H   0  0  0  0  0  0  0  0  0  0  0  0
  198.1441  185.4345  158.7690 H   0  0  0  0  0  0  0  0  0  0  0  0
  196.7327  186.6717  160.3942 H   0  0  0  0  0  0  0  0  0  0  0  0
  194.4002  185.9199  160.8359 H   0  0  0  0  0  0  0  0  0  0  0  0
  193.4774  183.9415  159.6373 H   0  0  0  0  0  0  0  0  0  0  0  0
  194.8744  182.7137  158.0081 H   0  0  0  0  0  0  0  0  0  0  0  0
  197.5755  183.0049  155.1311 H   0  0  0  0  0  0  0  0  0  0  0  0
  196.0525  183.5422  155.7034 H   0  0  0  0  0  0  0  0  0  0  0  0
  199.3157  185.0105  156.5557 H   0  0  0  0  0  0  0  0  0  0  0  0
  199.5292  184.6354  154.8773 H   0  0  0  0  0  0  0  0  0  0  0  0
  200.4852  186.8001  155.5072 H   0  0  0  0  0  0  0  0  0  0  0  0
  198.8994  187.3710  156.0409 H   0  0  0  0  0  0  0  0  0  0  0  0
  199.2108  187.0482  154.3230 H   0  0  0  0  0  0  0  0  0  0  0  0
  195.9532  185.1979  154.0598 H   0  0  0  0  0  0  0  0  0  0  0  0
  197.2688  186.2618  153.7674 H   0  0  0  0  0  0  0  0  0  0  0  0
  197.2870  184.6773  151.9757 H   0  0  0  0  0  0  0  0  0  0  0  0
  197.1494  183.3056  153.0412 H   0  0  0  0  0  0  0  0  0  0  0  0
  198.6523  184.2066  152.9590 H   0  0  0  0  0  0  0  0  0  0  0  0
  200.8783  179.0642  158.1017 H   0  0  0  0  0  0  0  0  0  0  0  0
  199.1895  178.9411  157.6461 H   0  0  0  0  0  0  0  0  0  0  0  0
  201.5366  176.8001  157.9589 H   0  0  0  0  0  0  0  0  0  0  0  0
  202.1116  174.8078  156.5805 H   0  0  0  0  0  0  0  0  0  0  0  0
  201.3927  174.6984  154.1969 H   0  0  0  0  0  0  0  0  0  0  0  0
  200.0907  176.5804  153.2052 H   0  0  0  0  0  0  0  0  0  0  0  0
  199.5225  178.5580  154.5801 H   0  0  0  0  0  0  0  0  0  0  0  0
  203.1590  179.4413  156.5436 H   0  0  0  0  0  0  0  0  0  0  0  0
  204.9295  180.8079  155.4417 H   0  0  0  0  0  0  0  0  0  0  0  0
  204.3169  182.9408  154.2979 H   0  0  0  0  0  0  0  0  0  0  0  0
  201.9368  183.6806  154.2311 H   0  0  0  0  0  0  0  0  0  0  0  0
  1  2  1  0
  1  5  2  0
  2  3  1  0
  2 31  2  0
  3  4  1  0
  3 28  2  0
  4  5  1  0
  4 21  1  0
  5  6  1  0
  6  7  1  0
  6 33  1  6
  6 34  1  0
  7  8  1  0
  7 32  1  0
  8  9  1  0
  8 15  1  0
  8 35  1  1
  9 10  2  0
  9 14  1  0
 10 11  1  0
 10 36  1  0
 11 12  2  0
 11 37  1  0
 12 13  1  0
 12 38  1  0
 13 14  2  0
 13 39  1  0
 14 40  1  0
 15 16  1  0
 15 41  1  6
 15 42  1  0
 16 17  1  0
 16 19  1  0
 17 18  1  0
 17 43  1  1
 17 44  1  0
 18 45  1  1
 18 46  1  0
 18 47  1  0
 19 20  1  0
 19 48  1  1
 19 49  1  0
 20 50  1  6
 20 51  1  0
 20 52  1  0
 21 22  1  0
 21 53  1  1
 21 54  1  0
 22 23  2  0
 22 27  1  0
 23 24  1  0
 23 55  1  0
 24 25  2  0
 24 56  1  0
 25 26  1  0
 25 57  1  0
 26 27  2  0
 26 58  1  0
 27 59  1  0
 28 29  1  0
 28 60  1  0
 29 30  2  0
 29 61  1  0
 30 31  1  0
 30 62  1  0
 31 63  1  0
M  END
>  <s_epik_cmdline>  (1526) 
J2VwaWtfcHl0aG9uJywgJy1waCcsICc3LjAwMDAwMCcsICctcGh0JywgJzIuMDAwMDAwJywgJy1tcycsICcxNicsICctdG4nLCAnOCcsICctbWEnLCAnMjAwJywgJy1pbWFlJywgJzxpbmZpbGUubWFlPicsICctb21hZScsICc8b3V0ZmlsZS5tYWU+Jw==

>  <s_epik_input>  (1526) 
W2NIXTFbY0hdW2NIXVtjSF1bY0hdYzFbQ0gyXW4oYyhjMjMpW2NIXVtjSF1bY0hdW2NIXTMpYyhuMilbQ0gyXVtOSF1bQ0BASF0oW0NIMl1OKFtDSDJdW0NIM10pW0NIMl1bQ0gzXSljNFtjSF1bY0hdW2NIXVtjSF1bY0hdNA==

>  <s_i_glide_gridfile>  (1526) 
ATP-Grid

>  <s_lp_Force_Field>  (1526) 
OPLS_2005

>  <s_lp_Variant>  (1526) 
m_270004beb____23855432____24720860-5

>  <s_lp_label>  (1526) 
2014_sdstereoexpander_1_neutralizer_1_epik_3_stereoizer_1

>  <s_m_source_file>  (1526) 
ATP-VSW-LIGPREP-001-in.maegz

>  <s_sd_BIOSOLVEIT.INFINISEE\_QUERY\_NAME>  (1526) 
Ref-Lig

>  <s_sd_BIOSOLVEIT.INFINISEE\_QUERY\_SMILES>  (1526) 
S(c1nc2c(cc1C[NH2+]Cc3ccc(cc3)C[NH+](C)C)cccc2)Cc4ccccc4

>  <s_sd_BIOSOLVEIT.INFINISEE\_REACTION\_NAME>  (1526) 
m_270004beb

>  <s_sd_BIOSOLVEIT.INFINISEE\_REAGENT1\_SMILES>  (1526) 
[R1*]NC(c1ccccc1)CN(CC)CC

>  <s_sd_BIOSOLVEIT.INFINISEE\_REAGENT2\_SMILES>  (1526) 
[R1*]CC1=Nc2c(N1Cc3ccccc3)cccc2

>  <s_sd_BIOSOLVEIT.INFINISEE\_SPACE>  (1526) 
REALSpace_44bn_2023-08

>  <s_vsw_compound_code>  (1526) 
64417

>  <s_vsw_variant>  (1526) 
64417-5

>  <r_epik_Charging_Adjusted_Penalty>  (1526) 
1.90981738591005

>  <r_epik_Ionization_Penalty>  (1526) 
2.1204000000000001

>  <r_epik_Ionization_Penalty_Charging>  (1526) 
0

>  <r_epik_Ionization_Penalty_Neutral>  (1526) 
2.1204000000000001

>  <r_epik_State_Penalty>  (1526) 
1.9097999999999999

>  <r_i_docking_score>  (1526) 
-1.67195748938188

>  <r_i_glide_ecoul>  (1526) 
-3.71981644630432

>  <r_i_glide_eff_state_penalty>  (1526) 
1.9097999999999999

>  <r_i_glide_einternal>  (1526) 
7.7699069976806596

>  <r_i_glide_emodel>  (1526) 
-39.037123747113

>  <r_i_glide_energy>  (1526) 
-34.667349100112901

>  <r_i_glide_erotb>  (1526) 
0.81098666524909202

>  <r_i_glide_esite>  (1526) 
-0.030273750895431599

>  <r_i_glide_evdw>  (1526) 
-30.947532653808601

>  <r_i_glide_gscore>  (1526) 
-3.58175748938188

>  <r_i_glide_hbond>  (1526) 
0

>  <r_i_glide_ligand_efficiency>  (1526) 
-0.053934112560705898

>  <r_i_glide_ligand_efficiency_ln>  (1526) 
-0.37707765319905201

>  <r_i_glide_ligand_efficiency_sa>  (1526) 
-0.16942757750816401

>  <r_i_glide_lipo>  (1526) 
-1.6610061677358301

>  <r_i_glide_metal>  (1526) 
-0

>  <r_i_glide_rewards>  (1526) 
-0.596115136363635

>  <r_lp_Energy>  (1526) 
35.323326999999999

>  <r_qp_ACxDN^.5/SA>  (1526) 
0.0071345000000000002

>  <r_qp_CIQPlogS>  (1526) 
-4.7690000000000001

>  <r_qp_EA(eV)>  (1526) 
0.20100000000000001

>  <r_qp_FISA>  (1526) 
29.681000000000001

>  <r_qp_FOSA>  (1526) 
254.804

>  <r_qp_IP(eV)>  (1526) 
8.4649999999999999

>  <r_qp_Jm>  (1526) 
0.0532453566565389

>  <r_qp_PISA>  (1526) 
416.33100000000002

>  <r_qp_PSA>  (1526) 
29.603999999999999

>  <r_qp_PercentHumanOralAbsorption>  (1526) 
100

>  <r_qp_QPPCaco>  (1526) 
322.28500000000003

>  <r_qp_QPPMDCK>  (1526) 
178.06299999999999

>  <r_qp_QPlogBB>  (1526) 
0.48199999999999998

>  <r_qp_QPlogHERG>  (1526) 
-7.4429999999999996

>  <r_qp_QPlogKhsa>  (1526) 
0.92900000000000005

>  <r_qp_QPlogKp>  (1526) 
-3.7650000000000001

>  <r_qp_QPlogPC16>  (1526) 
14.169

>  <r_qp_QPlogPo/w>  (1526) 
4.9790000000000001

>  <r_qp_QPlogPoct>  (1526) 
19.341000000000001

>  <r_qp_QPlogPw>  (1526) 
8.6229999999999993

>  <r_qp_QPlogS>  (1526) 
-3.1240000000000001

>  <r_qp_QPpolrz>  (1526) 
45.838000000000001

>  <r_qp_SASA>  (1526) 
700.81500000000005

>  <r_qp_SAamideO>  (1526) 
0

>  <r_qp_SAfluorine>  (1526) 
0

>  <r_qp_WPSA>  (1526) 
0

>  <r_qp_accptHB>  (1526) 
5

>  <r_qp_dip^2/V>  (1526) 
0.015170899999999999

>  <r_qp_dipole>  (1526) 
4.5430000000000001

>  <r_qp_donorHB>  (1526) 
1

>  <r_qp_glob>  (1526) 
0.84717089999999995

>  <r_qp_mol_MW>  (1526) 
412.577

>  <r_qp_volume>  (1526) 
1360.2360000000001

>  <r_sd_BIOSOLVEIT.INFINISEE\_FTREES\_SIMILARITY>  (1526) 
0.90200000000000002

>  <r_sd_BIOSOLVEIT.LOGP>  (1526) 
2.8140000000000001

>  <r_sd_BIOSOLVEIT.MOLECULAR\_WEIGHT>  (1526) 
414.59399999999999

>  <r_sd_BIOSOLVEIT.TPSA>  (1526) 
38.869999999999997

>  <i_epik_Tot_Q>  (1526) 
0

>  <i_epik_Tot_abs_Q>  (1526) 
0

>  <i_f3d_flags>  (1526) 
0

>  <i_i_glide_confnum>  (1526) 
5

>  <i_i_glide_lignum>  (1526) 
617

>  <i_i_glide_posenum>  (1526) 
6

>  <i_i_glide_rotatable_bonds>  (1526) 
10

>  <i_lp_mmshare_version>  (1526) 
65135

>  <i_m_ct_format>  (1526) 
2

>  <i_m_source_file_index>  (1526) 
2014

>  <i_qp_#NandO>  (1526) 
4

>  <i_qp_#acid>  (1526) 
0

>  <i_qp_#amide>  (1526) 
0

>  <i_qp_#amidine>  (1526) 
0

>  <i_qp_#amine>  (1526) 
2

>  <i_qp_#in34>  (1526) 
0

>  <i_qp_#in56>  (1526) 
21

>  <i_qp_#metab>  (1526) 
6

>  <i_qp_#nonHatm>  (1526) 
31

>  <i_qp_#noncon>  (1526) 
0

>  <i_qp_#ringatoms>  (1526) 
21

>  <i_qp_#rotor>  (1526) 
10

>  <i_qp_#rtvFG>  (1526) 
0

>  <i_qp_#stars>  (1526) 
0

>  <i_qp_CNS>  (1526) 
2

>  <i_qp_HumanOralAbsorption>  (1526) 
3

>  <i_qp_RuleOfFive>  (1526) 
0

>  <i_qp_RuleOfThree>  (1526) 
0

>  <i_sd_BIOSOLVEIT.INFINISEE\_REAGENT1\_NAME>  (1526) 
23855432

>  <i_sd_BIOSOLVEIT.INFINISEE\_REAGENT2\_NAME>  (1526) 
24720860

>  <i_sd_BIOSOLVEIT.INFINISEE\_RESULT\_RANK>  (1526) 
91688

>  <i_sd_version>  (1526) 
0

>  <b_lp_Chiralities_Consistent>  (1526) 
1

>  <b_sd_chiral_flag>  (1526) 
0

>  <canonical_id>  (1526) 
ATP-HTVS-F05D07B9382E

>  <compound_code>  (1526) 
64417

>  <title>  (1526) 
m_270004beb____23855432____24720860

>  <variant>  (1526) 
64417-5

>  <source_file>  (1526) 
运行/运行/ATP-VSW/ATP-VSW-DOCK_HTVS_1-001_lib/ATP-VSW-DOCK_HTVS_1-001_lib

>  <canonical_smiles>  (1526) 
CCN(CC)C[C@H](NCc1nc2ccccc2n1Cc1ccccc1)c1ccccc1

>  <scaffold>  (1526) 
c1ccc(CNCc2nc3ccccc3n2Cc2ccccc2)cc1

>  <molecular_formula>  (1526) 
C27H32N4

$$$$
ATP-HTVS-F084EE8F7246
     RDKit          3D

 50 52  0  0  0  0  0  0  0  0999 V2000
  197.3525  185.0910  153.8962 Cl  0  0  0  0  0  0  0  0  0  0  0  0
  197.1442  183.3788  153.7227 C   0  0  0  0  0  0  0  0  0  0  0  0
  197.2933  182.6839  154.8507 N   0  0  0  0  0  0  0  0  0  0  0  0
  197.0595  181.3642  154.8850 C   0  0  0  0  0  0  0  0  0  0  0  0
  197.1496  180.7162  156.1261 N   0  0  0  0  0  0  0  0  0  0  0  0
  197.7999  181.2769  157.3068 C   0  0  1  0  0  0  0  0  0  0  0  0
  197.4060  182.6871  157.7207 C   0  0  0  0  0  0  0  0  0  0  0  0
  196.1455  182.9386  158.2960 C   0  0  0  0  0  0  0  0  0  0  0  0
  195.7555  184.2617  158.5822 C   0  0  0  0  0  0  0  0  0  0  0  0
  196.6187  185.3363  158.2815 C   0  0  0  0  0  0  0  0  0  0  0  0
  197.8691  185.0851  157.6781 C   0  0  0  0  0  0  0  0  0  0  0  0
  198.2667  183.7643  157.4203 C   0  0  0  0  0  0  0  0  0  0  0  0
  196.2114  186.7648  158.5707 C   0  0  1  0  0  0  0  0  0  0  0  0
  196.5873  187.1361  159.9560 N   0  0  2  0  0  0  0  0  0  0  0  0
  195.6272  186.6456  160.9727 C   0  0  2  0  0  0  0  0  0  0  0  0
  196.8519  188.5829  160.1049 C   0  0  2  0  0  0  0  0  0  0  0  0
  196.7370  180.6575  153.7132 C   0  0  0  0  0  0  0  0  0  0  0  0
  196.6381  181.3536  152.4901 C   0  0  0  0  0  0  0  0  0  0  0  0
  196.3009  180.4694  151.0398 Cl  0  0  0  0  0  0  0  0  0  0  0  0
  196.8507  182.7549  152.4825 C   0  0  0  0  0  0  0  0  0  0  0  0
  196.7651  183.5653  151.2352 C   0  0  0  0  0  0  0  0  0  0  0  0
  195.7068  183.6686  150.6062 O   0  0  0  0  0  0  0  0  0  0  0  0
  198.0274  184.2155  150.7553 C   0  0  0  0  0  0  0  0  0  0  0  0
  197.9929  184.9796  149.5678 C   0  0  0  0  0  0  0  0  0  0  0  0
  199.1550  185.6199  149.0870 C   0  0  0  0  0  0  0  0  0  0  0  0
  200.3650  185.5227  149.7997 C   0  0  0  0  0  0  0  0  0  0  0  0
  200.4150  184.7718  150.9861 C   0  0  0  0  0  0  0  0  0  0  0  0
  199.2629  184.1087  151.4502 C   0  0  0  0  0  0  0  0  0  0  0  0
  196.6293  179.8607  156.3154 H   0  0  0  0  0  0  0  0  0  0  0  0
  197.5493  180.6136  158.1317 H   0  0  0  0  0  0  0  0  0  0  0  0
  198.8811  181.2162  157.1676 H   0  0  0  0  0  0  0  0  0  0  0  0
  195.4678  182.1160  158.4752 H   0  0  0  0  0  0  0  0  0  0  0  0
  194.7713  184.4428  158.9856 H   0  0  0  0  0  0  0  0  0  0  0  0
  198.5065  185.8968  157.3584 H   0  0  0  0  0  0  0  0  0  0  0  0
  199.1953  183.5769  156.9025 H   0  0  0  0  0  0  0  0  0  0  0  0
  196.7119  187.4176  157.8505 H   0  0  0  0  0  0  0  0  0  0  0  0
  195.1473  186.9049  158.4025 H   0  0  0  0  0  0  0  0  0  0  0  0
  194.6327  187.0608  160.8022 H   0  0  0  0  0  0  0  0  0  0  0  0
  195.9415  186.9346  161.9755 H   0  0  0  0  0  0  0  0  0  0  0  0
  195.5479  185.5587  160.9610 H   0  0  0  0  0  0  0  0  0  0  0  0
  195.9483  189.1617  159.9068 H   0  0  0  0  0  0  0  0  0  0  0  0
  197.6292  188.9065  159.4117 H   0  0  0  0  0  0  0  0  0  0  0  0
  197.1988  188.8153  161.1133 H   0  0  0  0  0  0  0  0  0  0  0  0
  196.5604  179.5930  153.7403 H   0  0  0  0  0  0  0  0  0  0  0  0
  197.0699  185.0768  149.0078 H   0  0  0  0  0  0  0  0  0  0  0  0
  199.1172  186.1881  148.1687 H   0  0  0  0  0  0  0  0  0  0  0  0
  201.2500  186.0220  149.4378 H   0  0  0  0  0  0  0  0  0  0  0  0
  201.3396  184.6998  151.5450 H   0  0  0  0  0  0  0  0  0  0  0  0
  199.3685  183.5368  152.3595 H   0  0  0  0  0  0  0  0  0  0  0  0
  197.4684  186.6720  160.1338 H   0  0  0  0  0  0  0  0  0  0  0  0
  1  2  1  0
  2  3  2  0
  2 20  1  0
  3  4  1  0
  4  5  1  0
  4 17  2  0
  5  6  1  0
  5 29  1  0
  6  7  1  0
  6 30  1  1
  6 31  1  0
  7  8  1  0
  7 12  2  0
  8  9  2  0
  8 32  1  0
  9 10  1  0
  9 33  1  0
 10 11  2  0
 10 13  1  0
 11 12  1  0
 11 34  1  0
 12 35  1  0
 13 14  1  0
 13 36  1  6
 13 37  1  0
 14 15  1  0
 14 16  1  0
 14 50  1  1
 15 38  1  6
 15 39  1  0
 15 40  1  0
 16 41  1  6
 16 42  1  0
 16 43  1  0
 17 18  1  0
 17 44  1  0
 18 19  1  0
 18 20  2  0
 20 21  1  0
 21 22  2  0
 21 23  1  0
 23 24  2  0
 23 28  1  0
 24 25  1  0
 24 45  1  0
 25 26  2  0
 25 46  1  0
 26 27  1  0
 26 47  1  0
 27 28  2  0
 27 48  1  0
 28 49  1  0
M  CHG  1  14   1
M  END
>  <s_epik_cmdline>  (1527) 
J2VwaWtfcHl0aG9uJywgJy1waCcsICc3LjAwMDAwMCcsICctcGh0JywgJzIuMDAwMDAwJywgJy1tcycsICcxNicsICctdG4nLCAnOCcsICctbWEnLCAnMjAwJywgJy1pbWFlJywgJzxpbmZpbGUubWFlPicsICctb21hZScsICc8b3V0ZmlsZS5tYWU+Jw==

>  <s_epik_input>  (1527) 
W0NIM11OKFtDSDNdKVtDSDJdYyhbY0hdW2NIXTEpW2NIXVtjSF1jMVtDSDJdW05IXWMobmMyQ2wpW2NIXWMoQ2wpYzJDKD1PKWMzW2NIXVtjSF1bY0hdW2NIXVtjSF0z

>  <s_i_glide_gridfile>  (1527) 
ATP-Grid

>  <s_lp_Force_Field>  (1527) 
OPLS_2005

>  <s_lp_Variant>  (1527) 
rxn102c____EMOL50415677____EMOL50155899-1

>  <s_lp_label>  (1527) 
2359_sdstereoexpander_1_neutralizer_1_epik_1_stereoizer_1

>  <s_m_source_file>  (1527) 
ATP-VSW-LIGPREP-002-in.maegz

>  <s_sd_BIOSOLVEIT.INFINISEE\_QUERY\_NAME>  (1527) 
Ref-Lig

>  <s_sd_BIOSOLVEIT.INFINISEE\_QUERY\_SMILES>  (1527) 
S(c1nc2c(cc1C[NH2+]Cc3ccc(cc3)C[NH+](C)C)cccc2)Cc4ccccc4

>  <s_sd_BIOSOLVEIT.INFINISEE\_REACTION\_NAME>  (1527) 
rxn102c

>  <s_sd_BIOSOLVEIT.INFINISEE\_REAGENT1\_NAME>  (1527) 
EMOL50415677

>  <s_sd_BIOSOLVEIT.INFINISEE\_REAGENT1\_SMILES>  (1527) 
Clc1nc(Cl)cc(Cl)c1C(=O)c2ccccc2

>  <s_sd_BIOSOLVEIT.INFINISEE\_REAGENT2\_NAME>  (1527) 
EMOL50155899

>  <s_sd_BIOSOLVEIT.INFINISEE\_REAGENT2\_SMILES>  (1527) 
N(Cc1ccc(cc1)CN)(C)C

>  <s_sd_BIOSOLVEIT.INFINISEE\_SPACE>  (1527) 
eXplore_7tr_2022-12

>  <s_vsw_compound_code>  (1527) 
75458

>  <s_vsw_variant>  (1527) 
75458-1

>  <r_epik_Charging_Adjusted_Penalty>  (1527) 
0.078407994868761793

>  <r_epik_Ionization_Penalty>  (1527) 
0.039199999999999999

>  <r_epik_Ionization_Penalty_Charging>  (1527) 
0.039199999999999999

>  <r_epik_Ionization_Penalty_Neutral>  (1527) 
0

>  <r_epik_State_Penalty>  (1527) 
0.039199999999999999

>  <r_i_docking_score>  (1527) 
-4.2549973893849202

>  <r_i_glide_ecoul>  (1527) 
-6.8079490661621103

>  <r_i_glide_eff_state_penalty>  (1527) 
0.039199999999999999

>  <r_i_glide_einternal>  (1527) 
3.0643494129180899

>  <r_i_glide_emodel>  (1527) 
-53.692543300753101

>  <r_i_glide_energy>  (1527) 
-41.379634857177699

>  <r_i_glide_erotb>  (1527) 
0.68679828612315597

>  <r_i_glide_esite>  (1527) 
-0.10000000000000001

>  <r_i_glide_evdw>  (1527) 
-34.571685791015597

>  <r_i_glide_gscore>  (1527) 
-4.2941973893849203

>  <r_i_glide_hbond>  (1527) 
-0.22465473647102999

>  <r_i_glide_ligand_efficiency>  (1527) 
-0.151964192478033

>  <r_i_glide_ligand_efficiency_ln>  (1527) 
-0.982178329622033

>  <r_i_glide_ligand_efficiency_sa>  (1527) 
-0.461452790486233

>  <r_i_glide_lipo>  (1527) 
-1.29698762888415

>  <r_i_glide_metal>  (1527) 
-0

>  <r_i_glide_rewards>  (1527) 
-0.60957666067779404

>  <r_lp_Energy>  (1527) 
21.966006

>  <r_qp_ACxDN^.5/SA>  (1527) 
0.0077711999999999998

>  <r_qp_CIQPlogS>  (1527) 
-5.4710000000000001

>  <r_qp_EA(eV)>  (1527) 
0.53600000000000003

>  <r_qp_FISA>  (1527) 
56.774000000000001

>  <r_qp_FOSA>  (1527) 
214.97200000000001

>  <r_qp_IP(eV)>  (1527) 
8.7750000000000004

>  <r_qp_Jm>  (1527) 
0.0042345846286128801

>  <r_qp_PISA>  (1527) 
333.88099999999997

>  <r_qp_PSA>  (1527) 
49.813000000000002

>  <r_qp_PercentHumanOralAbsorption>  (1527) 
100

>  <r_qp_QPPCaco>  (1527) 
715.17700000000002

>  <r_qp_QPPMDCK>  (1527) 
1381.1980000000001

>  <r_qp_QPlogBB>  (1527) 
0.20599999999999999

>  <r_qp_QPlogHERG>  (1527) 
-7.016

>  <r_qp_QPlogKhsa>  (1527) 
0.70899999999999996

>  <r_qp_QPlogKp>  (1527) 
-2.7799999999999998

>  <r_qp_QPlogPC16>  (1527) 
13.815

>  <r_qp_QPlogPo/w>  (1527) 
4.8540000000000001

>  <r_qp_QPlogPoct>  (1527) 
19.327999999999999

>  <r_qp_QPlogPw>  (1527) 
9.4529999999999994

>  <r_qp_QPlogS>  (1527) 
-5.21

>  <r_qp_QPpolrz>  (1527) 
43.652999999999999

>  <r_qp_SASA>  (1527) 
707.74099999999999

>  <r_qp_SAamideO>  (1527) 
0

>  <r_qp_SAfluorine>  (1527) 
0

>  <r_qp_WPSA>  (1527) 
102.11499999999999

>  <r_qp_accptHB>  (1527) 
5.5

>  <r_qp_dip^2/V>  (1527) 
0.021525200000000001

>  <r_qp_dipole>  (1527) 
5.2430000000000003

>  <r_qp_donorHB>  (1527) 
1

>  <r_qp_glob>  (1527) 
0.80437510000000001

>  <r_qp_mol_MW>  (1527) 
414.33300000000003

>  <r_qp_volume>  (1527) 
1277.1800000000001

>  <r_sd_BIOSOLVEIT.INFINISEE\_FTREES\_SIMILARITY>  (1527) 
0.92000000000000004

>  <r_sd_BIOSOLVEIT.LOGP>  (1527) 
3.8759999999999999

>  <r_sd_BIOSOLVEIT.MOLECULAR\_WEIGHT>  (1527) 
415.34199999999998

>  <r_sd_BIOSOLVEIT.TPSA>  (1527) 
46.43

>  <i_epik_Tot_Q>  (1527) 
1

>  <i_epik_Tot_abs_Q>  (1527) 
1

>  <i_f3d_flags>  (1527) 
0

>  <i_i_glide_confnum>  (1527) 
2

>  <i_i_glide_lignum>  (1527) 
963

>  <i_i_glide_posenum>  (1527) 
7

>  <i_i_glide_rotatable_bonds>  (1527) 
7

>  <i_lp_mmshare_version>  (1527) 
65135

>  <i_m_ct_format>  (1527) 
2

>  <i_m_source_file_index>  (1527) 
2359

>  <i_qp_#NandO>  (1527) 
4

>  <i_qp_#acid>  (1527) 
0

>  <i_qp_#amide>  (1527) 
0

>  <i_qp_#amidine>  (1527) 
0

>  <i_qp_#amine>  (1527) 
1

>  <i_qp_#in34>  (1527) 
0

>  <i_qp_#in56>  (1527) 
18

>  <i_qp_#metab>  (1527) 
3

>  <i_qp_#nonHatm>  (1527) 
28

>  <i_qp_#noncon>  (1527) 
0

>  <i_qp_#ringatoms>  (1527) 
18

>  <i_qp_#rotor>  (1527) 
7

>  <i_qp_#rtvFG>  (1527) 
0

>  <i_qp_#stars>  (1527) 
0

>  <i_qp_CNS>  (1527) 
1

>  <i_qp_HumanOralAbsorption>  (1527) 
3

>  <i_qp_RuleOfFive>  (1527) 
0

>  <i_qp_RuleOfThree>  (1527) 
0

>  <i_sd_BIOSOLVEIT.INFINISEE\_RESULT\_RANK>  (1527) 
16710

>  <i_sd_version>  (1527) 
0

>  <b_lp_Chiralities_Consistent>  (1527) 
1

>  <b_sd_chiral_flag>  (1527) 
0

>  <canonical_id>  (1527) 
ATP-HTVS-F084EE8F7246

>  <compound_code>  (1527) 
75458

>  <title>  (1527) 
rxn102c____EMOL50415677____EMOL50155899

>  <variant>  (1527) 
75458-1

>  <source_file>  (1527) 
运行/运行/ATP-VSW/ATP-VSW-DOCK_HTVS_1-002_lib.maegz

>  <canonical_smiles>  (1527) 
C[NH+](C)Cc1ccc(CNc2cc(Cl)c(C(=O)c3ccccc3)c(Cl)n2)cc1

>  <scaffold>  (1527) 
O=C(c1ccccc1)c1ccc(NCc2ccccc2)nc1

>  <molecular_formula>  (1527) 
C22H22Cl2N3O+

$$$$
ATP-HTVS-F08817EB9A7A
     RDKit          3D

 49 51  0  0  0  0  0  0  0  0999 V2000
  195.8604  184.2033  150.5326 O   0  0  0  0  0  0  0  0  0  0  0  0
  196.9060  183.6492  149.8486 C   0  0  0  0  0  0  0  0  0  0  0  0
  197.7039  182.6558  150.4628 C   0  0  0  0  0  0  0  0  0  0  0  0
  197.4263  182.1983  151.8325 C   0  0  0  0  0  0  0  0  0  0  0  0
  197.6153  183.0205  152.9609 C   0  0  0  0  0  0  0  0  0  0  0  0
  197.3724  182.5863  154.2171 N   0  0  0  0  0  0  0  0  0  0  0  0
  196.9493  181.3277  154.3458 C   0  0  0  0  0  0  0  0  0  0  0  0
  196.7448  180.4598  153.3587 N   0  0  0  0  0  0  0  0  0  0  0  0
  196.9830  180.8895  152.1046 C   0  0  0  0  0  0  0  0  0  0  0  0
  196.6560  180.8460  155.7562 C   0  0  1  0  0  0  0  0  0  0  0  0
  195.9636  181.8967  156.5335 N   0  0  1  0  0  0  0  0  0  0  0  0
  195.8360  181.6378  157.9781 C   0  0  1  0  0  0  0  0  0  0  0  0
  195.7241  182.9306  158.7432 C   0  0  0  0  0  0  0  0  0  0  0  0
  196.8828  183.5631  159.2320 C   0  0  0  0  0  0  0  0  0  0  0  0
  196.7717  184.7698  159.9522 C   0  0  0  0  0  0  0  0  0  0  0  0
  195.5075  185.3428  160.2014 C   0  0  0  0  0  0  0  0  0  0  0  0
  194.3521  184.6811  159.7345 C   0  0  0  0  0  0  0  0  0  0  0  0
  194.4577  183.4922  158.9921 C   0  0  0  0  0  0  0  0  0  0  0  0
  195.3988  186.6535  160.9698 C   0  0  1  0  0  0  0  0  0  0  0  0
  196.1300  187.8137  160.2751 C   0  0  1  0  0  0  0  0  0  0  0  0
  196.0990  189.1141  161.0890 C   0  0  2  0  0  0  0  0  0  0  0  0
  198.7661  182.0874  149.7228 C   0  0  0  0  0  0  0  0  0  0  0  0
  199.0322  182.4979  148.4021 C   0  0  0  0  0  0  0  0  0  0  0  0
  198.2308  183.4856  147.7996 C   0  0  0  0  0  0  0  0  0  0  0  0
  197.1684  184.0614  148.5237 C   0  0  0  0  0  0  0  0  0  0  0  0
  196.5041  182.7357  156.3829 H   0  0  0  0  0  0  0  0  0  0  0  0
  195.8202  183.9058  151.4310 H   0  0  0  0  0  0  0  0  0  0  0  0
  197.9719  184.0368  152.8552 H   0  0  0  0  0  0  0  0  0  0  0  0
  196.8249  180.1779  151.3063 H   0  0  0  0  0  0  0  0  0  0  0  0
  196.0695  179.9283  155.7198 H   0  0  0  0  0  0  0  0  0  0  0  0
  197.6075  180.6016  156.2324 H   0  0  0  0  0  0  0  0  0  0  0  0
  194.9491  181.0397  158.1731 H   0  0  0  0  0  0  0  0  0  0  0  0
  196.6951  181.0882  158.3676 H   0  0  0  0  0  0  0  0  0  0  0  0
  197.8604  183.1317  159.0687 H   0  0  0  0  0  0  0  0  0  0  0  0
  197.6650  185.2505  160.3246 H   0  0  0  0  0  0  0  0  0  0  0  0
  193.3710  185.0986  159.9176 H   0  0  0  0  0  0  0  0  0  0  0  0
  193.5611  183.0113  158.6226 H   0  0  0  0  0  0  0  0  0  0  0  0
  194.3490  186.9145  161.1093 H   0  0  0  0  0  0  0  0  0  0  0  0
  195.8076  186.5159  161.9685 H   0  0  0  0  0  0  0  0  0  0  0  0
  197.1756  187.5554  160.1045 H   0  0  0  0  0  0  0  0  0  0  0  0
  195.6884  187.9762  159.2908 H   0  0  0  0  0  0  0  0  0  0  0  0
  196.6223  189.9087  160.5580 H   0  0  0  0  0  0  0  0  0  0  0  0
  196.5980  188.9939  162.0509 H   0  0  0  0  0  0  0  0  0  0  0  0
  195.0776  189.4474  161.2740 H   0  0  0  0  0  0  0  0  0  0  0  0
  199.3847  181.3257  150.1739 H   0  0  0  0  0  0  0  0  0  0  0  0
  199.8499  182.0527  147.8527 H   0  0  0  0  0  0  0  0  0  0  0  0
  198.4266  183.7863  146.7807 H   0  0  0  0  0  0  0  0  0  0  0  0
  196.5413  184.8043  148.0471 H   0  0  0  0  0  0  0  0  0  0  0  0
  195.0296  182.0856  156.1406 H   0  0  0  0  0  0  0  0  0  0  0  0
  1  2  1  0
  1 27  1  0
  2  3  1  0
  2 25  2  0
  3  4  1  0
  3 22  2  0
  4  5  2  0
  4  9  1  0
  5  6  1  0
  5 28  1  0
  6  7  2  0
  7  8  1  0
  7 10  1  0
  8  9  2  0
  9 29  1  0
 10 11  1  0
 10 30  1  6
 10 31  1  0
 11 12  1  0
 11 26  1  1
 11 49  1  0
 12 13  1  0
 12 32  1  6
 12 33  1  0
 13 14  1  0
 13 18  2  0
 14 15  2  0
 14 34  1  0
 15 16  1  0
 15 35  1  0
 16 17  2  0
 16 19  1  0
 17 18  1  0
 17 36  1  0
 18 37  1  0
 19 20  1  0
 19 38  1  1
 19 39  1  0
 20 21  1  0
 20 40  1  6
 20 41  1  0
 21 42  1  6
 21 43  1  0
 21 44  1  0
 22 23  1  0
 22 45  1  0
 23 24  2  0
 23 46  1  0
 24 25  1  0
 24 47  1  0
 25 48  1  0
M  CHG  1  11   1
M  END
>  <s_epik_cmdline>  (1528) 
J2VwaWtfcHl0aG9uJywgJy1waCcsICc3LjAwMDAwMCcsICctcGh0JywgJzIuMDAwMDAwJywgJy1tcycsICcxNicsICctdG4nLCAnOCcsICctbWEnLCAnMjAwJywgJy1pbWFlJywgJzxpbmZpbGUubWFlPicsICctb21hZScsICc8b3V0ZmlsZS5tYWU+Jw==

>  <s_epik_input>  (1528) 
W2NIXTFbY0hdW2NIXVtjSF1jKGMxW09IXSktYzJbY0hdbmMobltjSF0yKVtDSDJdW05IXVtDSDJdYzNbY0hdW2NIXWMoW2NIXVtjSF0zKVtDSDJdW0NIMl1bQ0gzXQ==

>  <s_i_glide_gridfile>  (1528) 
ATP-Grid

>  <s_lp_Force_Field>  (1528) 
OPLS_2005

>  <s_lp_Variant>  (1528) 
WXDL_15E____QS1365____LN00190257____BT1646-1

>  <s_lp_label>  (1528) 
643_sdstereoexpander_1_neutralizer_1_epik_1_stereoizer_1

>  <s_m_source_file>  (1528) 
ATP-VSW-LIGPREP-002-in.maegz

>  <s_sd_BIOSOLVEIT.INFINISEE\_QUERY\_NAME>  (1528) 
Ref-Lig

>  <s_sd_BIOSOLVEIT.INFINISEE\_QUERY\_SMILES>  (1528) 
S(c1nc2c(cc1C[NH2+]Cc3ccc(cc3)C[NH+](C)C)cccc2)Cc4ccccc4

>  <s_sd_BIOSOLVEIT.INFINISEE\_REACTION\_NAME>  (1528) 
WXDL_15E

>  <s_sd_BIOSOLVEIT.INFINISEE\_REAGENT1\_NAME>  (1528) 
QS1365

>  <s_sd_BIOSOLVEIT.INFINISEE\_REAGENT1\_SMILES>  (1528) 
O=Cc1ccc(cc1)CCC

>  <s_sd_BIOSOLVEIT.INFINISEE\_REAGENT2\_NAME>  (1528) 
LN00190257

>  <s_sd_BIOSOLVEIT.INFINISEE\_REAGENT2\_SMILES>  (1528) 
Brc1cnc(nc1)CNC(=O)OC(C)(C)C

>  <s_sd_BIOSOLVEIT.INFINISEE\_REAGENT3\_NAME>  (1528) 
BT1646

>  <s_sd_BIOSOLVEIT.INFINISEE\_REAGENT3\_SMILES>  (1528) 
O1C(C(OB1c2c(O)cccc2)(C)C)(C)C

>  <s_sd_BIOSOLVEIT.INFINISEE\_SPACE>  (1528) 
GalaXi_12bn_2023-03

>  <s_vsw_compound_code>  (1528) 
20546

>  <s_vsw_variant>  (1528) 
20546-1

>  <r_epik_Charging_Adjusted_Penalty>  (1528) 
0.44758718563053002

>  <r_epik_Ionization_Penalty>  (1528) 
0.23319999999999999

>  <r_epik_Ionization_Penalty_Charging>  (1528) 
0.2261

>  <r_epik_Ionization_Penalty_Neutral>  (1528) 
0.0071000000000000004

>  <r_epik_State_Penalty>  (1528) 
0.2215

>  <r_i_docking_score>  (1528) 
-6.1343083906447404

>  <r_i_glide_ecoul>  (1528) 
-12.922212600708001

>  <r_i_glide_eff_state_penalty>  (1528) 
0.2215

>  <r_i_glide_einternal>  (1528) 
3.5008697509765598

>  <r_i_glide_emodel>  (1528) 
-68.273287833748299

>  <r_i_glide_energy>  (1528) 
-44.313341140747099

>  <r_i_glide_erotb>  (1528) 
1.0117689745127301

>  <r_i_glide_esite>  (1528) 
-0.123009297816412

>  <r_i_glide_evdw>  (1528) 
-31.391128540039102

>  <r_i_glide_gscore>  (1528) 
-6.3558083906447402

>  <r_i_glide_hbond>  (1528) 
-0.32482894584618099

>  <r_i_glide_ligand_efficiency>  (1528) 
-0.24537233562579

>  <r_i_glide_ligand_efficiency_ln>  (1528) 
-1.45401491897107

>  <r_i_glide_ligand_efficiency_sa>  (1528) 
-0.71747306106671005

>  <r_i_glide_lipo>  (1528) 
-2.2829968952958102

>  <r_i_glide_metal>  (1528) 
-0

>  <r_i_glide_rewards>  (1528) 
-1.12885390909091

>  <r_lp_Energy>  (1528) 
5.1242640000000002

>  <r_lp_tautomer_probability>  (1528) 
0.999999999997365

>  <r_qp_ACxDN^.5/SA>  (1528) 
0.0087238000000000003

>  <r_qp_CIQPlogS>  (1528) 
-4.2439999999999998

>  <r_qp_EA(eV)>  (1528) 
0.83799999999999997

>  <r_qp_FISA>  (1528) 
93.542000000000002

>  <r_qp_FOSA>  (1528) 
234.595

>  <r_qp_IP(eV)>  (1528) 
9.2129999999999992

>  <r_qp_Jm>  (1528) 
0.0045856465485843902

>  <r_qp_PISA>  (1528) 
360.82799999999997

>  <r_qp_PSA>  (1528) 
58.316000000000003

>  <r_qp_PercentHumanOralAbsorption>  (1528) 
95.221000000000004

>  <r_qp_QPPCaco>  (1528) 
320.43900000000002

>  <r_qp_QPPMDCK>  (1528) 
159.95500000000001

>  <r_qp_QPlogBB>  (1528) 
-0.52800000000000002

>  <r_qp_QPlogHERG>  (1528) 
-7.4299999999999997

>  <r_qp_QPlogKhsa>  (1528) 
0.59399999999999997

>  <r_qp_QPlogKp>  (1528) 
-3.2669999999999999

>  <r_qp_QPlogPC16>  (1528) 
12.94

>  <r_qp_QPlogPo/w>  (1528) 
4.0010000000000003

>  <r_qp_QPlogPoct>  (1528) 
18.010000000000002

>  <r_qp_QPlogPw>  (1528) 
9.8190000000000008

>  <r_qp_QPlogS>  (1528) 
-4.5949999999999998

>  <r_qp_QPpolrz>  (1528) 
39.637999999999998

>  <r_qp_SASA>  (1528) 
688.96400000000006

>  <r_qp_SAamideO>  (1528) 
0

>  <r_qp_SAfluorine>  (1528) 
0

>  <r_qp_WPSA>  (1528) 
0

>  <r_qp_accptHB>  (1528) 
4.25

>  <r_qp_dip^2/V>  (1528) 
0.0015026

>  <r_qp_dipole>  (1528) 
1.335

>  <r_qp_donorHB>  (1528) 
2

>  <r_qp_glob>  (1528) 
0.78669350000000005

>  <r_qp_mol_MW>  (1528) 
333.43200000000002

>  <r_qp_volume>  (1528) 
1186.4670000000001

>  <r_sd_BIOSOLVEIT.INFINISEE\_FTREES\_SIMILARITY>  (1528) 
0.90100000000000002

>  <r_sd_BIOSOLVEIT.LOGP>  (1528) 
3.0653000000000001

>  <r_sd_BIOSOLVEIT.MOLECULAR\_WEIGHT>  (1528) 
334.44099999999997

>  <r_sd_BIOSOLVEIT.TPSA>  (1528) 
62.619999999999997

>  <i_epik_Tot_Q>  (1528) 
1

>  <i_epik_Tot_abs_Q>  (1528) 
1

>  <i_f3d_flags>  (1528) 
0

>  <i_i_glide_confnum>  (1528) 
3

>  <i_i_glide_lignum>  (1528) 
196

>  <i_i_glide_posenum>  (1528) 
1

>  <i_i_glide_rotatable_bonds>  (1528) 
8

>  <i_lp_mmshare_version>  (1528) 
65135

>  <i_m_ct_format>  (1528) 
2

>  <i_m_source_file_index>  (1528) 
643

>  <i_qp_#NandO>  (1528) 
4

>  <i_qp_#acid>  (1528) 
0

>  <i_qp_#amide>  (1528) 
0

>  <i_qp_#amidine>  (1528) 
0

>  <i_qp_#amine>  (1528) 
1

>  <i_qp_#in34>  (1528) 
0

>  <i_qp_#in56>  (1528) 
18

>  <i_qp_#metab>  (1528) 
7

>  <i_qp_#nonHatm>  (1528) 
25

>  <i_qp_#noncon>  (1528) 
0

>  <i_qp_#ringatoms>  (1528) 
18

>  <i_qp_#rotor>  (1528) 
8

>  <i_qp_#rtvFG>  (1528) 
0

>  <i_qp_#stars>  (1528) 
0

>  <i_qp_CNS>  (1528) 
1

>  <i_qp_HumanOralAbsorption>  (1528) 
3

>  <i_qp_RuleOfFive>  (1528) 
0

>  <i_qp_RuleOfThree>  (1528) 
1

>  <i_sd_BIOSOLVEIT.INFINISEE\_RESULT\_RANK>  (1528) 
98410

>  <i_sd_version>  (1528) 
0

>  <b_lp_Chiralities_Consistent>  (1528) 
1

>  <b_sd_chiral_flag>  (1528) 
0

>  <canonical_id>  (1528) 
ATP-HTVS-F08817EB9A7A

>  <compound_code>  (1528) 
20546

>  <title>  (1528) 
WXDL_15E____QS1365____LN00190257____BT1646

>  <variant>  (1528) 
20546-1

>  <source_file>  (1528) 
运行/运行/ATP-VSW/ATP-VSW-DOCK_HTVS_1-002_lib.maegz

>  <canonical_smiles>  (1528) 
CCCc1ccc(C[NH2+]Cc2ncc(-c3ccccc3O)cn2)cc1

>  <scaffold>  (1528) 
c1ccc(C[NH2+]Cc2ncc(-c3ccccc3)cn2)cc1

>  <molecular_formula>  (1528) 
C21H24N3O+

$$$$
ATP-HTVS-F0989AC93CC9
     RDKit          3D

 62 65  0  0  0  0  0  0  0  0999 V2000
  201.6422  177.0888  155.7572 O   0  0  0  0  0  0  0  0  0  0  0  0
  200.8549  177.9157  156.2160 C   0  0  0  0  0  0  0  0  0  0  0  0
  199.8123  178.4321  155.5281 N   0  0  0  0  0  0  0  0  0  0  0  0
  199.5431  178.3927  154.1268 C   0  0  0  0  0  0  0  0  0  0  0  0
  198.5823  179.2999  153.5809 C   0  0  0  0  0  0  0  0  0  0  0  0
  197.9546  180.2558  154.3898 N   0  0  0  0  0  0  0  0  0  0  0  0
  198.8074  181.3627  154.7991 C   0  0  1  0  0  0  0  0  0  0  0  0
  198.1198  182.2801  155.7983 C   0  0  0  0  0  0  0  0  0  0  0  0
  197.1644  181.7908  156.7202 C   0  0  0  0  0  0  0  0  0  0  0  0
  196.5949  182.6402  157.6946 C   0  0  0  0  0  0  0  0  0  0  0  0
  196.9777  183.9971  157.7543 C   0  0  0  0  0  0  0  0  0  0  0  0
  197.9300  184.4845  156.8416 C   0  0  0  0  0  0  0  0  0  0  0  0
  198.4948  183.6339  155.8713 C   0  0  0  0  0  0  0  0  0  0  0  0
  195.5608  182.0963  158.6694 C   0  0  1  0  0  0  0  0  0  0  0  0
  194.1883  182.3052  158.1381 N   0  0  1  0  0  0  0  0  0  0  0  0
  193.3195  181.1185  158.2843 C   0  0  2  0  0  0  0  0  0  0  0  0
  193.5530  183.5377  158.6469 C   0  0  2  0  0  0  0  0  0  0  0  0
  198.2716  179.2359  152.1993 C   0  0  0  0  0  0  0  0  0  0  0  0
  198.9248  178.2733  151.3914 C   0  0  0  0  0  0  0  0  0  0  0  0
  199.8323  177.4396  151.9462 N   0  0  0  0  0  0  0  0  0  0  0  0
  200.1600  177.4621  153.2548 C   0  0  0  0  0  0  0  0  0  0  0  0
  198.6348  178.1746  150.0187 C   0  0  0  0  0  0  0  0  0  0  0  0
  197.6968  179.0477  149.4350 C   0  0  0  0  0  0  0  0  0  0  0  0
  197.0523  180.0174  150.2240 C   0  0  0  0  0  0  0  0  0  0  0  0
  197.3351  180.1158  151.5987 C   0  0  0  0  0  0  0  0  0  0  0  0
  201.0314  178.3973  157.6700 C   0  0  1  0  0  0  0  0  0  0  0  0
  201.4711  179.8656  157.7339 C   0  0  0  0  0  0  0  0  0  0  0  0
  200.5914  180.8787  157.3275 C   0  0  0  0  0  0  0  0  0  0  0  0
  200.9942  182.2327  157.3618 C   0  0  0  0  0  0  0  0  0  0  0  0
  202.2919  182.5769  157.7990 C   0  0  0  0  0  0  0  0  0  0  0  0
  203.1795  181.5787  158.2440 C   0  0  0  0  0  0  0  0  0  0  0  0
  202.7693  180.2209  158.2052 C   0  0  0  0  0  0  0  0  0  0  0  0
  199.2020  179.0418  156.0495 H   0  0  0  0  0  0  0  0  0  0  0  0
  197.0512  180.5786  154.0574 H   0  0  0  0  0  0  0  0  0  0  0  0
  199.6959  180.9851  155.2659 H   0  0  0  0  0  0  0  0  0  0  0  0
  199.0814  181.9511  153.8996 H   0  0  0  0  0  0  0  0  0  0  0  0
  196.9071  180.7387  156.7487 H   0  0  0  0  0  0  0  0  0  0  0  0
  196.5720  184.6557  158.5148 H   0  0  0  0  0  0  0  0  0  0  0  0
  198.2679  185.5104  156.9189 H   0  0  0  0  0  0  0  0  0  0  0  0
  199.2265  184.0238  155.1860 H   0  0  0  0  0  0  0  0  0  0  0  0
  195.7599  181.0460  158.8451 H   0  0  0  0  0  0  0  0  0  0  0  0
  195.6713  182.5651  159.6560 H   0  0  0  0  0  0  0  0  0  0  0  0
  193.1775  180.8754  159.3329 H   0  0  0  0  0  0  0  0  0  0  0  0
  193.7520  180.2434  157.8025 H   0  0  0  0  0  0  0  0  0  0  0  0
  192.3390  181.2878  157.8377 H   0  0  0  0  0  0  0  0  0  0  0  0
  193.4131  183.4989  159.7269 H   0  0  0  0  0  0  0  0  0  0  0  0
  192.5749  183.6655  158.1890 H   0  0  0  0  0  0  0  0  0  0  0  0
  194.1521  184.4238  158.4288 H   0  0  0  0  0  0  0  0  0  0  0  0
  200.8908  176.7175  153.5442 H   0  0  0  0  0  0  0  0  0  0  0  0
  199.1299  177.4389  149.4002 H   0  0  0  0  0  0  0  0  0  0  0  0
  197.4839  178.9793  148.3793 H   0  0  0  0  0  0  0  0  0  0  0  0
  196.3456  180.6970  149.7695 H   0  0  0  0  0  0  0  0  0  0  0  0
  196.8275  180.8788  152.1723 H   0  0  0  0  0  0  0  0  0  0  0  0
  200.0770  178.2786  158.1920 H   0  0  0  0  0  0  0  0  0  0  0  0
  201.7614  177.7562  158.1751 H   0  0  0  0  0  0  0  0  0  0  0  0
  199.5970  180.6265  157.0005 H   0  0  0  0  0  0  0  0  0  0  0  0
  200.3418  183.0265  157.0219 H   0  0  0  0  0  0  0  0  0  0  0  0
  202.5701  183.6225  157.7876 H   0  0  0  0  0  0  0  0  0  0  0  0
  204.1525  181.8601  158.6236 H   0  0  0  0  0  0  0  0  0  0  0  0
  203.4664  179.4413  158.5199 H   0  0  0  0  0  0  0  0  0  0  0  0
  200.2874  176.7501  151.3484 H   0  0  0  0  0  0  0  0  0  0  0  0
  194.2525  182.4387  157.1238 H   0  0  0  0  0  0  0  0  0  0  0  0
  1  2  2  0
  2  3  1  0
  2 26  1  0
  3  4  1  0
  3 33  1  0
  4  5  2  0
  4 21  1  0
  5  6  1  0
  5 18  1  0
  6  7  1  0
  6 34  1  0
  7  8  1  0
  7 35  1  1
  7 36  1  0
  8  9  2  0
  8 13  1  0
  9 10  1  0
  9 37  1  0
 10 11  2  0
 10 14  1  0
 11 12  1  0
 11 38  1  0
 12 13  2  0
 12 39  1  0
 13 40  1  0
 14 15  1  0
 14 41  1  1
 14 42  1  0
 15 16  1  0
 15 17  1  0
 15 62  1  6
 16 43  1  1
 16 44  1  0
 16 45  1  0
 17 46  1  1
 17 47  1  0
 17 48  1  0
 18 19  1  0
 18 25  2  0
 19 20  1  0
 19 22  2  0
 20 21  2  0
 20 61  1  0
 21 49  1  0
 22 23  1  0
 22 50  1  0
 23 24  2  0
 23 51  1  0
 24 25  1  0
 24 52  1  0
 25 53  1  0
 26 27  1  0
 26 54  1  1
 26 55  1  0
 27 28  2  0
 27 32  1  0
 28 29  1  0
 28 56  1  0
 29 30  2  0
 29 57  1  0
 30 31  1  0
 30 58  1  0
 31 32  2  0
 31 59  1  0
 32 60  1  0
M  CHG  2  15   1  20   1
M  END
>  <s_epik_cmdline>  (1529) 
J2VwaWtfcHl0aG9uJywgJy1waCcsICc3LjAwMDAwMCcsICctcGh0JywgJzIuMDAwMDAwJywgJy1tcycsICcxNicsICctdG4nLCAnOCcsICctbWEnLCAnMjAwJywgJy1pbWFlJywgJzxpbmZpbGUubWFlPicsICctb21hZScsICc8b3V0ZmlsZS5tYWU+Jw==

>  <s_epik_input>  (1529) 
W2NIXTFbY0hdW2NIXVtjSF1bY0hdYzFbQ0gyXUMoPU8pW05IXWMoW2NIXW5jKGMyMylbY0hdW2NIXVtjSF1bY0hdMyljMltOSF1bQ0gyXWM0W2NIXWMoW2NIXVtjSF1bY0hdNClbQ0gyXU4oW0NIM10pW0NIM10=

>  <s_i_glide_gridfile>  (1529) 
ATP-Grid

>  <s_lp_Force_Field>  (1529) 
OPLS_2005

>  <s_lp_Variant>  (1529) 
rxn502b____EMOL530620____EMOL30488121____EMOL2873214-1

>  <s_lp_label>  (1529) 
2156_sdstereoexpander_1_neutralizer_1_epik_1_stereoizer_1

>  <s_m_source_file>  (1529) 
ATP-VSW-LIGPREP-002-in.maegz

>  <s_sd_BIOSOLVEIT.INFINISEE\_QUERY\_NAME>  (1529) 
Ref-Lig

>  <s_sd_BIOSOLVEIT.INFINISEE\_QUERY\_SMILES>  (1529) 
S(c1nc2c(cc1C[NH2+]Cc3ccc(cc3)C[NH+](C)C)cccc2)Cc4ccccc4

>  <s_sd_BIOSOLVEIT.INFINISEE\_REACTION\_NAME>  (1529) 
rxn502b

>  <s_sd_BIOSOLVEIT.INFINISEE\_REAGENT1\_NAME>  (1529) 
EMOL530620

>  <s_sd_BIOSOLVEIT.INFINISEE\_REAGENT1\_SMILES>  (1529) 
ClC(=O)Cc1ccccc1

>  <s_sd_BIOSOLVEIT.INFINISEE\_REAGENT2\_NAME>  (1529) 
EMOL30488121

>  <s_sd_BIOSOLVEIT.INFINISEE\_REAGENT2\_SMILES>  (1529) 
Brc1c(N)cnc2c1cccc2

>  <s_sd_BIOSOLVEIT.INFINISEE\_REAGENT3\_NAME>  (1529) 
EMOL2873214

>  <s_sd_BIOSOLVEIT.INFINISEE\_REAGENT3\_SMILES>  (1529) 
N(Cc1cc(ccc1)CN)(C)C

>  <s_sd_BIOSOLVEIT.INFINISEE\_SPACE>  (1529) 
eXplore_7tr_2022-12

>  <s_vsw_compound_code>  (1529) 
68962

>  <s_vsw_variant>  (1529) 
68962-1

>  <r_epik_Charging_Adjusted_Penalty>  (1529) 
0.147232245651675

>  <r_epik_Ionization_Penalty>  (1529) 
0.073599999999999999

>  <r_epik_Ionization_Penalty_Charging>  (1529) 
0.073599999999999999

>  <r_epik_Ionization_Penalty_Neutral>  (1529) 
0

>  <r_epik_State_Penalty>  (1529) 
0.073599999999999999

>  <r_i_docking_score>  (1529) 
-4.1568486502133304

>  <r_i_glide_ecoul>  (1529) 
-12.566795349121101

>  <r_i_glide_eff_state_penalty>  (1529) 
0.073599999999999999

>  <r_i_glide_einternal>  (1529) 
3.9764759540557901

>  <r_i_glide_emodel>  (1529) 
-59.0926871514379

>  <r_i_glide_energy>  (1529) 
-43.512729644775398

>  <r_i_glide_erotb>  (1529) 
0.76356933587939702

>  <r_i_glide_esite>  (1529) 
-0.165189547061801

>  <r_i_glide_evdw>  (1529) 
-30.9459342956543

>  <r_i_glide_gscore>  (1529) 
-4.2304486502133303

>  <r_i_glide_hbond>  (1529) 
-0.20000000000000001

>  <r_i_glide_ligand_efficiency>  (1529) 
-0.12990152031916599

>  <r_i_glide_ligand_efficiency_ln>  (1529) 
-0.93083172419740601

>  <r_i_glide_ligand_efficiency_sa>  (1529) 
-0.41241161953738997

>  <r_i_glide_lipo>  (1529) 
-0.65543738887435998

>  <r_i_glide_metal>  (1529) 
-0

>  <r_i_glide_rewards>  (1529) 
-0.54107503300568505

>  <r_lp_Energy>  (1529) 
35.688577000000002

>  <r_qp_ACxDN^.5/SA>  (1529) 
0.013164500000000001

>  <r_qp_CIQPlogS>  (1529) 
-5.4640000000000004

>  <r_qp_EA(eV)>  (1529) 
0.97799999999999998

>  <r_qp_FISA>  (1529) 
66.201999999999998

>  <r_qp_FOSA>  (1529) 
205.06899999999999

>  <r_qp_IP(eV)>  (1529) 
8.5530000000000008

>  <r_qp_Jm>  (1529) 
0.11512045840245

>  <r_qp_PISA>  (1529) 
426.99799999999999

>  <r_qp_PSA>  (1529) 
61.744

>  <r_qp_PercentHumanOralAbsorption>  (1529) 
100

>  <r_qp_QPPCaco>  (1529) 
582.10699999999997

>  <r_qp_QPPMDCK>  (1529) 
304.94799999999998

>  <r_qp_QPlogBB>  (1529) 
-0.13300000000000001

>  <r_qp_QPlogHERG>  (1529) 
-6.7469999999999999

>  <r_qp_QPlogKhsa>  (1529) 
0.67700000000000005

>  <r_qp_QPlogKp>  (1529) 
-2.5299999999999998

>  <r_qp_QPlogPC16>  (1529) 
14.69

>  <r_qp_QPlogPo/w>  (1529) 
4.4740000000000002

>  <r_qp_QPlogPoct>  (1529) 
22.751000000000001

>  <r_qp_QPlogPw>  (1529) 
12.321

>  <r_qp_QPlogS>  (1529) 
-4.0369999999999999

>  <r_qp_QPpolrz>  (1529) 
47.049999999999997

>  <r_qp_SASA>  (1529) 
698.26900000000001

>  <r_qp_SAamideO>  (1529) 
0

>  <r_qp_SAfluorine>  (1529) 
0

>  <r_qp_WPSA>  (1529) 
0

>  <r_qp_accptHB>  (1529) 
6.5

>  <r_qp_dip^2/V>  (1529) 
0.048216299999999997

>  <r_qp_dipole>  (1529) 
8.0860000000000003

>  <r_qp_donorHB>  (1529) 
2

>  <r_qp_glob>  (1529) 
0.84845119999999996

>  <r_qp_mol_MW>  (1529) 
424.54399999999998

>  <r_qp_volume>  (1529) 
1355.8979999999999

>  <r_sd_BIOSOLVEIT.INFINISEE\_FTREES\_SIMILARITY>  (1529) 
0.94499999999999995

>  <r_sd_BIOSOLVEIT.LOGP>  (1529) 
3.6726000000000001

>  <r_sd_BIOSOLVEIT.MOLECULAR\_WEIGHT>  (1529) 
425.553

>  <r_sd_BIOSOLVEIT.TPSA>  (1529) 
58.460000000000001

>  <i_epik_Tot_Q>  (1529) 
2

>  <i_epik_Tot_abs_Q>  (1529) 
2

>  <i_f3d_flags>  (1529) 
0

>  <i_i_glide_confnum>  (1529) 
3

>  <i_i_glide_lignum>  (1529) 
791

>  <i_i_glide_posenum>  (1529) 
1

>  <i_i_glide_rotatable_bonds>  (1529) 
9

>  <i_lp_mmshare_version>  (1529) 
65135

>  <i_m_ct_format>  (1529) 
2

>  <i_m_source_file_index>  (1529) 
2156

>  <i_qp_#NandO>  (1529) 
5

>  <i_qp_#acid>  (1529) 
0

>  <i_qp_#amide>  (1529) 
0

>  <i_qp_#amidine>  (1529) 
0

>  <i_qp_#amine>  (1529) 
1

>  <i_qp_#in34>  (1529) 
0

>  <i_qp_#in56>  (1529) 
22

>  <i_qp_#metab>  (1529) 
7

>  <i_qp_#nonHatm>  (1529) 
32

>  <i_qp_#noncon>  (1529) 
0

>  <i_qp_#ringatoms>  (1529) 
22

>  <i_qp_#rotor>  (1529) 
8

>  <i_qp_#rtvFG>  (1529) 
0

>  <i_qp_#stars>  (1529) 
0

>  <i_qp_CNS>  (1529) 
1

>  <i_qp_HumanOralAbsorption>  (1529) 
3

>  <i_qp_RuleOfFive>  (1529) 
0

>  <i_qp_RuleOfThree>  (1529) 
1

>  <i_sd_BIOSOLVEIT.INFINISEE\_RESULT\_RANK>  (1529) 
567

>  <i_sd_version>  (1529) 
0

>  <b_lp_Chiralities_Consistent>  (1529) 
1

>  <b_sd_chiral_flag>  (1529) 
0

>  <canonical_id>  (1529) 
ATP-HTVS-F0989AC93CC9

>  <compound_code>  (1529) 
68962

>  <title>  (1529) 
rxn502b____EMOL530620____EMOL30488121____EMOL2873214

>  <variant>  (1529) 
68962-1

>  <source_file>  (1529) 
运行/运行/ATP-VSW/ATP-VSW-DOCK_HTVS_1-002_lib.maegz

>  <canonical_smiles>  (1529) 
C[NH+](C)Cc1cccc(CNc2c(NC(=O)Cc3ccccc3)c[nH+]c3ccccc23)c1

>  <scaffold>  (1529) 
O=C(Cc1ccccc1)Nc1c[nH+]c2ccccc2c1NCc1ccccc1

>  <molecular_formula>  (1529) 
C27H30N4O+2

$$$$
ATP-HTVS-F0AA189EB18F
     RDKit          3D

 60 63  0  0  0  0  0  0  0  0999 V2000
  200.1899  184.7014  159.8544 O   0  0  0  0  0  0  0  0  0  0  0  0
  200.4040  183.8113  159.0293 C   0  0  0  0  0  0  0  0  0  0  0  0
  199.7054  183.6947  157.8686 N   0  0  0  0  0  0  0  0  0  0  0  0
  200.0087  182.7106  156.9150 C   0  0  0  0  0  0  0  0  0  0  0  0
  200.9635  181.7697  157.0903 C   0  0  0  0  0  0  0  0  0  0  0  0
  201.7644  181.7641  158.3434 C   0  0  0  0  0  0  0  0  0  0  0  0
  201.4827  182.7842  159.2940 C   0  0  0  0  0  0  0  0  0  0  0  0
  202.2057  182.8298  160.5090 C   0  0  0  0  0  0  0  0  0  0  0  0
  203.1982  181.8767  160.7903 C   0  0  0  0  0  0  0  0  0  0  0  0
  203.4653  180.8544  159.8657 C   0  0  0  0  0  0  0  0  0  0  0  0
  202.7473  180.7887  158.6591 C   0  0  0  0  0  0  0  0  0  0  0  0
  201.3020  180.8579  155.9921 C   0  0  0  0  0  0  0  0  0  0  0  0
  202.4512  180.5411  155.6807 O   0  0  0  0  0  0  0  0  0  0  0  0
  200.2039  180.4244  155.3413 N   0  0  0  0  0  0  0  0  0  0  0  0
  200.1006  179.7194  154.1112 C   0  0  0  0  0  0  0  0  0  0  0  0
  198.8273  179.6867  153.5028 C   0  0  0  0  0  0  0  0  0  0  0  0
  198.6407  179.0304  152.2722 C   0  0  0  0  0  0  0  0  0  0  0  0
  199.7283  178.3920  151.6432 C   0  0  0  0  0  0  0  0  0  0  0  0
  201.0020  178.4190  152.2450 C   0  0  0  0  0  0  0  0  0  0  0  0
  201.1907  179.0710  153.4740 C   0  0  0  0  0  0  0  0  0  0  0  0
  199.5461  177.6953  150.3161 C   0  0  1  0  0  0  0  0  0  0  0  0
  199.6449  176.1552  150.4375 C   0  0  1  0  0  0  0  0  0  0  0  0
  199.5914  175.4498  149.1288 N   0  0  1  0  0  0  0  0  0  0  0  0
  198.3716  175.7466  148.3451 C   0  0  2  0  0  0  0  0  0  0  0  0
  200.8266  175.6105  148.3306 C   0  0  2  0  0  0  0  0  0  0  0  0
  198.6153  184.6330  157.5559 C   0  0  1  0  0  0  0  0  0  0  0  0
  197.2551  184.1736  158.0639 C   0  0  0  0  0  0  0  0  0  0  0  0
  196.8027  182.8568  157.8223 C   0  0  0  0  0  0  0  0  0  0  0  0
  195.5416  182.4422  158.2841 C   0  0  0  0  0  0  0  0  0  0  0  0
  194.7157  183.3462  158.9787 C   0  0  0  0  0  0  0  0  0  0  0  0
  195.1586  184.6593  159.2256 C   0  0  0  0  0  0  0  0  0  0  0  0
  196.4231  185.0764  158.7639 C   0  0  0  0  0  0  0  0  0  0  0  0
  199.4243  182.8022  156.0099 H   0  0  0  0  0  0  0  0  0  0  0  0
  201.9991  183.6013  161.2365 H   0  0  0  0  0  0  0  0  0  0  0  0
  203.7433  181.9228  161.7224 H   0  0  0  0  0  0  0  0  0  0  0  0
  204.2166  180.1122  160.0842 H   0  0  0  0  0  0  0  0  0  0  0  0
  202.9776  179.9709  157.9933 H   0  0  0  0  0  0  0  0  0  0  0  0
  199.3242  180.7398  155.7278 H   0  0  0  0  0  0  0  0  0  0  0  0
  197.9822  180.1789  153.9633 H   0  0  0  0  0  0  0  0  0  0  0  0
  197.6637  179.0288  151.8104 H   0  0  0  0  0  0  0  0  0  0  0  0
  201.8441  177.9474  151.7598 H   0  0  0  0  0  0  0  0  0  0  0  0
  202.1853  179.0542  153.8929 H   0  0  0  0  0  0  0  0  0  0  0  0
  198.5730  177.9977  149.9201 H   0  0  0  0  0  0  0  0  0  0  0  0
  200.3021  178.0903  149.6386 H   0  0  0  0  0  0  0  0  0  0  0  0
  200.5732  175.8742  150.9453 H   0  0  0  0  0  0  0  0  0  0  0  0
  198.8443  175.7859  151.0822 H   0  0  0  0  0  0  0  0  0  0  0  0
  198.3043  176.7944  148.0442 H   0  0  0  0  0  0  0  0  0  0  0  0
  197.4969  175.5063  148.9431 H   0  0  0  0  0  0  0  0  0  0  0  0
  198.3395  175.1389  147.4381 H   0  0  0  0  0  0  0  0  0  0  0  0
  200.9888  176.6475  148.0292 H   0  0  0  0  0  0  0  0  0  0  0  0
  200.7730  175.0061  147.4247 H   0  0  0  0  0  0  0  0  0  0  0  0
  201.6992  175.2783  148.8952 H   0  0  0  0  0  0  0  0  0  0  0  0
  198.8368  185.6315  157.9411 H   0  0  0  0  0  0  0  0  0  0  0  0
  198.5443  184.7744  156.4762 H   0  0  0  0  0  0  0  0  0  0  0  0
  197.4024  182.1446  157.2762 H   0  0  0  0  0  0  0  0  0  0  0  0
  195.2013  181.4369  158.0825 H   0  0  0  0  0  0  0  0  0  0  0  0
  193.7398  183.0297  159.3158 H   0  0  0  0  0  0  0  0  0  0  0  0
  194.5165  185.3529  159.7478 H   0  0  0  0  0  0  0  0  0  0  0  0
  196.7495  186.0908  158.9450 H   0  0  0  0  0  0  0  0  0  0  0  0
  199.5447  174.4598  149.3506 H   0  0  0  0  0  0  0  0  0  0  0  0
  1  2  2  0
  2  3  1  0
  2  7  1  0
  3  4  1  0
  3 26  1  0
  4  5  2  0
  4 33  1  0
  5  6  1  0
  5 12  1  0
  6  7  1  0
  6 11  2  0
  7  8  2  0
  8  9  1  0
  8 34  1  0
  9 10  2  0
  9 35  1  0
 10 11  1  0
 10 36  1  0
 11 37  1  0
 12 13  2  0
 12 14  1  0
 14 15  1  0
 14 38  1  0
 15 16  1  0
 15 20  2  0
 16 17  2  0
 16 39  1  0
 17 18  1  0
 17 40  1  0
 18 19  2  0
 18 21  1  0
 19 20  1  0
 19 41  1  0
 20 42  1  0
 21 22  1  0
 21 43  1  6
 21 44  1  0
 22 23  1  0
 22 45  1  1
 22 46  1  0
 23 24  1  0
 23 25  1  0
 23 60  1  1
 24 47  1  6
 24 48  1  0
 24 49  1  0
 25 50  1  6
 25 51  1  0
 25 52  1  0
 26 27  1  0
 26 53  1  1
 26 54  1  0
 27 28  2  0
 27 32  1  0
 28 29  1  0
 28 55  1  0
 29 30  2  0
 29 56  1  0
 30 31  1  0
 30 57  1  0
 31 32  2  0
 31 58  1  0
 32 59  1  0
M  CHG  1  23   1
M  END
>  <s_epik_cmdline>  (1530) 
J2VwaWtfcHl0aG9uJywgJy1waCcsICc3LjAwMDAwMCcsICctcGh0JywgJzIuMDAwMDAwJywgJy1tcycsICcxNicsICctdG4nLCAnOCcsICctbWEnLCAnMjAwJywgJy1pbWFlJywgJzxpbmZpbGUubWFlPicsICctb21hZScsICc8b3V0ZmlsZS5tYWU+Jw==

>  <s_epik_input>  (1530) 
W2NIXTFbY0hdW2NIXVtjSF1bY0hdYzFbQ0gyXW4oYyg9TyljKGMyMylbY0hdW2NIXVtjSF1bY0hdMylbY0hdYzJDKD1PKVtOSF1jNFtjSF1bY0hdYyhbY0hdW2NIXTQpW0NIMl1bQ0gyXU4oW0NIM10pW0NIM10=

>  <s_i_glide_gridfile>  (1530) 
ATP-Grid

>  <s_lp_Force_Field>  (1530) 
OPLS_2005

>  <s_lp_Variant>  (1530) 
a1____95059____409552-1

>  <s_lp_label>  (1530) 
213_sdstereoexpander_1_neutralizer_1_epik_1_stereoizer_1

>  <s_m_source_file>  (1530) 
ATP-VSW-LIGPREP-001-in.maegz

>  <s_sd_BIOSOLVEIT.INFINISEE\_QUERY\_NAME>  (1530) 
Ref-Lig

>  <s_sd_BIOSOLVEIT.INFINISEE\_QUERY\_SMILES>  (1530) 
S(c1nc2c(cc1C[NH2+]Cc3ccc(cc3)C[NH+](C)C)cccc2)Cc4ccccc4

>  <s_sd_BIOSOLVEIT.INFINISEE\_REACTION\_NAME>  (1530) 
a1

>  <s_sd_BIOSOLVEIT.INFINISEE\_REAGENT1\_SMILES>  (1530) 
[R1*]Nc1ccc(cc1)CCN(C)C

>  <s_sd_BIOSOLVEIT.INFINISEE\_REAGENT2\_SMILES>  (1530) 
[R1*]C(=O)C=1c2c(cccc2)C(=O)N(C1)Cc3ccccc3

>  <s_sd_BIOSOLVEIT.INFINISEE\_SPACE>  (1530) 
FreedomSpace_5bn_2023-06

>  <s_vsw_compound_code>  (1530) 
6785

>  <s_vsw_variant>  (1530) 
6785-1

>  <r_epik_Charging_Adjusted_Penalty>  (1530) 
0.0083786239481878303

>  <r_epik_Ionization_Penalty>  (1530) 
0.0041999999999999997

>  <r_epik_Ionization_Penalty_Charging>  (1530) 
0.0041999999999999997

>  <r_epik_Ionization_Penalty_Neutral>  (1530) 
0

>  <r_epik_State_Penalty>  (1530) 
0.0041999999999999997

>  <r_i_docking_score>  (1530) 
-3.8517782599376802

>  <r_i_glide_ecoul>  (1530) 
-5.9546375274658203

>  <r_i_glide_eff_state_penalty>  (1530) 
0.0041999999999999997

>  <r_i_glide_einternal>  (1530) 
2.4603857994079599

>  <r_i_glide_emodel>  (1530) 
-48.642793364177003

>  <r_i_glide_energy>  (1530) 
-37.2816486358643

>  <r_i_glide_erotb>  (1530) 
0.76364444970831602

>  <r_i_glide_esite>  (1530) 
-0.0030693452232029498

>  <r_i_glide_evdw>  (1530) 
-31.327011108398398

>  <r_i_glide_gscore>  (1530) 
-3.8559782599376802

>  <r_i_glide_hbond>  (1530) 
0

>  <r_i_glide_ligand_efficiency>  (1530) 
-0.12036807062305301

>  <r_i_glide_ligand_efficiency_ln>  (1530) 
-0.86251814790992598

>  <r_i_glide_ligand_efficiency_sa>  (1530) 
-0.38214480341936102

>  <r_i_glide_lipo>  (1530) 
-1.6560761798829999

>  <r_i_glide_metal>  (1530) 
-0

>  <r_i_glide_rewards>  (1530) 
-0.50093099999999802

>  <r_lp_Energy>  (1530) 
44.387262

>  <r_qp_ACxDN^.5/SA>  (1530) 
0.0093965999999999997

>  <r_qp_CIQPlogS>  (1530) 
-5.1280000000000001

>  <r_qp_EA(eV)>  (1530) 
0.755

>  <r_qp_FISA>  (1530) 
72.373000000000005

>  <r_qp_FOSA>  (1530) 
243.63800000000001

>  <r_qp_IP(eV)>  (1530) 
8.8260000000000005

>  <r_qp_Jm>  (1530) 
0.0030872610479001699

>  <r_qp_PISA>  (1530) 
482.15100000000001

>  <r_qp_PSA>  (1530) 
65.838999999999999

>  <r_qp_PercentHumanOralAbsorption>  (1530) 
100

>  <r_qp_QPPCaco>  (1530) 
508.726

>  <r_qp_QPPMDCK>  (1530) 
263.61700000000002

>  <r_qp_QPlogBB>  (1530) 
-0.27700000000000002

>  <r_qp_QPlogHERG>  (1530) 
-8.3030000000000008

>  <r_qp_QPlogKhsa>  (1530) 
0.68400000000000005

>  <r_qp_QPlogKp>  (1530) 
-2.5449999999999999

>  <r_qp_QPlogPC16>  (1530) 
15.827999999999999

>  <r_qp_QPlogPo/w>  (1530) 
4.6159999999999997

>  <r_qp_QPlogPoct>  (1530) 
22.695

>  <r_qp_QPlogPw>  (1530) 
12.720000000000001

>  <r_qp_QPlogS>  (1530) 
-5.5940000000000003

>  <r_qp_QPpolrz>  (1530) 
51.125999999999998

>  <r_qp_SASA>  (1530) 
798.16200000000003

>  <r_qp_SAamideO>  (1530) 
0

>  <r_qp_SAfluorine>  (1530) 
0

>  <r_qp_WPSA>  (1530) 
0

>  <r_qp_accptHB>  (1530) 
7.5

>  <r_qp_dip^2/V>  (1530) 
0.0202343

>  <r_qp_dipole>  (1530) 
5.3760000000000003

>  <r_qp_donorHB>  (1530) 
1

>  <r_qp_glob>  (1530) 
0.76854239999999996

>  <r_qp_mol_MW>  (1530) 
425.529

>  <r_qp_volume>  (1530) 
1428.5360000000001

>  <r_sd_BIOSOLVEIT.INFINISEE\_FTREES\_SIMILARITY>  (1530) 
0.92000000000000004

>  <r_sd_BIOSOLVEIT.LOGP>  (1530) 
2.9891000000000001

>  <r_sd_BIOSOLVEIT.MOLECULAR\_WEIGHT>  (1530) 
426.53699999999998

>  <r_sd_BIOSOLVEIT.TPSA>  (1530) 
55.539999999999999

>  <i_epik_Tot_Q>  (1530) 
1

>  <i_epik_Tot_abs_Q>  (1530) 
1

>  <i_f3d_flags>  (1530) 
0

>  <i_i_glide_confnum>  (1530) 
2

>  <i_i_glide_lignum>  (1530) 
47

>  <i_i_glide_posenum>  (1530) 
20

>  <i_i_glide_rotatable_bonds>  (1530) 
8

>  <i_lp_mmshare_version>  (1530) 
65135

>  <i_m_ct_format>  (1530) 
2

>  <i_m_source_file_index>  (1530) 
213

>  <i_qp_#NandO>  (1530) 
5

>  <i_qp_#acid>  (1530) 
0

>  <i_qp_#amide>  (1530) 
0

>  <i_qp_#amidine>  (1530) 
0

>  <i_qp_#amine>  (1530) 
1

>  <i_qp_#in34>  (1530) 
0

>  <i_qp_#in56>  (1530) 
22

>  <i_qp_#metab>  (1530) 
3

>  <i_qp_#nonHatm>  (1530) 
32

>  <i_qp_#noncon>  (1530) 
0

>  <i_qp_#ringatoms>  (1530) 
22

>  <i_qp_#rotor>  (1530) 
7

>  <i_qp_#rtvFG>  (1530) 
0

>  <i_qp_#stars>  (1530) 
1

>  <i_qp_CNS>  (1530) 
1

>  <i_qp_HumanOralAbsorption>  (1530) 
3

>  <i_qp_RuleOfFive>  (1530) 
0

>  <i_qp_RuleOfThree>  (1530) 
0

>  <i_sd_BIOSOLVEIT.INFINISEE\_REAGENT1\_NAME>  (1530) 
95059

>  <i_sd_BIOSOLVEIT.INFINISEE\_REAGENT2\_NAME>  (1530) 
409552

>  <i_sd_BIOSOLVEIT.INFINISEE\_RESULT\_RANK>  (1530) 
15738

>  <i_sd_version>  (1530) 
0

>  <b_lp_Chiralities_Consistent>  (1530) 
1

>  <b_sd_chiral_flag>  (1530) 
0

>  <canonical_id>  (1530) 
ATP-HTVS-F0AA189EB18F

>  <compound_code>  (1530) 
6785

>  <title>  (1530) 
a1____95059____409552

>  <variant>  (1530) 
6785-1

>  <source_file>  (1530) 
运行/运行/ATP-VSW/ATP-VSW-DOCK_HTVS_1-001_lib/ATP-VSW-DOCK_HTVS_1-001_lib

>  <canonical_smiles>  (1530) 
C[NH+](C)CCc1ccc(NC(=O)c2cn(Cc3ccccc3)c(=O)c3ccccc23)cc1

>  <scaffold>  (1530) 
O=C(Nc1ccccc1)c1cn(Cc2ccccc2)c(=O)c2ccccc12

>  <molecular_formula>  (1530) 
C27H28N3O2+

$$$$
ATP-HTVS-F0B899F1EF1B
     RDKit          3D

 72 75  0  0  0  0  0  0  0  0999 V2000
  196.0376  183.7893  151.3754 O   0  0  0  0  0  0  0  0  0  0  0  0
  196.7885  182.9204  151.8029 C   0  0  0  0  0  0  0  0  0  0  0  0
  196.5970  182.4218  153.0327 N   0  0  0  0  0  0  0  0  0  0  0  0
  197.2415  181.3354  153.6945 C   0  0  0  0  0  0  0  0  0  0  0  0
  197.9633  180.4302  152.9840 N   0  0  0  0  0  0  0  0  0  0  0  0
  198.6787  179.4675  153.5947 C   0  0  0  0  0  0  0  0  0  0  0  0
  198.5938  179.2822  154.9973 C   0  0  0  0  0  0  0  0  0  0  0  0
  197.8027  180.1571  155.7590 C   0  0  0  0  0  0  0  0  0  0  0  0
  197.1238  181.2187  155.1046 C   0  0  0  0  0  0  0  0  0  0  0  0
  196.3522  182.1183  155.8483 N   0  0  0  0  0  0  0  0  0  0  0  0
  196.1571  181.8094  157.2658 C   0  0  1  0  0  0  0  0  0  0  0  0
  195.8083  182.9590  158.1528 C   0  0  0  0  0  0  0  0  0  0  0  0
  196.8414  183.8152  158.5822 C   0  0  0  0  0  0  0  0  0  0  0  0
  196.5466  184.9133  159.4105 C   0  0  0  0  0  0  0  0  0  0  0  0
  195.2162  185.0807  159.8619 C   0  0  0  0  0  0  0  0  0  0  0  0
  194.1866  184.2239  159.4294 C   0  0  0  0  0  0  0  0  0  0  0  0
  194.4821  183.1513  158.5729 C   0  0  0  0  0  0  0  0  0  0  0  0
  197.6539  185.8806  159.7837 C   0  0  1  0  0  0  0  0  0  0  0  0
  197.5968  187.1620  159.0123 N   0  0  1  0  0  0  0  0  0  0  0  0
  197.8852  187.0322  157.5412 C   0  0  1  0  0  0  0  0  0  0  0  0
  196.7399  186.4722  156.6683 C   0  0  2  0  0  0  0  0  0  0  0  0
  196.4361  188.0461  159.3273 C   0  0  1  0  0  0  0  0  0  0  0  0
  196.3048  188.4173  160.8252 C   0  0  2  0  0  0  0  0  0  0  0  0
  199.2847  178.2405  155.6246 C   0  0  0  0  0  0  0  0  0  0  0  0
  200.1022  177.3499  154.8797 C   0  0  0  0  0  0  0  0  0  0  0  0
  200.2310  177.5671  153.4794 C   0  0  0  0  0  0  0  0  0  0  0  0
  199.5325  178.6102  152.8512 C   0  0  0  0  0  0  0  0  0  0  0  0
  197.9461  182.4077  150.9075 C   0  0  1  0  0  0  0  0  0  0  0  0
  198.8499  183.4873  150.5432 N   0  0  0  0  0  0  0  0  0  0  0  0
  198.7395  184.1370  149.2908 C   0  0  0  0  0  0  0  0  0  0  0  0
  199.6868  185.1110  148.8966 C   0  0  0  0  0  0  0  0  0  0  0  0
  199.5603  185.7697  147.6578 C   0  0  0  0  0  0  0  0  0  0  0  0
  198.4921  185.4511  146.7943 C   0  0  0  0  0  0  0  0  0  0  0  0
  197.5510  184.4789  147.1662 C   0  0  0  0  0  0  0  0  0  0  0  0
  197.6761  183.8301  148.4024 C   0  0  0  0  0  0  0  0  0  0  0  0
  200.0227  183.7258  151.4011 C   0  0  2  0  0  0  0  0  0  0  0  0
  195.8494  182.8767  153.5511 H   0  0  0  0  0  0  0  0  0  0  0  0
  197.7354  179.9301  156.8240 H   0  0  0  0  0  0  0  0  0  0  0  0
  195.4664  182.4406  155.4113 H   0  0  0  0  0  0  0  0  0  0  0  0
  195.3800  181.0648  157.2988 H   0  0  0  0  0  0  0  0  0  0  0  0
  197.0776  181.4390  157.7190 H   0  0  0  0  0  0  0  0  0  0  0  0
  197.8535  183.6320  158.2578 H   0  0  0  0  0  0  0  0  0  0  0  0
  194.9362  185.9362  160.4577 H   0  0  0  0  0  0  0  0  0  0  0  0
  193.1534  184.4096  159.7036 H   0  0  0  0  0  0  0  0  0  0  0  0
  193.7057  182.4980  158.1930 H   0  0  0  0  0  0  0  0  0  0  0  0
  197.5601  186.0450  160.8624 H   0  0  0  0  0  0  0  0  0  0  0  0
  198.6411  185.4153  159.6290 H   0  0  0  0  0  0  0  0  0  0  0  0
  198.1595  188.0227  157.1688 H   0  0  0  0  0  0  0  0  0  0  0  0
  198.7867  186.4254  157.4319 H   0  0  0  0  0  0  0  0  0  0  0  0
  197.0331  186.4484  155.6206 H   0  0  0  0  0  0  0  0  0  0  0  0
  195.8342  187.0704  156.7580 H   0  0  0  0  0  0  0  0  0  0  0  0
  196.4805  185.4260  156.9230 H   0  0  0  0  0  0  0  0  0  0  0  0
  196.5113  188.9691  158.7477 H   0  0  0  0  0  0  0  0  0  0  0  0
  195.5199  187.5708  158.9794 H   0  0  0  0  0  0  0  0  0  0  0  0
  195.3725  188.9619  160.9981 H   0  0  0  0  0  0  0  0  0  0  0  0
  197.1344  189.0459  161.1618 H   0  0  0  0  0  0  0  0  0  0  0  0
  196.2586  187.5515  161.4869 H   0  0  0  0  0  0  0  0  0  0  0  0
  199.1751  178.0637  156.6923 H   0  0  0  0  0  0  0  0  0  0  0  0
  200.6024  176.5073  155.3583 H   0  0  0  0  0  0  0  0  0  0  0  0
  200.8477  176.9050  152.8934 H   0  0  0  0  0  0  0  0  0  0  0  0
  199.6349  178.7867  151.7973 H   0  0  0  0  0  0  0  0  0  0  0  0
  198.6742  181.7151  151.3214 H   0  0  0  0  0  0  0  0  0  0  0  0
  197.5061  181.8446  150.0813 H   0  0  0  0  0  0  0  0  0  0  0  0
  200.5173  185.3843  149.5420 H   0  0  0  0  0  0  0  0  0  0  0  0
  200.2881  186.5281  147.3883 H   0  0  0  0  0  0  0  0  0  0  0  0
  198.3810  185.9659  145.8625 H   0  0  0  0  0  0  0  0  0  0  0  0
  196.7150  184.2279  146.5257 H   0  0  0  0  0  0  0  0  0  0  0  0
  196.9115  183.1041  148.6278 H   0  0  0  0  0  0  0  0  0  0  0  0
  199.9551  184.7053  151.8780 H   0  0  0  0  0  0  0  0  0  0  0  0
  200.9776  183.6541  150.8686 H   0  0  0  0  0  0  0  0  0  0  0  0
  200.0994  183.0030  152.2155 H   0  0  0  0  0  0  0  0  0  0  0  0
  198.3858  187.6824  159.3742 H   0  0  0  0  0  0  0  0  0  0  0  0
  1  2  2  0
  2  3  1  0
  2 28  1  0
  3  4  1  0
  3 37  1  0
  4  5  2  0
  4  9  1  0
  5  6  1  0
  6  7  1  0
  6 27  2  0
  7  8  1  0
  7 24  2  0
  8  9  2  0
  8 38  1  0
  9 10  1  0
 10 11  1  0
 10 39  1  0
 11 12  1  0
 11 40  1  6
 11 41  1  0
 12 13  2  0
 12 17  1  0
 13 14  1  0
 13 42  1  0
 14 15  2  0
 14 18  1  0
 15 16  1  0
 15 43  1  0
 16 17  2  0
 16 44  1  0
 17 45  1  0
 18 19  1  0
 18 46  1  1
 18 47  1  0
 19 20  1  0
 19 22  1  0
 19 72  1  1
 20 21  1  0
 20 48  1  6
 20 49  1  0
 21 50  1  6
 21 51  1  0
 21 52  1  0
 22 23  1  0
 22 53  1  6
 22 54  1  0
 23 55  1  6
 23 56  1  0
 23 57  1  0
 24 25  1  0
 24 58  1  0
 25 26  2  0
 25 59  1  0
 26 27  1  0
 26 60  1  0
 27 61  1  0
 28 29  1  0
 28 62  1  1
 28 63  1  0
 29 30  1  0
 29 36  1  0
 30 31  2  0
 30 35  1  0
 31 32  1  0
 31 64  1  0
 32 33  2  0
 32 65  1  0
 33 34  1  0
 33 66  1  0
 34 35  2  0
 34 67  1  0
 35 68  1  0
 36 69  1  1
 36 70  1  0
 36 71  1  0
M  CHG  1  19   1
M  END
>  <s_epik_cmdline>  (1531) 
J2VwaWtfcHl0aG9uJywgJy1waCcsICc3LjAwMDAwMCcsICctcGh0JywgJzIuMDAwMDAwJywgJy1tcycsICcxNicsICctdG4nLCAnOCcsICctbWEnLCAnMjAwJywgJy1pbWFlJywgJzxpbmZpbGUubWFlPicsICctb21hZScsICc8b3V0ZmlsZS5tYWU+Jw==

>  <s_epik_input>  (1531) 
W2NIXTFbY0hdW2NIXVtjSF1bY0hdYzFOKFtDSDNdKVtDSDJdQyg9TylbTkhdYyhuMiljKFtjSF1jKGMyMylbY0hdW2NIXVtjSF1bY0hdMylbTkhdW0NIMl1jNFtjSF1jKFtjSF1bY0hdW2NIXTQpW0NIMl1OKFtDSDJdW0NIM10pW0NIMl1bQ0gzXQ==

>  <s_i_glide_gridfile>  (1531) 
ATP-Grid

>  <s_lp_Force_Field>  (1531) 
OPLS_2005

>  <s_lp_Variant>  (1531) 
rxn502b____EMOL31412043____EMOL44466703____EMOL44153840-1

>  <s_lp_label>  (1531) 
2225_sdstereoexpander_1_neutralizer_1_epik_1_stereoizer_1

>  <s_m_source_file>  (1531) 
ATP-VSW-LIGPREP-002-in.maegz

>  <s_sd_BIOSOLVEIT.INFINISEE\_QUERY\_NAME>  (1531) 
Ref-Lig

>  <s_sd_BIOSOLVEIT.INFINISEE\_QUERY\_SMILES>  (1531) 
S(c1nc2c(cc1C[NH2+]Cc3ccc(cc3)C[NH+](C)C)cccc2)Cc4ccccc4

>  <s_sd_BIOSOLVEIT.INFINISEE\_REACTION\_NAME>  (1531) 
rxn502b

>  <s_sd_BIOSOLVEIT.INFINISEE\_REAGENT1\_NAME>  (1531) 
EMOL31412043

>  <s_sd_BIOSOLVEIT.INFINISEE\_REAGENT1\_SMILES>  (1531) 
O=C(O)CN(c1ccccc1)C

>  <s_sd_BIOSOLVEIT.INFINISEE\_REAGENT2\_NAME>  (1531) 
EMOL44466703

>  <s_sd_BIOSOLVEIT.INFINISEE\_REAGENT2\_SMILES>  (1531) 
Brc1c(nc2c(c1)cccc2)N

>  <s_sd_BIOSOLVEIT.INFINISEE\_REAGENT3\_NAME>  (1531) 
EMOL44153840

>  <s_sd_BIOSOLVEIT.INFINISEE\_REAGENT3\_SMILES>  (1531) 
N(Cc1cc(ccc1)CN)(CC)CC

>  <s_sd_BIOSOLVEIT.INFINISEE\_SPACE>  (1531) 
eXplore_7tr_2022-12

>  <s_vsw_compound_code>  (1531) 
71170

>  <s_vsw_variant>  (1531) 
71170-1

>  <r_epik_Charging_Adjusted_Penalty>  (1531) 
0.0788919361714297

>  <r_epik_Ionization_Penalty>  (1531) 
0.0521

>  <r_epik_Ionization_Penalty_Charging>  (1531) 
0.017999999999999999

>  <r_epik_Ionization_Penalty_Neutral>  (1531) 
0.034200000000000001

>  <r_epik_State_Penalty>  (1531) 
0.060900000000000003

>  <r_i_docking_score>  (1531) 
-3.53965621934154

>  <r_i_glide_ecoul>  (1531) 
-8.6075477600097692

>  <r_i_glide_eff_state_penalty>  (1531) 
0.060900000000000003

>  <r_i_glide_einternal>  (1531) 
9.8272771835327095

>  <r_i_glide_emodel>  (1531) 
-58.626794176156103

>  <r_i_glide_energy>  (1531) 
-49.648246765136697

>  <r_i_glide_erotb>  (1531) 
0.78412520178739697

>  <r_i_glide_esite>  (1531) 
-0.17542610905818901

>  <r_i_glide_evdw>  (1531) 
-41.040699005127003

>  <r_i_glide_gscore>  (1531) 
-3.6005562193415401

>  <r_i_glide_hbond>  (1531) 
-0.298476268136802

>  <r_i_glide_ligand_efficiency>  (1531) 
-0.098323783870598397

>  <r_i_glide_ligand_efficiency_ln>  (1531) 
-0.77225735660073902

>  <r_i_glide_ligand_efficiency_sa>  (1531) 
-0.32465798078894897

>  <r_i_glide_lipo>  (1531) 
-2.0855027192337898

>  <r_i_glide_metal>  (1531) 
-0

>  <r_i_glide_rewards>  (1531) 
1.5178907895576601

>  <r_lp_Energy>  (1531) 
27.014431999999999

>  <r_qp_ACxDN^.5/SA>  (1531) 
0.0150393

>  <r_qp_CIQPlogS>  (1531) 
-6.2210000000000001

>  <r_qp_EA(eV)>  (1531) 
0.94699999999999995

>  <r_qp_FISA>  (1531) 
45.902000000000001

>  <r_qp_FOSA>  (1531) 
278.09899999999999

>  <r_qp_IP(eV)>  (1531) 
7.8879999999999999

>  <r_qp_Jm>  (1531) 
2.03765709324969

>  <r_qp_PISA>  (1531) 
381.25799999999998

>  <r_qp_PSA>  (1531) 
57.377000000000002

>  <r_qp_PercentHumanOralAbsorption>  (1531) 
100

>  <r_qp_QPPCaco>  (1531) 
906.80700000000002

>  <r_qp_QPPMDCK>  (1531) 
492.38900000000001

>  <r_qp_QPlogBB>  (1531) 
-0.091999999999999998

>  <r_qp_QPlogHERG>  (1531) 
-5.9429999999999996

>  <r_qp_QPlogKhsa>  (1531) 
0.68100000000000005

>  <r_qp_QPlogKp>  (1531) 
-2.0289999999999999

>  <r_qp_QPlogPC16>  (1531) 
15.129

>  <r_qp_QPlogPo/w>  (1531) 
4.8719999999999999

>  <r_qp_QPlogPoct>  (1531) 
23.561

>  <r_qp_QPlogPw>  (1531) 
12.212

>  <r_qp_QPlogS>  (1531) 
-3.3450000000000002

>  <r_qp_QPpolrz>  (1531) 
49.067999999999998

>  <r_qp_SASA>  (1531) 
705.25900000000001

>  <r_qp_SAamideO>  (1531) 
0

>  <r_qp_SAfluorine>  (1531) 
0

>  <r_qp_WPSA>  (1531) 
0

>  <r_qp_accptHB>  (1531) 
7.5

>  <r_qp_dip^2/V>  (1531) 
0.0217859

>  <r_qp_dipole>  (1531) 
5.6500000000000004

>  <r_qp_donorHB>  (1531) 
2

>  <r_qp_glob>  (1531) 
0.8846695

>  <r_qp_mol_MW>  (1531) 
481.63900000000001

>  <r_qp_volume>  (1531) 
1465.3699999999999

>  <r_sd_BIOSOLVEIT.INFINISEE\_FTREES\_SIMILARITY>  (1531) 
0.92900000000000005

>  <r_sd_BIOSOLVEIT.LOGP>  (1531) 
4.3464999999999998

>  <r_sd_BIOSOLVEIT.MOLECULAR\_WEIGHT>  (1531) 
482.64800000000002

>  <r_sd_BIOSOLVEIT.TPSA>  (1531) 
61.700000000000003

>  <i_epik_Tot_Q>  (1531) 
1

>  <i_epik_Tot_abs_Q>  (1531) 
1

>  <i_f3d_flags>  (1531) 
0

>  <i_i_glide_confnum>  (1531) 
7

>  <i_i_glide_lignum>  (1531) 
866

>  <i_i_glide_posenum>  (1531) 
1

>  <i_i_glide_rotatable_bonds>  (1531) 
12

>  <i_lp_mmshare_version>  (1531) 
65135

>  <i_m_ct_format>  (1531) 
2

>  <i_m_source_file_index>  (1531) 
2225

>  <i_qp_#NandO>  (1531) 
6

>  <i_qp_#acid>  (1531) 
0

>  <i_qp_#amide>  (1531) 
0

>  <i_qp_#amidine>  (1531) 
0

>  <i_qp_#amine>  (1531) 
1

>  <i_qp_#in34>  (1531) 
0

>  <i_qp_#in56>  (1531) 
22

>  <i_qp_#metab>  (1531) 
9

>  <i_qp_#nonHatm>  (1531) 
36

>  <i_qp_#noncon>  (1531) 
0

>  <i_qp_#ringatoms>  (1531) 
22

>  <i_qp_#rotor>  (1531) 
11

>  <i_qp_#rtvFG>  (1531) 
0

>  <i_qp_#stars>  (1531) 
2

>  <i_qp_CNS>  (1531) 
1

>  <i_qp_HumanOralAbsorption>  (1531) 
3

>  <i_qp_RuleOfFive>  (1531) 
0

>  <i_qp_RuleOfThree>  (1531) 
1

>  <i_sd_BIOSOLVEIT.INFINISEE\_RESULT\_RANK>  (1531) 
5573

>  <i_sd_version>  (1531) 
0

>  <b_lp_Chiralities_Consistent>  (1531) 
1

>  <b_sd_chiral_flag>  (1531) 
0

>  <canonical_id>  (1531) 
ATP-HTVS-F0B899F1EF1B

>  <compound_code>  (1531) 
71170

>  <title>  (1531) 
rxn502b____EMOL31412043____EMOL44466703____EMOL44153840

>  <variant>  (1531) 
71170-1

>  <source_file>  (1531) 
运行/运行/ATP-VSW/ATP-VSW-DOCK_HTVS_1-002_lib.maegz

>  <canonical_smiles>  (1531) 
CC[NH+](CC)Cc1cccc(CNc2cc3ccccc3nc2NC(=O)CN(C)c2ccccc2)c1

>  <scaffold>  (1531) 
O=C(CNc1ccccc1)Nc1nc2ccccc2cc1NCc1ccccc1

>  <molecular_formula>  (1531) 
C30H36N5O+

$$$$
ATP-HTVS-F0EA8E73CD83
     RDKit          3D

 59 61  0  0  0  0  0  0  0  0999 V2000
  198.4741  185.5134  152.5957 Cl  0  0  0  0  0  0  0  0  0  0  0  0
  197.9734  185.0522  154.1862 C   0  0  0  0  0  0  0  0  0  0  0  0
  197.5752  183.7123  154.4362 C   0  0  0  0  0  0  0  0  0  0  0  0
  197.1972  183.3358  155.7316 C   0  0  0  0  0  0  0  0  0  0  0  0
  197.1489  184.2617  156.7887 C   0  0  0  0  0  0  0  0  0  0  0  0
  196.7402  183.8986  158.1231 N   0  0  0  0  0  0  0  0  0  0  0  0
  197.5187  184.0650  159.2132 C   0  0  0  0  0  0  0  0  0  0  0  0
  197.1064  183.8332  160.3599 O   0  0  0  0  0  0  0  0  0  0  0  0
  198.9111  184.5138  159.0758 C   0  0  0  0  0  0  0  0  0  0  0  0
  199.2517  186.2205  159.1877 S   0  0  0  0  0  0  0  0  0  0  0  0
  200.9291  185.9316  158.8340 C   0  0  0  0  0  0  0  0  0  0  0  0
  201.9782  187.2748  158.5838 Cl  0  0  0  0  0  0  0  0  0  0  0  0
  201.2308  184.6044  158.7888 C   0  0  0  0  0  0  0  0  0  0  0  0
  202.5370  184.0801  158.6179 N   0  0  0  0  0  0  0  0  0  0  0  0
  202.8204  182.6966  158.2849 C   0  0  1  0  0  0  0  0  0  0  0  0
  202.0114  182.1503  157.1225 C   0  0  0  0  0  0  0  0  0  0  0  0
  201.1691  181.0389  157.3258 C   0  0  0  0  0  0  0  0  0  0  0  0
  200.4235  180.4794  156.2771 C   0  0  0  0  0  0  0  0  0  0  0  0
  200.4721  181.0979  154.9975 C   0  0  0  0  0  0  0  0  0  0  0  0
  201.2715  182.2422  154.7963 C   0  0  0  0  0  0  0  0  0  0  0  0
  202.0467  182.7636  155.8497 C   0  0  0  0  0  0  0  0  0  0  0  0
  199.5556  179.2478  156.5131 C   0  0  1  0  0  0  0  0  0  0  0  0
  200.3660  178.0109  156.6895 N   0  0  2  0  0  0  0  0  0  0  0  0
  199.6429  176.7820  156.2850 C   0  0  2  0  0  0  0  0  0  0  0  0
  200.9440  177.8536  158.0443 C   0  0  2  0  0  0  0  0  0  0  0  0
  200.0778  183.7802  158.9570 C   0  0  0  0  0  0  0  0  0  0  0  0
  195.3792  183.3525  158.2673 C   0  0  1  0  0  0  0  0  0  0  0  0
  195.3121  181.8247  158.1204 C   0  0  1  0  0  0  0  0  0  0  0  0
  193.9511  181.3639  157.9085 N   0  0  2  0  0  0  0  0  0  0  0  0
  197.4818  185.6252  156.5063 C   0  0  0  0  0  0  0  0  0  0  0  0
  197.9397  185.9899  155.2182 C   0  0  0  0  0  0  0  0  0  0  0  0
  194.0271  180.3699  157.7530 H   0  0  0  0  0  0  0  0  0  0  0  0
  193.5775  181.8197  157.0825 H   0  0  0  0  0  0  0  0  0  0  0  0
  197.5658  182.9926  153.6343 H   0  0  0  0  0  0  0  0  0  0  0  0
  196.9333  182.2822  155.8581 H   0  0  0  0  0  0  0  0  0  0  0  0
  203.3136  184.7155  158.6697 H   0  0  0  0  0  0  0  0  0  0  0  0
  203.8819  182.5992  158.0468 H   0  0  0  0  0  0  0  0  0  0  0  0
  202.6554  182.0848  159.1758 H   0  0  0  0  0  0  0  0  0  0  0  0
  201.1069  180.6415  158.3322 H   0  0  0  0  0  0  0  0  0  0  0  0
  199.8832  180.7100  154.1813 H   0  0  0  0  0  0  0  0  0  0  0  0
  201.2805  182.7312  153.8329 H   0  0  0  0  0  0  0  0  0  0  0  0
  202.6520  183.6472  155.6999 H   0  0  0  0  0  0  0  0  0  0  0  0
  198.9025  179.4202  157.3691 H   0  0  0  0  0  0  0  0  0  0  0  0
  198.8901  179.1292  155.6608 H   0  0  0  0  0  0  0  0  0  0  0  0
  198.7652  176.6343  156.9073 H   0  0  0  0  0  0  0  0  0  0  0  0
  200.2886  175.9106  156.4009 H   0  0  0  0  0  0  0  0  0  0  0  0
  199.3286  176.8173  155.2403 H   0  0  0  0  0  0  0  0  0  0  0  0
  200.1484  177.8006  158.7933 H   0  0  0  0  0  0  0  0  0  0  0  0
  201.6301  178.6488  158.3074 H   0  0  0  0  0  0  0  0  0  0  0  0
  201.5180  176.9303  158.1090 H   0  0  0  0  0  0  0  0  0  0  0  0
  200.0959  182.7103  158.9795 H   0  0  0  0  0  0  0  0  0  0  0  0
  194.9394  183.6113  159.2378 H   0  0  0  0  0  0  0  0  0  0  0  0
  194.7189  183.8393  157.5560 H   0  0  0  0  0  0  0  0  0  0  0  0
  195.8605  181.4484  157.2587 H   0  0  0  0  0  0  0  0  0  0  0  0
  195.7462  181.3200  158.9992 H   0  0  0  0  0  0  0  0  0  0  0  0
  197.3773  186.3866  157.2600 H   0  0  0  0  0  0  0  0  0  0  0  0
  198.2402  187.0129  155.0424 H   0  0  0  0  0  0  0  0  0  0  0  0
  193.3484  181.5588  158.7201 H   0  0  0  0  0  0  0  0  0  0  0  0
  201.1462  178.0907  156.0471 H   0  0  0  0  0  0  0  0  0  0  0  0
  1  2  1  0
  2  3  1  0
  2 31  2  0
  3  4  2  0
  3 34  1  0
  4  5  1  0
  4 35  1  0
  5  6  1  0
  5 30  2  0
  6  7  1  0
  6 27  1  0
  7  8  2  0
  7  9  1  0
  9 10  1  0
  9 26  2  0
 10 11  1  0
 11 12  1  0
 11 13  2  0
 13 14  1  0
 13 26  1  0
 14 15  1  0
 14 36  1  0
 15 16  1  0
 15 37  1  6
 15 38  1  0
 16 17  2  0
 16 21  1  0
 17 18  1  0
 17 39  1  0
 18 19  2  0
 18 22  1  0
 19 20  1  0
 19 40  1  0
 20 21  2  0
 20 41  1  0
 21 42  1  0
 22 23  1  0
 22 43  1  1
 22 44  1  0
 23 24  1  0
 23 25  1  0
 23 59  1  6
 24 45  1  1
 24 46  1  0
 24 47  1  0
 25 48  1  1
 25 49  1  0
 25 50  1  0
 26 51  1  0
 27 28  1  0
 27 52  1  1
 27 53  1  0
 28 29  1  0
 28 54  1  6
 28 55  1  0
 29 32  1  6
 29 33  1  0
 29 58  1  0
 30 31  1  0
 30 56  1  0
 31 57  1  0
M  CHG  2  23   1  29   1
M  END
>  <s_epik_cmdline>  (1532) 
J2VwaWtfcHl0aG9uJywgJy1waCcsICc3LjAwMDAwMCcsICctcGh0JywgJzIuMDAwMDAwJywgJy1tcycsICcxNicsICctdG4nLCAnOCcsICctbWEnLCAnMjAwJywgJy1pbWFlJywgJzxpbmZpbGUubWFlPicsICctb21hZScsICc8b3V0ZmlsZS5tYWU+Jw==

>  <s_epik_input>  (1532) 
Q2xjMVtjSF1bY0hdYyhbY0hdW2NIXTEpTihbQ0gyXVtDSDJdW05IMl0pQyg9TyljMnNjKENsKWMoW2NIXTIpW05IXVtDSDJdYzNbY0hdYyhbY0hdW2NIXVtjSF0zKVtDSDJdTihbQ0gzXSlbQ0gzXQ==

>  <s_i_glide_gridfile>  (1532) 
ATP-Grid

>  <s_lp_Force_Field>  (1532) 
OPLS_2005

>  <s_lp_Variant>  (1532) 
rxn512b____EMOL49832880____EMOL44846536____EMOL2873214-1

>  <s_lp_label>  (1532) 
2428_sdstereoexpander_1_neutralizer_1_epik_1_stereoizer_1

>  <s_m_source_file>  (1532) 
ATP-VSW-LIGPREP-001-in.maegz

>  <s_sd_BIOSOLVEIT.INFINISEE\_QUERY\_NAME>  (1532) 
Ref-Lig

>  <s_sd_BIOSOLVEIT.INFINISEE\_QUERY\_SMILES>  (1532) 
S(c1nc2c(cc1C[NH2+]Cc3ccc(cc3)C[NH+](C)C)cccc2)Cc4ccccc4

>  <s_sd_BIOSOLVEIT.INFINISEE\_REACTION\_NAME>  (1532) 
rxn512b

>  <s_sd_BIOSOLVEIT.INFINISEE\_REAGENT1\_NAME>  (1532) 
EMOL49832880

>  <s_sd_BIOSOLVEIT.INFINISEE\_REAGENT1\_SMILES>  (1532) 
Clc1ccc(NCCN)cc1

>  <s_sd_BIOSOLVEIT.INFINISEE\_REAGENT2\_NAME>  (1532) 
EMOL44846536

>  <s_sd_BIOSOLVEIT.INFINISEE\_REAGENT2\_SMILES>  (1532) 
BrC1=C(Cl)SC(C(=O)O)=C1

>  <s_sd_BIOSOLVEIT.INFINISEE\_REAGENT3\_NAME>  (1532) 
EMOL2873214

>  <s_sd_BIOSOLVEIT.INFINISEE\_REAGENT3\_SMILES>  (1532) 
N(Cc1cc(ccc1)CN)(C)C

>  <s_sd_BIOSOLVEIT.INFINISEE\_SPACE>  (1532) 
eXplore_7tr_2022-12

>  <s_vsw_compound_code>  (1532) 
77665

>  <s_vsw_variant>  (1532) 
77665-1

>  <r_epik_Charging_Adjusted_Penalty>  (1532) 
0.098611016270995805

>  <r_epik_Ionization_Penalty>  (1532) 
0.049500000000000002

>  <r_epik_Ionization_Penalty_Charging>  (1532) 
0.049299999999999997

>  <r_epik_Ionization_Penalty_Neutral>  (1532) 
0.0001

>  <r_epik_State_Penalty>  (1532) 
0.049299999999999997

>  <r_i_docking_score>  (1532) 
-5.3358770128671598

>  <r_i_glide_ecoul>  (1532) 
-15.470862388610801

>  <r_i_glide_eff_state_penalty>  (1532) 
0.049299999999999997

>  <r_i_glide_einternal>  (1532) 
6.7056503295898402

>  <r_i_glide_emodel>  (1532) 
-67.079193208922305

>  <r_i_glide_energy>  (1532) 
-44.0188245773315

>  <r_i_glide_erotb>  (1532) 
0.49381957744099098

>  <r_i_glide_esite>  (1532) 
-0.14417805974708001

>  <r_i_glide_evdw>  (1532) 
-28.5479621887207

>  <r_i_glide_gscore>  (1532) 
-5.3851770128671603

>  <r_i_glide_hbond>  (1532) 
-0.330125601631793

>  <r_i_glide_ligand_efficiency>  (1532) 
-0.172125064931199

>  <r_i_glide_ligand_efficiency_ln>  (1532) 
-1.2034037913933799

>  <r_i_glide_ligand_efficiency_sa>  (1532) 
-0.54071034814754904

>  <r_i_glide_lipo>  (1532) 
-0.60357593408382204

>  <r_i_glide_metal>  (1532) 
-0

>  <r_i_glide_rewards>  (1532) 
-1.0530895271178

>  <r_lp_Energy>  (1532) 
38.870773

>  <r_lp_tautomer_probability>  (1532) 
0.99999274205267796

>  <r_qp_ACxDN^.5/SA>  (1532) 
0.0148367

>  <r_qp_CIQPlogS>  (1532) 
-3.8450000000000002

>  <r_qp_EA(eV)>  (1532) 
0.64000000000000001

>  <r_qp_FISA>  (1532) 
108.461

>  <r_qp_FOSA>  (1532) 
277.334

>  <r_qp_IP(eV)>  (1532) 
8.2080000000000002

>  <r_qp_Jm>  (1532) 
0.00015021839111326499

>  <r_qp_PISA>  (1532) 
265.33300000000003

>  <r_qp_PSA>  (1532) 
71.537000000000006

>  <r_qp_PercentHumanOralAbsorption>  (1532) 
69.798000000000002

>  <r_qp_QPPCaco>  (1532) 
14.390000000000001

>  <r_qp_QPPMDCK>  (1532) 
55.558

>  <r_qp_QPlogBB>  (1532) 
-0.082000000000000003

>  <r_qp_QPlogHERG>  (1532) 
-8.8360000000000003

>  <r_qp_QPlogKhsa>  (1532) 
0.64700000000000002

>  <r_qp_QPlogKp>  (1532) 
-5.7489999999999997

>  <r_qp_QPlogPC16>  (1532) 
16.52

>  <r_qp_QPlogPo/w>  (1532) 
3.7789999999999999

>  <r_qp_QPlogPoct>  (1532) 
24.687999999999999

>  <r_qp_QPlogPw>  (1532) 
13.369

>  <r_qp_QPlogS>  (1532) 
-3.7530000000000001

>  <r_qp_QPpolrz>  (1532) 
48.366999999999997

>  <r_qp_SASA>  (1532) 
817.18899999999996

>  <r_qp_SAamideO>  (1532) 
0

>  <r_qp_SAfluorine>  (1532) 
0

>  <r_qp_WPSA>  (1532) 
166.06

>  <r_qp_accptHB>  (1532) 
7

>  <r_qp_dip^2/V>  (1532) 
0.0054473999999999998

>  <r_qp_dipole>  (1532) 
2.8199999999999998

>  <r_qp_donorHB>  (1532) 
3

>  <r_qp_glob>  (1532) 
0.7614493

>  <r_qp_mol_MW>  (1532) 
477.45100000000002

>  <r_qp_volume>  (1532) 
1459.4770000000001

>  <r_sd_BIOSOLVEIT.INFINISEE\_FTREES\_SIMILARITY>  (1532) 
0.91700000000000004

>  <r_sd_BIOSOLVEIT.LOGP>  (1532) 
3.2002000000000002

>  <r_sd_BIOSOLVEIT.MOLECULAR\_WEIGHT>  (1532) 
479.47199999999998

>  <r_sd_BIOSOLVEIT.TPSA>  (1532) 
64.420000000000002

>  <i_epik_Tot_Q>  (1532) 
2

>  <i_epik_Tot_abs_Q>  (1532) 
2

>  <i_f3d_flags>  (1532) 
0

>  <i_i_glide_confnum>  (1532) 
1

>  <i_i_glide_lignum>  (1532) 
937

>  <i_i_glide_posenum>  (1532) 
10

>  <i_i_glide_rotatable_bonds>  (1532) 
10

>  <i_lp_mmshare_version>  (1532) 
65135

>  <i_m_ct_format>  (1532) 
2

>  <i_m_source_file_index>  (1532) 
2428

>  <i_qp_#NandO>  (1532) 
5

>  <i_qp_#acid>  (1532) 
0

>  <i_qp_#amide>  (1532) 
0

>  <i_qp_#amidine>  (1532) 
0

>  <i_qp_#amine>  (1532) 
3

>  <i_qp_#in34>  (1532) 
0

>  <i_qp_#in56>  (1532) 
17

>  <i_qp_#metab>  (1532) 
7

>  <i_qp_#nonHatm>  (1532) 
31

>  <i_qp_#noncon>  (1532) 
0

>  <i_qp_#ringatoms>  (1532) 
17

>  <i_qp_#rotor>  (1532) 
10

>  <i_qp_#rtvFG>  (1532) 
0

>  <i_qp_#stars>  (1532) 
0

>  <i_qp_CNS>  (1532) 
0

>  <i_qp_HumanOralAbsorption>  (1532) 
2

>  <i_qp_RuleOfFive>  (1532) 
0

>  <i_qp_RuleOfThree>  (1532) 
2

>  <i_sd_BIOSOLVEIT.INFINISEE\_RESULT\_RANK>  (1532) 
23077

>  <i_sd_version>  (1532) 
0

>  <b_lp_Chiralities_Consistent>  (1532) 
1

>  <b_sd_chiral_flag>  (1532) 
0

>  <canonical_id>  (1532) 
ATP-HTVS-F0EA8E73CD83

>  <compound_code>  (1532) 
77665

>  <title>  (1532) 
rxn512b____EMOL49832880____EMOL44846536____EMOL2873214

>  <variant>  (1532) 
77665-1

>  <source_file>  (1532) 
运行/运行/ATP-VSW/ATP-VSW-DOCK_HTVS_1-001_lib/ATP-VSW-DOCK_HTVS_1-001_lib

>  <canonical_smiles>  (1532) 
C[NH+](C)Cc1cccc(CNc2cc(C(=O)N(CC[NH3+])c3ccc(Cl)cc3)sc2Cl)c1

>  <scaffold>  (1532) 
O=C(Nc1ccccc1)c1cc(NCc2ccccc2)cs1

>  <molecular_formula>  (1532) 
C23H28Cl2N4OS+2

$$$$
ATP-HTVS-F13E60D2EE86
     RDKit          3D

 70 73  0  0  0  0  0  0  0  0999 V2000
  203.5653  173.9998  155.7114 O   0  0  0  0  0  0  0  0  0  0  0  0
  202.4898  174.8698  156.0012 C   0  0  1  0  0  0  0  0  0  0  0  0
  202.2564  175.9186  154.8847 C   0  0  1  0  0  0  0  0  0  0  0  0
  201.2053  176.9218  155.2130 N   0  0  2  0  0  0  0  0  0  0  0  0
  200.7796  177.6920  154.0023 C   0  0  1  0  0  0  0  0  0  0  0  0
  199.7462  178.7812  154.3035 C   0  0  0  0  0  0  0  0  0  0  0  0
  198.6402  178.4893  155.1223 C   0  0  0  0  0  0  0  0  0  0  0  0
  197.7108  179.4829  155.4596 C   0  0  0  0  0  0  0  0  0  0  0  0
  197.8734  180.8101  155.0127 C   0  0  0  0  0  0  0  0  0  0  0  0
  198.9733  181.1158  154.1819 C   0  0  0  0  0  0  0  0  0  0  0  0
  199.9045  180.1081  153.8263 C   0  0  0  0  0  0  0  0  0  0  0  0
  196.8404  181.8599  155.4075 C   0  0  1  0  0  0  0  0  0  0  0  0
  197.0806  182.3919  156.7786 N   0  0  1  0  0  0  0  0  0  0  0  0
  197.7703  183.7114  156.7937 C   0  0  1  0  0  0  0  0  0  0  0  0
  198.7790  183.7881  157.9093 C   0  0  0  0  0  0  0  0  0  0  0  0
  198.8969  184.7385  158.9661 C   0  0  0  0  0  0  0  0  0  0  0  0
  199.9555  184.5094  159.7274 N   0  0  0  0  0  0  0  0  0  0  0  0
  200.5635  183.4221  159.2006 N   0  0  0  0  0  0  0  0  0  0  0  0
  201.7461  182.8758  159.7810 C   0  0  0  0  0  0  0  0  0  0  0  0
  202.3122  183.4528  160.9426 C   0  0  0  0  0  0  0  0  0  0  0  0
  203.4752  182.9076  161.5208 C   0  0  0  0  0  0  0  0  0  0  0  0
  204.0938  181.7850  160.9397 C   0  0  0  0  0  0  0  0  0  0  0  0
  203.5363  181.1954  159.7926 C   0  0  0  0  0  0  0  0  0  0  0  0
  202.3732  181.7405  159.2132 C   0  0  0  0  0  0  0  0  0  0  0  0
  199.8798  182.9937  158.0801 C   0  0  0  0  0  0  0  0  0  0  0  0
  198.0218  185.8608  159.3039 C   0  0  0  0  0  0  0  0  0  0  0  0
  196.6769  185.6302  159.6513 C   0  0  0  0  0  0  0  0  0  0  0  0
  195.8392  186.7062  160.0099 C   0  0  0  0  0  0  0  0  0  0  0  0
  196.3485  188.0170  160.0251 C   0  0  0  0  0  0  0  0  0  0  0  0
  197.6913  188.2568  159.6725 C   0  0  0  0  0  0  0  0  0  0  0  0
  198.5270  187.1801  159.3130 C   0  0  0  0  0  0  0  0  0  0  0  0
  195.8674  182.3923  157.6331 C   0  0  2  0  0  0  0  0  0  0  0  0
  201.5527  177.7877  156.3760 C   0  0  2  0  0  0  0  0  0  0  0  0
  203.2639  172.9836  154.7735 C   0  0  2  0  0  0  0  0  0  0  0  0
  201.5794  174.3208  156.2158 H   0  0  0  0  0  0  0  0  0  0  0  0
  202.8118  175.3362  156.9257 H   0  0  0  0  0  0  0  0  0  0  0  0
  203.1862  176.4271  154.6399 H   0  0  0  0  0  0  0  0  0  0  0  0
  201.9530  175.3975  153.9762 H   0  0  0  0  0  0  0  0  0  0  0  0
  201.6552  178.1568  153.5434 H   0  0  0  0  0  0  0  0  0  0  0  0
  200.3745  177.0105  153.2503 H   0  0  0  0  0  0  0  0  0  0  0  0
  198.4879  177.4934  155.5169 H   0  0  0  0  0  0  0  0  0  0  0  0
  196.8795  179.2049  156.0829 H   0  0  0  0  0  0  0  0  0  0  0  0
  199.1077  182.1176  153.8052 H   0  0  0  0  0  0  0  0  0  0  0  0
  200.7360  180.3526  153.1729 H   0  0  0  0  0  0  0  0  0  0  0  0
  196.7968  182.6551  154.6662 H   0  0  0  0  0  0  0  0  0  0  0  0
  195.8676  181.3723  155.3516 H   0  0  0  0  0  0  0  0  0  0  0  0
  198.3032  183.8870  155.8553 H   0  0  0  0  0  0  0  0  0  0  0  0
  197.0305  184.5124  156.8432 H   0  0  0  0  0  0  0  0  0  0  0  0
  201.8579  184.3116  161.4168 H   0  0  0  0  0  0  0  0  0  0  0  0
  203.8932  183.3543  162.4114 H   0  0  0  0  0  0  0  0  0  0  0  0
  204.9860  181.3658  161.3849 H   0  0  0  0  0  0  0  0  0  0  0  0
  204.0027  180.3281  159.3505 H   0  0  0  0  0  0  0  0  0  0  0  0
  201.9788  181.2574  158.3336 H   0  0  0  0  0  0  0  0  0  0  0  0
  200.1992  182.1449  157.4966 H   0  0  0  0  0  0  0  0  0  0  0  0
  196.2885  184.6243  159.6768 H   0  0  0  0  0  0  0  0  0  0  0  0
  194.8125  186.5222  160.2863 H   0  0  0  0  0  0  0  0  0  0  0  0
  195.7160  188.8448  160.3131 H   0  0  0  0  0  0  0  0  0  0  0  0
  198.0865  189.2630  159.7002 H   0  0  0  0  0  0  0  0  0  0  0  0
  199.5640  187.3651  159.0711 H   0  0  0  0  0  0  0  0  0  0  0  0
  195.1445  183.1387  157.2978 H   0  0  0  0  0  0  0  0  0  0  0  0
  196.1219  182.6071  158.6685 H   0  0  0  0  0  0  0  0  0  0  0  0
  195.3625  181.4342  157.6204 H   0  0  0  0  0  0  0  0  0  0  0  0
  202.4152  178.4014  156.1312 H   0  0  0  0  0  0  0  0  0  0  0  0
  201.7686  177.2240  157.2774 H   0  0  0  0  0  0  0  0  0  0  0  0
  200.7562  178.4719  156.6640 H   0  0  0  0  0  0  0  0  0  0  0  0
  204.1178  172.3032  154.7167 H   0  0  0  0  0  0  0  0  0  0  0  0
  203.0953  173.4088  153.7818 H   0  0  0  0  0  0  0  0  0  0  0  0
  202.3845  172.4119  155.0807 H   0  0  0  0  0  0  0  0  0  0  0  0
  200.3840  176.3950  155.4705 H   0  0  0  0  0  0  0  0  0  0  0  0
  197.6994  181.7162  157.2054 H   0  0  0  0  0  0  0  0  0  0  0  0
  1  2  1  0
  1 34  1  0
  2  3  1  0
  2 35  1  1
  2 36  1  0
  3  4  1  0
  3 37  1  6
  3 38  1  0
  4  5  1  0
  4 33  1  0
  4 69  1  1
  5  6  1  0
  5 39  1  6
  5 40  1  0
  6  7  1  0
  6 11  2  0
  7  8  2  0
  7 41  1  0
  8  9  1  0
  8 42  1  0
  9 10  2  0
  9 12  1  0
 10 11  1  0
 10 43  1  0
 11 44  1  0
 12 13  1  0
 12 45  1  6
 12 46  1  0
 13 14  1  0
 13 32  1  0
 13 70  1  1
 14 15  1  0
 14 47  1  6
 14 48  1  0
 15 16  1  0
 15 25  2  0
 16 17  2  0
 16 26  1  0
 17 18  1  0
 18 19  1  0
 18 25  1  0
 19 20  2  0
 19 24  1  0
 20 21  1  0
 20 49  1  0
 21 22  2  0
 21 50  1  0
 22 23  1  0
 22 51  1  0
 23 24  2  0
 23 52  1  0
 24 53  1  0
 25 54  1  0
 26 27  2  0
 26 31  1  0
 27 28  1  0
 27 55  1  0
 28 29  2  0
 28 56  1  0
 29 30  1  0
 29 57  1  0
 30 31  2  0
 30 58  1  0
 31 59  1  0
 32 60  1  6
 32 61  1  0
 32 62  1  0
 33 63  1  6
 33 64  1  0
 33 65  1  0
 34 66  1  6
 34 67  1  0
 34 68  1  0
M  CHG  2   4   1  13   1
M  END
>  <s_epik_cmdline>  (1533) 
J2VwaWtfcHl0aG9uJywgJy1waCcsICc3LjAwMDAwMCcsICctcGh0JywgJzIuMDAwMDAwJywgJy1tcycsICcxNicsICctdG4nLCAnOCcsICctbWEnLCAnMjAwJywgJy1pbWFlJywgJzxpbmZpbGUubWFlPicsICctb21hZScsICc8b3V0ZmlsZS5tYWU+Jw==

>  <s_epik_input>  (1533) 
W0NIM11PW0NIMl1bQ0gyXU4oW0NIM10pW0NIMl1jMVtjSF1bY0hdYyhbY0hdW2NIXTEpW0NIMl1OKFtDSDNdKVtDSDJdYzJjKC1jM1tjSF1bY0hdW2NIXVtjSF1bY0hdMylubihbY0hdMiktYzRbY0hdW2NIXVtjSF1bY0hdW2NIXTQ=

>  <s_i_glide_gridfile>  (1533) 
ATP-Grid

>  <s_lp_Force_Field>  (1533) 
OPLS_2005

>  <s_lp_Variant>  (1533) 
m_2230bbc____17609644____679992-4

>  <s_lp_label>  (1533) 
1393_sdstereoexpander_1_neutralizer_1_epik_1_stereoizer_4

>  <s_m_source_file>  (1533) 
ATP-VSW-LIGPREP-002-in.maegz

>  <s_sd_BIOSOLVEIT.INFINISEE\_QUERY\_NAME>  (1533) 
Ref-Lig

>  <s_sd_BIOSOLVEIT.INFINISEE\_QUERY\_SMILES>  (1533) 
S(c1nc2c(cc1C[NH2+]Cc3ccc(cc3)C[NH+](C)C)cccc2)Cc4ccccc4

>  <s_sd_BIOSOLVEIT.INFINISEE\_REACTION\_NAME>  (1533) 
m_2230bbc

>  <s_sd_BIOSOLVEIT.INFINISEE\_REAGENT1\_SMILES>  (1533) 
[R1*]N(Cc1ccc(cc1)CN(CCOC)C)C

>  <s_sd_BIOSOLVEIT.INFINISEE\_REAGENT2\_SMILES>  (1533) 
[R1*]CC=1C(=NN(c2ccccc2)C1)c3ccccc3

>  <s_sd_BIOSOLVEIT.INFINISEE\_SPACE>  (1533) 
REALSpace_44bn_2023-08

>  <s_vsw_compound_code>  (1533) 
44546

>  <s_vsw_variant>  (1533) 
44546-4

>  <r_epik_Charging_Adjusted_Penalty>  (1533) 
0.67717941115631997

>  <r_epik_Ionization_Penalty>  (1533) 
0.34110000000000001

>  <r_epik_Ionization_Penalty_Charging>  (1533) 
0.34110000000000001

>  <r_epik_Ionization_Penalty_Neutral>  (1533) 
0

>  <r_epik_State_Penalty>  (1533) 
0.33610000000000001

>  <r_i_docking_score>  (1533) 
-4.91807100360852

>  <r_i_glide_ecoul>  (1533) 
-12.6316080093384

>  <r_i_glide_eff_state_penalty>  (1533) 
0.33610000000000001

>  <r_i_glide_einternal>  (1533) 
8.8861780166625994

>  <r_i_glide_emodel>  (1533) 
-67.505648193278404

>  <r_i_glide_energy>  (1533) 
-47.6629800796509

>  <r_i_glide_erotb>  (1533) 
0.96393621357428605

>  <r_i_glide_esite>  (1533) 
-0.042665269504174201

>  <r_i_glide_evdw>  (1533) 
-35.0313720703125

>  <r_i_glide_gscore>  (1533) 
-5.2541710036085201

>  <r_i_glide_hbond>  (1533) 
0

>  <r_i_glide_ligand_efficiency>  (1533) 
-0.144649147164956

>  <r_i_glide_ligand_efficiency_ln>  (1533) 
-1.0865398319161901

>  <r_i_glide_ligand_efficiency_sa>  (1533) 
-0.468607083649491

>  <r_i_glide_lipo>  (1533) 
-1.8394111702238101

>  <r_i_glide_metal>  (1533) 
-0

>  <r_i_glide_rewards>  (1533) 
-0.689720972538438

>  <r_lp_Energy>  (1533) 
27.611872000000002

>  <r_lp_tautomer_probability>  (1533) 
1

>  <r_qp_ACxDN^.5/SA>  (1533) 
0

>  <r_qp_CIQPlogS>  (1533) 
-4.9020000000000001

>  <r_qp_EA(eV)>  (1533) 
0.41799999999999998

>  <r_qp_FISA>  (1533) 
9.7430000000000003

>  <r_qp_FOSA>  (1533) 
342.18099999999998

>  <r_qp_IP(eV)>  (1533) 
8.5340000000000007

>  <r_qp_Jm>  (1533) 
0.099667953673878498

>  <r_qp_PISA>  (1533) 
403.50999999999999

>  <r_qp_PSA>  (1533) 
30.800000000000001

>  <r_qp_PercentHumanOralAbsorption>  (1533) 
100

>  <r_qp_QPPCaco>  (1533) 
498.08699999999999

>  <r_qp_QPPMDCK>  (1533) 
285.05700000000002

>  <r_qp_QPlogBB>  (1533) 
0.72399999999999998

>  <r_qp_QPlogHERG>  (1533) 
-7.6740000000000004

>  <r_qp_QPlogKhsa>  (1533) 
0.72199999999999998

>  <r_qp_QPlogKp>  (1533) 
-3.5390000000000001

>  <r_qp_QPlogPC16>  (1533) 
14.734999999999999

>  <r_qp_QPlogPo/w>  (1533) 
4.9980000000000002

>  <r_qp_QPlogPoct>  (1533) 
20.283999999999999

>  <r_qp_QPlogPw>  (1533) 
8.9619999999999997

>  <r_qp_QPlogS>  (1533) 
-3.1200000000000001

>  <r_qp_QPpolrz>  (1533) 
50.902000000000001

>  <r_qp_SASA>  (1533) 
755.43399999999997

>  <r_qp_SAamideO>  (1533) 
0

>  <r_qp_SAfluorine>  (1533) 
0

>  <r_qp_WPSA>  (1533) 
0

>  <r_qp_accptHB>  (1533) 
6.7000000000000002

>  <r_qp_dip^2/V>  (1533) 
0.0019518999999999999

>  <r_qp_dipole>  (1533) 
1.696

>  <r_qp_donorHB>  (1533) 
0

>  <r_qp_glob>  (1533) 
0.82907410000000004

>  <r_qp_mol_MW>  (1533) 
454.61399999999998

>  <r_qp_volume>  (1533) 
1473.7950000000001

>  <r_sd_BIOSOLVEIT.INFINISEE\_FTREES\_SIMILARITY>  (1533) 
0.90900000000000003

>  <r_sd_BIOSOLVEIT.LOGP>  (1533) 
2.4152999999999998

>  <r_sd_BIOSOLVEIT.MOLECULAR\_WEIGHT>  (1533) 
456.63

>  <r_sd_BIOSOLVEIT.TPSA>  (1533) 
35.93

>  <i_epik_Tot_Q>  (1533) 
2

>  <i_epik_Tot_abs_Q>  (1533) 
2

>  <i_f3d_flags>  (1533) 
0

>  <i_i_glide_confnum>  (1533) 
7

>  <i_i_glide_lignum>  (1533) 
489

>  <i_i_glide_posenum>  (1533) 
11

>  <i_i_glide_rotatable_bonds>  (1533) 
11

>  <i_lp_mmshare_version>  (1533) 
65135

>  <i_m_ct_format>  (1533) 
2

>  <i_m_source_file_index>  (1533) 
1393

>  <i_qp_#NandO>  (1533) 
5

>  <i_qp_#acid>  (1533) 
0

>  <i_qp_#amide>  (1533) 
0

>  <i_qp_#amidine>  (1533) 
0

>  <i_qp_#amine>  (1533) 
2

>  <i_qp_#in34>  (1533) 
0

>  <i_qp_#in56>  (1533) 
23

>  <i_qp_#metab>  (1533) 
6

>  <i_qp_#nonHatm>  (1533) 
34

>  <i_qp_#noncon>  (1533) 
0

>  <i_qp_#ringatoms>  (1533) 
23

>  <i_qp_#rotor>  (1533) 
9

>  <i_qp_#rtvFG>  (1533) 
0

>  <i_qp_#stars>  (1533) 
0

>  <i_qp_CNS>  (1533) 
2

>  <i_qp_HumanOralAbsorption>  (1533) 
3

>  <i_qp_RuleOfFive>  (1533) 
0

>  <i_qp_RuleOfThree>  (1533) 
0

>  <i_sd_BIOSOLVEIT.INFINISEE\_REAGENT1\_NAME>  (1533) 
17609644

>  <i_sd_BIOSOLVEIT.INFINISEE\_REAGENT2\_NAME>  (1533) 
679992

>  <i_sd_BIOSOLVEIT.INFINISEE\_RESULT\_RANK>  (1533) 
52194

>  <i_sd_version>  (1533) 
0

>  <b_lp_Chiralities_Consistent>  (1533) 
1

>  <b_sd_chiral_flag>  (1533) 
0

>  <canonical_id>  (1533) 
ATP-HTVS-F13E60D2EE86

>  <compound_code>  (1533) 
44546

>  <title>  (1533) 
m_2230bbc____17609644____679992

>  <variant>  (1533) 
44546-4

>  <source_file>  (1533) 
运行/运行/ATP-VSW/ATP-VSW-DOCK_HTVS_1-002_lib.maegz

>  <canonical_smiles>  (1533) 
COCC[N@@H+](C)Cc1ccc(C[N@H+](C)Cc2cn(-c3ccccc3)nc2-c2ccccc2)cc1

>  <scaffold>  (1533) 
c1ccc(C[NH2+]Cc2cn(-c3ccccc3)nc2-c2ccccc2)cc1

>  <molecular_formula>  (1533) 
C29H36N4O+2

$$$$
ATP-HTVS-F15CD1C1F5FF
     RDKit          3D

 64 67  0  0  0  0  0  0  0  0999 V2000
  193.7047  182.5026  158.5566 F   0  0  0  0  0  0  0  0  0  0  0  0
  194.6318  183.3734  159.0267 C   0  0  0  0  0  0  0  0  0  0  0  0
  196.0070  183.0949  158.8900 C   0  0  0  0  0  0  0  0  0  0  0  0
  196.9630  184.0142  159.3670 C   0  0  0  0  0  0  0  0  0  0  0  0
  196.5495  185.2163  159.9719 C   0  0  0  0  0  0  0  0  0  0  0  0
  195.1754  185.4960  160.1107 C   0  0  0  0  0  0  0  0  0  0  0  0
  194.2224  184.5647  159.6528 C   0  0  0  0  0  0  0  0  0  0  0  0
  194.7218  186.7996  160.7288 C   0  0  1  0  0  0  0  0  0  0  0  0
  194.7460  186.7716  162.1338 O   0  0  0  0  0  0  0  0  0  0  0  0
  196.4747  181.8190  158.2250 C   0  0  1  0  0  0  0  0  0  0  0  0
  196.8343  182.0090  156.8227 N   0  0  0  0  0  0  0  0  0  0  0  0
  197.6942  181.0969  156.1801 C   0  0  0  0  0  0  0  0  0  0  0  0
  198.5975  180.4143  156.9306 N   0  0  0  0  0  0  0  0  0  0  0  0
  199.4172  179.5239  156.3183 C   0  0  0  0  0  0  0  0  0  0  0  0
  199.3497  179.3275  154.9062 C   0  0  0  0  0  0  0  0  0  0  0  0
  198.4552  180.0205  154.1586 N   0  0  0  0  0  0  0  0  0  0  0  0
  197.6241  180.8873  154.7800 C   0  0  0  0  0  0  0  0  0  0  0  0
  196.6669  181.5424  153.9955 N   0  0  0  0  0  0  0  0  0  0  0  0
  196.5950  181.2714  152.5658 C   0  0  1  0  0  0  0  0  0  0  0  0
  196.2614  179.7958  152.2038 C   0  0  1  0  0  0  0  0  0  0  0  0
  196.8470  179.4286  150.8580 C   0  0  0  0  0  0  0  0  0  0  0  0
  198.2008  179.0444  150.7343 C   0  0  0  0  0  0  0  0  0  0  0  0
  198.7147  178.6299  149.4880 C   0  0  0  0  0  0  0  0  0  0  0  0
  197.8762  178.6160  148.3531 C   0  0  0  0  0  0  0  0  0  0  0  0
  196.5328  179.0293  148.4753 C   0  0  0  0  0  0  0  0  0  0  0  0
  196.0291  179.4455  149.7190 C   0  0  0  0  0  0  0  0  0  0  0  0
  198.4017  178.1668  147.0041 C   0  0  1  0  0  0  0  0  0  0  0  0
  198.7796  179.2733  146.1281 N   0  0  0  0  0  0  0  0  0  0  0  0
  199.0786  178.7374  144.8081 C   0  0  2  0  0  0  0  0  0  0  0  0
  199.9677  179.9573  146.6262 C   0  0  2  0  0  0  0  0  0  0  0  0
  200.2126  178.4055  154.2895 C   0  0  0  0  0  0  0  0  0  0  0  0
  201.1458  177.6694  155.0312 C   0  0  0  0  0  0  0  0  0  0  0  0
  201.2118  177.8536  156.4290 C   0  0  0  0  0  0  0  0  0  0  0  0
  200.3500  178.7716  157.0611 C   0  0  0  0  0  0  0  0  0  0  0  0
  198.0151  183.7894  159.2631 H   0  0  0  0  0  0  0  0  0  0  0  0
  197.2877  185.9203  160.3268 H   0  0  0  0  0  0  0  0  0  0  0  0
  193.1683  184.7725  159.7462 H   0  0  0  0  0  0  0  0  0  0  0  0
  195.3523  187.6151  160.3711 H   0  0  0  0  0  0  0  0  0  0  0  0
  193.7024  187.0328  160.4234 H   0  0  0  0  0  0  0  0  0  0  0  0
  195.3633  187.4285  162.4317 H   0  0  0  0  0  0  0  0  0  0  0  0
  197.3072  181.4544  158.8170 H   0  0  0  0  0  0  0  0  0  0  0  0
  195.6987  181.0600  158.3239 H   0  0  0  0  0  0  0  0  0  0  0  0
  196.0698  182.3712  156.2716 H   0  0  0  0  0  0  0  0  0  0  0  0
  196.2655  182.4057  154.3463 H   0  0  0  0  0  0  0  0  0  0  0  0
  195.8424  181.9323  152.1371 H   0  0  0  0  0  0  0  0  0  0  0  0
  197.5428  181.5955  152.1412 H   0  0  0  0  0  0  0  0  0  0  0  0
  196.6594  179.0534  152.9035 H   0  0  0  0  0  0  0  0  0  0  0  0
  195.1754  179.6425  152.1885 H   0  0  0  0  0  0  0  0  0  0  0  0
  198.8500  179.0535  151.5963 H   0  0  0  0  0  0  0  0  0  0  0  0
  199.7528  178.3302  149.4002 H   0  0  0  0  0  0  0  0  0  0  0  0
  195.8808  179.0223  147.6135 H   0  0  0  0  0  0  0  0  0  0  0  0
  195.0018  179.7518  149.8163 H   0  0  0  0  0  0  0  0  0  0  0  0
  199.2421  177.4881  147.1476 H   0  0  0  0  0  0  0  0  0  0  0  0
  197.6103  177.5842  146.5286 H   0  0  0  0  0  0  0  0  0  0  0  0
  199.3590  179.5321  144.1157 H   0  0  0  0  0  0  0  0  0  0  0  0
  198.2013  178.2376  144.4004 H   0  0  0  0  0  0  0  0  0  0  0  0
  199.8936  178.0128  144.8381 H   0  0  0  0  0  0  0  0  0  0  0  0
  200.2750  180.7440  145.9359 H   0  0  0  0  0  0  0  0  0  0  0  0
  200.8029  179.2654  146.7440 H   0  0  0  0  0  0  0  0  0  0  0  0
  199.7747  180.4291  147.5899 H   0  0  0  0  0  0  0  0  0  0  0  0
  200.1483  178.2582  153.2253 H   0  0  0  0  0  0  0  0  0  0  0  0
  201.8122  176.9844  154.5333 H   0  0  0  0  0  0  0  0  0  0  0  0
  201.9507  177.3070  157.0003 H   0  0  0  0  0  0  0  0  0  0  0  0
  200.4118  178.8944  158.1318 H   0  0  0  0  0  0  0  0  0  0  0  0
  1  2  1  0
  2  3  2  0
  2  7  1  0
  3  4  1  0
  3 10  1  0
  4  5  2  0
  4 35  1  0
  5  6  1  0
  5 36  1  0
  6  7  2  0
  6  8  1  0
  7 37  1  0
  8  9  1  0
  8 38  1  6
  8 39  1  0
  9 40  1  0
 10 11  1  0
 10 41  1  1
 10 42  1  0
 11 12  1  0
 11 43  1  0
 12 13  2  0
 12 17  1  0
 13 14  1  0
 14 15  1  0
 14 34  2  0
 15 16  1  0
 15 31  2  0
 16 17  2  0
 17 18  1  0
 18 19  1  0
 18 44  1  0
 19 20  1  0
 19 45  1  6
 19 46  1  0
 20 21  1  0
 20 47  1  1
 20 48  1  0
 21 22  1  0
 21 26  2  0
 22 23  2  0
 22 49  1  0
 23 24  1  0
 23 50  1  0
 24 25  2  0
 24 27  1  0
 25 26  1  0
 25 51  1  0
 26 52  1  0
 27 28  1  0
 27 53  1  1
 27 54  1  0
 28 29  1  0
 28 30  1  0
 29 55  1  6
 29 56  1  0
 29 57  1  0
 30 58  1  6
 30 59  1  0
 30 60  1  0
 31 32  1  0
 31 61  1  0
 32 33  2  0
 32 62  1  0
 33 34  1  0
 33 63  1  0
 34 64  1  0
M  END
>  <s_epik_cmdline>  (1534) 
J2VwaWtfcHl0aG9uJywgJy1waCcsICc3LjAwMDAwMCcsICctcGh0JywgJzIuMDAwMDAwJywgJy1tcycsICcxNicsICctdG4nLCAnOCcsICctbWEnLCAnMjAwJywgJy1pbWFlJywgJzxpbmZpbGUubWFlPicsICctb21hZScsICc8b3V0ZmlsZS5tYWU+Jw==

>  <s_epik_input>  (1534) 
W09IXVtDSDJdYyhbY0hdMSlbY0hdW2NIXWMoYzFGKVtDSDJdW05IXWMobjIpYyhuYyhjMjMpW2NIXVtjSF1bY0hdW2NIXTMpW05IXVtDSDJdW0NIMl1jNFtjSF1bY0hdYyhbY0hdW2NIXTQpW0NIMl1OKFtDSDNdKVtDSDNd

>  <s_i_glide_gridfile>  (1534) 
ATP-Grid

>  <s_lp_Force_Field>  (1534) 
OPLS_2005

>  <s_lp_Variant>  (1534) 
m_282030aaa____21893406____23157418____21967972-2

>  <s_lp_label>  (1534) 
962_sdstereoexpander_1_neutralizer_1_epik_2_stereoizer_1

>  <s_m_source_file>  (1534) 
ATP-VSW-LIGPREP-001-in.maegz

>  <s_sd_BIOSOLVEIT.INFINISEE\_QUERY\_NAME>  (1534) 
Ref-Lig

>  <s_sd_BIOSOLVEIT.INFINISEE\_QUERY\_SMILES>  (1534) 
S(c1nc2c(cc1C[NH2+]Cc3ccc(cc3)C[NH+](C)C)cccc2)Cc4ccccc4

>  <s_sd_BIOSOLVEIT.INFINISEE\_REACTION\_NAME>  (1534) 
m_282030aaa

>  <s_sd_BIOSOLVEIT.INFINISEE\_REAGENT1\_SMILES>  (1534) 
[R1*]NCc1c(F)cc(cc1)CO

>  <s_sd_BIOSOLVEIT.INFINISEE\_REAGENT2\_SMILES>  (1534) 
[R1*]c1nc2c(nc1[R2*])cccc2

>  <s_sd_BIOSOLVEIT.INFINISEE\_REAGENT3\_SMILES>  (1534) 
[R2*]NCCc1ccc(cc1)CN(C)C

>  <s_sd_BIOSOLVEIT.INFINISEE\_SPACE>  (1534) 
REALSpace_44bn_2023-08

>  <s_vsw_compound_code>  (1534) 
30753

>  <s_vsw_variant>  (1534) 
30753-2

>  <r_epik_Charging_Adjusted_Penalty>  (1534) 
1.6032092271001199

>  <r_epik_Ionization_Penalty>  (1534) 
1.6036999999999999

>  <r_epik_Ionization_Penalty_Charging>  (1534) 
0

>  <r_epik_Ionization_Penalty_Neutral>  (1534) 
1.6036999999999999

>  <r_epik_State_Penalty>  (1534) 
1.6032

>  <r_i_docking_score>  (1534) 
-3.55377124897857

>  <r_i_glide_ecoul>  (1534) 
-6.7506275177001998

>  <r_i_glide_eff_state_penalty>  (1534) 
1.6032

>  <r_i_glide_einternal>  (1534) 
6.16349220275879

>  <r_i_glide_emodel>  (1534) 
-57.199951296029802

>  <r_i_glide_energy>  (1534) 
-45.629880905151403

>  <r_i_glide_erotb>  (1534) 
0.85747696127309803

>  <r_i_glide_esite>  (1534) 
-0.20107922917394899

>  <r_i_glide_evdw>  (1534) 
-38.8792533874512

>  <r_i_glide_gscore>  (1534) 
-5.1569712489785697

>  <r_i_glide_hbond>  (1534) 
-0.227579214858878

>  <r_i_glide_ligand_efficiency>  (1534) 
-0.104522683793487

>  <r_i_glide_ligand_efficiency_ln>  (1534) 
-0.78512774880651703

>  <r_i_glide_ligand_efficiency_sa>  (1534) 
-0.338612919520553

>  <r_i_glide_lipo>  (1534) 
-2.3534948078276199

>  <r_i_glide_metal>  (1534) 
-0

>  <r_i_glide_rewards>  (1534) 
-0.27573816136363499

>  <r_lp_Energy>  (1534) 
26.582381999999999

>  <r_qp_ACxDN^.5/SA>  (1534) 
0.0169137

>  <r_qp_CIQPlogS>  (1534) 
-5.9969999999999999

>  <r_qp_EA(eV)>  (1534) 
0.68700000000000006

>  <r_qp_FISA>  (1534) 
76.724999999999994

>  <r_qp_FOSA>  (1534) 
245.727

>  <r_qp_IP(eV)>  (1534) 
8.0419999999999998

>  <r_qp_Jm>  (1534) 
0.46312690084668201

>  <r_qp_PISA>  (1534) 
344.48500000000001

>  <r_qp_PSA>  (1534) 
68.361000000000004

>  <r_qp_PercentHumanOralAbsorption>  (1534) 
100

>  <r_qp_QPPCaco>  (1534) 
462.61099999999999

>  <r_qp_QPPMDCK>  (1534) 
302.983

>  <r_qp_QPlogBB>  (1534) 
-0.32200000000000001

>  <r_qp_QPlogHERG>  (1534) 
-5.9269999999999996

>  <r_qp_QPlogKhsa>  (1534) 
0.55200000000000005

>  <r_qp_QPlogKp>  (1534) 
-2.7269999999999999

>  <r_qp_QPlogPC16>  (1534) 
14.505000000000001

>  <r_qp_QPlogPo/w>  (1534) 
4.3220000000000001

>  <r_qp_QPlogPoct>  (1534) 
23.696999999999999

>  <r_qp_QPlogPw>  (1534) 
12.808999999999999

>  <r_qp_QPlogS>  (1534) 
-3.27

>  <r_qp_QPpolrz>  (1534) 
45.405000000000001

>  <r_qp_SASA>  (1534) 
686.11400000000003

>  <r_qp_SAamideO>  (1534) 
0

>  <r_qp_SAfluorine>  (1534) 
19.177

>  <r_qp_WPSA>  (1534) 
19.177

>  <r_qp_accptHB>  (1534) 
6.7000000000000002

>  <r_qp_dip^2/V>  (1534) 
0.043015699999999997

>  <r_qp_dipole>  (1534) 
7.7119999999999997

>  <r_qp_donorHB>  (1534) 
3

>  <r_qp_glob>  (1534) 
0.87479260000000003

>  <r_qp_mol_MW>  (1534) 
459.565

>  <r_qp_volume>  (1534) 
1382.626

>  <r_sd_BIOSOLVEIT.INFINISEE\_FTREES\_SIMILARITY>  (1534) 
0.91700000000000004

>  <r_sd_BIOSOLVEIT.LOGP>  (1534) 
3.1724000000000001

>  <r_sd_BIOSOLVEIT.MOLECULAR\_WEIGHT>  (1534) 
460.57400000000001

>  <r_sd_BIOSOLVEIT.TPSA>  (1534) 
74.510000000000005

>  <i_epik_Tot_Q>  (1534) 
0

>  <i_epik_Tot_abs_Q>  (1534) 
0

>  <i_f3d_flags>  (1534) 
0

>  <i_i_glide_confnum>  (1534) 
10

>  <i_i_glide_lignum>  (1534) 
195

>  <i_i_glide_posenum>  (1534) 
5

>  <i_i_glide_rotatable_bonds>  (1534) 
11

>  <i_lp_mmshare_version>  (1534) 
65135

>  <i_m_ct_format>  (1534) 
2

>  <i_m_source_file_index>  (1534) 
962

>  <i_qp_#NandO>  (1534) 
6

>  <i_qp_#acid>  (1534) 
0

>  <i_qp_#amide>  (1534) 
0

>  <i_qp_#amidine>  (1534) 
0

>  <i_qp_#amine>  (1534) 
1

>  <i_qp_#in34>  (1534) 
0

>  <i_qp_#in56>  (1534) 
22

>  <i_qp_#metab>  (1534) 
5

>  <i_qp_#nonHatm>  (1534) 
34

>  <i_qp_#noncon>  (1534) 
0

>  <i_qp_#ringatoms>  (1534) 
22

>  <i_qp_#rotor>  (1534) 
11

>  <i_qp_#rtvFG>  (1534) 
0

>  <i_qp_#stars>  (1534) 
0

>  <i_qp_CNS>  (1534) 
0

>  <i_qp_HumanOralAbsorption>  (1534) 
3

>  <i_qp_RuleOfFive>  (1534) 
0

>  <i_qp_RuleOfThree>  (1534) 
0

>  <i_sd_BIOSOLVEIT.INFINISEE\_REAGENT1\_NAME>  (1534) 
21893406

>  <i_sd_BIOSOLVEIT.INFINISEE\_REAGENT2\_NAME>  (1534) 
23157418

>  <i_sd_BIOSOLVEIT.INFINISEE\_REAGENT3\_NAME>  (1534) 
21967972

>  <i_sd_BIOSOLVEIT.INFINISEE\_RESULT\_RANK>  (1534) 
23397

>  <i_sd_version>  (1534) 
0

>  <b_lp_Chiralities_Consistent>  (1534) 
1

>  <b_sd_chiral_flag>  (1534) 
0

>  <canonical_id>  (1534) 
ATP-HTVS-F15CD1C1F5FF

>  <compound_code>  (1534) 
30753

>  <title>  (1534) 
m_282030aaa____21893406____23157418____21967972

>  <variant>  (1534) 
30753-2

>  <source_file>  (1534) 
运行/运行/ATP-VSW/ATP-VSW-DOCK_HTVS_1-001_lib/ATP-VSW-DOCK_HTVS_1-001_lib

>  <canonical_smiles>  (1534) 
CN(C)Cc1ccc(CCNc2nc3ccccc3nc2NCc2ccc(CO)cc2F)cc1

>  <scaffold>  (1534) 
c1ccc(CCNc2nc3ccccc3nc2NCc2ccccc2)cc1

>  <molecular_formula>  (1534) 
C27H30FN5O

$$$$
ATP-HTVS-F1ABC01A08C5
     RDKit          3D

 49 51  0  0  0  0  0  0  0  0999 V2000
  199.6960  178.9223  145.4385 F   0  0  0  0  0  0  0  0  0  0  0  0
  199.7052  177.7314  146.0846 C   0  0  0  0  0  0  0  0  0  0  0  0
  198.7070  177.4242  147.0309 C   0  0  0  0  0  0  0  0  0  0  0  0
  197.7023  178.3231  147.3049 O   0  0  0  0  0  0  0  0  0  0  0  0
  197.5963  178.8127  148.5842 C   0  0  0  0  0  0  0  0  0  0  0  0
  196.3664  179.2632  148.9353 N   0  0  0  0  0  0  0  0  0  0  0  0
  196.2030  179.7669  150.1786 C   0  0  0  0  0  0  0  0  0  0  0  0
  197.2354  179.8502  151.1326 C   0  0  0  0  0  0  0  0  0  0  0  0
  196.9767  180.4136  152.3896 N   0  0  0  0  0  0  0  0  0  0  0  0
  198.0688  181.1413  153.0258 C   0  0  1  0  0  0  0  0  0  0  0  0
  197.6796  181.8195  154.3206 C   0  0  0  0  0  0  0  0  0  0  0  0
  197.5718  183.2210  154.3931 C   0  0  0  0  0  0  0  0  0  0  0  0
  197.1818  183.8328  155.6042 C   0  0  0  0  0  0  0  0  0  0  0  0
  196.8903  183.0458  156.7455 C   0  0  0  0  0  0  0  0  0  0  0  0
  197.0684  181.6493  156.6717 C   0  0  0  0  0  0  0  0  0  0  0  0
  197.4267  181.0378  155.4771 C   0  0  0  0  0  0  0  0  0  0  0  0
  196.3538  183.6722  158.0248 C   0  0  1  0  0  0  0  0  0  0  0  0
  194.9246  183.3443  158.3057 N   0  0  1  0  0  0  0  0  0  0  0  0
  194.6620  181.8959  158.4831 C   0  0  2  0  0  0  0  0  0  0  0  0
  194.3747  184.1334  159.4365 C   0  0  2  0  0  0  0  0  0  0  0  0
  198.5106  179.3636  150.7583 C   0  0  0  0  0  0  0  0  0  0  0  0
  198.6940  178.8529  149.4678 C   0  0  0  0  0  0  0  0  0  0  0  0
  198.7503  176.1883  147.7094 C   0  0  0  0  0  0  0  0  0  0  0  0
  199.7709  175.2640  147.4513 C   0  0  0  0  0  0  0  0  0  0  0  0
  200.7672  175.5673  146.5045 C   0  0  0  0  0  0  0  0  0  0  0  0
  200.7332  176.8009  145.8224 C   0  0  0  0  0  0  0  0  0  0  0  0
  195.2093  180.1125  150.4129 H   0  0  0  0  0  0  0  0  0  0  0  0
  196.0530  180.7844  152.5568 H   0  0  0  0  0  0  0  0  0  0  0  0
  198.8840  180.4541  153.2562 H   0  0  0  0  0  0  0  0  0  0  0  0
  198.4603  181.8821  152.3302 H   0  0  0  0  0  0  0  0  0  0  0  0
  197.7681  183.8298  153.5225 H   0  0  0  0  0  0  0  0  0  0  0  0
  197.0558  184.9082  155.6309 H   0  0  0  0  0  0  0  0  0  0  0  0
  196.8465  181.0384  157.5466 H   0  0  0  0  0  0  0  0  0  0  0  0
  197.5014  179.9552  155.4182 H   0  0  0  0  0  0  0  0  0  0  0  0
  196.9822  183.3628  158.8644 H   0  0  0  0  0  0  0  0  0  0  0  0
  196.4617  184.7553  157.9550 H   0  0  0  0  0  0  0  0  0  0  0  0
  195.2455  181.5019  159.3154 H   0  0  0  0  0  0  0  0  0  0  0  0
  194.9472  181.3422  157.5922 H   0  0  0  0  0  0  0  0  0  0  0  0
  193.6032  181.7175  158.7223 H   0  0  0  0  0  0  0  0  0  0  0  0
  194.9184  183.9243  160.3581 H   0  0  0  0  0  0  0  0  0  0  0  0
  193.3288  183.8836  159.6084 H   0  0  0  0  0  0  0  0  0  0  0  0
  194.4237  185.2073  159.2549 H   0  0  0  0  0  0  0  0  0  0  0  0
  199.3493  179.3757  151.4456 H   0  0  0  0  0  0  0  0  0  0  0  0
  199.6754  178.4952  149.1769 H   0  0  0  0  0  0  0  0  0  0  0  0
  197.9818  175.9525  148.4375 H   0  0  0  0  0  0  0  0  0  0  0  0
  199.7897  174.3195  147.9778 H   0  0  0  0  0  0  0  0  0  0  0  0
  201.5490  174.8527  146.2990 H   0  0  0  0  0  0  0  0  0  0  0  0
  201.4982  177.0315  145.0951 H   0  0  0  0  0  0  0  0  0  0  0  0
  194.3991  183.5977  157.4792 H   0  0  0  0  0  0  0  0  0  0  0  0
  1  2  1  0
  2  3  1  0
  2 26  2  0
  3  4  1  0
  3 23  2  0
  4  5  1  0
  5  6  1  0
  5 22  2  0
  6  7  2  0
  7  8  1  0
  7 27  1  0
  8  9  1  0
  8 21  2  0
  9 10  1  0
  9 28  1  0
 10 11  1  0
 10 29  1  1
 10 30  1  0
 11 12  1  0
 11 16  2  0
 12 13  2  0
 12 31  1  0
 13 14  1  0
 13 32  1  0
 14 15  2  0
 14 17  1  0
 15 16  1  0
 15 33  1  0
 16 34  1  0
 17 18  1  0
 17 35  1  1
 17 36  1  0
 18 19  1  0
 18 20  1  0
 18 49  1  6
 19 37  1  1
 19 38  1  0
 19 39  1  0
 20 40  1  1
 20 41  1  0
 20 42  1  0
 21 22  1  0
 21 43  1  0
 22 44  1  0
 23 24  1  0
 23 45  1  0
 24 25  2  0
 24 46  1  0
 25 26  1  0
 25 47  1  0
 26 48  1  0
M  CHG  1  18   1
M  END
>  <s_epik_cmdline>  (1535) 
J2VwaWtfcHl0aG9uJywgJy1waCcsICc3LjAwMDAwMCcsICctcGh0JywgJzIuMDAwMDAwJywgJy1tcycsICcxNicsICctdG4nLCAnOCcsICctbWEnLCAnMjAwJywgJy1pbWFlJywgJzxpbmZpbGUubWFlPicsICctb21hZScsICc8b3V0ZmlsZS5tYWU+Jw==

>  <s_epik_input>  (1535) 
W2NIXTFbY0hdW2NIXVtjSF1jKGMxRilPYzJuW2NIXWMoW2NIXVtjSF0yKVtOSF1bQ0gyXWMzW2NIXVtjSF1jKFtjSF1bY0hdMylbQ0gyXU4oW0NIM10pW0NIM10=

>  <s_i_glide_gridfile>  (1535) 
ATP-Grid

>  <s_lp_Force_Field>  (1535) 
OPLS_2005

>  <s_lp_Variant>  (1535) 
a4____267243____18622-1

>  <s_lp_label>  (1535) 
364_sdstereoexpander_1_neutralizer_1_epik_1_stereoizer_1

>  <s_m_source_file>  (1535) 
ATP-VSW-LIGPREP-002-in.maegz

>  <s_sd_BIOSOLVEIT.INFINISEE\_QUERY\_NAME>  (1535) 
Ref-Lig

>  <s_sd_BIOSOLVEIT.INFINISEE\_QUERY\_SMILES>  (1535) 
S(c1nc2c(cc1C[NH2+]Cc3ccc(cc3)C[NH+](C)C)cccc2)Cc4ccccc4

>  <s_sd_BIOSOLVEIT.INFINISEE\_REACTION\_NAME>  (1535) 
a4

>  <s_sd_BIOSOLVEIT.INFINISEE\_REAGENT1\_SMILES>  (1535) 
[R1*]Nc1cnc(Oc2c(F)cccc2)cc1

>  <s_sd_BIOSOLVEIT.INFINISEE\_REAGENT2\_SMILES>  (1535) 
[R1*]Cc1ccc(cc1)CN(C)C

>  <s_sd_BIOSOLVEIT.INFINISEE\_SPACE>  (1535) 
FreedomSpace_5bn_2023-06

>  <s_vsw_compound_code>  (1535) 
11618

>  <s_vsw_variant>  (1535) 
11618-1

>  <r_epik_Charging_Adjusted_Penalty>  (1535) 
0.078407994868761793

>  <r_epik_Ionization_Penalty>  (1535) 
0.039199999999999999

>  <r_epik_Ionization_Penalty_Charging>  (1535) 
0.039199999999999999

>  <r_epik_Ionization_Penalty_Neutral>  (1535) 
0

>  <r_epik_State_Penalty>  (1535) 
0.039199999999999999

>  <r_i_docking_score>  (1535) 
-3.72761112959487

>  <r_i_glide_ecoul>  (1535) 
-6.9276366233825701

>  <r_i_glide_eff_state_penalty>  (1535) 
0.039199999999999999

>  <r_i_glide_einternal>  (1535) 
0.692044317722321

>  <r_i_glide_emodel>  (1535) 
-47.709897543734101

>  <r_i_glide_energy>  (1535) 
-36.370227336883502

>  <r_i_glide_erotb>  (1535) 
0.92194187740807798

>  <r_i_glide_esite>  (1535) 
-0.0863280258934645

>  <r_i_glide_evdw>  (1535) 
-29.442590713501001

>  <r_i_glide_gscore>  (1535) 
-3.7668111295948701

>  <r_i_glide_hbond>  (1535) 
-0.123350402609761

>  <r_i_glide_ligand_efficiency>  (1535) 
-0.14336965883057201

>  <r_i_glide_ligand_efficiency_ln>  (1535) 
-0.87541724249561004

>  <r_i_glide_ligand_efficiency_sa>  (1535) 
-0.42473205015320298

>  <r_i_glide_lipo>  (1535) 
-0.96160788795365204

>  <r_i_glide_metal>  (1535) 
-0

>  <r_i_glide_rewards>  (1535) 
-1.0061916613636399

>  <r_lp_Energy>  (1535) 
21.472498999999999

>  <r_lp_tautomer_probability>  (1535) 
1

>  <r_qp_ACxDN^.5/SA>  (1535) 
0.0072240000000000004

>  <r_qp_CIQPlogS>  (1535) 
-4.5880000000000001

>  <r_qp_EA(eV)>  (1535) 
0.13500000000000001

>  <r_qp_FISA>  (1535) 
32.530000000000001

>  <r_qp_FOSA>  (1535) 
199.941

>  <r_qp_IP(eV)>  (1535) 
8.4870000000000001

>  <r_qp_Jm>  (1535) 
0.28872785270960699

>  <r_qp_PISA>  (1535) 
349.28899999999999

>  <r_qp_PSA>  (1535) 
37.298999999999999

>  <r_qp_PercentHumanOralAbsorption>  (1535) 
100

>  <r_qp_QPPCaco>  (1535) 
1214.277

>  <r_qp_QPPMDCK>  (1535) 
1134.634

>  <r_qp_QPlogBB>  (1535) 
0.34399999999999997

>  <r_qp_QPlogHERG>  (1535) 
-6.29

>  <r_qp_QPlogKhsa>  (1535) 
0.59299999999999997

>  <r_qp_QPlogKp>  (1535) 
-2.2789999999999999

>  <r_qp_QPlogPC16>  (1535) 
11.603

>  <r_qp_QPlogPo/w>  (1535) 
4.4619999999999997

>  <r_qp_QPlogPoct>  (1535) 
16.933

>  <r_qp_QPlogPw>  (1535) 
8.1829999999999998

>  <r_qp_QPlogS>  (1535) 
-3.806

>  <r_qp_QPpolrz>  (1535) 
38.838000000000001

>  <r_qp_SASA>  (1535) 
622.923

>  <r_qp_SAamideO>  (1535) 
0

>  <r_qp_SAfluorine>  (1535) 
41.162999999999997

>  <r_qp_WPSA>  (1535) 
41.162999999999997

>  <r_qp_accptHB>  (1535) 
4.5

>  <r_qp_dip^2/V>  (1535) 
0.026995600000000002

>  <r_qp_dipole>  (1535) 
5.5800000000000001

>  <r_qp_donorHB>  (1535) 
1

>  <r_qp_glob>  (1535) 
0.85375639999999997

>  <r_qp_mol_MW>  (1535) 
351.423

>  <r_qp_volume>  (1535) 
1153.2

>  <r_sd_BIOSOLVEIT.INFINISEE\_FTREES\_SIMILARITY>  (1535) 
0.91000000000000003

>  <r_sd_BIOSOLVEIT.LOGP>  (1535) 
3.2696000000000001

>  <r_sd_BIOSOLVEIT.MOLECULAR\_WEIGHT>  (1535) 
352.43099999999998

>  <r_sd_BIOSOLVEIT.TPSA>  (1535) 
38.590000000000003

>  <i_epik_Tot_Q>  (1535) 
1

>  <i_epik_Tot_abs_Q>  (1535) 
1

>  <i_f3d_flags>  (1535) 
0

>  <i_i_glide_confnum>  (1535) 
2

>  <i_i_glide_lignum>  (1535) 
149

>  <i_i_glide_posenum>  (1535) 
14

>  <i_i_glide_rotatable_bonds>  (1535) 
7

>  <i_lp_mmshare_version>  (1535) 
65135

>  <i_m_ct_format>  (1535) 
2

>  <i_m_source_file_index>  (1535) 
364

>  <i_qp_#NandO>  (1535) 
4

>  <i_qp_#acid>  (1535) 
0

>  <i_qp_#amide>  (1535) 
0

>  <i_qp_#amidine>  (1535) 
0

>  <i_qp_#amine>  (1535) 
1

>  <i_qp_#in34>  (1535) 
0

>  <i_qp_#in56>  (1535) 
18

>  <i_qp_#metab>  (1535) 
6

>  <i_qp_#nonHatm>  (1535) 
26

>  <i_qp_#noncon>  (1535) 
0

>  <i_qp_#ringatoms>  (1535) 
18

>  <i_qp_#rotor>  (1535) 
7

>  <i_qp_#rtvFG>  (1535) 
0

>  <i_qp_#stars>  (1535) 
0

>  <i_qp_CNS>  (1535) 
1

>  <i_qp_HumanOralAbsorption>  (1535) 
3

>  <i_qp_RuleOfFive>  (1535) 
0

>  <i_qp_RuleOfThree>  (1535) 
0

>  <i_sd_BIOSOLVEIT.INFINISEE\_REAGENT1\_NAME>  (1535) 
267243

>  <i_sd_BIOSOLVEIT.INFINISEE\_REAGENT2\_NAME>  (1535) 
18622

>  <i_sd_BIOSOLVEIT.INFINISEE\_RESULT\_RANK>  (1535) 
44701

>  <i_sd_version>  (1535) 
0

>  <b_lp_Chiralities_Consistent>  (1535) 
1

>  <b_sd_chiral_flag>  (1535) 
0

>  <canonical_id>  (1535) 
ATP-HTVS-F1ABC01A08C5

>  <compound_code>  (1535) 
11618

>  <title>  (1535) 
a4____267243____18622

>  <variant>  (1535) 
11618-1

>  <source_file>  (1535) 
运行/运行/ATP-VSW/ATP-VSW-DOCK_HTVS_1-002_lib.maegz

>  <canonical_smiles>  (1535) 
C[NH+](C)Cc1ccc(CNc2ccc(Oc3ccccc3F)nc2)cc1

>  <scaffold>  (1535) 
c1ccc(CNc2ccc(Oc3ccccc3)nc2)cc1

>  <molecular_formula>  (1535) 
C21H23FN3O+

$$$$
ATP-HTVS-F1D0837E8A30
     RDKit          3D

 61 64  0  0  0  0  0  0  0  0999 V2000
  200.5879  183.4495  159.5009 O   0  0  0  0  0  0  0  0  0  0  0  0
  199.8051  184.3170  159.1061 C   0  0  0  0  0  0  0  0  0  0  0  0
  200.2294  185.5888  158.8417 N   0  0  0  0  0  0  0  0  0  0  0  0
  199.3551  186.6591  158.4592 C   0  0  0  0  0  0  0  0  0  0  0  0
  199.3155  187.8352  159.2431 C   0  0  0  0  0  0  0  0  0  0  0  0
  198.4108  188.8683  158.9285 C   0  0  0  0  0  0  0  0  0  0  0  0
  197.5426  188.7309  157.8304 C   0  0  0  0  0  0  0  0  0  0  0  0
  197.5779  187.5673  157.0387 C   0  0  0  0  0  0  0  0  0  0  0  0
  198.4973  186.5468  157.3371 C   0  0  0  0  0  0  0  0  0  0  0  0
  201.6534  185.9416  159.0142 C   0  0  2  0  0  0  0  0  0  0  0  0
  202.5098  185.2260  158.0510 C   0  0  0  0  0  0  0  0  0  0  0  0
  203.1820  184.6703  157.2893 N   0  0  0  0  0  0  0  0  0  0  0  0
  202.1474  185.7951  160.4696 C   0  0  2  0  0  0  0  0  0  0  0  0
  198.3685  183.9598  158.9314 C   0  0  0  0  0  0  0  0  0  0  0  0
  197.4613  184.7067  159.6745 N   0  0  0  0  0  0  0  0  0  0  0  0
  196.1703  184.3205  159.4244 C   0  0  0  0  0  0  0  0  0  0  0  0
  196.2681  183.2054  158.5494 C   0  0  0  0  0  0  0  0  0  0  0  0
  195.0509  182.5950  158.1614 C   0  0  0  0  0  0  0  0  0  0  0  0
  193.8095  183.1086  158.5869 C   0  0  0  0  0  0  0  0  0  0  0  0
  193.7548  184.2276  159.4379 C   0  0  0  0  0  0  0  0  0  0  0  0
  194.9469  184.8421  159.8633 C   0  0  0  0  0  0  0  0  0  0  0  0
  197.6557  182.9863  158.2440 C   0  0  0  0  0  0  0  0  0  0  0  0
  198.0424  181.9696  157.3373 N   0  0  0  0  0  0  0  0  0  0  0  0
  199.4013  181.7498  156.8627 C   0  0  1  0  0  0  0  0  0  0  0  0
  199.7505  180.3134  156.5612 C   0  0  0  0  0  0  0  0  0  0  0  0
  200.7990  179.6848  157.2597 C   0  0  0  0  0  0  0  0  0  0  0  0
  201.1437  178.3526  156.9953 C   0  0  0  0  0  0  0  0  0  0  0  0
  200.4426  177.6186  156.0029 C   0  0  0  0  0  0  0  0  0  0  0  0
  200.7640  176.2939  155.6693 N   0  0  0  0  0  0  0  0  0  0  0  0
  201.9722  175.6985  156.2190 C   0  0  1  0  0  0  0  0  0  0  0  0
  202.3388  174.3701  155.5620 C   0  0  1  0  0  0  0  0  0  0  0  0
  203.5327  173.8687  156.1339 O   0  0  0  0  0  0  0  0  0  0  0  0
  199.3811  178.2532  155.3133 C   0  0  0  0  0  0  0  0  0  0  0  0
  199.0291  179.5881  155.5939 C   0  0  0  0  0  0  0  0  0  0  0  0
  199.9473  187.9444  160.1171 H   0  0  0  0  0  0  0  0  0  0  0  0
  198.3759  189.7524  159.5511 H   0  0  0  0  0  0  0  0  0  0  0  0
  196.8374  189.5172  157.6055 H   0  0  0  0  0  0  0  0  0  0  0  0
  196.8924  187.4387  156.2134 H   0  0  0  0  0  0  0  0  0  0  0  0
  198.4974  185.6509  156.7322 H   0  0  0  0  0  0  0  0  0  0  0  0
  201.7983  186.9887  158.7289 H   0  0  0  0  0  0  0  0  0  0  0  0
  203.1618  186.1767  160.5708 H   0  0  0  0  0  0  0  0  0  0  0  0
  202.1793  184.7590  160.8057 H   0  0  0  0  0  0  0  0  0  0  0  0
  201.5071  186.3404  161.1627 H   0  0  0  0  0  0  0  0  0  0  0  0
  197.7312  185.5413  160.1754 H   0  0  0  0  0  0  0  0  0  0  0  0
  195.0591  181.7558  157.4831 H   0  0  0  0  0  0  0  0  0  0  0  0
  192.8973  182.6399  158.2533 H   0  0  0  0  0  0  0  0  0  0  0  0
  192.7990  184.6259  159.7498 H   0  0  0  0  0  0  0  0  0  0  0  0
  194.9101  185.7222  160.4920 H   0  0  0  0  0  0  0  0  0  0  0  0
  197.3672  181.2282  157.1740 H   0  0  0  0  0  0  0  0  0  0  0  0
  199.5986  182.3794  155.9904 H   0  0  0  0  0  0  0  0  0  0  0  0
  200.1215  182.0048  157.6132 H   0  0  0  0  0  0  0  0  0  0  0  0
  201.3535  180.2149  158.0134 H   0  0  0  0  0  0  0  0  0  0  0  0
  201.9471  177.9239  157.5692 H   0  0  0  0  0  0  0  0  0  0  0  0
  200.1776  175.7677  155.0340 H   0  0  0  0  0  0  0  0  0  0  0  0
  202.8023  176.3862  156.0707 H   0  0  0  0  0  0  0  0  0  0  0  0
  201.8347  175.5540  157.2921 H   0  0  0  0  0  0  0  0  0  0  0  0
  201.5331  173.6498  155.6750 H   0  0  0  0  0  0  0  0  0  0  0  0
  202.5039  174.5185  154.4926 H   0  0  0  0  0  0  0  0  0  0  0  0
  203.4399  173.8258  157.0761 H   0  0  0  0  0  0  0  0  0  0  0  0
  198.8199  177.7246  154.5492 H   0  0  0  0  0  0  0  0  0  0  0  0
  198.2138  180.0712  155.0708 H   0  0  0  0  0  0  0  0  0  0  0  0
  1  2  2  0
  2  3  1  0
  2 14  1  0
  3  4  1  0
  3 10  1  0
  4  5  2  0
  4  9  1  0
  5  6  1  0
  5 35  1  0
  6  7  2  0
  6 36  1  0
  7  8  1  0
  7 37  1  0
  8  9  2  0
  8 38  1  0
  9 39  1  0
 10 11  1  0
 10 13  1  0
 10 40  1  6
 11 12  3  0
 13 41  1  6
 13 42  1  0
 13 43  1  0
 14 15  1  0
 14 22  2  0
 15 16  1  0
 15 44  1  0
 16 17  1  0
 16 21  2  0
 17 18  2  0
 17 22  1  0
 18 19  1  0
 18 45  1  0
 19 20  2  0
 19 46  1  0
 20 21  1  0
 20 47  1  0
 21 48  1  0
 22 23  1  0
 23 24  1  0
 23 49  1  0
 24 25  1  0
 24 50  1  6
 24 51  1  0
 25 26  1  0
 25 34  2  0
 26 27  2  0
 26 52  1  0
 27 28  1  0
 27 53  1  0
 28 29  1  0
 28 33  2  0
 29 30  1  0
 29 54  1  0
 30 31  1  0
 30 55  1  1
 30 56  1  0
 31 32  1  0
 31 57  1  6
 31 58  1  0
 32 59  1  0
 33 34  1  0
 33 60  1  0
 34 61  1  0
M  END
>  <s_epik_cmdline>  (1536) 
J2VwaWtfcHl0aG9uJywgJy1waCcsICc3LjAwMDAwMCcsICctcGh0JywgJzIuMDAwMDAwJywgJy1tcycsICcxNicsICctdG4nLCAnOCcsICctbWEnLCAnMjAwJywgJy1pbWFlJywgJzxpbmZpbGUubWFlPicsICctb21hZScsICc8b3V0ZmlsZS5tYWU+Jw==

>  <s_epik_input>  (1536) 
W2NIXTFbY0hdW2NIXVtjSF1bY0hdYzFOKFtDQEhdKEMjTilbQ0gzXSlDKD1PKWMoW25IXTIpYyhjKGMyMylbY0hdW2NIXVtjSF1bY0hdMylbTkhdW0NIMl1jNFtjSF1bY0hdYyhbY0hdW2NIXTQpW05IXVtDSDJdW0NIMl1bT0hd

>  <s_i_glide_gridfile>  (1536) 
ATP-Grid

>  <s_lp_Force_Field>  (1536) 
OPLS_2005

>  <s_lp_Variant>  (1536) 
rxn512b____EMOL36790511____EMOL719673____EMOL324170366-2

>  <s_lp_label>  (1536) 
2358_sdstereoexpander_2_neutralizer_1_epik_1_stereoizer_1

>  <s_m_source_file>  (1536) 
ATP-VSW-LIGPREP-002-in.maegz

>  <s_sd_BIOSOLVEIT.INFINISEE\_QUERY\_NAME>  (1536) 
Ref-Lig

>  <s_sd_BIOSOLVEIT.INFINISEE\_QUERY\_SMILES>  (1536) 
S(c1nc2c(cc1C[NH2+]Cc3ccc(cc3)C[NH+](C)C)cccc2)Cc4ccccc4

>  <s_sd_BIOSOLVEIT.INFINISEE\_REACTION\_NAME>  (1536) 
rxn512b

>  <s_sd_BIOSOLVEIT.INFINISEE\_REAGENT1\_NAME>  (1536) 
EMOL36790511

>  <s_sd_BIOSOLVEIT.INFINISEE\_REAGENT1\_SMILES>  (1536) 
N#CC(Nc1ccccc1)C

>  <s_sd_BIOSOLVEIT.INFINISEE\_REAGENT2\_NAME>  (1536) 
EMOL719673

>  <s_sd_BIOSOLVEIT.INFINISEE\_REAGENT2\_SMILES>  (1536) 
BrC=1c2c(NC1C(=O)O)cccc2

>  <s_sd_BIOSOLVEIT.INFINISEE\_REAGENT3\_NAME>  (1536) 
EMOL324170366

>  <s_sd_BIOSOLVEIT.INFINISEE\_REAGENT3\_SMILES>  (1536) 
OCCNc1ccc(cc1)CN

>  <s_sd_BIOSOLVEIT.INFINISEE\_SPACE>  (1536) 
eXplore_7tr_2022-12

>  <s_vsw_compound_code>  (1536) 
75426

>  <s_vsw_variant>  (1536) 
75426-2

>  <r_epik_Charging_Adjusted_Penalty>  (1536) 
0.0079056630964256108

>  <r_epik_Ionization_Penalty>  (1536) 
0.0079000000000000008

>  <r_epik_Ionization_Penalty_Charging>  (1536) 
0

>  <r_epik_Ionization_Penalty_Neutral>  (1536) 
0.0079000000000000008

>  <r_epik_State_Penalty>  (1536) 
0.0079000000000000008

>  <r_i_docking_score>  (1536) 
-3.5094508665273301

>  <r_i_glide_ecoul>  (1536) 
-1.98488664627075

>  <r_i_glide_eff_state_penalty>  (1536) 
0.0079000000000000008

>  <r_i_glide_einternal>  (1536) 
5.9828000068664604

>  <r_i_glide_emodel>  (1536) 
-47.036982531893301

>  <r_i_glide_energy>  (1536) 
-41.078686237335198

>  <r_i_glide_erotb>  (1536) 
0.87831780953562399

>  <r_i_glide_esite>  (1536) 
-0.030005885514822202

>  <r_i_glide_evdw>  (1536) 
-39.093799591064503

>  <r_i_glide_gscore>  (1536) 
-3.5173508665273299

>  <r_i_glide_hbond>  (1536) 
0

>  <r_i_glide_ligand_efficiency>  (1536) 
-0.103219143133157

>  <r_i_glide_ligand_efficiency_ln>  (1536) 
-0.77533613317841898

>  <r_i_glide_ligand_efficiency_sa>  (1536) 
-0.33438995381886499

>  <r_i_glide_lipo>  (1536) 
-1.6145422660439599

>  <r_i_glide_metal>  (1536) 
-0

>  <r_i_glide_rewards>  (1536) 
-0.498697548010339

>  <r_lp_Energy>  (1536) 
45.104196999999999

>  <r_qp_ACxDN^.5/SA>  (1536) 
0.015699600000000001

>  <r_qp_CIQPlogS>  (1536) 
-6.6319999999999997

>  <r_qp_EA(eV)>  (1536) 
0.45000000000000001

>  <r_qp_FISA>  (1536) 
172.34100000000001

>  <r_qp_FOSA>  (1536) 
174.24799999999999

>  <r_qp_IP(eV)>  (1536) 
7.4640000000000004

>  <r_qp_Jm>  (1536) 
4.7585675901970799e-05

>  <r_qp_PISA>  (1536) 
447.74799999999999

>  <r_qp_PSA>  (1536) 
106.429

>  <r_qp_PercentHumanOralAbsorption>  (1536) 
81.168000000000006

>  <r_qp_QPPCaco>  (1536) 
57.344999999999999

>  <r_qp_QPPMDCK>  (1536) 
24.905999999999999

>  <r_qp_QPlogBB>  (1536) 
-1.5800000000000001

>  <r_qp_QPlogHERG>  (1536) 
-7.9219999999999997

>  <r_qp_QPlogKhsa>  (1536) 
0.57699999999999996

>  <r_qp_QPlogKp>  (1536) 
-4.125

>  <r_qp_QPlogPC16>  (1536) 
16.916

>  <r_qp_QPlogPo/w>  (1536) 
3.8849999999999998

>  <r_qp_QPlogPoct>  (1536) 
25.928000000000001

>  <r_qp_QPlogPw>  (1536) 
14.907999999999999

>  <r_qp_QPlogS>  (1536) 
-5.8540000000000001

>  <r_qp_QPpolrz>  (1536) 
49.305

>  <r_qp_SASA>  (1536) 
794.33699999999999

>  <r_qp_SAamideO>  (1536) 
0

>  <r_qp_SAfluorine>  (1536) 
0

>  <r_qp_WPSA>  (1536) 
0

>  <r_qp_accptHB>  (1536) 
7.2000000000000002

>  <r_qp_dip^2/V>  (1536) 
0.074286599999999994

>  <r_qp_dipole>  (1536) 
10.398

>  <r_qp_donorHB>  (1536) 
3

>  <r_qp_glob>  (1536) 
0.78190769999999998

>  <r_qp_mol_MW>  (1536) 
453.54300000000001

>  <r_qp_volume>  (1536) 
1455.434

>  <r_sd_BIOSOLVEIT.INFINISEE\_FTREES\_SIMILARITY>  (1536) 
0.92000000000000004

>  <r_sd_BIOSOLVEIT.LOGP>  (1536) 
4.74308

>  <r_sd_BIOSOLVEIT.MOLECULAR\_WEIGHT>  (1536) 
453.54300000000001

>  <r_sd_BIOSOLVEIT.TPSA>  (1536) 
104.18000000000001

>  <i_epik_Tot_Q>  (1536) 
0

>  <i_epik_Tot_abs_Q>  (1536) 
0

>  <i_f3d_flags>  (1536) 
0

>  <i_i_glide_confnum>  (1536) 
1

>  <i_i_glide_lignum>  (1536) 
962

>  <i_i_glide_posenum>  (1536) 
8

>  <i_i_glide_rotatable_bonds>  (1536) 
11

>  <i_lp_mmshare_version>  (1536) 
65135

>  <i_m_ct_format>  (1536) 
2

>  <i_m_source_file_index>  (1536) 
2358

>  <i_qp_#NandO>  (1536) 
7

>  <i_qp_#acid>  (1536) 
0

>  <i_qp_#amide>  (1536) 
0

>  <i_qp_#amidine>  (1536) 
0

>  <i_qp_#amine>  (1536) 
1

>  <i_qp_#in34>  (1536) 
0

>  <i_qp_#in56>  (1536) 
21

>  <i_qp_#metab>  (1536) 
8

>  <i_qp_#nonHatm>  (1536) 
34

>  <i_qp_#noncon>  (1536) 
0

>  <i_qp_#ringatoms>  (1536) 
21

>  <i_qp_#rotor>  (1536) 
11

>  <i_qp_#rtvFG>  (1536) 
0

>  <i_qp_#stars>  (1536) 
1

>  <i_qp_CNS>  (1536) 
-2

>  <i_qp_HumanOralAbsorption>  (1536) 
2

>  <i_qp_RuleOfFive>  (1536) 
0

>  <i_qp_RuleOfThree>  (1536) 
2

>  <i_sd_BIOSOLVEIT.INFINISEE\_RESULT\_RANK>  (1536) 
16622

>  <i_sd_version>  (1536) 
0

>  <b_lp_Chiralities_Consistent>  (1536) 
1

>  <b_sd_chiral_flag>  (1536) 
0

>  <canonical_id>  (1536) 
ATP-HTVS-F1D0837E8A30

>  <compound_code>  (1536) 
75426

>  <title>  (1536) 
rxn512b____EMOL36790511____EMOL719673____EMOL324170366

>  <variant>  (1536) 
75426-2

>  <source_file>  (1536) 
运行/运行/ATP-VSW/ATP-VSW-DOCK_HTVS_1-002_lib.maegz

>  <canonical_smiles>  (1536) 
C[C@@H](C#N)N(C(=O)c1[nH]c2ccccc2c1NCc1ccc(NCCO)cc1)c1ccccc1

>  <scaffold>  (1536) 
O=C(Nc1ccccc1)c1[nH]c2ccccc2c1NCc1ccccc1

>  <molecular_formula>  (1536) 
C27H27N5O2

$$$$
ATP-HTVS-F1F8D839F8AD
     RDKit          3D

 58 61  0  0  0  0  0  0  0  0999 V2000
  196.7483  182.4611  149.8926 O   0  0  0  0  0  0  0  0  0  0  0  0
  196.5938  181.9431  150.9947 C   0  0  0  0  0  0  0  0  0  0  0  0
  196.9167  182.5308  152.1583 N   0  0  0  0  0  0  0  0  0  0  0  0
  197.5447  183.7906  152.3837 C   0  0  0  0  0  0  0  0  0  0  0  0
  197.5698  184.3039  153.7097 C   0  0  0  0  0  0  0  0  0  0  0  0
  196.9836  183.5761  154.7540 N   0  0  0  0  0  0  0  0  0  0  0  0
  197.7599  182.4424  155.2489 C   0  0  1  0  0  0  0  0  0  0  0  0
  197.0656  181.7116  156.4175 C   0  0  1  0  0  0  0  0  0  0  0  0
  197.9419  180.7038  156.8795 O   0  0  0  0  0  0  0  0  0  0  0  0
  196.6057  182.6511  157.5314 C   0  0  0  0  0  0  0  0  0  0  0  0
  195.3167  182.5199  158.0972 C   0  0  0  0  0  0  0  0  0  0  0  0
  194.8548  183.4516  159.0469 C   0  0  0  0  0  0  0  0  0  0  0  0
  195.6893  184.5116  159.4550 C   0  0  0  0  0  0  0  0  0  0  0  0
  196.9803  184.6422  158.9092 C   0  0  0  0  0  0  0  0  0  0  0  0
  197.4366  183.7090  157.9633 C   0  0  0  0  0  0  0  0  0  0  0  0
  195.2134  185.5061  160.4878 C   0  0  2  0  0  0  0  0  0  0  0  0
  198.1987  185.5560  153.9552 C   0  0  0  0  0  0  0  0  0  0  0  0
  198.8055  186.2464  152.8695 C   0  0  0  0  0  0  0  0  0  0  0  0
  198.7706  185.7083  151.6355 N   0  0  0  0  0  0  0  0  0  0  0  0
  198.1789  184.5333  151.3552 C   0  0  0  0  0  0  0  0  0  0  0  0
  199.4493  187.4840  153.0625 C   0  0  0  0  0  0  0  0  0  0  0  0
  199.4907  188.0564  154.3465 C   0  0  0  0  0  0  0  0  0  0  0  0
  198.8801  187.3960  155.4310 C   0  0  0  0  0  0  0  0  0  0  0  0
  198.2371  186.1542  155.2384 C   0  0  0  0  0  0  0  0  0  0  0  0
  195.9733  180.5455  151.0825 C   0  0  1  0  0  0  0  0  0  0  0  0
  197.0113  179.5000  150.7266 C   0  0  0  0  0  0  0  0  0  0  0  0
  197.1861  179.1087  149.3836 C   0  0  0  0  0  0  0  0  0  0  0  0
  198.1557  178.1441  149.0435 C   0  0  0  0  0  0  0  0  0  0  0  0
  198.3425  177.7703  147.6535 C   0  0  0  0  0  0  0  0  0  0  0  0
  198.4887  177.4713  146.5454 N   0  0  0  0  0  0  0  0  0  0  0  0
  198.9544  177.5676  150.0541 C   0  0  0  0  0  0  0  0  0  0  0  0
  198.7863  177.9621  151.3949 C   0  0  0  0  0  0  0  0  0  0  0  0
  197.8188  178.9293  151.7325 C   0  0  0  0  0  0  0  0  0  0  0  0
  196.6675  182.0279  152.9993 H   0  0  0  0  0  0  0  0  0  0  0  0
  196.0091  183.3455  154.5934 H   0  0  0  0  0  0  0  0  0  0  0  0
  197.9506  181.7255  154.4502 H   0  0  0  0  0  0  0  0  0  0  0  0
  198.7451  182.8086  155.5617 H   0  0  0  0  0  0  0  0  0  0  0  0
  196.1844  181.2052  156.0216 H   0  0  0  0  0  0  0  0  0  0  0  0
  197.4041  180.0632  157.3380 H   0  0  0  0  0  0  0  0  0  0  0  0
  194.6563  181.7323  157.7597 H   0  0  0  0  0  0  0  0  0  0  0  0
  193.8554  183.3618  159.4433 H   0  0  0  0  0  0  0  0  0  0  0  0
  197.6208  185.4621  159.1998 H   0  0  0  0  0  0  0  0  0  0  0  0
  198.4176  183.8371  157.5345 H   0  0  0  0  0  0  0  0  0  0  0  0
  195.6428  186.4951  160.3143 H   0  0  0  0  0  0  0  0  0  0  0  0
  195.5407  185.1578  161.4662 H   0  0  0  0  0  0  0  0  0  0  0  0
  194.1263  185.5849  160.4894 H   0  0  0  0  0  0  0  0  0  0  0  0
  198.2644  184.2355  150.3196 H   0  0  0  0  0  0  0  0  0  0  0  0
  199.9173  187.9990  152.2375 H   0  0  0  0  0  0  0  0  0  0  0  0
  199.9847  189.0069  154.4962 H   0  0  0  0  0  0  0  0  0  0  0  0
  198.9067  187.8483  156.4110 H   0  0  0  0  0  0  0  0  0  0  0  0
  197.7615  185.6671  156.0766 H   0  0  0  0  0  0  0  0  0  0  0  0
  195.5629  180.3497  152.0745 H   0  0  0  0  0  0  0  0  0  0  0  0
  195.1452  180.4791  150.3759 H   0  0  0  0  0  0  0  0  0  0  0  0
  196.5817  179.5550  148.6063 H   0  0  0  0  0  0  0  0  0  0  0  0
  199.7022  176.8296  149.8046 H   0  0  0  0  0  0  0  0  0  0  0  0
  199.4019  177.5255  152.1696 H   0  0  0  0  0  0  0  0  0  0  0  0
  197.6975  179.2263  152.7652 H   0  0  0  0  0  0  0  0  0  0  0  0
  199.2191  186.2187  150.8766 H   0  0  0  0  0  0  0  0  0  0  0  0
  1  2  2  0
  2  3  1  0
  2 25  1  0
  3  4  1  0
  3 34  1  0
  4  5  2  0
  4 20  1  0
  5  6  1  0
  5 17  1  0
  6  7  1  0
  6 35  1  0
  7  8  1  0
  7 36  1  6
  7 37  1  0
  8  9  1  0
  8 10  1  0
  8 38  1  6
  9 39  1  0
 10 11  1  0
 10 15  2  0
 11 12  2  0
 11 40  1  0
 12 13  1  0
 12 41  1  0
 13 14  2  0
 13 16  1  0
 14 15  1  0
 14 42  1  0
 15 43  1  0
 16 44  1  6
 16 45  1  0
 16 46  1  0
 17 18  1  0
 17 24  2  0
 18 19  1  0
 18 21  2  0
 19 20  2  0
 19 58  1  0
 20 47  1  0
 21 22  1  0
 21 48  1  0
 22 23  2  0
 22 49  1  0
 23 24  1  0
 23 50  1  0
 24 51  1  0
 25 26  1  0
 25 52  1  1
 25 53  1  0
 26 27  1  0
 26 33  2  0
 27 28  2  0
 27 54  1  0
 28 29  1  0
 28 31  1  0
 29 30  3  0
 31 32  2  0
 31 55  1  0
 32 33  1  0
 32 56  1  0
 33 57  1  0
M  CHG  1  19   1
M  END
>  <s_epik_cmdline>  (1537) 
J2VwaWtfcHl0aG9uJywgJy1waCcsICc3LjAwMDAwMCcsICctcGh0JywgJzIuMDAwMDAwJywgJy1tcycsICcxNicsICctdG4nLCAnOCcsICctbWEnLCAnMjAwJywgJy1pbWFlJywgJzxpbmZpbGUubWFlPicsICctb21hZScsICc8b3V0ZmlsZS5tYWU+Jw==

>  <s_epik_input>  (1537) 
W2NIXTFbY0hdW2NIXWMoQyNOKVtjSF1jMVtDSDJdQyg9TylbTkhdYyhbY0hdbmMoYzIzKVtjSF1bY0hdW2NIXVtjSF0zKWMyW05IXVtDSDJdW0NAQEhdKFtPSF0pYzRbY0hdW2NIXWMoW0NIM10pW2NIXVtjSF00

>  <s_i_glide_gridfile>  (1537) 
ATP-Grid

>  <s_lp_Force_Field>  (1537) 
OPLS_2005

>  <s_lp_Variant>  (1537) 
rxn502b____EMOL526127____EMOL30488121____EMOL42769518-2

>  <s_lp_label>  (1537) 
2651_sdstereoexpander_2_neutralizer_1_epik_1_stereoizer_1

>  <s_m_source_file>  (1537) 
ATP-VSW-LIGPREP-001-in.maegz

>  <s_sd_BIOSOLVEIT.INFINISEE\_QUERY\_NAME>  (1537) 
Ref-Lig

>  <s_sd_BIOSOLVEIT.INFINISEE\_QUERY\_SMILES>  (1537) 
S(c1nc2c(cc1C[NH2+]Cc3ccc(cc3)C[NH+](C)C)cccc2)Cc4ccccc4

>  <s_sd_BIOSOLVEIT.INFINISEE\_REACTION\_NAME>  (1537) 
rxn502b

>  <s_sd_BIOSOLVEIT.INFINISEE\_REAGENT1\_NAME>  (1537) 
EMOL526127

>  <s_sd_BIOSOLVEIT.INFINISEE\_REAGENT1\_SMILES>  (1537) 
O=C(O)Cc1cc(C#N)ccc1

>  <s_sd_BIOSOLVEIT.INFINISEE\_REAGENT2\_NAME>  (1537) 
EMOL30488121

>  <s_sd_BIOSOLVEIT.INFINISEE\_REAGENT2\_SMILES>  (1537) 
Brc1c(N)cnc2c1cccc2

>  <s_sd_BIOSOLVEIT.INFINISEE\_REAGENT3\_NAME>  (1537) 
EMOL42769518

>  <s_sd_BIOSOLVEIT.INFINISEE\_REAGENT3\_SMILES>  (1537) 
OC(c1ccc(cc1)C)CN

>  <s_sd_BIOSOLVEIT.INFINISEE\_SPACE>  (1537) 
eXplore_7tr_2022-12

>  <s_vsw_compound_code>  (1537) 
84801

>  <s_vsw_variant>  (1537) 
84801-2

>  <r_epik_Charging_Adjusted_Penalty>  (1537) 
0.026583881614827401

>  <r_epik_Ionization_Penalty>  (1537) 
0.013299999999999999

>  <r_epik_Ionization_Penalty_Charging>  (1537) 
0.013299999999999999

>  <r_epik_Ionization_Penalty_Neutral>  (1537) 
0

>  <r_epik_State_Penalty>  (1537) 
0.013299999999999999

>  <r_i_docking_score>  (1537) 
-4.6962053360790597

>  <r_i_glide_ecoul>  (1537) 
-7.6871814727783203

>  <r_i_glide_eff_state_penalty>  (1537) 
0.013299999999999999

>  <r_i_glide_einternal>  (1537) 
4.5601563453674299

>  <r_i_glide_emodel>  (1537) 
-58.344691857468597

>  <r_i_glide_energy>  (1537) 
-45.238157272338903

>  <r_i_glide_erotb>  (1537) 
0.83344344861527897

>  <r_i_glide_esite>  (1537) 
-0.049173224498164601

>  <r_i_glide_evdw>  (1537) 
-37.550975799560497

>  <r_i_glide_gscore>  (1537) 
-4.7095053360790704

>  <r_i_glide_hbond>  (1537) 
-0.23274391266337899

>  <r_i_glide_ligand_efficiency>  (1537) 
-0.142309252608457

>  <r_i_glide_ligand_efficiency_ln>  (1537) 
-1.0444117510941

>  <r_i_glide_ligand_efficiency_sa>  (1537) 
-0.45646181268566499

>  <r_i_glide_lipo>  (1537) 
-1.5518467468155901

>  <r_i_glide_metal>  (1537) 
-0

>  <r_i_glide_rewards>  (1537) 
-0.67855888982243795

>  <r_lp_Energy>  (1537) 
38.843432999999997

>  <r_qp_ACxDN^.5/SA>  (1537) 
0.017140499999999999

>  <r_qp_CIQPlogS>  (1537) 
-7.2220000000000004

>  <r_qp_EA(eV)>  (1537) 
0.95799999999999996

>  <r_qp_FISA>  (1537) 
150.19

>  <r_qp_FOSA>  (1537) 
153.464

>  <r_qp_IP(eV)>  (1537) 
8.5069999999999997

>  <r_qp_Jm>  (1537) 
0.00082092448639989497

>  <r_qp_PISA>  (1537) 
474.43099999999998

>  <r_qp_PSA>  (1537) 
100.251

>  <r_qp_PercentHumanOralAbsorption>  (1537) 
96.890000000000001

>  <r_qp_QPPCaco>  (1537) 
372.94499999999999

>  <r_qp_QPPMDCK>  (1537) 
170.352

>  <r_qp_QPlogBB>  (1537) 
-1.627

>  <r_qp_QPlogHERG>  (1537) 
-7.3620000000000001

>  <r_qp_QPlogKhsa>  (1537) 
0.442

>  <r_qp_QPlogKp>  (1537) 
-1.752

>  <r_qp_QPlogPC16>  (1537) 
16.486999999999998

>  <r_qp_QPlogPo/w>  (1537) 
4.085

>  <r_qp_QPlogPoct>  (1537) 
27.007000000000001

>  <r_qp_QPlogPw>  (1537) 
15.833

>  <r_qp_QPlogS>  (1537) 
-6.9740000000000002

>  <r_qp_QPpolrz>  (1537) 
48.805

>  <r_qp_SASA>  (1537) 
778.08500000000004

>  <r_qp_SAamideO>  (1537) 
0

>  <r_qp_SAfluorine>  (1537) 
0

>  <r_qp_WPSA>  (1537) 
0

>  <r_qp_accptHB>  (1537) 
7.7000000000000002

>  <r_qp_dip^2/V>  (1537) 
0.14817749999999999

>  <r_qp_dipole>  (1537) 
14.426

>  <r_qp_donorHB>  (1537) 
3

>  <r_qp_glob>  (1537) 
0.77949820000000003

>  <r_qp_mol_MW>  (1537) 
436.512

>  <r_qp_volume>  (1537) 
1404.479

>  <r_sd_BIOSOLVEIT.INFINISEE\_FTREES\_SIMILARITY>  (1537) 
0.91000000000000003

>  <r_sd_BIOSOLVEIT.LOGP>  (1537) 
4.7416

>  <r_sd_BIOSOLVEIT.MOLECULAR\_WEIGHT>  (1537) 
436.51299999999998

>  <r_sd_BIOSOLVEIT.TPSA>  (1537) 
98.040000000000006

>  <i_epik_Tot_Q>  (1537) 
1

>  <i_epik_Tot_abs_Q>  (1537) 
1

>  <i_f3d_flags>  (1537) 
0

>  <i_i_glide_confnum>  (1537) 
12

>  <i_i_glide_lignum>  (1537) 
1136

>  <i_i_glide_posenum>  (1537) 
12

>  <i_i_glide_rotatable_bonds>  (1537) 
9

>  <i_lp_mmshare_version>  (1537) 
65135

>  <i_m_ct_format>  (1537) 
2

>  <i_m_source_file_index>  (1537) 
2651

>  <i_qp_#NandO>  (1537) 
6

>  <i_qp_#acid>  (1537) 
0

>  <i_qp_#amide>  (1537) 
0

>  <i_qp_#amidine>  (1537) 
0

>  <i_qp_#amine>  (1537) 
0

>  <i_qp_#in34>  (1537) 
0

>  <i_qp_#in56>  (1537) 
22

>  <i_qp_#metab>  (1537) 
6

>  <i_qp_#nonHatm>  (1537) 
33

>  <i_qp_#noncon>  (1537) 
0

>  <i_qp_#ringatoms>  (1537) 
22

>  <i_qp_#rotor>  (1537) 
9

>  <i_qp_#rtvFG>  (1537) 
0

>  <i_qp_#stars>  (1537) 
3

>  <i_qp_CNS>  (1537) 
-2

>  <i_qp_HumanOralAbsorption>  (1537) 
1

>  <i_qp_RuleOfFive>  (1537) 
0

>  <i_qp_RuleOfThree>  (1537) 
1

>  <i_sd_BIOSOLVEIT.INFINISEE\_RESULT\_RANK>  (1537) 
46493

>  <i_sd_version>  (1537) 
0

>  <b_lp_Chiralities_Consistent>  (1537) 
1

>  <b_sd_chiral_flag>  (1537) 
0

>  <canonical_id>  (1537) 
ATP-HTVS-F1F8D839F8AD

>  <compound_code>  (1537) 
84801

>  <title>  (1537) 
rxn502b____EMOL526127____EMOL30488121____EMOL42769518

>  <variant>  (1537) 
84801-2

>  <source_file>  (1537) 
运行/运行/ATP-VSW/ATP-VSW-DOCK_HTVS_1-001_lib/ATP-VSW-DOCK_HTVS_1-001_lib

>  <canonical_smiles>  (1537) 
Cc1ccc([C@H](O)CNc2c(NC(=O)Cc3cccc(C#N)c3)c[nH+]c3ccccc23)cc1

>  <scaffold>  (1537) 
O=C(Cc1ccccc1)Nc1c[nH+]c2ccccc2c1NCCc1ccccc1

>  <molecular_formula>  (1537) 
C27H25N4O2+

$$$$
ATP-HTVS-F21E42254560
     RDKit          3D

 67 70  0  0  0  0  0  0  0  0999 V2000
  199.9816  191.2870  155.2503 O   0  0  0  0  0  0  0  0  0  0  0  0
  199.6344  190.1794  155.7136 C   0  0  0  0  0  0  0  0  0  0  0  0
  199.3276  190.0224  156.9971 O   0  0  0  0  0  0  0  0  0  0  0  0
  199.4874  191.0688  157.9292 C   0  0  2  0  0  0  0  0  0  0  0  0
  199.5139  188.9497  154.8819 C   0  0  0  0  0  0  0  0  0  0  0  0
  199.3357  187.6073  155.3743 C   0  0  0  0  0  0  0  0  0  0  0  0
  199.2131  186.5488  154.4427 C   0  0  0  0  0  0  0  0  0  0  0  0
  199.2861  186.7633  153.0551 C   0  0  0  0  0  0  0  0  0  0  0  0
  199.4859  188.0604  152.5765 C   0  0  0  0  0  0  0  0  0  0  0  0
  199.5919  189.1359  153.4760 C   0  0  0  0  0  0  0  0  0  0  0  0
  199.2720  187.1809  156.8552 C   0  0  1  0  0  0  0  0  0  0  0  0
  197.8323  186.8579  157.2859 C   0  0  0  0  0  0  0  0  0  0  0  0
  196.8783  187.5384  156.9032 O   0  0  0  0  0  0  0  0  0  0  0  0
  197.7073  185.8127  158.1127 N   0  0  0  0  0  0  0  0  0  0  0  0
  196.4915  185.3478  158.6642 C   0  0  0  0  0  0  0  0  0  0  0  0
  195.9639  184.1204  158.2132 C   0  0  0  0  0  0  0  0  0  0  0  0
  196.6482  183.3821  157.2242 N   0  0  0  0  0  0  0  0  0  0  0  0
  196.2911  181.9941  156.9702 C   0  0  1  0  0  0  0  0  0  0  0  0
  197.1541  181.3303  155.9187 C   0  0  0  0  0  0  0  0  0  0  0  0
  198.3437  180.6832  156.3017 C   0  0  0  0  0  0  0  0  0  0  0  0
  199.1214  179.9914  155.3519 C   0  0  0  0  0  0  0  0  0  0  0  0
  198.7128  179.9711  154.0035 C   0  0  0  0  0  0  0  0  0  0  0  0
  197.5322  180.6369  153.6134 C   0  0  0  0  0  0  0  0  0  0  0  0
  196.7532  181.3191  154.5705 C   0  0  0  0  0  0  0  0  0  0  0  0
  200.3800  179.2690  155.8002 C   0  0  1  0  0  0  0  0  0  0  0  0
  200.0859  177.9852  156.4863 N   0  0  1  0  0  0  0  0  0  0  0  0
  199.5229  176.9734  155.5744 C   0  0  2  0  0  0  0  0  0  0  0  0
  201.2674  177.4583  157.2038 C   0  0  2  0  0  0  0  0  0  0  0  0
  194.7381  183.6956  158.7722 C   0  0  0  0  0  0  0  0  0  0  0  0
  194.0903  184.3695  159.7444 N   0  0  0  0  0  0  0  0  0  0  0  0
  194.6058  185.5309  160.1947 C   0  0  0  0  0  0  0  0  0  0  0  0
  195.8232  186.0641  159.6968 C   0  0  0  0  0  0  0  0  0  0  0  0
  196.3347  187.2729  160.2343 C   0  0  0  0  0  0  0  0  0  0  0  0
  195.6351  187.9588  161.2456 C   0  0  0  0  0  0  0  0  0  0  0  0
  194.4191  187.4444  161.7217 C   0  0  0  0  0  0  0  0  0  0  0  0
  193.9144  186.2597  161.2031 C   0  0  0  0  0  0  0  0  0  0  0  0
  199.2917  190.6815  158.9226 H   0  0  0  0  0  0  0  0  0  0  0  0
  198.7969  191.8978  157.7512 H   0  0  0  0  0  0  0  0  0  0  0  0
  200.5032  191.4710  157.9400 H   0  0  0  0  0  0  0  0  0  0  0  0
  199.0629  185.5391  154.7850 H   0  0  0  0  0  0  0  0  0  0  0  0
  199.1990  185.9384  152.3621 H   0  0  0  0  0  0  0  0  0  0  0  0
  199.5454  188.2448  151.5087 H   0  0  0  0  0  0  0  0  0  0  0  0
  199.7310  190.1248  153.0569 H   0  0  0  0  0  0  0  0  0  0  0  0
  199.8804  186.2686  156.9392 H   0  0  0  0  0  0  0  0  0  0  0  0
  199.6943  187.8768  157.5894 H   0  0  0  0  0  0  0  0  0  0  0  0
  198.5293  185.2797  158.3404 H   0  0  0  0  0  0  0  0  0  0  0  0
  197.5165  183.7321  156.8419 H   0  0  0  0  0  0  0  0  0  0  0  0
  196.3879  181.4502  157.9054 H   0  0  0  0  0  0  0  0  0  0  0  0
  195.2469  181.8936  156.6669 H   0  0  0  0  0  0  0  0  0  0  0  0
  198.6451  180.6940  157.3290 H   0  0  0  0  0  0  0  0  0  0  0  0
  199.2999  179.4494  153.2619 H   0  0  0  0  0  0  0  0  0  0  0  0
  197.2213  180.6211  152.5793 H   0  0  0  0  0  0  0  0  0  0  0  0
  195.8424  181.8212  154.2770 H   0  0  0  0  0  0  0  0  0  0  0  0
  201.0357  179.0941  154.9443 H   0  0  0  0  0  0  0  0  0  0  0  0
  200.9278  179.9297  156.4717 H   0  0  0  0  0  0  0  0  0  0  0  0
  200.1947  176.7281  154.7494 H   0  0  0  0  0  0  0  0  0  0  0  0
  198.5871  177.3495  155.1693 H   0  0  0  0  0  0  0  0  0  0  0  0
  199.3082  176.0581  156.1201 H   0  0  0  0  0  0  0  0  0  0  0  0
  202.0802  177.2640  156.5018 H   0  0  0  0  0  0  0  0  0  0  0  0
  201.0387  176.5225  157.7156 H   0  0  0  0  0  0  0  0  0  0  0  0
  201.6228  178.1681  157.9512 H   0  0  0  0  0  0  0  0  0  0  0  0
  194.2424  182.8015  158.4303 H   0  0  0  0  0  0  0  0  0  0  0  0
  197.2610  187.7031  159.8859 H   0  0  0  0  0  0  0  0  0  0  0  0
  196.0326  188.8824  161.6394 H   0  0  0  0  0  0  0  0  0  0  0  0
  193.8784  187.9733  162.5004 H   0  0  0  0  0  0  0  0  0  0  0  0
  192.9831  185.8542  161.5760 H   0  0  0  0  0  0  0  0  0  0  0  0
  199.3592  178.1635  157.1739 H   0  0  0  0  0  0  0  0  0  0  0  0
  1  2  2  0
  2  3  1  0
  2  5  1  0
  3  4  1  0
  4 37  1  1
  4 38  1  0
  4 39  1  0
  5  6  1  0
  5 10  2  0
  6  7  2  0
  6 11  1  0
  7  8  1  0
  7 40  1  0
  8  9  2  0
  8 41  1  0
  9 10  1  0
  9 42  1  0
 10 43  1  0
 11 12  1  0
 11 44  1  6
 11 45  1  0
 12 13  2  0
 12 14  1  0
 14 15  1  0
 14 46  1  0
 15 16  2  0
 15 32  1  0
 16 17  1  0
 16 29  1  0
 17 18  1  0
 17 47  1  0
 18 19  1  0
 18 48  1  1
 18 49  1  0
 19 20  2  0
 19 24  1  0
 20 21  1  0
 20 50  1  0
 21 22  2  0
 21 25  1  0
 22 23  1  0
 22 51  1  0
 23 24  2  0
 23 52  1  0
 24 53  1  0
 25 26  1  0
 25 54  1  6
 25 55  1  0
 26 27  1  0
 26 28  1  0
 26 67  1  1
 27 56  1  6
 27 57  1  0
 27 58  1  0
 28 59  1  6
 28 60  1  0
 28 61  1  0
 29 30  2  0
 29 62  1  0
 30 31  1  0
 31 32  1  0
 31 36  2  0
 32 33  2  0
 33 34  1  0
 33 63  1  0
 34 35  2  0
 34 64  1  0
 35 36  1  0
 35 65  1  0
 36 66  1  0
M  CHG  1  26   1
M  END
>  <s_epik_Chemistry_Notes>  (1538) 
This compound has an ester and may undergo hydrolysis at high or low pH.

>  <s_epik_cmdline>  (1538) 
J2VwaWtfcHl0aG9uJywgJy1waCcsICc3LjAwMDAwMCcsICctcGh0JywgJzIuMDAwMDAwJywgJy1tcycsICcxNicsICctdG4nLCAnOCcsICctbWEnLCAnMjAwJywgJy1pbWFlJywgJzxpbmZpbGUubWFlPicsICctb21hZScsICc8b3V0ZmlsZS5tYWU+Jw==

>  <s_epik_input>  (1538) 
W0NIM11PQyg9TyljMWMoW2NIXVtjSF1bY0hdW2NIXTEpW0NIMl1DKD1PKVtOSF1jKGMoYzIzKVtjSF1bY0hdW2NIXVtjSF0zKWMoW2NIXW4yKVtOSF1bQ0gyXWM0W2NIXWMoW2NIXVtjSF1bY0hdNClbQ0gyXU4oW0NIM10pW0NIM10=

>  <s_i_glide_gridfile>  (1538) 
ATP-Grid

>  <s_lp_Force_Field>  (1538) 
OPLS_2005

>  <s_lp_Variant>  (1538) 
rxn502b____EMOL44750519____EMOL13728749____EMOL2873214-1

>  <s_lp_label>  (1538) 
2364_sdstereoexpander_1_neutralizer_1_epik_1_stereoizer_1

>  <s_m_source_file>  (1538) 
ATP-VSW-LIGPREP-001-in.maegz

>  <s_sd_BIOSOLVEIT.INFINISEE\_QUERY\_NAME>  (1538) 
Ref-Lig

>  <s_sd_BIOSOLVEIT.INFINISEE\_QUERY\_SMILES>  (1538) 
S(c1nc2c(cc1C[NH2+]Cc3ccc(cc3)C[NH+](C)C)cccc2)Cc4ccccc4

>  <s_sd_BIOSOLVEIT.INFINISEE\_REACTION\_NAME>  (1538) 
rxn502b

>  <s_sd_BIOSOLVEIT.INFINISEE\_REAGENT1\_NAME>  (1538) 
EMOL44750519

>  <s_sd_BIOSOLVEIT.INFINISEE\_REAGENT1\_SMILES>  (1538) 
O=C(OC)c1c(cccc1)CC(=O)O

>  <s_sd_BIOSOLVEIT.INFINISEE\_REAGENT2\_NAME>  (1538) 
EMOL13728749

>  <s_sd_BIOSOLVEIT.INFINISEE\_REAGENT2\_SMILES>  (1538) 
Brc1c(N)c2c(nc1)cccc2

>  <s_sd_BIOSOLVEIT.INFINISEE\_REAGENT3\_NAME>  (1538) 
EMOL2873214

>  <s_sd_BIOSOLVEIT.INFINISEE\_REAGENT3\_SMILES>  (1538) 
N(Cc1cc(ccc1)CN)(C)C

>  <s_sd_BIOSOLVEIT.INFINISEE\_SPACE>  (1538) 
eXplore_7tr_2022-12

>  <s_vsw_compound_code>  (1538) 
75617

>  <s_vsw_variant>  (1538) 
75617-1

>  <r_epik_Charging_Adjusted_Penalty>  (1538) 
0.107032603248838

>  <r_epik_Ionization_Penalty>  (1538) 
0.062899999999999998

>  <r_epik_Ionization_Penalty_Charging>  (1538) 
0.0441

>  <r_epik_Ionization_Penalty_Neutral>  (1538) 
0.018800000000000001

>  <r_epik_State_Penalty>  (1538) 
0.062899999999999998

>  <r_i_docking_score>  (1538) 
-4.2216495583397498

>  <r_i_glide_ecoul>  (1538) 
-7.3876757621765101

>  <r_i_glide_eff_state_penalty>  (1538) 
0.062899999999999998

>  <r_i_glide_einternal>  (1538) 
1.74760210514069

>  <r_i_glide_emodel>  (1538) 
-61.300574311234001

>  <r_i_glide_energy>  (1538) 
-46.3115458488464

>  <r_i_glide_erotb>  (1538) 
0.78133539457566803

>  <r_i_glide_esite>  (1538) 
-0.101136803960031

>  <r_i_glide_evdw>  (1538) 
-38.923870086669901

>  <r_i_glide_gscore>  (1538) 
-4.2845495583397497

>  <r_i_glide_hbond>  (1538) 
-0.126070452027886

>  <r_i_glide_ligand_efficiency>  (1538) 
-0.117268043287215

>  <r_i_glide_ligand_efficiency_ln>  (1538) 
-0.92104987783943904

>  <r_i_glide_ligand_efficiency_sa>  (1538) 
-0.38721054709208602

>  <r_i_glide_lipo>  (1538) 
-1.53926021280235

>  <r_i_glide_metal>  (1538) 
-0

>  <r_i_glide_rewards>  (1538) 
-0.245072615465185

>  <r_lp_Energy>  (1538) 
32.524949999999997

>  <r_qp_ACxDN^.5/SA>  (1538) 
0.016930400000000002

>  <r_qp_CIQPlogS>  (1538) 
-5.8479999999999999

>  <r_qp_EA(eV)>  (1538) 
0.90700000000000003

>  <r_qp_FISA>  (1538) 
74.524000000000001

>  <r_qp_FOSA>  (1538) 
240.20599999999999

>  <r_qp_IP(eV)>  (1538) 
8.3000000000000007

>  <r_qp_Jm>  (1538) 
0.36202470152188898

>  <r_qp_PISA>  (1538) 
395.28100000000001

>  <r_qp_PSA>  (1538) 
91.420000000000002

>  <r_qp_PercentHumanOralAbsorption>  (1538) 
100

>  <r_qp_QPPCaco>  (1538) 
485.38400000000001

>  <r_qp_QPPMDCK>  (1538) 
250.56800000000001

>  <r_qp_QPlogBB>  (1538) 
-0.24199999999999999

>  <r_qp_QPlogHERG>  (1538) 
-6.3029999999999999

>  <r_qp_QPlogKhsa>  (1538) 
0.49199999999999999

>  <r_qp_QPlogKp>  (1538) 
-2.6989999999999998

>  <r_qp_QPlogPC16>  (1538) 
15.186

>  <r_qp_QPlogPo/w>  (1538) 
4.0880000000000001

>  <r_qp_QPlogPoct>  (1538) 
24.631

>  <r_qp_QPlogPw>  (1538) 
13.94

>  <r_qp_QPlogS>  (1538) 
-3.4260000000000002

>  <r_qp_QPpolrz>  (1538) 
49.267000000000003

>  <r_qp_SASA>  (1538) 
710.01199999999994

>  <r_qp_SAamideO>  (1538) 
0

>  <r_qp_SAfluorine>  (1538) 
0

>  <r_qp_WPSA>  (1538) 
0

>  <r_qp_accptHB>  (1538) 
8.5

>  <r_qp_dip^2/V>  (1538) 
0.044970700000000002

>  <r_qp_dipole>  (1538) 
8.0329999999999995

>  <r_qp_donorHB>  (1538) 
2

>  <r_qp_glob>  (1538) 
0.86653049999999998

>  <r_qp_mol_MW>  (1538) 
482.58100000000002

>  <r_qp_volume>  (1538) 
1434.9169999999999

>  <r_sd_BIOSOLVEIT.INFINISEE\_FTREES\_SIMILARITY>  (1538) 
0.92000000000000004

>  <r_sd_BIOSOLVEIT.LOGP>  (1538) 
3.4592000000000001

>  <r_sd_BIOSOLVEIT.MOLECULAR\_WEIGHT>  (1538) 
483.589

>  <r_sd_BIOSOLVEIT.TPSA>  (1538) 
84.760000000000005

>  <i_epik_Tot_Q>  (1538) 
1

>  <i_epik_Tot_abs_Q>  (1538) 
1

>  <i_f3d_flags>  (1538) 
0

>  <i_i_glide_confnum>  (1538) 
13

>  <i_i_glide_lignum>  (1538) 
870

>  <i_i_glide_posenum>  (1538) 
2

>  <i_i_glide_rotatable_bonds>  (1538) 
11

>  <i_lp_mmshare_version>  (1538) 
65135

>  <i_m_ct_format>  (1538) 
2

>  <i_m_source_file_index>  (1538) 
2364

>  <i_qp_#NandO>  (1538) 
7

>  <i_qp_#acid>  (1538) 
0

>  <i_qp_#amide>  (1538) 
0

>  <i_qp_#amidine>  (1538) 
0

>  <i_qp_#amine>  (1538) 
1

>  <i_qp_#in34>  (1538) 
0

>  <i_qp_#in56>  (1538) 
22

>  <i_qp_#metab>  (1538) 
7

>  <i_qp_#nonHatm>  (1538) 
36

>  <i_qp_#noncon>  (1538) 
0

>  <i_qp_#ringatoms>  (1538) 
22

>  <i_qp_#rotor>  (1538) 
9

>  <i_qp_#rtvFG>  (1538) 
1

>  <i_qp_#stars>  (1538) 
0

>  <i_qp_CNS>  (1538) 
1

>  <i_qp_HumanOralAbsorption>  (1538) 
3

>  <i_qp_RuleOfFive>  (1538) 
0

>  <i_qp_RuleOfThree>  (1538) 
1

>  <i_sd_BIOSOLVEIT.INFINISEE\_RESULT\_RANK>  (1538) 
17144

>  <i_sd_version>  (1538) 
0

>  <b_lp_Chiralities_Consistent>  (1538) 
1

>  <b_sd_chiral_flag>  (1538) 
0

>  <canonical_id>  (1538) 
ATP-HTVS-F21E42254560

>  <compound_code>  (1538) 
75617

>  <title>  (1538) 
rxn502b____EMOL44750519____EMOL13728749____EMOL2873214

>  <variant>  (1538) 
75617-1

>  <source_file>  (1538) 
运行/运行/ATP-VSW/ATP-VSW-DOCK_HTVS_1-001_lib/ATP-VSW-DOCK_HTVS_1-001_lib

>  <canonical_smiles>  (1538) 
COC(=O)c1ccccc1CC(=O)Nc1c(NCc2cccc(C[NH+](C)C)c2)cnc2ccccc12

>  <scaffold>  (1538) 
O=C(Cc1ccccc1)Nc1c(NCc2ccccc2)cnc2ccccc12

>  <molecular_formula>  (1538) 
C29H31N4O3+

$$$$
ATP-HTVS-F223CD517CA5
     RDKit          3D

 58 60  0  0  0  0  0  0  0  0999 V2000
  198.8019  175.4787  147.8571 O   0  0  0  0  0  0  0  0  0  0  0  0
  198.4170  176.5573  148.3093 C   0  0  0  0  0  0  0  0  0  0  0  0
  198.5524  176.8411  149.6248 N   0  0  0  0  0  0  0  0  0  0  0  0
  198.2177  178.1016  150.1744 C   0  0  0  0  0  0  0  0  0  0  0  0
  197.0307  178.7005  149.8681 N   0  0  0  0  0  0  0  0  0  0  0  0
  196.7909  179.9392  150.3532 C   0  0  0  0  0  0  0  0  0  0  0  0
  197.7027  180.6630  151.1652 C   0  0  0  0  0  0  0  0  0  0  0  0
  197.3991  182.0122  151.4714 N   0  0  0  0  0  0  0  0  0  0  0  0
  198.1571  182.7206  152.4901 C   0  0  1  0  0  0  0  0  0  0  0  0
  197.6129  182.5732  153.9148 C   0  0  0  0  0  0  0  0  0  0  0  0
  197.5993  183.6939  154.7636 C   0  0  0  0  0  0  0  0  0  0  0  0
  197.1314  183.5928  156.0956 C   0  0  0  0  0  0  0  0  0  0  0  0
  196.6755  182.3569  156.5895 C   0  0  0  0  0  0  0  0  0  0  0  0
  196.6926  181.2227  155.7440 C   0  0  0  0  0  0  0  0  0  0  0  0
  197.1578  181.3297  154.4190 C   0  0  0  0  0  0  0  0  0  0  0  0
  196.2013  182.2262  158.0313 C   0  0  1  0  0  0  0  0  0  0  0  0
  194.7548  182.5799  158.1723 N   0  0  1  0  0  0  0  0  0  0  0  0
  193.8913  181.4182  158.5033 C   0  0  2  0  0  0  0  0  0  0  0  0
  194.5075  183.7484  159.0632 C   0  0  2  0  0  0  0  0  0  0  0  0
  198.8987  180.0268  151.5210 C   0  0  0  0  0  0  0  0  0  0  0  0
  199.1579  178.7375  151.0112 C   0  0  0  0  0  0  0  0  0  0  0  0
  199.1228  175.8314  150.5324 C   0  0  2  0  0  0  0  0  0  0  0  0
  197.7884  177.5663  147.3018 C   0  0  1  0  0  0  0  0  0  0  0  0
  198.7417  178.6864  146.8799 C   0  0  0  0  0  0  0  0  0  0  0  0
  198.9858  179.7915  147.7339 C   0  0  0  0  0  0  0  0  0  0  0  0
  199.8655  180.8082  147.3251 C   0  0  0  0  0  0  0  0  0  0  0  0
  200.4982  180.7770  146.0472 C   0  0  0  0  0  0  0  0  0  0  0  0
  200.2401  179.6911  145.1814 C   0  0  0  0  0  0  0  0  0  0  0  0
  199.3717  178.6523  145.6002 C   0  0  0  0  0  0  0  0  0  0  0  0
  195.8971  180.4041  149.9776 H   0  0  0  0  0  0  0  0  0  0  0  0
  196.4660  182.3425  151.3049 H   0  0  0  0  0  0  0  0  0  0  0  0
  199.2091  182.4225  152.5124 H   0  0  0  0  0  0  0  0  0  0  0  0
  198.1621  183.7803  152.2273 H   0  0  0  0  0  0  0  0  0  0  0  0
  197.9650  184.6437  154.3980 H   0  0  0  0  0  0  0  0  0  0  0  0
  197.1404  184.4733  156.7219 H   0  0  0  0  0  0  0  0  0  0  0  0
  196.3560  180.2682  156.1134 H   0  0  0  0  0  0  0  0  0  0  0  0
  197.1677  180.4451  153.8009 H   0  0  0  0  0  0  0  0  0  0  0  0
  196.3823  181.2081  158.3813 H   0  0  0  0  0  0  0  0  0  0  0  0
  196.8221  182.8642  158.6602 H   0  0  0  0  0  0  0  0  0  0  0  0
  194.1723  181.0272  159.4661 H   0  0  0  0  0  0  0  0  0  0  0  0
  193.9903  180.6439  157.7383 H   0  0  0  0  0  0  0  0  0  0  0  0
  192.8432  181.7091  158.5105 H   0  0  0  0  0  0  0  0  0  0  0  0
  194.8444  183.5361  160.0649 H   0  0  0  0  0  0  0  0  0  0  0  0
  193.4490  183.9949  159.0884 H   0  0  0  0  0  0  0  0  0  0  0  0
  195.0394  184.6231  158.6869 H   0  0  0  0  0  0  0  0  0  0  0  0
  199.6787  180.5151  152.0827 H   0  0  0  0  0  0  0  0  0  0  0  0
  200.1220  178.3092  151.1938 H   0  0  0  0  0  0  0  0  0  0  0  0
  199.3141  176.2030  151.5427 H   0  0  0  0  0  0  0  0  0  0  0  0
  200.0773  175.4291  150.1564 H   0  0  0  0  0  0  0  0  0  0  0  0
  198.4228  174.9999  150.6485 H   0  0  0  0  0  0  0  0  0  0  0  0
  197.5258  177.0182  146.4005 H   0  0  0  0  0  0  0  0  0  0  0  0
  196.8666  177.9700  147.6973 H   0  0  0  0  0  0  0  0  0  0  0  0
  198.4977  179.8838  148.6819 H   0  0  0  0  0  0  0  0  0  0  0  0
  200.0625  181.6461  147.9918 H   0  0  0  0  0  0  0  0  0  0  0  0
  201.1631  181.5771  145.7523 H   0  0  0  0  0  0  0  0  0  0  0  0
  200.6939  179.6492  144.2009 H   0  0  0  0  0  0  0  0  0  0  0  0
  199.1770  177.8267  144.9293 H   0  0  0  0  0  0  0  0  0  0  0  0
  194.4471  182.8373  157.2419 H   0  0  0  0  0  0  0  0  0  0  0  0
  1  2  2  0
  2  3  1  0
  2 23  1  0
  3  4  1  0
  3 22  1  0
  4  5  1  0
  4 21  2  0
  5  6  2  0
  6  7  1  0
  6 30  1  0
  7  8  1  0
  7 20  2  0
  8  9  1  0
  8 31  1  0
  9 10  1  0
  9 32  1  1
  9 33  1  0
 10 11  1  0
 10 15  2  0
 11 12  2  0
 11 34  1  0
 12 13  1  0
 12 35  1  0
 13 14  2  0
 13 16  1  0
 14 15  1  0
 14 36  1  0
 15 37  1  0
 16 17  1  0
 16 38  1  1
 16 39  1  0
 17 18  1  0
 17 19  1  0
 17 58  1  6
 18 40  1  1
 18 41  1  0
 18 42  1  0
 19 43  1  1
 19 44  1  0
 19 45  1  0
 20 21  1  0
 20 46  1  0
 21 47  1  0
 22 48  1  1
 22 49  1  0
 22 50  1  0
 23 24  1  0
 23 51  1  6
 23 52  1  0
 24 25  2  0
 24 29  1  0
 25 26  1  0
 25 53  1  0
 26 27  2  0
 26 54  1  0
 27 28  1  0
 27 55  1  0
 28 29  2  0
 28 56  1  0
 29 57  1  0
M  CHG  1  17   1
M  END
>  <s_epik_cmdline>  (1539) 
J2VwaWtfcHl0aG9uJywgJy1waCcsICc3LjAwMDAwMCcsICctcGh0JywgJzIuMDAwMDAwJywgJy1tcycsICcxNicsICctdG4nLCAnOCcsICctbWEnLCAnMjAwJywgJy1pbWFlJywgJzxpbmZpbGUubWFlPicsICctb21hZScsICc8b3V0ZmlsZS5tYWU+Jw==

>  <s_epik_input>  (1539) 
W2NIXTFbY0hdW2NIXVtjSF1bY0hdYzFbQ0gyXUMoPU8pTihbQ0gzXSljMm5bY0hdYyhbY0hdW2NIXTIpW05IXVtDSDJdYzNbY0hdW2NIXWMoW2NIXVtjSF0zKVtDSDJdTihbQ0gzXSlbQ0gzXQ==

>  <s_i_glide_gridfile>  (1539) 
ATP-Grid

>  <s_lp_Force_Field>  (1539) 
OPLS_2005

>  <s_lp_Variant>  (1539) 
rxn502a____EMOL530620____EMOL43618924____EMOL50155899-1

>  <s_lp_label>  (1539) 
2559_sdstereoexpander_1_neutralizer_1_epik_1_stereoizer_1

>  <s_m_source_file>  (1539) 
ATP-VSW-LIGPREP-002-in.maegz

>  <s_sd_BIOSOLVEIT.INFINISEE\_QUERY\_NAME>  (1539) 
Ref-Lig

>  <s_sd_BIOSOLVEIT.INFINISEE\_QUERY\_SMILES>  (1539) 
S(c1nc2c(cc1C[NH2+]Cc3ccc(cc3)C[NH+](C)C)cccc2)Cc4ccccc4

>  <s_sd_BIOSOLVEIT.INFINISEE\_REACTION\_NAME>  (1539) 
rxn502a

>  <s_sd_BIOSOLVEIT.INFINISEE\_REAGENT1\_NAME>  (1539) 
EMOL530620

>  <s_sd_BIOSOLVEIT.INFINISEE\_REAGENT1\_SMILES>  (1539) 
ClC(=O)Cc1ccccc1

>  <s_sd_BIOSOLVEIT.INFINISEE\_REAGENT2\_NAME>  (1539) 
EMOL43618924

>  <s_sd_BIOSOLVEIT.INFINISEE\_REAGENT2\_SMILES>  (1539) 
Ic1cnc(NC)cc1

>  <s_sd_BIOSOLVEIT.INFINISEE\_REAGENT3\_NAME>  (1539) 
EMOL50155899

>  <s_sd_BIOSOLVEIT.INFINISEE\_REAGENT3\_SMILES>  (1539) 
N(Cc1ccc(cc1)CN)(C)C

>  <s_sd_BIOSOLVEIT.INFINISEE\_SPACE>  (1539) 
eXplore_7tr_2022-12

>  <s_vsw_compound_code>  (1539) 
81858

>  <s_vsw_variant>  (1539) 
81858-1

>  <r_epik_Charging_Adjusted_Penalty>  (1539) 
0.091208371447312406

>  <r_epik_Ionization_Penalty>  (1539) 
0.051999999999999998

>  <r_epik_Ionization_Penalty_Charging>  (1539) 
0.039199999999999999

>  <r_epik_Ionization_Penalty_Neutral>  (1539) 
0.012800000000000001

>  <r_epik_State_Penalty>  (1539) 
0.051999999999999998

>  <r_i_docking_score>  (1539) 
-4.2031193383373697

>  <r_i_glide_ecoul>  (1539) 
-8.43994235992432

>  <r_i_glide_eff_state_penalty>  (1539) 
0.051999999999999998

>  <r_i_glide_einternal>  (1539) 
4.5209517478942898

>  <r_i_glide_emodel>  (1539) 
-53.033861295199998

>  <r_i_glide_energy>  (1539) 
-40.043795585632303

>  <r_i_glide_erotb>  (1539) 
0.89945080978840697

>  <r_i_glide_esite>  (1539) 
-0.093708581821568604

>  <r_i_glide_evdw>  (1539) 
-31.603853225708001

>  <r_i_glide_gscore>  (1539) 
-4.2551193383373702

>  <r_i_glide_hbond>  (1539) 
-0.20000000000000001

>  <r_i_glide_ligand_efficiency>  (1539) 
-0.14493514959784001

>  <r_i_glide_ligand_efficiency_ln>  (1539) 
-0.96240774656897599

>  <r_i_glide_ligand_efficiency_sa>  (1539) 
-0.44528669824293599

>  <r_i_glide_lipo>  (1539) 
-0.759940804862137

>  <r_i_glide_metal>  (1539) 
-0

>  <r_i_glide_rewards>  (1539) 
-1.2547367461680199

>  <r_lp_Energy>  (1539) 
35.463757999999999

>  <r_lp_tautomer_probability>  (1539) 
0.999999999999999

>  <r_qp_ACxDN^.5/SA>  (1539) 
0.0088885000000000006

>  <r_qp_CIQPlogS>  (1539) 
-4.3440000000000003

>  <r_qp_EA(eV)>  (1539) 
0.11600000000000001

>  <r_qp_FISA>  (1539) 
58.578000000000003

>  <r_qp_FOSA>  (1539) 
300.637

>  <r_qp_IP(eV)>  (1539) 
8.1379999999999999

>  <r_qp_Jm>  (1539) 
0.0058053863998669703

>  <r_qp_PISA>  (1539) 
428.322

>  <r_qp_PSA>  (1539) 
57.030999999999999

>  <r_qp_PercentHumanOralAbsorption>  (1539) 
100

>  <r_qp_QPPCaco>  (1539) 
687.55600000000004

>  <r_qp_QPPMDCK>  (1539) 
365.072

>  <r_qp_QPlogBB>  (1539) 
-0.19500000000000001

>  <r_qp_QPlogHERG>  (1539) 
-8.1739999999999995

>  <r_qp_QPlogKhsa>  (1539) 
0.60799999999999998

>  <r_qp_QPlogKp>  (1539) 
-2.3849999999999998

>  <r_qp_QPlogPC16>  (1539) 
14.923

>  <r_qp_QPlogPo/w>  (1539) 
4.5430000000000001

>  <r_qp_QPlogPoct>  (1539) 
21.175000000000001

>  <r_qp_QPlogPw>  (1539) 
11.521000000000001

>  <r_qp_QPlogS>  (1539) 
-5.4409999999999998

>  <r_qp_QPpolrz>  (1539) 
47.968000000000004

>  <r_qp_SASA>  (1539) 
787.53700000000003

>  <r_qp_SAamideO>  (1539) 
0

>  <r_qp_SAfluorine>  (1539) 
0

>  <r_qp_WPSA>  (1539) 
0

>  <r_qp_accptHB>  (1539) 
7

>  <r_qp_dip^2/V>  (1539) 
0.0275404

>  <r_qp_dipole>  (1539) 
6.1619999999999999

>  <r_qp_donorHB>  (1539) 
1

>  <r_qp_glob>  (1539) 
0.76062189999999996

>  <r_qp_mol_MW>  (1539) 
388.51100000000002

>  <r_qp_volume>  (1539) 
1378.5170000000001

>  <r_sd_BIOSOLVEIT.INFINISEE\_FTREES\_SIMILARITY>  (1539) 
0.91200000000000003

>  <r_sd_BIOSOLVEIT.LOGP>  (1539) 
2.5436999999999999

>  <r_sd_BIOSOLVEIT.MOLECULAR\_WEIGHT>  (1539) 
389.51999999999998

>  <r_sd_BIOSOLVEIT.TPSA>  (1539) 
49.670000000000002

>  <i_epik_Tot_Q>  (1539) 
1

>  <i_epik_Tot_abs_Q>  (1539) 
1

>  <i_f3d_flags>  (1539) 
0

>  <i_i_glide_confnum>  (1539) 
3

>  <i_i_glide_lignum>  (1539) 
1135

>  <i_i_glide_posenum>  (1539) 
4

>  <i_i_glide_rotatable_bonds>  (1539) 
9

>  <i_lp_mmshare_version>  (1539) 
65135

>  <i_m_ct_format>  (1539) 
2

>  <i_m_source_file_index>  (1539) 
2559

>  <i_qp_#NandO>  (1539) 
5

>  <i_qp_#acid>  (1539) 
0

>  <i_qp_#amide>  (1539) 
0

>  <i_qp_#amidine>  (1539) 
0

>  <i_qp_#amine>  (1539) 
1

>  <i_qp_#in34>  (1539) 
0

>  <i_qp_#in56>  (1539) 
18

>  <i_qp_#metab>  (1539) 
7

>  <i_qp_#nonHatm>  (1539) 
29

>  <i_qp_#noncon>  (1539) 
0

>  <i_qp_#ringatoms>  (1539) 
18

>  <i_qp_#rotor>  (1539) 
8

>  <i_qp_#rtvFG>  (1539) 
0

>  <i_qp_#stars>  (1539) 
0

>  <i_qp_CNS>  (1539) 
1

>  <i_qp_HumanOralAbsorption>  (1539) 
3

>  <i_qp_RuleOfFive>  (1539) 
0

>  <i_qp_RuleOfThree>  (1539) 
1

>  <i_sd_BIOSOLVEIT.INFINISEE\_RESULT\_RANK>  (1539) 
36797

>  <i_sd_version>  (1539) 
0

>  <b_lp_Chiralities_Consistent>  (1539) 
1

>  <b_sd_chiral_flag>  (1539) 
0

>  <canonical_id>  (1539) 
ATP-HTVS-F223CD517CA5

>  <compound_code>  (1539) 
81858

>  <title>  (1539) 
rxn502a____EMOL530620____EMOL43618924____EMOL50155899

>  <variant>  (1539) 
81858-1

>  <source_file>  (1539) 
运行/运行/ATP-VSW/ATP-VSW-DOCK_HTVS_1-002_lib.maegz

>  <canonical_smiles>  (1539) 
CN(C(=O)Cc1ccccc1)c1ccc(NCc2ccc(C[NH+](C)C)cc2)cn1

>  <scaffold>  (1539) 
O=C(Cc1ccccc1)Nc1ccc(NCc2ccccc2)cn1

>  <molecular_formula>  (1539) 
C24H29N4O+

$$$$
ATP-HTVS-F256B691D902
     RDKit          3D

 63 66  0  0  0  0  0  0  0  0999 V2000
  197.1358  183.8076  156.0811 N   0  0  0  0  0  0  0  0  0  0  0  0
  197.2887  182.4857  156.3011 C   0  0  0  0  0  0  0  0  0  0  0  0
  196.3194  181.8216  157.0857 N   0  0  0  0  0  0  0  0  0  0  0  0
  195.4938  182.5069  158.0733 C   0  0  2  0  0  0  0  0  0  0  0  0
  196.1462  183.6800  158.8322 C   0  0  0  0  0  0  0  0  0  0  0  0
  195.3487  184.6297  159.5370 C   0  0  0  0  0  0  0  0  0  0  0  0
  193.9601  184.4982  159.6542 N   0  0  0  0  0  0  0  0  0  0  0  0
  195.9552  185.7596  160.1332 C   0  0  0  0  0  0  0  0  0  0  0  0
  197.3428  185.9355  160.0270 C   0  0  0  0  0  0  0  0  0  0  0  0
  198.1380  184.9794  159.3705 C   0  0  0  0  0  0  0  0  0  0  0  0
  197.5536  183.8243  158.8269 C   0  0  0  0  0  0  0  0  0  0  0  0
  194.9091  181.4725  159.0507 C   0  0  2  0  0  0  0  0  0  0  0  0
  198.5066  181.8251  155.9516 C   0  0  0  0  0  0  0  0  0  0  0  0
  199.4939  182.5185  155.3396 N   0  0  0  0  0  0  0  0  0  0  0  0
  199.3408  183.8401  155.1355 C   0  0  0  0  0  0  0  0  0  0  0  0
  198.1472  184.5090  155.5261 C   0  0  0  0  0  0  0  0  0  0  0  0
  198.0383  185.8903  155.3667 C   0  0  0  0  0  0  0  0  0  0  0  0
  199.0971  186.6458  154.8194 C   0  0  0  0  0  0  0  0  0  0  0  0
  200.2711  185.9975  154.3994 C   0  0  0  0  0  0  0  0  0  0  0  0
  200.4012  184.6086  154.5844 C   0  0  0  0  0  0  0  0  0  0  0  0
  198.6965  180.4749  156.2084 N   0  0  0  0  0  0  0  0  0  0  0  0
  200.0250  180.0038  156.5978 C   0  0  1  0  0  0  0  0  0  0  0  0
  200.3105  178.6004  156.1090 C   0  0  0  0  0  0  0  0  0  0  0  0
  200.7542  177.6160  157.0114 C   0  0  0  0  0  0  0  0  0  0  0  0
  200.9948  176.3095  156.5584 C   0  0  0  0  0  0  0  0  0  0  0  0
  200.8448  175.9787  155.1953 C   0  0  0  0  0  0  0  0  0  0  0  0
  200.4034  176.9712  154.2901 C   0  0  0  0  0  0  0  0  0  0  0  0
  200.1322  178.2759  154.7479 C   0  0  0  0  0  0  0  0  0  0  0  0
  201.1617  174.5664  154.7110 C   0  0  1  0  0  0  0  0  0  0  0  0
  202.6147  174.2698  154.6308 N   0  0  1  0  0  0  0  0  0  0  0  0
  203.3479  175.2174  153.7579 C   0  0  2  0  0  0  0  0  0  0  0  0
  203.2699  174.1000  155.9518 C   0  0  2  0  0  0  0  0  0  0  0  0
  196.4235  180.8357  157.2571 H   0  0  0  0  0  0  0  0  0  0  0  0
  194.6845  182.9371  157.4941 H   0  0  0  0  0  0  0  0  0  0  0  0
  193.3929  185.2976  159.9199 H   0  0  0  0  0  0  0  0  0  0  0  0
  193.4672  183.8749  159.0227 H   0  0  0  0  0  0  0  0  0  0  0  0
  195.3506  186.4916  160.6512 H   0  0  0  0  0  0  0  0  0  0  0  0
  197.7995  186.8195  160.4802 H   0  0  0  0  0  0  0  0  0  0  0  0
  199.2041  185.1052  159.3307 H   0  0  0  0  0  0  0  0  0  0  0  0
  198.1720  183.0370  158.3515 H   0  0  0  0  0  0  0  0  0  0  0  0
  194.2218  181.9529  159.7267 H   0  0  0  0  0  0  0  0  0  0  0  0
  195.6929  181.0336  159.6667 H   0  0  0  0  0  0  0  0  0  0  0  0
  194.3400  180.6827  158.5514 H   0  0  0  0  0  0  0  0  0  0  0  0
  197.1620  186.4065  155.7355 H   0  0  0  0  0  0  0  0  0  0  0  0
  198.9915  187.7130  154.6937 H   0  0  0  0  0  0  0  0  0  0  0  0
  201.0508  186.5593  153.9017 H   0  0  0  0  0  0  0  0  0  0  0  0
  201.3081  184.1173  154.2715 H   0  0  0  0  0  0  0  0  0  0  0  0
  197.9280  179.9547  156.6313 H   0  0  0  0  0  0  0  0  0  0  0  0
  200.8350  180.6401  156.2394 H   0  0  0  0  0  0  0  0  0  0  0  0
  200.0839  180.0154  157.6886 H   0  0  0  0  0  0  0  0  0  0  0  0
  200.9161  177.8555  158.0531 H   0  0  0  0  0  0  0  0  0  0  0  0
  201.3103  175.5643  157.2776 H   0  0  0  0  0  0  0  0  0  0  0  0
  200.2706  176.7436  153.2403 H   0  0  0  0  0  0  0  0  0  0  0  0
  199.7916  179.0345  154.0544 H   0  0  0  0  0  0  0  0  0  0  0  0
  200.6586  173.8405  155.3506 H   0  0  0  0  0  0  0  0  0  0  0  0
  200.7253  174.4282  153.7166 H   0  0  0  0  0  0  0  0  0  0  0  0
  203.3188  176.2343  154.1566 H   0  0  0  0  0  0  0  0  0  0  0  0
  202.9218  175.2409  152.7518 H   0  0  0  0  0  0  0  0  0  0  0  0
  204.3971  174.9344  153.6674 H   0  0  0  0  0  0  0  0  0  0  0  0
  203.2549  175.0274  156.5188 H   0  0  0  0  0  0  0  0  0  0  0  0
  204.3114  173.7976  155.8279 H   0  0  0  0  0  0  0  0  0  0  0  0
  202.7655  173.3349  156.5396 H   0  0  0  0  0  0  0  0  0  0  0  0
  202.6795  173.3654  154.1756 H   0  0  0  0  0  0  0  0  0  0  0  0
  1  2  2  0
  1 16  1  0
  2  3  1  0
  2 13  1  0
  3  4  1  0
  3 33  1  0
  4  5  1  0
  4 12  1  0
  4 34  1  6
  5  6  1  0
  5 11  2  0
  6  7  1  0
  6  8  2  0
  7 35  1  0
  7 36  1  0
  8  9  1  0
  8 37  1  0
  9 10  2  0
  9 38  1  0
 10 11  1  0
 10 39  1  0
 11 40  1  0
 12 41  1  1
 12 42  1  0
 12 43  1  0
 13 14  2  0
 13 21  1  0
 14 15  1  0
 15 16  1  0
 15 20  2  0
 16 17  2  0
 17 18  1  0
 17 44  1  0
 18 19  2  0
 18 45  1  0
 19 20  1  0
 19 46  1  0
 20 47  1  0
 21 22  1  0
 21 48  1  0
 22 23  1  0
 22 49  1  6
 22 50  1  0
 23 24  1  0
 23 28  2  0
 24 25  2  0
 24 51  1  0
 25 26  1  0
 25 52  1  0
 26 27  2  0
 26 29  1  0
 27 28  1  0
 27 53  1  0
 28 54  1  0
 29 30  1  0
 29 55  1  1
 29 56  1  0
 30 31  1  0
 30 32  1  0
 30 63  1  6
 31 57  1  1
 31 58  1  0
 31 59  1  0
 32 60  1  1
 32 61  1  0
 32 62  1  0
M  CHG  1  30   1
M  END
>  <s_epik_cmdline>  (1540) 
J2VwaWtfcHl0aG9uJywgJy1waCcsICc3LjAwMDAwMCcsICctcGh0JywgJzIuMDAwMDAwJywgJy1tcycsICcxNicsICctdG4nLCAnOCcsICctbWEnLCAnMjAwJywgJy1pbWFlJywgJzxpbmZpbGUubWFlPicsICctb21hZScsICc8b3V0ZmlsZS5tYWU+Jw==

>  <s_epik_input>  (1540) 
W2NIXTFbY0hdW2NIXVtjSF1jKFtOSDJdKWMxW0NASF0oW0NIM10pW05IXWMobmMoYzIzKVtjSF1bY0hdW2NIXVtjSF0zKWMobjIpW05IXVtDSDJdYzRbY0hdW2NIXWMoW2NIXVtjSF00KVtDSDJdTihbQ0gzXSlbQ0gzXQ==

>  <s_i_glide_gridfile>  (1540) 
ATP-Grid

>  <s_lp_Force_Field>  (1540) 
OPLS_2005

>  <s_lp_Variant>  (1540) 
m_282030aaa____21929760____23157418____21952560-2

>  <s_lp_label>  (1540) 
1098_sdstereoexpander_2_neutralizer_1_epik_1_stereoizer_1

>  <s_m_source_file>  (1540) 
ATP-VSW-LIGPREP-002-in.maegz

>  <s_sd_BIOSOLVEIT.INFINISEE\_QUERY\_NAME>  (1540) 
Ref-Lig

>  <s_sd_BIOSOLVEIT.INFINISEE\_QUERY\_SMILES>  (1540) 
S(c1nc2c(cc1C[NH2+]Cc3ccc(cc3)C[NH+](C)C)cccc2)Cc4ccccc4

>  <s_sd_BIOSOLVEIT.INFINISEE\_REACTION\_NAME>  (1540) 
m_282030aaa

>  <s_sd_BIOSOLVEIT.INFINISEE\_REAGENT1\_SMILES>  (1540) 
[R1*]NCc1ccc(cc1)CN(C)C

>  <s_sd_BIOSOLVEIT.INFINISEE\_REAGENT2\_SMILES>  (1540) 
[R1*]c1nc2c(nc1[R2*])cccc2

>  <s_sd_BIOSOLVEIT.INFINISEE\_REAGENT3\_SMILES>  (1540) 
[R2*]NC(c1c(N)cccc1)C

>  <s_sd_BIOSOLVEIT.INFINISEE\_SPACE>  (1540) 
REALSpace_44bn_2023-08

>  <s_vsw_compound_code>  (1540) 
35106

>  <s_vsw_variant>  (1540) 
35106-2

>  <r_epik_Charging_Adjusted_Penalty>  (1540) 
0.083839989212460705

>  <r_epik_Ionization_Penalty>  (1540) 
0.044900000000000002

>  <r_epik_Ionization_Penalty_Charging>  (1540) 
0.039199999999999999

>  <r_epik_Ionization_Penalty_Neutral>  (1540) 
0.0057000000000000002

>  <r_epik_State_Penalty>  (1540) 
0.044600000000000001

>  <r_i_docking_score>  (1540) 
-4.7297808601751603

>  <r_i_glide_ecoul>  (1540) 
-6.9022235870361301

>  <r_i_glide_eff_state_penalty>  (1540) 
0.044600000000000001

>  <r_i_glide_einternal>  (1540) 
4.6668157577514604

>  <r_i_glide_emodel>  (1540) 
-55.180876557448201

>  <r_i_glide_energy>  (1540) 
-41.885370254516602

>  <r_i_glide_erotb>  (1540) 
0.76030325106258601

>  <r_i_glide_esite>  (1540) 
-0.154992412274746

>  <r_i_glide_evdw>  (1540) 
-34.983146667480497

>  <r_i_glide_gscore>  (1540) 
-4.7743808601751603

>  <r_i_glide_hbond>  (1540) 
-0.20628576836982801

>  <r_i_glide_ligand_efficiency>  (1540) 
-0.14780565188047401

>  <r_i_glide_ligand_efficiency_ln>  (1540) 
-1.0591268635500599

>  <r_i_glide_ligand_efficiency_sa>  (1540) 
-0.46925369402171602

>  <r_i_glide_lipo>  (1540) 
-1.8950369228001001

>  <r_i_glide_metal>  (1540) 
-0

>  <r_i_glide_rewards>  (1540) 
-0.49387813636363498

>  <r_lp_Energy>  (1540) 
27.182507999999999

>  <r_qp_ACxDN^.5/SA>  (1540) 
0.015734000000000001

>  <r_qp_CIQPlogS>  (1540) 
-5.5439999999999996

>  <r_qp_EA(eV)>  (1540) 
0.78000000000000003

>  <r_qp_FISA>  (1540) 
76.134

>  <r_qp_FOSA>  (1540) 
295.32299999999998

>  <r_qp_IP(eV)>  (1540) 
8.0700000000000003

>  <r_qp_Jm>  (1540) 
0.043257714421189898

>  <r_qp_PISA>  (1540) 
341.964

>  <r_qp_PSA>  (1540) 
70.373999999999995

>  <r_qp_PercentHumanOralAbsorption>  (1540) 
100

>  <r_qp_QPPCaco>  (1540) 
468.62299999999999

>  <r_qp_QPPMDCK>  (1540) 
241.22800000000001

>  <r_qp_QPlogBB>  (1540) 
-0.307

>  <r_qp_QPlogHERG>  (1540) 
-6.5439999999999996

>  <r_qp_QPlogKhsa>  (1540) 
0.64200000000000002

>  <r_qp_QPlogKp>  (1540) 
-2.9169999999999998

>  <r_qp_QPlogPC16>  (1540) 
14.635

>  <r_qp_QPlogPo/w>  (1540) 
4.3019999999999996

>  <r_qp_QPlogPoct>  (1540) 
23.613

>  <r_qp_QPlogPw>  (1540) 
13.331

>  <r_qp_QPlogS>  (1540) 
-4.077

>  <r_qp_QPpolrz>  (1540) 
46.136000000000003

>  <r_qp_SASA>  (1540) 
713.42100000000005

>  <r_qp_SAamideO>  (1540) 
0

>  <r_qp_SAfluorine>  (1540) 
0

>  <r_qp_WPSA>  (1540) 
0

>  <r_qp_accptHB>  (1540) 
6

>  <r_qp_dip^2/V>  (1540) 
0.0072620999999999996

>  <r_qp_dipole>  (1540) 
3.1539999999999999

>  <r_qp_donorHB>  (1540) 
3.5

>  <r_qp_glob>  (1540) 
0.83593680000000004

>  <r_qp_mol_MW>  (1540) 
426.56299999999999

>  <r_qp_volume>  (1540) 
1369.404

>  <r_sd_BIOSOLVEIT.INFINISEE\_FTREES\_SIMILARITY>  (1540) 
0.91300000000000003

>  <r_sd_BIOSOLVEIT.LOGP>  (1540) 
3.6417000000000002

>  <r_sd_BIOSOLVEIT.MOLECULAR\_WEIGHT>  (1540) 
427.57299999999998

>  <r_sd_BIOSOLVEIT.TPSA>  (1540) 
80.299999999999997

>  <i_epik_Tot_Q>  (1540) 
1

>  <i_epik_Tot_abs_Q>  (1540) 
1

>  <i_f3d_flags>  (1540) 
0

>  <i_i_glide_confnum>  (1540) 
7

>  <i_i_glide_lignum>  (1540) 
362

>  <i_i_glide_posenum>  (1540) 
9

>  <i_i_glide_rotatable_bonds>  (1540) 
8

>  <i_lp_mmshare_version>  (1540) 
65135

>  <i_m_ct_format>  (1540) 
2

>  <i_m_source_file_index>  (1540) 
1098

>  <i_qp_#NandO>  (1540) 
6

>  <i_qp_#acid>  (1540) 
0

>  <i_qp_#amide>  (1540) 
0

>  <i_qp_#amidine>  (1540) 
0

>  <i_qp_#amine>  (1540) 
1

>  <i_qp_#in34>  (1540) 
0

>  <i_qp_#in56>  (1540) 
22

>  <i_qp_#metab>  (1540) 
7

>  <i_qp_#nonHatm>  (1540) 
32

>  <i_qp_#noncon>  (1540) 
0

>  <i_qp_#ringatoms>  (1540) 
22

>  <i_qp_#rotor>  (1540) 
9

>  <i_qp_#rtvFG>  (1540) 
0

>  <i_qp_#stars>  (1540) 
0

>  <i_qp_CNS>  (1540) 
0

>  <i_qp_HumanOralAbsorption>  (1540) 
3

>  <i_qp_RuleOfFive>  (1540) 
0

>  <i_qp_RuleOfThree>  (1540) 
1

>  <i_sd_BIOSOLVEIT.INFINISEE\_REAGENT1\_NAME>  (1540) 
21929760

>  <i_sd_BIOSOLVEIT.INFINISEE\_REAGENT2\_NAME>  (1540) 
23157418

>  <i_sd_BIOSOLVEIT.INFINISEE\_REAGENT3\_NAME>  (1540) 
21952560

>  <i_sd_BIOSOLVEIT.INFINISEE\_RESULT\_RANK>  (1540) 
33087

>  <i_sd_version>  (1540) 
0

>  <b_lp_Chiralities_Consistent>  (1540) 
1

>  <b_sd_chiral_flag>  (1540) 
0

>  <canonical_id>  (1540) 
ATP-HTVS-F256B691D902

>  <compound_code>  (1540) 
35106

>  <title>  (1540) 
m_282030aaa____21929760____23157418____21952560

>  <variant>  (1540) 
35106-2

>  <source_file>  (1540) 
运行/运行/ATP-VSW/ATP-VSW-DOCK_HTVS_1-002_lib.maegz

>  <canonical_smiles>  (1540) 
C[C@H](Nc1nc2ccccc2nc1NCc1ccc(C[NH+](C)C)cc1)c1ccccc1N

>  <scaffold>  (1540) 
c1ccc(CNc2nc3ccccc3nc2NCc2ccccc2)cc1

>  <molecular_formula>  (1540) 
C26H31N6+

$$$$
ATP-HTVS-F2668BF9E9B1
     RDKit          3D

 65 68  0  0  0  0  0  0  0  0999 V2000
  200.0061  182.1530  157.0467 O   0  0  0  0  0  0  0  0  0  0  0  0
  198.8220  182.1470  156.7011 C   0  0  0  0  0  0  0  0  0  0  0  0
  198.3804  181.7621  155.4886 N   0  0  0  0  0  0  0  0  0  0  0  0
  199.1115  181.3252  154.3385 C   0  0  0  0  0  0  0  0  0  0  0  0
  200.4519  181.4702  154.2334 N   0  0  0  0  0  0  0  0  0  0  0  0
  201.0887  181.0608  153.1090 C   0  0  0  0  0  0  0  0  0  0  0  0
  200.4516  180.4744  152.0193 C   0  0  0  0  0  0  0  0  0  0  0  0
  201.2460  180.0342  150.9317 N   0  0  0  0  0  0  0  0  0  0  0  0
  201.1236  178.6700  150.3821 C   0  0  1  0  0  0  0  0  0  0  0  0
  201.0497  177.5266  151.3942 C   0  0  0  0  0  0  0  0  0  0  0  0
  201.8763  177.5329  152.5318 C   0  0  0  0  0  0  0  0  0  0  0  0
  201.7726  176.5132  153.5107 C   0  0  0  0  0  0  0  0  0  0  0  0
  200.8831  175.4445  153.2950 C   0  0  0  0  0  0  0  0  0  0  0  0
  200.0879  175.4117  152.1322 C   0  0  0  0  0  0  0  0  0  0  0  0
  200.1542  176.4562  151.1920 C   0  0  0  0  0  0  0  0  0  0  0  0
  202.5714  176.5925  154.8058 C   0  0  1  0  0  0  0  0  0  0  0  0
  201.9351  177.4657  155.8371 N   0  0  1  0  0  0  0  0  0  0  0  0
  201.6450  178.8416  155.3506 C   0  0  1  0  0  0  0  0  0  0  0  0
  202.9565  179.6287  155.0463 C   0  0  2  0  0  0  0  0  0  0  0  0
  200.7772  176.8217  156.5186 C   0  0  1  0  0  0  0  0  0  0  0  0
  200.4264  177.5166  157.8446 C   0  0  2  0  0  0  0  0  0  0  0  0
  199.0334  180.3683  152.0788 C   0  0  0  0  0  0  0  0  0  0  0  0
  198.3474  180.7951  153.2529 C   0  0  0  0  0  0  0  0  0  0  0  0
  196.9285  180.7609  153.2728 C   0  0  0  0  0  0  0  0  0  0  0  0
  196.2249  180.2876  152.1483 C   0  0  0  0  0  0  0  0  0  0  0  0
  196.9069  179.8585  151.0009 C   0  0  0  0  0  0  0  0  0  0  0  0
  198.3032  179.9124  150.9485 C   0  0  0  0  0  0  0  0  0  0  0  0
  197.7467  182.6406  157.6391 C   0  0  0  0  0  0  0  0  0  0  0  0
  196.3803  182.2814  157.4572 C   0  0  0  0  0  0  0  0  0  0  0  0
  195.3945  182.7289  158.3647 C   0  0  0  0  0  0  0  0  0  0  0  0
  194.0930  182.3884  158.2330 O   0  0  0  0  0  0  0  0  0  0  0  0
  195.7599  183.5412  159.4465 C   0  0  0  0  0  0  0  0  0  0  0  0
  197.1107  183.8902  159.6485 C   0  0  0  0  0  0  0  0  0  0  0  0
  198.0963  183.4376  158.7510 C   0  0  0  0  0  0  0  0  0  0  0  0
  197.3784  181.8046  155.3728 H   0  0  0  0  0  0  0  0  0  0  0  0
  202.1692  181.1491  153.1221 H   0  0  0  0  0  0  0  0  0  0  0  0
  202.1757  180.4342  150.8972 H   0  0  0  0  0  0  0  0  0  0  0  0
  200.2558  178.6045  149.7305 H   0  0  0  0  0  0  0  0  0  0  0  0
  201.9958  178.5018  149.7360 H   0  0  0  0  0  0  0  0  0  0  0  0
  202.5334  178.3827  152.6433 H   0  0  0  0  0  0  0  0  0  0  0  0
  200.8013  174.6621  154.0357 H   0  0  0  0  0  0  0  0  0  0  0  0
  199.4198  174.5856  151.9685 H   0  0  0  0  0  0  0  0  0  0  0  0
  199.5389  176.4346  150.3052 H   0  0  0  0  0  0  0  0  0  0  0  0
  202.7154  175.5918  155.2072 H   0  0  0  0  0  0  0  0  0  0  0  0
  203.5732  176.9629  154.5892 H   0  0  0  0  0  0  0  0  0  0  0  0
  200.9224  178.7656  154.5286 H   0  0  0  0  0  0  0  0  0  0  0  0
  201.0827  179.4178  156.0854 H   0  0  0  0  0  0  0  0  0  0  0  0
  202.7305  180.6701  154.8255 H   0  0  0  0  0  0  0  0  0  0  0  0
  203.4989  179.2137  154.1912 H   0  0  0  0  0  0  0  0  0  0  0  0
  203.6238  179.6051  155.9181 H   0  0  0  0  0  0  0  0  0  0  0  0
  199.9164  176.8086  155.8458 H   0  0  0  0  0  0  0  0  0  0  0  0
  201.0317  175.7833  156.7379 H   0  0  0  0  0  0  0  0  0  0  0  0
  199.5712  177.0334  158.3100 H   0  0  0  0  0  0  0  0  0  0  0  0
  200.1329  178.5587  157.7236 H   0  0  0  0  0  0  0  0  0  0  0  0
  201.2617  177.4811  158.5439 H   0  0  0  0  0  0  0  0  0  0  0  0
  196.3580  181.1038  154.1197 H   0  0  0  0  0  0  0  0  0  0  0  0
  195.1535  180.2612  152.1377 H   0  0  0  0  0  0  0  0  0  0  0  0
  196.3960  179.5048  150.1189 H   0  0  0  0  0  0  0  0  0  0  0  0
  198.8075  179.6592  150.0306 H   0  0  0  0  0  0  0  0  0  0  0  0
  196.0800  181.6477  156.6333 H   0  0  0  0  0  0  0  0  0  0  0  0
  193.9416  182.2844  157.2740 H   0  0  0  0  0  0  0  0  0  0  0  0
  195.0013  183.8911  160.1246 H   0  0  0  0  0  0  0  0  0  0  0  0
  197.3821  184.4997  160.4929 H   0  0  0  0  0  0  0  0  0  0  0  0
  199.1294  183.7062  158.9299 H   0  0  0  0  0  0  0  0  0  0  0  0
  202.6426  177.6044  156.5539 H   0  0  0  0  0  0  0  0  0  0  0  0
  1  2  2  0
  2  3  1  0
  2 28  1  0
  3  4  1  0
  3 35  1  0
  4  5  1  0
  4 23  2  0
  5  6  2  0
  6  7  1  0
  6 36  1  0
  7  8  1  0
  7 22  2  0
  8  9  1  0
  8 37  1  0
  9 10  1  0
  9 38  1  6
  9 39  1  0
 10 11  2  0
 10 15  1  0
 11 12  1  0
 11 40  1  0
 12 13  2  0
 12 16  1  0
 13 14  1  0
 13 41  1  0
 14 15  2  0
 14 42  1  0
 15 43  1  0
 16 17  1  0
 16 44  1  1
 16 45  1  0
 17 18  1  0
 17 20  1  0
 17 65  1  1
 18 19  1  0
 18 46  1  6
 18 47  1  0
 19 48  1  6
 19 49  1  0
 19 50  1  0
 20 21  1  0
 20 51  1  6
 20 52  1  0
 21 53  1  1
 21 54  1  0
 21 55  1  0
 22 23  1  0
 22 27  1  0
 23 24  1  0
 24 25  2  0
 24 56  1  0
 25 26  1  0
 25 57  1  0
 26 27  2  0
 26 58  1  0
 27 59  1  0
 28 29  1  0
 28 34  2  0
 29 30  2  0
 29 60  1  0
 30 31  1  0
 30 32  1  0
 31 61  1  0
 32 33  2  0
 32 62  1  0
 33 34  1  0
 33 63  1  0
 34 64  1  0
M  CHG  1  17   1
M  END
>  <s_epik_cmdline>  (1541) 
J2VwaWtfcHl0aG9uJywgJy1waCcsICc3LjAwMDAwMCcsICctcGh0JywgJzIuMDAwMDAwJywgJy1tcycsICcxNicsICctdG4nLCAnOCcsICctbWEnLCAnMjAwJywgJy1pbWFlJywgJzxpbmZpbGUubWFlPicsICctb21hZScsICc8b3V0ZmlsZS5tYWU+Jw==

>  <s_epik_input>  (1541) 
W2NIXTFbY0hdW2NIXWMoW09IXSlbY0hdYzFDKD1PKVtOSF1jKGMoYzIzKVtjSF1bY0hdW2NIXVtjSF0zKW5bY0hdYzJbTkhdW0NIMl1jNFtjSF1jKFtjSF1bY0hdW2NIXTQpW0NIMl1OKFtDSDJdW0NIM10pW0NIMl1bQ0gzXQ==

>  <s_i_glide_gridfile>  (1541) 
ATP-Grid

>  <s_lp_Force_Field>  (1541) 
OPLS_2005

>  <s_lp_Variant>  (1541) 
rxn502b____EMOL519605____EMOL7515103____EMOL44153840-1

>  <s_lp_label>  (1541) 
2367_sdstereoexpander_1_neutralizer_1_epik_1_stereoizer_1

>  <s_m_source_file>  (1541) 
ATP-VSW-LIGPREP-001-in.maegz

>  <s_sd_BIOSOLVEIT.INFINISEE\_QUERY\_NAME>  (1541) 
Ref-Lig

>  <s_sd_BIOSOLVEIT.INFINISEE\_QUERY\_SMILES>  (1541) 
S(c1nc2c(cc1C[NH2+]Cc3ccc(cc3)C[NH+](C)C)cccc2)Cc4ccccc4

>  <s_sd_BIOSOLVEIT.INFINISEE\_REACTION\_NAME>  (1541) 
rxn502b

>  <s_sd_BIOSOLVEIT.INFINISEE\_REAGENT1\_NAME>  (1541) 
EMOL519605

>  <s_sd_BIOSOLVEIT.INFINISEE\_REAGENT1\_SMILES>  (1541) 
O=C(O)c1cc(O)ccc1

>  <s_sd_BIOSOLVEIT.INFINISEE\_REAGENT2\_NAME>  (1541) 
EMOL7515103

>  <s_sd_BIOSOLVEIT.INFINISEE\_REAGENT2\_SMILES>  (1541) 
Brc1c2c(c(nc1)N)cccc2

>  <s_sd_BIOSOLVEIT.INFINISEE\_REAGENT3\_NAME>  (1541) 
EMOL44153840

>  <s_sd_BIOSOLVEIT.INFINISEE\_REAGENT3\_SMILES>  (1541) 
N(Cc1cc(ccc1)CN)(CC)CC

>  <s_sd_BIOSOLVEIT.INFINISEE\_SPACE>  (1541) 
eXplore_7tr_2022-12

>  <s_vsw_compound_code>  (1541) 
75713

>  <s_vsw_variant>  (1541) 
75713-1

>  <r_epik_Charging_Adjusted_Penalty>  (1541) 
0.035901477740998201

>  <r_epik_Ionization_Penalty>  (1541) 
0.023099999999999999

>  <r_epik_Ionization_Penalty_Charging>  (1541) 
0.017999999999999999

>  <r_epik_Ionization_Penalty_Neutral>  (1541) 
0.0051000000000000004

>  <r_epik_State_Penalty>  (1541) 
0.017999999999999999

>  <r_i_docking_score>  (1541) 
-4.6924219785957302

>  <r_i_glide_ecoul>  (1541) 
-12.593432426452599

>  <r_i_glide_eff_state_penalty>  (1541) 
0.017999999999999999

>  <r_i_glide_einternal>  (1541) 
6.4797673225402797

>  <r_i_glide_emodel>  (1541) 
-59.312321255685802

>  <r_i_glide_energy>  (1541) 
-45.608942985534703

>  <r_i_glide_erotb>  (1541) 
0.77439018997812004

>  <r_i_glide_esite>  (1541) 
-0.060022457691367201

>  <r_i_glide_evdw>  (1541) 
-33.015510559082003

>  <r_i_glide_gscore>  (1541) 
-4.71042197859573

>  <r_i_glide_hbond>  (1541) 
-0.16

>  <r_i_glide_ligand_efficiency>  (1541) 
-0.13801241113516899

>  <r_i_glide_ligand_efficiency_ln>  (1541) 
-1.0366876330501

>  <r_i_glide_ligand_efficiency_sa>  (1541) 
-0.447106635310699

>  <r_i_glide_lipo>  (1541) 
-1.1970766371423101

>  <r_i_glide_metal>  (1541) 
-0

>  <r_i_glide_rewards>  (1541) 
-0.52792268181818103

>  <r_lp_Energy>  (1541) 
27.884996999999998

>  <r_lp_tautomer_probability>  (1541) 
0.999999999997365

>  <r_qp_ACxDN^.5/SA>  (1541) 
0.017022499999999999

>  <r_qp_CIQPlogS>  (1541) 
-5.694

>  <r_qp_EA(eV)>  (1541) 
0.92900000000000005

>  <r_qp_FISA>  (1541) 
111.849

>  <r_qp_FOSA>  (1541) 
221.52099999999999

>  <r_qp_IP(eV)>  (1541) 
7.8179999999999996

>  <r_qp_Jm>  (1541) 
0.022329224402418399

>  <r_qp_PISA>  (1541) 
404.32299999999998

>  <r_qp_PSA>  (1541) 
81.5

>  <r_qp_PercentHumanOralAbsorption>  (1541) 
92.656999999999996

>  <r_qp_QPPCaco>  (1541) 
214.84899999999999

>  <r_qp_QPPMDCK>  (1541) 
103.83499999999999

>  <r_qp_QPlogBB>  (1541) 
-0.72199999999999998

>  <r_qp_QPlogHERG>  (1541) 
-6.9299999999999997

>  <r_qp_QPlogKhsa>  (1541) 
0.57699999999999996

>  <r_qp_QPlogKp>  (1541) 
-3.2589999999999999

>  <r_qp_QPlogPC16>  (1541) 
15.718999999999999

>  <r_qp_QPlogPo/w>  (1541) 
4.0940000000000003

>  <r_qp_QPlogPoct>  (1541) 
24.942

>  <r_qp_QPlogPw>  (1541) 
14.335000000000001

>  <r_qp_QPlogS>  (1541) 
-4.0499999999999998

>  <r_qp_QPpolrz>  (1541) 
48.345999999999997

>  <r_qp_SASA>  (1541) 
737.69299999999998

>  <r_qp_SAamideO>  (1541) 
0

>  <r_qp_SAfluorine>  (1541) 
0

>  <r_qp_WPSA>  (1541) 
0

>  <r_qp_accptHB>  (1541) 
7.25

>  <r_qp_dip^2/V>  (1541) 
0.0336155

>  <r_qp_dipole>  (1541) 
6.923

>  <r_qp_donorHB>  (1541) 
3

>  <r_qp_glob>  (1541) 
0.8304724

>  <r_qp_mol_MW>  (1541) 
454.57100000000003

>  <r_qp_volume>  (1541) 
1425.7850000000001

>  <r_sd_BIOSOLVEIT.INFINISEE\_FTREES\_SIMILARITY>  (1541) 
0.92000000000000004

>  <r_sd_BIOSOLVEIT.LOGP>  (1541) 
4.2294999999999998

>  <r_sd_BIOSOLVEIT.MOLECULAR\_WEIGHT>  (1541) 
455.57900000000001

>  <r_sd_BIOSOLVEIT.TPSA>  (1541) 
78.689999999999998

>  <i_epik_Tot_Q>  (1541) 
1

>  <i_epik_Tot_abs_Q>  (1541) 
1

>  <i_f3d_flags>  (1541) 
0

>  <i_i_glide_confnum>  (1541) 
6

>  <i_i_glide_lignum>  (1541) 
873

>  <i_i_glide_posenum>  (1541) 
20

>  <i_i_glide_rotatable_bonds>  (1541) 
11

>  <i_lp_mmshare_version>  (1541) 
65135

>  <i_m_ct_format>  (1541) 
2

>  <i_m_source_file_index>  (1541) 
2367

>  <i_qp_#NandO>  (1541) 
6

>  <i_qp_#acid>  (1541) 
0

>  <i_qp_#amide>  (1541) 
0

>  <i_qp_#amidine>  (1541) 
0

>  <i_qp_#amine>  (1541) 
1

>  <i_qp_#in34>  (1541) 
0

>  <i_qp_#in56>  (1541) 
22

>  <i_qp_#metab>  (1541) 
8

>  <i_qp_#nonHatm>  (1541) 
34

>  <i_qp_#noncon>  (1541) 
0

>  <i_qp_#ringatoms>  (1541) 
22

>  <i_qp_#rotor>  (1541) 
10

>  <i_qp_#rtvFG>  (1541) 
0

>  <i_qp_#stars>  (1541) 
1

>  <i_qp_CNS>  (1541) 
-1

>  <i_qp_HumanOralAbsorption>  (1541) 
3

>  <i_qp_RuleOfFive>  (1541) 
0

>  <i_qp_RuleOfThree>  (1541) 
1

>  <i_sd_BIOSOLVEIT.INFINISEE\_RESULT\_RANK>  (1541) 
17477

>  <i_sd_version>  (1541) 
0

>  <b_lp_Chiralities_Consistent>  (1541) 
1

>  <b_sd_chiral_flag>  (1541) 
0

>  <canonical_id>  (1541) 
ATP-HTVS-F2668BF9E9B1

>  <compound_code>  (1541) 
75713

>  <title>  (1541) 
rxn502b____EMOL519605____EMOL7515103____EMOL44153840

>  <variant>  (1541) 
75713-1

>  <source_file>  (1541) 
运行/运行/ATP-VSW/ATP-VSW-DOCK_HTVS_1-001_lib/ATP-VSW-DOCK_HTVS_1-001_lib

>  <canonical_smiles>  (1541) 
CC[NH+](CC)Cc1cccc(CNc2cnc(NC(=O)c3cccc(O)c3)c3ccccc23)c1

>  <scaffold>  (1541) 
O=C(Nc1ncc(NCc2ccccc2)c2ccccc12)c1ccccc1

>  <molecular_formula>  (1541) 
C28H31N4O2+

$$$$
ATP-HTVS-F282BC43258B
     RDKit          3D

 65 68  0  0  0  0  0  0  0  0999 V2000
  197.3917  181.3874  150.8894 O   0  0  0  0  0  0  0  0  0  0  0  0
  197.3115  182.2359  151.7789 C   0  0  0  0  0  0  0  0  0  0  0  0
  197.4122  181.9534  153.0900 N   0  0  0  0  0  0  0  0  0  0  0  0
  197.9793  180.8175  153.7175 C   0  0  0  0  0  0  0  0  0  0  0  0
  198.7598  179.9371  153.0430 N   0  0  0  0  0  0  0  0  0  0  0  0
  199.3218  178.8920  153.6839 C   0  0  0  0  0  0  0  0  0  0  0  0
  199.1177  178.6817  155.0643 C   0  0  0  0  0  0  0  0  0  0  0  0
  198.3330  179.6001  155.7758 C   0  0  0  0  0  0  0  0  0  0  0  0
  197.7560  180.7072  155.1145 C   0  0  0  0  0  0  0  0  0  0  0  0
  197.0211  181.6925  155.8105 N   0  0  0  0  0  0  0  0  0  0  0  0
  196.5190  181.4822  157.1582 C   0  0  1  0  0  0  0  0  0  0  0  0
  196.4939  182.7458  157.9759 C   0  0  0  0  0  0  0  0  0  0  0  0
  195.2819  183.4207  158.2067 C   0  0  0  0  0  0  0  0  0  0  0  0
  195.2748  184.6036  158.9685 C   0  0  0  0  0  0  0  0  0  0  0  0
  196.4781  185.1106  159.5084 C   0  0  0  0  0  0  0  0  0  0  0  0
  197.6915  184.4280  159.2789 C   0  0  0  0  0  0  0  0  0  0  0  0
  197.6958  183.2523  158.5070 C   0  0  0  0  0  0  0  0  0  0  0  0
  196.4711  186.4202  160.2744 C   0  0  1  0  0  0  0  0  0  0  0  0
  197.1154  187.5398  159.5383 N   0  0  1  0  0  0  0  0  0  0  0  0
  196.6679  187.6776  158.1311 C   0  0  2  0  0  0  0  0  0  0  0  0
  197.0026  188.8165  160.2807 C   0  0  2  0  0  0  0  0  0  0  0  0
  199.6785  177.5745  155.7316 C   0  0  0  0  0  0  0  0  0  0  0  0
  200.4648  176.6508  155.0191 C   0  0  0  0  0  0  0  0  0  0  0  0
  200.6879  176.8483  153.6422 C   0  0  0  0  0  0  0  0  0  0  0  0
  200.1232  177.9639  152.9851 C   0  0  0  0  0  0  0  0  0  0  0  0
  196.9683  183.7062  151.4115 C   0  0  2  0  0  0  0  0  0  0  0  0
  195.5448  183.8171  151.3348 O   0  0  0  0  0  0  0  0  0  0  0  0
  197.6602  184.0893  150.0917 C   0  0  0  0  0  0  0  0  0  0  0  0
  199.0560  183.9260  149.9245 C   0  0  0  0  0  0  0  0  0  0  0  0
  199.6908  184.2672  148.7104 C   0  0  0  0  0  0  0  0  0  0  0  0
  198.9353  184.8013  147.6477 C   0  0  0  0  0  0  0  0  0  0  0  0
  197.5509  184.9867  147.8020 C   0  0  0  0  0  0  0  0  0  0  0  0
  196.9208  184.6430  149.0112 C   0  0  0  0  0  0  0  0  0  0  0  0
  197.4049  184.6955  152.5253 C   0  0  2  0  0  0  0  0  0  0  0  0
  197.1676  182.7000  153.7192 H   0  0  0  0  0  0  0  0  0  0  0  0
  198.2128  179.4111  156.8257 H   0  0  0  0  0  0  0  0  0  0  0  0
  196.4291  182.3235  155.2914 H   0  0  0  0  0  0  0  0  0  0  0  0
  195.5146  181.0611  157.0889 H   0  0  0  0  0  0  0  0  0  0  0  0
  197.1169  180.8158  157.7723 H   0  0  0  0  0  0  0  0  0  0  0  0
  194.3625  183.0385  157.7844 H   0  0  0  0  0  0  0  0  0  0  0  0
  194.3400  185.1239  159.1202 H   0  0  0  0  0  0  0  0  0  0  0  0
  198.6249  184.8063  159.6725 H   0  0  0  0  0  0  0  0  0  0  0  0
  198.6215  182.7268  158.3212 H   0  0  0  0  0  0  0  0  0  0  0  0
  195.4428  186.6796  160.5243 H   0  0  0  0  0  0  0  0  0  0  0  0
  196.9902  186.2668  161.2153 H   0  0  0  0  0  0  0  0  0  0  0  0
  195.5903  187.8295  158.0905 H   0  0  0  0  0  0  0  0  0  0  0  0
  196.9059  186.7935  157.5374 H   0  0  0  0  0  0  0  0  0  0  0  0
  197.1612  188.5196  157.6434 H   0  0  0  0  0  0  0  0  0  0  0  0
  195.9599  189.1277  160.3660 H   0  0  0  0  0  0  0  0  0  0  0  0
  197.5488  189.6110  159.7714 H   0  0  0  0  0  0  0  0  0  0  0  0
  197.4151  188.7268  161.2871 H   0  0  0  0  0  0  0  0  0  0  0  0
  199.4914  177.4262  156.7868 H   0  0  0  0  0  0  0  0  0  0  0  0
  200.8905  175.7972  155.5326 H   0  0  0  0  0  0  0  0  0  0  0  0
  201.2882  176.1365  153.0922 H   0  0  0  0  0  0  0  0  0  0  0  0
  200.2920  178.1044  151.9263 H   0  0  0  0  0  0  0  0  0  0  0  0
  195.1678  183.7842  152.1994 H   0  0  0  0  0  0  0  0  0  0  0  0
  199.6558  183.5096  150.7248 H   0  0  0  0  0  0  0  0  0  0  0  0
  200.7546  184.1171  148.5897 H   0  0  0  0  0  0  0  0  0  0  0  0
  199.4163  185.0622  146.7162 H   0  0  0  0  0  0  0  0  0  0  0  0
  196.9636  185.3950  146.9944 H   0  0  0  0  0  0  0  0  0  0  0  0
  195.8595  184.8057  149.0869 H   0  0  0  0  0  0  0  0  0  0  0  0
  198.4757  184.6315  152.7265 H   0  0  0  0  0  0  0  0  0  0  0  0
  196.8839  184.5320  153.4667 H   0  0  0  0  0  0  0  0  0  0  0  0
  197.1846  185.7278  152.2532 H   0  0  0  0  0  0  0  0  0  0  0  0
  198.1003  187.3201  159.4966 H   0  0  0  0  0  0  0  0  0  0  0  0
  1  2  2  0
  2  3  1  0
  2 26  1  0
  3  4  1  0
  3 35  1  0
  4  5  2  0
  4  9  1  0
  5  6  1  0
  6  7  1  0
  6 25  2  0
  7  8  1  0
  7 22  2  0
  8  9  2  0
  8 36  1  0
  9 10  1  0
 10 11  1  0
 10 37  1  0
 11 12  1  0
 11 38  1  6
 11 39  1  0
 12 13  1  0
 12 17  2  0
 13 14  2  0
 13 40  1  0
 14 15  1  0
 14 41  1  0
 15 16  2  0
 15 18  1  0
 16 17  1  0
 16 42  1  0
 17 43  1  0
 18 19  1  0
 18 44  1  1
 18 45  1  0
 19 20  1  0
 19 21  1  0
 19 65  1  6
 20 46  1  1
 20 47  1  0
 20 48  1  0
 21 49  1  1
 21 50  1  0
 21 51  1  0
 22 23  1  0
 22 52  1  0
 23 24  2  0
 23 53  1  0
 24 25  1  0
 24 54  1  0
 25 55  1  0
 26 27  1  6
 26 28  1  0
 26 34  1  0
 27 56  1  0
 28 29  2  0
 28 33  1  0
 29 30  1  0
 29 57  1  0
 30 31  2  0
 30 58  1  0
 31 32  1  0
 31 59  1  0
 32 33  2  0
 32 60  1  0
 33 61  1  0
 34 62  1  1
 34 63  1  0
 34 64  1  0
M  CHG  1  19   1
M  END
>  <s_epik_cmdline>  (1542) 
J2VwaWtfcHl0aG9uJywgJy1waCcsICc3LjAwMDAwMCcsICctcGh0JywgJzIuMDAwMDAwJywgJy1tcycsICcxNicsICctdG4nLCAnOCcsICctbWEnLCAnMjAwJywgJy1pbWFlJywgJzxpbmZpbGUubWFlPicsICctb21hZScsICc8b3V0ZmlsZS5tYWU+Jw==

>  <s_epik_input>  (1542) 
W2NIXTFbY0hdW2NIXVtjSF1bY0hdYzFbQ0BdKFtPSF0pKFtDSDNdKUMoPU8pW05IXWMobjIpYyhbY0hdYyhjMjMpW2NIXVtjSF1bY0hdW2NIXTMpW05IXVtDSDJdYzRbY0hdW2NIXWMoW2NIXVtjSF00KVtDSDJdTihbQ0gzXSlbQ0gzXQ==

>  <s_i_glide_gridfile>  (1542) 
ATP-Grid

>  <s_lp_Force_Field>  (1542) 
OPLS_2005

>  <s_lp_Variant>  (1542) 
rxn502b____EMOL299976369____EMOL44466703____EMOL50155899-1

>  <s_lp_label>  (1542) 
2174_sdstereoexpander_1_neutralizer_1_epik_1_stereoizer_1

>  <s_m_source_file>  (1542) 
ATP-VSW-LIGPREP-001-in.maegz

>  <s_sd_BIOSOLVEIT.INFINISEE\_QUERY\_NAME>  (1542) 
Ref-Lig

>  <s_sd_BIOSOLVEIT.INFINISEE\_QUERY\_SMILES>  (1542) 
S(c1nc2c(cc1C[NH2+]Cc3ccc(cc3)C[NH+](C)C)cccc2)Cc4ccccc4

>  <s_sd_BIOSOLVEIT.INFINISEE\_REACTION\_NAME>  (1542) 
rxn502b

>  <s_sd_BIOSOLVEIT.INFINISEE\_REAGENT1\_NAME>  (1542) 
EMOL299976369

>  <s_sd_BIOSOLVEIT.INFINISEE\_REAGENT1\_SMILES>  (1542) 
O=C(O)C(O)(c1ccccc1)C

>  <s_sd_BIOSOLVEIT.INFINISEE\_REAGENT2\_NAME>  (1542) 
EMOL44466703

>  <s_sd_BIOSOLVEIT.INFINISEE\_REAGENT2\_SMILES>  (1542) 
Brc1c(nc2c(c1)cccc2)N

>  <s_sd_BIOSOLVEIT.INFINISEE\_REAGENT3\_NAME>  (1542) 
EMOL50155899

>  <s_sd_BIOSOLVEIT.INFINISEE\_REAGENT3\_SMILES>  (1542) 
N(Cc1ccc(cc1)CN)(C)C

>  <s_sd_BIOSOLVEIT.INFINISEE\_SPACE>  (1542) 
eXplore_7tr_2022-12

>  <s_vsw_compound_code>  (1542) 
69537

>  <s_vsw_variant>  (1542) 
69537-1

>  <r_epik_Charging_Adjusted_Penalty>  (1542) 
0.11779098452122901

>  <r_epik_Ionization_Penalty>  (1542) 
0.065600000000000006

>  <r_epik_Ionization_Penalty_Charging>  (1542) 
0.039199999999999999

>  <r_epik_Ionization_Penalty_Neutral>  (1542) 
0.0264

>  <r_epik_State_Penalty>  (1542) 
0.078600000000000003

>  <r_i_docking_score>  (1542) 
-4.6541536822341198

>  <r_i_glide_ecoul>  (1542) 
-11.114935874939

>  <r_i_glide_eff_state_penalty>  (1542) 
0.078600000000000003

>  <r_i_glide_einternal>  (1542) 
7.9352536201477104

>  <r_i_glide_emodel>  (1542) 
-62.005115913354999

>  <r_i_glide_energy>  (1542) 
-47.588618278503397

>  <r_i_glide_erotb>  (1542) 
0.67759141623085495

>  <r_i_glide_esite>  (1542) 
-0.066647318322991894

>  <r_i_glide_evdw>  (1542) 
-36.473682403564503

>  <r_i_glide_gscore>  (1542) 
-4.7327536822341196

>  <r_i_glide_hbond>  (1542) 
0

>  <r_i_glide_ligand_efficiency>  (1542) 
-0.13688687300688601

>  <r_i_glide_ligand_efficiency_ln>  (1542) 
-1.0282330929944601

>  <r_i_glide_ligand_efficiency_sa>  (1542) 
-0.44346032871181201

>  <r_i_glide_lipo>  (1542) 
-1.54985059690473

>  <r_i_glide_metal>  (1542) 
-0

>  <r_i_glide_rewards>  (1542) 
-0.30292268181818099

>  <r_lp_Energy>  (1542) 
29.873833999999999

>  <r_qp_ACxDN^.5/SA>  (1542) 
0.016630200000000001

>  <r_qp_CIQPlogS>  (1542) 
-5.694

>  <r_qp_EA(eV)>  (1542) 
0.76600000000000001

>  <r_qp_FISA>  (1542) 
80.129000000000005

>  <r_qp_FOSA>  (1542) 
260.60000000000002

>  <r_qp_IP(eV)>  (1542) 
8.2360000000000007

>  <r_qp_Jm>  (1542) 
0.0262729178330855

>  <r_qp_PISA>  (1542) 
414.36599999999999

>  <r_qp_PSA>  (1542) 
76.540999999999997

>  <r_qp_PercentHumanOralAbsorption>  (1542) 
100

>  <r_qp_QPPCaco>  (1542) 
429.476

>  <r_qp_QPPMDCK>  (1542) 
219.523

>  <r_qp_QPlogBB>  (1542) 
-0.38

>  <r_qp_QPlogHERG>  (1542) 
-7.1870000000000003

>  <r_qp_QPlogKhsa>  (1542) 
0.65000000000000002

>  <r_qp_QPlogKp>  (1542) 
-2.7349999999999999

>  <r_qp_QPlogPC16>  (1542) 
15.747999999999999

>  <r_qp_QPlogPo/w>  (1542) 
4.4139999999999997

>  <r_qp_QPlogPoct>  (1542) 
25.619

>  <r_qp_QPlogPw>  (1542) 
14.449999999999999

>  <r_qp_QPlogS>  (1542) 
-4.5030000000000001

>  <r_qp_QPpolrz>  (1542) 
49.738

>  <r_qp_SASA>  (1542) 
755.09500000000003

>  <r_qp_SAamideO>  (1542) 
0

>  <r_qp_SAfluorine>  (1542) 
0

>  <r_qp_WPSA>  (1542) 
0

>  <r_qp_accptHB>  (1542) 
7.25

>  <r_qp_dip^2/V>  (1542) 
0.059083299999999998

>  <r_qp_dipole>  (1542) 
9.2309999999999999

>  <r_qp_donorHB>  (1542) 
3

>  <r_qp_glob>  (1542) 
0.81751529999999994

>  <r_qp_mol_MW>  (1542) 
454.57100000000003

>  <r_qp_volume>  (1542) 
1442.1099999999999

>  <r_sd_BIOSOLVEIT.INFINISEE\_FTREES\_SIMILARITY>  (1542) 
0.93799999999999994

>  <r_sd_BIOSOLVEIT.LOGP>  (1542) 
3.3376000000000001

>  <r_sd_BIOSOLVEIT.MOLECULAR\_WEIGHT>  (1542) 
455.57900000000001

>  <r_sd_BIOSOLVEIT.TPSA>  (1542) 
78.689999999999998

>  <i_epik_Tot_Q>  (1542) 
1

>  <i_epik_Tot_abs_Q>  (1542) 
1

>  <i_f3d_flags>  (1542) 
0

>  <i_i_glide_confnum>  (1542) 
6

>  <i_i_glide_lignum>  (1542) 
685

>  <i_i_glide_posenum>  (1542) 
8

>  <i_i_glide_rotatable_bonds>  (1542) 
10

>  <i_lp_mmshare_version>  (1542) 
65135

>  <i_m_ct_format>  (1542) 
2

>  <i_m_source_file_index>  (1542) 
2174

>  <i_qp_#NandO>  (1542) 
6

>  <i_qp_#acid>  (1542) 
0

>  <i_qp_#amide>  (1542) 
0

>  <i_qp_#amidine>  (1542) 
0

>  <i_qp_#amine>  (1542) 
1

>  <i_qp_#in34>  (1542) 
0

>  <i_qp_#in56>  (1542) 
22

>  <i_qp_#metab>  (1542) 
7

>  <i_qp_#nonHatm>  (1542) 
34

>  <i_qp_#noncon>  (1542) 
0

>  <i_qp_#ringatoms>  (1542) 
22

>  <i_qp_#rotor>  (1542) 
9

>  <i_qp_#rtvFG>  (1542) 
0

>  <i_qp_#stars>  (1542) 
0

>  <i_qp_CNS>  (1542) 
0

>  <i_qp_HumanOralAbsorption>  (1542) 
3

>  <i_qp_RuleOfFive>  (1542) 
0

>  <i_qp_RuleOfThree>  (1542) 
1

>  <i_sd_BIOSOLVEIT.INFINISEE\_RESULT\_RANK>  (1542) 
1682

>  <i_sd_version>  (1542) 
0

>  <b_lp_Chiralities_Consistent>  (1542) 
1

>  <b_sd_chiral_flag>  (1542) 
0

>  <canonical_id>  (1542) 
ATP-HTVS-F282BC43258B

>  <compound_code>  (1542) 
69537

>  <title>  (1542) 
rxn502b____EMOL299976369____EMOL44466703____EMOL50155899

>  <variant>  (1542) 
69537-1

>  <source_file>  (1542) 
运行/运行/ATP-VSW/ATP-VSW-DOCK_HTVS_1-001_lib/ATP-VSW-DOCK_HTVS_1-001_lib

>  <canonical_smiles>  (1542) 
C[NH+](C)Cc1ccc(CNc2cc3ccccc3nc2NC(=O)[C@](C)(O)c2ccccc2)cc1

>  <scaffold>  (1542) 
O=C(Cc1ccccc1)Nc1nc2ccccc2cc1NCc1ccccc1

>  <molecular_formula>  (1542) 
C28H31N4O2+

$$$$
ATP-HTVS-F2D870036CD8
     RDKit          3D

 56 58  0  0  0  0  0  0  0  0999 V2000
  199.9770  177.0083  148.9175 Cl  0  0  0  0  0  0  0  0  0  0  0  0
  200.5110  176.2816  150.3874 C   0  0  0  0  0  0  0  0  0  0  0  0
  201.6075  175.3970  150.3928 C   0  0  0  0  0  0  0  0  0  0  0  0
  202.0489  174.8148  151.6007 C   0  0  0  0  0  0  0  0  0  0  0  0
  201.3771  175.0912  152.8154 C   0  0  0  0  0  0  0  0  0  0  0  0
  201.8040  174.4532  154.0314 N   0  0  0  0  0  0  0  0  0  0  0  0
  202.0937  175.1522  155.1728 C   0  0  0  0  0  0  0  0  0  0  0  0
  202.5094  174.6239  156.2069 O   0  0  0  0  0  0  0  0  0  0  0  0
  201.8713  176.6152  155.1982 C   0  0  0  0  0  0  0  0  0  0  0  0
  202.9692  177.6140  154.2784 S   0  0  0  0  0  0  0  0  0  0  0  0
  202.0830  179.0455  154.7196 C   0  0  0  0  0  0  0  0  0  0  0  0
  201.0540  178.7584  155.5836 C   0  0  0  0  0  0  0  0  0  0  0  0
  200.1804  179.6754  156.1835 N   0  0  0  0  0  0  0  0  0  0  0  0
  200.5416  181.0806  156.2538 C   0  0  1  0  0  0  0  0  0  0  0  0
  199.5036  181.9695  156.9020 C   0  0  0  0  0  0  0  0  0  0  0  0
  198.1283  181.7414  156.6815 C   0  0  0  0  0  0  0  0  0  0  0  0
  197.1658  182.5891  157.2599 C   0  0  0  0  0  0  0  0  0  0  0  0
  197.5867  183.6765  158.0599 C   0  0  0  0  0  0  0  0  0  0  0  0
  198.9568  183.8973  158.2998 C   0  0  0  0  0  0  0  0  0  0  0  0
  199.9149  183.0489  157.7148 C   0  0  0  0  0  0  0  0  0  0  0  0
  195.6847  182.3250  157.0340 C   0  0  1  0  0  0  0  0  0  0  0  0
  195.0387  181.4369  158.0491 N   0  0  2  0  0  0  0  0  0  0  0  0
  193.5670  181.3968  157.9328 C   0  0  2  0  0  0  0  0  0  0  0  0
  195.4745  181.7166  159.4282 C   0  0  2  0  0  0  0  0  0  0  0  0
  200.9255  177.3660  155.8492 C   0  0  0  0  0  0  0  0  0  0  0  0
  202.0250  172.9858  154.0027 C   0  0  1  0  0  0  0  0  0  0  0  0
  201.0229  172.2066  153.1246 C   0  0  2  0  0  0  0  0  0  0  0  0
  200.2519  175.9523  152.7853 C   0  0  0  0  0  0  0  0  0  0  0  0
  199.8437  176.5672  151.5909 C   0  0  0  0  0  0  0  0  0  0  0  0
  202.1033  175.1411  149.4652 H   0  0  0  0  0  0  0  0  0  0  0  0
  202.8967  174.1406  151.5855 H   0  0  0  0  0  0  0  0  0  0  0  0
  202.3785  180.0029  154.3198 H   0  0  0  0  0  0  0  0  0  0  0  0
  199.5429  179.3202  156.8876 H   0  0  0  0  0  0  0  0  0  0  0  0
  201.4848  181.1633  156.7943 H   0  0  0  0  0  0  0  0  0  0  0  0
  200.7095  181.4698  155.2478 H   0  0  0  0  0  0  0  0  0  0  0  0
  197.8012  180.9051  156.0786 H   0  0  0  0  0  0  0  0  0  0  0  0
  196.8627  184.3279  158.5223 H   0  0  0  0  0  0  0  0  0  0  0  0
  199.2717  184.7096  158.9382 H   0  0  0  0  0  0  0  0  0  0  0  0
  200.9666  183.2288  157.8922 H   0  0  0  0  0  0  0  0  0  0  0  0
  195.2012  183.2973  157.0475 H   0  0  0  0  0  0  0  0  0  0  0  0
  195.5516  181.8699  156.0541 H   0  0  0  0  0  0  0  0  0  0  0  0
  193.1371  182.3780  158.1372 H   0  0  0  0  0  0  0  0  0  0  0  0
  193.1590  180.6843  158.6481 H   0  0  0  0  0  0  0  0  0  0  0  0
  193.2467  181.0651  156.9479 H   0  0  0  0  0  0  0  0  0  0  0  0
  195.2623  182.7445  159.7319 H   0  0  0  0  0  0  0  0  0  0  0  0
  196.5437  181.5375  159.4771 H   0  0  0  0  0  0  0  0  0  0  0  0
  194.9992  181.0361  160.1354 H   0  0  0  0  0  0  0  0  0  0  0  0
  200.1400  176.9631  156.4747 H   0  0  0  0  0  0  0  0  0  0  0  0
  203.0535  172.7943  153.6918 H   0  0  0  0  0  0  0  0  0  0  0  0
  201.9491  172.5533  155.0027 H   0  0  0  0  0  0  0  0  0  0  0  0
  201.1936  171.1279  153.2017 H   0  0  0  0  0  0  0  0  0  0  0  0
  201.0852  172.4202  152.0601 H   0  0  0  0  0  0  0  0  0  0  0  0
  200.0023  172.4059  153.4464 H   0  0  0  0  0  0  0  0  0  0  0  0
  199.6752  176.1585  153.6746 H   0  0  0  0  0  0  0  0  0  0  0  0
  199.0098  177.2497  151.6096 H   0  0  0  0  0  0  0  0  0  0  0  0
  195.3682  180.4773  157.8767 H   0  0  0  0  0  0  0  0  0  0  0  0
  1  2  1  0
  2  3  1  0
  2 29  2  0
  3  4  2  0
  3 30  1  0
  4  5  1  0
  4 31  1  0
  5  6  1  0
  5 28  2  0
  6  7  1  0
  6 26  1  0
  7  8  2  0
  7  9  1  0
  9 10  1  0
  9 25  2  0
 10 11  1  0
 11 12  2  0
 11 32  1  0
 12 13  1  0
 12 25  1  0
 13 14  1  0
 13 33  1  0
 14 15  1  0
 14 34  1  1
 14 35  1  0
 15 16  2  0
 15 20  1  0
 16 17  1  0
 16 36  1  0
 17 18  2  0
 17 21  1  0
 18 19  1  0
 18 37  1  0
 19 20  2  0
 19 38  1  0
 20 39  1  0
 21 22  1  0
 21 40  1  6
 21 41  1  0
 22 23  1  0
 22 24  1  0
 22 56  1  6
 23 42  1  1
 23 43  1  0
 23 44  1  0
 24 45  1  1
 24 46  1  0
 24 47  1  0
 25 48  1  0
 26 27  1  0
 26 49  1  6
 26 50  1  0
 27 51  1  6
 27 52  1  0
 27 53  1  0
 28 29  1  0
 28 54  1  0
 29 55  1  0
M  CHG  1  22   1
M  END
>  <s_epik_cmdline>  (1543) 
J2VwaWtfcHl0aG9uJywgJy1waCcsICc3LjAwMDAwMCcsICctcGh0JywgJzIuMDAwMDAwJywgJy1tcycsICcxNicsICctdG4nLCAnOCcsICctbWEnLCAnMjAwJywgJy1pbWFlJywgJzxpbmZpbGUubWFlPicsICctb21hZScsICc8b3V0ZmlsZS5tYWU+Jw==

>  <s_epik_input>  (1543) 
Q2xjMVtjSF1bY0hdYyhbY0hdW2NIXTEpTihbQ0gyXVtDSDNdKUMoPU8pYzJzW2NIXWMoW2NIXTIpW05IXVtDSDJdYzNbY0hdYyhbY0hdW2NIXVtjSF0zKVtDSDJdTihbQ0gzXSlbQ0gzXQ==

>  <s_i_glide_gridfile>  (1543) 
ATP-Grid

>  <s_lp_Force_Field>  (1543) 
OPLS_2005

>  <s_lp_Variant>  (1543) 
rxn512b____EMOL918461____EMOL720738____EMOL2873214-1

>  <s_lp_label>  (1543) 
2409_sdstereoexpander_1_neutralizer_1_epik_1_stereoizer_1

>  <s_m_source_file>  (1543) 
ATP-VSW-LIGPREP-001-in.maegz

>  <s_sd_BIOSOLVEIT.INFINISEE\_QUERY\_NAME>  (1543) 
Ref-Lig

>  <s_sd_BIOSOLVEIT.INFINISEE\_QUERY\_SMILES>  (1543) 
S(c1nc2c(cc1C[NH2+]Cc3ccc(cc3)C[NH+](C)C)cccc2)Cc4ccccc4

>  <s_sd_BIOSOLVEIT.INFINISEE\_REACTION\_NAME>  (1543) 
rxn512b

>  <s_sd_BIOSOLVEIT.INFINISEE\_REAGENT1\_NAME>  (1543) 
EMOL918461

>  <s_sd_BIOSOLVEIT.INFINISEE\_REAGENT1\_SMILES>  (1543) 
Clc1ccc(NCC)cc1

>  <s_sd_BIOSOLVEIT.INFINISEE\_REAGENT2\_NAME>  (1543) 
EMOL720738

>  <s_sd_BIOSOLVEIT.INFINISEE\_REAGENT2\_SMILES>  (1543) 
BrC1=CSC(C(=O)O)=C1

>  <s_sd_BIOSOLVEIT.INFINISEE\_REAGENT3\_NAME>  (1543) 
EMOL2873214

>  <s_sd_BIOSOLVEIT.INFINISEE\_REAGENT3\_SMILES>  (1543) 
N(Cc1cc(ccc1)CN)(C)C

>  <s_sd_BIOSOLVEIT.INFINISEE\_SPACE>  (1543) 
eXplore_7tr_2022-12

>  <s_vsw_compound_code>  (1543) 
77057

>  <s_vsw_variant>  (1543) 
77057-1

>  <r_epik_Charging_Adjusted_Penalty>  (1543) 
0.086140609825027206

>  <r_epik_Ionization_Penalty>  (1543) 
0.043099999999999999

>  <r_epik_Ionization_Penalty_Charging>  (1543) 
0.043099999999999999

>  <r_epik_Ionization_Penalty_Neutral>  (1543) 
0

>  <r_epik_State_Penalty>  (1543) 
0.043099999999999999

>  <r_i_docking_score>  (1543) 
-4.1413445707498804

>  <r_i_glide_ecoul>  (1543) 
-13.8054800033569

>  <r_i_glide_eff_state_penalty>  (1543) 
0.043099999999999999

>  <r_i_glide_einternal>  (1543) 
7.3870053291320801

>  <r_i_glide_emodel>  (1543) 
-49.173602875518199

>  <r_i_glide_energy>  (1543) 
-38.236618995666497

>  <r_i_glide_erotb>  (1543) 
0.75570723507794701

>  <r_i_glide_esite>  (1543) 
-0.12164631320080201

>  <r_i_glide_evdw>  (1543) 
-24.431138992309599

>  <r_i_glide_gscore>  (1543) 
-4.1844445707498803

>  <r_i_glide_hbond>  (1543) 
-0.12668689983304901

>  <r_i_glide_ligand_efficiency>  (1543) 
-0.14280498519827201

>  <r_i_glide_ligand_efficiency_ln>  (1543) 
-0.94826289126438901

>  <r_i_glide_ligand_efficiency_sa>  (1543) 
-0.43874215832401098

>  <r_i_glide_lipo>  (1543) 
-0.356422198931031

>  <r_i_glide_metal>  (1543) 
-0

>  <r_i_glide_rewards>  (1543) 
-1.0430174437439299

>  <r_lp_Energy>  (1543) 
32.546393000000002

>  <r_lp_tautomer_probability>  (1543) 
0.99999274205267796

>  <r_qp_ACxDN^.5/SA>  (1543) 
0.0097585999999999992

>  <r_qp_CIQPlogS>  (1543) 
-4.4400000000000004

>  <r_qp_EA(eV)>  (1543) 
0.44500000000000001

>  <r_qp_FISA>  (1543) 
54.552999999999997

>  <r_qp_FOSA>  (1543) 
280.17599999999999

>  <r_qp_IP(eV)>  (1543) 
8.4350000000000005

>  <r_qp_Jm>  (1543) 
0.0454561888746065

>  <r_qp_PISA>  (1543) 
214.22900000000001

>  <r_qp_PSA>  (1543) 
45.404000000000003

>  <r_qp_PercentHumanOralAbsorption>  (1543) 
88.680000000000007

>  <r_qp_QPPCaco>  (1543) 
187.22999999999999

>  <r_qp_QPPMDCK>  (1543) 
227.267

>  <r_qp_QPlogBB>  (1543) 
0.59399999999999997

>  <r_qp_QPlogHERG>  (1543) 
-5.5810000000000004

>  <r_qp_QPlogKhsa>  (1543) 
0.48099999999999998

>  <r_qp_QPlogKp>  (1543) 
-5.1269999999999998

>  <r_qp_QPlogPC16>  (1543) 
12.314

>  <r_qp_QPlogPo/w>  (1543) 
3.597

>  <r_qp_QPlogPoct>  (1543) 
18.111999999999998

>  <r_qp_QPlogPw>  (1543) 
8.6600000000000001

>  <r_qp_QPlogS>  (1543) 
-1.8460000000000001

>  <r_qp_QPpolrz>  (1543) 
39.956000000000003

>  <r_qp_SASA>  (1543) 
614.84000000000003

>  <r_qp_SAamideO>  (1543) 
0

>  <r_qp_SAfluorine>  (1543) 
0

>  <r_qp_WPSA>  (1543) 
65.882000000000005

>  <r_qp_accptHB>  (1543) 
6

>  <r_qp_dip^2/V>  (1543) 
0.0119346

>  <r_qp_dipole>  (1543) 
3.8300000000000001

>  <r_qp_donorHB>  (1543) 
1

>  <r_qp_glob>  (1543) 
0.90268060000000006

>  <r_qp_mol_MW>  (1543) 
427.99099999999999

>  <r_qp_volume>  (1543) 
1229.4110000000001

>  <r_sd_BIOSOLVEIT.INFINISEE\_FTREES\_SIMILARITY>  (1543) 
0.91800000000000004

>  <r_sd_BIOSOLVEIT.LOGP>  (1543) 
4.3247999999999998

>  <r_sd_BIOSOLVEIT.MOLECULAR\_WEIGHT>  (1543) 
429.00400000000002

>  <r_sd_BIOSOLVEIT.TPSA>  (1543) 
36.780000000000001

>  <i_epik_Tot_Q>  (1543) 
1

>  <i_epik_Tot_abs_Q>  (1543) 
1

>  <i_f3d_flags>  (1543) 
0

>  <i_i_glide_confnum>  (1543) 
6

>  <i_i_glide_lignum>  (1543) 
914

>  <i_i_glide_posenum>  (1543) 
5

>  <i_i_glide_rotatable_bonds>  (1543) 
9

>  <i_lp_mmshare_version>  (1543) 
65135

>  <i_m_ct_format>  (1543) 
2

>  <i_m_source_file_index>  (1543) 
2409

>  <i_qp_#NandO>  (1543) 
4

>  <i_qp_#acid>  (1543) 
0

>  <i_qp_#amide>  (1543) 
0

>  <i_qp_#amidine>  (1543) 
0

>  <i_qp_#amine>  (1543) 
2

>  <i_qp_#in34>  (1543) 
0

>  <i_qp_#in56>  (1543) 
17

>  <i_qp_#metab>  (1543) 
5

>  <i_qp_#nonHatm>  (1543) 
29

>  <i_qp_#noncon>  (1543) 
0

>  <i_qp_#ringatoms>  (1543) 
17

>  <i_qp_#rotor>  (1543) 
8

>  <i_qp_#rtvFG>  (1543) 
0

>  <i_qp_#stars>  (1543) 
0

>  <i_qp_CNS>  (1543) 
2

>  <i_qp_HumanOralAbsorption>  (1543) 
3

>  <i_qp_RuleOfFive>  (1543) 
0

>  <i_qp_RuleOfThree>  (1543) 
0

>  <i_sd_BIOSOLVEIT.INFINISEE\_RESULT\_RANK>  (1543) 
21345

>  <i_sd_version>  (1543) 
0

>  <b_lp_Chiralities_Consistent>  (1543) 
1

>  <b_sd_chiral_flag>  (1543) 
0

>  <canonical_id>  (1543) 
ATP-HTVS-F2D870036CD8

>  <compound_code>  (1543) 
77057

>  <title>  (1543) 
rxn512b____EMOL918461____EMOL720738____EMOL2873214

>  <variant>  (1543) 
77057-1

>  <source_file>  (1543) 
运行/运行/ATP-VSW/ATP-VSW-DOCK_HTVS_1-001_lib/ATP-VSW-DOCK_HTVS_1-001_lib

>  <canonical_smiles>  (1543) 
CCN(C(=O)c1cc(NCc2cccc(C[NH+](C)C)c2)cs1)c1ccc(Cl)cc1

>  <scaffold>  (1543) 
O=C(Nc1ccccc1)c1cc(NCc2ccccc2)cs1

>  <molecular_formula>  (1543) 
C23H27ClN3OS+

$$$$
ATP-HTVS-F308899F49E6
     RDKit          3D

 49 51  0  0  0  0  0  0  0  0999 V2000
  197.6714  185.4044  147.9107 F   0  0  0  0  0  0  0  0  0  0  0  0
  197.5655  184.3271  148.7267 C   0  0  0  0  0  0  0  0  0  0  0  0
  196.5138  184.2516  149.6573 C   0  0  0  0  0  0  0  0  0  0  0  0
  196.3975  183.1363  150.5071 C   0  0  0  0  0  0  0  0  0  0  0  0
  197.3766  182.1157  150.4750 C   0  0  0  0  0  0  0  0  0  0  0  0
  197.3257  181.0332  151.3273 O   0  0  0  0  0  0  0  0  0  0  0  0
  197.2688  181.2162  152.6966 C   0  0  0  0  0  0  0  0  0  0  0  0
  197.3173  182.4796  153.1759 N   0  0  0  0  0  0  0  0  0  0  0  0
  197.1598  182.6720  154.4899 C   0  0  0  0  0  0  0  0  0  0  0  0
  197.0236  181.6109  155.3978 C   0  0  0  0  0  0  0  0  0  0  0  0
  197.0272  180.2882  154.9282 C   0  0  0  0  0  0  0  0  0  0  0  0
  197.1358  180.0941  153.5410 C   0  0  0  0  0  0  0  0  0  0  0  0
  196.9289  181.9121  156.8657 C   0  0  1  0  0  0  0  0  0  0  0  0
  195.5388  181.8324  157.3474 N   0  0  1  0  0  0  0  0  0  0  0  0
  195.3698  182.1036  158.7915 C   0  0  1  0  0  0  0  0  0  0  0  0
  195.7872  183.5168  159.1840 C   0  0  0  0  0  0  0  0  0  0  0  0
  197.1516  183.8353  159.3545 C   0  0  0  0  0  0  0  0  0  0  0  0
  197.5453  185.1613  159.6176 C   0  0  0  0  0  0  0  0  0  0  0  0
  196.5817  186.1696  159.8064 C   0  0  0  0  0  0  0  0  0  0  0  0
  197.0437  187.4555  160.1125 N   0  0  0  0  0  0  0  0  0  0  0  0
  196.1472  188.5921  160.2408 C   0  0  1  0  0  0  0  0  0  0  0  0
  196.7561  189.6887  161.1115 C   0  0  2  0  0  0  0  0  0  0  0  0
  195.2112  185.8386  159.6854 C   0  0  0  0  0  0  0  0  0  0  0  0
  194.8179  184.5245  159.3677 C   0  0  0  0  0  0  0  0  0  0  0  0
  198.4216  182.1928  149.5331 C   0  0  0  0  0  0  0  0  0  0  0  0
  198.5183  183.2940  148.6633 C   0  0  0  0  0  0  0  0  0  0  0  0
  194.9233  182.4183  156.7836 H   0  0  0  0  0  0  0  0  0  0  0  0
  195.7871  185.0409  149.7167 H   0  0  0  0  0  0  0  0  0  0  0  0
  195.5795  183.0903  151.2144 H   0  0  0  0  0  0  0  0  0  0  0  0
  197.1615  183.6995  154.8281 H   0  0  0  0  0  0  0  0  0  0  0  0
  196.9445  179.4554  155.6174 H   0  0  0  0  0  0  0  0  0  0  0  0
  197.1097  179.0933  153.1308 H   0  0  0  0  0  0  0  0  0  0  0  0
  197.5553  181.2236  157.4331 H   0  0  0  0  0  0  0  0  0  0  0  0
  197.3329  182.9146  156.9748 H   0  0  0  0  0  0  0  0  0  0  0  0
  194.3147  181.9447  159.0497 H   0  0  0  0  0  0  0  0  0  0  0  0
  195.9450  181.3690  159.3623 H   0  0  0  0  0  0  0  0  0  0  0  0
  197.9156  183.0759  159.2423 H   0  0  0  0  0  0  0  0  0  0  0  0
  198.5983  185.3917  159.6654 H   0  0  0  0  0  0  0  0  0  0  0  0
  198.0333  187.6241  160.2446 H   0  0  0  0  0  0  0  0  0  0  0  0
  195.9460  188.9791  159.2442 H   0  0  0  0  0  0  0  0  0  0  0  0
  195.2056  188.3014  160.7006 H   0  0  0  0  0  0  0  0  0  0  0  0
  196.0672  190.5318  161.1918 H   0  0  0  0  0  0  0  0  0  0  0  0
  197.6997  190.0519  160.6974 H   0  0  0  0  0  0  0  0  0  0  0  0
  196.9494  189.3137  162.1187 H   0  0  0  0  0  0  0  0  0  0  0  0
  194.4366  186.5786  159.7970 H   0  0  0  0  0  0  0  0  0  0  0  0
  193.7648  184.3058  159.2466 H   0  0  0  0  0  0  0  0  0  0  0  0
  199.1672  181.4069  149.4902 H   0  0  0  0  0  0  0  0  0  0  0  0
  199.3281  183.3562  147.9519 H   0  0  0  0  0  0  0  0  0  0  0  0
  195.2360  180.8629  157.2209 H   0  0  0  0  0  0  0  0  0  0  0  0
  1  2  1  0
  2  3  1  0
  2 26  2  0
  3  4  2  0
  3 28  1  0
  4  5  1  0
  4 29  1  0
  5  6  1  0
  5 25  2  0
  6  7  1  0
  7  8  1  0
  7 12  2  0
  8  9  2  0
  9 10  1  0
  9 30  1  0
 10 11  2  0
 10 13  1  0
 11 12  1  0
 11 31  1  0
 12 32  1  0
 13 14  1  0
 13 33  1  1
 13 34  1  0
 14 15  1  0
 14 27  1  6
 14 49  1  0
 15 16  1  0
 15 35  1  1
 15 36  1  0
 16 17  1  0
 16 24  2  0
 17 18  2  0
 17 37  1  0
 18 19  1  0
 18 38  1  0
 19 20  1  0
 19 23  2  0
 20 21  1  0
 20 39  1  0
 21 22  1  0
 21 40  1  6
 21 41  1  0
 22 42  1  1
 22 43  1  0
 22 44  1  0
 23 24  1  0
 23 45  1  0
 24 46  1  0
 25 26  1  0
 25 47  1  0
 26 48  1  0
M  CHG  1  14   1
M  END
>  <s_epik_cmdline>  (1544) 
J2VwaWtfcHl0aG9uJywgJy1waCcsICc3LjAwMDAwMCcsICctcGh0JywgJzIuMDAwMDAwJywgJy1tcycsICcxNicsICctdG4nLCAnOCcsICctbWEnLCAnMjAwJywgJy1pbWFlJywgJzxpbmZpbGUubWFlPicsICctb21hZScsICc8b3V0ZmlsZS5tYWU+Jw==

>  <s_epik_input>  (1544) 
RmMxW2NIXVtjSF1jKFtjSF1bY0hdMSlPYzJuW2NIXWMoW2NIXVtjSF0yKVtDSDJdW05IXVtDSDJdYzNbY0hdW2NIXWMoW2NIXVtjSF0zKVtOSF1bQ0gyXVtDSDNd

>  <s_i_glide_gridfile>  (1544) 
ATP-Grid

>  <s_lp_Force_Field>  (1544) 
OPLS_2005

>  <s_lp_Variant>  (1544) 
m_270004bbb____23868358____11947658-1

>  <s_lp_label>  (1544) 
1642_sdstereoexpander_1_neutralizer_1_epik_1_stereoizer_1

>  <s_m_source_file>  (1544) 
ATP-VSW-LIGPREP-003-in.maegz

>  <s_sd_BIOSOLVEIT.INFINISEE\_QUERY\_NAME>  (1544) 
Ref-Lig

>  <s_sd_BIOSOLVEIT.INFINISEE\_QUERY\_SMILES>  (1544) 
S(c1nc2c(cc1C[NH2+]Cc3ccc(cc3)C[NH+](C)C)cccc2)Cc4ccccc4

>  <s_sd_BIOSOLVEIT.INFINISEE\_REACTION\_NAME>  (1544) 
m_270004bbb

>  <s_sd_BIOSOLVEIT.INFINISEE\_REAGENT1\_SMILES>  (1544) 
[R1*]NCc1ccc(NCC)cc1

>  <s_sd_BIOSOLVEIT.INFINISEE\_REAGENT2\_SMILES>  (1544) 
[R1*]Cc1cnc(Oc2ccc(F)cc2)cc1

>  <s_sd_BIOSOLVEIT.INFINISEE\_SPACE>  (1544) 
REALSpace_44bn_2023-08

>  <s_vsw_compound_code>  (1544) 
52515

>  <s_vsw_variant>  (1544) 
52515-1

>  <r_epik_Charging_Adjusted_Penalty>  (1544) 
0.227432282685925

>  <r_epik_Ionization_Penalty>  (1544) 
0.15609999999999999

>  <r_epik_Ionization_Penalty_Charging>  (1544) 
0.15570000000000001

>  <r_epik_Ionization_Penalty_Neutral>  (1544) 
0.00040000000000000002

>  <r_epik_State_Penalty>  (1544) 
0.071800000000000003

>  <r_i_docking_score>  (1544) 
-5.9064159427641103

>  <r_i_glide_ecoul>  (1544) 
-11.101117134094199

>  <r_i_glide_eff_state_penalty>  (1544) 
0.071800000000000003

>  <r_i_glide_einternal>  (1544) 
1.9476463794708301

>  <r_i_glide_emodel>  (1544) 
-68.954669203433696

>  <r_i_glide_energy>  (1544) 
-45.057553291320801

>  <r_i_glide_erotb>  (1544) 
1.0755988569760899

>  <r_i_glide_esite>  (1544) 
-0.10000000000000001

>  <r_i_glide_evdw>  (1544) 
-33.956436157226598

>  <r_i_glide_gscore>  (1544) 
-5.9782159427641099

>  <r_i_glide_hbond>  (1544) 
-0.36483090245187699

>  <r_i_glide_ligand_efficiency>  (1544) 
-0.22716984395246601

>  <r_i_glide_ligand_efficiency_ln>  (1544) 
-1.3871024036266999

>  <r_i_glide_ligand_efficiency_sa>  (1544) 
-0.67298976883900696

>  <r_i_glide_lipo>  (1544) 
-1.9586523457435101

>  <r_i_glide_metal>  (1544) 
-0

>  <r_i_glide_rewards>  (1544) 
-1.26734217356935

>  <r_lp_Energy>  (1544) 
16.641465

>  <r_lp_tautomer_probability>  (1544) 
1

>  <r_qp_ACxDN^.5/SA>  (1544) 
0.0079833999999999999

>  <r_qp_CIQPlogS>  (1544) 
-4.694

>  <r_qp_EA(eV)>  (1544) 
0.20799999999999999

>  <r_qp_FISA>  (1544) 
36.012

>  <r_qp_FOSA>  (1544) 
201.767

>  <r_qp_IP(eV)>  (1544) 
8.0570000000000004

>  <r_qp_Jm>  (1544) 
0.021517175199390001

>  <r_qp_PISA>  (1544) 
423.77999999999997

>  <r_qp_PSA>  (1544) 
44.789999999999999

>  <r_qp_PercentHumanOralAbsorption>  (1544) 
100

>  <r_qp_QPPCaco>  (1544) 
1125.385

>  <r_qp_QPPMDCK>  (1544) 
1125.22

>  <r_qp_QPlogBB>  (1544) 
0.19600000000000001

>  <r_qp_QPlogHERG>  (1544) 
-7.9169999999999998

>  <r_qp_QPlogKhsa>  (1544) 
0.69899999999999995

>  <r_qp_QPlogKp>  (1544) 
-1.9850000000000001

>  <r_qp_QPlogPC16>  (1544) 
12.941000000000001

>  <r_qp_QPlogPo/w>  (1544) 
4.8979999999999997

>  <r_qp_QPlogPoct>  (1544) 
18.742999999999999

>  <r_qp_QPlogPw>  (1544) 
9.673

>  <r_qp_QPlogS>  (1544) 
-5.2279999999999998

>  <r_qp_QPpolrz>  (1544) 
41.198999999999998

>  <r_qp_SASA>  (1544) 
708.57600000000002

>  <r_qp_SAamideO>  (1544) 
0

>  <r_qp_SAfluorine>  (1544) 
47.017000000000003

>  <r_qp_WPSA>  (1544) 
47.017000000000003

>  <r_qp_accptHB>  (1544) 
4

>  <r_qp_dip^2/V>  (1544) 
0.024669199999999999

>  <r_qp_dipole>  (1544) 
5.4649999999999999

>  <r_qp_donorHB>  (1544) 
2

>  <r_qp_glob>  (1544) 
0.77519570000000004

>  <r_qp_mol_MW>  (1544) 
351.423

>  <r_qp_volume>  (1544) 
1210.4559999999999

>  <r_sd_BIOSOLVEIT.INFINISEE\_FTREES\_SIMILARITY>  (1544) 
0.90500000000000003

>  <r_sd_BIOSOLVEIT.LOGP>  (1544) 
3.7084000000000001

>  <r_sd_BIOSOLVEIT.MOLECULAR\_WEIGHT>  (1544) 
352.43099999999998

>  <r_sd_BIOSOLVEIT.TPSA>  (1544) 
50.759999999999998

>  <i_epik_Tot_Q>  (1544) 
1

>  <i_epik_Tot_abs_Q>  (1544) 
1

>  <i_f3d_flags>  (1544) 
0

>  <i_i_glide_confnum>  (1544) 
2

>  <i_i_glide_lignum>  (1544) 
619

>  <i_i_glide_posenum>  (1544) 
11

>  <i_i_glide_rotatable_bonds>  (1544) 
8

>  <i_lp_mmshare_version>  (1544) 
65135

>  <i_m_ct_format>  (1544) 
2

>  <i_m_source_file_index>  (1544) 
1642

>  <i_qp_#NandO>  (1544) 
4

>  <i_qp_#acid>  (1544) 
0

>  <i_qp_#amide>  (1544) 
0

>  <i_qp_#amidine>  (1544) 
0

>  <i_qp_#amine>  (1544) 
1

>  <i_qp_#in34>  (1544) 
0

>  <i_qp_#in56>  (1544) 
18

>  <i_qp_#metab>  (1544) 
6

>  <i_qp_#nonHatm>  (1544) 
26

>  <i_qp_#noncon>  (1544) 
0

>  <i_qp_#ringatoms>  (1544) 
18

>  <i_qp_#rotor>  (1544) 
8

>  <i_qp_#rtvFG>  (1544) 
0

>  <i_qp_#stars>  (1544) 
0

>  <i_qp_CNS>  (1544) 
1

>  <i_qp_HumanOralAbsorption>  (1544) 
3

>  <i_qp_RuleOfFive>  (1544) 
0

>  <i_qp_RuleOfThree>  (1544) 
0

>  <i_sd_BIOSOLVEIT.INFINISEE\_REAGENT1\_NAME>  (1544) 
23868358

>  <i_sd_BIOSOLVEIT.INFINISEE\_REAGENT2\_NAME>  (1544) 
11947658

>  <i_sd_BIOSOLVEIT.INFINISEE\_RESULT\_RANK>  (1544) 
68364

>  <i_sd_version>  (1544) 
0

>  <b_lp_Chiralities_Consistent>  (1544) 
1

>  <b_sd_chiral_flag>  (1544) 
0

>  <canonical_id>  (1544) 
ATP-HTVS-F308899F49E6

>  <compound_code>  (1544) 
52515

>  <title>  (1544) 
m_270004bbb____23868358____11947658

>  <variant>  (1544) 
52515-1

>  <source_file>  (1544) 
运行/运行/ATP-VSW/ATP-VSW-DOCK_HTVS_1-003_lib/ATP-VSW-DOCK_HTVS_1-003_lib.mae

>  <canonical_smiles>  (1544) 
CCNc1ccc(C[NH2+]Cc2ccc(Oc3ccc(F)cc3)nc2)cc1

>  <scaffold>  (1544) 
c1ccc(C[NH2+]Cc2ccc(Oc3ccccc3)nc2)cc1

>  <molecular_formula>  (1544) 
C21H23FN3O+

$$$$
ATP-HTVS-F3219ACF1618
     RDKit          3D

 47 50  0  0  0  0  0  0  0  0999 V2000
  202.3547  184.0550  159.1880 Cl  0  0  0  0  0  0  0  0  0  0  0  0
  201.8751  182.6077  158.3903 C   0  0  0  0  0  0  0  0  0  0  0  0
  200.5865  182.5442  157.8220 C   0  0  0  0  0  0  0  0  0  0  0  0
  200.1269  181.3789  157.1505 C   0  0  0  0  0  0  0  0  0  0  0  0
  201.0017  180.2534  157.0903 C   0  0  0  0  0  0  0  0  0  0  0  0
  200.6090  179.0142  156.4937 N   0  0  0  0  0  0  0  0  0  0  0  0
  199.8967  178.8683  155.3709 C   0  0  0  0  0  0  0  0  0  0  0  0
  199.5852  177.7721  154.9480 O   0  0  0  0  0  0  0  0  0  0  0  0
  199.5774  180.1401  154.5650 C   0  0  1  0  0  0  0  0  0  0  0  0
  198.5552  181.0830  155.1560 N   0  0  0  0  0  0  0  0  0  0  0  0
  198.6724  181.2496  156.6223 C   0  0  2  0  0  0  0  0  0  0  0  0
  197.8030  182.4134  157.1518 C   0  0  0  0  0  0  0  0  0  0  0  0
  197.8604  183.6812  156.5202 C   0  0  0  0  0  0  0  0  0  0  0  0
  198.6478  183.8743  155.4454 F   0  0  0  0  0  0  0  0  0  0  0  0
  197.1245  184.7611  157.0287 C   0  0  0  0  0  0  0  0  0  0  0  0
  196.3111  184.5877  158.1646 C   0  0  0  0  0  0  0  0  0  0  0  0
  196.2376  183.3369  158.8054 C   0  0  0  0  0  0  0  0  0  0  0  0
  196.9794  182.2498  158.2974 C   0  0  0  0  0  0  0  0  0  0  0  0
  197.1626  180.7476  154.8012 C   0  0  1  0  0  0  0  0  0  0  0  0
  196.9012  180.7830  153.3143 C   0  0  0  0  0  0  0  0  0  0  0  0
  196.7141  182.0081  152.6334 C   0  0  0  0  0  0  0  0  0  0  0  0
  196.5049  182.0098  151.2378 C   0  0  0  0  0  0  0  0  0  0  0  0
  196.2912  183.2642  150.5315 C   0  0  0  0  0  0  0  0  0  0  0  0
  196.1027  184.2993  149.9185 C   0  0  0  0  0  0  0  0  0  0  0  0
  196.5063  180.7907  150.5280 C   0  0  0  0  0  0  0  0  0  0  0  0
  196.7035  179.5758  151.2046 C   0  0  0  0  0  0  0  0  0  0  0  0
  196.8936  179.5725  152.5980 C   0  0  0  0  0  0  0  0  0  0  0  0
  202.2926  180.3280  157.6793 C   0  0  0  0  0  0  0  0  0  0  0  0
  202.7327  181.4992  158.3165 C   0  0  0  0  0  0  0  0  0  0  0  0
  199.9960  183.4319  157.9853 H   0  0  0  0  0  0  0  0  0  0  0  0
  200.9798  178.1727  156.9128 H   0  0  0  0  0  0  0  0  0  0  0  0
  200.4876  180.7132  154.4790 H   0  0  0  0  0  0  0  0  0  0  0  0
  199.3413  179.8406  153.5311 H   0  0  0  0  0  0  0  0  0  0  0  0
  198.2707  180.3435  157.0837 H   0  0  0  0  0  0  0  0  0  0  0  0
  197.1894  185.7090  156.5220 H   0  0  0  0  0  0  0  0  0  0  0  0
  195.7427  185.4291  158.5401 H   0  0  0  0  0  0  0  0  0  0  0  0
  195.6316  183.2128  159.6854 H   0  0  0  0  0  0  0  0  0  0  0  0
  196.9375  181.2898  158.8019 H   0  0  0  0  0  0  0  0  0  0  0  0
  196.8636  179.7818  155.2256 H   0  0  0  0  0  0  0  0  0  0  0  0
  196.4595  181.4816  155.2121 H   0  0  0  0  0  0  0  0  0  0  0  0
  196.7367  182.9433  153.1812 H   0  0  0  0  0  0  0  0  0  0  0  0
  195.9591  185.2029  149.3613 H   0  0  0  0  0  0  0  0  0  0  0  0
  196.3747  180.7735  149.4570 H   0  0  0  0  0  0  0  0  0  0  0  0
  196.7494  178.6412  150.6634 H   0  0  0  0  0  0  0  0  0  0  0  0
  197.0788  178.6501  153.1171 H   0  0  0  0  0  0  0  0  0  0  0  0
  202.9436  179.4689  157.6327 H   0  0  0  0  0  0  0  0  0  0  0  0
  203.7172  181.5561  158.7577 H   0  0  0  0  0  0  0  0  0  0  0  0
  1  2  1  0
  2  3  2  0
  2 29  1  0
  3  4  1  0
  3 30  1  0
  4  5  2  0
  4 11  1  0
  5  6  1  0
  5 28  1  0
  6  7  1  0
  6 31  1  0
  7  8  2  0
  7  9  1  0
  9 10  1  0
  9 32  1  6
  9 33  1  0
 10 11  1  0
 10 19  1  0
 11 12  1  0
 11 34  1  1
 12 13  1  0
 12 18  2  0
 13 14  1  0
 13 15  2  0
 15 16  1  0
 15 35  1  0
 16 17  2  0
 16 36  1  0
 17 18  1  0
 17 37  1  0
 18 38  1  0
 19 20  1  0
 19 39  1  1
 19 40  1  0
 20 21  1  0
 20 27  2  0
 21 22  2  0
 21 41  1  0
 22 23  1  0
 22 25  1  0
 23 24  3  0
 24 42  1  0
 25 26  2  0
 25 43  1  0
 26 27  1  0
 26 44  1  0
 27 45  1  0
 28 29  2  0
 28 46  1  0
 29 47  1  0
M  END
>  <s_epik_cmdline>  (1545) 
J2VwaWtfcHl0aG9uJywgJy1waCcsICc3LjAwMDAwMCcsICctcGh0JywgJzIuMDAwMDAwJywgJy1tcycsICcxNicsICctdG4nLCAnOCcsICctbWEnLCAnMjAwJywgJy1pbWFlJywgJzxpbmZpbGUubWFlPicsICctb21hZScsICc8b3V0ZmlsZS5tYWU+Jw==

>  <s_epik_input>  (1545) 
Q2xjKFtjSF0xKVtjSF1bY0hdYyhjMTIpW05IXUMoPU8pW0NIMl1OKFtDQEBIXTJjM2MoRilbY0hdW2NIXVtjSF1bY0hdMylbQ0gyXWM0W2NIXWMoQyNbQ0hdKVtjSF1bY0hdW2NIXTQ=

>  <s_i_glide_gridfile>  (1545) 
ATP-Grid

>  <s_lp_Force_Field>  (1545) 
OPLS_2005

>  <s_lp_Variant>  (1545) 
m_2230bdc____14772912____17630868-2

>  <s_lp_label>  (1545) 
1783_sdstereoexpander_3_neutralizer_1_epik_1_stereoizer_1

>  <s_m_source_file>  (1545) 
ATP-VSW-LIGPREP-003-in.maegz

>  <s_sd_BIOSOLVEIT.INFINISEE\_QUERY\_NAME>  (1545) 
Ref-Lig

>  <s_sd_BIOSOLVEIT.INFINISEE\_QUERY\_SMILES>  (1545) 
S(c1nc2c(cc1C[NH2+]Cc3ccc(cc3)C[NH+](C)C)cccc2)Cc4ccccc4

>  <s_sd_BIOSOLVEIT.INFINISEE\_REACTION\_NAME>  (1545) 
m_2230bdc

>  <s_sd_BIOSOLVEIT.INFINISEE\_REAGENT1\_SMILES>  (1545) 
[R1*]N1C(c2c(F)cccc2)c3c(NC(=O)C1)ccc(Cl)c3

>  <s_sd_BIOSOLVEIT.INFINISEE\_REAGENT2\_SMILES>  (1545) 
[R1*]Cc1cc(C#C)ccc1

>  <s_sd_BIOSOLVEIT.INFINISEE\_SPACE>  (1545) 
REALSpace_44bn_2023-08

>  <s_vsw_compound_code>  (1545) 
57027

>  <s_vsw_variant>  (1545) 
57027-2

>  <r_epik_Charging_Adjusted_Penalty>  (1545) 
0.0073990967497685701

>  <r_epik_Ionization_Penalty>  (1545) 
0.0074000000000000003

>  <r_epik_Ionization_Penalty_Charging>  (1545) 
0

>  <r_epik_Ionization_Penalty_Neutral>  (1545) 
0.0074000000000000003

>  <r_epik_State_Penalty>  (1545) 
0.0074000000000000003

>  <r_i_docking_score>  (1545) 
-1.2037523834016901

>  <r_i_glide_ecoul>  (1545) 
-2.6193704605102499

>  <r_i_glide_eff_state_penalty>  (1545) 
0.0074000000000000003

>  <r_i_glide_einternal>  (1545) 
1.53194916248322

>  <r_i_glide_emodel>  (1545) 
-35.640195130231298

>  <r_i_glide_energy>  (1545) 
-33.725840568542502

>  <r_i_glide_erotb>  (1545) 
0.479449907288925

>  <r_i_glide_esite>  (1545) 
-0.040612310630027897

>  <r_i_glide_evdw>  (1545) 
-31.106470108032202

>  <r_i_glide_gscore>  (1545) 
-1.21115238340169

>  <r_i_glide_hbond>  (1545) 
0

>  <r_i_glide_ligand_efficiency>  (1545) 
-0.041508702875920497

>  <r_i_glide_ligand_efficiency_ln>  (1545) 
-0.27562877127227298

>  <r_i_glide_ligand_efficiency_sa>  (1545) 
-0.12752788611494401

>  <r_i_glide_lipo>  (1545) 
-1.0603539381388201

>  <r_i_glide_metal>  (1545) 
-0

>  <r_i_glide_rewards>  (1545) 
1.35859303255638

>  <r_lp_Energy>  (1545) 
38.189796999999999

>  <r_qp_ACxDN^.5/SA>  (1545) 
0.0081603000000000005

>  <r_qp_CIQPlogS>  (1545) 
-5.5099999999999998

>  <r_qp_EA(eV)>  (1545) 
0.54600000000000004

>  <r_qp_FISA>  (1545) 
56.963999999999999

>  <r_qp_FOSA>  (1545) 
84.75

>  <r_qp_IP(eV)>  (1545) 
9.0619999999999994

>  <r_qp_Jm>  (1545) 
0.00171504010579265

>  <r_qp_PISA>  (1545) 
439.26600000000002

>  <r_qp_PSA>  (1545) 
39.856000000000002

>  <r_qp_PercentHumanOralAbsorption>  (1545) 
100

>  <r_qp_QPPCaco>  (1545) 
712.20699999999999

>  <r_qp_QPPMDCK>  (1545) 
1247.607

>  <r_qp_QPlogBB>  (1545) 
0.438

>  <r_qp_QPlogHERG>  (1545) 
-7.3769999999999998

>  <r_qp_QPlogKhsa>  (1545) 
0.876

>  <r_qp_QPlogKp>  (1545) 
-2.7970000000000002

>  <r_qp_QPlogPC16>  (1545) 
13.663

>  <r_qp_QPlogPo/w>  (1545) 
4.8630000000000004

>  <r_qp_QPlogPoct>  (1545) 
19.818999999999999

>  <r_qp_QPlogPw>  (1545) 
10.721

>  <r_qp_QPlogS>  (1545) 
-5.577

>  <r_qp_QPpolrz>  (1545) 
44.540999999999997

>  <r_qp_SASA>  (1545) 
675.38800000000003

>  <r_qp_SAamideO>  (1545) 
0

>  <r_qp_SAfluorine>  (1545) 
22.856000000000002

>  <r_qp_WPSA>  (1545) 
94.406999999999996

>  <r_qp_accptHB>  (1545) 
4.5

>  <r_qp_dip^2/V>  (1545) 
0.000339

>  <r_qp_dipole>  (1545) 
0.64000000000000001

>  <r_qp_donorHB>  (1545) 
1.5

>  <r_qp_glob>  (1545) 
0.81310550000000004

>  <r_qp_mol_MW>  (1545) 
404.87

>  <r_qp_volume>  (1545) 
1210.047

>  <r_sd_BIOSOLVEIT.INFINISEE\_FTREES\_SIMILARITY>  (1545) 
0.90400000000000003

>  <r_sd_BIOSOLVEIT.LOGP>  (1545) 
3.5870000000000002

>  <r_sd_BIOSOLVEIT.MOLECULAR\_WEIGHT>  (1545) 
405.87799999999999

>  <r_sd_BIOSOLVEIT.TPSA>  (1545) 
33.539999999999999

>  <i_epik_Tot_Q>  (1545) 
0

>  <i_epik_Tot_abs_Q>  (1545) 
0

>  <i_f3d_flags>  (1545) 
0

>  <i_i_glide_confnum>  (1545) 
2

>  <i_i_glide_lignum>  (1545) 
664

>  <i_i_glide_posenum>  (1545) 
2

>  <i_i_glide_rotatable_bonds>  (1545) 
4

>  <i_lp_mmshare_version>  (1545) 
65135

>  <i_m_ct_format>  (1545) 
2

>  <i_m_source_file_index>  (1545) 
1783

>  <i_qp_#NandO>  (1545) 
3

>  <i_qp_#acid>  (1545) 
0

>  <i_qp_#amide>  (1545) 
0

>  <i_qp_#amidine>  (1545) 
0

>  <i_qp_#amine>  (1545) 
1

>  <i_qp_#in34>  (1545) 
0

>  <i_qp_#in56>  (1545) 
18

>  <i_qp_#metab>  (1545) 
6

>  <i_qp_#nonHatm>  (1545) 
29

>  <i_qp_#noncon>  (1545) 
2

>  <i_qp_#ringatoms>  (1545) 
23

>  <i_qp_#rotor>  (1545) 
3

>  <i_qp_#rtvFG>  (1545) 
0

>  <i_qp_#stars>  (1545) 
1

>  <i_qp_CNS>  (1545) 
1

>  <i_qp_HumanOralAbsorption>  (1545) 
3

>  <i_qp_RuleOfFive>  (1545) 
0

>  <i_qp_RuleOfThree>  (1545) 
0

>  <i_sd_BIOSOLVEIT.INFINISEE\_REAGENT1\_NAME>  (1545) 
14772912

>  <i_sd_BIOSOLVEIT.INFINISEE\_REAGENT2\_NAME>  (1545) 
17630868

>  <i_sd_BIOSOLVEIT.INFINISEE\_RESULT\_RANK>  (1545) 
76686

>  <i_sd_version>  (1545) 
0

>  <b_lp_Chiralities_Consistent>  (1545) 
1

>  <b_sd_chiral_flag>  (1545) 
0

>  <canonical_id>  (1545) 
ATP-HTVS-F3219ACF1618

>  <compound_code>  (1545) 
57027

>  <title>  (1545) 
m_2230bdc____14772912____17630868

>  <variant>  (1545) 
57027-2

>  <source_file>  (1545) 
运行/运行/ATP-VSW/ATP-VSW-DOCK_HTVS_1-003_lib/ATP-VSW-DOCK_HTVS_1-003_lib.mae

>  <canonical_smiles>  (1545) 
C#Cc1cccc(CN2CC(=O)Nc3ccc(Cl)cc3[C@H]2c2ccccc2F)c1

>  <scaffold>  (1545) 
O=C1CN(Cc2ccccc2)C(c2ccccc2)c2ccccc2N1

>  <molecular_formula>  (1545) 
C24H18ClFN2O

$$$$
ATP-HTVS-F324B4F6FF43
     RDKit          3D

 56 59  0  0  0  0  0  0  0  0999 V2000
  198.2797  177.0513  146.9133 F   0  0  0  0  0  0  0  0  0  0  0  0
  198.8875  176.5863  148.0247 C   0  0  0  0  0  0  0  0  0  0  0  0
  198.2917  176.7856  149.2802 C   0  0  0  0  0  0  0  0  0  0  0  0
  198.9191  176.3072  150.4458 C   0  0  0  0  0  0  0  0  0  0  0  0
  200.1620  175.6384  150.3634 C   0  0  0  0  0  0  0  0  0  0  0  0
  200.7564  175.4404  149.0949 C   0  0  0  0  0  0  0  0  0  0  0  0
  200.1165  175.9099  147.9303 C   0  0  0  0  0  0  0  0  0  0  0  0
  200.8317  175.1290  151.6345 C   0  0  2  0  0  0  0  0  0  0  0  0
  202.0146  175.9679  151.9486 N   0  0  1  0  0  0  0  0  0  0  0  0
  202.3933  176.0156  153.3816 C   0  0  1  0  0  0  0  0  0  0  0  0
  201.5515  177.0527  154.0017 C   0  0  0  0  0  0  0  0  0  0  0  0
  200.8263  177.9014  154.4916 C   0  0  0  0  0  0  0  0  0  0  0  0
  199.9570  178.9310  155.0476 C   0  0  0  0  0  0  0  0  0  0  0  0
  198.8412  179.4754  154.3645 C   0  0  0  0  0  0  0  0  0  0  0  0
  198.0806  180.4947  154.9965 C   0  0  0  0  0  0  0  0  0  0  0  0
  198.4895  180.9542  156.2761 C   0  0  0  0  0  0  0  0  0  0  0  0
  199.5747  180.4385  156.9006 N   0  0  0  0  0  0  0  0  0  0  0  0
  200.2608  179.4395  156.3203 C   0  0  0  0  0  0  0  0  0  0  0  0
  197.6802  181.9337  156.8980 N   0  0  0  0  0  0  0  0  0  0  0  0
  198.0445  182.8644  157.7911 C   0  0  0  0  0  0  0  0  0  0  0  0
  199.2161  183.1832  158.0214 O   0  0  0  0  0  0  0  0  0  0  0  0
  196.9033  183.5591  158.4950 C   0  0  0  0  0  0  0  0  0  0  0  0
  197.1658  184.5760  159.4427 C   0  0  0  0  0  0  0  0  0  0  0  0
  196.1114  185.2114  160.1283 C   0  0  0  0  0  0  0  0  0  0  0  0
  194.7799  184.8460  159.8742 C   0  0  0  0  0  0  0  0  0  0  0  0
  193.7673  185.4780  160.5332 O   0  0  0  0  0  0  0  0  0  0  0  0
  194.4998  183.8346  158.9392 C   0  0  0  0  0  0  0  0  0  0  0  0
  195.5495  183.1922  158.2571 C   0  0  0  0  0  0  0  0  0  0  0  0
  196.9555  181.0420  154.3253 C   0  0  0  0  0  0  0  0  0  0  0  0
  196.6060  180.5961  153.0384 C   0  0  0  0  0  0  0  0  0  0  0  0
  197.3602  179.5945  152.4097 C   0  0  0  0  0  0  0  0  0  0  0  0
  198.4752  179.0402  153.0656 C   0  0  0  0  0  0  0  0  0  0  0  0
  201.2240  173.6443  151.5567 C   0  0  2  0  0  0  0  0  0  0  0  0
  202.7887  175.6065  151.4124 H   0  0  0  0  0  0  0  0  0  0  0  0
  197.3447  177.2989  149.3386 H   0  0  0  0  0  0  0  0  0  0  0  0
  198.4298  176.4528  151.3988 H   0  0  0  0  0  0  0  0  0  0  0  0
  201.7021  174.9256  148.9996 H   0  0  0  0  0  0  0  0  0  0  0  0
  200.5666  175.7522  146.9618 H   0  0  0  0  0  0  0  0  0  0  0  0
  200.0962  175.2418  152.4293 H   0  0  0  0  0  0  0  0  0  0  0  0
  202.2481  175.0592  153.8876 H   0  0  0  0  0  0  0  0  0  0  0  0
  203.4394  176.3066  153.4902 H   0  0  0  0  0  0  0  0  0  0  0  0
  201.0945  179.0485  156.8886 H   0  0  0  0  0  0  0  0  0  0  0  0
  196.6936  181.8656  156.6912 H   0  0  0  0  0  0  0  0  0  0  0  0
  198.1820  184.8790  159.6597 H   0  0  0  0  0  0  0  0  0  0  0  0
  196.3251  185.9838  160.8519 H   0  0  0  0  0  0  0  0  0  0  0  0
  192.9888  185.5069  159.9887 H   0  0  0  0  0  0  0  0  0  0  0  0
  193.4838  183.5303  158.7292 H   0  0  0  0  0  0  0  0  0  0  0  0
  195.2731  182.4164  157.5561 H   0  0  0  0  0  0  0  0  0  0  0  0
  196.3464  181.8191  154.7690 H   0  0  0  0  0  0  0  0  0  0  0  0
  195.7609  181.0338  152.5255 H   0  0  0  0  0  0  0  0  0  0  0  0
  197.0830  179.2554  151.4226 H   0  0  0  0  0  0  0  0  0  0  0  0
  199.0505  178.2865  152.5605 H   0  0  0  0  0  0  0  0  0  0  0  0
  200.3496  173.0333  151.3477 H   0  0  0  0  0  0  0  0  0  0  0  0
  201.6498  173.2831  152.4917 H   0  0  0  0  0  0  0  0  0  0  0  0
  201.9539  173.4544  150.7732 H   0  0  0  0  0  0  0  0  0  0  0  0
  201.8428  176.9140  151.6410 H   0  0  0  0  0  0  0  0  0  0  0  0
  1  2  1  0
  2  3  1  0
  2  7  2  0
  3  4  2  0
  3 35  1  0
  4  5  1  0
  4 36  1  0
  5  6  2  0
  5  8  1  0
  6  7  1  0
  6 37  1  0
  7 38  1  0
  8  9  1  0
  8 33  1  0
  8 39  1  1
  9 10  1  0
  9 34  1  6
  9 56  1  0
 10 11  1  0
 10 40  1  1
 10 41  1  0
 11 12  3  0
 12 13  1  0
 13 14  2  0
 13 18  1  0
 14 15  1  0
 14 32  1  0
 15 16  2  0
 15 29  1  0
 16 17  1  0
 16 19  1  0
 17 18  2  0
 18 42  1  0
 19 20  1  0
 19 43  1  0
 20 21  2  0
 20 22  1  0
 22 23  1  0
 22 28  2  0
 23 24  2  0
 23 44  1  0
 24 25  1  0
 24 45  1  0
 25 26  1  0
 25 27  2  0
 26 46  1  0
 27 28  1  0
 27 47  1  0
 28 48  1  0
 29 30  2  0
 29 49  1  0
 30 31  1  0
 30 50  1  0
 31 32  2  0
 31 51  1  0
 32 52  1  0
 33 53  1  6
 33 54  1  0
 33 55  1  0
M  CHG  1   9   1
M  END
>  <s_epik_cmdline>  (1546) 
J2VwaWtfcHl0aG9uJywgJy1waCcsICc3LjAwMDAwMCcsICctcGh0JywgJzIuMDAwMDAwJywgJy1tcycsICcxNicsICctdG4nLCAnOCcsICctbWEnLCAnMjAwJywgJy1pbWFlJywgJzxpbmZpbGUubWFlPicsICctb21hZScsICc8b3V0ZmlsZS5tYWU+Jw==

>  <s_epik_input>  (1546) 
RmMxW2NIXVtjSF1jKFtjSF1bY0hdMSlbQ0BASF0oW0NIM10pW05IXVtDSDJdQyNDYzJbY0hdbmMoYyhjMjMpW2NIXVtjSF1bY0hdW2NIXTMpW05IXUMoPU8pYzRbY0hdW2NIXWMoW09IXSlbY0hdW2NIXTQ=

>  <s_i_glide_gridfile>  (1546) 
ATP-Grid

>  <s_lp_Force_Field>  (1546) 
OPLS_2005

>  <s_lp_Variant>  (1546) 
rxn503b____EMOL490868____EMOL7515103____EMOL317506007-3

>  <s_lp_label>  (1546) 
2618_sdstereoexpander_1_neutralizer_1_epik_2_stereoizer_1

>  <s_m_source_file>  (1546) 
ATP-VSW-LIGPREP-001-in.maegz

>  <s_sd_BIOSOLVEIT.INFINISEE\_QUERY\_NAME>  (1546) 
Ref-Lig

>  <s_sd_BIOSOLVEIT.INFINISEE\_QUERY\_SMILES>  (1546) 
S(c1nc2c(cc1C[NH2+]Cc3ccc(cc3)C[NH+](C)C)cccc2)Cc4ccccc4

>  <s_sd_BIOSOLVEIT.INFINISEE\_REACTION\_NAME>  (1546) 
rxn503b

>  <s_sd_BIOSOLVEIT.INFINISEE\_REAGENT1\_NAME>  (1546) 
EMOL490868

>  <s_sd_BIOSOLVEIT.INFINISEE\_REAGENT1\_SMILES>  (1546) 
O=C(O)c1ccc(O)cc1

>  <s_sd_BIOSOLVEIT.INFINISEE\_REAGENT2\_NAME>  (1546) 
EMOL7515103

>  <s_sd_BIOSOLVEIT.INFINISEE\_REAGENT2\_SMILES>  (1546) 
Brc1c2c(c(nc1)N)cccc2

>  <s_sd_BIOSOLVEIT.INFINISEE\_REAGENT3\_NAME>  (1546) 
EMOL317506007

>  <s_sd_BIOSOLVEIT.INFINISEE\_REAGENT3\_SMILES>  (1546) 
Fc1ccc(cc1)C(NCC#C)C

>  <s_sd_BIOSOLVEIT.INFINISEE\_SPACE>  (1546) 
eXplore_7tr_2022-12

>  <s_vsw_compound_code>  (1546) 
83745

>  <s_vsw_variant>  (1546) 
83745-3

>  <r_epik_Charging_Adjusted_Penalty>  (1546) 
1.17660035762578

>  <r_epik_Ionization_Penalty>  (1546) 
0.5978

>  <r_epik_Ionization_Penalty_Charging>  (1546) 
0.57879999999999998

>  <r_epik_Ionization_Penalty_Neutral>  (1546) 
0.019

>  <r_epik_State_Penalty>  (1546) 
0.5978

>  <r_i_docking_score>  (1546) 
-4.2198639268479603

>  <r_i_glide_ecoul>  (1546) 
-7.9008483886718803

>  <r_i_glide_eff_state_penalty>  (1546) 
0.5978

>  <r_i_glide_einternal>  (1546) 
8.6171360015869105

>  <r_i_glide_emodel>  (1546) 
-59.116876115529998

>  <r_i_glide_energy>  (1546) 
-44.458095550537102

>  <r_i_glide_erotb>  (1546) 
0.72034826401853302

>  <r_i_glide_esite>  (1546) 
-0.066054911205661704

>  <r_i_glide_evdw>  (1546) 
-36.557247161865199

>  <r_i_glide_gscore>  (1546) 
-4.8176639268479597

>  <r_i_glide_hbond>  (1546) 
-0.14832560569700301

>  <r_i_glide_ligand_efficiency>  (1546) 
-0.127874664449938

>  <r_i_glide_ligand_efficiency_ln>  (1546) 
-0.93847588804492199

>  <r_i_glide_ligand_efficiency_sa>  (1546) 
-0.41016237568182801

>  <r_i_glide_lipo>  (1546) 
-1.80735657468134

>  <r_i_glide_metal>  (1546) 
-0

>  <r_i_glide_rewards>  (1546) 
-0.50328548288845298

>  <r_lp_Energy>  (1546) 
26.901240999999999

>  <r_lp_tautomer_probability>  (1546) 
0.999999999997365

>  <r_qp_ACxDN^.5/SA>  (1546) 
0.012107400000000001

>  <r_qp_CIQPlogS>  (1546) 
-5.9480000000000004

>  <r_qp_EA(eV)>  (1546) 
1.2170000000000001

>  <r_qp_FISA>  (1546) 
131.947

>  <r_qp_FOSA>  (1546) 
128.44300000000001

>  <r_qp_IP(eV)>  (1546) 
8.4139999999999997

>  <r_qp_Jm>  (1546) 
5.35823837723977e-05

>  <r_qp_PISA>  (1546) 
515.16999999999996

>  <r_qp_PSA>  (1546) 
80.219999999999999

>  <r_qp_PercentHumanOralAbsorption>  (1546) 
93.491

>  <r_qp_QPPCaco>  (1546) 
138.53100000000001

>  <r_qp_QPPMDCK>  (1546) 
116.929

>  <r_qp_QPlogBB>  (1546) 
-0.98099999999999998

>  <r_qp_QPlogHERG>  (1546) 
-8.8079999999999998

>  <r_qp_QPlogKhsa>  (1546) 
0.86899999999999999

>  <r_qp_QPlogKp>  (1546) 
-3.431

>  <r_qp_QPlogPC16>  (1546) 
16.818999999999999

>  <r_qp_QPlogPo/w>  (1546) 
4.819

>  <r_qp_QPlogPoct>  (1546) 
25.347999999999999

>  <r_qp_QPlogPw>  (1546) 
14.41

>  <r_qp_QPlogS>  (1546) 
-6.4829999999999997

>  <r_qp_QPpolrz>  (1546) 
50.948999999999998

>  <r_qp_SASA>  (1546) 
822.58000000000004

>  <r_qp_SAamideO>  (1546) 
0

>  <r_qp_SAfluorine>  (1546) 
47.021000000000001

>  <r_qp_WPSA>  (1546) 
47.021000000000001

>  <r_qp_accptHB>  (1546) 
5.75

>  <r_qp_dip^2/V>  (1546) 
0.043241000000000002

>  <r_qp_dipole>  (1546) 
7.8700000000000001

>  <r_qp_donorHB>  (1546) 
3

>  <r_qp_glob>  (1546) 
0.74703600000000003

>  <r_qp_mol_MW>  (1546) 
439.488

>  <r_qp_volume>  (1546) 
1432.2940000000001

>  <r_sd_BIOSOLVEIT.INFINISEE\_FTREES\_SIMILARITY>  (1546) 
0.91100000000000003

>  <r_sd_BIOSOLVEIT.LOGP>  (1546) 
4.0079000000000002

>  <r_sd_BIOSOLVEIT.MOLECULAR\_WEIGHT>  (1546) 
440.49599999999998

>  <r_sd_BIOSOLVEIT.TPSA>  (1546) 
78.829999999999998

>  <i_epik_Tot_Q>  (1546) 
1

>  <i_epik_Tot_abs_Q>  (1546) 
1

>  <i_f3d_flags>  (1546) 
0

>  <i_i_glide_confnum>  (1546) 
8

>  <i_i_glide_lignum>  (1546) 
1108

>  <i_i_glide_posenum>  (1546) 
4

>  <i_i_glide_rotatable_bonds>  (1546) 
9

>  <i_lp_mmshare_version>  (1546) 
65135

>  <i_m_ct_format>  (1546) 
2

>  <i_m_source_file_index>  (1546) 
2618

>  <i_qp_#NandO>  (1546) 
5

>  <i_qp_#acid>  (1546) 
0

>  <i_qp_#amide>  (1546) 
0

>  <i_qp_#amidine>  (1546) 
0

>  <i_qp_#amine>  (1546) 
1

>  <i_qp_#in34>  (1546) 
0

>  <i_qp_#in56>  (1546) 
22

>  <i_qp_#metab>  (1546) 
5

>  <i_qp_#nonHatm>  (1546) 
33

>  <i_qp_#noncon>  (1546) 
0

>  <i_qp_#ringatoms>  (1546) 
22

>  <i_qp_#rotor>  (1546) 
8

>  <i_qp_#rtvFG>  (1546) 
0

>  <i_qp_#stars>  (1546) 
2

>  <i_qp_CNS>  (1546) 
-1

>  <i_qp_HumanOralAbsorption>  (1546) 
1

>  <i_qp_RuleOfFive>  (1546) 
0

>  <i_qp_RuleOfThree>  (1546) 
1

>  <i_sd_BIOSOLVEIT.INFINISEE\_RESULT\_RANK>  (1546) 
43227

>  <i_sd_version>  (1546) 
0

>  <b_lp_Chiralities_Consistent>  (1546) 
1

>  <b_sd_chiral_flag>  (1546) 
0

>  <canonical_id>  (1546) 
ATP-HTVS-F324B4F6FF43

>  <compound_code>  (1546) 
83745

>  <title>  (1546) 
rxn503b____EMOL490868____EMOL7515103____EMOL317506007

>  <variant>  (1546) 
83745-3

>  <source_file>  (1546) 
运行/运行/ATP-VSW/ATP-VSW-DOCK_HTVS_1-001_lib/ATP-VSW-DOCK_HTVS_1-001_lib

>  <canonical_smiles>  (1546) 
C[C@@H]([NH2+]CC#Cc1cnc(NC(=O)c2ccc(O)cc2)c2ccccc12)c1ccc(F)cc1

>  <scaffold>  (1546) 
O=C(Nc1ncc(C#CC[NH2+]Cc2ccccc2)c2ccccc12)c1ccccc1

>  <molecular_formula>  (1546) 
C27H23FN3O2+

$$$$
ATP-HTVS-F38CDD17995D
     RDKit          3D

 52 55  0  0  0  0  0  0  0  0999 V2000
  197.9878  191.3400  160.1516 Cl  0  0  0  0  0  0  0  0  0  0  0  0
  198.3905  190.0000  159.1420 C   0  0  0  0  0  0  0  0  0  0  0  0
  197.7560  189.8814  157.9591 N   0  0  0  0  0  0  0  0  0  0  0  0
  198.0749  188.8415  157.1639 C   0  0  0  0  0  0  0  0  0  0  0  0
  199.0356  187.8772  157.5052 C   0  0  0  0  0  0  0  0  0  0  0  0
  199.7131  187.9985  158.7354 C   0  0  0  0  0  0  0  0  0  0  0  0
  200.7197  187.0019  159.1489 C   0  0  0  0  0  0  0  0  0  0  0  0
  200.3249  185.6746  159.4268 C   0  0  0  0  0  0  0  0  0  0  0  0
  198.9417  185.3421  159.3324 N   0  0  0  0  0  0  0  0  0  0  0  0
  198.3853  184.1292  159.2289 C   0  0  0  0  0  0  0  0  0  0  0  0
  199.0407  183.1094  159.0621 O   0  0  0  0  0  0  0  0  0  0  0  0
  196.8689  184.1205  159.2724 C   0  0  0  0  0  0  0  0  0  0  0  0
  196.0547  183.1384  158.6305 C   0  0  0  0  0  0  0  0  0  0  0  0
  194.6425  183.2166  158.7588 C   0  0  0  0  0  0  0  0  0  0  0  0
  194.0367  184.2354  159.5061 C   0  0  0  0  0  0  0  0  0  0  0  0
  194.8280  185.2076  160.1310 C   0  0  0  0  0  0  0  0  0  0  0  0
  196.2296  185.1416  160.0223 C   0  0  0  0  0  0  0  0  0  0  0  0
  196.5793  181.9927  157.7375 C   0  0  1  0  0  0  0  0  0  0  0  0
  196.3508  182.2662  156.2933 N   0  0  2  0  0  0  0  0  0  0  0  0
  196.7034  181.1028  155.4538 C   0  0  2  0  0  0  0  0  0  0  0  0
  197.0153  183.5027  155.8212 C   0  0  2  0  0  0  0  0  0  0  0  0
  201.3067  184.7523  159.8576 C   0  0  0  0  0  0  0  0  0  0  0  0
  202.6079  185.0624  159.9872 N   0  0  0  0  0  0  0  0  0  0  0  0
  203.0054  186.3175  159.7032 C   0  0  0  0  0  0  0  0  0  0  0  0
  202.0932  187.3256  159.2861 C   0  0  0  0  0  0  0  0  0  0  0  0
  202.5668  188.6310  159.0052 C   0  0  0  0  0  0  0  0  0  0  0  0
  203.9298  188.9352  159.1332 C   0  0  0  0  0  0  0  0  0  0  0  0
  204.8349  187.9414  159.5371 C   0  0  0  0  0  0  0  0  0  0  0  0
  204.3711  186.6435  159.8192 C   0  0  0  0  0  0  0  0  0  0  0  0
  199.3674  189.0813  159.5679 C   0  0  0  0  0  0  0  0  0  0  0  0
  197.5486  188.7726  156.2231 H   0  0  0  0  0  0  0  0  0  0  0  0
  199.2478  187.0572  156.8328 H   0  0  0  0  0  0  0  0  0  0  0  0
  198.3014  186.1289  159.3273 H   0  0  0  0  0  0  0  0  0  0  0  0
  194.0007  182.5045  158.2671 H   0  0  0  0  0  0  0  0  0  0  0  0
  192.9592  184.3044  159.5894 H   0  0  0  0  0  0  0  0  0  0  0  0
  194.3751  186.0094  160.7014 H   0  0  0  0  0  0  0  0  0  0  0  0
  196.7887  185.9019  160.5441 H   0  0  0  0  0  0  0  0  0  0  0  0
  197.6322  181.7400  157.8323 H   0  0  0  0  0  0  0  0  0  0  0  0
  196.0591  181.0889  158.0573 H   0  0  0  0  0  0  0  0  0  0  0  0
  197.7711  180.8867  155.5197 H   0  0  0  0  0  0  0  0  0  0  0  0
  196.4551  181.3010  154.4123 H   0  0  0  0  0  0  0  0  0  0  0  0
  196.1618  180.2064  155.7540 H   0  0  0  0  0  0  0  0  0  0  0  0
  198.0960  183.4243  155.9401 H   0  0  0  0  0  0  0  0  0  0  0  0
  196.6926  184.3827  156.3752 H   0  0  0  0  0  0  0  0  0  0  0  0
  196.7931  183.6912  154.7737 H   0  0  0  0  0  0  0  0  0  0  0  0
  201.0700  183.7400  160.1460 H   0  0  0  0  0  0  0  0  0  0  0  0
  201.8959  189.4133  158.6851 H   0  0  0  0  0  0  0  0  0  0  0  0
  204.2765  189.9356  158.9179 H   0  0  0  0  0  0  0  0  0  0  0  0
  205.8837  188.1749  159.6331 H   0  0  0  0  0  0  0  0  0  0  0  0
  205.0681  185.8808  160.1281 H   0  0  0  0  0  0  0  0  0  0  0  0
  199.8491  189.2080  160.5299 H   0  0  0  0  0  0  0  0  0  0  0  0
  195.3488  182.4072  156.1651 H   0  0  0  0  0  0  0  0  0  0  0  0
  1  2  1  0
  2  3  1  0
  2 30  2  0
  3  4  2  0
  4  5  1  0
  4 31  1  0
  5  6  2  0
  5 32  1  0
  6  7  1  0
  6 30  1  0
  7  8  2  0
  7 25  1  0
  8  9  1  0
  8 22  1  0
  9 10  1  0
  9 33  1  0
 10 11  2  0
 10 12  1  0
 12 13  1  0
 12 17  2  0
 13 14  2  0
 13 18  1  0
 14 15  1  0
 14 34  1  0
 15 16  2  0
 15 35  1  0
 16 17  1  0
 16 36  1  0
 17 37  1  0
 18 19  1  0
 18 38  1  6
 18 39  1  0
 19 20  1  0
 19 21  1  0
 19 52  1  1
 20 40  1  6
 20 41  1  0
 20 42  1  0
 21 43  1  6
 21 44  1  0
 21 45  1  0
 22 23  2  0
 22 46  1  0
 23 24  1  0
 24 25  1  0
 24 29  2  0
 25 26  2  0
 26 27  1  0
 26 47  1  0
 27 28  2  0
 27 48  1  0
 28 29  1  0
 28 49  1  0
 29 50  1  0
 30 51  1  0
M  CHG  1  19   1
M  END
>  <s_epik_cmdline>  (1547) 
J2VwaWtfcHl0aG9uJywgJy1waCcsICc3LjAwMDAwMCcsICctcGh0JywgJzIuMDAwMDAwJywgJy1tcycsICcxNicsICctdG4nLCAnOCcsICctbWEnLCAnMjAwJywgJy1pbWFlJywgJzxpbmZpbGUubWFlPicsICctb21hZScsICc8b3V0ZmlsZS5tYWU+Jw==

>  <s_epik_input>  (1547) 
Q2xjMW5bY0hdW2NIXWMoW2NIXTEpLWMoYyhjMjMpW2NIXVtjSF1bY0hdW2NIXTMpYyhbY0hdbjIpW05IXUMoPU8pYzRjKFtDSDJdTihbQ0gzXSlbQ0gzXSlbY0hdW2NIXVtjSF1bY0hdNA==

>  <s_i_glide_gridfile>  (1547) 
ATP-Grid

>  <s_lp_Force_Field>  (1547) 
OPLS_2005

>  <s_lp_Variant>  (1547) 
rxn501b____EMOL5415347____EMOL30488121____EMOL728493-1

>  <s_lp_label>  (1547) 
2824_sdstereoexpander_1_neutralizer_1_epik_1_stereoizer_1

>  <s_m_source_file>  (1547) 
ATP-VSW-LIGPREP-002-in.maegz

>  <s_sd_BIOSOLVEIT.INFINISEE\_QUERY\_NAME>  (1547) 
Ref-Lig

>  <s_sd_BIOSOLVEIT.INFINISEE\_QUERY\_SMILES>  (1547) 
S(c1nc2c(cc1C[NH2+]Cc3ccc(cc3)C[NH+](C)C)cccc2)Cc4ccccc4

>  <s_sd_BIOSOLVEIT.INFINISEE\_REACTION\_NAME>  (1547) 
rxn501b

>  <s_sd_BIOSOLVEIT.INFINISEE\_REAGENT1\_NAME>  (1547) 
EMOL5415347

>  <s_sd_BIOSOLVEIT.INFINISEE\_REAGENT1\_SMILES>  (1547) 
O=C(O)c1c(cccc1)CN(C)C

>  <s_sd_BIOSOLVEIT.INFINISEE\_REAGENT2\_NAME>  (1547) 
EMOL30488121

>  <s_sd_BIOSOLVEIT.INFINISEE\_REAGENT2\_SMILES>  (1547) 
Brc1c(N)cnc2c1cccc2

>  <s_sd_BIOSOLVEIT.INFINISEE\_REAGENT3\_NAME>  (1547) 
EMOL728493

>  <s_sd_BIOSOLVEIT.INFINISEE\_REAGENT3\_SMILES>  (1547) 
Clc1nccc(c1)B(O)O

>  <s_sd_BIOSOLVEIT.INFINISEE\_SPACE>  (1547) 
eXplore_7tr_2022-12

>  <s_vsw_compound_code>  (1547) 
90338

>  <s_vsw_variant>  (1547) 
90338-1

>  <r_epik_Charging_Adjusted_Penalty>  (1547) 
0.120106230221407

>  <r_epik_Ionization_Penalty>  (1547) 
0.060400000000000002

>  <r_epik_Ionization_Penalty_Charging>  (1547) 
0.060100000000000001

>  <r_epik_Ionization_Penalty_Neutral>  (1547) 
0.00040000000000000002

>  <r_epik_State_Penalty>  (1547) 
0.060100000000000001

>  <r_i_docking_score>  (1547) 
-3.8828603991857902

>  <r_i_glide_ecoul>  (1547) 
-7.2342462539672896

>  <r_i_glide_eff_state_penalty>  (1547) 
0.060100000000000001

>  <r_i_glide_einternal>  (1547) 
2.4354715347289999

>  <r_i_glide_emodel>  (1547) 
-47.856017370808701

>  <r_i_glide_energy>  (1547) 
-35.896813392639203

>  <r_i_glide_erotb>  (1547) 
0.56597639060281502

>  <r_i_glide_esite>  (1547) 
-0.085388115481579596

>  <r_i_glide_evdw>  (1547) 
-28.6625671386719

>  <r_i_glide_gscore>  (1547) 
-3.94296039918579

>  <r_i_glide_hbond>  (1547) 
-0.20000000000000001

>  <r_i_glide_ligand_efficiency>  (1547) 
-0.12942867997286001

>  <r_i_glide_ligand_efficiency_ln>  (1547) 
-0.88222818984759799

>  <r_i_glide_ligand_efficiency_sa>  (1547) 
-0.40216500115842202

>  <r_i_glide_lipo>  (1547) 
-1.0238408530692

>  <r_i_glide_metal>  (1547) 
-0

>  <r_i_glide_rewards>  (1547) 
-0.68144252620914503

>  <r_lp_Energy>  (1547) 
31.717714999999998

>  <r_qp_ACxDN^.5/SA>  (1547) 
0.0090387999999999996

>  <r_qp_CIQPlogS>  (1547) 
-5.359

>  <r_qp_EA(eV)>  (1547) 
1.2769999999999999

>  <r_qp_FISA>  (1547) 
66.399000000000001

>  <r_qp_FOSA>  (1547) 
166.732

>  <r_qp_IP(eV)>  (1547) 
8.8919999999999995

>  <r_qp_Jm>  (1547) 
0.0036198546229515801

>  <r_qp_PISA>  (1547) 
417.74299999999999

>  <r_qp_PSA>  (1547) 
58.551000000000002

>  <r_qp_PercentHumanOralAbsorption>  (1547) 
100

>  <r_qp_QPPCaco>  (1547) 
579.61500000000001

>  <r_qp_QPPMDCK>  (1547) 
717.95000000000005

>  <r_qp_QPlogBB>  (1547) 
0.13800000000000001

>  <r_qp_QPlogHERG>  (1547) 
-7.468

>  <r_qp_QPlogKhsa>  (1547) 
0.64900000000000002

>  <r_qp_QPlogKp>  (1547) 
-2.8540000000000001

>  <r_qp_QPlogPC16>  (1547) 
14.460000000000001

>  <r_qp_QPlogPo/w>  (1547) 
4.476

>  <r_qp_QPlogPoct>  (1547) 
20.844000000000001

>  <r_qp_QPlogPw>  (1547) 
11.531000000000001

>  <r_qp_QPlogS>  (1547) 
-5.2069999999999999

>  <r_qp_QPpolrz>  (1547) 
46.659999999999997

>  <r_qp_SASA>  (1547) 
719.12599999999998

>  <r_qp_SAamideO>  (1547) 
0

>  <r_qp_SAfluorine>  (1547) 
0

>  <r_qp_WPSA>  (1547) 
68.251999999999995

>  <r_qp_accptHB>  (1547) 
6.5

>  <r_qp_dip^2/V>  (1547) 
0.0104648

>  <r_qp_dipole>  (1547) 
3.6890000000000001

>  <r_qp_donorHB>  (1547) 
1

>  <r_qp_glob>  (1547) 
0.80113440000000002

>  <r_qp_mol_MW>  (1547) 
416.90899999999999

>  <r_qp_volume>  (1547) 
1300.222

>  <r_sd_BIOSOLVEIT.INFINISEE\_FTREES\_SIMILARITY>  (1547) 
0.90600000000000003

>  <r_sd_BIOSOLVEIT.LOGP>  (1547) 
3.847

>  <r_sd_BIOSOLVEIT.MOLECULAR\_WEIGHT>  (1547) 
417.91800000000001

>  <r_sd_BIOSOLVEIT.TPSA>  (1547) 
59.32

>  <i_epik_Tot_Q>  (1547) 
1

>  <i_epik_Tot_abs_Q>  (1547) 
1

>  <i_f3d_flags>  (1547) 
0

>  <i_i_glide_confnum>  (1547) 
5

>  <i_i_glide_lignum>  (1547) 
1380

>  <i_i_glide_posenum>  (1547) 
18

>  <i_i_glide_rotatable_bonds>  (1547) 
6

>  <i_lp_mmshare_version>  (1547) 
65135

>  <i_m_ct_format>  (1547) 
2

>  <i_m_source_file_index>  (1547) 
2824

>  <i_qp_#NandO>  (1547) 
5

>  <i_qp_#acid>  (1547) 
0

>  <i_qp_#amide>  (1547) 
0

>  <i_qp_#amidine>  (1547) 
0

>  <i_qp_#amine>  (1547) 
1

>  <i_qp_#in34>  (1547) 
0

>  <i_qp_#in56>  (1547) 
22

>  <i_qp_#metab>  (1547) 
4

>  <i_qp_#nonHatm>  (1547) 
30

>  <i_qp_#noncon>  (1547) 
0

>  <i_qp_#ringatoms>  (1547) 
22

>  <i_qp_#rotor>  (1547) 
5

>  <i_qp_#rtvFG>  (1547) 
0

>  <i_qp_#stars>  (1547) 
0

>  <i_qp_CNS>  (1547) 
1

>  <i_qp_HumanOralAbsorption>  (1547) 
3

>  <i_qp_RuleOfFive>  (1547) 
0

>  <i_qp_RuleOfThree>  (1547) 
0

>  <i_sd_BIOSOLVEIT.INFINISEE\_RESULT\_RANK>  (1547) 
65879

>  <i_sd_version>  (1547) 
0

>  <b_lp_Chiralities_Consistent>  (1547) 
1

>  <b_sd_chiral_flag>  (1547) 
0

>  <canonical_id>  (1547) 
ATP-HTVS-F38CDD17995D

>  <compound_code>  (1547) 
90338

>  <title>  (1547) 
rxn501b____EMOL5415347____EMOL30488121____EMOL728493

>  <variant>  (1547) 
90338-1

>  <source_file>  (1547) 
运行/运行/ATP-VSW/ATP-VSW-DOCK_HTVS_1-002_lib.maegz

>  <canonical_smiles>  (1547) 
C[NH+](C)Cc1ccccc1C(=O)Nc1cnc2ccccc2c1-c1ccnc(Cl)c1

>  <scaffold>  (1547) 
O=C(Nc1cnc2ccccc2c1-c1ccncc1)c1ccccc1

>  <molecular_formula>  (1547) 
C24H22ClN4O+

$$$$
ATP-HTVS-F3AEEA9B80E5
     RDKit          3D

 58 61  0  0  0  0  0  0  0  0999 V2000
  193.9576  181.9890  158.5215 S   0  0  0  0  0  0  0  0  0  0  0  0
  194.0012  183.7201  158.7428 C   0  0  0  0  0  0  0  0  0  0  0  0
  195.2288  184.1741  159.1622 C   0  0  0  0  0  0  0  0  0  0  0  0
  196.1647  183.1034  159.3010 C   0  0  0  0  0  0  0  0  0  0  0  0
  195.6305  181.8782  158.9989 C   0  0  0  0  0  0  0  0  0  0  0  0
  195.5392  185.6151  159.4387 C   0  0  1  0  0  0  0  0  0  0  0  0
  195.9699  186.1575  158.1546 N   0  0  0  0  0  0  0  0  0  0  0  0
  196.7901  187.2852  158.0976 C   0  0  0  0  0  0  0  0  0  0  0  0
  196.8319  188.1022  159.1697 N   0  0  0  0  0  0  0  0  0  0  0  0
  197.5097  189.2665  159.0668 C   0  0  0  0  0  0  0  0  0  0  0  0
  198.1926  189.6154  157.8629 C   0  0  0  0  0  0  0  0  0  0  0  0
  198.1886  188.7650  156.8024 N   0  0  0  0  0  0  0  0  0  0  0  0
  197.5046  187.6026  156.9052 C   0  0  0  0  0  0  0  0  0  0  0  0
  197.4642  186.7921  155.7596 N   0  0  0  0  0  0  0  0  0  0  0  0
  197.8596  185.3831  155.8104 C   0  0  1  0  0  0  0  0  0  0  0  0
  199.3821  185.1846  155.7316 C   0  0  1  0  0  0  0  0  0  0  0  0
  199.7618  183.7221  155.8936 C   0  0  0  0  0  0  0  0  0  0  0  0
  200.1589  183.2065  157.1451 C   0  0  0  0  0  0  0  0  0  0  0  0
  200.5156  181.8465  157.2719 C   0  0  0  0  0  0  0  0  0  0  0  0
  200.4590  180.9870  156.1515 C   0  0  0  0  0  0  0  0  0  0  0  0
  200.0720  181.5127  154.9027 C   0  0  0  0  0  0  0  0  0  0  0  0
  199.7017  182.8633  154.7767 C   0  0  0  0  0  0  0  0  0  0  0  0
  200.7822  179.5024  156.2889 C   0  0  1  0  0  0  0  0  0  0  0  0
  199.5786  178.6496  156.5264 N   0  0  2  0  0  0  0  0  0  0  0  0
  199.9531  177.2364  156.7601 C   0  0  2  0  0  0  0  0  0  0  0  0
  198.5197  178.7664  155.4945 C   0  0  2  0  0  0  0  0  0  0  0  0
  198.8806  190.8450  157.7998 C   0  0  0  0  0  0  0  0  0  0  0  0
  198.9106  191.7171  158.9083 C   0  0  0  0  0  0  0  0  0  0  0  0
  198.2371  191.3724  160.0875 C   0  0  0  0  0  0  0  0  0  0  0  0
  197.5415  190.1547  160.1590 C   0  0  0  0  0  0  0  0  0  0  0  0
  193.1059  184.2824  158.5416 H   0  0  0  0  0  0  0  0  0  0  0  0
  197.1791  183.2443  159.6268 H   0  0  0  0  0  0  0  0  0  0  0  0
  196.1023  180.9074  159.0551 H   0  0  0  0  0  0  0  0  0  0  0  0
  194.6551  186.1546  159.7946 H   0  0  0  0  0  0  0  0  0  0  0  0
  196.3119  185.7089  160.2073 H   0  0  0  0  0  0  0  0  0  0  0  0
  195.9613  185.5435  157.3526 H   0  0  0  0  0  0  0  0  0  0  0  0
  197.6194  187.2761  154.8832 H   0  0  0  0  0  0  0  0  0  0  0  0
  197.5292  184.9085  156.7364 H   0  0  0  0  0  0  0  0  0  0  0  0
  197.3647  184.8626  154.9810 H   0  0  0  0  0  0  0  0  0  0  0  0
  199.7705  185.5565  154.7807 H   0  0  0  0  0  0  0  0  0  0  0  0
  199.8698  185.7582  156.5181 H   0  0  0  0  0  0  0  0  0  0  0  0
  200.1935  183.8486  158.0144 H   0  0  0  0  0  0  0  0  0  0  0  0
  200.8153  181.4652  158.2380 H   0  0  0  0  0  0  0  0  0  0  0  0
  200.0355  180.8804  154.0310 H   0  0  0  0  0  0  0  0  0  0  0  0
  199.3555  183.2393  153.8231 H   0  0  0  0  0  0  0  0  0  0  0  0
  201.3105  179.1551  155.3952 H   0  0  0  0  0  0  0  0  0  0  0  0
  201.4931  179.3711  157.1078 H   0  0  0  0  0  0  0  0  0  0  0  0
  200.4626  176.8106  155.8937 H   0  0  0  0  0  0  0  0  0  0  0  0
  199.0653  176.6349  156.9411 H   0  0  0  0  0  0  0  0  0  0  0  0
  200.6021  177.1348  157.6316 H   0  0  0  0  0  0  0  0  0  0  0  0
  198.9072  178.4646  154.5176 H   0  0  0  0  0  0  0  0  0  0  0  0
  198.1201  179.7799  155.4132 H   0  0  0  0  0  0  0  0  0  0  0  0
  197.6635  178.1338  155.7375 H   0  0  0  0  0  0  0  0  0  0  0  0
  199.4135  191.1240  156.9036 H   0  0  0  0  0  0  0  0  0  0  0  0
  199.4636  192.6433  158.8695 H   0  0  0  0  0  0  0  0  0  0  0  0
  198.2700  192.0245  160.9457 H   0  0  0  0  0  0  0  0  0  0  0  0
  197.0447  189.8734  161.0758 H   0  0  0  0  0  0  0  0  0  0  0  0
  199.1232  178.9431  157.3840 H   0  0  0  0  0  0  0  0  0  0  0  0
  1  2  1  0
  1  5  1  0
  2  3  2  0
  2 31  1  0
  3  4  1  0
  3  6  1  0
  4  5  2  0
  4 32  1  0
  5 33  1  0
  6  7  1  0
  6 34  1  1
  6 35  1  0
  7  8  1  0
  7 36  1  0
  8  9  2  0
  8 13  1  0
  9 10  1  0
 10 11  1  0
 10 30  2  0
 11 12  1  0
 11 27  2  0
 12 13  2  0
 13 14  1  0
 14 15  1  0
 14 37  1  0
 15 16  1  0
 15 38  1  1
 15 39  1  0
 16 17  1  0
 16 40  1  6
 16 41  1  0
 17 18  1  0
 17 22  2  0
 18 19  2  0
 18 42  1  0
 19 20  1  0
 19 43  1  0
 20 21  2  0
 20 23  1  0
 21 22  1  0
 21 44  1  0
 22 45  1  0
 23 24  1  0
 23 46  1  6
 23 47  1  0
 24 25  1  0
 24 26  1  0
 24 58  1  1
 25 48  1  6
 25 49  1  0
 25 50  1  0
 26 51  1  6
 26 52  1  0
 26 53  1  0
 27 28  1  0
 27 54  1  0
 28 29  2  0
 28 55  1  0
 29 30  1  0
 29 56  1  0
 30 57  1  0
M  CHG  1  24   1
M  END
>  <s_epik_cmdline>  (1548) 
J2VwaWtfcHl0aG9uJywgJy1waCcsICc3LjAwMDAwMCcsICctcGh0JywgJzIuMDAwMDAwJywgJy1tcycsICcxNicsICctdG4nLCAnOCcsICctbWEnLCAnMjAwJywgJy1pbWFlJywgJzxpbmZpbGUubWFlPicsICctb21hZScsICc8b3V0ZmlsZS5tYWU+Jw==

>  <s_epik_input>  (1548) 
W2NIXTFbY0hdc1tjSF1jMVtDSDJdW05IXWMobjIpYyhuYyhjMjMpW2NIXVtjSF1bY0hdW2NIXTMpW05IXVtDSDJdW0NIMl1jNFtjSF1bY0hdYyhbY0hdW2NIXTQpW0NIMl1OKFtDSDNdKVtDSDNd

>  <s_i_glide_gridfile>  (1548) 
ATP-Grid

>  <s_lp_Force_Field>  (1548) 
OPLS_2005

>  <s_lp_Variant>  (1548) 
m_282030aaa____21928184____23157418____21967972-1

>  <s_lp_label>  (1548) 
1789_sdstereoexpander_1_neutralizer_1_epik_1_stereoizer_1

>  <s_m_source_file>  (1548) 
ATP-VSW-LIGPREP-003-in.maegz

>  <s_sd_BIOSOLVEIT.INFINISEE\_QUERY\_NAME>  (1548) 
Ref-Lig

>  <s_sd_BIOSOLVEIT.INFINISEE\_QUERY\_SMILES>  (1548) 
S(c1nc2c(cc1C[NH2+]Cc3ccc(cc3)C[NH+](C)C)cccc2)Cc4ccccc4

>  <s_sd_BIOSOLVEIT.INFINISEE\_REACTION\_NAME>  (1548) 
m_282030aaa

>  <s_sd_BIOSOLVEIT.INFINISEE\_REAGENT1\_SMILES>  (1548) 
[R1*]NCC1=CSC=C1

>  <s_sd_BIOSOLVEIT.INFINISEE\_REAGENT2\_SMILES>  (1548) 
[R1*]c1nc2c(nc1[R2*])cccc2

>  <s_sd_BIOSOLVEIT.INFINISEE\_REAGENT3\_SMILES>  (1548) 
[R2*]NCCc1ccc(cc1)CN(C)C

>  <s_sd_BIOSOLVEIT.INFINISEE\_SPACE>  (1548) 
REALSpace_44bn_2023-08

>  <s_vsw_compound_code>  (1548) 
57219

>  <s_vsw_variant>  (1548) 
57219-1

>  <r_epik_Charging_Adjusted_Penalty>  (1548) 
0.081936508424468604

>  <r_epik_Ionization_Penalty>  (1548) 
0.041500000000000002

>  <r_epik_Ionization_Penalty_Charging>  (1548) 
0.041000000000000002

>  <r_epik_Ionization_Penalty_Neutral>  (1548) 
0.00050000000000000001

>  <r_epik_State_Penalty>  (1548) 
0.041000000000000002

>  <r_i_docking_score>  (1548) 
-3.9294222208398102

>  <r_i_glide_ecoul>  (1548) 
-7.3668341636657697

>  <r_i_glide_eff_state_penalty>  (1548) 
0.041000000000000002

>  <r_i_glide_einternal>  (1548) 
7.1843099594116202

>  <r_i_glide_emodel>  (1548) 
-51.202820835713503

>  <r_i_glide_energy>  (1548) 
-41.077096462249798

>  <r_i_glide_erotb>  (1548) 
0.90295149594092805

>  <r_i_glide_esite>  (1548) 
-0.098827678038652694

>  <r_i_glide_evdw>  (1548) 
-33.710262298583999

>  <r_i_glide_gscore>  (1548) 
-3.9704222208398101

>  <r_i_glide_hbond>  (1548) 
-0.16684479791948101

>  <r_i_glide_ligand_efficiency>  (1548) 
-0.13098074069466001

>  <r_i_glide_ligand_efficiency_ln>  (1548) 
-0.89280754305907295

>  <r_i_glide_ligand_efficiency_sa>  (1548) 
-0.40698761467894701

>  <r_i_glide_lipo>  (1548) 
-1.03701722861627

>  <r_i_glide_metal>  (1548) 
-0

>  <r_i_glide_rewards>  (1548) 
-0.78014577272727104

>  <r_lp_Energy>  (1548) 
21.108374000000001

>  <r_qp_ACxDN^.5/SA>  (1548) 
0.0107711

>  <r_qp_CIQPlogS>  (1548) 
-5.8360000000000003

>  <r_qp_EA(eV)>  (1548) 
0.68300000000000005

>  <r_qp_FISA>  (1548) 
28.292000000000002

>  <r_qp_FOSA>  (1548) 
274.21199999999999

>  <r_qp_IP(eV)>  (1548) 
7.9870000000000001

>  <r_qp_Jm>  (1548) 
0.680573998732522

>  <r_qp_PISA>  (1548) 
332.78899999999999

>  <r_qp_PSA>  (1548) 
43.826000000000001

>  <r_qp_PercentHumanOralAbsorption>  (1548) 
100

>  <r_qp_QPPCaco>  (1548) 
1331.9970000000001

>  <r_qp_QPPMDCK>  (1548) 
974.73900000000003

>  <r_qp_QPlogBB>  (1548) 
0.223

>  <r_qp_QPlogHERG>  (1548) 
-5.9450000000000003

>  <r_qp_QPlogKhsa>  (1548) 
0.72299999999999998

>  <r_qp_QPlogKp>  (1548) 
-2.0670000000000002

>  <r_qp_QPlogPC16>  (1548) 
13.284000000000001

>  <r_qp_QPlogPo/w>  (1548) 
4.8620000000000001

>  <r_qp_QPlogPoct>  (1548) 
19.731000000000002

>  <r_qp_QPlogPw>  (1548) 
9.6310000000000002

>  <r_qp_QPlogS>  (1548) 
-3.7210000000000001

>  <r_qp_QPpolrz>  (1548) 
42.628999999999998

>  <r_qp_SASA>  (1548) 
656.48400000000004

>  <r_qp_SAamideO>  (1548) 
0

>  <r_qp_SAfluorine>  (1548) 
0

>  <r_qp_WPSA>  (1548) 
21.190999999999999

>  <r_qp_accptHB>  (1548) 
5

>  <r_qp_dip^2/V>  (1548) 
0.015708400000000001

>  <r_qp_dipole>  (1548) 
4.4909999999999997

>  <r_qp_donorHB>  (1548) 
2

>  <r_qp_glob>  (1548) 
0.87024429999999997

>  <r_qp_mol_MW>  (1548) 
417.57100000000003

>  <r_qp_volume>  (1548) 
1283.9580000000001

>  <r_sd_BIOSOLVEIT.INFINISEE\_FTREES\_SIMILARITY>  (1548) 
0.90400000000000003

>  <r_sd_BIOSOLVEIT.LOGP>  (1548) 
3.6025

>  <r_sd_BIOSOLVEIT.MOLECULAR\_WEIGHT>  (1548) 
418.58499999999998

>  <r_sd_BIOSOLVEIT.TPSA>  (1548) 
54.280000000000001

>  <i_epik_Tot_Q>  (1548) 
1

>  <i_epik_Tot_abs_Q>  (1548) 
1

>  <i_f3d_flags>  (1548) 
0

>  <i_i_glide_confnum>  (1548) 
6

>  <i_i_glide_lignum>  (1548) 
665

>  <i_i_glide_posenum>  (1548) 
1

>  <i_i_glide_rotatable_bonds>  (1548) 
9

>  <i_lp_mmshare_version>  (1548) 
65135

>  <i_m_ct_format>  (1548) 
2

>  <i_m_source_file_index>  (1548) 
1789

>  <i_qp_#NandO>  (1548) 
5

>  <i_qp_#acid>  (1548) 
0

>  <i_qp_#amide>  (1548) 
0

>  <i_qp_#amidine>  (1548) 
0

>  <i_qp_#amine>  (1548) 
1

>  <i_qp_#in34>  (1548) 
0

>  <i_qp_#in56>  (1548) 
21

>  <i_qp_#metab>  (1548) 
6

>  <i_qp_#nonHatm>  (1548) 
30

>  <i_qp_#noncon>  (1548) 
0

>  <i_qp_#ringatoms>  (1548) 
21

>  <i_qp_#rotor>  (1548) 
9

>  <i_qp_#rtvFG>  (1548) 
0

>  <i_qp_#stars>  (1548) 
0

>  <i_qp_CNS>  (1548) 
1

>  <i_qp_HumanOralAbsorption>  (1548) 
3

>  <i_qp_RuleOfFive>  (1548) 
0

>  <i_qp_RuleOfThree>  (1548) 
0

>  <i_sd_BIOSOLVEIT.INFINISEE\_REAGENT1\_NAME>  (1548) 
21928184

>  <i_sd_BIOSOLVEIT.INFINISEE\_REAGENT2\_NAME>  (1548) 
23157418

>  <i_sd_BIOSOLVEIT.INFINISEE\_REAGENT3\_NAME>  (1548) 
21967972

>  <i_sd_BIOSOLVEIT.INFINISEE\_RESULT\_RANK>  (1548) 
77145

>  <i_sd_version>  (1548) 
0

>  <b_lp_Chiralities_Consistent>  (1548) 
1

>  <b_sd_chiral_flag>  (1548) 
0

>  <canonical_id>  (1548) 
ATP-HTVS-F3AEEA9B80E5

>  <compound_code>  (1548) 
57219

>  <title>  (1548) 
m_282030aaa____21928184____23157418____21967972

>  <variant>  (1548) 
57219-1

>  <source_file>  (1548) 
运行/运行/ATP-VSW/ATP-VSW-DOCK_HTVS_1-003_lib/ATP-VSW-DOCK_HTVS_1-003_lib.mae

>  <canonical_smiles>  (1548) 
C[NH+](C)Cc1ccc(CCNc2nc3ccccc3nc2NCc2ccsc2)cc1

>  <scaffold>  (1548) 
c1ccc(CCNc2nc3ccccc3nc2NCc2ccsc2)cc1

>  <molecular_formula>  (1548) 
C24H28N5S+

$$$$
ATP-HTVS-F3E91D83A828
     RDKit          3D

 67 70  0  0  0  0  0  0  0  0999 V2000
  201.8565  182.6273  161.4045 F   0  0  0  0  0  0  0  0  0  0  0  0
  201.7120  183.5099  160.3907 C   0  0  0  0  0  0  0  0  0  0  0  0
  200.7903  183.2514  159.3648 C   0  0  0  0  0  0  0  0  0  0  0  0
  200.6552  184.1247  158.2629 C   0  0  0  0  0  0  0  0  0  0  0  0
  201.4987  185.2798  158.1969 C   0  0  0  0  0  0  0  0  0  0  0  0
  201.4525  186.1362  157.1705 N   0  0  0  0  0  0  0  0  0  0  0  0
  200.6103  185.8872  156.1528 C   0  0  0  0  0  0  0  0  0  0  0  0
  199.7327  184.7833  156.0973 C   0  0  0  0  0  0  0  0  0  0  0  0
  199.7199  183.8835  157.2198 C   0  0  0  0  0  0  0  0  0  0  0  0
  198.8060  182.8150  157.3497 N   0  0  0  0  0  0  0  0  0  0  0  0
  197.3632  183.0468  157.4211 C   0  0  2  0  0  0  0  0  0  0  0  0
  196.9075  184.2329  158.3260 C   0  0  0  0  0  0  0  0  0  0  0  0
  196.0786  184.0425  159.4861 C   0  0  0  0  0  0  0  0  0  0  0  0
  195.5898  185.1512  160.2105 C   0  0  0  0  0  0  0  0  0  0  0  0
  196.0113  186.4741  159.8879 C   0  0  0  0  0  0  0  0  0  0  0  0
  196.8617  186.6412  158.7658 C   0  0  0  0  0  0  0  0  0  0  0  0
  197.2513  185.5693  157.9489 C   0  0  0  0  0  0  0  0  0  0  0  0
  196.6365  181.7173  157.6914 C   0  0  1  0  0  0  0  0  0  0  0  0
  195.1722  181.8406  157.6286 N   0  0  2  0  0  0  0  0  0  0  0  0
  198.8827  184.5947  154.8632 C   0  0  0  0  0  0  0  0  0  0  0  0
  198.5606  183.4667  154.5115 O   0  0  0  0  0  0  0  0  0  0  0  0
  198.5054  185.7195  154.2163 N   0  0  0  0  0  0  0  0  0  0  0  0
  197.5893  185.7981  153.0853 C   0  0  1  0  0  0  0  0  0  0  0  0
  197.8760  184.8003  151.9845 C   0  0  0  0  0  0  0  0  0  0  0  0
  197.0889  183.6384  151.8853 C   0  0  0  0  0  0  0  0  0  0  0  0
  197.4344  182.6206  150.9716 C   0  0  0  0  0  0  0  0  0  0  0  0
  198.5353  182.8127  150.1086 C   0  0  0  0  0  0  0  0  0  0  0  0
  199.2995  183.9920  150.1824 C   0  0  0  0  0  0  0  0  0  0  0  0
  198.9779  184.9848  151.1290 C   0  0  0  0  0  0  0  0  0  0  0  0
  196.6299  181.3301  150.9439 C   0  0  1  0  0  0  0  0  0  0  0  0
  197.0793  180.3159  151.9387 N   0  0  1  0  0  0  0  0  0  0  0  0
  196.9745  180.7345  153.3533 C   0  0  2  0  0  0  0  0  0  0  0  0
  196.4016  179.0230  151.7305 C   0  0  2  0  0  0  0  0  0  0  0  0
  202.3890  185.5440  159.2582 C   0  0  0  0  0  0  0  0  0  0  0  0
  202.5138  184.6683  160.3507 C   0  0  0  0  0  0  0  0  0  0  0  0
  194.8172  180.8956  157.8053 H   0  0  0  0  0  0  0  0  0  0  0  0
  194.8042  182.1271  156.7194 H   0  0  0  0  0  0  0  0  0  0  0  0
  200.1823  182.3675  159.4728 H   0  0  0  0  0  0  0  0  0  0  0  0
  200.6398  186.6421  155.3860 H   0  0  0  0  0  0  0  0  0  0  0  0
  199.1206  182.1004  157.9908 H   0  0  0  0  0  0  0  0  0  0  0  0
  197.0073  183.3099  156.4272 H   0  0  0  0  0  0  0  0  0  0  0  0
  195.7623  183.0594  159.8409 H   0  0  0  0  0  0  0  0  0  0  0  0
  194.8912  185.0060  161.0060 H   0  0  0  0  0  0  0  0  0  0  0  0
  195.6862  187.3170  160.4797 H   0  0  0  0  0  0  0  0  0  0  0  0
  197.2145  187.6426  158.5171 H   0  0  0  0  0  0  0  0  0  0  0  0
  197.8132  185.7951  157.0571 H   0  0  0  0  0  0  0  0  0  0  0  0
  196.9514  180.9482  156.9905 H   0  0  0  0  0  0  0  0  0  0  0  0
  196.8968  181.3097  158.6721 H   0  0  0  0  0  0  0  0  0  0  0  0
  198.7939  186.6085  154.6001 H   0  0  0  0  0  0  0  0  0  0  0  0
  196.5556  185.7053  153.4341 H   0  0  0  0  0  0  0  0  0  0  0  0
  197.6845  186.7894  152.6379 H   0  0  0  0  0  0  0  0  0  0  0  0
  196.2628  183.5008  152.5688 H   0  0  0  0  0  0  0  0  0  0  0  0
  198.8160  182.0432  149.3984 H   0  0  0  0  0  0  0  0  0  0  0  0
  200.1576  184.1245  149.5378 H   0  0  0  0  0  0  0  0  0  0  0  0
  199.5983  185.8634  151.2261 H   0  0  0  0  0  0  0  0  0  0  0  0
  195.5747  181.5598  151.0931 H   0  0  0  0  0  0  0  0  0  0  0  0
  196.7197  180.9005  149.9421 H   0  0  0  0  0  0  0  0  0  0  0  0
  195.9465  181.0338  153.6135 H   0  0  0  0  0  0  0  0  0  0  0  0
  197.6394  181.5681  153.5134 H   0  0  0  0  0  0  0  0  0  0  0  0
  197.2841  179.9443  154.0421 H   0  0  0  0  0  0  0  0  0  0  0  0
  195.3282  179.1090  151.9089 H   0  0  0  0  0  0  0  0  0  0  0  0
  196.7990  178.2818  152.4253 H   0  0  0  0  0  0  0  0  0  0  0  0
  196.5660  178.6506  150.7164 H   0  0  0  0  0  0  0  0  0  0  0  0
  203.0130  186.4292  159.2052 H   0  0  0  0  0  0  0  0  0  0  0  0
  203.2388  184.8535  161.1233 H   0  0  0  0  0  0  0  0  0  0  0  0
  194.8479  182.4915  158.3207 H   0  0  0  0  0  0  0  0  0  0  0  0
  198.0625  180.1655  151.7707 H   0  0  0  0  0  0  0  0  0  0  0  0
  1  2  1  0
  2  3  1  0
  2 35  2  0
  3  4  2  0
  3 38  1  0
  4  5  1  0
  4  9  1  0
  5  6  1  0
  5 34  2  0
  6  7  2  0
  7  8  1  0
  7 39  1  0
  8  9  2  0
  8 20  1  0
  9 10  1  0
 10 11  1  0
 10 40  1  0
 11 12  1  0
 11 18  1  0
 11 41  1  6
 12 13  2  0
 12 17  1  0
 13 14  1  0
 13 42  1  0
 14 15  2  0
 14 43  1  0
 15 16  1  0
 15 44  1  0
 16 17  2  0
 16 45  1  0
 17 46  1  0
 18 19  1  0
 18 47  1  6
 18 48  1  0
 19 36  1  1
 19 37  1  0
 19 66  1  0
 20 21  2  0
 20 22  1  0
 22 23  1  0
 22 49  1  0
 23 24  1  0
 23 50  1  1
 23 51  1  0
 24 25  2  0
 24 29  1  0
 25 26  1  0
 25 52  1  0
 26 27  2  0
 26 30  1  0
 27 28  1  0
 27 53  1  0
 28 29  2  0
 28 54  1  0
 29 55  1  0
 30 31  1  0
 30 56  1  1
 30 57  1  0
 31 32  1  0
 31 33  1  0
 31 67  1  6
 32 58  1  1
 32 59  1  0
 32 60  1  0
 33 61  1  1
 33 62  1  0
 33 63  1  0
 34 35  1  0
 34 64  1  0
 35 65  1  0
M  CHG  2  19   1  31   1
M  END
>  <s_epik_cmdline>  (1549) 
J2VwaWtfcHl0aG9uJywgJy1waCcsICc3LjAwMDAwMCcsICctcGh0JywgJzIuMDAwMDAwJywgJy1tcycsICcxNicsICctdG4nLCAnOCcsICctbWEnLCAnMjAwJywgJy1pbWFlJywgJzxpbmZpbGUubWFlPicsICctb21hZScsICc8b3V0ZmlsZS5tYWU+Jw==

>  <s_epik_input>  (1549) 
W2NIXTFbY0hdW2NIXWMoW0NIMl1OKFtDSDNdKVtDSDNdKVtjSF1jMVtDSDJdW05IXUMoPU8pYyhbY0hdbmMoYzIzKVtjSF1bY0hdYyhGKVtjSF0yKWMzW05IXVtDQEBIXShbQ0gyXVtOSDJdKWM0W2NIXVtjSF1bY0hdW2NIXVtjSF00

>  <s_i_glide_gridfile>  (1549) 
ATP-Grid

>  <s_lp_Force_Field>  (1549) 
OPLS_2005

>  <s_lp_Variant>  (1549) 
rxn512c____EMOL44391395____EMOL36725275____EMOL2873214-1

>  <s_lp_label>  (1549) 
2749_sdstereoexpander_1_neutralizer_1_epik_1_stereoizer_1

>  <s_m_source_file>  (1549) 
ATP-VSW-LIGPREP-003-in.maegz

>  <s_sd_BIOSOLVEIT.INFINISEE\_QUERY\_NAME>  (1549) 
Ref-Lig

>  <s_sd_BIOSOLVEIT.INFINISEE\_QUERY\_SMILES>  (1549) 
S(c1nc2c(cc1C[NH2+]Cc3ccc(cc3)C[NH+](C)C)cccc2)Cc4ccccc4

>  <s_sd_BIOSOLVEIT.INFINISEE\_REACTION\_NAME>  (1549) 
rxn512c

>  <s_sd_BIOSOLVEIT.INFINISEE\_REAGENT1\_NAME>  (1549) 
EMOL44391395

>  <s_sd_BIOSOLVEIT.INFINISEE\_REAGENT1\_SMILES>  (1549) 
NC(c1ccccc1)CN

>  <s_sd_BIOSOLVEIT.INFINISEE\_REAGENT2\_NAME>  (1549) 
EMOL36725275

>  <s_sd_BIOSOLVEIT.INFINISEE\_REAGENT2\_SMILES>  (1549) 
Clc1c2c(ncc1C(=O)O)ccc(F)c2

>  <s_sd_BIOSOLVEIT.INFINISEE\_REAGENT3\_NAME>  (1549) 
EMOL2873214

>  <s_sd_BIOSOLVEIT.INFINISEE\_REAGENT3\_SMILES>  (1549) 
N(Cc1cc(ccc1)CN)(C)C

>  <s_sd_BIOSOLVEIT.INFINISEE\_SPACE>  (1549) 
eXplore_7tr_2022-12

>  <s_vsw_compound_code>  (1549) 
87939

>  <s_vsw_variant>  (1549) 
87939-1

>  <r_epik_Charging_Adjusted_Penalty>  (1549) 
0.120390194433474

>  <r_epik_Ionization_Penalty>  (1549) 
0.077399999999999997

>  <r_epik_Ionization_Penalty_Charging>  (1549) 
0.046300000000000001

>  <r_epik_Ionization_Penalty_Neutral>  (1549) 
0.031099999999999999

>  <r_epik_State_Penalty>  (1549) 
0.074099999999999999

>  <r_i_docking_score>  (1549) 
-5.2588780915239397

>  <r_i_glide_ecoul>  (1549) 
-14.887743949890099

>  <r_i_glide_eff_state_penalty>  (1549) 
0.074099999999999999

>  <r_i_glide_einternal>  (1549) 
7.3304252624511701

>  <r_i_glide_emodel>  (1549) 
-65.033549899317904

>  <r_i_glide_energy>  (1549) 
-45.405611991882303

>  <r_i_glide_erotb>  (1549) 
0.72153994004720501

>  <r_i_glide_esite>  (1549) 
-0.1066061281333

>  <r_i_glide_evdw>  (1549) 
-30.517868041992202

>  <r_i_glide_gscore>  (1549) 
-5.3329780915239402

>  <r_i_glide_hbond>  (1549) 
-0.33843554530931502

>  <r_i_glide_ligand_efficiency>  (1549) 
-0.15025365975782701

>  <r_i_glide_ligand_efficiency_ln>  (1549) 
-1.15444045560034

>  <r_i_glide_ligand_efficiency_sa>  (1549) 
-0.49148968383389402

>  <r_i_glide_lipo>  (1549) 
-1.60890589306409

>  <r_i_glide_metal>  (1549) 
-0

>  <r_i_glide_rewards>  (1549) 
-0.24151547048131

>  <r_lp_Energy>  (1549) 
40.311636

>  <r_qp_ACxDN^.5/SA>  (1549) 
0.0142513

>  <r_qp_CIQPlogS>  (1549) 
-5.2629999999999999

>  <r_qp_EA(eV)>  (1549) 
1.3180000000000001

>  <r_qp_FISA>  (1549) 
94.165999999999997

>  <r_qp_FOSA>  (1549) 
256.79199999999997

>  <r_qp_IP(eV)>  (1549) 
8.782

>  <r_qp_Jm>  (1549) 
0.00031305305248144902

>  <r_qp_PISA>  (1549) 
392.39299999999997

>  <r_qp_PSA>  (1549) 
83.480000000000004

>  <r_qp_PercentHumanOralAbsorption>  (1549) 
87.075999999999993

>  <r_qp_QPPCaco>  (1549) 
78.835999999999999

>  <r_qp_QPPMDCK>  (1549) 
69.997

>  <r_qp_QPlogBB>  (1549) 
-0.11799999999999999

>  <r_qp_QPlogHERG>  (1549) 
-8.1519999999999992

>  <r_qp_QPlogKhsa>  (1549) 
0.82499999999999996

>  <r_qp_QPlogKp>  (1549) 
-5.0380000000000003

>  <r_qp_QPlogPC16>  (1549) 
15.85

>  <r_qp_QPlogPo/w>  (1549) 
4.4720000000000004

>  <r_qp_QPlogPoct>  (1549) 
25.094000000000001

>  <r_qp_QPlogPw>  (1549) 
13.537000000000001

>  <r_qp_QPlogS>  (1549) 
-4.1399999999999997

>  <r_qp_QPpolrz>  (1549) 
50.539999999999999

>  <r_qp_SASA>  (1549) 
789.98900000000003

>  <r_qp_SAamideO>  (1549) 
0

>  <r_qp_SAfluorine>  (1549) 
46.637999999999998

>  <r_qp_WPSA>  (1549) 
46.637999999999998

>  <r_qp_accptHB>  (1549) 
6.5

>  <r_qp_dip^2/V>  (1549) 
0.019045699999999999

>  <r_qp_dipole>  (1549) 
5.3150000000000004

>  <r_qp_donorHB>  (1549) 
3

>  <r_qp_glob>  (1549) 
0.79626580000000002

>  <r_qp_mol_MW>  (1549) 
471.57600000000002

>  <r_qp_volume>  (1549) 
1483.443

>  <r_sd_BIOSOLVEIT.INFINISEE\_FTREES\_SIMILARITY>  (1549) 
0.90700000000000003

>  <r_sd_BIOSOLVEIT.LOGP>  (1549) 
2.3435000000000001

>  <r_sd_BIOSOLVEIT.MOLECULAR\_WEIGHT>  (1549) 
473.59300000000002

>  <r_sd_BIOSOLVEIT.TPSA>  (1549) 
86.099999999999994

>  <i_epik_Tot_Q>  (1549) 
2

>  <i_epik_Tot_abs_Q>  (1549) 
2

>  <i_f3d_flags>  (1549) 
0

>  <i_i_glide_confnum>  (1549) 
10

>  <i_i_glide_lignum>  (1549) 
1306

>  <i_i_glide_posenum>  (1549) 
5

>  <i_i_glide_rotatable_bonds>  (1549) 
10

>  <i_lp_mmshare_version>  (1549) 
65135

>  <i_m_ct_format>  (1549) 
2

>  <i_m_source_file_index>  (1549) 
2749

>  <i_qp_#NandO>  (1549) 
6

>  <i_qp_#acid>  (1549) 
0

>  <i_qp_#amide>  (1549) 
0

>  <i_qp_#amidine>  (1549) 
0

>  <i_qp_#amine>  (1549) 
2

>  <i_qp_#in34>  (1549) 
0

>  <i_qp_#in56>  (1549) 
22

>  <i_qp_#metab>  (1549) 
10

>  <i_qp_#nonHatm>  (1549) 
35

>  <i_qp_#noncon>  (1549) 
0

>  <i_qp_#ringatoms>  (1549) 
22

>  <i_qp_#rotor>  (1549) 
10

>  <i_qp_#rtvFG>  (1549) 
0

>  <i_qp_#stars>  (1549) 
1

>  <i_qp_CNS>  (1549) 
0

>  <i_qp_HumanOralAbsorption>  (1549) 
1

>  <i_qp_RuleOfFive>  (1549) 
0

>  <i_qp_RuleOfThree>  (1549) 
1

>  <i_sd_BIOSOLVEIT.INFINISEE\_RESULT\_RANK>  (1549) 
58080

>  <i_sd_version>  (1549) 
0

>  <b_lp_Chiralities_Consistent>  (1549) 
1

>  <b_sd_chiral_flag>  (1549) 
0

>  <canonical_id>  (1549) 
ATP-HTVS-F3E91D83A828

>  <compound_code>  (1549) 
87939

>  <title>  (1549) 
rxn512c____EMOL44391395____EMOL36725275____EMOL2873214

>  <variant>  (1549) 
87939-1

>  <source_file>  (1549) 
运行/运行/ATP-VSW/ATP-VSW-DOCK_HTVS_1-003_lib/ATP-VSW-DOCK_HTVS_1-003_lib.mae

>  <canonical_smiles>  (1549) 
C[NH+](C)Cc1cccc(CNC(=O)c2cnc3ccc(F)cc3c2N[C@@H](C[NH3+])c2ccccc2)c1

>  <scaffold>  (1549) 
O=C(NCc1ccccc1)c1cnc2ccccc2c1NCc1ccccc1

>  <molecular_formula>  (1549) 
C28H32FN5O+2

$$$$
ATP-HTVS-F41515D25613
     RDKit          3D

 64 67  0  0  0  0  0  0  0  0999 V2000
  199.3194  180.6350  149.6622 Cl  0  0  0  0  0  0  0  0  0  0  0  0
  199.1083  179.0698  148.9533 C   0  0  0  0  0  0  0  0  0  0  0  0
  199.0868  177.8904  149.7415 C   0  0  0  0  0  0  0  0  0  0  0  0
  198.9083  176.6398  149.0892 C   0  0  0  0  0  0  0  0  0  0  0  0
  198.8764  175.4347  149.8037 N   0  0  0  0  0  0  0  0  0  0  0  0
  198.7570  176.5789  147.6907 C   0  0  0  0  0  0  0  0  0  0  0  0
  198.7761  177.7556  146.9235 C   0  0  0  0  0  0  0  0  0  0  0  0
  198.9538  178.9978  147.5558 C   0  0  0  0  0  0  0  0  0  0  0  0
  199.2300  177.9584  151.2652 C   0  0  1  0  0  0  0  0  0  0  0  0
  200.2933  177.1174  151.7928 N   0  0  0  0  0  0  0  0  0  0  0  0
  200.4283  176.9333  153.1801 C   0  0  0  0  0  0  0  0  0  0  0  0
  199.8374  177.8294  153.9927 N   0  0  0  0  0  0  0  0  0  0  0  0
  199.9163  177.6842  155.3182 C   0  0  0  0  0  0  0  0  0  0  0  0
  200.5807  176.6803  155.8915 N   0  0  0  0  0  0  0  0  0  0  0  0
  201.2181  175.7594  155.1259 C   0  0  0  0  0  0  0  0  0  0  0  0
  201.1561  175.8490  153.7094 C   0  0  0  0  0  0  0  0  0  0  0  0
  201.8098  174.8784  152.9193 C   0  0  0  0  0  0  0  0  0  0  0  0
  202.5244  173.8317  153.5356 C   0  0  0  0  0  0  0  0  0  0  0  0
  202.5919  173.7521  154.9414 C   0  0  0  0  0  0  0  0  0  0  0  0
  201.9431  174.7196  155.7342 C   0  0  0  0  0  0  0  0  0  0  0  0
  199.3172  178.6258  156.1257 N   0  0  0  0  0  0  0  0  0  0  0  0
  198.5771  179.7792  155.6364 C   0  0  1  0  0  0  0  0  0  0  0  0
  198.8400  181.0630  156.4012 C   0  0  0  0  0  0  0  0  0  0  0  0
  197.7548  181.9629  156.5802 C   0  0  0  0  0  0  0  0  0  0  0  0
  197.9329  183.1223  157.3463 C   0  0  0  0  0  0  0  0  0  0  0  0
  199.2227  183.4409  157.8532 C   0  0  0  0  0  0  0  0  0  0  0  0
  200.3134  182.5756  157.6326 C   0  0  0  0  0  0  0  0  0  0  0  0
  200.1197  181.3776  156.9148 C   0  0  0  0  0  0  0  0  0  0  0  0
  196.7519  184.0516  157.5825 C   0  0  1  0  0  0  0  0  0  0  0  0
  195.7124  183.5247  158.5289 N   0  0  2  0  0  0  0  0  0  0  0  0
  195.9261  183.8767  159.9548 C   0  0  1  0  0  0  0  0  0  0  0  0
  195.9241  185.3894  160.2496 C   0  0  2  0  0  0  0  0  0  0  0  0
  195.3886  182.0767  158.3833 C   0  0  2  0  0  0  0  0  0  0  0  0
  198.9940  174.5583  149.3267 H   0  0  0  0  0  0  0  0  0  0  0  0
  199.1299  175.4300  150.7812 H   0  0  0  0  0  0  0  0  0  0  0  0
  198.6217  175.6273  147.1982 H   0  0  0  0  0  0  0  0  0  0  0  0
  198.6624  177.7037  145.8497 H   0  0  0  0  0  0  0  0  0  0  0  0
  198.9743  179.9001  146.9663 H   0  0  0  0  0  0  0  0  0  0  0  0
  199.4171  178.9777  151.6069 H   0  0  0  0  0  0  0  0  0  0  0  0
  198.2731  177.6555  151.6971 H   0  0  0  0  0  0  0  0  0  0  0  0
  200.7033  176.4439  151.1706 H   0  0  0  0  0  0  0  0  0  0  0  0
  201.7801  174.9183  151.8398 H   0  0  0  0  0  0  0  0  0  0  0  0
  203.0269  173.0843  152.9386 H   0  0  0  0  0  0  0  0  0  0  0  0
  203.1412  172.9424  155.4044 H   0  0  0  0  0  0  0  0  0  0  0  0
  202.0063  174.6573  156.8102 H   0  0  0  0  0  0  0  0  0  0  0  0
  199.2394  178.4121  157.1125 H   0  0  0  0  0  0  0  0  0  0  0  0
  198.7897  179.9862  154.5829 H   0  0  0  0  0  0  0  0  0  0  0  0
  197.5159  179.5247  155.6900 H   0  0  0  0  0  0  0  0  0  0  0  0
  196.8079  181.7497  156.1010 H   0  0  0  0  0  0  0  0  0  0  0  0
  199.3788  184.3496  158.4314 H   0  0  0  0  0  0  0  0  0  0  0  0
  201.2919  182.8155  158.0332 H   0  0  0  0  0  0  0  0  0  0  0  0
  200.9563  180.6922  156.7815 H   0  0  0  0  0  0  0  0  0  0  0  0
  197.1405  185.0208  157.9066 H   0  0  0  0  0  0  0  0  0  0  0  0
  196.2910  184.2447  156.6091 H   0  0  0  0  0  0  0  0  0  0  0  0
  195.1042  183.4405  160.5229 H   0  0  0  0  0  0  0  0  0  0  0  0
  196.8388  183.4083  160.3205 H   0  0  0  0  0  0  0  0  0  0  0  0
  195.8988  185.5670  161.3267 H   0  0  0  0  0  0  0  0  0  0  0  0
  195.0503  185.8831  159.8238 H   0  0  0  0  0  0  0  0  0  0  0  0
  196.8181  185.8862  159.8748 H   0  0  0  0  0  0  0  0  0  0  0  0
  196.2615  181.4610  158.5827 H   0  0  0  0  0  0  0  0  0  0  0  0
  195.0520  181.8573  157.3711 H   0  0  0  0  0  0  0  0  0  0  0  0
  194.5829  181.7623  159.0723 H   0  0  0  0  0  0  0  0  0  0  0  0
  200.6421  176.5983  156.9052 H   0  0  0  0  0  0  0  0  0  0  0  0
  194.8669  184.0068  158.2594 H   0  0  0  0  0  0  0  0  0  0  0  0
  1  2  1  0
  2  3  2  0
  2  8  1  0
  3  4  1  0
  3  9  1  0
  4  5  1  0
  4  6  2  0
  5 34  1  0
  5 35  1  0
  6  7  1  0
  6 36  1  0
  7  8  2  0
  7 37  1  0
  8 38  1  0
  9 10  1  0
  9 39  1  6
  9 40  1  0
 10 11  1  0
 10 41  1  0
 11 12  2  0
 11 16  1  0
 12 13  1  0
 13 14  2  0
 13 21  1  0
 14 15  1  0
 14 63  1  0
 15 16  1  0
 15 20  2  0
 16 17  2  0
 17 18  1  0
 17 42  1  0
 18 19  2  0
 18 43  1  0
 19 20  1  0
 19 44  1  0
 20 45  1  0
 21 22  1  0
 21 46  1  0
 22 23  1  0
 22 47  1  6
 22 48  1  0
 23 24  2  0
 23 28  1  0
 24 25  1  0
 24 49  1  0
 25 26  2  0
 25 29  1  0
 26 27  1  0
 26 50  1  0
 27 28  2  0
 27 51  1  0
 28 52  1  0
 29 30  1  0
 29 53  1  1
 29 54  1  0
 30 31  1  0
 30 33  1  0
 30 64  1  6
 31 32  1  0
 31 55  1  1
 31 56  1  0
 32 57  1  1
 32 58  1  0
 32 59  1  0
 33 60  1  1
 33 61  1  0
 33 62  1  0
M  CHG  2  14   1  30   1
M  END
>  <s_epik_cmdline>  (1550) 
J2VwaWtfcHl0aG9uJywgJy1waCcsICc3LjAwMDAwMCcsICctcGh0JywgJzIuMDAwMDAwJywgJy1tcycsICcxNicsICctdG4nLCAnOCcsICctbWEnLCAnMjAwJywgJy1pbWFlJywgJzxpbmZpbGUubWFlPicsICctb21hZScsICc8b3V0ZmlsZS5tYWU+Jw==

>  <s_epik_input>  (1550) 
W2NIXTFbY0hdW2NIXWMoW05IMl0pYyhjMUNsKVtDSDJdW05IXWMoYyhjMjMpW2NIXVtjSF1bY0hdW2NIXTMpbmMobjIpW05IXVtDSDJdYzRbY0hdYyhbY0hdW2NIXVtjSF00KVtDSDJdTihbQ0gzXSlbQ0gyXVtDSDNd

>  <s_i_glide_gridfile>  (1550) 
ATP-Grid

>  <s_lp_Force_Field>  (1550) 
OPLS_2005

>  <s_lp_Variant>  (1550) 
m_282030aaa____21930070____22360182____21936776-2

>  <s_lp_label>  (1550) 
1662_sdstereoexpander_1_neutralizer_1_epik_1_stereoizer_2

>  <s_m_source_file>  (1550) 
ATP-VSW-LIGPREP-003-in.maegz

>  <s_sd_BIOSOLVEIT.INFINISEE\_QUERY\_NAME>  (1550) 
Ref-Lig

>  <s_sd_BIOSOLVEIT.INFINISEE\_QUERY\_SMILES>  (1550) 
S(c1nc2c(cc1C[NH2+]Cc3ccc(cc3)C[NH+](C)C)cccc2)Cc4ccccc4

>  <s_sd_BIOSOLVEIT.INFINISEE\_REACTION\_NAME>  (1550) 
m_282030aaa

>  <s_sd_BIOSOLVEIT.INFINISEE\_REAGENT1\_SMILES>  (1550) 
[R1*]NCc1cc(ccc1)CN(CC)C

>  <s_sd_BIOSOLVEIT.INFINISEE\_REAGENT2\_SMILES>  (1550) 
[R2*]c1nc([R1*])c2c(n1)cccc2

>  <s_sd_BIOSOLVEIT.INFINISEE\_REAGENT3\_SMILES>  (1550) 
[R2*]NCc1c(Cl)cccc1N

>  <s_sd_BIOSOLVEIT.INFINISEE\_SPACE>  (1550) 
REALSpace_44bn_2023-08

>  <s_vsw_compound_code>  (1550) 
53155

>  <s_vsw_variant>  (1550) 
53155-2

>  <r_epik_Charging_Adjusted_Penalty>  (1550) 
0.089070388984551704

>  <r_epik_Ionization_Penalty>  (1550) 
0.0453

>  <r_epik_Ionization_Penalty_Charging>  (1550) 
0.044900000000000002

>  <r_epik_Ionization_Penalty_Neutral>  (1550) 
0.00029999999999999997

>  <r_epik_State_Penalty>  (1550) 
0.044200000000000003

>  <r_i_docking_score>  (1550) 
-4.2804057558028497

>  <r_i_glide_ecoul>  (1550) 
-7.1557502746581996

>  <r_i_glide_eff_state_penalty>  (1550) 
0.044200000000000003

>  <r_i_glide_einternal>  (1550) 
5.0795388221740696

>  <r_i_glide_emodel>  (1550) 
-57.215054776004798

>  <r_i_glide_energy>  (1550) 
-39.669986724853501

>  <r_i_glide_erotb>  (1550) 
0.75186040798557097

>  <r_i_glide_esite>  (1550) 
-0.12501923887852301

>  <r_i_glide_evdw>  (1550) 
-32.514236450195298

>  <r_i_glide_gscore>  (1550) 
-4.3246057558028497

>  <r_i_glide_hbond>  (1550) 
-0.344695387047733

>  <r_i_glide_ligand_efficiency>  (1550) 
-0.12970926532735899

>  <r_i_glide_ligand_efficiency_ln>  (1550) 
-0.95194007733567498

>  <r_i_glide_ligand_efficiency_sa>  (1550) 
-0.41604692097113799

>  <r_i_glide_lipo>  (1550) 
-1.4305219923354899

>  <r_i_glide_metal>  (1550) 
-0

>  <r_i_glide_rewards>  (1550) 
-0.47715518181818101

>  <r_lp_Energy>  (1550) 
21.380654

>  <r_qp_ACxDN^.5/SA>  (1550) 
0.016317000000000002

>  <r_qp_CIQPlogS>  (1550) 
-6.2270000000000003

>  <r_qp_EA(eV)>  (1550) 
0.55800000000000005

>  <r_qp_FISA>  (1550) 
73.671000000000006

>  <r_qp_FOSA>  (1550) 
183.059

>  <r_qp_IP(eV)>  (1550) 
7.9790000000000001

>  <r_qp_Jm>  (1550) 
0.22356059106783399

>  <r_qp_PISA>  (1550) 
385.053

>  <r_qp_PSA>  (1550) 
68.418999999999997

>  <r_qp_PercentHumanOralAbsorption>  (1550) 
100

>  <r_qp_QPPCaco>  (1550) 
494.517

>  <r_qp_QPPMDCK>  (1550) 
457.58499999999998

>  <r_qp_QPlogBB>  (1550) 
-0.182

>  <r_qp_QPlogHERG>  (1550) 
-6.2539999999999996

>  <r_qp_QPlogKhsa>  (1550) 
0.622

>  <r_qp_QPlogKp>  (1550) 
-2.6230000000000002

>  <r_qp_QPlogPC16>  (1550) 
15.212999999999999

>  <r_qp_QPlogPo/w>  (1550) 
4.5650000000000004

>  <r_qp_QPlogPoct>  (1550) 
24.030999999999999

>  <r_qp_QPlogPw>  (1550) 
13.340999999999999

>  <r_qp_QPlogS>  (1550) 
-3.6909999999999998

>  <r_qp_QPpolrz>  (1550) 
45.869

>  <r_qp_SASA>  (1550) 
687.93100000000004

>  <r_qp_SAamideO>  (1550) 
0

>  <r_qp_SAfluorine>  (1550) 
0

>  <r_qp_WPSA>  (1550) 
46.146999999999998

>  <r_qp_accptHB>  (1550) 
6

>  <r_qp_dip^2/V>  (1550) 
0.017062000000000001

>  <r_qp_dipole>  (1550) 
4.8319999999999999

>  <r_qp_donorHB>  (1550) 
3.5

>  <r_qp_glob>  (1550) 
0.86652149999999994

>  <r_qp_mol_MW>  (1550) 
461.00799999999998

>  <r_qp_volume>  (1550) 
1368.48

>  <r_sd_BIOSOLVEIT.INFINISEE\_FTREES\_SIMILARITY>  (1550) 
0.90500000000000003

>  <r_sd_BIOSOLVEIT.LOGP>  (1550) 
4.1242000000000001

>  <r_sd_BIOSOLVEIT.MOLECULAR\_WEIGHT>  (1550) 
462.01799999999997

>  <r_sd_BIOSOLVEIT.TPSA>  (1550) 
80.299999999999997

>  <i_epik_Tot_Q>  (1550) 
2

>  <i_epik_Tot_abs_Q>  (1550) 
2

>  <i_f3d_flags>  (1550) 
0

>  <i_i_glide_confnum>  (1550) 
4

>  <i_i_glide_lignum>  (1550) 
629

>  <i_i_glide_posenum>  (1550) 
3

>  <i_i_glide_rotatable_bonds>  (1550) 
9

>  <i_lp_mmshare_version>  (1550) 
65135

>  <i_m_ct_format>  (1550) 
2

>  <i_m_source_file_index>  (1550) 
1662

>  <i_qp_#NandO>  (1550) 
6

>  <i_qp_#acid>  (1550) 
0

>  <i_qp_#amide>  (1550) 
0

>  <i_qp_#amidine>  (1550) 
0

>  <i_qp_#amine>  (1550) 
1

>  <i_qp_#in34>  (1550) 
0

>  <i_qp_#in56>  (1550) 
22

>  <i_qp_#metab>  (1550) 
7

>  <i_qp_#nonHatm>  (1550) 
33

>  <i_qp_#noncon>  (1550) 
0

>  <i_qp_#ringatoms>  (1550) 
22

>  <i_qp_#rotor>  (1550) 
10

>  <i_qp_#rtvFG>  (1550) 
0

>  <i_qp_#stars>  (1550) 
0

>  <i_qp_CNS>  (1550) 
0

>  <i_qp_HumanOralAbsorption>  (1550) 
3

>  <i_qp_RuleOfFive>  (1550) 
0

>  <i_qp_RuleOfThree>  (1550) 
1

>  <i_sd_BIOSOLVEIT.INFINISEE\_REAGENT1\_NAME>  (1550) 
21930070

>  <i_sd_BIOSOLVEIT.INFINISEE\_REAGENT2\_NAME>  (1550) 
22360182

>  <i_sd_BIOSOLVEIT.INFINISEE\_REAGENT3\_NAME>  (1550) 
21936776

>  <i_sd_BIOSOLVEIT.INFINISEE\_RESULT\_RANK>  (1550) 
69549

>  <i_sd_version>  (1550) 
0

>  <b_lp_Chiralities_Consistent>  (1550) 
1

>  <b_sd_chiral_flag>  (1550) 
0

>  <canonical_id>  (1550) 
ATP-HTVS-F41515D25613

>  <compound_code>  (1550) 
53155

>  <title>  (1550) 
m_282030aaa____21930070____22360182____21936776

>  <variant>  (1550) 
53155-2

>  <source_file>  (1550) 
运行/运行/ATP-VSW/ATP-VSW-DOCK_HTVS_1-003_lib/ATP-VSW-DOCK_HTVS_1-003_lib.mae

>  <canonical_smiles>  (1550) 
CC[N@H+](C)Cc1cccc(CNc2nc(NCc3c(N)cccc3Cl)c3ccccc3[nH+]2)c1

>  <scaffold>  (1550) 
c1ccc(CNc2nc(NCc3ccccc3)c3ccccc3[nH+]2)cc1

>  <molecular_formula>  (1550) 
C26H31ClN6+2

$$$$
ATP-HTVS-F41DED161E75
     RDKit          3D

 58 61  0  0  0  0  0  0  0  0999 V2000
  198.3430  181.7542  154.4778 O   0  0  0  0  0  0  0  0  0  0  0  0
  197.9727  180.9561  155.3380 C   0  0  0  0  0  0  0  0  0  0  0  0
  197.8719  181.2499  156.6466 N   0  0  0  0  0  0  0  0  0  0  0  0
  198.0901  182.5268  157.2513 C   0  0  0  0  0  0  0  0  0  0  0  0
  199.2952  183.2661  157.0770 C   0  0  0  0  0  0  0  0  0  0  0  0
  200.4041  182.7501  156.3823 N   0  0  0  0  0  0  0  0  0  0  0  0
  201.2047  181.7528  157.0985 C   0  0  1  0  0  0  0  0  0  0  0  0
  202.0610  180.9891  156.1781 C   0  0  0  0  0  0  0  0  0  0  0  0
  202.7296  180.3849  155.4521 N   0  0  0  0  0  0  0  0  0  0  0  0
  202.0098  182.2921  158.2816 C   0  0  0  0  0  0  0  0  0  0  0  0
  202.3671  181.4417  159.3496 C   0  0  0  0  0  0  0  0  0  0  0  0
  203.1070  181.9302  160.4498 C   0  0  0  0  0  0  0  0  0  0  0  0
  203.4985  183.2844  160.4862 C   0  0  0  0  0  0  0  0  0  0  0  0
  203.1557  184.1393  159.4235 C   0  0  0  0  0  0  0  0  0  0  0  0
  202.4358  183.6430  158.3174 C   0  0  0  0  0  0  0  0  0  0  0  0
  200.9993  183.5905  155.3483 C   0  0  2  0  0  0  0  0  0  0  0  0
  199.3683  184.5388  157.6928 C   0  0  0  0  0  0  0  0  0  0  0  0
  198.4062  185.0608  158.4683 N   0  0  0  0  0  0  0  0  0  0  0  0
  197.2812  184.3572  158.6771 C   0  0  0  0  0  0  0  0  0  0  0  0
  197.0738  183.0761  158.0825 C   0  0  0  0  0  0  0  0  0  0  0  0
  195.8540  182.4019  158.3221 C   0  0  0  0  0  0  0  0  0  0  0  0
  194.8636  182.9795  159.1371 C   0  0  0  0  0  0  0  0  0  0  0  0
  195.0741  184.2376  159.7280 C   0  0  0  0  0  0  0  0  0  0  0  0
  196.2816  184.9160  159.4963 C   0  0  0  0  0  0  0  0  0  0  0  0
  197.5639  179.5312  154.9508 C   0  0  1  0  0  0  0  0  0  0  0  0
  198.3274  179.0422  153.7903 N   0  0  0  0  0  0  0  0  0  0  0  0
  197.8714  179.1890  152.4521 C   0  0  0  0  0  0  0  0  0  0  0  0
  196.5918  179.7361  152.1557 C   0  0  0  0  0  0  0  0  0  0  0  0
  196.1350  179.8459  150.8291 C   0  0  0  0  0  0  0  0  0  0  0  0
  196.9445  179.4339  149.7545 C   0  0  0  0  0  0  0  0  0  0  0  0
  198.2182  178.8967  150.0216 C   0  0  0  0  0  0  0  0  0  0  0  0
  198.6716  178.7767  151.3523 C   0  0  0  0  0  0  0  0  0  0  0  0
  199.5916  178.3443  154.0501 C   0  0  2  0  0  0  0  0  0  0  0  0
  197.3900  180.5566  157.2024 H   0  0  0  0  0  0  0  0  0  0  0  0
  200.5117  181.0098  157.4925 H   0  0  0  0  0  0  0  0  0  0  0  0
  202.0807  180.3984  159.3268 H   0  0  0  0  0  0  0  0  0  0  0  0
  203.3689  181.2585  161.2618 H   0  0  0  0  0  0  0  0  0  0  0  0
  204.0688  183.6639  161.3233 H   0  0  0  0  0  0  0  0  0  0  0  0
  203.4500  185.1767  159.4381 H   0  0  0  0  0  0  0  0  0  0  0  0
  202.2202  184.3288  157.4854 H   0  0  0  0  0  0  0  0  0  0  0  0
  200.2621  184.2693  154.9228 H   0  0  0  0  0  0  0  0  0  0  0  0
  201.3621  182.9835  154.5174 H   0  0  0  0  0  0  0  0  0  0  0  0
  201.8275  184.1765  155.7617 H   0  0  0  0  0  0  0  0  0  0  0  0
  200.2363  185.1665  157.5844 H   0  0  0  0  0  0  0  0  0  0  0  0
  195.6455  181.4376  157.8843 H   0  0  0  0  0  0  0  0  0  0  0  0
  193.9440  182.4446  159.3045 H   0  0  0  0  0  0  0  0  0  0  0  0
  194.3125  184.6825  160.3489 H   0  0  0  0  0  0  0  0  0  0  0  0
  196.4492  185.8879  159.9417 H   0  0  0  0  0  0  0  0  0  0  0  0
  197.7363  178.8583  155.7978 H   0  0  0  0  0  0  0  0  0  0  0  0
  196.4754  179.5314  154.7959 H   0  0  0  0  0  0  0  0  0  0  0  0
  195.9307  180.0798  152.9369 H   0  0  0  0  0  0  0  0  0  0  0  0
  195.1525  180.2530  150.6413 H   0  0  0  0  0  0  0  0  0  0  0  0
  196.5934  179.5300  148.7362 H   0  0  0  0  0  0  0  0  0  0  0  0
  198.8478  178.5742  149.2031 H   0  0  0  0  0  0  0  0  0  0  0  0
  199.6602  178.3605  151.4965 H   0  0  0  0  0  0  0  0  0  0  0  0
  200.4441  178.9420  153.7304 H   0  0  0  0  0  0  0  0  0  0  0  0
  199.6360  177.3793  153.5450 H   0  0  0  0  0  0  0  0  0  0  0  0
  199.7317  178.1371  155.1117 H   0  0  0  0  0  0  0  0  0  0  0  0
  1  2  2  0
  2  3  1  0
  2 25  1  0
  3  4  1  0
  3 34  1  0
  4  5  2  0
  4 20  1  0
  5  6  1  0
  5 17  1  0
  6  7  1  0
  6 16  1  0
  7  8  1  0
  7 10  1  0
  7 35  1  1
  8  9  3  0
 10 11  2  0
 10 15  1  0
 11 12  1  0
 11 36  1  0
 12 13  2  0
 12 37  1  0
 13 14  1  0
 13 38  1  0
 14 15  2  0
 14 39  1  0
 15 40  1  0
 16 41  1  6
 16 42  1  0
 16 43  1  0
 17 18  2  0
 17 44  1  0
 18 19  1  0
 19 20  1  0
 19 24  2  0
 20 21  2  0
 21 22  1  0
 21 45  1  0
 22 23  2  0
 22 46  1  0
 23 24  1  0
 23 47  1  0
 24 48  1  0
 25 26  1  0
 25 49  1  1
 25 50  1  0
 26 27  1  0
 26 33  1  0
 27 28  2  0
 27 32  1  0
 28 29  1  0
 28 51  1  0
 29 30  2  0
 29 52  1  0
 30 31  1  0
 30 53  1  0
 31 32  2  0
 31 54  1  0
 32 55  1  0
 33 56  1  6
 33 57  1  0
 33 58  1  0
M  END
>  <s_epik_cmdline>  (1551) 
J2VwaWtfcHl0aG9uJywgJy1waCcsICc3LjAwMDAwMCcsICctcGh0JywgJzIuMDAwMDAwJywgJy1tcycsICcxNicsICctdG4nLCAnOCcsICctbWEnLCAnMjAwJywgJy1pbWFlJywgJzxpbmZpbGUubWFlPicsICctb21hZScsICc8b3V0ZmlsZS5tYWU+Jw==

>  <s_epik_input>  (1551) 
W2NIXTFbY0hdW2NIXVtjSF1bY0hdYzFOKFtDSDNdKVtDSDJdQyg9TylbTkhdYyhjKGMyMylbY0hdW2NIXVtjSF1bY0hdMyljKFtjSF1uMilOKFtDSDNdKVtDQEBIXShDI04pYzRbY0hdW2NIXVtjSF1bY0hdW2NIXTQ=

>  <s_i_glide_gridfile>  (1551) 
ATP-Grid

>  <s_lp_Force_Field>  (1551) 
OPLS_2005

>  <s_lp_Variant>  (1551) 
rxn502b____EMOL31412043____EMOL13728749____EMOL24630243-1

>  <s_lp_label>  (1551) 
2394_sdstereoexpander_1_neutralizer_1_epik_1_stereoizer_1

>  <s_m_source_file>  (1551) 
ATP-VSW-LIGPREP-002-in.maegz

>  <s_sd_BIOSOLVEIT.INFINISEE\_QUERY\_NAME>  (1551) 
Ref-Lig

>  <s_sd_BIOSOLVEIT.INFINISEE\_QUERY\_SMILES>  (1551) 
S(c1nc2c(cc1C[NH2+]Cc3ccc(cc3)C[NH+](C)C)cccc2)Cc4ccccc4

>  <s_sd_BIOSOLVEIT.INFINISEE\_REACTION\_NAME>  (1551) 
rxn502b

>  <s_sd_BIOSOLVEIT.INFINISEE\_REAGENT1\_NAME>  (1551) 
EMOL31412043

>  <s_sd_BIOSOLVEIT.INFINISEE\_REAGENT1\_SMILES>  (1551) 
O=C(O)CN(c1ccccc1)C

>  <s_sd_BIOSOLVEIT.INFINISEE\_REAGENT2\_NAME>  (1551) 
EMOL13728749

>  <s_sd_BIOSOLVEIT.INFINISEE\_REAGENT2\_SMILES>  (1551) 
Brc1c(N)c2c(nc1)cccc2

>  <s_sd_BIOSOLVEIT.INFINISEE\_REAGENT3\_NAME>  (1551) 
EMOL24630243

>  <s_sd_BIOSOLVEIT.INFINISEE\_REAGENT3\_SMILES>  (1551) 
N#CC(NC)c1ccccc1

>  <s_sd_BIOSOLVEIT.INFINISEE\_SPACE>  (1551) 
eXplore_7tr_2022-12

>  <s_vsw_compound_code>  (1551) 
76578

>  <s_vsw_variant>  (1551) 
76578-1

>  <r_epik_Charging_Adjusted_Penalty>  (1551) 
0.033522619847081103

>  <r_epik_Ionization_Penalty>  (1551) 
0.0339

>  <r_epik_Ionization_Penalty_Charging>  (1551) 
0

>  <r_epik_Ionization_Penalty_Neutral>  (1551) 
0.0339

>  <r_epik_State_Penalty>  (1551) 
0.033500000000000002

>  <r_i_docking_score>  (1551) 
-3.7305205679543998

>  <r_i_glide_ecoul>  (1551) 
-3.6439881324768102

>  <r_i_glide_eff_state_penalty>  (1551) 
0.033500000000000002

>  <r_i_glide_einternal>  (1551) 
3.2040705680847199

>  <r_i_glide_emodel>  (1551) 
-46.7217118998459

>  <r_i_glide_energy>  (1551) 
-37.923727512359598

>  <r_i_glide_erotb>  (1551) 
0.73532576492769597

>  <r_i_glide_esite>  (1551) 
-0.11047946795793

>  <r_i_glide_evdw>  (1551) 
-34.279739379882798

>  <r_i_glide_gscore>  (1551) 
-3.7640205679543999

>  <r_i_glide_hbond>  (1551) 
-0.0439910708953484

>  <r_i_glide_ligand_efficiency>  (1551) 
-0.1130460778168

>  <r_i_glide_ligand_efficiency_ln>  (1551) 
-0.82964845871130699

>  <r_i_glide_ligand_efficiency_sa>  (1551) 
-0.36259917504615602

>  <r_i_glide_lipo>  (1551) 
-1.6446562869813399

>  <r_i_glide_metal>  (1551) 
-0

>  <r_i_glide_rewards>  (1551) 
-0.43963431818181697

>  <r_lp_Energy>  (1551) 
39.169483

>  <r_qp_ACxDN^.5/SA>  (1551) 
0.0098099999999999993

>  <r_qp_CIQPlogS>  (1551) 
-7.5819999999999999

>  <r_qp_EA(eV)>  (1551) 
1.23

>  <r_qp_FISA>  (1551) 
79.658000000000001

>  <r_qp_FOSA>  (1551) 
154.25700000000001

>  <r_qp_IP(eV)>  (1551) 
8.0250000000000004

>  <r_qp_Jm>  (1551) 
0.057365637312217603

>  <r_qp_PISA>  (1551) 
479.63900000000001

>  <r_qp_PSA>  (1551) 
70.268000000000001

>  <r_qp_PercentHumanOralAbsorption>  (1551) 
100

>  <r_qp_QPPCaco>  (1551) 
1739.818

>  <r_qp_QPPMDCK>  (1551) 
900.13199999999995

>  <r_qp_QPlogBB>  (1551) 
-0.68799999999999994

>  <r_qp_QPlogHERG>  (1551) 
-6.5570000000000004

>  <r_qp_QPlogKhsa>  (1551) 
0.58699999999999997

>  <r_qp_QPlogKp>  (1551) 
-0.53000000000000003

>  <r_qp_QPlogPC16>  (1551) 
14.962999999999999

>  <r_qp_QPlogPo/w>  (1551) 
4.8869999999999996

>  <r_qp_QPlogPoct>  (1551) 
21.946000000000002

>  <r_qp_QPlogPw>  (1551) 
11.836

>  <r_qp_QPlogS>  (1551) 
-6.3499999999999996

>  <r_qp_QPpolrz>  (1551) 
47.607999999999997

>  <r_qp_SASA>  (1551) 
713.55499999999995

>  <r_qp_SAamideO>  (1551) 
0

>  <r_qp_SAfluorine>  (1551) 
0

>  <r_qp_WPSA>  (1551) 
0

>  <r_qp_accptHB>  (1551) 
7

>  <r_qp_dip^2/V>  (1551) 
0.055829799999999999

>  <r_qp_dipole>  (1551) 
8.7050000000000001

>  <r_qp_donorHB>  (1551) 
1

>  <r_qp_glob>  (1551) 
0.83084190000000002

>  <r_qp_mol_MW>  (1551) 
435.52699999999999

>  <r_qp_volume>  (1551) 
1357.2850000000001

>  <r_sd_BIOSOLVEIT.INFINISEE\_FTREES\_SIMILARITY>  (1551) 
0.91800000000000004

>  <r_sd_BIOSOLVEIT.LOGP>  (1551) 
5.0107799999999996

>  <r_sd_BIOSOLVEIT.MOLECULAR\_WEIGHT>  (1551) 
435.529

>  <r_sd_BIOSOLVEIT.TPSA>  (1551) 
72.260000000000005

>  <i_epik_Tot_Q>  (1551) 
0

>  <i_epik_Tot_abs_Q>  (1551) 
0

>  <i_f3d_flags>  (1551) 
0

>  <i_i_glide_confnum>  (1551) 
7

>  <i_i_glide_lignum>  (1551) 
997

>  <i_i_glide_posenum>  (1551) 
15

>  <i_i_glide_rotatable_bonds>  (1551) 
8

>  <i_lp_mmshare_version>  (1551) 
65135

>  <i_m_ct_format>  (1551) 
2

>  <i_m_source_file_index>  (1551) 
2394

>  <i_qp_#NandO>  (1551) 
6

>  <i_qp_#acid>  (1551) 
0

>  <i_qp_#amide>  (1551) 
0

>  <i_qp_#amidine>  (1551) 
0

>  <i_qp_#amine>  (1551) 
0

>  <i_qp_#in34>  (1551) 
0

>  <i_qp_#in56>  (1551) 
22

>  <i_qp_#metab>  (1551) 
7

>  <i_qp_#nonHatm>  (1551) 
33

>  <i_qp_#noncon>  (1551) 
0

>  <i_qp_#ringatoms>  (1551) 
22

>  <i_qp_#rotor>  (1551) 
8

>  <i_qp_#rtvFG>  (1551) 
0

>  <i_qp_#stars>  (1551) 
1

>  <i_qp_CNS>  (1551) 
0

>  <i_qp_HumanOralAbsorption>  (1551) 
1

>  <i_qp_RuleOfFive>  (1551) 
0

>  <i_qp_RuleOfThree>  (1551) 
2

>  <i_sd_BIOSOLVEIT.INFINISEE\_RESULT\_RANK>  (1551) 
19826

>  <i_sd_version>  (1551) 
0

>  <b_lp_Chiralities_Consistent>  (1551) 
1

>  <b_sd_chiral_flag>  (1551) 
0

>  <canonical_id>  (1551) 
ATP-HTVS-F41DED161E75

>  <compound_code>  (1551) 
76578

>  <title>  (1551) 
rxn502b____EMOL31412043____EMOL13728749____EMOL24630243

>  <variant>  (1551) 
76578-1

>  <source_file>  (1551) 
运行/运行/ATP-VSW/ATP-VSW-DOCK_HTVS_1-002_lib.maegz

>  <canonical_smiles>  (1551) 
CN(CC(=O)Nc1c(N(C)[C@@H](C#N)c2ccccc2)cnc2ccccc12)c1ccccc1

>  <scaffold>  (1551) 
O=C(CNc1ccccc1)Nc1c(NCc2ccccc2)cnc2ccccc12

>  <molecular_formula>  (1551) 
C27H25N5O

$$$$
ATP-HTVS-F42EC288DBA1
     RDKit          3D

 47 50  0  0  0  0  0  0  0  0999 V2000
  195.5472  186.5585  160.5308 S   0  0  0  0  0  0  0  0  0  0  0  0
  195.4507  185.0337  159.7070 C   0  0  0  0  0  0  0  0  0  0  0  0
  196.5981  184.4759  159.1033 C   0  0  0  0  0  0  0  0  0  0  0  0
  196.5127  183.2457  158.4075 C   0  0  0  0  0  0  0  0  0  0  0  0
  195.2647  182.5761  158.3488 C   0  0  0  0  0  0  0  0  0  0  0  0
  194.1236  183.1492  158.9287 C   0  0  0  0  0  0  0  0  0  0  0  0
  194.2170  184.3652  159.6277 C   0  0  0  0  0  0  0  0  0  0  0  0
  197.7412  182.6542  157.7772 C   0  0  0  0  0  0  0  0  0  0  0  0
  198.8659  183.0390  158.1036 O   0  0  0  0  0  0  0  0  0  0  0  0
  197.4945  181.7538  156.8089 N   0  0  0  0  0  0  0  0  0  0  0  0
  198.4093  180.9190  156.1168 C   0  0  0  0  0  0  0  0  0  0  0  0
  199.5857  180.5479  156.6710 N   0  0  0  0  0  0  0  0  0  0  0  0
  200.3935  179.6997  156.0152 C   0  0  0  0  0  0  0  0  0  0  0  0
  200.1138  179.1794  154.7341 C   0  0  0  0  0  0  0  0  0  0  0  0
  201.0530  178.3341  154.0990 N   0  0  0  0  0  0  0  0  0  0  0  0
  201.6246  177.1712  154.6734 C   0  0  0  0  0  0  0  0  0  0  0  0
  202.7558  176.5197  154.1109 C   0  0  0  0  0  0  0  0  0  0  0  0
  203.2843  175.3495  154.6895 C   0  0  0  0  0  0  0  0  0  0  0  0
  202.7124  174.8119  155.8548 C   0  0  0  0  0  0  0  0  0  0  0  0
  201.5978  175.4466  156.4311 C   0  0  0  0  0  0  0  0  0  0  0  0
  201.0503  176.5985  155.8376 C   0  0  0  0  0  0  0  0  0  0  0  0
  201.7449  178.9911  152.9770 C   0  0  1  0  0  0  0  0  0  0  0  0
  202.8484  179.8521  153.4369 C   0  0  0  0  0  0  0  0  0  0  0  0
  203.7111  180.5346  153.7945 N   0  0  0  0  0  0  0  0  0  0  0  0
  198.8947  179.5767  154.1291 C   0  0  0  0  0  0  0  0  0  0  0  0
  198.0217  180.4558  154.8284 C   0  0  0  0  0  0  0  0  0  0  0  0
  196.8053  180.8575  154.2136 C   0  0  0  0  0  0  0  0  0  0  0  0
  196.4760  180.4076  152.9214 C   0  0  0  0  0  0  0  0  0  0  0  0
  197.3366  179.5369  152.2341 C   0  0  0  0  0  0  0  0  0  0  0  0
  198.5313  179.1149  152.8404 C   0  0  0  0  0  0  0  0  0  0  0  0
  197.5465  184.9946  159.1548 H   0  0  0  0  0  0  0  0  0  0  0  0
  195.1396  181.6238  157.8447 H   0  0  0  0  0  0  0  0  0  0  0  0
  193.1776  182.6375  158.8504 H   0  0  0  0  0  0  0  0  0  0  0  0
  193.3282  184.7843  160.0749 H   0  0  0  0  0  0  0  0  0  0  0  0
  196.5242  181.6238  156.5641 H   0  0  0  0  0  0  0  0  0  0  0  0
  201.2968  179.4302  156.5426 H   0  0  0  0  0  0  0  0  0  0  0  0
  203.2487  176.8853  153.2245 H   0  0  0  0  0  0  0  0  0  0  0  0
  204.1357  174.8644  154.2340 H   0  0  0  0  0  0  0  0  0  0  0  0
  203.1258  173.9232  156.3115 H   0  0  0  0  0  0  0  0  0  0  0  0
  201.1555  175.0552  157.3323 H   0  0  0  0  0  0  0  0  0  0  0  0
  200.1777  177.0290  156.3102 H   0  0  0  0  0  0  0  0  0  0  0  0
  202.1061  178.2908  152.2257 H   0  0  0  0  0  0  0  0  0  0  0  0
  201.0796  179.6559  152.4283 H   0  0  0  0  0  0  0  0  0  0  0  0
  196.1115  181.5265  154.7027 H   0  0  0  0  0  0  0  0  0  0  0  0
  195.5581  180.7319  152.4539 H   0  0  0  0  0  0  0  0  0  0  0  0
  197.0813  179.1942  151.2419 H   0  0  0  0  0  0  0  0  0  0  0  0
  199.1728  178.4335  152.3036 H   0  0  0  0  0  0  0  0  0  0  0  0
  1  2  1  0
  2  3  2  0
  2  7  1  0
  3  4  1  0
  3 31  1  0
  4  5  2  0
  4  8  1  0
  5  6  1  0
  5 32  1  0
  6  7  2  0
  6 33  1  0
  7 34  1  0
  8  9  2  0
  8 10  1  0
 10 11  1  0
 10 35  1  0
 11 12  1  0
 11 26  2  0
 12 13  2  0
 13 14  1  0
 13 36  1  0
 14 15  1  0
 14 25  2  0
 15 16  1  0
 15 22  1  0
 16 17  2  0
 16 21  1  0
 17 18  1  0
 17 37  1  0
 18 19  2  0
 18 38  1  0
 19 20  1  0
 19 39  1  0
 20 21  2  0
 20 40  1  0
 21 41  1  0
 22 23  1  0
 22 42  1  6
 22 43  1  0
 23 24  3  0
 25 26  1  0
 25 30  1  0
 26 27  1  0
 27 28  2  0
 27 44  1  0
 28 29  1  0
 28 45  1  0
 29 30  2  0
 29 46  1  0
 30 47  1  0
M  CHG  1   1  -1
M  END
>  <s_epik_cmdline>  (1552) 
J2VwaWtfcHl0aG9uJywgJy1waCcsICc3LjAwMDAwMCcsICctcGh0JywgJzIuMDAwMDAwJywgJy1tcycsICcxNicsICctdG4nLCAnOCcsICctbWEnLCAnMjAwJywgJy1pbWFlJywgJzxpbmZpbGUubWFlPicsICctb21hZScsICc8b3V0ZmlsZS5tYWU+Jw==

>  <s_epik_input>  (1552) 
W1NIXWMxW2NIXWMoW2NIXVtjSF1bY0hdMSlDKD1PKVtOSF1jKGMoYzIzKVtjSF1bY0hdW2NIXVtjSF0zKW5bY0hdYzJOKFtDSDJdQyNOKWM0W2NIXVtjSF1bY0hdW2NIXVtjSF00

>  <s_i_glide_gridfile>  (1552) 
ATP-Grid

>  <s_lp_Force_Field>  (1552) 
OPLS_2005

>  <s_lp_Variant>  (1552) 
rxn502b____EMOL509335____EMOL7515103____EMOL712348-1

>  <s_lp_label>  (1552) 
2825_sdstereoexpander_1_neutralizer_1_epik_1_stereoizer_1

>  <s_m_source_file>  (1552) 
ATP-VSW-LIGPREP-001-in.maegz

>  <s_sd_BIOSOLVEIT.INFINISEE\_QUERY\_NAME>  (1552) 
Ref-Lig

>  <s_sd_BIOSOLVEIT.INFINISEE\_QUERY\_SMILES>  (1552) 
S(c1nc2c(cc1C[NH2+]Cc3ccc(cc3)C[NH+](C)C)cccc2)Cc4ccccc4

>  <s_sd_BIOSOLVEIT.INFINISEE\_REACTION\_NAME>  (1552) 
rxn502b

>  <s_sd_BIOSOLVEIT.INFINISEE\_REAGENT1\_NAME>  (1552) 
EMOL509335

>  <s_sd_BIOSOLVEIT.INFINISEE\_REAGENT1\_SMILES>  (1552) 
Sc1cc(ccc1)C(=O)O

>  <s_sd_BIOSOLVEIT.INFINISEE\_REAGENT2\_NAME>  (1552) 
EMOL7515103

>  <s_sd_BIOSOLVEIT.INFINISEE\_REAGENT2\_SMILES>  (1552) 
Brc1c2c(c(nc1)N)cccc2

>  <s_sd_BIOSOLVEIT.INFINISEE\_REAGENT3\_NAME>  (1552) 
EMOL712348

>  <s_sd_BIOSOLVEIT.INFINISEE\_REAGENT3\_SMILES>  (1552) 
N#CCNc1ccccc1

>  <s_sd_BIOSOLVEIT.INFINISEE\_SPACE>  (1552) 
eXplore_7tr_2022-12

>  <s_vsw_compound_code>  (1552) 
90369

>  <s_vsw_variant>  (1552) 
90369-1

>  <r_epik_Charging_Adjusted_Penalty>  (1552) 
0.027670172304233898

>  <r_epik_Ionization_Penalty>  (1552) 
0.013899999999999999

>  <r_epik_Ionization_Penalty_Charging>  (1552) 
0.0138

>  <r_epik_Ionization_Penalty_Neutral>  (1552) 
0

>  <r_epik_State_Penalty>  (1552) 
0.0138

>  <r_i_docking_score>  (1552) 
-3.7205398152995302

>  <r_i_glide_ecoul>  (1552) 
-1.41375696659088

>  <r_i_glide_eff_state_penalty>  (1552) 
0.0138

>  <r_i_glide_einternal>  (1552) 
2.3164117336273198

>  <r_i_glide_emodel>  (1552) 
-44.120033818682302

>  <r_i_glide_energy>  (1552) 
-35.886825203895597

>  <r_i_glide_erotb>  (1552) 
0.58717646515642996

>  <r_i_glide_esite>  (1552) 
-0.087050128100112298

>  <r_i_glide_evdw>  (1552) 
-34.473068237304702

>  <r_i_glide_gscore>  (1552) 
-3.73433981529953

>  <r_i_glide_hbond>  (1552) 
0

>  <r_i_glide_ligand_efficiency>  (1552) 
-0.12401799384331801

>  <r_i_glide_ligand_efficiency_ln>  (1552) 
-0.84534718456422198

>  <r_i_glide_ligand_efficiency_sa>  (1552) 
-0.38535274135625502

>  <r_i_glide_lipo>  (1552) 
-1.6815945136838

>  <r_i_glide_metal>  (1552) 
-0

>  <r_i_glide_rewards>  (1552) 
-0.61715468181818001

>  <r_lp_Energy>  (1552) 
34.216766

>  <r_qp_ACxDN^.5/SA>  (1552) 
0.0111612

>  <r_qp_CIQPlogS>  (1552) 
-7.4359999999999999

>  <r_qp_EA(eV)>  (1552) 
1.4099999999999999

>  <r_qp_FISA>  (1552) 
122.968

>  <r_qp_FOSA>  (1552) 
31.856000000000002

>  <r_qp_IP(eV)>  (1552) 
8.3970000000000002

>  <r_qp_Jm>  (1552) 
0.00077302621120565497

>  <r_qp_PISA>  (1552) 
488.95299999999997

>  <r_qp_PSA>  (1552) 
72.272999999999996

>  <r_qp_PercentHumanOralAbsorption>  (1552) 
100

>  <r_qp_QPPCaco>  (1552) 
675.75800000000004

>  <r_qp_QPPMDCK>  (1552) 
860.36699999999996

>  <r_qp_QPlogBB>  (1552) 
-0.98499999999999999

>  <r_qp_QPlogHERG>  (1552) 
-7.2770000000000001

>  <r_qp_QPlogKhsa>  (1552) 
0.57299999999999995

>  <r_qp_QPlogKp>  (1552) 
-1.391

>  <r_qp_QPlogPC16>  (1552) 
15.417999999999999

>  <r_qp_QPlogPo/w>  (1552) 
4.673

>  <r_qp_QPlogPoct>  (1552) 
22.766999999999999

>  <r_qp_QPlogPw>  (1552) 
12.646000000000001

>  <r_qp_QPlogS>  (1552) 
-7.3339999999999996

>  <r_qp_QPpolrz>  (1552) 
45.106000000000002

>  <r_qp_SASA>  (1552) 
721.23400000000004

>  <r_qp_SAamideO>  (1552) 
0

>  <r_qp_SAfluorine>  (1552) 
0

>  <r_qp_WPSA>  (1552) 
77.456999999999994

>  <r_qp_accptHB>  (1552) 
6

>  <r_qp_dip^2/V>  (1552) 
0.10240489999999999

>  <r_qp_dipole>  (1552) 
11.433

>  <r_qp_donorHB>  (1552) 
1.8

>  <r_qp_glob>  (1552) 
0.78904039999999998

>  <r_qp_mol_MW>  (1552) 
410.49200000000002

>  <r_qp_volume>  (1552) 
1276.4839999999999

>  <r_sd_BIOSOLVEIT.INFINISEE\_FTREES\_SIMILARITY>  (1552) 
0.90600000000000003

>  <r_sd_BIOSOLVEIT.LOGP>  (1552) 
5.8176800000000002

>  <r_sd_BIOSOLVEIT.MOLECULAR\_WEIGHT>  (1552) 
410.49799999999999

>  <r_sd_BIOSOLVEIT.TPSA>  (1552) 
69.019999999999996

>  <i_epik_Tot_Q>  (1552) 
-1

>  <i_epik_Tot_abs_Q>  (1552) 
1

>  <i_f3d_flags>  (1552) 
0

>  <i_i_glide_confnum>  (1552) 
2

>  <i_i_glide_lignum>  (1552) 
1296

>  <i_i_glide_posenum>  (1552) 
2

>  <i_i_glide_rotatable_bonds>  (1552) 
6

>  <i_lp_mmshare_version>  (1552) 
65135

>  <i_m_ct_format>  (1552) 
2

>  <i_m_source_file_index>  (1552) 
2825

>  <i_qp_#NandO>  (1552) 
5

>  <i_qp_#acid>  (1552) 
0

>  <i_qp_#amide>  (1552) 
0

>  <i_qp_#amidine>  (1552) 
0

>  <i_qp_#amine>  (1552) 
0

>  <i_qp_#in34>  (1552) 
0

>  <i_qp_#in56>  (1552) 
22

>  <i_qp_#metab>  (1552) 
5

>  <i_qp_#nonHatm>  (1552) 
30

>  <i_qp_#noncon>  (1552) 
0

>  <i_qp_#ringatoms>  (1552) 
22

>  <i_qp_#rotor>  (1552) 
7

>  <i_qp_#rtvFG>  (1552) 
1

>  <i_qp_#stars>  (1552) 
2

>  <i_qp_CNS>  (1552) 
-1

>  <i_qp_HumanOralAbsorption>  (1552) 
1

>  <i_qp_RuleOfFive>  (1552) 
0

>  <i_qp_RuleOfThree>  (1552) 
1

>  <i_sd_BIOSOLVEIT.INFINISEE\_RESULT\_RANK>  (1552) 
65936

>  <i_sd_version>  (1552) 
0

>  <b_lp_Chiralities_Consistent>  (1552) 
1

>  <b_sd_chiral_flag>  (1552) 
0

>  <canonical_id>  (1552) 
ATP-HTVS-F42EC288DBA1

>  <compound_code>  (1552) 
90369

>  <title>  (1552) 
rxn502b____EMOL509335____EMOL7515103____EMOL712348

>  <variant>  (1552) 
90369-1

>  <source_file>  (1552) 
运行/运行/ATP-VSW/ATP-VSW-DOCK_HTVS_1-001_lib/ATP-VSW-DOCK_HTVS_1-001_lib

>  <canonical_smiles>  (1552) 
N#CCN(c1ccccc1)c1cnc(NC(=O)c2cccc([S-])c2)c2ccccc12

>  <scaffold>  (1552) 
O=C(Nc1ncc(Nc2ccccc2)c2ccccc12)c1ccccc1

>  <molecular_formula>  (1552) 
C24H17N4OS-

$$$$
ATP-HTVS-F451F6F34F85
     RDKit          3D

 65 67  0  0  0  0  0  0  0  0999 V2000
  200.0139  182.8732  153.9390 S   0  0  0  0  0  0  0  0  0  0  0  0
  198.3781  182.4717  153.4237 C   0  0  0  0  0  0  0  0  0  0  0  0
  197.7209  181.6944  154.2869 N   0  0  0  0  0  0  0  0  0  0  0  0
  198.4724  181.4065  155.4307 C   0  0  0  0  0  0  0  0  0  0  0  0
  199.7345  181.9503  155.3980 C   0  0  0  0  0  0  0  0  0  0  0  0
  197.8501  180.5915  156.5320 C   0  0  1  0  0  0  0  0  0  0  0  0
  197.1444  181.4486  157.5151 N   0  0  1  0  0  0  0  0  0  0  0  0
  196.0658  182.3035  156.9543 C   0  0  1  0  0  0  0  0  0  0  0  0
  195.7082  183.4250  157.8928 C   0  0  0  0  0  0  0  0  0  0  0  0
  196.2764  184.7042  157.7185 C   0  0  0  0  0  0  0  0  0  0  0  0
  196.0795  185.7512  158.6470 C   0  0  0  0  0  0  0  0  0  0  0  0
  195.1247  185.5690  159.6493 C   0  0  0  0  0  0  0  0  0  0  0  0
  194.4717  184.3244  159.7704 C   0  0  0  0  0  0  0  0  0  0  0  0
  194.7583  183.2596  158.8944 C   0  0  0  0  0  0  0  0  0  0  0  0
  196.8454  187.0673  158.5218 C   0  0  1  0  0  0  0  0  0  0  0  0
  197.9991  187.1385  159.4633 N   0  0  1  0  0  0  0  0  0  0  0  0
  199.1370  186.2269  159.1091 C   0  0  1  0  0  0  0  0  0  0  0  0
  198.8181  184.7243  159.2408 C   0  0  2  0  0  0  0  0  0  0  0  0
  198.4787  188.5325  159.6653 C   0  0  1  0  0  0  0  0  0  0  0  0
  197.4367  189.4218  160.3614 C   0  0  2  0  0  0  0  0  0  0  0  0
  197.7976  182.8653  152.1848 N   0  0  0  0  0  0  0  0  0  0  0  0
  197.5518  181.7867  151.2816 C   0  0  0  0  0  0  0  0  0  0  0  0
  196.5457  180.8303  151.5508 C   0  0  0  0  0  0  0  0  0  0  0  0
  196.3193  179.7662  150.6570 C   0  0  0  0  0  0  0  0  0  0  0  0
  197.0947  179.6431  149.4872 C   0  0  0  0  0  0  0  0  0  0  0  0
  198.1046  180.5880  149.2189 C   0  0  0  0  0  0  0  0  0  0  0  0
  198.3361  181.6487  150.1124 C   0  0  0  0  0  0  0  0  0  0  0  0
  196.8429  178.4988  148.5273 C   0  0  2  0  0  0  0  0  0  0  0  0
  197.5658  184.1664  151.8789 C   0  0  0  0  0  0  0  0  0  0  0  0
  197.8133  185.0874  152.6577 O   0  0  0  0  0  0  0  0  0  0  0  0
  196.9408  184.5213  150.5225 C   0  0  2  0  0  0  0  0  0  0  0  0
  196.7249  180.8229  158.2019 H   0  0  0  0  0  0  0  0  0  0  0  0
  200.5171  181.8623  156.1393 H   0  0  0  0  0  0  0  0  0  0  0  0
  197.1435  179.8716  156.1189 H   0  0  0  0  0  0  0  0  0  0  0  0
  198.6133  180.0031  157.0467 H   0  0  0  0  0  0  0  0  0  0  0  0
  196.3776  182.7502  156.0149 H   0  0  0  0  0  0  0  0  0  0  0  0
  195.1878  181.6909  156.7450 H   0  0  0  0  0  0  0  0  0  0  0  0
  197.0460  184.8469  156.9288 H   0  0  0  0  0  0  0  0  0  0  0  0
  194.9151  186.3542  160.3474 H   0  0  0  0  0  0  0  0  0  0  0  0
  193.7219  184.1908  160.5319 H   0  0  0  0  0  0  0  0  0  0  0  0
  194.2699  182.3071  159.0050 H   0  0  0  0  0  0  0  0  0  0  0  0
  197.1829  187.2422  157.5006 H   0  0  0  0  0  0  0  0  0  0  0  0
  196.1104  187.8384  158.7431 H   0  0  0  0  0  0  0  0  0  0  0  0
  199.4753  186.4387  158.0868 H   0  0  0  0  0  0  0  0  0  0  0  0
  200.0001  186.4141  159.7787 H   0  0  0  0  0  0  0  0  0  0  0  0
  199.6213  184.0640  158.8964 H   0  0  0  0  0  0  0  0  0  0  0  0
  198.1995  184.4424  158.5504 H   0  0  0  0  0  0  0  0  0  0  0  0
  198.3622  184.4274  160.1996 H   0  0  0  0  0  0  0  0  0  0  0  0
  199.3780  188.5408  160.2865 H   0  0  0  0  0  0  0  0  0  0  0  0
  198.7795  188.9697  158.7118 H   0  0  0  0  0  0  0  0  0  0  0  0
  197.8324  190.4229  160.5363 H   0  0  0  0  0  0  0  0  0  0  0  0
  197.1507  189.0047  161.3275 H   0  0  0  0  0  0  0  0  0  0  0  0
  196.5325  189.5553  159.7713 H   0  0  0  0  0  0  0  0  0  0  0  0
  195.9435  180.9038  152.4455 H   0  0  0  0  0  0  0  0  0  0  0  0
  195.5485  179.0423  150.8743 H   0  0  0  0  0  0  0  0  0  0  0  0
  198.7014  180.5110  148.3221 H   0  0  0  0  0  0  0  0  0  0  0  0
  199.1059  182.3710  149.8841 H   0  0  0  0  0  0  0  0  0  0  0  0
  197.5266  178.5303  147.6785 H   0  0  0  0  0  0  0  0  0  0  0  0
  195.8245  178.5431  148.1409 H   0  0  0  0  0  0  0  0  0  0  0  0
  196.9823  177.5436  149.0337 H   0  0  0  0  0  0  0  0  0  0  0  0
  197.3402  183.9226  149.7082 H   0  0  0  0  0  0  0  0  0  0  0  0
  197.1464  185.5605  150.2673 H   0  0  0  0  0  0  0  0  0  0  0  0
  195.8613  184.3771  150.5553 H   0  0  0  0  0  0  0  0  0  0  0  0
  197.6708  186.8353  160.3735 H   0  0  0  0  0  0  0  0  0  0  0  0
  197.8266  182.0326  157.9715 H   0  0  0  0  0  0  0  0  0  0  0  0
  1  2  1  0
  1  5  1  0
  2  3  2  0
  2 21  1  0
  3  4  1  0
  4  5  2  0
  4  6  1  0
  5 33  1  0
  6  7  1  0
  6 34  1  6
  6 35  1  0
  7  8  1  0
  7 32  1  1
  7 65  1  0
  8  9  1  0
  8 36  1  6
  8 37  1  0
  9 10  2  0
  9 14  1  0
 10 11  1  0
 10 38  1  0
 11 12  2  0
 11 15  1  0
 12 13  1  0
 12 39  1  0
 13 14  2  0
 13 40  1  0
 14 41  1  0
 15 16  1  0
 15 42  1  6
 15 43  1  0
 16 17  1  0
 16 19  1  0
 16 64  1  1
 17 18  1  0
 17 44  1  6
 17 45  1  0
 18 46  1  6
 18 47  1  0
 18 48  1  0
 19 20  1  0
 19 49  1  1
 19 50  1  0
 20 51  1  1
 20 52  1  0
 20 53  1  0
 21 22  1  0
 21 29  1  0
 22 23  1  0
 22 27  2  0
 23 24  2  0
 23 54  1  0
 24 25  1  0
 24 55  1  0
 25 26  2  0
 25 28  1  0
 26 27  1  0
 26 56  1  0
 27 57  1  0
 28 58  1  6
 28 59  1  0
 28 60  1  0
 29 30  2  0
 29 31  1  0
 31 61  1  6
 31 62  1  0
 31 63  1  0
M  CHG  2   7   1  16   1
M  END
>  <s_epik_cmdline>  (1553) 
J2VwaWtfcHl0aG9uJywgJy1waCcsICc3LjAwMDAwMCcsICctcGh0JywgJzIuMDAwMDAwJywgJy1tcycsICcxNicsICctdG4nLCAnOCcsICctbWEnLCAnMjAwJywgJy1pbWFlJywgJzxpbmZpbGUubWFlPicsICctb21hZScsICc8b3V0ZmlsZS5tYWU+Jw==

>  <s_epik_input>  (1553) 
W2NIXTFbY0hdYyhbQ0gzXSlbY0hdW2NIXWMxTihDKD1PKVtDSDNdKWMyc1tjSF1jKG4yKVtDSDJdW05IXVtDSDJdYzNbY0hdYyhbY0hdW2NIXVtjSF0zKVtDSDJdTihbQ0gyXVtDSDNdKVtDSDJdW0NIM10=

>  <s_i_glide_gridfile>  (1553) 
ATP-Grid

>  <s_lp_Force_Field>  (1553) 
OPLS_2005

>  <s_lp_Variant>  (1553) 
m_270004bbb____8290542____7548972-1

>  <s_lp_label>  (1553) 
1820_sdstereoexpander_1_neutralizer_1_epik_1_stereoizer_1

>  <s_m_source_file>  (1553) 
ATP-VSW-LIGPREP-002-in.maegz

>  <s_sd_BIOSOLVEIT.INFINISEE\_QUERY\_NAME>  (1553) 
Ref-Lig

>  <s_sd_BIOSOLVEIT.INFINISEE\_QUERY\_SMILES>  (1553) 
S(c1nc2c(cc1C[NH2+]Cc3ccc(cc3)C[NH+](C)C)cccc2)Cc4ccccc4

>  <s_sd_BIOSOLVEIT.INFINISEE\_REACTION\_NAME>  (1553) 
m_270004bbb

>  <s_sd_BIOSOLVEIT.INFINISEE\_REAGENT1\_SMILES>  (1553) 
[R1*]NCc1cc(ccc1)CN(CC)CC

>  <s_sd_BIOSOLVEIT.INFINISEE\_REAGENT2\_SMILES>  (1553) 
[R1*]CC=1N=C(SC1)N(c2ccc(cc2)C)C(=O)C

>  <s_sd_BIOSOLVEIT.INFINISEE\_SPACE>  (1553) 
REALSpace_44bn_2023-08

>  <s_vsw_compound_code>  (1553) 
58210

>  <s_vsw_variant>  (1553) 
58210-1

>  <r_epik_Charging_Adjusted_Penalty>  (1553) 
0.37421544059004802

>  <r_epik_Ionization_Penalty>  (1553) 
0.18820000000000001

>  <r_epik_Ionization_Penalty_Charging>  (1553) 
0.18820000000000001

>  <r_epik_Ionization_Penalty_Neutral>  (1553) 
0

>  <r_epik_State_Penalty>  (1553) 
0.186

>  <r_i_docking_score>  (1553) 
-4.6399107442164604

>  <r_i_glide_ecoul>  (1553) 
-9.6279077529907209

>  <r_i_glide_eff_state_penalty>  (1553) 
0.186

>  <r_i_glide_einternal>  (1553) 
5.31016302108765

>  <r_i_glide_emodel>  (1553) 
-57.001031252760498

>  <r_i_glide_energy>  (1553) 
-39.114617347717299

>  <r_i_glide_erotb>  (1553) 
0.82959822031512098

>  <r_i_glide_esite>  (1553) 
-0.106026648980378

>  <r_i_glide_evdw>  (1553) 
-29.486709594726602

>  <r_i_glide_gscore>  (1553) 
-4.8259107442164604

>  <r_i_glide_hbond>  (1553) 
-0.10622467929316699

>  <r_i_glide_ligand_efficiency>  (1553) 
-0.149674540136015

>  <r_i_glide_ligand_efficiency_ln>  (1553) 
-1.0464420690080101

>  <r_i_glide_ligand_efficiency_sa>  (1553) 
-0.47018470400065299

>  <r_i_glide_lipo>  (1553) 
-1.8510325965346099

>  <r_i_glide_metal>  (1553) 
-0

>  <r_i_glide_rewards>  (1553) 
-0.67370339703848903

>  <r_lp_Energy>  (1553) 
36.725560000000002

>  <r_lp_tautomer_probability>  (1553) 
1

>  <r_qp_ACxDN^.5/SA>  (1553) 
0.0094712000000000008

>  <r_qp_CIQPlogS>  (1553) 
-3.8010000000000002

>  <r_qp_EA(eV)>  (1553) 
1.103

>  <r_qp_FISA>  (1553) 
66.049000000000007

>  <r_qp_FOSA>  (1553) 
475.81799999999998

>  <r_qp_IP(eV)>  (1553) 
8.8439999999999994

>  <r_qp_Jm>  (1553) 
0.000106703865492017

>  <r_qp_PISA>  (1553) 
269.33800000000002

>  <r_qp_PSA>  (1553) 
58.957999999999998

>  <r_qp_PercentHumanOralAbsorption>  (1553) 
90.938999999999993

>  <r_qp_QPPCaco>  (1553) 
145.667

>  <r_qp_QPPMDCK>  (1553) 
115.10899999999999

>  <r_qp_QPlogBB>  (1553) 
0.066000000000000003

>  <r_qp_QPlogHERG>  (1553) 
-8.2449999999999992

>  <r_qp_QPlogKhsa>  (1553) 
0.66900000000000004

>  <r_qp_QPlogKp>  (1553) 
-4.9530000000000003

>  <r_qp_QPlogPC16>  (1553) 
15.414999999999999

>  <r_qp_QPlogPo/w>  (1553) 
4.3159999999999998

>  <r_qp_QPlogPoct>  (1553) 
22.361000000000001

>  <r_qp_QPlogPw>  (1553) 
11.183999999999999

>  <r_qp_QPlogS>  (1553) 
-4.6589999999999998

>  <r_qp_QPpolrz>  (1553) 
50.512999999999998

>  <r_qp_SASA>  (1553) 
844.66700000000003

>  <r_qp_SAamideO>  (1553) 
0

>  <r_qp_SAfluorine>  (1553) 
0

>  <r_qp_WPSA>  (1553) 
33.462000000000003

>  <r_qp_accptHB>  (1553) 
8

>  <r_qp_dip^2/V>  (1553) 
0.0182451

>  <r_qp_dipole>  (1553) 
5.2530000000000001

>  <r_qp_donorHB>  (1553) 
1

>  <r_qp_glob>  (1553) 
0.75429290000000004

>  <r_qp_mol_MW>  (1553) 
436.61399999999998

>  <r_qp_volume>  (1553) 
1512.136

>  <r_sd_BIOSOLVEIT.INFINISEE\_FTREES\_SIMILARITY>  (1553) 
0.90400000000000003

>  <r_sd_BIOSOLVEIT.LOGP>  (1553) 
2.8244199999999999

>  <r_sd_BIOSOLVEIT.MOLECULAR\_WEIGHT>  (1553) 
438.63600000000002

>  <r_sd_BIOSOLVEIT.TPSA>  (1553) 
54.25

>  <i_epik_Tot_Q>  (1553) 
2

>  <i_epik_Tot_abs_Q>  (1553) 
2

>  <i_f3d_flags>  (1553) 
0

>  <i_i_glide_confnum>  (1553) 
6

>  <i_i_glide_lignum>  (1553) 
640

>  <i_i_glide_posenum>  (1553) 
6

>  <i_i_glide_rotatable_bonds>  (1553) 
11

>  <i_lp_mmshare_version>  (1553) 
65135

>  <i_m_ct_format>  (1553) 
2

>  <i_m_source_file_index>  (1553) 
1820

>  <i_qp_#NandO>  (1553) 
5

>  <i_qp_#acid>  (1553) 
0

>  <i_qp_#amide>  (1553) 
0

>  <i_qp_#amidine>  (1553) 
0

>  <i_qp_#amine>  (1553) 
2

>  <i_qp_#in34>  (1553) 
0

>  <i_qp_#in56>  (1553) 
17

>  <i_qp_#metab>  (1553) 
7

>  <i_qp_#nonHatm>  (1553) 
31

>  <i_qp_#noncon>  (1553) 
0

>  <i_qp_#ringatoms>  (1553) 
17

>  <i_qp_#rotor>  (1553) 
10

>  <i_qp_#rtvFG>  (1553) 
0

>  <i_qp_#stars>  (1553) 
0

>  <i_qp_CNS>  (1553) 
1

>  <i_qp_HumanOralAbsorption>  (1553) 
3

>  <i_qp_RuleOfFive>  (1553) 
0

>  <i_qp_RuleOfThree>  (1553) 
1

>  <i_sd_BIOSOLVEIT.INFINISEE\_REAGENT1\_NAME>  (1553) 
8290542

>  <i_sd_BIOSOLVEIT.INFINISEE\_REAGENT2\_NAME>  (1553) 
7548972

>  <i_sd_BIOSOLVEIT.INFINISEE\_RESULT\_RANK>  (1553) 
79117

>  <i_sd_version>  (1553) 
0

>  <b_lp_Chiralities_Consistent>  (1553) 
1

>  <b_sd_chiral_flag>  (1553) 
0

>  <canonical_id>  (1553) 
ATP-HTVS-F451F6F34F85

>  <compound_code>  (1553) 
58210

>  <title>  (1553) 
m_270004bbb____8290542____7548972

>  <variant>  (1553) 
58210-1

>  <source_file>  (1553) 
运行/运行/ATP-VSW/ATP-VSW-DOCK_HTVS_1-002_lib.maegz

>  <canonical_smiles>  (1553) 
CC[NH+](CC)Cc1cccc(C[NH2+]Cc2csc(N(C(C)=O)c3ccc(C)cc3)n2)c1

>  <scaffold>  (1553) 
c1ccc(C[NH2+]Cc2csc(Nc3ccccc3)n2)cc1

>  <molecular_formula>  (1553) 
C25H34N4OS+2

$$$$
ATP-HTVS-F4D02DC184DE
     RDKit          3D

 47 50  0  0  0  0  0  0  0  0999 V2000
  194.5050  186.0942  160.7579 F   0  0  0  0  0  0  0  0  0  0  0  0
  194.9049  185.0581  159.9821 C   0  0  0  0  0  0  0  0  0  0  0  0
  196.2784  184.7983  159.8154 C   0  0  0  0  0  0  0  0  0  0  0  0
  196.7072  183.7163  159.0121 C   0  0  0  0  0  0  0  0  0  0  0  0
  195.7355  182.8789  158.4105 C   0  0  0  0  0  0  0  0  0  0  0  0
  194.3667  183.1514  158.5612 C   0  0  0  0  0  0  0  0  0  0  0  0
  193.9505  184.2332  159.3496 C   0  0  0  0  0  0  0  0  0  0  0  0
  198.1739  183.4356  158.8585 C   0  0  0  0  0  0  0  0  0  0  0  0
  198.9738  183.8145  159.7156 O   0  0  0  0  0  0  0  0  0  0  0  0
  198.5049  182.8309  157.7021 N   0  0  0  0  0  0  0  0  0  0  0  0
  199.7613  182.3395  157.2606 C   0  0  0  0  0  0  0  0  0  0  0  0
  200.8351  182.2599  158.0812 N   0  0  0  0  0  0  0  0  0  0  0  0
  202.0109  181.7794  157.6286 C   0  0  0  0  0  0  0  0  0  0  0  0
  202.1714  181.3595  156.2842 C   0  0  0  0  0  0  0  0  0  0  0  0
  201.0638  181.4260  155.4185 C   0  0  0  0  0  0  0  0  0  0  0  0
  199.8356  181.9176  155.9036 C   0  0  0  0  0  0  0  0  0  0  0  0
  198.7365  181.9479  155.0267 N   0  0  0  0  0  0  0  0  0  0  0  0
  198.4704  182.9805  154.1157 C   0  0  0  0  0  0  0  0  0  0  0  0
  199.1372  183.0046  152.8726 C   0  0  0  0  0  0  0  0  0  0  0  0
  198.8763  184.0331  151.9448 C   0  0  0  0  0  0  0  0  0  0  0  0
  197.9492  185.0454  152.2605 C   0  0  0  0  0  0  0  0  0  0  0  0
  197.2785  185.0230  153.4984 C   0  0  0  0  0  0  0  0  0  0  0  0
  197.5307  183.9877  154.4195 C   0  0  0  0  0  0  0  0  0  0  0  0
  197.6308  181.0369  155.3227 C   0  0  1  0  0  0  0  0  0  0  0  0
  197.1349  180.3642  154.1117 C   0  0  0  0  0  0  0  0  0  0  0  0
  196.7477  179.8370  153.1588 N   0  0  0  0  0  0  0  0  0  0  0  0
  203.4158  180.8820  155.8226 C   0  0  0  0  0  0  0  0  0  0  0  0
  204.5146  180.8261  156.7004 C   0  0  0  0  0  0  0  0  0  0  0  0
  204.3653  181.2281  158.0397 C   0  0  0  0  0  0  0  0  0  0  0  0
  203.1195  181.6979  158.4970 C   0  0  0  0  0  0  0  0  0  0  0  0
  197.0037  185.4371  160.3016 H   0  0  0  0  0  0  0  0  0  0  0  0
  196.0071  182.0197  157.8160 H   0  0  0  0  0  0  0  0  0  0  0  0
  193.6385  182.5185  158.0751 H   0  0  0  0  0  0  0  0  0  0  0  0
  192.8968  184.4402  159.4770 H   0  0  0  0  0  0  0  0  0  0  0  0
  197.7503  182.6625  157.0569 H   0  0  0  0  0  0  0  0  0  0  0  0
  201.1488  181.0983  154.3928 H   0  0  0  0  0  0  0  0  0  0  0  0
  199.8404  182.2250  152.6273 H   0  0  0  0  0  0  0  0  0  0  0  0
  199.3771  184.0448  150.9860 H   0  0  0  0  0  0  0  0  0  0  0  0
  197.7493  185.8353  151.5496 H   0  0  0  0  0  0  0  0  0  0  0  0
  196.5657  185.7960  153.7383 H   0  0  0  0  0  0  0  0  0  0  0  0
  197.0025  183.9785  155.3608 H   0  0  0  0  0  0  0  0  0  0  0  0
  197.9513  180.2504  156.0098 H   0  0  0  0  0  0  0  0  0  0  0  0
  196.7929  181.5653  155.7746 H   0  0  0  0  0  0  0  0  0  0  0  0
  203.5336  180.5605  154.7981 H   0  0  0  0  0  0  0  0  0  0  0  0
  205.4673  180.4575  156.3487 H   0  0  0  0  0  0  0  0  0  0  0  0
  205.2072  181.1743  158.7136 H   0  0  0  0  0  0  0  0  0  0  0  0
  203.0077  182.0071  159.5259 H   0  0  0  0  0  0  0  0  0  0  0  0
  1  2  1  0
  2  3  2  0
  2  7  1  0
  3  4  1  0
  3 31  1  0
  4  5  2  0
  4  8  1  0
  5  6  1  0
  5 32  1  0
  6  7  2  0
  6 33  1  0
  7 34  1  0
  8  9  2  0
  8 10  1  0
 10 11  1  0
 10 35  1  0
 11 12  2  0
 11 16  1  0
 12 13  1  0
 13 14  1  0
 13 30  2  0
 14 15  1  0
 14 27  2  0
 15 16  2  0
 15 36  1  0
 16 17  1  0
 17 18  1  0
 17 24  1  0
 18 19  2  0
 18 23  1  0
 19 20  1  0
 19 37  1  0
 20 21  2  0
 20 38  1  0
 21 22  1  0
 21 39  1  0
 22 23  2  0
 22 40  1  0
 23 41  1  0
 24 25  1  0
 24 42  1  1
 24 43  1  0
 25 26  3  0
 27 28  1  0
 27 44  1  0
 28 29  2  0
 28 45  1  0
 29 30  1  0
 29 46  1  0
 30 47  1  0
M  END
>  <s_epik_cmdline>  (1554) 
J2VwaWtfcHl0aG9uJywgJy1waCcsICc3LjAwMDAwMCcsICctcGh0JywgJzIuMDAwMDAwJywgJy1tcycsICcxNicsICctdG4nLCAnOCcsICctbWEnLCAnMjAwJywgJy1pbWFlJywgJzxpbmZpbGUubWFlPicsICctb21hZScsICc8b3V0ZmlsZS5tYWU+Jw==

>  <s_epik_input>  (1554) 
RmMxW2NIXWMoW2NIXVtjSF1bY0hdMSlDKD1PKVtOSF1jKG4yKWMoW2NIXWMoYzIzKVtjSF1bY0hdW2NIXVtjSF0zKU4oW0NIMl1DI04pYzRbY0hdW2NIXVtjSF1bY0hdW2NIXTQ=

>  <s_i_glide_gridfile>  (1554) 
ATP-Grid

>  <s_lp_Force_Field>  (1554) 
OPLS_2005

>  <s_lp_Variant>  (1554) 
rxn502b____EMOL511643____EMOL44466703____EMOL712348-1

>  <s_lp_label>  (1554) 
2534_sdstereoexpander_1_neutralizer_1_epik_1_stereoizer_1

>  <s_m_source_file>  (1554) 
ATP-VSW-LIGPREP-003-in.maegz

>  <s_sd_BIOSOLVEIT.INFINISEE\_QUERY\_NAME>  (1554) 
Ref-Lig

>  <s_sd_BIOSOLVEIT.INFINISEE\_QUERY\_SMILES>  (1554) 
S(c1nc2c(cc1C[NH2+]Cc3ccc(cc3)C[NH+](C)C)cccc2)Cc4ccccc4

>  <s_sd_BIOSOLVEIT.INFINISEE\_REACTION\_NAME>  (1554) 
rxn502b

>  <s_sd_BIOSOLVEIT.INFINISEE\_REAGENT1\_NAME>  (1554) 
EMOL511643

>  <s_sd_BIOSOLVEIT.INFINISEE\_REAGENT1\_SMILES>  (1554) 
Fc1cc(ccc1)C(=O)O

>  <s_sd_BIOSOLVEIT.INFINISEE\_REAGENT2\_NAME>  (1554) 
EMOL44466703

>  <s_sd_BIOSOLVEIT.INFINISEE\_REAGENT2\_SMILES>  (1554) 
Brc1c(nc2c(c1)cccc2)N

>  <s_sd_BIOSOLVEIT.INFINISEE\_REAGENT3\_NAME>  (1554) 
EMOL712348

>  <s_sd_BIOSOLVEIT.INFINISEE\_REAGENT3\_SMILES>  (1554) 
N#CCNc1ccccc1

>  <s_sd_BIOSOLVEIT.INFINISEE\_SPACE>  (1554) 
eXplore_7tr_2022-12

>  <s_vsw_compound_code>  (1554) 
81059

>  <s_vsw_variant>  (1554) 
81059-1

>  <r_epik_Charging_Adjusted_Penalty>  (1554) 
0

>  <r_epik_Ionization_Penalty>  (1554) 
0

>  <r_epik_Ionization_Penalty_Charging>  (1554) 
0

>  <r_epik_Ionization_Penalty_Neutral>  (1554) 
0

>  <r_epik_State_Penalty>  (1554) 
-0

>  <r_i_docking_score>  (1554) 
-3.2202467118075599

>  <r_i_glide_ecoul>  (1554) 
-2.7132034301757799

>  <r_i_glide_eff_state_penalty>  (1554) 
-0

>  <r_i_glide_einternal>  (1554) 
9.34051513671875

>  <r_i_glide_emodel>  (1554) 
-35.7957614080415

>  <r_i_glide_energy>  (1554) 
-33.162107467651403

>  <r_i_glide_erotb>  (1554) 
0.62249861315325306

>  <r_i_glide_esite>  (1554) 
-0.044826568524471803

>  <r_i_glide_evdw>  (1554) 
-30.4489040374756

>  <r_i_glide_gscore>  (1554) 
-3.2202467118075599

>  <r_i_glide_hbond>  (1554) 
0

>  <r_i_glide_ligand_efficiency>  (1554) 
-0.107341557060252

>  <r_i_glide_ligand_efficiency_ln>  (1554) 
-0.73167514032088199

>  <r_i_glide_ligand_efficiency_sa>  (1554) 
-0.33353517495917601

>  <r_i_glide_lipo>  (1554) 
-0.80774424751951301

>  <r_i_glide_metal>  (1554) 
-0

>  <r_i_glide_rewards>  (1554) 
-1.0607487925166801

>  <r_lp_Energy>  (1554) 
29.824846999999998

>  <r_lp_tautomer_probability>  (1554) 
1

>  <r_qp_ACxDN^.5/SA>  (1554) 
0.0082179999999999996

>  <r_qp_CIQPlogS>  (1554) 
-7.3940000000000001

>  <r_qp_EA(eV)>  (1554) 
1.2010000000000001

>  <r_qp_FISA>  (1554) 
110.15900000000001

>  <r_qp_FOSA>  (1554) 
36.411999999999999

>  <r_qp_IP(eV)>  (1554) 
8.6959999999999997

>  <r_qp_Jm>  (1554) 
0.0046915628200680697

>  <r_qp_PISA>  (1554) 
480.63099999999997

>  <r_qp_PSA>  (1554) 
71.078999999999994

>  <r_qp_PercentHumanOralAbsorption>  (1554) 
100

>  <r_qp_QPPCaco>  (1554) 
893.85000000000002

>  <r_qp_QPPMDCK>  (1554) 
744.85199999999998

>  <r_qp_QPlogBB>  (1554) 
-0.76800000000000002

>  <r_qp_QPlogHERG>  (1554) 
-6.617

>  <r_qp_QPlogKhsa>  (1554) 
0.621

>  <r_qp_QPlogKp>  (1554) 
-1.2809999999999999

>  <r_qp_QPlogPC16>  (1554) 
13.718999999999999

>  <r_qp_QPlogPo/w>  (1554) 
4.6360000000000001

>  <r_qp_QPlogPoct>  (1554) 
19.399999999999999

>  <r_qp_QPlogPw>  (1554) 
10.922000000000001

>  <r_qp_QPlogS>  (1554) 
-6.6459999999999999

>  <r_qp_QPpolrz>  (1554) 
43.619

>  <r_qp_SASA>  (1554) 
669.26099999999997

>  <r_qp_SAamideO>  (1554) 
0

>  <r_qp_SAfluorine>  (1554) 
42.058999999999997

>  <r_qp_WPSA>  (1554) 
42.058999999999997

>  <r_qp_accptHB>  (1554) 
5.5

>  <r_qp_dip^2/V>  (1554) 
0.0045189999999999996

>  <r_qp_dipole>  (1554) 
2.3530000000000002

>  <r_qp_donorHB>  (1554) 
1

>  <r_qp_glob>  (1554) 
0.8274146

>  <r_qp_mol_MW>  (1554) 
396.423

>  <r_qp_volume>  (1554) 
1225.2650000000001

>  <r_sd_BIOSOLVEIT.INFINISEE\_FTREES\_SIMILARITY>  (1554) 
0.91300000000000003

>  <r_sd_BIOSOLVEIT.LOGP>  (1554) 
5.2878800000000004

>  <r_sd_BIOSOLVEIT.MOLECULAR\_WEIGHT>  (1554) 
396.423

>  <r_sd_BIOSOLVEIT.TPSA>  (1554) 
69.019999999999996

>  <i_epik_Tot_Q>  (1554) 
0

>  <i_epik_Tot_abs_Q>  (1554) 
0

>  <i_f3d_flags>  (1554) 
0

>  <i_i_glide_confnum>  (1554) 
1

>  <i_i_glide_lignum>  (1554) 
1111

>  <i_i_glide_posenum>  (1554) 
8

>  <i_i_glide_rotatable_bonds>  (1554) 
6

>  <i_lp_mmshare_version>  (1554) 
65135

>  <i_m_ct_format>  (1554) 
2

>  <i_m_source_file_index>  (1554) 
2534

>  <i_qp_#NandO>  (1554) 
5

>  <i_qp_#acid>  (1554) 
0

>  <i_qp_#amide>  (1554) 
0

>  <i_qp_#amidine>  (1554) 
0

>  <i_qp_#amine>  (1554) 
0

>  <i_qp_#in34>  (1554) 
0

>  <i_qp_#in56>  (1554) 
22

>  <i_qp_#metab>  (1554) 
3

>  <i_qp_#nonHatm>  (1554) 
30

>  <i_qp_#noncon>  (1554) 
0

>  <i_qp_#ringatoms>  (1554) 
22

>  <i_qp_#rotor>  (1554) 
6

>  <i_qp_#rtvFG>  (1554) 
0

>  <i_qp_#stars>  (1554) 
2

>  <i_qp_CNS>  (1554) 
-1

>  <i_qp_HumanOralAbsorption>  (1554) 
1

>  <i_qp_RuleOfFive>  (1554) 
0

>  <i_qp_RuleOfThree>  (1554) 
1

>  <i_sd_BIOSOLVEIT.INFINISEE\_RESULT\_RANK>  (1554) 
33938

>  <i_sd_version>  (1554) 
0

>  <b_lp_Chiralities_Consistent>  (1554) 
1

>  <b_sd_chiral_flag>  (1554) 
0

>  <canonical_id>  (1554) 
ATP-HTVS-F4D02DC184DE

>  <compound_code>  (1554) 
81059

>  <title>  (1554) 
rxn502b____EMOL511643____EMOL44466703____EMOL712348

>  <variant>  (1554) 
81059-1

>  <source_file>  (1554) 
运行/运行/ATP-VSW/ATP-VSW-DOCK_HTVS_1-003_lib/ATP-VSW-DOCK_HTVS_1-003_lib.mae

>  <canonical_smiles>  (1554) 
N#CCN(c1ccccc1)c1cc2ccccc2nc1NC(=O)c1cccc(F)c1

>  <scaffold>  (1554) 
O=C(Nc1nc2ccccc2cc1Nc1ccccc1)c1ccccc1

>  <molecular_formula>  (1554) 
C24H17FN4O

$$$$
ATP-HTVS-F4EB0A3B6A53
     RDKit          3D

 57 60  0  0  0  0  0  0  0  0999 V2000
  199.1362  187.2001  154.2444 O   0  0  0  0  0  0  0  0  0  0  0  0
  198.5286  186.2325  153.7847 C   0  0  0  0  0  0  0  0  0  0  0  0
  197.8338  185.3270  154.4974 N   0  0  0  0  0  0  0  0  0  0  0  0
  197.4695  185.3832  155.8713 C   0  0  0  0  0  0  0  0  0  0  0  0
  197.3122  186.5646  156.5191 N   0  0  0  0  0  0  0  0  0  0  0  0
  196.9126  186.5919  157.8068 C   0  0  0  0  0  0  0  0  0  0  0  0
  196.6425  185.3989  158.5199 C   0  0  0  0  0  0  0  0  0  0  0  0
  196.7861  184.1637  157.8622 C   0  0  0  0  0  0  0  0  0  0  0  0
  197.2096  184.1396  156.5143 C   0  0  0  0  0  0  0  0  0  0  0  0
  197.3847  182.9243  155.8239 N   0  0  0  0  0  0  0  0  0  0  0  0
  197.1246  181.6187  156.4109 C   0  0  1  0  0  0  0  0  0  0  0  0
  198.2464  180.6414  156.1365 C   0  0  0  0  0  0  0  0  0  0  0  0
  197.9625  179.3949  155.5538 C   0  0  0  0  0  0  0  0  0  0  0  0
  198.9974  178.4615  155.3515 C   0  0  0  0  0  0  0  0  0  0  0  0
  200.3249  178.7739  155.7145 C   0  0  0  0  0  0  0  0  0  0  0  0
  200.6100  180.0253  156.3026 C   0  0  0  0  0  0  0  0  0  0  0  0
  199.5710  180.9548  156.5099 C   0  0  0  0  0  0  0  0  0  0  0  0
  201.4256  177.7692  155.4539 C   0  0  1  0  0  0  0  0  0  0  0  0
  201.5352  176.7932  156.5543 N   0  0  1  0  0  0  0  0  0  0  0  0
  202.2766  175.5678  156.1987 C   0  0  2  0  0  0  0  0  0  0  0  0
  196.2420  185.4279  159.8691 C   0  0  0  0  0  0  0  0  0  0  0  0
  196.0969  186.6584  160.5321 C   0  0  0  0  0  0  0  0  0  0  0  0
  196.3544  187.8548  159.8355 C   0  0  0  0  0  0  0  0  0  0  0  0
  196.7551  187.8188  158.4837 C   0  0  0  0  0  0  0  0  0  0  0  0
  198.5430  185.9568  152.3666 C   0  0  0  0  0  0  0  0  0  0  0  0
  198.5623  185.7852  151.1569 C   0  0  0  0  0  0  0  0  0  0  0  0
  198.6216  185.5712  149.7191 C   0  0  0  0  0  0  0  0  0  0  0  0
  199.8221  185.8112  149.0200 C   0  0  0  0  0  0  0  0  0  0  0  0
  199.8870  185.5994  147.6284 C   0  0  0  0  0  0  0  0  0  0  0  0
  198.7481  185.1463  146.9318 C   0  0  0  0  0  0  0  0  0  0  0  0
  197.5492  184.9057  147.6277 C   0  0  0  0  0  0  0  0  0  0  0  0
  197.4826  185.1174  149.0199 C   0  0  0  0  0  0  0  0  0  0  0  0
  202.0096  177.2460  157.3253 H   0  0  0  0  0  0  0  0  0  0  0  0
  197.4955  184.5204  153.9931 H   0  0  0  0  0  0  0  0  0  0  0  0
  196.5690  183.2598  158.4113 H   0  0  0  0  0  0  0  0  0  0  0  0
  197.7688  182.9227  154.8920 H   0  0  0  0  0  0  0  0  0  0  0  0
  197.0087  181.6424  157.5011 H   0  0  0  0  0  0  0  0  0  0  0  0
  196.1817  181.2381  156.0077 H   0  0  0  0  0  0  0  0  0  0  0  0
  196.9426  179.1333  155.3182 H   0  0  0  0  0  0  0  0  0  0  0  0
  198.7576  177.4931  154.9352 H   0  0  0  0  0  0  0  0  0  0  0  0
  201.6223  180.2809  156.5901 H   0  0  0  0  0  0  0  0  0  0  0  0
  199.7862  181.9053  156.9776 H   0  0  0  0  0  0  0  0  0  0  0  0
  201.2029  177.2566  154.5145 H   0  0  0  0  0  0  0  0  0  0  0  0
  202.3811  178.2773  155.3194 H   0  0  0  0  0  0  0  0  0  0  0  0
  202.2858  174.8710  157.0364 H   0  0  0  0  0  0  0  0  0  0  0  0
  203.3102  175.8022  155.9421 H   0  0  0  0  0  0  0  0  0  0  0  0
  201.8199  175.0648  155.3456 H   0  0  0  0  0  0  0  0  0  0  0  0
  196.0555  184.5064  160.4022 H   0  0  0  0  0  0  0  0  0  0  0  0
  195.7958  186.6868  161.5695 H   0  0  0  0  0  0  0  0  0  0  0  0
  196.2459  188.8016  160.3449 H   0  0  0  0  0  0  0  0  0  0  0  0
  196.9509  188.7446  157.9595 H   0  0  0  0  0  0  0  0  0  0  0  0
  200.7004  186.1573  149.5471 H   0  0  0  0  0  0  0  0  0  0  0  0
  200.8071  185.7834  147.0958 H   0  0  0  0  0  0  0  0  0  0  0  0
  198.7973  184.9859  145.8648 H   0  0  0  0  0  0  0  0  0  0  0  0
  196.6737  184.5649  147.0944 H   0  0  0  0  0  0  0  0  0  0  0  0
  196.5555  184.9334  149.5422 H   0  0  0  0  0  0  0  0  0  0  0  0
  200.5999  176.5437  156.8486 H   0  0  0  0  0  0  0  0  0  0  0  0
  1  2  2  0
  2  3  1  0
  2 25  1  0
  3  4  1  0
  3 34  1  0
  4  5  2  0
  4  9  1  0
  5  6  1  0
  6  7  1  0
  6 24  2  0
  7  8  1  0
  7 21  2  0
  8  9  2  0
  8 35  1  0
  9 10  1  0
 10 11  1  0
 10 36  1  0
 11 12  1  0
 11 37  1  1
 11 38  1  0
 12 13  1  0
 12 17  2  0
 13 14  2  0
 13 39  1  0
 14 15  1  0
 14 40  1  0
 15 16  2  0
 15 18  1  0
 16 17  1  0
 16 41  1  0
 17 42  1  0
 18 19  1  0
 18 43  1  6
 18 44  1  0
 19 20  1  0
 19 33  1  1
 19 57  1  0
 20 45  1  1
 20 46  1  0
 20 47  1  0
 21 22  1  0
 21 48  1  0
 22 23  2  0
 22 49  1  0
 23 24  1  0
 23 50  1  0
 24 51  1  0
 25 26  3  0
 26 27  1  0
 27 28  2  0
 27 32  1  0
 28 29  1  0
 28 52  1  0
 29 30  2  0
 29 53  1  0
 30 31  1  0
 30 54  1  0
 31 32  2  0
 31 55  1  0
 32 56  1  0
M  CHG  1  19   1
M  END
>  <s_epik_cmdline>  (1555) 
J2VwaWtfcHl0aG9uJywgJy1waCcsICc3LjAwMDAwMCcsICctcGh0JywgJzIuMDAwMDAwJywgJy1tcycsICcxNicsICctdG4nLCAnOCcsICctbWEnLCAnMjAwJywgJy1pbWFlJywgJzxpbmZpbGUubWFlPicsICctb21hZScsICc8b3V0ZmlsZS5tYWU+Jw==

>  <s_epik_input>  (1555) 
W2NIXTFbY0hdW2NIXVtjSF1bY0hdYzFDI0NDKD1PKVtOSF1jKG4yKWMoW2NIXWMoYzIzKVtjSF1bY0hdW2NIXVtjSF0zKVtOSF1bQ0gyXWM0W2NIXVtjSF1jKFtjSF1bY0hdNClbQ0gyXVtOSF1bQ0gzXQ==

>  <s_i_glide_gridfile>  (1555) 
ATP-Grid

>  <s_lp_Force_Field>  (1555) 
OPLS_2005

>  <s_lp_Variant>  (1555) 
rxn502b____EMOL530803____EMOL44466703____EMOL108753565-1

>  <s_lp_label>  (1555) 
2369_sdstereoexpander_1_neutralizer_1_epik_1_stereoizer_1

>  <s_m_source_file>  (1555) 
ATP-VSW-LIGPREP-003-in.maegz

>  <s_sd_BIOSOLVEIT.INFINISEE\_QUERY\_NAME>  (1555) 
Ref-Lig

>  <s_sd_BIOSOLVEIT.INFINISEE\_QUERY\_SMILES>  (1555) 
S(c1nc2c(cc1C[NH2+]Cc3ccc(cc3)C[NH+](C)C)cccc2)Cc4ccccc4

>  <s_sd_BIOSOLVEIT.INFINISEE\_REACTION\_NAME>  (1555) 
rxn502b

>  <s_sd_BIOSOLVEIT.INFINISEE\_REAGENT1\_NAME>  (1555) 
EMOL530803

>  <s_sd_BIOSOLVEIT.INFINISEE\_REAGENT1\_SMILES>  (1555) 
O=C(O)C#Cc1ccccc1

>  <s_sd_BIOSOLVEIT.INFINISEE\_REAGENT2\_NAME>  (1555) 
EMOL44466703

>  <s_sd_BIOSOLVEIT.INFINISEE\_REAGENT2\_SMILES>  (1555) 
Brc1c(nc2c(c1)cccc2)N

>  <s_sd_BIOSOLVEIT.INFINISEE\_REAGENT3\_NAME>  (1555) 
EMOL108753565

>  <s_sd_BIOSOLVEIT.INFINISEE\_REAGENT3\_SMILES>  (1555) 
N(Cc1ccc(cc1)CN)C

>  <s_sd_BIOSOLVEIT.INFINISEE\_SPACE>  (1555) 
eXplore_7tr_2022-12

>  <s_vsw_compound_code>  (1555) 
75779

>  <s_vsw_variant>  (1555) 
75779-1

>  <r_epik_Charging_Adjusted_Penalty>  (1555) 
0.031913657354525997

>  <r_epik_Ionization_Penalty>  (1555) 
0.016

>  <r_epik_Ionization_Penalty_Charging>  (1555) 
0.016

>  <r_epik_Ionization_Penalty_Neutral>  (1555) 
0

>  <r_epik_State_Penalty>  (1555) 
0.016

>  <r_i_docking_score>  (1555) 
-4.6603317775591497

>  <r_i_glide_ecoul>  (1555) 
-5.3495244979858398

>  <r_i_glide_eff_state_penalty>  (1555) 
0.016

>  <r_i_glide_einternal>  (1555) 
3.4040944576263401

>  <r_i_glide_emodel>  (1555) 
-57.458637621376603

>  <r_i_glide_energy>  (1555) 
-42.276137351989703

>  <r_i_glide_erotb>  (1555) 
0.78016577504515205

>  <r_i_glide_esite>  (1555) 
-0.0392573680945437

>  <r_i_glide_evdw>  (1555) 
-36.926612854003899

>  <r_i_glide_gscore>  (1555) 
-4.6763317775591497

>  <r_i_glide_hbond>  (1555) 
0

>  <r_i_glide_ligand_efficiency>  (1555) 
-0.14563536804872301

>  <r_i_glide_ligand_efficiency_ln>  (1555) 
-1.0435753208418399

>  <r_i_glide_ligand_efficiency_sa>  (1555) 
-0.46236347235449599

>  <r_i_glide_lipo>  (1555) 
-2.2333463216571401

>  <r_i_glide_metal>  (1555) 
-0

>  <r_i_glide_rewards>  (1555) 
-0.53513454545454398

>  <r_lp_Energy>  (1555) 
24.9895

>  <r_qp_ACxDN^.5/SA>  (1555) 
0.012272999999999999

>  <r_qp_CIQPlogS>  (1555) 
-5.4790000000000001

>  <r_qp_EA(eV)>  (1555) 
0.71999999999999997

>  <r_qp_FISA>  (1555) 
114.30500000000001

>  <r_qp_FOSA>  (1555) 
154.09700000000001

>  <r_qp_IP(eV)>  (1555) 
8.1489999999999991

>  <r_qp_Jm>  (1555) 
0.00013143096494365599

>  <r_qp_PISA>  (1555) 
578.35699999999997

>  <r_qp_PSA>  (1555) 
77.108000000000004

>  <r_qp_PercentHumanOralAbsorption>  (1555) 
96.686999999999998

>  <r_qp_QPPCaco>  (1555) 
203.63200000000001

>  <r_qp_QPPMDCK>  (1555) 
97.988

>  <r_qp_QPlogBB>  (1555) 
-0.93999999999999995

>  <r_qp_QPlogHERG>  (1555) 
-9.3439999999999994

>  <r_qp_QPlogKhsa>  (1555) 
0.86799999999999999

>  <r_qp_QPlogKp>  (1555) 
-2.883

>  <r_qp_QPlogPC16>  (1555) 
17.768000000000001

>  <r_qp_QPlogPo/w>  (1555) 
4.8529999999999998

>  <r_qp_QPlogPoct>  (1555) 
26.154

>  <r_qp_QPlogPw>  (1555) 
15.007999999999999

>  <r_qp_QPlogS>  (1555) 
-6.6219999999999999

>  <r_qp_QPpolrz>  (1555) 
52.363999999999997

>  <r_qp_SASA>  (1555) 
846.75900000000001

>  <r_qp_SAamideO>  (1555) 
0

>  <r_qp_SAfluorine>  (1555) 
0

>  <r_qp_WPSA>  (1555) 
0

>  <r_qp_accptHB>  (1555) 
6

>  <r_qp_dip^2/V>  (1555) 
0.0775671

>  <r_qp_dipole>  (1555) 
10.615

>  <r_qp_donorHB>  (1555) 
3

>  <r_qp_glob>  (1555) 
0.73253310000000005

>  <r_qp_mol_MW>  (1555) 
420.51299999999998

>  <r_qp_volume>  (1555) 
1452.557

>  <r_sd_BIOSOLVEIT.INFINISEE\_FTREES\_SIMILARITY>  (1555) 
0.91900000000000004

>  <r_sd_BIOSOLVEIT.LOGP>  (1555) 
3.5303

>  <r_sd_BIOSOLVEIT.MOLECULAR\_WEIGHT>  (1555) 
421.52199999999999

>  <r_sd_BIOSOLVEIT.TPSA>  (1555) 
70.629999999999995

>  <i_epik_Tot_Q>  (1555) 
1

>  <i_epik_Tot_abs_Q>  (1555) 
1

>  <i_f3d_flags>  (1555) 
0

>  <i_i_glide_confnum>  (1555) 
3

>  <i_i_glide_lignum>  (1555) 
993

>  <i_i_glide_posenum>  (1555) 
16

>  <i_i_glide_rotatable_bonds>  (1555) 
9

>  <i_lp_mmshare_version>  (1555) 
65135

>  <i_m_ct_format>  (1555) 
2

>  <i_m_source_file_index>  (1555) 
2369

>  <i_qp_#NandO>  (1555) 
5

>  <i_qp_#acid>  (1555) 
0

>  <i_qp_#amide>  (1555) 
0

>  <i_qp_#amidine>  (1555) 
0

>  <i_qp_#amine>  (1555) 
1

>  <i_qp_#in34>  (1555) 
0

>  <i_qp_#in56>  (1555) 
22

>  <i_qp_#metab>  (1555) 
5

>  <i_qp_#nonHatm>  (1555) 
32

>  <i_qp_#noncon>  (1555) 
0

>  <i_qp_#ringatoms>  (1555) 
22

>  <i_qp_#rotor>  (1555) 
8

>  <i_qp_#rtvFG>  (1555) 
0

>  <i_qp_#stars>  (1555) 
3

>  <i_qp_CNS>  (1555) 
-1

>  <i_qp_HumanOralAbsorption>  (1555) 
1

>  <i_qp_RuleOfFive>  (1555) 
0

>  <i_qp_RuleOfThree>  (1555) 
1

>  <i_sd_BIOSOLVEIT.INFINISEE\_RESULT\_RANK>  (1555) 
17648

>  <i_sd_version>  (1555) 
0

>  <b_lp_Chiralities_Consistent>  (1555) 
1

>  <b_sd_chiral_flag>  (1555) 
0

>  <canonical_id>  (1555) 
ATP-HTVS-F4EB0A3B6A53

>  <compound_code>  (1555) 
75779

>  <title>  (1555) 
rxn502b____EMOL530803____EMOL44466703____EMOL108753565

>  <variant>  (1555) 
75779-1

>  <source_file>  (1555) 
运行/运行/ATP-VSW/ATP-VSW-DOCK_HTVS_1-003_lib/ATP-VSW-DOCK_HTVS_1-003_lib.mae

>  <canonical_smiles>  (1555) 
C[NH2+]Cc1ccc(CNc2cc3ccccc3nc2NC(=O)C#Cc2ccccc2)cc1

>  <scaffold>  (1555) 
O=C(C#Cc1ccccc1)Nc1nc2ccccc2cc1NCc1ccccc1

>  <molecular_formula>  (1555) 
C27H25N4O+

$$$$
ATP-HTVS-F4F3BDD05BAD
     RDKit          3D

 61 64  0  0  0  0  0  0  0  0999 V2000
  194.4952  182.5831  158.5352 F   0  0  0  0  0  0  0  0  0  0  0  0
  195.0790  183.6926  159.0482 C   0  0  0  0  0  0  0  0  0  0  0  0
  196.4659  183.9129  158.8959 C   0  0  0  0  0  0  0  0  0  0  0  0
  197.0515  185.0684  159.4584 C   0  0  0  0  0  0  0  0  0  0  0  0
  196.2605  186.0059  160.1490 C   0  0  0  0  0  0  0  0  0  0  0  0
  194.8789  185.7820  160.2980 C   0  0  0  0  0  0  0  0  0  0  0  0
  194.2919  184.6289  159.7412 C   0  0  0  0  0  0  0  0  0  0  0  0
  197.3258  182.9150  158.1376 C   0  0  1  0  0  0  0  0  0  0  0  0
  197.8267  183.5260  156.8269 C   0  0  0  0  0  0  0  0  0  0  0  0
  198.7460  184.3470  156.8624 O   0  0  0  0  0  0  0  0  0  0  0  0
  197.2299  183.0886  155.7035 N   0  0  0  0  0  0  0  0  0  0  0  0
  197.4802  183.4758  154.3586 C   0  0  0  0  0  0  0  0  0  0  0  0
  198.0885  184.6491  154.0552 N   0  0  0  0  0  0  0  0  0  0  0  0
  198.2921  185.0022  152.7700 C   0  0  0  0  0  0  0  0  0  0  0  0
  197.8574  184.1839  151.6988 C   0  0  0  0  0  0  0  0  0  0  0  0
  197.2065  182.9723  151.9929 C   0  0  0  0  0  0  0  0  0  0  0  0
  197.0399  182.5810  153.3419 C   0  0  0  0  0  0  0  0  0  0  0  0
  196.4125  181.3648  153.6691 N   0  0  0  0  0  0  0  0  0  0  0  0
  196.5954  180.1926  152.8220 C   0  0  1  0  0  0  0  0  0  0  0  0
  197.9189  179.4924  153.0379 C   0  0  0  0  0  0  0  0  0  0  0  0
  198.2861  179.0356  154.3198 C   0  0  0  0  0  0  0  0  0  0  0  0
  199.5376  178.4124  154.5263 C   0  0  0  0  0  0  0  0  0  0  0  0
  200.4013  178.2208  153.4289 C   0  0  0  0  0  0  0  0  0  0  0  0
  200.0334  178.6757  152.1472 C   0  0  0  0  0  0  0  0  0  0  0  0
  198.7979  179.3177  151.9534 C   0  0  0  0  0  0  0  0  0  0  0  0
  199.9692  177.9828  155.9257 C   0  0  1  0  0  0  0  0  0  0  0  0
  200.5753  179.0942  156.7061 N   0  0  2  0  0  0  0  0  0  0  0  0
  199.6412  180.2191  156.9492 C   0  0  2  0  0  0  0  0  0  0  0  0
  201.8719  179.5585  156.1631 C   0  0  2  0  0  0  0  0  0  0  0  0
  198.0902  184.5546  150.3569 C   0  0  0  0  0  0  0  0  0  0  0  0
  198.7812  185.7478  150.0670 C   0  0  0  0  0  0  0  0  0  0  0  0
  199.2308  186.5620  151.1251 C   0  0  0  0  0  0  0  0  0  0  0  0
  198.9773  186.1978  152.4610 C   0  0  0  0  0  0  0  0  0  0  0  0
  198.1112  185.2466  159.3515 H   0  0  0  0  0  0  0  0  0  0  0  0
  196.7162  186.8930  160.5696 H   0  0  0  0  0  0  0  0  0  0  0  0
  194.2688  186.4951  160.8316 H   0  0  0  0  0  0  0  0  0  0  0  0
  193.2301  184.4584  159.8476 H   0  0  0  0  0  0  0  0  0  0  0  0
  198.1829  182.6465  158.7516 H   0  0  0  0  0  0  0  0  0  0  0  0
  196.7763  181.9899  157.9476 H   0  0  0  0  0  0  0  0  0  0  0  0
  196.4958  182.4099  155.8237 H   0  0  0  0  0  0  0  0  0  0  0  0
  196.8453  182.3735  151.1727 H   0  0  0  0  0  0  0  0  0  0  0  0
  196.2557  181.1590  154.6424 H   0  0  0  0  0  0  0  0  0  0  0  0
  195.7999  179.4817  153.0364 H   0  0  0  0  0  0  0  0  0  0  0  0
  196.4730  180.4403  151.7681 H   0  0  0  0  0  0  0  0  0  0  0  0
  197.6158  179.1874  155.1534 H   0  0  0  0  0  0  0  0  0  0  0  0
  201.3587  177.7319  153.5620 H   0  0  0  0  0  0  0  0  0  0  0  0
  200.6947  178.5220  151.3042 H   0  0  0  0  0  0  0  0  0  0  0  0
  198.5241  179.6780  150.9738 H   0  0  0  0  0  0  0  0  0  0  0  0
  199.1085  177.5783  156.4622 H   0  0  0  0  0  0  0  0  0  0  0  0
  200.6796  177.1537  155.8555 H   0  0  0  0  0  0  0  0  0  0  0  0
  199.3786  180.7501  156.0333 H   0  0  0  0  0  0  0  0  0  0  0  0
  200.0915  180.9489  157.6190 H   0  0  0  0  0  0  0  0  0  0  0  0
  198.7205  179.8503  157.4063 H   0  0  0  0  0  0  0  0  0  0  0  0
  201.7635  179.9764  155.1598 H   0  0  0  0  0  0  0  0  0  0  0  0
  202.5865  178.7347  156.1151 H   0  0  0  0  0  0  0  0  0  0  0  0
  202.2991  180.3349  156.7992 H   0  0  0  0  0  0  0  0  0  0  0  0
  197.7636  183.9160  149.5485 H   0  0  0  0  0  0  0  0  0  0  0  0
  198.9725  186.0227  149.0381 H   0  0  0  0  0  0  0  0  0  0  0  0
  199.7753  187.4715  150.9236 H   0  0  0  0  0  0  0  0  0  0  0  0
  199.3293  186.8254  153.2655 H   0  0  0  0  0  0  0  0  0  0  0  0
  200.7758  178.6922  157.6113 H   0  0  0  0  0  0  0  0  0  0  0  0
  1  2  1  0
  2  3  1  0
  2  7  2  0
  3  4  2  0
  3  8  1  0
  4  5  1  0
  4 34  1  0
  5  6  2  0
  5 35  1  0
  6  7  1  0
  6 36  1  0
  7 37  1  0
  8  9  1  0
  8 38  1  1
  8 39  1  0
  9 10  2  0
  9 11  1  0
 11 12  1  0
 11 40  1  0
 12 13  2  0
 12 17  1  0
 13 14  1  0
 14 15  1  0
 14 33  2  0
 15 16  1  0
 15 30  2  0
 16 17  2  0
 16 41  1  0
 17 18  1  0
 18 19  1  0
 18 42  1  0
 19 20  1  0
 19 43  1  1
 19 44  1  0
 20 21  2  0
 20 25  1  0
 21 22  1  0
 21 45  1  0
 22 23  2  0
 22 26  1  0
 23 24  1  0
 23 46  1  0
 24 25  2  0
 24 47  1  0
 25 48  1  0
 26 27  1  0
 26 49  1  1
 26 50  1  0
 27 28  1  0
 27 29  1  0
 27 61  1  1
 28 51  1  6
 28 52  1  0
 28 53  1  0
 29 54  1  6
 29 55  1  0
 29 56  1  0
 30 31  1  0
 30 57  1  0
 31 32  2  0
 31 58  1  0
 32 33  1  0
 32 59  1  0
 33 60  1  0
M  CHG  1  27   1
M  END
>  <s_epik_cmdline>  (1556) 
J2VwaWtfcHl0aG9uJywgJy1waCcsICc3LjAwMDAwMCcsICctcGh0JywgJzIuMDAwMDAwJywgJy1tcycsICcxNicsICctdG4nLCAnOCcsICctbWEnLCAnMjAwJywgJy1pbWFlJywgJzxpbmZpbGUubWFlPicsICctb21hZScsICc8b3V0ZmlsZS5tYWU+Jw==

>  <s_epik_input>  (1556) 
W2NIXTFbY0hdW2NIXVtjSF1jKGMxRilbQ0gyXUMoPU8pW05IXWMobjIpYyhbY0hdYyhjMjMpW2NIXVtjSF1bY0hdW2NIXTMpW05IXVtDSDJdYzRbY0hdYyhbY0hdW2NIXVtjSF00KVtDSDJdTihbQ0gzXSlbQ0gzXQ==

>  <s_i_glide_gridfile>  (1556) 
ATP-Grid

>  <s_lp_Force_Field>  (1556) 
OPLS_2005

>  <s_lp_Variant>  (1556) 
rxn502b____EMOL488417____EMOL44466703____EMOL2873214-1

>  <s_lp_label>  (1556) 
2170_sdstereoexpander_1_neutralizer_1_epik_1_stereoizer_1

>  <s_m_source_file>  (1556) 
ATP-VSW-LIGPREP-001-in.maegz

>  <s_sd_BIOSOLVEIT.INFINISEE\_QUERY\_NAME>  (1556) 
Ref-Lig

>  <s_sd_BIOSOLVEIT.INFINISEE\_QUERY\_SMILES>  (1556) 
S(c1nc2c(cc1C[NH2+]Cc3ccc(cc3)C[NH+](C)C)cccc2)Cc4ccccc4

>  <s_sd_BIOSOLVEIT.INFINISEE\_REACTION\_NAME>  (1556) 
rxn502b

>  <s_sd_BIOSOLVEIT.INFINISEE\_REAGENT1\_NAME>  (1556) 
EMOL488417

>  <s_sd_BIOSOLVEIT.INFINISEE\_REAGENT1\_SMILES>  (1556) 
Fc1c(cccc1)CC(=O)O

>  <s_sd_BIOSOLVEIT.INFINISEE\_REAGENT2\_NAME>  (1556) 
EMOL44466703

>  <s_sd_BIOSOLVEIT.INFINISEE\_REAGENT2\_SMILES>  (1556) 
Brc1c(nc2c(c1)cccc2)N

>  <s_sd_BIOSOLVEIT.INFINISEE\_REAGENT3\_NAME>  (1556) 
EMOL2873214

>  <s_sd_BIOSOLVEIT.INFINISEE\_REAGENT3\_SMILES>  (1556) 
N(Cc1cc(ccc1)CN)(C)C

>  <s_sd_BIOSOLVEIT.INFINISEE\_SPACE>  (1556) 
eXplore_7tr_2022-12

>  <s_vsw_compound_code>  (1556) 
69409

>  <s_vsw_variant>  (1556) 
69409-1

>  <r_epik_Charging_Adjusted_Penalty>  (1556) 
0.094209532796881795

>  <r_epik_Ionization_Penalty>  (1556) 
0.050599999999999999

>  <r_epik_Ionization_Penalty_Charging>  (1556) 
0.0441

>  <r_epik_Ionization_Penalty_Neutral>  (1556) 
0.0064999999999999997

>  <r_epik_State_Penalty>  (1556) 
0.050099999999999999

>  <r_i_docking_score>  (1556) 
-4.3909480152870799

>  <r_i_glide_ecoul>  (1556) 
-6.5318055152893102

>  <r_i_glide_eff_state_penalty>  (1556) 
0.050099999999999999

>  <r_i_glide_einternal>  (1556) 
2.4901573657989502

>  <r_i_glide_emodel>  (1556) 
-56.2748186634443

>  <r_i_glide_energy>  (1556) 
-41.087286472320599

>  <r_i_glide_erotb>  (1556) 
0.71138917051285899

>  <r_i_glide_esite>  (1556) 
-0.170699918262779

>  <r_i_glide_evdw>  (1556) 
-34.5554809570312

>  <r_i_glide_gscore>  (1556) 
-4.4410480152870804

>  <r_i_glide_hbond>  (1556) 
0

>  <r_i_glide_ligand_efficiency>  (1556) 
-0.13305903076627501

>  <r_i_glide_ligand_efficiency_ln>  (1556) 
-0.97652410348778096

>  <r_i_glide_ligand_efficiency_sa>  (1556) 
-0.42679140860137199

>  <r_i_glide_lipo>  (1556) 
-1.6642093673922

>  <r_i_glide_metal>  (1556) 
-0

>  <r_i_glide_rewards>  (1556) 
-0.60998302499999801

>  <r_lp_Energy>  (1556) 
20.018723999999999

>  <r_qp_ACxDN^.5/SA>  (1556) 
0.013593299999999999

>  <r_qp_CIQPlogS>  (1556) 
-5.8239999999999998

>  <r_qp_EA(eV)>  (1556) 
0.81200000000000006

>  <r_qp_FISA>  (1556) 
51.877000000000002

>  <r_qp_FOSA>  (1556) 
191.48500000000001

>  <r_qp_IP(eV)>  (1556) 
8.5169999999999995

>  <r_qp_Jm>  (1556) 
0.36359475564545202

>  <r_qp_PISA>  (1556) 
410.32499999999999

>  <r_qp_PSA>  (1556) 
59.418999999999997

>  <r_qp_PercentHumanOralAbsorption>  (1556) 
100

>  <r_qp_QPPCaco>  (1556) 
795.88400000000001

>  <r_qp_QPPMDCK>  (1556) 
568.37400000000002

>  <r_qp_QPlogBB>  (1556) 
0.081000000000000003

>  <r_qp_QPlogHERG>  (1556) 
-6.2839999999999998

>  <r_qp_QPlogKhsa>  (1556) 
0.66900000000000004

>  <r_qp_QPlogKp>  (1556) 
-2.3250000000000002

>  <r_qp_QPlogPC16>  (1556) 
14.24

>  <r_qp_QPlogPo/w>  (1556) 
4.5990000000000002

>  <r_qp_QPlogPoct>  (1556) 
22.530999999999999

>  <r_qp_QPlogPw>  (1556) 
12.065

>  <r_qp_QPlogS>  (1556) 
-3.7610000000000001

>  <r_qp_QPpolrz>  (1556) 
46.521999999999998

>  <r_qp_SASA>  (1556) 
676.24599999999998

>  <r_qp_SAamideO>  (1556) 
0

>  <r_qp_SAfluorine>  (1556) 
22.558

>  <r_qp_WPSA>  (1556) 
22.558

>  <r_qp_accptHB>  (1556) 
6.5

>  <r_qp_dip^2/V>  (1556) 
0.038097399999999997

>  <r_qp_dipole>  (1556) 
7.1630000000000003

>  <r_qp_donorHB>  (1556) 
2

>  <r_qp_glob>  (1556) 
0.8721082

>  <r_qp_mol_MW>  (1556) 
442.53500000000003

>  <r_qp_volume>  (1556) 
1346.681

>  <r_sd_BIOSOLVEIT.INFINISEE\_FTREES\_SIMILARITY>  (1556) 
0.93999999999999995

>  <r_sd_BIOSOLVEIT.LOGP>  (1556) 
3.8117000000000001

>  <r_sd_BIOSOLVEIT.MOLECULAR\_WEIGHT>  (1556) 
443.54300000000001

>  <r_sd_BIOSOLVEIT.TPSA>  (1556) 
58.460000000000001

>  <i_epik_Tot_Q>  (1556) 
1

>  <i_epik_Tot_abs_Q>  (1556) 
1

>  <i_f3d_flags>  (1556) 
0

>  <i_i_glide_confnum>  (1556) 
3

>  <i_i_glide_lignum>  (1556) 
680

>  <i_i_glide_posenum>  (1556) 
10

>  <i_i_glide_rotatable_bonds>  (1556) 
9

>  <i_lp_mmshare_version>  (1556) 
65135

>  <i_m_ct_format>  (1556) 
2

>  <i_m_source_file_index>  (1556) 
2170

>  <i_qp_#NandO>  (1556) 
5

>  <i_qp_#acid>  (1556) 
0

>  <i_qp_#amide>  (1556) 
0

>  <i_qp_#amidine>  (1556) 
0

>  <i_qp_#amine>  (1556) 
1

>  <i_qp_#in34>  (1556) 
0

>  <i_qp_#in56>  (1556) 
22

>  <i_qp_#metab>  (1556) 
6

>  <i_qp_#nonHatm>  (1556) 
33

>  <i_qp_#noncon>  (1556) 
0

>  <i_qp_#ringatoms>  (1556) 
22

>  <i_qp_#rotor>  (1556) 
8

>  <i_qp_#rtvFG>  (1556) 
0

>  <i_qp_#stars>  (1556) 
0

>  <i_qp_CNS>  (1556) 
1

>  <i_qp_HumanOralAbsorption>  (1556) 
3

>  <i_qp_RuleOfFive>  (1556) 
0

>  <i_qp_RuleOfThree>  (1556) 
0

>  <i_sd_BIOSOLVEIT.INFINISEE\_RESULT\_RANK>  (1556) 
1379

>  <i_sd_version>  (1556) 
0

>  <b_lp_Chiralities_Consistent>  (1556) 
1

>  <b_sd_chiral_flag>  (1556) 
0

>  <canonical_id>  (1556) 
ATP-HTVS-F4F3BDD05BAD

>  <compound_code>  (1556) 
69409

>  <title>  (1556) 
rxn502b____EMOL488417____EMOL44466703____EMOL2873214

>  <variant>  (1556) 
69409-1

>  <source_file>  (1556) 
运行/运行/ATP-VSW/ATP-VSW-DOCK_HTVS_1-001_lib/ATP-VSW-DOCK_HTVS_1-001_lib

>  <canonical_smiles>  (1556) 
C[NH+](C)Cc1cccc(CNc2cc3ccccc3nc2NC(=O)Cc2ccccc2F)c1

>  <scaffold>  (1556) 
O=C(Cc1ccccc1)Nc1nc2ccccc2cc1NCc1ccccc1

>  <molecular_formula>  (1556) 
C27H28FN4O+

$$$$
ATP-HTVS-F52F884BA0B4
     RDKit          3D

 50 53  0  0  0  0  0  0  0  0999 V2000
  196.7656  187.7371  157.3009 Cl  0  0  0  0  0  0  0  0  0  0  0  0
  196.8740  186.0507  157.6945 C   0  0  0  0  0  0  0  0  0  0  0  0
  197.4875  185.1173  156.8130 C   0  0  0  0  0  0  0  0  0  0  0  0
  197.5040  183.7446  157.1670 C   0  0  0  0  0  0  0  0  0  0  0  0
  196.9147  183.3058  158.3679 C   0  0  0  0  0  0  0  0  0  0  0  0
  196.3185  184.2341  159.2381 C   0  0  0  0  0  0  0  0  0  0  0  0
  195.7528  183.8080  160.3885 F   0  0  0  0  0  0  0  0  0  0  0  0
  196.2989  185.6048  158.9071 C   0  0  0  0  0  0  0  0  0  0  0  0
  195.6296  186.5899  159.8524 C   0  0  2  0  0  0  0  0  0  0  0  0
  198.1094  185.5520  155.5126 C   0  0  0  0  0  0  0  0  0  0  0  0
  198.8594  186.5264  155.4549 O   0  0  0  0  0  0  0  0  0  0  0  0
  197.7595  184.7963  154.4594 N   0  0  0  0  0  0  0  0  0  0  0  0
  198.1087  184.9583  153.0903 C   0  0  0  0  0  0  0  0  0  0  0  0
  198.1051  183.8230  152.2422 C   0  0  0  0  0  0  0  0  0  0  0  0
  197.8244  182.5476  152.7762 N   0  0  0  0  0  0  0  0  0  0  0  0
  198.6294  181.8848  153.7357 C   0  0  0  0  0  0  0  0  0  0  0  0
  198.1467  180.8044  154.5161 C   0  0  0  0  0  0  0  0  0  0  0  0
  198.9536  180.2139  155.5085 C   0  0  0  0  0  0  0  0  0  0  0  0
  200.2629  180.6806  155.7268 C   0  0  0  0  0  0  0  0  0  0  0  0
  200.7630  181.7392  154.9493 C   0  0  0  0  0  0  0  0  0  0  0  0
  199.9572  182.3297  153.9598 C   0  0  0  0  0  0  0  0  0  0  0  0
  196.4014  182.1954  152.6945 C   0  0  1  0  0  0  0  0  0  0  0  0
  196.1842  180.9435  151.9464 C   0  0  0  0  0  0  0  0  0  0  0  0
  196.0087  179.9612  151.3561 N   0  0  0  0  0  0  0  0  0  0  0  0
  198.3979  184.0087  150.8638 C   0  0  0  0  0  0  0  0  0  0  0  0
  198.6813  185.3238  150.3988 C   0  0  0  0  0  0  0  0  0  0  0  0
  198.6861  186.3952  151.2199 N   0  0  0  0  0  0  0  0  0  0  0  0
  198.4083  186.2160  152.5248 C   0  0  0  0  0  0  0  0  0  0  0  0
  198.9781  185.5128  149.0330 C   0  0  0  0  0  0  0  0  0  0  0  0
  199.0123  184.4315  148.1355 C   0  0  0  0  0  0  0  0  0  0  0  0
  198.7408  183.1337  148.5990 C   0  0  0  0  0  0  0  0  0  0  0  0
  198.4367  182.9214  149.9571 C   0  0  0  0  0  0  0  0  0  0  0  0
  197.9766  183.0168  156.5239 H   0  0  0  0  0  0  0  0  0  0  0  0
  196.9241  182.2560  158.6178 H   0  0  0  0  0  0  0  0  0  0  0  0
  195.2994  186.1186  160.7801 H   0  0  0  0  0  0  0  0  0  0  0  0
  194.7558  187.0264  159.3695 H   0  0  0  0  0  0  0  0  0  0  0  0
  196.3205  187.3937  160.1184 H   0  0  0  0  0  0  0  0  0  0  0  0
  197.2688  183.9436  154.6824 H   0  0  0  0  0  0  0  0  0  0  0  0
  197.1469  180.4116  154.3936 H   0  0  0  0  0  0  0  0  0  0  0  0
  198.5575  179.4057  156.1074 H   0  0  0  0  0  0  0  0  0  0  0  0
  200.8800  180.2271  156.4886 H   0  0  0  0  0  0  0  0  0  0  0  0
  201.7651  182.1110  155.1162 H   0  0  0  0  0  0  0  0  0  0  0  0
  200.3732  183.1474  153.3884 H   0  0  0  0  0  0  0  0  0  0  0  0
  195.9539  182.1218  153.6884 H   0  0  0  0  0  0  0  0  0  0  0  0
  195.8376  182.9713  152.1719 H   0  0  0  0  0  0  0  0  0  0  0  0
  198.3967  187.1194  153.1166 H   0  0  0  0  0  0  0  0  0  0  0  0
  199.2091  186.5057  148.6802 H   0  0  0  0  0  0  0  0  0  0  0  0
  199.2517  184.5981  147.0958 H   0  0  0  0  0  0  0  0  0  0  0  0
  198.7838  182.2987  147.9155 H   0  0  0  0  0  0  0  0  0  0  0  0
  198.2561  181.9119  150.2946 H   0  0  0  0  0  0  0  0  0  0  0  0
  1  2  1  0
  2  3  2  0
  2  8  1  0
  3  4  1  0
  3 10  1  0
  4  5  2  0
  4 33  1  0
  5  6  1  0
  5 34  1  0
  6  7  1  0
  6  8  2  0
  8  9  1  0
  9 35  1  1
  9 36  1  0
  9 37  1  0
 10 11  2  0
 10 12  1  0
 12 13  1  0
 12 38  1  0
 13 14  2  0
 13 28  1  0
 14 15  1  0
 14 25  1  0
 15 16  1  0
 15 22  1  0
 16 17  2  0
 16 21  1  0
 17 18  1  0
 17 39  1  0
 18 19  2  0
 18 40  1  0
 19 20  1  0
 19 41  1  0
 20 21  2  0
 20 42  1  0
 21 43  1  0
 22 23  1  0
 22 44  1  1
 22 45  1  0
 23 24  3  0
 25 26  1  0
 25 32  2  0
 26 27  1  0
 26 29  2  0
 27 28  2  0
 28 46  1  0
 29 30  1  0
 29 47  1  0
 30 31  2  0
 30 48  1  0
 31 32  1  0
 31 49  1  0
 32 50  1  0
M  END
>  <s_epik_cmdline>  (1557) 
J2VwaWtfcHl0aG9uJywgJy1waCcsICc3LjAwMDAwMCcsICctcGh0JywgJzIuMDAwMDAwJywgJy1tcycsICcxNicsICctdG4nLCAnOCcsICctbWEnLCAnMjAwJywgJy1pbWFlJywgJzxpbmZpbGUubWFlPicsICctb21hZScsICc8b3V0ZmlsZS5tYWU+Jw==

>  <s_epik_input>  (1557) 
W0NIM11jMWMoRilbY0hdW2NIXWMoYzFDbClDKD1PKVtOSF1jKFtjSF1uYyhjMjMpW2NIXVtjSF1bY0hdW2NIXTMpYzJOKFtDSDJdQyNOKWM0W2NIXVtjSF1bY0hdW2NIXVtjSF00

>  <s_i_glide_gridfile>  (1557) 
ATP-Grid

>  <s_lp_Force_Field>  (1557) 
OPLS_2005

>  <s_lp_Variant>  (1557) 
rxn502b____EMOL30555823____EMOL30488121____EMOL712348-1

>  <s_lp_label>  (1557) 
2816_sdstereoexpander_1_neutralizer_1_epik_1_stereoizer_1

>  <s_m_source_file>  (1557) 
ATP-VSW-LIGPREP-002-in.maegz

>  <s_sd_BIOSOLVEIT.INFINISEE\_QUERY\_NAME>  (1557) 
Ref-Lig

>  <s_sd_BIOSOLVEIT.INFINISEE\_QUERY\_SMILES>  (1557) 
S(c1nc2c(cc1C[NH2+]Cc3ccc(cc3)C[NH+](C)C)cccc2)Cc4ccccc4

>  <s_sd_BIOSOLVEIT.INFINISEE\_REACTION\_NAME>  (1557) 
rxn502b

>  <s_sd_BIOSOLVEIT.INFINISEE\_REAGENT1\_NAME>  (1557) 
EMOL30555823

>  <s_sd_BIOSOLVEIT.INFINISEE\_REAGENT1\_SMILES>  (1557) 
Clc1c(c(F)ccc1C(=O)O)C

>  <s_sd_BIOSOLVEIT.INFINISEE\_REAGENT2\_NAME>  (1557) 
EMOL30488121

>  <s_sd_BIOSOLVEIT.INFINISEE\_REAGENT2\_SMILES>  (1557) 
Brc1c(N)cnc2c1cccc2

>  <s_sd_BIOSOLVEIT.INFINISEE\_REAGENT3\_NAME>  (1557) 
EMOL712348

>  <s_sd_BIOSOLVEIT.INFINISEE\_REAGENT3\_SMILES>  (1557) 
N#CCNc1ccccc1

>  <s_sd_BIOSOLVEIT.INFINISEE\_SPACE>  (1557) 
eXplore_7tr_2022-12

>  <s_vsw_compound_code>  (1557) 
90082

>  <s_vsw_variant>  (1557) 
90082-1

>  <r_epik_Charging_Adjusted_Penalty>  (1557) 
0.014631335965210801

>  <r_epik_Ionization_Penalty>  (1557) 
0.0147

>  <r_epik_Ionization_Penalty_Charging>  (1557) 
0

>  <r_epik_Ionization_Penalty_Neutral>  (1557) 
0.0147

>  <r_epik_State_Penalty>  (1557) 
0.0146

>  <r_i_docking_score>  (1557) 
-3.5259089201909402

>  <r_i_glide_ecoul>  (1557) 
-2.0301656723022501

>  <r_i_glide_eff_state_penalty>  (1557) 
0.0146

>  <r_i_glide_einternal>  (1557) 
2.2445366382598899

>  <r_i_glide_emodel>  (1557) 
-42.412843510323398

>  <r_i_glide_energy>  (1557) 
-35.084658622741699

>  <r_i_glide_erotb>  (1557) 
0.50533414558309298

>  <r_i_glide_esite>  (1557) 
-0.0072627796774321299

>  <r_i_glide_evdw>  (1557) 
-33.054492950439503

>  <r_i_glide_gscore>  (1557) 
-3.5405089201909399

>  <r_i_glide_hbond>  (1557) 
0

>  <r_i_glide_ligand_efficiency>  (1557) 
-0.110184653755967

>  <r_i_glide_ligand_efficiency_ln>  (1557) 
-0.78954711987791903

>  <r_i_glide_ligand_efficiency_sa>  (1557) 
-0.34981447016182599

>  <r_i_glide_lipo>  (1557) 
-1.2375818771185201

>  <r_i_glide_metal>  (1557) 
-0

>  <r_i_glide_rewards>  (1557) 
-0.84374891061077195

>  <r_lp_Energy>  (1557) 
35.787723999999997

>  <r_qp_ACxDN^.5/SA>  (1557) 
0.0081235000000000005

>  <r_qp_CIQPlogS>  (1557) 
-8.3859999999999992

>  <r_qp_EA(eV)>  (1557) 
1.3129999999999999

>  <r_qp_FISA>  (1557) 
112.28700000000001

>  <r_qp_FOSA>  (1557) 
87.832999999999998

>  <r_qp_IP(eV)>  (1557) 
8.8970000000000002

>  <r_qp_Jm>  (1557) 
0.00169597996969958

>  <r_qp_PISA>  (1557) 
415.40100000000001

>  <r_qp_PSA>  (1557) 
68.997

>  <r_qp_PercentHumanOralAbsorption>  (1557) 
100

>  <r_qp_QPPCaco>  (1557) 
853.26900000000001

>  <r_qp_QPPMDCK>  (1557) 
905.54999999999995

>  <r_qp_QPlogBB>  (1557) 
-0.71599999999999997

>  <r_qp_QPlogHERG>  (1557) 
-6.1539999999999999

>  <r_qp_QPlogKhsa>  (1557) 
0.73999999999999999

>  <r_qp_QPlogKp>  (1557) 
-1.55

>  <r_qp_QPlogPC16>  (1557) 
13.848000000000001

>  <r_qp_QPlogPo/w>  (1557) 
4.8929999999999998

>  <r_qp_QPlogPoct>  (1557) 
20.526

>  <r_qp_QPlogPw>  (1557) 
10.518000000000001

>  <r_qp_QPlogS>  (1557) 
-6.8689999999999998

>  <r_qp_QPpolrz>  (1557) 
44.704000000000001

>  <r_qp_SASA>  (1557) 
677.048

>  <r_qp_SAamideO>  (1557) 
0

>  <r_qp_SAfluorine>  (1557) 
38.262999999999998

>  <r_qp_WPSA>  (1557) 
61.527999999999999

>  <r_qp_accptHB>  (1557) 
5.5

>  <r_qp_dip^2/V>  (1557) 
0.054903399999999998

>  <r_qp_dipole>  (1557) 
8.3439999999999994

>  <r_qp_donorHB>  (1557) 
1

>  <r_qp_glob>  (1557) 
0.83679150000000002

>  <r_qp_mol_MW>  (1557) 
444.89499999999998

>  <r_qp_volume>  (1557) 
1267.9659999999999

>  <r_sd_BIOSOLVEIT.INFINISEE\_FTREES\_SIMILARITY>  (1557) 
0.90600000000000003

>  <r_sd_BIOSOLVEIT.LOGP>  (1557) 
6.2496999999999998

>  <r_sd_BIOSOLVEIT.MOLECULAR\_WEIGHT>  (1557) 
444.89499999999998

>  <r_sd_BIOSOLVEIT.TPSA>  (1557) 
69.019999999999996

>  <i_epik_Tot_Q>  (1557) 
0

>  <i_epik_Tot_abs_Q>  (1557) 
0

>  <i_f3d_flags>  (1557) 
0

>  <i_i_glide_confnum>  (1557) 
2

>  <i_i_glide_lignum>  (1557) 
1367

>  <i_i_glide_posenum>  (1557) 
1

>  <i_i_glide_rotatable_bonds>  (1557) 
6

>  <i_lp_mmshare_version>  (1557) 
65135

>  <i_m_ct_format>  (1557) 
2

>  <i_m_source_file_index>  (1557) 
2816

>  <i_qp_#NandO>  (1557) 
5

>  <i_qp_#acid>  (1557) 
0

>  <i_qp_#amide>  (1557) 
0

>  <i_qp_#amidine>  (1557) 
0

>  <i_qp_#amine>  (1557) 
0

>  <i_qp_#in34>  (1557) 
0

>  <i_qp_#in56>  (1557) 
22

>  <i_qp_#metab>  (1557) 
5

>  <i_qp_#nonHatm>  (1557) 
32

>  <i_qp_#noncon>  (1557) 
0

>  <i_qp_#ringatoms>  (1557) 
22

>  <i_qp_#rotor>  (1557) 
6

>  <i_qp_#rtvFG>  (1557) 
0

>  <i_qp_#stars>  (1557) 
1

>  <i_qp_CNS>  (1557) 
-1

>  <i_qp_HumanOralAbsorption>  (1557) 
1

>  <i_qp_RuleOfFive>  (1557) 
0

>  <i_qp_RuleOfThree>  (1557) 
1

>  <i_sd_BIOSOLVEIT.INFINISEE\_RESULT\_RANK>  (1557) 
65268

>  <i_sd_version>  (1557) 
0

>  <b_lp_Chiralities_Consistent>  (1557) 
1

>  <b_sd_chiral_flag>  (1557) 
0

>  <canonical_id>  (1557) 
ATP-HTVS-F52F884BA0B4

>  <compound_code>  (1557) 
90082

>  <title>  (1557) 
rxn502b____EMOL30555823____EMOL30488121____EMOL712348

>  <variant>  (1557) 
90082-1

>  <source_file>  (1557) 
运行/运行/ATP-VSW/ATP-VSW-DOCK_HTVS_1-002_lib.maegz

>  <canonical_smiles>  (1557) 
Cc1c(F)ccc(C(=O)Nc2cnc3ccccc3c2N(CC#N)c2ccccc2)c1Cl

>  <scaffold>  (1557) 
O=C(Nc1cnc2ccccc2c1Nc1ccccc1)c1ccccc1

>  <molecular_formula>  (1557) 
C25H18ClFN4O

$$$$
ATP-HTVS-F53B308249C7
     RDKit          3D

 46 48  0  0  0  0  0  0  0  0999 V2000
  194.7744  186.6334  161.0214 S   0  0  0  0  0  0  0  0  0  0  0  0
  195.7658  185.6271  159.9716 C   0  0  0  0  0  0  0  0  0  0  0  0
  196.9170  186.1928  159.6275 N   0  0  0  0  0  0  0  0  0  0  0  0
  197.0627  187.4924  160.1288 C   0  0  0  0  0  0  0  0  0  0  0  0
  198.1935  188.2989  159.8631 N   0  0  0  0  0  0  0  0  0  0  0  0
  199.4319  187.7808  159.2937 C   0  0  1  0  0  0  0  0  0  0  0  0
  199.2322  187.1572  157.9384 C   0  0  0  0  0  0  0  0  0  0  0  0
  199.5918  185.8115  157.7061 C   0  0  0  0  0  0  0  0  0  0  0  0
  199.3277  185.2104  156.4624 C   0  0  0  0  0  0  0  0  0  0  0  0
  198.6508  185.9369  155.4633 C   0  0  0  0  0  0  0  0  0  0  0  0
  198.3197  187.2975  155.6866 C   0  0  0  0  0  0  0  0  0  0  0  0
  198.6150  187.9084  156.9254 C   0  0  0  0  0  0  0  0  0  0  0  0
  198.2905  185.2707  154.1441 C   0  0  1  0  0  0  0  0  0  0  0  0
  197.1411  184.3190  154.2018 N   0  0  2  0  0  0  0  0  0  0  0  0
  197.2259  183.2359  155.2164 C   0  0  2  0  0  0  0  0  0  0  0  0
  196.8337  183.7527  152.8647 C   0  0  2  0  0  0  0  0  0  0  0  0
  196.0100  187.8504  160.9431 C   0  0  0  0  0  0  0  0  0  0  0  0
  195.3074  184.3300  159.5012 C   0  0  0  0  0  0  0  0  0  0  0  0
  196.2016  183.2544  159.3941 C   0  0  0  0  0  0  0  0  0  0  0  0
  195.7338  181.9983  158.9360 C   0  0  0  0  0  0  0  0  0  0  0  0
  194.3956  181.8530  158.5205 C   0  0  0  0  0  0  0  0  0  0  0  0
  193.8918  180.6673  158.1106 O   0  0  0  0  0  0  0  0  0  0  0  0
  193.5331  182.9682  158.5617 C   0  0  0  0  0  0  0  0  0  0  0  0
  193.9749  184.1901  159.1070 C   0  0  0  0  0  0  0  0  0  0  0  0
  198.3033  189.1359  160.4164 H   0  0  0  0  0  0  0  0  0  0  0  0
  200.1330  188.5958  159.1688 H   0  0  0  0  0  0  0  0  0  0  0  0
  199.9053  187.0665  159.9660 H   0  0  0  0  0  0  0  0  0  0  0  0
  200.0008  185.2149  158.5203 H   0  0  0  0  0  0  0  0  0  0  0  0
  199.6478  184.2013  156.3132 H   0  0  0  0  0  0  0  0  0  0  0  0
  197.8120  187.8915  154.9315 H   0  0  0  0  0  0  0  0  0  0  0  0
  198.3073  188.9228  157.1232 H   0  0  0  0  0  0  0  0  0  0  0  0
  198.0399  186.0463  153.4151 H   0  0  0  0  0  0  0  0  0  0  0  0
  199.1815  184.7776  153.7583 H   0  0  0  0  0  0  0  0  0  0  0  0
  198.1372  182.6597  155.0648 H   0  0  0  0  0  0  0  0  0  0  0  0
  196.3774  182.5323  155.1243 H   0  0  0  0  0  0  0  0  0  0  0  0
  197.2070  183.6247  156.2362 H   0  0  0  0  0  0  0  0  0  0  0  0
  197.6729  183.1658  152.4983 H   0  0  0  0  0  0  0  0  0  0  0  0
  196.6161  184.5357  152.1362 H   0  0  0  0  0  0  0  0  0  0  0  0
  195.9706  183.0882  152.9045 H   0  0  0  0  0  0  0  0  0  0  0  0
  195.9191  188.7487  161.5223 H   0  0  0  0  0  0  0  0  0  0  0  0
  197.2261  183.3766  159.7248 H   0  0  0  0  0  0  0  0  0  0  0  0
  196.4004  181.1508  158.9209 H   0  0  0  0  0  0  0  0  0  0  0  0
  194.5735  179.9962  157.9903 H   0  0  0  0  0  0  0  0  0  0  0  0
  192.5452  182.8785  158.1345 H   0  0  0  0  0  0  0  0  0  0  0  0
  193.2834  185.0072  159.2262 H   0  0  0  0  0  0  0  0  0  0  0  0
  196.3262  184.8609  154.4625 H   0  0  0  0  0  0  0  0  0  0  0  0
  1  2  1  0
  1 17  1  0
  2  3  2  0
  2 18  1  0
  3  4  1  0
  4  5  1  0
  4 17  2  0
  5  6  1  0
  5 25  1  0
  6  7  1  0
  6 26  1  6
  6 27  1  0
  7  8  1  0
  7 12  2  0
  8  9  2  0
  8 28  1  0
  9 10  1  0
  9 29  1  0
 10 11  2  0
 10 13  1  0
 11 12  1  0
 11 30  1  0
 12 31  1  0
 13 14  1  0
 13 32  1  6
 13 33  1  0
 14 15  1  0
 14 16  1  0
 14 46  1  1
 15 34  1  6
 15 35  1  0
 15 36  1  0
 16 37  1  6
 16 38  1  0
 16 39  1  0
 17 40  1  0
 18 19  1  0
 18 24  2  0
 19 20  2  0
 19 41  1  0
 20 21  1  0
 20 42  1  0
 21 22  1  0
 21 23  2  0
 22 43  1  0
 23 24  1  0
 23 44  1  0
 24 45  1  0
M  CHG  1  14   1
M  END
>  <s_epik_cmdline>  (1558) 
J2VwaWtfcHl0aG9uJywgJy1waCcsICc3LjAwMDAwMCcsICctcGh0JywgJzIuMDAwMDAwJywgJy1tcycsICcxNicsICctdG4nLCAnOCcsICctbWEnLCAnMjAwJywgJy1pbWFlJywgJzxpbmZpbGUubWFlPicsICctb21hZScsICc8b3V0ZmlsZS5tYWU+Jw==

>  <s_epik_input>  (1558) 
W2NIXTFbY0hdYyhbT0hdKVtjSF1bY0hdYzEtYzJzW2NIXWMobjIpW05IXVtDSDJdYzNbY0hdW2NIXWMoW2NIXVtjSF0zKVtDSDJdTihbQ0gzXSlbQ0gzXQ==

>  <s_i_glide_gridfile>  (1558) 
ATP-Grid

>  <s_lp_Force_Field>  (1558) 
OPLS_2005

>  <s_lp_Variant>  (1558) 
WXDL_15E____QS5063____LN00175450____BT0555-1

>  <s_lp_label>  (1558) 
636_sdstereoexpander_1_neutralizer_1_epik_1_stereoizer_1

>  <s_m_source_file>  (1558) 
ATP-VSW-LIGPREP-001-in.maegz

>  <s_sd_BIOSOLVEIT.INFINISEE\_QUERY\_NAME>  (1558) 
Ref-Lig

>  <s_sd_BIOSOLVEIT.INFINISEE\_QUERY\_SMILES>  (1558) 
S(c1nc2c(cc1C[NH2+]Cc3ccc(cc3)C[NH+](C)C)cccc2)Cc4ccccc4

>  <s_sd_BIOSOLVEIT.INFINISEE\_REACTION\_NAME>  (1558) 
WXDL_15E

>  <s_sd_BIOSOLVEIT.INFINISEE\_REAGENT1\_NAME>  (1558) 
QS5063

>  <s_sd_BIOSOLVEIT.INFINISEE\_REAGENT1\_SMILES>  (1558) 
O=Cc1ccc(cc1)CN(C)C

>  <s_sd_BIOSOLVEIT.INFINISEE\_REAGENT2\_NAME>  (1558) 
LN00175450

>  <s_sd_BIOSOLVEIT.INFINISEE\_REAGENT2\_SMILES>  (1558) 
BrC=1SC=C(N1)NC(=O)OC(C)(C)C

>  <s_sd_BIOSOLVEIT.INFINISEE\_REAGENT3\_NAME>  (1558) 
BT0555

>  <s_sd_BIOSOLVEIT.INFINISEE\_REAGENT3\_SMILES>  (1558) 
Oc1ccc(cc1)B(O)O

>  <s_sd_BIOSOLVEIT.INFINISEE\_SPACE>  (1558) 
GalaXi_12bn_2023-03

>  <s_vsw_compound_code>  (1558) 
20321

>  <s_vsw_variant>  (1558) 
20321-1

>  <r_epik_Charging_Adjusted_Penalty>  (1558) 
0.086020260177955402

>  <r_epik_Ionization_Penalty>  (1558) 
0.045600000000000002

>  <r_epik_Ionization_Penalty_Charging>  (1558) 
0.040500000000000001

>  <r_epik_Ionization_Penalty_Neutral>  (1558) 
0.0051000000000000004

>  <r_epik_State_Penalty>  (1558) 
0.045499999999999999

>  <r_i_docking_score>  (1558) 
-5.3134956915329603

>  <r_i_glide_ecoul>  (1558) 
-14.6858987808228

>  <r_i_glide_eff_state_penalty>  (1558) 
0.045499999999999999

>  <r_i_glide_einternal>  (1558) 
2.9566283226013201

>  <r_i_glide_emodel>  (1558) 
-52.1249323985218

>  <r_i_glide_energy>  (1558) 
-34.729914665222203

>  <r_i_glide_erotb>  (1558) 
0.81687508301151401

>  <r_i_glide_esite>  (1558) 
-0.060608772407298603

>  <r_i_glide_evdw>  (1558) 
-20.0440158843994

>  <r_i_glide_gscore>  (1558) 
-5.35899569153296

>  <r_i_glide_hbond>  (1558) 
-0.094361475020504501

>  <r_i_glide_ligand_efficiency>  (1558) 
-0.22139565381387299

>  <r_i_glide_ligand_efficiency_ln>  (1558) 
-1.2717633394135699

>  <r_i_glide_ligand_efficiency_sa>  (1558) 
-0.63861557248545497

>  <r_i_glide_lipo>  (1558) 
-1.50306591577329

>  <r_i_glide_metal>  (1558) 
-0

>  <r_i_glide_rewards>  (1558) 
-1.3127489999999999

>  <r_lp_Energy>  (1558) 
13.990247999999999

>  <r_lp_tautomer_probability>  (1558) 
0.999961801456549

>  <r_qp_ACxDN^.5/SA>  (1558) 
0.0103252

>  <r_qp_CIQPlogS>  (1558) 
-4.1230000000000002

>  <r_qp_EA(eV)>  (1558) 
0.83399999999999996

>  <r_qp_FISA>  (1558) 
80.736000000000004

>  <r_qp_FOSA>  (1558) 
219.48599999999999

>  <r_qp_IP(eV)>  (1558) 
8.1999999999999993

>  <r_qp_Jm>  (1558) 
0.00706993022485892

>  <r_qp_PISA>  (1558) 
308.49099999999999

>  <r_qp_PSA>  (1558) 
48.847000000000001

>  <r_qp_PercentHumanOralAbsorption>  (1558) 
95.542000000000002

>  <r_qp_QPPCaco>  (1558) 
423.82299999999998

>  <r_qp_QPPMDCK>  (1558) 
367.03199999999998

>  <r_qp_QPlogBB>  (1558) 
-0.11899999999999999

>  <r_qp_QPlogHERG>  (1558) 
-6.8179999999999996

>  <r_qp_QPlogKhsa>  (1558) 
0.46800000000000003

>  <r_qp_QPlogKp>  (1558) 
-3.407

>  <r_qp_QPlogPC16>  (1558) 
12.252000000000001

>  <r_qp_QPlogPo/w>  (1558) 
3.6850000000000001

>  <r_qp_QPlogPoct>  (1558) 
18.044

>  <r_qp_QPlogPw>  (1558) 
10.231

>  <r_qp_QPlogS>  (1558) 
-4.274

>  <r_qp_QPpolrz>  (1558) 
38.390000000000001

>  <r_qp_SASA>  (1558) 
650.59699999999998

>  <r_qp_SAamideO>  (1558) 
0

>  <r_qp_SAfluorine>  (1558) 
0

>  <r_qp_WPSA>  (1558) 
41.884999999999998

>  <r_qp_accptHB>  (1558) 
4.75

>  <r_qp_dip^2/V>  (1558) 
0.0010438999999999999

>  <r_qp_dipole>  (1558) 
1.089

>  <r_qp_donorHB>  (1558) 
2

>  <r_qp_glob>  (1558) 
0.80914949999999997

>  <r_qp_mol_MW>  (1558) 
339.45400000000001

>  <r_qp_volume>  (1558) 
1135.7

>  <r_sd_BIOSOLVEIT.INFINISEE\_FTREES\_SIMILARITY>  (1558) 
0.90600000000000003

>  <r_sd_BIOSOLVEIT.LOGP>  (1558) 
2.7723

>  <r_sd_BIOSOLVEIT.MOLECULAR\_WEIGHT>  (1558) 
340.46800000000002

>  <r_sd_BIOSOLVEIT.TPSA>  (1558) 
49.590000000000003

>  <i_epik_Tot_Q>  (1558) 
1

>  <i_epik_Tot_abs_Q>  (1558) 
1

>  <i_f3d_flags>  (1558) 
0

>  <i_i_glide_confnum>  (1558) 
5

>  <i_i_glide_lignum>  (1558) 
78

>  <i_i_glide_posenum>  (1558) 
11

>  <i_i_glide_rotatable_bonds>  (1558) 
7

>  <i_lp_mmshare_version>  (1558) 
65135

>  <i_m_ct_format>  (1558) 
2

>  <i_m_source_file_index>  (1558) 
636

>  <i_qp_#NandO>  (1558) 
4

>  <i_qp_#acid>  (1558) 
0

>  <i_qp_#amide>  (1558) 
0

>  <i_qp_#amidine>  (1558) 
0

>  <i_qp_#amine>  (1558) 
1

>  <i_qp_#in34>  (1558) 
0

>  <i_qp_#in56>  (1558) 
17

>  <i_qp_#metab>  (1558) 
5

>  <i_qp_#nonHatm>  (1558) 
24

>  <i_qp_#noncon>  (1558) 
0

>  <i_qp_#ringatoms>  (1558) 
17

>  <i_qp_#rotor>  (1558) 
6

>  <i_qp_#rtvFG>  (1558) 
0

>  <i_qp_#stars>  (1558) 
0

>  <i_qp_CNS>  (1558) 
1

>  <i_qp_HumanOralAbsorption>  (1558) 
3

>  <i_qp_RuleOfFive>  (1558) 
0

>  <i_qp_RuleOfThree>  (1558) 
0

>  <i_sd_BIOSOLVEIT.INFINISEE\_RESULT\_RANK>  (1558) 
65158

>  <i_sd_version>  (1558) 
0

>  <b_lp_Chiralities_Consistent>  (1558) 
1

>  <b_sd_chiral_flag>  (1558) 
0

>  <canonical_id>  (1558) 
ATP-HTVS-F53B308249C7

>  <compound_code>  (1558) 
20321

>  <title>  (1558) 
WXDL_15E____QS5063____LN00175450____BT0555

>  <variant>  (1558) 
20321-1

>  <source_file>  (1558) 
运行/运行/ATP-VSW/ATP-VSW-DOCK_HTVS_1-001_lib/ATP-VSW-DOCK_HTVS_1-001_lib

>  <canonical_smiles>  (1558) 
C[NH+](C)Cc1ccc(CNc2csc(-c3ccc(O)cc3)n2)cc1

>  <scaffold>  (1558) 
c1ccc(CNc2csc(-c3ccccc3)n2)cc1

>  <molecular_formula>  (1558) 
C19H22N3OS+

$$$$
ATP-HTVS-F54B40793D2A
     RDKit          3D

 47 50  0  0  0  0  0  0  0  0999 V2000
  202.4531  183.9831  160.1021 F   0  0  0  0  0  0  0  0  0  0  0  0
  201.2527  184.5340  159.8021 C   0  0  0  0  0  0  0  0  0  0  0  0
  201.1319  185.9282  159.6514 C   0  0  0  0  0  0  0  0  0  0  0  0
  199.8841  186.4990  159.3327 C   0  0  0  0  0  0  0  0  0  0  0  0
  198.7464  185.6770  159.1744 C   0  0  0  0  0  0  0  0  0  0  0  0
  198.8745  184.2811  159.3322 C   0  0  0  0  0  0  0  0  0  0  0  0
  200.1243  183.7108  159.6354 C   0  0  0  0  0  0  0  0  0  0  0  0
  197.3899  186.2863  158.8336 C   0  0  1  0  0  0  0  0  0  0  0  0
  196.9939  186.1021  157.4382 N   0  0  0  0  0  0  0  0  0  0  0  0
  197.7333  186.7504  156.4325 C   0  0  0  0  0  0  0  0  0  0  0  0
  198.0020  186.1325  155.1777 C   0  0  0  0  0  0  0  0  0  0  0  0
  197.5035  184.8361  154.8707 N   0  0  0  0  0  0  0  0  0  0  0  0
  197.9193  183.6959  155.4547 C   0  0  0  0  0  0  0  0  0  0  0  0
  198.6071  183.6677  156.4755 O   0  0  0  0  0  0  0  0  0  0  0  0
  197.4743  182.4130  154.8137 C   0  0  0  0  0  0  0  0  0  0  0  0
  197.4747  181.2151  155.5660 C   0  0  0  0  0  0  0  0  0  0  0  0
  197.1319  179.9922  154.9607 C   0  0  0  0  0  0  0  0  0  0  0  0
  196.7877  179.9623  153.5948 C   0  0  0  0  0  0  0  0  0  0  0  0
  196.7820  181.1474  152.8387 C   0  0  0  0  0  0  0  0  0  0  0  0
  197.1371  182.3670  153.4403 C   0  0  0  0  0  0  0  0  0  0  0  0
  198.7612  186.8466  154.2101 C   0  0  0  0  0  0  0  0  0  0  0  0
  199.2096  188.1581  154.5394 C   0  0  0  0  0  0  0  0  0  0  0  0
  198.9355  188.7376  155.7178 N   0  0  0  0  0  0  0  0  0  0  0  0
  198.2287  188.0588  156.6329 C   0  0  0  0  0  0  0  0  0  0  0  0
  199.9765  188.8761  153.6042 C   0  0  0  0  0  0  0  0  0  0  0  0
  200.3143  188.3249  152.3580 C   0  0  0  0  0  0  0  0  0  0  0  0
  199.8797  187.0273  152.0331 C   0  0  0  0  0  0  0  0  0  0  0  0
  199.1022  186.2910  152.9494 C   0  0  0  0  0  0  0  0  0  0  0  0
  196.3351  185.8025  159.7446 C   0  0  0  0  0  0  0  0  0  0  0  0
  195.5102  185.4273  160.4668 N   0  0  0  0  0  0  0  0  0  0  0  0
  201.9997  186.5578  159.7867 H   0  0  0  0  0  0  0  0  0  0  0  0
  199.8070  187.5713  159.2150 H   0  0  0  0  0  0  0  0  0  0  0  0
  198.0166  183.6381  159.1960 H   0  0  0  0  0  0  0  0  0  0  0  0
  200.2179  182.6383  159.7355 H   0  0  0  0  0  0  0  0  0  0  0  0
  197.4295  187.3487  159.0653 H   0  0  0  0  0  0  0  0  0  0  0  0
  196.7448  185.1474  157.2129 H   0  0  0  0  0  0  0  0  0  0  0  0
  196.9611  184.7529  154.0228 H   0  0  0  0  0  0  0  0  0  0  0  0
  197.7380  181.2217  156.6149 H   0  0  0  0  0  0  0  0  0  0  0  0
  197.1329  179.0892  155.5535 H   0  0  0  0  0  0  0  0  0  0  0  0
  196.5175  179.0294  153.1274 H   0  0  0  0  0  0  0  0  0  0  0  0
  196.5181  181.1258  151.7907 H   0  0  0  0  0  0  0  0  0  0  0  0
  197.1382  183.2575  152.8311 H   0  0  0  0  0  0  0  0  0  0  0  0
  198.0500  188.6227  157.5366 H   0  0  0  0  0  0  0  0  0  0  0  0
  200.3150  189.8708  153.8590 H   0  0  0  0  0  0  0  0  0  0  0  0
  200.9160  188.8916  151.6632 H   0  0  0  0  0  0  0  0  0  0  0  0
  200.1554  186.5987  151.0803 H   0  0  0  0  0  0  0  0  0  0  0  0
  198.7883  185.2950  152.6757 H   0  0  0  0  0  0  0  0  0  0  0  0
  1  2  1  0
  2  3  1  0
  2  7  2  0
  3  4  2  0
  3 31  1  0
  4  5  1  0
  4 32  1  0
  5  6  2  0
  5  8  1  0
  6  7  1  0
  6 33  1  0
  7 34  1  0
  8  9  1  0
  8 29  1  0
  8 35  1  6
  9 10  1  0
  9 36  1  0
 10 11  2  0
 10 24  1  0
 11 12  1  0
 11 21  1  0
 12 13  1  0
 12 37  1  0
 13 14  2  0
 13 15  1  0
 15 16  2  0
 15 20  1  0
 16 17  1  0
 16 38  1  0
 17 18  2  0
 17 39  1  0
 18 19  1  0
 18 40  1  0
 19 20  2  0
 19 41  1  0
 20 42  1  0
 21 22  1  0
 21 28  2  0
 22 23  1  0
 22 25  2  0
 23 24  2  0
 24 43  1  0
 25 26  1  0
 25 44  1  0
 26 27  2  0
 26 45  1  0
 27 28  1  0
 27 46  1  0
 28 47  1  0
 29 30  3  0
M  END
>  <s_epik_cmdline>  (1559) 
J2VwaWtfcHl0aG9uJywgJy1waCcsICc3LjAwMDAwMCcsICctcGh0JywgJzIuMDAwMDAwJywgJy1tcycsICcxNicsICctdG4nLCAnOCcsICctbWEnLCAnMjAwJywgJy1pbWFlJywgJzxpbmZpbGUubWFlPicsICctb21hZScsICc8b3V0ZmlsZS5tYWU+Jw==

>  <s_epik_input>  (1559) 
RmMxW2NIXVtjSF1jKFtjSF1bY0hdMSlbQ0BIXShDI04pW05IXWMoW2NIXW5jKGMyMylbY0hdW2NIXVtjSF1bY0hdMyljMltOSF1DKD1PKWM0W2NIXVtjSF1bY0hdW2NIXVtjSF00

>  <s_i_glide_gridfile>  (1559) 
ATP-Grid

>  <s_lp_Force_Field>  (1559) 
OPLS_2005

>  <s_lp_Variant>  (1559) 
rxn502b____EMOL480353____EMOL13728749____EMOL906257-1

>  <s_lp_label>  (1559) 
3049_sdstereoexpander_1_neutralizer_1_epik_1_stereoizer_1

>  <s_m_source_file>  (1559) 
ATP-VSW-LIGPREP-002-in.maegz

>  <s_sd_BIOSOLVEIT.INFINISEE\_QUERY\_NAME>  (1559) 
Ref-Lig

>  <s_sd_BIOSOLVEIT.INFINISEE\_QUERY\_SMILES>  (1559) 
S(c1nc2c(cc1C[NH2+]Cc3ccc(cc3)C[NH+](C)C)cccc2)Cc4ccccc4

>  <s_sd_BIOSOLVEIT.INFINISEE\_REACTION\_NAME>  (1559) 
rxn502b

>  <s_sd_BIOSOLVEIT.INFINISEE\_REAGENT1\_NAME>  (1559) 
EMOL480353

>  <s_sd_BIOSOLVEIT.INFINISEE\_REAGENT1\_SMILES>  (1559) 
ClC(=O)c1ccccc1

>  <s_sd_BIOSOLVEIT.INFINISEE\_REAGENT2\_NAME>  (1559) 
EMOL13728749

>  <s_sd_BIOSOLVEIT.INFINISEE\_REAGENT2\_SMILES>  (1559) 
Brc1c(N)c2c(nc1)cccc2

>  <s_sd_BIOSOLVEIT.INFINISEE\_REAGENT3\_NAME>  (1559) 
EMOL906257

>  <s_sd_BIOSOLVEIT.INFINISEE\_REAGENT3\_SMILES>  (1559) 
Fc1ccc(cc1)C(N)C#N

>  <s_sd_BIOSOLVEIT.INFINISEE\_SPACE>  (1559) 
eXplore_7tr_2022-12

>  <s_vsw_compound_code>  (1559) 
97538

>  <s_vsw_variant>  (1559) 
97538-1

>  <r_epik_Charging_Adjusted_Penalty>  (1559) 
0.014484085207805499

>  <r_epik_Ionization_Penalty>  (1559) 
0.014500000000000001

>  <r_epik_Ionization_Penalty_Charging>  (1559) 
0

>  <r_epik_Ionization_Penalty_Neutral>  (1559) 
0.014500000000000001

>  <r_epik_State_Penalty>  (1559) 
0.014500000000000001

>  <r_i_docking_score>  (1559) 
-3.2480373889567402

>  <r_i_glide_ecoul>  (1559) 
-1.9734677076339699

>  <r_i_glide_eff_state_penalty>  (1559) 
0.014500000000000001

>  <r_i_glide_einternal>  (1559) 
1.84039783477783

>  <r_i_glide_emodel>  (1559) 
-39.138079024741103

>  <r_i_glide_energy>  (1559) 
-33.1624611616135

>  <r_i_glide_erotb>  (1559) 
0.74699833578390396

>  <r_i_glide_esite>  (1559) 
-0.0059271203010710901

>  <r_i_glide_evdw>  (1559) 
-31.188993453979499

>  <r_i_glide_gscore>  (1559) 
-3.2625373889567402

>  <r_i_glide_hbond>  (1559) 
0

>  <r_i_glide_ligand_efficiency>  (1559) 
-0.108267912965225

>  <r_i_glide_ligand_efficiency_ln>  (1559) 
-0.73798948497285599

>  <r_i_glide_ligand_efficiency_sa>  (1559) 
-0.33641357813592598

>  <r_i_glide_lipo>  (1559) 
-1.05665746530197

>  <r_i_glide_metal>  (1559) 
-0

>  <r_i_glide_rewards>  (1559) 
-1.0914813102935299

>  <r_lp_Energy>  (1559) 
34.996198999999997

>  <r_qp_ACxDN^.5/SA>  (1559) 
0.012872099999999999

>  <r_qp_CIQPlogS>  (1559) 
-7.1399999999999997

>  <r_qp_EA(eV)>  (1559) 
1.222

>  <r_qp_FISA>  (1559) 
125.80200000000001

>  <r_qp_FOSA>  (1559) 
0

>  <r_qp_IP(eV)>  (1559) 
8.8390000000000004

>  <r_qp_Jm>  (1559) 
0.0058938652057246499

>  <r_qp_PISA>  (1559) 
486.36799999999999

>  <r_qp_PSA>  (1559) 
76.266999999999996

>  <r_qp_PercentHumanOralAbsorption>  (1559) 
100

>  <r_qp_QPPCaco>  (1559) 
635.21100000000001

>  <r_qp_QPPMDCK>  (1559) 
548.21299999999997

>  <r_qp_QPlogBB>  (1559) 
-0.91100000000000003

>  <r_qp_QPlogHERG>  (1559) 
-6.6639999999999997

>  <r_qp_QPlogKhsa>  (1559) 
0.41599999999999998

>  <r_qp_QPlogKp>  (1559) 
-1.5489999999999999

>  <r_qp_QPlogPC16>  (1559) 
13.784000000000001

>  <r_qp_QPlogPo/w>  (1559) 
4.0190000000000001

>  <r_qp_QPlogPoct>  (1559) 
21.109999999999999

>  <r_qp_QPlogPw>  (1559) 
13.002000000000001

>  <r_qp_QPlogS>  (1559) 
-6.2789999999999999

>  <r_qp_QPpolrz>  (1559) 
42.466000000000001

>  <r_qp_SASA>  (1559) 
659.19899999999996

>  <r_qp_SAamideO>  (1559) 
0

>  <r_qp_SAfluorine>  (1559) 
47.027999999999999

>  <r_qp_WPSA>  (1559) 
47.027999999999999

>  <r_qp_accptHB>  (1559) 
6

>  <r_qp_dip^2/V>  (1559) 
0.025930999999999999

>  <r_qp_dipole>  (1559) 
5.5670000000000002

>  <r_qp_donorHB>  (1559) 
2

>  <r_qp_glob>  (1559) 
0.82620289999999996

>  <r_qp_mol_MW>  (1559) 
396.423

>  <r_qp_volume>  (1559) 
1195.1089999999999

>  <r_sd_BIOSOLVEIT.INFINISEE\_FTREES\_SIMILARITY>  (1559) 
0.90200000000000002

>  <r_sd_BIOSOLVEIT.LOGP>  (1559) 
5.3029799999999998

>  <r_sd_BIOSOLVEIT.MOLECULAR\_WEIGHT>  (1559) 
396.423

>  <r_sd_BIOSOLVEIT.TPSA>  (1559) 
77.810000000000002

>  <i_epik_Tot_Q>  (1559) 
0

>  <i_epik_Tot_abs_Q>  (1559) 
0

>  <i_f3d_flags>  (1559) 
0

>  <i_i_glide_confnum>  (1559) 
6

>  <i_i_glide_lignum>  (1559) 
106

>  <i_i_glide_posenum>  (1559) 
17

>  <i_i_glide_rotatable_bonds>  (1559) 
6

>  <i_lp_mmshare_version>  (1559) 
65135

>  <i_m_ct_format>  (1559) 
2

>  <i_m_source_file_index>  (1559) 
3049

>  <i_qp_#NandO>  (1559) 
5

>  <i_qp_#acid>  (1559) 
0

>  <i_qp_#amide>  (1559) 
0

>  <i_qp_#amidine>  (1559) 
0

>  <i_qp_#amine>  (1559) 
0

>  <i_qp_#in34>  (1559) 
0

>  <i_qp_#in56>  (1559) 
22

>  <i_qp_#metab>  (1559) 
4

>  <i_qp_#nonHatm>  (1559) 
30

>  <i_qp_#noncon>  (1559) 
0

>  <i_qp_#ringatoms>  (1559) 
22

>  <i_qp_#rotor>  (1559) 
6

>  <i_qp_#rtvFG>  (1559) 
0

>  <i_qp_#stars>  (1559) 
1

>  <i_qp_CNS>  (1559) 
-1

>  <i_qp_HumanOralAbsorption>  (1559) 
1

>  <i_qp_RuleOfFive>  (1559) 
0

>  <i_qp_RuleOfThree>  (1559) 
1

>  <i_sd_BIOSOLVEIT.INFINISEE\_RESULT\_RANK>  (1559) 
91069

>  <i_sd_version>  (1559) 
0

>  <b_lp_Chiralities_Consistent>  (1559) 
1

>  <b_sd_chiral_flag>  (1559) 
0

>  <canonical_id>  (1559) 
ATP-HTVS-F54B40793D2A

>  <compound_code>  (1559) 
97538

>  <title>  (1559) 
rxn502b____EMOL480353____EMOL13728749____EMOL906257

>  <variant>  (1559) 
97538-1

>  <source_file>  (1559) 
运行/运行/ATP-VSW/ATP-VSW-DOCK_HTVS_1-003_lib/ATP-VSW-DOCK_HTVS_1-003_lib.mae

>  <canonical_smiles>  (1559) 
N#C[C@H](Nc1cnc2ccccc2c1NC(=O)c1ccccc1)c1ccc(F)cc1

>  <scaffold>  (1559) 
O=C(Nc1c(NCc2ccccc2)cnc2ccccc12)c1ccccc1

>  <molecular_formula>  (1559) 
C24H17FN4O

$$$$
ATP-HTVS-F5512CD55A37
     RDKit          3D

 56 59  0  0  0  0  0  0  0  0999 V2000
  197.3481  187.3700  159.7517 F   0  0  0  0  0  0  0  0  0  0  0  0
  196.9766  186.1049  159.4489 C   0  0  0  0  0  0  0  0  0  0  0  0
  197.9431  185.0847  159.3551 C   0  0  0  0  0  0  0  0  0  0  0  0
  197.5482  183.7660  159.0575 C   0  0  0  0  0  0  0  0  0  0  0  0
  196.1875  183.4676  158.8081 C   0  0  0  0  0  0  0  0  0  0  0  0
  195.2267  184.4996  158.9062 C   0  0  0  0  0  0  0  0  0  0  0  0
  195.6203  185.8070  159.2313 C   0  0  0  0  0  0  0  0  0  0  0  0
  195.7814  182.0513  158.3981 C   0  0  2  0  0  0  0  0  0  0  0  0
  195.8542  181.8383  156.9403 N   0  0  1  0  0  0  0  0  0  0  0  0
  197.0545  182.3732  156.2664 C   0  0  1  0  0  0  0  0  0  0  0  0
  197.0375  181.8054  154.9216 C   0  0  0  0  0  0  0  0  0  0  0  0
  197.0391  181.3038  153.8097 C   0  0  0  0  0  0  0  0  0  0  0  0
  197.0930  180.6500  152.5169 C   0  0  0  0  0  0  0  0  0  0  0  0
  197.8664  179.4868  152.3027 C   0  0  0  0  0  0  0  0  0  0  0  0
  198.6112  178.9318  153.3752 N   0  0  0  0  0  0  0  0  0  0  0  0
  199.9440  178.8370  153.4502 C   0  0  0  0  0  0  0  0  0  0  0  0
  200.7075  179.3433  152.6263 O   0  0  0  0  0  0  0  0  0  0  0  0
  200.4636  177.9533  154.5558 C   0  0  0  0  0  0  0  0  0  0  0  0
  199.8474  177.8760  155.8321 C   0  0  0  0  0  0  0  0  0  0  0  0
  198.7387  178.6099  156.1316 O   0  0  0  0  0  0  0  0  0  0  0  0
  200.3769  177.0332  156.8305 C   0  0  0  0  0  0  0  0  0  0  0  0
  201.5115  176.2464  156.5599 C   0  0  0  0  0  0  0  0  0  0  0  0
  202.1226  176.3071  155.2965 C   0  0  0  0  0  0  0  0  0  0  0  0
  201.6023  177.1574  154.3018 C   0  0  0  0  0  0  0  0  0  0  0  0
  197.8299  178.8742  151.0190 C   0  0  0  0  0  0  0  0  0  0  0  0
  197.0689  179.5042  149.9918 C   0  0  0  0  0  0  0  0  0  0  0  0
  196.3516  180.6269  150.2129 N   0  0  0  0  0  0  0  0  0  0  0  0
  196.3696  181.1848  151.4377 C   0  0  0  0  0  0  0  0  0  0  0  0
  197.0546  178.9271  148.7061 C   0  0  0  0  0  0  0  0  0  0  0  0
  197.7687  177.7478  148.4214 C   0  0  0  0  0  0  0  0  0  0  0  0
  198.4903  177.1103  149.4443 C   0  0  0  0  0  0  0  0  0  0  0  0
  198.5169  177.6655  150.7357 C   0  0  0  0  0  0  0  0  0  0  0  0
  194.3882  181.6567  158.9017 C   0  0  2  0  0  0  0  0  0  0  0  0
  195.8171  180.8273  156.8301 H   0  0  0  0  0  0  0  0  0  0  0  0
  198.9879  185.3178  159.5059 H   0  0  0  0  0  0  0  0  0  0  0  0
  198.3043  182.9963  158.9780 H   0  0  0  0  0  0  0  0  0  0  0  0
  194.1823  184.3316  158.6929 H   0  0  0  0  0  0  0  0  0  0  0  0
  194.8738  186.5845  159.2905 H   0  0  0  0  0  0  0  0  0  0  0  0
  196.5137  181.3719  158.8485 H   0  0  0  0  0  0  0  0  0  0  0  0
  197.0363  183.4637  156.2084 H   0  0  0  0  0  0  0  0  0  0  0  0
  197.9722  182.0495  156.7493 H   0  0  0  0  0  0  0  0  0  0  0  0
  198.0815  178.5621  154.1556 H   0  0  0  0  0  0  0  0  0  0  0  0
  198.2584  178.2831  156.8985 H   0  0  0  0  0  0  0  0  0  0  0  0
  199.9057  176.9888  157.8018 H   0  0  0  0  0  0  0  0  0  0  0  0
  201.9132  175.5981  157.3220 H   0  0  0  0  0  0  0  0  0  0  0  0
  203.0014  175.7191  155.0952 H   0  0  0  0  0  0  0  0  0  0  0  0
  202.0810  177.2017  153.3382 H   0  0  0  0  0  0  0  0  0  0  0  0
  195.8029  182.0966  151.5644 H   0  0  0  0  0  0  0  0  0  0  0  0
  196.4998  179.4115  147.9183 H   0  0  0  0  0  0  0  0  0  0  0  0
  197.7613  177.3307  147.4219 H   0  0  0  0  0  0  0  0  0  0  0  0
  199.0495  176.2068  149.2337 H   0  0  0  0  0  0  0  0  0  0  0  0
  199.0750  177.1394  151.4923 H   0  0  0  0  0  0  0  0  0  0  0  0
  194.3579  181.7563  159.9772 H   0  0  0  0  0  0  0  0  0  0  0  0
  194.1517  180.6161  158.6806 H   0  0  0  0  0  0  0  0  0  0  0  0
  193.5879  182.2502  158.4619 H   0  0  0  0  0  0  0  0  0  0  0  0
  195.0256  182.2308  156.4867 H   0  0  0  0  0  0  0  0  0  0  0  0
  1  2  1  0
  2  3  1  0
  2  7  2  0
  3  4  2  0
  3 35  1  0
  4  5  1  0
  4 36  1  0
  5  6  2  0
  5  8  1  0
  6  7  1  0
  6 37  1  0
  7 38  1  0
  8  9  1  0
  8 33  1  0
  8 39  1  1
  9 10  1  0
  9 34  1  1
  9 56  1  0
 10 11  1  0
 10 40  1  6
 10 41  1  0
 11 12  3  0
 12 13  1  0
 13 14  2  0
 13 28  1  0
 14 15  1  0
 14 25  1  0
 15 16  1  0
 15 42  1  0
 16 17  2  0
 16 18  1  0
 18 19  1  0
 18 24  2  0
 19 20  1  0
 19 21  2  0
 20 43  1  0
 21 22  1  0
 21 44  1  0
 22 23  2  0
 22 45  1  0
 23 24  1  0
 23 46  1  0
 24 47  1  0
 25 26  1  0
 25 32  2  0
 26 27  1  0
 26 29  2  0
 27 28  2  0
 28 48  1  0
 29 30  1  0
 29 49  1  0
 30 31  2  0
 30 50  1  0
 31 32  1  0
 31 51  1  0
 32 52  1  0
 33 53  1  1
 33 54  1  0
 33 55  1  0
M  CHG  1   9   1
M  END
>  <s_epik_cmdline>  (1560) 
J2VwaWtfcHl0aG9uJywgJy1waCcsICc3LjAwMDAwMCcsICctcGh0JywgJzIuMDAwMDAwJywgJy1tcycsICcxNicsICctdG4nLCAnOCcsICctbWEnLCAnMjAwJywgJy1pbWFlJywgJzxpbmZpbGUubWFlPicsICctb21hZScsICc8b3V0ZmlsZS5tYWU+Jw==

>  <s_epik_input>  (1560) 
RmMxW2NIXVtjSF1jKFtjSF1bY0hdMSlbQ0BASF0oW0NIM10pW05IXVtDSDJdQyNDYyhbY0hdbmMoYzIzKVtjSF1bY0hdW2NIXVtjSF0zKWMyW05IXUMoPU8pYzRjKFtPSF0pW2NIXVtjSF1bY0hdW2NIXTQ=

>  <s_i_glide_gridfile>  (1560) 
ATP-Grid

>  <s_lp_Force_Field>  (1560) 
OPLS_2005

>  <s_lp_Variant>  (1560) 
rxn503b____EMOL478035____EMOL13728749____EMOL317506007-7

>  <s_lp_label>  (1560) 
2593_sdstereoexpander_1_neutralizer_1_epik_4_stereoizer_1

>  <s_m_source_file>  (1560) 
ATP-VSW-LIGPREP-003-in.maegz

>  <s_sd_BIOSOLVEIT.INFINISEE\_QUERY\_NAME>  (1560) 
Ref-Lig

>  <s_sd_BIOSOLVEIT.INFINISEE\_QUERY\_SMILES>  (1560) 
S(c1nc2c(cc1C[NH2+]Cc3ccc(cc3)C[NH+](C)C)cccc2)Cc4ccccc4

>  <s_sd_BIOSOLVEIT.INFINISEE\_REACTION\_NAME>  (1560) 
rxn503b

>  <s_sd_BIOSOLVEIT.INFINISEE\_REAGENT1\_NAME>  (1560) 
EMOL478035

>  <s_sd_BIOSOLVEIT.INFINISEE\_REAGENT1\_SMILES>  (1560) 
O=C(O)c1c(O)cccc1

>  <s_sd_BIOSOLVEIT.INFINISEE\_REAGENT2\_NAME>  (1560) 
EMOL13728749

>  <s_sd_BIOSOLVEIT.INFINISEE\_REAGENT2\_SMILES>  (1560) 
Brc1c(N)c2c(nc1)cccc2

>  <s_sd_BIOSOLVEIT.INFINISEE\_REAGENT3\_NAME>  (1560) 
EMOL317506007

>  <s_sd_BIOSOLVEIT.INFINISEE\_REAGENT3\_SMILES>  (1560) 
Fc1ccc(cc1)C(NCC#C)C

>  <s_sd_BIOSOLVEIT.INFINISEE\_SPACE>  (1560) 
eXplore_7tr_2022-12

>  <s_vsw_compound_code>  (1560) 
82947

>  <s_vsw_variant>  (1560) 
82947-7

>  <r_epik_Charging_Adjusted_Penalty>  (1560) 
1.7247289704354301

>  <r_epik_Ionization_Penalty>  (1560) 
1.1462000000000001

>  <r_epik_Ionization_Penalty_Charging>  (1560) 
0.57879999999999998

>  <r_epik_Ionization_Penalty_Neutral>  (1560) 
0.56740000000000002

>  <r_epik_State_Penalty>  (1560) 
1.1458999999999999

>  <r_i_docking_score>  (1560) 
-5.5433571377707196

>  <r_i_glide_ecoul>  (1560) 
-16.277429580688501

>  <r_i_glide_eff_state_penalty>  (1560) 
1.1458999999999999

>  <r_i_glide_einternal>  (1560) 
5.2551383972168004

>  <r_i_glide_emodel>  (1560) 
-82.873224452583997

>  <r_i_glide_energy>  (1560) 
-52.9801120758057

>  <r_i_glide_erotb>  (1560) 
0.72034826401853302

>  <r_i_glide_esite>  (1560) 
-0.103103105900214

>  <r_i_glide_evdw>  (1560) 
-36.702682495117202

>  <r_i_glide_gscore>  (1560) 
-6.6892571377707197

>  <r_i_glide_hbond>  (1560) 
-0.53797337690898095

>  <r_i_glide_ligand_efficiency>  (1560) 
-0.167980519326385

>  <r_i_glide_ligand_efficiency_ln>  (1560) 
-1.2328139254730399

>  <r_i_glide_ligand_efficiency_sa>  (1560) 
-0.53880328188193205

>  <r_i_glide_lipo>  (1560) 
-1.91895479388005

>  <r_i_glide_metal>  (1560) 
-0

>  <r_i_glide_rewards>  (1560) 
-0.57282556324087897

>  <r_lp_Energy>  (1560) 
31.129096000000001

>  <r_lp_tautomer_probability>  (1560) 
0.999999999997365

>  <r_qp_ACxDN^.5/SA>  (1560) 
0.0096874999999999999

>  <r_qp_CIQPlogS>  (1560) 
-6.4359999999999999

>  <r_qp_EA(eV)>  (1560) 
1.169

>  <r_qp_FISA>  (1560) 
77.469999999999999

>  <r_qp_FOSA>  (1560) 
122.48099999999999

>  <r_qp_IP(eV)>  (1560) 
8.8119999999999994

>  <r_qp_Jm>  (1560) 
0.022079076157945701

>  <r_qp_PISA>  (1560) 
457.714

>  <r_qp_PSA>  (1560) 
76.192999999999998

>  <r_qp_PercentHumanOralAbsorption>  (1560) 
100

>  <r_qp_QPPCaco>  (1560) 
455.14299999999997

>  <r_qp_QPPMDCK>  (1560) 
366.94099999999997

>  <r_qp_QPlogBB>  (1560) 
-0.16900000000000001

>  <r_qp_QPlogHERG>  (1560) 
-7.077

>  <r_qp_QPlogKhsa>  (1560) 
0.876

>  <r_qp_QPlogKp>  (1560) 
-2.629

>  <r_qp_QPlogPC16>  (1560) 
14.403

>  <r_qp_QPlogPo/w>  (1560) 
5

>  <r_qp_QPlogPoct>  (1560) 
21.416

>  <r_qp_QPlogPw>  (1560) 
10.884

>  <r_qp_QPlogS>  (1560) 
-4.6699999999999999

>  <r_qp_QPpolrz>  (1560) 
45.704999999999998

>  <r_qp_SASA>  (1560) 
693.42100000000005

>  <r_qp_SAamideO>  (1560) 
0

>  <r_qp_SAfluorine>  (1560) 
35.756

>  <r_qp_WPSA>  (1560) 
35.756

>  <r_qp_accptHB>  (1560) 
4.75

>  <r_qp_dip^2/V>  (1560) 
0.038092599999999997

>  <r_qp_dipole>  (1560) 
7.077

>  <r_qp_donorHB>  (1560) 
2

>  <r_qp_glob>  (1560) 
0.83709829999999996

>  <r_qp_mol_MW>  (1560) 
439.488

>  <r_qp_volume>  (1560) 
1314.961

>  <r_sd_BIOSOLVEIT.INFINISEE\_FTREES\_SIMILARITY>  (1560) 
0.91100000000000003

>  <r_sd_BIOSOLVEIT.LOGP>  (1560) 
4.0079000000000002

>  <r_sd_BIOSOLVEIT.MOLECULAR\_WEIGHT>  (1560) 
440.49599999999998

>  <r_sd_BIOSOLVEIT.TPSA>  (1560) 
78.829999999999998

>  <i_epik_Tot_Q>  (1560) 
1

>  <i_epik_Tot_abs_Q>  (1560) 
1

>  <i_f3d_flags>  (1560) 
0

>  <i_i_glide_confnum>  (1560) 
7

>  <i_i_glide_lignum>  (1560) 
1180

>  <i_i_glide_posenum>  (1560) 
18

>  <i_i_glide_rotatable_bonds>  (1560) 
9

>  <i_lp_mmshare_version>  (1560) 
65135

>  <i_m_ct_format>  (1560) 
2

>  <i_m_source_file_index>  (1560) 
2593

>  <i_qp_#NandO>  (1560) 
5

>  <i_qp_#acid>  (1560) 
0

>  <i_qp_#amide>  (1560) 
0

>  <i_qp_#amidine>  (1560) 
0

>  <i_qp_#amine>  (1560) 
1

>  <i_qp_#in34>  (1560) 
0

>  <i_qp_#in56>  (1560) 
22

>  <i_qp_#metab>  (1560) 
5

>  <i_qp_#nonHatm>  (1560) 
33

>  <i_qp_#noncon>  (1560) 
0

>  <i_qp_#ringatoms>  (1560) 
22

>  <i_qp_#rotor>  (1560) 
8

>  <i_qp_#rtvFG>  (1560) 
0

>  <i_qp_#stars>  (1560) 
1

>  <i_qp_CNS>  (1560) 
1

>  <i_qp_HumanOralAbsorption>  (1560) 
3

>  <i_qp_RuleOfFive>  (1560) 
0

>  <i_qp_RuleOfThree>  (1560) 
0

>  <i_sd_BIOSOLVEIT.INFINISEE\_RESULT\_RANK>  (1560) 
40726

>  <i_sd_version>  (1560) 
0

>  <b_lp_Chiralities_Consistent>  (1560) 
1

>  <b_sd_chiral_flag>  (1560) 
0

>  <canonical_id>  (1560) 
ATP-HTVS-F5512CD55A37

>  <compound_code>  (1560) 
82947

>  <title>  (1560) 
rxn503b____EMOL478035____EMOL13728749____EMOL317506007

>  <variant>  (1560) 
82947-7

>  <source_file>  (1560) 
运行/运行/ATP-VSW/ATP-VSW-DOCK_HTVS_1-003_lib/ATP-VSW-DOCK_HTVS_1-003_lib.mae

>  <canonical_smiles>  (1560) 
C[C@@H]([NH2+]CC#Cc1cnc2ccccc2c1NC(=O)c1ccccc1O)c1ccc(F)cc1

>  <scaffold>  (1560) 
O=C(Nc1c(C#CC[NH2+]Cc2ccccc2)cnc2ccccc12)c1ccccc1

>  <molecular_formula>  (1560) 
C27H23FN3O2+

$$$$
ATP-HTVS-F5557C46ACCD
     RDKit          3D

 63 66  0  0  0  0  0  0  0  0999 V2000
  197.6728  180.4415  152.5519 N   0  0  0  0  0  0  0  0  0  0  0  0
  197.6519  180.5314  153.8998 C   0  0  0  0  0  0  0  0  0  0  0  0
  197.7578  179.3444  154.6438 N   0  0  0  0  0  0  0  0  0  0  0  0
  198.9756  179.1192  155.4194 C   0  0  1  0  0  0  0  0  0  0  0  0
  199.8535  177.9429  154.9470 C   0  0  0  0  0  0  0  0  0  0  0  0
  200.5832  177.1064  155.8461 C   0  0  0  0  0  0  0  0  0  0  0  0
  201.3914  176.0546  155.3212 C   0  0  0  0  0  0  0  0  0  0  0  0
  202.1251  175.1986  156.1415 N   0  0  0  0  0  0  0  0  0  0  0  0
  201.4791  175.8347  153.9330 C   0  0  0  0  0  0  0  0  0  0  0  0
  200.7684  176.6617  153.0473 C   0  0  0  0  0  0  0  0  0  0  0  0
  199.9745  177.7130  153.5521 C   0  0  0  0  0  0  0  0  0  0  0  0
  200.5374  177.3289  157.3558 C   0  0  2  0  0  0  0  0  0  0  0  0
  197.4883  181.7839  154.5410 C   0  0  0  0  0  0  0  0  0  0  0  0
  197.3882  182.9326  153.8453 N   0  0  0  0  0  0  0  0  0  0  0  0
  197.3958  182.8466  152.5046 C   0  0  0  0  0  0  0  0  0  0  0  0
  197.5700  181.5890  151.8436 C   0  0  0  0  0  0  0  0  0  0  0  0
  197.6419  181.5745  150.4328 C   0  0  0  0  0  0  0  0  0  0  0  0
  197.5059  182.7626  149.6893 C   0  0  0  0  0  0  0  0  0  0  0  0
  197.2803  183.9835  150.3412 C   0  0  0  0  0  0  0  0  0  0  0  0
  197.2318  184.0186  151.7430 C   0  0  0  0  0  0  0  0  0  0  0  0
  197.3432  181.8219  155.9255 N   0  0  0  0  0  0  0  0  0  0  0  0
  197.8810  182.9354  156.6839 C   0  0  1  0  0  0  0  0  0  0  0  0
  196.9436  183.4177  157.7873 C   0  0  0  0  0  0  0  0  0  0  0  0
  196.9759  184.7644  158.2436 C   0  0  0  0  0  0  0  0  0  0  0  0
  196.0815  185.1666  159.2600 C   0  0  0  0  0  0  0  0  0  0  0  0
  195.1378  184.2696  159.7850 C   0  0  0  0  0  0  0  0  0  0  0  0
  195.1223  182.9361  159.3388 C   0  0  0  0  0  0  0  0  0  0  0  0
  196.0247  182.5102  158.3672 C   0  0  0  0  0  0  0  0  0  0  0  0
  197.9431  185.8026  157.6618 C   0  0  1  0  0  0  0  0  0  0  0  0
  197.3612  186.5509  156.5116 N   0  0  2  0  0  0  0  0  0  0  0  0
  198.3806  187.3771  155.8258 C   0  0  2  0  0  0  0  0  0  0  0  0
  196.1666  187.3561  156.8645 C   0  0  2  0  0  0  0  0  0  0  0  0
  197.3181  178.5121  154.2753 H   0  0  0  0  0  0  0  0  0  0  0  0
  199.6111  180.0103  155.4121 H   0  0  0  0  0  0  0  0  0  0  0  0
  198.6360  178.9832  156.4467 H   0  0  0  0  0  0  0  0  0  0  0  0
  202.6558  174.4196  155.7772 H   0  0  0  0  0  0  0  0  0  0  0  0
  202.0905  175.2896  157.1441 H   0  0  0  0  0  0  0  0  0  0  0  0
  202.0886  175.0322  153.5338 H   0  0  0  0  0  0  0  0  0  0  0  0
  200.8401  176.4923  151.9729 H   0  0  0  0  0  0  0  0  0  0  0  0
  199.4671  178.3435  152.8306 H   0  0  0  0  0  0  0  0  0  0  0  0
  200.8006  176.4196  157.8915 H   0  0  0  0  0  0  0  0  0  0  0  0
  199.5669  177.6423  157.7089 H   0  0  0  0  0  0  0  0  0  0  0  0
  201.2996  178.0486  157.6518 H   0  0  0  0  0  0  0  0  0  0  0  0
  197.8271  180.6368  149.9201 H   0  0  0  0  0  0  0  0  0  0  0  0
  197.5778  182.7372  148.6070 H   0  0  0  0  0  0  0  0  0  0  0  0
  197.1675  184.8937  149.7719 H   0  0  0  0  0  0  0  0  0  0  0  0
  197.0658  184.9547  152.2608 H   0  0  0  0  0  0  0  0  0  0  0  0
  197.3028  180.9185  156.3765 H   0  0  0  0  0  0  0  0  0  0  0  0
  198.8091  182.6101  157.1549 H   0  0  0  0  0  0  0  0  0  0  0  0
  198.1470  183.7626  156.0199 H   0  0  0  0  0  0  0  0  0  0  0  0
  196.0941  186.1819  159.6211 H   0  0  0  0  0  0  0  0  0  0  0  0
  194.4279  184.5999  160.5218 H   0  0  0  0  0  0  0  0  0  0  0  0
  194.4062  182.2285  159.7391 H   0  0  0  0  0  0  0  0  0  0  0  0
  195.9797  181.4715  158.0599 H   0  0  0  0  0  0  0  0  0  0  0  0
  198.2057  186.4942  158.4612 H   0  0  0  0  0  0  0  0  0  0  0  0
  198.8875  185.3327  157.3672 H   0  0  0  0  0  0  0  0  0  0  0  0
  198.7616  188.1492  156.4927 H   0  0  0  0  0  0  0  0  0  0  0  0
  197.9620  187.8724  154.9500 H   0  0  0  0  0  0  0  0  0  0  0  0
  199.2273  186.7765  155.4885 H   0  0  0  0  0  0  0  0  0  0  0  0
  196.4203  188.1263  157.5908 H   0  0  0  0  0  0  0  0  0  0  0  0
  195.3697  186.7492  157.2916 H   0  0  0  0  0  0  0  0  0  0  0  0
  195.7561  187.8392  155.9858 H   0  0  0  0  0  0  0  0  0  0  0  0
  197.0544  185.8584  155.8394 H   0  0  0  0  0  0  0  0  0  0  0  0
  1  2  2  0
  1 16  1  0
  2  3  1  0
  2 13  1  0
  3  4  1  0
  3 33  1  0
  4  5  1  0
  4 34  1  1
  4 35  1  0
  5  6  1  0
  5 11  2  0
  6  7  2  0
  6 12  1  0
  7  8  1  0
  7  9  1  0
  8 36  1  0
  8 37  1  0
  9 10  2  0
  9 38  1  0
 10 11  1  0
 10 39  1  0
 11 40  1  0
 12 41  1  1
 12 42  1  0
 12 43  1  0
 13 14  2  0
 13 21  1  0
 14 15  1  0
 15 16  1  0
 15 20  2  0
 16 17  2  0
 17 18  1  0
 17 44  1  0
 18 19  2  0
 18 45  1  0
 19 20  1  0
 19 46  1  0
 20 47  1  0
 21 22  1  0
 21 48  1  0
 22 23  1  0
 22 49  1  1
 22 50  1  0
 23 24  1  0
 23 28  2  0
 24 25  2  0
 24 29  1  0
 25 26  1  0
 25 51  1  0
 26 27  2  0
 26 52  1  0
 27 28  1  0
 27 53  1  0
 28 54  1  0
 29 30  1  0
 29 55  1  1
 29 56  1  0
 30 31  1  0
 30 32  1  0
 30 63  1  6
 31 57  1  1
 31 58  1  0
 31 59  1  0
 32 60  1  1
 32 61  1  0
 32 62  1  0
M  CHG  1  30   1
M  END
>  <s_epik_cmdline>  (1561) 
J2VwaWtfcHl0aG9uJywgJy1waCcsICc3LjAwMDAwMCcsICctcGh0JywgJzIuMDAwMDAwJywgJy1tcycsICcxNicsICctdG4nLCAnOCcsICctbWEnLCAnMjAwJywgJy1pbWFlJywgJzxpbmZpbGUubWFlPicsICctb21hZScsICc8b3V0ZmlsZS5tYWU+Jw==

>  <s_epik_input>  (1561) 
W2NIXTFbY0hdW2NIXWMoW05IMl0pYyhbQ0gzXSljMVtDSDJdW05IXWMobmMoYzIzKVtjSF1bY0hdW2NIXVtjSF0zKWMobjIpW05IXVtDSDJdYzRjKFtDSDJdTihbQ0gzXSlbQ0gzXSlbY0hdW2NIXVtjSF1bY0hdNA==

>  <s_i_glide_gridfile>  (1561) 
ATP-Grid

>  <s_lp_Force_Field>  (1561) 
OPLS_2005

>  <s_lp_Variant>  (1561) 
m_282030aaa____21927700____23157418____21961622-1

>  <s_lp_label>  (1561) 
1997_sdstereoexpander_1_neutralizer_1_epik_1_stereoizer_1

>  <s_m_source_file>  (1561) 
ATP-VSW-LIGPREP-003-in.maegz

>  <s_sd_BIOSOLVEIT.INFINISEE\_QUERY\_NAME>  (1561) 
Ref-Lig

>  <s_sd_BIOSOLVEIT.INFINISEE\_QUERY\_SMILES>  (1561) 
S(c1nc2c(cc1C[NH2+]Cc3ccc(cc3)C[NH+](C)C)cccc2)Cc4ccccc4

>  <s_sd_BIOSOLVEIT.INFINISEE\_REACTION\_NAME>  (1561) 
m_282030aaa

>  <s_sd_BIOSOLVEIT.INFINISEE\_REAGENT1\_SMILES>  (1561) 
[R1*]NCc1c(cccc1)CN(C)C

>  <s_sd_BIOSOLVEIT.INFINISEE\_REAGENT2\_SMILES>  (1561) 
[R1*]c1nc2c(nc1[R2*])cccc2

>  <s_sd_BIOSOLVEIT.INFINISEE\_REAGENT3\_SMILES>  (1561) 
[R2*]NCc1c(c(N)ccc1)C

>  <s_sd_BIOSOLVEIT.INFINISEE\_SPACE>  (1561) 
REALSpace_44bn_2023-08

>  <s_vsw_compound_code>  (1561) 
63875

>  <s_vsw_variant>  (1561) 
63875-1

>  <r_epik_Charging_Adjusted_Penalty>  (1561) 
0.076612674508475406

>  <r_epik_Ionization_Penalty>  (1561) 
0.040399999999999998

>  <r_epik_Ionization_Penalty_Charging>  (1561) 
0.038300000000000001

>  <r_epik_Ionization_Penalty_Neutral>  (1561) 
0.0020999999999999999

>  <r_epik_State_Penalty>  (1561) 
0.038300000000000001

>  <r_i_docking_score>  (1561) 
-3.46951061383426

>  <r_i_glide_ecoul>  (1561) 
-2.2158071994781499

>  <r_i_glide_eff_state_penalty>  (1561) 
0.038300000000000001

>  <r_i_glide_einternal>  (1561) 
13.5056009292603

>  <r_i_glide_emodel>  (1561) 
-44.605719553274398

>  <r_i_glide_energy>  (1561) 
-40.654905557632397

>  <r_i_glide_erotb>  (1561) 
0.76030325106258601

>  <r_i_glide_esite>  (1561) 
-0.092197712141986202

>  <r_i_glide_evdw>  (1561) 
-38.439098358154297

>  <r_i_glide_gscore>  (1561) 
-3.50781061383426

>  <r_i_glide_hbond>  (1561) 
0

>  <r_i_glide_ligand_efficiency>  (1561) 
-0.10842220668232

>  <r_i_glide_ligand_efficiency_ln>  (1561) 
-0.77691800172488901

>  <r_i_glide_ligand_efficiency_sa>  (1561) 
-0.34421904949080101

>  <r_i_glide_lipo>  (1561) 
-1.42771201856178

>  <r_i_glide_metal>  (1561) 
-0

>  <r_i_glide_rewards>  (1561) 
-0.49387813636363498

>  <r_lp_Energy>  (1561) 
31.185677999999999

>  <r_qp_ACxDN^.5/SA>  (1561) 
0.014184499999999999

>  <r_qp_CIQPlogS>  (1561) 
-5.5439999999999996

>  <r_qp_EA(eV)>  (1561) 
0.65500000000000003

>  <r_qp_FISA>  (1561) 
72.049999999999997

>  <r_qp_FOSA>  (1561) 
245.92500000000001

>  <r_qp_IP(eV)>  (1561) 
7.907

>  <r_qp_Jm>  (1561) 
0.0071168858416078597

>  <r_qp_PISA>  (1561) 
473.38

>  <r_qp_PSA>  (1561) 
69.918999999999997

>  <r_qp_PercentHumanOralAbsorption>  (1561) 
100

>  <r_qp_QPPCaco>  (1561) 
512.32600000000002

>  <r_qp_QPPMDCK>  (1561) 
265.63400000000001

>  <r_qp_QPlogBB>  (1561) 
-0.373

>  <r_qp_QPlogHERG>  (1561) 
-8.1020000000000003

>  <r_qp_QPlogKhsa>  (1561) 
0.77200000000000002

>  <r_qp_QPlogKp>  (1561) 
-2.3780000000000001

>  <r_qp_QPlogPC16>  (1561) 
16.356999999999999

>  <r_qp_QPlogPo/w>  (1561) 
4.8600000000000003

>  <r_qp_QPlogPoct>  (1561) 
25.321000000000002

>  <r_qp_QPlogPw>  (1561) 
14.385

>  <r_qp_QPlogS>  (1561) 
-5.399

>  <r_qp_QPpolrz>  (1561) 
50.116

>  <r_qp_SASA>  (1561) 
791.35599999999999

>  <r_qp_SAamideO>  (1561) 
0

>  <r_qp_SAfluorine>  (1561) 
0

>  <r_qp_WPSA>  (1561) 
0

>  <r_qp_accptHB>  (1561) 
6

>  <r_qp_dip^2/V>  (1561) 
0.033685899999999998

>  <r_qp_dipole>  (1561) 
6.9589999999999996

>  <r_qp_donorHB>  (1561) 
3.5

>  <r_qp_glob>  (1561) 
0.77839029999999998

>  <r_qp_mol_MW>  (1561) 
426.56299999999999

>  <r_qp_volume>  (1561) 
1437.4939999999999

>  <r_sd_BIOSOLVEIT.INFINISEE\_FTREES\_SIMILARITY>  (1561) 
0.90200000000000002

>  <r_sd_BIOSOLVEIT.LOGP>  (1561) 
3.3891200000000001

>  <r_sd_BIOSOLVEIT.MOLECULAR\_WEIGHT>  (1561) 
427.57299999999998

>  <r_sd_BIOSOLVEIT.TPSA>  (1561) 
80.299999999999997

>  <i_epik_Tot_Q>  (1561) 
1

>  <i_epik_Tot_abs_Q>  (1561) 
1

>  <i_f3d_flags>  (1561) 
0

>  <i_i_glide_confnum>  (1561) 
8

>  <i_i_glide_lignum>  (1561) 
754

>  <i_i_glide_posenum>  (1561) 
18

>  <i_i_glide_rotatable_bonds>  (1561) 
8

>  <i_lp_mmshare_version>  (1561) 
65135

>  <i_m_ct_format>  (1561) 
2

>  <i_m_source_file_index>  (1561) 
1997

>  <i_qp_#NandO>  (1561) 
6

>  <i_qp_#acid>  (1561) 
0

>  <i_qp_#amide>  (1561) 
0

>  <i_qp_#amidine>  (1561) 
0

>  <i_qp_#amine>  (1561) 
1

>  <i_qp_#in34>  (1561) 
0

>  <i_qp_#in56>  (1561) 
22

>  <i_qp_#metab>  (1561) 
8

>  <i_qp_#nonHatm>  (1561) 
32

>  <i_qp_#noncon>  (1561) 
0

>  <i_qp_#ringatoms>  (1561) 
22

>  <i_qp_#rotor>  (1561) 
9

>  <i_qp_#rtvFG>  (1561) 
0

>  <i_qp_#stars>  (1561) 
1

>  <i_qp_CNS>  (1561) 
0

>  <i_qp_HumanOralAbsorption>  (1561) 
3

>  <i_qp_RuleOfFive>  (1561) 
0

>  <i_qp_RuleOfThree>  (1561) 
1

>  <i_sd_BIOSOLVEIT.INFINISEE\_REAGENT1\_NAME>  (1561) 
21927700

>  <i_sd_BIOSOLVEIT.INFINISEE\_REAGENT2\_NAME>  (1561) 
23157418

>  <i_sd_BIOSOLVEIT.INFINISEE\_REAGENT3\_NAME>  (1561) 
21961622

>  <i_sd_BIOSOLVEIT.INFINISEE\_RESULT\_RANK>  (1561) 
90560

>  <i_sd_version>  (1561) 
0

>  <b_lp_Chiralities_Consistent>  (1561) 
1

>  <b_sd_chiral_flag>  (1561) 
0

>  <canonical_id>  (1561) 
ATP-HTVS-F5557C46ACCD

>  <compound_code>  (1561) 
63875

>  <title>  (1561) 
m_282030aaa____21927700____23157418____21961622

>  <variant>  (1561) 
63875-1

>  <source_file>  (1561) 
运行/运行/ATP-VSW/ATP-VSW-DOCK_HTVS_1-003_lib/ATP-VSW-DOCK_HTVS_1-003_lib.mae

>  <canonical_smiles>  (1561) 
Cc1c(N)cccc1CNc1nc2ccccc2nc1NCc1ccccc1C[NH+](C)C

>  <scaffold>  (1561) 
c1ccc(CNc2nc3ccccc3nc2NCc2ccccc2)cc1

>  <molecular_formula>  (1561) 
C26H31N6+

$$$$
ATP-HTVS-F58C213B60A1
     RDKit          3D

 70 73  0  0  0  0  0  0  0  0999 V2000
  198.7561  180.9793  149.3962 O   0  0  0  0  0  0  0  0  0  0  0  0
  198.0692  182.1725  149.3536 C   0  0  0  0  0  0  0  0  0  0  0  0
  198.3664  183.0175  148.2651 C   0  0  0  0  0  0  0  0  0  0  0  0
  197.7425  184.2736  148.1356 C   0  0  0  0  0  0  0  0  0  0  0  0
  198.0842  185.1337  147.0135 C   0  0  0  0  0  0  0  0  0  0  0  0
  198.3577  185.8191  146.1254 N   0  0  0  0  0  0  0  0  0  0  0  0
  196.8173  184.7124  149.1012 C   0  0  0  0  0  0  0  0  0  0  0  0
  196.5069  183.8717  150.1884 C   0  0  0  0  0  0  0  0  0  0  0  0
  197.1145  182.6080  150.3035 C   0  0  0  0  0  0  0  0  0  0  0  0
  198.5482  180.0663  150.4670 C   0  0  1  0  0  0  0  0  0  0  0  0
  199.9036  179.4925  150.9258 C   0  0  1  0  0  0  0  0  0  0  0  0
  199.7840  178.3440  151.8222 N   0  0  0  0  0  0  0  0  0  0  0  0
  199.4616  178.5553  153.1834 C   0  0  0  0  0  0  0  0  0  0  0  0
  198.5753  179.5326  153.4822 N   0  0  0  0  0  0  0  0  0  0  0  0
  198.1652  179.7504  154.7358 C   0  0  0  0  0  0  0  0  0  0  0  0
  198.6319  179.0049  155.7430 N   0  0  0  0  0  0  0  0  0  0  0  0
  199.5341  178.0249  155.5269 C   0  0  0  0  0  0  0  0  0  0  0  0
  199.9967  177.7612  154.2210 C   0  0  0  0  0  0  0  0  0  0  0  0
  200.9535  176.7381  154.0182 C   0  0  0  0  0  0  0  0  0  0  0  0
  201.4046  175.9690  155.1077 C   0  0  0  0  0  0  0  0  0  0  0  0
  200.9349  176.2443  156.4089 C   0  0  0  0  0  0  0  0  0  0  0  0
  199.9948  177.2709  156.6156 C   0  0  0  0  0  0  0  0  0  0  0  0
  197.2215  180.7611  154.9677 N   0  0  0  0  0  0  0  0  0  0  0  0
  196.7473  181.1176  156.3117 C   0  0  1  0  0  0  0  0  0  0  0  0
  197.1155  182.4887  156.8661 C   0  0  0  0  0  0  0  0  0  0  0  0
  197.2417  182.6309  158.2658 C   0  0  0  0  0  0  0  0  0  0  0  0
  197.5590  183.8811  158.8338 C   0  0  0  0  0  0  0  0  0  0  0  0
  197.7122  185.0115  158.0000 C   0  0  0  0  0  0  0  0  0  0  0  0
  197.5737  184.8769  156.6069 C   0  0  0  0  0  0  0  0  0  0  0  0
  197.2887  183.6277  156.0431 C   0  0  0  0  0  0  0  0  0  0  0  0
  197.9906  186.3786  158.5885 C   0  0  1  0  0  0  0  0  0  0  0  0
  196.9139  186.8281  159.5056 N   0  0  1  0  0  0  0  0  0  0  0  0
  197.1910  188.1767  160.0528 C   0  0  2  0  0  0  0  0  0  0  0  0
  195.5475  186.7271  158.9370 C   0  0  2  0  0  0  0  0  0  0  0  0
  196.6112  181.4602  153.8411 C   0  0  2  0  0  0  0  0  0  0  0  0
  199.3440  177.0773  151.2368 C   0  0  2  0  0  0  0  0  0  0  0  0
  199.0836  182.6914  147.5215 H   0  0  0  0  0  0  0  0  0  0  0  0
  196.3490  185.6847  149.0038 H   0  0  0  0  0  0  0  0  0  0  0  0
  195.8018  184.1990  150.9394 H   0  0  0  0  0  0  0  0  0  0  0  0
  196.8152  182.0019  151.1381 H   0  0  0  0  0  0  0  0  0  0  0  0
  198.0904  180.5527  151.3115 H   0  0  0  0  0  0  0  0  0  0  0  0
  197.8771  179.2793  150.1250 H   0  0  0  0  0  0  0  0  0  0  0  0
  200.4991  179.1941  150.0654 H   0  0  0  0  0  0  0  0  0  0  0  0
  200.4751  180.2789  151.4213 H   0  0  0  0  0  0  0  0  0  0  0  0
  201.3503  176.5284  153.0385 H   0  0  0  0  0  0  0  0  0  0  0  0
  202.1173  175.1741  154.9440 H   0  0  0  0  0  0  0  0  0  0  0  0
  201.2940  175.6599  157.2488 H   0  0  0  0  0  0  0  0  0  0  0  0
  199.6075  177.4672  157.6040 H   0  0  0  0  0  0  0  0  0  0  0  0
  195.6628  181.0072  156.3449 H   0  0  0  0  0  0  0  0  0  0  0  0
  197.1451  180.4034  157.0317 H   0  0  0  0  0  0  0  0  0  0  0  0
  197.0949  181.7790  158.9178 H   0  0  0  0  0  0  0  0  0  0  0  0
  197.6519  183.9675  159.9096 H   0  0  0  0  0  0  0  0  0  0  0  0
  197.6685  185.7256  155.9443 H   0  0  0  0  0  0  0  0  0  0  0  0
  197.1949  183.6124  154.9701 H   0  0  0  0  0  0  0  0  0  0  0  0
  198.9449  186.3362  159.1158 H   0  0  0  0  0  0  0  0  0  0  0  0
  198.1056  187.0987  157.7770 H   0  0  0  0  0  0  0  0  0  0  0  0
  197.1750  188.9270  159.2616 H   0  0  0  0  0  0  0  0  0  0  0  0
  198.1698  188.2223  160.5322 H   0  0  0  0  0  0  0  0  0  0  0  0
  196.4440  188.4496  160.7980 H   0  0  0  0  0  0  0  0  0  0  0  0
  195.4406  187.3451  158.0446 H   0  0  0  0  0  0  0  0  0  0  0  0
  194.8054  187.0429  159.6706 H   0  0  0  0  0  0  0  0  0  0  0  0
  195.2761  185.7049  158.6697 H   0  0  0  0  0  0  0  0  0  0  0  0
  197.3676  182.0673  153.3473 H   0  0  0  0  0  0  0  0  0  0  0  0
  195.8163  182.1275  154.1732 H   0  0  0  0  0  0  0  0  0  0  0  0
  196.1809  180.7815  153.1033 H   0  0  0  0  0  0  0  0  0  0  0  0
  199.5647  176.2057  151.8561 H   0  0  0  0  0  0  0  0  0  0  0  0
  199.8508  176.9243  150.2800 H   0  0  0  0  0  0  0  0  0  0  0  0
  198.2655  177.0778  151.0568 H   0  0  0  0  0  0  0  0  0  0  0  0
  198.2714  179.0953  156.6972 H   0  0  0  0  0  0  0  0  0  0  0  0
  196.9365  186.1816  160.2819 H   0  0  0  0  0  0  0  0  0  0  0  0
  1  2  1  0
  1 10  1  0
  2  3  1  0
  2  9  2  0
  3  4  2  0
  3 37  1  0
  4  5  1  0
  4  7  1  0
  5  6  3  0
  7  8  2  0
  7 38  1  0
  8  9  1  0
  8 39  1  0
  9 40  1  0
 10 11  1  0
 10 41  1  1
 10 42  1  0
 11 12  1  0
 11 43  1  6
 11 44  1  0
 12 13  1  0
 12 36  1  0
 13 14  2  0
 13 18  1  0
 14 15  1  0
 15 16  2  0
 15 23  1  0
 16 17  1  0
 16 69  1  0
 17 18  1  0
 17 22  2  0
 18 19  2  0
 19 20  1  0
 19 45  1  0
 20 21  2  0
 20 46  1  0
 21 22  1  0
 21 47  1  0
 22 48  1  0
 23 24  1  0
 23 35  1  0
 24 25  1  0
 24 49  1  6
 24 50  1  0
 25 26  1  0
 25 30  2  0
 26 27  2  0
 26 51  1  0
 27 28  1  0
 27 52  1  0
 28 29  2  0
 28 31  1  0
 29 30  1  0
 29 53  1  0
 30 54  1  0
 31 32  1  0
 31 55  1  1
 31 56  1  0
 32 33  1  0
 32 34  1  0
 32 70  1  1
 33 57  1  6
 33 58  1  0
 33 59  1  0
 34 60  1  6
 34 61  1  0
 34 62  1  0
 35 63  1  6
 35 64  1  0
 35 65  1  0
 36 66  1  1
 36 67  1  0
 36 68  1  0
M  CHG  2  16   1  32   1
M  END
>  <s_epik_cmdline>  (1562) 
J2VwaWtfcHl0aG9uJywgJy1waCcsICc3LjAwMDAwMCcsICctcGh0JywgJzIuMDAwMDAwJywgJy1tcycsICcxNicsICctdG4nLCAnOCcsICctbWEnLCAnMjAwJywgJy1pbWFlJywgJzxpbmZpbGUubWFlPicsICctb21hZScsICc8b3V0ZmlsZS5tYWU+Jw==

>  <s_epik_input>  (1562) 
W2NIXTFbY0hdW2NIXWMoQyNOKVtjSF1jMU9bQ0gyXVtDSDJdTihbQ0gzXSljKGMoYzIzKVtjSF1bY0hdW2NIXVtjSF0zKW5jKG4yKU4oW0NIM10pW0NIMl1jNFtjSF1bY0hdYyhbY0hdW2NIXTQpW0NIMl1OKFtDSDNdKVtDSDNd

>  <s_i_glide_gridfile>  (1562) 
ATP-Grid

>  <s_lp_Force_Field>  (1562) 
OPLS_2005

>  <s_lp_Variant>  (1562) 
m_282030aaa____21903914____22360182____21942374-1

>  <s_lp_label>  (1562) 
1330_sdstereoexpander_1_neutralizer_1_epik_1_stereoizer_1

>  <s_m_source_file>  (1562) 
ATP-VSW-LIGPREP-003-in.maegz

>  <s_sd_BIOSOLVEIT.INFINISEE\_QUERY\_NAME>  (1562) 
Ref-Lig

>  <s_sd_BIOSOLVEIT.INFINISEE\_QUERY\_SMILES>  (1562) 
S(c1nc2c(cc1C[NH2+]Cc3ccc(cc3)C[NH+](C)C)cccc2)Cc4ccccc4

>  <s_sd_BIOSOLVEIT.INFINISEE\_REACTION\_NAME>  (1562) 
m_282030aaa

>  <s_sd_BIOSOLVEIT.INFINISEE\_REAGENT1\_SMILES>  (1562) 
[R1*]N(CCOc1cc(C#N)ccc1)C

>  <s_sd_BIOSOLVEIT.INFINISEE\_REAGENT2\_SMILES>  (1562) 
[R2*]c1nc([R1*])c2c(n1)cccc2

>  <s_sd_BIOSOLVEIT.INFINISEE\_REAGENT3\_SMILES>  (1562) 
[R2*]N(Cc1ccc(cc1)CN(C)C)C

>  <s_sd_BIOSOLVEIT.INFINISEE\_SPACE>  (1562) 
REALSpace_44bn_2023-08

>  <s_vsw_compound_code>  (1562) 
42531

>  <s_vsw_variant>  (1562) 
42531-1

>  <r_epik_Charging_Adjusted_Penalty>  (1562) 
0.075560342763091495

>  <r_epik_Ionization_Penalty>  (1562) 
0.039300000000000002

>  <r_epik_Ionization_Penalty_Charging>  (1562) 
0.039300000000000002

>  <r_epik_Ionization_Penalty_Neutral>  (1562) 
0

>  <r_epik_State_Penalty>  (1562) 
0.036200000000000003

>  <r_i_docking_score>  (1562) 
-4.1206241145774003

>  <r_i_glide_ecoul>  (1562) 
-6.0202746391296396

>  <r_i_glide_eff_state_penalty>  (1562) 
0.036200000000000003

>  <r_i_glide_einternal>  (1562) 
5.3211779594421396

>  <r_i_glide_emodel>  (1562) 
-58.692066678974498

>  <r_i_glide_energy>  (1562) 
-43.162387371063197

>  <r_i_glide_erotb>  (1562) 
0.78418425816098902

>  <r_i_glide_esite>  (1562) 
-0.18347049922320099

>  <r_i_glide_evdw>  (1562) 
-37.142112731933601

>  <r_i_glide_gscore>  (1562) 
-4.1568241145774003

>  <r_i_glide_hbond>  (1562) 
-0.109250003596901

>  <r_i_glide_ligand_efficiency>  (1562) 
-0.114461780960483

>  <r_i_glide_ligand_efficiency_ln>  (1562) 
-0.89900885540256303

>  <r_i_glide_ligand_efficiency_sa>  (1562) 
-0.377944473058971

>  <r_i_glide_lipo>  (1562) 
-1.4681684068969201

>  <r_i_glide_metal>  (1562) 
-0

>  <r_i_glide_rewards>  (1562) 
-0.41997263055524198

>  <r_lp_Energy>  (1562) 
19.062135000000001

>  <r_lp_tautomer_probability>  (1562) 
0.99350799999861505

>  <r_qp_ACxDN^.5/SA>  (1562) 
0

>  <r_qp_CIQPlogS>  (1562) 
-7.1870000000000003

>  <r_qp_EA(eV)>  (1562) 
0.98599999999999999

>  <r_qp_FISA>  (1562) 
61.898000000000003

>  <r_qp_FOSA>  (1562) 
327.88499999999999

>  <r_qp_IP(eV)>  (1562) 
8.3379999999999992

>  <r_qp_Jm>  (1562) 
0.056967184641165902

>  <r_qp_PISA>  (1562) 
354.06200000000001

>  <r_qp_PSA>  (1562) 
57.298000000000002

>  <r_qp_PercentHumanOralAbsorption>  (1562) 
100

>  <r_qp_QPPCaco>  (1562) 
639.47500000000002

>  <r_qp_QPPMDCK>  (1562) 
337.55799999999999

>  <r_qp_QPlogBB>  (1562) 
-0.27900000000000003

>  <r_qp_QPlogHERG>  (1562) 
-6.4589999999999996

>  <r_qp_QPlogKhsa>  (1562) 
0.51100000000000001

>  <r_qp_QPlogKp>  (1562) 
-2.4199999999999999

>  <r_qp_QPlogPC16>  (1562) 
14.773999999999999

>  <r_qp_QPlogPo/w>  (1562) 
4.8860000000000001

>  <r_qp_QPlogPoct>  (1562) 
20.599

>  <r_qp_QPlogPw>  (1562) 
9.0530000000000008

>  <r_qp_QPlogS>  (1562) 
-4.5069999999999997

>  <r_qp_QPpolrz>  (1562) 
49.436

>  <r_qp_SASA>  (1562) 
743.84500000000003

>  <r_qp_SAamideO>  (1562) 
0

>  <r_qp_SAfluorine>  (1562) 
0

>  <r_qp_WPSA>  (1562) 
0

>  <r_qp_accptHB>  (1562) 
7.25

>  <r_qp_dip^2/V>  (1562) 
0.027228800000000001

>  <r_qp_dipole>  (1562) 
6.3499999999999996

>  <r_qp_donorHB>  (1562) 
0

>  <r_qp_glob>  (1562) 
0.8447498

>  <r_qp_mol_MW>  (1562) 
480.61099999999999

>  <r_qp_volume>  (1562) 
1481.0440000000001

>  <r_sd_BIOSOLVEIT.INFINISEE\_FTREES\_SIMILARITY>  (1562) 
0.90900000000000003

>  <r_sd_BIOSOLVEIT.LOGP>  (1562) 
3.29758

>  <r_sd_BIOSOLVEIT.MOLECULAR\_WEIGHT>  (1562) 
481.62099999999998

>  <r_sd_BIOSOLVEIT.TPSA>  (1562) 
69.719999999999999

>  <i_epik_Tot_Q>  (1562) 
2

>  <i_epik_Tot_abs_Q>  (1562) 
2

>  <i_f3d_flags>  (1562) 
0

>  <i_i_glide_confnum>  (1562) 
1

>  <i_i_glide_lignum>  (1562) 
522

>  <i_i_glide_posenum>  (1562) 
18

>  <i_i_glide_rotatable_bonds>  (1562) 
10

>  <i_lp_mmshare_version>  (1562) 
65135

>  <i_m_ct_format>  (1562) 
2

>  <i_m_source_file_index>  (1562) 
1330

>  <i_qp_#NandO>  (1562) 
7

>  <i_qp_#acid>  (1562) 
0

>  <i_qp_#amide>  (1562) 
0

>  <i_qp_#amidine>  (1562) 
0

>  <i_qp_#amine>  (1562) 
1

>  <i_qp_#in34>  (1562) 
0

>  <i_qp_#in56>  (1562) 
22

>  <i_qp_#metab>  (1562) 
4

>  <i_qp_#nonHatm>  (1562) 
36

>  <i_qp_#noncon>  (1562) 
0

>  <i_qp_#ringatoms>  (1562) 
22

>  <i_qp_#rotor>  (1562) 
11

>  <i_qp_#rtvFG>  (1562) 
0

>  <i_qp_#stars>  (1562) 
0

>  <i_qp_CNS>  (1562) 
1

>  <i_qp_HumanOralAbsorption>  (1562) 
3

>  <i_qp_RuleOfFive>  (1562) 
0

>  <i_qp_RuleOfThree>  (1562) 
0

>  <i_sd_BIOSOLVEIT.INFINISEE\_REAGENT1\_NAME>  (1562) 
21903914

>  <i_sd_BIOSOLVEIT.INFINISEE\_REAGENT2\_NAME>  (1562) 
22360182

>  <i_sd_BIOSOLVEIT.INFINISEE\_REAGENT3\_NAME>  (1562) 
21942374

>  <i_sd_BIOSOLVEIT.INFINISEE\_RESULT\_RANK>  (1562) 
48352

>  <i_sd_version>  (1562) 
0

>  <b_lp_Chiralities_Consistent>  (1562) 
1

>  <b_sd_chiral_flag>  (1562) 
0

>  <canonical_id>  (1562) 
ATP-HTVS-F58C213B60A1

>  <compound_code>  (1562) 
42531

>  <title>  (1562) 
m_282030aaa____21903914____22360182____21942374

>  <variant>  (1562) 
42531-1

>  <source_file>  (1562) 
运行/运行/ATP-VSW/ATP-VSW-DOCK_HTVS_1-003_lib/ATP-VSW-DOCK_HTVS_1-003_lib.mae

>  <canonical_smiles>  (1562) 
CN(Cc1ccc(C[NH+](C)C)cc1)c1nc(N(C)CCOc2cccc(C#N)c2)c2ccccc2[nH+]1

>  <scaffold>  (1562) 
c1ccc(CNc2nc(NCCOc3ccccc3)c3ccccc3[nH+]2)cc1

>  <molecular_formula>  (1562) 
C29H34N6O+2

$$$$
ATP-HTVS-F60BECC0718F
     RDKit          3D

 65 68  0  0  0  0  0  0  0  0999 V2000
  196.1012  182.8049  150.4924 O   0  0  0  0  0  0  0  0  0  0  0  0
  197.0812  183.4469  150.8784 C   0  0  0  0  0  0  0  0  0  0  0  0
  197.4954  183.4729  152.1446 N   0  0  0  0  0  0  0  0  0  0  0  0
  198.6291  184.1319  152.6057 N   0  0  0  0  0  0  0  0  0  0  0  0
  199.3650  184.8820  151.8816 C   0  0  0  0  0  0  0  0  0  0  0  0
  199.0402  184.9915  150.4382 C   0  0  0  0  0  0  0  0  0  0  0  0
  197.9083  184.2681  149.9504 C   0  0  0  0  0  0  0  0  0  0  0  0
  197.5795  184.3168  148.5653 C   0  0  0  0  0  0  0  0  0  0  0  0
  198.3666  185.0772  147.7062 C   0  0  0  0  0  0  0  0  0  0  0  0
  199.4734  185.7970  148.1875 C   0  0  0  0  0  0  0  0  0  0  0  0
  199.8037  185.7528  149.5603 C   0  0  0  0  0  0  0  0  0  0  0  0
  200.5699  185.6380  152.4567 C   0  0  1  0  0  0  0  0  0  0  0  0
  200.6483  185.6930  153.9998 C   0  0  0  0  0  0  0  0  0  0  0  0
  201.5191  185.0242  154.5599 O   0  0  0  0  0  0  0  0  0  0  0  0
  199.7660  186.4489  154.6967 N   0  0  0  0  0  0  0  0  0  0  0  0
  199.6169  186.3057  156.1589 C   0  0  1  0  0  0  0  0  0  0  0  0
  198.7421  185.1384  156.6190 C   0  0  0  0  0  0  0  0  0  0  0  0
  197.8909  184.4894  155.7266 C   0  0  0  0  0  0  0  0  0  0  0  0
  197.0674  183.4441  156.1636 C   0  0  0  0  0  0  0  0  0  0  0  0
  197.0772  182.9713  157.4793 C   0  0  0  0  0  0  0  0  0  0  0  0
  197.9011  183.6358  158.3817 C   0  0  0  0  0  0  0  0  0  0  0  0
  198.7208  184.7234  157.9536 C   0  0  0  0  0  0  0  0  0  0  0  0
  196.1521  181.8439  157.8628 C   0  0  1  0  0  0  0  0  0  0  0  0
  194.7538  182.2841  158.0478 N   0  0  1  0  0  0  0  0  0  0  0  0
  193.8630  181.1620  158.4036 C   0  0  2  0  0  0  0  0  0  0  0  0
  194.6432  183.4111  159.0160 C   0  0  2  0  0  0  0  0  0  0  0  0
  198.8524  187.4051  154.0599 C   0  0  2  0  0  0  0  0  0  0  0  0
  196.7332  182.7117  153.0998 C   0  0  1  0  0  0  0  0  0  0  0  0
  197.4358  181.4725  153.6635 C   0  0  0  0  0  0  0  0  0  0  0  0
  198.6165  181.0050  153.0661 C   0  0  0  0  0  0  0  0  0  0  0  0
  199.2505  179.8217  153.4998 C   0  0  0  0  0  0  0  0  0  0  0  0
  198.7258  179.1108  154.5992 C   0  0  0  0  0  0  0  0  0  0  0  0
  197.5594  179.5581  155.2300 C   0  0  0  0  0  0  0  0  0  0  0  0
  196.8981  180.6887  154.6997 C   0  0  0  0  0  0  0  0  0  0  0  0
  196.7302  183.7610  148.2177 H   0  0  0  0  0  0  0  0  0  0  0  0
  198.1059  185.1125  146.6685 H   0  0  0  0  0  0  0  0  0  0  0  0
  200.0661  186.3907  147.5184 H   0  0  0  0  0  0  0  0  0  0  0  0
  200.6633  186.3177  149.9019 H   0  0  0  0  0  0  0  0  0  0  0  0
  201.4834  185.1702  152.0779 H   0  0  0  0  0  0  0  0  0  0  0  0
  200.5810  186.6686  152.1021 H   0  0  0  0  0  0  0  0  0  0  0  0
  200.5944  186.1965  156.6263 H   0  0  0  0  0  0  0  0  0  0  0  0
  199.1804  187.2129  156.5893 H   0  0  0  0  0  0  0  0  0  0  0  0
  197.8412  184.8515  154.7286 H   0  0  0  0  0  0  0  0  0  0  0  0
  196.3226  182.9686  155.5719 H   0  0  0  0  0  0  0  0  0  0  0  0
  197.8593  183.3176  159.4124 H   0  0  0  0  0  0  0  0  0  0  0  0
  199.3266  185.2365  158.6943 H   0  0  0  0  0  0  0  0  0  0  0  0
  196.1357  181.0498  157.1307 H   0  0  0  0  0  0  0  0  0  0  0  0
  196.5537  181.3436  158.7398 H   0  0  0  0  0  0  0  0  0  0  0  0
  194.1954  180.7009  159.3324 H   0  0  0  0  0  0  0  0  0  0  0  0
  193.8710  180.4010  157.6232 H   0  0  0  0  0  0  0  0  0  0  0  0
  192.8334  181.4867  158.5188 H   0  0  0  0  0  0  0  0  0  0  0  0
  195.0811  183.1114  159.9633 H   0  0  0  0  0  0  0  0  0  0  0  0
  193.5994  183.6949  159.1631 H   0  0  0  0  0  0  0  0  0  0  0  0
  195.1717  184.2885  158.6450 H   0  0  0  0  0  0  0  0  0  0  0  0
  198.1767  186.9232  153.3552 H   0  0  0  0  0  0  0  0  0  0  0  0
  199.4299  188.1622  153.5293 H   0  0  0  0  0  0  0  0  0  0  0  0
  198.2271  187.9241  154.7855 H   0  0  0  0  0  0  0  0  0  0  0  0
  196.5087  183.5841  153.7875 H   0  0  0  0  0  0  0  0  0  0  0  0
  195.7228  182.4632  152.8648 H   0  0  0  0  0  0  0  0  0  0  0  0
  199.0406  181.5400  152.2161 H   0  0  0  0  0  0  0  0  0  0  0  0
  200.1256  179.4775  152.9741 H   0  0  0  0  0  0  0  0  0  0  0  0
  199.2150  178.1920  154.9261 H   0  0  0  0  0  0  0  0  0  0  0  0
  197.1675  179.0205  156.0811 H   0  0  0  0  0  0  0  0  0  0  0  0
  195.9435  180.9746  155.1213 H   0  0  0  0  0  0  0  0  0  0  0  0
  194.3918  182.6304  157.1466 H   0  0  0  0  0  0  0  0  0  0  0  0
  1  2  2  0
  2  3  1  0
  2  7  1  0
  3  4  1  0
  3 28  1  0
  4  5  2  0
  5  6  1  0
  5 12  1  0
  6  7  1  0
  6 11  2  0
  7  8  2  0
  8  9  1  0
  8 35  1  0
  9 10  2  0
  9 36  1  0
 10 11  1  0
 10 37  1  0
 11 38  1  0
 12 13  1  0
 12 39  1  6
 12 40  1  0
 13 14  2  0
 13 15  1  0
 15 16  1  0
 15 27  1  0
 16 17  1  0
 16 41  1  1
 16 42  1  0
 17 18  1  0
 17 22  2  0
 18 19  2  0
 18 43  1  0
 19 20  1  0
 19 44  1  0
 20 21  2  0
 20 23  1  0
 21 22  1  0
 21 45  1  0
 22 46  1  0
 23 24  1  0
 23 47  1  6
 23 48  1  0
 24 25  1  0
 24 26  1  0
 24 65  1  6
 25 49  1  1
 25 50  1  0
 25 51  1  0
 26 52  1  1
 26 53  1  0
 26 54  1  0
 27 55  1  6
 27 56  1  0
 27 57  1  0
 28 29  1  0
 28 58  1  1
 28 59  1  0
 29 30  2  0
 29 34  1  0
 30 31  1  0
 30 60  1  0
 31 32  2  0
 31 61  1  0
 32 33  1  0
 32 62  1  0
 33 34  2  0
 33 63  1  0
 34 64  1  0
M  CHG  1  24   1
M  END
>  <s_epik_cmdline>  (1563) 
J2VwaWtfcHl0aG9uJywgJy1waCcsICc3LjAwMDAwMCcsICctcGh0JywgJzIuMDAwMDAwJywgJy1tcycsICcxNicsICctdG4nLCAnOCcsICctbWEnLCAnMjAwJywgJy1pbWFlJywgJzxpbmZpbGUubWFlPicsICctb21hZScsICc8b3V0ZmlsZS5tYWU+Jw==

>  <s_epik_input>  (1563) 
W2NIXTFbY0hdW2NIXVtjSF1bY0hdYzFbQ0gyXW4oYyg9TyljKGMyMylbY0hdW2NIXVtjSF1bY0hdMyluYzJbQ0gyXUMoPU8pTihbQ0gzXSlbQ0gyXWM0W2NIXVtjSF1jKFtjSF1bY0hdNClbQ0gyXU4oW0NIM10pW0NIM10=

>  <s_i_glide_gridfile>  (1563) 
ATP-Grid

>  <s_lp_Force_Field>  (1563) 
OPLS_2005

>  <s_lp_Variant>  (1563) 
a1____190061____398704-1

>  <s_lp_label>  (1563) 
203_sdstereoexpander_1_neutralizer_1_epik_1_stereoizer_1

>  <s_m_source_file>  (1563) 
ATP-VSW-LIGPREP-001-in.maegz

>  <s_sd_BIOSOLVEIT.INFINISEE\_QUERY\_NAME>  (1563) 
Ref-Lig

>  <s_sd_BIOSOLVEIT.INFINISEE\_QUERY\_SMILES>  (1563) 
S(c1nc2c(cc1C[NH2+]Cc3ccc(cc3)C[NH+](C)C)cccc2)Cc4ccccc4

>  <s_sd_BIOSOLVEIT.INFINISEE\_REACTION\_NAME>  (1563) 
a1

>  <s_sd_BIOSOLVEIT.INFINISEE\_REAGENT1\_SMILES>  (1563) 
[R1*]N(Cc1ccc(cc1)CN(C)C)C

>  <s_sd_BIOSOLVEIT.INFINISEE\_REAGENT2\_SMILES>  (1563) 
[R1*]C(=O)CC1=NN(C(=O)c2c1cccc2)Cc3ccccc3

>  <s_sd_BIOSOLVEIT.INFINISEE\_SPACE>  (1563) 
FreedomSpace_5bn_2023-06

>  <s_vsw_compound_code>  (1563) 
6465

>  <s_vsw_variant>  (1563) 
6465-1

>  <r_epik_Charging_Adjusted_Penalty>  (1563) 
0.089588252978034105

>  <r_epik_Ionization_Penalty>  (1563) 
0.0448

>  <r_epik_Ionization_Penalty_Charging>  (1563) 
0.0448

>  <r_epik_Ionization_Penalty_Neutral>  (1563) 
0

>  <r_epik_State_Penalty>  (1563) 
0.0448

>  <r_i_docking_score>  (1563) 
-3.6664122264029002

>  <r_i_glide_ecoul>  (1563) 
-9.7603921890258807

>  <r_i_glide_eff_state_penalty>  (1563) 
0.0448

>  <r_i_glide_einternal>  (1563) 
5.2734389305114702

>  <r_i_glide_emodel>  (1563) 
-53.615485696876704

>  <r_i_glide_energy>  (1563) 
-41.479094505310101

>  <r_i_glide_erotb>  (1563) 
0.77439018997812004

>  <r_i_glide_esite>  (1563) 
-0.113686588566368

>  <r_i_glide_evdw>  (1563) 
-31.718702316284201

>  <r_i_glide_gscore>  (1563) 
-3.7112122264029002

>  <r_i_glide_hbond>  (1563) 
-0.20000000000000001

>  <r_i_glide_ligand_efficiency>  (1563) 
-0.107835653717732

>  <r_i_glide_ligand_efficiency_ln>  (1563) 
-0.81001330019194895

>  <r_i_glide_ligand_efficiency_sa>  (1563) 
-0.34934565597179801

>  <r_i_glide_lipo>  (1563) 
-0.81899920182837904

>  <r_i_glide_metal>  (1563) 
-0

>  <r_i_glide_rewards>  (1563) 
-0.30292268181818099

>  <r_lp_Energy>  (1563) 
35.467784000000002

>  <r_qp_ACxDN^.5/SA>  (1563) 
0

>  <r_qp_CIQPlogS>  (1563) 
-5.109

>  <r_qp_EA(eV)>  (1563) 
0.83599999999999997

>  <r_qp_FISA>  (1563) 
77.638000000000005

>  <r_qp_FOSA>  (1563) 
277.16199999999998

>  <r_qp_IP(eV)>  (1563) 
8.9909999999999997

>  <r_qp_Jm>  (1563) 
1.86333581397582

>  <r_qp_PISA>  (1563) 
343.66899999999998

>  <r_qp_PSA>  (1563) 
69.680000000000007

>  <r_qp_PercentHumanOralAbsorption>  (1563) 
92.117999999999995

>  <r_qp_QPPCaco>  (1563) 
273.51299999999998

>  <r_qp_QPPMDCK>  (1563) 
232.81399999999999

>  <r_qp_QPlogBB>  (1563) 
-0.215

>  <r_qp_QPlogHERG>  (1563) 
-4.7350000000000003

>  <r_qp_QPlogKhsa>  (1563) 
0.126

>  <r_qp_QPlogKp>  (1563) 
-3.0339999999999998

>  <r_qp_QPlogPC16>  (1563) 
14.031000000000001

>  <r_qp_QPlogPo/w>  (1563) 
3.681

>  <r_qp_QPlogPoct>  (1563) 
19.994

>  <r_qp_QPlogPw>  (1563) 
11.436999999999999

>  <r_qp_QPlogS>  (1563) 
-2.3530000000000002

>  <r_qp_QPpolrz>  (1563) 
47.707999999999998

>  <r_qp_SASA>  (1563) 
698.46900000000005

>  <r_qp_SAamideO>  (1563) 
27.585000000000001

>  <r_qp_SAfluorine>  (1563) 
0

>  <r_qp_WPSA>  (1563) 
0

>  <r_qp_accptHB>  (1563) 
7

>  <r_qp_dip^2/V>  (1563) 
0.022826800000000001

>  <r_qp_dipole>  (1563) 
5.6369999999999996

>  <r_qp_donorHB>  (1563) 
0

>  <r_qp_glob>  (1563) 
0.86328990000000005

>  <r_qp_mol_MW>  (1563) 
454.57100000000003

>  <r_qp_volume>  (1563) 
1392.22

>  <r_sd_BIOSOLVEIT.INFINISEE\_FTREES\_SIMILARITY>  (1563) 
0.92200000000000004

>  <r_sd_BIOSOLVEIT.LOGP>  (1563) 
2.2904

>  <r_sd_BIOSOLVEIT.MOLECULAR\_WEIGHT>  (1563) 
455.57900000000001

>  <r_sd_BIOSOLVEIT.TPSA>  (1563) 
59.640000000000001

>  <i_epik_Tot_Q>  (1563) 
1

>  <i_epik_Tot_abs_Q>  (1563) 
1

>  <i_f3d_flags>  (1563) 
0

>  <i_i_glide_confnum>  (1563) 
3

>  <i_i_glide_lignum>  (1563) 
43

>  <i_i_glide_posenum>  (1563) 
13

>  <i_i_glide_rotatable_bonds>  (1563) 
9

>  <i_lp_mmshare_version>  (1563) 
65135

>  <i_m_ct_format>  (1563) 
2

>  <i_m_source_file_index>  (1563) 
203

>  <i_qp_#NandO>  (1563) 
6

>  <i_qp_#acid>  (1563) 
0

>  <i_qp_#amide>  (1563) 
1

>  <i_qp_#amidine>  (1563) 
0

>  <i_qp_#amine>  (1563) 
1

>  <i_qp_#in34>  (1563) 
0

>  <i_qp_#in56>  (1563) 
22

>  <i_qp_#metab>  (1563) 
5

>  <i_qp_#nonHatm>  (1563) 
34

>  <i_qp_#noncon>  (1563) 
0

>  <i_qp_#ringatoms>  (1563) 
22

>  <i_qp_#rotor>  (1563) 
8

>  <i_qp_#rtvFG>  (1563) 
0

>  <i_qp_#stars>  (1563) 
0

>  <i_qp_CNS>  (1563) 
1

>  <i_qp_HumanOralAbsorption>  (1563) 
3

>  <i_qp_RuleOfFive>  (1563) 
0

>  <i_qp_RuleOfThree>  (1563) 
0

>  <i_sd_BIOSOLVEIT.INFINISEE\_REAGENT1\_NAME>  (1563) 
190061

>  <i_sd_BIOSOLVEIT.INFINISEE\_REAGENT2\_NAME>  (1563) 
398704

>  <i_sd_BIOSOLVEIT.INFINISEE\_RESULT\_RANK>  (1563) 
13771

>  <i_sd_version>  (1563) 
0

>  <b_lp_Chiralities_Consistent>  (1563) 
1

>  <b_sd_chiral_flag>  (1563) 
0

>  <canonical_id>  (1563) 
ATP-HTVS-F60BECC0718F

>  <compound_code>  (1563) 
6465

>  <title>  (1563) 
a1____190061____398704

>  <variant>  (1563) 
6465-1

>  <source_file>  (1563) 
运行/运行/ATP-VSW/ATP-VSW-DOCK_HTVS_1-001_lib/ATP-VSW-DOCK_HTVS_1-001_lib

>  <canonical_smiles>  (1563) 
CN(Cc1ccc(C[NH+](C)C)cc1)C(=O)Cc1nn(Cc2ccccc2)c(=O)c2ccccc12

>  <scaffold>  (1563) 
O=C(Cc1nn(Cc2ccccc2)c(=O)c2ccccc12)NCc1ccccc1

>  <molecular_formula>  (1563) 
C28H31N4O2+

$$$$
ATP-HTVS-F62C08D65C28
     RDKit          3D

 56 59  0  0  0  0  0  0  0  0999 V2000
  199.1610  180.7542  152.8589 O   0  0  0  0  0  0  0  0  0  0  0  0
  198.3340  180.0362  153.4905 C   0  0  0  0  0  0  0  0  0  0  0  0
  197.3541  179.4603  152.9711 O   0  0  0  0  0  0  0  0  0  0  0  0
  198.4945  179.9985  155.0341 C   0  0  1  0  0  0  0  0  0  0  0  0
  197.1751  179.9298  155.7268 N   0  0  1  0  0  0  0  0  0  0  0  0
  196.4080  181.1905  155.9116 C   0  0  1  0  0  0  0  0  0  0  0  0
  197.3254  182.3633  156.1610 C   0  0  0  0  0  0  0  0  0  0  0  0
  197.7634  183.3938  155.2533 C   0  0  0  0  0  0  0  0  0  0  0  0
  198.6151  184.2138  155.8633 N   0  0  0  0  0  0  0  0  0  0  0  0
  198.7041  183.8009  157.1505 N   0  0  0  0  0  0  0  0  0  0  0  0
  199.5080  184.4975  158.0929 C   0  0  0  0  0  0  0  0  0  0  0  0
  200.0442  183.8363  159.2267 C   0  0  0  0  0  0  0  0  0  0  0  0
  200.8265  184.5480  160.1583 C   0  0  0  0  0  0  0  0  0  0  0  0
  201.0771  185.9201  159.9707 C   0  0  0  0  0  0  0  0  0  0  0  0
  200.5478  186.5862  158.8500 C   0  0  0  0  0  0  0  0  0  0  0  0
  199.7719  185.8758  157.9144 C   0  0  0  0  0  0  0  0  0  0  0  0
  197.9239  182.6821  157.3475 C   0  0  0  0  0  0  0  0  0  0  0  0
  197.4828  183.5814  153.8164 C   0  0  0  0  0  0  0  0  0  0  0  0
  196.9174  182.5336  153.0548 C   0  0  0  0  0  0  0  0  0  0  0  0
  196.7514  182.6770  151.6758 C   0  0  0  0  0  0  0  0  0  0  0  0
  197.0536  183.8989  151.0278 C   0  0  0  0  0  0  0  0  0  0  0  0
  197.5900  184.9777  151.7677 C   0  0  0  0  0  0  0  0  0  0  0  0
  197.8079  184.8163  153.1583 C   0  0  0  0  0  0  0  0  0  0  0  0
  196.8032  184.0264  149.5272 C   0  0  2  0  0  0  0  0  0  0  0  0
  199.3452  178.7636  155.3450 C   0  0  0  0  0  0  0  0  0  0  0  0
  199.9553  178.6460  156.6152 C   0  0  0  0  0  0  0  0  0  0  0  0
  200.7822  177.5453  156.9263 C   0  0  0  0  0  0  0  0  0  0  0  0
  201.0111  176.5527  155.9483 C   0  0  0  0  0  0  0  0  0  0  0  0
  200.4164  176.6530  154.6737 C   0  0  0  0  0  0  0  0  0  0  0  0
  199.5993  177.7509  154.3743 C   0  0  0  0  0  0  0  0  0  0  0  0
  201.8908  175.3642  156.2371 C   0  0  2  0  0  0  0  0  0  0  0  0
  196.6113  179.2711  155.2147 H   0  0  0  0  0  0  0  0  0  0  0  0
  199.0777  180.8538  155.3560 H   0  0  0  0  0  0  0  0  0  0  0  0
  195.7426  181.3603  155.0748 H   0  0  0  0  0  0  0  0  0  0  0  0
  195.7229  181.0471  156.7631 H   0  0  0  0  0  0  0  0  0  0  0  0
  199.8575  182.7847  159.3885 H   0  0  0  0  0  0  0  0  0  0  0  0
  201.2226  184.0412  161.0274 H   0  0  0  0  0  0  0  0  0  0  0  0
  201.6654  186.4657  160.6940 H   0  0  0  0  0  0  0  0  0  0  0  0
  200.7284  187.6421  158.7115 H   0  0  0  0  0  0  0  0  0  0  0  0
  199.3652  186.3993  157.0627 H   0  0  0  0  0  0  0  0  0  0  0  0
  197.8510  182.2080  158.3180 H   0  0  0  0  0  0  0  0  0  0  0  0
  196.5694  181.5882  153.4585 H   0  0  0  0  0  0  0  0  0  0  0  0
  196.3557  181.8509  151.1089 H   0  0  0  0  0  0  0  0  0  0  0  0
  197.8062  185.9322  151.2758 H   0  0  0  0  0  0  0  0  0  0  0  0
  198.2510  185.6501  153.7166 H   0  0  0  0  0  0  0  0  0  0  0  0
  197.6073  184.6045  149.0530 H   0  0  0  0  0  0  0  0  0  0  0  0
  195.8441  184.5305  149.3783 H   0  0  0  0  0  0  0  0  0  0  0  0
  196.7509  183.0388  149.0510 H   0  0  0  0  0  0  0  0  0  0  0  0
  199.7918  179.4210  157.3585 H   0  0  0  0  0  0  0  0  0  0  0  0
  201.2398  177.4742  157.9068 H   0  0  0  0  0  0  0  0  0  0  0  0
  200.5862  175.9012  153.9134 H   0  0  0  0  0  0  0  0  0  0  0  0
  199.1679  177.8043  153.3876 H   0  0  0  0  0  0  0  0  0  0  0  0
  202.0715  174.8011  155.3206 H   0  0  0  0  0  0  0  0  0  0  0  0
  201.3668  174.7166  156.9357 H   0  0  0  0  0  0  0  0  0  0  0  0
  202.8414  175.7080  156.6488 H   0  0  0  0  0  0  0  0  0  0  0  0
  197.3228  179.5320  156.6538 H   0  0  0  0  0  0  0  0  0  0  0  0
  1  2  1  0
  2  3  2  0
  2  4  1  0
  4  5  1  0
  4 25  1  0
  4 33  1  1
  5  6  1  0
  5 32  1  6
  5 56  1  0
  6  7  1  0
  6 34  1  6
  6 35  1  0
  7  8  1  0
  7 17  2  0
  8  9  2  0
  8 18  1  0
  9 10  1  0
 10 11  1  0
 10 17  1  0
 11 12  2  0
 11 16  1  0
 12 13  1  0
 12 36  1  0
 13 14  2  0
 13 37  1  0
 14 15  1  0
 14 38  1  0
 15 16  2  0
 15 39  1  0
 16 40  1  0
 17 41  1  0
 18 19  1  0
 18 23  2  0
 19 20  2  0
 19 42  1  0
 20 21  1  0
 20 43  1  0
 21 22  2  0
 21 24  1  0
 22 23  1  0
 22 44  1  0
 23 45  1  0
 24 46  1  6
 24 47  1  0
 24 48  1  0
 25 26  1  0
 25 30  2  0
 26 27  2  0
 26 49  1  0
 27 28  1  0
 27 50  1  0
 28 29  2  0
 28 31  1  0
 29 30  1  0
 29 51  1  0
 30 52  1  0
 31 53  1  6
 31 54  1  0
 31 55  1  0
M  CHG  2   1  -1   5   1
M  END
>  <s_epik_cmdline>  (1564) 
J2VwaWtfcHl0aG9uJywgJy1waCcsICc3LjAwMDAwMCcsICctcGh0JywgJzIuMDAwMDAwJywgJy1tcycsICcxNicsICctdG4nLCAnOCcsICctbWEnLCAnMjAwJywgJy1pbWFlJywgJzxpbmZpbGUubWFlPicsICctb21hZScsICc8b3V0ZmlsZS5tYWU+Jw==

>  <s_epik_input>  (1564) 
W2NIXTFbY0hdYyhbQ0gzXSlbY0hdW2NIXWMxW0NAQEhdKEMoPU8pW09IXSlbTkhdW0NIMl1jMmMoLWMzW2NIXVtjSF1jKFtDSDNdKVtjSF1bY0hdMylubihbY0hdMiktYzRbY0hdW2NIXVtjSF1bY0hdW2NIXTQ=

>  <s_i_glide_gridfile>  (1564) 
ATP-Grid

>  <s_lp_Force_Field>  (1564) 
OPLS_2005

>  <s_lp_Variant>  (1564) 
m_271304bca____8910674____9304714-2

>  <s_lp_label>  (1564) 
2015_sdstereoexpander_2_neutralizer_1_epik_1_stereoizer_1

>  <s_m_source_file>  (1564) 
ATP-VSW-LIGPREP-001-in.maegz

>  <s_sd_BIOSOLVEIT.INFINISEE\_QUERY\_NAME>  (1564) 
Ref-Lig

>  <s_sd_BIOSOLVEIT.INFINISEE\_QUERY\_SMILES>  (1564) 
S(c1nc2c(cc1C[NH2+]Cc3ccc(cc3)C[NH+](C)C)cccc2)Cc4ccccc4

>  <s_sd_BIOSOLVEIT.INFINISEE\_REACTION\_NAME>  (1564) 
m_271304bca

>  <s_sd_BIOSOLVEIT.INFINISEE\_REAGENT1\_SMILES>  (1564) 
[R1*]NC(c1ccc(cc1)C)C(=O)O

>  <s_sd_BIOSOLVEIT.INFINISEE\_REAGENT2\_SMILES>  (1564) 
[R1*]CC=1C(=NN(c2ccccc2)C1)c3ccc(cc3)C

>  <s_sd_BIOSOLVEIT.INFINISEE\_SPACE>  (1564) 
REALSpace_44bn_2023-08

>  <s_vsw_compound_code>  (1564) 
64449

>  <s_vsw_variant>  (1564) 
64449-2

>  <r_epik_Charging_Adjusted_Penalty>  (1564) 
0.020561533905289801

>  <r_epik_Ionization_Penalty>  (1564) 
0.0103

>  <r_epik_Ionization_Penalty_Charging>  (1564) 
0.0103

>  <r_epik_Ionization_Penalty_Neutral>  (1564) 
0

>  <r_epik_State_Penalty>  (1564) 
0.0103

>  <r_i_docking_score>  (1564) 
-3.9355092076867799

>  <r_i_glide_ecoul>  (1564) 
-6.0409169197082502

>  <r_i_glide_eff_state_penalty>  (1564) 
0.0103

>  <r_i_glide_einternal>  (1564) 
8.8570623397827095

>  <r_i_glide_emodel>  (1564) 
-43.568192645195097

>  <r_i_glide_energy>  (1564) 
-35.608990192413302

>  <r_i_glide_erotb>  (1564) 
0.69840965861864501

>  <r_i_glide_esite>  (1564) 
-0.10612201331887

>  <r_i_glide_evdw>  (1564) 
-29.568073272705099

>  <r_i_glide_gscore>  (1564) 
-3.9458092076867799

>  <r_i_glide_hbond>  (1564) 
-0.145280930679344

>  <r_i_glide_ligand_efficiency>  (1564) 
-0.12695190992538

>  <r_i_glide_ligand_efficiency_ln>  (1564) 
-0.88757793520600803

>  <r_i_glide_ligand_efficiency_sa>  (1564) 
-0.398804273167228

>  <r_i_glide_lipo>  (1564) 
-1.1798356298066299

>  <r_i_glide_metal>  (1564) 
-0

>  <r_i_glide_rewards>  (1564) 
-0.82843909090908996

>  <r_lp_Energy>  (1564) 
10.36004

>  <r_lp_tautomer_probability>  (1564) 
1

>  <r_qp_ACxDN^.5/SA>  (1564) 
0.0083376000000000006

>  <r_qp_CIQPlogS>  (1564) 
-6.0220000000000002

>  <r_qp_EA(eV)>  (1564) 
0.69699999999999995

>  <r_qp_FISA>  (1564) 
81.918999999999997

>  <r_qp_FOSA>  (1564) 
211.14599999999999

>  <r_qp_IP(eV)>  (1564) 
8.8529999999999998

>  <r_qp_Jm>  (1564) 
4.70373462366291e-05

>  <r_qp_PISA>  (1564) 
470.21899999999999

>  <r_qp_PSA>  (1564) 
72.091999999999999

>  <r_qp_PercentHumanOralAbsorption>  (1564) 
85.793999999999997

>  <r_qp_QPPCaco>  (1564) 
104.608

>  <r_qp_QPPMDCK>  (1564) 
60.664000000000001

>  <r_qp_QPlogBB>  (1564) 
-0.23799999999999999

>  <r_qp_QPlogHERG>  (1564) 
-6.2590000000000003

>  <r_qp_QPlogKhsa>  (1564) 
0.995

>  <r_qp_QPlogKp>  (1564) 
-2.9550000000000001

>  <r_qp_QPlogPC16>  (1564) 
15.375999999999999

>  <r_qp_QPlogPo/w>  (1564) 
3.8769999999999998

>  <r_qp_QPlogPoct>  (1564) 
22.582999999999998

>  <r_qp_QPlogPw>  (1564) 
11.571

>  <r_qp_QPlogS>  (1564) 
-6.9870000000000001

>  <r_qp_QPpolrz>  (1564) 
49.753999999999998

>  <r_qp_SASA>  (1564) 
763.28399999999999

>  <r_qp_SAamideO>  (1564) 
0

>  <r_qp_SAfluorine>  (1564) 
0

>  <r_qp_WPSA>  (1564) 
0

>  <r_qp_accptHB>  (1564) 
4.5

>  <r_qp_dip^2/V>  (1564) 
0.049612000000000003

>  <r_qp_dipole>  (1564) 
8.2289999999999992

>  <r_qp_donorHB>  (1564) 
2

>  <r_qp_glob>  (1564) 
0.77965309999999999

>  <r_qp_mol_MW>  (1564) 
411.50200000000001

>  <r_qp_volume>  (1564) 
1365.0029999999999

>  <r_sd_BIOSOLVEIT.INFINISEE\_FTREES\_SIMILARITY>  (1564) 
0.90200000000000002

>  <r_sd_BIOSOLVEIT.LOGP>  (1564) 
2.7107399999999999

>  <r_sd_BIOSOLVEIT.MOLECULAR\_WEIGHT>  (1564) 
411.50299999999999

>  <r_sd_BIOSOLVEIT.TPSA>  (1564) 
74.560000000000002

>  <i_epik_Tot_Q>  (1564) 
0

>  <i_epik_Tot_abs_Q>  (1564) 
2

>  <i_f3d_flags>  (1564) 
0

>  <i_i_glide_confnum>  (1564) 
5

>  <i_i_glide_lignum>  (1564) 
619

>  <i_i_glide_posenum>  (1564) 
10

>  <i_i_glide_rotatable_bonds>  (1564) 
7

>  <i_lp_mmshare_version>  (1564) 
65135

>  <i_m_ct_format>  (1564) 
2

>  <i_m_source_file_index>  (1564) 
2015

>  <i_qp_#NandO>  (1564) 
5

>  <i_qp_#acid>  (1564) 
1

>  <i_qp_#amide>  (1564) 
0

>  <i_qp_#amidine>  (1564) 
0

>  <i_qp_#amine>  (1564) 
1

>  <i_qp_#in34>  (1564) 
0

>  <i_qp_#in56>  (1564) 
23

>  <i_qp_#metab>  (1564) 
5

>  <i_qp_#nonHatm>  (1564) 
31

>  <i_qp_#noncon>  (1564) 
0

>  <i_qp_#ringatoms>  (1564) 
23

>  <i_qp_#rotor>  (1564) 
5

>  <i_qp_#rtvFG>  (1564) 
0

>  <i_qp_#stars>  (1564) 
2

>  <i_qp_CNS>  (1564) 
0

>  <i_qp_HumanOralAbsorption>  (1564) 
1

>  <i_qp_RuleOfFive>  (1564) 
0

>  <i_qp_RuleOfThree>  (1564) 
1

>  <i_sd_BIOSOLVEIT.INFINISEE\_REAGENT1\_NAME>  (1564) 
8910674

>  <i_sd_BIOSOLVEIT.INFINISEE\_REAGENT2\_NAME>  (1564) 
9304714

>  <i_sd_BIOSOLVEIT.INFINISEE\_RESULT\_RANK>  (1564) 
91735

>  <i_sd_version>  (1564) 
0

>  <b_lp_Chiralities_Consistent>  (1564) 
1

>  <b_sd_chiral_flag>  (1564) 
0

>  <canonical_id>  (1564) 
ATP-HTVS-F62C08D65C28

>  <compound_code>  (1564) 
64449

>  <title>  (1564) 
m_271304bca____8910674____9304714

>  <variant>  (1564) 
64449-2

>  <source_file>  (1564) 
运行/运行/ATP-VSW/ATP-VSW-DOCK_HTVS_1-001_lib/ATP-VSW-DOCK_HTVS_1-001_lib

>  <canonical_smiles>  (1564) 
Cc1ccc(-c2nn(-c3ccccc3)cc2C[NH2+][C@H](C(=O)[O-])c2ccc(C)cc2)cc1

>  <scaffold>  (1564) 
c1ccc(C[NH2+]Cc2cn(-c3ccccc3)nc2-c2ccccc2)cc1

>  <molecular_formula>  (1564) 
C26H25N3O2

$$$$
ATP-HTVS-F63C80F910BB
     RDKit          3D

 67 70  0  0  0  0  0  0  0  0999 V2000
  201.5041  173.2135  152.3868 S   0  0  1  0  0  0  0  0  0  0  0  0
  201.5274  174.2350  151.3254 O   0  0  0  0  0  0  0  0  0  0  0  0
  200.3506  172.3143  152.5350 O   0  0  0  0  0  0  0  0  0  0  0  0
  202.9025  172.2383  152.1793 N   0  0  0  0  0  0  0  0  0  0  0  0
  201.7835  174.0442  153.9551 C   0  0  0  0  0  0  0  0  0  0  0  0
  201.0788  175.2354  154.2286 C   0  0  0  0  0  0  0  0  0  0  0  0
  201.2568  175.8964  155.4597 C   0  0  0  0  0  0  0  0  0  0  0  0
  202.1851  175.3798  156.3883 C   0  0  0  0  0  0  0  0  0  0  0  0
  202.9100  174.2073  156.1011 C   0  0  0  0  0  0  0  0  0  0  0  0
  202.7060  173.5281  154.8911 C   0  0  0  0  0  0  0  0  0  0  0  0
  200.4628  177.1465  155.8066 C   0  0  1  0  0  0  0  0  0  0  0  0
  201.3153  178.2812  156.1291 N   0  0  0  0  0  0  0  0  0  0  0  0
  200.7871  179.5650  156.3244 C   0  0  0  0  0  0  0  0  0  0  0  0
  199.4474  179.7060  156.3944 N   0  0  0  0  0  0  0  0  0  0  0  0
  198.9186  180.9108  156.6113 C   0  0  0  0  0  0  0  0  0  0  0  0
  199.6708  182.0164  156.7311 N   0  0  0  0  0  0  0  0  0  0  0  0
  201.0110  181.9334  156.6495 C   0  0  0  0  0  0  0  0  0  0  0  0
  201.6347  180.6864  156.4394 C   0  0  0  0  0  0  0  0  0  0  0  0
  203.0463  180.6239  156.3254 C   0  0  0  0  0  0  0  0  0  0  0  0
  203.8121  181.8049  156.4210 C   0  0  0  0  0  0  0  0  0  0  0  0
  203.1797  183.0444  156.6496 C   0  0  0  0  0  0  0  0  0  0  0  0
  201.7778  183.1070  156.7706 C   0  0  0  0  0  0  0  0  0  0  0  0
  197.5480  181.0121  156.7628 N   0  0  0  0  0  0  0  0  0  0  0  0
  196.8540  182.2656  157.0397 C   0  0  1  0  0  0  0  0  0  0  0  0
  197.0509  182.7457  158.4937 C   0  0  1  0  0  0  0  0  0  0  0  0
  197.1593  184.2546  158.5919 C   0  0  0  0  0  0  0  0  0  0  0  0
  198.4294  184.8716  158.6503 C   0  0  0  0  0  0  0  0  0  0  0  0
  198.5345  186.2761  158.7163 C   0  0  0  0  0  0  0  0  0  0  0  0
  197.3726  187.0739  158.7300 C   0  0  0  0  0  0  0  0  0  0  0  0
  196.1061  186.4500  158.6730 C   0  0  0  0  0  0  0  0  0  0  0  0
  195.9994  185.0480  158.6129 C   0  0  0  0  0  0  0  0  0  0  0  0
  197.4743  188.5905  158.8199 C   0  0  1  0  0  0  0  0  0  0  0  0
  197.5455  189.0862  160.2207 N   0  0  2  0  0  0  0  0  0  0  0  0
  196.3800  188.7032  161.0500 C   0  0  2  0  0  0  0  0  0  0  0  0
  197.7879  190.5450  160.2821 C   0  0  2  0  0  0  0  0  0  0  0  0
  202.9708  171.5016  152.9062 H   0  0  0  0  0  0  0  0  0  0  0  0
  203.7421  172.8102  152.1583 H   0  0  0  0  0  0  0  0  0  0  0  0
  200.3759  175.6160  153.4996 H   0  0  0  0  0  0  0  0  0  0  0  0
  202.3329  175.8767  157.3347 H   0  0  0  0  0  0  0  0  0  0  0  0
  203.6134  173.8134  156.8198 H   0  0  0  0  0  0  0  0  0  0  0  0
  203.2480  172.6117  154.7081 H   0  0  0  0  0  0  0  0  0  0  0  0
  199.8077  177.4089  154.9738 H   0  0  0  0  0  0  0  0  0  0  0  0
  199.8194  176.9375  156.6662 H   0  0  0  0  0  0  0  0  0  0  0  0
  202.3061  178.1197  156.2465 H   0  0  0  0  0  0  0  0  0  0  0  0
  203.5554  179.6880  156.1384 H   0  0  0  0  0  0  0  0  0  0  0  0
  204.8901  181.7606  156.3139 H   0  0  0  0  0  0  0  0  0  0  0  0
  203.7712  183.9484  156.7225 H   0  0  0  0  0  0  0  0  0  0  0  0
  201.3030  184.0597  156.9341 H   0  0  0  0  0  0  0  0  0  0  0  0
  197.0149  180.1475  156.8563 H   0  0  0  0  0  0  0  0  0  0  0  0
  197.2208  183.0041  156.3261 H   0  0  0  0  0  0  0  0  0  0  0  0
  195.7888  182.1577  156.8198 H   0  0  0  0  0  0  0  0  0  0  0  0
  196.2288  182.3772  159.1077 H   0  0  0  0  0  0  0  0  0  0  0  0
  197.9473  182.3250  158.9369 H   0  0  0  0  0  0  0  0  0  0  0  0
  199.3284  184.2716  158.6500 H   0  0  0  0  0  0  0  0  0  0  0  0
  199.5148  186.7319  158.7732 H   0  0  0  0  0  0  0  0  0  0  0  0
  195.2045  187.0415  158.6961 H   0  0  0  0  0  0  0  0  0  0  0  0
  195.0198  184.5874  158.5924 H   0  0  0  0  0  0  0  0  0  0  0  0
  198.3565  188.9128  158.2625 H   0  0  0  0  0  0  0  0  0  0  0  0
  196.6232  189.0495  158.3117 H   0  0  0  0  0  0  0  0  0  0  0  0
  195.4720  189.1357  160.6361 H   0  0  0  0  0  0  0  0  0  0  0  0
  196.5048  189.0694  162.0681 H   0  0  0  0  0  0  0  0  0  0  0  0
  196.2512  187.6242  161.1199 H   0  0  0  0  0  0  0  0  0  0  0  0
  196.9807  191.1052  159.8039 H   0  0  0  0  0  0  0  0  0  0  0  0
  198.7293  190.8050  159.7933 H   0  0  0  0  0  0  0  0  0  0  0  0
  197.8571  190.8726  161.3204 H   0  0  0  0  0  0  0  0  0  0  0  0
  199.2384  182.9247  156.9016 H   0  0  0  0  0  0  0  0  0  0  0  0
  198.3540  188.6714  160.6652 H   0  0  0  0  0  0  0  0  0  0  0  0
  1  2  2  0
  1  3  2  0
  1  4  1  6
  1  5  1  0
  4 36  1  0
  4 37  1  0
  5  6  1  0
  5 10  2  0
  6  7  2  0
  6 38  1  0
  7  8  1  0
  7 11  1  0
  8  9  2  0
  8 39  1  0
  9 10  1  0
  9 40  1  0
 10 41  1  0
 11 12  1  0
 11 42  1  6
 11 43  1  0
 12 13  1  0
 12 44  1  0
 13 14  2  0
 13 18  1  0
 14 15  1  0
 15 16  2  0
 15 23  1  0
 16 17  1  0
 16 66  1  0
 17 18  1  0
 17 22  2  0
 18 19  2  0
 19 20  1  0
 19 45  1  0
 20 21  2  0
 20 46  1  0
 21 22  1  0
 21 47  1  0
 22 48  1  0
 23 24  1  0
 23 49  1  0
 24 25  1  0
 24 50  1  6
 24 51  1  0
 25 26  1  0
 25 52  1  1
 25 53  1  0
 26 27  1  0
 26 31  2  0
 27 28  2  0
 27 54  1  0
 28 29  1  0
 28 55  1  0
 29 30  2  0
 29 32  1  0
 30 31  1  0
 30 56  1  0
 31 57  1  0
 32 33  1  0
 32 58  1  6
 32 59  1  0
 33 34  1  0
 33 35  1  0
 33 67  1  1
 34 60  1  6
 34 61  1  0
 34 62  1  0
 35 63  1  6
 35 64  1  0
 35 65  1  0
M  CHG  2  16   1  33   1
M  END
>  <s_epik_cmdline>  (1565) 
J2VwaWtfcHl0aG9uJywgJy1waCcsICc3LjAwMDAwMCcsICctcGh0JywgJzIuMDAwMDAwJywgJy1tcycsICcxNicsICctdG4nLCAnOCcsICctbWEnLCAnMjAwJywgJy1pbWFlJywgJzxpbmZpbGUubWFlPicsICctb21hZScsICc8b3V0ZmlsZS5tYWU+Jw==

>  <s_epik_input>  (1565) 
Tz1TKD1PKShbTkgyXSljMVtjSF1jKFtjSF1bY0hdW2NIXTEpW0NIMl1bTkhdYyhjKGMyMylbY0hdW2NIXVtjSF1bY0hdMyluYyhuMilbTkhdW0NIMl1bQ0gyXWM0W2NIXVtjSF1jKFtjSF1bY0hdNClbQ0gyXU4oW0NIM10pW0NIM10=

>  <s_i_glide_gridfile>  (1565) 
ATP-Grid

>  <s_lp_Force_Field>  (1565) 
OPLS_2005

>  <s_lp_Variant>  (1565) 
m_282030aaa____21890570____22360182____21967972-1

>  <s_lp_label>  (1565) 
1098_sdstereoexpander_1_neutralizer_1_epik_1_stereoizer_1

>  <s_m_source_file>  (1565) 
ATP-VSW-LIGPREP-003-in.maegz

>  <s_sd_BIOSOLVEIT.INFINISEE\_QUERY\_NAME>  (1565) 
Ref-Lig

>  <s_sd_BIOSOLVEIT.INFINISEE\_QUERY\_SMILES>  (1565) 
S(c1nc2c(cc1C[NH2+]Cc3ccc(cc3)C[NH+](C)C)cccc2)Cc4ccccc4

>  <s_sd_BIOSOLVEIT.INFINISEE\_REACTION\_NAME>  (1565) 
m_282030aaa

>  <s_sd_BIOSOLVEIT.INFINISEE\_REAGENT1\_SMILES>  (1565) 
[R1*]NCc1cc(S(=O)(=O)N)ccc1

>  <s_sd_BIOSOLVEIT.INFINISEE\_REAGENT2\_SMILES>  (1565) 
[R2*]c1nc([R1*])c2c(n1)cccc2

>  <s_sd_BIOSOLVEIT.INFINISEE\_REAGENT3\_SMILES>  (1565) 
[R2*]NCCc1ccc(cc1)CN(C)C

>  <s_sd_BIOSOLVEIT.INFINISEE\_SPACE>  (1565) 
REALSpace_44bn_2023-08

>  <s_vsw_compound_code>  (1565) 
35107

>  <s_vsw_variant>  (1565) 
35107-1

>  <r_epik_Charging_Adjusted_Penalty>  (1565) 
0.110107730016546

>  <r_epik_Ionization_Penalty>  (1565) 
0.056099999999999997

>  <r_epik_Ionization_Penalty_Charging>  (1565) 
0.055500000000000001

>  <r_epik_Ionization_Penalty_Neutral>  (1565) 
0.00050000000000000001

>  <r_epik_State_Penalty>  (1565) 
0.054600000000000003

>  <r_i_docking_score>  (1565) 
-5.6970420064179903

>  <r_i_glide_ecoul>  (1565) 
-12.441470146179199

>  <r_i_glide_eff_state_penalty>  (1565) 
0.054600000000000003

>  <r_i_glide_einternal>  (1565) 
5.8239812850952104

>  <r_i_glide_emodel>  (1565) 
-71.451658219766401

>  <r_i_glide_energy>  (1565) 
-45.8195447921753

>  <r_i_glide_erotb>  (1565) 
0.67133583561362498

>  <r_i_glide_esite>  (1565) 
-0.33877789381512802

>  <r_i_glide_evdw>  (1565) 
-33.378074645996101

>  <r_i_glide_gscore>  (1565) 
-5.7516420064179901

>  <r_i_glide_hbond>  (1565) 
-0.51183128076723405

>  <r_i_glide_ligand_efficiency>  (1565) 
-0.1627726287548

>  <r_i_glide_ligand_efficiency_ln>  (1565) 
-1.2506271594437299

>  <r_i_glide_ligand_efficiency_sa>  (1565) 
-0.53244006150965695

>  <r_i_glide_lipo>  (1565) 
-1.73691444409939

>  <r_i_glide_metal>  (1565) 
-0

>  <r_i_glide_rewards>  (1565) 
-0.30032996912318499

>  <r_lp_Energy>  (1565) 
21.728916000000002

>  <r_qp_ACxDN^.5/SA>  (1565) 
0.024338599999999998

>  <r_qp_CIQPlogS>  (1565) 
-5.4820000000000002

>  <r_qp_EA(eV)>  (1565) 
1.008

>  <r_qp_FISA>  (1565) 
176.12

>  <r_qp_FOSA>  (1565) 
262.69

>  <r_qp_IP(eV)>  (1565) 
8.0600000000000005

>  <r_qp_Jm>  (1565) 
0.00185471776209885

>  <r_qp_PISA>  (1565) 
341.55700000000002

>  <r_qp_PSA>  (1565) 
110.962

>  <r_qp_PercentHumanOralAbsorption>  (1565) 
74.930000000000007

>  <r_qp_QPPCaco>  (1565) 
52.802

>  <r_qp_QPPMDCK>  (1565) 
22.863

>  <r_qp_QPlogBB>  (1565) 
-1.4970000000000001

>  <r_qp_QPlogHERG>  (1565) 
-6.9870000000000001

>  <r_qp_QPlogKhsa>  (1565) 
0.254

>  <r_qp_QPlogKp>  (1565) 
-4.569

>  <r_qp_QPlogPC16>  (1565) 
16.608000000000001

>  <r_qp_QPlogPo/w>  (1565) 
2.9289999999999998

>  <r_qp_QPlogPoct>  (1565) 
28.161999999999999

>  <r_qp_QPlogPw>  (1565) 
17.908999999999999

>  <r_qp_QPlogS>  (1565) 
-3.8540000000000001

>  <r_qp_QPpolrz>  (1565) 
49.704999999999998

>  <r_qp_SASA>  (1565) 
780.65200000000004

>  <r_qp_SAamideO>  (1565) 
0

>  <r_qp_SAfluorine>  (1565) 
0

>  <r_qp_WPSA>  (1565) 
0.28399999999999997

>  <r_qp_accptHB>  (1565) 
9.5

>  <r_qp_dip^2/V>  (1565) 
0.030970899999999999

>  <r_qp_dipole>  (1565) 
6.7949999999999999

>  <r_qp_donorHB>  (1565) 
4

>  <r_qp_glob>  (1565) 
0.80843290000000001

>  <r_qp_mol_MW>  (1565) 
490.62200000000001

>  <r_qp_volume>  (1565) 
1490.75

>  <r_sd_BIOSOLVEIT.INFINISEE\_FTREES\_SIMILARITY>  (1565) 
0.91300000000000003

>  <r_sd_BIOSOLVEIT.LOGP>  (1565) 
2.839

>  <r_sd_BIOSOLVEIT.MOLECULAR\_WEIGHT>  (1565) 
491.63600000000002

>  <r_sd_BIOSOLVEIT.TPSA>  (1565) 
114.44

>  <i_epik_Tot_Q>  (1565) 
2

>  <i_epik_Tot_abs_Q>  (1565) 
2

>  <i_f3d_flags>  (1565) 
0

>  <i_i_glide_confnum>  (1565) 
1

>  <i_i_glide_lignum>  (1565) 
411

>  <i_i_glide_posenum>  (1565) 
20

>  <i_i_glide_rotatable_bonds>  (1565) 
10

>  <i_lp_mmshare_version>  (1565) 
65135

>  <i_m_ct_format>  (1565) 
2

>  <i_m_source_file_index>  (1565) 
1098

>  <i_qp_#NandO>  (1565) 
8

>  <i_qp_#acid>  (1565) 
0

>  <i_qp_#amide>  (1565) 
0

>  <i_qp_#amidine>  (1565) 
0

>  <i_qp_#amine>  (1565) 
1

>  <i_qp_#in34>  (1565) 
0

>  <i_qp_#in56>  (1565) 
22

>  <i_qp_#metab>  (1565) 
4

>  <i_qp_#nonHatm>  (1565) 
35

>  <i_qp_#noncon>  (1565) 
0

>  <i_qp_#ringatoms>  (1565) 
22

>  <i_qp_#rotor>  (1565) 
11

>  <i_qp_#rtvFG>  (1565) 
0

>  <i_qp_#stars>  (1565) 
0

>  <i_qp_CNS>  (1565) 
-2

>  <i_qp_HumanOralAbsorption>  (1565) 
3

>  <i_qp_RuleOfFive>  (1565) 
0

>  <i_qp_RuleOfThree>  (1565) 
0

>  <i_sd_BIOSOLVEIT.INFINISEE\_REAGENT1\_NAME>  (1565) 
21890570

>  <i_sd_BIOSOLVEIT.INFINISEE\_REAGENT2\_NAME>  (1565) 
22360182

>  <i_sd_BIOSOLVEIT.INFINISEE\_REAGENT3\_NAME>  (1565) 
21967972

>  <i_sd_BIOSOLVEIT.INFINISEE\_RESULT\_RANK>  (1565) 
33091

>  <i_sd_version>  (1565) 
0

>  <b_lp_Chiralities_Consistent>  (1565) 
1

>  <b_sd_chiral_flag>  (1565) 
0

>  <canonical_id>  (1565) 
ATP-HTVS-F63C80F910BB

>  <compound_code>  (1565) 
35107

>  <title>  (1565) 
m_282030aaa____21890570____22360182____21967972

>  <variant>  (1565) 
35107-1

>  <source_file>  (1565) 
运行/运行/ATP-VSW/ATP-VSW-DOCK_HTVS_1-003_lib/ATP-VSW-DOCK_HTVS_1-003_lib.mae

>  <canonical_smiles>  (1565) 
C[NH+](C)Cc1ccc(CCNc2nc(NCc3cccc(S(N)(=O)=O)c3)c3ccccc3[nH+]2)cc1

>  <scaffold>  (1565) 
c1ccc(CCNc2nc(NCc3ccccc3)c3ccccc3[nH+]2)cc1

>  <molecular_formula>  (1565) 
C26H32N6O2S+2

$$$$
ATP-HTVS-F6463DC49025
     RDKit          3D

 61 64  0  0  0  0  0  0  0  0999 V2000
  198.7499  189.2892  158.3273 Cl  0  0  0  0  0  0  0  0  0  0  0  0
  198.0225  187.7329  158.1803 C   0  0  0  0  0  0  0  0  0  0  0  0
  197.7410  187.1987  156.9111 C   0  0  0  0  0  0  0  0  0  0  0  0
  197.1608  185.9213  156.8007 C   0  0  0  0  0  0  0  0  0  0  0  0
  196.8345  185.1500  157.9453 C   0  0  0  0  0  0  0  0  0  0  0  0
  197.1339  185.7110  159.2102 C   0  0  0  0  0  0  0  0  0  0  0  0
  197.7150  186.9873  159.3328 C   0  0  0  0  0  0  0  0  0  0  0  0
  196.2188  183.7856  157.8018 C   0  0  2  0  0  0  0  0  0  0  0  0
  195.4009  183.3424  158.9700 N   0  0  0  0  0  0  0  0  0  0  0  0
  195.0006  181.9358  158.8805 C   0  0  2  0  0  0  0  0  0  0  0  0
  194.1877  184.1540  159.0806 C   0  0  2  0  0  0  0  0  0  0  0  0
  197.4266  182.8890  157.4488 C   0  0  0  0  0  0  0  0  0  0  0  0
  198.3887  182.8164  158.2128 O   0  0  0  0  0  0  0  0  0  0  0  0
  197.3651  182.2703  156.2554 N   0  0  0  0  0  0  0  0  0  0  0  0
  198.2608  181.3061  155.7325 C   0  0  0  0  0  0  0  0  0  0  0  0
  198.8714  180.3863  156.5243 N   0  0  0  0  0  0  0  0  0  0  0  0
  199.6784  179.4422  155.9908 C   0  0  0  0  0  0  0  0  0  0  0  0
  199.9337  179.3930  154.6004 C   0  0  0  0  0  0  0  0  0  0  0  0
  199.3207  180.3502  153.7680 C   0  0  0  0  0  0  0  0  0  0  0  0
  198.4687  181.3175  154.3300 C   0  0  0  0  0  0  0  0  0  0  0  0
  197.8602  182.2754  153.4818 N   0  0  0  0  0  0  0  0  0  0  0  0
  198.4761  183.4982  153.1153 C   0  0  0  0  0  0  0  0  0  0  0  0
  199.8777  183.6018  153.0399 C   0  0  0  0  0  0  0  0  0  0  0  0
  200.5099  184.7876  152.5994 C   0  0  0  0  0  0  0  0  0  0  0  0
  199.7197  185.8903  152.2258 C   0  0  0  0  0  0  0  0  0  0  0  0
  198.3266  185.8244  152.3309 C   0  0  0  0  0  0  0  0  0  0  0  0
  197.6907  184.6445  152.8124 C   0  0  0  0  0  0  0  0  0  0  0  0
  196.6121  181.8232  152.8300 C   0  0  1  0  0  0  0  0  0  0  0  0
  196.1868  182.6720  151.6746 C   0  0  0  0  0  0  0  0  0  0  0  0
  195.8618  183.3247  150.7964 N   0  0  0  0  0  0  0  0  0  0  0  0
  196.6353  180.3704  152.3096 C   0  0  2  0  0  0  0  0  0  0  0  0
  200.7786  178.4145  154.0418 C   0  0  0  0  0  0  0  0  0  0  0  0
  201.3935  177.4635  154.8757 C   0  0  0  0  0  0  0  0  0  0  0  0
  201.1545  177.4937  156.2615 C   0  0  0  0  0  0  0  0  0  0  0  0
  200.3031  178.4754  156.8113 C   0  0  0  0  0  0  0  0  0  0  0  0
  197.9748  187.7641  156.0208 H   0  0  0  0  0  0  0  0  0  0  0  0
  196.9468  185.5327  155.8159 H   0  0  0  0  0  0  0  0  0  0  0  0
  196.9166  185.1511  160.1093 H   0  0  0  0  0  0  0  0  0  0  0  0
  197.9319  187.3903  160.3097 H   0  0  0  0  0  0  0  0  0  0  0  0
  195.5576  183.7703  156.9346 H   0  0  0  0  0  0  0  0  0  0  0  0
  194.3784  181.6528  159.7286 H   0  0  0  0  0  0  0  0  0  0  0  0
  195.8592  181.2650  158.9048 H   0  0  0  0  0  0  0  0  0  0  0  0
  194.4352  181.7344  157.9681 H   0  0  0  0  0  0  0  0  0  0  0  0
  193.5975  183.8546  159.9464 H   0  0  0  0  0  0  0  0  0  0  0  0
  193.5556  184.0608  158.1946 H   0  0  0  0  0  0  0  0  0  0  0  0
  194.4196  185.2102  159.2158 H   0  0  0  0  0  0  0  0  0  0  0  0
  196.6136  182.5413  155.6386 H   0  0  0  0  0  0  0  0  0  0  0  0
  199.5075  180.3419  152.7048 H   0  0  0  0  0  0  0  0  0  0  0  0
  200.5113  182.7554  153.2952 H   0  0  0  0  0  0  0  0  0  0  0  0
  201.5863  184.8370  152.5375 H   0  0  0  0  0  0  0  0  0  0  0  0
  200.1974  186.7950  151.8527 H   0  0  0  0  0  0  0  0  0  0  0  0
  197.7200  186.6583  152.0378 H   0  0  0  0  0  0  0  0  0  0  0  0
  196.6153  184.6368  152.9261 H   0  0  0  0  0  0  0  0  0  0  0  0
  195.8192  181.9034  153.5610 H   0  0  0  0  0  0  0  0  0  0  0  0
  195.6782  180.0816  151.8821 H   0  0  0  0  0  0  0  0  0  0  0  0
  196.8469  179.6492  153.0999 H   0  0  0  0  0  0  0  0  0  0  0  0
  197.3837  180.2494  151.5319 H   0  0  0  0  0  0  0  0  0  0  0  0
  200.9623  178.3924  152.9786 H   0  0  0  0  0  0  0  0  0  0  0  0
  202.0522  176.7178  154.4520 H   0  0  0  0  0  0  0  0  0  0  0  0
  201.6354  176.7689  156.9043 H   0  0  0  0  0  0  0  0  0  0  0  0
  200.1153  178.4825  157.8754 H   0  0  0  0  0  0  0  0  0  0  0  0
  1  2  1  0
  2  3  1  0
  2  7  2  0
  3  4  2  0
  3 36  1  0
  4  5  1  0
  4 37  1  0
  5  6  2  0
  5  8  1  0
  6  7  1  0
  6 38  1  0
  7 39  1  0
  8  9  1  0
  8 12  1  0
  8 40  1  6
  9 10  1  0
  9 11  1  0
 10 41  1  1
 10 42  1  0
 10 43  1  0
 11 44  1  1
 11 45  1  0
 11 46  1  0
 12 13  2  0
 12 14  1  0
 14 15  1  0
 14 47  1  0
 15 16  2  0
 15 20  1  0
 16 17  1  0
 17 18  1  0
 17 35  2  0
 18 19  1  0
 18 32  2  0
 19 20  2  0
 19 48  1  0
 20 21  1  0
 21 22  1  0
 21 28  1  0
 22 23  2  0
 22 27  1  0
 23 24  1  0
 23 49  1  0
 24 25  2  0
 24 50  1  0
 25 26  1  0
 25 51  1  0
 26 27  2  0
 26 52  1  0
 27 53  1  0
 28 29  1  0
 28 31  1  0
 28 54  1  1
 29 30  3  0
 31 55  1  6
 31 56  1  0
 31 57  1  0
 32 33  1  0
 32 58  1  0
 33 34  2  0
 33 59  1  0
 34 35  1  0
 34 60  1  0
 35 61  1  0
M  END
>  <s_epik_cmdline>  (1566) 
J2VwaWtfcHl0aG9uJywgJy1waCcsICc3LjAwMDAwMCcsICctcGh0JywgJzIuMDAwMDAwJywgJy1tcycsICcxNicsICctdG4nLCAnOCcsICctbWEnLCAnMjAwJywgJy1pbWFlJywgJzxpbmZpbGUubWFlPicsICctb21hZScsICc8b3V0ZmlsZS5tYWU+Jw==

>  <s_epik_input>  (1566) 
Q2xjMVtjSF1bY0hdYyhbY0hdW2NIXTEpW0NASF0oTihbQ0gzXSlbQ0gzXSlDKD1PKVtOSF1jKG4yKWMoW2NIXWMoYzIzKVtjSF1bY0hdW2NIXVtjSF0zKU4oW0NAQEhdKEMjTilbQ0gzXSljNFtjSF1bY0hdW2NIXVtjSF1bY0hdNA==

>  <s_i_glide_gridfile>  (1566) 
ATP-Grid

>  <s_lp_Force_Field>  (1566) 
OPLS_2005

>  <s_lp_Variant>  (1566) 
rxn502b____EMOL331054254____EMOL44466703____EMOL36790511-2

>  <s_lp_label>  (1566) 
2660_sdstereoexpander_2_neutralizer_1_epik_1_stereoizer_1

>  <s_m_source_file>  (1566) 
ATP-VSW-LIGPREP-003-in.maegz

>  <s_sd_BIOSOLVEIT.INFINISEE\_QUERY\_NAME>  (1566) 
Ref-Lig

>  <s_sd_BIOSOLVEIT.INFINISEE\_QUERY\_SMILES>  (1566) 
S(c1nc2c(cc1C[NH2+]Cc3ccc(cc3)C[NH+](C)C)cccc2)Cc4ccccc4

>  <s_sd_BIOSOLVEIT.INFINISEE\_REACTION\_NAME>  (1566) 
rxn502b

>  <s_sd_BIOSOLVEIT.INFINISEE\_REAGENT1\_NAME>  (1566) 
EMOL331054254

>  <s_sd_BIOSOLVEIT.INFINISEE\_REAGENT1\_SMILES>  (1566) 
Clc1ccc(cc1)C(N(C)C)C(=O)O

>  <s_sd_BIOSOLVEIT.INFINISEE\_REAGENT2\_NAME>  (1566) 
EMOL44466703

>  <s_sd_BIOSOLVEIT.INFINISEE\_REAGENT2\_SMILES>  (1566) 
Brc1c(nc2c(c1)cccc2)N

>  <s_sd_BIOSOLVEIT.INFINISEE\_REAGENT3\_NAME>  (1566) 
EMOL36790511

>  <s_sd_BIOSOLVEIT.INFINISEE\_REAGENT3\_SMILES>  (1566) 
N#CC(Nc1ccccc1)C

>  <s_sd_BIOSOLVEIT.INFINISEE\_SPACE>  (1566) 
eXplore_7tr_2022-12

>  <s_vsw_compound_code>  (1566) 
85091

>  <s_vsw_variant>  (1566) 
85091-2

>  <r_epik_Charging_Adjusted_Penalty>  (1566) 
0.121133654115243

>  <r_epik_Ionization_Penalty>  (1566) 
0.1188

>  <r_epik_Ionization_Penalty_Charging>  (1566) 
0

>  <r_epik_Ionization_Penalty_Neutral>  (1566) 
0.1188

>  <r_epik_State_Penalty>  (1566) 
0.1211

>  <r_i_docking_score>  (1566) 
-3.3216274034364499

>  <r_i_glide_ecoul>  (1566) 
-3.8542165756225599

>  <r_i_glide_eff_state_penalty>  (1566) 
0.1211

>  <r_i_glide_einternal>  (1566) 
8.4594163894653303

>  <r_i_glide_emodel>  (1566) 
-47.424647055792903

>  <r_i_glide_energy>  (1566) 
-42.124499320983901

>  <r_i_glide_erotb>  (1566) 
0.43340268593952702

>  <r_i_glide_esite>  (1566) 
-0.102780593698005

>  <r_i_glide_evdw>  (1566) 
-38.2702827453613

>  <r_i_glide_gscore>  (1566) 
-3.4427274034364501

>  <r_i_glide_hbond>  (1566) 
0

>  <r_i_glide_ligand_efficiency>  (1566) 
-0.094903640098184194

>  <r_i_glide_ligand_efficiency_ln>  (1566) 
-0.72917093460261495

>  <r_i_glide_ligand_efficiency_sa>  (1566) 
-0.310436099471531

>  <r_i_glide_lipo>  (1566) 
-1.17255496297561

>  <r_i_glide_metal>  (1566) 
-0

>  <r_i_glide_rewards>  (1566) 
-0.109147909090908

>  <r_lp_Energy>  (1566) 
35.529029999999999

>  <r_qp_ACxDN^.5/SA>  (1566) 
0.0101441

>  <r_qp_CIQPlogS>  (1566) 
-7.3170000000000002

>  <r_qp_EA(eV)>  (1566) 
1.1779999999999999

>  <r_qp_FISA>  (1566) 
88.393000000000001

>  <r_qp_FOSA>  (1566) 
209.46799999999999

>  <r_qp_IP(eV)>  (1566) 
8.7850000000000001

>  <r_qp_Jm>  (1566) 
0.00093798399667445703

>  <r_qp_PISA>  (1566) 
386.49299999999999

>  <r_qp_PSA>  (1566) 
70.864000000000004

>  <r_qp_PercentHumanOralAbsorption>  (1566) 
100

>  <r_qp_QPPCaco>  (1566) 
358.56400000000002

>  <r_qp_QPPMDCK>  (1566) 
361.42700000000002

>  <r_qp_QPlogBB>  (1566) 
-0.23899999999999999

>  <r_qp_QPlogHERG>  (1566) 
-6.8380000000000001

>  <r_qp_QPlogKhsa>  (1566) 
0.68300000000000005

>  <r_qp_QPlogKp>  (1566) 
-3.0819999999999999

>  <r_qp_QPlogPC16>  (1566) 
15.412000000000001

>  <r_qp_QPlogPo/w>  (1566) 
4.6559999999999997

>  <r_qp_QPlogPoct>  (1566) 
22.593

>  <r_qp_QPlogPw>  (1566) 
11.835000000000001

>  <r_qp_QPlogS>  (1566) 
-5.6310000000000002

>  <r_qp_QPpolrz>  (1566) 
49.692999999999998

>  <r_qp_SASA>  (1566) 
739.34699999999998

>  <r_qp_SAamideO>  (1566) 
0

>  <r_qp_SAfluorine>  (1566) 
0

>  <r_qp_WPSA>  (1566) 
54.993000000000002

>  <r_qp_accptHB>  (1566) 
7.5

>  <r_qp_dip^2/V>  (1566) 
0.0156834

>  <r_qp_dipole>  (1566) 
4.7380000000000004

>  <r_qp_donorHB>  (1566) 
1

>  <r_qp_glob>  (1566) 
0.83087250000000001

>  <r_qp_mol_MW>  (1566) 
483.99900000000002

>  <r_qp_volume>  (1566) 
1431.616

>  <r_sd_BIOSOLVEIT.INFINISEE\_FTREES\_SIMILARITY>  (1566) 
0.91000000000000003

>  <r_sd_BIOSOLVEIT.LOGP>  (1566) 
4.7626799999999996

>  <r_sd_BIOSOLVEIT.MOLECULAR\_WEIGHT>  (1566) 
485.00799999999998

>  <r_sd_BIOSOLVEIT.TPSA>  (1566) 
73.459999999999994

>  <i_epik_Tot_Q>  (1566) 
0

>  <i_epik_Tot_abs_Q>  (1566) 
0

>  <i_f3d_flags>  (1566) 
0

>  <i_i_glide_confnum>  (1566) 
1

>  <i_i_glide_lignum>  (1566) 
1239

>  <i_i_glide_posenum>  (1566) 
16

>  <i_i_glide_rotatable_bonds>  (1566) 
8

>  <i_lp_mmshare_version>  (1566) 
65135

>  <i_m_ct_format>  (1566) 
2

>  <i_m_source_file_index>  (1566) 
2660

>  <i_qp_#NandO>  (1566) 
6

>  <i_qp_#acid>  (1566) 
0

>  <i_qp_#amide>  (1566) 
0

>  <i_qp_#amidine>  (1566) 
0

>  <i_qp_#amine>  (1566) 
1

>  <i_qp_#in34>  (1566) 
0

>  <i_qp_#in56>  (1566) 
22

>  <i_qp_#metab>  (1566) 
5

>  <i_qp_#nonHatm>  (1566) 
35

>  <i_qp_#noncon>  (1566) 
0

>  <i_qp_#ringatoms>  (1566) 
22

>  <i_qp_#rotor>  (1566) 
8

>  <i_qp_#rtvFG>  (1566) 
0

>  <i_qp_#stars>  (1566) 
0

>  <i_qp_CNS>  (1566) 
1

>  <i_qp_HumanOralAbsorption>  (1566) 
3

>  <i_qp_RuleOfFive>  (1566) 
0

>  <i_qp_RuleOfThree>  (1566) 
0

>  <i_sd_BIOSOLVEIT.INFINISEE\_RESULT\_RANK>  (1566) 
47779

>  <i_sd_version>  (1566) 
0

>  <b_lp_Chiralities_Consistent>  (1566) 
1

>  <b_sd_chiral_flag>  (1566) 
0

>  <canonical_id>  (1566) 
ATP-HTVS-F6463DC49025

>  <compound_code>  (1566) 
85091

>  <title>  (1566) 
rxn502b____EMOL331054254____EMOL44466703____EMOL36790511

>  <variant>  (1566) 
85091-2

>  <source_file>  (1566) 
运行/运行/ATP-VSW/ATP-VSW-DOCK_HTVS_1-003_lib/ATP-VSW-DOCK_HTVS_1-003_lib.mae

>  <canonical_smiles>  (1566) 
C[C@H](C#N)N(c1ccccc1)c1cc2ccccc2nc1NC(=O)[C@H](c1ccc(Cl)cc1)N(C)C

>  <scaffold>  (1566) 
O=C(Cc1ccccc1)Nc1nc2ccccc2cc1Nc1ccccc1

>  <molecular_formula>  (1566) 
C28H26ClN5O

$$$$
ATP-HTVS-F666156B37DE
     RDKit          3D

 55 57  0  0  0  0  0  0  0  0999 V2000
  197.1669  180.6703  149.9540 Cl  0  0  0  0  0  0  0  0  0  0  0  0
  197.8365  182.0253  150.7836 C   0  0  0  0  0  0  0  0  0  0  0  0
  197.0285  182.7783  151.6567 C   0  0  0  0  0  0  0  0  0  0  0  0
  197.5754  183.8635  152.3696 C   0  0  0  0  0  0  0  0  0  0  0  0
  196.7624  184.5186  153.2996 N   0  0  0  0  0  0  0  0  0  0  0  0
  198.9302  184.2241  152.1735 C   0  0  0  0  0  0  0  0  0  0  0  0
  199.5309  185.3064  152.8810 N   0  0  0  0  0  0  0  0  0  0  0  0
  199.1527  186.5886  152.6086 C   0  0  0  0  0  0  0  0  0  0  0  0
  198.3983  186.8601  151.6696 O   0  0  0  0  0  0  0  0  0  0  0  0
  199.6680  187.7131  153.4326 C   0  0  0  0  0  0  0  0  0  0  0  0
  200.0262  189.1862  152.5554 S   0  0  0  0  0  0  0  0  0  0  0  0
  200.5323  189.9931  154.0137 C   0  0  0  0  0  0  0  0  0  0  0  0
  200.3881  189.1836  155.1114 C   0  0  0  0  0  0  0  0  0  0  0  0
  199.8567  187.8955  154.7841 C   0  0  0  0  0  0  0  0  0  0  0  0
  199.5870  186.9410  155.7793 N   0  0  0  0  0  0  0  0  0  0  0  0
  199.0841  187.2909  157.0940 C   0  0  1  0  0  0  0  0  0  0  0  0
  198.1129  186.2556  157.6442 C   0  0  0  0  0  0  0  0  0  0  0  0
  196.8280  186.6520  158.0582 C   0  0  0  0  0  0  0  0  0  0  0  0
  195.9261  185.6884  158.5581 C   0  0  0  0  0  0  0  0  0  0  0  0
  196.2866  184.3244  158.6394 C   0  0  0  0  0  0  0  0  0  0  0  0
  197.6005  183.9520  158.2649 C   0  0  0  0  0  0  0  0  0  0  0  0
  198.4834  184.8908  157.7337 C   0  0  0  0  0  0  0  0  0  0  0  0
  195.2923  183.2610  159.1053 C   0  0  1  0  0  0  0  0  0  0  0  0
  194.8703  182.3043  158.0369 N   0  0  2  0  0  0  0  0  0  0  0  0
  193.9352  181.2727  158.5433 C   0  0  2  0  0  0  0  0  0  0  0  0
  195.9745  181.6938  157.2522 C   0  0  2  0  0  0  0  0  0  0  0  0
  200.6259  184.9343  153.7911 C   0  0  2  0  0  0  0  0  0  0  0  0
  199.7300  183.4728  151.2893 C   0  0  0  0  0  0  0  0  0  0  0  0
  199.1921  182.3707  150.5993 C   0  0  0  0  0  0  0  0  0  0  0  0
  195.9969  182.4972  151.8123 H   0  0  0  0  0  0  0  0  0  0  0  0
  197.0883  185.3110  153.8340 H   0  0  0  0  0  0  0  0  0  0  0  0
  195.7797  184.2694  153.3964 H   0  0  0  0  0  0  0  0  0  0  0  0
  200.9020  191.0074  153.9696 H   0  0  0  0  0  0  0  0  0  0  0  0
  200.6497  189.4614  156.1241 H   0  0  0  0  0  0  0  0  0  0  0  0
  199.3662  186.0005  155.4717 H   0  0  0  0  0  0  0  0  0  0  0  0
  199.9280  187.3443  157.7852 H   0  0  0  0  0  0  0  0  0  0  0  0
  198.5970  188.2760  157.0748 H   0  0  0  0  0  0  0  0  0  0  0  0
  196.5385  187.6971  157.9960 H   0  0  0  0  0  0  0  0  0  0  0  0
  194.9315  186.0165  158.8465 H   0  0  0  0  0  0  0  0  0  0  0  0
  197.9060  182.8990  158.3788 H   0  0  0  0  0  0  0  0  0  0  0  0
  199.4539  184.5683  157.3869 H   0  0  0  0  0  0  0  0  0  0  0  0
  195.7174  182.7268  159.9586 H   0  0  0  0  0  0  0  0  0  0  0  0
  194.4001  183.7648  159.4882 H   0  0  0  0  0  0  0  0  0  0  0  0
  194.4086  180.6766  159.3233 H   0  0  0  0  0  0  0  0  0  0  0  0
  193.6398  180.6026  157.7383 H   0  0  0  0  0  0  0  0  0  0  0  0
  193.0197  181.7140  158.9320 H   0  0  0  0  0  0  0  0  0  0  0  0
  196.6349  181.1515  157.9323 H   0  0  0  0  0  0  0  0  0  0  0  0
  196.5747  182.4537  156.7665 H   0  0  0  0  0  0  0  0  0  0  0  0
  195.5592  180.9363  156.5549 H   0  0  0  0  0  0  0  0  0  0  0  0
  200.2247  184.7594  154.7884 H   0  0  0  0  0  0  0  0  0  0  0  0
  201.4001  185.7019  153.8354 H   0  0  0  0  0  0  0  0  0  0  0  0
  201.1166  183.9984  153.5029 H   0  0  0  0  0  0  0  0  0  0  0  0
  200.7751  183.7264  151.1518 H   0  0  0  0  0  0  0  0  0  0  0  0
  199.8138  181.7979  149.9331 H   0  0  0  0  0  0  0  0  0  0  0  0
  194.3317  182.8126  157.3401 H   0  0  0  0  0  0  0  0  0  0  0  0
  1  2  1  0
  2  3  2  0
  2 29  1  0
  3  4  1  0
  3 30  1  0
  4  5  1  0
  4  6  2  0
  5 31  1  0
  5 32  1  0
  6  7  1  0
  6 28  1  0
  7  8  1  0
  7 27  1  0
  8  9  2  0
  8 10  1  0
 10 11  1  0
 10 14  2  0
 11 12  1  0
 12 13  2  0
 12 33  1  0
 13 14  1  0
 13 34  1  0
 14 15  1  0
 15 16  1  0
 15 35  1  0
 16 17  1  0
 16 36  1  1
 16 37  1  0
 17 18  1  0
 17 22  2  0
 18 19  2  0
 18 38  1  0
 19 20  1  0
 19 39  1  0
 20 21  2  0
 20 23  1  0
 21 22  1  0
 21 40  1  0
 22 41  1  0
 23 24  1  0
 23 42  1  1
 23 43  1  0
 24 25  1  0
 24 26  1  0
 24 55  1  6
 25 44  1  1
 25 45  1  0
 25 46  1  0
 26 47  1  1
 26 48  1  0
 26 49  1  0
 27 50  1  1
 27 51  1  0
 27 52  1  0
 28 29  2  0
 28 53  1  0
 29 54  1  0
M  CHG  1  24   1
M  END
>  <s_epik_cmdline>  (1567) 
J2VwaWtfcHl0aG9uJywgJy1waCcsICc3LjAwMDAwMCcsICctcGh0JywgJzIuMDAwMDAwJywgJy1tcycsICcxNicsICctdG4nLCAnOCcsICctbWEnLCAnMjAwJywgJy1pbWFlJywgJzxpbmZpbGUubWFlPicsICctb21hZScsICc8b3V0ZmlsZS5tYWU+Jw==

>  <s_epik_input>  (1567) 
Q2xjMVtjSF1jKFtOSDJdKWMoW2NIXVtjSF0xKU4oW0NIM10pQyg9TyljMnNbY0hdW2NIXWMyW05IXVtDSDJdYzNbY0hdW2NIXWMoW2NIXVtjSF0zKVtDSDJdTihbQ0gzXSlbQ0gzXQ==

>  <s_i_glide_gridfile>  (1567) 
ATP-Grid

>  <s_lp_Force_Field>  (1567) 
OPLS_2005

>  <s_lp_Variant>  (1567) 
rxn512b____EMOL10352850____EMOL525138____EMOL50155899-1

>  <s_lp_label>  (1567) 
2608_sdstereoexpander_1_neutralizer_1_epik_1_stereoizer_1

>  <s_m_source_file>  (1567) 
ATP-VSW-LIGPREP-002-in.maegz

>  <s_sd_BIOSOLVEIT.INFINISEE\_QUERY\_NAME>  (1567) 
Ref-Lig

>  <s_sd_BIOSOLVEIT.INFINISEE\_QUERY\_SMILES>  (1567) 
S(c1nc2c(cc1C[NH2+]Cc3ccc(cc3)C[NH+](C)C)cccc2)Cc4ccccc4

>  <s_sd_BIOSOLVEIT.INFINISEE\_REACTION\_NAME>  (1567) 
rxn512b

>  <s_sd_BIOSOLVEIT.INFINISEE\_REAGENT1\_NAME>  (1567) 
EMOL10352850

>  <s_sd_BIOSOLVEIT.INFINISEE\_REAGENT1\_SMILES>  (1567) 
Clc1cc(N)c(NC)cc1

>  <s_sd_BIOSOLVEIT.INFINISEE\_REAGENT2\_NAME>  (1567) 
EMOL525138

>  <s_sd_BIOSOLVEIT.INFINISEE\_REAGENT2\_SMILES>  (1567) 
BrC1=C(SC=C1)C(=O)O

>  <s_sd_BIOSOLVEIT.INFINISEE\_REAGENT3\_NAME>  (1567) 
EMOL50155899

>  <s_sd_BIOSOLVEIT.INFINISEE\_REAGENT3\_SMILES>  (1567) 
N(Cc1ccc(cc1)CN)(C)C

>  <s_sd_BIOSOLVEIT.INFINISEE\_SPACE>  (1567) 
eXplore_7tr_2022-12

>  <s_vsw_compound_code>  (1567) 
83426

>  <s_vsw_variant>  (1567) 
83426-1

>  <r_epik_Charging_Adjusted_Penalty>  (1567) 
0.080189274810459593

>  <r_epik_Ionization_Penalty>  (1567) 
0.0402

>  <r_epik_Ionization_Penalty_Charging>  (1567) 
0.040099999999999997

>  <r_epik_Ionization_Penalty_Neutral>  (1567) 
0.0001

>  <r_epik_State_Penalty>  (1567) 
0.040099999999999997

>  <r_i_docking_score>  (1567) 
-3.86252714637769

>  <r_i_glide_ecoul>  (1567) 
-9.6955680847168004

>  <r_i_glide_eff_state_penalty>  (1567) 
0.040099999999999997

>  <r_i_glide_einternal>  (1567) 
4.6479520797729501

>  <r_i_glide_emodel>  (1567) 
-48.188814129518697

>  <r_i_glide_energy>  (1567) 
-36.709405899047901

>  <r_i_glide_erotb>  (1567) 
0.75256507117160198

>  <r_i_glide_esite>  (1567) 
-0.15868474123752099

>  <r_i_glide_evdw>  (1567) 
-27.013837814331101

>  <r_i_glide_gscore>  (1567) 
-3.9026271463776898

>  <r_i_glide_hbond>  (1567) 
-0.35189215399263701

>  <r_i_glide_ligand_efficiency>  (1567) 
-0.133190591254403

>  <r_i_glide_ligand_efficiency_ln>  (1567) 
-0.884420771283005

>  <r_i_glide_ligand_efficiency_sa>  (1567) 
-0.40920369407464502

>  <r_i_glide_lipo>  (1567) 
-0.81377072328014399

>  <r_i_glide_metal>  (1567) 
-0

>  <r_i_glide_rewards>  (1567) 
-0.52581749561491398

>  <r_lp_Energy>  (1567) 
42.687201999999999

>  <r_lp_tautomer_probability>  (1567) 
0.99999274205267796

>  <r_qp_ACxDN^.5/SA>  (1567) 
0.0099805999999999992

>  <r_qp_CIQPlogS>  (1567) 
-4.4340000000000002

>  <r_qp_EA(eV)>  (1567) 
0.45300000000000001

>  <r_qp_FISA>  (1567) 
76.528999999999996

>  <r_qp_FOSA>  (1567) 
270.416

>  <r_qp_IP(eV)>  (1567) 
8.2949999999999999

>  <r_qp_Jm>  (1567) 
0.00014034556071112499

>  <r_qp_PISA>  (1567) 
276.69600000000003

>  <r_qp_PSA>  (1567) 
66.138000000000005

>  <r_qp_PercentHumanOralAbsorption>  (1567) 
88.938999999999993

>  <r_qp_QPPCaco>  (1567) 
115.871

>  <r_qp_QPPMDCK>  (1567) 
244.00399999999999

>  <r_qp_QPlogBB>  (1567) 
0.35399999999999998

>  <r_qp_QPlogHERG>  (1567) 
-7.5659999999999998

>  <r_qp_QPlogKhsa>  (1567) 
0.71899999999999997

>  <r_qp_QPlogKp>  (1567) 
-5.3120000000000003

>  <r_qp_QPlogPC16>  (1567) 
14.343999999999999

>  <r_qp_QPlogPo/w>  (1567) 
4.2789999999999999

>  <r_qp_QPlogPoct>  (1567) 
20.866

>  <r_qp_QPlogPw>  (1567) 
10.275

>  <r_qp_QPlogS>  (1567) 
-4.173

>  <r_qp_QPpolrz>  (1567) 
44.981999999999999

>  <r_qp_SASA>  (1567) 
736.27800000000002

>  <r_qp_SAamideO>  (1567) 
0

>  <r_qp_SAfluorine>  (1567) 
0

>  <r_qp_WPSA>  (1567) 
112.636

>  <r_qp_accptHB>  (1567) 
6

>  <r_qp_dip^2/V>  (1567) 
0.025765400000000001

>  <r_qp_dipole>  (1567) 
5.8760000000000003

>  <r_qp_donorHB>  (1567) 
1.5

>  <r_qp_glob>  (1567) 
0.7983808

>  <r_qp_mol_MW>  (1567) 
428.97899999999998

>  <r_qp_volume>  (1567) 
1340.078

>  <r_sd_BIOSOLVEIT.INFINISEE\_FTREES\_SIMILARITY>  (1567) 
0.91100000000000003

>  <r_sd_BIOSOLVEIT.LOGP>  (1567) 
3.5169000000000001

>  <r_sd_BIOSOLVEIT.MOLECULAR\_WEIGHT>  (1567) 
429.99200000000002

>  <r_sd_BIOSOLVEIT.TPSA>  (1567) 
62.799999999999997

>  <i_epik_Tot_Q>  (1567) 
1

>  <i_epik_Tot_abs_Q>  (1567) 
1

>  <i_f3d_flags>  (1567) 
0

>  <i_i_glide_confnum>  (1567) 
4

>  <i_i_glide_lignum>  (1567) 
1182

>  <i_i_glide_posenum>  (1567) 
3

>  <i_i_glide_rotatable_bonds>  (1567) 
8

>  <i_lp_mmshare_version>  (1567) 
65135

>  <i_m_ct_format>  (1567) 
2

>  <i_m_source_file_index>  (1567) 
2608

>  <i_qp_#NandO>  (1567) 
5

>  <i_qp_#acid>  (1567) 
0

>  <i_qp_#amide>  (1567) 
0

>  <i_qp_#amidine>  (1567) 
0

>  <i_qp_#amine>  (1567) 
2

>  <i_qp_#in34>  (1567) 
0

>  <i_qp_#in56>  (1567) 
17

>  <i_qp_#metab>  (1567) 
7

>  <i_qp_#nonHatm>  (1567) 
29

>  <i_qp_#noncon>  (1567) 
0

>  <i_qp_#ringatoms>  (1567) 
17

>  <i_qp_#rotor>  (1567) 
8

>  <i_qp_#rtvFG>  (1567) 
0

>  <i_qp_#stars>  (1567) 
0

>  <i_qp_CNS>  (1567) 
1

>  <i_qp_HumanOralAbsorption>  (1567) 
3

>  <i_qp_RuleOfFive>  (1567) 
0

>  <i_qp_RuleOfThree>  (1567) 
1

>  <i_sd_BIOSOLVEIT.INFINISEE\_RESULT\_RANK>  (1567) 
42218

>  <i_sd_version>  (1567) 
0

>  <b_lp_Chiralities_Consistent>  (1567) 
1

>  <b_sd_chiral_flag>  (1567) 
0

>  <canonical_id>  (1567) 
ATP-HTVS-F666156B37DE

>  <compound_code>  (1567) 
83426

>  <title>  (1567) 
rxn512b____EMOL10352850____EMOL525138____EMOL50155899

>  <variant>  (1567) 
83426-1

>  <source_file>  (1567) 
运行/运行/ATP-VSW/ATP-VSW-DOCK_HTVS_1-002_lib.maegz

>  <canonical_smiles>  (1567) 
CN(C(=O)c1sccc1NCc1ccc(C[NH+](C)C)cc1)c1ccc(Cl)cc1N

>  <scaffold>  (1567) 
O=C(Nc1ccccc1)c1sccc1NCc1ccccc1

>  <molecular_formula>  (1567) 
C22H26ClN4OS+

$$$$
ATP-HTVS-F6E066811CCA
     RDKit          3D

 44 47  0  0  0  0  0  0  0  0999 V2000
  198.0391  184.3854  159.6962 F   0  0  0  0  0  0  0  0  0  0  0  0
  196.7715  183.9811  159.4546 C   0  0  0  0  0  0  0  0  0  0  0  0
  195.6604  184.8223  159.7433 C   0  0  0  0  0  0  0  0  0  0  0  0
  194.3597  184.3504  159.4703 C   0  0  0  0  0  0  0  0  0  0  0  0
  194.1512  183.0760  158.9226 C   0  0  0  0  0  0  0  0  0  0  0  0
  195.2528  182.2362  158.6586 C   0  0  0  0  0  0  0  0  0  0  0  0
  196.5592  182.6951  158.9171 C   0  0  0  0  0  0  0  0  0  0  0  0
  195.8405  186.1793  160.3719 C   0  0  0  0  0  0  0  0  0  0  0  0
  195.0650  186.5519  161.2726 O   0  0  0  0  0  0  0  0  0  0  0  0
  196.8537  186.9014  159.8587 N   0  0  0  0  0  0  0  0  0  0  0  0
  197.2417  188.2537  160.0811 C   0  0  0  0  0  0  0  0  0  0  0  0
  198.4560  188.7318  159.5217 C   0  0  0  0  0  0  0  0  0  0  0  0
  199.3121  187.8713  158.7862 N   0  0  0  0  0  0  0  0  0  0  0  0
  200.5277  187.6156  159.3203 C   0  0  0  0  0  0  0  0  0  0  0  0
  201.5839  187.4643  159.7794 N   0  0  0  0  0  0  0  0  0  0  0  0
  198.9258  187.2570  157.5688 C   0  0  0  0  0  0  0  0  0  0  0  0
  199.8553  186.4658  156.8284 C   0  0  0  0  0  0  0  0  0  0  0  0
  199.4636  185.7762  155.6602 C   0  0  0  0  0  0  0  0  0  0  0  0
  198.1322  185.8484  155.2090 C   0  0  0  0  0  0  0  0  0  0  0  0
  197.2097  186.6385  155.9199 C   0  0  0  0  0  0  0  0  0  0  0  0
  197.6080  187.3792  157.0556 C   0  0  0  0  0  0  0  0  0  0  0  0
  198.8210  190.0977  159.7316 C   0  0  0  0  0  0  0  0  0  0  0  0
  197.9351  190.9210  160.4803 C   0  0  0  0  0  0  0  0  0  0  0  0
  196.7619  190.4725  160.9696 N   0  0  0  0  0  0  0  0  0  0  0  0
  196.4309  189.1775  160.7916 C   0  0  0  0  0  0  0  0  0  0  0  0
  198.2871  192.2623  160.7220 C   0  0  0  0  0  0  0  0  0  0  0  0
  199.4876  192.8091  160.2365 C   0  0  0  0  0  0  0  0  0  0  0  0
  200.3552  192.0058  159.4794 C   0  0  0  0  0  0  0  0  0  0  0  0
  200.0269  190.6614  159.2258 C   0  0  0  0  0  0  0  0  0  0  0  0
  193.5095  184.9785  159.6887 H   0  0  0  0  0  0  0  0  0  0  0  0
  193.1500  182.7254  158.7094 H   0  0  0  0  0  0  0  0  0  0  0  0
  195.0914  181.2429  158.2592 H   0  0  0  0  0  0  0  0  0  0  0  0
  197.3984  182.0433  158.7203 H   0  0  0  0  0  0  0  0  0  0  0  0
  197.4124  186.4202  159.1805 H   0  0  0  0  0  0  0  0  0  0  0  0
  200.8829  186.3559  157.1619 H   0  0  0  0  0  0  0  0  0  0  0  0
  200.1852  185.1893  155.1071 H   0  0  0  0  0  0  0  0  0  0  0  0
  197.8104  185.3134  154.3247 H   0  0  0  0  0  0  0  0  0  0  0  0
  196.1806  186.6882  155.5950 H   0  0  0  0  0  0  0  0  0  0  0  0
  196.8665  188.0058  157.5246 H   0  0  0  0  0  0  0  0  0  0  0  0
  195.4655  188.9115  161.1875 H   0  0  0  0  0  0  0  0  0  0  0  0
  197.6227  192.8830  161.3048 H   0  0  0  0  0  0  0  0  0  0  0  0
  199.7314  193.8451  160.4416 H   0  0  0  0  0  0  0  0  0  0  0  0
  201.2803  192.4176  159.1085 H   0  0  0  0  0  0  0  0  0  0  0  0
  200.7174  190.0762  158.6412 H   0  0  0  0  0  0  0  0  0  0  0  0
  1  2  1  0
  2  3  1  0
  2  7  2  0
  3  4  2  0
  3  8  1  0
  4  5  1  0
  4 30  1  0
  5  6  2  0
  5 31  1  0
  6  7  1  0
  6 32  1  0
  7 33  1  0
  8  9  2  0
  8 10  1  0
 10 11  1  0
 10 34  1  0
 11 12  2  0
 11 25  1  0
 12 13  1  0
 12 22  1  0
 13 14  1  0
 13 16  1  0
 14 15  3  0
 16 17  2  0
 16 21  1  0
 17 18  1  0
 17 35  1  0
 18 19  2  0
 18 36  1  0
 19 20  1  0
 19 37  1  0
 20 21  2  0
 20 38  1  0
 21 39  1  0
 22 23  1  0
 22 29  2  0
 23 24  1  0
 23 26  2  0
 24 25  2  0
 25 40  1  0
 26 27  1  0
 26 41  1  0
 27 28  2  0
 27 42  1  0
 28 29  1  0
 28 43  1  0
 29 44  1  0
M  END
>  <s_epik_cmdline>  (1568) 
J2VwaWtfcHl0aG9uJywgJy1waCcsICc3LjAwMDAwMCcsICctcGh0JywgJzIuMDAwMDAwJywgJy1tcycsICcxNicsICctdG4nLCAnOCcsICctbWEnLCAnMjAwJywgJy1pbWFlJywgJzxpbmZpbGUubWFlPicsICctb21hZScsICc8b3V0ZmlsZS5tYWU+Jw==

>  <s_epik_input>  (1568) 
W2NIXTFbY0hdW2NIXVtjSF1jKGMxRilDKD1PKVtOSF1jKFtjSF1uYyhjMjMpW2NIXVtjSF1bY0hdW2NIXTMpYzJOKEMjTiljNFtjSF1bY0hdW2NIXVtjSF1bY0hdNA==

>  <s_i_glide_gridfile>  (1568) 
ATP-Grid

>  <s_lp_Force_Field>  (1568) 
OPLS_2005

>  <s_lp_Variant>  (1568) 
rxn502b____EMOL505868____EMOL30488121____EMOL36822768-1

>  <s_lp_label>  (1568) 
2938_sdstereoexpander_1_neutralizer_1_epik_1_stereoizer_1

>  <s_m_source_file>  (1568) 
ATP-VSW-LIGPREP-001-in.maegz

>  <s_sd_BIOSOLVEIT.INFINISEE\_QUERY\_NAME>  (1568) 
Ref-Lig

>  <s_sd_BIOSOLVEIT.INFINISEE\_QUERY\_SMILES>  (1568) 
S(c1nc2c(cc1C[NH2+]Cc3ccc(cc3)C[NH+](C)C)cccc2)Cc4ccccc4

>  <s_sd_BIOSOLVEIT.INFINISEE\_REACTION\_NAME>  (1568) 
rxn502b

>  <s_sd_BIOSOLVEIT.INFINISEE\_REAGENT1\_NAME>  (1568) 
EMOL505868

>  <s_sd_BIOSOLVEIT.INFINISEE\_REAGENT1\_SMILES>  (1568) 
Fc1c(cccc1)C(=O)O

>  <s_sd_BIOSOLVEIT.INFINISEE\_REAGENT2\_NAME>  (1568) 
EMOL30488121

>  <s_sd_BIOSOLVEIT.INFINISEE\_REAGENT2\_SMILES>  (1568) 
Brc1c(N)cnc2c1cccc2

>  <s_sd_BIOSOLVEIT.INFINISEE\_REAGENT3\_NAME>  (1568) 
EMOL36822768

>  <s_sd_BIOSOLVEIT.INFINISEE\_REAGENT3\_SMILES>  (1568) 
N#CNc1ccccc1

>  <s_sd_BIOSOLVEIT.INFINISEE\_SPACE>  (1568) 
eXplore_7tr_2022-12

>  <s_vsw_compound_code>  (1568) 
93985

>  <s_vsw_variant>  (1568) 
93985-1

>  <r_epik_Charging_Adjusted_Penalty>  (1568) 
0

>  <r_epik_Ionization_Penalty>  (1568) 
0.0016999999999999999

>  <r_epik_Ionization_Penalty_Charging>  (1568) 
0

>  <r_epik_Ionization_Penalty_Neutral>  (1568) 
0.0016999999999999999

>  <r_epik_State_Penalty>  (1568) 
-0

>  <r_i_docking_score>  (1568) 
-3.9195823987681901

>  <r_i_glide_ecoul>  (1568) 
-3.4246513843536399

>  <r_i_glide_eff_state_penalty>  (1568) 
-0

>  <r_i_glide_einternal>  (1568) 
1.8594013452529901

>  <r_i_glide_emodel>  (1568) 
-45.782919504948801

>  <r_i_glide_energy>  (1568) 
-37.407740831375101

>  <r_i_glide_erotb>  (1568) 
0.66409722755152101

>  <r_i_glide_esite>  (1568) 
-0.0111370934500286

>  <r_i_glide_evdw>  (1568) 
-33.983089447021499

>  <r_i_glide_gscore>  (1568) 
-3.9195823987681901

>  <r_i_glide_hbond>  (1568) 
0

>  <r_i_glide_ligand_efficiency>  (1568) 
-0.135158013750627

>  <r_i_glide_ligand_efficiency_ln>  (1568) 
-0.89748497728406096

>  <r_i_glide_ligand_efficiency_sa>  (1568) 
-0.41524823930624299

>  <r_i_glide_lipo>  (1568) 
-1.0944313607941401

>  <r_i_glide_metal>  (1568) 
-0

>  <r_i_glide_rewards>  (1568) 
-1.2652589920714199

>  <r_lp_Energy>  (1568) 
35.701360000000001

>  <r_lp_tautomer_probability>  (1568) 
1

>  <r_qp_ACxDN^.5/SA>  (1568) 
0.0082194

>  <r_qp_CIQPlogS>  (1568) 
-6.1079999999999997

>  <r_qp_EA(eV)>  (1568) 
1.502

>  <r_qp_FISA>  (1568) 
119.21899999999999

>  <r_qp_FOSA>  (1568) 
0

>  <r_qp_IP(eV)>  (1568) 
8.9290000000000003

>  <r_qp_Jm>  (1568) 
0.023440964283578399

>  <r_qp_PISA>  (1568) 
513.21699999999998

>  <r_qp_PSA>  (1568) 
71.492000000000004

>  <r_qp_PercentHumanOralAbsorption>  (1568) 
100

>  <r_qp_QPPCaco>  (1568) 
733.404

>  <r_qp_QPPMDCK>  (1568) 
562.22199999999998

>  <r_qp_QPlogBB>  (1568) 
-0.83399999999999996

>  <r_qp_QPlogHERG>  (1568) 
-6.915

>  <r_qp_QPlogKhsa>  (1568) 
0.60499999999999998

>  <r_qp_QPlogKp>  (1568) 
-1.429

>  <r_qp_QPlogPC16>  (1568) 
13.866

>  <r_qp_QPlogPo/w>  (1568) 
4.4610000000000003

>  <r_qp_QPlogPoct>  (1568) 
19.893000000000001

>  <r_qp_QPlogPw>  (1568) 
11.423

>  <r_qp_QPlogS>  (1568) 
-5.7839999999999998

>  <r_qp_QPpolrz>  (1568) 
43.776000000000003

>  <r_qp_SASA>  (1568) 
669.14800000000002

>  <r_qp_SAamideO>  (1568) 
0

>  <r_qp_SAfluorine>  (1568) 
36.712000000000003

>  <r_qp_WPSA>  (1568) 
36.712000000000003

>  <r_qp_accptHB>  (1568) 
5.5

>  <r_qp_dip^2/V>  (1568) 
0.031963900000000003

>  <r_qp_dipole>  (1568) 
6.2069999999999999

>  <r_qp_donorHB>  (1568) 
1

>  <r_qp_glob>  (1568) 
0.81857199999999997

>  <r_qp_mol_MW>  (1568) 
382.39600000000002

>  <r_qp_volume>  (1568) 
1205.3710000000001

>  <r_sd_BIOSOLVEIT.INFINISEE\_FTREES\_SIMILARITY>  (1568) 
0.90400000000000003

>  <r_sd_BIOSOLVEIT.LOGP>  (1568) 
5.2453799999999999

>  <r_sd_BIOSOLVEIT.MOLECULAR\_WEIGHT>  (1568) 
382.39699999999999

>  <r_sd_BIOSOLVEIT.TPSA>  (1568) 
69.019999999999996

>  <i_epik_Tot_Q>  (1568) 
0

>  <i_epik_Tot_abs_Q>  (1568) 
0

>  <i_f3d_flags>  (1568) 
0

>  <i_i_glide_confnum>  (1568) 
4

>  <i_i_glide_lignum>  (1568) 
1380

>  <i_i_glide_posenum>  (1568) 
10

>  <i_i_glide_rotatable_bonds>  (1568) 
5

>  <i_lp_mmshare_version>  (1568) 
65135

>  <i_m_ct_format>  (1568) 
2

>  <i_m_source_file_index>  (1568) 
2938

>  <i_qp_#NandO>  (1568) 
5

>  <i_qp_#acid>  (1568) 
0

>  <i_qp_#amide>  (1568) 
0

>  <i_qp_#amidine>  (1568) 
0

>  <i_qp_#amine>  (1568) 
0

>  <i_qp_#in34>  (1568) 
0

>  <i_qp_#in56>  (1568) 
22

>  <i_qp_#metab>  (1568) 
2

>  <i_qp_#nonHatm>  (1568) 
29

>  <i_qp_#noncon>  (1568) 
0

>  <i_qp_#ringatoms>  (1568) 
22

>  <i_qp_#rotor>  (1568) 
5

>  <i_qp_#rtvFG>  (1568) 
0

>  <i_qp_#stars>  (1568) 
1

>  <i_qp_CNS>  (1568) 
-1

>  <i_qp_HumanOralAbsorption>  (1568) 
3

>  <i_qp_RuleOfFive>  (1568) 
0

>  <i_qp_RuleOfThree>  (1568) 
1

>  <i_sd_BIOSOLVEIT.INFINISEE\_RESULT\_RANK>  (1568) 
78920

>  <i_sd_version>  (1568) 
0

>  <b_lp_Chiralities_Consistent>  (1568) 
1

>  <b_sd_chiral_flag>  (1568) 
0

>  <canonical_id>  (1568) 
ATP-HTVS-F6E066811CCA

>  <compound_code>  (1568) 
93985

>  <title>  (1568) 
rxn502b____EMOL505868____EMOL30488121____EMOL36822768

>  <variant>  (1568) 
93985-1

>  <source_file>  (1568) 
运行/运行/ATP-VSW/ATP-VSW-DOCK_HTVS_1-001_lib/ATP-VSW-DOCK_HTVS_1-001_lib

>  <canonical_smiles>  (1568) 
N#CN(c1ccccc1)c1c(NC(=O)c2ccccc2F)cnc2ccccc12

>  <scaffold>  (1568) 
O=C(Nc1cnc2ccccc2c1Nc1ccccc1)c1ccccc1

>  <molecular_formula>  (1568) 
C23H15FN4O

$$$$
ATP-HTVS-F716E067906C
     RDKit          3D

 45 48  0  0  0  0  0  0  0  0999 V2000
  195.9005  183.4634  150.8731 I   0  0  0  0  0  0  0  0  0  0  0  0
  197.3228  184.4475  152.0625 C   0  0  0  0  0  0  0  0  0  0  0  0
  198.3487  185.2182  151.4676 C   0  0  0  0  0  0  0  0  0  0  0  0
  199.3282  185.8418  152.2780 C   0  0  0  0  0  0  0  0  0  0  0  0
  200.5560  186.8254  151.5760 Cl  0  0  0  0  0  0  0  0  0  0  0  0
  199.2844  185.6972  153.6799 C   0  0  0  0  0  0  0  0  0  0  0  0
  198.2088  185.0114  154.2760 C   0  0  0  0  0  0  0  0  0  0  0  0
  197.2499  184.3557  153.4689 C   0  0  0  0  0  0  0  0  0  0  0  0
  198.1157  184.8858  155.7888 C   0  0  1  0  0  0  0  0  0  0  0  0
  197.7809  186.0815  156.5787 N   0  0  0  0  0  0  0  0  0  0  0  0
  197.6775  185.7730  158.0261 C   0  0  2  0  0  0  0  0  0  0  0  0
  199.0316  185.6832  158.7689 C   0  0  0  0  0  0  0  0  0  0  0  0
  199.8530  186.8500  158.9172 C   0  0  0  0  0  0  0  0  0  0  0  0
  199.4634  188.1243  158.4083 N   0  0  0  0  0  0  0  0  0  0  0  0
  198.8844  188.3656  157.2174 C   0  0  0  0  0  0  0  0  0  0  0  0
  198.5932  189.4939  156.8434 O   0  0  0  0  0  0  0  0  0  0  0  0
  198.7302  187.1801  156.2522 C   0  0  1  0  0  0  0  0  0  0  0  0
  201.0688  186.7605  159.6450 C   0  0  0  0  0  0  0  0  0  0  0  0
  201.4860  185.5421  160.2197 C   0  0  0  0  0  0  0  0  0  0  0  0
  200.6728  184.4020  160.0830 C   0  0  0  0  0  0  0  0  0  0  0  0
  199.4539  184.4798  159.3898 C   0  0  0  0  0  0  0  0  0  0  0  0
  196.7415  184.5845  158.3558 C   0  0  0  0  0  0  0  0  0  0  0  0
  197.1032  183.2706  157.9793 C   0  0  0  0  0  0  0  0  0  0  0  0
  196.2374  182.1809  158.2281 C   0  0  0  0  0  0  0  0  0  0  0  0
  195.0285  182.3789  158.9225 C   0  0  0  0  0  0  0  0  0  0  0  0
  194.6829  183.6765  159.3462 C   0  0  0  0  0  0  0  0  0  0  0  0
  195.5208  184.7764  159.0581 C   0  0  0  0  0  0  0  0  0  0  0  0
  198.3689  185.3294  150.3893 H   0  0  0  0  0  0  0  0  0  0  0  0
  200.0786  186.1343  154.2847 H   0  0  0  0  0  0  0  0  0  0  0  0
  196.4543  183.7708  153.9151 H   0  0  0  0  0  0  0  0  0  0  0  0
  197.3005  184.1995  155.9281 H   0  0  0  0  0  0  0  0  0  0  0  0
  199.0284  184.4122  156.1486 H   0  0  0  0  0  0  0  0  0  0  0  0
  197.1701  186.6434  158.4447 H   0  0  0  0  0  0  0  0  0  0  0  0
  199.7732  188.9482  158.9157 H   0  0  0  0  0  0  0  0  0  0  0  0
  199.7259  186.7486  156.1848 H   0  0  0  0  0  0  0  0  0  0  0  0
  198.4942  187.5866  155.2720 H   0  0  0  0  0  0  0  0  0  0  0  0
  201.6939  187.6410  159.7686 H   0  0  0  0  0  0  0  0  0  0  0  0
  202.4006  185.4672  160.7943 H   0  0  0  0  0  0  0  0  0  0  0  0
  200.9394  183.4621  160.5291 H   0  0  0  0  0  0  0  0  0  0  0  0
  198.8610  183.5645  159.4092 H   0  0  0  0  0  0  0  0  0  0  0  0
  198.0299  183.0636  157.4703 H   0  0  0  0  0  0  0  0  0  0  0  0
  196.5430  181.2023  157.8947 H   0  0  0  0  0  0  0  0  0  0  0  0
  194.4016  181.5097  159.1167 H   0  0  0  0  0  0  0  0  0  0  0  0
  193.7624  183.8395  159.8987 H   0  0  0  0  0  0  0  0  0  0  0  0
  195.2299  185.7710  159.3898 H   0  0  0  0  0  0  0  0  0  0  0  0
  1  2  1  0
  2  3  1  0
  2  8  2  0
  3  4  2  0
  3 28  1  0
  4  5  1  0
  4  6  1  0
  6  7  2  0
  6 29  1  0
  7  8  1  0
  7  9  1  0
  8 30  1  0
  9 10  1  0
  9 31  1  6
  9 32  1  0
 10 11  1  0
 10 17  1  0
 11 12  1  0
 11 22  1  0
 11 33  1  1
 12 13  1  0
 12 21  2  0
 13 14  1  0
 13 18  2  0
 14 15  1  0
 14 34  1  0
 15 16  2  0
 15 17  1  0
 17 35  1  6
 17 36  1  0
 18 19  1  0
 18 37  1  0
 19 20  2  0
 19 38  1  0
 20 21  1  0
 20 39  1  0
 21 40  1  0
 22 23  2  0
 22 27  1  0
 23 24  1  0
 23 41  1  0
 24 25  2  0
 24 42  1  0
 25 26  1  0
 25 43  1  0
 26 27  2  0
 26 44  1  0
 27 45  1  0
M  END
>  <s_epik_cmdline>  (1569) 
J2VwaWtfcHl0aG9uJywgJy1waCcsICc3LjAwMDAwMCcsICctcGh0JywgJzIuMDAwMDAwJywgJy1tcycsICcxNicsICctdG4nLCAnOCcsICctbWEnLCAnMjAwJywgJy1pbWFlJywgJzxpbmZpbGUubWFlPicsICctb21hZScsICc8b3V0ZmlsZS5tYWU+Jw==

>  <s_epik_input>  (1569) 
SWMxW2NIXWMoQ2wpW2NIXWMoW2NIXTEpW0NIMl1OKFtDQEhdMmMzW2NIXVtjSF1bY0hdW2NIXVtjSF0zKVtDSDJdQyg9TylbTkhdYyhjMjQpW2NIXVtjSF1bY0hdW2NIXTQ=

>  <s_i_glide_gridfile>  (1569) 
ATP-Grid

>  <s_lp_Force_Field>  (1569) 
OPLS_2005

>  <s_lp_Variant>  (1569) 
m_270004bda____24170338____24715276-2

>  <s_lp_label>  (1569) 
1066_sdstereoexpander_3_neutralizer_1_epik_1_stereoizer_1

>  <s_m_source_file>  (1569) 
ATP-VSW-LIGPREP-003-in.maegz

>  <s_sd_BIOSOLVEIT.INFINISEE\_QUERY\_NAME>  (1569) 
Ref-Lig

>  <s_sd_BIOSOLVEIT.INFINISEE\_QUERY\_SMILES>  (1569) 
S(c1nc2c(cc1C[NH2+]Cc3ccc(cc3)C[NH+](C)C)cccc2)Cc4ccccc4

>  <s_sd_BIOSOLVEIT.INFINISEE\_REACTION\_NAME>  (1569) 
m_270004bda

>  <s_sd_BIOSOLVEIT.INFINISEE\_REAGENT1\_SMILES>  (1569) 
[R1*]N1C(c2c(NC(=O)C1)cccc2)c3ccccc3

>  <s_sd_BIOSOLVEIT.INFINISEE\_REAGENT2\_SMILES>  (1569) 
[R1*]Cc1cc(I)cc(Cl)c1

>  <s_sd_BIOSOLVEIT.INFINISEE\_SPACE>  (1569) 
REALSpace_44bn_2023-08

>  <s_vsw_compound_code>  (1569) 
34083

>  <s_vsw_variant>  (1569) 
34083-2

>  <r_epik_Charging_Adjusted_Penalty>  (1569) 
0.0087634984339075902

>  <r_epik_Ionization_Penalty>  (1569) 
0.0088000000000000005

>  <r_epik_Ionization_Penalty_Charging>  (1569) 
0

>  <r_epik_Ionization_Penalty_Neutral>  (1569) 
0.0088000000000000005

>  <r_epik_State_Penalty>  (1569) 
0.0088000000000000005

>  <r_i_docking_score>  (1569) 
-0.72458189103082804

>  <r_i_glide_ecoul>  (1569) 
-1.03395760059357

>  <r_i_glide_eff_state_penalty>  (1569) 
0.0088000000000000005

>  <r_i_glide_einternal>  (1569) 
1.6851959228515601

>  <r_i_glide_emodel>  (1569) 
-33.588053200872103

>  <r_i_glide_energy>  (1569) 
-32.873154759407001

>  <r_i_glide_erotb>  (1569) 
0.25543030938705602

>  <r_i_glide_esite>  (1569) 
-0.0030421459517878499

>  <r_i_glide_evdw>  (1569) 
-31.839197158813501

>  <r_i_glide_gscore>  (1569) 
-0.73338189103082796

>  <r_i_glide_hbond>  (1569) 
0

>  <r_i_glide_ligand_efficiency>  (1569) 
-0.026836366334475101

>  <r_i_glide_ligand_efficiency_ln>  (1569) 
-0.16867071856589899

>  <r_i_glide_ligand_efficiency_sa>  (1569) 
-0.080509098914977095

>  <r_i_glide_lipo>  (1569) 
-1.0888371439289599

>  <r_i_glide_metal>  (1569) 
-0

>  <r_i_glide_rewards>  (1569) 
1.8501205874925799

>  <r_lp_Energy>  (1569) 
50.553054000000003

>  <r_qp_ACxDN^.5/SA>  (1569) 
0.0068995000000000003

>  <r_qp_CIQPlogS>  (1569) 
-7.2859999999999996

>  <r_qp_EA(eV)>  (1569) 
1.081

>  <r_qp_FISA>  (1569) 
61.240000000000002

>  <r_qp_FOSA>  (1569) 
42.991

>  <r_qp_IP(eV)>  (1569) 
9.2739999999999991

>  <r_qp_Jm>  (1569) 
0.00082070682246756599

>  <r_qp_PISA>  (1569) 
392.81599999999997

>  <r_qp_PSA>  (1569) 
40.646999999999998

>  <r_qp_PercentHumanOralAbsorption>  (1569) 
100

>  <r_qp_QPPCaco>  (1569) 
648.71900000000005

>  <r_qp_QPPMDCK>  (1569) 
2427.2620000000002

>  <r_qp_QPlogBB>  (1569) 
0.624

>  <r_qp_QPlogHERG>  (1569) 
-6.9480000000000004

>  <r_qp_QPlogKhsa>  (1569) 
0.85699999999999998

>  <r_qp_QPlogKp>  (1569) 
-3.1349999999999998

>  <r_qp_QPlogPC16>  (1569) 
13.659000000000001

>  <r_qp_QPlogPo/w>  (1569) 
4.8810000000000002

>  <r_qp_QPlogPoct>  (1569) 
19.238

>  <r_qp_QPlogPw>  (1569) 
9.8879999999999999

>  <r_qp_QPlogS>  (1569) 
-5.6399999999999997

>  <r_qp_QPpolrz>  (1569) 
43.363

>  <r_qp_SASA>  (1569) 
652.22000000000003

>  <r_qp_SAamideO>  (1569) 
0

>  <r_qp_SAfluorine>  (1569) 
0

>  <r_qp_WPSA>  (1569) 
155.172

>  <r_qp_accptHB>  (1569) 
4.5

>  <r_qp_dip^2/V>  (1569) 
0.017645899999999999

>  <r_qp_dipole>  (1569) 
4.5549999999999997

>  <r_qp_donorHB>  (1569) 
1

>  <r_qp_glob>  (1569) 
0.82595739999999995

>  <r_qp_mol_MW>  (1569) 
488.75400000000002

>  <r_qp_volume>  (1569) 
1175.655

>  <r_sd_BIOSOLVEIT.INFINISEE\_FTREES\_SIMILARITY>  (1569) 
0.91400000000000003

>  <r_sd_BIOSOLVEIT.LOGP>  (1569) 
4.0712000000000002

>  <r_sd_BIOSOLVEIT.MOLECULAR\_WEIGHT>  (1569) 
489.75799999999998

>  <r_sd_BIOSOLVEIT.TPSA>  (1569) 
33.539999999999999

>  <i_epik_Tot_Q>  (1569) 
0

>  <i_epik_Tot_abs_Q>  (1569) 
0

>  <i_f3d_flags>  (1569) 
0

>  <i_i_glide_confnum>  (1569) 
3

>  <i_i_glide_lignum>  (1569) 
399

>  <i_i_glide_posenum>  (1569) 
1

>  <i_i_glide_rotatable_bonds>  (1569) 
3

>  <i_lp_mmshare_version>  (1569) 
65135

>  <i_m_ct_format>  (1569) 
2

>  <i_m_source_file_index>  (1569) 
1066

>  <i_qp_#NandO>  (1569) 
3

>  <i_qp_#acid>  (1569) 
0

>  <i_qp_#amide>  (1569) 
0

>  <i_qp_#amidine>  (1569) 
0

>  <i_qp_#amine>  (1569) 
1

>  <i_qp_#in34>  (1569) 
0

>  <i_qp_#in56>  (1569) 
18

>  <i_qp_#metab>  (1569) 
7

>  <i_qp_#nonHatm>  (1569) 
27

>  <i_qp_#noncon>  (1569) 
2

>  <i_qp_#ringatoms>  (1569) 
23

>  <i_qp_#rotor>  (1569) 
2

>  <i_qp_#rtvFG>  (1569) 
0

>  <i_qp_#stars>  (1569) 
0

>  <i_qp_CNS>  (1569) 
2

>  <i_qp_HumanOralAbsorption>  (1569) 
3

>  <i_qp_RuleOfFive>  (1569) 
0

>  <i_qp_RuleOfThree>  (1569) 
1

>  <i_sd_BIOSOLVEIT.INFINISEE\_REAGENT1\_NAME>  (1569) 
24170338

>  <i_sd_BIOSOLVEIT.INFINISEE\_REAGENT2\_NAME>  (1569) 
24715276

>  <i_sd_BIOSOLVEIT.INFINISEE\_RESULT\_RANK>  (1569) 
30879

>  <i_sd_version>  (1569) 
0

>  <b_lp_Chiralities_Consistent>  (1569) 
1

>  <b_sd_chiral_flag>  (1569) 
0

>  <canonical_id>  (1569) 
ATP-HTVS-F716E067906C

>  <compound_code>  (1569) 
34083

>  <title>  (1569) 
m_270004bda____24170338____24715276

>  <variant>  (1569) 
34083-2

>  <source_file>  (1569) 
运行/运行/ATP-VSW/ATP-VSW-DOCK_HTVS_1-003_lib/ATP-VSW-DOCK_HTVS_1-003_lib.mae

>  <canonical_smiles>  (1569) 
O=C1CN(Cc2cc(Cl)cc(I)c2)[C@@H](c2ccccc2)c2ccccc2N1

>  <scaffold>  (1569) 
O=C1CN(Cc2ccccc2)C(c2ccccc2)c2ccccc2N1

>  <molecular_formula>  (1569) 
C22H18ClIN2O

$$$$
ATP-HTVS-F7366BF3987A
     RDKit          3D

 56 59  0  0  0  0  0  0  0  0999 V2000
  198.0774  186.2098  155.6881 O   0  0  0  0  0  0  0  0  0  0  0  0
  197.5756  185.1071  155.8722 C   0  0  0  0  0  0  0  0  0  0  0  0
  197.3746  184.1822  154.9075 N   0  0  0  0  0  0  0  0  0  0  0  0
  197.6312  184.2358  153.5108 C   0  0  0  0  0  0  0  0  0  0  0  0
  197.6868  183.0268  152.7638 C   0  0  0  0  0  0  0  0  0  0  0  0
  197.4650  181.7540  153.4381 C   0  0  0  0  0  0  0  0  0  0  0  0
  197.3513  180.7150  154.1002 C   0  0  0  0  0  0  0  0  0  0  0  0
  197.3015  179.4957  154.9254 C   0  0  1  0  0  0  0  0  0  0  0  0
  197.9936  179.8319  156.2217 N   0  0  1  0  0  0  0  0  0  0  0  0
  199.4527  179.7814  156.3347 C   0  0  1  0  0  0  0  0  0  0  0  0
  200.0557  178.4366  155.9561 C   0  0  0  0  0  0  0  0  0  0  0  0
  200.0746  178.0054  154.6102 C   0  0  0  0  0  0  0  0  0  0  0  0
  200.5726  176.7682  154.2564 C   0  0  0  0  0  0  0  0  0  0  0  0
  201.1396  175.9090  155.2434 C   0  0  0  0  0  0  0  0  0  0  0  0
  201.1670  176.3318  156.5845 C   0  0  0  0  0  0  0  0  0  0  0  0
  200.6093  177.5755  156.9467 C   0  0  0  0  0  0  0  0  0  0  0  0
  200.1335  180.9534  155.5962 C   0  0  2  0  0  0  0  0  0  0  0  0
  197.9578  183.1097  151.3664 C   0  0  0  0  0  0  0  0  0  0  0  0
  198.0850  184.4009  150.7737 C   0  0  0  0  0  0  0  0  0  0  0  0
  197.9711  185.5369  151.4856 N   0  0  0  0  0  0  0  0  0  0  0  0
  197.7611  185.4553  152.8151 C   0  0  0  0  0  0  0  0  0  0  0  0
  198.3259  184.4929  149.3860 C   0  0  0  0  0  0  0  0  0  0  0  0
  198.4560  183.3410  148.5928 C   0  0  0  0  0  0  0  0  0  0  0  0
  198.3452  182.0705  149.1796 C   0  0  0  0  0  0  0  0  0  0  0  0
  198.0950  181.9534  150.5581 C   0  0  0  0  0  0  0  0  0  0  0  0
  197.1716  184.6548  157.2493 C   0  0  0  0  0  0  0  0  0  0  0  0
  196.4856  183.4283  157.4563 C   0  0  0  0  0  0  0  0  0  0  0  0
  196.1062  183.0287  158.7434 C   0  0  0  0  0  0  0  0  0  0  0  0
  195.4469  181.8583  158.9346 O   0  0  0  0  0  0  0  0  0  0  0  0
  196.3949  183.8447  159.8555 C   0  0  0  0  0  0  0  0  0  0  0  0
  197.0659  185.0639  159.6700 C   0  0  0  0  0  0  0  0  0  0  0  0
  197.4540  185.4682  158.3764 C   0  0  0  0  0  0  0  0  0  0  0  0
  197.6341  180.7074  156.5859 H   0  0  0  0  0  0  0  0  0  0  0  0
  196.9911  183.3082  155.2348 H   0  0  0  0  0  0  0  0  0  0  0  0
  196.2225  179.3046  155.1370 H   0  0  0  0  0  0  0  0  0  0  0  0
  197.7573  178.6656  154.4043 H   0  0  0  0  0  0  0  0  0  0  0  0
  199.6569  179.9281  157.3976 H   0  0  0  0  0  0  0  0  0  0  0  0
  199.6367  178.6678  153.8463 H   0  0  0  0  0  0  0  0  0  0  0  0
  200.5339  176.4302  153.2247 H   0  0  0  0  0  0  0  0  0  0  0  0
  201.5414  174.9466  154.9588 H   0  0  0  0  0  0  0  0  0  0  0  0
  201.6058  175.6962  157.3383 H   0  0  0  0  0  0  0  0  0  0  0  0
  200.6071  177.8743  157.9929 H   0  0  0  0  0  0  0  0  0  0  0  0
  201.2196  180.9601  155.7691 H   0  0  0  0  0  0  0  0  0  0  0  0
  199.7254  181.9071  155.9365 H   0  0  0  0  0  0  0  0  0  0  0  0
  199.9770  180.8760  154.5209 H   0  0  0  0  0  0  0  0  0  0  0  0
  197.6389  186.4052  153.3095 H   0  0  0  0  0  0  0  0  0  0  0  0
  198.4138  185.4691  148.9367 H   0  0  0  0  0  0  0  0  0  0  0  0
  198.6445  183.4337  147.5339 H   0  0  0  0  0  0  0  0  0  0  0  0
  198.4469  181.1830  148.5724 H   0  0  0  0  0  0  0  0  0  0  0  0
  198.0159  180.9610  150.9759 H   0  0  0  0  0  0  0  0  0  0  0  0
  196.2096  182.7762  156.6386 H   0  0  0  0  0  0  0  0  0  0  0  0
  195.4901  181.2293  158.2190 H   0  0  0  0  0  0  0  0  0  0  0  0
  196.1024  183.5230  160.8433 H   0  0  0  0  0  0  0  0  0  0  0  0
  197.2901  185.6848  160.5251 H   0  0  0  0  0  0  0  0  0  0  0  0
  197.9650  186.4113  158.2540 H   0  0  0  0  0  0  0  0  0  0  0  0
  197.6335  179.1293  156.8857 H   0  0  0  0  0  0  0  0  0  0  0  0
  1  2  2  0
  2  3  1  0
  2 26  1  0
  3  4  1  0
  3 34  1  0
  4  5  2  0
  4 21  1  0
  5  6  1  0
  5 18  1  0
  6  7  3  0
  7  8  1  0
  8  9  1  0
  8 35  1  1
  8 36  1  0
  9 10  1  0
  9 33  1  1
  9 56  1  0
 10 11  1  0
 10 17  1  0
 10 37  1  1
 11 12  2  0
 11 16  1  0
 12 13  1  0
 12 38  1  0
 13 14  2  0
 13 39  1  0
 14 15  1  0
 14 40  1  0
 15 16  2  0
 15 41  1  0
 16 42  1  0
 17 43  1  6
 17 44  1  0
 17 45  1  0
 18 19  1  0
 18 25  2  0
 19 20  1  0
 19 22  2  0
 20 21  2  0
 21 46  1  0
 22 23  1  0
 22 47  1  0
 23 24  2  0
 23 48  1  0
 24 25  1  0
 24 49  1  0
 25 50  1  0
 26 27  1  0
 26 32  2  0
 27 28  2  0
 27 51  1  0
 28 29  1  0
 28 30  1  0
 29 52  1  0
 30 31  2  0
 30 53  1  0
 31 32  1  0
 31 54  1  0
 32 55  1  0
M  CHG  1   9   1
M  END
>  <s_epik_cmdline>  (1570) 
J2VwaWtfcHl0aG9uJywgJy1waCcsICc3LjAwMDAwMCcsICctcGh0JywgJzIuMDAwMDAwJywgJy1tcycsICcxNicsICctdG4nLCAnOCcsICctbWEnLCAnMjAwJywgJy1pbWFlJywgJzxpbmZpbGUubWFlPicsICctb21hZScsICc8b3V0ZmlsZS5tYWU+Jw==

>  <s_epik_input>  (1570) 
W2NIXTFbY0hdW2NIXWMoW09IXSlbY0hdYzFDKD1PKVtOSF1jKFtjSF1uYyhjMjMpW2NIXVtjSF1bY0hdW2NIXTMpYzJDI0NbQ0gyXVtOSF1bQ0BIXShbQ0gzXSljNFtjSF1bY0hdW2NIXVtjSF1bY0hdNA==

>  <s_i_glide_gridfile>  (1570) 
ATP-Grid

>  <s_lp_Force_Field>  (1570) 
OPLS_2005

>  <s_lp_Variant>  (1570) 
rxn503b____EMOL519605____EMOL30488121____EMOL1468452-3

>  <s_lp_label>  (1570) 
2851_sdstereoexpander_1_neutralizer_1_epik_2_stereoizer_1

>  <s_m_source_file>  (1570) 
ATP-VSW-LIGPREP-002-in.maegz

>  <s_sd_BIOSOLVEIT.INFINISEE\_QUERY\_NAME>  (1570) 
Ref-Lig

>  <s_sd_BIOSOLVEIT.INFINISEE\_QUERY\_SMILES>  (1570) 
S(c1nc2c(cc1C[NH2+]Cc3ccc(cc3)C[NH+](C)C)cccc2)Cc4ccccc4

>  <s_sd_BIOSOLVEIT.INFINISEE\_REACTION\_NAME>  (1570) 
rxn503b

>  <s_sd_BIOSOLVEIT.INFINISEE\_REAGENT1\_NAME>  (1570) 
EMOL519605

>  <s_sd_BIOSOLVEIT.INFINISEE\_REAGENT1\_SMILES>  (1570) 
O=C(O)c1cc(O)ccc1

>  <s_sd_BIOSOLVEIT.INFINISEE\_REAGENT2\_NAME>  (1570) 
EMOL30488121

>  <s_sd_BIOSOLVEIT.INFINISEE\_REAGENT2\_SMILES>  (1570) 
Brc1c(N)cnc2c1cccc2

>  <s_sd_BIOSOLVEIT.INFINISEE\_REAGENT3\_NAME>  (1570) 
EMOL1468452

>  <s_sd_BIOSOLVEIT.INFINISEE\_REAGENT3\_SMILES>  (1570) 
N(C(c1ccccc1)C)CC#C

>  <s_sd_BIOSOLVEIT.INFINISEE\_SPACE>  (1570) 
eXplore_7tr_2022-12

>  <s_vsw_compound_code>  (1570) 
91202

>  <s_vsw_variant>  (1570) 
91202-3

>  <r_epik_Charging_Adjusted_Penalty>  (1570) 
1.1422793874747099

>  <r_epik_Ionization_Penalty>  (1570) 
0.57369999999999999

>  <r_epik_Ionization_Penalty_Charging>  (1570) 
0.56859999999999999

>  <r_epik_Ionization_Penalty_Neutral>  (1570) 
0.0051000000000000004

>  <r_epik_State_Penalty>  (1570) 
0.5736

>  <r_i_docking_score>  (1570) 
-4.3362481880888302

>  <r_i_glide_ecoul>  (1570) 
-10.175015449523899

>  <r_i_glide_eff_state_penalty>  (1570) 
0.5736

>  <r_i_glide_einternal>  (1570) 
7.2113780975341797

>  <r_i_glide_emodel>  (1570) 
-63.272428116235197

>  <r_i_glide_energy>  (1570) 
-46.395592689514203

>  <r_i_glide_erotb>  (1570) 
0.77688040092706601

>  <r_i_glide_esite>  (1570) 
-0.10000000000000001

>  <r_i_glide_evdw>  (1570) 
-36.220577239990199

>  <r_i_glide_gscore>  (1570) 
-4.9098481880888301

>  <r_i_glide_hbond>  (1570) 
-0.376137457417

>  <r_i_glide_ligand_efficiency>  (1570) 
-0.135507755877776

>  <r_i_glide_ligand_efficiency_ln>  (1570) 
-0.97100417097443803

>  <r_i_glide_ligand_efficiency_sa>  (1570) 
-0.43021030796346499

>  <r_i_glide_lipo>  (1570) 
-1.2885055112321

>  <r_i_glide_metal>  (1570) 
-0

>  <r_i_glide_rewards>  (1570) 
-0.58480444093869399

>  <r_lp_Energy>  (1570) 
26.060751

>  <r_lp_tautomer_probability>  (1570) 
0.999999999997365

>  <r_qp_ACxDN^.5/SA>  (1570) 
0.0148713

>  <r_qp_CIQPlogS>  (1570) 
-5.5890000000000004

>  <r_qp_EA(eV)>  (1570) 
1.1060000000000001

>  <r_qp_FISA>  (1570) 
115.773

>  <r_qp_FOSA>  (1570) 
122.274

>  <r_qp_IP(eV)>  (1570) 
8.5280000000000005

>  <r_qp_Jm>  (1570) 
0.034717563911423999

>  <r_qp_PISA>  (1570) 
431.65100000000001

>  <r_qp_PSA>  (1570) 
77.879000000000005

>  <r_qp_PercentHumanOralAbsorption>  (1570) 
90.603999999999999

>  <r_qp_QPPCaco>  (1570) 
197.208

>  <r_qp_QPPMDCK>  (1570) 
94.652000000000001

>  <r_qp_QPlogBB>  (1570) 
-0.57299999999999995

>  <r_qp_QPlogHERG>  (1570) 
-6.641

>  <r_qp_QPlogKhsa>  (1570) 
0.57999999999999996

>  <r_qp_QPlogKp>  (1570) 
-3.427

>  <r_qp_QPlogPC16>  (1570) 
14.731999999999999

>  <r_qp_QPlogPo/w>  (1570) 
3.8570000000000002

>  <r_qp_QPlogPoct>  (1570) 
23.190000000000001

>  <r_qp_QPlogPw>  (1570) 
13.347

>  <r_qp_QPlogS>  (1570) 
-3.657

>  <r_qp_QPpolrz>  (1570) 
44.512999999999998

>  <r_qp_SASA>  (1570) 
669.69799999999998

>  <r_qp_SAamideO>  (1570) 
0

>  <r_qp_SAfluorine>  (1570) 
0

>  <r_qp_WPSA>  (1570) 
0

>  <r_qp_accptHB>  (1570) 
5.75

>  <r_qp_dip^2/V>  (1570) 
0.049811399999999999

>  <r_qp_dipole>  (1570) 
8.0199999999999996

>  <r_qp_donorHB>  (1570) 
3

>  <r_qp_glob>  (1570) 
0.85636259999999997

>  <r_qp_mol_MW>  (1570) 
421.49799999999999

>  <r_qp_volume>  (1570) 
1291.3889999999999

>  <r_sd_BIOSOLVEIT.INFINISEE\_FTREES\_SIMILARITY>  (1570) 
0.90500000000000003

>  <r_sd_BIOSOLVEIT.LOGP>  (1570) 
3.8687999999999998

>  <r_sd_BIOSOLVEIT.MOLECULAR\_WEIGHT>  (1570) 
422.50599999999997

>  <r_sd_BIOSOLVEIT.TPSA>  (1570) 
78.829999999999998

>  <i_epik_Tot_Q>  (1570) 
1

>  <i_epik_Tot_abs_Q>  (1570) 
1

>  <i_f3d_flags>  (1570) 
0

>  <i_i_glide_confnum>  (1570) 
3

>  <i_i_glide_lignum>  (1570) 
1414

>  <i_i_glide_posenum>  (1570) 
20

>  <i_i_glide_rotatable_bonds>  (1570) 
9

>  <i_lp_mmshare_version>  (1570) 
65135

>  <i_m_ct_format>  (1570) 
2

>  <i_m_source_file_index>  (1570) 
2851

>  <i_qp_#NandO>  (1570) 
5

>  <i_qp_#acid>  (1570) 
0

>  <i_qp_#amide>  (1570) 
0

>  <i_qp_#amidine>  (1570) 
0

>  <i_qp_#amine>  (1570) 
1

>  <i_qp_#in34>  (1570) 
0

>  <i_qp_#in56>  (1570) 
22

>  <i_qp_#metab>  (1570) 
6

>  <i_qp_#nonHatm>  (1570) 
32

>  <i_qp_#noncon>  (1570) 
0

>  <i_qp_#ringatoms>  (1570) 
22

>  <i_qp_#rotor>  (1570) 
8

>  <i_qp_#rtvFG>  (1570) 
0

>  <i_qp_#stars>  (1570) 
0

>  <i_qp_CNS>  (1570) 
0

>  <i_qp_HumanOralAbsorption>  (1570) 
3

>  <i_qp_RuleOfFive>  (1570) 
0

>  <i_qp_RuleOfThree>  (1570) 
0

>  <i_sd_BIOSOLVEIT.INFINISEE\_RESULT\_RANK>  (1570) 
68899

>  <i_sd_version>  (1570) 
0

>  <b_lp_Chiralities_Consistent>  (1570) 
1

>  <b_sd_chiral_flag>  (1570) 
0

>  <canonical_id>  (1570) 
ATP-HTVS-F7366BF3987A

>  <compound_code>  (1570) 
91202

>  <title>  (1570) 
rxn503b____EMOL519605____EMOL30488121____EMOL1468452

>  <variant>  (1570) 
91202-3

>  <source_file>  (1570) 
运行/运行/ATP-VSW/ATP-VSW-DOCK_HTVS_1-002_lib.maegz

>  <canonical_smiles>  (1570) 
C[C@@H]([NH2+]CC#Cc1c(NC(=O)c2cccc(O)c2)cnc2ccccc12)c1ccccc1

>  <scaffold>  (1570) 
O=C(Nc1cnc2ccccc2c1C#CC[NH2+]Cc1ccccc1)c1ccccc1

>  <molecular_formula>  (1570) 
C27H24N3O2+

$$$$
ATP-HTVS-F7676420B267
     RDKit          3D

 63 66  0  0  0  0  0  0  0  0999 V2000
  195.8862  187.6906  160.9167 S   0  0  0  0  0  0  0  0  0  0  0  0
  195.8847  185.9864  160.3090 C   0  0  0  0  0  0  0  0  0  0  0  0
  197.1031  185.3198  160.1197 C   0  0  0  0  0  0  0  0  0  0  0  0
  197.1120  183.9891  159.6665 C   0  0  0  0  0  0  0  0  0  0  0  0
  195.9030  183.3373  159.3283 C   0  0  0  0  0  0  0  0  0  0  0  0
  194.6786  184.0178  159.5171 C   0  0  0  0  0  0  0  0  0  0  0  0
  194.6707  185.3291  160.0313 C   0  0  0  0  0  0  0  0  0  0  0  0
  195.9090  181.9563  158.6753 C   0  0  1  0  0  0  0  0  0  0  0  0
  197.0478  181.7447  157.6498 C   0  0  1  0  0  0  0  0  0  0  0  0
  197.0221  182.7137  156.4689 C   0  0  0  0  0  0  0  0  0  0  0  0
  196.9758  183.9297  156.6559 O   0  0  0  0  0  0  0  0  0  0  0  0
  197.1356  182.1485  155.2685 N   0  0  0  0  0  0  0  0  0  0  0  0
  197.3147  182.7567  153.9991 C   0  0  0  0  0  0  0  0  0  0  0  0
  197.6610  181.9241  152.9063 C   0  0  0  0  0  0  0  0  0  0  0  0
  197.9221  180.5532  153.0985 N   0  0  0  0  0  0  0  0  0  0  0  0
  199.0544  180.2358  153.9681 C   0  0  1  0  0  0  0  0  0  0  0  0
  199.5766  178.8320  153.7770 C   0  0  0  0  0  0  0  0  0  0  0  0
  199.8285  178.3365  152.4834 C   0  0  0  0  0  0  0  0  0  0  0  0
  200.3574  177.0445  152.3152 C   0  0  0  0  0  0  0  0  0  0  0  0
  200.6526  176.2419  153.4365 C   0  0  0  0  0  0  0  0  0  0  0  0
  201.2367  174.9920  153.2097 N   0  0  0  0  0  0  0  0  0  0  0  0
  201.8862  174.2797  154.3015 C   0  0  1  0  0  0  0  0  0  0  0  0
  202.9753  173.3360  153.7850 C   0  0  1  0  0  0  0  0  0  0  0  0
  203.5617  172.6368  154.8558 O   0  0  0  0  0  0  0  0  0  0  0  0
  200.3599  176.7280  154.7338 C   0  0  0  0  0  0  0  0  0  0  0  0
  199.8284  178.0198  154.9023 C   0  0  0  0  0  0  0  0  0  0  0  0
  197.7526  182.4974  151.6075 C   0  0  0  0  0  0  0  0  0  0  0  0
  197.5231  183.8879  151.4554 C   0  0  0  0  0  0  0  0  0  0  0  0
  197.2424  184.6433  152.5340 N   0  0  0  0  0  0  0  0  0  0  0  0
  197.1344  184.1434  153.7763 C   0  0  0  0  0  0  0  0  0  0  0  0
  197.5906  184.5007  150.1864 C   0  0  0  0  0  0  0  0  0  0  0  0
  197.8943  183.7224  149.0546 C   0  0  0  0  0  0  0  0  0  0  0  0
  198.1350  182.3437  149.1934 C   0  0  0  0  0  0  0  0  0  0  0  0
  198.0630  181.7303  150.4594 C   0  0  0  0  0  0  0  0  0  0  0  0
  197.1951  187.8976  160.7508 H   0  0  0  0  0  0  0  0  0  0  0  0
  198.0390  185.8247  160.3021 H   0  0  0  0  0  0  0  0  0  0  0  0
  198.0666  183.5124  159.5184 H   0  0  0  0  0  0  0  0  0  0  0  0
  193.7444  183.5477  159.2372 H   0  0  0  0  0  0  0  0  0  0  0  0
  193.7314  185.8456  160.1525 H   0  0  0  0  0  0  0  0  0  0  0  0
  195.9742  181.2129  159.4671 H   0  0  0  0  0  0  0  0  0  0  0  0
  194.9490  181.7740  158.1824 H   0  0  0  0  0  0  0  0  0  0  0  0
  198.0189  181.8443  158.1180 H   0  0  0  0  0  0  0  0  0  0  0  0
  197.0406  180.7114  157.2882 H   0  0  0  0  0  0  0  0  0  0  0  0
  197.2164  181.1399  155.2677 H   0  0  0  0  0  0  0  0  0  0  0  0
  197.9406  180.0026  152.2518 H   0  0  0  0  0  0  0  0  0  0  0  0
  199.8687  180.9305  153.7900 H   0  0  0  0  0  0  0  0  0  0  0  0
  198.7789  180.3156  155.0206 H   0  0  0  0  0  0  0  0  0  0  0  0
  199.6335  178.9470  151.6144 H   0  0  0  0  0  0  0  0  0  0  0  0
  200.5485  176.6883  151.3130 H   0  0  0  0  0  0  0  0  0  0  0  0
  201.5216  174.7626  152.2697 H   0  0  0  0  0  0  0  0  0  0  0  0
  202.3492  174.9802  154.9962 H   0  0  0  0  0  0  0  0  0  0  0  0
  201.1288  173.7180  154.8449 H   0  0  0  0  0  0  0  0  0  0  0  0
  202.5634  172.6082  153.0729 H   0  0  0  0  0  0  0  0  0  0  0  0
  203.7583  173.8980  153.2723 H   0  0  0  0  0  0  0  0  0  0  0  0
  203.5513  171.7057  154.6177 H   0  0  0  0  0  0  0  0  0  0  0  0
  200.5377  176.1343  155.6164 H   0  0  0  0  0  0  0  0  0  0  0  0
  199.6233  178.3833  155.8997 H   0  0  0  0  0  0  0  0  0  0  0  0
  196.8611  184.8790  154.5183 H   0  0  0  0  0  0  0  0  0  0  0  0
  197.4176  185.5621  150.0644 H   0  0  0  0  0  0  0  0  0  0  0  0
  197.9528  184.1815  148.0783 H   0  0  0  0  0  0  0  0  0  0  0  0
  198.3762  181.7470  148.3236 H   0  0  0  0  0  0  0  0  0  0  0  0
  198.2531  180.6717  150.5214 H   0  0  0  0  0  0  0  0  0  0  0  0
  197.0874  185.6451  152.4219 H   0  0  0  0  0  0  0  0  0  0  0  0
  1  2  1  0
  1 35  1  0
  2  3  1  0
  2  7  2  0
  3  4  2  0
  3 36  1  0
  4  5  1  0
  4 37  1  0
  5  6  2  0
  5  8  1  0
  6  7  1  0
  6 38  1  0
  7 39  1  0
  8  9  1  0
  8 40  1  1
  8 41  1  0
  9 10  1  0
  9 42  1  1
  9 43  1  0
 10 11  2  0
 10 12  1  0
 12 13  1  0
 12 44  1  0
 13 14  2  0
 13 30  1  0
 14 15  1  0
 14 27  1  0
 15 16  1  0
 15 45  1  0
 16 17  1  0
 16 46  1  6
 16 47  1  0
 17 18  1  0
 17 26  2  0
 18 19  2  0
 18 48  1  0
 19 20  1  0
 19 49  1  0
 20 21  1  0
 20 25  2  0
 21 22  1  0
 21 50  1  0
 22 23  1  0
 22 51  1  1
 22 52  1  0
 23 24  1  0
 23 53  1  6
 23 54  1  0
 24 55  1  0
 25 26  1  0
 25 56  1  0
 26 57  1  0
 27 28  1  0
 27 34  2  0
 28 29  1  0
 28 31  2  0
 29 30  2  0
 29 63  1  0
 30 58  1  0
 31 32  1  0
 31 59  1  0
 32 33  2  0
 32 60  1  0
 33 34  1  0
 33 61  1  0
 34 62  1  0
M  CHG  1  29   1
M  END
>  <s_epik_cmdline>  (1571) 
J2VwaWtfcHl0aG9uJywgJy1waCcsICc3LjAwMDAwMCcsICctcGh0JywgJzIuMDAwMDAwJywgJy1tcycsICcxNicsICctdG4nLCAnOCcsICctbWEnLCAnMjAwJywgJy1pbWFlJywgJzxpbmZpbGUubWFlPicsICctb21hZScsICc8b3V0ZmlsZS5tYWU+Jw==

>  <s_epik_input>  (1571) 
W1NIXWMxW2NIXVtjSF1jKFtjSF1bY0hdMSlbQ0gyXVtDSDJdQyg9TylbTkhdYyhbY0hdbmMoYzIzKVtjSF1bY0hdW2NIXVtjSF0zKWMyW05IXVtDSDJdYzRbY0hdW2NIXWMoW2NIXVtjSF00KVtOSF1bQ0gyXVtDSDJdW09IXQ==

>  <s_i_glide_gridfile>  (1571) 
ATP-Grid

>  <s_lp_Force_Field>  (1571) 
OPLS_2005

>  <s_lp_Variant>  (1571) 
rxn502b____EMOL6884260____EMOL30488121____EMOL324170366-2

>  <s_lp_label>  (1571) 
2570_sdstereoexpander_1_neutralizer_1_epik_2_stereoizer_1

>  <s_m_source_file>  (1571) 
ATP-VSW-LIGPREP-001-in.maegz

>  <s_sd_BIOSOLVEIT.INFINISEE\_QUERY\_NAME>  (1571) 
Ref-Lig

>  <s_sd_BIOSOLVEIT.INFINISEE\_QUERY\_SMILES>  (1571) 
S(c1nc2c(cc1C[NH2+]Cc3ccc(cc3)C[NH+](C)C)cccc2)Cc4ccccc4

>  <s_sd_BIOSOLVEIT.INFINISEE\_REACTION\_NAME>  (1571) 
rxn502b

>  <s_sd_BIOSOLVEIT.INFINISEE\_REAGENT1\_NAME>  (1571) 
EMOL6884260

>  <s_sd_BIOSOLVEIT.INFINISEE\_REAGENT1\_SMILES>  (1571) 
Sc1ccc(cc1)CCC(=O)O

>  <s_sd_BIOSOLVEIT.INFINISEE\_REAGENT2\_NAME>  (1571) 
EMOL30488121

>  <s_sd_BIOSOLVEIT.INFINISEE\_REAGENT2\_SMILES>  (1571) 
Brc1c(N)cnc2c1cccc2

>  <s_sd_BIOSOLVEIT.INFINISEE\_REAGENT3\_NAME>  (1571) 
EMOL324170366

>  <s_sd_BIOSOLVEIT.INFINISEE\_REAGENT3\_SMILES>  (1571) 
OCCNc1ccc(cc1)CN

>  <s_sd_BIOSOLVEIT.INFINISEE\_SPACE>  (1571) 
eXplore_7tr_2022-12

>  <s_vsw_compound_code>  (1571) 
82209

>  <s_vsw_variant>  (1571) 
82209-2

>  <r_epik_Charging_Adjusted_Penalty>  (1571) 
1.0821982262990599

>  <r_epik_Ionization_Penalty>  (1571) 
1.0648

>  <r_epik_Ionization_Penalty_Charging>  (1571) 
0.023900000000000001

>  <r_epik_Ionization_Penalty_Neutral>  (1571) 
1.0408999999999999

>  <r_epik_State_Penalty>  (1571) 
1.0583

>  <r_i_docking_score>  (1571) 
-3.8889398951929799

>  <r_i_glide_ecoul>  (1571) 
-11.1972465515137

>  <r_i_glide_eff_state_penalty>  (1571) 
1.0583

>  <r_i_glide_einternal>  (1571) 
6.3629279136657697

>  <r_i_glide_emodel>  (1571) 
-63.853948200808901

>  <r_i_glide_energy>  (1571) 
-48.277256011962898

>  <r_i_glide_erotb>  (1571) 
0.99201883855231199

>  <r_i_glide_esite>  (1571) 
-0.083801617119829405

>  <r_i_glide_evdw>  (1571) 
-37.080009460449197

>  <r_i_glide_gscore>  (1571) 
-4.9472398951929799

>  <r_i_glide_hbond>  (1571) 
-0.16

>  <r_i_glide_ligand_efficiency>  (1571) 
-0.114380585152735

>  <r_i_glide_ligand_efficiency_ln>  (1571) 
-0.85917590391736798

>  <r_i_glide_ligand_efficiency_sa>  (1571) 
-0.37054869306226101

>  <r_i_glide_lipo>  (1571) 
-1.6870783335552

>  <r_i_glide_metal>  (1571) 
-0

>  <r_i_glide_rewards>  (1571) 
-0.47479132732075002

>  <r_lp_Energy>  (1571) 
35.062880999999997

>  <r_qp_ACxDN^.5/SA>  (1571) 
0.023666599999999999

>  <r_qp_CIQPlogS>  (1571) 
-6.7430000000000003

>  <r_qp_EA(eV)>  (1571) 
0.98099999999999998

>  <r_qp_FISA>  (1571) 
133.654

>  <r_qp_FOSA>  (1571) 
105.133

>  <r_qp_IP(eV)>  (1571) 
8.5030000000000001

>  <r_qp_Jm>  (1571) 
0.68745860535160697

>  <r_qp_PISA>  (1571) 
410.74599999999998

>  <r_qp_PSA>  (1571) 
91.408000000000001

>  <r_qp_PercentHumanOralAbsorption>  (1571) 
100

>  <r_qp_QPPCaco>  (1571) 
535.13499999999999

>  <r_qp_QPPMDCK>  (1571) 
559.11699999999996

>  <r_qp_QPlogBB>  (1571) 
-1.246

>  <r_qp_QPlogHERG>  (1571) 
-5.9640000000000004

>  <r_qp_QPlogKhsa>  (1571) 
0.23899999999999999

>  <r_qp_QPlogKp>  (1571) 
-1.3839999999999999

>  <r_qp_QPlogPC16>  (1571) 
16.477

>  <r_qp_QPlogPo/w>  (1571) 
4.056

>  <r_qp_QPlogPoct>  (1571) 
27.358000000000001

>  <r_qp_QPlogPw>  (1571) 
17.126999999999999

>  <r_qp_QPlogS>  (1571) 
-4.4539999999999997

>  <r_qp_QPpolrz>  (1571) 
45.905000000000001

>  <r_qp_SASA>  (1571) 
712.81399999999996

>  <r_qp_SAamideO>  (1571) 
0

>  <r_qp_SAfluorine>  (1571) 
0

>  <r_qp_WPSA>  (1571) 
63.280999999999999

>  <r_qp_accptHB>  (1571) 
7.7000000000000002

>  <r_qp_dip^2/V>  (1571) 
0.032730500000000003

>  <r_qp_dipole>  (1571) 
6.758

>  <r_qp_donorHB>  (1571) 
4.7999999999999998

>  <r_qp_glob>  (1571) 
0.84717690000000001

>  <r_qp_mol_MW>  (1571) 
472.60399999999998

>  <r_qp_volume>  (1571) 
1395.3330000000001

>  <r_sd_BIOSOLVEIT.INFINISEE\_FTREES\_SIMILARITY>  (1571) 
0.91200000000000003

>  <r_sd_BIOSOLVEIT.LOGP>  (1571) 
5.4912999999999998

>  <r_sd_BIOSOLVEIT.MOLECULAR\_WEIGHT>  (1571) 
472.60899999999998

>  <r_sd_BIOSOLVEIT.TPSA>  (1571) 
86.280000000000001

>  <i_epik_Tot_Q>  (1571) 
1

>  <i_epik_Tot_abs_Q>  (1571) 
1

>  <i_f3d_flags>  (1571) 
0

>  <i_i_glide_confnum>  (1571) 
2

>  <i_i_glide_lignum>  (1571) 
1035

>  <i_i_glide_posenum>  (1571) 
5

>  <i_i_glide_rotatable_bonds>  (1571) 
13

>  <i_lp_mmshare_version>  (1571) 
65135

>  <i_m_ct_format>  (1571) 
2

>  <i_m_source_file_index>  (1571) 
2570

>  <i_qp_#NandO>  (1571) 
6

>  <i_qp_#acid>  (1571) 
0

>  <i_qp_#amide>  (1571) 
0

>  <i_qp_#amidine>  (1571) 
0

>  <i_qp_#amine>  (1571) 
0

>  <i_qp_#in34>  (1571) 
0

>  <i_qp_#in56>  (1571) 
22

>  <i_qp_#metab>  (1571) 
10

>  <i_qp_#nonHatm>  (1571) 
34

>  <i_qp_#noncon>  (1571) 
0

>  <i_qp_#ringatoms>  (1571) 
22

>  <i_qp_#rotor>  (1571) 
12

>  <i_qp_#rtvFG>  (1571) 
1

>  <i_qp_#stars>  (1571) 
1

>  <i_qp_CNS>  (1571) 
-2

>  <i_qp_HumanOralAbsorption>  (1571) 
1

>  <i_qp_RuleOfFive>  (1571) 
0

>  <i_qp_RuleOfThree>  (1571) 
1

>  <i_sd_BIOSOLVEIT.INFINISEE\_RESULT\_RANK>  (1571) 
37855

>  <i_sd_version>  (1571) 
0

>  <b_lp_Chiralities_Consistent>  (1571) 
1

>  <b_sd_chiral_flag>  (1571) 
0

>  <canonical_id>  (1571) 
ATP-HTVS-F7676420B267

>  <compound_code>  (1571) 
82209

>  <title>  (1571) 
rxn502b____EMOL6884260____EMOL30488121____EMOL324170366

>  <variant>  (1571) 
82209-2

>  <source_file>  (1571) 
运行/运行/ATP-VSW/ATP-VSW-DOCK_HTVS_1-001_lib/ATP-VSW-DOCK_HTVS_1-001_lib

>  <canonical_smiles>  (1571) 
O=C(CCc1ccc(S)cc1)Nc1c[nH+]c2ccccc2c1NCc1ccc(NCCO)cc1

>  <scaffold>  (1571) 
O=C(CCc1ccccc1)Nc1c[nH+]c2ccccc2c1NCc1ccccc1

>  <molecular_formula>  (1571) 
C27H29N4O2S+

$$$$
ATP-HTVS-F79E64AB5B06
     RDKit          3D

 44 47  0  0  0  0  0  0  0  0999 V2000
  200.0042  186.2368  148.3219 F   0  0  0  0  0  0  0  0  0  0  0  0
  199.0687  185.5101  148.9786 C   0  0  0  0  0  0  0  0  0  0  0  0
  199.0300  185.5168  150.3864 C   0  0  0  0  0  0  0  0  0  0  0  0
  198.0484  184.7701  151.0688 C   0  0  0  0  0  0  0  0  0  0  0  0
  197.1113  184.0159  150.3272 C   0  0  0  0  0  0  0  0  0  0  0  0
  197.1500  184.0128  148.9218 C   0  0  0  0  0  0  0  0  0  0  0  0
  198.1279  184.7631  148.2455 C   0  0  0  0  0  0  0  0  0  0  0  0
  197.9816  184.8061  152.5682 C   0  0  0  0  0  0  0  0  0  0  0  0
  198.2519  185.8464  153.1728 O   0  0  0  0  0  0  0  0  0  0  0  0
  197.6994  183.6197  153.1513 N   0  0  0  0  0  0  0  0  0  0  0  0
  197.4451  183.3150  154.5245 C   0  0  0  0  0  0  0  0  0  0  0  0
  197.3063  184.3067  155.4484 N   0  0  0  0  0  0  0  0  0  0  0  0
  197.0787  183.9782  156.7407 C   0  0  0  0  0  0  0  0  0  0  0  0
  196.9371  182.6336  157.1575 C   0  0  0  0  0  0  0  0  0  0  0  0
  196.9835  181.6279  156.2033 C   0  0  0  0  0  0  0  0  0  0  0  0
  197.3045  181.9179  154.8623 C   0  0  0  0  0  0  0  0  0  0  0  0
  197.4634  180.8720  153.9103 N   0  0  0  0  0  0  0  0  0  0  0  0
  196.7489  180.9180  152.7502 C   0  0  0  0  0  0  0  0  0  0  0  0
  196.1684  181.0108  151.7460 N   0  0  0  0  0  0  0  0  0  0  0  0
  198.3172  179.7673  154.1291 C   0  0  0  0  0  0  0  0  0  0  0  0
  199.2079  179.3694  153.0877 C   0  0  0  0  0  0  0  0  0  0  0  0
  200.0842  178.2698  153.2813 C   0  0  0  0  0  0  0  0  0  0  0  0
  200.1083  177.5717  154.5152 C   0  0  0  0  0  0  0  0  0  0  0  0
  199.2237  177.9675  155.5343 C   0  0  0  0  0  0  0  0  0  0  0  0
  198.3282  179.0096  155.3240 C   0  0  0  0  0  0  0  0  0  0  0  0
  196.7241  182.2852  158.5045 C   0  0  0  0  0  0  0  0  0  0  0  0
  196.5965  183.2917  159.4747 C   0  0  0  0  0  0  0  0  0  0  0  0
  196.6902  184.6406  159.0856 C   0  0  0  0  0  0  0  0  0  0  0  0
  196.9314  184.9732  157.7308 C   0  0  0  0  0  0  0  0  0  0  0  0
  199.7513  186.1056  150.9356 H   0  0  0  0  0  0  0  0  0  0  0  0
  196.3317  183.4665  150.8293 H   0  0  0  0  0  0  0  0  0  0  0  0
  196.4207  183.4460  148.3647 H   0  0  0  0  0  0  0  0  0  0  0  0
  198.1502  184.7689  147.1658 H   0  0  0  0  0  0  0  0  0  0  0  0
  197.6291  182.8261  152.5296 H   0  0  0  0  0  0  0  0  0  0  0  0
  196.7233  180.6744  156.5861 H   0  0  0  0  0  0  0  0  0  0  0  0
  199.2298  179.8917  152.1241 H   0  0  0  0  0  0  0  0  0  0  0  0
  200.7673  177.9491  152.4853 H   0  0  0  0  0  0  0  0  0  0  0  0
  200.7687  176.7161  154.6894 H   0  0  0  0  0  0  0  0  0  0  0  0
  199.1846  177.4600  156.4793 H   0  0  0  0  0  0  0  0  0  0  0  0
  197.6626  179.1005  156.1410 H   0  0  0  0  0  0  0  0  0  0  0  0
  196.6543  181.2456  158.7945 H   0  0  0  0  0  0  0  0  0  0  0  0
  196.4270  183.0208  160.5148 H   0  0  0  0  0  0  0  0  0  0  0  0
  196.5856  185.4137  159.8233 H   0  0  0  0  0  0  0  0  0  0  0  0
  196.9881  186.0208  157.4243 H   0  0  0  0  0  0  0  0  0  0  0  0
  1  2  1  0
  2  3  2  0
  2  7  1  0
  3  4  1  0
  3 30  1  0
  4  5  2  0
  4  8  1  0
  5  6  1  0
  5 31  1  0
  6  7  2  0
  6 32  1  0
  7 33  1  0
  8  9  2  0
  8 10  1  0
 10 11  1  0
 10 34  1  0
 11 12  2  0
 11 16  1  0
 12 13  1  0
 13 14  1  0
 13 29  2  0
 14 15  1  0
 14 26  2  0
 15 16  2  0
 15 35  1  0
 16 17  1  0
 17 18  1  0
 17 20  1  0
 18 19  3  0
 20 21  2  0
 20 25  1  0
 21 22  1  0
 21 36  1  0
 22 23  2  0
 22 37  1  0
 23 24  1  0
 23 38  1  0
 24 25  2  0
 24 39  1  0
 25 40  1  0
 26 27  1  0
 26 41  1  0
 27 28  2  0
 27 42  1  0
 28 29  1  0
 28 43  1  0
 29 44  1  0
M  END
>  <s_epik_cmdline>  (1572) 
J2VwaWtfcHl0aG9uJywgJy1waCcsICc3LjAwMDAwMCcsICctcGh0JywgJzIuMDAwMDAwJywgJy1tcycsICcxNicsICctdG4nLCAnOCcsICctbWEnLCAnMjAwJywgJy1pbWFlJywgJzxpbmZpbGUubWFlPicsICctb21hZScsICc8b3V0ZmlsZS5tYWU+Jw==

>  <s_epik_input>  (1572) 
RmMxW2NIXWMoW2NIXVtjSF1bY0hdMSlDKD1PKVtOSF1jKG4yKWMoW2NIXWMoYzIzKVtjSF1bY0hdW2NIXVtjSF0zKU4oQyNOKWM0W2NIXVtjSF1bY0hdW2NIXVtjSF00

>  <s_i_glide_gridfile>  (1572) 
ATP-Grid

>  <s_lp_Force_Field>  (1572) 
OPLS_2005

>  <s_lp_Variant>  (1572) 
rxn502b____EMOL511643____EMOL44466703____EMOL36822768-1

>  <s_lp_label>  (1572) 
2938_sdstereoexpander_1_neutralizer_1_epik_1_stereoizer_1

>  <s_m_source_file>  (1572) 
ATP-VSW-LIGPREP-002-in.maegz

>  <s_sd_BIOSOLVEIT.INFINISEE\_QUERY\_NAME>  (1572) 
Ref-Lig

>  <s_sd_BIOSOLVEIT.INFINISEE\_QUERY\_SMILES>  (1572) 
S(c1nc2c(cc1C[NH2+]Cc3ccc(cc3)C[NH+](C)C)cccc2)Cc4ccccc4

>  <s_sd_BIOSOLVEIT.INFINISEE\_REACTION\_NAME>  (1572) 
rxn502b

>  <s_sd_BIOSOLVEIT.INFINISEE\_REAGENT1\_NAME>  (1572) 
EMOL511643

>  <s_sd_BIOSOLVEIT.INFINISEE\_REAGENT1\_SMILES>  (1572) 
Fc1cc(ccc1)C(=O)O

>  <s_sd_BIOSOLVEIT.INFINISEE\_REAGENT2\_NAME>  (1572) 
EMOL44466703

>  <s_sd_BIOSOLVEIT.INFINISEE\_REAGENT2\_SMILES>  (1572) 
Brc1c(nc2c(c1)cccc2)N

>  <s_sd_BIOSOLVEIT.INFINISEE\_REAGENT3\_NAME>  (1572) 
EMOL36822768

>  <s_sd_BIOSOLVEIT.INFINISEE\_REAGENT3\_SMILES>  (1572) 
N#CNc1ccccc1

>  <s_sd_BIOSOLVEIT.INFINISEE\_SPACE>  (1572) 
eXplore_7tr_2022-12

>  <s_vsw_compound_code>  (1572) 
93986

>  <s_vsw_variant>  (1572) 
93986-1

>  <r_epik_Charging_Adjusted_Penalty>  (1572) 
0

>  <r_epik_Ionization_Penalty>  (1572) 
0.0001

>  <r_epik_Ionization_Penalty_Charging>  (1572) 
0

>  <r_epik_Ionization_Penalty_Neutral>  (1572) 
0.0001

>  <r_epik_State_Penalty>  (1572) 
-0

>  <r_i_docking_score>  (1572) 
-3.3371675149966702

>  <r_i_glide_ecoul>  (1572) 
-2.2685794830322301

>  <r_i_glide_eff_state_penalty>  (1572) 
-0

>  <r_i_glide_einternal>  (1572) 
3.4324829578399698

>  <r_i_glide_emodel>  (1572) 
-41.441608769491602

>  <r_i_glide_energy>  (1572) 
-35.3752956390381

>  <r_i_glide_erotb>  (1572) 
0.66409722755152101

>  <r_i_glide_esite>  (1572) 
-0.032582590032057997

>  <r_i_glide_evdw>  (1572) 
-33.106716156005902

>  <r_i_glide_gscore>  (1572) 
-3.3371675149966702

>  <r_i_glide_hbond>  (1572) 
0

>  <r_i_glide_ligand_efficiency>  (1572) 
-0.115074741896437

>  <r_i_glide_ligand_efficiency_ln>  (1572) 
-0.76412673766755301

>  <r_i_glide_ligand_efficiency_sa>  (1572) 
-0.353546065343048

>  <r_i_glide_lipo>  (1572) 
-1.0302172338737301

>  <r_i_glide_metal>  (1572) 
-0

>  <r_i_glide_rewards>  (1572) 
-0.94284218838727596

>  <r_lp_Energy>  (1572) 
30.057987000000001

>  <r_lp_tautomer_probability>  (1572) 
1

>  <r_qp_ACxDN^.5/SA>  (1572) 
0.0081761999999999998

>  <r_qp_CIQPlogS>  (1572) 
-6.1079999999999997

>  <r_qp_EA(eV)>  (1572) 
1.335

>  <r_qp_FISA>  (1572) 
105.087

>  <r_qp_FOSA>  (1572) 
0

>  <r_qp_IP(eV)>  (1572) 
8.9220000000000006

>  <r_qp_Jm>  (1572) 
0.035449327861237001

>  <r_qp_PISA>  (1572) 
520.69899999999996

>  <r_qp_PSA>  (1572) 
72.231999999999999

>  <r_qp_PercentHumanOralAbsorption>  (1572) 
100

>  <r_qp_QPPCaco>  (1572) 
998.524

>  <r_qp_QPPMDCK>  (1572) 
892.447

>  <r_qp_QPlogBB>  (1572) 
-0.69699999999999995

>  <r_qp_QPlogHERG>  (1572) 
-7.1289999999999996

>  <r_qp_QPlogKhsa>  (1572) 
0.56100000000000005

>  <r_qp_QPlogKp>  (1572) 
-1.1419999999999999

>  <r_qp_QPlogPC16>  (1572) 
13.622999999999999

>  <r_qp_QPlogPo/w>  (1572) 
4.508

>  <r_qp_QPlogPoct>  (1572) 
19.556999999999999

>  <r_qp_QPlogPw>  (1572) 
11.390000000000001

>  <r_qp_QPlogS>  (1572) 
-5.891

>  <r_qp_QPpolrz>  (1572) 
43.255000000000003

>  <r_qp_SASA>  (1572) 
672.68799999999999

>  <r_qp_SAamideO>  (1572) 
0

>  <r_qp_SAfluorine>  (1572) 
46.901000000000003

>  <r_qp_WPSA>  (1572) 
46.901000000000003

>  <r_qp_accptHB>  (1572) 
5.5

>  <r_qp_dip^2/V>  (1572) 
0.024870099999999999

>  <r_qp_dipole>  (1572) 
5.4409999999999998

>  <r_qp_donorHB>  (1572) 
1

>  <r_qp_glob>  (1572) 
0.80759029999999998

>  <r_qp_mol_MW>  (1572) 
382.39600000000002

>  <r_qp_volume>  (1572) 
1190.5820000000001

>  <r_sd_BIOSOLVEIT.INFINISEE\_FTREES\_SIMILARITY>  (1572) 
0.90400000000000003

>  <r_sd_BIOSOLVEIT.LOGP>  (1572) 
5.2453799999999999

>  <r_sd_BIOSOLVEIT.MOLECULAR\_WEIGHT>  (1572) 
382.39699999999999

>  <r_sd_BIOSOLVEIT.TPSA>  (1572) 
69.019999999999996

>  <i_epik_Tot_Q>  (1572) 
0

>  <i_epik_Tot_abs_Q>  (1572) 
0

>  <i_f3d_flags>  (1572) 
0

>  <i_i_glide_confnum>  (1572) 
3

>  <i_i_glide_lignum>  (1572) 
3

>  <i_i_glide_posenum>  (1572) 
19

>  <i_i_glide_rotatable_bonds>  (1572) 
5

>  <i_lp_mmshare_version>  (1572) 
65135

>  <i_m_ct_format>  (1572) 
2

>  <i_m_source_file_index>  (1572) 
2938

>  <i_qp_#NandO>  (1572) 
5

>  <i_qp_#acid>  (1572) 
0

>  <i_qp_#amide>  (1572) 
0

>  <i_qp_#amidine>  (1572) 
0

>  <i_qp_#amine>  (1572) 
0

>  <i_qp_#in34>  (1572) 
0

>  <i_qp_#in56>  (1572) 
22

>  <i_qp_#metab>  (1572) 
1

>  <i_qp_#nonHatm>  (1572) 
29

>  <i_qp_#noncon>  (1572) 
0

>  <i_qp_#ringatoms>  (1572) 
22

>  <i_qp_#rotor>  (1572) 
5

>  <i_qp_#rtvFG>  (1572) 
0

>  <i_qp_#stars>  (1572) 
1

>  <i_qp_CNS>  (1572) 
0

>  <i_qp_HumanOralAbsorption>  (1572) 
3

>  <i_qp_RuleOfFive>  (1572) 
0

>  <i_qp_RuleOfThree>  (1572) 
1

>  <i_sd_BIOSOLVEIT.INFINISEE\_RESULT\_RANK>  (1572) 
78921

>  <i_sd_version>  (1572) 
0

>  <b_lp_Chiralities_Consistent>  (1572) 
1

>  <b_sd_chiral_flag>  (1572) 
0

>  <canonical_id>  (1572) 
ATP-HTVS-F79E64AB5B06

>  <compound_code>  (1572) 
93986

>  <title>  (1572) 
rxn502b____EMOL511643____EMOL44466703____EMOL36822768

>  <variant>  (1572) 
93986-1

>  <source_file>  (1572) 
运行/运行/ATP-VSW/ATP-VSW-DOCK_HTVS_1-003_lib/ATP-VSW-DOCK_HTVS_1-003_lib.mae

>  <canonical_smiles>  (1572) 
N#CN(c1ccccc1)c1cc2ccccc2nc1NC(=O)c1cccc(F)c1

>  <scaffold>  (1572) 
O=C(Nc1nc2ccccc2cc1Nc1ccccc1)c1ccccc1

>  <molecular_formula>  (1572) 
C23H15FN4O

$$$$
ATP-HTVS-F7B411FBCEC8
     RDKit          3D

 45 48  0  0  0  0  0  0  0  0999 V2000
  199.1761  190.9494  156.5263 Br  0  0  0  0  0  0  0  0  0  0  0  0
  198.3201  189.8468  157.8201 C   0  0  0  0  0  0  0  0  0  0  0  0
  197.7307  190.4028  158.9716 C   0  0  0  0  0  0  0  0  0  0  0  0
  197.1040  189.5721  159.9193 C   0  0  0  0  0  0  0  0  0  0  0  0
  196.3011  190.3497  161.4652 Br  0  0  0  0  0  0  0  0  0  0  0  0
  197.0856  188.1685  159.7229 C   0  0  0  0  0  0  0  0  0  0  0  0
  197.6876  187.6126  158.5596 C   0  0  0  0  0  0  0  0  0  0  0  0
  198.2980  188.4526  157.6275 C   0  0  0  0  0  0  0  0  0  0  0  0
  197.6990  186.1414  158.2567 C   0  0  1  0  0  0  0  0  0  0  0  0
  198.3779  185.3489  159.2837 N   0  0  0  0  0  0  0  0  0  0  0  0
  198.1625  183.8923  159.1697 C   0  0  2  0  0  0  0  0  0  0  0  0
  198.9399  183.2917  157.9792 C   0  0  0  0  0  0  0  0  0  0  0  0
  200.3583  183.1667  158.0427 C   0  0  0  0  0  0  0  0  0  0  0  0
  201.1121  183.6416  159.1434 N   0  0  0  0  0  0  0  0  0  0  0  0
  200.8921  184.7944  159.8120 C   0  0  0  0  0  0  0  0  0  0  0  0
  201.5538  185.0953  160.8030 O   0  0  0  0  0  0  0  0  0  0  0  0
  199.8172  185.7656  159.2701 C   0  0  1  0  0  0  0  0  0  0  0  0
  201.0566  182.5231  156.9885 C   0  0  0  0  0  0  0  0  0  0  0  0
  200.3599  182.0122  155.8730 C   0  0  0  0  0  0  0  0  0  0  0  0
  198.9691  182.1627  155.7905 C   0  0  0  0  0  0  0  0  0  0  0  0
  198.2830  182.8342  156.8172 C   0  0  0  0  0  0  0  0  0  0  0  0
  196.6631  183.5030  159.2426 C   0  0  0  0  0  0  0  0  0  0  0  0
  196.2260  182.2289  158.8187 C   0  0  0  0  0  0  0  0  0  0  0  0
  194.8364  181.9812  158.6346 C   0  0  0  0  0  0  0  0  0  0  0  0
  193.9032  182.9844  158.9129 C   0  0  0  0  0  0  0  0  0  0  0  0
  194.3098  184.2169  159.4203 C   0  0  0  0  0  0  0  0  0  0  0  0
  195.6951  184.4435  159.6688 C   0  0  0  0  0  0  0  0  0  0  0  0
  197.7642  191.4652  159.1217 H   0  0  0  0  0  0  0  0  0  0  0  0
  196.5896  187.5480  160.4523 H   0  0  0  0  0  0  0  0  0  0  0  0
  198.7405  188.0119  156.7385 H   0  0  0  0  0  0  0  0  0  0  0  0
  196.6110  185.9776  158.1452 H   0  0  0  0  0  0  0  0  0  0  0  0
  198.0673  185.8926  157.2777 H   0  0  0  0  0  0  0  0  0  0  0  0
  198.5481  183.4078  160.0716 H   0  0  0  0  0  0  0  0  0  0  0  0
  201.9367  183.1183  159.4151 H   0  0  0  0  0  0  0  0  0  0  0  0
  200.1282  185.9759  158.2433 H   0  0  0  0  0  0  0  0  0  0  0  0
  199.9402  186.7189  159.7899 H   0  0  0  0  0  0  0  0  0  0  0  0
  202.1367  182.4231  157.0155 H   0  0  0  0  0  0  0  0  0  0  0  0
  200.8847  181.5183  155.0580 H   0  0  0  0  0  0  0  0  0  0  0  0
  198.3997  181.7596  154.9691 H   0  0  0  0  0  0  0  0  0  0  0  0
  197.2172  182.9293  156.6785 H   0  0  0  0  0  0  0  0  0  0  0  0
  196.9098  181.4545  158.5215 H   0  0  0  0  0  0  0  0  0  0  0  0
  194.5236  181.0148  158.2321 H   0  0  0  0  0  0  0  0  0  0  0  0
  192.8481  182.7957  158.7570 H   0  0  0  0  0  0  0  0  0  0  0  0
  193.6177  185.0044  159.6114 H   0  0  0  0  0  0  0  0  0  0  0  0
  195.9492  185.4025  160.0571 H   0  0  0  0  0  0  0  0  0  0  0  0
  1  2  1  0
  2  3  1  0
  2  8  2  0
  3  4  2  0
  3 28  1  0
  4  5  1  0
  4  6  1  0
  6  7  2  0
  6 29  1  0
  7  8  1  0
  7  9  1  0
  8 30  1  0
  9 10  1  0
  9 31  1  6
  9 32  1  0
 10 11  1  0
 10 17  1  0
 11 12  1  0
 11 22  1  0
 11 33  1  1
 12 13  1  0
 12 21  2  0
 13 14  1  0
 13 18  2  0
 14 15  1  0
 14 34  1  0
 15 16  2  0
 15 17  1  0
 17 35  1  6
 17 36  1  0
 18 19  1  0
 18 37  1  0
 19 20  2  0
 19 38  1  0
 20 21  1  0
 20 39  1  0
 21 40  1  0
 22 23  2  0
 22 27  1  0
 23 24  1  0
 23 41  1  0
 24 25  2  0
 24 42  1  0
 25 26  1  0
 25 43  1  0
 26 27  2  0
 26 44  1  0
 27 45  1  0
M  END
>  <s_epik_cmdline>  (1573) 
J2VwaWtfcHl0aG9uJywgJy1waCcsICc3LjAwMDAwMCcsICctcGh0JywgJzIuMDAwMDAwJywgJy1tcycsICcxNicsICctdG4nLCAnOCcsICctbWEnLCAnMjAwJywgJy1pbWFlJywgJzxpbmZpbGUubWFlPicsICctb21hZScsICc8b3V0ZmlsZS5tYWU+Jw==

>  <s_epik_input>  (1573) 
QnJjMVtjSF1jKEJyKVtjSF1jKFtjSF0xKVtDSDJdTihbQ0BIXTJjM1tjSF1bY0hdW2NIXVtjSF1bY0hdMylbQ0gyXUMoPU8pW05IXWMoYzI0KVtjSF1bY0hdW2NIXVtjSF00

>  <s_i_glide_gridfile>  (1573) 
ATP-Grid

>  <s_lp_Force_Field>  (1573) 
OPLS_2005

>  <s_lp_Variant>  (1573) 
m_270004bda____24170338____10266226-2

>  <s_lp_label>  (1573) 
1041_sdstereoexpander_3_neutralizer_1_epik_1_stereoizer_1

>  <s_m_source_file>  (1573) 
ATP-VSW-LIGPREP-003-in.maegz

>  <s_sd_BIOSOLVEIT.INFINISEE\_QUERY\_NAME>  (1573) 
Ref-Lig

>  <s_sd_BIOSOLVEIT.INFINISEE\_QUERY\_SMILES>  (1573) 
S(c1nc2c(cc1C[NH2+]Cc3ccc(cc3)C[NH+](C)C)cccc2)Cc4ccccc4

>  <s_sd_BIOSOLVEIT.INFINISEE\_REACTION\_NAME>  (1573) 
m_270004bda

>  <s_sd_BIOSOLVEIT.INFINISEE\_REAGENT1\_SMILES>  (1573) 
[R1*]N1C(c2c(NC(=O)C1)cccc2)c3ccccc3

>  <s_sd_BIOSOLVEIT.INFINISEE\_REAGENT2\_SMILES>  (1573) 
[R1*]Cc1cc(Br)cc(Br)c1

>  <s_sd_BIOSOLVEIT.INFINISEE\_SPACE>  (1573) 
REALSpace_44bn_2023-08

>  <s_vsw_compound_code>  (1573) 
33283

>  <s_vsw_variant>  (1573) 
33283-2

>  <r_epik_Charging_Adjusted_Penalty>  (1573) 
0.0087634984339075902

>  <r_epik_Ionization_Penalty>  (1573) 
0.0088000000000000005

>  <r_epik_Ionization_Penalty_Charging>  (1573) 
0

>  <r_epik_Ionization_Penalty_Neutral>  (1573) 
0.0088000000000000005

>  <r_epik_State_Penalty>  (1573) 
0.0088000000000000005

>  <r_i_docking_score>  (1573) 
-1.20724597120847

>  <r_i_glide_ecoul>  (1573) 
-1.2093878984451301

>  <r_i_glide_eff_state_penalty>  (1573) 
0.0088000000000000005

>  <r_i_glide_einternal>  (1573) 
6.4809727668762198

>  <r_i_glide_emodel>  (1573) 
-34.994115749444397

>  <r_i_glide_energy>  (1573) 
-35.526019215583801

>  <r_i_glide_erotb>  (1573) 
0.25788614399545901

>  <r_i_glide_esite>  (1573) 
0

>  <r_i_glide_evdw>  (1573) 
-34.3166313171387

>  <r_i_glide_gscore>  (1573) 
-1.2160459712084699

>  <r_i_glide_hbond>  (1573) 
0

>  <r_i_glide_ligand_efficiency>  (1573) 
-0.044712813748461901

>  <r_i_glide_ligand_efficiency_ln>  (1573) 
-0.28102695909199199

>  <r_i_glide_ligand_efficiency_sa>  (1573) 
-0.13413844109802001

>  <r_i_glide_lipo>  (1573) 
-1.25795606843277

>  <r_i_glide_metal>  (1573) 
-0

>  <r_i_glide_rewards>  (1573) 
1.68126370385254

>  <r_lp_Energy>  (1573) 
50.126674000000001

>  <r_qp_ACxDN^.5/SA>  (1573) 
0.0069037999999999999

>  <r_qp_CIQPlogS>  (1573) 
-7.2329999999999997

>  <r_qp_EA(eV)>  (1573) 
0.67800000000000005

>  <r_qp_FISA>  (1573) 
61.326000000000001

>  <r_qp_FOSA>  (1573) 
43.021999999999998

>  <r_qp_IP(eV)>  (1573) 
9.5229999999999997

>  <r_qp_Jm>  (1573) 
0.00083083889958618698

>  <r_qp_PISA>  (1573) 
392.76299999999998

>  <r_qp_PSA>  (1573) 
40.694000000000003

>  <r_qp_PercentHumanOralAbsorption>  (1573) 
100

>  <r_qp_QPPCaco>  (1573) 
647.51300000000003

>  <r_qp_QPPMDCK>  (1573) 
2408.0340000000001

>  <r_qp_QPlogBB>  (1573) 
0.622

>  <r_qp_QPlogHERG>  (1573) 
-6.9459999999999997

>  <r_qp_QPlogKhsa>  (1573) 
0.85399999999999998

>  <r_qp_QPlogKp>  (1573) 
-3.137

>  <r_qp_QPlogPC16>  (1573) 
13.648

>  <r_qp_QPlogPo/w>  (1573) 
4.8730000000000002

>  <r_qp_QPlogPoct>  (1573) 
19.212

>  <r_qp_QPlogPw>  (1573) 
9.8870000000000005

>  <r_qp_QPlogS>  (1573) 
-5.6310000000000002

>  <r_qp_QPpolrz>  (1573) 
43.328000000000003

>  <r_qp_SASA>  (1573) 
651.81200000000001

>  <r_qp_SAamideO>  (1573) 
0

>  <r_qp_SAfluorine>  (1573) 
0

>  <r_qp_WPSA>  (1573) 
154.70099999999999

>  <r_qp_accptHB>  (1573) 
4.5

>  <r_qp_dip^2/V>  (1573) 
0.016744599999999998

>  <r_qp_dipole>  (1573) 
4.4349999999999996

>  <r_qp_donorHB>  (1573) 
1

>  <r_qp_glob>  (1573) 
0.82606659999999998

>  <r_qp_mol_MW>  (1573) 
486.20499999999998

>  <r_qp_volume>  (1573) 
1174.7840000000001

>  <r_sd_BIOSOLVEIT.INFINISEE\_FTREES\_SIMILARITY>  (1573) 
0.91500000000000004

>  <r_sd_BIOSOLVEIT.LOGP>  (1573) 
4.3381999999999996

>  <r_sd_BIOSOLVEIT.MOLECULAR\_WEIGHT>  (1573) 
487.21300000000002

>  <r_sd_BIOSOLVEIT.TPSA>  (1573) 
33.539999999999999

>  <i_epik_Tot_Q>  (1573) 
0

>  <i_epik_Tot_abs_Q>  (1573) 
0

>  <i_f3d_flags>  (1573) 
0

>  <i_i_glide_confnum>  (1573) 
3

>  <i_i_glide_lignum>  (1573) 
396

>  <i_i_glide_posenum>  (1573) 
8

>  <i_i_glide_rotatable_bonds>  (1573) 
3

>  <i_lp_mmshare_version>  (1573) 
65135

>  <i_m_ct_format>  (1573) 
2

>  <i_m_source_file_index>  (1573) 
1041

>  <i_qp_#NandO>  (1573) 
3

>  <i_qp_#acid>  (1573) 
0

>  <i_qp_#amide>  (1573) 
0

>  <i_qp_#amidine>  (1573) 
0

>  <i_qp_#amine>  (1573) 
1

>  <i_qp_#in34>  (1573) 
0

>  <i_qp_#in56>  (1573) 
18

>  <i_qp_#metab>  (1573) 
7

>  <i_qp_#nonHatm>  (1573) 
27

>  <i_qp_#noncon>  (1573) 
2

>  <i_qp_#ringatoms>  (1573) 
23

>  <i_qp_#rotor>  (1573) 
2

>  <i_qp_#rtvFG>  (1573) 
0

>  <i_qp_#stars>  (1573) 
0

>  <i_qp_CNS>  (1573) 
2

>  <i_qp_HumanOralAbsorption>  (1573) 
3

>  <i_qp_RuleOfFive>  (1573) 
0

>  <i_qp_RuleOfThree>  (1573) 
1

>  <i_sd_BIOSOLVEIT.INFINISEE\_REAGENT1\_NAME>  (1573) 
24170338

>  <i_sd_BIOSOLVEIT.INFINISEE\_REAGENT2\_NAME>  (1573) 
10266226

>  <i_sd_BIOSOLVEIT.INFINISEE\_RESULT\_RANK>  (1573) 
29010

>  <i_sd_version>  (1573) 
0

>  <b_lp_Chiralities_Consistent>  (1573) 
1

>  <b_sd_chiral_flag>  (1573) 
0

>  <canonical_id>  (1573) 
ATP-HTVS-F7B411FBCEC8

>  <compound_code>  (1573) 
33283

>  <title>  (1573) 
m_270004bda____24170338____10266226

>  <variant>  (1573) 
33283-2

>  <source_file>  (1573) 
运行/运行/ATP-VSW/ATP-VSW-DOCK_HTVS_1-003_lib/ATP-VSW-DOCK_HTVS_1-003_lib.mae

>  <canonical_smiles>  (1573) 
O=C1CN(Cc2cc(Br)cc(Br)c2)[C@@H](c2ccccc2)c2ccccc2N1

>  <scaffold>  (1573) 
O=C1CN(Cc2ccccc2)C(c2ccccc2)c2ccccc2N1

>  <molecular_formula>  (1573) 
C22H18Br2N2O

$$$$
ATP-HTVS-F7CD2DD67DA6
     RDKit          3D

 68 72  0  0  0  0  0  0  0  0999 V2000
  199.2419  188.8800  154.7983 O   0  0  0  0  0  0  0  0  0  0  0  0
  199.5046  187.6899  154.6874 C   0  0  0  0  0  0  0  0  0  0  0  0
  199.0489  186.7176  155.5074 N   0  0  0  0  0  0  0  0  0  0  0  0
  198.1103  186.7669  156.5773 C   0  0  0  0  0  0  0  0  0  0  0  0
  197.6735  185.5498  157.1770 C   0  0  0  0  0  0  0  0  0  0  0  0
  198.1302  184.3160  156.6687 N   0  0  0  0  0  0  0  0  0  0  0  0
  199.0664  183.6092  157.5281 C   0  0  1  0  0  0  0  0  0  0  0  0
  199.4221  182.2390  156.9921 C   0  0  0  0  0  0  0  0  0  0  0  0
  200.7501  181.9589  156.6260 C   0  0  0  0  0  0  0  0  0  0  0  0
  201.1063  180.6750  156.1626 C   0  0  0  0  0  0  0  0  0  0  0  0
  200.1316  179.6624  156.0588 C   0  0  0  0  0  0  0  0  0  0  0  0
  198.7956  179.9445  156.4240 C   0  0  0  0  0  0  0  0  0  0  0  0
  198.4427  181.2263  156.8871 C   0  0  0  0  0  0  0  0  0  0  0  0
  200.5105  178.2674  155.5811 C   0  0  1  0  0  0  0  0  0  0  0  0
  201.1428  177.4482  156.6474 N   0  0  1  0  0  0  0  0  0  0  0  0
  200.2467  177.1985  157.7964 C   0  0  2  0  0  0  0  0  0  0  0  0
  201.7101  176.1898  156.1145 C   0  0  2  0  0  0  0  0  0  0  0  0
  196.7775  185.6017  158.2836 C   0  0  0  0  0  0  0  0  0  0  0  0
  196.3806  186.8652  158.7841 C   0  0  0  0  0  0  0  0  0  0  0  0
  196.8137  187.9879  158.1802 N   0  0  0  0  0  0  0  0  0  0  0  0
  197.6430  187.9908  157.1208 C   0  0  0  0  0  0  0  0  0  0  0  0
  195.5514  186.9740  159.9182 C   0  0  0  0  0  0  0  0  0  0  0  0
  195.0675  185.8110  160.5370 C   0  0  0  0  0  0  0  0  0  0  0  0
  195.4297  184.5454  160.0399 C   0  0  0  0  0  0  0  0  0  0  0  0
  196.2565  184.4365  158.9092 C   0  0  0  0  0  0  0  0  0  0  0  0
  200.4203  187.2110  153.5560 C   0  0  1  0  0  0  0  0  0  0  0  0
  199.8462  187.5138  152.1491 C   0  0  1  0  0  0  0  0  0  0  0  0
  198.9905  186.3872  151.5663 C   0  0  0  0  0  0  0  0  0  0  0  0
  199.0811  186.0850  150.1794 C   0  0  0  0  0  0  0  0  0  0  0  0
  198.2705  185.0541  149.6727 C   0  0  0  0  0  0  0  0  0  0  0  0
  198.1395  184.6123  148.3942 O   0  0  0  0  0  0  0  0  0  0  0  0
  197.1888  183.5793  148.4415 C   0  0  1  0  0  0  0  0  0  0  0  0
  196.7444  183.4187  149.7613 O   0  0  0  0  0  0  0  0  0  0  0  0
  197.4283  184.3300  150.4916 C   0  0  0  0  0  0  0  0  0  0  0  0
  197.3333  184.5776  151.8638 C   0  0  0  0  0  0  0  0  0  0  0  0
  198.0947  185.6396  152.3832 C   0  0  0  0  0  0  0  0  0  0  0  0
  199.3471  185.7876  155.2371 H   0  0  0  0  0  0  0  0  0  0  0  0
  198.3783  184.2798  155.6930 H   0  0  0  0  0  0  0  0  0  0  0  0
  199.9655  184.2125  157.6365 H   0  0  0  0  0  0  0  0  0  0  0  0
  198.6862  183.4582  158.5346 H   0  0  0  0  0  0  0  0  0  0  0  0
  201.5053  182.7229  156.7216 H   0  0  0  0  0  0  0  0  0  0  0  0
  202.1380  180.4769  155.8988 H   0  0  0  0  0  0  0  0  0  0  0  0
  198.0389  179.1720  156.3856 H   0  0  0  0  0  0  0  0  0  0  0  0
  197.4198  181.4024  157.1972 H   0  0  0  0  0  0  0  0  0  0  0  0
  199.6342  177.7495  155.1859 H   0  0  0  0  0  0  0  0  0  0  0  0
  201.1999  178.3858  154.7406 H   0  0  0  0  0  0  0  0  0  0  0  0
  199.3686  176.6418  157.4701 H   0  0  0  0  0  0  0  0  0  0  0  0
  199.9202  178.1236  158.2662 H   0  0  0  0  0  0  0  0  0  0  0  0
  200.7520  176.6306  158.5706 H   0  0  0  0  0  0  0  0  0  0  0  0
  200.9373  175.5637  155.6622 H   0  0  0  0  0  0  0  0  0  0  0  0
  202.1883  175.6136  156.9092 H   0  0  0  0  0  0  0  0  0  0  0  0
  202.4693  176.3965  155.3570 H   0  0  0  0  0  0  0  0  0  0  0  0
  197.8960  188.9780  156.7589 H   0  0  0  0  0  0  0  0  0  0  0  0
  195.2635  187.9403  160.3083 H   0  0  0  0  0  0  0  0  0  0  0  0
  194.4108  185.8925  161.3955 H   0  0  0  0  0  0  0  0  0  0  0  0
  195.0573  183.6469  160.5154 H   0  0  0  0  0  0  0  0  0  0  0  0
  196.4834  183.4440  158.5412 H   0  0  0  0  0  0  0  0  0  0  0  0
  201.3504  187.7733  153.6826 H   0  0  0  0  0  0  0  0  0  0  0  0
  200.7059  186.1696  153.6474 H   0  0  0  0  0  0  0  0  0  0  0  0
  199.2809  188.4422  152.1361 H   0  0  0  0  0  0  0  0  0  0  0  0
  200.6888  187.6947  151.4841 H   0  0  0  0  0  0  0  0  0  0  0  0
  199.7334  186.6301  149.5109 H   0  0  0  0  0  0  0  0  0  0  0  0
  196.3460  183.8393  147.8014 H   0  0  0  0  0  0  0  0  0  0  0  0
  197.6555  182.6460  148.1226 H   0  0  0  0  0  0  0  0  0  0  0  0
  196.6574  184.0264  152.5002 H   0  0  0  0  0  0  0  0  0  0  0  0
  197.9396  185.8570  153.4194 H   0  0  0  0  0  0  0  0  0  0  0  0
  196.5171  188.8879  158.5688 H   0  0  0  0  0  0  0  0  0  0  0  0
  201.9318  177.9806  156.9911 H   0  0  0  0  0  0  0  0  0  0  0  0
  1  2  2  0
  2  3  1  0
  2 26  1  0
  3  4  1  0
  3 37  1  0
  4  5  2  0
  4 21  1  0
  5  6  1  0
  5 18  1  0
  6  7  1  0
  6 38  1  0
  7  8  1  0
  7 39  1  1
  7 40  1  0
  8  9  1  0
  8 13  2  0
  9 10  2  0
  9 41  1  0
 10 11  1  0
 10 42  1  0
 11 12  2  0
 11 14  1  0
 12 13  1  0
 12 43  1  0
 13 44  1  0
 14 15  1  0
 14 45  1  6
 14 46  1  0
 15 16  1  0
 15 17  1  0
 15 68  1  1
 16 47  1  6
 16 48  1  0
 16 49  1  0
 17 50  1  6
 17 51  1  0
 17 52  1  0
 18 19  1  0
 18 25  2  0
 19 20  1  0
 19 22  2  0
 20 21  2  0
 20 67  1  0
 21 53  1  0
 22 23  1  0
 22 54  1  0
 23 24  2  0
 23 55  1  0
 24 25  1  0
 24 56  1  0
 25 57  1  0
 26 27  1  0
 26 58  1  1
 26 59  1  0
 27 28  1  0
 27 60  1  1
 27 61  1  0
 28 29  2  0
 28 36  1  0
 29 30  1  0
 29 62  1  0
 30 31  1  0
 30 34  2  0
 31 32  1  0
 32 33  1  0
 32 63  1  6
 32 64  1  0
 33 34  1  0
 34 35  1  0
 35 36  2  0
 35 65  1  0
 36 66  1  0
M  CHG  2  15   1  20   1
M  END
>  <s_epik_Chemistry_Notes>  (1574) 
This compound contains an acetal/aminal-like group ( X-CH(R)-Y where X, Y are N, S, or O) that may be acid/base labile, releasing an aldehyde.

>  <s_epik_cmdline>  (1574) 
J2VwaWtfcHl0aG9uJywgJy1waCcsICc3LjAwMDAwMCcsICctcGh0JywgJzIuMDAwMDAwJywgJy1tcycsICcxNicsICctdG4nLCAnOCcsICctbWEnLCAnMjAwJywgJy1pbWFlJywgJzxpbmZpbGUubWFlPicsICctb21hZScsICc8b3V0ZmlsZS5tYWU+Jw==

>  <s_epik_input>  (1574) 
TzFbQ0gyXU9jKGMxMilbY0hdW2NIXWMoW2NIXTIpW0NIMl1bQ0gyXUMoPU8pW05IXWMoW2NIXW5jKGMzNClbY0hdW2NIXVtjSF1bY0hdNCljM1tOSF1bQ0gyXWM1W2NIXVtjSF1jKFtjSF1bY0hdNSlbQ0gyXU4oW0NIM10pW0NIM10=

>  <s_i_glide_gridfile>  (1574) 
ATP-Grid

>  <s_lp_Force_Field>  (1574) 
OPLS_2005

>  <s_lp_Variant>  (1574) 
rxn502b____EMOL527362____EMOL30488121____EMOL50155899-1

>  <s_lp_label>  (1574) 
2578_sdstereoexpander_1_neutralizer_1_epik_1_stereoizer_1

>  <s_m_source_file>  (1574) 
ATP-VSW-LIGPREP-003-in.maegz

>  <s_sd_BIOSOLVEIT.INFINISEE\_QUERY\_NAME>  (1574) 
Ref-Lig

>  <s_sd_BIOSOLVEIT.INFINISEE\_QUERY\_SMILES>  (1574) 
S(c1nc2c(cc1C[NH2+]Cc3ccc(cc3)C[NH+](C)C)cccc2)Cc4ccccc4

>  <s_sd_BIOSOLVEIT.INFINISEE\_REACTION\_NAME>  (1574) 
rxn502b

>  <s_sd_BIOSOLVEIT.INFINISEE\_REAGENT1\_NAME>  (1574) 
EMOL527362

>  <s_sd_BIOSOLVEIT.INFINISEE\_REAGENT1\_SMILES>  (1574) 
O=C(O)CCc1cc2OCOc2cc1

>  <s_sd_BIOSOLVEIT.INFINISEE\_REAGENT2\_NAME>  (1574) 
EMOL30488121

>  <s_sd_BIOSOLVEIT.INFINISEE\_REAGENT2\_SMILES>  (1574) 
Brc1c(N)cnc2c1cccc2

>  <s_sd_BIOSOLVEIT.INFINISEE\_REAGENT3\_NAME>  (1574) 
EMOL50155899

>  <s_sd_BIOSOLVEIT.INFINISEE\_REAGENT3\_SMILES>  (1574) 
N(Cc1ccc(cc1)CN)(C)C

>  <s_sd_BIOSOLVEIT.INFINISEE\_SPACE>  (1574) 
eXplore_7tr_2022-12

>  <s_vsw_compound_code>  (1574) 
82467

>  <s_vsw_variant>  (1574) 
82467-1

>  <r_epik_Charging_Adjusted_Penalty>  (1574) 
0.126233856224819

>  <r_epik_Ionization_Penalty>  (1574) 
0.063100000000000003

>  <r_epik_Ionization_Penalty_Charging>  (1574) 
0.063100000000000003

>  <r_epik_Ionization_Penalty_Neutral>  (1574) 
0

>  <r_epik_State_Penalty>  (1574) 
0.063100000000000003

>  <r_i_docking_score>  (1574) 
-5.0741463924172097

>  <r_i_glide_ecoul>  (1574) 
-9.2953386306762695

>  <r_i_glide_eff_state_penalty>  (1574) 
0.063100000000000003

>  <r_i_glide_einternal>  (1574) 
4.8853697776794398

>  <r_i_glide_emodel>  (1574) 
-64.283905083470103

>  <r_i_glide_energy>  (1574) 
-45.699170112609899

>  <r_i_glide_erotb>  (1574) 
0.69188076633612405

>  <r_i_glide_esite>  (1574) 
-0.00071577727111699703

>  <r_i_glide_evdw>  (1574) 
-36.403831481933601

>  <r_i_glide_gscore>  (1574) 
-5.13724639241721

>  <r_i_glide_hbond>  (1574) 
0

>  <r_i_glide_ligand_efficiency>  (1574) 
-0.140948510900478

>  <r_i_glide_ligand_efficiency_ln>  (1574) 
-1.1070416552323299

>  <r_i_glide_ligand_efficiency_sa>  (1574) 
-0.46540172827748399

>  <r_i_glide_lipo>  (1574) 
-2.0308828072581302

>  <r_i_glide_metal>  (1574) 
-0

>  <r_i_glide_rewards>  (1574) 
-0.58303620552596003

>  <r_lp_Energy>  (1574) 
50.631726999999998

>  <r_lp_tautomer_probability>  (1574) 
1

>  <r_qp_ACxDN^.5/SA>  (1574) 
0.013639500000000001

>  <r_qp_CIQPlogS>  (1574) 
-6.1589999999999998

>  <r_qp_EA(eV)>  (1574) 
1.02

>  <r_qp_FISA>  (1574) 
60.756

>  <r_qp_FOSA>  (1574) 
341.79000000000002

>  <r_qp_IP(eV)>  (1574) 
8.5549999999999997

>  <r_qp_Jm>  (1574) 
0.0053360770420170598

>  <r_qp_PISA>  (1574) 
426.935

>  <r_qp_PSA>  (1574) 
79.753

>  <r_qp_PercentHumanOralAbsorption>  (1574) 
100

>  <r_qp_QPPCaco>  (1574) 
655.61400000000003

>  <r_qp_QPPMDCK>  (1574) 
346.77499999999998

>  <r_qp_QPlogBB>  (1574) 
-0.25700000000000001

>  <r_qp_QPlogHERG>  (1574) 
-7.9539999999999997

>  <r_qp_QPlogKhsa>  (1574) 
0.75700000000000001

>  <r_qp_QPlogKp>  (1574) 
-2.3340000000000001

>  <r_qp_QPlogPC16>  (1574) 
16.486000000000001

>  <r_qp_QPlogPo/w>  (1574) 
4.9329999999999998

>  <r_qp_QPlogPoct>  (1574) 
25.446999999999999

>  <r_qp_QPlogPw>  (1574) 
13.856999999999999

>  <r_qp_QPlogS>  (1574) 
-5.6230000000000002

>  <r_qp_QPpolrz>  (1574) 
53.338999999999999

>  <r_qp_SASA>  (1574) 
829.48099999999999

>  <r_qp_SAamideO>  (1574) 
0

>  <r_qp_SAfluorine>  (1574) 
0

>  <r_qp_WPSA>  (1574) 
0

>  <r_qp_accptHB>  (1574) 
8

>  <r_qp_dip^2/V>  (1574) 
0.049855299999999998

>  <r_qp_dipole>  (1574) 
8.7309999999999999

>  <r_qp_donorHB>  (1574) 
2

>  <r_qp_glob>  (1574) 
0.77383570000000002

>  <r_qp_mol_MW>  (1574) 
482.58100000000002

>  <r_qp_volume>  (1574) 
1529.097

>  <r_sd_BIOSOLVEIT.INFINISEE\_FTREES\_SIMILARITY>  (1574) 
0.91200000000000003

>  <r_sd_BIOSOLVEIT.LOGP>  (1574) 
3.7913999999999999

>  <r_sd_BIOSOLVEIT.MOLECULAR\_WEIGHT>  (1574) 
483.589

>  <r_sd_BIOSOLVEIT.TPSA>  (1574) 
76.920000000000002

>  <i_epik_Tot_Q>  (1574) 
2

>  <i_epik_Tot_abs_Q>  (1574) 
2

>  <i_f3d_flags>  (1574) 
0

>  <i_i_glide_confnum>  (1574) 
1

>  <i_i_glide_lignum>  (1574) 
1157

>  <i_i_glide_posenum>  (1574) 
5

>  <i_i_glide_rotatable_bonds>  (1574) 
10

>  <i_lp_mmshare_version>  (1574) 
65135

>  <i_m_ct_format>  (1574) 
2

>  <i_m_source_file_index>  (1574) 
2578

>  <i_qp_#NandO>  (1574) 
7

>  <i_qp_#acid>  (1574) 
0

>  <i_qp_#amide>  (1574) 
0

>  <i_qp_#amidine>  (1574) 
0

>  <i_qp_#amine>  (1574) 
1

>  <i_qp_#in34>  (1574) 
0

>  <i_qp_#in56>  (1574) 
25

>  <i_qp_#metab>  (1574) 
8

>  <i_qp_#nonHatm>  (1574) 
36

>  <i_qp_#noncon>  (1574) 
1

>  <i_qp_#ringatoms>  (1574) 
25

>  <i_qp_#rotor>  (1574) 
9

>  <i_qp_#rtvFG>  (1574) 
1

>  <i_qp_#stars>  (1574) 
0

>  <i_qp_CNS>  (1574) 
1

>  <i_qp_HumanOralAbsorption>  (1574) 
3

>  <i_qp_RuleOfFive>  (1574) 
0

>  <i_qp_RuleOfThree>  (1574) 
1

>  <i_sd_BIOSOLVEIT.INFINISEE\_RESULT\_RANK>  (1574) 
38818

>  <i_sd_version>  (1574) 
0

>  <b_lp_Chiralities_Consistent>  (1574) 
1

>  <b_sd_chiral_flag>  (1574) 
0

>  <canonical_id>  (1574) 
ATP-HTVS-F7CD2DD67DA6

>  <compound_code>  (1574) 
82467

>  <title>  (1574) 
rxn502b____EMOL527362____EMOL30488121____EMOL50155899

>  <variant>  (1574) 
82467-1

>  <source_file>  (1574) 
运行/运行/ATP-VSW/ATP-VSW-DOCK_HTVS_1-003_lib/ATP-VSW-DOCK_HTVS_1-003_lib.mae

>  <canonical_smiles>  (1574) 
C[NH+](C)Cc1ccc(CNc2c(NC(=O)CCc3ccc4c(c3)OCO4)c[nH+]c3ccccc23)cc1

>  <scaffold>  (1574) 
O=C(CCc1ccc2c(c1)OCO2)Nc1c[nH+]c2ccccc2c1NCc1ccccc1

>  <molecular_formula>  (1574) 
C29H32N4O3+2

$$$$
ATP-HTVS-F7D4BFA34903
     RDKit          3D

 60 62  0  0  0  0  0  0  0  0999 V2000
  203.5746  182.6347  158.0111 Cl  0  0  0  0  0  0  0  0  0  0  0  0
  201.8582  182.8480  158.0553 C   0  0  0  0  0  0  0  0  0  0  0  0
  201.2350  183.3629  159.2103 C   0  0  0  0  0  0  0  0  0  0  0  0
  199.8293  183.5123  159.2394 C   0  0  0  0  0  0  0  0  0  0  0  0
  199.0328  183.1729  158.1135 C   0  0  0  0  0  0  0  0  0  0  0  0
  199.6740  182.7170  156.9376 C   0  0  0  0  0  0  0  0  0  0  0  0
  201.0746  182.5301  156.9251 C   0  0  0  0  0  0  0  0  0  0  0  0
  197.5562  183.2508  158.1968 C   0  0  0  0  0  0  0  0  0  0  0  0
  197.0120  184.0652  159.0903 N   0  0  0  0  0  0  0  0  0  0  0  0
  195.6753  183.9238  158.9637 N   0  0  0  0  0  0  0  0  0  0  0  0
  195.3737  183.0045  157.9831 C   0  0  0  0  0  0  0  0  0  0  0  0
  196.5523  182.5353  157.4608 C   0  0  0  0  0  0  0  0  0  0  0  0
  196.6975  181.5030  156.3640 C   0  0  1  0  0  0  0  0  0  0  0  0
  196.3590  182.0917  155.0513 N   0  0  1  0  0  0  0  0  0  0  0  0
  196.7985  181.2808  153.9020 C   0  0  1  0  0  0  0  0  0  0  0  0
  196.5282  181.9578  152.5448 C   0  0  1  0  0  0  0  0  0  0  0  0
  197.1465  181.1783  151.3959 C   0  0  0  0  0  0  0  0  0  0  0  0
  196.8192  179.8185  151.2161 C   0  0  0  0  0  0  0  0  0  0  0  0
  197.4505  179.0688  150.2026 C   0  0  0  0  0  0  0  0  0  0  0  0
  198.3601  179.6816  149.3175 C   0  0  0  0  0  0  0  0  0  0  0  0
  198.6744  181.0513  149.4885 C   0  0  0  0  0  0  0  0  0  0  0  0
  198.0726  181.7916  150.5260 C   0  0  0  0  0  0  0  0  0  0  0  0
  198.9771  178.8675  148.1862 C   0  0  1  0  0  0  0  0  0  0  0  0
  198.0723  178.7113  147.0072 N   0  0  1  0  0  0  0  0  0  0  0  0
  198.7464  178.0507  145.8671 C   0  0  2  0  0  0  0  0  0  0  0  0
  196.7781  178.0449  147.3114 C   0  0  2  0  0  0  0  0  0  0  0  0
  194.7572  184.6601  159.8192 C   0  0  1  0  0  0  0  0  0  0  0  0
  195.3893  185.8540  160.5544 C   0  0  1  0  0  0  0  0  0  0  0  0
  194.4565  186.4852  161.5005 C   0  0  0  0  0  0  0  0  0  0  0  0
  193.7246  186.9758  162.2482 N   0  0  0  0  0  0  0  0  0  0  0  0
  195.3534  182.2448  155.0157 H   0  0  0  0  0  0  0  0  0  0  0  0
  201.8287  183.6463  160.0713 H   0  0  0  0  0  0  0  0  0  0  0  0
  199.3749  183.8937  160.1432 H   0  0  0  0  0  0  0  0  0  0  0  0
  199.0903  182.4672  156.0513 H   0  0  0  0  0  0  0  0  0  0  0  0
  201.5498  182.1320  156.0420 H   0  0  0  0  0  0  0  0  0  0  0  0
  194.3522  182.7543  157.7349 H   0  0  0  0  0  0  0  0  0  0  0  0
  197.7273  181.1085  156.3450 H   0  0  0  0  0  0  0  0  0  0  0  0
  195.9972  180.6662  156.4906 H   0  0  0  0  0  0  0  0  0  0  0  0
  197.8702  181.1046  153.9939 H   0  0  0  0  0  0  0  0  0  0  0  0
  196.3220  180.3003  153.9633 H   0  0  0  0  0  0  0  0  0  0  0  0
  195.4604  182.0446  152.3566 H   0  0  0  0  0  0  0  0  0  0  0  0
  196.9184  182.9785  152.5390 H   0  0  0  0  0  0  0  0  0  0  0  0
  196.0872  179.3330  151.8445 H   0  0  0  0  0  0  0  0  0  0  0  0
  197.2147  178.0237  150.1210 H   0  0  0  0  0  0  0  0  0  0  0  0
  199.3787  181.5433  148.8293 H   0  0  0  0  0  0  0  0  0  0  0  0
  198.3373  182.8320  150.6615 H   0  0  0  0  0  0  0  0  0  0  0  0
  199.8972  179.3642  147.8669 H   0  0  0  0  0  0  0  0  0  0  0  0
  199.2829  177.8873  148.5616 H   0  0  0  0  0  0  0  0  0  0  0  0
  199.0749  177.0448  146.1364 H   0  0  0  0  0  0  0  0  0  0  0  0
  199.6172  178.6157  145.5323 H   0  0  0  0  0  0  0  0  0  0  0  0
  198.0679  177.9593  145.0175 H   0  0  0  0  0  0  0  0  0  0  0  0
  196.9818  177.0601  147.7298 H   0  0  0  0  0  0  0  0  0  0  0  0
  196.1577  177.9256  146.4155 H   0  0  0  0  0  0  0  0  0  0  0  0
  196.1738  178.6030  148.0295 H   0  0  0  0  0  0  0  0  0  0  0  0
  193.9357  185.0201  159.2016 H   0  0  0  0  0  0  0  0  0  0  0  0
  194.3370  183.9561  160.5355 H   0  0  0  0  0  0  0  0  0  0  0  0
  196.2571  185.5377  161.1284 H   0  0  0  0  0  0  0  0  0  0  0  0
  195.7325  186.6086  159.8465 H   0  0  0  0  0  0  0  0  0  0  0  0
  196.7861  183.0032  154.9719 H   0  0  0  0  0  0  0  0  0  0  0  0
  197.8472  179.6463  146.6984 H   0  0  0  0  0  0  0  0  0  0  0  0
  1  2  1  0
  2  3  1  0
  2  7  2  0
  3  4  2  0
  3 32  1  0
  4  5  1  0
  4 33  1  0
  5  6  2  0
  5  8  1  0
  6  7  1  0
  6 34  1  0
  7 35  1  0
  8  9  2  0
  8 12  1  0
  9 10  1  0
 10 11  1  0
 10 27  1  0
 11 12  2  0
 11 36  1  0
 12 13  1  0
 13 14  1  0
 13 37  1  6
 13 38  1  0
 14 15  1  0
 14 31  1  1
 14 59  1  0
 15 16  1  0
 15 39  1  1
 15 40  1  0
 16 17  1  0
 16 41  1  6
 16 42  1  0
 17 18  1  0
 17 22  2  0
 18 19  2  0
 18 43  1  0
 19 20  1  0
 19 44  1  0
 20 21  2  0
 20 23  1  0
 21 22  1  0
 21 45  1  0
 22 46  1  0
 23 24  1  0
 23 47  1  6
 23 48  1  0
 24 25  1  0
 24 26  1  0
 24 60  1  6
 25 49  1  1
 25 50  1  0
 25 51  1  0
 26 52  1  1
 26 53  1  0
 26 54  1  0
 27 28  1  0
 27 55  1  6
 27 56  1  0
 28 29  1  0
 28 57  1  1
 28 58  1  0
 29 30  3  0
M  CHG  2  14   1  24   1
M  END
>  <s_epik_cmdline>  (1575) 
J2VwaWtfcHl0aG9uJywgJy1waCcsICc3LjAwMDAwMCcsICctcGh0JywgJzIuMDAwMDAwJywgJy1tcycsICcxNicsICctdG4nLCAnOCcsICctbWEnLCAnMjAwJywgJy1pbWFlJywgJzxpbmZpbGUubWFlPicsICctb21hZScsICc8b3V0ZmlsZS5tYWU+Jw==

>  <s_epik_input>  (1575) 
Q2xjMVtjSF1bY0hdYyhbY0hdW2NIXTEpLWMybm4oW0NIMl1bQ0gyXUMjTilbY0hdYzJbQ0gyXVtOSF1bQ0gyXVtDSDJdYzNbY0hdW2NIXWMoW2NIXVtjSF0zKVtDSDJdTihbQ0gzXSlbQ0gzXQ==

>  <s_i_glide_gridfile>  (1575) 
ATP-Grid

>  <s_lp_Force_Field>  (1575) 
OPLS_2005

>  <s_lp_Variant>  (1575) 
m_270004bbb____15775648____24714838-1

>  <s_lp_label>  (1575) 
1233_sdstereoexpander_1_neutralizer_1_epik_1_stereoizer_1

>  <s_m_source_file>  (1575) 
ATP-VSW-LIGPREP-001-in.maegz

>  <s_sd_BIOSOLVEIT.INFINISEE\_QUERY\_NAME>  (1575) 
Ref-Lig

>  <s_sd_BIOSOLVEIT.INFINISEE\_QUERY\_SMILES>  (1575) 
S(c1nc2c(cc1C[NH2+]Cc3ccc(cc3)C[NH+](C)C)cccc2)Cc4ccccc4

>  <s_sd_BIOSOLVEIT.INFINISEE\_REACTION\_NAME>  (1575) 
m_270004bbb

>  <s_sd_BIOSOLVEIT.INFINISEE\_REAGENT1\_SMILES>  (1575) 
[R1*]NCCc1ccc(cc1)CN(C)C

>  <s_sd_BIOSOLVEIT.INFINISEE\_REAGENT2\_SMILES>  (1575) 
[R1*]CC=1C(=NN(C1)CCC#N)c2ccc(Cl)cc2

>  <s_sd_BIOSOLVEIT.INFINISEE\_SPACE>  (1575) 
REALSpace_44bn_2023-08

>  <s_vsw_compound_code>  (1575) 
39425

>  <s_vsw_variant>  (1575) 
39425-1

>  <r_epik_Charging_Adjusted_Penalty>  (1575) 
0.10555957296370901

>  <r_epik_Ionization_Penalty>  (1575) 
0.053600000000000002

>  <r_epik_Ionization_Penalty_Charging>  (1575) 
0.053600000000000002

>  <r_epik_Ionization_Penalty_Neutral>  (1575) 
0

>  <r_epik_State_Penalty>  (1575) 
0.051999999999999998

>  <r_i_docking_score>  (1575) 
-4.96526412391853

>  <r_i_glide_ecoul>  (1575) 
-12.5146675109863

>  <r_i_glide_eff_state_penalty>  (1575) 
0.051999999999999998

>  <r_i_glide_einternal>  (1575) 
1.9031742811203001

>  <r_i_glide_emodel>  (1575) 
-64.177880791482096

>  <r_i_glide_energy>  (1575) 
-43.760116577148402

>  <r_i_glide_erotb>  (1575) 
0.88225426498176196

>  <r_i_glide_esite>  (1575) 
-0.075518964881042094

>  <r_i_glide_evdw>  (1575) 
-31.245449066162099

>  <r_i_glide_gscore>  (1575) 
-5.0172641239185296

>  <r_i_glide_hbond>  (1575) 
-0.20000000000000001

>  <r_i_glide_ligand_efficiency>  (1575) 
-0.165508804130618

>  <r_i_glide_ligand_efficiency_ln>  (1575) 
-1.12816210984006

>  <r_i_glide_ligand_efficiency_sa>  (1575) 
-0.51427433563315605

>  <r_i_glide_lipo>  (1575) 
-1.1363057319215899

>  <r_i_glide_metal>  (1575) 
-0

>  <r_i_glide_rewards>  (1575) 
-1.0482211121416001

>  <r_lp_Energy>  (1575) 
17.519442999999999

>  <r_lp_tautomer_probability>  (1575) 
1

>  <r_qp_ACxDN^.5/SA>  (1575) 
0.0086434000000000007

>  <r_qp_CIQPlogS>  (1575) 
-5.1139999999999999

>  <r_qp_EA(eV)>  (1575) 
0.26000000000000001

>  <r_qp_FISA>  (1575) 
102.498

>  <r_qp_FOSA>  (1575) 
343.67599999999999

>  <r_qp_IP(eV)>  (1575) 
9.0180000000000007

>  <r_qp_Jm>  (1575) 
1.7111965673718001e-05

>  <r_qp_PISA>  (1575) 
250.56200000000001

>  <r_qp_PSA>  (1575) 
60.070999999999998

>  <r_qp_PercentHumanOralAbsorption>  (1575) 
83.087000000000003

>  <r_qp_QPPCaco>  (1575) 
65.721999999999994

>  <r_qp_QPPMDCK>  (1575) 
64.128

>  <r_qp_QPlogBB>  (1575) 
-0.17000000000000001

>  <r_qp_QPlogHERG>  (1575) 
-7.391

>  <r_qp_QPlogKhsa>  (1575) 
0.68400000000000005

>  <r_qp_QPlogKp>  (1575) 
-5.6909999999999998

>  <r_qp_QPlogPC16>  (1575) 
14.288

>  <r_qp_QPlogPo/w>  (1575) 
4.032

>  <r_qp_QPlogPoct>  (1575) 
20.306000000000001

>  <r_qp_QPlogPw>  (1575) 
9.6110000000000007

>  <r_qp_QPlogS>  (1575) 
-4.7009999999999996

>  <r_qp_QPpolrz>  (1575) 
45.503999999999998

>  <r_qp_SASA>  (1575) 
752.02200000000005

>  <r_qp_SAamideO>  (1575) 
0

>  <r_qp_SAfluorine>  (1575) 
0

>  <r_qp_WPSA>  (1575) 
55.286000000000001

>  <r_qp_accptHB>  (1575) 
6.5

>  <r_qp_dip^2/V>  (1575) 
0.021846500000000001

>  <r_qp_dipole>  (1575) 
5.5129999999999999

>  <r_qp_donorHB>  (1575) 
1

>  <r_qp_glob>  (1575) 
0.80152120000000004

>  <r_qp_mol_MW>  (1575) 
421.97199999999998

>  <r_qp_volume>  (1575) 
1391.4590000000001

>  <r_sd_BIOSOLVEIT.INFINISEE\_FTREES\_SIMILARITY>  (1575) 
0.91100000000000003

>  <r_sd_BIOSOLVEIT.LOGP>  (1575) 
2.06778

>  <r_sd_BIOSOLVEIT.MOLECULAR\_WEIGHT>  (1575) 
423.98899999999998

>  <r_sd_BIOSOLVEIT.TPSA>  (1575) 
62.659999999999997

>  <i_epik_Tot_Q>  (1575) 
2

>  <i_epik_Tot_abs_Q>  (1575) 
2

>  <i_f3d_flags>  (1575) 
0

>  <i_i_glide_confnum>  (1575) 
6

>  <i_i_glide_lignum>  (1575) 
335

>  <i_i_glide_posenum>  (1575) 
6

>  <i_i_glide_rotatable_bonds>  (1575) 
10

>  <i_lp_mmshare_version>  (1575) 
65135

>  <i_m_ct_format>  (1575) 
2

>  <i_m_source_file_index>  (1575) 
1233

>  <i_qp_#NandO>  (1575) 
5

>  <i_qp_#acid>  (1575) 
0

>  <i_qp_#amide>  (1575) 
0

>  <i_qp_#amidine>  (1575) 
0

>  <i_qp_#amine>  (1575) 
2

>  <i_qp_#in34>  (1575) 
0

>  <i_qp_#in56>  (1575) 
17

>  <i_qp_#metab>  (1575) 
6

>  <i_qp_#nonHatm>  (1575) 
30

>  <i_qp_#noncon>  (1575) 
0

>  <i_qp_#ringatoms>  (1575) 
17

>  <i_qp_#rotor>  (1575) 
10

>  <i_qp_#rtvFG>  (1575) 
0

>  <i_qp_#stars>  (1575) 
0

>  <i_qp_CNS>  (1575) 
1

>  <i_qp_HumanOralAbsorption>  (1575) 
3

>  <i_qp_RuleOfFive>  (1575) 
0

>  <i_qp_RuleOfThree>  (1575) 
0

>  <i_sd_BIOSOLVEIT.INFINISEE\_REAGENT1\_NAME>  (1575) 
15775648

>  <i_sd_BIOSOLVEIT.INFINISEE\_REAGENT2\_NAME>  (1575) 
24714838

>  <i_sd_BIOSOLVEIT.INFINISEE\_RESULT\_RANK>  (1575) 
42436

>  <i_sd_version>  (1575) 
0

>  <b_lp_Chiralities_Consistent>  (1575) 
1

>  <b_sd_chiral_flag>  (1575) 
0

>  <canonical_id>  (1575) 
ATP-HTVS-F7D4BFA34903

>  <compound_code>  (1575) 
39425

>  <title>  (1575) 
m_270004bbb____15775648____24714838

>  <variant>  (1575) 
39425-1

>  <source_file>  (1575) 
运行/运行/ATP-VSW/ATP-VSW-DOCK_HTVS_1-001_lib/ATP-VSW-DOCK_HTVS_1-001_lib

>  <canonical_smiles>  (1575) 
C[NH+](C)Cc1ccc(CC[NH2+]Cc2cn(CCC#N)nc2-c2ccc(Cl)cc2)cc1

>  <scaffold>  (1575) 
c1ccc(CC[NH2+]Cc2c[nH]nc2-c2ccccc2)cc1

>  <molecular_formula>  (1575) 
C24H30ClN5+2

$$$$
ATP-HTVS-F7EFD494BF14
     RDKit          3D

 53 56  0  0  0  0  0  0  0  0999 V2000
  197.0172  178.9810  149.6779 F   0  0  0  0  0  0  0  0  0  0  0  0
  197.8946  177.9591  149.5372 C   0  0  0  0  0  0  0  0  0  0  0  0
  198.7635  177.5840  150.5869 C   0  0  0  0  0  0  0  0  0  0  0  0
  198.8153  178.2624  151.8368 C   0  0  0  0  0  0  0  0  0  0  0  0
  199.6993  177.9121  152.7942 N   0  0  0  0  0  0  0  0  0  0  0  0
  200.4980  176.8406  152.6194 C   0  0  0  0  0  0  0  0  0  0  0  0
  201.2915  176.5241  153.7182 N   0  0  0  0  0  0  0  0  0  0  0  0
  200.5348  176.0777  151.4324 C   0  0  0  0  0  0  0  0  0  0  0  0
  199.6514  176.4831  150.3992 C   0  0  0  0  0  0  0  0  0  0  0  0
  199.6488  175.7894  149.1647 C   0  0  0  0  0  0  0  0  0  0  0  0
  198.7907  176.1859  148.1232 C   0  0  0  0  0  0  0  0  0  0  0  0
  197.9114  177.2687  148.3123 C   0  0  0  0  0  0  0  0  0  0  0  0
  201.4725  174.9568  151.3078 C   0  0  0  0  0  0  0  0  0  0  0  0
  201.2837  173.7599  152.0333 C   0  0  0  0  0  0  0  0  0  0  0  0
  202.1970  172.6916  151.9098 C   0  0  0  0  0  0  0  0  0  0  0  0
  203.3043  172.8132  151.0486 C   0  0  0  0  0  0  0  0  0  0  0  0
  203.5059  174.0042  150.3238 C   0  0  0  0  0  0  0  0  0  0  0  0
  202.5938  175.0703  150.4604 C   0  0  0  0  0  0  0  0  0  0  0  0
  197.9371  179.3162  152.1509 N   0  0  0  0  0  0  0  0  0  0  0  0
  197.8257  180.0708  153.3450 C   0  0  0  0  0  0  0  0  0  0  0  0
  197.3532  181.4019  153.2784 C   0  0  0  0  0  0  0  0  0  0  0  0
  197.2584  182.1883  154.4438 C   0  0  0  0  0  0  0  0  0  0  0  0
  197.6419  181.6603  155.6953 C   0  0  0  0  0  0  0  0  0  0  0  0
  198.0992  180.3352  155.7768 C   0  0  0  0  0  0  0  0  0  0  0  0
  198.1405  179.5385  154.6207 C   0  0  0  0  0  0  0  0  0  0  0  0
  197.5350  182.4610  156.9750 C   0  0  1  0  0  0  0  0  0  0  0  0
  196.5773  181.8478  157.9358 N   0  0  1  0  0  0  0  0  0  0  0  0
  196.7002  182.4259  159.2863 C   0  0  2  0  0  0  0  0  0  0  0  0
  195.1846  181.9169  157.4648 C   0  0  2  0  0  0  0  0  0  0  0  0
  201.9551  175.7704  153.6915 H   0  0  0  0  0  0  0  0  0  0  0  0
  201.2366  177.0690  154.5686 H   0  0  0  0  0  0  0  0  0  0  0  0
  200.3067  174.9480  148.9942 H   0  0  0  0  0  0  0  0  0  0  0  0
  198.8036  175.6522  147.1780 H   0  0  0  0  0  0  0  0  0  0  0  0
  197.2435  177.5578  147.5132 H   0  0  0  0  0  0  0  0  0  0  0  0
  200.4438  173.6633  152.7029 H   0  0  0  0  0  0  0  0  0  0  0  0
  202.0518  171.7808  152.4810 H   0  0  0  0  0  0  0  0  0  0  0  0
  204.0031  171.9909  150.9496 H   0  0  0  0  0  0  0  0  0  0  0  0
  204.3587  174.1034  149.6617 H   0  0  0  0  0  0  0  0  0  0  0  0
  202.7623  175.9816  149.9090 H   0  0  0  0  0  0  0  0  0  0  0  0
  197.3484  179.6035  151.3728 H   0  0  0  0  0  0  0  0  0  0  0  0
  197.0605  181.8346  152.3286 H   0  0  0  0  0  0  0  0  0  0  0  0
  196.8816  183.2041  154.3792 H   0  0  0  0  0  0  0  0  0  0  0  0
  198.3832  179.8844  156.7099 H   0  0  0  0  0  0  0  0  0  0  0  0
  198.4216  178.5152  154.8003 H   0  0  0  0  0  0  0  0  0  0  0  0
  198.5350  182.5086  157.4138 H   0  0  0  0  0  0  0  0  0  0  0  0
  197.2336  183.4920  156.7599 H   0  0  0  0  0  0  0  0  0  0  0  0
  196.5156  183.5013  159.2840 H   0  0  0  0  0  0  0  0  0  0  0  0
  197.7029  182.2659  159.6810 H   0  0  0  0  0  0  0  0  0  0  0  0
  195.9663  181.9617  159.9460 H   0  0  0  0  0  0  0  0  0  0  0  0
  194.8726  182.9538  157.3607 H   0  0  0  0  0  0  0  0  0  0  0  0
  194.5027  181.4094  158.1490 H   0  0  0  0  0  0  0  0  0  0  0  0
  195.1174  181.4366  156.4950 H   0  0  0  0  0  0  0  0  0  0  0  0
  196.7728  180.8536  157.9959 H   0  0  0  0  0  0  0  0  0  0  0  0
  1  2  1  0
  2  3  1  0
  2 12  2  0
  3  4  2  0
  3  9  1  0
  4  5  1  0
  4 19  1  0
  5  6  2  0
  6  7  1  0
  6  8  1  0
  7 30  1  0
  7 31  1  0
  8  9  2  0
  8 13  1  0
  9 10  1  0
 10 11  2  0
 10 32  1  0
 11 12  1  0
 11 33  1  0
 12 34  1  0
 13 14  2  0
 13 18  1  0
 14 15  1  0
 14 35  1  0
 15 16  2  0
 15 36  1  0
 16 17  1  0
 16 37  1  0
 17 18  2  0
 17 38  1  0
 18 39  1  0
 19 20  1  0
 19 40  1  0
 20 21  1  0
 20 25  2  0
 21 22  2  0
 21 41  1  0
 22 23  1  0
 22 42  1  0
 23 24  2  0
 23 26  1  0
 24 25  1  0
 24 43  1  0
 25 44  1  0
 26 27  1  0
 26 45  1  1
 26 46  1  0
 27 28  1  0
 27 29  1  0
 27 53  1  1
 28 47  1  6
 28 48  1  0
 28 49  1  0
 29 50  1  6
 29 51  1  0
 29 52  1  0
M  CHG  1  27   1
M  END
>  <s_epik_cmdline>  (1576) 
J2VwaWtfcHl0aG9uJywgJy1waCcsICc3LjAwMDAwMCcsICctcGh0JywgJzIuMDAwMDAwJywgJy1tcycsICcxNicsICctdG4nLCAnOCcsICctbWEnLCAnMjAwJywgJy1pbWFlJywgJzxpbmZpbGUubWFlPicsICctb21hZScsICc8b3V0ZmlsZS5tYWU+Jw==

>  <s_epik_input>  (1576) 
RmMxW2NIXVtjSF1bY0hdYyhjMTIpYygtYzNbY0hdW2NIXVtjSF1bY0hdW2NIXTMpYyhbTkgyXSluYzJbTkhdYzRbY0hdW2NIXWMoW2NIXVtjSF00KVtDSDJdTihbQ0gzXSlbQ0gzXQ==

>  <s_i_glide_gridfile>  (1576) 
ATP-Grid

>  <s_lp_Force_Field>  (1576) 
OPLS_2005

>  <s_lp_Variant>  (1576) 
rxn102b____EMOL4895078____EMOL2873068-1

>  <s_lp_label>  (1576) 
3016_sdstereoexpander_1_neutralizer_1_epik_1_stereoizer_1

>  <s_m_source_file>  (1576) 
ATP-VSW-LIGPREP-001-in.maegz

>  <s_sd_BIOSOLVEIT.INFINISEE\_QUERY\_NAME>  (1576) 
Ref-Lig

>  <s_sd_BIOSOLVEIT.INFINISEE\_QUERY\_SMILES>  (1576) 
S(c1nc2c(cc1C[NH2+]Cc3ccc(cc3)C[NH+](C)C)cccc2)Cc4ccccc4

>  <s_sd_BIOSOLVEIT.INFINISEE\_REACTION\_NAME>  (1576) 
rxn102b

>  <s_sd_BIOSOLVEIT.INFINISEE\_REAGENT1\_NAME>  (1576) 
EMOL4895078

>  <s_sd_BIOSOLVEIT.INFINISEE\_REAGENT1\_SMILES>  (1576) 
Brc1nc(N)c(c2c1c(F)ccc2)c3ccccc3

>  <s_sd_BIOSOLVEIT.INFINISEE\_REAGENT2\_NAME>  (1576) 
EMOL2873068

>  <s_sd_BIOSOLVEIT.INFINISEE\_REAGENT2\_SMILES>  (1576) 
N(Cc1ccc(N)cc1)(C)C

>  <s_sd_BIOSOLVEIT.INFINISEE\_SPACE>  (1576) 
eXplore_7tr_2022-12

>  <s_vsw_compound_code>  (1576) 
96481

>  <s_vsw_variant>  (1576) 
96481-1

>  <r_epik_Charging_Adjusted_Penalty>  (1576) 
0.074139713783215794

>  <r_epik_Ionization_Penalty>  (1576) 
0.0378

>  <r_epik_Ionization_Penalty_Charging>  (1576) 
0.037100000000000001

>  <r_epik_Ionization_Penalty_Neutral>  (1576) 
0.00080000000000000004

>  <r_epik_State_Penalty>  (1576) 
0.037100000000000001

>  <r_i_docking_score>  (1576) 
-4.1673097979192804

>  <r_i_glide_ecoul>  (1576) 
-7.8068609237670898

>  <r_i_glide_eff_state_penalty>  (1576) 
0.037100000000000001

>  <r_i_glide_einternal>  (1576) 
3.92511010169983

>  <r_i_glide_emodel>  (1576) 
-45.1024897188762

>  <r_i_glide_energy>  (1576) 
-33.593462944030797

>  <r_i_glide_erotb>  (1576) 
0.51884178336439601

>  <r_i_glide_esite>  (1576) 
-0.10000000000000001

>  <r_i_glide_evdw>  (1576) 
-25.7866020202637

>  <r_i_glide_gscore>  (1576) 
-4.20440979791928

>  <r_i_glide_hbond>  (1576) 
-0.131531902045493

>  <r_i_glide_ligand_efficiency>  (1576) 
-0.14370033785928599

>  <r_i_glide_ligand_efficiency_ln>  (1576) 
-0.95420826986482998

>  <r_i_glide_ligand_efficiency_sa>  (1576) 
-0.44149296536627802

>  <r_i_glide_lipo>  (1576) 
-0.89310667946637401

>  <r_i_glide_metal>  (1576) 
-0

>  <r_i_glide_rewards>  (1576) 
-1.1382537601935601

>  <r_lp_Energy>  (1576) 
30.920579

>  <r_qp_ACxDN^.5/SA>  (1576) 
0.0097114999999999996

>  <r_qp_CIQPlogS>  (1576) 
-5.5170000000000003

>  <r_qp_EA(eV)>  (1576) 
0.84099999999999997

>  <r_qp_FISA>  (1576) 
58.905999999999999

>  <r_qp_FOSA>  (1576) 
180.46700000000001

>  <r_qp_IP(eV)>  (1576) 
7.694

>  <r_qp_Jm>  (1576) 
0.00514617167936902

>  <r_qp_PISA>  (1576) 
443.28300000000002

>  <r_qp_PSA>  (1576) 
46.472999999999999

>  <r_qp_PercentHumanOralAbsorption>  (1576) 
100

>  <r_qp_QPPCaco>  (1576) 
682.649

>  <r_qp_QPPMDCK>  (1576) 
533.90200000000004

>  <r_qp_QPlogBB>  (1576) 
0.049000000000000002

>  <r_qp_QPlogHERG>  (1576) 
-7.7439999999999998

>  <r_qp_QPlogKhsa>  (1576) 
0.82299999999999995

>  <r_qp_QPlogKp>  (1576) 
-2.5299999999999998

>  <r_qp_QPlogPC16>  (1576) 
14.025

>  <r_qp_QPlogPo/w>  (1576) 
4.8129999999999997

>  <r_qp_QPlogPoct>  (1576) 
21.335000000000001

>  <r_qp_QPlogPw>  (1576) 
11.872999999999999

>  <r_qp_QPlogS>  (1576) 
-5.3460000000000001

>  <r_qp_QPpolrz>  (1576) 
44.728999999999999

>  <r_qp_SASA>  (1576) 
713.40499999999997

>  <r_qp_SAamideO>  (1576) 
0

>  <r_qp_SAfluorine>  (1576) 
30.748999999999999

>  <r_qp_WPSA>  (1576) 
30.748999999999999

>  <r_qp_accptHB>  (1576) 
4

>  <r_qp_dip^2/V>  (1576) 
0.0015489

>  <r_qp_dipole>  (1576) 
1.3979999999999999

>  <r_qp_donorHB>  (1576) 
3

>  <r_qp_glob>  (1576) 
0.79162239999999995

>  <r_qp_mol_MW>  (1576) 
386.471

>  <r_qp_volume>  (1576) 
1261.925

>  <r_sd_BIOSOLVEIT.INFINISEE\_FTREES\_SIMILARITY>  (1576) 
0.90200000000000002

>  <r_sd_BIOSOLVEIT.LOGP>  (1576) 
4.0111999999999997

>  <r_sd_BIOSOLVEIT.MOLECULAR\_WEIGHT>  (1576) 
387.48000000000002

>  <r_sd_BIOSOLVEIT.TPSA>  (1576) 
55.380000000000003

>  <i_epik_Tot_Q>  (1576) 
1

>  <i_epik_Tot_abs_Q>  (1576) 
1

>  <i_f3d_flags>  (1576) 
0

>  <i_i_glide_confnum>  (1576) 
5

>  <i_i_glide_lignum>  (1576) 
1

>  <i_i_glide_posenum>  (1576) 
14

>  <i_i_glide_rotatable_bonds>  (1576) 
5

>  <i_lp_mmshare_version>  (1576) 
65135

>  <i_m_ct_format>  (1576) 
2

>  <i_m_source_file_index>  (1576) 
3016

>  <i_qp_#NandO>  (1576) 
4

>  <i_qp_#acid>  (1576) 
0

>  <i_qp_#amide>  (1576) 
0

>  <i_qp_#amidine>  (1576) 
0

>  <i_qp_#amine>  (1576) 
1

>  <i_qp_#in34>  (1576) 
0

>  <i_qp_#in56>  (1576) 
22

>  <i_qp_#metab>  (1576) 
3

>  <i_qp_#nonHatm>  (1576) 
29

>  <i_qp_#noncon>  (1576) 
0

>  <i_qp_#ringatoms>  (1576) 
22

>  <i_qp_#rotor>  (1576) 
6

>  <i_qp_#rtvFG>  (1576) 
0

>  <i_qp_#stars>  (1576) 
1

>  <i_qp_CNS>  (1576) 
1

>  <i_qp_HumanOralAbsorption>  (1576) 
3

>  <i_qp_RuleOfFive>  (1576) 
0

>  <i_qp_RuleOfThree>  (1576) 
0

>  <i_sd_BIOSOLVEIT.INFINISEE\_RESULT\_RANK>  (1576) 
87617

>  <i_sd_version>  (1576) 
0

>  <b_lp_Chiralities_Consistent>  (1576) 
1

>  <b_sd_chiral_flag>  (1576) 
0

>  <canonical_id>  (1576) 
ATP-HTVS-F7EFD494BF14

>  <compound_code>  (1576) 
96481

>  <title>  (1576) 
rxn102b____EMOL4895078____EMOL2873068

>  <variant>  (1576) 
96481-1

>  <source_file>  (1576) 
运行/运行/ATP-VSW/ATP-VSW-DOCK_HTVS_1-002_lib.maegz

>  <canonical_smiles>  (1576) 
C[NH+](C)Cc1ccc(Nc2nc(N)c(-c3ccccc3)c3cccc(F)c23)cc1

>  <scaffold>  (1576) 
c1ccc(Nc2ncc(-c3ccccc3)c3ccccc23)cc1

>  <molecular_formula>  (1576) 
C24H24FN4+

$$$$
ATP-HTVS-F89CD1E9CA34
     RDKit          3D

 50 52  0  0  0  0  0  0  0  0999 V2000
  196.5388  183.6181  150.8008 Br  0  0  0  0  0  0  0  0  0  0  0  0
  196.9251  183.6258  152.6772 C   0  0  0  0  0  0  0  0  0  0  0  0
  197.0175  182.4354  153.4530 C   0  0  0  0  0  0  0  0  0  0  0  0
  196.8399  181.2207  152.8145 O   0  0  0  0  0  0  0  0  0  0  0  0
  198.0460  180.5263  152.5162 C   0  0  1  0  0  0  0  0  0  0  0  0
  197.8665  179.5713  151.3480 C   0  0  0  0  0  0  0  0  0  0  0  0
  197.0597  179.9463  150.2544 C   0  0  0  0  0  0  0  0  0  0  0  0
  196.9136  179.0890  149.1511 C   0  0  0  0  0  0  0  0  0  0  0  0
  197.5768  177.8485  149.1342 C   0  0  0  0  0  0  0  0  0  0  0  0
  198.3825  177.4674  150.2266 C   0  0  0  0  0  0  0  0  0  0  0  0
  198.5354  178.3299  151.3299 C   0  0  0  0  0  0  0  0  0  0  0  0
  197.3199  182.4983  154.8463 C   0  0  0  0  0  0  0  0  0  0  0  0
  197.3675  181.3236  155.6283 N   0  0  0  0  0  0  0  0  0  0  0  0
  197.7376  181.2514  157.0437 C   0  0  1  0  0  0  0  0  0  0  0  0
  196.9926  182.2159  157.9606 C   0  0  0  0  0  0  0  0  0  0  0  0
  195.5893  182.1945  158.0499 C   0  0  0  0  0  0  0  0  0  0  0  0
  194.9002  183.1570  158.8045 C   0  0  0  0  0  0  0  0  0  0  0  0
  195.6120  184.1724  159.4801 C   0  0  0  0  0  0  0  0  0  0  0  0
  194.8835  185.1698  160.1342 N   0  0  0  0  0  0  0  0  0  0  0  0
  195.4926  186.4092  160.5981 C   0  0  1  0  0  0  0  0  0  0  0  0
  195.9647  187.3162  159.4394 C   0  0  1  0  0  0  0  0  0  0  0  0
  196.3465  188.5719  159.9537 O   0  0  0  0  0  0  0  0  0  0  0  0
  197.0277  184.1849  159.3999 C   0  0  0  0  0  0  0  0  0  0  0  0
  197.7110  183.2033  158.6758 C   0  0  0  0  0  0  0  0  0  0  0  0
  197.5637  183.7937  155.4056 C   0  0  0  0  0  0  0  0  0  0  0  0
  197.4350  184.8838  154.6307 N   0  0  0  0  0  0  0  0  0  0  0  0
  197.1470  184.8693  153.3204 C   0  0  0  0  0  0  0  0  0  0  0  0
  198.8476  181.2151  152.2480 H   0  0  0  0  0  0  0  0  0  0  0  0
  198.3916  179.9862  153.4013 H   0  0  0  0  0  0  0  0  0  0  0  0
  196.5507  180.8966  150.2510 H   0  0  0  0  0  0  0  0  0  0  0  0
  196.2957  179.3858  148.3186 H   0  0  0  0  0  0  0  0  0  0  0  0
  197.4549  177.1816  148.2923 H   0  0  0  0  0  0  0  0  0  0  0  0
  198.8872  176.5125  150.2186 H   0  0  0  0  0  0  0  0  0  0  0  0
  199.1610  178.0454  152.1641 H   0  0  0  0  0  0  0  0  0  0  0  0
  197.1008  180.4331  155.2319 H   0  0  0  0  0  0  0  0  0  0  0  0
  197.5871  180.2247  157.3950 H   0  0  0  0  0  0  0  0  0  0  0  0
  198.8107  181.4266  157.1270 H   0  0  0  0  0  0  0  0  0  0  0  0
  195.0378  181.4615  157.4806 H   0  0  0  0  0  0  0  0  0  0  0  0
  193.8205  183.1712  158.7716 H   0  0  0  0  0  0  0  0  0  0  0  0
  193.8748  185.1056  160.1362 H   0  0  0  0  0  0  0  0  0  0  0  0
  194.7353  186.9255  161.1927 H   0  0  0  0  0  0  0  0  0  0  0  0
  196.3076  186.1891  161.2910 H   0  0  0  0  0  0  0  0  0  0  0  0
  196.8445  186.9272  158.9320 H   0  0  0  0  0  0  0  0  0  0  0  0
  195.1863  187.4371  158.6817 H   0  0  0  0  0  0  0  0  0  0  0  0
  195.5656  189.0663  160.1499 H   0  0  0  0  0  0  0  0  0  0  0  0
  197.6161  184.9783  159.8394 H   0  0  0  0  0  0  0  0  0  0  0  0
  198.7911  183.2434  158.6127 H   0  0  0  0  0  0  0  0  0  0  0  0
  197.8442  184.0229  156.4057 H   0  0  0  0  0  0  0  0  0  0  0  0
  197.1248  185.8358  152.8354 H   0  0  0  0  0  0  0  0  0  0  0  0
  197.5588  185.7975  155.0715 H   0  0  0  0  0  0  0  0  0  0  0  0
  1  2  1  0
  2  3  2  0
  2 27  1  0
  3  4  1  0
  3 12  1  0
  4  5  1  0
  5  6  1  0
  5 28  1  6
  5 29  1  0
  6  7  2  0
  6 11  1  0
  7  8  1  0
  7 30  1  0
  8  9  2  0
  8 31  1  0
  9 10  1  0
  9 32  1  0
 10 11  2  0
 10 33  1  0
 11 34  1  0
 12 13  1  0
 12 25  2  0
 13 14  1  0
 13 35  1  0
 14 15  1  0
 14 36  1  1
 14 37  1  0
 15 16  1  0
 15 24  2  0
 16 17  2  0
 16 38  1  0
 17 18  1  0
 17 39  1  0
 18 19  1  0
 18 23  2  0
 19 20  1  0
 19 40  1  0
 20 21  1  0
 20 41  1  1
 20 42  1  0
 21 22  1  0
 21 43  1  6
 21 44  1  0
 22 45  1  0
 23 24  1  0
 23 46  1  0
 24 47  1  0
 25 26  1  0
 25 48  1  0
 26 27  2  0
 26 50  1  0
 27 49  1  0
M  CHG  1  26   1
M  END
>  <s_epik_cmdline>  (1577) 
J2VwaWtfcHl0aG9uJywgJy1waCcsICc3LjAwMDAwMCcsICctcGh0JywgJzIuMDAwMDAwJywgJy1tcycsICcxNicsICctdG4nLCAnOCcsICctbWEnLCAnMjAwJywgJy1pbWFlJywgJzxpbmZpbGUubWFlPicsICctb21hZScsICc8b3V0ZmlsZS5tYWU+Jw==

>  <s_epik_input>  (1577) 
W2NIXTFbY0hdW2NIXVtjSF1bY0hdYzFbQ0gyXU9jKGMyQnIpYyhbY0hdbltjSF0yKVtOSF1bQ0gyXWMzW2NIXVtjSF1jKFtjSF1bY0hdMylbTkhdW0NIMl1bQ0gyXVtPSF0=

>  <s_i_glide_gridfile>  (1577) 
ATP-Grid

>  <s_lp_Force_Field>  (1577) 
OPLS_2005

>  <s_lp_Variant>  (1577) 
rxn102b____EMOL337788616____EMOL324170366-2

>  <s_lp_label>  (1577) 
2476_sdstereoexpander_1_neutralizer_1_epik_2_stereoizer_1

>  <s_m_source_file>  (1577) 
ATP-VSW-LIGPREP-001-in.maegz

>  <s_sd_BIOSOLVEIT.INFINISEE\_QUERY\_NAME>  (1577) 
Ref-Lig

>  <s_sd_BIOSOLVEIT.INFINISEE\_QUERY\_SMILES>  (1577) 
S(c1nc2c(cc1C[NH2+]Cc3ccc(cc3)C[NH+](C)C)cccc2)Cc4ccccc4

>  <s_sd_BIOSOLVEIT.INFINISEE\_REACTION\_NAME>  (1577) 
rxn102b

>  <s_sd_BIOSOLVEIT.INFINISEE\_REAGENT1\_NAME>  (1577) 
EMOL337788616

>  <s_sd_BIOSOLVEIT.INFINISEE\_REAGENT1\_SMILES>  (1577) 
Brc1c(OCc2ccccc2)c(Br)cnc1

>  <s_sd_BIOSOLVEIT.INFINISEE\_REAGENT2\_NAME>  (1577) 
EMOL324170366

>  <s_sd_BIOSOLVEIT.INFINISEE\_REAGENT2\_SMILES>  (1577) 
OCCNc1ccc(cc1)CN

>  <s_sd_BIOSOLVEIT.INFINISEE\_SPACE>  (1577) 
eXplore_7tr_2022-12

>  <s_vsw_compound_code>  (1577) 
79201

>  <s_vsw_variant>  (1577) 
79201-2

>  <r_epik_Charging_Adjusted_Penalty>  (1577) 
1.83822121613701

>  <r_epik_Ionization_Penalty>  (1577) 
0.92500000000000004

>  <r_epik_Ionization_Penalty_Charging>  (1577) 
0.9133

>  <r_epik_Ionization_Penalty_Neutral>  (1577) 
0.0117

>  <r_epik_State_Penalty>  (1577) 
0.92500000000000004

>  <r_i_docking_score>  (1577) 
-3.3517762736765602

>  <r_i_glide_ecoul>  (1577) 
-6.4379301071167001

>  <r_i_glide_eff_state_penalty>  (1577) 
0.92500000000000004

>  <r_i_glide_einternal>  (1577) 
1.96175932884216

>  <r_i_glide_emodel>  (1577) 
-57.472244929188598

>  <r_i_glide_energy>  (1577) 
-42.8939046859741

>  <r_i_glide_erotb>  (1577) 
0.97026517936511603

>  <r_i_glide_esite>  (1577) 
-0.0466867213403915

>  <r_i_glide_evdw>  (1577) 
-36.455974578857401

>  <r_i_glide_gscore>  (1577) 
-4.2767762736765604

>  <r_i_glide_hbond>  (1577) 
-0.122995459160092

>  <r_i_glide_ligand_efficiency>  (1577) 
-0.124139861988021

>  <r_i_glide_ligand_efficiency_ln>  (1577) 
-0.78023825816135595

>  <r_i_glide_ligand_efficiency_sa>  (1577) 
-0.372419585554917

>  <r_i_glide_lipo>  (1577) 
-1.5820316184398999

>  <r_i_glide_metal>  (1577) 
-0

>  <r_i_glide_rewards>  (1577) 
-0.70683940909090903

>  <r_lp_Energy>  (1577) 
33.147022999999997

>  <r_lp_tautomer_probability>  (1577) 
0.99999613862877201

>  <r_qp_ACxDN^.5/SA>  (1577) 
0.014230100000000001

>  <r_qp_CIQPlogS>  (1577) 
-6.46

>  <r_qp_EA(eV)>  (1577) 
0.28799999999999998

>  <r_qp_FISA>  (1577) 
98.893000000000001

>  <r_qp_FOSA>  (1577) 
140.82499999999999

>  <r_qp_IP(eV)>  (1577) 
8.3170000000000002

>  <r_qp_Jm>  (1577) 
0.108434627246156

>  <r_qp_PISA>  (1577) 
420.30399999999997

>  <r_qp_PSA>  (1577) 
64.927999999999997

>  <r_qp_PercentHumanOralAbsorption>  (1577) 
100

>  <r_qp_QPPCaco>  (1577) 
1143.1300000000001

>  <r_qp_QPPMDCK>  (1577) 
1284.7370000000001

>  <r_qp_QPlogBB>  (1577) 
-0.96799999999999997

>  <r_qp_QPlogHERG>  (1577) 
-7.1100000000000003

>  <r_qp_QPlogKhsa>  (1577) 
0.32300000000000001

>  <r_qp_QPlogKp>  (1577) 
-0.90100000000000002

>  <r_qp_QPlogPC16>  (1577) 
14.821

>  <r_qp_QPlogPo/w>  (1577) 
4.4039999999999999

>  <r_qp_QPlogPoct>  (1577) 
21.908999999999999

>  <r_qp_QPlogPw>  (1577) 
13.065

>  <r_qp_QPlogS>  (1577) 
-5.6950000000000003

>  <r_qp_QPpolrz>  (1577) 
41.877000000000002

>  <r_qp_SASA>  (1577) 
724.22000000000003

>  <r_qp_SAamideO>  (1577) 
0

>  <r_qp_SAfluorine>  (1577) 
0

>  <r_qp_WPSA>  (1577) 
64.197000000000003

>  <r_qp_accptHB>  (1577) 
5.9500000000000002

>  <r_qp_dip^2/V>  (1577) 
0.0295442

>  <r_qp_dipole>  (1577) 
6.1020000000000003

>  <r_qp_donorHB>  (1577) 
3

>  <r_qp_glob>  (1577) 
0.77913840000000001

>  <r_qp_mol_MW>  (1577) 
428.32799999999997

>  <r_qp_volume>  (1577) 
1260.317

>  <r_sd_BIOSOLVEIT.INFINISEE\_FTREES\_SIMILARITY>  (1577) 
0.91500000000000004

>  <r_sd_BIOSOLVEIT.LOGP>  (1577) 
4.4394

>  <r_sd_BIOSOLVEIT.MOLECULAR\_WEIGHT>  (1577) 
428.32799999999997

>  <r_sd_BIOSOLVEIT.TPSA>  (1577) 
66.409999999999997

>  <i_epik_Tot_Q>  (1577) 
1

>  <i_epik_Tot_abs_Q>  (1577) 
1

>  <i_f3d_flags>  (1577) 
0

>  <i_i_glide_confnum>  (1577) 
4

>  <i_i_glide_lignum>  (1577) 
967

>  <i_i_glide_posenum>  (1577) 
5

>  <i_i_glide_rotatable_bonds>  (1577) 
10

>  <i_lp_mmshare_version>  (1577) 
65135

>  <i_m_ct_format>  (1577) 
2

>  <i_m_source_file_index>  (1577) 
2476

>  <i_qp_#NandO>  (1577) 
5

>  <i_qp_#acid>  (1577) 
0

>  <i_qp_#amide>  (1577) 
0

>  <i_qp_#amidine>  (1577) 
0

>  <i_qp_#amine>  (1577) 
0

>  <i_qp_#in34>  (1577) 
0

>  <i_qp_#in56>  (1577) 
18

>  <i_qp_#metab>  (1577) 
11

>  <i_qp_#nonHatm>  (1577) 
27

>  <i_qp_#noncon>  (1577) 
0

>  <i_qp_#ringatoms>  (1577) 
18

>  <i_qp_#rotor>  (1577) 
10

>  <i_qp_#rtvFG>  (1577) 
0

>  <i_qp_#stars>  (1577) 
1

>  <i_qp_CNS>  (1577) 
-1

>  <i_qp_HumanOralAbsorption>  (1577) 
1

>  <i_qp_RuleOfFive>  (1577) 
0

>  <i_qp_RuleOfThree>  (1577) 
1

>  <i_sd_BIOSOLVEIT.INFINISEE\_RESULT\_RANK>  (1577) 
28415

>  <i_sd_version>  (1577) 
0

>  <b_lp_Chiralities_Consistent>  (1577) 
1

>  <b_sd_chiral_flag>  (1577) 
0

>  <canonical_id>  (1577) 
ATP-HTVS-F89CD1E9CA34

>  <compound_code>  (1577) 
79201

>  <title>  (1577) 
rxn102b____EMOL337788616____EMOL324170366

>  <variant>  (1577) 
79201-2

>  <source_file>  (1577) 
运行/运行/ATP-VSW/ATP-VSW-DOCK_HTVS_1-001_lib/ATP-VSW-DOCK_HTVS_1-001_lib

>  <canonical_smiles>  (1577) 
OCCNc1ccc(CNc2c[nH+]cc(Br)c2OCc2ccccc2)cc1

>  <scaffold>  (1577) 
c1ccc(CNc2c[nH+]ccc2OCc2ccccc2)cc1

>  <molecular_formula>  (1577) 
C21H23BrN3O2+

$$$$
ATP-HTVS-F8BD3C119C5E
     RDKit          3D

 47 50  0  0  0  0  0  0  0  0999 V2000
  198.0121  185.3167  157.7507 Cl  0  0  0  0  0  0  0  0  0  0  0  0
  196.8078  185.5840  158.9577 C   0  0  0  0  0  0  0  0  0  0  0  0
  195.6875  184.7225  159.0941 C   0  0  0  0  0  0  0  0  0  0  0  0
  194.7236  185.0150  160.0860 C   0  0  0  0  0  0  0  0  0  0  0  0
  194.8747  186.1373  160.9277 C   0  0  0  0  0  0  0  0  0  0  0  0
  195.9963  186.9814  160.7894 C   0  0  0  0  0  0  0  0  0  0  0  0
  196.9554  186.6966  159.8064 C   0  0  0  0  0  0  0  0  0  0  0  0
  195.5264  183.5059  158.1733 C   0  0  2  0  0  0  0  0  0  0  0  0
  194.2086  183.0049  158.1586 O   0  0  0  0  0  0  0  0  0  0  0  0
  196.4765  182.3426  158.5331 C   0  0  1  0  0  0  0  0  0  0  0  0
  196.6618  181.4379  157.3818 N   0  0  1  0  0  0  0  0  0  0  0  0
  197.6553  181.8863  156.3713 C   0  0  1  0  0  0  0  0  0  0  0  0
  199.0621  181.4984  156.8064 C   0  0  0  0  0  0  0  0  0  0  0  0
  199.8989  182.5147  157.1345 N   0  0  0  0  0  0  0  0  0  0  0  0
  201.1514  182.2036  157.5264 C   0  0  0  0  0  0  0  0  0  0  0  0
  201.6355  180.8831  157.6033 C   0  0  0  0  0  0  0  0  0  0  0  0
  200.7640  179.8279  157.2641 C   0  0  0  0  0  0  0  0  0  0  0  0
  199.4517  180.1431  156.8549 C   0  0  0  0  0  0  0  0  0  0  0  0
  197.3219  181.3870  155.0077 C   0  0  0  0  0  0  0  0  0  0  0  0
  197.4587  182.2794  153.9761 O   0  0  0  0  0  0  0  0  0  0  0  0
  197.1248  181.6042  152.8246 C   0  0  0  0  0  0  0  0  0  0  0  0
  196.7720  180.2697  153.1491 C   0  0  0  0  0  0  0  0  0  0  0  0
  196.4042  179.4288  152.0773 C   0  0  0  0  0  0  0  0  0  0  0  0
  196.3975  179.9025  150.7489 C   0  0  0  0  0  0  0  0  0  0  0  0
  196.7591  181.2368  150.4629 C   0  0  0  0  0  0  0  0  0  0  0  0
  197.1288  182.1010  151.5127 C   0  0  0  0  0  0  0  0  0  0  0  0
  196.9108  180.1520  154.5739 C   0  0  0  0  0  0  0  0  0  0  0  0
  196.9106  180.5089  157.7077 H   0  0  0  0  0  0  0  0  0  0  0  0
  193.8509  184.3872  160.2119 H   0  0  0  0  0  0  0  0  0  0  0  0
  194.1404  186.3554  161.6875 H   0  0  0  0  0  0  0  0  0  0  0  0
  196.1311  187.8328  161.4397 H   0  0  0  0  0  0  0  0  0  0  0  0
  197.8240  187.3323  159.6990 H   0  0  0  0  0  0  0  0  0  0  0  0
  195.7340  183.8391  157.1552 H   0  0  0  0  0  0  0  0  0  0  0  0
  193.9391  182.9123  157.2236 H   0  0  0  0  0  0  0  0  0  0  0  0
  197.4435  182.7145  158.8686 H   0  0  0  0  0  0  0  0  0  0  0  0
  196.0468  181.7903  159.3691 H   0  0  0  0  0  0  0  0  0  0  0  0
  197.6211  182.9795  156.3115 H   0  0  0  0  0  0  0  0  0  0  0  0
  201.7911  183.0393  157.7755 H   0  0  0  0  0  0  0  0  0  0  0  0
  202.6475  180.6823  157.9219 H   0  0  0  0  0  0  0  0  0  0  0  0
  201.0905  178.7996  157.3320 H   0  0  0  0  0  0  0  0  0  0  0  0
  198.7641  179.3445  156.6205 H   0  0  0  0  0  0  0  0  0  0  0  0
  196.1347  178.4061  152.2863 H   0  0  0  0  0  0  0  0  0  0  0  0
  196.1206  179.2393  149.9418 H   0  0  0  0  0  0  0  0  0  0  0  0
  196.7571  181.5876  149.4426 H   0  0  0  0  0  0  0  0  0  0  0  0
  197.4139  183.1224  151.3091 H   0  0  0  0  0  0  0  0  0  0  0  0
  196.7280  179.2656  155.1669 H   0  0  0  0  0  0  0  0  0  0  0  0
  195.7704  181.3155  156.9285 H   0  0  0  0  0  0  0  0  0  0  0  0
  1  2  1  0
  2  3  1  0
  2  7  2  0
  3  4  2  0
  3  8  1  0
  4  5  1  0
  4 29  1  0
  5  6  2  0
  5 30  1  0
  6  7  1  0
  6 31  1  0
  7 32  1  0
  8  9  1  0
  8 10  1  0
  8 33  1  6
  9 34  1  0
 10 11  1  0
 10 35  1  1
 10 36  1  0
 11 12  1  0
 11 28  1  1
 11 47  1  0
 12 13  1  0
 12 19  1  0
 12 37  1  6
 13 14  1  0
 13 18  2  0
 14 15  2  0
 15 16  1  0
 15 38  1  0
 16 17  2  0
 16 39  1  0
 17 18  1  0
 17 40  1  0
 18 41  1  0
 19 20  1  0
 19 27  2  0
 20 21  1  0
 21 22  1  0
 21 26  2  0
 22 23  2  0
 22 27  1  0
 23 24  1  0
 23 42  1  0
 24 25  2  0
 24 43  1  0
 25 26  1  0
 25 44  1  0
 26 45  1  0
 27 46  1  0
M  CHG  1  11   1
M  END
>  <s_epik_cmdline>  (1578) 
J2VwaWtfcHl0aG9uJywgJy1waCcsICc3LjAwMDAwMCcsICctcGh0JywgJzIuMDAwMDAwJywgJy1tcycsICcxNicsICctdG4nLCAnOCcsICctbWEnLCAnMjAwJywgJy1pbWFlJywgJzxpbmZpbGUubWFlPicsICctb21hZScsICc8b3V0ZmlsZS5tYWU+Jw==

>  <s_epik_input>  (1578) 
W2NIXTFbY0hdW2NIXVtjSF1jKGMxQ2wpW0NASF0oW09IXSlbQ0gyXVtOSF1bQ0BASF0oYzJuW2NIXVtjSF1bY0hdW2NIXTIpYyhvMylbY0hdYyhjMzQpW2NIXVtjSF1bY0hdW2NIXTQ=

>  <s_i_glide_gridfile>  (1578) 
ATP-Grid

>  <s_lp_Force_Field>  (1578) 
OPLS_2005

>  <s_lp_Variant>  (1578) 
m_269862dba____8258832____13192834-4

>  <s_lp_label>  (1578) 
1077_sdstereoexpander_4_neutralizer_1_epik_1_stereoizer_1

>  <s_m_source_file>  (1578) 
ATP-VSW-LIGPREP-003-in.maegz

>  <s_sd_BIOSOLVEIT.INFINISEE\_QUERY\_NAME>  (1578) 
Ref-Lig

>  <s_sd_BIOSOLVEIT.INFINISEE\_QUERY\_SMILES>  (1578) 
S(c1nc2c(cc1C[NH2+]Cc3ccc(cc3)C[NH+](C)C)cccc2)Cc4ccccc4

>  <s_sd_BIOSOLVEIT.INFINISEE\_REACTION\_NAME>  (1578) 
m_269862dba

>  <s_sd_BIOSOLVEIT.INFINISEE\_REAGENT1\_SMILES>  (1578) 
[R1*]NCC(O)c1c(Cl)cccc1

>  <s_sd_BIOSOLVEIT.INFINISEE\_REAGENT2\_SMILES>  (1578) 
[R1*]C(c1ncccc1)C=2Oc3c(cccc3)C2

>  <s_sd_BIOSOLVEIT.INFINISEE\_SPACE>  (1578) 
REALSpace_44bn_2023-08

>  <s_vsw_compound_code>  (1578) 
34435

>  <s_vsw_variant>  (1578) 
34435-4

>  <r_epik_Charging_Adjusted_Penalty>  (1578) 
0.12574514795471001

>  <r_epik_Ionization_Penalty>  (1578) 
0.062899999999999998

>  <r_epik_Ionization_Penalty_Charging>  (1578) 
0.062899999999999998

>  <r_epik_Ionization_Penalty_Neutral>  (1578) 
0

>  <r_epik_State_Penalty>  (1578) 
0.062899999999999998

>  <r_i_docking_score>  (1578) 
-6.2552108570632301

>  <r_i_glide_ecoul>  (1578) 
-13.7310228347778

>  <r_i_glide_eff_state_penalty>  (1578) 
0.062899999999999998

>  <r_i_glide_einternal>  (1578) 
5.2208538055419904

>  <r_i_glide_emodel>  (1578) 
-70.147561068306203

>  <r_i_glide_energy>  (1578) 
-45.928265571594203

>  <r_i_glide_erotb>  (1578) 
0.67204726597247899

>  <r_i_glide_esite>  (1578) 
-0.10000000000000001

>  <r_i_glide_evdw>  (1578) 
-32.197242736816399

>  <r_i_glide_gscore>  (1578) 
-6.3181108570632301

>  <r_i_glide_hbond>  (1578) 
-0.25280710849308402

>  <r_i_glide_ligand_efficiency>  (1578) 
-0.23167447618752701

>  <r_i_glide_ligand_efficiency_ln>  (1578) 
-1.45610996231367

>  <r_i_glide_ligand_efficiency_sa>  (1578) 
-0.69502342779901904

>  <r_i_glide_lipo>  (1578) 
-1.9236929524851301

>  <r_i_glide_metal>  (1578) 
-0

>  <r_i_glide_rewards>  (1578) 
-1.0441425

>  <r_lp_Energy>  (1578) 
13.813374

>  <r_qp_ACxDN^.5/SA>  (1578) 
0.0097193999999999996

>  <r_qp_CIQPlogS>  (1578) 
-5.1680000000000001

>  <r_qp_EA(eV)>  (1578) 
0.26800000000000002

>  <r_qp_FISA>  (1578) 
46.103000000000002

>  <r_qp_FOSA>  (1578) 
40.274000000000001

>  <r_qp_IP(eV)>  (1578) 
8.8379999999999992

>  <r_qp_Jm>  (1578) 
0.091964133163759204

>  <r_qp_PISA>  (1578) 
542.29999999999995

>  <r_qp_PSA>  (1578) 
49.508000000000003

>  <r_qp_PercentHumanOralAbsorption>  (1578) 
100

>  <r_qp_QPPCaco>  (1578) 
902.83100000000002

>  <r_qp_QPPMDCK>  (1578) 
983.12199999999996

>  <r_qp_QPlogBB>  (1578) 
0.191

>  <r_qp_QPlogHERG>  (1578) 
-8.1359999999999992

>  <r_qp_QPlogKhsa>  (1578) 
0.58599999999999997

>  <r_qp_QPlogKp>  (1578) 
-1.849

>  <r_qp_QPlogPC16>  (1578) 
14.343

>  <r_qp_QPlogPo/w>  (1578) 
4.6360000000000001

>  <r_qp_QPlogPoct>  (1578) 
19.648

>  <r_qp_QPlogPw>  (1578) 
11.401

>  <r_qp_QPlogS>  (1578) 
-4.766

>  <r_qp_QPpolrz>  (1578) 
42.372999999999998

>  <r_qp_SASA>  (1578) 
683.87300000000005

>  <r_qp_SAamideO>  (1578) 
0

>  <r_qp_SAfluorine>  (1578) 
0

>  <r_qp_WPSA>  (1578) 
55.195999999999998

>  <r_qp_accptHB>  (1578) 
4.7000000000000002

>  <r_qp_dip^2/V>  (1578) 
0.0034703999999999998

>  <r_qp_dipole>  (1578) 
2.0369999999999999

>  <r_qp_donorHB>  (1578) 
2

>  <r_qp_glob>  (1578) 
0.79655679999999995

>  <r_qp_mol_MW>  (1578) 
378.85700000000003

>  <r_qp_volume>  (1578) 
1195.4749999999999

>  <r_sd_BIOSOLVEIT.INFINISEE\_FTREES\_SIMILARITY>  (1578) 
0.91400000000000003

>  <r_sd_BIOSOLVEIT.LOGP>  (1578) 
3.8675999999999999

>  <r_sd_BIOSOLVEIT.MOLECULAR\_WEIGHT>  (1578) 
379.86500000000001

>  <r_sd_BIOSOLVEIT.TPSA>  (1578) 
62.869999999999997

>  <i_epik_Tot_Q>  (1578) 
1

>  <i_epik_Tot_abs_Q>  (1578) 
1

>  <i_f3d_flags>  (1578) 
0

>  <i_i_glide_confnum>  (1578) 
4

>  <i_i_glide_lignum>  (1578) 
405

>  <i_i_glide_posenum>  (1578) 
10

>  <i_i_glide_rotatable_bonds>  (1578) 
7

>  <i_lp_mmshare_version>  (1578) 
65135

>  <i_m_ct_format>  (1578) 
2

>  <i_m_source_file_index>  (1578) 
1077

>  <i_qp_#NandO>  (1578) 
4

>  <i_qp_#acid>  (1578) 
0

>  <i_qp_#amide>  (1578) 
0

>  <i_qp_#amidine>  (1578) 
0

>  <i_qp_#amine>  (1578) 
1

>  <i_qp_#in34>  (1578) 
0

>  <i_qp_#in56>  (1578) 
21

>  <i_qp_#metab>  (1578) 
7

>  <i_qp_#nonHatm>  (1578) 
27

>  <i_qp_#noncon>  (1578) 
0

>  <i_qp_#ringatoms>  (1578) 
21

>  <i_qp_#rotor>  (1578) 
7

>  <i_qp_#rtvFG>  (1578) 
0

>  <i_qp_#stars>  (1578) 
1

>  <i_qp_CNS>  (1578) 
1

>  <i_qp_HumanOralAbsorption>  (1578) 
3

>  <i_qp_RuleOfFive>  (1578) 
0

>  <i_qp_RuleOfThree>  (1578) 
1

>  <i_sd_BIOSOLVEIT.INFINISEE\_REAGENT1\_NAME>  (1578) 
8258832

>  <i_sd_BIOSOLVEIT.INFINISEE\_REAGENT2\_NAME>  (1578) 
13192834

>  <i_sd_BIOSOLVEIT.INFINISEE\_RESULT\_RANK>  (1578) 
31740

>  <i_sd_version>  (1578) 
0

>  <b_lp_Chiralities_Consistent>  (1578) 
1

>  <b_sd_chiral_flag>  (1578) 
0

>  <canonical_id>  (1578) 
ATP-HTVS-F8BD3C119C5E

>  <compound_code>  (1578) 
34435

>  <title>  (1578) 
m_269862dba____8258832____13192834

>  <variant>  (1578) 
34435-4

>  <source_file>  (1578) 
运行/运行/ATP-VSW/ATP-VSW-DOCK_HTVS_1-003_lib/ATP-VSW-DOCK_HTVS_1-003_lib.mae

>  <canonical_smiles>  (1578) 
O[C@H](C[NH2+][C@@H](c1ccccn1)c1cc2ccccc2o1)c1ccccc1Cl

>  <scaffold>  (1578) 
c1ccc(CC[NH2+]C(c2ccccn2)c2cc3ccccc3o2)cc1

>  <molecular_formula>  (1578) 
C22H20ClN2O2+

$$$$
ATP-HTVS-F8C49F655F6D
     RDKit          3D

 60 63  0  0  0  0  0  0  0  0999 V2000
  197.2296  183.3497  156.4268 O   0  0  0  0  0  0  0  0  0  0  0  0
  197.0788  182.2450  156.9671 C   0  0  0  0  0  0  0  0  0  0  0  0
  197.3509  181.0757  156.3653 N   0  0  0  0  0  0  0  0  0  0  0  0
  197.5724  180.8167  154.9766 C   0  0  0  0  0  0  0  0  0  0  0  0
  197.1649  181.7077  154.0124 N   0  0  0  0  0  0  0  0  0  0  0  0
  197.3299  181.3856  152.7044 C   0  0  0  0  0  0  0  0  0  0  0  0
  197.8634  180.1424  152.2943 C   0  0  0  0  0  0  0  0  0  0  0  0
  198.1942  179.2104  153.2673 C   0  0  0  0  0  0  0  0  0  0  0  0
  198.1309  179.5423  154.6358 C   0  0  0  0  0  0  0  0  0  0  0  0
  198.5345  178.5999  155.6289 N   0  0  0  0  0  0  0  0  0  0  0  0
  199.6248  177.7059  155.5906 C   0  0  0  0  0  0  0  0  0  0  0  0
  200.2412  177.2672  154.3938 C   0  0  0  0  0  0  0  0  0  0  0  0
  201.2111  176.2902  154.3975 C   0  0  0  0  0  0  0  0  0  0  0  0
  201.7124  175.7511  155.5916 C   0  0  0  0  0  0  0  0  0  0  0  0
  202.7262  174.7793  155.5342 N   0  0  0  0  0  0  0  0  0  0  0  0
  202.8890  173.9883  154.3080 C   0  0  1  0  0  0  0  0  0  0  0  0
  201.6770  173.0814  154.0343 C   0  0  1  0  0  0  0  0  0  0  0  0
  201.9611  172.2307  152.9393 O   0  0  0  0  0  0  0  0  0  0  0  0
  201.1853  176.2337  156.8153 C   0  0  0  0  0  0  0  0  0  0  0  0
  200.1337  177.1919  156.8213 C   0  0  0  0  0  0  0  0  0  0  0  0
  198.0435  179.7758  150.9391 C   0  0  0  0  0  0  0  0  0  0  0  0
  197.6519  180.6707  149.9318 C   0  0  0  0  0  0  0  0  0  0  0  0
  197.0946  181.9040  150.3029 C   0  0  0  0  0  0  0  0  0  0  0  0
  196.9280  182.2592  151.6626 C   0  0  0  0  0  0  0  0  0  0  0  0
  196.6696  182.1543  158.4463 C   0  0  1  0  0  0  0  0  0  0  0  0
  195.5423  183.0260  158.7851 N   0  0  0  0  0  0  0  0  0  0  0  0
  195.7309  184.3058  159.3589 C   0  0  0  0  0  0  0  0  0  0  0  0
  194.6561  184.9863  159.9840 C   0  0  0  0  0  0  0  0  0  0  0  0
  194.8272  186.2650  160.5501 C   0  0  0  0  0  0  0  0  0  0  0  0
  196.0798  186.8972  160.4947 C   0  0  0  0  0  0  0  0  0  0  0  0
  197.1574  186.2380  159.8804 C   0  0  0  0  0  0  0  0  0  0  0  0
  196.9890  184.9543  159.3278 C   0  0  0  0  0  0  0  0  0  0  0  0
  194.1967  182.5987  158.4137 C   0  0  2  0  0  0  0  0  0  0  0  0
  197.3175  180.2460  156.9523 H   0  0  0  0  0  0  0  0  0  0  0  0
  198.3832  178.2371  152.8757 H   0  0  0  0  0  0  0  0  0  0  0  0
  197.9453  178.5136  156.4721 H   0  0  0  0  0  0  0  0  0  0  0  0
  200.0589  177.5619  153.3878 H   0  0  0  0  0  0  0  0  0  0  0  0
  201.5446  176.0011  153.4138 H   0  0  0  0  0  0  0  0  0  0  0  0
  203.2609  174.5764  156.3670 H   0  0  0  0  0  0  0  0  0  0  0  0
  203.0965  174.6219  153.4429 H   0  0  0  0  0  0  0  0  0  0  0  0
  203.7816  173.3883  154.4321 H   0  0  0  0  0  0  0  0  0  0  0  0
  201.4640  172.4652  154.9067 H   0  0  0  0  0  0  0  0  0  0  0  0
  200.7730  173.6495  153.8097 H   0  0  0  0  0  0  0  0  0  0  0  0
  202.5083  171.5293  153.2649 H   0  0  0  0  0  0  0  0  0  0  0  0
  201.5596  175.8444  157.7417 H   0  0  0  0  0  0  0  0  0  0  0  0
  199.7260  177.5363  157.7815 H   0  0  0  0  0  0  0  0  0  0  0  0
  198.4829  178.8232  150.6763 H   0  0  0  0  0  0  0  0  0  0  0  0
  197.7872  180.3947  148.8922 H   0  0  0  0  0  0  0  0  0  0  0  0
  196.7861  182.5923  149.5385 H   0  0  0  0  0  0  0  0  0  0  0  0
  196.4848  183.1983  151.9540 H   0  0  0  0  0  0  0  0  0  0  0  0
  196.3903  181.1240  158.6806 H   0  0  0  0  0  0  0  0  0  0  0  0
  197.5349  182.3453  159.0788 H   0  0  0  0  0  0  0  0  0  0  0  0
  193.6733  184.5451  160.0411 H   0  0  0  0  0  0  0  0  0  0  0  0
  193.9925  186.7704  161.0131 H   0  0  0  0  0  0  0  0  0  0  0  0
  196.2177  187.8822  160.9195 H   0  0  0  0  0  0  0  0  0  0  0  0
  198.1241  186.7151  159.8367 H   0  0  0  0  0  0  0  0  0  0  0  0
  197.8428  184.4924  158.8585 H   0  0  0  0  0  0  0  0  0  0  0  0
  193.6057  182.3817  159.2972 H   0  0  0  0  0  0  0  0  0  0  0  0
  194.2126  181.6926  157.8063 H   0  0  0  0  0  0  0  0  0  0  0  0
  193.6867  183.3702  157.8373 H   0  0  0  0  0  0  0  0  0  0  0  0
  1  2  2  0
  2  3  1  0
  2 25  1  0
  3  4  1  0
  3 34  1  0
  4  5  2  0
  4  9  1  0
  5  6  1  0
  6  7  1  0
  6 24  2  0
  7  8  1  0
  7 21  2  0
  8  9  2  0
  8 35  1  0
  9 10  1  0
 10 11  1  0
 10 36  1  0
 11 12  1  0
 11 20  2  0
 12 13  2  0
 12 37  1  0
 13 14  1  0
 13 38  1  0
 14 15  1  0
 14 19  2  0
 15 16  1  0
 15 39  1  0
 16 17  1  0
 16 40  1  6
 16 41  1  0
 17 18  1  0
 17 42  1  1
 17 43  1  0
 18 44  1  0
 19 20  1  0
 19 45  1  0
 20 46  1  0
 21 22  1  0
 21 47  1  0
 22 23  2  0
 22 48  1  0
 23 24  1  0
 23 49  1  0
 24 50  1  0
 25 26  1  0
 25 51  1  6
 25 52  1  0
 26 27  1  0
 26 33  1  0
 27 28  2  0
 27 32  1  0
 28 29  1  0
 28 53  1  0
 29 30  2  0
 29 54  1  0
 30 31  1  0
 30 55  1  0
 31 32  2  0
 31 56  1  0
 32 57  1  0
 33 58  1  1
 33 59  1  0
 33 60  1  0
M  END
>  <s_epik_cmdline>  (1579) 
J2VwaWtfcHl0aG9uJywgJy1waCcsICc3LjAwMDAwMCcsICctcGh0JywgJzIuMDAwMDAwJywgJy1tcycsICcxNicsICctdG4nLCAnOCcsICctbWEnLCAnMjAwJywgJy1pbWFlJywgJzxpbmZpbGUubWFlPicsICctb21hZScsICc8b3V0ZmlsZS5tYWU+Jw==

>  <s_epik_input>  (1579) 
W2NIXTFbY0hdW2NIXVtjSF1bY0hdYzFOKFtDSDNdKVtDSDJdQyg9TylbTkhdYyhuMiljKFtjSF1jKGMyMylbY0hdW2NIXVtjSF1bY0hdMylbTkhdYzRbY0hdW2NIXWMoW2NIXVtjSF00KVtOSF1bQ0gyXVtDSDJdW09IXQ==

>  <s_i_glide_gridfile>  (1579) 
ATP-Grid

>  <s_lp_Force_Field>  (1579) 
OPLS_2005

>  <s_lp_Variant>  (1579) 
rxn502b____EMOL31412043____EMOL44466703____EMOL8314610-1

>  <s_lp_label>  (1579) 
2566_sdstereoexpander_1_neutralizer_1_epik_1_stereoizer_1

>  <s_m_source_file>  (1579) 
ATP-VSW-LIGPREP-003-in.maegz

>  <s_sd_BIOSOLVEIT.INFINISEE\_QUERY\_NAME>  (1579) 
Ref-Lig

>  <s_sd_BIOSOLVEIT.INFINISEE\_QUERY\_SMILES>  (1579) 
S(c1nc2c(cc1C[NH2+]Cc3ccc(cc3)C[NH+](C)C)cccc2)Cc4ccccc4

>  <s_sd_BIOSOLVEIT.INFINISEE\_REACTION\_NAME>  (1579) 
rxn502b

>  <s_sd_BIOSOLVEIT.INFINISEE\_REAGENT1\_NAME>  (1579) 
EMOL31412043

>  <s_sd_BIOSOLVEIT.INFINISEE\_REAGENT1\_SMILES>  (1579) 
O=C(O)CN(c1ccccc1)C

>  <s_sd_BIOSOLVEIT.INFINISEE\_REAGENT2\_NAME>  (1579) 
EMOL44466703

>  <s_sd_BIOSOLVEIT.INFINISEE\_REAGENT2\_SMILES>  (1579) 
Brc1c(nc2c(c1)cccc2)N

>  <s_sd_BIOSOLVEIT.INFINISEE\_REAGENT3\_NAME>  (1579) 
EMOL8314610

>  <s_sd_BIOSOLVEIT.INFINISEE\_REAGENT3\_SMILES>  (1579) 
OCCNc1ccc(N)cc1

>  <s_sd_BIOSOLVEIT.INFINISEE\_SPACE>  (1579) 
eXplore_7tr_2022-12

>  <s_vsw_compound_code>  (1579) 
82083

>  <s_vsw_variant>  (1579) 
82083-1

>  <r_epik_Charging_Adjusted_Penalty>  (1579) 
0.041046206892920802

>  <r_epik_Ionization_Penalty>  (1579) 
0.042099999999999999

>  <r_epik_Ionization_Penalty_Charging>  (1579) 
0

>  <r_epik_Ionization_Penalty_Neutral>  (1579) 
0.042099999999999999

>  <r_epik_State_Penalty>  (1579) 
0.041000000000000002

>  <r_i_docking_score>  (1579) 
-5.5235998945164502

>  <r_i_glide_ecoul>  (1579) 
-9.1879310607910192

>  <r_i_glide_eff_state_penalty>  (1579) 
0.041000000000000002

>  <r_i_glide_einternal>  (1579) 
9.8351716995239293

>  <r_i_glide_emodel>  (1579) 
-67.629285412625094

>  <r_i_glide_energy>  (1579) 
-51.800712585449197

>  <r_i_glide_erotb>  (1579) 
0.92222097978222195

>  <r_i_glide_esite>  (1579) 
-0.24747281805996299

>  <r_i_glide_evdw>  (1579) 
-42.612781524658203

>  <r_i_glide_gscore>  (1579) 
-5.5645998945164497

>  <r_i_glide_hbond>  (1579) 
-0.36228789546300799

>  <r_i_glide_ligand_efficiency>  (1579) 
-0.16738181498534699

>  <r_i_glide_ligand_efficiency_ln>  (1579) 
-1.2284200168708299

>  <r_i_glide_ligand_efficiency_sa>  (1579) 
-0.53688291715677205

>  <r_i_glide_lipo>  (1579) 
-1.96953742542414

>  <r_i_glide_metal>  (1579) 
-0

>  <r_i_glide_rewards>  (1579) 
-0.39869399999999799

>  <r_lp_Energy>  (1579) 
29.564952999999999

>  <r_qp_ACxDN^.5/SA>  (1579) 
0.021463200000000002

>  <r_qp_CIQPlogS>  (1579) 
-6.2279999999999998

>  <r_qp_EA(eV)>  (1579) 
0.89800000000000002

>  <r_qp_FISA>  (1579) 
122.997

>  <r_qp_FOSA>  (1579) 
185.84399999999999

>  <r_qp_IP(eV)>  (1579) 
7.6470000000000002

>  <r_qp_Jm>  (1579) 
0.36731936268593302

>  <r_qp_PISA>  (1579) 
408.666

>  <r_qp_PSA>  (1579) 
92.608000000000004

>  <r_qp_PercentHumanOralAbsorption>  (1579) 
100

>  <r_qp_QPPCaco>  (1579) 
675.34100000000001

>  <r_qp_QPPMDCK>  (1579) 
323.65699999999998

>  <r_qp_QPlogBB>  (1579) 
-1.238

>  <r_qp_QPlogHERG>  (1579) 
-6.2809999999999997

>  <r_qp_QPlogKhsa>  (1579) 
0.27100000000000002

>  <r_qp_QPlogKp>  (1579) 
-1.387

>  <r_qp_QPlogPC16>  (1579) 
15.472

>  <r_qp_QPlogPo/w>  (1579) 
3.7909999999999999

>  <r_qp_QPlogPoct>  (1579) 
25.539000000000001

>  <r_qp_QPlogPw>  (1579) 
16.298999999999999

>  <r_qp_QPlogS>  (1579) 
-4.6929999999999996

>  <r_qp_QPpolrz>  (1579) 
45.715000000000003

>  <r_qp_SASA>  (1579) 
717.50699999999995

>  <r_qp_SAamideO>  (1579) 
0

>  <r_qp_SAfluorine>  (1579) 
0

>  <r_qp_WPSA>  (1579) 
0

>  <r_qp_accptHB>  (1579) 
7.7000000000000002

>  <r_qp_dip^2/V>  (1579) 
0.019272600000000001

>  <r_qp_dipole>  (1579) 
5.1180000000000003

>  <r_qp_donorHB>  (1579) 
4

>  <r_qp_glob>  (1579) 
0.82695989999999997

>  <r_qp_mol_MW>  (1579) 
441.53199999999998

>  <r_qp_volume>  (1579) 
1358.9960000000001

>  <r_sd_BIOSOLVEIT.INFINISEE\_FTREES\_SIMILARITY>  (1579) 
0.91200000000000003

>  <r_sd_BIOSOLVEIT.LOGP>  (1579) 
4.4574999999999996

>  <r_sd_BIOSOLVEIT.MOLECULAR\_WEIGHT>  (1579) 
441.53199999999998

>  <r_sd_BIOSOLVEIT.TPSA>  (1579) 
89.519999999999996

>  <i_epik_Tot_Q>  (1579) 
0

>  <i_epik_Tot_abs_Q>  (1579) 
0

>  <i_f3d_flags>  (1579) 
0

>  <i_i_glide_confnum>  (1579) 
4

>  <i_i_glide_lignum>  (1579) 
1135

>  <i_i_glide_posenum>  (1579) 
19

>  <i_i_glide_rotatable_bonds>  (1579) 
11

>  <i_lp_mmshare_version>  (1579) 
65135

>  <i_m_ct_format>  (1579) 
2

>  <i_m_source_file_index>  (1579) 
2566

>  <i_qp_#NandO>  (1579) 
7

>  <i_qp_#acid>  (1579) 
0

>  <i_qp_#amide>  (1579) 
0

>  <i_qp_#amidine>  (1579) 
0

>  <i_qp_#amine>  (1579) 
0

>  <i_qp_#in34>  (1579) 
0

>  <i_qp_#in56>  (1579) 
22

>  <i_qp_#metab>  (1579) 
8

>  <i_qp_#nonHatm>  (1579) 
33

>  <i_qp_#noncon>  (1579) 
0

>  <i_qp_#ringatoms>  (1579) 
22

>  <i_qp_#rotor>  (1579) 
10

>  <i_qp_#rtvFG>  (1579) 
0

>  <i_qp_#stars>  (1579) 
1

>  <i_qp_CNS>  (1579) 
-2

>  <i_qp_HumanOralAbsorption>  (1579) 
3

>  <i_qp_RuleOfFive>  (1579) 
0

>  <i_qp_RuleOfThree>  (1579) 
1

>  <i_sd_BIOSOLVEIT.INFINISEE\_RESULT\_RANK>  (1579) 
37485

>  <i_sd_version>  (1579) 
0

>  <b_lp_Chiralities_Consistent>  (1579) 
1

>  <b_sd_chiral_flag>  (1579) 
0

>  <canonical_id>  (1579) 
ATP-HTVS-F8C49F655F6D

>  <compound_code>  (1579) 
82083

>  <title>  (1579) 
rxn502b____EMOL31412043____EMOL44466703____EMOL8314610

>  <variant>  (1579) 
82083-1

>  <source_file>  (1579) 
运行/运行/ATP-VSW/ATP-VSW-DOCK_HTVS_1-003_lib/ATP-VSW-DOCK_HTVS_1-003_lib.mae

>  <canonical_smiles>  (1579) 
CN(CC(=O)Nc1nc2ccccc2cc1Nc1ccc(NCCO)cc1)c1ccccc1

>  <scaffold>  (1579) 
O=C(CNc1ccccc1)Nc1nc2ccccc2cc1Nc1ccccc1

>  <molecular_formula>  (1579) 
C26H27N5O2

$$$$
ATP-HTVS-F8CA9C936D19
     RDKit          3D

 59 61  0  0  0  0  0  0  0  0999 V2000
  197.2460  182.1186  152.3384 S   0  0  0  0  0  0  0  0  0  0  0  0
  197.5282  180.4955  152.9564 C   0  0  0  0  0  0  0  0  0  0  0  0
  197.3919  180.4338  154.2862 N   0  0  0  0  0  0  0  0  0  0  0  0
  197.2803  181.6680  154.8748 C   0  0  0  0  0  0  0  0  0  0  0  0
  197.1207  182.6907  153.9718 C   0  0  0  0  0  0  0  0  0  0  0  0
  197.3391  181.7897  156.3466 C   0  0  1  0  0  0  0  0  0  0  0  0
  196.0187  181.4872  156.9260 N   0  0  1  0  0  0  0  0  0  0  0  0
  195.7885  181.8840  158.3281 C   0  0  1  0  0  0  0  0  0  0  0  0
  196.1904  183.3385  158.5923 C   0  0  0  0  0  0  0  0  0  0  0  0
  195.2502  184.3859  158.5311 C   0  0  0  0  0  0  0  0  0  0  0  0
  195.6545  185.7130  158.6847 C   0  0  0  0  0  0  0  0  0  0  0  0
  197.0009  186.0339  158.9403 C   0  0  0  0  0  0  0  0  0  0  0  0
  197.9532  184.9960  159.0055 C   0  0  0  0  0  0  0  0  0  0  0  0
  197.5472  183.6604  158.8744 C   0  0  0  0  0  0  0  0  0  0  0  0
  197.3944  187.4881  159.1538 C   0  0  1  0  0  0  0  0  0  0  0  0
  197.1109  187.9758  160.5354 N   0  0  2  0  0  0  0  0  0  0  0  0
  195.8289  187.5214  161.1397 C   0  0  2  0  0  0  0  0  0  0  0  0
  197.2642  189.4373  160.6385 C   0  0  2  0  0  0  0  0  0  0  0  0
  194.3126  181.6025  158.6913 C   0  0  2  0  0  0  0  0  0  0  0  0
  197.8474  179.3118  152.1025 C   0  0  1  0  0  0  0  0  0  0  0  0
  199.1622  178.6349  152.5311 C   0  0  0  0  0  0  0  0  0  0  0  0
  199.9939  178.3586  151.6690 O   0  0  0  0  0  0  0  0  0  0  0  0
  199.2942  178.3444  153.8474 N   0  0  0  0  0  0  0  0  0  0  0  0
  200.2170  177.5651  154.5684 C   0  0  0  0  0  0  0  0  0  0  0  0
  200.0039  177.4252  155.9556 C   0  0  0  0  0  0  0  0  0  0  0  0
  200.8786  176.6405  156.7372 C   0  0  0  0  0  0  0  0  0  0  0  0
  201.9539  175.9707  156.1258 C   0  0  0  0  0  0  0  0  0  0  0  0
  202.1704  176.1078  154.7406 C   0  0  0  0  0  0  0  0  0  0  0  0
  201.3036  176.8944  153.9627 C   0  0  0  0  0  0  0  0  0  0  0  0
  195.3006  181.8899  156.3402 H   0  0  0  0  0  0  0  0  0  0  0  0
  196.9497  183.7417  154.1636 H   0  0  0  0  0  0  0  0  0  0  0  0
  198.0890  181.1260  156.7850 H   0  0  0  0  0  0  0  0  0  0  0  0
  197.6768  182.8035  156.5226 H   0  0  0  0  0  0  0  0  0  0  0  0
  196.4109  181.2451  158.9576 H   0  0  0  0  0  0  0  0  0  0  0  0
  194.1964  184.2156  158.3480 H   0  0  0  0  0  0  0  0  0  0  0  0
  194.9108  186.4877  158.6169 H   0  0  0  0  0  0  0  0  0  0  0  0
  199.0022  185.2255  159.1545 H   0  0  0  0  0  0  0  0  0  0  0  0
  198.2927  182.8742  158.9272 H   0  0  0  0  0  0  0  0  0  0  0  0
  198.4624  187.6125  158.9552 H   0  0  0  0  0  0  0  0  0  0  0  0
  196.8724  188.0977  158.4112 H   0  0  0  0  0  0  0  0  0  0  0  0
  194.9841  187.8356  160.5300 H   0  0  0  0  0  0  0  0  0  0  0  0
  195.6820  187.9214  162.1355 H   0  0  0  0  0  0  0  0  0  0  0  0
  195.7875  186.4330  161.2427 H   0  0  0  0  0  0  0  0  0  0  0  0
  196.5206  189.9492  160.0246 H   0  0  0  0  0  0  0  0  0  0  0  0
  198.2590  189.7497  160.3170 H   0  0  0  0  0  0  0  0  0  0  0  0
  197.1368  189.7586  161.6735 H   0  0  0  0  0  0  0  0  0  0  0  0
  194.1691  181.8999  159.7257 H   0  0  0  0  0  0  0  0  0  0  0  0
  194.0255  180.5572  158.6004 H   0  0  0  0  0  0  0  0  0  0  0  0
  193.6141  182.1578  158.0583 H   0  0  0  0  0  0  0  0  0  0  0  0
  197.0155  178.6057  152.1865 H   0  0  0  0  0  0  0  0  0  0  0  0
  197.9232  179.6378  151.0643 H   0  0  0  0  0  0  0  0  0  0  0  0
  198.5375  178.7482  154.4166 H   0  0  0  0  0  0  0  0  0  0  0  0
  199.1708  177.9119  156.4474 H   0  0  0  0  0  0  0  0  0  0  0  0
  200.7121  176.5456  157.8036 H   0  0  0  0  0  0  0  0  0  0  0  0
  202.6280  175.3674  156.7196 H   0  0  0  0  0  0  0  0  0  0  0  0
  202.9977  175.6035  154.2591 H   0  0  0  0  0  0  0  0  0  0  0  0
  201.4957  176.9668  152.9034 H   0  0  0  0  0  0  0  0  0  0  0  0
  197.8379  187.5859  161.1220 H   0  0  0  0  0  0  0  0  0  0  0  0
  195.8875  180.4670  156.9533 H   0  0  0  0  0  0  0  0  0  0  0  0
  1  2  1  0
  1  5  1  0
  2  3  2  0
  2 20  1  0
  3  4  1  0
  4  5  2  0
  4  6  1  0
  5 31  1  0
  6  7  1  0
  6 32  1  1
  6 33  1  0
  7  8  1  0
  7 30  1  6
  7 59  1  0
  8  9  1  0
  8 19  1  0
  8 34  1  1
  9 10  1  0
  9 14  2  0
 10 11  2  0
 10 35  1  0
 11 12  1  0
 11 36  1  0
 12 13  2  0
 12 15  1  0
 13 14  1  0
 13 37  1  0
 14 38  1  0
 15 16  1  0
 15 39  1  6
 15 40  1  0
 16 17  1  0
 16 18  1  0
 16 58  1  1
 17 41  1  6
 17 42  1  0
 17 43  1  0
 18 44  1  6
 18 45  1  0
 18 46  1  0
 19 47  1  1
 19 48  1  0
 19 49  1  0
 20 21  1  0
 20 50  1  6
 20 51  1  0
 21 22  2  0
 21 23  1  0
 23 24  1  0
 23 52  1  0
 24 25  2  0
 24 29  1  0
 25 26  1  0
 25 53  1  0
 26 27  2  0
 26 54  1  0
 27 28  1  0
 27 55  1  0
 28 29  2  0
 28 56  1  0
 29 57  1  0
M  CHG  2   7   1  16   1
M  END
>  <s_epik_cmdline>  (1580) 
J2VwaWtfcHl0aG9uJywgJy1waCcsICc3LjAwMDAwMCcsICctcGh0JywgJzIuMDAwMDAwJywgJy1tcycsICcxNicsICctdG4nLCAnOCcsICctbWEnLCAnMjAwJywgJy1pbWFlJywgJzxpbmZpbGUubWFlPicsICctb21hZScsICc8b3V0ZmlsZS5tYWU+Jw==

>  <s_epik_input>  (1580) 
W2NIXTFbY0hdW2NIXVtjSF1bY0hdYzFbTkhdQyg9TylbQ0gyXWMyc1tjSF1jKG4yKVtDSDJdW05IXVtDQEhdKFtDSDNdKWMzW2NIXVtjSF1jKFtjSF1bY0hdMylbQ0gyXU4oW0NIM10pW0NIM10=

>  <s_i_glide_gridfile>  (1580) 
ATP-Grid

>  <s_lp_Force_Field>  (1580) 
OPLS_2005

>  <s_lp_Variant>  (1580) 
m_2230bbb____22404674____7471612-1

>  <s_lp_label>  (1580) 
2069_sdstereoexpander_1_neutralizer_1_epik_1_stereoizer_1

>  <s_m_source_file>  (1580) 
ATP-VSW-LIGPREP-001-in.maegz

>  <s_sd_BIOSOLVEIT.INFINISEE\_QUERY\_NAME>  (1580) 
Ref-Lig

>  <s_sd_BIOSOLVEIT.INFINISEE\_QUERY\_SMILES>  (1580) 
S(c1nc2c(cc1C[NH2+]Cc3ccc(cc3)C[NH+](C)C)cccc2)Cc4ccccc4

>  <s_sd_BIOSOLVEIT.INFINISEE\_REACTION\_NAME>  (1580) 
m_2230bbb

>  <s_sd_BIOSOLVEIT.INFINISEE\_REAGENT1\_SMILES>  (1580) 
[R1*]NC(c1ccc(cc1)CN(C)C)C

>  <s_sd_BIOSOLVEIT.INFINISEE\_REAGENT2\_SMILES>  (1580) 
[R1*]CC=1N=C(SC1)CC(=O)Nc2ccccc2

>  <s_sd_BIOSOLVEIT.INFINISEE\_SPACE>  (1580) 
REALSpace_44bn_2023-08

>  <s_vsw_compound_code>  (1580) 
66177

>  <s_vsw_variant>  (1580) 
66177-1

>  <r_epik_Charging_Adjusted_Penalty>  (1580) 
0.42171508261021601

>  <r_epik_Ionization_Penalty>  (1580) 
0.21110000000000001

>  <r_epik_Ionization_Penalty_Charging>  (1580) 
0.21110000000000001

>  <r_epik_Ionization_Penalty_Neutral>  (1580) 
0

>  <r_epik_State_Penalty>  (1580) 
0.21060000000000001

>  <r_i_docking_score>  (1580) 
-5.1904878490302

>  <r_i_glide_ecoul>  (1580) 
-14.1660356521606

>  <r_i_glide_eff_state_penalty>  (1580) 
0.21060000000000001

>  <r_i_glide_einternal>  (1580) 
7.1776590347290004

>  <r_i_glide_emodel>  (1580) 
-67.981677125743104

>  <r_i_glide_energy>  (1580) 
-46.061264991760297

>  <r_i_glide_erotb>  (1580) 
0.93497750306097305

>  <r_i_glide_esite>  (1580) 
-0.109499112487742

>  <r_i_glide_evdw>  (1580) 
-31.895229339599599

>  <r_i_glide_gscore>  (1580) 
-5.4010878490302003

>  <r_i_glide_hbond>  (1580) 
-0.38797606265731799

>  <r_i_glide_ligand_efficiency>  (1580) 
-0.17898233962173099

>  <r_i_glide_ligand_efficiency_ln>  (1580) 
-1.1884900980124999

>  <r_i_glide_ligand_efficiency_sa>  (1580) 
-0.54989045290324801

>  <r_i_glide_lipo>  (1580) 
-1.2712713422683899

>  <r_i_glide_metal>  (1580) 
-0

>  <r_i_glide_rewards>  (1580) 
-0.84765201987364602

>  <r_lp_Energy>  (1580) 
19.594631

>  <r_qp_ACxDN^.5/SA>  (1580) 
0.013128000000000001

>  <r_qp_CIQPlogS>  (1580) 
-3.4180000000000001

>  <r_qp_EA(eV)>  (1580) 
0.79700000000000004

>  <r_qp_FISA>  (1580) 
59.755000000000003

>  <r_qp_FOSA>  (1580) 
344.59100000000001

>  <r_qp_IP(eV)>  (1580) 
8.7650000000000006

>  <r_qp_Jm>  (1580) 
0.00039231626099314

>  <r_qp_PISA>  (1580) 
358.93799999999999

>  <r_qp_PSA>  (1580) 
66.873999999999995

>  <r_qp_PercentHumanOralAbsorption>  (1580) 
90.013999999999996

>  <r_qp_QPPCaco>  (1580) 
167.125

>  <r_qp_QPPMDCK>  (1580) 
153.78899999999999

>  <r_qp_QPlogBB>  (1580) 
0.22700000000000001

>  <r_qp_QPlogHERG>  (1580) 
-8.673

>  <r_qp_QPlogKhsa>  (1580) 
0.53500000000000003

>  <r_qp_QPlogKp>  (1580) 
-4.617

>  <r_qp_QPlogPC16>  (1580) 
15.374000000000001

>  <r_qp_QPlogPo/w>  (1580) 
3.976

>  <r_qp_QPlogPoct>  (1580) 
22.846

>  <r_qp_QPlogPw>  (1580) 
12.859

>  <r_qp_QPlogS>  (1580) 
-4.4000000000000004

>  <r_qp_QPpolrz>  (1580) 
48.100000000000001

>  <r_qp_SASA>  (1580) 
807.93899999999996

>  <r_qp_SAamideO>  (1580) 
0

>  <r_qp_SAfluorine>  (1580) 
0

>  <r_qp_WPSA>  (1580) 
44.654000000000003

>  <r_qp_accptHB>  (1580) 
7.5

>  <r_qp_dip^2/V>  (1580) 
0.016137700000000001

>  <r_qp_dipole>  (1580) 
4.7779999999999996

>  <r_qp_donorHB>  (1580) 
2

>  <r_qp_glob>  (1580) 
0.75423249999999997

>  <r_qp_mol_MW>  (1580) 
408.56

>  <r_qp_volume>  (1580) 
1414.4179999999999

>  <r_sd_BIOSOLVEIT.INFINISEE\_FTREES\_SIMILARITY>  (1580) 
0.90100000000000002

>  <r_sd_BIOSOLVEIT.LOGP>  (1580) 
1.7934000000000001

>  <r_sd_BIOSOLVEIT.MOLECULAR\_WEIGHT>  (1580) 
410.58199999999999

>  <r_sd_BIOSOLVEIT.TPSA>  (1580) 
63.039999999999999

>  <i_epik_Tot_Q>  (1580) 
2

>  <i_epik_Tot_abs_Q>  (1580) 
2

>  <i_f3d_flags>  (1580) 
0

>  <i_i_glide_confnum>  (1580) 
7

>  <i_i_glide_lignum>  (1580) 
637

>  <i_i_glide_posenum>  (1580) 
1

>  <i_i_glide_rotatable_bonds>  (1580) 
10

>  <i_lp_mmshare_version>  (1580) 
65135

>  <i_m_ct_format>  (1580) 
2

>  <i_m_source_file_index>  (1580) 
2069

>  <i_qp_#NandO>  (1580) 
5

>  <i_qp_#acid>  (1580) 
0

>  <i_qp_#amide>  (1580) 
0

>  <i_qp_#amidine>  (1580) 
0

>  <i_qp_#amine>  (1580) 
2

>  <i_qp_#in34>  (1580) 
0

>  <i_qp_#in56>  (1580) 
17

>  <i_qp_#metab>  (1580) 
8

>  <i_qp_#nonHatm>  (1580) 
29

>  <i_qp_#noncon>  (1580) 
0

>  <i_qp_#ringatoms>  (1580) 
17

>  <i_qp_#rotor>  (1580) 
9

>  <i_qp_#rtvFG>  (1580) 
0

>  <i_qp_#stars>  (1580) 
0

>  <i_qp_CNS>  (1580) 
1

>  <i_qp_HumanOralAbsorption>  (1580) 
3

>  <i_qp_RuleOfFive>  (1580) 
0

>  <i_qp_RuleOfThree>  (1580) 
1

>  <i_sd_BIOSOLVEIT.INFINISEE\_REAGENT1\_NAME>  (1580) 
22404674

>  <i_sd_BIOSOLVEIT.INFINISEE\_REAGENT2\_NAME>  (1580) 
7471612

>  <i_sd_BIOSOLVEIT.INFINISEE\_RESULT\_RANK>  (1580) 
95244

>  <i_sd_version>  (1580) 
0

>  <b_lp_Chiralities_Consistent>  (1580) 
1

>  <b_sd_chiral_flag>  (1580) 
0

>  <canonical_id>  (1580) 
ATP-HTVS-F8CA9C936D19

>  <compound_code>  (1580) 
66177

>  <title>  (1580) 
m_2230bbb____22404674____7471612

>  <variant>  (1580) 
66177-1

>  <source_file>  (1580) 
运行/运行/ATP-VSW/ATP-VSW-DOCK_HTVS_1-001_lib/ATP-VSW-DOCK_HTVS_1-001_lib

>  <canonical_smiles>  (1580) 
C[C@@H]([NH2+]Cc1csc(CC(=O)Nc2ccccc2)n1)c1ccc(C[NH+](C)C)cc1

>  <scaffold>  (1580) 
O=C(Cc1nc(C[NH2+]Cc2ccccc2)cs1)Nc1ccccc1

>  <molecular_formula>  (1580) 
C23H30N4OS+2

$$$$
ATP-HTVS-F8CD80CEA373
     RDKit          3D

 51 54  0  0  0  0  0  0  0  0999 V2000
  197.6148  177.8551  146.0692 Cl  0  0  0  0  0  0  0  0  0  0  0  0
  197.7451  178.1125  147.7728 C   0  0  0  0  0  0  0  0  0  0  0  0
  198.7996  177.5179  148.5238 C   0  0  0  0  0  0  0  0  0  0  0  0
  198.8804  177.7669  149.9260 C   0  0  0  0  0  0  0  0  0  0  0  0
  197.9055  178.5708  150.5694 C   0  0  0  0  0  0  0  0  0  0  0  0
  198.0748  178.8331  151.9472 N   0  0  0  0  0  0  0  0  0  0  0  0
  197.1810  179.6711  152.7382 C   0  0  1  0  0  0  0  0  0  0  0  0
  196.7599  180.9538  152.0044 C   0  0  1  0  0  0  0  0  0  0  0  0
  196.6850  182.1215  152.8216 N   0  0  0  0  0  0  0  0  0  0  0  0
  197.2259  183.3549  152.4119 C   0  0  0  0  0  0  0  0  0  0  0  0
  197.5355  183.7889  151.0582 C   0  0  0  0  0  0  0  0  0  0  0  0
  198.0284  185.1281  151.1624 C   0  0  0  0  0  0  0  0  0  0  0  0
  197.9891  185.4453  152.5123 N   0  0  0  0  0  0  0  0  0  0  0  0
  197.5352  184.3741  153.2644 C   0  0  0  0  0  0  0  0  0  0  0  0
  197.4040  184.5086  154.7363 C   0  0  0  0  0  0  0  0  0  0  0  0
  196.9171  185.5462  155.1893 O   0  0  0  0  0  0  0  0  0  0  0  0
  197.8685  183.5035  155.5241 N   0  0  0  0  0  0  0  0  0  0  0  0
  198.6673  182.5318  155.0135 C   0  0  0  0  0  0  0  0  0  0  0  0
  199.3589  181.6922  154.6297 N   0  0  0  0  0  0  0  0  0  0  0  0
  197.7143  183.5324  156.9363 C   0  0  0  0  0  0  0  0  0  0  0  0
  198.8586  183.5423  157.7642 C   0  0  0  0  0  0  0  0  0  0  0  0
  198.7160  183.5337  159.1643 C   0  0  0  0  0  0  0  0  0  0  0  0
  197.4321  183.4981  159.7391 C   0  0  0  0  0  0  0  0  0  0  0  0
  196.2891  183.4682  158.9216 C   0  0  0  0  0  0  0  0  0  0  0  0
  196.4290  183.4845  157.5221 C   0  0  0  0  0  0  0  0  0  0  0  0
  198.4233  185.8759  150.0350 C   0  0  0  0  0  0  0  0  0  0  0  0
  198.3420  185.3024  148.7524 C   0  0  0  0  0  0  0  0  0  0  0  0
  197.8524  183.9927  148.6048 C   0  0  0  0  0  0  0  0  0  0  0  0
  197.4520  183.2560  149.7401 C   0  0  0  0  0  0  0  0  0  0  0  0
  196.8097  179.1008  149.8175 C   0  0  0  0  0  0  0  0  0  0  0  0
  196.7799  178.8971  148.4356 C   0  0  0  0  0  0  0  0  0  0  0  0
  199.5270  176.8825  148.0272 H   0  0  0  0  0  0  0  0  0  0  0  0
  199.7049  177.3259  150.4817 H   0  0  0  0  0  0  0  0  0  0  0  0
  198.9118  178.5286  152.4157 H   0  0  0  0  0  0  0  0  0  0  0  0
  196.3021  179.1088  153.0474 H   0  0  0  0  0  0  0  0  0  0  0  0
  197.7014  179.9202  153.6685 H   0  0  0  0  0  0  0  0  0  0  0  0
  197.4891  181.1520  151.2181 H   0  0  0  0  0  0  0  0  0  0  0  0
  195.7775  180.8375  151.5659 H   0  0  0  0  0  0  0  0  0  0  0  0
  196.1854  182.0807  153.7088 H   0  0  0  0  0  0  0  0  0  0  0  0
  198.2303  186.3308  152.9379 H   0  0  0  0  0  0  0  0  0  0  0  0
  199.8507  183.5552  157.3343 H   0  0  0  0  0  0  0  0  0  0  0  0
  199.5879  183.5367  159.8020 H   0  0  0  0  0  0  0  0  0  0  0  0
  197.3227  183.4712  160.8127 H   0  0  0  0  0  0  0  0  0  0  0  0
  195.3062  183.4161  159.3662 H   0  0  0  0  0  0  0  0  0  0  0  0
  195.5486  183.4344  156.8988 H   0  0  0  0  0  0  0  0  0  0  0  0
  198.7848  186.8871  150.1549 H   0  0  0  0  0  0  0  0  0  0  0  0
  198.6514  185.8563  147.8796 H   0  0  0  0  0  0  0  0  0  0  0  0
  197.7888  183.5532  147.6171 H   0  0  0  0  0  0  0  0  0  0  0  0
  197.0697  182.2640  149.5622 H   0  0  0  0  0  0  0  0  0  0  0  0
  196.0056  179.6555  150.2211 H   0  0  0  0  0  0  0  0  0  0  0  0
  195.9896  179.3616  147.8689 H   0  0  0  0  0  0  0  0  0  0  0  0
  1  2  1  0
  2  3  1  0
  2 31  2  0
  3  4  2  0
  3 32  1  0
  4  5  1  0
  4 33  1  0
  5  6  1  0
  5 30  2  0
  6  7  1  0
  6 34  1  0
  7  8  1  0
  7 35  1  1
  7 36  1  0
  8  9  1  0
  8 37  1  6
  8 38  1  0
  9 10  1  0
  9 39  1  0
 10 11  1  0
 10 14  2  0
 11 12  1  0
 11 29  2  0
 12 13  1  0
 12 26  2  0
 13 14  1  0
 13 40  1  0
 14 15  1  0
 15 16  2  0
 15 17  1  0
 17 18  1  0
 17 20  1  0
 18 19  3  0
 20 21  2  0
 20 25  1  0
 21 22  1  0
 21 41  1  0
 22 23  2  0
 22 42  1  0
 23 24  1  0
 23 43  1  0
 24 25  2  0
 24 44  1  0
 25 45  1  0
 26 27  1  0
 26 46  1  0
 27 28  2  0
 27 47  1  0
 28 29  1  0
 28 48  1  0
 29 49  1  0
 30 31  1  0
 30 50  1  0
 31 51  1  0
M  END
>  <s_epik_cmdline>  (1581) 
J2VwaWtfcHl0aG9uJywgJy1waCcsICc3LjAwMDAwMCcsICctcGh0JywgJzIuMDAwMDAwJywgJy1tcycsICcxNicsICctdG4nLCAnOCcsICctbWEnLCAnMjAwJywgJy1pbWFlJywgJzxpbmZpbGUubWFlPicsICctb21hZScsICc8b3V0ZmlsZS5tYWU+Jw==

>  <s_epik_input>  (1581) 
Q2xjMVtjSF1bY0hdYyhbY0hdW2NIXTEpW05IXVtDSDJdW0NIMl1bTkhdYzJjKFtuSF1jKGMyMylbY0hdW2NIXVtjSF1bY0hdMylDKD1PKU4oQyNOKWM0W2NIXVtjSF1bY0hdW2NIXVtjSF00

>  <s_i_glide_gridfile>  (1581) 
ATP-Grid

>  <s_lp_Force_Field>  (1581) 
OPLS_2005

>  <s_lp_Variant>  (1581) 
rxn512b____EMOL36822768____EMOL719673____EMOL49832880-1

>  <s_lp_label>  (1581) 
2944_sdstereoexpander_1_neutralizer_1_epik_1_stereoizer_1

>  <s_m_source_file>  (1581) 
ATP-VSW-LIGPREP-001-in.maegz

>  <s_sd_BIOSOLVEIT.INFINISEE\_QUERY\_NAME>  (1581) 
Ref-Lig

>  <s_sd_BIOSOLVEIT.INFINISEE\_QUERY\_SMILES>  (1581) 
S(c1nc2c(cc1C[NH2+]Cc3ccc(cc3)C[NH+](C)C)cccc2)Cc4ccccc4

>  <s_sd_BIOSOLVEIT.INFINISEE\_REACTION\_NAME>  (1581) 
rxn512b

>  <s_sd_BIOSOLVEIT.INFINISEE\_REAGENT1\_NAME>  (1581) 
EMOL36822768

>  <s_sd_BIOSOLVEIT.INFINISEE\_REAGENT1\_SMILES>  (1581) 
N#CNc1ccccc1

>  <s_sd_BIOSOLVEIT.INFINISEE\_REAGENT2\_NAME>  (1581) 
EMOL719673

>  <s_sd_BIOSOLVEIT.INFINISEE\_REAGENT2\_SMILES>  (1581) 
BrC=1c2c(NC1C(=O)O)cccc2

>  <s_sd_BIOSOLVEIT.INFINISEE\_REAGENT3\_NAME>  (1581) 
EMOL49832880

>  <s_sd_BIOSOLVEIT.INFINISEE\_REAGENT3\_SMILES>  (1581) 
Clc1ccc(NCCN)cc1

>  <s_sd_BIOSOLVEIT.INFINISEE\_SPACE>  (1581) 
eXplore_7tr_2022-12

>  <s_vsw_compound_code>  (1581) 
94177

>  <s_vsw_variant>  (1581) 
94177-1

>  <r_epik_Charging_Adjusted_Penalty>  (1581) 
0

>  <r_epik_Ionization_Penalty>  (1581) 
0.0015

>  <r_epik_Ionization_Penalty_Charging>  (1581) 
0

>  <r_epik_Ionization_Penalty_Neutral>  (1581) 
0.0015

>  <r_epik_State_Penalty>  (1581) 
-0

>  <r_i_docking_score>  (1581) 
-3.5178668094663599

>  <r_i_glide_ecoul>  (1581) 
-0.82438611984252896

>  <r_i_glide_eff_state_penalty>  (1581) 
-0

>  <r_i_glide_einternal>  (1581) 
6.4502654075622603

>  <r_i_glide_emodel>  (1581) 
-40.090172678230999

>  <r_i_glide_energy>  (1581) 
-35.2509188652039

>  <r_i_glide_erotb>  (1581) 
0.75283632150353397

>  <r_i_glide_esite>  (1581) 
-0.054478350817889203

>  <r_i_glide_evdw>  (1581) 
-34.4265327453613

>  <r_i_glide_gscore>  (1581) 
-3.5178668094663599

>  <r_i_glide_hbond>  (1581) 
0

>  <r_i_glide_ligand_efficiency>  (1581) 
-0.11347957449891501

>  <r_i_glide_ligand_efficiency_ln>  (1581) 
-0.79338677520492396

>  <r_i_glide_ligand_efficiency_sa>  (1581) 
-0.35648253936444702

>  <r_i_glide_lipo>  (1581) 
-1.8477668264109799

>  <r_i_glide_metal>  (1581) 
-0

>  <r_i_glide_rewards>  (1581) 
-0.52347339849658603

>  <r_lp_Energy>  (1581) 
43.727418

>  <r_lp_tautomer_probability>  (1581) 
1

>  <r_qp_ACxDN^.5/SA>  (1581) 
0.0100739

>  <r_qp_CIQPlogS>  (1581) 
-5.8940000000000001

>  <r_qp_EA(eV)>  (1581) 
0.54300000000000004

>  <r_qp_FISA>  (1581) 
114.32899999999999

>  <r_qp_FOSA>  (1581) 
64.622

>  <r_qp_IP(eV)>  (1581) 
7.7859999999999996

>  <r_qp_Jm>  (1581) 
0.00038556244286958399

>  <r_qp_PISA>  (1581) 
521.49800000000005

>  <r_qp_PSA>  (1581) 
89.176000000000002

>  <r_qp_PercentHumanOralAbsorption>  (1581) 
96.399000000000001

>  <r_qp_QPPCaco>  (1581) 
203.523

>  <r_qp_QPPMDCK>  (1581) 
241.82900000000001

>  <r_qp_QPlogBB>  (1581) 
-0.65300000000000002

>  <r_qp_QPlogHERG>  (1581) 
-8.5760000000000005

>  <r_qp_QPlogKhsa>  (1581) 
0.77900000000000003

>  <r_qp_QPlogKp>  (1581) 
-3.0840000000000001

>  <r_qp_QPlogPC16>  (1581) 
16.366

>  <r_qp_QPlogPo/w>  (1581) 
4.8049999999999997

>  <r_qp_QPlogPoct>  (1581) 
22.221

>  <r_qp_QPlogPw>  (1581) 
12.509

>  <r_qp_QPlogS>  (1581) 
-5.9630000000000001

>  <r_qp_QPpolrz>  (1581) 
47.521000000000001

>  <r_qp_SASA>  (1581) 
772.11500000000001

>  <r_qp_SAamideO>  (1581) 
0

>  <r_qp_SAfluorine>  (1581) 
0

>  <r_qp_WPSA>  (1581) 
71.665999999999997

>  <r_qp_accptHB>  (1581) 
5.5

>  <r_qp_dip^2/V>  (1581) 
0.010799899999999999

>  <r_qp_dipole>  (1581) 
3.8109999999999999

>  <r_qp_donorHB>  (1581) 
2

>  <r_qp_glob>  (1581) 
0.76322920000000005

>  <r_qp_mol_MW>  (1581) 
429.90800000000002

>  <r_qp_volume>  (1581) 
1345.1099999999999

>  <r_sd_BIOSOLVEIT.INFINISEE\_FTREES\_SIMILARITY>  (1581) 
0.90400000000000003

>  <r_sd_BIOSOLVEIT.LOGP>  (1581) 
5.4731800000000002

>  <r_sd_BIOSOLVEIT.MOLECULAR\_WEIGHT>  (1581) 
429.90899999999999

>  <r_sd_BIOSOLVEIT.TPSA>  (1581) 
83.950000000000003

>  <i_epik_Tot_Q>  (1581) 
0

>  <i_epik_Tot_abs_Q>  (1581) 
0

>  <i_f3d_flags>  (1581) 
0

>  <i_i_glide_confnum>  (1581) 
1

>  <i_i_glide_lignum>  (1581) 
1392

>  <i_i_glide_posenum>  (1581) 
13

>  <i_i_glide_rotatable_bonds>  (1581) 
8

>  <i_lp_mmshare_version>  (1581) 
65135

>  <i_m_ct_format>  (1581) 
2

>  <i_m_source_file_index>  (1581) 
2944

>  <i_qp_#NandO>  (1581) 
6

>  <i_qp_#acid>  (1581) 
0

>  <i_qp_#amide>  (1581) 
0

>  <i_qp_#amidine>  (1581) 
0

>  <i_qp_#amine>  (1581) 
1

>  <i_qp_#in34>  (1581) 
0

>  <i_qp_#in56>  (1581) 
21

>  <i_qp_#metab>  (1581) 
5

>  <i_qp_#nonHatm>  (1581) 
31

>  <i_qp_#noncon>  (1581) 
0

>  <i_qp_#ringatoms>  (1581) 
21

>  <i_qp_#rotor>  (1581) 
8

>  <i_qp_#rtvFG>  (1581) 
0

>  <i_qp_#stars>  (1581) 
2

>  <i_qp_CNS>  (1581) 
1

>  <i_qp_HumanOralAbsorption>  (1581) 
3

>  <i_qp_RuleOfFive>  (1581) 
0

>  <i_qp_RuleOfThree>  (1581) 
1

>  <i_sd_BIOSOLVEIT.INFINISEE\_RESULT\_RANK>  (1581) 
79515

>  <i_sd_version>  (1581) 
0

>  <b_lp_Chiralities_Consistent>  (1581) 
1

>  <b_sd_chiral_flag>  (1581) 
0

>  <canonical_id>  (1581) 
ATP-HTVS-F8CD80CEA373

>  <compound_code>  (1581) 
94177

>  <title>  (1581) 
rxn512b____EMOL36822768____EMOL719673____EMOL49832880

>  <variant>  (1581) 
94177-1

>  <source_file>  (1581) 
运行/运行/ATP-VSW/ATP-VSW-DOCK_HTVS_1-001_lib/ATP-VSW-DOCK_HTVS_1-001_lib

>  <canonical_smiles>  (1581) 
N#CN(C(=O)c1[nH]c2ccccc2c1NCCNc1ccc(Cl)cc1)c1ccccc1

>  <scaffold>  (1581) 
O=C(Nc1ccccc1)c1[nH]c2ccccc2c1NCCNc1ccccc1

>  <molecular_formula>  (1581) 
C24H20ClN5O

$$$$
ATP-HTVS-F8D08A3E140C
     RDKit          3D

 62 65  0  0  0  0  0  0  0  0999 V2000
  200.0894  177.3264  150.8096 O   0  0  0  0  0  0  0  0  0  0  0  0
  199.4624  177.9834  151.6471 C   0  0  0  0  0  0  0  0  0  0  0  0
  199.5535  177.8380  152.9835 N   0  0  0  0  0  0  0  0  0  0  0  0
  200.3615  176.9643  153.7412 C   0  0  0  0  0  0  0  0  0  0  0  0
  201.0458  175.9500  153.1755 N   0  0  0  0  0  0  0  0  0  0  0  0
  201.7918  175.1154  153.9281 C   0  0  0  0  0  0  0  0  0  0  0  0
  201.8978  175.2846  155.3332 C   0  0  0  0  0  0  0  0  0  0  0  0
  201.1751  176.3340  155.9463 C   0  0  0  0  0  0  0  0  0  0  0  0
  200.3817  177.1933  155.1442 C   0  0  0  0  0  0  0  0  0  0  0  0
  199.6528  178.2334  155.7494 N   0  0  0  0  0  0  0  0  0  0  0  0
  200.0365  179.6141  155.4545 C   0  0  1  0  0  0  0  0  0  0  0  0
  199.0496  180.6403  155.9830 C   0  0  0  0  0  0  0  0  0  0  0  0
  199.4838  181.5772  156.9293 C   0  0  0  0  0  0  0  0  0  0  0  0
  198.5866  182.5294  157.4651 C   0  0  0  0  0  0  0  0  0  0  0  0
  197.2437  182.5526  157.0432 C   0  0  0  0  0  0  0  0  0  0  0  0
  196.8173  181.6563  156.0423 C   0  0  0  0  0  0  0  0  0  0  0  0
  197.7034  180.6798  155.5366 C   0  0  0  0  0  0  0  0  0  0  0  0
  196.2683  183.5105  157.6919 C   0  0  1  0  0  0  0  0  0  0  0  0
  195.5429  182.9240  158.8484 N   0  0  1  0  0  0  0  0  0  0  0  0
  194.8884  183.9772  159.6605 C   0  0  2  0  0  0  0  0  0  0  0  0
  194.5712  181.8660  158.4733 C   0  0  2  0  0  0  0  0  0  0  0  0
  202.6929  174.3993  156.0948 C   0  0  0  0  0  0  0  0  0  0  0  0
  203.3571  173.3369  155.4559 C   0  0  0  0  0  0  0  0  0  0  0  0
  203.2417  173.1539  154.0697 C   0  0  0  0  0  0  0  0  0  0  0  0
  202.4673  174.0455  153.3086 C   0  0  0  0  0  0  0  0  0  0  0  0
  198.4456  179.0218  151.2270 C   0  0  0  0  0  0  0  0  0  0  0  0
  197.6914  178.8689  150.0280 C   0  0  0  0  0  0  0  0  0  0  0  0
  197.8627  177.7211  149.2799 O   0  0  0  0  0  0  0  0  0  0  0  0
  197.2807  177.6443  147.9887 C   0  0  2  0  0  0  0  0  0  0  0  0
  196.7869  179.9011  149.6457 C   0  0  0  0  0  0  0  0  0  0  0  0
  196.6170  181.0536  150.4379 C   0  0  0  0  0  0  0  0  0  0  0  0
  197.3535  181.1947  151.6212 C   0  0  0  0  0  0  0  0  0  0  0  0
  198.2747  180.2010  152.0036 C   0  0  0  0  0  0  0  0  0  0  0  0
  198.9751  178.4223  153.5768 H   0  0  0  0  0  0  0  0  0  0  0  0
  201.2024  176.4914  157.0181 H   0  0  0  0  0  0  0  0  0  0  0  0
  199.3912  178.0893  156.7149 H   0  0  0  0  0  0  0  0  0  0  0  0
  201.0328  179.8170  155.8607 H   0  0  0  0  0  0  0  0  0  0  0  0
  200.1040  179.7997  154.3797 H   0  0  0  0  0  0  0  0  0  0  0  0
  200.5019  181.5386  157.2925 H   0  0  0  0  0  0  0  0  0  0  0  0
  198.9390  183.2103  158.2341 H   0  0  0  0  0  0  0  0  0  0  0  0
  195.7962  181.6837  155.6810 H   0  0  0  0  0  0  0  0  0  0  0  0
  197.3402  179.9728  154.8053 H   0  0  0  0  0  0  0  0  0  0  0  0
  196.8293  184.3945  158.0018 H   0  0  0  0  0  0  0  0  0  0  0  0
  195.5516  183.8250  156.9340 H   0  0  0  0  0  0  0  0  0  0  0  0
  194.1390  184.5239  159.0796 H   0  0  0  0  0  0  0  0  0  0  0  0
  195.6137  184.7010  160.0419 H   0  0  0  0  0  0  0  0  0  0  0  0
  194.3768  183.5398  160.5185 H   0  0  0  0  0  0  0  0  0  0  0  0
  193.7904  182.2546  157.8226 H   0  0  0  0  0  0  0  0  0  0  0  0
  194.0871  181.4357  159.3509 H   0  0  0  0  0  0  0  0  0  0  0  0
  195.0460  181.0363  157.9613 H   0  0  0  0  0  0  0  0  0  0  0  0
  202.7847  174.5307  157.1615 H   0  0  0  0  0  0  0  0  0  0  0  0
  203.9546  172.6395  156.0264 H   0  0  0  0  0  0  0  0  0  0  0  0
  203.7340  172.3232  153.5924 H   0  0  0  0  0  0  0  0  0  0  0  0
  202.3695  173.9091  152.2417 H   0  0  0  0  0  0  0  0  0  0  0  0
  197.5633  176.6875  147.5514 H   0  0  0  0  0  0  0  0  0  0  0  0
  197.6496  178.4371  147.3367 H   0  0  0  0  0  0  0  0  0  0  0  0
  196.1922  177.6803  148.0380 H   0  0  0  0  0  0  0  0  0  0  0  0
  196.2054  179.8373  148.7354 H   0  0  0  0  0  0  0  0  0  0  0  0
  195.9386  181.8417  150.1299 H   0  0  0  0  0  0  0  0  0  0  0  0
  197.2306  182.0733  152.2331 H   0  0  0  0  0  0  0  0  0  0  0  0
  198.8456  180.3970  152.8996 H   0  0  0  0  0  0  0  0  0  0  0  0
  196.2395  182.4812  159.4299 H   0  0  0  0  0  0  0  0  0  0  0  0
  1  2  2  0
  2  3  1  0
  2 26  1  0
  3  4  1  0
  3 34  1  0
  4  5  2  0
  4  9  1  0
  5  6  1  0
  6  7  1  0
  6 25  2  0
  7  8  1  0
  7 22  2  0
  8  9  2  0
  8 35  1  0
  9 10  1  0
 10 11  1  0
 10 36  1  0
 11 12  1  0
 11 37  1  1
 11 38  1  0
 12 13  1  0
 12 17  2  0
 13 14  2  0
 13 39  1  0
 14 15  1  0
 14 40  1  0
 15 16  2  0
 15 18  1  0
 16 17  1  0
 16 41  1  0
 17 42  1  0
 18 19  1  0
 18 43  1  1
 18 44  1  0
 19 20  1  0
 19 21  1  0
 19 62  1  1
 20 45  1  6
 20 46  1  0
 20 47  1  0
 21 48  1  6
 21 49  1  0
 21 50  1  0
 22 23  1  0
 22 51  1  0
 23 24  2  0
 23 52  1  0
 24 25  1  0
 24 53  1  0
 25 54  1  0
 26 27  1  0
 26 33  2  0
 27 28  1  0
 27 30  2  0
 28 29  1  0
 29 55  1  6
 29 56  1  0
 29 57  1  0
 30 31  1  0
 30 58  1  0
 31 32  2  0
 31 59  1  0
 32 33  1  0
 32 60  1  0
 33 61  1  0
M  CHG  1  19   1
M  END
>  <s_epik_cmdline>  (1582) 
J2VwaWtfcHl0aG9uJywgJy1waCcsICc3LjAwMDAwMCcsICctcGh0JywgJzIuMDAwMDAwJywgJy1tcycsICcxNicsICctdG4nLCAnOCcsICctbWEnLCAnMjAwJywgJy1pbWFlJywgJzxpbmZpbGUubWFlPicsICctb21hZScsICc8b3V0ZmlsZS5tYWU+Jw==

>  <s_epik_input>  (1582) 
W2NIXTFbY0hdW2NIXVtjSF1jKE9bQ0gzXSljMUMoPU8pW05IXWMobjIpYyhbY0hdYyhjMjMpW2NIXVtjSF1bY0hdW2NIXTMpW05IXVtDSDJdYzRbY0hdW2NIXWMoW2NIXVtjSF00KVtDSDJdTihbQ0gzXSlbQ0gzXQ==

>  <s_i_glide_gridfile>  (1582) 
ATP-Grid

>  <s_lp_Force_Field>  (1582) 
OPLS_2005

>  <s_lp_Variant>  (1582) 
rxn502b____EMOL485008____EMOL44466703____EMOL50155899-1

>  <s_lp_label>  (1582) 
2245_sdstereoexpander_1_neutralizer_1_epik_1_stereoizer_1

>  <s_m_source_file>  (1582) 
ATP-VSW-LIGPREP-001-in.maegz

>  <s_sd_BIOSOLVEIT.INFINISEE\_QUERY\_NAME>  (1582) 
Ref-Lig

>  <s_sd_BIOSOLVEIT.INFINISEE\_QUERY\_SMILES>  (1582) 
S(c1nc2c(cc1C[NH2+]Cc3ccc(cc3)C[NH+](C)C)cccc2)Cc4ccccc4

>  <s_sd_BIOSOLVEIT.INFINISEE\_REACTION\_NAME>  (1582) 
rxn502b

>  <s_sd_BIOSOLVEIT.INFINISEE\_REAGENT1\_NAME>  (1582) 
EMOL485008

>  <s_sd_BIOSOLVEIT.INFINISEE\_REAGENT1\_SMILES>  (1582) 
O=C(O)c1c(OC)cccc1

>  <s_sd_BIOSOLVEIT.INFINISEE\_REAGENT2\_NAME>  (1582) 
EMOL44466703

>  <s_sd_BIOSOLVEIT.INFINISEE\_REAGENT2\_SMILES>  (1582) 
Brc1c(nc2c(c1)cccc2)N

>  <s_sd_BIOSOLVEIT.INFINISEE\_REAGENT3\_NAME>  (1582) 
EMOL50155899

>  <s_sd_BIOSOLVEIT.INFINISEE\_REAGENT3\_SMILES>  (1582) 
N(Cc1ccc(cc1)CN)(C)C

>  <s_sd_BIOSOLVEIT.INFINISEE\_SPACE>  (1582) 
eXplore_7tr_2022-12

>  <s_vsw_compound_code>  (1582) 
71809

>  <s_vsw_variant>  (1582) 
71809-1

>  <r_epik_Charging_Adjusted_Penalty>  (1582) 
0.078407994868761793

>  <r_epik_Ionization_Penalty>  (1582) 
0.039300000000000002

>  <r_epik_Ionization_Penalty_Charging>  (1582) 
0.039199999999999999

>  <r_epik_Ionization_Penalty_Neutral>  (1582) 
0.0001

>  <r_epik_State_Penalty>  (1582) 
0.039199999999999999

>  <r_i_docking_score>  (1582) 
-4.0491748619914896

>  <r_i_glide_ecoul>  (1582) 
-6.6304006576538104

>  <r_i_glide_eff_state_penalty>  (1582) 
0.039199999999999999

>  <r_i_glide_einternal>  (1582) 
4.7608938217163104

>  <r_i_glide_emodel>  (1582) 
-51.717996498355703

>  <r_i_glide_energy>  (1582) 
-39.956191062927203

>  <r_i_glide_erotb>  (1582) 
0.71722435937715501

>  <r_i_glide_esite>  (1582) 
-0.0743407255749476

>  <r_i_glide_evdw>  (1582) 
-33.325790405273402

>  <r_i_glide_gscore>  (1582) 
-4.0883748619914897

>  <r_i_glide_hbond>  (1582) 
0

>  <r_i_glide_ligand_efficiency>  (1582) 
-0.122702268545197

>  <r_i_glide_ligand_efficiency_ln>  (1582) 
-0.900515523801522

>  <r_i_glide_ligand_efficiency_sa>  (1582) 
-0.39357173826837599

>  <r_i_glide_lipo>  (1582) 
-1.40412412263477

>  <r_i_glide_metal>  (1582) 
-0

>  <r_i_glide_rewards>  (1582) 
-0.66628475424718703

>  <r_lp_Energy>  (1582) 
34.223602999999997

>  <r_lp_tautomer_probability>  (1582) 
1

>  <r_qp_ACxDN^.5/SA>  (1582) 
0.012892499999999999

>  <r_qp_CIQPlogS>  (1582) 
-5.4950000000000001

>  <r_qp_EA(eV)>  (1582) 
0.64900000000000002

>  <r_qp_FISA>  (1582) 
58.643999999999998

>  <r_qp_FOSA>  (1582) 
301.755

>  <r_qp_IP(eV)>  (1582) 
8.2579999999999991

>  <r_qp_Jm>  (1582) 
0.0066975046690030404

>  <r_qp_PISA>  (1582) 
434.87700000000001

>  <r_qp_PSA>  (1582) 
68.390000000000001

>  <r_qp_PercentHumanOralAbsorption>  (1582) 
100

>  <r_qp_QPPCaco>  (1582) 
686.56600000000003

>  <r_qp_QPPMDCK>  (1582) 
364.50400000000002

>  <r_qp_QPlogBB>  (1582) 
-0.157

>  <r_qp_QPlogHERG>  (1582) 
-7.8399999999999999

>  <r_qp_QPlogKhsa>  (1582) 
0.77200000000000002

>  <r_qp_QPlogKp>  (1582) 
-2.363

>  <r_qp_QPlogPC16>  (1582) 
15.847

>  <r_qp_QPlogPo/w>  (1582) 
4.8490000000000002

>  <r_qp_QPlogPoct>  (1582) 
24.254999999999999

>  <r_qp_QPlogPw>  (1582) 
13.295999999999999

>  <r_qp_QPlogS>  (1582) 
-5.4550000000000001

>  <r_qp_QPpolrz>  (1582) 
51.359000000000002

>  <r_qp_SASA>  (1582) 
795.27499999999998

>  <r_qp_SAamideO>  (1582) 
0

>  <r_qp_SAfluorine>  (1582) 
0

>  <r_qp_WPSA>  (1582) 
0

>  <r_qp_accptHB>  (1582) 
7.25

>  <r_qp_dip^2/V>  (1582) 
0.038615499999999997

>  <r_qp_dipole>  (1582) 
7.5129999999999999

>  <r_qp_donorHB>  (1582) 
2

>  <r_qp_glob>  (1582) 
0.78321929999999995

>  <r_qp_mol_MW>  (1582) 
440.54399999999998

>  <r_qp_volume>  (1582) 
1461.684

>  <r_sd_BIOSOLVEIT.INFINISEE\_FTREES\_SIMILARITY>  (1582) 
0.92700000000000005

>  <r_sd_BIOSOLVEIT.LOGP>  (1582) 
3.7523

>  <r_sd_BIOSOLVEIT.MOLECULAR\_WEIGHT>  (1582) 
441.55200000000002

>  <r_sd_BIOSOLVEIT.TPSA>  (1582) 
67.689999999999998

>  <i_epik_Tot_Q>  (1582) 
1

>  <i_epik_Tot_abs_Q>  (1582) 
1

>  <i_f3d_flags>  (1582) 
0

>  <i_i_glide_confnum>  (1582) 
2

>  <i_i_glide_lignum>  (1582) 
768

>  <i_i_glide_posenum>  (1582) 
1

>  <i_i_glide_rotatable_bonds>  (1582) 
9

>  <i_lp_mmshare_version>  (1582) 
65135

>  <i_m_ct_format>  (1582) 
2

>  <i_m_source_file_index>  (1582) 
2245

>  <i_qp_#NandO>  (1582) 
6

>  <i_qp_#acid>  (1582) 
0

>  <i_qp_#amide>  (1582) 
0

>  <i_qp_#amidine>  (1582) 
0

>  <i_qp_#amine>  (1582) 
1

>  <i_qp_#in34>  (1582) 
0

>  <i_qp_#in56>  (1582) 
22

>  <i_qp_#metab>  (1582) 
6

>  <i_qp_#nonHatm>  (1582) 
33

>  <i_qp_#noncon>  (1582) 
0

>  <i_qp_#ringatoms>  (1582) 
22

>  <i_qp_#rotor>  (1582) 
8

>  <i_qp_#rtvFG>  (1582) 
0

>  <i_qp_#stars>  (1582) 
0

>  <i_qp_CNS>  (1582) 
1

>  <i_qp_HumanOralAbsorption>  (1582) 
3

>  <i_qp_RuleOfFive>  (1582) 
0

>  <i_qp_RuleOfThree>  (1582) 
0

>  <i_sd_BIOSOLVEIT.INFINISEE\_RESULT\_RANK>  (1582) 
7290

>  <i_sd_version>  (1582) 
0

>  <b_lp_Chiralities_Consistent>  (1582) 
1

>  <b_sd_chiral_flag>  (1582) 
0

>  <canonical_id>  (1582) 
ATP-HTVS-F8D08A3E140C

>  <compound_code>  (1582) 
71809

>  <title>  (1582) 
rxn502b____EMOL485008____EMOL44466703____EMOL50155899

>  <variant>  (1582) 
71809-1

>  <source_file>  (1582) 
运行/运行/ATP-VSW/ATP-VSW-DOCK_HTVS_1-001_lib/ATP-VSW-DOCK_HTVS_1-001_lib

>  <canonical_smiles>  (1582) 
COc1ccccc1C(=O)Nc1nc2ccccc2cc1NCc1ccc(C[NH+](C)C)cc1

>  <scaffold>  (1582) 
O=C(Nc1nc2ccccc2cc1NCc1ccccc1)c1ccccc1

>  <molecular_formula>  (1582) 
C27H29N4O2+

$$$$
ATP-HTVS-F8D25E752EF8
     RDKit          3D

 56 59  0  0  0  0  0  0  0  0999 V2000
  198.2206  186.5849  159.7146 O   0  0  0  0  0  0  0  0  0  0  0  0
  197.0104  186.7135  159.6888 C   0  0  0  0  0  0  0  0  0  0  0  0
  196.4082  187.8827  159.9592 N   0  0  0  0  0  0  0  0  0  0  0  0
  197.1106  189.0713  160.4188 C   0  0  1  0  0  0  0  0  0  0  0  0
  198.4158  189.3890  159.6514 C   0  0  1  0  0  0  0  0  0  0  0  0
  198.9405  190.5791  160.1628 O   0  0  0  0  0  0  0  0  0  0  0  0
  196.1134  185.5611  159.3330 C   0  0  0  0  0  0  0  0  0  0  0  0
  196.4503  184.6172  158.3157 C   0  0  0  0  0  0  0  0  0  0  0  0
  195.5716  183.5385  158.0497 C   0  0  0  0  0  0  0  0  0  0  0  0
  194.3678  183.3929  158.7478 C   0  0  0  0  0  0  0  0  0  0  0  0
  194.0422  184.3232  159.7539 C   0  0  0  0  0  0  0  0  0  0  0  0
  194.9128  185.3902  160.0529 C   0  0  0  0  0  0  0  0  0  0  0  0
  197.6936  184.7440  157.4378 C   0  0  1  0  0  0  0  0  0  0  0  0
  198.6936  183.6785  157.6837 N   0  0  0  0  0  0  0  0  0  0  0  0
  199.4459  183.3792  156.4430 C   0  0  1  0  0  0  0  0  0  0  0  0
  200.6600  182.4435  156.6362 C   0  0  0  0  0  0  0  0  0  0  0  0
  201.8066  182.9131  157.3457 C   0  0  0  0  0  0  0  0  0  0  0  0
  201.8400  184.2038  157.9365 N   0  0  0  0  0  0  0  0  0  0  0  0
  200.8309  184.7754  158.6158 C   0  0  0  0  0  0  0  0  0  0  0  0
  200.9442  185.9192  159.0266 O   0  0  0  0  0  0  0  0  0  0  0  0
  199.5462  183.9523  158.8811 C   0  0  1  0  0  0  0  0  0  0  0  0
  202.9520  182.0850  157.4613 C   0  0  0  0  0  0  0  0  0  0  0  0
  202.9639  180.7933  156.9012 C   0  0  0  0  0  0  0  0  0  0  0  0
  201.8310  180.3219  156.2175 C   0  0  0  0  0  0  0  0  0  0  0  0
  200.6922  181.1324  156.0816 C   0  0  0  0  0  0  0  0  0  0  0  0
  198.5176  182.7955  155.3671 C   0  0  0  0  0  0  0  0  0  0  0  0
  197.5494  181.8323  155.7281 C   0  0  0  0  0  0  0  0  0  0  0  0
  196.6914  181.2748  154.7689 C   0  0  0  0  0  0  0  0  0  0  0  0
  196.8051  181.6581  153.4186 C   0  0  0  0  0  0  0  0  0  0  0  0
  197.7791  182.5996  153.0345 C   0  0  0  0  0  0  0  0  0  0  0  0
  198.6325  183.1705  154.0051 C   0  0  0  0  0  0  0  0  0  0  0  0
  195.3987  187.9536  159.9252 H   0  0  0  0  0  0  0  0  0  0  0  0
  196.4227  189.8999  160.3229 H   0  0  0  0  0  0  0  0  0  0  0  0
  197.3205  188.9725  161.4829 H   0  0  0  0  0  0  0  0  0  0  0  0
  199.1964  188.6412  159.7918 H   0  0  0  0  0  0  0  0  0  0  0  0
  198.2440  189.4911  158.5804 H   0  0  0  0  0  0  0  0  0  0  0  0
  199.2274  190.3562  161.0592 H   0  0  0  0  0  0  0  0  0  0  0  0
  195.7701  182.8455  157.2537 H   0  0  0  0  0  0  0  0  0  0  0  0
  193.6811  182.5910  158.4784 H   0  0  0  0  0  0  0  0  0  0  0  0
  193.1282  184.2164  160.3057 H   0  0  0  0  0  0  0  0  0  0  0  0
  194.6275  186.0522  160.8557 H   0  0  0  0  0  0  0  0  0  0  0  0
  197.2744  184.6983  156.4310 H   0  0  0  0  0  0  0  0  0  0  0  0
  198.1692  185.7209  157.4460 H   0  0  0  0  0  0  0  0  0  0  0  0
  199.8337  184.3173  156.0353 H   0  0  0  0  0  0  0  0  0  0  0  0
  202.7296  184.6773  157.9294 H   0  0  0  0  0  0  0  0  0  0  0  0
  198.9451  184.3783  159.7004 H   0  0  0  0  0  0  0  0  0  0  0  0
  199.8936  182.9812  159.2464 H   0  0  0  0  0  0  0  0  0  0  0  0
  203.8181  182.4469  157.9965 H   0  0  0  0  0  0  0  0  0  0  0  0
  203.8363  180.1658  156.9885 H   0  0  0  0  0  0  0  0  0  0  0  0
  201.8231  179.3357  155.7779 H   0  0  0  0  0  0  0  0  0  0  0  0
  199.8648  180.7109  155.5274 H   0  0  0  0  0  0  0  0  0  0  0  0
  197.4615  181.5191  156.7571 H   0  0  0  0  0  0  0  0  0  0  0  0
  195.9502  180.5551  155.0877 H   0  0  0  0  0  0  0  0  0  0  0  0
  196.1486  181.2181  152.6846 H   0  0  0  0  0  0  0  0  0  0  0  0
  197.8822  182.8804  152.0018 H   0  0  0  0  0  0  0  0  0  0  0  0
  199.3872  183.8906  153.7133 H   0  0  0  0  0  0  0  0  0  0  0  0
  1  2  2  0
  2  3  1  0
  2  7  1  0
  3  4  1  0
  3 32  1  0
  4  5  1  0
  4 33  1  1
  4 34  1  0
  5  6  1  0
  5 35  1  6
  5 36  1  0
  6 37  1  0
  7  8  1  0
  7 12  2  0
  8  9  2  0
  8 13  1  0
  9 10  1  0
  9 38  1  0
 10 11  2  0
 10 39  1  0
 11 12  1  0
 11 40  1  0
 12 41  1  0
 13 14  1  0
 13 42  1  6
 13 43  1  0
 14 15  1  0
 14 21  1  0
 15 16  1  0
 15 26  1  0
 15 44  1  6
 16 17  1  0
 16 25  2  0
 17 18  1  0
 17 22  2  0
 18 19  1  0
 18 45  1  0
 19 20  2  0
 19 21  1  0
 21 46  1  1
 21 47  1  0
 22 23  1  0
 22 48  1  0
 23 24  2  0
 23 49  1  0
 24 25  1  0
 24 50  1  0
 25 51  1  0
 26 27  2  0
 26 31  1  0
 27 28  1  0
 27 52  1  0
 28 29  2  0
 28 53  1  0
 29 30  1  0
 29 54  1  0
 30 31  2  0
 30 55  1  0
 31 56  1  0
M  END
>  <s_epik_cmdline>  (1583) 
J2VwaWtfcHl0aG9uJywgJy1waCcsICc3LjAwMDAwMCcsICctcGh0JywgJzIuMDAwMDAwJywgJy1tcycsICcxNicsICctdG4nLCAnOCcsICctbWEnLCAnMjAwJywgJy1pbWFlJywgJzxpbmZpbGUubWFlPicsICctb21hZScsICc8b3V0ZmlsZS5tYWU+Jw==

>  <s_epik_input>  (1583) 
W09IXVtDSDJdW0NIMl1bTkhdQyg9TyljMWMoW2NIXVtjSF1bY0hdW2NIXTEpW0NIMl1OKFtDQEBIXTJjM1tjSF1bY0hdW2NIXVtjSF1bY0hdMylbQ0gyXUMoPU8pW05IXWMoYzI0KVtjSF1bY0hdW2NIXVtjSF00

>  <s_i_glide_gridfile>  (1583) 
ATP-Grid

>  <s_lp_Force_Field>  (1583) 
OPLS_2005

>  <s_lp_Variant>  (1583) 
rxn512b____EMOL299981165____EMOL1939773____EMOL6185419-1

>  <s_lp_label>  (1583) 
2483_sdstereoexpander_1_neutralizer_1_epik_1_stereoizer_1

>  <s_m_source_file>  (1583) 
ATP-VSW-LIGPREP-003-in.maegz

>  <s_sd_BIOSOLVEIT.INFINISEE\_QUERY\_NAME>  (1583) 
Ref-Lig

>  <s_sd_BIOSOLVEIT.INFINISEE\_QUERY\_SMILES>  (1583) 
S(c1nc2c(cc1C[NH2+]Cc3ccc(cc3)C[NH+](C)C)cccc2)Cc4ccccc4

>  <s_sd_BIOSOLVEIT.INFINISEE\_REACTION\_NAME>  (1583) 
rxn512b

>  <s_sd_BIOSOLVEIT.INFINISEE\_REAGENT1\_NAME>  (1583) 
EMOL299981165

>  <s_sd_BIOSOLVEIT.INFINISEE\_REAGENT1\_SMILES>  (1583) 
OCCN

>  <s_sd_BIOSOLVEIT.INFINISEE\_REAGENT2\_NAME>  (1583) 
EMOL1939773

>  <s_sd_BIOSOLVEIT.INFINISEE\_REAGENT2\_SMILES>  (1583) 
BrCc1c(cccc1)C(=O)O

>  <s_sd_BIOSOLVEIT.INFINISEE\_REAGENT3\_NAME>  (1583) 
EMOL6185419

>  <s_sd_BIOSOLVEIT.INFINISEE\_REAGENT3\_SMILES>  (1583) 
O=C1Nc2c(cccc2)C(NC1)c3ccccc3

>  <s_sd_BIOSOLVEIT.INFINISEE\_SPACE>  (1583) 
eXplore_7tr_2022-12

>  <s_vsw_compound_code>  (1583) 
79427

>  <s_vsw_variant>  (1583) 
79427-1

>  <r_epik_Charging_Adjusted_Penalty>  (1583) 
0.0087634984339075902

>  <r_epik_Ionization_Penalty>  (1583) 
0.0088000000000000005

>  <r_epik_Ionization_Penalty_Charging>  (1583) 
0

>  <r_epik_Ionization_Penalty_Neutral>  (1583) 
0.0088000000000000005

>  <r_epik_State_Penalty>  (1583) 
0.0088000000000000005

>  <r_i_docking_score>  (1583) 
-3.3427339736150201

>  <r_i_glide_ecoul>  (1583) 
-5.2905635833740199

>  <r_i_glide_eff_state_penalty>  (1583) 
0.0088000000000000005

>  <r_i_glide_einternal>  (1583) 
2.5486073493957502

>  <r_i_glide_emodel>  (1583) 
-39.070020243579002

>  <r_i_glide_energy>  (1583) 
-33.265604019165004

>  <r_i_glide_erotb>  (1583) 
0.80074468397813003

>  <r_i_glide_esite>  (1583) 
0

>  <r_i_glide_evdw>  (1583) 
-27.975040435791001

>  <r_i_glide_gscore>  (1583) 
-3.35153397361502

>  <r_i_glide_hbond>  (1583) 
-0.23687525164352599

>  <r_i_glide_ligand_efficiency>  (1583) 
-0.10783012818113

>  <r_i_glide_ligand_efficiency_ln>  (1583) 
-0.75388895354359897

>  <r_i_glide_ligand_efficiency_sa>  (1583) 
-0.33873547802534598

>  <r_i_glide_lipo>  (1583) 
-0.82498192752142196

>  <r_i_glide_metal>  (1583) 
-0

>  <r_i_glide_rewards>  (1583) 
-0.89808491913254296

>  <r_lp_Energy>  (1583) 
42.848627999999998

>  <r_qp_ACxDN^.5/SA>  (1583) 
0.020884099999999999

>  <r_qp_CIQPlogS>  (1583) 
-4.0339999999999998

>  <r_qp_EA(eV)>  (1583) 
0.313

>  <r_qp_FISA>  (1583) 
143.375

>  <r_qp_FOSA>  (1583) 
129.90799999999999

>  <r_qp_IP(eV)>  (1583) 
8.8460000000000001

>  <r_qp_Jm>  (1583) 
0.0033694163202849701

>  <r_qp_PISA>  (1583) 
448.26299999999998

>  <r_qp_PSA>  (1583) 
95.799000000000007

>  <r_qp_PercentHumanOralAbsorption>  (1583) 
78.730000000000004

>  <r_qp_QPPCaco>  (1583) 
107.937

>  <r_qp_QPPMDCK>  (1583) 
49.340000000000003

>  <r_qp_QPlogBB>  (1583) 
-0.88600000000000001

>  <r_qp_QPlogHERG>  (1583) 
-7.5999999999999996

>  <r_qp_QPlogKhsa>  (1583) 
0.187

>  <r_qp_QPlogKp>  (1583) 
-4.069

>  <r_qp_QPlogPC16>  (1583) 
15.269

>  <r_qp_QPlogPo/w>  (1583) 
2.629

>  <r_qp_QPlogPoct>  (1583) 
25.254999999999999

>  <r_qp_QPlogPw>  (1583) 
17.120000000000001

>  <r_qp_QPlogS>  (1583) 
-4.0220000000000002

>  <r_qp_QPpolrz>  (1583) 
46.652999999999999

>  <r_qp_SASA>  (1583) 
721.54600000000005

>  <r_qp_SAamideO>  (1583) 
0

>  <r_qp_SAfluorine>  (1583) 
0

>  <r_qp_WPSA>  (1583) 
0

>  <r_qp_accptHB>  (1583) 
8.6999999999999993

>  <r_qp_dip^2/V>  (1583) 
0.028832799999999999

>  <r_qp_dipole>  (1583) 
6.1429999999999998

>  <r_qp_donorHB>  (1583) 
3

>  <r_qp_glob>  (1583) 
0.80195970000000005

>  <r_qp_mol_MW>  (1583) 
415.49099999999999

>  <r_qp_volume>  (1583) 
1308.8119999999999

>  <r_sd_BIOSOLVEIT.INFINISEE\_FTREES\_SIMILARITY>  (1583) 
0.91500000000000004

>  <r_sd_BIOSOLVEIT.LOGP>  (1583) 
1.5353000000000001

>  <r_sd_BIOSOLVEIT.MOLECULAR\_WEIGHT>  (1583) 
416.49799999999999

>  <r_sd_BIOSOLVEIT.TPSA>  (1583) 
82.870000000000005

>  <i_epik_Tot_Q>  (1583) 
0

>  <i_epik_Tot_abs_Q>  (1583) 
0

>  <i_f3d_flags>  (1583) 
0

>  <i_i_glide_confnum>  (1583) 
8

>  <i_i_glide_lignum>  (1583) 
1072

>  <i_i_glide_posenum>  (1583) 
8

>  <i_i_glide_rotatable_bonds>  (1583) 
8

>  <i_lp_mmshare_version>  (1583) 
65135

>  <i_m_ct_format>  (1583) 
2

>  <i_m_source_file_index>  (1583) 
2483

>  <i_qp_#NandO>  (1583) 
6

>  <i_qp_#acid>  (1583) 
0

>  <i_qp_#amide>  (1583) 
0

>  <i_qp_#amidine>  (1583) 
0

>  <i_qp_#amine>  (1583) 
1

>  <i_qp_#in34>  (1583) 
0

>  <i_qp_#in56>  (1583) 
18

>  <i_qp_#metab>  (1583) 
8

>  <i_qp_#nonHatm>  (1583) 
31

>  <i_qp_#noncon>  (1583) 
2

>  <i_qp_#ringatoms>  (1583) 
23

>  <i_qp_#rotor>  (1583) 
6

>  <i_qp_#rtvFG>  (1583) 
0

>  <i_qp_#stars>  (1583) 
0

>  <i_qp_CNS>  (1583) 
-1

>  <i_qp_HumanOralAbsorption>  (1583) 
2

>  <i_qp_RuleOfFive>  (1583) 
0

>  <i_qp_RuleOfThree>  (1583) 
1

>  <i_sd_BIOSOLVEIT.INFINISEE\_RESULT\_RANK>  (1583) 
28948

>  <i_sd_version>  (1583) 
0

>  <b_lp_Chiralities_Consistent>  (1583) 
1

>  <b_sd_chiral_flag>  (1583) 
0

>  <canonical_id>  (1583) 
ATP-HTVS-F8D25E752EF8

>  <compound_code>  (1583) 
79427

>  <title>  (1583) 
rxn512b____EMOL299981165____EMOL1939773____EMOL6185419

>  <variant>  (1583) 
79427-1

>  <source_file>  (1583) 
运行/运行/ATP-VSW/ATP-VSW-DOCK_HTVS_1-003_lib/ATP-VSW-DOCK_HTVS_1-003_lib.mae

>  <canonical_smiles>  (1583) 
O=C1CN(Cc2ccccc2C(=O)NCCO)[C@H](c2ccccc2)c2ccccc2N1

>  <scaffold>  (1583) 
O=C1CN(Cc2ccccc2)C(c2ccccc2)c2ccccc2N1

>  <molecular_formula>  (1583) 
C25H25N3O3

$$$$
ATP-HTVS-F92825C2DD85
     RDKit          3D

 52 55  0  0  0  0  0  0  0  0999 V2000
  199.7614  179.7943  156.7079 O   0  0  0  0  0  0  0  0  0  0  0  0
  199.3156  178.8876  156.0015 C   0  0  0  0  0  0  0  0  0  0  0  0
  200.0641  177.6353  155.7498 C   0  0  0  0  0  0  0  0  0  0  0  0
  200.8327  177.0589  156.7856 C   0  0  0  0  0  0  0  0  0  0  0  0
  201.5757  175.8862  156.5436 C   0  0  0  0  0  0  0  0  0  0  0  0
  201.5702  175.2996  155.2630 C   0  0  0  0  0  0  0  0  0  0  0  0
  200.8201  175.8818  154.2243 C   0  0  0  0  0  0  0  0  0  0  0  0
  200.0835  177.0555  154.4628 C   0  0  0  0  0  0  0  0  0  0  0  0
  197.9071  178.9874  155.3913 C   0  0  1  0  0  0  0  0  0  0  0  0
  197.5142  180.2722  154.8298 N   0  0  0  0  0  0  0  0  0  0  0  0
  197.3553  180.5788  153.4805 C   0  0  0  0  0  0  0  0  0  0  0  0
  196.9968  181.9583  153.4588 C   0  0  0  0  0  0  0  0  0  0  0  0
  196.9561  182.4840  154.7368 N   0  0  0  0  0  0  0  0  0  0  0  0
  197.2324  181.4194  155.4880 C   0  0  0  0  0  0  0  0  0  0  0  0
  197.2714  181.4392  156.8752 N   0  0  0  0  0  0  0  0  0  0  0  0
  197.2905  182.5233  157.8308 C   0  0  1  0  0  0  0  0  0  0  0  0
  195.9497  183.2623  157.8808 C   0  0  1  0  0  0  0  0  0  0  0  0
  196.0635  184.5918  158.6061 C   0  0  0  0  0  0  0  0  0  0  0  0
  196.7568  185.6658  158.0078 C   0  0  0  0  0  0  0  0  0  0  0  0
  196.8693  186.9039  158.6739 C   0  0  0  0  0  0  0  0  0  0  0  0
  196.2952  187.0801  159.9519 C   0  0  0  0  0  0  0  0  0  0  0  0
  195.5837  186.0075  160.5345 C   0  0  0  0  0  0  0  0  0  0  0  0
  195.4743  184.7681  159.8723 C   0  0  0  0  0  0  0  0  0  0  0  0
  196.3998  188.4119  160.6799 C   0  0  1  0  0  0  0  0  0  0  0  0
  197.6140  189.1057  160.4690 O   0  0  0  0  0  0  0  0  0  0  0  0
  196.7543  182.5702  152.2094 C   0  0  0  0  0  0  0  0  0  0  0  0
  196.8899  181.8350  151.0116 C   0  0  0  0  0  0  0  0  0  0  0  0
  197.2645  180.4759  151.0506 C   0  0  0  0  0  0  0  0  0  0  0  0
  197.4900  179.8373  152.2862 C   0  0  0  0  0  0  0  0  0  0  0  0
  200.8555  177.5215  157.7638 H   0  0  0  0  0  0  0  0  0  0  0  0
  202.1698  175.4503  157.3362 H   0  0  0  0  0  0  0  0  0  0  0  0
  202.1453  174.4043  155.0770 H   0  0  0  0  0  0  0  0  0  0  0  0
  200.8264  175.4482  153.2377 H   0  0  0  0  0  0  0  0  0  0  0  0
  199.5481  177.5085  153.6433 H   0  0  0  0  0  0  0  0  0  0  0  0
  197.7938  178.2438  154.6097 H   0  0  0  0  0  0  0  0  0  0  0  0
  197.1740  178.7134  156.1385 H   0  0  0  0  0  0  0  0  0  0  0  0
  197.3395  180.5173  157.3003 H   0  0  0  0  0  0  0  0  0  0  0  0
  197.5460  182.1462  158.8200 H   0  0  0  0  0  0  0  0  0  0  0  0
  198.0956  183.1940  157.5289 H   0  0  0  0  0  0  0  0  0  0  0  0
  195.5861  183.4479  156.8734 H   0  0  0  0  0  0  0  0  0  0  0  0
  195.1981  182.6274  158.3516 H   0  0  0  0  0  0  0  0  0  0  0  0
  197.2070  185.5380  157.0315 H   0  0  0  0  0  0  0  0  0  0  0  0
  197.4000  187.7156  158.1958 H   0  0  0  0  0  0  0  0  0  0  0  0
  195.1178  186.1265  161.5034 H   0  0  0  0  0  0  0  0  0  0  0  0
  194.9391  183.9491  160.3325 H   0  0  0  0  0  0  0  0  0  0  0  0
  195.5788  189.0471  160.3515 H   0  0  0  0  0  0  0  0  0  0  0  0
  196.2671  188.2496  161.7450 H   0  0  0  0  0  0  0  0  0  0  0  0
  198.1671  189.0390  161.2453 H   0  0  0  0  0  0  0  0  0  0  0  0
  196.4556  183.6050  152.1899 H   0  0  0  0  0  0  0  0  0  0  0  0
  196.7237  182.3203  150.0607 H   0  0  0  0  0  0  0  0  0  0  0  0
  197.3910  179.9269  150.1267 H   0  0  0  0  0  0  0  0  0  0  0  0
  197.7862  178.8001  152.3157 H   0  0  0  0  0  0  0  0  0  0  0  0
  1  2  2  0
  2  3  1  0
  2  9  1  0
  3  4  2  0
  3  8  1  0
  4  5  1  0
  4 30  1  0
  5  6  2  0
  5 31  1  0
  6  7  1  0
  6 32  1  0
  7  8  2  0
  7 33  1  0
  8 34  1  0
  9 10  1  0
  9 35  1  6
  9 36  1  0
 10 11  1  0
 10 14  1  0
 11 12  1  0
 11 29  2  0
 12 13  1  0
 12 26  2  0
 13 14  2  0
 14 15  1  0
 15 16  1  0
 15 37  1  0
 16 17  1  0
 16 38  1  1
 16 39  1  0
 17 18  1  0
 17 40  1  6
 17 41  1  0
 18 19  1  0
 18 23  2  0
 19 20  2  0
 19 42  1  0
 20 21  1  0
 20 43  1  0
 21 22  2  0
 21 24  1  0
 22 23  1  0
 22 44  1  0
 23 45  1  0
 24 25  1  0
 24 46  1  6
 24 47  1  0
 25 48  1  0
 26 27  1  0
 26 49  1  0
 27 28  2  0
 27 50  1  0
 28 29  1  0
 28 51  1  0
 29 52  1  0
M  END
>  <s_epik_cmdline>  (1584) 
J2VwaWtfcHl0aG9uJywgJy1waCcsICc3LjAwMDAwMCcsICctcGh0JywgJzIuMDAwMDAwJywgJy1tcycsICcxNicsICctdG4nLCAnOCcsICctbWEnLCAnMjAwJywgJy1pbWFlJywgJzxpbmZpbGUubWFlPicsICctb21hZScsICc8b3V0ZmlsZS5tYWU+Jw==

>  <s_epik_input>  (1584) 
W2NIXTFbY0hdW2NIXVtjSF1bY0hdYzFDKD1PKVtDSDJdbjJjKG5jKGMyMylbY0hdW2NIXVtjSF1bY0hdMylbTkhdW0NIMl1bQ0gyXWM0W2NIXVtjSF1jKFtjSF1bY0hdNClbQ0gyXVtPSF0=

>  <s_i_glide_gridfile>  (1584) 
ATP-Grid

>  <s_lp_Force_Field>  (1584) 
OPLS_2005

>  <s_lp_Variant>  (1584) 
m_27bbd____15507288____24798446-2

>  <s_lp_label>  (1584) 
1127_sdstereoexpander_1_neutralizer_1_epik_2_stereoizer_1

>  <s_m_source_file>  (1584) 
ATP-VSW-LIGPREP-003-in.maegz

>  <s_sd_BIOSOLVEIT.INFINISEE\_QUERY\_NAME>  (1584) 
Ref-Lig

>  <s_sd_BIOSOLVEIT.INFINISEE\_QUERY\_SMILES>  (1584) 
S(c1nc2c(cc1C[NH2+]Cc3ccc(cc3)C[NH+](C)C)cccc2)Cc4ccccc4

>  <s_sd_BIOSOLVEIT.INFINISEE\_REACTION\_NAME>  (1584) 
m_27bbd

>  <s_sd_BIOSOLVEIT.INFINISEE\_REAGENT1\_SMILES>  (1584) 
[R1*]NCCc1ccc(cc1)CO

>  <s_sd_BIOSOLVEIT.INFINISEE\_REAGENT2\_SMILES>  (1584) 
[R1*]C1=Nc2c(N1CC(=O)c3ccccc3)cccc2

>  <s_sd_BIOSOLVEIT.INFINISEE\_SPACE>  (1584) 
REALSpace_44bn_2023-08

>  <s_vsw_compound_code>  (1584) 
36035

>  <s_vsw_variant>  (1584) 
36035-2

>  <r_epik_Charging_Adjusted_Penalty>  (1584) 
0.51644031199081197

>  <r_epik_Ionization_Penalty>  (1584) 
0.51639999999999997

>  <r_epik_Ionization_Penalty_Charging>  (1584) 
0

>  <r_epik_Ionization_Penalty_Neutral>  (1584) 
0.51639999999999997

>  <r_epik_State_Penalty>  (1584) 
0.51639999999999997

>  <r_i_docking_score>  (1584) 
-4.3258850195672904

>  <r_i_glide_ecoul>  (1584) 
-4.9833273887634304

>  <r_i_glide_eff_state_penalty>  (1584) 
0.51639999999999997

>  <r_i_glide_einternal>  (1584) 
6.4166460037231401

>  <r_i_glide_emodel>  (1584) 
-53.844337245829003

>  <r_i_glide_energy>  (1584) 
-42.883904933929401

>  <r_i_glide_erotb>  (1584) 
1.0474340757340701

>  <r_i_glide_esite>  (1584) 
-0.249176532926011

>  <r_i_glide_evdw>  (1584) 
-37.900577545166001

>  <r_i_glide_gscore>  (1584) 
-4.8422850195672904

>  <r_i_glide_hbond>  (1584) 
-0.204629369453246

>  <r_i_glide_ligand_efficiency>  (1584) 
-0.149168448950596

>  <r_i_glide_ligand_efficiency_ln>  (1584) 
-0.99051797450155599

>  <r_i_glide_ligand_efficiency_sa>  (1584) 
-0.45829273505797502

>  <r_i_glide_lipo>  (1584) 
-2.0124192073492901

>  <r_i_glide_metal>  (1584) 
-0

>  <r_i_glide_rewards>  (1584) 
-0.78096599999999905

>  <r_lp_Energy>  (1584) 
19.834204

>  <r_qp_ACxDN^.5/SA>  (1584) 
0.0107899

>  <r_qp_CIQPlogS>  (1584) 
-5.9749999999999996

>  <r_qp_EA(eV)>  (1584) 
0.97099999999999997

>  <r_qp_FISA>  (1584) 
102.238

>  <r_qp_FOSA>  (1584) 
139.26300000000001

>  <r_qp_IP(eV)>  (1584) 
8.0700000000000003

>  <r_qp_Jm>  (1584) 
0.042385783611833802

>  <r_qp_PISA>  (1584) 
505.58499999999998

>  <r_qp_PSA>  (1584) 
76.370999999999995

>  <r_qp_PercentHumanOralAbsorption>  (1584) 
100

>  <r_qp_QPPCaco>  (1584) 
1062.6110000000001

>  <r_qp_QPPMDCK>  (1584) 
528.27200000000005

>  <r_qp_QPlogBB>  (1584) 
-1.1220000000000001

>  <r_qp_QPlogHERG>  (1584) 
-7.6299999999999999

>  <r_qp_QPlogKhsa>  (1584) 
0.59099999999999997

>  <r_qp_QPlogKp>  (1584) 
-0.75900000000000001

>  <r_qp_QPlogPC16>  (1584) 
15.206

>  <r_qp_QPlogPo/w>  (1584) 
4.782

>  <r_qp_QPlogPoct>  (1584) 
21.628

>  <r_qp_QPlogPw>  (1584) 
12.210000000000001

>  <r_qp_QPlogS>  (1584) 
-6.2000000000000002

>  <r_qp_QPpolrz>  (1584) 
45.030999999999999

>  <r_qp_SASA>  (1584) 
747.08600000000001

>  <r_qp_SAamideO>  (1584) 
0

>  <r_qp_SAfluorine>  (1584) 
0

>  <r_qp_WPSA>  (1584) 
0

>  <r_qp_accptHB>  (1584) 
5.7000000000000002

>  <r_qp_dip^2/V>  (1584) 
0.0554925

>  <r_qp_dipole>  (1584) 
8.5020000000000007

>  <r_qp_donorHB>  (1584) 
2

>  <r_qp_glob>  (1584) 
0.7721462

>  <r_qp_mol_MW>  (1584) 
385.46499999999997

>  <r_qp_volume>  (1584) 
1302.74

>  <r_sd_BIOSOLVEIT.INFINISEE\_FTREES\_SIMILARITY>  (1584) 
0.91300000000000003

>  <r_sd_BIOSOLVEIT.LOGP>  (1584) 
4.0660999999999996

>  <r_sd_BIOSOLVEIT.MOLECULAR\_WEIGHT>  (1584) 
385.46499999999997

>  <r_sd_BIOSOLVEIT.TPSA>  (1584) 
67.150000000000006

>  <i_epik_Tot_Q>  (1584) 
0

>  <i_epik_Tot_abs_Q>  (1584) 
0

>  <i_f3d_flags>  (1584) 
0

>  <i_i_glide_confnum>  (1584) 
6

>  <i_i_glide_lignum>  (1584) 
435

>  <i_i_glide_posenum>  (1584) 
20

>  <i_i_glide_rotatable_bonds>  (1584) 
9

>  <i_lp_mmshare_version>  (1584) 
65135

>  <i_m_ct_format>  (1584) 
2

>  <i_m_source_file_index>  (1584) 
1127

>  <i_qp_#NandO>  (1584) 
5

>  <i_qp_#acid>  (1584) 
0

>  <i_qp_#amide>  (1584) 
0

>  <i_qp_#amidine>  (1584) 
0

>  <i_qp_#amine>  (1584) 
0

>  <i_qp_#in34>  (1584) 
0

>  <i_qp_#in56>  (1584) 
21

>  <i_qp_#metab>  (1584) 
3

>  <i_qp_#nonHatm>  (1584) 
29

>  <i_qp_#noncon>  (1584) 
0

>  <i_qp_#ringatoms>  (1584) 
21

>  <i_qp_#rotor>  (1584) 
9

>  <i_qp_#rtvFG>  (1584) 
0

>  <i_qp_#stars>  (1584) 
1

>  <i_qp_CNS>  (1584) 
-2

>  <i_qp_HumanOralAbsorption>  (1584) 
1

>  <i_qp_RuleOfFive>  (1584) 
0

>  <i_qp_RuleOfThree>  (1584) 
1

>  <i_sd_BIOSOLVEIT.INFINISEE\_REAGENT1\_NAME>  (1584) 
15507288

>  <i_sd_BIOSOLVEIT.INFINISEE\_REAGENT2\_NAME>  (1584) 
24798446

>  <i_sd_BIOSOLVEIT.INFINISEE\_RESULT\_RANK>  (1584) 
35202

>  <i_sd_version>  (1584) 
0

>  <b_lp_Chiralities_Consistent>  (1584) 
1

>  <b_sd_chiral_flag>  (1584) 
0

>  <canonical_id>  (1584) 
ATP-HTVS-F92825C2DD85

>  <compound_code>  (1584) 
36035

>  <title>  (1584) 
m_27bbd____15507288____24798446

>  <variant>  (1584) 
36035-2

>  <source_file>  (1584) 
运行/运行/ATP-VSW/ATP-VSW-DOCK_HTVS_1-003_lib/ATP-VSW-DOCK_HTVS_1-003_lib.mae

>  <canonical_smiles>  (1584) 
O=C(Cn1c(NCCc2ccc(CO)cc2)nc2ccccc21)c1ccccc1

>  <scaffold>  (1584) 
O=C(Cn1c(NCCc2ccccc2)nc2ccccc21)c1ccccc1

>  <molecular_formula>  (1584) 
C24H23N3O2

$$$$
ATP-HTVS-F937C5B79A0E
     RDKit          3D

 61 64  0  0  0  0  0  0  0  0999 V2000
  193.4869  186.2264  161.7231 F   0  0  0  0  0  0  0  0  0  0  0  0
  194.1877  187.3773  161.6274 C   0  0  0  0  0  0  0  0  0  0  0  0
  193.6320  188.5483  162.1912 C   0  0  0  0  0  0  0  0  0  0  0  0
  192.4245  188.4850  162.7992 F   0  0  0  0  0  0  0  0  0  0  0  0
  194.3319  189.7745  162.1335 C   0  0  0  0  0  0  0  0  0  0  0  0
  195.5865  189.8260  161.5059 C   0  0  0  0  0  0  0  0  0  0  0  0
  196.1380  188.6564  160.9375 C   0  0  0  0  0  0  0  0  0  0  0  0
  195.4513  187.4086  160.9839 C   0  0  0  0  0  0  0  0  0  0  0  0
  196.0366  186.1923  160.3710 C   0  0  0  0  0  0  0  0  0  0  0  0
  197.3222  186.1927  160.0516 N   0  0  0  0  0  0  0  0  0  0  0  0
  197.5944  185.0138  159.4521 N   0  0  0  0  0  0  0  0  0  0  0  0
  198.9236  184.7091  158.9247 C   0  0  0  0  0  0  0  0  0  0  0  0
  199.1482  183.5483  158.5828 O   0  0  0  0  0  0  0  0  0  0  0  0
  200.0491  185.7845  158.8087 C   0  0  2  0  0  0  0  0  0  0  0  0
  200.8158  185.7885  160.0481 N   0  0  0  0  0  0  0  0  0  0  0  0
  199.4758  187.1598  158.4223 C   0  0  0  0  0  0  0  0  0  0  0  0
  199.5739  188.2803  159.2859 C   0  0  0  0  0  0  0  0  0  0  0  0
  198.9533  189.4992  158.9532 C   0  0  0  0  0  0  0  0  0  0  0  0
  198.2180  189.6161  157.7577 C   0  0  0  0  0  0  0  0  0  0  0  0
  198.1218  188.5152  156.8868 C   0  0  0  0  0  0  0  0  0  0  0  0
  198.7481  187.3004  157.2169 C   0  0  0  0  0  0  0  0  0  0  0  0
  201.0847  185.3854  157.7296 C   0  0  2  0  0  0  0  0  0  0  0  0
  196.4521  184.2006  159.4567 C   0  0  0  0  0  0  0  0  0  0  0  0
  195.4477  184.9395  160.0276 C   0  0  0  0  0  0  0  0  0  0  0  0
  196.3479  182.8032  158.9071 C   0  0  1  0  0  0  0  0  0  0  0  0
  195.5897  182.7511  157.5672 C   0  0  1  0  0  0  0  0  0  0  0  0
  195.7395  181.4384  156.8946 N   0  0  1  0  0  0  0  0  0  0  0  0
  197.0659  181.1905  156.2827 C   0  0  1  0  0  0  0  0  0  0  0  0
  196.9835  181.0838  154.7725 C   0  0  0  0  0  0  0  0  0  0  0  0
  196.7774  182.2428  153.9953 C   0  0  0  0  0  0  0  0  0  0  0  0
  196.7453  182.1600  152.5914 C   0  0  0  0  0  0  0  0  0  0  0  0
  196.9148  180.9184  151.9545 C   0  0  0  0  0  0  0  0  0  0  0  0
  197.1120  179.7571  152.7256 C   0  0  0  0  0  0  0  0  0  0  0  0
  197.1482  179.8375  154.1326 C   0  0  0  0  0  0  0  0  0  0  0  0
  200.3928  185.1321  160.6861 H   0  0  0  0  0  0  0  0  0  0  0  0
  201.7348  185.4203  159.8609 H   0  0  0  0  0  0  0  0  0  0  0  0
  195.5590  180.6632  157.5315 H   0  0  0  0  0  0  0  0  0  0  0  0
  193.8987  190.6642  162.5766 H   0  0  0  0  0  0  0  0  0  0  0  0
  196.1408  190.7563  161.4670 H   0  0  0  0  0  0  0  0  0  0  0  0
  197.1084  188.7180  160.4884 H   0  0  0  0  0  0  0  0  0  0  0  0
  200.0526  188.1980  160.2513 H   0  0  0  0  0  0  0  0  0  0  0  0
  198.9846  190.3197  159.6613 H   0  0  0  0  0  0  0  0  0  0  0  0
  197.7073  190.5364  157.5225 H   0  0  0  0  0  0  0  0  0  0  0  0
  197.5410  188.5883  155.9775 H   0  0  0  0  0  0  0  0  0  0  0  0
  198.6185  186.4566  156.5538 H   0  0  0  0  0  0  0  0  0  0  0  0
  200.6134  185.2724  156.7500 H   0  0  0  0  0  0  0  0  0  0  0  0
  201.5665  184.4300  157.9524 H   0  0  0  0  0  0  0  0  0  0  0  0
  201.8709  186.1400  157.6256 H   0  0  0  0  0  0  0  0  0  0  0  0
  194.4207  184.6292  160.1730 H   0  0  0  0  0  0  0  0  0  0  0  0
  197.3182  182.3124  158.8026 H   0  0  0  0  0  0  0  0  0  0  0  0
  195.8097  182.1892  159.6332 H   0  0  0  0  0  0  0  0  0  0  0  0
  194.5292  182.9566  157.7334 H   0  0  0  0  0  0  0  0  0  0  0  0
  195.9497  183.5184  156.8780 H   0  0  0  0  0  0  0  0  0  0  0  0
  197.7915  181.9696  156.5342 H   0  0  0  0  0  0  0  0  0  0  0  0
  197.4740  180.2689  156.6977 H   0  0  0  0  0  0  0  0  0  0  0  0
  196.6458  183.2037  154.4709 H   0  0  0  0  0  0  0  0  0  0  0  0
  196.5902  183.0556  152.0074 H   0  0  0  0  0  0  0  0  0  0  0  0
  196.9006  180.8589  150.8739 H   0  0  0  0  0  0  0  0  0  0  0  0
  197.2518  178.8049  152.2346 H   0  0  0  0  0  0  0  0  0  0  0  0
  197.3144  178.9442  154.7181 H   0  0  0  0  0  0  0  0  0  0  0  0
  195.0296  181.3990  156.1756 H   0  0  0  0  0  0  0  0  0  0  0  0
  1  2  1  0
  2  3  2  0
  2  8  1  0
  3  4  1  0
  3  5  1  0
  5  6  2  0
  5 38  1  0
  6  7  1  0
  6 39  1  0
  7  8  2  0
  7 40  1  0
  8  9  1  0
  9 10  2  0
  9 24  1  0
 10 11  1  0
 11 12  1  0
 11 23  1  0
 12 13  2  0
 12 14  1  0
 14 15  1  1
 14 16  1  0
 14 22  1  0
 15 35  1  0
 15 36  1  0
 16 17  2  0
 16 21  1  0
 17 18  1  0
 17 41  1  0
 18 19  2  0
 18 42  1  0
 19 20  1  0
 19 43  1  0
 20 21  2  0
 20 44  1  0
 21 45  1  0
 22 46  1  6
 22 47  1  0
 22 48  1  0
 23 24  2  0
 23 25  1  0
 24 49  1  0
 25 26  1  0
 25 50  1  6
 25 51  1  0
 26 27  1  0
 26 52  1  1
 26 53  1  0
 27 28  1  0
 27 37  1  1
 27 61  1  0
 28 29  1  0
 28 54  1  6
 28 55  1  0
 29 30  2  0
 29 34  1  0
 30 31  1  0
 30 56  1  0
 31 32  2  0
 31 57  1  0
 32 33  1  0
 32 58  1  0
 33 34  2  0
 33 59  1  0
 34 60  1  0
M  CHG  1  27   1
M  END
>  <s_epik_cmdline>  (1585) 
J2VwaWtfcHl0aG9uJywgJy1waCcsICc3LjAwMDAwMCcsICctcGh0JywgJzIuMDAwMDAwJywgJy1tcycsICcxNicsICctdG4nLCAnOCcsICctbWEnLCAnMjAwJywgJy1pbWFlJywgJzxpbmZpbGUubWFlPicsICctb21hZScsICc8b3V0ZmlsZS5tYWU+Jw==

>  <s_epik_input>  (1585) 
RmMxYyhGKVtjSF1bY0hdW2NIXWMxLWMybm4oQyg9TylbQ0BAXShbTkgyXSkoW0NIM10pYzNbY0hdW2NIXVtjSF1bY0hdW2NIXTMpYyhbY0hdMilbQ0gyXVtDSDJdW05IXVtDSDJdYzRbY0hdW2NIXVtjSF1bY0hdW2NIXTQ=

>  <s_i_glide_gridfile>  (1585) 
ATP-Grid

>  <s_lp_Force_Field>  (1585) 
OPLS_2005

>  <s_lp_Variant>  (1585) 
Shen____49239300____6251622____40180766-1

>  <s_lp_label>  (1585) 
647_sdstereoexpander_1_neutralizer_1_epik_1_stereoizer_1

>  <s_m_source_file>  (1585) 
ATP-VSW-LIGPREP-003-in.maegz

>  <s_sd_BIOSOLVEIT.INFINISEE\_QUERY\_NAME>  (1585) 
Ref-Lig

>  <s_sd_BIOSOLVEIT.INFINISEE\_QUERY\_SMILES>  (1585) 
S(c1nc2c(cc1C[NH2+]Cc3ccc(cc3)C[NH+](C)C)cccc2)Cc4ccccc4

>  <s_sd_BIOSOLVEIT.INFINISEE\_REACTION\_NAME>  (1585) 
Shen

>  <s_sd_BIOSOLVEIT.INFINISEE\_REAGENT1\_SMILES>  (1585) 
O=C(CCNCc1ccccc1)C

>  <s_sd_BIOSOLVEIT.INFINISEE\_REAGENT2\_SMILES>  (1585) 
Fc1c(F)cccc1C(=O)OCC

>  <s_sd_BIOSOLVEIT.INFINISEE\_REAGENT3\_SMILES>  (1585) 
O=C(NN)C(N)(c1ccccc1)C

>  <s_sd_BIOSOLVEIT.INFINISEE\_SPACE>  (1585) 
KnowledgeSpace_290tr_2019-05

>  <s_vsw_compound_code>  (1585) 
20675

>  <s_vsw_variant>  (1585) 
20675-1

>  <r_epik_Charging_Adjusted_Penalty>  (1585) 
0.065241008616714599

>  <r_epik_Ionization_Penalty>  (1585) 
0.035999999999999997

>  <r_epik_Ionization_Penalty_Charging>  (1585) 
0.0293

>  <r_epik_Ionization_Penalty_Neutral>  (1585) 
0.0067000000000000002

>  <r_epik_State_Penalty>  (1585) 
0.035999999999999997

>  <r_i_docking_score>  (1585) 
-5.6664826951430296

>  <r_i_glide_ecoul>  (1585) 
-10.4029703140259

>  <r_i_glide_eff_state_penalty>  (1585) 
0.035999999999999997

>  <r_i_glide_einternal>  (1585) 
5.5846309661865199

>  <r_i_glide_emodel>  (1585) 
-65.438928708499006

>  <r_i_glide_energy>  (1585) 
-44.956852912902797

>  <r_i_glide_erotb>  (1585) 
0.75629205684314305

>  <r_i_glide_esite>  (1585) 
-0.10000000000000001

>  <r_i_glide_evdw>  (1585) 
-34.553882598877003

>  <r_i_glide_gscore>  (1585) 
-5.7024826951430301

>  <r_i_glide_hbond>  (1585) 
-0.30133334483059299

>  <r_i_glide_ligand_efficiency>  (1585) 
-0.166661255739501

>  <r_i_glide_ligand_efficiency_ln>  (1585) 
-1.2518849668130601

>  <r_i_glide_ligand_efficiency_sa>  (1585) 
-0.53991777027476295

>  <r_i_glide_lipo>  (1585) 
-1.6865816812608001

>  <r_i_glide_metal>  (1585) 
-0

>  <r_i_glide_rewards>  (1585) 
-1.0827200488470501

>  <r_lp_Energy>  (1585) 
27.763870000000001

>  <r_qp_ACxDN^.5/SA>  (1585) 
0.0146961

>  <r_qp_CIQPlogS>  (1585) 
-5.2880000000000003

>  <r_qp_EA(eV)>  (1585) 
0.82099999999999995

>  <r_qp_FISA>  (1585) 
76.965000000000003

>  <r_qp_FOSA>  (1585) 
154.989

>  <r_qp_IP(eV)>  (1585) 
9.4299999999999997

>  <r_qp_Jm>  (1585) 
0.0029493941206156001

>  <r_qp_PISA>  (1585) 
402.42899999999997

>  <r_qp_PSA>  (1585) 
67.358000000000004

>  <r_qp_PercentHumanOralAbsorption>  (1585) 
88.569999999999993

>  <r_qp_QPPCaco>  (1585) 
114.773

>  <r_qp_QPPMDCK>  (1585) 
146.05500000000001

>  <r_qp_QPlogBB>  (1585) 
0.33600000000000002

>  <r_qp_QPlogHERG>  (1585) 
-7.431

>  <r_qp_QPlogKhsa>  (1585) 
0.73499999999999999

>  <r_qp_QPlogKp>  (1585) 
-4.8769999999999998

>  <r_qp_QPlogPC16>  (1585) 
14.478999999999999

>  <r_qp_QPlogPo/w>  (1585) 
4.2279999999999998

>  <r_qp_QPlogPoct>  (1585) 
23.797000000000001

>  <r_qp_QPlogPw>  (1585) 
13.246

>  <r_qp_QPlogS>  (1585) 
-3.3159999999999998

>  <r_qp_QPpolrz>  (1585) 
47.396999999999998

>  <r_qp_SASA>  (1585) 
707.14800000000002

>  <r_qp_SAamideO>  (1585) 
0

>  <r_qp_SAfluorine>  (1585) 
72.765000000000001

>  <r_qp_WPSA>  (1585) 
72.765000000000001

>  <r_qp_accptHB>  (1585) 
6

>  <r_qp_dip^2/V>  (1585) 
0.0028760000000000001

>  <r_qp_dipole>  (1585) 
1.9850000000000001

>  <r_qp_donorHB>  (1585) 
3

>  <r_qp_glob>  (1585) 
0.84377800000000003

>  <r_qp_mol_MW>  (1585) 
460.52499999999998

>  <r_qp_volume>  (1585) 
1370.442

>  <r_sd_BIOSOLVEIT.INFINISEE\_FTREES\_SIMILARITY>  (1585) 
0.91200000000000003

>  <r_sd_BIOSOLVEIT.LOGP>  (1585) 
2.9319000000000002

>  <r_sd_BIOSOLVEIT.MOLECULAR\_WEIGHT>  (1585) 
462.541

>  <r_sd_BIOSOLVEIT.TPSA>  (1585) 
79.140000000000001

>  <i_epik_Tot_Q>  (1585) 
1

>  <i_epik_Tot_abs_Q>  (1585) 
1

>  <i_f3d_flags>  (1585) 
0

>  <i_i_glide_confnum>  (1585) 
8

>  <i_i_glide_lignum>  (1585) 
269

>  <i_i_glide_posenum>  (1585) 
17

>  <i_i_glide_rotatable_bonds>  (1585) 
9

>  <i_lp_mmshare_version>  (1585) 
65135

>  <i_m_ct_format>  (1585) 
2

>  <i_m_source_file_index>  (1585) 
647

>  <i_qp_#NandO>  (1585) 
5

>  <i_qp_#acid>  (1585) 
0

>  <i_qp_#amide>  (1585) 
0

>  <i_qp_#amidine>  (1585) 
0

>  <i_qp_#amine>  (1585) 
2

>  <i_qp_#in34>  (1585) 
0

>  <i_qp_#in56>  (1585) 
23

>  <i_qp_#metab>  (1585) 
5

>  <i_qp_#nonHatm>  (1585) 
34

>  <i_qp_#noncon>  (1585) 
0

>  <i_qp_#ringatoms>  (1585) 
23

>  <i_qp_#rotor>  (1585) 
8

>  <i_qp_#rtvFG>  (1585) 
0

>  <i_qp_#stars>  (1585) 
0

>  <i_qp_CNS>  (1585) 
1

>  <i_qp_HumanOralAbsorption>  (1585) 
3

>  <i_qp_RuleOfFive>  (1585) 
0

>  <i_qp_RuleOfThree>  (1585) 
0

>  <i_sd_BIOSOLVEIT.INFINISEE\_REAGENT1\_NAME>  (1585) 
49239300

>  <i_sd_BIOSOLVEIT.INFINISEE\_REAGENT2\_NAME>  (1585) 
6251622

>  <i_sd_BIOSOLVEIT.INFINISEE\_REAGENT3\_NAME>  (1585) 
40180766

>  <i_sd_BIOSOLVEIT.INFINISEE\_RESULT\_RANK>  (1585) 
36032

>  <i_sd_version>  (1585) 
0

>  <b_lp_Chiralities_Consistent>  (1585) 
1

>  <b_sd_chiral_flag>  (1585) 
0

>  <canonical_id>  (1585) 
ATP-HTVS-F937C5B79A0E

>  <compound_code>  (1585) 
20675

>  <title>  (1585) 
Shen____49239300____6251622____40180766

>  <variant>  (1585) 
20675-1

>  <source_file>  (1585) 
运行/运行/ATP-VSW/ATP-VSW-DOCK_HTVS_1-003_lib/ATP-VSW-DOCK_HTVS_1-003_lib.mae

>  <canonical_smiles>  (1585) 
C[C@](N)(C(=O)n1nc(-c2cccc(F)c2F)cc1CC[NH2+]Cc1ccccc1)c1ccccc1

>  <scaffold>  (1585) 
O=C(Cc1ccccc1)n1nc(-c2ccccc2)cc1CC[NH2+]Cc1ccccc1

>  <molecular_formula>  (1585) 
C27H27F2N4O+

$$$$
ATP-HTVS-F93F310E89BE
     RDKit          3D

 59 62  0  0  0  0  0  0  0  0999 V2000
  198.7144  184.4578  145.2980 Cl  0  0  0  0  0  0  0  0  0  0  0  0
  198.6330  184.8114  146.9898 C   0  0  0  0  0  0  0  0  0  0  0  0
  199.6357  185.5737  147.6392 C   0  0  0  0  0  0  0  0  0  0  0  0
  200.7867  186.1029  146.9236 C   0  0  0  0  0  0  0  0  0  0  0  0
  201.7016  186.5258  146.3563 N   0  0  0  0  0  0  0  0  0  0  0  0
  199.5209  185.8358  149.0210 C   0  0  0  0  0  0  0  0  0  0  0  0
  198.4173  185.3598  149.7527 C   0  0  0  0  0  0  0  0  0  0  0  0
  197.4190  184.5898  149.1109 C   0  0  0  0  0  0  0  0  0  0  0  0
  197.5363  184.3327  147.7294 C   0  0  0  0  0  0  0  0  0  0  0  0
  196.2059  184.0661  149.8584 C   0  0  1  0  0  0  0  0  0  0  0  0
  196.2998  184.0497  151.3132 N   0  0  0  0  0  0  0  0  0  0  0  0
  197.0481  183.0769  151.9775 C   0  0  0  0  0  0  0  0  0  0  0  0
  197.1569  181.8620  151.4005 N   0  0  0  0  0  0  0  0  0  0  0  0
  197.8615  180.9115  152.0456 C   0  0  0  0  0  0  0  0  0  0  0  0
  198.4591  181.1842  153.3117 C   0  0  0  0  0  0  0  0  0  0  0  0
  198.3699  182.4085  153.8737 N   0  0  0  0  0  0  0  0  0  0  0  0
  197.6604  183.3580  153.2273 C   0  0  0  0  0  0  0  0  0  0  0  0
  197.5571  184.6244  153.8336 N   0  0  0  0  0  0  0  0  0  0  0  0
  198.4225  185.0082  154.9456 C   0  0  1  0  0  0  0  0  0  0  0  0
  197.9389  184.6743  156.3519 C   0  0  0  0  0  0  0  0  0  0  0  0
  197.1733  183.5168  156.6322 C   0  0  0  0  0  0  0  0  0  0  0  0
  196.7623  183.2160  157.9482 C   0  0  0  0  0  0  0  0  0  0  0  0
  197.1374  184.0784  159.0050 C   0  0  0  0  0  0  0  0  0  0  0  0
  196.7639  183.8163  160.2750 F   0  0  0  0  0  0  0  0  0  0  0  0
  197.8587  185.2521  158.7218 C   0  0  0  0  0  0  0  0  0  0  0  0
  198.2701  185.5477  157.4068 C   0  0  0  0  0  0  0  0  0  0  0  0
  195.8821  182.0038  158.1875 C   0  0  1  0  0  0  0  0  0  0  0  0
  194.4266  182.3236  158.1363 N   0  0  1  0  0  0  0  0  0  0  0  0
  193.5941  181.1280  158.3453 C   0  0  2  0  0  0  0  0  0  0  0  0
  194.0270  183.4348  159.0161 C   0  0  2  0  0  0  0  0  0  0  0  0
  199.1458  180.1523  153.9863 C   0  0  0  0  0  0  0  0  0  0  0  0
  199.2895  178.8841  153.4027 C   0  0  0  0  0  0  0  0  0  0  0  0
  198.7352  178.6308  152.1358 C   0  0  0  0  0  0  0  0  0  0  0  0
  198.0131  179.6387  151.4706 C   0  0  0  0  0  0  0  0  0  0  0  0
  200.2755  186.4201  149.5265 H   0  0  0  0  0  0  0  0  0  0  0  0
  198.3549  185.5981  150.8042 H   0  0  0  0  0  0  0  0  0  0  0  0
  196.7668  183.7634  147.2237 H   0  0  0  0  0  0  0  0  0  0  0  0
  195.3500  184.6843  149.5815 H   0  0  0  0  0  0  0  0  0  0  0  0
  195.9800  183.0587  149.5009 H   0  0  0  0  0  0  0  0  0  0  0  0
  196.1882  184.9253  151.7930 H   0  0  0  0  0  0  0  0  0  0  0  0
  197.0872  185.3783  153.3547 H   0  0  0  0  0  0  0  0  0  0  0  0
  199.4184  184.5828  154.8060 H   0  0  0  0  0  0  0  0  0  0  0  0
  198.5580  186.0831  154.8722 H   0  0  0  0  0  0  0  0  0  0  0  0
  196.8609  182.8421  155.8357 H   0  0  0  0  0  0  0  0  0  0  0  0
  198.0835  185.9470  159.5322 H   0  0  0  0  0  0  0  0  0  0  0  0
  198.8204  186.4583  157.2154 H   0  0  0  0  0  0  0  0  0  0  0  0
  196.1156  181.2645  157.4132 H   0  0  0  0  0  0  0  0  0  0  0  0
  196.1499  181.5161  159.1362 H   0  0  0  0  0  0  0  0  0  0  0  0
  193.7904  180.6714  159.3174 H   0  0  0  0  0  0  0  0  0  0  0  0
  193.7632  180.3789  157.5713 H   0  0  0  0  0  0  0  0  0  0  0  0
  192.5381  181.3866  158.2963 H   0  0  0  0  0  0  0  0  0  0  0  0
  194.3388  183.2193  160.0403 H   0  0  0  0  0  0  0  0  0  0  0  0
  192.9409  183.5970  159.0057 H   0  0  0  0  0  0  0  0  0  0  0  0
  194.4749  184.3893  158.7390 H   0  0  0  0  0  0  0  0  0  0  0  0
  199.5634  180.3452  154.9667 H   0  0  0  0  0  0  0  0  0  0  0  0
  199.8357  178.1130  153.9231 H   0  0  0  0  0  0  0  0  0  0  0  0
  198.8615  177.6634  151.6774 H   0  0  0  0  0  0  0  0  0  0  0  0
  197.5768  179.4392  150.5030 H   0  0  0  0  0  0  0  0  0  0  0  0
  194.2247  182.6138  157.1714 H   0  0  0  0  0  0  0  0  0  0  0  0
  1  2  1  0
  2  3  2  0
  2  9  1  0
  3  4  1  0
  3  6  1  0
  4  5  3  0
  6  7  2  0
  6 35  1  0
  7  8  1  0
  7 36  1  0
  8  9  2  0
  8 10  1  0
  9 37  1  0
 10 11  1  0
 10 38  1  1
 10 39  1  0
 11 12  1  0
 11 40  1  0
 12 13  2  0
 12 17  1  0
 13 14  1  0
 14 15  1  0
 14 34  2  0
 15 16  1  0
 15 31  2  0
 16 17  2  0
 17 18  1  0
 18 19  1  0
 18 41  1  0
 19 20  1  0
 19 42  1  6
 19 43  1  0
 20 21  2  0
 20 26  1  0
 21 22  1  0
 21 44  1  0
 22 23  2  0
 22 27  1  0
 23 24  1  0
 23 25  1  0
 25 26  2  0
 25 45  1  0
 26 46  1  0
 27 28  1  0
 27 47  1  6
 27 48  1  0
 28 29  1  0
 28 30  1  0
 28 59  1  6
 29 49  1  1
 29 50  1  0
 29 51  1  0
 30 52  1  1
 30 53  1  0
 30 54  1  0
 31 32  1  0
 31 55  1  0
 32 33  2  0
 32 56  1  0
 33 34  1  0
 33 57  1  0
 34 58  1  0
M  CHG  1  28   1
M  END
>  <s_epik_cmdline>  (1586) 
J2VwaWtfcHl0aG9uJywgJy1waCcsICc3LjAwMDAwMCcsICctcGh0JywgJzIuMDAwMDAwJywgJy1tcycsICcxNicsICctdG4nLCAnOCcsICctbWEnLCAnMjAwJywgJy1pbWFlJywgJzxpbmZpbGUubWFlPicsICctb21hZScsICc8b3V0ZmlsZS5tYWU+Jw==

>  <s_epik_input>  (1586) 
Q2xjMWMoQyNOKVtjSF1bY0hdYyhbY0hdMSlbQ0gyXVtOSF1jKG4yKWMobmMoYzIzKVtjSF1bY0hdW2NIXVtjSF0zKVtOSF1bQ0gyXWM0W2NIXWMoYyhGKVtjSF1bY0hdNClbQ0gyXU4oW0NIM10pW0NIM10=

>  <s_i_glide_gridfile>  (1586) 
ATP-Grid

>  <s_lp_Force_Field>  (1586) 
OPLS_2005

>  <s_lp_Variant>  (1586) 
m_282030aaa____21898562____23157418____21968946-1

>  <s_lp_label>  (1586) 
2144_sdstereoexpander_1_neutralizer_1_epik_1_stereoizer_1

>  <s_m_source_file>  (1586) 
ATP-VSW-LIGPREP-002-in.maegz

>  <s_sd_BIOSOLVEIT.INFINISEE\_QUERY\_NAME>  (1586) 
Ref-Lig

>  <s_sd_BIOSOLVEIT.INFINISEE\_QUERY\_SMILES>  (1586) 
S(c1nc2c(cc1C[NH2+]Cc3ccc(cc3)C[NH+](C)C)cccc2)Cc4ccccc4

>  <s_sd_BIOSOLVEIT.INFINISEE\_REACTION\_NAME>  (1586) 
m_282030aaa

>  <s_sd_BIOSOLVEIT.INFINISEE\_REAGENT1\_SMILES>  (1586) 
[R1*]NCc1cc(Cl)c(C#N)cc1

>  <s_sd_BIOSOLVEIT.INFINISEE\_REAGENT2\_SMILES>  (1586) 
[R1*]c1nc2c(nc1[R2*])cccc2

>  <s_sd_BIOSOLVEIT.INFINISEE\_REAGENT3\_SMILES>  (1586) 
[R2*]NCc1cc(c(F)cc1)CN(C)C

>  <s_sd_BIOSOLVEIT.INFINISEE\_SPACE>  (1586) 
REALSpace_44bn_2023-08

>  <s_vsw_compound_code>  (1586) 
68578

>  <s_vsw_variant>  (1586) 
68578-1

>  <r_epik_Charging_Adjusted_Penalty>  (1586) 
0.10317023753822401

>  <r_epik_Ionization_Penalty>  (1586) 
0.051900000000000002

>  <r_epik_Ionization_Penalty_Charging>  (1586) 
0.0516

>  <r_epik_Ionization_Penalty_Neutral>  (1586) 
0.00040000000000000002

>  <r_epik_State_Penalty>  (1586) 
0.0516

>  <r_i_docking_score>  (1586) 
-4.51798694248071

>  <r_i_glide_ecoul>  (1586) 
-8.1086492538452095

>  <r_i_glide_eff_state_penalty>  (1586) 
0.0516

>  <r_i_glide_einternal>  (1586) 
3.2271864414215101

>  <r_i_glide_emodel>  (1586) 
-59.447830529331497

>  <r_i_glide_energy>  (1586) 
-43.457003593444803

>  <r_i_glide_erotb>  (1586) 
0.62558742253208399

>  <r_i_glide_esite>  (1586) 
-0.12913259348751099

>  <r_i_glide_evdw>  (1586) 
-35.348354339599602

>  <r_i_glide_gscore>  (1586) 
-4.5695869424807096

>  <r_i_glide_hbond>  (1586) 
-0.20000000000000001

>  <r_i_glide_ligand_efficiency>  (1586) 
-0.13288196889649201

>  <r_i_glide_ligand_efficiency_ln>  (1586) 
-0.99815004083525605

>  <r_i_glide_ligand_efficiency_sa>  (1586) 
-0.430485994108045

>  <r_i_glide_lipo>  (1586) 
-1.47418604413814

>  <r_i_glide_metal>  (1586) 
-0

>  <r_i_glide_rewards>  (1586) 
-0.40814062233038301

>  <r_lp_Energy>  (1586) 
20.057883

>  <r_qp_ACxDN^.5/SA>  (1586) 
0.013871700000000001

>  <r_qp_CIQPlogS>  (1586) 
-7.4779999999999998

>  <r_qp_EA(eV)>  (1586) 
1.002

>  <r_qp_FISA>  (1586) 
91.912999999999997

>  <r_qp_FOSA>  (1586) 
167.69399999999999

>  <r_qp_IP(eV)>  (1586) 
8.4000000000000004

>  <r_qp_Jm>  (1586) 
0.0060597816922742199

>  <r_qp_PISA>  (1586) 
322.88200000000001

>  <r_qp_PSA>  (1586) 
71.665999999999997

>  <r_qp_PercentHumanOralAbsorption>  (1586) 
100

>  <r_qp_QPPCaco>  (1586) 
332.03800000000001

>  <r_qp_QPPMDCK>  (1586) 
457.01100000000002

>  <r_qp_QPlogBB>  (1586) 
-0.16400000000000001

>  <r_qp_QPlogHERG>  (1586) 
-5.6440000000000001

>  <r_qp_QPlogKhsa>  (1586) 
0.61199999999999999

>  <r_qp_QPlogKp>  (1586) 
-3.2749999999999999

>  <r_qp_QPlogPC16>  (1586) 
14.076000000000001

>  <r_qp_QPlogPo/w>  (1586) 
4.3920000000000003

>  <r_qp_QPlogPoct>  (1586) 
22.611000000000001

>  <r_qp_QPlogPw>  (1586) 
11.51

>  <r_qp_QPlogS>  (1586) 
-4.6200000000000001

>  <r_qp_QPpolrz>  (1586) 
44.676000000000002

>  <r_qp_SASA>  (1586) 
662.67100000000005

>  <r_qp_SAamideO>  (1586) 
0

>  <r_qp_SAfluorine>  (1586) 
34.965000000000003

>  <r_qp_WPSA>  (1586) 
80.182000000000002

>  <r_qp_accptHB>  (1586) 
6.5

>  <r_qp_dip^2/V>  (1586) 
0.065060800000000002

>  <r_qp_dipole>  (1586) 
9.3279999999999994

>  <r_qp_donorHB>  (1586) 
2

>  <r_qp_glob>  (1586) 
0.88590559999999996

>  <r_qp_mol_MW>  (1586) 
474.96699999999998

>  <r_qp_volume>  (1586) 
1337.46

>  <r_sd_BIOSOLVEIT.INFINISEE\_FTREES\_SIMILARITY>  (1586) 
0.90100000000000002

>  <r_sd_BIOSOLVEIT.LOGP>  (1586) 
4.1626799999999999

>  <r_sd_BIOSOLVEIT.MOLECULAR\_WEIGHT>  (1586) 
475.97699999999998

>  <r_sd_BIOSOLVEIT.TPSA>  (1586) 
78.069999999999993

>  <i_epik_Tot_Q>  (1586) 
1

>  <i_epik_Tot_abs_Q>  (1586) 
1

>  <i_f3d_flags>  (1586) 
0

>  <i_i_glide_confnum>  (1586) 
7

>  <i_i_glide_lignum>  (1586) 
785

>  <i_i_glide_posenum>  (1586) 
15

>  <i_i_glide_rotatable_bonds>  (1586) 
8

>  <i_lp_mmshare_version>  (1586) 
65135

>  <i_m_ct_format>  (1586) 
2

>  <i_m_source_file_index>  (1586) 
2144

>  <i_qp_#NandO>  (1586) 
6

>  <i_qp_#acid>  (1586) 
0

>  <i_qp_#amide>  (1586) 
0

>  <i_qp_#amidine>  (1586) 
0

>  <i_qp_#amine>  (1586) 
1

>  <i_qp_#in34>  (1586) 
0

>  <i_qp_#in56>  (1586) 
22

>  <i_qp_#metab>  (1586) 
4

>  <i_qp_#nonHatm>  (1586) 
34

>  <i_qp_#noncon>  (1586) 
0

>  <i_qp_#ringatoms>  (1586) 
22

>  <i_qp_#rotor>  (1586) 
9

>  <i_qp_#rtvFG>  (1586) 
0

>  <i_qp_#stars>  (1586) 
0

>  <i_qp_CNS>  (1586) 
1

>  <i_qp_HumanOralAbsorption>  (1586) 
3

>  <i_qp_RuleOfFive>  (1586) 
0

>  <i_qp_RuleOfThree>  (1586) 
0

>  <i_sd_BIOSOLVEIT.INFINISEE\_REAGENT1\_NAME>  (1586) 
21898562

>  <i_sd_BIOSOLVEIT.INFINISEE\_REAGENT2\_NAME>  (1586) 
23157418

>  <i_sd_BIOSOLVEIT.INFINISEE\_REAGENT3\_NAME>  (1586) 
21968946

>  <i_sd_BIOSOLVEIT.INFINISEE\_RESULT\_RANK>  (1586) 
99992

>  <i_sd_version>  (1586) 
0

>  <b_lp_Chiralities_Consistent>  (1586) 
1

>  <b_sd_chiral_flag>  (1586) 
0

>  <canonical_id>  (1586) 
ATP-HTVS-F93F310E89BE

>  <compound_code>  (1586) 
68578

>  <title>  (1586) 
m_282030aaa____21898562____23157418____21968946

>  <variant>  (1586) 
68578-1

>  <source_file>  (1586) 
运行/运行/ATP-VSW/ATP-VSW-DOCK_HTVS_1-002_lib.maegz

>  <canonical_smiles>  (1586) 
C[NH+](C)Cc1cc(CNc2nc3ccccc3nc2NCc2ccc(C#N)c(Cl)c2)ccc1F

>  <scaffold>  (1586) 
c1ccc(CNc2nc3ccccc3nc2NCc2ccccc2)cc1

>  <molecular_formula>  (1586) 
C26H25ClFN6+

$$$$
ATP-HTVS-F97015D0DCF4
     RDKit          3D

 60 63  0  0  0  0  0  0  0  0999 V2000
  203.7820  186.3121  161.1187 F   0  0  0  0  0  0  0  0  0  0  0  0
  203.0058  187.1245  160.3616 C   0  0  0  0  0  0  0  0  0  0  0  0
  203.5726  188.2463  159.7306 C   0  0  0  0  0  0  0  0  0  0  0  0
  202.7613  189.0941  158.9459 C   0  0  0  0  0  0  0  0  0  0  0  0
  203.3413  190.2571  158.2987 C   0  0  0  0  0  0  0  0  0  0  0  0
  203.8035  191.1848  157.7806 N   0  0  0  0  0  0  0  0  0  0  0  0
  201.3904  188.8091  158.7913 C   0  0  0  0  0  0  0  0  0  0  0  0
  200.8157  187.6751  159.4093 C   0  0  0  0  0  0  0  0  0  0  0  0
  201.6382  186.8407  160.2080 C   0  0  0  0  0  0  0  0  0  0  0  0
  199.3474  187.4112  159.2538 C   0  0  0  0  0  0  0  0  0  0  0  0
  198.5562  188.3157  159.0029 O   0  0  0  0  0  0  0  0  0  0  0  0
  199.0069  186.1078  159.3266 N   0  0  0  0  0  0  0  0  0  0  0  0
  197.7061  185.5518  159.2299 C   0  0  0  0  0  0  0  0  0  0  0  0
  197.5555  184.2175  158.7576 C   0  0  0  0  0  0  0  0  0  0  0  0
  198.6783  183.4830  158.3651 N   0  0  0  0  0  0  0  0  0  0  0  0
  198.8191  183.3405  156.9236 C   0  0  1  0  0  0  0  0  0  0  0  0
  199.7623  182.2225  156.5641 C   0  0  0  0  0  0  0  0  0  0  0  0
  199.2831  180.8970  156.3796 C   0  0  0  0  0  0  0  0  0  0  0  0
  200.1697  179.8653  155.9783 C   0  0  0  0  0  0  0  0  0  0  0  0
  201.5348  180.1876  155.7259 C   0  0  0  0  0  0  0  0  0  0  0  0
  202.0042  181.4800  155.9928 C   0  0  0  0  0  0  0  0  0  0  0  0
  201.1379  182.5130  156.4031 C   0  0  0  0  0  0  0  0  0  0  0  0
  199.6698  178.4178  155.8426 C   0  0  1  0  0  0  0  0  0  0  0  0
  200.3554  177.4208  156.7243 N   0  0  1  0  0  0  0  0  0  0  0  0
  201.5925  176.8082  156.1638 C   0  0  2  0  0  0  0  0  0  0  0  0
  200.5344  177.8751  158.1198 C   0  0  2  0  0  0  0  0  0  0  0  0
  196.2593  183.6563  158.6840 C   0  0  0  0  0  0  0  0  0  0  0  0
  195.1465  184.4444  159.0893 C   0  0  0  0  0  0  0  0  0  0  0  0
  195.3357  185.6937  159.5346 N   0  0  0  0  0  0  0  0  0  0  0  0
  196.5548  186.2641  159.6299 C   0  0  0  0  0  0  0  0  0  0  0  0
  193.8345  183.9156  159.0417 C   0  0  0  0  0  0  0  0  0  0  0  0
  193.6371  182.6249  158.5498 C   0  0  0  0  0  0  0  0  0  0  0  0
  194.7250  181.8389  158.1326 C   0  0  0  0  0  0  0  0  0  0  0  0
  196.0232  182.3391  158.2154 C   0  0  0  0  0  0  0  0  0  0  0  0
  204.6252  188.4539  159.8551 H   0  0  0  0  0  0  0  0  0  0  0  0
  200.7706  189.4674  158.1972 H   0  0  0  0  0  0  0  0  0  0  0  0
  201.2393  185.9811  160.7280 H   0  0  0  0  0  0  0  0  0  0  0  0
  199.7778  185.4675  159.4051 H   0  0  0  0  0  0  0  0  0  0  0  0
  199.5509  183.7384  158.7971 H   0  0  0  0  0  0  0  0  0  0  0  0
  197.8598  183.1691  156.4211 H   0  0  0  0  0  0  0  0  0  0  0  0
  199.2288  184.2706  156.5137 H   0  0  0  0  0  0  0  0  0  0  0  0
  198.2237  180.6807  156.5392 H   0  0  0  0  0  0  0  0  0  0  0  0
  202.2534  179.4474  155.3664 H   0  0  0  0  0  0  0  0  0  0  0  0
  203.0592  181.6754  155.8807 H   0  0  0  0  0  0  0  0  0  0  0  0
  201.5257  183.5204  156.5422 H   0  0  0  0  0  0  0  0  0  0  0  0
  198.6122  178.3966  156.1071 H   0  0  0  0  0  0  0  0  0  0  0  0
  199.6900  178.1096  154.7972 H   0  0  0  0  0  0  0  0  0  0  0  0
  202.3891  177.5440  156.0685 H   0  0  0  0  0  0  0  0  0  0  0  0
  201.3786  176.3818  155.1758 H   0  0  0  0  0  0  0  0  0  0  0  0
  201.9257  175.9708  156.8036 H   0  0  0  0  0  0  0  0  0  0  0  0
  201.1881  178.7402  158.2026 H   0  0  0  0  0  0  0  0  0  0  0  0
  200.9351  177.0952  158.7609 H   0  0  0  0  0  0  0  0  0  0  0  0
  199.5761  178.1668  158.5309 H   0  0  0  0  0  0  0  0  0  0  0  0
  196.5507  187.2729  160.0099 H   0  0  0  0  0  0  0  0  0  0  0  0
  192.9783  184.5217  159.3198 H   0  0  0  0  0  0  0  0  0  0  0  0
  192.6848  182.1859  158.3653 H   0  0  0  0  0  0  0  0  0  0  0  0
  194.4666  180.8871  157.7177 H   0  0  0  0  0  0  0  0  0  0  0  0
  196.8241  181.6805  157.9022 H   0  0  0  0  0  0  0  0  0  0  0  0
  199.6698  176.6783  156.8026 H   0  0  0  0  0  0  0  0  0  0  0  0
  194.5058  186.2323  159.8020 H   0  0  0  0  0  0  0  0  0  0  0  0
  1  2  1  0
  2  3  2  0
  2  9  1  0
  3  4  1  0
  3 35  1  0
  4  5  1  0
  4  7  2  0
  5  6  3  0
  7  8  1  0
  7 36  1  0
  8  9  2  0
  8 10  1  0
  9 37  1  0
 10 11  2  0
 10 12  1  0
 12 13  1  0
 12 38  1  0
 13 14  2  0
 13 30  1  0
 14 15  1  0
 14 27  1  0
 15 16  1  0
 15 39  1  0
 16 17  1  0
 16 40  1  6
 16 41  1  0
 17 18  2  0
 17 22  1  0
 18 19  1  0
 18 42  1  0
 19 20  2  0
 19 23  1  0
 20 21  1  0
 20 43  1  0
 21 22  2  0
 21 44  1  0
 22 45  1  0
 23 24  1  0
 23 46  1  1
 23 47  1  0
 24 25  1  0
 24 26  1  0
 24 59  1  1
 25 48  1  6
 25 49  1  0
 25 50  1  0
 26 51  1  6
 26 52  1  0
 26 53  1  0
 27 28  1  0
 27 34  2  0
 28 29  1  0
 28 31  2  0
 29 30  2  0
 29 60  1  0
 30 54  1  0
 31 32  1  0
 31 55  1  0
 32 33  2  0
 32 56  1  0
 33 34  1  0
 33 57  1  0
 34 58  1  0
M  CHG  2  24   1  29   1
M  END
>  <s_epik_cmdline>  (1587) 
J2VwaWtfcHl0aG9uJywgJy1waCcsICc3LjAwMDAwMCcsICctcGh0JywgJzIuMDAwMDAwJywgJy1tcycsICcxNicsICctdG4nLCAnOCcsICctbWEnLCAnMjAwJywgJy1pbWFlJywgJzxpbmZpbGUubWFlPicsICctb21hZScsICc8b3V0ZmlsZS5tYWU+Jw==

>  <s_epik_input>  (1587) 
RmMxW2NIXWMoQyNOKVtjSF1jKFtjSF0xKUMoPU8pW05IXWMoW2NIXW5jKGMyMylbY0hdW2NIXVtjSF1bY0hdMyljMltOSF1bQ0gyXWM0W2NIXWMoW2NIXVtjSF1bY0hdNClbQ0gyXU4oW0NIM10pW0NIM10=

>  <s_i_glide_gridfile>  (1587) 
ATP-Grid

>  <s_lp_Force_Field>  (1587) 
OPLS_2005

>  <s_lp_Variant>  (1587) 
rxn502b____EMOL5759763____EMOL30488121____EMOL2873214-1

>  <s_lp_label>  (1587) 
2324_sdstereoexpander_1_neutralizer_1_epik_1_stereoizer_1

>  <s_m_source_file>  (1587) 
ATP-VSW-LIGPREP-001-in.maegz

>  <s_sd_BIOSOLVEIT.INFINISEE\_QUERY\_NAME>  (1587) 
Ref-Lig

>  <s_sd_BIOSOLVEIT.INFINISEE\_QUERY\_SMILES>  (1587) 
S(c1nc2c(cc1C[NH2+]Cc3ccc(cc3)C[NH+](C)C)cccc2)Cc4ccccc4

>  <s_sd_BIOSOLVEIT.INFINISEE\_REACTION\_NAME>  (1587) 
rxn502b

>  <s_sd_BIOSOLVEIT.INFINISEE\_REAGENT1\_NAME>  (1587) 
EMOL5759763

>  <s_sd_BIOSOLVEIT.INFINISEE\_REAGENT1\_SMILES>  (1587) 
Fc1cc(C#N)cc(c1)C(=O)O

>  <s_sd_BIOSOLVEIT.INFINISEE\_REAGENT2\_NAME>  (1587) 
EMOL30488121

>  <s_sd_BIOSOLVEIT.INFINISEE\_REAGENT2\_SMILES>  (1587) 
Brc1c(N)cnc2c1cccc2

>  <s_sd_BIOSOLVEIT.INFINISEE\_REAGENT3\_NAME>  (1587) 
EMOL2873214

>  <s_sd_BIOSOLVEIT.INFINISEE\_REAGENT3\_SMILES>  (1587) 
N(Cc1cc(ccc1)CN)(C)C

>  <s_sd_BIOSOLVEIT.INFINISEE\_SPACE>  (1587) 
eXplore_7tr_2022-12

>  <s_vsw_compound_code>  (1587) 
74337

>  <s_vsw_variant>  (1587) 
74337-1

>  <r_epik_Charging_Adjusted_Penalty>  (1587) 
0.24490422870036299

>  <r_epik_Ionization_Penalty>  (1587) 
0.12609999999999999

>  <r_epik_Ionization_Penalty_Charging>  (1587) 
0.12520000000000001

>  <r_epik_Ionization_Penalty_Neutral>  (1587) 
0.00089999999999999998

>  <r_epik_State_Penalty>  (1587) 
0.1197

>  <r_i_docking_score>  (1587) 
-3.6612267771414602

>  <r_i_glide_ecoul>  (1587) 
-10.829143524169901

>  <r_i_glide_eff_state_penalty>  (1587) 
0.1197

>  <r_i_glide_einternal>  (1587) 
3.37921166419983

>  <r_i_glide_emodel>  (1587) 
-50.863741505205901

>  <r_i_glide_energy>  (1587) 
-38.717508316040004

>  <r_i_glide_erotb>  (1587) 
0.677712426113254

>  <r_i_glide_esite>  (1587) 
-0.042050611684655799

>  <r_i_glide_evdw>  (1587) 
-27.888364791870099

>  <r_i_glide_gscore>  (1587) 
-3.7809267771414601

>  <r_i_glide_hbond>  (1587) 
0

>  <r_i_glide_ligand_efficiency>  (1587) 
-0.107683140504161

>  <r_i_glide_ligand_efficiency_ln>  (1587) 
-0.80886768900317196

>  <r_i_glide_ligand_efficiency_sa>  (1587) 
-0.34885157236584102

>  <r_i_glide_lipo>  (1587) 
-0.86533424721808505

>  <r_i_glide_metal>  (1587) 
-0

>  <r_i_glide_rewards>  (1587) 
-0.53246457613297604

>  <r_lp_Energy>  (1587) 
38.204411

>  <r_qp_ACxDN^.5/SA>  (1587) 
0.015078899999999999

>  <r_qp_CIQPlogS>  (1587) 
-6.4640000000000004

>  <r_qp_EA(eV)>  (1587) 
1.337

>  <r_qp_FISA>  (1587) 
149.85499999999999

>  <r_qp_FOSA>  (1587) 
191.33699999999999

>  <r_qp_IP(eV)>  (1587) 
8.6950000000000003

>  <r_qp_Jm>  (1587) 
8.3768169264187195e-05

>  <r_qp_PISA>  (1587) 
387.53100000000001

>  <r_qp_PSA>  (1587) 
88.140000000000001

>  <r_qp_PercentHumanOralAbsorption>  (1587) 
82.783000000000001

>  <r_qp_QPPCaco>  (1587) 
93.695999999999998

>  <r_qp_QPPMDCK>  (1587) 
55.588000000000001

>  <r_qp_QPlogBB>  (1587) 
-1.0169999999999999

>  <r_qp_QPlogHERG>  (1587) 
-7.2960000000000003

>  <r_qp_QPlogKhsa>  (1587) 
0.45800000000000002

>  <r_qp_QPlogKp>  (1587) 
-4.2110000000000003

>  <r_qp_QPlogPC16>  (1587) 
15.266999999999999

>  <r_qp_QPlogPo/w>  (1587) 
3.5089999999999999

>  <r_qp_QPlogPoct>  (1587) 
24.225999999999999

>  <r_qp_QPlogPw>  (1587) 
14.231999999999999

>  <r_qp_QPlogS>  (1587) 
-5.5229999999999997

>  <r_qp_QPpolrz>  (1587) 
48.042999999999999

>  <r_qp_SASA>  (1587) 
750.29899999999998

>  <r_qp_SAamideO>  (1587) 
0

>  <r_qp_SAfluorine>  (1587) 
21.577000000000002

>  <r_qp_WPSA>  (1587) 
21.577000000000002

>  <r_qp_accptHB>  (1587) 
8

>  <r_qp_dip^2/V>  (1587) 
0.051418100000000001

>  <r_qp_dipole>  (1587) 
8.4540000000000006

>  <r_qp_donorHB>  (1587) 
2

>  <r_qp_glob>  (1587) 
0.80284489999999997

>  <r_qp_mol_MW>  (1587) 
453.51799999999997

>  <r_qp_volume>  (1587) 
1390.1179999999999

>  <r_sd_BIOSOLVEIT.INFINISEE\_FTREES\_SIMILARITY>  (1587) 
0.92200000000000004

>  <r_sd_BIOSOLVEIT.LOGP>  (1587) 
3.75448

>  <r_sd_BIOSOLVEIT.MOLECULAR\_WEIGHT>  (1587) 
454.52699999999999

>  <r_sd_BIOSOLVEIT.TPSA>  (1587) 
82.25

>  <i_epik_Tot_Q>  (1587) 
2

>  <i_epik_Tot_abs_Q>  (1587) 
2

>  <i_f3d_flags>  (1587) 
0

>  <i_i_glide_confnum>  (1587) 
8

>  <i_i_glide_lignum>  (1587) 
830

>  <i_i_glide_posenum>  (1587) 
10

>  <i_i_glide_rotatable_bonds>  (1587) 
8

>  <i_lp_mmshare_version>  (1587) 
65135

>  <i_m_ct_format>  (1587) 
2

>  <i_m_source_file_index>  (1587) 
2324

>  <i_qp_#NandO>  (1587) 
6

>  <i_qp_#acid>  (1587) 
0

>  <i_qp_#amide>  (1587) 
0

>  <i_qp_#amidine>  (1587) 
0

>  <i_qp_#amine>  (1587) 
1

>  <i_qp_#in34>  (1587) 
0

>  <i_qp_#in56>  (1587) 
22

>  <i_qp_#metab>  (1587) 
6

>  <i_qp_#nonHatm>  (1587) 
34

>  <i_qp_#noncon>  (1587) 
0

>  <i_qp_#ringatoms>  (1587) 
22

>  <i_qp_#rotor>  (1587) 
8

>  <i_qp_#rtvFG>  (1587) 
0

>  <i_qp_#stars>  (1587) 
0

>  <i_qp_CNS>  (1587) 
-2

>  <i_qp_HumanOralAbsorption>  (1587) 
3

>  <i_qp_RuleOfFive>  (1587) 
0

>  <i_qp_RuleOfThree>  (1587) 
0

>  <i_sd_BIOSOLVEIT.INFINISEE\_RESULT\_RANK>  (1587) 
13556

>  <i_sd_version>  (1587) 
0

>  <b_lp_Chiralities_Consistent>  (1587) 
1

>  <b_sd_chiral_flag>  (1587) 
0

>  <canonical_id>  (1587) 
ATP-HTVS-F97015D0DCF4

>  <compound_code>  (1587) 
74337

>  <title>  (1587) 
rxn502b____EMOL5759763____EMOL30488121____EMOL2873214

>  <variant>  (1587) 
74337-1

>  <source_file>  (1587) 
运行/运行/ATP-VSW/ATP-VSW-DOCK_HTVS_1-001_lib/ATP-VSW-DOCK_HTVS_1-001_lib

>  <canonical_smiles>  (1587) 
C[NH+](C)Cc1cccc(CNc2c(NC(=O)c3cc(F)cc(C#N)c3)c[nH+]c3ccccc23)c1

>  <scaffold>  (1587) 
O=C(Nc1c[nH+]c2ccccc2c1NCc1ccccc1)c1ccccc1

>  <molecular_formula>  (1587) 
C27H26FN5O+2

$$$$
ATP-HTVS-F99370747DC9
     RDKit          3D

 61 64  0  0  0  0  0  0  0  0999 V2000
  196.7252  180.2638  150.2064 F   0  0  0  0  0  0  0  0  0  0  0  0
  196.8248  180.4592  151.5388 C   0  0  0  0  0  0  0  0  0  0  0  0
  196.5522  181.7245  152.0943 C   0  0  0  0  0  0  0  0  0  0  0  0
  196.6693  181.9033  153.4863 C   0  0  0  0  0  0  0  0  0  0  0  0
  197.0887  180.8383  154.3139 C   0  0  0  0  0  0  0  0  0  0  0  0
  197.3874  179.5872  153.7503 C   0  0  0  0  0  0  0  0  0  0  0  0
  197.2454  179.3971  152.3635 C   0  0  0  0  0  0  0  0  0  0  0  0
  197.3108  181.0519  155.7990 C   0  0  1  0  0  0  0  0  0  0  0  0
  196.4682  182.0778  156.4062 N   0  0  0  0  0  0  0  0  0  0  0  0
  196.8838  182.7544  157.5665 C   0  0  0  0  0  0  0  0  0  0  0  0
  198.1957  182.8116  157.8418 N   0  0  0  0  0  0  0  0  0  0  0  0
  198.6259  183.4613  158.9263 C   0  0  0  0  0  0  0  0  0  0  0  0
  197.8129  184.1634  159.7296 N   0  0  0  0  0  0  0  0  0  0  0  0
  196.4818  184.1432  159.5088 C   0  0  0  0  0  0  0  0  0  0  0  0
  195.9651  183.4063  158.4161 C   0  0  0  0  0  0  0  0  0  0  0  0
  194.5775  183.3475  158.2370 C   0  0  0  0  0  0  0  0  0  0  0  0
  193.7212  184.0843  159.0702 C   0  0  0  0  0  0  0  0  0  0  0  0
  194.2330  184.8578  160.1267 C   0  0  0  0  0  0  0  0  0  0  0  0
  195.6191  184.8659  160.3652 C   0  0  0  0  0  0  0  0  0  0  0  0
  199.9569  183.4240  159.2636 N   0  0  0  0  0  0  0  0  0  0  0  0
  200.9687  182.6558  158.5550 C   0  0  1  0  0  0  0  0  0  0  0  0
  202.1846  182.2673  159.3796 C   0  0  0  0  0  0  0  0  0  0  0  0
  202.4428  182.8067  160.6665 C   0  0  0  0  0  0  0  0  0  0  0  0
  203.5870  182.4083  161.3838 C   0  0  0  0  0  0  0  0  0  0  0  0
  204.4757  181.4709  160.8232 C   0  0  0  0  0  0  0  0  0  0  0  0
  204.2222  180.9338  159.5494 C   0  0  0  0  0  0  0  0  0  0  0  0
  203.0787  181.3264  158.8331 C   0  0  0  0  0  0  0  0  0  0  0  0
  203.8573  182.9886  162.7574 C   0  0  2  0  0  0  0  0  0  0  0  0
  196.1933  182.9126  151.2043 C   0  0  1  0  0  0  0  0  0  0  0  0
  197.3229  183.7608  150.8044 N   0  0  0  0  0  0  0  0  0  0  0  0
  197.9639  184.4168  151.9376 C   0  0  2  0  0  0  0  0  0  0  0  0
  198.3092  183.0318  150.0087 C   0  0  2  0  0  0  0  0  0  0  0  0
  196.4676  182.8722  153.9290 H   0  0  0  0  0  0  0  0  0  0  0  0
  197.7443  178.7771  154.3794 H   0  0  0  0  0  0  0  0  0  0  0  0
  197.5062  178.4521  151.9158 H   0  0  0  0  0  0  0  0  0  0  0  0
  197.1399  180.1285  156.3408 H   0  0  0  0  0  0  0  0  0  0  0  0
  198.3770  181.2607  155.9189 H   0  0  0  0  0  0  0  0  0  0  0  0
  195.4747  182.0389  156.1993 H   0  0  0  0  0  0  0  0  0  0  0  0
  194.1850  182.7625  157.4243 H   0  0  0  0  0  0  0  0  0  0  0  0
  192.6465  184.0886  158.8855 H   0  0  0  0  0  0  0  0  0  0  0  0
  193.5601  185.4324  160.7610 H   0  0  0  0  0  0  0  0  0  0  0  0
  196.0130  185.4289  161.2015 H   0  0  0  0  0  0  0  0  0  0  0  0
  200.2422  183.9599  160.0583 H   0  0  0  0  0  0  0  0  0  0  0  0
  200.5293  181.7427  158.1565 H   0  0  0  0  0  0  0  0  0  0  0  0
  201.2960  183.2382  157.6949 H   0  0  0  0  0  0  0  0  0  0  0  0
  201.7765  183.5227  161.1240 H   0  0  0  0  0  0  0  0  0  0  0  0
  205.3541  181.1603  161.3629 H   0  0  0  0  0  0  0  0  0  0  0  0
  204.9013  180.2167  159.1155 H   0  0  0  0  0  0  0  0  0  0  0  0
  202.8959  180.8980  157.8556 H   0  0  0  0  0  0  0  0  0  0  0  0
  204.2459  184.0034  162.6724 H   0  0  0  0  0  0  0  0  0  0  0  0
  204.5877  182.3894  163.3000 H   0  0  0  0  0  0  0  0  0  0  0  0
  202.9414  183.0176  163.3479 H   0  0  0  0  0  0  0  0  0  0  0  0
  195.6921  182.5481  150.3008 H   0  0  0  0  0  0  0  0  0  0  0  0
  195.4577  183.5212  151.7307 H   0  0  0  0  0  0  0  0  0  0  0  0
  198.7376  185.1129  151.6023 H   0  0  0  0  0  0  0  0  0  0  0  0
  198.4423  183.7030  152.6014 H   0  0  0  0  0  0  0  0  0  0  0  0
  197.2321  184.9900  152.5101 H   0  0  0  0  0  0  0  0  0  0  0  0
  199.1129  183.6991  149.6890 H   0  0  0  0  0  0  0  0  0  0  0  0
  197.8409  182.6163  149.1125 H   0  0  0  0  0  0  0  0  0  0  0  0
  198.7617  182.2182  150.5728 H   0  0  0  0  0  0  0  0  0  0  0  0
  198.1476  184.6895  160.5287 H   0  0  0  0  0  0  0  0  0  0  0  0
  1  2  1  0
  2  3  2  0
  2  7  1  0
  3  4  1  0
  3 29  1  0
  4  5  2  0
  4 33  1  0
  5  6  1  0
  5  8  1  0
  6  7  2  0
  6 34  1  0
  7 35  1  0
  8  9  1  0
  8 36  1  1
  8 37  1  0
  9 10  1  0
  9 38  1  0
 10 11  2  0
 10 15  1  0
 11 12  1  0
 12 13  2  0
 12 20  1  0
 13 14  1  0
 13 61  1  0
 14 15  1  0
 14 19  2  0
 15 16  2  0
 16 17  1  0
 16 39  1  0
 17 18  2  0
 17 40  1  0
 18 19  1  0
 18 41  1  0
 19 42  1  0
 20 21  1  0
 20 43  1  0
 21 22  1  0
 21 44  1  6
 21 45  1  0
 22 23  1  0
 22 27  2  0
 23 24  2  0
 23 46  1  0
 24 25  1  0
 24 28  1  0
 25 26  2  0
 25 47  1  0
 26 27  1  0
 26 48  1  0
 27 49  1  0
 28 50  1  6
 28 51  1  0
 28 52  1  0
 29 30  1  0
 29 53  1  6
 29 54  1  0
 30 31  1  0
 30 32  1  0
 31 55  1  6
 31 56  1  0
 31 57  1  0
 32 58  1  6
 32 59  1  0
 32 60  1  0
M  CHG  1  13   1
M  END
>  <s_epik_cmdline>  (1588) 
J2VwaWtfcHl0aG9uJywgJy1waCcsICc3LjAwMDAwMCcsICctcGh0JywgJzIuMDAwMDAwJywgJy1tcycsICcxNicsICctdG4nLCAnOCcsICctbWEnLCAnMjAwJywgJy1pbWFlJywgJzxpbmZpbGUubWFlPicsICctb21hZScsICc8b3V0ZmlsZS5tYWU+Jw==

>  <s_epik_input>  (1588) 
W0NIM11OKFtDSDNdKVtDSDJdYyhjMUYpW2NIXWMoW2NIXVtjSF0xKVtDSDJdW05IXWMoYyhjMjMpW2NIXVtjSF1bY0hdW2NIXTMpbmMobjIpW05IXVtDSDJdYzRbY0hdYyhbQ0gzXSlbY0hdW2NIXVtjSF00

>  <s_i_glide_gridfile>  (1588) 
ATP-Grid

>  <s_lp_Force_Field>  (1588) 
OPLS_2005

>  <s_lp_Variant>  (1588) 
m_282030aaa____21928408____22360182____21968946-2

>  <s_lp_label>  (1588) 
1317_sdstereoexpander_1_neutralizer_1_epik_2_stereoizer_1

>  <s_m_source_file>  (1588) 
ATP-VSW-LIGPREP-001-in.maegz

>  <s_sd_BIOSOLVEIT.INFINISEE\_QUERY\_NAME>  (1588) 
Ref-Lig

>  <s_sd_BIOSOLVEIT.INFINISEE\_QUERY\_SMILES>  (1588) 
S(c1nc2c(cc1C[NH2+]Cc3ccc(cc3)C[NH+](C)C)cccc2)Cc4ccccc4

>  <s_sd_BIOSOLVEIT.INFINISEE\_REACTION\_NAME>  (1588) 
m_282030aaa

>  <s_sd_BIOSOLVEIT.INFINISEE\_REAGENT1\_SMILES>  (1588) 
[R1*]NCc1cc(ccc1)C

>  <s_sd_BIOSOLVEIT.INFINISEE\_REAGENT2\_SMILES>  (1588) 
[R2*]c1nc([R1*])c2c(n1)cccc2

>  <s_sd_BIOSOLVEIT.INFINISEE\_REAGENT3\_SMILES>  (1588) 
[R2*]NCc1cc(c(F)cc1)CN(C)C

>  <s_sd_BIOSOLVEIT.INFINISEE\_SPACE>  (1588) 
REALSpace_44bn_2023-08

>  <s_vsw_compound_code>  (1588) 
42113

>  <s_vsw_variant>  (1588) 
42113-2

>  <r_epik_Charging_Adjusted_Penalty>  (1588) 
1.5125168317631801

>  <r_epik_Ionization_Penalty>  (1588) 
1.4886999999999999

>  <r_epik_Ionization_Penalty_Charging>  (1588) 
0.0167

>  <r_epik_Ionization_Penalty_Neutral>  (1588) 
1.4719

>  <r_epik_State_Penalty>  (1588) 
1.4958

>  <r_i_docking_score>  (1588) 
-2.4847667051999398

>  <r_i_glide_ecoul>  (1588) 
-3.8653287887573202

>  <r_i_glide_eff_state_penalty>  (1588) 
1.4958

>  <r_i_glide_einternal>  (1588) 
4.1455969810485804

>  <r_i_glide_emodel>  (1588) 
-46.709876603308103

>  <r_i_glide_energy>  (1588) 
-35.296320915222203

>  <r_i_glide_erotb>  (1588) 
0.75081306551978799

>  <r_i_glide_esite>  (1588) 
-0.080075412285583

>  <r_i_glide_evdw>  (1588) 
-31.430992126464801

>  <r_i_glide_gscore>  (1588) 
-3.9805667051999398

>  <r_i_glide_hbond>  (1588) 
-0.135846901712633

>  <r_i_glide_ligand_efficiency>  (1588) 
-0.077648959537498202

>  <r_i_glide_ligand_efficiency_ln>  (1588) 
-0.55640699747653199

>  <r_i_glide_ligand_efficiency_sa>  (1588) 
-0.24652007982333099

>  <r_i_glide_lipo>  (1588) 
-1.57832028884873

>  <r_i_glide_metal>  (1588) 
-0

>  <r_i_glide_rewards>  (1588) 
-0.78578824323594598

>  <r_lp_Energy>  (1588) 
16.293016000000001

>  <r_qp_ACxDN^.5/SA>  (1588) 
0.010342799999999999

>  <r_qp_CIQPlogS>  (1588) 
-6.1379999999999999

>  <r_qp_EA(eV)>  (1588) 
0.71899999999999997

>  <r_qp_FISA>  (1588) 
50.829999999999998

>  <r_qp_FOSA>  (1588) 
286.87400000000002

>  <r_qp_IP(eV)>  (1588) 
8.1720000000000006

>  <r_qp_Jm>  (1588) 
0.045193087196326802

>  <r_qp_PISA>  (1588) 
322.827

>  <r_qp_PSA>  (1588) 
47.457000000000001

>  <r_qp_PercentHumanOralAbsorption>  (1588) 
100

>  <r_qp_QPPCaco>  (1588) 
814.28899999999999

>  <r_qp_QPPMDCK>  (1588) 
586.86199999999997

>  <r_qp_QPlogBB>  (1588) 
0.070999999999999994

>  <r_qp_QPlogHERG>  (1588) 
-6.1689999999999996

>  <r_qp_QPlogKhsa>  (1588) 
0.86699999999999999

>  <r_qp_QPlogKp>  (1588) 
-2.6139999999999999

>  <r_qp_QPlogPC16>  (1588) 
13.426

>  <r_qp_QPlogPo/w>  (1588) 
4.952

>  <r_qp_QPlogPoct>  (1588) 
20.474

>  <r_qp_QPlogPw>  (1588) 
10.004

>  <r_qp_QPlogS>  (1588) 
-4.3639999999999999

>  <r_qp_QPpolrz>  (1588) 
44.826999999999998

>  <r_qp_SASA>  (1588) 
683.66800000000001

>  <r_qp_SAamideO>  (1588) 
0

>  <r_qp_SAfluorine>  (1588) 
23.137

>  <r_qp_WPSA>  (1588) 
23.137

>  <r_qp_accptHB>  (1588) 
5

>  <r_qp_dip^2/V>  (1588) 
0.0069994000000000002

>  <r_qp_dipole>  (1588) 
3.0459999999999998

>  <r_qp_donorHB>  (1588) 
2

>  <r_qp_glob>  (1588) 
0.85343999999999998

>  <r_qp_mol_MW>  (1588) 
429.53899999999999

>  <r_qp_volume>  (1588) 
1325.1959999999999

>  <r_sd_BIOSOLVEIT.INFINISEE\_FTREES\_SIMILARITY>  (1588) 
0.91000000000000003

>  <r_sd_BIOSOLVEIT.LOGP>  (1588) 
3.9460199999999999

>  <r_sd_BIOSOLVEIT.MOLECULAR\_WEIGHT>  (1588) 
430.548

>  <r_sd_BIOSOLVEIT.TPSA>  (1588) 
54.280000000000001

>  <i_epik_Tot_Q>  (1588) 
1

>  <i_epik_Tot_abs_Q>  (1588) 
1

>  <i_f3d_flags>  (1588) 
0

>  <i_i_glide_confnum>  (1588) 
10

>  <i_i_glide_lignum>  (1588) 
352

>  <i_i_glide_posenum>  (1588) 
18

>  <i_i_glide_rotatable_bonds>  (1588) 
8

>  <i_lp_mmshare_version>  (1588) 
65135

>  <i_m_ct_format>  (1588) 
2

>  <i_m_source_file_index>  (1588) 
1317

>  <i_qp_#NandO>  (1588) 
5

>  <i_qp_#acid>  (1588) 
0

>  <i_qp_#amide>  (1588) 
0

>  <i_qp_#amidine>  (1588) 
0

>  <i_qp_#amine>  (1588) 
1

>  <i_qp_#in34>  (1588) 
0

>  <i_qp_#in56>  (1588) 
22

>  <i_qp_#metab>  (1588) 
5

>  <i_qp_#nonHatm>  (1588) 
32

>  <i_qp_#noncon>  (1588) 
0

>  <i_qp_#ringatoms>  (1588) 
22

>  <i_qp_#rotor>  (1588) 
8

>  <i_qp_#rtvFG>  (1588) 
0

>  <i_qp_#stars>  (1588) 
0

>  <i_qp_CNS>  (1588) 
1

>  <i_qp_HumanOralAbsorption>  (1588) 
3

>  <i_qp_RuleOfFive>  (1588) 
0

>  <i_qp_RuleOfThree>  (1588) 
0

>  <i_sd_BIOSOLVEIT.INFINISEE\_REAGENT1\_NAME>  (1588) 
21928408

>  <i_sd_BIOSOLVEIT.INFINISEE\_REAGENT2\_NAME>  (1588) 
22360182

>  <i_sd_BIOSOLVEIT.INFINISEE\_REAGENT3\_NAME>  (1588) 
21968946

>  <i_sd_BIOSOLVEIT.INFINISEE\_RESULT\_RANK>  (1588) 
47515

>  <i_sd_version>  (1588) 
0

>  <b_lp_Chiralities_Consistent>  (1588) 
1

>  <b_sd_chiral_flag>  (1588) 
0

>  <canonical_id>  (1588) 
ATP-HTVS-F99370747DC9

>  <compound_code>  (1588) 
42113

>  <title>  (1588) 
m_282030aaa____21928408____22360182____21968946

>  <variant>  (1588) 
42113-2

>  <source_file>  (1588) 
运行/运行/ATP-VSW/ATP-VSW-DOCK_HTVS_1-001_lib/ATP-VSW-DOCK_HTVS_1-001_lib

>  <canonical_smiles>  (1588) 
Cc1cccc(CNc2nc(NCc3ccc(F)c(CN(C)C)c3)c3ccccc3[nH+]2)c1

>  <scaffold>  (1588) 
c1ccc(CNc2nc(NCc3ccccc3)c3ccccc3[nH+]2)cc1

>  <molecular_formula>  (1588) 
C26H29FN5+

$$$$
ATP-HTVS-F9B5ED51D5DA
     RDKit          3D

 68 71  0  0  0  0  0  0  0  0999 V2000
  204.8617  180.5626  161.2308 F   0  0  0  0  0  0  0  0  0  0  0  0
  204.0768  181.4086  160.5233 C   0  0  0  0  0  0  0  0  0  0  0  0
  203.6720  182.6485  161.0714 C   0  0  0  0  0  0  0  0  0  0  0  0
  204.0774  183.0365  162.4115 C   0  0  0  0  0  0  0  0  0  0  0  0
  204.3991  183.3503  163.4803 N   0  0  0  0  0  0  0  0  0  0  0  0
  202.8722  183.5206  160.3089 C   0  0  0  0  0  0  0  0  0  0  0  0
  202.4691  183.1643  159.0038 C   0  0  0  0  0  0  0  0  0  0  0  0
  202.8681  181.9232  158.4656 C   0  0  0  0  0  0  0  0  0  0  0  0
  203.6698  181.0492  159.2237 C   0  0  0  0  0  0  0  0  0  0  0  0
  201.5776  184.0927  158.1952 C   0  0  1  0  0  0  0  0  0  0  0  0
  200.1145  183.9361  158.6273 C   0  0  0  0  0  0  0  0  0  0  0  0
  199.8497  183.7722  159.8185 O   0  0  0  0  0  0  0  0  0  0  0  0
  199.1765  184.0073  157.6688 N   0  0  0  0  0  0  0  0  0  0  0  0
  197.8122  183.6712  157.8659 C   0  0  0  0  0  0  0  0  0  0  0  0
  197.2849  182.5576  157.1682 C   0  0  0  0  0  0  0  0  0  0  0  0
  198.0784  181.7878  156.3033 N   0  0  0  0  0  0  0  0  0  0  0  0
  197.7181  180.3875  156.1109 C   0  0  1  0  0  0  0  0  0  0  0  0
  198.2562  179.7722  154.8410 C   0  0  0  0  0  0  0  0  0  0  0  0
  199.3319  178.8663  154.8982 C   0  0  0  0  0  0  0  0  0  0  0  0
  199.7933  178.2497  153.7208 C   0  0  0  0  0  0  0  0  0  0  0  0
  199.1638  178.5195  152.4854 C   0  0  0  0  0  0  0  0  0  0  0  0
  198.0902  179.4393  152.4283 C   0  0  0  0  0  0  0  0  0  0  0  0
  197.6470  180.0691  153.6065 C   0  0  0  0  0  0  0  0  0  0  0  0
  199.6394  177.8259  151.2197 C   0  0  1  0  0  0  0  0  0  0  0  0
  198.8739  176.5721  150.9514 N   0  0  2  0  0  0  0  0  0  0  0  0
  199.2299  175.4500  151.8684 C   0  0  1  0  0  0  0  0  0  0  0  0
  200.6221  174.8378  151.6023 C   0  0  2  0  0  0  0  0  0  0  0  0
  198.8732  176.1556  149.5249 C   0  0  1  0  0  0  0  0  0  0  0  0
  198.1232  177.1207  148.5926 C   0  0  2  0  0  0  0  0  0  0  0  0
  195.9308  182.2376  157.3845 C   0  0  0  0  0  0  0  0  0  0  0  0
  195.1263  182.8991  158.2374 N   0  0  0  0  0  0  0  0  0  0  0  0
  195.6122  183.9724  158.8883 C   0  0  0  0  0  0  0  0  0  0  0  0
  196.9525  184.4145  158.7242 C   0  0  0  0  0  0  0  0  0  0  0  0
  197.3849  185.5762  159.4165 C   0  0  0  0  0  0  0  0  0  0  0  0
  196.5081  186.2629  160.2792 C   0  0  0  0  0  0  0  0  0  0  0  0
  195.1838  185.8144  160.4495 C   0  0  0  0  0  0  0  0  0  0  0  0
  194.7477  184.6788  159.7453 C   0  0  0  0  0  0  0  0  0  0  0  0
  202.5435  184.4606  160.7343 H   0  0  0  0  0  0  0  0  0  0  0  0
  202.5518  181.6328  157.4744 H   0  0  0  0  0  0  0  0  0  0  0  0
  203.9769  180.1018  158.8035 H   0  0  0  0  0  0  0  0  0  0  0  0
  201.8854  185.1281  158.3489 H   0  0  0  0  0  0  0  0  0  0  0  0
  201.6863  183.8772  157.1304 H   0  0  0  0  0  0  0  0  0  0  0  0
  199.4837  184.1135  156.7142 H   0  0  0  0  0  0  0  0  0  0  0  0
  199.0729  181.9581  156.3573 H   0  0  0  0  0  0  0  0  0  0  0  0
  198.0948  179.8306  156.9682 H   0  0  0  0  0  0  0  0  0  0  0  0
  196.6283  180.2360  156.0777 H   0  0  0  0  0  0  0  0  0  0  0  0
  199.7797  178.6110  155.8450 H   0  0  0  0  0  0  0  0  0  0  0  0
  200.6084  177.5425  153.7723 H   0  0  0  0  0  0  0  0  0  0  0  0
  197.5972  179.6606  151.4886 H   0  0  0  0  0  0  0  0  0  0  0  0
  196.8143  180.7563  153.5744 H   0  0  0  0  0  0  0  0  0  0  0  0
  199.5225  178.5617  150.4227 H   0  0  0  0  0  0  0  0  0  0  0  0
  200.7099  177.6300  151.2848 H   0  0  0  0  0  0  0  0  0  0  0  0
  199.1935  175.7910  152.9003 H   0  0  0  0  0  0  0  0  0  0  0  0
  198.4603  174.6764  151.7972 H   0  0  0  0  0  0  0  0  0  0  0  0
  200.8412  174.0388  152.3140 H   0  0  0  0  0  0  0  0  0  0  0  0
  201.4203  175.5735  151.7048 H   0  0  0  0  0  0  0  0  0  0  0  0
  200.6983  174.4016  150.6065 H   0  0  0  0  0  0  0  0  0  0  0  0
  199.8948  176.0357  149.1681 H   0  0  0  0  0  0  0  0  0  0  0  0
  198.3962  175.1772  149.4563 H   0  0  0  0  0  0  0  0  0  0  0  0
  198.1319  176.7341  147.5721 H   0  0  0  0  0  0  0  0  0  0  0  0
  198.5854  178.1066  148.5456 H   0  0  0  0  0  0  0  0  0  0  0  0
  197.0839  177.2423  148.8958 H   0  0  0  0  0  0  0  0  0  0  0  0
  195.4452  181.4302  156.8556 H   0  0  0  0  0  0  0  0  0  0  0  0
  198.3935  185.9511  159.3170 H   0  0  0  0  0  0  0  0  0  0  0  0
  196.8682  187.1269  160.8247 H   0  0  0  0  0  0  0  0  0  0  0  0
  194.5114  186.3399  161.1147 H   0  0  0  0  0  0  0  0  0  0  0  0
  193.7304  184.3356  159.8494 H   0  0  0  0  0  0  0  0  0  0  0  0
  197.9159  176.7944  151.1730 H   0  0  0  0  0  0  0  0  0  0  0  0
  1  2  1  0
  2  3  2  0
  2  9  1  0
  3  4  1  0
  3  6  1  0
  4  5  3  0
  6  7  2  0
  6 38  1  0
  7  8  1  0
  7 10  1  0
  8  9  2  0
  8 39  1  0
  9 40  1  0
 10 11  1  0
 10 41  1  6
 10 42  1  0
 11 12  2  0
 11 13  1  0
 13 14  1  0
 13 43  1  0
 14 15  2  0
 14 33  1  0
 15 16  1  0
 15 30  1  0
 16 17  1  0
 16 44  1  0
 17 18  1  0
 17 45  1  1
 17 46  1  0
 18 19  1  0
 18 23  2  0
 19 20  2  0
 19 47  1  0
 20 21  1  0
 20 48  1  0
 21 22  2  0
 21 24  1  0
 22 23  1  0
 22 49  1  0
 23 50  1  0
 24 25  1  0
 24 51  1  6
 24 52  1  0
 25 26  1  0
 25 28  1  0
 25 68  1  1
 26 27  1  0
 26 53  1  1
 26 54  1  0
 27 55  1  1
 27 56  1  0
 27 57  1  0
 28 29  1  0
 28 58  1  6
 28 59  1  0
 29 60  1  6
 29 61  1  0
 29 62  1  0
 30 31  2  0
 30 63  1  0
 31 32  1  0
 32 33  1  0
 32 37  2  0
 33 34  2  0
 34 35  1  0
 34 64  1  0
 35 36  2  0
 35 65  1  0
 36 37  1  0
 36 66  1  0
 37 67  1  0
M  CHG  1  25   1
M  END
>  <s_epik_cmdline>  (1589) 
J2VwaWtfcHl0aG9uJywgJy1waCcsICc3LjAwMDAwMCcsICctcGh0JywgJzIuMDAwMDAwJywgJy1tcycsICcxNicsICctdG4nLCAnOCcsICctbWEnLCAnMjAwJywgJy1pbWFlJywgJzxpbmZpbGUubWFlPicsICctb21hZScsICc8b3V0ZmlsZS5tYWU+Jw==

>  <s_epik_input>  (1589) 
RmMxYyhDI04pW2NIXWMoW2NIXVtjSF0xKVtDSDJdQyg9TylbTkhdYyhjKGMyMylbY0hdW2NIXVtjSF1bY0hdMyljKFtjSF1uMilbTkhdW0NIMl1jNFtjSF1bY0hdYyhbY0hdW2NIXTQpW0NIMl1OKFtDSDJdW0NIM10pW0NIMl1bQ0gzXQ==

>  <s_i_glide_gridfile>  (1589) 
ATP-Grid

>  <s_lp_Force_Field>  (1589) 
OPLS_2005

>  <s_lp_Variant>  (1589) 
rxn502b____EMOL44690203____EMOL13728749____EMOL2868412-1

>  <s_lp_label>  (1589) 
2550_sdstereoexpander_1_neutralizer_1_epik_1_stereoizer_1

>  <s_m_source_file>  (1589) 
ATP-VSW-LIGPREP-003-in.maegz

>  <s_sd_BIOSOLVEIT.INFINISEE\_QUERY\_NAME>  (1589) 
Ref-Lig

>  <s_sd_BIOSOLVEIT.INFINISEE\_QUERY\_SMILES>  (1589) 
S(c1nc2c(cc1C[NH2+]Cc3ccc(cc3)C[NH+](C)C)cccc2)Cc4ccccc4

>  <s_sd_BIOSOLVEIT.INFINISEE\_REACTION\_NAME>  (1589) 
rxn502b

>  <s_sd_BIOSOLVEIT.INFINISEE\_REAGENT1\_NAME>  (1589) 
EMOL44690203

>  <s_sd_BIOSOLVEIT.INFINISEE\_REAGENT1\_SMILES>  (1589) 
Fc1c(C#N)cc(cc1)CC(=O)O

>  <s_sd_BIOSOLVEIT.INFINISEE\_REAGENT2\_NAME>  (1589) 
EMOL13728749

>  <s_sd_BIOSOLVEIT.INFINISEE\_REAGENT2\_SMILES>  (1589) 
Brc1c(N)c2c(nc1)cccc2

>  <s_sd_BIOSOLVEIT.INFINISEE\_REAGENT3\_NAME>  (1589) 
EMOL2868412

>  <s_sd_BIOSOLVEIT.INFINISEE\_REAGENT3\_SMILES>  (1589) 
N(Cc1ccc(cc1)CN)(CC)CC

>  <s_sd_BIOSOLVEIT.INFINISEE\_SPACE>  (1589) 
eXplore_7tr_2022-12

>  <s_vsw_compound_code>  (1589) 
81571

>  <s_vsw_variant>  (1589) 
81571-1

>  <r_epik_Charging_Adjusted_Penalty>  (1589) 
0.049224292965194302

>  <r_epik_Ionization_Penalty>  (1589) 
0.033300000000000003

>  <r_epik_Ionization_Penalty_Charging>  (1589) 
0.015900000000000001

>  <r_epik_Ionization_Penalty_Neutral>  (1589) 
0.017399999999999999

>  <r_epik_State_Penalty>  (1589) 
0.033300000000000003

>  <r_i_docking_score>  (1589) 
-4.7314456659434203

>  <r_i_glide_ecoul>  (1589) 
-5.2800040245056197

>  <r_i_glide_eff_state_penalty>  (1589) 
0.033300000000000003

>  <r_i_glide_einternal>  (1589) 
3.1254935264587398

>  <r_i_glide_emodel>  (1589) 
-64.4171149976154

>  <r_i_glide_energy>  (1589) 
-46.729653835296602

>  <r_i_glide_erotb>  (1589) 
0.74425390949439696

>  <r_i_glide_esite>  (1589) 
-0.031869660113126898

>  <r_i_glide_evdw>  (1589) 
-41.449649810791001

>  <r_i_glide_gscore>  (1589) 
-4.76474566594342

>  <r_i_glide_hbond>  (1589) 
0

>  <r_i_glide_ligand_efficiency>  (1589) 
-0.12787690989036299

>  <r_i_glide_ligand_efficiency_ln>  (1589) 
-1.0261396441191599

>  <r_i_glide_ligand_efficiency_sa>  (1589) 
-0.42611423294473999

>  <r_i_glide_lipo>  (1589) 
-2.2729295783930699

>  <r_i_glide_metal>  (1589) 
-0

>  <r_i_glide_rewards>  (1589) 
-0.339717242716223

>  <r_lp_Energy>  (1589) 
34.830997000000004

>  <r_qp_ACxDN^.5/SA>  (1589) 
0.0153574

>  <r_qp_CIQPlogS>  (1589) 
-7.306

>  <r_qp_EA(eV)>  (1589) 
1.1020000000000001

>  <r_qp_FISA>  (1589) 
94.978999999999999

>  <r_qp_FOSA>  (1589) 
227.83000000000001

>  <r_qp_IP(eV)>  (1589) 
8.6999999999999993

>  <r_qp_Jm>  (1589) 
0.0068824380541130997

>  <r_qp_PISA>  (1589) 
372.19400000000002

>  <r_qp_PSA>  (1589) 
83.325999999999993

>  <r_qp_PercentHumanOralAbsorption>  (1589) 
100

>  <r_qp_QPPCaco>  (1589) 
310.53899999999999

>  <r_qp_QPPMDCK>  (1589) 
261.60199999999998

>  <r_qp_QPlogBB>  (1589) 
-0.45600000000000002

>  <r_qp_QPlogHERG>  (1589) 
-6.3099999999999996

>  <r_qp_QPlogKhsa>  (1589) 
0.65500000000000003

>  <r_qp_QPlogKp>  (1589) 
-2.9649999999999999

>  <r_qp_QPlogPC16>  (1589) 
15.429

>  <r_qp_QPlogPo/w>  (1589) 
4.6609999999999996

>  <r_qp_QPlogPoct>  (1589) 
25.067

>  <r_qp_QPlogPw>  (1589) 
13.067

>  <r_qp_QPlogS>  (1589) 
-4.8920000000000003

>  <r_qp_QPpolrz>  (1589) 
50.270000000000003

>  <r_qp_SASA>  (1589) 
736.69200000000001

>  <r_qp_SAamideO>  (1589) 
0

>  <r_qp_SAfluorine>  (1589) 
41.689

>  <r_qp_WPSA>  (1589) 
41.689

>  <r_qp_accptHB>  (1589) 
8

>  <r_qp_dip^2/V>  (1589) 
0.055733600000000001

>  <r_qp_dipole>  (1589) 
9.1359999999999992

>  <r_qp_donorHB>  (1589) 
2

>  <r_qp_glob>  (1589) 
0.85928559999999998

>  <r_qp_mol_MW>  (1589) 
495.59800000000001

>  <r_qp_volume>  (1589) 
1497.5719999999999

>  <r_sd_BIOSOLVEIT.INFINISEE\_FTREES\_SIMILARITY>  (1589) 
0.91300000000000003

>  <r_sd_BIOSOLVEIT.LOGP>  (1589) 
4.4635800000000003

>  <r_sd_BIOSOLVEIT.MOLECULAR\_WEIGHT>  (1589) 
496.60700000000003

>  <r_sd_BIOSOLVEIT.TPSA>  (1589) 
82.25

>  <i_epik_Tot_Q>  (1589) 
1

>  <i_epik_Tot_abs_Q>  (1589) 
1

>  <i_f3d_flags>  (1589) 
0

>  <i_i_glide_confnum>  (1589) 
11

>  <i_i_glide_lignum>  (1589) 
1126

>  <i_i_glide_posenum>  (1589) 
13

>  <i_i_glide_rotatable_bonds>  (1589) 
11

>  <i_lp_mmshare_version>  (1589) 
65135

>  <i_m_ct_format>  (1589) 
2

>  <i_m_source_file_index>  (1589) 
2550

>  <i_qp_#NandO>  (1589) 
6

>  <i_qp_#acid>  (1589) 
0

>  <i_qp_#amide>  (1589) 
0

>  <i_qp_#amidine>  (1589) 
0

>  <i_qp_#amine>  (1589) 
1

>  <i_qp_#in34>  (1589) 
0

>  <i_qp_#in56>  (1589) 
22

>  <i_qp_#metab>  (1589) 
7

>  <i_qp_#nonHatm>  (1589) 
37

>  <i_qp_#noncon>  (1589) 
0

>  <i_qp_#ringatoms>  (1589) 
22

>  <i_qp_#rotor>  (1589) 
11

>  <i_qp_#rtvFG>  (1589) 
0

>  <i_qp_#stars>  (1589) 
0

>  <i_qp_CNS>  (1589) 
1

>  <i_qp_HumanOralAbsorption>  (1589) 
3

>  <i_qp_RuleOfFive>  (1589) 
0

>  <i_qp_RuleOfThree>  (1589) 
1

>  <i_sd_BIOSOLVEIT.INFINISEE\_RESULT\_RANK>  (1589) 
35673

>  <i_sd_version>  (1589) 
0

>  <b_lp_Chiralities_Consistent>  (1589) 
1

>  <b_sd_chiral_flag>  (1589) 
0

>  <canonical_id>  (1589) 
ATP-HTVS-F9B5ED51D5DA

>  <compound_code>  (1589) 
81571

>  <title>  (1589) 
rxn502b____EMOL44690203____EMOL13728749____EMOL2868412

>  <variant>  (1589) 
81571-1

>  <source_file>  (1589) 
运行/运行/ATP-VSW/ATP-VSW-DOCK_HTVS_1-003_lib/ATP-VSW-DOCK_HTVS_1-003_lib.mae

>  <canonical_smiles>  (1589) 
CC[NH+](CC)Cc1ccc(CNc2cnc3ccccc3c2NC(=O)Cc2ccc(F)c(C#N)c2)cc1

>  <scaffold>  (1589) 
O=C(Cc1ccccc1)Nc1c(NCc2ccccc2)cnc2ccccc12

>  <molecular_formula>  (1589) 
C30H31FN5O+

$$$$
ATP-HTVS-F9EAD73A28F1
     RDKit          3D

 67 70  0  0  0  0  0  0  0  0999 V2000
  199.2468  186.6012  156.3147 O   0  0  0  0  0  0  0  0  0  0  0  0
  199.0731  185.5440  157.1825 C   0  0  0  0  0  0  0  0  0  0  0  0
  197.9240  184.7404  157.2254 C   0  0  0  0  0  0  0  0  0  0  0  0
  197.7793  183.6883  158.1299 C   0  0  0  0  0  0  0  0  0  0  0  0
  198.8095  183.4366  159.0640 C   0  0  0  0  0  0  0  0  0  0  0  0
  199.9790  184.2224  159.0502 C   0  0  0  0  0  0  0  0  0  0  0  0
  200.1183  185.2712  158.1114 C   0  0  0  0  0  0  0  0  0  0  0  0
  196.4764  182.8943  158.1403 C   0  0  1  0  0  0  0  0  0  0  0  0
  195.3580  183.7164  158.6690 N   0  0  0  0  0  0  0  0  0  0  0  0
  194.0669  183.0016  158.6740 C   0  0  1  0  0  0  0  0  0  0  0  0
  194.0811  181.4947  158.9827 C   0  0  2  0  0  0  0  0  0  0  0  0
  195.6386  184.3461  159.9704 C   0  0  1  0  0  0  0  0  0  0  0  0
  194.6956  185.4921  160.3816 C   0  0  2  0  0  0  0  0  0  0  0  0
  196.2317  182.3166  156.7071 C   0  0  1  0  0  0  0  0  0  0  0  0
  197.2381  181.3091  156.3636 N   0  0  0  0  0  0  0  0  0  0  0  0
  197.0580  180.7674  155.0116 C   0  0  1  0  0  0  0  0  0  0  0  0
  197.2413  181.7676  153.9084 C   0  0  0  0  0  0  0  0  0  0  0  0
  197.9272  182.9104  154.0683 N   0  0  0  0  0  0  0  0  0  0  0  0
  197.7770  183.5479  152.8705 C   0  0  0  0  0  0  0  0  0  0  0  0
  197.0380  182.7462  151.9500 C   0  0  0  0  0  0  0  0  0  0  0  0
  196.7324  181.5842  152.6491 N   0  0  0  0  0  0  0  0  0  0  0  0
  196.0207  180.4226  152.1237 C   0  0  1  0  0  0  0  0  0  0  0  0
  196.9204  179.5665  151.2474 C   0  0  0  0  0  0  0  0  0  0  0  0
  197.9525  178.8066  151.8241 C   0  0  0  0  0  0  0  0  0  0  0  0
  198.7815  177.9987  151.0205 C   0  0  0  0  0  0  0  0  0  0  0  0
  198.5781  177.9543  149.6284 C   0  0  0  0  0  0  0  0  0  0  0  0
  197.5448  178.7110  149.0426 C   0  0  0  0  0  0  0  0  0  0  0  0
  196.7156  179.5162  149.8485 C   0  0  0  0  0  0  0  0  0  0  0  0
  196.7959  183.1868  150.6268 C   0  0  0  0  0  0  0  0  0  0  0  0
  197.2529  184.4626  150.2279 C   0  0  0  0  0  0  0  0  0  0  0  0
  197.9663  185.2750  151.1368 C   0  0  0  0  0  0  0  0  0  0  0  0
  198.2568  184.8136  152.4334 C   0  0  0  0  0  0  0  0  0  0  0  0
  198.1580  186.8747  155.4327 C   0  0  2  0  0  0  0  0  0  0  0  0
  197.1521  180.5392  157.0155 H   0  0  0  0  0  0  0  0  0  0  0  0
  197.0727  184.9041  156.5724 H   0  0  0  0  0  0  0  0  0  0  0  0
  198.6922  182.6343  159.7795 H   0  0  0  0  0  0  0  0  0  0  0  0
  200.7614  184.0335  159.7760 H   0  0  0  0  0  0  0  0  0  0  0  0
  200.9995  185.8873  158.1021 H   0  0  0  0  0  0  0  0  0  0  0  0
  196.6423  182.0660  158.8239 H   0  0  0  0  0  0  0  0  0  0  0  0
  193.3734  183.4725  159.3620 H   0  0  0  0  0  0  0  0  0  0  0  0
  193.5705  183.1838  157.7470 H   0  0  0  0  0  0  0  0  0  0  0  0
  193.0703  181.0795  159.0076 H   0  0  0  0  0  0  0  0  0  0  0  0
  194.5486  181.2941  159.9451 H   0  0  0  0  0  0  0  0  0  0  0  0
  194.6245  180.9845  158.2064 H   0  0  0  0  0  0  0  0  0  0  0  0
  195.6704  183.5699  160.7320 H   0  0  0  0  0  0  0  0  0  0  0  0
  196.6158  184.8299  159.9843 H   0  0  0  0  0  0  0  0  0  0  0  0
  195.0396  185.9426  161.3148 H   0  0  0  0  0  0  0  0  0  0  0  0
  193.6623  185.1812  160.5308 H   0  0  0  0  0  0  0  0  0  0  0  0
  194.7058  186.2810  159.6291 H   0  0  0  0  0  0  0  0  0  0  0  0
  195.2482  181.8599  156.5786 H   0  0  0  0  0  0  0  0  0  0  0  0
  196.2663  183.1304  155.9837 H   0  0  0  0  0  0  0  0  0  0  0  0
  197.7638  179.9500  154.8535 H   0  0  0  0  0  0  0  0  0  0  0  0
  196.0616  180.3275  154.9791 H   0  0  0  0  0  0  0  0  0  0  0  0
  195.6130  179.7995  152.9149 H   0  0  0  0  0  0  0  0  0  0  0  0
  195.1668  180.7802  151.5507 H   0  0  0  0  0  0  0  0  0  0  0  0
  198.1171  178.8286  152.8924 H   0  0  0  0  0  0  0  0  0  0  0  0
  199.5713  177.4180  151.4728 H   0  0  0  0  0  0  0  0  0  0  0  0
  199.2165  177.3412  149.0090 H   0  0  0  0  0  0  0  0  0  0  0  0
  197.3894  178.6748  147.9734 H   0  0  0  0  0  0  0  0  0  0  0  0
  195.9246  180.0912  149.3967 H   0  0  0  0  0  0  0  0  0  0  0  0
  196.3010  182.5317  149.9248 H   0  0  0  0  0  0  0  0  0  0  0  0
  197.0963  184.8079  149.2092 H   0  0  0  0  0  0  0  0  0  0  0  0
  198.3346  186.2493  150.8368 H   0  0  0  0  0  0  0  0  0  0  0  0
  198.8605  185.4118  153.0999 H   0  0  0  0  0  0  0  0  0  0  0  0
  198.4068  187.6436  154.6988 H   0  0  0  0  0  0  0  0  0  0  0  0
  197.2889  187.2152  156.0026 H   0  0  0  0  0  0  0  0  0  0  0  0
  197.8923  185.9826  154.8694 H   0  0  0  0  0  0  0  0  0  0  0  0
  1  2  1  0
  1 33  1  0
  2  3  2  0
  2  7  1  0
  3  4  1  0
  3 35  1  0
  4  5  2  0
  4  8  1  0
  5  6  1  0
  5 36  1  0
  6  7  2  0
  6 37  1  0
  7 38  1  0
  8  9  1  0
  8 14  1  0
  8 39  1  1
  9 10  1  0
  9 12  1  0
 10 11  1  0
 10 40  1  1
 10 41  1  0
 11 42  1  1
 11 43  1  0
 11 44  1  0
 12 13  1  0
 12 45  1  1
 12 46  1  0
 13 47  1  1
 13 48  1  0
 13 49  1  0
 14 15  1  0
 14 50  1  1
 14 51  1  0
 15 16  1  0
 15 34  1  0
 16 17  1  0
 16 52  1  6
 16 53  1  0
 17 18  2  0
 17 21  1  0
 18 19  1  0
 19 20  1  0
 19 32  2  0
 20 21  1  0
 20 29  2  0
 21 22  1  0
 22 23  1  0
 22 54  1  1
 22 55  1  0
 23 24  2  0
 23 28  1  0
 24 25  1  0
 24 56  1  0
 25 26  2  0
 25 57  1  0
 26 27  1  0
 26 58  1  0
 27 28  2  0
 27 59  1  0
 28 60  1  0
 29 30  1  0
 29 61  1  0
 30 31  2  0
 30 62  1  0
 31 32  1  0
 31 63  1  0
 32 64  1  0
 33 65  1  6
 33 66  1  0
 33 67  1  0
M  END
>  <s_epik_cmdline>  (1590) 
J2VwaWtfcHl0aG9uJywgJy1waCcsICc3LjAwMDAwMCcsICctcGh0JywgJzIuMDAwMDAwJywgJy1tcycsICcxNicsICctdG4nLCAnOCcsICctbWEnLCAnMjAwJywgJy1pbWFlJywgJzxpbmZpbGUubWFlPicsICctb21hZScsICc8b3V0ZmlsZS5tYWU+Jw==

>  <s_epik_input>  (1590) 
W0NIM11PYzFbY0hdYyhbY0hdW2NIXVtjSF0xKVtDQEBIXShOKFtDSDJdW0NIM10pW0NIMl1bQ0gzXSlbQ0gyXVtOSF1bQ0gyXWMobjIpbihjKGMyMylbY0hdW2NIXVtjSF1bY0hdMylbQ0gyXWM0W2NIXVtjSF1bY0hdW2NIXVtjSF00

>  <s_i_glide_gridfile>  (1590) 
ATP-Grid

>  <s_lp_Force_Field>  (1590) 
OPLS_2005

>  <s_lp_Variant>  (1590) 
m_270004bbb____8289108____24720860-5

>  <s_lp_label>  (1590) 
926_sdstereoexpander_1_neutralizer_1_epik_3_stereoizer_1

>  <s_m_source_file>  (1590) 
ATP-VSW-LIGPREP-003-in.maegz

>  <s_sd_BIOSOLVEIT.INFINISEE\_QUERY\_NAME>  (1590) 
Ref-Lig

>  <s_sd_BIOSOLVEIT.INFINISEE\_QUERY\_SMILES>  (1590) 
S(c1nc2c(cc1C[NH2+]Cc3ccc(cc3)C[NH+](C)C)cccc2)Cc4ccccc4

>  <s_sd_BIOSOLVEIT.INFINISEE\_REACTION\_NAME>  (1590) 
m_270004bbb

>  <s_sd_BIOSOLVEIT.INFINISEE\_REAGENT1\_SMILES>  (1590) 
[R1*]NCC(N(CC)CC)c1cc(OC)ccc1

>  <s_sd_BIOSOLVEIT.INFINISEE\_REAGENT2\_SMILES>  (1590) 
[R1*]CC1=Nc2c(N1Cc3ccccc3)cccc2

>  <s_sd_BIOSOLVEIT.INFINISEE\_SPACE>  (1590) 
REALSpace_44bn_2023-08

>  <s_vsw_compound_code>  (1590) 
29603

>  <s_vsw_variant>  (1590) 
29603-5

>  <r_epik_Charging_Adjusted_Penalty>  (1590) 
1.5189062216281499

>  <r_epik_Ionization_Penalty>  (1590) 
1.8421000000000001

>  <r_epik_Ionization_Penalty_Charging>  (1590) 
0

>  <r_epik_Ionization_Penalty_Neutral>  (1590) 
1.8421000000000001

>  <r_epik_State_Penalty>  (1590) 
1.5188999999999999

>  <r_i_docking_score>  (1590) 
-2.64915801521619

>  <r_i_glide_ecoul>  (1590) 
-5.3043498992919904

>  <r_i_glide_eff_state_penalty>  (1590) 
1.5188999999999999

>  <r_i_glide_einternal>  (1590) 
12.8357858657837

>  <r_i_glide_emodel>  (1590) 
-48.813594985429802

>  <r_i_glide_energy>  (1590) 
-43.436197280883803

>  <r_i_glide_erotb>  (1590) 
0.81615458825570997

>  <r_i_glide_esite>  (1590) 
-0.035119309690692602

>  <r_i_glide_evdw>  (1590) 
-38.131847381591797

>  <r_i_glide_gscore>  (1590) 
-4.1680580152161903

>  <r_i_glide_hbond>  (1590) 
-0.076744647151225698

>  <r_i_glide_ligand_efficiency>  (1590) 
-0.080277515612611802

>  <r_i_glide_ligand_efficiency_ln>  (1590) 
-0.58915902597797498

>  <r_i_glide_ligand_efficiency_sa>  (1590) 
-0.25749288695411998

>  <r_i_glide_lipo>  (1590) 
-1.7787112472020501

>  <r_i_glide_metal>  (1590) 
-0

>  <r_i_glide_rewards>  (1590) 
-0.39139254545454399

>  <r_lp_Energy>  (1590) 
44.167020999999998

>  <r_lp_tautomer_probability>  (1590) 
1

>  <r_qp_ACxDN^.5/SA>  (1590) 
0.0080274000000000005

>  <r_qp_CIQPlogS>  (1590) 
-5.0810000000000004

>  <r_qp_EA(eV)>  (1590) 
0.109

>  <r_qp_FISA>  (1590) 
28.890999999999998

>  <r_qp_FOSA>  (1590) 
333.31

>  <r_qp_IP(eV)>  (1590) 
8.5510000000000002

>  <r_qp_Jm>  (1590) 
0.066229436412083204

>  <r_qp_PISA>  (1590) 
354.09300000000002

>  <r_qp_PSA>  (1590) 
37.616

>  <r_qp_PercentHumanOralAbsorption>  (1590) 
100

>  <r_qp_QPPCaco>  (1590) 
327.88999999999999

>  <r_qp_QPPMDCK>  (1590) 
181.41300000000001

>  <r_qp_QPlogBB>  (1590) 
0.42899999999999999

>  <r_qp_QPlogHERG>  (1590) 
-7.1470000000000002

>  <r_qp_QPlogKhsa>  (1590) 
0.85599999999999998

>  <r_qp_QPlogKp>  (1590) 
-3.8740000000000001

>  <r_qp_QPlogPC16>  (1590) 
14.117000000000001

>  <r_qp_QPlogPo/w>  (1590) 
4.8810000000000002

>  <r_qp_QPlogPoct>  (1590) 
20.02

>  <r_qp_QPlogPw>  (1590) 
8.75

>  <r_qp_QPlogS>  (1590) 
-2.9510000000000001

>  <r_qp_QPpolrz>  (1590) 
46.408999999999999

>  <r_qp_SASA>  (1590) 
716.29300000000001

>  <r_qp_SAamideO>  (1590) 
0

>  <r_qp_SAfluorine>  (1590) 
0

>  <r_qp_WPSA>  (1590) 
0

>  <r_qp_accptHB>  (1590) 
5.75

>  <r_qp_dip^2/V>  (1590) 
0.0291498

>  <r_qp_dipole>  (1590) 
6.4009999999999998

>  <r_qp_donorHB>  (1590) 
1

>  <r_qp_glob>  (1590) 
0.84711939999999997

>  <r_qp_mol_MW>  (1590) 
442.60300000000001

>  <r_qp_volume>  (1590) 
1405.4179999999999

>  <r_sd_BIOSOLVEIT.INFINISEE\_FTREES\_SIMILARITY>  (1590) 
0.91800000000000004

>  <r_sd_BIOSOLVEIT.LOGP>  (1590) 
2.8226

>  <r_sd_BIOSOLVEIT.MOLECULAR\_WEIGHT>  (1590) 
444.61900000000003

>  <r_sd_BIOSOLVEIT.TPSA>  (1590) 
48.100000000000001

>  <i_epik_Tot_Q>  (1590) 
0

>  <i_epik_Tot_abs_Q>  (1590) 
0

>  <i_f3d_flags>  (1590) 
0

>  <i_i_glide_confnum>  (1590) 
14

>  <i_i_glide_lignum>  (1590) 
355

>  <i_i_glide_posenum>  (1590) 
14

>  <i_i_glide_rotatable_bonds>  (1590) 
11

>  <i_lp_mmshare_version>  (1590) 
65135

>  <i_m_ct_format>  (1590) 
2

>  <i_m_source_file_index>  (1590) 
926

>  <i_qp_#NandO>  (1590) 
5

>  <i_qp_#acid>  (1590) 
0

>  <i_qp_#amide>  (1590) 
0

>  <i_qp_#amidine>  (1590) 
0

>  <i_qp_#amine>  (1590) 
2

>  <i_qp_#in34>  (1590) 
0

>  <i_qp_#in56>  (1590) 
21

>  <i_qp_#metab>  (1590) 
7

>  <i_qp_#nonHatm>  (1590) 
33

>  <i_qp_#noncon>  (1590) 
0

>  <i_qp_#ringatoms>  (1590) 
21

>  <i_qp_#rotor>  (1590) 
11

>  <i_qp_#rtvFG>  (1590) 
0

>  <i_qp_#stars>  (1590) 
0

>  <i_qp_CNS>  (1590) 
1

>  <i_qp_HumanOralAbsorption>  (1590) 
3

>  <i_qp_RuleOfFive>  (1590) 
0

>  <i_qp_RuleOfThree>  (1590) 
1

>  <i_sd_BIOSOLVEIT.INFINISEE\_REAGENT1\_NAME>  (1590) 
8289108

>  <i_sd_BIOSOLVEIT.INFINISEE\_REAGENT2\_NAME>  (1590) 
24720860

>  <i_sd_BIOSOLVEIT.INFINISEE\_RESULT\_RANK>  (1590) 
20535

>  <i_sd_version>  (1590) 
0

>  <b_lp_Chiralities_Consistent>  (1590) 
1

>  <b_sd_chiral_flag>  (1590) 
0

>  <canonical_id>  (1590) 
ATP-HTVS-F9EAD73A28F1

>  <compound_code>  (1590) 
29603

>  <title>  (1590) 
m_270004bbb____8289108____24720860

>  <variant>  (1590) 
29603-5

>  <source_file>  (1590) 
运行/运行/ATP-VSW/ATP-VSW-DOCK_HTVS_1-003_lib/ATP-VSW-DOCK_HTVS_1-003_lib.mae

>  <canonical_smiles>  (1590) 
CCN(CC)[C@@H](CNCc1nc2ccccc2n1Cc1ccccc1)c1cccc(OC)c1

>  <scaffold>  (1590) 
c1ccc(CCNCc2nc3ccccc3n2Cc2ccccc2)cc1

>  <molecular_formula>  (1590) 
C28H34N4O

$$$$
ATP-HTVS-F9F42C67BCEC
     RDKit          3D

 53 55  0  0  0  0  0  0  0  0999 V2000
  194.5900  181.8385  158.9300 Cl  0  0  0  0  0  0  0  0  0  0  0  0
  195.5138  183.2469  158.5846 C   0  0  0  0  0  0  0  0  0  0  0  0
  195.2389  184.6529  159.5632 S   0  0  0  0  0  0  0  0  0  0  0  0
  196.4499  185.5410  158.6668 C   0  0  0  0  0  0  0  0  0  0  0  0
  196.7220  186.9214  159.1171 C   0  0  0  0  0  0  0  0  0  0  0  0
  196.4663  187.2748  160.2710 O   0  0  0  0  0  0  0  0  0  0  0  0
  197.2307  187.7427  158.1871 N   0  0  0  0  0  0  0  0  0  0  0  0
  197.7225  189.0962  158.4276 C   0  0  1  0  0  0  0  0  0  0  0  0
  199.2396  189.1487  158.4638 C   0  0  0  0  0  0  0  0  0  0  0  0
  199.9043  189.6915  159.5838 C   0  0  0  0  0  0  0  0  0  0  0  0
  201.3114  189.7244  159.6276 C   0  0  0  0  0  0  0  0  0  0  0  0
  202.0627  189.2221  158.5475 C   0  0  0  0  0  0  0  0  0  0  0  0
  201.4048  188.6848  157.4241 C   0  0  0  0  0  0  0  0  0  0  0  0
  199.9974  188.6500  157.3814 C   0  0  0  0  0  0  0  0  0  0  0  0
  197.0282  184.7636  157.6883 C   0  0  0  0  0  0  0  0  0  0  0  0
  196.5045  183.4317  157.6555 C   0  0  0  0  0  0  0  0  0  0  0  0
  196.9825  182.4428  156.7745 N   0  0  0  0  0  0  0  0  0  0  0  0
  198.3928  182.3934  156.4230 C   0  0  1  0  0  0  0  0  0  0  0  0
  198.8456  181.1134  155.7479 C   0  0  0  0  0  0  0  0  0  0  0  0
  200.0157  180.4601  156.1928 C   0  0  0  0  0  0  0  0  0  0  0  0
  200.4969  179.3128  155.5238 C   0  0  0  0  0  0  0  0  0  0  0  0
  199.7901  178.8266  154.4025 C   0  0  0  0  0  0  0  0  0  0  0  0
  198.6053  179.4537  153.9772 C   0  0  0  0  0  0  0  0  0  0  0  0
  198.1352  180.6036  154.6405 C   0  0  0  0  0  0  0  0  0  0  0  0
  201.7668  178.6053  155.9895 C   0  0  1  0  0  0  0  0  0  0  0  0
  201.5247  177.4296  156.8693 N   0  0  2  0  0  0  0  0  0  0  0  0
  200.9525  176.2605  156.1647 C   0  0  2  0  0  0  0  0  0  0  0  0
  200.7833  177.7564  158.1105 C   0  0  2  0  0  0  0  0  0  0  0  0
  197.3483  187.3749  157.2546 H   0  0  0  0  0  0  0  0  0  0  0  0
  197.3754  189.7361  157.6183 H   0  0  0  0  0  0  0  0  0  0  0  0
  197.3100  189.5195  159.3447 H   0  0  0  0  0  0  0  0  0  0  0  0
  199.3432  190.0686  160.4270 H   0  0  0  0  0  0  0  0  0  0  0  0
  201.8087  190.1306  160.4969 H   0  0  0  0  0  0  0  0  0  0  0  0
  203.1423  189.2451  158.5829 H   0  0  0  0  0  0  0  0  0  0  0  0
  201.9798  188.2977  156.5960 H   0  0  0  0  0  0  0  0  0  0  0  0
  199.5017  188.2343  156.5165 H   0  0  0  0  0  0  0  0  0  0  0  0
  197.8059  185.1027  157.0181 H   0  0  0  0  0  0  0  0  0  0  0  0
  196.5054  181.5507  156.8158 H   0  0  0  0  0  0  0  0  0  0  0  0
  198.6059  183.2100  155.7307 H   0  0  0  0  0  0  0  0  0  0  0  0
  198.9937  182.5841  157.3164 H   0  0  0  0  0  0  0  0  0  0  0  0
  200.5440  180.8488  157.0522 H   0  0  0  0  0  0  0  0  0  0  0  0
  200.1447  177.9541  153.8724 H   0  0  0  0  0  0  0  0  0  0  0  0
  198.0618  179.0520  153.1351 H   0  0  0  0  0  0  0  0  0  0  0  0
  197.2348  181.0902  154.2969 H   0  0  0  0  0  0  0  0  0  0  0  0
  202.3671  178.2923  155.1300 H   0  0  0  0  0  0  0  0  0  0  0  0
  202.3872  179.3195  156.5354 H   0  0  0  0  0  0  0  0  0  0  0  0
  199.9506  176.4668  155.7886 H   0  0  0  0  0  0  0  0  0  0  0  0
  200.8699  175.4081  156.8385 H   0  0  0  0  0  0  0  0  0  0  0  0
  201.5845  175.9673  155.3256 H   0  0  0  0  0  0  0  0  0  0  0  0
  199.7690  178.0884  157.8925 H   0  0  0  0  0  0  0  0  0  0  0  0
  201.2934  178.5486  158.6557 H   0  0  0  0  0  0  0  0  0  0  0  0
  200.7061  176.8948  158.7732 H   0  0  0  0  0  0  0  0  0  0  0  0
  202.4621  177.1737  157.1568 H   0  0  0  0  0  0  0  0  0  0  0  0
  1  2  1  0
  2  3  1  0
  2 16  2  0
  3  4  1  0
  4  5  1  0
  4 15  2  0
  5  6  2  0
  5  7  1  0
  7  8  1  0
  7 29  1  0
  8  9  1  0
  8 30  1  6
  8 31  1  0
  9 10  2  0
  9 14  1  0
 10 11  1  0
 10 32  1  0
 11 12  2  0
 11 33  1  0
 12 13  1  0
 12 34  1  0
 13 14  2  0
 13 35  1  0
 14 36  1  0
 15 16  1  0
 15 37  1  0
 16 17  1  0
 17 18  1  0
 17 38  1  0
 18 19  1  0
 18 39  1  6
 18 40  1  0
 19 20  2  0
 19 24  1  0
 20 21  1  0
 20 41  1  0
 21 22  2  0
 21 25  1  0
 22 23  1  0
 22 42  1  0
 23 24  2  0
 23 43  1  0
 24 44  1  0
 25 26  1  0
 25 45  1  6
 25 46  1  0
 26 27  1  0
 26 28  1  0
 26 53  1  1
 27 47  1  6
 27 48  1  0
 27 49  1  0
 28 50  1  6
 28 51  1  0
 28 52  1  0
M  CHG  1  26   1
M  END
>  <s_epik_cmdline>  (1591) 
J2VwaWtfcHl0aG9uJywgJy1waCcsICc3LjAwMDAwMCcsICctcGh0JywgJzIuMDAwMDAwJywgJy1tcycsICcxNicsICctdG4nLCAnOCcsICctbWEnLCAnMjAwJywgJy1pbWFlJywgJzxpbmZpbGUubWFlPicsICctb21hZScsICc8b3V0ZmlsZS5tYWU+Jw==

>  <s_epik_input>  (1591) 
W2NIXTFbY0hdW2NIXVtjSF1bY0hdYzFbQ0gyXVtOSF1DKD1PKWMoc2MyQ2wpW2NIXWMyW05IXVtDSDJdYzNbY0hdYyhbY0hdW2NIXVtjSF0zKVtDSDJdTihbQ0gzXSlbQ0gzXQ==

>  <s_i_glide_gridfile>  (1591) 
ATP-Grid

>  <s_lp_Force_Field>  (1591) 
OPLS_2005

>  <s_lp_Variant>  (1591) 
rxn512b____EMOL480615____EMOL44846536____EMOL2873214-1

>  <s_lp_label>  (1591) 
2434_sdstereoexpander_1_neutralizer_1_epik_1_stereoizer_1

>  <s_m_source_file>  (1591) 
ATP-VSW-LIGPREP-002-in.maegz

>  <s_sd_BIOSOLVEIT.INFINISEE\_QUERY\_NAME>  (1591) 
Ref-Lig

>  <s_sd_BIOSOLVEIT.INFINISEE\_QUERY\_SMILES>  (1591) 
S(c1nc2c(cc1C[NH2+]Cc3ccc(cc3)C[NH+](C)C)cccc2)Cc4ccccc4

>  <s_sd_BIOSOLVEIT.INFINISEE\_REACTION\_NAME>  (1591) 
rxn512b

>  <s_sd_BIOSOLVEIT.INFINISEE\_REAGENT1\_NAME>  (1591) 
EMOL480615

>  <s_sd_BIOSOLVEIT.INFINISEE\_REAGENT1\_SMILES>  (1591) 
NCc1ccccc1

>  <s_sd_BIOSOLVEIT.INFINISEE\_REAGENT2\_NAME>  (1591) 
EMOL44846536

>  <s_sd_BIOSOLVEIT.INFINISEE\_REAGENT2\_SMILES>  (1591) 
BrC1=C(Cl)SC(C(=O)O)=C1

>  <s_sd_BIOSOLVEIT.INFINISEE\_REAGENT3\_NAME>  (1591) 
EMOL2873214

>  <s_sd_BIOSOLVEIT.INFINISEE\_REAGENT3\_SMILES>  (1591) 
N(Cc1cc(ccc1)CN)(C)C

>  <s_sd_BIOSOLVEIT.INFINISEE\_SPACE>  (1591) 
eXplore_7tr_2022-12

>  <s_vsw_compound_code>  (1591) 
77858

>  <s_vsw_variant>  (1591) 
77858-1

>  <r_epik_Charging_Adjusted_Penalty>  (1591) 
0.086140609825027206

>  <r_epik_Ionization_Penalty>  (1591) 
0.043200000000000002

>  <r_epik_Ionization_Penalty_Charging>  (1591) 
0.043099999999999999

>  <r_epik_Ionization_Penalty_Neutral>  (1591) 
0.0001

>  <r_epik_State_Penalty>  (1591) 
0.043099999999999999

>  <r_i_docking_score>  (1591) 
-3.75454372119379

>  <r_i_glide_ecoul>  (1591) 
-7.0922865867614702

>  <r_i_glide_eff_state_penalty>  (1591) 
0.043099999999999999

>  <r_i_glide_einternal>  (1591) 
2.6566100120544398

>  <r_i_glide_emodel>  (1591) 
-53.253467619534

>  <r_i_glide_energy>  (1591) 
-41.0857481956482

>  <r_i_glide_erotb>  (1591) 
0.80253046032591502

>  <r_i_glide_esite>  (1591) 
-0.044364256202041201

>  <r_i_glide_evdw>  (1591) 
-33.993461608886697

>  <r_i_glide_gscore>  (1591) 
-3.7976437211937899

>  <r_i_glide_hbond>  (1591) 
0

>  <r_i_glide_ligand_efficiency>  (1591) 
-0.134090847185492

>  <r_i_glide_ligand_efficiency_ln>  (1591) 
-0.86665892904532904

>  <r_i_glide_ligand_efficiency_sa>  (1591) 
-0.40717878734066298

>  <r_i_glide_lipo>  (1591) 
-0.72260023847643995

>  <r_i_glide_metal>  (1591) 
-0

>  <r_i_glide_rewards>  (1591) 
-1.06969361838266

>  <r_lp_Energy>  (1591) 
10.18136

>  <r_lp_tautomer_probability>  (1591) 
0.99999274205267796

>  <r_qp_ACxDN^.5/SA>  (1591) 
0.012888999999999999

>  <r_qp_CIQPlogS>  (1591) 
-4.2850000000000001

>  <r_qp_EA(eV)>  (1591) 
0.68100000000000005

>  <r_qp_FISA>  (1591) 
53.988

>  <r_qp_FOSA>  (1591) 
209.00899999999999

>  <r_qp_IP(eV)>  (1591) 
8.3000000000000007

>  <r_qp_Jm>  (1591) 
0.044656870582479698

>  <r_qp_PISA>  (1591) 
241.79300000000001

>  <r_qp_PSA>  (1591) 
55.447000000000003

>  <r_qp_PercentHumanOralAbsorption>  (1591) 
88.927999999999997

>  <r_qp_QPPCaco>  (1591) 
189.55199999999999

>  <r_qp_QPPMDCK>  (1591) 
348.34899999999999

>  <r_qp_QPlogBB>  (1591) 
0.67900000000000005

>  <r_qp_QPlogHERG>  (1591) 
-5.7080000000000002

>  <r_qp_QPlogKhsa>  (1591) 
0.46899999999999997

>  <r_qp_QPlogKp>  (1591) 
-5.0199999999999996

>  <r_qp_QPlogPC16>  (1591) 
12.679

>  <r_qp_QPlogPo/w>  (1591) 
3.6230000000000002

>  <r_qp_QPlogPoct>  (1591) 
19.463000000000001

>  <r_qp_QPlogPw>  (1591) 
9.8000000000000007

>  <r_qp_QPlogS>  (1591) 
-1.9470000000000001

>  <r_qp_QPpolrz>  (1591) 
38.883000000000003

>  <r_qp_SASA>  (1591) 
603.476

>  <r_qp_SAamideO>  (1591) 
0

>  <r_qp_SAfluorine>  (1591) 
0

>  <r_qp_WPSA>  (1591) 
98.685000000000002

>  <r_qp_accptHB>  (1591) 
5.5

>  <r_qp_dip^2/V>  (1591) 
0.037764499999999999

>  <r_qp_dipole>  (1591) 
6.7210000000000001

>  <r_qp_donorHB>  (1591) 
2

>  <r_qp_glob>  (1591) 
0.90295460000000005

>  <r_qp_mol_MW>  (1591) 
413.964

>  <r_qp_volume>  (1591) 
1196.027

>  <r_sd_BIOSOLVEIT.INFINISEE\_FTREES\_SIMILARITY>  (1591) 
0.91700000000000004

>  <r_sd_BIOSOLVEIT.LOGP>  (1591) 
3.5880999999999998

>  <r_sd_BIOSOLVEIT.MOLECULAR\_WEIGHT>  (1591) 
414.97800000000001

>  <r_sd_BIOSOLVEIT.TPSA>  (1591) 
45.57

>  <i_epik_Tot_Q>  (1591) 
1

>  <i_epik_Tot_abs_Q>  (1591) 
1

>  <i_f3d_flags>  (1591) 
0

>  <i_i_glide_confnum>  (1591) 
7

>  <i_i_glide_lignum>  (1591) 
1045

>  <i_i_glide_posenum>  (1591) 
18

>  <i_i_glide_rotatable_bonds>  (1591) 
9

>  <i_lp_mmshare_version>  (1591) 
65135

>  <i_m_ct_format>  (1591) 
2

>  <i_m_source_file_index>  (1591) 
2434

>  <i_qp_#NandO>  (1591) 
4

>  <i_qp_#acid>  (1591) 
0

>  <i_qp_#amide>  (1591) 
0

>  <i_qp_#amidine>  (1591) 
0

>  <i_qp_#amine>  (1591) 
2

>  <i_qp_#in34>  (1591) 
0

>  <i_qp_#in56>  (1591) 
17

>  <i_qp_#metab>  (1591) 
6

>  <i_qp_#nonHatm>  (1591) 
28

>  <i_qp_#noncon>  (1591) 
0

>  <i_qp_#ringatoms>  (1591) 
17

>  <i_qp_#rotor>  (1591) 
8

>  <i_qp_#rtvFG>  (1591) 
0

>  <i_qp_#stars>  (1591) 
0

>  <i_qp_CNS>  (1591) 
2

>  <i_qp_HumanOralAbsorption>  (1591) 
3

>  <i_qp_RuleOfFive>  (1591) 
0

>  <i_qp_RuleOfThree>  (1591) 
0

>  <i_sd_BIOSOLVEIT.INFINISEE\_RESULT\_RANK>  (1591) 
23695

>  <i_sd_version>  (1591) 
0

>  <b_lp_Chiralities_Consistent>  (1591) 
1

>  <b_sd_chiral_flag>  (1591) 
0

>  <canonical_id>  (1591) 
ATP-HTVS-F9F42C67BCEC

>  <compound_code>  (1591) 
77858

>  <title>  (1591) 
rxn512b____EMOL480615____EMOL44846536____EMOL2873214

>  <variant>  (1591) 
77858-1

>  <source_file>  (1591) 
运行/运行/ATP-VSW/ATP-VSW-DOCK_HTVS_1-002_lib.maegz

>  <canonical_smiles>  (1591) 
C[NH+](C)Cc1cccc(CNc2cc(C(=O)NCc3ccccc3)sc2Cl)c1

>  <scaffold>  (1591) 
O=C(NCc1ccccc1)c1cc(NCc2ccccc2)cs1

>  <molecular_formula>  (1591) 
C22H25ClN3OS+

$$$$
ATP-HTVS-FA0319FBED9B
     RDKit          3D

 63 66  0  0  0  0  0  0  0  0999 V2000
  196.9601  185.9633  158.9732 F   0  0  0  0  0  0  0  0  0  0  0  0
  196.8462  184.7630  158.3634 C   0  0  0  0  0  0  0  0  0  0  0  0
  197.4217  184.5563  157.0927 C   0  0  0  0  0  0  0  0  0  0  0  0
  197.3018  183.3067  156.4295 C   0  0  0  0  0  0  0  0  0  0  0  0
  196.5882  182.2767  157.1011 C   0  0  0  0  0  0  0  0  0  0  0  0
  196.4852  181.0744  156.5262 N   0  0  0  0  0  0  0  0  0  0  0  0
  197.0104  180.7707  155.3290 C   0  0  0  0  0  0  0  0  0  0  0  0
  197.7221  181.7358  154.5803 C   0  0  0  0  0  0  0  0  0  0  0  0
  197.8930  183.0416  155.1548 C   0  0  0  0  0  0  0  0  0  0  0  0
  198.6637  184.0452  154.5217 N   0  0  0  0  0  0  0  0  0  0  0  0
  197.9624  185.1245  153.8051 C   0  0  1  0  0  0  0  0  0  0  0  0
  198.6371  186.4300  153.9750 C   0  0  0  0  0  0  0  0  0  0  0  0
  199.1828  187.4470  154.1045 N   0  0  0  0  0  0  0  0  0  0  0  0
  197.7067  184.8247  152.3294 C   0  0  0  0  0  0  0  0  0  0  0  0
  196.7417  183.8682  151.9554 C   0  0  0  0  0  0  0  0  0  0  0  0
  196.5090  183.5744  150.5967 C   0  0  0  0  0  0  0  0  0  0  0  0
  197.2247  184.2571  149.5954 C   0  0  0  0  0  0  0  0  0  0  0  0
  198.1813  185.2197  149.9563 C   0  0  0  0  0  0  0  0  0  0  0  0
  198.4286  185.4998  151.3124 C   0  0  0  0  0  0  0  0  0  0  0  0
  200.0087  184.2141  155.0762 C   0  0  2  0  0  0  0  0  0  0  0  0
  198.3092  181.2992  153.2604 C   0  0  0  0  0  0  0  0  0  0  0  0
  199.4516  181.6074  152.9176 O   0  0  0  0  0  0  0  0  0  0  0  0
  197.4619  180.5667  152.5090 N   0  0  0  0  0  0  0  0  0  0  0  0
  197.6996  179.9212  151.2728 C   0  0  0  0  0  0  0  0  0  0  0  0
  198.9607  179.3974  150.9098 C   0  0  0  0  0  0  0  0  0  0  0  0
  199.1129  178.7278  149.6792 C   0  0  0  0  0  0  0  0  0  0  0  0
  198.0148  178.5837  148.8052 C   0  0  0  0  0  0  0  0  0  0  0  0
  196.7566  179.0904  149.1753 C   0  0  0  0  0  0  0  0  0  0  0  0
  196.5974  179.7485  150.4077 C   0  0  0  0  0  0  0  0  0  0  0  0
  198.1927  177.8618  147.4873 C   0  0  1  0  0  0  0  0  0  0  0  0
  199.1102  178.6333  146.5140 C   0  0  1  0  0  0  0  0  0  0  0  0
  199.4745  177.8318  145.3327 N   0  0  1  0  0  0  0  0  0  0  0  0
  200.4225  176.7254  145.6072 C   0  0  2  0  0  0  0  0  0  0  0  0
  196.0174  182.4767  158.3709 C   0  0  0  0  0  0  0  0  0  0  0  0
  196.1385  183.7288  159.0042 C   0  0  0  0  0  0  0  0  0  0  0  0
  198.6570  177.4434  144.8755 H   0  0  0  0  0  0  0  0  0  0  0  0
  197.9679  185.3764  156.6504 H   0  0  0  0  0  0  0  0  0  0  0  0
  196.8506  179.7424  155.0321 H   0  0  0  0  0  0  0  0  0  0  0  0
  196.9870  185.2639  154.2685 H   0  0  0  0  0  0  0  0  0  0  0  0
  196.1710  183.3432  152.7109 H   0  0  0  0  0  0  0  0  0  0  0  0
  195.7805  182.8300  150.3213 H   0  0  0  0  0  0  0  0  0  0  0  0
  197.0488  184.0445  148.5502 H   0  0  0  0  0  0  0  0  0  0  0  0
  198.7383  185.7562  149.2023 H   0  0  0  0  0  0  0  0  0  0  0  0
  199.1802  186.2384  151.5459 H   0  0  0  0  0  0  0  0  0  0  0  0
  200.1538  183.6083  155.9714 H   0  0  0  0  0  0  0  0  0  0  0  0
  200.2169  185.2405  155.3789 H   0  0  0  0  0  0  0  0  0  0  0  0
  200.7604  183.9240  154.3402 H   0  0  0  0  0  0  0  0  0  0  0  0
  196.5122  180.5285  152.8370 H   0  0  0  0  0  0  0  0  0  0  0  0
  199.8095  179.4851  151.5751 H   0  0  0  0  0  0  0  0  0  0  0  0
  200.0773  178.3168  149.4168 H   0  0  0  0  0  0  0  0  0  0  0  0
  195.9099  178.9635  148.5179 H   0  0  0  0  0  0  0  0  0  0  0  0
  195.6205  180.1162  150.6868 H   0  0  0  0  0  0  0  0  0  0  0  0
  198.5795  176.8748  147.7379 H   0  0  0  0  0  0  0  0  0  0  0  0
  197.2260  177.6928  147.0104 H   0  0  0  0  0  0  0  0  0  0  0  0
  198.6017  179.5437  146.1870 H   0  0  0  0  0  0  0  0  0  0  0  0
  200.0270  178.9693  147.0056 H   0  0  0  0  0  0  0  0  0  0  0  0
  200.6461  176.1886  144.6836 H   0  0  0  0  0  0  0  0  0  0  0  0
  200.0176  175.9986  146.3150 H   0  0  0  0  0  0  0  0  0  0  0  0
  201.3582  177.1150  146.0169 H   0  0  0  0  0  0  0  0  0  0  0  0
  195.4915  181.6686  158.8611 H   0  0  0  0  0  0  0  0  0  0  0  0
  195.6913  183.8908  159.9763 H   0  0  0  0  0  0  0  0  0  0  0  0
  199.9082  178.4245  144.6361 H   0  0  0  0  0  0  0  0  0  0  0  0
  196.0061  180.3103  157.0681 H   0  0  0  0  0  0  0  0  0  0  0  0
  1  2  1  0
  2  3  1  0
  2 35  2  0
  3  4  2  0
  3 37  1  0
  4  5  1  0
  4  9  1  0
  5  6  1  0
  5 34  2  0
  6  7  2  0
  6 63  1  0
  7  8  1  0
  7 38  1  0
  8  9  2  0
  8 21  1  0
  9 10  1  0
 10 11  1  0
 10 20  1  0
 11 12  1  0
 11 14  1  0
 11 39  1  1
 12 13  3  0
 14 15  2  0
 14 19  1  0
 15 16  1  0
 15 40  1  0
 16 17  2  0
 16 41  1  0
 17 18  1  0
 17 42  1  0
 18 19  2  0
 18 43  1  0
 19 44  1  0
 20 45  1  1
 20 46  1  0
 20 47  1  0
 21 22  2  0
 21 23  1  0
 23 24  1  0
 23 48  1  0
 24 25  1  0
 24 29  2  0
 25 26  2  0
 25 49  1  0
 26 27  1  0
 26 50  1  0
 27 28  2  0
 27 30  1  0
 28 29  1  0
 28 51  1  0
 29 52  1  0
 30 31  1  0
 30 53  1  1
 30 54  1  0
 31 32  1  0
 31 55  1  6
 31 56  1  0
 32 33  1  0
 32 36  1  6
 32 62  1  0
 33 57  1  6
 33 58  1  0
 33 59  1  0
 34 35  1  0
 34 60  1  0
 35 61  1  0
M  CHG  2   6   1  32   1
M  END
>  <s_epik_cmdline>  (1592) 
J2VwaWtfcHl0aG9uJywgJy1waCcsICc3LjAwMDAwMCcsICctcGh0JywgJzIuMDAwMDAwJywgJy1tcycsICcxNicsICctdG4nLCAnOCcsICctbWEnLCAnMjAwJywgJy1pbWFlJywgJzxpbmZpbGUubWFlPicsICctb21hZScsICc8b3V0ZmlsZS5tYWU+Jw==

>  <s_epik_input>  (1592) 
W2NIXTFbY0hdW2NIXVtjSF1bY0hdYzFbQ0BIXShDI04pTihbQ0gzXSljMmMoW2NIXW5jKGMyMylbY0hdW2NIXWMoRilbY0hdMylDKD1PKVtOSF1jNFtjSF1bY0hdYyhbY0hdW2NIXTQpW0NIMl1bQ0gyXVtOSF1bQ0gzXQ==

>  <s_i_glide_gridfile>  (1592) 
ATP-Grid

>  <s_lp_Force_Field>  (1592) 
OPLS_2005

>  <s_lp_Variant>  (1592) 
rxn512c____EMOL24630243____EMOL36725275____EMOL38100949-3

>  <s_lp_label>  (1592) 
2416_sdstereoexpander_1_neutralizer_1_epik_2_stereoizer_1

>  <s_m_source_file>  (1592) 
ATP-VSW-LIGPREP-001-in.maegz

>  <s_sd_BIOSOLVEIT.INFINISEE\_QUERY\_NAME>  (1592) 
Ref-Lig

>  <s_sd_BIOSOLVEIT.INFINISEE\_QUERY\_SMILES>  (1592) 
S(c1nc2c(cc1C[NH2+]Cc3ccc(cc3)C[NH+](C)C)cccc2)Cc4ccccc4

>  <s_sd_BIOSOLVEIT.INFINISEE\_REACTION\_NAME>  (1592) 
rxn512c

>  <s_sd_BIOSOLVEIT.INFINISEE\_REAGENT1\_NAME>  (1592) 
EMOL24630243

>  <s_sd_BIOSOLVEIT.INFINISEE\_REAGENT1\_SMILES>  (1592) 
N#CC(NC)c1ccccc1

>  <s_sd_BIOSOLVEIT.INFINISEE\_REAGENT2\_NAME>  (1592) 
EMOL36725275

>  <s_sd_BIOSOLVEIT.INFINISEE\_REAGENT2\_SMILES>  (1592) 
Clc1c2c(ncc1C(=O)O)ccc(F)c2

>  <s_sd_BIOSOLVEIT.INFINISEE\_REAGENT3\_NAME>  (1592) 
EMOL38100949

>  <s_sd_BIOSOLVEIT.INFINISEE\_REAGENT3\_SMILES>  (1592) 
N(CCc1ccc(N)cc1)C

>  <s_sd_BIOSOLVEIT.INFINISEE\_SPACE>  (1592) 
eXplore_7tr_2022-12

>  <s_vsw_compound_code>  (1592) 
77281

>  <s_vsw_variant>  (1592) 
77281-3

>  <r_epik_Charging_Adjusted_Penalty>  (1592) 
1.52318203547319

>  <r_epik_Ionization_Penalty>  (1592) 
0.76190000000000002

>  <r_epik_Ionization_Penalty_Charging>  (1592) 
0.76190000000000002

>  <r_epik_Ionization_Penalty_Neutral>  (1592) 
0

>  <r_epik_State_Penalty>  (1592) 
0.76129999999999998

>  <r_i_docking_score>  (1592) 
-5.1790508161534898

>  <r_i_glide_ecoul>  (1592) 
-16.225526809692401

>  <r_i_glide_eff_state_penalty>  (1592) 
0.76129999999999998

>  <r_i_glide_einternal>  (1592) 
8.5337076187133807

>  <r_i_glide_emodel>  (1592) 
-74.189037130459397

>  <r_i_glide_energy>  (1592) 
-49.4599704742432

>  <r_i_glide_erotb>  (1592) 
0.73288685396878495

>  <r_i_glide_esite>  (1592) 
-0.21089102820401301

>  <r_i_glide_evdw>  (1592) 
-33.234443664550803

>  <r_i_glide_gscore>  (1592) 
-5.9403508161534901

>  <r_i_glide_hbond>  (1592) 
-0.17520089999913899

>  <r_i_glide_ligand_efficiency>  (1592) 
-0.14797288046152801

>  <r_i_glide_ligand_efficiency_ln>  (1592) 
-1.1369165969856001

>  <r_i_glide_ligand_efficiency_sa>  (1592) 
-0.48402910352563799

>  <r_i_glide_lipo>  (1592) 
-1.3246874228696901

>  <r_i_glide_metal>  (1592) 
-0

>  <r_i_glide_rewards>  (1592) 
-0.86690711436803802

>  <r_lp_Energy>  (1592) 
43.588414

>  <r_qp_ACxDN^.5/SA>  (1592) 
0.013532199999999999

>  <r_qp_CIQPlogS>  (1592) 
-6.9379999999999997

>  <r_qp_EA(eV)>  (1592) 
1.569

>  <r_qp_FISA>  (1592) 
128.66999999999999

>  <r_qp_FOSA>  (1592) 
209.559

>  <r_qp_IP(eV)>  (1592) 
9.0709999999999997

>  <r_qp_Jm>  (1592) 
5.9526800079519e-05

>  <r_qp_PISA>  (1592) 
398.97399999999999

>  <r_qp_PSA>  (1592) 
80.640000000000001

>  <r_qp_PercentHumanOralAbsorption>  (1592) 
91.575000000000003

>  <r_qp_QPPCaco>  (1592) 
148.80799999999999

>  <r_qp_QPPMDCK>  (1592) 
125.664

>  <r_qp_QPlogBB>  (1592) 
-0.82599999999999996

>  <r_qp_QPlogHERG>  (1592) 
-7.492

>  <r_qp_QPlogKhsa>  (1592) 
0.68600000000000005

>  <r_qp_QPlogKp>  (1592) 
-3.6840000000000002

>  <r_qp_QPlogPC16>  (1592) 
15.712999999999999

>  <r_qp_QPlogPo/w>  (1592) 
4.3970000000000002

>  <r_qp_QPlogPoct>  (1592) 
24.195

>  <r_qp_QPlogPw>  (1592) 
13.542

>  <r_qp_QPlogS>  (1592) 
-6.2110000000000003

>  <r_qp_QPpolrz>  (1592) 
50.313000000000002

>  <r_qp_SASA>  (1592) 
783.803

>  <r_qp_SAamideO>  (1592) 
0

>  <r_qp_SAfluorine>  (1592) 
46.600000000000001

>  <r_qp_WPSA>  (1592) 
46.600000000000001

>  <r_qp_accptHB>  (1592) 
7.5

>  <r_qp_dip^2/V>  (1592) 
0.0116706

>  <r_qp_dipole>  (1592) 
4.1280000000000001

>  <r_qp_donorHB>  (1592) 
2

>  <r_qp_glob>  (1592) 
0.79413199999999995

>  <r_qp_mol_MW>  (1592) 
467.54500000000002

>  <r_qp_volume>  (1592) 
1460.1659999999999

>  <r_sd_BIOSOLVEIT.INFINISEE\_FTREES\_SIMILARITY>  (1592) 
0.91700000000000004

>  <r_sd_BIOSOLVEIT.LOGP>  (1592) 
4.0629799999999996

>  <r_sd_BIOSOLVEIT.MOLECULAR\_WEIGHT>  (1592) 
468.553

>  <r_sd_BIOSOLVEIT.TPSA>  (1592) 
85.629999999999995

>  <i_epik_Tot_Q>  (1592) 
2

>  <i_epik_Tot_abs_Q>  (1592) 
2

>  <i_f3d_flags>  (1592) 
0

>  <i_i_glide_confnum>  (1592) 
2

>  <i_i_glide_lignum>  (1592) 
918

>  <i_i_glide_posenum>  (1592) 
6

>  <i_i_glide_rotatable_bonds>  (1592) 
9

>  <i_lp_mmshare_version>  (1592) 
65135

>  <i_m_ct_format>  (1592) 
2

>  <i_m_source_file_index>  (1592) 
2416

>  <i_qp_#NandO>  (1592) 
6

>  <i_qp_#acid>  (1592) 
0

>  <i_qp_#amide>  (1592) 
0

>  <i_qp_#amidine>  (1592) 
0

>  <i_qp_#amine>  (1592) 
1

>  <i_qp_#in34>  (1592) 
0

>  <i_qp_#in56>  (1592) 
22

>  <i_qp_#metab>  (1592) 
6

>  <i_qp_#nonHatm>  (1592) 
35

>  <i_qp_#noncon>  (1592) 
0

>  <i_qp_#ringatoms>  (1592) 
22

>  <i_qp_#rotor>  (1592) 
9

>  <i_qp_#rtvFG>  (1592) 
0

>  <i_qp_#stars>  (1592) 
0

>  <i_qp_CNS>  (1592) 
0

>  <i_qp_HumanOralAbsorption>  (1592) 
1

>  <i_qp_RuleOfFive>  (1592) 
0

>  <i_qp_RuleOfThree>  (1592) 
1

>  <i_sd_BIOSOLVEIT.INFINISEE\_RESULT\_RANK>  (1592) 
22045

>  <i_sd_version>  (1592) 
0

>  <b_lp_Chiralities_Consistent>  (1592) 
1

>  <b_sd_chiral_flag>  (1592) 
0

>  <canonical_id>  (1592) 
ATP-HTVS-FA0319FBED9B

>  <compound_code>  (1592) 
77281

>  <title>  (1592) 
rxn512c____EMOL24630243____EMOL36725275____EMOL38100949

>  <variant>  (1592) 
77281-3

>  <source_file>  (1592) 
运行/运行/ATP-VSW/ATP-VSW-DOCK_HTVS_1-001_lib/ATP-VSW-DOCK_HTVS_1-001_lib

>  <canonical_smiles>  (1592) 
C[NH2+]CCc1ccc(NC(=O)c2c[nH+]c3ccc(F)cc3c2N(C)[C@@H](C#N)c2ccccc2)cc1

>  <scaffold>  (1592) 
O=C(Nc1ccccc1)c1c[nH+]c2ccccc2c1NCc1ccccc1

>  <molecular_formula>  (1592) 
C28H28FN5O+2

$$$$
ATP-HTVS-FA2DABCA7F05
     RDKit          3D

 60 63  0  0  0  0  0  0  0  0999 V2000
  202.8029  173.4348  155.3321 Cl  0  0  0  0  0  0  0  0  0  0  0  0
  201.9286  174.9168  155.2213 C   0  0  0  0  0  0  0  0  0  0  0  0
  201.7648  175.7420  156.3540 C   0  0  0  0  0  0  0  0  0  0  0  0
  201.0903  176.9772  156.2426 C   0  0  0  0  0  0  0  0  0  0  0  0
  200.5370  177.3422  154.9913 C   0  0  0  0  0  0  0  0  0  0  0  0
  200.6938  176.5183  153.8632 C   0  0  0  0  0  0  0  0  0  0  0  0
  201.3854  175.3015  153.9781 C   0  0  0  0  0  0  0  0  0  0  0  0
  200.9057  177.8553  157.4289 C   0  0  0  0  0  0  0  0  0  0  0  0
  200.7369  177.4273  158.5751 O   0  0  0  0  0  0  0  0  0  0  0  0
  201.0597  179.3616  157.2173 C   0  0  1  0  0  0  0  0  0  0  0  0
  199.8425  180.0131  156.7453 N   0  0  0  0  0  0  0  0  0  0  0  0
  199.8578  180.9071  155.6571 C   0  0  0  0  0  0  0  0  0  0  0  0
  198.8586  181.9049  155.5308 C   0  0  0  0  0  0  0  0  0  0  0  0
  197.8138  182.0234  156.4924 N   0  0  0  0  0  0  0  0  0  0  0  0
  197.9332  182.6702  157.6631 C   0  0  0  0  0  0  0  0  0  0  0  0
  199.0280  182.9614  158.1371 O   0  0  0  0  0  0  0  0  0  0  0  0
  196.6371  183.1093  158.3109 C   0  0  0  0  0  0  0  0  0  0  0  0
  196.4985  184.3058  159.0731 C   0  0  0  0  0  0  0  0  0  0  0  0
  195.2091  184.6496  159.5801 C   0  0  0  0  0  0  0  0  0  0  0  0
  194.0897  183.8414  159.3299 C   0  0  0  0  0  0  0  0  0  0  0  0
  194.2272  182.6751  158.5768 C   0  0  0  0  0  0  0  0  0  0  0  0
  195.4889  182.3084  158.0863 C   0  0  0  0  0  0  0  0  0  0  0  0
  197.6191  185.3207  159.3375 C   0  0  1  0  0  0  0  0  0  0  0  0
  197.7056  186.3919  158.3034 N   0  0  2  0  0  0  0  0  0  0  0  0
  197.9383  185.8974  156.9297 C   0  0  2  0  0  0  0  0  0  0  0  0
  198.6884  187.4346  158.6559 C   0  0  2  0  0  0  0  0  0  0  0  0
  198.8970  182.7778  154.4099 C   0  0  0  0  0  0  0  0  0  0  0  0
  199.9439  182.6205  153.4582 C   0  0  0  0  0  0  0  0  0  0  0  0
  200.8813  181.6635  153.5786 N   0  0  0  0  0  0  0  0  0  0  0  0
  200.8373  180.8374  154.6406 C   0  0  0  0  0  0  0  0  0  0  0  0
  199.9959  183.4868  152.3467 C   0  0  0  0  0  0  0  0  0  0  0  0
  199.0417  184.5065  152.1726 C   0  0  0  0  0  0  0  0  0  0  0  0
  198.0125  184.6666  153.1177 C   0  0  0  0  0  0  0  0  0  0  0  0
  197.9315  183.7950  154.2205 C   0  0  0  0  0  0  0  0  0  0  0  0
  202.1901  175.4391  157.3019 H   0  0  0  0  0  0  0  0  0  0  0  0
  199.9703  178.2497  154.8768 H   0  0  0  0  0  0  0  0  0  0  0  0
  200.2650  176.8217  152.9231 H   0  0  0  0  0  0  0  0  0  0  0  0
  201.4928  174.6618  153.1143 H   0  0  0  0  0  0  0  0  0  0  0  0
  201.3334  179.8299  158.1618 H   0  0  0  0  0  0  0  0  0  0  0  0
  201.9218  179.5161  156.5677 H   0  0  0  0  0  0  0  0  0  0  0  0
  199.0454  180.0288  157.3783 H   0  0  0  0  0  0  0  0  0  0  0  0
  196.8855  181.8101  156.1609 H   0  0  0  0  0  0  0  0  0  0  0  0
  195.0612  185.5498  160.1410 H   0  0  0  0  0  0  0  0  0  0  0  0
  193.1160  184.1214  159.7059 H   0  0  0  0  0  0  0  0  0  0  0  0
  193.3721  182.0550  158.3514 H   0  0  0  0  0  0  0  0  0  0  0  0
  195.5280  181.4184  157.4800 H   0  0  0  0  0  0  0  0  0  0  0  0
  197.3815  185.7943  160.2923 H   0  0  0  0  0  0  0  0  0  0  0  0
  198.6035  184.8730  159.5041 H   0  0  0  0  0  0  0  0  0  0  0  0
  198.8809  185.3530  156.8713 H   0  0  0  0  0  0  0  0  0  0  0  0
  197.9747  186.6971  156.1903 H   0  0  0  0  0  0  0  0  0  0  0  0
  197.1293  185.2440  156.6271 H   0  0  0  0  0  0  0  0  0  0  0  0
  199.6971  187.0152  158.6924 H   0  0  0  0  0  0  0  0  0  0  0  0
  198.4696  187.8816  159.6266 H   0  0  0  0  0  0  0  0  0  0  0  0
  198.6877  188.2313  157.9102 H   0  0  0  0  0  0  0  0  0  0  0  0
  201.5924  180.0702  154.6152 H   0  0  0  0  0  0  0  0  0  0  0  0
  200.7783  183.3530  151.6142 H   0  0  0  0  0  0  0  0  0  0  0  0
  199.0951  185.1572  151.3093 H   0  0  0  0  0  0  0  0  0  0  0  0
  197.2740  185.4453  152.9912 H   0  0  0  0  0  0  0  0  0  0  0  0
  197.1097  183.9148  154.9069 H   0  0  0  0  0  0  0  0  0  0  0  0
  196.8000  186.8424  158.2836 H   0  0  0  0  0  0  0  0  0  0  0  0
  1  2  1  0
  2  3  2  0
  2  7  1  0
  3  4  1  0
  3 35  1  0
  4  5  2  0
  4  8  1  0
  5  6  1  0
  5 36  1  0
  6  7  2  0
  6 37  1  0
  7 38  1  0
  8  9  2  0
  8 10  1  0
 10 11  1  0
 10 39  1  1
 10 40  1  0
 11 12  1  0
 11 41  1  0
 12 13  2  0
 12 30  1  0
 13 14  1  0
 13 27  1  0
 14 15  1  0
 14 42  1  0
 15 16  2  0
 15 17  1  0
 17 18  1  0
 17 22  2  0
 18 19  2  0
 18 23  1  0
 19 20  1  0
 19 43  1  0
 20 21  2  0
 20 44  1  0
 21 22  1  0
 21 45  1  0
 22 46  1  0
 23 24  1  0
 23 47  1  1
 23 48  1  0
 24 25  1  0
 24 26  1  0
 24 60  1  6
 25 49  1  1
 25 50  1  0
 25 51  1  0
 26 52  1  1
 26 53  1  0
 26 54  1  0
 27 28  1  0
 27 34  2  0
 28 29  1  0
 28 31  2  0
 29 30  2  0
 30 55  1  0
 31 32  1  0
 31 56  1  0
 32 33  2  0
 32 57  1  0
 33 34  1  0
 33 58  1  0
 34 59  1  0
M  CHG  1  24   1
M  END
>  <s_epik_cmdline>  (1593) 
J2VwaWtfcHl0aG9uJywgJy1waCcsICc3LjAwMDAwMCcsICctcGh0JywgJzIuMDAwMDAwJywgJy1tcycsICcxNicsICctdG4nLCAnOCcsICctbWEnLCAnMjAwJywgJy1pbWFlJywgJzxpbmZpbGUubWFlPicsICctb21hZScsICc8b3V0ZmlsZS5tYWU+Jw==

>  <s_epik_input>  (1593) 
Q2xjMVtjSF1jKFtjSF1bY0hdW2NIXTEpQyg9TylbQ0gyXVtOSF1jKFtjSF1uYyhjMjMpW2NIXVtjSF1bY0hdW2NIXTMpYzJbTkhdQyg9TyljNGMoW0NIMl1OKFtDSDNdKVtDSDNdKVtjSF1bY0hdW2NIXVtjSF00

>  <s_i_glide_gridfile>  (1593) 
ATP-Grid

>  <s_lp_Force_Field>  (1593) 
OPLS_2005

>  <s_lp_Variant>  (1593) 
rxn502b____EMOL5415347____EMOL13728749____EMOL6253876-1

>  <s_lp_label>  (1593) 
2597_sdstereoexpander_1_neutralizer_1_epik_1_stereoizer_1

>  <s_m_source_file>  (1593) 
ATP-VSW-LIGPREP-003-in.maegz

>  <s_sd_BIOSOLVEIT.INFINISEE\_QUERY\_NAME>  (1593) 
Ref-Lig

>  <s_sd_BIOSOLVEIT.INFINISEE\_QUERY\_SMILES>  (1593) 
S(c1nc2c(cc1C[NH2+]Cc3ccc(cc3)C[NH+](C)C)cccc2)Cc4ccccc4

>  <s_sd_BIOSOLVEIT.INFINISEE\_REACTION\_NAME>  (1593) 
rxn502b

>  <s_sd_BIOSOLVEIT.INFINISEE\_REAGENT1\_NAME>  (1593) 
EMOL5415347

>  <s_sd_BIOSOLVEIT.INFINISEE\_REAGENT1\_SMILES>  (1593) 
O=C(O)c1c(cccc1)CN(C)C

>  <s_sd_BIOSOLVEIT.INFINISEE\_REAGENT2\_NAME>  (1593) 
EMOL13728749

>  <s_sd_BIOSOLVEIT.INFINISEE\_REAGENT2\_SMILES>  (1593) 
Brc1c(N)c2c(nc1)cccc2

>  <s_sd_BIOSOLVEIT.INFINISEE\_REAGENT3\_NAME>  (1593) 
EMOL6253876

>  <s_sd_BIOSOLVEIT.INFINISEE\_REAGENT3\_SMILES>  (1593) 
Clc1cc(ccc1)C(=O)CN

>  <s_sd_BIOSOLVEIT.INFINISEE\_SPACE>  (1593) 
eXplore_7tr_2022-12

>  <s_vsw_compound_code>  (1593) 
83075

>  <s_vsw_variant>  (1593) 
83075-1

>  <r_epik_Charging_Adjusted_Penalty>  (1593) 
0.14521527655819999

>  <r_epik_Ionization_Penalty>  (1593) 
0.084199999999999997

>  <r_epik_Ionization_Penalty_Charging>  (1593) 
0.060600000000000001

>  <r_epik_Ionization_Penalty_Neutral>  (1593) 
0.0235

>  <r_epik_State_Penalty>  (1593) 
0.084599999999999995

>  <r_i_docking_score>  (1593) 
-4.1103468884864096

>  <r_i_glide_ecoul>  (1593) 
-5.10532426834106

>  <r_i_glide_eff_state_penalty>  (1593) 
0.084599999999999995

>  <r_i_glide_einternal>  (1593) 
6.3348102569580096

>  <r_i_glide_emodel>  (1593) 
-57.574656301876999

>  <r_i_glide_energy>  (1593) 
-45.873943805694601

>  <r_i_glide_erotb>  (1593) 
0.63040258828407902

>  <r_i_glide_esite>  (1593) 
-0.099351094362445297

>  <r_i_glide_evdw>  (1593) 
-40.768619537353501

>  <r_i_glide_gscore>  (1593) 
-4.1949468884864096

>  <r_i_glide_hbond>  (1593) 
0

>  <r_i_glide_ligand_efficiency>  (1593) 
-0.120892555543718

>  <r_i_glide_ligand_efficiency_ln>  (1593) 
-0.90809091899169203

>  <r_i_glide_ligand_efficiency_sa>  (1593) 
-0.391644949165662

>  <r_i_glide_lipo>  (1593) 
-1.5604666482754399

>  <r_i_glide_metal>  (1593) 
-0

>  <r_i_glide_rewards>  (1593) 
-0.36130211701376802

>  <r_lp_Energy>  (1593) 
46.867928999999997

>  <r_lp_tautomer_probability>  (1593) 
0.99990000499974996

>  <r_qp_ACxDN^.5/SA>  (1593) 
0.014817500000000001

>  <r_qp_CIQPlogS>  (1593) 
-5.657

>  <r_qp_EA(eV)>  (1593) 
0.995

>  <r_qp_FISA>  (1593) 
71.801000000000002

>  <r_qp_FOSA>  (1593) 
181.27199999999999

>  <r_qp_IP(eV)>  (1593) 
8.2579999999999991

>  <r_qp_Jm>  (1593) 
0.0044097529019948498

>  <r_qp_PISA>  (1593) 
486.69999999999999

>  <r_qp_PSA>  (1593) 
83.248999999999995

>  <r_qp_PercentHumanOralAbsorption>  (1593) 
100

>  <r_qp_QPPCaco>  (1593) 
515.12400000000002

>  <r_qp_QPPMDCK>  (1593) 
658.31799999999998

>  <r_qp_QPlogBB>  (1593) 
-0.14799999999999999

>  <r_qp_QPlogHERG>  (1593) 
-8.2680000000000007

>  <r_qp_QPlogKhsa>  (1593) 
0.55600000000000005

>  <r_qp_QPlogKp>  (1593) 
-2.423

>  <r_qp_QPlogPC16>  (1593) 
16.989999999999998

>  <r_qp_QPlogPo/w>  (1593) 
4.6459999999999999

>  <r_qp_QPlogPoct>  (1593) 
25.338000000000001

>  <r_qp_QPlogPw>  (1593) 
15.032

>  <r_qp_QPlogS>  (1593) 
-5.6079999999999997

>  <r_qp_QPpolrz>  (1593) 
52.335999999999999

>  <r_qp_SASA>  (1593) 
811.25900000000001

>  <r_qp_SAamideO>  (1593) 
0

>  <r_qp_SAfluorine>  (1593) 
0

>  <r_qp_WPSA>  (1593) 
71.484999999999999

>  <r_qp_accptHB>  (1593) 
8.5

>  <r_qp_dip^2/V>  (1593) 
0.0105775

>  <r_qp_dipole>  (1593) 
3.948

>  <r_qp_donorHB>  (1593) 
2

>  <r_qp_glob>  (1593) 
0.77200389999999997

>  <r_qp_mol_MW>  (1593) 
472.97300000000001

>  <r_qp_volume>  (1593) 
1473.739

>  <r_sd_BIOSOLVEIT.INFINISEE\_FTREES\_SIMILARITY>  (1593) 
0.91100000000000003

>  <r_sd_BIOSOLVEIT.LOGP>  (1593) 
4.0797999999999996

>  <r_sd_BIOSOLVEIT.MOLECULAR\_WEIGHT>  (1593) 
473.98099999999999

>  <r_sd_BIOSOLVEIT.TPSA>  (1593) 
75.530000000000001

>  <i_epik_Tot_Q>  (1593) 
1

>  <i_epik_Tot_abs_Q>  (1593) 
1

>  <i_f3d_flags>  (1593) 
0

>  <i_i_glide_confnum>  (1593) 
4

>  <i_i_glide_lignum>  (1593) 
1183

>  <i_i_glide_posenum>  (1593) 
17

>  <i_i_glide_rotatable_bonds>  (1593) 
9

>  <i_lp_mmshare_version>  (1593) 
65135

>  <i_m_ct_format>  (1593) 
2

>  <i_m_source_file_index>  (1593) 
2597

>  <i_qp_#NandO>  (1593) 
6

>  <i_qp_#acid>  (1593) 
0

>  <i_qp_#amide>  (1593) 
0

>  <i_qp_#amidine>  (1593) 
0

>  <i_qp_#amine>  (1593) 
1

>  <i_qp_#in34>  (1593) 
0

>  <i_qp_#in56>  (1593) 
22

>  <i_qp_#metab>  (1593) 
6

>  <i_qp_#nonHatm>  (1593) 
34

>  <i_qp_#noncon>  (1593) 
0

>  <i_qp_#ringatoms>  (1593) 
22

>  <i_qp_#rotor>  (1593) 
8

>  <i_qp_#rtvFG>  (1593) 
0

>  <i_qp_#stars>  (1593) 
1

>  <i_qp_CNS>  (1593) 
1

>  <i_qp_HumanOralAbsorption>  (1593) 
3

>  <i_qp_RuleOfFive>  (1593) 
0

>  <i_qp_RuleOfThree>  (1593) 
0

>  <i_sd_BIOSOLVEIT.INFINISEE\_RESULT\_RANK>  (1593) 
41100

>  <i_sd_version>  (1593) 
0

>  <b_lp_Chiralities_Consistent>  (1593) 
1

>  <b_sd_chiral_flag>  (1593) 
0

>  <canonical_id>  (1593) 
ATP-HTVS-FA2DABCA7F05

>  <compound_code>  (1593) 
83075

>  <title>  (1593) 
rxn502b____EMOL5415347____EMOL13728749____EMOL6253876

>  <variant>  (1593) 
83075-1

>  <source_file>  (1593) 
运行/运行/ATP-VSW/ATP-VSW-DOCK_HTVS_1-003_lib/ATP-VSW-DOCK_HTVS_1-003_lib.mae

>  <canonical_smiles>  (1593) 
C[NH+](C)Cc1ccccc1C(=O)Nc1c(NCC(=O)c2cccc(Cl)c2)cnc2ccccc12

>  <scaffold>  (1593) 
O=C(CNc1cnc2ccccc2c1NC(=O)c1ccccc1)c1ccccc1

>  <molecular_formula>  (1593) 
C27H26ClN4O2+

$$$$
ATP-HTVS-FAA4B7BBA523
     RDKit          3D

 55 58  0  0  0  0  0  0  0  0999 V2000
  197.6223  182.3011  155.5472 O   0  0  0  0  0  0  0  0  0  0  0  0
  197.5410  181.5135  156.4873 C   0  0  0  0  0  0  0  0  0  0  0  0
  197.9469  180.2333  156.4343 N   0  0  0  0  0  0  0  0  0  0  0  0
  198.5554  179.5709  155.3356 C   0  0  0  0  0  0  0  0  0  0  0  0
  199.5932  178.6390  155.5696 C   0  0  0  0  0  0  0  0  0  0  0  0
  200.1371  177.9345  154.4569 C   0  0  0  0  0  0  0  0  0  0  0  0
  199.6991  178.1453  153.1977 N   0  0  0  0  0  0  0  0  0  0  0  0
  198.6952  179.0164  152.9604 C   0  0  0  0  0  0  0  0  0  0  0  0
  198.2436  179.1092  151.5529 C   0  0  0  0  0  0  0  0  0  0  0  0
  197.6314  180.2893  151.0742 C   0  0  0  0  0  0  0  0  0  0  0  0
  197.2057  180.3989  149.7371 C   0  0  0  0  0  0  0  0  0  0  0  0
  197.3843  179.3261  148.8468 C   0  0  0  0  0  0  0  0  0  0  0  0
  197.9841  178.1399  149.3009 C   0  0  0  0  0  0  0  0  0  0  0  0
  198.4069  178.0336  150.6420 C   0  0  0  0  0  0  0  0  0  0  0  0
  198.0986  179.7473  154.0149 C   0  0  0  0  0  0  0  0  0  0  0  0
  201.1537  176.9841  154.6946 C   0  0  0  0  0  0  0  0  0  0  0  0
  201.6392  176.7538  155.9952 C   0  0  0  0  0  0  0  0  0  0  0  0
  201.1131  177.4665  157.0845 C   0  0  0  0  0  0  0  0  0  0  0  0
  200.0865  178.3984  156.8724 C   0  0  0  0  0  0  0  0  0  0  0  0
  197.0404  181.8306  157.6908 N   0  0  0  0  0  0  0  0  0  0  0  0
  196.5579  183.0911  158.1145 C   0  0  0  0  0  0  0  0  0  0  0  0
  197.1600  184.3037  157.6961 C   0  0  0  0  0  0  0  0  0  0  0  0
  196.6440  185.5385  158.1315 C   0  0  0  0  0  0  0  0  0  0  0  0
  195.5343  185.5679  158.9951 C   0  0  0  0  0  0  0  0  0  0  0  0
  194.9553  184.3647  159.4462 C   0  0  0  0  0  0  0  0  0  0  0  0
  195.4682  183.1296  159.0024 C   0  0  0  0  0  0  0  0  0  0  0  0
  197.2909  186.8193  157.6412 C   0  0  1  0  0  0  0  0  0  0  0  0
  198.2447  187.3758  158.6337 N   0  0  2  0  0  0  0  0  0  0  0  0
  197.6010  187.9108  159.8604 C   0  0  2  0  0  0  0  0  0  0  0  0
  199.1444  188.3804  158.0275 C   0  0  2  0  0  0  0  0  0  0  0  0
  197.8065  179.6438  157.2491 H   0  0  0  0  0  0  0  0  0  0  0  0
  197.4986  181.1397  151.7283 H   0  0  0  0  0  0  0  0  0  0  0  0
  196.7572  181.3209  149.3969 H   0  0  0  0  0  0  0  0  0  0  0  0
  197.0767  179.4211  147.8156 H   0  0  0  0  0  0  0  0  0  0  0  0
  198.1304  177.3172  148.6113 H   0  0  0  0  0  0  0  0  0  0  0  0
  198.8674  177.1061  150.9581 H   0  0  0  0  0  0  0  0  0  0  0  0
  197.2610  180.4089  153.8392 H   0  0  0  0  0  0  0  0  0  0  0  0
  201.5751  176.4483  153.8616 H   0  0  0  0  0  0  0  0  0  0  0  0
  202.4441  176.0505  156.1614 H   0  0  0  0  0  0  0  0  0  0  0  0
  201.5000  177.3137  158.0814 H   0  0  0  0  0  0  0  0  0  0  0  0
  199.6854  178.9250  157.7280 H   0  0  0  0  0  0  0  0  0  0  0  0
  196.8317  181.0644  158.3092 H   0  0  0  0  0  0  0  0  0  0  0  0
  198.0137  184.3108  157.0256 H   0  0  0  0  0  0  0  0  0  0  0  0
  195.0903  186.5056  159.3120 H   0  0  0  0  0  0  0  0  0  0  0  0
  194.1114  184.3963  160.1136 H   0  0  0  0  0  0  0  0  0  0  0  0
  195.0202  182.2016  159.3291 H   0  0  0  0  0  0  0  0  0  0  0  0
  197.8371  186.5800  156.7297 H   0  0  0  0  0  0  0  0  0  0  0  0
  196.5329  187.5475  157.3561 H   0  0  0  0  0  0  0  0  0  0  0  0
  196.8651  188.6745  159.6009 H   0  0  0  0  0  0  0  0  0  0  0  0
  198.3426  188.3621  160.5272 H   0  0  0  0  0  0  0  0  0  0  0  0
  197.1055  187.1300  160.4384 H   0  0  0  0  0  0  0  0  0  0  0  0
  198.5736  189.2410  157.6708 H   0  0  0  0  0  0  0  0  0  0  0  0
  199.6998  187.9660  157.1821 H   0  0  0  0  0  0  0  0  0  0  0  0
  199.8760  188.7390  158.7577 H   0  0  0  0  0  0  0  0  0  0  0  0
  198.8345  186.6079  158.9244 H   0  0  0  0  0  0  0  0  0  0  0  0
  1  2  2  0
  2  3  1  0
  2 20  1  0
  3  4  1  0
  3 31  1  0
  4  5  1  0
  4 15  2  0
  5  6  1  0
  5 19  2  0
  6  7  1  0
  6 16  2  0
  7  8  2  0
  8  9  1  0
  8 15  1  0
  9 10  2  0
  9 14  1  0
 10 11  1  0
 10 32  1  0
 11 12  2  0
 11 33  1  0
 12 13  1  0
 12 34  1  0
 13 14  2  0
 13 35  1  0
 14 36  1  0
 15 37  1  0
 16 17  1  0
 16 38  1  0
 17 18  2  0
 17 39  1  0
 18 19  1  0
 18 40  1  0
 19 41  1  0
 20 21  1  0
 20 42  1  0
 21 22  2  0
 21 26  1  0
 22 23  1  0
 22 43  1  0
 23 24  2  0
 23 27  1  0
 24 25  1  0
 24 44  1  0
 25 26  2  0
 25 45  1  0
 26 46  1  0
 27 28  1  0
 27 47  1  6
 27 48  1  0
 28 29  1  0
 28 30  1  0
 28 55  1  1
 29 49  1  6
 29 50  1  0
 29 51  1  0
 30 52  1  6
 30 53  1  0
 30 54  1  0
M  CHG  1  28   1
M  END
>  <s_epik_cmdline>  (1594) 
J2VwaWtfcHl0aG9uJywgJy1waCcsICc3LjAwMDAwMCcsICctcGh0JywgJzIuMDAwMDAwJywgJy1tcycsICcxNicsICctdG4nLCAnOCcsICctbWEnLCAnMjAwJywgJy1pbWFlJywgJzxpbmZpbGUubWFlPicsICctb21hZScsICc8b3V0ZmlsZS5tYWU+Jw==

>  <s_epik_input>  (1594) 
W2NIXTFbY0hdW2NIXWMoW0NIMl1OKFtDSDNdKVtDSDNdKVtjSF1jMVtOSF1DKD1PKVtOSF1jMltjSF1jKG5jKGMyMylbY0hdW2NIXVtjSF1bY0hdMyktYzRbY0hdW2NIXVtjSF1bY0hdW2NIXTQ=

>  <s_i_glide_gridfile>  (1594) 
ATP-Grid

>  <s_lp_Force_Field>  (1594) 
OPLS_2005

>  <s_lp_Variant>  (1594) 
m_2430bbb____22523374____22584490-1

>  <s_lp_label>  (1594) 
1128_sdstereoexpander_1_neutralizer_1_epik_1_stereoizer_1

>  <s_m_source_file>  (1594) 
ATP-VSW-LIGPREP-001-in.maegz

>  <s_sd_BIOSOLVEIT.INFINISEE\_QUERY\_NAME>  (1594) 
Ref-Lig

>  <s_sd_BIOSOLVEIT.INFINISEE\_QUERY\_SMILES>  (1594) 
S(c1nc2c(cc1C[NH2+]Cc3ccc(cc3)C[NH+](C)C)cccc2)Cc4ccccc4

>  <s_sd_BIOSOLVEIT.INFINISEE\_REACTION\_NAME>  (1594) 
m_2430bbb

>  <s_sd_BIOSOLVEIT.INFINISEE\_REAGENT1\_SMILES>  (1594) 
[R1*]C(=O)Nc1c2c(nc(c3ccccc3)c1)cccc2

>  <s_sd_BIOSOLVEIT.INFINISEE\_REAGENT2\_SMILES>  (1594) 
[R1*]Nc1cc(ccc1)CN(C)C

>  <s_sd_BIOSOLVEIT.INFINISEE\_SPACE>  (1594) 
REALSpace_44bn_2023-08

>  <s_vsw_compound_code>  (1594) 
36065

>  <s_vsw_variant>  (1594) 
36065-1

>  <r_epik_Charging_Adjusted_Penalty>  (1594) 
0.115947707972824

>  <r_epik_Ionization_Penalty>  (1594) 
0.0717

>  <r_epik_Ionization_Penalty_Charging>  (1594) 
0.0448

>  <r_epik_Ionization_Penalty_Neutral>  (1594) 
0.026800000000000001

>  <r_epik_State_Penalty>  (1594) 
0.071099999999999997

>  <r_i_docking_score>  (1594) 
-4.4220815805194897

>  <r_i_glide_ecoul>  (1594) 
-6.2562608718872097

>  <r_i_glide_eff_state_penalty>  (1594) 
0.071099999999999997

>  <r_i_glide_einternal>  (1594) 
4.2684040069580096

>  <r_i_glide_emodel>  (1594) 
-53.941183619712902

>  <r_i_glide_energy>  (1594) 
-40.372090339660602

>  <r_i_glide_erotb>  (1594) 
0.74336557954494098

>  <r_i_glide_esite>  (1594) 
-0.24513622417154299

>  <r_i_glide_evdw>  (1594) 
-34.115829467773402

>  <r_i_glide_gscore>  (1594) 
-4.4931815805194901

>  <r_i_glide_hbond>  (1594) 
-0.18732167345761

>  <r_i_glide_ligand_efficiency>  (1594) 
-0.14740271935065

>  <r_i_glide_ligand_efficiency_ln>  (1594) 
-1.0047451175319599

>  <r_i_glide_ligand_efficiency_sa>  (1594) 
-0.45801452051306601

>  <r_i_glide_lipo>  (1594) 
-1.46094184008171

>  <r_i_glide_metal>  (1594) 
-0

>  <r_i_glide_rewards>  (1594) 
-0.69891681818181695

>  <r_lp_Energy>  (1594) 
36.646369

>  <r_qp_ACxDN^.5/SA>  (1594) 
0.0092159000000000008

>  <r_qp_CIQPlogS>  (1594) 
-4.8289999999999997

>  <r_qp_EA(eV)>  (1594) 
1.048

>  <r_qp_FISA>  (1594) 
62.357999999999997

>  <r_qp_FOSA>  (1594) 
180.81999999999999

>  <r_qp_IP(eV)>  (1594) 
8.5950000000000006

>  <r_qp_Jm>  (1594) 
0.0033906752390629601

>  <r_qp_PISA>  (1594) 
524.09400000000005

>  <r_qp_PSA>  (1594) 
60.743000000000002

>  <r_qp_PercentHumanOralAbsorption>  (1594) 
100

>  <r_qp_QPPCaco>  (1594) 
464.10899999999998

>  <r_qp_QPPMDCK>  (1594) 
333.91000000000003

>  <r_qp_QPlogBB>  (1594) 
-0.048000000000000001

>  <r_qp_QPlogHERG>  (1594) 
-7.1740000000000004

>  <r_qp_QPlogKhsa>  (1594) 
0.66400000000000003

>  <r_qp_QPlogKp>  (1594) 
-2.4049999999999998

>  <r_qp_QPlogPC16>  (1594) 
15.439

>  <r_qp_QPlogPo/w>  (1594) 
4.4340000000000002

>  <r_qp_QPlogPoct>  (1594) 
22.382999999999999

>  <r_qp_QPlogPw>  (1594) 
13.56

>  <r_qp_QPlogS>  (1594) 
-5.6630000000000003

>  <r_qp_QPpolrz>  (1594) 
49.225000000000001

>  <r_qp_SASA>  (1594) 
767.27200000000005

>  <r_qp_SAamideO>  (1594) 
16.940000000000001

>  <r_qp_SAfluorine>  (1594) 
0

>  <r_qp_WPSA>  (1594) 
0

>  <r_qp_accptHB>  (1594) 
5

>  <r_qp_dip^2/V>  (1594) 
0.035129800000000003

>  <r_qp_dipole>  (1594) 
6.8579999999999997

>  <r_qp_donorHB>  (1594) 
2

>  <r_qp_glob>  (1594) 
0.76569509999999996

>  <r_qp_mol_MW>  (1594) 
396.49099999999999

>  <r_qp_volume>  (1594) 
1338.9380000000001

>  <r_sd_BIOSOLVEIT.INFINISEE\_FTREES\_SIMILARITY>  (1594) 
0.91300000000000003

>  <r_sd_BIOSOLVEIT.LOGP>  (1594) 
4.1902999999999997

>  <r_sd_BIOSOLVEIT.MOLECULAR\_WEIGHT>  (1594) 
397.5

>  <r_sd_BIOSOLVEIT.TPSA>  (1594) 
58.460000000000001

>  <i_epik_Tot_Q>  (1594) 
1

>  <i_epik_Tot_abs_Q>  (1594) 
1

>  <i_f3d_flags>  (1594) 
0

>  <i_i_glide_confnum>  (1594) 
5

>  <i_i_glide_lignum>  (1594) 
270

>  <i_i_glide_posenum>  (1594) 
8

>  <i_i_glide_rotatable_bonds>  (1594) 
7

>  <i_lp_mmshare_version>  (1594) 
65135

>  <i_m_ct_format>  (1594) 
2

>  <i_m_source_file_index>  (1594) 
1128

>  <i_qp_#NandO>  (1594) 
5

>  <i_qp_#acid>  (1594) 
0

>  <i_qp_#amide>  (1594) 
1

>  <i_qp_#amidine>  (1594) 
0

>  <i_qp_#amine>  (1594) 
1

>  <i_qp_#in34>  (1594) 
0

>  <i_qp_#in56>  (1594) 
22

>  <i_qp_#metab>  (1594) 
3

>  <i_qp_#nonHatm>  (1594) 
30

>  <i_qp_#noncon>  (1594) 
0

>  <i_qp_#ringatoms>  (1594) 
22

>  <i_qp_#rotor>  (1594) 
5

>  <i_qp_#rtvFG>  (1594) 
0

>  <i_qp_#stars>  (1594) 
1

>  <i_qp_CNS>  (1594) 
1

>  <i_qp_HumanOralAbsorption>  (1594) 
3

>  <i_qp_RuleOfFive>  (1594) 
0

>  <i_qp_RuleOfThree>  (1594) 
0

>  <i_sd_BIOSOLVEIT.INFINISEE\_REAGENT1\_NAME>  (1594) 
22523374

>  <i_sd_BIOSOLVEIT.INFINISEE\_REAGENT2\_NAME>  (1594) 
22584490

>  <i_sd_BIOSOLVEIT.INFINISEE\_RESULT\_RANK>  (1594) 
35277

>  <i_sd_version>  (1594) 
0

>  <b_lp_Chiralities_Consistent>  (1594) 
1

>  <b_sd_chiral_flag>  (1594) 
0

>  <canonical_id>  (1594) 
ATP-HTVS-FAA4B7BBA523

>  <compound_code>  (1594) 
36065

>  <title>  (1594) 
m_2430bbb____22523374____22584490

>  <variant>  (1594) 
36065-1

>  <source_file>  (1594) 
运行/运行/ATP-VSW/ATP-VSW-DOCK_HTVS_1-001_lib/ATP-VSW-DOCK_HTVS_1-001_lib

>  <canonical_smiles>  (1594) 
C[NH+](C)Cc1cccc(NC(=O)Nc2cc(-c3ccccc3)nc3ccccc23)c1

>  <scaffold>  (1594) 
O=C(Nc1ccccc1)Nc1cc(-c2ccccc2)nc2ccccc12

>  <molecular_formula>  (1594) 
C25H25N4O+

$$$$
ATP-HTVS-FAB6E8368155
     RDKit          3D

 57 59  0  0  0  0  0  0  0  0999 V2000
  197.1195  181.0193  155.6364 S   0  0  0  0  0  0  0  0  0  0  0  0
  198.2935  181.4895  156.8486 C   0  0  0  0  0  0  0  0  0  0  0  0
  197.9694  182.6169  157.7569 C   0  0  0  0  0  0  0  0  0  0  0  0
  198.8734  183.2268  158.3259 O   0  0  0  0  0  0  0  0  0  0  0  0
  196.6551  182.8359  157.9850 N   0  0  0  0  0  0  0  0  0  0  0  0
  196.0736  183.9013  158.8047 C   0  0  1  0  0  0  0  0  0  0  0  0
  196.6355  185.2966  158.5014 C   0  0  0  0  0  0  0  0  0  0  0  0
  197.1042  185.6297  157.2112 C   0  0  0  0  0  0  0  0  0  0  0  0
  197.6690  186.9041  156.9793 C   0  0  0  0  0  0  0  0  0  0  0  0
  197.7186  187.8623  158.0094 C   0  0  0  0  0  0  0  0  0  0  0  0
  197.2125  187.5436  159.2817 C   0  0  0  0  0  0  0  0  0  0  0  0
  196.6741  186.2651  159.5320 C   0  0  0  0  0  0  0  0  0  0  0  0
  194.5643  183.8598  158.6373 C   0  0  0  0  0  0  0  0  0  0  0  0
  193.6673  184.2403  159.5671 C   0  0  0  0  0  0  0  0  0  0  0  0
  199.4357  180.7340  156.7384 C   0  0  0  0  0  0  0  0  0  0  0  0
  199.3458  179.7103  155.7555 C   0  0  0  0  0  0  0  0  0  0  0  0
  200.4080  178.8352  155.5430 N   0  0  0  0  0  0  0  0  0  0  0  0
  200.4266  177.9037  154.4410 C   0  0  1  0  0  0  0  0  0  0  0  0
  201.7080  177.1174  154.3356 C   0  0  0  0  0  0  0  0  0  0  0  0
  201.7451  175.7578  154.7128 C   0  0  0  0  0  0  0  0  0  0  0  0
  202.9404  175.0170  154.5886 C   0  0  0  0  0  0  0  0  0  0  0  0
  204.1024  175.6563  154.1075 C   0  0  0  0  0  0  0  0  0  0  0  0
  204.0698  177.0159  153.7350 C   0  0  0  0  0  0  0  0  0  0  0  0
  202.8721  177.7470  153.8487 C   0  0  0  0  0  0  0  0  0  0  0  0
  202.9712  173.5281  154.9325 C   0  0  1  0  0  0  0  0  0  0  0  0
  202.5251  172.6602  153.8267 N   0  0  2  0  0  0  0  0  0  0  0  0
  203.2735  172.8424  152.5575 C   0  0  2  0  0  0  0  0  0  0  0  0
  201.0516  172.6788  153.6094 C   0  0  2  0  0  0  0  0  0  0  0  0
  198.1500  179.7343  155.0735 C   0  0  0  0  0  0  0  0  0  0  0  0
  196.0105  182.1766  157.5639 H   0  0  0  0  0  0  0  0  0  0  0  0
  196.2966  183.6705  159.8516 H   0  0  0  0  0  0  0  0  0  0  0  0
  197.0384  184.9208  156.4019 H   0  0  0  0  0  0  0  0  0  0  0  0
  198.0584  187.1270  156.0069 H   0  0  0  0  0  0  0  0  0  0  0  0
  198.1754  188.8200  157.8252 H   0  0  0  0  0  0  0  0  0  0  0  0
  197.2753  188.2683  160.0809 H   0  0  0  0  0  0  0  0  0  0  0  0
  196.3055  186.0272  160.5153 H   0  0  0  0  0  0  0  0  0  0  0  0
  194.1870  183.5065  157.6921 H   0  0  0  0  0  0  0  0  0  0  0  0
  193.9633  184.6069  160.5345 H   0  0  0  0  0  0  0  0  0  0  0  0
  192.6158  184.1965  159.3446 H   0  0  0  0  0  0  0  0  0  0  0  0
  200.3123  180.8749  157.3621 H   0  0  0  0  0  0  0  0  0  0  0  0
  201.2384  178.8783  156.1409 H   0  0  0  0  0  0  0  0  0  0  0  0
  199.5697  177.2325  154.5406 H   0  0  0  0  0  0  0  0  0  0  0  0
  200.2755  178.4678  153.5225 H   0  0  0  0  0  0  0  0  0  0  0  0
  200.8457  175.2892  155.0887 H   0  0  0  0  0  0  0  0  0  0  0  0
  205.0239  175.1084  153.9934 H   0  0  0  0  0  0  0  0  0  0  0  0
  204.9521  177.4960  153.3416 H   0  0  0  0  0  0  0  0  0  0  0  0
  202.8396  178.7854  153.5537 H   0  0  0  0  0  0  0  0  0  0  0  0
  203.9929  173.2525  155.2092 H   0  0  0  0  0  0  0  0  0  0  0  0
  202.3762  173.3601  155.8262 H   0  0  0  0  0  0  0  0  0  0  0  0
  203.1393  173.8463  152.1361 H   0  0  0  0  0  0  0  0  0  0  0  0
  202.9480  172.1078  151.8147 H   0  0  0  0  0  0  0  0  0  0  0  0
  204.3419  172.6715  152.7296 H   0  0  0  0  0  0  0  0  0  0  0  0
  200.7101  173.6521  153.2558 H   0  0  0  0  0  0  0  0  0  0  0  0
  200.5365  172.4437  154.5376 H   0  0  0  0  0  0  0  0  0  0  0  0
  200.7718  171.9222  152.8779 H   0  0  0  0  0  0  0  0  0  0  0  0
  197.8073  179.0681  154.3010 H   0  0  0  0  0  0  0  0  0  0  0  0
  202.7559  171.6739  154.1116 H   0  0  0  0  0  0  0  0  0  0  0  0
  1  2  1  0
  1 29  1  0
  2  3  1  0
  2 15  2  0
  3  4  2  0
  3  5  1  0
  5  6  1  0
  5 30  1  0
  6  7  1  0
  6 13  1  0
  6 31  1  1
  7  8  2  0
  7 12  1  0
  8  9  1  0
  8 32  1  0
  9 10  2  0
  9 33  1  0
 10 11  1  0
 10 34  1  0
 11 12  2  0
 11 35  1  0
 12 36  1  0
 13 14  2  0
 13 37  1  0
 14 38  1  0
 14 39  1  0
 15 16  1  0
 15 40  1  0
 16 17  1  0
 16 29  2  0
 17 18  1  0
 17 41  1  0
 18 19  1  0
 18 42  1  1
 18 43  1  0
 19 20  2  0
 19 24  1  0
 20 21  1  0
 20 44  1  0
 21 22  2  0
 21 25  1  0
 22 23  1  0
 22 45  1  0
 23 24  2  0
 23 46  1  0
 24 47  1  0
 25 26  1  0
 25 48  1  1
 25 49  1  0
 26 27  1  0
 26 28  1  0
 26 57  1  1
 27 50  1  6
 27 51  1  0
 27 52  1  0
 28 53  1  6
 28 54  1  0
 28 55  1  0
 29 56  1  0
M  CHG  1  26   1
M  END
>  <s_epik_cmdline>  (1595) 
J2VwaWtfcHl0aG9uJywgJy1waCcsICc3LjAwMDAwMCcsICctcGh0JywgJzIuMDAwMDAwJywgJy1tcycsICcxNicsICctdG4nLCAnOCcsICctbWEnLCAnMjAwJywgJy1pbWFlJywgJzxpbmZpbGUubWFlPicsICctb21hZScsICc8b3V0ZmlsZS5tYWU+Jw==

>  <s_epik_input>  (1595) 
W2NIXTFbY0hdW2NIXWMoW0NIMl1OKFtDSDNdKVtDSDNdKVtjSF1jMVtDSDJdW05IXWMoW2NIXTIpW2NIXXNjMkMoPU8pW05IXVtDQEhdKFtDSF09W0NIMl0pYzNbY0hdW2NIXVtjSF1bY0hdW2NIXTM=

>  <s_i_glide_gridfile>  (1595) 
ATP-Grid

>  <s_lp_Force_Field>  (1595) 
OPLS_2005

>  <s_lp_Variant>  (1595) 
rxn512b____EMOL49836578____EMOL720738____EMOL2873214-1

>  <s_lp_label>  (1595) 
2847_sdstereoexpander_1_neutralizer_1_epik_1_stereoizer_1

>  <s_m_source_file>  (1595) 
ATP-VSW-LIGPREP-003-in.maegz

>  <s_sd_BIOSOLVEIT.INFINISEE\_QUERY\_NAME>  (1595) 
Ref-Lig

>  <s_sd_BIOSOLVEIT.INFINISEE\_QUERY\_SMILES>  (1595) 
S(c1nc2c(cc1C[NH2+]Cc3ccc(cc3)C[NH+](C)C)cccc2)Cc4ccccc4

>  <s_sd_BIOSOLVEIT.INFINISEE\_REACTION\_NAME>  (1595) 
rxn512b

>  <s_sd_BIOSOLVEIT.INFINISEE\_REAGENT1\_NAME>  (1595) 
EMOL49836578

>  <s_sd_BIOSOLVEIT.INFINISEE\_REAGENT1\_SMILES>  (1595) 
NC(c1ccccc1)C=C

>  <s_sd_BIOSOLVEIT.INFINISEE\_REAGENT2\_NAME>  (1595) 
EMOL720738

>  <s_sd_BIOSOLVEIT.INFINISEE\_REAGENT2\_SMILES>  (1595) 
BrC1=CSC(C(=O)O)=C1

>  <s_sd_BIOSOLVEIT.INFINISEE\_REAGENT3\_NAME>  (1595) 
EMOL2873214

>  <s_sd_BIOSOLVEIT.INFINISEE\_REAGENT3\_SMILES>  (1595) 
N(Cc1cc(ccc1)CN)(C)C

>  <s_sd_BIOSOLVEIT.INFINISEE\_SPACE>  (1595) 
eXplore_7tr_2022-12

>  <s_vsw_compound_code>  (1595) 
91075

>  <s_vsw_variant>  (1595) 
91075-1

>  <r_epik_Charging_Adjusted_Penalty>  (1595) 
0.086140609825027206

>  <r_epik_Ionization_Penalty>  (1595) 
0.043099999999999999

>  <r_epik_Ionization_Penalty_Charging>  (1595) 
0.043099999999999999

>  <r_epik_Ionization_Penalty_Neutral>  (1595) 
0

>  <r_epik_State_Penalty>  (1595) 
0.043099999999999999

>  <r_i_docking_score>  (1595) 
-4.5219375773984698

>  <r_i_glide_ecoul>  (1595) 
-9.9931049346923793

>  <r_i_glide_eff_state_penalty>  (1595) 
0.043099999999999999

>  <r_i_glide_einternal>  (1595) 
7.1560621261596697

>  <r_i_glide_emodel>  (1595) 
-54.718234938373101

>  <r_i_glide_energy>  (1595) 
-42.414205551147496

>  <r_i_glide_erotb>  (1595) 
0.95168151624369002

>  <r_i_glide_esite>  (1595) 
-0.17794985654918599

>  <r_i_glide_evdw>  (1595) 
-32.421100616455099

>  <r_i_glide_gscore>  (1595) 
-4.5650375773984697

>  <r_i_glide_hbond>  (1595) 
-0.20000000000000001

>  <r_i_glide_ligand_efficiency>  (1595) 
-0.155928881979258

>  <r_i_glide_ligand_efficiency_ln>  (1595) 
-1.03540903878098

>  <r_i_glide_ligand_efficiency_sa>  (1595) 
-0.47906292717754001

>  <r_i_glide_lipo>  (1595) 
-1.15668905697545

>  <r_i_glide_metal>  (1595) 
-0

>  <r_i_glide_rewards>  (1595) 
-0.86205940909090795

>  <r_lp_Energy>  (1595) 
15.813594999999999

>  <r_lp_tautomer_probability>  (1595) 
0.99999274205267796

>  <r_qp_ACxDN^.5/SA>  (1595) 
0.010678099999999999

>  <r_qp_CIQPlogS>  (1595) 
-4.1159999999999997

>  <r_qp_EA(eV)>  (1595) 
0.56999999999999995

>  <r_qp_FISA>  (1595) 
63.539999999999999

>  <r_qp_FOSA>  (1595) 
291.351

>  <r_qp_IP(eV)>  (1595) 
8.298

>  <r_qp_Jm>  (1595) 
0.0013109411839980799

>  <r_qp_PISA>  (1595) 
328.65499999999997

>  <r_qp_PSA>  (1595) 
53.612000000000002

>  <r_qp_PercentHumanOralAbsorption>  (1595) 
91.837000000000003

>  <r_qp_QPPCaco>  (1595) 
153.86799999999999

>  <r_qp_QPPMDCK>  (1595) 
141.03700000000001

>  <r_qp_QPlogBB>  (1595) 
0.28799999999999998

>  <r_qp_QPlogHERG>  (1595) 
-7.5739999999999998

>  <r_qp_QPlogKhsa>  (1595) 
0.79400000000000004

>  <r_qp_QPlogKp>  (1595) 
-4.7939999999999996

>  <r_qp_QPlogPC16>  (1595) 
14.353

>  <r_qp_QPlogPo/w>  (1595) 
4.3970000000000002

>  <r_qp_QPlogPoct>  (1595) 
21.334

>  <r_qp_QPlogPw>  (1595) 
10.516999999999999

>  <r_qp_QPlogS>  (1595) 
-3.6970000000000001

>  <r_qp_QPpolrz>  (1595) 
45.459000000000003

>  <r_qp_SASA>  (1595) 
728.42100000000005

>  <r_qp_SAamideO>  (1595) 
0

>  <r_qp_SAfluorine>  (1595) 
0

>  <r_qp_WPSA>  (1595) 
44.874000000000002

>  <r_qp_accptHB>  (1595) 
5.5

>  <r_qp_dip^2/V>  (1595) 
0.034584999999999998

>  <r_qp_dipole>  (1595) 
6.8470000000000004

>  <r_qp_donorHB>  (1595) 
2

>  <r_qp_glob>  (1595) 
0.81323820000000002

>  <r_qp_mol_MW>  (1595) 
405.55700000000002

>  <r_qp_volume>  (1595) 
1355.665

>  <r_sd_BIOSOLVEIT.INFINISEE\_FTREES\_SIMILARITY>  (1595) 
0.90500000000000003

>  <r_sd_BIOSOLVEIT.LOGP>  (1595) 
3.6617999999999999

>  <r_sd_BIOSOLVEIT.MOLECULAR\_WEIGHT>  (1595) 
406.56999999999999

>  <r_sd_BIOSOLVEIT.TPSA>  (1595) 
45.57

>  <i_epik_Tot_Q>  (1595) 
1

>  <i_epik_Tot_abs_Q>  (1595) 
1

>  <i_f3d_flags>  (1595) 
0

>  <i_i_glide_confnum>  (1595) 
5

>  <i_i_glide_lignum>  (1595) 
1372

>  <i_i_glide_posenum>  (1595) 
18

>  <i_i_glide_rotatable_bonds>  (1595) 
10

>  <i_lp_mmshare_version>  (1595) 
65135

>  <i_m_ct_format>  (1595) 
2

>  <i_m_source_file_index>  (1595) 
2847

>  <i_qp_#NandO>  (1595) 
4

>  <i_qp_#acid>  (1595) 
0

>  <i_qp_#amide>  (1595) 
0

>  <i_qp_#amidine>  (1595) 
0

>  <i_qp_#amine>  (1595) 
2

>  <i_qp_#in34>  (1595) 
0

>  <i_qp_#in56>  (1595) 
17

>  <i_qp_#metab>  (1595) 
7

>  <i_qp_#nonHatm>  (1595) 
29

>  <i_qp_#noncon>  (1595) 
0

>  <i_qp_#ringatoms>  (1595) 
17

>  <i_qp_#rotor>  (1595) 
9

>  <i_qp_#rtvFG>  (1595) 
0

>  <i_qp_#stars>  (1595) 
0

>  <i_qp_CNS>  (1595) 
1

>  <i_qp_HumanOralAbsorption>  (1595) 
3

>  <i_qp_RuleOfFive>  (1595) 
0

>  <i_qp_RuleOfThree>  (1595) 
1

>  <i_sd_BIOSOLVEIT.INFINISEE\_RESULT\_RANK>  (1595) 
68644

>  <i_sd_version>  (1595) 
0

>  <b_lp_Chiralities_Consistent>  (1595) 
1

>  <b_sd_chiral_flag>  (1595) 
0

>  <canonical_id>  (1595) 
ATP-HTVS-FAB6E8368155

>  <compound_code>  (1595) 
91075

>  <title>  (1595) 
rxn512b____EMOL49836578____EMOL720738____EMOL2873214

>  <variant>  (1595) 
91075-1

>  <source_file>  (1595) 
运行/运行/ATP-VSW/ATP-VSW-DOCK_HTVS_1-003_lib/ATP-VSW-DOCK_HTVS_1-003_lib.mae

>  <canonical_smiles>  (1595) 
C=C[C@@H](NC(=O)c1cc(NCc2cccc(C[NH+](C)C)c2)cs1)c1ccccc1

>  <scaffold>  (1595) 
O=C(NCc1ccccc1)c1cc(NCc2ccccc2)cs1

>  <molecular_formula>  (1595) 
C24H28N3OS+

$$$$
ATP-HTVS-FACA1D344F25
     RDKit          3D

 64 67  0  0  0  0  0  0  0  0999 V2000
  200.0946  181.4553  156.4100 N   0  0  0  0  0  0  0  0  0  0  0  0
  199.1921  180.4516  156.4941 C   0  0  0  0  0  0  0  0  0  0  0  0
  197.9375  180.6437  156.9251 N   0  0  0  0  0  0  0  0  0  0  0  0
  197.5163  181.8714  157.3104 C   0  0  0  0  0  0  0  0  0  0  0  0
  198.4149  182.9597  157.2849 C   0  0  0  0  0  0  0  0  0  0  0  0
  199.7191  182.6919  156.8173 C   0  0  0  0  0  0  0  0  0  0  0  0
  200.7188  183.6706  156.7677 N   0  0  0  0  0  0  0  0  0  0  0  0
  201.2428  184.2257  158.0197 C   0  0  1  0  0  0  0  0  0  0  0  0
  201.9017  183.2303  158.9627 C   0  0  0  0  0  0  0  0  0  0  0  0
  202.1449  183.5427  160.3283 C   0  0  0  0  0  0  0  0  0  0  0  0
  202.7356  182.5564  161.1499 C   0  0  0  0  0  0  0  0  0  0  0  0
  203.0432  181.2997  160.5890 C   0  0  0  0  0  0  0  0  0  0  0  0
  202.8363  181.0017  159.2909 N   0  0  0  0  0  0  0  0  0  0  0  0
  202.3027  181.9542  158.4895 C   0  0  0  0  0  0  0  0  0  0  0  0
  201.8143  184.9055  160.9241 C   0  0  2  0  0  0  0  0  0  0  0  0
  200.7660  184.4295  155.5301 C   0  0  2  0  0  0  0  0  0  0  0  0
  197.9637  184.2346  157.7168 C   0  0  0  0  0  0  0  0  0  0  0  0
  196.6397  184.4198  158.1508 C   0  0  0  0  0  0  0  0  0  0  0  0
  195.7428  183.3312  158.1385 C   0  0  0  0  0  0  0  0  0  0  0  0
  196.1913  182.0588  157.7305 C   0  0  0  0  0  0  0  0  0  0  0  0
  199.5718  179.1421  156.1952 N   0  0  0  0  0  0  0  0  0  0  0  0
  200.8886  178.7790  155.6852 C   0  0  1  0  0  0  0  0  0  0  0  0
  201.0094  177.3313  155.2708 C   0  0  0  0  0  0  0  0  0  0  0  0
  200.6753  176.9311  153.9589 C   0  0  0  0  0  0  0  0  0  0  0  0
  200.7568  175.5728  153.5797 C   0  0  0  0  0  0  0  0  0  0  0  0
  201.1671  174.5976  154.5126 C   0  0  0  0  0  0  0  0  0  0  0  0
  201.5125  175.0116  155.8140 C   0  0  0  0  0  0  0  0  0  0  0  0
  201.4484  176.3654  156.1962 C   0  0  0  0  0  0  0  0  0  0  0  0
  201.2445  173.1203  154.1245 C   0  0  1  0  0  0  0  0  0  0  0  0
  202.6313  172.6489  153.8391 N   0  0  1  0  0  0  0  0  0  0  0  0
  203.1378  173.1044  152.5277 C   0  0  2  0  0  0  0  0  0  0  0  0
  203.5926  172.9147  154.9319 C   0  0  2  0  0  0  0  0  0  0  0  0
  201.9560  185.0141  157.7841 H   0  0  0  0  0  0  0  0  0  0  0  0
  200.4417  184.7323  158.5742 H   0  0  0  0  0  0  0  0  0  0  0  0
  202.9585  182.7481  162.1922 H   0  0  0  0  0  0  0  0  0  0  0  0
  203.4920  180.5100  161.1718 H   0  0  0  0  0  0  0  0  0  0  0  0
  202.1705  181.6658  157.4433 H   0  0  0  0  0  0  0  0  0  0  0  0
  202.1370  184.9704  161.9674 H   0  0  0  0  0  0  0  0  0  0  0  0
  200.7387  185.0969  160.9012 H   0  0  0  0  0  0  0  0  0  0  0  0
  202.3182  185.7030  160.3734 H   0  0  0  0  0  0  0  0  0  0  0  0
  200.1924  183.9416  154.7385 H   0  0  0  0  0  0  0  0  0  0  0  0
  201.7979  184.5151  155.1915 H   0  0  0  0  0  0  0  0  0  0  0  0
  200.3618  185.4308  155.6786 H   0  0  0  0  0  0  0  0  0  0  0  0
  198.6057  185.0995  157.6901 H   0  0  0  0  0  0  0  0  0  0  0  0
  196.2981  185.4025  158.4525 H   0  0  0  0  0  0  0  0  0  0  0  0
  194.7089  183.4750  158.4299 H   0  0  0  0  0  0  0  0  0  0  0  0
  195.4846  181.2388  157.7090 H   0  0  0  0  0  0  0  0  0  0  0  0
  198.9332  178.4009  156.4390 H   0  0  0  0  0  0  0  0  0  0  0  0
  201.1257  179.4078  154.8264 H   0  0  0  0  0  0  0  0  0  0  0  0
  201.6535  179.0075  156.4391 H   0  0  0  0  0  0  0  0  0  0  0  0
  200.3529  177.6566  153.2251 H   0  0  0  0  0  0  0  0  0  0  0  0
  200.5062  175.2733  152.5719 H   0  0  0  0  0  0  0  0  0  0  0  0
  201.8466  174.2878  156.5350 H   0  0  0  0  0  0  0  0  0  0  0  0
  201.7617  176.6553  157.1925 H   0  0  0  0  0  0  0  0  0  0  0  0
  200.8127  172.5195  154.9218 H   0  0  0  0  0  0  0  0  0  0  0  0
  200.6071  172.9361  153.2502 H   0  0  0  0  0  0  0  0  0  0  0  0
  203.1725  174.1937  152.4754 H   0  0  0  0  0  0  0  0  0  0  0  0
  202.5047  172.7381  151.7171 H   0  0  0  0  0  0  0  0  0  0  0  0
  204.1438  172.7225  152.3636 H   0  0  0  0  0  0  0  0  0  0  0  0
  203.7795  173.9782  155.0560 H   0  0  0  0  0  0  0  0  0  0  0  0
  204.5628  172.4447  154.7273 H   0  0  0  0  0  0  0  0  0  0  0  0
  203.2175  172.5012  155.8685 H   0  0  0  0  0  0  0  0  0  0  0  0
  197.2691  179.8782  157.0193 H   0  0  0  0  0  0  0  0  0  0  0  0
  202.6269  171.6292  153.7849 H   0  0  0  0  0  0  0  0  0  0  0  0
  1  2  1  0
  1  6  2  0
  2  3  2  0
  2 21  1  0
  3  4  1  0
  3 63  1  0
  4  5  1  0
  4 20  2  0
  5  6  1  0
  5 17  2  0
  6  7  1  0
  7  8  1  0
  7 16  1  0
  8  9  1  0
  8 33  1  6
  8 34  1  0
  9 10  1  0
  9 14  2  0
 10 11  2  0
 10 15  1  0
 11 12  1  0
 11 35  1  0
 12 13  2  0
 12 36  1  0
 13 14  1  0
 14 37  1  0
 15 38  1  1
 15 39  1  0
 15 40  1  0
 16 41  1  6
 16 42  1  0
 16 43  1  0
 17 18  1  0
 17 44  1  0
 18 19  2  0
 18 45  1  0
 19 20  1  0
 19 46  1  0
 20 47  1  0
 21 22  1  0
 21 48  1  0
 22 23  1  0
 22 49  1  6
 22 50  1  0
 23 24  1  0
 23 28  2  0
 24 25  2  0
 24 51  1  0
 25 26  1  0
 25 52  1  0
 26 27  2  0
 26 29  1  0
 27 28  1  0
 27 53  1  0
 28 54  1  0
 29 30  1  0
 29 55  1  1
 29 56  1  0
 30 31  1  0
 30 32  1  0
 30 64  1  6
 31 57  1  1
 31 58  1  0
 31 59  1  0
 32 60  1  1
 32 61  1  0
 32 62  1  0
M  CHG  2   3   1  30   1
M  END
>  <s_epik_cmdline>  (1596) 
J2VwaWtfcHl0aG9uJywgJy1waCcsICc3LjAwMDAwMCcsICctcGh0JywgJzIuMDAwMDAwJywgJy1tcycsICcxNicsICctdG4nLCAnOCcsICctbWEnLCAnMjAwJywgJy1pbWFlJywgJzxpbmZpbGUubWFlPicsICctb21hZScsICc8b3V0ZmlsZS5tYWU+Jw==

>  <s_epik_input>  (1596) 
W2NIXTFuW2NIXVtjSF1jKFtDSDNdKWMxW0NIMl1OKFtDSDNdKWMoYyhjMjMpW2NIXVtjSF1bY0hdW2NIXTMpbmMobjIpW05IXVtDSDJdYzRbY0hdW2NIXWMoW2NIXVtjSF00KVtDSDJdTihbQ0gzXSlbQ0gzXQ==

>  <s_i_glide_gridfile>  (1596) 
ATP-Grid

>  <s_lp_Force_Field>  (1596) 
OPLS_2005

>  <s_lp_Variant>  (1596) 
m_282030aaa____21922220____22360182____21945542-1

>  <s_lp_label>  (1596) 
1799_sdstereoexpander_1_neutralizer_1_epik_1_stereoizer_1

>  <s_m_source_file>  (1596) 
ATP-VSW-LIGPREP-001-in.maegz

>  <s_sd_BIOSOLVEIT.INFINISEE\_QUERY\_NAME>  (1596) 
Ref-Lig

>  <s_sd_BIOSOLVEIT.INFINISEE\_QUERY\_SMILES>  (1596) 
S(c1nc2c(cc1C[NH2+]Cc3ccc(cc3)C[NH+](C)C)cccc2)Cc4ccccc4

>  <s_sd_BIOSOLVEIT.INFINISEE\_REACTION\_NAME>  (1596) 
m_282030aaa

>  <s_sd_BIOSOLVEIT.INFINISEE\_REAGENT1\_SMILES>  (1596) 
[R1*]N(Cc1c(ccnc1)C)C

>  <s_sd_BIOSOLVEIT.INFINISEE\_REAGENT2\_SMILES>  (1596) 
[R2*]c1nc([R1*])c2c(n1)cccc2

>  <s_sd_BIOSOLVEIT.INFINISEE\_REAGENT3\_SMILES>  (1596) 
[R2*]NCc1ccc(cc1)CN(C)C

>  <s_sd_BIOSOLVEIT.INFINISEE\_SPACE>  (1596) 
REALSpace_44bn_2023-08

>  <s_vsw_compound_code>  (1596) 
57537

>  <s_vsw_variant>  (1596) 
57537-1

>  <r_epik_Charging_Adjusted_Penalty>  (1596) 
0.16364754227363401

>  <r_epik_Ionization_Penalty>  (1596) 
0.1295

>  <r_epik_Ionization_Penalty_Charging>  (1596) 
0.0448

>  <r_epik_Ionization_Penalty_Neutral>  (1596) 
0.0848

>  <r_epik_State_Penalty>  (1596) 
0.11890000000000001

>  <r_i_docking_score>  (1596) 
-4.7778429954561004

>  <r_i_glide_ecoul>  (1596) 
-9.6745462417602504

>  <r_i_glide_eff_state_penalty>  (1596) 
0.11890000000000001

>  <r_i_glide_einternal>  (1596) 
5.5883703231811497

>  <r_i_glide_emodel>  (1596) 
-57.198433864548299

>  <r_i_glide_energy>  (1596) 
-38.171536445617697

>  <r_i_glide_erotb>  (1596) 
0.75706870877358701

>  <r_i_glide_esite>  (1596) 
-0.307876899807217

>  <r_i_glide_evdw>  (1596) 
-28.496990203857401

>  <r_i_glide_gscore>  (1596) 
-4.8967429954561004

>  <r_i_glide_hbond>  (1596) 
-0.45441298307261602

>  <r_i_glide_ligand_efficiency>  (1596) 
-0.149307593608003

>  <r_i_glide_ligand_efficiency_ln>  (1596) 
-1.0698892857637901

>  <r_i_glide_ligand_efficiency_sa>  (1596) 
-0.47402206177275702

>  <r_i_glide_lipo>  (1596) 
-1.3034845567111299

>  <r_i_glide_metal>  (1596) 
-0

>  <r_i_glide_rewards>  (1596) 
-0.71200581818181696

>  <r_lp_Energy>  (1596) 
23.511776000000001

>  <r_qp_ACxDN^.5/SA>  (1596) 
0.0097952000000000004

>  <r_qp_CIQPlogS>  (1596) 
-5.5549999999999997

>  <r_qp_EA(eV)>  (1596) 
0.93400000000000005

>  <r_qp_FISA>  (1596) 
42.119999999999997

>  <r_qp_FOSA>  (1596) 
288.03100000000001

>  <r_qp_IP(eV)>  (1596) 
8.3279999999999994

>  <r_qp_Jm>  (1596) 
0.58862206150889895

>  <r_qp_PISA>  (1596) 
333.44099999999997

>  <r_qp_PSA>  (1596) 
51.395000000000003

>  <r_qp_PercentHumanOralAbsorption>  (1596) 
100

>  <r_qp_QPPCaco>  (1596) 
984.87199999999996

>  <r_qp_QPPMDCK>  (1596) 
538.36199999999997

>  <r_qp_QPlogBB>  (1596) 
0.11600000000000001

>  <r_qp_QPlogHERG>  (1596) 
-5.8099999999999996

>  <r_qp_QPlogKhsa>  (1596) 
0.623

>  <r_qp_QPlogKp>  (1596) 
-2.4159999999999999

>  <r_qp_QPlogPC16>  (1596) 
13.359999999999999

>  <r_qp_QPlogPo/w>  (1596) 
4.4740000000000002

>  <r_qp_QPlogPoct>  (1596) 
19.773

>  <r_qp_QPlogPw>  (1596) 
9.9730000000000008

>  <r_qp_QPlogS>  (1596) 
-3.444

>  <r_qp_QPpolrz>  (1596) 
44.881999999999998

>  <r_qp_SASA>  (1596) 
663.59100000000001

>  <r_qp_SAamideO>  (1596) 
0

>  <r_qp_SAfluorine>  (1596) 
0

>  <r_qp_WPSA>  (1596) 
0

>  <r_qp_accptHB>  (1596) 
6.5

>  <r_qp_dip^2/V>  (1596) 
0.0046312999999999997

>  <r_qp_dipole>  (1596) 
2.476

>  <r_qp_donorHB>  (1596) 
1

>  <r_qp_glob>  (1596) 
0.87875499999999995

>  <r_qp_mol_MW>  (1596) 
426.56299999999999

>  <r_qp_volume>  (1596) 
1324.0509999999999

>  <r_sd_BIOSOLVEIT.INFINISEE\_FTREES\_SIMILARITY>  (1596) 
0.90400000000000003

>  <r_sd_BIOSOLVEIT.LOGP>  (1596) 
3.2262200000000001

>  <r_sd_BIOSOLVEIT.MOLECULAR\_WEIGHT>  (1596) 
427.57299999999998

>  <r_sd_BIOSOLVEIT.TPSA>  (1596) 
58.380000000000003

>  <i_epik_Tot_Q>  (1596) 
2

>  <i_epik_Tot_abs_Q>  (1596) 
2

>  <i_f3d_flags>  (1596) 
0

>  <i_i_glide_confnum>  (1596) 
5

>  <i_i_glide_lignum>  (1596) 
516

>  <i_i_glide_posenum>  (1596) 
17

>  <i_i_glide_rotatable_bonds>  (1596) 
8

>  <i_lp_mmshare_version>  (1596) 
65135

>  <i_m_ct_format>  (1596) 
2

>  <i_m_source_file_index>  (1596) 
1799

>  <i_qp_#NandO>  (1596) 
6

>  <i_qp_#acid>  (1596) 
0

>  <i_qp_#amide>  (1596) 
0

>  <i_qp_#amidine>  (1596) 
0

>  <i_qp_#amine>  (1596) 
1

>  <i_qp_#in34>  (1596) 
0

>  <i_qp_#in56>  (1596) 
22

>  <i_qp_#metab>  (1596) 
7

>  <i_qp_#nonHatm>  (1596) 
32

>  <i_qp_#noncon>  (1596) 
0

>  <i_qp_#ringatoms>  (1596) 
22

>  <i_qp_#rotor>  (1596) 
8

>  <i_qp_#rtvFG>  (1596) 
0

>  <i_qp_#stars>  (1596) 
0

>  <i_qp_CNS>  (1596) 
1

>  <i_qp_HumanOralAbsorption>  (1596) 
3

>  <i_qp_RuleOfFive>  (1596) 
0

>  <i_qp_RuleOfThree>  (1596) 
1

>  <i_sd_BIOSOLVEIT.INFINISEE\_REAGENT1\_NAME>  (1596) 
21922220

>  <i_sd_BIOSOLVEIT.INFINISEE\_REAGENT2\_NAME>  (1596) 
22360182

>  <i_sd_BIOSOLVEIT.INFINISEE\_REAGENT3\_NAME>  (1596) 
21945542

>  <i_sd_BIOSOLVEIT.INFINISEE\_RESULT\_RANK>  (1596) 
77810

>  <i_sd_version>  (1596) 
0

>  <b_lp_Chiralities_Consistent>  (1596) 
1

>  <b_sd_chiral_flag>  (1596) 
0

>  <canonical_id>  (1596) 
ATP-HTVS-FACA1D344F25

>  <compound_code>  (1596) 
57537

>  <title>  (1596) 
m_282030aaa____21922220____22360182____21945542

>  <variant>  (1596) 
57537-1

>  <source_file>  (1596) 
运行/运行/ATP-VSW/ATP-VSW-DOCK_HTVS_1-001_lib/ATP-VSW-DOCK_HTVS_1-001_lib

>  <canonical_smiles>  (1596) 
Cc1ccncc1CN(C)c1nc(NCc2ccc(C[NH+](C)C)cc2)[nH+]c2ccccc12

>  <scaffold>  (1596) 
c1ccc(CNc2nc(NCc3cccnc3)c3ccccc3[nH+]2)cc1

>  <molecular_formula>  (1596) 
C26H32N6+2

$$$$
ATP-HTVS-FACA9080893C
     RDKit          3D

 70 73  0  0  0  0  0  0  0  0999 V2000
  198.2199  178.8871  151.4694 O   0  0  0  0  0  0  0  0  0  0  0  0
  198.0491  179.6962  152.3800 C   0  0  0  0  0  0  0  0  0  0  0  0
  198.6827  179.6741  153.5687 N   0  0  0  0  0  0  0  0  0  0  0  0
  199.6163  178.7290  154.0820 C   0  0  0  0  0  0  0  0  0  0  0  0
  199.9167  177.5825  153.4268 N   0  0  0  0  0  0  0  0  0  0  0  0
  200.7528  176.6738  153.9756 C   0  0  0  0  0  0  0  0  0  0  0  0
  201.3713  176.9012  155.2277 C   0  0  0  0  0  0  0  0  0  0  0  0
  201.0990  178.1001  155.9096 C   0  0  0  0  0  0  0  0  0  0  0  0
  200.2086  179.0418  155.3379 C   0  0  0  0  0  0  0  0  0  0  0  0
  199.9227  180.2643  155.9801 N   0  0  0  0  0  0  0  0  0  0  0  0
  200.7247  180.7509  157.0868 C   0  0  1  0  0  0  0  0  0  0  0  0
  200.3783  182.1787  157.4810 C   0  0  0  0  0  0  0  0  0  0  0  0
  199.0429  182.6326  157.4610 C   0  0  0  0  0  0  0  0  0  0  0  0
  198.7308  183.9615  157.8137 C   0  0  0  0  0  0  0  0  0  0  0  0
  199.7696  184.8346  158.2044 C   0  0  0  0  0  0  0  0  0  0  0  0
  201.1033  184.3835  158.2333 C   0  0  0  0  0  0  0  0  0  0  0  0
  201.4100  183.0564  157.8739 C   0  0  0  0  0  0  0  0  0  0  0  0
  197.2926  184.4480  157.7181 C   0  0  1  0  0  0  0  0  0  0  0  0
  196.4031  183.9534  158.7724 N   0  0  0  0  0  0  0  0  0  0  0  0
  195.0030  184.1021  158.3512 C   0  0  1  0  0  0  0  0  0  0  0  0
  193.9877  183.4729  159.3164 C   0  0  2  0  0  0  0  0  0  0  0  0
  196.6734  184.5753  160.0702 C   0  0  1  0  0  0  0  0  0  0  0  0
  196.3627  186.0841  160.1142 C   0  0  2  0  0  0  0  0  0  0  0  0
  202.2584  175.9463  155.7719 C   0  0  0  0  0  0  0  0  0  0  0  0
  202.5266  174.7543  155.0743 C   0  0  0  0  0  0  0  0  0  0  0  0
  201.9021  174.5106  153.8370 C   0  0  0  0  0  0  0  0  0  0  0  0
  201.0195  175.4676  153.2969 C   0  0  0  0  0  0  0  0  0  0  0  0
  197.0485  180.8369  152.1786 C   0  0  1  0  0  0  0  0  0  0  0  0
  197.6884  182.0662  151.4979 C   0  0  1  0  0  0  0  0  0  0  0  0
  196.6719  182.9796  150.9565 C   0  0  0  0  0  0  0  0  0  0  0  0
  195.8709  183.7021  150.5374 N   0  0  0  0  0  0  0  0  0  0  0  0
  198.6342  182.8113  152.4289 C   0  0  0  0  0  0  0  0  0  0  0  0
  200.0261  182.8077  152.1869 C   0  0  0  0  0  0  0  0  0  0  0  0
  200.8974  183.5017  153.0473 C   0  0  0  0  0  0  0  0  0  0  0  0
  200.3821  184.2085  154.1492 C   0  0  0  0  0  0  0  0  0  0  0  0
  198.9948  184.2244  154.3879 C   0  0  0  0  0  0  0  0  0  0  0  0
  198.1216  183.5192  153.5379 C   0  0  0  0  0  0  0  0  0  0  0  0
  198.4759  180.4405  154.1884 H   0  0  0  0  0  0  0  0  0  0  0  0
  201.5771  178.2843  156.8602 H   0  0  0  0  0  0  0  0  0  0  0  0
  199.2547  180.9182  155.5992 H   0  0  0  0  0  0  0  0  0  0  0  0
  200.5660  180.1072  157.9529 H   0  0  0  0  0  0  0  0  0  0  0  0
  201.7849  180.6848  156.8184 H   0  0  0  0  0  0  0  0  0  0  0  0
  198.2459  181.9712  157.1664 H   0  0  0  0  0  0  0  0  0  0  0  0
  199.5495  185.8599  158.4596 H   0  0  0  0  0  0  0  0  0  0  0  0
  201.8999  185.0584  158.5139 H   0  0  0  0  0  0  0  0  0  0  0  0
  202.4387  182.7163  157.8980 H   0  0  0  0  0  0  0  0  0  0  0  0
  197.2751  185.5483  157.7081 H   0  0  0  0  0  0  0  0  0  0  0  0
  196.9204  184.0985  156.7469 H   0  0  0  0  0  0  0  0  0  0  0  0
  194.7713  185.1556  158.1981 H   0  0  0  0  0  0  0  0  0  0  0  0
  194.8787  183.6081  157.3903 H   0  0  0  0  0  0  0  0  0  0  0  0
  192.9684  183.7079  158.9926 H   0  0  0  0  0  0  0  0  0  0  0  0
  194.1069  183.8357  160.3386 H   0  0  0  0  0  0  0  0  0  0  0  0
  194.0759  182.3854  159.3119 H   0  0  0  0  0  0  0  0  0  0  0  0
  196.1041  184.0612  160.8369 H   0  0  0  0  0  0  0  0  0  0  0  0
  197.7290  184.3950  160.3227 H   0  0  0  0  0  0  0  0  0  0  0  0
  196.6765  186.5228  161.0661 H   0  0  0  0  0  0  0  0  0  0  0  0
  195.2943  186.2731  160.0483 H   0  0  0  0  0  0  0  0  0  0  0  0
  196.8524  186.6233  159.2933 H   0  0  0  0  0  0  0  0  0  0  0  0
  202.7426  176.1335  156.7160 H   0  0  0  0  0  0  0  0  0  0  0  0
  203.2151  174.0291  155.4855 H   0  0  0  0  0  0  0  0  0  0  0  0
  202.1055  173.5951  153.2998 H   0  0  0  0  0  0  0  0  0  0  0  0
  200.5355  175.2807  152.3498 H   0  0  0  0  0  0  0  0  0  0  0  0
  196.2548  180.4525  151.5388 H   0  0  0  0  0  0  0  0  0  0  0  0
  196.5702  181.1086  153.1207 H   0  0  0  0  0  0  0  0  0  0  0  0
  198.2591  181.7294  150.6311 H   0  0  0  0  0  0  0  0  0  0  0  0
  200.4298  182.2683  151.3417 H   0  0  0  0  0  0  0  0  0  0  0  0
  201.9610  183.4959  152.8616 H   0  0  0  0  0  0  0  0  0  0  0  0
  201.0460  184.7422  154.8135 H   0  0  0  0  0  0  0  0  0  0  0  0
  198.6021  184.7773  155.2260 H   0  0  0  0  0  0  0  0  0  0  0  0
  197.0605  183.5287  153.7394 H   0  0  0  0  0  0  0  0  0  0  0  0
  1  2  2  0
  2  3  1  0
  2 28  1  0
  3  4  1  0
  3 38  1  0
  4  5  2  0
  4  9  1  0
  5  6  1  0
  6  7  1  0
  6 27  2  0
  7  8  1  0
  7 24  2  0
  8  9  2  0
  8 39  1  0
  9 10  1  0
 10 11  1  0
 10 40  1  0
 11 12  1  0
 11 41  1  1
 11 42  1  0
 12 13  2  0
 12 17  1  0
 13 14  1  0
 13 43  1  0
 14 15  2  0
 14 18  1  0
 15 16  1  0
 15 44  1  0
 16 17  2  0
 16 45  1  0
 17 46  1  0
 18 19  1  0
 18 47  1  6
 18 48  1  0
 19 20  1  0
 19 22  1  0
 20 21  1  0
 20 49  1  6
 20 50  1  0
 21 51  1  6
 21 52  1  0
 21 53  1  0
 22 23  1  0
 22 54  1  1
 22 55  1  0
 23 56  1  1
 23 57  1  0
 23 58  1  0
 24 25  1  0
 24 59  1  0
 25 26  2  0
 25 60  1  0
 26 27  1  0
 26 61  1  0
 27 62  1  0
 28 29  1  0
 28 63  1  6
 28 64  1  0
 29 30  1  0
 29 32  1  0
 29 65  1  6
 30 31  3  0
 32 33  2  0
 32 37  1  0
 33 34  1  0
 33 66  1  0
 34 35  2  0
 34 67  1  0
 35 36  1  0
 35 68  1  0
 36 37  2  0
 36 69  1  0
 37 70  1  0
M  END
>  <s_epik_cmdline>  (1597) 
J2VwaWtfcHl0aG9uJywgJy1waCcsICc3LjAwMDAwMCcsICctcGh0JywgJzIuMDAwMDAwJywgJy1tcycsICcxNicsICctdG4nLCAnOCcsICctbWEnLCAnMjAwJywgJy1pbWFlJywgJzxpbmZpbGUubWFlPicsICctb21hZScsICc8b3V0ZmlsZS5tYWU+Jw==

>  <s_epik_input>  (1597) 
W2NIXTFbY0hdW2NIXVtjSF1bY0hdYzFbQ0BIXShDI04pW0NIMl1DKD1PKVtOSF1jKG4yKWMoW2NIXWMoYzIzKVtjSF1bY0hdW2NIXVtjSF0zKVtOSF1bQ0gyXWM0W2NIXWMoW2NIXVtjSF1bY0hdNClbQ0gyXU4oW0NIMl1bQ0gzXSlbQ0gyXVtDSDNd

>  <s_i_glide_gridfile>  (1597) 
ATP-Grid

>  <s_lp_Force_Field>  (1597) 
OPLS_2005

>  <s_lp_Variant>  (1597) 
rxn502b____EMOL17362509____EMOL44466703____EMOL44153840-3

>  <s_lp_label>  (1597) 
2439_sdstereoexpander_1_neutralizer_1_epik_2_stereoizer_1

>  <s_m_source_file>  (1597) 
ATP-VSW-LIGPREP-002-in.maegz

>  <s_sd_BIOSOLVEIT.INFINISEE\_QUERY\_NAME>  (1597) 
Ref-Lig

>  <s_sd_BIOSOLVEIT.INFINISEE\_QUERY\_SMILES>  (1597) 
S(c1nc2c(cc1C[NH2+]Cc3ccc(cc3)C[NH+](C)C)cccc2)Cc4ccccc4

>  <s_sd_BIOSOLVEIT.INFINISEE\_REACTION\_NAME>  (1597) 
rxn502b

>  <s_sd_BIOSOLVEIT.INFINISEE\_REAGENT1\_NAME>  (1597) 
EMOL17362509

>  <s_sd_BIOSOLVEIT.INFINISEE\_REAGENT1\_SMILES>  (1597) 
O=C(O)CC(C#N)c1ccccc1

>  <s_sd_BIOSOLVEIT.INFINISEE\_REAGENT2\_NAME>  (1597) 
EMOL44466703

>  <s_sd_BIOSOLVEIT.INFINISEE\_REAGENT2\_SMILES>  (1597) 
Brc1c(nc2c(c1)cccc2)N

>  <s_sd_BIOSOLVEIT.INFINISEE\_REAGENT3\_NAME>  (1597) 
EMOL44153840

>  <s_sd_BIOSOLVEIT.INFINISEE\_REAGENT3\_SMILES>  (1597) 
N(Cc1cc(ccc1)CN)(CC)CC

>  <s_sd_BIOSOLVEIT.INFINISEE\_SPACE>  (1597) 
eXplore_7tr_2022-12

>  <s_vsw_compound_code>  (1597) 
78018

>  <s_vsw_variant>  (1597) 
78018-3

>  <r_epik_Charging_Adjusted_Penalty>  (1597) 
2.0869249526676699

>  <r_epik_Ionization_Penalty>  (1597) 
2.0853000000000002

>  <r_epik_Ionization_Penalty_Charging>  (1597) 
0

>  <r_epik_Ionization_Penalty_Neutral>  (1597) 
2.0853000000000002

>  <r_epik_State_Penalty>  (1597) 
2.0869

>  <r_i_docking_score>  (1597) 
-0.73211690553249797

>  <r_i_glide_ecoul>  (1597) 
-3.60752177238464

>  <r_i_glide_eff_state_penalty>  (1597) 
2.0869

>  <r_i_glide_einternal>  (1597) 
4.2309455871581996

>  <r_i_glide_emodel>  (1597) 
-41.269128225434002

>  <r_i_glide_energy>  (1597) 
-36.565396070480297

>  <r_i_glide_erotb>  (1597) 
0.75809825440413203

>  <r_i_glide_esite>  (1597) 
-0.0215974173252289

>  <r_i_glide_evdw>  (1597) 
-32.957874298095703

>  <r_i_glide_gscore>  (1597) 
-2.8190169055325001

>  <r_i_glide_hbond>  (1597) 
-0.0107214654051498

>  <r_i_glide_ligand_efficiency>  (1597) 
-0.0197869433927702

>  <r_i_glide_ligand_efficiency_ln>  (1597) 
-0.15877899355459399

>  <r_i_glide_ligand_efficiency_sa>  (1597) 
-0.065934485071309099

>  <r_i_glide_lipo>  (1597) 
-1.1313266355422

>  <r_i_glide_metal>  (1597) 
-0

>  <r_i_glide_rewards>  (1597) 
-0.22444766090156601

>  <r_lp_Energy>  (1597) 
31.687322999999999

>  <r_qp_ACxDN^.5/SA>  (1597) 
0.0133893

>  <r_qp_CIQPlogS>  (1597) 
-7.226

>  <r_qp_EA(eV)>  (1597) 
0.80300000000000005

>  <r_qp_FISA>  (1597) 
121.627

>  <r_qp_FOSA>  (1597) 
308.22199999999998

>  <r_qp_IP(eV)>  (1597) 
8.2439999999999998

>  <r_qp_Jm>  (1597) 
0.00012011030153799299

>  <r_qp_PISA>  (1597) 
415.13099999999997

>  <r_qp_PSA>  (1597) 
86.013999999999996

>  <r_qp_PercentHumanOralAbsorption>  (1597) 
96.167000000000002

>  <r_qp_QPPCaco>  (1597) 
173.54400000000001

>  <r_qp_QPPMDCK>  (1597) 
82.436999999999998

>  <r_qp_QPlogBB>  (1597) 
-1.079

>  <r_qp_QPlogHERG>  (1597) 
-7.7279999999999998

>  <r_qp_QPlogKhsa>  (1597) 
0.83699999999999997

>  <r_qp_QPlogKp>  (1597) 
-3.2090000000000001

>  <r_qp_QPlogPC16>  (1597) 
17.437000000000001

>  <r_qp_QPlogPo/w>  (1597) 
4.9770000000000003

>  <r_qp_QPlogPoct>  (1597) 
26.123999999999999

>  <r_qp_QPlogPw>  (1597) 
13.566000000000001

>  <r_qp_QPlogS>  (1597) 
-6.4029999999999996

>  <r_qp_QPpolrz>  (1597) 
54.308

>  <r_qp_SASA>  (1597) 
844.98000000000002

>  <r_qp_SAamideO>  (1597) 
0

>  <r_qp_SAfluorine>  (1597) 
0

>  <r_qp_WPSA>  (1597) 
0

>  <r_qp_accptHB>  (1597) 
8

>  <r_qp_dip^2/V>  (1597) 
0.054976400000000002

>  <r_qp_dipole>  (1597) 
9.391

>  <r_qp_donorHB>  (1597) 
2

>  <r_qp_glob>  (1597) 
0.78433580000000003

>  <r_qp_mol_MW>  (1597) 
491.63499999999999

>  <r_qp_volume>  (1597) 
1604.2619999999999

>  <r_sd_BIOSOLVEIT.INFINISEE\_FTREES\_SIMILARITY>  (1597) 
0.91700000000000004

>  <r_sd_BIOSOLVEIT.LOGP>  (1597) 
4.9075800000000003

>  <r_sd_BIOSOLVEIT.MOLECULAR\_WEIGHT>  (1597) 
492.64400000000001

>  <r_sd_BIOSOLVEIT.TPSA>  (1597) 
82.25

>  <i_epik_Tot_Q>  (1597) 
0

>  <i_epik_Tot_abs_Q>  (1597) 
0

>  <i_f3d_flags>  (1597) 
0

>  <i_i_glide_confnum>  (1597) 
17

>  <i_i_glide_lignum>  (1597) 
1049

>  <i_i_glide_posenum>  (1597) 
2

>  <i_i_glide_rotatable_bonds>  (1597) 
12

>  <i_lp_mmshare_version>  (1597) 
65135

>  <i_m_ct_format>  (1597) 
2

>  <i_m_source_file_index>  (1597) 
2439

>  <i_qp_#NandO>  (1597) 
6

>  <i_qp_#acid>  (1597) 
0

>  <i_qp_#amide>  (1597) 
0

>  <i_qp_#amidine>  (1597) 
0

>  <i_qp_#amine>  (1597) 
1

>  <i_qp_#in34>  (1597) 
0

>  <i_qp_#in56>  (1597) 
22

>  <i_qp_#metab>  (1597) 
8

>  <i_qp_#nonHatm>  (1597) 
37

>  <i_qp_#noncon>  (1597) 
0

>  <i_qp_#ringatoms>  (1597) 
22

>  <i_qp_#rotor>  (1597) 
12

>  <i_qp_#rtvFG>  (1597) 
0

>  <i_qp_#stars>  (1597) 
0

>  <i_qp_CNS>  (1597) 
-2

>  <i_qp_HumanOralAbsorption>  (1597) 
1

>  <i_qp_RuleOfFive>  (1597) 
0

>  <i_qp_RuleOfThree>  (1597) 
2

>  <i_sd_BIOSOLVEIT.INFINISEE\_RESULT\_RANK>  (1597) 
24119

>  <i_sd_version>  (1597) 
0

>  <b_lp_Chiralities_Consistent>  (1597) 
1

>  <b_sd_chiral_flag>  (1597) 
0

>  <canonical_id>  (1597) 
ATP-HTVS-FACA9080893C

>  <compound_code>  (1597) 
78018

>  <title>  (1597) 
rxn502b____EMOL17362509____EMOL44466703____EMOL44153840

>  <variant>  (1597) 
78018-3

>  <source_file>  (1597) 
运行/运行/ATP-VSW/ATP-VSW-DOCK_HTVS_1-002_lib.maegz

>  <canonical_smiles>  (1597) 
CCN(CC)Cc1cccc(CNc2cc3ccccc3nc2NC(=O)C[C@@H](C#N)c2ccccc2)c1

>  <scaffold>  (1597) 
O=C(CCc1ccccc1)Nc1nc2ccccc2cc1NCc1ccccc1

>  <molecular_formula>  (1597) 
C31H33N5O

$$$$
ATP-HTVS-FB09B772C34B
     RDKit          3D

 64 67  0  0  0  0  0  0  0  0999 V2000
  200.2684  182.7366  158.0287 N   0  0  0  0  0  0  0  0  0  0  0  0
  200.0026  183.6180  158.9688 C   0  0  0  0  0  0  0  0  0  0  0  0
  200.7499  183.7354  160.0731 N   0  0  0  0  0  0  0  0  0  0  0  0
  201.8444  182.9301  160.1928 C   0  0  0  0  0  0  0  0  0  0  0  0
  202.1562  181.9595  159.1821 C   0  0  0  0  0  0  0  0  0  0  0  0
  201.3055  181.8770  158.0897 C   0  0  0  0  0  0  0  0  0  0  0  0
  201.4621  181.0383  156.9755 N   0  0  0  0  0  0  0  0  0  0  0  0
  201.6178  179.6024  157.1894 C   0  0  1  0  0  0  0  0  0  0  0  0
  201.3159  178.7126  156.0067 C   0  0  0  0  0  0  0  0  0  0  0  0
  202.2151  178.6583  154.9151 C   0  0  0  0  0  0  0  0  0  0  0  0
  202.0089  177.7433  153.8635 C   0  0  0  0  0  0  0  0  0  0  0  0
  200.8890  176.8814  153.9088 C   0  0  0  0  0  0  0  0  0  0  0  0
  200.6377  175.9734  152.8830 N   0  0  0  0  0  0  0  0  0  0  0  0
  200.0019  176.9314  155.0034 C   0  0  0  0  0  0  0  0  0  0  0  0
  200.2082  177.8432  156.0511 C   0  0  0  0  0  0  0  0  0  0  0  0
  202.9859  177.7027  152.7005 C   0  0  2  0  0  0  0  0  0  0  0  0
  203.3246  181.2005  159.2992 C   0  0  0  0  0  0  0  0  0  0  0  0
  204.1420  181.3465  160.4151 C   0  0  0  0  0  0  0  0  0  0  0  0
  203.8416  182.3071  161.4199 C   0  0  0  0  0  0  0  0  0  0  0  0
  202.6968  183.1110  161.3064 C   0  0  0  0  0  0  0  0  0  0  0  0
  198.9219  184.4863  158.8049 N   0  0  0  0  0  0  0  0  0  0  0  0
  198.1345  184.7260  157.6076 C   0  0  1  0  0  0  0  0  0  0  0  0
  197.9711  183.5439  156.6395 C   0  0  0  0  0  0  0  0  0  0  0  0
  197.3205  182.3122  156.9616 C   0  0  0  0  0  0  0  0  0  0  0  0
  197.4449  181.1961  156.0845 C   0  0  0  0  0  0  0  0  0  0  0  0
  198.2648  181.2702  154.9345 C   0  0  0  0  0  0  0  0  0  0  0  0
  198.9177  182.4756  154.6172 C   0  0  0  0  0  0  0  0  0  0  0  0
  198.7704  183.5876  155.4681 C   0  0  0  0  0  0  0  0  0  0  0  0
  196.5262  182.1146  158.2595 C   0  0  1  0  0  0  0  0  0  0  0  0
  195.1150  182.5704  158.0926 N   0  0  2  0  0  0  0  0  0  0  0  0
  194.8091  183.9354  158.5702 C   0  0  2  0  0  0  0  0  0  0  0  0
  194.1434  181.6111  158.6441 C   0  0  2  0  0  0  0  0  0  0  0  0
  201.0769  181.3292  156.0855 H   0  0  0  0  0  0  0  0  0  0  0  0
  202.6651  179.3721  157.2814 H   0  0  0  0  0  0  0  0  0  0  0  0
  201.1062  179.2442  158.0879 H   0  0  0  0  0  0  0  0  0  0  0  0
  203.0960  179.2870  154.9167 H   0  0  0  0  0  0  0  0  0  0  0  0
  199.7720  175.4578  152.8502 H   0  0  0  0  0  0  0  0  0  0  0  0
  201.1682  176.0026  152.0264 H   0  0  0  0  0  0  0  0  0  0  0  0
  199.1468  176.2807  155.0611 H   0  0  0  0  0  0  0  0  0  0  0  0
  199.5475  177.8552  156.9124 H   0  0  0  0  0  0  0  0  0  0  0  0
  203.5623  176.7785  152.7210 H   0  0  0  0  0  0  0  0  0  0  0  0
  203.6833  178.5394  152.7365 H   0  0  0  0  0  0  0  0  0  0  0  0
  202.4522  177.7568  151.7517 H   0  0  0  0  0  0  0  0  0  0  0  0
  203.6666  180.5260  158.5397 H   0  0  0  0  0  0  0  0  0  0  0  0
  205.0176  180.7169  160.4793 H   0  0  0  0  0  0  0  0  0  0  0  0
  204.4986  182.4180  162.2636 H   0  0  0  0  0  0  0  0  0  0  0  0
  202.4434  183.8673  162.0637 H   0  0  0  0  0  0  0  0  0  0  0  0
  198.7994  185.1442  159.5357 H   0  0  0  0  0  0  0  0  0  0  0  0
  197.1898  185.0696  157.9961 H   0  0  0  0  0  0  0  0  0  0  0  0
  198.5742  185.5722  157.0799 H   0  0  0  0  0  0  0  0  0  0  0  0
  197.0052  180.2347  156.3317 H   0  0  0  0  0  0  0  0  0  0  0  0
  198.3787  180.4146  154.2824 H   0  0  0  0  0  0  0  0  0  0  0  0
  199.6095  182.5300  153.7730 H   0  0  0  0  0  0  0  0  0  0  0  0
  199.3891  184.4550  155.2946 H   0  0  0  0  0  0  0  0  0  0  0  0
  196.5997  181.0542  158.5417 H   0  0  0  0  0  0  0  0  0  0  0  0
  196.9968  182.5990  159.1062 H   0  0  0  0  0  0  0  0  0  0  0  0
  195.0879  184.0222  159.6151 H   0  0  0  0  0  0  0  0  0  0  0  0
  193.7496  184.1456  158.4543 H   0  0  0  0  0  0  0  0  0  0  0  0
  195.3130  184.6667  157.9669 H   0  0  0  0  0  0  0  0  0  0  0  0
  194.2895  181.5059  159.7279 H   0  0  0  0  0  0  0  0  0  0  0  0
  194.2100  180.6295  158.1781 H   0  0  0  0  0  0  0  0  0  0  0  0
  193.1322  181.9804  158.4322 H   0  0  0  0  0  0  0  0  0  0  0  0
  200.5774  184.4477  160.7965 H   0  0  0  0  0  0  0  0  0  0  0  0
  194.9454  182.5333  157.0909 H   0  0  0  0  0  0  0  0  0  0  0  0
  1  2  1  0
  1  6  2  0
  2  3  2  0
  2 21  1  0
  3  4  1  0
  3 63  1  0
  4  5  1  0
  4 20  2  0
  5  6  1  0
  5 17  2  0
  6  7  1  0
  7  8  1  0
  7 33  1  0
  8  9  1  0
  8 34  1  1
  8 35  1  0
  9 10  2  0
  9 15  1  0
 10 11  1  0
 10 36  1  0
 11 12  2  0
 11 16  1  0
 12 13  1  0
 12 14  1  0
 13 37  1  0
 13 38  1  0
 14 15  2  0
 14 39  1  0
 15 40  1  0
 16 41  1  6
 16 42  1  0
 16 43  1  0
 17 18  1  0
 17 44  1  0
 18 19  2  0
 18 45  1  0
 19 20  1  0
 19 46  1  0
 20 47  1  0
 21 22  1  0
 21 48  1  0
 22 23  1  0
 22 49  1  1
 22 50  1  0
 23 24  1  0
 23 28  2  0
 24 25  2  0
 24 29  1  0
 25 26  1  0
 25 51  1  0
 26 27  2  0
 26 52  1  0
 27 28  1  0
 27 53  1  0
 28 54  1  0
 29 30  1  0
 29 55  1  1
 29 56  1  0
 30 31  1  0
 30 32  1  0
 30 64  1  6
 31 57  1  1
 31 58  1  0
 31 59  1  0
 32 60  1  1
 32 61  1  0
 32 62  1  0
M  CHG  2   3   1  30   1
M  END
>  <s_epik_cmdline>  (1598) 
J2VwaWtfcHl0aG9uJywgJy1waCcsICc3LjAwMDAwMCcsICctcGh0JywgJzIuMDAwMDAwJywgJy1tcycsICcxNicsICctdG4nLCAnOCcsICctbWEnLCAnMjAwJywgJy1pbWFlJywgJzxpbmZpbGUubWFlPicsICctb21hZScsICc8b3V0ZmlsZS5tYWU+Jw==

>  <s_epik_input>  (1598) 
W2NIXTFbY0hdW2NIXVtjSF1jKFtDSDJdTihbQ0gzXSlbQ0gzXSljMVtDSDJdW05IXWMobjIpbmMoYyhjMjMpW2NIXVtjSF1bY0hdW2NIXTMpW05IXVtDSDJdYzRbY0hdYyhbQ0gzXSljKFtOSDJdKVtjSF1bY0hdNA==

>  <s_i_glide_gridfile>  (1598) 
ATP-Grid

>  <s_lp_Force_Field>  (1598) 
OPLS_2005

>  <s_lp_Variant>  (1598) 
m_282030aaa____21927700____22360182____21941636-1

>  <s_lp_label>  (1598) 
1923_sdstereoexpander_1_neutralizer_1_epik_1_stereoizer_1

>  <s_m_source_file>  (1598) 
ATP-VSW-LIGPREP-003-in.maegz

>  <s_sd_BIOSOLVEIT.INFINISEE\_QUERY\_NAME>  (1598) 
Ref-Lig

>  <s_sd_BIOSOLVEIT.INFINISEE\_QUERY\_SMILES>  (1598) 
S(c1nc2c(cc1C[NH2+]Cc3ccc(cc3)C[NH+](C)C)cccc2)Cc4ccccc4

>  <s_sd_BIOSOLVEIT.INFINISEE\_REACTION\_NAME>  (1598) 
m_282030aaa

>  <s_sd_BIOSOLVEIT.INFINISEE\_REAGENT1\_SMILES>  (1598) 
[R1*]NCc1c(cccc1)CN(C)C

>  <s_sd_BIOSOLVEIT.INFINISEE\_REAGENT2\_SMILES>  (1598) 
[R2*]c1nc([R1*])c2c(n1)cccc2

>  <s_sd_BIOSOLVEIT.INFINISEE\_REAGENT3\_SMILES>  (1598) 
[R2*]NCc1cc(c(N)cc1)C

>  <s_sd_BIOSOLVEIT.INFINISEE\_SPACE>  (1598) 
REALSpace_44bn_2023-08

>  <s_vsw_compound_code>  (1598) 
61507

>  <s_vsw_variant>  (1598) 
61507-1

>  <r_epik_Charging_Adjusted_Penalty>  (1598) 
0.124764810731029

>  <r_epik_Ionization_Penalty>  (1598) 
0.064899999999999999

>  <r_epik_Ionization_Penalty_Charging>  (1598) 
0.055

>  <r_epik_Ionization_Penalty_Neutral>  (1598) 
0.0099000000000000008

>  <r_epik_State_Penalty>  (1598) 
0.069699999999999998

>  <r_i_docking_score>  (1598) 
-3.4334642237366402

>  <r_i_glide_ecoul>  (1598) 
-8.0962553024291992

>  <r_i_glide_eff_state_penalty>  (1598) 
0.069699999999999998

>  <r_i_glide_einternal>  (1598) 
9.6312513351440394

>  <r_i_glide_emodel>  (1598) 
-45.251719330911897

>  <r_i_glide_energy>  (1598) 
-35.967822074890101

>  <r_i_glide_erotb>  (1598) 
0.75706870877358701

>  <r_i_glide_esite>  (1598) 
-0.077489983452504907

>  <r_i_glide_evdw>  (1598) 
-27.871566772460898

>  <r_i_glide_gscore>  (1598) 
-3.5031642237366398

>  <r_i_glide_hbond>  (1598) 
-0.18615105235986101

>  <r_i_glide_ligand_efficiency>  (1598) 
-0.10729575699177001

>  <r_i_glide_ligand_efficiency_ln>  (1598) 
-0.76884623239454897

>  <r_i_glide_ligand_efficiency_sa>  (1598) 
-0.340642794647394

>  <r_i_glide_lipo>  (1598) 
-0.76381421286018603

>  <r_i_glide_metal>  (1598) 
-0

>  <r_i_glide_rewards>  (1598) 
-0.62476104985024805

>  <r_lp_Energy>  (1598) 
19.214196000000001

>  <r_qp_ACxDN^.5/SA>  (1598) 
0.0158779

>  <r_qp_CIQPlogS>  (1598) 
-5.5439999999999996

>  <r_qp_EA(eV)>  (1598) 
0.496

>  <r_qp_FISA>  (1598) 
88.421000000000006

>  <r_qp_FOSA>  (1598) 
219.68199999999999

>  <r_qp_IP(eV)>  (1598) 
7.9020000000000001

>  <r_qp_Jm>  (1598) 
0.052254076474025198

>  <r_qp_PISA>  (1598) 
398.85399999999998

>  <r_qp_PSA>  (1598) 
70.787000000000006

>  <r_qp_PercentHumanOralAbsorption>  (1598) 
100

>  <r_qp_QPPCaco>  (1598) 
358.346

>  <r_qp_QPPMDCK>  (1598) 
180.50299999999999

>  <r_qp_QPlogBB>  (1598) 
-0.41799999999999998

>  <r_qp_QPlogHERG>  (1598) 
-6.7670000000000003

>  <r_qp_QPlogKhsa>  (1598) 
0.61499999999999999

>  <r_qp_QPlogKp>  (1598) 
-2.9430000000000001

>  <r_qp_QPlogPC16>  (1598) 
15.018000000000001

>  <r_qp_QPlogPo/w>  (1598) 
4.2160000000000002

>  <r_qp_QPlogPoct>  (1598) 
23.850000000000001

>  <r_qp_QPlogPw>  (1598) 
13.786

>  <r_qp_QPlogS>  (1598) 
-3.9689999999999999

>  <r_qp_QPpolrz>  (1598) 
46.226999999999997

>  <r_qp_SASA>  (1598) 
706.95799999999997

>  <r_qp_SAamideO>  (1598) 
0

>  <r_qp_SAfluorine>  (1598) 
0

>  <r_qp_WPSA>  (1598) 
0

>  <r_qp_accptHB>  (1598) 
6

>  <r_qp_dip^2/V>  (1598) 
0.0105419

>  <r_qp_dipole>  (1598) 
3.7839999999999998

>  <r_qp_donorHB>  (1598) 
3.5

>  <r_qp_glob>  (1598) 
0.83893059999999997

>  <r_qp_mol_MW>  (1598) 
426.56299999999999

>  <r_qp_volume>  (1598) 
1358.0989999999999

>  <r_sd_BIOSOLVEIT.INFINISEE\_FTREES\_SIMILARITY>  (1598) 
0.90300000000000002

>  <r_sd_BIOSOLVEIT.LOGP>  (1598) 
3.3891200000000001

>  <r_sd_BIOSOLVEIT.MOLECULAR\_WEIGHT>  (1598) 
427.57299999999998

>  <r_sd_BIOSOLVEIT.TPSA>  (1598) 
80.299999999999997

>  <i_epik_Tot_Q>  (1598) 
2

>  <i_epik_Tot_abs_Q>  (1598) 
2

>  <i_f3d_flags>  (1598) 
0

>  <i_i_glide_confnum>  (1598) 
3

>  <i_i_glide_lignum>  (1598) 
724

>  <i_i_glide_posenum>  (1598) 
13

>  <i_i_glide_rotatable_bonds>  (1598) 
8

>  <i_lp_mmshare_version>  (1598) 
65135

>  <i_m_ct_format>  (1598) 
2

>  <i_m_source_file_index>  (1598) 
1923

>  <i_qp_#NandO>  (1598) 
6

>  <i_qp_#acid>  (1598) 
0

>  <i_qp_#amide>  (1598) 
0

>  <i_qp_#amidine>  (1598) 
0

>  <i_qp_#amine>  (1598) 
1

>  <i_qp_#in34>  (1598) 
0

>  <i_qp_#in56>  (1598) 
22

>  <i_qp_#metab>  (1598) 
7

>  <i_qp_#nonHatm>  (1598) 
32

>  <i_qp_#noncon>  (1598) 
0

>  <i_qp_#ringatoms>  (1598) 
22

>  <i_qp_#rotor>  (1598) 
9

>  <i_qp_#rtvFG>  (1598) 
0

>  <i_qp_#stars>  (1598) 
0

>  <i_qp_CNS>  (1598) 
0

>  <i_qp_HumanOralAbsorption>  (1598) 
3

>  <i_qp_RuleOfFive>  (1598) 
0

>  <i_qp_RuleOfThree>  (1598) 
1

>  <i_sd_BIOSOLVEIT.INFINISEE\_REAGENT1\_NAME>  (1598) 
21927700

>  <i_sd_BIOSOLVEIT.INFINISEE\_REAGENT2\_NAME>  (1598) 
22360182

>  <i_sd_BIOSOLVEIT.INFINISEE\_REAGENT3\_NAME>  (1598) 
21941636

>  <i_sd_BIOSOLVEIT.INFINISEE\_RESULT\_RANK>  (1598) 
85981

>  <i_sd_version>  (1598) 
0

>  <b_lp_Chiralities_Consistent>  (1598) 
1

>  <b_sd_chiral_flag>  (1598) 
0

>  <canonical_id>  (1598) 
ATP-HTVS-FB09B772C34B

>  <compound_code>  (1598) 
61507

>  <title>  (1598) 
m_282030aaa____21927700____22360182____21941636

>  <variant>  (1598) 
61507-1

>  <source_file>  (1598) 
运行/运行/ATP-VSW/ATP-VSW-DOCK_HTVS_1-003_lib/ATP-VSW-DOCK_HTVS_1-003_lib.mae

>  <canonical_smiles>  (1598) 
Cc1cc(CNc2nc(NCc3ccccc3C[NH+](C)C)[nH+]c3ccccc23)ccc1N

>  <scaffold>  (1598) 
c1ccc(CNc2nc(NCc3ccccc3)c3ccccc3[nH+]2)cc1

>  <molecular_formula>  (1598) 
C26H32N6+2

$$$$
ATP-HTVS-FB368C7A9127
     RDKit          3D

 57 60  0  0  0  0  0  0  0  0999 V2000
  202.6376  177.5904  146.5635 Cl  0  0  0  0  0  0  0  0  0  0  0  0
  201.3451  177.7131  147.7036 C   0  0  0  0  0  0  0  0  0  0  0  0
  200.8853  176.5731  148.3947 C   0  0  0  0  0  0  0  0  0  0  0  0
  199.8120  176.6758  149.3026 C   0  0  0  0  0  0  0  0  0  0  0  0
  199.1912  177.9219  149.5276 C   0  0  0  0  0  0  0  0  0  0  0  0
  199.6772  179.0657  148.8470 C   0  0  0  0  0  0  0  0  0  0  0  0
  200.7406  178.9618  147.9375 C   0  0  0  0  0  0  0  0  0  0  0  0
  198.0201  177.9973  150.5011 C   0  0  1  0  0  0  0  0  0  0  0  0
  197.8633  179.3239  151.1367 N   0  0  0  0  0  0  0  0  0  0  0  0
  198.6999  179.5774  152.3072 C   0  0  0  0  0  0  0  0  0  0  0  0
  198.4819  180.5932  153.2953 C   0  0  0  0  0  0  0  0  0  0  0  0
  197.4357  181.5558  153.3046 N   0  0  0  0  0  0  0  0  0  0  0  0
  197.2290  182.4222  154.3739 C   0  0  0  0  0  0  0  0  0  0  0  0
  196.7464  181.9049  155.5914 C   0  0  0  0  0  0  0  0  0  0  0  0
  196.6855  182.7274  156.7319 C   0  0  0  0  0  0  0  0  0  0  0  0
  197.1409  184.0647  156.6579 C   0  0  0  0  0  0  0  0  0  0  0  0
  197.1594  184.8475  157.7649 F   0  0  0  0  0  0  0  0  0  0  0  0
  197.6041  184.5834  155.4361 C   0  0  0  0  0  0  0  0  0  0  0  0
  197.6499  183.7624  154.2967 C   0  0  0  0  0  0  0  0  0  0  0  0
  196.1607  182.1391  158.0292 C   0  0  1  0  0  0  0  0  0  0  0  0
  194.7052  182.4083  158.1448 N   0  0  2  0  0  0  0  0  0  0  0  0
  194.4200  183.6992  158.8176 C   0  0  2  0  0  0  0  0  0  0  0  0
  193.9468  181.2935  158.7547 C   0  0  2  0  0  0  0  0  0  0  0  0
  196.4263  181.7580  152.2601 C   0  0  1  0  0  0  0  0  0  0  0  0
  197.0166  181.6706  150.8719 C   0  0  1  0  0  0  0  0  0  0  0  0
  197.1026  180.2221  150.4418 C   0  0  0  0  0  0  0  0  0  0  0  0
  196.5020  179.9173  149.4034 O   0  0  0  0  0  0  0  0  0  0  0  0
  199.3823  180.6684  154.4066 C   0  0  0  0  0  0  0  0  0  0  0  0
  200.4402  179.7730  154.5999 C   0  0  0  0  0  0  0  0  0  0  0  0
  200.6627  178.7859  153.6374 C   0  0  0  0  0  0  0  0  0  0  0  0
  199.8221  178.7060  152.5250 C   0  0  0  0  0  0  0  0  0  0  0  0
  201.3656  175.6161  148.2316 H   0  0  0  0  0  0  0  0  0  0  0  0
  199.4802  175.7954  149.8397 H   0  0  0  0  0  0  0  0  0  0  0  0
  199.2699  180.0500  148.9985 H   0  0  0  0  0  0  0  0  0  0  0  0
  201.0877  179.8490  147.4297 H   0  0  0  0  0  0  0  0  0  0  0  0
  197.1626  177.6722  149.9193 H   0  0  0  0  0  0  0  0  0  0  0  0
  198.1000  177.2220  151.2692 H   0  0  0  0  0  0  0  0  0  0  0  0
  196.4545  180.8646  155.6481 H   0  0  0  0  0  0  0  0  0  0  0  0
  197.9869  185.5925  155.3901 H   0  0  0  0  0  0  0  0  0  0  0  0
  198.0766  184.1310  153.3783 H   0  0  0  0  0  0  0  0  0  0  0  0
  196.3640  181.0620  158.0237 H   0  0  0  0  0  0  0  0  0  0  0  0
  196.7083  182.5216  158.8909 H   0  0  0  0  0  0  0  0  0  0  0  0
  194.7863  183.6740  159.8467 H   0  0  0  0  0  0  0  0  0  0  0  0
  193.3470  183.9152  158.8307 H   0  0  0  0  0  0  0  0  0  0  0  0
  194.8995  184.5307  158.3027 H   0  0  0  0  0  0  0  0  0  0  0  0
  194.3623  181.0352  159.7319 H   0  0  0  0  0  0  0  0  0  0  0  0
  193.9427  180.4144  158.1107 H   0  0  0  0  0  0  0  0  0  0  0  0
  192.8993  181.5658  158.8805 H   0  0  0  0  0  0  0  0  0  0  0  0
  195.6246  181.0299  152.3933 H   0  0  0  0  0  0  0  0  0  0  0  0
  195.9484  182.7416  152.3509 H   0  0  0  0  0  0  0  0  0  0  0  0
  196.3374  182.1758  150.1861 H   0  0  0  0  0  0  0  0  0  0  0  0
  197.9747  182.1798  150.7763 H   0  0  0  0  0  0  0  0  0  0  0  0
  199.2789  181.4157  155.1915 H   0  0  0  0  0  0  0  0  0  0  0  0
  201.0642  179.8467  155.4766 H   0  0  0  0  0  0  0  0  0  0  0  0
  201.4737  178.0831  153.7635 H   0  0  0  0  0  0  0  0  0  0  0  0
  200.0993  177.9209  151.8441 H   0  0  0  0  0  0  0  0  0  0  0  0
  194.3509  182.4941  157.1931 H   0  0  0  0  0  0  0  0  0  0  0  0
  1  2  1  0
  2  3  1  0
  2  7  2  0
  3  4  2  0
  3 32  1  0
  4  5  1  0
  4 33  1  0
  5  6  2  0
  5  8  1  0
  6  7  1  0
  6 34  1  0
  7 35  1  0
  8  9  1  0
  8 36  1  6
  8 37  1  0
  9 10  1  0
  9 26  1  0
 10 11  1  0
 10 31  2  0
 11 12  1  0
 11 28  2  0
 12 13  1  0
 12 24  1  0
 13 14  2  0
 13 19  1  0
 14 15  1  0
 14 38  1  0
 15 16  2  0
 15 20  1  0
 16 17  1  0
 16 18  1  0
 18 19  2  0
 18 39  1  0
 19 40  1  0
 20 21  1  0
 20 41  1  6
 20 42  1  0
 21 22  1  0
 21 23  1  0
 21 57  1  6
 22 43  1  1
 22 44  1  0
 22 45  1  0
 23 46  1  1
 23 47  1  0
 23 48  1  0
 24 25  1  0
 24 49  1  6
 24 50  1  0
 25 26  1  0
 25 51  1  6
 25 52  1  0
 26 27  2  0
 28 29  1  0
 28 53  1  0
 29 30  2  0
 29 54  1  0
 30 31  1  0
 30 55  1  0
 31 56  1  0
M  CHG  1  21   1
M  END
>  <s_epik_cmdline>  (1599) 
J2VwaWtfcHl0aG9uJywgJy1waCcsICc3LjAwMDAwMCcsICctcGh0JywgJzIuMDAwMDAwJywgJy1tcycsICcxNicsICctdG4nLCAnOCcsICctbWEnLCAnMjAwJywgJy1pbWFlJywgJzxpbmZpbGUubWFlPicsICctb21hZScsICc8b3V0ZmlsZS5tYWU+Jw==

>  <s_epik_input>  (1599) 
Q2xjMVtjSF1bY0hdYyhbY0hdW2NIXTEpW0NIMl1OMkMoPU8pW0NIMl1bQ0gyXU4oYyhjMjMpW2NIXVtjSF1bY0hdW2NIXTMpYzRbY0hdYyhjKEYpW2NIXVtjSF00KVtDSDJdTihbQ0gzXSlbQ0gzXQ==

>  <s_i_glide_gridfile>  (1599) 
ATP-Grid

>  <s_lp_Force_Field>  (1599) 
OPLS_2005

>  <s_lp_Variant>  (1599) 
rxn102b____EMOL44816020____EMOL42974869-1

>  <s_lp_label>  (1599) 
2761_sdstereoexpander_1_neutralizer_1_epik_1_stereoizer_1

>  <s_m_source_file>  (1599) 
ATP-VSW-LIGPREP-003-in.maegz

>  <s_sd_BIOSOLVEIT.INFINISEE\_QUERY\_NAME>  (1599) 
Ref-Lig

>  <s_sd_BIOSOLVEIT.INFINISEE\_QUERY\_SMILES>  (1599) 
S(c1nc2c(cc1C[NH2+]Cc3ccc(cc3)C[NH+](C)C)cccc2)Cc4ccccc4

>  <s_sd_BIOSOLVEIT.INFINISEE\_REACTION\_NAME>  (1599) 
rxn102b

>  <s_sd_BIOSOLVEIT.INFINISEE\_REAGENT1\_NAME>  (1599) 
EMOL44816020

>  <s_sd_BIOSOLVEIT.INFINISEE\_REAGENT1\_SMILES>  (1599) 
Brc1cc(c(F)cc1)CN(C)C

>  <s_sd_BIOSOLVEIT.INFINISEE\_REAGENT2\_NAME>  (1599) 
EMOL42974869

>  <s_sd_BIOSOLVEIT.INFINISEE\_REAGENT2\_SMILES>  (1599) 
Clc1ccc(cc1)CN2c3c(NCCC2=O)cccc3

>  <s_sd_BIOSOLVEIT.INFINISEE\_SPACE>  (1599) 
eXplore_7tr_2022-12

>  <s_vsw_compound_code>  (1599) 
88323

>  <s_vsw_variant>  (1599) 
88323-1

>  <r_epik_Charging_Adjusted_Penalty>  (1599) 
0.10105498330415

>  <r_epik_Ionization_Penalty>  (1599) 
0.050500000000000003

>  <r_epik_Ionization_Penalty_Charging>  (1599) 
0.050500000000000003

>  <r_epik_Ionization_Penalty_Neutral>  (1599) 
0

>  <r_epik_State_Penalty>  (1599) 
0.050500000000000003

>  <r_i_docking_score>  (1599) 
-3.59794683884504

>  <r_i_glide_ecoul>  (1599) 
-8.5750074386596697

>  <r_i_glide_eff_state_penalty>  (1599) 
0.050500000000000003

>  <r_i_glide_einternal>  (1599) 
2.25907182693481

>  <r_i_glide_emodel>  (1599) 
-46.9895459818391

>  <r_i_glide_energy>  (1599) 
-35.762148857116699

>  <r_i_glide_erotb>  (1599) 
0.414259372114687

>  <r_i_glide_esite>  (1599) 
-0.111108872544361

>  <r_i_glide_evdw>  (1599) 
-27.187141418456999

>  <r_i_glide_gscore>  (1599) 
-3.64844683884504

>  <r_i_glide_hbond>  (1599) 
-0.20000000000000001

>  <r_i_glide_ligand_efficiency>  (1599) 
-0.11606280125306601

>  <r_i_glide_ligand_efficiency_ln>  (1599) 
-0.81144727598798305

>  <r_i_glide_ligand_efficiency_sa>  (1599) 
-0.36459743790138799

>  <r_i_glide_lipo>  (1599) 
-0.42185831895688303

>  <r_i_glide_metal>  (1599) 
-0

>  <r_i_glide_rewards>  (1599) 
-0.68413083273668696

>  <r_lp_Energy>  (1599) 
37.374319999999997

>  <r_qp_ACxDN^.5/SA>  (1599) 
0

>  <r_qp_CIQPlogS>  (1599) 
-5.7240000000000002

>  <r_qp_EA(eV)>  (1599) 
0.49299999999999999

>  <r_qp_FISA>  (1599) 
33.808

>  <r_qp_FOSA>  (1599) 
233.262

>  <r_qp_IP(eV)>  (1599) 
8.3859999999999992

>  <r_qp_Jm>  (1599) 
0.052935277850406998

>  <r_qp_PISA>  (1599) 
300.52999999999997

>  <r_qp_PSA>  (1599) 
35.054000000000002

>  <r_qp_PercentHumanOralAbsorption>  (1599) 
100

>  <r_qp_QPPCaco>  (1599) 
1180.855

>  <r_qp_QPPMDCK>  (1599) 
1863.934

>  <r_qp_QPlogBB>  (1599) 
0.63500000000000001

>  <r_qp_QPlogHERG>  (1599) 
-5.601

>  <r_qp_QPlogKhsa>  (1599) 
0.72799999999999998

>  <r_qp_QPlogKp>  (1599) 
-2.762

>  <r_qp_QPlogPC16>  (1599) 
12.680999999999999

>  <r_qp_QPlogPo/w>  (1599) 
4.9539999999999997

>  <r_qp_QPlogPoct>  (1599) 
18.925999999999998

>  <r_qp_QPlogPw>  (1599) 
8.1229999999999993

>  <r_qp_QPlogS>  (1599) 
-4.1550000000000002

>  <r_qp_QPpolrz>  (1599) 
45.863

>  <r_qp_SASA>  (1599) 
650.50699999999995

>  <r_qp_SAamideO>  (1599) 
0

>  <r_qp_SAfluorine>  (1599) 
35.395000000000003

>  <r_qp_WPSA>  (1599) 
82.906999999999996

>  <r_qp_accptHB>  (1599) 
5.5

>  <r_qp_dip^2/V>  (1599) 
0.0306314

>  <r_qp_dipole>  (1599) 
6.2919999999999998

>  <r_qp_donorHB>  (1599) 
0

>  <r_qp_glob>  (1599) 
0.88201260000000004

>  <r_qp_mol_MW>  (1599) 
437.94299999999998

>  <r_qp_volume>  (1599) 
1292.239

>  <r_sd_BIOSOLVEIT.INFINISEE\_FTREES\_SIMILARITY>  (1599) 
0.90700000000000003

>  <r_sd_BIOSOLVEIT.LOGP>  (1599) 
4.1985999999999999

>  <r_sd_BIOSOLVEIT.MOLECULAR\_WEIGHT>  (1599) 
438.95100000000002

>  <r_sd_BIOSOLVEIT.TPSA>  (1599) 
27.989999999999998

>  <i_epik_Tot_Q>  (1599) 
1

>  <i_epik_Tot_abs_Q>  (1599) 
1

>  <i_f3d_flags>  (1599) 
0

>  <i_i_glide_confnum>  (1599) 
4

>  <i_i_glide_lignum>  (1599) 
1315

>  <i_i_glide_posenum>  (1599) 
7

>  <i_i_glide_rotatable_bonds>  (1599) 
5

>  <i_lp_mmshare_version>  (1599) 
65135

>  <i_m_ct_format>  (1599) 
2

>  <i_m_source_file_index>  (1599) 
2761

>  <i_qp_#NandO>  (1599) 
4

>  <i_qp_#acid>  (1599) 
0

>  <i_qp_#amide>  (1599) 
0

>  <i_qp_#amidine>  (1599) 
0

>  <i_qp_#amine>  (1599) 
1

>  <i_qp_#in34>  (1599) 
0

>  <i_qp_#in56>  (1599) 
18

>  <i_qp_#metab>  (1599) 
6

>  <i_qp_#nonHatm>  (1599) 
31

>  <i_qp_#noncon>  (1599) 
2

>  <i_qp_#ringatoms>  (1599) 
23

>  <i_qp_#rotor>  (1599) 
4

>  <i_qp_#rtvFG>  (1599) 
0

>  <i_qp_#stars>  (1599) 
0

>  <i_qp_CNS>  (1599) 
2

>  <i_qp_HumanOralAbsorption>  (1599) 
3

>  <i_qp_RuleOfFive>  (1599) 
0

>  <i_qp_RuleOfThree>  (1599) 
0

>  <i_sd_BIOSOLVEIT.INFINISEE\_RESULT\_RANK>  (1599) 
59322

>  <i_sd_version>  (1599) 
0

>  <b_lp_Chiralities_Consistent>  (1599) 
1

>  <b_sd_chiral_flag>  (1599) 
0

>  <canonical_id>  (1599) 
ATP-HTVS-FB368C7A9127

>  <compound_code>  (1599) 
88323

>  <title>  (1599) 
rxn102b____EMOL44816020____EMOL42974869

>  <variant>  (1599) 
88323-1

>  <source_file>  (1599) 
运行/运行/ATP-VSW/ATP-VSW-DOCK_HTVS_1-003_lib/ATP-VSW-DOCK_HTVS_1-003_lib.mae

>  <canonical_smiles>  (1599) 
C[NH+](C)Cc1cc(N2CCC(=O)N(Cc3ccc(Cl)cc3)c3ccccc32)ccc1F

>  <scaffold>  (1599) 
O=C1CCN(c2ccccc2)c2ccccc2N1Cc1ccccc1

>  <molecular_formula>  (1599) 
C25H26ClFN3O+

$$$$
ATP-HTVS-FBBE5B904E6C
     RDKit          3D

 63 66  0  0  0  0  0  0  0  0999 V2000
  199.6978  185.3530  152.1998 S   0  0  0  0  0  0  0  0  0  0  0  0
  198.9233  185.2318  150.6173 C   0  0  0  0  0  0  0  0  0  0  0  0
  197.5779  184.8223  150.4998 C   0  0  0  0  0  0  0  0  0  0  0  0
  196.9780  184.7352  149.2309 C   0  0  0  0  0  0  0  0  0  0  0  0
  197.7180  185.0368  148.0725 C   0  0  0  0  0  0  0  0  0  0  0  0
  199.0679  185.4274  148.1841 C   0  0  0  0  0  0  0  0  0  0  0  0
  199.6721  185.5245  149.4569 C   0  0  0  0  0  0  0  0  0  0  0  0
  198.4096  185.6175  153.4571 C   0  0  1  0  0  0  0  0  0  0  0  0
  198.9258  185.3966  154.8911 C   0  0  1  0  0  0  0  0  0  0  0  0
  197.8358  185.7597  155.7860 N   0  0  0  0  0  0  0  0  0  0  0  0
  198.3037  186.1917  157.1018 C   0  0  1  0  0  0  0  0  0  0  0  0
  197.2657  186.0735  158.2009 C   0  0  0  0  0  0  0  0  0  0  0  0
  196.2747  185.0456  158.1322 C   0  0  0  0  0  0  0  0  0  0  0  0
  195.3150  184.9066  159.1340 C   0  0  0  0  0  0  0  0  0  0  0  0
  195.3214  185.7962  160.2355 C   0  0  0  0  0  0  0  0  0  0  0  0
  196.2973  186.8131  160.3165 C   0  0  0  0  0  0  0  0  0  0  0  0
  197.2735  186.9434  159.3136 C   0  0  0  0  0  0  0  0  0  0  0  0
  194.2637  183.7964  159.0332 C   0  0  1  0  0  0  0  0  0  0  0  0
  194.6860  182.6198  158.2284 N   0  0  1  0  0  0  0  0  0  0  0  0
  195.9933  182.0457  158.6253 C   0  0  2  0  0  0  0  0  0  0  0  0
  193.6431  181.5714  158.1702 C   0  0  2  0  0  0  0  0  0  0  0  0
  199.4134  183.9776  155.0990 C   0  0  0  0  0  0  0  0  0  0  0  0
  198.6346  182.8331  155.2606 N   0  0  0  0  0  0  0  0  0  0  0  0
  199.3580  181.7356  155.4287 C   0  0  0  0  0  0  0  0  0  0  0  0
  200.6345  182.0932  155.3557 N   0  0  0  0  0  0  0  0  0  0  0  0
  200.7003  183.4727  155.1335 C   0  0  0  0  0  0  0  0  0  0  0  0
  201.9568  184.2662  154.9504 C   0  0  2  0  0  0  0  0  0  0  0  0
  198.8338  180.4690  155.6500 C   0  0  0  0  0  0  0  0  0  0  0  0
  197.4610  180.3710  155.6907 C   0  0  0  0  0  0  0  0  0  0  0  0
  196.6595  181.5246  155.4803 C   0  0  0  0  0  0  0  0  0  0  0  0
  197.2574  182.7553  155.2627 C   0  0  0  0  0  0  0  0  0  0  0  0
  197.2325  186.4552  155.3634 H   0  0  0  0  0  0  0  0  0  0  0  0
  196.9865  184.5603  151.3686 H   0  0  0  0  0  0  0  0  0  0  0  0
  195.9459  184.4315  149.1521 H   0  0  0  0  0  0  0  0  0  0  0  0
  197.2418  184.9725  147.1043 H   0  0  0  0  0  0  0  0  0  0  0  0
  199.6402  185.6518  147.2929 H   0  0  0  0  0  0  0  0  0  0  0  0
  200.7085  185.8186  149.5345 H   0  0  0  0  0  0  0  0  0  0  0  0
  198.0331  186.6342  153.3226 H   0  0  0  0  0  0  0  0  0  0  0  0
  197.5713  184.9384  153.2796 H   0  0  0  0  0  0  0  0  0  0  0  0
  199.7497  186.0918  155.0498 H   0  0  0  0  0  0  0  0  0  0  0  0
  199.1526  185.5737  157.4005 H   0  0  0  0  0  0  0  0  0  0  0  0
  198.6662  187.2182  157.0159 H   0  0  0  0  0  0  0  0  0  0  0  0
  196.2626  184.4082  157.2761 H   0  0  0  0  0  0  0  0  0  0  0  0
  194.5744  185.7006  161.0218 H   0  0  0  0  0  0  0  0  0  0  0  0
  196.3130  187.4797  161.1700 H   0  0  0  0  0  0  0  0  0  0  0  0
  198.0388  187.7072  159.3902 H   0  0  0  0  0  0  0  0  0  0  0  0
  194.0362  183.4688  160.0480 H   0  0  0  0  0  0  0  0  0  0  0  0
  193.3406  184.2196  158.6245 H   0  0  0  0  0  0  0  0  0  0  0  0
  195.9674  181.6838  159.6626 H   0  0  0  0  0  0  0  0  0  0  0  0
  196.8065  182.7823  158.4968 H   0  0  0  0  0  0  0  0  0  0  0  0
  196.2352  181.1627  158.0215 H   0  0  0  0  0  0  0  0  0  0  0  0
  193.4949  181.1104  159.1435 H   0  0  0  0  0  0  0  0  0  0  0  0
  193.9347  180.7867  157.4736 H   0  0  0  0  0  0  0  0  0  0  0  0
  192.6942  181.9708  157.8186 H   0  0  0  0  0  0  0  0  0  0  0  0
  202.2022  184.8248  155.8544 H   0  0  0  0  0  0  0  0  0  0  0  0
  201.8755  184.9808  154.1287 H   0  0  0  0  0  0  0  0  0  0  0  0
  202.8049  183.6166  154.7229 H   0  0  0  0  0  0  0  0  0  0  0  0
  199.4875  179.6172  155.8175 H   0  0  0  0  0  0  0  0  0  0  0  0
  196.9966  179.4157  155.9126 H   0  0  0  0  0  0  0  0  0  0  0  0
  195.5805  181.4572  155.5084 H   0  0  0  0  0  0  0  0  0  0  0  0
  196.6936  183.6706  155.1129 H   0  0  0  0  0  0  0  0  0  0  0  0
  194.7318  182.9372  157.2771 H   0  0  0  0  0  0  0  0  0  0  0  0
  201.4293  181.4695  155.4228 H   0  0  0  0  0  0  0  0  0  0  0  0
  1  2  1  0
  1  8  1  0
  2  3  2  0
  2  7  1  0
  3  4  1  0
  3 33  1  0
  4  5  2  0
  4 34  1  0
  5  6  1  0
  5 35  1  0
  6  7  2  0
  6 36  1  0
  7 37  1  0
  8  9  1  0
  8 38  1  1
  8 39  1  0
  9 10  1  0
  9 22  1  0
  9 40  1  1
 10 11  1  0
 10 32  1  0
 11 12  1  0
 11 41  1  1
 11 42  1  0
 12 13  2  0
 12 17  1  0
 13 14  1  0
 13 43  1  0
 14 15  2  0
 14 18  1  0
 15 16  1  0
 15 44  1  0
 16 17  2  0
 16 45  1  0
 17 46  1  0
 18 19  1  0
 18 47  1  1
 18 48  1  0
 19 20  1  0
 19 21  1  0
 19 62  1  6
 20 49  1  1
 20 50  1  0
 20 51  1  0
 21 52  1  1
 21 53  1  0
 21 54  1  0
 22 23  1  0
 22 26  2  0
 23 24  1  0
 23 31  1  0
 24 25  2  0
 24 28  1  0
 25 26  1  0
 25 63  1  0
 26 27  1  0
 27 55  1  1
 27 56  1  0
 27 57  1  0
 28 29  2  0
 28 58  1  0
 29 30  1  0
 29 59  1  0
 30 31  2  0
 30 60  1  0
 31 61  1  0
M  CHG  2  19   1  25   1
M  END
>  <s_epik_cmdline>  (1600) 
J2VwaWtfcHl0aG9uJywgJy1waCcsICc3LjAwMDAwMCcsICctcGh0JywgJzIuMDAwMDAwJywgJy1tcycsICcxNicsICctdG4nLCAnOCcsICctbWEnLCAnMjAwJywgJy1pbWFlJywgJzxpbmZpbGUubWFlPicsICctb21hZScsICc8b3V0ZmlsZS5tYWU+Jw==

>  <s_epik_input>  (1600) 
W2NIXTFbY0hdW2NIXVtjSF1bY0hdYzFTW0NIMl1bQ0BASF0oW05IXVtDSDJdYzJbY0hdYyhbY0hdW2NIXVtjSF0yKVtDSDJdTihbQ0gzXSlbQ0gzXSljM2MoW0NIM10pbmMobjM0KVtjSF1bY0hdW2NIXVtjSF00

>  <s_i_glide_gridfile>  (1600) 
ATP-Grid

>  <s_lp_Force_Field>  (1600) 
OPLS_2005

>  <s_lp_Variant>  (1600) 
rxn207____EMOL36800047____EMOL2873214-6

>  <s_lp_label>  (1600) 
2146_sdstereoexpander_2_neutralizer_1_epik_3_stereoizer_1

>  <s_m_source_file>  (1600) 
ATP-VSW-LIGPREP-003-in.maegz

>  <s_sd_BIOSOLVEIT.INFINISEE\_QUERY\_NAME>  (1600) 
Ref-Lig

>  <s_sd_BIOSOLVEIT.INFINISEE\_QUERY\_SMILES>  (1600) 
S(c1nc2c(cc1C[NH2+]Cc3ccc(cc3)C[NH+](C)C)cccc2)Cc4ccccc4

>  <s_sd_BIOSOLVEIT.INFINISEE\_REACTION\_NAME>  (1600) 
rxn207

>  <s_sd_BIOSOLVEIT.INFINISEE\_REAGENT1\_NAME>  (1600) 
EMOL36800047

>  <s_sd_BIOSOLVEIT.INFINISEE\_REAGENT1\_SMILES>  (1600) 
S(c1ccccc1)CC(=O)C=2N3C(=NC2C)C=CC=C3

>  <s_sd_BIOSOLVEIT.INFINISEE\_REAGENT2\_NAME>  (1600) 
EMOL2873214

>  <s_sd_BIOSOLVEIT.INFINISEE\_REAGENT2\_SMILES>  (1600) 
N(Cc1cc(ccc1)CN)(C)C

>  <s_sd_BIOSOLVEIT.INFINISEE\_SPACE>  (1600) 
eXplore_7tr_2022-12

>  <s_vsw_compound_code>  (1600) 
68643

>  <s_vsw_variant>  (1600) 
68643-6

>  <r_epik_Charging_Adjusted_Penalty>  (1600) 
0.814307312552359

>  <r_epik_Ionization_Penalty>  (1600) 
0.39950000000000002

>  <r_epik_Ionization_Penalty_Charging>  (1600) 
0.045199999999999997

>  <r_epik_Ionization_Penalty_Neutral>  (1600) 
0.35439999999999999

>  <r_epik_State_Penalty>  (1600) 
0.76910000000000001

>  <r_i_docking_score>  (1600) 
-4.8482182831465197

>  <r_i_glide_ecoul>  (1600) 
-14.253514289856

>  <r_i_glide_eff_state_penalty>  (1600) 
0.76910000000000001

>  <r_i_glide_einternal>  (1600) 
7.3714613914489702

>  <r_i_glide_emodel>  (1600) 
-69.710040941364198

>  <r_i_glide_energy>  (1600) 
-46.988308906555197

>  <r_i_glide_erotb>  (1600) 
0.74427052355849699

>  <r_i_glide_esite>  (1600) 
-0.098459651220212496

>  <r_i_glide_evdw>  (1600) 
-32.734794616699197

>  <r_i_glide_gscore>  (1600) 
-5.6173182831465196

>  <r_i_glide_hbond>  (1600) 
-0.155515579839962

>  <r_i_glide_ligand_efficiency>  (1600) 
-0.15639413816601699

>  <r_i_glide_ligand_efficiency_ln>  (1600) 
-1.09342180289613

>  <r_i_glide_ligand_efficiency_sa>  (1600) 
-0.49129351921978598

>  <r_i_glide_lipo>  (1600) 
-1.8734722467860301

>  <r_i_glide_metal>  (1600) 
-0

>  <r_i_glide_rewards>  (1600) 
-0.459374454545453

>  <r_lp_Energy>  (1600) 
28.310423

>  <r_qp_ACxDN^.5/SA>  (1600) 
0.0080663999999999996

>  <r_qp_CIQPlogS>  (1600) 
-4.9359999999999999

>  <r_qp_EA(eV)>  (1600) 
0.51700000000000002

>  <r_qp_FISA>  (1600) 
33.795000000000002

>  <r_qp_FOSA>  (1600) 
298.86799999999999

>  <r_qp_IP(eV)>  (1600) 
8.6539999999999999

>  <r_qp_Jm>  (1600) 
0.0272454599032869

>  <r_qp_PISA>  (1600) 
315.36200000000002

>  <r_qp_PSA>  (1600) 
32.277000000000001

>  <r_qp_PercentHumanOralAbsorption>  (1600) 
100

>  <r_qp_QPPCaco>  (1600) 
294.59199999999998

>  <r_qp_QPPMDCK>  (1600) 
247.54599999999999

>  <r_qp_QPlogBB>  (1600) 
0.59999999999999998

>  <r_qp_QPlogHERG>  (1600) 
-6.681

>  <r_qp_QPlogKhsa>  (1600) 
0.83599999999999997

>  <r_qp_QPlogKp>  (1600) 
-4.2930000000000001

>  <r_qp_QPlogPC16>  (1600) 
13.590999999999999

>  <r_qp_QPlogPo/w>  (1600) 
4.6639999999999997

>  <r_qp_QPlogPoct>  (1600) 
19.564

>  <r_qp_QPlogPw>  (1600) 
8.6440000000000001

>  <r_qp_QPlogS>  (1600) 
-2.9060000000000001

>  <r_qp_QPpolrz>  (1600) 
44.932000000000002

>  <r_qp_SASA>  (1600) 
681.84299999999996

>  <r_qp_SAamideO>  (1600) 
0

>  <r_qp_SAfluorine>  (1600) 
0

>  <r_qp_WPSA>  (1600) 
33.817999999999998

>  <r_qp_accptHB>  (1600) 
5.5

>  <r_qp_dip^2/V>  (1600) 
0.026038599999999999

>  <r_qp_dipole>  (1600) 
5.9189999999999996

>  <r_qp_donorHB>  (1600) 
1

>  <r_qp_glob>  (1600) 
0.86451500000000003

>  <r_qp_mol_MW>  (1600) 
430.61000000000001

>  <r_qp_volume>  (1600) 
1345.6690000000001

>  <r_sd_BIOSOLVEIT.INFINISEE\_FTREES\_SIMILARITY>  (1600) 
0.95499999999999996

>  <r_sd_BIOSOLVEIT.LOGP>  (1600) 
2.88422

>  <r_sd_BIOSOLVEIT.MOLECULAR\_WEIGHT>  (1600) 
432.63200000000001

>  <r_sd_BIOSOLVEIT.TPSA>  (1600) 
38.869999999999997

>  <i_epik_Tot_Q>  (1600) 
2

>  <i_epik_Tot_abs_Q>  (1600) 
2

>  <i_f3d_flags>  (1600) 
0

>  <i_i_glide_confnum>  (1600) 
5

>  <i_i_glide_lignum>  (1600) 
801

>  <i_i_glide_posenum>  (1600) 
5

>  <i_i_glide_rotatable_bonds>  (1600) 
9

>  <i_lp_mmshare_version>  (1600) 
65135

>  <i_m_ct_format>  (1600) 
2

>  <i_m_source_file_index>  (1600) 
2146

>  <i_qp_#NandO>  (1600) 
4

>  <i_qp_#acid>  (1600) 
0

>  <i_qp_#amide>  (1600) 
0

>  <i_qp_#amidine>  (1600) 
0

>  <i_qp_#amine>  (1600) 
2

>  <i_qp_#in34>  (1600) 
0

>  <i_qp_#in56>  (1600) 
21

>  <i_qp_#metab>  (1600) 
6

>  <i_qp_#nonHatm>  (1600) 
31

>  <i_qp_#noncon>  (1600) 
0

>  <i_qp_#ringatoms>  (1600) 
21

>  <i_qp_#rotor>  (1600) 
9

>  <i_qp_#rtvFG>  (1600) 
0

>  <i_qp_#stars>  (1600) 
0

>  <i_qp_CNS>  (1600) 
2

>  <i_qp_HumanOralAbsorption>  (1600) 
3

>  <i_qp_RuleOfFive>  (1600) 
0

>  <i_qp_RuleOfThree>  (1600) 
0

>  <i_sd_BIOSOLVEIT.INFINISEE\_RESULT\_RANK>  (1600) 
75

>  <i_sd_version>  (1600) 
0

>  <b_lp_Chiralities_Consistent>  (1600) 
1

>  <b_sd_chiral_flag>  (1600) 
0

>  <canonical_id>  (1600) 
ATP-HTVS-FBBE5B904E6C

>  <compound_code>  (1600) 
68643

>  <title>  (1600) 
rxn207____EMOL36800047____EMOL2873214

>  <variant>  (1600) 
68643-6

>  <source_file>  (1600) 
运行/运行/ATP-VSW/ATP-VSW-DOCK_HTVS_1-003_lib/ATP-VSW-DOCK_HTVS_1-003_lib.mae

>  <canonical_smiles>  (1600) 
Cc1[nH+]c2ccccn2c1[C@@H](CSc1ccccc1)NCc1cccc(C[NH+](C)C)c1

>  <scaffold>  (1600) 
c1ccc(CNC(CSc2ccccc2)c2c[nH+]c3ccccn23)cc1

>  <molecular_formula>  (1600) 
C26H32N4S+2

$$$$
ATP-HTVS-FBE624773B31
     RDKit          3D

 59 62  0  0  0  0  0  0  0  0999 V2000
  199.3841  182.2247  156.7485 O   0  0  0  0  0  0  0  0  0  0  0  0
  198.1659  182.2916  156.5695 C   0  0  0  0  0  0  0  0  0  0  0  0
  197.5589  181.8261  155.4661 N   0  0  0  0  0  0  0  0  0  0  0  0
  198.2512  181.2631  154.3577 C   0  0  0  0  0  0  0  0  0  0  0  0
  198.4128  182.0201  153.1644 C   0  0  0  0  0  0  0  0  0  0  0  0
  197.9735  183.3552  153.0479 N   0  0  0  0  0  0  0  0  0  0  0  0
  198.7952  184.4927  152.8076 C   0  0  0  0  0  0  0  0  0  0  0  0
  198.2930  185.8167  152.9266 C   0  0  0  0  0  0  0  0  0  0  0  0
  199.1238  186.9360  152.7072 C   0  0  0  0  0  0  0  0  0  0  0  0
  200.4738  186.7637  152.3562 C   0  0  0  0  0  0  0  0  0  0  0  0
  200.9908  185.4629  152.2290 C   0  0  0  0  0  0  0  0  0  0  0  0
  200.1681  184.3436  152.4726 C   0  0  0  0  0  0  0  0  0  0  0  0
  196.5151  183.5066  153.0068 C   0  0  1  0  0  0  0  0  0  0  0  0
  196.0264  183.6949  151.6313 C   0  0  0  0  0  0  0  0  0  0  0  0
  195.6470  183.8362  150.5453 N   0  0  0  0  0  0  0  0  0  0  0  0
  199.0693  181.3906  152.0836 C   0  0  0  0  0  0  0  0  0  0  0  0
  199.5883  180.1510  152.1394 N   0  0  0  0  0  0  0  0  0  0  0  0
  199.4822  179.4404  153.2812 C   0  0  0  0  0  0  0  0  0  0  0  0
  198.8017  179.9505  154.4233 C   0  0  0  0  0  0  0  0  0  0  0  0
  198.6990  179.1489  155.5874 C   0  0  0  0  0  0  0  0  0  0  0  0
  199.2753  177.8678  155.6271 C   0  0  0  0  0  0  0  0  0  0  0  0
  199.9555  177.3638  154.5053 C   0  0  0  0  0  0  0  0  0  0  0  0
  200.0529  178.1507  153.3430 C   0  0  0  0  0  0  0  0  0  0  0  0
  197.2639  182.9289  157.5957 C   0  0  0  0  0  0  0  0  0  0  0  0
  197.6298  184.1063  158.3178 C   0  0  0  0  0  0  0  0  0  0  0  0
  196.7283  184.6499  159.2629 C   0  0  0  0  0  0  0  0  0  0  0  0
  195.4864  184.0387  159.5093 C   0  0  0  0  0  0  0  0  0  0  0  0
  195.1377  182.8653  158.8220 C   0  0  0  0  0  0  0  0  0  0  0  0
  196.0215  182.3209  157.8741 C   0  0  0  0  0  0  0  0  0  0  0  0
  198.9500  184.8456  158.0927 C   0  0  1  0  0  0  0  0  0  0  0  0
  200.1272  184.0920  158.5897 N   0  0  2  0  0  0  0  0  0  0  0  0
  200.1766  183.9483  160.0598 C   0  0  2  0  0  0  0  0  0  0  0  0
  201.4000  184.5948  158.0311 C   0  0  2  0  0  0  0  0  0  0  0  0
  196.5605  181.9487  155.3804 H   0  0  0  0  0  0  0  0  0  0  0  0
  197.2683  186.0243  153.2011 H   0  0  0  0  0  0  0  0  0  0  0  0
  198.7157  187.9299  152.8239 H   0  0  0  0  0  0  0  0  0  0  0  0
  201.1116  187.6227  152.1928 H   0  0  0  0  0  0  0  0  0  0  0  0
  202.0240  185.3135  151.9580 H   0  0  0  0  0  0  0  0  0  0  0  0
  200.6370  183.3754  152.3801 H   0  0  0  0  0  0  0  0  0  0  0  0
  196.0043  182.6226  153.3981 H   0  0  0  0  0  0  0  0  0  0  0  0
  196.1913  184.3380  153.6285 H   0  0  0  0  0  0  0  0  0  0  0  0
  199.2044  181.9113  151.1494 H   0  0  0  0  0  0  0  0  0  0  0  0
  198.1656  179.4779  156.4677 H   0  0  0  0  0  0  0  0  0  0  0  0
  199.1760  177.2771  156.5284 H   0  0  0  0  0  0  0  0  0  0  0  0
  200.3899  176.3742  154.5353 H   0  0  0  0  0  0  0  0  0  0  0  0
  200.5668  177.7592  152.4776 H   0  0  0  0  0  0  0  0  0  0  0  0
  196.9752  185.5602  159.7957 H   0  0  0  0  0  0  0  0  0  0  0  0
  194.7967  184.4743  160.2144 H   0  0  0  0  0  0  0  0  0  0  0  0
  194.1882  182.3835  159.0037 H   0  0  0  0  0  0  0  0  0  0  0  0
  195.7229  181.4181  157.3600 H   0  0  0  0  0  0  0  0  0  0  0  0
  199.0450  185.0307  157.0201 H   0  0  0  0  0  0  0  0  0  0  0  0
  198.9252  185.8300  158.5702 H   0  0  0  0  0  0  0  0  0  0  0  0
  200.2628  184.9243  160.5341 H   0  0  0  0  0  0  0  0  0  0  0  0
  201.0342  183.3542  160.3699 H   0  0  0  0  0  0  0  0  0  0  0  0
  199.2879  183.4403  160.4326 H   0  0  0  0  0  0  0  0  0  0  0  0
  201.6057  185.6159  158.3590 H   0  0  0  0  0  0  0  0  0  0  0  0
  201.3670  184.5829  156.9398 H   0  0  0  0  0  0  0  0  0  0  0  0
  202.2329  183.9595  158.3363 H   0  0  0  0  0  0  0  0  0  0  0  0
  200.0081  183.1654  158.1908 H   0  0  0  0  0  0  0  0  0  0  0  0
  1  2  2  0
  2  3  1  0
  2 24  1  0
  3  4  1  0
  3 34  1  0
  4  5  2  0
  4 19  1  0
  5  6  1  0
  5 16  1  0
  6  7  1  0
  6 13  1  0
  7  8  2  0
  7 12  1  0
  8  9  1  0
  8 35  1  0
  9 10  2  0
  9 36  1  0
 10 11  1  0
 10 37  1  0
 11 12  2  0
 11 38  1  0
 12 39  1  0
 13 14  1  0
 13 40  1  1
 13 41  1  0
 14 15  3  0
 16 17  2  0
 16 42  1  0
 17 18  1  0
 18 19  1  0
 18 23  2  0
 19 20  2  0
 20 21  1  0
 20 43  1  0
 21 22  2  0
 21 44  1  0
 22 23  1  0
 22 45  1  0
 23 46  1  0
 24 25  1  0
 24 29  2  0
 25 26  2  0
 25 30  1  0
 26 27  1  0
 26 47  1  0
 27 28  2  0
 27 48  1  0
 28 29  1  0
 28 49  1  0
 29 50  1  0
 30 31  1  0
 30 51  1  6
 30 52  1  0
 31 32  1  0
 31 33  1  0
 31 59  1  6
 32 53  1  1
 32 54  1  0
 32 55  1  0
 33 56  1  1
 33 57  1  0
 33 58  1  0
M  CHG  1  31   1
M  END
>  <s_epik_cmdline>  (1601) 
J2VwaWtfcHl0aG9uJywgJy1waCcsICc3LjAwMDAwMCcsICctcGh0JywgJzIuMDAwMDAwJywgJy1tcycsICcxNicsICctdG4nLCAnOCcsICctbWEnLCAnMjAwJywgJy1pbWFlJywgJzxpbmZpbGUubWFlPicsICctb21hZScsICc8b3V0ZmlsZS5tYWU+Jw==

>  <s_epik_input>  (1601) 
W2NIXTFbY0hdW2NIXVtjSF1jKFtDSDJdTihbQ0gzXSlbQ0gzXSljMUMoPU8pW05IXWMoYyhjMjMpW2NIXVtjSF1bY0hdW2NIXTMpYyhbY0hdbjIpTihbQ0gyXUMjTiljNFtjSF1bY0hdW2NIXVtjSF1bY0hdNA==

>  <s_i_glide_gridfile>  (1601) 
ATP-Grid

>  <s_lp_Force_Field>  (1601) 
OPLS_2005

>  <s_lp_Variant>  (1601) 
rxn502b____EMOL5415347____EMOL13728749____EMOL712348-1

>  <s_lp_label>  (1601) 
2181_sdstereoexpander_1_neutralizer_1_epik_1_stereoizer_1

>  <s_m_source_file>  (1601) 
ATP-VSW-LIGPREP-001-in.maegz

>  <s_sd_BIOSOLVEIT.INFINISEE\_QUERY\_NAME>  (1601) 
Ref-Lig

>  <s_sd_BIOSOLVEIT.INFINISEE\_QUERY\_SMILES>  (1601) 
S(c1nc2c(cc1C[NH2+]Cc3ccc(cc3)C[NH+](C)C)cccc2)Cc4ccccc4

>  <s_sd_BIOSOLVEIT.INFINISEE\_REACTION\_NAME>  (1601) 
rxn502b

>  <s_sd_BIOSOLVEIT.INFINISEE\_REAGENT1\_NAME>  (1601) 
EMOL5415347

>  <s_sd_BIOSOLVEIT.INFINISEE\_REAGENT1\_SMILES>  (1601) 
O=C(O)c1c(cccc1)CN(C)C

>  <s_sd_BIOSOLVEIT.INFINISEE\_REAGENT2\_NAME>  (1601) 
EMOL13728749

>  <s_sd_BIOSOLVEIT.INFINISEE\_REAGENT2\_SMILES>  (1601) 
Brc1c(N)c2c(nc1)cccc2

>  <s_sd_BIOSOLVEIT.INFINISEE\_REAGENT3\_NAME>  (1601) 
EMOL712348

>  <s_sd_BIOSOLVEIT.INFINISEE\_REAGENT3\_SMILES>  (1601) 
N#CCNc1ccccc1

>  <s_sd_BIOSOLVEIT.INFINISEE\_SPACE>  (1601) 
eXplore_7tr_2022-12

>  <s_vsw_compound_code>  (1601) 
69761

>  <s_vsw_variant>  (1601) 
69761-1

>  <r_epik_Charging_Adjusted_Penalty>  (1601) 
0.121288123437681

>  <r_epik_Ionization_Penalty>  (1601) 
0.063500000000000001

>  <r_epik_Ionization_Penalty_Charging>  (1601) 
0.060600000000000001

>  <r_epik_Ionization_Penalty_Neutral>  (1601) 
0.0028

>  <r_epik_State_Penalty>  (1601) 
0.060600000000000001

>  <r_i_docking_score>  (1601) 
-3.4399363541087

>  <r_i_glide_ecoul>  (1601) 
-8.0060100555419904

>  <r_i_glide_eff_state_penalty>  (1601) 
0.060600000000000001

>  <r_i_glide_einternal>  (1601) 
4.00626516342163

>  <r_i_glide_emodel>  (1601) 
-48.519989946473302

>  <r_i_glide_energy>  (1601) 
-38.343570709228501

>  <r_i_glide_erotb>  (1601) 
0.62764258793180805

>  <r_i_glide_esite>  (1601) 
-0.10967485360667401

>  <r_i_glide_evdw>  (1601) 
-30.337560653686499

>  <r_i_glide_gscore>  (1601) 
-3.5005363541087

>  <r_i_glide_hbond>  (1601) 
-0.19655220323570199

>  <r_i_glide_ligand_efficiency>  (1601) 
-0.104240495579052

>  <r_i_glide_ligand_efficiency_ln>  (1601) 
-0.76502403411655995

>  <r_i_glide_ligand_efficiency_sa>  (1601) 
-0.33435496775589502

>  <r_i_glide_lipo>  (1601) 
-0.671410344182509

>  <r_i_glide_metal>  (1601) 
-0

>  <r_i_glide_rewards>  (1601) 
-0.43276199999999898

>  <r_lp_Energy>  (1601) 
38.696537999999997

>  <r_qp_ACxDN^.5/SA>  (1601) 
0.010638699999999999

>  <r_qp_CIQPlogS>  (1601) 
-6.3300000000000001

>  <r_qp_EA(eV)>  (1601) 
1.242

>  <r_qp_FISA>  (1601) 
58.341999999999999

>  <r_qp_FOSA>  (1601) 
189.74600000000001

>  <r_qp_IP(eV)>  (1601) 
8.4420000000000002

>  <r_qp_Jm>  (1601) 
0.037136672577780201

>  <r_qp_PISA>  (1601) 
456.887

>  <r_qp_PSA>  (1601) 
67.677000000000007

>  <r_qp_PercentHumanOralAbsorption>  (1601) 
100

>  <r_qp_QPPCaco>  (1601) 
691.10299999999995

>  <r_qp_QPPMDCK>  (1601) 
367.108

>  <r_qp_QPlogBB>  (1601) 
-0.072999999999999995

>  <r_qp_QPlogHERG>  (1601) 
-7.0460000000000003

>  <r_qp_QPlogKhsa>  (1601) 
0.47399999999999998

>  <r_qp_QPlogKp>  (1601) 
-2.2799999999999998

>  <r_qp_QPlogPC16>  (1601) 
14.593

>  <r_qp_QPlogPo/w>  (1601) 
4.2389999999999999

>  <r_qp_QPlogPoct>  (1601) 
21.742999999999999

>  <r_qp_QPlogPw>  (1601) 
12.007999999999999

>  <r_qp_QPlogS>  (1601) 
-4.7889999999999997

>  <r_qp_QPpolrz>  (1601) 
47.177999999999997

>  <r_qp_SASA>  (1601) 
704.97500000000002

>  <r_qp_SAamideO>  (1601) 
0

>  <r_qp_SAfluorine>  (1601) 
0

>  <r_qp_WPSA>  (1601) 
0

>  <r_qp_accptHB>  (1601) 
7.5

>  <r_qp_dip^2/V>  (1601) 
0.040462600000000001

>  <r_qp_dipole>  (1601) 
7.3959999999999999

>  <r_qp_donorHB>  (1601) 
1

>  <r_qp_glob>  (1601) 
0.83874919999999997

>  <r_qp_mol_MW>  (1601) 
435.52699999999999

>  <r_qp_volume>  (1601) 
1351.953

>  <r_sd_BIOSOLVEIT.INFINISEE\_FTREES\_SIMILARITY>  (1601) 
0.93700000000000006

>  <r_sd_BIOSOLVEIT.LOGP>  (1601) 
3.7932800000000002

>  <r_sd_BIOSOLVEIT.MOLECULAR\_WEIGHT>  (1601) 
436.536

>  <r_sd_BIOSOLVEIT.TPSA>  (1601) 
73.459999999999994

>  <i_epik_Tot_Q>  (1601) 
1

>  <i_epik_Tot_abs_Q>  (1601) 
1

>  <i_f3d_flags>  (1601) 
0

>  <i_i_glide_confnum>  (1601) 
1

>  <i_i_glide_lignum>  (1601) 
695

>  <i_i_glide_posenum>  (1601) 
20

>  <i_i_glide_rotatable_bonds>  (1601) 
8

>  <i_lp_mmshare_version>  (1601) 
65135

>  <i_m_ct_format>  (1601) 
2

>  <i_m_source_file_index>  (1601) 
2181

>  <i_qp_#NandO>  (1601) 
6

>  <i_qp_#acid>  (1601) 
0

>  <i_qp_#amide>  (1601) 
0

>  <i_qp_#amidine>  (1601) 
0

>  <i_qp_#amine>  (1601) 
1

>  <i_qp_#in34>  (1601) 
0

>  <i_qp_#in56>  (1601) 
22

>  <i_qp_#metab>  (1601) 
6

>  <i_qp_#nonHatm>  (1601) 
33

>  <i_qp_#noncon>  (1601) 
0

>  <i_qp_#ringatoms>  (1601) 
22

>  <i_qp_#rotor>  (1601) 
8

>  <i_qp_#rtvFG>  (1601) 
0

>  <i_qp_#stars>  (1601) 
1

>  <i_qp_CNS>  (1601) 
1

>  <i_qp_HumanOralAbsorption>  (1601) 
3

>  <i_qp_RuleOfFive>  (1601) 
0

>  <i_qp_RuleOfThree>  (1601) 
0

>  <i_sd_BIOSOLVEIT.INFINISEE\_RESULT\_RANK>  (1601) 
2140

>  <i_sd_version>  (1601) 
0

>  <b_lp_Chiralities_Consistent>  (1601) 
1

>  <b_sd_chiral_flag>  (1601) 
0

>  <canonical_id>  (1601) 
ATP-HTVS-FBE624773B31

>  <compound_code>  (1601) 
69761

>  <title>  (1601) 
rxn502b____EMOL5415347____EMOL13728749____EMOL712348

>  <variant>  (1601) 
69761-1

>  <source_file>  (1601) 
运行/运行/ATP-VSW/ATP-VSW-DOCK_HTVS_1-001_lib/ATP-VSW-DOCK_HTVS_1-001_lib

>  <canonical_smiles>  (1601) 
C[NH+](C)Cc1ccccc1C(=O)Nc1c(N(CC#N)c2ccccc2)cnc2ccccc12

>  <scaffold>  (1601) 
O=C(Nc1c(Nc2ccccc2)cnc2ccccc12)c1ccccc1

>  <molecular_formula>  (1601) 
C27H26N5O+

$$$$
ATP-HTVS-FC258B4525E9
     RDKit          3D

 63 65  0  0  0  0  0  0  0  0999 V2000
  196.8545  183.5877  151.0671 S   0  0  0  0  0  0  0  0  0  0  0  0
  197.7897  184.6439  152.1602 C   0  0  0  0  0  0  0  0  0  0  0  0
  197.9431  184.0846  153.3295 N   0  0  0  0  0  0  0  0  0  0  0  0
  197.3149  182.8316  153.3493 C   0  0  0  0  0  0  0  0  0  0  0  0
  196.6878  182.4136  152.2361 C   0  0  0  0  0  0  0  0  0  0  0  0
  197.3099  182.0004  154.5979 C   0  0  1  0  0  0  0  0  0  0  0  0
  196.7145  182.7933  155.6976 N   0  0  1  0  0  0  0  0  0  0  0  0
  196.4280  181.9846  156.8768 C   0  0  1  0  0  0  0  0  0  0  0  0
  196.0308  182.8405  158.0403 C   0  0  0  0  0  0  0  0  0  0  0  0
  196.9809  183.4902  158.8717 C   0  0  0  0  0  0  0  0  0  0  0  0
  196.5283  184.2037  160.0243 C   0  0  0  0  0  0  0  0  0  0  0  0
  195.1332  184.4691  160.1779 C   0  0  0  0  0  0  0  0  0  0  0  0
  194.2030  183.8253  159.3630 C   0  0  0  0  0  0  0  0  0  0  0  0
  194.6675  183.0025  158.3303 C   0  0  0  0  0  0  0  0  0  0  0  0
  198.4855  183.4944  158.5877 C   0  0  1  0  0  0  0  0  0  0  0  0
  198.9534  184.5654  157.6617 N   0  0  2  0  0  0  0  0  0  0  0  0
  200.3569  184.3325  157.1917 C   0  0  1  0  0  0  0  0  0  0  0  0
  201.4150  184.4644  158.2996 C   0  0  2  0  0  0  0  0  0  0  0  0
  198.7225  185.9815  158.1166 C   0  0  1  0  0  0  0  0  0  0  0  0
  197.2656  186.4463  158.1720 C   0  0  2  0  0  0  0  0  0  0  0  0
  198.3277  186.0480  151.7981 C   0  0  1  0  0  0  0  0  0  0  0  0
  199.3028  185.9492  150.7806 O   0  0  0  0  0  0  0  0  0  0  0  0
  198.9146  185.6573  149.4928 C   0  0  0  0  0  0  0  0  0  0  0  0
  199.8937  185.6123  148.4974 C   0  0  0  0  0  0  0  0  0  0  0  0
  199.5456  185.2475  147.1976 C   0  0  0  0  0  0  0  0  0  0  0  0
  198.2463  184.8188  146.8427 C   0  0  0  0  0  0  0  0  0  0  0  0
  197.9230  184.4496  145.5608 O   0  0  0  0  0  0  0  0  0  0  0  0
  198.9952  184.5122  144.6095 C   0  0  2  0  0  0  0  0  0  0  0  0
  197.2557  184.8392  147.8355 C   0  0  0  0  0  0  0  0  0  0  0  0
  197.5815  185.4010  149.0883 C   0  0  0  0  0  0  0  0  0  0  0  0
  197.3956  183.5234  155.9055 H   0  0  0  0  0  0  0  0  0  0  0  0
  196.1305  181.5757  151.9442 H   0  0  0  0  0  0  0  0  0  0  0  0
  196.6929  181.1376  154.3997 H   0  0  0  0  0  0  0  0  0  0  0  0
  198.3330  181.6685  154.7959 H   0  0  0  0  0  0  0  0  0  0  0  0
  195.6036  181.3154  156.6183 H   0  0  0  0  0  0  0  0  0  0  0  0
  197.2615  181.3312  157.1326 H   0  0  0  0  0  0  0  0  0  0  0  0
  197.2118  184.8046  160.5732 H   0  0  0  0  0  0  0  0  0  0  0  0
  194.8247  185.1767  160.9245 H   0  0  0  0  0  0  0  0  0  0  0  0
  193.1641  183.9497  159.5528 H   0  0  0  0  0  0  0  0  0  0  0  0
  193.9216  182.4697  157.7336 H   0  0  0  0  0  0  0  0  0  0  0  0
  199.0465  183.5414  159.5281 H   0  0  0  0  0  0  0  0  0  0  0  0
  198.7216  182.5337  158.1535 H   0  0  0  0  0  0  0  0  0  0  0  0
  200.4298  183.3418  156.7349 H   0  0  0  0  0  0  0  0  0  0  0  0
  200.6003  185.0383  156.3983 H   0  0  0  0  0  0  0  0  0  0  0  0
  202.4203  184.3659  157.8873 H   0  0  0  0  0  0  0  0  0  0  0  0
  201.3082  183.6991  159.0684 H   0  0  0  0  0  0  0  0  0  0  0  0
  201.3675  185.4398  158.7847 H   0  0  0  0  0  0  0  0  0  0  0  0
  199.2388  186.1443  159.0669 H   0  0  0  0  0  0  0  0  0  0  0  0
  199.1957  186.6692  157.3863 H   0  0  0  0  0  0  0  0  0  0  0  0
  197.1455  187.4769  158.4615 H   0  0  0  0  0  0  0  0  0  0  0  0
  196.7664  186.1107  159.0421 H   0  0  0  0  0  0  0  0  0  0  0  0
  196.6369  186.1228  157.3502 H   0  0  0  0  0  0  0  0  0  0  0  0
  197.5608  186.7408  151.5073 H   0  0  0  0  0  0  0  0  0  0  0  0
  198.7889  186.4816  152.6900 H   0  0  0  0  0  0  0  0  0  0  0  0
  200.9045  185.9216  148.7262 H   0  0  0  0  0  0  0  0  0  0  0  0
  200.3339  185.2989  146.4562 H   0  0  0  0  0  0  0  0  0  0  0  0
  198.6520  184.2020  143.6409 H   0  0  0  0  0  0  0  0  0  0  0  0
  199.8104  183.8544  144.9102 H   0  0  0  0  0  0  0  0  0  0  0  0
  199.3842  185.5279  144.5229 H   0  0  0  0  0  0  0  0  0  0  0  0
  196.2455  184.5033  147.6840 H   0  0  0  0  0  0  0  0  0  0  0  0
  196.7651  185.5290  149.7455 H   0  0  0  0  0  0  0  0  0  0  0  0
  198.4038  184.4777  156.8252 H   0  0  0  0  0  0  0  0  0  0  0  0
  195.8844  183.2165  155.3609 H   0  0  0  0  0  0  0  0  0  0  0  0
  1  2  1  0
  1  5  1  0
  2  3  2  0
  2 21  1  0
  3  4  1  0
  4  5  2  0
  4  6  1  0
  5 32  1  0
  6  7  1  0
  6 33  1  6
  6 34  1  0
  7  8  1  0
  7 31  1  1
  7 63  1  0
  8  9  1  0
  8 35  1  6
  8 36  1  0
  9 10  1  0
  9 14  2  0
 10 11  2  0
 10 15  1  0
 11 12  1  0
 11 37  1  0
 12 13  2  0
 12 38  1  0
 13 14  1  0
 13 39  1  0
 14 40  1  0
 15 16  1  0
 15 41  1  1
 15 42  1  0
 16 17  1  0
 16 19  1  0
 16 62  1  6
 17 18  1  0
 17 43  1  6
 17 44  1  0
 18 45  1  6
 18 46  1  0
 18 47  1  0
 19 20  1  0
 19 48  1  1
 19 49  1  0
 20 50  1  1
 20 51  1  0
 20 52  1  0
 21 22  1  0
 21 53  1  6
 21 54  1  0
 22 23  1  0
 23 24  1  0
 23 30  2  0
 24 25  2  0
 24 55  1  0
 25 26  1  0
 25 56  1  0
 26 27  1  0
 26 29  2  0
 27 28  1  0
 28 57  1  6
 28 58  1  0
 28 59  1  0
 29 30  1  0
 29 60  1  0
 30 61  1  0
M  CHG  2   7   1  16   1
M  END
>  <s_epik_cmdline>  (1602) 
J2VwaWtfcHl0aG9uJywgJy1waCcsICc3LjAwMDAwMCcsICctcGh0JywgJzIuMDAwMDAwJywgJy1tcycsICcxNicsICctdG4nLCAnOCcsICctbWEnLCAnMjAwJywgJy1pbWFlJywgJzxpbmZpbGUubWFlPicsICctb21hZScsICc8b3V0ZmlsZS5tYWU+Jw==

>  <s_epik_input>  (1602) 
W0NIM11PYyhbY0hdW2NIXTEpW2NIXVtjSF1jMU9bQ0gyXWMyc1tjSF1jKG4yKVtDSDJdW05IXVtDSDJdYzNjKFtjSF1bY0hdW2NIXVtjSF0zKVtDSDJdTihbQ0gyXVtDSDNdKVtDSDJdW0NIM10=

>  <s_i_glide_gridfile>  (1602) 
ATP-Grid

>  <s_lp_Force_Field>  (1602) 
OPLS_2005

>  <s_lp_Variant>  (1602) 
m_270004bbb____8289034____7548988-1

>  <s_lp_label>  (1602) 
1351_sdstereoexpander_1_neutralizer_1_epik_1_stereoizer_1

>  <s_m_source_file>  (1602) 
ATP-VSW-LIGPREP-002-in.maegz

>  <s_sd_BIOSOLVEIT.INFINISEE\_QUERY\_NAME>  (1602) 
Ref-Lig

>  <s_sd_BIOSOLVEIT.INFINISEE\_QUERY\_SMILES>  (1602) 
S(c1nc2c(cc1C[NH2+]Cc3ccc(cc3)C[NH+](C)C)cccc2)Cc4ccccc4

>  <s_sd_BIOSOLVEIT.INFINISEE\_REACTION\_NAME>  (1602) 
m_270004bbb

>  <s_sd_BIOSOLVEIT.INFINISEE\_REAGENT1\_SMILES>  (1602) 
[R1*]NCc1c(cccc1)CN(CC)CC

>  <s_sd_BIOSOLVEIT.INFINISEE\_REAGENT2\_SMILES>  (1602) 
[R1*]CC=1N=C(SC1)COc2ccc(OC)cc2

>  <s_sd_BIOSOLVEIT.INFINISEE\_SPACE>  (1602) 
REALSpace_44bn_2023-08

>  <s_vsw_compound_code>  (1602) 
43202

>  <s_vsw_variant>  (1602) 
43202-1

>  <r_epik_Charging_Adjusted_Penalty>  (1602) 
0.42376803178793898

>  <r_epik_Ionization_Penalty>  (1602) 
0.21229999999999999

>  <r_epik_Ionization_Penalty_Charging>  (1602) 
0.21229999999999999

>  <r_epik_Ionization_Penalty_Neutral>  (1602) 
0

>  <r_epik_State_Penalty>  (1602) 
0.21149999999999999

>  <r_i_docking_score>  (1602) 
-4.2175637387803802

>  <r_i_glide_ecoul>  (1602) 
-8.5304241180419904

>  <r_i_glide_eff_state_penalty>  (1602) 
0.21149999999999999

>  <r_i_glide_einternal>  (1602) 
5.6972913742065403

>  <r_i_glide_emodel>  (1602) 
-58.139000755884602

>  <r_i_glide_energy>  (1602) 
-41.959569931030302

>  <r_i_glide_erotb>  (1602) 
0.97737059787354796

>  <r_i_glide_esite>  (1602) 
-0.056196948448768803

>  <r_i_glide_evdw>  (1602) 
-33.429145812988303

>  <r_i_glide_gscore>  (1602) 
-4.4290637387803802

>  <r_i_glide_hbond>  (1602) 
-0.062442221236545498

>  <r_i_glide_ligand_efficiency>  (1602) 
-0.14058545795934599

>  <r_i_glide_ligand_efficiency_ln>  (1602) 
-0.95827643548846597

>  <r_i_glide_ligand_efficiency_sa>  (1602) 
-0.436831704340439

>  <r_i_glide_lipo>  (1602) 
-1.8431632586129001

>  <r_i_glide_metal>  (1602) 
-0

>  <r_i_glide_rewards>  (1602) 
-0.49361099999999802

>  <r_lp_Energy>  (1602) 
23.267757

>  <r_lp_tautomer_probability>  (1602) 
1

>  <r_qp_ACxDN^.5/SA>  (1602) 
0.0093688999999999995

>  <r_qp_CIQPlogS>  (1602) 
-4.1879999999999997

>  <r_qp_EA(eV)>  (1602) 
0.80900000000000005

>  <r_qp_FISA>  (1602) 
17.948

>  <r_qp_FOSA>  (1602) 
317.56900000000002

>  <r_qp_IP(eV)>  (1602) 
8.6419999999999995

>  <r_qp_Jm>  (1602) 
0.38424418436757701

>  <r_qp_PISA>  (1602) 
310.07600000000002

>  <r_qp_PSA>  (1602) 
40.674999999999997

>  <r_qp_PercentHumanOralAbsorption>  (1602) 
100

>  <r_qp_QPPCaco>  (1602) 
416.38799999999998

>  <r_qp_QPPMDCK>  (1602) 
431.32499999999999

>  <r_qp_QPlogBB>  (1602) 
0.59199999999999997

>  <r_qp_QPlogHERG>  (1602) 
-6.7919999999999998

>  <r_qp_QPlogKhsa>  (1602) 
0.54200000000000004

>  <r_qp_QPlogKp>  (1602) 
-3.7309999999999999

>  <r_qp_QPlogPC16>  (1602) 
13.677

>  <r_qp_QPlogPo/w>  (1602) 
4.4930000000000003

>  <r_qp_QPlogPoct>  (1602) 
19.222999999999999

>  <r_qp_QPlogPw>  (1602) 
8.8569999999999993

>  <r_qp_QPlogS>  (1602) 
-2.3130000000000002

>  <r_qp_QPpolrz>  (1602) 
43.57

>  <r_qp_SASA>  (1602) 
693.78099999999995

>  <r_qp_SAamideO>  (1602) 
0

>  <r_qp_SAfluorine>  (1602) 
0

>  <r_qp_WPSA>  (1602) 
48.188000000000002

>  <r_qp_accptHB>  (1602) 
6.5

>  <r_qp_dip^2/V>  (1602) 
0.0069807999999999997

>  <r_qp_dipole>  (1602) 
3.0819999999999999

>  <r_qp_donorHB>  (1602) 
1

>  <r_qp_glob>  (1602) 
0.85609069999999998

>  <r_qp_mol_MW>  (1602) 
425.58800000000002

>  <r_qp_volume>  (1602) 
1361.0239999999999

>  <r_sd_BIOSOLVEIT.INFINISEE\_FTREES\_SIMILARITY>  (1602) 
0.90900000000000003

>  <r_sd_BIOSOLVEIT.LOGP>  (1602) 
2.419

>  <r_sd_BIOSOLVEIT.MOLECULAR\_WEIGHT>  (1602) 
427.60899999999998

>  <r_sd_BIOSOLVEIT.TPSA>  (1602) 
52.399999999999999

>  <i_epik_Tot_Q>  (1602) 
2

>  <i_epik_Tot_abs_Q>  (1602) 
2

>  <i_f3d_flags>  (1602) 
0

>  <i_i_glide_confnum>  (1602) 
10

>  <i_i_glide_lignum>  (1602) 
473

>  <i_i_glide_posenum>  (1602) 
9

>  <i_i_glide_rotatable_bonds>  (1602) 
12

>  <i_lp_mmshare_version>  (1602) 
65135

>  <i_m_ct_format>  (1602) 
2

>  <i_m_source_file_index>  (1602) 
1351

>  <i_qp_#NandO>  (1602) 
5

>  <i_qp_#acid>  (1602) 
0

>  <i_qp_#amide>  (1602) 
0

>  <i_qp_#amidine>  (1602) 
0

>  <i_qp_#amine>  (1602) 
2

>  <i_qp_#in34>  (1602) 
0

>  <i_qp_#in56>  (1602) 
17

>  <i_qp_#metab>  (1602) 
9

>  <i_qp_#nonHatm>  (1602) 
30

>  <i_qp_#noncon>  (1602) 
0

>  <i_qp_#ringatoms>  (1602) 
17

>  <i_qp_#rotor>  (1602) 
12

>  <i_qp_#rtvFG>  (1602) 
0

>  <i_qp_#stars>  (1602) 
1

>  <i_qp_CNS>  (1602) 
2

>  <i_qp_HumanOralAbsorption>  (1602) 
3

>  <i_qp_RuleOfFive>  (1602) 
0

>  <i_qp_RuleOfThree>  (1602) 
1

>  <i_sd_BIOSOLVEIT.INFINISEE\_REAGENT1\_NAME>  (1602) 
8289034

>  <i_sd_BIOSOLVEIT.INFINISEE\_REAGENT2\_NAME>  (1602) 
7548988

>  <i_sd_BIOSOLVEIT.INFINISEE\_RESULT\_RANK>  (1602) 
49629

>  <i_sd_version>  (1602) 
0

>  <b_lp_Chiralities_Consistent>  (1602) 
1

>  <b_sd_chiral_flag>  (1602) 
0

>  <canonical_id>  (1602) 
ATP-HTVS-FC258B4525E9

>  <compound_code>  (1602) 
43202

>  <title>  (1602) 
m_270004bbb____8289034____7548988

>  <variant>  (1602) 
43202-1

>  <source_file>  (1602) 
运行/运行/ATP-VSW/ATP-VSW-DOCK_HTVS_1-002_lib.maegz

>  <canonical_smiles>  (1602) 
CC[NH+](CC)Cc1ccccc1C[NH2+]Cc1csc(COc2ccc(OC)cc2)n1

>  <scaffold>  (1602) 
c1ccc(C[NH2+]Cc2csc(COc3ccccc3)n2)cc1

>  <molecular_formula>  (1602) 
C24H33N3O2S+2

$$$$
ATP-HTVS-FC28EB1BA5EE
     RDKit          3D

 65 68  0  0  0  0  0  0  0  0999 V2000
  202.0084  173.3291  153.4523 F   0  0  0  0  0  0  0  0  0  0  0  0
  201.6740  174.5177  154.0105 C   0  0  0  0  0  0  0  0  0  0  0  0
  201.0922  175.5309  153.2160 C   0  0  0  0  0  0  0  0  0  0  0  0
  200.7276  176.7807  153.7778 C   0  0  0  0  0  0  0  0  0  0  0  0
  200.9660  176.9808  155.1715 C   0  0  0  0  0  0  0  0  0  0  0  0
  200.6323  178.1886  155.9520 C   0  0  0  0  0  0  0  0  0  0  0  0
  200.3755  179.1572  156.5719 N   0  0  0  0  0  0  0  0  0  0  0  0
  201.5555  175.9789  155.9502 C   0  0  0  0  0  0  0  0  0  0  0  0
  201.9155  174.7440  155.3844 C   0  0  0  0  0  0  0  0  0  0  0  0
  200.1484  177.8268  152.8605 C   0  0  0  0  0  0  0  0  0  0  0  0
  200.4634  179.0165  152.9635 O   0  0  0  0  0  0  0  0  0  0  0  0
  199.2888  177.3600  151.9391 N   0  0  0  0  0  0  0  0  0  0  0  0
  198.5596  178.1235  150.9767 C   0  0  0  0  0  0  0  0  0  0  0  0
  197.6331  179.1371  151.3598 C   0  0  0  0  0  0  0  0  0  0  0  0
  197.3973  179.4338  152.7123 N   0  0  0  0  0  0  0  0  0  0  0  0
  197.0194  180.7906  153.0906 C   0  0  1  0  0  0  0  0  0  0  0  0
  197.5895  181.2021  154.4327 C   0  0  0  0  0  0  0  0  0  0  0  0
  196.7415  181.4792  155.5175 C   0  0  0  0  0  0  0  0  0  0  0  0
  197.2920  181.8465  156.7673 C   0  0  0  0  0  0  0  0  0  0  0  0
  198.6935  181.9090  156.9298 C   0  0  0  0  0  0  0  0  0  0  0  0
  199.5536  181.6574  155.8349 C   0  0  0  0  0  0  0  0  0  0  0  0
  198.9919  181.3193  154.5920 C   0  0  0  0  0  0  0  0  0  0  0  0
  196.3806  182.2413  157.9074 C   0  0  1  0  0  0  0  0  0  0  0  0
  196.8633  183.4496  158.6323 N   0  0  2  0  0  0  0  0  0  0  0  0
  195.9777  183.8230  159.7751 C   0  0  1  0  0  0  0  0  0  0  0  0
  194.5376  184.1727  159.3474 C   0  0  2  0  0  0  0  0  0  0  0  0
  197.2256  184.6094  157.7585 C   0  0  1  0  0  0  0  0  0  0  0  0
  198.1052  185.6513  158.4706 C   0  0  2  0  0  0  0  0  0  0  0  0
  196.9419  179.8095  150.3258 C   0  0  0  0  0  0  0  0  0  0  0  0
  197.0864  179.5278  149.0187 N   0  0  0  0  0  0  0  0  0  0  0  0
  197.9459  178.5558  148.6463 C   0  0  0  0  0  0  0  0  0  0  0  0
  198.6993  177.8119  149.5986 C   0  0  0  0  0  0  0  0  0  0  0  0
  199.5766  176.7882  149.1571 C   0  0  0  0  0  0  0  0  0  0  0  0
  199.7134  176.5089  147.7886 C   0  0  0  0  0  0  0  0  0  0  0  0
  198.9851  177.2539  146.8459 C   0  0  0  0  0  0  0  0  0  0  0  0
  198.1054  178.2648  147.2775 C   0  0  0  0  0  0  0  0  0  0  0  0
  200.9462  175.3247  152.1675 H   0  0  0  0  0  0  0  0  0  0  0  0
  201.7481  176.1506  157.0005 H   0  0  0  0  0  0  0  0  0  0  0  0
  202.3661  173.9789  156.0013 H   0  0  0  0  0  0  0  0  0  0  0  0
  197.9376  178.9352  153.4006 H   0  0  0  0  0  0  0  0  0  0  0  0
  197.3795  181.5083  152.3581 H   0  0  0  0  0  0  0  0  0  0  0  0
  195.9324  180.8510  153.1215 H   0  0  0  0  0  0  0  0  0  0  0  0
  195.6645  181.4290  155.3929 H   0  0  0  0  0  0  0  0  0  0  0  0
  199.1326  182.1976  157.8694 H   0  0  0  0  0  0  0  0  0  0  0  0
  200.6010  181.8037  155.9435 H   0  0  0  0  0  0  0  0  0  0  0  0
  199.6555  181.1371  153.7608 H   0  0  0  0  0  0  0  0  0  0  0  0
  195.4089  182.4273  157.4520 H   0  0  0  0  0  0  0  0  0  0  0  0
  196.2678  181.3969  158.5960 H   0  0  0  0  0  0  0  0  0  0  0  0
  195.9746  183.0066  160.4925 H   0  0  0  0  0  0  0  0  0  0  0  0
  196.4040  184.6535  160.3302 H   0  0  0  0  0  0  0  0  0  0  0  0
  193.9340  184.4584  160.2119 H   0  0  0  0  0  0  0  0  0  0  0  0
  194.0282  183.3346  158.8730 H   0  0  0  0  0  0  0  0  0  0  0  0
  194.5210  185.0137  158.6549 H   0  0  0  0  0  0  0  0  0  0  0  0
  197.8104  184.3116  156.8862 H   0  0  0  0  0  0  0  0  0  0  0  0
  196.3246  185.0669  157.3429 H   0  0  0  0  0  0  0  0  0  0  0  0
  198.4126  186.4139  157.7552 H   0  0  0  0  0  0  0  0  0  0  0  0
  199.0136  185.1992  158.8696 H   0  0  0  0  0  0  0  0  0  0  0  0
  197.5877  186.1656  159.2781 H   0  0  0  0  0  0  0  0  0  0  0  0
  196.2262  180.5875  150.5495 H   0  0  0  0  0  0  0  0  0  0  0  0
  200.1629  176.2056  149.8525 H   0  0  0  0  0  0  0  0  0  0  0  0
  200.3824  175.7279  147.4558 H   0  0  0  0  0  0  0  0  0  0  0  0
  199.1004  177.0375  145.7948 H   0  0  0  0  0  0  0  0  0  0  0  0
  197.5458  178.8290  146.5459 H   0  0  0  0  0  0  0  0  0  0  0  0
  197.7254  183.1391  159.0541 H   0  0  0  0  0  0  0  0  0  0  0  0
  199.2278  176.3617  151.8249 H   0  0  0  0  0  0  0  0  0  0  0  0
  1  2  1  0
  2  3  2  0
  2  9  1  0
  3  4  1  0
  3 37  1  0
  4  5  2  0
  4 10  1  0
  5  6  1  0
  5  8  1  0
  6  7  3  0
  8  9  2  0
  8 38  1  0
  9 39  1  0
 10 11  2  0
 10 12  1  0
 12 13  1  0
 12 65  1  0
 13 14  2  0
 13 32  1  0
 14 15  1  0
 14 29  1  0
 15 16  1  0
 15 40  1  0
 16 17  1  0
 16 41  1  6
 16 42  1  0
 17 18  2  0
 17 22  1  0
 18 19  1  0
 18 43  1  0
 19 20  2  0
 19 23  1  0
 20 21  1  0
 20 44  1  0
 21 22  2  0
 21 45  1  0
 22 46  1  0
 23 24  1  0
 23 47  1  6
 23 48  1  0
 24 25  1  0
 24 27  1  0
 24 64  1  1
 25 26  1  0
 25 49  1  1
 25 50  1  0
 26 51  1  1
 26 52  1  0
 26 53  1  0
 27 28  1  0
 27 54  1  6
 27 55  1  0
 28 56  1  6
 28 57  1  0
 28 58  1  0
 29 30  2  0
 29 59  1  0
 30 31  1  0
 31 32  1  0
 31 36  2  0
 32 33  2  0
 33 34  1  0
 33 60  1  0
 34 35  2  0
 34 61  1  0
 35 36  1  0
 35 62  1  0
 36 63  1  0
M  CHG  1  24   1
M  END
>  <s_epik_cmdline>  (1603) 
J2VwaWtfcHl0aG9uJywgJy1waCcsICc3LjAwMDAwMCcsICctcGh0JywgJzIuMDAwMDAwJywgJy1tcycsICcxNicsICctdG4nLCAnOCcsICctbWEnLCAnMjAwJywgJy1pbWFlJywgJzxpbmZpbGUubWFlPicsICctb21hZScsICc8b3V0ZmlsZS5tYWU+Jw==

>  <s_epik_input>  (1603) 
RmMxW2NIXWMoYyhDI04pW2NIXVtjSF0xKUMoPU8pW05IXWMoYyhjMjMpW2NIXVtjSF1bY0hdW2NIXTMpYyhbY0hdbjIpW05IXVtDSDJdYzRbY0hdYyhbY0hdW2NIXVtjSF00KVtDSDJdTihbQ0gyXVtDSDNdKVtDSDJdW0NIM10=

>  <s_i_glide_gridfile>  (1603) 
ATP-Grid

>  <s_lp_Force_Field>  (1603) 
OPLS_2005

>  <s_lp_Variant>  (1603) 
rxn502b____EMOL43478294____EMOL13728749____EMOL44153840-1

>  <s_lp_label>  (1603) 
2637_sdstereoexpander_1_neutralizer_1_epik_1_stereoizer_1

>  <s_m_source_file>  (1603) 
ATP-VSW-LIGPREP-001-in.maegz

>  <s_sd_BIOSOLVEIT.INFINISEE\_QUERY\_NAME>  (1603) 
Ref-Lig

>  <s_sd_BIOSOLVEIT.INFINISEE\_QUERY\_SMILES>  (1603) 
S(c1nc2c(cc1C[NH2+]Cc3ccc(cc3)C[NH+](C)C)cccc2)Cc4ccccc4

>  <s_sd_BIOSOLVEIT.INFINISEE\_REACTION\_NAME>  (1603) 
rxn502b

>  <s_sd_BIOSOLVEIT.INFINISEE\_REAGENT1\_NAME>  (1603) 
EMOL43478294

>  <s_sd_BIOSOLVEIT.INFINISEE\_REAGENT1\_SMILES>  (1603) 
Fc1cc(c(C#N)cc1)C(=O)O

>  <s_sd_BIOSOLVEIT.INFINISEE\_REAGENT2\_NAME>  (1603) 
EMOL13728749

>  <s_sd_BIOSOLVEIT.INFINISEE\_REAGENT2\_SMILES>  (1603) 
Brc1c(N)c2c(nc1)cccc2

>  <s_sd_BIOSOLVEIT.INFINISEE\_REAGENT3\_NAME>  (1603) 
EMOL44153840

>  <s_sd_BIOSOLVEIT.INFINISEE\_REAGENT3\_SMILES>  (1603) 
N(Cc1cc(ccc1)CN)(CC)CC

>  <s_sd_BIOSOLVEIT.INFINISEE\_SPACE>  (1603) 
eXplore_7tr_2022-12

>  <s_vsw_compound_code>  (1603) 
84353

>  <s_vsw_variant>  (1603) 
84353-1

>  <r_epik_Charging_Adjusted_Penalty>  (1603) 
0.20676283152203001

>  <r_epik_Ionization_Penalty>  (1603) 
0.063

>  <r_epik_Ionization_Penalty_Charging>  (1603) 
0.017999999999999999

>  <r_epik_Ionization_Penalty_Neutral>  (1603) 
0.045100000000000001

>  <r_epik_State_Penalty>  (1603) 
0.1888

>  <r_i_docking_score>  (1603) 
-4.01867650326417

>  <r_i_glide_ecoul>  (1603) 
-3.9979922771453902

>  <r_i_glide_eff_state_penalty>  (1603) 
0.1888

>  <r_i_glide_einternal>  (1603) 
4.7052059173584002

>  <r_i_glide_emodel>  (1603) 
-59.391645146776199

>  <r_i_glide_energy>  (1603) 
-45.457373380660997

>  <r_i_glide_erotb>  (1603) 
0.69717943793183001

>  <r_i_glide_esite>  (1603) 
-0.0420863230022894

>  <r_i_glide_evdw>  (1603) 
-41.459381103515597

>  <r_i_glide_gscore>  (1603) 
-4.2074765032641697

>  <r_i_glide_hbond>  (1603) 
0

>  <r_i_glide_ligand_efficiency>  (1603) 
-0.111629902868449

>  <r_i_glide_ligand_efficiency_ln>  (1603) 
-0.87676664092017398

>  <r_i_glide_ligand_efficiency_sa>  (1603) 
-0.36859381763250498

>  <r_i_glide_lipo>  (1603) 
-1.8259719680231901

>  <r_i_glide_metal>  (1603) 
-0

>  <r_i_glide_rewards>  (1603) 
-0.36392975342293099

>  <r_lp_Energy>  (1603) 
34.561638000000002

>  <r_qp_ACxDN^.5/SA>  (1603) 
0.0151135

>  <r_qp_CIQPlogS>  (1603) 
-7.024

>  <r_qp_EA(eV)>  (1603) 
1.157

>  <r_qp_FISA>  (1603) 
51.027999999999999

>  <r_qp_FOSA>  (1603) 
232.00299999999999

>  <r_qp_IP(eV)>  (1603) 
8.2370000000000001

>  <r_qp_Jm>  (1603) 
0.020713452960285199

>  <r_qp_PISA>  (1603) 
418.62400000000002

>  <r_qp_PSA>  (1603) 
80.525999999999996

>  <r_qp_PercentHumanOralAbsorption>  (1603) 
100

>  <r_qp_QPPCaco>  (1603) 
810.77200000000005

>  <r_qp_QPPMDCK>  (1603) 
788.54700000000003

>  <r_qp_QPlogBB>  (1603) 
-0.019

>  <r_qp_QPlogHERG>  (1603) 
-7.0030000000000001

>  <r_qp_QPlogKhsa>  (1603) 
0.56799999999999995

>  <r_qp_QPlogKp>  (1603) 
-2.0880000000000001

>  <r_qp_QPlogPC16>  (1603) 
15.130000000000001

>  <r_qp_QPlogPo/w>  (1603) 
4.7619999999999996

>  <r_qp_QPlogPoct>  (1603) 
24.279

>  <r_qp_QPlogPw>  (1603) 
13.335000000000001

>  <r_qp_QPlogS>  (1603) 
-5.2789999999999999

>  <r_qp_QPpolrz>  (1603) 
49.718000000000004

>  <r_qp_SASA>  (1603) 
748.58299999999997

>  <r_qp_SAamideO>  (1603) 
0

>  <r_qp_SAfluorine>  (1603) 
46.927

>  <r_qp_WPSA>  (1603) 
46.927

>  <r_qp_accptHB>  (1603) 
8

>  <r_qp_dip^2/V>  (1603) 
0.029189799999999998

>  <r_qp_dipole>  (1603) 
6.5209999999999999

>  <r_qp_donorHB>  (1603) 
2

>  <r_qp_glob>  (1603) 
0.83016259999999997

>  <r_qp_mol_MW>  (1603) 
481.57100000000003

>  <r_qp_volume>  (1603) 
1456.655

>  <r_sd_BIOSOLVEIT.INFINISEE\_FTREES\_SIMILARITY>  (1603) 
0.91000000000000003

>  <r_sd_BIOSOLVEIT.LOGP>  (1603) 
4.5346799999999998

>  <r_sd_BIOSOLVEIT.MOLECULAR\_WEIGHT>  (1603) 
482.57999999999998

>  <r_sd_BIOSOLVEIT.TPSA>  (1603) 
82.25

>  <i_epik_Tot_Q>  (1603) 
1

>  <i_epik_Tot_abs_Q>  (1603) 
1

>  <i_f3d_flags>  (1603) 
0

>  <i_i_glide_confnum>  (1603) 
1

>  <i_i_glide_lignum>  (1603) 
1127

>  <i_i_glide_posenum>  (1603) 
1

>  <i_i_glide_rotatable_bonds>  (1603) 
10

>  <i_lp_mmshare_version>  (1603) 
65135

>  <i_m_ct_format>  (1603) 
2

>  <i_m_source_file_index>  (1603) 
2637

>  <i_qp_#NandO>  (1603) 
6

>  <i_qp_#acid>  (1603) 
0

>  <i_qp_#amide>  (1603) 
0

>  <i_qp_#amidine>  (1603) 
0

>  <i_qp_#amine>  (1603) 
1

>  <i_qp_#in34>  (1603) 
0

>  <i_qp_#in56>  (1603) 
22

>  <i_qp_#metab>  (1603) 
6

>  <i_qp_#nonHatm>  (1603) 
36

>  <i_qp_#noncon>  (1603) 
0

>  <i_qp_#ringatoms>  (1603) 
22

>  <i_qp_#rotor>  (1603) 
10

>  <i_qp_#rtvFG>  (1603) 
0

>  <i_qp_#stars>  (1603) 
0

>  <i_qp_CNS>  (1603) 
1

>  <i_qp_HumanOralAbsorption>  (1603) 
3

>  <i_qp_RuleOfFive>  (1603) 
0

>  <i_qp_RuleOfThree>  (1603) 
0

>  <i_sd_BIOSOLVEIT.INFINISEE\_RESULT\_RANK>  (1603) 
45016

>  <i_sd_version>  (1603) 
0

>  <b_lp_Chiralities_Consistent>  (1603) 
1

>  <b_sd_chiral_flag>  (1603) 
0

>  <canonical_id>  (1603) 
ATP-HTVS-FC28EB1BA5EE

>  <compound_code>  (1603) 
84353

>  <title>  (1603) 
rxn502b____EMOL43478294____EMOL13728749____EMOL44153840

>  <variant>  (1603) 
84353-1

>  <source_file>  (1603) 
运行/运行/ATP-VSW/ATP-VSW-DOCK_HTVS_1-001_lib/ATP-VSW-DOCK_HTVS_1-001_lib

>  <canonical_smiles>  (1603) 
CC[NH+](CC)Cc1cccc(CNc2cnc3ccccc3c2NC(=O)c2cc(F)ccc2C#N)c1

>  <scaffold>  (1603) 
O=C(Nc1c(NCc2ccccc2)cnc2ccccc12)c1ccccc1

>  <molecular_formula>  (1603) 
C29H29FN5O+

$$$$
ATP-HTVS-FC30DD28CEC3
     RDKit          3D

 68 71  0  0  0  0  0  0  0  0999 V2000
  196.8032  181.4720  155.6152 Cl  0  0  0  0  0  0  0  0  0  0  0  0
  198.3474  181.8118  156.3328 C   0  0  0  0  0  0  0  0  0  0  0  0
  199.5284  181.2628  155.7782 C   0  0  0  0  0  0  0  0  0  0  0  0
  200.7535  181.5406  156.2651 N   0  0  0  0  0  0  0  0  0  0  0  0
  200.8819  182.3041  157.3617 C   0  0  0  0  0  0  0  0  0  0  0  0
  199.7612  182.9001  157.9964 C   0  0  0  0  0  0  0  0  0  0  0  0
  198.4598  182.6666  157.4618 C   0  0  0  0  0  0  0  0  0  0  0  0
  197.2601  183.2748  158.0623 C   0  0  0  0  0  0  0  0  0  0  0  0
  197.0918  184.6777  158.0725 C   0  0  0  0  0  0  0  0  0  0  0  0
  195.9509  185.2606  158.6548 C   0  0  0  0  0  0  0  0  0  0  0  0
  194.9565  184.4420  159.2224 C   0  0  0  0  0  0  0  0  0  0  0  0
  195.1126  183.0439  159.2125 C   0  0  0  0  0  0  0  0  0  0  0  0
  196.2606  182.4660  158.6442 C   0  0  0  0  0  0  0  0  0  0  0  0
  199.9641  183.6774  159.1631 C   0  0  0  0  0  0  0  0  0  0  0  0
  201.2568  183.8633  159.6876 C   0  0  0  0  0  0  0  0  0  0  0  0
  202.3633  183.2684  159.0594 C   0  0  0  0  0  0  0  0  0  0  0  0
  202.1701  182.4895  157.9058 C   0  0  0  0  0  0  0  0  0  0  0  0
  199.5317  180.2630  154.6163 C   0  0  1  0  0  0  0  0  0  0  0  0
  199.9396  178.8869  155.0247 N   0  0  1  0  0  0  0  0  0  0  0  0
  201.3801  178.7745  155.4396 C   0  0  1  0  0  0  0  0  0  0  0  0
  201.9419  177.3633  155.3543 C   0  0  0  0  0  0  0  0  0  0  0  0
  203.0292  177.0784  154.4735 C   0  0  0  0  0  0  0  0  0  0  0  0
  203.5142  175.7533  154.3796 C   0  0  0  0  0  0  0  0  0  0  0  0
  202.8908  174.7189  155.1092 C   0  0  0  0  0  0  0  0  0  0  0  0
  201.8457  175.0304  156.0105 C   0  0  0  0  0  0  0  0  0  0  0  0
  201.4310  176.3544  156.2042 C   0  0  0  0  0  0  0  0  0  0  0  0
  203.2698  173.2845  154.9261 C   0  0  1  0  0  0  0  0  0  0  0  0
  202.4941  172.6996  153.8086 N   0  0  2  0  0  0  0  0  0  0  0  0
  202.9647  173.1176  152.4707 C   0  0  1  0  0  0  0  0  0  0  0  0
  202.4451  172.2171  151.3166 C   0  0  1  0  0  0  0  0  0  0  0  0
  202.8743  172.7480  150.0672 O   0  0  0  0  0  0  0  0  0  0  0  0
  202.2313  173.9679  149.7081 C   0  0  2  0  0  0  0  0  0  0  0  0
  201.0257  172.7316  153.9611 C   0  0  2  0  0  0  0  0  0  0  0  0
  198.9668  178.2736  155.9942 C   0  0  2  0  0  0  0  0  0  0  0  0
  197.8518  185.3104  157.6370 H   0  0  0  0  0  0  0  0  0  0  0  0
  195.8330  186.3338  158.6530 H   0  0  0  0  0  0  0  0  0  0  0  0
  194.0689  184.8860  159.6472 H   0  0  0  0  0  0  0  0  0  0  0  0
  194.3484  182.4062  159.6289 H   0  0  0  0  0  0  0  0  0  0  0  0
  196.3669  181.3898  158.6413 H   0  0  0  0  0  0  0  0  0  0  0  0
  199.1346  184.1302  159.6829 H   0  0  0  0  0  0  0  0  0  0  0  0
  201.3950  184.4619  160.5767 H   0  0  0  0  0  0  0  0  0  0  0  0
  203.3577  183.4118  159.4588 H   0  0  0  0  0  0  0  0  0  0  0  0
  203.0205  182.0222  157.4303 H   0  0  0  0  0  0  0  0  0  0  0  0
  198.5345  180.1723  154.1885 H   0  0  0  0  0  0  0  0  0  0  0  0
  200.1558  180.6449  153.8027 H   0  0  0  0  0  0  0  0  0  0  0  0
  201.9888  179.4236  154.8060 H   0  0  0  0  0  0  0  0  0  0  0  0
  201.5350  179.1199  156.4627 H   0  0  0  0  0  0  0  0  0  0  0  0
  203.5255  177.8609  153.9271 H   0  0  0  0  0  0  0  0  0  0  0  0
  204.3462  175.5245  153.7189 H   0  0  0  0  0  0  0  0  0  0  0  0
  201.3255  174.2526  156.5405 H   0  0  0  0  0  0  0  0  0  0  0  0
  200.7024  176.5407  156.9650 H   0  0  0  0  0  0  0  0  0  0  0  0
  204.3449  173.1971  154.7480 H   0  0  0  0  0  0  0  0  0  0  0  0
  203.0589  172.7082  155.8353 H   0  0  0  0  0  0  0  0  0  0  0  0
  202.6166  174.1378  152.4018 H   0  0  0  0  0  0  0  0  0  0  0  0
  204.0518  173.1189  152.4304 H   0  0  0  0  0  0  0  0  0  0  0  0
  202.8260  171.1981  151.4251 H   0  0  0  0  0  0  0  0  0  0  0  0
  201.3631  172.1386  151.2755 H   0  0  0  0  0  0  0  0  0  0  0  0
  202.5977  174.3082  148.7404 H   0  0  0  0  0  0  0  0  0  0  0  0
  202.4413  174.7880  150.3954 H   0  0  0  0  0  0  0  0  0  0  0  0
  201.1470  173.8487  149.6523 H   0  0  0  0  0  0  0  0  0  0  0  0
  200.6633  173.7420  153.8762 H   0  0  0  0  0  0  0  0  0  0  0  0
  200.7361  172.3190  154.9085 H   0  0  0  0  0  0  0  0  0  0  0  0
  200.4899  172.1264  153.2347 H   0  0  0  0  0  0  0  0  0  0  0  0
  199.1085  178.7857  156.9668 H   0  0  0  0  0  0  0  0  0  0  0  0
  199.0834  177.2202  156.1103 H   0  0  0  0  0  0  0  0  0  0  0  0
  197.9295  178.4531  155.6537 H   0  0  0  0  0  0  0  0  0  0  0  0
  202.7358  171.7045  153.8774 H   0  0  0  0  0  0  0  0  0  0  0  0
  199.8805  178.3335  154.1842 H   0  0  0  0  0  0  0  0  0  0  0  0
  1  2  1  0
  2  3  1  0
  2  7  2  0
  3  4  2  0
  3 18  1  0
  4  5  1  0
  5  6  1  0
  5 17  2  0
  6  7  1  0
  6 14  2  0
  7  8  1  0
  8  9  2  0
  8 13  1  0
  9 10  1  0
  9 35  1  0
 10 11  2  0
 10 36  1  0
 11 12  1  0
 11 37  1  0
 12 13  2  0
 12 38  1  0
 13 39  1  0
 14 15  1  0
 14 40  1  0
 15 16  2  0
 15 41  1  0
 16 17  1  0
 16 42  1  0
 17 43  1  0
 18 19  1  0
 18 44  1  6
 18 45  1  0
 19 20  1  0
 19 34  1  0
 19 68  1  6
 20 21  1  0
 20 46  1  6
 20 47  1  0
 21 22  1  0
 21 26  2  0
 22 23  2  0
 22 48  1  0
 23 24  1  0
 23 49  1  0
 24 25  2  0
 24 27  1  0
 25 26  1  0
 25 50  1  0
 26 51  1  0
 27 28  1  0
 27 52  1  6
 27 53  1  0
 28 29  1  0
 28 33  1  0
 28 67  1  6
 29 30  1  0
 29 54  1  6
 29 55  1  0
 30 31  1  0
 30 56  1  1
 30 57  1  0
 31 32  1  0
 32 58  1  6
 32 59  1  0
 32 60  1  0
 33 61  1  1
 33 62  1  0
 33 63  1  0
 34 64  1  1
 34 65  1  0
 34 66  1  0
M  CHG  2  19   1  28   1
M  END
>  <s_epik_cmdline>  (1604) 
J2VwaWtfcHl0aG9uJywgJy1waCcsICc3LjAwMDAwMCcsICctcGh0JywgJzIuMDAwMDAwJywgJy1tcycsICcxNicsICctdG4nLCAnOCcsICctbWEnLCAnMjAwJywgJy1pbWFlJywgJzxpbmZpbGUubWFlPicsICctb21hZScsICc8b3V0ZmlsZS5tYWU+Jw==

>  <s_epik_input>  (1604) 
W2NIXTFbY0hdW2NIXVtjSF1bY0hdYzEtYyhjKGMyMylbY0hdW2NIXVtjSF1bY0hdMyljKENsKWMobjIpW0NIMl1OKFtDSDNdKVtDSDJdYzRbY0hdW2NIXWMoW2NIXVtjSF00KVtDSDJdTihbQ0gzXSlbQ0gyXVtDSDJdT1tDSDNd

>  <s_i_glide_gridfile>  (1604) 
ATP-Grid

>  <s_lp_Force_Field>  (1604) 
OPLS_2005

>  <s_lp_Variant>  (1604) 
m_2230bbc____17609644____7471132-1

>  <s_lp_label>  (1604) 
750_sdstereoexpander_1_neutralizer_1_epik_1_stereoizer_1

>  <s_m_source_file>  (1604) 
ATP-VSW-LIGPREP-003-in.maegz

>  <s_sd_BIOSOLVEIT.INFINISEE\_QUERY\_NAME>  (1604) 
Ref-Lig

>  <s_sd_BIOSOLVEIT.INFINISEE\_QUERY\_SMILES>  (1604) 
S(c1nc2c(cc1C[NH2+]Cc3ccc(cc3)C[NH+](C)C)cccc2)Cc4ccccc4

>  <s_sd_BIOSOLVEIT.INFINISEE\_REACTION\_NAME>  (1604) 
m_2230bbc

>  <s_sd_BIOSOLVEIT.INFINISEE\_REAGENT1\_SMILES>  (1604) 
[R1*]N(Cc1ccc(cc1)CN(CCOC)C)C

>  <s_sd_BIOSOLVEIT.INFINISEE\_REAGENT2\_SMILES>  (1604) 
[R1*]Cc1nc2c(c(c1Cl)c3ccccc3)cccc2

>  <s_sd_BIOSOLVEIT.INFINISEE\_SPACE>  (1604) 
REALSpace_44bn_2023-08

>  <s_vsw_compound_code>  (1604) 
23971

>  <s_vsw_variant>  (1604) 
23971-1

>  <r_epik_Charging_Adjusted_Penalty>  (1604) 
0.90575162551220301

>  <r_epik_Ionization_Penalty>  (1604) 
0.45119999999999999

>  <r_epik_Ionization_Penalty_Charging>  (1604) 
0.45119999999999999

>  <r_epik_Ionization_Penalty_Neutral>  (1604) 
0

>  <r_epik_State_Penalty>  (1604) 
0.45450000000000002

>  <r_i_docking_score>  (1604) 
-4.4526391195386701

>  <r_i_glide_ecoul>  (1604) 
-12.0848960876465

>  <r_i_glide_eff_state_penalty>  (1604) 
0.45450000000000002

>  <r_i_glide_einternal>  (1604) 
4.0657300949096697

>  <r_i_glide_emodel>  (1604) 
-65.476002730509805

>  <r_i_glide_energy>  (1604) 
-46.170059204101598

>  <r_i_glide_erotb>  (1604) 
0.80406608547928504

>  <r_i_glide_esite>  (1604) 
-0.11543990599554201

>  <r_i_glide_evdw>  (1604) 
-34.085163116455099

>  <r_i_glide_gscore>  (1604) 
-4.9071391195386704

>  <r_i_glide_hbond>  (1604) 
-0.20000000000000001

>  <r_i_glide_ligand_efficiency>  (1604) 
-0.130959974104079

>  <r_i_glide_ligand_efficiency_ln>  (1604) 
-0.98371287380301198

>  <r_i_glide_ligand_efficiency_sa>  (1604) 
-0.42425947710387002

>  <r_i_glide_lipo>  (1604) 
-1.2654940482345101

>  <r_i_glide_metal>  (1604) 
-0

>  <r_i_glide_rewards>  (1604) 
-0.61327868181818102

>  <r_lp_Energy>  (1604) 
27.438065000000002

>  <r_qp_ACxDN^.5/SA>  (1604) 
0

>  <r_qp_CIQPlogS>  (1604) 
-5.2549999999999999

>  <r_qp_EA(eV)>  (1604) 
0.95099999999999996

>  <r_qp_FISA>  (1604) 
7.6950000000000003

>  <r_qp_FOSA>  (1604) 
335.75900000000001

>  <r_qp_IP(eV)>  (1604) 
8.7899999999999991

>  <r_qp_Jm>  (1604) 
1.45447972815264

>  <r_qp_PISA>  (1604) 
297.53899999999999

>  <r_qp_PSA>  (1604) 
25.189

>  <r_qp_PercentHumanOralAbsorption>  (1604) 
100

>  <r_qp_QPPCaco>  (1604) 
520.86400000000003

>  <r_qp_QPPMDCK>  (1604) 
499.14800000000002

>  <r_qp_QPlogBB>  (1604) 
0.79300000000000004

>  <r_qp_QPlogHERG>  (1604) 
-6.157

>  <r_qp_QPlogKhsa>  (1604) 
0.48999999999999999

>  <r_qp_QPlogKp>  (1604) 
-3.778

>  <r_qp_QPlogPC16>  (1604) 
13.638999999999999

>  <r_qp_QPlogPo/w>  (1604) 
4.6180000000000003

>  <r_qp_QPlogPoct>  (1604) 
19.059000000000001

>  <r_qp_QPlogPw>  (1604) 
7.843

>  <r_qp_QPlogS>  (1604) 
-1.7350000000000001

>  <r_qp_QPpolrz>  (1604) 
46.640000000000001

>  <r_qp_SASA>  (1604) 
681.57500000000005

>  <r_qp_SAamideO>  (1604) 
0

>  <r_qp_SAfluorine>  (1604) 
0

>  <r_qp_WPSA>  (1604) 
40.582000000000001

>  <r_qp_accptHB>  (1604) 
6.7000000000000002

>  <r_qp_dip^2/V>  (1604) 
0.0059373999999999998

>  <r_qp_dipole>  (1604) 
2.8919999999999999

>  <r_qp_donorHB>  (1604) 
0

>  <r_qp_glob>  (1604) 
0.89163020000000004

>  <r_qp_mol_MW>  (1604) 
474.04399999999998

>  <r_qp_volume>  (1604) 
1408.6410000000001

>  <r_sd_BIOSOLVEIT.INFINISEE\_FTREES\_SIMILARITY>  (1604) 
0.92600000000000005

>  <r_sd_BIOSOLVEIT.LOGP>  (1604) 
3.4312

>  <r_sd_BIOSOLVEIT.MOLECULAR\_WEIGHT>  (1604) 
476.06099999999998

>  <i_epik_Tot_Q>  (1604) 
2

>  <i_epik_Tot_abs_Q>  (1604) 
2

>  <i_f3d_flags>  (1604) 
0

>  <i_i_glide_confnum>  (1604) 
11

>  <i_i_glide_lignum>  (1604) 
317

>  <i_i_glide_posenum>  (1604) 
1

>  <i_i_glide_rotatable_bonds>  (1604) 
10

>  <i_lp_mmshare_version>  (1604) 
65135

>  <i_m_ct_format>  (1604) 
2

>  <i_m_source_file_index>  (1604) 
750

>  <i_qp_#NandO>  (1604) 
4

>  <i_qp_#acid>  (1604) 
0

>  <i_qp_#amide>  (1604) 
0

>  <i_qp_#amidine>  (1604) 
0

>  <i_qp_#amine>  (1604) 
2

>  <i_qp_#in34>  (1604) 
0

>  <i_qp_#in56>  (1604) 
22

>  <i_qp_#metab>  (1604) 
6

>  <i_qp_#nonHatm>  (1604) 
34

>  <i_qp_#noncon>  (1604) 
0

>  <i_qp_#ringatoms>  (1604) 
22

>  <i_qp_#rotor>  (1604) 
10

>  <i_qp_#rtvFG>  (1604) 
0

>  <i_qp_#stars>  (1604) 
0

>  <i_qp_CNS>  (1604) 
2

>  <i_qp_HumanOralAbsorption>  (1604) 
3

>  <i_qp_RuleOfFive>  (1604) 
0

>  <i_qp_RuleOfThree>  (1604) 
0

>  <i_sd_BIOSOLVEIT.INFINISEE\_REAGENT1\_NAME>  (1604) 
17609644

>  <i_sd_BIOSOLVEIT.INFINISEE\_REAGENT2\_NAME>  (1604) 
7471132

>  <i_sd_BIOSOLVEIT.INFINISEE\_RESULT\_RANK>  (1604) 
7815

>  <i_sd_BIOSOLVEIT.TPSA>  (1604) 
31

>  <i_sd_version>  (1604) 
0

>  <b_lp_Chiralities_Consistent>  (1604) 
1

>  <b_sd_chiral_flag>  (1604) 
0

>  <canonical_id>  (1604) 
ATP-HTVS-FC30DD28CEC3

>  <compound_code>  (1604) 
23971

>  <title>  (1604) 
m_2230bbc____17609644____7471132

>  <variant>  (1604) 
23971-1

>  <source_file>  (1604) 
运行/运行/ATP-VSW/ATP-VSW-DOCK_HTVS_1-003_lib/ATP-VSW-DOCK_HTVS_1-003_lib.mae

>  <canonical_smiles>  (1604) 
COCC[N@H+](C)Cc1ccc(C[N@@H+](C)Cc2nc3ccccc3c(-c3ccccc3)c2Cl)cc1

>  <scaffold>  (1604) 
c1ccc(C[NH2+]Cc2cc(-c3ccccc3)c3ccccc3n2)cc1

>  <molecular_formula>  (1604) 
C29H34ClN3O+2

$$$$
ATP-HTVS-FC39CD496C36
     RDKit          3D

 57 60  0  0  0  0  0  0  0  0999 V2000
  199.1043  178.7373  153.3100 N   0  0  0  0  0  0  0  0  0  0  0  0
  198.1206  179.4450  152.7087 C   0  0  0  0  0  0  0  0  0  0  0  0
  197.7737  179.0581  151.3130 C   0  0  0  0  0  0  0  0  0  0  0  0
  196.7365  179.7218  150.7562 N   0  0  0  0  0  0  0  0  0  0  0  0
  196.3841  179.4422  149.4820 C   0  0  0  0  0  0  0  0  0  0  0  0
  197.0393  178.4850  148.6877 C   0  0  0  0  0  0  0  0  0  0  0  0
  198.1068  177.7739  149.2547 C   0  0  0  0  0  0  0  0  0  0  0  0
  198.4845  178.0634  150.5799 C   0  0  0  0  0  0  0  0  0  0  0  0
  197.5274  180.5095  153.4402 C   0  0  0  0  0  0  0  0  0  0  0  0
  197.9637  180.8100  154.7519 C   0  0  0  0  0  0  0  0  0  0  0  0
  197.3795  181.8873  155.4396 N   0  0  0  0  0  0  0  0  0  0  0  0
  196.5858  181.5638  156.6211 C   0  0  1  0  0  0  0  0  0  0  0  0
  196.0999  182.8269  157.3758 C   0  0  1  0  0  0  0  0  0  0  0  0
  195.2086  182.5083  158.5350 N   0  0  2  0  0  0  0  0  0  0  0  0
  194.0285  181.6561  158.2192 C   0  0  2  0  0  0  0  0  0  0  0  0
  194.7907  183.7151  159.2977 C   0  0  2  0  0  0  0  0  0  0  0  0
  197.2653  183.7386  157.7836 C   0  0  0  0  0  0  0  0  0  0  0  0
  198.1018  183.3986  158.8700 C   0  0  0  0  0  0  0  0  0  0  0  0
  199.1377  184.2626  159.2775 C   0  0  0  0  0  0  0  0  0  0  0  0
  199.3516  185.4798  158.6010 C   0  0  0  0  0  0  0  0  0  0  0  0
  198.5288  185.8231  157.5090 C   0  0  0  0  0  0  0  0  0  0  0  0
  197.4912  184.9597  157.1054 C   0  0  0  0  0  0  0  0  0  0  0  0
  200.4667  186.4057  159.0417 C   0  0  2  0  0  0  0  0  0  0  0  0
  199.0110  180.0280  155.3201 C   0  0  0  0  0  0  0  0  0  0  0  0
  199.5592  178.9604  154.5607 C   0  0  0  0  0  0  0  0  0  0  0  0
  200.5974  178.1547  155.0830 C   0  0  0  0  0  0  0  0  0  0  0  0
  201.0888  178.4029  156.3792 C   0  0  0  0  0  0  0  0  0  0  0  0
  200.5633  179.4698  157.1301 C   0  0  0  0  0  0  0  0  0  0  0  0
  199.5555  180.2989  156.5965 C   0  0  0  0  0  0  0  0  0  0  0  0
  195.5386  179.9771  149.0875 H   0  0  0  0  0  0  0  0  0  0  0  0
  196.7140  178.2813  147.6803 H   0  0  0  0  0  0  0  0  0  0  0  0
  198.6235  177.0156  148.6878 H   0  0  0  0  0  0  0  0  0  0  0  0
  199.3170  177.5153  150.9966 H   0  0  0  0  0  0  0  0  0  0  0  0
  196.7455  181.0982  152.9782 H   0  0  0  0  0  0  0  0  0  0  0  0
  196.9225  182.5673  154.8380 H   0  0  0  0  0  0  0  0  0  0  0  0
  195.7409  180.9812  156.2533 H   0  0  0  0  0  0  0  0  0  0  0  0
  197.1363  180.9379  157.3330 H   0  0  0  0  0  0  0  0  0  0  0  0
  195.5512  183.4265  156.6574 H   0  0  0  0  0  0  0  0  0  0  0  0
  193.3527  182.1156  157.5053 H   0  0  0  0  0  0  0  0  0  0  0  0
  193.4287  181.4688  159.1072 H   0  0  0  0  0  0  0  0  0  0  0  0
  194.3034  180.6783  157.8342 H   0  0  0  0  0  0  0  0  0  0  0  0
  194.2430  184.4098  158.6563 H   0  0  0  0  0  0  0  0  0  0  0  0
  195.6300  184.2549  159.7426 H   0  0  0  0  0  0  0  0  0  0  0  0
  194.1381  183.4412  160.1276 H   0  0  0  0  0  0  0  0  0  0  0  0
  197.9373  182.4845  159.4167 H   0  0  0  0  0  0  0  0  0  0  0  0
  199.7599  183.9917  160.1198 H   0  0  0  0  0  0  0  0  0  0  0  0
  198.6856  186.7533  156.9787 H   0  0  0  0  0  0  0  0  0  0  0  0
  196.8628  185.2495  156.2729 H   0  0  0  0  0  0  0  0  0  0  0  0
  200.2656  187.4332  158.7402 H   0  0  0  0  0  0  0  0  0  0  0  0
  201.4087  186.0924  158.5940 H   0  0  0  0  0  0  0  0  0  0  0  0
  200.5786  186.3873  160.1248 H   0  0  0  0  0  0  0  0  0  0  0  0
  201.0359  177.3571  154.4966 H   0  0  0  0  0  0  0  0  0  0  0  0
  201.8865  177.7929  156.7909 H   0  0  0  0  0  0  0  0  0  0  0  0
  200.9383  179.6586  158.1252 H   0  0  0  0  0  0  0  0  0  0  0  0
  199.2116  181.1419  157.1783 H   0  0  0  0  0  0  0  0  0  0  0  0
  195.7771  181.9494  159.1584 H   0  0  0  0  0  0  0  0  0  0  0  0
  199.5417  177.9868  152.7711 H   0  0  0  0  0  0  0  0  0  0  0  0
  1  2  2  0
  1 25  1  0
  1 57  1  0
  2  3  1  0
  2  9  1  0
  3  4  1  0
  3  8  2  0
  4  5  2  0
  5  6  1  0
  5 30  1  0
  6  7  2  0
  6 31  1  0
  7  8  1  0
  7 32  1  0
  8 33  1  0
  9 10  2  0
  9 34  1  0
 10 11  1  0
 10 24  1  0
 11 12  1  0
 11 35  1  0
 12 13  1  0
 12 36  1  6
 12 37  1  0
 13 14  1  0
 13 17  1  0
 13 38  1  6
 14 15  1  0
 14 16  1  0
 14 56  1  1
 15 39  1  6
 15 40  1  0
 15 41  1  0
 16 42  1  6
 16 43  1  0
 16 44  1  0
 17 18  1  0
 17 22  2  0
 18 19  2  0
 18 45  1  0
 19 20  1  0
 19 46  1  0
 20 21  2  0
 20 23  1  0
 21 22  1  0
 21 47  1  0
 22 48  1  0
 23 49  1  6
 23 50  1  0
 23 51  1  0
 24 25  1  0
 24 29  2  0
 25 26  2  0
 26 27  1  0
 26 52  1  0
 27 28  2  0
 27 53  1  0
 28 29  1  0
 28 54  1  0
 29 55  1  0
M  CHG  2   1   1  14   1
M  END
>  <s_epik_cmdline>  (1605) 
J2VwaWtfcHl0aG9uJywgJy1waCcsICc3LjAwMDAwMCcsICctcGh0JywgJzIuMDAwMDAwJywgJy1tcycsICcxNicsICctdG4nLCAnOCcsICctbWEnLCAnMjAwJywgJy1pbWFlJywgJzxpbmZpbGUubWFlPicsICctb21hZScsICc8b3V0ZmlsZS5tYWU+Jw==

>  <s_epik_input>  (1605) 
W2NIXTFbY0hdW2NIXVtjSF1uYzEtYyhuYyhjMjMpW2NIXVtjSF1bY0hdW2NIXTMpW2NIXWMyW05IXVtDSDJdW0NAQEhdKE4oW0NIM10pW0NIM10pYzRbY0hdW2NIXWMoW0NIM10pW2NIXVtjSF00

>  <s_i_glide_gridfile>  (1605) 
ATP-Grid

>  <s_lp_Force_Field>  (1605) 
OPLS_2005

>  <s_lp_Variant>  (1605) 
YAS_R004____OTV5753507____OTV1051744____OTV7020410266-4

>  <s_lp_label>  (1605) 
64_sdstereoexpander_2_neutralizer_1_epik_2_stereoizer_1

>  <s_m_source_file>  (1605) 
ATP-VSW-LIGPREP-003-in.maegz

>  <s_sd_BIOSOLVEIT.INFINISEE\_QUERY\_NAME>  (1605) 
Ref-Lig

>  <s_sd_BIOSOLVEIT.INFINISEE\_QUERY\_SMILES>  (1605) 
S(c1nc2c(cc1C[NH2+]Cc3ccc(cc3)C[NH+](C)C)cccc2)Cc4ccccc4

>  <s_sd_BIOSOLVEIT.INFINISEE\_REACTION\_NAME>  (1605) 
YAS_R004

>  <s_sd_BIOSOLVEIT.INFINISEE\_REAGENT1\_NAME>  (1605) 
OTV5753507

>  <s_sd_BIOSOLVEIT.INFINISEE\_REAGENT1\_SMILES>  (1605) 
Nc1ccccc1

>  <s_sd_BIOSOLVEIT.INFINISEE\_REAGENT2\_NAME>  (1605) 
OTV1051744

>  <s_sd_BIOSOLVEIT.INFINISEE\_REAGENT2\_SMILES>  (1605) 
O=C(O)c1ncccc1

>  <s_sd_BIOSOLVEIT.INFINISEE\_REAGENT3\_NAME>  (1605) 
OTV7020410266

>  <s_sd_BIOSOLVEIT.INFINISEE\_REAGENT3\_SMILES>  (1605) 
N(C(c1ccc(cc1)C)CN)(C)C

>  <s_sd_BIOSOLVEIT.INFINISEE\_SPACE>  (1605) 
CHEMriya_12bn_2022-01

>  <s_vsw_compound_code>  (1605) 
2019

>  <s_vsw_variant>  (1605) 
2019-4

>  <r_epik_Charging_Adjusted_Penalty>  (1605) 
4.6338150700794403

>  <r_epik_Ionization_Penalty>  (1605) 
3.0001000000000002

>  <r_epik_Ionization_Penalty_Charging>  (1605) 
3

>  <r_epik_Ionization_Penalty_Neutral>  (1605) 
0.0001

>  <r_epik_State_Penalty>  (1605) 
1.6337999999999999

>  <r_i_docking_score>  (1605) 
-3.0239512854161199

>  <r_i_glide_ecoul>  (1605) 
-10.904122352600099

>  <r_i_glide_eff_state_penalty>  (1605) 
1.6337999999999999

>  <r_i_glide_einternal>  (1605) 
4.3732852935790998

>  <r_i_glide_emodel>  (1605) 
-55.531837434793502

>  <r_i_glide_energy>  (1605) 
-39.144009590148897

>  <r_i_glide_erotb>  (1605) 
0.65752503595296397

>  <r_i_glide_esite>  (1605) 
-0.097992950584847499

>  <r_i_glide_evdw>  (1605) 
-28.2398872375488

>  <r_i_glide_gscore>  (1605) 
-4.6577512854161203

>  <r_i_glide_hbond>  (1605) 
0

>  <r_i_glide_ligand_efficiency>  (1605) 
-0.104274182255728

>  <r_i_glide_ligand_efficiency_ln>  (1605) 
-0.69240816357189305

>  <r_i_glide_ligand_efficiency_sa>  (1605) 
-0.32036332426932101

>  <r_i_glide_lipo>  (1605) 
-1.1572839741986001

>  <r_i_glide_metal>  (1605) 
-0

>  <r_i_glide_rewards>  (1605) 
-1.0123866818181799

>  <r_lp_Energy>  (1605) 
33.981943999999999

>  <r_qp_ACxDN^.5/SA>  (1605) 
0.0073747999999999999

>  <r_qp_CIQPlogS>  (1605) 
-5.2619999999999996

>  <r_qp_EA(eV)>  (1605) 
0.80900000000000005

>  <r_qp_FISA>  (1605) 
42.497999999999998

>  <r_qp_FOSA>  (1605) 
236.73099999999999

>  <r_qp_IP(eV)>  (1605) 
8.2230000000000008

>  <r_qp_Jm>  (1605) 
0.040908127169009899

>  <r_qp_PISA>  (1605) 
398.75099999999998

>  <r_qp_PSA>  (1605) 
37.206000000000003

>  <r_qp_PercentHumanOralAbsorption>  (1605) 
100

>  <r_qp_QPPCaco>  (1605) 
976.75900000000001

>  <r_qp_QPPMDCK>  (1605) 
533.57000000000005

>  <r_qp_QPlogBB>  (1605) 
0.19400000000000001

>  <r_qp_QPlogHERG>  (1605) 
-6.8259999999999996

>  <r_qp_QPlogKhsa>  (1605) 
0.83899999999999997

>  <r_qp_QPlogKp>  (1605) 
-2.3849999999999998

>  <r_qp_QPlogPC16>  (1605) 
13.316000000000001

>  <r_qp_QPlogPo/w>  (1605) 
4.7990000000000004

>  <r_qp_QPlogPoct>  (1605) 
18.885999999999999

>  <r_qp_QPlogPw>  (1605) 
9.4179999999999993

>  <r_qp_QPlogS>  (1605) 
-4.5860000000000003

>  <r_qp_QPpolrz>  (1605) 
44.509

>  <r_qp_SASA>  (1605) 
677.98099999999999

>  <r_qp_SAamideO>  (1605) 
0

>  <r_qp_SAfluorine>  (1605) 
0

>  <r_qp_WPSA>  (1605) 
0

>  <r_qp_accptHB>  (1605) 
5

>  <r_qp_dip^2/V>  (1605) 
0.0100213

>  <r_qp_dipole>  (1605) 
3.5630000000000002

>  <r_qp_donorHB>  (1605) 
1

>  <r_qp_glob>  (1605) 
0.83523670000000005

>  <r_qp_mol_MW>  (1605) 
382.50700000000001

>  <r_qp_volume>  (1605) 
1267.047

>  <r_sd_BIOSOLVEIT.INFINISEE\_FTREES\_SIMILARITY>  (1605) 
0.91400000000000003

>  <r_sd_BIOSOLVEIT.LOGP>  (1605) 
3.9029199999999999

>  <r_sd_BIOSOLVEIT.MOLECULAR\_WEIGHT>  (1605) 
383.51600000000002

>  <r_sd_BIOSOLVEIT.TPSA>  (1605) 
42.25

>  <i_epik_Tot_Q>  (1605) 
2

>  <i_epik_Tot_abs_Q>  (1605) 
2

>  <i_f3d_flags>  (1605) 
0

>  <i_i_glide_confnum>  (1605) 
2

>  <i_i_glide_lignum>  (1605) 
172

>  <i_i_glide_posenum>  (1605) 
5

>  <i_i_glide_rotatable_bonds>  (1605) 
6

>  <i_lp_mmshare_version>  (1605) 
65135

>  <i_m_ct_format>  (1605) 
2

>  <i_m_source_file_index>  (1605) 
64

>  <i_qp_#NandO>  (1605) 
4

>  <i_qp_#acid>  (1605) 
0

>  <i_qp_#amide>  (1605) 
0

>  <i_qp_#amidine>  (1605) 
0

>  <i_qp_#amine>  (1605) 
1

>  <i_qp_#in34>  (1605) 
0

>  <i_qp_#in56>  (1605) 
22

>  <i_qp_#metab>  (1605) 
6

>  <i_qp_#nonHatm>  (1605) 
29

>  <i_qp_#noncon>  (1605) 
0

>  <i_qp_#ringatoms>  (1605) 
22

>  <i_qp_#rotor>  (1605) 
6

>  <i_qp_#rtvFG>  (1605) 
0

>  <i_qp_#stars>  (1605) 
0

>  <i_qp_CNS>  (1605) 
1

>  <i_qp_HumanOralAbsorption>  (1605) 
3

>  <i_qp_RuleOfFive>  (1605) 
0

>  <i_qp_RuleOfThree>  (1605) 
0

>  <i_sd_BIOSOLVEIT.INFINISEE\_RESULT\_RANK>  (1605) 
30492

>  <i_sd_version>  (1605) 
0

>  <b_lp_Chiralities_Consistent>  (1605) 
1

>  <b_sd_chiral_flag>  (1605) 
0

>  <canonical_id>  (1605) 
ATP-HTVS-FC39CD496C36

>  <compound_code>  (1605) 
2019

>  <title>  (1605) 
YAS_R004____OTV5753507____OTV1051744____OTV7020410266

>  <variant>  (1605) 
2019-4

>  <source_file>  (1605) 
运行/运行/ATP-VSW/ATP-VSW-DOCK_HTVS_1-003_lib/ATP-VSW-DOCK_HTVS_1-003_lib.mae

>  <canonical_smiles>  (1605) 
Cc1ccc([C@@H](CNc2cc(-c3ccccn3)[nH+]c3ccccc23)[NH+](C)C)cc1

>  <scaffold>  (1605) 
c1ccc(CCNc2cc(-c3ccccn3)[nH+]c3ccccc23)cc1

>  <molecular_formula>  (1605) 
C25H28N4+2

$$$$
ATP-HTVS-FC732D287CB6
     RDKit          3D

 62 65  0  0  0  0  0  0  0  0999 V2000
  198.4038  182.0378  156.8930 O   0  0  0  0  0  0  0  0  0  0  0  0
  197.1882  181.8812  156.9251 C   0  0  0  0  0  0  0  0  0  0  0  0
  196.4105  181.9345  155.8410 N   0  0  0  0  0  0  0  0  0  0  0  0
  196.8197  182.2992  154.5360 C   0  0  0  0  0  0  0  0  0  0  0  0
  196.6695  181.4370  153.5200 N   0  0  0  0  0  0  0  0  0  0  0  0
  196.9592  181.7904  152.2616 C   0  0  0  0  0  0  0  0  0  0  0  0
  197.4637  183.0796  151.9520 C   0  0  0  0  0  0  0  0  0  0  0  0
  197.6304  184.0087  152.9888 C   0  0  0  0  0  0  0  0  0  0  0  0
  197.3075  183.6328  154.3169 C   0  0  0  0  0  0  0  0  0  0  0  0
  197.4438  184.5429  155.3793 N   0  0  0  0  0  0  0  0  0  0  0  0
  197.3569  185.9895  155.1560 C   0  0  1  0  0  0  0  0  0  0  0  0
  197.6100  186.7744  156.4194 C   0  0  0  0  0  0  0  0  0  0  0  0
  196.5485  187.0542  157.2943 C   0  0  0  0  0  0  0  0  0  0  0  0
  196.7695  187.8483  158.4342 C   0  0  0  0  0  0  0  0  0  0  0  0
  198.0697  188.2867  158.7716 C   0  0  0  0  0  0  0  0  0  0  0  0
  199.1410  187.9862  157.9006 C   0  0  0  0  0  0  0  0  0  0  0  0
  198.9037  187.2429  156.7236 C   0  0  0  0  0  0  0  0  0  0  0  0
  198.3003  189.0483  160.0691 C   0  0  1  0  0  0  0  0  0  0  0  0
  197.6090  190.3622  160.0493 N   0  0  1  0  0  0  0  0  0  0  0  0
  196.4037  190.3977  160.9053 C   0  0  2  0  0  0  0  0  0  0  0  0
  198.5003  191.5038  160.3256 C   0  0  2  0  0  0  0  0  0  0  0  0
  197.8060  183.4345  150.6308 C   0  0  0  0  0  0  0  0  0  0  0  0
  197.6547  182.5015  149.5925 C   0  0  0  0  0  0  0  0  0  0  0  0
  197.1476  181.2204  149.8815 C   0  0  0  0  0  0  0  0  0  0  0  0
  196.7941  180.8819  151.2044 C   0  0  0  0  0  0  0  0  0  0  0  0
  196.4950  181.6655  158.2715 C   0  0  1  0  0  0  0  0  0  0  0  0
  196.1173  182.9805  158.9256 C   0  0  0  0  0  0  0  0  0  0  0  0
  197.1156  183.8206  159.4658 C   0  0  0  0  0  0  0  0  0  0  0  0
  196.7448  185.0157  160.1079 C   0  0  0  0  0  0  0  0  0  0  0  0
  195.3789  185.3288  160.2815 C   0  0  0  0  0  0  0  0  0  0  0  0
  194.9711  186.4948  161.0372 C   0  0  0  0  0  0  0  0  0  0  0  0
  194.6177  187.3912  161.6945 N   0  0  0  0  0  0  0  0  0  0  0  0
  194.3889  184.5160  159.6998 C   0  0  0  0  0  0  0  0  0  0  0  0
  194.7574  183.3442  159.0287 C   0  0  0  0  0  0  0  0  0  0  0  0
  195.4043  181.7556  155.9474 H   0  0  0  0  0  0  0  0  0  0  0  0
  198.0141  184.9937  152.7538 H   0  0  0  0  0  0  0  0  0  0  0  0
  197.1781  184.2179  156.2876 H   0  0  0  0  0  0  0  0  0  0  0  0
  198.0951  186.3159  154.4184 H   0  0  0  0  0  0  0  0  0  0  0  0
  196.3691  186.2322  154.7671 H   0  0  0  0  0  0  0  0  0  0  0  0
  195.5560  186.6647  157.1135 H   0  0  0  0  0  0  0  0  0  0  0  0
  195.9181  188.0911  159.0661 H   0  0  0  0  0  0  0  0  0  0  0  0
  200.1436  188.3212  158.1257 H   0  0  0  0  0  0  0  0  0  0  0  0
  199.7207  187.0156  156.0537 H   0  0  0  0  0  0  0  0  0  0  0  0
  197.9707  188.4409  160.9246 H   0  0  0  0  0  0  0  0  0  0  0  0
  199.3751  189.1711  160.2017 H   0  0  0  0  0  0  0  0  0  0  0  0
  196.6543  190.2044  161.9479 H   0  0  0  0  0  0  0  0  0  0  0  0
  195.6927  189.6282  160.5682 H   0  0  0  0  0  0  0  0  0  0  0  0
  195.8739  191.3524  160.8387 H   0  0  0  0  0  0  0  0  0  0  0  0
  198.9286  191.4383  161.3299 H   0  0  0  0  0  0  0  0  0  0  0  0
  197.9474  192.4429  160.2653 H   0  0  0  0  0  0  0  0  0  0  0  0
  199.3127  191.5424  159.6004 H   0  0  0  0  0  0  0  0  0  0  0  0
  198.2104  184.4137  150.4038 H   0  0  0  0  0  0  0  0  0  0  0  0
  197.9244  182.7620  148.5808 H   0  0  0  0  0  0  0  0  0  0  0  0
  197.0350  180.4995  149.0847 H   0  0  0  0  0  0  0  0  0  0  0  0
  196.4067  179.8942  151.4116 H   0  0  0  0  0  0  0  0  0  0  0  0
  195.5825  181.0917  158.1246 H   0  0  0  0  0  0  0  0  0  0  0  0
  197.1385  181.0880  158.9338 H   0  0  0  0  0  0  0  0  0  0  0  0
  198.1599  183.5443  159.4046 H   0  0  0  0  0  0  0  0  0  0  0  0
  197.5126  185.6476  160.5273 H   0  0  0  0  0  0  0  0  0  0  0  0
  193.3520  184.7959  159.7860 H   0  0  0  0  0  0  0  0  0  0  0  0
  193.9863  182.7138  158.6172 H   0  0  0  0  0  0  0  0  0  0  0  0
  197.2879  190.4685  159.0968 H   0  0  0  0  0  0  0  0  0  0  0  0
  1  2  2  0
  2  3  1  0
  2 26  1  0
  3  4  1  0
  3 35  1  0
  4  5  2  0
  4  9  1  0
  5  6  1  0
  6  7  1  0
  6 25  2  0
  7  8  1  0
  7 22  2  0
  8  9  2  0
  8 36  1  0
  9 10  1  0
 10 11  1  0
 10 37  1  0
 11 12  1  0
 11 38  1  6
 11 39  1  0
 12 13  1  0
 12 17  2  0
 13 14  2  0
 13 40  1  0
 14 15  1  0
 14 41  1  0
 15 16  2  0
 15 18  1  0
 16 17  1  0
 16 42  1  0
 17 43  1  0
 18 19  1  0
 18 44  1  1
 18 45  1  0
 19 20  1  0
 19 21  1  0
 19 62  1  6
 20 46  1  1
 20 47  1  0
 20 48  1  0
 21 49  1  1
 21 50  1  0
 21 51  1  0
 22 23  1  0
 22 52  1  0
 23 24  2  0
 23 53  1  0
 24 25  1  0
 24 54  1  0
 25 55  1  0
 26 27  1  0
 26 56  1  6
 26 57  1  0
 27 28  1  0
 27 34  2  0
 28 29  2  0
 28 58  1  0
 29 30  1  0
 29 59  1  0
 30 31  1  0
 30 33  2  0
 31 32  3  0
 33 34  1  0
 33 60  1  0
 34 61  1  0
M  CHG  1  19   1
M  END
>  <s_epik_cmdline>  (1606) 
J2VwaWtfcHl0aG9uJywgJy1waCcsICc3LjAwMDAwMCcsICctcGh0JywgJzIuMDAwMDAwJywgJy1tcycsICcxNicsICctdG4nLCAnOCcsICctbWEnLCAnMjAwJywgJy1pbWFlJywgJzxpbmZpbGUubWFlPicsICctb21hZScsICc8b3V0ZmlsZS5tYWU+Jw==

>  <s_epik_input>  (1606) 
TiNDYyhbY0hdW2NIXTEpW2NIXVtjSF1jMVtDSDJdQyg9TylbTkhdYyhuMiljKFtjSF1jKGMyMylbY0hdW2NIXVtjSF1bY0hdMylbTkhdW0NIMl1jNFtjSF1bY0hdYyhbY0hdW2NIXTQpW0NIMl1OKFtDSDNdKVtDSDNd

>  <s_i_glide_gridfile>  (1606) 
ATP-Grid

>  <s_lp_Force_Field>  (1606) 
OPLS_2005

>  <s_lp_Variant>  (1606) 
rxn502b____EMOL525400____EMOL44466703____EMOL50155899-1

>  <s_lp_label>  (1606) 
2228_sdstereoexpander_1_neutralizer_1_epik_1_stereoizer_1

>  <s_m_source_file>  (1606) 
ATP-VSW-LIGPREP-001-in.maegz

>  <s_sd_BIOSOLVEIT.INFINISEE\_QUERY\_NAME>  (1606) 
Ref-Lig

>  <s_sd_BIOSOLVEIT.INFINISEE\_QUERY\_SMILES>  (1606) 
S(c1nc2c(cc1C[NH2+]Cc3ccc(cc3)C[NH+](C)C)cccc2)Cc4ccccc4

>  <s_sd_BIOSOLVEIT.INFINISEE\_REACTION\_NAME>  (1606) 
rxn502b

>  <s_sd_BIOSOLVEIT.INFINISEE\_REAGENT1\_NAME>  (1606) 
EMOL525400

>  <s_sd_BIOSOLVEIT.INFINISEE\_REAGENT1\_SMILES>  (1606) 
O=C(O)Cc1ccc(C#N)cc1

>  <s_sd_BIOSOLVEIT.INFINISEE\_REAGENT2\_NAME>  (1606) 
EMOL44466703

>  <s_sd_BIOSOLVEIT.INFINISEE\_REAGENT2\_SMILES>  (1606) 
Brc1c(nc2c(c1)cccc2)N

>  <s_sd_BIOSOLVEIT.INFINISEE\_REAGENT3\_NAME>  (1606) 
EMOL50155899

>  <s_sd_BIOSOLVEIT.INFINISEE\_REAGENT3\_SMILES>  (1606) 
N(Cc1ccc(cc1)CN)(C)C

>  <s_sd_BIOSOLVEIT.INFINISEE\_SPACE>  (1606) 
eXplore_7tr_2022-12

>  <s_vsw_compound_code>  (1606) 
71265

>  <s_vsw_variant>  (1606) 
71265-1

>  <r_epik_Charging_Adjusted_Penalty>  (1606) 
0.084471782990817298

>  <r_epik_Ionization_Penalty>  (1606) 
0.045699999999999998

>  <r_epik_Ionization_Penalty_Charging>  (1606) 
0.039199999999999999

>  <r_epik_Ionization_Penalty_Neutral>  (1606) 
0.0064999999999999997

>  <r_epik_State_Penalty>  (1606) 
0.0453

>  <r_i_docking_score>  (1606) 
-5.5559214577903901

>  <r_i_glide_ecoul>  (1606) 
-8.0929841995239293

>  <r_i_glide_eff_state_penalty>  (1606) 
0.0453

>  <r_i_glide_einternal>  (1606) 
12.0124502182007

>  <r_i_glide_emodel>  (1606) 
-64.338524808974498

>  <r_i_glide_energy>  (1606) 
-49.288483619689899

>  <r_i_glide_erotb>  (1606) 
0.79014693918398604

>  <r_i_glide_esite>  (1606) 
-0.16914988000711001

>  <r_i_glide_evdw>  (1606) 
-41.195499420166001

>  <r_i_glide_gscore>  (1606) 
-5.6012214577903903

>  <r_i_glide_hbond>  (1606) 
-0.095460953297354295

>  <r_i_glide_ligand_efficiency>  (1606) 
-0.16340945464089399

>  <r_i_glide_ligand_efficiency_ln>  (1606) 
-1.2274588883441899

>  <r_i_glide_ligand_efficiency_sa>  (1606) 
-0.52938319707269199

>  <r_i_glide_lipo>  (1606) 
-1.88913559460432

>  <r_i_glide_metal>  (1606) 
-0

>  <r_i_glide_rewards>  (1606) 
-0.96389936812870003

>  <r_lp_Energy>  (1606) 
22.813365000000001

>  <r_qp_ACxDN^.5/SA>  (1606) 
0.0150618

>  <r_qp_CIQPlogS>  (1606) 
-6.3849999999999998

>  <r_qp_EA(eV)>  (1606) 
0.98299999999999998

>  <r_qp_FISA>  (1606) 
103.233

>  <r_qp_FOSA>  (1606) 
235.227

>  <r_qp_IP(eV)>  (1606) 
8.3160000000000007

>  <r_qp_Jm>  (1606) 
0.0016051729075344701

>  <r_qp_PISA>  (1606) 
412.69400000000002

>  <r_qp_PSA>  (1606) 
87.472999999999999

>  <r_qp_PercentHumanOralAbsorption>  (1606) 
94.051000000000002

>  <r_qp_QPPCaco>  (1606) 
259.32100000000003

>  <r_qp_QPPMDCK>  (1606) 
127.25

>  <r_qp_QPlogBB>  (1606) 
-0.60499999999999998

>  <r_qp_QPlogHERG>  (1606) 
-7.1429999999999998

>  <r_qp_QPlogKhsa>  (1606) 
0.55000000000000004

>  <r_qp_QPlogKp>  (1606) 
-3.1669999999999998

>  <r_qp_QPlogPC16>  (1606) 
15.617000000000001

>  <r_qp_QPlogPo/w>  (1606) 
4.0819999999999999

>  <r_qp_QPlogPoct>  (1606) 
24.02

>  <r_qp_QPlogPw>  (1606) 
13.859999999999999

>  <r_qp_QPlogS>  (1606) 
-5.2800000000000002

>  <r_qp_QPpolrz>  (1606) 
49.505000000000003

>  <r_qp_SASA>  (1606) 
751.15499999999997

>  <r_qp_SAamideO>  (1606) 
0

>  <r_qp_SAfluorine>  (1606) 
0

>  <r_qp_WPSA>  (1606) 
0

>  <r_qp_accptHB>  (1606) 
8

>  <r_qp_dip^2/V>  (1606) 
0.0161648

>  <r_qp_dipole>  (1606) 
4.819

>  <r_qp_donorHB>  (1606) 
2

>  <r_qp_glob>  (1606) 
0.81974930000000001

>  <r_qp_mol_MW>  (1606) 
449.55399999999997

>  <r_qp_volume>  (1606) 
1436.7070000000001

>  <r_sd_BIOSOLVEIT.INFINISEE\_FTREES\_SIMILARITY>  (1606) 
0.92800000000000005

>  <r_sd_BIOSOLVEIT.LOGP>  (1606) 
3.5442800000000001

>  <r_sd_BIOSOLVEIT.MOLECULAR\_WEIGHT>  (1606) 
450.56299999999999

>  <r_sd_BIOSOLVEIT.TPSA>  (1606) 
82.25

>  <i_epik_Tot_Q>  (1606) 
1

>  <i_epik_Tot_abs_Q>  (1606) 
1

>  <i_f3d_flags>  (1606) 
0

>  <i_i_glide_confnum>  (1606) 
6

>  <i_i_glide_lignum>  (1606) 
754

>  <i_i_glide_posenum>  (1606) 
10

>  <i_i_glide_rotatable_bonds>  (1606) 
9

>  <i_lp_mmshare_version>  (1606) 
65135

>  <i_m_ct_format>  (1606) 
2

>  <i_m_source_file_index>  (1606) 
2228

>  <i_qp_#NandO>  (1606) 
6

>  <i_qp_#acid>  (1606) 
0

>  <i_qp_#amide>  (1606) 
0

>  <i_qp_#amidine>  (1606) 
0

>  <i_qp_#amine>  (1606) 
1

>  <i_qp_#in34>  (1606) 
0

>  <i_qp_#in56>  (1606) 
22

>  <i_qp_#metab>  (1606) 
6

>  <i_qp_#nonHatm>  (1606) 
34

>  <i_qp_#noncon>  (1606) 
0

>  <i_qp_#ringatoms>  (1606) 
22

>  <i_qp_#rotor>  (1606) 
9

>  <i_qp_#rtvFG>  (1606) 
0

>  <i_qp_#stars>  (1606) 
0

>  <i_qp_CNS>  (1606) 
1

>  <i_qp_HumanOralAbsorption>  (1606) 
3

>  <i_qp_RuleOfFive>  (1606) 
0

>  <i_qp_RuleOfThree>  (1606) 
0

>  <i_sd_BIOSOLVEIT.INFINISEE\_RESULT\_RANK>  (1606) 
5771

>  <i_sd_version>  (1606) 
0

>  <b_lp_Chiralities_Consistent>  (1606) 
1

>  <b_sd_chiral_flag>  (1606) 
0

>  <canonical_id>  (1606) 
ATP-HTVS-FC732D287CB6

>  <compound_code>  (1606) 
71265

>  <title>  (1606) 
rxn502b____EMOL525400____EMOL44466703____EMOL50155899

>  <variant>  (1606) 
71265-1

>  <source_file>  (1606) 
运行/运行/ATP-VSW/ATP-VSW-DOCK_HTVS_1-001_lib/ATP-VSW-DOCK_HTVS_1-001_lib

>  <canonical_smiles>  (1606) 
C[NH+](C)Cc1ccc(CNc2cc3ccccc3nc2NC(=O)Cc2ccc(C#N)cc2)cc1

>  <scaffold>  (1606) 
O=C(Cc1ccccc1)Nc1nc2ccccc2cc1NCc1ccccc1

>  <molecular_formula>  (1606) 
C28H28N5O+

$$$$
ATP-HTVS-FC91B4531E6F
     RDKit          3D

 56 59  0  0  0  0  0  0  0  0999 V2000
  197.3941  187.8422  156.0070 O   0  0  0  0  0  0  0  0  0  0  0  0
  198.3380  187.0918  156.1891 C   0  0  0  0  0  0  0  0  0  0  0  0
  198.3855  186.2231  157.2191 N   0  0  0  0  0  0  0  0  0  0  0  0
  197.4348  186.1844  158.2698 C   0  0  0  0  0  0  0  0  0  0  0  0
  197.3088  187.2608  159.1753 C   0  0  0  0  0  0  0  0  0  0  0  0
  198.1396  188.4319  159.0991 N   0  0  0  0  0  0  0  0  0  0  0  0
  199.5196  188.4469  159.3865 C   0  0  0  0  0  0  0  0  0  0  0  0
  200.2225  189.6600  159.6508 C   0  0  0  0  0  0  0  0  0  0  0  0
  201.6181  189.6657  159.8022 C   0  0  0  0  0  0  0  0  0  0  0  0
  202.3656  188.4651  159.7651 C   0  0  0  0  0  0  0  0  0  0  0  0
  201.6884  187.2452  159.5710 C   0  0  0  0  0  0  0  0  0  0  0  0
  200.2960  187.2432  159.4035 C   0  0  0  0  0  0  0  0  0  0  0  0
  197.4017  189.6978  158.8486 C   0  0  1  0  0  0  0  0  0  0  0  0
  197.1683  190.4505  160.0956 C   0  0  0  0  0  0  0  0  0  0  0  0
  196.9842  191.0400  161.0844 N   0  0  0  0  0  0  0  0  0  0  0  0
  197.9649  190.5962  157.7021 C   0  0  2  0  0  0  0  0  0  0  0  0
  196.3466  187.1455  160.1953 C   0  0  0  0  0  0  0  0  0  0  0  0
  195.5602  186.0540  160.3695 N   0  0  0  0  0  0  0  0  0  0  0  0
  195.7001  185.0092  159.5318 C   0  0  0  0  0  0  0  0  0  0  0  0
  196.6364  185.0078  158.4622 C   0  0  0  0  0  0  0  0  0  0  0  0
  196.7565  183.8707  157.6308 C   0  0  0  0  0  0  0  0  0  0  0  0
  195.9499  182.7327  157.8496 C   0  0  0  0  0  0  0  0  0  0  0  0
  195.0165  182.7332  158.8932 C   0  0  0  0  0  0  0  0  0  0  0  0
  194.8982  183.8596  159.7244 C   0  0  0  0  0  0  0  0  0  0  0  0
  199.4925  187.0194  155.1868 C   0  0  1  0  0  0  0  0  0  0  0  0
  198.9892  186.4085  153.8917 C   0  0  0  0  0  0  0  0  0  0  0  0
  199.1600  187.0825  152.6642 C   0  0  0  0  0  0  0  0  0  0  0  0
  198.6509  186.5191  151.4785 C   0  0  0  0  0  0  0  0  0  0  0  0
  197.9585  185.2921  151.5135 C   0  0  0  0  0  0  0  0  0  0  0  0
  197.7782  184.6232  152.7397 C   0  0  0  0  0  0  0  0  0  0  0  0
  198.3021  185.1743  153.9173 C   0  0  0  0  0  0  0  0  0  0  0  0
  197.3914  184.6900  150.2461 C   0  0  2  0  0  0  0  0  0  0  0  0
  199.1705  185.5944  157.2781 H   0  0  0  0  0  0  0  0  0  0  0  0
  199.6828  190.5914  159.7381 H   0  0  0  0  0  0  0  0  0  0  0  0
  202.1318  190.6055  159.9682 H   0  0  0  0  0  0  0  0  0  0  0  0
  203.4384  188.4715  159.9324 H   0  0  0  0  0  0  0  0  0  0  0  0
  202.2264  186.3078  159.5766 H   0  0  0  0  0  0  0  0  0  0  0  0
  199.8315  186.2724  159.2772 H   0  0  0  0  0  0  0  0  0  0  0  0
  196.4016  189.3887  158.5330 H   0  0  0  0  0  0  0  0  0  0  0  0
  197.2141  191.3755  157.4613 H   0  0  0  0  0  0  0  0  0  0  0  0
  198.1038  190.0368  156.7642 H   0  0  0  0  0  0  0  0  0  0  0  0
  198.8842  191.0911  157.9644 H   0  0  0  0  0  0  0  0  0  0  0  0
  196.2128  187.9188  160.9361 H   0  0  0  0  0  0  0  0  0  0  0  0
  197.4609  183.8392  156.8149 H   0  0  0  0  0  0  0  0  0  0  0  0
  196.0310  181.8636  157.2119 H   0  0  0  0  0  0  0  0  0  0  0  0
  194.3871  181.8672  159.0419 H   0  0  0  0  0  0  0  0  0  0  0  0
  194.1733  183.8541  160.5191 H   0  0  0  0  0  0  0  0  0  0  0  0
  199.8926  188.0216  155.0194 H   0  0  0  0  0  0  0  0  0  0  0  0
  200.3259  186.4241  155.5661 H   0  0  0  0  0  0  0  0  0  0  0  0
  199.6707  188.0360  152.6294 H   0  0  0  0  0  0  0  0  0  0  0  0
  198.7828  187.0429  150.5422 H   0  0  0  0  0  0  0  0  0  0  0  0
  197.2321  183.6927  152.7923 H   0  0  0  0  0  0  0  0  0  0  0  0
  198.1427  184.6515  154.8473 H   0  0  0  0  0  0  0  0  0  0  0  0
  196.4245  184.2287  150.4405 H   0  0  0  0  0  0  0  0  0  0  0  0
  198.0697  183.9260  149.8679 H   0  0  0  0  0  0  0  0  0  0  0  0
  197.2574  185.4512  149.4794 H   0  0  0  0  0  0  0  0  0  0  0  0
  1  2  2  0
  2  3  1  0
  2 25  1  0
  3  4  1  0
  3 33  1  0
  4  5  2  0
  4 20  1  0
  5  6  1  0
  5 17  1  0
  6  7  1  0
  6 13  1  0
  7  8  2  0
  7 12  1  0
  8  9  1  0
  8 34  1  0
  9 10  2  0
  9 35  1  0
 10 11  1  0
 10 36  1  0
 11 12  2  0
 11 37  1  0
 12 38  1  0
 13 14  1  0
 13 16  1  0
 13 39  1  6
 14 15  3  0
 16 40  1  6
 16 41  1  0
 16 42  1  0
 17 18  2  0
 17 43  1  0
 18 19  1  0
 19 20  1  0
 19 24  2  0
 20 21  2  0
 21 22  1  0
 21 44  1  0
 22 23  2  0
 22 45  1  0
 23 24  1  0
 23 46  1  0
 24 47  1  0
 25 26  1  0
 25 48  1  6
 25 49  1  0
 26 27  1  0
 26 31  2  0
 27 28  2  0
 27 50  1  0
 28 29  1  0
 28 51  1  0
 29 30  2  0
 29 32  1  0
 30 31  1  0
 30 52  1  0
 31 53  1  0
 32 54  1  1
 32 55  1  0
 32 56  1  0
M  END
>  <s_epik_cmdline>  (1607) 
J2VwaWtfcHl0aG9uJywgJy1waCcsICc3LjAwMDAwMCcsICctcGh0JywgJzIuMDAwMDAwJywgJy1tcycsICcxNicsICctdG4nLCAnOCcsICctbWEnLCAnMjAwJywgJy1pbWFlJywgJzxpbmZpbGUubWFlPicsICctb21hZScsICc8b3V0ZmlsZS5tYWU+Jw==

>  <s_epik_input>  (1607) 
W2NIXTFbY0hdYyhbQ0gzXSlbY0hdW2NIXWMxW0NIMl1DKD1PKVtOSF1jKGMoYzIzKVtjSF1bY0hdW2NIXVtjSF0zKWMoW2NIXW4yKU4oW0NAQEhdKEMjTilbQ0gzXSljNFtjSF1bY0hdW2NIXVtjSF1bY0hdNA==

>  <s_i_glide_gridfile>  (1607) 
ATP-Grid

>  <s_lp_Force_Field>  (1607) 
OPLS_2005

>  <s_lp_Variant>  (1607) 
rxn502b____EMOL532494____EMOL13728749____EMOL36790511-1

>  <s_lp_label>  (1607) 
2234_sdstereoexpander_1_neutralizer_1_epik_1_stereoizer_1

>  <s_m_source_file>  (1607) 
ATP-VSW-LIGPREP-002-in.maegz

>  <s_sd_BIOSOLVEIT.INFINISEE\_QUERY\_NAME>  (1607) 
Ref-Lig

>  <s_sd_BIOSOLVEIT.INFINISEE\_QUERY\_SMILES>  (1607) 
S(c1nc2c(cc1C[NH2+]Cc3ccc(cc3)C[NH+](C)C)cccc2)Cc4ccccc4

>  <s_sd_BIOSOLVEIT.INFINISEE\_REACTION\_NAME>  (1607) 
rxn502b

>  <s_sd_BIOSOLVEIT.INFINISEE\_REAGENT1\_NAME>  (1607) 
EMOL532494

>  <s_sd_BIOSOLVEIT.INFINISEE\_REAGENT1\_SMILES>  (1607) 
O=C(O)Cc1ccc(cc1)C

>  <s_sd_BIOSOLVEIT.INFINISEE\_REAGENT2\_NAME>  (1607) 
EMOL13728749

>  <s_sd_BIOSOLVEIT.INFINISEE\_REAGENT2\_SMILES>  (1607) 
Brc1c(N)c2c(nc1)cccc2

>  <s_sd_BIOSOLVEIT.INFINISEE\_REAGENT3\_NAME>  (1607) 
EMOL36790511

>  <s_sd_BIOSOLVEIT.INFINISEE\_REAGENT3\_SMILES>  (1607) 
N#CC(Nc1ccccc1)C

>  <s_sd_BIOSOLVEIT.INFINISEE\_SPACE>  (1607) 
eXplore_7tr_2022-12

>  <s_vsw_compound_code>  (1607) 
71458

>  <s_vsw_variant>  (1607) 
71458-1

>  <r_epik_Charging_Adjusted_Penalty>  (1607) 
0.00143745568889032

>  <r_epik_Ionization_Penalty>  (1607) 
0.0014

>  <r_epik_Ionization_Penalty_Charging>  (1607) 
0

>  <r_epik_Ionization_Penalty_Neutral>  (1607) 
0.0014

>  <r_epik_State_Penalty>  (1607) 
0.0014

>  <r_i_docking_score>  (1607) 
-3.75103745705692

>  <r_i_glide_ecoul>  (1607) 
-1.8195053339004501

>  <r_i_glide_eff_state_penalty>  (1607) 
0.0014

>  <r_i_glide_einternal>  (1607) 
3.6304898262023899

>  <r_i_glide_emodel>  (1607) 
-44.092459268140203

>  <r_i_glide_energy>  (1607) 
-37.063451409339898

>  <r_i_glide_erotb>  (1607) 
0.671614451574019

>  <r_i_glide_esite>  (1607) 
-0.011045785019683599

>  <r_i_glide_evdw>  (1607) 
-35.243946075439503

>  <r_i_glide_gscore>  (1607) 
-3.7524374570569199

>  <r_i_glide_hbond>  (1607) 
-0.157516344188009

>  <r_i_glide_ligand_efficiency>  (1607) 
-0.117219920533029

>  <r_i_glide_ligand_efficiency_ln>  (1607) 
-0.83995953605435103

>  <r_i_glide_ligand_efficiency_sa>  (1607) 
-0.37215004990159201

>  <r_i_glide_lipo>  (1607) 
-1.57173698481397

>  <r_i_glide_metal>  (1607) 
-0

>  <r_i_glide_rewards>  (1607) 
-0.64862969075223398

>  <r_lp_Energy>  (1607) 
33.513978999999999

>  <r_qp_ACxDN^.5/SA>  (1607) 
0.0085552000000000007

>  <r_qp_CIQPlogS>  (1607) 
-7.8860000000000001

>  <r_qp_EA(eV)>  (1607) 
1.1739999999999999

>  <r_qp_FISA>  (1607) 
85.507999999999996

>  <r_qp_FOSA>  (1607) 
172.48500000000001

>  <r_qp_IP(eV)>  (1607) 
8.6280000000000001

>  <r_qp_Jm>  (1607) 
0.052750894499014198

>  <r_qp_PISA>  (1607) 
384.89299999999997

>  <r_qp_PSA>  (1607) 
66.790999999999997

>  <r_qp_PercentHumanOralAbsorption>  (1607) 
100

>  <r_qp_QPPCaco>  (1607) 
1531.1790000000001

>  <r_qp_QPPMDCK>  (1607) 
784.04499999999996

>  <r_qp_QPlogBB>  (1607) 
-0.59899999999999998

>  <r_qp_QPlogHERG>  (1607) 
-5.351

>  <r_qp_QPlogKhsa>  (1607) 
0.69299999999999995

>  <r_qp_QPlogKp>  (1607) 
-1.0669999999999999

>  <r_qp_QPlogPC16>  (1607) 
13.477

>  <r_qp_QPlogPo/w>  (1607) 
4.774

>  <r_qp_QPlogPoct>  (1607) 
19.893999999999998

>  <r_qp_QPlogPw>  (1607) 
9.8040000000000003

>  <r_qp_QPlogS>  (1607) 
-5.8339999999999996

>  <r_qp_QPpolrz>  (1607) 
43.442

>  <r_qp_SASA>  (1607) 
642.88599999999997

>  <r_qp_SAamideO>  (1607) 
0

>  <r_qp_SAfluorine>  (1607) 
0

>  <r_qp_WPSA>  (1607) 
0

>  <r_qp_accptHB>  (1607) 
5.5

>  <r_qp_dip^2/V>  (1607) 
0.068042000000000005

>  <r_qp_dipole>  (1607) 
9.2579999999999991

>  <r_qp_donorHB>  (1607) 
1

>  <r_qp_glob>  (1607) 
0.87744540000000004

>  <r_qp_mol_MW>  (1607) 
420.51299999999998

>  <r_qp_volume>  (1607) 
1259.748

>  <r_sd_BIOSOLVEIT.INFINISEE\_FTREES\_SIMILARITY>  (1607) 
0.92800000000000005

>  <r_sd_BIOSOLVEIT.LOGP>  (1607) 
5.7746000000000004

>  <r_sd_BIOSOLVEIT.MOLECULAR\_WEIGHT>  (1607) 
420.51400000000001

>  <r_sd_BIOSOLVEIT.TPSA>  (1607) 
69.019999999999996

>  <i_epik_Tot_Q>  (1607) 
0

>  <i_epik_Tot_abs_Q>  (1607) 
0

>  <i_f3d_flags>  (1607) 
0

>  <i_i_glide_confnum>  (1607) 
3

>  <i_i_glide_lignum>  (1607) 
876

>  <i_i_glide_posenum>  (1607) 
3

>  <i_i_glide_rotatable_bonds>  (1607) 
7

>  <i_lp_mmshare_version>  (1607) 
65135

>  <i_m_ct_format>  (1607) 
2

>  <i_m_source_file_index>  (1607) 
2234

>  <i_qp_#NandO>  (1607) 
5

>  <i_qp_#acid>  (1607) 
0

>  <i_qp_#amide>  (1607) 
0

>  <i_qp_#amidine>  (1607) 
0

>  <i_qp_#amine>  (1607) 
0

>  <i_qp_#in34>  (1607) 
0

>  <i_qp_#in56>  (1607) 
22

>  <i_qp_#metab>  (1607) 
6

>  <i_qp_#nonHatm>  (1607) 
32

>  <i_qp_#noncon>  (1607) 
0

>  <i_qp_#ringatoms>  (1607) 
22

>  <i_qp_#rotor>  (1607) 
7

>  <i_qp_#rtvFG>  (1607) 
0

>  <i_qp_#stars>  (1607) 
0

>  <i_qp_CNS>  (1607) 
0

>  <i_qp_HumanOralAbsorption>  (1607) 
3

>  <i_qp_RuleOfFive>  (1607) 
0

>  <i_qp_RuleOfThree>  (1607) 
1

>  <i_sd_BIOSOLVEIT.INFINISEE\_RESULT\_RANK>  (1607) 
6304

>  <i_sd_version>  (1607) 
0

>  <b_lp_Chiralities_Consistent>  (1607) 
1

>  <b_sd_chiral_flag>  (1607) 
0

>  <canonical_id>  (1607) 
ATP-HTVS-FC91B4531E6F

>  <compound_code>  (1607) 
71458

>  <title>  (1607) 
rxn502b____EMOL532494____EMOL13728749____EMOL36790511

>  <variant>  (1607) 
71458-1

>  <source_file>  (1607) 
运行/运行/ATP-VSW/ATP-VSW-DOCK_HTVS_1-002_lib.maegz

>  <canonical_smiles>  (1607) 
Cc1ccc(CC(=O)Nc2c(N(c3ccccc3)[C@H](C)C#N)cnc3ccccc23)cc1

>  <scaffold>  (1607) 
O=C(Cc1ccccc1)Nc1c(Nc2ccccc2)cnc2ccccc12

>  <molecular_formula>  (1607) 
C27H24N4O

$$$$
ATP-HTVS-FCCFF683ADF4
     RDKit          3D

 55 58  0  0  0  0  0  0  0  0999 V2000
  196.8748  183.0902  150.5439 Cl  0  0  0  0  0  0  0  0  0  0  0  0
  197.5593  184.2655  151.6026 C   0  0  0  0  0  0  0  0  0  0  0  0
  197.7146  183.9625  152.9641 C   0  0  0  0  0  0  0  0  0  0  0  0
  198.2592  184.9113  153.8737 C   0  0  0  0  0  0  0  0  0  0  0  0
  198.6386  186.1845  153.3709 C   0  0  0  0  0  0  0  0  0  0  0  0
  199.1895  187.1883  154.2172 N   0  0  0  0  0  0  0  0  0  0  0  0
  198.7837  187.4775  155.4639 C   0  0  0  0  0  0  0  0  0  0  0  0
  199.3659  188.3179  156.1453 O   0  0  0  0  0  0  0  0  0  0  0  0
  197.5411  186.7634  156.0284 C   0  0  1  0  0  0  0  0  0  0  0  0
  197.6735  185.3075  156.3176 N   0  0  0  0  0  0  0  0  0  0  0  0
  198.5080  184.5583  155.3551 C   0  0  1  0  0  0  0  0  0  0  0  0
  198.3820  183.0473  155.5762 C   0  0  0  0  0  0  0  0  0  0  0  0
  199.5082  182.1910  155.5262 C   0  0  0  0  0  0  0  0  0  0  0  0
  200.7456  182.7003  155.3035 F   0  0  0  0  0  0  0  0  0  0  0  0
  199.3470  180.8000  155.7146 C   0  0  0  0  0  0  0  0  0  0  0  0
  198.0694  180.2571  155.9346 C   0  0  0  0  0  0  0  0  0  0  0  0
  196.9487  181.1072  155.9718 C   0  0  0  0  0  0  0  0  0  0  0  0
  197.1057  182.4910  155.7981 C   0  0  0  0  0  0  0  0  0  0  0  0
  198.1581  185.0740  157.6898 C   0  0  1  0  0  0  0  0  0  0  0  0
  197.1820  185.5151  158.7607 C   0  0  0  0  0  0  0  0  0  0  0  0
  197.3459  186.7675  159.3808 C   0  0  0  0  0  0  0  0  0  0  0  0
  196.4285  187.1979  160.3531 C   0  0  0  0  0  0  0  0  0  0  0  0
  195.3585  186.3619  160.7299 C   0  0  0  0  0  0  0  0  0  0  0  0
  195.2104  185.0914  160.1312 C   0  0  0  0  0  0  0  0  0  0  0  0
  196.1109  184.6765  159.1338 C   0  0  0  0  0  0  0  0  0  0  0  0
  194.3909  186.8356  161.7929 C   0  0  1  0  0  0  0  0  0  0  0  0
  192.9202  186.7481  161.3556 C   0  0  1  0  0  0  0  0  0  0  0  0
  191.9314  187.0258  162.4904 C   0  0  1  0  0  0  0  0  0  0  0  0
  192.2873  188.2028  163.2971 C   0  0  0  0  0  0  0  0  0  0  0  0
  192.5806  189.1224  163.9342 N   0  0  0  0  0  0  0  0  0  0  0  0
  198.5005  186.4729  151.9943 C   0  0  0  0  0  0  0  0  0  0  0  0
  197.9560  185.5207  151.1095 C   0  0  0  0  0  0  0  0  0  0  0  0
  197.4129  182.9685  153.2707 H   0  0  0  0  0  0  0  0  0  0  0  0
  199.8926  187.7947  153.8190 H   0  0  0  0  0  0  0  0  0  0  0  0
  197.1768  187.3325  156.8864 H   0  0  0  0  0  0  0  0  0  0  0  0
  196.7195  186.8650  155.3245 H   0  0  0  0  0  0  0  0  0  0  0  0
  199.5494  184.8227  155.5643 H   0  0  0  0  0  0  0  0  0  0  0  0
  200.2070  180.1514  155.6713 H   0  0  0  0  0  0  0  0  0  0  0  0
  197.9276  179.1995  156.0769 H   0  0  0  0  0  0  0  0  0  0  0  0
  195.9609  180.7010  156.1367 H   0  0  0  0  0  0  0  0  0  0  0  0
  196.2313  183.1290  155.8383 H   0  0  0  0  0  0  0  0  0  0  0  0
  198.3071  184.0127  157.8927 H   0  0  0  0  0  0  0  0  0  0  0  0
  199.1301  185.5445  157.8571 H   0  0  0  0  0  0  0  0  0  0  0  0
  198.1671  187.4077  159.0963 H   0  0  0  0  0  0  0  0  0  0  0  0
  196.5652  188.1663  160.8116 H   0  0  0  0  0  0  0  0  0  0  0  0
  194.4096  184.4248  160.4154 H   0  0  0  0  0  0  0  0  0  0  0  0
  195.9694  183.7158  158.6578 H   0  0  0  0  0  0  0  0  0  0  0  0
  194.5599  186.2364  162.6789 H   0  0  0  0  0  0  0  0  0  0  0  0
  194.6393  187.8639  162.0679 H   0  0  0  0  0  0  0  0  0  0  0  0
  192.7434  187.4395  160.5387 H   0  0  0  0  0  0  0  0  0  0  0  0
  192.7147  185.7634  160.9482 H   0  0  0  0  0  0  0  0  0  0  0  0
  190.9241  187.1544  162.0934 H   0  0  0  0  0  0  0  0  0  0  0  0
  191.8986  186.1712  163.1674 H   0  0  0  0  0  0  0  0  0  0  0  0
  198.7873  187.4430  151.6159 H   0  0  0  0  0  0  0  0  0  0  0  0
  197.8338  185.7520  150.0628 H   0  0  0  0  0  0  0  0  0  0  0  0
  1  2  1  0
  2  3  2  0
  2 32  1  0
  3  4  1  0
  3 33  1  0
  4  5  2  0
  4 11  1  0
  5  6  1  0
  5 31  1  0
  6  7  1  0
  6 34  1  0
  7  8  2  0
  7  9  1  0
  9 10  1  0
  9 35  1  1
  9 36  1  0
 10 11  1  0
 10 19  1  0
 11 12  1  0
 11 37  1  1
 12 13  1  0
 12 18  2  0
 13 14  1  0
 13 15  2  0
 15 16  1  0
 15 38  1  0
 16 17  2  0
 16 39  1  0
 17 18  1  0
 17 40  1  0
 18 41  1  0
 19 20  1  0
 19 42  1  6
 19 43  1  0
 20 21  1  0
 20 25  2  0
 21 22  2  0
 21 44  1  0
 22 23  1  0
 22 45  1  0
 23 24  2  0
 23 26  1  0
 24 25  1  0
 24 46  1  0
 25 47  1  0
 26 27  1  0
 26 48  1  1
 26 49  1  0
 27 28  1  0
 27 50  1  6
 27 51  1  0
 28 29  1  0
 28 52  1  6
 28 53  1  0
 29 30  3  0
 31 32  2  0
 31 54  1  0
 32 55  1  0
M  END
>  <s_epik_cmdline>  (1608) 
J2VwaWtfcHl0aG9uJywgJy1waCcsICc3LjAwMDAwMCcsICctcGh0JywgJzIuMDAwMDAwJywgJy1tcycsICcxNicsICctdG4nLCAnOCcsICctbWEnLCAnMjAwJywgJy1pbWFlJywgJzxpbmZpbGUubWFlPicsICctb21hZScsICc8b3V0ZmlsZS5tYWU+Jw==

>  <s_epik_input>  (1608) 
Q2xjKFtjSF0xKVtjSF1bY0hdYyhjMTIpW05IXUMoPU8pW0NIMl1OKFtDQEhdMmMzYyhGKVtjSF1bY0hdW2NIXVtjSF0zKVtDSDJdYzRbY0hdW2NIXWMoW2NIXVtjSF00KVtDSDJdW0NIMl1bQ0gyXUMjTg==

>  <s_i_glide_gridfile>  (1608) 
ATP-Grid

>  <s_lp_Force_Field>  (1608) 
OPLS_2005

>  <s_lp_Variant>  (1608) 
m_270004bda____24171218____18240682-1

>  <s_lp_label>  (1608) 
1661_sdstereoexpander_1_neutralizer_1_epik_1_stereoizer_1

>  <s_m_source_file>  (1608) 
ATP-VSW-LIGPREP-003-in.maegz

>  <s_sd_BIOSOLVEIT.INFINISEE\_QUERY\_NAME>  (1608) 
Ref-Lig

>  <s_sd_BIOSOLVEIT.INFINISEE\_QUERY\_SMILES>  (1608) 
S(c1nc2c(cc1C[NH2+]Cc3ccc(cc3)C[NH+](C)C)cccc2)Cc4ccccc4

>  <s_sd_BIOSOLVEIT.INFINISEE\_REACTION\_NAME>  (1608) 
m_270004bda

>  <s_sd_BIOSOLVEIT.INFINISEE\_REAGENT1\_SMILES>  (1608) 
[R1*]N1C(c2c(F)cccc2)c3c(NC(=O)C1)ccc(Cl)c3

>  <s_sd_BIOSOLVEIT.INFINISEE\_REAGENT2\_SMILES>  (1608) 
[R1*]Cc1ccc(cc1)CCCC#N

>  <s_sd_BIOSOLVEIT.INFINISEE\_SPACE>  (1608) 
REALSpace_44bn_2023-08

>  <s_vsw_compound_code>  (1608) 
53123

>  <s_vsw_variant>  (1608) 
53123-1

>  <r_epik_Charging_Adjusted_Penalty>  (1608) 
0.0073990967497685701

>  <r_epik_Ionization_Penalty>  (1608) 
0.0074000000000000003

>  <r_epik_Ionization_Penalty_Charging>  (1608) 
0

>  <r_epik_Ionization_Penalty_Neutral>  (1608) 
0.0074000000000000003

>  <r_epik_State_Penalty>  (1608) 
0.0074000000000000003

>  <r_i_docking_score>  (1608) 
-2.21908390745017

>  <r_i_glide_ecoul>  (1608) 
-1.4181370735168499

>  <r_i_glide_eff_state_penalty>  (1608) 
0.0074000000000000003

>  <r_i_glide_einternal>  (1608) 
1.33017361164093

>  <r_i_glide_emodel>  (1608) 
-42.154487365962503

>  <r_i_glide_energy>  (1608) 
-37.486164569854701

>  <r_i_glide_erotb>  (1608) 
0.49911239072548202

>  <r_i_glide_esite>  (1608) 
-0.0040845945932778804

>  <r_i_glide_evdw>  (1608) 
-36.068027496337898

>  <r_i_glide_gscore>  (1608) 
-2.2264839074501701

>  <r_i_glide_hbond>  (1608) 
0

>  <r_i_glide_ligand_efficiency>  (1608) 
-0.0693463721078178

>  <r_i_glide_ligand_efficiency_ln>  (1608) 
-0.49691337682081599

>  <r_i_glide_ligand_efficiency_sa>  (1608) 
-0.22016100781391601

>  <r_i_glide_lipo>  (1608) 
-2.1069179152432

>  <r_i_glide_metal>  (1608) 
-0

>  <r_i_glide_rewards>  (1608) 
1.4015281475052499

>  <r_lp_Energy>  (1608) 
54.046101

>  <r_qp_ACxDN^.5/SA>  (1608) 
0.0080126999999999993

>  <r_qp_CIQPlogS>  (1608) 
-6.827

>  <r_qp_EA(eV)>  (1608) 
0.505

>  <r_qp_FISA>  (1608) 
138.57499999999999

>  <r_qp_FOSA>  (1608) 
156.042

>  <r_qp_IP(eV)>  (1608) 
9.4260000000000002

>  <r_qp_Jm>  (1608) 
3.2381877291103498e-06

>  <r_qp_PISA>  (1608) 
363.81799999999998

>  <r_qp_PSA>  (1608) 
68.491

>  <r_qp_PercentHumanOralAbsorption>  (1608) 
91.224999999999994

>  <r_qp_QPPCaco>  (1608) 
119.86499999999999

>  <r_qp_QPPMDCK>  (1608) 
172.77500000000001

>  <r_qp_QPlogBB>  (1608) 
-0.63900000000000001

>  <r_qp_QPlogHERG>  (1608) 
-7.3099999999999996

>  <r_qp_QPlogKhsa>  (1608) 
0.88600000000000001

>  <r_qp_QPlogKp>  (1608) 
-4.2779999999999996

>  <r_qp_QPlogPC16>  (1608) 
15.121

>  <r_qp_QPlogPo/w>  (1608) 
4.6239999999999997

>  <r_qp_QPlogPoct>  (1608) 
22.437999999999999

>  <r_qp_QPlogPw>  (1608) 
11.021000000000001

>  <r_qp_QPlogS>  (1608) 
-6.8630000000000004

>  <r_qp_QPpolrz>  (1608) 
48.128999999999998

>  <r_qp_SASA>  (1608) 
748.81100000000004

>  <r_qp_SAamideO>  (1608) 
0

>  <r_qp_SAfluorine>  (1608) 
18.843

>  <r_qp_WPSA>  (1608) 
90.375

>  <r_qp_accptHB>  (1608) 
6

>  <r_qp_dip^2/V>  (1608) 
0.083951799999999993

>  <r_qp_dipole>  (1608) 
10.708

>  <r_qp_donorHB>  (1608) 
1

>  <r_qp_glob>  (1608) 
0.79504699999999995

>  <r_qp_mol_MW>  (1608) 
447.93900000000002

>  <r_qp_volume>  (1608) 
1365.8389999999999

>  <r_sd_BIOSOLVEIT.INFINISEE\_FTREES\_SIMILARITY>  (1608) 
0.90500000000000003

>  <r_sd_BIOSOLVEIT.LOGP>  (1608) 
4.4519799999999998

>  <r_sd_BIOSOLVEIT.MOLECULAR\_WEIGHT>  (1608) 
448.947

>  <r_sd_BIOSOLVEIT.TPSA>  (1608) 
57.329999999999998

>  <i_epik_Tot_Q>  (1608) 
0

>  <i_epik_Tot_abs_Q>  (1608) 
0

>  <i_f3d_flags>  (1608) 
0

>  <i_i_glide_confnum>  (1608) 
3

>  <i_i_glide_lignum>  (1608) 
626

>  <i_i_glide_posenum>  (1608) 
12

>  <i_i_glide_rotatable_bonds>  (1608) 
6

>  <i_lp_mmshare_version>  (1608) 
65135

>  <i_m_ct_format>  (1608) 
2

>  <i_m_source_file_index>  (1608) 
1661

>  <i_qp_#NandO>  (1608) 
4

>  <i_qp_#acid>  (1608) 
0

>  <i_qp_#amide>  (1608) 
0

>  <i_qp_#amidine>  (1608) 
0

>  <i_qp_#amine>  (1608) 
1

>  <i_qp_#in34>  (1608) 
0

>  <i_qp_#in56>  (1608) 
18

>  <i_qp_#metab>  (1608) 
8

>  <i_qp_#nonHatm>  (1608) 
32

>  <i_qp_#noncon>  (1608) 
2

>  <i_qp_#ringatoms>  (1608) 
23

>  <i_qp_#rotor>  (1608) 
6

>  <i_qp_#rtvFG>  (1608) 
0

>  <i_qp_#stars>  (1608) 
1

>  <i_qp_CNS>  (1608) 
1

>  <i_qp_HumanOralAbsorption>  (1608) 
1

>  <i_qp_RuleOfFive>  (1608) 
0

>  <i_qp_RuleOfThree>  (1608) 
2

>  <i_sd_BIOSOLVEIT.INFINISEE\_REAGENT1\_NAME>  (1608) 
24171218

>  <i_sd_BIOSOLVEIT.INFINISEE\_REAGENT2\_NAME>  (1608) 
18240682

>  <i_sd_BIOSOLVEIT.INFINISEE\_RESULT\_RANK>  (1608) 
69477

>  <i_sd_version>  (1608) 
0

>  <b_lp_Chiralities_Consistent>  (1608) 
1

>  <b_sd_chiral_flag>  (1608) 
0

>  <canonical_id>  (1608) 
ATP-HTVS-FCCFF683ADF4

>  <compound_code>  (1608) 
53123

>  <title>  (1608) 
m_270004bda____24171218____18240682

>  <variant>  (1608) 
53123-1

>  <source_file>  (1608) 
运行/运行/ATP-VSW/ATP-VSW-DOCK_HTVS_1-003_lib/ATP-VSW-DOCK_HTVS_1-003_lib.mae

>  <canonical_smiles>  (1608) 
N#CCCCc1ccc(CN2CC(=O)Nc3ccc(Cl)cc3[C@@H]2c2ccccc2F)cc1

>  <scaffold>  (1608) 
O=C1CN(Cc2ccccc2)C(c2ccccc2)c2ccccc2N1

>  <molecular_formula>  (1608) 
C26H23ClFN3O

$$$$
ATP-HTVS-FD26B682FD2E
     RDKit          3D

 63 66  0  0  0  0  0  0  0  0999 V2000
  199.0121  178.2752  152.0618 O   0  0  0  0  0  0  0  0  0  0  0  0
  199.8796  178.1959  152.9331 C   0  0  0  0  0  0  0  0  0  0  0  0
  199.7758  178.6975  154.1732 N   0  0  0  0  0  0  0  0  0  0  0  0
  198.7518  179.5131  154.7252 C   0  0  0  0  0  0  0  0  0  0  0  0
  197.6463  179.9238  154.0535 N   0  0  0  0  0  0  0  0  0  0  0  0
  196.7828  180.7613  154.6576 C   0  0  0  0  0  0  0  0  0  0  0  0
  196.9210  181.2609  155.9724 C   0  0  0  0  0  0  0  0  0  0  0  0
  195.9570  182.0961  156.5446 N   0  0  0  0  0  0  0  0  0  0  0  0
  195.7335  182.0660  157.9904 C   0  0  1  0  0  0  0  0  0  0  0  0
  195.6275  183.4368  158.6276 C   0  0  0  0  0  0  0  0  0  0  0  0
  196.7138  184.3371  158.5801 C   0  0  0  0  0  0  0  0  0  0  0  0
  196.6355  185.5895  159.2282 C   0  0  0  0  0  0  0  0  0  0  0  0
  195.4628  185.9358  159.9315 C   0  0  0  0  0  0  0  0  0  0  0  0
  194.3760  185.0367  159.9768 C   0  0  0  0  0  0  0  0  0  0  0  0
  194.4530  183.8019  159.3074 C   0  0  0  0  0  0  0  0  0  0  0  0
  197.8105  186.5526  159.1703 C   0  0  1  0  0  0  0  0  0  0  0  0
  197.6694  187.5589  158.0876 N   0  0  2  0  0  0  0  0  0  0  0  0
  197.7230  186.9624  156.7302 C   0  0  2  0  0  0  0  0  0  0  0  0
  198.6323  188.6741  158.2358 C   0  0  2  0  0  0  0  0  0  0  0  0
  198.0945  180.8400  156.6574 C   0  0  0  0  0  0  0  0  0  0  0  0
  198.9951  179.9653  156.0439 C   0  0  0  0  0  0  0  0  0  0  0  0
  200.1125  179.5806  156.7932 N   0  0  0  0  0  0  0  0  0  0  0  0
  200.3439  178.3130  157.2937 C   0  0  0  0  0  0  0  0  0  0  0  0
  201.5094  178.3560  157.9958 C   0  0  0  0  0  0  0  0  0  0  0  0
  202.0098  179.6879  157.9344 C   0  0  0  0  0  0  0  0  0  0  0  0
  201.1319  180.4225  157.1962 C   0  0  0  0  0  0  0  0  0  0  0  0
  201.1924  177.4721  152.6153 C   0  0  1  0  0  0  0  0  0  0  0  0
  201.1439  176.0180  153.0561 C   0  0  0  0  0  0  0  0  0  0  0  0
  200.7363  175.0180  152.1473 C   0  0  0  0  0  0  0  0  0  0  0  0
  200.7421  173.6646  152.5348 C   0  0  0  0  0  0  0  0  0  0  0  0
  201.1492  173.3037  153.8349 C   0  0  0  0  0  0  0  0  0  0  0  0
  201.5477  174.3002  154.7471 C   0  0  0  0  0  0  0  0  0  0  0  0
  201.5483  175.6541  154.3595 C   0  0  0  0  0  0  0  0  0  0  0  0
  200.5525  178.5307  154.7976 H   0  0  0  0  0  0  0  0  0  0  0  0
  195.9334  181.0454  154.0515 H   0  0  0  0  0  0  0  0  0  0  0  0
  195.0800  182.2832  156.0393 H   0  0  0  0  0  0  0  0  0  0  0  0
  194.8118  181.5034  158.1377 H   0  0  0  0  0  0  0  0  0  0  0  0
  196.4900  181.5374  158.5897 H   0  0  0  0  0  0  0  0  0  0  0  0
  197.6047  184.0526  158.0402 H   0  0  0  0  0  0  0  0  0  0  0  0
  195.3700  186.8958  160.4189 H   0  0  0  0  0  0  0  0  0  0  0  0
  193.4675  185.3023  160.4957 H   0  0  0  0  0  0  0  0  0  0  0  0
  193.6210  183.1126  159.3213 H   0  0  0  0  0  0  0  0  0  0  0  0
  197.8768  187.0604  160.1333 H   0  0  0  0  0  0  0  0  0  0  0  0
  198.7449  185.9984  159.0491 H   0  0  0  0  0  0  0  0  0  0  0  0
  198.6894  186.4883  156.5590 H   0  0  0  0  0  0  0  0  0  0  0  0
  197.5701  187.7201  155.9615 H   0  0  0  0  0  0  0  0  0  0  0  0
  196.9476  186.2119  156.5881 H   0  0  0  0  0  0  0  0  0  0  0  0
  199.6632  188.3143  158.2233 H   0  0  0  0  0  0  0  0  0  0  0  0
  198.4753  189.2111  159.1741 H   0  0  0  0  0  0  0  0  0  0  0  0
  198.5201  189.3927  157.4235 H   0  0  0  0  0  0  0  0  0  0  0  0
  198.3253  181.1714  157.6517 H   0  0  0  0  0  0  0  0  0  0  0  0
  199.6408  177.5067  157.1311 H   0  0  0  0  0  0  0  0  0  0  0  0
  201.9510  177.5047  158.4906 H   0  0  0  0  0  0  0  0  0  0  0  0
  202.9283  180.0538  158.3738 H   0  0  0  0  0  0  0  0  0  0  0  0
  201.1337  181.4700  156.9314 H   0  0  0  0  0  0  0  0  0  0  0  0
  201.3700  177.5341  151.5425 H   0  0  0  0  0  0  0  0  0  0  0  0
  202.0255  177.9798  153.1009 H   0  0  0  0  0  0  0  0  0  0  0  0
  200.4266  175.2828  151.1464 H   0  0  0  0  0  0  0  0  0  0  0  0
  200.4350  172.9034  151.8334 H   0  0  0  0  0  0  0  0  0  0  0  0
  201.1559  172.2636  154.1305 H   0  0  0  0  0  0  0  0  0  0  0  0
  201.8638  174.0244  155.7415 H   0  0  0  0  0  0  0  0  0  0  0  0
  201.8718  176.4080  155.0629 H   0  0  0  0  0  0  0  0  0  0  0  0
  196.7498  187.9638  158.1987 H   0  0  0  0  0  0  0  0  0  0  0  0
  1  2  2  0
  2  3  1  0
  2 27  1  0
  3  4  1  0
  3 34  1  0
  4  5  1  0
  4 21  2  0
  5  6  2  0
  6  7  1  0
  6 35  1  0
  7  8  1  0
  7 20  2  0
  8  9  1  0
  8 36  1  0
  9 10  1  0
  9 37  1  6
  9 38  1  0
 10 11  2  0
 10 15  1  0
 11 12  1  0
 11 39  1  0
 12 13  2  0
 12 16  1  0
 13 14  1  0
 13 40  1  0
 14 15  2  0
 14 41  1  0
 15 42  1  0
 16 17  1  0
 16 43  1  1
 16 44  1  0
 17 18  1  0
 17 19  1  0
 17 63  1  1
 18 45  1  6
 18 46  1  0
 18 47  1  0
 19 48  1  1
 19 49  1  0
 19 50  1  0
 20 21  1  0
 20 51  1  0
 21 22  1  0
 22 23  1  0
 22 26  1  0
 23 24  2  0
 23 52  1  0
 24 25  1  0
 24 53  1  0
 25 26  2  0
 25 54  1  0
 26 55  1  0
 27 28  1  0
 27 56  1  6
 27 57  1  0
 28 29  2  0
 28 33  1  0
 29 30  1  0
 29 58  1  0
 30 31  2  0
 30 59  1  0
 31 32  1  0
 31 60  1  0
 32 33  2  0
 32 61  1  0
 33 62  1  0
M  CHG  1  17   1
M  END
>  <s_epik_cmdline>  (1609) 
J2VwaWtfcHl0aG9uJywgJy1waCcsICc3LjAwMDAwMCcsICctcGh0JywgJzIuMDAwMDAwJywgJy1tcycsICcxNicsICctdG4nLCAnOCcsICctbWEnLCAnMjAwJywgJy1pbWFlJywgJzxpbmZpbGUubWFlPicsICctb21hZScsICc8b3V0ZmlsZS5tYWU+Jw==

>  <s_epik_input>  (1609) 
W2NIXTFbY0hdW2NIXVtjSF1bY0hdYzFbQ0gyXUMoPU8pW05IXWMybltjSF1jKFtjSF1jMi1uM1tjSF1bY0hdW2NIXVtjSF0zKVtOSF1bQ0gyXWM0W2NIXWMoW2NIXVtjSF1bY0hdNClbQ0gyXU4oW0NIM10pW0NIM10=

>  <s_i_glide_gridfile>  (1609) 
ATP-Grid

>  <s_lp_Force_Field>  (1609) 
OPLS_2005

>  <s_lp_Variant>  (1609) 
rxn502b____EMOL530620____EMOL4363915____EMOL2873214-1

>  <s_lp_label>  (1609) 
2177_sdstereoexpander_1_neutralizer_1_epik_1_stereoizer_1

>  <s_m_source_file>  (1609) 
ATP-VSW-LIGPREP-002-in.maegz

>  <s_sd_BIOSOLVEIT.INFINISEE\_QUERY\_NAME>  (1609) 
Ref-Lig

>  <s_sd_BIOSOLVEIT.INFINISEE\_QUERY\_SMILES>  (1609) 
S(c1nc2c(cc1C[NH2+]Cc3ccc(cc3)C[NH+](C)C)cccc2)Cc4ccccc4

>  <s_sd_BIOSOLVEIT.INFINISEE\_REACTION\_NAME>  (1609) 
rxn502b

>  <s_sd_BIOSOLVEIT.INFINISEE\_REAGENT1\_NAME>  (1609) 
EMOL530620

>  <s_sd_BIOSOLVEIT.INFINISEE\_REAGENT1\_SMILES>  (1609) 
ClC(=O)Cc1ccccc1

>  <s_sd_BIOSOLVEIT.INFINISEE\_REAGENT2\_NAME>  (1609) 
EMOL4363915

>  <s_sd_BIOSOLVEIT.INFINISEE\_REAGENT2\_SMILES>  (1609) 
Brc1cnc(N)c(N2C=CC=C2)c1

>  <s_sd_BIOSOLVEIT.INFINISEE\_REAGENT3\_NAME>  (1609) 
EMOL2873214

>  <s_sd_BIOSOLVEIT.INFINISEE\_REAGENT3\_SMILES>  (1609) 
N(Cc1cc(ccc1)CN)(C)C

>  <s_sd_BIOSOLVEIT.INFINISEE\_SPACE>  (1609) 
eXplore_7tr_2022-12

>  <s_vsw_compound_code>  (1609) 
69634

>  <s_vsw_variant>  (1609) 
69634-1

>  <r_epik_Charging_Adjusted_Penalty>  (1609) 
0.088195370499548398

>  <r_epik_Ionization_Penalty>  (1609) 
0.0441

>  <r_epik_Ionization_Penalty_Charging>  (1609) 
0.0441

>  <r_epik_Ionization_Penalty_Neutral>  (1609) 
0.0001

>  <r_epik_State_Penalty>  (1609) 
0.0441

>  <r_i_docking_score>  (1609) 
-4.3951611416954002

>  <r_i_glide_ecoul>  (1609) 
-7.3313736915588397

>  <r_i_glide_eff_state_penalty>  (1609) 
0.0441

>  <r_i_glide_einternal>  (1609) 
2.83963227272034

>  <r_i_glide_emodel>  (1609) 
-54.946349523251897

>  <r_i_glide_energy>  (1609) 
-42.137796878814697

>  <r_i_glide_erotb>  (1609) 
0.823013770814219

>  <r_i_glide_esite>  (1609) 
-0.13539855195035799

>  <r_i_glide_evdw>  (1609) 
-34.806423187255902

>  <r_i_glide_gscore>  (1609) 
-4.4392611416954004

>  <r_i_glide_hbond>  (1609) 
-0.16

>  <r_i_glide_ligand_efficiency>  (1609) 
-0.13318670126349699

>  <r_i_glide_ligand_efficiency_ln>  (1609) 
-0.97746108098658901

>  <r_i_glide_ligand_efficiency_sa>  (1609) 
-0.42720091610366101

>  <r_i_glide_lipo>  (1609) 
-1.71566990993463

>  <r_i_glide_metal>  (1609) 
-0

>  <r_i_glide_rewards>  (1609) 
-0.411179237528006

>  <r_lp_Energy>  (1609) 
21.943362

>  <r_qp_ACxDN^.5/SA>  (1609) 
0.012410900000000001

>  <r_qp_CIQPlogS>  (1609) 
-5.8239999999999998

>  <r_qp_EA(eV)>  (1609) 
0.59399999999999997

>  <r_qp_FISA>  (1609) 
55.777000000000001

>  <r_qp_FOSA>  (1609) 
227.803

>  <r_qp_IP(eV)>  (1609) 
8.4190000000000005

>  <r_qp_Jm>  (1609) 
0.044277531909684899

>  <r_qp_PISA>  (1609) 
457.09300000000002

>  <r_qp_PSA>  (1609) 
63.720999999999997

>  <r_qp_PercentHumanOralAbsorption>  (1609) 
100

>  <r_qp_QPPCaco>  (1609) 
730.91499999999996

>  <r_qp_QPPMDCK>  (1609) 
390.01900000000001

>  <r_qp_QPlogBB>  (1609) 
-0.069000000000000006

>  <r_qp_QPlogHERG>  (1609) 
-7.3040000000000003

>  <r_qp_QPlogKhsa>  (1609) 
0.81499999999999995

>  <r_qp_QPlogKp>  (1609) 
-2.2320000000000002

>  <r_qp_QPlogPC16>  (1609) 
15.391999999999999

>  <r_qp_QPlogPo/w>  (1609) 
4.9320000000000004

>  <r_qp_QPlogPoct>  (1609) 
23.143000000000001

>  <r_qp_QPlogPw>  (1609) 
12.557

>  <r_qp_QPlogS>  (1609) 
-4.7649999999999997

>  <r_qp_QPpolrz>  (1609) 
49.692999999999998

>  <r_qp_SASA>  (1609) 
740.673

>  <r_qp_SAamideO>  (1609) 
0

>  <r_qp_SAfluorine>  (1609) 
0

>  <r_qp_WPSA>  (1609) 
0

>  <r_qp_accptHB>  (1609) 
6.5

>  <r_qp_dip^2/V>  (1609) 
0.0155885

>  <r_qp_dipole>  (1609) 
4.6959999999999997

>  <r_qp_donorHB>  (1609) 
2

>  <r_qp_glob>  (1609) 
0.82286060000000005

>  <r_qp_mol_MW>  (1609) 
439.55900000000003

>  <r_qp_volume>  (1609) 
1414.7560000000001

>  <r_sd_BIOSOLVEIT.INFINISEE\_FTREES\_SIMILARITY>  (1609) 
0.93799999999999994

>  <r_sd_BIOSOLVEIT.LOGP>  (1609) 
3.3100999999999998

>  <r_sd_BIOSOLVEIT.MOLECULAR\_WEIGHT>  (1609) 
440.56799999999998

>  <r_sd_BIOSOLVEIT.TPSA>  (1609) 
63.390000000000001

>  <i_epik_Tot_Q>  (1609) 
1

>  <i_epik_Tot_abs_Q>  (1609) 
1

>  <i_f3d_flags>  (1609) 
0

>  <i_i_glide_confnum>  (1609) 
10

>  <i_i_glide_lignum>  (1609) 
806

>  <i_i_glide_posenum>  (1609) 
3

>  <i_i_glide_rotatable_bonds>  (1609) 
10

>  <i_lp_mmshare_version>  (1609) 
65135

>  <i_m_ct_format>  (1609) 
2

>  <i_m_source_file_index>  (1609) 
2177

>  <i_qp_#NandO>  (1609) 
6

>  <i_qp_#acid>  (1609) 
0

>  <i_qp_#amide>  (1609) 
0

>  <i_qp_#amidine>  (1609) 
0

>  <i_qp_#amine>  (1609) 
1

>  <i_qp_#in34>  (1609) 
0

>  <i_qp_#in56>  (1609) 
23

>  <i_qp_#metab>  (1609) 
7

>  <i_qp_#nonHatm>  (1609) 
33

>  <i_qp_#noncon>  (1609) 
0

>  <i_qp_#ringatoms>  (1609) 
23

>  <i_qp_#rotor>  (1609) 
8

>  <i_qp_#rtvFG>  (1609) 
0

>  <i_qp_#stars>  (1609) 
1

>  <i_qp_CNS>  (1609) 
1

>  <i_qp_HumanOralAbsorption>  (1609) 
3

>  <i_qp_RuleOfFive>  (1609) 
0

>  <i_qp_RuleOfThree>  (1609) 
1

>  <i_sd_BIOSOLVEIT.INFINISEE\_RESULT\_RANK>  (1609) 
1823

>  <i_sd_version>  (1609) 
0

>  <b_lp_Chiralities_Consistent>  (1609) 
1

>  <b_sd_chiral_flag>  (1609) 
0

>  <canonical_id>  (1609) 
ATP-HTVS-FD26B682FD2E

>  <compound_code>  (1609) 
69634

>  <title>  (1609) 
rxn502b____EMOL530620____EMOL4363915____EMOL2873214

>  <variant>  (1609) 
69634-1

>  <source_file>  (1609) 
运行/运行/ATP-VSW/ATP-VSW-DOCK_HTVS_1-002_lib.maegz

>  <canonical_smiles>  (1609) 
C[NH+](C)Cc1cccc(CNc2cnc(NC(=O)Cc3ccccc3)c(-n3cccc3)c2)c1

>  <scaffold>  (1609) 
O=C(Cc1ccccc1)Nc1ncc(NCc2ccccc2)cc1-n1cccc1

>  <molecular_formula>  (1609) 
C27H30N5O+

$$$$
ATP-HTVS-FD637A018D73
     RDKit          3D

 63 66  0  0  0  0  0  0  0  0999 V2000
  197.2741  181.6009  150.4503 S   0  0  0  0  0  0  0  0  0  0  0  0
  197.7766  183.2714  150.2654 C   0  0  0  0  0  0  0  0  0  0  0  0
  197.7274  183.9642  151.5174 C   0  0  0  0  0  0  0  0  0  0  0  0
  198.0650  185.3412  151.4911 C   0  0  0  0  0  0  0  0  0  0  0  0
  198.4557  185.9880  150.3056 C   0  0  0  0  0  0  0  0  0  0  0  0
  198.5151  185.2704  149.0984 C   0  0  0  0  0  0  0  0  0  0  0  0
  198.1722  183.9087  149.0784 C   0  0  0  0  0  0  0  0  0  0  0  0
  197.3047  183.0930  152.5989 C   0  0  0  0  0  0  0  0  0  0  0  0
  197.1438  183.5633  153.9139 N   0  0  0  0  0  0  0  0  0  0  0  0
  198.2007  184.1353  154.7264 C   0  0  1  0  0  0  0  0  0  0  0  0
  197.9460  184.0450  156.2340 C   0  0  0  0  0  0  0  0  0  0  0  0
  196.9396  183.2114  156.7762 C   0  0  0  0  0  0  0  0  0  0  0  0
  196.7906  183.0647  158.1714 C   0  0  0  0  0  0  0  0  0  0  0  0
  197.5936  183.8329  159.0493 C   0  0  0  0  0  0  0  0  0  0  0  0
  198.5592  184.7107  158.5202 C   0  0  0  0  0  0  0  0  0  0  0  0
  198.7518  184.7995  157.1241 C   0  0  0  0  0  0  0  0  0  0  0  0
  195.7748  182.0596  158.6963 C   0  0  1  0  0  0  0  0  0  0  0  0
  194.4164  182.3199  158.1552 N   0  0  1  0  0  0  0  0  0  0  0  0
  193.5069  181.1648  158.2902 C   0  0  2  0  0  0  0  0  0  0  0  0
  193.8239  183.5763  158.6553 C   0  0  2  0  0  0  0  0  0  0  0  0
  197.0216  181.8130  152.1569 C   0  0  0  0  0  0  0  0  0  0  0  0
  196.5456  180.6323  152.9553 C   0  0  1  0  0  0  0  0  0  0  0  0
  197.6228  179.9652  153.6996 N   0  0  0  0  0  0  0  0  0  0  0  0
  198.4256  179.0395  153.1156 C   0  0  0  0  0  0  0  0  0  0  0  0
  198.2369  178.6545  151.9630 O   0  0  0  0  0  0  0  0  0  0  0  0
  199.6381  178.5355  153.8582 C   0  0  0  0  0  0  0  0  0  0  0  0
  199.6109  178.2021  155.2388 C   0  0  0  0  0  0  0  0  0  0  0  0
  200.7917  177.8135  155.9069 C   0  0  0  0  0  0  0  0  0  0  0  0
  200.7586  177.6159  157.3517 C   0  0  0  0  0  0  0  0  0  0  0  0
  200.7315  177.4698  158.4976 N   0  0  0  0  0  0  0  0  0  0  0  0
  201.9912  177.6536  155.1881 C   0  0  0  0  0  0  0  0  0  0  0  0
  202.0141  177.9099  153.7996 C   0  0  0  0  0  0  0  0  0  0  0  0
  200.8454  178.3593  153.1433 C   0  0  0  0  0  0  0  0  0  0  0  0
  197.7292  180.4736  155.0778 C   0  0  2  0  0  0  0  0  0  0  0  0
  198.0070  185.9118  152.4056 H   0  0  0  0  0  0  0  0  0  0  0  0
  198.7100  187.0369  150.3212 H   0  0  0  0  0  0  0  0  0  0  0  0
  198.8200  185.7633  148.1891 H   0  0  0  0  0  0  0  0  0  0  0  0
  198.2075  183.3491  148.1555 H   0  0  0  0  0  0  0  0  0  0  0  0
  196.4790  183.0230  154.4499 H   0  0  0  0  0  0  0  0  0  0  0  0
  199.1444  183.6516  154.4726 H   0  0  0  0  0  0  0  0  0  0  0  0
  198.2971  185.1867  154.4657 H   0  0  0  0  0  0  0  0  0  0  0  0
  196.2757  182.6409  156.1510 H   0  0  0  0  0  0  0  0  0  0  0  0
  197.4626  183.7518  160.1223 H   0  0  0  0  0  0  0  0  0  0  0  0
  199.1514  185.3252  159.1800 H   0  0  0  0  0  0  0  0  0  0  0  0
  199.5087  185.4651  156.7234 H   0  0  0  0  0  0  0  0  0  0  0  0
  196.1251  181.0638  158.4158 H   0  0  0  0  0  0  0  0  0  0  0  0
  195.7512  182.0724  159.7814 H   0  0  0  0  0  0  0  0  0  0  0  0
  193.3275  180.9357  159.3336 H   0  0  0  0  0  0  0  0  0  0  0  0
  193.9291  180.2801  157.8140 H   0  0  0  0  0  0  0  0  0  0  0  0
  192.5509  181.3649  157.8021 H   0  0  0  0  0  0  0  0  0  0  0  0
  193.7174  183.5541  159.7354 H   0  0  0  0  0  0  0  0  0  0  0  0
  192.8376  183.7228  158.2210 H   0  0  0  0  0  0  0  0  0  0  0  0
  194.4352  184.4413  158.3951 H   0  0  0  0  0  0  0  0  0  0  0  0
  195.7996  180.9670  153.6748 H   0  0  0  0  0  0  0  0  0  0  0  0
  196.0103  179.9273  152.3222 H   0  0  0  0  0  0  0  0  0  0  0  0
  198.7077  178.2560  155.8367 H   0  0  0  0  0  0  0  0  0  0  0  0
  202.8853  177.3234  155.6977 H   0  0  0  0  0  0  0  0  0  0  0  0
  202.9258  177.7550  153.2349 H   0  0  0  0  0  0  0  0  0  0  0  0
  200.8845  178.5706  152.0769 H   0  0  0  0  0  0  0  0  0  0  0  0
  198.7700  180.5928  155.4003 H   0  0  0  0  0  0  0  0  0  0  0  0
  197.2251  179.7873  155.7670 H   0  0  0  0  0  0  0  0  0  0  0  0
  197.2663  181.4288  155.1518 H   0  0  0  0  0  0  0  0  0  0  0  0
  194.4839  182.4513  157.1444 H   0  0  0  0  0  0  0  0  0  0  0  0
  1  2  1  0
  1 21  1  0
  2  3  1  0
  2  7  2  0
  3  4  2  0
  3  8  1  0
  4  5  1  0
  4 35  1  0
  5  6  2  0
  5 36  1  0
  6  7  1  0
  6 37  1  0
  7 38  1  0
  8  9  1  0
  8 21  2  0
  9 10  1  0
  9 39  1  0
 10 11  1  0
 10 40  1  1
 10 41  1  0
 11 12  2  0
 11 16  1  0
 12 13  1  0
 12 42  1  0
 13 14  2  0
 13 17  1  0
 14 15  1  0
 14 43  1  0
 15 16  2  0
 15 44  1  0
 16 45  1  0
 17 18  1  0
 17 46  1  1
 17 47  1  0
 18 19  1  0
 18 20  1  0
 18 63  1  6
 19 48  1  1
 19 49  1  0
 19 50  1  0
 20 51  1  1
 20 52  1  0
 20 53  1  0
 21 22  1  0
 22 23  1  0
 22 54  1  1
 22 55  1  0
 23 24  1  0
 23 34  1  0
 24 25  2  0
 24 26  1  0
 26 27  1  0
 26 33  2  0
 27 28  2  0
 27 56  1  0
 28 29  1  0
 28 31  1  0
 29 30  3  0
 31 32  2  0
 31 57  1  0
 32 33  1  0
 32 58  1  0
 33 59  1  0
 34 60  1  1
 34 61  1  0
 34 62  1  0
M  CHG  1  18   1
M  END
>  <s_epik_cmdline>  (1610) 
J2VwaWtfcHl0aG9uJywgJy1waCcsICc3LjAwMDAwMCcsICctcGh0JywgJzIuMDAwMDAwJywgJy1tcycsICcxNicsICctdG4nLCAnOCcsICctbWEnLCAnMjAwJywgJy1pbWFlJywgJzxpbmZpbGUubWFlPicsICctb21hZScsICc8b3V0ZmlsZS5tYWU+Jw==

>  <s_epik_input>  (1610) 
W2NIXTFbY0hdW2NIXWMoQyNOKVtjSF1jMUMoPU8pTihbQ0gzXSlbQ0gyXWMoczIpYyhjKGMyMylbY0hdW2NIXVtjSF1bY0hdMylbTkhdW0NIMl1jNFtjSF1jKFtjSF1bY0hdW2NIXTQpW0NIMl1OKFtDSDNdKVtDSDNd

>  <s_i_glide_gridfile>  (1610) 
ATP-Grid

>  <s_lp_Force_Field>  (1610) 
OPLS_2005

>  <s_lp_Variant>  (1610) 
rxn502c____EMOL483931____EMOL49259969____EMOL2873214-1

>  <s_lp_label>  (1610) 
2282_sdstereoexpander_1_neutralizer_1_epik_1_stereoizer_1

>  <s_m_source_file>  (1610) 
ATP-VSW-LIGPREP-002-in.maegz

>  <s_sd_BIOSOLVEIT.INFINISEE\_QUERY\_NAME>  (1610) 
Ref-Lig

>  <s_sd_BIOSOLVEIT.INFINISEE\_QUERY\_SMILES>  (1610) 
S(c1nc2c(cc1C[NH2+]Cc3ccc(cc3)C[NH+](C)C)cccc2)Cc4ccccc4

>  <s_sd_BIOSOLVEIT.INFINISEE\_REACTION\_NAME>  (1610) 
rxn502c

>  <s_sd_BIOSOLVEIT.INFINISEE\_REAGENT1\_NAME>  (1610) 
EMOL483931

>  <s_sd_BIOSOLVEIT.INFINISEE\_REAGENT1\_SMILES>  (1610) 
O=C(O)c1cc(C#N)ccc1

>  <s_sd_BIOSOLVEIT.INFINISEE\_REAGENT2\_NAME>  (1610) 
EMOL49259969

>  <s_sd_BIOSOLVEIT.INFINISEE\_REAGENT2\_SMILES>  (1610) 
ClC=1c2c(SC1CNC)cccc2

>  <s_sd_BIOSOLVEIT.INFINISEE\_REAGENT3\_NAME>  (1610) 
EMOL2873214

>  <s_sd_BIOSOLVEIT.INFINISEE\_REAGENT3\_SMILES>  (1610) 
N(Cc1cc(ccc1)CN)(C)C

>  <s_sd_BIOSOLVEIT.INFINISEE\_SPACE>  (1610) 
eXplore_7tr_2022-12

>  <s_vsw_compound_code>  (1610) 
72994

>  <s_vsw_variant>  (1610) 
72994-1

>  <r_epik_Charging_Adjusted_Penalty>  (1610) 
0.086140609825027206

>  <r_epik_Ionization_Penalty>  (1610) 
0.043099999999999999

>  <r_epik_Ionization_Penalty_Charging>  (1610) 
0.043099999999999999

>  <r_epik_Ionization_Penalty_Neutral>  (1610) 
0

>  <r_epik_State_Penalty>  (1610) 
0.043099999999999999

>  <r_i_docking_score>  (1610) 
-4.1833874852872199

>  <r_i_glide_ecoul>  (1610) 
-10.1560258865356

>  <r_i_glide_eff_state_penalty>  (1610) 
0.043099999999999999

>  <r_i_glide_einternal>  (1610) 
4.8565807342529297

>  <r_i_glide_emodel>  (1610) 
-64.630446657533895

>  <r_i_glide_energy>  (1610) 
-49.258625984191902

>  <r_i_glide_erotb>  (1610) 
0.73269087368339403

>  <r_i_glide_esite>  (1610) 
-0.15089348226202101

>  <r_i_glide_evdw>  (1610) 
-39.1026000976562

>  <r_i_glide_gscore>  (1610) 
-4.2264874852872198

>  <r_i_glide_hbond>  (1610) 
-0.188140377216862

>  <r_i_glide_ligand_efficiency>  (1610) 
-0.123040808390801

>  <r_i_glide_ligand_efficiency_ln>  (1610) 
-0.92422763554433596

>  <r_i_glide_ligand_efficiency_sa>  (1610) 
-0.39860445443301801

>  <r_i_glide_lipo>  (1610) 
-0.85660397598332305

>  <r_i_glide_metal>  (1610) 
-0

>  <r_i_glide_rewards>  (1610) 
-0.28500663564524598

>  <r_lp_Energy>  (1610) 
36.134925000000003

>  <r_qp_ACxDN^.5/SA>  (1610) 
0.0087326000000000001

>  <r_qp_CIQPlogS>  (1610) 
-5.8949999999999996

>  <r_qp_EA(eV)>  (1610) 
0.65000000000000002

>  <r_qp_FISA>  (1610) 
100.96599999999999

>  <r_qp_FOSA>  (1610) 
288.75

>  <r_qp_IP(eV)>  (1610) 
7.8959999999999999

>  <r_qp_Jm>  (1610) 
2.077618303838e-06

>  <r_qp_PISA>  (1610) 
439.721

>  <r_qp_PSA>  (1610) 
69.819000000000003

>  <r_qp_PercentHumanOralAbsorption>  (1610) 
87.085999999999999

>  <r_qp_QPPCaco>  (1610) 
67.956999999999994

>  <r_qp_QPPMDCK>  (1610) 
47.978000000000002

>  <r_qp_QPlogBB>  (1610) 
-0.29999999999999999

>  <r_qp_QPlogHERG>  (1610) 
-9.0960000000000001

>  <r_qp_QPlogKhsa>  (1610) 
0.90300000000000002

>  <r_qp_QPlogKp>  (1610) 
-5.0919999999999996

>  <r_qp_QPlogPC16>  (1610) 
17.145

>  <r_qp_QPlogPo/w>  (1610) 
4.6710000000000003

>  <r_qp_QPlogPoct>  (1610) 
23.704000000000001

>  <r_qp_QPlogPw>  (1610) 
12.340999999999999

>  <r_qp_QPlogS>  (1610) 
-6.2610000000000001

>  <r_qp_QPpolrz>  (1610) 
54.015000000000001

>  <r_qp_SASA>  (1610) 
858.85500000000002

>  <r_qp_SAamideO>  (1610) 
0

>  <r_qp_SAfluorine>  (1610) 
0

>  <r_qp_WPSA>  (1610) 
29.417000000000002

>  <r_qp_accptHB>  (1610) 
7.5

>  <r_qp_dip^2/V>  (1610) 
0.012962700000000001

>  <r_qp_dipole>  (1610) 
4.4720000000000004

>  <r_qp_donorHB>  (1610) 
1

>  <r_qp_glob>  (1610) 
0.7518724

>  <r_qp_mol_MW>  (1610) 
468.61500000000001

>  <r_qp_volume>  (1610) 
1542.9369999999999

>  <r_sd_BIOSOLVEIT.INFINISEE\_FTREES\_SIMILARITY>  (1610) 
0.92400000000000004

>  <r_sd_BIOSOLVEIT.LOGP>  (1610) 
4.3017799999999999

>  <r_sd_BIOSOLVEIT.MOLECULAR\_WEIGHT>  (1610) 
469.62900000000002

>  <r_sd_BIOSOLVEIT.TPSA>  (1610) 
60.57

>  <i_epik_Tot_Q>  (1610) 
1

>  <i_epik_Tot_abs_Q>  (1610) 
1

>  <i_f3d_flags>  (1610) 
0

>  <i_i_glide_confnum>  (1610) 
7

>  <i_i_glide_lignum>  (1610) 
913

>  <i_i_glide_posenum>  (1610) 
18

>  <i_i_glide_rotatable_bonds>  (1610) 
9

>  <i_lp_mmshare_version>  (1610) 
65135

>  <i_m_ct_format>  (1610) 
2

>  <i_m_source_file_index>  (1610) 
2282

>  <i_qp_#NandO>  (1610) 
5

>  <i_qp_#acid>  (1610) 
0

>  <i_qp_#amide>  (1610) 
0

>  <i_qp_#amidine>  (1610) 
0

>  <i_qp_#amine>  (1610) 
2

>  <i_qp_#in34>  (1610) 
0

>  <i_qp_#in56>  (1610) 
21

>  <i_qp_#metab>  (1610) 
7

>  <i_qp_#nonHatm>  (1610) 
34

>  <i_qp_#noncon>  (1610) 
0

>  <i_qp_#ringatoms>  (1610) 
21

>  <i_qp_#rotor>  (1610) 
9

>  <i_qp_#rtvFG>  (1610) 
0

>  <i_qp_#stars>  (1610) 
1

>  <i_qp_CNS>  (1610) 
1

>  <i_qp_HumanOralAbsorption>  (1610) 
1

>  <i_qp_RuleOfFive>  (1610) 
0

>  <i_qp_RuleOfThree>  (1610) 
2

>  <i_sd_BIOSOLVEIT.INFINISEE\_RESULT\_RANK>  (1610) 
10293

>  <i_sd_version>  (1610) 
0

>  <b_lp_Chiralities_Consistent>  (1610) 
1

>  <b_sd_chiral_flag>  (1610) 
0

>  <canonical_id>  (1610) 
ATP-HTVS-FD637A018D73

>  <compound_code>  (1610) 
72994

>  <title>  (1610) 
rxn502c____EMOL483931____EMOL49259969____EMOL2873214

>  <variant>  (1610) 
72994-1

>  <source_file>  (1610) 
运行/运行/ATP-VSW/ATP-VSW-DOCK_HTVS_1-002_lib.maegz

>  <canonical_smiles>  (1610) 
CN(Cc1sc2ccccc2c1NCc1cccc(C[NH+](C)C)c1)C(=O)c1cccc(C#N)c1

>  <scaffold>  (1610) 
O=C(NCc1sc2ccccc2c1NCc1ccccc1)c1ccccc1

>  <molecular_formula>  (1610) 
C28H29N4OS+

$$$$
ATP-HTVS-FD8D954BBECF
     RDKit          3D

 56 59  0  0  0  0  0  0  0  0999 V2000
  197.9325  186.0814  159.8999 F   0  0  0  0  0  0  0  0  0  0  0  0
  197.7037  185.0949  159.0033 C   0  0  0  0  0  0  0  0  0  0  0  0
  196.7500  184.0973  159.2790 C   0  0  0  0  0  0  0  0  0  0  0  0
  196.4880  183.0741  158.3412 C   0  0  0  0  0  0  0  0  0  0  0  0
  197.2139  183.0547  157.1260 C   0  0  0  0  0  0  0  0  0  0  0  0
  198.1772  184.0565  156.8602 C   0  0  0  0  0  0  0  0  0  0  0  0
  198.4251  185.0763  157.7998 C   0  0  0  0  0  0  0  0  0  0  0  0
  196.9785  182.0005  156.0686 C   0  0  1  0  0  0  0  0  0  0  0  0
  197.5037  180.6635  156.4413 N   0  0  1  0  0  0  0  0  0  0  0  0
  197.1964  179.5996  155.4673 C   0  0  1  0  0  0  0  0  0  0  0  0
  198.0060  179.7508  154.2114 C   0  0  0  0  0  0  0  0  0  0  0  0
  199.2231  179.0871  153.8492 C   0  0  0  0  0  0  0  0  0  0  0  0
  199.6848  179.4539  152.6698 N   0  0  0  0  0  0  0  0  0  0  0  0
  198.7788  180.3730  152.2068 N   0  0  0  0  0  0  0  0  0  0  0  0
  197.7371  180.5566  153.1327 C   0  0  0  0  0  0  0  0  0  0  0  0
  196.7232  181.5004  152.7997 C   0  0  0  0  0  0  0  0  0  0  0  0
  196.8038  182.2005  151.6197 C   0  0  0  0  0  0  0  0  0  0  0  0
  197.8690  181.9637  150.7139 C   0  0  0  0  0  0  0  0  0  0  0  0
  198.8472  181.0456  151.0253 C   0  0  0  0  0  0  0  0  0  0  0  0
  199.9718  178.0694  154.6252 C   0  0  0  0  0  0  0  0  0  0  0  0
  200.6749  177.0384  153.9487 C   0  0  0  0  0  0  0  0  0  0  0  0
  201.3545  176.0339  154.6695 C   0  0  0  0  0  0  0  0  0  0  0  0
  201.3247  176.0279  156.0761 C   0  0  0  0  0  0  0  0  0  0  0  0
  200.6319  177.0440  156.7569 C   0  0  0  0  0  0  0  0  0  0  0  0
  199.9912  178.0715  156.0409 C   0  0  0  0  0  0  0  0  0  0  0  0
  195.4470  182.0135  158.6807 C   0  0  1  0  0  0  0  0  0  0  0  0
  194.0959  182.2854  158.1451 N   0  0  2  0  0  0  0  0  0  0  0  0
  193.5082  183.5415  158.6378 C   0  0  2  0  0  0  0  0  0  0  0  0
  193.1868  181.1300  158.2774 C   0  0  2  0  0  0  0  0  0  0  0  0
  198.4956  180.7365  156.6239 H   0  0  0  0  0  0  0  0  0  0  0  0
  196.2169  184.1259  160.2176 H   0  0  0  0  0  0  0  0  0  0  0  0
  198.7306  184.0654  155.9320 H   0  0  0  0  0  0  0  0  0  0  0  0
  199.1691  185.8346  157.5901 H   0  0  0  0  0  0  0  0  0  0  0  0
  195.9177  181.9485  155.8315 H   0  0  0  0  0  0  0  0  0  0  0  0
  197.4929  182.3609  155.1838 H   0  0  0  0  0  0  0  0  0  0  0  0
  197.3601  178.6297  155.9448 H   0  0  0  0  0  0  0  0  0  0  0  0
  196.1260  179.6230  155.2453 H   0  0  0  0  0  0  0  0  0  0  0  0
  195.9090  181.6985  153.4832 H   0  0  0  0  0  0  0  0  0  0  0  0
  196.0448  182.9488  151.3959 H   0  0  0  0  0  0  0  0  0  0  0  0
  197.9274  182.5257  149.7853 H   0  0  0  0  0  0  0  0  0  0  0  0
  199.6958  180.8272  150.3871 H   0  0  0  0  0  0  0  0  0  0  0  0
  200.6965  177.0137  152.8653 H   0  0  0  0  0  0  0  0  0  0  0  0
  201.8974  175.2653  154.1347 H   0  0  0  0  0  0  0  0  0  0  0  0
  201.8309  175.2537  156.6320 H   0  0  0  0  0  0  0  0  0  0  0  0
  200.5890  177.0479  157.8334 H   0  0  0  0  0  0  0  0  0  0  0  0
  199.5152  178.8488  156.6195 H   0  0  0  0  0  0  0  0  0  0  0  0
  195.7965  181.0388  158.3639 H   0  0  0  0  0  0  0  0  0  0  0  0
  195.3958  181.9214  159.7634 H   0  0  0  0  0  0  0  0  0  0  0  0
  193.4483  183.5645  159.7225 H   0  0  0  0  0  0  0  0  0  0  0  0
  192.5011  183.6666  158.2430 H   0  0  0  0  0  0  0  0  0  0  0  0
  194.0909  184.4146  158.3337 H   0  0  0  0  0  0  0  0  0  0  0  0
  193.0293  180.8748  159.3256 H   0  0  0  0  0  0  0  0  0  0  0  0
  193.5845  180.2456  157.7945 H   0  0  0  0  0  0  0  0  0  0  0  0
  192.2166  181.3282  157.8237 H   0  0  0  0  0  0  0  0  0  0  0  0
  194.1419  182.4310  157.1250 H   0  0  0  0  0  0  0  0  0  0  0  0
  197.0439  180.3424  157.2813 H   0  0  0  0  0  0  0  0  0  0  0  0
  1  2  1  0
  2  3  2  0
  2  7  1  0
  3  4  1  0
  3 31  1  0
  4  5  2  0
  4 26  1  0
  5  6  1  0
  5  8  1  0
  6  7  2  0
  6 32  1  0
  7 33  1  0
  8  9  1  0
  8 34  1  6
  8 35  1  0
  9 10  1  0
  9 30  1  1
  9 56  1  0
 10 11  1  0
 10 36  1  1
 10 37  1  0
 11 12  1  0
 11 15  2  0
 12 13  2  0
 12 20  1  0
 13 14  1  0
 14 15  1  0
 14 19  1  0
 15 16  1  0
 16 17  2  0
 16 38  1  0
 17 18  1  0
 17 39  1  0
 18 19  2  0
 18 40  1  0
 19 41  1  0
 20 21  2  0
 20 25  1  0
 21 22  1  0
 21 42  1  0
 22 23  2  0
 22 43  1  0
 23 24  1  0
 23 44  1  0
 24 25  2  0
 24 45  1  0
 25 46  1  0
 26 27  1  0
 26 47  1  6
 26 48  1  0
 27 28  1  0
 27 29  1  0
 27 55  1  6
 28 49  1  1
 28 50  1  0
 28 51  1  0
 29 52  1  1
 29 53  1  0
 29 54  1  0
M  CHG  2   9   1  27   1
M  END
>  <s_epik_cmdline>  (1611) 
J2VwaWtfcHl0aG9uJywgJy1waCcsICc3LjAwMDAwMCcsICctcGh0JywgJzIuMDAwMDAwJywgJy1tcycsICcxNicsICctdG4nLCAnOCcsICctbWEnLCAnMjAwJywgJy1pbWFlJywgJzxpbmZpbGUubWFlPicsICctb21hZScsICc8b3V0ZmlsZS5tYWU+Jw==

>  <s_epik_input>  (1611) 
RmMxW2NIXWMoW0NIMl1OKFtDSDNdKVtDSDNdKWMoW2NIXVtjSF0xKVtDSDJdW05IXVtDSDJdYyhjKG4yMylbY0hdW2NIXVtjSF1bY0hdMyljKG4yKS1jNFtjSF1bY0hdW2NIXVtjSF1bY0hdNA==

>  <s_i_glide_gridfile>  (1611) 
ATP-Grid

>  <s_lp_Force_Field>  (1611) 
OPLS_2005

>  <s_lp_Variant>  (1611) 
m_270004bbb____24792668____16711616-1

>  <s_lp_label>  (1611) 
851_sdstereoexpander_1_neutralizer_1_epik_1_stereoizer_1

>  <s_m_source_file>  (1611) 
ATP-VSW-LIGPREP-002-in.maegz

>  <s_sd_BIOSOLVEIT.INFINISEE\_QUERY\_NAME>  (1611) 
Ref-Lig

>  <s_sd_BIOSOLVEIT.INFINISEE\_QUERY\_SMILES>  (1611) 
S(c1nc2c(cc1C[NH2+]Cc3ccc(cc3)C[NH+](C)C)cccc2)Cc4ccccc4

>  <s_sd_BIOSOLVEIT.INFINISEE\_REACTION\_NAME>  (1611) 
m_270004bbb

>  <s_sd_BIOSOLVEIT.INFINISEE\_REAGENT1\_SMILES>  (1611) 
[R1*]NCc1c(cc(F)cc1)CN(C)C

>  <s_sd_BIOSOLVEIT.INFINISEE\_REAGENT2\_SMILES>  (1611) 
[R1*]CC=1C(=NN2C1C=CC=C2)c3ccccc3

>  <s_sd_BIOSOLVEIT.INFINISEE\_SPACE>  (1611) 
REALSpace_44bn_2023-08

>  <s_vsw_compound_code>  (1611) 
27202

>  <s_vsw_variant>  (1611) 
27202-1

>  <r_epik_Charging_Adjusted_Penalty>  (1611) 
0.39555009598371998

>  <r_epik_Ionization_Penalty>  (1611) 
0.19969999999999999

>  <r_epik_Ionization_Penalty_Charging>  (1611) 
0.19969999999999999

>  <r_epik_Ionization_Penalty_Neutral>  (1611) 
0

>  <r_epik_State_Penalty>  (1611) 
0.19589999999999999

>  <r_i_docking_score>  (1611) 
-5.3201785132354296

>  <r_i_glide_ecoul>  (1611) 
-16.2082118988037

>  <r_i_glide_eff_state_penalty>  (1611) 
0.19589999999999999

>  <r_i_glide_einternal>  (1611) 
1.34575927257538

>  <r_i_glide_emodel>  (1611) 
-76.048718300427197

>  <r_i_glide_energy>  (1611) 
-47.904548645019503

>  <r_i_glide_erotb>  (1611) 
0.76747548157463996

>  <r_i_glide_esite>  (1611) 
-0.20000000000000001

>  <r_i_glide_evdw>  (1611) 
-31.696336746215799

>  <r_i_glide_gscore>  (1611) 
-5.5160785132354304

>  <r_i_glide_hbond>  (1611) 
-0.35684622854758702

>  <r_i_glide_ligand_efficiency>  (1611) 
-0.18345443149087701

>  <r_i_glide_ligand_efficiency_ln>  (1611) 
-1.21818597144401

>  <r_i_glide_ligand_efficiency_sa>  (1611) 
-0.56363013598341605

>  <r_i_glide_lipo>  (1611) 
-0.62030749191898404

>  <r_i_glide_metal>  (1611) 
-0

>  <r_i_glide_rewards>  (1611) 
-1.0903516522121499

>  <r_lp_Energy>  (1611) 
21.986605000000001

>  <r_qp_ACxDN^.5/SA>  (1611) 
0.0072224999999999998

>  <r_qp_CIQPlogS>  (1611) 
-4.4770000000000003

>  <r_qp_EA(eV)>  (1611) 
0.50800000000000001

>  <r_qp_FISA>  (1611) 
25.73

>  <r_qp_FOSA>  (1611) 
141.23599999999999

>  <r_qp_IP(eV)>  (1611) 
8.4380000000000006

>  <r_qp_Jm>  (1611) 
0.051363830911364497

>  <r_qp_PISA>  (1611) 
409.13

>  <r_qp_PSA>  (1611) 
33.232999999999997

>  <r_qp_PercentHumanOralAbsorption>  (1611) 
100

>  <r_qp_QPPCaco>  (1611) 
351.31799999999998

>  <r_qp_QPPMDCK>  (1611) 
353.42599999999999

>  <r_qp_QPlogBB>  (1611) 
0.89300000000000002

>  <r_qp_QPlogHERG>  (1611) 
-6.875

>  <r_qp_QPlogKhsa>  (1611) 
0.79300000000000004

>  <r_qp_QPlogKp>  (1611) 
-4.1020000000000003

>  <r_qp_QPlogPC16>  (1611) 
12.472

>  <r_qp_QPlogPo/w>  (1611) 
4.4279999999999999

>  <r_qp_QPlogPoct>  (1611) 
18.100999999999999

>  <r_qp_QPlogPw>  (1611) 
8.766

>  <r_qp_QPlogS>  (1611) 
-2.7770000000000001

>  <r_qp_QPpolrz>  (1611) 
42.222000000000001

>  <r_qp_SASA>  (1611) 
623.05399999999997

>  <r_qp_SAamideO>  (1611) 
0

>  <r_qp_SAfluorine>  (1611) 
46.957000000000001

>  <r_qp_WPSA>  (1611) 
46.957000000000001

>  <r_qp_accptHB>  (1611) 
4.5

>  <r_qp_dip^2/V>  (1611) 
0.0081772000000000008

>  <r_qp_dipole>  (1611) 
3.1419999999999999

>  <r_qp_donorHB>  (1611) 
1

>  <r_qp_glob>  (1611) 
0.88013169999999996

>  <r_qp_mol_MW>  (1611) 
388.48700000000002

>  <r_qp_volume>  (1611) 
1207.4300000000001

>  <r_sd_BIOSOLVEIT.INFINISEE\_FTREES\_SIMILARITY>  (1611) 
0.92100000000000004

>  <r_sd_BIOSOLVEIT.LOGP>  (1611) 
2.0485000000000002

>  <r_sd_BIOSOLVEIT.MOLECULAR\_WEIGHT>  (1611) 
390.50299999999999

>  <r_sd_BIOSOLVEIT.TPSA>  (1611) 
38.869999999999997

>  <i_epik_Tot_Q>  (1611) 
2

>  <i_epik_Tot_abs_Q>  (1611) 
2

>  <i_f3d_flags>  (1611) 
0

>  <i_i_glide_confnum>  (1611) 
6

>  <i_i_glide_lignum>  (1611) 
269

>  <i_i_glide_posenum>  (1611) 
11

>  <i_i_glide_rotatable_bonds>  (1611) 
7

>  <i_lp_mmshare_version>  (1611) 
65135

>  <i_m_ct_format>  (1611) 
2

>  <i_m_source_file_index>  (1611) 
851

>  <i_qp_#NandO>  (1611) 
4

>  <i_qp_#acid>  (1611) 
0

>  <i_qp_#amide>  (1611) 
0

>  <i_qp_#amidine>  (1611) 
0

>  <i_qp_#amine>  (1611) 
2

>  <i_qp_#in34>  (1611) 
0

>  <i_qp_#in56>  (1611) 
21

>  <i_qp_#metab>  (1611) 
5

>  <i_qp_#nonHatm>  (1611) 
29

>  <i_qp_#noncon>  (1611) 
0

>  <i_qp_#ringatoms>  (1611) 
21

>  <i_qp_#rotor>  (1611) 
6

>  <i_qp_#rtvFG>  (1611) 
0

>  <i_qp_#stars>  (1611) 
0

>  <i_qp_CNS>  (1611) 
2

>  <i_qp_HumanOralAbsorption>  (1611) 
3

>  <i_qp_RuleOfFive>  (1611) 
0

>  <i_qp_RuleOfThree>  (1611) 
0

>  <i_sd_BIOSOLVEIT.INFINISEE\_REAGENT1\_NAME>  (1611) 
24792668

>  <i_sd_BIOSOLVEIT.INFINISEE\_REAGENT2\_NAME>  (1611) 
16711616

>  <i_sd_BIOSOLVEIT.INFINISEE\_RESULT\_RANK>  (1611) 
15033

>  <i_sd_version>  (1611) 
0

>  <b_lp_Chiralities_Consistent>  (1611) 
1

>  <b_sd_chiral_flag>  (1611) 
0

>  <canonical_id>  (1611) 
ATP-HTVS-FD8D954BBECF

>  <compound_code>  (1611) 
27202

>  <title>  (1611) 
m_270004bbb____24792668____16711616

>  <variant>  (1611) 
27202-1

>  <source_file>  (1611) 
运行/运行/ATP-VSW/ATP-VSW-DOCK_HTVS_1-002_lib.maegz

>  <canonical_smiles>  (1611) 
C[NH+](C)Cc1cc(F)ccc1C[NH2+]Cc1c(-c2ccccc2)nn2ccccc12

>  <scaffold>  (1611) 
c1ccc(C[NH2+]Cc2c(-c3ccccc3)nn3ccccc23)cc1

>  <molecular_formula>  (1611) 
C24H27FN4+2

$$$$
ATP-HTVS-FDA25AF4FB7A
     RDKit          3D

 51 54  0  0  0  0  0  0  0  0999 V2000
  195.1339  185.1888  160.6731 F   0  0  0  0  0  0  0  0  0  0  0  0
  195.7431  184.4534  159.7124 C   0  0  0  0  0  0  0  0  0  0  0  0
  197.0997  184.7066  159.4025 C   0  0  0  0  0  0  0  0  0  0  0  0
  197.7464  183.9961  158.3665 C   0  0  0  0  0  0  0  0  0  0  0  0
  196.9984  183.0283  157.6440 C   0  0  0  0  0  0  0  0  0  0  0  0
  195.6531  182.7598  157.9755 C   0  0  0  0  0  0  0  0  0  0  0  0
  195.0183  183.4674  159.0138 C   0  0  0  0  0  0  0  0  0  0  0  0
  197.6169  182.1864  156.5652 C   0  0  1  0  0  0  0  0  0  0  0  0
  198.2594  182.8959  155.4613 N   0  0  0  0  0  0  0  0  0  0  0  0
  198.9263  181.9840  154.5152 C   0  0  2  0  0  0  0  0  0  0  0  0
  197.9845  181.3742  153.4644 C   0  0  0  0  0  0  0  0  0  0  0  0
  197.3600  182.2121  152.4895 C   0  0  0  0  0  0  0  0  0  0  0  0
  197.5675  183.6256  152.4439 N   0  0  0  0  0  0  0  0  0  0  0  0
  197.6388  184.4546  153.4988 C   0  0  0  0  0  0  0  0  0  0  0  0
  197.9310  185.6422  153.3636 O   0  0  0  0  0  0  0  0  0  0  0  0
  197.3140  183.8982  154.8847 C   0  0  1  0  0  0  0  0  0  0  0  0
  196.5331  181.6358  151.4908 C   0  0  0  0  0  0  0  0  0  0  0  0
  196.2967  180.2458  151.4733 C   0  0  0  0  0  0  0  0  0  0  0  0
  196.9116  179.4211  152.4401 C   0  0  0  0  0  0  0  0  0  0  0  0
  197.7670  179.9726  153.4046 C   0  0  0  0  0  0  0  0  0  0  0  0
  199.8339  180.9244  155.1950 C   0  0  0  0  0  0  0  0  0  0  0  0
  199.2621  179.9045  156.0173 C   0  0  0  0  0  0  0  0  0  0  0  0
  200.0477  178.9642  156.6632 C   0  0  0  0  0  0  0  0  0  0  0  0
  201.4424  178.9502  156.4630 C   0  0  0  0  0  0  0  0  0  0  0  0
  202.0376  179.9075  155.6240 C   0  0  0  0  0  0  0  0  0  0  0  0
  201.2303  180.8980  155.0019 C   0  0  0  0  0  0  0  0  0  0  0  0
  199.2339  184.2744  158.1075 C   0  0  1  0  0  0  0  0  0  0  0  0
  200.1607  183.7356  159.2025 C   0  0  2  0  0  0  0  0  0  0  0  0
  197.6462  185.4540  159.9610 H   0  0  0  0  0  0  0  0  0  0  0  0
  195.1145  181.9790  157.4573 H   0  0  0  0  0  0  0  0  0  0  0  0
  193.9821  183.2530  159.2455 H   0  0  0  0  0  0  0  0  0  0  0  0
  198.3402  181.6195  157.1090 H   0  0  0  0  0  0  0  0  0  0  0  0
  196.8890  181.4623  156.1766 H   0  0  0  0  0  0  0  0  0  0  0  0
  199.6213  182.6147  153.9568 H   0  0  0  0  0  0  0  0  0  0  0  0
  197.6056  184.0649  151.5333 H   0  0  0  0  0  0  0  0  0  0  0  0
  196.3096  183.4608  154.8197 H   0  0  0  0  0  0  0  0  0  0  0  0
  197.2266  184.7356  155.5715 H   0  0  0  0  0  0  0  0  0  0  0  0
  196.0622  182.2722  150.7464 H   0  0  0  0  0  0  0  0  0  0  0  0
  195.6536  179.7980  150.7230 H   0  0  0  0  0  0  0  0  0  0  0  0
  196.7399  178.3597  152.4511 H   0  0  0  0  0  0  0  0  0  0  0  0
  198.2344  179.2786  154.0905 H   0  0  0  0  0  0  0  0  0  0  0  0
  198.1738  179.9224  156.1962 H   0  0  0  0  0  0  0  0  0  0  0  0
  199.5859  178.2267  157.2974 H   0  0  0  0  0  0  0  0  0  0  0  0
  202.0355  178.1804  156.9595 H   0  0  0  0  0  0  0  0  0  0  0  0
  203.1082  179.8820  155.4514 H   0  0  0  0  0  0  0  0  0  0  0  0
  201.7089  181.6313  154.3537 H   0  0  0  0  0  0  0  0  0  0  0  0
  199.6179  183.8522  157.1828 H   0  0  0  0  0  0  0  0  0  0  0  0
  199.3568  185.3513  158.0096 H   0  0  0  0  0  0  0  0  0  0  0  0
  201.2040  183.9581  158.9588 H   0  0  0  0  0  0  0  0  0  0  0  0
  200.0768  182.6510  159.2793 H   0  0  0  0  0  0  0  0  0  0  0  0
  199.9359  184.1677  160.1772 H   0  0  0  0  0  0  0  0  0  0  0  0
  1  2  1  0
  2  3  2  0
  2  7  1  0
  3  4  1  0
  3 29  1  0
  4  5  2  0
  4 27  1  0
  5  6  1  0
  5  8  1  0
  6  7  2  0
  6 30  1  0
  7 31  1  0
  8  9  1  0
  8 32  1  1
  8 33  1  0
  9 10  1  0
  9 16  1  0
 10 11  1  0
 10 21  1  0
 10 34  1  6
 11 12  1  0
 11 20  2  0
 12 13  1  0
 12 17  2  0
 13 14  1  0
 13 35  1  0
 14 15  2  0
 14 16  1  0
 16 36  1  6
 16 37  1  0
 17 18  1  0
 17 38  1  0
 18 19  2  0
 18 39  1  0
 19 20  1  0
 19 40  1  0
 20 41  1  0
 21 22  2  0
 21 26  1  0
 22 23  1  0
 22 42  1  0
 23 24  2  0
 23 43  1  0
 24 25  1  0
 24 44  1  0
 25 26  2  0
 25 45  1  0
 26 46  1  0
 27 28  1  0
 27 47  1  6
 27 48  1  0
 28 49  1  6
 28 50  1  0
 28 51  1  0
M  END
>  <s_epik_cmdline>  (1612) 
J2VwaWtfcHl0aG9uJywgJy1waCcsICc3LjAwMDAwMCcsICctcGh0JywgJzIuMDAwMDAwJywgJy1tcycsICcxNicsICctdG4nLCAnOCcsICctbWEnLCAnMjAwJywgJy1pbWFlJywgJzxpbmZpbGUubWFlPicsICctb21hZScsICc8b3V0ZmlsZS5tYWU+Jw==

>  <s_epik_input>  (1612) 
W2NIXTFbY0hdW2NIXVtjSF1bY0hdYzFbQ0BASF0yTihbQ0gyXWMoW2NIXVtjSF0zKWMoW2NIXWMzRilbQ0gyXVtDSDNdKVtDSDJdQyg9TylbTkhdYyhjMjQpW2NIXVtjSF1bY0hdW2NIXTQ=

>  <s_i_glide_gridfile>  (1612) 
ATP-Grid

>  <s_lp_Force_Field>  (1612) 
OPLS_2005

>  <s_lp_Variant>  (1612) 
m_2230bdc____17849930____22993542-2

>  <s_lp_label>  (1612) 
890_sdstereoexpander_3_neutralizer_1_epik_1_stereoizer_1

>  <s_m_source_file>  (1612) 
ATP-VSW-LIGPREP-001-in.maegz

>  <s_sd_BIOSOLVEIT.INFINISEE\_QUERY\_NAME>  (1612) 
Ref-Lig

>  <s_sd_BIOSOLVEIT.INFINISEE\_QUERY\_SMILES>  (1612) 
S(c1nc2c(cc1C[NH2+]Cc3ccc(cc3)C[NH+](C)C)cccc2)Cc4ccccc4

>  <s_sd_BIOSOLVEIT.INFINISEE\_REACTION\_NAME>  (1612) 
m_2230bdc

>  <s_sd_BIOSOLVEIT.INFINISEE\_REAGENT1\_SMILES>  (1612) 
[R1*]N1C(c2c(NC(=O)C1)cccc2)c3ccccc3

>  <s_sd_BIOSOLVEIT.INFINISEE\_REAGENT2\_SMILES>  (1612) 
[R1*]Cc1c(cc(F)cc1)CC

>  <s_sd_BIOSOLVEIT.INFINISEE\_SPACE>  (1612) 
REALSpace_44bn_2023-08

>  <s_vsw_compound_code>  (1612) 
28449

>  <s_vsw_variant>  (1612) 
28449-2

>  <r_epik_Charging_Adjusted_Penalty>  (1612) 
0.0087634984339075902

>  <r_epik_Ionization_Penalty>  (1612) 
0.0088000000000000005

>  <r_epik_Ionization_Penalty_Charging>  (1612) 
0

>  <r_epik_Ionization_Penalty_Neutral>  (1612) 
0.0088000000000000005

>  <r_epik_State_Penalty>  (1612) 
0.0088000000000000005

>  <r_i_docking_score>  (1612) 
-1.86073470843373

>  <r_i_glide_ecoul>  (1612) 
-2.0300312042236301

>  <r_i_glide_eff_state_penalty>  (1612) 
0.0088000000000000005

>  <r_i_glide_einternal>  (1612) 
0.44243577122688299

>  <r_i_glide_emodel>  (1612) 
-36.726791071460603

>  <r_i_glide_energy>  (1612) 
-32.926977157592802

>  <r_i_glide_erotb>  (1612) 
0.41371546966157902

>  <r_i_glide_esite>  (1612) 
-0.029382444140211701

>  <r_i_glide_evdw>  (1612) 
-30.896945953369102

>  <r_i_glide_gscore>  (1612) 
-1.8695347084337299

>  <r_i_glide_hbond>  (1612) 
0

>  <r_i_glide_ligand_efficiency>  (1612) 
-0.066454811015490306

>  <r_i_glide_ligand_efficiency_ln>  (1612) 
-0.42951220425151998

>  <r_i_glide_ligand_efficiency_sa>  (1612) 
-0.20179594603357701

>  <r_i_glide_lipo>  (1612) 
-1.22694567693773

>  <r_i_glide_metal>  (1612) 
-0

>  <r_i_glide_rewards>  (1612) 
0.82242992128463899

>  <r_lp_Energy>  (1612) 
52.764834999999998

>  <r_qp_ACxDN^.5/SA>  (1612) 
0.0070236999999999999

>  <r_qp_CIQPlogS>  (1612) 
-4.9279999999999999

>  <r_qp_EA(eV)>  (1612) 
0.252

>  <r_qp_FISA>  (1612) 
62.027999999999999

>  <r_qp_FOSA>  (1612) 
129.80199999999999

>  <r_qp_IP(eV)>  (1612) 
9.5109999999999992

>  <r_qp_Jm>  (1612) 
0.0056551845789011004

>  <r_qp_PISA>  (1612) 
401.86799999999999

>  <r_qp_PSA>  (1612) 
41.005000000000003

>  <r_qp_PercentHumanOralAbsorption>  (1612) 
100

>  <r_qp_QPPCaco>  (1612) 
637.65800000000002

>  <r_qp_QPPMDCK>  (1612) 
608.69899999999996

>  <r_qp_QPlogBB>  (1612) 
0.315

>  <r_qp_QPlogHERG>  (1612) 
-6.7069999999999999

>  <r_qp_QPlogKhsa>  (1612) 
0.83599999999999997

>  <r_qp_QPlogKp>  (1612) 
-3.0219999999999998

>  <r_qp_QPlogPC16>  (1612) 
12.388999999999999

>  <r_qp_QPlogPo/w>  (1612) 
4.516

>  <r_qp_QPlogPoct>  (1612) 
18.634

>  <r_qp_QPlogPw>  (1612) 
9.6679999999999993

>  <r_qp_QPlogS>  (1612) 
-4.7990000000000004

>  <r_qp_QPpolrz>  (1612) 
43.033000000000001

>  <r_qp_SASA>  (1612) 
640.68399999999997

>  <r_qp_SAamideO>  (1612) 
0

>  <r_qp_SAfluorine>  (1612) 
46.985999999999997

>  <r_qp_WPSA>  (1612) 
46.985999999999997

>  <r_qp_accptHB>  (1612) 
4.5

>  <r_qp_dip^2/V>  (1612) 
0.0171831

>  <r_qp_dipole>  (1612) 
4.5049999999999999

>  <r_qp_donorHB>  (1612) 
1

>  <r_qp_glob>  (1612) 
0.8435144

>  <r_qp_mol_MW>  (1612) 
374.45699999999999

>  <r_qp_volume>  (1612) 
1181.2919999999999

>  <r_sd_BIOSOLVEIT.INFINISEE\_FTREES\_SIMILARITY>  (1612) 
0.91900000000000004

>  <r_sd_BIOSOLVEIT.LOGP>  (1612) 
3.5146999999999999

>  <r_sd_BIOSOLVEIT.MOLECULAR\_WEIGHT>  (1612) 
375.46499999999997

>  <r_sd_BIOSOLVEIT.TPSA>  (1612) 
33.539999999999999

>  <i_epik_Tot_Q>  (1612) 
0

>  <i_epik_Tot_abs_Q>  (1612) 
0

>  <i_f3d_flags>  (1612) 
0

>  <i_i_glide_confnum>  (1612) 
2

>  <i_i_glide_lignum>  (1612) 
158

>  <i_i_glide_posenum>  (1612) 
6

>  <i_i_glide_rotatable_bonds>  (1612) 
4

>  <i_lp_mmshare_version>  (1612) 
65135

>  <i_m_ct_format>  (1612) 
2

>  <i_m_source_file_index>  (1612) 
890

>  <i_qp_#NandO>  (1612) 
3

>  <i_qp_#acid>  (1612) 
0

>  <i_qp_#amide>  (1612) 
0

>  <i_qp_#amidine>  (1612) 
0

>  <i_qp_#amine>  (1612) 
1

>  <i_qp_#in34>  (1612) 
0

>  <i_qp_#in56>  (1612) 
18

>  <i_qp_#metab>  (1612) 
8

>  <i_qp_#nonHatm>  (1612) 
28

>  <i_qp_#noncon>  (1612) 
2

>  <i_qp_#ringatoms>  (1612) 
23

>  <i_qp_#rotor>  (1612) 
3

>  <i_qp_#rtvFG>  (1612) 
0

>  <i_qp_#stars>  (1612) 
0

>  <i_qp_CNS>  (1612) 
1

>  <i_qp_HumanOralAbsorption>  (1612) 
3

>  <i_qp_RuleOfFive>  (1612) 
0

>  <i_qp_RuleOfThree>  (1612) 
1

>  <i_sd_BIOSOLVEIT.INFINISEE\_REAGENT1\_NAME>  (1612) 
17849930

>  <i_sd_BIOSOLVEIT.INFINISEE\_REAGENT2\_NAME>  (1612) 
22993542

>  <i_sd_BIOSOLVEIT.INFINISEE\_RESULT\_RANK>  (1612) 
18010

>  <i_sd_version>  (1612) 
0

>  <b_lp_Chiralities_Consistent>  (1612) 
1

>  <b_sd_chiral_flag>  (1612) 
0

>  <canonical_id>  (1612) 
ATP-HTVS-FDA25AF4FB7A

>  <compound_code>  (1612) 
28449

>  <title>  (1612) 
m_2230bdc____17849930____22993542

>  <variant>  (1612) 
28449-2

>  <source_file>  (1612) 
运行/运行/ATP-VSW/ATP-VSW-DOCK_HTVS_1-001_lib/ATP-VSW-DOCK_HTVS_1-001_lib

>  <canonical_smiles>  (1612) 
CCc1cc(F)ccc1CN1CC(=O)Nc2ccccc2[C@@H]1c1ccccc1

>  <scaffold>  (1612) 
O=C1CN(Cc2ccccc2)C(c2ccccc2)c2ccccc2N1

>  <molecular_formula>  (1612) 
C24H23FN2O

$$$$
ATP-HTVS-FDB0B4A5AF84
     RDKit          3D

 55 57  0  0  0  0  0  0  0  0999 V2000
  200.7306  175.0455  151.1906 O   0  0  0  0  0  0  0  0  0  0  0  0
  200.3501  175.8851  152.0115 C   0  0  0  0  0  0  0  0  0  0  0  0
  199.5440  176.9270  151.7361 N   0  0  0  0  0  0  0  0  0  0  0  0
  198.8777  177.2704  150.5268 C   0  0  0  0  0  0  0  0  0  0  0  0
  197.9014  178.2993  150.5304 C   0  0  0  0  0  0  0  0  0  0  0  0
  197.5502  178.9961  151.7056 N   0  0  0  0  0  0  0  0  0  0  0  0
  198.3233  180.2166  151.9237 C   0  0  1  0  0  0  0  0  0  0  0  0
  197.8953  181.0371  153.1395 C   0  0  0  0  0  0  0  0  0  0  0  0
  198.2611  182.4045  153.2189 C   0  0  0  0  0  0  0  0  0  0  0  0
  197.9018  183.1739  154.3610 C   0  0  0  0  0  0  0  0  0  0  0  0
  197.1277  182.5920  155.3904 C   0  0  0  0  0  0  0  0  0  0  0  0
  196.6909  181.2627  155.2283 C   0  0  0  0  0  0  0  0  0  0  0  0
  197.1155  180.4772  154.1706 C   0  0  0  0  0  0  0  0  0  0  0  0
  196.7783  183.3983  156.6501 C   0  0  1  0  0  0  0  0  0  0  0  0
  197.2644  182.7904  157.9296 N   0  0  2  0  0  0  0  0  0  0  0  0
  196.7639  181.4269  158.1996 C   0  0  2  0  0  0  0  0  0  0  0  0
  197.0155  183.6680  159.1094 C   0  0  2  0  0  0  0  0  0  0  0  0
  197.2210  178.5710  149.3120 C   0  0  0  0  0  0  0  0  0  0  0  0
  197.4576  177.9069  148.1620 N   0  0  0  0  0  0  0  0  0  0  0  0
  198.3948  176.9412  148.1656 C   0  0  0  0  0  0  0  0  0  0  0  0
  199.1299  176.5962  149.3080 C   0  0  0  0  0  0  0  0  0  0  0  0
  196.1324  179.6184  149.2133 C   0  0  2  0  0  0  0  0  0  0  0  0
  200.7733  175.7434  153.4445 C   0  0  0  0  0  0  0  0  0  0  0  0
  201.5420  174.6257  153.8353 C   0  0  0  0  0  0  0  0  0  0  0  0
  201.9346  174.4647  155.1761 C   0  0  0  0  0  0  0  0  0  0  0  0
  201.5707  175.4316  156.1313 C   0  0  0  0  0  0  0  0  0  0  0  0
  200.8161  176.5546  155.7501 C   0  0  0  0  0  0  0  0  0  0  0  0
  200.4218  176.7185  154.4117 C   0  0  0  0  0  0  0  0  0  0  0  0
  199.3088  177.5288  152.5129 H   0  0  0  0  0  0  0  0  0  0  0  0
  196.5611  179.1831  151.7820 H   0  0  0  0  0  0  0  0  0  0  0  0
  199.3740  179.9702  152.0536 H   0  0  0  0  0  0  0  0  0  0  0  0
  198.2347  180.8728  151.0581 H   0  0  0  0  0  0  0  0  0  0  0  0
  198.8100  182.8715  152.4212 H   0  0  0  0  0  0  0  0  0  0  0  0
  198.1915  184.2218  154.4070 H   0  0  0  0  0  0  0  0  0  0  0  0
  196.0135  180.7954  155.9416 H   0  0  0  0  0  0  0  0  0  0  0  0
  196.8408  179.4276  154.1615 H   0  0  0  0  0  0  0  0  0  0  0  0
  197.1966  184.4062  156.5569 H   0  0  0  0  0  0  0  0  0  0  0  0
  195.6966  183.5108  156.6911 H   0  0  0  0  0  0  0  0  0  0  0  0
  195.6703  181.4178  158.1608 H   0  0  0  0  0  0  0  0  0  0  0  0
  197.0783  181.0464  159.1766 H   0  0  0  0  0  0  0  0  0  0  0  0
  197.1680  180.7303  157.4922 H   0  0  0  0  0  0  0  0  0  0  0  0
  195.9445  183.8542  159.2321 H   0  0  0  0  0  0  0  0  0  0  0  0
  197.5389  184.6283  159.0286 H   0  0  0  0  0  0  0  0  0  0  0  0
  197.3695  183.1668  160.0137 H   0  0  0  0  0  0  0  0  0  0  0  0
  198.5949  176.4209  147.2394 H   0  0  0  0  0  0  0  0  0  0  0  0
  199.8600  175.8109  149.2110 H   0  0  0  0  0  0  0  0  0  0  0  0
  196.5453  180.5978  149.4451 H   0  0  0  0  0  0  0  0  0  0  0  0
  195.3198  179.4100  149.9067 H   0  0  0  0  0  0  0  0  0  0  0  0
  195.7091  179.6507  148.2074 H   0  0  0  0  0  0  0  0  0  0  0  0
  201.8226  173.8669  153.1149 H   0  0  0  0  0  0  0  0  0  0  0  0
  202.5102  173.5993  155.4668 H   0  0  0  0  0  0  0  0  0  0  0  0
  201.8700  175.3124  157.1604 H   0  0  0  0  0  0  0  0  0  0  0  0
  200.5314  177.2982  156.4785 H   0  0  0  0  0  0  0  0  0  0  0  0
  199.8380  177.5883  154.1545 H   0  0  0  0  0  0  0  0  0  0  0  0
  198.2682  182.7111  157.8395 H   0  0  0  0  0  0  0  0  0  0  0  0
  1  2  2  0
  2  3  1  0
  2 23  1  0
  3  4  1  0
  3 29  1  0
  4  5  1  0
  4 21  2  0
  5  6  1  0
  5 18  2  0
  6  7  1  0
  6 30  1  0
  7  8  1  0
  7 31  1  1
  7 32  1  0
  8  9  1  0
  8 13  2  0
  9 10  2  0
  9 33  1  0
 10 11  1  0
 10 34  1  0
 11 12  2  0
 11 14  1  0
 12 13  1  0
 12 35  1  0
 13 36  1  0
 14 15  1  0
 14 37  1  6
 14 38  1  0
 15 16  1  0
 15 17  1  0
 15 55  1  6
 16 39  1  1
 16 40  1  0
 16 41  1  0
 17 42  1  1
 17 43  1  0
 17 44  1  0
 18 19  1  0
 18 22  1  0
 19 20  2  0
 20 21  1  0
 20 45  1  0
 21 46  1  0
 22 47  1  1
 22 48  1  0
 22 49  1  0
 23 24  2  0
 23 28  1  0
 24 25  1  0
 24 50  1  0
 25 26  2  0
 25 51  1  0
 26 27  1  0
 26 52  1  0
 27 28  2  0
 27 53  1  0
 28 54  1  0
M  CHG  1  15   1
M  END
>  <s_epik_cmdline>  (1613) 
J2VwaWtfcHl0aG9uJywgJy1waCcsICc3LjAwMDAwMCcsICctcGh0JywgJzIuMDAwMDAwJywgJy1tcycsICcxNicsICctdG4nLCAnOCcsICctbWEnLCAnMjAwJywgJy1pbWFlJywgJzxpbmZpbGUubWFlPicsICctb21hZScsICc8b3V0ZmlsZS5tYWU+Jw==

>  <s_epik_input>  (1613) 
W2NIXTFbY0hdW2NIXVtjSF1bY0hdYzFDKD1PKVtOSF1jMmMoYyhbQ0gzXSluW2NIXVtjSF0yKVtOSF1bQ0gyXWMzW2NIXVtjSF1jKFtjSF1bY0hdMylbQ0gyXU4oW0NIM10pW0NIM10=

>  <s_i_glide_gridfile>  (1613) 
ATP-Grid

>  <s_lp_Force_Field>  (1613) 
OPLS_2005

>  <s_lp_Variant>  (1613) 
rxn502a____EMOL480353____EMOL42780653____EMOL50155899-1

>  <s_lp_label>  (1613) 
2846_sdstereoexpander_1_neutralizer_1_epik_1_stereoizer_1

>  <s_m_source_file>  (1613) 
ATP-VSW-LIGPREP-003-in.maegz

>  <s_sd_BIOSOLVEIT.INFINISEE\_QUERY\_NAME>  (1613) 
Ref-Lig

>  <s_sd_BIOSOLVEIT.INFINISEE\_QUERY\_SMILES>  (1613) 
S(c1nc2c(cc1C[NH2+]Cc3ccc(cc3)C[NH+](C)C)cccc2)Cc4ccccc4

>  <s_sd_BIOSOLVEIT.INFINISEE\_REACTION\_NAME>  (1613) 
rxn502a

>  <s_sd_BIOSOLVEIT.INFINISEE\_REAGENT1\_NAME>  (1613) 
EMOL480353

>  <s_sd_BIOSOLVEIT.INFINISEE\_REAGENT1\_SMILES>  (1613) 
ClC(=O)c1ccccc1

>  <s_sd_BIOSOLVEIT.INFINISEE\_REAGENT2\_NAME>  (1613) 
EMOL42780653

>  <s_sd_BIOSOLVEIT.INFINISEE\_REAGENT2\_SMILES>  (1613) 
Ic1c(nccc1N)C

>  <s_sd_BIOSOLVEIT.INFINISEE\_REAGENT3\_NAME>  (1613) 
EMOL50155899

>  <s_sd_BIOSOLVEIT.INFINISEE\_REAGENT3\_SMILES>  (1613) 
N(Cc1ccc(cc1)CN)(C)C

>  <s_sd_BIOSOLVEIT.INFINISEE\_SPACE>  (1613) 
eXplore_7tr_2022-12

>  <s_vsw_compound_code>  (1613) 
91043

>  <s_vsw_variant>  (1613) 
91043-1

>  <r_epik_Charging_Adjusted_Penalty>  (1613) 
0.27333800653078899

>  <r_epik_Ionization_Penalty>  (1613) 
0.2341

>  <r_epik_Ionization_Penalty_Charging>  (1613) 
0.039199999999999999

>  <r_epik_Ionization_Penalty_Neutral>  (1613) 
0.19489999999999999

>  <r_epik_State_Penalty>  (1613) 
0.2341

>  <r_i_docking_score>  (1613) 
-4.0570925598644996

>  <r_i_glide_ecoul>  (1613) 
-5.2994790077209499

>  <r_i_glide_eff_state_penalty>  (1613) 
0.2341

>  <r_i_glide_einternal>  (1613) 
4.8913588523864702

>  <r_i_glide_emodel>  (1613) 
-46.2482249053567

>  <r_i_glide_energy>  (1613) 
-35.781996250152602

>  <r_i_glide_erotb>  (1613) 
0.96057489840215704

>  <r_i_glide_esite>  (1613) 
-0.032743271416607697

>  <r_i_glide_evdw>  (1613) 
-30.482517242431602

>  <r_i_glide_gscore>  (1613) 
-4.2911925598645002

>  <r_i_glide_hbond>  (1613) 
0

>  <r_i_glide_ligand_efficiency>  (1613) 
-0.144896162852304

>  <r_i_glide_ligand_efficiency_ln>  (1613) 
-0.93649608423043396

>  <r_i_glide_ligand_efficiency_sa>  (1613) 
-0.43999008969569298

>  <r_i_glide_lipo>  (1613) 
-1.6888951451560501

>  <r_i_glide_metal>  (1613) 
-0

>  <r_i_glide_rewards>  (1613) 
-1.2110813284142801

>  <r_lp_Energy>  (1613) 
26.626308999999999

>  <r_lp_tautomer_probability>  (1613) 
0.999999999999999

>  <r_qp_ACxDN^.5/SA>  (1613) 
0.0143991

>  <r_qp_CIQPlogS>  (1613) 
-4.2320000000000002

>  <r_qp_EA(eV)>  (1613) 
0.41799999999999998

>  <r_qp_FISA>  (1613) 
66.343999999999994

>  <r_qp_FOSA>  (1613) 
269.95600000000002

>  <r_qp_IP(eV)>  (1613) 
8.6669999999999998

>  <r_qp_Jm>  (1613) 
0.20718641865705201

>  <r_qp_PISA>  (1613) 
302.10000000000002

>  <r_qp_PSA>  (1613) 
57.813000000000002

>  <r_qp_PercentHumanOralAbsorption>  (1613) 
96.771000000000001

>  <r_qp_QPPCaco>  (1613) 
580.303

>  <r_qp_QPPMDCK>  (1613) 
303.92700000000002

>  <r_qp_QPlogBB>  (1613) 
-0.052999999999999999

>  <r_qp_QPlogHERG>  (1613) 
-5.9059999999999997

>  <r_qp_QPlogKhsa>  (1613) 
0.371

>  <r_qp_QPlogKp>  (1613) 
-3.069

>  <r_qp_QPlogPC16>  (1613) 
12.593999999999999

>  <r_qp_QPlogPo/w>  (1613) 
3.4769999999999999

>  <r_qp_QPlogPoct>  (1613) 
20.382999999999999

>  <r_qp_QPlogPw>  (1613) 
11.548999999999999

>  <r_qp_QPlogS>  (1613) 
-3.1890000000000001

>  <r_qp_QPpolrz>  (1613) 
40.951000000000001

>  <r_qp_SASA>  (1613) 
638.39999999999998

>  <r_qp_SAamideO>  (1613) 
0

>  <r_qp_SAfluorine>  (1613) 
0

>  <r_qp_WPSA>  (1613) 
0

>  <r_qp_accptHB>  (1613) 
6.5

>  <r_qp_dip^2/V>  (1613) 
0.043678099999999997

>  <r_qp_dipole>  (1613) 
7.2919999999999998

>  <r_qp_donorHB>  (1613) 
2

>  <r_qp_glob>  (1613) 
0.86362510000000003

>  <r_qp_mol_MW>  (1613) 
374.48500000000001

>  <r_qp_volume>  (1613) 
1217.25

>  <r_sd_BIOSOLVEIT.INFINISEE\_FTREES\_SIMILARITY>  (1613) 
0.90500000000000003

>  <r_sd_BIOSOLVEIT.LOGP>  (1613) 
2.8989199999999999

>  <r_sd_BIOSOLVEIT.MOLECULAR\_WEIGHT>  (1613) 
375.49299999999999

>  <r_sd_BIOSOLVEIT.TPSA>  (1613) 
58.460000000000001

>  <i_epik_Tot_Q>  (1613) 
1

>  <i_epik_Tot_abs_Q>  (1613) 
1

>  <i_f3d_flags>  (1613) 
0

>  <i_i_glide_confnum>  (1613) 
10

>  <i_i_glide_lignum>  (1613) 
1368

>  <i_i_glide_posenum>  (1613) 
10

>  <i_i_glide_rotatable_bonds>  (1613) 
8

>  <i_lp_mmshare_version>  (1613) 
65135

>  <i_m_ct_format>  (1613) 
2

>  <i_m_source_file_index>  (1613) 
2846

>  <i_qp_#NandO>  (1613) 
5

>  <i_qp_#acid>  (1613) 
0

>  <i_qp_#amide>  (1613) 
0

>  <i_qp_#amidine>  (1613) 
0

>  <i_qp_#amine>  (1613) 
1

>  <i_qp_#in34>  (1613) 
0

>  <i_qp_#in56>  (1613) 
18

>  <i_qp_#metab>  (1613) 
8

>  <i_qp_#nonHatm>  (1613) 
28

>  <i_qp_#noncon>  (1613) 
0

>  <i_qp_#ringatoms>  (1613) 
18

>  <i_qp_#rotor>  (1613) 
7

>  <i_qp_#rtvFG>  (1613) 
0

>  <i_qp_#stars>  (1613) 
0

>  <i_qp_CNS>  (1613) 
1

>  <i_qp_HumanOralAbsorption>  (1613) 
3

>  <i_qp_RuleOfFive>  (1613) 
0

>  <i_qp_RuleOfThree>  (1613) 
1

>  <i_sd_BIOSOLVEIT.INFINISEE\_RESULT\_RANK>  (1613) 
68540

>  <i_sd_version>  (1613) 
0

>  <b_lp_Chiralities_Consistent>  (1613) 
1

>  <b_sd_chiral_flag>  (1613) 
0

>  <canonical_id>  (1613) 
ATP-HTVS-FDB0B4A5AF84

>  <compound_code>  (1613) 
91043

>  <title>  (1613) 
rxn502a____EMOL480353____EMOL42780653____EMOL50155899

>  <variant>  (1613) 
91043-1

>  <source_file>  (1613) 
运行/运行/ATP-VSW/ATP-VSW-DOCK_HTVS_1-003_lib/ATP-VSW-DOCK_HTVS_1-003_lib.mae

>  <canonical_smiles>  (1613) 
Cc1nccc(NC(=O)c2ccccc2)c1NCc1ccc(C[NH+](C)C)cc1

>  <scaffold>  (1613) 
O=C(Nc1ccncc1NCc1ccccc1)c1ccccc1

>  <molecular_formula>  (1613) 
C23H27N4O+

$$$$
ATP-HTVS-FDB0F1EC6F74
     RDKit          3D

 59 62  0  0  0  0  0  0  0  0999 V2000
  189.5497  189.8687  162.1326 S   0  0  0  0  0  0  0  0  0  0  0  0
  190.9066  189.0836  161.2145 C   0  0  1  0  0  0  0  0  0  0  0  0
  191.0621  187.5960  161.5944 C   0  0  1  0  0  0  0  0  0  0  0  0
  192.2738  187.0688  161.0415 N   0  0  0  0  0  0  0  0  0  0  0  0
  193.4243  186.8857  161.7162 C   0  0  0  0  0  0  0  0  0  0  0  0
  193.5540  187.0811  162.9175 O   0  0  0  0  0  0  0  0  0  0  0  0
  194.6023  186.5192  160.8705 C   0  0  0  0  0  0  0  0  0  0  0  0
  195.6986  187.3990  160.8014 C   0  0  0  0  0  0  0  0  0  0  0  0
  195.7040  188.5871  161.4614 F   0  0  0  0  0  0  0  0  0  0  0  0
  196.8018  187.0710  160.0111 C   0  0  0  0  0  0  0  0  0  0  0  0
  196.8546  185.8501  159.2930 C   0  0  0  0  0  0  0  0  0  0  0  0
  195.7637  184.9675  159.3571 C   0  0  0  0  0  0  0  0  0  0  0  0
  194.6397  185.3129  160.1465 C   0  0  0  0  0  0  0  0  0  0  0  0
  197.9442  188.0306  159.9971 C   0  0  1  0  0  0  0  0  0  0  0  0
  197.8159  189.2095  159.1310 N   0  0  0  0  0  0  0  0  0  0  0  0
  198.9271  190.1482  159.3796 C   0  0  2  0  0  0  0  0  0  0  0  0
  198.8365  191.4194  158.5282 C   0  0  0  0  0  0  0  0  0  0  0  0
  199.0722  191.3645  157.1262 C   0  0  0  0  0  0  0  0  0  0  0  0
  199.2895  190.1655  156.4237 N   0  0  0  0  0  0  0  0  0  0  0  0
  198.6208  189.0069  156.6269 C   0  0  0  0  0  0  0  0  0  0  0  0
  198.9627  187.9879  156.0427 O   0  0  0  0  0  0  0  0  0  0  0  0
  197.4897  188.9463  157.6919 C   0  0  1  0  0  0  0  0  0  0  0  0
  199.1254  192.5367  156.3703 C   0  0  0  0  0  0  0  0  0  0  0  0
  198.8532  193.7857  156.9657 C   0  0  0  0  0  0  0  0  0  0  0  0
  198.5576  193.8504  158.3396 C   0  0  0  0  0  0  0  0  0  0  0  0
  198.5506  192.6801  159.1244 C   0  0  0  0  0  0  0  0  0  0  0  0
  200.3197  189.5016  159.2173 C   0  0  0  0  0  0  0  0  0  0  0  0
  201.4940  190.1960  159.5584 C   0  0  0  0  0  0  0  0  0  0  0  0
  202.7260  189.5686  159.3295 C   0  0  0  0  0  0  0  0  0  0  0  0
  202.8267  188.2632  158.7821 C   0  0  0  0  0  0  0  0  0  0  0  0
  201.6875  187.5635  158.4339 C   0  0  0  0  0  0  0  0  0  0  0  0
  200.4577  188.2055  158.6536 C   0  0  0  0  0  0  0  0  0  0  0  0
  189.4002  191.4146  161.1981 C   0  0  2  0  0  0  0  0  0  0  0  0
  190.7062  189.1781  160.1474 H   0  0  0  0  0  0  0  0  0  0  0  0
  191.8229  189.6361  161.4190 H   0  0  0  0  0  0  0  0  0  0  0  0
  191.0427  187.4890  162.6807 H   0  0  0  0  0  0  0  0  0  0  0  0
  190.2048  187.0384  161.2197 H   0  0  0  0  0  0  0  0  0  0  0  0
  192.2661  186.7546  160.0514 H   0  0  0  0  0  0  0  0  0  0  0  0
  197.7179  185.5874  158.6937 H   0  0  0  0  0  0  0  0  0  0  0  0
  195.7882  184.0369  158.8110 H   0  0  0  0  0  0  0  0  0  0  0  0
  193.8129  184.6318  160.1804 H   0  0  0  0  0  0  0  0  0  0  0  0
  198.2566  188.3173  160.9892 H   0  0  0  0  0  0  0  0  0  0  0  0
  198.6997  187.2987  159.8067 H   0  0  0  0  0  0  0  0  0  0  0  0
  198.8689  190.4671  160.4312 H   0  0  0  0  0  0  0  0  0  0  0  0
  200.0518  190.1219  155.7780 H   0  0  0  0  0  0  0  0  0  0  0  0
  197.0379  187.9546  157.6102 H   0  0  0  0  0  0  0  0  0  0  0  0
  196.7314  189.6463  157.3506 H   0  0  0  0  0  0  0  0  0  0  0  0
  199.3426  192.4813  155.3120 H   0  0  0  0  0  0  0  0  0  0  0  0
  198.8676  194.6770  156.3592 H   0  0  0  0  0  0  0  0  0  0  0  0
  198.3502  194.8133  158.7879 H   0  0  0  0  0  0  0  0  0  0  0  0
  198.3442  192.7621  160.1825 H   0  0  0  0  0  0  0  0  0  0  0  0
  201.4258  191.1933  159.9616 H   0  0  0  0  0  0  0  0  0  0  0  0
  203.6430  190.0910  159.5817 H   0  0  0  0  0  0  0  0  0  0  0  0
  203.7646  187.7662  158.6087 H   0  0  0  0  0  0  0  0  0  0  0  0
  201.6305  186.5882  158.0019 H   0  0  0  0  0  0  0  0  0  0  0  0
  199.6864  187.6121  158.2680 H   0  0  0  0  0  0  0  0  0  0  0  0
  188.6105  192.0347  161.6232 H   0  0  0  0  0  0  0  0  0  0  0  0
  189.1513  191.2060  160.1573 H   0  0  0  0  0  0  0  0  0  0  0  0
  190.3366  191.9715  161.2281 H   0  0  0  0  0  0  0  0  0  0  0  0
  1  2  1  0
  1 33  1  0
  2  3  1  0
  2 34  1  6
  2 35  1  0
  3  4  1  0
  3 36  1  1
  3 37  1  0
  4  5  1  0
  4 38  1  0
  5  6  2  0
  5  7  1  0
  7  8  2  0
  7 13  1  0
  8  9  1  0
  8 10  1  0
 10 11  2  0
 10 14  1  0
 11 12  1  0
 11 39  1  0
 12 13  2  0
 12 40  1  0
 13 41  1  0
 14 15  1  0
 14 42  1  1
 14 43  1  0
 15 16  1  0
 15 22  1  0
 16 17  1  0
 16 27  1  0
 16 44  1  1
 17 18  1  0
 17 26  2  0
 18 19  1  0
 18 23  2  0
 19 20  1  0
 19 45  1  0
 20 21  2  0
 20 22  1  0
 22 46  1  1
 22 47  1  0
 23 24  1  0
 23 48  1  0
 24 25  2  0
 24 49  1  0
 25 26  1  0
 25 50  1  0
 26 51  1  0
 27 28  2  0
 27 32  1  0
 28 29  1  0
 28 52  1  0
 29 30  2  0
 29 53  1  0
 30 31  1  0
 30 54  1  0
 31 32  2  0
 31 55  1  0
 32 56  1  0
 33 57  1  1
 33 58  1  0
 33 59  1  0
M  END
>  <s_epik_cmdline>  (1614) 
J2VwaWtfcHl0aG9uJywgJy1waCcsICc3LjAwMDAwMCcsICctcGh0JywgJzIuMDAwMDAwJywgJy1tcycsICcxNicsICctdG4nLCAnOCcsICctbWEnLCAnMjAwJywgJy1pbWFlJywgJzxpbmZpbGUubWFlPicsICctb21hZScsICc8b3V0ZmlsZS5tYWU+Jw==

>  <s_epik_input>  (1614) 
W0NIM11TW0NIMl1bQ0gyXVtOSF1DKD1PKWMxYyhGKWMoW2NIXVtjSF1bY0hdMSlbQ0gyXU4oW0NASF0yYzNbY0hdW2NIXVtjSF1bY0hdW2NIXTMpW0NIMl1DKD1PKVtOSF1jKGMyNClbY0hdW2NIXVtjSF1bY0hdNA==

>  <s_i_glide_gridfile>  (1614) 
ATP-Grid

>  <s_lp_Force_Field>  (1614) 
OPLS_2005

>  <s_lp_Variant>  (1614) 
rxn512b____EMOL525124____EMOL49775718____EMOL6185419-2

>  <s_lp_label>  (1614) 
2909_sdstereoexpander_3_neutralizer_1_epik_1_stereoizer_1

>  <s_m_source_file>  (1614) 
ATP-VSW-LIGPREP-003-in.maegz

>  <s_sd_BIOSOLVEIT.INFINISEE\_QUERY\_NAME>  (1614) 
Ref-Lig

>  <s_sd_BIOSOLVEIT.INFINISEE\_QUERY\_SMILES>  (1614) 
S(c1nc2c(cc1C[NH2+]Cc3ccc(cc3)C[NH+](C)C)cccc2)Cc4ccccc4

>  <s_sd_BIOSOLVEIT.INFINISEE\_REACTION\_NAME>  (1614) 
rxn512b

>  <s_sd_BIOSOLVEIT.INFINISEE\_REAGENT1\_NAME>  (1614) 
EMOL525124

>  <s_sd_BIOSOLVEIT.INFINISEE\_REAGENT1\_SMILES>  (1614) 
S(CCN)C

>  <s_sd_BIOSOLVEIT.INFINISEE\_REAGENT2\_NAME>  (1614) 
EMOL49775718

>  <s_sd_BIOSOLVEIT.INFINISEE\_REAGENT2\_SMILES>  (1614) 
BrCc1c(F)c(ccc1)C(=O)O

>  <s_sd_BIOSOLVEIT.INFINISEE\_REAGENT3\_NAME>  (1614) 
EMOL6185419

>  <s_sd_BIOSOLVEIT.INFINISEE\_REAGENT3\_SMILES>  (1614) 
O=C1Nc2c(cccc2)C(NC1)c3ccccc3

>  <s_sd_BIOSOLVEIT.INFINISEE\_SPACE>  (1614) 
eXplore_7tr_2022-12

>  <s_vsw_compound_code>  (1614) 
93059

>  <s_vsw_variant>  (1614) 
93059-2

>  <r_epik_Charging_Adjusted_Penalty>  (1614) 
0.0087634984339075902

>  <r_epik_Ionization_Penalty>  (1614) 
0.0088000000000000005

>  <r_epik_Ionization_Penalty_Charging>  (1614) 
0

>  <r_epik_Ionization_Penalty_Neutral>  (1614) 
0.0088000000000000005

>  <r_epik_State_Penalty>  (1614) 
0.0088000000000000005

>  <r_i_docking_score>  (1614) 
-5.4539142314687696

>  <r_i_glide_ecoul>  (1614) 
-4.5425910949706996

>  <r_i_glide_eff_state_penalty>  (1614) 
0.0088000000000000005

>  <r_i_glide_einternal>  (1614) 
6.7679171562194798

>  <r_i_glide_emodel>  (1614) 
-50.479238826300701

>  <r_i_glide_energy>  (1614) 
-40.000328063964801

>  <r_i_glide_erotb>  (1614) 
0.65645422405475495

>  <r_i_glide_esite>  (1614) 
-0.0027508944810086199

>  <r_i_glide_evdw>  (1614) 
-35.457736968994098

>  <r_i_glide_gscore>  (1614) 
-5.4627142314687704

>  <r_i_glide_hbond>  (1614) 
-0.56532359962812495

>  <r_i_glide_ligand_efficiency>  (1614) 
-0.165270128226326

>  <r_i_glide_ligand_efficiency_ln>  (1614) 
-1.2129222862220701

>  <r_i_glide_ligand_efficiency_sa>  (1614) 
-0.53010960939091001

>  <r_i_glide_lipo>  (1614) 
-2.5252718056575998

>  <r_i_glide_metal>  (1614) 
-0

>  <r_i_glide_rewards>  (1614) 
-0.57154664306148395

>  <r_lp_Energy>  (1614) 
56.415376000000002

>  <r_qp_ACxDN^.5/SA>  (1614) 
0.0135511

>  <r_qp_CIQPlogS>  (1614) 
-5.4889999999999999

>  <r_qp_EA(eV)>  (1614) 
0.73399999999999999

>  <r_qp_FISA>  (1614) 
104.098

>  <r_qp_FOSA>  (1614) 
207.59100000000001

>  <r_qp_IP(eV)>  (1614) 
8.9640000000000004

>  <r_qp_Jm>  (1614) 
0.000286819323847685

>  <r_qp_PISA>  (1614) 
411.95400000000001

>  <r_qp_PSA>  (1614) 
76.534999999999997

>  <r_qp_PercentHumanOralAbsorption>  (1614) 
95.855999999999995

>  <r_qp_QPPCaco>  (1614) 
254.47

>  <r_qp_QPPMDCK>  (1614) 
262.64499999999998

>  <r_qp_QPlogBB>  (1614) 
-0.38600000000000001

>  <r_qp_QPlogHERG>  (1614) 
-7.7300000000000004

>  <r_qp_QPlogKhsa>  (1614) 
0.71799999999999997

>  <r_qp_QPlogKp>  (1614) 
-3.4729999999999999

>  <r_qp_QPlogPC16>  (1614) 
15.882

>  <r_qp_QPlogPo/w>  (1614) 
4.4160000000000004

>  <r_qp_QPlogPoct>  (1614) 
24.428999999999998

>  <r_qp_QPlogPw>  (1614) 
14.127000000000001

>  <r_qp_QPlogS>  (1614) 
-5.7350000000000003

>  <r_qp_QPpolrz>  (1614) 
51.045999999999999

>  <r_qp_SASA>  (1614) 
782.71100000000001

>  <r_qp_SAamideO>  (1614) 
0

>  <r_qp_SAfluorine>  (1614) 
16.382999999999999

>  <r_qp_WPSA>  (1614) 
59.067999999999998

>  <r_qp_accptHB>  (1614) 
7.5

>  <r_qp_dip^2/V>  (1614) 
0.0103254

>  <r_qp_dipole>  (1614) 
3.839

>  <r_qp_donorHB>  (1614) 
2

>  <r_qp_glob>  (1614) 
0.78324380000000005

>  <r_qp_mol_MW>  (1614) 
463.56900000000002

>  <r_qp_volume>  (1614) 
1427.251

>  <r_sd_BIOSOLVEIT.INFINISEE\_FTREES\_SIMILARITY>  (1614) 
0.90400000000000003

>  <r_sd_BIOSOLVEIT.LOGP>  (1614) 
3.0451000000000001

>  <r_sd_BIOSOLVEIT.MOLECULAR\_WEIGHT>  (1614) 
464.58100000000002

>  <r_sd_BIOSOLVEIT.TPSA>  (1614) 
62.640000000000001

>  <i_epik_Tot_Q>  (1614) 
0

>  <i_epik_Tot_abs_Q>  (1614) 
0

>  <i_f3d_flags>  (1614) 
0

>  <i_i_glide_confnum>  (1614) 
2

>  <i_i_glide_lignum>  (1614) 
1427

>  <i_i_glide_posenum>  (1614) 
9

>  <i_i_glide_rotatable_bonds>  (1614) 
8

>  <i_lp_mmshare_version>  (1614) 
65135

>  <i_m_ct_format>  (1614) 
2

>  <i_m_source_file_index>  (1614) 
2909

>  <i_qp_#NandO>  (1614) 
5

>  <i_qp_#acid>  (1614) 
0

>  <i_qp_#amide>  (1614) 
0

>  <i_qp_#amidine>  (1614) 
0

>  <i_qp_#amine>  (1614) 
1

>  <i_qp_#in34>  (1614) 
0

>  <i_qp_#in56>  (1614) 
18

>  <i_qp_#metab>  (1614) 
7

>  <i_qp_#nonHatm>  (1614) 
33

>  <i_qp_#noncon>  (1614) 
2

>  <i_qp_#ringatoms>  (1614) 
23

>  <i_qp_#rotor>  (1614) 
6

>  <i_qp_#rtvFG>  (1614) 
0

>  <i_qp_#stars>  (1614) 
0

>  <i_qp_CNS>  (1614) 
1

>  <i_qp_HumanOralAbsorption>  (1614) 
3

>  <i_qp_RuleOfFive>  (1614) 
0

>  <i_qp_RuleOfThree>  (1614) 
2

>  <i_sd_BIOSOLVEIT.INFINISEE\_RESULT\_RANK>  (1614) 
75856

>  <i_sd_version>  (1614) 
0

>  <b_lp_Chiralities_Consistent>  (1614) 
1

>  <b_sd_chiral_flag>  (1614) 
0

>  <canonical_id>  (1614) 
ATP-HTVS-FDB0F1EC6F74

>  <compound_code>  (1614) 
93059

>  <title>  (1614) 
rxn512b____EMOL525124____EMOL49775718____EMOL6185419

>  <variant>  (1614) 
93059-2

>  <source_file>  (1614) 
运行/运行/ATP-VSW/ATP-VSW-DOCK_HTVS_1-003_lib/ATP-VSW-DOCK_HTVS_1-003_lib.mae

>  <canonical_smiles>  (1614) 
CSCCNC(=O)c1cccc(CN2CC(=O)Nc3ccccc3[C@@H]2c2ccccc2)c1F

>  <scaffold>  (1614) 
O=C1CN(Cc2ccccc2)C(c2ccccc2)c2ccccc2N1

>  <molecular_formula>  (1614) 
C26H26FN3O2S

$$$$
ATP-HTVS-FDDF48EBDCF8
     RDKit          3D

 71 74  0  0  0  0  0  0  0  0999 V2000
  200.9813  179.5041  152.4424 O   0  0  0  0  0  0  0  0  0  0  0  0
  200.2563  178.8466  153.1958 C   0  0  0  0  0  0  0  0  0  0  0  0
  198.9202  179.0060  153.2491 N   0  0  0  0  0  0  0  0  0  0  0  0
  198.1462  179.5652  152.1958 C   0  0  0  0  0  0  0  0  0  0  0  0
  197.5013  180.8237  152.3712 C   0  0  0  0  0  0  0  0  0  0  0  0
  197.6404  181.5833  153.5517 N   0  0  0  0  0  0  0  0  0  0  0  0
  197.3736  183.0197  153.5137 C   0  0  1  0  0  0  0  0  0  0  0  0
  197.5564  183.8214  154.7927 C   0  0  0  0  0  0  0  0  0  0  0  0
  197.4081  183.2103  156.0559 C   0  0  0  0  0  0  0  0  0  0  0  0
  197.4680  183.9785  157.2390 C   0  0  0  0  0  0  0  0  0  0  0  0
  197.7450  185.3615  157.1476 C   0  0  0  0  0  0  0  0  0  0  0  0
  197.9196  185.9738  155.8881 C   0  0  0  0  0  0  0  0  0  0  0  0
  197.8095  185.2080  154.7145 C   0  0  0  0  0  0  0  0  0  0  0  0
  197.2632  183.3048  158.5985 C   0  0  1  0  0  0  0  0  0  0  0  0
  195.8408  182.9664  158.9162 N   0  0  1  0  0  0  0  0  0  0  0  0
  194.9524  184.1507  159.1012 C   0  0  1  0  0  0  0  0  0  0  0  0
  195.4098  185.0953  160.2192 C   0  0  2  0  0  0  0  0  0  0  0  0
  195.2747  181.9470  157.9893 C   0  0  1  0  0  0  0  0  0  0  0  0
  193.9009  181.3871  158.3849 C   0  0  2  0  0  0  0  0  0  0  0  0
  196.7234  181.3011  151.2867 C   0  0  0  0  0  0  0  0  0  0  0  0
  196.5465  180.6327  150.1382 N   0  0  0  0  0  0  0  0  0  0  0  0
  197.1529  179.4479  149.9625 C   0  0  0  0  0  0  0  0  0  0  0  0
  197.9637  178.8561  150.9705 C   0  0  0  0  0  0  0  0  0  0  0  0
  198.5611  177.5934  150.7048 C   0  0  0  0  0  0  0  0  0  0  0  0
  198.3695  176.9426  149.4659 C   0  0  0  0  0  0  0  0  0  0  0  0
  197.5682  177.5342  148.4786 C   0  0  0  0  0  0  0  0  0  0  0  0
  196.9699  178.7806  148.7351 C   0  0  0  0  0  0  0  0  0  0  0  0
  200.8747  177.7646  154.0951 C   0  0  1  0  0  0  0  0  0  0  0  0
  202.0839  177.0633  153.4317 C   0  0  1  0  0  0  0  0  0  0  0  0
  203.3194  177.8559  153.5499 C   0  0  0  0  0  0  0  0  0  0  0  0
  204.2940  178.4740  153.6397 N   0  0  0  0  0  0  0  0  0  0  0  0
  202.2949  175.6572  153.9737 C   0  0  0  0  0  0  0  0  0  0  0  0
  202.7414  175.4577  155.2982 C   0  0  0  0  0  0  0  0  0  0  0  0
  202.9373  174.1535  155.7923 C   0  0  0  0  0  0  0  0  0  0  0  0
  202.6839  173.0420  154.9675 C   0  0  0  0  0  0  0  0  0  0  0  0
  202.2345  173.2335  153.6490 C   0  0  0  0  0  0  0  0  0  0  0  0
  202.0438  174.5376  153.1507 C   0  0  0  0  0  0  0  0  0  0  0  0
  198.4033  178.5181  153.9682 H   0  0  0  0  0  0  0  0  0  0  0  0
  198.2702  181.2478  154.2723 H   0  0  0  0  0  0  0  0  0  0  0  0
  198.0114  183.4482  152.7487 H   0  0  0  0  0  0  0  0  0  0  0  0
  196.3465  183.1882  153.2019 H   0  0  0  0  0  0  0  0  0  0  0  0
  197.2111  182.1499  156.0976 H   0  0  0  0  0  0  0  0  0  0  0  0
  197.8304  185.9679  158.0368 H   0  0  0  0  0  0  0  0  0  0  0  0
  198.1338  187.0338  155.8244 H   0  0  0  0  0  0  0  0  0  0  0  0
  197.9096  185.6954  153.7491 H   0  0  0  0  0  0  0  0  0  0  0  0
  197.8772  182.4017  158.6289 H   0  0  0  0  0  0  0  0  0  0  0  0
  197.6775  183.9522  159.3719 H   0  0  0  0  0  0  0  0  0  0  0  0
  194.8515  184.6841  158.1581 H   0  0  0  0  0  0  0  0  0  0  0  0
  193.9506  183.8261  159.3794 H   0  0  0  0  0  0  0  0  0  0  0  0
  194.6498  185.8549  160.4034 H   0  0  0  0  0  0  0  0  0  0  0  0
  196.3365  185.6173  159.9811 H   0  0  0  0  0  0  0  0  0  0  0  0
  195.5454  184.5478  161.1492 H   0  0  0  0  0  0  0  0  0  0  0  0
  195.1721  182.3521  156.9860 H   0  0  0  0  0  0  0  0  0  0  0  0
  196.0011  181.1367  157.9284 H   0  0  0  0  0  0  0  0  0  0  0  0
  193.6157  180.6014  157.6870 H   0  0  0  0  0  0  0  0  0  0  0  0
  193.1275  182.1482  158.3050 H   0  0  0  0  0  0  0  0  0  0  0  0
  193.9019  180.9671  159.3877 H   0  0  0  0  0  0  0  0  0  0  0  0
  196.2019  182.2419  151.3105 H   0  0  0  0  0  0  0  0  0  0  0  0
  199.1744  177.0936  151.4406 H   0  0  0  0  0  0  0  0  0  0  0  0
  198.8406  175.9867  149.2752 H   0  0  0  0  0  0  0  0  0  0  0  0
  197.4232  177.0377  147.5310 H   0  0  0  0  0  0  0  0  0  0  0  0
  196.3507  179.2209  147.9669 H   0  0  0  0  0  0  0  0  0  0  0  0
  201.1491  178.1754  155.0680 H   0  0  0  0  0  0  0  0  0  0  0  0
  200.0997  177.0185  154.2840 H   0  0  0  0  0  0  0  0  0  0  0  0
  201.9066  176.9709  152.3604 H   0  0  0  0  0  0  0  0  0  0  0  0
  202.9348  176.3040  155.9413 H   0  0  0  0  0  0  0  0  0  0  0  0
  203.2739  174.0074  156.8082 H   0  0  0  0  0  0  0  0  0  0  0  0
  202.8243  172.0390  155.3425 H   0  0  0  0  0  0  0  0  0  0  0  0
  202.0407  172.3712  153.0267 H   0  0  0  0  0  0  0  0  0  0  0  0
  201.7042  174.6698  152.1326 H   0  0  0  0  0  0  0  0  0  0  0  0
  195.8893  182.5016  159.8113 H   0  0  0  0  0  0  0  0  0  0  0  0
  1  2  2  0
  2  3  1  0
  2 28  1  0
  3  4  1  0
  3 38  1  0
  4  5  2  0
  4 23  1  0
  5  6  1  0
  5 20  1  0
  6  7  1  0
  6 39  1  0
  7  8  1  0
  7 40  1  6
  7 41  1  0
  8  9  2  0
  8 13  1  0
  9 10  1  0
  9 42  1  0
 10 11  2  0
 10 14  1  0
 11 12  1  0
 11 43  1  0
 12 13  2  0
 12 44  1  0
 13 45  1  0
 14 15  1  0
 14 46  1  6
 14 47  1  0
 15 16  1  0
 15 18  1  0
 15 71  1  1
 16 17  1  0
 16 48  1  6
 16 49  1  0
 17 50  1  1
 17 51  1  0
 17 52  1  0
 18 19  1  0
 18 53  1  6
 18 54  1  0
 19 55  1  6
 19 56  1  0
 19 57  1  0
 20 21  2  0
 20 58  1  0
 21 22  1  0
 22 23  1  0
 22 27  2  0
 23 24  2  0
 24 25  1  0
 24 59  1  0
 25 26  2  0
 25 60  1  0
 26 27  1  0
 26 61  1  0
 27 62  1  0
 28 29  1  0
 28 63  1  1
 28 64  1  0
 29 30  1  0
 29 32  1  0
 29 65  1  6
 30 31  3  0
 32 33  2  0
 32 37  1  0
 33 34  1  0
 33 66  1  0
 34 35  2  0
 34 67  1  0
 35 36  1  0
 35 68  1  0
 36 37  2  0
 36 69  1  0
 37 70  1  0
M  CHG  1  15   1
M  END
>  <s_epik_cmdline>  (1615) 
J2VwaWtfcHl0aG9uJywgJy1waCcsICc3LjAwMDAwMCcsICctcGh0JywgJzIuMDAwMDAwJywgJy1tcycsICcxNicsICctdG4nLCAnOCcsICctbWEnLCAnMjAwJywgJy1pbWFlJywgJzxpbmZpbGUubWFlPicsICctb21hZScsICc8b3V0ZmlsZS5tYWU+Jw==

>  <s_epik_input>  (1615) 
W2NIXTFbY0hdW2NIXVtjSF1bY0hdYzFbQ0BIXShDI04pW0NIMl1DKD1PKVtOSF1jKGMoYzIzKVtjSF1bY0hdW2NIXVtjSF0zKWMoW2NIXW4yKVtOSF1bQ0gyXWM0W2NIXWMoW2NIXVtjSF1bY0hdNClbQ0gyXU4oW0NIMl1bQ0gzXSlbQ0gyXVtDSDNd

>  <s_i_glide_gridfile>  (1615) 
ATP-Grid

>  <s_lp_Force_Field>  (1615) 
OPLS_2005

>  <s_lp_Variant>  (1615) 
rxn502b____EMOL17362509____EMOL13728749____EMOL44153840-1

>  <s_lp_label>  (1615) 
2439_sdstereoexpander_1_neutralizer_1_epik_1_stereoizer_1

>  <s_m_source_file>  (1615) 
ATP-VSW-LIGPREP-001-in.maegz

>  <s_sd_BIOSOLVEIT.INFINISEE\_QUERY\_NAME>  (1615) 
Ref-Lig

>  <s_sd_BIOSOLVEIT.INFINISEE\_QUERY\_SMILES>  (1615) 
S(c1nc2c(cc1C[NH2+]Cc3ccc(cc3)C[NH+](C)C)cccc2)Cc4ccccc4

>  <s_sd_BIOSOLVEIT.INFINISEE\_REACTION\_NAME>  (1615) 
rxn502b

>  <s_sd_BIOSOLVEIT.INFINISEE\_REAGENT1\_NAME>  (1615) 
EMOL17362509

>  <s_sd_BIOSOLVEIT.INFINISEE\_REAGENT1\_SMILES>  (1615) 
O=C(O)CC(C#N)c1ccccc1

>  <s_sd_BIOSOLVEIT.INFINISEE\_REAGENT2\_NAME>  (1615) 
EMOL13728749

>  <s_sd_BIOSOLVEIT.INFINISEE\_REAGENT2\_SMILES>  (1615) 
Brc1c(N)c2c(nc1)cccc2

>  <s_sd_BIOSOLVEIT.INFINISEE\_REAGENT3\_NAME>  (1615) 
EMOL44153840

>  <s_sd_BIOSOLVEIT.INFINISEE\_REAGENT3\_SMILES>  (1615) 
N(Cc1cc(ccc1)CN)(CC)CC

>  <s_sd_BIOSOLVEIT.INFINISEE\_SPACE>  (1615) 
eXplore_7tr_2022-12

>  <s_vsw_compound_code>  (1615) 
78017

>  <s_vsw_variant>  (1615) 
78017-1

>  <r_epik_Charging_Adjusted_Penalty>  (1615) 
0.050819085540996699

>  <r_epik_Ionization_Penalty>  (1615) 
0.032899999999999999

>  <r_epik_Ionization_Penalty_Charging>  (1615) 
0.017999999999999999

>  <r_epik_Ionization_Penalty_Neutral>  (1615) 
0.0149

>  <r_epik_State_Penalty>  (1615) 
0.032899999999999999

>  <r_i_docking_score>  (1615) 
-4.4559905412956802

>  <r_i_glide_ecoul>  (1615) 
-7.7389707565307599

>  <r_i_glide_eff_state_penalty>  (1615) 
0.032899999999999999

>  <r_i_glide_einternal>  (1615) 
6.0699872970581099

>  <r_i_glide_emodel>  (1615) 
-61.596047324317603

>  <r_i_glide_energy>  (1615) 
-47.316821098327601

>  <r_i_glide_erotb>  (1615) 
0.75526045145252996

>  <r_i_glide_esite>  (1615) 
-0.020753531639484402

>  <r_i_glide_evdw>  (1615) 
-39.577850341796903

>  <r_i_glide_gscore>  (1615) 
-4.4888905412956799

>  <r_i_glide_hbond>  (1615) 
0

>  <r_i_glide_ligand_efficiency>  (1615) 
-0.12043217679177499

>  <r_i_glide_ligand_efficiency_ln>  (1615) 
-0.96639988516739905

>  <r_i_glide_ligand_efficiency_sa>  (1615) 
-0.401306730663813

>  <r_i_glide_lipo>  (1615) 
-1.80844042144836

>  <r_i_glide_metal>  (1615) 
-0

>  <r_i_glide_rewards>  (1615) 
-0.27521890909090702

>  <r_lp_Energy>  (1615) 
35.230944000000001

>  <r_qp_ACxDN^.5/SA>  (1615) 
0.015011699999999999

>  <r_qp_CIQPlogS>  (1615) 
-7.226

>  <r_qp_EA(eV)>  (1615) 
1.05

>  <r_qp_FISA>  (1615) 
88.670000000000002

>  <r_qp_FOSA>  (1615) 
234.495

>  <r_qp_IP(eV)>  (1615) 
8.5299999999999994

>  <r_qp_Jm>  (1615) 
0.020392538977465999

>  <r_qp_PISA>  (1615) 
430.49400000000003

>  <r_qp_PSA>  (1615) 
81.712999999999994

>  <r_qp_PercentHumanOralAbsorption>  (1615) 
100

>  <r_qp_QPPCaco>  (1615) 
356.40199999999999

>  <r_qp_QPPMDCK>  (1615) 
179.44499999999999

>  <r_qp_QPlogBB>  (1615) 
-0.59199999999999997

>  <r_qp_QPlogHERG>  (1615) 
-6.8470000000000004

>  <r_qp_QPlogKhsa>  (1615) 
0.624

>  <r_qp_QPlogKp>  (1615) 
-2.548

>  <r_qp_QPlogPC16>  (1615) 
16.175999999999998

>  <r_qp_QPlogPo/w>  (1615) 
4.6580000000000004

>  <r_qp_QPlogPoct>  (1615) 
25.062999999999999

>  <r_qp_QPlogPw>  (1615) 
13.226000000000001

>  <r_qp_QPlogS>  (1615) 
-4.8339999999999996

>  <r_qp_QPpolrz>  (1615) 
50.545000000000002

>  <r_qp_SASA>  (1615) 
753.65800000000002

>  <r_qp_SAamideO>  (1615) 
0

>  <r_qp_SAfluorine>  (1615) 
0

>  <r_qp_WPSA>  (1615) 
0

>  <r_qp_accptHB>  (1615) 
8

>  <r_qp_dip^2/V>  (1615) 
0.066096299999999997

>  <r_qp_dipole>  (1615) 
9.9789999999999992

>  <r_qp_donorHB>  (1615) 
2

>  <r_qp_glob>  (1615) 
0.84330329999999998

>  <r_qp_mol_MW>  (1615) 
491.63499999999999

>  <r_qp_volume>  (1615) 
1506.5719999999999

>  <r_sd_BIOSOLVEIT.INFINISEE\_FTREES\_SIMILARITY>  (1615) 
0.91700000000000004

>  <r_sd_BIOSOLVEIT.LOGP>  (1615) 
4.9075800000000003

>  <r_sd_BIOSOLVEIT.MOLECULAR\_WEIGHT>  (1615) 
492.64400000000001

>  <r_sd_BIOSOLVEIT.TPSA>  (1615) 
82.25

>  <i_epik_Tot_Q>  (1615) 
1

>  <i_epik_Tot_abs_Q>  (1615) 
1

>  <i_f3d_flags>  (1615) 
0

>  <i_i_glide_confnum>  (1615) 
2

>  <i_i_glide_lignum>  (1615) 
944

>  <i_i_glide_posenum>  (1615) 
17

>  <i_i_glide_rotatable_bonds>  (1615) 
12

>  <i_lp_mmshare_version>  (1615) 
65135

>  <i_m_ct_format>  (1615) 
2

>  <i_m_source_file_index>  (1615) 
2439

>  <i_qp_#NandO>  (1615) 
6

>  <i_qp_#acid>  (1615) 
0

>  <i_qp_#amide>  (1615) 
0

>  <i_qp_#amidine>  (1615) 
0

>  <i_qp_#amine>  (1615) 
1

>  <i_qp_#in34>  (1615) 
0

>  <i_qp_#in56>  (1615) 
22

>  <i_qp_#metab>  (1615) 
9

>  <i_qp_#nonHatm>  (1615) 
37

>  <i_qp_#noncon>  (1615) 
0

>  <i_qp_#ringatoms>  (1615) 
22

>  <i_qp_#rotor>  (1615) 
12

>  <i_qp_#rtvFG>  (1615) 
0

>  <i_qp_#stars>  (1615) 
1

>  <i_qp_CNS>  (1615) 
1

>  <i_qp_HumanOralAbsorption>  (1615) 
3

>  <i_qp_RuleOfFive>  (1615) 
0

>  <i_qp_RuleOfThree>  (1615) 
1

>  <i_sd_BIOSOLVEIT.INFINISEE\_RESULT\_RANK>  (1615) 
24118

>  <i_sd_version>  (1615) 
0

>  <b_lp_Chiralities_Consistent>  (1615) 
1

>  <b_sd_chiral_flag>  (1615) 
0

>  <canonical_id>  (1615) 
ATP-HTVS-FDDF48EBDCF8

>  <compound_code>  (1615) 
78017

>  <title>  (1615) 
rxn502b____EMOL17362509____EMOL13728749____EMOL44153840

>  <variant>  (1615) 
78017-1

>  <source_file>  (1615) 
运行/运行/ATP-VSW/ATP-VSW-DOCK_HTVS_1-001_lib/ATP-VSW-DOCK_HTVS_1-001_lib

>  <canonical_smiles>  (1615) 
CC[NH+](CC)Cc1cccc(CNc2cnc3ccccc3c2NC(=O)C[C@@H](C#N)c2ccccc2)c1

>  <scaffold>  (1615) 
O=C(CCc1ccccc1)Nc1c(NCc2ccccc2)cnc2ccccc12

>  <molecular_formula>  (1615) 
C31H34N5O+

$$$$
ATP-HTVS-FE1522AA7EF8
     RDKit          3D

 53 56  0  0  0  0  0  0  0  0999 V2000
  197.7793  183.0866  153.2258 N   0  0  0  0  0  0  0  0  0  0  0  0
  198.1862  183.7485  154.3040 C   0  0  0  0  0  0  0  0  0  0  0  0
  198.7697  183.1977  155.3615 N   0  0  0  0  0  0  0  0  0  0  0  0
  198.8643  181.8794  155.4243 C   0  0  0  0  0  0  0  0  0  0  0  0
  198.4652  181.0675  154.3257 C   0  0  0  0  0  0  0  0  0  0  0  0
  197.9103  181.7405  153.2143 C   0  0  0  0  0  0  0  0  0  0  0  0
  197.4969  181.0836  151.9632 C   0  0  0  0  0  0  0  0  0  0  0  0
  198.2587  181.2700  150.7909 C   0  0  0  0  0  0  0  0  0  0  0  0
  197.8841  180.6458  149.5851 C   0  0  0  0  0  0  0  0  0  0  0  0
  196.7354  179.8348  149.5469 C   0  0  0  0  0  0  0  0  0  0  0  0
  195.9659  179.6506  150.7101 C   0  0  0  0  0  0  0  0  0  0  0  0
  196.3501  180.2689  151.9151 C   0  0  0  0  0  0  0  0  0  0  0  0
  198.6259  179.6492  154.3684 C   0  0  0  0  0  0  0  0  0  0  0  0
  199.1474  179.0404  155.5269 C   0  0  0  0  0  0  0  0  0  0  0  0
  199.4699  179.8289  156.6471 C   0  0  0  0  0  0  0  0  0  0  0  0
  199.3272  181.2355  156.5786 C   0  0  0  0  0  0  0  0  0  0  0  0
  197.9030  185.1063  154.3169 N   0  0  0  0  0  0  0  0  0  0  0  0
  197.7882  185.9400  155.5066 C   0  0  1  0  0  0  0  0  0  0  0  0
  197.5517  185.2379  156.8442 C   0  0  0  0  0  0  0  0  0  0  0  0
  196.7760  184.0539  156.9142 C   0  0  0  0  0  0  0  0  0  0  0  0
  196.6665  183.3273  158.0872 C   0  0  0  0  0  0  0  0  0  0  0  0
  197.2514  183.8224  159.2673 C   0  0  0  0  0  0  0  0  0  0  0  0
  197.9756  185.0316  159.2414 C   0  0  0  0  0  0  0  0  0  0  0  0
  198.1188  185.7373  158.0262 C   0  0  0  0  0  0  0  0  0  0  0  0
  195.8491  182.0477  158.0958 C   0  0  1  0  0  0  0  0  0  0  0  0
  194.3908  182.3191  158.1376 N   0  0  2  0  0  0  0  0  0  0  0  0
  194.0332  183.4060  159.0872 C   0  0  2  0  0  0  0  0  0  0  0  0
  193.5893  181.0998  158.3755 C   0  0  2  0  0  0  0  0  0  0  0  0
  199.1393  181.8976  150.8179 H   0  0  0  0  0  0  0  0  0  0  0  0
  198.4745  180.7979  148.6920 H   0  0  0  0  0  0  0  0  0  0  0  0
  196.4435  179.3579  148.6266 H   0  0  0  0  0  0  0  0  0  0  0  0
  195.0790  179.0354  150.6916 H   0  0  0  0  0  0  0  0  0  0  0  0
  195.7565  180.1320  152.8075 H   0  0  0  0  0  0  0  0  0  0  0  0
  198.3773  179.0250  153.5192 H   0  0  0  0  0  0  0  0  0  0  0  0
  199.3138  177.9735  155.5663 H   0  0  0  0  0  0  0  0  0  0  0  0
  199.8476  179.3599  157.5474 H   0  0  0  0  0  0  0  0  0  0  0  0
  199.5425  181.8262  157.4516 H   0  0  0  0  0  0  0  0  0  0  0  0
  197.4584  185.4512  153.4837 H   0  0  0  0  0  0  0  0  0  0  0  0
  198.7009  186.5271  155.5821 H   0  0  0  0  0  0  0  0  0  0  0  0
  196.9814  186.6542  155.3473 H   0  0  0  0  0  0  0  0  0  0  0  0
  196.3015  183.6960  155.9747 H   0  0  0  0  0  0  0  0  0  0  0  0
  197.1457  183.2713  160.2080 H   0  0  0  0  0  0  0  0  0  0  0  0
  198.4387  185.4123  160.1362 H   0  0  0  0  0  0  0  0  0  0  0  0
  198.7470  186.6244  158.0060 H   0  0  0  0  0  0  0  0  0  0  0  0
  196.0824  181.4591  157.2054 H   0  0  0  0  0  0  0  0  0  0  0  0
  196.1505  181.4275  158.9464 H   0  0  0  0  0  0  0  0  0  0  0  0
  194.3423  183.1314  160.0981 H   0  0  0  0  0  0  0  0  0  0  0  0
  192.9643  183.6149  159.0769 H   0  0  0  0  0  0  0  0  0  0  0  0
  194.5176  184.3552  158.8513 H   0  0  0  0  0  0  0  0  0  0  0  0
  193.8499  180.6391  159.3269 H   0  0  0  0  0  0  0  0  0  0  0  0
  193.7399  180.3702  157.5799 H   0  0  0  0  0  0  0  0  0  0  0  0
  192.5281  181.3368  158.3842 H   0  0  0  0  0  0  0  0  0  0  0  0
  194.1326  182.6365  157.1982 H   0  0  0  0  0  0  0  0  0  0  0  0
  1  2  2  0
  1  6  1  0
  2  3  1  0
  2 17  1  0
  3  4  2  0
  4  5  1  0
  4 16  1  0
  5  6  2  0
  5 13  1  0
  6  7  1  0
  7  8  2  0
  7 12  1  0
  8  9  1  0
  8 29  1  0
  9 10  2  0
  9 30  1  0
 10 11  1  0
 10 31  1  0
 11 12  2  0
 11 32  1  0
 12 33  1  0
 13 14  2  0
 13 34  1  0
 14 15  1  0
 14 35  1  0
 15 16  2  0
 15 36  1  0
 16 37  1  0
 17 18  1  0
 17 38  1  0
 18 19  1  0
 18 39  1  1
 18 40  1  0
 19 20  2  0
 19 24  1  0
 20 21  1  0
 20 41  1  0
 21 22  2  0
 21 25  1  0
 22 23  1  0
 22 42  1  0
 23 24  2  0
 23 43  1  0
 24 44  1  0
 25 26  1  0
 25 45  1  6
 25 46  1  0
 26 27  1  0
 26 28  1  0
 26 53  1  6
 27 47  1  1
 27 48  1  0
 27 49  1  0
 28 50  1  1
 28 51  1  0
 28 52  1  0
M  CHG  1  26   1
M  END
>  <s_epik_cmdline>  (1616) 
J2VwaWtfcHl0aG9uJywgJy1waCcsICc3LjAwMDAwMCcsICctcGh0JywgJzIuMDAwMDAwJywgJy1tcycsICcxNicsICctdG4nLCAnOCcsICctbWEnLCAnMjAwJywgJy1pbWFlJywgJzxpbmZpbGUubWFlPicsICctb21hZScsICc8b3V0ZmlsZS5tYWU+Jw==

>  <s_epik_input>  (1616) 
W2NIXTFbY0hdW2NIXVtjSF1bY0hdYzEtYyhjKGMyMylbY0hdW2NIXVtjSF1bY0hdMyluYyhuMilbTkhdW0NIMl1jNFtjSF1jKFtjSF1bY0hdW2NIXTQpW0NIMl1OKFtDSDNdKVtDSDNd

>  <s_i_glide_gridfile>  (1616) 
ATP-Grid

>  <s_lp_Force_Field>  (1616) 
OPLS_2005

>  <s_lp_Variant>  (1616) 
rxn102c____EMOL1296417____EMOL2873214-1

>  <s_lp_label>  (1616) 
2182_sdstereoexpander_1_neutralizer_1_epik_1_stereoizer_1

>  <s_m_source_file>  (1616) 
ATP-VSW-LIGPREP-001-in.maegz

>  <s_sd_BIOSOLVEIT.INFINISEE\_QUERY\_NAME>  (1616) 
Ref-Lig

>  <s_sd_BIOSOLVEIT.INFINISEE\_QUERY\_SMILES>  (1616) 
S(c1nc2c(cc1C[NH2+]Cc3ccc(cc3)C[NH+](C)C)cccc2)Cc4ccccc4

>  <s_sd_BIOSOLVEIT.INFINISEE\_REACTION\_NAME>  (1616) 
rxn102c

>  <s_sd_BIOSOLVEIT.INFINISEE\_REAGENT1\_NAME>  (1616) 
EMOL1296417

>  <s_sd_BIOSOLVEIT.INFINISEE\_REAGENT1\_SMILES>  (1616) 
Clc1nc(c2c(n1)cccc2)c3ccccc3

>  <s_sd_BIOSOLVEIT.INFINISEE\_REAGENT2\_NAME>  (1616) 
EMOL2873214

>  <s_sd_BIOSOLVEIT.INFINISEE\_REAGENT2\_SMILES>  (1616) 
N(Cc1cc(ccc1)CN)(C)C

>  <s_sd_BIOSOLVEIT.INFINISEE\_SPACE>  (1616) 
eXplore_7tr_2022-12

>  <s_vsw_compound_code>  (1616) 
69793

>  <s_vsw_variant>  (1616) 
69793-1

>  <r_epik_Charging_Adjusted_Penalty>  (1616) 
0.093508179878820305

>  <r_epik_Ionization_Penalty>  (1616) 
0.049500000000000002

>  <r_epik_Ionization_Penalty_Charging>  (1616) 
0.0441

>  <r_epik_Ionization_Penalty_Neutral>  (1616) 
0.0054000000000000003

>  <r_epik_State_Penalty>  (1616) 
0.049399999999999999

>  <r_i_docking_score>  (1616) 
-4.3498045722801804

>  <r_i_glide_ecoul>  (1616) 
-8.9059114456176793

>  <r_i_glide_eff_state_penalty>  (1616) 
0.049399999999999999

>  <r_i_glide_einternal>  (1616) 
2.2272684574127202

>  <r_i_glide_emodel>  (1616) 
-53.481261989772598

>  <r_i_glide_energy>  (1616) 
-38.938778877258301

>  <r_i_glide_erotb>  (1616) 
0.70619338775823304

>  <r_i_glide_esite>  (1616) 
-0.101209328357586

>  <r_i_glide_evdw>  (1616) 
-30.0328674316406

>  <r_i_glide_gscore>  (1616) 
-4.3992045722801798

>  <r_i_glide_hbond>  (1616) 
-0.20000000000000001

>  <r_i_glide_ligand_efficiency>  (1616) 
-0.15535016329572099

>  <r_i_glide_ligand_efficiency_ln>  (1616) 
-1.00406261109411

>  <r_i_glide_ligand_efficiency_sa>  (1616) 
-0.47173459211889701

>  <r_i_glide_lipo>  (1616) 
-1.0767637705288799

>  <r_i_glide_metal>  (1616) 
-0

>  <r_i_glide_rewards>  (1616) 
-0.88989477272727202

>  <r_lp_Energy>  (1616) 
14.277793000000001

>  <r_qp_ACxDN^.5/SA>  (1616) 
0.0067051999999999997

>  <r_qp_CIQPlogS>  (1616) 
-5.1749999999999998

>  <r_qp_EA(eV)>  (1616) 
1.0149999999999999

>  <r_qp_FISA>  (1616) 
34.808999999999997

>  <r_qp_FOSA>  (1616) 
188.65199999999999

>  <r_qp_IP(eV)>  (1616) 
8.3689999999999998

>  <r_qp_Jm>  (1616) 
0.069942266184403398

>  <r_qp_PISA>  (1616) 
447.65800000000002

>  <r_qp_PSA>  (1616) 
37.454999999999998

>  <r_qp_PercentHumanOralAbsorption>  (1616) 
100

>  <r_qp_QPPCaco>  (1616) 
1155.3219999999999

>  <r_qp_QPPMDCK>  (1616) 
639.74099999999999

>  <r_qp_QPlogBB>  (1616) 
0.26000000000000001

>  <r_qp_QPlogHERG>  (1616) 
-7.2190000000000003

>  <r_qp_QPlogKhsa>  (1616) 
0.82399999999999995

>  <r_qp_QPlogKp>  (1616) 
-2.0710000000000002

>  <r_qp_QPlogPC16>  (1616) 
13.234

>  <r_qp_QPlogPo/w>  (1616) 
4.8550000000000004

>  <r_qp_QPlogPoct>  (1616) 
18.076000000000001

>  <r_qp_QPlogPw>  (1616) 
9.1899999999999995

>  <r_qp_QPlogS>  (1616) 
-4.6509999999999998

>  <r_qp_QPpolrz>  (1616) 
43.325000000000003

>  <r_qp_SASA>  (1616) 
671.11900000000003

>  <r_qp_SAamideO>  (1616) 
0

>  <r_qp_SAfluorine>  (1616) 
0

>  <r_qp_WPSA>  (1616) 
0

>  <r_qp_accptHB>  (1616) 
4.5

>  <r_qp_dip^2/V>  (1616) 
0.0018393999999999999

>  <r_qp_dipole>  (1616) 
1.502

>  <r_qp_donorHB>  (1616) 
1

>  <r_qp_glob>  (1616) 
0.82536509999999996

>  <r_qp_mol_MW>  (1616) 
368.48000000000002

>  <r_qp_volume>  (1616) 
1225.8040000000001

>  <r_sd_BIOSOLVEIT.INFINISEE\_FTREES\_SIMILARITY>  (1616) 
0.93600000000000005

>  <r_sd_BIOSOLVEIT.LOGP>  (1616) 
3.5533999999999999

>  <r_sd_BIOSOLVEIT.MOLECULAR\_WEIGHT>  (1616) 
369.49000000000001

>  <r_sd_BIOSOLVEIT.TPSA>  (1616) 
42.25

>  <i_epik_Tot_Q>  (1616) 
1

>  <i_epik_Tot_abs_Q>  (1616) 
1

>  <i_f3d_flags>  (1616) 
0

>  <i_i_glide_confnum>  (1616) 
2

>  <i_i_glide_lignum>  (1616) 
697

>  <i_i_glide_posenum>  (1616) 
8

>  <i_i_glide_rotatable_bonds>  (1616) 
6

>  <i_lp_mmshare_version>  (1616) 
65135

>  <i_m_ct_format>  (1616) 
2

>  <i_m_source_file_index>  (1616) 
2182

>  <i_qp_#NandO>  (1616) 
4

>  <i_qp_#acid>  (1616) 
0

>  <i_qp_#amide>  (1616) 
0

>  <i_qp_#amidine>  (1616) 
0

>  <i_qp_#amine>  (1616) 
1

>  <i_qp_#in34>  (1616) 
0

>  <i_qp_#in56>  (1616) 
22

>  <i_qp_#metab>  (1616) 
3

>  <i_qp_#nonHatm>  (1616) 
28

>  <i_qp_#noncon>  (1616) 
0

>  <i_qp_#ringatoms>  (1616) 
22

>  <i_qp_#rotor>  (1616) 
6

>  <i_qp_#rtvFG>  (1616) 
0

>  <i_qp_#stars>  (1616) 
0

>  <i_qp_CNS>  (1616) 
1

>  <i_qp_HumanOralAbsorption>  (1616) 
3

>  <i_qp_RuleOfFive>  (1616) 
0

>  <i_qp_RuleOfThree>  (1616) 
0

>  <i_sd_BIOSOLVEIT.INFINISEE\_RESULT\_RANK>  (1616) 
2218

>  <i_sd_version>  (1616) 
0

>  <b_lp_Chiralities_Consistent>  (1616) 
1

>  <b_sd_chiral_flag>  (1616) 
0

>  <canonical_id>  (1616) 
ATP-HTVS-FE1522AA7EF8

>  <compound_code>  (1616) 
69793

>  <title>  (1616) 
rxn102c____EMOL1296417____EMOL2873214

>  <variant>  (1616) 
69793-1

>  <source_file>  (1616) 
运行/运行/ATP-VSW/ATP-VSW-DOCK_HTVS_1-001_lib/ATP-VSW-DOCK_HTVS_1-001_lib

>  <canonical_smiles>  (1616) 
C[NH+](C)Cc1cccc(CNc2nc(-c3ccccc3)c3ccccc3n2)c1

>  <scaffold>  (1616) 
c1ccc(CNc2nc(-c3ccccc3)c3ccccc3n2)cc1

>  <molecular_formula>  (1616) 
C24H25N4+

$$$$
ATP-HTVS-FE34E3A925C6
     RDKit          3D

 57 59  0  0  0  0  0  0  0  0999 V2000
  199.9649  183.6096  157.1873 S   0  0  0  0  0  0  0  0  0  0  0  0
  199.7260  182.1392  156.2866 C   0  0  0  0  0  0  0  0  0  0  0  0
  198.8026  182.2631  155.1494 C   0  0  0  0  0  0  0  0  0  0  0  0
  199.1930  182.8474  154.1384 O   0  0  0  0  0  0  0  0  0  0  0  0
  197.5647  181.7272  155.2575 N   0  0  0  0  0  0  0  0  0  0  0  0
  197.0657  181.0148  156.4374 C   0  0  1  0  0  0  0  0  0  0  0  0
  196.5163  181.9282  157.4536 C   0  0  0  0  0  0  0  0  0  0  0  0
  196.0941  182.6540  158.2502 N   0  0  0  0  0  0  0  0  0  0  0  0
  196.5947  181.8352  154.1579 C   0  0  1  0  0  0  0  0  0  0  0  0
  196.8525  180.8862  152.9859 C   0  0  0  0  0  0  0  0  0  0  0  0
  196.2330  181.1508  151.7454 C   0  0  0  0  0  0  0  0  0  0  0  0
  196.4401  180.2962  150.6443 C   0  0  0  0  0  0  0  0  0  0  0  0
  197.2931  179.1834  150.7674 C   0  0  0  0  0  0  0  0  0  0  0  0
  197.9285  178.9200  151.9950 C   0  0  0  0  0  0  0  0  0  0  0  0
  197.6981  179.7574  153.1032 C   0  0  0  0  0  0  0  0  0  0  0  0
  200.5065  181.1127  156.7663 C   0  0  0  0  0  0  0  0  0  0  0  0
  200.5905  179.8188  156.2145 N   0  0  0  0  0  0  0  0  0  0  0  0
  201.2182  178.7002  156.8927 C   0  0  1  0  0  0  0  0  0  0  0  0
  201.4325  177.5223  155.9740 C   0  0  0  0  0  0  0  0  0  0  0  0
  200.8448  176.2849  156.2711 C   0  0  0  0  0  0  0  0  0  0  0  0
  201.0804  175.1752  155.4362 C   0  0  0  0  0  0  0  0  0  0  0  0
  201.9189  175.2894  154.3080 C   0  0  0  0  0  0  0  0  0  0  0  0
  202.4972  176.5428  154.0018 C   0  0  0  0  0  0  0  0  0  0  0  0
  202.2577  177.6538  154.8359 C   0  0  0  0  0  0  0  0  0  0  0  0
  202.2204  174.0622  153.4505 C   0  0  1  0  0  0  0  0  0  0  0  0
  203.3336  173.2293  153.9902 N   0  0  1  0  0  0  0  0  0  0  0  0
  204.6535  173.8956  153.9022 C   0  0  2  0  0  0  0  0  0  0  0  0
  203.0775  172.6720  155.3362 C   0  0  2  0  0  0  0  0  0  0  0  0
  201.2816  181.5094  157.8983 C   0  0  0  0  0  0  0  0  0  0  0  0
  201.0907  182.8174  158.2509 C   0  0  0  0  0  0  0  0  0  0  0  0
  196.2910  180.3153  156.1302 H   0  0  0  0  0  0  0  0  0  0  0  0
  197.8377  180.4091  156.9115 H   0  0  0  0  0  0  0  0  0  0  0  0
  195.5839  181.6601  154.5318 H   0  0  0  0  0  0  0  0  0  0  0  0
  196.5777  182.8631  153.7857 H   0  0  0  0  0  0  0  0  0  0  0  0
  195.5818  182.0077  151.6511 H   0  0  0  0  0  0  0  0  0  0  0  0
  195.9508  180.4975  149.7047 H   0  0  0  0  0  0  0  0  0  0  0  0
  197.4552  178.5303  149.9235 H   0  0  0  0  0  0  0  0  0  0  0  0
  198.5870  178.0693  152.0946 H   0  0  0  0  0  0  0  0  0  0  0  0
  198.1809  179.5197  154.0395 H   0  0  0  0  0  0  0  0  0  0  0  0
  200.0535  179.5954  155.3904 H   0  0  0  0  0  0  0  0  0  0  0  0
  202.1961  178.9791  157.2876 H   0  0  0  0  0  0  0  0  0  0  0  0
  200.5931  178.4185  157.7448 H   0  0  0  0  0  0  0  0  0  0  0  0
  200.2289  176.2027  157.1557 H   0  0  0  0  0  0  0  0  0  0  0  0
  200.6243  174.2281  155.6833 H   0  0  0  0  0  0  0  0  0  0  0  0
  203.1434  176.6570  153.1446 H   0  0  0  0  0  0  0  0  0  0  0  0
  202.7256  178.6040  154.6293 H   0  0  0  0  0  0  0  0  0  0  0  0
  201.3164  173.4537  153.3719 H   0  0  0  0  0  0  0  0  0  0  0  0
  202.4548  174.3679  152.4288 H   0  0  0  0  0  0  0  0  0  0  0  0
  204.6820  174.8103  154.4968 H   0  0  0  0  0  0  0  0  0  0  0  0
  204.8848  174.1538  152.8669 H   0  0  0  0  0  0  0  0  0  0  0  0
  205.4443  173.2373  154.2678 H   0  0  0  0  0  0  0  0  0  0  0  0
  203.0237  173.4428  156.1073 H   0  0  0  0  0  0  0  0  0  0  0  0
  203.8711  171.9863  155.6098 H   0  0  0  0  0  0  0  0  0  0  0  0
  202.1470  172.1076  155.3375 H   0  0  0  0  0  0  0  0  0  0  0  0
  201.9619  180.8459  158.4098 H   0  0  0  0  0  0  0  0  0  0  0  0
  201.5641  183.3713  159.0464 H   0  0  0  0  0  0  0  0  0  0  0  0
  203.3880  172.4054  153.4074 H   0  0  0  0  0  0  0  0  0  0  0  0
  1  2  1  0
  1 30  1  0
  2  3  1  0
  2 16  2  0
  3  4  2  0
  3  5  1  0
  5  6  1  0
  5  9  1  0
  6  7  1  0
  6 31  1  6
  6 32  1  0
  7  8  3  0
  9 10  1  0
  9 33  1  1
  9 34  1  0
 10 11  2  0
 10 15  1  0
 11 12  1  0
 11 35  1  0
 12 13  2  0
 12 36  1  0
 13 14  1  0
 13 37  1  0
 14 15  2  0
 14 38  1  0
 15 39  1  0
 16 17  1  0
 16 29  1  0
 17 18  1  0
 17 40  1  0
 18 19  1  0
 18 41  1  1
 18 42  1  0
 19 20  1  0
 19 24  2  0
 20 21  2  0
 20 43  1  0
 21 22  1  0
 21 44  1  0
 22 23  2  0
 22 25  1  0
 23 24  1  0
 23 45  1  0
 24 46  1  0
 25 26  1  0
 25 47  1  6
 25 48  1  0
 26 27  1  0
 26 28  1  0
 26 57  1  6
 27 49  1  1
 27 50  1  0
 27 51  1  0
 28 52  1  1
 28 53  1  0
 28 54  1  0
 29 30  2  0
 29 55  1  0
 30 56  1  0
M  CHG  1  26   1
M  END
>  <s_epik_cmdline>  (1617) 
J2VwaWtfcHl0aG9uJywgJy1waCcsICc3LjAwMDAwMCcsICctcGh0JywgJzIuMDAwMDAwJywgJy1tcycsICcxNicsICctdG4nLCAnOCcsICctbWEnLCAnMjAwJywgJy1pbWFlJywgJzxpbmZpbGUubWFlPicsICctb21hZScsICc8b3V0ZmlsZS5tYWU+Jw==

>  <s_epik_input>  (1617) 
W2NIXTFbY0hdW2NIXVtjSF1bY0hdYzFbQ0gyXU4oW0NIMl1DI04pQyg9TyljMnNbY0hdW2NIXWMyW05IXVtDSDJdYzNbY0hdW2NIXWMoW2NIXVtjSF0zKVtDSDJdTihbQ0gzXSlbQ0gzXQ==

>  <s_i_glide_gridfile>  (1617) 
ATP-Grid

>  <s_lp_Force_Field>  (1617) 
OPLS_2005

>  <s_lp_Variant>  (1617) 
rxn512b____EMOL300091282____EMOL525138____EMOL50155899-1

>  <s_lp_label>  (1617) 
2401_sdstereoexpander_1_neutralizer_1_epik_1_stereoizer_1

>  <s_m_source_file>  (1617) 
ATP-VSW-LIGPREP-003-in.maegz

>  <s_sd_BIOSOLVEIT.INFINISEE\_QUERY\_NAME>  (1617) 
Ref-Lig

>  <s_sd_BIOSOLVEIT.INFINISEE\_QUERY\_SMILES>  (1617) 
S(c1nc2c(cc1C[NH2+]Cc3ccc(cc3)C[NH+](C)C)cccc2)Cc4ccccc4

>  <s_sd_BIOSOLVEIT.INFINISEE\_REACTION\_NAME>  (1617) 
rxn512b

>  <s_sd_BIOSOLVEIT.INFINISEE\_REAGENT1\_NAME>  (1617) 
EMOL300091282

>  <s_sd_BIOSOLVEIT.INFINISEE\_REAGENT1\_SMILES>  (1617) 
N#CCNCc1ccccc1

>  <s_sd_BIOSOLVEIT.INFINISEE\_REAGENT2\_NAME>  (1617) 
EMOL525138

>  <s_sd_BIOSOLVEIT.INFINISEE\_REAGENT2\_SMILES>  (1617) 
BrC1=C(SC=C1)C(=O)O

>  <s_sd_BIOSOLVEIT.INFINISEE\_REAGENT3\_NAME>  (1617) 
EMOL50155899

>  <s_sd_BIOSOLVEIT.INFINISEE\_REAGENT3\_SMILES>  (1617) 
N(Cc1ccc(cc1)CN)(C)C

>  <s_sd_BIOSOLVEIT.INFINISEE\_SPACE>  (1617) 
eXplore_7tr_2022-12

>  <s_vsw_compound_code>  (1617) 
76803

>  <s_vsw_variant>  (1617) 
76803-1

>  <r_epik_Charging_Adjusted_Penalty>  (1617) 
0.080189274810459593

>  <r_epik_Ionization_Penalty>  (1617) 
0.040300000000000002

>  <r_epik_Ionization_Penalty_Charging>  (1617) 
0.040099999999999997

>  <r_epik_Ionization_Penalty_Neutral>  (1617) 
0.00020000000000000001

>  <r_epik_State_Penalty>  (1617) 
0.040099999999999997

>  <r_i_docking_score>  (1617) 
-3.88785421325528

>  <r_i_glide_ecoul>  (1617) 
-6.8198528289794904

>  <r_i_glide_eff_state_penalty>  (1617) 
0.040099999999999997

>  <r_i_glide_einternal>  (1617) 
4.5878963470459002

>  <r_i_glide_emodel>  (1617) 
-46.505611909655499

>  <r_i_glide_energy>  (1617) 
-36.250406265258803

>  <r_i_glide_erotb>  (1617) 
0.78673417427655801

>  <r_i_glide_esite>  (1617) 
-0.219619995428324

>  <r_i_glide_evdw>  (1617) 
-29.4305534362793

>  <r_i_glide_gscore>  (1617) 
-3.9279542132552798

>  <r_i_glide_hbond>  (1617) 
-0.036433034606296898

>  <r_i_glide_ligand_efficiency>  (1617) 
-0.129595140441843

>  <r_i_glide_ligand_efficiency_ln>  (1617) 
-0.88336283881614697

>  <r_i_glide_ligand_efficiency_sa>  (1617) 
-0.40268223253801499

>  <r_i_glide_lipo>  (1617) 
-1.19069826133632

>  <r_i_glide_metal>  (1617) 
-0

>  <r_i_glide_rewards>  (1617) 
-0.77343149999999905

>  <r_lp_Energy>  (1617) 
26.201193

>  <r_lp_tautomer_probability>  (1617) 
0.99999274205267796

>  <r_qp_ACxDN^.5/SA>  (1617) 
0

>  <r_qp_CIQPlogS>  (1617) 
-4.8700000000000001

>  <r_qp_EA(eV)>  (1617) 
0.53600000000000003

>  <r_qp_FISA>  (1617) 
56.18

>  <r_qp_FOSA>  (1617) 
249.58799999999999

>  <r_qp_IP(eV)>  (1617) 
8.3480000000000008

>  <r_qp_Jm>  (1617) 
0.00311365512988867

>  <r_qp_PISA>  (1617) 
382.56200000000001

>  <r_qp_PSA>  (1617) 
65.189999999999998

>  <r_qp_PercentHumanOralAbsorption>  (1617) 
91.471000000000004

>  <r_qp_QPPCaco>  (1617) 
180.69499999999999

>  <r_qp_QPPMDCK>  (1617) 
160.643

>  <r_qp_QPlogBB>  (1617) 
0.28999999999999998

>  <r_qp_QPlogHERG>  (1617) 
-7.8700000000000001

>  <r_qp_QPlogKhsa>  (1617) 
0.38300000000000001

>  <r_qp_QPlogKp>  (1617) 
-4.3719999999999999

>  <r_qp_QPlogPC16>  (1617) 
14.186999999999999

>  <r_qp_QPlogPo/w>  (1617) 
4.1210000000000004

>  <r_qp_QPlogPoct>  (1617) 
18.603999999999999

>  <r_qp_QPlogPw>  (1617) 
8.6709999999999994

>  <r_qp_QPlogS>  (1617) 
-3.7559999999999998

>  <r_qp_QPpolrz>  (1617) 
45.234999999999999

>  <r_qp_SASA>  (1617) 
729.75099999999998

>  <r_qp_SAamideO>  (1617) 
0

>  <r_qp_SAfluorine>  (1617) 
0

>  <r_qp_WPSA>  (1617) 
41.420999999999999

>  <r_qp_accptHB>  (1617) 
6.5

>  <r_qp_dip^2/V>  (1617) 
0.014787399999999999

>  <r_qp_dipole>  (1617) 
4.4729999999999999

>  <r_qp_donorHB>  (1617) 
0

>  <r_qp_glob>  (1617) 
0.81078430000000001

>  <r_qp_mol_MW>  (1617) 
418.55599999999998

>  <r_qp_volume>  (1617) 
1353.2329999999999

>  <r_sd_BIOSOLVEIT.INFINISEE\_FTREES\_SIMILARITY>  (1617) 
0.91800000000000004

>  <r_sd_BIOSOLVEIT.LOGP>  (1617) 
3.1706799999999999

>  <r_sd_BIOSOLVEIT.MOLECULAR\_WEIGHT>  (1617) 
419.56900000000002

>  <r_sd_BIOSOLVEIT.TPSA>  (1617) 
60.57

>  <i_epik_Tot_Q>  (1617) 
1

>  <i_epik_Tot_abs_Q>  (1617) 
1

>  <i_f3d_flags>  (1617) 
0

>  <i_i_glide_confnum>  (1617) 
6

>  <i_i_glide_lignum>  (1617) 
1013

>  <i_i_glide_posenum>  (1617) 
15

>  <i_i_glide_rotatable_bonds>  (1617) 
10

>  <i_lp_mmshare_version>  (1617) 
65135

>  <i_m_ct_format>  (1617) 
2

>  <i_m_source_file_index>  (1617) 
2401

>  <i_qp_#NandO>  (1617) 
5

>  <i_qp_#acid>  (1617) 
0

>  <i_qp_#amide>  (1617) 
0

>  <i_qp_#amidine>  (1617) 
0

>  <i_qp_#amine>  (1617) 
2

>  <i_qp_#in34>  (1617) 
0

>  <i_qp_#in56>  (1617) 
17

>  <i_qp_#metab>  (1617) 
7

>  <i_qp_#nonHatm>  (1617) 
30

>  <i_qp_#noncon>  (1617) 
0

>  <i_qp_#ringatoms>  (1617) 
17

>  <i_qp_#rotor>  (1617) 
10

>  <i_qp_#rtvFG>  (1617) 
0

>  <i_qp_#stars>  (1617) 
0

>  <i_qp_CNS>  (1617) 
1

>  <i_qp_HumanOralAbsorption>  (1617) 
3

>  <i_qp_RuleOfFive>  (1617) 
0

>  <i_qp_RuleOfThree>  (1617) 
1

>  <i_sd_BIOSOLVEIT.INFINISEE\_RESULT\_RANK>  (1617) 
20590

>  <i_sd_version>  (1617) 
0

>  <b_lp_Chiralities_Consistent>  (1617) 
1

>  <b_sd_chiral_flag>  (1617) 
0

>  <canonical_id>  (1617) 
ATP-HTVS-FE34E3A925C6

>  <compound_code>  (1617) 
76803

>  <title>  (1617) 
rxn512b____EMOL300091282____EMOL525138____EMOL50155899

>  <variant>  (1617) 
76803-1

>  <source_file>  (1617) 
运行/运行/ATP-VSW/ATP-VSW-DOCK_HTVS_1-003_lib/ATP-VSW-DOCK_HTVS_1-003_lib.mae

>  <canonical_smiles>  (1617) 
C[NH+](C)Cc1ccc(CNc2ccsc2C(=O)N(CC#N)Cc2ccccc2)cc1

>  <scaffold>  (1617) 
O=C(NCc1ccccc1)c1sccc1NCc1ccccc1

>  <molecular_formula>  (1617) 
C24H27N4OS+

$$$$
ATP-HTVS-FE46C3AF7461
     RDKit          3D

 62 65  0  0  0  0  0  0  0  0999 V2000
  197.2038  185.8382  149.3335 O   0  0  0  0  0  0  0  0  0  0  0  0
  196.8068  184.6652  149.4884 C   0  0  0  0  0  0  0  0  0  0  0  0
  195.7884  184.3259  150.1334 O   0  0  0  0  0  0  0  0  0  0  0  0
  197.6561  183.5734  148.8158 C   0  0  1  0  0  0  0  0  0  0  0  0
  198.0334  182.3951  149.7359 C   0  0  1  0  0  0  0  0  0  0  0  0
  196.8559  181.4850  150.1369 C   0  0  1  0  0  0  0  0  0  0  0  0
  197.0751  180.8246  151.4788 C   0  0  0  0  0  0  0  0  0  0  0  0
  196.3763  181.3152  152.6146 C   0  0  0  0  0  0  0  0  0  0  0  0
  196.5075  180.6854  153.8096 C   0  0  0  0  0  0  0  0  0  0  0  0
  197.4537  179.6366  154.0054 C   0  0  0  0  0  0  0  0  0  0  0  0
  198.1488  179.1598  152.8812 C   0  0  0  0  0  0  0  0  0  0  0  0
  197.9577  179.7437  151.6095 C   0  0  0  0  0  0  0  0  0  0  0  0
  197.6907  179.0354  155.3811 C   0  0  1  0  0  0  0  0  0  0  0  0
  198.3667  179.9637  156.3090 N   0  0  1  0  0  0  0  0  0  0  0  0
  197.7803  181.3293  156.3450 C   0  0  1  0  0  0  0  0  0  0  0  0
  198.5511  182.2366  157.2717 C   0  0  0  0  0  0  0  0  0  0  0  0
  198.0784  183.1862  158.2428 C   0  0  0  0  0  0  0  0  0  0  0  0
  199.0807  183.9033  158.7290 N   0  0  0  0  0  0  0  0  0  0  0  0
  200.1932  183.4241  158.1317 N   0  0  0  0  0  0  0  0  0  0  0  0
  199.9081  182.4208  157.2488 C   0  0  0  0  0  0  0  0  0  0  0  0
  201.4954  183.9751  158.4492 C   0  0  1  0  0  0  0  0  0  0  0  0
  202.3277  182.9529  159.2044 C   0  0  0  0  0  0  0  0  0  0  0  0
  202.9376  181.8751  158.5219 C   0  0  0  0  0  0  0  0  0  0  0  0
  203.7118  180.9365  159.2284 C   0  0  0  0  0  0  0  0  0  0  0  0
  203.8844  181.0761  160.6170 C   0  0  0  0  0  0  0  0  0  0  0  0
  203.2765  182.1498  161.3002 C   0  0  0  0  0  0  0  0  0  0  0  0
  202.4909  183.0791  160.5988 C   0  0  0  0  0  0  0  0  0  0  0  0
  196.6913  183.4964  158.6393 C   0  0  0  0  0  0  0  0  0  0  0  0
  196.3751  184.7761  159.1829 C   0  0  0  0  0  0  0  0  0  0  0  0
  195.0587  185.0863  159.5890 C   0  0  0  0  0  0  0  0  0  0  0  0
  194.0192  184.1533  159.3920 C   0  0  0  0  0  0  0  0  0  0  0  0
  194.3233  182.8890  158.8349 C   0  0  0  0  0  0  0  0  0  0  0  0
  195.6453  182.5382  158.4961 C   0  0  0  0  0  0  0  0  0  0  0  0
  198.3013  179.5299  157.2231 H   0  0  0  0  0  0  0  0  0  0  0  0
  197.1368  183.2193  147.9314 H   0  0  0  0  0  0  0  0  0  0  0  0
  198.5745  184.0375  148.4580 H   0  0  0  0  0  0  0  0  0  0  0  0
  198.7864  181.7738  149.2477 H   0  0  0  0  0  0  0  0  0  0  0  0
  198.5348  182.8072  150.6161 H   0  0  0  0  0  0  0  0  0  0  0  0
  195.9269  182.0347  150.2369 H   0  0  0  0  0  0  0  0  0  0  0  0
  196.6840  180.7111  149.3872 H   0  0  0  0  0  0  0  0  0  0  0  0
  195.7339  182.1905  152.5185 H   0  0  0  0  0  0  0  0  0  0  0  0
  195.9352  181.0666  154.6900 H   0  0  0  0  0  0  0  0  0  0  0  0
  198.8614  178.3404  152.9783 H   0  0  0  0  0  0  0  0  0  0  0  0
  198.4887  179.3710  150.7454 H   0  0  0  0  0  0  0  0  0  0  0  0
  196.7336  178.7014  155.7773 H   0  0  0  0  0  0  0  0  0  0  0  0
  198.3153  178.1439  155.3050 H   0  0  0  0  0  0  0  0  0  0  0  0
  197.8316  181.7744  155.3531 H   0  0  0  0  0  0  0  0  0  0  0  0
  196.7658  181.2183  156.6015 H   0  0  0  0  0  0  0  0  0  0  0  0
  200.6584  181.9656  156.6269 H   0  0  0  0  0  0  0  0  0  0  0  0
  202.0031  184.2571  157.5218 H   0  0  0  0  0  0  0  0  0  0  0  0
  201.3588  184.8829  159.0448 H   0  0  0  0  0  0  0  0  0  0  0  0
  202.8229  181.7635  157.4538 H   0  0  0  0  0  0  0  0  0  0  0  0
  204.1750  180.1106  158.7055 H   0  0  0  0  0  0  0  0  0  0  0  0
  204.4764  180.3558  161.1618 H   0  0  0  0  0  0  0  0  0  0  0  0
  203.4036  182.2578  162.3662 H   0  0  0  0  0  0  0  0  0  0  0  0
  202.0234  183.8950  161.1322 H   0  0  0  0  0  0  0  0  0  0  0  0
  197.1500  185.5206  159.3256 H   0  0  0  0  0  0  0  0  0  0  0  0
  194.8417  186.0464  160.0499 H   0  0  0  0  0  0  0  0  0  0  0  0
  193.0054  184.3848  159.6879 H   0  0  0  0  0  0  0  0  0  0  0  0
  193.5368  182.1628  158.6832 H   0  0  0  0  0  0  0  0  0  0  0  0
  195.8028  181.5360  158.1768 H   0  0  0  0  0  0  0  0  0  0  0  0
  199.3548  180.0142  156.0793 H   0  0  0  0  0  0  0  0  0  0  0  0
  1  2  1  0
  2  3  2  0
  2  4  1  0
  4  5  1  0
  4 35  1  6
  4 36  1  0
  5  6  1  0
  5 37  1  6
  5 38  1  0
  6  7  1  0
  6 39  1  1
  6 40  1  0
  7  8  1  0
  7 12  2  0
  8  9  2  0
  8 41  1  0
  9 10  1  0
  9 42  1  0
 10 11  2  0
 10 13  1  0
 11 12  1  0
 11 43  1  0
 12 44  1  0
 13 14  1  0
 13 45  1  1
 13 46  1  0
 14 15  1  0
 14 34  1  1
 14 62  1  0
 15 16  1  0
 15 47  1  6
 15 48  1  0
 16 17  1  0
 16 20  2  0
 17 18  2  0
 17 28  1  0
 18 19  1  0
 19 20  1  0
 19 21  1  0
 20 49  1  0
 21 22  1  0
 21 50  1  6
 21 51  1  0
 22 23  2  0
 22 27  1  0
 23 24  1  0
 23 52  1  0
 24 25  2  0
 24 53  1  0
 25 26  1  0
 25 54  1  0
 26 27  2  0
 26 55  1  0
 27 56  1  0
 28 29  2  0
 28 33  1  0
 29 30  1  0
 29 57  1  0
 30 31  2  0
 30 58  1  0
 31 32  1  0
 31 59  1  0
 32 33  2  0
 32 60  1  0
 33 61  1  0
M  CHG  2   1  -1  14   1
M  END
>  <s_epik_cmdline>  (1618) 
J2VwaWtfcHl0aG9uJywgJy1waCcsICc3LjAwMDAwMCcsICctcGh0JywgJzIuMDAwMDAwJywgJy1tcycsICcxNicsICctdG4nLCAnOCcsICctbWEnLCAnMjAwJywgJy1pbWFlJywgJzxpbmZpbGUubWFlPicsICctb21hZScsICc8b3V0ZmlsZS5tYWU+Jw==

>  <s_epik_input>  (1618) 
W09IXUMoPU8pW0NIMl1bQ0gyXVtDSDJdYzFbY0hdW2NIXWMoW2NIXVtjSF0xKVtDSDJdW05IXVtDSDJdYzJjKC1jM1tjSF1bY0hdW2NIXVtjSF1bY0hdMylubihbY0hdMilbQ0gyXWM0W2NIXVtjSF1bY0hdW2NIXVtjSF00

>  <s_i_glide_gridfile>  (1618) 
ATP-Grid

>  <s_lp_Force_Field>  (1618) 
OPLS_2005

>  <s_lp_Variant>  (1618) 
m_271304bba____13807932____9305016-1

>  <s_lp_label>  (1618) 
1541_sdstereoexpander_1_neutralizer_1_epik_1_stereoizer_1

>  <s_m_source_file>  (1618) 
ATP-VSW-LIGPREP-003-in.maegz

>  <s_sd_BIOSOLVEIT.INFINISEE\_QUERY\_NAME>  (1618) 
Ref-Lig

>  <s_sd_BIOSOLVEIT.INFINISEE\_QUERY\_SMILES>  (1618) 
S(c1nc2c(cc1C[NH2+]Cc3ccc(cc3)C[NH+](C)C)cccc2)Cc4ccccc4

>  <s_sd_BIOSOLVEIT.INFINISEE\_REACTION\_NAME>  (1618) 
m_271304bba

>  <s_sd_BIOSOLVEIT.INFINISEE\_REAGENT1\_SMILES>  (1618) 
[R1*]NCc1ccc(cc1)CCCC(=O)O

>  <s_sd_BIOSOLVEIT.INFINISEE\_REAGENT2\_SMILES>  (1618) 
[R1*]CC=1C(=NN(C1)Cc2ccccc2)c3ccccc3

>  <s_sd_BIOSOLVEIT.INFINISEE\_SPACE>  (1618) 
REALSpace_44bn_2023-08

>  <s_vsw_compound_code>  (1618) 
49283

>  <s_vsw_variant>  (1618) 
49283-1

>  <r_epik_Charging_Adjusted_Penalty>  (1618) 
0.172918856378587

>  <r_epik_Ionization_Penalty>  (1618) 
0.086400000000000005

>  <r_epik_Ionization_Penalty_Charging>  (1618) 
0.086400000000000005

>  <r_epik_Ionization_Penalty_Neutral>  (1618) 
0

>  <r_epik_State_Penalty>  (1618) 
0.086599999999999996

>  <r_i_docking_score>  (1618) 
-4.56034552065314

>  <r_i_glide_ecoul>  (1618) 
-8.9544095993041992

>  <r_i_glide_eff_state_penalty>  (1618) 
0.086599999999999996

>  <r_i_glide_einternal>  (1618) 
6.4577050209045401

>  <r_i_glide_emodel>  (1618) 
-59.530381112262198

>  <r_i_glide_energy>  (1618) 
-44.180682182311998

>  <r_i_glide_erotb>  (1618) 
1.03306661367297

>  <r_i_glide_esite>  (1618) 
-0.0964737262060434

>  <r_i_glide_evdw>  (1618) 
-35.226272583007798

>  <r_i_glide_gscore>  (1618) 
-4.6469455206531398

>  <r_i_glide_hbond>  (1618) 
-0.20086191059355801

>  <r_i_glide_ligand_efficiency>  (1618) 
-0.13819228850464099

>  <r_i_glide_ligand_efficiency_ln>  (1618) 
-1.01419723158785

>  <r_i_glide_ligand_efficiency_sa>  (1618) 
-0.44325650900270602

>  <r_i_glide_lipo>  (1618) 
-1.5941767802701601

>  <r_i_glide_metal>  (1618) 
-0

>  <r_i_glide_rewards>  (1618) 
-0.68402464821033504

>  <r_lp_Energy>  (1618) 
10.969785999999999

>  <r_lp_tautomer_probability>  (1618) 
1

>  <r_qp_ACxDN^.5/SA>  (1618) 
0.0083090999999999998

>  <r_qp_CIQPlogS>  (1618) 
-6.4020000000000001

>  <r_qp_EA(eV)>  (1618) 
0.22500000000000001

>  <r_qp_FISA>  (1618) 
115.036

>  <r_qp_FOSA>  (1618) 
210.53100000000001

>  <r_qp_IP(eV)>  (1618) 
8.9920000000000009

>  <r_qp_Jm>  (1618) 
1.5193329801335499e-05

>  <r_qp_PISA>  (1618) 
525.43600000000004

>  <r_qp_PSA>  (1618) 
78.748000000000005

>  <r_qp_PercentHumanOralAbsorption>  (1618) 
83.463999999999999

>  <r_qp_QPPCaco>  (1618) 
50.759

>  <r_qp_QPPMDCK>  (1618) 
27.763999999999999

>  <r_qp_QPlogBB>  (1618) 
-1.0069999999999999

>  <r_qp_QPlogHERG>  (1618) 
-7.0140000000000002

>  <r_qp_QPlogKhsa>  (1618) 
1.0800000000000001

>  <r_qp_QPlogKp>  (1618) 
-2.891

>  <r_qp_QPlogPC16>  (1618) 
17.617000000000001

>  <r_qp_QPlogPo/w>  (1618) 
4.4390000000000001

>  <r_qp_QPlogPoct>  (1618) 
23.786000000000001

>  <r_qp_QPlogPw>  (1618) 
11.772

>  <r_qp_QPlogS>  (1618) 
-7.5700000000000003

>  <r_qp_QPpolrz>  (1618) 
53.029000000000003

>  <r_qp_SASA>  (1618) 
851.00400000000002

>  <r_qp_SAamideO>  (1618) 
0

>  <r_qp_SAfluorine>  (1618) 
0

>  <r_qp_WPSA>  (1618) 
0

>  <r_qp_accptHB>  (1618) 
5

>  <r_qp_dip^2/V>  (1618) 
0.036042699999999997

>  <r_qp_dipole>  (1618) 
7.3869999999999996

>  <r_qp_donorHB>  (1618) 
2

>  <r_qp_glob>  (1618) 
0.74925870000000006

>  <r_qp_mol_MW>  (1618) 
439.55599999999998

>  <r_qp_volume>  (1618) 
1513.9000000000001

>  <r_sd_BIOSOLVEIT.INFINISEE\_FTREES\_SIMILARITY>  (1618) 
0.90700000000000003

>  <r_sd_BIOSOLVEIT.LOGP>  (1618) 
2.9346000000000001

>  <r_sd_BIOSOLVEIT.MOLECULAR\_WEIGHT>  (1618) 
439.55599999999998

>  <r_sd_BIOSOLVEIT.TPSA>  (1618) 
74.560000000000002

>  <i_epik_Tot_Q>  (1618) 
0

>  <i_epik_Tot_abs_Q>  (1618) 
2

>  <i_f3d_flags>  (1618) 
0

>  <i_i_glide_confnum>  (1618) 
11

>  <i_i_glide_lignum>  (1618) 
587

>  <i_i_glide_posenum>  (1618) 
8

>  <i_i_glide_rotatable_bonds>  (1618) 
11

>  <i_lp_mmshare_version>  (1618) 
65135

>  <i_m_ct_format>  (1618) 
2

>  <i_m_source_file_index>  (1618) 
1541

>  <i_qp_#NandO>  (1618) 
5

>  <i_qp_#acid>  (1618) 
1

>  <i_qp_#amide>  (1618) 
0

>  <i_qp_#amidine>  (1618) 
0

>  <i_qp_#amine>  (1618) 
1

>  <i_qp_#in34>  (1618) 
0

>  <i_qp_#in56>  (1618) 
23

>  <i_qp_#metab>  (1618) 
6

>  <i_qp_#nonHatm>  (1618) 
33

>  <i_qp_#noncon>  (1618) 
0

>  <i_qp_#ringatoms>  (1618) 
23

>  <i_qp_#rotor>  (1618) 
10

>  <i_qp_#rtvFG>  (1618) 
0

>  <i_qp_#stars>  (1618) 
3

>  <i_qp_CNS>  (1618) 
-2

>  <i_qp_HumanOralAbsorption>  (1618) 
1

>  <i_qp_RuleOfFive>  (1618) 
0

>  <i_qp_RuleOfThree>  (1618) 
1

>  <i_sd_BIOSOLVEIT.INFINISEE\_REAGENT1\_NAME>  (1618) 
13807932

>  <i_sd_BIOSOLVEIT.INFINISEE\_REAGENT2\_NAME>  (1618) 
9305016

>  <i_sd_BIOSOLVEIT.INFINISEE\_RESULT\_RANK>  (1618) 
61803

>  <i_sd_version>  (1618) 
0

>  <b_lp_Chiralities_Consistent>  (1618) 
1

>  <b_sd_chiral_flag>  (1618) 
0

>  <canonical_id>  (1618) 
ATP-HTVS-FE46C3AF7461

>  <compound_code>  (1618) 
49283

>  <title>  (1618) 
m_271304bba____13807932____9305016

>  <variant>  (1618) 
49283-1

>  <source_file>  (1618) 
运行/运行/ATP-VSW/ATP-VSW-DOCK_HTVS_1-003_lib/ATP-VSW-DOCK_HTVS_1-003_lib.mae

>  <canonical_smiles>  (1618) 
O=C([O-])CCCc1ccc(C[NH2+]Cc2cn(Cc3ccccc3)nc2-c2ccccc2)cc1

>  <scaffold>  (1618) 
c1ccc(C[NH2+]Cc2cn(Cc3ccccc3)nc2-c2ccccc2)cc1

>  <molecular_formula>  (1618) 
C28H29N3O2

$$$$
ATP-HTVS-FE5B2EC4EA23
     RDKit          3D

 59 62  0  0  0  0  0  0  0  0999 V2000
  203.0380  181.4615  154.5910 F   0  0  0  0  0  0  0  0  0  0  0  0
  202.9885  181.6306  155.9294 C   0  0  0  0  0  0  0  0  0  0  0  0
  201.8874  182.2839  156.5126 C   0  0  0  0  0  0  0  0  0  0  0  0
  201.8129  182.4830  157.9149 C   0  0  0  0  0  0  0  0  0  0  0  0
  202.8821  182.0038  158.7319 C   0  0  0  0  0  0  0  0  0  0  0  0
  202.8978  182.1387  160.1859 C   0  0  0  0  0  0  0  0  0  0  0  0
  202.9160  182.2427  161.3376 N   0  0  0  0  0  0  0  0  0  0  0  0
  203.9887  181.3630  158.1298 C   0  0  0  0  0  0  0  0  0  0  0  0
  204.0465  181.1799  156.7359 C   0  0  0  0  0  0  0  0  0  0  0  0
  200.6327  183.2265  158.4881 C   0  0  0  0  0  0  0  0  0  0  0  0
  200.7770  184.0701  159.3699 O   0  0  0  0  0  0  0  0  0  0  0  0
  199.4532  182.8198  157.9906 N   0  0  0  0  0  0  0  0  0  0  0  0
  198.1364  183.2225  158.3151 C   0  0  0  0  0  0  0  0  0  0  0  0
  197.8762  184.2350  159.1640 N   0  0  0  0  0  0  0  0  0  0  0  0
  196.6071  184.5422  159.4806 C   0  0  0  0  0  0  0  0  0  0  0  0
  195.5054  183.8314  158.9296 C   0  0  0  0  0  0  0  0  0  0  0  0
  195.7620  182.7793  158.0311 C   0  0  0  0  0  0  0  0  0  0  0  0
  197.0988  182.4754  157.6993 C   0  0  0  0  0  0  0  0  0  0  0  0
  197.3618  181.3957  156.8450 N   0  0  0  0  0  0  0  0  0  0  0  0
  197.9758  181.6422  155.5416 C   0  0  1  0  0  0  0  0  0  0  0  0
  198.6028  180.4208  154.8846 C   0  0  0  0  0  0  0  0  0  0  0  0
  198.9191  179.2610  155.6272 C   0  0  0  0  0  0  0  0  0  0  0  0
  199.5379  178.1563  155.0065 C   0  0  0  0  0  0  0  0  0  0  0  0
  199.8179  178.2072  153.6243 C   0  0  0  0  0  0  0  0  0  0  0  0
  199.4951  179.3557  152.8777 C   0  0  0  0  0  0  0  0  0  0  0  0
  198.9002  180.4644  153.5074 C   0  0  0  0  0  0  0  0  0  0  0  0
  199.8582  176.9057  155.8079 C   0  0  1  0  0  0  0  0  0  0  0  0
  201.1356  177.0199  156.5539 N   0  0  1  0  0  0  0  0  0  0  0  0
  200.9906  177.7433  157.8403 C   0  0  2  0  0  0  0  0  0  0  0  0
  201.7875  175.7050  156.7303 C   0  0  2  0  0  0  0  0  0  0  0  0
  194.1897  184.1901  159.2725 C   0  0  0  0  0  0  0  0  0  0  0  0
  193.9706  185.2511  160.1662 C   0  0  0  0  0  0  0  0  0  0  0  0
  195.0515  185.9648  160.7115 C   0  0  0  0  0  0  0  0  0  0  0  0
  196.3573  185.6044  160.3677 C   0  0  0  0  0  0  0  0  0  0  0  0
  201.1118  182.6496  155.8586 H   0  0  0  0  0  0  0  0  0  0  0  0
  204.8126  181.0127  158.7356 H   0  0  0  0  0  0  0  0  0  0  0  0
  204.8952  180.6873  156.2859 H   0  0  0  0  0  0  0  0  0  0  0  0
  199.4655  182.0506  157.3363 H   0  0  0  0  0  0  0  0  0  0  0  0
  194.9548  182.2151  157.5766 H   0  0  0  0  0  0  0  0  0  0  0  0
  196.6665  180.6528  156.8641 H   0  0  0  0  0  0  0  0  0  0  0  0
  197.2328  182.0758  154.8692 H   0  0  0  0  0  0  0  0  0  0  0  0
  198.7699  182.3869  155.6069 H   0  0  0  0  0  0  0  0  0  0  0  0
  198.6812  179.2088  156.6816 H   0  0  0  0  0  0  0  0  0  0  0  0
  200.2536  177.3591  153.1164 H   0  0  0  0  0  0  0  0  0  0  0  0
  199.6909  179.3834  151.8138 H   0  0  0  0  0  0  0  0  0  0  0  0
  198.6650  181.3485  152.9319 H   0  0  0  0  0  0  0  0  0  0  0  0
  199.0403  176.6677  156.4868 H   0  0  0  0  0  0  0  0  0  0  0  0
  199.9162  176.0757  155.1019 H   0  0  0  0  0  0  0  0  0  0  0  0
  200.2871  177.2319  158.5020 H   0  0  0  0  0  0  0  0  0  0  0  0
  200.6359  178.7629  157.6946 H   0  0  0  0  0  0  0  0  0  0  0  0
  201.9485  177.8178  158.3503 H   0  0  0  0  0  0  0  0  0  0  0  0
  201.1657  175.0442  157.3318 H   0  0  0  0  0  0  0  0  0  0  0  0
  202.7479  175.8129  157.2332 H   0  0  0  0  0  0  0  0  0  0  0  0
  201.9830  175.2214  155.7718 H   0  0  0  0  0  0  0  0  0  0  0  0
  193.3468  183.6791  158.8342 H   0  0  0  0  0  0  0  0  0  0  0  0
  192.9632  185.5406  160.4216 H   0  0  0  0  0  0  0  0  0  0  0  0
  194.8798  186.7845  161.3919 H   0  0  0  0  0  0  0  0  0  0  0  0
  197.1941  186.1484  160.7840 H   0  0  0  0  0  0  0  0  0  0  0  0
  201.7565  177.5683  155.9744 H   0  0  0  0  0  0  0  0  0  0  0  0
  1  2  1  0
  2  3  2  0
  2  9  1  0
  3  4  1  0
  3 35  1  0
  4  5  2  0
  4 10  1  0
  5  6  1  0
  5  8  1  0
  6  7  3  0
  8  9  2  0
  8 36  1  0
  9 37  1  0
 10 11  2  0
 10 12  1  0
 12 13  1  0
 12 38  1  0
 13 14  2  0
 13 18  1  0
 14 15  1  0
 15 16  1  0
 15 34  2  0
 16 17  1  0
 16 31  2  0
 17 18  2  0
 17 39  1  0
 18 19  1  0
 19 20  1  0
 19 40  1  0
 20 21  1  0
 20 41  1  6
 20 42  1  0
 21 22  2  0
 21 26  1  0
 22 23  1  0
 22 43  1  0
 23 24  2  0
 23 27  1  0
 24 25  1  0
 24 44  1  0
 25 26  2  0
 25 45  1  0
 26 46  1  0
 27 28  1  0
 27 47  1  1
 27 48  1  0
 28 29  1  0
 28 30  1  0
 28 59  1  6
 29 49  1  1
 29 50  1  0
 29 51  1  0
 30 52  1  1
 30 53  1  0
 30 54  1  0
 31 32  1  0
 31 55  1  0
 32 33  2  0
 32 56  1  0
 33 34  1  0
 33 57  1  0
 34 58  1  0
M  CHG  1  28   1
M  END
>  <s_epik_cmdline>  (1619) 
J2VwaWtfcHl0aG9uJywgJy1waCcsICc3LjAwMDAwMCcsICctcGh0JywgJzIuMDAwMDAwJywgJy1tcycsICcxNicsICctdG4nLCAnOCcsICctbWEnLCAnMjAwJywgJy1pbWFlJywgJzxpbmZpbGUubWFlPicsICctb21hZScsICc8b3V0ZmlsZS5tYWU+Jw==

>  <s_epik_input>  (1619) 
RmMxW2NIXWMoYyhDI04pW2NIXVtjSF0xKUMoPU8pW05IXWMobjIpYyhbY0hdYyhjMjMpW2NIXVtjSF1bY0hdW2NIXTMpW05IXVtDSDJdYzRbY0hdYyhbY0hdW2NIXVtjSF00KVtDSDJdTihbQ0gzXSlbQ0gzXQ==

>  <s_i_glide_gridfile>  (1619) 
ATP-Grid

>  <s_lp_Force_Field>  (1619) 
OPLS_2005

>  <s_lp_Variant>  (1619) 
rxn502b____EMOL43478294____EMOL44466703____EMOL2873214-1

>  <s_lp_label>  (1619) 
2325_sdstereoexpander_1_neutralizer_1_epik_1_stereoizer_1

>  <s_m_source_file>  (1619) 
ATP-VSW-LIGPREP-002-in.maegz

>  <s_sd_BIOSOLVEIT.INFINISEE\_QUERY\_NAME>  (1619) 
Ref-Lig

>  <s_sd_BIOSOLVEIT.INFINISEE\_QUERY\_SMILES>  (1619) 
S(c1nc2c(cc1C[NH2+]Cc3ccc(cc3)C[NH+](C)C)cccc2)Cc4ccccc4

>  <s_sd_BIOSOLVEIT.INFINISEE\_REACTION\_NAME>  (1619) 
rxn502b

>  <s_sd_BIOSOLVEIT.INFINISEE\_REAGENT1\_NAME>  (1619) 
EMOL43478294

>  <s_sd_BIOSOLVEIT.INFINISEE\_REAGENT1\_SMILES>  (1619) 
Fc1cc(c(C#N)cc1)C(=O)O

>  <s_sd_BIOSOLVEIT.INFINISEE\_REAGENT2\_NAME>  (1619) 
EMOL44466703

>  <s_sd_BIOSOLVEIT.INFINISEE\_REAGENT2\_SMILES>  (1619) 
Brc1c(nc2c(c1)cccc2)N

>  <s_sd_BIOSOLVEIT.INFINISEE\_REAGENT3\_NAME>  (1619) 
EMOL2873214

>  <s_sd_BIOSOLVEIT.INFINISEE\_REAGENT3\_SMILES>  (1619) 
N(Cc1cc(ccc1)CN)(C)C

>  <s_sd_BIOSOLVEIT.INFINISEE\_SPACE>  (1619) 
eXplore_7tr_2022-12

>  <s_vsw_compound_code>  (1619) 
74370

>  <s_vsw_variant>  (1619) 
74370-1

>  <r_epik_Charging_Adjusted_Penalty>  (1619) 
0.088257584075419004

>  <r_epik_Ionization_Penalty>  (1619) 
0.045699999999999998

>  <r_epik_Ionization_Penalty_Charging>  (1619) 
0.0441

>  <r_epik_Ionization_Penalty_Neutral>  (1619) 
0.0016000000000000001

>  <r_epik_State_Penalty>  (1619) 
0.044200000000000003

>  <r_i_docking_score>  (1619) 
-4.6797950979664398

>  <r_i_glide_ecoul>  (1619) 
-8.0001707077026403

>  <r_i_glide_eff_state_penalty>  (1619) 
0.044200000000000003

>  <r_i_glide_einternal>  (1619) 
6.6485290527343803

>  <r_i_glide_emodel>  (1619) 
-57.876927915158802

>  <r_i_glide_energy>  (1619) 
-42.317954063415499

>  <r_i_glide_erotb>  (1619) 
0.68044991927848297

>  <r_i_glide_esite>  (1619) 
-0.082878331615927198

>  <r_i_glide_evdw>  (1619) 
-34.317783355712898

>  <r_i_glide_gscore>  (1619) 
-4.7239950979664398

>  <r_i_glide_hbond>  (1619) 
-0.147706882956682

>  <r_i_glide_ligand_efficiency>  (1619) 
-0.13764103229312999

>  <r_i_glide_ligand_efficiency_ln>  (1619) 
-1.03389800094708

>  <r_i_glide_ligand_efficiency_sa>  (1619) 
-0.44590351203270201

>  <r_i_glide_lipo>  (1619) 
-1.47023254096742

>  <r_i_glide_metal>  (1619) 
-0

>  <r_i_glide_rewards>  (1619) 
-0.78771248776385305

>  <r_lp_Energy>  (1619) 
30.282499999999999

>  <r_qp_ACxDN^.5/SA>  (1619) 
0.0141738

>  <r_qp_CIQPlogS>  (1619) 
-6.4640000000000004

>  <r_qp_EA(eV)>  (1619) 
1.2849999999999999

>  <r_qp_FISA>  (1619) 
107.56100000000001

>  <r_qp_FOSA>  (1619) 
215.73699999999999

>  <r_qp_IP(eV)>  (1619) 
8.3780000000000001

>  <r_qp_Jm>  (1619) 
8.2590013103681599e-05

>  <r_qp_PISA>  (1619) 
427.964

>  <r_qp_PSA>  (1619) 
86.840999999999994

>  <r_qp_PercentHumanOralAbsorption>  (1619) 
94.811999999999998

>  <r_qp_QPPCaco>  (1619) 
235.93899999999999

>  <r_qp_QPPMDCK>  (1619) 
207.72800000000001

>  <r_qp_QPlogBB>  (1619) 
-0.58799999999999997

>  <r_qp_QPlogHERG>  (1619) 
-7.8849999999999998

>  <r_qp_QPlogKhsa>  (1619) 
0.61099999999999999

>  <r_qp_QPlogKp>  (1619) 
-3.2890000000000001

>  <r_qp_QPlogPC16>  (1619) 
15.817

>  <r_qp_QPlogPo/w>  (1619) 
4.3380000000000001

>  <r_qp_QPlogPoct>  (1619) 
24.943000000000001

>  <r_qp_QPlogPw>  (1619) 
14.343999999999999

>  <r_qp_QPlogS>  (1619) 
-6.4509999999999996

>  <r_qp_QPpolrz>  (1619) 
51.076999999999998

>  <r_qp_SASA>  (1619) 
798.21199999999999

>  <r_qp_SAamideO>  (1619) 
0

>  <r_qp_SAfluorine>  (1619) 
46.951000000000001

>  <r_qp_WPSA>  (1619) 
46.951000000000001

>  <r_qp_accptHB>  (1619) 
8

>  <r_qp_dip^2/V>  (1619) 
0.034472799999999998

>  <r_qp_dipole>  (1619) 
7.085

>  <r_qp_donorHB>  (1619) 
2

>  <r_qp_glob>  (1619) 
0.77841570000000004

>  <r_qp_mol_MW>  (1619) 
453.51799999999997

>  <r_qp_volume>  (1619) 
1456.287

>  <r_sd_BIOSOLVEIT.INFINISEE\_FTREES\_SIMILARITY>  (1619) 
0.92200000000000004

>  <r_sd_BIOSOLVEIT.LOGP>  (1619) 
3.75448

>  <r_sd_BIOSOLVEIT.MOLECULAR\_WEIGHT>  (1619) 
454.52699999999999

>  <r_sd_BIOSOLVEIT.TPSA>  (1619) 
82.25

>  <i_epik_Tot_Q>  (1619) 
1

>  <i_epik_Tot_abs_Q>  (1619) 
1

>  <i_f3d_flags>  (1619) 
0

>  <i_i_glide_confnum>  (1619) 
5

>  <i_i_glide_lignum>  (1619) 
936

>  <i_i_glide_posenum>  (1619) 
10

>  <i_i_glide_rotatable_bonds>  (1619) 
8

>  <i_lp_mmshare_version>  (1619) 
65135

>  <i_m_ct_format>  (1619) 
2

>  <i_m_source_file_index>  (1619) 
2325

>  <i_qp_#NandO>  (1619) 
6

>  <i_qp_#acid>  (1619) 
0

>  <i_qp_#amide>  (1619) 
0

>  <i_qp_#amidine>  (1619) 
0

>  <i_qp_#amine>  (1619) 
1

>  <i_qp_#in34>  (1619) 
0

>  <i_qp_#in56>  (1619) 
22

>  <i_qp_#metab>  (1619) 
5

>  <i_qp_#nonHatm>  (1619) 
34

>  <i_qp_#noncon>  (1619) 
0

>  <i_qp_#ringatoms>  (1619) 
22

>  <i_qp_#rotor>  (1619) 
8

>  <i_qp_#rtvFG>  (1619) 
0

>  <i_qp_#stars>  (1619) 
0

>  <i_qp_CNS>  (1619) 
1

>  <i_qp_HumanOralAbsorption>  (1619) 
1

>  <i_qp_RuleOfFive>  (1619) 
0

>  <i_qp_RuleOfThree>  (1619) 
1

>  <i_sd_BIOSOLVEIT.INFINISEE\_RESULT\_RANK>  (1619) 
13589

>  <i_sd_version>  (1619) 
0

>  <b_lp_Chiralities_Consistent>  (1619) 
1

>  <b_sd_chiral_flag>  (1619) 
0

>  <canonical_id>  (1619) 
ATP-HTVS-FE5B2EC4EA23

>  <compound_code>  (1619) 
74370

>  <title>  (1619) 
rxn502b____EMOL43478294____EMOL44466703____EMOL2873214

>  <variant>  (1619) 
74370-1

>  <source_file>  (1619) 
运行/运行/ATP-VSW/ATP-VSW-DOCK_HTVS_1-002_lib.maegz

>  <canonical_smiles>  (1619) 
C[NH+](C)Cc1cccc(CNc2cc3ccccc3nc2NC(=O)c2cc(F)ccc2C#N)c1

>  <scaffold>  (1619) 
O=C(Nc1nc2ccccc2cc1NCc1ccccc1)c1ccccc1

>  <molecular_formula>  (1619) 
C27H25FN5O+

$$$$
ATP-HTVS-FE5F78CE8672
     RDKit          3D

 56 58  0  0  0  0  0  0  0  0999 V2000
  198.0825  183.3294  158.8302 O   0  0  0  0  0  0  0  0  0  0  0  0
  196.8407  183.8561  159.1437 C   0  0  0  0  0  0  0  0  0  0  0  0
  195.6891  183.1261  158.7637 C   0  0  0  0  0  0  0  0  0  0  0  0
  194.4171  183.6229  159.0979 C   0  0  0  0  0  0  0  0  0  0  0  0
  194.3450  184.8246  159.8283 C   0  0  0  0  0  0  0  0  0  0  0  0
  195.4229  185.5367  160.1962 N   0  0  0  0  0  0  0  0  0  0  0  0
  196.6365  185.0683  159.8503 C   0  0  0  0  0  0  0  0  0  0  0  0
  195.8101  181.8194  158.0045 C   0  0  1  0  0  0  0  0  0  0  0  0
  195.9500  182.0873  156.5615 N   0  0  1  0  0  0  0  0  0  0  0  0
  196.6181  181.0207  155.7898 C   0  0  1  0  0  0  0  0  0  0  0  0
  196.9570  181.4800  154.3806 C   0  0  0  0  0  0  0  0  0  0  0  0
  197.4953  182.7594  154.1328 C   0  0  0  0  0  0  0  0  0  0  0  0
  197.8047  183.1566  152.8132 C   0  0  0  0  0  0  0  0  0  0  0  0
  197.6131  182.2866  151.7218 C   0  0  0  0  0  0  0  0  0  0  0  0
  197.0670  180.9973  151.9879 C   0  0  0  0  0  0  0  0  0  0  0  0
  196.7473  180.6034  153.2984 C   0  0  0  0  0  0  0  0  0  0  0  0
  197.9853  182.7348  150.2935 C   0  0  2  0  0  0  0  0  0  0  0  0
  196.9806  183.7980  149.8084 C   0  0  2  0  0  0  0  0  0  0  0  0
  197.9677  181.5688  149.2827 C   0  0  2  0  0  0  0  0  0  0  0  0
  199.4108  183.3339  150.2629 C   0  0  2  0  0  0  0  0  0  0  0  0
  199.2507  184.0738  159.1581 C   0  0  1  0  0  0  0  0  0  0  0  0
  200.4817  183.1933  159.2055 C   0  0  0  0  0  0  0  0  0  0  0  0
  200.8554  182.4156  158.0901 C   0  0  0  0  0  0  0  0  0  0  0  0
  201.9943  181.5882  158.1624 C   0  0  0  0  0  0  0  0  0  0  0  0
  202.7593  181.5403  159.3461 C   0  0  0  0  0  0  0  0  0  0  0  0
  202.3893  182.3184  160.4586 C   0  0  0  0  0  0  0  0  0  0  0  0
  201.2559  183.1466  160.3849 C   0  0  0  0  0  0  0  0  0  0  0  0
  195.0211  182.2790  156.1574 H   0  0  0  0  0  0  0  0  0  0  0  0
  193.5138  183.0977  158.8205 H   0  0  0  0  0  0  0  0  0  0  0  0
  193.3873  185.2260  160.1294 H   0  0  0  0  0  0  0  0  0  0  0  0
  197.4424  185.7064  160.1797 H   0  0  0  0  0  0  0  0  0  0  0  0
  196.6694  181.2690  158.3910 H   0  0  0  0  0  0  0  0  0  0  0  0
  194.9279  181.1936  158.1671 H   0  0  0  0  0  0  0  0  0  0  0  0
  197.5417  180.7020  156.2733 H   0  0  0  0  0  0  0  0  0  0  0  0
  195.9661  180.1484  155.7391 H   0  0  0  0  0  0  0  0  0  0  0  0
  197.6851  183.4534  154.9437 H   0  0  0  0  0  0  0  0  0  0  0  0
  198.2069  184.1488  152.6585 H   0  0  0  0  0  0  0  0  0  0  0  0
  196.8896  180.2679  151.2147 H   0  0  0  0  0  0  0  0  0  0  0  0
  196.3450  179.6164  153.4596 H   0  0  0  0  0  0  0  0  0  0  0  0
  197.1807  184.0898  148.7764 H   0  0  0  0  0  0  0  0  0  0  0  0
  197.0168  184.7040  150.4153 H   0  0  0  0  0  0  0  0  0  0  0  0
  195.9601  183.4207  149.8444 H   0  0  0  0  0  0  0  0  0  0  0  0
  196.9771  181.1217  149.2019 H   0  0  0  0  0  0  0  0  0  0  0  0
  198.6726  180.7858  149.5671 H   0  0  0  0  0  0  0  0  0  0  0  0
  198.2474  181.9049  148.2797 H   0  0  0  0  0  0  0  0  0  0  0  0
  199.7008  183.6207  149.2510 H   0  0  0  0  0  0  0  0  0  0  0  0
  200.1463  182.6131  150.6162 H   0  0  0  0  0  0  0  0  0  0  0  0
  199.5108  184.2312  150.8740 H   0  0  0  0  0  0  0  0  0  0  0  0
  199.3932  184.8571  158.4144 H   0  0  0  0  0  0  0  0  0  0  0  0
  199.1827  184.5410  160.1281 H   0  0  0  0  0  0  0  0  0  0  0  0
  200.2592  182.4410  157.1882 H   0  0  0  0  0  0  0  0  0  0  0  0
  202.2775  180.9813  157.3145 H   0  0  0  0  0  0  0  0  0  0  0  0
  203.6282  180.9022  159.4028 H   0  0  0  0  0  0  0  0  0  0  0  0
  202.9628  182.2812  161.3730 H   0  0  0  0  0  0  0  0  0  0  0  0
  200.9763  183.7297  161.2501 H   0  0  0  0  0  0  0  0  0  0  0  0
  196.5105  182.9158  156.4664 H   0  0  0  0  0  0  0  0  0  0  0  0
  1  2  1  0
  1 21  1  0
  2  3  1  0
  2  7  2  0
  3  4  2  0
  3  8  1  0
  4  5  1  0
  4 29  1  0
  5  6  2  0
  5 30  1  0
  6  7  1  0
  7 31  1  0
  8  9  1  0
  8 32  1  1
  8 33  1  0
  9 10  1  0
  9 28  1  6
  9 56  1  0
 10 11  1  0
 10 34  1  1
 10 35  1  0
 11 12  1  0
 11 16  2  0
 12 13  2  0
 12 36  1  0
 13 14  1  0
 13 37  1  0
 14 15  2  0
 17 14  1  1
 15 16  1  0
 15 38  1  0
 16 39  1  0
 17 18  1  0
 17 19  1  0
 17 20  1  0
 18 40  1  6
 18 41  1  0
 18 42  1  0
 19 43  1  6
 19 44  1  0
 19 45  1  0
 20 46  1  6
 20 47  1  0
 20 48  1  0
 21 22  1  0
 21 49  1  6
 21 50  1  0
 22 23  2  0
 22 27  1  0
 23 24  1  0
 23 51  1  0
 24 25  2  0
 24 52  1  0
 25 26  1  0
 25 53  1  0
 26 27  2  0
 26 54  1  0
 27 55  1  0
M  CHG  1   9   1
M  END
>  <s_epik_cmdline>  (1620) 
J2VwaWtfcHl0aG9uJywgJy1waCcsICc3LjAwMDAwMCcsICctcGh0JywgJzIuMDAwMDAwJywgJy1tcycsICcxNicsICctdG4nLCAnOCcsICctbWEnLCAnMjAwJywgJy1pbWFlJywgJzxpbmZpbGUubWFlPicsICctb21hZScsICc8b3V0ZmlsZS5tYWU+Jw==

>  <s_epik_input>  (1620) 
W2NIXTFbY0hdW2NIXVtjSF1bY0hdYzFbQ0gyXU9jMmMoW2NIXVtjSF1uW2NIXTIpW0NIMl1bTkhdW0NIMl1jM1tjSF1bY0hdYyhbY0hdW2NIXTMpQyhbQ0gzXSkoW0NIM10pW0NIM10=

>  <s_i_glide_gridfile>  (1620) 
ATP-Grid

>  <s_lp_Force_Field>  (1620) 
OPLS_2005

>  <s_lp_Variant>  (1620) 
m_270004bbb____10120114____7547110-1

>  <s_lp_label>  (1620) 
2103_sdstereoexpander_1_neutralizer_1_epik_1_stereoizer_1

>  <s_m_source_file>  (1620) 
ATP-VSW-LIGPREP-003-in.maegz

>  <s_sd_BIOSOLVEIT.INFINISEE\_QUERY\_NAME>  (1620) 
Ref-Lig

>  <s_sd_BIOSOLVEIT.INFINISEE\_QUERY\_SMILES>  (1620) 
S(c1nc2c(cc1C[NH2+]Cc3ccc(cc3)C[NH+](C)C)cccc2)Cc4ccccc4

>  <s_sd_BIOSOLVEIT.INFINISEE\_REACTION\_NAME>  (1620) 
m_270004bbb

>  <s_sd_BIOSOLVEIT.INFINISEE\_REAGENT1\_SMILES>  (1620) 
[R1*]NCc1c(OCc2ccccc2)cncc1

>  <s_sd_BIOSOLVEIT.INFINISEE\_REAGENT2\_SMILES>  (1620) 
[R1*]Cc1ccc(cc1)C(C)(C)C

>  <s_sd_BIOSOLVEIT.INFINISEE\_SPACE>  (1620) 
REALSpace_44bn_2023-08

>  <s_vsw_compound_code>  (1620) 
67267

>  <s_vsw_variant>  (1620) 
67267-1

>  <r_epik_Charging_Adjusted_Penalty>  (1620) 
0.244080220178584

>  <r_epik_Ionization_Penalty>  (1620) 
0.15379999999999999

>  <r_epik_Ionization_Penalty_Charging>  (1620) 
0.1537

>  <r_epik_Ionization_Penalty_Neutral>  (1620) 
0.00020000000000000001

>  <r_epik_State_Penalty>  (1620) 
0.090399999999999994

>  <r_i_docking_score>  (1620) 
-4.9571105559827702

>  <r_i_glide_ecoul>  (1620) 
-10.6730184555054

>  <r_i_glide_eff_state_penalty>  (1620) 
0.090399999999999994

>  <r_i_glide_einternal>  (1620) 
4.5524411201477104

>  <r_i_glide_emodel>  (1620) 
-58.328271123065001

>  <r_i_glide_energy>  (1620) 
-41.399104118347203

>  <r_i_glide_erotb>  (1620) 
1.0279794131156801

>  <r_i_glide_esite>  (1620) 
-0.089294803178028806

>  <r_i_glide_evdw>  (1620) 
-30.7260856628418

>  <r_i_glide_gscore>  (1620) 
-5.04751055598277

>  <r_i_glide_hbond>  (1620) 
-0.20000000000000001

>  <r_i_glide_ligand_efficiency>  (1620) 
-0.18359668725862099

>  <r_i_glide_ligand_efficiency_ln>  (1620) 
-1.1539336130781701

>  <r_i_glide_ligand_efficiency_sa>  (1620) 
-0.55079006117075902

>  <r_i_glide_lipo>  (1620) 
-1.7046189780888901

>  <r_i_glide_metal>  (1620) 
-0

>  <r_i_glide_rewards>  (1620) 
-0.94431913636363496

>  <r_lp_Energy>  (1620) 
14.312169000000001

>  <r_lp_tautomer_probability>  (1620) 
1

>  <r_qp_ACxDN^.5/SA>  (1620) 
0.0059842000000000003

>  <r_qp_CIQPlogS>  (1620) 
-5.069

>  <r_qp_EA(eV)>  (1620) 
0.074999999999999997

>  <r_qp_FISA>  (1620) 
41.707999999999998

>  <r_qp_FOSA>  (1620) 
253.62200000000001

>  <r_qp_IP(eV)>  (1620) 
9.1539999999999999

>  <r_qp_Jm>  (1620) 
0.21774502041544699

>  <r_qp_PISA>  (1620) 
331.31999999999999

>  <r_qp_PSA>  (1620) 
32.283000000000001

>  <r_qp_PercentHumanOralAbsorption>  (1620) 
100

>  <r_qp_QPPCaco>  (1620) 
993.76199999999994

>  <r_qp_QPPMDCK>  (1620) 
543.61599999999999

>  <r_qp_QPlogBB>  (1620) 
0.115

>  <r_qp_QPlogHERG>  (1620) 
-5.9000000000000004

>  <r_qp_QPlogKhsa>  (1620) 
0.83999999999999997

>  <r_qp_QPlogKp>  (1620) 
-2.4159999999999999

>  <r_qp_QPlogPC16>  (1620) 
12.279999999999999

>  <r_qp_QPlogPo/w>  (1620) 
4.8499999999999996

>  <r_qp_QPlogPoct>  (1620) 
16.463999999999999

>  <r_qp_QPlogPw>  (1620) 
7.1580000000000004

>  <r_qp_QPlogS>  (1620) 
-3.8029999999999999

>  <r_qp_QPpolrz>  (1620) 
39.988

>  <r_qp_SASA>  (1620) 
626.64999999999998

>  <r_qp_SAamideO>  (1620) 
0

>  <r_qp_SAfluorine>  (1620) 
0

>  <r_qp_WPSA>  (1620) 
0

>  <r_qp_accptHB>  (1620) 
3.75

>  <r_qp_dip^2/V>  (1620) 
0.0027084000000000001

>  <r_qp_dipole>  (1620) 
1.8049999999999999

>  <r_qp_donorHB>  (1620) 
1

>  <r_qp_glob>  (1620) 
0.87258880000000005

>  <r_qp_mol_MW>  (1620) 
360.49799999999999

>  <r_qp_volume>  (1620) 
1202.2760000000001

>  <r_sd_BIOSOLVEIT.INFINISEE\_FTREES\_SIMILARITY>  (1620) 
0.90100000000000002

>  <r_sd_BIOSOLVEIT.LOGP>  (1620) 
4.2217000000000002

>  <r_sd_BIOSOLVEIT.MOLECULAR\_WEIGHT>  (1620) 
361.50599999999997

>  <r_sd_BIOSOLVEIT.TPSA>  (1620) 
38.729999999999997

>  <i_epik_Tot_Q>  (1620) 
1

>  <i_epik_Tot_abs_Q>  (1620) 
1

>  <i_f3d_flags>  (1620) 
0

>  <i_i_glide_confnum>  (1620) 
3

>  <i_i_glide_lignum>  (1620) 
782

>  <i_i_glide_posenum>  (1620) 
4

>  <i_i_glide_rotatable_bonds>  (1620) 
8

>  <i_lp_mmshare_version>  (1620) 
65135

>  <i_m_ct_format>  (1620) 
2

>  <i_m_source_file_index>  (1620) 
2103

>  <i_qp_#NandO>  (1620) 
3

>  <i_qp_#acid>  (1620) 
0

>  <i_qp_#amide>  (1620) 
0

>  <i_qp_#amidine>  (1620) 
0

>  <i_qp_#amine>  (1620) 
1

>  <i_qp_#in34>  (1620) 
0

>  <i_qp_#in56>  (1620) 
18

>  <i_qp_#metab>  (1620) 
7

>  <i_qp_#nonHatm>  (1620) 
27

>  <i_qp_#noncon>  (1620) 
0

>  <i_qp_#ringatoms>  (1620) 
18

>  <i_qp_#rotor>  (1620) 
8

>  <i_qp_#rtvFG>  (1620) 
0

>  <i_qp_#stars>  (1620) 
0

>  <i_qp_CNS>  (1620) 
1

>  <i_qp_HumanOralAbsorption>  (1620) 
3

>  <i_qp_RuleOfFive>  (1620) 
0

>  <i_qp_RuleOfThree>  (1620) 
1

>  <i_sd_BIOSOLVEIT.INFINISEE\_REAGENT1\_NAME>  (1620) 
10120114

>  <i_sd_BIOSOLVEIT.INFINISEE\_REAGENT2\_NAME>  (1620) 
7547110

>  <i_sd_BIOSOLVEIT.INFINISEE\_RESULT\_RANK>  (1620) 
97441

>  <i_sd_version>  (1620) 
0

>  <b_lp_Chiralities_Consistent>  (1620) 
1

>  <b_sd_chiral_flag>  (1620) 
0

>  <canonical_id>  (1620) 
ATP-HTVS-FE5F78CE8672

>  <compound_code>  (1620) 
67267

>  <title>  (1620) 
m_270004bbb____10120114____7547110

>  <variant>  (1620) 
67267-1

>  <source_file>  (1620) 
运行/运行/ATP-VSW/ATP-VSW-DOCK_HTVS_1-003_lib/ATP-VSW-DOCK_HTVS_1-003_lib.mae

>  <canonical_smiles>  (1620) 
CC(C)(C)c1ccc(C[NH2+]Cc2ccncc2OCc2ccccc2)cc1

>  <scaffold>  (1620) 
c1ccc(C[NH2+]Cc2ccncc2OCc2ccccc2)cc1

>  <molecular_formula>  (1620) 
C24H29N2O+

$$$$
ATP-HTVS-FE6FB0E22990
     RDKit          3D

 61 64  0  0  0  0  0  0  0  0999 V2000
  196.7453  178.6307  148.1320 Cl  0  0  0  0  0  0  0  0  0  0  0  0
  197.1679  179.0501  149.7495 C   0  0  0  0  0  0  0  0  0  0  0  0
  196.5476  180.1045  150.3207 N   0  0  0  0  0  0  0  0  0  0  0  0
  196.9086  180.4617  151.5715 C   0  0  0  0  0  0  0  0  0  0  0  0
  197.8650  179.7493  152.3274 C   0  0  0  0  0  0  0  0  0  0  0  0
  198.4899  178.6358  151.7365 C   0  0  0  0  0  0  0  0  0  0  0  0
  198.1392  178.2823  150.4200 C   0  0  0  0  0  0  0  0  0  0  0  0
  196.2145  181.6771  152.1591 C   0  0  1  0  0  0  0  0  0  0  0  0
  196.8648  182.9933  151.7006 C   0  0  0  0  0  0  0  0  0  0  0  0
  196.8837  183.2891  150.5069 O   0  0  0  0  0  0  0  0  0  0  0  0
  197.3425  183.7738  152.6817 N   0  0  0  0  0  0  0  0  0  0  0  0
  198.0561  185.0096  152.5855 C   0  0  0  0  0  0  0  0  0  0  0  0
  198.1826  185.8344  153.7350 C   0  0  0  0  0  0  0  0  0  0  0  0
  197.6044  185.4151  154.9431 N   0  0  0  0  0  0  0  0  0  0  0  0
  198.5202  185.1727  156.0474 C   0  0  1  0  0  0  0  0  0  0  0  0
  197.8438  184.7962  157.3384 C   0  0  0  0  0  0  0  0  0  0  0  0
  197.0320  183.6527  157.4002 C   0  0  0  0  0  0  0  0  0  0  0  0
  196.4453  183.2745  158.6256 C   0  0  0  0  0  0  0  0  0  0  0  0
  196.6586  184.0596  159.7808 C   0  0  0  0  0  0  0  0  0  0  0  0
  197.4412  185.2262  159.7045 C   0  0  0  0  0  0  0  0  0  0  0  0
  198.0372  185.5899  158.4871 C   0  0  0  0  0  0  0  0  0  0  0  0
  195.5622  182.0467  158.6960 C   0  0  1  0  0  0  0  0  0  0  0  0
  194.1945  182.2895  158.1120 N   0  0  1  0  0  0  0  0  0  0  0  0
  193.3131  181.1114  158.2820 C   0  0  2  0  0  0  0  0  0  0  0  0
  193.5547  183.5276  158.6453 C   0  0  2  0  0  0  0  0  0  0  0  0
  198.9036  187.0633  153.6333 C   0  0  0  0  0  0  0  0  0  0  0  0
  199.5342  187.3976  152.4047 C   0  0  0  0  0  0  0  0  0  0  0  0
  199.4061  186.5627  151.3518 N   0  0  0  0  0  0  0  0  0  0  0  0
  198.7028  185.4126  151.3909 C   0  0  0  0  0  0  0  0  0  0  0  0
  200.2856  188.5858  152.2741 C   0  0  0  0  0  0  0  0  0  0  0  0
  200.4157  189.4586  153.3702 C   0  0  0  0  0  0  0  0  0  0  0  0
  199.7767  189.1603  154.5839 C   0  0  0  0  0  0  0  0  0  0  0  0
  199.0022  187.9747  154.7080 C   0  0  0  0  0  0  0  0  0  0  0  0
  198.1145  180.0433  153.3356 H   0  0  0  0  0  0  0  0  0  0  0  0
  199.2209  178.0622  152.2856 H   0  0  0  0  0  0  0  0  0  0  0  0
  198.6018  177.4347  149.9372 H   0  0  0  0  0  0  0  0  0  0  0  0
  195.1730  181.6799  151.8536 H   0  0  0  0  0  0  0  0  0  0  0  0
  196.2089  181.5982  153.2470 H   0  0  0  0  0  0  0  0  0  0  0  0
  197.1493  183.4363  153.6135 H   0  0  0  0  0  0  0  0  0  0  0  0
  196.8917  184.7025  154.8552 H   0  0  0  0  0  0  0  0  0  0  0  0
  199.2080  184.3728  155.7699 H   0  0  0  0  0  0  0  0  0  0  0  0
  199.1152  186.0874  156.2507 H   0  0  0  0  0  0  0  0  0  0  0  0
  196.8476  183.0638  156.5176 H   0  0  0  0  0  0  0  0  0  0  0  0
  196.2099  183.7903  160.7302 H   0  0  0  0  0  0  0  0  0  0  0  0
  197.5963  185.8443  160.5777 H   0  0  0  0  0  0  0  0  0  0  0  0
  198.6523  186.4778  158.4460 H   0  0  0  0  0  0  0  0  0  0  0  0
  196.0639  181.2432  158.1537 H   0  0  0  0  0  0  0  0  0  0  0  0
  195.4727  181.7001  159.7303 H   0  0  0  0  0  0  0  0  0  0  0  0
  193.1609  180.8433  159.3242 H   0  0  0  0  0  0  0  0  0  0  0  0
  193.7199  180.2459  157.7631 H   0  0  0  0  0  0  0  0  0  0  0  0
  192.3433  181.3172  157.8305 H   0  0  0  0  0  0  0  0  0  0  0  0
  193.4299  183.4965  159.7344 H   0  0  0  0  0  0  0  0  0  0  0  0
  192.5716  183.6447  158.1949 H   0  0  0  0  0  0  0  0  0  0  0  0
  194.1140  184.4332  158.4196 H   0  0  0  0  0  0  0  0  0  0  0  0
  198.7122  184.8485  150.4699 H   0  0  0  0  0  0  0  0  0  0  0  0
  200.7585  188.8391  151.3351 H   0  0  0  0  0  0  0  0  0  0  0  0
  200.9939  190.3670  153.2738 H   0  0  0  0  0  0  0  0  0  0  0  0
  199.8744  189.8260  155.4277 H   0  0  0  0  0  0  0  0  0  0  0  0
  198.4871  187.7752  155.6399 H   0  0  0  0  0  0  0  0  0  0  0  0
  199.8679  186.8104  150.4765 H   0  0  0  0  0  0  0  0  0  0  0  0
  194.2572  182.4408  157.1438 H   0  0  0  0  0  0  0  0  0  0  0  0
  1  2  1  0
  2  3  2  0
  2  7  1  0
  3  4  1  0
  4  5  2  0
  4  8  1  0
  5  6  1  0
  5 34  1  0
  6  7  2  0
  6 35  1  0
  7 36  1  0
  8  9  1  0
  8 37  1  6
  8 38  1  0
  9 10  2  0
  9 11  1  0
 11 12  1  0
 11 39  1  0
 12 13  2  0
 12 29  1  0
 13 14  1  0
 13 26  1  0
 14 15  1  0
 14 40  1  0
 15 16  1  0
 15 41  1  6
 15 42  1  0
 16 17  2  0
 16 21  1  0
 17 18  1  0
 17 43  1  0
 18 19  2  0
 18 22  1  0
 19 20  1  0
 19 44  1  0
 20 21  2  0
 20 45  1  0
 21 46  1  0
 22 23  1  0
 22 47  1  6
 22 48  1  0
 23 24  1  0
 23 25  1  0
 23 61  1  6
 24 49  1  1
 24 50  1  0
 24 51  1  0
 25 52  1  1
 25 53  1  0
 25 54  1  0
 26 27  1  0
 26 33  2  0
 27 28  1  0
 27 30  2  0
 28 29  2  0
 28 60  1  0
 29 55  1  0
 30 31  1  0
 30 56  1  0
 31 32  2  0
 31 57  1  0
 32 33  1  0
 32 58  1  0
 33 59  1  0
M  CHG  2  23   1  28   1
M  END
>  <s_epik_cmdline>  (1621) 
J2VwaWtfcHl0aG9uJywgJy1waCcsICc3LjAwMDAwMCcsICctcGh0JywgJzIuMDAwMDAwJywgJy1tcycsICcxNicsICctdG4nLCAnOCcsICctbWEnLCAnMjAwJywgJy1pbWFlJywgJzxpbmZpbGUubWFlPicsICctb21hZScsICc8b3V0ZmlsZS5tYWU+Jw==

>  <s_epik_input>  (1621) 
Q2xjMW5jKFtjSF1bY0hdW2NIXTEpW0NIMl1DKD1PKVtOSF1jKFtjSF1uYyhjMjMpW2NIXVtjSF1bY0hdW2NIXTMpYzJbTkhdW0NIMl1jNFtjSF1jKFtjSF1bY0hdW2NIXTQpW0NIMl1OKFtDSDNdKVtDSDNd

>  <s_i_glide_gridfile>  (1621) 
ATP-Grid

>  <s_lp_Force_Field>  (1621) 
OPLS_2005

>  <s_lp_Variant>  (1621) 
rxn502b____EMOL4351685____EMOL30488121____EMOL2873214-1

>  <s_lp_label>  (1621) 
2590_sdstereoexpander_1_neutralizer_1_epik_1_stereoizer_1

>  <s_m_source_file>  (1621) 
ATP-VSW-LIGPREP-003-in.maegz

>  <s_sd_BIOSOLVEIT.INFINISEE\_QUERY\_NAME>  (1621) 
Ref-Lig

>  <s_sd_BIOSOLVEIT.INFINISEE\_QUERY\_SMILES>  (1621) 
S(c1nc2c(cc1C[NH2+]Cc3ccc(cc3)C[NH+](C)C)cccc2)Cc4ccccc4

>  <s_sd_BIOSOLVEIT.INFINISEE\_REACTION\_NAME>  (1621) 
rxn502b

>  <s_sd_BIOSOLVEIT.INFINISEE\_REAGENT1\_NAME>  (1621) 
EMOL4351685

>  <s_sd_BIOSOLVEIT.INFINISEE\_REAGENT1\_SMILES>  (1621) 
Clc1nc(ccc1)CC(=O)O

>  <s_sd_BIOSOLVEIT.INFINISEE\_REAGENT2\_NAME>  (1621) 
EMOL30488121

>  <s_sd_BIOSOLVEIT.INFINISEE\_REAGENT2\_SMILES>  (1621) 
Brc1c(N)cnc2c1cccc2

>  <s_sd_BIOSOLVEIT.INFINISEE\_REAGENT3\_NAME>  (1621) 
EMOL2873214

>  <s_sd_BIOSOLVEIT.INFINISEE\_REAGENT3\_SMILES>  (1621) 
N(Cc1cc(ccc1)CN)(C)C

>  <s_sd_BIOSOLVEIT.INFINISEE\_SPACE>  (1621) 
eXplore_7tr_2022-12

>  <s_vsw_compound_code>  (1621) 
82851

>  <s_vsw_variant>  (1621) 
82851-1

>  <r_epik_Charging_Adjusted_Penalty>  (1621) 
0.14586973563397701

>  <r_epik_Ionization_Penalty>  (1621) 
0.072900000000000006

>  <r_epik_Ionization_Penalty_Charging>  (1621) 
0.072900000000000006

>  <r_epik_Ionization_Penalty_Neutral>  (1621) 
0

>  <r_epik_State_Penalty>  (1621) 
0.072900000000000006

>  <r_i_docking_score>  (1621) 
-4.7968813911865

>  <r_i_glide_ecoul>  (1621) 
-11.1718587875366

>  <r_i_glide_eff_state_penalty>  (1621) 
0.072900000000000006

>  <r_i_glide_einternal>  (1621) 
1.6297188997268699

>  <r_i_glide_emodel>  (1621) 
-69.312867345436104

>  <r_i_glide_energy>  (1621) 
-47.965312004089398

>  <r_i_glide_erotb>  (1621) 
0.66055594750384905

>  <r_i_glide_esite>  (1621) 
-0.14027378834270099

>  <r_i_glide_evdw>  (1621) 
-36.793453216552699

>  <r_i_glide_gscore>  (1621) 
-4.8697813911864998

>  <r_i_glide_hbond>  (1621) 
-0.20000000000000001

>  <r_i_glide_ligand_efficiency>  (1621) 
-0.145360042157167

>  <r_i_glide_ligand_efficiency_ln>  (1621) 
-1.06680158447728

>  <r_i_glide_ligand_efficiency_sa>  (1621) 
-0.46624732488534099

>  <r_i_glide_lipo>  (1621) 
-1.4154265259349801

>  <r_i_glide_metal>  (1621) 
-0

>  <r_i_glide_rewards>  (1621) 
-0.25918554545454398

>  <r_lp_Energy>  (1621) 
32.980178000000002

>  <r_qp_ACxDN^.5/SA>  (1621) 
0.014286399999999999

>  <r_qp_CIQPlogS>  (1621) 
-5.7869999999999999

>  <r_qp_EA(eV)>  (1621) 
0.99199999999999999

>  <r_qp_FISA>  (1621) 
71.141000000000005

>  <r_qp_FOSA>  (1621) 
208.59899999999999

>  <r_qp_IP(eV)>  (1621) 
8.5719999999999992

>  <r_qp_Jm>  (1621) 
0.0261114196987286

>  <r_qp_PISA>  (1621) 
426.08199999999999

>  <r_qp_PSA>  (1621) 
71.125

>  <r_qp_PercentHumanOralAbsorption>  (1621) 
100

>  <r_qp_QPPCaco>  (1621) 
522.596

>  <r_qp_QPPMDCK>  (1621) 
430.64499999999998

>  <r_qp_QPlogBB>  (1621) 
-0.14399999999999999

>  <r_qp_QPlogHERG>  (1621) 
-7.2839999999999998

>  <r_qp_QPlogKhsa>  (1621) 
0.58499999999999996

>  <r_qp_QPlogKp>  (1621) 
-2.6240000000000001

>  <r_qp_QPlogPC16>  (1621) 
15.425000000000001

>  <r_qp_QPlogPo/w>  (1621) 
4.4249999999999998

>  <r_qp_QPlogPoct>  (1621) 
23.625

>  <r_qp_QPlogPw>  (1621) 
13.452999999999999

>  <r_qp_QPlogS>  (1621) 
-4.6219999999999999

>  <r_qp_QPpolrz>  (1621) 
48.780999999999999

>  <r_qp_SASA>  (1621) 
742.42600000000004

>  <r_qp_SAamideO>  (1621) 
0

>  <r_qp_SAfluorine>  (1621) 
0

>  <r_qp_WPSA>  (1621) 
36.603999999999999

>  <r_qp_accptHB>  (1621) 
7.5

>  <r_qp_dip^2/V>  (1621) 
0.022563699999999999

>  <r_qp_dipole>  (1621) 
5.6189999999999998

>  <r_qp_donorHB>  (1621) 
2

>  <r_qp_glob>  (1621) 
0.81495410000000001

>  <r_qp_mol_MW>  (1621) 
459.97699999999998

>  <r_qp_volume>  (1621) 
1399.3689999999999

>  <r_sd_BIOSOLVEIT.INFINISEE\_FTREES\_SIMILARITY>  (1621) 
0.91100000000000003

>  <r_sd_BIOSOLVEIT.LOGP>  (1621) 
3.7210000000000001

>  <r_sd_BIOSOLVEIT.MOLECULAR\_WEIGHT>  (1621) 
460.98599999999999

>  <r_sd_BIOSOLVEIT.TPSA>  (1621) 
71.349999999999994

>  <i_epik_Tot_Q>  (1621) 
2

>  <i_epik_Tot_abs_Q>  (1621) 
2

>  <i_f3d_flags>  (1621) 
0

>  <i_i_glide_confnum>  (1621) 
7

>  <i_i_glide_lignum>  (1621) 
1173

>  <i_i_glide_posenum>  (1621) 
12

>  <i_i_glide_rotatable_bonds>  (1621) 
9

>  <i_lp_mmshare_version>  (1621) 
65135

>  <i_m_ct_format>  (1621) 
2

>  <i_m_source_file_index>  (1621) 
2590

>  <i_qp_#NandO>  (1621) 
6

>  <i_qp_#acid>  (1621) 
0

>  <i_qp_#amide>  (1621) 
0

>  <i_qp_#amidine>  (1621) 
0

>  <i_qp_#amine>  (1621) 
1

>  <i_qp_#in34>  (1621) 
0

>  <i_qp_#in56>  (1621) 
22

>  <i_qp_#metab>  (1621) 
7

>  <i_qp_#nonHatm>  (1621) 
33

>  <i_qp_#noncon>  (1621) 
0

>  <i_qp_#ringatoms>  (1621) 
22

>  <i_qp_#rotor>  (1621) 
8

>  <i_qp_#rtvFG>  (1621) 
0

>  <i_qp_#stars>  (1621) 
0

>  <i_qp_CNS>  (1621) 
1

>  <i_qp_HumanOralAbsorption>  (1621) 
3

>  <i_qp_RuleOfFive>  (1621) 
0

>  <i_qp_RuleOfThree>  (1621) 
1

>  <i_sd_BIOSOLVEIT.INFINISEE\_RESULT\_RANK>  (1621) 
40468

>  <i_sd_version>  (1621) 
0

>  <b_lp_Chiralities_Consistent>  (1621) 
1

>  <b_sd_chiral_flag>  (1621) 
0

>  <canonical_id>  (1621) 
ATP-HTVS-FE6FB0E22990

>  <compound_code>  (1621) 
82851

>  <title>  (1621) 
rxn502b____EMOL4351685____EMOL30488121____EMOL2873214

>  <variant>  (1621) 
82851-1

>  <source_file>  (1621) 
运行/运行/ATP-VSW/ATP-VSW-DOCK_HTVS_1-003_lib/ATP-VSW-DOCK_HTVS_1-003_lib.mae

>  <canonical_smiles>  (1621) 
C[NH+](C)Cc1cccc(CNc2c(NC(=O)Cc3cccc(Cl)n3)c[nH+]c3ccccc23)c1

>  <scaffold>  (1621) 
O=C(Cc1ccccn1)Nc1c[nH+]c2ccccc2c1NCc1ccccc1

>  <molecular_formula>  (1621) 
C26H28ClN5O+2

$$$$
ATP-HTVS-FE9A1A55DD78
     RDKit          3D

 57 60  0  0  0  0  0  0  0  0999 V2000
  197.3189  182.1590  154.8463 O   0  0  0  0  0  0  0  0  0  0  0  0
  197.0420  181.2599  155.6187 C   0  0  0  0  0  0  0  0  0  0  0  0
  196.5662  181.4227  156.8853 N   0  0  0  0  0  0  0  0  0  0  0  0
  196.3128  182.6378  157.5635 C   0  0  0  0  0  0  0  0  0  0  0  0
  195.2847  182.7164  158.5409 C   0  0  0  0  0  0  0  0  0  0  0  0
  195.0484  183.9664  159.1889 C   0  0  0  0  0  0  0  0  0  0  0  0
  195.7769  185.1151  158.8019 C   0  0  0  0  0  0  0  0  0  0  0  0
  196.7066  185.0027  157.7520 C   0  0  0  0  0  0  0  0  0  0  0  0
  197.0356  183.7654  157.2140 C   0  0  0  0  0  0  0  0  0  0  0  0
  195.5628  186.4677  159.4980 C   0  0  1  0  0  0  0  0  0  0  0  0
  196.8045  187.0359  160.1284 N   0  0  1  0  0  0  0  0  0  0  0  0
  197.9571  187.2925  159.2255 C   0  0  2  0  0  0  0  0  0  0  0  0
  196.5144  188.2653  160.9198 C   0  0  2  0  0  0  0  0  0  0  0  0
  197.1946  179.8080  155.1591 C   0  0  1  0  0  0  0  0  0  0  0  0
  198.4337  179.6195  154.4166 N   0  0  0  0  0  0  0  0  0  0  0  0
  199.7144  179.6017  154.9598 C   0  0  0  0  0  0  0  0  0  0  0  0
  200.5768  179.3827  153.8501 C   0  0  0  0  0  0  0  0  0  0  0  0
  199.8608  179.2946  152.6766 N   0  0  0  0  0  0  0  0  0  0  0  0
  198.5966  179.4243  153.0848 C   0  0  0  0  0  0  0  0  0  0  0  0
  197.4267  179.3677  152.1369 C   0  0  1  0  0  0  0  0  0  0  0  0
  197.7092  178.6721  150.8146 C   0  0  0  0  0  0  0  0  0  0  0  0
  197.3080  179.2728  149.6038 C   0  0  0  0  0  0  0  0  0  0  0  0
  197.5607  178.6256  148.3790 C   0  0  0  0  0  0  0  0  0  0  0  0
  198.2105  177.3756  148.3607 C   0  0  0  0  0  0  0  0  0  0  0  0
  198.6023  176.7652  149.5675 C   0  0  0  0  0  0  0  0  0  0  0  0
  198.3476  177.4088  150.7905 C   0  0  0  0  0  0  0  0  0  0  0  0
  201.9674  179.2969  154.0776 C   0  0  0  0  0  0  0  0  0  0  0  0
  202.4799  179.4433  155.3823 C   0  0  0  0  0  0  0  0  0  0  0  0
  201.6118  179.6741  156.4692 C   0  0  0  0  0  0  0  0  0  0  0  0
  200.2211  179.7525  156.2639 C   0  0  0  0  0  0  0  0  0  0  0  0
  196.3121  180.5273  157.3229 H   0  0  0  0  0  0  0  0  0  0  0  0
  194.6683  181.8651  158.7758 H   0  0  0  0  0  0  0  0  0  0  0  0
  194.2454  184.0384  159.9202 H   0  0  0  0  0  0  0  0  0  0  0  0
  197.2017  185.8356  157.2804 H   0  0  0  0  0  0  0  0  0  0  0  0
  197.8583  183.7516  156.5146 H   0  0  0  0  0  0  0  0  0  0  0  0
  195.1502  187.1611  158.7681 H   0  0  0  0  0  0  0  0  0  0  0  0
  194.7903  186.3463  160.2699 H   0  0  0  0  0  0  0  0  0  0  0  0
  197.6192  187.8967  158.3860 H   0  0  0  0  0  0  0  0  0  0  0  0
  198.3918  186.3775  158.9084 H   0  0  0  0  0  0  0  0  0  0  0  0
  198.7847  187.7918  159.7309 H   0  0  0  0  0  0  0  0  0  0  0  0
  196.1045  189.0510  160.2759 H   0  0  0  0  0  0  0  0  0  0  0  0
  197.4467  188.6484  161.3470 H   0  0  0  0  0  0  0  0  0  0  0  0
  195.8139  188.0801  161.7476 H   0  0  0  0  0  0  0  0  0  0  0  0
  197.1737  179.1226  156.0022 H   0  0  0  0  0  0  0  0  0  0  0  0
  196.3285  179.5968  154.5452 H   0  0  0  0  0  0  0  0  0  0  0  0
  196.5991  178.8207  152.5833 H   0  0  0  0  0  0  0  0  0  0  0  0
  197.0793  180.3864  151.9639 H   0  0  0  0  0  0  0  0  0  0  0  0
  196.8107  180.2318  149.6107 H   0  0  0  0  0  0  0  0  0  0  0  0
  197.2651  179.0920  147.4518 H   0  0  0  0  0  0  0  0  0  0  0  0
  198.4071  176.8836  147.4195 H   0  0  0  0  0  0  0  0  0  0  0  0
  199.1000  175.8053  149.5577 H   0  0  0  0  0  0  0  0  0  0  0  0
  198.6514  176.9369  151.7122 H   0  0  0  0  0  0  0  0  0  0  0  0
  202.6331  179.1182  153.2456 H   0  0  0  0  0  0  0  0  0  0  0  0
  203.5441  179.3696  155.5542 H   0  0  0  0  0  0  0  0  0  0  0  0
  202.0178  179.7745  157.4639 H   0  0  0  0  0  0  0  0  0  0  0  0
  199.5476  179.9223  157.0907 H   0  0  0  0  0  0  0  0  0  0  0  0
  197.1145  186.3431  160.7991 H   0  0  0  0  0  0  0  0  0  0  0  0
  1  2  2  0
  2  3  1  0
  2 14  1  0
  3  4  1  0
  3 31  1  0
  4  5  1  0
  4  9  2  0
  5  6  2  0
  5 32  1  0
  6  7  1  0
  6 33  1  0
  7  8  2  0
  7 10  1  0
  8  9  1  0
  8 34  1  0
  9 35  1  0
 10 11  1  0
 10 36  1  6
 10 37  1  0
 11 12  1  0
 11 13  1  0
 11 57  1  1
 12 38  1  6
 12 39  1  0
 12 40  1  0
 13 41  1  6
 13 42  1  0
 13 43  1  0
 14 15  1  0
 14 44  1  1
 14 45  1  0
 15 16  1  0
 15 19  1  0
 16 17  1  0
 16 30  2  0
 17 18  1  0
 17 27  2  0
 18 19  2  0
 19 20  1  0
 20 21  1  0
 20 46  1  1
 20 47  1  0
 21 22  2  0
 21 26  1  0
 22 23  1  0
 22 48  1  0
 23 24  2  0
 23 49  1  0
 24 25  1  0
 24 50  1  0
 25 26  2  0
 25 51  1  0
 26 52  1  0
 27 28  1  0
 27 53  1  0
 28 29  2  0
 28 54  1  0
 29 30  1  0
 29 55  1  0
 30 56  1  0
M  CHG  1  11   1
M  END
>  <s_epik_cmdline>  (1622) 
J2VwaWtfcHl0aG9uJywgJy1waCcsICc3LjAwMDAwMCcsICctcGh0JywgJzIuMDAwMDAwJywgJy1tcycsICcxNicsICctdG4nLCAnOCcsICctbWEnLCAnMjAwJywgJy1pbWFlJywgJzxpbmZpbGUubWFlPicsICctb21hZScsICc8b3V0ZmlsZS5tYWU+Jw==

>  <s_epik_input>  (1622) 
W0NIM11OKFtDSDNdKVtDSDJdYyhbY0hdW2NIXTEpW2NIXVtjSF1jMVtOSF1DKD1PKVtDSDJdbjJjKG5jKGMyMylbY0hdW2NIXVtjSF1bY0hdMylbQ0gyXWM0W2NIXVtjSF1bY0hdW2NIXVtjSF00

>  <s_i_glide_gridfile>  (1622) 
ATP-Grid

>  <s_lp_Force_Field>  (1622) 
OPLS_2005

>  <s_lp_Variant>  (1622) 
m_11bba____4862800____140639-1

>  <s_lp_label>  (1622) 
1757_sdstereoexpander_1_neutralizer_1_epik_1_stereoizer_1

>  <s_m_source_file>  (1622) 
ATP-VSW-LIGPREP-003-in.maegz

>  <s_sd_BIOSOLVEIT.INFINISEE\_QUERY\_NAME>  (1622) 
Ref-Lig

>  <s_sd_BIOSOLVEIT.INFINISEE\_QUERY\_SMILES>  (1622) 
S(c1nc2c(cc1C[NH2+]Cc3ccc(cc3)C[NH+](C)C)cccc2)Cc4ccccc4

>  <s_sd_BIOSOLVEIT.INFINISEE\_REACTION\_NAME>  (1622) 
m_11bba

>  <s_sd_BIOSOLVEIT.INFINISEE\_REAGENT1\_SMILES>  (1622) 
[R1*]Nc1ccc(cc1)CN(C)C

>  <s_sd_BIOSOLVEIT.INFINISEE\_REAGENT2\_SMILES>  (1622) 
[R1*]C(=O)CN1c2c(N=C1Cc3ccccc3)cccc2

>  <s_sd_BIOSOLVEIT.INFINISEE\_SPACE>  (1622) 
REALSpace_44bn_2023-08

>  <s_vsw_compound_code>  (1622) 
56195

>  <s_vsw_variant>  (1622) 
56195-1

>  <r_epik_Charging_Adjusted_Penalty>  (1622) 
0.17128526687955201

>  <r_epik_Ionization_Penalty>  (1622) 
0.1263

>  <r_epik_Ionization_Penalty_Charging>  (1622) 
0.044999999999999998

>  <r_epik_Ionization_Penalty_Neutral>  (1622) 
0.081299999999999997

>  <r_epik_State_Penalty>  (1622) 
0.1263

>  <r_i_docking_score>  (1622) 
-4.57127764880107

>  <r_i_glide_ecoul>  (1622) 
-9.0154714584350604

>  <r_i_glide_eff_state_penalty>  (1622) 
0.1263

>  <r_i_glide_einternal>  (1622) 
4.89778804779053

>  <r_i_glide_emodel>  (1622) 
-55.166226968873502

>  <r_i_glide_energy>  (1622) 
-41.991625785827601

>  <r_i_glide_erotb>  (1622) 
0.85940136542613299

>  <r_i_glide_esite>  (1622) 
-0.183905363954361

>  <r_i_glide_evdw>  (1622) 
-32.976154327392599

>  <r_i_glide_gscore>  (1622) 
-4.6975776488010696

>  <r_i_glide_hbond>  (1622) 
-0.16

>  <r_i_glide_ligand_efficiency>  (1622) 
-0.15237592162670199

>  <r_i_glide_ligand_efficiency_ln>  (1622) 
-1.0386440898669

>  <r_i_glide_ligand_efficiency_sa>  (1622) 
-0.473467416266382

>  <r_i_glide_lipo>  (1622) 
-1.5183050112522301

>  <r_i_glide_metal>  (1622) 
-0

>  <r_i_glide_rewards>  (1622) 
-0.69364020388572001

>  <r_lp_Energy>  (1622) 
25.330234000000001

>  <r_qp_ACxDN^.5/SA>  (1622) 
0.0079333000000000008

>  <r_qp_CIQPlogS>  (1622) 
-5.1269999999999998

>  <r_qp_EA(eV)>  (1622) 
0.33400000000000002

>  <r_qp_FISA>  (1622) 
48.369999999999997

>  <r_qp_FOSA>  (1622) 
237.53800000000001

>  <r_qp_IP(eV)>  (1622) 
8.875

>  <r_qp_Jm>  (1622) 
0.010378964394892999

>  <r_qp_PISA>  (1622) 
470.39400000000001

>  <r_qp_PSA>  (1622) 
53.826999999999998

>  <r_qp_PercentHumanOralAbsorption>  (1622) 
100

>  <r_qp_QPPCaco>  (1622) 
859.226

>  <r_qp_QPPMDCK>  (1622) 
464.524

>  <r_qp_QPlogBB>  (1622) 
0.014

>  <r_qp_QPlogHERG>  (1622) 
-8.0180000000000007

>  <r_qp_QPlogKhsa>  (1622) 
0.80600000000000005

>  <r_qp_QPlogKp>  (1622) 
-2.1440000000000001

>  <r_qp_QPlogPC16>  (1622) 
14.797000000000001

>  <r_qp_QPlogPo/w>  (1622) 
4.9489999999999998

>  <r_qp_QPlogPoct>  (1622) 
20.690999999999999

>  <r_qp_QPlogPw>  (1622) 
10.898

>  <r_qp_QPlogS>  (1622) 
-5.4400000000000004

>  <r_qp_QPpolrz>  (1622) 
48.039999999999999

>  <r_qp_SASA>  (1622) 
756.303

>  <r_qp_SAamideO>  (1622) 
0

>  <r_qp_SAfluorine>  (1622) 
0

>  <r_qp_WPSA>  (1622) 
0

>  <r_qp_accptHB>  (1622) 
6

>  <r_qp_dip^2/V>  (1622) 
0.018603399999999999

>  <r_qp_dipole>  (1622) 
5.0190000000000001

>  <r_qp_donorHB>  (1622) 
1

>  <r_qp_glob>  (1622) 
0.78270530000000005

>  <r_qp_mol_MW>  (1622) 
398.50700000000001

>  <r_qp_volume>  (1622) 
1354.2329999999999

>  <r_sd_BIOSOLVEIT.INFINISEE\_FTREES\_SIMILARITY>  (1622) 
0.90400000000000003

>  <r_sd_BIOSOLVEIT.LOGP>  (1622) 
2.9102999999999999

>  <r_sd_BIOSOLVEIT.MOLECULAR\_WEIGHT>  (1622) 
399.51499999999999

>  <r_sd_BIOSOLVEIT.TPSA>  (1622) 
51.359999999999999

>  <i_epik_Tot_Q>  (1622) 
1

>  <i_epik_Tot_abs_Q>  (1622) 
1

>  <i_f3d_flags>  (1622) 
0

>  <i_i_glide_confnum>  (1622) 
4

>  <i_i_glide_lignum>  (1622) 
654

>  <i_i_glide_posenum>  (1622) 
3

>  <i_i_glide_rotatable_bonds>  (1622) 
8

>  <i_lp_mmshare_version>  (1622) 
65135

>  <i_m_ct_format>  (1622) 
2

>  <i_m_source_file_index>  (1622) 
1757

>  <i_qp_#NandO>  (1622) 
5

>  <i_qp_#acid>  (1622) 
0

>  <i_qp_#amide>  (1622) 
0

>  <i_qp_#amidine>  (1622) 
0

>  <i_qp_#amine>  (1622) 
1

>  <i_qp_#in34>  (1622) 
0

>  <i_qp_#in56>  (1622) 
21

>  <i_qp_#metab>  (1622) 
4

>  <i_qp_#nonHatm>  (1622) 
30

>  <i_qp_#noncon>  (1622) 
0

>  <i_qp_#ringatoms>  (1622) 
21

>  <i_qp_#rotor>  (1622) 
7

>  <i_qp_#rtvFG>  (1622) 
0

>  <i_qp_#stars>  (1622) 
1

>  <i_qp_CNS>  (1622) 
1

>  <i_qp_HumanOralAbsorption>  (1622) 
3

>  <i_qp_RuleOfFive>  (1622) 
0

>  <i_qp_RuleOfThree>  (1622) 
0

>  <i_sd_BIOSOLVEIT.INFINISEE\_REAGENT1\_NAME>  (1622) 
4862800

>  <i_sd_BIOSOLVEIT.INFINISEE\_REAGENT2\_NAME>  (1622) 
140639

>  <i_sd_BIOSOLVEIT.INFINISEE\_RESULT\_RANK>  (1622) 
75057

>  <i_sd_version>  (1622) 
0

>  <b_lp_Chiralities_Consistent>  (1622) 
1

>  <b_sd_chiral_flag>  (1622) 
0

>  <canonical_id>  (1622) 
ATP-HTVS-FE9A1A55DD78

>  <compound_code>  (1622) 
56195

>  <title>  (1622) 
m_11bba____4862800____140639

>  <variant>  (1622) 
56195-1

>  <source_file>  (1622) 
运行/运行/ATP-VSW/ATP-VSW-DOCK_HTVS_1-003_lib/ATP-VSW-DOCK_HTVS_1-003_lib.mae

>  <canonical_smiles>  (1622) 
C[NH+](C)Cc1ccc(NC(=O)Cn2c(Cc3ccccc3)nc3ccccc32)cc1

>  <scaffold>  (1622) 
O=C(Cn1c(Cc2ccccc2)nc2ccccc21)Nc1ccccc1

>  <molecular_formula>  (1622) 
C25H27N4O+

$$$$
ATP-HTVS-FEA784CAFC0E
     RDKit          3D

 56 59  0  0  0  0  0  0  0  0999 V2000
  196.3676  189.2925  160.8460 Cl  0  0  0  0  0  0  0  0  0  0  0  0
  197.8286  188.7710  159.9635 C   0  0  2  0  0  0  0  0  0  0  0  0
  198.3718  189.9062  159.0971 C   0  0  0  0  0  0  0  0  0  0  0  0
  197.5529  190.5431  158.1378 C   0  0  0  0  0  0  0  0  0  0  0  0
  198.0639  191.5852  157.3411 C   0  0  0  0  0  0  0  0  0  0  0  0
  199.3972  192.0048  157.5014 C   0  0  0  0  0  0  0  0  0  0  0  0
  200.2186  191.3797  158.4572 C   0  0  0  0  0  0  0  0  0  0  0  0
  199.7096  190.3329  159.2520 C   0  0  0  0  0  0  0  0  0  0  0  0
  197.5169  187.5200  159.1271 C   0  0  0  0  0  0  0  0  0  0  0  0
  196.5505  187.5513  158.3507 O   0  0  0  0  0  0  0  0  0  0  0  0
  198.4297  186.4797  159.3256 N   0  0  0  0  0  0  0  0  0  0  0  0
  198.1142  185.2336  159.1435 C   0  0  0  0  0  0  0  0  0  0  0  0
  199.1094  184.2662  158.9737 N   0  0  0  0  0  0  0  0  0  0  0  0
  198.8931  183.1814  158.1306 C   0  0  0  0  0  0  0  0  0  0  0  0
  197.6673  182.7652  157.7508 C   0  0  0  0  0  0  0  0  0  0  0  0
  197.4268  181.7335  156.8557 N   0  0  0  0  0  0  0  0  0  0  0  0
  198.3428  180.6620  156.5079 C   0  0  1  0  0  0  0  0  0  0  0  0
  199.0827  180.9413  155.1898 C   0  0  1  0  0  0  0  0  0  0  0  0
  200.0948  179.9673  155.0328 O   0  0  0  0  0  0  0  0  0  0  0  0
  198.1409  181.0008  153.9937 C   0  0  0  0  0  0  0  0  0  0  0  0
  197.8024  182.2434  153.4158 C   0  0  0  0  0  0  0  0  0  0  0  0
  196.9052  182.3057  152.3296 C   0  0  0  0  0  0  0  0  0  0  0  0
  196.3486  181.1174  151.8109 C   0  0  0  0  0  0  0  0  0  0  0  0
  196.6897  179.8747  152.3774 C   0  0  0  0  0  0  0  0  0  0  0  0
  197.5830  179.8182  153.4652 C   0  0  0  0  0  0  0  0  0  0  0  0
  196.5315  183.6517  151.7442 C   0  0  2  0  0  0  0  0  0  0  0  0
  196.4915  183.4546  158.3313 C   0  0  0  0  0  0  0  0  0  0  0  0
  196.7086  184.6326  159.1048 C   0  0  0  0  0  0  0  0  0  0  0  0
  195.6416  185.1574  159.8670 C   0  0  0  0  0  0  0  0  0  0  0  0
  194.3450  184.6207  159.7444 C   0  0  0  0  0  0  0  0  0  0  0  0
  194.1221  183.5082  158.9196 C   0  0  0  0  0  0  0  0  0  0  0  0
  195.1915  182.9148  158.2348 C   0  0  0  0  0  0  0  0  0  0  0  0
  198.5662  188.5447  160.7315 H   0  0  0  0  0  0  0  0  0  0  0  0
  196.5265  190.2321  158.0029 H   0  0  0  0  0  0  0  0  0  0  0  0
  197.4294  192.0621  156.6095 H   0  0  0  0  0  0  0  0  0  0  0  0
  199.7886  192.8054  156.8930 H   0  0  0  0  0  0  0  0  0  0  0  0
  201.2377  191.7063  158.5905 H   0  0  0  0  0  0  0  0  0  0  0  0
  200.3415  189.8639  159.9926 H   0  0  0  0  0  0  0  0  0  0  0  0
  199.7988  182.7204  157.7629 H   0  0  0  0  0  0  0  0  0  0  0  0
  196.4610  181.5400  156.6207 H   0  0  0  0  0  0  0  0  0  0  0  0
  199.0457  180.5112  157.3259 H   0  0  0  0  0  0  0  0  0  0  0  0
  197.7708  179.7352  156.4293 H   0  0  0  0  0  0  0  0  0  0  0  0
  199.5896  181.9045  155.2792 H   0  0  0  0  0  0  0  0  0  0  0  0
  200.6101  179.9442  155.8248 H   0  0  0  0  0  0  0  0  0  0  0  0
  198.2235  183.1538  153.8153 H   0  0  0  0  0  0  0  0  0  0  0  0
  195.6529  181.1552  150.9860 H   0  0  0  0  0  0  0  0  0  0  0  0
  196.2578  178.9653  151.9851 H   0  0  0  0  0  0  0  0  0  0  0  0
  197.8379  178.8632  153.9023 H   0  0  0  0  0  0  0  0  0  0  0  0
  195.9251  183.5430  150.8452 H   0  0  0  0  0  0  0  0  0  0  0  0
  197.4272  184.2181  151.4879 H   0  0  0  0  0  0  0  0  0  0  0  0
  195.9610  184.2285  152.4732 H   0  0  0  0  0  0  0  0  0  0  0  0
  195.7898  186.0010  160.5243 H   0  0  0  0  0  0  0  0  0  0  0  0
  193.5303  185.0686  160.2861 H   0  0  0  0  0  0  0  0  0  0  0  0
  193.1301  183.1002  158.8211 H   0  0  0  0  0  0  0  0  0  0  0  0
  194.9901  182.0369  157.6389 H   0  0  0  0  0  0  0  0  0  0  0  0
  200.0738  184.5056  159.1263 H   0  0  0  0  0  0  0  0  0  0  0  0
  1  2  1  0
  2  3  1  0
  2  9  1  0
  2 33  1  1
  3  4  2  0
  3  8  1  0
  4  5  1  0
  4 34  1  0
  5  6  2  0
  5 35  1  0
  6  7  1  0
  6 36  1  0
  7  8  2  0
  7 37  1  0
  8 38  1  0
  9 10  2  0
  9 11  1  0
 11 12  2  0
 12 13  1  0
 12 28  1  0
 13 14  1  0
 13 56  1  0
 14 15  2  0
 14 39  1  0
 15 16  1  0
 15 27  1  0
 16 17  1  0
 16 40  1  0
 17 18  1  0
 17 41  1  1
 17 42  1  0
 18 19  1  0
 18 20  1  0
 18 43  1  1
 19 44  1  0
 20 21  1  0
 20 25  2  0
 21 22  2  0
 21 45  1  0
 22 23  1  0
 22 26  1  0
 23 24  2  0
 23 46  1  0
 24 25  1  0
 24 47  1  0
 25 48  1  0
 26 49  1  6
 26 50  1  0
 26 51  1  0
 27 28  1  0
 27 32  2  0
 28 29  2  0
 29 30  1  0
 29 52  1  0
 30 31  2  0
 30 53  1  0
 31 32  1  0
 31 54  1  0
 32 55  1  0
M  END
>  <s_epik_cmdline>  (1623) 
J2VwaWtfcHl0aG9uJywgJy1waCcsICc3LjAwMDAwMCcsICctcGh0JywgJzIuMDAwMDAwJywgJy1tcycsICcxNicsICctdG4nLCAnOCcsICctbWEnLCAnMjAwJywgJy1pbWFlJywgJzxpbmZpbGUubWFlPicsICctb21hZScsICc8b3V0ZmlsZS5tYWU+Jw==

>  <s_epik_input>  (1623) 
W2NIXTFbY0hdW2NIXVtjSF1bY0hdYzFbQ0BASF0oQ2wpQyg9TylbTkhdYyhjKGMyMylbY0hdW2NIXVtjSF1bY0hdMyluW2NIXWMyW05IXVtDSDJdW0NAQEhdKFtPSF0pYzRbY0hdYyhbQ0gzXSlbY0hdW2NIXVtjSF00

>  <s_i_glide_gridfile>  (1623) 
ATP-Grid

>  <s_lp_Force_Field>  (1623) 
OPLS_2005

>  <s_lp_Variant>  (1623) 
rxn502b____EMOL480530____EMOL7515103____EMOL44834539-7

>  <s_lp_label>  (1623) 
2266_sdstereoexpander_3_neutralizer_1_epik_2_stereoizer_1

>  <s_m_source_file>  (1623) 
ATP-VSW-LIGPREP-001-in.maegz

>  <s_sd_BIOSOLVEIT.INFINISEE\_QUERY\_NAME>  (1623) 
Ref-Lig

>  <s_sd_BIOSOLVEIT.INFINISEE\_QUERY\_SMILES>  (1623) 
S(c1nc2c(cc1C[NH2+]Cc3ccc(cc3)C[NH+](C)C)cccc2)Cc4ccccc4

>  <s_sd_BIOSOLVEIT.INFINISEE\_REACTION\_NAME>  (1623) 
rxn502b

>  <s_sd_BIOSOLVEIT.INFINISEE\_REAGENT1\_NAME>  (1623) 
EMOL480530

>  <s_sd_BIOSOLVEIT.INFINISEE\_REAGENT1\_SMILES>  (1623) 
ClC(=O)C(Cl)c1ccccc1

>  <s_sd_BIOSOLVEIT.INFINISEE\_REAGENT2\_NAME>  (1623) 
EMOL7515103

>  <s_sd_BIOSOLVEIT.INFINISEE\_REAGENT2\_SMILES>  (1623) 
Brc1c2c(c(nc1)N)cccc2

>  <s_sd_BIOSOLVEIT.INFINISEE\_REAGENT3\_NAME>  (1623) 
EMOL44834539

>  <s_sd_BIOSOLVEIT.INFINISEE\_REAGENT3\_SMILES>  (1623) 
OC(c1cc(ccc1)C)CN

>  <s_sd_BIOSOLVEIT.INFINISEE\_SPACE>  (1623) 
eXplore_7tr_2022-12

>  <s_vsw_compound_code>  (1623) 
72481

>  <s_vsw_variant>  (1623) 
72481-7

>  <r_epik_Charging_Adjusted_Penalty>  (1623) 
2.3374822341550399

>  <r_epik_Ionization_Penalty>  (1623) 
0.24460000000000001

>  <r_epik_Ionization_Penalty_Charging>  (1623) 
0.24460000000000001

>  <r_epik_Ionization_Penalty_Neutral>  (1623) 
0

>  <r_epik_State_Penalty>  (1623) 
2.0929000000000002

>  <r_i_docking_score>  (1623) 
-1.6061247483905099

>  <r_i_glide_ecoul>  (1623) 
-2.54299092292786

>  <r_i_glide_eff_state_penalty>  (1623) 
2.0929000000000002

>  <r_i_glide_einternal>  (1623) 
1.8415445089340201

>  <r_i_glide_emodel>  (1623) 
-50.943015302526497

>  <r_i_glide_energy>  (1623) 
-41.928233385086102

>  <r_i_glide_erotb>  (1623) 
0.60380312005720504

>  <r_i_glide_esite>  (1623) 
-0.064576219115782096

>  <r_i_glide_evdw>  (1623) 
-39.385242462158203

>  <r_i_glide_gscore>  (1623) 
-3.6990247483905101

>  <r_i_glide_hbond>  (1623) 
0

>  <r_i_glide_ligand_efficiency>  (1623) 
-0.050191398387203302

>  <r_i_glide_ligand_efficiency_ln>  (1623) 
-0.35965511247173598

>  <r_i_glide_ligand_efficiency_sa>  (1623) 
-0.159347757015117

>  <r_i_glide_lipo>  (1623) 
-1.39165768079678

>  <r_i_glide_metal>  (1623) 
-0

>  <r_i_glide_rewards>  (1623) 
-0.49588320698805899

>  <r_lp_Energy>  (1623) 
42.759453999999998

>  <r_qp_ACxDN^.5/SA>  (1623) 
0.011182599999999999

>  <r_qp_CIQPlogS>  (1623) 
-7.4429999999999996

>  <r_qp_EA(eV)>  (1623) 
0.64700000000000002

>  <r_qp_FISA>  (1623) 
123.337

>  <r_qp_FOSA>  (1623) 
128.28299999999999

>  <r_qp_IP(eV)>  (1623) 
7.8159999999999998

>  <r_qp_Jm>  (1623) 
0.073079696724043103

>  <r_qp_PISA>  (1623) 
344.928

>  <r_qp_PSA>  (1623) 
77.563000000000002

>  <r_qp_PercentHumanOralAbsorption>  (1623) 
100

>  <r_qp_QPPCaco>  (1623) 
670.34199999999998

>  <r_qp_QPPMDCK>  (1623) 
693.68399999999997

>  <r_qp_QPlogBB>  (1623) 
-0.92000000000000004

>  <r_qp_QPlogHERG>  (1623) 
-5.3079999999999998

>  <r_qp_QPlogKhsa>  (1623) 
0.68500000000000005

>  <r_qp_QPlogKp>  (1623) 
-1.7130000000000001

>  <r_qp_QPlogPC16>  (1623) 
14.31

>  <r_qp_QPlogPo/w>  (1623) 
4.8120000000000003

>  <r_qp_QPlogPoct>  (1623) 
21.437999999999999

>  <r_qp_QPlogPw>  (1623) 
10.574

>  <r_qp_QPlogS>  (1623) 
-5.0720000000000001

>  <r_qp_QPpolrz>  (1623) 
42.704999999999998

>  <r_qp_SASA>  (1623) 
657.62199999999996

>  <r_qp_SAamideO>  (1623) 
0

>  <r_qp_SAfluorine>  (1623) 
0

>  <r_qp_WPSA>  (1623) 
61.073999999999998

>  <r_qp_accptHB>  (1623) 
5.2000000000000002

>  <r_qp_dip^2/V>  (1623) 
0.080724699999999996

>  <r_qp_dipole>  (1623) 
10.177

>  <r_qp_donorHB>  (1623) 
2

>  <r_qp_glob>  (1623) 
0.86828510000000003

>  <r_qp_mol_MW>  (1623) 
445.947

>  <r_qp_volume>  (1623) 
1282.953

>  <r_sd_BIOSOLVEIT.INFINISEE\_FTREES\_SIMILARITY>  (1623) 
0.92500000000000004

>  <r_sd_BIOSOLVEIT.LOGP>  (1623) 
5.6073199999999996

>  <r_sd_BIOSOLVEIT.MOLECULAR\_WEIGHT>  (1623) 
445.94799999999998

>  <r_sd_BIOSOLVEIT.TPSA>  (1623) 
74.25

>  <i_epik_Tot_Q>  (1623) 
0

>  <i_epik_Tot_abs_Q>  (1623) 
0

>  <i_f3d_flags>  (1623) 
0

>  <i_i_glide_confnum>  (1623) 
3

>  <i_i_glide_lignum>  (1623) 
791

>  <i_i_glide_posenum>  (1623) 
12

>  <i_i_glide_rotatable_bonds>  (1623) 
8

>  <i_lp_mmshare_version>  (1623) 
65135

>  <i_m_ct_format>  (1623) 
2

>  <i_m_source_file_index>  (1623) 
2266

>  <i_qp_#NandO>  (1623) 
5

>  <i_qp_#acid>  (1623) 
0

>  <i_qp_#amide>  (1623) 
0

>  <i_qp_#amidine>  (1623) 
0

>  <i_qp_#amine>  (1623) 
0

>  <i_qp_#in34>  (1623) 
0

>  <i_qp_#in56>  (1623) 
22

>  <i_qp_#metab>  (1623) 
8

>  <i_qp_#nonHatm>  (1623) 
32

>  <i_qp_#noncon>  (1623) 
0

>  <i_qp_#ringatoms>  (1623) 
22

>  <i_qp_#rotor>  (1623) 
9

>  <i_qp_#rtvFG>  (1623) 
1

>  <i_qp_#stars>  (1623) 
1

>  <i_qp_CNS>  (1623) 
-1

>  <i_qp_HumanOralAbsorption>  (1623) 
3

>  <i_qp_RuleOfFive>  (1623) 
0

>  <i_qp_RuleOfThree>  (1623) 
1

>  <i_sd_BIOSOLVEIT.INFINISEE\_RESULT\_RANK>  (1623) 
8797

>  <i_sd_version>  (1623) 
0

>  <b_lp_Chiralities_Consistent>  (1623) 
1

>  <b_sd_chiral_flag>  (1623) 
0

>  <canonical_id>  (1623) 
ATP-HTVS-FEA784CAFC0E

>  <compound_code>  (1623) 
72481

>  <title>  (1623) 
rxn502b____EMOL480530____EMOL7515103____EMOL44834539

>  <variant>  (1623) 
72481-7

>  <source_file>  (1623) 
运行/运行/ATP-VSW/ATP-VSW-DOCK_HTVS_1-001_lib/ATP-VSW-DOCK_HTVS_1-001_lib

>  <canonical_smiles>  (1623) 
Cc1cccc([C@H](O)CNc2c[nH]/c(=N/C(=O)[C@H](Cl)c3ccccc3)c3ccccc23)c1

>  <scaffold>  (1623) 
O=C(Cc1ccccc1)N=c1[nH]cc(NCCc2ccccc2)c2ccccc12

>  <molecular_formula>  (1623) 
C26H24ClN3O2

$$$$
ATP-HTVS-FEB80F9C0A7B
     RDKit          3D

 58 61  0  0  0  0  0  0  0  0999 V2000
  195.9236  184.4120  160.5316 F   0  0  0  0  0  0  0  0  0  0  0  0
  196.2971  183.7880  159.3886 C   0  0  0  0  0  0  0  0  0  0  0  0
  195.4345  182.8594  158.7757 C   0  0  0  0  0  0  0  0  0  0  0  0
  195.8107  182.2364  157.5735 C   0  0  0  0  0  0  0  0  0  0  0  0
  197.0506  182.5243  156.9598 C   0  0  0  0  0  0  0  0  0  0  0  0
  197.9267  183.4397  157.5954 C   0  0  0  0  0  0  0  0  0  0  0  0
  197.5452  184.0676  158.8004 C   0  0  0  0  0  0  0  0  0  0  0  0
  197.4424  181.8450  155.6307 C   0  0  2  0  0  0  0  0  0  0  0  0
  196.7491  182.5235  154.4823 N   0  0  2  0  0  0  0  0  0  0  0  0
  196.8848  181.8782  153.1513 C   0  0  2  0  0  0  0  0  0  0  0  0
  197.0676  183.9685  154.3637 C   0  0  2  0  0  0  0  0  0  0  0  0
  197.1910  180.3076  155.7324 C   0  0  1  0  0  0  0  0  0  0  0  0
  197.8179  179.5113  154.6644 N   0  0  0  0  0  0  0  0  0  0  0  0
  198.8804  178.6635  154.9402 C   0  0  0  0  0  0  0  0  0  0  0  0
  199.1829  178.1857  156.1655 N   0  0  0  0  0  0  0  0  0  0  0  0
  200.2822  177.3317  156.0405 C   0  0  0  0  0  0  0  0  0  0  0  0
  200.6314  177.2804  154.6734 C   0  0  0  0  0  0  0  0  0  0  0  0
  199.7143  178.1158  154.0172 N   0  0  0  0  0  0  0  0  0  0  0  0
  199.7739  178.2564  152.5517 C   0  0  1  0  0  0  0  0  0  0  0  0
  199.4630  177.0319  151.6671 C   0  0  0  0  0  0  0  0  0  0  0  0
  199.6478  175.8999  152.1070 O   0  0  0  0  0  0  0  0  0  0  0  0
  198.9685  177.2569  150.2815 C   0  0  0  0  0  0  0  0  0  0  0  0
  198.5269  178.5221  149.8159 C   0  0  0  0  0  0  0  0  0  0  0  0
  198.0183  178.6622  148.5074 C   0  0  0  0  0  0  0  0  0  0  0  0
  197.9505  177.5452  147.6478 C   0  0  0  0  0  0  0  0  0  0  0  0
  198.3912  176.2830  148.0945 C   0  0  0  0  0  0  0  0  0  0  0  0
  198.8868  176.1438  149.4064 C   0  0  0  0  0  0  0  0  0  0  0  0
  201.6803  176.4759  154.2134 C   0  0  0  0  0  0  0  0  0  0  0  0
  202.3389  175.6844  155.1860 C   0  0  0  0  0  0  0  0  0  0  0  0
  201.9649  175.7385  156.5533 C   0  0  0  0  0  0  0  0  0  0  0  0
  200.9476  176.6000  157.0105 C   0  0  0  0  0  0  0  0  0  0  0  0
  194.4825  182.6327  159.2250 H   0  0  0  0  0  0  0  0  0  0  0  0
  195.1212  181.5342  157.1242 H   0  0  0  0  0  0  0  0  0  0  0  0
  198.8876  183.6784  157.1562 H   0  0  0  0  0  0  0  0  0  0  0  0
  198.2063  184.7729  159.2758 H   0  0  0  0  0  0  0  0  0  0  0  0
  198.5194  181.9996  155.5021 H   0  0  0  0  0  0  0  0  0  0  0  0
  197.9376  181.7304  152.9123 H   0  0  0  0  0  0  0  0  0  0  0  0
  196.4631  182.5022  152.3529 H   0  0  0  0  0  0  0  0  0  0  0  0
  196.3679  180.9193  153.1147 H   0  0  0  0  0  0  0  0  0  0  0  0
  198.1374  184.1176  154.2070 H   0  0  0  0  0  0  0  0  0  0  0  0
  196.7583  184.5334  155.2455 H   0  0  0  0  0  0  0  0  0  0  0  0
  196.5384  184.4103  153.5157 H   0  0  0  0  0  0  0  0  0  0  0  0
  197.5452  180.0169  156.7337 H   0  0  0  0  0  0  0  0  0  0  0  0
  196.1261  180.0996  155.7355 H   0  0  0  0  0  0  0  0  0  0  0  0
  197.3589  179.4314  153.7680 H   0  0  0  0  0  0  0  0  0  0  0  0
  199.0805  179.0587  152.3295 H   0  0  0  0  0  0  0  0  0  0  0  0
  200.7620  178.6300  152.3025 H   0  0  0  0  0  0  0  0  0  0  0  0
  198.5584  179.4057  150.4338 H   0  0  0  0  0  0  0  0  0  0  0  0
  197.6796  179.6306  148.1623 H   0  0  0  0  0  0  0  0  0  0  0  0
  197.5693  177.6493  146.6397 H   0  0  0  0  0  0  0  0  0  0  0  0
  198.3459  175.4177  147.4401 H   0  0  0  0  0  0  0  0  0  0  0  0
  199.2111  175.1618  149.7296 H   0  0  0  0  0  0  0  0  0  0  0  0
  201.9599  176.4110  153.1650 H   0  0  0  0  0  0  0  0  0  0  0  0
  203.1420  175.0158  154.8729 H   0  0  0  0  0  0  0  0  0  0  0  0
  202.5051  175.1272  157.2713 H   0  0  0  0  0  0  0  0  0  0  0  0
  200.6412  176.6413  158.0477 H   0  0  0  0  0  0  0  0  0  0  0  0
  195.7565  182.4903  154.7014 H   0  0  0  0  0  0  0  0  0  0  0  0
  198.6069  178.2820  157.0106 H   0  0  0  0  0  0  0  0  0  0  0  0
  1  2  1  0
  2  3  1  0
  2  7  2  0
  3  4  2  0
  3 32  1  0
  4  5  1  0
  4 33  1  0
  5  6  2  0
  5  8  1  0
  6  7  1  0
  6 34  1  0
  7 35  1  0
  8  9  1  0
  8 12  1  0
  8 36  1  6
  9 10  1  0
  9 11  1  0
  9 57  1  1
 10 37  1  6
 10 38  1  0
 10 39  1  0
 11 40  1  6
 11 41  1  0
 11 42  1  0
 12 13  1  0
 12 43  1  1
 12 44  1  0
 13 14  1  0
 13 45  1  0
 14 15  2  0
 14 18  1  0
 15 16  1  0
 15 58  1  0
 16 17  1  0
 16 31  2  0
 17 18  1  0
 17 28  2  0
 18 19  1  0
 19 20  1  0
 19 46  1  6
 19 47  1  0
 20 21  2  0
 20 22  1  0
 22 23  2  0
 22 27  1  0
 23 24  1  0
 23 48  1  0
 24 25  2  0
 24 49  1  0
 25 26  1  0
 25 50  1  0
 26 27  2  0
 26 51  1  0
 27 52  1  0
 28 29  1  0
 28 53  1  0
 29 30  2  0
 29 54  1  0
 30 31  1  0
 30 55  1  0
 31 56  1  0
M  CHG  2   9   1  15   1
M  END
>  <s_epik_cmdline>  (1624) 
J2VwaWtfcHl0aG9uJywgJy1waCcsICc3LjAwMDAwMCcsICctcGh0JywgJzIuMDAwMDAwJywgJy1tcycsICcxNicsICctdG4nLCAnOCcsICctbWEnLCAnMjAwJywgJy1pbWFlJywgJzxpbmZpbGUubWFlPicsICctb21hZScsICc8b3V0ZmlsZS5tYWU+Jw==

>  <s_epik_input>  (1624) 
RmMxW2NIXVtjSF1jKFtjSF1bY0hdMSlbQ0BIXShOKFtDSDNdKVtDSDNdKVtDSDJdW05IXWMobjIpbihjKGMyMylbY0hdW2NIXVtjSF1bY0hdMylbQ0gyXUMoPU8pYzRbY0hdW2NIXVtjSF1bY0hdW2NIXTQ=

>  <s_i_glide_gridfile>  (1624) 
ATP-Grid

>  <s_lp_Force_Field>  (1624) 
OPLS_2005

>  <s_lp_Variant>  (1624) 
m_27bbd____1033258____24798446-4

>  <s_lp_label>  (1624) 
1080_sdstereoexpander_2_neutralizer_1_epik_2_stereoizer_1

>  <s_m_source_file>  (1624) 
ATP-VSW-LIGPREP-002-in.maegz

>  <s_sd_BIOSOLVEIT.INFINISEE\_QUERY\_NAME>  (1624) 
Ref-Lig

>  <s_sd_BIOSOLVEIT.INFINISEE\_QUERY\_SMILES>  (1624) 
S(c1nc2c(cc1C[NH2+]Cc3ccc(cc3)C[NH+](C)C)cccc2)Cc4ccccc4

>  <s_sd_BIOSOLVEIT.INFINISEE\_REACTION\_NAME>  (1624) 
m_27bbd

>  <s_sd_BIOSOLVEIT.INFINISEE\_REAGENT1\_SMILES>  (1624) 
[R1*]NCC(N(C)C)c1ccc(F)cc1

>  <s_sd_BIOSOLVEIT.INFINISEE\_REAGENT2\_SMILES>  (1624) 
[R1*]C1=Nc2c(N1CC(=O)c3ccccc3)cccc2

>  <s_sd_BIOSOLVEIT.INFINISEE\_SPACE>  (1624) 
REALSpace_44bn_2023-08

>  <s_vsw_compound_code>  (1624) 
34530

>  <s_vsw_variant>  (1624) 
34530-4

>  <r_epik_Charging_Adjusted_Penalty>  (1624) 
2.0888867717413402

>  <r_epik_Ionization_Penalty>  (1624) 
1.2119

>  <r_epik_Ionization_Penalty_Charging>  (1624) 
1.2118

>  <r_epik_Ionization_Penalty_Neutral>  (1624) 
0

>  <r_epik_State_Penalty>  (1624) 
0.877

>  <r_i_docking_score>  (1624) 
-4.4360288343372796

>  <r_i_glide_ecoul>  (1624) 
-10.577496528625501

>  <r_i_glide_eff_state_penalty>  (1624) 
0.877

>  <r_i_glide_einternal>  (1624) 
9.6888933181762695

>  <r_i_glide_emodel>  (1624) 
-64.618583281098594

>  <r_i_glide_energy>  (1624) 
-44.137532234191902

>  <r_i_glide_erotb>  (1624) 
0.677424585015315

>  <r_i_glide_esite>  (1624) 
-0.252366898231563

>  <r_i_glide_evdw>  (1624) 
-33.560035705566399

>  <r_i_glide_gscore>  (1624) 
-5.3130288343372802

>  <r_i_glide_hbond>  (1624) 
-0.28001188156402101

>  <r_i_glide_ligand_efficiency>  (1624) 
-0.143097704333461

>  <r_i_glide_ligand_efficiency_ln>  (1624) 
-1.0004604501001

>  <r_i_glide_ligand_efficiency_sa>  (1624) 
-0.44952435928020401

>  <r_i_glide_lipo>  (1624) 
-1.40218312986121

>  <r_i_glide_metal>  (1624) 
-0

>  <r_i_glide_rewards>  (1624) 
-0.79126524512366303

>  <r_lp_Energy>  (1624) 
41.772098999999997

>  <r_qp_ACxDN^.5/SA>  (1624) 
0.0086789999999999992

>  <r_qp_CIQPlogS>  (1624) 
-5.4930000000000003

>  <r_qp_EA(eV)>  (1624) 
0.88

>  <r_qp_FISA>  (1624) 
61.213999999999999

>  <r_qp_FOSA>  (1624) 
166.66

>  <r_qp_IP(eV)>  (1624) 
8.3510000000000009

>  <r_qp_Jm>  (1624) 
0.088310151183578003

>  <r_qp_PISA>  (1624) 
432.517

>  <r_qp_PSA>  (1624) 
58.844999999999999

>  <r_qp_PercentHumanOralAbsorption>  (1624) 
100

>  <r_qp_QPPCaco>  (1624) 
649.09000000000003

>  <r_qp_QPPMDCK>  (1624) 
506.74700000000001

>  <r_qp_QPlogBB>  (1624) 
-0.032000000000000001

>  <r_qp_QPlogHERG>  (1624) 
-7.024

>  <r_qp_QPlogKhsa>  (1624) 
0.63700000000000001

>  <r_qp_QPlogKp>  (1624) 
-2.419

>  <r_qp_QPlogPC16>  (1624) 
13.778

>  <r_qp_QPlogPo/w>  (1624) 
4.609

>  <r_qp_QPlogPoct>  (1624) 
20.07

>  <r_qp_QPlogPw>  (1624) 
10.362

>  <r_qp_QPlogS>  (1624) 
-4.2549999999999999

>  <r_qp_QPpolrz>  (1624) 
44.838000000000001

>  <r_qp_SASA>  (1624) 
691.322

>  <r_qp_SAamideO>  (1624) 
0

>  <r_qp_SAfluorine>  (1624) 
30.931000000000001

>  <r_qp_WPSA>  (1624) 
30.931000000000001

>  <r_qp_accptHB>  (1624) 
6

>  <r_qp_dip^2/V>  (1624) 
0.031251500000000002

>  <r_qp_dipole>  (1624) 
6.3719999999999999

>  <r_qp_donorHB>  (1624) 
1

>  <r_qp_glob>  (1624) 
0.83296619999999999

>  <r_qp_mol_MW>  (1624) 
416.49700000000001

>  <r_qp_volume>  (1624) 
1299.3130000000001

>  <r_sd_BIOSOLVEIT.INFINISEE\_FTREES\_SIMILARITY>  (1624) 
0.91400000000000003

>  <r_sd_BIOSOLVEIT.LOGP>  (1624) 
3.3559999999999999

>  <r_sd_BIOSOLVEIT.MOLECULAR\_WEIGHT>  (1624) 
417.505

>  <r_sd_BIOSOLVEIT.TPSA>  (1624) 
51.359999999999999

>  <i_epik_Tot_Q>  (1624) 
2

>  <i_epik_Tot_abs_Q>  (1624) 
2

>  <i_f3d_flags>  (1624) 
0

>  <i_i_glide_confnum>  (1624) 
4

>  <i_i_glide_lignum>  (1624) 
356

>  <i_i_glide_posenum>  (1624) 
18

>  <i_i_glide_rotatable_bonds>  (1624) 
8

>  <i_lp_mmshare_version>  (1624) 
65135

>  <i_m_ct_format>  (1624) 
2

>  <i_m_source_file_index>  (1624) 
1080

>  <i_qp_#NandO>  (1624) 
5

>  <i_qp_#acid>  (1624) 
0

>  <i_qp_#amide>  (1624) 
0

>  <i_qp_#amidine>  (1624) 
0

>  <i_qp_#amine>  (1624) 
1

>  <i_qp_#in34>  (1624) 
0

>  <i_qp_#in56>  (1624) 
21

>  <i_qp_#metab>  (1624) 
3

>  <i_qp_#nonHatm>  (1624) 
31

>  <i_qp_#noncon>  (1624) 
0

>  <i_qp_#ringatoms>  (1624) 
21

>  <i_qp_#rotor>  (1624) 
8

>  <i_qp_#rtvFG>  (1624) 
0

>  <i_qp_#stars>  (1624) 
0

>  <i_qp_CNS>  (1624) 
1

>  <i_qp_HumanOralAbsorption>  (1624) 
3

>  <i_qp_RuleOfFive>  (1624) 
0

>  <i_qp_RuleOfThree>  (1624) 
0

>  <i_sd_BIOSOLVEIT.INFINISEE\_REAGENT1\_NAME>  (1624) 
1033258

>  <i_sd_BIOSOLVEIT.INFINISEE\_REAGENT2\_NAME>  (1624) 
24798446

>  <i_sd_BIOSOLVEIT.INFINISEE\_RESULT\_RANK>  (1624) 
31983

>  <i_sd_version>  (1624) 
0

>  <b_lp_Chiralities_Consistent>  (1624) 
1

>  <b_sd_chiral_flag>  (1624) 
0

>  <canonical_id>  (1624) 
ATP-HTVS-FEB80F9C0A7B

>  <compound_code>  (1624) 
34530

>  <title>  (1624) 
m_27bbd____1033258____24798446

>  <variant>  (1624) 
34530-4

>  <source_file>  (1624) 
运行/运行/ATP-VSW/ATP-VSW-DOCK_HTVS_1-002_lib.maegz

>  <canonical_smiles>  (1624) 
C[NH+](C)[C@H](CNc1[nH+]c2ccccc2n1CC(=O)c1ccccc1)c1ccc(F)cc1

>  <scaffold>  (1624) 
O=C(Cn1c(NCCc2ccccc2)[nH+]c2ccccc21)c1ccccc1

>  <molecular_formula>  (1624) 
C25H27FN4O+2

$$$$
ATP-HTVS-FEE4C5F961F6
     RDKit          3D

 70 73  0  0  0  0  0  0  0  0999 V2000
  200.8076  177.4438  158.1048 Cl  0  0  0  0  0  0  0  0  0  0  0  0
  200.6567  178.4977  156.7467 C   0  0  0  0  0  0  0  0  0  0  0  0
  201.6212  178.4612  155.7238 C   0  0  0  0  0  0  0  0  0  0  0  0
  201.5251  179.3200  154.6104 C   0  0  0  0  0  0  0  0  0  0  0  0
  200.4343  180.2122  154.4995 C   0  0  0  0  0  0  0  0  0  0  0  0
  199.4597  180.2294  155.5274 C   0  0  0  0  0  0  0  0  0  0  0  0
  199.5770  179.3930  156.6474 C   0  0  0  0  0  0  0  0  0  0  0  0
  200.3270  181.1306  153.2831 C   0  0  1  0  0  0  0  0  0  0  0  0
  198.9692  181.2068  152.7574 N   0  0  0  0  0  0  0  0  0  0  0  0
  198.4191  180.3930  151.7710 C   0  0  0  0  0  0  0  0  0  0  0  0
  197.0734  180.8397  151.6436 C   0  0  0  0  0  0  0  0  0  0  0  0
  196.8060  181.8809  152.5100 N   0  0  0  0  0  0  0  0  0  0  0  0
  197.9762  182.0564  153.1299 C   0  0  0  0  0  0  0  0  0  0  0  0
  198.1926  183.0892  154.2058 C   0  0  1  0  0  0  0  0  0  0  0  0
  198.7433  184.3651  153.7593 N   0  0  0  0  0  0  0  0  0  0  0  0
  199.3864  185.0534  154.8793 C   0  0  1  0  0  0  0  0  0  0  0  0
  198.4003  185.4801  155.9582 C   0  0  0  0  0  0  0  0  0  0  0  0
  197.8804  186.7904  155.9182 C   0  0  0  0  0  0  0  0  0  0  0  0
  196.9364  187.2026  156.8650 C   0  0  0  0  0  0  0  0  0  0  0  0
  196.5742  186.2969  157.9498 C   0  0  0  0  0  0  0  0  0  0  0  0
  197.0515  184.9851  157.9199 C   0  0  0  0  0  0  0  0  0  0  0  0
  197.9901  184.5963  156.9475 C   0  0  0  0  0  0  0  0  0  0  0  0
  195.6897  186.7929  159.0515 C   0  0  1  0  0  0  0  0  0  0  0  0
  196.3952  187.2331  160.2641 N   0  0  0  0  0  0  0  0  0  0  0  0
  195.4047  187.7010  161.2565 C   0  0  1  0  0  0  0  0  0  0  0  0
  194.4037  186.6579  161.7781 C   0  0  1  0  0  0  0  0  0  0  0  0
  193.5526  187.2296  162.7643 O   0  0  0  0  0  0  0  0  0  0  0  0
  192.4041  186.4380  163.0322 C   0  0  2  0  0  0  0  0  0  0  0  0
  197.4073  188.2990  160.0043 C   0  0  1  0  0  0  0  0  0  0  0  0
  198.7036  187.9090  159.2000 C   0  0  2  0  0  0  0  0  0  0  0  0
  197.6798  185.1854  153.1876 C   0  0  2  0  0  0  0  0  0  0  0  0
  196.2466  180.2125  150.6860 C   0  0  0  0  0  0  0  0  0  0  0  0
  196.7519  179.1762  149.8759 C   0  0  0  0  0  0  0  0  0  0  0  0
  198.0818  178.7349  150.0265 C   0  0  0  0  0  0  0  0  0  0  0  0
  198.9217  179.3412  150.9811 C   0  0  0  0  0  0  0  0  0  0  0  0
  202.4413  177.7706  155.8023 H   0  0  0  0  0  0  0  0  0  0  0  0
  202.2866  179.2802  153.8421 H   0  0  0  0  0  0  0  0  0  0  0  0
  198.5878  180.8612  155.4901 H   0  0  0  0  0  0  0  0  0  0  0  0
  198.8046  179.4332  157.4041 H   0  0  0  0  0  0  0  0  0  0  0  0
  200.6728  182.1322  153.5402 H   0  0  0  0  0  0  0  0  0  0  0  0
  200.9856  180.7790  152.4871 H   0  0  0  0  0  0  0  0  0  0  0  0
  197.2543  183.2227  154.7519 H   0  0  0  0  0  0  0  0  0  0  0  0
  198.9087  182.6964  154.9213 H   0  0  0  0  0  0  0  0  0  0  0  0
  200.1455  184.4006  155.3262 H   0  0  0  0  0  0  0  0  0  0  0  0
  199.9346  185.9089  154.4951 H   0  0  0  0  0  0  0  0  0  0  0  0
  198.2487  187.5131  155.2166 H   0  0  0  0  0  0  0  0  0  0  0  0
  196.5761  188.2053  156.8903 H   0  0  0  0  0  0  0  0  0  0  0  0
  196.8137  184.3229  158.7298 H   0  0  0  0  0  0  0  0  0  0  0  0
  198.3799  183.5842  156.9796 H   0  0  0  0  0  0  0  0  0  0  0  0
  195.0696  187.6076  158.6752 H   0  0  0  0  0  0  0  0  0  0  0  0
  195.0183  185.9544  159.2961 H   0  0  0  0  0  0  0  0  0  0  0  0
  195.9060  188.1347  162.1132 H   0  0  0  0  0  0  0  0  0  0  0  0
  194.8282  188.5238  160.8563 H   0  0  0  0  0  0  0  0  0  0  0  0
  193.7929  186.2675  160.9650 H   0  0  0  0  0  0  0  0  0  0  0  0
  194.9635  185.8393  162.2112 H   0  0  0  0  0  0  0  0  0  0  0  0
  191.7936  186.9200  163.7970 H   0  0  0  0  0  0  0  0  0  0  0  0
  192.6677  185.4401  163.3872 H   0  0  0  0  0  0  0  0  0  0  0  0
  191.7928  186.3369  162.1349 H   0  0  0  0  0  0  0  0  0  0  0  0
  196.8773  189.1398  159.5282 H   0  0  0  0  0  0  0  0  0  0  0  0
  197.7378  188.6955  160.9808 H   0  0  0  0  0  0  0  0  0  0  0  0
  199.2096  188.8374  158.9028 H   0  0  0  0  0  0  0  0  0  0  0  0
  198.5436  187.3720  158.3123 H   0  0  0  0  0  0  0  0  0  0  0  0
  199.3472  187.2532  159.7941 H   0  0  0  0  0  0  0  0  0  0  0  0
  198.0871  186.1422  152.8646 H   0  0  0  0  0  0  0  0  0  0  0  0
  196.9052  185.3814  153.9302 H   0  0  0  0  0  0  0  0  0  0  0  0
  197.1871  184.6938  152.3505 H   0  0  0  0  0  0  0  0  0  0  0  0
  195.2265  180.5446  150.5736 H   0  0  0  0  0  0  0  0  0  0  0  0
  196.1170  178.7090  149.1384 H   0  0  0  0  0  0  0  0  0  0  0  0
  198.4567  177.9335  149.4049 H   0  0  0  0  0  0  0  0  0  0  0  0
  199.9444  179.0138  151.0901 H   0  0  0  0  0  0  0  0  0  0  0  0
  1  2  1  0
  2  3  1  0
  2  7  2  0
  3  4  2  0
  3 36  1  0
  4  5  1  0
  4 37  1  0
  5  6  2  0
  5  8  1  0
  6  7  1  0
  6 38  1  0
  7 39  1  0
  8  9  1  0
  8 40  1  1
  8 41  1  0
  9 10  1  0
  9 13  1  0
 10 11  1  0
 10 35  2  0
 11 12  1  0
 11 32  2  0
 12 13  2  0
 13 14  1  0
 14 15  1  0
 14 42  1  1
 14 43  1  0
 15 16  1  0
 15 31  1  0
 16 17  1  0
 16 44  1  1
 16 45  1  0
 17 18  1  0
 17 22  2  0
 18 19  2  0
 18 46  1  0
 19 20  1  0
 19 47  1  0
 20 21  2  0
 20 23  1  0
 21 22  1  0
 21 48  1  0
 22 49  1  0
 23 24  1  0
 23 50  1  6
 23 51  1  0
 24 25  1  0
 24 29  1  0
 25 26  1  0
 25 52  1  1
 25 53  1  0
 26 27  1  0
 26 54  1  6
 26 55  1  0
 27 28  1  0
 28 56  1  1
 28 57  1  0
 28 58  1  0
 29 30  1  0
 29 59  1  6
 29 60  1  0
 30 61  1  6
 30 62  1  0
 30 63  1  0
 31 64  1  6
 31 65  1  0
 31 66  1  0
 32 33  1  0
 32 67  1  0
 33 34  2  0
 33 68  1  0
 34 35  1  0
 34 69  1  0
 35 70  1  0
M  END
>  <s_epik_cmdline>  (1625) 
J2VwaWtfcHl0aG9uJywgJy1waCcsICc3LjAwMDAwMCcsICctcGh0JywgJzIuMDAwMDAwJywgJy1tcycsICcxNicsICctdG4nLCAnOCcsICctbWEnLCAnMjAwJywgJy1pbWFlJywgJzxpbmZpbGUubWFlPicsICctb21hZScsICc8b3V0ZmlsZS5tYWU+Jw==

>  <s_epik_input>  (1625) 
Q2xjMVtjSF1bY0hdYyhbY0hdW2NIXTEpW0NIMl1uMmMobmMoYzIzKVtjSF1bY0hdW2NIXVtjSF0zKVtDSDJdTihbQ0gzXSlbQ0gyXWM0W2NIXVtjSF1jKFtjSF1bY0hdNClbQ0gyXU4oW0NIMl1bQ0gzXSlbQ0gyXVtDSDJdT1tDSDNd

>  <s_i_glide_gridfile>  (1625) 
ATP-Grid

>  <s_lp_Force_Field>  (1625) 
OPLS_2005

>  <s_lp_Variant>  (1625) 
m_270004bca____18239542____7549102-9

>  <s_lp_label>  (1625) 
1757_sdstereoexpander_1_neutralizer_1_epik_4_stereoizer_1

>  <s_m_source_file>  (1625) 
ATP-VSW-LIGPREP-001-in.maegz

>  <s_sd_BIOSOLVEIT.INFINISEE\_QUERY\_NAME>  (1625) 
Ref-Lig

>  <s_sd_BIOSOLVEIT.INFINISEE\_QUERY\_SMILES>  (1625) 
S(c1nc2c(cc1C[NH2+]Cc3ccc(cc3)C[NH+](C)C)cccc2)Cc4ccccc4

>  <s_sd_BIOSOLVEIT.INFINISEE\_REACTION\_NAME>  (1625) 
m_270004bca

>  <s_sd_BIOSOLVEIT.INFINISEE\_REAGENT1\_SMILES>  (1625) 
[R1*]N(Cc1ccc(cc1)CN(CCOC)CC)C

>  <s_sd_BIOSOLVEIT.INFINISEE\_REAGENT2\_SMILES>  (1625) 
[R1*]CC1=Nc2c(N1Cc3ccc(Cl)cc3)cccc2

>  <s_sd_BIOSOLVEIT.INFINISEE\_SPACE>  (1625) 
REALSpace_44bn_2023-08

>  <s_vsw_compound_code>  (1625) 
56193

>  <s_vsw_variant>  (1625) 
56193-9

>  <r_epik_Charging_Adjusted_Penalty>  (1625) 
1.6883996179192799

>  <r_epik_Ionization_Penalty>  (1625) 
1.7539

>  <r_epik_Ionization_Penalty_Charging>  (1625) 
0

>  <r_epik_Ionization_Penalty_Neutral>  (1625) 
1.7539

>  <r_epik_State_Penalty>  (1625) 
1.6883999999999999

>  <r_i_docking_score>  (1625) 
-1.6527394279543399

>  <r_i_glide_ecoul>  (1625) 
-3.1663258075714098

>  <r_i_glide_eff_state_penalty>  (1625) 
1.6883999999999999

>  <r_i_glide_einternal>  (1625) 
5.9108219146728498

>  <r_i_glide_emodel>  (1625) 
-45.369400415946103

>  <r_i_glide_energy>  (1625) 
-39.908223390579202

>  <r_i_glide_erotb>  (1625) 
0.84408942504956497

>  <r_i_glide_esite>  (1625) 
-0.0037154981283504798

>  <r_i_glide_evdw>  (1625) 
-36.741897583007798

>  <r_i_glide_gscore>  (1625) 
-3.34113942795434

>  <r_i_glide_hbond>  (1625) 
-0.11209787926878199

>  <r_i_glide_ligand_efficiency>  (1625) 
-0.047221126512981201

>  <r_i_glide_ligand_efficiency_ln>  (1625) 
-0.36281298501128501

>  <r_i_glide_ligand_efficiency_sa>  (1625) 
-0.154463435882709

>  <r_i_glide_lipo>  (1625) 
-1.6964655889570399

>  <r_i_glide_metal>  (1625) 
-0

>  <r_i_glide_rewards>  (1625) 
-0.060906136363635302

>  <r_lp_Energy>  (1625) 
33.332064000000003

>  <r_qp_ACxDN^.5/SA>  (1625) 
0

>  <r_qp_CIQPlogS>  (1625) 
-5.3250000000000002

>  <r_qp_EA(eV)>  (1625) 
0.35099999999999998

>  <r_qp_FISA>  (1625) 
13.879

>  <r_qp_FOSA>  (1625) 
372.20100000000002

>  <r_qp_IP(eV)>  (1625) 
8.5589999999999993

>  <r_qp_Jm>  (1625) 
0.79336706858871098

>  <r_qp_PISA>  (1625) 
341.524

>  <r_qp_PSA>  (1625) 
31.971

>  <r_qp_PercentHumanOralAbsorption>  (1625) 
100

>  <r_qp_QPPCaco>  (1625) 
455.08100000000002

>  <r_qp_QPPMDCK>  (1625) 
321.66500000000002

>  <r_qp_QPlogBB>  (1625) 
0.55200000000000005

>  <r_qp_QPlogHERG>  (1625) 
-7.0499999999999998

>  <r_qp_QPlogKhsa>  (1625) 
0.52700000000000002

>  <r_qp_QPlogKp>  (1625) 
-3.5449999999999999

>  <r_qp_QPlogPC16>  (1625) 
14.59

>  <r_qp_QPlogPo/w>  (1625) 
4.8680000000000003

>  <r_qp_QPlogPoct>  (1625) 
20.109999999999999

>  <r_qp_QPlogPw>  (1625) 
8.3800000000000008

>  <r_qp_QPlogS>  (1625) 
-2.246

>  <r_qp_QPpolrz>  (1625) 
49.292000000000002

>  <r_qp_SASA>  (1625) 
744.91999999999996

>  <r_qp_SAamideO>  (1625) 
0

>  <r_qp_SAfluorine>  (1625) 
0

>  <r_qp_WPSA>  (1625) 
17.317

>  <r_qp_accptHB>  (1625) 
7.2000000000000002

>  <r_qp_dip^2/V>  (1625) 
0.010170200000000001

>  <r_qp_dipole>  (1625) 
3.9009999999999998

>  <r_qp_donorHB>  (1625) 
0

>  <r_qp_glob>  (1625) 
0.84938970000000003

>  <r_qp_mol_MW>  (1625) 
491.07499999999999

>  <r_qp_volume>  (1625) 
1496.502

>  <r_sd_BIOSOLVEIT.INFINISEE\_FTREES\_SIMILARITY>  (1625) 
0.90400000000000003

>  <r_sd_BIOSOLVEIT.LOGP>  (1625) 
3.0041000000000002

>  <r_sd_BIOSOLVEIT.MOLECULAR\_WEIGHT>  (1625) 
493.09100000000001

>  <r_sd_BIOSOLVEIT.TPSA>  (1625) 
35.93

>  <i_epik_Tot_Q>  (1625) 
0

>  <i_epik_Tot_abs_Q>  (1625) 
0

>  <i_f3d_flags>  (1625) 
0

>  <i_i_glide_confnum>  (1625) 
13

>  <i_i_glide_lignum>  (1625) 
501

>  <i_i_glide_posenum>  (1625) 
15

>  <i_i_glide_rotatable_bonds>  (1625) 
12

>  <i_lp_mmshare_version>  (1625) 
65135

>  <i_m_ct_format>  (1625) 
2

>  <i_m_source_file_index>  (1625) 
1757

>  <i_qp_#NandO>  (1625) 
5

>  <i_qp_#acid>  (1625) 
0

>  <i_qp_#amide>  (1625) 
0

>  <i_qp_#amidine>  (1625) 
0

>  <i_qp_#amine>  (1625) 
2

>  <i_qp_#in34>  (1625) 
0

>  <i_qp_#in56>  (1625) 
21

>  <i_qp_#metab>  (1625) 
7

>  <i_qp_#nonHatm>  (1625) 
35

>  <i_qp_#noncon>  (1625) 
0

>  <i_qp_#ringatoms>  (1625) 
21

>  <i_qp_#rotor>  (1625) 
12

>  <i_qp_#rtvFG>  (1625) 
0

>  <i_qp_#stars>  (1625) 
0

>  <i_qp_CNS>  (1625) 
2

>  <i_qp_HumanOralAbsorption>  (1625) 
3

>  <i_qp_RuleOfFive>  (1625) 
0

>  <i_qp_RuleOfThree>  (1625) 
1

>  <i_sd_BIOSOLVEIT.INFINISEE\_REAGENT1\_NAME>  (1625) 
18239542

>  <i_sd_BIOSOLVEIT.INFINISEE\_REAGENT2\_NAME>  (1625) 
7549102

>  <i_sd_BIOSOLVEIT.INFINISEE\_RESULT\_RANK>  (1625) 
75055

>  <i_sd_version>  (1625) 
0

>  <b_lp_Chiralities_Consistent>  (1625) 
1

>  <b_sd_chiral_flag>  (1625) 
0

>  <canonical_id>  (1625) 
ATP-HTVS-FEE4C5F961F6

>  <compound_code>  (1625) 
56193

>  <title>  (1625) 
m_270004bca____18239542____7549102

>  <variant>  (1625) 
56193-9

>  <source_file>  (1625) 
运行/运行/ATP-VSW/ATP-VSW-DOCK_HTVS_1-001_lib/ATP-VSW-DOCK_HTVS_1-001_lib

>  <canonical_smiles>  (1625) 
CCN(CCOC)Cc1ccc(CN(C)Cc2nc3ccccc3n2Cc2ccc(Cl)cc2)cc1

>  <scaffold>  (1625) 
c1ccc(CNCc2nc3ccccc3n2Cc2ccccc2)cc1

>  <molecular_formula>  (1625) 
C29H35ClN4O

$$$$
ATP-HTVS-FF081A1D735D
     RDKit          3D

 48 51  0  0  0  0  0  0  0  0999 V2000
  196.0830  187.5049  160.6092 Cl  0  0  0  0  0  0  0  0  0  0  0  0
  196.3598  186.1990  159.5193 C   0  0  0  0  0  0  0  0  0  0  0  0
  195.9639  184.8920  159.8601 C   0  0  0  0  0  0  0  0  0  0  0  0
  196.1947  183.8192  158.9636 C   0  0  0  0  0  0  0  0  0  0  0  0
  195.7956  182.5293  159.3490 N   0  0  0  0  0  0  0  0  0  0  0  0
  194.7073  181.8648  158.6511 C   0  0  2  0  0  0  0  0  0  0  0  0
  196.8542  184.0623  157.7202 C   0  0  0  0  0  0  0  0  0  0  0  0
  197.1040  183.0011  156.8389 N   0  0  0  0  0  0  0  0  0  0  0  0
  197.2667  182.9982  155.4343 C   0  0  0  0  0  0  0  0  0  0  0  0
  197.5830  181.7995  154.7444 C   0  0  0  0  0  0  0  0  0  0  0  0
  197.7779  181.8389  153.3342 C   0  0  0  0  0  0  0  0  0  0  0  0
  197.6252  183.0774  152.6570 C   0  0  0  0  0  0  0  0  0  0  0  0
  197.2789  184.2032  153.3147 N   0  0  0  0  0  0  0  0  0  0  0  0
  197.0921  184.1605  154.6466 C   0  0  0  0  0  0  0  0  0  0  0  0
  197.8874  183.1113  151.2652 N   0  0  0  0  0  0  0  0  0  0  0  0
  197.1273  183.6893  150.3193 C   0  0  0  0  0  0  0  0  0  0  0  0
  196.0368  184.2264  150.5224 O   0  0  0  0  0  0  0  0  0  0  0  0
  197.7276  183.6576  148.9441 C   0  0  0  0  0  0  0  0  0  0  0  0
  197.4127  184.6680  148.0078 C   0  0  0  0  0  0  0  0  0  0  0  0
  197.9682  184.6419  146.7137 C   0  0  0  0  0  0  0  0  0  0  0  0
  198.8409  183.6022  146.3413 C   0  0  0  0  0  0  0  0  0  0  0  0
  199.1488  182.5828  147.2597 C   0  0  0  0  0  0  0  0  0  0  0  0
  198.5920  182.6057  148.5518 C   0  0  0  0  0  0  0  0  0  0  0  0
  198.1042  180.6479  152.6354 C   0  0  0  0  0  0  0  0  0  0  0  0
  198.2263  179.4319  153.3293 C   0  0  0  0  0  0  0  0  0  0  0  0
  198.0256  179.3843  154.7203 C   0  0  0  0  0  0  0  0  0  0  0  0
  197.7100  180.5603  155.4249 C   0  0  0  0  0  0  0  0  0  0  0  0
  197.2929  185.3700  157.4181 C   0  0  0  0  0  0  0  0  0  0  0  0
  197.0185  186.4352  158.2960 C   0  0  0  0  0  0  0  0  0  0  0  0
  195.5098  184.6978  160.8195 H   0  0  0  0  0  0  0  0  0  0  0  0
  196.4412  181.9441  159.8633 H   0  0  0  0  0  0  0  0  0  0  0  0
  194.6220  180.8348  158.9981 H   0  0  0  0  0  0  0  0  0  0  0  0
  194.8610  181.8378  157.5703 H   0  0  0  0  0  0  0  0  0  0  0  0
  193.7577  182.3646  158.8496 H   0  0  0  0  0  0  0  0  0  0  0  0
  196.9459  182.0996  157.2652 H   0  0  0  0  0  0  0  0  0  0  0  0
  196.7729  185.0959  155.0726 H   0  0  0  0  0  0  0  0  0  0  0  0
  198.7217  182.6378  150.9574 H   0  0  0  0  0  0  0  0  0  0  0  0
  196.7460  185.4734  148.2793 H   0  0  0  0  0  0  0  0  0  0  0  0
  197.7262  185.4241  146.0111 H   0  0  0  0  0  0  0  0  0  0  0  0
  199.2715  183.5834  145.3516 H   0  0  0  0  0  0  0  0  0  0  0  0
  199.8127  181.7811  146.9736 H   0  0  0  0  0  0  0  0  0  0  0  0
  198.8386  181.7995  149.2292 H   0  0  0  0  0  0  0  0  0  0  0  0
  198.2524  180.6454  151.5651 H   0  0  0  0  0  0  0  0  0  0  0  0
  198.4634  178.5273  152.7793 H   0  0  0  0  0  0  0  0  0  0  0  0
  198.0994  178.4433  155.2489 H   0  0  0  0  0  0  0  0  0  0  0  0
  197.5445  180.4672  156.4872 H   0  0  0  0  0  0  0  0  0  0  0  0
  197.8392  185.5678  156.5093 H   0  0  0  0  0  0  0  0  0  0  0  0
  197.3262  187.4365  158.0354 H   0  0  0  0  0  0  0  0  0  0  0  0
  1  2  1  0
  2  3  2  0
  2 29  1  0
  3  4  1  0
  3 30  1  0
  4  5  1  0
  4  7  2  0
  5  6  1  0
  5 31  1  0
  6 32  1  1
  6 33  1  0
  6 34  1  0
  7  8  1  0
  7 28  1  0
  8  9  1  0
  8 35  1  0
  9 10  2  0
  9 14  1  0
 10 11  1  0
 10 27  1  0
 11 12  2  0
 11 24  1  0
 12 13  1  0
 12 15  1  0
 13 14  2  0
 14 36  1  0
 15 16  1  0
 15 37  1  0
 16 17  2  0
 16 18  1  0
 18 19  2  0
 18 23  1  0
 19 20  1  0
 19 38  1  0
 20 21  2  0
 20 39  1  0
 21 22  1  0
 21 40  1  0
 22 23  2  0
 22 41  1  0
 23 42  1  0
 24 25  2  0
 24 43  1  0
 25 26  1  0
 25 44  1  0
 26 27  2  0
 26 45  1  0
 27 46  1  0
 28 29  2  0
 28 47  1  0
 29 48  1  0
M  END
>  <s_epik_cmdline>  (1626) 
J2VwaWtfcHl0aG9uJywgJy1waCcsICc3LjAwMDAwMCcsICctcGh0JywgJzIuMDAwMDAwJywgJy1tcycsICcxNicsICctdG4nLCAnOCcsICctbWEnLCAnMjAwJywgJy1pbWFlJywgJzxpbmZpbGUubWFlPicsICctb21hZScsICc8b3V0ZmlsZS5tYWU+Jw==

>  <s_epik_input>  (1626) 
Q2xjMVtjSF1jKFtOSF1bQ0gzXSljKFtjSF1bY0hdMSlbTkhdYzJbY0hdbmMoYyhjMjMpW2NIXVtjSF1bY0hdW2NIXTMpW05IXUMoPU8pYzRbY0hdW2NIXVtjSF1bY0hdW2NIXTQ=

>  <s_i_glide_gridfile>  (1626) 
ATP-Grid

>  <s_lp_Force_Field>  (1626) 
OPLS_2005

>  <s_lp_Variant>  (1626) 
rxn502b____EMOL480353____EMOL7515103____EMOL48601815-1

>  <s_lp_label>  (1626) 
2670_sdstereoexpander_1_neutralizer_1_epik_1_stereoizer_1

>  <s_m_source_file>  (1626) 
ATP-VSW-LIGPREP-003-in.maegz

>  <s_sd_BIOSOLVEIT.INFINISEE\_QUERY\_NAME>  (1626) 
Ref-Lig

>  <s_sd_BIOSOLVEIT.INFINISEE\_QUERY\_SMILES>  (1626) 
S(c1nc2c(cc1C[NH2+]Cc3ccc(cc3)C[NH+](C)C)cccc2)Cc4ccccc4

>  <s_sd_BIOSOLVEIT.INFINISEE\_REACTION\_NAME>  (1626) 
rxn502b

>  <s_sd_BIOSOLVEIT.INFINISEE\_REAGENT1\_NAME>  (1626) 
EMOL480353

>  <s_sd_BIOSOLVEIT.INFINISEE\_REAGENT1\_SMILES>  (1626) 
ClC(=O)c1ccccc1

>  <s_sd_BIOSOLVEIT.INFINISEE\_REAGENT2\_NAME>  (1626) 
EMOL7515103

>  <s_sd_BIOSOLVEIT.INFINISEE\_REAGENT2\_SMILES>  (1626) 
Brc1c2c(c(nc1)N)cccc2

>  <s_sd_BIOSOLVEIT.INFINISEE\_REAGENT3\_NAME>  (1626) 
EMOL48601815

>  <s_sd_BIOSOLVEIT.INFINISEE\_REAGENT3\_SMILES>  (1626) 
Clc1cc(NC)c(N)cc1

>  <s_sd_BIOSOLVEIT.INFINISEE\_SPACE>  (1626) 
eXplore_7tr_2022-12

>  <s_vsw_compound_code>  (1626) 
85411

>  <s_vsw_variant>  (1626) 
85411-1

>  <r_epik_Charging_Adjusted_Penalty>  (1626) 
0.043492109800604403

>  <r_epik_Ionization_Penalty>  (1626) 
0.0436

>  <r_epik_Ionization_Penalty_Charging>  (1626) 
0

>  <r_epik_Ionization_Penalty_Neutral>  (1626) 
0.0436

>  <r_epik_State_Penalty>  (1626) 
0.043499999999999997

>  <r_i_docking_score>  (1626) 
-4.7551000833216399

>  <r_i_glide_ecoul>  (1626) 
-4.2794280052185103

>  <r_i_glide_eff_state_penalty>  (1626) 
0.043499999999999997

>  <r_i_glide_einternal>  (1626) 
11.7557315826416

>  <r_i_glide_emodel>  (1626) 
-49.033067735721303

>  <r_i_glide_energy>  (1626) 
-42.078004360199003

>  <r_i_glide_erotb>  (1626) 
0.60464999666974695

>  <r_i_glide_esite>  (1626) 
-0.070089282650488097

>  <r_i_glide_evdw>  (1626) 
-37.798576354980497

>  <r_i_glide_gscore>  (1626) 
-4.7986000833216398

>  <r_i_glide_hbond>  (1626) 
-0.29157647170773299

>  <r_i_glide_ligand_efficiency>  (1626) 
-0.16396896839040101

>  <r_i_glide_ligand_efficiency_ln>  (1626) 
-1.08879734014638

>  <r_i_glide_ligand_efficiency_sa>  (1626) 
-0.50376461991073995

>  <r_i_glide_lipo>  (1626) 
-1.68026774515674

>  <r_i_glide_metal>  (1626) 
-0

>  <r_i_glide_rewards>  (1626) 
-0.82947356194462796

>  <r_lp_Energy>  (1626) 
34.841558999999997

>  <r_qp_ACxDN^.5/SA>  (1626) 
0.011923700000000001

>  <r_qp_CIQPlogS>  (1626) 
-6.5369999999999999

>  <r_qp_EA(eV)>  (1626) 
1.1120000000000001

>  <r_qp_FISA>  (1626) 
85.593000000000004

>  <r_qp_FOSA>  (1626) 
89.189999999999998

>  <r_qp_IP(eV)>  (1626) 
7.5789999999999997

>  <r_qp_Jm>  (1626) 
0.0067852100672149401

>  <r_qp_PISA>  (1626) 
479.995

>  <r_qp_PSA>  (1626) 
67.034999999999997

>  <r_qp_PercentHumanOralAbsorption>  (1626) 
100

>  <r_qp_QPPCaco>  (1626) 
1528.345

>  <r_qp_QPPMDCK>  (1626) 
1928.8589999999999

>  <r_qp_QPlogBB>  (1626) 
-0.50700000000000001

>  <r_qp_QPlogHERG>  (1626) 
-7.4269999999999996

>  <r_qp_QPlogKhsa>  (1626) 
0.69199999999999995

>  <r_qp_QPlogKp>  (1626) 
-0.92600000000000005

>  <r_qp_QPlogPC16>  (1626) 
15.212999999999999

>  <r_qp_QPlogPo/w>  (1626) 
4.9589999999999996

>  <r_qp_QPlogPoct>  (1626) 
23.777999999999999

>  <r_qp_QPlogPw>  (1626) 
13.555

>  <r_qp_QPlogS>  (1626) 
-6.8479999999999999

>  <r_qp_QPpolrz>  (1626) 
45.683999999999997

>  <r_qp_SASA>  (1626) 
726.30499999999995

>  <r_qp_SAamideO>  (1626) 
0

>  <r_qp_SAfluorine>  (1626) 
0

>  <r_qp_WPSA>  (1626) 
71.528000000000006

>  <r_qp_accptHB>  (1626) 
5

>  <r_qp_dip^2/V>  (1626) 
0.089559100000000003

>  <r_qp_dipole>  (1626) 
10.627000000000001

>  <r_qp_donorHB>  (1626) 
3

>  <r_qp_glob>  (1626) 
0.77717729999999996

>  <r_qp_mol_MW>  (1626) 
402.88200000000001

>  <r_qp_volume>  (1626) 
1260.9880000000001

>  <r_sd_BIOSOLVEIT.INFINISEE\_FTREES\_SIMILARITY>  (1626) 
0.90900000000000003

>  <r_sd_BIOSOLVEIT.LOGP>  (1626) 
5.9257999999999997

>  <r_sd_BIOSOLVEIT.MOLECULAR\_WEIGHT>  (1626) 
402.88299999999998

>  <r_sd_BIOSOLVEIT.TPSA>  (1626) 
66.049999999999997

>  <i_epik_Tot_Q>  (1626) 
0

>  <i_epik_Tot_abs_Q>  (1626) 
0

>  <i_f3d_flags>  (1626) 
0

>  <i_i_glide_confnum>  (1626) 
4

>  <i_i_glide_lignum>  (1626) 
1256

>  <i_i_glide_posenum>  (1626) 
6

>  <i_i_glide_rotatable_bonds>  (1626) 
6

>  <i_lp_mmshare_version>  (1626) 
65135

>  <i_m_ct_format>  (1626) 
2

>  <i_m_source_file_index>  (1626) 
2670

>  <i_qp_#NandO>  (1626) 
5

>  <i_qp_#acid>  (1626) 
0

>  <i_qp_#amide>  (1626) 
0

>  <i_qp_#amidine>  (1626) 
0

>  <i_qp_#amine>  (1626) 
0

>  <i_qp_#in34>  (1626) 
0

>  <i_qp_#in56>  (1626) 
22

>  <i_qp_#metab>  (1626) 
6

>  <i_qp_#nonHatm>  (1626) 
29

>  <i_qp_#noncon>  (1626) 
0

>  <i_qp_#ringatoms>  (1626) 
22

>  <i_qp_#rotor>  (1626) 
5

>  <i_qp_#rtvFG>  (1626) 
0

>  <i_qp_#stars>  (1626) 
3

>  <i_qp_CNS>  (1626) 
-1

>  <i_qp_HumanOralAbsorption>  (1626) 
1

>  <i_qp_RuleOfFive>  (1626) 
0

>  <i_qp_RuleOfThree>  (1626) 
1

>  <i_sd_BIOSOLVEIT.INFINISEE\_RESULT\_RANK>  (1626) 
48901

>  <i_sd_version>  (1626) 
0

>  <b_lp_Chiralities_Consistent>  (1626) 
1

>  <b_sd_chiral_flag>  (1626) 
0

>  <canonical_id>  (1626) 
ATP-HTVS-FF081A1D735D

>  <compound_code>  (1626) 
85411

>  <title>  (1626) 
rxn502b____EMOL480353____EMOL7515103____EMOL48601815

>  <variant>  (1626) 
85411-1

>  <source_file>  (1626) 
运行/运行/ATP-VSW/ATP-VSW-DOCK_HTVS_1-003_lib/ATP-VSW-DOCK_HTVS_1-003_lib.mae

>  <canonical_smiles>  (1626) 
CNc1cc(Cl)ccc1Nc1cnc(NC(=O)c2ccccc2)c2ccccc12

>  <scaffold>  (1626) 
O=C(Nc1ncc(Nc2ccccc2)c2ccccc12)c1ccccc1

>  <molecular_formula>  (1626) 
C23H19ClN4O

$$$$
ATP-HTVS-FF167463AED4
     RDKit          3D

 60 63  0  0  0  0  0  0  0  0999 V2000
  199.8315  178.3853  152.8192 Cl  0  0  0  0  0  0  0  0  0  0  0  0
  198.4199  178.9501  151.9789 C   0  0  0  0  0  0  0  0  0  0  0  0
  198.2693  178.6452  150.5992 C   0  0  0  0  0  0  0  0  0  0  0  0
  199.2587  177.8536  149.8799 C   0  0  0  0  0  0  0  0  0  0  0  0
  200.0418  177.2258  149.3050 N   0  0  0  0  0  0  0  0  0  0  0  0
  197.1528  179.1128  149.8787 C   0  0  0  0  0  0  0  0  0  0  0  0
  196.1781  179.8869  150.5245 C   0  0  0  0  0  0  0  0  0  0  0  0
  196.3174  180.1896  151.8882 C   0  0  0  0  0  0  0  0  0  0  0  0
  197.4282  179.7368  152.6369 C   0  0  0  0  0  0  0  0  0  0  0  0
  197.5071  180.0932  154.1012 C   0  0  0  0  0  0  0  0  0  0  0  0
  197.9494  179.3112  154.9347 O   0  0  0  0  0  0  0  0  0  0  0  0
  197.1017  181.3494  154.3758 N   0  0  0  0  0  0  0  0  0  0  0  0
  197.1583  182.0720  155.6024 C   0  0  0  0  0  0  0  0  0  0  0  0
  197.1581  183.4910  155.5624 C   0  0  0  0  0  0  0  0  0  0  0  0
  197.1518  184.1532  154.3278 N   0  0  0  0  0  0  0  0  0  0  0  0
  198.4206  184.0889  153.6043 C   0  0  1  0  0  0  0  0  0  0  0  0
  198.3077  184.4011  152.1231 C   0  0  0  0  0  0  0  0  0  0  0  0
  199.4075  184.9822  151.4596 C   0  0  0  0  0  0  0  0  0  0  0  0
  199.3384  185.2740  150.0838 C   0  0  0  0  0  0  0  0  0  0  0  0
  198.1646  184.9798  149.3581 C   0  0  0  0  0  0  0  0  0  0  0  0
  197.0660  184.3879  150.0138 C   0  0  0  0  0  0  0  0  0  0  0  0
  197.1400  184.0914  151.3875 C   0  0  0  0  0  0  0  0  0  0  0  0
  198.0810  185.2988  147.8769 C   0  0  1  0  0  0  0  0  0  0  0  0
  198.1223  184.0810  147.0318 N   0  0  1  0  0  0  0  0  0  0  0  0
  197.7738  184.3778  145.6257 C   0  0  2  0  0  0  0  0  0  0  0  0
  199.3958  183.3292  147.1380 C   0  0  2  0  0  0  0  0  0  0  0  0
  197.1852  184.2203  156.7822 C   0  0  0  0  0  0  0  0  0  0  0  0
  197.2135  183.5098  158.0118 C   0  0  0  0  0  0  0  0  0  0  0  0
  197.2175  182.1609  157.9952 N   0  0  0  0  0  0  0  0  0  0  0  0
  197.1937  181.4350  156.8588 C   0  0  0  0  0  0  0  0  0  0  0  0
  197.2301  184.1974  159.2402 C   0  0  0  0  0  0  0  0  0  0  0  0
  197.2162  185.6057  159.2544 C   0  0  0  0  0  0  0  0  0  0  0  0
  197.1703  186.3245  158.0434 C   0  0  0  0  0  0  0  0  0  0  0  0
  197.1655  185.6378  156.8116 C   0  0  0  0  0  0  0  0  0  0  0  0
  197.0382  178.8810  148.8279 H   0  0  0  0  0  0  0  0  0  0  0  0
  195.3083  180.2308  149.9864 H   0  0  0  0  0  0  0  0  0  0  0  0
  195.5462  180.7800  152.3550 H   0  0  0  0  0  0  0  0  0  0  0  0
  196.8443  181.9040  153.5721 H   0  0  0  0  0  0  0  0  0  0  0  0
  196.3521  183.9226  153.7513 H   0  0  0  0  0  0  0  0  0  0  0  0
  199.1271  184.7810  154.0702 H   0  0  0  0  0  0  0  0  0  0  0  0
  198.8785  183.1006  153.6831 H   0  0  0  0  0  0  0  0  0  0  0  0
  200.3112  185.2055  152.0085 H   0  0  0  0  0  0  0  0  0  0  0  0
  200.1913  185.7245  149.5982 H   0  0  0  0  0  0  0  0  0  0  0  0
  196.1614  184.1627  149.4685 H   0  0  0  0  0  0  0  0  0  0  0  0
  196.2870  183.6302  151.8638 H   0  0  0  0  0  0  0  0  0  0  0  0
  197.1480  185.8375  147.7041 H   0  0  0  0  0  0  0  0  0  0  0  0
  198.8890  185.9738  147.5903 H   0  0  0  0  0  0  0  0  0  0  0  0
  198.5051  185.0524  145.1781 H   0  0  0  0  0  0  0  0  0  0  0  0
  196.7901  184.8457  145.5621 H   0  0  0  0  0  0  0  0  0  0  0  0
  197.7485  183.4667  145.0272 H   0  0  0  0  0  0  0  0  0  0  0  0
  200.2426  183.9420  146.8246 H   0  0  0  0  0  0  0  0  0  0  0  0
  199.3719  182.4390  146.5084 H   0  0  0  0  0  0  0  0  0  0  0  0
  199.5783  182.9942  148.1597 H   0  0  0  0  0  0  0  0  0  0  0  0
  197.1892  180.3617  156.9932 H   0  0  0  0  0  0  0  0  0  0  0  0
  197.2627  183.6536  160.1717 H   0  0  0  0  0  0  0  0  0  0  0  0
  197.2321  186.1368  160.1950 H   0  0  0  0  0  0  0  0  0  0  0  0
  197.1544  187.4045  158.0624 H   0  0  0  0  0  0  0  0  0  0  0  0
  197.1308  186.2023  155.8899 H   0  0  0  0  0  0  0  0  0  0  0  0
  197.3978  183.4709  147.3847 H   0  0  0  0  0  0  0  0  0  0  0  0
  197.2104  181.6500  158.8797 H   0  0  0  0  0  0  0  0  0  0  0  0
  1  2  1  0
  2  3  2  0
  2  9  1  0
  3  4  1  0
  3  6  1  0
  4  5  3  0
  6  7  2  0
  6 35  1  0
  7  8  1  0
  7 36  1  0
  8  9  2  0
  8 37  1  0
  9 10  1  0
 10 11  2  0
 10 12  1  0
 12 13  1  0
 12 38  1  0
 13 14  2  0
 13 30  1  0
 14 15  1  0
 14 27  1  0
 15 16  1  0
 15 39  1  0
 16 17  1  0
 16 40  1  1
 16 41  1  0
 17 18  1  0
 17 22  2  0
 18 19  2  0
 18 42  1  0
 19 20  1  0
 19 43  1  0
 20 21  2  0
 20 23  1  0
 21 22  1  0
 21 44  1  0
 22 45  1  0
 23 24  1  0
 23 46  1  1
 23 47  1  0
 24 25  1  0
 24 26  1  0
 24 59  1  1
 25 48  1  6
 25 49  1  0
 25 50  1  0
 26 51  1  6
 26 52  1  0
 26 53  1  0
 27 28  1  0
 27 34  2  0
 28 29  1  0
 28 31  2  0
 29 30  2  0
 29 60  1  0
 30 54  1  0
 31 32  1  0
 31 55  1  0
 32 33  2  0
 32 56  1  0
 33 34  1  0
 33 57  1  0
 34 58  1  0
M  CHG  2  24   1  29   1
M  END
>  <s_epik_cmdline>  (1627) 
J2VwaWtfcHl0aG9uJywgJy1waCcsICc3LjAwMDAwMCcsICctcGh0JywgJzIuMDAwMDAwJywgJy1tcycsICcxNicsICctdG4nLCAnOCcsICctbWEnLCAnMjAwJywgJy1pbWFlJywgJzxpbmZpbGUubWFlPicsICctb21hZScsICc8b3V0ZmlsZS5tYWU+Jw==

>  <s_epik_input>  (1627) 
Q2xjMWMoQyNOKVtjSF1bY0hdW2NIXWMxQyg9TylbTkhdYyhbY0hdbmMoYzIzKVtjSF1bY0hdW2NIXVtjSF0zKWMyW05IXVtDSDJdYzRbY0hdW2NIXWMoW2NIXVtjSF00KVtDSDJdTihbQ0gzXSlbQ0gzXQ==

>  <s_i_glide_gridfile>  (1627) 
ATP-Grid

>  <s_lp_Force_Field>  (1627) 
OPLS_2005

>  <s_lp_Variant>  (1627) 
rxn502b____EMOL49863568____EMOL30488121____EMOL50155899-1

>  <s_lp_label>  (1627) 
2314_sdstereoexpander_1_neutralizer_1_epik_1_stereoizer_1

>  <s_m_source_file>  (1627) 
ATP-VSW-LIGPREP-003-in.maegz

>  <s_sd_BIOSOLVEIT.INFINISEE\_QUERY\_NAME>  (1627) 
Ref-Lig

>  <s_sd_BIOSOLVEIT.INFINISEE\_QUERY\_SMILES>  (1627) 
S(c1nc2c(cc1C[NH2+]Cc3ccc(cc3)C[NH+](C)C)cccc2)Cc4ccccc4

>  <s_sd_BIOSOLVEIT.INFINISEE\_REACTION\_NAME>  (1627) 
rxn502b

>  <s_sd_BIOSOLVEIT.INFINISEE\_REAGENT1\_NAME>  (1627) 
EMOL49863568

>  <s_sd_BIOSOLVEIT.INFINISEE\_REAGENT1\_SMILES>  (1627) 
Clc1c(C#N)cccc1C(=O)O

>  <s_sd_BIOSOLVEIT.INFINISEE\_REAGENT2\_NAME>  (1627) 
EMOL30488121

>  <s_sd_BIOSOLVEIT.INFINISEE\_REAGENT2\_SMILES>  (1627) 
Brc1c(N)cnc2c1cccc2

>  <s_sd_BIOSOLVEIT.INFINISEE\_REAGENT3\_NAME>  (1627) 
EMOL50155899

>  <s_sd_BIOSOLVEIT.INFINISEE\_REAGENT3\_SMILES>  (1627) 
N(Cc1ccc(cc1)CN)(C)C

>  <s_sd_BIOSOLVEIT.INFINISEE\_SPACE>  (1627) 
eXplore_7tr_2022-12

>  <s_vsw_compound_code>  (1627) 
74019

>  <s_vsw_variant>  (1627) 
74019-1

>  <r_epik_Charging_Adjusted_Penalty>  (1627) 
0.235705393499727

>  <r_epik_Ionization_Penalty>  (1627) 
0.12230000000000001

>  <r_epik_Ionization_Penalty_Charging>  (1627) 
0.1203

>  <r_epik_Ionization_Penalty_Neutral>  (1627) 
0.0020999999999999999

>  <r_epik_State_Penalty>  (1627) 
0.1154

>  <r_i_docking_score>  (1627) 
-4.8839934298397898

>  <r_i_glide_ecoul>  (1627) 
-7.4574165344238299

>  <r_i_glide_eff_state_penalty>  (1627) 
0.1154

>  <r_i_glide_einternal>  (1627) 
4.1468782424926802

>  <r_i_glide_emodel>  (1627) 
-61.747426269785301

>  <r_i_glide_energy>  (1627) 
-44.6273002624512

>  <r_i_glide_erotb>  (1627) 
0.63526964846529599

>  <r_i_glide_esite>  (1627) 
-0.129120044998071

>  <r_i_glide_evdw>  (1627) 
-37.169883728027301

>  <r_i_glide_gscore>  (1627) 
-4.99939342983979

>  <r_i_glide_hbond>  (1627) 
-0.033160654753827103

>  <r_i_glide_ligand_efficiency>  (1627) 
-0.14364686558352299

>  <r_i_glide_ligand_efficiency_ln>  (1627) 
-1.0790111400271101

>  <r_i_glide_ligand_efficiency_sa>  (1627) 
-0.46536008041389298

>  <r_i_glide_lipo>  (1627) 
-2.0369163338312402

>  <r_i_glide_metal>  (1627) 
-0

>  <r_i_glide_rewards>  (1627) 
-0.458359378157007

>  <r_lp_Energy>  (1627) 
46.360436

>  <r_qp_ACxDN^.5/SA>  (1627) 
0.0144079

>  <r_qp_CIQPlogS>  (1627) 
-6.7919999999999998

>  <r_qp_EA(eV)>  (1627) 
1.1930000000000001

>  <r_qp_FISA>  (1627) 
134.56800000000001

>  <r_qp_FOSA>  (1627) 
200.28800000000001

>  <r_qp_IP(eV)>  (1627) 
8.6969999999999992

>  <r_qp_Jm>  (1627) 
3.3732551013654397e-05

>  <r_qp_PISA>  (1627) 
398.04000000000002

>  <r_qp_PSA>  (1627) 
85.364000000000004

>  <r_qp_PercentHumanOralAbsorption>  (1627) 
88.765000000000001

>  <r_qp_QPPCaco>  (1627) 
130.82599999999999

>  <r_qp_QPPMDCK>  (1627) 
117.557

>  <r_qp_QPlogBB>  (1627) 
-0.83699999999999997

>  <r_qp_QPlogHERG>  (1627) 
-7.5869999999999997

>  <r_qp_QPlogKhsa>  (1627) 
0.59499999999999997

>  <r_qp_QPlogKp>  (1627) 
-3.8919999999999999

>  <r_qp_QPlogPC16>  (1627) 
16.332000000000001

>  <r_qp_QPlogPo/w>  (1627) 
4.0880000000000001

>  <r_qp_QPlogPoct>  (1627) 
25.713000000000001

>  <r_qp_QPlogPw>  (1627) 
14.295

>  <r_qp_QPlogS>  (1627) 
-6.2519999999999998

>  <r_qp_QPpolrz>  (1627) 
50.429000000000002

>  <r_qp_SASA>  (1627) 
785.245

>  <r_qp_SAamideO>  (1627) 
0

>  <r_qp_SAfluorine>  (1627) 
0

>  <r_qp_WPSA>  (1627) 
52.348999999999997

>  <r_qp_accptHB>  (1627) 
8

>  <r_qp_dip^2/V>  (1627) 
0.095764600000000005

>  <r_qp_dipole>  (1627) 
11.773

>  <r_qp_donorHB>  (1627) 
2

>  <r_qp_glob>  (1627) 
0.78799090000000005

>  <r_qp_mol_MW>  (1627) 
469.97199999999998

>  <r_qp_volume>  (1627) 
1447.2449999999999

>  <r_sd_BIOSOLVEIT.INFINISEE\_FTREES\_SIMILARITY>  (1627) 
0.92200000000000004

>  <r_sd_BIOSOLVEIT.LOGP>  (1627) 
4.2687799999999996

>  <r_sd_BIOSOLVEIT.MOLECULAR\_WEIGHT>  (1627) 
470.98200000000003

>  <r_sd_BIOSOLVEIT.TPSA>  (1627) 
82.25

>  <i_epik_Tot_Q>  (1627) 
2

>  <i_epik_Tot_abs_Q>  (1627) 
2

>  <i_f3d_flags>  (1627) 
0

>  <i_i_glide_confnum>  (1627) 
3

>  <i_i_glide_lignum>  (1627) 
951

>  <i_i_glide_posenum>  (1627) 
9

>  <i_i_glide_rotatable_bonds>  (1627) 
8

>  <i_lp_mmshare_version>  (1627) 
65135

>  <i_m_ct_format>  (1627) 
2

>  <i_m_source_file_index>  (1627) 
2314

>  <i_qp_#NandO>  (1627) 
6

>  <i_qp_#acid>  (1627) 
0

>  <i_qp_#amide>  (1627) 
0

>  <i_qp_#amidine>  (1627) 
0

>  <i_qp_#amine>  (1627) 
1

>  <i_qp_#in34>  (1627) 
0

>  <i_qp_#in56>  (1627) 
22

>  <i_qp_#metab>  (1627) 
6

>  <i_qp_#nonHatm>  (1627) 
34

>  <i_qp_#noncon>  (1627) 
0

>  <i_qp_#ringatoms>  (1627) 
22

>  <i_qp_#rotor>  (1627) 
8

>  <i_qp_#rtvFG>  (1627) 
0

>  <i_qp_#stars>  (1627) 
0

>  <i_qp_CNS>  (1627) 
0

>  <i_qp_HumanOralAbsorption>  (1627) 
1

>  <i_qp_RuleOfFive>  (1627) 
0

>  <i_qp_RuleOfThree>  (1627) 
1

>  <i_sd_BIOSOLVEIT.INFINISEE\_RESULT\_RANK>  (1627) 
12950

>  <i_sd_version>  (1627) 
0

>  <b_lp_Chiralities_Consistent>  (1627) 
1

>  <b_sd_chiral_flag>  (1627) 
0

>  <canonical_id>  (1627) 
ATP-HTVS-FF167463AED4

>  <compound_code>  (1627) 
74019

>  <title>  (1627) 
rxn502b____EMOL49863568____EMOL30488121____EMOL50155899

>  <variant>  (1627) 
74019-1

>  <source_file>  (1627) 
运行/运行/ATP-VSW/ATP-VSW-DOCK_HTVS_1-003_lib/ATP-VSW-DOCK_HTVS_1-003_lib.mae

>  <canonical_smiles>  (1627) 
C[NH+](C)Cc1ccc(CNc2c(NC(=O)c3cccc(C#N)c3Cl)c[nH+]c3ccccc23)cc1

>  <scaffold>  (1627) 
O=C(Nc1c[nH+]c2ccccc2c1NCc1ccccc1)c1ccccc1

>  <molecular_formula>  (1627) 
C27H26ClN5O+2

$$$$
ATP-HTVS-FF1C1E5A01F9
     RDKit          3D

 69 72  0  0  0  0  0  0  0  0999 V2000
  203.9276  173.3612  154.5771 S   0  0  0  0  0  0  0  0  0  0  0  0
  202.2203  173.0339  154.0867 C   0  0  1  0  0  0  0  0  0  0  0  0
  201.5817  174.2827  153.5202 C   0  0  0  0  0  0  0  0  0  0  0  0
  201.3769  174.3918  152.1215 C   0  0  0  0  0  0  0  0  0  0  0  0
  200.7797  175.5566  151.5714 C   0  0  0  0  0  0  0  0  0  0  0  0
  200.3501  176.5717  152.4645 C   0  0  0  0  0  0  0  0  0  0  0  0
  200.5790  176.4648  153.8539 C   0  0  0  0  0  0  0  0  0  0  0  0
  201.2106  175.3267  154.3893 C   0  0  0  0  0  0  0  0  0  0  0  0
  200.6623  175.7322  150.0745 C   0  0  0  0  0  0  0  0  0  0  0  0
  201.1711  174.9231  149.2959 O   0  0  0  0  0  0  0  0  0  0  0  0
  200.0235  176.8524  149.6781 N   0  0  0  0  0  0  0  0  0  0  0  0
  199.9202  177.4476  148.3873 C   0  0  0  0  0  0  0  0  0  0  0  0
  199.6111  178.8322  148.2994 C   0  0  0  0  0  0  0  0  0  0  0  0
  199.3799  179.5754  149.4720 N   0  0  0  0  0  0  0  0  0  0  0  0
  198.1062  179.3040  150.1307 C   0  0  1  0  0  0  0  0  0  0  0  0
  197.9526  180.0986  151.4114 C   0  0  0  0  0  0  0  0  0  0  0  0
  196.8033  180.8891  151.6300 C   0  0  0  0  0  0  0  0  0  0  0  0
  196.6801  181.5478  152.8677 C   0  0  0  0  0  0  0  0  0  0  0  0
  197.6552  181.3982  153.9003 C   0  0  0  0  0  0  0  0  0  0  0  0
  198.8212  180.6417  153.6451 C   0  0  0  0  0  0  0  0  0  0  0  0
  198.9738  180.0126  152.4051 C   0  0  0  0  0  0  0  0  0  0  0  0
  197.4517  182.0804  155.2472 C   0  0  1  0  0  0  0  0  0  0  0  0
  197.3941  181.1660  156.4351 N   0  0  1  0  0  0  0  0  0  0  0  0
  198.5719  180.2536  156.5586 C   0  0  1  0  0  0  0  0  0  0  0  0
  199.9286  181.0060  156.6648 C   0  0  2  0  0  0  0  0  0  0  0  0
  197.1324  181.8855  157.7247 C   0  0  1  0  0  0  0  0  0  0  0  0
  195.8090  182.6535  157.7801 C   0  0  2  0  0  0  0  0  0  0  0  0
  199.5446  179.4575  147.0278 C   0  0  0  0  0  0  0  0  0  0  0  0
  199.7860  178.6635  145.8776 C   0  0  0  0  0  0  0  0  0  0  0  0
  200.0645  177.3581  146.0013 N   0  0  0  0  0  0  0  0  0  0  0  0
  200.1379  176.7235  147.1887 C   0  0  0  0  0  0  0  0  0  0  0  0
  199.7220  179.2285  144.5973 C   0  0  0  0  0  0  0  0  0  0  0  0
  199.4106  180.5951  144.4381 C   0  0  0  0  0  0  0  0  0  0  0  0
  199.1625  181.3893  145.5732 C   0  0  0  0  0  0  0  0  0  0  0  0
  199.2289  180.8265  146.8631 C   0  0  0  0  0  0  0  0  0  0  0  0
  204.2595  172.1020  154.7526 H   0  0  0  0  0  0  0  0  0  0  0  0
  202.2260  172.2316  153.3326 H   0  0  0  0  0  0  0  0  0  0  0  0
  201.6422  172.6637  154.9422 H   0  0  0  0  0  0  0  0  0  0  0  0
  201.6948  173.5969  151.4644 H   0  0  0  0  0  0  0  0  0  0  0  0
  199.8550  177.4658  152.1014 H   0  0  0  0  0  0  0  0  0  0  0  0
  200.2433  177.2613  154.5095 H   0  0  0  0  0  0  0  0  0  0  0  0
  201.3444  175.2413  155.4597 H   0  0  0  0  0  0  0  0  0  0  0  0
  199.6906  177.4477  150.4228 H   0  0  0  0  0  0  0  0  0  0  0  0
  199.5670  180.5689  149.3955 H   0  0  0  0  0  0  0  0  0  0  0  0
  197.2866  179.5177  149.4404 H   0  0  0  0  0  0  0  0  0  0  0  0
  198.0325  178.2429  150.4108 H   0  0  0  0  0  0  0  0  0  0  0  0
  196.0454  181.0095  150.8518 H   0  0  0  0  0  0  0  0  0  0  0  0
  195.8001  182.1796  153.0424 H   0  0  0  0  0  0  0  0  0  0  0  0
  199.5848  180.5044  154.4014 H   0  0  0  0  0  0  0  0  0  0  0  0
  199.8784  179.4289  152.2297 H   0  0  0  0  0  0  0  0  0  0  0  0
  198.2138  182.8573  155.4040 H   0  0  0  0  0  0  0  0  0  0  0  0
  196.5212  182.6409  155.1566 H   0  0  0  0  0  0  0  0  0  0  0  0
  198.4651  179.6816  157.5011 H   0  0  0  0  0  0  0  0  0  0  0  0
  198.5997  179.6115  155.7175 H   0  0  0  0  0  0  0  0  0  0  0  0
  200.7637  180.3056  156.5891 H   0  0  0  0  0  0  0  0  0  0  0  0
  200.0502  181.5524  157.5890 H   0  0  0  0  0  0  0  0  0  0  0  0
  200.0621  181.6992  155.8513 H   0  0  0  0  0  0  0  0  0  0  0  0
  197.0872  181.1291  158.5204 H   0  0  0  0  0  0  0  0  0  0  0  0
  197.9602  182.5334  157.9519 H   0  0  0  0  0  0  0  0  0  0  0  0
  195.6722  183.1148  158.7653 H   0  0  0  0  0  0  0  0  0  0  0  0
  194.9598  181.9902  157.6018 H   0  0  0  0  0  0  0  0  0  0  0  0
  195.7646  183.4644  157.0490 H   0  0  0  0  0  0  0  0  0  0  0  0
  200.3716  175.6708  147.1427 H   0  0  0  0  0  0  0  0  0  0  0  0
  199.8964  178.5727  143.7396 H   0  0  0  0  0  0  0  0  0  0  0  0
  199.3433  181.0307  143.4570 H   0  0  0  0  0  0  0  0  0  0  0  0
  198.9040  182.4321  145.4602 H   0  0  0  0  0  0  0  0  0  0  0  0
  199.0212  181.4664  147.7192 H   0  0  0  0  0  0  0  0  0  0  0  0
  196.5927  180.5461  156.3397 H   0  0  0  0  0  0  0  0  0  0  0  0
  200.2110  176.8251  145.1379 H   0  0  0  0  0  0  0  0  0  0  0  0
  1  2  1  0
  1 36  1  0
  2  3  1  0
  2 37  1  6
  2 38  1  0
  3  4  1  0
  3  8  2  0
  4  5  2  0
  4 39  1  0
  5  6  1  0
  5  9  1  0
  6  7  2  0
  6 40  1  0
  7  8  1  0
  7 41  1  0
  8 42  1  0
  9 10  2  0
  9 11  1  0
 11 12  1  0
 11 43  1  0
 12 13  2  0
 12 31  1  0
 13 14  1  0
 13 28  1  0
 14 15  1  0
 14 44  1  0
 15 16  1  0
 15 45  1  6
 15 46  1  0
 16 17  1  0
 16 21  2  0
 17 18  2  0
 17 47  1  0
 18 19  1  0
 18 48  1  0
 19 20  2  0
 19 22  1  0
 20 21  1  0
 20 49  1  0
 21 50  1  0
 22 23  1  0
 22 51  1  1
 22 52  1  0
 23 24  1  0
 23 26  1  0
 23 68  1  6
 24 25  1  0
 24 53  1  1
 24 54  1  0
 25 55  1  6
 25 56  1  0
 25 57  1  0
 26 27  1  0
 26 58  1  1
 26 59  1  0
 27 60  1  1
 27 61  1  0
 27 62  1  0
 28 29  1  0
 28 35  2  0
 29 30  1  0
 29 32  2  0
 30 31  2  0
 30 69  1  0
 31 63  1  0
 32 33  1  0
 32 64  1  0
 33 34  2  0
 33 65  1  0
 34 35  1  0
 34 66  1  0
 35 67  1  0
M  CHG  2  23   1  30   1
M  END
>  <s_epik_cmdline>  (1628) 
J2VwaWtfcHl0aG9uJywgJy1waCcsICc3LjAwMDAwMCcsICctcGh0JywgJzIuMDAwMDAwJywgJy1tcycsICcxNicsICctdG4nLCAnOCcsICctbWEnLCAnMjAwJywgJy1pbWFlJywgJzxpbmZpbGUubWFlPicsICctb21hZScsICc8b3V0ZmlsZS5tYWU+Jw==

>  <s_epik_input>  (1628) 
W1NIXVtDSDJdYzFbY0hdYyhbY0hdW2NIXVtjSF0xKUMoPU8pW05IXWMoW2NIXW5jKGMyMylbY0hdW2NIXVtjSF1bY0hdMyljMltOSF1bQ0gyXWM0W2NIXVtjSF1jKFtjSF1bY0hdNClbQ0gyXU4oW0NIMl1bQ0gzXSlbQ0gyXVtDSDNd

>  <s_i_glide_gridfile>  (1628) 
ATP-Grid

>  <s_lp_Force_Field>  (1628) 
OPLS_2005

>  <s_lp_Variant>  (1628) 
rxn502b____EMOL31406107____EMOL30488121____EMOL2868412-1

>  <s_lp_label>  (1628) 
2485_sdstereoexpander_1_neutralizer_1_epik_1_stereoizer_1

>  <s_m_source_file>  (1628) 
ATP-VSW-LIGPREP-003-in.maegz

>  <s_sd_BIOSOLVEIT.INFINISEE\_QUERY\_NAME>  (1628) 
Ref-Lig

>  <s_sd_BIOSOLVEIT.INFINISEE\_QUERY\_SMILES>  (1628) 
S(c1nc2c(cc1C[NH2+]Cc3ccc(cc3)C[NH+](C)C)cccc2)Cc4ccccc4

>  <s_sd_BIOSOLVEIT.INFINISEE\_REACTION\_NAME>  (1628) 
rxn502b

>  <s_sd_BIOSOLVEIT.INFINISEE\_REAGENT1\_NAME>  (1628) 
EMOL31406107

>  <s_sd_BIOSOLVEIT.INFINISEE\_REAGENT1\_SMILES>  (1628) 
SCc1cc(ccc1)C(=O)O

>  <s_sd_BIOSOLVEIT.INFINISEE\_REAGENT2\_NAME>  (1628) 
EMOL30488121

>  <s_sd_BIOSOLVEIT.INFINISEE\_REAGENT2\_SMILES>  (1628) 
Brc1c(N)cnc2c1cccc2

>  <s_sd_BIOSOLVEIT.INFINISEE\_REAGENT3\_NAME>  (1628) 
EMOL2868412

>  <s_sd_BIOSOLVEIT.INFINISEE\_REAGENT3\_SMILES>  (1628) 
N(Cc1ccc(cc1)CN)(CC)CC

>  <s_sd_BIOSOLVEIT.INFINISEE\_SPACE>  (1628) 
eXplore_7tr_2022-12

>  <s_vsw_compound_code>  (1628) 
79491

>  <s_vsw_variant>  (1628) 
79491-1

>  <r_epik_Charging_Adjusted_Penalty>  (1628) 
0.19199600449860099

>  <r_epik_Ionization_Penalty>  (1628) 
0.1017

>  <r_epik_Ionization_Penalty_Charging>  (1628) 
0.097000000000000003

>  <r_epik_Ionization_Penalty_Neutral>  (1628) 
0.0047000000000000002

>  <r_epik_State_Penalty>  (1628) 
0.095000000000000001

>  <r_i_docking_score>  (1628) 
-4.00357618948129

>  <r_i_glide_ecoul>  (1628) 
-12.119605064392101

>  <r_i_glide_eff_state_penalty>  (1628) 
0.095000000000000001

>  <r_i_glide_einternal>  (1628) 
4.1739020347595197

>  <r_i_glide_emodel>  (1628) 
-60.0188331640352

>  <r_i_glide_energy>  (1628) 
-43.602429389953599

>  <r_i_glide_erotb>  (1628) 
0.77228237082231999

>  <r_i_glide_esite>  (1628) 
-0.17603589504400699

>  <r_i_glide_evdw>  (1628) 
-31.482824325561499

>  <r_i_glide_gscore>  (1628) 
-4.0985761894812898

>  <r_i_glide_hbond>  (1628) 
-0.108434738719518

>  <r_i_glide_ligand_efficiency>  (1628) 
-0.114387891128037

>  <r_i_glide_ligand_efficiency_ln>  (1628) 
-0.87887382817730997

>  <r_i_glide_ligand_efficiency_sa>  (1628) 
-0.37417037651900598

>  <r_i_glide_lipo>  (1628) 
-0.63166809086878595

>  <r_i_glide_metal>  (1628) 
-0

>  <r_i_glide_rewards>  (1628) 
-0.56263785973440805

>  <r_lp_Energy>  (1628) 
37.527025000000002

>  <r_qp_ACxDN^.5/SA>  (1628) 
0.016285899999999999

>  <r_qp_CIQPlogS>  (1628) 
-6.4050000000000002

>  <r_qp_EA(eV)>  (1628) 
0.95599999999999996

>  <r_qp_FISA>  (1628) 
54.695999999999998

>  <r_qp_FOSA>  (1628) 
263.315

>  <r_qp_IP(eV)>  (1628) 
8.4130000000000003

>  <r_qp_Jm>  (1628) 
0.390370206000558

>  <r_qp_PISA>  (1628) 
363.30200000000002

>  <r_qp_PSA>  (1628) 
56.789000000000001

>  <r_qp_PercentHumanOralAbsorption>  (1628) 
100

>  <r_qp_QPPCaco>  (1628) 
748.36699999999996

>  <r_qp_QPPMDCK>  (1628) 
645.41499999999996

>  <r_qp_QPlogBB>  (1628) 
-0.098000000000000004

>  <r_qp_QPlogHERG>  (1628) 
-6.2119999999999997

>  <r_qp_QPlogKhsa>  (1628) 
0.68600000000000005

>  <r_qp_QPlogKp>  (1628) 
-2.254

>  <r_qp_QPlogPC16>  (1628) 
15.427

>  <r_qp_QPlogPo/w>  (1628) 
4.915

>  <r_qp_QPlogPoct>  (1628) 
24.478000000000002

>  <r_qp_QPlogPw>  (1628) 
12.875999999999999

>  <r_qp_QPlogS>  (1628) 
-3.8399999999999999

>  <r_qp_QPpolrz>  (1628) 
48.414000000000001

>  <r_qp_SASA>  (1628) 
719.22500000000002

>  <r_qp_SAamideO>  (1628) 
0

>  <r_qp_SAfluorine>  (1628) 
0

>  <r_qp_WPSA>  (1628) 
37.911000000000001

>  <r_qp_accptHB>  (1628) 
7

>  <r_qp_dip^2/V>  (1628) 
0.032345499999999999

>  <r_qp_dipole>  (1628) 
6.8559999999999999

>  <r_qp_donorHB>  (1628) 
2.7999999999999998

>  <r_qp_glob>  (1628) 
0.86273089999999997

>  <r_qp_mol_MW>  (1628) 
484.65800000000002

>  <r_qp_volume>  (1628) 
1453.3230000000001

>  <r_sd_BIOSOLVEIT.INFINISEE\_FTREES\_SIMILARITY>  (1628) 
0.91500000000000004

>  <r_sd_BIOSOLVEIT.LOGP>  (1628) 
5.3338999999999999

>  <r_sd_BIOSOLVEIT.MOLECULAR\_WEIGHT>  (1628) 
485.67200000000003

>  <r_sd_BIOSOLVEIT.TPSA>  (1628) 
58.460000000000001

>  <i_epik_Tot_Q>  (1628) 
2

>  <i_epik_Tot_abs_Q>  (1628) 
2

>  <i_f3d_flags>  (1628) 
0

>  <i_i_glide_confnum>  (1628) 
9

>  <i_i_glide_lignum>  (1628) 
1074

>  <i_i_glide_posenum>  (1628) 
9

>  <i_i_glide_rotatable_bonds>  (1628) 
12

>  <i_lp_mmshare_version>  (1628) 
65135

>  <i_m_ct_format>  (1628) 
2

>  <i_m_source_file_index>  (1628) 
2485

>  <i_qp_#NandO>  (1628) 
5

>  <i_qp_#acid>  (1628) 
0

>  <i_qp_#amide>  (1628) 
0

>  <i_qp_#amidine>  (1628) 
0

>  <i_qp_#amine>  (1628) 
1

>  <i_qp_#in34>  (1628) 
0

>  <i_qp_#in56>  (1628) 
22

>  <i_qp_#metab>  (1628) 
8

>  <i_qp_#nonHatm>  (1628) 
35

>  <i_qp_#noncon>  (1628) 
0

>  <i_qp_#ringatoms>  (1628) 
22

>  <i_qp_#rotor>  (1628) 
11

>  <i_qp_#rtvFG>  (1628) 
1

>  <i_qp_#stars>  (1628) 
0

>  <i_qp_CNS>  (1628) 
0

>  <i_qp_HumanOralAbsorption>  (1628) 
3

>  <i_qp_RuleOfFive>  (1628) 
0

>  <i_qp_RuleOfThree>  (1628) 
1

>  <i_sd_BIOSOLVEIT.INFINISEE\_RESULT\_RANK>  (1628) 
29141

>  <i_sd_version>  (1628) 
0

>  <b_lp_Chiralities_Consistent>  (1628) 
1

>  <b_sd_chiral_flag>  (1628) 
0

>  <canonical_id>  (1628) 
ATP-HTVS-FF1C1E5A01F9

>  <compound_code>  (1628) 
79491

>  <title>  (1628) 
rxn502b____EMOL31406107____EMOL30488121____EMOL2868412

>  <variant>  (1628) 
79491-1

>  <source_file>  (1628) 
运行/运行/ATP-VSW/ATP-VSW-DOCK_HTVS_1-003_lib/ATP-VSW-DOCK_HTVS_1-003_lib.mae

>  <canonical_smiles>  (1628) 
CC[NH+](CC)Cc1ccc(CNc2c(NC(=O)c3cccc(CS)c3)c[nH+]c3ccccc23)cc1

>  <scaffold>  (1628) 
O=C(Nc1c[nH+]c2ccccc2c1NCc1ccccc1)c1ccccc1

>  <molecular_formula>  (1628) 
C29H34N4OS+2

$$$$
ATP-HTVS-FF63783F1DD1
     RDKit          3D

 59 62  0  0  0  0  0  0  0  0999 V2000
  197.2372  184.4005  155.5314 O   0  0  0  0  0  0  0  0  0  0  0  0
  197.3966  183.1847  155.6423 C   0  0  0  0  0  0  0  0  0  0  0  0
  197.7253  182.4780  156.7461 N   0  0  0  0  0  0  0  0  0  0  0  0
  197.8610  181.0262  156.4987 C   0  0  1  0  0  0  0  0  0  0  0  0
  197.4583  180.9185  155.0434 C   0  0  0  0  0  0  0  0  0  0  0  0
  197.2156  182.1906  154.5577 C   0  0  0  0  0  0  0  0  0  0  0  0
  196.8268  182.4205  153.2259 C   0  0  0  0  0  0  0  0  0  0  0  0
  196.7059  181.2976  152.3738 C   0  0  0  0  0  0  0  0  0  0  0  0
  196.9535  179.9916  152.8672 C   0  0  0  0  0  0  0  0  0  0  0  0
  197.3298  179.7885  154.2154 C   0  0  0  0  0  0  0  0  0  0  0  0
  199.3002  180.5142  156.7313 C   0  0  1  0  0  0  0  0  0  0  0  0
  199.3989  179.0478  156.5569 N   0  0  1  0  0  0  0  0  0  0  0  0
  200.7684  178.5138  156.7055 C   0  0  1  0  0  0  0  0  0  0  0  0
  200.9359  177.2635  155.8694 C   0  0  0  0  0  0  0  0  0  0  0  0
  200.6840  177.3139  154.4810 C   0  0  0  0  0  0  0  0  0  0  0  0
  200.8331  176.1535  153.6887 C   0  0  0  0  0  0  0  0  0  0  0  0
  201.2803  174.9569  154.2876 C   0  0  0  0  0  0  0  0  0  0  0  0
  201.5579  174.9136  155.6661 C   0  0  0  0  0  0  0  0  0  0  0  0
  201.3816  176.0634  156.4563 C   0  0  0  0  0  0  0  0  0  0  0  0
  200.5585  176.1878  152.2132 C   0  0  0  0  0  0  0  0  0  0  0  0
  201.1792  175.4566  151.4413 O   0  0  0  0  0  0  0  0  0  0  0  0
  199.5529  176.9921  151.8367 N   0  0  0  0  0  0  0  0  0  0  0  0
  199.0362  177.1372  150.4805 C   0  0  1  0  0  0  0  0  0  0  0  0
  198.3585  175.8450  149.9938 C   0  0  2  0  0  0  0  0  0  0  0  0
  197.7890  183.0200  158.1031 C   0  0  1  0  0  0  0  0  0  0  0  0
  196.4859  183.5663  158.6663 C   0  0  0  0  0  0  0  0  0  0  0  0
  196.5314  184.6235  159.6012 C   0  0  0  0  0  0  0  0  0  0  0  0
  195.3422  185.1514  160.1331 C   0  0  0  0  0  0  0  0  0  0  0  0
  194.1017  184.6194  159.7389 C   0  0  0  0  0  0  0  0  0  0  0  0
  194.0486  183.5490  158.8276 C   0  0  0  0  0  0  0  0  0  0  0  0
  195.2372  183.0188  158.2956 C   0  0  0  0  0  0  0  0  0  0  0  0
  198.7767  178.5724  157.2097 H   0  0  0  0  0  0  0  0  0  0  0  0
  197.1529  180.5051  157.1343 H   0  0  0  0  0  0  0  0  0  0  0  0
  196.6112  183.4229  152.8772 H   0  0  0  0  0  0  0  0  0  0  0  0
  196.4025  181.4401  151.3460 H   0  0  0  0  0  0  0  0  0  0  0  0
  196.8391  179.1421  152.2089 H   0  0  0  0  0  0  0  0  0  0  0  0
  197.4987  178.7914  154.5909 H   0  0  0  0  0  0  0  0  0  0  0  0
  199.9682  181.0053  156.0212 H   0  0  0  0  0  0  0  0  0  0  0  0
  199.6869  180.7798  157.7165 H   0  0  0  0  0  0  0  0  0  0  0  0
  201.5128  179.2356  156.3612 H   0  0  0  0  0  0  0  0  0  0  0  0
  200.9754  178.3237  157.7621 H   0  0  0  0  0  0  0  0  0  0  0  0
  200.3884  178.2488  154.0254 H   0  0  0  0  0  0  0  0  0  0  0  0
  201.4129  174.0669  153.6877 H   0  0  0  0  0  0  0  0  0  0  0  0
  201.9147  173.9988  156.1131 H   0  0  0  0  0  0  0  0  0  0  0  0
  201.5908  176.0190  157.5141 H   0  0  0  0  0  0  0  0  0  0  0  0
  199.1174  177.5552  152.5512 H   0  0  0  0  0  0  0  0  0  0  0  0
  198.3102  177.9528  150.4852 H   0  0  0  0  0  0  0  0  0  0  0  0
  199.8387  177.4399  149.8026 H   0  0  0  0  0  0  0  0  0  0  0  0
  197.9495  175.9664  148.9906 H   0  0  0  0  0  0  0  0  0  0  0  0
  197.5519  175.5472  150.6552 H   0  0  0  0  0  0  0  0  0  0  0  0
  199.0654  175.0180  149.9519 H   0  0  0  0  0  0  0  0  0  0  0  0
  198.0934  182.2397  158.7933 H   0  0  0  0  0  0  0  0  0  0  0  0
  198.5536  183.7988  158.1265 H   0  0  0  0  0  0  0  0  0  0  0  0
  197.4806  185.0421  159.9055 H   0  0  0  0  0  0  0  0  0  0  0  0
  195.3810  185.9709  160.8352 H   0  0  0  0  0  0  0  0  0  0  0  0
  193.1845  185.0374  160.1280 H   0  0  0  0  0  0  0  0  0  0  0  0
  193.0961  183.1472  158.5120 H   0  0  0  0  0  0  0  0  0  0  0  0
  195.1727  182.2048  157.5862 H   0  0  0  0  0  0  0  0  0  0  0  0
  199.0748  178.8286  155.6303 H   0  0  0  0  0  0  0  0  0  0  0  0
  1  2  2  0
  2  3  1  0
  2  6  1  0
  3  4  1  0
  3 25  1  0
  4  5  1  0
  4 11  1  0
  4 33  1  1
  5  6  1  0
  5 10  2  0
  6  7  2  0
  7  8  1  0
  7 34  1  0
  8  9  2  0
  8 35  1  0
  9 10  1  0
  9 36  1  0
 10 37  1  0
 11 12  1  0
 11 38  1  6
 11 39  1  0
 12 13  1  0
 12 32  1  1
 12 59  1  0
 13 14  1  0
 13 40  1  6
 13 41  1  0
 14 15  1  0
 14 19  2  0
 15 16  2  0
 15 42  1  0
 16 17  1  0
 16 20  1  0
 17 18  2  0
 17 43  1  0
 18 19  1  0
 18 44  1  0
 19 45  1  0
 20 21  2  0
 20 22  1  0
 22 23  1  0
 22 46  1  0
 23 24  1  0
 23 47  1  1
 23 48  1  0
 24 49  1  6
 24 50  1  0
 24 51  1  0
 25 26  1  0
 25 52  1  1
 25 53  1  0
 26 27  2  0
 26 31  1  0
 27 28  1  0
 27 54  1  0
 28 29  2  0
 28 55  1  0
 29 30  1  0
 29 56  1  0
 30 31  2  0
 30 57  1  0
 31 58  1  0
M  CHG  1  12   1
M  END
>  <s_epik_cmdline>  (1629) 
J2VwaWtfcHl0aG9uJywgJy1waCcsICc3LjAwMDAwMCcsICctcGh0JywgJzIuMDAwMDAwJywgJy1tcycsICcxNicsICctdG4nLCAnOCcsICctbWEnLCAnMjAwJywgJy1pbWFlJywgJzxpbmZpbGUubWFlPicsICctb21hZScsICc8b3V0ZmlsZS5tYWU+Jw==

>  <s_epik_input>  (1629) 
W2NIXTFbY0hdW2NIXVtjSF1bY0hdYzFbQ0gyXU4oQyg9TyljKGMyMylbY0hdW2NIXVtjSF1bY0hdMylbQ0BASF0yW0NIMl1bTkhdW0NIMl1jNFtjSF1jKFtjSF1bY0hdW2NIXTQpQyg9TylbTkhdW0NIMl1bQ0gzXQ==

>  <s_i_glide_gridfile>  (1629) 
ATP-Grid

>  <s_lp_Force_Field>  (1629) 
OPLS_2005

>  <s_lp_Variant>  (1629) 
m_270004bbb____12219716____13763922-2

>  <s_lp_label>  (1629) 
808_sdstereoexpander_2_neutralizer_1_epik_1_stereoizer_1

>  <s_m_source_file>  (1629) 
ATP-VSW-LIGPREP-001-in.maegz

>  <s_sd_BIOSOLVEIT.INFINISEE\_QUERY\_NAME>  (1629) 
Ref-Lig

>  <s_sd_BIOSOLVEIT.INFINISEE\_QUERY\_SMILES>  (1629) 
S(c1nc2c(cc1C[NH2+]Cc3ccc(cc3)C[NH+](C)C)cccc2)Cc4ccccc4

>  <s_sd_BIOSOLVEIT.INFINISEE\_REACTION\_NAME>  (1629) 
m_270004bbb

>  <s_sd_BIOSOLVEIT.INFINISEE\_REAGENT1\_SMILES>  (1629) 
[R1*]NCC1N(C(=O)c2c1cccc2)Cc3ccccc3

>  <s_sd_BIOSOLVEIT.INFINISEE\_REAGENT2\_SMILES>  (1629) 
[R1*]Cc1cc(ccc1)C(=O)NCC

>  <s_sd_BIOSOLVEIT.INFINISEE\_SPACE>  (1629) 
REALSpace_44bn_2023-08

>  <s_vsw_compound_code>  (1629) 
25825

>  <s_vsw_variant>  (1629) 
25825-2

>  <r_epik_Charging_Adjusted_Penalty>  (1629) 
0.13917905508047501

>  <r_epik_Ionization_Penalty>  (1629) 
0.069599999999999995

>  <r_epik_Ionization_Penalty_Charging>  (1629) 
0.069599999999999995

>  <r_epik_Ionization_Penalty_Neutral>  (1629) 
0

>  <r_epik_State_Penalty>  (1629) 
0.069599999999999995

>  <r_i_docking_score>  (1629) 
-5.10529777735234

>  <r_i_glide_ecoul>  (1629) 
-8.0589361190795898

>  <r_i_glide_eff_state_penalty>  (1629) 
0.069599999999999995

>  <r_i_glide_einternal>  (1629) 
3.0809588432311998

>  <r_i_glide_emodel>  (1629) 
-63.275450839262803

>  <r_i_glide_energy>  (1629) 
-44.6463460922241

>  <r_i_glide_erotb>  (1629) 
0.91898710632484704

>  <r_i_glide_esite>  (1629) 
-0.14686976194509199

>  <r_i_glide_evdw>  (1629) 
-36.587409973144503

>  <r_i_glide_gscore>  (1629) 
-5.1748977773523404

>  <r_i_glide_hbond>  (1629) 
-0.20000000000000001

>  <r_i_glide_ligand_efficiency>  (1629) 
-0.16468702507588201

>  <r_i_glide_ligand_efficiency_ln>  (1629) 
-1.15140110737986

>  <r_i_glide_ligand_efficiency_sa>  (1629) 
-0.51734463368108696

>  <r_i_glide_lipo>  (1629) 
-2.0404706505007502

>  <r_i_glide_metal>  (1629) 
-0

>  <r_i_glide_rewards>  (1629) 
-0.66833355471218403

>  <r_lp_Energy>  (1629) 
48.207619999999999

>  <r_qp_ACxDN^.5/SA>  (1629) 
0.0124425

>  <r_qp_CIQPlogS>  (1629) 
-4.9290000000000003

>  <r_qp_EA(eV)>  (1629) 
0.255

>  <r_qp_FISA>  (1629) 
88.953000000000003

>  <r_qp_FOSA>  (1629) 
240.41999999999999

>  <r_qp_IP(eV)>  (1629) 
9.3469999999999995

>  <r_qp_Jm>  (1629) 
0.0018107062448530201

>  <r_qp_PISA>  (1629) 
466.24900000000002

>  <r_qp_PSA>  (1629) 
77.582999999999998

>  <r_qp_PercentHumanOralAbsorption>  (1629) 
100

>  <r_qp_QPPCaco>  (1629) 
354.209

>  <r_qp_QPPMDCK>  (1629) 
178.25200000000001

>  <r_qp_QPlogBB>  (1629) 
-0.53300000000000003

>  <r_qp_QPlogHERG>  (1629) 
-8.282

>  <r_qp_QPlogKhsa>  (1629) 
0.67600000000000005

>  <r_qp_QPlogKp>  (1629) 
-2.8109999999999999

>  <r_qp_QPlogPC16>  (1629) 
15.928000000000001

>  <r_qp_QPlogPo/w>  (1629) 
4.4560000000000004

>  <r_qp_QPlogPoct>  (1629) 
23.158000000000001

>  <r_qp_QPlogPw>  (1629) 
13.470000000000001

>  <r_qp_QPlogS>  (1629) 
-5.548

>  <r_qp_QPpolrz>  (1629) 
49.685000000000002

>  <r_qp_SASA>  (1629) 
795.62199999999996

>  <r_qp_SAamideO>  (1629) 
0

>  <r_qp_SAfluorine>  (1629) 
0

>  <r_qp_WPSA>  (1629) 
0

>  <r_qp_accptHB>  (1629) 
7

>  <r_qp_dip^2/V>  (1629) 
0.0044048999999999998

>  <r_qp_dipole>  (1629) 
2.4940000000000002

>  <r_qp_donorHB>  (1629) 
2

>  <r_qp_glob>  (1629) 
0.76516689999999998

>  <r_qp_mol_MW>  (1629) 
413.51799999999997

>  <r_qp_volume>  (1629) 
1412.364

>  <r_sd_BIOSOLVEIT.INFINISEE\_FTREES\_SIMILARITY>  (1629) 
0.92300000000000004

>  <r_sd_BIOSOLVEIT.LOGP>  (1629) 
2.8969999999999998

>  <r_sd_BIOSOLVEIT.MOLECULAR\_WEIGHT>  (1629) 
414.52600000000001

>  <r_sd_BIOSOLVEIT.TPSA>  (1629) 
66.019999999999996

>  <i_epik_Tot_Q>  (1629) 
1

>  <i_epik_Tot_abs_Q>  (1629) 
1

>  <i_f3d_flags>  (1629) 
0

>  <i_i_glide_confnum>  (1629) 
12

>  <i_i_glide_lignum>  (1629) 
137

>  <i_i_glide_posenum>  (1629) 
5

>  <i_i_glide_rotatable_bonds>  (1629) 
9

>  <i_lp_mmshare_version>  (1629) 
65135

>  <i_m_ct_format>  (1629) 
2

>  <i_m_source_file_index>  (1629) 
808

>  <i_qp_#NandO>  (1629) 
5

>  <i_qp_#acid>  (1629) 
0

>  <i_qp_#amide>  (1629) 
0

>  <i_qp_#amidine>  (1629) 
0

>  <i_qp_#amine>  (1629) 
1

>  <i_qp_#in34>  (1629) 
0

>  <i_qp_#in56>  (1629) 
21

>  <i_qp_#metab>  (1629) 
4

>  <i_qp_#nonHatm>  (1629) 
31

>  <i_qp_#noncon>  (1629) 
1

>  <i_qp_#ringatoms>  (1629) 
21

>  <i_qp_#rotor>  (1629) 
8

>  <i_qp_#rtvFG>  (1629) 
0

>  <i_qp_#stars>  (1629) 
1

>  <i_qp_CNS>  (1629) 
1

>  <i_qp_HumanOralAbsorption>  (1629) 
3

>  <i_qp_RuleOfFive>  (1629) 
0

>  <i_qp_RuleOfThree>  (1629) 
0

>  <i_sd_BIOSOLVEIT.INFINISEE\_REAGENT1\_NAME>  (1629) 
12219716

>  <i_sd_BIOSOLVEIT.INFINISEE\_REAGENT2\_NAME>  (1629) 
13763922

>  <i_sd_BIOSOLVEIT.INFINISEE\_RESULT\_RANK>  (1629) 
11947

>  <i_sd_version>  (1629) 
0

>  <b_lp_Chiralities_Consistent>  (1629) 
1

>  <b_sd_chiral_flag>  (1629) 
0

>  <canonical_id>  (1629) 
ATP-HTVS-FF63783F1DD1

>  <compound_code>  (1629) 
25825

>  <title>  (1629) 
m_270004bbb____12219716____13763922

>  <variant>  (1629) 
25825-2

>  <source_file>  (1629) 
运行/运行/ATP-VSW/ATP-VSW-DOCK_HTVS_1-001_lib/ATP-VSW-DOCK_HTVS_1-001_lib

>  <canonical_smiles>  (1629) 
CCNC(=O)c1cccc(C[NH2+]C[C@@H]2c3ccccc3C(=O)N2Cc2ccccc2)c1

>  <scaffold>  (1629) 
O=C1c2ccccc2C(C[NH2+]Cc2ccccc2)N1Cc1ccccc1

>  <molecular_formula>  (1629) 
C26H28N3O2+

$$$$
ATP-HTVS-FF886C71D805
     RDKit          3D

 71 74  0  0  0  0  0  0  0  0999 V2000
  197.9550  182.6124  150.6841 O   0  0  0  0  0  0  0  0  0  0  0  0
  197.9371  181.9087  151.6943 C   0  0  0  0  0  0  0  0  0  0  0  0
  197.7226  182.4079  152.9270 N   0  0  0  0  0  0  0  0  0  0  0  0
  197.0048  181.6599  153.9646 C   0  0  1  0  0  0  0  0  0  0  0  0
  197.9040  181.3828  155.1873 C   0  0  1  0  0  0  0  0  0  0  0  0
  197.4784  182.2665  156.2665 N   0  0  0  0  0  0  0  0  0  0  0  0
  198.2690  182.8073  157.2012 C   0  0  0  0  0  0  0  0  0  0  0  0
  199.4939  182.6179  157.2311 O   0  0  0  0  0  0  0  0  0  0  0  0
  197.6152  183.7612  158.1666 C   0  0  0  0  0  0  0  0  0  0  0  0
  196.3982  183.4618  158.8737 C   0  0  0  0  0  0  0  0  0  0  0  0
  195.9268  184.3895  159.8321 C   0  0  0  0  0  0  0  0  0  0  0  0
  196.5519  185.6477  159.9840 C   0  0  0  0  0  0  0  0  0  0  0  0
  197.7358  185.9482  159.2954 C   0  0  0  0  0  0  0  0  0  0  0  0
  198.2810  185.0013  158.4062 C   0  0  0  0  0  0  0  0  0  0  0  0
  195.5989  182.1416  158.7236 C   0  0  1  0  0  0  0  0  0  0  0  0
  194.2153  182.3075  158.1454 N   0  0  1  0  0  0  0  0  0  0  0  0
  193.4277  181.0644  158.2836 C   0  0  2  0  0  0  0  0  0  0  0  0
  193.4239  183.4942  158.5972 C   0  0  2  0  0  0  0  0  0  0  0  0
  197.8114  179.9289  155.6681 C   0  0  2  0  0  0  0  0  0  0  0  0
  198.0810  183.7915  153.2487 C   0  0  2  0  0  0  0  0  0  0  0  0
  198.2140  180.4603  151.5844 C   0  0  0  0  0  0  0  0  0  0  0  0
  199.1752  179.9355  152.4158 O   0  0  0  0  0  0  0  0  0  0  0  0
  199.2859  178.5967  152.1259 C   0  0  0  0  0  0  0  0  0  0  0  0
  198.3779  178.2651  151.0930 C   0  0  0  0  0  0  0  0  0  0  0  0
  198.3565  176.9148  150.6749 C   0  0  0  0  0  0  0  0  0  0  0  0
  199.1965  175.9498  151.2757 C   0  0  0  0  0  0  0  0  0  0  0  0
  200.0921  176.3226  152.3012 C   0  0  0  0  0  0  0  0  0  0  0  0
  200.1445  177.6615  152.7332 C   0  0  0  0  0  0  0  0  0  0  0  0
  197.7009  179.4895  150.7493 C   0  0  0  0  0  0  0  0  0  0  0  0
  196.6406  179.6835  149.7020 C   0  0  1  0  0  0  0  0  0  0  0  0
  196.8009  178.8072  148.5906 O   0  0  0  0  0  0  0  0  0  0  0  0
  197.8860  178.9910  147.7564 C   0  0  0  0  0  0  0  0  0  0  0  0
  198.0297  178.0767  146.6933 C   0  0  0  0  0  0  0  0  0  0  0  0
  199.1006  178.1899  145.7880 C   0  0  0  0  0  0  0  0  0  0  0  0
  200.0474  179.2200  145.9389 C   0  0  0  0  0  0  0  0  0  0  0  0
  199.9178  180.1395  146.9958 C   0  0  0  0  0  0  0  0  0  0  0  0
  198.8431  180.0316  147.8960 C   0  0  0  0  0  0  0  0  0  0  0  0
  196.1082  182.2232  154.2215 H   0  0  0  0  0  0  0  0  0  0  0  0
  196.6091  180.7194  153.5751 H   0  0  0  0  0  0  0  0  0  0  0  0
  198.9477  181.5758  154.9233 H   0  0  0  0  0  0  0  0  0  0  0  0
  196.4957  182.5123  156.2720 H   0  0  0  0  0  0  0  0  0  0  0  0
  195.0690  184.1573  160.4476 H   0  0  0  0  0  0  0  0  0  0  0  0
  196.1311  186.3761  160.6525 H   0  0  0  0  0  0  0  0  0  0  0  0
  198.2314  186.9053  159.4386 H   0  0  0  0  0  0  0  0  0  0  0  0
  199.2049  185.2261  157.8896 H   0  0  0  0  0  0  0  0  0  0  0  0
  196.1008  181.4288  158.0800 H   0  0  0  0  0  0  0  0  0  0  0  0
  195.5725  181.6534  159.6950 H   0  0  0  0  0  0  0  0  0  0  0  0
  193.2905  180.7940  159.3250 H   0  0  0  0  0  0  0  0  0  0  0  0
  193.9216  180.2363  157.7691 H   0  0  0  0  0  0  0  0  0  0  0  0
  192.4477  181.1828  157.8176 H   0  0  0  0  0  0  0  0  0  0  0  0
  193.3054  183.5588  159.6739 H   0  0  0  0  0  0  0  0  0  0  0  0
  192.4431  183.4464  158.1336 H   0  0  0  0  0  0  0  0  0  0  0  0
  193.9262  184.4228  158.2848 H   0  0  0  0  0  0  0  0  0  0  0  0
  198.1979  179.2352  154.9216 H   0  0  0  0  0  0  0  0  0  0  0  0
  196.7811  179.6465  155.8777 H   0  0  0  0  0  0  0  0  0  0  0  0
  198.3923  179.7851  156.5803 H   0  0  0  0  0  0  0  0  0  0  0  0
  199.1627  183.9170  153.1416 H   0  0  0  0  0  0  0  0  0  0  0  0
  197.8350  184.0457  154.2805 H   0  0  0  0  0  0  0  0  0  0  0  0
  197.5823  184.5083  152.5967 H   0  0  0  0  0  0  0  0  0  0  0  0
  197.6865  176.6187  149.8833 H   0  0  0  0  0  0  0  0  0  0  0  0
  199.1530  174.9214  150.9433 H   0  0  0  0  0  0  0  0  0  0  0  0
  200.7290  175.5754  152.7565 H   0  0  0  0  0  0  0  0  0  0  0  0
  200.8256  177.9622  153.5184 H   0  0  0  0  0  0  0  0  0  0  0  0
  195.6598  179.4965  150.1474 H   0  0  0  0  0  0  0  0  0  0  0  0
  196.6127  180.7156  149.3477 H   0  0  0  0  0  0  0  0  0  0  0  0
  197.3089  177.2800  146.5752 H   0  0  0  0  0  0  0  0  0  0  0  0
  199.1960  177.4872  144.9728 H   0  0  0  0  0  0  0  0  0  0  0  0
  200.8684  179.3054  145.2439 H   0  0  0  0  0  0  0  0  0  0  0  0
  200.6388  180.9343  147.1168 H   0  0  0  0  0  0  0  0  0  0  0  0
  198.7806  180.7637  148.6878 H   0  0  0  0  0  0  0  0  0  0  0  0
  194.2911  182.4477  157.1519 H   0  0  0  0  0  0  0  0  0  0  0  0
  1  2  2  0
  2  3  1  0
  2 21  1  0
  3  4  1  0
  3 20  1  0
  4  5  1  0
  4 38  1  1
  4 39  1  0
  5  6  1  0
  5 19  1  0
  5 40  1  6
  6  7  1  0
  6 41  1  0
  7  8  2  0
  7  9  1  0
  9 10  1  0
  9 14  2  0
 10 11  2  0
 10 15  1  0
 11 12  1  0
 11 42  1  0
 12 13  2  0
 12 43  1  0
 13 14  1  0
 13 44  1  0
 14 45  1  0
 15 16  1  0
 15 46  1  6
 15 47  1  0
 16 17  1  0
 16 18  1  0
 16 71  1  6
 17 48  1  1
 17 49  1  0
 17 50  1  0
 18 51  1  1
 18 52  1  0
 18 53  1  0
 19 54  1  6
 19 55  1  0
 19 56  1  0
 20 57  1  1
 20 58  1  0
 20 59  1  0
 21 22  1  0
 21 29  2  0
 22 23  1  0
 23 24  1  0
 23 28  2  0
 24 25  2  0
 24 29  1  0
 25 26  1  0
 25 60  1  0
 26 27  2  0
 26 61  1  0
 27 28  1  0
 27 62  1  0
 28 63  1  0
 29 30  1  0
 30 31  1  0
 30 64  1  1
 30 65  1  0
 31 32  1  0
 32 33  2  0
 32 37  1  0
 33 34  1  0
 33 66  1  0
 34 35  2  0
 34 67  1  0
 35 36  1  0
 35 68  1  0
 36 37  2  0
 36 69  1  0
 37 70  1  0
M  CHG  1  16   1
M  END
>  <s_epik_cmdline>  (1630) 
J2VwaWtfcHl0aG9uJywgJy1waCcsICc3LjAwMDAwMCcsICctcGh0JywgJzIuMDAwMDAwJywgJy1tcycsICcxNicsICctdG4nLCAnOCcsICctbWEnLCAnMjAwJywgJy1pbWFlJywgJzxpbmZpbGUubWFlPicsICctb21hZScsICc8b3V0ZmlsZS5tYWU+Jw==

>  <s_epik_input>  (1630) 
W2NIXTFbY0hdW2NIXVtjSF1bY0hdYzFPW0NIMl1jKGMoYzIzKVtjSF1bY0hdW2NIXVtjSF0zKWMobzIpQyg9TylOKFtDSDNdKVtDSDJdW0NASF0oW0NIM10pW05IXUMoPU8pYzRjKFtDSDJdTihbQ0gzXSlbQ0gzXSlbY0hdW2NIXVtjSF1bY0hdNA==

>  <s_i_glide_gridfile>  (1630) 
ATP-Grid

>  <s_lp_Force_Field>  (1630) 
OPLS_2005

>  <s_lp_Variant>  (1630) 
m_275592aca____19666570____18923942____14129818-2

>  <s_lp_label>  (1630) 
2053_sdstereoexpander_2_neutralizer_1_epik_1_stereoizer_1

>  <s_m_source_file>  (1630) 
ATP-VSW-LIGPREP-001-in.maegz

>  <s_sd_BIOSOLVEIT.INFINISEE\_QUERY\_NAME>  (1630) 
Ref-Lig

>  <s_sd_BIOSOLVEIT.INFINISEE\_QUERY\_SMILES>  (1630) 
S(c1nc2c(cc1C[NH2+]Cc3ccc(cc3)C[NH+](C)C)cccc2)Cc4ccccc4

>  <s_sd_BIOSOLVEIT.INFINISEE\_REACTION\_NAME>  (1630) 
m_275592aca

>  <s_sd_BIOSOLVEIT.INFINISEE\_REAGENT1\_SMILES>  (1630) 
[R1*]N(CC(N[R2*])C)C

>  <s_sd_BIOSOLVEIT.INFINISEE\_REAGENT2\_SMILES>  (1630) 
[R1*]C(=O)C=1Oc2c(cccc2)C1COc3ccccc3

>  <s_sd_BIOSOLVEIT.INFINISEE\_REAGENT3\_SMILES>  (1630) 
[R2*]C(=O)c1c(cccc1)CN(C)C

>  <s_sd_BIOSOLVEIT.INFINISEE\_SPACE>  (1630) 
REALSpace_44bn_2023-08

>  <s_vsw_compound_code>  (1630) 
65665

>  <s_vsw_variant>  (1630) 
65665-2

>  <r_epik_Charging_Adjusted_Penalty>  (1630) 
0.100245722216264

>  <r_epik_Ionization_Penalty>  (1630) 
0.050099999999999999

>  <r_epik_Ionization_Penalty_Charging>  (1630) 
0.050099999999999999

>  <r_epik_Ionization_Penalty_Neutral>  (1630) 
0

>  <r_epik_State_Penalty>  (1630) 
0.050099999999999999

>  <r_i_docking_score>  (1630) 
-4.73008693975647

>  <r_i_glide_ecoul>  (1630) 
-10.9069204330444

>  <r_i_glide_eff_state_penalty>  (1630) 
0.050099999999999999

>  <r_i_glide_einternal>  (1630) 
17.691896438598601

>  <r_i_glide_emodel>  (1630) 
-62.6301822129996

>  <r_i_glide_energy>  (1630) 
-50.733420372009299

>  <r_i_glide_erotb>  (1630) 
0.89633183490181101

>  <r_i_glide_esite>  (1630) 
-0.15634389841205701

>  <r_i_glide_evdw>  (1630) 
-39.826499938964801

>  <r_i_glide_gscore>  (1630) 
-4.7801869397564696

>  <r_i_glide_hbond>  (1630) 
-0.20000000000000001

>  <r_i_glide_ligand_efficiency>  (1630) 
-0.127840187560986

>  <r_i_glide_ligand_efficiency_ln>  (1630) 
-1.0258449682622699

>  <r_i_glide_ligand_efficiency_sa>  (1630) 
-0.42599186599649302

>  <r_i_glide_lipo>  (1630) 
-1.6897207133649299

>  <r_i_glide_metal>  (1630) 
-0

>  <r_i_glide_rewards>  (1630) 
-0.0030911009763784801

>  <r_lp_Energy>  (1630) 
42.579034

>  <r_lp_tautomer_probability>  (1630) 
1

>  <r_qp_ACxDN^.5/SA>  (1630) 
0.0112143

>  <r_qp_CIQPlogS>  (1630) 
-6.0590000000000002

>  <r_qp_EA(eV)>  (1630) 
0.63900000000000001

>  <r_qp_FISA>  (1630) 
65.087000000000003

>  <r_qp_FOSA>  (1630) 
231.77000000000001

>  <r_qp_IP(eV)>  (1630) 
8.9949999999999992

>  <r_qp_Jm>  (1630) 
0.19345965927016501

>  <r_qp_PISA>  (1630) 
483.39400000000001

>  <r_qp_PSA>  (1630) 
75.469999999999999

>  <r_qp_PercentHumanOralAbsorption>  (1630) 
100

>  <r_qp_QPPCaco>  (1630) 
596.46500000000003

>  <r_qp_QPPMDCK>  (1630) 
313.08600000000001

>  <r_qp_QPlogBB>  (1630) 
-0.28100000000000003

>  <r_qp_QPlogHERG>  (1630) 
-7.4210000000000003

>  <r_qp_QPlogKhsa>  (1630) 
0.59999999999999998

>  <r_qp_QPlogKp>  (1630) 
-2.1190000000000002

>  <r_qp_QPlogPC16>  (1630) 
16.431999999999999

>  <r_qp_QPlogPo/w>  (1630) 
4.8099999999999996

>  <r_qp_QPlogPoct>  (1630) 
24.152000000000001

>  <r_qp_QPlogPw>  (1630) 
13.205

>  <r_qp_QPlogS>  (1630) 
-4.2930000000000001

>  <r_qp_QPpolrz>  (1630) 
53.320999999999998

>  <r_qp_SASA>  (1630) 
780.25099999999998

>  <r_qp_SAamideO>  (1630) 
0

>  <r_qp_SAfluorine>  (1630) 
0

>  <r_qp_WPSA>  (1630) 
0

>  <r_qp_accptHB>  (1630) 
8.75

>  <r_qp_dip^2/V>  (1630) 
0.0084227

>  <r_qp_dipole>  (1630) 
3.5910000000000002

>  <r_qp_donorHB>  (1630) 
1

>  <r_qp_glob>  (1630) 
0.82342070000000001

>  <r_qp_mol_MW>  (1630) 
499.608

>  <r_qp_volume>  (1630) 
1531.2180000000001

>  <r_sd_BIOSOLVEIT.INFINISEE\_FTREES\_SIMILARITY>  (1630) 
0.90100000000000002

>  <r_sd_BIOSOLVEIT.LOGP>  (1630) 
3.5468000000000002

>  <r_sd_BIOSOLVEIT.MOLECULAR\_WEIGHT>  (1630) 
500.61599999999999

>  <r_sd_BIOSOLVEIT.TPSA>  (1630) 
76.219999999999999

>  <i_epik_Tot_Q>  (1630) 
1

>  <i_epik_Tot_abs_Q>  (1630) 
1

>  <i_f3d_flags>  (1630) 
0

>  <i_i_glide_confnum>  (1630) 
7

>  <i_i_glide_lignum>  (1630) 
630

>  <i_i_glide_posenum>  (1630) 
19

>  <i_i_glide_rotatable_bonds>  (1630) 
12

>  <i_lp_mmshare_version>  (1630) 
65135

>  <i_m_ct_format>  (1630) 
2

>  <i_m_source_file_index>  (1630) 
2053

>  <i_qp_#NandO>  (1630) 
7

>  <i_qp_#acid>  (1630) 
0

>  <i_qp_#amide>  (1630) 
0

>  <i_qp_#amidine>  (1630) 
0

>  <i_qp_#amine>  (1630) 
1

>  <i_qp_#in34>  (1630) 
0

>  <i_qp_#in56>  (1630) 
21

>  <i_qp_#metab>  (1630) 
5

>  <i_qp_#nonHatm>  (1630) 
37

>  <i_qp_#noncon>  (1630) 
0

>  <i_qp_#ringatoms>  (1630) 
21

>  <i_qp_#rotor>  (1630) 
10

>  <i_qp_#rtvFG>  (1630) 
0

>  <i_qp_#stars>  (1630) 
1

>  <i_qp_CNS>  (1630) 
1

>  <i_qp_HumanOralAbsorption>  (1630) 
3

>  <i_qp_RuleOfFive>  (1630) 
0

>  <i_qp_RuleOfThree>  (1630) 
0

>  <i_sd_BIOSOLVEIT.INFINISEE\_REAGENT1\_NAME>  (1630) 
19666570

>  <i_sd_BIOSOLVEIT.INFINISEE\_REAGENT2\_NAME>  (1630) 
18923942

>  <i_sd_BIOSOLVEIT.INFINISEE\_REAGENT3\_NAME>  (1630) 
14129818

>  <i_sd_BIOSOLVEIT.INFINISEE\_RESULT\_RANK>  (1630) 
94213

>  <i_sd_version>  (1630) 
0

>  <b_lp_Chiralities_Consistent>  (1630) 
1

>  <b_sd_chiral_flag>  (1630) 
0

>  <canonical_id>  (1630) 
ATP-HTVS-FF886C71D805

>  <compound_code>  (1630) 
65665

>  <title>  (1630) 
m_275592aca____19666570____18923942____14129818

>  <variant>  (1630) 
65665-2

>  <source_file>  (1630) 
运行/运行/ATP-VSW/ATP-VSW-DOCK_HTVS_1-001_lib/ATP-VSW-DOCK_HTVS_1-001_lib

>  <canonical_smiles>  (1630) 
C[C@@H](CN(C)C(=O)c1oc2ccccc2c1COc1ccccc1)NC(=O)c1ccccc1C[NH+](C)C

>  <scaffold>  (1630) 
O=C(NCCNC(=O)c1oc2ccccc2c1COc1ccccc1)c1ccccc1

>  <molecular_formula>  (1630) 
C30H34N3O4+

$$$$
ATP-HTVS-FFCF51BF8290
     RDKit          3D

 53 55  0  0  0  0  0  0  0  0999 V2000
  198.3851  179.6739  155.2782 S   0  0  0  0  0  0  0  0  0  0  0  0
  199.6856  178.9643  156.1866 C   0  0  0  0  0  0  0  0  0  0  0  0
  200.4810  179.9442  156.7415 C   0  0  0  0  0  0  0  0  0  0  0  0
  200.0481  181.2646  156.4399 C   0  0  0  0  0  0  0  0  0  0  0  0
  200.6871  182.3878  156.9916 N   0  0  0  0  0  0  0  0  0  0  0  0
  200.0522  183.6908  157.0965 C   0  0  1  0  0  0  0  0  0  0  0  0
  198.8289  183.8470  158.0296 C   0  0  0  0  0  0  0  0  0  0  0  0
  197.7992  182.8492  158.0785 C   0  0  0  0  0  0  0  0  0  0  0  0
  196.6701  182.9989  158.9067 C   0  0  0  0  0  0  0  0  0  0  0  0
  196.5982  184.1166  159.8066 C   0  0  0  0  0  0  0  0  0  0  0  0
  197.5740  185.1247  159.7253 C   0  0  0  0  0  0  0  0  0  0  0  0
  198.6952  185.0065  158.8584 C   0  0  0  0  0  0  0  0  0  0  0  0
  195.5997  181.9196  158.8297 C   0  0  1  0  0  0  0  0  0  0  0  0
  194.3328  182.3532  158.1618 N   0  0  1  0  0  0  0  0  0  0  0  0
  193.2979  181.2911  158.2027 C   0  0  2  0  0  0  0  0  0  0  0  0
  193.7811  183.6545  158.6295 C   0  0  2  0  0  0  0  0  0  0  0  0
  198.9786  181.2458  155.5668 C   0  0  0  0  0  0  0  0  0  0  0  0
  199.8099  177.4782  156.3029 C   0  0  1  0  0  0  0  0  0  0  0  0
  200.9427  176.9919  155.4087 C   0  0  0  0  0  0  0  0  0  0  0  0
  201.1640  177.5661  154.3329 O   0  0  0  0  0  0  0  0  0  0  0  0
  201.6410  175.9319  155.8346 N   0  0  0  0  0  0  0  0  0  0  0  0
  202.7771  175.3692  155.1840 C   0  0  0  0  0  0  0  0  0  0  0  0
  203.7352  176.1570  154.5038 C   0  0  0  0  0  0  0  0  0  0  0  0
  204.8344  175.5542  153.8745 C   0  0  0  0  0  0  0  0  0  0  0  0
  205.0105  174.1612  153.9499 C   0  0  0  0  0  0  0  0  0  0  0  0
  204.0764  173.3751  154.6502 C   0  0  0  0  0  0  0  0  0  0  0  0
  202.9712  173.9759  155.2846 C   0  0  0  0  0  0  0  0  0  0  0  0
  201.3176  179.7291  157.4158 H   0  0  0  0  0  0  0  0  0  0  0  0
  201.5704  182.2610  157.4474 H   0  0  0  0  0  0  0  0  0  0  0  0
  200.8082  184.3939  157.4172 H   0  0  0  0  0  0  0  0  0  0  0  0
  199.7656  184.0105  156.0932 H   0  0  0  0  0  0  0  0  0  0  0  0
  197.8289  181.9389  157.4851 H   0  0  0  0  0  0  0  0  0  0  0  0
  195.8009  184.1991  160.5151 H   0  0  0  0  0  0  0  0  0  0  0  0
  197.4731  186.0108  160.3502 H   0  0  0  0  0  0  0  0  0  0  0  0
  199.4321  185.7779  158.8206 H   0  0  0  0  0  0  0  0  0  0  0  0
  195.9946  181.0962  158.2221 H   0  0  0  0  0  0  0  0  0  0  0  0
  195.4370  181.4818  159.7935 H   0  0  0  0  0  0  0  0  0  0  0  0
  193.0328  181.0425  159.2231 H   0  0  0  0  0  0  0  0  0  0  0  0
  193.6212  180.3726  157.7061 H   0  0  0  0  0  0  0  0  0  0  0  0
  192.4003  181.6377  157.6780 H   0  0  0  0  0  0  0  0  0  0  0  0
  193.6598  183.6265  159.7002 H   0  0  0  0  0  0  0  0  0  0  0  0
  192.8087  183.8229  158.1739 H   0  0  0  0  0  0  0  0  0  0  0  0
  194.4299  184.4821  158.3424 H   0  0  0  0  0  0  0  0  0  0  0  0
  198.4428  182.1238  155.1554 H   0  0  0  0  0  0  0  0  0  0  0  0
  199.9482  177.1840  157.3430 H   0  0  0  0  0  0  0  0  0  0  0  0
  198.8866  177.0225  155.9483 H   0  0  0  0  0  0  0  0  0  0  0  0
  201.3236  175.4843  156.6854 H   0  0  0  0  0  0  0  0  0  0  0  0
  203.6506  177.2287  154.4498 H   0  0  0  0  0  0  0  0  0  0  0  0
  205.5439  176.1582  153.3418 H   0  0  0  0  0  0  0  0  0  0  0  0
  205.8516  173.6869  153.4617 H   0  0  0  0  0  0  0  0  0  0  0  0
  204.2034  172.2980  154.7102 H   0  0  0  0  0  0  0  0  0  0  0  0
  202.2654  173.3626  155.8283 H   0  0  0  0  0  0  0  0  0  0  0  0
  194.4805  182.4876  157.1715 H   0  0  0  0  0  0  0  0  0  0  0  0
  1  2  1  0
  1 17  1  0
  2  3  2  0
  2 18  1  0
  3  4  1  0
  3 28  1  0
  4  5  1  0
  4 17  2  0
  5  6  1  0
  5 29  1  0
  6  7  1  0
  6 30  1  1
  6 31  1  0
  7  8  2  0
  7 12  1  0
  8  9  1  0
  8 32  1  0
  9 10  2  0
  9 13  1  0
 10 11  1  0
 10 33  1  0
 11 12  2  0
 11 34  1  0
 12 35  1  0
 13 14  1  0
 13 36  1  6
 13 37  1  0
 14 15  1  0
 14 16  1  0
 14 53  1  6
 15 38  1  1
 15 39  1  0
 15 40  1  0
 16 41  1  1
 16 42  1  0
 16 43  1  0
 17 44  1  0
 18 19  1  0
 18 45  1  1
 18 46  1  0
 19 20  2  0
 19 21  1  0
 21 22  1  0
 21 47  1  0
 22 23  2  0
 22 27  1  0
 23 24  1  0
 23 48  1  0
 24 25  2  0
 24 49  1  0
 25 26  1  0
 25 50  1  0
 26 27  2  0
 26 51  1  0
 27 52  1  0
M  CHG  1  14   1
M  END
>  <s_epik_cmdline>  (1631) 
J2VwaWtfcHl0aG9uJywgJy1waCcsICc3LjAwMDAwMCcsICctcGh0JywgJzIuMDAwMDAwJywgJy1tcycsICcxNicsICctdG4nLCAnOCcsICctbWEnLCAnMjAwJywgJy1pbWFlJywgJzxpbmZpbGUubWFlPicsICctb21hZScsICc8b3V0ZmlsZS5tYWU+Jw==

>  <s_epik_input>  (1631) 
W2NIXTFbY0hdW2NIXVtjSF1bY0hdYzFbTkhdQyg9TylbQ0gyXWMyc1tjSF1jKFtjSF0yKVtOSF1bQ0gyXWMzW2NIXWMoW2NIXVtjSF1bY0hdMylbQ0gyXU4oW0NIM10pW0NIM10=

>  <s_i_glide_gridfile>  (1631) 
ATP-Grid

>  <s_lp_Force_Field>  (1631) 
OPLS_2005

>  <s_lp_Variant>  (1631) 
rxn512b____EMOL477532____EMOL15801711____EMOL2873214-1

>  <s_lp_label>  (1631) 
2558_sdstereoexpander_1_neutralizer_1_epik_1_stereoizer_1

>  <s_m_source_file>  (1631) 
ATP-VSW-LIGPREP-002-in.maegz

>  <s_sd_BIOSOLVEIT.INFINISEE\_QUERY\_NAME>  (1631) 
Ref-Lig

>  <s_sd_BIOSOLVEIT.INFINISEE\_QUERY\_SMILES>  (1631) 
S(c1nc2c(cc1C[NH2+]Cc3ccc(cc3)C[NH+](C)C)cccc2)Cc4ccccc4

>  <s_sd_BIOSOLVEIT.INFINISEE\_REACTION\_NAME>  (1631) 
rxn512b

>  <s_sd_BIOSOLVEIT.INFINISEE\_REAGENT1\_NAME>  (1631) 
EMOL477532

>  <s_sd_BIOSOLVEIT.INFINISEE\_REAGENT1\_SMILES>  (1631) 
Nc1ccccc1

>  <s_sd_BIOSOLVEIT.INFINISEE\_REAGENT2\_NAME>  (1631) 
EMOL15801711

>  <s_sd_BIOSOLVEIT.INFINISEE\_REAGENT2\_SMILES>  (1631) 
BrC1=CSC(=C1)CC(=O)O

>  <s_sd_BIOSOLVEIT.INFINISEE\_REAGENT3\_NAME>  (1631) 
EMOL2873214

>  <s_sd_BIOSOLVEIT.INFINISEE\_REAGENT3\_SMILES>  (1631) 
N(Cc1cc(ccc1)CN)(C)C

>  <s_sd_BIOSOLVEIT.INFINISEE\_SPACE>  (1631) 
eXplore_7tr_2022-12

>  <s_vsw_compound_code>  (1631) 
81826

>  <s_vsw_variant>  (1631) 
81826-1

>  <r_epik_Charging_Adjusted_Penalty>  (1631) 
0.086140609825027206

>  <r_epik_Ionization_Penalty>  (1631) 
0.043099999999999999

>  <r_epik_Ionization_Penalty_Charging>  (1631) 
0.043099999999999999

>  <r_epik_Ionization_Penalty_Neutral>  (1631) 
0

>  <r_epik_State_Penalty>  (1631) 
0.043099999999999999

>  <r_i_docking_score>  (1631) 
-3.8456085029188798

>  <r_i_glide_ecoul>  (1631) 
-8.4716415405273402

>  <r_i_glide_eff_state_penalty>  (1631) 
0.043099999999999999

>  <r_i_glide_einternal>  (1631) 
5.1374359130859402

>  <r_i_glide_emodel>  (1631) 
-53.665571108650802

>  <r_i_glide_energy>  (1631) 
-41.772190093994098

>  <r_i_glide_erotb>  (1631) 
0.937907819918814

>  <r_i_glide_esite>  (1631) 
-0.10000000000000001

>  <r_i_glide_evdw>  (1631) 
-33.300548553466797

>  <r_i_glide_gscore>  (1631) 
-3.8887085029188801

>  <r_i_glide_hbond>  (1631) 
-0.17241338168070899

>  <r_i_glide_ligand_efficiency>  (1631) 
-0.14242994455255101

>  <r_i_glide_ligand_efficiency_ln>  (1631) 
-0.89519425966838095

>  <r_i_glide_ligand_efficiency_sa>  (1631) 
-0.427289833188228

>  <r_i_glide_lipo>  (1631) 
-0.71499931920111404

>  <r_i_glide_metal>  (1631) 
-0

>  <r_i_glide_rewards>  (1631) 
-0.90342996320343405

>  <r_lp_Energy>  (1631) 
20.030092

>  <r_lp_tautomer_probability>  (1631) 
0.99999274205267796

>  <r_qp_ACxDN^.5/SA>  (1631) 
0.0104206

>  <r_qp_CIQPlogS>  (1631) 
-3.5950000000000002

>  <r_qp_EA(eV)>  (1631) 
0.25900000000000001

>  <r_qp_FISA>  (1631) 
58.054000000000002

>  <r_qp_FOSA>  (1631) 
250.42099999999999

>  <r_qp_IP(eV)>  (1631) 
8.0920000000000005

>  <r_qp_Jm>  (1631) 
0.000693533632124118

>  <r_qp_PISA>  (1631) 
392.87599999999998

>  <r_qp_PSA>  (1631) 
53.557000000000002

>  <r_qp_PercentHumanOralAbsorption>  (1631) 
91.447000000000003

>  <r_qp_QPPCaco>  (1631) 
173.44999999999999

>  <r_qp_QPPMDCK>  (1631) 
160.93299999999999

>  <r_qp_QPlogBB>  (1631) 
0.34300000000000003

>  <r_qp_QPlogHERG>  (1631) 
-8.5169999999999995

>  <r_qp_QPlogKhsa>  (1631) 
0.67900000000000005

>  <r_qp_QPlogKp>  (1631) 
-4.5629999999999997

>  <r_qp_QPlogPC16>  (1631) 
14.436

>  <r_qp_QPlogPo/w>  (1631) 
4.1710000000000003

>  <r_qp_QPlogPoct>  (1631) 
21.140999999999998

>  <r_qp_QPlogPw>  (1631) 
11.180999999999999

>  <r_qp_QPlogS>  (1631) 
-4.1760000000000002

>  <r_qp_QPpolrz>  (1631) 
44.701999999999998

>  <r_qp_SASA>  (1631) 
746.42200000000003

>  <r_qp_SAamideO>  (1631) 
0

>  <r_qp_SAfluorine>  (1631) 
0

>  <r_qp_WPSA>  (1631) 
45.070999999999998

>  <r_qp_accptHB>  (1631) 
5.5

>  <r_qp_dip^2/V>  (1631) 
0.046164900000000002

>  <r_qp_dipole>  (1631) 
7.7629999999999999

>  <r_qp_donorHB>  (1631) 
2

>  <r_qp_glob>  (1631) 
0.77387099999999998

>  <r_qp_mol_MW>  (1631) 
379.51900000000001

>  <r_qp_volume>  (1631) 
1305.364

>  <r_sd_BIOSOLVEIT.INFINISEE\_FTREES\_SIMILARITY>  (1631) 
0.91200000000000003

>  <r_sd_BIOSOLVEIT.LOGP>  (1631) 
3.1859000000000002

>  <r_sd_BIOSOLVEIT.MOLECULAR\_WEIGHT>  (1631) 
380.53199999999998

>  <r_sd_BIOSOLVEIT.TPSA>  (1631) 
45.57

>  <i_epik_Tot_Q>  (1631) 
1

>  <i_epik_Tot_abs_Q>  (1631) 
1

>  <i_f3d_flags>  (1631) 
0

>  <i_i_glide_confnum>  (1631) 
4

>  <i_i_glide_lignum>  (1631) 
1133

>  <i_i_glide_posenum>  (1631) 
19

>  <i_i_glide_rotatable_bonds>  (1631) 
9

>  <i_lp_mmshare_version>  (1631) 
65135

>  <i_m_ct_format>  (1631) 
2

>  <i_m_source_file_index>  (1631) 
2558

>  <i_qp_#NandO>  (1631) 
4

>  <i_qp_#acid>  (1631) 
0

>  <i_qp_#amide>  (1631) 
0

>  <i_qp_#amidine>  (1631) 
0

>  <i_qp_#amine>  (1631) 
2

>  <i_qp_#in34>  (1631) 
0

>  <i_qp_#in56>  (1631) 
17

>  <i_qp_#metab>  (1631) 
7

>  <i_qp_#nonHatm>  (1631) 
27

>  <i_qp_#noncon>  (1631) 
0

>  <i_qp_#ringatoms>  (1631) 
17

>  <i_qp_#rotor>  (1631) 
8

>  <i_qp_#rtvFG>  (1631) 
0

>  <i_qp_#stars>  (1631) 
0

>  <i_qp_CNS>  (1631) 
1

>  <i_qp_HumanOralAbsorption>  (1631) 
3

>  <i_qp_RuleOfFive>  (1631) 
0

>  <i_qp_RuleOfThree>  (1631) 
1

>  <i_sd_BIOSOLVEIT.INFINISEE\_RESULT\_RANK>  (1631) 
36690

>  <i_sd_version>  (1631) 
0

>  <b_lp_Chiralities_Consistent>  (1631) 
1

>  <b_sd_chiral_flag>  (1631) 
0

>  <canonical_id>  (1631) 
ATP-HTVS-FFCF51BF8290

>  <compound_code>  (1631) 
81826

>  <title>  (1631) 
rxn512b____EMOL477532____EMOL15801711____EMOL2873214

>  <variant>  (1631) 
81826-1

>  <source_file>  (1631) 
运行/运行/ATP-VSW/ATP-VSW-DOCK_HTVS_1-002_lib.maegz

>  <canonical_smiles>  (1631) 
C[NH+](C)Cc1cccc(CNc2csc(CC(=O)Nc3ccccc3)c2)c1

>  <scaffold>  (1631) 
O=C(Cc1cc(NCc2ccccc2)cs1)Nc1ccccc1

>  <molecular_formula>  (1631) 
C22H26N3OS+

$$$$
ATP-HTVS-FFD71C24E98D
     RDKit          3D

 65 68  0  0  0  0  0  0  0  0999 V2000
  199.4720  184.6849  158.9771 S   0  0  1  0  0  0  0  0  0  0  0  0
  199.8411  183.4157  159.6359 O   0  0  0  0  0  0  0  0  0  0  0  0
  198.9185  185.7912  159.7503 O   0  0  0  0  0  0  0  0  0  0  0  0
  200.8571  185.2885  158.1392 N   0  0  0  0  0  0  0  0  0  0  0  0
  201.9616  185.8307  158.9132 C   0  0  2  0  0  0  0  0  0  0  0  0
  198.3293  184.4036  157.5846 C   0  0  1  0  0  0  0  0  0  0  0  0
  196.9461  183.9767  158.0532 C   0  0  0  0  0  0  0  0  0  0  0  0
  196.4465  182.6337  157.9363 C   0  0  0  0  0  0  0  0  0  0  0  0
  195.1432  182.3256  158.3952 C   0  0  0  0  0  0  0  0  0  0  0  0
  194.3276  183.3196  158.9592 C   0  0  0  0  0  0  0  0  0  0  0  0
  194.7982  184.6373  159.0540 C   0  0  0  0  0  0  0  0  0  0  0  0
  196.0914  184.9574  158.5953 C   0  0  0  0  0  0  0  0  0  0  0  0
  197.2447  181.4885  157.3225 C   0  0  1  0  0  0  0  0  0  0  0  0
  196.7460  181.1756  155.9622 N   0  0  1  0  0  0  0  0  0  0  0  0
  197.7723  180.6618  155.0334 C   0  0  1  0  0  0  0  0  0  0  0  0
  197.2640  180.7926  153.6201 C   0  0  0  0  0  0  0  0  0  0  0  0
  197.2510  181.9497  152.7528 C   0  0  0  0  0  0  0  0  0  0  0  0
  196.7473  181.6413  151.5505 N   0  0  0  0  0  0  0  0  0  0  0  0
  196.4586  180.3333  151.6077 N   0  0  0  0  0  0  0  0  0  0  0  0
  196.7567  179.8059  152.8412 C   0  0  0  0  0  0  0  0  0  0  0  0
  195.9712  179.6643  150.4269 C   0  0  1  0  0  0  0  0  0  0  0  0
  197.0451  178.8387  149.7197 C   0  0  0  0  0  0  0  0  0  0  0  0
  198.0858  178.1975  150.4404 C   0  0  0  0  0  0  0  0  0  0  0  0
  199.0427  177.4140  149.7880 C   0  0  0  0  0  0  0  0  0  0  0  0
  198.9825  177.2500  148.3935 C   0  0  0  0  0  0  0  0  0  0  0  0
  197.9454  177.8628  147.6629 C   0  0  0  0  0  0  0  0  0  0  0  0
  196.9764  178.6499  148.3198 C   0  0  0  0  0  0  0  0  0  0  0  0
  197.6708  183.3454  153.0090 C   0  0  0  0  0  0  0  0  0  0  0  0
  198.1351  184.1645  151.9592 C   0  0  0  0  0  0  0  0  0  0  0  0
  198.5068  185.4984  152.2261 C   0  0  0  0  0  0  0  0  0  0  0  0
  198.3647  186.0313  153.5482 C   0  0  0  0  0  0  0  0  0  0  0  0
  197.7974  185.2718  154.5325 C   0  0  0  0  0  0  0  0  0  0  0  0
  197.5200  183.9339  154.3151 C   0  0  0  0  0  0  0  0  0  0  0  0
  198.9990  186.4064  151.1401 C   0  0  2  0  0  0  0  0  0  0  0  0
  195.9495  180.5506  156.0334 H   0  0  0  0  0  0  0  0  0  0  0  0
  201.1731  184.6610  157.3996 H   0  0  0  0  0  0  0  0  0  0  0  0
  202.7302  186.2337  158.2595 H   0  0  0  0  0  0  0  0  0  0  0  0
  202.3954  185.0498  159.5287 H   0  0  0  0  0  0  0  0  0  0  0  0
  201.6058  186.6267  159.5612 H   0  0  0  0  0  0  0  0  0  0  0  0
  198.2843  185.4139  157.2161 H   0  0  0  0  0  0  0  0  0  0  0  0
  198.8085  183.7637  156.8589 H   0  0  0  0  0  0  0  0  0  0  0  0
  194.7672  181.3029  158.3286 H   0  0  0  0  0  0  0  0  0  0  0  0
  193.3409  183.0742  159.3150 H   0  0  0  0  0  0  0  0  0  0  0  0
  194.1679  185.4024  159.4931 H   0  0  0  0  0  0  0  0  0  0  0  0
  196.4116  185.9886  158.6523 H   0  0  0  0  0  0  0  0  0  0  0  0
  198.3108  181.7238  157.3072 H   0  0  0  0  0  0  0  0  0  0  0  0
  197.1600  180.6108  157.9507 H   0  0  0  0  0  0  0  0  0  0  0  0
  198.7193  181.2038  155.1429 H   0  0  0  0  0  0  0  0  0  0  0  0
  197.9877  179.6237  155.3043 H   0  0  0  0  0  0  0  0  0  0  0  0
  196.6323  178.7554  153.0451 H   0  0  0  0  0  0  0  0  0  0  0  0
  195.1434  179.0320  150.7290 H   0  0  0  0  0  0  0  0  0  0  0  0
  195.5694  180.4043  149.7352 H   0  0  0  0  0  0  0  0  0  0  0  0
  198.1868  178.2577  151.5106 H   0  0  0  0  0  0  0  0  0  0  0  0
  199.8223  176.9574  150.3831 H   0  0  0  0  0  0  0  0  0  0  0  0
  199.7393  176.6560  147.9051 H   0  0  0  0  0  0  0  0  0  0  0  0
  197.9057  177.7302  146.5934 H   0  0  0  0  0  0  0  0  0  0  0  0
  196.1782  179.0952  147.7389 H   0  0  0  0  0  0  0  0  0  0  0  0
  198.2053  183.7648  150.9296 H   0  0  0  0  0  0  0  0  0  0  0  0
  198.6139  187.0526  153.7649 H   0  0  0  0  0  0  0  0  0  0  0  0
  197.5512  185.7236  155.4711 H   0  0  0  0  0  0  0  0  0  0  0  0
  197.1072  183.3881  155.1196 H   0  0  0  0  0  0  0  0  0  0  0  0
  198.7487  187.4397  151.3910 H   0  0  0  0  0  0  0  0  0  0  0  0
  198.5172  186.1364  150.1929 H   0  0  0  0  0  0  0  0  0  0  0  0
  200.0845  186.3000  151.0772 H   0  0  0  0  0  0  0  0  0  0  0  0
  196.4165  182.0420  155.5597 H   0  0  0  0  0  0  0  0  0  0  0  0
  1  2  2  0
  1  3  2  0
  1  4  1  6
  1  6  1  0
  4  5  1  0
  4 36  1  0
  5 37  1  6
  5 38  1  0
  5 39  1  0
  6  7  1  0
  6 40  1  6
  6 41  1  0
  7  8  1  0
  7 12  2  0
  8  9  2  0
  8 13  1  0
  9 10  1  0
  9 42  1  0
 10 11  2  0
 10 43  1  0
 11 12  1  0
 11 44  1  0
 12 45  1  0
 13 14  1  0
 13 46  1  6
 13 47  1  0
 14 15  1  0
 14 35  1  1
 14 65  1  0
 15 16  1  0
 15 48  1  6
 15 49  1  0
 16 17  1  0
 16 20  2  0
 17 18  2  0
 17 28  1  0
 18 19  1  0
 19 20  1  0
 19 21  1  0
 20 50  1  0
 21 22  1  0
 21 51  1  1
 21 52  1  0
 22 23  2  0
 22 27  1  0
 23 24  1  0
 23 53  1  0
 24 25  2  0
 24 54  1  0
 25 26  1  0
 25 55  1  0
 26 27  2  0
 26 56  1  0
 27 57  1  0
 28 29  2  0
 28 33  1  0
 29 30  1  0
 29 58  1  0
 30 31  2  0
 30 34  1  0
 31 32  1  0
 31 59  1  0
 32 33  2  0
 32 60  1  0
 33 61  1  0
 34 62  1  1
 34 63  1  0
 34 64  1  0
M  CHG  1  14   1
M  END
>  <s_epik_cmdline>  (1632) 
J2VwaWtfcHl0aG9uJywgJy1waCcsICc3LjAwMDAwMCcsICctcGh0JywgJzIuMDAwMDAwJywgJy1tcycsICcxNicsICctdG4nLCAnOCcsICctbWEnLCAnMjAwJywgJy1pbWFlJywgJzxpbmZpbGUubWFlPicsICctb21hZScsICc8b3V0ZmlsZS5tYWU+Jw==

>  <s_epik_input>  (1632) 
W0NIM11bTkhdUyg9TykoPU8pW0NIMl1jMWMoW2NIXVtjSF1bY0hdW2NIXTEpW0NIMl1bTkhdW0NIMl1jMmMoLWMzW2NIXWMoW0NIM10pW2NIXVtjSF1bY0hdMylubihbY0hdMilbQ0gyXWM0W2NIXVtjSF1bY0hdW2NIXVtjSF00

>  <s_i_glide_gridfile>  (1632) 
ATP-Grid

>  <s_lp_Force_Field>  (1632) 
OPLS_2005

>  <s_lp_Variant>  (1632) 
a4____190530____161881-1

>  <s_lp_label>  (1632) 
594_sdstereoexpander_1_neutralizer_1_epik_1_stereoizer_1

>  <s_m_source_file>  (1632) 
ATP-VSW-LIGPREP-002-in.maegz

>  <s_sd_BIOSOLVEIT.INFINISEE\_QUERY\_NAME>  (1632) 
Ref-Lig

>  <s_sd_BIOSOLVEIT.INFINISEE\_QUERY\_SMILES>  (1632) 
S(c1nc2c(cc1C[NH2+]Cc3ccc(cc3)C[NH+](C)C)cccc2)Cc4ccccc4

>  <s_sd_BIOSOLVEIT.INFINISEE\_REACTION\_NAME>  (1632) 
a4

>  <s_sd_BIOSOLVEIT.INFINISEE\_REAGENT1\_SMILES>  (1632) 
[R1*]NCc1c(cccc1)CS(=O)(=O)NC

>  <s_sd_BIOSOLVEIT.INFINISEE\_REAGENT2\_SMILES>  (1632) 
[R1*]CC=1C(=NN(C1)Cc2ccccc2)c3cc(ccc3)C

>  <s_sd_BIOSOLVEIT.INFINISEE\_SPACE>  (1632) 
FreedomSpace_5bn_2023-06

>  <s_vsw_compound_code>  (1632) 
18978

>  <s_vsw_variant>  (1632) 
18978-1

>  <r_epik_Charging_Adjusted_Penalty>  (1632) 
0.191024163652638

>  <r_epik_Ionization_Penalty>  (1632) 
0.095500000000000002

>  <r_epik_Ionization_Penalty_Charging>  (1632) 
0.095500000000000002

>  <r_epik_Ionization_Penalty_Neutral>  (1632) 
0

>  <r_epik_State_Penalty>  (1632) 
0.095500000000000002

>  <r_i_docking_score>  (1632) 
-4.5986702683717597

>  <r_i_glide_ecoul>  (1632) 
-7.8846302032470703

>  <r_i_glide_eff_state_penalty>  (1632) 
0.095500000000000002

>  <r_i_glide_einternal>  (1632) 
6.17997026443481

>  <r_i_glide_emodel>  (1632) 
-61.066177507215698

>  <r_i_glide_energy>  (1632) 
-44.790376663208001

>  <r_i_glide_erotb>  (1632) 
0.80538129210144904

>  <r_i_glide_esite>  (1632) 
-0.080933363218420304

>  <r_i_glide_evdw>  (1632) 
-36.905746459960902

>  <r_i_glide_gscore>  (1632) 
-4.6941702683717601

>  <r_i_glide_hbond>  (1632) 
-0.033309917447384998

>  <r_i_glide_ligand_efficiency>  (1632) 
-0.13525500789328701

>  <r_i_glide_ligand_efficiency_ln>  (1632) 
-1.01597525061522

>  <r_i_glide_ligand_efficiency_sa>  (1632) 
-0.43817371923791898

>  <r_i_glide_lipo>  (1632) 
-1.6036001265861699

>  <r_i_glide_metal>  (1632) 
-0

>  <r_i_glide_rewards>  (1632) 
-0.75372629973612404

>  <r_lp_Energy>  (1632) 
12.685257999999999

>  <r_lp_tautomer_probability>  (1632) 
1

>  <r_qp_ACxDN^.5/SA>  (1632) 
0.0130557

>  <r_qp_CIQPlogS>  (1632) 
-6.1399999999999997

>  <r_qp_EA(eV)>  (1632) 
0.73099999999999998

>  <r_qp_FISA>  (1632) 
72.031000000000006

>  <r_qp_FOSA>  (1632) 
290.10899999999998

>  <r_qp_IP(eV)>  (1632) 
8.4969999999999999

>  <r_qp_Jm>  (1632) 
0.0051809098000579297

>  <r_qp_PISA>  (1632) 
450.27300000000002

>  <r_qp_PSA>  (1632) 
74.221000000000004

>  <r_qp_PercentHumanOralAbsorption>  (1632) 
100

>  <r_qp_QPPCaco>  (1632) 
512.54499999999996

>  <r_qp_QPPMDCK>  (1632) 
265.75700000000001

>  <r_qp_QPlogBB>  (1632) 
-0.36499999999999999

>  <r_qp_QPlogHERG>  (1632) 
-7.9279999999999999

>  <r_qp_QPlogKhsa>  (1632) 
0.80000000000000004

>  <r_qp_QPlogKp>  (1632) 
-2.4590000000000001

>  <r_qp_QPlogPC16>  (1632) 
16.466000000000001

>  <r_qp_QPlogPo/w>  (1632) 
4.952

>  <r_qp_QPlogPoct>  (1632) 
25.071999999999999

>  <r_qp_QPlogPw>  (1632) 
13.558

>  <r_qp_QPlogS>  (1632) 
-5.5030000000000001

>  <r_qp_QPpolrz>  (1632) 
52.656999999999996

>  <r_qp_SASA>  (1632) 
812.41300000000001

>  <r_qp_SAamideO>  (1632) 
0

>  <r_qp_SAfluorine>  (1632) 
0

>  <r_qp_WPSA>  (1632) 
0

>  <r_qp_accptHB>  (1632) 
7.5

>  <r_qp_dip^2/V>  (1632) 
0.050157399999999998

>  <r_qp_dipole>  (1632) 
8.6929999999999996

>  <r_qp_donorHB>  (1632) 
2

>  <r_qp_glob>  (1632) 
0.78228660000000005

>  <r_qp_mol_MW>  (1632) 
474.62

>  <r_qp_volume>  (1632) 
1506.492

>  <r_sd_BIOSOLVEIT.INFINISEE\_FTREES\_SIMILARITY>  (1632) 
0.90100000000000002

>  <r_sd_BIOSOLVEIT.LOGP>  (1632) 
3.8702200000000002

>  <r_sd_BIOSOLVEIT.MOLECULAR\_WEIGHT>  (1632) 
475.63299999999998

>  <r_sd_BIOSOLVEIT.TPSA>  (1632) 
80.599999999999994

>  <i_epik_Tot_Q>  (1632) 
1

>  <i_epik_Tot_abs_Q>  (1632) 
1

>  <i_f3d_flags>  (1632) 
0

>  <i_i_glide_confnum>  (1632) 
14

>  <i_i_glide_lignum>  (1632) 
168

>  <i_i_glide_posenum>  (1632) 
20

>  <i_i_glide_rotatable_bonds>  (1632) 
10

>  <i_lp_mmshare_version>  (1632) 
65135

>  <i_m_ct_format>  (1632) 
2

>  <i_m_source_file_index>  (1632) 
594

>  <i_qp_#NandO>  (1632) 
6

>  <i_qp_#acid>  (1632) 
0

>  <i_qp_#amide>  (1632) 
0

>  <i_qp_#amidine>  (1632) 
0

>  <i_qp_#amine>  (1632) 
1

>  <i_qp_#in34>  (1632) 
0

>  <i_qp_#in56>  (1632) 
23

>  <i_qp_#metab>  (1632) 
6

>  <i_qp_#nonHatm>  (1632) 
34

>  <i_qp_#noncon>  (1632) 
0

>  <i_qp_#ringatoms>  (1632) 
23

>  <i_qp_#rotor>  (1632) 
9

>  <i_qp_#rtvFG>  (1632) 
0

>  <i_qp_#stars>  (1632) 
1

>  <i_qp_CNS>  (1632) 
1

>  <i_qp_HumanOralAbsorption>  (1632) 
3

>  <i_qp_RuleOfFive>  (1632) 
0

>  <i_qp_RuleOfThree>  (1632) 
0

>  <i_sd_BIOSOLVEIT.INFINISEE\_REAGENT1\_NAME>  (1632) 
190530

>  <i_sd_BIOSOLVEIT.INFINISEE\_REAGENT2\_NAME>  (1632) 
161881

>  <i_sd_BIOSOLVEIT.INFINISEE\_RESULT\_RANK>  (1632) 
94311

>  <i_sd_version>  (1632) 
0

>  <b_lp_Chiralities_Consistent>  (1632) 
1

>  <b_sd_chiral_flag>  (1632) 
0

>  <canonical_id>  (1632) 
ATP-HTVS-FFD71C24E98D

>  <compound_code>  (1632) 
18978

>  <title>  (1632) 
a4____190530____161881

>  <variant>  (1632) 
18978-1

>  <source_file>  (1632) 
运行/运行/ATP-VSW/ATP-VSW-DOCK_HTVS_1-002_lib.maegz

>  <canonical_smiles>  (1632) 
CNS(=O)(=O)Cc1ccccc1C[NH2+]Cc1cn(Cc2ccccc2)nc1-c1cccc(C)c1

>  <scaffold>  (1632) 
c1ccc(C[NH2+]Cc2cn(Cc3ccccc3)nc2-c2ccccc2)cc1

>  <molecular_formula>  (1632) 
C27H31N4O2S+

$$$$
ATP-HTVS-FFE3AC9FC45B
     RDKit          3D

 51 54  0  0  0  0  0  0  0  0999 V2000
  200.3159  183.8439  159.9552 Cl  0  0  0  0  0  0  0  0  0  0  0  0
  198.8410  183.7562  159.0590 C   0  0  0  0  0  0  0  0  0  0  0  0
  197.5890  183.7973  159.7133 C   0  0  0  0  0  0  0  0  0  0  0  0
  196.4045  183.7029  158.9550 C   0  0  0  0  0  0  0  0  0  0  0  0
  194.8727  183.8732  159.7243 Cl  0  0  0  0  0  0  0  0  0  0  0  0
  196.4663  183.5023  157.5623 C   0  0  0  0  0  0  0  0  0  0  0  0
  197.7154  183.4833  156.9013 C   0  0  0  0  0  0  0  0  0  0  0  0
  198.9004  183.6387  157.6582 C   0  0  0  0  0  0  0  0  0  0  0  0
  197.7745  183.2897  155.4145 C   0  0  0  0  0  0  0  0  0  0  0  0
  198.2990  184.1241  154.6731 O   0  0  0  0  0  0  0  0  0  0  0  0
  197.2753  182.1201  154.9942 N   0  0  0  0  0  0  0  0  0  0  0  0
  197.3130  181.6072  153.6692 C   0  0  0  0  0  0  0  0  0  0  0  0
  197.8445  180.3151  153.4129 C   0  0  0  0  0  0  0  0  0  0  0  0
  198.4034  179.5422  154.4469 N   0  0  0  0  0  0  0  0  0  0  0  0
  199.8631  179.5391  154.5835 C   0  0  1  0  0  0  0  0  0  0  0  0
  200.3730  180.7633  155.2229 C   0  0  0  0  0  0  0  0  0  0  0  0
  200.7850  181.7225  155.7234 N   0  0  0  0  0  0  0  0  0  0  0  0
  200.4399  178.3236  155.2935 C   0  0  0  0  0  0  0  0  0  0  0  0
  201.1319  177.3594  154.5389 C   0  0  0  0  0  0  0  0  0  0  0  0
  201.6831  176.2317  155.1710 C   0  0  0  0  0  0  0  0  0  0  0  0
  201.5464  176.0622  156.5591 C   0  0  0  0  0  0  0  0  0  0  0  0
  200.8652  177.0300  157.3215 C   0  0  0  0  0  0  0  0  0  0  0  0
  200.3189  178.1633  156.6936 C   0  0  0  0  0  0  0  0  0  0  0  0
  197.5185  179.1806  155.5483 C   0  0  2  0  0  0  0  0  0  0  0  0
  197.7926  179.8027  152.0827 C   0  0  0  0  0  0  0  0  0  0  0  0
  197.2112  180.5955  151.0556 C   0  0  0  0  0  0  0  0  0  0  0  0
  196.7456  181.8316  151.3562 N   0  0  0  0  0  0  0  0  0  0  0  0
  196.7769  182.3595  152.6033 C   0  0  0  0  0  0  0  0  0  0  0  0
  197.1025  180.0963  149.7355 C   0  0  0  0  0  0  0  0  0  0  0  0
  197.5770  178.8064  149.4263 C   0  0  0  0  0  0  0  0  0  0  0  0
  198.1535  178.0099  150.4325 C   0  0  0  0  0  0  0  0  0  0  0  0
  198.2704  178.5114  151.7432 C   0  0  0  0  0  0  0  0  0  0  0  0
  197.5247  183.8967  160.7882 H   0  0  0  0  0  0  0  0  0  0  0  0
  195.5541  183.3985  156.9887 H   0  0  0  0  0  0  0  0  0  0  0  0
  199.8763  183.6412  157.1905 H   0  0  0  0  0  0  0  0  0  0  0  0
  196.9942  181.4763  155.7202 H   0  0  0  0  0  0  0  0  0  0  0  0
  200.2953  179.5886  153.5847 H   0  0  0  0  0  0  0  0  0  0  0  0
  201.2525  177.4920  153.4717 H   0  0  0  0  0  0  0  0  0  0  0  0
  202.2134  175.4931  154.5845 H   0  0  0  0  0  0  0  0  0  0  0  0
  201.9605  175.1873  157.0395 H   0  0  0  0  0  0  0  0  0  0  0  0
  200.7493  176.8977  158.3893 H   0  0  0  0  0  0  0  0  0  0  0  0
  199.8010  178.8919  157.3020 H   0  0  0  0  0  0  0  0  0  0  0  0
  196.4644  179.3263  155.3111 H   0  0  0  0  0  0  0  0  0  0  0  0
  197.7465  179.7717  156.4346 H   0  0  0  0  0  0  0  0  0  0  0  0
  197.6415  178.1300  155.8042 H   0  0  0  0  0  0  0  0  0  0  0  0
  196.3442  183.3417  152.7315 H   0  0  0  0  0  0  0  0  0  0  0  0
  196.6739  180.6879  148.9444 H   0  0  0  0  0  0  0  0  0  0  0  0
  197.4971  178.4258  148.4155 H   0  0  0  0  0  0  0  0  0  0  0  0
  198.4933  177.0119  150.1922 H   0  0  0  0  0  0  0  0  0  0  0  0
  198.7161  177.8764  152.4921 H   0  0  0  0  0  0  0  0  0  0  0  0
  196.3183  182.3795  150.6109 H   0  0  0  0  0  0  0  0  0  0  0  0
  1  2  1  0
  2  3  1  0
  2  8  2  0
  3  4  2  0
  3 33  1  0
  4  5  1  0
  4  6  1  0
  6  7  2  0
  6 34  1  0
  7  8  1  0
  7  9  1  0
  8 35  1  0
  9 10  2  0
  9 11  1  0
 11 12  1  0
 11 36  1  0
 12 13  2  0
 12 28  1  0
 13 14  1  0
 13 25  1  0
 14 15  1  0
 14 24  1  0
 15 16  1  0
 15 18  1  0
 15 37  1  6
 16 17  3  0
 18 19  2  0
 18 23  1  0
 19 20  1  0
 19 38  1  0
 20 21  2  0
 20 39  1  0
 21 22  1  0
 21 40  1  0
 22 23  2  0
 22 41  1  0
 23 42  1  0
 24 43  1  6
 24 44  1  0
 24 45  1  0
 25 26  1  0
 25 32  2  0
 26 27  1  0
 26 29  2  0
 27 28  2  0
 27 51  1  0
 28 46  1  0
 29 30  1  0
 29 47  1  0
 30 31  2  0
 30 48  1  0
 31 32  1  0
 31 49  1  0
 32 50  1  0
M  CHG  1  27   1
M  END
>  <s_epik_cmdline>  (1633) 
J2VwaWtfcHl0aG9uJywgJy1waCcsICc3LjAwMDAwMCcsICctcGh0JywgJzIuMDAwMDAwJywgJy1tcycsICcxNicsICctdG4nLCAnOCcsICctbWEnLCAnMjAwJywgJy1pbWFlJywgJzxpbmZpbGUubWFlPicsICctb21hZScsICc8b3V0ZmlsZS5tYWU+Jw==

>  <s_epik_input>  (1633) 
Q2xjMVtjSF1jKENsKVtjSF1jKFtjSF0xKUMoPU8pW05IXWMoW2NIXW5jKGMyMylbY0hdW2NIXVtjSF1bY0hdMyljMk4oW0NIM10pW0NAQEhdKEMjTiljNFtjSF1bY0hdW2NIXVtjSF1bY0hdNA==

>  <s_i_glide_gridfile>  (1633) 
ATP-Grid

>  <s_lp_Force_Field>  (1633) 
OPLS_2005

>  <s_lp_Variant>  (1633) 
rxn502b____EMOL500427____EMOL30488121____EMOL24630243-1

>  <s_lp_label>  (1633) 
2840_sdstereoexpander_1_neutralizer_1_epik_1_stereoizer_1

>  <s_m_source_file>  (1633) 
ATP-VSW-LIGPREP-003-in.maegz

>  <s_sd_BIOSOLVEIT.INFINISEE\_QUERY\_NAME>  (1633) 
Ref-Lig

>  <s_sd_BIOSOLVEIT.INFINISEE\_QUERY\_SMILES>  (1633) 
S(c1nc2c(cc1C[NH2+]Cc3ccc(cc3)C[NH+](C)C)cccc2)Cc4ccccc4

>  <s_sd_BIOSOLVEIT.INFINISEE\_REACTION\_NAME>  (1633) 
rxn502b

>  <s_sd_BIOSOLVEIT.INFINISEE\_REAGENT1\_NAME>  (1633) 
EMOL500427

>  <s_sd_BIOSOLVEIT.INFINISEE\_REAGENT1\_SMILES>  (1633) 
Clc1cc(Cl)cc(c1)C(=O)O

>  <s_sd_BIOSOLVEIT.INFINISEE\_REAGENT2\_NAME>  (1633) 
EMOL30488121

>  <s_sd_BIOSOLVEIT.INFINISEE\_REAGENT2\_SMILES>  (1633) 
Brc1c(N)cnc2c1cccc2

>  <s_sd_BIOSOLVEIT.INFINISEE\_REAGENT3\_NAME>  (1633) 
EMOL24630243

>  <s_sd_BIOSOLVEIT.INFINISEE\_REAGENT3\_SMILES>  (1633) 
N#CC(NC)c1ccccc1

>  <s_sd_BIOSOLVEIT.INFINISEE\_SPACE>  (1633) 
eXplore_7tr_2022-12

>  <s_vsw_compound_code>  (1633) 
90851

>  <s_vsw_variant>  (1633) 
90851-1

>  <r_epik_Charging_Adjusted_Penalty>  (1633) 
0.24711713607581701

>  <r_epik_Ionization_Penalty>  (1633) 
0.1237

>  <r_epik_Ionization_Penalty_Charging>  (1633) 
0.1236

>  <r_epik_Ionization_Penalty_Neutral>  (1633) 
0.00020000000000000001

>  <r_epik_State_Penalty>  (1633) 
0.1236

>  <r_i_docking_score>  (1633) 
-3.9403001603173

>  <r_i_glide_ecoul>  (1633) 
-5.2412838935852104

>  <r_i_glide_eff_state_penalty>  (1633) 
0.1236

>  <r_i_glide_einternal>  (1633) 
5.9574260711669904

>  <r_i_glide_emodel>  (1633) 
-52.709254529430503

>  <r_i_glide_energy>  (1633) 
-42.772148609161398

>  <r_i_glide_erotb>  (1633) 
0.56537921924877699

>  <r_i_glide_esite>  (1633) 
-0.071542761475828096

>  <r_i_glide_evdw>  (1633) 
-37.5308647155762

>  <r_i_glide_gscore>  (1633) 
-4.0639001603173002

>  <r_i_glide_hbond>  (1633) 
0

>  <r_i_glide_ligand_efficiency>  (1633) 
-0.123134380009916

>  <r_i_glide_ligand_efficiency_ln>  (1633) 
-0.88234061442079104

>  <r_i_glide_ligand_efficiency_sa>  (1633) 
-0.390927288270767

>  <r_i_glide_lipo>  (1633) 
-1.63829598009184

>  <r_i_glide_metal>  (1633) 
-0

>  <r_i_glide_rewards>  (1633) 
-0.25670481818181801

>  <r_lp_Energy>  (1633) 
36.986375000000002

>  <r_qp_ACxDN^.5/SA>  (1633) 
0.0091045999999999992

>  <r_qp_CIQPlogS>  (1633) 
-8.5190000000000001

>  <r_qp_EA(eV)>  (1633) 
1.1990000000000001

>  <r_qp_FISA>  (1633) 
99.643000000000001

>  <r_qp_FOSA>  (1633) 
62.432000000000002

>  <r_qp_IP(eV)>  (1633) 
8.7620000000000005

>  <r_qp_Jm>  (1633) 
0.0031717352657375701

>  <r_qp_PISA>  (1633) 
365.23399999999998

>  <r_qp_PSA>  (1633) 
66.873999999999995

>  <r_qp_PercentHumanOralAbsorption>  (1633) 
100

>  <r_qp_QPPCaco>  (1633) 
1124.569

>  <r_qp_QPPMDCK>  (1633) 
2957.2170000000001

>  <r_qp_QPlogBB>  (1633) 
-0.379

>  <r_qp_QPlogHERG>  (1633) 
-5.5839999999999996

>  <r_qp_QPlogKhsa>  (1633) 
0.63300000000000001

>  <r_qp_QPlogKp>  (1633) 
-1.4930000000000001

>  <r_qp_QPlogPC16>  (1633) 
14.369999999999999

>  <r_qp_QPlogPo/w>  (1633) 
4.9539999999999997

>  <r_qp_QPlogPoct>  (1633) 
20.577999999999999

>  <r_qp_QPlogPw>  (1633) 
10.564

>  <r_qp_QPlogS>  (1633) 
-6.6689999999999996

>  <r_qp_QPpolrz>  (1633) 
44.005000000000003

>  <r_qp_SASA>  (1633) 
659.00400000000002

>  <r_qp_SAamideO>  (1633) 
0

>  <r_qp_SAfluorine>  (1633) 
0

>  <r_qp_WPSA>  (1633) 
131.69499999999999

>  <r_qp_accptHB>  (1633) 
6

>  <r_qp_dip^2/V>  (1633) 
0.036347400000000002

>  <r_qp_dipole>  (1633) 
6.774

>  <r_qp_donorHB>  (1633) 
1

>  <r_qp_glob>  (1633) 
0.85720750000000001

>  <r_qp_mol_MW>  (1633) 
461.34899999999999

>  <r_qp_volume>  (1633) 
1262.4480000000001

>  <r_sd_BIOSOLVEIT.INFINISEE\_FTREES\_SIMILARITY>  (1633) 
0.90600000000000003

>  <r_sd_BIOSOLVEIT.LOGP>  (1633) 
6.49498

>  <r_sd_BIOSOLVEIT.MOLECULAR\_WEIGHT>  (1633) 
461.35000000000002

>  <r_sd_BIOSOLVEIT.TPSA>  (1633) 
69.019999999999996

>  <i_epik_Tot_Q>  (1633) 
1

>  <i_epik_Tot_abs_Q>  (1633) 
1

>  <i_f3d_flags>  (1633) 
0

>  <i_i_glide_confnum>  (1633) 
2

>  <i_i_glide_lignum>  (1633) 
1364

>  <i_i_glide_posenum>  (1633) 
10

>  <i_i_glide_rotatable_bonds>  (1633) 
6

>  <i_lp_mmshare_version>  (1633) 
65135

>  <i_m_ct_format>  (1633) 
2

>  <i_m_source_file_index>  (1633) 
2840

>  <i_qp_#NandO>  (1633) 
5

>  <i_qp_#acid>  (1633) 
0

>  <i_qp_#amide>  (1633) 
0

>  <i_qp_#amidine>  (1633) 
0

>  <i_qp_#amine>  (1633) 
0

>  <i_qp_#in34>  (1633) 
0

>  <i_qp_#in56>  (1633) 
22

>  <i_qp_#metab>  (1633) 
4

>  <i_qp_#nonHatm>  (1633) 
32

>  <i_qp_#noncon>  (1633) 
0

>  <i_qp_#ringatoms>  (1633) 
22

>  <i_qp_#rotor>  (1633) 
6

>  <i_qp_#rtvFG>  (1633) 
0

>  <i_qp_#stars>  (1633) 
1

>  <i_qp_CNS>  (1633) 
0

>  <i_qp_HumanOralAbsorption>  (1633) 
1

>  <i_qp_RuleOfFive>  (1633) 
0

>  <i_qp_RuleOfThree>  (1633) 
1

>  <i_sd_BIOSOLVEIT.INFINISEE\_RESULT\_RANK>  (1633) 
67610

>  <i_sd_version>  (1633) 
0

>  <b_lp_Chiralities_Consistent>  (1633) 
1

>  <b_sd_chiral_flag>  (1633) 
0

>  <canonical_id>  (1633) 
ATP-HTVS-FFE3AC9FC45B

>  <compound_code>  (1633) 
90851

>  <title>  (1633) 
rxn502b____EMOL500427____EMOL30488121____EMOL24630243

>  <variant>  (1633) 
90851-1

>  <source_file>  (1633) 
运行/运行/ATP-VSW/ATP-VSW-DOCK_HTVS_1-003_lib/ATP-VSW-DOCK_HTVS_1-003_lib.mae

>  <canonical_smiles>  (1633) 
CN(c1c(NC(=O)c2cc(Cl)cc(Cl)c2)c[nH+]c2ccccc12)[C@@H](C#N)c1ccccc1

>  <scaffold>  (1633) 
O=C(Nc1c[nH+]c2ccccc2c1NCc1ccccc1)c1ccccc1

>  <molecular_formula>  (1633) 
C25H19Cl2N4O+

$$$$
